
#######################################################################
#
#                 Cambridge Crystallographic Data Centre
#                                CCDC 
#
#######################################################################
#
# If this CIF has been generated from an entry in the Cambridge 
# Structural Database, then it will include bibliographic, chemical, 
# crystal, experimental, refinement or atomic coordinate data resulting 
# from the CCDC's data processing and validation procedures.
#
#######################################################################

data_RIGRIJ
_symmetry_cell_setting           orthorhombic
_symmetry_space_group_name_H-M   'P b c a'
_symmetry_Int_Tables_number      61
_space_group_name_Hall           '-P 2ac 2ab'
loop_
_symmetry_equiv_pos_site_id
_symmetry_equiv_pos_as_xyz
1 x,y,z
2 1/2-x,-y,1/2+z
3 -x,1/2+y,1/2-z
4 1/2+x,1/2-y,-z
5 -x,-y,-z
6 1/2+x,y,1/2-z
7 x,1/2-y,1/2+z
8 1/2-x,1/2+y,z
_cell_length_a                   18.842(5)
_cell_length_b                   14.557(4)
_cell_length_c                   21.343(6)
_cell_angle_alpha                90
_cell_angle_beta                 90
_cell_angle_gamma                90
_cell_volume                     5854.02
loop_
_atom_site_label
_atom_site_type_symbol
_atom_site_fract_x
_atom_site_fract_y
_atom_site_fract_z
Ni1 Ni 0.30004(5) 0.96049(7) 0.12261(4)
Ni2 Ni 0.46166(5) 0.96371(7) 0.21056(4)
Ni3 Ni 0.43621(5) 0.85216(7) 0.09272(4)
Na1 Na 0.4108(2) 1.2046(2) 0.12750(16)
O1 O 0.4066(2) 0.9715(3) 0.1299(2)
H1 H 0.4240 1.0227 0.1043
O2 O 0.4691(3) 0.8171(3) 0.1864(2)
H2 H 0.5168 0.7924 0.1890
H3 H 0.4356 0.7785 0.2088
O3 O 0.5213(3) 0.9412(4) 0.2905(2)
H4 H 0.5444 0.9874 0.2987
H5 H 0.4947 0.9292 0.3198
O4 O 0.4550(3) 0.7222(3) 0.0684(2)
H6 H 0.4190 0.6916 0.0737
H7 H 0.4961 0.7169 0.0563
O5 O 0.2878(3) 1.1036(3) 0.1260(2)
H8 H 0.2642 1.1176 0.1568
H9 H 0.2685 1.1279 0.1019
O6 O 0.4611(3) 1.1076(3) 0.2207(2)
H10 H 0.5016 1.1258 0.2271
H11 H 0.4339 1.1225 0.2579
O7 O 0.3608(4) 1.2973(5) 0.2047(3)
H12 H 0.3423 1.3423 0.1883
H13 H 0.3846 1.2941 0.2368
O8 O 0.3552(3) 1.2859(4) 0.0450(2)
H14 H 0.3798 1.2827 0.0134
H15 H 0.3161 1.2630 0.0383
O9 O 0.4635(3) 1.1087(4) 0.0522(2)
H16 H 0.4396 1.1093 0.0201
H17 H 0.5037 1.1268 0.0445
O10 O 0.5163(4) 1.2981(5) 0.1248(3)
H18 H 0.5434 1.2818 0.1527
H19 H 0.5359 1.2926 0.0907
O12 O 0.4002(3) 0.8816(4) 0.0019(2)
O13 O 0.3286(3) 0.8147(3) 0.1170(2)
H22 H 0.3248 0.7825 0.1567
H23 H 0.3040 0.7817 0.0841
O14 O 0.3000(3) 0.9568(4) 0.0280(2)
O15 O 0.1917(3) 0.9377(4) 0.1137(2)
H24 H 0.1780 0.9051 0.1426
H25 H 0.1826 0.9074 0.0746
O16 O 0.0850(3) 0.8013(4) -0.1728(2)
O17 O 0.0847(3) 0.8387(4) -0.0716(2)
O18 O 0.3123(3) 0.7961(4) -0.2849(2)
O19 O 0.4126(3) 0.7897(4) -0.2299(2)
O20 O 0.0430(3) 0.8863(3) 0.4194(2)
O21 O 0.0552(3) 0.9755(3) 0.3341(2)
O22 O 0.3758(3) 0.8365(4) 0.4792(2)
O23 O 0.2754(3) 0.7999(3) 0.5298(2)
O24 O 0.3776(3) 0.9416(4) 0.2670(2)
O25 O 0.2764(3) 0.9579(4) 0.2137(2)
C1 C 0.3022(4) 0.8840(5) -0.0699(3)
C2 C 0.2288(4) 0.8807(5) -0.0723(3)
H26 H 0.2027 0.9008 -0.0379
C3 C 0.1934(4) 0.8482(5) -0.1249(3)
C4 C 0.2331(4) 0.8259(5) -0.1778(3)
H27 H 0.2100 0.8074 -0.2142
C5 C 0.3057(5) 0.8311(5) -0.1770(3)
C6 C 0.3418(4) 0.8565(5) -0.1224(3)
H28 H 0.3911 0.8552 -0.1209
C7 C 0.3378(5) 0.9104(5) -0.0088(3)
C8 C 0.1150(5) 0.8302(6) -0.1236(4)
C9 C 0.3468(5) 0.8048(5) -0.2348(4)
C10 C 0.1585(4) 0.9124(4) 0.3774(3)
C11 C 0.1952(4) 0.8773(5) 0.4290(3)
H29 H 0.1701 0.8592 0.4644
C12 C 0.2686(4) 0.8689(5) 0.4283(3)
C13 C 0.3055(4) 0.8929(4) 0.3749(3)
H30 H 0.3547 0.8884 0.3745
C14 C 0.2701(4) 0.9238(5) 0.3212(3)
C15 C 0.1972(4) 0.9336(5) 0.3238(3)
H31 H 0.1733 0.9550 0.2886
C16 C 0.0799(4) 0.9255(5) 0.3772(3)
C17 C 0.3090(5) 0.8336(5) 0.4840(3)
C18 C 0.3120(4) 0.9432(5) 0.2624(3)
Ni2E Ni -0.03834(5) 0.96371(7) 0.28944(4)
Ni3E Ni -0.06379(5) 0.85216(7) 0.40728(4)
O20E O 0.5430(3) 0.8863(3) 0.0806(2)
O21E O 0.5552(3) 0.9755(3) 0.1659(2)
O11 O 0.9046(4) 0.5735(5) 0.3553(3)
H20 H 0.8738 0.5572 0.3800
H21 H 0.8799 0.6114 0.3355
O26 O 0.5621(14) 0.9796(16) 0.4849(11)
H32 H 0.5628 0.9379 0.5108
H33 H 0.5850 0.9712 0.4574
O27 O 0.4786(16) 0.975(2) 0.4410(12)
H34 H 0.4782 0.9293 0.4187
H35 H 0.5106 0.9997 0.4106
loop_
_geom_bond_atom_site_label_1
_geom_bond_atom_site_label_2
_geom_bond_site_symmetry_1
_geom_bond_site_symmetry_2
Ni1 O1 1_555 1_555
Ni2 O1 1_555 1_555
Ni3 O1 1_555 1_555
Na1 O5 1_555 1_555
O1 H1 1_555 1_555
O2 Ni2 1_555 1_555
H2 O2 1_555 1_555
H3 O2 1_555 1_555
O3 Ni2 1_555 1_555
H4 O3 1_555 1_555
H5 O3 1_555 1_555
O4 Ni3 1_555 1_555
H6 O4 1_555 1_555
H7 O4 1_555 1_555
O5 Ni1 1_555 1_555
H8 O5 1_555 1_555
H9 O5 1_555 1_555
O6 Ni2 1_555 1_555
H10 O6 1_555 1_555
H11 O6 1_555 1_555
O7 Na1 1_555 1_555
H12 O7 1_555 1_555
H13 O7 1_555 1_555
O8 Na1 1_555 1_555
H14 O8 1_555 1_555
H15 O8 1_555 1_555
O9 Na1 1_555 1_555
H16 O9 1_555 1_555
H17 O9 1_555 1_555
O10 Na1 1_555 1_555
H18 O10 1_555 1_555
H19 O10 1_555 1_555
O11 H20 1_555 1_555
H21 O11 1_555 1_555
O12 Ni3 1_555 1_555
O13 Ni1 1_555 1_555
H22 O13 1_555 1_555
H23 O13 1_555 1_555
O14 Ni1 1_555 1_555
O15 Ni1 1_555 1_555
H24 O15 1_555 1_555
H25 O15 1_555 1_555
O16 C8 1_555 1_555
O17 C8 1_555 1_555
O18 C9 1_555 1_555
O19 C9 1_555 1_555
O20 C16 1_555 1_555
O21 C16 1_555 1_555
O22 C17 1_555 1_555
O23 C17 1_555 1_555
O24 Ni2 1_555 1_555
O25 Ni1 1_555 1_555
C1 C2 1_555 1_555
C2 H26 1_555 1_555
C3 C2 1_555 1_555
C4 C3 1_555 1_555
H27 C4 1_555 1_555
C5 C4 1_555 1_555
C6 C1 1_555 1_555
H28 C6 1_555 1_555
C7 O12 1_555 1_555
C8 C3 1_555 1_555
C9 C5 1_555 1_555
C10 C11 1_555 1_555
C11 H29 1_555 1_555
C12 C11 1_555 1_555
C13 C12 1_555 1_555
H30 C13 1_555 1_555
C14 C13 1_555 1_555
C15 C10 1_555 1_555
H31 C15 1_555 1_555
C16 C10 1_555 1_555
C17 C12 1_555 1_555
C18 O24 1_555 1_555
O26 H32 1_555 1_555
H33 O26 1_555 1_555
O27 H34 1_555 1_555
H35 O27 1_555 1_555
Ni2E O21 1_555 1_555
Ni3E O20 1_555 1_555
O20E Ni3 1_555 1_555
O21E Ni2 1_555 1_555
Ni3 O2 1_555 1_555
Ni3 O13 1_555 1_555
Na1 O6 1_555 1_555
O14 C7 1_555 1_555
O25 C18 1_555 1_555
C1 C7 1_555 1_555
C5 C6 1_555 1_555
C14 C15 1_555 1_555
C14 C18 1_555 1_555

#END
