
#######################################################################
#
#                 Cambridge Crystallographic Data Centre
#                                CCDC 
#
#######################################################################
#
# If this CIF has been generated from an entry in the Cambridge 
# Structural Database, then it will include bibliographic, chemical, 
# crystal, experimental, refinement or atomic coordinate data resulting 
# from the CCDC's data processing and validation procedures.
#
#######################################################################

data_RIGREF
_symmetry_cell_setting           triclinic
_symmetry_space_group_name_H-M   'P -1'
_symmetry_Int_Tables_number      2
_space_group_name_Hall           '-P 1'
loop_
_symmetry_equiv_pos_site_id
_symmetry_equiv_pos_as_xyz
1 x,y,z
2 -x,-y,-z
_cell_length_a                   7.9274(5)
_cell_length_b                   10.8456(7)
_cell_length_c                   13.3381(9)
_cell_angle_alpha                77.705(1)
_cell_angle_beta                 84.094(1)
_cell_angle_gamma                69.984(1)
_cell_volume                     1052.23
loop_
_atom_site_label
_atom_site_type_symbol
_atom_site_fract_x
_atom_site_fract_y
_atom_site_fract_z
Cd1 Cd 0.781715(17) 0.224799(13) 0.236286(10)
C1 C 0.9019(3) 0.6148(2) 0.33832(19)
H1 H 0.9584 0.6033 0.2747
C2 C 0.8012(3) 0.5342(2) 0.38131(17)
C3 C 0.7195(3) 0.5516(2) 0.4763(2)
H2 H 0.6496 0.5000 0.5084
C4 C 0.7429(4) 0.6465(2) 0.5229(2)
H3 H 0.6900 0.6598 0.5870
C5 C 0.8461(4) 0.7207(2) 0.4721(2)
H4 H 0.8617 0.7842 0.5040
C6 C 0.7872(3) 0.4299(2) 0.3280(2)
C7 C 1.1925(2) 0.14076(18) 0.29063(14)
H5 H 1.1776 0.2225 0.2467
C8 C 1.3578(2) 0.07150(18) 0.33359(13)
C9 C 1.3781(3) -0.0484(2) 0.40090(15)
H6 H 1.4867 -0.0961 0.4326
C10 C 1.2348(3) -0.0964(2) 0.42046(16)
H7 H 1.2457 -0.1772 0.4649
C11 C 1.0757(3) -0.0219(2) 0.37277(16)
H8 H 0.9800 -0.0548 0.3853
C12 C 1.5107(2) 0.12578(19) 0.30540(14)
C13 C 0.8300(3) -0.0623(2) 0.14946(18)
H9 H 0.8667 -0.1050 0.2156
C14 C 0.7972(4) -0.1364(2) 0.0844(2)
H10 H 0.8126 -0.2267 0.1069
C15 C 0.7424(4) -0.0746(3) -0.0124(2)
H11 H 0.7183 -0.1222 -0.0562
C16 C 0.7224(3) 0.0611(2) -0.04569(17)
C17 C 0.6681(4) 0.1327(3) -0.14689(19)
H12 H 0.6410 0.0888 -0.1926
C18 C 0.6558(4) 0.2608(3) -0.17691(19)
H13 H 0.6224 0.3042 -0.2435
C19 C 0.6929(3) 0.3319(2) -0.10875(17)
C20 C 0.6834(4) 0.4663(3) -0.13723(19)
H14 H 0.6527 0.5127 -0.2035
C21 C 0.7189(4) 0.5282(3) -0.0683(2)
H15 H 0.7138 0.6171 -0.0868
C22 C 0.7633(4) 0.4577(2) 0.03071(19)
H16 H 0.7872 0.5016 0.0775
C23 C 0.7411(3) 0.2671(2) -0.00733(15)
C24 C 0.7590(3) 0.1274(2) 0.02443(15)
N1 N 0.9242(3) 0.7081(2) 0.38144(18)
N2 N 1.0527(2) 0.09557(16) 0.30935(12)
N3 N 0.8111(2) 0.06612(17) 0.12083(13)
N4 N 0.7732(2) 0.33079(17) 0.06161(13)
O1 O 0.8802(3) 0.41230(19) 0.24723(15)
O2 O 0.6869(3) 0.3643(2) 0.36485(19)
O3 O 1.48444(19) 0.22957(14) 0.23695(12)
O4 O 1.65543(18) 0.06529(15) 0.34869(11)
Cd1_2 Cd 1.781715(17) 0.224799(13) 0.236286(10)
O3_2 O 0.48444(19) 0.22957(14) 0.23695(12)
O4_2 O 0.65543(18) 0.06529(15) 0.34869(11)
loop_
_geom_bond_atom_site_label_1
_geom_bond_atom_site_label_2
_geom_bond_site_symmetry_1
_geom_bond_site_symmetry_2
Cd1 N2 1_555 1_555
C1 H1 1_555 1_555
C2 C1 1_555 1_555
C3 C2 1_555 1_555
H2 C3 1_555 1_555
C4 C3 1_555 1_555
H3 C4 1_555 1_555
C5 C4 1_555 1_555
H4 C5 1_555 1_555
C6 C2 1_555 1_555
C7 H5 1_555 1_555
C8 C7 1_555 1_555
C9 C8 1_555 1_555
H6 C9 1_555 1_555
C10 C9 1_555 1_555
H7 C10 1_555 1_555
C11 C10 1_555 1_555
H8 C11 1_555 1_555
C12 C8 1_555 1_555
C13 H9 1_555 1_555
C14 C13 1_555 1_555
H10 C14 1_555 1_555
C15 C14 1_555 1_555
H11 C15 1_555 1_555
C16 C15 1_555 1_555
C17 C16 1_555 1_555
H12 C17 1_555 1_555
C18 C17 1_555 1_555
H13 C18 1_555 1_555
C19 C18 1_555 1_555
C20 C19 1_555 1_555
H14 C20 1_555 1_555
C21 C20 1_555 1_555
H15 C21 1_555 1_555
C22 C21 1_555 1_555
H16 C22 1_555 1_555
C23 C19 1_555 1_555
C24 C16 1_555 1_555
N1 C1 1_555 1_555
N2 C7 1_555 1_555
N3 Cd1 1_555 1_555
N4 Cd1 1_555 1_555
O1 Cd1 1_555 1_555
O2 Cd1 1_555 1_555
O3 C12 1_555 1_555
O4 C12 1_555 1_555
Cd1_2 O3 1_555 1_555
O3_2 Cd1 1_555 1_555
O4_2 Cd1 1_555 1_555
C5 N1 1_555 1_555
C6 O1 1_555 1_555
C6 O2 1_555 1_555
C11 N2 1_555 1_555
C13 N3 1_555 1_555
C22 N4 1_555 1_555
C23 C24 1_555 1_555
C23 N4 1_555 1_555
C24 N3 1_555 1_555
O4 Cd1_2 1_555 1_555

#END
