
#######################################################################
#
#                 Cambridge Crystallographic Data Centre
#                                CCDC 
#
#######################################################################
#
# If this CIF has been generated from an entry in the Cambridge 
# Structural Database, then it will include bibliographic, chemical, 
# crystal, experimental, refinement or atomic coordinate data resulting 
# from the CCDC's data processing and validation procedures.
#
#######################################################################

data_RIHJID
_symmetry_cell_setting           monoclinic
_symmetry_space_group_name_H-M   'C 2/c'
_symmetry_Int_Tables_number      15
_space_group_name_Hall           '-C 2yn'
loop_
_symmetry_equiv_pos_site_id
_symmetry_equiv_pos_as_xyz
1 x,y,z
2 -x,y,1/2-z
3 1/2+x,1/2+y,z
4 1/2-x,1/2+y,1/2-z
5 -x,-y,-z
6 x,-y,1/2+z
7 1/2-x,1/2-y,-z
8 1/2+x,1/2-y,1/2+z
_cell_length_a                   28.271(6)
_cell_length_b                   22.155(4)
_cell_length_c                   12.549(3)
_cell_angle_alpha                90
_cell_angle_beta                 104.764(2)
_cell_angle_gamma                90
_cell_volume                     7600.48
loop_
_atom_site_label
_atom_site_type_symbol
_atom_site_fract_x
_atom_site_fract_y
_atom_site_fract_z
Zn1 Zn 0.18922(2) 0.23946(2) -0.34138(5)
Zn2 Zn 0.08373(2) 0.26225(3) -0.40350(5)
S1 S 0.17876(5) 0.51025(6) 0.14910(10)
S2 S 0.10179(6) -0.01112(6) 0.10945(11)
O1 O 0.19006(14) 0.30266(17) 0.5435(3)
O2 O 0.10918(13) 0.31998(17) 0.4958(3)
N1 N 0.51087(16) 0.2309(2) 0.0217(4)
O3 O 0.16444(13) 0.18253(18) -0.2406(3)
O4 O 0.09573(15) 0.19299(18) 0.4978(3)
O5 O 0.17579(14) 0.17597(18) 0.5385(3)
N2 N 0.26177(16) 0.23609(19) -0.2642(4)
O6 O 0.08372(14) 0.19855(18) -0.2855(3)
C1 C 0.1071(2) 0.0405(2) 0.0042(4)
O7 O 0.22886(15) 0.53037(19) 0.1706(3)
O8 O 0.14018(15) 0.55382(17) 0.1329(3)
C2 C 0.17197(19) 0.4606(2) 0.2558(4)
C3 C 0.1100(2) 0.0371(2) 0.2252(4)
C4 C 0.20684(18) 0.3884(2) 0.3948(4)
H1 H 0.2340 0.3676 0.4379
O9 O 0.14275(17) -0.05116(17) 0.1302(3)
C5 C 0.1662(2) 0.4623(2) 0.0321(4)
O10 O 0.05274(15) -0.03432(19) 0.0826(3)
C6 C 0.12381(19) 0.1183(2) 0.3965(4)
C7 C 0.15950(18) 0.3771(2) 0.4094(4)
C8 C 0.1531(2) 0.3299(2) 0.4888(4)
C9 C 0.21334(18) 0.4296(2) 0.3183(4)
H2 H 0.2446 0.4369 0.3077
C10 C 0.11661(19) 0.1247(2) -0.1510(4)
C11 C 0.12055(19) 0.4089(2) 0.3470(4)
H3 H 0.0890 0.4023 0.3562
C12 C 0.1321(2) 0.1660(2) 0.4855(4)
C13 C 0.0696(2) 0.0660(3) 0.2476(5)
H4 H 0.0377 0.0584 0.2046
C14 C 0.1219(2) 0.1720(2) -0.2327(4)
C15 C 0.35969(18) 0.2334(3) -0.1506(5)
C16 C 0.14800(19) 0.3827(2) -0.1425(4)
C17 C 0.1099(2) 0.4068(3) -0.1045(5)
H5 H 0.0774 0.3962 -0.1383
C18 C 0.0703(2) 0.1058(3) -0.1453(5)
H6 H 0.0424 0.1219 -0.1945
C19 C 0.2052(2) 0.4399(2) -0.0064(4)
H7 H 0.2375 0.4517 0.0272
C20 C 0.1274(2) 0.4506(2) 0.2708(4)
H8 H 0.1005 0.4724 0.2289
C21 C 0.1202(2) 0.4463(3) -0.0170(5)
H9 H 0.0944 0.4623 0.0088
C22 C 0.1633(2) 0.0885(3) 0.3747(5)
H10 H 0.1950 0.0958 0.4190
C23 C 0.1565(2) 0.0478(3) 0.2881(5)
H11 H 0.1834 0.0280 0.2727
C24 C 0.2954(2) 0.2571(3) -0.3084(5)
H12 H 0.2856 0.2744 -0.3790
C25 C 0.1955(2) 0.4005(3) -0.0937(4)
H13 H 0.2213 0.3855 -0.1206
C26 C 0.1532(2) 0.0581(3) -0.0025(5)
H14 H 0.1814 0.0416 0.0451
C27 C 0.0779(2) 0.1059(3) 0.3346(5)
H15 H 0.0510 0.1251 0.3517
C28 C 0.3247(2) 0.2111(4) -0.1047(6)
H16 H 0.3334 0.1949 -0.0331
C29 C 0.1569(2) 0.1001(3) -0.0800(5)
H17 H 0.1881 0.1124 -0.0846
C30 C 0.2756(2) 0.2123(4) -0.1642(6)
H18 H 0.2518 0.1957 -0.1325
C31 C 0.41232(19) 0.2322(3) -0.0914(4)
C32 C 0.0651(2) 0.0633(3) -0.0672(5)
H19 H 0.0340 0.0503 -0.0631
C33 C 0.4762(3) 0.2417(4) 0.0726(6)
H20 H 0.4855 0.2495 0.1488
C34 C 0.3444(2) 0.2551(3) -0.2568(5)
H21 H 0.3675 0.2685 -0.2937
C35 C 0.4272(3) 0.2422(4) 0.0203(6)
H22 H 0.4039 0.2493 0.0607
C36 C 0.4959(2) 0.2171(5) -0.0846(7)
H23 H 0.5195 0.2062 -0.1220
C37 C 0.4478(3) 0.2178(5) -0.1424(6)
H24 H 0.4392 0.2083 -0.2179
O11 O 0.09375(15) 0.32648(18) -0.2849(3)
O12 O 0.17448(17) 0.30837(19) -0.2457(3)
C38 C 0.1375(2) 0.3359(2) -0.2318(4)
Zn1_2 Zn 0.18922(2) 0.23946(2) 0.65862(5)
Zn2_2 Zn 0.08373(2) 0.26225(3) 0.59650(5)
Zn2G Zn 0.58373(2) 0.23775(3) 0.09650(5)
O1_2 O 0.19006(14) 0.30266(17) -0.4565(3)
O2_2 O 0.10918(13) 0.31998(17) -0.5042(3)
N1G N 0.01087(16) 0.2691(2) -0.4783(4)
O4_2 O 0.09573(15) 0.19299(18) -0.5022(3)
O5_2 O 0.17579(14) 0.17597(18) -0.4615(3)
loop_
_geom_bond_atom_site_label_1
_geom_bond_atom_site_label_2
_geom_bond_site_symmetry_1
_geom_bond_site_symmetry_2
Zn1 O3 1_555 1_555
Zn2 O6 1_555 1_555
S1 O7 1_555 1_555
S2 C1 1_555 1_555
O1 C8 1_555 1_555
O2 C8 1_555 1_555
N1 C33 1_555 1_555
O3 C14 1_555 1_555
O4 C12 1_555 1_555
O5 C12 1_555 1_555
N2 Zn1 1_555 1_555
O6 C14 1_555 1_555
C1 C26 1_555 1_555
O8 S1 1_555 1_555
C2 S1 1_555 1_555
C3 S2 1_555 1_555
C4 H1 1_555 1_555
O9 S2 1_555 1_555
C5 S1 1_555 1_555
O10 S2 1_555 1_555
C6 C12 1_555 1_555
C7 C4 1_555 1_555
C8 C7 1_555 1_555
C9 C2 1_555 1_555
H2 C9 1_555 1_555
C10 C14 1_555 1_555
C11 C7 1_555 1_555
H3 C11 1_555 1_555
C13 C3 1_555 1_555
H4 C13 1_555 1_555
C15 C28 1_555 1_555
C16 C17 1_555 1_555
C17 H5 1_555 1_555
C18 C10 1_555 1_555
H6 C18 1_555 1_555
C19 C5 1_555 1_555
H7 C19 1_555 1_555
C20 C2 1_555 1_555
H8 C20 1_555 1_555
C21 C5 1_555 1_555
H9 C21 1_555 1_555
C22 C6 1_555 1_555
H10 C22 1_555 1_555
C23 C3 1_555 1_555
H11 C23 1_555 1_555
C24 N2 1_555 1_555
H12 C24 1_555 1_555
C25 C16 1_555 1_555
H13 C25 1_555 1_555
C26 H14 1_555 1_555
C27 C6 1_555 1_555
H15 C27 1_555 1_555
C28 H16 1_555 1_555
C29 C10 1_555 1_555
H17 C29 1_555 1_555
C30 N2 1_555 1_555
H18 C30 1_555 1_555
C31 C15 1_555 1_555
C32 C1 1_555 1_555
H19 C32 1_555 1_555
C33 H20 1_555 1_555
C34 C15 1_555 1_555
H21 C34 1_555 1_555
C35 C31 1_555 1_555
H22 C35 1_555 1_555
C36 N1 1_555 1_555
H23 C36 1_555 1_555
C37 C31 1_555 1_555
H24 C37 1_555 1_555
O11 Zn2 1_555 1_555
O12 Zn1 1_555 1_555
C38 C16 1_555 1_555
Zn1_2 O1 1_555 1_555
Zn2_2 O2 1_555 1_555
Zn2G N1 1_555 1_555
O1_2 Zn1 1_555 1_555
O2_2 Zn2 1_555 1_555
N1G Zn2 1_555 1_555
O4_2 Zn2 1_555 1_555
O5_2 Zn1 1_555 1_555
O4 Zn2_2 1_555 1_555
O5 Zn1_2 1_555 1_555
C4 C9 1_555 1_555
C11 C20 1_555 1_555
C13 C27 1_555 1_555
C17 C21 1_555 1_555
C18 C32 1_555 1_555
C19 C25 1_555 1_555
C22 C23 1_555 1_555
C24 C34 1_555 1_555
C26 C29 1_555 1_555
C28 C30 1_555 1_555
C33 C35 1_555 1_555
C36 C37 1_555 1_555
O11 C38 1_555 1_555
O12 C38 1_555 1_555

#END
