
#######################################################################
#
#                 Cambridge Crystallographic Data Centre
#                                CCDC 
#
#######################################################################
#
# If this CIF has been generated from an entry in the Cambridge 
# Structural Database, then it will include bibliographic, chemical, 
# crystal, experimental, refinement or atomic coordinate data resulting 
# from the CCDC's data processing and validation procedures.
#
#######################################################################

data_RIHJIC
_symmetry_cell_setting           triclinic
_symmetry_space_group_name_H-M   'P -1'
_symmetry_Int_Tables_number      2
_space_group_name_Hall           '-P 1'
loop_
_symmetry_equiv_pos_site_id
_symmetry_equiv_pos_as_xyz
1 x,y,z
2 -x,-y,-z
_cell_length_a                   11.50960(10)
_cell_length_b                   12.0694(3)
_cell_length_c                   12.4462(2)
_cell_angle_alpha                94.8310(10)
_cell_angle_beta                 116.0460(10)
_cell_angle_gamma                101.3690(10)
_cell_volume                     1493.98
loop_
_atom_site_label
_atom_site_type_symbol
_atom_site_fract_x
_atom_site_fract_y
_atom_site_fract_z
C1 C 0.6769(4) 0.1374(4) -0.0346(4)
C2 C 0.8072(4) 0.1321(4) -0.0328(4)
H1 H 0.7951 0.0563 -0.0773
C3 C 0.8583(5) 0.2249(5) -0.0898(5)
H2 H 0.7925 0.2173 -0.1741
H3 H 0.8720 0.3007 -0.0462
C4 C 0.9111(4) 0.1446(4) 0.1008(4)
H4 H 0.9174 0.2163 0.1472
H5 H 0.8808 0.0820 0.1342
C5 C 1.0503(4) 0.1437(4) 0.1160(4)
H6 H 1.0487 0.0663 0.0858
H7 H 1.1143 0.1641 0.2020
C6 C 0.9895(5) 0.2113(5) -0.0835(5)
H8 H 1.0197 0.2675 -0.1234
H9 H 0.9752 0.1351 -0.1268
C7 C 1.0971(4) 0.2277(4) 0.0477(4)
H10 H 1.1160 0.3068 0.0890
C8 C 1.2254(4) 0.2073(4) 0.0538(4)
C9 C 0.7144(4) 0.4206(4) 0.2551(4)
C10 C 0.8424(4) 0.4221(4) 0.2477(4)
H11 H 0.8203 0.3715 0.1719
C11 C 0.9364(5) 0.3763(4) 0.3563(5)
H12 H 0.9463 0.4182 0.4312
H13 H 0.8952 0.2958 0.3486
C12 C 0.9112(5) 0.5429(5) 0.2476(5)
H14 H 0.8531 0.5688 0.1763
H15 H 0.9271 0.5949 0.3193
C13 C 1.0432(5) 0.5469(5) 0.2470(6)
H16 H 1.0841 0.6251 0.2464
H17 H 1.0264 0.4979 0.1731
C14 C 1.0750(4) 0.3874(4) 0.3656(4)
H18 H 1.0676 0.3311 0.3010
H19 H 1.1329 0.3697 0.4428
C15 C 1.1397(4) 0.5078(4) 0.3564(4)
H20 H 1.1624 0.5620 0.4302
C16 C 1.2662(4) 0.5039(4) 0.3516(4)
C17 C 1.4820(5) 0.2167(4) 0.4179(4)
C18 C 1.4826(6) 0.1133(4) 0.4791(5)
H21 H 1.4495 0.1279 0.5378
C19 C 1.3872(7) 0.0083(5) 0.3889(6)
H22 H 1.4150 -0.0076 0.3274
H23 H 1.2988 0.0214 0.3486
C20 C 1.6194(7) 0.0964(5) 0.5495(6)
H24 H 1.6771 0.1649 0.6110
H25 H 1.6574 0.0846 0.4950
C21 C 0.2453(5) 0.1279(4) -0.2859(4)
C22 C 0.1333(5) 0.0402(4) -0.3934(4)
H26 H 0.1602 -0.0320 -0.3925
C23 C 0.0076(6) 0.0172(7) -0.3810(5)
H27 H -0.0188 0.0883 -0.3772
H28 H 0.0250 -0.0093 -0.3052
C24 C 0.1070(6) 0.0729(6) -0.5133(5)
H29 H 0.1874 0.0816 -0.5227
H30 H 0.0850 0.1465 -0.5152
O1 O 0.6060(3) 0.0472(3) -0.0240(3)
O2 O 0.6424(3) 0.2295(3) -0.0387(3)
O3 O 1.2187(3) 0.1355(3) -0.0295(3)
O4 O 1.3390(3) 0.2633(3) 0.1402(3)
O5 O 0.3297(3) 0.0917(3) -0.2001(3)
O6 O 0.2465(4) 0.2318(3) -0.2866(3)
O7 O 0.4034(3) 0.3448(3) -0.0684(3)
O8 O 0.6270(4) 0.1250(3) 0.2246(3)
O9 O 0.7197(3) 0.4878(3) 0.3400(3)
O10 O 0.6033(3) 0.3531(3) 0.1771(3)
O11 O 1.2646(3) 0.4797(3) 0.2502(3)
O12 O 1.3743(3) 0.5176(3) 0.4496(3)
O13 O 1.5666(4) 0.2476(3) 0.3806(3)
O14 O 1.3950(3) 0.2718(3) 0.4054(3)
O15 O 1.4029(4) 0.5159(3) 0.1084(3)
O16 O 1.5772(4) 0.6502(3) 0.3702(3)
La1 La 0.46251(2) 0.168305(19) 0.02704(2)
La2 La 1.48860(2) 0.430760(19) 0.31914(2)
H31 H 0.343(4) 0.320(5) -0.142(2)
H32 H 0.623(8) 0.150(6) 0.289(4)
H33 H 0.470(14) 0.391(14) -0.07(2)
H34 H 0.638(6) 0.058(2) 0.229(5)
H35 H 1.348(6) 0.556(5) 0.103(7)
H36 H 1.638(4) 0.677(4) 0.351(4)
H37 H 1.465(10) 0.485(12) 0.114(15)
H38 H 1.605(7) 0.685(5) 0.442(2)
C1A C 0.3231(4) -0.1374(4) 0.0346(4)
C2A C 0.1928(4) -0.1321(4) 0.0328(4)
H1A H 0.2049 -0.0563 0.0773
C3A C 0.1417(5) -0.2249(5) 0.0898(5)
H2A H 0.2075 -0.2173 0.1741
H3A H 0.1280 -0.3007 0.0462
C4A C 0.0889(4) -0.1446(4) -0.1008(4)
H4A H 0.0826 -0.2163 -0.1472
H5A H 0.1192 -0.0820 -0.1342
C5A C -0.0503(4) -0.1437(4) -0.1160(4)
H6A H -0.0487 -0.0663 -0.0858
H7A H -0.1143 -0.1641 -0.2020
C6A C 0.0105(5) -0.2113(5) 0.0835(5)
H8A H -0.0197 -0.2675 0.1234
H9A H 0.0248 -0.1351 0.1268
C7A C -0.0971(4) -0.2277(4) -0.0477(4)
H10A H -0.1160 -0.3068 -0.0890
C8A C -0.2254(4) -0.2073(4) -0.0538(4)
C9_2 C 1.7144(4) 0.4206(4) 0.2551(4)
C10_2 C 1.8424(4) 0.4221(4) 0.2477(4)
H11_2 H 1.8203 0.3715 0.1719
C11_2 C 1.9364(5) 0.3763(4) 0.3563(5)
H12_2 H 1.9463 0.4182 0.4312
H13_2 H 1.8952 0.2958 0.3486
C12_2 C 1.9112(5) 0.5429(5) 0.2476(5)
H14_2 H 1.8531 0.5688 0.1763
H15_2 H 1.9271 0.5949 0.3193
C13_2 C 2.0432(5) 0.5469(5) 0.2470(6)
H16_2 H 2.0841 0.6251 0.2464
H17_2 H 2.0264 0.4979 0.1731
C14_2 C 2.0750(4) 0.3874(4) 0.3656(4)
H18_2 H 2.0676 0.3311 0.3010
H19_2 H 2.1329 0.3697 0.4428
C15_2 C 2.1397(4) 0.5078(4) 0.3564(4)
H20_2 H 2.1624 0.5620 0.4302
C16_2 C 2.2662(4) 0.5039(4) 0.3516(4)
C17A C 1.5180(5) -0.2167(4) 0.5821(4)
C18A C 1.5174(6) -0.1133(4) 0.5209(5)
H21A H 1.5505 -0.1279 0.4622
C19A C 1.6128(7) -0.0083(5) 0.6111(6)
H22A H 1.5850 0.0076 0.6726
H23A H 1.7012 -0.0214 0.6514
C20A C 1.3806(7) -0.0964(5) 0.4505(6)
H24A H 1.3229 -0.1649 0.3890
H25A H 1.3426 -0.0846 0.5050
C21A C -0.2453(5) -0.1279(4) -0.7141(4)
C22A C -0.1333(5) -0.0402(4) -0.6066(4)
H26A H -0.1602 0.0320 -0.6075
C23A C -0.0076(6) -0.0172(7) -0.6190(5)
H27A H 0.0188 -0.0883 -0.6228
H28A H -0.0250 0.0093 -0.6948
C24A C -0.1070(6) -0.0729(6) -0.4867(5)
H29A H -0.1874 -0.0816 -0.4773
H30A H -0.0850 -0.1465 -0.4848
O1A O 0.3940(3) -0.0472(3) 0.0240(3)
O2A O 0.3576(3) -0.2295(3) 0.0387(3)
O3A O -0.2187(3) -0.1355(3) 0.0295(3)
O3_2 O 0.2187(3) 0.1355(3) -0.0295(3)
O3A_2 O 0.7813(3) -0.1355(3) 0.0295(3)
O4A O -0.3390(3) -0.2633(3) -0.1402(3)
O4_2 O 0.3390(3) 0.2633(3) 0.1402(3)
O4A_2 O 0.6610(3) -0.2633(3) -0.1402(3)
O5A O -0.3297(3) -0.0917(3) -0.7999(3)
O5A_2 O 0.6703(3) -0.0917(3) 0.2001(3)
O6A O -0.2465(4) -0.2318(3) -0.7134(3)
O7A O 0.5966(3) -0.3448(3) 0.0684(3)
O8A O 0.3730(4) -0.1250(3) -0.2246(3)
O9_2 O 1.7197(3) 0.4878(3) 0.3400(3)
O9A O -0.7197(3) -0.4878(3) -0.3400(3)
O10_2 O 1.6033(3) 0.3531(3) 0.1771(3)
O10A O 0.3967(3) -0.3531(3) -0.1771(3)
O11_2 O 2.2646(3) 0.4797(3) 0.2502(3)
O11A O -0.2646(3) -0.4797(3) -0.2502(3)
O12_2 O 2.3743(3) 0.5176(3) 0.4496(3)
O12A O 1.6257(3) 0.4824(3) 0.5504(3)
O12_3 O -0.6257(3) -0.4824(3) -0.5504(3)
O12A_2 O -0.3743(3) -0.5176(3) -0.4496(3)
O13A O 1.4334(4) -0.2476(3) 0.6194(3)
O13A_2 O -0.5666(4) -0.2476(3) -0.3806(3)
O14A O 1.6050(3) -0.2718(3) 0.5946(3)
O14A_2 O -0.3950(3) -0.2718(3) -0.4054(3)
O15A O -0.4029(4) -0.5159(3) -0.1084(3)
O16A O -0.5772(4) -0.6502(3) -0.3702(3)
La1A La 0.53749(2) -0.168305(19) -0.02704(2)
La1_2 La 1.46251(2) 0.168305(19) 0.02704(2)
La1A_2 La -0.46251(2) -0.168305(19) -1.02704(2)
La1A_3 La -0.46251(2) -0.168305(19) -0.02704(2)
La2A La -0.48860(2) -0.430760(19) -0.31914(2)
La2_2 La 0.48860(2) 0.430760(19) 0.31914(2)
La2A_2 La 1.51140(2) 0.569240(19) 0.68086(2)
La2A_3 La 1.51140(2) -0.430760(19) 0.68086(2)
La2_3 La 2.48860(2) 0.430760(19) 0.31914(2)
La2A_4 La 2.51140(2) 0.569240(19) 0.68086(2)
H31A H 0.657(4) -0.320(5) 0.142(2)
H32A H 0.377(8) -0.150(6) -0.289(4)
H33A H 0.530(14) -0.391(14) 0.07(2)
H34A H 0.362(6) -0.058(2) -0.229(5)
H35A H -0.348(6) -0.556(5) -0.103(7)
H36A H -0.638(4) -0.677(4) -0.351(4)
H37A H -0.465(10) -0.485(12) -0.114(15)
H38A H -0.605(7) -0.685(5) -0.442(2)
loop_
_geom_bond_atom_site_label_1
_geom_bond_atom_site_label_2
_geom_bond_site_symmetry_1
_geom_bond_site_symmetry_2
C1 C2 1_555 1_555
C2 H1 1_555 1_555
C3 C2 1_555 1_555
H2 C3 1_555 1_555
H3 C3 1_555 1_555
C4 C2 1_555 1_555
H4 C4 1_555 1_555
H5 C4 1_555 1_555
C5 C4 1_555 1_555
H6 C5 1_555 1_555
H7 C5 1_555 1_555
C6 C3 1_555 1_555
H8 C6 1_555 1_555
H9 C6 1_555 1_555
C7 C5 1_555 1_555
H10 C7 1_555 1_555
C8 C7 1_555 1_555
C9 C10 1_555 1_555
C10 H11 1_555 1_555
C11 C10 1_555 1_555
H12 C11 1_555 1_555
H13 C11 1_555 1_555
C12 C10 1_555 1_555
H14 C12 1_555 1_555
H15 C12 1_555 1_555
C13 C12 1_555 1_555
H16 C13 1_555 1_555
H17 C13 1_555 1_555
C14 C11 1_555 1_555
H18 C14 1_555 1_555
H19 C14 1_555 1_555
C15 C13 1_555 1_555
H20 C15 1_555 1_555
C16 C15 1_555 1_555
C17 C18 1_555 1_555
C18 H21 1_555 1_555
C19 C18 1_555 1_555
H22 C19 1_555 1_555
H23 C19 1_555 1_555
C20 C18 1_555 1_555
H24 C20 1_555 1_555
H25 C20 1_555 1_555
C21 C22 1_555 1_555
C22 H26 1_555 1_555
C23 C22 1_555 1_555
H27 C23 1_555 1_555
H28 C23 1_555 1_555
C24 C22 1_555 1_555
H29 C24 1_555 1_555
H30 C24 1_555 1_555
O1 C1 1_555 1_555
O2 C1 1_555 1_555
O3 C8 1_555 1_555
O4 C8 1_555 1_555
O5 C21 1_555 1_555
O6 C21 1_555 1_555
O7 La1 1_555 1_555
O8 La1 1_555 1_555
O9 C9 1_555 1_555
O10 C9 1_555 1_555
O11 C16 1_555 1_555
O12 C16 1_555 1_555
O13 C17 1_555 1_555
O14 C17 1_555 1_555
O15 La2 1_555 1_555
O16 La2 1_555 1_555
La1 O1 1_555 1_555
La2 O4 1_555 1_555
H31 O7 1_555 1_555
H32 O8 1_555 1_555
H33 O7 1_555 1_555
H34 O8 1_555 1_555
H35 O15 1_555 1_555
H36 O16 1_555 1_555
H37 O15 1_555 1_555
H38 O16 1_555 1_555
C1A C2A 1_555 1_555
C2A H1A 1_555 1_555
C3A C2A 1_555 1_555
H2A C3A 1_555 1_555
H3A C3A 1_555 1_555
C4A C2A 1_555 1_555
H4A C4A 1_555 1_555
H5A C4A 1_555 1_555
C5A C4A 1_555 1_555
H6A C5A 1_555 1_555
H7A C5A 1_555 1_555
C6A C3A 1_555 1_555
H8A C6A 1_555 1_555
H9A C6A 1_555 1_555
C7A C5A 1_555 1_555
H10A C7A 1_555 1_555
C8A C7A 1_555 1_555
C9_2 C10_2 1_555 1_555
C10_2 H11_2 1_555 1_555
C11_2 C10_2 1_555 1_555
H12_2 C11_2 1_555 1_555
H13_2 C11_2 1_555 1_555
C12_2 C10_2 1_555 1_555
H14_2 C12_2 1_555 1_555
H15_2 C12_2 1_555 1_555
C13_2 C12_2 1_555 1_555
H16_2 C13_2 1_555 1_555
H17_2 C13_2 1_555 1_555
C14_2 C11_2 1_555 1_555
H18_2 C14_2 1_555 1_555
H19_2 C14_2 1_555 1_555
C15_2 C13_2 1_555 1_555
H20_2 C15_2 1_555 1_555
C16_2 C15_2 1_555 1_555
C17A C18A 1_555 1_555
C18A H21A 1_555 1_555
C19A C20 1_555 1_555
H22A C19A 1_555 1_555
H23A C19A 1_555 1_555
C20A C19 1_555 1_555
H24A C20A 1_555 1_555
H25A C20A 1_555 1_555
C21A C22A 1_555 1_555
C22A H26A 1_555 1_555
C23A C24 1_555 1_555
H27A C23A 1_555 1_555
H28A C23A 1_555 1_555
C24A C23 1_555 1_555
H29A C24A 1_555 1_555
H30A C24A 1_555 1_555
O1A La1 1_555 1_555
O2A C1A 1_555 1_555
O3A C8A 1_555 1_555
O3_2 La1 1_555 1_555
O3A_2 La1A 1_555 1_555
O4A C8A 1_555 1_555
O4_2 La1 1_555 1_555
O4A_2 La1A 1_555 1_555
O5A C21A 1_555 1_555
O5A_2 La1A 1_555 1_555
O6A C21A 1_555 1_555
O7A La1A 1_555 1_555
O8A La1A 1_555 1_555
O9_2 La2 1_555 1_555
O9A La2A 1_555 1_555
O10_2 C9_2 1_555 1_555
O10A La1A 1_555 1_555
O11_2 C16_2 1_555 1_555
O11A La2A 1_555 1_555
O12_2 C16_2 1_555 1_555
O12A La2 1_555 1_555
O12_3 La2A 1_555 1_555
O12A_2 La2A 1_555 1_555
O13A C17A 1_555 1_555
O13A_2 La2A 1_555 1_555
O14A C17A 1_555 1_555
O14A_2 La2A 1_555 1_555
O15A La2A 1_555 1_555
O16A La2A 1_555 1_555
La1A O1 1_555 1_555
La1_2 O3 1_555 1_555
La1A_2 O5A 1_555 1_555
La1A_3 O3A 1_555 1_555
La2A O4A 1_555 1_555
La2_2 O9 1_555 1_555
La2A_2 O12 1_555 1_555
La2A_3 O13A 1_555 1_555
La2_3 O11_2 1_555 1_555
La2A_4 O12_2 1_555 1_555
H31A O7A 1_555 1_555
H32A O8A 1_555 1_555
H33A O7A 1_555 1_555
H34A O8A 1_555 1_555
H35A O15A 1_555 1_555
H36A O16A 1_555 1_555
H37A O15A 1_555 1_555
H38A O16A 1_555 1_555
C6 C7 1_555 1_555
C14 C15 1_555 1_555
O2 La1 1_555 1_555
O4 La1_2 1_555 1_555
O5 La1 1_555 1_555
O10 La1 1_555 1_555
O11 La2 1_555 1_555
O12 La2 1_555 1_555
O13 La2 1_555 1_555
O14 La2 1_555 1_555
C1A O1A 1_555 1_555
C6A C7A 1_555 1_555
C9_2 O9_2 1_555 1_555
C14_2 C15_2 1_555 1_555
C18A C19A 1_555 1_555
C18A C20A 1_555 1_555
C22A C23A 1_555 1_555
C22A C24A 1_555 1_555
O1A La1A 1_555 1_555
O2A La1A 1_555 1_555
O4A La1A_3 1_555 1_555
O4_2 La2_2 1_555 1_555
O10_2 La1_2 1_555 1_555
O12_2 La2_3 1_555 1_555
O12A La2A_2 1_555 1_555
O14A La2A_3 1_555 1_555

#END
