
#######################################################################
#
#                 Cambridge Crystallographic Data Centre
#                                CCDC 
#
#######################################################################
#
# If this CIF has been generated from an entry in the Cambridge 
# Structural Database, then it will include bibliographic, chemical, 
# crystal, experimental, refinement or atomic coordinate data resulting 
# from the CCDC's data processing and validation procedures.
#
#######################################################################

data_RIHKAW
_symmetry_cell_setting           triclinic
_symmetry_space_group_name_H-M   'P -1'
_symmetry_Int_Tables_number      2
_space_group_name_Hall           '-P 1'
loop_
_symmetry_equiv_pos_site_id
_symmetry_equiv_pos_as_xyz
1 x,y,z
2 -x,-y,-z
_cell_length_a                   8.4907(16)
_cell_length_b                   12.996(3)
_cell_length_c                   13.151(3)
_cell_angle_alpha                84.192(9)
_cell_angle_beta                 73.567(8)
_cell_angle_gamma                72.272(8)
_cell_volume                     1325.6
loop_
_atom_site_label
_atom_site_type_symbol
_atom_site_fract_x
_atom_site_fract_y
_atom_site_fract_z
Zn1 Zn 0.67243(6) -0.52336(4) 0.42242(3)
S1 S 0.19947(17) -0.91031(9) 0.16408(10)
O1 O 0.2473(5) -1.3506(3) 0.4809(3)
N1 N 0.8893(4) -0.5160(3) 0.3107(3)
O2 O 0.3266(5) -0.5831(3) 0.4733(3)
C1 C 0.4355(6) -0.6311(3) 0.3947(3)
O3 O 0.5838(4) -0.6232(3) 0.3575(3)
O4 O 0.5046(4) -1.3973(3) 0.3657(3)
O5 O 0.3053(6) -0.9225(3) 0.0570(3)
C2 C 1.3490(6) -0.5045(4) 0.0774(3)
O6 O 0.0163(5) -0.8662(3) 0.1849(3)
C3 C 1.0899(6) -0.5706(4) 0.1445(3)
H1 H 1.1228 -0.6111 0.0827
C4 C 0.9435(6) -0.5719(4) 0.2215(3)
H2 H 0.8777 -0.6144 0.2110
C5 C 1.1319(6) -0.4493(4) 0.2512(4)
H3 H 1.1946 -0.4059 0.2640
C6 C 0.1623(7) -0.7815(4) 0.3249(4)
H4 H 0.0520 -0.7903 0.3510
C7 C 0.3591(6) -1.3349(3) 0.3987(4)
C8 C 0.1240(6) -1.0556(4) 0.3189(4)
H5 H 0.0199 -1.0016 0.3433
C9 C 0.2730(6) -0.8320(4) 0.2330(4)
C10 C 0.3973(6) -1.1152(4) 0.1908(4)
H6 H 0.4767 -1.1017 0.1288
C11 C 0.1573(6) -1.1535(4) 0.3735(4)
H7 H 0.0756 -1.1667 0.4344
C12 C 0.2432(6) -1.0377(4) 0.2297(4)
C13 C 0.4364(7) -0.8211(4) 0.1927(4)
H8 H 0.5096 -0.8561 0.1302
C14 C 1.4826(6) -0.4802(4) 0.1049(3)
H9 H 1.4714 -0.4672 0.1760
C15 C 0.3126(6) -1.2317(4) 0.3372(4)
C16 C 1.6282(6) -0.4755(4) 0.0288(4)
H10 H 1.7153 -0.4583 0.0485
C17 C 1.1900(5) -0.5081(4) 0.1587(3)
C18 C 0.9824(6) -0.4548(4) 0.3242(4)
H11 H 0.9443 -0.4139 0.3861
C19 C 0.2172(6) -0.7176(4) 0.3777(4)
H12 H 0.1435 -0.6827 0.4402
C20 C 0.4899(7) -0.7574(4) 0.2467(4)
H13 H 0.6010 -0.7497 0.2210
C21 C 0.4324(6) -1.2119(4) 0.2442(4)
H14 H 0.5368 -1.2653 0.2188
C22 C 0.3799(6) -0.7047(4) 0.3391(4)
N1A N 2.1107(4) -0.4840(3) -0.3107(3)
C2A C 1.6510(6) -0.4955(4) -0.0774(3)
C3A C 1.9101(6) -0.4294(4) -0.1445(3)
H1A H 1.8772 -0.3889 -0.0827
C4A C 2.0565(6) -0.4281(4) -0.2215(3)
H2A H 2.1223 -0.3856 -0.2110
C5A C 1.8681(6) -0.5507(4) -0.2512(4)
H3A H 1.8054 -0.5941 -0.2640
C14A C 1.5174(6) -0.5198(4) -0.1049(3)
H9A H 1.5286 -0.5328 -0.1760
C16A C 1.3718(6) -0.5245(4) -0.0288(4)
H10A H 1.2847 -0.5417 -0.0485
C17A C 1.8100(5) -0.4919(4) -0.1587(3)
C18A C 2.0176(6) -0.5452(4) -0.3242(4)
H11A H 2.0557 -0.5861 -0.3861
Zn1A Zn 0.32757(6) -1.47664(4) 0.57758(3)
S1A S 0.80053(17) -1.08969(9) 0.83592(10)
O1A O 0.7527(5) -0.6494(3) 0.5191(3)
O2A O 0.6734(5) -1.4169(3) 0.5267(3)
C1A C 0.5645(6) -1.3689(3) 0.6053(3)
O3A O 0.4162(4) -1.3768(3) 0.6425(3)
O4A O 0.4954(4) -0.6027(3) 0.6343(3)
O5A O 0.6947(6) -1.0775(3) 0.9430(3)
O6A O 0.9837(5) -1.1338(3) 0.8151(3)
C6A C 0.8377(7) -1.2185(4) 0.6751(4)
H4A H 0.9480 -1.2097 0.6490
C7A C 0.6409(6) -0.6651(3) 0.6013(4)
C8A C 0.8760(6) -0.9444(4) 0.6811(4)
H5A H 0.9801 -0.9984 0.6567
C9A C 0.7270(6) -1.1680(4) 0.7670(4)
C10A C 0.6027(6) -0.8848(4) 0.8092(4)
H6A H 0.5233 -0.8983 0.8712
C11A C 0.8427(6) -0.8465(4) 0.6265(4)
H7A H 0.9244 -0.8333 0.5656
C12A C 0.7568(6) -0.9623(4) 0.7703(4)
C13A C 0.5636(7) -1.1789(4) 0.8073(4)
H8A H 0.4904 -1.1439 0.8698
C15A C 0.6874(6) -0.7683(4) 0.6628(4)
C19A C 0.7828(6) -1.2824(4) 0.6223(4)
H12A H 0.8565 -1.3173 0.5598
C20A C 0.5101(7) -1.2426(4) 0.7533(4)
H13A H 0.3990 -1.2503 0.7790
C21A C 0.5676(6) -0.7881(4) 0.7558(4)
H14A H 0.4632 -0.7347 0.7812
C22A C 0.6201(6) -1.2953(4) 0.6609(4)
Zn1_2 Zn 0.67243(6) -1.52336(4) 0.42242(3)
Zn1A_2 Zn 0.32757(6) -0.47664(4) 0.57758(3)
Zn1A_3 Zn 2.32757(6) -0.47664(4) -0.42242(3)
N1A_2 N 0.1107(4) -1.4840(3) 0.6893(3)
O2_2 O 0.3266(5) -1.5831(3) 0.4733(3)
O2A_2 O 0.6734(5) -0.4169(3) 0.5267(3)
O4_2 O 0.5046(4) -0.3973(3) 0.3657(3)
O4A_2 O 0.4954(4) -1.6027(3) 0.6343(3)
N2 N 0.9974(7) -0.7917(5) -0.0812(4)
O7 O 1.1711(6) -0.6876(4) -0.0878(4)
C23 C 1.0413(8) -0.7153(5) -0.0487(5)
H15 H 0.9646 -0.6776 0.0115
C24 C 1.1145(13) -0.8565(9) -0.1680(9)
H16 H 1.0931 -0.8232 -0.2341
H17 H 1.0987 -0.9280 -0.1608
H18 H 1.2312 -0.8624 -0.1681
C25 C 0.8375(12) -0.8150(9) -0.0239(8)
H19 H 0.7883 -0.7745 0.0414
H20 H 0.8603 -0.8917 -0.0073
H21 H 0.7576 -0.7941 -0.0675
loop_
_geom_bond_atom_site_label_1
_geom_bond_atom_site_label_2
_geom_bond_site_symmetry_1
_geom_bond_site_symmetry_2
Zn1 N1 1_555 1_555
S1 O5 1_555 1_555
O1 C7 1_555 1_555
N1 C4 1_555 1_555
O2 C1 1_555 1_555
C1 O3 1_555 1_555
O3 Zn1 1_555 1_555
O4 C7 1_555 1_555
C2 C14 1_555 1_555
O6 S1 1_555 1_555
C3 H1 1_555 1_555
C4 C3 1_555 1_555
H2 C4 1_555 1_555
C5 H3 1_555 1_555
C6 H4 1_555 1_555
C7 C15 1_555 1_555
C8 H5 1_555 1_555
C9 S1 1_555 1_555
C10 H6 1_555 1_555
C11 C8 1_555 1_555
H7 C11 1_555 1_555
C12 S1 1_555 1_555
C13 C9 1_555 1_555
H8 C13 1_555 1_555
C14 H9 1_555 1_555
C15 C11 1_555 1_555
C16 C14 1_555 1_555
H10 C16 1_555 1_555
C17 C2 1_555 1_555
C18 N1 1_555 1_555
H11 C18 1_555 1_555
C19 C6 1_555 1_555
H12 C19 1_555 1_555
C20 C13 1_555 1_555
H13 C20 1_555 1_555
C21 C10 1_555 1_555
H14 C21 1_555 1_555
C22 C1 1_555 1_555
N2 C23 1_555 1_555
O7 C23 1_555 1_555
C23 H15 1_555 1_555
C24 N2 1_555 1_555
H16 C24 1_555 1_555
H17 C24 1_555 1_555
H18 C24 1_555 1_555
C25 N2 1_555 1_555
H19 C25 1_555 1_555
H20 C25 1_555 1_555
H21 C25 1_555 1_555
N1A C4A 1_555 1_555
C2A C16 1_555 1_555
C3A H1A 1_555 1_555
C4A C3A 1_555 1_555
H2A C4A 1_555 1_555
C5A H3A 1_555 1_555
C14A C2A 1_555 1_555
H9A C14A 1_555 1_555
C16A C2 1_555 1_555
H10A C16A 1_555 1_555
C17A C2A 1_555 1_555
C18A N1A 1_555 1_555
H11A C18A 1_555 1_555
Zn1A O1 1_555 1_555
S1A O5A 1_555 1_555
O1A Zn1 1_555 1_555
O2A C1A 1_555 1_555
C1A O3A 1_555 1_555
O3A Zn1A 1_555 1_555
O4A C7A 1_555 1_555
O6A S1A 1_555 1_555
C6A H4A 1_555 1_555
C7A O1A 1_555 1_555
C8A H5A 1_555 1_555
C9A S1A 1_555 1_555
C10A H6A 1_555 1_555
C11A C8A 1_555 1_555
H7A C11A 1_555 1_555
C12A S1A 1_555 1_555
C13A C9A 1_555 1_555
H8A C13A 1_555 1_555
C15A C7A 1_555 1_555
C19A C6A 1_555 1_555
H12A C19A 1_555 1_555
C20A C13A 1_555 1_555
H13A C20A 1_555 1_555
C21A C10A 1_555 1_555
H14A C21A 1_555 1_555
C22A C1A 1_555 1_555
Zn1_2 O4 1_555 1_555
Zn1A_2 O2 1_555 1_555
Zn1A_3 N1A 1_555 1_555
N1A_2 Zn1A 1_555 1_555
O2_2 Zn1A 1_555 1_555
O2A_2 Zn1 1_555 1_555
O4_2 Zn1 1_555 1_555
O4A_2 Zn1A 1_555 1_555
C3 C17 1_555 1_555
C5 C17 1_555 1_555
C5 C18 1_555 1_555
C6 C9 1_555 1_555
C8 C12 1_555 1_555
C10 C12 1_555 1_555
C15 C21 1_555 1_555
C19 C22 1_555 1_555
C20 C22 1_555 1_555
C3A C17A 1_555 1_555
C5A C17A 1_555 1_555
C5A C18A 1_555 1_555
C14A C16A 1_555 1_555
O2A Zn1_2 1_555 1_555
O4A Zn1A_2 1_555 1_555
C6A C9A 1_555 1_555
C8A C12A 1_555 1_555
C10A C12A 1_555 1_555
C11A C15A 1_555 1_555
C15A C21A 1_555 1_555
C19A C22A 1_555 1_555
C20A C22A 1_555 1_555

#END
