
#######################################################################
#
#                 Cambridge Crystallographic Data Centre
#                                CCDC 
#
#######################################################################
#
# If this CIF has been generated from an entry in the Cambridge 
# Structural Database, then it will include bibliographic, chemical, 
# crystal, experimental, refinement or atomic coordinate data resulting 
# from the CCDC's data processing and validation procedures.
#
#######################################################################

data_RIHPUV
_symmetry_cell_setting           monoclinic
_symmetry_space_group_name_H-M   'C 2/c'
_symmetry_Int_Tables_number      15
_space_group_name_Hall           '-C 2yn'
loop_
_symmetry_equiv_pos_site_id
_symmetry_equiv_pos_as_xyz
1 x,y,z
2 -x,y,1/2-z
3 1/2+x,1/2+y,z
4 1/2-x,1/2+y,1/2-z
5 -x,-y,-z
6 x,-y,1/2+z
7 1/2-x,1/2-y,-z
8 1/2+x,1/2-y,1/2+z
_cell_length_a                   16.3851(10)
_cell_length_b                   13.6703(5)
_cell_length_c                   17.7092(15)
_cell_angle_alpha                90
_cell_angle_beta                 129.237(4)
_cell_angle_gamma                90
_cell_volume                     3072.33
loop_
_atom_site_label
_atom_site_type_symbol
_atom_site_fract_x
_atom_site_fract_y
_atom_site_fract_z
Br1 Br 0.46635(3) 0.50036(2) 0.34197(3)
Mn1 Mn 0.53228(4) -0.04620(3) 0.43364(3)
O1 O 0.52788(16) 0.08868(14) 0.49155(14)
O2 O 0.44730(16) -0.15344(14) 0.32067(14)
N1 N 0.3436(2) -0.02881(17) 0.21132(18)
N2 N 0.40913(19) 0.03089(18) 0.29370(18)
N3 N 0.15954(19) -0.34093(17) 0.02642(18)
C1 C 0.4879(3) 0.3695(2) 0.3884(3)
C2 C 0.5544(2) 0.3520(2) 0.4873(2)
H1 H 0.5902 0.4043 0.5325
C3 C 0.5680(2) 0.2570(2) 0.5197(2)
H2 H 0.6138 0.2449 0.5878
C4 C 0.5165(2) 0.1779(2) 0.4554(2)
C5 C 0.4514(2) 0.1973(2) 0.3539(2)
C6 C 0.4379(3) 0.2942(2) 0.3223(2)
H3 H 0.3936 0.3081 0.2545
C7 C 0.3942(3) 0.1231(2) 0.2787(2)
H4 H 0.3417 0.1445 0.2135
C8 C 0.3700(2) -0.1212(2) 0.2374(2)
C9 C 0.2977(2) -0.1963(2) 0.1600(2)
C10 C 0.2077(2) -0.1722(2) 0.0661(2)
H5 H 0.1914 -0.1057 0.0463
C11 C 0.1428(2) -0.2455(2) 0.0025(2)
H6 H 0.0829 -0.2278 -0.0618
C12 C 0.2464(3) -0.3632(2) 0.1165(2)
H7 H 0.2607 -0.4301 0.1349
C13 C 0.3167(3) -0.2939(2) 0.1841(2)
H8 H 0.3776 -0.3136 0.2470
O3 O 0.65491(18) 0.03021(16) 0.43591(17)
H9 H 0.664(3) 0.013(2) 0.395(3)
C14 C 0.7363(3) 0.0923(3) 0.5080(3)
H10 H 0.7249 0.1096 0.5544
H11 H 0.7366 0.1519 0.4774
H12 H 0.8041 0.0588 0.5425
Mn1D Mn 0.46772(4) 0.04620(3) 0.56636(3)
Mn1G Mn 0.03228(4) -0.45380(3) -0.06636(3)
O1D O 0.47212(16) -0.08868(14) 0.50845(14)
N3G N 0.65954(19) -0.15907(17) 0.52642(18)
loop_
_geom_bond_atom_site_label_1
_geom_bond_atom_site_label_2
_geom_bond_site_symmetry_1
_geom_bond_site_symmetry_2
Br1 C1 1_555 1_555
Mn1 O1 1_555 1_555
O1 C4 1_555 1_555
O2 Mn1 1_555 1_555
N1 N2 1_555 1_555
N2 Mn1 1_555 1_555
N3 C11 1_555 1_555
C1 C2 1_555 1_555
C2 H1 1_555 1_555
C3 C2 1_555 1_555
H2 C3 1_555 1_555
C4 C3 1_555 1_555
C5 C4 1_555 1_555
C6 C1 1_555 1_555
H3 C6 1_555 1_555
C7 N2 1_555 1_555
H4 C7 1_555 1_555
C8 O2 1_555 1_555
C9 C8 1_555 1_555
C10 C9 1_555 1_555
H5 C10 1_555 1_555
C11 C10 1_555 1_555
H6 C11 1_555 1_555
C12 N3 1_555 1_555
H7 C12 1_555 1_555
C13 C9 1_555 1_555
H8 C13 1_555 1_555
O3 Mn1 1_555 1_555
H9 O3 1_555 1_555
C14 O3 1_555 1_555
H10 C14 1_555 1_555
H11 C14 1_555 1_555
H12 C14 1_555 1_555
Mn1D O1 1_555 1_555
Mn1G N3 1_555 1_555
O1D Mn1 1_555 1_555
N3G Mn1 1_555 1_555
N1 C8 1_555 1_555
C5 C6 1_555 1_555
C5 C7 1_555 1_555
C12 C13 1_555 1_555
Mn1D O1D 1_555 1_555

#END
