
#######################################################################
#
#                 Cambridge Crystallographic Data Centre
#                                CCDC 
#
#######################################################################
#
# If this CIF has been generated from an entry in the Cambridge 
# Structural Database, then it will include bibliographic, chemical, 
# crystal, experimental, refinement or atomic coordinate data resulting 
# from the CCDC's data processing and validation procedures.
#
#######################################################################

data_RIJCES
_symmetry_cell_setting           monoclinic
_symmetry_space_group_name_H-M   'P 21/n'
_symmetry_Int_Tables_number      14
_space_group_name_Hall           '-P 2yn'
loop_
_symmetry_equiv_pos_site_id
_symmetry_equiv_pos_as_xyz
1 x,y,z
2 1/2+x,1/2-y,1/2+z
3 -x,-y,-z
4 1/2-x,1/2+y,1/2-z
_cell_length_a                   17.8783(35)
_cell_length_b                   9.8950(27)
_cell_length_c                   11.1147(19)
_cell_angle_alpha                90
_cell_angle_beta                 106.166(12)
_cell_angle_gamma                90
_cell_volume                     1888.51
loop_
_atom_site_label
_atom_site_type_symbol
_atom_site_fract_x
_atom_site_fract_y
_atom_site_fract_z
Cu1 Cu 0.24056(9) 0.1640(2) 0.2404(1)
O1 O 0.2450(5) 0.3952(8) 0.2441(8)
O2 O 0.1283(4) 0.2037(8) 0.1909(8)
N1 N 0.2412(6) 0.159(1) 0.4228(9)
N2 N 0.2381(6) 0.157(1) 1.0593(8)
N3 N 0.0367(6) 0.369(1) 0.1563(10)
N4 N -0.1230(8) 0.573(1) 0.094(1)
N5 N 0.050(1) 0.853(2) 0.170(2)
N6 N 0.1538(6) 0.5645(10) 0.2107(9)
C1 C 0.1919(8) 0.077(2) 0.460(1)
C2 C 0.1929(10) 0.074(2) 0.584(1)
C3 C 0.2880(9) 0.237(2) 0.630(1)
C4 C 0.2892(9) 0.237(2) 0.507(1)
C5 C 0.2390(8) 0.154(1) 0.674(1)
C6 C 0.2388(8) 0.156(1) 0.804(1)
C7 C 0.299(1) 0.205(2) 0.899(1)
C8 C 0.1804(8) 0.110(1) 0.973(1)
C9 C 0.1769(8) 0.106(1) 0.845(1)
C10 C 0.2964(9) 0.204(2) 1.022(1)
C11 C 0.1790(7) 0.429(1) 0.2173(10)
C12 C 0.1084(6) 0.334(1) 0.1863(9)
C13 C 0.0221(7) 0.507(1) 0.154(1)
C14 C -0.0591(7) 0.546(1) 0.123(1)
C15 C 0.0818(8) 0.598(1) 0.179(1)
C16 C 0.062(1) 0.740(2) 0.172(1)
H1 H 0.1563 0.0219 0.3995
H2 H 0.1590 0.0105 0.6085
H3 H 0.3220 0.2967 0.6874
H4 H 0.3255 0.2936 0.4812
H5 H 0.3451 0.2389 0.8793
H6 H 0.1369 0.0757 0.9975
H7 H 0.1323 0.0685 0.7850
H8 H 0.3397 0.2414 1.0849
O1C O 0.2550(5) -0.1048(8) 0.2559(8)
N2_2 N 0.2381(6) 0.157(1) 0.0593(8)
N6C N 0.3462(6) 0.0645(10) 0.2893(9)
Cu1C Cu 0.25944(9) 0.6640(2) 0.2596(1)
Cu1_2 Cu 0.24056(9) 0.1640(2) 1.2404(1)
O3 O -0.0350(7) 0.114(1) 0.179(2)
O4 O 0.545(3) 0.156(6) 0.028(5)
O5 O 0.474(1) 0.375(2) -0.059(3)
loop_
_geom_bond_atom_site_label_1
_geom_bond_atom_site_label_2
_geom_bond_site_symmetry_1
_geom_bond_site_symmetry_2
Cu1 O1 1_555 1_555
O1 C11 1_555 1_555
O2 Cu1 1_555 1_555
N1 Cu1 1_555 1_555
N2 C8 1_555 1_555
N3 C12 1_555 1_555
N4 C14 1_555 1_555
N5 C16 1_555 1_555
N6 C11 1_555 1_555
C1 N1 1_555 1_555
C2 C1 1_555 1_555
C3 C4 1_555 1_555
C4 N1 1_555 1_555
C5 C2 1_555 1_555
C6 C5 1_555 1_555
C7 C6 1_555 1_555
C8 C9 1_555 1_555
C9 C6 1_555 1_555
C10 N2 1_555 1_555
C11 C12 1_555 1_555
C12 O2 1_555 1_555
C13 N3 1_555 1_555
C14 C13 1_555 1_555
C15 N6 1_555 1_555
C16 C15 1_555 1_555
H1 C1 1_555 1_555
H2 C2 1_555 1_555
H3 C3 1_555 1_555
H4 C4 1_555 1_555
H5 C7 1_555 1_555
H6 C8 1_555 1_555
H7 C9 1_555 1_555
H8 C10 1_555 1_555
O1C Cu1 1_555 1_555
N2_2 Cu1 1_555 1_555
N6C Cu1 1_555 1_555
Cu1C O1 1_555 1_555
Cu1_2 N2 1_555 1_555
N6 Cu1C 1_555 1_555
C3 C5 1_555 1_555
C7 C10 1_555 1_555
C13 C15 1_555 1_555

#END
