
#######################################################################
#
#                 Cambridge Crystallographic Data Centre
#                                CCDC 
#
#######################################################################
#
# If this CIF has been generated from an entry in the Cambridge 
# Structural Database, then it will include bibliographic, chemical, 
# crystal, experimental, refinement or atomic coordinate data resulting 
# from the CCDC's data processing and validation procedures.
#
#######################################################################

data_RIKDUM
_symmetry_cell_setting           monoclinic
_symmetry_space_group_name_H-M   'P 2/c'
_symmetry_Int_Tables_number      13
_space_group_name_Hall           '-P 2yc'
loop_
_symmetry_equiv_pos_site_id
_symmetry_equiv_pos_as_xyz
1 x,y,z
2 -x,y,1/2-z
3 -x,-y,-z
4 x,-y,1/2+z
_cell_length_a                   19.392(9)
_cell_length_b                   8.516(4)
_cell_length_c                   27.144(12)
_cell_angle_alpha                90
_cell_angle_beta                 109.504(10)
_cell_angle_gamma                90
_cell_volume                     4225.4
loop_
_atom_site_label
_atom_site_type_symbol
_atom_site_fract_x
_atom_site_fract_y
_atom_site_fract_z
C1 C 0.4503(5) 0.3969(9) 0.6659(3)
H1 H 0.4312 0.4979 0.6594
C2 C 0.5235(6) 0.3801(11) 0.6923(4)
H2 H 0.5542 0.4662 0.7037
C3 C 0.5484(5) 0.2307(12) 0.7007(5)
H3 H 0.5979 0.2137 0.7184
C4 C 0.5036(5) 0.1044(10) 0.6842(4)
H4 H 0.5220 0.0028 0.6904
C5 C 0.4307(4) 0.1301(8) 0.6581(3)
C6 C 0.3772(4) 0.0067(7) 0.6391(2)
C7 C 0.2725(4) -0.0973(8) 0.6009(2)
C8 C 0.1981(4) -0.1335(8) 0.5732(3)
C9 C 0.1632(7) -0.2444(17) 0.5857(6)
H5 H 0.1876 -0.3022 0.6155
C10 C 0.0905(6) -0.2862(14) 0.5578(5)
H6 H 0.0692 -0.3688 0.5699
C11 C 0.0536(5) -0.2153(9) 0.5171(4)
C12 C 0.0932(6) -0.1125(14) 0.4938(4)
H7 H 0.0710 -0.0744 0.4601
C13 C 0.1640(6) -0.0711(13) 0.5218(4)
H8 H 0.1896 -0.0030 0.5074
C14 C -0.0252(5) -0.2509(9) 0.4876(4)
C15 C -0.0680(7) -0.3111(18) 0.5085(5)
H9 H -0.0492 -0.3410 0.5435
C16 C -0.1438(7) -0.3356(18) 0.4812(5)
H10 H -0.1712 -0.3887 0.4982
C17 C -0.1309(6) -0.2426(15) 0.4100(4)
H11 H -0.1515 -0.2275 0.3741
C18 C -0.0567(6) -0.2148(14) 0.4330(4)
H12 H -0.0286 -0.1748 0.4140
C19 C 0.3121(4) 0.4297(7) 0.5261(2)
C20 C 0.3120(4) 0.5283(7) 0.4809(2)
C21 C 0.3137(5) 0.6880(7) 0.4862(3)
H13 H 0.3203 0.7322 0.5188
C22 C 0.3057(5) 0.7851(8) 0.4435(3)
C23 C 0.2981(6) 0.7168(8) 0.3952(3)
H14 H 0.2936 0.7811 0.3666
C24 C 0.2971(5) 0.5543(7) 0.3890(2)
C25 C 0.3032(4) 0.4620(7) 0.4321(2)
H15 H 0.3015 0.3533 0.4286
C26 C 0.3053(5) 0.9568(9) 0.4495(3)
C27 C 0.2918(4) 0.4834(7) 0.3374(2)
C28 C 0.2945(6) 0.3223(8) 0.3309(3)
H16 H 0.3002 0.2563 0.3593
C29 C 0.2891(7) 0.2584(8) 0.2832(3)
C30 C 0.2822(5) 0.3538(8) 0.2408(2)
H17 H 0.2804 0.3105 0.2090
C31 C 0.2782(4) 0.5123(7) 0.2461(2)
C32 C 0.2834(4) 0.5774(7) 0.2943(2)
H18 H 0.2813 0.6859 0.2975
C33 C 0.2734(4) 0.6126(7) 0.2002(2)
C34 C 0.2917(8) 0.0846(9) 0.2769(3)
N1 N 0.4050(4) 0.2761(6) 0.6492(2)
N2 N 0.3059(3) 0.0438(6) 0.61314(18)
N3 N 0.3259(4) -0.2078(6) 0.6189(3)
N4 N 0.3902(4) -0.1417(7) 0.6438(3)
H19 H 0.4312 -0.1877 0.6594
N5 N -0.1751(4) -0.2897(7) 0.4359(3)
O1 O 0.3088(3) 0.4966(5) 0.56635(15)
O2 O 0.3115(4) 0.2841(5) 0.52383(19)
O3 O 0.3304(4) 1.0018(6) 0.49771(19)
H20 H 0.2973 1.0004 0.5102
O4 O 0.2775(6) 1.0466(7) 0.4137(2)
O5 O 0.2669(5) 0.7572(6) 0.2027(2)
O6 O 0.2782(3) 0.5477(6) 0.16045(15)
O7 O 0.2747(6) 0.0395(7) 0.2292(2)
H21 H 0.3004 -0.0354 0.2275
O8 O 0.3177(7) -0.0059(8) 0.3119(3)
Zn1 Zn 0.28905(4) 0.29700(8) 0.60598(2)
N5B N 0.1751(4) 0.2897(7) 0.5641(3)
O6C O 0.2782(3) 0.4523(6) 0.66045(15)
Zn1B Zn -0.28905(4) -0.29700(8) 0.39402(2)
Zn1C Zn 0.28905(4) 0.70300(8) 0.10598(2)
loop_
_geom_bond_atom_site_label_1
_geom_bond_atom_site_label_2
_geom_bond_site_symmetry_1
_geom_bond_site_symmetry_2
C1 H1 1_555 1_555
C2 C1 1_555 1_555
H2 C2 1_555 1_555
C3 C2 1_555 1_555
H3 C3 1_555 1_555
C4 C3 1_555 1_555
H4 C4 1_555 1_555
C5 C4 1_555 1_555
C6 C5 1_555 1_555
C7 C8 1_555 1_555
C8 C9 1_555 1_555
C9 H5 1_555 1_555
C10 C9 1_555 1_555
H6 C10 1_555 1_555
C11 C10 1_555 1_555
C12 C11 1_555 1_555
H7 C12 1_555 1_555
C13 C8 1_555 1_555
H8 C13 1_555 1_555
C14 C11 1_555 1_555
C15 C14 1_555 1_555
H9 C15 1_555 1_555
C16 C15 1_555 1_555
H10 C16 1_555 1_555
C17 H11 1_555 1_555
C18 C14 1_555 1_555
H12 C18 1_555 1_555
C19 C20 1_555 1_555
C20 C21 1_555 1_555
C21 H13 1_555 1_555
C22 C21 1_555 1_555
C23 C22 1_555 1_555
H14 C23 1_555 1_555
C24 C23 1_555 1_555
C25 C20 1_555 1_555
H15 C25 1_555 1_555
C26 C22 1_555 1_555
C27 C24 1_555 1_555
C28 C27 1_555 1_555
H16 C28 1_555 1_555
C29 C28 1_555 1_555
C30 C29 1_555 1_555
H17 C30 1_555 1_555
C31 C30 1_555 1_555
C32 C27 1_555 1_555
H18 C32 1_555 1_555
C33 C31 1_555 1_555
C34 C29 1_555 1_555
N1 C1 1_555 1_555
N2 C6 1_555 1_555
N3 C7 1_555 1_555
N4 C6 1_555 1_555
H19 N4 1_555 1_555
N5 C16 1_555 1_555
O1 C19 1_555 1_555
O2 C19 1_555 1_555
O3 C26 1_555 1_555
H20 O3 1_555 1_555
O4 C26 1_555 1_555
O5 C33 1_555 1_555
O6 C33 1_555 1_555
O7 C34 1_555 1_555
H21 O7 1_555 1_555
O8 C34 1_555 1_555
Zn1 N1 1_555 1_555
N5B Zn1 1_555 1_555
O6C Zn1 1_555 1_555
Zn1B N5 1_555 1_555
Zn1C O6 1_555 1_555
C5 N1 1_555 1_555
C7 N2 1_555 1_555
C12 C13 1_555 1_555
C17 C18 1_555 1_555
C17 N5 1_555 1_555
C24 C25 1_555 1_555
C31 C32 1_555 1_555
N2 Zn1 1_555 1_555
N3 N4 1_555 1_555
O1 Zn1 1_555 1_555
O2 Zn1 1_555 1_555

#END
