
#######################################################################
#
#                 Cambridge Crystallographic Data Centre
#                                CCDC 
#
#######################################################################
#
# If this CIF has been generated from an entry in the Cambridge 
# Structural Database, then it will include bibliographic, chemical, 
# crystal, experimental, refinement or atomic coordinate data resulting 
# from the CCDC's data processing and validation procedures.
#
#######################################################################

data_RILWEQ
_symmetry_cell_setting           triclinic
_symmetry_space_group_name_H-M   'P -1'
_symmetry_Int_Tables_number      2
_space_group_name_Hall           '-P 1'
loop_
_symmetry_equiv_pos_site_id
_symmetry_equiv_pos_as_xyz
1 x,y,z
2 -x,-y,-z
_cell_length_a                   9.379(2)
_cell_length_b                   10.023(2)
_cell_length_c                   13.773(3)
_cell_angle_alpha                101.504(3)
_cell_angle_beta                 107.424(3)
_cell_angle_gamma                99.561(3)
_cell_volume                     1174.68
loop_
_atom_site_label
_atom_site_type_symbol
_atom_site_fract_x
_atom_site_fract_y
_atom_site_fract_z
Br1 Br 0.72809(12) 0.13263(12) 0.08554(8)
Br2 Br 0.50224(10) -0.02270(10) 0.31475(8)
C1 C 0.7284(9) 0.8361(9) -0.1574(6)
H1 H 0.7302 0.8830 -0.2090
C2 C 0.8654(10) 0.8238(11) -0.0919(7)
H2 H 0.9577 0.8601 -0.1000
C3 C 0.8640(10) 0.7573(10) -0.0145(7)
H3 H 0.9556 0.7473 0.0303
C4 C 0.7246(8) 0.7048(8) -0.0032(6)
C5 C 0.5922(8) 0.7210(8) -0.0741(6)
H4 H 0.4980 0.6861 -0.0677
C6 C 0.7147(8) 0.6424(8) 0.0847(6)
C7 C 0.6005(8) 0.6606(8) 0.1269(6)
H5 H 0.5261 0.7048 0.0961
C8 C 0.5952(8) 0.6144(8) 0.2135(6)
H6 H 0.5169 0.6271 0.2403
C9 C 0.7062(8) 0.5486(7) 0.2616(6)
C10 C 0.8169(9) 0.5250(8) 0.2178(6)
H7 H 0.8881 0.4767 0.2468
C11 C 0.8230(9) 0.5726(8) 0.1305(6)
H8 H 0.8996 0.5578 0.1025
C12 C 0.7061(8) 0.5069(8) 0.3580(5)
C13 C 0.7188(8) 0.3921(8) 0.4776(6)
C14 C 0.7294(10) 0.2935(9) 0.5360(6)
H9 H 0.7313 0.2021 0.5066
C15 C 0.7368(10) 0.3366(10) 0.6388(7)
H10 H 0.7453 0.2728 0.6796
C16 C 0.7322(10) 0.4709(10) 0.6838(7)
H11 H 0.7396 0.4957 0.7542
C17 C 0.7169(9) 0.5691(9) 0.6268(6)
H12 H 0.7104 0.6590 0.6560
C18 C 0.7115(8) 0.5260(8) 0.5227(6)
C19 C 0.7062(9) 0.7475(8) 0.4641(7)
H13 H 0.6173 0.7624 0.4829
H14 H 0.6970 0.7741 0.3989
C20 C 0.8490(8) 0.8410(7) 0.5493(6)
C21 C 0.8425(9) 0.9734(8) 0.5980(7)
H15 H 0.7514 1.0026 0.5790
C22 C 0.9733(11) 1.0613(10) 0.6751(9)
H16 H 0.9718 1.1506 0.7094
C23 C 1.1053(11) 1.0151(9) 0.7002(9)
H17 H 1.1935 1.0765 0.7509
C24 C 0.9868(8) 0.8034(8) 0.5820(6)
H18 H 0.9911 0.7138 0.5503
Cd1 Cd 0.64339(6) 0.16969(6) 0.24849(4)
N1 N 0.5924(7) 0.7835(7) -0.1503(5)
N2 N 0.7140(7) 0.3821(6) 0.3747(5)
N3 N 0.7043(7) 0.5982(6) 0.4458(5)
N4 N 1.1153(7) 0.8880(7) 0.6567(6)
Cd1A Cd 0.35661(6) 0.83031(6) -0.24849(4)
Cd1A_2 Cd 1.35661(6) 0.83031(6) 0.75151(4)
N1A N 0.4076(7) 0.2165(7) 0.1503(5)
N4A N 0.8847(7) 0.1120(7) 0.3433(6)
O1 O 0.7725(9) 0.2847(11) -0.1092(7)
H19 H 0.7634 0.2575 -0.0559
H20 H 0.7134 0.2208 -0.1642
loop_
_geom_bond_atom_site_label_1
_geom_bond_atom_site_label_2
_geom_bond_site_symmetry_1
_geom_bond_site_symmetry_2
Br1 Cd1 1_555 1_555
Br2 Cd1 1_555 1_555
C1 H1 1_555 1_555
C2 C1 1_555 1_555
H2 C2 1_555 1_555
C3 C2 1_555 1_555
H3 C3 1_555 1_555
C4 C3 1_555 1_555
C5 C4 1_555 1_555
H4 C5 1_555 1_555
C6 C4 1_555 1_555
C7 C6 1_555 1_555
H5 C7 1_555 1_555
C8 C7 1_555 1_555
H6 C8 1_555 1_555
C9 C8 1_555 1_555
C10 C9 1_555 1_555
H7 C10 1_555 1_555
C11 C6 1_555 1_555
H8 C11 1_555 1_555
C12 C9 1_555 1_555
C13 C14 1_555 1_555
C14 H9 1_555 1_555
C15 C14 1_555 1_555
H10 C15 1_555 1_555
C16 C15 1_555 1_555
H11 C16 1_555 1_555
C17 C16 1_555 1_555
H12 C17 1_555 1_555
C18 C13 1_555 1_555
C19 H13 1_555 1_555
H14 C19 1_555 1_555
C20 C19 1_555 1_555
C21 C20 1_555 1_555
H15 C21 1_555 1_555
C22 C21 1_555 1_555
H16 C22 1_555 1_555
C23 C22 1_555 1_555
H17 C23 1_555 1_555
C24 C20 1_555 1_555
H18 C24 1_555 1_555
Cd1 N2 1_555 1_555
N1 C1 1_555 1_555
N2 C12 1_555 1_555
N3 C12 1_555 1_555
N4 C23 1_555 1_555
O1 H19 1_555 1_555
H20 O1 1_555 1_555
Cd1A N1 1_555 1_555
Cd1A_2 N4 1_555 1_555
N1A Cd1 1_555 1_555
N4A Cd1 1_555 1_555
C5 N1 1_555 1_555
C10 C11 1_555 1_555
C13 N2 1_555 1_555
C17 C18 1_555 1_555
C18 N3 1_555 1_555
C19 N3 1_555 1_555
C24 N4 1_555 1_555

#END
