
#######################################################################
#
#                 Cambridge Crystallographic Data Centre
#                                CCDC 
#
#######################################################################
#
# If this CIF has been generated from an entry in the Cambridge 
# Structural Database, then it will include bibliographic, chemical, 
# crystal, experimental, refinement or atomic coordinate data resulting 
# from the CCDC's data processing and validation procedures.
#
#######################################################################

data_RIMVOY
_symmetry_cell_setting           monoclinic
_symmetry_space_group_name_H-M   'C 2/c'
_symmetry_Int_Tables_number      15
_space_group_name_Hall           '-C 2yn'
loop_
_symmetry_equiv_pos_site_id
_symmetry_equiv_pos_as_xyz
1 x,y,z
2 -x,y,1/2-z
3 1/2+x,1/2+y,z
4 1/2-x,1/2+y,1/2-z
5 -x,-y,-z
6 x,-y,1/2+z
7 1/2-x,1/2-y,-z
8 1/2+x,1/2-y,1/2+z
_cell_length_a                   7.924(1)
_cell_length_b                   13.647(1)
_cell_length_c                   18.079(1)
_cell_angle_alpha                90
_cell_angle_beta                 102.56(1)
_cell_angle_gamma                90
_cell_volume                     1908.26
loop_
_atom_site_label
_atom_site_type_symbol
_atom_site_fract_x
_atom_site_fract_y
_atom_site_fract_z
Cl1 Cl 0.0000 0.0357(1) -0.2500
Cl2 Cl 0.5000 0.8364(1) 0.7500
O5 O 0.0900(3) 0.7091(2) 0.4178(1)
Ni1 Ni 0.0000 0.0000 0.0000
O1 O 0.2075(3) -0.0763(2) 0.0641(1)
O2 O 0.3242(4) -0.1362(3) -0.0282(1)
C1 C 0.3219(4) -0.1214(3) 0.0396(2)
C2 C 0.4771(4) -0.1666(3) 0.0938(2)
N1 N 0.4829(3) -0.1628(2) 0.1776(1)
C3 C 0.4975(4) -0.0594(2) 0.2079(2)
C4 C 0.3291(4) -0.2118(3) 0.1984(2)
C5 C 0.6443(4) -0.2176(3) 0.2158(2)
O3 O -0.1661(3) -0.1074(2) 0.0216(1)
O4 O -0.0176(3) 0.0708(2) 0.0993(1)
H1 H 0.5795 -0.1352 0.0852
H2 H 0.4834 -0.2342 0.0802
H3 H 0.3999 -0.0218 0.1821
H4 H 0.6004 -0.0294 0.1984
H5 H 0.3151 -0.2764 0.1769
H6 H 0.2263 -0.1750 0.1780
H7 H 0.7426 -0.1901 0.2002
H8 H 0.6342 -0.2850 0.2003
C3A C 0.5025(4) -0.0594(2) 0.2921(2)
N1A N 0.5171(3) -0.1628(2) 0.3224(1)
C2A C 0.5229(4) -0.1666(3) 0.4062(2)
C1A C 0.6781(4) -0.1214(3) 0.4604(2)
O1A O 0.7925(3) -0.0763(2) 0.4359(1)
Ni1A Ni 1.0000 0.0000 0.5000
O2A O 0.6758(4) -0.1362(3) 0.5282(1)
H1A H 0.4205 -0.1352 0.4148
H2A H 0.5166 -0.2342 0.4198
C4A C 0.6709(4) -0.2118(3) 0.3016(2)
C5A C 0.3557(4) -0.2176(3) 0.2842(2)
H3A H 0.6001 -0.0218 0.3179
H4A H 0.3996 -0.0294 0.3016
O1D O -0.2075(3) 0.0763(2) -0.0641(1)
O3D O 0.1661(3) 0.1074(2) -0.0216(1)
O4D O 0.0176(3) -0.0708(2) -0.0993(1)
loop_
_geom_bond_atom_site_label_1
_geom_bond_atom_site_label_2
_geom_bond_site_symmetry_1
_geom_bond_site_symmetry_2
Ni1 O1 1_555 1_555
O1 C1 1_555 1_555
O2 C1 1_555 1_555
C1 C2 1_555 1_555
C2 N1 1_555 1_555
N1 C3 1_555 1_555
C3 H3 1_555 1_555
C4 N1 1_555 1_555
C5 N1 1_555 1_555
O3 Ni1 1_555 1_555
O4 Ni1 1_555 1_555
H1 C2 1_555 1_555
H2 C2 1_555 1_555
H4 C3 1_555 1_555
H5 C4 1_555 1_555
H6 C4 1_555 1_555
H7 C5 1_555 1_555
H8 C5 1_555 1_555
C3A C3 1_555 1_555
N1A C3A 1_555 1_555
C2A N1A 1_555 1_555
C1A C2A 1_555 1_555
O1A C1A 1_555 1_555
Ni1A O1A 1_555 1_555
O2A C1A 1_555 1_555
H1A C2A 1_555 1_555
H2A C2A 1_555 1_555
C4A C5 1_555 1_555
C5A C4 1_555 1_555
H3A C3A 1_555 1_555
H4A C3A 1_555 1_555
O1D Ni1 1_555 1_555
O3D Ni1 1_555 1_555
O4D Ni1 1_555 1_555
N1A C4A 1_555 1_555
N1A C5A 1_555 1_555

#END
