
#######################################################################
#
#                 Cambridge Crystallographic Data Centre
#                                CCDC 
#
#######################################################################
#
# If this CIF has been generated from an entry in the Cambridge 
# Structural Database, then it will include bibliographic, chemical, 
# crystal, experimental, refinement or atomic coordinate data resulting 
# from the CCDC's data processing and validation procedures.
#
#######################################################################

data_RINNUX
_symmetry_cell_setting           orthorhombic
_symmetry_space_group_name_H-M   'P b c a'
_symmetry_Int_Tables_number      61
_space_group_name_Hall           '-P 2ac 2ab'
loop_
_symmetry_equiv_pos_site_id
_symmetry_equiv_pos_as_xyz
1 x,y,z
2 1/2-x,-y,1/2+z
3 1/2+x,1/2-y,-z
4 -x,1/2+y,1/2-z
5 -x,-y,-z
6 1/2+x,y,1/2-z
7 1/2-x,1/2+y,z
8 x,1/2-y,1/2+z
_cell_length_a                   38.731(13)
_cell_length_b                   18.569(3)
_cell_length_c                   6.628(1)
_cell_angle_alpha                90
_cell_angle_beta                 90
_cell_angle_gamma                90
_cell_volume                     4766.83
loop_
_atom_site_label
_atom_site_type_symbol
_atom_site_fract_x
_atom_site_fract_y
_atom_site_fract_z
Pt1 Pt 0.0379(3) 0.2407(1) 0.3109(1)
N1 N 0.0221(7) 0.3476(12) 0.2929(30)
N2 N 0.0853(5) 0.2897(9) 0.3396(31)
N3 N -0.0369(14) 0.1813(15) 0.2669(27)
N4 N 0.0691(7) 0.0865(12) 0.3272(37)
C1 C -0.0096(11) 0.3751(19) 0.2667(31)
C2 C -0.0133(11) 0.4499(20) 0.2495(28)
C3 C 0.0139(11) 0.4921(20) 0.2602(33)
C4 C 0.0459(8) 0.4700(15) 0.2997(40)
C5 C 0.0500(8) 0.3941(14) 0.3121(43)
C6 C 0.0832(7) 0.3642(12) 0.3383(41)
C7 C 0.1128(7) 0.4073(13) 0.3565(39)
C8 C 0.1442(8) 0.3728(15) 0.3965(43)
C9 C 0.1454(8) 0.3008(15) 0.3978(43)
C10 C 0.1171(6) 0.2593(13) 0.3684(32)
C11 C 0.0771(8) 0.5118(15) 0.3245(51)
C12 C 0.1073(8) 0.4855(13) 0.3471(44)
C13 C -0.0088(9) 0.2025(15) 0.2836(35)
C14 C 0.0562(8) 0.1436(14) 0.3238(44)
H1 H -0.0292 0.3445 0.2600
H2 H -0.0355 0.4702 0.2298
H3 H 0.0104 0.5421 0.2383
H4 H 0.1644 0.4002 0.4224
H5 H 0.1669 0.2779 0.4204
H6 H 0.1193 0.2083 0.3678
H7 H 0.0749 0.5628 0.3239
H8 H 0.1266 0.5170 0.3581
Pt1G Pt 0.0379(3) 0.2593(1) -0.1891(1)
Pt1G_2 Pt 0.0379(3) 0.2593(1) 0.8109(1)
Pt2 Pt 0.2878(3) 0.2393(1) 0.2970(1)
N5 N 0.2734(7) 0.3451(12) 0.2851(28)
N6 N 0.3337(5) 0.2870(9) 0.3252(29)
N7 N 0.2146(14) 0.1801(16) 0.2619(29)
N8 N 0.3187(6) 0.0862(11) 0.3212(35)
C15 C 0.2426(11) 0.3705(19) 0.2617(30)
C16 C 0.2345(12) 0.4435(22) 0.2614(34)
C17 C 0.2621(10) 0.4946(20) 0.2790(38)
C18 C 0.2957(8) 0.4668(14) 0.3070(40)
C19 C 0.3005(8) 0.3924(13) 0.3035(40)
C20 C 0.3330(7) 0.3612(11) 0.3254(40)
C21 C 0.3631(8) 0.4037(13) 0.3550(40)
C22 C 0.3946(8) 0.3705(15) 0.3829(43)
C23 C 0.3967(8) 0.2987(15) 0.3814(42)
C24 C 0.3659(6) 0.2571(14) 0.3530(34)
C25 C 0.3264(7) 0.5111(13) 0.3221(46)
C26 C 0.3577(9) 0.4804(14) 0.3479(46)
C27 C 0.2430(11) 0.2008(18) 0.2717(34)
C28 C 0.3053(8) 0.1420(15) 0.3115(46)
H9 H 0.2243 0.3371 0.2434
H10 H 0.2112 0.4592 0.2498
H11 H 0.2580 0.5450 0.2722
H12 H 0.4148 0.3987 0.4031
H13 H 0.4184 0.2754 0.3990
H14 H 0.3678 0.2061 0.3532
H15 H 0.3245 0.5621 0.3137
H16 H 0.3772 0.5110 0.3621
Pt2G Pt 0.2878(3) 0.2607(1) -0.2030(1)
Pt2G_2 Pt 0.2878(3) 0.2607(1) 0.7970(1)
loop_
_geom_bond_atom_site_label_1
_geom_bond_atom_site_label_2
_geom_bond_site_symmetry_1
_geom_bond_site_symmetry_2
Pt1 N1 1_555 1_555
Pt2 N5 1_555 1_555
N1 C1 1_555 1_555
N2 Pt1 1_555 1_555
N3 C13 1_555 1_555
N4 C14 1_555 1_555
C1 C2 1_555 1_555
C2 C3 1_555 1_555
C3 C4 1_555 1_555
C4 C5 1_555 1_555
C5 N1 1_555 1_555
C6 N2 1_555 1_555
C7 C6 1_555 1_555
C8 C7 1_555 1_555
C9 C8 1_555 1_555
C10 N2 1_555 1_555
C11 C4 1_555 1_555
C12 C7 1_555 1_555
C13 Pt1 1_555 1_555
C14 Pt1 1_555 1_555
N5 C15 1_555 1_555
N6 Pt2 1_555 1_555
N7 C27 1_555 1_555
N8 C28 1_555 1_555
C15 C16 1_555 1_555
C16 C17 1_555 1_555
C17 C18 1_555 1_555
C18 C19 1_555 1_555
C19 N5 1_555 1_555
C20 N6 1_555 1_555
C21 C20 1_555 1_555
C22 C21 1_555 1_555
C23 C22 1_555 1_555
C24 N6 1_555 1_555
C25 C18 1_555 1_555
C26 C21 1_555 1_555
C27 Pt2 1_555 1_555
C28 Pt2 1_555 1_555
H1 C1 1_555 1_555
H2 C2 1_555 1_555
H3 C3 1_555 1_555
H4 C8 1_555 1_555
H5 C9 1_555 1_555
H6 C10 1_555 1_555
H7 C11 1_555 1_555
H8 C12 1_555 1_555
H9 C15 1_555 1_555
H10 C16 1_555 1_555
H11 C17 1_555 1_555
H12 C22 1_555 1_555
H13 C23 1_555 1_555
H14 C24 1_555 1_555
H15 C25 1_555 1_555
H16 C26 1_555 1_555
Pt1G Pt1 1_555 1_555
Pt1G_2 Pt1 1_555 1_555
Pt2G Pt2 1_555 1_555
Pt2G_2 Pt2 1_555 1_555
C5 C6 1_555 1_555
C9 C10 1_555 1_555
C11 C12 1_555 1_555
C19 C20 1_555 1_555
C23 C24 1_555 1_555
C25 C26 1_555 1_555

#END
