
#######################################################################
#
#                 Cambridge Crystallographic Data Centre
#                                CCDC 
#
#######################################################################
#
# If this CIF has been generated from an entry in the Cambridge 
# Structural Database, then it will include bibliographic, chemical, 
# crystal, experimental, refinement or atomic coordinate data resulting 
# from the CCDC's data processing and validation procedures.
#
#######################################################################

data_RINPAF
_symmetry_cell_setting           orthorhombic
_symmetry_space_group_name_H-M   'P b c m'
_symmetry_Int_Tables_number      57
_space_group_name_Hall           '-P 2c 2b'
loop_
_symmetry_equiv_pos_site_id
_symmetry_equiv_pos_as_xyz
1 x,y,z
2 -x,-y,1/2+z
3 x,1/2-y,-z
4 -x,1/2+y,1/2-z
5 -x,-y,-z
6 x,y,1/2-z
7 -x,1/2+y,z
8 x,1/2-y,1/2+z
_cell_length_a                   10.349(3)
_cell_length_b                   19.927(5)
_cell_length_c                   6.572(3)
_cell_angle_alpha                90
_cell_angle_beta                 90
_cell_angle_gamma                90
_cell_volume                     1355.31
loop_
_atom_site_label
_atom_site_type_symbol
_atom_site_fract_x
_atom_site_fract_y
_atom_site_fract_z
Pt1 Pt 0.1495(1) 0.2572(1) 0.2500
N1 N -0.0219(22) 0.2964(10) 0.2500
C1 C -0.1145(26) 0.3241(12) 0.2500
S1 S -0.2572(10) 0.3645(4) 0.2500
N2 N 0.2286(26) 0.3546(12) 0.2500
C2 C 0.2850(30) 0.3982(14) 0.2500
S2 S 0.3615(10) 0.4659(4) 0.2500
N3 N 0.0806(22) 0.1603(10) 0.2500
C3 C -0.0331(28) 0.1379(12) 0.2500
C4 C -0.0610(30) 0.0725(13) 0.2500
C5 C 0.0279(28) 0.0290(12) 0.2500
C6 C 0.1576(26) 0.0474(12) 0.2500
C7 C 0.1927(23) 0.1139(11) 0.2500
C8 C 0.3166(25) 0.1460(11) 0.2500
C9 C 0.4249(29) 0.1069(12) 0.2500
C10 C 0.5414(33) 0.1410(14) 0.2500
C11 C 0.5477(30) 0.2058(14) 0.2500
C12 C 0.4326(24) 0.2409(12) 0.2500
N4 N 0.3139(17) 0.2134(9) 0.2500
H1 H -0.1057 0.1704 0.2500
H2 H -0.1521 0.0581 0.2500
H3 H 0.0046 -0.0182 0.2500
H4 H 0.2231 0.0127 0.2500
H5 H 0.4253 0.0577 0.2500
H6 H 0.6203 0.1150 0.2500
H7 H 0.6307 0.2283 0.2500
H8 H 0.4404 0.2895 0.2500
Pt1B Pt 0.1495(1) 0.2428(1) -0.2500
Pt1B_2 Pt 0.1495(1) 0.2428(1) 0.7500
loop_
_geom_bond_atom_site_label_1
_geom_bond_atom_site_label_2
_geom_bond_site_symmetry_1
_geom_bond_site_symmetry_2
Pt1 N1 1_555 1_555
N1 C1 1_555 1_555
C1 S1 1_555 1_555
N2 Pt1 1_555 1_555
C2 N2 1_555 1_555
S2 C2 1_555 1_555
N3 Pt1 1_555 1_555
C3 N3 1_555 1_555
C4 C3 1_555 1_555
C5 C4 1_555 1_555
C6 C5 1_555 1_555
C7 N3 1_555 1_555
C8 C7 1_555 1_555
C9 C8 1_555 1_555
C10 C9 1_555 1_555
C11 C10 1_555 1_555
C12 C11 1_555 1_555
N4 Pt1 1_555 1_555
H1 C3 1_555 1_555
H2 C4 1_555 1_555
H3 C5 1_555 1_555
H4 C6 1_555 1_555
H5 C9 1_555 1_555
H6 C10 1_555 1_555
H7 C11 1_555 1_555
H8 C12 1_555 1_555
Pt1B Pt1 1_555 1_555
Pt1B_2 Pt1 1_555 1_555
C6 C7 1_555 1_555
C8 N4 1_555 1_555
C12 N4 1_555 1_555

#END
