
#######################################################################
#
#                 Cambridge Crystallographic Data Centre
#                                CCDC 
#
#######################################################################
#
# If this CIF has been generated from an entry in the Cambridge 
# Structural Database, then it will include bibliographic, chemical, 
# crystal, experimental, refinement or atomic coordinate data resulting 
# from the CCDC's data processing and validation procedures.
#
#######################################################################

data_RINRUD
_symmetry_cell_setting           hexagonal
_symmetry_space_group_name_H-M   'P 63/m'
_symmetry_Int_Tables_number      176
_space_group_name_Hall           '-P 6c'
loop_
_symmetry_equiv_pos_site_id
_symmetry_equiv_pos_as_xyz
1 x,y,z
2 x-y,x,1/2+z
3 -y,x-y,z
4 -x,-y,1/2+z
5 -x+y,-x,z
6 y,-x+y,1/2+z
7 -x,-y,-z
8 -x+y,-x,1/2-z
9 y,-x+y,-z
10 x,y,1/2-z
11 x-y,x,-z
12 -y,x-y,1/2-z
_cell_length_a                   13.3014(3)
_cell_length_b                   13.3014(3)
_cell_length_c                   5.9918(2)
_cell_angle_alpha                90
_cell_angle_beta                 90
_cell_angle_gamma                120
_cell_volume                     918.084
loop_
_atom_site_label
_atom_site_type_symbol
_atom_site_fract_x
_atom_site_fract_y
_atom_site_fract_z
Cl1 Cl -0.3333 0.3333 0.7500
O2 O -0.3283(10) 0.2269(9) 0.7500
O3 O -0.3333 0.3333 0.522(3)
O2B O -0.2269(9) 0.4448(13) 0.7500
O2D O -0.4448(13) 0.3283(10) 0.7500
O3G O -0.3334 0.3333 0.978(3)
Ag1 Ag 0.0000 0.0000 0.5000
O1 O -0.0713(3) 0.0997(3) 0.7500
N1 N -0.0132(5) 0.2150(4) 0.7500
C1 C -0.0756(8) 0.2705(6) 0.7500
H1 H -0.1580 0.2267 0.7500
C2 C -0.0207(10) 0.3882(7) 0.7500
H2 H -0.0642 0.4271 0.7500
C3 C 0.0972(12) 0.4500(7) 0.7500
H3 H 0.1361 0.5324 0.7500
C4 C 0.1618(8) 0.3932(6) 0.7500
H4 H 0.2442 0.4362 0.7500
C5 C 0.1029(6) 0.2731(5) 0.7500
H5 H 0.1446 0.2323 0.7500
O1B O -0.0997(3) -0.1710(4) 0.7500
N1B N -0.2150(4) -0.2282(6) 0.7500
C1B C -0.2705(6) -0.3461(10) 0.7500
H1B H -0.2267 -0.3847 0.7500
C2B C -0.3882(7) -0.4089(12) 0.7500
H2B H -0.4271 -0.4913 0.7500
C3B C -0.4500(7) -0.3528(14) 0.7500
H3B H -0.5324 -0.3963 0.7500
C4B C -0.3932(6) -0.2314(10) 0.7500
H4B H -0.4362 -0.1920 0.7500
C5B C -0.2731(5) -0.1702(8) 0.7500
H5B H -0.2323 -0.0877 0.7500
O1D O 0.1710(4) 0.0713(3) 0.7500
N1D N 0.2282(6) 0.0132(5) 0.7500
C1D C 0.3461(10) 0.0756(8) 0.7500
H1D H 0.3847 0.1580 0.7500
C2D C 0.4089(12) 0.0207(10) 0.7500
H2D H 0.4913 0.0642 0.7500
C3D C 0.3528(14) -0.0972(12) 0.7500
H3D H 0.3963 -0.1361 0.7500
C4D C 0.2314(10) -0.1618(8) 0.7500
H4D H 0.1920 -0.2442 0.7500
C5D C 0.1702(8) -0.1029(6) 0.7500
H5D H 0.0877 -0.1446 0.7500
Ag1A Ag 0.0000 0.0000 0.0000
Ag1A_2 Ag 0.0000 0.0000 1.0000
O1A O -0.1710(4) -0.0713(3) 0.2500
O1C O 0.0713(3) -0.0997(3) 0.2500
O1E O 0.0997(3) 0.1710(4) 0.2500
loop_
_geom_bond_atom_site_label_1
_geom_bond_atom_site_label_2
_geom_bond_site_symmetry_1
_geom_bond_site_symmetry_2
Ag1 O1 1_555 1_555
O1 N1 1_555 1_555
N1 C1 1_555 1_555
C1 H1 1_555 1_555
C2 C1 1_555 1_555
H2 C2 1_555 1_555
C3 C2 1_555 1_555
H3 C3 1_555 1_555
C4 C3 1_555 1_555
H4 C4 1_555 1_555
C5 N1 1_555 1_555
H5 C5 1_555 1_555
Cl1 O2 1_555 1_555
O3 Cl1 1_555 1_555
O1B Ag1 1_555 1_555
N1B O1B 1_555 1_555
C1B N1B 1_555 1_555
H1B C1B 1_555 1_555
C2B C1B 1_555 1_555
H2B C2B 1_555 1_555
C3B C2B 1_555 1_555
H3B C3B 1_555 1_555
C4B C3B 1_555 1_555
H4B C4B 1_555 1_555
C5B N1B 1_555 1_555
H5B C5B 1_555 1_555
O1D Ag1 1_555 1_555
N1D O1D 1_555 1_555
C1D N1D 1_555 1_555
H1D C1D 1_555 1_555
C2D C1D 1_555 1_555
H2D C2D 1_555 1_555
C3D C2D 1_555 1_555
H3D C3D 1_555 1_555
C4D C3D 1_555 1_555
H4D C4D 1_555 1_555
C5D N1D 1_555 1_555
H5D C5D 1_555 1_555
Ag1A Ag1 1_555 1_555
Ag1A_2 Ag1 1_555 1_555
O1A Ag1 1_555 1_555
O1C Ag1 1_555 1_555
O1E Ag1 1_555 1_555
O2B Cl1 1_555 1_555
O2D Cl1 1_555 1_555
O3G Cl1 1_555 1_555
O1 Ag1A_2 1_555 1_555
C4 C5 1_555 1_555
O1B Ag1A_2 1_555 1_555
C4B C5B 1_555 1_555
O1D Ag1A_2 1_555 1_555
C4D C5D 1_555 1_555
Ag1A O1A 1_555 1_555
Ag1A O1C 1_555 1_555
Ag1A O1E 1_555 1_555

#END
