
#######################################################################
#
#                 Cambridge Crystallographic Data Centre
#                                CCDC 
#
#######################################################################
#
# If this CIF has been generated from an entry in the Cambridge 
# Structural Database, then it will include bibliographic, chemical, 
# crystal, experimental, refinement or atomic coordinate data resulting 
# from the CCDC's data processing and validation procedures.
#
#######################################################################

data_RINRIR
_symmetry_cell_setting           triclinic
_symmetry_space_group_name_H-M   'P -1'
_symmetry_Int_Tables_number      2
_space_group_name_Hall           '-P 1'
loop_
_symmetry_equiv_pos_site_id
_symmetry_equiv_pos_as_xyz
1 x,y,z
2 -x,-y,-z
_cell_length_a                   7.3920(2)
_cell_length_b                   10.7920(3)
_cell_length_c                   11.6410(4)
_cell_angle_alpha                80.2860(10)
_cell_angle_beta                 88.2720(10)
_cell_angle_gamma                77.0800(10)
_cell_volume                     892.139
loop_
_atom_site_label
_atom_site_type_symbol
_atom_site_fract_x
_atom_site_fract_y
_atom_site_fract_z
Ag1 Ag 0.081289(19) 0.810659(13) 0.025840(12)
Ag2 Ag 0.5000 0.5000 0.0000
O1 O -0.21940(18) 0.83699(12) 0.10017(10)
O2 O 0.21752(17) 0.63894(12) -0.08557(10)
O3 O 0.3326(2) 0.90657(14) 0.00146(14)
N1 N -0.23151(19) 0.80841(13) 0.21697(12)
N2 N 0.23150(18) 0.67777(13) -0.20121(12)
C1 C -0.1549(2) 0.87327(16) 0.28416(16)
H1 H -0.0912 0.9372 0.2491
C2 C -0.1687(3) 0.84705(18) 0.40367(16)
H2 H -0.1164 0.8938 0.4510
C3 C -0.2592(3) 0.75236(19) 0.45470(16)
H3 H -0.2683 0.7327 0.5370
C4 C -0.3361(3) 0.68670(18) 0.38303(17)
H4 H -0.3986 0.6214 0.4162
C5 C -0.3217(2) 0.71661(17) 0.26349(16)
H5 H -0.3752 0.6725 0.2142
C6 C 0.1552(2) 0.62080(16) -0.27600(16)
H6 H 0.0902 0.5555 -0.2470
C7 C 0.1713(3) 0.65732(18) -0.39451(16)
H7 H 0.1191 0.6163 -0.4471
C8 C 0.2636(3) 0.75383(18) -0.43687(16)
H8 H 0.2746 0.7802 -0.5184
C9 C 0.3397(3) 0.81127(17) -0.35768(16)
H9 H 0.4035 0.8777 -0.3850
C10 C 0.3229(2) 0.77196(16) -0.23921(15)
H10 H 0.3752 0.8109 -0.1850
H11 H 0.362(4) 0.912(3) 0.063(3)
H12 H 0.303(6) 0.979(4) -0.034(4)
Ag3 Ag 0.0000 0.5000 0.0000
O4 O 0.28567(19) 0.34048(13) 0.03046(13)
H13 H 0.281(4) 0.307(3) 0.098(3)
H14 H 0.280(4) 0.289(3) -0.007(3)
Cl1 Cl -0.23113(5) 0.92652(4) -0.25352(3)
O5 O -0.09221(19) 0.92389(14) -0.16740(12)
O6 O -0.4065(2) 0.99944(16) -0.22004(16)
O7 O -0.1762(3) 0.98335(16) -0.36508(13)
O8 O -0.2469(2) 0.79585(13) -0.25710(13)
Cl2 Cl 0.24501(5) 0.58447(4) 0.25636(3)
O9 O 0.4192(2) 0.51537(15) 0.21601(14)
O10 O 0.2004(3) 0.5219(2) 0.36764(14)
O11 O 0.2550(2) 0.71477(15) 0.25999(18)
O12 O 0.0987(2) 0.58863(15) 0.17401(13)
Ag1A Ag -0.081289(19) 0.189341(13) -0.025840(12)
O1A O 0.21940(18) 0.16301(12) -0.10017(10)
O2A O -0.21752(17) 0.36106(12) 0.08557(10)
O3A O -0.3326(2) 0.09343(14) -0.00146(14)
N1A N 0.23151(19) 0.19159(13) -0.21697(12)
N2A N -0.23150(18) 0.32223(13) 0.20121(12)
C1A C 0.1549(2) 0.12673(16) -0.28416(16)
H1A H 0.0912 0.0628 -0.2491
C2A C 0.1687(3) 0.15295(18) -0.40367(16)
H2A H 0.1164 0.1062 -0.4510
C3A C 0.2592(3) 0.24764(19) -0.45470(16)
H3A H 0.2683 0.2673 -0.5370
C4A C 0.3361(3) 0.31330(18) -0.38303(17)
H4A H 0.3986 0.3786 -0.4162
C5A C 0.3217(2) 0.28339(17) -0.26349(16)
H5A H 0.3752 0.3275 -0.2142
C6A C -0.1552(2) 0.37920(16) 0.27600(16)
H6A H -0.0902 0.4445 0.2470
C7A C -0.1713(3) 0.34268(18) 0.39451(16)
H7A H -0.1191 0.3837 0.4471
C8A C -0.2636(3) 0.24617(18) 0.43687(16)
H8A H -0.2746 0.2198 0.5184
C9A C -0.3397(3) 0.18873(17) 0.35768(16)
H9A H -0.4035 0.1223 0.3850
C10A C -0.3229(2) 0.22804(16) 0.23921(15)
H10A H -0.3752 0.1891 0.1850
H11A H -0.362(4) 0.088(3) -0.063(3)
H12A H -0.303(6) 0.021(4) 0.034(4)
O4A O -0.28567(19) 0.65952(13) -0.03046(13)
H13A H -0.281(4) 0.693(3) -0.098(3)
H14A H -0.280(4) 0.711(3) 0.007(3)
Cl1A Cl 0.23113(5) 0.07348(4) 0.25352(3)
O5A O 0.09221(19) 0.07611(14) 0.16740(12)
O6A O 0.4065(2) 0.00056(16) 0.22004(16)
O7A O 0.1762(3) 0.01665(16) 0.36508(13)
O8A O 0.2469(2) 0.20415(13) 0.25710(13)
Cl2A Cl -0.24501(5) 0.41553(4) -0.25636(3)
O9A O -0.4192(2) 0.48463(15) -0.21601(14)
O10A O -0.2004(3) 0.4781(2) -0.36764(14)
O11A O -0.2550(2) 0.28523(15) -0.25999(18)
O12A O -0.0987(2) 0.41137(15) -0.17401(13)
Ag2_2 Ag -0.5000 0.5000 0.0000
O2A_2 O 0.78248(17) 0.36106(12) 0.08557(10)
O4A_2 O 0.71433(19) 0.65952(13) -0.03046(13)
O9A_2 O 0.5808(2) 0.48463(15) -0.21601(14)
loop_
_geom_bond_atom_site_label_1
_geom_bond_atom_site_label_2
_geom_bond_site_symmetry_1
_geom_bond_site_symmetry_2
Ag1 O1 1_555 1_555
Ag2 O2 1_555 1_555
O1 N1 1_555 1_555
O2 Ag1 1_555 1_555
O3 Ag1 1_555 1_555
N1 C1 1_555 1_555
N2 O2 1_555 1_555
C1 H1 1_555 1_555
C2 C1 1_555 1_555
H2 C2 1_555 1_555
C3 C2 1_555 1_555
H3 C3 1_555 1_555
C4 C3 1_555 1_555
H4 C4 1_555 1_555
C5 N1 1_555 1_555
H5 C5 1_555 1_555
C6 N2 1_555 1_555
H6 C6 1_555 1_555
C7 C6 1_555 1_555
H7 C7 1_555 1_555
C8 C7 1_555 1_555
H8 C8 1_555 1_555
C9 C8 1_555 1_555
H9 C9 1_555 1_555
C10 N2 1_555 1_555
H10 C10 1_555 1_555
H11 O3 1_555 1_555
H12 O3 1_555 1_555
Ag3 O2 1_555 1_555
O4 Ag2 1_555 1_555
H13 O4 1_555 1_555
H14 O4 1_555 1_555
Cl1 O5 1_555 1_555
O5 Ag1 1_555 1_555
O6 Cl1 1_555 1_555
O7 Cl1 1_555 1_555
O8 Cl1 1_555 1_555
Cl2 O9 1_555 1_555
O9 Ag2 1_555 1_555
O10 Cl2 1_555 1_555
O11 Cl2 1_555 1_555
O12 Ag3 1_555 1_555
Ag1A O1A 1_555 1_555
O1A N1A 1_555 1_555
O2A Ag3 1_555 1_555
O3A Ag1A 1_555 1_555
N1A C1A 1_555 1_555
N2A O2A 1_555 1_555
C1A H1A 1_555 1_555
C2A C1A 1_555 1_555
H2A C2A 1_555 1_555
C3A C2A 1_555 1_555
H3A C3A 1_555 1_555
C4A C3A 1_555 1_555
H4A C4A 1_555 1_555
C5A N1A 1_555 1_555
H5A C5A 1_555 1_555
C6A N2A 1_555 1_555
H6A C6A 1_555 1_555
C7A C6A 1_555 1_555
H7A C7A 1_555 1_555
C8A C7A 1_555 1_555
H8A C8A 1_555 1_555
C9A C8A 1_555 1_555
H9A C9A 1_555 1_555
C10A N2A 1_555 1_555
H10A C10A 1_555 1_555
H11A O3A 1_555 1_555
H12A O3A 1_555 1_555
O4A Ag3 1_555 1_555
H13A O4A 1_555 1_555
H14A O4A 1_555 1_555
Cl1A O5A 1_555 1_555
O5A Ag1A 1_555 1_555
O6A Cl1A 1_555 1_555
O7A Cl1A 1_555 1_555
O8A Cl1A 1_555 1_555
Cl2A O9A 1_555 1_555
O9A Ag2_2 1_555 1_555
O10A Cl2A 1_555 1_555
O11A Cl2A 1_555 1_555
O12A Ag3 1_555 1_555
Ag2_2 O2A 1_555 1_555
O2A_2 Ag2 1_555 1_555
O4A_2 Ag2 1_555 1_555
O9A_2 Ag2 1_555 1_555
C4 C5 1_555 1_555
C9 C10 1_555 1_555
Ag3 O4 1_555 1_555
Cl2 O12 1_555 1_555
Ag1A O2A 1_555 1_555
C4A C5A 1_555 1_555
C9A C10A 1_555 1_555
O4A Ag2_2 1_555 1_555
Cl2A O12A 1_555 1_555

#END
