
#######################################################################
#
#                 Cambridge Crystallographic Data Centre
#                                CCDC 
#
#######################################################################
#
# If this CIF has been generated from an entry in the Cambridge 
# Structural Database, then it will include bibliographic, chemical, 
# crystal, experimental, refinement or atomic coordinate data resulting 
# from the CCDC's data processing and validation procedures.
#
#######################################################################

data_RINTUF
_symmetry_cell_setting           monoclinic
_symmetry_space_group_name_H-M   'P 21/c'
_symmetry_Int_Tables_number      14
_space_group_name_Hall           '-P 2ybc'
loop_
_symmetry_equiv_pos_site_id
_symmetry_equiv_pos_as_xyz
1 x,y,z
2 -x,1/2+y,1/2-z
3 -x,-y,-z
4 x,1/2-y,1/2+z
_cell_length_a                   12.3512(7)
_cell_length_b                   20.7502(12)
_cell_length_c                   18.8896(11)
_cell_angle_alpha                90
_cell_angle_beta                 90.7590(10)
_cell_angle_gamma                90
_cell_volume                     4840.79
loop_
_atom_site_label
_atom_site_type_symbol
_atom_site_fract_x
_atom_site_fract_y
_atom_site_fract_z
Dy1 Dy 0.283382(12) 0.610081(7) 0.279723(8)
Dy2 Dy 0.576134(12) 0.615105(7) 0.236698(8)
Dy3 Dy 0.936143(12) 0.576347(7) 0.214354(9)
O1 O 0.6706(2) 0.62036(13) 0.13266(14)
O2 O 0.8255(2) 0.56973(18) 0.11911(17)
O3 O 0.4702(2) 0.48233(12) -0.17609(15)
O4 O 0.5967(2) 0.40809(12) -0.17389(13)
O5 O 1.0027(3) 0.57285(19) 0.32448(18)
O6 O 1.1725(3) 0.55231(16) 0.35667(17)
O7 O 1.0652(2) 0.50534(13) 0.19077(19)
O8 O 1.2370(2) 0.51530(12) 0.22454(15)
O9 O 1.1186(2) 0.17511(14) 0.2512(2)
O10 O 1.2911(2) 0.18418(12) 0.22485(15)
O11 O 0.5298(2) 0.72287(12) 0.18543(15)
O12 O 0.42094(19) 0.69049(11) 0.26912(13)
O13 O 0.2977(3) 1.03688(12) 0.22844(18)
O14 O 0.1537(3) 0.98269(16) 0.2587(2)
O15 O 0.44335(19) 0.55848(11) 0.31899(13)
O16 O 0.5765(2) 0.61585(14) 0.36437(14)
O17 O 0.3202(2) 0.64657(14) 0.40219(15)
O18 O 0.1862(2) 0.69079(13) 0.34192(14)
O19 O 0.0343(3) 0.86424(17) 0.63735(19)
O20 O 0.1857(3) 0.83926(15) 0.69388(15)
C1 C 0.6918(3) 0.55430(19) 0.0310(2)
C2 C 0.7450(3) 0.5019(2) 0.0017(2)
H1 H 0.8092 0.4871 0.0222
C3 C 0.7027(3) 0.4718(2) -0.0575(2)
H2 H 0.7370 0.4357 -0.0759
C4 C 0.6094(3) 0.49519(17) -0.08986(19)
C5 C 0.5582(3) 0.54884(19) -0.0622(2)
H3 H 0.4964 0.5652 -0.0844
C6 C 0.5988(3) 0.57801(19) -0.0016(2)
H4 H 0.5637 0.6136 0.0173
C7 C 0.7323(3) 0.58358(19) 0.0989(2)
C8 C 0.5573(3) 0.46099(17) -0.15067(19)
C9 C 0.9283(4) 0.5073(3) 0.4445(2)
H5 H 0.8797 0.5124 0.4069
C10 C 1.0353(3) 0.5247(2) 0.4364(2)
C11 C 1.1071(3) 0.5175(3) 0.4922(2)
H6 H 1.1792 0.5294 0.4872
C12 C 1.0734(4) 0.5511(2) 0.3674(2)
C13 C 1.1667(3) 0.41059(17) 0.2105(2)
C14 C 1.0752(3) 0.37184(19) 0.2072(3)
H7 H 1.0074 0.3904 0.2000
C15 C 1.0845(3) 0.30536(19) 0.2145(3)
H8 H 1.0230 0.2795 0.2140
C16 C 1.1864(3) 0.27820(17) 0.2227(2)
C17 C 1.2776(3) 0.31693(18) 0.2239(3)
H9 H 1.3458 0.2983 0.2285
C18 C 1.2679(3) 0.38308(18) 0.2183(3)
H10 H 1.3293 0.4090 0.2197
C19 C 1.1559(3) 0.48245(16) 0.2080(2)
C20 C 1.1997(3) 0.20740(17) 0.2337(2)
C21 C 0.4053(3) 0.80038(17) 0.2308(2)
C22 C 0.4467(3) 0.85141(19) 0.1937(3)
H11 H 0.5069 0.8454 0.1654
C23 C 0.3992(3) 0.91206(18) 0.1979(3)
H12 H 0.4294 0.9465 0.1737
C24 C 0.3085(3) 0.92147(17) 0.2373(2)
C25 C 0.2664(4) 0.8700(2) 0.2739(3)
H13 H 0.2044 0.8757 0.3005
C26 C 0.3147(4) 0.8103(2) 0.2716(3)
H14 H 0.2862 0.7764 0.2976
C27 C 0.4543(3) 0.73436(16) 0.22708(19)
C28 C 0.2511(3) 0.98501(18) 0.2419(3)
C29 C 0.4175(3) 0.4932(2) 0.4505(2)
H15 H 0.3617 0.4887 0.4173
C30 C 0.5014(3) 0.53571(18) 0.43777(19)
C31 C 0.5838(3) 0.5424(2) 0.4881(2)
H16 H 0.6401 0.5712 0.4802
C32 C 0.5067(3) 0.57320(18) 0.37106(19)
C33 C 0.2118(3) 0.7243(2) 0.4616(2)
C34 C 0.1428(4) 0.7762(2) 0.4539(2)
H17 H 0.1152 0.7867 0.4093
C35 C 0.1144(4) 0.8126(2) 0.5120(2)
H18 H 0.0667 0.8470 0.5066
C36 C 0.1567(3) 0.7981(2) 0.5781(2)
C37 C 0.2269(4) 0.7467(3) 0.5859(2)
H19 H 0.2557 0.7367 0.6303
C38 C 0.2542(4) 0.7101(2) 0.5277(2)
H20 H 0.3015 0.6755 0.5331
C39 C 0.2417(3) 0.68460(19) 0.3981(2)
C40 C 0.1241(3) 0.83691(19) 0.6414(2)
O5B O 0.9973(3) 0.42715(19) 0.67552(18)
O6B O 0.8275(3) 0.44769(16) 0.64333(17)
C9B C 1.0717(4) 0.4927(3) 0.5555(2)
H5B H 1.1203 0.4876 0.5931
C10B C 0.9647(3) 0.4753(2) 0.5636(2)
C11B C 0.8929(3) 0.4825(3) 0.5078(2)
H6B H 0.8208 0.4706 0.5128
C12B C 0.9266(4) 0.4489(2) 0.6326(2)
O15B O 0.55665(19) 0.44152(11) 0.68101(13)
O16B O 0.4235(2) 0.38415(14) 0.63563(14)
C29B C 0.5825(3) 0.5068(2) 0.5495(2)
H15B H 0.6383 0.5113 0.5827
C30B C 0.4986(3) 0.46429(18) 0.56223(19)
C31B C 0.4162(3) 0.4576(2) 0.5119(2)
H16B H 0.3599 0.4288 0.5198
C32B C 0.4933(3) 0.42680(18) 0.62894(19)
Dy1B Dy 0.716618(12) 0.389919(7) -0.279723(8)
Dy2B Dy 0.423866(12) 0.384895(7) -0.236698(8)
Dy3B Dy 0.063857(12) 0.423653(7) -0.214354(9)
O1B O 0.3294(2) 0.37964(13) -0.13266(14)
O2B O 0.1745(2) 0.43027(18) -0.11911(17)
O3B O 0.5298(2) 0.51767(12) 0.17609(15)
O4B O 0.4033(2) 0.59191(12) 0.17389(13)
O7B O -0.0652(2) 0.49466(13) -0.19077(19)
O8B O -0.2370(2) 0.48470(12) -0.22454(15)
O9B O -0.1186(2) 0.82489(14) -0.2512(2)
O10B O -0.2911(2) 0.81582(12) -0.22485(15)
O11B O 0.4702(2) 0.27713(12) -0.18543(15)
O12B O 0.57906(19) 0.30951(11) -0.26912(13)
O13B O 0.7023(3) -0.03688(12) -0.22844(18)
O14B O 0.8463(3) 0.01731(16) -0.2587(2)
O17B O 0.6798(2) 0.35343(14) -0.40219(15)
O18B O 0.8138(2) 0.30921(13) -0.34192(14)
O19B O 0.9657(3) 0.13576(17) -0.63735(19)
O20B O 0.8143(3) 0.16074(15) -0.69388(15)
C1B C 0.3082(3) 0.44570(19) -0.0310(2)
C2B C 0.2550(3) 0.4981(2) -0.0017(2)
H1B H 0.1908 0.5129 -0.0222
C3B C 0.2973(3) 0.5282(2) 0.0575(2)
H2B H 0.2630 0.5643 0.0759
C4B C 0.3906(3) 0.50481(17) 0.08986(19)
C5B C 0.4418(3) 0.45116(19) 0.0622(2)
H3B H 0.5036 0.4348 0.0844
C6B C 0.4012(3) 0.42199(19) 0.0016(2)
H4B H 0.4363 0.3864 -0.0173
C7B C 0.2677(3) 0.41642(19) -0.0989(2)
C8B C 0.4427(3) 0.53901(17) 0.15067(19)
C13B C -0.1667(3) 0.58941(17) -0.2105(2)
C14B C -0.0752(3) 0.62816(19) -0.2072(3)
H7B H -0.0074 0.6096 -0.2000
C15B C -0.0845(3) 0.69464(19) -0.2145(3)
H8B H -0.0230 0.7205 -0.2140
C16B C -0.1864(3) 0.72180(17) -0.2227(2)
C17B C -0.2776(3) 0.68307(18) -0.2239(3)
H9B H -0.3458 0.7017 -0.2285
C18B C -0.2679(3) 0.61692(18) -0.2183(3)
H10B H -0.3293 0.5910 -0.2197
C19B C -0.1559(3) 0.51755(16) -0.2080(2)
C20B C -0.1997(3) 0.79260(17) -0.2337(2)
C21B C 0.5947(3) 0.19962(17) -0.2308(2)
C22B C 0.5533(3) 0.14859(19) -0.1937(3)
H11B H 0.4931 0.1546 -0.1654
C23B C 0.6008(3) 0.08794(18) -0.1979(3)
H12B H 0.5706 0.0535 -0.1737
C24B C 0.6915(3) 0.07853(17) -0.2373(2)
C25B C 0.7336(4) 0.1300(2) -0.2739(3)
H13B H 0.7956 0.1243 -0.3005
C26B C 0.6853(4) 0.1897(2) -0.2716(3)
H14B H 0.7138 0.2236 -0.2976
C27B C 0.5457(3) 0.26564(16) -0.22708(19)
C28B C 0.7489(3) 0.01499(18) -0.2419(3)
C33B C 0.7882(3) 0.2757(2) -0.4616(2)
C34B C 0.8572(4) 0.2238(2) -0.4539(2)
H17B H 0.8848 0.2133 -0.4093
C35B C 0.8856(4) 0.1874(2) -0.5120(2)
H18B H 0.9333 0.1530 -0.5066
C36B C 0.8433(3) 0.2019(2) -0.5781(2)
C37B C 0.7731(4) 0.2533(3) -0.5859(2)
H19B H 0.7443 0.2633 -0.6303
C38B C 0.7458(4) 0.2899(2) -0.5277(2)
H20B H 0.6985 0.3245 -0.5331
C39B C 0.7583(3) 0.31540(19) -0.3981(2)
C40B C 0.8759(3) 0.16309(19) -0.6414(2)
Dy1_2 Dy 1.283382(12) 0.610081(7) 0.279723(8)
Dy1A Dy 0.716618(12) 0.110081(7) -0.779723(8)
Dy1B_2 Dy -0.283382(12) 0.389919(7) -0.279723(8)
Dy1B_3 Dy 0.716618(12) 0.389919(7) 0.720277(8)
Dy1C Dy 0.283382(12) 0.889919(7) 0.779723(8)
Dy2A Dy 0.423866(12) 1.115105(7) 0.263302(8)
Dy2A_2 Dy 1.423866(12) 0.115105(7) 0.263302(8)
Dy2B_2 Dy 0.423866(12) 0.384895(7) 0.763302(8)
Dy2C Dy -0.423866(12) 0.884895(7) -0.263302(8)
Dy2C_2 Dy 0.576134(12) -0.115105(7) -0.263302(8)
Dy3A Dy 0.063857(12) 1.076347(7) 0.285646(9)
Dy3A_2 Dy 1.063857(12) 0.076347(7) -0.714354(9)
Dy3A_3 Dy 1.063857(12) 0.076347(7) 0.285646(9)
Dy3B_2 Dy 1.063857(12) 0.423653(7) 0.785646(9)
Dy3C Dy -0.063857(12) 0.923653(7) -0.285646(9)
Dy3C_2 Dy -0.063857(12) 0.923653(7) 0.714354(9)
Dy3C_3 Dy 0.936143(12) -0.076347(7) -0.285646(9)
O5B_2 O -0.0027(3) 0.42715(19) -0.32448(18)
O6_2 O 0.1725(3) 0.55231(16) 0.35667(17)
O6B_2 O 0.8275(3) 0.44769(16) -0.35667(17)
O8_2 O 0.2370(2) 0.51530(12) 0.22454(15)
O8B_2 O 0.7630(2) 0.48470(12) -0.22454(15)
O9A O 0.8814(2) 0.67511(14) 0.2488(2)
O9C O 0.1186(2) 0.32489(14) -0.2488(2)
O10A O 0.7089(2) 0.68418(12) 0.27515(15)
O10C O 0.2911(2) 0.31582(12) -0.27515(15)
O13A O 0.7023(3) 0.53688(12) 0.27156(18)
O13C O 0.2977(3) 0.46312(12) -0.27156(18)
O14A O 0.8463(3) 0.48269(16) 0.2413(2)
O14C O 0.1537(3) 0.51731(16) -0.2413(2)
O15B_2 O 0.55665(19) 0.44152(11) -0.31899(13)
O16B_2 O 0.4235(2) 0.38415(14) -0.36437(14)
O19A O -0.0343(3) 0.36424(17) -0.13735(19)
O19C O 1.0343(3) 0.63576(17) 0.13735(19)
O20A O 0.8143(3) 0.33926(15) -0.19388(15)
O20C O 0.1857(3) 0.66074(15) 0.19388(15)
C41 C 0.7178(7) 0.7098(5) 0.4512(4)
H21 H 0.7011 0.6998 0.4043
C42 C 0.8175(8) 0.7052(5) 0.4802(5)
H22 H 0.8815 0.6908 0.4602
C43 C 0.6982(9) 0.7394(4) 0.5598(5)
H23 H 0.6689 0.7517 0.6029
C44 C 0.5370(14) 0.7347(6) 0.4968(7)
H24 H 0.5036 0.6924 0.4979
H25 H 0.5114 0.7599 0.5365
C45 C 0.5168(11) 0.7644(7) 0.4354(9)
H26 H 0.4401 0.7693 0.4289
H27 H 0.5454 0.7392 0.3974
H28 H 0.5505 0.8061 0.4359
C46 C 0.9095(12) 0.6962(11) 0.5950(7)
H29 H 0.9021 0.7082 0.6437
H30 H 0.9758 0.7135 0.5771
H31 H 0.9108 0.6500 0.5912
N1 N 0.6467(6) 0.7303(3) 0.4976(4)
N2 N 0.7997(9) 0.7268(4) 0.5455(5)
loop_
_geom_bond_atom_site_label_1
_geom_bond_atom_site_label_2
_geom_bond_site_symmetry_1
_geom_bond_site_symmetry_2
Dy1 O12 1_555 1_555
Dy2 O1 1_555 1_555
Dy3 O2 1_555 1_555
O1 C7 1_555 1_555
O2 C7 1_555 1_555
O3 C8 1_555 1_555
O4 C8 1_555 1_555
O5 Dy3 1_555 1_555
O6 C12 1_555 1_555
O7 Dy3 1_555 1_555
O8 C19 1_555 1_555
O9 C20 1_555 1_555
O10 C20 1_555 1_555
O11 Dy2 1_555 1_555
O12 Dy2 1_555 1_555
O13 C28 1_555 1_555
O14 C28 1_555 1_555
O15 Dy1 1_555 1_555
O16 Dy2 1_555 1_555
O17 Dy1 1_555 1_555
O18 Dy1 1_555 1_555
O19 C40 1_555 1_555
O20 C40 1_555 1_555
C1 C2 1_555 1_555
C2 H1 1_555 1_555
C3 C2 1_555 1_555
H2 C3 1_555 1_555
C4 C3 1_555 1_555
C5 C4 1_555 1_555
H3 C5 1_555 1_555
C6 C1 1_555 1_555
H4 C6 1_555 1_555
C7 C1 1_555 1_555
C8 C4 1_555 1_555
C9 H5 1_555 1_555
C10 C9 1_555 1_555
C11 C10 1_555 1_555
H6 C11 1_555 1_555
C12 O5 1_555 1_555
C13 C14 1_555 1_555
C14 H7 1_555 1_555
C15 C14 1_555 1_555
H8 C15 1_555 1_555
C16 C15 1_555 1_555
C17 C16 1_555 1_555
H9 C17 1_555 1_555
C18 C13 1_555 1_555
H10 C18 1_555 1_555
C19 O7 1_555 1_555
C20 C16 1_555 1_555
C21 C22 1_555 1_555
C22 H11 1_555 1_555
C23 C22 1_555 1_555
H12 C23 1_555 1_555
C24 C23 1_555 1_555
C25 C24 1_555 1_555
H13 C25 1_555 1_555
C26 C21 1_555 1_555
H14 C26 1_555 1_555
C27 O11 1_555 1_555
C28 C24 1_555 1_555
C29 H15 1_555 1_555
C30 C29 1_555 1_555
C31 C30 1_555 1_555
H16 C31 1_555 1_555
C32 O15 1_555 1_555
C33 C34 1_555 1_555
C34 H17 1_555 1_555
C35 C34 1_555 1_555
H18 C35 1_555 1_555
C36 C35 1_555 1_555
C37 C36 1_555 1_555
H19 C37 1_555 1_555
C38 C33 1_555 1_555
H20 C38 1_555 1_555
C39 O17 1_555 1_555
C40 C36 1_555 1_555
C41 H21 1_555 1_555
C42 C41 1_555 1_555
H22 C42 1_555 1_555
C43 H23 1_555 1_555
C44 H24 1_555 1_555
H25 C44 1_555 1_555
C45 C44 1_555 1_555
H26 C45 1_555 1_555
H27 C45 1_555 1_555
H28 C45 1_555 1_555
C46 H29 1_555 1_555
H30 C46 1_555 1_555
H31 C46 1_555 1_555
N1 C41 1_555 1_555
N2 C42 1_555 1_555
O5B C12B 1_555 1_555
O6B C12B 1_555 1_555
C9B C11 1_555 1_555
H5B C9B 1_555 1_555
C10B C9B 1_555 1_555
C11B C9 1_555 1_555
H6B C11B 1_555 1_555
C12B C10B 1_555 1_555
O15B C32B 1_555 1_555
O16B C32B 1_555 1_555
C29B C31 1_555 1_555
H15B C29B 1_555 1_555
C30B C29B 1_555 1_555
C31B C29 1_555 1_555
H16B C31B 1_555 1_555
C32B C30B 1_555 1_555
Dy1B O4 1_555 1_555
Dy2B O3 1_555 1_555
Dy3B O2B 1_555 1_555
O1B Dy2B 1_555 1_555
O2B C7B 1_555 1_555
O3B Dy2 1_555 1_555
O4B Dy1 1_555 1_555
O7B Dy3B 1_555 1_555
O8B C19B 1_555 1_555
O9B C20B 1_555 1_555
O10B C20B 1_555 1_555
O11B Dy2B 1_555 1_555
O12B Dy1B 1_555 1_555
O13B C28B 1_555 1_555
O14B C28B 1_555 1_555
O17B Dy1B 1_555 1_555
O18B Dy1B 1_555 1_555
O19B C40B 1_555 1_555
O20B C40B 1_555 1_555
C1B C2B 1_555 1_555
C2B H1B 1_555 1_555
C3B C2B 1_555 1_555
H2B C3B 1_555 1_555
C4B C3B 1_555 1_555
C5B C4B 1_555 1_555
H3B C5B 1_555 1_555
C6B C1B 1_555 1_555
H4B C6B 1_555 1_555
C7B O1B 1_555 1_555
C8B O3B 1_555 1_555
C13B C14B 1_555 1_555
C14B H7B 1_555 1_555
C15B C14B 1_555 1_555
H8B C15B 1_555 1_555
C16B C15B 1_555 1_555
C17B C16B 1_555 1_555
H9B C17B 1_555 1_555
C18B C13B 1_555 1_555
H10B C18B 1_555 1_555
C19B O7B 1_555 1_555
C20B C16B 1_555 1_555
C21B C22B 1_555 1_555
C22B H11B 1_555 1_555
C23B C22B 1_555 1_555
H12B C23B 1_555 1_555
C24B C23B 1_555 1_555
C25B C24B 1_555 1_555
H13B C25B 1_555 1_555
C26B C21B 1_555 1_555
H14B C26B 1_555 1_555
C27B O11B 1_555 1_555
C28B C24B 1_555 1_555
C33B C34B 1_555 1_555
C34B H17B 1_555 1_555
C35B C34B 1_555 1_555
H18B C35B 1_555 1_555
C36B C35B 1_555 1_555
C37B C36B 1_555 1_555
H19B C37B 1_555 1_555
C38B C33B 1_555 1_555
H20B C38B 1_555 1_555
C39B O17B 1_555 1_555
C40B C36B 1_555 1_555
Dy1_2 O6 1_555 1_555
Dy1A O20B 1_555 1_555
Dy1B_2 O8B 1_555 1_555
Dy1B_3 O6B 1_555 1_555
Dy1C O20 1_555 1_555
Dy2A O13 1_555 1_555
Dy2A_2 O10 1_555 1_555
Dy2B_2 O15B 1_555 1_555
Dy2C O10B 1_555 1_555
Dy2C_2 O13B 1_555 1_555
Dy3A O14 1_555 1_555
Dy3A_2 O19B 1_555 1_555
Dy3A_3 O9 1_555 1_555
Dy3B_2 O5B 1_555 1_555
Dy3C O9B 1_555 1_555
Dy3C_2 O19 1_555 1_555
Dy3C_3 O14B 1_555 1_555
O5B_2 Dy3B 1_555 1_555
O6_2 Dy1 1_555 1_555
O6B_2 Dy1B 1_555 1_555
O8_2 Dy1 1_555 1_555
O8B_2 Dy1B 1_555 1_555
O9A Dy3 1_555 1_555
O9C Dy3B 1_555 1_555
O10A Dy2 1_555 1_555
O10C Dy2B 1_555 1_555
O13A Dy2 1_555 1_555
O13C Dy2B 1_555 1_555
O14A Dy3 1_555 1_555
O14C Dy3B 1_555 1_555
O15B_2 Dy1B 1_555 1_555
O16B_2 Dy2B 1_555 1_555
O19A Dy3B 1_555 1_555
O19C Dy3 1_555 1_555
O20A Dy1B 1_555 1_555
O20C Dy1 1_555 1_555
Dy2 O15 1_555 1_555
Dy2 O4B 1_555 1_555
O4 Dy2B 1_555 1_555
O8 Dy1_2 1_555 1_555
O12 C27 1_555 1_555
O16 C32 1_555 1_555
O18 C39 1_555 1_555
C5 C6 1_555 1_555
C10 C12 1_555 1_555
C13 C19 1_555 1_555
C17 C18 1_555 1_555
C21 C27 1_555 1_555
C25 C26 1_555 1_555
C30 C32 1_555 1_555
C33 C39 1_555 1_555
C37 C38 1_555 1_555
C43 N1 1_555 1_555
C43 N2 1_555 1_555
C44 N1 1_555 1_555
C46 N2 1_555 1_555
C10B C11B 1_555 1_555
O15B Dy1B_3 1_555 1_555
O16B Dy2B_2 1_555 1_555
C30B C31B 1_555 1_555
Dy2B O12B 1_555 1_555
Dy2B O15B_2 1_555 1_555
O4B C8B 1_555 1_555
O12B C27B 1_555 1_555
O18B C39B 1_555 1_555
C1B C7B 1_555 1_555
C4B C8B 1_555 1_555
C5B C6B 1_555 1_555
C13B C19B 1_555 1_555
C17B C18B 1_555 1_555
C21B C27B 1_555 1_555
C25B C26B 1_555 1_555
C33B C39B 1_555 1_555
C37B C38B 1_555 1_555

#END
