
#######################################################################
#
#                 Cambridge Crystallographic Data Centre
#                                CCDC 
#
#######################################################################
#
# If this CIF has been generated from an entry in the Cambridge 
# Structural Database, then it will include bibliographic, chemical, 
# crystal, experimental, refinement or atomic coordinate data resulting 
# from the CCDC's data processing and validation procedures.
#
#######################################################################

data_RINVOB
_symmetry_cell_setting           orthorhombic
_symmetry_space_group_name_H-M   'P b c m'
_symmetry_Int_Tables_number      57
_space_group_name_Hall           '-P 2c 2b'
loop_
_symmetry_equiv_pos_site_id
_symmetry_equiv_pos_as_xyz
1 x,y,z
2 -x,-y,1/2+z
3 -x,1/2+y,1/2-z
4 x,1/2-y,-z
5 -x,-y,-z
6 x,y,1/2-z
7 x,1/2-y,1/2+z
8 -x,1/2+y,z
_cell_length_a                   7.3538(15)
_cell_length_b                   20.422(4)
_cell_length_c                   17.188(3)
_cell_angle_alpha                90
_cell_angle_beta                 90
_cell_angle_gamma                90
_cell_volume                     2581.28
loop_
_atom_site_label
_atom_site_type_symbol
_atom_site_fract_x
_atom_site_fract_y
_atom_site_fract_z
Zn1 Zn 0.42527(9) 0.2500 0.5000
N1 N 0.5846(5) 0.3317(2) 0.4869(2)
N2 N 0.7850(5) 0.40567(15) 0.45263(18)
C1 C 0.1898(6) 0.3096(2) 0.6018(2)
C2 C 0.1081(6) 0.3280(2) 0.6795(2)
C3 C 0.1836(7) 0.3086(3) 0.7500
H1 H 0.2866 0.2821 0.7500
C4 C -0.0472(6) 0.3666(3) 0.6808(3)
H2 H -0.1003 0.3798 0.6343
C5 C -0.1224(10) 0.3853(4) 0.7500
H3 H -0.2264 0.4112 0.7500
C6 C 0.5569(6) 0.3871(2) 0.5300(3)
H4 H 0.4671 0.3923 0.5676
C7 C 0.6788(7) 0.4325(2) 0.5098(3)
H5 H 0.6896 0.4744 0.5306
C8 C 0.7260(6) 0.34395(18) 0.4410(2)
C9 C 0.8089(8) 0.2958(2) 0.3872(3)
H6 H 0.7575 0.2533 0.3966
H7 H 0.9378 0.2942 0.3957
H8 H 0.7849 0.3086 0.3344
C10 C 0.9477(6) 0.4370(2) 0.4193(2)
H9 H 1.0544 0.4137 0.4376
H10 H 0.9553 0.4815 0.4390
C11 C 0.9532(6) 0.4394(2) 0.3311(2)
C12 C 0.8153(6) 0.47162(19) 0.2904(2)
C13 C 0.6706(7) 0.5097(2) 0.3343(3)
H11 H 0.6343 0.5471 0.3042
H12 H 0.7189 0.5241 0.3833
H13 H 0.5671 0.4821 0.3433
C14 C 1.1019(6) 0.41167(19) 0.2910(3)
C15 C 1.2603(7) 0.3806(3) 0.3340(3)
H14 H 1.2449 0.3340 0.3351
H15 H 1.2644 0.3971 0.3863
H16 H 1.3719 0.3912 0.3078
O1 O 0.1338(5) 0.3355(2) 0.54199(18)
O2 O 0.3204(5) 0.26840(17) 0.60341(17)
N1E N 0.5846(5) 0.3317(2) 0.0131(2)
N2E N 0.7850(5) 0.40567(15) 0.04737(18)
C6E C 0.5569(6) 0.3871(2) -0.0300(3)
H4E H 0.4671 0.3923 -0.0676
C7E C 0.6788(7) 0.4325(2) -0.0098(3)
H5E H 0.6896 0.4744 -0.0306
C8E C 0.7260(6) 0.34395(18) 0.0590(2)
C9E C 0.8089(8) 0.2958(2) 0.1128(3)
H6E H 0.7575 0.2533 0.1034
H7E H 0.9378 0.2942 0.1043
H8E H 0.7849 0.3086 0.1656
C10E C 0.9477(6) 0.4370(2) 0.0807(2)
H9E H 1.0544 0.4137 0.0624
H10E H 0.9553 0.4815 0.0610
C11E C 0.9532(6) 0.4394(2) 0.1689(2)
C12E C 0.8153(6) 0.47162(19) 0.2096(2)
C13E C 0.6706(7) 0.5097(2) 0.1657(3)
H11E H 0.6343 0.5471 0.1958
H12E H 0.7189 0.5241 0.1167
H13E H 0.5671 0.4821 0.1567
C14E C 1.1019(6) 0.41167(19) 0.2090(3)
C15E C 1.2603(7) 0.3806(3) 0.1660(3)
H14E H 1.2449 0.3340 0.1649
H15E H 1.2644 0.3971 0.1137
H16E H 1.3719 0.3912 0.1922
C1E C 0.1898(6) 0.3096(2) 0.8982(2)
C2E C 0.1081(6) 0.3280(2) 0.8205(2)
C4E C -0.0472(6) 0.3666(3) 0.8192(3)
H2E H -0.1003 0.3798 0.8657
O1E O 0.1338(5) 0.3355(2) 0.95801(18)
O2E O 0.3204(5) 0.26840(17) 0.89659(17)
Zn1E Zn 0.42527(9) 0.2500 0.0000
Zn1E_2 Zn 0.42527(9) 0.2500 1.0000
N1C N 0.5846(5) 0.1683(2) 0.5131(2)
O2C O 0.3204(5) 0.23160(17) 0.39659(17)
loop_
_geom_bond_atom_site_label_1
_geom_bond_atom_site_label_2
_geom_bond_site_symmetry_1
_geom_bond_site_symmetry_2
Zn1 N1 1_555 1_555
N1 C6 1_555 1_555
N2 C7 1_555 1_555
C1 C2 1_555 1_555
C2 C3 1_555 1_555
C3 H1 1_555 1_555
C4 C2 1_555 1_555
H2 C4 1_555 1_555
C5 C4 1_555 1_555
H3 C5 1_555 1_555
C6 H4 1_555 1_555
C7 C6 1_555 1_555
H5 C7 1_555 1_555
C8 N1 1_555 1_555
C9 C8 1_555 1_555
H6 C9 1_555 1_555
H7 C9 1_555 1_555
H8 C9 1_555 1_555
C10 N2 1_555 1_555
H9 C10 1_555 1_555
H10 C10 1_555 1_555
C11 C10 1_555 1_555
C12 C11 1_555 1_555
C13 C12 1_555 1_555
H11 C13 1_555 1_555
H12 C13 1_555 1_555
H13 C13 1_555 1_555
C14 C11 1_555 1_555
C15 C14 1_555 1_555
H14 C15 1_555 1_555
H15 C15 1_555 1_555
H16 C15 1_555 1_555
O1 C1 1_555 1_555
O2 Zn1 1_555 1_555
N1E C6E 1_555 1_555
N2E C7E 1_555 1_555
C6E H4E 1_555 1_555
C7E C6E 1_555 1_555
H5E C7E 1_555 1_555
C8E N1E 1_555 1_555
C9E C8E 1_555 1_555
H6E C9E 1_555 1_555
H7E C9E 1_555 1_555
H8E C9E 1_555 1_555
C10E N2E 1_555 1_555
H9E C10E 1_555 1_555
H10E C10E 1_555 1_555
C11E C10E 1_555 1_555
C12E C12 1_555 1_555
C13E C12E 1_555 1_555
H11E C13E 1_555 1_555
H12E C13E 1_555 1_555
H13E C13E 1_555 1_555
C14E C14 1_555 1_555
C15E C14E 1_555 1_555
H14E C15E 1_555 1_555
H15E C15E 1_555 1_555
H16E C15E 1_555 1_555
C1E C2E 1_555 1_555
C2E C3 1_555 1_555
C4E C5 1_555 1_555
H2E C4E 1_555 1_555
O1E C1E 1_555 1_555
O2E C1E 1_555 1_555
Zn1E N1E 1_555 1_555
Zn1E_2 O2E 1_555 1_555
N1C Zn1 1_555 1_555
O2C Zn1 1_555 1_555
N2 C8 1_555 1_555
C1 O2 1_555 1_555
N2E C8E 1_555 1_555
C11E C12E 1_555 1_555
C11E C14E 1_555 1_555
C2E C4E 1_555 1_555

#END
