
#######################################################################
#
#                 Cambridge Crystallographic Data Centre
#                                CCDC 
#
#######################################################################
#
# If this CIF has been generated from an entry in the Cambridge 
# Structural Database, then it will include bibliographic, chemical, 
# crystal, experimental, refinement or atomic coordinate data resulting 
# from the CCDC's data processing and validation procedures.
#
#######################################################################

data_RIPGED
_symmetry_cell_setting           monoclinic
_symmetry_space_group_name_H-M   'P 21/c'
_symmetry_Int_Tables_number      14
_space_group_name_Hall           '-P 2ybc'
loop_
_symmetry_equiv_pos_site_id
_symmetry_equiv_pos_as_xyz
1 x,y,z
2 -x,1/2+y,1/2-z
3 -x,-y,-z
4 x,1/2-y,1/2+z
_cell_length_a                   8.8368(18)
_cell_length_b                   14.529(3)
_cell_length_c                   15.467(3)
_cell_angle_alpha                90
_cell_angle_beta                 121.30(3)
_cell_angle_gamma                90
_cell_volume                     1696.79
loop_
_atom_site_label
_atom_site_type_symbol
_atom_site_fract_x
_atom_site_fract_y
_atom_site_fract_z
Nd1 Nd 0.75458(5) 0.50505(3) 0.50327(3)
C1 C 0.7653(11) 0.9748(7) 0.4745(7)
C2 C 0.7468(11) 1.1174(6) 0.4162(6)
C3 C 0.7277(10) 1.0926(6) 0.5531(6)
C4 C 0.7663(11) 0.8049(6) 0.5527(7)
H1 H 0.8617 0.8225 0.6196
H2 H 0.6547 0.8234 0.5453
C5 C 0.7686(11) 0.7007(6) 0.5377(7)
C6 C 0.7703(10) 1.1264(6) 0.2448(6)
H3 H 0.8202 1.1630 0.2132
H4 H 0.8538 1.0776 0.2827
C7 C 0.5968(11) 1.0827(6) 0.1614(6)
C8 C 0.7025(10) 1.0444(6) 0.7211(6)
H5 H 0.6144 1.0541 0.7397
H6 H 0.6705 0.9890 0.6804
C9 C 0.8770(10) 1.0306(6) 0.8141(6)
N1 N 0.7676(9) 1.0278(5) 0.4038(5)
N2 N 0.7264(9) 1.1541(5) 0.4884(5)
N3 N 0.7444(11) 1.0013(4) 0.5495(6)
O1 O 0.8593(8) 0.6682(4) 0.5038(5)
O2 O 0.6809(8) 0.6519(4) 0.5621(5)
O3 O 0.6039(7) 1.0414(5) 0.0912(4)
O4 O 0.4582(7) 1.0851(4) 0.1638(4)
O5 O 1.0162(7) 1.0297(5) 0.8113(4)
O6 O 0.8830(8) 1.0139(4) 0.8971(5)
O7 O 0.5458(9) 0.3794(5) 0.3742(6)
H7 H 0.5992 0.3283 0.3950
H8 H 0.4498 0.3774 0.3740
O8 O 0.9027(9) 0.3485(4) 0.5761(5)
H9 H 0.8384 0.3080 0.5329
H10 H 1.0046 0.3479 0.5834
S1 S 0.7943(3) 0.85848(16) 0.45710(19)
S2 S 0.7468(3) 1.19747(15) 0.33088(16)
S3 S 0.6981(3) 1.14075(16) 0.64612(16)
Nd1C Nd 0.75458(5) 0.99495(3) 0.00327(3)
Nd1A Nd 0.24542(5) 1.00505(3) -0.00327(3)
Nd1A_2 Nd 1.24542(5) 1.00505(3) 0.99673(3)
Nd1C_2 Nd 0.75458(5) 0.99495(3) 1.00327(3)
O3C O 0.6039(7) 0.4586(5) 0.5912(4)
O3A O 0.3961(7) 0.5414(5) 0.4088(4)
O4A O 0.5418(7) 0.5851(4) 0.3362(4)
O5A O 0.9838(7) 0.5297(5) 0.6887(4)
O6C O 0.8830(8) 0.4861(4) 0.3971(5)
O6A O 1.1170(8) 0.5139(4) 0.6029(5)
O9 O 0.2872(17) 0.1851(7) 0.2513(9)
H11 H 0.2510 0.2402 0.2452
H12 H 0.2849 0.1691 0.1977
O10 O 0.187(3) 0.3740(14) 0.2269(11)
H13 H 0.1242 0.4016 0.2457
H14 H 0.1831 0.4033 0.1781
loop_
_geom_bond_atom_site_label_1
_geom_bond_atom_site_label_2
_geom_bond_site_symmetry_1
_geom_bond_site_symmetry_2
Nd1 O1 1_555 1_555
C1 N1 1_555 1_555
C2 N1 1_555 1_555
C3 N2 1_555 1_555
C4 H1 1_555 1_555
H2 C4 1_555 1_555
C5 C4 1_555 1_555
C6 H3 1_555 1_555
H4 C6 1_555 1_555
C7 C6 1_555 1_555
C8 H5 1_555 1_555
H6 C8 1_555 1_555
C9 C8 1_555 1_555
N2 C2 1_555 1_555
N3 C1 1_555 1_555
O1 C5 1_555 1_555
O2 Nd1 1_555 1_555
O3 C7 1_555 1_555
O4 C7 1_555 1_555
O5 C9 1_555 1_555
O6 C9 1_555 1_555
O7 Nd1 1_555 1_555
H7 O7 1_555 1_555
H8 O7 1_555 1_555
O8 Nd1 1_555 1_555
H9 O8 1_555 1_555
H10 O8 1_555 1_555
S1 C1 1_555 1_555
S2 C2 1_555 1_555
S3 C3 1_555 1_555
O9 H11 1_555 1_555
H12 O9 1_555 1_555
O10 H13 1_555 1_555
H14 O10 1_555 1_555
Nd1C O3 1_555 1_555
Nd1A O3 1_555 1_555
Nd1A_2 O5 1_555 1_555
Nd1C_2 O6 1_555 1_555
O3C Nd1 1_555 1_555
O3A Nd1 1_555 1_555
O4A Nd1 1_555 1_555
O5A Nd1 1_555 1_555
O6C Nd1 1_555 1_555
O6A Nd1 1_555 1_555
C3 N3 1_555 1_555
C4 S1 1_555 1_555
C5 O2 1_555 1_555
C6 S2 1_555 1_555
C8 S3 1_555 1_555
O4 Nd1A 1_555 1_555
O6 Nd1A_2 1_555 1_555

#END
