
#######################################################################
#
#                 Cambridge Crystallographic Data Centre
#                                CCDC 
#
#######################################################################
#
# If this CIF has been generated from an entry in the Cambridge 
# Structural Database, then it will include bibliographic, chemical, 
# crystal, experimental, refinement or atomic coordinate data resulting 
# from the CCDC's data processing and validation procedures.
#
#######################################################################

data_RIPKAD
_symmetry_cell_setting           orthorhombic
_symmetry_space_group_name_H-M   'P 21 21 21'
_symmetry_Int_Tables_number      19
_space_group_name_Hall           'P 2ac 2ab'
loop_
_symmetry_equiv_pos_site_id
_symmetry_equiv_pos_as_xyz
1 x,y,z
2 1/2-x,-y,1/2+z
3 1/2+x,1/2-y,-z
4 -x,1/2+y,1/2-z
_cell_length_a                   8.46750(10)
_cell_length_b                   12.8704(2)
_cell_length_c                   24.3518(4)
_cell_angle_alpha                90
_cell_angle_beta                 90
_cell_angle_gamma                90
_cell_volume                     2653.86
loop_
_atom_site_label
_atom_site_type_symbol
_atom_site_fract_x
_atom_site_fract_y
_atom_site_fract_z
Cu1 Cu 0.10687(7) 0.59573(4) 0.80235(2)
Cu2 Cu 0.13525(7) 0.58346(4) 0.62648(3)
Cl1 Cl -0.02034(15) 0.61013(9) 0.70296(5)
Cl2 Cl 0.32396(17) 0.69953(10) 0.64007(6)
Cl3 Cl 0.27136(17) 0.44313(9) 0.59983(6)
Cl4 Cl 0.16895(17) 0.76273(9) 0.82105(6)
N1 N 0.0891(5) 0.4358(3) 0.81141(16)
C1 C 0.1696(6) 0.4035(3) 0.86213(19)
N2 N -0.1066(5) 0.5941(3) 0.83731(16)
C2 C 0.5486(6) 0.3888(4) 1.0256(2)
C3 C 0.1663(6) 0.3960(4) 0.7612(2)
H1 H 0.0958 0.4056 0.7292
H2 H 0.1887 0.3208 0.7652
N3 N 0.3122(5) 0.5553(3) 0.76955(17)
C4 C -0.0845(5) 0.4121(4) 0.81311(19)
H3 H -0.1236 0.4004 0.7753
H4 H -0.1022 0.3477 0.8344
C5 C -0.1748(6) 0.4996(4) 0.8388(2)
C6 C -0.3315(7) 0.6655(4) 0.8830(2)
H5 H -0.3830 0.7239 0.8988
N4 N 0.5431(5) 0.4389(3) 1.07443(16)
C7 C 0.5780(7) 0.4781(4) 0.7189(2)
H6 H 0.6695 0.4515 0.7012
C8 C 0.6596(7) 0.5049(4) 1.0884(2)
H7 H 0.6520 0.5409 1.1223
C9 C 0.1689(7) 0.4680(4) 0.9080(2)
H8 H 0.1146 0.5325 0.9065
C10 C 0.4499(6) 0.4156(4) 0.7277(2)
H9 H 0.4527 0.3449 0.7165
C11 C -0.1836(7) 0.6756(4) 0.8589(2)
H10 H -0.1355 0.7422 0.8575
C12 C 0.2472(7) 0.3093(4) 0.8662(2)
H11 H 0.2462 0.2626 0.8359
C13 C 0.4377(6) 0.6147(4) 0.7608(2)
H12 H 0.4334 0.6851 0.7724
C14 C -0.4014(7) 0.5698(4) 0.8836(2)
H13 H -0.5035 0.5612 0.8992
C15 C -0.3228(6) 0.4857(4) 0.8614(2)
H14 H -0.3702 0.4188 0.8616
C16 C 0.7971(7) 0.4701(5) 1.0053(2)
H15 H 0.8842 0.4798 0.9812
C17 C 0.5728(6) 0.5803(4) 0.7360(2)
H16 H 0.6603 0.6254 0.7307
C18 C 0.3171(6) 0.4546(4) 0.7527(2)
C19 C 0.6761(7) 0.4040(4) 0.9909(2)
H17 H 0.6802 0.3683 0.9567
C20 C 0.3276(6) 0.3464(4) 0.9589(2)
C21 C 0.4185(7) 0.3156(4) 1.0110(2)
H18 H 0.3434 0.3119 1.0421
H19 H 0.4637 0.2453 1.0058
C22 C 0.3265(7) 0.2821(4) 0.9138(2)
H20 H 0.3812 0.2177 0.9154
C23 C 0.2455(7) 0.4398(4) 0.9555(2)
H21 H 0.2425 0.4847 0.9864
C24 C 0.7915(7) 0.5227(5) 1.0551(2)
H22 H 0.8734 0.5687 1.0660
Cu2A Cu 0.36475(7) 0.41654(4) 1.12648(3)
N4A N -0.0431(5) 0.5611(3) 0.57443(16)
O1 O 0.1446(7) 0.7111(3) 0.95074(19)
O2 O 0.0791(6) 0.3350(4) 0.50175(19)
loop_
_geom_bond_atom_site_label_1
_geom_bond_atom_site_label_2
_geom_bond_site_symmetry_1
_geom_bond_site_symmetry_2
Cu1 Cl1 1_555 1_555
Cu2 Cl1 1_555 1_555
Cl2 Cu2 1_555 1_555
Cl3 Cu2 1_555 1_555
Cl4 Cu1 1_555 1_555
N1 Cu1 1_555 1_555
C1 N1 1_555 1_555
N2 Cu1 1_555 1_555
C2 N4 1_555 1_555
C3 N1 1_555 1_555
H1 C3 1_555 1_555
H2 C3 1_555 1_555
N3 Cu1 1_555 1_555
C4 N1 1_555 1_555
H3 C4 1_555 1_555
H4 C4 1_555 1_555
C5 N2 1_555 1_555
C6 H5 1_555 1_555
N4 C8 1_555 1_555
C7 H6 1_555 1_555
C8 H7 1_555 1_555
C9 C1 1_555 1_555
H8 C9 1_555 1_555
C10 C7 1_555 1_555
H9 C10 1_555 1_555
C11 N2 1_555 1_555
H10 C11 1_555 1_555
C12 C1 1_555 1_555
H11 C12 1_555 1_555
C13 N3 1_555 1_555
H12 C13 1_555 1_555
C14 C6 1_555 1_555
H13 C14 1_555 1_555
C15 C5 1_555 1_555
H14 C15 1_555 1_555
C16 H15 1_555 1_555
C17 C7 1_555 1_555
H16 C17 1_555 1_555
C18 C3 1_555 1_555
C19 C2 1_555 1_555
H17 C19 1_555 1_555
C20 C21 1_555 1_555
C21 C2 1_555 1_555
H18 C21 1_555 1_555
H19 C21 1_555 1_555
C22 C12 1_555 1_555
H20 C22 1_555 1_555
C23 C9 1_555 1_555
H21 C23 1_555 1_555
C24 C8 1_555 1_555
H22 C24 1_555 1_555
Cu2A N4 1_555 1_555
N4A Cu2 1_555 1_555
N3 C18 1_555 1_555
C4 C5 1_555 1_555
C6 C11 1_555 1_555
C10 C18 1_555 1_555
C13 C17 1_555 1_555
C14 C15 1_555 1_555
C16 C19 1_555 1_555
C16 C24 1_555 1_555
C20 C22 1_555 1_555
C20 C23 1_555 1_555

#END
