
#######################################################################
#
#                 Cambridge Crystallographic Data Centre
#                                CCDC 
#
#######################################################################
#
# If this CIF has been generated from an entry in the Cambridge 
# Structural Database, then it will include bibliographic, chemical, 
# crystal, experimental, refinement or atomic coordinate data resulting 
# from the CCDC's data processing and validation procedures.
#
#######################################################################

data_RIPLAF
_symmetry_cell_setting           monoclinic
_symmetry_space_group_name_H-M   'P 21/n'
_symmetry_Int_Tables_number      14
_space_group_name_Hall           '-P 2yn'
loop_
_symmetry_equiv_pos_site_id
_symmetry_equiv_pos_as_xyz
1 x,y,z
2 1/2-x,1/2+y,1/2-z
3 -x,-y,-z
4 1/2+x,1/2-y,1/2+z
_cell_length_a                   7.7679(3)
_cell_length_b                   15.7170(6)
_cell_length_c                   12.0010(5)
_cell_angle_alpha                90
_cell_angle_beta                 98.3460(10)
_cell_angle_gamma                90
_cell_volume                     1449.66
loop_
_atom_site_label
_atom_site_type_symbol
_atom_site_fract_x
_atom_site_fract_y
_atom_site_fract_z
O1 O 0.2183(2) 0.10072(12) -0.02524(16)
N1 N 0.3669(3) 0.01440(14) 0.20521(19)
C1 C 0.1104(4) 0.12897(17) -0.1050(2)
C2 C 0.1678(4) 0.20085(17) -0.1736(2)
C3 C 0.6464(4) 0.03299(19) 0.3783(2)
C4 C 0.3509(4) 0.06022(19) 0.2980(2)
H1 H 0.2441 0.0853 0.3039
C5 C 0.5207(4) -0.02127(18) 0.1986(2)
H2 H 0.5339 -0.0523 0.1344
C6 C 0.4866(4) 0.07149(19) 0.3849(2)
H3 H 0.4714 0.1044 0.4471
N2 N 0.9279(3) -0.00599(19) 0.4584(2)
C7 C 0.6608(4) -0.01421(19) 0.2827(2)
H4 H 0.7651 -0.0412 0.2753
C8 C 0.7998(4) 0.0437(2) 0.4683(2)
C9 C 0.7931(4) 0.1085(2) 0.5583(3)
H5 H 0.9005 0.1076 0.6093
H6 H 0.6984 0.0956 0.5988
H7 H 0.7760 0.1639 0.5249
O2 O -0.0411(3) 0.10066(12) -0.13451(17)
C10 C 0.1064(4) 0.30031(17) -0.3276(2)
H8 H 0.0275 0.3246 -0.3844
C11 C 0.0509(4) 0.23920(17) -0.2578(2)
H9 H -0.0657 0.2236 -0.2671
C12 C 0.2800(4) 0.32557(17) -0.3131(2)
C13 C 0.3429(4) 0.39279(17) -0.3870(2)
C14 C 0.3405(4) 0.22745(18) -0.1581(2)
H10 H 0.4192 0.2037 -0.1007
C15 C 0.3958(4) 0.28887(18) -0.2271(3)
H11 H 0.5117 0.3059 -0.2161
O3 O 0.4957(2) 0.41922(13) -0.35961(16)
O4 O 0.2389(2) 0.41841(12) -0.47079(16)
Zn1 Zn 0.16694(4) 0.001870(19) 0.07663(2)
N1B N 1.6331(3) -0.01440(14) 0.79479(19)
C3B C 1.3536(4) -0.03299(19) 0.6217(2)
C4B C 1.6491(4) -0.06022(19) 0.7020(2)
H1B H 1.7559 -0.0853 0.6961
C5B C 1.4793(4) 0.02127(18) 0.8014(2)
H2B H 1.4661 0.0523 0.8656
C6B C 1.5134(4) -0.07149(19) 0.6151(2)
H3B H 1.5286 -0.1044 0.5529
N2B N 1.0721(3) 0.00599(19) 0.5416(2)
C7B C 1.3392(4) 0.01421(19) 0.7173(2)
H4B H 1.2349 0.0412 0.7247
C8B C 1.2002(4) -0.0437(2) 0.5317(2)
C9B C 1.2069(4) -0.1085(2) 0.4417(3)
H5B H 1.0995 -0.1076 0.3907
H6B H 1.3016 -0.0956 0.4012
H7B H 1.2240 -0.1639 0.4751
O1B O -0.2183(2) -0.10072(12) 0.02524(16)
C1B C -0.1104(4) -0.12897(17) 0.1050(2)
C2B C -0.1678(4) -0.20085(17) 0.1736(2)
O2B O 0.0411(3) -0.10066(12) 0.13451(17)
C10B C -0.1064(4) -0.30031(17) 0.3276(2)
H8B H -0.0275 -0.3246 0.3844
C11B C -0.0509(4) -0.23920(17) 0.2578(2)
H9B H 0.0657 -0.2236 0.2671
C12B C -0.2800(4) -0.32557(17) 0.3131(2)
C13B C -0.3429(4) -0.39279(17) 0.3870(2)
C14B C -0.3405(4) -0.22745(18) 0.1581(2)
H10B H -0.4192 -0.2037 0.1007
C15B C -0.3958(4) -0.28887(18) 0.2271(3)
H11B H -0.5117 -0.3059 0.2161
O3B O -0.4957(2) -0.41922(13) 0.35961(16)
O4B O -0.2389(2) -0.41841(12) 0.47079(16)
Zn1B Zn -0.16694(4) -0.001870(19) -0.07663(2)
N1B_2 N -0.3669(3) -0.01440(14) -0.20521(19)
O3A O 0.0043(2) -0.08078(13) -0.14039(16)
O3C O -0.0043(2) 0.08078(13) 0.14039(16)
O4A O 0.2611(2) -0.08159(12) -0.02921(16)
O4C O -0.2611(2) 0.08159(12) 0.02921(16)
Zn1A Zn -0.66694(4) -0.498130(19) 0.42337(2)
Zn1A_2 Zn 0.33306(4) 0.501870(19) -0.57663(2)
Zn1B_2 Zn 1.83306(4) -0.001870(19) 0.92337(2)
Zn1C Zn -0.33306(4) -0.501870(19) 0.57663(2)
Zn1C_2 Zn 0.66694(4) 0.498130(19) -0.42337(2)
loop_
_geom_bond_atom_site_label_1
_geom_bond_atom_site_label_2
_geom_bond_site_symmetry_1
_geom_bond_site_symmetry_2
O1 C1 1_555 1_555
N1 C4 1_555 1_555
C1 C2 1_555 1_555
C2 C11 1_555 1_555
C3 C6 1_555 1_555
C4 H1 1_555 1_555
C5 N1 1_555 1_555
H2 C5 1_555 1_555
C6 C4 1_555 1_555
H3 C6 1_555 1_555
N2 C8 1_555 1_555
C7 C3 1_555 1_555
H4 C7 1_555 1_555
C8 C3 1_555 1_555
C9 C8 1_555 1_555
H5 C9 1_555 1_555
H6 C9 1_555 1_555
H7 C9 1_555 1_555
O2 C1 1_555 1_555
C10 H8 1_555 1_555
C11 C10 1_555 1_555
H9 C11 1_555 1_555
C12 C10 1_555 1_555
C13 C12 1_555 1_555
C14 C2 1_555 1_555
H10 C14 1_555 1_555
C15 C12 1_555 1_555
H11 C15 1_555 1_555
O3 C13 1_555 1_555
O4 C13 1_555 1_555
Zn1 O1 1_555 1_555
N1B C4B 1_555 1_555
C3B C6B 1_555 1_555
C4B H1B 1_555 1_555
C5B N1B 1_555 1_555
H2B C5B 1_555 1_555
C6B C4B 1_555 1_555
H3B C6B 1_555 1_555
N2B N2 1_555 1_555
C7B C3B 1_555 1_555
H4B C7B 1_555 1_555
C8B C3B 1_555 1_555
C9B C8B 1_555 1_555
H5B C9B 1_555 1_555
H6B C9B 1_555 1_555
H7B C9B 1_555 1_555
O1B C1B 1_555 1_555
C1B C2B 1_555 1_555
C2B C11B 1_555 1_555
O2B Zn1 1_555 1_555
C10B H8B 1_555 1_555
C11B C10B 1_555 1_555
H9B C11B 1_555 1_555
C12B C10B 1_555 1_555
C13B C12B 1_555 1_555
C14B C2B 1_555 1_555
H10B C14B 1_555 1_555
C15B C12B 1_555 1_555
H11B C15B 1_555 1_555
O3B C13B 1_555 1_555
O4B C13B 1_555 1_555
Zn1B O2 1_555 1_555
N1B_2 Zn1B 1_555 1_555
O3A Zn1B 1_555 1_555
O3C Zn1 1_555 1_555
O4A Zn1 1_555 1_555
O4C Zn1B 1_555 1_555
Zn1A O3B 1_555 1_555
Zn1A_2 O4 1_555 1_555
Zn1B_2 N1B 1_555 1_555
Zn1C O4B 1_555 1_555
Zn1C_2 O3 1_555 1_555
N1 Zn1 1_555 1_555
C5 C7 1_555 1_555
C14 C15 1_555 1_555
C5B C7B 1_555 1_555
N2B C8B 1_555 1_555
O1B Zn1B 1_555 1_555
C1B O2B 1_555 1_555
C14B C15B 1_555 1_555

#END
