
#######################################################################
#
#                 Cambridge Crystallographic Data Centre
#                                CCDC 
#
#######################################################################
#
# If this CIF has been generated from an entry in the Cambridge 
# Structural Database, then it will include bibliographic, chemical, 
# crystal, experimental, refinement or atomic coordinate data resulting 
# from the CCDC's data processing and validation procedures.
#
#######################################################################

data_RIPREO
_symmetry_cell_setting           triclinic
_symmetry_space_group_name_H-M   'P -1'
_symmetry_Int_Tables_number      2
_space_group_name_Hall           '-P 1'
loop_
_symmetry_equiv_pos_site_id
_symmetry_equiv_pos_as_xyz
1 x,y,z
2 -x,-y,-z
_cell_length_a                   9.4172(10)
_cell_length_b                   11.632(2)
_cell_length_c                   14.4921(16)
_cell_angle_alpha                79.002(9)
_cell_angle_beta                 81.288(9)
_cell_angle_gamma                79.066(11)
_cell_volume                     1519.05
loop_
_atom_site_label
_atom_site_type_symbol
_atom_site_fract_x
_atom_site_fract_y
_atom_site_fract_z
Cd1 Cd 0.520010(16) 0.711667(14) 0.746547(11)
O1 O 0.3647(2) 0.78130(18) 0.87883(14)
O2 O 0.4040(2) 0.59124(17) 0.88734(13)
O3 O 0.2695(2) 0.6699(2) 1.00218(14)
O4 O 0.5307(3) 0.92067(19) 0.68286(18)
O5 O 0.6659(3) 0.7959(3) 0.60111(16)
O6 O 0.6762(4) 0.9825(3) 0.5610(2)
N1 N 0.3081(2) 0.73723(17) 0.67395(13)
N2 N 0.1040(2) 0.4451(2) 0.69660(16)
N3 N -0.0381(2) -0.0190(2) 0.77986(16)
N4 N -0.2826(2) -0.29558(18) 0.82625(14)
N5 N 0.5902(2) 0.52764(19) 0.69065(14)
N6 N 0.5241(3) 0.1955(2) 0.85115(18)
N7 N 0.6247(3) 0.9021(3) 0.6133(2)
N8 N 0.3447(2) 0.6801(2) 0.92466(15)
C1 C 0.2316(2) 0.6475(2) 0.69188(16)
H1 H 0.2661 0.5785 0.7318
C2 C 0.1030(2) 0.6529(2) 0.65343(16)
C3 C 0.0498(3) 0.7568(2) 0.59651(18)
H2 H -0.0380 0.7648 0.5720
C4 C 0.1298(3) 0.8492(2) 0.57656(19)
H3 H 0.0978 0.9192 0.5369
C5 C 0.2577(3) 0.8358(2) 0.61633(17)
H4 H 0.3108 0.8979 0.6024
C6 C 0.0326(3) 0.5451(2) 0.67136(18)
H5 H -0.0652 0.5525 0.6637
C7 C 0.0331(3) 0.3401(2) 0.7117(2)
H6 H -0.0675 0.3648 0.6970
C8 C 0.1136(4) 0.2564(3) 0.6465(2)
H7 H 0.2153 0.2368 0.6572
H8 H 0.1089 0.2951 0.5813
C9 C 0.0322(4) 0.2815(3) 0.8138(2)
H9 H -0.0249 0.3358 0.8539
H10 H 0.1310 0.2640 0.8303
C10 C 0.0475(4) 0.1418(3) 0.6634(2)
H11 H -0.0511 0.1609 0.6465
H12 H 0.1041 0.0881 0.6228
C11 C 0.0447(3) 0.0797(2) 0.7666(2)
H13 H 0.1443 0.0493 0.7818
C12 C -0.0320(4) 0.1659(3) 0.8323(2)
H14 H -0.0243 0.1277 0.8974
H15 H -0.1346 0.1850 0.8239
C13 C 0.0035(2) -0.1133(2) 0.83453(18)
H16 H 0.0894 -0.1215 0.8612
C14 C -0.0831(2) -0.2120(2) 0.85719(16)
C15 C -0.0570(3) -0.3043(2) 0.9320(2)
H17 H 0.0194 -0.3085 0.9670
C16 C -0.1465(3) -0.3903(3) 0.9539(2)
H18 H -0.1322 -0.4520 1.0046
C17 C -0.2573(3) -0.3832(2) 0.8992(2)
H19 H -0.3162 -0.4415 0.9138
C18 C -0.1979(2) -0.2110(2) 0.80667(16)
H20 H -0.2169 -0.1488 0.7570
C19 C 0.5662(3) 0.4227(2) 0.74177(17)
H21 H 0.5365 0.4189 0.8063
C20 C 0.5831(3) 0.3190(2) 0.70359(19)
C21 C 0.6295(4) 0.3269(3) 0.6070(2)
H22 H 0.6425 0.2600 0.5782
C22 C 0.6560(4) 0.4341(3) 0.5541(2)
H23 H 0.6877 0.4399 0.4896
C23 C 0.6353(3) 0.5319(3) 0.59739(18)
H24 H 0.6530 0.6039 0.5611
C24 C 0.5558(3) 0.2055(2) 0.7635(2)
H25 H 0.5625 0.1393 0.7348
C25 C 0.5060(3) 0.0783(2) 0.9062(2)
H26 H 0.4933 0.0258 0.8637
C26 C 0.3738(3) 0.0905(3) 0.9797(2)
H27 H 0.2871 0.1185 0.9480
H28 H 0.3820 0.1493 1.0171
C27 C 0.6419(3) 0.0268(3) 0.9547(2)
H29 H 0.6603 0.0832 0.9911
H30 H 0.7249 0.0141 0.9070
Cd1_2 Cd 1.520010(16) 1.711667(14) 0.746547(11)
Cd1_3 Cd -0.479990(16) -0.288333(14) 0.746547(11)
Cd1A Cd 0.479990(16) -0.711667(14) 1.253453(11)
O1_2 O 1.3647(2) 1.78130(18) 0.87883(14)
O2_2 O 1.4040(2) 1.59124(17) 0.88734(13)
O3_2 O 1.2695(2) 1.6699(2) 1.00218(14)
O4_2 O 1.5307(3) 1.92067(19) 0.68286(18)
O5_2 O 1.6659(3) 1.7959(3) 0.60111(16)
O6_2 O 1.6762(4) 1.9825(3) 0.5610(2)
N1_2 N 1.3081(2) 1.73723(17) 0.67395(13)
N2_2 N 1.1040(2) 1.4451(2) 0.69660(16)
N3_2 N 0.9619(2) 0.9810(2) 0.77986(16)
N4_2 N 0.7174(2) 0.70442(18) 0.82625(14)
N4_3 N 1.7174(2) 1.70442(18) 0.82625(14)
N5A N 0.4098(2) -0.52764(19) 1.30935(14)
N5_2 N 1.5902(2) 1.52764(19) 0.69065(14)
N6A N 0.4759(3) -0.1955(2) 1.14885(18)
N7_2 N 1.6247(3) 1.9021(3) 0.6133(2)
N8_2 N 1.3447(2) 1.6801(2) 0.92466(15)
C1_2 C 1.2316(2) 1.6475(2) 0.69188(16)
H1_2 H 1.2661 1.5785 0.7318
C2_2 C 1.1030(2) 1.6529(2) 0.65343(16)
C3_2 C 1.0498(3) 1.7568(2) 0.59651(18)
H2_2 H 0.9620 1.7648 0.5720
C4_2 C 1.1298(3) 1.8492(2) 0.57656(19)
H3_2 H 1.0978 1.9192 0.5369
C5_2 C 1.2577(3) 1.8358(2) 0.61633(17)
H4_2 H 1.3108 1.8979 0.6024
C6_2 C 1.0326(3) 1.5451(2) 0.67136(18)
H5_2 H 0.9348 1.5525 0.6637
C7_2 C 1.0331(3) 1.3401(2) 0.7117(2)
H6_2 H 0.9325 1.3648 0.6970
C8_2 C 1.1136(4) 1.2564(3) 0.6465(2)
H7_2 H 1.2153 1.2368 0.6572
H8_2 H 1.1089 1.2951 0.5813
C9_2 C 1.0322(4) 1.2815(3) 0.8138(2)
H9_2 H 0.9751 1.3358 0.8539
H10_2 H 1.1310 1.2640 0.8303
C10_2 C 1.0475(4) 1.1418(3) 0.6634(2)
H11_2 H 0.9489 1.1609 0.6465
H12_2 H 1.1041 1.0881 0.6228
C11_2 C 1.0447(3) 1.0797(2) 0.7666(2)
H13_2 H 1.1443 1.0493 0.7818
C12_2 C 0.9680(4) 1.1659(3) 0.8323(2)
H14_2 H 0.9757 1.1277 0.8974
H15_2 H 0.8654 1.1850 0.8239
C13_2 C 1.0035(2) 0.8867(2) 0.83453(18)
H16_2 H 1.0894 0.8785 0.8612
C14_2 C 0.9169(2) 0.7880(2) 0.85719(16)
C15_2 C 0.9430(3) 0.6957(2) 0.9320(2)
H17_2 H 1.0194 0.6915 0.9670
C16_2 C 0.8535(3) 0.6097(3) 0.9539(2)
H18_2 H 0.8678 0.5480 1.0046
C17_2 C 0.7427(3) 0.6168(2) 0.8992(2)
H19_2 H 0.6838 0.5585 0.9138
C18_2 C 0.8021(2) 0.7890(2) 0.80667(16)
H20_2 H 0.7831 0.8512 0.7570
C19A C 0.4338(3) -0.4227(2) 1.25823(17)
H21A H 0.4635 -0.4189 1.1937
C20A C 0.4169(3) -0.3190(2) 1.29641(19)
C21A C 0.3705(4) -0.3269(3) 1.3930(2)
H22A H 0.3575 -0.2600 1.4218
C22A C 0.3440(4) -0.4341(3) 1.4459(2)
H23A H 0.3123 -0.4399 1.5104
C23A C 0.3647(3) -0.5319(3) 1.40261(18)
H24A H 0.3470 -0.6039 1.4389
C24A C 0.4442(3) -0.2055(2) 1.2365(2)
H25A H 0.4375 -0.1393 1.2652
C25A C 0.4940(3) -0.0783(2) 1.0938(2)
H26A H 0.5067 -0.0258 1.1363
C26A C 0.6262(3) -0.0905(3) 1.0203(2)
H27A H 0.7129 -0.1185 1.0520
H28A H 0.6180 -0.1493 0.9829
C27A C 0.3581(3) -0.0268(3) 1.0453(2)
H29A H 0.3397 -0.0832 1.0089
H30A H 0.2751 -0.0141 1.0930
loop_
_geom_bond_atom_site_label_1
_geom_bond_atom_site_label_2
_geom_bond_site_symmetry_1
_geom_bond_site_symmetry_2
Cd1 O1 1_555 1_555
O1 N8 1_555 1_555
O2 Cd1 1_555 1_555
O3 N8 1_555 1_555
O4 Cd1 1_555 1_555
O5 Cd1 1_555 1_555
O6 N7 1_555 1_555
N1 Cd1 1_555 1_555
N2 C6 1_555 1_555
N3 C11 1_555 1_555
N4 C17 1_555 1_555
N5 Cd1 1_555 1_555
N6 C24 1_555 1_555
N7 O4 1_555 1_555
N8 O2 1_555 1_555
C1 N1 1_555 1_555
H1 C1 1_555 1_555
C2 C1 1_555 1_555
C3 C2 1_555 1_555
H2 C3 1_555 1_555
C4 C3 1_555 1_555
H3 C4 1_555 1_555
C5 N1 1_555 1_555
H4 C5 1_555 1_555
C6 C2 1_555 1_555
H5 C6 1_555 1_555
C7 N2 1_555 1_555
H6 C7 1_555 1_555
C8 C7 1_555 1_555
H7 C8 1_555 1_555
H8 C8 1_555 1_555
C9 C7 1_555 1_555
H9 C9 1_555 1_555
H10 C9 1_555 1_555
C10 C8 1_555 1_555
H11 C10 1_555 1_555
H12 C10 1_555 1_555
C11 C10 1_555 1_555
H13 C11 1_555 1_555
C12 C9 1_555 1_555
H14 C12 1_555 1_555
H15 C12 1_555 1_555
C13 N3 1_555 1_555
H16 C13 1_555 1_555
C14 C13 1_555 1_555
C15 C14 1_555 1_555
H17 C15 1_555 1_555
C16 C15 1_555 1_555
H18 C16 1_555 1_555
C17 C16 1_555 1_555
H19 C17 1_555 1_555
C18 N4 1_555 1_555
H20 C18 1_555 1_555
C19 N5 1_555 1_555
H21 C19 1_555 1_555
C20 C19 1_555 1_555
C21 C20 1_555 1_555
H22 C21 1_555 1_555
C22 C21 1_555 1_555
H23 C22 1_555 1_555
C23 N5 1_555 1_555
H24 C23 1_555 1_555
C24 C20 1_555 1_555
H25 C24 1_555 1_555
C25 N6 1_555 1_555
H26 C25 1_555 1_555
C26 C25 1_555 1_555
H27 C26 1_555 1_555
H28 C26 1_555 1_555
C27 C25 1_555 1_555
H29 C27 1_555 1_555
H30 C27 1_555 1_555
Cd1_2 O1_2 1_555 1_555
Cd1_3 N4 1_555 1_555
Cd1A N5A 1_555 1_555
O1_2 N8_2 1_555 1_555
O2_2 Cd1_2 1_555 1_555
O3_2 N8_2 1_555 1_555
O4_2 Cd1_2 1_555 1_555
O5_2 Cd1_2 1_555 1_555
O6_2 N7_2 1_555 1_555
N1_2 Cd1_2 1_555 1_555
N2_2 C6_2 1_555 1_555
N3_2 C11_2 1_555 1_555
N4_2 Cd1 1_555 1_555
N4_3 Cd1_2 1_555 1_555
N5A C19A 1_555 1_555
N5_2 Cd1_2 1_555 1_555
N6A C24A 1_555 1_555
N7_2 O4_2 1_555 1_555
N8_2 O2_2 1_555 1_555
C1_2 N1_2 1_555 1_555
H1_2 C1_2 1_555 1_555
C2_2 C1_2 1_555 1_555
C3_2 C2_2 1_555 1_555
H2_2 C3_2 1_555 1_555
C4_2 C3_2 1_555 1_555
H3_2 C4_2 1_555 1_555
C5_2 N1_2 1_555 1_555
H4_2 C5_2 1_555 1_555
C6_2 C2_2 1_555 1_555
H5_2 C6_2 1_555 1_555
C7_2 N2_2 1_555 1_555
H6_2 C7_2 1_555 1_555
C8_2 C7_2 1_555 1_555
H7_2 C8_2 1_555 1_555
H8_2 C8_2 1_555 1_555
C9_2 C7_2 1_555 1_555
H9_2 C9_2 1_555 1_555
H10_2 C9_2 1_555 1_555
C10_2 C8_2 1_555 1_555
H11_2 C10_2 1_555 1_555
H12_2 C10_2 1_555 1_555
C11_2 C10_2 1_555 1_555
H13_2 C11_2 1_555 1_555
C12_2 C9_2 1_555 1_555
H14_2 C12_2 1_555 1_555
H15_2 C12_2 1_555 1_555
C13_2 N3_2 1_555 1_555
H16_2 C13_2 1_555 1_555
C14_2 C13_2 1_555 1_555
C15_2 C14_2 1_555 1_555
H17_2 C15_2 1_555 1_555
C16_2 C15_2 1_555 1_555
H18_2 C16_2 1_555 1_555
C17_2 N4_2 1_555 1_555
H19_2 C17_2 1_555 1_555
C18_2 N4_2 1_555 1_555
H20_2 C18_2 1_555 1_555
C19A H21A 1_555 1_555
C20A C19A 1_555 1_555
C21A C20A 1_555 1_555
H22A C21A 1_555 1_555
C22A C21A 1_555 1_555
H23A C22A 1_555 1_555
C23A N5A 1_555 1_555
H24A C23A 1_555 1_555
C24A C20A 1_555 1_555
H25A C24A 1_555 1_555
C25A N6A 1_555 1_555
H26A C25A 1_555 1_555
C26A C27 1_555 1_555
H27A C26A 1_555 1_555
H28A C26A 1_555 1_555
C27A C26 1_555 1_555
H29A C27A 1_555 1_555
H30A C27A 1_555 1_555
O5 N7 1_555 1_555
C4 C5 1_555 1_555
C11 C12 1_555 1_555
C14 C18 1_555 1_555
C22 C23 1_555 1_555
O5_2 N7_2 1_555 1_555
C4_2 C5_2 1_555 1_555
C11_2 C12_2 1_555 1_555
C14_2 C18_2 1_555 1_555
C16_2 C17_2 1_555 1_555
C22A C23A 1_555 1_555
C25A C26A 1_555 1_555
C25A C27A 1_555 1_555

#END
