
#######################################################################
#
#                 Cambridge Crystallographic Data Centre
#                                CCDC 
#
#######################################################################
#
# If this CIF has been generated from an entry in the Cambridge 
# Structural Database, then it will include bibliographic, chemical, 
# crystal, experimental, refinement or atomic coordinate data resulting 
# from the CCDC's data processing and validation procedures.
#
#######################################################################

data_RIPTIU
_symmetry_cell_setting           triclinic
_symmetry_space_group_name_H-M   'P 1'
_symmetry_Int_Tables_number      1
_space_group_name_Hall           'P 1'
loop_
_symmetry_equiv_pos_site_id
_symmetry_equiv_pos_as_xyz
1 x,y,z
_cell_length_a                   13.39760(10)
_cell_length_b                   13.4574(2)
_cell_length_c                   17.7720(1)
_cell_angle_alpha                71.110(6)
_cell_angle_beta                 78.389(6)
_cell_angle_gamma                60.471(5)
_cell_volume                     2634.48
loop_
_atom_site_label
_atom_site_type_symbol
_atom_site_fract_x
_atom_site_fract_y
_atom_site_fract_z
Ag1 Ag -0.00679(5) 0.75131(5) 1.02347(4)
Ag2 Ag -0.58113(5) 1.30622(6) 0.32151(3)
Ag3 Ag -0.12726(3) 1.12094(3) 0.53162(2)
Ag4 Ag -0.86968(4) 1.26260(4) 0.98862(3)
Ag5 Ag 0.29178(3) 0.79386(4) 0.34730(2)
Ag6 Ag -0.08774(5) 1.10544(5) 0.69043(3)
S1 S -1.34312(10) 1.67126(11) 0.89170(10)
S2 S -0.43835(9) 1.05059(11) 0.44148(9)
S3 S 0.75771(9) 0.40340(9) 0.42307(8)
S4 S 0.22947(10) 1.55985(10) 0.48323(8)
S5 S -0.14831(9) 1.00698(10) 0.90507(8)
S6 S -0.79942(10) 0.48365(10) 0.86537(8)
N1 N 0.1888(5) 0.8975(4) 0.2266(3)
N2 N 0.4184(4) 0.7642(5) 0.2388(3)
N3 N -0.5099(6) 1.2751(6) 0.1946(4)
N4 N -0.7336(4) 1.3665(4) 0.2488(3)
N5 N 0.0595(3) 1.0564(3) 0.4717(2)
N6 N 0.2426(3) 1.0468(3) 0.4716(3)
N7 N 0.2324(3) 0.8870(3) 0.4481(2)
N8 N 0.0717(3) 1.2178(3) 0.4772(2)
H1 H -0.0019 1.2486 0.4784
N9 N 0.0599(3) 0.8919(3) 0.4527(3)
H2 H 0.1021 0.8207 0.4484
N10 N 0.4059(3) 0.8796(3) 0.4625(3)
H3 H 0.4362 0.9204 0.4675
N11 N -0.0621(6) 0.7784(6) 1.1520(4)
N12 N 0.1554(5) 0.6871(5) 1.0881(3)
N13 N -1.0004(5) 1.2963(5) 1.0922(3)
N14 N -0.7709(5) 1.1594(5) 1.1105(4)
N15 N -0.9926(3) 1.1806(3) 0.8778(3)
H4 H -1.0241 1.1393 0.8759
N16 N -0.6589(3) 0.8454(3) 0.8537(3)
H5 H -0.5857 0.8187 0.8465
N17 N -0.6421(3) 1.1643(4) 0.8816(3)
H6 H -0.6834 1.2377 0.8812
N18 N -0.6462(3) 1.0016(3) 0.8662(3)
N19 N -0.8173(3) 1.1721(3) 0.8890(2)
N20 N -0.8304(3) 1.0132(3) 0.8667(2)
N21 N -0.1816(5) 1.3057(5) 0.6785(3)
N22 N 0.0506(5) 1.1670(5) 0.6738(3)
N23 N -0.2800(4) 1.1072(4) 0.6087(3)
N24 N -0.0649(5) 0.9389(5) 0.6709(3)
C1 C 0.6802(4) 0.6342(4) 0.4200(4)
H7 H 0.7541 0.6222 0.4008
C2 C 0.0188(7) 0.9999(7) 0.1537(6)
H8 H -0.0610 1.0406 0.1539
C3 C 0.4554(7) 0.7989(8) 0.0988(4)
H9 H 0.4275 0.8319 0.0480
C4 C 0.0828(8) 0.9822(7) 0.0851(5)
H10 H 0.0474 1.0086 0.0376
C5 C 0.6113(6) 0.6848(8) 0.1841(5)
H11 H 0.6896 0.6407 0.1918
C6 C 0.5718(8) 0.7354(8) 0.1088(5)
H12 H 0.6233 0.7270 0.0648
C7 C 0.0742(6) 0.9568(6) 0.2220(5)
H13 H 0.0298 0.9691 0.2687
C8 C 0.2012(8) 0.9245(7) 0.0869(4)
H14 H 0.2464 0.9136 0.0402
C9 C 0.3793(5) 0.8136(5) 0.1655(3)
C10 C 0.2522(6) 0.8828(5) 0.1588(3)
C11 C 0.5323(6) 0.7004(7) 0.2488(5)
H15 H 0.5587 0.6661 0.3000
C12 C -0.8001(6) 1.4160(5) 0.1210(4)
H16 H -0.7840 1.4172 0.0674
C13 C -0.8424(6) 1.4096(6) 0.2768(4)
H17 H -0.8572 1.4084 0.3304
C14 C -0.7115(5) 1.3689(5) 0.1711(3)
C15 C -0.9122(6) 1.4609(5) 0.1513(4)
H18 H -0.9724 1.4945 0.1179
C16 C -0.5889(6) 1.3146(6) 0.1430(4)
C17 C -0.9343(6) 1.4558(6) 0.2307(4)
H19 H -1.0091 1.4827 0.2528
C18 C -0.4389(9) 1.2466(11) 0.0444(6)
H20 H -0.4151 1.2389 -0.0072
C19 C -0.5534(8) 1.3035(9) 0.0639(5)
H21 H -0.6074 1.3346 0.0261
C20 C -0.3982(7) 1.2203(11) 0.1726(6)
H22 H -0.3445 1.1941 0.2096
C21 C -0.3588(8) 1.2008(11) 0.0990(6)
H23 H -0.2809 1.1583 0.0868
C22 C -0.1307(4) 1.0466(4) 0.4071(3)
H24 H -0.0998 1.0968 0.3773
C23 C -0.2471(4) 1.0830(4) 0.4056(3)
H25 H -0.2948 1.1580 0.3756
C24 C -0.2918(4) 1.0062(4) 0.4495(3)
C25 C -0.2219(4) 0.8947(4) 0.4957(3)
H26 H -0.2525 0.8440 0.5250
C26 C -0.1053(4) 0.8594(4) 0.4977(3)
H27 H -0.0579 0.7852 0.5288
C27 C -0.0604(3) 0.9349(4) 0.4534(3)
C28 C 0.1162(3) 0.9498(4) 0.4580(3)
C29 C 0.5962(4) 0.7458(4) 0.4278(4)
H28 H 0.6143 0.8081 0.4137
C30 C 0.4852(3) 0.7644(4) 0.4566(3)
C31 C 0.4596(3) 0.6699(4) 0.4793(3)
H29 H 0.3864 0.6808 0.4997
C32 C 0.5440(4) 0.5594(4) 0.4713(3)
H30 H 0.5270 0.4962 0.4865
C33 C 0.6532(3) 0.5421(4) 0.4409(3)
C34 C 0.2904(3) 0.9367(4) 0.4616(3)
C35 C 0.1146(3) 1.2936(4) 0.4793(3)
C36 C 0.2308(4) 1.2602(4) 0.4821(3)
H31 H 0.2862 1.1827 0.4836
C37 C 0.2628(4) 1.3438(4) 0.4825(3)
H32 H 0.3402 1.3217 0.4839
C38 C 0.1818(4) 1.4593(4) 0.4809(3)
C39 C 0.0658(4) 1.4926(4) 0.4791(3)
H33 H 0.0107 1.5698 0.4786
C40 C 0.0325(4) 1.4101(4) 0.4782(3)
H34 H -0.0450 1.4325 0.4768
C41 C 0.1286(3) 1.1041(4) 0.4736(3)
C42 C -0.1999(10) 0.8441(11) 1.2571(7)
H35 H -0.2762 0.8858 1.2736
C43 C 0.3591(7) 0.5998(6) 1.0948(4)
H36 H 0.4313 0.5740 1.0687
C44 C 0.1426(6) 0.6826(5) 1.1664(3)
C45 C -0.0003(9) 0.7386(8) 1.2794(5)
H37 H 0.0590 0.7043 1.3136
C46 C 0.2617(6) 0.6470(6) 1.0543(4)
H38 H 0.2703 0.6514 1.0003
C47 C 0.0227(6) 0.7339(5) 1.2000(4)
C48 C -0.1692(9) 0.8289(11) 1.1809(7)
H39 H -0.2279 0.8560 1.1477
C49 C 0.2383(7) 0.6322(6) 1.2107(4)
H40 H 0.2292 0.6255 1.2651
C50 C -0.1142(11) 0.7958(10) 1.3060(6)
H41 H -0.1312 0.8007 1.3585
C51 C 0.3471(7) 0.5918(6) 1.1739(5)
H42 H 0.4113 0.5596 1.2031
C52 C -1.1947(8) 1.3746(9) 1.1425(5)
H43 H -1.2724 1.4167 1.1324
C53 C -0.8395(7) 1.1781(6) 1.1771(4)
C54 C -0.7905(8) 1.1376(7) 1.2512(5)
H44 H -0.8376 1.1505 1.2969
C55 C -0.9642(6) 1.2457(6) 1.1677(4)
C56 C -0.6579(7) 1.1001(7) 1.1156(5)
H45 H -0.6118 1.0865 1.0696
C57 C -1.0445(8) 1.2612(7) 1.2312(4)
H46 H -1.0198 1.2266 1.2829
C58 C -1.1111(6) 1.3585(8) 1.0809(5)
H47 H -1.1346 1.3936 1.0288
C59 C -1.1588(9) 1.3261(10) 1.2191(5)
H48 H -1.2120 1.3376 1.2621
C60 C -0.6744(10) 1.0796(8) 1.2556(6)
H49 H -0.6421 1.0554 1.3040
C61 C -0.6047(9) 1.0565(8) 1.1887(7)
H50 H -0.5252 1.0138 1.1914
C62 C -1.2686(4) 1.4336(4) 0.9067(4)
H51 H -1.3440 1.4480 0.9224
C63 C -1.1844(4) 1.3200(4) 0.9039(4)
H52 H -1.2038 1.2586 0.9175
C64 C -1.0707(3) 1.2979(4) 0.8808(3)
C65 C -1.0418(3) 1.3903(4) 0.8587(3)
H53 H -0.9667 1.3764 0.8422
C66 C -1.1270(4) 1.5038(4) 0.8615(3)
H54 H -1.1078 1.5655 0.8469
C67 C -1.2393(4) 1.5266(4) 0.8856(3)
C68 C -0.8773(3) 1.1226(4) 0.8775(3)
C69 C -0.4492(4) 1.0033(5) 0.9182(4)
H55 H -0.4766 0.9478 0.9380
C70 C -0.3336(4) 0.9696(4) 0.9226(4)
H56 H -0.2836 0.8912 0.9458
C71 C -0.2935(4) 1.0513(4) 0.8929(3)
C72 C -0.3652(4) 1.1682(4) 0.8555(3)
H57 H -0.3367 1.2226 0.8339
C73 C -0.4807(4) 1.2023(4) 0.8512(4)
H58 H -0.5299 1.2801 0.8262
C74 C -0.5229(4) 1.1208(4) 0.8839(3)
C75 C -0.7016(4) 1.1075(4) 0.8799(3)
C76 C -0.6439(4) 0.5661(4) 0.8544(4)
H59 H -0.5871 0.4899 0.8541
C77 C -0.6138(4) 0.6519(4) 0.8500(4)
H60 H -0.5366 0.6338 0.8450
C78 C -0.6989(4) 0.7674(4) 0.8528(3)
C79 C -0.8138(4) 0.7943(4) 0.8547(3)
H61 H -0.8711 0.8708 0.8537
C80 C -0.8429(4) 0.7082(4) 0.8579(3)
H62 H -0.9200 0.7274 0.8592
C81 C -0.7594(4) 0.5931(4) 0.8594(3)
C82 C -0.7169(3) 0.9569(4) 0.8641(3)
C83 C -0.3625(6) 1.0038(6) 0.7151(4)
H63 H -0.3521 0.9364 0.7564
C84 C -0.3862(5) 1.1954(6) 0.5921(4)
H64 H -0.3942 1.2604 0.5494
C85 C -0.2704(5) 1.0131(6) 0.6693(4)
C86 C -0.4716(6) 1.0976(8) 0.6984(5)
H65 H -0.5358 1.0955 0.7292
C87 C -0.4827(6) 1.1951(8) 0.6342(5)
H66 H -0.5546 1.2585 0.6206
C88 C -0.1515(5) 0.9132(5) 0.6835(3)
C89 C -0.1329(7) 0.7954(6) 0.7020(4)
H67 H -0.1942 0.7779 0.7127
C90 C -0.0205(8) 0.7066(6) 0.7036(5)
H68 H -0.0051 0.6277 0.7170
C91 C 0.0701(7) 0.7364(7) 0.6848(5)
H69 H 0.1461 0.6790 0.6816
C92 C 0.0426(6) 0.8528(7) 0.6715(5)
H70 H 0.1021 0.8728 0.6624
C93 C 0.2431(6) 1.1306(8) 0.6775(5)
H71 H 0.3215 1.0797 0.6758
C94 C 0.1669(6) 1.0953(8) 0.6751(5)
H72 H 0.1943 1.0172 0.6743
C95 C -0.1169(6) 1.3579(7) 0.6736(4)
C96 C -0.2970(6) 1.3719(7) 0.6757(5)
H73 H -0.3415 1.3354 0.6780
C97 C 0.2023(8) 1.2461(10) 0.6825(5)
H74 H 0.2529 1.2722 0.6869
C98 C 0.0111(6) 1.2817(6) 0.6771(3)
C99 C 0.0867(7) 1.3200(8) 0.6807(4)
H75 H 0.0592 1.3979 0.6819
C100 C -0.3506(8) 1.4913(9) 0.6694(6)
H76 H -0.4301 1.5357 0.6680
C101 C -0.1652(8) 1.4755(8) 0.6657(6)
H77 H -0.1186 1.5108 0.6604
C102 C -0.2813(10) 1.5429(10) 0.6653(9)
H78 H -0.3140 1.6230 0.6622
O1 O 0.3354(4) 1.4899(4) 0.5230(4)
O2 O 0.1436(4) 1.6396(5) 0.5248(4)
O3 O 0.2517(9) 1.6134(7) 0.4021(3)
O4 O 0.8347(4) 0.4296(4) 0.3590(3)
O5 O 0.6954(3) 0.3543(4) 0.4030(3)
O6 O 0.8170(3) 0.3313(3) 0.4968(3)
O7 O -0.4455(4) 1.0275(4) 0.3694(3)
O8 O -0.4953(3) 1.1756(4) 0.4373(3)
O9 O -0.4725(3) 0.9786(4) 0.5114(3)
O10 O -1.4320(4) 1.6589(5) 0.9484(4)
O11 O -1.3875(5) 1.7358(4) 0.8134(4)
O12 O -1.2824(4) 1.7169(4) 0.9175(4)
O13 O -0.1131(3) 1.0809(4) 0.8373(2)
O14 O -0.1462(3) 1.0288(4) 0.9797(2)
O15 O -0.0869(3) 0.8822(4) 0.9070(3)
O16 O -0.7549(5) 0.4457(4) 0.7932(3)
O17 O -0.9229(4) 0.5388(4) 0.8750(4)
O18 O -0.7444(4) 0.3846(3) 0.9331(3)
O19 O -0.5229(5) 1.4395(5) 0.3433(4)
O20 O -0.0768(6) 0.6273(5) 0.9964(4)
H79 H -0.133(6) 0.653(6) 0.976(4)
H80 H -0.048(8) 0.589(9) 0.970(6)
H83 H -0.575(6) 1.496(6) 0.363(4)
H86 H -0.462(10) 1.43(2) 0.361(13)
Ag3_2 Ag 0.87274(3) 0.12094(3) 0.53162(2)
Ag4_2 Ag -0.86968(4) 0.26260(4) 0.98862(3)
Ag5_2 Ag 0.29178(3) 1.79386(4) 0.34730(2)
O3_2 O 0.2517(9) 0.6134(7) 0.4021(3)
O6_2 O -0.1830(3) 1.3313(3) 0.4968(3)
O18_2 O -0.7444(4) 1.3846(3) 0.9331(3)
O21 O -0.6869(6) 0.7909(7) 0.6428(5)
H87 H -0.647(8) 0.718(3) 0.643(7)
H88 H -0.615(10) 0.803(10) 0.651(7)
O22 O -0.6238(7) 0.5289(9) 0.6662(5)
H81 H -0.670(7) 0.493(7) 0.712(5)
H82 H -0.613(11) 0.466(7) 0.656(8)
O23 O -0.5113(9) 0.8423(11) 0.6677(5)
H85 H -0.462(4) 0.860(5) 0.637(3)
H84? H -0.521(4) 0.904(4) 0.645(3)
loop_
_geom_bond_atom_site_label_1
_geom_bond_atom_site_label_2
_geom_bond_site_symmetry_1
_geom_bond_site_symmetry_2
Ag1 N11 1_555 1_555
Ag2 N3 1_555 1_555
Ag3 Ag6 1_555 1_555
Ag4 N13 1_555 1_555
Ag5 N1 1_555 1_555
Ag6 N21 1_555 1_555
S1 C67 1_555 1_555
S2 C24 1_555 1_555
S3 C33 1_555 1_555
S4 C38 1_555 1_555
S5 C71 1_555 1_555
S6 C81 1_555 1_555
N1 C7 1_555 1_555
N2 Ag5 1_555 1_555
N3 C16 1_555 1_555
N4 Ag2 1_555 1_555
N5 Ag3 1_555 1_555
N6 C34 1_555 1_555
N7 Ag5 1_555 1_555
N8 H1 1_555 1_555
N9 H2 1_555 1_555
N10 H3 1_555 1_555
N11 C47 1_555 1_555
N12 Ag1 1_555 1_555
N13 C55 1_555 1_555
N14 Ag4 1_555 1_555
N15 H4 1_555 1_555
N16 H5 1_555 1_555
N17 H6 1_555 1_555
N18 C75 1_555 1_555
N19 Ag4 1_555 1_555
N20 C68 1_555 1_555
N21 C95 1_555 1_555
N22 Ag6 1_555 1_555
N23 Ag3 1_555 1_555
N24 Ag6 1_555 1_555
C1 H7 1_555 1_555
C2 H8 1_555 1_555
C3 H9 1_555 1_555
C4 C2 1_555 1_555
H10 C4 1_555 1_555
C5 H11 1_555 1_555
C6 C3 1_555 1_555
H12 C6 1_555 1_555
C7 C2 1_555 1_555
H13 C7 1_555 1_555
C8 C4 1_555 1_555
H14 C8 1_555 1_555
C9 N2 1_555 1_555
C10 N1 1_555 1_555
C11 N2 1_555 1_555
H15 C11 1_555 1_555
C12 H16 1_555 1_555
C13 N4 1_555 1_555
H17 C13 1_555 1_555
C14 N4 1_555 1_555
C15 C12 1_555 1_555
H18 C15 1_555 1_555
C16 C14 1_555 1_555
C17 C13 1_555 1_555
H19 C17 1_555 1_555
C18 H20 1_555 1_555
C19 C16 1_555 1_555
H21 C19 1_555 1_555
C20 N3 1_555 1_555
H22 C20 1_555 1_555
C21 C18 1_555 1_555
H23 C21 1_555 1_555
C22 H24 1_555 1_555
C23 C22 1_555 1_555
H25 C23 1_555 1_555
C24 C23 1_555 1_555
C25 C24 1_555 1_555
H26 C25 1_555 1_555
C26 C25 1_555 1_555
H27 C26 1_555 1_555
C27 N9 1_555 1_555
C28 N5 1_555 1_555
C29 C1 1_555 1_555
H28 C29 1_555 1_555
C30 N10 1_555 1_555
C31 C30 1_555 1_555
H29 C31 1_555 1_555
C32 C31 1_555 1_555
H30 C32 1_555 1_555
C33 C1 1_555 1_555
C34 N7 1_555 1_555
C35 N8 1_555 1_555
C36 C35 1_555 1_555
H31 C36 1_555 1_555
C37 C36 1_555 1_555
H32 C37 1_555 1_555
C38 C37 1_555 1_555
C39 C38 1_555 1_555
H33 C39 1_555 1_555
C40 C35 1_555 1_555
H34 C40 1_555 1_555
C41 N5 1_555 1_555
C42 H35 1_555 1_555
C43 H36 1_555 1_555
C44 N12 1_555 1_555
C45 H37 1_555 1_555
C46 N12 1_555 1_555
H38 C46 1_555 1_555
C47 C44 1_555 1_555
C48 N11 1_555 1_555
H39 C48 1_555 1_555
C49 C44 1_555 1_555
H40 C49 1_555 1_555
C50 C42 1_555 1_555
H41 C50 1_555 1_555
C51 C43 1_555 1_555
H42 C51 1_555 1_555
C52 H43 1_555 1_555
C53 N14 1_555 1_555
C54 C53 1_555 1_555
H44 C54 1_555 1_555
C55 C53 1_555 1_555
C56 N14 1_555 1_555
H45 C56 1_555 1_555
C57 C55 1_555 1_555
H46 C57 1_555 1_555
C58 N13 1_555 1_555
H47 C58 1_555 1_555
C59 C52 1_555 1_555
H48 C59 1_555 1_555
C60 C54 1_555 1_555
H49 C60 1_555 1_555
C61 C56 1_555 1_555
H50 C61 1_555 1_555
C62 H51 1_555 1_555
C63 C62 1_555 1_555
H52 C63 1_555 1_555
C64 N15 1_555 1_555
C65 C64 1_555 1_555
H53 C65 1_555 1_555
C66 C65 1_555 1_555
H54 C66 1_555 1_555
C67 C62 1_555 1_555
C68 N15 1_555 1_555
C69 H55 1_555 1_555
C70 C69 1_555 1_555
H56 C70 1_555 1_555
C71 C70 1_555 1_555
C72 C71 1_555 1_555
H57 C72 1_555 1_555
C73 C72 1_555 1_555
H58 C73 1_555 1_555
C74 N17 1_555 1_555
C75 N17 1_555 1_555
C76 H59 1_555 1_555
C77 C76 1_555 1_555
H60 C77 1_555 1_555
C78 N16 1_555 1_555
C79 C78 1_555 1_555
H61 C79 1_555 1_555
C80 C79 1_555 1_555
H62 C80 1_555 1_555
C81 C76 1_555 1_555
C82 N16 1_555 1_555
C83 H63 1_555 1_555
C84 N23 1_555 1_555
H64 C84 1_555 1_555
C85 N23 1_555 1_555
C86 C83 1_555 1_555
H65 C86 1_555 1_555
C87 C84 1_555 1_555
H66 C87 1_555 1_555
C88 N24 1_555 1_555
C89 C88 1_555 1_555
H67 C89 1_555 1_555
C90 C89 1_555 1_555
H68 C90 1_555 1_555
C91 C90 1_555 1_555
H69 C91 1_555 1_555
C92 N24 1_555 1_555
H70 C92 1_555 1_555
C93 H71 1_555 1_555
C94 N22 1_555 1_555
H72 C94 1_555 1_555
C95 C98 1_555 1_555
C96 N21 1_555 1_555
H73 C96 1_555 1_555
C97 C93 1_555 1_555
H74 C97 1_555 1_555
C98 N22 1_555 1_555
C99 C97 1_555 1_555
H75 C99 1_555 1_555
C100 C96 1_555 1_555
H76 C100 1_555 1_555
C101 C95 1_555 1_555
H77 C101 1_555 1_555
C102 C100 1_555 1_555
H78 C102 1_555 1_555
O1 S4 1_555 1_555
O2 S4 1_555 1_555
O3 S4 1_555 1_555
O4 S3 1_555 1_555
O5 S3 1_555 1_555
O6 S3 1_555 1_555
O7 S2 1_555 1_555
O8 Ag2 1_555 1_555
O9 S2 1_555 1_555
O10 S1 1_555 1_555
O11 S1 1_555 1_555
O12 S1 1_555 1_555
O13 Ag6 1_555 1_555
O14 S5 1_555 1_555
O15 Ag1 1_555 1_555
O16 S6 1_555 1_555
O17 S6 1_555 1_555
O18 S6 1_555 1_555
O19 Ag2 1_555 1_555
O20 Ag1 1_555 1_555
O21 H87 1_555 1_555
O22 H81 1_555 1_555
O23 H85 1_555 1_555
H79 O20 1_555 1_555
H80 O20 1_555 1_555
H82 O22 1_555 1_555
H83 O19 1_555 1_555
H86 O19 1_555 1_555
H88 O21 1_555 1_555
Ag3_2 O6 1_555 1_555
Ag4_2 O18 1_555 1_555
Ag5_2 O3 1_555 1_555
O3_2 Ag5 1_555 1_555
O6_2 Ag3 1_555 1_555
O18_2 Ag4 1_555 1_555
S2 O8 1_555 1_555
S5 O13 1_555 1_555
S5 O15 1_555 1_555
N6 C41 1_555 1_555
N7 C28 1_555 1_555
N8 C41 1_555 1_555
N9 C28 1_555 1_555
N10 C34 1_555 1_555
N18 C82 1_555 1_555
N19 C68 1_555 1_555
N19 C75 1_555 1_555
N20 C82 1_555 1_555
C3 C9 1_555 1_555
C5 C6 1_555 1_555
C5 C11 1_555 1_555
C8 C10 1_555 1_555
C9 C10 1_555 1_555
C12 C14 1_555 1_555
C15 C17 1_555 1_555
C18 C19 1_555 1_555
C20 C21 1_555 1_555
C22 C27 1_555 1_555
C26 C27 1_555 1_555
C29 C30 1_555 1_555
C32 C33 1_555 1_555
C39 C40 1_555 1_555
C42 C48 1_555 1_555
C43 C46 1_555 1_555
C45 C47 1_555 1_555
C45 C50 1_555 1_555
C49 C51 1_555 1_555
C52 C58 1_555 1_555
C57 C59 1_555 1_555
C60 C61 1_555 1_555
C63 C64 1_555 1_555
C66 C67 1_555 1_555
C69 C74 1_555 1_555
C73 C74 1_555 1_555
C77 C78 1_555 1_555
C80 C81 1_555 1_555
C83 C85 1_555 1_555
C85 C88 1_555 1_555
C86 C87 1_555 1_555
C91 C92 1_555 1_555
C93 C94 1_555 1_555
C98 C99 1_555 1_555
C101 C102 1_555 1_555

#END
