
#######################################################################
#
#                 Cambridge Crystallographic Data Centre
#                                CCDC 
#
#######################################################################
#
# If this CIF has been generated from an entry in the Cambridge 
# Structural Database, then it will include bibliographic, chemical, 
# crystal, experimental, refinement or atomic coordinate data resulting 
# from the CCDC's data processing and validation procedures.
#
#######################################################################

data_RIQSEQ
_symmetry_cell_setting           monoclinic
_symmetry_space_group_name_H-M   'P 21/c'
_symmetry_Int_Tables_number      14
_space_group_name_Hall           '-P 2ybc'
loop_
_symmetry_equiv_pos_site_id
_symmetry_equiv_pos_as_xyz
1 x,y,z
2 -x,1/2+y,1/2-z
3 -x,-y,-z
4 x,1/2-y,1/2+z
_cell_length_a                   6.4667(2)
_cell_length_b                   22.3304(8)
_cell_length_c                   7.5362(3)
_cell_angle_alpha                90
_cell_angle_beta                 90.073(1)
_cell_angle_gamma                90
_cell_volume                     1088.26
loop_
_atom_site_label
_atom_site_type_symbol
_atom_site_fract_x
_atom_site_fract_y
_atom_site_fract_z
K1 K 0.17497(4) 0.556204(12) 0.25426(3)
N1 N 0.65787(16) 0.60657(5) -0.00862(14)
N2 N 0.47506(16) 0.57776(5) -0.01623(14)
N3 N 0.26220(18) 0.53697(5) -0.24318(14)
N4 N 0.59495(15) 0.67564(5) 0.25150(13)
N5 N 0.42010(16) 0.65694(5) 0.33277(14)
N6 N 0.12832(17) 0.70374(5) 0.46563(15)
O1 O 0.12947(15) 0.52562(4) -0.13032(13)
O2 O 0.24310(18) 0.52334(4) -0.40072(12)
O3 O 0.06605(16) 0.65418(5) 0.51483(14)
O4 O 0.03468(16) 0.75078(5) 0.49205(16)
B1 B 0.7465(2) 0.62843(6) 0.17389(19)
C1 C 0.4482(2) 0.56683(6) -0.18903(17)
C2 C 0.6100(2) 0.58754(6) -0.29567(18)
C3 C 0.7410(2) 0.61292(6) -0.17303(17)
C4 C 0.32212(19) 0.70752(6) 0.37248(16)
C5 C 0.4266(2) 0.75913(6) 0.32037(17)
C6 C 0.6023(2) 0.73632(6) 0.24273(17)
H1 H 0.623(2) 0.5861(7) -0.416(2)
H2 H 0.865(3) 0.6342(8) -0.187(2)
H3 H 0.387(2) 0.7980(8) 0.336(2)
H4 H 0.712(2) 0.7556(7) 0.191(2)
H5 H 0.898(2) 0.6485(6) 0.1443(19)
H6 H 0.752(2) 0.5886(7) 0.2686(19)
K1B K -0.17497(4) 0.443796(12) -0.25426(3)
K1_2 K 0.17497(4) 0.556204(12) -0.74574(3)
O1B O -0.12947(15) 0.47438(4) 0.13032(13)
O2_2 O 0.24310(18) 0.52334(4) 0.59928(12)
O2B O -0.24310(18) 0.47666(4) 0.40072(12)
loop_
_geom_bond_atom_site_label_1
_geom_bond_atom_site_label_2
_geom_bond_site_symmetry_1
_geom_bond_site_symmetry_2
K1 N2 1_555 1_555
N1 N2 1_555 1_555
N2 C1 1_555 1_555
N3 O1 1_555 1_555
N4 N5 1_555 1_555
N5 K1 1_555 1_555
N6 O3 1_555 1_555
O1 K1 1_555 1_555
O2 N3 1_555 1_555
O3 K1 1_555 1_555
O4 N6 1_555 1_555
B1 N1 1_555 1_555
C1 N3 1_555 1_555
C2 C1 1_555 1_555
C3 N1 1_555 1_555
C4 N5 1_555 1_555
C5 C4 1_555 1_555
C6 N4 1_555 1_555
H1 C2 1_555 1_555
H2 C3 1_555 1_555
H3 C5 1_555 1_555
H4 C6 1_555 1_555
H5 B1 1_555 1_555
H6 B1 1_555 1_555
K1B O1 1_555 1_555
K1_2 O2 1_555 1_555
O1B K1 1_555 1_555
O2_2 K1 1_555 1_555
O2B K1 1_555 1_555
N4 B1 1_555 1_555
N6 C4 1_555 1_555
O2 K1B 1_555 1_555
C2 C3 1_555 1_555
C5 C6 1_555 1_555
K1B O1B 1_555 1_555

#END
