
#######################################################################
#
#                 Cambridge Crystallographic Data Centre
#                                CCDC 
#
#######################################################################
#
# If this CIF has been generated from an entry in the Cambridge 
# Structural Database, then it will include bibliographic, chemical, 
# crystal, experimental, refinement or atomic coordinate data resulting 
# from the CCDC's data processing and validation procedures.
#
#######################################################################

data_RIRBOK
_symmetry_cell_setting           monoclinic
_symmetry_space_group_name_H-M   'P 21/c'
_symmetry_Int_Tables_number      14
_space_group_name_Hall           '-P 2ybc'
loop_
_symmetry_equiv_pos_site_id
_symmetry_equiv_pos_as_xyz
1 x,y,z
2 -x,1/2+y,1/2-z
3 -x,-y,-z
4 x,1/2-y,1/2+z
_cell_length_a                   9.4500(3)
_cell_length_b                   12.5440(3)
_cell_length_c                   16.8530(5)
_cell_angle_alpha                90
_cell_angle_beta                 101.2430(10)
_cell_angle_gamma                90
_cell_volume                     1959.43
loop_
_atom_site_label
_atom_site_type_symbol
_atom_site_fract_x
_atom_site_fract_y
_atom_site_fract_z
Fe1 Fe -0.14740(7) 0.49536(4) -0.23484(3)
Ag1 Ag -0.23577(5) 0.27702(3) 0.02139(2)
Ag2 Ag -0.07486(4) 0.72954(3) -0.48928(2)
Br1 Br 0.39765(8) 0.36852(11) -0.01262(4)
Br2 Br -0.71866(7) 0.51628(6) -0.45384(4)
N1 N 0.0793(4) 0.4323(3) -0.2087(2)
N2 N -0.3776(4) 0.5504(3) -0.2649(2)
N3 N -0.2052(5) 0.4001(3) -0.1401(2)
N4 N -0.2054(5) 0.3670(3) -0.3199(2)
N5 N -0.0983(4) 0.5916(3) -0.3321(2)
N6 N -0.0948(4) 0.6191(3) -0.1445(2)
C1 C 0.1355(6) 0.3929(4) -0.2691(3)
H1 H 0.0803 0.3953 -0.3211
C2 C 0.2712(6) 0.3486(4) -0.2584(3)
H2 H 0.3068 0.3234 -0.3026
C3 C 0.3526(6) 0.3420(4) -0.1825(3)
H3 H 0.4446 0.3124 -0.1735
C4 C 0.2941(6) 0.3806(5) -0.1195(3)
C5 C 0.1600(6) 0.4255(4) -0.1345(3)
H4 H 0.1233 0.4523 -0.0912
C6 C -0.4370(6) 0.5995(4) -0.2090(3)
H5 H -0.3799 0.6126 -0.1584
C7 C -0.5783(6) 0.6314(5) -0.2232(3)
H6 H -0.6148 0.6665 -0.1829
C8 C -0.6663(6) 0.6116(5) -0.2969(4)
H7 H -0.7626 0.6324 -0.3078
C9 C -0.6045(5) 0.5590(4) -0.3542(3)
C10 C -0.4619(6) 0.5315(4) -0.3362(3)
H8 H -0.4220 0.4979 -0.3759
C11 C -0.2252(5) 0.3572(4) -0.0843(3)
C12 C -0.2265(6) 0.3105(4) -0.3735(3)
C13 C -0.0855(5) 0.6390(4) -0.3877(3)
C14 C -0.0837(5) 0.6763(4) -0.0915(3)
Ag1C Ag -0.23577(5) 0.22298(3) -0.47861(2)
Ag2C Ag -0.07486(4) 0.77046(3) 0.01072(2)
C12C C -0.2265(6) 0.1895(4) 0.1265(3)
C14C C -0.0837(5) 0.8237(4) -0.5915(3)
loop_
_geom_bond_atom_site_label_1
_geom_bond_atom_site_label_2
_geom_bond_site_symmetry_1
_geom_bond_site_symmetry_2
Fe1 N1 1_555 1_555
Ag1 C11 1_555 1_555
Ag2 C13 1_555 1_555
Br1 C4 1_555 1_555
Br2 C9 1_555 1_555
N1 C1 1_555 1_555
N2 Fe1 1_555 1_555
N3 Fe1 1_555 1_555
N4 Fe1 1_555 1_555
N5 Fe1 1_555 1_555
N6 Fe1 1_555 1_555
C1 H1 1_555 1_555
C2 C1 1_555 1_555
H2 C2 1_555 1_555
C3 C2 1_555 1_555
H3 C3 1_555 1_555
C4 C3 1_555 1_555
C5 N1 1_555 1_555
H4 C5 1_555 1_555
C6 N2 1_555 1_555
H5 C6 1_555 1_555
C7 C6 1_555 1_555
H6 C7 1_555 1_555
C8 C7 1_555 1_555
H7 C8 1_555 1_555
C9 C8 1_555 1_555
C10 N2 1_555 1_555
H8 C10 1_555 1_555
C11 N3 1_555 1_555
C12 N4 1_555 1_555
C13 N5 1_555 1_555
C14 N6 1_555 1_555
Ag1C C12 1_555 1_555
Ag2C C14 1_555 1_555
C12C Ag1 1_555 1_555
C14C Ag2 1_555 1_555
C4 C5 1_555 1_555
C9 C10 1_555 1_555

#END
