
#######################################################################
#
#                 Cambridge Crystallographic Data Centre
#                                CCDC 
#
#######################################################################
#
# If this CIF has been generated from an entry in the Cambridge 
# Structural Database, then it will include bibliographic, chemical, 
# crystal, experimental, refinement or atomic coordinate data resulting 
# from the CCDC's data processing and validation procedures.
#
#######################################################################

data_RIRBUQ
_symmetry_cell_setting           monoclinic
_symmetry_space_group_name_H-M   'C 2/c'
_symmetry_Int_Tables_number      15
_space_group_name_Hall           '-C 2yn'
loop_
_symmetry_equiv_pos_site_id
_symmetry_equiv_pos_as_xyz
1 x,y,z
2 1/2+x,1/2+y,z
3 -x,y,1/2-z
4 1/2-x,1/2+y,1/2-z
5 -x,-y,-z
6 1/2-x,1/2-y,-z
7 x,-y,1/2+z
8 1/2+x,1/2-y,1/2+z
_cell_length_a                   16.7860(7)
_cell_length_b                   12.8930(6)
_cell_length_c                   19.1560(10)
_cell_angle_alpha                90
_cell_angle_beta                 97.442(2)
_cell_angle_gamma                90
_cell_volume                     4110.86
loop_
_atom_site_label
_atom_site_type_symbol
_atom_site_fract_x
_atom_site_fract_y
_atom_site_fract_z
Fe1 Fe 0.25322(6) 0.38373(8) 0.17236(6)
Ag1 Ag 0.49947(4) 0.63777(5) 0.16452(4)
Ag2 Ag 0.50907(4) 0.14078(5) 0.17408(4)
I1 I 0.46600(4) 0.38273(6) 0.45422(4)
I2 I 0.05508(4) 0.59422(5) -0.07985(4)
N1 N 0.2766(3) 0.3317(5) 0.2859(3)
N2 N 0.2332(4) 0.4249(5) 0.0567(3)
N3 N 0.3500(4) 0.4952(5) 0.1850(4)
N4 N 0.3444(4) 0.2703(5) 0.1557(4)
N5 N 0.1690(4) 0.5009(5) 0.1959(4)
N6 N 0.1524(3) 0.2805(5) 0.1537(4)
C1 C 0.2277(5) 0.2676(7) 0.3144(5)
H1 H 0.1807 0.2463 0.2870
C2 C 0.2428(5) 0.2311(7) 0.3826(5)
H2 H 0.2071 0.1863 0.4004
C3 C 0.3111(5) 0.2622(7) 0.4230(5)
H3 H 0.3227 0.2394 0.4693
C4 C 0.3620(5) 0.3266(7) 0.3952(4)
C5 C 0.3434(5) 0.3602(6) 0.3258(4)
H4 H 0.3790 0.4042 0.3070
C6 C 0.2864(5) 0.3982(7) 0.0138(5)
H5 H 0.3320 0.3615 0.0323
C7 C 0.2768(6) 0.4225(8) -0.0556(5)
H6 H 0.3153 0.4014 -0.0835
C8 C 0.2113(6) 0.4778(7) -0.0852(5)
H7 H 0.2042 0.4943 -0.1329
C9 C 0.1566(4) 0.5077(6) -0.0416(4)
C10 C 0.1687(4) 0.4795(6) 0.0282(4)
H8 H 0.1307 0.4989 0.0569
C11 C 0.4030(5) 0.5456(6) 0.1790(4)
C12 C 0.4034(5) 0.2254(6) 0.1598(5)
C13 C 0.1145(5) 0.5543(6) 0.1916(4)
C14 C 0.0967(5) 0.2308(6) 0.1542(5)
Ag1A Ag -0.00053(4) 0.13777(5) 0.16452(4)
Ag2A Ag 0.00907(4) 0.64078(5) 0.17408(4)
C13A C 0.6145(5) 0.0543(6) 0.1916(4)
C14A C 0.5967(5) 0.7308(6) 0.1542(5)
loop_
_geom_bond_atom_site_label_1
_geom_bond_atom_site_label_2
_geom_bond_site_symmetry_1
_geom_bond_site_symmetry_2
Fe1 N1 1_555 1_555
Ag1 C11 1_555 1_555
Ag2 C12 1_555 1_555
I1 C4 1_555 1_555
I2 C9 1_555 1_555
N1 C1 1_555 1_555
N2 Fe1 1_555 1_555
N3 Fe1 1_555 1_555
N4 Fe1 1_555 1_555
N5 Fe1 1_555 1_555
N6 Fe1 1_555 1_555
C1 H1 1_555 1_555
C2 C1 1_555 1_555
H2 C2 1_555 1_555
C3 C2 1_555 1_555
H3 C3 1_555 1_555
C4 C3 1_555 1_555
C5 N1 1_555 1_555
H4 C5 1_555 1_555
C6 N2 1_555 1_555
H5 C6 1_555 1_555
C7 C6 1_555 1_555
H6 C7 1_555 1_555
C8 C7 1_555 1_555
H7 C8 1_555 1_555
C9 C8 1_555 1_555
C10 N2 1_555 1_555
H8 C10 1_555 1_555
C11 N3 1_555 1_555
C12 N4 1_555 1_555
C13 N5 1_555 1_555
C14 N6 1_555 1_555
Ag1A C14 1_555 1_555
Ag2A C13 1_555 1_555
C13A Ag2 1_555 1_555
C14A Ag1 1_555 1_555
C4 C5 1_555 1_555
C9 C10 1_555 1_555

#END
