
#######################################################################
#
#                 Cambridge Crystallographic Data Centre
#                                CCDC 
#
#######################################################################
#
# If this CIF has been generated from an entry in the Cambridge 
# Structural Database, then it will include bibliographic, chemical, 
# crystal, experimental, refinement or atomic coordinate data resulting 
# from the CCDC's data processing and validation procedures.
#
#######################################################################

data_RIRBIE
_symmetry_cell_setting           monoclinic
_symmetry_space_group_name_H-M   'P 21/c'
_symmetry_Int_Tables_number      14
_space_group_name_Hall           '-P 2ybc'
loop_
_symmetry_equiv_pos_site_id
_symmetry_equiv_pos_as_xyz
1 x,y,z
2 -x,1/2+y,1/2-z
3 -x,-y,-z
4 x,1/2-y,1/2+z
_cell_length_a                   9.2580(2)
_cell_length_b                   12.9500(3)
_cell_length_c                   16.5700(4)
_cell_angle_alpha                90
_cell_angle_beta                 99.437(2)
_cell_angle_gamma                90
_cell_volume                     1959.71
loop_
_atom_site_label
_atom_site_type_symbol
_atom_site_fract_x
_atom_site_fract_y
_atom_site_fract_z
Fe1 Fe 0.84540(7) 0.50319(5) 0.26385(3)
Ag1 Ag 0.76588(5) 0.77185(3) 0.02038(2)
Ag2 Ag 0.91477(5) 0.26682(3) 0.00966(2)
Cl1 Cl 0.2862(2) 0.47347(19) 0.05132(11)
Cl2 Cl 1.3895(2) 0.6063(3) 0.47710(12)
N1 N 0.6131(5) 0.4499(3) 0.2359(2)
N2 N 1.0760(5) 0.5650(3) 0.2899(3)
N3 N 0.8965(5) 0.4078(3) 0.1662(2)
N4 N 0.7900(5) 0.6269(3) 0.1769(2)
N5 N 0.7863(5) 0.5975(3) 0.3595(2)
N6 N 0.8972(5) 0.3832(3) 0.3541(2)
C1 C 0.5477(6) 0.4037(4) 0.2925(3)
H1 H 0.6022 0.3923 0.3440
C2 C 0.4052(7) 0.3724(5) 0.2783(4)
H2 H 0.3649 0.3394 0.3192
C3 C 0.3217(7) 0.3899(5) 0.2035(4)
H3 H 0.2246 0.3685 0.1921
C4 C 0.3871(6) 0.4406(5) 0.1450(3)
C5 C 0.5310(6) 0.4670(4) 0.1623(3)
H4 H 0.5744 0.4980 0.1217
C6 C 1.1356(7) 0.6093(5) 0.2305(4)
H5 H 1.0805 0.6110 0.1783
C7 C 1.2729(8) 0.6526(5) 0.2413(4)
H6 H 1.3100 0.6817 0.1977
C8 C 1.3520(7) 0.6514(5) 0.3171(4)
H7 H 1.4452 0.6802 0.3267
C9 C 1.2955(7) 0.6083(5) 0.3788(4)
C10 C 1.1548(6) 0.5647(5) 0.3641(3)
H8 H 1.1164 0.5352 0.4072
C11 C 0.9063(6) 0.3586(4) 0.1106(3)
C12 C 0.7717(6) 0.6817(4) 0.1240(3)
C13 C 0.7703(6) 0.6435(4) 0.4158(3)
C14 C 0.9056(6) 0.3270(4) 0.4077(3)
Ag1C Ag 0.76588(5) 0.72815(3) 0.52038(2)
Ag2C Ag 0.91477(5) 0.23318(3) 0.50966(2)
C13C C 0.7703(6) 0.8565(4) -0.0842(3)
C14C C 0.9056(6) 0.1730(4) -0.0923(3)
loop_
_geom_bond_atom_site_label_1
_geom_bond_atom_site_label_2
_geom_bond_site_symmetry_1
_geom_bond_site_symmetry_2
Fe1 N1 1_555 1_555
Ag1 C12 1_555 1_555
Ag2 C11 1_555 1_555
Cl1 C4 1_555 1_555
Cl2 C9 1_555 1_555
N1 C1 1_555 1_555
N2 Fe1 1_555 1_555
N3 Fe1 1_555 1_555
N4 Fe1 1_555 1_555
N5 Fe1 1_555 1_555
N6 Fe1 1_555 1_555
C1 H1 1_555 1_555
C2 C1 1_555 1_555
H2 C2 1_555 1_555
C3 C2 1_555 1_555
H3 C3 1_555 1_555
C4 C3 1_555 1_555
C5 N1 1_555 1_555
H4 C5 1_555 1_555
C6 N2 1_555 1_555
H5 C6 1_555 1_555
C7 C6 1_555 1_555
H6 C7 1_555 1_555
C8 C7 1_555 1_555
H7 C8 1_555 1_555
C9 C8 1_555 1_555
C10 N2 1_555 1_555
H8 C10 1_555 1_555
C11 N3 1_555 1_555
C12 N4 1_555 1_555
C13 N5 1_555 1_555
C14 N6 1_555 1_555
Ag1C C13 1_555 1_555
Ag2C C14 1_555 1_555
C13C Ag1 1_555 1_555
C14C Ag2 1_555 1_555
C4 C5 1_555 1_555
C9 C10 1_555 1_555

#END
