
#######################################################################
#
#                 Cambridge Crystallographic Data Centre
#                                CCDC 
#
#######################################################################
#
# If this CIF has been generated from an entry in the Cambridge 
# Structural Database, then it will include bibliographic, chemical, 
# crystal, experimental, refinement or atomic coordinate data resulting 
# from the CCDC's data processing and validation procedures.
#
#######################################################################

data_RIRYOI
_symmetry_cell_setting           monoclinic
_symmetry_space_group_name_H-M   'P 21/c'
_symmetry_Int_Tables_number      14
_space_group_name_Hall           '-P 2ybc'
loop_
_symmetry_equiv_pos_site_id
_symmetry_equiv_pos_as_xyz
1 x,y,z
2 -x,1/2+y,1/2-z
3 -x,-y,-z
4 x,1/2-y,1/2+z
_cell_length_a                   10.5187(3)
_cell_length_b                   9.6350(3)
_cell_length_c                   15.3310(4)
_cell_angle_alpha                90
_cell_angle_beta                 102.261(2)
_cell_angle_gamma                90
_cell_volume                     1518.32
loop_
_atom_site_label
_atom_site_type_symbol
_atom_site_fract_x
_atom_site_fract_y
_atom_site_fract_z
C1 C 0.1625(2) 0.5096(2) 0.23569(16)
H1 H 0.2545 0.5276 0.2575
H2 H 0.1402 0.4267 0.2650
Ni1 Ni 0.0000 0.0000 0.0000
S1 S -0.39138(8) -0.13043(9) 0.08936(6)
N1 N 0.04037(18) 0.39223(17) 0.11340(13)
N2 N -0.02316(18) 0.20049(18) 0.05162(12)
O1 O 0.13768(16) 0.48732(15) 0.14282(11)
N3 N 0.1245(2) 0.74506(18) 0.22069(13)
N4 N 0.04026(19) 0.80149(19) 0.15322(13)
O2 O 0.08866(17) 0.62439(15) 0.25743(10)
N5 N 0.07888(19) 0.26395(18) 0.09699(13)
C2 C 0.2156(2) 0.9306(2) 0.18625(16)
N6 N 0.09394(18) 0.91593(18) 0.13122(13)
N7 N -0.1740(2) -0.0548(2) 0.02480(14)
C3 C -0.0859(2) 0.4181(2) 0.07394(15)
C4 C 0.2372(2) 0.8181(2) 0.24503(15)
C5 C -0.1658(2) 0.5348(2) 0.06782(17)
H3 H -0.1364 0.6191 0.0941
C6 C -0.2651(2) -0.0873(2) 0.05060(16)
C7 C -0.2564(2) 0.2738(2) -0.01038(15)
H4 H -0.2870 0.1890 -0.0353
C8 C -0.1282(2) 0.2904(2) 0.03600(15)
C9 C -0.3351(2) 0.3880(2) -0.01764(16)
H5 H -0.4209 0.3808 -0.0488
C10 C 0.4450(3) 0.8972(3) 0.30851(18)
H6 H 0.5248 0.8877 0.3481
C11 C -0.2896(3) 0.5166(2) 0.02080(17)
H7 H -0.3464 0.5917 0.0137
C12 C 0.3112(3) 1.0326(3) 0.19056(18)
H8 H 0.2984 1.1097 0.1532
C13 C 0.3523(2) 0.7975(3) 0.30727(16)
H9 H 0.3654 0.7213 0.3454
C14 C 0.4238(3) 1.0138(3) 0.25193(19)
H10 H 0.4891 1.0802 0.2567
C1B C -0.1625(2) -0.5096(2) -0.23569(16)
H1B H -0.2545 -0.5276 -0.2575
H2B H -0.1402 -0.4267 -0.2650
S1B S 0.39138(8) 0.13043(9) -0.08936(6)
N1B N -0.04037(18) -0.39223(17) -0.11340(13)
N2B N 0.02316(18) -0.20049(18) -0.05162(12)
O1B O -0.13768(16) -0.48732(15) -0.14282(11)
N3B N -0.1245(2) -0.74506(18) -0.22069(13)
N4B N -0.04026(19) -0.80149(19) -0.15322(13)
O2B O -0.08866(17) -0.62439(15) -0.25743(10)
N5B N -0.07888(19) -0.26395(18) -0.09699(13)
C2B C -0.2156(2) -0.9306(2) -0.18625(16)
N6B N -0.09394(18) -0.91593(18) -0.13122(13)
N7B N 0.1740(2) 0.0548(2) -0.02480(14)
C3B C 0.0859(2) -0.4181(2) -0.07394(15)
C4B C -0.2372(2) -0.8181(2) -0.24503(15)
C5B C 0.1658(2) -0.5348(2) -0.06782(17)
H3B H 0.1364 -0.6191 -0.0941
C6B C 0.2651(2) 0.0873(2) -0.05060(16)
C7B C 0.2564(2) -0.2738(2) 0.01038(15)
H4B H 0.2870 -0.1890 0.0353
C8B C 0.1282(2) -0.2904(2) -0.03600(15)
C9B C 0.3351(2) -0.3880(2) 0.01764(16)
H5B H 0.4209 -0.3808 0.0488
C10B C -0.4450(3) -0.8972(3) -0.30851(18)
H6B H -0.5248 -0.8877 -0.3481
C11B C 0.2896(3) -0.5166(2) -0.02080(17)
H7B H 0.3464 -0.5917 -0.0137
C12B C -0.3112(3) -1.0326(3) -0.19056(18)
H8B H -0.2984 -1.1097 -0.1532
C13B C -0.3523(2) -0.7975(3) -0.30727(16)
H9B H -0.3654 -0.7213 -0.3454
C14B C -0.4238(3) -1.0138(3) -0.25193(19)
H10B H -0.4891 -1.0802 -0.2567
Ni1_2 Ni 0.0000 -1.0000 0.0000
Ni1_3 Ni 0.0000 1.0000 0.0000
N6_2 N 0.09394(18) -0.08407(18) 0.13122(13)
N6B_2 N -0.09394(18) 0.08407(18) -0.13122(13)
loop_
_geom_bond_atom_site_label_1
_geom_bond_atom_site_label_2
_geom_bond_site_symmetry_1
_geom_bond_site_symmetry_2
C1 H1 1_555 1_555
H2 C1 1_555 1_555
Ni1 N2 1_555 1_555
S1 C6 1_555 1_555
N1 O1 1_555 1_555
N2 N5 1_555 1_555
O1 C1 1_555 1_555
N3 N4 1_555 1_555
N4 N6 1_555 1_555
O2 C1 1_555 1_555
N5 N1 1_555 1_555
C2 N6 1_555 1_555
N6 Ni1_3 1_555 1_555
N7 Ni1 1_555 1_555
C3 N1 1_555 1_555
C4 N3 1_555 1_555
C5 C3 1_555 1_555
H3 C5 1_555 1_555
C6 N7 1_555 1_555
C7 H4 1_555 1_555
C8 N2 1_555 1_555
C9 C7 1_555 1_555
H5 C9 1_555 1_555
C10 H6 1_555 1_555
C11 C5 1_555 1_555
H7 C11 1_555 1_555
C12 C2 1_555 1_555
H8 C12 1_555 1_555
C13 C4 1_555 1_555
H9 C13 1_555 1_555
C14 C10 1_555 1_555
H10 C14 1_555 1_555
C1B H1B 1_555 1_555
H2B C1B 1_555 1_555
S1B C6B 1_555 1_555
N1B O1B 1_555 1_555
N2B Ni1 1_555 1_555
O1B C1B 1_555 1_555
N3B N4B 1_555 1_555
N4B N6B 1_555 1_555
O2B C1B 1_555 1_555
N5B N1B 1_555 1_555
C2B N6B 1_555 1_555
N6B Ni1_2 1_555 1_555
N7B Ni1 1_555 1_555
C3B N1B 1_555 1_555
C4B N3B 1_555 1_555
C5B C3B 1_555 1_555
H3B C5B 1_555 1_555
C6B N7B 1_555 1_555
C7B H4B 1_555 1_555
C8B N2B 1_555 1_555
C9B C7B 1_555 1_555
H5B C9B 1_555 1_555
C10B H6B 1_555 1_555
C11B C5B 1_555 1_555
H7B C11B 1_555 1_555
C12B C2B 1_555 1_555
H8B C12B 1_555 1_555
C13B C4B 1_555 1_555
H9B C13B 1_555 1_555
C14B C10B 1_555 1_555
H10B C14B 1_555 1_555
N6_2 Ni1 1_555 1_555
N6B_2 Ni1 1_555 1_555
N3 O2 1_555 1_555
C2 C4 1_555 1_555
C3 C8 1_555 1_555
C7 C8 1_555 1_555
C9 C11 1_555 1_555
C10 C13 1_555 1_555
C12 C14 1_555 1_555
N2B N5B 1_555 1_555
N3B O2B 1_555 1_555
C2B C4B 1_555 1_555
C3B C8B 1_555 1_555
C7B C8B 1_555 1_555
C9B C11B 1_555 1_555
C10B C13B 1_555 1_555
C12B C14B 1_555 1_555

#END
