
#######################################################################
#
#                 Cambridge Crystallographic Data Centre
#                                CCDC 
#
#######################################################################
#
# If this CIF has been generated from an entry in the Cambridge 
# Structural Database, then it will include bibliographic, chemical, 
# crystal, experimental, refinement or atomic coordinate data resulting 
# from the CCDC's data processing and validation procedures.
#
#######################################################################

data_RISCIH
_symmetry_cell_setting           orthorhombic
_symmetry_space_group_name_H-M   'P c c a'
_symmetry_Int_Tables_number      54
_space_group_name_Hall           '-P 2a 2ac'
loop_
_symmetry_equiv_pos_site_id
_symmetry_equiv_pos_as_xyz
1 x,y,z
2 1/2-x,-y,z
3 -x,y,1/2-z
4 1/2+x,-y,1/2-z
5 -x,-y,-z
6 1/2+x,y,-z
7 x,-y,1/2+z
8 1/2-x,y,1/2+z
_cell_length_a                   19.414(4)
_cell_length_b                   13.605(2)
_cell_length_c                   16.216(3)
_cell_angle_alpha                90
_cell_angle_beta                 90
_cell_angle_gamma                90
_cell_volume                     4283.09
loop_
_atom_site_label
_atom_site_type_symbol
_atom_site_fract_x
_atom_site_fract_y
_atom_site_fract_z
O1 O 0.78227(10) 0.85799(15) 0.20472(13)
Co1 Co 0.7500 1.0000 0.23280(3)
O2 O 0.69790(11) 0.91812(15) 0.13132(12)
N1 N 0.5000 0.7126(2) 0.7500
C1 C 0.57797(14) 0.8938(2) 0.60813(17)
H1 H 0.6021 0.9527 0.6112
N2 N 0.67831(12) 0.95514(18) 0.32208(14)
F1 F 0.68775(15) 0.39767(16) -0.15399(14)
C2 C 0.50188(15) 0.7235(2) 0.60055(18)
H2 H 0.4743 0.6677 0.5976
C3 C 0.56599(14) 0.8511(2) 0.53147(17)
C4 C 0.55466(14) 0.8500(2) 0.67957(17)
H3 H 0.5636 0.8796 0.7302
C5 C 0.51833(14) 0.7633(2) 0.67700(17)
C6 C 0.74172(14) 0.7618(2) 0.09253(18)
C7 C 0.74418(15) 0.5933(2) -0.00691(18)
C8 C 0.66666(17) 0.8602(2) 0.33594(19)
H4 H 0.6853 0.8149 0.2992
C9 C 0.69842(18) 0.7524(2) 0.0258(2)
H5 H 0.6674 0.8026 0.0139
F2 F 0.68269(15) 0.55269(16) -0.17651(13)
C10 C 0.64898(17) 1.0168(2) 0.3753(2)
H6 H 0.6551 1.0839 0.3667
C11 C 0.60088(14) 0.8887(2) 0.45754(17)
C12 C 0.5000 0.4017(3) 0.7500
C13 C 0.78737(18) 0.6027(2) 0.0599(2)
H7 H 0.8177 0.5519 0.0725
C14 C 0.70017(19) 0.6702(2) -0.0237(2)
H8 H 0.6711 0.6664 -0.0692
C15 C 0.52598(17) 0.7659(2) 0.52943(18)
H9 H 0.5155 0.7373 0.4789
C16 C 0.5000 0.6080(3) 0.7500
C17 C 0.6873(3) 0.4857(3) -0.1165(2)
C18 C 0.5000 0.2930(3) 0.7500
C19 C 0.61043(18) 0.9882(2) 0.44186(19)
H10 H 0.5908 1.0351 0.4763
N3 N 0.5000 0.0855(3) 0.7500
C20 C 0.46084(17) 0.2383(2) 0.8048(2)
H11 H 0.4332 0.2700 0.8434
C21 C 0.7500 0.5000 -0.0610(3)
C22 C 0.74055(15) 0.8513(2) 0.14541(19)
C23 C 0.62901(17) 0.8250(2) 0.40091(19)
H12 H 0.6224 0.7577 0.4068
C24 C 0.44819(16) 0.5561(2) 0.7875(2)
H13 H 0.4123 0.5895 0.8132
F3 F 0.62887(13) 0.48930(16) -0.07436(16)
C25 C 0.4628(2) 0.1373(3) 0.8023(3)
H14 H 0.4359 0.1031 0.8401
C26 C 0.78655(17) 0.6859(2) 0.1087(2)
H15 H 0.8167 0.6907 0.1530
C27 C 0.44873(16) 0.4549(2) 0.7875(2)
H16 H 0.4132 0.4215 0.8138
O1A O 0.71773(10) 0.14201(15) 0.20472(13)
O2A O 0.80210(11) 0.08188(15) 0.13132(12)
F1A F 0.81225(15) 0.60233(16) -0.15399(14)
C6A C 0.75828(14) 0.2382(2) 0.09253(18)
C7A C 0.75582(15) 0.4067(2) -0.00691(18)
C9A C 0.80158(18) 0.2476(2) 0.0258(2)
H5A H 0.8326 0.1974 0.0139
F2A F 0.81731(15) 0.44731(16) -0.17651(13)
C13A C 0.71263(18) 0.3973(2) 0.0599(2)
H7A H 0.6823 0.4481 0.0725
C14A C 0.79983(19) 0.3298(2) -0.0237(2)
H8A H 0.8289 0.3336 -0.0692
C17A C 0.8127(3) 0.5143(3) -0.1165(2)
C22A C 0.75945(15) 0.1487(2) 0.14541(19)
F3A F 0.87113(13) 0.51070(16) -0.07436(16)
C26A C 0.71345(17) 0.3141(2) 0.1087(2)
H15A H 0.6833 0.3093 0.1530
C1B C 0.42203(14) 0.8938(2) 0.89187(17)
H1B H 0.3979 0.9527 0.8888
N2B N 0.32169(12) 0.95514(18) 1.17792(14)
C2B C 0.49812(15) 0.7235(2) 0.89945(18)
H2B H 0.5257 0.6677 0.9024
C3B C 0.43401(14) 0.8511(2) 0.96853(17)
C4B C 0.44534(14) 0.8500(2) 0.82043(17)
H3B H 0.4364 0.8796 0.7698
C5B C 0.48167(14) 0.7633(2) 0.82300(17)
C8B C 0.33334(17) 0.8602(2) 1.16406(19)
H4B H 0.3147 0.8149 1.2008
C10B C 0.35102(17) 1.0168(2) 1.1247(2)
H6B H 0.3449 1.0839 1.1333
C11B C 0.39912(14) 0.8887(2) 1.04246(17)
C15B C 0.47402(17) 0.7659(2) 0.97057(18)
H9B H 0.4845 0.7373 1.0211
C19B C 0.38957(18) 0.9882(2) 1.05814(19)
H10B H 0.4092 1.0351 1.0237
C20B C 0.53916(17) 0.2383(2) 0.6952(2)
H11B H 0.5668 0.2700 0.6566
C23B C 0.37099(17) 0.8250(2) 1.09909(19)
H12B H 0.3776 0.7577 1.0932
C24B C 0.55181(16) 0.5561(2) 0.7125(2)
H13B H 0.5877 0.5895 0.6868
C25B C 0.5372(2) 0.1373(3) 0.6977(3)
H14B H 0.5641 0.1031 0.6599
C27B C 0.55127(16) 0.4549(2) 0.7125(2)
H16B H 0.5868 0.4215 0.6862
O1A_2 O 0.71773(10) 1.14201(15) 0.20472(13)
Co1_2 Co 0.7500 0.0000 0.23280(3)
Co1B Co 0.2500 1.0000 1.26720(3)
O2A_2 O 0.80210(11) 1.08188(15) 0.13132(12)
N2A N 0.82169(12) 1.04486(18) 0.32208(14)
loop_
_geom_bond_atom_site_label_1
_geom_bond_atom_site_label_2
_geom_bond_site_symmetry_1
_geom_bond_site_symmetry_2
O1 Co1 1_555 1_555
Co1 O2 1_555 1_555
O2 C22 1_555 1_555
N1 C5 1_555 1_555
C1 H1 1_555 1_555
N2 Co1 1_555 1_555
F1 C17 1_555 1_555
C2 H2 1_555 1_555
C3 C1 1_555 1_555
C4 C1 1_555 1_555
H3 C4 1_555 1_555
C5 C2 1_555 1_555
C6 C9 1_555 1_555
C7 C13 1_555 1_555
C8 N2 1_555 1_555
H4 C8 1_555 1_555
C9 H5 1_555 1_555
F2 C17 1_555 1_555
C10 N2 1_555 1_555
H6 C10 1_555 1_555
C11 C3 1_555 1_555
C12 C18 1_555 1_555
C13 H7 1_555 1_555
C14 C7 1_555 1_555
H8 C14 1_555 1_555
C15 C2 1_555 1_555
H9 C15 1_555 1_555
C16 N1 1_555 1_555
C17 C21 1_555 1_555
C18 C20 1_555 1_555
C19 C10 1_555 1_555
H10 C19 1_555 1_555
N3 C25 1_555 1_555
C20 H11 1_555 1_555
C21 C7 1_555 1_555
C22 O1 1_555 1_555
C23 C8 1_555 1_555
H12 C23 1_555 1_555
C24 C16 1_555 1_555
H13 C24 1_555 1_555
F3 C17 1_555 1_555
C25 C20 1_555 1_555
H14 C25 1_555 1_555
C26 C6 1_555 1_555
H15 C26 1_555 1_555
C27 C12 1_555 1_555
H16 C27 1_555 1_555
O1A C22A 1_555 1_555
O2A C22A 1_555 1_555
F1A C17A 1_555 1_555
C6A C9A 1_555 1_555
C7A C21 1_555 1_555
C9A H5A 1_555 1_555
F2A C17A 1_555 1_555
C13A C7A 1_555 1_555
H7A C13A 1_555 1_555
C14A C7A 1_555 1_555
H8A C14A 1_555 1_555
C17A C21 1_555 1_555
C22A C6A 1_555 1_555
F3A C17A 1_555 1_555
C26A C6A 1_555 1_555
H15A C26A 1_555 1_555
C1B H1B 1_555 1_555
N2B C8B 1_555 1_555
C2B H2B 1_555 1_555
C3B C1B 1_555 1_555
C4B C1B 1_555 1_555
H3B C4B 1_555 1_555
C5B N1 1_555 1_555
C8B H4B 1_555 1_555
C10B N2B 1_555 1_555
H6B C10B 1_555 1_555
C11B C3B 1_555 1_555
C15B C2B 1_555 1_555
H9B C15B 1_555 1_555
C19B C10B 1_555 1_555
H10B C19B 1_555 1_555
C20B C18 1_555 1_555
H11B C20B 1_555 1_555
C23B C8B 1_555 1_555
H12B C23B 1_555 1_555
C24B C16 1_555 1_555
H13B C24B 1_555 1_555
C25B N3 1_555 1_555
H14B C25B 1_555 1_555
C27B C12 1_555 1_555
H16B C27B 1_555 1_555
O1A_2 Co1 1_555 1_555
Co1_2 O1A 1_555 1_555
Co1B N2B 1_555 1_555
O2A_2 Co1 1_555 1_555
N2A Co1 1_555 1_555
C3 C15 1_555 1_555
C4 C5 1_555 1_555
C6 C22 1_555 1_555
C9 C14 1_555 1_555
C11 C19 1_555 1_555
C11 C23 1_555 1_555
C13 C26 1_555 1_555
C24 C27 1_555 1_555
O2A Co1_2 1_555 1_555
C9A C14A 1_555 1_555
C13A C26A 1_555 1_555
C2B C5B 1_555 1_555
C3B C15B 1_555 1_555
C4B C5B 1_555 1_555
C11B C19B 1_555 1_555
C11B C23B 1_555 1_555
C20B C25B 1_555 1_555
C24B C27B 1_555 1_555

#END
