
#######################################################################
#
#                 Cambridge Crystallographic Data Centre
#                                CCDC 
#
#######################################################################
#
# If this CIF has been generated from an entry in the Cambridge 
# Structural Database, then it will include bibliographic, chemical, 
# crystal, experimental, refinement or atomic coordinate data resulting 
# from the CCDC's data processing and validation procedures.
#
#######################################################################

data_RISCAZ
_symmetry_cell_setting           monoclinic
_symmetry_space_group_name_H-M   'P 21/c'
_symmetry_Int_Tables_number      14
_space_group_name_Hall           '-P 2ybc'
loop_
_symmetry_equiv_pos_site_id
_symmetry_equiv_pos_as_xyz
1 x,y,z
2 -x,1/2+y,1/2-z
3 -x,-y,-z
4 x,1/2-y,1/2+z
_cell_length_a                   11.6417(11)
_cell_length_b                   32.110(3)
_cell_length_c                   10.8370(11)
_cell_angle_alpha                90
_cell_angle_beta                 98.525(2)
_cell_angle_gamma                90
_cell_volume                     4006.27
loop_
_atom_site_label
_atom_site_type_symbol
_atom_site_fract_x
_atom_site_fract_y
_atom_site_fract_z
C1 C -0.4241(4) 0.70899(16) -0.4396(4)
H1 H -0.4322 0.7171 -0.5228
C2 C -0.3281(3) 0.72327(13) -0.3613(3)
H2 H -0.2738 0.7400 -0.3924
C3 C -0.3976(3) 0.68711(13) -0.2007(4)
H3 H -0.3924 0.6785 -0.1180
C4 C -0.4897(3) 0.67441(15) -0.2870(5)
H4 H -0.5450 0.6572 -0.2594
C5 C -0.3129(3) 0.71256(10) -0.2366(3)
C6 C -0.2123(2) 0.72727(9) -0.1471(3)
C7 C -0.1608(3) 0.70189(9) -0.0509(3)
H5 H -0.1911 0.6755 -0.0413
C8 C -0.0654(3) 0.71513(9) 0.0309(3)
H6 H -0.0329 0.6978 0.0956
C9 C -0.0178(2) 0.75425(9) 0.0166(3)
C10 C -0.0692(3) 0.78032(9) -0.0778(3)
H7 H -0.0397 0.8069 -0.0866
C11 C -0.1650(3) 0.76647(9) -0.1587(3)
H8 H -0.1984 0.7839 -0.2225
C12 C 0.1943(3) 0.71329(10) -0.0033(3)
H9 H 0.1364 0.7134 -0.0725
H10 H 0.2557 0.8185 0.0801
H11 H 0.2782 0.8857 0.1558
H12 H -0.0249 0.8775 0.2863
H13 H -0.0482 0.8104 0.2116
H14 H -0.0201 0.9450 0.2916
H15 H 0.0108 1.0106 0.3697
H16 H 0.3441 0.9998 0.3767
H17 H 0.3218 0.9345 0.2942
C13 C 0.1996(2) 0.83026(9) 0.1218(3)
C14 C 0.2128(3) 0.87045(9) 0.1676(3)
C15 C 0.1307(2) 0.88849(9) 0.2311(3)
C16 C 0.0325(3) 0.86561(9) 0.2455(3)
C17 C 0.0182(3) 0.82539(9) 0.2003(3)
C18 C 0.1017(2) 0.80710(9) 0.1388(3)
C19 C 0.1479(3) 0.93115(9) 0.2824(3)
C20 C 0.0550(3) 0.95550(9) 0.3071(3)
C21 C 0.0744(3) 0.99512(10) 0.3546(3)
C22 C 0.2695(3) 0.98892(11) 0.3577(4)
C23 C 0.2567(3) 0.94936(10) 0.3092(3)
C24 C 1.1296(3) 0.60280(9) 0.2203(3)
C25 C 1.1933(3) 0.62522(11) 0.3158(3)
H18 H 1.1565 0.6456 0.3568
C26 C 1.3102(3) 0.61793(12) 0.3513(3)
H19 H 1.3525 0.6338 0.4141
C27 C 1.3634(3) 0.58715(12) 0.2931(3)
C28 C 1.3031(3) 0.56401(11) 0.1982(3)
H20 H 1.3400 0.5431 0.1595
C29 C 1.1867(3) 0.57242(10) 0.1614(3)
H21 H 1.1456 0.5574 0.0958
C30 C 1.6395(3) 0.59342(15) 0.4771(4)
H22 H 1.6744 0.6087 0.4199
C31 C 1.6955(3) 0.58827(15) 0.5976(3)
H23 H 1.7673 0.6007 0.6221
C32 C 0.6765(3) 0.63767(9) 0.1515(3)
H24 H 0.7502 0.6437 0.1935
C33 C 0.5865(3) 0.66541(10) 0.1607(3)
H25 H 0.6009 0.6894 0.2084
C34 C 0.5518(3) 0.59392(10) 0.0303(3)
H26 H 0.5383 0.5689 -0.0126
C35 C 0.4601(3) 0.61994(10) 0.0353(3)
H27 H 0.3866 0.6125 -0.0044
C36 C 0.4754(2) 0.65756(9) 0.0994(3)
C37 C 0.3769(3) 0.68656(9) 0.0993(3)
C38 C 0.2878(3) 0.68743(11) -0.0007(3)
H28 H 0.2918 0.6698 -0.0681
C39 C 0.1853(2) 0.73941(9) 0.0968(3)
C40 C 0.2736(3) 0.73892(10) 0.1973(3)
H29 H 0.2692 0.7563 0.2651
C41 C 0.3678(3) 0.71311(10) 0.1982(3)
H30 H 0.4265 0.7135 0.2665
C42 C 1.0011(3) 0.61051(10) 0.1851(3)
C43 C 1.5323(3) 0.57586(13) 0.4421(3)
C44 C 1.7033(3) 0.55942(13) 0.8123(3)
C45 C 1.4805(3) 0.55306(13) 0.5251(3)
H31 H 1.4068 0.5419 0.5014
C46 C 1.5383(3) 0.54675(12) 0.6444(3)
H32 H 1.5046 0.5302 0.6998
C47 C 1.6452(3) 0.56462(11) 0.6822(3)
Co1 Co 0.79961(3) 0.569493(12) 0.03539(4)
N1 N 0.0873(2) 0.76570(7) 0.0943(2)
N2 N 0.6613(2) 0.60257(7) 0.0845(2)
N3 N 0.1799(2) 1.01219(8) 0.3798(2)
N4 N -0.5053(3) 0.68480(13) -0.4057(4)
O1 O 1.4830(2) 0.58020(10) 0.3191(2)
O2 O 1.7924(2) 0.58112(9) 0.8516(2)
O3 O 1.6611(2) 0.53540(8) 0.8848(2)
O4 O 0.9537(2) 0.59035(8) 0.0902(2)
O5 O 0.9510(2) 0.63456(10) 0.2457(3)
Co1_2 Co 1.79961(3) 0.569493(12) 1.03539(4)
Co1A Co 0.20039(3) 1.069493(12) 0.46461(4)
N3A N 0.8201(2) 0.51219(8) 0.1202(2)
O2_2 O 0.7924(2) 0.58112(9) -0.1484(2)
O3_2 O 0.6611(2) 0.53540(8) -0.1152(2)
loop_
_geom_bond_atom_site_label_1
_geom_bond_atom_site_label_2
_geom_bond_site_symmetry_1
_geom_bond_site_symmetry_2
C1 H1 1_555 1_555
C2 C1 1_555 1_555
H2 C2 1_555 1_555
C3 H3 1_555 1_555
C4 C3 1_555 1_555
H4 C4 1_555 1_555
C5 C2 1_555 1_555
C6 C5 1_555 1_555
C7 C6 1_555 1_555
H5 C7 1_555 1_555
C8 C7 1_555 1_555
H6 C8 1_555 1_555
C9 C8 1_555 1_555
C10 C9 1_555 1_555
H7 C10 1_555 1_555
C11 C6 1_555 1_555
H8 C11 1_555 1_555
C12 H9 1_555 1_555
H10 C13 1_555 1_555
H11 C14 1_555 1_555
H12 C16 1_555 1_555
H13 C17 1_555 1_555
H14 C20 1_555 1_555
H15 C21 1_555 1_555
H16 C22 1_555 1_555
H17 C23 1_555 1_555
C13 C14 1_555 1_555
C14 C15 1_555 1_555
C15 C16 1_555 1_555
C16 C17 1_555 1_555
C17 C18 1_555 1_555
C18 C13 1_555 1_555
C19 C15 1_555 1_555
C20 C19 1_555 1_555
C21 C20 1_555 1_555
C22 C23 1_555 1_555
C23 C19 1_555 1_555
C24 C25 1_555 1_555
C25 H18 1_555 1_555
C26 C25 1_555 1_555
H19 C26 1_555 1_555
C27 C26 1_555 1_555
C28 C27 1_555 1_555
H20 C28 1_555 1_555
C29 C24 1_555 1_555
H21 C29 1_555 1_555
C30 H22 1_555 1_555
C31 C30 1_555 1_555
H23 C31 1_555 1_555
C32 H24 1_555 1_555
C33 C32 1_555 1_555
H25 C33 1_555 1_555
C34 H26 1_555 1_555
C35 C34 1_555 1_555
H27 C35 1_555 1_555
C36 C33 1_555 1_555
C37 C36 1_555 1_555
C38 C12 1_555 1_555
H28 C38 1_555 1_555
C39 C12 1_555 1_555
C40 C39 1_555 1_555
H29 C40 1_555 1_555
C41 C37 1_555 1_555
H30 C41 1_555 1_555
C42 C24 1_555 1_555
C43 C30 1_555 1_555
C44 C47 1_555 1_555
C45 C43 1_555 1_555
H31 C45 1_555 1_555
C46 C45 1_555 1_555
H32 C46 1_555 1_555
C47 C31 1_555 1_555
Co1 N2 1_555 1_555
N1 C9 1_555 1_555
N2 C32 1_555 1_555
N3 C21 1_555 1_555
N4 C1 1_555 1_555
O1 C27 1_555 1_555
O2 C44 1_555 1_555
O3 C44 1_555 1_555
O4 C42 1_555 1_555
O5 C42 1_555 1_555
Co1_2 O2 1_555 1_555
Co1A N3 1_555 1_555
N3A Co1 1_555 1_555
O2_2 Co1 1_555 1_555
O3_2 Co1 1_555 1_555
C3 C5 1_555 1_555
C4 N4 1_555 1_555
C10 C11 1_555 1_555
C18 N1 1_555 1_555
C22 N3 1_555 1_555
C28 C29 1_555 1_555
C34 N2 1_555 1_555
C35 C36 1_555 1_555
C37 C38 1_555 1_555
C39 N1 1_555 1_555
C40 C41 1_555 1_555
C43 O1 1_555 1_555
C46 C47 1_555 1_555
Co1 O4 1_555 1_555
O3 Co1_2 1_555 1_555

#END
