
#######################################################################
#
#                 Cambridge Crystallographic Data Centre
#                                CCDC 
#
#######################################################################
#
# If this CIF has been generated from an entry in the Cambridge 
# Structural Database, then it will include bibliographic, chemical, 
# crystal, experimental, refinement or atomic coordinate data resulting 
# from the CCDC's data processing and validation procedures.
#
#######################################################################

data_RISJEK
_symmetry_cell_setting           monoclinic
_symmetry_space_group_name_H-M   'P 21/n'
_symmetry_Int_Tables_number      14
_space_group_name_Hall           '-P 2yn'
loop_
_symmetry_equiv_pos_site_id
_symmetry_equiv_pos_as_xyz
1 x,y,z
2 1/2-x,1/2+y,1/2-z
3 -x,-y,-z
4 1/2+x,1/2-y,1/2+z
_cell_length_a                   5.4560(6)
_cell_length_b                   14.9340(12)
_cell_length_c                   13.2820(10)
_cell_angle_alpha                90
_cell_angle_beta                 95.525(8)
_cell_angle_gamma                90
_cell_volume                     1077.19
loop_
_atom_site_label
_atom_site_type_symbol
_atom_site_fract_x
_atom_site_fract_y
_atom_site_fract_z
Zr1 Zr 0.5000 0.5000 0.5000
P1 P 0.99129(17) 0.35360(6) 0.50393(7)
P2 P 0.82528(18) 0.05241(7) 0.74536(8)
O1 O 0.7422(5) 0.39289(18) 0.5240(2)
O2 O 1.1982(5) 0.42213(18) 0.5212(2)
O3 O 0.9848(5) 0.30876(19) 0.4025(2)
O4 O 0.7996(5) -0.02062(18) 0.6690(2)
O5 O 0.5697(5) 0.0932(2) 0.7570(2)
H1 H 0.532(11) 0.129(4) 0.818(3)
O6 O 0.9560(5) 0.02642(19) 0.8471(2)
C1 C 1.0790(7) 0.2752(2) 0.6054(3)
H2 H 1.2463 0.2558 0.5987
H3 H 1.0812 0.3073 0.6690
C2 C 1.0173(7) 0.1429(3) 0.7070(3)
H4 H 1.0406 0.1854 0.7623
H5 H 1.1778 0.1184 0.6968
N1 N 0.9230(6) 0.1931(2) 0.6128(2)
H6 H 0.751(5) 0.210(4) 0.626(4)
C3 C 0.9163(7) 0.1339(3) 0.5211(3)
H7 H 1.0057 0.1621 0.4700
H8 H 0.9949 0.0771 0.5392
C4 C 0.6543(8) 0.1183(3) 0.4799(3)
O7 O 0.4855(6) 0.1568(3) 0.5132(3)
O8 O 0.6392(6) 0.0607(3) 0.4066(3)
H9 H 0.471(5) 0.050(4) 0.372(4)
P1B P 0.00871(17) 0.64640(6) 0.49607(7)
P2B P 0.17472(18) 0.94759(7) 0.25464(8)
O1B O 0.2578(5) 0.60711(18) 0.4760(2)
O2B O -0.1982(5) 0.57787(18) 0.4788(2)
O3B O 0.0152(5) 0.69124(19) 0.5975(2)
O4B O 0.2004(5) 1.02062(18) 0.3310(2)
O5B O 0.4303(5) 0.9068(2) 0.2430(2)
H1B H 0.468(11) 0.871(4) 0.182(3)
O6B O 0.0440(5) 0.97358(19) 0.1529(2)
C1B C -0.0790(7) 0.7248(2) 0.3946(3)
H2B H -0.2463 0.7442 0.4013
H3B H -0.0812 0.6927 0.3310
C2B C -0.0173(7) 0.8571(3) 0.2930(3)
H4B H -0.0406 0.8146 0.2377
H5B H -0.1778 0.8816 0.3032
N1B N 0.0770(6) 0.8069(2) 0.3872(2)
H6B H 0.249(5) 0.790(4) 0.374(4)
C3B C 0.0837(7) 0.8661(3) 0.4789(3)
H7B H -0.0057 0.8379 0.5300
H8B H 0.0051 0.9229 0.4608
C4B C 0.3457(8) 0.8817(3) 0.5201(3)
O7B O 0.5145(6) 0.8432(3) 0.4868(3)
O8B O 0.3608(6) 0.9393(3) 0.5934(3)
H9B H 0.529(5) 0.950(4) 0.628(4)
Zr1_2 Zr -0.5000 0.5000 0.5000
Zr1_3 Zr 1.5000 0.5000 0.5000
Zr1A Zr 0.0000 1.0000 0.0000
Zr1A_2 Zr 1.0000 0.0000 1.0000
O2_2 O 0.1982(5) 0.42213(18) 0.5212(2)
O2B_2 O 0.8018(5) 0.57787(18) 0.4788(2)
O6A O 0.5440(5) 0.52642(19) 0.6529(2)
O6C O 0.4560(5) 0.47358(19) 0.3471(2)
O9 O 1.1341(8) 0.1999(3) 0.2416(3)
H10 H 1.163(13) 0.141(5) 0.258(5)
H11 H 1.084(10) 0.228(4) 0.291(4)
loop_
_geom_bond_atom_site_label_1
_geom_bond_atom_site_label_2
_geom_bond_site_symmetry_1
_geom_bond_site_symmetry_2
Zr1 O1 1_555 1_555
P1 O1 1_555 1_555
P2 O4 1_555 1_555
O2 P1 1_555 1_555
O3 P1 1_555 1_555
O5 P2 1_555 1_555
H1 O5 1_555 1_555
O6 P2 1_555 1_555
C1 P1 1_555 1_555
H2 C1 1_555 1_555
H3 C1 1_555 1_555
C2 P2 1_555 1_555
H4 C2 1_555 1_555
H5 C2 1_555 1_555
N1 C1 1_555 1_555
H6 N1 1_555 1_555
C3 N1 1_555 1_555
H7 C3 1_555 1_555
H8 C3 1_555 1_555
C4 C3 1_555 1_555
O7 C4 1_555 1_555
O8 C4 1_555 1_555
H9 O8 1_555 1_555
O9 H10 1_555 1_555
H11 O9 1_555 1_555
P1B O1B 1_555 1_555
P2B O4B 1_555 1_555
O1B Zr1 1_555 1_555
O2B P1B 1_555 1_555
O3B P1B 1_555 1_555
O5B P2B 1_555 1_555
H1B O5B 1_555 1_555
O6B P2B 1_555 1_555
C1B P1B 1_555 1_555
H2B C1B 1_555 1_555
H3B C1B 1_555 1_555
C2B P2B 1_555 1_555
H4B C2B 1_555 1_555
H5B C2B 1_555 1_555
N1B C1B 1_555 1_555
H6B N1B 1_555 1_555
C3B N1B 1_555 1_555
H7B C3B 1_555 1_555
H8B C3B 1_555 1_555
C4B C3B 1_555 1_555
O7B C4B 1_555 1_555
O8B C4B 1_555 1_555
H9B O8B 1_555 1_555
Zr1_2 O2B 1_555 1_555
Zr1_3 O2 1_555 1_555
Zr1A O6B 1_555 1_555
Zr1A_2 O6 1_555 1_555
O2_2 Zr1 1_555 1_555
O2B_2 Zr1 1_555 1_555
O6A Zr1 1_555 1_555
O6C Zr1 1_555 1_555
C2 N1 1_555 1_555
C2B N1B 1_555 1_555

#END
