
#######################################################################
#
#                 Cambridge Crystallographic Data Centre
#                                CCDC 
#
#######################################################################
#
# If this CIF has been generated from an entry in the Cambridge 
# Structural Database, then it will include bibliographic, chemical, 
# crystal, experimental, refinement or atomic coordinate data resulting 
# from the CCDC's data processing and validation procedures.
#
#######################################################################

data_RISKOU
_symmetry_cell_setting           monoclinic
_symmetry_space_group_name_H-M   'C 2/c'
_symmetry_Int_Tables_number      15
_space_group_name_Hall           '-C 2yn'
loop_
_symmetry_equiv_pos_site_id
_symmetry_equiv_pos_as_xyz
1 x,y,z
2 1/2+x,1/2+y,z
3 -x,y,1/2-z
4 1/2-x,1/2+y,1/2-z
5 -x,-y,-z
6 1/2-x,1/2-y,-z
7 x,-y,1/2+z
8 1/2+x,1/2-y,1/2+z
_cell_length_a                   27.617(6)
_cell_length_b                   8.9276(18)
_cell_length_c                   21.212(4)
_cell_angle_alpha                90
_cell_angle_beta                 122.46(3)
_cell_angle_gamma                90
_cell_volume                     4412.81
loop_
_atom_site_label
_atom_site_type_symbol
_atom_site_fract_x
_atom_site_fract_y
_atom_site_fract_z
Zn1 Zn 1.006041(17) 0.74836(5) 0.42522(2)
O1 O 0.92334(11) 0.7166(3) 0.37118(16)
O2 O 0.92687(11) 0.9063(3) 0.44038(16)
O3 O 0.66245(11) 0.7259(3) 0.26587(18)
O4 O 0.53662(14) 0.9180(4) 0.43119(19)
O5 O 0.53394(11) 1.1281(3) 0.37427(16)
N1 N 1.04661(18) 0.7142(7) 0.5352(2)
H1 H 1.0413 0.7967 0.5552
H2 H 1.0284 0.6387 0.5422
N2 N 1.03183(15) 0.9546(4) 0.4121(2)
H3 H 1.0374 1.0144 0.4497
H4 H 1.0657 0.9447 0.4159
C1 C 0.90007(16) 0.8060(4) 0.3942(2)
C2 C 0.83754(14) 0.7855(4) 0.3618(2)
C3 C 0.80568(15) 0.6814(4) 0.3053(2)
H5 H 0.8241 0.6228 0.2881
C4 C 0.74798(15) 0.6634(4) 0.2745(2)
H6 H 0.7275 0.5935 0.2367
C5 C 0.72034(15) 0.7500(4) 0.3001(2)
C6 C 0.75117(15) 0.8530(4) 0.3565(2)
H7 H 0.7328 0.9103 0.3741
C7 C 0.80910(15) 0.8709(4) 0.3866(2)
H8 H 0.8294 0.9414 0.4241
C8 C 0.63392(16) 0.7940(5) 0.2969(2)
C9 C 0.63948(19) 0.7328(4) 0.3591(3)
H9 H 0.6631 0.6501 0.3817
C10 C 0.60983(17) 0.7938(4) 0.3885(2)
H10 H 0.6126 0.7505 0.4302
C11 C 0.57618(14) 0.9188(4) 0.3560(2)
C12 C 0.57183(15) 0.9781(4) 0.2931(2)
H11 H 0.5493 1.0627 0.2710
C13 C 0.60007(15) 0.9151(4) 0.2624(2)
H12 H 0.5961 0.9543 0.2192
C14 C 0.54638(16) 0.9909(5) 0.3901(2)
C15 C 1.1043(2) 0.6820(8) 0.5769(3)
H13 H 1.1097 0.5759 0.5765
H14 H 1.1203 0.7151 0.6274
H15 H 1.1231 0.7325 0.5559
C16 C 0.9915(2) 1.0269(6) 0.3416(3)
H16 H 0.9865 0.9662 0.3012
H17 H 1.0061 1.1234 0.3399
H18 H 0.9553 1.0388 0.3372
Zn1A Zn 0.506041(17) 1.24836(5) 0.42522(2)
O5A O 1.03394(11) 0.6281(3) 0.37427(16)
O6 O 0.6660(2) 0.4181(4) 0.4624(3)
N3 N 0.7274(2) 0.3980(5) 0.4262(3)
C17 C 0.7729(4) 0.4772(9) 0.4917(4)
H19 H 0.7756 0.5780 0.4781
H20 H 0.8088 0.4268 0.5102
H21 H 0.7642 0.4790 0.5298
C18 C 0.7438(3) 0.3428(8) 0.3747(4)
H22 H 0.7627 0.2477 0.3920
H23 H 0.7694 0.4132 0.3731
H24 H 0.7101 0.3315 0.3256
C19 C 0.6771(3) 0.3747(5) 0.4157(4)
C20 C 0.6342(3) 0.3043(9) 0.3452(5)
H25 H 0.6380 0.1973 0.3502
H26 H 0.6398 0.3363 0.3064
H27 H 0.5965 0.3329 0.3326
loop_
_geom_bond_atom_site_label_1
_geom_bond_atom_site_label_2
_geom_bond_site_symmetry_1
_geom_bond_site_symmetry_2
Zn1 O1 1_555 1_555
O1 C1 1_555 1_555
O2 C1 1_555 1_555
O3 C5 1_555 1_555
O4 C14 1_555 1_555
O5 C14 1_555 1_555
O6 C19 1_555 1_555
N1 Zn1 1_555 1_555
H1 N1 1_555 1_555
H2 N1 1_555 1_555
N2 Zn1 1_555 1_555
H3 N2 1_555 1_555
H4 N2 1_555 1_555
N3 C17 1_555 1_555
C1 C2 1_555 1_555
C2 C3 1_555 1_555
C3 H5 1_555 1_555
C4 C3 1_555 1_555
H6 C4 1_555 1_555
C5 C4 1_555 1_555
C6 C5 1_555 1_555
H7 C6 1_555 1_555
C7 C2 1_555 1_555
H8 C7 1_555 1_555
C8 O3 1_555 1_555
C9 C8 1_555 1_555
H9 C9 1_555 1_555
C10 C9 1_555 1_555
H10 C10 1_555 1_555
C11 C10 1_555 1_555
C12 C11 1_555 1_555
H11 C12 1_555 1_555
C13 C8 1_555 1_555
H12 C13 1_555 1_555
C14 C11 1_555 1_555
C15 N1 1_555 1_555
H13 C15 1_555 1_555
H14 C15 1_555 1_555
H15 C15 1_555 1_555
C16 N2 1_555 1_555
H16 C16 1_555 1_555
H17 C16 1_555 1_555
H18 C16 1_555 1_555
C17 H19 1_555 1_555
H20 C17 1_555 1_555
H21 C17 1_555 1_555
C18 N3 1_555 1_555
H22 C18 1_555 1_555
H23 C18 1_555 1_555
H24 C18 1_555 1_555
C19 N3 1_555 1_555
C20 C19 1_555 1_555
H25 C20 1_555 1_555
H26 C20 1_555 1_555
H27 C20 1_555 1_555
Zn1A O5 1_555 1_555
O5A Zn1 1_555 1_555
C6 C7 1_555 1_555
C12 C13 1_555 1_555

#END
