
#######################################################################
#
#                 Cambridge Crystallographic Data Centre
#                                CCDC 
#
#######################################################################
#
# If this CIF has been generated from an entry in the Cambridge 
# Structural Database, then it will include bibliographic, chemical, 
# crystal, experimental, refinement or atomic coordinate data resulting 
# from the CCDC's data processing and validation procedures.
#
#######################################################################

data_RISMEL
_symmetry_cell_setting           orthorhombic
_symmetry_space_group_name_H-M   'P 21 21 21'
_symmetry_Int_Tables_number      19
_space_group_name_Hall           'P 2ac 2ab'
loop_
_symmetry_equiv_pos_site_id
_symmetry_equiv_pos_as_xyz
1 x,y,z
2 1/2-x,-y,1/2+z
3 1/2+x,1/2-y,-z
4 -x,1/2+y,1/2-z
_cell_length_a                   10.7840(4)
_cell_length_b                   11.9471(5)
_cell_length_c                   14.2380(6)
_cell_angle_alpha                90
_cell_angle_beta                 90
_cell_angle_gamma                90
_cell_volume                     1834.39
loop_
_atom_site_label
_atom_site_type_symbol
_atom_site_fract_x
_atom_site_fract_y
_atom_site_fract_z
Sn1 Sn 0.159883(19) 0.151497(19) -0.093229(16)
I1 I 0.12256(3) -0.02802(3) -0.23616(2)
P1 P 0.21808(8) 0.37443(7) 0.08688(7)
O1 O 0.1745(3) 0.2862(2) 0.0199(2)
C1 C 0.3002(4) 0.0583(4) -0.0229(3)
H1 H 0.3791 0.0937 -0.0324
H2 H 0.3027 -0.0164 -0.0478
H3 H 0.2820 0.0554 0.0430
C2 C 0.2083(5) 0.2720(4) -0.1954(3)
H4 H 0.2479 0.3344 -0.1654
H5 H 0.1349 0.2970 -0.2272
H6 H 0.2643 0.2391 -0.2401
C3 C 0.4713(3) 0.3625(3) 0.0479(3)
H7 H 0.4605 0.4344 0.0171
H8 H 0.4553 0.3048 0.0015
C4 C 0.3749(3) 0.3523(3) 0.1264(2)
H9 H 0.3939 0.4065 0.1750
H10 H 0.3809 0.2783 0.1541
C5 C 0.1241(3) 0.3760(3) 0.1912(3)
C6 C 0.1036(5) 0.2776(4) 0.2392(4)
H11 H 0.1365 0.2108 0.2166
C7 C 0.0335(6) 0.2780(5) 0.3214(4)
H12 H 0.0200 0.2114 0.3535
C8 C -0.0145(5) 0.3736(5) 0.3545(4)
H13 H -0.0610 0.3727 0.4094
C9 C 0.0040(7) 0.4705(6) 0.3089(4)
H14 H -0.0298 0.5367 0.3318
C10 C 0.0735(5) 0.4707(4) 0.2281(4)
H15 H 0.0866 0.5384 0.1973
C11 C 0.2115(3) 0.5113(3) 0.0348(2)
C12 C 0.2816(4) 0.5999(3) 0.0689(3)
H16 H 0.3357 0.5890 0.1189
C13 C 0.2704(5) 0.7043(4) 0.0280(4)
H17 H 0.3179 0.7634 0.0507
C14 C 0.1910(5) 0.7223(4) -0.0451(3)
H18 H 0.1851 0.7929 -0.0724
C15 C 0.1198(5) 0.6351(4) -0.0782(3)
H19 H 0.0647 0.6475 -0.1274
C16 C 0.1292(4) 0.5308(4) -0.0397(3)
H20 H 0.0809 0.4725 -0.0630
C3B C -0.0287(3) 0.1375(3) -0.0479(3)
Sn1B Sn 0.659883(19) 0.348503(19) 0.093229(16)
H7B H -0.0395 0.0656 -0.0171
H8B H -0.0447 0.1952 -0.0015
loop_
_geom_bond_atom_site_label_1
_geom_bond_atom_site_label_2
_geom_bond_site_symmetry_1
_geom_bond_site_symmetry_2
Sn1 I1 1_555 1_555
P1 O1 1_555 1_555
O1 Sn1 1_555 1_555
C1 Sn1 1_555 1_555
H1 C1 1_555 1_555
H2 C1 1_555 1_555
H3 C1 1_555 1_555
C2 Sn1 1_555 1_555
H4 C2 1_555 1_555
H5 C2 1_555 1_555
H6 C2 1_555 1_555
C3 H7 1_555 1_555
H8 C3 1_555 1_555
C4 P1 1_555 1_555
H9 C4 1_555 1_555
H10 C4 1_555 1_555
C5 P1 1_555 1_555
C6 C5 1_555 1_555
H11 C6 1_555 1_555
C7 C6 1_555 1_555
H12 C7 1_555 1_555
C8 C7 1_555 1_555
H13 C8 1_555 1_555
C9 C8 1_555 1_555
H14 C9 1_555 1_555
C10 C5 1_555 1_555
H15 C10 1_555 1_555
C11 P1 1_555 1_555
C12 C11 1_555 1_555
H16 C12 1_555 1_555
C13 C12 1_555 1_555
H17 C13 1_555 1_555
C14 C13 1_555 1_555
H18 C14 1_555 1_555
C15 C14 1_555 1_555
H19 C15 1_555 1_555
C16 C11 1_555 1_555
H20 C16 1_555 1_555
C3B Sn1 1_555 1_555
Sn1B C3 1_555 1_555
H7B C3B 1_555 1_555
H8B C3B 1_555 1_555
C3 C4 1_555 1_555
C9 C10 1_555 1_555
C15 C16 1_555 1_555

#END
