
#######################################################################
#
#                 Cambridge Crystallographic Data Centre
#                                CCDC 
#
#######################################################################
#
# If this CIF has been generated from an entry in the Cambridge 
# Structural Database, then it will include bibliographic, chemical, 
# crystal, experimental, refinement or atomic coordinate data resulting 
# from the CCDC's data processing and validation procedures.
#
#######################################################################

data_RISNOX01
_symmetry_cell_setting           monoclinic
_symmetry_space_group_name_H-M   'P 21/a'
_symmetry_Int_Tables_number      14
_space_group_name_Hall           '-P 2yab'
loop_
_symmetry_equiv_pos_site_id
_symmetry_equiv_pos_as_xyz
1 x,y,z
2 1/2-x,1/2+y,-z
3 -x,-y,-z
4 1/2+x,1/2-y,z
_cell_length_a                   8.951(5)
_cell_length_b                   13.049(7)
_cell_length_c                   12.215(7)
_cell_angle_alpha                90
_cell_angle_beta                 94.210(9)
_cell_angle_gamma                90
_cell_volume                     1422.88
loop_
_atom_site_label
_atom_site_type_symbol
_atom_site_fract_x
_atom_site_fract_y
_atom_site_fract_z
Ag1 Ag 0.61999(3) 0.32492(2) 0.98427(2)
O1 O 0.2196(3) 0.3481(2) 1.4648(2)
N1 N 0.5007(2) 0.3031(2) 1.1300(2)
N2 N 0.2188(2) 0.1362(2) 1.8337(2)
N3 N 0.1937(3) 0.1791(2) 1.4371(2)
C1 C 0.4546(3) 0.3837(2) 1.1864(2)
C2 C 0.3714(3) 0.3745(2) 1.2749(2)
C3 C 0.3302(3) 0.2787(2) 1.3108(2)
C4 C 0.3773(3) 0.1947(2) 1.2524(2)
C5 C 0.4615(3) 0.2099(2) 1.1639(2)
C6 C 0.1470(3) 0.1585(2) 1.7372(2)
C7 C 0.2069(3) 0.1432(2) 1.6370(2)
C8 C 0.3506(3) 0.1045(2) 1.6385(2)
C9 C 0.4268(3) 0.0819(2) 1.7383(2)
C10 C 0.3573(3) 0.0977(2) 1.8337(2)
C11 C 0.2425(3) 0.2711(2) 1.4104(2)
C12 C 0.1099(3) 0.1632(2) 1.5324(2)
H1 H 0.4808 0.4503 1.1637
H2 H 0.3417 0.4340 1.3123
H3 H 0.3520 0.1272 1.2735
H4 H 0.4929 0.1519 1.1250
H5 H 0.0490 0.1864 1.7370
H6 H 0.3966 0.0935 1.5720
H7 H 0.5262 0.0559 1.7410
H8 H 0.4090 0.0805 1.9020
H9 H 0.2142 0.1220 1.3922
H10 H 0.0453 0.1062 1.5188
H11 H 0.0516 0.2229 1.5429
Ag1C Ag 0.11999(3) 0.17508(2) 1.98427(2)
N2C N 0.7188(2) 0.3638(2) 0.8337(2)
O2 O 0.7772(3) 0.4881(2) 0.0956(2)
O3 O 0.6707(3) 0.6266(2) 0.1441(2)
O4 O 0.8073(3) 0.6263(2) 0.0054(2)
N4 N 0.7510(2) 0.5807(2) 0.0807(2)
O5 O 0.7057(3) 0.5261(2) 0.3543(2)
loop_
_geom_bond_atom_site_label_1
_geom_bond_atom_site_label_2
_geom_bond_site_symmetry_1
_geom_bond_site_symmetry_2
Ag1 N1 1_555 1_555
O1 C11 1_555 1_555
O2 N4 1_555 1_555
O3 N4 1_555 1_555
O4 N4 1_555 1_555
N1 C1 1_555 1_555
N2 C6 1_555 1_555
N3 C11 1_555 1_555
C1 C2 1_555 1_555
C2 C3 1_555 1_555
C3 C4 1_555 1_555
C4 C5 1_555 1_555
C5 N1 1_555 1_555
C6 C7 1_555 1_555
C7 C8 1_555 1_555
C8 C9 1_555 1_555
C9 C10 1_555 1_555
C10 N2 1_555 1_555
C11 C3 1_555 1_555
C12 N3 1_555 1_555
H1 C1 1_555 1_555
H2 C2 1_555 1_555
H3 C4 1_555 1_555
H4 C5 1_555 1_555
H5 C6 1_555 1_555
H6 C8 1_555 1_555
H7 C9 1_555 1_555
H8 C10 1_555 1_555
H9 N3 1_555 1_555
H10 C12 1_555 1_555
H11 C12 1_555 1_555
Ag1C N2 1_555 1_555
N2C Ag1 1_555 1_555
C7 C12 1_555 1_555

#END
