
#######################################################################
#
#                 Cambridge Crystallographic Data Centre
#                                CCDC 
#
#######################################################################
#
# If this CIF has been generated from an entry in the Cambridge 
# Structural Database, then it will include bibliographic, chemical, 
# crystal, experimental, refinement or atomic coordinate data resulting 
# from the CCDC's data processing and validation procedures.
#
#######################################################################

data_RISXAU
_symmetry_cell_setting           monoclinic
_symmetry_space_group_name_H-M   'C 2/c'
_symmetry_Int_Tables_number      15
_space_group_name_Hall           '-C 2yn'
loop_
_symmetry_equiv_pos_site_id
_symmetry_equiv_pos_as_xyz
1 x,y,z
2 -x,y,1/2-z
3 1/2+x,1/2+y,z
4 1/2-x,1/2+y,1/2-z
5 -x,-y,-z
6 x,-y,1/2+z
7 1/2-x,1/2-y,-z
8 1/2+x,1/2-y,1/2+z
_cell_length_a                   11.5656(11)
_cell_length_b                   11.5662(11)
_cell_length_c                   16.346(2)
_cell_angle_alpha                90
_cell_angle_beta                 90.444(3)
_cell_angle_gamma                90
_cell_volume                     2186.54
loop_
_atom_site_label
_atom_site_type_symbol
_atom_site_fract_x
_atom_site_fract_y
_atom_site_fract_z
Fe1 Fe 0.2500 0.2500 0.0000
Fe2 Fe 0.7500 0.2500 0.0000
Fe3 Fe 0.5000 -0.00661(8) 0.2500
O1 O 0.4198(3) 0.3205(4) -0.0045(3)
O2 O 0.6818(3) 0.4203(4) -0.0020(3)
O3 O 0.1913(4) 0.2868(5) 0.3801(2)
O4 O 0.9053(4) 0.3262(5) -0.0382(3)
H1 H 0.8909 0.3793 -0.0700
O5 O 0.2959(4) 0.1899(5) 0.1191(2)
O6 O 0.3290(4) 0.0981(4) -0.0398(3)
H2 H 0.3678 0.1118 -0.0805
O7 O 0.1121(4) 0.3663(5) 0.1993(3)
O8 O 0.3806(5) 0.1130(5) 0.3006(3)
O9 O 0.4225(5) -0.0076(5) 0.1339(3)
H3 H 0.3941 -0.0714 0.1251
C1 C 0.4627(5) 0.4189(5) -0.0023(4)
C2 C 0.5824(4) 0.4635(5) -0.0008(4)
C3 C 0.2218(6) 0.2595(6) 0.3091(3)
C4 C 0.3057(5) 0.1808(6) 0.2720(3)
C5 C 0.2675(5) 0.2176(6) 0.1907(3)
C6 C 0.1840(5) 0.2963(6) 0.2279(3)
O1D O 0.5802(3) 0.6795(4) 0.0045(3)
O2D O 0.3182(3) 0.5797(4) 0.0020(3)
C1D C 0.5373(5) 0.5811(5) 0.0023(4)
C2D C 0.4176(4) 0.5365(5) 0.0008(4)
O3A O 0.8087(4) 0.2868(5) 0.1199(2)
O5A O 0.7041(4) 0.1899(5) 0.3809(2)
O7A O 0.8879(4) 0.3663(5) 0.3007(3)
O8A O 0.6194(5) 0.1130(5) 0.1994(3)
O9A O 0.5775(5) -0.0076(5) 0.3661(3)
H3A H 0.6059 -0.0714 0.3749
C3A C 0.7782(6) 0.2595(6) 0.1909(3)
C4A C 0.6943(5) 0.1808(6) 0.2280(3)
C5A C 0.7325(5) 0.2176(6) 0.3093(3)
C6A C 0.8160(5) 0.2963(6) 0.2721(3)
O4F O 0.5947(4) 0.1738(5) 0.0382(3)
H1F H 0.6091 0.1207 0.0700
O6F O 0.1710(4) 0.4019(4) 0.0398(3)
H2F H 0.1322 0.3882 0.0805
Fe1A Fe 0.7500 0.2500 0.5000
Fe1B Fe 0.7500 0.7500 0.0000
Fe2A Fe 0.2500 0.2500 0.5000
Fe2B Fe 0.2500 0.7500 0.0000
Fe3B Fe 0.0000 0.49339(8) 0.2500
Fe3B_2 Fe 1.0000 0.49339(8) 0.2500
O1F O 0.0802(3) 0.1795(4) 0.0045(3)
O2F O 0.8182(3) 0.0797(4) 0.0020(3)
O3G O 0.6913(4) 0.2132(5) -0.1199(2)
O5F O 0.2041(4) 0.3101(5) -0.1191(2)
O7B O 0.6121(4) -0.1337(5) 0.1993(3)
O7C O 0.3879(4) -0.1337(5) 0.3007(3)
loop_
_geom_bond_atom_site_label_1
_geom_bond_atom_site_label_2
_geom_bond_site_symmetry_1
_geom_bond_site_symmetry_2
Fe1 O1 1_555 1_555
Fe2 O2 1_555 1_555
Fe3 O8 1_555 1_555
O1 C1 1_555 1_555
O2 C2 1_555 1_555
O3 C3 1_555 1_555
O4 Fe2 1_555 1_555
H1 O4 1_555 1_555
O5 Fe1 1_555 1_555
O6 Fe1 1_555 1_555
H2 O6 1_555 1_555
O7 C6 1_555 1_555
O8 C4 1_555 1_555
O9 Fe3 1_555 1_555
H3 O9 1_555 1_555
C1 C2 1_555 1_555
C2 C1D 1_555 1_555
C3 C4 1_555 1_555
C4 C5 1_555 1_555
C5 O5 1_555 1_555
C6 C3 1_555 1_555
O1D C1D 1_555 1_555
O2D C2D 1_555 1_555
C1D C2D 1_555 1_555
C2D C1 1_555 1_555
O3A Fe2 1_555 1_555
O5A C5A 1_555 1_555
O7A C6A 1_555 1_555
O8A Fe3 1_555 1_555
O9A Fe3 1_555 1_555
H3A O9A 1_555 1_555
C3A O3A 1_555 1_555
C4A O8A 1_555 1_555
C5A C4A 1_555 1_555
C6A C3A 1_555 1_555
O4F Fe2 1_555 1_555
H1F O4F 1_555 1_555
O6F Fe1 1_555 1_555
H2F O6F 1_555 1_555
Fe1A O5A 1_555 1_555
Fe1B O1D 1_555 1_555
Fe2A O3 1_555 1_555
Fe2B O2D 1_555 1_555
Fe3B O7 1_555 1_555
Fe3B_2 O7A 1_555 1_555
O1F Fe1 1_555 1_555
O2F Fe2 1_555 1_555
O3G Fe2 1_555 1_555
O5F Fe1 1_555 1_555
O7B Fe3 1_555 1_555
O7C Fe3 1_555 1_555
C5 C6 1_555 1_555
C3A C4A 1_555 1_555
C5A C6A 1_555 1_555

#END
