
#######################################################################
#
#                 Cambridge Crystallographic Data Centre
#                                CCDC 
#
#######################################################################
#
# If this CIF has been generated from an entry in the Cambridge 
# Structural Database, then it will include bibliographic, chemical, 
# crystal, experimental, refinement or atomic coordinate data resulting 
# from the CCDC's data processing and validation procedures.
#
#######################################################################

data_RISZAW
_symmetry_cell_setting           triclinic
_symmetry_space_group_name_H-M   'P -1'
_symmetry_Int_Tables_number      2
_space_group_name_Hall           '-P 1'
loop_
_symmetry_equiv_pos_site_id
_symmetry_equiv_pos_as_xyz
1 x,y,z
2 -x,-y,-z
_cell_length_a                   7.962(3)
_cell_length_b                   10.203(4)
_cell_length_c                   22.026(9)
_cell_angle_alpha                82.119(4)
_cell_angle_beta                 85.999(6)
_cell_angle_gamma                68.575(6)
_cell_volume                     1649.55
loop_
_atom_site_label
_atom_site_type_symbol
_atom_site_fract_x
_atom_site_fract_y
_atom_site_fract_z
Co1 Co 0.5000 0.5000 0.0000
N1 N 0.6031(13) -0.4007(9) 0.4254(4)
O1 O 0.4520(10) 0.6704(7) 0.0456(3)
O2 O 0.7492(11) -1.0192(8) 0.4992(3)
H1 H 0.6971 -1.0520 0.5292
H2 H 0.6696 -0.9718 0.4728
S1 S 0.8121(4) 0.4329(3) 0.04861(12)
C1 C 0.9215(17) -0.8802(12) 0.6217(5)
Co2 Co 1.0000 0.0000 0.0000
N2 N 0.6496(13) -0.2315(10) 0.3594(4)
O3 O 0.7501(11) -0.0271(10) -0.0039(4)
H3 H 0.6993 -0.0527 0.0284
H4 H 0.6681 0.0339 -0.0264
S2 S 0.8132(4) -0.5668(3) 0.54860(13)
O4 O 0.5477(11) 0.8380(7) 0.0677(4)
C2 C 0.8482(16) -0.7543(11) 0.6568(5)
Co3 Co 1.0000 -1.0000 0.5000
N3 N 0.3941(13) 0.4007(9) 0.0746(4)
O5 O 0.9987(14) 0.0034(8) 0.1515(4)
C3 C 0.8421(18) -0.7765(13) 0.7205(6)
H5 H 0.8858 -0.8681 0.7408
O6 O 1.0908(10) -0.1723(7) 0.0686(3)
H6 H 1.0570 -0.2061 0.1026
H7 H 1.1961 -0.2285 0.0602
Co4 Co 0.5000 -0.5000 0.5000
N4 N 0.3480(15) 0.2329(10) 0.1407(4)
O7 O 0.8953(12) 0.1433(7) 0.0650(3)
C4 C 0.7703(19) -0.6613(14) 0.7534(5)
H8 H 0.7612 -0.6744 0.7960
O8 O 1.0909(10) -1.1756(7) 0.5685(3)
H9 H 1.0680 -1.1617 0.6059
H10 H 1.2028 -1.2238 0.5651
N5 N 0.7228(14) 0.4988(10) 0.1616(4)
C5 C 0.7132(19) -0.5278(13) 0.7220(6)
H11 H 0.6671 -0.4509 0.7444
O9 O 0.9981(14) -0.9978(9) 0.6524(4)
N6 N 0.7200(13) -0.5019(9) 0.6610(4)
C6 C 0.7899(15) -0.6146(12) 0.6305(5)
O10 O 0.8972(11) -0.8593(8) 0.5658(4)
C7 C 0.7709(16) -0.3792(10) 0.5470(5)
H12 H 0.8403 -0.3674 0.5789
H13 H 0.8150 -0.3459 0.5080
O11 O 0.5486(11) -0.1633(8) 0.5683(4)
C8 C 0.5784(18) -0.2881(12) 0.5555(5)
O12 O 0.4484(10) -0.3255(8) 0.5461(3)
C9 C 0.7508(18) -0.4638(12) 0.3874(5)
H14 H 0.8186 -0.5602 0.3892
C10 C 0.5475(16) -0.2605(11) 0.4064(5)
H15 H 0.4506 -0.1924 0.4238
C11 C 0.7778(19) -0.3592(13) 0.3474(6)
H16 H 0.8677 -0.3717 0.3171
C12 C 0.622(2) -0.0933(14) 0.3243(6)
H17 H 0.7380 -0.0869 0.3115
H18 H 0.5615 -0.0193 0.3502
C13 C 0.510(2) -0.0696(16) 0.2682(7)
H19 H 0.5673 -0.1461 0.2433
H20 H 0.3916 -0.0719 0.2811
C14 C 0.487(2) 0.0690(16) 0.2302(8)
H21 H 0.4283 0.1454 0.2551
H22 H 0.6049 0.0716 0.2177
C15 C 0.380(2) 0.0933(13) 0.1754(6)
H23 H 0.2651 0.0842 0.1876
H24 H 0.4430 0.0207 0.1491
C16 C 0.2192(18) 0.3600(13) 0.1540(5)
H25 H 0.1309 0.3739 0.1849
C17 C 0.2499(16) 0.4616(12) 0.1115(5)
H26 H 0.1818 0.5581 0.1085
C18 C 0.4498(18) 0.2626(12) 0.0940(5)
H27 H 0.5480 0.1947 0.0771
C19 C 0.9215(16) 0.1192(11) 0.1222(5)
C20 C 0.8470(16) 0.2483(12) 0.1565(5)
C21 C 0.8355(17) 0.2269(13) 0.2199(5)
H28 H 0.8746 0.1349 0.2399
C22 C 0.7658(19) 0.3421(13) 0.2543(6)
H29 H 0.7579 0.3290 0.2969
C23 C 0.7105(19) 0.4734(14) 0.2222(6)
H30 H 0.6606 0.5509 0.2441
C24 C 0.7845(15) 0.3925(11) 0.1298(5)
C25 C 0.7726(14) 0.6193(10) 0.0477(5)
H31 H 0.8417 0.6293 0.0802
H32 H 0.8198 0.6518 0.0092
C26 C 0.5758(15) 0.7179(10) 0.0555(4)
N1A N 0.3969(13) -0.5993(9) 0.5746(4)
C1A C 0.0785(17) -0.1198(12) 0.3783(5)
N2A N 0.3504(13) -0.7685(10) 0.6406(4)
S2A S 0.1868(4) -0.4332(3) 0.45140(13)
C2A C 0.1518(16) -0.2457(11) 0.3432(5)
N3A N 0.6059(13) -1.4007(9) 0.9254(4)
C3A C 0.1579(18) -0.2235(13) 0.2795(6)
H5A H 0.1142 -0.1319 0.2592
N4A N 0.6520(15) -1.2329(10) 0.8593(4)
C4A C 0.2297(19) -0.3387(14) 0.2466(5)
H8A H 0.2388 -0.3256 0.2040
C5A C 0.2868(19) -0.4722(13) 0.2780(6)
H11A H 0.3329 -0.5491 0.2556
O9A O 0.0019(14) -0.0022(9) 0.3476(4)
N6A N 0.2800(13) -0.4981(9) 0.3390(4)
C6A C 0.2101(15) -0.3854(12) 0.3695(5)
O10A O 0.1028(11) -0.1407(8) 0.4342(4)
C7A C 0.2291(16) -0.6208(10) 0.4530(5)
H12A H 0.1597 -0.6326 0.4211
H13A H 0.1850 -0.6541 0.4920
O11A O 0.4514(11) -0.8367(8) 0.4317(4)
C8A C 0.4216(18) -0.7119(12) 0.4445(5)
O12A O 0.5516(10) -0.6745(8) 0.4539(3)
C9A C 0.2492(18) -0.5362(12) 0.6126(5)
H14A H 0.1814 -0.4398 0.6108
C10A C 0.4525(16) -0.7395(11) 0.5936(5)
H15A H 0.5494 -0.8076 0.5762
C11A C 0.2222(19) -0.6408(13) 0.6526(6)
H16A H 0.1323 -0.6283 0.6829
C12A C 0.378(2) -0.9067(14) 0.6757(6)
H17A H 0.2620 -0.9131 0.6885
H18A H 0.4385 -0.9807 0.6498
C13A C 0.490(2) -0.9304(16) 0.7318(7)
H19A H 0.4327 -0.8539 0.7567
H20A H 0.6084 -0.9281 0.7189
C14A C 0.513(2) -1.0690(16) 0.7698(8)
H21A H 0.5717 -1.1454 0.7449
H22A H 0.3951 -1.0716 0.7823
C15A C 0.620(2) -1.0933(13) 0.8246(6)
H23A H 0.7349 -1.0842 0.8124
H24A H 0.5570 -1.0207 0.8509
C16A C 0.7808(18) -1.3600(13) 0.8460(5)
H25A H 0.8691 -1.3739 0.8151
C17A C 0.7501(16) -1.4616(12) 0.8885(5)
H26A H 0.8182 -1.5581 0.8915
C18A C 0.5502(18) -1.2626(12) 0.9060(5)
H27A H 0.4520 -1.1947 0.9229
O1A O 0.5480(10) 0.3296(7) -0.0456(3)
S1A S 0.1879(4) 0.5671(3) -0.04861(12)
O4A O 0.4523(11) 0.1620(7) -0.0677(4)
O5A O 0.0013(14) 0.9966(8) -0.1515(4)
O7A O 0.1047(12) 0.8567(7) -0.0650(3)
N5A N 0.2772(14) 0.5012(10) -0.1616(4)
C19A C 0.0785(16) 0.8808(11) -0.1222(5)
C20A C 0.1530(16) 0.7517(12) -0.1565(5)
C21A C 0.1645(17) 0.7731(13) -0.2199(5)
H28A H 0.1254 0.8651 -0.2399
C22A C 0.2342(19) 0.6579(13) -0.2543(6)
H29A H 0.2421 0.6710 -0.2969
C23A C 0.2895(19) 0.5266(14) -0.2222(6)
H30A H 0.3394 0.4491 -0.2441
C24A C 0.2155(15) 0.6075(11) -0.1298(5)
C25A C 0.2274(14) 0.3807(10) -0.0477(5)
H31A H 0.1583 0.3707 -0.0802
H32A H 0.1802 0.3482 -0.0092
C26A C 0.4242(15) 0.2821(10) -0.0555(4)
O2A O 1.2508(11) -0.9808(8) 0.5008(3)
H1A H 1.3029 -0.9480 0.4708
H2A H 1.3304 -1.0282 0.5272
O3A O 1.2499(11) 0.0271(10) 0.0039(4)
H3A H 1.3007 0.0527 -0.0284
H4A H 1.3319 -0.0339 0.0264
O6A O 0.9092(10) 0.1723(7) -0.0686(3)
H6A H 0.9430 0.2061 -0.1026
H7A H 0.8039 0.2285 -0.0602
O8A O 0.9091(10) -0.8244(7) 0.4315(3)
H9A H 0.9320 -0.8383 0.3941
H10A H 0.7972 -0.7762 0.4349
Co1_2 Co 0.5000 -1.5000 1.0000
Co2_2 Co 0.0000 1.0000 0.0000
Co3_2 Co 0.0000 0.0000 0.5000
N3A_2 N 0.6059(13) 0.5993(9) -0.0746(4)
O7A_2 O 1.1047(12) -0.1433(7) -0.0650(3)
O10A_2 O 1.1028(11) -1.1407(8) 0.4342(4)
loop_
_geom_bond_atom_site_label_1
_geom_bond_atom_site_label_2
_geom_bond_site_symmetry_1
_geom_bond_site_symmetry_2
Co1 O1 1_555 1_555
N1 Co4 1_555 1_555
O1 C26 1_555 1_555
O2 H1 1_555 1_555
H2 O2 1_555 1_555
S1 Co1 1_555 1_555
C1 C2 1_555 1_555
Co2 O3 1_555 1_555
N2 C10 1_555 1_555
O3 H3 1_555 1_555
H4 O3 1_555 1_555
S2 Co4 1_555 1_555
O4 C26 1_555 1_555
C2 C3 1_555 1_555
Co3 O2 1_555 1_555
N3 Co1 1_555 1_555
O5 C19 1_555 1_555
C3 H5 1_555 1_555
O6 Co2 1_555 1_555
H6 O6 1_555 1_555
H7 O6 1_555 1_555
Co4 O12 1_555 1_555
N4 C15 1_555 1_555
O7 Co2 1_555 1_555
C4 C3 1_555 1_555
H8 C4 1_555 1_555
O8 Co3 1_555 1_555
H9 O8 1_555 1_555
H10 O8 1_555 1_555
N5 C23 1_555 1_555
C5 C4 1_555 1_555
H11 C5 1_555 1_555
O9 C1 1_555 1_555
N6 C5 1_555 1_555
C6 S2 1_555 1_555
O10 C1 1_555 1_555
C7 S2 1_555 1_555
H12 C7 1_555 1_555
H13 C7 1_555 1_555
O11 C8 1_555 1_555
C8 C7 1_555 1_555
O12 C8 1_555 1_555
C9 N1 1_555 1_555
H14 C9 1_555 1_555
C10 N1 1_555 1_555
H15 C10 1_555 1_555
C11 N2 1_555 1_555
H16 C11 1_555 1_555
C12 N2 1_555 1_555
H17 C12 1_555 1_555
H18 C12 1_555 1_555
C13 C12 1_555 1_555
H19 C13 1_555 1_555
H20 C13 1_555 1_555
C14 C13 1_555 1_555
H21 C14 1_555 1_555
H22 C14 1_555 1_555
C15 C14 1_555 1_555
H23 C15 1_555 1_555
H24 C15 1_555 1_555
C16 N4 1_555 1_555
H25 C16 1_555 1_555
C17 N3 1_555 1_555
H26 C17 1_555 1_555
C18 N3 1_555 1_555
H27 C18 1_555 1_555
C19 O7 1_555 1_555
C20 C19 1_555 1_555
C21 C20 1_555 1_555
H28 C21 1_555 1_555
C22 C21 1_555 1_555
H29 C22 1_555 1_555
C23 C22 1_555 1_555
H30 C23 1_555 1_555
C24 S1 1_555 1_555
C25 S1 1_555 1_555
H31 C25 1_555 1_555
H32 C25 1_555 1_555
C26 C25 1_555 1_555
N1A Co4 1_555 1_555
C1A C2A 1_555 1_555
N2A C10A 1_555 1_555
S2A Co4 1_555 1_555
C2A C3A 1_555 1_555
N3A C17A 1_555 1_555
C3A H5A 1_555 1_555
N4A C15A 1_555 1_555
C4A C3A 1_555 1_555
H8A C4A 1_555 1_555
C5A C4A 1_555 1_555
H11A C5A 1_555 1_555
O9A C1A 1_555 1_555
N6A C5A 1_555 1_555
C6A S2A 1_555 1_555
O10A C1A 1_555 1_555
C7A S2A 1_555 1_555
H12A C7A 1_555 1_555
H13A C7A 1_555 1_555
O11A C8A 1_555 1_555
C8A C7A 1_555 1_555
O12A Co4 1_555 1_555
C9A N1A 1_555 1_555
H14A C9A 1_555 1_555
C10A N1A 1_555 1_555
H15A C10A 1_555 1_555
C11A N2A 1_555 1_555
H16A C11A 1_555 1_555
C12A N2A 1_555 1_555
H17A C12A 1_555 1_555
H18A C12A 1_555 1_555
C13A C12A 1_555 1_555
H19A C13A 1_555 1_555
H20A C13A 1_555 1_555
C14A C13A 1_555 1_555
H21A C14A 1_555 1_555
H22A C14A 1_555 1_555
C15A C14A 1_555 1_555
H23A C15A 1_555 1_555
H24A C15A 1_555 1_555
C16A N4A 1_555 1_555
H25A C16A 1_555 1_555
C17A C16A 1_555 1_555
H26A C17A 1_555 1_555
C18A N3A 1_555 1_555
H27A C18A 1_555 1_555
O1A Co1 1_555 1_555
S1A Co1 1_555 1_555
O4A C26A 1_555 1_555
O5A C19A 1_555 1_555
O7A C19A 1_555 1_555
N5A C23A 1_555 1_555
C19A C20A 1_555 1_555
C20A C21A 1_555 1_555
C21A H28A 1_555 1_555
C22A C21A 1_555 1_555
H29A C22A 1_555 1_555
C23A C22A 1_555 1_555
H30A C23A 1_555 1_555
C24A S1A 1_555 1_555
C25A S1A 1_555 1_555
H31A C25A 1_555 1_555
H32A C25A 1_555 1_555
C26A O1A 1_555 1_555
O2A Co3 1_555 1_555
H1A O2A 1_555 1_555
H2A O2A 1_555 1_555
O3A Co2 1_555 1_555
H3A O3A 1_555 1_555
H4A O3A 1_555 1_555
O6A Co2 1_555 1_555
H6A O6A 1_555 1_555
H7A O6A 1_555 1_555
O8A Co3 1_555 1_555
H9A O8A 1_555 1_555
H10A O8A 1_555 1_555
Co1_2 N3A 1_555 1_555
Co2_2 O7A 1_555 1_555
Co3_2 O10A 1_555 1_555
N3A_2 Co1 1_555 1_555
O7A_2 Co2 1_555 1_555
O10A_2 Co3 1_555 1_555
C2 C6 1_555 1_555
Co3 O10 1_555 1_555
N4 C18 1_555 1_555
N5 C24 1_555 1_555
N6 C6 1_555 1_555
C9 C11 1_555 1_555
C16 C17 1_555 1_555
C20 C24 1_555 1_555
C2A C6A 1_555 1_555
N4A C18A 1_555 1_555
N6A C6A 1_555 1_555
C8A O12A 1_555 1_555
C9A C11A 1_555 1_555
N5A C24A 1_555 1_555
C20A C24A 1_555 1_555
C25A C26A 1_555 1_555

#END
