
#######################################################################
#
#                 Cambridge Crystallographic Data Centre
#                                CCDC 
#
#######################################################################
#
# If this CIF has been generated from an entry in the Cambridge 
# Structural Database, then it will include bibliographic, chemical, 
# crystal, experimental, refinement or atomic coordinate data resulting 
# from the CCDC's data processing and validation procedures.
#
#######################################################################

data_RITHEI
_symmetry_cell_setting           orthorhombic
_symmetry_space_group_name_H-M   'P b c n'
_symmetry_Int_Tables_number      60
_space_group_name_Hall           '-P 2n 2ab'
loop_
_symmetry_equiv_pos_site_id
_symmetry_equiv_pos_as_xyz
1 x,y,z
2 1/2-x,1/2-y,1/2+z
3 -x,y,1/2-z
4 1/2+x,1/2-y,-z
5 -x,-y,-z
6 1/2+x,1/2+y,1/2-z
7 x,-y,1/2+z
8 1/2-x,1/2+y,z
_cell_length_a                   8.9713(4)
_cell_length_b                   19.6698(9)
_cell_length_c                   10.1459(5)
_cell_angle_alpha                90
_cell_angle_beta                 90
_cell_angle_gamma                90
_cell_volume                     1790.38
loop_
_atom_site_label
_atom_site_type_symbol
_atom_site_fract_x
_atom_site_fract_y
_atom_site_fract_z
Sm1 Sm 0.0000 0.488380(7) 0.2500
O1 O 0.24788(18) 0.44913(8) 0.16326(16)
O2 O 0.10167(18) 0.56807(8) 0.10241(16)
O3 O 0.0437(2) 0.60229(8) -0.10036(16)
O4 O -0.19848(17) 0.54040(10) 0.11577(15)
N1 N 0.1463(3) 0.82113(11) 0.1303(2)
C1 C 0.1948(3) 0.77026(14) 0.2048(3)
H1 H 0.2448 0.7809 0.2824
C2 C 0.0741(4) 0.80502(12) 0.0206(3)
H2 H 0.0387 0.8401 -0.0324
C3 C 0.0487(3) 0.73896(12) -0.0190(2)
H3 H -0.0040 0.7299 -0.0960
C4 C 0.1755(3) 0.70253(13) 0.1739(2)
H4 H 0.2106 0.6686 0.2297
C5 C 0.1028(2) 0.68633(11) 0.0579(2)
C6 C 0.0799(3) 0.61309(10) 0.0173(2)
H5 H -0.2831(6) 0.5451(13) 0.1446(8)
H6 H 0.2846(14) 0.4110(2) 0.159(2)
H7 H 0.3149(9) 0.4764(3) 0.178(3)
H8 H -0.2009(14) 0.5434(16) 0.0355(5)
Sm1F Sm 0.0000 0.511620(7) -0.2500
Sm1F_2 Sm 0.0000 0.511620(7) 0.7500
O1B O -0.24788(18) 0.44913(8) 0.33674(16)
O2B O -0.10167(18) 0.56807(8) 0.39759(16)
O3B O -0.0437(2) 0.60229(8) 0.60036(16)
O3F O 0.0437(2) 0.39771(8) 0.39964(16)
O3D O -0.0437(2) 0.39771(8) 0.10036(16)
O4B O 0.19848(17) 0.54040(10) 0.38423(15)
N1B N -0.1463(3) 0.82113(11) 0.3697(2)
C1B C -0.1948(3) 0.77026(14) 0.2952(3)
H1B H -0.2448 0.7809 0.2176
C2B C -0.0741(4) 0.80502(12) 0.4794(3)
H2B H -0.0387 0.8401 0.5324
C3B C -0.0487(3) 0.73896(12) 0.5190(2)
H3B H 0.0040 0.7299 0.5960
C4B C -0.1755(3) 0.70253(13) 0.3261(2)
H4B H -0.2106 0.6686 0.2703
C5B C -0.1028(2) 0.68633(11) 0.4421(2)
C6B C -0.0799(3) 0.61309(10) 0.4827(2)
H5B H 0.2831(6) 0.5451(13) 0.3554(8)
H6B H -0.2846(14) 0.4110(2) 0.341(2)
H7B H -0.3149(9) 0.4764(3) 0.322(3)
H8B H 0.2009(14) 0.5434(16) 0.4645(5)
Cl1 Cl 0.5000 0.55724(6) 0.2500
loop_
_geom_bond_atom_site_label_1
_geom_bond_atom_site_label_2
_geom_bond_site_symmetry_1
_geom_bond_site_symmetry_2
Sm1 O1 1_555 1_555
O1 H6 1_555 1_555
O2 Sm1 1_555 1_555
O3 C6 1_555 1_555
O4 Sm1 1_555 1_555
N1 C1 1_555 1_555
C1 H1 1_555 1_555
C2 N1 1_555 1_555
H2 C2 1_555 1_555
C3 C2 1_555 1_555
H3 C3 1_555 1_555
C4 C1 1_555 1_555
H4 C4 1_555 1_555
C5 C3 1_555 1_555
C6 O2 1_555 1_555
H5 O4 1_555 1_555
H7 O1 1_555 1_555
H8 O4 1_555 1_555
Sm1F O3 1_555 1_555
Sm1F_2 O3B 1_555 1_555
O1B Sm1 1_555 1_555
O2B Sm1 1_555 1_555
O3B C6B 1_555 1_555
O3F Sm1 1_555 1_555
O3D Sm1 1_555 1_555
O4B Sm1 1_555 1_555
N1B C1B 1_555 1_555
C1B H1B 1_555 1_555
C2B N1B 1_555 1_555
H2B C2B 1_555 1_555
C3B C2B 1_555 1_555
H3B C3B 1_555 1_555
C4B C1B 1_555 1_555
H4B C4B 1_555 1_555
C5B C3B 1_555 1_555
C6B O2B 1_555 1_555
H5B O4B 1_555 1_555
H6B O1B 1_555 1_555
H7B O1B 1_555 1_555
H8B O4B 1_555 1_555
C4 C5 1_555 1_555
C5 C6 1_555 1_555
C4B C5B 1_555 1_555
C5B C6B 1_555 1_555

#END
