
#######################################################################
#
#                 Cambridge Crystallographic Data Centre
#                                CCDC 
#
#######################################################################
#
# If this CIF has been generated from an entry in the Cambridge 
# Structural Database, then it will include bibliographic, chemical, 
# crystal, experimental, refinement or atomic coordinate data resulting 
# from the CCDC's data processing and validation procedures.
#
#######################################################################

data_RITMIR
_symmetry_cell_setting           monoclinic
_symmetry_space_group_name_H-M   'C 2/c'
_symmetry_Int_Tables_number      15
_space_group_name_Hall           '-C 2yn'
loop_
_symmetry_equiv_pos_site_id
_symmetry_equiv_pos_as_xyz
1 x,y,z
2 1/2+x,1/2+y,z
3 -x,y,1/2-z
4 1/2-x,1/2+y,1/2-z
5 -x,-y,-z
6 1/2-x,1/2-y,-z
7 x,-y,1/2+z
8 1/2+x,1/2-y,1/2+z
_cell_length_a                   12.5650(2)
_cell_length_b                   7.51580(10)
_cell_length_c                   11.8314(2)
_cell_angle_alpha                90
_cell_angle_beta                 110.7590(10)
_cell_angle_gamma                90
_cell_volume                     1044.77
loop_
_atom_site_label
_atom_site_type_symbol
_atom_site_fract_x
_atom_site_fract_y
_atom_site_fract_z
Fe1 Fe 0.2500 0.2500 0.5000
C1 C 0.08321(16) -0.0176(3) 0.38935(17)
C2 C 0.04250(15) 0.1436(3) 0.30732(16)
C3 C 0.04814(18) 0.4486(3) 0.30161(19)
H1 H 0.0840 0.5557 0.3320
N1 N 0.09020(14) 0.2975(2) 0.35810(15)
O1 O 0.18127(13) -0.0012(2) 0.47077(14)
O2 O 0.01979(14) -0.1458(2) 0.37732(17)
O3 O 0.32048(15) 0.2010(3) 0.36718(16)
H2 H 0.3336 0.0941 0.3525
H3 H 0.3619 0.2805 0.3524
Fe1G Fe -0.2500 0.2500 0.0000
C1B C -0.08321(16) -0.0176(3) 0.11065(17)
C2B C -0.04250(15) 0.1436(3) 0.19268(16)
C3B C -0.04814(18) 0.4486(3) 0.19839(19)
H1B H -0.0840 0.5557 0.1680
N1B N -0.09020(14) 0.2975(2) 0.14190(15)
N1E N 0.40980(14) 0.2025(2) 0.64190(15)
O1B O -0.18127(13) -0.0012(2) 0.02923(14)
O1E O 0.31873(13) 0.5012(2) 0.52923(14)
O2B O -0.01979(14) -0.1458(2) 0.12268(17)
O3E O 0.17952(15) 0.2990(3) 0.63282(16)
H2E H 0.1664 0.4059 0.6475
H3E H 0.1381 0.2195 0.6476
O4 O 0.1817(2) 0.2742(3) 0.14299(19)
H4 H 0.1531 0.1832 0.1004
H5 H 0.2226 0.3406 0.1168
loop_
_geom_bond_atom_site_label_1
_geom_bond_atom_site_label_2
_geom_bond_site_symmetry_1
_geom_bond_site_symmetry_2
Fe1 N1 1_555 1_555
C1 C2 1_555 1_555
C2 N1 1_555 1_555
C3 H1 1_555 1_555
N1 C3 1_555 1_555
O1 Fe1 1_555 1_555
O2 C1 1_555 1_555
O3 Fe1 1_555 1_555
H2 O3 1_555 1_555
H3 O3 1_555 1_555
O4 H4 1_555 1_555
H5 O4 1_555 1_555
Fe1G N1B 1_555 1_555
C1B C2B 1_555 1_555
C2B C2 1_555 1_555
C3B C3 1_555 1_555
H1B C3B 1_555 1_555
N1B C2B 1_555 1_555
N1E Fe1 1_555 1_555
O1B Fe1G 1_555 1_555
O1E Fe1 1_555 1_555
O2B C1B 1_555 1_555
O3E Fe1 1_555 1_555
H2E O3E 1_555 1_555
H3E O3E 1_555 1_555
C1 O1 1_555 1_555
C1B O1B 1_555 1_555
C3B N1B 1_555 1_555

#END
