
#######################################################################
#
#                 Cambridge Crystallographic Data Centre
#                                CCDC 
#
#######################################################################
#
# If this CIF has been generated from an entry in the Cambridge 
# Structural Database, then it will include bibliographic, chemical, 
# crystal, experimental, refinement or atomic coordinate data resulting 
# from the CCDC's data processing and validation procedures.
#
#######################################################################

data_RITMUC
_symmetry_cell_setting           monoclinic
_symmetry_space_group_name_H-M   'C 2/c'
_symmetry_Int_Tables_number      15
_space_group_name_Hall           '-C 2yn'
loop_
_symmetry_equiv_pos_site_id
_symmetry_equiv_pos_as_xyz
1 x,y,z
2 -x,y,1/2-z
3 1/2+x,1/2+y,z
4 1/2-x,1/2+y,1/2-z
5 -x,-y,-z
6 x,-y,1/2+z
7 1/2-x,1/2-y,-z
8 1/2+x,1/2-y,1/2+z
_cell_length_a                   17.036(3)
_cell_length_b                   12.630(3)
_cell_length_c                   12.897(3)
_cell_angle_alpha                90
_cell_angle_beta                 117.41(3)
_cell_angle_gamma                90
_cell_volume                     2463.45
loop_
_atom_site_label
_atom_site_type_symbol
_atom_site_fract_x
_atom_site_fract_y
_atom_site_fract_z
Cu1 Cu 0.7185(1) 0.6181(1) 0.3166(1)
O1 O 0.5929(2) 0.6263(3) 0.2815(3)
O2 O 0.6552(2) 0.4112(3) 0.3097(3)
O3 O 0.5000 0.2687(4) 0.2500
O4 O 0.2439(2) 0.6124(2) 0.0136(3)
O5 O 0.2250(2) 0.7077(2) -0.1406(2)
N1 N 0.3149(3) 0.6221(3) 0.3569(3)
N2 N 0.1569(3) 0.5869(3) 0.1566(4)
C1 C 0.5471(3) 0.5450(4) 0.2666(4)
C2 C 0.5787(3) 0.4374(4) 0.2802(4)
C3 C 0.5000 0.3661(6) 0.2500
C4 C 0.3696(6) 0.7137(5) 0.4136(5)
C5 C 0.3600(3) 0.5239(4) 0.4170(4)
C6 C 0.2293(5) 0.6315(6) 0.3602(5)
C7 C 0.1630(4) 0.5652(6) 0.2718(6)
C8 C 0.1239(4) 0.4888(5) 0.0830(7)
C9 C 0.0953(3) 0.6741(4) 0.0974(4)
C10 C 0.2405(3) 0.6986(4) -0.0374(4)
H1 H 0.3795(27) 0.7178(22) 0.4946(14)
H2 H 0.3396(15) 0.7782(6) 0.3718(26)
H3 H 0.4266(13) 0.7070(18) 0.4126(36)
H4 H 0.3258(10) 0.4625(4) 0.3729(14)
H5 H 0.3650(17) 0.5226(12) 0.4958(10)
H6 H 0.4192(8) 0.5215(12) 0.4222(22)
H7 H 0.2370(5) 0.6102(6) 0.4382(5)
H8 H 0.2094(5) 0.7062(6) 0.3468(5)
H9 H 0.1049(4) 0.5785(6) 0.2694(6)
H10 H 0.1784(4) 0.4898(6) 0.2921(6)
H11 H 0.0714(17) 0.4623(19) 0.0872(30)
H12 H 0.1702(11) 0.4345(12) 0.1122(24)
H13 H 0.1086(26) 0.5058(9) 0.0018(10)
H14 H 0.0906(15) 0.6844(15) 0.0195(10)
H15 H 0.1172(10) 0.7392(6) 0.1431(13)
H16 H 0.0369(6) 0.6568(11) 0.0903(22)
C1A C 0.4529(3) 0.5450(4) 0.2334(4)
O1A O 0.4071(2) 0.6263(3) 0.2185(3)
Cu1A Cu 0.2815(1) 0.6181(1) 0.1834(1)
Cu1G Cu 0.2185(1) 0.8819(1) -0.1834(1)
O1G O 0.0929(2) 0.8737(3) -0.2185(3)
O4F O 0.2561(2) 0.8876(2) -0.0136(3)
C10F C 0.2595(3) 0.8014(4) 0.0374(4)
O5F O 0.2750(2) 0.7923(2) 0.1406(2)
N1F N 0.1851(3) 0.8779(3) -0.3569(3)
C4F C 0.1304(6) 0.7863(5) -0.4136(5)
H1F H 0.1205(27) 0.7822(22) -0.4946(14)
H2F H 0.1604(15) 0.7218(6) -0.3718(26)
H3F H 0.0734(13) 0.7930(18) -0.4126(36)
C5F C 0.1400(3) 0.9761(4) -0.4170(4)
H4F H 0.1742(10) 1.0375(4) -0.3729(14)
H5F H 0.1350(17) 0.9774(12) -0.4958(10)
H6F H 0.0808(8) 0.9785(12) -0.4222(22)
C6F C 0.2707(5) 0.8685(6) -0.3602(5)
C7F C 0.3370(4) 0.9348(6) -0.2718(6)
N2F N 0.3431(3) 0.9131(3) -0.1566(4)
C8F C 0.3761(4) 1.0112(5) -0.0830(7)
H11F H 0.4286(17) 1.0377(19) -0.0872(30)
H12F H 0.3298(11) 1.0655(12) -0.1122(24)
H13F H 0.3914(26) 0.9942(9) -0.0018(10)
C9F C 0.4047(3) 0.8259(4) -0.0974(4)
H14F H 0.4094(15) 0.8156(15) -0.0195(10)
H15F H 0.3828(10) 0.7608(6) -0.1431(13)
H16F H 0.4631(6) 0.8432(11) -0.0903(22)
H9F H 0.3951(4) 0.9215(6) -0.2694(6)
H10F H 0.3216(4) 1.0102(6) -0.2921(6)
H7F H 0.2630(5) 0.8898(6) -0.4382(5)
H8F H 0.2906(5) 0.7938(6) -0.3468(5)
C2A C 0.4213(3) 0.4374(4) 0.2198(4)
O2A O 0.3448(2) 0.4112(3) 0.1903(3)
O6 O 0.5000 0.1560(5) 0.7500
H17 H 0.5446(26) 0.1935(38) 0.7669(47)
H17A H 0.4554(26) 0.1935(38) 0.7331(47)
loop_
_geom_bond_atom_site_label_1
_geom_bond_atom_site_label_2
_geom_bond_site_symmetry_1
_geom_bond_site_symmetry_2
Cu1 O1 1_555 1_555
O1 C1 1_555 1_555
O2 C2 1_555 1_555
O3 C3 1_555 1_555
O4 C10 1_555 1_555
O5 C10 1_555 1_555
N1 C4 1_555 1_555
N2 C7 1_555 1_555
C1 C2 1_555 1_555
C2 C3 1_555 1_555
C3 C2A 1_555 1_555
C4 H1 1_555 1_555
C5 N1 1_555 1_555
C6 N1 1_555 1_555
C7 C6 1_555 1_555
C8 N2 1_555 1_555
C9 N2 1_555 1_555
C10 C10F 1_555 1_555
O6 H17 1_555 1_555
H2 C4 1_555 1_555
H3 C4 1_555 1_555
H4 C5 1_555 1_555
H5 C5 1_555 1_555
H6 C5 1_555 1_555
H7 C6 1_555 1_555
H8 C6 1_555 1_555
H9 C7 1_555 1_555
H10 C7 1_555 1_555
H11 C8 1_555 1_555
H12 C8 1_555 1_555
H13 C8 1_555 1_555
H14 C9 1_555 1_555
H15 C9 1_555 1_555
H16 C9 1_555 1_555
C1A C1 1_555 1_555
O1A C1A 1_555 1_555
Cu1A O4 1_555 1_555
Cu1G O5 1_555 1_555
O1G Cu1G 1_555 1_555
O4F Cu1G 1_555 1_555
C10F O4F 1_555 1_555
O5F Cu1A 1_555 1_555
N1F Cu1G 1_555 1_555
C4F N1F 1_555 1_555
H1F C4F 1_555 1_555
H2F C4F 1_555 1_555
H3F C4F 1_555 1_555
C5F N1F 1_555 1_555
H4F C5F 1_555 1_555
H5F C5F 1_555 1_555
H6F C5F 1_555 1_555
C6F N1F 1_555 1_555
C7F C6F 1_555 1_555
N2F Cu1G 1_555 1_555
C8F N2F 1_555 1_555
H11F C8F 1_555 1_555
H12F C8F 1_555 1_555
H13F C8F 1_555 1_555
C9F N2F 1_555 1_555
H14F C9F 1_555 1_555
H15F C9F 1_555 1_555
H16F C9F 1_555 1_555
H9F C7F 1_555 1_555
H10F C7F 1_555 1_555
H7F C6F 1_555 1_555
H8F C6F 1_555 1_555
C2A C1A 1_555 1_555
O2A C2A 1_555 1_555
H17A O6 1_555 1_555
N1 Cu1A 1_555 1_555
N2 Cu1A 1_555 1_555
O1A Cu1A 1_555 1_555
C10F O5F 1_555 1_555
C7F N2F 1_555 1_555

#END
