
#######################################################################
#
#                 Cambridge Crystallographic Data Centre
#                                CCDC 
#
#######################################################################
#
# If this CIF has been generated from an entry in the Cambridge 
# Structural Database, then it will include bibliographic, chemical, 
# crystal, experimental, refinement or atomic coordinate data resulting 
# from the CCDC's data processing and validation procedures.
#
#######################################################################

data_RIVBOO
_symmetry_cell_setting           orthorhombic
_symmetry_space_group_name_H-M   'F d d 2'
_symmetry_Int_Tables_number      43
_space_group_name_Hall           'F 2 -2d'
loop_
_symmetry_equiv_pos_site_id
_symmetry_equiv_pos_as_xyz
1 x,y,z
2 -x,-y,z
3 1/4+x,1/4-y,1/4+z
4 1/4-x,1/4+y,1/4+z
5 x,1/2+y,1/2+z
6 -x,1/2-y,1/2+z
7 1/4+x,3/4-y,3/4+z
8 1/4-x,3/4+y,3/4+z
9 1/2+x,y,1/2+z
10 1/2-x,-y,1/2+z
11 3/4+x,1/4-y,3/4+z
12 3/4-x,1/4+y,3/4+z
13 1/2+x,1/2+y,z
14 1/2-x,1/2-y,z
15 3/4+x,3/4-y,1/4+z
16 3/4-x,3/4+y,1/4+z
_cell_length_a                   44.173(10)
_cell_length_b                   11.396(2)
_cell_length_c                   11.726(2)
_cell_angle_alpha                90
_cell_angle_beta                 90
_cell_angle_gamma                90
_cell_volume                     5902.82
loop_
_atom_site_label
_atom_site_type_symbol
_atom_site_fract_x
_atom_site_fract_y
_atom_site_fract_z
Cd1 Cd 0.7500 0.7500 0.62779(8)
F1 F 0.84138(19) 0.9959(5) 0.6521(8)
F2 F 0.82492(15) 0.9853(4) 0.8119(6)
F3 F 0.86239(13) 0.8878(4) 0.7670(9)
N1 N 0.7500 0.7500 0.8284(12)
N2 N 0.7500 0.7500 1.4309(11)
O1 O 0.79174(8) 0.8626(3) 0.6475(4)
O2 O 0.78438(7) 0.6025(3) 0.6303(4)
C1 C 0.83653(15) 0.9203(6) 0.7367(10)
C2 C 0.81497(13) 0.8240(4) 0.6951(5)
C3 C 0.82397(13) 0.7105(5) 0.7200(6)
H1 H 0.8416 0.7015 0.7625
C4 C 0.80873(12) 0.6070(4) 0.6865(4)
C5 C 0.82309(14) 0.4928(4) 0.7154(7)
C6 C 0.8355(2) 0.4726(7) 0.8211(9)
H2 H 0.8349 0.5310 0.8764
C7 C 0.8487(2) 0.3659(7) 0.8455(11)
H3 H 0.8572 0.3525 0.9170
C8 C 0.84946(19) 0.2788(7) 0.7630(13)
H4 H 0.8583 0.2066 0.7790
C9 C 0.83720(16) 0.2995(6) 0.6593(9)
H5 H 0.8380 0.2416 0.6034
C10 C 0.82363(13) 0.4041(5) 0.6354(7)
H6 H 0.8147 0.4158 0.5646
C11 C 0.74638(13) 0.8485(5) 0.8901(5)
H7 H 0.7439 0.9186 0.8507
C12 C 0.74615(14) 0.8528(5) 1.0069(5)
H8 H 0.7434 0.9242 1.0440
C13 C 0.7500 0.7500 1.0702(13)
C14 C 0.76685(13) 0.6753(5) 1.3737(5)
H9 H 0.7789 0.6228 1.4140
C15 C 0.76729(14) 0.6720(5) 1.2552(5)
H10 H 0.7792 0.6174 1.2169
C16 C 0.7500 0.7500 1.1963(14)
Cd1_2 Cd 0.7500 0.7500 1.62779(8)
F1M F 0.65862(19) 0.5041(5) 0.6521(8)
F2M F 0.67508(15) 0.5147(4) 0.8119(6)
F3M F 0.63761(13) 0.6122(4) 0.7670(9)
N2_2 N 0.7500 0.7500 0.4309(11)
O1M O 0.70826(8) 0.6374(3) 0.6475(4)
O2M O 0.71562(7) 0.8975(3) 0.6303(4)
C1M C 0.66347(15) 0.5797(6) 0.7367(10)
C2M C 0.68503(13) 0.6760(4) 0.6951(5)
C3M C 0.67603(13) 0.7895(5) 0.7200(6)
H1M H 0.6584 0.7985 0.7625
C4M C 0.69127(12) 0.8930(4) 0.6865(4)
C5M C 0.67691(14) 1.0072(4) 0.7154(7)
C6M C 0.6645(2) 1.0274(7) 0.8211(9)
H2M H 0.6651 0.9690 0.8764
C7M C 0.6513(2) 1.1341(7) 0.8455(11)
H3M H 0.6428 1.1475 0.9170
C8M C 0.65054(19) 1.2212(7) 0.7630(13)
H4M H 0.6417 1.2934 0.7790
C9M C 0.66280(16) 1.2005(6) 0.6593(9)
H5M H 0.6620 1.2584 0.6034
C10M C 0.67637(13) 1.0959(5) 0.6354(7)
H6M H 0.6853 1.0842 0.5646
C11M C 0.75362(13) 0.6515(5) 0.8901(5)
H7M H 0.7561 0.5814 0.8507
C12M C 0.75385(14) 0.6472(5) 1.0069(5)
H8M H 0.7566 0.5758 1.0440
C14M C 0.73315(13) 0.8247(5) 1.3737(5)
H9M H 0.7211 0.8772 1.4140
C15M C 0.73271(14) 0.8280(5) 1.2552(5)
H10M H 0.7208 0.8826 1.2169
loop_
_geom_bond_atom_site_label_1
_geom_bond_atom_site_label_2
_geom_bond_site_symmetry_1
_geom_bond_site_symmetry_2
Cd1 N1 1_555 1_555
F1 C1 1_555 1_555
F2 C1 1_555 1_555
F3 C1 1_555 1_555
N1 C11 1_555 1_555
N2 C14 1_555 1_555
O1 Cd1 1_555 1_555
O2 Cd1 1_555 1_555
C1 C2 1_555 1_555
C2 O1 1_555 1_555
C3 C2 1_555 1_555
H1 C3 1_555 1_555
C4 O2 1_555 1_555
C5 C4 1_555 1_555
C6 C5 1_555 1_555
H2 C6 1_555 1_555
C7 C6 1_555 1_555
H3 C7 1_555 1_555
C8 C7 1_555 1_555
H4 C8 1_555 1_555
C9 C8 1_555 1_555
H5 C9 1_555 1_555
C10 C5 1_555 1_555
H6 C10 1_555 1_555
C11 H7 1_555 1_555
C12 C11 1_555 1_555
H8 C12 1_555 1_555
C13 C12 1_555 1_555
C14 H9 1_555 1_555
C15 C14 1_555 1_555
H10 C15 1_555 1_555
C16 C13 1_555 1_555
Cd1_2 N2 1_555 1_555
F1M C1M 1_555 1_555
F2M C1M 1_555 1_555
F3M C1M 1_555 1_555
N2_2 Cd1 1_555 1_555
O1M Cd1 1_555 1_555
O2M Cd1 1_555 1_555
C1M C2M 1_555 1_555
C2M O1M 1_555 1_555
C3M C2M 1_555 1_555
H1M C3M 1_555 1_555
C4M O2M 1_555 1_555
C5M C4M 1_555 1_555
C6M C5M 1_555 1_555
H2M C6M 1_555 1_555
C7M C6M 1_555 1_555
H3M C7M 1_555 1_555
C8M C7M 1_555 1_555
H4M C8M 1_555 1_555
C9M C8M 1_555 1_555
H5M C9M 1_555 1_555
C10M C5M 1_555 1_555
H6M C10M 1_555 1_555
C11M N1 1_555 1_555
H7M C11M 1_555 1_555
C12M C13 1_555 1_555
H8M C12M 1_555 1_555
C14M N2 1_555 1_555
H9M C14M 1_555 1_555
C15M C16 1_555 1_555
H10M C15M 1_555 1_555
C3 C4 1_555 1_555
C9 C10 1_555 1_555
C15 C16 1_555 1_555
C3M C4M 1_555 1_555
C9M C10M 1_555 1_555
C11M C12M 1_555 1_555
C14M C15M 1_555 1_555

#END
