
#######################################################################
#
#                 Cambridge Crystallographic Data Centre
#                                CCDC 
#
#######################################################################
#
# If this CIF has been generated from an entry in the Cambridge 
# Structural Database, then it will include bibliographic, chemical, 
# crystal, experimental, refinement or atomic coordinate data resulting 
# from the CCDC's data processing and validation procedures.
#
#######################################################################

data_RIVKEN
_symmetry_cell_setting           orthorhombic
_symmetry_space_group_name_H-M   'P n a b'
_symmetry_Int_Tables_number      60
_space_group_name_Hall           '-P 2bc 2n'
loop_
_symmetry_equiv_pos_site_id
_symmetry_equiv_pos_as_xyz
1 x,y,z
2 -x,1/2-y,1/2+z
3 1/2+x,1/2-y,1/2-z
4 1/2-x,y,-z
5 -x,-y,-z
6 x,1/2+y,1/2-z
7 1/2-x,1/2+y,1/2+z
8 1/2+x,-y,z
_cell_length_a                   10.5320(2)
_cell_length_b                   16.1162(3)
_cell_length_c                   17.7628(4)
_cell_angle_alpha                90
_cell_angle_beta                 90
_cell_angle_gamma                90
_cell_volume                     3014.98
loop_
_atom_site_label
_atom_site_type_symbol
_atom_site_fract_x
_atom_site_fract_y
_atom_site_fract_z
O1 O 0.87252(14) 0.18975(10) -0.03361(12)
C1 C 0.75059(19) -0.00428(12) 0.10712(12)
O2 O 0.63912(14) 0.00860(10) 0.08555(9)
C2 C 0.7758(2) -0.06343(15) 0.16900(13)
C3 C 0.6762(2) -0.10835(15) 0.20055(14)
H1 H 0.5934 -0.0987 0.1847
C4 C 0.8985(2) -0.07808(17) 0.19422(14)
H2 H 0.9658 -0.0476 0.1747
C5 C 0.9207(3) -0.13770(19) 0.24820(16)
H3 H 1.0035 -0.1476 0.2641
C6 C 0.7000(3) -0.16696(18) 0.25513(17)
H4 H 0.6327 -0.1962 0.2762
C7 C 0.8228(3) -0.18301(19) 0.27920(17)
C8 C 0.8491(4) -0.2504(3) 0.3366(2)
H5 H 0.9387 -0.2529 0.3466
H6 H 0.8210 -0.3029 0.3173
H7 H 0.8045 -0.2382 0.3824
Co1 Co 0.7500 0.10806(3) 0.0000
Co2 Co 0.5000 0.0000 0.0000
O3 O 0.84242(14) 0.03572(9) 0.07637(8)
O4 O 1.05296(14) 0.11862(10) -0.01756(9)
C9 C 0.99213(19) 0.18326(14) -0.03493(15)
C10 C 1.0634(2) 0.25815(14) -0.05995(14)
C11 C 1.1911(2) 0.25359(17) -0.07867(15)
H8 H 1.2334 0.2031 -0.0756
C12 C 1.2555(3) 0.3234(2) -0.10169(19)
H9 H 1.3406 0.3191 -0.1152
C13 C 1.1972(3) 0.3988(2) -0.1051(2)
C14 C 1.0033(3) 0.33399(19) -0.0635(3)
H10 H 0.9179 0.3386 -0.0508
C15 C 1.0712(4) 0.4035(2) -0.0861(3)
H11 H 1.0302 0.4546 -0.0884
C16 C 1.2686(4) 0.4772(3) -0.1276(4)
H12 H 1.3562 0.4639 -0.1366
H13 H 1.2629 0.5172 -0.0877
H14 H 1.2318 0.4998 -0.1726
O1C O 0.62748(14) 0.18975(10) 0.03361(12)
C1C C 0.74941(19) -0.00428(12) -0.10712(12)
O2C O 0.86088(14) 0.00860(10) -0.08555(9)
O2D O 0.36088(14) -0.00860(10) -0.08555(9)
C2C C 0.7242(2) -0.06343(15) -0.16900(13)
C3C C 0.8238(2) -0.10835(15) -0.20055(14)
H1C H 0.9066 -0.0987 -0.1847
C4C C 0.6015(2) -0.07808(17) -0.19422(14)
H2C H 0.5342 -0.0476 -0.1747
C5C C 0.5793(3) -0.13770(19) -0.24820(16)
H3C H 0.4965 -0.1476 -0.2641
C6C C 0.8000(3) -0.16696(18) -0.25513(17)
H4C H 0.8673 -0.1962 -0.2762
C7C C 0.6772(3) -0.18301(19) -0.27920(17)
C8C C 0.6509(4) -0.2504(3) -0.3366(2)
H5C H 0.5613 -0.2529 -0.3466
H6C H 0.6790 -0.3029 -0.3173
H7C H 0.6955 -0.2382 -0.3824
Co2G Co 1.0000 0.0000 0.0000
O3C O 0.65758(14) 0.03572(9) -0.07637(8)
O3G O 0.34242(14) -0.03572(9) 0.07637(8)
O4C O 0.44704(14) 0.11862(10) 0.01756(9)
O4G O 0.55296(14) -0.11862(10) -0.01756(9)
C9C C 0.50787(19) 0.18326(14) 0.03493(15)
C10C C 0.4366(2) 0.25815(14) 0.05995(14)
C11C C 0.3089(2) 0.25359(17) 0.07867(15)
H8C H 0.2666 0.2031 0.0756
C12C C 0.2445(3) 0.3234(2) 0.10169(19)
H9C H 0.1594 0.3191 0.1152
C13C C 0.3028(3) 0.3988(2) 0.1051(2)
C14C C 0.4967(3) 0.33399(19) 0.0635(3)
H10C H 0.5821 0.3386 0.0508
C15C C 0.4288(4) 0.4035(2) 0.0861(3)
H11C H 0.4698 0.4546 0.0884
C16C C 0.2314(4) 0.4772(3) 0.1276(4)
H12C H 0.1438 0.4639 0.1366
H13C H 0.2371 0.5172 0.0877
H14C H 0.2682 0.4998 0.1726
loop_
_geom_bond_atom_site_label_1
_geom_bond_atom_site_label_2
_geom_bond_site_symmetry_1
_geom_bond_site_symmetry_2
O1 Co1 1_555 1_555
C1 O2 1_555 1_555
O2 Co2 1_555 1_555
C2 C1 1_555 1_555
C3 C2 1_555 1_555
H1 C3 1_555 1_555
C4 C2 1_555 1_555
H2 C4 1_555 1_555
C5 C4 1_555 1_555
H3 C5 1_555 1_555
C6 C3 1_555 1_555
H4 C6 1_555 1_555
C7 C5 1_555 1_555
C8 C7 1_555 1_555
H5 C8 1_555 1_555
H6 C8 1_555 1_555
H7 C8 1_555 1_555
Co1 O3 1_555 1_555
Co2 O2D 1_555 1_555
O3 C1 1_555 1_555
O4 C9 1_555 1_555
C9 O1 1_555 1_555
C10 C9 1_555 1_555
C11 C10 1_555 1_555
H8 C11 1_555 1_555
C12 C11 1_555 1_555
H9 C12 1_555 1_555
C13 C12 1_555 1_555
C14 C10 1_555 1_555
H10 C14 1_555 1_555
C15 C13 1_555 1_555
H11 C15 1_555 1_555
C16 C13 1_555 1_555
H12 C16 1_555 1_555
H13 C16 1_555 1_555
H14 C16 1_555 1_555
O1C Co1 1_555 1_555
C1C O2C 1_555 1_555
O2C Co2G 1_555 1_555
C2C C1C 1_555 1_555
C3C C2C 1_555 1_555
H1C C3C 1_555 1_555
C4C C2C 1_555 1_555
H2C C4C 1_555 1_555
C5C C4C 1_555 1_555
H3C C5C 1_555 1_555
C6C C3C 1_555 1_555
H4C C6C 1_555 1_555
C7C C5C 1_555 1_555
C8C C7C 1_555 1_555
H5C C8C 1_555 1_555
H6C C8C 1_555 1_555
H7C C8C 1_555 1_555
Co2G O3 1_555 1_555
O3C Co1 1_555 1_555
O3G Co2 1_555 1_555
O4C Co2 1_555 1_555
O4G Co2 1_555 1_555
C9C O1C 1_555 1_555
C10C C9C 1_555 1_555
C11C C10C 1_555 1_555
H8C C11C 1_555 1_555
C12C C11C 1_555 1_555
H9C C12C 1_555 1_555
C13C C12C 1_555 1_555
C14C C10C 1_555 1_555
H10C C14C 1_555 1_555
C15C C13C 1_555 1_555
H11C C15C 1_555 1_555
C16C C13C 1_555 1_555
H12C C16C 1_555 1_555
H13C C16C 1_555 1_555
H14C C16C 1_555 1_555
C6 C7 1_555 1_555
Co2 O3C 1_555 1_555
O4 Co2G 1_555 1_555
C14 C15 1_555 1_555
C1C O3C 1_555 1_555
C6C C7C 1_555 1_555
O4C C9C 1_555 1_555
C14C C15C 1_555 1_555

#END
