
#######################################################################
#
#                 Cambridge Crystallographic Data Centre
#                                CCDC 
#
#######################################################################
#
# If this CIF has been generated from an entry in the Cambridge 
# Structural Database, then it will include bibliographic, chemical, 
# crystal, experimental, refinement or atomic coordinate data resulting 
# from the CCDC's data processing and validation procedures.
#
#######################################################################

data_RIVTAS
_symmetry_cell_setting           triclinic
_symmetry_space_group_name_H-M   'P -1'
_symmetry_Int_Tables_number      2
_space_group_name_Hall           '-P 1'
loop_
_symmetry_equiv_pos_site_id
_symmetry_equiv_pos_as_xyz
1 x,y,z
2 -x,-y,-z
_cell_length_a                   7.9774(17)
_cell_length_b                   9.472(2)
_cell_length_c                   12.658(3)
_cell_angle_alpha                76.408(3)
_cell_angle_beta                 84.883(3)
_cell_angle_gamma                82.958(3)
_cell_volume                     920.854
loop_
_atom_site_label
_atom_site_type_symbol
_atom_site_fract_x
_atom_site_fract_y
_atom_site_fract_z
Tb1 Tb 0.14660(3) 0.30529(2) 0.02325(2)
Tb2 Tb 0.64332(3) 0.38140(3) -0.09178(2)
O1 O 0.1937(5) 0.4120(4) -0.1653(3)
O2 O 0.4345(5) 0.5154(5) -0.2159(4)
O3 O -0.0545(5) 0.6612(4) -0.1945(3)
O4 O -0.1924(5) 0.5002(4) -0.2457(3)
O5 O -0.3097(5) 0.1829(4) 0.0624(3)
O6 O -0.0326(4) 0.1095(4) 0.0818(3)
O7 O -0.2892(5) -0.1287(4) 0.0624(3)
O8 O -0.5282(5) -0.2006(5) 0.1550(4)
O9 O 0.2886(5) 0.1101(4) 0.1649(4)
H1 H 0.3372 0.1407 0.2112
H2 H 0.3201 0.0233 0.1586
O10 O 0.4118(4) 0.3797(4) 0.0441(3)
H3 H 0.4540 0.3122 0.1098
O11 O -0.1329(4) 0.4278(4) -0.0028(3)
H4 H -0.1807 0.4014 0.0724
O12 O 0.8867(6) 0.2110(5) -0.1494(4)
H5 H 0.8934 0.1214 -0.1178
H6 H 0.9082 0.2314 -0.2178
N1 N 0.2781(8) 0.6452(7) -0.5343(5)
N2 N -0.3497(7) -0.1163(6) 0.4336(4)
C1 C 0.2887(7) 0.4914(6) -0.2336(4)
C2 C 0.2209(7) 0.5597(6) -0.3423(5)
C3 C 0.3300(8) 0.5873(7) -0.4349(5)
H7 H 0.4456 0.5640 -0.4269
C4 C 0.1091(9) 0.6786(7) -0.5454(5)
H8 H 0.0709 0.7202 -0.6143
C5 C -0.0062(8) 0.6531(6) -0.4587(5)
H9 H -0.1211 0.6762 -0.4692
C6 C 0.0470(7) 0.5928(6) -0.3551(4)
C7 C -0.0777(6) 0.5819(6) -0.2568(4)
C8 C -0.1887(7) 0.1094(6) 0.1117(4)
C9 C -0.2336(6) 0.0191(5) 0.2230(4)
C10 C -0.1792(8) 0.0552(7) 0.3143(5)
H10 H -0.1031 0.1245 0.3064
C11 C -0.2402(8) -0.0133(7) 0.4159(5)
H11 H -0.2042 0.0124 0.4760
C12 C -0.3976(7) -0.1512(6) 0.3441(5)
H12 H -0.4723 -0.2219 0.3537
C13 C -0.3426(7) -0.0884(6) 0.2398(5)
C14 C -0.3899(7) -0.1422(5) 0.1444(5)
Tb1A Tb -0.14660(3) 0.69471(2) -0.02325(2)
Tb1A_2 Tb -0.14660(3) -0.30529(2) -0.02325(2)
Tb2_2 Tb -0.35668(3) 0.38140(3) -0.09178(2)
Tb2A Tb -0.64332(3) -0.38140(3) 0.09178(2)
Tb2A_2 Tb 0.35668(3) 0.61860(3) 0.09178(2)
O3A O 0.0545(5) 0.3388(4) 0.1945(3)
O4_2 O 0.8076(5) 0.5002(4) -0.2457(3)
O5_2 O 0.6903(5) 0.1829(4) 0.0624(3)
O7A O 0.2892(5) 0.1287(4) -0.0624(3)
O8A O 0.5282(5) 0.2006(5) -0.1550(4)
O10A O 0.5882(4) 0.6203(4) -0.0441(3)
H3A H 0.5460 0.6878 -0.1098
O11A O 0.1329(4) 0.5722(4) 0.0028(3)
O11_2 O 0.8671(4) 0.4278(4) -0.0028(3)
H4A H 0.1807 0.5986 -0.0724
H4_2 H 0.8193 0.4014 0.0724
O13 O 0.5956(7) 0.7990(6) -0.3328(4)
H13 H 0.6134 0.7927 -0.3986
H14 H 0.5553 0.7284 -0.2881
loop_
_geom_bond_atom_site_label_1
_geom_bond_atom_site_label_2
_geom_bond_site_symmetry_1
_geom_bond_site_symmetry_2
Tb1 O1 1_555 1_555
Tb2 O2 1_555 1_555
O1 C1 1_555 1_555
O2 C1 1_555 1_555
O3 C7 1_555 1_555
O4 C7 1_555 1_555
O5 C8 1_555 1_555
O6 Tb1 1_555 1_555
O7 C14 1_555 1_555
O8 C14 1_555 1_555
O9 Tb1 1_555 1_555
H1 O9 1_555 1_555
H2 O9 1_555 1_555
O10 Tb1 1_555 1_555
H3 O10 1_555 1_555
O11 Tb1 1_555 1_555
H4 O11 1_555 1_555
O12 Tb2 1_555 1_555
H5 O12 1_555 1_555
H6 O12 1_555 1_555
N1 C3 1_555 1_555
N2 C11 1_555 1_555
C1 C2 1_555 1_555
C2 C3 1_555 1_555
C3 H7 1_555 1_555
C4 N1 1_555 1_555
H8 C4 1_555 1_555
C5 C4 1_555 1_555
H9 C5 1_555 1_555
C6 C2 1_555 1_555
C7 C6 1_555 1_555
C8 O6 1_555 1_555
C9 C8 1_555 1_555
C10 C9 1_555 1_555
H10 C10 1_555 1_555
C11 C10 1_555 1_555
H11 C11 1_555 1_555
C12 N2 1_555 1_555
H12 C12 1_555 1_555
C13 C9 1_555 1_555
C14 C13 1_555 1_555
O13 H13 1_555 1_555
H14 O13 1_555 1_555
Tb1A O3 1_555 1_555
Tb1A_2 O7 1_555 1_555
Tb2_2 O4 1_555 1_555
Tb2A O8 1_555 1_555
Tb2A_2 O10 1_555 1_555
O3A Tb1 1_555 1_555
O4_2 Tb2 1_555 1_555
O5_2 Tb2 1_555 1_555
O7A Tb1 1_555 1_555
O8A Tb2 1_555 1_555
O10A Tb2 1_555 1_555
H3A O10A 1_555 1_555
O11A Tb1 1_555 1_555
O11_2 Tb2 1_555 1_555
H4A O11A 1_555 1_555
H4_2 O11_2 1_555 1_555
Tb2 O10 1_555 1_555
O5 Tb2_2 1_555 1_555
O11 Tb1A 1_555 1_555
O11 Tb2_2 1_555 1_555
C5 C6 1_555 1_555
C12 C13 1_555 1_555
Tb1A O11A 1_555 1_555
Tb2A_2 O10A 1_555 1_555
Tb2A_2 O11A 1_555 1_555

#END
