
#######################################################################
#
#                 Cambridge Crystallographic Data Centre
#                                CCDC 
#
#######################################################################
#
# If this CIF has been generated from an entry in the Cambridge 
# Structural Database, then it will include bibliographic, chemical, 
# crystal, experimental, refinement or atomic coordinate data resulting 
# from the CCDC's data processing and validation procedures.
#
#######################################################################

data_RIWBOP
_symmetry_cell_setting           tetragonal
_symmetry_space_group_name_H-M   'I 41/a'
_symmetry_Int_Tables_number      88
_space_group_name_Hall           '-I 4ad'
loop_
_symmetry_equiv_pos_site_id
_symmetry_equiv_pos_as_xyz
1 x,y,z
2 3/4-y,1/4+x,1/4+z
3 1/2+x,1/2+y,1/2+z
4 1/4-y,3/4+x,3/4+z
5 1/4+y,1/4-x,1/4+z
6 1/2-x,-y,1/2+z
7 3/4+y,3/4-x,3/4+z
8 -x,1/2-y,z
9 -x,-y,-z
10 1/4+y,3/4-x,3/4-z
11 1/2-x,1/2-y,1/2-z
12 3/4+y,1/4-x,1/4-z
13 3/4-y,3/4+x,3/4-z
14 1/2+x,y,1/2-z
15 1/4-y,1/4+x,1/4-z
16 x,1/2+y,-z
_cell_length_a                   27.047(5)
_cell_length_b                   27.047(5)
_cell_length_c                   14.103(3)
_cell_angle_alpha                90
_cell_angle_beta                 90
_cell_angle_gamma                90
_cell_volume                     10316.9
loop_
_atom_site_label
_atom_site_type_symbol
_atom_site_fract_x
_atom_site_fract_y
_atom_site_fract_z
Cu1 Cu 0.25023(3) 0.34391(3) 0.59824(7)
O1 O 0.27600(15) 0.40650(14) 0.6377(4)
O2 O 0.22875(17) 0.27916(15) 0.5585(4)
O3 O 0.29960(19) 0.16161(16) 0.6961(5)
H1 H 0.3009 0.1911 0.7094
N1 N 0.33352(17) 0.45243(17) 0.7198(4)
N2 N 0.37479(17) 0.44528(17) 0.7766(4)
N3 N 0.29963(18) 0.30517(17) 0.6641(4)
N4 N 0.29265(19) 0.25389(17) 0.6537(5)
C1 C 0.2782(2) 0.5217(2) 0.6922(6)
H2 H 0.2528 0.5041 0.7212
C2 C 0.2698(3) 0.5688(3) 0.6587(7)
H3 H 0.2387 0.5831 0.6644
C3 C 0.3071(4) 0.5939(3) 0.6174(9)
H4 H 0.3015 0.6257 0.5947
C4 C 0.3533(4) 0.5733(4) 0.6086(9)
H5 H 0.3788 0.5910 0.5805
C5 C 0.3614(3) 0.5263(3) 0.6416(7)
H6 H 0.3925 0.5119 0.6357
C6 C 0.3240(2) 0.5009(2) 0.6829(6)
C7 C 0.3151(2) 0.4081(2) 0.6892(5)
C8 C 0.3454(2) 0.3708(2) 0.7273(5)
C9 C 0.3813(2) 0.3965(2) 0.7814(5)
C10 C 0.4220(2) 0.3771(3) 0.8441(6)
H7 H 0.4363 0.4039 0.8790
H8 H 0.4469 0.3617 0.8057
H9 H 0.4086 0.3533 0.8875
C11 C 0.3379(2) 0.3191(2) 0.7136(6)
C12 C 0.3729(3) 0.2818(2) 0.7539(7)
H10 H 0.3739 0.2533 0.7135
H11 H 0.3620 0.2723 0.8160
H12 H 0.4053 0.2961 0.7581
C13 C 0.2546(2) 0.2455(2) 0.5989(6)
C14 C 0.2406(2) 0.1930(2) 0.5835(6)
C15 C 0.2025(3) 0.1813(2) 0.5225(6)
H13 H 0.1870 0.2068 0.4896
C16 C 0.1868(3) 0.1338(3) 0.5083(6)
H14 H 0.1615 0.1273 0.4654
C17 C 0.2082(3) 0.0961(3) 0.5571(7)
H15 H 0.1969 0.0639 0.5491
C18 C 0.2466(3) 0.1057(2) 0.6185(6)
H16 H 0.2617 0.0800 0.6513
C19 C 0.2625(2) 0.1538(2) 0.6311(6)
Cu1A Cu 0.40609(3) 0.50023(3) 0.84824(7)
N2F N 0.19528(17) 0.37521(17) 0.5266(4)
O4 O 0.2630(7) 0.2689(5) 0.4084(16)
loop_
_geom_bond_atom_site_label_1
_geom_bond_atom_site_label_2
_geom_bond_site_symmetry_1
_geom_bond_site_symmetry_2
Cu1 O1 1_555 1_555
O1 C7 1_555 1_555
O2 Cu1 1_555 1_555
O3 H1 1_555 1_555
N1 N2 1_555 1_555
N2 C9 1_555 1_555
N3 Cu1 1_555 1_555
N4 N3 1_555 1_555
C1 H2 1_555 1_555
C2 C1 1_555 1_555
H3 C2 1_555 1_555
C3 C2 1_555 1_555
H4 C3 1_555 1_555
C4 C3 1_555 1_555
H5 C4 1_555 1_555
C5 C4 1_555 1_555
H6 C5 1_555 1_555
C6 N1 1_555 1_555
C7 N1 1_555 1_555
C8 C7 1_555 1_555
C9 C8 1_555 1_555
C10 C9 1_555 1_555
H7 C10 1_555 1_555
H8 C10 1_555 1_555
H9 C10 1_555 1_555
C11 N3 1_555 1_555
C12 C11 1_555 1_555
H10 C12 1_555 1_555
H11 C12 1_555 1_555
H12 C12 1_555 1_555
C13 O2 1_555 1_555
C14 C13 1_555 1_555
C15 C14 1_555 1_555
H13 C15 1_555 1_555
C16 C15 1_555 1_555
H14 C16 1_555 1_555
C17 C16 1_555 1_555
H15 C17 1_555 1_555
C18 C17 1_555 1_555
H16 C18 1_555 1_555
C19 O3 1_555 1_555
Cu1A N2 1_555 1_555
N2F Cu1 1_555 1_555
N4 C13 1_555 1_555
C1 C6 1_555 1_555
C5 C6 1_555 1_555
C8 C11 1_555 1_555
C14 C19 1_555 1_555
C18 C19 1_555 1_555

#END
