
#######################################################################
#
#                 Cambridge Crystallographic Data Centre
#                                CCDC 
#
#######################################################################
#
# If this CIF has been generated from an entry in the Cambridge 
# Structural Database, then it will include bibliographic, chemical, 
# crystal, experimental, refinement or atomic coordinate data resulting 
# from the CCDC's data processing and validation procedures.
#
#######################################################################

data_RIWFOS
_symmetry_cell_setting           monoclinic
_symmetry_space_group_name_H-M   'C 2/c'
_symmetry_Int_Tables_number      15
_space_group_name_Hall           '-C 2yn'
loop_
_symmetry_equiv_pos_site_id
_symmetry_equiv_pos_as_xyz
1 x,y,z
2 1/2+x,1/2+y,z
3 -x,y,1/2-z
4 1/2-x,1/2+y,1/2-z
5 -x,-y,-z
6 1/2-x,1/2-y,-z
7 x,-y,1/2+z
8 1/2+x,1/2-y,1/2+z
_cell_length_a                   10.450(2)
_cell_length_b                   13.396(3)
_cell_length_c                   16.067(7)
_cell_angle_alpha                90
_cell_angle_beta                 97.33(2)
_cell_angle_gamma                90
_cell_volume                     2230.81
loop_
_atom_site_label
_atom_site_type_symbol
_atom_site_fract_x
_atom_site_fract_y
_atom_site_fract_z
W1 W 0.0000 0.5000 0.0000
Cu1 Cu 0.2500 0.2500 0.0000
F1 F 0.1185(4) 0.3931(3) 0.0020(2)
F2 F 0.0477(5) 0.5452(4) -0.1007(3)
F3 F 0.1291(4) 0.5811(4) 0.0579(3)
N1 N 0.4070(5) 0.3346(5) 0.0347(3)
N2 N 0.2394(6) 0.2289(5) 0.1266(4)
C1 C 0.4042(7) 0.4153(6) 0.0823(5)
C2 C 0.5128(9) 0.4689(7) 0.1134(5)
C3 C 0.6310(8) 0.4394(7) 0.0920(5)
C4 C 0.6370(7) 0.3573(6) 0.0399(6)
C5 C 0.5246(7) 0.3071(6) 0.0111(5)
C6 C 0.3089(7) 0.1570(6) 0.1670(5)
C7 C 0.3115(8) 0.1420(6) 0.2521(5)
C8 C 0.2385(8) 0.2026(7) 0.2969(5)
C9 C 0.1679(8) 0.2777(7) 0.2557(5)
C10 C 0.1688(8) 0.2885(6) 0.1706(5)
H1 H 0.3230 0.4351 0.0957
H2 H 0.5063 0.5250 0.1488
H3 H 0.7072 0.4749 0.1127
H4 H 0.7173 0.3359 0.0243
H5 H 0.5283 0.2522 -0.0259
H6 H 0.3586 0.1144 0.1364
H7 H 0.3630 0.0904 0.2796
H8 H 0.2372 0.1923 0.3553
H9 H 0.1189 0.3218 0.2855
H10 H 0.1179 0.3397 0.1420
F1D F -0.1185(4) 0.6069(3) -0.0020(2)
F2D F -0.0477(5) 0.4548(4) 0.1007(3)
F3D F -0.1291(4) 0.4189(4) -0.0579(3)
F1E F 0.3815(4) 0.1069(3) -0.0020(2)
N1E N 0.0930(5) 0.1654(5) -0.0347(3)
N2E N 0.2606(6) 0.2711(5) -0.1266(4)
loop_
_geom_bond_atom_site_label_1
_geom_bond_atom_site_label_2
_geom_bond_site_symmetry_1
_geom_bond_site_symmetry_2
W1 F1 1_555 1_555
Cu1 F1 1_555 1_555
F2 W1 1_555 1_555
F3 W1 1_555 1_555
N1 Cu1 1_555 1_555
N2 Cu1 1_555 1_555
C1 N1 1_555 1_555
C2 C1 1_555 1_555
C3 C2 1_555 1_555
C4 C3 1_555 1_555
C5 N1 1_555 1_555
C6 N2 1_555 1_555
C7 C6 1_555 1_555
C8 C7 1_555 1_555
C9 C8 1_555 1_555
C10 N2 1_555 1_555
H1 C1 1_555 1_555
H2 C2 1_555 1_555
H3 C3 1_555 1_555
H4 C4 1_555 1_555
H5 C5 1_555 1_555
H6 C6 1_555 1_555
H7 C7 1_555 1_555
H8 C8 1_555 1_555
H9 C9 1_555 1_555
H10 C10 1_555 1_555
F1D W1 1_555 1_555
F2D W1 1_555 1_555
F3D W1 1_555 1_555
F1E Cu1 1_555 1_555
N1E Cu1 1_555 1_555
N2E Cu1 1_555 1_555
C4 C5 1_555 1_555
C9 C10 1_555 1_555

#END
