
#######################################################################
#
#                 Cambridge Crystallographic Data Centre
#                                CCDC 
#
#######################################################################
#
# If this CIF has been generated from an entry in the Cambridge 
# Structural Database, then it will include bibliographic, chemical, 
# crystal, experimental, refinement or atomic coordinate data resulting 
# from the CCDC's data processing and validation procedures.
#
#######################################################################

data_RIWFIM
_symmetry_cell_setting           monoclinic
_symmetry_space_group_name_H-M   'P 21/n'
_symmetry_Int_Tables_number      14
_space_group_name_Hall           '-P 2yn'
loop_
_symmetry_equiv_pos_site_id
_symmetry_equiv_pos_as_xyz
1 x,y,z
2 1/2-x,1/2+y,1/2-z
3 -x,-y,-z
4 1/2+x,1/2-y,1/2+z
_cell_length_a                   11.500(4)
_cell_length_b                   7.970(2)
_cell_length_c                   16.521(3)
_cell_angle_alpha                90
_cell_angle_beta                 103.06(2)
_cell_angle_gamma                90
_cell_volume                     1475.07
loop_
_atom_site_label
_atom_site_type_symbol
_atom_site_fract_x
_atom_site_fract_y
_atom_site_fract_z
W1 W 0.49702(4) 0.10511(6) 0.74633(3)
Cu1 Cu 0.4988(1) 0.6023(2) 0.74419(8)
F1 F 0.5558(5) 0.3198(7) 0.7383(4)
F2 F 0.4412(6) -0.1151(7) 0.7507(4)
F3 F 0.4363(6) 0.0995(8) 0.6312(4)
F4 F 0.5617(6) 0.1029(8) 0.8608(4)
F5 F 0.3544(5) 0.1933(8) 0.7648(4)
F6 F 0.6454(5) 0.0136(7) 0.7307(4)
O1 O 0.3482(5) 0.5287(9) 0.7727(4)
O2 O 0.6533(5) 0.6836(9) 0.7206(4)
N1 N 0.5721(7) 0.603(1) 0.8668(6)
N2 N 0.4238(8) 0.598(1) 0.6204(6)
C1 C 0.5296(9) 0.703(1) 0.9189(6)
C2 C 0.577(1) 0.706(2) 1.0030(7)
C3 C 0.675(1) 0.602(2) 1.0358(7)
C4 C 0.717(1) 0.499(2) 0.9831(7)
C5 C 0.6656(9) 0.503(1) 0.9006(7)
C6 C 0.4582(9) 0.705(1) 0.5683(7)
C7 C 0.4140(10) 0.701(2) 0.4838(7)
C8 C 0.327(1) 0.580(2) 0.4505(7)
C9 C 0.291(1) 0.474(1) 0.5043(7)
C10 C 0.3399(9) 0.482(1) 0.5872(7)
H1 H 0.4639 0.7758 0.8956
H2 H 0.5437 0.7784 1.0386
H3 H 0.7102 0.6053 1.0948
H4 H 0.7828 0.4225 1.0042
H5 H 0.6980 0.4331 0.8634
H6 H 0.5162 0.7898 0.5918
H7 H 0.4403 0.7811 0.4481
H8 H 0.2959 0.5735 0.3912
H9 H 0.2313 0.3895 0.4827
H10 H 0.3154 0.4024 0.6243
F2_2 F 0.4412(6) 0.8849(7) 0.7507(4)
Cu1_2 Cu 0.4988(1) -0.3977(2) 0.74419(8)
loop_
_geom_bond_atom_site_label_1
_geom_bond_atom_site_label_2
_geom_bond_site_symmetry_1
_geom_bond_site_symmetry_2
W1 F1 1_555 1_555
Cu1 F1 1_555 1_555
F2 W1 1_555 1_555
F3 W1 1_555 1_555
F4 W1 1_555 1_555
F5 W1 1_555 1_555
F6 W1 1_555 1_555
O1 Cu1 1_555 1_555
O2 Cu1 1_555 1_555
N1 Cu1 1_555 1_555
N2 Cu1 1_555 1_555
C1 N1 1_555 1_555
C2 C1 1_555 1_555
C3 C2 1_555 1_555
C4 C3 1_555 1_555
C5 N1 1_555 1_555
C6 N2 1_555 1_555
C7 C6 1_555 1_555
C8 C7 1_555 1_555
C9 C8 1_555 1_555
C10 N2 1_555 1_555
H1 C1 1_555 1_555
H2 C2 1_555 1_555
H3 C3 1_555 1_555
H4 C4 1_555 1_555
H5 C5 1_555 1_555
H6 C6 1_555 1_555
H7 C7 1_555 1_555
H8 C8 1_555 1_555
H9 C9 1_555 1_555
H10 C10 1_555 1_555
F2_2 Cu1 1_555 1_555
Cu1_2 F2 1_555 1_555
C4 C5 1_555 1_555
C9 C10 1_555 1_555

#END
