
#######################################################################
#
#                 Cambridge Crystallographic Data Centre
#                                CCDC 
#
#######################################################################
#
# If this CIF has been generated from an entry in the Cambridge 
# Structural Database, then it will include bibliographic, chemical, 
# crystal, experimental, refinement or atomic coordinate data resulting 
# from the CCDC's data processing and validation procedures.
#
#######################################################################

data_RIWGIP
_symmetry_cell_setting           triclinic
_symmetry_space_group_name_H-M   'P -1'
_symmetry_Int_Tables_number      2
_space_group_name_Hall           '-P 1'
loop_
_symmetry_equiv_pos_site_id
_symmetry_equiv_pos_as_xyz
1 x,y,z
2 -x,-y,-z
_cell_length_a                   9.4854(5)
_cell_length_b                   13.3798(7)
_cell_length_c                   15.5233(8)
_cell_angle_alpha                102.2910(10)
_cell_angle_beta                 102.2850(10)
_cell_angle_gamma                110.3550(10)
_cell_volume                     1714
loop_
_atom_site_label
_atom_site_type_symbol
_atom_site_fract_x
_atom_site_fract_y
_atom_site_fract_z
U1 U 0.712806(18) 0.569840(13) 0.524393(12)
Zn1 Zn 0.48917(6) 0.73552(4) 0.58655(4)
O1 O 0.7557(4) 0.5336(3) 0.6286(2)
O2 O 0.6874(4) 0.6147(3) 0.4233(2)
O3 O 0.8433(4) 0.7614(3) 0.6143(2)
O4 O 0.4969(3) 0.4056(2) 0.4497(2)
O5 O 1.2033(3) 0.5754(2) 0.5518(2)
O6 O 1.0069(4) 0.6319(3) 0.5503(2)
O7 O 0.7035(4) 0.8637(3) 0.6129(3)
C1 C 1.0606(5) 0.5602(4) 0.5292(3)
C2 C 0.8282(6) 0.8512(4) 0.6158(3)
C3 C 0.9713(6) 0.9497(4) 0.6215(3)
C4 C 1.1192(6) 0.9450(5) 0.6353(4)
H1 H 1.1307 0.8808 0.6425
C5 C 1.2481(6) 1.0367(5) 0.6382(4)
H2 H 1.3469 1.0342 0.6481
C6 C 1.2317(7) 1.1319(5) 0.6266(4)
H3 H 1.3190 1.1933 0.6288
C7 C 1.0853(7) 1.1356(5) 0.6116(4)
H4 H 1.0737 1.1995 0.6034
C8 C 0.9563(7) 1.0450(4) 0.6088(4)
H5 H 0.8578 1.0479 0.5983
C9 C 0.3952(5) 0.7017(4) 0.3877(3)
H6 H 0.4607 0.6640 0.3835
C10 C 0.2702(7) 0.7935(5) 0.4412(4)
H7 H 0.2345 0.8321 0.4825
C11 C 0.2228(7) 0.7717(5) 0.3495(4)
H8 H 0.1496 0.7918 0.3156
C12 C 0.2865(6) 0.6687(4) 0.2185(3)
C13 C 0.3100(6) 0.5719(4) 0.1886(4)
H9 H 0.3417 0.5380 0.2309
C14 C 0.2853(6) 0.5266(4) 0.0946(4)
H10 H 0.3025 0.4624 0.0747
C15 C 0.2353(6) 0.5744(4) 0.0288(3)
C16 C 0.2147(6) 0.6722(4) 0.0621(4)
H11 H 0.1839 0.7073 0.0206
C17 C 0.2392(6) 0.7180(4) 0.1557(4)
H12 H 0.2234 0.7826 0.1761
C18 C 0.2075(6) 0.5261(4) -0.0714(3)
C19 C 0.2867(7) 0.4635(5) -0.1030(4)
H13 H 0.3564 0.4490 -0.0607
C20 C 0.2627(7) 0.4222(5) -0.1975(4)
H14 H 0.3180 0.3816 -0.2178
C21 C 0.1578(7) 0.4410(5) -0.2612(4)
H15 H 0.1426 0.4136 -0.3243
C22 C 0.0758(7) 0.5004(5) -0.2311(4)
H16 H 0.0032 0.5121 -0.2739
C23 C 0.1012(6) 0.5428(5) -0.1369(4)
H17 H 0.0456 0.5835 -0.1172
C24 C 0.5354(6) 0.9244(4) 0.7502(4)
H18 H 0.6277 0.9722 0.7434
C25 C 0.4642(6) 0.9530(4) 0.8126(4)
H19 H 0.4977 1.0233 0.8555
C26 C 0.3285(6) 0.7762(4) 0.7307(3)
H20 H 0.2507 0.7032 0.7082
C27 C 0.2146(6) 0.8490(4) 0.8468(3)
C28 C 0.2569(6) 0.9201(4) 0.9357(3)
H21 H 0.3604 0.9732 0.9654
C29 C 0.1424(6) 0.9109(4) 0.9800(3)
H22 H 0.1704 0.9589 1.0397
C30 C -0.0143(6) 0.8314(4) 0.9370(3)
C31 C -0.0512(6) 0.7620(4) 0.8465(3)
H23 H -0.1543 0.7084 0.8160
C32 C 0.0596(6) 0.7710(4) 0.8020(3)
H24 H 0.0314 0.7248 0.7416
C33 C -0.1348(6) 0.8200(4) 0.9858(4)
C34 C -0.2945(7) 0.7807(5) 0.9372(4)
H25 H -0.3264 0.7623 0.8729
C35 C -0.4077(7) 0.7682(5) 0.9831(5)
H26 H -0.5142 0.7414 0.9494
C36 C -0.3611(8) 0.7960(5) 1.0794(5)
H27 H -0.4363 0.7866 1.1103
C37 C -0.2044(8) 0.8370(6) 1.1281(5)
H28 H -0.1730 0.8576 1.1926
C38 C -0.0917(7) 0.8484(5) 1.0828(4)
H29 H 0.0144 0.8754 1.1172
N1 N 0.3798(5) 0.7505(3) 0.4659(3)
N2 N 0.3042(5) 0.7131(4) 0.3144(3)
N3 N 0.4480(5) 0.8123(3) 0.6982(3)
N4 N 0.3329(5) 0.8581(3) 0.8003(3)
O6A O 0.9931(4) 0.3681(3) 0.4497(2)
C1A C 0.9394(5) 0.4398(4) 0.4708(3)
O5A O 0.7967(3) 0.4246(2) 0.4482(2)
U1A U 0.287194(18) 0.430160(13) 0.475607(12)
Zn1A Zn 0.51083(6) 0.26448(4) 0.41345(4)
O1A O 0.2443(4) 0.4664(3) 0.3714(2)
O2A O 0.3126(4) 0.3853(3) 0.5767(2)
O3A O 0.1567(4) 0.2386(3) 0.3857(2)
O4A O 0.5031(3) 0.5944(2) 0.5503(2)
O7A O 0.2965(4) 0.1363(3) 0.3871(3)
C2A C 0.1718(6) 0.1488(4) 0.3842(3)
C3A C 0.0287(6) 0.0503(4) 0.3785(3)
C4A C -0.1192(6) 0.0550(5) 0.3647(4)
H1A H -0.1307 0.1192 0.3575
C5A C -0.2481(6) -0.0367(5) 0.3618(4)
H2A H -0.3469 -0.0342 0.3519
C6A C -0.2317(7) -0.1319(5) 0.3734(4)
H3A H -0.3190 -0.1933 0.3712
C7A C -0.0853(7) -0.1356(5) 0.3884(4)
H4A H -0.0737 -0.1995 0.3966
C8A C 0.0437(7) -0.0450(4) 0.3912(4)
H5A H 0.1422 -0.0479 0.4017
C9A C 0.6048(5) 0.2983(4) 0.6123(3)
H6A H 0.5393 0.3360 0.6165
C10A C 0.7298(7) 0.2065(5) 0.5588(4)
H7A H 0.7655 0.1679 0.5175
C11A C 0.7772(7) 0.2283(5) 0.6505(4)
H8A H 0.8504 0.2082 0.6844
C12A C 0.7135(6) 0.3313(4) 0.7815(3)
C13A C 0.6900(6) 0.4281(4) 0.8114(4)
H9A H 0.6583 0.4620 0.7691
C14A C 0.7147(6) 0.4734(4) 0.9054(4)
H10A H 0.6975 0.5376 0.9253
C15A C 0.7647(6) 0.4256(4) 0.9712(3)
C16A C 0.7853(6) 0.3278(4) 0.9379(4)
H11A H 0.8161 0.2927 0.9794
C17A C 0.7608(6) 0.2820(4) 0.8443(4)
H12A H 0.7766 0.2174 0.8239
C18A C 0.7925(6) 0.4739(4) 1.0714(3)
C19A C 0.7133(7) 0.5365(5) 1.1030(4)
H13A H 0.6436 0.5510 1.0607
C20A C 0.7373(7) 0.5778(5) 1.1975(4)
H14A H 0.6820 0.6184 1.2178
C21A C 0.8422(7) 0.5590(5) 1.2612(4)
H15A H 0.8574 0.5864 1.3243
C22A C 0.9242(7) 0.4996(5) 1.2311(4)
H16A H 0.9968 0.4879 1.2739
C23A C 0.8988(6) 0.4572(5) 1.1369(4)
H17A H 0.9544 0.4165 1.1172
C24A C 0.4646(6) 0.0756(4) 0.2498(4)
H18A H 0.3723 0.0278 0.2566
C25A C 0.5358(6) 0.0470(4) 0.1874(4)
H19A H 0.5023 -0.0233 0.1445
C26A C 0.6715(6) 0.2238(4) 0.2693(3)
H20A H 0.7493 0.2968 0.2918
C27A C 0.7854(6) 0.1510(4) 0.1532(3)
C28A C 0.7431(6) 0.0799(4) 0.0643(3)
H21A H 0.6396 0.0268 0.0346
C29A C 0.8576(6) 0.0891(4) 0.0200(3)
H22A H 0.8296 0.0411 -0.0397
C30A C 1.0143(6) 0.1686(4) 0.0630(3)
C31A C 1.0512(6) 0.2380(4) 0.1535(3)
H23A H 1.1543 0.2916 0.1840
C32A C 0.9404(6) 0.2290(4) 0.1980(3)
H24A H 0.9686 0.2752 0.2584
C33A C 1.1348(6) 0.1800(4) 0.0142(4)
C34A C 1.2945(7) 0.2193(5) 0.0628(4)
H25A H 1.3264 0.2377 0.1271
C35A C 1.4077(7) 0.2318(5) 0.0169(5)
H26A H 1.5142 0.2586 0.0506
C36A C 1.3611(8) 0.2040(5) -0.0794(5)
H27A H 1.4363 0.2134 -0.1103
C37A C 1.2044(8) 0.1630(6) -0.1281(5)
H28A H 1.1730 0.1424 -0.1926
C38A C 1.0917(7) 0.1516(5) -0.0828(4)
H29A H 0.9856 0.1246 -0.1172
N1A N 0.6202(5) 0.2495(3) 0.5341(3)
N2A N 0.6958(5) 0.2869(4) 0.6856(3)
N3A N 0.5520(5) 0.1877(3) 0.3018(3)
N4A N 0.6671(5) 0.1419(3) 0.1997(3)
U1A_2 U 1.287194(18) 0.430160(13) 0.475607(12)
O5_2 O 0.2033(3) 0.5754(2) 0.5518(2)
O6A_2 O -0.0069(4) 0.3681(3) 0.4497(2)
O8 O 0.5339(9) 0.6007(6) 0.7416(5)
loop_
_geom_bond_atom_site_label_1
_geom_bond_atom_site_label_2
_geom_bond_site_symmetry_1
_geom_bond_site_symmetry_2
U1 O1 1_555 1_555
Zn1 O7 1_555 1_555
O2 U1 1_555 1_555
O3 U1 1_555 1_555
O4 U1 1_555 1_555
O5 C1 1_555 1_555
O6 U1 1_555 1_555
O7 C2 1_555 1_555
C1 O6 1_555 1_555
C2 O3 1_555 1_555
C3 C2 1_555 1_555
C4 C3 1_555 1_555
H1 C4 1_555 1_555
C5 C4 1_555 1_555
H2 C5 1_555 1_555
C6 C5 1_555 1_555
H3 C6 1_555 1_555
C7 C6 1_555 1_555
H4 C7 1_555 1_555
C8 C3 1_555 1_555
H5 C8 1_555 1_555
C9 H6 1_555 1_555
C10 H7 1_555 1_555
C11 C10 1_555 1_555
H8 C11 1_555 1_555
C12 C13 1_555 1_555
C13 H9 1_555 1_555
C14 C13 1_555 1_555
H10 C14 1_555 1_555
C15 C14 1_555 1_555
C16 C15 1_555 1_555
H11 C16 1_555 1_555
C17 C12 1_555 1_555
H12 C17 1_555 1_555
C18 C15 1_555 1_555
C19 C18 1_555 1_555
H13 C19 1_555 1_555
C20 C19 1_555 1_555
H14 C20 1_555 1_555
C21 C20 1_555 1_555
H15 C21 1_555 1_555
C22 C21 1_555 1_555
H16 C22 1_555 1_555
C23 C18 1_555 1_555
H17 C23 1_555 1_555
C24 H18 1_555 1_555
C25 C24 1_555 1_555
H19 C25 1_555 1_555
C26 H20 1_555 1_555
C27 C28 1_555 1_555
C28 H21 1_555 1_555
C29 C28 1_555 1_555
H22 C29 1_555 1_555
C30 C29 1_555 1_555
C31 C30 1_555 1_555
H23 C31 1_555 1_555
C32 C27 1_555 1_555
H24 C32 1_555 1_555
C33 C30 1_555 1_555
C34 C33 1_555 1_555
H25 C34 1_555 1_555
C35 C34 1_555 1_555
H26 C35 1_555 1_555
C36 C35 1_555 1_555
H27 C36 1_555 1_555
C37 C36 1_555 1_555
H28 C37 1_555 1_555
C38 C33 1_555 1_555
H29 C38 1_555 1_555
N1 Zn1 1_555 1_555
N2 C9 1_555 1_555
N3 Zn1 1_555 1_555
N4 C25 1_555 1_555
O6A C1A 1_555 1_555
C1A C1 1_555 1_555
O5A U1 1_555 1_555
U1A O4 1_555 1_555
Zn1A O4 1_555 1_555
O1A U1A 1_555 1_555
O2A U1A 1_555 1_555
O3A U1A 1_555 1_555
O4A U1 1_555 1_555
O7A Zn1A 1_555 1_555
C2A O3A 1_555 1_555
C3A C2A 1_555 1_555
C4A C3A 1_555 1_555
H1A C4A 1_555 1_555
C5A C4A 1_555 1_555
H2A C5A 1_555 1_555
C6A C5A 1_555 1_555
H3A C6A 1_555 1_555
C7A C6A 1_555 1_555
H4A C7A 1_555 1_555
C8A C3A 1_555 1_555
H5A C8A 1_555 1_555
C9A H6A 1_555 1_555
C10A H7A 1_555 1_555
C11A C10A 1_555 1_555
H8A C11A 1_555 1_555
C12A C13A 1_555 1_555
C13A H9A 1_555 1_555
C14A C13A 1_555 1_555
H10A C14A 1_555 1_555
C15A C14A 1_555 1_555
C16A C15A 1_555 1_555
H11A C16A 1_555 1_555
C17A C12A 1_555 1_555
H12A C17A 1_555 1_555
C18A C15A 1_555 1_555
C19A C18A 1_555 1_555
H13A C19A 1_555 1_555
C20A C19A 1_555 1_555
H14A C20A 1_555 1_555
C21A C20A 1_555 1_555
H15A C21A 1_555 1_555
C22A C21A 1_555 1_555
H16A C22A 1_555 1_555
C23A C18A 1_555 1_555
H17A C23A 1_555 1_555
C24A H18A 1_555 1_555
C25A C24A 1_555 1_555
H19A C25A 1_555 1_555
C26A H20A 1_555 1_555
C27A C28A 1_555 1_555
C28A H21A 1_555 1_555
C29A C28A 1_555 1_555
H22A C29A 1_555 1_555
C30A C29A 1_555 1_555
C31A C30A 1_555 1_555
H23A C31A 1_555 1_555
C32A C27A 1_555 1_555
H24A C32A 1_555 1_555
C33A C30A 1_555 1_555
C34A C33A 1_555 1_555
H25A C34A 1_555 1_555
C35A C34A 1_555 1_555
H26A C35A 1_555 1_555
C36A C35A 1_555 1_555
H27A C36A 1_555 1_555
C37A C36A 1_555 1_555
H28A C37A 1_555 1_555
C38A C33A 1_555 1_555
H29A C38A 1_555 1_555
N1A Zn1A 1_555 1_555
N2A C9A 1_555 1_555
N3A Zn1A 1_555 1_555
N4A C25A 1_555 1_555
U1A_2 O5 1_555 1_555
O5_2 U1A 1_555 1_555
O6A_2 U1A 1_555 1_555
Zn1 O4A 1_555 1_555
C7 C8 1_555 1_555
C9 N1 1_555 1_555
C10 N1 1_555 1_555
C11 N2 1_555 1_555
C12 N2 1_555 1_555
C16 C17 1_555 1_555
C22 C23 1_555 1_555
C24 N3 1_555 1_555
C26 N3 1_555 1_555
C26 N4 1_555 1_555
C27 N4 1_555 1_555
C31 C32 1_555 1_555
C37 C38 1_555 1_555
O6A U1A_2 1_555 1_555
C1A O5A 1_555 1_555
U1A O4A 1_555 1_555
O7A C2A 1_555 1_555
C7A C8A 1_555 1_555
C9A N1A 1_555 1_555
C10A N1A 1_555 1_555
C11A N2A 1_555 1_555
C12A N2A 1_555 1_555
C16A C17A 1_555 1_555
C22A C23A 1_555 1_555
C24A N3A 1_555 1_555
C26A N3A 1_555 1_555
C26A N4A 1_555 1_555
C27A N4A 1_555 1_555
C31A C32A 1_555 1_555
C37A C38A 1_555 1_555

#END
