
#######################################################################
#
#                 Cambridge Crystallographic Data Centre
#                                CCDC 
#
#######################################################################
#
# If this CIF has been generated from an entry in the Cambridge 
# Structural Database, then it will include bibliographic, chemical, 
# crystal, experimental, refinement or atomic coordinate data resulting 
# from the CCDC's data processing and validation procedures.
#
#######################################################################

data_RIWTOI
_symmetry_cell_setting           triclinic
_symmetry_space_group_name_H-M   'P -1'
_symmetry_Int_Tables_number      2
_space_group_name_Hall           '-P 1'
loop_
_symmetry_equiv_pos_site_id
_symmetry_equiv_pos_as_xyz
1 x,y,z
2 -x,-y,-z
_cell_length_a                   9.435(2)
_cell_length_b                   9.543(2)
_cell_length_c                   18.302(4)
_cell_angle_alpha                83.054(4)
_cell_angle_beta                 80.725(4)
_cell_angle_gamma                80.128(4)
_cell_volume                     1594.86
loop_
_atom_site_label
_atom_site_type_symbol
_atom_site_fract_x
_atom_site_fract_y
_atom_site_fract_z
U1 U 0.86551(4) 0.93156(4) 0.45827(2)
U2 U 0.91507(4) 0.74795(4) 0.65146(2)
Zn1 Zn 0.59905(14) 0.68798(14) 0.53639(7)
O1 O 0.7203(8) 1.0405(8) 0.5119(4)
O2 O 0.9946(9) 0.8130(8) 0.4038(4)
O3 O 0.7509(8) 0.8566(9) 0.6853(4)
O4 O 1.0785(9) 0.6334(9) 0.6209(4)
O5 O 0.8175(9) -0.0324(8) 0.9133(4)
O6 O 0.4854(9) -0.3022(10) 0.9516(4)
O7 O 0.6886(11) -0.3198(9) 1.0873(5)
O8 O 0.9071(10) 0.5892(9) 0.7697(4)
O9 O 0.8035(10) 0.5261(9) 0.6831(5)
O10 O 0.2350(8) -0.0933(8) 0.6465(4)
O11 O 0.0364(8) -0.1397(8) 0.7236(4)
O12 O 0.6521(9) -0.3904(9) 1.4352(5)
O13 O 0.6683(8) -0.1633(8) 1.4160(5)
O14 O 0.3778(9) 0.6736(9) 0.5244(6)
O15 O 0.5988(12) 0.5125(11) 0.6067(6)
O16 O 0.5198(8) 0.8691(8) 0.5840(5)
O17 O 0.8069(7) 0.7220(7) 0.5437(4)
O18 O 1.0136(8) 1.0929(8) 0.4412(4)
C1 C 0.7325(12) -0.2543(12) 0.9589(6)
C2 C 0.7270(12) -0.1297(12) 0.8988(6)
H1 H 0.7615 -0.1641 0.8504
H2 H 0.6277 -0.0814 0.8990
C3 C 0.6373(12) -0.3580(12) 0.9449(7)
H3 H 0.6693 -0.3875 0.8953
H4 H 0.6511 -0.4424 0.9799
C4 C 0.6812(14) -0.1983(14) 1.0332(7)
H5 H 0.7428 -0.1325 1.0422
H6 H 0.5821 -0.1484 1.0354
C5 C 0.8852(14) -0.3383(14) 0.9566(8)
H7 H 0.9503 -0.2775 0.9659
H8 H 0.9169 -0.3725 0.9085
H9 H 0.8849 -0.4180 0.9941
C6 C 0.8204(13) 0.0923(13) 0.8699(6)
C7 C 0.9045(14) 0.1849(13) 0.8889(7)
H10 H 0.9551 0.1578 0.9292
C8 C 0.9142(13) 0.3132(13) 0.8500(7)
H11 H 0.9710 0.3731 0.8641
C9 C 0.8389(13) 0.3583(13) 0.7877(7)
C10 C 0.7581(15) 0.2606(14) 0.7700(8)
H12 H 0.7094 0.2846 0.7288
C11 C 0.7472(15) 0.1331(15) 0.8097(8)
H13 H 0.6900 0.0728 0.7963
C12 C 0.8487(14) 0.4974(14) 0.7464(7)
C13 C 0.4183(11) -0.2615(12) 0.8895(6)
C14 C 0.4873(12) -0.2601(14) 0.8173(7)
H14 H 0.5874 -0.2878 0.8075
C15 C 0.4081(12) -0.2178(12) 0.7601(7)
H15 H 0.4563 -0.2150 0.7116
C16 C 0.2573(11) -0.1784(11) 0.7719(6)
C17 C 0.1892(11) -0.1826(13) 0.8455(6)
H16 H 0.0888 -0.1576 0.8558
C18 C 0.2697(12) -0.2235(13) 0.9030(6)
H17 H 0.2230 -0.2256 0.9518
C19 C 0.1709(12) -0.1350(11) 0.7105(6)
C20 C 0.6825(14) -0.3014(13) 1.1600(6)
C21 C 0.7046(14) -0.4282(14) 1.2058(7)
H18 H 0.7219 -0.5160 1.1862
C22 C 0.7003(13) -0.4206(12) 1.2818(7)
H19 H 0.7137 -0.5043 1.3134
C23 C 0.6766(13) -0.2912(12) 1.3103(6)
C24 C 0.6579(15) -0.1661(13) 1.2630(7)
H20 H 0.6440 -0.0784 1.2826
C25 C 0.6595(15) -0.1689(13) 1.1878(8)
H21 H 0.6455 -0.0847 1.1567
C26 C 0.6686(12) -0.2825(13) 1.3905(6)
U1_2 U 0.86551(4) -0.06844(4) 1.45827(2)
U1A U 0.13449(4) 0.06844(4) 0.54173(2)
U1A_2 U 1.13449(4) 1.06844(4) 0.54173(2)
U2_2 U -0.08493(4) -0.25205(4) 0.65146(2)
U2A U 1.08493(4) 1.25205(4) 0.34854(2)
Zn1_2 Zn 0.59905(14) -0.31202(14) 1.53639(7)
O10A O 0.7650(8) 1.0933(8) 0.3535(4)
O11_2 O 1.0364(8) 0.8603(8) 0.7236(4)
O12_2 O 0.6521(9) 0.6096(9) 0.4352(5)
O13_2 O 0.6683(8) 0.8367(8) 0.4160(5)
O18A O 0.9864(8) 0.9071(8) 0.5588(4)
O19 O 0.936(3) 0.452(3) 0.5159(16)
loop_
_geom_bond_atom_site_label_1
_geom_bond_atom_site_label_2
_geom_bond_site_symmetry_1
_geom_bond_site_symmetry_2
U1 O1 1_555 1_555
U2 O3 1_555 1_555
Zn1 O14 1_555 1_555
O2 U1 1_555 1_555
O4 U2 1_555 1_555
O5 C2 1_555 1_555
O6 C3 1_555 1_555
O7 C4 1_555 1_555
O8 U2 1_555 1_555
O9 U2 1_555 1_555
O10 C19 1_555 1_555
O11 C19 1_555 1_555
O12 C26 1_555 1_555
O13 C26 1_555 1_555
O15 Zn1 1_555 1_555
O16 Zn1 1_555 1_555
O17 U1 1_555 1_555
O18 U1 1_555 1_555
C1 C2 1_555 1_555
C2 H1 1_555 1_555
H2 C2 1_555 1_555
C3 C1 1_555 1_555
H3 C3 1_555 1_555
H4 C3 1_555 1_555
C4 C1 1_555 1_555
H5 C4 1_555 1_555
H6 C4 1_555 1_555
C5 C1 1_555 1_555
H7 C5 1_555 1_555
H8 C5 1_555 1_555
H9 C5 1_555 1_555
C6 O5 1_555 1_555
C7 C6 1_555 1_555
H10 C7 1_555 1_555
C8 C7 1_555 1_555
H11 C8 1_555 1_555
C9 C8 1_555 1_555
C10 C9 1_555 1_555
H12 C10 1_555 1_555
C11 C6 1_555 1_555
H13 C11 1_555 1_555
C12 O8 1_555 1_555
C13 O6 1_555 1_555
C14 C13 1_555 1_555
H14 C14 1_555 1_555
C15 C14 1_555 1_555
H15 C15 1_555 1_555
C16 C15 1_555 1_555
C17 C16 1_555 1_555
H16 C17 1_555 1_555
C18 C13 1_555 1_555
H17 C18 1_555 1_555
C19 C16 1_555 1_555
C20 O7 1_555 1_555
C21 C20 1_555 1_555
H18 C21 1_555 1_555
C22 C21 1_555 1_555
H19 C22 1_555 1_555
C23 C22 1_555 1_555
C24 C23 1_555 1_555
H20 C24 1_555 1_555
C25 C20 1_555 1_555
H21 C25 1_555 1_555
C26 C23 1_555 1_555
U1_2 O13 1_555 1_555
U1A O10 1_555 1_555
U1A_2 O18 1_555 1_555
U2_2 O11 1_555 1_555
U2A O18 1_555 1_555
Zn1_2 O12 1_555 1_555
O10A U1 1_555 1_555
O11_2 U2 1_555 1_555
O12_2 Zn1 1_555 1_555
O13_2 U1 1_555 1_555
O18A U1 1_555 1_555
U2 O17 1_555 1_555
U2 O18A 1_555 1_555
Zn1 O17 1_555 1_555
Zn1 O13_2 1_555 1_555
O9 C12 1_555 1_555
O13 Zn1_2 1_555 1_555
C9 C12 1_555 1_555
C10 C11 1_555 1_555
C17 C18 1_555 1_555
C24 C25 1_555 1_555
U1A_2 O18A 1_555 1_555

#END
