
#######################################################################
#
#                 Cambridge Crystallographic Data Centre
#                                CCDC 
#
#######################################################################
#
# If this CIF has been generated from an entry in the Cambridge 
# Structural Database, then it will include bibliographic, chemical, 
# crystal, experimental, refinement or atomic coordinate data resulting 
# from the CCDC's data processing and validation procedures.
#
#######################################################################

data_RIWVID
_symmetry_cell_setting           monoclinic
_symmetry_space_group_name_H-M   'P 21/c'
_symmetry_Int_Tables_number      14
_space_group_name_Hall           '-P 2ybc'
loop_
_symmetry_equiv_pos_site_id
_symmetry_equiv_pos_as_xyz
1 x,y,z
2 -x,1/2+y,1/2-z
3 -x,-y,-z
4 x,1/2-y,1/2+z
_cell_length_a                   11.409(2)
_cell_length_b                   10.998(2)
_cell_length_c                   17.116(6)
_cell_angle_alpha                90
_cell_angle_beta                 112.34(2)
_cell_angle_gamma                90
_cell_volume                     1986.46
loop_
_atom_site_label
_atom_site_type_symbol
_atom_site_fract_x
_atom_site_fract_y
_atom_site_fract_z
C1 C 0.3218(3) 0.0947(3) 0.2628(2)
H1 H 0.3970 0.0557 0.2686
C2 C 0.1707(3) 0.2232(4) 0.2293(3)
H2 H 0.1209 0.2915 0.2074
C3 C 0.1413(4) 0.1322(4) 0.2710(3)
H3 H 0.0685 0.1260 0.2829
C4 C 0.2591(3) -0.0586(3) 0.3462(3)
H4 H 0.3207 -0.1104 0.3362
H5 H 0.2945 -0.0339 0.4050
C5 C 0.1432(4) -0.1295(4) 0.3312(3)
H6 H 0.1059 -0.1536 0.2723
H7 H 0.0821 -0.0798 0.3434
C6 C 0.1743(4) -0.2425(4) 0.3873(3)
H8 H 0.2269 -0.2185 0.4445
H9 H 0.0960 -0.2752 0.3885
C7 C 0.2393(4) -0.3388(4) 0.3608(3)
H10 H 0.3190 -0.3081 0.3607
H11 H 0.1876 -0.3643 0.3038
C8 C 0.2646(5) -0.4485(4) 0.4214(4)
H12 H 0.3014 -0.4188 0.4790
H13 H 0.1842 -0.4861 0.4139
C9 C 0.3429(5) -0.5351(4) 0.4108(3)
H14 H 0.4239 -0.4974 0.4200
H15 H 0.3073 -0.5621 0.3525
C10 C 0.4109(4) -0.7518(3) 0.4513(2)
H16 H 0.4329 -0.7715 0.4058
C11 C 0.4172(3) -0.8252(3) 0.5147(2)
H17 H 0.4443 -0.9056 0.5207
C12 C 0.3485(3) -0.6537(3) 0.5381(2)
H18 H 0.3194 -0.5915 0.5629
C13 C 0.3060(3) 0.5517(3) 0.14294(18)
C14 C 0.2108(3) 0.6522(3) 0.12037(18)
C15 C 0.0836(3) 0.6223(3) 0.0815(2)
H19 H 0.0601 0.5408 0.0758
C16 C -0.0088(3) 0.7097(4) 0.0510(3)
H20 H -0.0933 0.6872 0.0244
C17 C 0.0242(4) 0.8296(4) 0.0602(3)
H21 H -0.0379 0.8893 0.0402
C18 C 0.1499(3) 0.8622(3) 0.0992(2)
H22 H 0.1718 0.9441 0.1046
C19 C 0.2444(3) 0.7750(3) 0.13067(18)
C20 C 0.3777(3) 0.8187(3) 0.17603(19)
Co1 Co 0.38823(4) 0.31777(3) 0.18512(2)
N1 N 0.2855(2) 0.1995(2) 0.22423(17)
N2 N 0.2385(3) 0.0509(2) 0.29245(19)
N3 N 0.3663(3) -0.6430(3) 0.46549(18)
N4 N 0.3773(2) -0.7637(2) 0.57001(15)
O1 O 0.2786(2) 0.45766(19) 0.17682(14)
O2 O 0.4010(2) 0.5593(2) 0.12546(16)
O3 O 0.4346(2) 0.7766(2) 0.24904(14)
O4 O 0.4215(3) 0.8964(3) 0.14323(18)
Co1C Co 0.38823(4) -0.81777(3) 0.68512(2)
Co1A Co 0.61177(4) 0.81777(3) 0.31488(2)
N4C N 0.3773(2) 0.2637(2) 0.07001(15)
O3A O 0.5654(2) 0.2766(2) 0.25096(14)
loop_
_geom_bond_atom_site_label_1
_geom_bond_atom_site_label_2
_geom_bond_site_symmetry_1
_geom_bond_site_symmetry_2
C1 H1 1_555 1_555
C2 H2 1_555 1_555
C3 C2 1_555 1_555
H3 C3 1_555 1_555
C4 H4 1_555 1_555
H5 C4 1_555 1_555
C5 C4 1_555 1_555
H6 C5 1_555 1_555
H7 C5 1_555 1_555
C6 C5 1_555 1_555
H8 C6 1_555 1_555
H9 C6 1_555 1_555
C7 C6 1_555 1_555
H10 C7 1_555 1_555
H11 C7 1_555 1_555
C8 C7 1_555 1_555
H12 C8 1_555 1_555
H13 C8 1_555 1_555
C9 C8 1_555 1_555
H14 C9 1_555 1_555
H15 C9 1_555 1_555
C10 H16 1_555 1_555
C11 C10 1_555 1_555
H17 C11 1_555 1_555
C12 H18 1_555 1_555
C13 C14 1_555 1_555
C14 C15 1_555 1_555
C15 H19 1_555 1_555
C16 C15 1_555 1_555
H20 C16 1_555 1_555
C17 C16 1_555 1_555
H21 C17 1_555 1_555
C18 C17 1_555 1_555
H22 C18 1_555 1_555
C19 C14 1_555 1_555
C20 C19 1_555 1_555
Co1 N1 1_555 1_555
N1 C1 1_555 1_555
N2 C1 1_555 1_555
N3 C9 1_555 1_555
N4 C11 1_555 1_555
O1 C13 1_555 1_555
O2 C13 1_555 1_555
O3 C20 1_555 1_555
O4 C20 1_555 1_555
Co1C N4 1_555 1_555
Co1A O3 1_555 1_555
N4C Co1 1_555 1_555
O3A Co1 1_555 1_555
C2 N1 1_555 1_555
C3 N2 1_555 1_555
C4 N2 1_555 1_555
C10 N3 1_555 1_555
C12 N3 1_555 1_555
C12 N4 1_555 1_555
C18 C19 1_555 1_555
Co1 O1 1_555 1_555

#END
