
#######################################################################
#
#                 Cambridge Crystallographic Data Centre
#                                CCDC 
#
#######################################################################
#
# If this CIF has been generated from an entry in the Cambridge 
# Structural Database, then it will include bibliographic, chemical, 
# crystal, experimental, refinement or atomic coordinate data resulting 
# from the CCDC's data processing and validation procedures.
#
#######################################################################

data_RIWWOK
_symmetry_cell_setting           monoclinic
_symmetry_space_group_name_H-M   'P 2/c'
_symmetry_Int_Tables_number      13
_space_group_name_Hall           '-P 2yc'
loop_
_symmetry_equiv_pos_site_id
_symmetry_equiv_pos_as_xyz
1 x,y,z
2 -x,y,1/2-z
3 -x,-y,-z
4 x,-y,1/2+z
_cell_length_a                   14.799(3)
_cell_length_b                   6.2738(13)
_cell_length_c                   7.3671(15)
_cell_angle_alpha                90
_cell_angle_beta                 93.13(3)
_cell_angle_gamma                90
_cell_volume                     682.985
loop_
_atom_site_label
_atom_site_type_symbol
_atom_site_fract_x
_atom_site_fract_y
_atom_site_fract_z
Zn1 Zn 0.5000 0.68508(4) 0.2500
O1 O 0.44332(8) 0.7026(2) -0.02965(18)
O2 O 0.38407(8) 0.4231(2) -0.1781(2)
O3 O 0.5000 0.9995(3) 0.2500
H1 H 0.516(2) 1.077(2) 0.1630(19)
C1 C 0.37665(11) 0.5951(3) -0.0917(2)
C2 C 0.28248(11) 0.6740(3) -0.0684(2)
C3 C 0.26866(13) 0.8734(3) 0.0088(3)
H2 H 0.3180 0.9561 0.0481
C4 C 0.18168(13) 0.9486(3) 0.0270(3)
H3 H 0.1732 1.0824 0.0778
C5 C 0.10652(12) 0.8266(3) -0.0297(3)
C6 C 0.12166(12) 0.6250(3) -0.1034(3)
H4 H 0.0725 0.5398 -0.1394
C7 C 0.20827(12) 0.5502(3) -0.1236(3)
H5 H 0.2169 0.4165 -0.1744
C8 C 0.01294(12) 0.9024(3) -0.0199(3)
H6 H -0.0327 0.8028 -0.0441
Zn1C Zn 0.5000 0.31492(4) -0.2500
Zn1C_2 Zn -0.5000 1.31492(4) -0.2500
Zn1_2 Zn -0.5000 1.68508(4) 0.2500
O1B O -0.44332(8) 1.2974(2) 0.02965(18)
O1A O 0.55668(8) 0.7026(2) 0.52965(18)
O2B O -0.38407(8) 1.5769(2) 0.1781(2)
O2C O 0.38407(8) 0.5769(2) 0.3219(2)
O2B_2 O 0.61593(8) 0.5769(2) 0.1781(2)
H1A H 0.484(2) 1.077(2) 0.3370(19)
C1B C -0.37665(11) 1.4049(3) 0.0917(2)
C2B C -0.28248(11) 1.3260(3) 0.0684(2)
C3B C -0.26866(13) 1.1266(3) -0.0088(3)
H2B H -0.3180 1.0439 -0.0481
C4B C -0.18168(13) 1.0514(3) -0.0270(3)
H3B H -0.1732 0.9176 -0.0778
C5B C -0.10652(12) 1.1734(3) 0.0297(3)
C6B C -0.12166(12) 1.3750(3) 0.1034(3)
H4B H -0.0725 1.4602 0.1394
C7B C -0.20827(12) 1.4498(3) 0.1236(3)
H5B H -0.2169 1.5835 0.1744
C8B C -0.01294(12) 1.0976(3) 0.0199(3)
H6B H 0.0327 1.1972 0.0441
loop_
_geom_bond_atom_site_label_1
_geom_bond_atom_site_label_2
_geom_bond_site_symmetry_1
_geom_bond_site_symmetry_2
Zn1 O1 1_555 1_555
O1 C1 1_555 1_555
O2 C1 1_555 1_555
O3 Zn1 1_555 1_555
H1 O3 1_555 1_555
C1 C2 1_555 1_555
C2 C3 1_555 1_555
C3 H2 1_555 1_555
C4 C3 1_555 1_555
H3 C4 1_555 1_555
C5 C4 1_555 1_555
C6 C5 1_555 1_555
H4 C6 1_555 1_555
C7 C2 1_555 1_555
H5 C7 1_555 1_555
C8 C5 1_555 1_555
H6 C8 1_555 1_555
Zn1C O2 1_555 1_555
Zn1C_2 O1B 1_555 1_555
Zn1_2 O2B 1_555 1_555
O1B C1B 1_555 1_555
O1A Zn1 1_555 1_555
O2B C1B 1_555 1_555
O2C Zn1 1_555 1_555
O2B_2 Zn1 1_555 1_555
H1A O3 1_555 1_555
C1B C2B 1_555 1_555
C2B C3B 1_555 1_555
C3B H2B 1_555 1_555
C4B C3B 1_555 1_555
H3B C4B 1_555 1_555
C5B C4B 1_555 1_555
C6B C5B 1_555 1_555
H4B C6B 1_555 1_555
C7B C2B 1_555 1_555
H5B C7B 1_555 1_555
C8B C8 1_555 1_555
H6B C8B 1_555 1_555
C6 C7 1_555 1_555
C5B C8B 1_555 1_555
C6B C7B 1_555 1_555

#END
