
#######################################################################
#
#                 Cambridge Crystallographic Data Centre
#                                CCDC 
#
#######################################################################
#
# If this CIF has been generated from an entry in the Cambridge 
# Structural Database, then it will include bibliographic, chemical, 
# crystal, experimental, refinement or atomic coordinate data resulting 
# from the CCDC's data processing and validation procedures.
#
#######################################################################

data_RIXCIL
_symmetry_cell_setting           monoclinic
_symmetry_space_group_name_H-M   'C 2'
_symmetry_Int_Tables_number      5
_space_group_name_Hall           'C 2y'
loop_
_symmetry_equiv_pos_site_id
_symmetry_equiv_pos_as_xyz
1 x,y,z
2 -x,y,-z
3 1/2+x,1/2+y,z
4 1/2-x,1/2+y,-z
_cell_length_a                   18.8461(5)
_cell_length_b                   7.7183(1)
_cell_length_c                   8.6577(2)
_cell_angle_alpha                90
_cell_angle_beta                 94.498(2)
_cell_angle_gamma                90
_cell_volume                     1255.47
loop_
_atom_site_label
_atom_site_type_symbol
_atom_site_fract_x
_atom_site_fract_y
_atom_site_fract_z
Cd1 Cd 0.24142(3) 0.09144(18) 0.95539(6)
N1 N 0.2963(4) 0.088(3) 0.7292(8)
N2 N 0.1219(4) 0.090(3) 0.8833(8)
O1 O 0.2693(4) 0.3846(11) 0.8502(10)
O2 O 0.3100(5) 0.5353(12) 0.6769(11)
O3 O 0.3643(8) 0.3819(14) 0.4545(13)
H1 H 0.3424 0.4665 0.4828
O4 O 0.1794(4) 0.3759(11) 0.9483(10)
O5 O 0.0859(5) 0.5176(12) 0.9120(13)
O6 O -0.0272(6) 0.3669(16) 0.7998(15)
H2 H -0.0516 0.3497 0.8726
C1 C 0.3162(10) 0.2477(19) 0.671(2)
C2 C 0.3453(13) 0.246(3) 0.528(2)
C3 C 0.3686(7) 0.080(4) 0.4649(13)
H3 H 0.3939 0.0792 0.3770
C4 C 0.3542(10) -0.064(2) 0.530(2)
H4 H 0.3707 -0.1698 0.4953
C5 C 0.3111(10) -0.053(2) 0.6595(17)
H5 H 0.2924 -0.1553 0.6957
C6 C 0.2932(6) 0.3991(14) 0.7364(12)
C7 C 0.0853(9) 0.241(2) 0.865(2)
C8 C 0.0224(12) 0.255(4) 0.802(3)
C9 C -0.0196(9) 0.096(5) 0.7777(17)
H6 H -0.0669 0.1015 0.7379
C10 C 0.0089(11) -0.048(3) 0.811(3)
H7 H -0.0181 -0.1490 0.8105
C11 C 0.0878(12) -0.052(3) 0.852(3)
H8 H 0.1121 -0.1567 0.8540
C12 C 0.1199(6) 0.3871(15) 0.9096(13)
Cd1C Cd 0.25858(3) 0.59144(18) 1.04461(6)
O1C O 0.2307(4) -0.1154(11) 1.1498(10)
O4C O 0.3206(4) -0.1241(11) 1.0517(10)
loop_
_geom_bond_atom_site_label_1
_geom_bond_atom_site_label_2
_geom_bond_site_symmetry_1
_geom_bond_site_symmetry_2
Cd1 N1 1_555 1_555
N1 C1 1_555 1_555
N2 Cd1 1_555 1_555
O1 Cd1 1_555 1_555
O2 C6 1_555 1_555
O3 H1 1_555 1_555
O4 Cd1 1_555 1_555
O5 C12 1_555 1_555
O6 H2 1_555 1_555
C1 C2 1_555 1_555
C2 O3 1_555 1_555
C3 C2 1_555 1_555
H3 C3 1_555 1_555
C4 C3 1_555 1_555
H4 C4 1_555 1_555
C5 N1 1_555 1_555
H5 C5 1_555 1_555
C6 O1 1_555 1_555
C7 N2 1_555 1_555
C8 O6 1_555 1_555
C9 C8 1_555 1_555
H6 C9 1_555 1_555
C10 C9 1_555 1_555
H7 C10 1_555 1_555
C11 N2 1_555 1_555
H8 C11 1_555 1_555
C12 O4 1_555 1_555
Cd1C O1 1_555 1_555
O1C Cd1 1_555 1_555
O4C Cd1 1_555 1_555
O4 Cd1C 1_555 1_555
C1 C6 1_555 1_555
C4 C5 1_555 1_555
C7 C8 1_555 1_555
C7 C12 1_555 1_555
C10 C11 1_555 1_555

#END
