
#######################################################################
#
#                 Cambridge Crystallographic Data Centre
#                                CCDC 
#
#######################################################################
#
# If this CIF has been generated from an entry in the Cambridge 
# Structural Database, then it will include bibliographic, chemical, 
# crystal, experimental, refinement or atomic coordinate data resulting 
# from the CCDC's data processing and validation procedures.
#
#######################################################################

data_RIXDIM
_symmetry_cell_setting           triclinic
_symmetry_space_group_name_H-M   'P -1'
_symmetry_Int_Tables_number      2
_space_group_name_Hall           '-P 1'
loop_
_symmetry_equiv_pos_site_id
_symmetry_equiv_pos_as_xyz
1 x,y,z
2 -x,-y,-z
_cell_length_a                   9.033(4)
_cell_length_b                   11.887(6)
_cell_length_c                   14.214(7)
_cell_angle_alpha                82.638(7)
_cell_angle_beta                 84.570(8)
_cell_angle_gamma                71.154(8)
_cell_volume                     1430.2
loop_
_atom_site_label
_atom_site_type_symbol
_atom_site_fract_x
_atom_site_fract_y
_atom_site_fract_z
Cd1 Cd -0.21119(3) 0.33777(3) 0.290480(18)
Cd2 Cd 0.0000 0.0000 0.0000
S1 S -0.15857(14) 0.74247(11) 0.29028(10)
S2 S 0.02297(15) -0.23516(10) 0.03626(7)
S3 S -0.25528(12) 0.09470(10) 0.30858(7)
N1 N -0.0343(3) -0.2405(3) 0.6472(2)
N2 N 0.2389(3) -0.2801(2) 0.54748(18)
N3 N 0.4755(3) -0.4069(3) 0.6568(2)
N4 N 0.1894(3) -0.0330(3) 0.11493(19)
N5 N -0.1839(5) 0.5194(4) 0.2852(3)
N6 N -0.1434(4) 0.3058(3) 0.1424(2)
N7 N -0.1892(4) 0.0316(3) 0.1227(2)
C1 C -0.1678(5) -0.2337(4) 0.6991(3)
H1 H -0.1622 -0.2657 0.7624
C2 C -0.3128(5) -0.1814(4) 0.6628(3)
H2 H -0.4037 -0.1781 0.7006
C3 C -0.3201(4) -0.1345(4) 0.5699(3)
H3 H -0.4168 -0.0985 0.5435
C4 C -0.1835(4) -0.1405(4) 0.5150(3)
H4 H -0.1871 -0.1088 0.4516
C5 C -0.0413(4) -0.1944(3) 0.5560(2)
C6 C 0.1135(4) -0.2103(3) 0.5013(2)
C7 C 0.1278(4) -0.1555(3) 0.4108(2)
H5 H 0.0393 -0.1058 0.3808
C8 C 0.2761(4) -0.1753(3) 0.3646(2)
C9 C 0.4047(4) -0.2486(3) 0.4140(2)
H6 H 0.5053 -0.2629 0.3857
C10 C 0.3828(4) -0.3002(3) 0.5051(2)
C11 C 0.5143(4) -0.3784(3) 0.5647(2)
C12 C 0.6663(4) -0.4225(3) 0.5285(3)
H7 H 0.6916 -0.4033 0.4648
C13 C 0.7821(5) -0.4960(4) 0.5872(3)
H8 H 0.8851 -0.5263 0.5634
C14 C 0.7411(5) -0.5227(4) 0.6810(3)
H9 H 0.8154 -0.5715 0.7221
C15 C 0.5890(5) -0.4758(4) 0.7119(3)
H10 H 0.5622 -0.4930 0.7757
C16 C 0.2952(4) -0.1159(3) 0.2677(2)
C17 C 0.4267(4) -0.0799(4) 0.2393(3)
H11 H 0.5076 -0.0961 0.2799
C18 C 0.4346(5) -0.0203(4) 0.1508(3)
H12 H 0.5210 0.0048 0.1310
C19 C 0.3155(5) 0.0022(4) 0.0917(3)
H13 H 0.3225 0.0441 0.0324
C20 C 0.1808(4) -0.0903(3) 0.2016(2)
H14 H 0.0931 -0.1145 0.2190
C21 C -0.1720(5) 0.6118(4) 0.2857(3)
C22 C -0.0940(5) 0.2736(3) 0.0697(3)
C23 C -0.2161(4) 0.0581(3) 0.1995(3)
Cd1A Cd 0.21119(3) -0.33777(3) -0.290480(18)
Cd1A_2 Cd 0.21119(3) -0.33777(3) 0.709520(18)
Cd1_2 Cd -0.21119(3) 0.33777(3) -0.709520(18)
S1A S 0.15857(14) -0.74247(11) -0.29028(10)
S2A S -0.02297(15) 0.23516(10) -0.03626(7)
S3A S 0.25528(12) -0.09470(10) -0.30858(7)
N1_2 N -0.0343(3) -0.2405(3) -0.3528(2)
N1A N 0.0343(3) 0.2405(3) 0.3528(2)
N1A_2 N 0.0343(3) 0.2405(3) -0.6472(2)
N2_2 N 0.2389(3) -0.2801(2) -0.45252(18)
N2A N -0.2389(3) 0.2801(2) 0.45252(18)
N2A_2 N -0.2389(3) 0.2801(2) -0.54748(18)
N3_2 N 0.4755(3) -0.4069(3) -0.3432(2)
N3A N -0.4755(3) 0.4069(3) 0.3432(2)
N3A_2 N -0.4755(3) 0.4069(3) -0.6568(2)
N4A N -0.1894(3) 0.0330(3) -0.11493(19)
N5A N 0.1839(5) -0.5194(4) -0.2852(3)
N6A N 0.1434(4) -0.3058(3) -0.1424(2)
N7A N 0.1892(4) -0.0316(3) -0.1227(2)
C1A C 0.1678(5) 0.2337(4) -0.6991(3)
H1A H 0.1622 0.2657 -0.7624
C2A C 0.3128(5) 0.1814(4) -0.6628(3)
H2A H 0.4037 0.1781 -0.7006
C3A C 0.3201(4) 0.1345(4) -0.5699(3)
H3A H 0.4168 0.0985 -0.5435
C4A C 0.1835(4) 0.1405(4) -0.5150(3)
H4A H 0.1871 0.1088 -0.4516
C5A C 0.0413(4) 0.1944(3) -0.5560(2)
C6A C -0.1135(4) 0.2103(3) -0.5013(2)
C7A C -0.1278(4) 0.1555(3) -0.4108(2)
H5A H -0.0393 0.1058 -0.3808
C8A C -0.2761(4) 0.1753(3) -0.3646(2)
C9A C -0.4047(4) 0.2486(3) -0.4140(2)
H6A H -0.5053 0.2629 -0.3857
C10A C -0.3828(4) 0.3002(3) -0.5051(2)
C11A C -0.5143(4) 0.3784(3) -0.5647(2)
C12A C -0.6663(4) 0.4225(3) -0.5285(3)
H7A H -0.6916 0.4033 -0.4648
C13A C -0.7821(5) 0.4960(4) -0.5872(3)
H8A H -0.8851 0.5263 -0.5634
C14A C -0.7411(5) 0.5227(4) -0.6810(3)
H9A H -0.8154 0.5715 -0.7221
C15A C -0.5890(5) 0.4758(4) -0.7119(3)
H10A H -0.5622 0.4930 -0.7757
C16A C -0.2952(4) 0.1159(3) -0.2677(2)
C17A C -0.4267(4) 0.0799(4) -0.2393(3)
H11A H -0.5076 0.0961 -0.2799
C18A C -0.4346(5) 0.0203(4) -0.1508(3)
H12A H -0.5210 -0.0048 -0.1310
C19A C -0.3155(5) -0.0022(4) -0.0917(3)
H13A H -0.3225 -0.0441 -0.0324
C20A C -0.1808(4) 0.0903(3) -0.2016(2)
H14A H -0.0931 0.1145 -0.2190
C21A C 0.1720(5) -0.6118(4) -0.2857(3)
C22A C 0.0940(5) -0.2736(3) -0.0697(3)
C23A C 0.2161(4) -0.0581(3) -0.1995(3)
C24 C -0.7506(8) 0.4072(8) 0.0463(7)
H15 H -0.7790 0.4901 0.0587
H16 H -0.8444 0.3833 0.0555
C25 C -0.6885(15) 0.3954(10) -0.0491(7)
H17 H -0.7467 0.3590 -0.0827
H18 H -0.6937 0.4730 -0.0824
C26 C -0.5363(16) 0.3241(11) -0.0428(9)
H19 H -0.4658 0.3660 -0.0736
H20 H -0.5189 0.2520 -0.0732
C27 C -0.5108(10) 0.2962(9) 0.0526(10)
H21 H -0.4327 0.3298 0.0682
H22 H -0.4700 0.2101 0.0664
O1 O -0.6442(10) 0.3387(7) 0.1074(4)
loop_
_geom_bond_atom_site_label_1
_geom_bond_atom_site_label_2
_geom_bond_site_symmetry_1
_geom_bond_site_symmetry_2
Cd1 S3 1_555 1_555
Cd2 S2 1_555 1_555
S1 C21 1_555 1_555
S2 C22A 1_555 1_555
S3 C23 1_555 1_555
N1 C1 1_555 1_555
N2 C6 1_555 1_555
N3 C11 1_555 1_555
N4 Cd2 1_555 1_555
N5 Cd1 1_555 1_555
N6 Cd1 1_555 1_555
N7 Cd2 1_555 1_555
C1 H1 1_555 1_555
C2 C1 1_555 1_555
H2 C2 1_555 1_555
C3 C2 1_555 1_555
H3 C3 1_555 1_555
C4 C3 1_555 1_555
H4 C4 1_555 1_555
C5 N1 1_555 1_555
C6 C5 1_555 1_555
C7 C6 1_555 1_555
H5 C7 1_555 1_555
C8 C7 1_555 1_555
C9 C8 1_555 1_555
H6 C9 1_555 1_555
C10 N2 1_555 1_555
C11 C10 1_555 1_555
C12 C11 1_555 1_555
H7 C12 1_555 1_555
C13 C12 1_555 1_555
H8 C13 1_555 1_555
C14 C13 1_555 1_555
H9 C14 1_555 1_555
C15 N3 1_555 1_555
H10 C15 1_555 1_555
C16 C8 1_555 1_555
C17 C16 1_555 1_555
H11 C17 1_555 1_555
C18 C17 1_555 1_555
H12 C18 1_555 1_555
C19 N4 1_555 1_555
H13 C19 1_555 1_555
C20 N4 1_555 1_555
H14 C20 1_555 1_555
C21 N5 1_555 1_555
C22 N6 1_555 1_555
C23 N7 1_555 1_555
C24 H15 1_555 1_555
H16 C24 1_555 1_555
C25 C24 1_555 1_555
H17 C25 1_555 1_555
H18 C25 1_555 1_555
C26 C25 1_555 1_555
H19 C26 1_555 1_555
H20 C26 1_555 1_555
C27 C26 1_555 1_555
H21 C27 1_555 1_555
H22 C27 1_555 1_555
O1 C24 1_555 1_555
Cd1A S3A 1_555 1_555
Cd1A_2 N1 1_555 1_555
Cd1_2 N1A_2 1_555 1_555
S1A C21A 1_555 1_555
S2A Cd2 1_555 1_555
S3A C23A 1_555 1_555
N1_2 Cd1A 1_555 1_555
N1A Cd1 1_555 1_555
N1A_2 C1A 1_555 1_555
N2_2 Cd1A 1_555 1_555
N2A Cd1 1_555 1_555
N2A_2 Cd1_2 1_555 1_555
N3_2 Cd1A 1_555 1_555
N3A Cd1 1_555 1_555
N3A_2 Cd1_2 1_555 1_555
N4A Cd2 1_555 1_555
N5A Cd1A 1_555 1_555
N6A Cd1A 1_555 1_555
N7A Cd2 1_555 1_555
C1A H1A 1_555 1_555
C2A C1A 1_555 1_555
H2A C2A 1_555 1_555
C3A C2A 1_555 1_555
H3A C3A 1_555 1_555
C4A C3A 1_555 1_555
H4A C4A 1_555 1_555
C5A N1A_2 1_555 1_555
C6A N2A_2 1_555 1_555
C7A C6A 1_555 1_555
H5A C7A 1_555 1_555
C8A C7A 1_555 1_555
C9A C8A 1_555 1_555
H6A C9A 1_555 1_555
C10A N2A_2 1_555 1_555
C11A N3A_2 1_555 1_555
C12A C11A 1_555 1_555
H7A C12A 1_555 1_555
C13A C12A 1_555 1_555
H8A C13A 1_555 1_555
C14A C13A 1_555 1_555
H9A C14A 1_555 1_555
C15A N3A_2 1_555 1_555
H10A C15A 1_555 1_555
C16A C8A 1_555 1_555
C17A C16A 1_555 1_555
H11A C17A 1_555 1_555
C18A C17A 1_555 1_555
H12A C18A 1_555 1_555
C19A N4A 1_555 1_555
H13A C19A 1_555 1_555
C20A N4A 1_555 1_555
H14A C20A 1_555 1_555
C21A N5A 1_555 1_555
C22A N6A 1_555 1_555
C23A N7A 1_555 1_555
N2 Cd1A_2 1_555 1_555
N3 Cd1A_2 1_555 1_555
C4 C5 1_555 1_555
C9 C10 1_555 1_555
C14 C15 1_555 1_555
C16 C20 1_555 1_555
C18 C19 1_555 1_555
C22 S2A 1_555 1_555
C27 O1 1_555 1_555
C4A C5A 1_555 1_555
C5A C6A 1_555 1_555
C9A C10A 1_555 1_555
C10A C11A 1_555 1_555
C14A C15A 1_555 1_555
C16A C20A 1_555 1_555
C18A C19A 1_555 1_555

#END
