
#######################################################################
#
#                 Cambridge Crystallographic Data Centre
#                                CCDC 
#
#######################################################################
#
# If this CIF has been generated from an entry in the Cambridge 
# Structural Database, then it will include bibliographic, chemical, 
# crystal, experimental, refinement or atomic coordinate data resulting 
# from the CCDC's data processing and validation procedures.
#
#######################################################################

data_RIXFUA
_symmetry_cell_setting           monoclinic
_symmetry_space_group_name_H-M   'P 21/n'
_symmetry_Int_Tables_number      14
_space_group_name_Hall           '-P 2yn'
loop_
_symmetry_equiv_pos_site_id
_symmetry_equiv_pos_as_xyz
1 x,y,z
2 1/2-x,1/2+y,1/2-z
3 -x,-y,-z
4 1/2+x,1/2-y,1/2+z
_cell_length_a                   5.204(2)
_cell_length_b                   18.144(8)
_cell_length_c                   16.841(7)
_cell_angle_alpha                90
_cell_angle_beta                 98.400(5)
_cell_angle_gamma                90
_cell_volume                     1573.09
loop_
_atom_site_label
_atom_site_type_symbol
_atom_site_fract_x
_atom_site_fract_y
_atom_site_fract_z
Ag1 Ag 0.00402(5) 0.769845(11) 0.589718(14)
N1 N 0.2137(5) 0.53857(12) 0.43607(14)
C1 C 0.0531(6) 0.53684(14) 0.48977(17)
C2 C -0.0203(6) 0.60243(15) 0.52919(17)
H1 H -0.1306 0.5982 0.5692
N2 N 0.0626(5) 0.66887(12) 0.51091(14)
C3 C 0.2217(6) 0.67322(14) 0.45217(17)
C4 C 0.3052(7) 0.74318(16) 0.42694(19)
H2 H 0.2494 0.7871 0.4500
C5 C 0.4649(8) 0.74695(18) 0.3698(2)
H3 H 0.5176 0.7936 0.3524
C6 C 0.5540(7) 0.68092(18) 0.33571(19)
H4 H 0.6697 0.6844 0.2971
C7 C 0.4739(7) 0.61234(18) 0.35818(18)
H5 H 0.5330 0.5690 0.3349
C8 C 0.3026(6) 0.60726(15) 0.41635(16)
N3 N -0.2591(5) 1.04274(11) 0.57405(13)
C9 C -0.3804(6) 0.99016(13) 0.52803(16)
C10 C -0.2889(6) 0.91494(14) 0.53193(16)
H6 H -0.3846 0.8789 0.4990
N4 N -0.0768(5) 0.89455(12) 0.57968(13)
C11 C 0.0577(6) 0.94848(14) 0.62790(16)
C12 C 0.2913(6) 0.93079(15) 0.67931(16)
H7 H 0.3593 0.8822 0.6801
C13 C 0.4184(6) 0.98432(16) 0.72795(18)
H8 H 0.5743 0.9723 0.7623
C14 C 0.3188(6) 1.05809(16) 0.72755(18)
H9 H 0.4077 1.0942 0.7620
C15 C 0.0953(6) 1.07666(15) 0.67762(17)
H10 H 0.0308 1.1256 0.6777
C16 C -0.0407(6) 1.02288(14) 0.62550(16)
N5 N -0.4614(5) 0.72274(13) 0.67079(15)
O1 O -0.4595(5) 0.76771(14) 0.61323(17)
O2 O -0.2701(5) 0.68264(16) 0.69078(16)
O3 O 0.3422(5) 0.71942(13) 0.70510(14)
Ag1B Ag -0.00402(5) 0.230155(11) 0.410282(14)
Ag1_2 Ag -0.99598(5) 0.769845(11) 0.589718(14)
Ag1B_2 Ag -1.00402(5) 1.230155(11) 0.410282(14)
Ag1_3 Ag 1.00402(5) 0.769845(11) 0.589718(14)
N1B N -0.2137(5) 0.46143(12) 0.56393(14)
C1B C -0.0531(6) 0.46316(14) 0.51023(17)
C2B C 0.0203(6) 0.39757(15) 0.47081(17)
H1B H 0.1306 0.4018 0.4308
N2B N -0.0626(5) 0.33113(12) 0.48909(14)
C3B C -0.2217(6) 0.32678(14) 0.54783(17)
C4B C -0.3052(7) 0.25682(16) 0.57306(19)
H2B H -0.2494 0.2129 0.5500
C5B C -0.4649(8) 0.25305(18) 0.6302(2)
H3B H -0.5176 0.2064 0.6476
C6B C -0.5540(7) 0.31908(18) 0.66429(19)
H4B H -0.6697 0.3156 0.7029
C7B C -0.4739(7) 0.38766(18) 0.64182(18)
H5B H -0.5330 0.4310 0.6651
C8B C -0.3026(6) 0.39274(15) 0.58365(16)
N3B N -0.7409(5) 0.95726(11) 0.42595(13)
C9B C -0.6196(6) 1.00984(13) 0.47197(16)
C10B C -0.7111(6) 1.08506(14) 0.46807(16)
H6B H -0.6154 1.1211 0.5010
N4B N 0.0768(5) 0.10545(12) 0.42032(13)
N4B_2 N -0.9232(5) 1.10545(12) 0.42032(13)
C11B C -1.0577(6) 1.05152(14) 0.37210(16)
C12B C -1.2913(6) 1.06921(15) 0.32069(16)
H7B H -1.3593 1.1178 0.3199
C13B C -1.4184(6) 1.01568(16) 0.27205(18)
H8B H -1.5743 1.0277 0.2377
C14B C -1.3188(6) 0.94191(16) 0.27245(18)
H9B H -1.4077 0.9058 0.2380
C15B C -1.0953(6) 0.92334(15) 0.32238(17)
H10B H -1.0308 0.8744 0.3223
C16B C -0.9593(6) 0.97712(14) 0.37450(16)
N5_2 N 0.5386(5) 0.72274(13) 0.67079(15)
O1B O 0.4595(5) 0.23229(14) 0.38677(17)
O1_2 O 0.5405(5) 0.76771(14) 0.61323(17)
O2_2 O 0.7299(5) 0.68264(16) 0.69078(16)
O3B O -0.3422(5) 0.28058(13) 0.29490(14)
O3_2 O -0.6578(5) 0.71942(13) 0.70510(14)
loop_
_geom_bond_atom_site_label_1
_geom_bond_atom_site_label_2
_geom_bond_site_symmetry_1
_geom_bond_site_symmetry_2
Ag1 N2 1_555 1_555
N1 C1 1_555 1_555
C1 C2 1_555 1_555
C2 H1 1_555 1_555
N2 C2 1_555 1_555
C3 N2 1_555 1_555
C4 C3 1_555 1_555
H2 C4 1_555 1_555
C5 C4 1_555 1_555
H3 C5 1_555 1_555
C6 C5 1_555 1_555
H4 C6 1_555 1_555
C7 C6 1_555 1_555
H5 C7 1_555 1_555
C8 N1 1_555 1_555
N3 C9 1_555 1_555
C9 C10 1_555 1_555
C10 H6 1_555 1_555
N4 Ag1 1_555 1_555
C11 N4 1_555 1_555
C12 C11 1_555 1_555
H7 C12 1_555 1_555
C13 C12 1_555 1_555
H8 C13 1_555 1_555
C14 C13 1_555 1_555
H9 C14 1_555 1_555
C15 C14 1_555 1_555
H10 C15 1_555 1_555
C16 N3 1_555 1_555
N5 O1 1_555 1_555
O1 Ag1 1_555 1_555
O2 N5 1_555 1_555
O3 Ag1 1_555 1_555
Ag1B N2B 1_555 1_555
Ag1_2 O3_2 1_555 1_555
Ag1B_2 N4B_2 1_555 1_555
Ag1_3 O1_2 1_555 1_555
N1B C1B 1_555 1_555
C1B C1 1_555 1_555
C2B C1B 1_555 1_555
H1B C2B 1_555 1_555
N2B C2B 1_555 1_555
C3B N2B 1_555 1_555
C4B C3B 1_555 1_555
H2B C4B 1_555 1_555
C5B C4B 1_555 1_555
H3B C5B 1_555 1_555
C6B C5B 1_555 1_555
H4B C6B 1_555 1_555
C7B C6B 1_555 1_555
H5B C7B 1_555 1_555
C8B N1B 1_555 1_555
N3B C9B 1_555 1_555
C9B C9 1_555 1_555
C10B C9B 1_555 1_555
H6B C10B 1_555 1_555
N4B Ag1B 1_555 1_555
N4B_2 C10B 1_555 1_555
C11B N4B_2 1_555 1_555
C12B C11B 1_555 1_555
H7B C12B 1_555 1_555
C13B C12B 1_555 1_555
H8B C13B 1_555 1_555
C14B C13B 1_555 1_555
H9B C14B 1_555 1_555
C15B C14B 1_555 1_555
H10B C15B 1_555 1_555
C16B N3B 1_555 1_555
N5_2 O3 1_555 1_555
O1B Ag1B 1_555 1_555
O1_2 N5_2 1_555 1_555
O2_2 N5_2 1_555 1_555
O3B Ag1B 1_555 1_555
O3_2 N5 1_555 1_555
C3 C8 1_555 1_555
C7 C8 1_555 1_555
C10 N4 1_555 1_555
C11 C16 1_555 1_555
C15 C16 1_555 1_555
C3B C8B 1_555 1_555
C7B C8B 1_555 1_555
C11B C16B 1_555 1_555
C15B C16B 1_555 1_555

#END
