
#######################################################################
#
#                 Cambridge Crystallographic Data Centre
#                                CCDC 
#
#######################################################################
#
# If this CIF has been generated from an entry in the Cambridge 
# Structural Database, then it will include bibliographic, chemical, 
# crystal, experimental, refinement or atomic coordinate data resulting 
# from the CCDC's data processing and validation procedures.
#
#######################################################################

data_RIYCAE
_symmetry_cell_setting           triclinic
_symmetry_space_group_name_H-M   'P -1'
_symmetry_Int_Tables_number      2
_space_group_name_Hall           '-P 1'
loop_
_symmetry_equiv_pos_site_id
_symmetry_equiv_pos_as_xyz
1 x,y,z
2 -x,-y,-z
_cell_length_a                   8.6394(17)
_cell_length_b                   11.054(2)
_cell_length_c                   12.122(2)
_cell_angle_alpha                71.84(3)
_cell_angle_beta                 86.06(3)
_cell_angle_gamma                83.20(3)
_cell_volume                     1091.63
loop_
_atom_site_label
_atom_site_type_symbol
_atom_site_fract_x
_atom_site_fract_y
_atom_site_fract_z
Pb1 Pb 0.75062(3) 0.54363(3) -0.07088(2)
S1 S 0.3757(2) 0.48051(19) 0.33087(16)
S2 S 1.1166(2) 0.18009(18) 0.27181(16)
O1 O 0.7487(6) 0.5762(6) 0.1286(4)
O2 O 0.5065(6) 0.5668(5) 0.0892(4)
O3 O 0.7491(6) 0.3196(5) 0.0773(5)
O4 O 0.9915(6) 0.3648(5) 0.0495(4)
O5 O 0.5319(7) 0.7354(5) -0.1891(6)
O6 O 0.9789(7) 0.5167(6) -0.2475(6)
C1 C 0.6084(8) 0.5560(7) 0.1595(6)
C2 C 0.5732(9) 0.5133(8) 0.2894(6)
H1 H 0.5974 0.5794 0.3207
H2 H 0.6417 0.4367 0.3247
C3 C 0.2986(8) 0.6098(7) 0.3820(5)
C4 C 0.0745(9) 0.7125(8) 0.4332(6)
C5 C 0.1643(10) 0.7931(8) 0.4618(6)
H3 H 0.1169 0.8588 0.4890
C6 C 0.3237(10) 0.7756(8) 0.4500(6)
C7 C -0.0997(10) 0.7259(9) 0.4427(8)
H4 H -0.1386 0.6601 0.4194
H5 H -0.1394 0.8083 0.3931
H6 H -0.1328 0.7179 0.5216
C8 C 0.4283(12) 0.8577(10) 0.4828(9)
H7 H 0.3657 0.9207 0.5106
H8 H 0.4901 0.8998 0.4160
H9 H 0.4956 0.8050 0.5429
C9 C 0.8867(7) 0.3057(6) 0.1114(6)
C10 C 0.9157(7) 0.2196(7) 0.2339(6)
H10 H 0.8695 0.1407 0.2447
H11 H 0.8619 0.2610 0.2875
C11 C 1.1726(8) 0.0533(6) 0.2112(6)
C12 C 1.1140(9) -0.1046(8) 0.1442(7)
C13 C 1.2714(10) -0.1378(9) 0.1297(7)
H12 H 1.3062 -0.2048 0.1002
C14 C 1.3761(10) -0.0692(8) 0.1599(7)
C15 C 0.9901(11) -0.1731(9) 0.1146(8)
H13 H 0.8891 -0.1355 0.1317
H14 H 1.0028 -0.2618 0.1597
H15 H 0.9994 -0.1657 0.0334
C16 C 1.5496(12) -0.0993(11) 0.1495(9)
H16 H 1.6010 -0.0409 0.1751
H17 H 1.5796 -0.0908 0.0699
H18 H 1.5789 -0.1854 0.1969
N1 N 0.1433(7) 0.6186(6) 0.3917(5)
N2 N 0.3945(7) 0.6815(6) 0.4089(5)
N3 N 1.0621(8) -0.0063(6) 0.1852(5)
N4 N 1.3267(7) 0.0300(6) 0.2005(5)
H19 H 1.062(5) 0.484(7) -0.211(5)
H20 H 0.973(8) 0.492(8) -0.307(5)
H21 H 0.442(4) 0.730(4) -0.155(7)
H22 H 0.5655 0.8067 -0.2004
Pb1A Pb 0.24938(3) 0.45637(3) 0.07088(2)
Pb1A_2 Pb 1.24938(3) 0.45637(3) 0.07088(2)
O2A O 0.4935(6) 0.4332(5) -0.0892(4)
O4A O 1.0085(6) 0.6352(5) -0.0495(4)
loop_
_geom_bond_atom_site_label_1
_geom_bond_atom_site_label_2
_geom_bond_site_symmetry_1
_geom_bond_site_symmetry_2
Pb1 O1 1_555 1_555
S1 C2 1_555 1_555
S2 C10 1_555 1_555
O1 C1 1_555 1_555
O2 Pb1 1_555 1_555
O3 Pb1 1_555 1_555
O4 Pb1 1_555 1_555
O5 Pb1 1_555 1_555
O6 Pb1 1_555 1_555
C1 O2 1_555 1_555
C2 C1 1_555 1_555
H1 C2 1_555 1_555
H2 C2 1_555 1_555
C3 S1 1_555 1_555
C4 C5 1_555 1_555
C5 H3 1_555 1_555
C6 C5 1_555 1_555
C7 C4 1_555 1_555
H4 C7 1_555 1_555
H5 C7 1_555 1_555
H6 C7 1_555 1_555
C8 C6 1_555 1_555
H7 C8 1_555 1_555
H8 C8 1_555 1_555
H9 C8 1_555 1_555
C9 O3 1_555 1_555
C10 C9 1_555 1_555
H10 C10 1_555 1_555
H11 C10 1_555 1_555
C11 S2 1_555 1_555
C12 C13 1_555 1_555
C13 H12 1_555 1_555
C14 C13 1_555 1_555
C15 C12 1_555 1_555
H13 C15 1_555 1_555
H14 C15 1_555 1_555
H15 C15 1_555 1_555
C16 C14 1_555 1_555
H16 C16 1_555 1_555
H17 C16 1_555 1_555
H18 C16 1_555 1_555
N1 C3 1_555 1_555
N2 C3 1_555 1_555
N3 C11 1_555 1_555
N4 C11 1_555 1_555
H19 O6 1_555 1_555
H20 O6 1_555 1_555
H21 O5 1_555 1_555
H22 O5 1_555 1_555
Pb1A O2 1_555 1_555
Pb1A_2 O4 1_555 1_555
O2A Pb1 1_555 1_555
O4A Pb1 1_555 1_555
O4 C9 1_555 1_555
C4 N1 1_555 1_555
C6 N2 1_555 1_555
C12 N3 1_555 1_555
C14 N4 1_555 1_555
Pb1A O2A 1_555 1_555
Pb1A_2 O4A 1_555 1_555

#END
