
#######################################################################
#
#                 Cambridge Crystallographic Data Centre
#                                CCDC 
#
#######################################################################
#
# If this CIF has been generated from an entry in the Cambridge 
# Structural Database, then it will include bibliographic, chemical, 
# crystal, experimental, refinement or atomic coordinate data resulting 
# from the CCDC's data processing and validation procedures.
#
#######################################################################

data_RIYCIM
_symmetry_cell_setting           tetragonal
_symmetry_space_group_name_H-M   'P -4 21 c'
_symmetry_Int_Tables_number      114
_space_group_name_Hall           'P -4 2n'
loop_
_symmetry_equiv_pos_site_id
_symmetry_equiv_pos_as_xyz
1 x,y,z
2 -x,-y,z
3 y,-x,-z
4 -y,x,-z
5 1/2-x,1/2+y,1/2-z
6 1/2+x,1/2-y,1/2-z
7 1/2-y,1/2-x,1/2+z
8 1/2+y,1/2+x,1/2+z
_cell_length_a                   13.7763(19)
_cell_length_b                   13.7763(19)
_cell_length_c                   19.724(4)
_cell_angle_alpha                90
_cell_angle_beta                 90
_cell_angle_gamma                90
_cell_volume                     3743.35
loop_
_atom_site_label
_atom_site_type_symbol
_atom_site_fract_x
_atom_site_fract_y
_atom_site_fract_z
Zn1 Zn 1.0000 0.0000 0.0000
Zn2 Zn 1.0000 0.0000 0.5000
N1 N 0.8804(6) -0.0682(6) 0.4637(5)
N2 N 0.7570(5) -0.1248(6) 0.4084(5)
N3 N 0.7912(6) 0.0849(5) 0.1408(4)
N4 N 0.8896(5) 0.0456(5) 0.0560(4)
C1 C 0.8101(7) -0.0960(6) 0.5097(6)
C2 C 0.8069(10) -0.0952(8) 0.5802(7)
H1 H 0.8595 -0.0735 0.6056
C3 C 0.7260(8) -0.1265(10) 0.6103(6)
H2 H 0.7213 -0.1234 0.6573
C4 C 0.6515(9) -0.1623(10) 0.5746(8)
H3 H 0.5982 -0.1869 0.5979
C5 C 0.6505(8) -0.1643(9) 0.5039(9)
H4 H 0.5976 -0.1866 0.4791
C6 C 0.7315(7) -0.1316(7) 0.4747(5)
C7 C 0.8409(7) -0.0863(7) 0.4047(6)
H5 H 0.8713 -0.0722 0.3637
C8 C 0.6930(8) -0.1500(8) 0.3492(6)
H6 H 0.6579 -0.2094 0.3590
H7 H 0.7330 -0.1614 0.3095
C9 C 0.6212(8) -0.0695(8) 0.3342(6)
H8 H 0.5731 -0.0933 0.3024
H9 H 0.5878 -0.0522 0.3757
C10 C 0.6666(7) 0.0170(7) 0.3061(5)
H10 H 0.7201 0.0354 0.3354
H11 H 0.6196 0.0694 0.3072
C11 C 0.7053(8) 0.0074(8) 0.2331(5)
H12 H 0.7463 -0.0497 0.2302
H13 H 0.6509 -0.0019 0.2025
C12 C 0.7620(9) 0.0938(8) 0.2105(5)
H14 H 0.7227 0.1517 0.2158
H15 H 0.8191 0.1008 0.2388
C13 C 0.8804(7) 0.0492(7) 0.1208(6)
H16 H 0.9286 0.0299 0.1510
C14 C 0.7411(7) 0.1048(6) 0.0837(6)
C15 C 0.6500(9) 0.1410(9) 0.0738(8)
H17 H 0.6084 0.1563 0.1094
C16 C 0.6252(10) 0.1527(9) 0.0085(11)
H18 H 0.5653 0.1813 -0.0004
C17 C 0.6810(10) 0.1260(10) -0.0469(7)
H19 H 0.6565 0.1306 -0.0908
C18 C 0.7723(7) 0.0928(8) -0.0356(5)
H20 H 0.8138 0.0794 -0.0716
C19 C 0.8021(7) 0.0795(6) 0.0307(5)
Zn2_2 Zn 1.0000 0.0000 -0.5000
N1A N 1.1196(6) 0.0682(6) 0.4637(5)
N1B N 0.9318(6) 0.1196(6) -0.4637(5)
N1C N 1.0682(6) -0.1196(6) -0.4637(5)
N1B_2 N 0.9318(6) 0.1196(6) 0.5363(5)
N1C_2 N 1.0682(6) -0.1196(6) 0.5363(5)
N2A N 1.2430(5) 0.1248(6) 0.4084(5)
N2B N 0.8752(6) 0.2430(5) -0.4084(5)
N2C N 1.1248(6) -0.2430(5) -0.4084(5)
N3A N 1.2088(6) -0.0849(5) 0.1408(4)
N3B N 1.0849(5) 0.2088(6) -0.1408(4)
N3C N 0.9151(5) -0.2088(6) -0.1408(4)
N4A N 1.1104(5) -0.0456(5) 0.0560(4)
N4B N 1.0456(5) 0.1104(5) -0.0560(4)
N4C N 0.9544(5) -0.1104(5) -0.0560(4)
C1A C 1.1899(7) 0.0960(6) 0.5097(6)
C1B C 0.9040(6) 0.1899(7) -0.5097(6)
C1C C 1.0960(6) -0.1899(7) -0.5097(6)
C2A C 1.1931(10) 0.0952(8) 0.5802(7)
C2B C 0.9048(8) 0.1931(10) -0.5802(7)
C2C C 1.0952(8) -0.1931(10) -0.5802(7)
H1A H 1.1405 0.0735 0.6056
H1B H 0.9265 0.1405 -0.6056
H1C H 1.0735 -0.1405 -0.6056
C3A C 1.2740(8) 0.1265(10) 0.6103(6)
C3B C 0.8735(10) 0.2740(8) -0.6103(6)
C3C C 1.1265(10) -0.2740(8) -0.6103(6)
H2A H 1.2787 0.1234 0.6573
H2B H 0.8766 0.2787 -0.6573
H2C H 1.1234 -0.2787 -0.6573
C4A C 1.3485(9) 0.1623(10) 0.5746(8)
C4B C 0.8377(10) 0.3485(9) -0.5746(8)
C4C C 1.1623(10) -0.3485(9) -0.5746(8)
H3A H 1.4018 0.1869 0.5979
H3B H 0.8131 0.4018 -0.5979
H3C H 1.1869 -0.4018 -0.5979
C5A C 1.3495(8) 0.1643(9) 0.5039(9)
C5B C 0.8357(9) 0.3495(8) -0.5039(9)
C5C C 1.1643(9) -0.3495(8) -0.5039(9)
H4A H 1.4024 0.1866 0.4791
H4B H 0.8134 0.4024 -0.4791
H4C H 1.1866 -0.4024 -0.4791
C6A C 1.2685(7) 0.1316(7) 0.4747(5)
C6B C 0.8684(7) 0.2685(7) -0.4747(5)
C6C C 1.1316(7) -0.2685(7) -0.4747(5)
C7A C 1.1591(7) 0.0863(7) 0.4047(6)
C7B C 0.9137(7) 0.1591(7) -0.4047(6)
C7C C 1.0863(7) -0.1591(7) -0.4047(6)
H5A H 1.1287 0.0722 0.3637
H5B H 0.9278 0.1287 -0.3637
H5C H 1.0722 -0.1287 -0.3637
C8A C 1.3070(8) 0.1500(8) 0.3492(6)
C8B C 0.8500(8) 0.3070(8) -0.3492(6)
C8C C 1.1500(8) -0.3070(8) -0.3492(6)
H6A H 1.3421 0.2094 0.3590
H6B H 0.7906 0.3421 -0.3590
H6C H 1.2094 -0.3421 -0.3590
H7A H 1.2670 0.1614 0.3095
H7B H 0.8386 0.2670 -0.3095
H7C H 1.1614 -0.2670 -0.3095
C9A C 1.3788(8) 0.0695(8) 0.3342(6)
C9B C 0.9305(8) 0.3788(8) -0.3342(6)
C9C C 1.0695(8) -0.3788(8) -0.3342(6)
H8A H 1.4269 0.0933 0.3024
H8B H 0.9067 0.4269 -0.3024
H8C H 1.0933 -0.4269 -0.3024
H9A H 1.4122 0.0522 0.3757
H9B H 0.9478 0.4122 -0.3757
H9C H 1.0522 -0.4122 -0.3757
C10A C 1.3334(7) -0.0170(7) 0.3061(5)
C10B C 1.0170(7) 0.3334(7) -0.3061(5)
C10C C 0.9830(7) -0.3334(7) -0.3061(5)
H10A H 1.2799 -0.0354 0.3354
H10B H 1.0354 0.2799 -0.3354
H10C H 0.9646 -0.2799 -0.3354
H11A H 1.3804 -0.0694 0.3072
H11B H 1.0694 0.3804 -0.3072
H11C H 0.9306 -0.3804 -0.3072
C11A C 1.2947(8) -0.0074(8) 0.2331(5)
C11B C 1.0074(8) 0.2947(8) -0.2331(5)
C11C C 0.9926(8) -0.2947(8) -0.2331(5)
H12A H 1.2537 0.0497 0.2302
H12B H 0.9503 0.2537 -0.2302
H12C H 1.0497 -0.2537 -0.2302
H13A H 1.3491 0.0019 0.2025
H13B H 0.9981 0.3491 -0.2025
H13C H 1.0019 -0.3491 -0.2025
C12A C 1.2380(9) -0.0938(8) 0.2105(5)
C12B C 1.0938(8) 0.2380(9) -0.2105(5)
C12C C 0.9062(8) -0.2380(9) -0.2105(5)
H14A H 1.2773 -0.1517 0.2158
H14B H 1.1517 0.2773 -0.2158
H14C H 0.8483 -0.2773 -0.2158
H15A H 1.1809 -0.1008 0.2388
H15B H 1.1008 0.1809 -0.2388
H15C H 0.8992 -0.1809 -0.2388
C13A C 1.1196(7) -0.0492(7) 0.1208(6)
C13B C 1.0492(7) 0.1196(7) -0.1208(6)
C13C C 0.9508(7) -0.1196(7) -0.1208(6)
H16A H 1.0714 -0.0299 0.1510
H16B H 1.0299 0.0714 -0.1510
H16C H 0.9701 -0.0714 -0.1510
C14A C 1.2589(7) -0.1048(6) 0.0837(6)
C14B C 1.1048(6) 0.2589(7) -0.0837(6)
C14C C 0.8952(6) -0.2589(7) -0.0837(6)
C15A C 1.3500(9) -0.1410(9) 0.0738(8)
C15B C 1.1410(9) 0.3500(9) -0.0738(8)
C15C C 0.8590(9) -0.3500(9) -0.0738(8)
H17A H 1.3916 -0.1563 0.1094
H17B H 1.1563 0.3916 -0.1094
H17C H 0.8437 -0.3916 -0.1094
C16A C 1.3748(10) -0.1527(9) 0.0085(11)
C16B C 1.1527(9) 0.3748(10) -0.0085(11)
C16C C 0.8473(9) -0.3748(10) -0.0085(11)
H18A H 1.4347 -0.1813 -0.0004
H18B H 1.1813 0.4347 0.0004
H18C H 0.8187 -0.4347 0.0004
C17A C 1.3190(10) -0.1260(10) -0.0469(7)
C17B C 1.1260(10) 0.3190(10) 0.0469(7)
C17C C 0.8740(10) -0.3190(10) 0.0469(7)
H19A H 1.3435 -0.1306 -0.0908
H19B H 1.1306 0.3435 0.0908
H19C H 0.8694 -0.3435 0.0908
C18A C 1.2277(7) -0.0928(8) -0.0356(5)
C18B C 1.0928(8) 0.2277(7) 0.0356(5)
C18C C 0.9072(8) -0.2277(7) 0.0356(5)
H20A H 1.1862 -0.0794 -0.0716
H20B H 1.0794 0.1862 0.0716
H20C H 0.9206 -0.1862 0.0716
C19A C 1.1979(7) -0.0795(6) 0.0307(5)
C19B C 1.0795(6) 0.1979(7) -0.0307(5)
C19C C 0.9205(6) -0.1979(7) -0.0307(5)
Cl1 Cl 1.05200(16) 0.19611(16) 0.23285(11)
O1 O 1.0000 0.0000 0.3114(16)
loop_
_geom_bond_atom_site_label_1
_geom_bond_atom_site_label_2
_geom_bond_site_symmetry_1
_geom_bond_site_symmetry_2
Zn1 N4 1_555 1_555
Zn2 N1 1_555 1_555
N1 C1 1_555 1_555
N2 C6 1_555 1_555
N3 C12 1_555 1_555
N4 C13 1_555 1_555
C1 C2 1_555 1_555
C2 H1 1_555 1_555
C3 C2 1_555 1_555
H2 C3 1_555 1_555
C4 C3 1_555 1_555
H3 C4 1_555 1_555
C5 C4 1_555 1_555
H4 C5 1_555 1_555
C6 C1 1_555 1_555
C7 N1 1_555 1_555
H5 C7 1_555 1_555
C8 N2 1_555 1_555
H6 C8 1_555 1_555
H7 C8 1_555 1_555
C9 C8 1_555 1_555
H8 C9 1_555 1_555
H9 C9 1_555 1_555
C10 C9 1_555 1_555
H10 C10 1_555 1_555
H11 C10 1_555 1_555
C11 C10 1_555 1_555
H12 C11 1_555 1_555
H13 C11 1_555 1_555
C12 C11 1_555 1_555
H14 C12 1_555 1_555
H15 C12 1_555 1_555
C13 N3 1_555 1_555
H16 C13 1_555 1_555
C14 N3 1_555 1_555
C15 C14 1_555 1_555
H17 C15 1_555 1_555
C16 C15 1_555 1_555
H18 C16 1_555 1_555
C17 C16 1_555 1_555
H19 C17 1_555 1_555
C18 C17 1_555 1_555
H20 C18 1_555 1_555
C19 N4 1_555 1_555
Zn2_2 N1B 1_555 1_555
N1A Zn2 1_555 1_555
N1B C1B 1_555 1_555
N1C Zn2_2 1_555 1_555
N1B_2 Zn2 1_555 1_555
N1C_2 Zn2 1_555 1_555
N2A C6A 1_555 1_555
N2B C6B 1_555 1_555
N2C C6C 1_555 1_555
N3A C12A 1_555 1_555
N3B C12B 1_555 1_555
N3C C12C 1_555 1_555
N4A Zn1 1_555 1_555
N4B Zn1 1_555 1_555
N4C Zn1 1_555 1_555
C1A N1A 1_555 1_555
C1B C2B 1_555 1_555
C1C N1C 1_555 1_555
C2A C1A 1_555 1_555
C2B H1B 1_555 1_555
C2C C1C 1_555 1_555
H1A C2A 1_555 1_555
H1C C2C 1_555 1_555
C3A C2A 1_555 1_555
C3B C2B 1_555 1_555
C3C C2C 1_555 1_555
H2A C3A 1_555 1_555
H2B C3B 1_555 1_555
H2C C3C 1_555 1_555
C4A C3A 1_555 1_555
C4B C3B 1_555 1_555
C4C C3C 1_555 1_555
H3A C4A 1_555 1_555
H3B C4B 1_555 1_555
H3C C4C 1_555 1_555
C5A C4A 1_555 1_555
C5B C4B 1_555 1_555
C5C C4C 1_555 1_555
H4A C5A 1_555 1_555
H4B C5B 1_555 1_555
H4C C5C 1_555 1_555
C6A C1A 1_555 1_555
C6B C1B 1_555 1_555
C6C C1C 1_555 1_555
C7A N1A 1_555 1_555
C7B N1B 1_555 1_555
C7C N1C 1_555 1_555
H5A C7A 1_555 1_555
H5B C7B 1_555 1_555
H5C C7C 1_555 1_555
C8A N2A 1_555 1_555
C8B N2B 1_555 1_555
C8C N2C 1_555 1_555
H6A C8A 1_555 1_555
H6B C8B 1_555 1_555
H6C C8C 1_555 1_555
H7A C8A 1_555 1_555
H7B C8B 1_555 1_555
H7C C8C 1_555 1_555
C9A C8A 1_555 1_555
C9B C8B 1_555 1_555
C9C C8C 1_555 1_555
H8A C9A 1_555 1_555
H8B C9B 1_555 1_555
H8C C9C 1_555 1_555
H9A C9A 1_555 1_555
H9B C9B 1_555 1_555
H9C C9C 1_555 1_555
C10A C9A 1_555 1_555
C10B C9B 1_555 1_555
C10C C9C 1_555 1_555
H10A C10A 1_555 1_555
H10B C10B 1_555 1_555
H10C C10C 1_555 1_555
H11A C10A 1_555 1_555
H11B C10B 1_555 1_555
H11C C10C 1_555 1_555
C11A C10A 1_555 1_555
C11B C10B 1_555 1_555
C11C C10C 1_555 1_555
H12A C11A 1_555 1_555
H12B C11B 1_555 1_555
H12C C11C 1_555 1_555
H13A C11A 1_555 1_555
H13B C11B 1_555 1_555
H13C C11C 1_555 1_555
C12A C11A 1_555 1_555
C12B C11B 1_555 1_555
C12C C11C 1_555 1_555
H14A C12A 1_555 1_555
H14B C12B 1_555 1_555
H14C C12C 1_555 1_555
H15A C12A 1_555 1_555
H15B C12B 1_555 1_555
H15C C12C 1_555 1_555
C13A N3A 1_555 1_555
C13B N3B 1_555 1_555
C13C N3C 1_555 1_555
H16A C13A 1_555 1_555
H16B C13B 1_555 1_555
H16C C13C 1_555 1_555
C14A N3A 1_555 1_555
C14B N3B 1_555 1_555
C14C N3C 1_555 1_555
C15A C14A 1_555 1_555
C15B C14B 1_555 1_555
C15C C14C 1_555 1_555
H17A C15A 1_555 1_555
H17B C15B 1_555 1_555
H17C C15C 1_555 1_555
C16A C15A 1_555 1_555
C16B C15B 1_555 1_555
C16C C15C 1_555 1_555
H18A C16A 1_555 1_555
H18B C16B 1_555 1_555
H18C C16C 1_555 1_555
C17A C16A 1_555 1_555
C17B C16B 1_555 1_555
C17C C16C 1_555 1_555
H19A C17A 1_555 1_555
H19B C17B 1_555 1_555
H19C C17C 1_555 1_555
C18A C17A 1_555 1_555
C18B C17B 1_555 1_555
C18C C17C 1_555 1_555
H20A C18A 1_555 1_555
H20B C18B 1_555 1_555
H20C C18C 1_555 1_555
C19A N4A 1_555 1_555
C19B N4B 1_555 1_555
C19C N4C 1_555 1_555
N2 C7 1_555 1_555
C5 C6 1_555 1_555
C14 C19 1_555 1_555
C18 C19 1_555 1_555
N2A C7A 1_555 1_555
N2B C7B 1_555 1_555
N2C C7C 1_555 1_555
N4A C13A 1_555 1_555
N4B C13B 1_555 1_555
N4C C13C 1_555 1_555
C5A C6A 1_555 1_555
C5B C6B 1_555 1_555
C5C C6C 1_555 1_555
C14A C19A 1_555 1_555
C14B C19B 1_555 1_555
C14C C19C 1_555 1_555
C18A C19A 1_555 1_555
C18B C19B 1_555 1_555
C18C C19C 1_555 1_555

#END
