
#######################################################################
#
#                 Cambridge Crystallographic Data Centre
#                                CCDC 
#
#######################################################################
#
# If this CIF has been generated from an entry in the Cambridge 
# Structural Database, then it will include bibliographic, chemical, 
# crystal, experimental, refinement or atomic coordinate data resulting 
# from the CCDC's data processing and validation procedures.
#
#######################################################################

data_RIYCEI
_symmetry_cell_setting           monoclinic
_symmetry_space_group_name_H-M   'C 2/c'
_symmetry_Int_Tables_number      15
_space_group_name_Hall           '-C 2yn'
loop_
_symmetry_equiv_pos_site_id
_symmetry_equiv_pos_as_xyz
1 x,y,z
2 1/2+x,1/2+y,z
3 -x,y,1/2-z
4 1/2-x,1/2+y,1/2-z
5 -x,-y,-z
6 1/2-x,1/2-y,-z
7 x,-y,1/2+z
8 1/2+x,1/2-y,1/2+z
_cell_length_a                   18.818(4)
_cell_length_b                   9.7248(19)
_cell_length_c                   22.764(5)
_cell_angle_alpha                90
_cell_angle_beta                 99.66(3)
_cell_angle_gamma                90
_cell_volume                     4106.77
loop_
_atom_site_label
_atom_site_type_symbol
_atom_site_fract_x
_atom_site_fract_y
_atom_site_fract_z
Zn1 Zn 0.37805(4) 0.18078(7) 0.41386(3)
Cl1 Cl 0.33426(10) 0.04654(16) 0.47985(7)
Cl2 Cl 0.47485(9) 0.11659(16) 0.37222(8)
N1 N 0.3918(3) 0.3704(5) 0.4503(2)
N2 N 0.3827(3) 0.5481(5) 0.5100(2)
N3 N 0.2447(3) 0.8013(5) 0.7456(2)
N4 N 0.3008(3) 0.7915(5) 0.8407(2)
C1 C 0.4211(3) 0.4862(6) 0.4270(3)
C2 C 0.4522(3) 0.4987(7) 0.3757(3)
H1 H 0.4557 0.4242 0.3507
C3 C 0.4774(4) 0.6274(8) 0.3642(3)
H2 H 0.4986 0.6396 0.3305
C4 C 0.4722(4) 0.7400(7) 0.4014(4)
H3 H 0.4895 0.8252 0.3917
C5 C 0.4415(4) 0.7269(6) 0.4527(3)
H4 H 0.4379 0.8009 0.4779
C6 C 0.4165(3) 0.5970(6) 0.4641(3)
C7 C 0.3699(4) 0.4129(6) 0.4995(3)
H5 H 0.3481 0.3560 0.5241
C8 C 0.3614(5) 0.6357(8) 0.5577(3)
H6 H 0.4000 0.7004 0.5709
H7 H 0.3191 0.6885 0.5407
C9 C 0.3452(5) 0.5613(9) 0.6100(3)
H8 H 0.3873 0.5096 0.6280
H9 H 0.3064 0.4965 0.5975
C10 C 0.3225(5) 0.6624(9) 0.6576(3)
H10 H 0.3265 0.6144 0.6953
H11 H 0.3562 0.7386 0.6631
C11 C 0.2493(4) 0.7173(8) 0.6419(3)
H12 H 0.2152 0.6434 0.6438
H13 H 0.2424 0.7499 0.6010
C12 C 0.2329(4) 0.8339(7) 0.6818(3)
H14 H 0.2627 0.9122 0.6756
H15 H 0.1830 0.8610 0.6697
C13 C 0.3041(4) 0.8342(6) 0.7861(3)
H16 H 0.3433 0.8821 0.7763
C14 C 0.1982(3) 0.7281(6) 0.7761(3)
C15 C 0.1319(3) 0.6671(6) 0.7578(3)
H17 H 0.1095 0.6686 0.7182
C16 C 0.1006(4) 0.6037(7) 0.8013(3)
H18 H 0.0557 0.5623 0.7907
C17 C 0.1346(4) 0.6001(7) 0.8609(3)
H19 H 0.1118 0.5563 0.8889
C18 C 0.2014(3) 0.6605(6) 0.8789(3)
H20 H 0.2236 0.6585 0.9186
C19 C 0.2343(3) 0.7242(6) 0.8359(2)
Zn1F Zn 0.37805(4) 0.81922(7) -0.08614(3)
Zn1F_2 Zn 0.37805(4) 0.81922(7) 0.91386(3)
Cl1F Cl 0.33426(10) 0.95346(16) -0.02015(7)
Cl2F Cl 0.47485(9) 0.88341(16) -0.12778(8)
N1F N 0.3918(3) 0.6296(5) -0.0497(2)
N2F N 0.3827(3) 0.4519(5) 0.0100(2)
N3F N 0.2447(3) 0.1987(5) 0.2456(2)
N4F N 0.3008(3) 0.2085(5) 0.3407(2)
N4_2 N 0.3008(3) 0.7915(5) -0.1593(2)
C1F C 0.4211(3) 0.5138(6) -0.0730(3)
C2F C 0.4522(3) 0.5013(7) -0.1243(3)
H1F H 0.4557 0.5758 -0.1493
C3F C 0.4774(4) 0.3726(8) -0.1358(3)
H2F H 0.4986 0.3604 -0.1695
C4F C 0.4722(4) 0.2600(7) -0.0986(4)
H3F H 0.4895 0.1748 -0.1083
C5F C 0.4415(4) 0.2731(6) -0.0473(3)
H4F H 0.4379 0.1991 -0.0221
C6F C 0.4165(3) 0.4030(6) -0.0359(3)
C7F C 0.3699(4) 0.5871(6) -0.0005(3)
H5F H 0.3481 0.6440 0.0241
C8F C 0.3614(5) 0.3643(8) 0.0577(3)
H6F H 0.4000 0.2996 0.0709
H7F H 0.3191 0.3115 0.0407
C9F C 0.3452(5) 0.4387(9) 0.1100(3)
H8F H 0.3873 0.4904 0.1280
H9F H 0.3064 0.5035 0.0975
C10F C 0.3225(5) 0.3376(9) 0.1576(3)
H10F H 0.3265 0.3856 0.1953
H11F H 0.3562 0.2614 0.1631
C11F C 0.2493(4) 0.2827(8) 0.1419(3)
H12F H 0.2152 0.3566 0.1438
H13F H 0.2424 0.2501 0.1010
C12F C 0.2329(4) 0.1661(7) 0.1818(3)
H14F H 0.2627 0.0878 0.1756
H15F H 0.1830 0.1390 0.1697
C13F C 0.3041(4) 0.1658(6) 0.2861(3)
H16F H 0.3433 0.1179 0.2763
C14F C 0.1982(3) 0.2719(6) 0.2761(3)
C15F C 0.1319(3) 0.3329(6) 0.2578(3)
H17F H 0.1095 0.3314 0.2182
C16F C 0.1006(4) 0.3963(7) 0.3013(3)
H18F H 0.0557 0.4377 0.2907
C17F C 0.1346(4) 0.3999(7) 0.3609(3)
H19F H 0.1118 0.4437 0.3889
C18F C 0.2014(3) 0.3395(6) 0.3789(3)
H20F H 0.2236 0.3415 0.4186
C19F C 0.2343(3) 0.2758(6) 0.3359(2)
O1 O 0.5000 0.286(5) 0.2500
loop_
_geom_bond_atom_site_label_1
_geom_bond_atom_site_label_2
_geom_bond_site_symmetry_1
_geom_bond_site_symmetry_2
Zn1 Cl1 1_555 1_555
Cl2 Zn1 1_555 1_555
N1 Zn1 1_555 1_555
N2 C6 1_555 1_555
N3 C12 1_555 1_555
N4 C13 1_555 1_555
C1 N1 1_555 1_555
C2 C1 1_555 1_555
H1 C2 1_555 1_555
C3 C2 1_555 1_555
H2 C3 1_555 1_555
C4 C3 1_555 1_555
H3 C4 1_555 1_555
C5 C4 1_555 1_555
H4 C5 1_555 1_555
C6 C1 1_555 1_555
C7 N1 1_555 1_555
H5 C7 1_555 1_555
C8 N2 1_555 1_555
H6 C8 1_555 1_555
H7 C8 1_555 1_555
C9 C8 1_555 1_555
H8 C9 1_555 1_555
H9 C9 1_555 1_555
C10 C9 1_555 1_555
H10 C10 1_555 1_555
H11 C10 1_555 1_555
C11 C10 1_555 1_555
H12 C11 1_555 1_555
H13 C11 1_555 1_555
C12 C11 1_555 1_555
H14 C12 1_555 1_555
H15 C12 1_555 1_555
C13 N3 1_555 1_555
H16 C13 1_555 1_555
C14 N3 1_555 1_555
C15 C14 1_555 1_555
H17 C15 1_555 1_555
C16 C15 1_555 1_555
H18 C16 1_555 1_555
C17 C16 1_555 1_555
H19 C17 1_555 1_555
C18 C17 1_555 1_555
H20 C18 1_555 1_555
C19 N4 1_555 1_555
Zn1F Cl1F 1_555 1_555
Zn1F_2 N4 1_555 1_555
Cl2F Zn1F 1_555 1_555
N1F Zn1F 1_555 1_555
N2F C6F 1_555 1_555
N3F C12F 1_555 1_555
N4F Zn1 1_555 1_555
N4_2 Zn1F 1_555 1_555
C1F N1F 1_555 1_555
C2F C1F 1_555 1_555
H1F C2F 1_555 1_555
C3F C2F 1_555 1_555
H2F C3F 1_555 1_555
C4F C3F 1_555 1_555
H3F C4F 1_555 1_555
C5F C4F 1_555 1_555
H4F C5F 1_555 1_555
C6F C1F 1_555 1_555
C7F N1F 1_555 1_555
H5F C7F 1_555 1_555
C8F N2F 1_555 1_555
H6F C8F 1_555 1_555
H7F C8F 1_555 1_555
C9F C8F 1_555 1_555
H8F C9F 1_555 1_555
H9F C9F 1_555 1_555
C10F C9F 1_555 1_555
H10F C10F 1_555 1_555
H11F C10F 1_555 1_555
C11F C10F 1_555 1_555
H12F C11F 1_555 1_555
H13F C11F 1_555 1_555
C12F C11F 1_555 1_555
H14F C12F 1_555 1_555
H15F C12F 1_555 1_555
C13F N3F 1_555 1_555
H16F C13F 1_555 1_555
C14F N3F 1_555 1_555
C15F C14F 1_555 1_555
H17F C15F 1_555 1_555
C16F C15F 1_555 1_555
H18F C16F 1_555 1_555
C17F C16F 1_555 1_555
H19F C17F 1_555 1_555
C18F C17F 1_555 1_555
H20F C18F 1_555 1_555
C19F N4F 1_555 1_555
N2 C7 1_555 1_555
C5 C6 1_555 1_555
C14 C19 1_555 1_555
C18 C19 1_555 1_555
N2F C7F 1_555 1_555
N4F C13F 1_555 1_555
C5F C6F 1_555 1_555
C14F C19F 1_555 1_555
C18F C19F 1_555 1_555

#END
