
#######################################################################
#
#                 Cambridge Crystallographic Data Centre
#                                CCDC 
#
#######################################################################
#
# If this CIF has been generated from an entry in the Cambridge 
# Structural Database, then it will include bibliographic, chemical, 
# crystal, experimental, refinement or atomic coordinate data resulting 
# from the CCDC's data processing and validation procedures.
#
#######################################################################

data_RIYGIR
_symmetry_cell_setting           monoclinic
_symmetry_space_group_name_H-M   'C 2/c'
_symmetry_Int_Tables_number      15
_space_group_name_Hall           '-C 2yn'
loop_
_symmetry_equiv_pos_site_id
_symmetry_equiv_pos_as_xyz
1 x,y,z
2 -x,y,1/2-z
3 1/2+x,1/2+y,z
4 1/2-x,1/2+y,1/2-z
5 -x,-y,-z
6 x,-y,1/2+z
7 1/2-x,1/2-y,-z
8 1/2+x,1/2-y,1/2+z
_cell_length_a                   27.120(10)
_cell_length_b                   8.463(3)
_cell_length_c                   26.409(9)
_cell_angle_alpha                90
_cell_angle_beta                 113.040(4)
_cell_angle_gamma                90
_cell_volume                     5577.8
loop_
_atom_site_label
_atom_site_type_symbol
_atom_site_fract_x
_atom_site_fract_y
_atom_site_fract_z
Cu1 Cu 0.127732(18) 0.46038(6) 0.24909(2)
O1 O 0.34726(13) 0.1576(5) 0.32140(14)
N1 N 0.09440(13) 0.3294(4) 0.17975(14)
N2 N 0.06415(14) 0.6045(4) 0.22402(15)
N3 N 0.15734(14) 0.5815(4) 0.32122(16)
N4 N 0.17997(13) 0.2881(5) 0.17757(14)
N5 N 0.01068(13) 0.3844(4) 0.18442(15)
N6 N 0.12015(15) 0.8134(4) 0.27000(17)
N7 N 0.20181(14) 0.3549(5) 0.36909(15)
C1 C 0.12461(16) 0.2584(5) 0.15669(17)
C2 C 0.10162(18) 0.1564(6) 0.11176(19)
H1 H 0.1233 0.1071 0.0956
C3 C 0.04798(19) 0.1286(7) 0.09152(19)
H2 H 0.0323 0.0585 0.0613
C4 C 0.01608(17) 0.2022(6) 0.11475(19)
H3 H -0.0215 0.1842 0.1008
C5 C 0.04080(15) 0.3026(5) 0.15893(16)
C6 C -0.04392(17) 0.3244(7) 0.1718(2)
H4 H -0.0658 0.3395 0.1326
H5 H -0.0600 0.3822 0.1937
H6 H -0.0422 0.2116 0.1808
C7 C 0.01573(17) 0.5506(5) 0.18803(18)
C8 C -0.02471(19) 0.6490(6) 0.1577(2)
H7 H -0.0585 0.6084 0.1340
C9 C -0.0150(2) 0.8121(7) 0.1625(2)
H8 H -0.0419 0.8835 0.1405
C10 C 0.0331(2) 0.8684(6) 0.1990(2)
H9 H 0.0399 0.9789 0.2023
C11 C 0.07177(18) 0.7622(5) 0.2310(2)
C12 C 0.1353(2) 0.9807(6) 0.2687(3)
H10 H 0.1261 1.0133 0.2304
H11 H 0.1739 0.9929 0.2895
H12 H 0.1159 1.0469 0.2852
C13 C 0.14421(17) 0.7361(5) 0.3213(2)
C14 C 0.15490(19) 0.8194(7) 0.3697(2)
H13 H 0.1465 0.9286 0.3690
C15 C 0.1783(2) 0.7386(8) 0.4194(2)
H14 H 0.1847 0.7921 0.4530
C16 C 0.1922(2) 0.5834(8) 0.4202(2)
H15 H 0.2078 0.5280 0.4541
C17 C 0.18300(16) 0.5058(6) 0.36963(18)
C18 C 0.2200(2) 0.2627(7) 0.41977(19)
H16 H 0.2542 0.3049 0.4457
H17 H 0.2247 0.1522 0.4115
H18 H 0.1933 0.2690 0.4362
C19 C 0.22252(16) 0.3106(5) 0.32821(17)
C20 C 0.27531(18) 0.2507(5) 0.34789(19)
H19 H 0.2964 0.2401 0.3861
C21 C 0.29480(17) 0.2085(6) 0.30860(18)
C22 C 0.26327(17) 0.2170(6) 0.25236(19)
H20 H 0.2768 0.1808 0.2262
C23 C 0.21172(16) 0.2794(5) 0.23508(17)
C24 C 0.19078(15) 0.3298(5) 0.27291(17)
C25 C 0.3830(2) 0.1579(7) 0.3781(2)
H21 H 0.4193 0.1321 0.3812
H22 H 0.3712 0.0789 0.3981
H23 H 0.3830 0.2627 0.3939
C26 C 0.20640(18) 0.2641(7) 0.13907(19)
H24 H 0.2148 0.1518 0.1381
H25 H 0.2396 0.3259 0.1512
H26 H 0.1824 0.2984 0.1022
Cu1C Cu 0.372268(18) -0.03962(6) 0.25091(2)
O1C O 0.15274(13) 0.6576(5) 0.17860(14)
Cl1 Cl 0.37633(5) 0.58788(17) 0.00865(5)
O2 O 0.38784(15) 0.5653(5) 0.06559(15)
O3 O 0.42229(18) 0.5699(8) -0.0026(2)
O4 O 0.33387(17) 0.4819(6) -0.02392(19)
O5 O 0.3578(2) 0.7502(6) -0.0038(2)
loop_
_geom_bond_atom_site_label_1
_geom_bond_atom_site_label_2
_geom_bond_site_symmetry_1
_geom_bond_site_symmetry_2
Cu1 N1 1_555 1_555
O1 C21 1_555 1_555
N1 C1 1_555 1_555
N2 Cu1 1_555 1_555
N3 Cu1 1_555 1_555
N4 C1 1_555 1_555
N5 C5 1_555 1_555
N6 C11 1_555 1_555
N7 C17 1_555 1_555
C1 C2 1_555 1_555
C2 H1 1_555 1_555
C3 C2 1_555 1_555
H2 C3 1_555 1_555
C4 C3 1_555 1_555
H3 C4 1_555 1_555
C5 N1 1_555 1_555
C6 N5 1_555 1_555
H4 C6 1_555 1_555
H5 C6 1_555 1_555
H6 C6 1_555 1_555
C7 N2 1_555 1_555
C8 C7 1_555 1_555
H7 C8 1_555 1_555
C9 C8 1_555 1_555
H8 C9 1_555 1_555
C10 C9 1_555 1_555
H9 C10 1_555 1_555
C11 N2 1_555 1_555
C12 N6 1_555 1_555
H10 C12 1_555 1_555
H11 C12 1_555 1_555
H12 C12 1_555 1_555
C13 N3 1_555 1_555
C14 C13 1_555 1_555
H13 C14 1_555 1_555
C15 C14 1_555 1_555
H14 C15 1_555 1_555
C16 C15 1_555 1_555
H15 C16 1_555 1_555
C17 N3 1_555 1_555
C18 N7 1_555 1_555
H16 C18 1_555 1_555
H17 C18 1_555 1_555
H18 C18 1_555 1_555
C19 N7 1_555 1_555
C20 C19 1_555 1_555
H19 C20 1_555 1_555
C21 C20 1_555 1_555
C22 C21 1_555 1_555
H20 C22 1_555 1_555
C23 N4 1_555 1_555
C24 Cu1 1_555 1_555
C25 O1 1_555 1_555
H21 C25 1_555 1_555
H22 C25 1_555 1_555
H23 C25 1_555 1_555
C26 N4 1_555 1_555
H24 C26 1_555 1_555
H25 C26 1_555 1_555
H26 C26 1_555 1_555
Cl1 O2 1_555 1_555
O3 Cl1 1_555 1_555
O4 Cl1 1_555 1_555
O5 Cl1 1_555 1_555
Cu1C O1 1_555 1_555
O1C Cu1 1_555 1_555
N5 C7 1_555 1_555
N6 C13 1_555 1_555
C4 C5 1_555 1_555
C10 C11 1_555 1_555
C16 C17 1_555 1_555
C19 C24 1_555 1_555
C22 C23 1_555 1_555
C23 C24 1_555 1_555

#END
