
#######################################################################
#
#                 Cambridge Crystallographic Data Centre
#                                CCDC 
#
#######################################################################
#
# If this CIF has been generated from an entry in the Cambridge 
# Structural Database, then it will include bibliographic, chemical, 
# crystal, experimental, refinement or atomic coordinate data resulting 
# from the CCDC's data processing and validation procedures.
#
#######################################################################

data_RIZJAM
_symmetry_cell_setting           triclinic
_symmetry_space_group_name_H-M   'P -1'
_symmetry_Int_Tables_number      2
_space_group_name_Hall           '-P 1'
loop_
_symmetry_equiv_pos_site_id
_symmetry_equiv_pos_as_xyz
1 x,y,z
2 -x,-y,-z
_cell_length_a                   7.7230(13)
_cell_length_b                   8.5586(15)
_cell_length_c                   8.5682(15)
_cell_angle_alpha                85.531(3)
_cell_angle_beta                 75.893(3)
_cell_angle_gamma                65.832(3)
_cell_volume                     500.965
loop_
_atom_site_label
_atom_site_type_symbol
_atom_site_fract_x
_atom_site_fract_y
_atom_site_fract_z
Co1 Co 0.03069(6) 0.38073(5) -0.27688(5)
N1 N 0.2774(4) 0.2510(3) -0.1554(3)
O1 O 0.0936(3) -0.1925(3) 0.2178(2)
O2 O 0.1701(3) -0.3926(3) 0.0396(2)
O3 O 0.7967(3) -0.4798(2) -0.3832(2)
O4 O 0.7813(3) -0.2475(2) -0.5239(2)
O5 O 0.0509(4) 0.6033(3) -0.2314(3)
C1 C 0.3459(4) 0.0690(3) -0.1506(3)
C2 C 0.2509(4) -0.0066(3) -0.0312(3)
H1 H 0.1530 0.0603 0.0531
C3 C 0.3016(4) -0.1826(4) -0.0371(3)
C4 C 0.4557(4) -0.2844(4) -0.1564(3)
H2 H 0.4916 -0.4022 -0.1588
C5 C 0.5566(4) -0.2096(3) -0.2729(3)
C6 C 0.4988(4) -0.0336(4) -0.2708(3)
H3 H 0.5632 0.0165 -0.3509
C7 C 0.1838(4) -0.2598(4) 0.0808(3)
C8 C 0.7246(4) -0.3211(3) -0.4018(3)
H4 H 0.245(4) 0.295(4) -0.060(4)
H5 H 0.361(5) 0.284(4) -0.208(4)
H6 H 0.109(5) 0.602(5) -0.163(4)
H7 H 0.058(5) 0.685(5) -0.286(5)
Co1A Co -0.03069(6) -0.38073(5) 0.27688(5)
Co1_2 Co 1.03069(6) -0.61927(5) -0.27688(5)
Co1A_2 Co 0.96931(6) -0.38073(5) -0.72312(5)
O1A O -0.0936(3) 0.1925(3) -0.2178(2)
O2A O -0.1701(3) 0.3926(3) -0.0396(2)
O3_2 O -0.2033(3) 0.5202(2) -0.3832(2)
O4A O 0.2187(3) 0.2475(2) -0.4761(2)
O6 O -0.0938(6) 0.1190(4) -0.6103(4)
H9 H -0.077(7) 0.037(7) -0.666(6)
H11 H 0.010(14) 0.076(11) -0.554(11)
O7 O -0.4359(4) 0.3467(4) -0.4045(3)
H8 H -0.363(7) 0.373(6) -0.363(5)
H13 H -0.368(10) 0.270(6) -0.481(8)
H10? H -0.201(11) 0.165(10) -0.572(9)
H12? H -0.506(8) 0.442(7) -0.453(8)
loop_
_geom_bond_atom_site_label_1
_geom_bond_atom_site_label_2
_geom_bond_site_symmetry_1
_geom_bond_site_symmetry_2
Co1 N1 1_555 1_555
N1 C1 1_555 1_555
O1 C7 1_555 1_555
O2 C7 1_555 1_555
O3 C8 1_555 1_555
O4 C8 1_555 1_555
O5 Co1 1_555 1_555
O6 H9 1_555 1_555
O7 H8 1_555 1_555
C1 C2 1_555 1_555
C2 H1 1_555 1_555
C3 C2 1_555 1_555
C4 C3 1_555 1_555
H2 C4 1_555 1_555
C5 C4 1_555 1_555
C6 C1 1_555 1_555
H3 C6 1_555 1_555
C7 C3 1_555 1_555
C8 C5 1_555 1_555
H4 N1 1_555 1_555
H5 N1 1_555 1_555
H6 O5 1_555 1_555
H7 O5 1_555 1_555
H11 O6 1_555 1_555
H13 O7 1_555 1_555
Co1A O1 1_555 1_555
Co1_2 O3 1_555 1_555
Co1A_2 O4 1_555 1_555
O1A Co1 1_555 1_555
O2A Co1 1_555 1_555
O3_2 Co1 1_555 1_555
O4A Co1 1_555 1_555
O2 Co1A 1_555 1_555
C5 C6 1_555 1_555

#END
