
#######################################################################
#
#                 Cambridge Crystallographic Data Centre
#                                CCDC 
#
#######################################################################
#
# If this CIF has been generated from an entry in the Cambridge 
# Structural Database, then it will include bibliographic, chemical, 
# crystal, experimental, refinement or atomic coordinate data resulting 
# from the CCDC's data processing and validation procedures.
#
#######################################################################

data_RIZJIU
_symmetry_cell_setting           monoclinic
_symmetry_space_group_name_H-M   'P 21/c'
_symmetry_Int_Tables_number      14
_space_group_name_Hall           '-P 2ybc'
loop_
_symmetry_equiv_pos_site_id
_symmetry_equiv_pos_as_xyz
1 x,y,z
2 -x,1/2+y,1/2-z
3 -x,-y,-z
4 x,1/2-y,1/2+z
_cell_length_a                   14.178(3)
_cell_length_b                   10.118(2)
_cell_length_c                   20.936(4)
_cell_angle_alpha                90
_cell_angle_beta                 99.79(3)
_cell_angle_gamma                90
_cell_volume                     2959.6
loop_
_atom_site_label
_atom_site_type_symbol
_atom_site_fract_x
_atom_site_fract_y
_atom_site_fract_z
H1 H -0.015(3) 0.735(4) 0.4878(19)
H2 H -0.097(4) 0.744(6) 0.509(3)
O1 O 0.4096(2) 0.9233(2) 0.28623(13)
C1 C 0.3586(3) 0.9267(3) 0.32819(18)
O2 O 0.3282(2) 1.0352(2) 0.34878(13)
Co1 Co 0.39484(4) 1.18389(4) 0.31098(2)
Co2 Co 0.0000 0.5000 0.5000
N1 N 0.3403(2) 1.1486(3) 0.10992(12)
O3 O 0.32573(17) 0.32733(18) 0.35069(11)
O4 O 0.43817(18) 0.4304(2) 0.31009(11)
N2 N 0.3665(2) 1.1999(2) 0.21327(12)
O5 O 0.1051(2) 0.7902(3) 0.46551(12)
O6 O 0.12745(18) 0.5725(2) 0.47989(12)
O7 O -0.0626(3) 0.6951(3) 0.49260(15)
C2 C 0.3673(2) 0.6807(3) 0.34075(14)
H3 H 0.4166 0.6804 0.3166
C3 C 0.3702(2) 0.4332(3) 0.33946(15)
N3 N 0.0447(2) 0.5179(3) 0.60236(14)
C4 C 0.3330(2) 0.5618(3) 0.36114(14)
N4 N -0.4684(2) 0.3396(2) 0.85394(13)
N5 N -0.3127(2) 0.3101(3) 0.87902(13)
N6 N 0.0479(2) 0.5800(3) 0.70393(14)
C5 C -0.4323(3) 0.4152(3) 0.90768(16)
H4 H -0.4685 0.4705 0.9295
C6 C -0.0460(3) 0.5466(3) 0.79090(16)
C7 C 0.2614(2) 0.5642(3) 0.39875(14)
H5 H 0.2383 0.4849 0.4124
C8 C 0.3080(3) 1.2748(3) 0.11465(19)
H6 H 0.2796 1.3289 0.0808
C9 C 0.2574(3) 0.8001(3) 0.39486(15)
H7 H 0.2326 0.8800 0.4064
C10 C 0.4729(3) 1.1304(3) 0.00183(16)
H8 H 0.4554 1.2188 0.0029
C11 C 0.3737(3) 1.1080(3) 0.17014(16)
H9 H 0.3991 1.0244 0.1804
C12 C 0.4472(3) 0.9044(3) 0.02387(15)
H10 H 0.4119 0.8388 0.0401
C13 C 0.2236(2) 0.6827(3) 0.41638(14)
C14 C 0.4186(2) 1.0343(3) 0.02605(15)
C15 C -0.3931(3) 0.2784(3) 0.83837(16)
H11 H -0.3957 0.2205 0.8036
C16 C 0.3280(3) 0.7999(3) 0.35633(15)
C17 C 0.0094(3) 0.6003(4) 0.64132(16)
H12 H -0.0365 0.6644 0.6272
C18 C -0.3370(3) 0.3968(3) 0.92370(17)
H13 H -0.2961 0.4352 0.9581
C19 C 0.1459(3) 0.6828(4) 0.45661(16)
C20 C 0.0158(3) 0.6412(4) 0.76020(17)
H14 H 0.0711 0.6663 0.7919
H15 H -0.0204 0.7206 0.7466
C21 C -0.1696(3) 0.3835(4) 0.78041(17)
H16 H -0.2153 0.3332 0.7539
C22 C -0.1576(3) 0.3670(3) 0.84661(17)
C23 C -0.0340(3) 0.5319(4) 0.85710(18)
H17 H 0.0117 0.5822 0.8836
C24 C 0.3279(3) 1.0685(4) 0.05017(18)
H18 H 0.2864 1.1164 0.0163
H19 H 0.2955 0.9871 0.0579
C25 C -0.1157(3) 0.4724(4) 0.75282(17)
H20 H -0.1262 0.4829 0.7080
C26 C 0.1088(3) 0.4412(4) 0.64284(18)
H21 H 0.1451 0.3735 0.6293
C27 C -0.0898(3) 0.4422(4) 0.88467(18)
H22 H -0.0809 0.4332 0.9295
C28 C -0.2157(3) 0.2641(4) 0.87470(19)
H23 H -0.1830 0.2402 0.9177
H24 H -0.2201 0.1854 0.8479
C29 C 0.1115(3) 0.4778(4) 0.70513(18)
H25 H 0.1491 0.4411 0.7415
C30 C 0.3254(3) 1.3051(3) 0.17815(18)
H26 H 0.3115 1.3859 0.1956
H1B H 0.015(3) 0.265(4) 0.5122(19)
H2B H 0.097(4) 0.256(6) 0.491(3)
O1B O -0.4096(2) 0.0767(2) 0.71377(13)
C1B C -0.3586(3) 0.0733(3) 0.67181(18)
O2B O -0.3282(2) -0.0352(2) 0.65122(13)
Co1B Co -0.39484(4) -0.18389(4) 0.68902(2)
Co1_2 Co 0.39484(4) 0.18389(4) 0.31098(2)
Co1C Co -0.60516(4) 0.31611(4) 0.81098(2)
Co1B_2 Co 0.60516(4) 0.81611(4) -0.31098(2)
Co1B_3 Co -0.39484(4) 0.81611(4) 0.68902(2)
Co1A Co 0.60516(4) 0.68389(4) 0.18902(2)
N1B N 0.6597(2) 0.8514(3) -0.10992(12)
O3B O -0.32573(17) 0.67267(18) 0.64931(11)
O3_2 O 0.32573(17) 1.32733(18) 0.35069(11)
O3B_2 O -0.32573(17) -0.32733(18) 0.64931(11)
O4B O -0.43817(18) 0.5696(2) 0.68991(11)
N2B N 0.6335(2) 0.8001(2) -0.21327(12)
N2B_2 N -0.3665(2) -0.1999(2) 0.78673(12)
O5B O -0.1051(2) 0.2098(3) 0.53449(12)
O6B O -0.12745(18) 0.4275(2) 0.52011(12)
O7B O 0.0626(3) 0.3049(3) 0.50740(15)
C2B C -0.3673(2) 0.3193(3) 0.65925(14)
H3B H -0.4166 0.3196 0.6834
C3B C -0.3702(2) 0.5668(3) 0.66054(15)
N3B N -0.0447(2) 0.4821(3) 0.39764(14)
C4B C -0.3330(2) 0.4382(3) 0.63886(14)
N4B N 0.4684(2) 0.6604(2) 0.14606(13)
N4C N 0.5316(2) 1.1604(2) 0.35394(13)
N4A N -0.5316(2) -0.1604(2) 0.64606(13)
N5B N 0.3127(2) 0.6899(3) 0.12098(13)
N6B N -0.0479(2) 0.4200(3) 0.29607(14)
C5B C 0.4323(3) 0.5848(3) 0.09232(16)
H4B H 0.4685 0.5295 0.0705
C6B C 0.0460(3) 0.4534(3) 0.20910(16)
C7B C -0.2614(2) 0.4358(3) 0.60125(14)
H5B H -0.2383 0.5151 0.5876
C8B C 0.6920(3) 0.7252(3) -0.11465(19)
H6B H 0.7204 0.6711 -0.0808
C9B C -0.2574(3) 0.1999(3) 0.60514(15)
H7B H -0.2326 0.1200 0.5936
C10B C 0.5271(3) 0.8696(3) -0.00183(16)
H8B H 0.5446 0.7812 -0.0029
C11B C 0.6263(3) 0.8920(3) -0.17014(16)
H9B H 0.6009 0.9756 -0.1804
C12B C 0.5528(3) 1.0956(3) -0.02387(15)
H10B H 0.5881 1.1612 -0.0401
C13B C -0.2236(2) 0.3173(3) 0.58362(14)
C14B C 0.5814(2) 0.9657(3) -0.02605(15)
C15B C 0.3931(3) 0.7216(3) 0.16163(16)
H11B H 0.3957 0.7795 0.1964
C16B C -0.3280(3) 0.2001(3) 0.64367(15)
C17B C -0.0094(3) 0.3997(4) 0.35868(16)
H12B H 0.0365 0.3356 0.3728
C18B C 0.3370(3) 0.6032(3) 0.07630(17)
H13B H 0.2961 0.5648 0.0419
C19B C -0.1459(3) 0.3172(4) 0.54339(16)
C20B C -0.0158(3) 0.3588(4) 0.23980(17)
H14B H -0.0711 0.3337 0.2081
H15B H 0.0204 0.2794 0.2534
C21B C 0.1696(3) 0.6165(4) 0.21959(17)
H16B H 0.2153 0.6668 0.2461
C22B C 0.1576(3) 0.6330(3) 0.15339(17)
C23B C 0.0340(3) 0.4681(4) 0.14290(18)
H17B H -0.0117 0.4178 0.1164
C24B C 0.6721(3) 0.9315(4) -0.05017(18)
H18B H 0.7136 0.8836 -0.0163
H19B H 0.7045 1.0129 -0.0579
C25B C 0.1157(3) 0.5276(4) 0.24718(17)
H20B H 0.1262 0.5171 0.2920
C26B C -0.1088(3) 0.5588(4) 0.35716(18)
H21B H -0.1451 0.6265 0.3707
C27B C 0.0898(3) 0.5578(4) 0.11533(18)
H22B H 0.0809 0.5668 0.0705
C28B C 0.2157(3) 0.7359(4) 0.12530(19)
H23B H 0.1830 0.7598 0.0823
H24B H 0.2201 0.8146 0.1521
C29B C -0.1115(3) 0.5222(4) 0.29487(18)
H25B H -0.1491 0.5589 0.2585
C30B C 0.6746(3) 0.6949(3) -0.17815(18)
H26B H 0.6885 0.6141 -0.1956
O8 O 0.1944(3) 0.2144(4) 0.4203(2)
O9 O 0.1638(6) 0.0865(6) 0.4732(3)
O10? O 0.1792(6) 0.1694(7) 0.3524(4)
loop_
_geom_bond_atom_site_label_1
_geom_bond_atom_site_label_2
_geom_bond_site_symmetry_1
_geom_bond_site_symmetry_2
H1 O7 1_555 1_555
H2 O7 1_555 1_555
O1 C1 1_555 1_555
C1 O2 1_555 1_555
O2 Co1 1_555 1_555
Co1 N2 1_555 1_555
Co2 O6 1_555 1_555
N1 C8 1_555 1_555
O3 C3 1_555 1_555
O4 C3 1_555 1_555
N2 C11 1_555 1_555
O5 C19 1_555 1_555
O6 C19 1_555 1_555
O7 Co2 1_555 1_555
C2 H3 1_555 1_555
C3 C4 1_555 1_555
N3 Co2 1_555 1_555
C4 C2 1_555 1_555
N4 C5 1_555 1_555
N5 C15 1_555 1_555
N6 C17 1_555 1_555
C5 H4 1_555 1_555
C6 C20 1_555 1_555
C7 C4 1_555 1_555
H5 C7 1_555 1_555
C8 H6 1_555 1_555
C9 H7 1_555 1_555
C10 H8 1_555 1_555
C11 N1 1_555 1_555
H9 C11 1_555 1_555
C12 H10 1_555 1_555
C13 C7 1_555 1_555
C14 C10 1_555 1_555
C15 N4 1_555 1_555
H11 C15 1_555 1_555
C16 C1 1_555 1_555
C17 N3 1_555 1_555
H12 C17 1_555 1_555
C18 N5 1_555 1_555
H13 C18 1_555 1_555
C19 C13 1_555 1_555
C20 N6 1_555 1_555
H14 C20 1_555 1_555
H15 C20 1_555 1_555
C21 H16 1_555 1_555
C22 C21 1_555 1_555
C23 C6 1_555 1_555
H17 C23 1_555 1_555
C24 N1 1_555 1_555
H18 C24 1_555 1_555
H19 C24 1_555 1_555
C25 C6 1_555 1_555
H20 C25 1_555 1_555
C26 N3 1_555 1_555
H21 C26 1_555 1_555
C27 C22 1_555 1_555
H22 C27 1_555 1_555
C28 N5 1_555 1_555
H23 C28 1_555 1_555
H24 C28 1_555 1_555
C29 N6 1_555 1_555
H25 C29 1_555 1_555
C30 N2 1_555 1_555
H26 C30 1_555 1_555
H1B O7B 1_555 1_555
H2B O7B 1_555 1_555
O1B C1B 1_555 1_555
C1B O2B 1_555 1_555
O2B Co1B 1_555 1_555
Co1B O3B_2 1_555 1_555
Co1_2 O3 1_555 1_555
Co1C N4 1_555 1_555
Co1B_2 N2B 1_555 1_555
Co1B_3 O3B 1_555 1_555
Co1A N4B 1_555 1_555
N1B C8B 1_555 1_555
O3B C3B 1_555 1_555
O3_2 Co1 1_555 1_555
O4B C3B 1_555 1_555
N2B C11B 1_555 1_555
N2B_2 Co1B 1_555 1_555
O5B C19B 1_555 1_555
O6B Co2 1_555 1_555
O7B Co2 1_555 1_555
C2B H3B 1_555 1_555
C3B C4B 1_555 1_555
N3B Co2 1_555 1_555
C4B C2B 1_555 1_555
N4B C5B 1_555 1_555
N4C Co1 1_555 1_555
N4A Co1B 1_555 1_555
N5B C15B 1_555 1_555
N6B C17B 1_555 1_555
C5B H4B 1_555 1_555
C6B C20B 1_555 1_555
C7B C4B 1_555 1_555
H5B C7B 1_555 1_555
C8B H6B 1_555 1_555
C9B H7B 1_555 1_555
C10B C12 1_555 1_555
H8B C10B 1_555 1_555
C11B N1B 1_555 1_555
H9B C11B 1_555 1_555
C12B C10 1_555 1_555
H10B C12B 1_555 1_555
C13B C7B 1_555 1_555
C14B C10B 1_555 1_555
C15B N4B 1_555 1_555
H11B C15B 1_555 1_555
C16B C1B 1_555 1_555
C17B N3B 1_555 1_555
H12B C17B 1_555 1_555
C18B N5B 1_555 1_555
H13B C18B 1_555 1_555
C19B O6B 1_555 1_555
C20B N6B 1_555 1_555
H14B C20B 1_555 1_555
H15B C20B 1_555 1_555
C21B H16B 1_555 1_555
C22B C21B 1_555 1_555
C23B C6B 1_555 1_555
H17B C23B 1_555 1_555
C24B N1B 1_555 1_555
H18B C24B 1_555 1_555
H19B C24B 1_555 1_555
C25B C6B 1_555 1_555
H20B C25B 1_555 1_555
C26B N3B 1_555 1_555
H21B C26B 1_555 1_555
C27B C22B 1_555 1_555
H22B C27B 1_555 1_555
C28B N5B 1_555 1_555
H23B C28B 1_555 1_555
H24B C28B 1_555 1_555
C29B N6B 1_555 1_555
H25B C29B 1_555 1_555
C30B N2B 1_555 1_555
H26B C30B 1_555 1_555
C2 C16 1_555 1_555
C5 C18 1_555 1_555
C8 C30 1_555 1_555
C9 C13 1_555 1_555
C9 C16 1_555 1_555
C12 C14 1_555 1_555
C14 C24 1_555 1_555
C21 C25 1_555 1_555
C22 C28 1_555 1_555
C23 C27 1_555 1_555
C26 C29 1_555 1_555
C2B C16B 1_555 1_555
C5B C18B 1_555 1_555
C8B C30B 1_555 1_555
C9B C13B 1_555 1_555
C9B C16B 1_555 1_555
C12B C14B 1_555 1_555
C13B C19B 1_555 1_555
C14B C24B 1_555 1_555
C21B C25B 1_555 1_555
C22B C28B 1_555 1_555
C23B C27B 1_555 1_555
C26B C29B 1_555 1_555

#END
