
#######################################################################
#
#                 Cambridge Crystallographic Data Centre
#                                CCDC 
#
#######################################################################
#
# If this CIF has been generated from an entry in the Cambridge 
# Structural Database, then it will include bibliographic, chemical, 
# crystal, experimental, refinement or atomic coordinate data resulting 
# from the CCDC's data processing and validation procedures.
#
#######################################################################

data_RIZNOE
_symmetry_cell_setting           monoclinic
_symmetry_space_group_name_H-M   'C 2/c'
_symmetry_Int_Tables_number      15
_space_group_name_Hall           '-C 2yn'
loop_
_symmetry_equiv_pos_site_id
_symmetry_equiv_pos_as_xyz
1 x,y,z
2 1/2+x,1/2+y,z
3 -x,y,1/2-z
4 1/2-x,1/2+y,1/2-z
5 -x,-y,-z
6 1/2-x,1/2-y,-z
7 x,-y,1/2+z
8 1/2+x,1/2-y,1/2+z
_cell_length_a                   20.125(3)
_cell_length_b                   10.4837(11)
_cell_length_c                   17.0477(16)
_cell_angle_alpha                90
_cell_angle_beta                 120.263(2)
_cell_angle_gamma                90
_cell_volume                     3106.63
loop_
_atom_site_label
_atom_site_type_symbol
_atom_site_fract_x
_atom_site_fract_y
_atom_site_fract_z
Cu1 Cu 0.086847(13) 0.81929(2) 0.279201(14)
N1 N 0.13069(9) 0.92066(15) 0.39492(10)
C1 C 0.16203(13) 0.8794(2) 0.48003(13)
H1 H 0.1659 0.7921 0.4909
C2 C 0.18927(14) 0.9630(2) 0.55366(15)
H2 H 0.2112 0.9311 0.6124
C3 C 0.18362(13) 1.0914(2) 0.53922(14)
H3 H 0.1996 1.1476 0.5877
C4 C 0.15339(12) 1.1383(2) 0.45054(14)
C5 C 0.12798(11) 1.04848(18) 0.38071(13)
N2 N 0.07733(9) 0.99479(15) 0.22598(11)
C6 C 0.10003(10) 1.08830(19) 0.28921(12)
C7 C 0.09838(12) 1.2186(2) 0.26887(14)
C8 C 0.07309(13) 1.2495(2) 0.17811(16)
H4 H 0.0716 1.3343 0.1613
C9 C 0.05064(14) 1.1554(2) 0.11438(16)
H5 H 0.0339 1.1757 0.0541
C10 C 0.05296(13) 1.0283(2) 0.14027(14)
H6 H 0.0370 0.9650 0.0962
C11 C 0.14923(13) 1.2712(2) 0.42764(16)
H7 H 0.1645 1.3321 0.4732
C12 C 0.12372(14) 1.30935(19) 0.34161(17)
H8 H 0.1225 1.3959 0.3291
O1 O 0.07527(8) 0.66845(12) 0.33897(9)
O2 O -0.02845(8) 0.74156(13) 0.34142(9)
C13 C 0.02743(12) 0.66622(17) 0.36629(13)
C14 C 0.04119(12) 0.56879(18) 0.43546(12)
H9 H 0.0857 0.5197 0.4587
C15 C -0.00686(11) 0.54774(17) 0.46617(12)
H10 H -0.0513 0.5967 0.4430
O3 O 0.19528(10) 0.75873(16) 0.29773(13)
H11 H 0.2281(14) 0.816(2) 0.3169(17)
H12 H 0.193(2) 0.721(3) 0.2555(19)
Cu1D Cu -0.086847(13) 0.18071(2) 0.720799(14)
Cu1B Cu -0.086847(13) 0.81929(2) 0.220799(14)
Cu1F Cu 0.086847(13) 0.18071(2) 0.779201(14)
N1D N -0.13069(9) 0.07934(15) 0.60508(10)
C1D C -0.16203(13) 0.1206(2) 0.51997(13)
H1D H -0.1659 0.2079 0.5091
C2D C -0.18927(14) 0.0370(2) 0.44634(15)
H2D H -0.2112 0.0689 0.3876
C3D C -0.18362(13) -0.0914(2) 0.46078(14)
H3D H -0.1996 -0.1476 0.4123
C4D C -0.15339(12) -0.1383(2) 0.54946(14)
C5D C -0.12798(11) -0.04848(18) 0.61929(13)
N2D N -0.07733(9) 0.00521(15) 0.77402(11)
C6D C -0.10003(10) -0.08830(19) 0.71079(12)
C7D C -0.09838(12) -0.2186(2) 0.73113(14)
C8D C -0.07309(13) -0.2495(2) 0.82189(16)
H4D H -0.0716 -0.3343 0.8387
C9D C -0.05064(14) -0.1554(2) 0.88562(16)
H5D H -0.0339 -0.1757 0.9459
C10D C -0.05296(13) -0.0283(2) 0.85973(14)
H6D H -0.0370 0.0350 0.9038
C11D C -0.14923(13) -0.2712(2) 0.57236(16)
H7D H -0.1645 -0.3321 0.5268
C12D C -0.12372(14) -0.30935(19) 0.65839(17)
H8D H -0.1225 -0.3959 0.6709
O1D O -0.07527(8) 0.33155(12) 0.66103(9)
O2D O 0.02845(8) 0.25844(13) 0.65858(9)
O2B O 0.02845(8) 0.74156(13) 0.15858(9)
O2F O -0.02845(8) 0.25844(13) 0.84142(9)
C13D C -0.02743(12) 0.33378(17) 0.63371(13)
C14D C -0.04119(12) 0.43121(18) 0.56454(12)
H9D H -0.0857 0.4803 0.5413
C15D C 0.00686(11) 0.45226(17) 0.53383(12)
H10D H 0.0513 0.4033 0.5570
O3D O -0.19528(10) 0.24127(16) 0.70227(13)
H11D H -0.2281(14) 0.184(2) 0.6831(17)
H12D H -0.193(2) 0.279(3) 0.7445(19)
N3 N 0.28932(11) 1.03355(19) 0.34087(13)
O4 O 0.28403(16) 0.9762(2) 0.27503(14)
O5 O 0.28445(11) 0.9758(2) 0.40094(13)
O6 O 0.30252(14) 1.14893(19) 0.34899(15)
loop_
_geom_bond_atom_site_label_1
_geom_bond_atom_site_label_2
_geom_bond_site_symmetry_1
_geom_bond_site_symmetry_2
Cu1 N1 1_555 1_555
N1 C1 1_555 1_555
C1 H1 1_555 1_555
C2 C1 1_555 1_555
H2 C2 1_555 1_555
C3 C2 1_555 1_555
H3 C3 1_555 1_555
C4 C3 1_555 1_555
C5 N1 1_555 1_555
N2 Cu1 1_555 1_555
C6 C5 1_555 1_555
C7 C6 1_555 1_555
C8 C7 1_555 1_555
H4 C8 1_555 1_555
C9 C8 1_555 1_555
H5 C9 1_555 1_555
C10 N2 1_555 1_555
H6 C10 1_555 1_555
C11 C4 1_555 1_555
H7 C11 1_555 1_555
C12 C7 1_555 1_555
H8 C12 1_555 1_555
O1 Cu1 1_555 1_555
O2 C13 1_555 1_555
C13 O1 1_555 1_555
C14 C13 1_555 1_555
H9 C14 1_555 1_555
C15 C14 1_555 1_555
H10 C15 1_555 1_555
O3 Cu1 1_555 1_555
H11 O3 1_555 1_555
H12 O3 1_555 1_555
N3 O4 1_555 1_555
O5 N3 1_555 1_555
O6 N3 1_555 1_555
Cu1D N1D 1_555 1_555
Cu1B O2 1_555 1_555
Cu1F O2D 1_555 1_555
N1D C1D 1_555 1_555
C1D H1D 1_555 1_555
C2D C1D 1_555 1_555
H2D C2D 1_555 1_555
C3D C2D 1_555 1_555
H3D C3D 1_555 1_555
C4D C3D 1_555 1_555
C5D N1D 1_555 1_555
N2D Cu1D 1_555 1_555
C6D C5D 1_555 1_555
C7D C6D 1_555 1_555
C8D C7D 1_555 1_555
H4D C8D 1_555 1_555
C9D C8D 1_555 1_555
H5D C9D 1_555 1_555
C10D N2D 1_555 1_555
H6D C10D 1_555 1_555
C11D C4D 1_555 1_555
H7D C11D 1_555 1_555
C12D C7D 1_555 1_555
H8D C12D 1_555 1_555
O1D Cu1D 1_555 1_555
O2D C13D 1_555 1_555
O2B Cu1 1_555 1_555
O2F Cu1D 1_555 1_555
C13D O1D 1_555 1_555
C14D C13D 1_555 1_555
H9D C14D 1_555 1_555
C15D C15 1_555 1_555
H10D C15D 1_555 1_555
O3D Cu1D 1_555 1_555
H11D O3D 1_555 1_555
H12D O3D 1_555 1_555
C4 C5 1_555 1_555
N2 C6 1_555 1_555
C9 C10 1_555 1_555
C11 C12 1_555 1_555
C4D C5D 1_555 1_555
N2D C6D 1_555 1_555
C9D C10D 1_555 1_555
C11D C12D 1_555 1_555
C14D C15D 1_555 1_555

#END
