
#######################################################################
#
#                 Cambridge Crystallographic Data Centre
#                                CCDC 
#
#######################################################################
#
# If this CIF has been generated from an entry in the Cambridge 
# Structural Database, then it will include bibliographic, chemical, 
# crystal, experimental, refinement or atomic coordinate data resulting 
# from the CCDC's data processing and validation procedures.
#
#######################################################################

data_RIZTIE
_symmetry_cell_setting           monoclinic
_symmetry_space_group_name_H-M   'P 21'
_symmetry_Int_Tables_number      4
_space_group_name_Hall           'P 2yb'
loop_
_symmetry_equiv_pos_site_id
_symmetry_equiv_pos_as_xyz
1 x,y,z
2 -x,1/2+y,-z
_cell_length_a                   10.6210(11)
_cell_length_b                   19.7259(19)
_cell_length_c                   15.3150(15)
_cell_angle_alpha                90
_cell_angle_beta                 91.5646(14)
_cell_angle_gamma                90
_cell_volume                     3207.43
loop_
_atom_site_label
_atom_site_type_symbol
_atom_site_fract_x
_atom_site_fract_y
_atom_site_fract_z
Hg1 Hg 0.23372(6) 0.40214(8) 0.09934(4)
Hg2 Hg 0.25789(6) 0.31224(8) 0.21580(4)
Hg3 Hg 0.04820(6) 0.43610(8) 0.26487(4)
Hg4 Hg -0.04109(5) 0.49905(7) 0.13535(4)
Hg5 Hg 0.51383(6) 0.43747(8) 0.10881(4)
Hg6 Hg 0.53372(6) 0.47081(8) 0.26629(4)
Hg7 Hg 0.74173(6) 0.32802(7) 0.23354(4)
Hg8 Hg -0.20171(5) 0.35723(8) 0.08018(4)
Hg9 Hg 0.10669(5) 0.48823(7) -0.14225(4)
Hg10 Hg 0.61066(5) 0.47768(7) -0.14670(4)
Hg11 Hg -0.08403(5) 0.35413(7) 0.49415(4)
Hg12 Hg 0.41740(5) 0.35626(7) 0.49735(4)
O1 O 0.2017(9) 0.4944(5) 0.0272(7)
O2 O 0.4004(9) 0.5345(5) 0.0237(7)
O3 O 0.3200(9) 0.3601(6) -0.0480(6)
O4 O 0.5217(10) 0.3904(5) -0.0175(6)
O5 O 0.0175(9) 0.3208(5) 0.3293(6)
O6 O 0.2005(9) 0.2629(5) 0.3390(6)
O7 O 0.1038(9) 0.4653(6) 0.4009(7)
O8 O 0.2919(10) 0.4270(6) 0.3652(7)
O9 O -0.1017(9) 0.5597(5) 0.0278(7)
O10 O -0.2726(9) 0.4945(5) 0.0228(6)
O11 O 0.6052(9) 0.4810(6) 0.3996(6)
O12 O 0.7854(10) 0.4283(5) 0.3615(7)
O13 O 0.6978(9) 0.2653(5) 0.3445(7)
O14 O 0.5166(10) 0.3219(5) 0.3345(7)
O15 O -0.1776(9) 0.3464(6) -0.0584(7)
O16 O -0.0011(10) 0.4025(6) -0.0194(7)
O17 O 0.3874(9) 0.2120(5) 0.1971(7)
O18 O 0.5103(13) 0.2835(7) 0.1334(11)
O19 O 0.5733(11) 0.1831(7) 0.1671(10)
O20 O -0.0553(13) 0.6150(7) 0.2185(11)
O21 O -0.1878(14) 0.6631(8) 0.3014(11)
O22 O -0.2439(14) 0.5755(8) 0.2189(10)
O23 O 0.4233(11) 0.5743(6) 0.3085(9)
O24 O 0.2832(13) 0.6498(7) 0.2758(11)
O25 O 0.2669(12) 0.5495(7) 0.2198(9)
O26 O 0.0124(11) 0.2827(7) 0.0910(10)
O27 O 0.1014(10) 0.2047(6) 0.1679(9)
O28 O -0.1022(10) 0.2148(5) 0.1646(8)
O29 O 0.2506(10) 0.5148(7) -0.2917(8)
O30 O 0.4509(9) 0.4981(6) -0.2956(7)
O31 O 0.3577(9) 0.4967(6) -0.1719(6)
O32 O -0.1418(9) 0.4971(6) -0.1740(6)
O33 O -0.2524(10) 0.5072(7) -0.2936(7)
O34 O -0.0469(10) 0.4999(6) -0.2968(7)
O35 O -0.3264(9) 0.3395(6) 0.5248(7)
O36 O -0.4341(10) 0.3532(7) 0.6410(7)
O37 O -0.2301(9) 0.3459(8) 0.6518(8)
O38 O 0.0670(10) 0.3558(7) 0.6409(7)
O39 O 0.1726(9) 0.3296(6) 0.5289(7)
O40 O 0.2664(9) 0.3491(7) 0.6536(8)
N1 N 0.1142(10) 0.5852(6) -0.0863(8)
H5 H 0.1017 0.6166 -0.1301
H6 H 0.0483 0.5893 -0.0489
N2 N 0.5997(11) 0.3746(6) -0.1762(8)
H7 H 0.6141 0.3689 -0.2347
H8 H 0.6628 0.3523 -0.1455
N3 N -0.0847(11) 0.2507(6) 0.4639(8)
H9 H -0.0943 0.2269 0.5150
H10 H -0.1544 0.2420 0.4287
N4 N 0.4001(11) 0.4621(6) 0.5197(8)
H11 H 0.4209 0.4714 0.5772
H12 H 0.4560 0.4849 0.4854
N5 N -0.3970(12) 0.5753(7) -0.0942(9)
H13 H -0.4187 0.6050 -0.1385
H14 H -0.4606 0.5765 -0.0546
N6 N 0.9025(11) 0.4583(6) 0.5179(9)
H15 H 0.9221 0.4658 0.5760
H16 H 0.9626 0.4799 0.4860
N7 N 0.4151(11) 0.2523(7) 0.4712(8)
H17 H 0.4036 0.2297 0.5229
H18 H 0.3462 0.2432 0.4353
N8 N 0.1092(11) 0.3842(6) -0.1760(8)
H19 H 0.1298 0.3802 -0.2338
H20 H 0.1710 0.3628 -0.1430
N9 N 0.4913(12) 0.2278(7) 0.1645(9)
N10 N -0.1622(15) 0.6179(8) 0.2476(11)
N11 N 0.3233(14) 0.5921(8) 0.2678(11)
N12 N 0.0039(14) 0.2333(7) 0.1389(8)
N13 N 0.3535(10) 0.5020(6) -0.2533(8)
N14 N -0.1468(11) 0.5016(6) -0.2565(8)
N15 N -0.3299(10) 0.3455(7) 0.6059(7)
N16 N 0.1673(11) 0.3456(7) 0.6080(8)
C1 C 0.2835(13) 0.5378(7) 0.0073(9)
C2 C 0.2323(12) 0.6029(7) -0.0375(9)
H21 H 0.2956 0.6197 -0.0795
C3 C 0.2103(18) 0.6579(8) 0.0319(11)
H22 H 0.1785 0.6991 0.0033
H23 H 0.2898 0.6678 0.0632
H24 H 0.1484 0.6416 0.0734
C4 C 0.4366(11) 0.3667(7) -0.0676(10)
C5 C 0.4754(13) 0.3421(8) -0.1558(9)
H25 H 0.4116 0.3593 -0.1997
C6 C 0.4792(18) 0.2670(8) -0.1645(11)
H26 H 0.3968 0.2481 -0.1507
H27 H 0.5436 0.2486 -0.1241
H28 H 0.4998 0.2549 -0.2245
C7 C 0.0853(12) 0.2747(7) 0.3583(8)
C8 C 0.0295(13) 0.2229(7) 0.4192(10)
H29 H 0.0945 0.2101 0.4647
C9 C -0.0106(13) 0.1593(7) 0.3684(9)
H30 H 0.0623 0.1405 0.3390
H31 H -0.0762 0.1712 0.3249
H32 H -0.0435 0.1256 0.4089
C10 C 0.2191(13) 0.4561(8) 0.4125(9)
C11 C 0.2730(13) 0.4866(8) 0.5000(9)
H33 H 0.2180 0.4710 0.5480
C12 C 0.2649(14) 0.5637(7) 0.4958(11)
H34 H 0.2980 0.5830 0.5508
H35 H 0.1768 0.5773 0.4867
H36 H 0.3147 0.5802 0.4473
C13 C -0.2153(12) 0.5462(7) 0.0024(8)
C14 C -0.2794(13) 0.6007(7) -0.0498(10)
H37 H -0.2207 0.6159 -0.0959
C15 C -0.3050(18) 0.6600(9) 0.0081(11)
H38 H -0.2262 0.6751 0.0366
H39 H -0.3647 0.6466 0.0526
H40 H -0.3410 0.6971 -0.0270
C16 C 0.7240(14) 0.4632(8) 0.4116(10)
C17 C 0.7782(11) 0.4909(8) 0.4974(10)
H41 H 0.7193 0.4789 0.5447
C18 C 0.7871(17) 0.5674(9) 0.4930(12)
H42 H 0.8218 0.5848 0.5485
H43 H 0.7030 0.5865 0.4820
H44 H 0.8424 0.5804 0.4456
C19 C 0.5817(13) 0.2745(8) 0.3655(9)
C20 C 0.5298(14) 0.2233(7) 0.4293(10)
H45 H 0.5954 0.2145 0.4760
C21 C 0.4981(14) 0.1575(8) 0.3852(11)
H46 H 0.5735 0.1392 0.3582
H47 H 0.4323 0.1650 0.3402
H48 H 0.4678 0.1252 0.4285
C22 C -0.0649(12) 0.3693(7) -0.0742(8)
C23 C -0.0140(14) 0.3493(7) -0.1625(9)
H49 H -0.0756 0.3627 -0.2098
C24 C 0.0079(17) 0.2720(8) -0.1660(11)
H50 H 0.0395 0.2596 -0.2233
H51 H -0.0717 0.2484 -0.1564
H52 H 0.0698 0.2589 -0.1204
Hg5_2 Hg -0.48617(6) 0.43747(8) 0.10881(4)
Hg7_2 Hg -0.25827(6) 0.32802(7) 0.23354(4)
Hg8_2 Hg 0.79829(5) 0.35723(8) 0.08018(4)
Hg10_2 Hg -0.38934(5) 0.47768(7) -0.14670(4)
Hg11_2 Hg 0.91597(5) 0.35413(7) 0.49415(4)
Hg12_2 Hg -0.58260(5) 0.35626(7) 0.49735(4)
O10_2 O 0.7274(9) 0.4945(5) 0.0228(6)
O12_2 O -0.2146(10) 0.4283(5) 0.3615(7)
O28_2 O 0.8978(10) 0.2148(5) 0.1646(8)
O32_2 O 0.8582(9) 0.4971(6) -0.1740(6)
O33_2 O 0.7476(10) 0.5072(7) -0.2936(7)
O35_2 O 0.6736(9) 0.3395(6) 0.5248(7)
O36_2 O 0.5659(10) 0.3532(7) 0.6410(7)
N5_2 N 0.6030(12) 0.5753(7) -0.0942(9)
H13_2 H 0.5813 0.6050 -0.1385
H14_2 H 0.5394 0.5765 -0.0546
N6_2 N -0.0975(11) 0.4583(6) 0.5179(9)
H15_2 H -0.0779 0.4658 0.5760
H16_2 H -0.0374 0.4799 0.4860
O41 O -0.0701(12) 0.1776(6) 0.6193(8)
H1 H 0.0118(19) 0.1682(17) 0.6508(17)
H2 H -0.140(4) 0.155(8) 0.651(4)
O42 O 0.4213(12) 0.1773(7) 0.6239(8)
H3 H 0.346(3) 0.164(2) 0.6573(18)
H4 H 0.499(3) 0.163(6) 0.6566(13)
loop_
_geom_bond_atom_site_label_1
_geom_bond_atom_site_label_2
_geom_bond_site_symmetry_1
_geom_bond_site_symmetry_2
Hg1 Hg2 1_555 1_555
Hg2 Hg3 1_555 1_555
Hg3 Hg1 1_555 1_555
Hg4 Hg1 1_555 1_555
Hg5 Hg1 1_555 1_555
Hg6 Hg5 1_555 1_555
Hg7 Hg6 1_555 1_555
Hg8 Hg4 1_555 1_555
Hg9 O1 1_555 1_555
Hg10 O4 1_555 1_555
Hg11 O5 1_555 1_555
Hg12 O8 1_555 1_555
O1 Hg1 1_555 1_555
O2 Hg5 1_555 1_555
O3 Hg1 1_555 1_555
O4 Hg5 1_555 1_555
O5 Hg3 1_555 1_555
O6 Hg2 1_555 1_555
O7 Hg3 1_555 1_555
O8 Hg3 1_555 1_555
O9 Hg4 1_555 1_555
O10 Hg4 1_555 1_555
O11 Hg6 1_555 1_555
O12 Hg7 1_555 1_555
O13 Hg7 1_555 1_555
O14 Hg7 1_555 1_555
O15 Hg8 1_555 1_555
O16 Hg1 1_555 1_555
O17 Hg2 1_555 1_555
O18 Hg2 1_555 1_555
O19 N9 1_555 1_555
O20 Hg4 1_555 1_555
O21 N10 1_555 1_555
O22 Hg4 1_555 1_555
O23 Hg6 1_555 1_555
O24 N11 1_555 1_555
O25 N11 1_555 1_555
O26 Hg8 1_555 1_555
O27 Hg2 1_555 1_555
O28 N12 1_555 1_555
O29 Hg9 1_555 1_555
O30 Hg10 1_555 1_555
O31 Hg9 1_555 1_555
O32 Hg9 1_555 1_555
O33 N14 1_555 1_555
O34 Hg9 1_555 1_555
O35 Hg11 1_555 1_555
O36 N15 1_555 1_555
O37 Hg11 1_555 1_555
O38 Hg11 1_555 1_555
O39 Hg11 1_555 1_555
O40 Hg12 1_555 1_555
O41 H1 1_555 1_555
H2 O41 1_555 1_555
O42 H3 1_555 1_555
H4 O42 1_555 1_555
N1 Hg9 1_555 1_555
H5 N1 1_555 1_555
H6 N1 1_555 1_555
N2 Hg10 1_555 1_555
H7 N2 1_555 1_555
H8 N2 1_555 1_555
N3 Hg11 1_555 1_555
H9 N3 1_555 1_555
H10 N3 1_555 1_555
N4 Hg12 1_555 1_555
H11 N4 1_555 1_555
H12 N4 1_555 1_555
N5 H13 1_555 1_555
H14 N5 1_555 1_555
N6 H15 1_555 1_555
H16 N6 1_555 1_555
N7 Hg12 1_555 1_555
H17 N7 1_555 1_555
H18 N7 1_555 1_555
N8 Hg9 1_555 1_555
H19 N8 1_555 1_555
H20 N8 1_555 1_555
N9 O17 1_555 1_555
N10 O20 1_555 1_555
N11 O23 1_555 1_555
N12 O26 1_555 1_555
N13 O29 1_555 1_555
N14 O32 1_555 1_555
N15 O35 1_555 1_555
N16 O38 1_555 1_555
C1 O1 1_555 1_555
C2 N1 1_555 1_555
H21 C2 1_555 1_555
C3 C2 1_555 1_555
H22 C3 1_555 1_555
H23 C3 1_555 1_555
H24 C3 1_555 1_555
C4 O3 1_555 1_555
C5 N2 1_555 1_555
H25 C5 1_555 1_555
C6 C5 1_555 1_555
H26 C6 1_555 1_555
H27 C6 1_555 1_555
H28 C6 1_555 1_555
C7 O5 1_555 1_555
C8 N3 1_555 1_555
H29 C8 1_555 1_555
C9 C8 1_555 1_555
H30 C9 1_555 1_555
H31 C9 1_555 1_555
H32 C9 1_555 1_555
C10 O7 1_555 1_555
C11 N4 1_555 1_555
H33 C11 1_555 1_555
C12 C11 1_555 1_555
H34 C12 1_555 1_555
H35 C12 1_555 1_555
H36 C12 1_555 1_555
C13 O9 1_555 1_555
C14 N5 1_555 1_555
H37 C14 1_555 1_555
C15 C14 1_555 1_555
H38 C15 1_555 1_555
H39 C15 1_555 1_555
H40 C15 1_555 1_555
C16 O11 1_555 1_555
C17 N6 1_555 1_555
H41 C17 1_555 1_555
C18 C17 1_555 1_555
H42 C18 1_555 1_555
H43 C18 1_555 1_555
H44 C18 1_555 1_555
C19 O13 1_555 1_555
C20 N7 1_555 1_555
H45 C20 1_555 1_555
C21 C20 1_555 1_555
H46 C21 1_555 1_555
H47 C21 1_555 1_555
H48 C21 1_555 1_555
C22 O15 1_555 1_555
C23 N8 1_555 1_555
H49 C23 1_555 1_555
C24 C23 1_555 1_555
H50 C24 1_555 1_555
H51 C24 1_555 1_555
H52 C24 1_555 1_555
Hg5_2 Hg8 1_555 1_555
Hg7_2 Hg8 1_555 1_555
Hg8_2 Hg5 1_555 1_555
Hg10_2 O10 1_555 1_555
Hg11_2 O12 1_555 1_555
Hg12_2 O35 1_555 1_555
O10_2 Hg5 1_555 1_555
O12_2 Hg11 1_555 1_555
O28_2 Hg7 1_555 1_555
O32_2 Hg10 1_555 1_555
O33_2 Hg10 1_555 1_555
O35_2 Hg12 1_555 1_555
O36_2 Hg12 1_555 1_555
N5_2 Hg10 1_555 1_555
H13_2 N5_2 1_555 1_555
H14_2 N5_2 1_555 1_555
N6_2 Hg11 1_555 1_555
H15_2 N6_2 1_555 1_555
H16_2 N6_2 1_555 1_555
Hg3 Hg4 1_555 1_555
Hg5 O18 1_555 1_555
Hg7 O18 1_555 1_555
Hg7 Hg8_2 1_555 1_555
Hg8 O10 1_555 1_555
Hg8 O16 1_555 1_555
Hg9 O16 1_555 1_555
Hg10 O31 1_555 1_555
Hg10 O10_2 1_555 1_555
Hg12 O14 1_555 1_555
Hg12 O39 1_555 1_555
O2 C1 1_555 1_555
O4 C4 1_555 1_555
O6 C7 1_555 1_555
O8 C10 1_555 1_555
O10 C13 1_555 1_555
O10 Hg5_2 1_555 1_555
O12 C16 1_555 1_555
O14 C19 1_555 1_555
O16 C22 1_555 1_555
O18 N9 1_555 1_555
O22 N10 1_555 1_555
O27 N12 1_555 1_555
O28 Hg7_2 1_555 1_555
O30 N13 1_555 1_555
O31 N13 1_555 1_555
O32 Hg10_2 1_555 1_555
O33 Hg10_2 1_555 1_555
O34 N14 1_555 1_555
O36 Hg12_2 1_555 1_555
O37 N15 1_555 1_555
O39 N16 1_555 1_555
O40 N16 1_555 1_555
N5 Hg10_2 1_555 1_555
N6 Hg11_2 1_555 1_555
C1 C2 1_555 1_555
C4 C5 1_555 1_555
C7 C8 1_555 1_555
C10 C11 1_555 1_555
C13 C14 1_555 1_555
C16 C17 1_555 1_555
C19 C20 1_555 1_555
C22 C23 1_555 1_555
Hg7_2 O12_2 1_555 1_555
Hg8_2 O10_2 1_555 1_555
Hg11_2 O35_2 1_555 1_555

#END
