
#######################################################################
#
#                 Cambridge Crystallographic Data Centre
#                                CCDC 
#
#######################################################################
#
# If this CIF has been generated from an entry in the Cambridge 
# Structural Database, then it will include bibliographic, chemical, 
# crystal, experimental, refinement or atomic coordinate data resulting 
# from the CCDC's data processing and validation procedures.
#
#######################################################################

data_RIZWAY
_symmetry_cell_setting           orthorhombic
_symmetry_space_group_name_H-M   'P b c a'
_symmetry_Int_Tables_number      61
_space_group_name_Hall           '-P 2ac 2ab'
loop_
_symmetry_equiv_pos_site_id
_symmetry_equiv_pos_as_xyz
1 x,y,z
2 1/2-x,-y,1/2+z
3 1/2+x,1/2-y,-z
4 -x,1/2+y,1/2-z
5 -x,-y,-z
6 1/2+x,y,1/2-z
7 1/2-x,1/2+y,z
8 x,1/2-y,1/2+z
_cell_length_a                   13.284(3)
_cell_length_b                   14.864(2)
_cell_length_c                   27.458(3)
_cell_angle_alpha                90
_cell_angle_beta                 90
_cell_angle_gamma                90
_cell_volume                     5421.67
loop_
_atom_site_label
_atom_site_type_symbol
_atom_site_fract_x
_atom_site_fract_y
_atom_site_fract_z
Cu1 Cu 0.2183(1) 0.3178(1) 0.3617(1)
O1 O 0.3290(5) 0.4024(4) 0.3629(3)
O2 O 0.1240(5) 0.2217(4) 0.3691(3)
N1 N 0.0415(6) -0.1955(5) 0.3559(3)
N2 N 0.3113(6) 0.2304(6) 0.3295(3)
N3 N 0.0049(6) 0.2864(5) 0.4159(3)
N4 N 0.1254(6) 0.4004(5) 0.3986(3)
C1 C 0.0063(8) -0.0397(6) 0.3786(4)
C2 C 0.0629(7) 0.0517(6) 0.3796(4)
C3 C -0.0111(8) 0.1266(7) 0.3945(4)
C4 C -0.0983(7) 0.1332(6) 0.3574(4)
C5 C -0.1542(8) 0.0421(6) 0.3572(5)
C6 C -0.1939(8) 0.0190(8) 0.4073(5)
C7 C -0.1095(8) 0.0159(8) 0.4438(5)
C8 C -0.0375(9) -0.0593(7) 0.4288(4)
C9 C -0.0808(7) -0.0323(7) 0.3410(4)
C10 C -0.0531(9) 0.1062(7) 0.4456(4)
C11 C 0.0797(8) -0.1139(7) 0.3654(4)
C12 C 0.0878(9) -0.2669(8) 0.3337(4)
C13 C 0.0270(9) -0.3365(7) 0.3151(4)
C14 C 0.0713(10) -0.4053(8) 0.2912(5)
C15 C 0.1726(10) -0.4061(8) 0.2832(4)
C16 C 0.2291(9) -0.3373(7) 0.3024(4)
C17 C 0.0451(8) 0.2154(7) 0.3928(4)
C18 C 0.0356(7) 0.3773(7) 0.4167(3)
C19 C -0.0290(8) 0.4371(7) 0.4382(4)
C20 C -0.0015(9) 0.5275(7) 0.4398(4)
C21 C 0.0928(9) 0.5503(7) 0.4227(4)
C22 C 0.1524(8) 0.4871(6) 0.4029(4)
O12 O 0.1503(5) 0.3625(5) 0.2898(3)
H1 H -0.0224 -0.2045 0.3657
H2 H -0.0495 0.2735 0.4341
H3 H 0.1171 0.0486 0.4026
H4 H 0.0906 0.0647 0.3480
H5 H -0.1439 0.1803 0.3667
H6 H -0.0724 0.1462 0.3255
H7 H -0.2091 0.0442 0.3345
H8 H -0.2410 0.0645 0.4170
H9 H -0.2284 -0.0378 0.4067
H10 H -0.1357 0.0034 0.4757
H11 H -0.0731 -0.1154 0.4282
H12 H 0.0166 -0.0642 0.4518
H13 H -0.0536 -0.0184 0.3095
H14 H -0.1156 -0.0888 0.3389
H15 H 0.0000 0.1052 0.4693
H16 H -0.0997 0.1529 0.4544
H17 H -0.0446 -0.3353 0.3196
H18 H 0.0310 -0.4547 0.2798
H19 H 0.2033 -0.4537 0.2648
H20 H 0.3003 -0.3362 0.2963
H21 H -0.0914 0.4170 0.4521
H22 H -0.0458 0.5728 0.4525
H23 H 0.1157 0.6114 0.4246
H24 H 0.2172 0.5053 0.3910
O1F O 0.1710(5) -0.0976(4) 0.3629(3)
Cu1F Cu 0.2817(1) -0.1822(1) 0.3617(1)
N2F N 0.1887(6) -0.2696(6) 0.3295(3)
Cl1 Cl 0.2380(3) 0.2345(2) 0.4951(1)
O3 O 0.2963(7) 0.2100(5) 0.5370(3)
O4 O 0.1665(9) 0.2950(7) 0.5111(4)
O5 O 0.2973(8) 0.2747(7) 0.4599(4)
O6 O 0.1919(8) 0.1575(7) 0.4756(4)
Cl2 Cl 0.1292(3) 0.8785(3) 0.2112(2)
O7 O 0.2193(7) 0.8275(8) 0.2106(4)
O8 O 0.1411(9) 0.9483(8) 0.2427(5)
O9 O 0.0532(7) 0.8246(9) 0.2266(5)
O10 O 0.1054(10) 0.9097(11) 0.1670(4)
O11 O 0.6668(5) 0.2512(5) 0.3719(3)
loop_
_geom_bond_atom_site_label_1
_geom_bond_atom_site_label_2
_geom_bond_site_symmetry_1
_geom_bond_site_symmetry_2
Cu1 O1 1_555 1_555
Cl1 O3 1_555 1_555
Cl2 O7 1_555 1_555
O2 Cu1 1_555 1_555
O4 Cl1 1_555 1_555
O5 Cl1 1_555 1_555
O6 Cl1 1_555 1_555
O8 Cl2 1_555 1_555
O9 Cl2 1_555 1_555
O10 Cl2 1_555 1_555
N1 C11 1_555 1_555
N2 Cu1 1_555 1_555
N3 C17 1_555 1_555
N4 Cu1 1_555 1_555
C1 C2 1_555 1_555
C2 C3 1_555 1_555
C3 C4 1_555 1_555
C4 C5 1_555 1_555
C5 C6 1_555 1_555
C6 C7 1_555 1_555
C7 C8 1_555 1_555
C8 C1 1_555 1_555
C9 C1 1_555 1_555
C10 C3 1_555 1_555
C11 C1 1_555 1_555
C12 N1 1_555 1_555
C13 C12 1_555 1_555
C14 C13 1_555 1_555
C15 C14 1_555 1_555
C16 C15 1_555 1_555
C17 O2 1_555 1_555
C18 N3 1_555 1_555
C19 C18 1_555 1_555
C20 C19 1_555 1_555
C21 C20 1_555 1_555
C22 N4 1_555 1_555
O12 Cu1 1_555 1_555
H1 N1 1_555 1_555
H2 N3 1_555 1_555
H3 C2 1_555 1_555
H4 C2 1_555 1_555
H5 C4 1_555 1_555
H6 C4 1_555 1_555
H7 C5 1_555 1_555
H8 C6 1_555 1_555
H9 C6 1_555 1_555
H10 C7 1_555 1_555
H11 C8 1_555 1_555
H12 C8 1_555 1_555
H13 C9 1_555 1_555
H14 C9 1_555 1_555
H15 C10 1_555 1_555
H16 C10 1_555 1_555
H17 C13 1_555 1_555
H18 C14 1_555 1_555
H19 C15 1_555 1_555
H20 C16 1_555 1_555
H21 C19 1_555 1_555
H22 C20 1_555 1_555
H23 C21 1_555 1_555
H24 C22 1_555 1_555
O1F C11 1_555 1_555
Cu1F O1F 1_555 1_555
N2F C12 1_555 1_555
N4 C18 1_555 1_555
C3 C17 1_555 1_555
C5 C9 1_555 1_555
C7 C10 1_555 1_555
C16 N2F 1_555 1_555
C21 C22 1_555 1_555
Cu1F N2F 1_555 1_555

#END
