
#######################################################################
#
#                 Cambridge Crystallographic Data Centre
#                                CCDC 
#
#######################################################################
#
# If this CIF has been generated from an entry in the Cambridge 
# Structural Database, then it will include bibliographic, chemical, 
# crystal, experimental, refinement or atomic coordinate data resulting 
# from the CCDC's data processing and validation procedures.
#
#######################################################################

data_RIZZEF
_symmetry_cell_setting           monoclinic
_symmetry_space_group_name_H-M   'P 21/n'
_symmetry_Int_Tables_number      14
_space_group_name_Hall           '-P 2yn'
loop_
_symmetry_equiv_pos_site_id
_symmetry_equiv_pos_as_xyz
1 x,y,z
2 1/2-x,1/2+y,1/2-z
3 -x,-y,-z
4 1/2+x,1/2-y,1/2+z
_cell_length_a                   13.763(2)
_cell_length_b                   10.580(2)
_cell_length_c                   14.812(2)
_cell_angle_alpha                90
_cell_angle_beta                 95.94(1)
_cell_angle_gamma                90
_cell_volume                     2145.23
loop_
_atom_site_label
_atom_site_type_symbol
_atom_site_fract_x
_atom_site_fract_y
_atom_site_fract_z
Ag1 Ag 0.23301(2) 0.03453(3) 0.22774(2)
N1 N 0.3803(2) 0.0988(3) 0.2865(2)
N2 N 0.4980(2) 0.2334(3) 0.3267(2)
N3 N 0.8263(2) 0.2379(2) -0.0091(2)
N4 N 0.1967(2) -0.0757(3) 0.1011(2)
N5 N 0.1018(2) 0.0936(3) 0.3014(2)
N6 N -0.0093(3) 0.2172(3) 0.3518(2)
C1 C 0.4445(3) 0.0453(3) 0.3525(3)
C2 C 0.5174(2) 0.1265(3) 0.3781(2)
C3 C 0.4155(2) 0.2121(3) 0.2725(2)
C4 C 0.5595(3) 0.3443(3) 0.3257(2)
C5 C 0.6244(2) 0.3437(3) 0.2496(2)
C6 C 0.6326(3) 0.2411(3) 0.1935(3)
C7 C 0.6925(3) 0.2444(3) 0.1243(3)
C8 C 0.6790(3) 0.4503(3) 0.2350(3)
C9 C 0.7379(3) 0.4542(3) 0.1652(3)
C10 C 0.7462(2) 0.3509(3) 0.1091(2)
C11 C 0.8105(3) 0.3597(3) 0.0322(3)
C12 C 0.8895(3) 0.1454(4) 0.0240(2)
C13 C 0.1259(3) -0.0464(3) 0.0329(2)
C14 C 0.2238(2) -0.1919(3) 0.0842(2)
C15 C 0.0791(4) 0.0499(4) 0.3828(3)
C16 C 0.0112(4) 0.1254(5) 0.4145(4)
C17 C 0.0480(3) 0.1947(4) 0.2852(2)
C18 C -0.0761(4) 0.3245(6) 0.3595(4)
C19 C -0.0370(3) 0.4154(4) 0.4321(3)
C20 C 0.0460(4) 0.4853(4) 0.4226(3)
C21 C -0.0832(3) 0.4311(4) 0.5097(4)
H1 H 0.4386(3) -0.0355(3) 0.3761(3)
H2 H 0.5700(2) 0.1131(3) 0.4216(2)
H3 H 0.3869(2) 0.2698(3) 0.2304(2)
H4 H 0.6000(3) 0.3499(3) 0.3831(2)
H5 H 0.5183(3) 0.4189(3) 0.3200(2)
H6 H 0.5971(3) 0.1682(3) 0.2026(3)
H7 H 0.6966(3) 0.1738(3) 0.0874(3)
H8 H 0.6759(3) 0.5201(3) 0.2727(3)
H9 H 0.7727(3) 0.5276(3) 0.1556(3)
H10 H 0.7804(3) 0.4166(3) -0.0138(3)
H11 H 0.8731(3) 0.3952(3) 0.0553(3)
H12 H 0.9341(3) 0.1498(4) 0.0755(2)
H13 H 0.0931(3) 0.0305(3) 0.0266(2)
H14 H 0.2717(2) -0.2364(3) 0.1199(2)
H15 H 0.1063(4) -0.0213(4) 0.4123(3)
H16 H -0.0163(4) 0.1161(5) 0.4690(4)
H17 H 0.0491(3) 0.2450(4) 0.2339(2)
H18 H -0.1391(4) 0.2930(6) 0.3733(4)
H19 H -0.0857(4) 0.3684(6) 0.3018(4)
H20 H 0.0774(4) 0.4766(4) 0.3703(3)
H21 H -0.1396(3) 0.3855(4) 0.5169(4)
C13B C 0.8741(3) 0.0464(3) -0.0329(2)
N4B N 0.8033(2) 0.0757(3) -0.1011(2)
Ag1B Ag 0.76699(2) -0.03453(3) -0.22774(2)
N1B N 0.6197(2) -0.0988(3) -0.2865(2)
C1B C 0.5555(3) -0.0453(3) -0.3525(3)
C2B C 0.4826(2) -0.1265(3) -0.3781(2)
N2B N 0.5020(2) -0.2334(3) -0.3267(2)
C3B C 0.5845(2) -0.2121(3) -0.2725(2)
H3B H 0.6131(2) -0.2698(3) -0.2304(2)
C4B C 0.4405(3) -0.3443(3) -0.3257(2)
C5B C 0.3756(2) -0.3437(3) -0.2496(2)
C6B C 0.3674(3) -0.2411(3) -0.1935(3)
C7B C 0.3075(3) -0.2444(3) -0.1243(3)
C10B C 0.2538(2) -0.3509(3) -0.1091(2)
C9B C 0.2621(3) -0.4542(3) -0.1652(3)
C8B C 0.3210(3) -0.4503(3) -0.2350(3)
H8B H 0.3241(3) -0.5201(3) -0.2727(3)
H9B H 0.2273(3) -0.5276(3) -0.1556(3)
C11B C 0.1895(3) -0.3597(3) -0.0322(3)
N3B N 0.1737(2) -0.2379(2) 0.0091(2)
C12B C 0.1105(3) -0.1454(4) -0.0240(2)
C21B C 0.0832(3) 0.5689(4) 0.4903(4)
C19B C 0.0370(3) 0.5846(4) 0.5679(3)
C18B C 0.0761(4) 0.6755(6) 0.6405(4)
N6B N 0.0093(3) 0.7828(3) 0.6482(2)
C16B C -0.0112(4) 0.8746(5) 0.5855(4)
C15B C -0.0791(4) 0.9501(4) 0.6172(3)
N5B N -0.1018(2) 0.9064(3) 0.6986(2)
Ag1B_2 Ag -0.23301(2) 0.96547(3) 0.77226(2)
N1B_2 N -0.3803(2) 0.9012(3) 0.7135(2)
N4B_2 N -0.1967(2) 1.0757(3) 0.8989(2)
C17B C -0.0480(3) 0.8053(4) 0.7148(2)
H17B H -0.0491(3) 0.7550(4) 0.7661(2)
H15B H -0.1063(4) 1.0213(4) 0.5877(3)
H16B H 0.0163(4) 0.8839(5) 0.5310(4)
H18B H 0.1391(4) 0.7070(6) 0.6267(4)
H19B H 0.0857(4) 0.6316(6) 0.6982(4)
C20B C -0.0460(4) 0.5147(4) 0.5774(3)
H20B H -0.0774(4) 0.5234(4) 0.6297(3)
H21B H 0.1396(3) 0.6145(4) 0.4831(4)
H12B H 0.0659(3) -0.1498(4) -0.0755(2)
H10B H 0.2196(3) -0.4166(3) 0.0138(3)
H11B H 0.1269(3) -0.3952(3) -0.0553(3)
H7B H 0.3034(3) -0.1738(3) -0.0874(3)
H6B H 0.4029(3) -0.1682(3) -0.2026(3)
H4B H 0.4000(3) -0.3499(3) -0.3831(2)
H5B H 0.4817(3) -0.4189(3) -0.3200(2)
H2B H 0.4300(2) -0.1131(3) -0.4216(2)
H1B H 0.5614(3) 0.0355(3) -0.3761(3)
N5B_2 N 0.8982(2) -0.0936(3) -0.3014(2)
C14B C 0.7762(2) 0.1919(3) -0.0842(2)
H14B H 0.7283(2) 0.2364(3) -0.1199(2)
H13B H 0.9069(3) -0.0305(3) -0.0266(2)
N7 N 0.3001(3) 0.7950(3) 0.4224(2)
O1 O 0.3857(3) 0.7559(3) 0.4278(3)
O2 O 0.2595(4) 0.8142(5) 0.3471(3)
O3 O 0.2642(4) 0.8163(6) 0.4936(4)
loop_
_geom_bond_atom_site_label_1
_geom_bond_atom_site_label_2
_geom_bond_site_symmetry_1
_geom_bond_site_symmetry_2
Ag1 N1 1_555 1_555
N1 C1 1_555 1_555
N2 C2 1_555 1_555
N3 C11 1_555 1_555
N4 Ag1 1_555 1_555
N5 Ag1 1_555 1_555
N6 C16 1_555 1_555
C1 C2 1_555 1_555
C2 H2 1_555 1_555
C3 N1 1_555 1_555
C4 N2 1_555 1_555
C5 C4 1_555 1_555
C6 C5 1_555 1_555
C7 C6 1_555 1_555
C8 C5 1_555 1_555
C9 C8 1_555 1_555
C10 C7 1_555 1_555
C11 C10 1_555 1_555
C12 N3 1_555 1_555
C13 N4 1_555 1_555
C14 N4 1_555 1_555
C15 N5 1_555 1_555
C16 C15 1_555 1_555
C17 N5 1_555 1_555
C18 N6 1_555 1_555
C19 C18 1_555 1_555
C20 C19 1_555 1_555
C21 C19 1_555 1_555
N7 O1 1_555 1_555
O2 N7 1_555 1_555
O3 N7 1_555 1_555
H1 C1 1_555 1_555
H3 C3 1_555 1_555
H4 C4 1_555 1_555
H5 C4 1_555 1_555
H6 C6 1_555 1_555
H7 C7 1_555 1_555
H8 C8 1_555 1_555
H9 C9 1_555 1_555
H10 C11 1_555 1_555
H11 C11 1_555 1_555
H12 C12 1_555 1_555
H13 C13 1_555 1_555
H14 C14 1_555 1_555
H15 C15 1_555 1_555
H16 C16 1_555 1_555
H17 C17 1_555 1_555
H18 C18 1_555 1_555
H19 C18 1_555 1_555
H20 C20 1_555 1_555
H21 C21 1_555 1_555
C13B C12 1_555 1_555
N4B C13B 1_555 1_555
Ag1B N4B 1_555 1_555
N1B Ag1B 1_555 1_555
C1B N1B 1_555 1_555
C2B C1B 1_555 1_555
N2B C2B 1_555 1_555
C3B N1B 1_555 1_555
H3B C3B 1_555 1_555
C4B N2B 1_555 1_555
C5B C4B 1_555 1_555
C6B C5B 1_555 1_555
C7B C6B 1_555 1_555
C10B C7B 1_555 1_555
C9B C10B 1_555 1_555
C8B C5B 1_555 1_555
H8B C8B 1_555 1_555
H9B C9B 1_555 1_555
C11B C10B 1_555 1_555
N3B C14 1_555 1_555
C12B C13 1_555 1_555
C21B C20 1_555 1_555
C19B C21B 1_555 1_555
C18B C19B 1_555 1_555
N6B C18B 1_555 1_555
C16B N6B 1_555 1_555
C15B C16B 1_555 1_555
N5B C15B 1_555 1_555
Ag1B_2 N5B 1_555 1_555
N1B_2 Ag1B_2 1_555 1_555
N4B_2 Ag1B_2 1_555 1_555
C17B N6B 1_555 1_555
H17B C17B 1_555 1_555
H15B C15B 1_555 1_555
H16B C16B 1_555 1_555
H18B C18B 1_555 1_555
H19B C18B 1_555 1_555
C20B C21 1_555 1_555
H20B C20B 1_555 1_555
H21B C21B 1_555 1_555
H12B C12B 1_555 1_555
H10B C11B 1_555 1_555
H11B C11B 1_555 1_555
H7B C7B 1_555 1_555
H6B C6B 1_555 1_555
H4B C4B 1_555 1_555
H5B C4B 1_555 1_555
H2B C2B 1_555 1_555
H1B C1B 1_555 1_555
N5B_2 Ag1B 1_555 1_555
C14B N3 1_555 1_555
H14B C14B 1_555 1_555
H13B C13B 1_555 1_555
N2 C3 1_555 1_555
N6 C17 1_555 1_555
C9 C10 1_555 1_555
N4B C14B 1_555 1_555
N2B C3B 1_555 1_555
C9B C8B 1_555 1_555
C11B N3B 1_555 1_555
N3B C12B 1_555 1_555
C19B C20B 1_555 1_555
N5B C17B 1_555 1_555

#END
