
#######################################################################
#
#                 Cambridge Crystallographic Data Centre
#                                CCDC 
#
#######################################################################
#
# If this CIF has been generated from an entry in the Cambridge 
# Structural Database, then it will include bibliographic, chemical, 
# crystal, experimental, refinement or atomic coordinate data resulting 
# from the CCDC's data processing and validation procedures.
#
#######################################################################

data_RIZZAB
_symmetry_cell_setting           monoclinic
_symmetry_space_group_name_H-M   'C c'
_symmetry_Int_Tables_number      9
_space_group_name_Hall           'C -2yc'
loop_
_symmetry_equiv_pos_site_id
_symmetry_equiv_pos_as_xyz
1 x,y,z
2 x,-y,1/2+z
3 1/2+x,1/2+y,z
4 1/2+x,1/2-y,1/2+z
_cell_length_a                   8.7937(3)
_cell_length_b                   16.3714(5)
_cell_length_c                   7.9936(3)
_cell_angle_alpha                90
_cell_angle_beta                 93.760(2)
_cell_angle_gamma                90
_cell_volume                     1148.32
loop_
_atom_site_label
_atom_site_type_symbol
_atom_site_fract_x
_atom_site_fract_y
_atom_site_fract_z
Li1 Li 0.4098(3) 0.4327(2) -0.1386(4)
N1 N 0.3026(2) 0.3193(1) -0.1715(2)
N2 N 0.3359(2) 0.4221(1) 0.1017(2)
N3 N 0.3312(2) 0.5378(1) -0.2485(2)
C1 C 0.2810(2) 0.2713(1) -0.3068(3)
C2 C 0.1944(2) 0.2008(1) -0.3112(3)
C3 C 0.1279(2) 0.1771(1) -0.1658(3)
C4 C 0.1516(2) 0.2245(1) -0.0238(3)
C5 C 0.2376(2) 0.2963(1) -0.0298(3)
C6 C 0.2564(2) 0.3517(1) 0.1137(2)
C7 C 0.1998(2) 0.3451(1) 0.2719(3)
C8 C 0.2496(2) 0.4155(1) 0.3526(3)
O1 O 0.6200(2) 0.4141(1) -0.1864(2)
C9 C 0.6922(2) 0.4548(1) -0.2857(3)
N4 N 0.8340(2) 0.4390(1) -0.3228(2)
C10 C 0.9148(3) 0.4926(2) -0.4309(3)
C11 C 0.9174(3) 0.3688(2) -0.2536(3)
H1 H 0.3275(26) 0.2913(12) -0.4080(34)
H2 H 0.1793(23) 0.1696(13) -0.4162(30)
H3 H 0.0625(23) 0.1257(13) -0.1660(28)
H4 H 0.1045(22) 0.2085(11) 0.0859(28)
H5 H 0.1385(29) 0.3007(15) 0.3114(33)
H6 H 0.2377(25) 0.4310(13) 0.4649(36)
H7 H 0.6480(22) 0.5056(12) -0.3444(29)
H8 H 0.9418(29) 0.4586(16) -0.5234(37)
H9 H 0.8481(28) 0.5402(15) -0.4634(31)
H10 H 1.0111(34) 0.5099(16) -0.3637(38)
H11 H 1.0066(33) 0.3879(16) -0.1842(38)
H12 H 0.9513(32) 0.3355(18) -0.3541(38)
H13 H 0.8469(30) 0.3332(17) -0.1898(35)
N3A N 0.3312(2) 0.4622(1) 0.2515(2)
Li1A Li 0.4098(3) 0.5673(2) 0.3614(4)
loop_
_geom_bond_atom_site_label_1
_geom_bond_atom_site_label_2
_geom_bond_site_symmetry_1
_geom_bond_site_symmetry_2
Li1 N1 1_555 1_555
N1 C1 1_555 1_555
N2 Li1 1_555 1_555
N3 Li1 1_555 1_555
C1 C2 1_555 1_555
C2 C3 1_555 1_555
C3 C4 1_555 1_555
C4 C5 1_555 1_555
C5 N1 1_555 1_555
C6 N2 1_555 1_555
C7 C6 1_555 1_555
C8 C7 1_555 1_555
O1 Li1 1_555 1_555
C9 O1 1_555 1_555
N4 C9 1_555 1_555
C10 N4 1_555 1_555
C11 N4 1_555 1_555
H1 C1 1_555 1_555
H2 C2 1_555 1_555
H3 C3 1_555 1_555
H4 C4 1_555 1_555
H5 C7 1_555 1_555
H6 C8 1_555 1_555
H7 C9 1_555 1_555
H8 C10 1_555 1_555
H9 C10 1_555 1_555
H10 C10 1_555 1_555
H11 C11 1_555 1_555
H12 C11 1_555 1_555
H13 C11 1_555 1_555
N3A N2 1_555 1_555
Li1A N3A 1_555 1_555
C5 C6 1_555 1_555
C8 N3A 1_555 1_555

#END
