
#######################################################################
#
#                 Cambridge Crystallographic Data Centre
#                                CCDC 
#
#######################################################################
#
# If this CIF has been generated from an entry in the Cambridge 
# Structural Database, then it will include bibliographic, chemical, 
# crystal, experimental, refinement or atomic coordinate data resulting 
# from the CCDC's data processing and validation procedures.
#
#######################################################################

data_ROBBUH
_symmetry_cell_setting           triclinic
_symmetry_space_group_name_H-M   'P -1'
_symmetry_Int_Tables_number      2
_space_group_name_Hall           '-P 1'
loop_
_symmetry_equiv_pos_site_id
_symmetry_equiv_pos_as_xyz
1 x,y,z
2 -x,-y,-z
_cell_length_a                   13.72120(10)
_cell_length_b                   16.5853(2)
_cell_length_c                   21.4884(2)
_cell_angle_alpha                97.9140(10)
_cell_angle_beta                 99.6870(10)
_cell_angle_gamma                91.2710(10)
_cell_volume                     4769.33
loop_
_atom_site_label
_atom_site_type_symbol
_atom_site_fract_x
_atom_site_fract_y
_atom_site_fract_z
C1 C -0.3819(5) 1.3760(4) 0.4479(3)
H1 H -0.4241 1.3802 0.4087
C2 C -0.4240(5) 1.3642(4) 0.5001(3)
H2 H -0.4938 1.3631 0.4973
C3 C -0.3636(5) 1.3539(4) 0.5565(3)
H3 H -0.3911 1.3439 0.5926
C4 C -0.2621(5) 1.3585(4) 0.5592(3)
H4 H -0.2187 1.3514 0.5973
C5 C -0.2245(4) 1.3735(4) 0.5058(3)
C6 C -0.1179(5) 1.3794(4) 0.5077(3)
H5 H -0.0741 1.3681 0.5444
C7 C 0.0800(5) 1.3722(6) 0.5146(3)
H6 H 0.1481 1.3701 0.5063
H7 H 0.0562 1.3175 0.5192
H8 H 0.0783 1.4094 0.5540
C8 C 0.0529(4) 1.4230(4) 0.4103(3)
C9 C 0.1538(4) 1.4259(4) 0.4079(3)
H9 H 0.2013 1.4124 0.4420
C10 C 0.1821(4) 1.4494(4) 0.3536(3)
C11 C 0.0210(5) 1.4636(4) 0.3121(3)
H10 H -0.0265 1.4771 0.2779
C12 C 0.3588(4) 1.4375(4) 0.3975(3)
H11 H 0.3772 1.3809 0.3882
H12 H 0.3355 1.4455 0.4385
H13 H 0.4167 1.4742 0.3997
C13 C 0.3894(5) 1.4718(4) 0.2795(3)
H14 H 0.4403 1.4541 0.3096
C14 C 0.4134(4) 1.4951(4) 0.2207(3)
C15 C 0.5103(5) 1.4920(4) 0.2105(3)
H15 H 0.5604 1.4743 0.2411
C16 C 0.5329(5) 1.5149(5) 0.1550(4)
H16 H 0.5987 1.5127 0.1467
C17 C 0.4582(5) 1.5412(4) 0.1116(4)
H17 H 0.4720 1.5582 0.0734
C18 C 0.3621(5) 1.5422(4) 0.1251(3)
C19 C 0.2808(5) 1.5715(4) 0.0812(3)
H18 H 0.2941 1.5940 0.0450
C20 C 0.1379(6) 1.6461(5) 0.0076(4)
H19 H 0.1854 1.6908 0.0281
H20 H 0.0763 1.6685 -0.0116
H21 H 0.1658 1.6125 -0.0256
C21 C 0.0214(5) 1.5810(4) 0.0656(3)
C22 C -0.0615(6) 1.6017(5) 0.0261(4)
H22 H -0.0551 1.6276 -0.0099
C23 C -0.1542(6) 1.5843(5) 0.0397(4)
H23 H -0.2119 1.5986 0.0132
C24 C -0.1626(6) 1.5466(5) 0.0911(4)
H24 H -0.2255 1.5341 0.1012
C25 C -0.0771(5) 1.5275(5) 0.1277(4)
H25 H -0.0823 1.5014 0.1637
C26 C 0.0087(5) 1.1979(5) 0.3280(4)
C27 C 0.1696(5) 1.2598(5) 0.1870(3)
C28 C -0.3530(6) 1.6827(6) 0.3738(4)
C29 C -0.5364(5) 1.2484(5) 0.2681(4)
C30 C 0.3441(4) 0.8651(4) 0.4155(3)
H26 H 0.3659 0.8665 0.3760
C31 C 0.4131(5) 0.8546(4) 0.4676(3)
H27 H 0.4809 0.8506 0.4640
C32 C 0.3832(5) 0.8498(4) 0.5248(3)
H28 H 0.4295 0.8415 0.5613
C33 C 0.2841(5) 0.8574(4) 0.5280(3)
H29 H 0.2612 0.8537 0.5669
C34 C 0.2188(4) 0.8701(4) 0.4749(3)
C35 C 0.1144(4) 0.8808(4) 0.4777(3)
H30 H 0.0899 0.8724 0.5152
C36 C -0.0790(5) 0.8879(5) 0.4906(3)
H31 H -0.0688 0.8302 0.4933
H32 H -0.1498 0.8978 0.4865
H33 H -0.0432 0.9212 0.5292
C37 C -0.1057(4) 0.9291(4) 0.3825(3)
C38 C -0.2065(4) 0.9359(4) 0.3823(3)
H34 H -0.2351 0.9272 0.4183
C39 C -0.2645(4) 0.9563(4) 0.3267(3)
C40 C -0.1278(4) 0.9600(4) 0.2817(3)
H35 H -0.0994 0.9695 0.2458
C41 C -0.4165(5) 0.9547(5) 0.3760(3)
H36 H -0.4678 0.9946 0.3783
H37 H -0.3691 0.9624 0.4161
H38 H -0.4471 0.8995 0.3688
C42 C -0.5101(4) 0.9861(4) 0.2590(3)
H39 H -0.5452 0.9720 0.2908
C43 C -0.5638(4) 1.0107(4) 0.2000(3)
C44 C -0.6676(5) 1.0072(4) 0.1902(4)
H40 H -0.7025 0.9870 0.2199
C45 C -0.7181(5) 1.0343(5) 0.1355(4)
H41 H -0.7884 1.0329 0.1272
C46 C -0.6652(5) 1.0628(4) 0.0938(3)
H42 H -0.6983 1.0828 0.0569
C47 C -0.5607(5) 1.0622(4) 0.1063(3)
C48 C -0.5048(5) 1.0892(4) 0.0596(3)
H43 H -0.5378 1.1098 0.0229
C49 C -0.4033(6) 1.1411(5) -0.0296(3)
H44 H -0.4508 1.1009 -0.0571
H45 H -0.3528 1.1567 -0.0535
H46 H -0.4380 1.1895 -0.0155
C50 C -0.2534(5) 1.0963(4) 0.0390(3)
C51 C -0.1913(6) 1.1142(5) -0.0026(4)
H47 H -0.2172 1.1339 -0.0412
C52 C -0.0923(6) 1.1030(6) 0.0130(4)
H48 H -0.0488 1.1153 -0.0148
C53 C -0.0553(5) 1.0738(5) 0.0690(4)
H49 H 0.0131 1.0646 0.0804
C54 C -0.1213(5) 1.0586(6) 0.1073(4)
H50 H -0.0967 1.0398 0.1465
C55 C 0.2996(5) 1.1870(4) 0.4180(3)
C56 C -0.1175(7) 0.6983(6) 0.2770(5)
C57 C 0.3998(6) 0.7621(5) 0.2273(4)
C58 C -0.3481(6) 0.7658(5) 0.1347(4)
F1 F 0.0431(3) 1.1308(3) 0.3000(2)
F2 F 0.0581(3) 1.2156(3) 0.3874(2)
F3 F 0.0265(4) 1.2589(3) 0.2971(3)
F4 F 0.2431(3) 1.2398(3) 0.1548(2)
F5 F 0.2100(3) 1.2901(3) 0.2458(2)
F6 F 0.1187(4) 1.1914(3) 0.1877(2)
F7 F -0.4245(5) 1.7255(4) 0.3953(4)
F8 F -0.3664(4) 1.6757(4) 0.3119(3)
F9 F -0.2695(5) 1.7270(3) 0.3962(3)
F10 F -0.5535(4) 1.2760(4) 0.3260(3)
F11 F -0.5686(3) 1.3024(3) 0.2304(3)
F12 F -0.5895(3) 1.1793(3) 0.2484(3)
F13 F 0.2465(3) 1.2233(3) 0.4578(2)
F14 F 0.2671(3) 1.2064(3) 0.3602(2)
F15 F 0.3938(3) 1.2175(3) 0.4352(3)
F16 F -0.1647(4) 0.7593(4) 0.2936(4)
F17 F -0.1226(6) 0.6923(6) 0.2135(3)
F18 F -0.1571(4) 0.6305(3) 0.2885(4)
F19 F 0.4376(3) 0.6927(3) 0.2078(3)
F20 F 0.4617(3) 0.8019(3) 0.2755(3)
F21 F 0.3976(5) 0.8087(4) 0.1796(3)
F22 F -0.3468(4) 0.7819(4) 0.1966(2)
F23 F -0.2959(4) 0.7023(3) 0.1229(3)
F24 F -0.4416(4) 0.7475(3) 0.1060(3)
N1 N -0.2844(4) 1.3819(3) 0.4504(3)
N2 N -0.0834(3) 1.3997(3) 0.4606(2)
N3 N 0.0172(4) 1.4009(3) 0.4619(3)
N4 N 0.1144(4) 1.4682(3) 0.3046(2)
N5 N -0.0148(4) 1.4424(3) 0.3618(2)
N6 N 0.2804(3) 1.4551(3) 0.3474(2)
N7 N 0.3008(4) 1.4749(3) 0.2913(2)
N8 N 0.3409(4) 1.5204(3) 0.1792(3)
N9 N 0.1930(4) 1.5666(3) 0.0920(3)
N10 N 0.1177(4) 1.5974(4) 0.0542(3)
N11 N 0.0145(4) 1.5435(4) 0.1157(3)
N12 N 0.2480(4) 0.8734(3) 0.4174(3)
N13 N 0.0553(4) 0.9012(3) 0.4304(2)
N14 N -0.0424(3) 0.9098(3) 0.4351(2)
N15 N -0.2245(4) 0.9675(3) 0.2757(2)
N16 N -0.0647(4) 0.9412(3) 0.3312(2)
N17 N -0.3650(4) 0.9658(3) 0.3233(2)
N18 N -0.4149(4) 0.9837(3) 0.2672(2)
N19 N -0.5117(4) 1.0371(3) 0.1591(3)
N20 N -0.4090(4) 1.0839(3) 0.0698(3)
N21 N -0.3562(4) 1.1059(4) 0.0259(3)
N22 N -0.2190(4) 1.0687(4) 0.0932(3)
O1 O -0.1455(4) 1.2646(3) 0.3594(3)
O2 O -0.1664(4) 1.1648(3) 0.2630(2)
O3 O -0.1287(4) 1.1225(3) 0.3681(2)
O4 O 0.1633(4) 1.4008(3) 0.1494(3)
O5 O 0.0594(4) 1.2886(3) 0.0845(2)
O6 O 0.0175(4) 1.3508(3) 0.1848(3)
O7 O -0.2682(5) 1.5487(4) 0.3765(3)
O8 O -0.3300(4) 1.6051(3) 0.4701(2)
O9 O -0.4429(5) 1.5470(5) 0.3761(3)
O10 O -0.3647(3) 1.3158(3) 0.2956(2)
O11 O -0.3812(4) 1.1731(4) 0.3091(3)
O12 O -0.3985(4) 1.2119(3) 0.2040(3)
O13 O 0.3568(4) 1.0459(4) 0.3735(3)
O14 O 0.3317(4) 1.0704(3) 0.4834(2)
O15 O 0.1926(3) 1.0546(3) 0.3983(2)
O16 O 0.0476(4) 0.7816(3) 0.2938(3)
O17 O 0.0084(6) 0.7196(5) 0.3820(3)
O18 O 0.0507(6) 0.6368(4) 0.2863(6)
O19 O 0.2548(4) 0.8337(3) 0.2652(2)
O20 O 0.2180(4) 0.7107(4) 0.1893(3)
O21 O 0.2946(6) 0.6974(5) 0.2949(4)
O22 O -0.3670(3) 0.9164(3) 0.1224(2)
O23 O -0.3123(4) 0.8284(3) 0.0372(2)
O24 O -0.1997(3) 0.8684(4) 0.1377(2)
Pb1 Pb -0.20490(2) 1.40287(2) 0.35383(2)
Pb2 Pb 0.16901(2) 1.54199(2) 0.20763(2)
Pb3 Pb 0.12385(2) 0.91920(2) 0.32901(2)
Pb4 Pb -0.32499(2) 1.05313(2) 0.18666(2)
S1 S -0.12289(11) 1.18510(10) 0.32893(8)
S2 S 0.09289(12) 1.33253(10) 0.14742(8)
S3 S -0.34864(12) 1.58470(11) 0.40235(8)
S4 S -0.40496(12) 1.23510(11) 0.26972(9)
S5 S 0.29654(11) 1.07714(10) 0.41823(8)
S6 S 0.01351(13) 0.70768(12) 0.31321(10)
S7 S 0.27676(14) 0.74984(13) 0.24477(11)
S8 S -0.29998(12) 0.85443(11) 0.10485(8)
O18_2 O 0.0507(6) 1.6368(4) 0.2863(6)
Pb2_2 Pb 0.16901(2) 0.54199(2) 0.20763(2)
C59 C -0.2132(6) 1.3573(5) 0.1813(4)
C60 C -0.2079(7) 1.2792(5) 0.1408(4)
H51 H -0.2077 1.2347 0.1664
H52 H -0.1471 1.2794 0.1225
H53 H -0.2654 1.2714 0.1063
N23 N -0.2179(6) 1.4165(5) 0.2135(3)
C61 C 0.5237(9) 1.3396(6) 0.0544(4)
C62 C 0.4383(9) 1.3118(7) 0.0796(5)
H54 H 0.4599 1.2759 0.1114
H55 H 0.3902 1.2819 0.0447
H56 H 0.4074 1.3590 0.0996
N24 N 0.5913(8) 1.3633(6) 0.0367(4)
C63 C 0.0406(6) 0.8739(6) 0.1585(4)
C64 C 0.0099(6) 0.7919(5) 0.1267(4)
H57 H 0.0653 0.7560 0.1336
H58 H -0.0105 0.7929 0.0809
H59 H -0.0458 0.7715 0.1443
N25 N 0.0635(6) 0.9371(5) 0.1834(4)
O25 O 0.1287(9) 1.1519(8) 0.0104(6)
loop_
_geom_bond_atom_site_label_1
_geom_bond_atom_site_label_2
_geom_bond_site_symmetry_1
_geom_bond_site_symmetry_2
C1 H1 1_555 1_555
C2 C1 1_555 1_555
H2 C2 1_555 1_555
C3 C2 1_555 1_555
H3 C3 1_555 1_555
C4 C3 1_555 1_555
H4 C4 1_555 1_555
C5 C4 1_555 1_555
C6 C5 1_555 1_555
H5 C6 1_555 1_555
C7 H6 1_555 1_555
H7 C7 1_555 1_555
H8 C7 1_555 1_555
C8 C9 1_555 1_555
C9 H9 1_555 1_555
C10 C9 1_555 1_555
C11 H10 1_555 1_555
C12 H11 1_555 1_555
H12 C12 1_555 1_555
H13 C12 1_555 1_555
C13 H14 1_555 1_555
C14 C13 1_555 1_555
C15 C14 1_555 1_555
H15 C15 1_555 1_555
C16 C15 1_555 1_555
H16 C16 1_555 1_555
C17 C16 1_555 1_555
H17 C17 1_555 1_555
C18 C17 1_555 1_555
C19 C18 1_555 1_555
H18 C19 1_555 1_555
C20 H19 1_555 1_555
H20 C20 1_555 1_555
H21 C20 1_555 1_555
C21 C22 1_555 1_555
C22 H22 1_555 1_555
C23 C22 1_555 1_555
H23 C23 1_555 1_555
C24 C23 1_555 1_555
H24 C24 1_555 1_555
C25 C24 1_555 1_555
H25 C25 1_555 1_555
C26 F1 1_555 1_555
C27 F4 1_555 1_555
C28 F7 1_555 1_555
C29 F10 1_555 1_555
C30 H26 1_555 1_555
C31 C30 1_555 1_555
H27 C31 1_555 1_555
C32 C31 1_555 1_555
H28 C32 1_555 1_555
C33 C32 1_555 1_555
H29 C33 1_555 1_555
C34 C33 1_555 1_555
C35 C34 1_555 1_555
H30 C35 1_555 1_555
C36 H31 1_555 1_555
H32 C36 1_555 1_555
H33 C36 1_555 1_555
C37 C38 1_555 1_555
C38 H34 1_555 1_555
C39 C38 1_555 1_555
C40 H35 1_555 1_555
C41 H36 1_555 1_555
H37 C41 1_555 1_555
H38 C41 1_555 1_555
C42 H39 1_555 1_555
C43 C42 1_555 1_555
C44 C43 1_555 1_555
H40 C44 1_555 1_555
C45 C44 1_555 1_555
H41 C45 1_555 1_555
C46 C45 1_555 1_555
H42 C46 1_555 1_555
C47 C46 1_555 1_555
C48 C47 1_555 1_555
H43 C48 1_555 1_555
C49 H44 1_555 1_555
H45 C49 1_555 1_555
H46 C49 1_555 1_555
C50 C51 1_555 1_555
C51 H47 1_555 1_555
C52 C51 1_555 1_555
H48 C52 1_555 1_555
C53 C52 1_555 1_555
H49 C53 1_555 1_555
C54 C53 1_555 1_555
H50 C54 1_555 1_555
C55 F13 1_555 1_555
C56 F16 1_555 1_555
C57 F19 1_555 1_555
C58 F22 1_555 1_555
F2 C26 1_555 1_555
F3 C26 1_555 1_555
F5 C27 1_555 1_555
F6 C27 1_555 1_555
F8 C28 1_555 1_555
F9 C28 1_555 1_555
F11 C29 1_555 1_555
F12 C29 1_555 1_555
F14 C55 1_555 1_555
F15 C55 1_555 1_555
F17 C56 1_555 1_555
F18 C56 1_555 1_555
F20 C57 1_555 1_555
F21 C57 1_555 1_555
F23 C58 1_555 1_555
F24 C58 1_555 1_555
N1 C1 1_555 1_555
N2 C6 1_555 1_555
N3 C7 1_555 1_555
N4 C10 1_555 1_555
N5 C8 1_555 1_555
N6 C10 1_555 1_555
N7 C13 1_555 1_555
N8 C14 1_555 1_555
N9 C19 1_555 1_555
N10 C20 1_555 1_555
N11 C21 1_555 1_555
N12 C30 1_555 1_555
N13 C35 1_555 1_555
N14 C36 1_555 1_555
N15 C39 1_555 1_555
N16 C37 1_555 1_555
N17 C39 1_555 1_555
N18 C42 1_555 1_555
N19 C43 1_555 1_555
N20 C48 1_555 1_555
N21 C49 1_555 1_555
N22 C50 1_555 1_555
O1 Pb1 1_555 1_555
O2 S1 1_555 1_555
O3 S1 1_555 1_555
O4 Pb2 1_555 1_555
O5 S2 1_555 1_555
O6 S2 1_555 1_555
O7 Pb1 1_555 1_555
O8 S3 1_555 1_555
O9 S3 1_555 1_555
O10 Pb1 1_555 1_555
O11 S4 1_555 1_555
O12 Pb4 1_555 1_555
O13 S5 1_555 1_555
O14 S5 1_555 1_555
O15 Pb3 1_555 1_555
O16 Pb3 1_555 1_555
O17 S6 1_555 1_555
O18 S6 1_555 1_555
O19 Pb3 1_555 1_555
O20 S7 1_555 1_555
O21 S7 1_555 1_555
O22 Pb4 1_555 1_555
O23 S8 1_555 1_555
O24 S8 1_555 1_555
Pb1 N1 1_555 1_555
Pb2 N4 1_555 1_555
Pb3 N12 1_555 1_555
Pb4 N15 1_555 1_555
S1 C26 1_555 1_555
S2 C27 1_555 1_555
S3 C28 1_555 1_555
S4 C29 1_555 1_555
S5 C55 1_555 1_555
S6 C56 1_555 1_555
S7 C57 1_555 1_555
S8 C58 1_555 1_555
C59 C60 1_555 1_555
C60 H51 1_555 1_555
H52 C60 1_555 1_555
H53 C60 1_555 1_555
N23 C59 1_555 1_555
C61 C62 1_555 1_555
C62 H54 1_555 1_555
H55 C62 1_555 1_555
H56 C62 1_555 1_555
N24 C61 1_555 1_555
C63 C64 1_555 1_555
C64 H57 1_555 1_555
H58 C64 1_555 1_555
H59 C64 1_555 1_555
N25 C63 1_555 1_555
O18_2 Pb2 1_555 1_555
Pb2_2 O18 1_555 1_555
C5 N1 1_555 1_555
C8 N3 1_555 1_555
C11 N4 1_555 1_555
C11 N5 1_555 1_555
C12 N6 1_555 1_555
C18 N8 1_555 1_555
C21 N10 1_555 1_555
C25 N11 1_555 1_555
C34 N12 1_555 1_555
C37 N14 1_555 1_555
C40 N15 1_555 1_555
C40 N16 1_555 1_555
C41 N17 1_555 1_555
C47 N19 1_555 1_555
C50 N21 1_555 1_555
C54 N22 1_555 1_555
N2 N3 1_555 1_555
N2 Pb1 1_555 1_555
N5 Pb1 1_555 1_555
N6 N7 1_555 1_555
N7 Pb2 1_555 1_555
N8 Pb2 1_555 1_555
N9 N10 1_555 1_555
N9 Pb2 1_555 1_555
N11 Pb2 1_555 1_555
N13 N14 1_555 1_555
N13 Pb3 1_555 1_555
N16 Pb3 1_555 1_555
N17 N18 1_555 1_555
N18 Pb4 1_555 1_555
N19 Pb4 1_555 1_555
N20 N21 1_555 1_555
N20 Pb4 1_555 1_555
N22 Pb4 1_555 1_555
O1 S1 1_555 1_555
O4 S2 1_555 1_555
O7 S3 1_555 1_555
O10 S4 1_555 1_555
O12 S4 1_555 1_555
O15 S5 1_555 1_555
O16 S6 1_555 1_555
O19 S7 1_555 1_555
O22 S8 1_555 1_555

#END
