
#######################################################################
#
#                 Cambridge Crystallographic Data Centre
#                                CCDC 
#
#######################################################################
#
# If this CIF has been generated from an entry in the Cambridge 
# Structural Database, then it will include bibliographic, chemical, 
# crystal, experimental, refinement or atomic coordinate data resulting 
# from the CCDC's data processing and validation procedures.
#
#######################################################################

data_ROBVUA
_symmetry_cell_setting           monoclinic
_symmetry_space_group_name_H-M   'P 21'
_symmetry_Int_Tables_number      4
_space_group_name_Hall           'P 2yb'
loop_
_symmetry_equiv_pos_site_id
_symmetry_equiv_pos_as_xyz
1 x,y,z
2 -x,1/2+y,-z
_cell_length_a                   7.0561(8)
_cell_length_b                   18.544(2)
_cell_length_c                   10.9438(13)
_cell_angle_alpha                90
_cell_angle_beta                 101.060(2)
_cell_angle_gamma                90
_cell_volume                     1405.38
loop_
_atom_site_label
_atom_site_type_symbol
_atom_site_fract_x
_atom_site_fract_y
_atom_site_fract_z
Hg1 Hg 1.28000(7) 0.01776(3) 0.44220(5)
I1 I 1.12274(15) -0.01817(5) 0.63350(9)
I2 I 1.59123(12) 0.03535(5) 0.34278(10)
N1 N 1.3896(15) -0.1315(5) -0.0018(10)
N2 N 1.5006(17) -0.2203(6) -0.1290(12)
N3 N 1.1306(15) -0.0769(6) 0.2934(11)
N4 N 1.7027(14) 0.1977(5) -0.4290(9)
N5 N 1.4469(17) 0.2714(6) -0.3923(12)
N6 N 2.1415(15) 0.1375(5) -0.6043(10)
S1 S 1.6610(6) -0.09431(18) -0.1265(4)
S2 S 1.4779(5) 0.1505(2) -0.2738(4)
C1 C 1.4966(19) -0.1558(7) -0.0784(13)
C2 C 1.378(2) -0.2677(7) -0.0936(16)
H1 H 1.3749 -0.3146 -0.1241
C3 C 1.260(2) -0.2501(7) -0.0163(14)
H2 H 1.1735 -0.2838 0.0048
C4 C 1.2677(18) -0.1805(7) 0.0320(12)
C5 C 1.1529(17) -0.1576(7) 0.1239(11)
C6 C 0.983(2) -0.1901(7) 0.1387(14)
H3 H 0.9318 -0.2277 0.0865
C7 C 0.8915(19) -0.1670(8) 0.2296(15)
H4 H 0.7762 -0.1884 0.2393
C8 C 0.9694(19) -0.1115(8) 0.3080(14)
H5 H 0.9083 -0.0978 0.3725
C9 C 1.2191(18) -0.1022(7) 0.2035(12)
H6 H 1.3344 -0.0804 0.1948
C10 C 1.621(2) -0.0105(6) -0.0479(12)
H7 H 1.5033 0.0127 -0.0902
H8 H 1.6095 -0.0201 0.0375
C11 C 1.7923(16) 0.0366(6) -0.0515(12)
C12 C 1.938(2) 0.0388(8) 0.0495(14)
H9 H 1.9256 0.0140 0.1214
C13 C 2.107(2) 0.0781(9) 0.0462(15)
H10 H 2.2075 0.0790 0.1149
C14 C 2.121(2) 0.1148(7) -0.0596(16)
H11 H 2.2330 0.1403 -0.0631
C15 C 1.9738(19) 0.1149(6) -0.1601(14)
H12 H 1.9864 0.1408 -0.2309
C16 C 1.8049(17) 0.0768(6) -0.1580(11)
C17 C 1.6486(17) 0.0763(7) -0.2701(12)
H13 H 1.5790 0.0310 -0.2730
H14 H 1.7060 0.0788 -0.3438
C18 C 1.5546(18) 0.2126(7) -0.3761(12)
C19 C 1.487(2) 0.3161(7) -0.4733(16)
H15 H 1.4144 0.3583 -0.4865
C20 C 1.6327(19) 0.3057(7) -0.5443(15)
H16 H 1.6528 0.3372 -0.6067
C21 C 1.7435(18) 0.2438(6) -0.5116(13)
C22 C 1.9072(18) 0.2261(7) -0.5710(12)
C23 C 1.981(2) 0.2714(7) -0.6505(14)
H17 H 1.9263 0.3166 -0.6695
C24 C 2.131(2) 0.2506(7) -0.7003(15)
H18 H 2.1847 0.2823 -0.7502
C25 C 2.2049(19) 0.1840(8) -0.6784(14)
H19 H 2.3053 0.1701 -0.7172
C26 C 1.9940(18) 0.1587(6) -0.5523(12)
H20 H 1.9466 0.1263 -0.5006
Hg1_2 Hg 2.28000(7) 0.01776(3) -0.55780(5)
N6_2 N 1.1415(15) 0.1375(5) 0.3957(10)
loop_
_geom_bond_atom_site_label_1
_geom_bond_atom_site_label_2
_geom_bond_site_symmetry_1
_geom_bond_site_symmetry_2
Hg1 I1 1_555 1_555
I2 Hg1 1_555 1_555
N1 C1 1_555 1_555
N2 C1 1_555 1_555
N3 Hg1 1_555 1_555
N4 C18 1_555 1_555
N5 C18 1_555 1_555
N6 C25 1_555 1_555
S1 C1 1_555 1_555
S2 C17 1_555 1_555
C2 N2 1_555 1_555
H1 C2 1_555 1_555
C3 C2 1_555 1_555
H2 C3 1_555 1_555
C4 N1 1_555 1_555
C5 C4 1_555 1_555
C6 C5 1_555 1_555
H3 C6 1_555 1_555
C7 C6 1_555 1_555
H4 C7 1_555 1_555
C8 N3 1_555 1_555
H5 C8 1_555 1_555
C9 N3 1_555 1_555
H6 C9 1_555 1_555
C10 S1 1_555 1_555
H7 C10 1_555 1_555
H8 C10 1_555 1_555
C11 C10 1_555 1_555
C12 C11 1_555 1_555
H9 C12 1_555 1_555
C13 C12 1_555 1_555
H10 C13 1_555 1_555
C14 C13 1_555 1_555
H11 C14 1_555 1_555
C15 C14 1_555 1_555
H12 C15 1_555 1_555
C16 C11 1_555 1_555
C17 C16 1_555 1_555
H13 C17 1_555 1_555
H14 C17 1_555 1_555
C18 S2 1_555 1_555
C19 N5 1_555 1_555
H15 C19 1_555 1_555
C20 C19 1_555 1_555
H16 C20 1_555 1_555
C21 N4 1_555 1_555
C22 C21 1_555 1_555
C23 C22 1_555 1_555
H17 C23 1_555 1_555
C24 C23 1_555 1_555
H18 C24 1_555 1_555
C25 C24 1_555 1_555
H19 C25 1_555 1_555
C26 N6 1_555 1_555
H20 C26 1_555 1_555
Hg1_2 N6 1_555 1_555
N6_2 Hg1 1_555 1_555
C3 C4 1_555 1_555
C5 C9 1_555 1_555
C7 C8 1_555 1_555
C15 C16 1_555 1_555
C20 C21 1_555 1_555
C22 C26 1_555 1_555

#END
