
#######################################################################
#
#                 Cambridge Crystallographic Data Centre
#                                CCDC 
#
#######################################################################
#
# If this CIF has been generated from an entry in the Cambridge 
# Structural Database, then it will include bibliographic, chemical, 
# crystal, experimental, refinement or atomic coordinate data resulting 
# from the CCDC's data processing and validation procedures.
#
#######################################################################

data_ROBVIO
_symmetry_cell_setting           monoclinic
_symmetry_space_group_name_H-M   'P 21/n'
_symmetry_Int_Tables_number      14
_space_group_name_Hall           '-P 2yn'
loop_
_symmetry_equiv_pos_site_id
_symmetry_equiv_pos_as_xyz
1 x,y,z
2 1/2-x,1/2+y,1/2-z
3 -x,-y,-z
4 1/2+x,1/2-y,1/2+z
_cell_length_a                   11.7922(12)
_cell_length_b                   17.7635(18)
_cell_length_c                   13.1806(14)
_cell_angle_alpha                90
_cell_angle_beta                 95.546(2)
_cell_angle_gamma                90
_cell_volume                     2748.03
loop_
_atom_site_label
_atom_site_type_symbol
_atom_site_fract_x
_atom_site_fract_y
_atom_site_fract_z
Ag1 Ag 0.51649(4) -0.00941(3) 0.86609(3)
Ag2 Ag 0.11083(4) 0.49242(3) 0.88742(3)
C1 C 0.3517(6) 0.4110(3) 0.9061(4)
C2 C 0.2160(5) 0.3297(3) 0.9481(5)
H1 H 0.1416 0.3190 0.9613
C3 C 0.2951(5) 0.2721(4) 0.9579(5)
H2 H 0.2764 0.2241 0.9791
C4 C 0.4034(5) 0.2900(3) 0.9342(4)
C5 C 0.4962(5) 0.2347(3) 0.9339(4)
C6 C 0.6087(5) 0.2590(3) 0.9392(4)
H3 H 0.6266 0.3097 0.9482
C7 C 0.6922(6) 0.2069(3) 0.9308(5)
H4 H 0.7680 0.2219 0.9349
C8 C 0.6650(6) 0.1327(4) 0.9165(5)
H5 H 0.7234 0.0981 0.9119
C9 C 0.4749(5) 0.1586(3) 0.9190(5)
H6 H 0.3999 0.1420 0.9160
C10 C 0.5131(5) 0.4938(4) 0.8132(5)
H7 H 0.5789 0.4880 0.8627
H8 H 0.5079 0.4501 0.7688
C11 C 0.5225(5) 0.5642(3) 0.7526(5)
C12 C 0.5834(5) 0.6250(4) 0.7962(5)
H9 H 0.6194 0.6201 0.8619
C13 C 0.5923(5) 0.6927(3) 0.7449(4)
H10 H 0.6349 0.7322 0.7752
C14 C 0.5386(5) 0.7004(3) 0.6509(4)
H11 H 0.5424 0.7459 0.6166
C15 C 0.4777(5) 0.6411(3) 0.6047(4)
H12 H 0.4425 0.6473 0.5390
C16 C 0.4677(5) 0.5730(3) 0.6531(4)
C17 C 0.4040(4) 0.5106(3) 0.5983(4)
H13 H 0.4372 0.4629 0.6214
H14 H 0.4115 0.5150 0.5259
C18 C 0.2275(5) 0.4165(3) 0.6504(5)
C19 C 0.0928(5) 0.3330(3) 0.6893(5)
H15 H 0.0187 0.3208 0.7017
C20 C 0.1721(5) 0.2787(4) 0.6961(5)
H16 H 0.1537 0.2301 0.7151
C21 C 0.2808(5) 0.2957(4) 0.6747(5)
C22 C 0.3731(5) 0.2382(3) 0.6712(4)
C23 C 0.4848(5) 0.2622(3) 0.6756(5)
H17 H 0.5035 0.3130 0.6815
C24 C 0.5671(5) 0.2079(3) 0.6709(5)
H18 H 0.6434 0.2220 0.6747
C25 C 0.5392(6) 0.1345(3) 0.6609(5)
H19 H 0.5968 0.0992 0.6573
C26 C 0.3487(5) 0.1636(3) 0.6620(5)
H20 H 0.2730 0.1485 0.6597
N1 N 0.2410(4) 0.4010(3) 0.9204(4)
N2 N 0.4309(4) 0.3600(3) 0.9100(4)
N3 N 0.5565(4) 0.1079(3) 0.9088(4)
N4 N 0.3094(4) 0.3659(2) 0.6538(3)
N5 N 0.1166(5) 0.4049(3) 0.6652(4)
N6 N 0.4293(5) 0.1107(3) 0.6559(5)
N7 N 0.7421(5) -0.0895(3) 0.8613(4)
N8 N -0.1218(5) 0.4148(3) 0.9007(4)
O1 O 0.6586(4) -0.1210(2) 0.8927(3)
O2 O 0.7282(4) -0.0264(3) 0.8264(3)
O3 O 0.8342(4) -0.1193(3) 0.8684(3)
O4 O -0.0351(4) 0.3908(3) 0.8677(3)
O5 O -0.1255(4) 0.4806(2) 0.9199(3)
O6 O -0.1971(4) 0.3720(3) 0.9125(3)
S1 S 0.38245(15) 0.50435(10) 0.87744(14)
S2 S 0.25315(12) 0.51130(8) 0.61882(11)
Ag1A Ag -0.01649(4) 0.49059(3) 0.63391(3)
Ag2A Ag 0.38917(4) -0.00758(3) 0.61258(3)
Ag2B Ag -0.11083(4) 0.50758(3) 1.11258(3)
N5A N 0.3834(5) -0.0951(3) 0.8348(4)
N6A N 0.0707(5) 0.6107(3) 0.8441(5)
O5B O 0.1255(4) 0.5194(2) 1.0801(3)
loop_
_geom_bond_atom_site_label_1
_geom_bond_atom_site_label_2
_geom_bond_site_symmetry_1
_geom_bond_site_symmetry_2
Ag1 N3 1_555 1_555
Ag2 N1 1_555 1_555
C1 N1 1_555 1_555
C2 H1 1_555 1_555
C3 C2 1_555 1_555
H2 C3 1_555 1_555
C4 C3 1_555 1_555
C5 C4 1_555 1_555
C6 C5 1_555 1_555
H3 C6 1_555 1_555
C7 C6 1_555 1_555
H4 C7 1_555 1_555
C8 C7 1_555 1_555
H5 C8 1_555 1_555
C9 C5 1_555 1_555
H6 C9 1_555 1_555
C10 H7 1_555 1_555
H8 C10 1_555 1_555
C11 C10 1_555 1_555
C12 C11 1_555 1_555
H9 C12 1_555 1_555
C13 C12 1_555 1_555
H10 C13 1_555 1_555
C14 C13 1_555 1_555
H11 C14 1_555 1_555
C15 C14 1_555 1_555
H12 C15 1_555 1_555
C16 C11 1_555 1_555
C17 C16 1_555 1_555
H13 C17 1_555 1_555
H14 C17 1_555 1_555
C18 N4 1_555 1_555
C19 H15 1_555 1_555
C20 C19 1_555 1_555
H16 C20 1_555 1_555
C21 C20 1_555 1_555
C22 C21 1_555 1_555
C23 C22 1_555 1_555
H17 C23 1_555 1_555
C24 C23 1_555 1_555
H18 C24 1_555 1_555
C25 C24 1_555 1_555
H19 C25 1_555 1_555
C26 C22 1_555 1_555
H20 C26 1_555 1_555
N1 C2 1_555 1_555
N2 C1 1_555 1_555
N3 C8 1_555 1_555
N4 C21 1_555 1_555
N5 C18 1_555 1_555
N6 C25 1_555 1_555
N7 O1 1_555 1_555
N8 O4 1_555 1_555
O1 Ag1 1_555 1_555
O2 Ag1 1_555 1_555
O3 N7 1_555 1_555
O4 Ag2 1_555 1_555
O5 N8 1_555 1_555
O6 N8 1_555 1_555
S1 C1 1_555 1_555
S2 C17 1_555 1_555
Ag1A N5 1_555 1_555
Ag2A N6 1_555 1_555
Ag2B O5 1_555 1_555
N5A Ag1 1_555 1_555
N6A Ag2 1_555 1_555
O5B Ag2 1_555 1_555
C4 N2 1_555 1_555
C9 N3 1_555 1_555
C10 S1 1_555 1_555
C15 C16 1_555 1_555
C18 S2 1_555 1_555
C19 N5 1_555 1_555
C26 N6 1_555 1_555
N7 O2 1_555 1_555

#END
