
#######################################################################
#
#                 Cambridge Crystallographic Data Centre
#                                CCDC 
#
#######################################################################
#
# If this CIF has been generated from an entry in the Cambridge 
# Structural Database, then it will include bibliographic, chemical, 
# crystal, experimental, refinement or atomic coordinate data resulting 
# from the CCDC's data processing and validation procedures.
#
#######################################################################

data_ROCRUX
_symmetry_cell_setting           triclinic
_symmetry_space_group_name_H-M   'P -1'
_symmetry_Int_Tables_number      2
_space_group_name_Hall           '-P 1'
loop_
_symmetry_equiv_pos_site_id
_symmetry_equiv_pos_as_xyz
1 x,y,z
2 -x,-y,-z
_cell_length_a                   8.5143(2)
_cell_length_b                   10.4908(3)
_cell_length_c                   22.8420(6)
_cell_angle_alpha                93.769(1)
_cell_angle_beta                 91.723(1)
_cell_angle_gamma                112.111(1)
_cell_volume                     1882.83
loop_
_atom_site_label
_atom_site_type_symbol
_atom_site_fract_x
_atom_site_fract_y
_atom_site_fract_z
Cu1 Cu 1.52862(9) -0.20221(7) -0.45983(3)
Cu2 Cu 1.59873(9) -0.37689(7) -0.25014(3)
Cu3 Cu 1.06901(10) -0.33803(8) -0.24141(3)
I2 I 1.27386(4) -0.35201(4) -0.359661(15)
I3 I 1.75476(4) -0.37976(4) -0.377626(15)
Cl1 Cl 1.3495(2) -0.42524(15) -0.48563(7)
Cl2 Cl 1.5678(2) -0.60089(17) -0.26500(7)
Cl3 Cl 1.0440(2) -0.55395(17) -0.27250(8)
O1 O 1.3905(6) -0.1947(5) -0.39424(19)
O2 O 1.4440(5) -0.4016(5) -0.33565(18)
O3 O 1.2487(6) -0.2579(5) -0.29312(19)
O4 O 1.7458(5) -0.2292(4) -0.4083(2)
O5 O 1.8024(5) -0.3174(5) -0.29954(18)
O6 O 1.9616(5) -0.3667(5) -0.3966(2)
N1 N 1.6552(6) 0.0042(5) -0.4466(2)
N2 N 1.6617(6) -0.1713(5) -0.5318(2)
N3 N 1.6308(7) -0.1775(6) -0.2320(2)
N4 N 1.4614(7) -0.3985(6) -0.1786(2)
N5 N 1.0974(7) -0.1467(6) -0.2131(2)
N6 N 0.9337(7) -0.3828(6) -0.1700(2)
C1 C 1.6433(8) 0.0851(6) -0.4002(3)
H1 H 1.5637 0.0468 -0.3728
C2 C 1.7462(11) 0.2242(8) -0.3920(3)
H2 H 1.7378 0.2780 -0.3591
C3 C 1.8597(10) 0.2806(7) -0.4328(3)
H3 H 1.9290 0.3739 -0.4286
C4 C 1.8706(9) 0.1969(7) -0.4810(3)
H4 H 1.9474 0.2342 -0.5092
C5 C 1.7690(8) 0.0606(7) -0.4868(3)
C6 C 1.7717(8) -0.0392(6) -0.5353(3)
C7 C 1.8755(9) -0.0046(8) -0.5812(3)
H5 H 1.9492 0.0863 -0.5837
C8 C 1.8689(9) -0.1077(8) -0.6241(3)
H6 H 1.9406 -0.0860 -0.6550
C9 C 1.7581(9) -0.2399(8) -0.6210(3)
H7 H 1.7510 -0.3088 -0.6499
C10 C 1.6569(8) -0.2691(7) -0.5740(3)
H8 H 1.5824 -0.3595 -0.5711
C11 C 1.7156(10) -0.0715(7) -0.2635(3)
H9 H 1.7728 -0.0857 -0.2958
C12 C 1.7173(11) 0.0590(7) -0.2478(4)
H10 H 1.7724 0.1304 -0.2710
C13 C 1.6422(12) 0.0858(8) -0.2002(4)
H11 H 1.6484 0.1747 -0.1895
C14 C 1.5549(10) -0.0235(8) -0.1675(3)
H12 H 1.5005 -0.0086 -0.1345
C15 C 1.5491(8) -0.1547(6) -0.1840(3)
C16 C 1.4557(8) -0.2790(7) -0.1542(3)
C17 C 1.3700(10) -0.2766(8) -0.1042(3)
H13 H 1.3685 -0.1937 -0.0877
C18 C 1.2868(11) -0.3974(10) -0.0787(3)
H14 H 1.2268 -0.3973 -0.0453
C19 C 1.2939(11) -0.5189(9) -0.1035(3)
H15 H 1.2409 -0.6018 -0.0867
C20 C 1.3813(9) -0.5143(7) -0.1537(3)
H16 H 1.3841 -0.5962 -0.1708
C21 C 1.1830(8) -0.0311(7) -0.2392(3)
H17 H 1.2428 -0.0371 -0.2720
C22 C 1.1845(10) 0.0957(7) -0.2188(3)
H18 H 1.2446 0.1740 -0.2377
C23 C 1.0965(11) 0.1061(7) -0.1703(3)
H19 H 1.0965 0.1911 -0.1559
C24 C 1.0071(9) -0.0134(7) -0.1429(3)
H20 H 0.9450 -0.0098 -0.1105
C25 C 1.0132(7) -0.1361(6) -0.1651(3)
C26 C 0.9235(8) -0.2702(7) -0.1399(3)
C27 C 0.8395(10) -0.2819(8) -0.0891(3)
H21 H 0.8351 -0.2042 -0.0683
C28 C 0.7607(10) -0.4127(8) -0.0693(3)
H22 H 0.6995 -0.4241 -0.0357
C29 C 0.7747(10) -0.5244(8) -0.1001(3)
H23 H 0.7255 -0.6119 -0.0868
C30 C 0.8620(9) -0.5068(7) -0.1510(3)
H24 H 0.8702 -0.5828 -0.1721
Cu3_2 Cu 2.06901(10) -0.33803(8) -0.24141(3)
O5_2 O 0.8024(5) -0.3174(5) -0.29954(18)
I1 I 1.25061(5) -0.01456(5) -0.002371(19)
I4? I 1.0871(3) -0.2332(2) 0.04673(10)
I5? I 1.4113(3) 0.2046(3) -0.05065(12)
loop_
_geom_bond_atom_site_label_1
_geom_bond_atom_site_label_2
_geom_bond_site_symmetry_1
_geom_bond_site_symmetry_2
Cu1 Cl1 1_555 1_555
Cu2 Cl2 1_555 1_555
Cu3 Cl3 1_555 1_555
I2 O1 1_555 1_555
I3 O4 1_555 1_555
O1 Cu1 1_555 1_555
O2 Cu2 1_555 1_555
O3 Cu3 1_555 1_555
O4 Cu1 1_555 1_555
O5 Cu2 1_555 1_555
O6 I3 1_555 1_555
N1 Cu1 1_555 1_555
N2 Cu1 1_555 1_555
N3 Cu2 1_555 1_555
N4 Cu2 1_555 1_555
N5 Cu3 1_555 1_555
N6 Cu3 1_555 1_555
C1 N1 1_555 1_555
H1 C1 1_555 1_555
C2 C1 1_555 1_555
H2 C2 1_555 1_555
C3 C2 1_555 1_555
H3 C3 1_555 1_555
C4 C3 1_555 1_555
H4 C4 1_555 1_555
C5 N1 1_555 1_555
C6 N2 1_555 1_555
C7 C6 1_555 1_555
H5 C7 1_555 1_555
C8 C7 1_555 1_555
H6 C8 1_555 1_555
C9 C8 1_555 1_555
H7 C9 1_555 1_555
C10 N2 1_555 1_555
H8 C10 1_555 1_555
C11 N3 1_555 1_555
H9 C11 1_555 1_555
C12 C11 1_555 1_555
H10 C12 1_555 1_555
C13 C12 1_555 1_555
H11 C13 1_555 1_555
C14 C13 1_555 1_555
H12 C14 1_555 1_555
C15 N3 1_555 1_555
C16 N4 1_555 1_555
C17 C16 1_555 1_555
H13 C17 1_555 1_555
C18 C17 1_555 1_555
H14 C18 1_555 1_555
C19 C18 1_555 1_555
H15 C19 1_555 1_555
C20 N4 1_555 1_555
H16 C20 1_555 1_555
C21 N5 1_555 1_555
H17 C21 1_555 1_555
C22 C21 1_555 1_555
H18 C22 1_555 1_555
C23 C22 1_555 1_555
H19 C23 1_555 1_555
C24 C23 1_555 1_555
H20 C24 1_555 1_555
C25 N5 1_555 1_555
C26 N6 1_555 1_555
C27 C26 1_555 1_555
H21 C27 1_555 1_555
C28 C27 1_555 1_555
H22 C28 1_555 1_555
C29 C28 1_555 1_555
H23 C29 1_555 1_555
C30 N6 1_555 1_555
H24 C30 1_555 1_555
Cu3_2 O5 1_555 1_555
O5_2 Cu3 1_555 1_555
I2 O2 1_555 1_555
I2 O3 1_555 1_555
I3 O5 1_555 1_555
C4 C5 1_555 1_555
C5 C6 1_555 1_555
C9 C10 1_555 1_555
C14 C15 1_555 1_555
C15 C16 1_555 1_555
C19 C20 1_555 1_555
C24 C25 1_555 1_555
C25 C26 1_555 1_555
C29 C30 1_555 1_555

#END
