
#######################################################################
#
#                 Cambridge Crystallographic Data Centre
#                                CCDC 
#
#######################################################################
#
# If this CIF has been generated from an entry in the Cambridge 
# Structural Database, then it will include bibliographic, chemical, 
# crystal, experimental, refinement or atomic coordinate data resulting 
# from the CCDC's data processing and validation procedures.
#
#######################################################################

data_ROCYIR
_symmetry_cell_setting           monoclinic
_symmetry_space_group_name_H-M   'P 21/c'
_symmetry_Int_Tables_number      14
_space_group_name_Hall           '-P 2ybc'
loop_
_symmetry_equiv_pos_site_id
_symmetry_equiv_pos_as_xyz
1 x,y,z
2 x,1/2-y,1/2+z
3 -x,-y,-z
4 -x,1/2+y,1/2-z
_cell_length_a                   12.305(4)
_cell_length_b                   8.623(3)
_cell_length_c                   20.164(5)
_cell_angle_alpha                90
_cell_angle_beta                 106.00(2)
_cell_angle_gamma                90
_cell_volume                     2056.64
loop_
_atom_site_label
_atom_site_type_symbol
_atom_site_fract_x
_atom_site_fract_y
_atom_site_fract_z
Zr1 Zr 0.34474(5) 0.22781(6) 0.18916(3)
Ca1 Ca 0.7252(1) 0.1308(1) 0.05892(6)
O1 O 0.1684(3) 0.3170(4) 0.1570(2)
O2 O 0.0438(3) 0.4918(5) 0.1020(2)
O3 O 0.3755(3) 0.4703(4) 0.1882(2)
O4 O 0.5904(3) 0.3159(5) 0.0769(2)
O5 O 0.4859(3) 0.2091(4) 0.1393(2)
O6 O 0.2978(3) 0.2543(4) 0.2885(2)
O7 O 0.2503(3) 0.1399(5) 0.3762(2)
O8 O 0.3724(3) -0.0073(4) 0.2206(2)
O9 O 0.8101(3) 0.1070(5) -0.0330(2)
O10 O 0.2731(3) 0.1016(4) 0.0891(2)
O11 O 0.6611(3) -0.1366(5) 0.0324(2)
O12 O 0.6953(4) 0.0579(5) 0.1664(2)
O13 O 0.8293(3) 0.3617(5) 0.0845(2)
O14 O 0.5654(3) 0.1416(5) -0.0465(2)
O15 O 0.8940(3) -0.0080(6) 0.1120(2)
O16 O 0.5079(3) 0.2394(4) 0.2748(2)
N1 N 0.3363(4) 0.4268(5) 0.1174(2)
N2 N 0.2537(4) 0.0161(5) 0.2074(2)
C1 C 0.1388(5) 0.4320(7) 0.1166(3)
C2 C 0.2272(5) 0.4967(7) 0.0846(3)
C3 C 0.4256(5) 0.4493(7) 0.0828(3)
C4 C 0.5074(5) 0.3152(6) 0.1009(3)
C5 C 0.2601(5) 0.1406(7) 0.3168(3)
C6 C 0.2219(5) 0.0009(7) 0.2712(3)
C7 C 0.1899(5) -0.0767(7) 0.1496(3)
C8 C 0.2193(5) -0.0251(7) 0.0854(3)
H1 H 0.2322 0.6059 0.0911
H2 H 0.2064 0.4740 0.0367
H3 H 0.3932 0.4529 0.0343
H4 H 0.4643 0.5437 0.0979
H5 H 0.1420 -0.0081 0.2608
H6 H 0.2562 -0.0895 0.2948
H7 H 0.2088 -0.1831 0.1581
H8 H 0.1113 -0.0629 0.1439
H9 H 0.6773 -0.1359 0.0024
H10 H 0.6765 -0.2058 0.0542
H11 H 0.7020 -0.0414 0.1958
H12 H 0.6424 0.0887 0.1681
H13 H 0.8970 0.3710 0.0961
H14 H 0.7972 0.4355 0.0950
H15 H 0.5129 0.1422 -0.0378
H16 H 0.5404 0.1059 -0.0859
H17 H 0.9191 -0.0537 0.1611
H18 H 0.9131 -0.0716 0.0939
H19 H 0.5512 0.3230 0.2780
H20 H 0.5429 0.1605 0.2850
C8B C 0.7807(5) 0.0251(7) -0.0854(3)
O10B O 0.7269(3) -0.1016(4) -0.0891(2)
Zr1B Zr 0.65526(5) -0.22781(6) -0.18916(3)
O1B O 0.8316(3) -0.3170(4) -0.1570(2)
C1B C 0.8612(5) -0.4320(7) -0.1166(3)
O2B O 0.9562(3) -0.4918(5) -0.1020(2)
C2B C 0.7728(5) -0.4967(7) -0.0846(3)
N1B N 0.6637(4) -0.4268(5) -0.1174(2)
O3B O 0.6245(3) -0.4703(4) -0.1882(2)
C3B C 0.5744(5) -0.4493(7) -0.0828(3)
C4B C 0.4926(5) -0.3152(6) -0.1009(3)
O4B O 0.4096(3) -0.3159(5) -0.0769(2)
Ca1B Ca 0.2748(1) -0.1308(1) -0.05892(6)
O9B O 0.1899(3) -0.1070(5) 0.0330(2)
O11B O 0.3389(3) 0.1366(5) -0.0324(2)
H9B H 0.3227 0.1359 -0.0024
H10B H 0.3235 0.2058 -0.0542
O12B O 0.3047(4) -0.0579(5) -0.1664(2)
H11B H 0.2980 0.0414 -0.1958
H12B H 0.3576 -0.0887 -0.1681
O13B O 0.1707(3) -0.3617(5) -0.0845(2)
H13B H 0.1030 -0.3710 -0.0961
H14B H 0.2028 -0.4355 -0.0950
O14B O 0.4346(3) -0.1416(5) 0.0465(2)
H15B H 0.4871 -0.1422 0.0378
H16B H 0.4596 -0.1059 0.0859
O15B O 0.1060(3) 0.0080(6) -0.1120(2)
H17B H 0.0809 0.0537 -0.1611
H18B H 0.0869 0.0716 -0.0939
O5B O 0.5141(3) -0.2091(4) -0.1393(2)
O6B O 0.7022(3) -0.2543(4) -0.2885(2)
C5B C 0.7399(5) -0.1406(7) -0.3168(3)
O7B O 0.7497(3) -0.1399(5) -0.3762(2)
C6B C 0.7781(5) -0.0009(7) -0.2712(3)
N2B N 0.7463(4) -0.0161(5) -0.2074(2)
O8B O 0.6276(3) 0.0073(4) -0.2206(2)
C7B C 0.8101(5) 0.0767(7) -0.1496(3)
H7B H 0.7912 0.1831 -0.1581
H8B H 0.8887 0.0629 -0.1439
O16B O 0.4921(3) -0.2394(4) -0.2748(2)
H19B H 0.4488 -0.3230 -0.2780
H20B H 0.4571 -0.1605 -0.2850
H5B H 0.8580 0.0081 -0.2608
H6B H 0.7438 0.0895 -0.2948
H3B H 0.6068 -0.4529 -0.0343
H4B H 0.5357 -0.5437 -0.0979
H1B H 0.7678 -0.6059 -0.0911
H2B H 0.7936 -0.4740 -0.0367
O17 O -0.0413(4) 0.7667(5) 0.0323(2)
H21 H 0.0032 0.8032 0.0169
H22 H -0.0199 0.6829 0.0467
O18 O 0.0385(6) 0.345(2) 0.2546(4)
O19 O 0.925(1) 0.141(2) 0.2631(6)
loop_
_geom_bond_atom_site_label_1
_geom_bond_atom_site_label_2
_geom_bond_site_symmetry_1
_geom_bond_site_symmetry_2
Zr1 O1 1_555 1_555
Ca1 O4 1_555 1_555
O1 C1 1_555 1_555
O2 C1 1_555 1_555
O3 Zr1 1_555 1_555
O4 C4 1_555 1_555
O5 Zr1 1_555 1_555
O6 Zr1 1_555 1_555
O7 C5 1_555 1_555
O8 Zr1 1_555 1_555
O9 Ca1 1_555 1_555
O10 Zr1 1_555 1_555
O11 Ca1 1_555 1_555
O12 Ca1 1_555 1_555
O13 Ca1 1_555 1_555
O14 Ca1 1_555 1_555
O15 Ca1 1_555 1_555
O16 Zr1 1_555 1_555
O17 H21 1_555 1_555
N1 Zr1 1_555 1_555
N2 Zr1 1_555 1_555
C1 C2 1_555 1_555
C2 N1 1_555 1_555
C3 N1 1_555 1_555
C4 O5 1_555 1_555
C5 O6 1_555 1_555
C6 N2 1_555 1_555
C7 N2 1_555 1_555
C8 O10 1_555 1_555
H1 C2 1_555 1_555
H2 C2 1_555 1_555
H3 C3 1_555 1_555
H4 C3 1_555 1_555
H5 C6 1_555 1_555
H6 C6 1_555 1_555
H7 C7 1_555 1_555
H8 C7 1_555 1_555
H9 O11 1_555 1_555
H10 O11 1_555 1_555
H11 O12 1_555 1_555
H12 O12 1_555 1_555
H13 O13 1_555 1_555
H14 O13 1_555 1_555
H15 O14 1_555 1_555
H16 O14 1_555 1_555
H17 O15 1_555 1_555
H18 O15 1_555 1_555
H19 O16 1_555 1_555
H20 O16 1_555 1_555
H22 O17 1_555 1_555
C8B O9 1_555 1_555
O10B C8B 1_555 1_555
Zr1B O10B 1_555 1_555
O1B Zr1B 1_555 1_555
C1B O1B 1_555 1_555
O2B C1B 1_555 1_555
C2B C1B 1_555 1_555
N1B Zr1B 1_555 1_555
O3B Zr1B 1_555 1_555
C3B N1B 1_555 1_555
C4B C3B 1_555 1_555
O4B C4B 1_555 1_555
Ca1B O4B 1_555 1_555
O9B C8 1_555 1_555
O11B Ca1B 1_555 1_555
H9B O11B 1_555 1_555
H10B O11B 1_555 1_555
O12B Ca1B 1_555 1_555
H11B O12B 1_555 1_555
H12B O12B 1_555 1_555
O13B Ca1B 1_555 1_555
H13B O13B 1_555 1_555
H14B O13B 1_555 1_555
O14B Ca1B 1_555 1_555
H15B O14B 1_555 1_555
H16B O14B 1_555 1_555
O15B Ca1B 1_555 1_555
H17B O15B 1_555 1_555
H18B O15B 1_555 1_555
O5B Zr1B 1_555 1_555
O6B Zr1B 1_555 1_555
C5B O6B 1_555 1_555
O7B C5B 1_555 1_555
C6B C5B 1_555 1_555
N2B Zr1B 1_555 1_555
O8B Zr1B 1_555 1_555
C7B C8B 1_555 1_555
H7B C7B 1_555 1_555
H8B C7B 1_555 1_555
O16B Zr1B 1_555 1_555
H19B O16B 1_555 1_555
H20B O16B 1_555 1_555
H5B C6B 1_555 1_555
H6B C6B 1_555 1_555
H3B C3B 1_555 1_555
H4B C3B 1_555 1_555
H1B C2B 1_555 1_555
H2B C2B 1_555 1_555
O3 N1 1_555 1_555
O8 N2 1_555 1_555
C3 C4 1_555 1_555
C5 C6 1_555 1_555
C7 C8 1_555 1_555
C2B N1B 1_555 1_555
N1B O3B 1_555 1_555
C4B O5B 1_555 1_555
Ca1B O9B 1_555 1_555
C6B N2B 1_555 1_555
N2B C7B 1_555 1_555
N2B O8B 1_555 1_555

#END
