
#######################################################################
#
#                 Cambridge Crystallographic Data Centre
#                                CCDC 
#
#######################################################################
#
# If this CIF has been generated from an entry in the Cambridge 
# Structural Database, then it will include bibliographic, chemical, 
# crystal, experimental, refinement or atomic coordinate data resulting 
# from the CCDC's data processing and validation procedures.
#
#######################################################################

data_ROCYIT
_symmetry_cell_setting           tetragonal
_symmetry_space_group_name_H-M   'P 43 21 2'
_symmetry_Int_Tables_number      96
_space_group_name_Hall           'P 4nw 2abw'
loop_
_symmetry_equiv_pos_site_id
_symmetry_equiv_pos_as_xyz
1 x,y,z
2 1/2-y,1/2+x,3/4+z
3 -x,-y,1/2+z
4 1/2+y,1/2-x,1/4+z
5 1/2+x,1/2-y,1/4-z
6 1/2-x,1/2+y,3/4-z
7 y,x,-z
8 -y,-x,1/2-z
_cell_length_a                   11.5361(3)
_cell_length_b                   11.5361(3)
_cell_length_c                   37.3168(19)
_cell_angle_alpha                90
_cell_angle_beta                 90
_cell_angle_gamma                90
_cell_volume                     4966.18
loop_
_atom_site_label
_atom_site_type_symbol
_atom_site_fract_x
_atom_site_fract_y
_atom_site_fract_z
Zn1 Zn 0.33539(3) 0.22051(3) 0.081923(9)
O1 O 0.53171(19) 0.2205(2) 0.07869(6)
O2 O 0.3386(2) 1.0136(2) 0.08305(6)
O3 O 0.2979(2) 1.13240(18) 0.12742(6)
N1 N 0.3257(2) 0.3846(2) 0.10698(7)
C1 C 0.7316(2) 0.2631(3) 0.03651(7)
H1 H 0.7416 0.2202 0.0580
C2 C 0.8295(3) 0.2980(3) 0.01718(7)
O4 O 0.41773(18) 0.2709(2) 0.03482(6)
C3 C 0.2733(4) 0.7238(3) 0.14943(8)
C4 C 0.3010(3) 0.8184(3) 0.12756(8)
H2 H 0.3333 0.8053 0.1045
C5 C 0.2931(3) 0.6048(3) 0.13632(8)
C6 C 0.2818(3) 0.9311(3) 0.13915(8)
C7 C 0.5179(3) 0.2565(3) 0.04776(8)
C8 C 0.2137(4) 0.5159(3) 0.14199(8)
H3 H 0.1469 0.5290 0.1563
C9 C 0.3096(3) 1.0308(3) 0.11466(9)
C10 C 0.6046(3) 0.3527(3) -0.00647(8)
H4 H 0.5288 0.3709 -0.0147
C11 C 0.4051(3) 0.4674(3) 0.10238(9)
H5 H 0.4729 0.4503 0.0889
C12 C 0.2354(4) 0.9499(3) 0.17305(10)
H6 H 0.2238 1.0268 0.1814
C13 C 0.2326(3) 0.4084(3) 0.12662(8)
H7 H 0.1766 0.3492 0.1303
C14 C 0.8124(3) 0.3614(3) -0.01418(8)
H8 H 0.8774 0.3863 -0.0278
C15 C 0.3919(3) 0.5777(3) 0.11662(9)
H9 H 0.4502 0.6346 0.1129
C16 C 0.2238(5) 0.7451(3) 0.18294(9)
H10 H 0.2022 0.6819 0.1978
C17 C 0.7021(3) 0.3883(4) -0.02571(8)
H11 H 0.6922 0.4318 -0.0471
C18 C 0.2061(5) 0.8567(3) 0.19456(10)
H12 H 0.1735 0.8701 0.2176
N2 N 1.1699(2) 0.2311(2) 0.05904(6)
C19 C 0.6208(3) 0.2896(3) 0.02514(7)
C20 C 0.9478(2) 0.2720(3) 0.03084(7)
C21 C 1.0808(13) 0.1608(10) 0.0662(3)
H13 H 1.0937 0.0958 0.0813
C22 C 1.1464(8) 0.3244(8) 0.0383(2)
H14 H 1.2072 0.3781 0.0339
C23 C 0.9699(8) 0.1784(7) 0.0526(2)
H15 H 0.9094 0.1257 0.0584
C24 C 1.0407(7) 0.3460(7) 0.0232(2)
H16 H 1.0302 0.4106 0.0078
Zn1_2 Zn 0.33539(3) 1.22051(3) 0.081923(9)
Zn1_3 Zn 1.33539(3) 0.22051(3) 0.081923(9)
O2_2 O 0.3386(2) 0.0136(2) 0.08305(6)
O3_2 O 0.2979(2) 0.13240(18) 0.12742(6)
N2_2 N 0.1699(2) 0.2311(2) 0.05904(6)
N3 N 0.7425(6) 0.0407(4) -0.03573(14)
C29 C 0.6557(8) 0.0739(6) -0.06068(19)
H21 H 0.6849 0.0632 -0.0851
H22 H 0.6357 0.1556 -0.0570
H23 H 0.5865 0.0259 -0.0572
C30 C 0.7159(9) -0.0060(6) -0.0041(2)
C31 C 0.8649(8) 0.0606(7) -0.04623(18)
H24 H 0.9163 0.0227 -0.0289
H25 H 0.8808 0.1440 -0.0466
H26 H 0.8785 0.0282 -0.0701
O5 O 0.6251(6) -0.0289(7) 0.0096(2)
C25? C 1.0463(7) 0.2972(9) 0.01156(19)
H17? H 1.0403 0.3280 -0.0120
C26? C 1.1540(8) 0.2776(9) 0.0267(2)
H18? H 1.2206 0.2986 0.0132
C27? C 1.0743(11) 0.2002(11) 0.0770(3)
H19? H 1.0829 0.1618 0.0993
C28? C 0.9645(9) 0.2214(11) 0.0644(2)
H20? H 0.8993 0.2016 0.0787
O6? O 0.7930(11) -0.0297(8) 0.0118(3)
loop_
_geom_bond_atom_site_label_1
_geom_bond_atom_site_label_2
_geom_bond_site_symmetry_1
_geom_bond_site_symmetry_2
Zn1 O1 1_555 1_555
O1 C7 1_555 1_555
O2 C9 1_555 1_555
O3 C9 1_555 1_555
N1 Zn1 1_555 1_555
C1 H1 1_555 1_555
C2 C1 1_555 1_555
O4 Zn1 1_555 1_555
C3 C4 1_555 1_555
C4 H2 1_555 1_555
C5 C3 1_555 1_555
C6 C4 1_555 1_555
C7 O4 1_555 1_555
C8 C5 1_555 1_555
H3 C8 1_555 1_555
C9 C6 1_555 1_555
C10 H4 1_555 1_555
C11 N1 1_555 1_555
H5 C11 1_555 1_555
C12 C6 1_555 1_555
H6 C12 1_555 1_555
C13 N1 1_555 1_555
H7 C13 1_555 1_555
C14 C2 1_555 1_555
H8 C14 1_555 1_555
C15 C5 1_555 1_555
H9 C15 1_555 1_555
C16 C3 1_555 1_555
H10 C16 1_555 1_555
C17 C10 1_555 1_555
H11 C17 1_555 1_555
C18 C12 1_555 1_555
H12 C18 1_555 1_555
N2 C21 1_555 1_555
C19 C1 1_555 1_555
C20 C2 1_555 1_555
C21 H13 1_555 1_555
C22 N2 1_555 1_555
H14 C22 1_555 1_555
C23 C20 1_555 1_555
H15 C23 1_555 1_555
C24 C20 1_555 1_555
H16 C24 1_555 1_555
N3 C29 1_555 1_555
C29 H21 1_555 1_555
H22 C29 1_555 1_555
H23 C29 1_555 1_555
C30 N3 1_555 1_555
C31 N3 1_555 1_555
H24 C31 1_555 1_555
H25 C31 1_555 1_555
H26 C31 1_555 1_555
O5 C30 1_555 1_555
Zn1_2 O2 1_555 1_555
Zn1_3 N2 1_555 1_555
O2_2 Zn1 1_555 1_555
O3_2 Zn1 1_555 1_555
N2_2 Zn1 1_555 1_555
O3 Zn1_2 1_555 1_555
C7 C19 1_555 1_555
C8 C13 1_555 1_555
C10 C19 1_555 1_555
C11 C15 1_555 1_555
C14 C17 1_555 1_555
C16 C18 1_555 1_555
C21 C23 1_555 1_555
C22 C24 1_555 1_555

#END
