
#######################################################################
#
#                 Cambridge Crystallographic Data Centre
#                                CCDC 
#
#######################################################################
#
# If this CIF has been generated from an entry in the Cambridge 
# Structural Database, then it will include bibliographic, chemical, 
# crystal, experimental, refinement or atomic coordinate data resulting 
# from the CCDC's data processing and validation procedures.
#
#######################################################################

data_ROCZEP
_symmetry_cell_setting           monoclinic
_symmetry_space_group_name_H-M   'C c'
_symmetry_Int_Tables_number      9
_space_group_name_Hall           'C -2yc'
loop_
_symmetry_equiv_pos_site_id
_symmetry_equiv_pos_as_xyz
1 x,y,z
2 x,-y,1/2+z
3 1/2+x,1/2+y,z
4 1/2+x,1/2-y,1/2+z
_cell_length_a                   14.675(8)
_cell_length_b                   9.636(4)
_cell_length_c                   13.262(6)
_cell_angle_alpha                90
_cell_angle_beta                 97.17(2)
_cell_angle_gamma                90
_cell_volume                     1860.69
loop_
_atom_site_label
_atom_site_type_symbol
_atom_site_fract_x
_atom_site_fract_y
_atom_site_fract_z
Zn1 Zn 0.044969(18) 0.43983(2) 0.302067(19)
C1 C -0.09961(18) 0.4928(3) 0.4382(2)
H1 H -0.0642 0.5600 0.4750
C2 C -0.1465(2) 0.3388(3) 0.3275(2)
H2 H -0.1490 0.2796 0.2719
C3 C -0.2113(2) 0.3504(4) 0.3893(3)
H3 H -0.2659 0.3004 0.3854
C4 C -0.2250(3) 0.4902(3) 0.5489(3)
H4 H -0.2912 0.4897 0.5316
H5 H -0.2065 0.5841 0.5682
C5 C -0.2001(3) 0.3973(4) 0.6363(3)
H6 H -0.1338 0.3910 0.6508
H7 H -0.2237 0.4346 0.6959
C6 C -0.1823(2) 0.1575(4) 0.6633(3)
H8 H -0.1610 0.1843 0.7327
H9 H -0.1291 0.1418 0.6281
C7 C -0.2368(3) 0.0322(5) 0.6623(4)
H10 H -0.2913 0.0517 0.6944
H11 H -0.2017 -0.0378 0.7028
C8 C -0.2247(2) -0.1296(3) 0.5123(3)
H12 H -0.1708 -0.1761 0.5362
C9 C -0.2776(2) -0.1520(3) 0.4245(2)
H13 H -0.2671 -0.2191 0.3768
C10 C -0.33961(19) 0.0140(3) 0.4990(2)
H14 H -0.3791 0.0848 0.5132
C11 C 0.05823(17) 0.7097(2) 0.2445(2)
C12 C 0.05316(15) 0.8269(2) 0.16848(17)
C13 C 0.04245(17) 0.7992(2) 0.0652(2)
H15 H 0.0452 0.7081 0.0426
C14 C 0.0276(2) 0.9066(3) -0.0047(2)
H16 H 0.0220 0.8873 -0.0739
C15 C 0.02124(19) 1.0420(2) 0.02811(19)
H17 H 0.0084 1.1133 -0.0188
C16 C 0.03402(18) 1.0712(2) 0.1316(2)
C17 C 0.05194(16) 0.9642(2) 0.20176(18)
H18 H 0.0631 0.9842 0.2708
C18 C 0.02328(17) 1.2183(2) 0.16686(18)
N1 N -0.07536(16) 0.42783(19) 0.35863(18)
N2 N -0.1819(2) 0.4498(3) 0.4594(3)
N3 N -0.26530(18) -0.0247(2) 0.56050(19)
N4 N -0.34985(16) -0.06102(18) 0.41538(17)
O1 O 0.05665(15) 0.58816(15) 0.20559(14)
O2 O 0.05973(16) 0.73318(19) 0.33525(15)
O3 O -0.02729(16) 1.29822(18) 0.11366(16)
O4 O 0.06638(14) 1.25002(15) 0.25359(14)
O5 O -0.23748(16) 0.2637(2) 0.61433(19)
Zn1B Zn -0.455031(18) -0.06017(2) 0.302067(19)
Zn1_2 Zn 0.044969(18) 1.43983(2) 0.302067(19)
N4B N 0.15015(16) 0.43898(18) 0.41538(17)
O4_2 O 0.06638(14) 0.25002(15) 0.25359(14)
loop_
_geom_bond_atom_site_label_1
_geom_bond_atom_site_label_2
_geom_bond_site_symmetry_1
_geom_bond_site_symmetry_2
Zn1 N1 1_555 1_555
C1 H1 1_555 1_555
C2 H2 1_555 1_555
C3 C2 1_555 1_555
H3 C3 1_555 1_555
C4 H4 1_555 1_555
H5 C4 1_555 1_555
C5 C4 1_555 1_555
H6 C5 1_555 1_555
H7 C5 1_555 1_555
C6 H8 1_555 1_555
H9 C6 1_555 1_555
C7 C6 1_555 1_555
H10 C7 1_555 1_555
H11 C7 1_555 1_555
C8 H12 1_555 1_555
C9 C8 1_555 1_555
H13 C9 1_555 1_555
C10 H14 1_555 1_555
C11 C12 1_555 1_555
C12 C13 1_555 1_555
C13 H15 1_555 1_555
C14 C13 1_555 1_555
H16 C14 1_555 1_555
C15 C14 1_555 1_555
H17 C15 1_555 1_555
C16 C15 1_555 1_555
C17 C12 1_555 1_555
H18 C17 1_555 1_555
C18 C16 1_555 1_555
N1 C1 1_555 1_555
N2 C1 1_555 1_555
N3 C7 1_555 1_555
N4 C9 1_555 1_555
O1 Zn1 1_555 1_555
O2 C11 1_555 1_555
O3 C18 1_555 1_555
O4 C18 1_555 1_555
O5 C5 1_555 1_555
Zn1B N4 1_555 1_555
Zn1_2 O4 1_555 1_555
N4B Zn1 1_555 1_555
O4_2 Zn1 1_555 1_555
C2 N1 1_555 1_555
C3 N2 1_555 1_555
C4 N2 1_555 1_555
C6 O5 1_555 1_555
C8 N3 1_555 1_555
C10 N3 1_555 1_555
C10 N4 1_555 1_555
C11 O1 1_555 1_555
C16 C17 1_555 1_555

#END
