
#######################################################################
#
#                 Cambridge Crystallographic Data Centre
#                                CCDC 
#
#######################################################################
#
# If this CIF has been generated from an entry in the Cambridge 
# Structural Database, then it will include bibliographic, chemical, 
# crystal, experimental, refinement or atomic coordinate data resulting 
# from the CCDC's data processing and validation procedures.
#
#######################################################################

data_RODKUR
_symmetry_cell_setting           triclinic
_symmetry_space_group_name_H-M   'P -1'
_symmetry_Int_Tables_number      2
_space_group_name_Hall           '-P 1'
loop_
_symmetry_equiv_pos_site_id
_symmetry_equiv_pos_as_xyz
1 x,y,z
2 -x,-y,-z
_cell_length_a                   11.5758(17)
_cell_length_b                   15.187(2)
_cell_length_c                   15.249(2)
_cell_angle_alpha                116.619(3)
_cell_angle_beta                 93.081(3)
_cell_angle_gamma                101.155(3)
_cell_volume                     2321.04
loop_
_atom_site_label
_atom_site_type_symbol
_atom_site_fract_x
_atom_site_fract_y
_atom_site_fract_z
Cu1 Cu -0.5000 -1.0000 0.5000
O1 O -0.3418(4) -0.9137(3) 0.5284(3)
C1 C -0.1327(8) -0.8610(8) 0.5600(9)
F1 F -0.124(3) -0.825(2) 0.663(2)
F2 F -0.134(3) -0.803(3) 0.508(3)
F3 F -0.040(2) -0.890(2) 0.536(2)
C2 C -0.2481(6) -0.9465(5) 0.5147(4)
C3 C -0.2389(6) -1.0445(5) 0.4692(5)
H1 H -0.1638 -1.0574 0.4618
C4 C -0.3388(6) -1.1261(5) 0.4332(4)
C5 C -0.3192(11) -1.2334(8) 0.3854(10)
F7 F -0.2164(17) -1.2385(14) 0.404(2)
F8 F -0.348(5) -1.274(3) 0.290(2)
F9 F -0.387(3) -1.2915(17) 0.422(4)
O2 O -0.4444(4) -1.1226(3) 0.4360(3)
Cu2 Cu -0.5000 -0.5000 1.0000
O3 O -0.3280(4) -0.4290(3) 1.0419(4)
C6 C -0.1321(9) -0.3813(11) 1.1118(9)
F13 F -0.0930(5) -0.4107(8) 1.0298(6)
F14 F -0.1156(7) -0.2877(7) 1.1445(8)
F15 F -0.0545(6) -0.3881(10) 1.1696(9)
C7 C -0.2565(7) -0.4368(6) 1.1006(7)
C8 C -0.2829(9) -0.4866(6) 1.1550(6)
H2 H -0.2201 -0.4898 1.1934
C9 C -0.3983(9) -0.5332(6) 1.1564(6)
C10 C -0.4189(14) -0.5769(10) 1.2250(9)
F16 F -0.3225(7) -0.5772(10) 1.2735(8)
F17 F -0.4841(11) -0.5442(8) 1.2852(7)
F18 F -0.4608(10) -0.6703(7) 1.1819(7)
O4 O -0.4915(5) -0.5405(3) 1.1084(3)
O7 O -0.4317(4) -0.9961(3) 0.6550(3)
N1 N -0.4942(5) -1.0020(4) 0.7200(4)
C16 C -0.5326(7) -1.0994(5) 0.7251(5)
C17 C -0.5746(13) -1.1873(6) 0.6276(7)
H4 H -0.6464 -1.1819 0.5980
H5 H -0.5903 -1.2481 0.6345
H6 H -0.5146 -1.1897 0.5860
C18 C -0.4143(9) -1.1085(11) 0.7742(12)
H7 H -0.3599 -1.1246 0.7272
H8 H -0.4333 -1.1613 0.7932
H9 H -0.3781 -1.0451 0.8319
C19 C -0.6210(8) -1.0724(5) 0.7993(5)
C20 C -0.7492(9) -1.0987(9) 0.7444(11)
H10 H -0.8030 -1.0820 0.7919
H11 H -0.7731 -1.1700 0.6986
H12 H -0.7510 -1.0605 0.7087
C21 C -0.6238(17) -1.1103(9) 0.8710(10)
H13 H -0.6837 -1.0882 0.9113
H14 H -0.5473 -1.0847 0.9125
H15 H -0.6423 -1.1831 0.8368
N2 N -0.5849(5) -0.9597(4) 0.8472(4)
O8 O -0.6225(5) -0.9054(4) 0.9253(4)
C22 C -0.5185(6) -0.9250(5) 0.7945(5)
C23 C -0.4799(6) -0.8190(5) 0.8202(4)
C24 C -0.5093(6) -0.7357(5) 0.8946(5)
H16 H -0.5625 -0.7396 0.9370
N3 N -0.4522(5) -0.6503(4) 0.8973(4)
N4 N -0.3826(5) -0.6772(4) 0.8255(4)
C25 C -0.2990(9) -0.6023(6) 0.8112(8)
H17 H -0.3161 -0.5367 0.8492
H18 H -0.2193 -0.5983 0.8385
C26 C -0.2989(11) -0.6205(7) 0.7110(8)
H19 H -0.3759 -0.6185 0.6846
H20 H -0.2866 -0.6876 0.6711
C27 C -0.2009(14) -0.5413(9) 0.7038(10)
H21 H -0.2174 -0.4750 0.7396
H22 H -0.1252 -0.5391 0.7362
C28 C -0.190(3) -0.5607(10) 0.6045(15)
H23 H -0.2590 -0.5489 0.5761
H24 H -0.1892 -0.6313 0.5648
C29 C -0.0804(18) -0.495(2) 0.6008(16)
H25 H -0.0935 -0.4281 0.6192
H26 H -0.0165 -0.4875 0.6493
C30 C -0.047(2) -0.5296(19) 0.514(2)
H27 H -0.1184 -0.5511 0.4664
H28 H -0.0225 -0.5907 0.5036
C31 C -0.3995(6) -0.7779(6) 0.7776(5)
H29 H -0.3631 -0.8140 0.7244
Cu1_2 Cu 0.5000 0.0000 0.5000
O1A O -0.6582(4) -1.0863(3) 0.4716(3)
C1A C -0.8673(8) -1.1390(8) 0.4400(9)
F1A F -0.876(3) -1.175(2) 0.337(2)
F2A F -0.866(3) -1.197(3) 0.492(3)
F3A F -0.960(2) -1.110(2) 0.464(2)
C2A C -0.7519(6) -1.0535(5) 0.4853(4)
C3A C -0.7611(6) -0.9555(5) 0.5308(5)
H1A H -0.8362 -0.9426 0.5382
C4A C -0.6612(6) -0.8739(5) 0.5668(4)
C5A C -0.6808(11) -0.7666(8) 0.6146(10)
F7A F -0.7836(17) -0.7615(14) 0.596(2)
F8A F -0.652(5) -0.726(3) 0.710(2)
F9A F -0.613(3) -0.7085(17) 0.578(4)
O2A O -0.5556(4) -0.8774(3) 0.5640(3)
Cu2_2 Cu 0.5000 -0.5000 0.0000
O3A O -0.6720(4) -0.5710(3) 0.9581(4)
C6A C -0.8679(9) -0.6187(11) 0.8882(9)
F13A F -0.9070(5) -0.5893(8) 0.9702(6)
F14A F -0.8844(7) -0.7123(7) 0.8555(8)
F15A F -0.9455(6) -0.6119(10) 0.8304(9)
C7A C -0.7435(7) -0.5632(6) 0.8994(7)
C8A C -0.7171(9) -0.5134(6) 0.8450(6)
H2A H -0.7799 -0.5102 0.8066
C9A C -0.6017(9) -0.4668(6) 0.8436(6)
C10A C -0.5811(14) -0.4231(10) 0.7750(9)
F16A F -0.6775(7) -0.4228(10) 0.7265(8)
F17A F -0.5159(11) -0.4558(8) 0.7148(7)
F18A F -0.5392(10) -0.3297(7) 0.8181(7)
O4A O -0.5085(5) -0.4595(3) 0.8916(3)
O7A O 0.4317(4) -0.0039(3) 0.3450(3)
O7A_2 O -0.5683(4) -1.0039(3) 0.3450(3)
N1A N 0.4942(5) 0.0020(4) 0.2800(4)
C16A C 0.5326(7) 0.0994(5) 0.2749(5)
C17A C 0.5746(13) 0.1873(6) 0.3724(7)
H4A H 0.6464 0.1819 0.4020
H5A H 0.5903 0.2481 0.3655
H6A H 0.5146 0.1897 0.4140
C18A C 0.4143(9) 0.1085(11) 0.2258(12)
H7A H 0.3599 0.1246 0.2728
H8A H 0.4333 0.1613 0.2068
H9A H 0.3781 0.0451 0.1681
C19A C 0.6210(8) 0.0724(5) 0.2007(5)
C20A C 0.7492(9) 0.0987(9) 0.2556(11)
H10A H 0.8030 0.0820 0.2081
H11A H 0.7731 0.1700 0.3014
H12A H 0.7510 0.0605 0.2913
C21A C 0.6238(17) 0.1103(9) 0.1290(10)
H13A H 0.6837 0.0882 0.0887
H14A H 0.5473 0.0847 0.0875
H15A H 0.6423 0.1831 0.1632
N2A N 0.5849(5) -0.0403(4) 0.1528(4)
O8A O 0.6225(5) -0.0946(4) 0.0747(4)
C22A C 0.5185(6) -0.0750(5) 0.2055(5)
C23A C 0.4799(6) -0.1810(5) 0.1798(4)
C24A C 0.5093(6) -0.2643(5) 0.1054(5)
H16A H 0.5625 -0.2604 0.0630
N3A N 0.4522(5) -0.3497(4) 0.1027(4)
N3A_2 N -0.5478(5) -0.3497(4) 1.1027(4)
N4A N 0.3826(5) -0.3228(4) 0.1745(4)
C25A C 0.2990(9) -0.3977(6) 0.1888(8)
H17A H 0.3161 -0.4633 0.1508
H18A H 0.2193 -0.4017 0.1615
C26A C 0.2989(11) -0.3795(7) 0.2890(8)
H19A H 0.3759 -0.3815 0.3154
H20A H 0.2866 -0.3124 0.3289
C27A C 0.2009(14) -0.4587(9) 0.2962(10)
H21A H 0.2174 -0.5250 0.2604
H22A H 0.1252 -0.4609 0.2638
C28A C 0.190(3) -0.4393(10) 0.3955(15)
H23A H 0.2590 -0.4511 0.4239
H24A H 0.1892 -0.3687 0.4352
C29A C 0.0804(18) -0.505(2) 0.3992(16)
H25A H 0.0935 -0.5719 0.3808
H26A H 0.0165 -0.5125 0.3507
C30A C 0.047(2) -0.4704(19) 0.486(2)
H27A H 0.1184 -0.4489 0.5336
H28A H 0.0225 -0.4093 0.4964
C31A C 0.3995(6) -0.2221(6) 0.2224(5)
H29A H 0.3631 -0.1860 0.2756
Cu3 Cu 0.0000 0.0000 1.0000
O5 O -0.0731(5) 0.1141(5) 1.0238(4)
C11 C -0.1587(13) 0.2282(13) 1.0005(14)
F19 F -0.1563(6) 0.2690(6) 0.9362(6)
F20 F -0.2753(6) 0.1979(6) 0.9921(6)
F21 F -0.1143(10) 0.2922(7) 1.0836(7)
C12 C -0.1056(7) 0.1351(10) 0.9573(10)
C13 C -0.0999(9) 0.0861(11) 0.8606(10)
H3 H -0.1273 0.1110 0.8199
C14 C -0.0560(10) 0.0011(12) 0.8176(7)
C15 C -0.075(2) -0.068(4) 0.7049(16)
F22 F -0.0279(15) -0.1265(13) 0.6686(6)
F23 F 0.0305(13) 0.0079(12) 0.6882(8)
F24 F -0.1482(11) -0.0501(15) 0.6589(6)
O6 O -0.0087(5) -0.0396(6) 0.8617(4)
O9 O -0.1908(6) -0.1084(6) 0.9669(5)
C32 C -0.2205(14) -0.2132(15) 0.9137(13)
H31 H -0.3079 -0.2321 0.9001
C33 C -0.187(4) -0.231(3) 0.825(4)
H32 H -0.2026 -0.3027 0.7820
H33 H -0.1032 -0.2010 0.8342
H34 H -0.2311 -0.2013 0.7945
C34 C -0.191(8) -0.217(6) 1.003(6)
H35 H -0.2263 -0.2831 0.9952
H36 H -0.2215 -0.1672 1.0560
H37 H -0.1061 -0.2020 1.0199
O5A O 0.0731(5) -0.1141(5) 0.9762(4)
C11A C 0.1587(13) -0.2282(13) 0.9995(14)
F19A F 0.1563(6) -0.2690(6) 1.0638(6)
F20A F 0.2753(6) -0.1979(6) 1.0079(6)
F21A F 0.1143(10) -0.2922(7) 0.9164(7)
C12A C 0.1056(7) -0.1351(10) 1.0427(10)
C13A C 0.0999(9) -0.0861(11) 1.1394(10)
H3A H 0.1273 -0.1110 1.1801
C14A C 0.0560(10) -0.0011(12) 1.1824(7)
C15A C 0.075(2) 0.068(4) 1.2951(16)
F22A F 0.0279(15) 0.1265(13) 1.3314(6)
F23A F -0.0305(13) -0.0079(12) 1.3118(8)
F24A F 0.1482(11) 0.0501(15) 1.3411(6)
O6A O 0.0087(5) 0.0396(6) 1.1383(4)
O9A O 0.1908(6) 0.1084(6) 1.0331(5)
C32A C 0.2205(14) 0.2132(15) 1.0863(13)
H31A H 0.3079 0.2321 1.0999
C33A C 0.187(4) 0.231(3) 1.175(4)
H32A H 0.2026 0.3027 1.2180
H33A H 0.1032 0.2010 1.1658
H34A H 0.2311 0.2013 1.2055
C34A C 0.191(8) 0.217(6) 0.997(6)
H35A H 0.2263 0.2831 1.0048
H36A H 0.2215 0.1672 0.9440
H37A H 0.1061 0.2020 0.9801
F4? F -0.132(2) -0.795(2) 0.649(2)
F5? F -0.128(3) -0.792(3) 0.540(3)
F6? F -0.034(3) -0.896(3) 0.555(3)
F10? F -0.303(8) -1.257(3) 0.456(2)
F11? F -0.397(2) -1.2968(14) 0.321(3)
F12? F -0.221(3) -1.239(2) 0.347(5)
H30? H -0.264(9) -0.066(7) 1.032(7)
loop_
_geom_bond_atom_site_label_1
_geom_bond_atom_site_label_2
_geom_bond_site_symmetry_1
_geom_bond_site_symmetry_2
Cu1 O1 1_555 1_555
O1 C2 1_555 1_555
C1 F1 1_555 1_555
F2 C1 1_555 1_555
F3 C1 1_555 1_555
C2 C1 1_555 1_555
C3 C2 1_555 1_555
H1 C3 1_555 1_555
C4 C3 1_555 1_555
C5 C4 1_555 1_555
F7 C5 1_555 1_555
F8 C5 1_555 1_555
F9 C5 1_555 1_555
O2 Cu1 1_555 1_555
Cu2 O3 1_555 1_555
O3 C7 1_555 1_555
C6 F13 1_555 1_555
F14 C6 1_555 1_555
F15 C6 1_555 1_555
C7 C6 1_555 1_555
C8 C7 1_555 1_555
H2 C8 1_555 1_555
C9 C8 1_555 1_555
C10 C9 1_555 1_555
F16 C10 1_555 1_555
F17 C10 1_555 1_555
F18 C10 1_555 1_555
O4 Cu2 1_555 1_555
Cu3 O5 1_555 1_555
O5 C12 1_555 1_555
C11 F19 1_555 1_555
F20 C11 1_555 1_555
F21 C11 1_555 1_555
C12 C11 1_555 1_555
C13 C12 1_555 1_555
H3 C13 1_555 1_555
C14 C13 1_555 1_555
C15 C14 1_555 1_555
F22 C15 1_555 1_555
F23 C15 1_555 1_555
F24 C15 1_555 1_555
O6 Cu3 1_555 1_555
O7 Cu1 1_555 1_555
N1 O7 1_555 1_555
C16 N1 1_555 1_555
C17 C16 1_555 1_555
H4 C17 1_555 1_555
H5 C17 1_555 1_555
H6 C17 1_555 1_555
C18 C16 1_555 1_555
H7 C18 1_555 1_555
H8 C18 1_555 1_555
H9 C18 1_555 1_555
C19 C16 1_555 1_555
C20 C19 1_555 1_555
H10 C20 1_555 1_555
H11 C20 1_555 1_555
H12 C20 1_555 1_555
C21 C19 1_555 1_555
H13 C21 1_555 1_555
H14 C21 1_555 1_555
H15 C21 1_555 1_555
N2 C19 1_555 1_555
O8 N2 1_555 1_555
C22 N1 1_555 1_555
C23 C22 1_555 1_555
C24 C23 1_555 1_555
H16 C24 1_555 1_555
N3 Cu2 1_555 1_555
N4 N3 1_555 1_555
C25 N4 1_555 1_555
H17 C25 1_555 1_555
H18 C25 1_555 1_555
C26 C25 1_555 1_555
H19 C26 1_555 1_555
H20 C26 1_555 1_555
C27 C26 1_555 1_555
H21 C27 1_555 1_555
H22 C27 1_555 1_555
C28 C27 1_555 1_555
H23 C28 1_555 1_555
H24 C28 1_555 1_555
C29 C28 1_555 1_555
H25 C29 1_555 1_555
H26 C29 1_555 1_555
C30 C29 1_555 1_555
H27 C30 1_555 1_555
H28 C30 1_555 1_555
C31 C23 1_555 1_555
H29 C31 1_555 1_555
O9 Cu3 1_555 1_555
C32 O9 1_555 1_555
H31 C32 1_555 1_555
C33 C32 1_555 1_555
H32 C33 1_555 1_555
H33 C33 1_555 1_555
H34 C33 1_555 1_555
C34 C32 1_555 1_555
H35 C34 1_555 1_555
H36 C34 1_555 1_555
H37 C34 1_555 1_555
Cu1_2 O7A 1_555 1_555
O1A Cu1 1_555 1_555
C1A F1A 1_555 1_555
F2A C1A 1_555 1_555
F3A C1A 1_555 1_555
C2A O1A 1_555 1_555
C3A C2A 1_555 1_555
H1A C3A 1_555 1_555
C4A C3A 1_555 1_555
C5A C4A 1_555 1_555
F7A C5A 1_555 1_555
F8A C5A 1_555 1_555
F9A C5A 1_555 1_555
O2A Cu1 1_555 1_555
Cu2_2 N3A 1_555 1_555
O3A Cu2 1_555 1_555
C6A F13A 1_555 1_555
F14A C6A 1_555 1_555
F15A C6A 1_555 1_555
C7A O3A 1_555 1_555
C8A C7A 1_555 1_555
H2A C8A 1_555 1_555
C9A C8A 1_555 1_555
C10A C9A 1_555 1_555
F16A C10A 1_555 1_555
F17A C10A 1_555 1_555
F18A C10A 1_555 1_555
O4A Cu2 1_555 1_555
O5A Cu3 1_555 1_555
C11A F19A 1_555 1_555
F20A C11A 1_555 1_555
F21A C11A 1_555 1_555
C12A O5A 1_555 1_555
C13A C12A 1_555 1_555
H3A C13A 1_555 1_555
C14A C13A 1_555 1_555
C15A C14A 1_555 1_555
F22A C15A 1_555 1_555
F23A C15A 1_555 1_555
F24A C15A 1_555 1_555
O6A Cu3 1_555 1_555
O7A N1A 1_555 1_555
O7A_2 Cu1 1_555 1_555
N1A C16A 1_555 1_555
C16A C17A 1_555 1_555
C17A H4A 1_555 1_555
H5A C17A 1_555 1_555
H6A C17A 1_555 1_555
C18A C16A 1_555 1_555
H7A C18A 1_555 1_555
H8A C18A 1_555 1_555
H9A C18A 1_555 1_555
C19A C16A 1_555 1_555
C20A C19A 1_555 1_555
H10A C20A 1_555 1_555
H11A C20A 1_555 1_555
H12A C20A 1_555 1_555
C21A C19A 1_555 1_555
H13A C21A 1_555 1_555
H14A C21A 1_555 1_555
H15A C21A 1_555 1_555
N2A C19A 1_555 1_555
O8A N2A 1_555 1_555
C22A N1A 1_555 1_555
C23A C22A 1_555 1_555
C24A C23A 1_555 1_555
H16A C24A 1_555 1_555
N3A C24A 1_555 1_555
N3A_2 Cu2 1_555 1_555
N4A N3A 1_555 1_555
C25A N4A 1_555 1_555
H17A C25A 1_555 1_555
H18A C25A 1_555 1_555
C26A C25A 1_555 1_555
H19A C26A 1_555 1_555
H20A C26A 1_555 1_555
C27A C26A 1_555 1_555
H21A C27A 1_555 1_555
H22A C27A 1_555 1_555
C28A C27A 1_555 1_555
H23A C28A 1_555 1_555
H24A C28A 1_555 1_555
C29A C28A 1_555 1_555
H25A C29A 1_555 1_555
H26A C29A 1_555 1_555
C30A C30 1_555 1_555
H27A C30A 1_555 1_555
H28A C30A 1_555 1_555
C31A C23A 1_555 1_555
H29A C31A 1_555 1_555
O9A Cu3 1_555 1_555
C32A O9A 1_555 1_555
H31A C32A 1_555 1_555
C33A C32A 1_555 1_555
H32A C33A 1_555 1_555
H33A C33A 1_555 1_555
H34A C33A 1_555 1_555
C34A C32A 1_555 1_555
H35A C34A 1_555 1_555
H36A C34A 1_555 1_555
H37A C34A 1_555 1_555
C4 O2 1_555 1_555
C9 O4 1_555 1_555
C14 O6 1_555 1_555
N2 C22 1_555 1_555
C24 N3 1_555 1_555
N4 C31 1_555 1_555
C1A C2A 1_555 1_555
C4A O2A 1_555 1_555
C6A C7A 1_555 1_555
C9A O4A 1_555 1_555
C11A C12A 1_555 1_555
C14A O6A 1_555 1_555
N2A C22A 1_555 1_555
N4A C31A 1_555 1_555
C29A C30A 1_555 1_555

#END
