
#######################################################################
#
#                 Cambridge Crystallographic Data Centre
#                                CCDC 
#
#######################################################################
#
# If this CIF has been generated from an entry in the Cambridge 
# Structural Database, then it will include bibliographic, chemical, 
# crystal, experimental, refinement or atomic coordinate data resulting 
# from the CCDC's data processing and validation procedures.
#
#######################################################################

data_RODQUX
_symmetry_cell_setting           monoclinic
_symmetry_space_group_name_H-M   'P 21/c'
_symmetry_Int_Tables_number      14
_space_group_name_Hall           '-P 2ybc'
loop_
_symmetry_equiv_pos_site_id
_symmetry_equiv_pos_as_xyz
1 x,y,z
2 -x,1/2+y,1/2-z
3 -x,-y,-z
4 x,1/2-y,1/2+z
_cell_length_a                   13.8993(4)
_cell_length_b                   9.0678(3)
_cell_length_c                   8.1654(2)
_cell_angle_alpha                90
_cell_angle_beta                 92.260(2)
_cell_angle_gamma                90
_cell_volume                     1028.33
loop_
_atom_site_label
_atom_site_type_symbol
_atom_site_fract_x
_atom_site_fract_y
_atom_site_fract_z
I1 I -0.31059(3) -0.18558(5) 1.03622(5)
K1 K 0.01753(8) 0.29219(13) 0.97719(13)
S1 S -0.13443(7) 0.02155(13) 0.83461(13)
O1 O -0.1225(2) 0.0527(4) 1.0077(4)
O2 O 0.1268(3) 0.5113(5) 1.1461(4)
O3 O -0.1159(3) -0.1297(4) 0.7934(5)
O4 O -0.0822(2) 0.1239(5) 0.7375(4)
C1 C -0.2582(3) 0.0494(5) 0.7797(5)
C2 C -0.3324(3) -0.0291(5) 0.8493(5)
C3 C -0.4274(3) -0.0039(6) 0.7969(6)
C4 C -0.4485(4) 0.0972(7) 0.6760(7)
C5 C -0.3762(5) 0.1753(7) 0.6076(8)
C6 C -0.2817(4) 0.1523(6) 0.6584(7)
H1 H 0.07210 0.47480 1.17060
H2 H 0.13980 0.51720 1.24940
H3 H -0.47680 -0.05590 0.84410
H4 H -0.51210 0.11260 0.64040
H5 H -0.39090 0.24440 0.52630
H6 H -0.23310 0.20620 0.61100
K1B K -0.01753(8) 0.70781(13) 1.02281(13)
K1B_2 K -0.01753(8) -0.29219(13) 1.02281(13)
K1A K -0.01753(8) -0.20781(13) 0.52281(13)
K1C K 0.01753(8) 0.20781(13) 0.47719(13)
O2B O -0.1268(3) 0.4887(5) 0.8539(4)
O3B O 0.1159(3) 0.1297(4) 1.2066(5)
O3A O 0.1159(3) 0.3703(4) 0.7066(5)
O4C O -0.0822(2) 0.3761(5) 1.2375(4)
H1B H -0.07210 0.52520 0.82940
H2B H -0.13980 0.48280 0.75060
loop_
_geom_bond_atom_site_label_1
_geom_bond_atom_site_label_2
_geom_bond_site_symmetry_1
_geom_bond_site_symmetry_2
I1 C2 1_555 1_555
K1 O1 1_555 1_555
S1 O1 1_555 1_555
O2 K1 1_555 1_555
O3 S1 1_555 1_555
O4 K1 1_555 1_555
C1 S1 1_555 1_555
C2 C1 1_555 1_555
C3 C2 1_555 1_555
C4 C3 1_555 1_555
C5 C4 1_555 1_555
C6 C1 1_555 1_555
H1 O2 1_555 1_555
H2 O2 1_555 1_555
H3 C3 1_555 1_555
H4 C4 1_555 1_555
H5 C5 1_555 1_555
H6 C6 1_555 1_555
K1B O2 1_555 1_555
K1B_2 O3 1_555 1_555
K1A O3 1_555 1_555
K1C O4 1_555 1_555
O2B K1 1_555 1_555
O3B K1 1_555 1_555
O3A K1 1_555 1_555
O4C K1 1_555 1_555
H1B O2B 1_555 1_555
H2B O2B 1_555 1_555
S1 O4 1_555 1_555
C5 C6 1_555 1_555
K1B O2B 1_555 1_555
K1C O3A 1_555 1_555

#END
