
#######################################################################
#
#                 Cambridge Crystallographic Data Centre
#                                CCDC 
#
#######################################################################
#
# If this CIF has been generated from an entry in the Cambridge 
# Structural Database, then it will include bibliographic, chemical, 
# crystal, experimental, refinement or atomic coordinate data resulting 
# from the CCDC's data processing and validation procedures.
#
#######################################################################

data_RODQAC
_symmetry_cell_setting           monoclinic
_symmetry_space_group_name_H-M   'P 21'
_symmetry_Int_Tables_number      4
_space_group_name_Hall           'P 2yb'
loop_
_symmetry_equiv_pos_site_id
_symmetry_equiv_pos_as_xyz
1 x,y,z
2 -x,1/2+y,-z
_cell_length_a                   9.8145(14)
_cell_length_b                   14.189(3)
_cell_length_c                   10.397(2)
_cell_angle_alpha                90
_cell_angle_beta                 94.303(12)
_cell_angle_gamma                90
_cell_volume                     1443.78
loop_
_atom_site_label
_atom_site_type_symbol
_atom_site_fract_x
_atom_site_fract_y
_atom_site_fract_z
Cu1 Cu 0.37426(7) 2.01450(6) 1.62978(7)
C1 C 1.0429(11) 2.6409(11) 1.4743(11)
H1 H 1.1309(11) 2.6702(11) 1.4884(11)
H2 H 1.0540(11) 2.5739(11) 1.4678(11)
H3 H 0.9890(11) 2.6551(11) 1.5452(11)
C2 C 0.8505(8) 2.6418(5) 1.3237(7)
C3 C 0.7946(7) 2.6720(5) 1.2050(7)
C4 C 0.8682(8) 2.7361(7) 1.1321(7)
C5 C 0.6654(7) 2.6375(5) 1.1548(6)
O1 O 0.6227(6) 2.6709(4) 1.0375(5)
C6 C 0.5013(9) 2.6177(7) 0.9976(8)
H4 H 0.5203(9) 2.5720(7) 0.9319(8)
H5 H 0.4289(9) 2.6592(7) 0.9632(8)
C7 C 0.4609(7) 2.5690(6) 1.1176(7)
H6 H 0.4437(7) 2.5021(6) 1.0993(7)
C8 C 0.3391(9) 2.6115(7) 1.1760(9)
H7 H 0.3539(9) 2.6786(7) 1.1881(9)
H8 H 0.3300(9) 2.5836(7) 1.2601(9)
C9 C 0.2073(10) 2.5960(9) 1.0914(11)
H9 H 0.1323(10) 2.6241(9) 1.1317(11)
H10 H 0.1912(10) 2.5296(9) 1.0807(11)
H11 H 0.2153(10) 2.6245(9) 1.0086(11)
C10 C 0.2874(10) 2.3223(7) 1.1954(10)
H12 H 0.2249(10) 2.2748(7) 1.1615(10)
H13 H 0.3397(10) 2.3455(7) 1.1277(10)
H14 H 0.2370(10) 2.3733(7) 1.2297(10)
C11 C 0.4711(7) 2.3376(5) 1.3539(7)
C12 C 0.5523(7) 2.2946(5) 1.4546(7)
C13 C 0.5272(7) 2.2001(5) 1.4864(7)
C14 C 0.6544(7) 2.3463(4) 1.5276(6)
O2 O 0.7249(5) 2.2979(3) 1.6217(5)
C15 C 0.8213(10) 2.3617(6) 1.6840(9)
H15 H 0.9140(10) 2.3402(6) 1.6751(9)
H16 H 0.8071(10) 2.3669(6) 1.7750(9)
C16 C 0.7965(7) 2.4564(5) 1.6166(7)
H17 H 0.8793(7) 2.4764(5) 1.5771(7)
C17 C 0.7528(8) 2.5319(6) 1.7071(8)
H18 H 0.6747(8) 2.5096(6) 1.7502(8)
H19 H 0.7245(8) 2.5873(6) 1.6573(8)
C18 C 0.8658(11) 2.5590(7) 1.8075(9)
H20 H 0.8334(11) 2.6071(7) 1.8625(9)
H21 H 0.9427(11) 2.5823(7) 1.7654(9)
H22 H 0.8928(11) 2.5047(7) 1.8583(9)
N1 N 0.9262(8) 2.7870(7) 1.0726(8)
N2 N 0.5866(6) 2.5791(4) 1.2063(6)
N3 N 0.5066(8) 2.1227(4) 1.5119(7)
N4 N 0.6876(6) 2.4338(4) 1.5147(6)
O3 O 0.9748(6) 2.6764(5) 1.3564(6)
O4 O 0.7965(5) 2.5875(4) 1.3996(5)
O5 O 0.3776(6) 2.2825(4) 1.2958(6)
O6 O 0.4809(5) 2.4220(3) 1.3199(5)
Cu1A Cu 0.62574(7) 2.51450(6) 1.37022(7)
N3A N 0.4934(8) 2.6227(4) 1.4881(7)
C19 C 0.6627(11) -0.0536(9) 1.3472(11)
H23 H 0.5967(11) -0.0269(9) 1.4033(11)
Cl1 Cl 0.5743(3) -0.1264(2) 1.2331(4)
Cl2 Cl 0.7405(5) 0.0392(3) 1.2696(4)
Cl3 Cl 0.7810(3) -0.1182(3) 1.4411(4)
C20 C 0.8493(12) 0.3418(8) 1.1181(12)
H24 H 0.9078(12) 0.3128(8) 1.0567(12)
Cl4 Cl 0.9195(5) 0.4463(3) 1.1681(7)
Cl5 Cl 0.8249(8) 0.2640(4) 1.2355(5)
Cl6 Cl 0.6880(5) 0.3662(4) 1.0376(5)
loop_
_geom_bond_atom_site_label_1
_geom_bond_atom_site_label_2
_geom_bond_site_symmetry_1
_geom_bond_site_symmetry_2
Cu1 N3 1_555 1_555
C1 H1 1_555 1_555
H2 C1 1_555 1_555
H3 C1 1_555 1_555
C2 C3 1_555 1_555
C3 C4 1_555 1_555
C4 N1 1_555 1_555
C5 C3 1_555 1_555
O1 C5 1_555 1_555
C6 O1 1_555 1_555
H4 C6 1_555 1_555
H5 C6 1_555 1_555
C7 C6 1_555 1_555
H6 C7 1_555 1_555
C8 C7 1_555 1_555
H7 C8 1_555 1_555
H8 C8 1_555 1_555
C9 C8 1_555 1_555
H9 C9 1_555 1_555
H10 C9 1_555 1_555
H11 C9 1_555 1_555
C10 H12 1_555 1_555
H13 C10 1_555 1_555
H14 C10 1_555 1_555
C11 C12 1_555 1_555
C12 C13 1_555 1_555
C13 N3 1_555 1_555
C14 C12 1_555 1_555
O2 C14 1_555 1_555
C15 O2 1_555 1_555
H15 C15 1_555 1_555
H16 C15 1_555 1_555
C16 C15 1_555 1_555
H17 C16 1_555 1_555
C17 C16 1_555 1_555
H18 C17 1_555 1_555
H19 C17 1_555 1_555
C18 C17 1_555 1_555
H20 C18 1_555 1_555
H21 C18 1_555 1_555
H22 C18 1_555 1_555
N2 C5 1_555 1_555
N4 C14 1_555 1_555
O3 C1 1_555 1_555
O4 C2 1_555 1_555
O5 C10 1_555 1_555
O6 C11 1_555 1_555
C19 H23 1_555 1_555
Cl1 C19 1_555 1_555
Cl2 C19 1_555 1_555
Cl3 C19 1_555 1_555
C20 H24 1_555 1_555
Cl4 C20 1_555 1_555
Cl5 C20 1_555 1_555
Cl6 C20 1_555 1_555
Cu1A N2 1_555 1_555
N3A Cu1A 1_555 1_555
C2 O3 1_555 1_555
C7 N2 1_555 1_555
C11 O5 1_555 1_555
C16 N4 1_555 1_555
N4 Cu1A 1_555 1_555
O4 Cu1A 1_555 1_555
O6 Cu1A 1_555 1_555

#END
