
#######################################################################
#
#                 Cambridge Crystallographic Data Centre
#                                CCDC 
#
#######################################################################
#
# If this CIF has been generated from an entry in the Cambridge 
# Structural Database, then it will include bibliographic, chemical, 
# crystal, experimental, refinement or atomic coordinate data resulting 
# from the CCDC's data processing and validation procedures.
#
#######################################################################

data_RODQOR
_symmetry_cell_setting           monoclinic
_symmetry_space_group_name_H-M   'P 21/c'
_symmetry_Int_Tables_number      14
_space_group_name_Hall           '-P 2ybc'
loop_
_symmetry_equiv_pos_site_id
_symmetry_equiv_pos_as_xyz
1 x,y,z
2 -x,1/2+y,1/2-z
3 -x,-y,-z
4 x,1/2-y,1/2+z
_cell_length_a                   6.463(4)
_cell_length_b                   7.490(4)
_cell_length_c                   26.300(15)
_cell_angle_alpha                90
_cell_angle_beta                 98.399(16)
_cell_angle_gamma                90
_cell_volume                     1259.47
loop_
_atom_site_label
_atom_site_type_symbol
_atom_site_fract_x
_atom_site_fract_y
_atom_site_fract_z
Zn1 Zn 0.5000 -0.5000 0.0000
O1 O 0.1648(4) -0.5269(5) -0.20379(11)
N1 N 0.7192(4) -0.2827(3) 0.01736(10)
N2 N 0.7294(4) 0.3034(3) 0.03187(9)
N3 N 0.5973(4) -0.5346(3) -0.07500(9)
N4 N 0.8571(7) 0.0020(3) 0.05024(17)
C1 C 0.7821(4) 0.1589(4) 0.03808(11)
C2 C 0.7750(4) -0.1441(4) 0.03062(11)
C3 C 0.7925(4) -0.5898(4) -0.07850(11)
H1 H 0.8899 -0.5924 -0.0487
C4 C 0.8557(5) -0.6427(4) -0.12406(11)
H2 H 0.9914 -0.6831 -0.1247
C5 C 0.7130(5) -0.6347(4) -0.16892(11)
H3 H 0.7504 -0.6728 -0.2000
C6 C 0.5141(5) -0.5690(4) -0.16669(11)
C7 C 0.4633(4) -0.5223(3) -0.11864(11)
H4 H 0.3290 -0.4805 -0.1169
C8 C 0.3436(5) -0.5503(5) -0.21175(12)
C9 C 0.3845(5) -0.5665(4) -0.26610(11)
C10 C 0.5699(6) -0.5147(4) -0.28267(13)
H5 H 0.6808 -0.4735 -0.2591
C11 C 0.2197(6) -0.6285(5) -0.30199(13)
H6 H 0.0948 -0.6634 -0.2913
C12 C 0.2419(8) -0.6382(5) -0.35361(14)
H7 H 0.1321 -0.6804 -0.3774
C13 C 0.4252(8) -0.5857(6) -0.36965(15)
H8 H 0.4386 -0.5915 -0.4043
C14 C 0.5896(8) -0.5245(5) -0.33469(14)
H9 H 0.7137 -0.4898 -0.3458
Zn1_2 Zn 0.5000 0.5000 0.0000
Zn1_3 Zn 0.5000 -1.5000 0.0000
O1B O 0.8352(4) -0.4731(5) 0.20379(11)
N1B N 0.2808(4) -0.7173(3) -0.01736(10)
N2B N 0.2706(4) -1.3034(3) -0.03187(9)
N2_2 N 0.7294(4) -0.6966(3) 0.03187(9)
N2B_2 N 0.2706(4) -0.3034(3) -0.03187(9)
N3B N 0.4027(4) -0.4654(3) 0.07500(9)
N4B N 0.1429(7) -1.0020(3) -0.05024(17)
C1B C 0.2179(4) -1.1589(4) -0.03808(11)
C2B C 0.2250(4) -0.8559(4) -0.03062(11)
C3B C 0.2075(4) -0.4102(4) 0.07850(11)
H1B H 0.1101 -0.4076 0.0487
C4B C 0.1443(5) -0.3573(4) 0.12406(11)
H2B H 0.0086 -0.3169 0.1247
C5B C 0.2870(5) -0.3653(4) 0.16892(11)
H3B H 0.2496 -0.3272 0.2000
C6B C 0.4859(5) -0.4310(4) 0.16669(11)
C7B C 0.5367(4) -0.4777(3) 0.11864(11)
H4B H 0.6710 -0.5195 0.1169
C8B C 0.6564(5) -0.4497(5) 0.21175(12)
C9B C 0.6155(5) -0.4335(4) 0.26610(11)
C10B C 0.4301(6) -0.4853(4) 0.28267(13)
H5B H 0.3192 -0.5265 0.2591
C11B C 0.7803(6) -0.3715(5) 0.30199(13)
H6B H 0.9052 -0.3366 0.2913
C12B C 0.7581(8) -0.3618(5) 0.35361(14)
H7B H 0.8679 -0.3196 0.3774
C13B C 0.5748(8) -0.4143(6) 0.36965(15)
H8B H 0.5614 -0.4085 0.4043
C14B C 0.4104(8) -0.4755(5) 0.33469(14)
H9B H 0.2863 -0.5102 0.3458
loop_
_geom_bond_atom_site_label_1
_geom_bond_atom_site_label_2
_geom_bond_site_symmetry_1
_geom_bond_site_symmetry_2
Zn1 N1 1_555 1_555
O1 C8 1_555 1_555
N1 C2 1_555 1_555
N2 C1 1_555 1_555
N3 Zn1 1_555 1_555
N4 C1 1_555 1_555
C2 N4 1_555 1_555
C3 N3 1_555 1_555
H1 C3 1_555 1_555
C4 C3 1_555 1_555
H2 C4 1_555 1_555
C5 C4 1_555 1_555
H3 C5 1_555 1_555
C6 C5 1_555 1_555
C7 N3 1_555 1_555
H4 C7 1_555 1_555
C8 C6 1_555 1_555
C9 C8 1_555 1_555
C10 C9 1_555 1_555
H5 C10 1_555 1_555
C11 C9 1_555 1_555
H6 C11 1_555 1_555
C12 C11 1_555 1_555
H7 C12 1_555 1_555
C13 C12 1_555 1_555
H8 C13 1_555 1_555
C14 C10 1_555 1_555
H9 C14 1_555 1_555
Zn1_2 N2 1_555 1_555
Zn1_3 N2B 1_555 1_555
O1B C8B 1_555 1_555
N1B Zn1 1_555 1_555
N2B C1B 1_555 1_555
N2_2 Zn1 1_555 1_555
N2B_2 Zn1 1_555 1_555
N3B Zn1 1_555 1_555
N4B C1B 1_555 1_555
C2B N1B 1_555 1_555
C3B N3B 1_555 1_555
H1B C3B 1_555 1_555
C4B C3B 1_555 1_555
H2B C4B 1_555 1_555
C5B C4B 1_555 1_555
H3B C5B 1_555 1_555
C6B C5B 1_555 1_555
C7B N3B 1_555 1_555
H4B C7B 1_555 1_555
C8B C6B 1_555 1_555
C9B C8B 1_555 1_555
C10B C9B 1_555 1_555
H5B C10B 1_555 1_555
C11B C9B 1_555 1_555
H6B C11B 1_555 1_555
C12B C11B 1_555 1_555
H7B C12B 1_555 1_555
C13B C12B 1_555 1_555
H8B C13B 1_555 1_555
C14B C10B 1_555 1_555
H9B C14B 1_555 1_555
C6 C7 1_555 1_555
C13 C14 1_555 1_555
N4B C2B 1_555 1_555
C6B C7B 1_555 1_555
C13B C14B 1_555 1_555

#END
