
#######################################################################
#
#                 Cambridge Crystallographic Data Centre
#                                CCDC 
#
#######################################################################
#
# If this CIF has been generated from an entry in the Cambridge 
# Structural Database, then it will include bibliographic, chemical, 
# crystal, experimental, refinement or atomic coordinate data resulting 
# from the CCDC's data processing and validation procedures.
#
#######################################################################

data_RODSOT
_symmetry_cell_setting           monoclinic
_symmetry_space_group_name_H-M   'P 21/c'
_symmetry_Int_Tables_number      14
_space_group_name_Hall           '-P 2ybc'
loop_
_symmetry_equiv_pos_site_id
_symmetry_equiv_pos_as_xyz
1 x,y,z
2 -x,1/2+y,1/2-z
3 -x,-y,-z
4 x,1/2-y,1/2+z
_cell_length_a                   7.0289(11)
_cell_length_b                   8.4331(11)
_cell_length_c                   20.220(4)
_cell_angle_alpha                90
_cell_angle_beta                 96.757(10)
_cell_angle_gamma                90
_cell_volume                     1190.22
loop_
_atom_site_label
_atom_site_type_symbol
_atom_site_fract_x
_atom_site_fract_y
_atom_site_fract_z
Co1 Co -0.19156(5) -0.09777(4) 0.278620(16)
C1 C -0.5028(3) -0.3426(3) 0.25458(12)
C2 C -0.4852(4) -0.3668(4) 0.32829(13)
H1 H -0.6097 -0.3609 0.3444
H2 H -0.4281 -0.4690 0.3404
C3 C -0.2568(4) -0.2658(3) 0.41570(11)
C4 C -0.3194(4) -0.3472(4) 0.46743(13)
H3 H -0.4403 -0.3935 0.4625
C5 C -0.1997(4) -0.3608(4) 0.52832(13)
H4 H -0.2424 -0.4159 0.5636
C6 C -0.0216(4) -0.2935(3) 0.53590(13)
H5 H 0.0553 -0.3022 0.5764
C7 C 0.0466(4) -0.2110(3) 0.48265(12)
C8 C 0.2301(4) -0.1410(4) 0.48673(14)
H6 H 0.3132 -0.1476 0.5260
C9 C 0.2846(4) -0.0640(4) 0.43296(15)
H7 H 0.4052 -0.0175 0.4353
C10 C 0.1581(4) -0.0547(4) 0.37384(14)
H8 H 0.1980 -0.0016 0.3376
C11 C -0.0727(3) -0.1963(3) 0.42150(11)
N1 N -0.6256(3) -0.4135(3) 0.20957(10)
N2 N -0.5887(3) -0.3533(3) 0.15007(10)
N3 N -0.4486(3) -0.2518(3) 0.15993(11)
N4 N -0.3906(3) -0.2426(3) 0.22643(10)
N5 N -0.0151(3) -0.1182(2) 0.36741(10)
Cl1 Cl 0.00233(11) -0.00803(11) 0.20476(4)
O1 O -0.3637(3) -0.2404(2) 0.35523(8)
Co1A Co -0.80844(5) -0.59777(4) 0.221380(16)
N1A N -0.3744(3) 0.0865(3) 0.29043(10)
loop_
_geom_bond_atom_site_label_1
_geom_bond_atom_site_label_2
_geom_bond_site_symmetry_1
_geom_bond_site_symmetry_2
Co1 N4 1_555 1_555
C1 C2 1_555 1_555
C2 H1 1_555 1_555
H2 C2 1_555 1_555
C3 C4 1_555 1_555
C4 H3 1_555 1_555
C5 C4 1_555 1_555
H4 C5 1_555 1_555
C6 C5 1_555 1_555
H5 C6 1_555 1_555
C7 C6 1_555 1_555
C8 C7 1_555 1_555
H6 C8 1_555 1_555
C9 C8 1_555 1_555
H7 C9 1_555 1_555
C10 C9 1_555 1_555
H8 C10 1_555 1_555
C11 C3 1_555 1_555
N1 C1 1_555 1_555
N2 N1 1_555 1_555
N3 N2 1_555 1_555
N4 C1 1_555 1_555
N5 Co1 1_555 1_555
Cl1 Co1 1_555 1_555
O1 Co1 1_555 1_555
Co1A N1 1_555 1_555
N1A Co1 1_555 1_555
C2 O1 1_555 1_555
C3 O1 1_555 1_555
C7 C11 1_555 1_555
C10 N5 1_555 1_555
C11 N5 1_555 1_555
N3 N4 1_555 1_555

#END
