
#######################################################################
#
#                 Cambridge Crystallographic Data Centre
#                                CCDC 
#
#######################################################################
#
# If this CIF has been generated from an entry in the Cambridge 
# Structural Database, then it will include bibliographic, chemical, 
# crystal, experimental, refinement or atomic coordinate data resulting 
# from the CCDC's data processing and validation procedures.
#
#######################################################################

data_RODSAG
_symmetry_cell_setting           orthorhombic
_symmetry_space_group_name_H-M   'P b c a'
_symmetry_Int_Tables_number      61
_space_group_name_Hall           '-P 2ac 2ab'
loop_
_symmetry_equiv_pos_site_id
_symmetry_equiv_pos_as_xyz
1 x,y,z
2 1/2-x,-y,1/2+z
3 1/2+x,1/2-y,-z
4 -x,1/2+y,1/2-z
5 -x,-y,-z
6 1/2+x,y,1/2-z
7 1/2-x,1/2+y,z
8 x,1/2-y,1/2+z
_cell_length_a                   13.5477(11)
_cell_length_b                   20.560(2)
_cell_length_c                   8.7151(7)
_cell_angle_alpha                90
_cell_angle_beta                 90
_cell_angle_gamma                90
_cell_volume                     2427.51
loop_
_atom_site_label
_atom_site_type_symbol
_atom_site_fract_x
_atom_site_fract_y
_atom_site_fract_z
I1 I 0.471954(11) -0.095200(7) 0.93638(2)
Cu1 Cu 0.60657(2) -0.003145(17) 0.90002(4)
Cu2 Cu 0.29907(2) -0.091178(13) 0.76711(4)
N1 N 0.64309(14) 0.00891(9) 0.6754(2)
N2 N 0.72949(14) -0.01608(9) 0.6283(2)
N3 N 0.75628(14) 0.01158(9) 0.5004(2)
N4 N 0.68715(14) 0.05466(9) 0.4573(2)
N5 N 0.29749(15) 0.22195(9) 0.6719(3)
N6 N 0.23071(15) 0.31391(10) 0.7502(2)
C1 C 0.61826(16) 0.05206(11) 0.5670(3)
C2 C 0.52927(17) 0.09300(11) 0.5753(3)
C3 C 0.52800(18) 0.15463(12) 0.5101(3)
H1 H 0.5804 0.1680 0.4487
C4 C 0.44969(19) 0.19638(12) 0.5354(3)
H2 H 0.4487 0.2373 0.4901
C5 C 0.37285(17) 0.17657(12) 0.6288(3)
C6 C 0.37051(18) 0.11464(12) 0.6881(3)
H3 H 0.3168 0.1010 0.7462
C7 C 0.44858(17) 0.07250(12) 0.6610(3)
H4 H 0.4469 0.0305 0.7002
C8 C 0.30840(18) 0.28682(12) 0.6895(3)
H5 H 0.3649 0.3096 0.6615
C9 C 0.1652(2) 0.26366(13) 0.7719(4)
H6 H 0.1023 0.2681 0.8131
C10 C 0.20506(19) 0.20721(13) 0.7252(4)
H7 H 0.1758 0.1663 0.7284
I1D I 0.528046(11) 0.095200(7) 1.06362(2)
Cu1A Cu 0.89343(2) 0.003145(17) 0.40002(4)
Cu1D Cu 0.39343(2) 0.003145(17) 1.09998(4)
Cu2D Cu 0.70093(2) 0.091178(13) 0.23289(4)
Cu2E Cu 0.79907(2) -0.091178(13) 0.73289(4)
Cu2F Cu 0.20093(2) 0.408822(13) 0.76711(4)
N2E N 0.22949(14) -0.01608(9) 0.8717(2)
N3A N 0.74372(14) -0.01158(9) 1.0004(2)
N4D N 0.31285(14) -0.05466(9) 0.5427(2)
N6F N 0.26929(15) -0.18609(10) 0.7502(2)
loop_
_geom_bond_atom_site_label_1
_geom_bond_atom_site_label_2
_geom_bond_site_symmetry_1
_geom_bond_site_symmetry_2
I1 Cu1 1_555 1_555
Cu1 N1 1_555 1_555
Cu2 I1 1_555 1_555
N1 N2 1_555 1_555
N2 N3 1_555 1_555
N3 N4 1_555 1_555
N4 C1 1_555 1_555
N5 C5 1_555 1_555
N6 C8 1_555 1_555
C1 N1 1_555 1_555
C2 C1 1_555 1_555
C3 C2 1_555 1_555
H1 C3 1_555 1_555
C4 C3 1_555 1_555
H2 C4 1_555 1_555
C5 C4 1_555 1_555
C6 C5 1_555 1_555
H3 C6 1_555 1_555
C7 C2 1_555 1_555
H4 C7 1_555 1_555
C8 N5 1_555 1_555
H5 C8 1_555 1_555
C9 N6 1_555 1_555
H6 C9 1_555 1_555
C10 N5 1_555 1_555
H7 C10 1_555 1_555
I1D Cu1 1_555 1_555
Cu1A N3 1_555 1_555
Cu1D I1 1_555 1_555
Cu2D N4 1_555 1_555
Cu2E N2 1_555 1_555
Cu2F N6 1_555 1_555
N2E Cu2 1_555 1_555
N3A Cu1 1_555 1_555
N4D Cu2 1_555 1_555
N6F Cu2 1_555 1_555
C6 C7 1_555 1_555
C9 C10 1_555 1_555
I1D Cu1D 1_555 1_555

#END
