
#######################################################################
#
#                 Cambridge Crystallographic Data Centre
#                                CCDC 
#
#######################################################################
#
# If this CIF has been generated from an entry in the Cambridge 
# Structural Database, then it will include bibliographic, chemical, 
# crystal, experimental, refinement or atomic coordinate data resulting 
# from the CCDC's data processing and validation procedures.
#
#######################################################################

data_ROFNOR
_symmetry_cell_setting           triclinic
_symmetry_space_group_name_H-M   'P -1'
_symmetry_Int_Tables_number      2
_space_group_name_Hall           '-P 1'
loop_
_symmetry_equiv_pos_site_id
_symmetry_equiv_pos_as_xyz
1 x,y,z
2 -x,-y,-z
_cell_length_a                   12.008(2)
_cell_length_b                   12.837(3)
_cell_length_c                   13.140(3)
_cell_angle_alpha                98.260(4)
_cell_angle_beta                 111.410(4)
_cell_angle_gamma                104.803(4)
_cell_volume                     1758.83
loop_
_atom_site_label
_atom_site_type_symbol
_atom_site_fract_x
_atom_site_fract_y
_atom_site_fract_z
Cu1 Cu 1.22479(4) 0.25674(3) 0.75756(3)
Cu2 Cu 1.5000 0.5000 1.0000
Cu3 Cu 1.0000 0.0000 0.5000
N1 N 1.3779(3) 0.3625(2) 0.7504(2)
N2 N 1.4766(3) 0.4478(2) 0.8376(2)
N3 N 1.5070(3) 0.4462(3) 0.6857(2)
N4 N 1.5566(5) 0.4727(5) 0.6070(4)
H1 H 1.609(5) 0.451(4) 0.615(4)
H2 H 1.559(7) 0.528(6) 0.613(6)
N5 N 1.3370(3) 0.2471(3) 0.9172(2)
N6 N 1.4424(3) 0.3310(3) 1.0035(2)
N7 N 1.4086(3) 0.1810(3) 1.0617(3)
N8 N 1.4245(5) 0.1119(4) 1.1365(4)
H3 H 1.374(4) 0.101(4) 1.150(4)
H4 H 1.435(5) 0.061(4) 1.106(4)
N9 N 1.1937(3) 0.4107(3) 0.8401(3)
N10 N 1.2923(3) 0.4895(3) 0.9339(3)
N11 N 1.1188(3) 0.5268(3) 0.9075(3)
N12 N 1.0370(5) 0.5811(4) 0.9256(5)
H5 H 0.9532 0.5432 0.8960
H6 H 1.0650 0.6530 0.9651
N13 N 1.0716(3) 0.1512(2) 0.7621(2)
N14 N 0.9923(3) 0.0538(2) 0.6787(3)
N15 N 0.9188(3) 0.0765(3) 0.8059(3)
N16 N 0.8344(4) 0.0579(4) 0.8583(4)
H7 H 0.882(5) 0.064(4) 0.926(4)
H8 H 0.805(4) 0.112(4) 0.852(4)
N17 N 1.1085(3) 0.2572(2) 0.5924(3)
N18 N 1.0450(3) 0.1657(2) 0.4979(3)
N19 N 1.0267(3) 0.3146(3) 0.4441(3)
N20 N 0.9921(4) 0.3885(3) 0.3778(4)
H9 H 0.915(5) 0.365(4) 0.345(4)
H10 H 1.028(5) 0.383(4) 0.336(4)
N21 N 1.2703(3) 0.1038(3) 0.6724(3)
N22 N 1.1848(3) 0.0173(3) 0.5785(3)
N23 N 1.3670(3) -0.0056(3) 0.6296(3)
N24 N 1.4667(4) -0.0482(5) 0.6349(5)
H11 H 1.461(7) -0.086(6) 0.676(6)
H12 H 1.473(8) -0.041(6) 0.563(7)
C1 C 1.3993(4) 0.3636(3) 0.6598(3)
H13 H 1.3477 0.3145 0.5885
C2 C 1.5529(3) 0.4957(3) 0.7956(3)
H14 H 1.6281 0.5554 0.8363
C3 C 1.3197(4) 0.1590(3) 0.9558(3)
H15 H 1.2552 0.0909 0.9159
C4 C 1.4828(4) 0.2870(3) 1.0880(3)
H16 H 1.5531 0.3242 1.1564
C5 C 1.0918(4) 0.4361(4) 0.8258(4)
H17 H 1.0119 0.3972 0.7675
C6 C 1.2433(4) 0.5572(4) 0.9713(4)
H18 H 1.2889 0.6186 1.0340
C7 C 1.0245(3) 0.1625(3) 0.8361(3)
H19 H 1.0593 0.2218 0.9006
C8 C 0.9013(4) 0.0116(3) 0.7086(3)
H20 H 0.8338 -0.0545 0.6677
C9 C 1.0943(4) 0.3446(3) 0.5566(3)
H21 H 1.1264 0.4171 0.6025
C10 C 0.9978(4) 0.2038(3) 0.4105(3)
H22 H 0.9512 0.1605 0.3361
C11 C 1.3787(4) 0.0864(4) 0.7000(4)
H23 H 1.4540 0.1320 0.7606
C12 C 1.2452(4) -0.0470(4) 0.5549(3)
H24 H 1.2093 -0.1114 0.4956
Cu1A Cu 0.77521(4) -0.25674(3) 0.24244(3)
N1A N 0.6221(3) -0.3625(2) 0.2496(2)
N2A N 0.5234(3) -0.4478(2) 0.1624(2)
N3A N 0.4930(3) -0.4462(3) 0.3143(2)
N4A N 0.4434(5) -0.4727(5) 0.3930(4)
H1A H 0.391(5) -0.451(4) 0.385(4)
H2A H 0.441(7) -0.528(6) 0.387(6)
N5A N 0.6630(3) -0.2471(3) 0.0828(2)
N6A N 0.5576(3) -0.3310(3) -0.0035(2)
N7A N 0.5914(3) -0.1810(3) -0.0617(3)
N8A N 0.5755(5) -0.1119(4) -0.1365(4)
H3A H 0.626(4) -0.101(4) -0.150(4)
H4A H 0.565(5) -0.061(4) -0.106(4)
N9A N 0.8063(3) -0.4107(3) 0.1599(3)
N10A N 0.7077(3) -0.4895(3) 0.0661(3)
N11A N 0.8812(3) -0.5268(3) 0.0925(3)
N12A N 0.9630(5) -0.5811(4) 0.0744(5)
H5A H 1.0468 -0.5432 0.1040
H6A H 0.9350 -0.6530 0.0349
N13A N 0.9284(3) -0.1512(2) 0.2379(2)
N14A N 1.0077(3) -0.0538(2) 0.3213(3)
N15A N 1.0812(3) -0.0765(3) 0.1941(3)
N16A N 1.1656(4) -0.0579(4) 0.1417(4)
H7A H 1.118(5) -0.064(4) 0.074(4)
H8A H 1.195(4) -0.112(4) 0.148(4)
N17A N 0.8915(3) -0.2572(2) 0.4076(3)
N18A N 0.9550(3) -0.1657(2) 0.5021(3)
N19A N 0.9733(3) -0.3146(3) 0.5559(3)
N20A N 1.0079(4) -0.3885(3) 0.6222(4)
H9A H 1.085(5) -0.365(4) 0.655(4)
H10A H 0.972(5) -0.383(4) 0.664(4)
N21A N 0.7297(3) -0.1038(3) 0.3276(3)
N22A N 0.8152(3) -0.0173(3) 0.4215(3)
N23A N 0.6330(3) 0.0056(3) 0.3704(3)
N24A N 0.5333(4) 0.0482(5) 0.3651(5)
H11A H 0.539(7) 0.086(6) 0.324(6)
H12A H 0.527(8) 0.041(6) 0.437(7)
C1A C 0.6007(4) -0.3636(3) 0.3402(3)
H13A H 0.6523 -0.3145 0.4115
C2A C 0.4471(3) -0.4957(3) 0.2044(3)
H14A H 0.3719 -0.5554 0.1637
C3A C 0.6803(4) -0.1590(3) 0.0442(3)
H15A H 0.7448 -0.0909 0.0841
C4A C 0.5172(4) -0.2870(3) -0.0880(3)
H16A H 0.4469 -0.3242 -0.1564
C5A C 0.9082(4) -0.4361(4) 0.1742(4)
H17A H 0.9881 -0.3972 0.2325
C6A C 0.7567(4) -0.5572(4) 0.0287(4)
H18A H 0.7111 -0.6186 -0.0340
C7A C 0.9755(3) -0.1625(3) 0.1639(3)
H19A H 0.9407 -0.2218 0.0994
C8A C 1.0987(4) -0.0116(3) 0.2914(3)
H20A H 1.1662 0.0545 0.3323
C9A C 0.9057(4) -0.3446(3) 0.4434(3)
H21A H 0.8736 -0.4171 0.3975
C10A C 1.0022(4) -0.2038(3) 0.5895(3)
H22A H 1.0488 -0.1605 0.6639
C11A C 0.6213(4) -0.0864(4) 0.3000(4)
H23A H 0.5460 -0.1320 0.2394
C12A C 0.7548(4) 0.0470(4) 0.4451(3)
H24A H 0.7907 0.1114 0.5044
Cu2_2 Cu 0.5000 -0.5000 0.0000
N2A_2 N 1.5234(3) 0.5522(2) 1.1624(2)
N6A_2 N 1.5576(3) 0.6690(3) 0.9965(2)
N10A_2 N 1.7077(3) 0.5105(3) 1.0661(3)
Cl1 Cl 0.69629(9) 0.37493(9) 0.41624(9)
O1 O 0.7337(3) 0.4705(3) 0.5079(3)
O2 O 0.7178(3) 0.4147(3) 0.3258(2)
O3 O 0.5650(3) 0.3156(3) 0.3788(3)
O4 O 0.7693(4) 0.3072(4) 0.4507(4)
Cl2 Cl 0.83639(9) 0.75137(9) 0.84204(9)
O5 O 0.8388(3) 0.6728(3) 0.9101(3)
O6 O 0.7073(3) 0.7424(3) 0.7807(3)
O7 O 0.9071(4) 0.8609(3) 0.9159(4)
O8 O 0.8908(4) 0.7291(4) 0.7677(3)
Cl3 Cl 1.27209(11) 0.85184(10) 0.89689(10)
O9 O 1.3876(4) 0.8822(4) 0.9944(4)
O10 O 1.1835(4) 0.8907(5) 0.9176(5)
O11 O 1.2941(7) 0.9024(6) 0.8180(6)
O12 O 1.2305(5) 0.7378(3) 0.8506(4)
Cl4 Cl 0.28513(11) 0.72969(10) 0.27882(10)
O13 O 0.3080(4) 0.7697(3) 0.1899(3)
O14 O 0.4029(4) 0.7646(4) 0.3772(4)
O15 O 0.1990(4) 0.7735(4) 0.3048(4)
O16 O 0.2347(4) 0.6103(3) 0.2464(4)
O17 O 0.6491(5) 0.8035(4) 0.5636(4)
H25 H 0.578(7) 0.804(5) 0.524(6)
H26 H 0.639(7) 0.806(7) 0.616(6)
loop_
_geom_bond_atom_site_label_1
_geom_bond_atom_site_label_2
_geom_bond_site_symmetry_1
_geom_bond_site_symmetry_2
Cu1 N1 1_555 1_555
Cu2 N2 1_555 1_555
Cu3 N14 1_555 1_555
N1 N2 1_555 1_555
N2 C2 1_555 1_555
N3 N4 1_555 1_555
N4 H1 1_555 1_555
H2 N4 1_555 1_555
N5 Cu1 1_555 1_555
N6 Cu2 1_555 1_555
N7 N8 1_555 1_555
N8 H3 1_555 1_555
H4 N8 1_555 1_555
N9 Cu1 1_555 1_555
N10 Cu2 1_555 1_555
N11 N12 1_555 1_555
N12 H5 1_555 1_555
H6 N12 1_555 1_555
N13 Cu1 1_555 1_555
N14 N13 1_555 1_555
N15 N16 1_555 1_555
N16 H7 1_555 1_555
H8 N16 1_555 1_555
N17 Cu1 1_555 1_555
N18 Cu3 1_555 1_555
N19 N20 1_555 1_555
N20 H9 1_555 1_555
H10 N20 1_555 1_555
N21 Cu1 1_555 1_555
N22 Cu3 1_555 1_555
N23 N24 1_555 1_555
N24 H11 1_555 1_555
H12 N24 1_555 1_555
C1 N1 1_555 1_555
H13 C1 1_555 1_555
C2 N3 1_555 1_555
H14 C2 1_555 1_555
C3 N5 1_555 1_555
H15 C3 1_555 1_555
C4 N6 1_555 1_555
H16 C4 1_555 1_555
C5 N9 1_555 1_555
H17 C5 1_555 1_555
C6 N10 1_555 1_555
H18 C6 1_555 1_555
C7 N13 1_555 1_555
H19 C7 1_555 1_555
C8 N14 1_555 1_555
H20 C8 1_555 1_555
C9 N17 1_555 1_555
H21 C9 1_555 1_555
C10 N18 1_555 1_555
H22 C10 1_555 1_555
C11 N21 1_555 1_555
H23 C11 1_555 1_555
C12 N22 1_555 1_555
H24 C12 1_555 1_555
Cl1 O1 1_555 1_555
O2 Cl1 1_555 1_555
O3 Cl1 1_555 1_555
O4 Cl1 1_555 1_555
Cl2 O5 1_555 1_555
O6 Cl2 1_555 1_555
O7 Cl2 1_555 1_555
O8 Cl2 1_555 1_555
Cl3 O9 1_555 1_555
O10 Cl3 1_555 1_555
O11 Cl3 1_555 1_555
O12 Cl3 1_555 1_555
Cl4 O13 1_555 1_555
O14 Cl4 1_555 1_555
O15 Cl4 1_555 1_555
O16 Cl4 1_555 1_555
O17 H25 1_555 1_555
H26 O17 1_555 1_555
Cu1A N1A 1_555 1_555
N1A N2A 1_555 1_555
N2A C2A 1_555 1_555
N3A N4A 1_555 1_555
N4A H1A 1_555 1_555
H2A N4A 1_555 1_555
N5A Cu1A 1_555 1_555
N6A N5A 1_555 1_555
N7A N8A 1_555 1_555
N8A H3A 1_555 1_555
H4A N8A 1_555 1_555
N9A Cu1A 1_555 1_555
N10A N9A 1_555 1_555
N11A N12A 1_555 1_555
N12A H5A 1_555 1_555
H6A N12A 1_555 1_555
N13A Cu1A 1_555 1_555
N14A Cu3 1_555 1_555
N15A N16A 1_555 1_555
N16A H7A 1_555 1_555
H8A N16A 1_555 1_555
N17A Cu1A 1_555 1_555
N18A Cu3 1_555 1_555
N19A N20A 1_555 1_555
N20A H9A 1_555 1_555
H10A N20A 1_555 1_555
N21A Cu1A 1_555 1_555
N22A Cu3 1_555 1_555
N23A N24A 1_555 1_555
N24A H11A 1_555 1_555
H12A N24A 1_555 1_555
C1A N1A 1_555 1_555
H13A C1A 1_555 1_555
C2A N3A 1_555 1_555
H14A C2A 1_555 1_555
C3A N5A 1_555 1_555
H15A C3A 1_555 1_555
C4A N6A 1_555 1_555
H16A C4A 1_555 1_555
C5A N9A 1_555 1_555
H17A C5A 1_555 1_555
C6A N10A 1_555 1_555
H18A C6A 1_555 1_555
C7A N13A 1_555 1_555
H19A C7A 1_555 1_555
C8A N14A 1_555 1_555
H20A C8A 1_555 1_555
C9A N17A 1_555 1_555
H21A C9A 1_555 1_555
C10A N18A 1_555 1_555
H22A C10A 1_555 1_555
C11A N21A 1_555 1_555
H23A C11A 1_555 1_555
C12A N22A 1_555 1_555
H24A C12A 1_555 1_555
Cu2_2 N2A 1_555 1_555
N2A_2 Cu2 1_555 1_555
N6A_2 Cu2 1_555 1_555
N10A_2 Cu2 1_555 1_555
N3 C1 1_555 1_555
N5 N6 1_555 1_555
N7 C3 1_555 1_555
N7 C4 1_555 1_555
N9 N10 1_555 1_555
N11 C5 1_555 1_555
N11 C6 1_555 1_555
N15 C7 1_555 1_555
N15 C8 1_555 1_555
N17 N18 1_555 1_555
N19 C9 1_555 1_555
N19 C10 1_555 1_555
N21 N22 1_555 1_555
N23 C11 1_555 1_555
N23 C12 1_555 1_555
N3A C1A 1_555 1_555
N6A Cu2_2 1_555 1_555
N7A C3A 1_555 1_555
N7A C4A 1_555 1_555
N10A Cu2_2 1_555 1_555
N11A C5A 1_555 1_555
N11A C6A 1_555 1_555
N13A N14A 1_555 1_555
N15A C7A 1_555 1_555
N15A C8A 1_555 1_555
N17A N18A 1_555 1_555
N19A C9A 1_555 1_555
N19A C10A 1_555 1_555
N21A N22A 1_555 1_555
N23A C11A 1_555 1_555
N23A C12A 1_555 1_555

#END
