
#######################################################################
#
#                 Cambridge Crystallographic Data Centre
#                                CCDC 
#
#######################################################################
#
# If this CIF has been generated from an entry in the Cambridge 
# Structural Database, then it will include bibliographic, chemical, 
# crystal, experimental, refinement or atomic coordinate data resulting 
# from the CCDC's data processing and validation procedures.
#
#######################################################################

data_ROFPIL
_symmetry_cell_setting           monoclinic
_symmetry_space_group_name_H-M   'C 2/m'
_symmetry_Int_Tables_number      12
_space_group_name_Hall           '-C 2y'
loop_
_symmetry_equiv_pos_site_id
_symmetry_equiv_pos_as_xyz
1 x,y,z
2 -x,y,-z
3 1/2+x,1/2+y,z
4 1/2-x,1/2+y,-z
5 -x,-y,-z
6 x,-y,z
7 1/2-x,1/2-y,-z
8 1/2+x,1/2-y,z
_cell_length_a                   14.427(3)
_cell_length_b                   20.995(2)
_cell_length_c                   10.157(2)
_cell_angle_alpha                90
_cell_angle_beta                 92.23(1)
_cell_angle_gamma                90
_cell_volume                     3074.17
loop_
_atom_site_label
_atom_site_type_symbol
_atom_site_fract_x
_atom_site_fract_y
_atom_site_fract_z
F1 F 0.6094(4) 0.2086(2) -0.4262(4)
F2 F 0.5242(3) 0.2775(3) -0.3516(5)
F3 F 0.6484(5) 0.3039(3) -0.4219(5)
F4 F 0.9198(4) 0.4307(2) -0.1366(6)
F5 F 0.9097(4) 0.3710(3) -0.3020(5)
F6 F 1.0162(3) 0.3569(2) -0.1570(5)
O1 O 0.6351(3) 0.2929(2) -0.1392(4)
O2 O 0.7171(3) 0.2089(2) -0.2105(4)
O3 O 0.7997(3) 0.3523(2) -0.0462(4)
O4 O 0.6167(3) 0.2310(2) 0.1167(4)
O5 O 0.6166(3) 0.3735(1) 0.1122(4)
C1 C 0.6582(4) 0.2526(2) -0.2217(5)
C2 C 0.6104(5) 0.2594(3) -0.3586(6)
C3 C 0.8643(4) 0.3272(2) -0.1051(6)
C4 C 0.9275(5) 0.3729(3) -0.1765(7)
C5 C 0.7040(4) 0.4685(2) 0.1014(6)
C6 C 0.6193(4) 0.4318(2) 0.1247(5)
C7 C 0.5366(3) 0.4666(2) 0.1628(5)
C8 C 0.4565(4) 0.4338(2) 0.1958(5)
C9 C 0.3784(4) 0.4671(3) 0.2294(6)
Rh1 Rh 0.70592(3) 0.29446(2) 0.03829(4)
H1 H 0.759 0.447 0.076
H2 H 0.456 0.388 0.195
H3 H 0.323 0.444 0.252
O2F O 0.7829(3) 0.2911(2) 0.2105(4)
C1F C 0.8418(4) 0.2474(2) 0.2217(5)
O1F O 0.8649(3) 0.2071(2) 0.1392(4)
Rh1F Rh 0.79408(3) 0.20554(2) -0.03829(4)
O3F O 0.7003(3) 0.1477(2) 0.0462(4)
C3F C 0.6357(4) 0.1728(2) 0.1051(6)
O4F O 0.8833(3) 0.2690(2) -0.1167(4)
O5F O 0.8834(3) 0.1265(1) -0.1122(4)
C4F C 0.5725(5) 0.1271(3) 0.1765(7)
F4F F 0.5802(4) 0.0693(2) 0.1366(6)
F5F F 0.5903(4) 0.1290(3) 0.3020(5)
F6F F 0.4838(3) 0.1431(2) 0.1570(5)
C2F C 0.8896(5) 0.2406(3) 0.3586(6)
F1F F 0.8906(4) 0.2914(2) 0.4262(4)
F2F F 0.9758(3) 0.2225(3) 0.3516(5)
F3F F 0.8516(5) 0.1961(3) 0.4219(5)
C5E C 0.7040(4) 0.5315(2) 0.1014(6)
C6E C 0.6193(4) 0.5682(2) 0.1247(5)
O5E O 0.6166(3) 0.6265(1) 0.1122(4)
Rh1E Rh 0.70592(3) 0.70554(2) 0.03829(4)
C7E C 0.5366(3) 0.5334(2) 0.1628(5)
H1E H 0.759 0.553 0.076
C8E C 0.4565(4) 0.5662(2) 0.1958(5)
C9E C 0.3784(4) 0.5329(3) 0.2294(6)
H2E H 0.456 0.612 0.195
H3E H 0.323 0.556 0.252
C10 C 0.2636(9) 0.0623(5) 0.4188(9)
C11 C 0.1862(8) 0.0313(5) 0.4409(8)
C12 C 0.3466(8) 0.0336(6) 0.396(1)
H4 H 0.259 0.109 0.420
H5 H 0.128 0.055 0.457
H6 H 0.400 0.062 0.382
C11E C 0.1862(8) -0.0313(5) 0.4409(8)
C10E C 0.2636(9) -0.0623(5) 0.4188(9)
C12E C 0.3466(8) -0.0336(6) 0.396(1)
H6E H 0.400 -0.062 0.382
H4E H 0.259 -0.109 0.420
H5E H 0.128 -0.055 0.457
loop_
_geom_bond_atom_site_label_1
_geom_bond_atom_site_label_2
_geom_bond_site_symmetry_1
_geom_bond_site_symmetry_2
F1 C2 1_555 1_555
F2 C2 1_555 1_555
F3 C2 1_555 1_555
F4 C4 1_555 1_555
F5 C4 1_555 1_555
F6 C4 1_555 1_555
O1 C1 1_555 1_555
O2 C1 1_555 1_555
O3 C3 1_555 1_555
O4 Rh1 1_555 1_555
O5 C6 1_555 1_555
C1 C2 1_555 1_555
C3 C4 1_555 1_555
C5 C6 1_555 1_555
C6 C7 1_555 1_555
C7 C8 1_555 1_555
C8 C9 1_555 1_555
C9 H3 1_555 1_555
Rh1 O1 1_555 1_555
H1 C5 1_555 1_555
H2 C8 1_555 1_555
C10 C11 1_555 1_555
C11 H5 1_555 1_555
C12 C10 1_555 1_555
H4 C10 1_555 1_555
H6 C12 1_555 1_555
O2F Rh1 1_555 1_555
C1F O2F 1_555 1_555
O1F C1F 1_555 1_555
Rh1F O2 1_555 1_555
O3F Rh1F 1_555 1_555
C3F O4 1_555 1_555
O4F C3 1_555 1_555
O5F Rh1F 1_555 1_555
C4F C3F 1_555 1_555
F4F C4F 1_555 1_555
F5F C4F 1_555 1_555
F6F C4F 1_555 1_555
C2F C1F 1_555 1_555
F1F C2F 1_555 1_555
F2F C2F 1_555 1_555
F3F C2F 1_555 1_555
C5E C5 1_555 1_555
C6E C5E 1_555 1_555
O5E C6E 1_555 1_555
Rh1E O5E 1_555 1_555
C7E C7 1_555 1_555
H1E C5E 1_555 1_555
C8E C7E 1_555 1_555
C9E C9 1_555 1_555
H2E C8E 1_555 1_555
H3E C9E 1_555 1_555
C11E C11 1_555 1_555
C10E C11E 1_555 1_555
C12E C12 1_555 1_555
H6E C12E 1_555 1_555
H4E C10E 1_555 1_555
H5E C11E 1_555 1_555
O3 Rh1 1_555 1_555
O5 Rh1 1_555 1_555
Rh1 Rh1F 1_555 1_555
O1F Rh1F 1_555 1_555
Rh1F O4F 1_555 1_555
O3F C3F 1_555 1_555
C6E C7E 1_555 1_555
C8E C9E 1_555 1_555
C10E C12E 1_555 1_555

#END
