
#######################################################################
#
#                 Cambridge Crystallographic Data Centre
#                                CCDC 
#
#######################################################################
#
# If this CIF has been generated from an entry in the Cambridge 
# Structural Database, then it will include bibliographic, chemical, 
# crystal, experimental, refinement or atomic coordinate data resulting 
# from the CCDC's data processing and validation procedures.
#
#######################################################################

data_ROFYAO
_symmetry_cell_setting           monoclinic
_symmetry_space_group_name_H-M   'C 2/c'
_symmetry_Int_Tables_number      15
_space_group_name_Hall           '-C 2yn'
loop_
_symmetry_equiv_pos_site_id
_symmetry_equiv_pos_as_xyz
1 x,y,z
2 -x,y,1/2-z
3 1/2+x,1/2+y,z
4 1/2-x,1/2+y,1/2-z
5 -x,-y,-z
6 x,-y,1/2+z
7 1/2-x,1/2-y,-z
8 1/2+x,1/2-y,1/2+z
_cell_length_a                   30.5438(15)
_cell_length_b                   11.7573(3)
_cell_length_c                   18.1888(8)
_cell_angle_alpha                90
_cell_angle_beta                 120.032(6)
_cell_angle_gamma                90
_cell_volume                     5654.9
loop_
_atom_site_label
_atom_site_type_symbol
_atom_site_fract_x
_atom_site_fract_y
_atom_site_fract_z
Co1 Co 0.0000 0.18467(3) 0.2500
N1 N 0.02442(6) 0.18463(12) 0.16706(9)
N2 N -0.07149(6) 0.18636(13) 0.15471(9)
N3 N 0.0000 0.98811(18) 0.2500
N4 N 0.0000 0.38387(18) 0.2500
C1 C 0.07381(7) 0.18644(16) 0.18439(11)
C2 C 0.07508(8) 0.18589(19) 0.10619(13)
C3 C 0.02718(8) 0.18701(19) 0.04256(13)
C4 C -0.00478(7) 0.18723(16) 0.07963(11)
C5 C -0.05705(7) 0.19465(16) 0.03326(11)
C6 C -0.08804(7) 0.19342(16) 0.06879(11)
C7 C -0.14205(8) 0.1999(2) 0.02079(13)
C8 C -0.15866(8) 0.1987(2) 0.07628(13)
C9 C -0.11499(7) 0.19016(16) 0.16000(12)
C10 C 0.11664(7) 0.19170(16) 0.26459(12)
C11 C 0.16691(7) 0.20959(17) 0.27079(12)
C12 C 0.17613(9) 0.3085(2) 0.23965(14)
H1 H 0.1505 0.3620 0.2129
C13 C 0.22297(10) 0.3293(2) 0.24759(16)
H2 H 0.2284 0.3963 0.2261
C14 C 0.26115(9) 0.2521(3) 0.28680(15)
H3 H 0.2926 0.2665 0.2922
C15 C 0.25311(9) 0.1539(2) 0.31801(16)
H4 H 0.2792 0.1015 0.3451
C16 C 0.20616(8) 0.1314(2) 0.30959(14)
H5 H 0.2009 0.0633 0.3301
C17 C -0.08113(7) 0.21255(17) -0.06152(11)
C18 C -0.09460(8) 0.3212(2) -0.09415(13)
H6 H -0.0907 0.3816 -0.0583
C19 C -0.11394(9) 0.3405(2) -0.18039(14)
H7 H -0.1228 0.4139 -0.2019
C20 C -0.12004(9) 0.2527(3) -0.23389(14)
H8 H -0.1329 0.2661 -0.2915
C21 C -0.10711(10) 0.1447(3) -0.20199(14)
H9 H -0.1111 0.0846 -0.2381
C22 C -0.08798(9) 0.1242(2) -0.11585(13)
H10 H -0.0798 0.0504 -0.0949
C23 C -0.02162(8) 0.92852(17) 0.17774(13)
C24 C -0.02271(8) 0.81143(17) 0.17500(13)
C25 C 0.00560(8) 0.44403(17) 0.19271(13)
C26 C 0.00563(8) 0.56121(17) 0.19019(13)
C27 C 0.0000 0.6229(2) 0.2500
C28 C 0.0000 0.7495(2) 0.2500
H11 H 0.0153(8) 0.1882(18) -0.0180(14)
H12 H -0.1623(8) 0.2080(18) -0.0415(14)
H13 H 0.1041(8) 0.1834(17) 0.1018(13)
H14 H -0.1922(9) 0.2037(19) 0.0645(14)
H15 H -0.0381(8) 0.9721(18) 0.1277(14)
H16 H -0.0387(8) 0.7723(17) 0.1224(13)
H17 H 0.0095(8) 0.5986(18) 0.1484(13)
H18 H 0.0099(8) 0.4007(18) 0.1531(13)
N1A N -0.02442(6) 0.18463(12) 0.33294(9)
N2A N 0.07149(6) 0.18636(13) 0.34529(9)
C1A C -0.07381(7) 0.18644(16) 0.31561(11)
C2A C -0.07508(8) 0.18589(19) 0.39381(13)
C3A C -0.02718(8) 0.18701(19) 0.45744(13)
C4A C 0.00478(7) 0.18723(16) 0.42037(11)
C5A C 0.05705(7) 0.19465(16) 0.46674(11)
C6A C 0.08804(7) 0.19342(16) 0.43121(11)
C7A C 0.14205(8) 0.1999(2) 0.47921(13)
C8A C 0.15866(8) 0.1987(2) 0.42372(13)
C9A C 0.11499(7) 0.19016(16) 0.34000(12)
C10A C -0.11664(7) 0.19170(16) 0.23541(12)
C11A C -0.16691(7) 0.20959(17) 0.22921(12)
C12A C -0.17613(9) 0.3085(2) 0.26035(14)
H1A H -0.1505 0.3620 0.2871
C13A C -0.22297(10) 0.3293(2) 0.25241(16)
H2A H -0.2284 0.3963 0.2739
C14A C -0.26115(9) 0.2521(3) 0.21320(15)
H3A H -0.2926 0.2665 0.2078
C15A C -0.25311(9) 0.1539(2) 0.18199(16)
H4A H -0.2792 0.1015 0.1549
C16A C -0.20616(8) 0.1314(2) 0.19041(14)
H5A H -0.2009 0.0633 0.1699
C17A C 0.08113(7) 0.21255(17) 0.56152(11)
C18A C 0.09460(8) 0.3212(2) 0.59415(13)
H6A H 0.0907 0.3816 0.5583
C19A C 0.11394(9) 0.3405(2) 0.68039(14)
H7A H 0.1228 0.4139 0.7019
C20A C 0.12004(9) 0.2527(3) 0.73389(14)
H8A H 0.1329 0.2661 0.7915
C21A C 0.10711(10) 0.1447(3) 0.70199(14)
H9A H 0.1111 0.0846 0.7381
C22A C 0.08798(9) 0.1242(2) 0.61585(13)
H10A H 0.0798 0.0504 0.5949
H11A H -0.0153(8) 0.1882(18) 0.5180(14)
H12A H 0.1623(8) 0.2080(18) 0.5415(14)
H13A H -0.1041(8) 0.1834(17) 0.3982(13)
H14A H 0.1922(9) 0.2037(19) 0.4355(14)
C25A C -0.00560(8) 0.44403(17) 0.30729(13)
C26A C -0.00563(8) 0.56121(17) 0.30981(13)
H17A H -0.0095(8) 0.5986(18) 0.3516(13)
H18A H -0.0099(8) 0.4007(18) 0.3469(13)
C23A C 0.02162(8) 0.92852(17) 0.32226(13)
C24A C 0.02271(8) 0.81143(17) 0.32500(13)
H15A H 0.0381(8) 0.9721(18) 0.3723(14)
H16A H 0.0387(8) 0.7723(17) 0.3776(13)
Co1_2 Co 0.0000 1.18467(3) 0.2500
N3_2 N 0.0000 -0.01189(18) 0.2500
N5 N 0.35245(9) 0.4053(2) 0.98776(16)
N6 N 0.11403(9) 0.4604(2) 0.96385(16)
C29 C 0.31094(12) 0.4291(3) 0.9156(2)
C30 C 0.26346(11) 0.4394(3) 0.90696(17)
C31 C 0.25750(9) 0.42378(19) 0.97679(14)
C32 C 0.30085(10) 0.3973(2) 1.05191(16)
C33 C 0.34641(11) 0.3901(3) 1.05455(19)
C34 C 0.20772(9) 0.43533(19) 0.97198(14)
C35 C 0.17066(10) 0.5065(2) 0.91390(17)
C36 C 0.12524(12) 0.5166(3) 0.9121(2)
C37 C 0.14931(12) 0.3917(3) 1.0189(2)
C38 C 0.19634(11) 0.3771(3) 1.02599(18)
H19 H 0.2982(9) 0.383(2) 1.1044(16)
H20 H 0.1780(9) 0.553(2) 0.8758(15)
H21 H 0.2213(11) 0.325(2) 1.0667(18)
H22 H 0.3813(11) 0.379(3) 1.1117(19)
H23 H 0.0990(12) 0.570(3) 0.8718(19)
H24 H 0.2325(11) 0.458(3) 0.8505(18)
H25 H 0.3151(10) 0.439(2) 0.8632(18)
H26 H 0.1405(11) 0.345(3) 1.0567(19)
loop_
_geom_bond_atom_site_label_1
_geom_bond_atom_site_label_2
_geom_bond_site_symmetry_1
_geom_bond_site_symmetry_2
Co1 N1 1_555 1_555
N1 C1 1_555 1_555
N2 Co1 1_555 1_555
N3 C23 1_555 1_555
N4 Co1 1_555 1_555
C1 C2 1_555 1_555
C2 C3 1_555 1_555
C3 C4 1_555 1_555
C4 N1 1_555 1_555
C5 C4 1_555 1_555
C6 N2 1_555 1_555
C7 C6 1_555 1_555
C8 C7 1_555 1_555
C9 N2 1_555 1_555
C10 C1 1_555 1_555
C11 C10 1_555 1_555
C12 C11 1_555 1_555
H1 C12 1_555 1_555
C13 C12 1_555 1_555
H2 C13 1_555 1_555
C14 C13 1_555 1_555
H3 C14 1_555 1_555
C15 C14 1_555 1_555
H4 C15 1_555 1_555
C16 C11 1_555 1_555
H5 C16 1_555 1_555
C17 C5 1_555 1_555
C18 C17 1_555 1_555
H6 C18 1_555 1_555
C19 C18 1_555 1_555
H7 C19 1_555 1_555
C20 C19 1_555 1_555
H8 C20 1_555 1_555
C21 C20 1_555 1_555
H9 C21 1_555 1_555
C22 C17 1_555 1_555
H10 C22 1_555 1_555
C23 C24 1_555 1_555
C24 C28 1_555 1_555
C25 N4 1_555 1_555
C26 C25 1_555 1_555
C27 C26 1_555 1_555
C28 C27 1_555 1_555
H11 C3 1_555 1_555
H12 C7 1_555 1_555
H13 C2 1_555 1_555
H14 C8 1_555 1_555
H15 C23 1_555 1_555
H16 C24 1_555 1_555
H17 C26 1_555 1_555
H18 C25 1_555 1_555
N5 C29 1_555 1_555
N6 C36 1_555 1_555
C29 C30 1_555 1_555
C30 C31 1_555 1_555
C31 C32 1_555 1_555
C32 C33 1_555 1_555
C33 N5 1_555 1_555
C34 C31 1_555 1_555
C35 C34 1_555 1_555
C36 C35 1_555 1_555
C37 N6 1_555 1_555
C38 C34 1_555 1_555
H19 C32 1_555 1_555
H20 C35 1_555 1_555
H21 C38 1_555 1_555
H22 C33 1_555 1_555
H23 C36 1_555 1_555
H24 C30 1_555 1_555
H25 C29 1_555 1_555
H26 C37 1_555 1_555
N1A Co1 1_555 1_555
N2A Co1 1_555 1_555
C1A N1A 1_555 1_555
C2A C1A 1_555 1_555
C3A C2A 1_555 1_555
C4A N1A 1_555 1_555
C5A C4A 1_555 1_555
C6A N2A 1_555 1_555
C7A C6A 1_555 1_555
C8A C7A 1_555 1_555
C9A C10 1_555 1_555
C10A C9 1_555 1_555
C11A C10A 1_555 1_555
C12A C11A 1_555 1_555
H1A C12A 1_555 1_555
C13A C12A 1_555 1_555
H2A C13A 1_555 1_555
C14A C13A 1_555 1_555
H3A C14A 1_555 1_555
C15A C14A 1_555 1_555
H4A C15A 1_555 1_555
C16A C11A 1_555 1_555
H5A C16A 1_555 1_555
C17A C5A 1_555 1_555
C18A C17A 1_555 1_555
H6A C18A 1_555 1_555
C19A C18A 1_555 1_555
H7A C19A 1_555 1_555
C20A C19A 1_555 1_555
H8A C20A 1_555 1_555
C21A C20A 1_555 1_555
H9A C21A 1_555 1_555
C22A C17A 1_555 1_555
H10A C22A 1_555 1_555
H11A C3A 1_555 1_555
H12A C7A 1_555 1_555
H13A C2A 1_555 1_555
H14A C8A 1_555 1_555
C25A N4 1_555 1_555
C26A C27 1_555 1_555
H17A C26A 1_555 1_555
H18A C25A 1_555 1_555
C23A N3 1_555 1_555
C24A C28 1_555 1_555
H15A C23A 1_555 1_555
H16A C24A 1_555 1_555
Co1_2 N3 1_555 1_555
N3_2 Co1 1_555 1_555
C5 C6 1_555 1_555
C8 C9 1_555 1_555
C15 C16 1_555 1_555
C21 C22 1_555 1_555
C37 C38 1_555 1_555
N2A C9A 1_555 1_555
C1A C10A 1_555 1_555
C3A C4A 1_555 1_555
C5A C6A 1_555 1_555
C8A C9A 1_555 1_555
C15A C16A 1_555 1_555
C21A C22A 1_555 1_555
C25A C26A 1_555 1_555
C23A C24A 1_555 1_555

#END
