
#######################################################################
#
#                 Cambridge Crystallographic Data Centre
#                                CCDC 
#
#######################################################################
#
# If this CIF has been generated from an entry in the Cambridge 
# Structural Database, then it will include bibliographic, chemical, 
# crystal, experimental, refinement or atomic coordinate data resulting 
# from the CCDC's data processing and validation procedures.
#
#######################################################################

data_ROGROV
_symmetry_cell_setting           orthorhombic
_symmetry_space_group_name_H-M   'F d d 2'
_symmetry_Int_Tables_number      43
_space_group_name_Hall           'F 2 -2d'
loop_
_symmetry_equiv_pos_site_id
_symmetry_equiv_pos_as_xyz
1 x,y,z
2 -x,-y,z
3 1/4+x,1/4-y,1/4+z
4 1/4-x,1/4+y,1/4+z
5 x,1/2+y,1/2+z
6 -x,1/2-y,1/2+z
7 1/4+x,3/4-y,3/4+z
8 1/4-x,3/4+y,3/4+z
9 1/2+x,y,1/2+z
10 1/2-x,-y,1/2+z
11 3/4+x,1/4-y,3/4+z
12 3/4-x,1/4+y,3/4+z
13 1/2+x,1/2+y,z
14 1/2-x,1/2-y,z
15 3/4+x,3/4-y,1/4+z
16 3/4-x,3/4+y,1/4+z
_cell_length_a                   15.918(2)
_cell_length_b                   50.471(7)
_cell_length_c                   10.1138(12)
_cell_angle_alpha                90
_cell_angle_beta                 90
_cell_angle_gamma                90
_cell_volume                     8125.4
loop_
_atom_site_label
_atom_site_type_symbol
_atom_site_fract_x
_atom_site_fract_y
_atom_site_fract_z
Cd1 Cd 0.10256(3) 0.233587(9) 0.75475(9)
O1 O 0.1631(4) 0.25918(11) 0.9098(6)
O2 O 0.1271(3) 0.22226(11) 1.0120(11)
O3 O 0.0511(3) 0.27961(10) 1.2260(7)
O4 O 0.0126(3) 0.24131(11) 1.2930(7)
O5 O 0.1317(4) 0.22590(11) 1.5207(11)
O6 O 0.1560(5) 0.26557(12) 1.6020(6)
N1 N 0.1438(3) 0.19040(10) 0.7529(8)
N2 N 0.2543(5) 0.05773(13) 0.6547(8)
H1 H 0.2671 0.0416 0.6371
C1 C 0.2039(5) 0.25496(15) 1.1353(8)
H2 H 0.2046 0.2744 1.1310
C2 C 0.1585(3) 0.24672(12) 1.2630(9)
H3 H 0.1565 0.2273 1.2657
C3 C 0.2057(4) 0.25617(14) 1.3841(7)
H4 H 0.2113 0.2755 1.3794
C4 C 0.1610(4) 0.24471(13) 1.0129(15)
C5 C 0.0687(4) 0.25690(13) 1.2592(10)
C6 C 0.1608(4) 0.24903(13) 1.5123(15)
C7 C 0.2404(5) 0.15772(14) 0.6768(9)
H5 H 0.2913 0.1539 0.6357
C8 C 0.2152(5) 0.18358(15) 0.6918(9)
H6 H 0.2492 0.1969 0.6579
C9 C 0.0965(5) 0.17104(15) 0.7994(8)
H7 H 0.0466 0.1755 0.8420
C10 C 0.1173(5) 0.14440(15) 0.7881(9)
H8 H 0.0826 0.1315 0.8242
C11 C 0.1896(5) 0.13739(14) 0.7233(8)
C12 C 0.2138(5) 0.10897(14) 0.7028(8)
C13 C 0.1519(5) 0.08983(17) 0.6914(9)
H9 H 0.0956 0.0945 0.6993
C14 C 0.1736(6) 0.06417(16) 0.6686(10)
H10 H 0.1323 0.0512 0.6627
C15 C 0.3159(6) 0.07539(17) 0.6671(10)
H11 H 0.3716 0.0700 0.6604
C16 C 0.2970(5) 0.10158(15) 0.6898(9)
H12 H 0.3395 0.1141 0.6964
Cd1M Cd 0.39744(3) 0.266413(9) 0.75475(9)
Cd1E Cd -0.10256(3) 0.266413(9) 1.25475(9)
Cd1_2 Cd 0.10256(3) 0.233587(9) 1.75475(9)
Cd1M_2 Cd 0.39744(3) 0.266413(9) 1.75475(9)
Cd1H Cd 0.60256(3) 0.233587(9) 1.25475(9)
O1M O 0.3369(4) 0.24082(11) 0.9098(6)
O2M O 0.3729(3) 0.27774(11) 1.0120(11)
O3M O 0.4489(3) 0.22039(10) 1.2260(7)
O3E O -0.0511(3) 0.22039(10) 0.7260(7)
O3H O 0.5511(3) 0.27961(10) 0.7260(7)
O4M O 0.4874(3) 0.25869(11) 1.2930(7)
O4E O -0.0126(3) 0.25869(11) 0.7930(7)
O4H O 0.5126(3) 0.24131(11) 0.7930(7)
O5M O 0.3683(4) 0.27410(11) 1.5207(11)
O5_2 O 0.1317(4) 0.22590(11) 0.5207(11)
O5M_2 O 0.3683(4) 0.27410(11) 0.5207(11)
O6M O 0.3440(5) 0.23443(12) 1.6020(6)
O6_2 O 0.1560(5) 0.26557(12) 0.6020(6)
O6M_2 O 0.3440(5) 0.23443(12) 0.6020(6)
N1M N 0.3562(3) 0.30960(10) 0.7529(8)
N2M N 0.2457(5) 0.44227(13) 0.6547(8)
H1M H 0.2329 0.4584 0.6371
C1M C 0.2961(5) 0.24504(15) 1.1353(8)
H2M H 0.2954 0.2256 1.1310
C2M C 0.3415(3) 0.25328(12) 1.2630(9)
H3M H 0.3435 0.2727 1.2657
C3M C 0.2943(4) 0.24383(14) 1.3841(7)
H4M H 0.2887 0.2245 1.3794
C4M C 0.3390(4) 0.25529(13) 1.0129(15)
C5M C 0.4313(4) 0.24310(13) 1.2592(10)
C6M C 0.3392(4) 0.25097(13) 1.5123(15)
C7M C 0.2596(5) 0.34228(14) 0.6768(9)
H5M H 0.2087 0.3461 0.6357
C8M C 0.2848(5) 0.31642(15) 0.6918(9)
H6M H 0.2508 0.3031 0.6579
C9M C 0.4035(5) 0.32896(15) 0.7994(8)
H7M H 0.4534 0.3245 0.8420
C10M C 0.3827(5) 0.35560(15) 0.7881(9)
H8M H 0.4174 0.3685 0.8242
C11M C 0.3104(5) 0.36261(14) 0.7233(8)
C12M C 0.2862(5) 0.39103(14) 0.7028(8)
C13M C 0.3481(5) 0.41017(17) 0.6914(9)
H9M H 0.4044 0.4055 0.6993
C14M C 0.3264(6) 0.43583(16) 0.6686(10)
H10M H 0.3677 0.4488 0.6627
C15M C 0.1841(6) 0.42461(17) 0.6671(10)
H11M H 0.1284 0.4300 0.6604
C16M C 0.2030(5) 0.39842(15) 0.6898(9)
H12M H 0.1605 0.3859 0.6964
O7 O 0.1344(5) 0.12429(13) 0.1305(7)
H13 H 0.1640 0.1129 0.0898
H14 H 0.1270 0.1199 0.2108
O8 O -0.0289(4) 0.19528(13) 0.0681(7)
H15 H -0.0700 0.2025 0.1081
H16 H 0.0201 0.2016 0.0792
O9 O -0.0349(4) 0.14175(12) 0.1116(6)
H17 H -0.0383 0.1319 0.0435
H18 H -0.0099 0.1561 0.0922
O10 O -0.1518(4) 0.17375(14) 0.7636(10)
H19 H -0.1226 0.1878 0.7577
H20 H -0.1919 0.1742 0.7081
O11 O -0.2900(5) 0.17490(15) 0.5999(9)
H21 H -0.3151 0.1890 0.5757
H22 H -0.3072 0.1596 0.5773
loop_
_geom_bond_atom_site_label_1
_geom_bond_atom_site_label_2
_geom_bond_site_symmetry_1
_geom_bond_site_symmetry_2
Cd1 O1 1_555 1_555
O1 C4 1_555 1_555
O2 C4 1_555 1_555
O3 C5 1_555 1_555
O4 C5 1_555 1_555
O5 C6 1_555 1_555
O6 C6 1_555 1_555
N1 Cd1 1_555 1_555
N2 H1 1_555 1_555
C1 H2 1_555 1_555
C2 C1 1_555 1_555
H3 C2 1_555 1_555
C3 C2 1_555 1_555
H4 C3 1_555 1_555
C4 C1 1_555 1_555
C5 C2 1_555 1_555
C6 C3 1_555 1_555
C7 H5 1_555 1_555
C8 N1 1_555 1_555
H6 C8 1_555 1_555
C9 N1 1_555 1_555
H7 C9 1_555 1_555
C10 C9 1_555 1_555
H8 C10 1_555 1_555
C11 C7 1_555 1_555
C12 C11 1_555 1_555
C13 C12 1_555 1_555
H9 C13 1_555 1_555
C14 N2 1_555 1_555
H10 C14 1_555 1_555
C15 N2 1_555 1_555
H11 C15 1_555 1_555
C16 C12 1_555 1_555
H12 C16 1_555 1_555
O7 H13 1_555 1_555
H14 O7 1_555 1_555
O8 H15 1_555 1_555
H16 O8 1_555 1_555
O9 H17 1_555 1_555
H18 O9 1_555 1_555
O10 H19 1_555 1_555
H20 O10 1_555 1_555
O11 H21 1_555 1_555
H22 O11 1_555 1_555
Cd1M O1M 1_555 1_555
Cd1E O3 1_555 1_555
Cd1_2 O5 1_555 1_555
Cd1M_2 O5M 1_555 1_555
Cd1H O3M 1_555 1_555
O1M C4M 1_555 1_555
O2M C4M 1_555 1_555
O3M C5M 1_555 1_555
O3E Cd1 1_555 1_555
O3H Cd1M 1_555 1_555
O4M Cd1H 1_555 1_555
O4E Cd1 1_555 1_555
O4H Cd1M 1_555 1_555
O5M C6M 1_555 1_555
O5_2 Cd1 1_555 1_555
O5M_2 Cd1M 1_555 1_555
O6M Cd1M_2 1_555 1_555
O6_2 Cd1 1_555 1_555
O6M_2 Cd1M 1_555 1_555
N1M Cd1M 1_555 1_555
N2M H1M 1_555 1_555
C1M C1 1_555 1_555
H2M C1M 1_555 1_555
C2M C1M 1_555 1_555
H3M C2M 1_555 1_555
C3M C3 1_555 1_555
H4M C3M 1_555 1_555
C4M C1M 1_555 1_555
C5M O4M 1_555 1_555
C6M O6M 1_555 1_555
C7M H5M 1_555 1_555
C8M N1M 1_555 1_555
H6M C8M 1_555 1_555
C9M N1M 1_555 1_555
H7M C9M 1_555 1_555
C10M C9M 1_555 1_555
H8M C10M 1_555 1_555
C11M C7M 1_555 1_555
C12M C11M 1_555 1_555
C13M C12M 1_555 1_555
H9M C13M 1_555 1_555
C14M N2M 1_555 1_555
H10M C14M 1_555 1_555
C15M N2M 1_555 1_555
H11M C15M 1_555 1_555
C16M C12M 1_555 1_555
H12M C16M 1_555 1_555
O4 Cd1E 1_555 1_555
O6 Cd1_2 1_555 1_555
C7 C8 1_555 1_555
C10 C11 1_555 1_555
C13 C14 1_555 1_555
C15 C16 1_555 1_555
C2M C3M 1_555 1_555
C2M C5M 1_555 1_555
C3M C6M 1_555 1_555
C7M C8M 1_555 1_555
C10M C11M 1_555 1_555
C13M C14M 1_555 1_555
C15M C16M 1_555 1_555

#END
