
#######################################################################
#
#                 Cambridge Crystallographic Data Centre
#                                CCDC 
#
#######################################################################
#
# If this CIF has been generated from an entry in the Cambridge 
# Structural Database, then it will include bibliographic, chemical, 
# crystal, experimental, refinement or atomic coordinate data resulting 
# from the CCDC's data processing and validation procedures.
#
#######################################################################

data_ROGRUB
_symmetry_cell_setting           orthorhombic
_symmetry_space_group_name_H-M   'P b c a'
_symmetry_Int_Tables_number      61
_space_group_name_Hall           '-P 2ac 2ab'
loop_
_symmetry_equiv_pos_site_id
_symmetry_equiv_pos_as_xyz
1 x,y,z
2 1/2-x,-y,1/2+z
3 -x,1/2+y,1/2-z
4 1/2+x,1/2-y,-z
5 -x,-y,-z
6 1/2+x,y,1/2-z
7 x,1/2-y,1/2+z
8 1/2-x,1/2+y,z
_cell_length_a                   12.3424(12)
_cell_length_b                   13.2718(14)
_cell_length_c                   19.268(2)
_cell_angle_alpha                90
_cell_angle_beta                 90
_cell_angle_gamma                90
_cell_volume                     3156.21
loop_
_atom_site_label
_atom_site_type_symbol
_atom_site_fract_x
_atom_site_fract_y
_atom_site_fract_z
Cd1 Cd 0.67183(5) 0.00911(4) 0.08107(2)
Cd2 Cd 0.60432(4) -0.10873(4) -0.11506(2)
Cd3 Cd 0.78414(4) -0.40835(4) -0.24524(2)
O1 O 0.7033(4) -0.0755(4) -0.0193(2)
O2 O 0.8494(4) -0.0523(4) 0.0415(3)
O3 O 0.7829(4) -0.3158(4) 0.0136(3)
O4 O 0.9383(4) -0.3567(4) 0.0588(3)
O5 O 0.8742(4) -0.3541(4) -0.1481(3)
O6 O 0.9835(4) -0.4634(3) -0.0939(3)
O7 O 1.1755(4) -0.3712(4) -0.1571(3)
O8 O 1.1850(5) -0.2464(4) -0.2301(3)
O9 O 1.0187(5) -0.1125(6) -0.2850(3)
O10 O 1.1116(5) -0.0283(4) -0.2051(3)
O11 O 0.8783(4) 0.0637(4) -0.1780(3)
O12 O 0.7585(4) -0.0568(4) -0.1711(2)
O13 O 0.6848(6) 0.0825(6) 0.1839(3)
H1 H 0.736(5) 0.115(9) 0.204(8)
H2 H 0.625(3) 0.111(6) 0.192(5)
O14 O 0.6386(4) -0.2727(4) -0.0910(3)
H3 H 0.683(5) -0.286(5) -0.059(3)
H4 H 0.643(8) -0.317(6) -0.123(3)
O15 O 0.9206(5) -0.3241(4) -0.3071(4)
H5 H 0.968(4) -0.368(4) -0.316(6)
H6 H 0.949(5) -0.267(2) -0.302(4)
C1 C 0.8683(6) -0.1533(5) -0.0621(3)
H7 H 0.8152 -0.1935 -0.0878
C2 C 0.9428(6) -0.2255(5) -0.0249(3)
H8 H 0.9905 -0.1861 0.0054
C3 C 1.0154(5) -0.2889(5) -0.0749(3)
H9 H 1.0722 -0.3201 -0.0466
C4 C 1.0722(5) -0.2216(5) -0.1288(3)
H10 H 1.1185 -0.1755 -0.1023
C5 C 0.9909(6) -0.1552(5) -0.1674(3)
H11 H 0.9380 -0.1990 -0.1905
C6 C 0.9293(6) -0.0857(5) -0.1155(3)
H12 H 0.9809 -0.0420 -0.0912
C7 C 0.8057(6) -0.0884(5) -0.0098(3)
C8 C 0.8817(6) -0.3009(5) 0.0201(3)
C9 C 0.9520(6) -0.3744(5) -0.1094(3)
C10 C 1.1483(6) -0.2826(5) -0.1754(3)
C11 C 1.0477(6) -0.0914(6) -0.2227(4)
C12 C 0.8495(6) -0.0222(5) -0.1557(3)
Cd1G Cd 0.82817(5) -0.49089(4) 0.08107(2)
Cd1C Cd 1.17183(5) -0.50911(4) -0.08107(2)
Cd2C Cd 1.10432(4) -0.39127(4) 0.11506(2)
Cd2G Cd 0.89568(4) -0.60873(4) -0.11506(2)
Cd2E Cd 1.10432(4) -0.10873(4) -0.38494(2)
Cd3E Cd 1.28414(4) -0.40835(4) -0.25476(2)
Cd3B Cd 1.21586(4) 0.09165(4) -0.25476(2)
Cd3G Cd 0.71586(4) 0.09165(4) -0.24524(2)
O4G O 0.5617(4) 0.1433(4) 0.0588(3)
O4C O 0.4383(4) -0.1433(4) -0.0588(3)
O6C O 0.4835(4) -0.0366(3) 0.0939(3)
O6G O 0.5165(4) 0.0366(3) -0.0939(3)
O7C O 0.6755(4) -0.1288(4) 0.1571(3)
O7E O 0.6755(4) -0.3712(4) -0.3429(3)
O8E O 0.6850(5) -0.2464(4) -0.2699(3)
O9E O 0.5187(5) -0.1125(6) -0.2150(3)
O10B O 0.8884(5) -0.5283(4) -0.2949(3)
O11G O 0.6217(4) -0.4363(4) -0.1780(3)
O12G O 0.7415(4) -0.5568(4) -0.1711(2)
loop_
_geom_bond_atom_site_label_1
_geom_bond_atom_site_label_2
_geom_bond_site_symmetry_1
_geom_bond_site_symmetry_2
Cd1 O1 1_555 1_555
Cd2 O1 1_555 1_555
Cd3 O5 1_555 1_555
O1 C7 1_555 1_555
O2 Cd1 1_555 1_555
O3 C8 1_555 1_555
O4 C8 1_555 1_555
O5 C9 1_555 1_555
O6 C9 1_555 1_555
O7 C10 1_555 1_555
O8 C10 1_555 1_555
O9 C11 1_555 1_555
O10 C11 1_555 1_555
O11 C12 1_555 1_555
O12 Cd2 1_555 1_555
O13 Cd1 1_555 1_555
H1 O13 1_555 1_555
H2 O13 1_555 1_555
O14 Cd2 1_555 1_555
H3 O14 1_555 1_555
H4 O14 1_555 1_555
O15 Cd3 1_555 1_555
H5 O15 1_555 1_555
H6 O15 1_555 1_555
C1 H7 1_555 1_555
C2 C1 1_555 1_555
H8 C2 1_555 1_555
C3 C2 1_555 1_555
H9 C3 1_555 1_555
C4 C3 1_555 1_555
H10 C4 1_555 1_555
C5 C4 1_555 1_555
H11 C5 1_555 1_555
C6 C1 1_555 1_555
H12 C6 1_555 1_555
C7 O2 1_555 1_555
C8 C2 1_555 1_555
C9 C3 1_555 1_555
C10 C4 1_555 1_555
C11 C5 1_555 1_555
C12 O12 1_555 1_555
Cd1G O4 1_555 1_555
Cd1C O6 1_555 1_555
Cd2C O4 1_555 1_555
Cd2G O6 1_555 1_555
Cd2E O9 1_555 1_555
Cd3E O7 1_555 1_555
Cd3B O10 1_555 1_555
Cd3G O11 1_555 1_555
O4G Cd1 1_555 1_555
O4C Cd2 1_555 1_555
O6C Cd1 1_555 1_555
O6G Cd2 1_555 1_555
O7C Cd1 1_555 1_555
O7E Cd3 1_555 1_555
O8E Cd3 1_555 1_555
O9E Cd2 1_555 1_555
O10B Cd3 1_555 1_555
O11G Cd3 1_555 1_555
O12G Cd3 1_555 1_555
O7 Cd1C 1_555 1_555
O8 Cd3E 1_555 1_555
O12 Cd3G 1_555 1_555
C1 C7 1_555 1_555
C5 C6 1_555 1_555
C6 C12 1_555 1_555
Cd2G O12G 1_555 1_555

#END
