
#######################################################################
#
#                 Cambridge Crystallographic Data Centre
#                                CCDC 
#
#######################################################################
#
# If this CIF has been generated from an entry in the Cambridge 
# Structural Database, then it will include bibliographic, chemical, 
# crystal, experimental, refinement or atomic coordinate data resulting 
# from the CCDC's data processing and validation procedures.
#
#######################################################################

data_ROGSUC
_symmetry_cell_setting           monoclinic
_symmetry_space_group_name_H-M   'P 21/n'
_symmetry_Int_Tables_number      14
_space_group_name_Hall           '-P 2yn'
loop_
_symmetry_equiv_pos_site_id
_symmetry_equiv_pos_as_xyz
1 x,y,z
2 1/2-x,1/2+y,1/2-z
3 -x,-y,-z
4 1/2+x,1/2-y,1/2+z
_cell_length_a                   5.7045(13)
_cell_length_b                   6.2569(15)
_cell_length_c                   18.468(4)
_cell_angle_alpha                90
_cell_angle_beta                 95.754(4)
_cell_angle_gamma                90
_cell_volume                     655.848
loop_
_atom_site_label
_atom_site_type_symbol
_atom_site_fract_x
_atom_site_fract_y
_atom_site_fract_z
S1 S -0.28374(4) -0.32007(4) 0.034220(14)
Na1 Na -0.25026(8) -0.55852(7) 0.23384(2)
O1 O -0.50261(15) -0.29082(13) 0.17906(4)
C1 C -0.60317(19) -0.20181(17) 0.12368(6)
O2 O -0.70980(15) -0.02600(13) 0.12216(4)
C2 C -0.59803(19) -0.31517(16) 0.04926(6)
O3 O -0.73256(15) -0.20091(13) -0.00577(4)
H1 H -0.742(3) -0.085(3) 0.0091(9)
C3 C -0.30443(19) -0.45705(17) -0.05251(6)
H2 H -0.400(3) -0.372(2) -0.0874(8)
H3 H -0.149(3) -0.459(2) -0.0644(8)
O4 O -0.35174(17) -0.34703(15) 0.34352(5)
H4 H -0.287(3) -0.323(3) 0.3862(10)
H5 H -0.474(3) -0.397(3) 0.3506(9)
O5 O 0.06052(16) -0.30259(14) 0.25411(5)
H6 H 0.117(3) -0.365(3) 0.2934(10)
H7 H 0.181(3) -0.288(3) 0.2320(9)
S1B S -0.71626(4) -0.67993(4) -0.034220(14)
Na1B Na -0.74974(8) -0.44148(7) -0.23384(2)
Na1A Na -0.24974(8) -0.05852(7) 0.26616(2)
Na1C Na -0.75026(8) -0.94148(7) -0.26616(2)
Na1A_2 Na -0.24974(8) -1.05852(7) 0.26616(2)
O1B O -0.49739(15) -0.70918(13) -0.17906(4)
O1A O 0.00261(15) -0.79082(13) 0.32094(4)
O1C O -1.00261(15) -0.20918(13) -0.32094(4)
C1B C -0.39683(19) -0.79819(17) -0.12368(6)
O2B O -0.29020(15) -0.97400(13) -0.12216(4)
C2B C -0.40197(19) -0.68483(16) -0.04926(6)
O3B O -0.26744(15) -0.79909(13) 0.00577(4)
H1B H -0.258(3) -0.915(3) -0.0091(9)
C3B C -0.69557(19) -0.54295(17) 0.05251(6)
H2B H -0.600(3) -0.628(2) 0.0874(8)
H3B H -0.851(3) -0.541(2) 0.0644(8)
O4A O -0.14826(17) -0.84703(15) 0.15648(5)
O4B O -0.64826(17) -0.65297(15) -0.34352(5)
O4C O -0.85174(17) -0.15297(15) -0.15648(5)
H4A H -0.213(3) -0.823(3) 0.1138(10)
H4B H -0.713(3) -0.677(3) -0.3862(10)
H4C H -0.787(3) -0.177(3) -0.1138(10)
H5A H -0.026(3) -0.897(3) 0.1494(9)
H5B H -0.526(3) -0.603(3) -0.3506(9)
H5C H -0.974(3) -0.103(3) -0.1494(9)
O5A O -0.56052(16) -0.80259(14) 0.24589(5)
O5B O -1.06052(16) -0.69741(14) -0.25411(5)
O5C O -0.43948(16) -0.19741(14) -0.24589(5)
H6A H -0.617(3) -0.865(3) 0.2066(10)
H6B H -1.117(3) -0.635(3) -0.2934(10)
H6C H -0.383(3) -0.135(3) -0.2066(10)
H7A H -0.681(3) -0.788(3) 0.2680(9)
H7B H -1.181(3) -0.712(3) -0.2320(9)
H7C H -0.319(3) -0.212(3) -0.2680(9)
loop_
_geom_bond_atom_site_label_1
_geom_bond_atom_site_label_2
_geom_bond_site_symmetry_1
_geom_bond_site_symmetry_2
S1 C2 1_555 1_555
Na1 O1 1_555 1_555
O1 C1 1_555 1_555
C1 O2 1_555 1_555
C2 C1 1_555 1_555
O3 C2 1_555 1_555
H1 O3 1_555 1_555
C3 S1 1_555 1_555
H2 C3 1_555 1_555
H3 C3 1_555 1_555
O4 Na1 1_555 1_555
H4 O4 1_555 1_555
H5 O4 1_555 1_555
O5 Na1 1_555 1_555
H6 O5 1_555 1_555
H7 O5 1_555 1_555
S1B C2B 1_555 1_555
Na1B O1B 1_555 1_555
Na1A O1 1_555 1_555
Na1C O1B 1_555 1_555
Na1A_2 O1A 1_555 1_555
O1B C1B 1_555 1_555
O1A Na1 1_555 1_555
O1C Na1B 1_555 1_555
C1B O2B 1_555 1_555
C2B C3 1_555 1_555
O3B C2B 1_555 1_555
H1B O3B 1_555 1_555
C3B C2 1_555 1_555
H2B C3B 1_555 1_555
H3B C3B 1_555 1_555
O4A Na1 1_555 1_555
O4B Na1B 1_555 1_555
O4C Na1B 1_555 1_555
H4A O4A 1_555 1_555
H4B O4B 1_555 1_555
H4C O4C 1_555 1_555
H5A O4A 1_555 1_555
H5B O4B 1_555 1_555
H5C O4C 1_555 1_555
O5A Na1 1_555 1_555
O5B Na1B 1_555 1_555
O5C Na1B 1_555 1_555
H6A O5A 1_555 1_555
H6B O5B 1_555 1_555
H6C O5C 1_555 1_555
H7A O5A 1_555 1_555
H7B O5B 1_555 1_555
H7C O5C 1_555 1_555
O4 Na1A 1_555 1_555
O5 Na1A 1_555 1_555
S1B C3B 1_555 1_555
Na1C O4B 1_555 1_555
Na1C O5B 1_555 1_555
Na1A_2 O4A 1_555 1_555
Na1A_2 O5A 1_555 1_555
C1B C2B 1_555 1_555

#END
