
#######################################################################
#
#                 Cambridge Crystallographic Data Centre
#                                CCDC 
#
#######################################################################
#
# If this CIF has been generated from an entry in the Cambridge 
# Structural Database, then it will include bibliographic, chemical, 
# crystal, experimental, refinement or atomic coordinate data resulting 
# from the CCDC's data processing and validation procedures.
#
#######################################################################

data_ROHREN
_symmetry_cell_setting           monoclinic
_symmetry_space_group_name_H-M   'C 2/c'
_symmetry_Int_Tables_number      15
_space_group_name_Hall           '-C 2yn'
loop_
_symmetry_equiv_pos_site_id
_symmetry_equiv_pos_as_xyz
1 x,y,z
2 -x,y,1/2-z
3 1/2+x,1/2+y,z
4 1/2-x,1/2+y,1/2-z
5 -x,-y,-z
6 x,-y,1/2+z
7 1/2-x,1/2-y,-z
8 1/2+x,1/2-y,1/2+z
_cell_length_a                   24.586(3)
_cell_length_b                   11.3563(16)
_cell_length_c                   15.974(2)
_cell_angle_alpha                90
_cell_angle_beta                 128.6930(10)
_cell_angle_gamma                90
_cell_volume                     3481.09
loop_
_atom_site_label
_atom_site_type_symbol
_atom_site_fract_x
_atom_site_fract_y
_atom_site_fract_z
Co1 Co 0.5000 0.35064(4) 0.2500
S1 S 0.42495(4) 0.33684(6) -0.02285(6)
O1 O 0.49740(14) 0.3298(2) 0.0236(2)
O2 O 0.38391(16) 0.4275(2) -0.10214(19)
N1 N 0.5000 1.1624(3) 0.2500
N2 N 0.5000 0.5392(3) 0.2500
N3 N 0.38948(13) 0.36555(19) 0.17386(19)
N4 N 0.30416(14) 0.3818(3) -0.0170(2)
N5 N 0.42660(12) 0.34840(19) 0.07844(19)
C1 C 0.38638(16) 0.2007(3) -0.0864(2)
N6 N 0.30777(19) -0.1260(3) -0.2358(3)
C2 C 0.45072(15) 1.1008(2) 0.2430(2)
H1 H 0.4163 1.1419 0.2387
C3 C 0.44878(15) 0.9792(2) 0.2420(2)
H2 H 0.4132 0.9399 0.2359
C4 C 0.5000 0.9161(3) 0.2500
C5 C 0.5000 0.7847(3) 0.2500
C6 C 0.48052(16) 0.7217(2) 0.3020(2)
H3 H 0.4671 0.7609 0.3376
C7 C 0.48133(16) 0.6000(2) 0.3003(2)
H4 H 0.4684 0.5586 0.3356
C8 C 0.34106(18) 0.3898(3) 0.1849(3)
H5 H 0.3535 0.3925 0.2530
C9 C 0.2728(2) 0.4108(4) 0.0961(3)
H6 H 0.2388 0.4291 0.1028
C10 C 0.25732(19) 0.4035(4) -0.0022(3)
H7 H 0.2112 0.4144 -0.0627
C11 C 0.36941(15) 0.3656(2) 0.0729(2)
C12 C 0.41651(19) 0.0971(3) -0.0287(3)
H8 H 0.4550 0.1005 0.0436
C13 C 0.39008(19) -0.0105(3) -0.0773(3)
H9 H 0.4107 -0.0789 -0.0373
C14 C 0.33229(16) -0.0184(3) -0.1866(3)
C15 C 0.30292(16) 0.0859(3) -0.2439(3)
H10 H 0.2648 0.0828 -0.3165
C16 C 0.32976(16) 0.1948(3) -0.1943(2)
H11 H 0.3096 0.2637 -0.2337
H12 H 0.320(2) -0.183(4) -0.194(4)
H13 H 0.272(2) -0.126(4) -0.296(4)
C2A C 0.54928(15) 1.1008(2) 0.2570(2)
H1A H 0.5837 1.1419 0.2613
C3A C 0.55122(15) 0.9792(2) 0.2580(2)
H2A H 0.5868 0.9399 0.2641
C6A C 0.51948(16) 0.7217(2) 0.1980(2)
H3A H 0.5329 0.7609 0.1624
C7A C 0.51867(16) 0.6000(2) 0.1997(2)
H4A H 0.5316 0.5586 0.1644
S1A S 0.57505(4) 0.33684(6) 0.52285(6)
O1A O 0.50260(14) 0.3298(2) 0.4764(2)
O2A O 0.61609(16) 0.4275(2) 0.60214(19)
N3A N 0.61052(13) 0.36555(19) 0.32614(19)
N4A N 0.69584(14) 0.3818(3) 0.5170(2)
N5A N 0.57340(12) 0.34840(19) 0.42156(19)
C1A C 0.61362(16) 0.2007(3) 0.5864(2)
N6A N 0.69223(19) -0.1260(3) 0.7358(3)
C8A C 0.65894(18) 0.3898(3) 0.3151(3)
H5A H 0.6465 0.3925 0.2470
C9A C 0.7272(2) 0.4108(4) 0.4039(3)
H6A H 0.7612 0.4291 0.3972
C10A C 0.74268(19) 0.4035(4) 0.5022(3)
H7A H 0.7888 0.4144 0.5627
C11A C 0.63059(15) 0.3656(2) 0.4271(2)
C12A C 0.58349(19) 0.0971(3) 0.5287(3)
H8A H 0.5450 0.1005 0.4564
C13A C 0.60992(19) -0.0105(3) 0.5773(3)
H9A H 0.5893 -0.0789 0.5373
C14A C 0.66771(16) -0.0184(3) 0.6866(3)
C15A C 0.69708(16) 0.0859(3) 0.7439(3)
H10A H 0.7352 0.0828 0.8165
C16A C 0.67024(16) 0.1948(3) 0.6943(2)
H11A H 0.6904 0.2637 0.7337
H12A H 0.680(2) -0.183(4) 0.694(4)
H13A H 0.728(2) -0.126(4) 0.796(4)
Co1_2 Co 0.5000 1.35064(4) 0.2500
N1_2 N 0.5000 0.1624(3) 0.2500
O3 O 0.3094(3) 0.7469(6) 0.0131(5)
H14 H 0.3239 0.6761 0.0047
H15 H 0.2683 0.7775 -0.0464
O4 O 0.62784(15) 0.3304(3) 0.0664(3)
H16 H 0.5788 0.3367 0.0264
H17 H 0.6347 0.4146 0.0795
loop_
_geom_bond_atom_site_label_1
_geom_bond_atom_site_label_2
_geom_bond_site_symmetry_1
_geom_bond_site_symmetry_2
Co1 N2 1_555 1_555
S1 O1 1_555 1_555
O2 S1 1_555 1_555
N1 C2 1_555 1_555
N2 C7 1_555 1_555
N3 Co1 1_555 1_555
N4 C10 1_555 1_555
N5 Co1 1_555 1_555
C1 S1 1_555 1_555
N6 C14 1_555 1_555
C2 H1 1_555 1_555
C3 C2 1_555 1_555
H2 C3 1_555 1_555
C4 C3 1_555 1_555
C5 C4 1_555 1_555
C6 C5 1_555 1_555
H3 C6 1_555 1_555
C7 C6 1_555 1_555
H4 C7 1_555 1_555
C8 N3 1_555 1_555
H5 C8 1_555 1_555
C9 C8 1_555 1_555
H6 C9 1_555 1_555
C10 C9 1_555 1_555
H7 C10 1_555 1_555
C11 N3 1_555 1_555
C12 C1 1_555 1_555
H8 C12 1_555 1_555
C13 C12 1_555 1_555
H9 C13 1_555 1_555
C14 C13 1_555 1_555
C15 C14 1_555 1_555
H10 C15 1_555 1_555
C16 C1 1_555 1_555
H11 C16 1_555 1_555
H12 N6 1_555 1_555
H13 N6 1_555 1_555
O3 H14 1_555 1_555
H15 O3 1_555 1_555
O4 H16 1_555 1_555
H17 O4 1_555 1_555
C2A N1 1_555 1_555
H1A C2A 1_555 1_555
C3A C4 1_555 1_555
H2A C3A 1_555 1_555
C6A C5 1_555 1_555
H3A C6A 1_555 1_555
C7A N2 1_555 1_555
H4A C7A 1_555 1_555
S1A O1A 1_555 1_555
O2A S1A 1_555 1_555
N3A Co1 1_555 1_555
N4A C10A 1_555 1_555
N5A Co1 1_555 1_555
C1A S1A 1_555 1_555
N6A C14A 1_555 1_555
C8A N3A 1_555 1_555
H5A C8A 1_555 1_555
C9A C8A 1_555 1_555
H6A C9A 1_555 1_555
C10A C9A 1_555 1_555
H7A C10A 1_555 1_555
C11A N3A 1_555 1_555
C12A C1A 1_555 1_555
H8A C12A 1_555 1_555
C13A C12A 1_555 1_555
H9A C13A 1_555 1_555
C14A C13A 1_555 1_555
C15A C14A 1_555 1_555
H10A C15A 1_555 1_555
C16A C1A 1_555 1_555
H11A C16A 1_555 1_555
H12A N6A 1_555 1_555
H13A N6A 1_555 1_555
Co1_2 N1 1_555 1_555
N1_2 Co1 1_555 1_555
S1 N5 1_555 1_555
N4 C11 1_555 1_555
N5 C11 1_555 1_555
C15 C16 1_555 1_555
C2A C3A 1_555 1_555
C6A C7A 1_555 1_555
S1A N5A 1_555 1_555
N4A C11A 1_555 1_555
N5A C11A 1_555 1_555
C15A C16A 1_555 1_555

#END
