
#######################################################################
#
#                 Cambridge Crystallographic Data Centre
#                                CCDC 
#
#######################################################################
#
# If this CIF has been generated from an entry in the Cambridge 
# Structural Database, then it will include bibliographic, chemical, 
# crystal, experimental, refinement or atomic coordinate data resulting 
# from the CCDC's data processing and validation procedures.
#
#######################################################################

data_ROHZAR
_symmetry_cell_setting           triclinic
_symmetry_space_group_name_H-M   'P 1'
_symmetry_Int_Tables_number      1
_space_group_name_Hall           'P 1'
loop_
_symmetry_equiv_pos_site_id
_symmetry_equiv_pos_as_xyz
1 x,y,z
_cell_length_a                   5.10416(10)
_cell_length_b                   6.85592(14)
_cell_length_c                   10.80674(23)
_cell_angle_alpha                75.6699(15)
_cell_angle_beta                 90.1196(16)
_cell_angle_gamma                75.6973(15)
_cell_volume                     354.238
loop_
_atom_site_label
_atom_site_type_symbol
_atom_site_fract_x
_atom_site_fract_y
_atom_site_fract_z
Bi1 Bi 0.5692 0.3379 0.0876
O1 O 1.1163 0.2131 0.0961
O2 O 0.2613 0.6196 -0.095
O3 O 0.6243 0.4528 -0.175
O4 O 0.2915 0.5878 0.1756
O5 O 0.5963 -0.0074 0.2458
O6 O 0.7433 0.6682 0.0439
N1 N 0.744 0.3542 0.3034
O7 O 0.3812 0.0811 -0.0369
N2 N 1.1463 0.1135 0.0075
N3 N 0.3742 0.538 -0.1831
C1 C 0.3101 0.5973 0.2907
C2 C 0.5728 0.4816 0.3609
C3 C 0.9782 0.2361 0.3649
O8 O 1.0000 0.0000 0.0000
O9 O 0.2468 0.6119 -0.2964
O10 O 0.1522 0.7235 0.3376
C4 C 0.6312 0.4927 0.4813
C5 C 1.0482 0.2498 0.4846
H1 H 1.095 0.1426 0.3249
C6 C 0.8779 0.3765 0.5441
H2 H 0.5043 0.5792 0.5217
C7 C 1.32 0.1235 0.553
H3 H 0.9245 0.3867 0.627
O11 O 1.3528 0.1102 0.6701
O12 O 1.4859 0.0245 0.4892
O1_2 O 0.1163 0.2131 0.0961
Bi1_2 Bi 1.5692 0.3379 0.0876
O7_2 O 1.3812 0.0811 -0.0369
O13 O 0.73 0.9112 0.7832
loop_
_geom_bond_atom_site_label_1
_geom_bond_atom_site_label_2
_geom_bond_site_symmetry_1
_geom_bond_site_symmetry_2
Bi1 O1 1_555 1_555
O1 N2 1_555 1_555
O2 Bi1 1_555 1_555
O3 Bi1 1_555 1_555
O4 Bi1 1_555 1_555
O5 Bi1 1_555 1_555
O6 Bi1 1_555 1_555
N1 Bi1 1_555 1_555
O7 Bi1 1_555 1_555
N2 O8 1_555 1_555
N3 O2 1_555 1_555
C1 O4 1_555 1_555
C2 N1 1_555 1_555
C3 N1 1_555 1_555
O9 N3 1_555 1_555
O10 C1 1_555 1_555
C4 C2 1_555 1_555
C5 C3 1_555 1_555
H1 C3 1_555 1_555
C6 C4 1_555 1_555
H2 C4 1_555 1_555
C7 C5 1_555 1_555
H3 C6 1_555 1_555
O11 C7 1_555 1_555
O12 C7 1_555 1_555
O1_2 Bi1 1_555 1_555
Bi1_2 O1 1_555 1_555
O7_2 N2 1_555 1_555
O3 N3 1_555 1_555
C1 C2 1_555 1_555
C5 C6 1_555 1_555
Bi1_2 O7_2 1_555 1_555

#END
