
#######################################################################
#
#                 Cambridge Crystallographic Data Centre
#                                CCDC 
#
#######################################################################
#
# If this CIF has been generated from an entry in the Cambridge 
# Structural Database, then it will include bibliographic, chemical, 
# crystal, experimental, refinement or atomic coordinate data resulting 
# from the CCDC's data processing and validation procedures.
#
#######################################################################

data_ROJFUS
_symmetry_cell_setting           monoclinic
_symmetry_space_group_name_H-M   'C 2/c'
_symmetry_Int_Tables_number      15
_space_group_name_Hall           '-C 2yn'
loop_
_symmetry_equiv_pos_site_id
_symmetry_equiv_pos_as_xyz
1 x,y,z
2 1/2+x,1/2+y,z
3 -x,y,1/2-z
4 1/2-x,1/2+y,1/2-z
5 -x,-y,-z
6 1/2-x,1/2-y,-z
7 x,-y,1/2+z
8 1/2+x,1/2-y,1/2+z
_cell_length_a                   26.165(3)
_cell_length_b                   9.0140(10)
_cell_length_c                   27.629(3)
_cell_angle_alpha                90.00
_cell_angle_beta                 92.931(2)
_cell_angle_gamma                90.00
_cell_volume                     6507.81
loop_
_atom_site_label
_atom_site_type_symbol
_atom_site_fract_x
_atom_site_fract_y
_atom_site_fract_z
Ag1 Ag 0.026173(14) 1.19144(4) 0.125858(10)
Ag2 Ag 0.046517(11) 0.88487(3) 0.097579(10)
Ag3 Ag 0.006890(11) 1.65546(3) -0.005430(10)
O1 O 0.05594(12) 1.1108(3) 0.19442(9)
O2 O 0.09291(11) 0.9119(3) 0.16497(9)
O3 O 0.05222(9) 1.6356(2) 0.06436(8)
O4 O 0.04049(9) 1.3951(2) 0.07388(8)
O5 O -0.01223(8) 1.1224(2) 0.05284(8)
O6 O -0.03335(9) 0.8852(2) 0.05713(8)
C1 C 0.08372(13) 0.9985(4) 0.19800(12)
C2 C 0.10658(14) 0.9645(4) 0.24804(11)
C3 C 0.07299(15) 0.9403(4) 0.28432(13)
H1 H 0.0381 0.9553 0.2779
C4 C 0.09035(17) 0.8942(4) 0.33006(13)
H2 H 0.0673 0.8759 0.3539
C5 C 0.14179(18) 0.8759(4) 0.33979(13)
H3 H 0.1539 0.8450 0.3704
C6 C 0.17535(16) 0.9030(4) 0.30460(13)
H4 H 0.2102 0.8922 0.3121
C7 C 0.15913(14) 0.9462(4) 0.25774(12)
C8 C 0.19763(14) 0.9721(4) 0.22091(13)
C9 C 0.23769(16) 0.8722(5) 0.21673(16)
H5 H 0.2398 0.7892 0.2367
C10 C 0.27447(17) 0.8949(6) 0.18312(19)
H6 H 0.3011 0.8275 0.1808
C11 C 0.27165(19) 1.0167(7) 0.15321(18)
H7 H 0.2960 1.0312 0.1303
C12 C 0.23288(18) 1.1161(6) 0.15737(17)
H8 H 0.2311 1.1989 0.1373
C13 C 0.19610(15) 1.0959(5) 0.19101(14)
H9 H 0.1702 1.1657 0.1936
C14 C 0.05740(11) 1.5186(3) 0.08813(10)
C15 C 0.08332(12) 1.5267(3) 0.13803(10)
C16 C 0.05162(14) 1.5473(5) 0.17600(12)
H10 H 0.0164 1.5517 0.1697
C17 C 0.07142(17) 1.5614(6) 0.22326(13)
H11 H 0.0497 1.5761 0.2484
C18 C 0.12287(16) 1.5538(5) 0.23259(13)
H12 H 0.1364 1.5626 0.2643
C19 C 0.15481(14) 1.5332(4) 0.19557(12)
H13 H 0.1899 1.5284 0.2026
C20 C 0.13639(12) 1.5192(3) 0.14733(11)
C21 C 0.17369(12) 1.4981(4) 0.10919(12)
C22 C 0.22031(14) 1.5746(5) 0.11234(14)
H14 H 0.2269 1.6413 0.1376
C23 C 0.25643(16) 1.5524(6) 0.07868(18)
H15 H 0.2874 1.6031 0.0816
C24 C 0.24712(18) 1.4559(6) 0.04079(18)
H16 H 0.2716 1.4422 0.0179
C25 C 0.20183(18) 1.3799(5) 0.03670(16)
H17 H 0.1956 1.3140 0.0112
C26 C 0.16533(14) 1.4012(4) 0.07049(13)
H18 H 0.1346 1.3497 0.0672
C27 C -0.04237(11) 1.0153(3) 0.04370(10)
C28 C -0.09020(11) 1.0494(3) 0.01349(11)
C29 C -0.10357(12) 0.9513(4) -0.02425(12)
H19 H -0.0857 0.8628 -0.0269
C30 C -0.14308(13) 0.9841(4) -0.05766(12)
H20 H -0.1510 0.9194 -0.0832
C31 C -0.17080(14) 1.1135(4) -0.05300(14)
H21 H -0.1973 1.1364 -0.0755
C32 C -0.15911(13) 1.2081(4) -0.01496(13)
H22 H -0.1787 1.2931 -0.0115
C33 C -0.11853(12) 1.1798(3) 0.01866(11)
C34 C -0.10747(12) 1.2892(4) 0.05825(11)
C35 C -0.10433(13) 1.4398(4) 0.04750(13)
H23 H -0.1097 1.4718 0.0157
C36 C -0.09315(15) 1.5429(4) 0.08424(15)
H24 H -0.0909 1.6432 0.0767
C37 C -0.08548(15) 1.4968(5) 0.13169(15)
H25 H -0.0780 1.5656 0.1561
C38 C -0.08899(15) 1.3479(5) 0.14264(14)
H26 H -0.0840 1.3167 0.1746
C39 C -0.09991(13) 1.2444(4) 0.10642(12)
H27 H -0.1022 1.1444 0.1143
Ag1_2 Ag 0.026173(14) 2.19144(4) 0.125858(10)
Ag1_3 Ag 0.026173(14) 0.19144(4) 0.125858(10)
Ag1D Ag -0.026173(14) 1.80856(4) -0.125858(10)
Ag2_2 Ag 0.046517(11) 1.88487(3) 0.097579(10)
Ag2D Ag -0.046517(11) 2.11513(3) -0.097579(10)
Ag3D Ag -0.006890(11) 1.34454(3) 0.005430(10)
Ag3_2 Ag 0.006890(11) 0.65546(3) -0.005430(10)
Ag3D_2 Ag -0.006890(11) 0.34454(3) 0.005430(10)
O1_2 O 0.05594(12) 2.1108(3) 0.19442(9)
O2_2 O 0.09291(11) 1.9119(3) 0.16497(9)
O3_2 O 0.05222(9) 0.6356(2) 0.06436(8)
O3D O -0.05222(9) 1.3644(2) -0.06436(8)
O4_2 O 0.04049(9) 0.3951(2) 0.07388(8)
O4D O -0.04049(9) 1.6049(2) -0.07388(8)
O4_3 O 0.04049(9) 2.3951(2) 0.07388(8)
O5D O 0.01223(8) 1.8776(2) -0.05284(8)
O5_2 O -0.01223(8) 2.1224(2) 0.05284(8)
O6D O 0.03335(9) 2.1148(2) -0.05713(8)
O6_2 O -0.03335(9) 1.8852(2) 0.05713(8)
C1_2 C 0.08372(13) 1.9985(4) 0.19800(12)
C2_2 C 0.10658(14) 1.9645(4) 0.24804(11)
C3_2 C 0.07299(15) 1.9403(4) 0.28432(13)
H1_2 H 0.0381 1.9553 0.2779
C4_2 C 0.09035(17) 1.8942(4) 0.33006(13)
H2_2 H 0.0673 1.8759 0.3539
C5_2 C 0.14179(18) 1.8759(4) 0.33979(13)
H3_2 H 0.1539 1.8450 0.3704
C6_2 C 0.17535(16) 1.9030(4) 0.30460(13)
H4_2 H 0.2102 1.8922 0.3121
C7_2 C 0.15913(14) 1.9462(4) 0.25774(12)
C8_2 C 0.19763(14) 1.9721(4) 0.22091(13)
C9_2 C 0.23769(16) 1.8722(5) 0.21673(16)
H5_2 H 0.2398 1.7892 0.2367
C10_2 C 0.27447(17) 1.8949(6) 0.18312(19)
H6_2 H 0.3011 1.8275 0.1808
C11_2 C 0.27165(19) 2.0167(7) 0.15321(18)
H7_2 H 0.2960 2.0312 0.1303
C12_2 C 0.23288(18) 2.1161(6) 0.15737(17)
H8_2 H 0.2311 2.1989 0.1373
C13_2 C 0.19610(15) 2.0959(5) 0.19101(14)
H9_2 H 0.1702 2.1657 0.1936
C14_2 C 0.05740(11) 0.5186(3) 0.08813(10)
C15_2 C 0.08332(12) 0.5267(3) 0.13803(10)
C16_2 C 0.05162(14) 0.5473(5) 0.17600(12)
H10_2 H 0.0164 0.5517 0.1697
C17_2 C 0.07142(17) 0.5614(6) 0.22326(13)
H11_2 H 0.0497 0.5761 0.2484
C18_2 C 0.12287(16) 0.5538(5) 0.23259(13)
H12_2 H 0.1364 0.5626 0.2643
C19_2 C 0.15481(14) 0.5332(4) 0.19557(12)
H13_2 H 0.1899 0.5284 0.2026
C20_2 C 0.13639(12) 0.5192(3) 0.14733(11)
C21_2 C 0.17369(12) 0.4981(4) 0.10919(12)
C22_2 C 0.22031(14) 0.5746(5) 0.11234(14)
H14_2 H 0.2269 0.6413 0.1376
C23_2 C 0.25643(16) 0.5524(6) 0.07868(18)
H15_2 H 0.2874 0.6031 0.0816
C24_2 C 0.24712(18) 0.4559(6) 0.04079(18)
H16_2 H 0.2716 0.4422 0.0179
C25_2 C 0.20183(18) 0.3799(5) 0.03670(16)
H17_2 H 0.1956 0.3140 0.0112
C26_2 C 0.16533(14) 0.4012(4) 0.07049(13)
H18_2 H 0.1346 0.3497 0.0672
C27D C 0.04237(11) 1.9847(3) -0.04370(10)
C28D C 0.09020(11) 1.9506(3) -0.01349(11)
C29D C 0.10357(12) 2.0487(4) 0.02425(12)
H19D H 0.0857 2.1372 0.0269
C30D C 0.14308(13) 2.0159(4) 0.05766(12)
H20D H 0.1510 2.0806 0.0832
C31D C 0.17080(14) 1.8865(4) 0.05300(14)
H21D H 0.1973 1.8636 0.0755
C32D C 0.15911(13) 1.7919(4) 0.01496(13)
H22D H 0.1787 1.7069 0.0115
C33D C 0.11853(12) 1.8202(3) -0.01866(11)
C34D C 0.10747(12) 1.7108(4) -0.05825(11)
C35D C 0.10433(13) 1.5602(4) -0.04750(13)
H23D H 0.1097 1.5282 -0.0157
C36D C 0.09315(15) 1.4571(4) -0.08424(15)
H24D H 0.0909 1.3568 -0.0767
C37D C 0.08548(15) 1.5032(5) -0.13169(15)
H25D H 0.0780 1.4344 -0.1561
C38D C 0.08899(15) 1.6521(5) -0.14264(14)
H26D H 0.0840 1.6833 -0.1746
C39D C 0.09991(13) 1.7556(4) -0.10642(12)
H27D H 0.1022 1.8556 -0.1143
O7 O 0.0000 0.3044(7) 0.2500
H28 H 0.0151(18) 0.245(4) 0.2309(15)
H28B H -0.0151(18) 0.245(4) 0.2691(15)
loop_
_geom_bond_atom_site_label_1
_geom_bond_atom_site_label_2
_geom_bond_site_symmetry_1
_geom_bond_site_symmetry_2
Ag1 O1 1_555 1_555
Ag2 O2 1_555 1_555
Ag3 O3 1_555 1_555
O1 C1 1_555 1_555
O2 C1 1_555 1_555
O3 C14 1_555 1_555
O4 Ag1 1_555 1_555
O5 Ag1 1_555 1_555
O6 Ag2 1_555 1_555
O7 H28 1_555 1_555
C1 C2 1_555 1_555
C2 C3 1_555 1_555
C3 H1 1_555 1_555
C4 C3 1_555 1_555
H2 C4 1_555 1_555
C5 C4 1_555 1_555
H3 C5 1_555 1_555
C6 C5 1_555 1_555
H4 C6 1_555 1_555
C7 C2 1_555 1_555
C8 C7 1_555 1_555
C9 C8 1_555 1_555
H5 C9 1_555 1_555
C10 C9 1_555 1_555
H6 C10 1_555 1_555
C11 C10 1_555 1_555
H7 C11 1_555 1_555
C12 C11 1_555 1_555
H8 C12 1_555 1_555
C13 C8 1_555 1_555
H9 C13 1_555 1_555
C14 O4 1_555 1_555
C15 C14 1_555 1_555
C16 C15 1_555 1_555
H10 C16 1_555 1_555
C17 C16 1_555 1_555
H11 C17 1_555 1_555
C18 C17 1_555 1_555
H12 C18 1_555 1_555
C19 C18 1_555 1_555
H13 C19 1_555 1_555
C20 C15 1_555 1_555
C21 C20 1_555 1_555
C22 C21 1_555 1_555
H14 C22 1_555 1_555
C23 C22 1_555 1_555
H15 C23 1_555 1_555
C24 C23 1_555 1_555
H16 C24 1_555 1_555
C25 C24 1_555 1_555
H17 C25 1_555 1_555
C26 C21 1_555 1_555
H18 C26 1_555 1_555
C27 O5 1_555 1_555
C28 C27 1_555 1_555
C29 C28 1_555 1_555
H19 C29 1_555 1_555
C30 C29 1_555 1_555
H20 C30 1_555 1_555
C31 C30 1_555 1_555
H21 C31 1_555 1_555
C32 C31 1_555 1_555
H22 C32 1_555 1_555
C33 C28 1_555 1_555
C34 C33 1_555 1_555
C35 C34 1_555 1_555
H23 C35 1_555 1_555
C36 C35 1_555 1_555
H24 C36 1_555 1_555
C37 C36 1_555 1_555
H25 C37 1_555 1_555
C38 C37 1_555 1_555
H26 C38 1_555 1_555
C39 C34 1_555 1_555
H27 C39 1_555 1_555
Ag1_2 O1_2 1_555 1_555
Ag1_3 O4_2 1_555 1_555
Ag1D O4D 1_555 1_555
Ag2_2 O3 1_555 1_555
Ag2D O6D 1_555 1_555
Ag3D O4 1_555 1_555
Ag3_2 O3_2 1_555 1_555
Ag3D_2 O4_2 1_555 1_555
O1_2 C1_2 1_555 1_555
O2_2 Ag2_2 1_555 1_555
O3_2 Ag2 1_555 1_555
O3D Ag3D 1_555 1_555
O4_2 C14_2 1_555 1_555
O4D Ag3 1_555 1_555
O4_3 Ag1_2 1_555 1_555
O5D Ag3 1_555 1_555
O5_2 Ag1_2 1_555 1_555
O6D C27D 1_555 1_555
O6_2 Ag2_2 1_555 1_555
C1_2 O2_2 1_555 1_555
C2_2 C1_2 1_555 1_555
C3_2 C2_2 1_555 1_555
H1_2 C3_2 1_555 1_555
C4_2 C3_2 1_555 1_555
H2_2 C4_2 1_555 1_555
C5_2 C4_2 1_555 1_555
H3_2 C5_2 1_555 1_555
C6_2 C5_2 1_555 1_555
H4_2 C6_2 1_555 1_555
C7_2 C2_2 1_555 1_555
C8_2 C7_2 1_555 1_555
C9_2 C8_2 1_555 1_555
H5_2 C9_2 1_555 1_555
C10_2 C9_2 1_555 1_555
H6_2 C10_2 1_555 1_555
C11_2 C10_2 1_555 1_555
H7_2 C11_2 1_555 1_555
C12_2 C11_2 1_555 1_555
H8_2 C12_2 1_555 1_555
C13_2 C8_2 1_555 1_555
H9_2 C13_2 1_555 1_555
C14_2 O3_2 1_555 1_555
C15_2 C14_2 1_555 1_555
C16_2 C15_2 1_555 1_555
H10_2 C16_2 1_555 1_555
C17_2 C16_2 1_555 1_555
H11_2 C17_2 1_555 1_555
C18_2 C17_2 1_555 1_555
H12_2 C18_2 1_555 1_555
C19_2 C18_2 1_555 1_555
H13_2 C19_2 1_555 1_555
C20_2 C15_2 1_555 1_555
C21_2 C20_2 1_555 1_555
C22_2 C21_2 1_555 1_555
H14_2 C22_2 1_555 1_555
C23_2 C22_2 1_555 1_555
H15_2 C23_2 1_555 1_555
C24_2 C23_2 1_555 1_555
H16_2 C24_2 1_555 1_555
C25_2 C24_2 1_555 1_555
H17_2 C25_2 1_555 1_555
C26_2 C21_2 1_555 1_555
H18_2 C26_2 1_555 1_555
C27D O5D 1_555 1_555
C28D C27D 1_555 1_555
C29D C28D 1_555 1_555
H19D C29D 1_555 1_555
C30D C29D 1_555 1_555
H20D C30D 1_555 1_555
C31D C30D 1_555 1_555
H21D C31D 1_555 1_555
C32D C31D 1_555 1_555
H22D C32D 1_555 1_555
C33D C28D 1_555 1_555
C34D C33D 1_555 1_555
C35D C34D 1_555 1_555
H23D C35D 1_555 1_555
C36D C35D 1_555 1_555
H24D C36D 1_555 1_555
C37D C36D 1_555 1_555
H25D C37D 1_555 1_555
C38D C37D 1_555 1_555
H26D C38D 1_555 1_555
C39D C34D 1_555 1_555
H27D C39D 1_555 1_555
H28B O7 1_555 1_555
O5 Ag3D 1_555 1_555
O6 C27 1_555 1_555
C6 C7 1_555 1_555
C12 C13 1_555 1_555
C19 C20 1_555 1_555
C25 C26 1_555 1_555
C32 C33 1_555 1_555
C38 C39 1_555 1_555
Ag1D O5D 1_555 1_555
C6_2 C7_2 1_555 1_555
C12_2 C13_2 1_555 1_555
C19_2 C20_2 1_555 1_555
C25_2 C26_2 1_555 1_555
C32D C33D 1_555 1_555
C38D C39D 1_555 1_555

#END
