
#######################################################################
#
#                 Cambridge Crystallographic Data Centre
#                                CCDC 
#
#######################################################################
#
# If this CIF has been generated from an entry in the Cambridge 
# Structural Database, then it will include bibliographic, chemical, 
# crystal, experimental, refinement or atomic coordinate data resulting 
# from the CCDC's data processing and validation procedures.
#
#######################################################################

data_ROJJOQ
_symmetry_cell_setting           triclinic
_symmetry_space_group_name_H-M   'P -1'
_symmetry_Int_Tables_number      2
_space_group_name_Hall           '-P 1'
loop_
_symmetry_equiv_pos_site_id
_symmetry_equiv_pos_as_xyz
1 x,y,z
2 -x,-y,-z
_cell_length_a                   6.7899(7)
_cell_length_b                   6.9311(10)
_cell_length_c                   11.5701(12)
_cell_angle_alpha                76.525(10)
_cell_angle_beta                 84.276(8)
_cell_angle_gamma                78.545(10)
_cell_volume                     518.152
loop_
_atom_site_label
_atom_site_type_symbol
_atom_site_fract_x
_atom_site_fract_y
_atom_site_fract_z
S1 S 0.28470(5) 0.75672(5) 0.16632(3)
O1 O 0.40494(18) 0.63246(17) 0.09062(9)
O2 O 0.07888(17) 0.82255(18) 0.12946(10)
O3 O 0.37022(19) 0.92582(17) 0.17850(10)
C1 C 0.2712(2) 0.5984(2) 0.31031(13)
C2 C 0.2507(2) 0.6803(2) 0.40993(13)
H1 H 0.2433 0.8182 0.4018
C3 C 0.2414(2) 0.5544(2) 0.52261(13)
C4 C 0.2279(2) 0.6331(2) 0.63283(13)
O4 O 0.2182(2) 0.83081(18) 0.61228(10)
H2 H 0.240(4) 0.863(4) 0.674(2)
O5 O 0.2276(2) 0.52644(18) 0.73184(9)
C5 C 0.2527(3) 0.3494(2) 0.53424(14)
H3 H 0.2478 0.2654 0.6096
C6 C 0.2714(3) 0.2690(2) 0.43435(15)
H4 H 0.2777 0.1312 0.4425
C7 C 0.2807(3) 0.3933(2) 0.32164(14)
H5 H 0.2932 0.3394 0.2543
Na1 Na 0.26030(10) 0.56319(10) -0.07520(5)
O6 O 0.2721(2) 0.92558(19) -0.18450(11)
H6 H 0.369(4) 0.985(3) -0.179(2)
H7 H 0.183(4) 1.000(4) -0.171(2)
O7 O 0.1147(2) 0.2899(2) 0.03886(12)
H8 H 0.074(4) 0.257(4) -0.008(2)
H9 H 0.191(4) 0.189(4) 0.080(2)
O1A O 0.59506(18) 0.36754(17) -0.09062(9)
O5_2 O 0.2276(2) 0.52644(18) -0.26816(9)
Na1A Na 0.73970(10) 0.43681(10) 0.07520(5)
Na1_2 Na 0.26030(10) 0.56319(10) 0.92480(5)
Na1A_2 Na -0.26030(10) 0.43681(10) 0.07520(5)
O7A O -0.1147(2) 0.7101(2) -0.03886(12)
loop_
_geom_bond_atom_site_label_1
_geom_bond_atom_site_label_2
_geom_bond_site_symmetry_1
_geom_bond_site_symmetry_2
S1 O1 1_555 1_555
O1 Na1 1_555 1_555
O2 S1 1_555 1_555
O3 S1 1_555 1_555
C1 S1 1_555 1_555
C2 C1 1_555 1_555
H1 C2 1_555 1_555
C3 C2 1_555 1_555
C4 C3 1_555 1_555
O4 C4 1_555 1_555
H2 O4 1_555 1_555
O5 C4 1_555 1_555
C5 C3 1_555 1_555
H3 C5 1_555 1_555
C6 C5 1_555 1_555
H4 C6 1_555 1_555
C7 C1 1_555 1_555
H5 C7 1_555 1_555
Na1 O6 1_555 1_555
O6 H6 1_555 1_555
H7 O6 1_555 1_555
O7 Na1 1_555 1_555
H8 O7 1_555 1_555
H9 O7 1_555 1_555
O1A Na1 1_555 1_555
O5_2 Na1 1_555 1_555
Na1A O1 1_555 1_555
Na1_2 O5 1_555 1_555
Na1A_2 O7 1_555 1_555
O7A Na1 1_555 1_555
C6 C7 1_555 1_555
O1A Na1A 1_555 1_555
Na1A_2 O7A 1_555 1_555

#END
