
#######################################################################
#
#                 Cambridge Crystallographic Data Centre
#                                CCDC 
#
#######################################################################
#
# If this CIF has been generated from an entry in the Cambridge 
# Structural Database, then it will include bibliographic, chemical, 
# crystal, experimental, refinement or atomic coordinate data resulting 
# from the CCDC's data processing and validation procedures.
#
#######################################################################

data_ROJPOV
_symmetry_cell_setting           monoclinic
_symmetry_space_group_name_H-M   'P 21/n'
_symmetry_Int_Tables_number      14
_space_group_name_Hall           '-P 2yn'
loop_
_symmetry_equiv_pos_site_id
_symmetry_equiv_pos_as_xyz
1 x,y,z
2 1/2-x,1/2+y,1/2-z
3 -x,-y,-z
4 1/2+x,1/2-y,1/2+z
_cell_length_a                   7.323(2)
_cell_length_b                   16.028(6)
_cell_length_c                   7.202(2)
_cell_angle_alpha                90
_cell_angle_beta                 113.109(10)
_cell_angle_gamma                90
_cell_volume                     777.492
loop_
_atom_site_label
_atom_site_type_symbol
_atom_site_fract_x
_atom_site_fract_y
_atom_site_fract_z
Cd1 Cd 0.47384(5) 0.30343(2) 0.04644(5)
O1 O 0.7857(5) 0.2972(2) 0.2779(6)
O2 O 1.1062(6) 0.3158(2) 0.4406(6)
C1 C 0.9417(8) 0.3401(3) 0.3097(7)
C2 C 0.9235(8) 0.4203(3) 0.1938(8)
H1 H 0.8529(81) 0.4107(35) 0.0605(81)
H2 H 0.8368(92) 0.4591(41) 0.2224(83)
C3 C 1.1644(10) 0.5341(4) 0.3456(9)
H3 H 1.052(11) 0.5630(47) 0.3848(99)
H4 H 1.283(12) 0.5613(51) 0.376(11)
C4 C 1.1198(8) 0.4640(3) 0.2402(8)
C5 C 1.2604(7) 0.4236(3) 0.1640(7)
O3 O 1.1969(6) 0.3604(2) 0.0521(6)
O4 O 1.4321(6) 0.4508(3) 0.2063(6)
O5 O 1.4559(8) 0.3808(3) -0.2301(6)
H5 H 1.337(19) 0.3815(92) -0.260(18)
H6 H 1.470(10) 0.4357(48) -0.2525(94)
O6 O 1.4015(8) 0.2269(4) 0.2835(8)
H7 H 1.520(13) 0.2008(52) 0.413(13)
H8 H 1.330(14) 0.2468(56) 0.327(13)
Cd1C Cd 0.97384(5) 0.19657(2) 0.54644(5)
O1_2 O 1.7857(5) 0.2972(2) 0.2779(6)
Cd1_2 Cd 1.47384(5) 0.30343(2) 0.04644(5)
O1C O 1.2857(5) 0.2028(2) -0.2221(6)
O2C O 1.6062(6) 0.1842(2) -0.0594(6)
loop_
_geom_bond_atom_site_label_1
_geom_bond_atom_site_label_2
_geom_bond_site_symmetry_1
_geom_bond_site_symmetry_2
Cd1 O1 1_555 1_555
O1 C1 1_555 1_555
O2 C1 1_555 1_555
C1 C2 1_555 1_555
C2 H1 1_555 1_555
H2 C2 1_555 1_555
C3 H3 1_555 1_555
H4 C3 1_555 1_555
C4 C2 1_555 1_555
C5 C4 1_555 1_555
O3 C5 1_555 1_555
O4 C5 1_555 1_555
O5 H5 1_555 1_555
H6 O5 1_555 1_555
O6 H7 1_555 1_555
H8 O6 1_555 1_555
Cd1C O1 1_555 1_555
O1_2 Cd1_2 1_555 1_555
Cd1_2 O3 1_555 1_555
O1C Cd1_2 1_555 1_555
O2C Cd1_2 1_555 1_555
O2 Cd1C 1_555 1_555
C3 C4 1_555 1_555
O4 Cd1_2 1_555 1_555
O5 Cd1_2 1_555 1_555
O6 Cd1_2 1_555 1_555

#END
