
#######################################################################
#
#                 Cambridge Crystallographic Data Centre
#                                CCDC 
#
#######################################################################
#
# If this CIF has been generated from an entry in the Cambridge 
# Structural Database, then it will include bibliographic, chemical, 
# crystal, experimental, refinement or atomic coordinate data resulting 
# from the CCDC's data processing and validation procedures.
#
#######################################################################

data_ROJQAK
_symmetry_cell_setting           monoclinic
_symmetry_space_group_name_H-M   'C 2/c'
_symmetry_Int_Tables_number      15
_space_group_name_Hall           '-C 2yn'
loop_
_symmetry_equiv_pos_site_id
_symmetry_equiv_pos_as_xyz
1 x,y,z
2 -x,y,1/2-z
3 1/2+x,1/2+y,z
4 1/2-x,1/2+y,1/2-z
5 -x,-y,-z
6 x,-y,1/2+z
7 1/2-x,1/2-y,-z
8 1/2+x,1/2-y,1/2+z
_cell_length_a                   26.2906(18)
_cell_length_b                   16.1172(11)
_cell_length_c                   7.8327(5)
_cell_angle_alpha                90
_cell_angle_beta                 93.173(5)
_cell_angle_gamma                90
_cell_volume                     3313.87
loop_
_atom_site_label
_atom_site_type_symbol
_atom_site_fract_x
_atom_site_fract_y
_atom_site_fract_z
Nd1 Nd 0.177973(7) 0.538010(10) 0.03027(2)
O1 O 0.22929(10) 0.07838(16) 0.3963(3)
O2 O 0.26824(9) 0.01454(15) 0.1947(3)
O3 O 0.18472(11) 0.35193(15) 0.3336(3)
O4 O 0.17960(10) 0.38353(15) 0.0549(3)
O5 O 0.12505(9) 0.51371(15) 0.2846(3)
O6 O 0.08589(10) 0.58149(18) 0.0748(3)
O7 O 0.18046(12) 0.66624(16) 0.2128(3)
H1 H 0.1826 0.6570 0.3185
H2 H 0.1824 0.7157 0.1804
C1 C 0.13893(14) 0.1056(2) 0.2032(5)
C2 C 0.13864(13) 0.1923(2) 0.2111(4)
C3 C 0.09825(14) 0.2311(3) 0.2873(5)
H3 H 0.0970 0.2887 0.2913
C4 C 0.06016(17) 0.1855(3) 0.3568(7)
H4 H 0.0336 0.2124 0.4078
C5 C 0.06130(18) 0.0998(3) 0.3507(7)
H5 H 0.0359 0.0689 0.3988
C6 C 0.10014(16) 0.0608(3) 0.2734(6)
H6 H 0.1005 0.0032 0.2677
C7 C 0.18257(14) 0.0600(2) 0.1258(5)
H7 H 0.1711 0.0052 0.0902
H8 H 0.1922 0.0897 0.0247
C8 C 0.22885(13) 0.05144(19) 0.2483(4)
C9 C 0.18167(14) 0.2404(2) 0.1382(4)
H9 H 0.1797 0.2336 0.0150
H10 H 0.2137 0.2166 0.1817
C10 C 0.18188(13) 0.3324(2) 0.1789(4)
C11 C 0.02360(13) 0.6701(2) 0.2974(4)
C12 C 0.04590(17) 0.7469(3) 0.3387(6)
H11 H 0.0775 0.7479 0.3984
C13 C 0.0231(2) 0.8203(3) 0.2946(8)
H12 H 0.0388 0.8702 0.3253
C14 C 0.05093(15) 0.5922(3) 0.3497(5)
H13 H 0.0258 0.5491 0.3652
H14 H 0.0689 0.6015 0.4596
C15 C 0.08838(13) 0.5612(2) 0.2269(5)
O5A O -0.12505(9) 0.51371(15) 0.2154(3)
O6A O -0.08589(10) 0.58149(18) 0.4252(3)
C11A C -0.02360(13) 0.6701(2) 0.2026(4)
C12A C -0.04590(17) 0.7469(3) 0.1613(6)
H11A H -0.0775 0.7479 0.1016
C13A C -0.0231(2) 0.8203(3) 0.2054(8)
H12A H -0.0388 0.8702 0.1747
C14A C -0.05093(15) 0.5922(3) 0.1503(5)
H13A H -0.0258 0.5491 0.1348
H14A H -0.0689 0.6015 0.0404
C15A C -0.08838(13) 0.5612(2) 0.2731(5)
Nd1A Nd -0.177973(7) 0.538010(10) 0.46973(2)
O1A O -0.22929(10) 0.07838(16) 0.1037(3)
O2A O -0.26824(9) 0.01454(15) 0.3053(3)
O3A O -0.18472(11) 0.35193(15) 0.1664(3)
O4A O -0.17960(10) 0.38353(15) 0.4451(3)
O7A O -0.18046(12) 0.66624(16) 0.2872(3)
H1A H -0.1826 0.6570 0.1815
H2A H -0.1824 0.7157 0.3196
C1A C -0.13893(14) 0.1056(2) 0.2968(5)
C2A C -0.13864(13) 0.1923(2) 0.2889(4)
C3A C -0.09825(14) 0.2311(3) 0.2127(5)
H3A H -0.0970 0.2887 0.2087
C4A C -0.06016(17) 0.1855(3) 0.1432(7)
H4A H -0.0336 0.2124 0.0922
C5A C -0.06130(18) 0.0998(3) 0.1493(7)
H5A H -0.0359 0.0689 0.1012
C6A C -0.10014(16) 0.0608(3) 0.2266(6)
H6A H -0.1005 0.0032 0.2323
C7A C -0.18257(14) 0.0600(2) 0.3742(5)
H7A H -0.1711 0.0052 0.4098
H8A H -0.1922 0.0897 0.4753
C8A C -0.22885(13) 0.05144(19) 0.2517(4)
C9A C -0.18167(14) 0.2404(2) 0.3618(4)
H9A H -0.1797 0.2336 0.4850
H10A H -0.2137 0.2166 0.3183
C10A C -0.18188(13) 0.3324(2) 0.3211(4)
Nd1B Nd -0.322027(7) 0.038010(10) 0.03027(2)
Nd1C Nd 0.322027(7) 0.038010(10) 0.46973(2)
Nd1D Nd -0.177973(7) 0.461990(10) -0.03027(2)
Nd1E Nd 0.177973(7) 0.461990(10) 0.53027(2)
Nd1F Nd 0.322027(7) -0.038010(10) -0.03027(2)
Nd1G Nd -0.322027(7) -0.038010(10) 0.53027(2)
O1B O -0.27071(10) 0.57838(16) 0.3963(3)
O1C O 0.27071(10) 0.57838(16) 0.1037(3)
O2B O -0.23176(9) 0.51454(15) 0.1947(3)
O2C O 0.23176(9) 0.51454(15) 0.3053(3)
O2F O 0.23176(9) 0.48546(15) -0.1947(3)
O2G O -0.23176(9) 0.48546(15) 0.6947(3)
O3D O -0.18472(11) 0.64807(15) 0.6664(3)
O3E O 0.18472(11) 0.64807(15) -0.1664(3)
O5D O -0.12505(9) 0.48629(15) 0.7154(3)
O5E O 0.12505(9) 0.48629(15) -0.2154(3)
O8 O 0.17138(15) 0.8324(2) 0.1436(4)
H15 H 0.2005 0.8528 0.1323
H16 H 0.1461 0.8588 0.1024
loop_
_geom_bond_atom_site_label_1
_geom_bond_atom_site_label_2
_geom_bond_site_symmetry_1
_geom_bond_site_symmetry_2
Nd1 O4 1_555 1_555
O1 C8 1_555 1_555
O2 C8 1_555 1_555
O3 C10 1_555 1_555
O4 C10 1_555 1_555
O5 Nd1 1_555 1_555
O6 Nd1 1_555 1_555
O7 Nd1 1_555 1_555
H1 O7 1_555 1_555
H2 O7 1_555 1_555
C1 C2 1_555 1_555
C2 C3 1_555 1_555
C3 H3 1_555 1_555
C4 C3 1_555 1_555
H4 C4 1_555 1_555
C5 C4 1_555 1_555
H5 C5 1_555 1_555
C6 C1 1_555 1_555
H6 C6 1_555 1_555
C7 C1 1_555 1_555
H7 C7 1_555 1_555
H8 C7 1_555 1_555
C8 C7 1_555 1_555
C9 C2 1_555 1_555
H9 C9 1_555 1_555
H10 C9 1_555 1_555
C10 C9 1_555 1_555
C11 C12 1_555 1_555
C12 H11 1_555 1_555
C13 C12 1_555 1_555
H12 C13 1_555 1_555
C14 C11 1_555 1_555
H13 C14 1_555 1_555
H14 C14 1_555 1_555
C15 O5 1_555 1_555
O8 H15 1_555 1_555
H16 O8 1_555 1_555
O5A C15A 1_555 1_555
O6A C15A 1_555 1_555
C11A C11 1_555 1_555
C12A C11A 1_555 1_555
H11A C12A 1_555 1_555
C13A C13 1_555 1_555
H12A C13A 1_555 1_555
C14A C11A 1_555 1_555
H13A C14A 1_555 1_555
H14A C14A 1_555 1_555
C15A C14A 1_555 1_555
Nd1A O5A 1_555 1_555
O1A C8A 1_555 1_555
O2A C8A 1_555 1_555
O3A C10A 1_555 1_555
O4A Nd1A 1_555 1_555
O7A Nd1A 1_555 1_555
H1A O7A 1_555 1_555
H2A O7A 1_555 1_555
C1A C2A 1_555 1_555
C2A C3A 1_555 1_555
C3A H3A 1_555 1_555
C4A C3A 1_555 1_555
H4A C4A 1_555 1_555
C5A C4A 1_555 1_555
H5A C5A 1_555 1_555
C6A C1A 1_555 1_555
H6A C6A 1_555 1_555
C7A C1A 1_555 1_555
H7A C7A 1_555 1_555
H8A C7A 1_555 1_555
C8A C7A 1_555 1_555
C9A C2A 1_555 1_555
H9A C9A 1_555 1_555
H10A C9A 1_555 1_555
C10A O4A 1_555 1_555
Nd1B O1A 1_555 1_555
Nd1C O1 1_555 1_555
Nd1D O5A 1_555 1_555
Nd1E O3 1_555 1_555
Nd1F O2 1_555 1_555
Nd1G O2A 1_555 1_555
O1B Nd1A 1_555 1_555
O1C Nd1 1_555 1_555
O2B Nd1A 1_555 1_555
O2C Nd1 1_555 1_555
O2F Nd1 1_555 1_555
O2G Nd1A 1_555 1_555
O3D Nd1A 1_555 1_555
O3E Nd1 1_555 1_555
O5D Nd1A 1_555 1_555
O5E Nd1 1_555 1_555
O2 Nd1C 1_555 1_555
O5 Nd1E 1_555 1_555
O6 C15 1_555 1_555
C5 C6 1_555 1_555
C14 C15 1_555 1_555
O6A Nd1A 1_555 1_555
C12A C13A 1_555 1_555
O2A Nd1B 1_555 1_555
O3A Nd1D 1_555 1_555
C5A C6A 1_555 1_555
C9A C10A 1_555 1_555
Nd1D O2B 1_555 1_555
Nd1E O2C 1_555 1_555

#END
