
#######################################################################
#
#                 Cambridge Crystallographic Data Centre
#                                CCDC 
#
#######################################################################
#
# If this CIF has been generated from an entry in the Cambridge 
# Structural Database, then it will include bibliographic, chemical, 
# crystal, experimental, refinement or atomic coordinate data resulting 
# from the CCDC's data processing and validation procedures.
#
#######################################################################

data_ROJQIS
_symmetry_cell_setting           orthorhombic
_symmetry_space_group_name_H-M   'P 21 21 21'
_symmetry_Int_Tables_number      19
_space_group_name_Hall           'P 2ac 2ab'
loop_
_symmetry_equiv_pos_site_id
_symmetry_equiv_pos_as_xyz
1 x,y,z
2 1/2-x,-y,1/2+z
3 1/2+x,1/2-y,-z
4 -x,1/2+y,1/2-z
_cell_length_a                   7.4499(5)
_cell_length_b                   7.7687(5)
_cell_length_c                   22.3741(15)
_cell_angle_alpha                90
_cell_angle_beta                 90
_cell_angle_gamma                90
_cell_volume                     1294.92
loop_
_atom_site_label
_atom_site_type_symbol
_atom_site_fract_x
_atom_site_fract_y
_atom_site_fract_z
Zn1 Zn 0.24392(5) 0.30375(5) 0.414157(17)
O1 O 0.9967(4) 0.2900(4) 0.38509(13)
O2 O 1.0265(4) 0.5284(4) 0.32964(13)
O3 O 0.2794(5) 1.1257(3) 0.47913(12)
O4 O 0.2597(5) 0.9988(3) 0.39140(12)
N1 N 0.4399(4) 0.3354(4) 0.35224(14)
N2 N 0.4832(6) 0.3597(7) 0.19036(17)
H1 H 0.3738 0.3423 0.1797
H2 H 0.5649 0.3750 0.1637
N3 N 0.2838(5) 0.5150(4) 0.46756(15)
N4 N 0.3792(5) 0.6222(5) 0.62409(14)
H3 H 0.3942 0.7108 0.6466
H4 H 0.3867 0.5204 0.6390
C1 C 0.3999(6) 0.3387(6) 0.29405(19)
H5 H 0.2808 0.3239 0.2827
C2 C 0.5277(6) 0.3631(6) 0.2499(2)
C3 C 0.7070(6) 0.3894(6) 0.26770(19)
H6 H 0.7961 0.4122 0.2397
C4 C 0.7474(6) 0.3803(5) 0.32839(17)
C5 C 0.6139(6) 0.3503(5) 0.36911(18)
H7 H 0.6434 0.3399 0.4093
C6 C 0.9393(5) 0.4037(5) 0.34821(16)
C7 C 0.2750(5) 0.6710(5) 0.44298(18)
H8 H 0.2547 0.6803 0.4021
C8 C 0.2950(5) 0.8196(5) 0.47644(18)
C9 C 0.3291(5) 0.8055(5) 0.53771(18)
H9 H 0.3429 0.9038 0.5610
C10 C 0.3423(5) 0.6440(5) 0.56331(18)
C11 C 0.3168(6) 0.5003(5) 0.52682(19)
H10 H 0.3227 0.3911 0.5437
C12 C 0.2784(6) 0.9907(5) 0.44742(18)
Zn1_2 Zn 0.24392(5) 1.30375(5) 0.414157(17)
Zn1_3 Zn 1.24392(5) 0.30375(5) 0.414157(17)
O1_2 O -0.0033(4) 0.2900(4) 0.38509(13)
O3_2 O 0.2794(5) 0.1257(3) 0.47913(12)
O4_2 O 0.2597(5) -0.0012(3) 0.39140(12)
loop_
_geom_bond_atom_site_label_1
_geom_bond_atom_site_label_2
_geom_bond_site_symmetry_1
_geom_bond_site_symmetry_2
Zn1 N1 1_555 1_555
O1 C6 1_555 1_555
O2 C6 1_555 1_555
O3 C12 1_555 1_555
O4 C12 1_555 1_555
N1 C1 1_555 1_555
N2 H1 1_555 1_555
H2 N2 1_555 1_555
N3 Zn1 1_555 1_555
N4 H3 1_555 1_555
H4 N4 1_555 1_555
C1 H5 1_555 1_555
C2 N2 1_555 1_555
C3 C2 1_555 1_555
H6 C3 1_555 1_555
C4 C3 1_555 1_555
C5 N1 1_555 1_555
H7 C5 1_555 1_555
C6 C4 1_555 1_555
C7 N3 1_555 1_555
H8 C7 1_555 1_555
C8 C7 1_555 1_555
C9 C8 1_555 1_555
H9 C9 1_555 1_555
C10 N4 1_555 1_555
C11 N3 1_555 1_555
H10 C11 1_555 1_555
C12 C8 1_555 1_555
Zn1_2 O3 1_555 1_555
Zn1_3 O1 1_555 1_555
O1_2 Zn1 1_555 1_555
O3_2 Zn1 1_555 1_555
O4_2 Zn1 1_555 1_555
O4 Zn1_2 1_555 1_555
C1 C2 1_555 1_555
C4 C5 1_555 1_555
C9 C10 1_555 1_555
C10 C11 1_555 1_555

#END
