
#######################################################################
#
#                 Cambridge Crystallographic Data Centre
#                                CCDC 
#
#######################################################################
#
# If this CIF has been generated from an entry in the Cambridge 
# Structural Database, then it will include bibliographic, chemical, 
# crystal, experimental, refinement or atomic coordinate data resulting 
# from the CCDC's data processing and validation procedures.
#
#######################################################################

data_ROJRAK
_symmetry_cell_setting           triclinic
_symmetry_space_group_name_H-M   'P -1'
_symmetry_Int_Tables_number      2
_space_group_name_Hall           '-P 1'
loop_
_symmetry_equiv_pos_site_id
_symmetry_equiv_pos_as_xyz
1 x,y,z
2 -x,-y,-z
_cell_length_a                   8.7924(18)
_cell_length_b                   8.8320(18)
_cell_length_c                   10.444(2)
_cell_angle_alpha                84.20(3)
_cell_angle_beta                 68.23(3)
_cell_angle_gamma                61.91(3)
_cell_volume                     661.779
loop_
_atom_site_label
_atom_site_type_symbol
_atom_site_fract_x
_atom_site_fract_y
_atom_site_fract_z
C1 C 0.4139(4) 0.3158(4) 0.5285(3)
H1 H 0.4841 0.1947 0.4949
H2 H 0.4683 0.3787 0.4626
C2 C 0.2137(4) 0.3845(4) 0.5474(3)
H3 H 0.1413 0.4981 0.5972
H4 H 0.2029 0.3956 0.4574
C3 C 0.1037(4) 0.2450(3) 0.7590(2)
H5 H 0.1098 0.3077 0.8216
N1 N 0.1396(3) 0.2707(3) 0.6239(2)
C4 C 0.1157(4) 0.1549(4) 0.5673(3)
H6 H 0.1310 0.1418 0.4754
C5 C 0.0656(4) 0.0632(4) 0.6702(3)
H7 H 0.0397 -0.0249 0.6611
N2 N 0.0589(3) 0.1200(3) 0.79094(19)
Cd1 Cd 0.0000 0.0000 1.0000
N3 N -0.1451(3) -0.2181(3) 0.8652(2)
N4 N 0.4823(3) 0.4848(3) 0.8460(2)
O1 O 0.4145(3) 0.3385(3) 0.66009(19)
N5 N 0.2742(3) 0.7563(3) 0.9015(2)
C6 C 0.3004(3) 0.5982(3) 0.8949(2)
H8 H 0.2057 0.5681 0.9206
C7 C 0.5770(3) 0.5771(4) 0.8197(3)
H9 H 0.7051 0.5333 0.7850
O2 O -0.1769(4) -0.0869(4) 0.9246(3)
C8 C 0.4488(4) 0.7439(4) 0.8537(3)
H10 H 0.4741 0.8363 0.8462
O3 O -0.1522(5) -0.2178(5) 0.7531(3)
O4 O -0.1110(4) -0.3491(4) 0.9253(3)
C9 C 0.5591(4) 0.2994(3) 0.8175(3)
H11 H 0.4748 0.2608 0.8820
H12 H 0.6762 0.2397 0.8311
C10 C 0.5896(4) 0.2546(4) 0.6713(3)
H13 H 0.6725 0.2937 0.6053
H14 H 0.6436 0.1309 0.6531
C1_2 C 0.4139(4) -0.6842(4) 0.5285(3)
H1_2 H 0.4841 -0.8053 0.4949
H2_2 H 0.4683 -0.6213 0.4626
C2_2 C 0.2137(4) -0.6155(4) 0.5474(3)
H3_2 H 0.1413 -0.5019 0.5972
H4_2 H 0.2029 -0.6044 0.4574
C3_2 C 0.1037(4) -0.7550(3) 0.7590(2)
H5_2 H 0.1098 -0.6923 0.8216
N1_2 N 0.1396(3) -0.7293(3) 0.6239(2)
C4_2 C 0.1157(4) -0.8451(4) 0.5673(3)
H6_2 H 0.1310 -0.8582 0.4754
C5_2 C 0.0656(4) -0.9368(4) 0.6702(3)
H7_2 H 0.0397 -1.0249 0.6611
N2_2 N 0.0589(3) -0.8800(3) 0.79094(19)
N2A N -0.0589(3) -0.1200(3) 1.20906(19)
Cd1_2 Cd 0.0000 1.0000 1.0000
Cd1_3 Cd 0.0000 -1.0000 1.0000
N3A N 0.1451(3) 0.2181(3) 1.1348(2)
N4_2 N 0.4823(3) -0.5152(3) 0.8460(2)
O1_2 O 0.4145(3) -0.6615(3) 0.66009(19)
N5_2 N 0.2742(3) -0.2437(3) 0.9015(2)
N5A N -0.2742(3) 0.2437(3) 1.0985(2)
C6_2 C 0.3004(3) -0.4018(3) 0.8949(2)
H8_2 H 0.2057 -0.4319 0.9206
C7_2 C 0.5770(3) -0.4229(4) 0.8197(3)
H9_2 H 0.7051 -0.4667 0.7850
O2A O 0.1769(4) 0.0869(4) 1.0754(3)
C8_2 C 0.4488(4) -0.2561(4) 0.8537(3)
H10_2 H 0.4741 -0.1637 0.8462
O3A O 0.1522(5) 0.2178(5) 1.2469(3)
O4A O 0.1110(4) 0.3491(4) 1.0747(3)
C9_2 C 0.5591(4) -0.7006(3) 0.8175(3)
H11_2 H 0.4748 -0.7392 0.8820
H12_2 H 0.6762 -0.7603 0.8311
C10_2 C 0.5896(4) -0.7454(4) 0.6713(3)
H13_2 H 0.6725 -0.7063 0.6053
H14_2 H 0.6436 -0.8691 0.6531
loop_
_geom_bond_atom_site_label_1
_geom_bond_atom_site_label_2
_geom_bond_site_symmetry_1
_geom_bond_site_symmetry_2
C1 H1 1_555 1_555
H2 C1 1_555 1_555
C2 C1 1_555 1_555
H3 C2 1_555 1_555
H4 C2 1_555 1_555
C3 H5 1_555 1_555
N1 C2 1_555 1_555
C4 N1 1_555 1_555
H6 C4 1_555 1_555
C5 C4 1_555 1_555
H7 C5 1_555 1_555
N2 C3 1_555 1_555
Cd1 N2 1_555 1_555
N3 O2 1_555 1_555
N4 C6 1_555 1_555
O1 C1 1_555 1_555
N5 C6 1_555 1_555
C6 H8 1_555 1_555
C7 N4 1_555 1_555
H9 C7 1_555 1_555
O2 Cd1 1_555 1_555
C8 N5 1_555 1_555
H10 C8 1_555 1_555
O3 N3 1_555 1_555
O4 N3 1_555 1_555
C9 N4 1_555 1_555
H11 C9 1_555 1_555
H12 C9 1_555 1_555
C10 O1 1_555 1_555
H13 C10 1_555 1_555
H14 C10 1_555 1_555
C1_2 H1_2 1_555 1_555
H2_2 C1_2 1_555 1_555
C2_2 C1_2 1_555 1_555
H3_2 C2_2 1_555 1_555
H4_2 C2_2 1_555 1_555
C3_2 H5_2 1_555 1_555
N1_2 C2_2 1_555 1_555
C4_2 N1_2 1_555 1_555
H6_2 C4_2 1_555 1_555
C5_2 C4_2 1_555 1_555
H7_2 C5_2 1_555 1_555
N2_2 C3_2 1_555 1_555
N2A Cd1 1_555 1_555
Cd1_2 N5 1_555 1_555
Cd1_3 N2_2 1_555 1_555
N3A O2A 1_555 1_555
N4_2 C6_2 1_555 1_555
O1_2 C1_2 1_555 1_555
N5_2 Cd1 1_555 1_555
N5A Cd1 1_555 1_555
C6_2 N5_2 1_555 1_555
H8_2 C6_2 1_555 1_555
C7_2 N4_2 1_555 1_555
H9_2 C7_2 1_555 1_555
O2A Cd1 1_555 1_555
C8_2 N5_2 1_555 1_555
H10_2 C8_2 1_555 1_555
O3A N3A 1_555 1_555
O4A N3A 1_555 1_555
C9_2 N4_2 1_555 1_555
H11_2 C9_2 1_555 1_555
H12_2 C9_2 1_555 1_555
C10_2 O1_2 1_555 1_555
H13_2 C10_2 1_555 1_555
H14_2 C10_2 1_555 1_555
C3 N1 1_555 1_555
C5 N2 1_555 1_555
C7 C8 1_555 1_555
C9 C10 1_555 1_555
C3_2 N1_2 1_555 1_555
C5_2 N2_2 1_555 1_555
C7_2 C8_2 1_555 1_555
C9_2 C10_2 1_555 1_555

#END
