
#######################################################################
#
#                 Cambridge Crystallographic Data Centre
#                                CCDC 
#
#######################################################################
#
# If this CIF has been generated from an entry in the Cambridge 
# Structural Database, then it will include bibliographic, chemical, 
# crystal, experimental, refinement or atomic coordinate data resulting 
# from the CCDC's data processing and validation procedures.
#
#######################################################################

data_ROJTIU01
_symmetry_cell_setting           triclinic
_symmetry_space_group_name_H-M   'P -1'
_symmetry_Int_Tables_number      2
_space_group_name_Hall           '-P 1'
loop_
_symmetry_equiv_pos_site_id
_symmetry_equiv_pos_as_xyz
1 x,y,z
2 -x,-y,-z
_cell_length_a                   7.8480(16)
_cell_length_b                   13.019(3)
_cell_length_c                   13.636(3)
_cell_angle_alpha                97.41(3)
_cell_angle_beta                 97.25(3)
_cell_angle_gamma                103.77(3)
_cell_volume                     1323.96
loop_
_atom_site_label
_atom_site_type_symbol
_atom_site_fract_x
_atom_site_fract_y
_atom_site_fract_z
Eu1 Eu 0.7682 0.5376 0.5198
O1 O 0.8105 0.7066 0.6380
O2 O 0.7150 0.5571 0.6936
C1 C 0.7545 0.6584 0.7066
C2 C 0.7355 0.7180 0.8030
H1 H 0.6924 0.6791 0.8512
C3 C 0.7775 0.8235 0.8235
H2 H 0.8245 0.8601 0.7748
C4 C 0.7590 0.8906 0.9135
C5 C 0.7180 0.8500 0.9985
H3 H 0.7024 0.7772 0.9993
C6 C 0.7005 0.9155 1.0815
O3 O 0.6575 0.8725 1.1658
C7 C 0.7200 1.0235 1.0800
H4 H 0.7073 1.0672 1.1357
C8 C 0.7585 1.0650 0.9975
H5 H 0.7688 1.1374 0.9962
C9 C 0.7835 1.0000 0.9130
H6 H 0.8160 1.0296 0.8574
O4 O 0.2685 0.6456 0.4404
O5 O 0.5130 0.5984 0.4745
C10 C 0.4340 0.6688 0.4500
C11 C 0.5415 0.7714 0.4345
H7 H 0.6646 0.7840 0.4480
C12 C 0.4745 0.8479 0.4040
H8 H 0.3514 0.8345 0.3918
C13 C 0.5765 0.9515 0.3870
C14 C 0.7600 0.9791 0.4010
H9 H 0.8208 0.9309 0.4228
C15 C 0.8550 1.0765 0.3830
O6 O 1.0335 1.0969 0.3955
C16 C 0.7670 1.1490 0.3520
H10 H 0.8305 1.2150 0.3410
C17 C 0.5855 1.1235 0.3380
H11 H 0.5259 1.1723 0.3175
C18 C 0.4890 1.0245 0.3545
H12 H 0.3660 1.0078 0.3434
O7 O 1.3255 0.5474 0.6545
O8 O 1.0600 0.5555 0.5962
C19 C 1.1800 0.5667 0.6692
C20 C 1.1510 0.5970 0.7725
H13 H 1.0460 0.6162 0.7806
C21 C 1.2630 0.5995 0.8533
H14 H 1.3730 0.5900 0.8428
C22 C 1.2375 0.6155 0.9575
C23 C 1.3604 0.5945 1.0285
H15 H 1.4638 0.5808 1.0102
C24 C 1.3330 0.5950 1.1270
O9 O 1.4560 0.5685 1.1920
C25 C 1.1855 0.6205 1.1565
H16 H 1.1683 0.6224 1.2228
C26 C 1.0660 0.6425 1.0870
H17 H 0.9660 0.6610 1.1067
C27 C 1.0880 0.6395 0.9875
H18 H 1.0024 0.6530 0.9410
O11 O 0.9292 0.6758 0.4374
H21 H 0.8716 0.6747 0.3826
Eu1A Eu 0.2318 0.4624 0.4802
Eu1A_2 Eu 1.2318 0.4624 0.4802
O4A O 0.7315 0.3544 0.5596
O5A O 0.4870 0.4016 0.5255
O7A O 0.6745 0.4526 0.3455
O8A O 0.9400 0.4445 0.4038
O10 O 0.2024 0.2948 -0.2554
H19 H 0.2977 0.3185 -0.2330
H20 H 0.1750 0.2410 -0.2375
loop_
_geom_bond_atom_site_label_1
_geom_bond_atom_site_label_2
_geom_bond_site_symmetry_1
_geom_bond_site_symmetry_2
Eu1 O1 1_555 1_555
O1 C1 1_555 1_555
O2 Eu1 1_555 1_555
C1 O2 1_555 1_555
C2 C1 1_555 1_555
H1 C2 1_555 1_555
C3 C2 1_555 1_555
H2 C3 1_555 1_555
C4 C3 1_555 1_555
C5 C4 1_555 1_555
H3 C5 1_555 1_555
C6 C5 1_555 1_555
O3 C6 1_555 1_555
C7 C6 1_555 1_555
H4 C7 1_555 1_555
C8 C7 1_555 1_555
H5 C8 1_555 1_555
C9 C4 1_555 1_555
H6 C9 1_555 1_555
O4 C10 1_555 1_555
O5 Eu1 1_555 1_555
C10 O5 1_555 1_555
C11 C10 1_555 1_555
H7 C11 1_555 1_555
C12 C11 1_555 1_555
H8 C12 1_555 1_555
C13 C12 1_555 1_555
C14 C13 1_555 1_555
H9 C14 1_555 1_555
C15 C14 1_555 1_555
O6 C15 1_555 1_555
C16 C15 1_555 1_555
H10 C16 1_555 1_555
C17 C16 1_555 1_555
H11 C17 1_555 1_555
C18 C13 1_555 1_555
H12 C18 1_555 1_555
O7 C19 1_555 1_555
O8 Eu1 1_555 1_555
C19 O8 1_555 1_555
C20 C19 1_555 1_555
H13 C20 1_555 1_555
C21 C20 1_555 1_555
H14 C21 1_555 1_555
C22 C21 1_555 1_555
C23 C22 1_555 1_555
H15 C23 1_555 1_555
C24 C23 1_555 1_555
O9 C24 1_555 1_555
C25 C24 1_555 1_555
H16 C25 1_555 1_555
C26 C25 1_555 1_555
H17 C26 1_555 1_555
C27 C22 1_555 1_555
H18 C27 1_555 1_555
O10 H19 1_555 1_555
H20 O10 1_555 1_555
O11 Eu1 1_555 1_555
H21 O11 1_555 1_555
Eu1A O4 1_555 1_555
Eu1A_2 O7 1_555 1_555
O4A Eu1 1_555 1_555
O5A Eu1 1_555 1_555
O7A Eu1 1_555 1_555
O8A Eu1 1_555 1_555
C8 C9 1_555 1_555
O5 Eu1A 1_555 1_555
C17 C18 1_555 1_555
O8 Eu1A_2 1_555 1_555
C26 C27 1_555 1_555
Eu1A O5A 1_555 1_555
Eu1A_2 O8A 1_555 1_555

#END
