
#######################################################################
#
#                 Cambridge Crystallographic Data Centre
#                                CCDC 
#
#######################################################################
#
# If this CIF has been generated from an entry in the Cambridge 
# Structural Database, then it will include bibliographic, chemical, 
# crystal, experimental, refinement or atomic coordinate data resulting 
# from the CCDC's data processing and validation procedures.
#
#######################################################################

data_ROJVOC
_symmetry_cell_setting           monoclinic
_symmetry_space_group_name_H-M   'P 21/c'
_symmetry_Int_Tables_number      14
_space_group_name_Hall           '-P 2ybc'
loop_
_symmetry_equiv_pos_site_id
_symmetry_equiv_pos_as_xyz
1 x,y,z
2 -x,1/2+y,1/2-z
3 -x,-y,-z
4 x,1/2-y,1/2+z
_cell_length_a                   13.6026(17)
_cell_length_b                   11.8085(15)
_cell_length_c                   18.570(2)
_cell_angle_alpha                90
_cell_angle_beta                 107.245(2)
_cell_angle_gamma                90
_cell_volume                     2848.74
loop_
_atom_site_label
_atom_site_type_symbol
_atom_site_fract_x
_atom_site_fract_y
_atom_site_fract_z
Zn1 Zn 0.42745(2) 0.71363(3) 0.432024(18)
N1 N 0.41520(17) 0.7240(2) 0.54040(13)
N2 N 0.39981(16) 0.8862(2) 0.43621(12)
O1 O 0.56314(15) 0.65071(19) 0.44240(12)
O2 O 0.53421(16) 0.7519(2) 0.33916(13)
O3 O 0.66846(16) 0.7572(2) 0.26712(12)
H1 H 0.6159 0.7727 0.2781
O4 O 0.73455(17) 0.83281(18) 0.13381(11)
H2 H 0.6964 0.8783 0.1055
O5 O 0.65461(17) 1.0240(2) 0.08338(12)
O6 O 0.69411(16) 1.17499(19) 0.15470(12)
C1 C 0.5891(2) 0.6848(3) 0.38613(17)
C2 C 0.68743(19) 0.6406(2) 0.37659(15)
C3 C 0.7415(2) 0.5600(2) 0.42425(16)
H3 H 0.7194 0.5375 0.4649
C4 C 0.8300(2) 0.5097(3) 0.41381(16)
C5 C 0.8796(2) 0.4181(3) 0.45933(18)
H4 H 0.8543 0.3921 0.4977
C6 C 0.9638(3) 0.3672(3) 0.4482(2)
H5 H 0.9957 0.3068 0.4782
C7 C 1.0012(3) 0.4076(3) 0.3904(2)
H6 H 1.0584 0.3731 0.3824
C8 C 0.9565(2) 0.4955(3) 0.34608(19)
H7 H 0.9843 0.5200 0.3087
C9 C 0.8680(2) 0.5517(2) 0.35500(16)
C10 C 0.8168(2) 0.6427(2) 0.30858(15)
C11 C 0.7243(2) 0.6801(2) 0.31675(15)
C12 C 0.8590(2) 0.6982(2) 0.24971(17)
H8 H 0.9285 0.6708 0.2567
H9 H 0.8174 0.6745 0.2000
C13 C 0.8612(2) 0.8264(3) 0.25250(16)
C14 C 0.9295(2) 0.8851(3) 0.31343(16)
C15 C 1.0047(2) 0.8282(3) 0.3734(2)
H10 H 1.0091 0.7496 0.3730
C16 C 1.0696(3) 0.8878(4) 0.4307(2)
H11 H 1.1181 0.8491 0.4687
C17 C 1.0650(3) 1.0055(4) 0.4339(2)
H12 H 1.1096 1.0443 0.4740
C18 C 0.9951(2) 1.0641(3) 0.37806(18)
H13 H 0.9924 1.1427 0.3800
C19 C 0.9268(2) 1.0047(3) 0.31730(16)
C20 C 0.8536(2) 1.0641(3) 0.25993(16)
H14 H 0.8491 1.1425 0.2629
C21 C 0.7887(2) 1.0076(3) 0.19963(15)
C22 C 0.7955(2) 0.8883(3) 0.19526(15)
C23 C 0.7087(2) 1.0728(3) 0.14230(16)
C24 C 0.4296(2) 0.6445(3) 0.59243(17)
H15 H 0.4532 0.5738 0.5829
C25 C 0.4105(3) 0.6630(3) 0.66131(19)
H16 H 0.4230 0.6061 0.6975
C26 C 0.3735(3) 0.7650(3) 0.67476(19)
H17 H 0.3583 0.7772 0.7198
C27 C 0.3582(2) 0.8523(3) 0.62133(16)
C28 C 0.3215(2) 0.9632(3) 0.63090(19)
H18 H 0.3042 0.9800 0.6746
C29 C 0.3115(2) 1.0432(3) 0.57793(19)
H19 H 0.2864 1.1141 0.5855
C30 C 0.3383(2) 1.0227(3) 0.51008(17)
C31 C 0.3349(2) 1.1036(3) 0.45468(19)
H20 H 0.3127 1.1767 0.4601
C32 C 0.3635(2) 1.0759(3) 0.39316(19)
H21 H 0.3619 1.1299 0.3564
C33 C 0.3955(2) 0.9659(3) 0.38551(17)
H22 H 0.4146 0.9476 0.3428
C34 C 0.37210(19) 0.9141(2) 0.49868(15)
C35 C 0.3815(2) 0.8273(3) 0.55432(15)
Zn1A Zn 0.57255(2) 1.21363(3) 0.067976(18)
O5A O 0.34539(17) 0.5240(2) 0.41662(12)
O6A O 0.30589(16) 0.67499(19) 0.34530(12)
loop_
_geom_bond_atom_site_label_1
_geom_bond_atom_site_label_2
_geom_bond_site_symmetry_1
_geom_bond_site_symmetry_2
Zn1 N1 1_555 1_555
N1 C24 1_555 1_555
N2 Zn1 1_555 1_555
O1 Zn1 1_555 1_555
O2 C1 1_555 1_555
O3 H1 1_555 1_555
O4 H2 1_555 1_555
O5 C23 1_555 1_555
O6 C23 1_555 1_555
C1 O1 1_555 1_555
C2 C1 1_555 1_555
C3 C2 1_555 1_555
H3 C3 1_555 1_555
C4 C3 1_555 1_555
C5 C4 1_555 1_555
H4 C5 1_555 1_555
C6 C5 1_555 1_555
H5 C6 1_555 1_555
C7 C6 1_555 1_555
H6 C7 1_555 1_555
C8 C7 1_555 1_555
H7 C8 1_555 1_555
C9 C4 1_555 1_555
C10 C9 1_555 1_555
C11 O3 1_555 1_555
C12 C10 1_555 1_555
H8 C12 1_555 1_555
H9 C12 1_555 1_555
C13 C12 1_555 1_555
C14 C13 1_555 1_555
C15 C14 1_555 1_555
H10 C15 1_555 1_555
C16 C15 1_555 1_555
H11 C16 1_555 1_555
C17 C16 1_555 1_555
H12 C17 1_555 1_555
C18 C17 1_555 1_555
H13 C18 1_555 1_555
C19 C14 1_555 1_555
C20 C19 1_555 1_555
H14 C20 1_555 1_555
C21 C20 1_555 1_555
C22 O4 1_555 1_555
C23 C21 1_555 1_555
C24 H15 1_555 1_555
C25 C24 1_555 1_555
H16 C25 1_555 1_555
C26 C25 1_555 1_555
H17 C26 1_555 1_555
C27 C26 1_555 1_555
C28 C27 1_555 1_555
H18 C28 1_555 1_555
C29 C28 1_555 1_555
H19 C29 1_555 1_555
C30 C29 1_555 1_555
C31 C30 1_555 1_555
H20 C31 1_555 1_555
C32 C31 1_555 1_555
H21 C32 1_555 1_555
C33 N2 1_555 1_555
H22 C33 1_555 1_555
C34 N2 1_555 1_555
C35 N1 1_555 1_555
Zn1A O5 1_555 1_555
O5A Zn1 1_555 1_555
O6A Zn1 1_555 1_555
O6 Zn1A 1_555 1_555
C2 C11 1_555 1_555
C8 C9 1_555 1_555
C10 C11 1_555 1_555
C13 C22 1_555 1_555
C18 C19 1_555 1_555
C21 C22 1_555 1_555
C27 C35 1_555 1_555
C30 C34 1_555 1_555
C32 C33 1_555 1_555
C34 C35 1_555 1_555

#END
