
#######################################################################
#
#                 Cambridge Crystallographic Data Centre
#                                CCDC 
#
#######################################################################
#
# If this CIF has been generated from an entry in the Cambridge 
# Structural Database, then it will include bibliographic, chemical, 
# crystal, experimental, refinement or atomic coordinate data resulting 
# from the CCDC's data processing and validation procedures.
#
#######################################################################

data_ROJZAT
_symmetry_cell_setting           monoclinic
_symmetry_space_group_name_H-M   'P 21/c'
_symmetry_Int_Tables_number      14
_space_group_name_Hall           '-P 2ybc'
loop_
_symmetry_equiv_pos_site_id
_symmetry_equiv_pos_as_xyz
1 x,y,z
2 -x,1/2+y,1/2-z
3 -x,-y,-z
4 x,1/2-y,1/2+z
_cell_length_a                   11.817(2)
_cell_length_b                   13.030(3)
_cell_length_c                   6.9683(14)
_cell_angle_alpha                90
_cell_angle_beta                 105.39(3)
_cell_angle_gamma                90
_cell_volume                     1034.47
loop_
_atom_site_label
_atom_site_type_symbol
_atom_site_fract_x
_atom_site_fract_y
_atom_site_fract_z
O1 O 0.6005(5) 0.1153(4) 0.6949(8)
O2 O 0.5526(5) 0.2445(5) 0.4890(9)
C1 C 0.5311(7) 0.1684(6) 0.5679(11)
Mn1 Mn 0.29281(10) -0.17116(8) 1.01782(16)
Cl1 Cl 0.16844(17) -0.28888(15) 1.1629(3)
N1 N 0.3627(5) 0.0799(5) 0.6451(10)
N2 N 0.2881(6) 0.1268(5) 0.7303(10)
N3 N 0.1868(5) -0.0268(5) 1.0839(9)
N4 N 0.3959(6) -0.0126(5) 0.7152(10)
N5 N 0.3404(6) -0.0290(5) 0.8540(10)
C2 C 0.1997(6) 0.0621(6) 0.9963(11)
C3 C 0.4057(7) 0.1283(7) 0.4887(12)
H1 H 0.3543 0.1849 0.4317
H2 H 0.4034 0.0788 0.3838
N6 N 0.1535(7) 0.1525(5) 1.0205(11)
C4 C 0.1264(7) -0.0232(7) 1.2218(12)
H3 H 0.1173 -0.0825 1.2904
C5 C 0.0772(8) 0.0683(7) 1.2631(14)
H4 H 0.0359 0.0715 1.3594
C6 C 0.2757(7) 0.0558(6) 0.8593(11)
C7 C 0.0917(8) 0.1541(7) 1.1568(14)
H5 H 0.0574 0.2154 1.1803
O1B O 0.3995(5) -0.1153(4) 1.3051(8)
O2A O 0.4474(5) -0.2555(5) 1.0110(9)
Mn1A Mn 0.70719(10) 0.32884(8) 0.48218(16)
Mn1B Mn 0.70719(10) 0.17116(8) 0.98218(16)
Mn1C Mn 0.29281(10) -0.32884(8) 1.51782(16)
Cl1C Cl 0.16844(17) -0.21112(15) 0.6629(3)
loop_
_geom_bond_atom_site_label_1
_geom_bond_atom_site_label_2
_geom_bond_site_symmetry_1
_geom_bond_site_symmetry_2
O1 C1 1_555 1_555
O2 C1 1_555 1_555
C1 C3 1_555 1_555
Mn1 Cl1 1_555 1_555
Cl1 Mn1C 1_555 1_555
N1 N2 1_555 1_555
N2 C6 1_555 1_555
N3 Mn1 1_555 1_555
N4 N1 1_555 1_555
N5 Mn1 1_555 1_555
C2 N3 1_555 1_555
C3 N1 1_555 1_555
H1 C3 1_555 1_555
H2 C3 1_555 1_555
N6 C2 1_555 1_555
C4 N3 1_555 1_555
H3 C4 1_555 1_555
C5 C4 1_555 1_555
H4 C5 1_555 1_555
C6 N5 1_555 1_555
C7 N6 1_555 1_555
H5 C7 1_555 1_555
O1B Mn1 1_555 1_555
O2A Mn1 1_555 1_555
Mn1A O2 1_555 1_555
Mn1B O1 1_555 1_555
Cl1C Mn1 1_555 1_555
N4 N5 1_555 1_555
C2 C6 1_555 1_555
C5 C7 1_555 1_555

#END
