
#######################################################################
#
#                 Cambridge Crystallographic Data Centre
#                                CCDC 
#
#######################################################################
#
# If this CIF has been generated from an entry in the Cambridge 
# Structural Database, then it will include bibliographic, chemical, 
# crystal, experimental, refinement or atomic coordinate data resulting 
# from the CCDC's data processing and validation procedures.
#
#######################################################################

data_ROKFON
_symmetry_cell_setting           monoclinic
_symmetry_space_group_name_H-M   'P 21/c'
_symmetry_Int_Tables_number      14
_space_group_name_Hall           '-P 2ybc'
loop_
_symmetry_equiv_pos_site_id
_symmetry_equiv_pos_as_xyz
1 x,y,z
2 -x,1/2+y,1/2-z
3 -x,-y,-z
4 x,1/2-y,1/2+z
_cell_length_a                   15.837(3)
_cell_length_b                   9.808(2)
_cell_length_c                   18.661(4)
_cell_angle_alpha                90
_cell_angle_beta                 107.746(4)
_cell_angle_gamma                90
_cell_volume                     2760.68
loop_
_atom_site_label
_atom_site_type_symbol
_atom_site_fract_x
_atom_site_fract_y
_atom_site_fract_z
Cd1 Cd 0.72248(3) 0.28688(5) 0.62078(3)
S1 S 0.66652(12) 0.5380(2) 0.73764(10)
S2 S 0.84235(12) 0.9429(2) 1.05518(10)
N1 N 0.6469(3) 0.5046(6) 0.5956(3)
N2 N 0.6334(4) 0.7342(6) 0.6340(4)
N3 N 0.6465(3) 0.3140(6) 0.4940(3)
N4 N 0.8495(3) 1.0554(6) 1.1836(3)
N5 N 0.9583(4) 0.8824(6) 1.1863(3)
N6 N 0.7888(3) 1.2641(6) 1.2456(3)
N7 N 0.8338(5) 0.0929(9) 0.5710(3)
N8 N 0.5596(5) 0.1464(8) 0.6332(4)
O1 O 0.6202(4) 0.1055(6) 0.6084(3)
O2 O 0.5706(4) 0.2570(6) 0.6620(3)
O3 O 0.4942(4) 0.0789(6) 0.6280(3)
O4 O 0.8393(4) 0.2135(7) 0.5785(3)
O5 O 0.7857(5) 0.0293(9) 0.5870(5)
O6 O 0.8862(4) 0.0410(6) 0.5390(3)
C1 C 0.6476(4) 0.5997(9) 0.6460(3)
C2 C 0.6102(5) 0.7692(8) 0.5618(5)
H1 H 0.5998 0.8609 0.5496
C3 C 0.6010(4) 0.6800(8) 0.5052(4)
H2 H 0.5826 0.7090 0.4554
C4 C 0.6195(4) 0.5434(8) 0.5229(4)
C5 C 0.6133(4) 0.4332(8) 0.4670(4)
C6 C 0.5706(4) 0.4583(8) 0.3901(4)
H3 H 0.5491 0.5444 0.3728
C7 C 0.5621(5) 0.3495(10) 0.3418(4)
H4 H 0.5345 0.3620 0.2906
C8 C 0.5928(5) 0.2268(9) 0.3672(5)
H5 H 0.5868 0.1528 0.3349
C9 C 0.6341(4) 0.2139(8) 0.4442(4)
H6 H 0.6547 0.1278 0.4622
C10 C 0.6697(4) 0.6917(7) 0.7937(3)
H7 H 0.6375 0.7638 0.7610
H8 H 0.6398 0.6736 0.8309
C11 C 0.7616(5) 0.7399(7) 0.8328(4)
C12 C 0.8171(5) 0.7849(8) 0.7938(4)
H9 H 0.7979 0.7840 0.7415
C13 C 0.9002(6) 0.8309(9) 0.8314(5)
H10 H 0.9376 0.8600 0.8045
C14 C 0.9291(5) 0.8346(8) 0.9094(5)
H11 H 0.9854 0.8674 0.9348
C15 C 0.7914(4) 0.7412(7) 0.9103(4)
H12 H 0.7545 0.7089 0.9370
C16 C 0.8743(5) 0.7894(8) 0.9491(4)
C17 C 0.9027(4) 0.8028(7) 1.0326(4)
H13 H 0.9659 0.8200 1.0515
H14 H 0.8899 0.7194 1.0553
C18 C 0.8893(5) 0.9593(8) 1.1522(4)
C19 C 0.9927(5) 0.9052(9) 1.2595(5)
H15 H 1.0415 0.8540 1.2864
C20 C 0.9591(5) 1.0020(9) 1.2976(4)
H16 H 0.9860 1.0173 1.3486
C21 C 0.8856(5) 1.0749(8) 1.2587(4)
C22 C 0.8442(5) 1.1814(7) 1.2930(4)
C23 C 0.8661(4) 1.1915(8) 1.3682(4)
H17 H 0.9035 1.1268 1.3982
C24 C 0.8345(5) 1.2948(10) 1.4011(4)
H18 H 0.8489 1.3011 1.4532
C25 C 0.7810(5) 1.3892(9) 1.3553(5)
H19 H 0.7602 1.4642 1.3753
C26 C 0.7580(4) 1.3695(9) 1.2763(4)
H20 H 0.7203 1.4319 1.2447
Cd1C Cd 0.72248(3) 1.21312(5) 1.12078(3)
N4C N 0.8495(3) 0.4446(6) 0.6836(3)
N6C N 0.7888(3) 0.2359(6) 0.7456(3)
loop_
_geom_bond_atom_site_label_1
_geom_bond_atom_site_label_2
_geom_bond_site_symmetry_1
_geom_bond_site_symmetry_2
Cd1 N1 1_555 1_555
S1 C1 1_555 1_555
S2 C17 1_555 1_555
N1 C1 1_555 1_555
N2 C1 1_555 1_555
N3 Cd1 1_555 1_555
N4 C18 1_555 1_555
N5 C18 1_555 1_555
N6 C22 1_555 1_555
N7 O4 1_555 1_555
N8 O1 1_555 1_555
O1 Cd1 1_555 1_555
O2 N8 1_555 1_555
O3 N8 1_555 1_555
O4 Cd1 1_555 1_555
O5 N7 1_555 1_555
O6 N7 1_555 1_555
C2 N2 1_555 1_555
H1 C2 1_555 1_555
C3 C2 1_555 1_555
H2 C3 1_555 1_555
C4 N1 1_555 1_555
C5 N3 1_555 1_555
C6 C5 1_555 1_555
H3 C6 1_555 1_555
C7 C6 1_555 1_555
H4 C7 1_555 1_555
C8 C7 1_555 1_555
H5 C8 1_555 1_555
C9 N3 1_555 1_555
H6 C9 1_555 1_555
C10 S1 1_555 1_555
H7 C10 1_555 1_555
H8 C10 1_555 1_555
C11 C10 1_555 1_555
C12 C11 1_555 1_555
H9 C12 1_555 1_555
C13 C12 1_555 1_555
H10 C13 1_555 1_555
C14 C13 1_555 1_555
H11 C14 1_555 1_555
C15 C11 1_555 1_555
H12 C15 1_555 1_555
C16 C14 1_555 1_555
C17 C16 1_555 1_555
H13 C17 1_555 1_555
H14 C17 1_555 1_555
C18 S2 1_555 1_555
C19 N5 1_555 1_555
H15 C19 1_555 1_555
C20 C19 1_555 1_555
H16 C20 1_555 1_555
C21 N4 1_555 1_555
C22 C21 1_555 1_555
C23 C22 1_555 1_555
H17 C23 1_555 1_555
C24 C23 1_555 1_555
H18 C24 1_555 1_555
C25 C24 1_555 1_555
H19 C25 1_555 1_555
C26 N6 1_555 1_555
H20 C26 1_555 1_555
Cd1C N4 1_555 1_555
N4C Cd1 1_555 1_555
N6C Cd1 1_555 1_555
N6 Cd1C 1_555 1_555
C3 C4 1_555 1_555
C4 C5 1_555 1_555
C8 C9 1_555 1_555
C15 C16 1_555 1_555
C20 C21 1_555 1_555
C25 C26 1_555 1_555

#END
