
#######################################################################
#
#                 Cambridge Crystallographic Data Centre
#                                CCDC 
#
#######################################################################
#
# If this CIF has been generated from an entry in the Cambridge 
# Structural Database, then it will include bibliographic, chemical, 
# crystal, experimental, refinement or atomic coordinate data resulting 
# from the CCDC's data processing and validation procedures.
#
#######################################################################

data_ROKKIL
_symmetry_cell_setting           monoclinic
_symmetry_space_group_name_H-M   'P 21/c'
_symmetry_Int_Tables_number      14
_space_group_name_Hall           '-P 2ybc'
loop_
_symmetry_equiv_pos_site_id
_symmetry_equiv_pos_as_xyz
1 x,y,z
2 -x,1/2+y,1/2-z
3 -x,-y,-z
4 x,1/2-y,1/2+z
_cell_length_a                   11.0647(5)
_cell_length_b                   11.5200(4)
_cell_length_c                   9.6867(4)
_cell_angle_alpha                90
_cell_angle_beta                 103.199(4)
_cell_angle_gamma                90
_cell_volume                     1202.1
loop_
_atom_site_label
_atom_site_type_symbol
_atom_site_fract_x
_atom_site_fract_y
_atom_site_fract_z
Cu1 Cu 0.21308(4) 0.08141(4) 0.12943(5)
O1 O 0.10167(19) 0.00924(19) 0.2287(2)
N1 N 0.0839(2) 0.1780(2) 0.0193(3)
C1 C -0.0138(3) 0.0380(3) 0.2231(3)
O2 O 0.31317(19) 0.1463(2) 0.0007(2)
C2 C -0.0764(3) -0.0156(3) 0.3187(4)
H1 H -0.0352 -0.0722 0.3804
N2 N 0.3462(2) -0.0250(2) 0.2180(3)
O3 O 0.3007(2) 0.2362(2) 0.3155(2)
N3 N 0.5052(2) -0.1424(3) 0.2518(3)
H2 H 0.5671 -0.1810 0.2357
C3 C -0.1952(3) 0.0132(3) 0.3230(4)
H3 H -0.2328 -0.0236 0.3877
C4 C -0.2609(3) 0.0964(4) 0.2324(4)
H4 H -0.3414 0.1162 0.2369
C5 C -0.2050(3) 0.1489(3) 0.1361(4)
H5 H -0.2488 0.2043 0.0746
C6 C -0.0826(3) 0.1205(3) 0.1282(3)
C7 C -0.0307(3) 0.1819(3) 0.0267(3)
H6 H -0.0840 0.2281 -0.0390
C8 C 0.1239(3) 0.2469(3) -0.0882(3)
H7 H 0.1183 0.3288 -0.0672
H8 H 0.0697 0.2319 -0.1803
C9 C 0.2565(3) 0.2168(3) -0.0920(3)
C10 C 0.4330(3) -0.0718(3) 0.1623(4)
H9 H 0.4421 -0.0567 0.0709
C11 C 0.4649(4) -0.1436(4) 0.3735(4)
H10 H 0.4980 -0.1855 0.4556
C12 C 0.3663(4) -0.0711(4) 0.3508(4)
H11 H 0.3189 -0.0549 0.4164
O3C O 0.3007(2) 0.2638(2) -0.1845(2)
Cu1C Cu 0.21308(4) 0.41859(4) -0.37057(5)
loop_
_geom_bond_atom_site_label_1
_geom_bond_atom_site_label_2
_geom_bond_site_symmetry_1
_geom_bond_site_symmetry_2
Cu1 O1 1_555 1_555
O1 C1 1_555 1_555
N1 Cu1 1_555 1_555
C1 C2 1_555 1_555
O2 Cu1 1_555 1_555
C2 H1 1_555 1_555
N2 Cu1 1_555 1_555
O3 Cu1 1_555 1_555
N3 H2 1_555 1_555
C3 C2 1_555 1_555
H3 C3 1_555 1_555
C4 C3 1_555 1_555
H4 C4 1_555 1_555
C5 C4 1_555 1_555
H5 C5 1_555 1_555
C6 C1 1_555 1_555
C7 N1 1_555 1_555
H6 C7 1_555 1_555
C8 N1 1_555 1_555
H7 C8 1_555 1_555
H8 C8 1_555 1_555
C9 O2 1_555 1_555
C10 N2 1_555 1_555
H9 C10 1_555 1_555
C11 N3 1_555 1_555
H10 C11 1_555 1_555
C12 N2 1_555 1_555
H11 C12 1_555 1_555
O3C C9 1_555 1_555
Cu1C O3C 1_555 1_555
N3 C10 1_555 1_555
C5 C6 1_555 1_555
C6 C7 1_555 1_555
C8 C9 1_555 1_555
C11 C12 1_555 1_555

#END
