
#######################################################################
#
#                 Cambridge Crystallographic Data Centre
#                                CCDC 
#
#######################################################################
#
# If this CIF has been generated from an entry in the Cambridge 
# Structural Database, then it will include bibliographic, chemical, 
# crystal, experimental, refinement or atomic coordinate data resulting 
# from the CCDC's data processing and validation procedures.
#
#######################################################################

data_ROKMIO
_symmetry_cell_setting           orthorhombic
_symmetry_space_group_name_H-M   'P b c a'
_symmetry_Int_Tables_number      61
_space_group_name_Hall           '-P 2ac 2ab'
loop_
_symmetry_equiv_pos_site_id
_symmetry_equiv_pos_as_xyz
1 x,y,z
2 1/2+x,1/2-y,-z
3 -x,1/2+y,1/2-z
4 1/2-x,-y,1/2+z
5 -x,-y,-z
6 1/2-x,1/2+y,z
7 x,1/2-y,1/2+z
8 1/2+x,y,1/2-z
_cell_length_a                   13.337(4)
_cell_length_b                   15.330(8)
_cell_length_c                   27.719(5)
_cell_angle_alpha                90
_cell_angle_beta                 90
_cell_angle_gamma                90
_cell_volume                     5667.32
loop_
_atom_site_label
_atom_site_type_symbol
_atom_site_fract_x
_atom_site_fract_y
_atom_site_fract_z
Cu1 Cu 0.27817(4) 0.25229(3) -0.123915(18)
Cu2 Cu 0.41158(4) 0.01466(3) 0.126840(16)
O1 O 0.2290(2) 0.0683(2) 0.05175(10)
O2 O 0.3831(2) 0.1041(2) 0.07817(9)
C1 C 0.3045(3) 0.1140(3) 0.05229(12)
C2 C 0.3071(3) 0.1964(3) 0.02140(13)
C3 C 0.3149(3) 0.2772(3) 0.04482(13)
C4 C 0.3119(4) 0.3540(3) 0.01824(14)
C5 C 0.3007(3) 0.3497(3) -0.03106(14)
N1 N 0.2956(3) 0.2726(3) -0.05355(11)
C6 C 0.2996(3) 0.1968(3) -0.02841(13)
C7 C 0.3059(3) 0.1158(3) -0.06041(13)
O3 O 0.3270(3) 0.04482(19) -0.04356(9)
O4 O 0.2922(3) 0.13077(18) -0.10534(9)
O5 O 0.3990(2) 0.3975(2) -0.32230(10)
O6 O 0.2398(3) 0.4288(3) -0.30241(13)
C8 C 0.3169(4) 0.3843(3) -0.30011(13)
C9 C 0.3153(3) 0.3023(3) -0.26908(14)
C10 C 0.3178(4) 0.2210(4) -0.29153(13)
C11 C 0.3097(4) 0.1449(3) -0.26457(15)
C12 C 0.2989(3) 0.1515(3) -0.21516(14)
N2 N 0.2977(3) 0.2291(3) -0.19333(11)
C13 C 0.3072(3) 0.3038(3) -0.21909(14)
C14 C 0.3120(4) 0.3859(3) -0.18753(15)
O7 O 0.2889(3) 0.37389(19) -0.14356(10)
O8 O 0.3402(4) 0.4554(2) -0.20470(12)
N3 N 0.4260(3) -0.0864(3) 0.17389(12)
C15 C 0.4285(4) -0.0843(4) 0.22245(15)
C16 C 0.4385(4) -0.1615(4) 0.24920(17)
C17 C 0.4458(5) -0.2411(4) 0.22684(19)
C18 C 0.4462(4) -0.2450(3) 0.17633(19)
C19 C 0.4551(4) -0.3241(4) 0.1487(2)
C20 C 0.4572(5) -0.3228(4) 0.1001(2)
C21 C 0.4471(4) -0.2419(3) 0.07414(18)
C22 C 0.4480(4) -0.2361(4) 0.02320(17)
C23 C 0.4380(3) -0.1546(3) 0.00187(16)
C24 C 0.4252(3) -0.0803(3) 0.03118(14)
N4 N 0.4237(3) -0.0839(2) 0.07896(10)
C25 C 0.4347(4) -0.1635(3) 0.10035(15)
C26 C 0.4361(4) -0.1651(3) 0.15193(15)
O9 O 0.5799(2) 0.0496(2) 0.11963(11)
O10 O 0.1054(4) 0.2510(3) -0.12429(18)
H1 H 0.4137 -0.0204 0.0149
H2 H 0.4422 -0.1494 -0.0346
H3 H 0.4524 -0.2891 0.0023
H4 H 0.4602 -0.3811 0.0821
H5 H 0.4690 -0.3790 0.1661
H6 H 0.4220 -0.0254 0.2393
H7 H 0.4362 -0.1575 0.2853
H8 H 0.4586 -0.2964 0.2468
H9 H 0.2951 0.4054 -0.0511
H10 H 0.3196 0.4113 0.0351
H11 H 0.3210 0.2794 0.0807
H12 H 0.2904 0.0991 -0.1946
H13 H 0.3121 0.0858 -0.2815
H14 H 0.3260 0.2190 -0.3276
H15 H 0.1381 0.2887 -0.1428
H16 H 0.0402 0.2664 -0.1223
H17 H 0.6103 0.0101 0.1010
H18 H 0.6151 0.0577 0.1467
Cu2F Cu 0.41158(4) 0.48534(3) -0.373160(16)
O5F O 0.3990(2) 0.1025(2) 0.17770(10)
O11 O 0.3268(5) 0.4565(3) 0.12678(12)
H19 H 0.3902 0.4791 0.1218
H20 H 0.2898 0.4851 0.1483
O12 O 0.5741(3) 0.4464(3) 0.02136(14)
H21 H 0.5404 0.4549 0.0485
H22 H 0.5627 0.4895 0.0007
O13 O 0.5501(5) 0.4314(4) 0.1254(2)
H23 H 0.5065 0.3889 0.1162
H24 H 0.5242 0.4824 0.1193
O14 O 0.6045(6) 0.0559(6) 0.2213(3)
H25 H 0.6143 0.1122 0.2149
H26 H 0.5963 0.0485 0.2533
loop_
_geom_bond_atom_site_label_1
_geom_bond_atom_site_label_2
_geom_bond_site_symmetry_1
_geom_bond_site_symmetry_2
Cu1 N1 1_555 1_555
Cu2 O2 1_555 1_555
O1 C1 1_555 1_555
O2 C1 1_555 1_555
C1 C2 1_555 1_555
C2 C3 1_555 1_555
C3 C4 1_555 1_555
C4 C5 1_555 1_555
C5 N1 1_555 1_555
N1 C6 1_555 1_555
C6 C2 1_555 1_555
C7 C6 1_555 1_555
O3 C7 1_555 1_555
O4 Cu1 1_555 1_555
O5 C8 1_555 1_555
O6 C8 1_555 1_555
C8 C9 1_555 1_555
C9 C10 1_555 1_555
C10 C11 1_555 1_555
C11 C12 1_555 1_555
C12 N2 1_555 1_555
N2 Cu1 1_555 1_555
C13 C9 1_555 1_555
C14 C13 1_555 1_555
O7 Cu1 1_555 1_555
O8 C14 1_555 1_555
N3 Cu2 1_555 1_555
C15 N3 1_555 1_555
C16 C15 1_555 1_555
C17 C16 1_555 1_555
C18 C17 1_555 1_555
C19 C18 1_555 1_555
C20 C19 1_555 1_555
C21 C20 1_555 1_555
C22 C21 1_555 1_555
C23 C22 1_555 1_555
C24 C23 1_555 1_555
N4 Cu2 1_555 1_555
C25 C21 1_555 1_555
C26 N3 1_555 1_555
O9 Cu2 1_555 1_555
O10 Cu1 1_555 1_555
O11 H19 1_555 1_555
O12 H21 1_555 1_555
O13 H23 1_555 1_555
O14 H25 1_555 1_555
H1 C24 1_555 1_555
H2 C23 1_555 1_555
H3 C22 1_555 1_555
H4 C20 1_555 1_555
H5 C19 1_555 1_555
H6 C15 1_555 1_555
H7 C16 1_555 1_555
H8 C17 1_555 1_555
H9 C5 1_555 1_555
H10 C4 1_555 1_555
H11 C3 1_555 1_555
H12 C12 1_555 1_555
H13 C11 1_555 1_555
H14 C10 1_555 1_555
H15 O10 1_555 1_555
H16 O10 1_555 1_555
H17 O9 1_555 1_555
H18 O9 1_555 1_555
H20 O11 1_555 1_555
H22 O12 1_555 1_555
H24 O13 1_555 1_555
H26 O14 1_555 1_555
Cu2F O5 1_555 1_555
O5F Cu2 1_555 1_555
C7 O4 1_555 1_555
N2 C13 1_555 1_555
C14 O7 1_555 1_555
C18 C26 1_555 1_555
C24 N4 1_555 1_555
N4 C25 1_555 1_555
C25 C26 1_555 1_555

#END
