
#######################################################################
#
#                 Cambridge Crystallographic Data Centre
#                                CCDC 
#
#######################################################################
#
# If this CIF has been generated from an entry in the Cambridge 
# Structural Database, then it will include bibliographic, chemical, 
# crystal, experimental, refinement or atomic coordinate data resulting 
# from the CCDC's data processing and validation procedures.
#
#######################################################################

data_ROKRIT
_symmetry_cell_setting           monoclinic
_symmetry_space_group_name_H-M   'P 21/a'
_symmetry_Int_Tables_number      14
_space_group_name_Hall           '-P 2yab'
loop_
_symmetry_equiv_pos_site_id
_symmetry_equiv_pos_as_xyz
1 x,y,z
2 1/2-x,1/2+y,-z
3 -x,-y,-z
4 1/2+x,1/2-y,z
_cell_length_a                   13.691(3)
_cell_length_b                   7.2157(16)
_cell_length_c                   20.163(5)
_cell_angle_alpha                90
_cell_angle_beta                 93.501(4)
_cell_angle_gamma                90
_cell_volume                     1988.19
loop_
_atom_site_label
_atom_site_type_symbol
_atom_site_fract_x
_atom_site_fract_y
_atom_site_fract_z
Cd1 Cd 0.859827(18) 0.30650(4) 0.104905(12)
S1 S 0.89148(6) -0.21681(13) 0.86982(4)
O1 O 0.8568(2) -0.6303(4) 0.86899(13)
H1 H 0.850(4) -0.741(3) 0.864(3)
O2 O 0.8241(2) -0.0087(4) 0.63464(14)
O3 O 0.9150(2) -0.3811(4) 0.49865(12)
O4 O 0.8976(2) 0.0792(4) 0.32929(13)
O5 O 0.8855(2) 0.2113(4) 0.21009(14)
O6 O 0.8791(2) -0.0639(4) 0.16136(14)
O7 O 0.97627(19) -0.2882(4) 0.90983(13)
O8 O 0.80387(19) -0.2395(4) 0.90713(13)
O9 O 0.9046(2) -0.0311(4) 0.84539(14)
C1 C 0.8598(3) -0.5539(6) 0.80698(19)
C2 C 0.8765(3) -0.3646(6) 0.80023(18)
C3 C 0.8814(3) -0.2878(5) 0.7365(2)
H2 H 0.8932 -0.1587 0.7324
C4 C 0.8695(3) -0.3943(6) 0.67978(18)
C5 C 0.8501(3) -0.5834(6) 0.68760(19)
H3 H 0.8391 -0.6583 0.6491
C6 C 0.8465(3) -0.6644(6) 0.7495(2)
H4 H 0.8351 -0.7937 0.7533
C7 C 0.8781(3) -0.3158(5) 0.61129(17)
C8 C 0.8539(3) -0.1234(6) 0.59482(19)
C9 C 0.8664(3) -0.0724(5) 0.52576(18)
C10 C 0.8505(3) 0.1090(6) 0.50299(17)
H5 H 0.8306 0.2012 0.5330
C11 C 0.8632(3) 0.1566(5) 0.43765(19)
H6 H 0.8544 0.2810 0.4232
C12 C 0.8897(3) 0.0170(6) 0.39252(18)
C13 C 0.9036(3) -0.1626(6) 0.41256(19)
H7 H 0.9189 -0.2567 0.3819
C14 C 0.8944(3) -0.2027(5) 0.47995(18)
C15 C 0.9096(3) -0.4243(6) 0.56321(18)
H8 H 0.9304 -0.5453 0.5761
C16 C 0.9088(3) -0.0554(5) 0.27868(18)
H9 H 0.8621 -0.1586 0.2836
H10 H 0.9760 -0.1066 0.2823
C17 C 0.8894(3) 0.0374(5) 0.21180(19)
O10 O 0.8328(3) 0.5752(5) 0.16386(16)
H11 H 0.836(4) 0.548(7) 0.2045(12)
H12 H 0.849(5) 0.687(4) 0.157(2)
O11 O 0.8522(2) 0.1158(4) 0.01097(14)
H13 H 0.884(3) 0.017(4) 0.020(2)
H14 H 0.7953(18) 0.091(6) -0.006(2)
O12 O 0.8490(2) 0.5180(4) 0.01876(13)
H15 H 0.858(4) 0.472(6) -0.0188(15)
H16 H 0.885(3) 0.612(5) 0.027(2)
Cd1B Cd 1.140173(18) -0.30650(4) 0.895095(12)
Cd1A Cd 0.640173(18) -0.19350(4) 0.895095(12)
O7B O 1.02373(19) 0.2882(4) 0.09017(13)
O8A O 0.69613(19) 0.2605(4) 0.09287(13)
O13 O 0.8532(3) 0.4938(5) 0.30033(16)
H17 H 0.801(3) 0.489(7) 0.320(3)
H18 H 0.871(4) 0.387(4) 0.288(3)
O14 O 0.5375(2) 0.3174(4) 0.94961(15)
H19 H 0.482(2) 0.319(7) 0.967(2)
H20 H 0.530(3) 0.353(7) 0.9088(12)
loop_
_geom_bond_atom_site_label_1
_geom_bond_atom_site_label_2
_geom_bond_site_symmetry_1
_geom_bond_site_symmetry_2
Cd1 O5 1_555 1_555
S1 O7 1_555 1_555
O1 H1 1_555 1_555
O2 C8 1_555 1_555
O3 C14 1_555 1_555
O4 C12 1_555 1_555
O5 C17 1_555 1_555
O6 C17 1_555 1_555
O7 Cd1B 1_555 1_555
O8 S1 1_555 1_555
O9 S1 1_555 1_555
C1 O1 1_555 1_555
C2 S1 1_555 1_555
C3 C2 1_555 1_555
H2 C3 1_555 1_555
C4 C3 1_555 1_555
C5 C4 1_555 1_555
H3 C5 1_555 1_555
C6 C1 1_555 1_555
H4 C6 1_555 1_555
C7 C4 1_555 1_555
C8 C7 1_555 1_555
C9 C8 1_555 1_555
C10 C9 1_555 1_555
H5 C10 1_555 1_555
C11 C10 1_555 1_555
H6 C11 1_555 1_555
C12 C11 1_555 1_555
C13 C12 1_555 1_555
H7 C13 1_555 1_555
C14 C9 1_555 1_555
C15 O3 1_555 1_555
H8 C15 1_555 1_555
C16 O4 1_555 1_555
H9 C16 1_555 1_555
H10 C16 1_555 1_555
C17 C16 1_555 1_555
O10 Cd1 1_555 1_555
H11 O10 1_555 1_555
H12 O10 1_555 1_555
O11 Cd1 1_555 1_555
H13 O11 1_555 1_555
H14 O11 1_555 1_555
O12 Cd1 1_555 1_555
H15 O12 1_555 1_555
H16 O12 1_555 1_555
O13 H17 1_555 1_555
H18 O13 1_555 1_555
O14 H19 1_555 1_555
H20 O14 1_555 1_555
Cd1A O8 1_555 1_555
O7B Cd1 1_555 1_555
O8A Cd1 1_555 1_555
C1 C2 1_555 1_555
C5 C6 1_555 1_555
C7 C15 1_555 1_555
C13 C14 1_555 1_555

#END
