
#######################################################################
#
#                 Cambridge Crystallographic Data Centre
#                                CCDC 
#
#######################################################################
#
# If this CIF has been generated from an entry in the Cambridge 
# Structural Database, then it will include bibliographic, chemical, 
# crystal, experimental, refinement or atomic coordinate data resulting 
# from the CCDC's data processing and validation procedures.
#
#######################################################################

data_ROLHUW
_symmetry_cell_setting           monoclinic
_symmetry_space_group_name_H-M   'P 21/n'
_symmetry_Int_Tables_number      14
_space_group_name_Hall           '-P 2yn'
loop_
_symmetry_equiv_pos_site_id
_symmetry_equiv_pos_as_xyz
1 x,y,z
2 1/2-x,1/2+y,1/2-z
3 -x,-y,-z
4 1/2+x,1/2-y,1/2+z
_cell_length_a                   6.3084(3)
_cell_length_b                   13.7082(6)
_cell_length_c                   18.1822(8)
_cell_angle_alpha                90
_cell_angle_beta                 99.075(2)
_cell_angle_gamma                90
_cell_volume                     1552.66
loop_
_atom_site_label
_atom_site_type_symbol
_atom_site_fract_x
_atom_site_fract_y
_atom_site_fract_z
Co1 Co 0.0000 1.0000 1.0000
C1 C 0.13843(15) 1.02073(7) 1.17953(5)
N1 N 0.10743(13) 1.00927(5) 1.11494(4)
S1 S 0.18620(5) 1.03557(2) 1.270238(13)
O1 O 0.17665(10) 0.86935(5) 0.99989(3)
N2 N 0.18354(11) 0.82967(5) 0.93339(4)
C2 C 0.01696(13) 0.77456(6) 0.90042(5)
H1 H -0.1036 0.7639 0.9248
C3 C 0.02290(14) 0.73408(6) 0.83141(5)
H2 H -0.0933 0.6947 0.8089
C4 C 0.19772(13) 0.75008(6) 0.79392(4)
C5 C 0.36641(14) 0.80692(7) 0.83071(5)
H3 H 0.4886 0.8191 0.8075
C6 C 0.35740(14) 0.84546(7) 0.90024(5)
H4 H 0.4738 0.8832 0.9248
C7 C 0.20670(13) 0.70747(6) 0.71982(4)
C8 C 0.36854(14) 0.73195(7) 0.67843(5)
H5 H 0.4741 0.7787 0.6976
C9 C 0.05395(14) 0.63948(7) 0.68774(5)
H6 H -0.0601 0.6214 0.7134
C10 C 0.06688(14) 0.59829(7) 0.61929(5)
H7 H -0.0386 0.5525 0.5982
N3 N 0.22789(12) 0.62246(6) 0.58217(4)
O2 O 0.23698(10) 0.58013(5) 0.51695(3)
C11 C 0.37718(14) 0.68929(7) 0.61027(5)
H8 H 0.4880 0.7068 0.5830
Co1A Co 0.5000 0.5000 0.5000
Co1A_2 Co -0.5000 0.5000 1.5000
C1B C -0.13843(15) 0.97927(7) 0.82047(5)
N1B N -0.10743(13) 0.99073(5) 0.88506(4)
S1B S -0.18620(5) 0.96443(2) 0.729762(13)
O1C O -0.32335(10) 0.63065(5) 1.49989(3)
O1B O -0.17665(10) 1.13065(5) 1.00011(3)
N2C N -0.31646(11) 0.67033(5) 1.43339(4)
C2C C -0.48304(13) 0.72544(6) 1.40042(5)
H1C H -0.6036 0.7361 1.4248
C3C C -0.47710(14) 0.76592(6) 1.33141(5)
H2C H -0.5933 0.8053 1.3089
C4C C -0.30228(13) 0.74992(6) 1.29392(4)
C5C C -0.13359(14) 0.69308(7) 1.33071(5)
H3C H -0.0114 0.6809 1.3075
C6C C -0.14260(14) 0.65454(7) 1.40024(5)
H4C H -0.0262 0.6168 1.4248
C7C C -0.29330(13) 0.79253(6) 1.21982(4)
C8C C -0.13146(14) 0.76805(7) 1.17843(5)
H5C H -0.0259 0.7213 1.1976
C9C C -0.44605(14) 0.86052(7) 1.18774(5)
H6C H -0.5601 0.8786 1.2134
C10C C -0.43312(14) 0.90171(7) 1.11929(5)
H7C H -0.5386 0.9475 1.0982
N3C N -0.27211(12) 0.87754(6) 1.08217(4)
O2C O -0.26302(10) 0.91987(5) 1.01695(3)
O2A O 0.26302(10) 1.08013(5) 0.98305(3)
C11C C -0.12282(14) 0.81071(7) 1.11027(5)
H8C H -0.0120 0.7932 1.0830
N4 N 0.53198(13) 0.36363(6) 0.01886(5)
O3 O 0.35593(12) 0.31684(6) 0.02385(5)
C12 C 0.61535(15) 0.42899(7) 0.07246(5)
H9 H 0.5466 0.4380 0.1148
C13 C 0.79722(15) 0.48209(7) 0.06621(5)
H10 H 0.8510 0.5272 0.1043
C14 C 0.90458(14) 0.47078(7) 0.00476(5)
C15 C 0.81880(14) 0.40096(7) -0.04770(5)
H11 H 0.8882 0.3890 -0.0896
C16 C 0.63616(15) 0.34908(7) -0.04025(6)
H12 H 0.5821 0.3023 -0.0771
N4B N 1.46802(13) 0.63637(6) -0.01886(5)
O3B O 1.64407(12) 0.68316(6) -0.02385(5)
C12B C 1.38465(15) 0.57101(7) -0.07246(5)
H9B H 1.4534 0.5620 -0.1148
C13B C 1.20278(15) 0.51791(7) -0.06621(5)
H10B H 1.1490 0.4728 -0.1043
C14B C 1.09542(14) 0.52922(7) -0.00476(5)
C15B C 1.18120(14) 0.59904(7) 0.04770(5)
H11B H 1.1118 0.6110 0.0896
C16B C 1.36384(15) 0.65092(7) 0.04025(6)
H12B H 1.4179 0.6977 0.0771
loop_
_geom_bond_atom_site_label_1
_geom_bond_atom_site_label_2
_geom_bond_site_symmetry_1
_geom_bond_site_symmetry_2
Co1 N1 1_555 1_555
C1 N1 1_555 1_555
S1 C1 1_555 1_555
O1 Co1 1_555 1_555
N2 O1 1_555 1_555
C2 N2 1_555 1_555
H1 C2 1_555 1_555
C3 C2 1_555 1_555
H2 C3 1_555 1_555
C4 C3 1_555 1_555
C5 C4 1_555 1_555
H3 C5 1_555 1_555
C6 N2 1_555 1_555
H4 C6 1_555 1_555
C7 C4 1_555 1_555
C8 C7 1_555 1_555
H5 C8 1_555 1_555
C9 C7 1_555 1_555
H6 C9 1_555 1_555
C10 C9 1_555 1_555
H7 C10 1_555 1_555
N3 C10 1_555 1_555
O2 N3 1_555 1_555
C11 C8 1_555 1_555
H8 C11 1_555 1_555
N4 O3 1_555 1_555
C12 N4 1_555 1_555
H9 C12 1_555 1_555
C13 C12 1_555 1_555
H10 C13 1_555 1_555
C14 C13 1_555 1_555
C15 C14 1_555 1_555
H11 C15 1_555 1_555
C16 N4 1_555 1_555
H12 C16 1_555 1_555
Co1A O2 1_555 1_555
Co1A_2 O1C 1_555 1_555
C1B N1B 1_555 1_555
N1B Co1 1_555 1_555
S1B C1B 1_555 1_555
O1C N2C 1_555 1_555
O1B Co1 1_555 1_555
N2C C2C 1_555 1_555
C2C H1C 1_555 1_555
C3C C2C 1_555 1_555
H2C C3C 1_555 1_555
C4C C3C 1_555 1_555
C5C C4C 1_555 1_555
H3C C5C 1_555 1_555
C6C N2C 1_555 1_555
H4C C6C 1_555 1_555
C7C C4C 1_555 1_555
C8C C7C 1_555 1_555
H5C C8C 1_555 1_555
C9C C7C 1_555 1_555
H6C C9C 1_555 1_555
C10C C9C 1_555 1_555
H7C C10C 1_555 1_555
N3C C10C 1_555 1_555
O2C Co1 1_555 1_555
O2A Co1 1_555 1_555
C11C C8C 1_555 1_555
H8C C11C 1_555 1_555
N4B O3B 1_555 1_555
C12B N4B 1_555 1_555
H9B C12B 1_555 1_555
C13B C12B 1_555 1_555
H10B C13B 1_555 1_555
C14B C14 1_555 1_555
C15B C14B 1_555 1_555
H11B C15B 1_555 1_555
C16B N4B 1_555 1_555
H12B C16B 1_555 1_555
C5 C6 1_555 1_555
N3 C11 1_555 1_555
C15 C16 1_555 1_555
C5C C6C 1_555 1_555
N3C O2C 1_555 1_555
N3C C11C 1_555 1_555
C13B C14B 1_555 1_555
C15B C16B 1_555 1_555

#END
