
#######################################################################
#
#                 Cambridge Crystallographic Data Centre
#                                CCDC 
#
#######################################################################
#
# If this CIF has been generated from an entry in the Cambridge 
# Structural Database, then it will include bibliographic, chemical, 
# crystal, experimental, refinement or atomic coordinate data resulting 
# from the CCDC's data processing and validation procedures.
#
#######################################################################

data_ROLQOY
_symmetry_cell_setting           monoclinic
_symmetry_space_group_name_H-M   'C 2/m'
_symmetry_Int_Tables_number      12
_space_group_name_Hall           '-C 2y'
loop_
_symmetry_equiv_pos_site_id
_symmetry_equiv_pos_as_xyz
1 x,y,z
2 1/2+x,1/2+y,z
3 x,-y,z
4 1/2+x,1/2-y,z
5 -x,-y,-z
6 1/2-x,1/2-y,-z
7 -x,y,-z
8 1/2-x,1/2+y,-z
_cell_length_a                   12.924(3)
_cell_length_b                   12.413(3)
_cell_length_c                   4.4410(9)
_cell_angle_alpha                90
_cell_angle_beta                 95.64(3)
_cell_angle_gamma                90
_cell_volume                     709.001
loop_
_atom_site_label
_atom_site_type_symbol
_atom_site_fract_x
_atom_site_fract_y
_atom_site_fract_z
Pb1 Pb 0.0000 0.5000 -0.5000
I1 I -0.17897(5) 0.5000 -1.04889(16)
N1 N 0.0000 0.2859(8) -0.5000
C1 C 0.0776(10) 0.2295(9) -0.593(3)
H1 H 0.1332 0.2671 -0.6594
C2 C 0.0812(8) 0.1176(8) -0.597(3)
H2 H 0.1382 0.0825 -0.6643
C3 C 0.0000 0.0586(9) -0.5000
C2F C -0.0812(8) 0.1176(8) -0.403(3)
C1F C -0.0776(10) 0.2295(9) -0.407(3)
H1F H -0.1332 0.2671 -0.3406
H2F H -0.1382 0.0825 -0.3357
C3B C 0.0000 -0.0586(9) -0.5000
C2B C 0.0812(8) -0.1176(8) -0.597(3)
C1B C 0.0776(10) -0.2295(9) -0.593(3)
N1B N 0.0000 -0.2859(8) -0.5000
C1D C -0.0776(10) -0.2295(9) -0.407(3)
H1D H -0.1332 -0.2671 -0.3406
C2D C -0.0812(8) -0.1176(8) -0.403(3)
H2D H -0.1382 -0.0825 -0.3357
H1B H 0.1332 -0.2671 -0.6594
H2B H 0.1382 -0.0825 -0.6643
I1_2 I -0.17897(5) 0.5000 -0.04889(16)
I1D I 0.17897(5) 0.5000 -0.95111(16)
I1D_2 I 0.17897(5) 0.5000 0.04889(16)
N1B_2 N 0.0000 0.7141(8) -0.5000
Pb1_2 Pb 0.0000 0.5000 -1.5000
Pb1_3 Pb 0.0000 -0.5000 -0.5000
Pb1_4 Pb 0.0000 0.5000 0.5000
loop_
_geom_bond_atom_site_label_1
_geom_bond_atom_site_label_2
_geom_bond_site_symmetry_1
_geom_bond_site_symmetry_2
Pb1 I1 1_555 1_555
I1 Pb1_2 1_555 1_555
N1 Pb1 1_555 1_555
C1 N1 1_555 1_555
H1 C1 1_555 1_555
C2 C1 1_555 1_555
H2 C2 1_555 1_555
C3 C2 1_555 1_555
C2F C3 1_555 1_555
C1F N1 1_555 1_555
H1F C1F 1_555 1_555
H2F C2F 1_555 1_555
C3B C3 1_555 1_555
C2B C3B 1_555 1_555
C1B C2B 1_555 1_555
N1B C1B 1_555 1_555
C1D N1B 1_555 1_555
H1D C1D 1_555 1_555
C2D C3B 1_555 1_555
H2D C2D 1_555 1_555
H1B C1B 1_555 1_555
H2B C2B 1_555 1_555
I1_2 Pb1 1_555 1_555
I1D Pb1 1_555 1_555
I1D_2 Pb1 1_555 1_555
N1B_2 Pb1 1_555 1_555
Pb1_2 I1D 1_555 1_555
Pb1_3 N1B 1_555 1_555
Pb1_4 I1_2 1_555 1_555
C2F C1F 1_555 1_555
C1D C2D 1_555 1_555
I1D_2 Pb1_4 1_555 1_555

#END
