
#######################################################################
#
#                 Cambridge Crystallographic Data Centre
#                                CCDC 
#
#######################################################################
#
# If this CIF has been generated from an entry in the Cambridge 
# Structural Database, then it will include bibliographic, chemical, 
# crystal, experimental, refinement or atomic coordinate data resulting 
# from the CCDC's data processing and validation procedures.
#
#######################################################################

data_ROMMOX
_symmetry_cell_setting           monoclinic
_symmetry_space_group_name_H-M   'I 2'
_symmetry_Int_Tables_number      5
_space_group_name_Hall           'I 2y'
loop_
_symmetry_equiv_pos_site_id
_symmetry_equiv_pos_as_xyz
1 x,y,z
2 -x,y,-z
3 1/2+x,1/2+y,1/2+z
4 1/2-x,1/2+y,1/2-z
_cell_length_a                   9.988(2)
_cell_length_b                   17.698(4)
_cell_length_c                   12.489(3)
_cell_angle_alpha                90
_cell_angle_beta                 95.59(3)
_cell_angle_gamma                90
_cell_volume                     2197.15
loop_
_atom_site_label
_atom_site_type_symbol
_atom_site_fract_x
_atom_site_fract_y
_atom_site_fract_z
Pb1 Pb 0.09669(4) 1.02306(2) 0.84854(3)
Pb2 Pb 0.89094(4) 0.86186(2) 0.64158(3)
C1 C 0.5990(12) 0.7009(10) 0.8627(10)
C2 C 0.4108(12) 1.1912(10) 0.6311(9)
O1 O 0.7644(9) 0.9780(6) 0.6549(6)
O2 O 0.0571(10) 0.9753(6) 0.6492(8)
O3 O 0.3547(7) 1.0216(8) 0.8706(5)
O4 O 0.6450(8) 0.8719(6) 0.6258(6)
O5 O 0.2386(9) 0.9195(6) 0.8448(7)
O6 O 0.9477(9) 0.9184(6) 0.8558(7)
C3 C 0.7172(12) 0.9013(7) 0.8902(9)
C4 C 0.5249(13) 0.9889(8) 0.6292(10)
C5 C 0.7187(14) 0.8244(8) 0.8833(9)
H1 H 0.8018 0.7980 0.8878
C6 C 0.4775(15) 0.9054(9) 0.8685(10)
C7 C 0.2853(13) 1.0702(8) 0.6166(10)
H2 H 0.2035 1.0979 0.6142
C8 C 0.4713(14) 0.8270(8) 0.8621(10)
H3 H 0.3868 0.8019 0.8532
C9 C 0.5985(13) 0.9418(9) 0.8854(10)
H4 H 0.6010 0.9951 0.8938
O7 O 0.8546(8) 1.0067(5) 0.9540(6)
C10 C 0.5275(15) 1.0669(9) 0.6376(11)
H5 H 0.6112 1.0925 0.6504
O8 O 0.1398(8) 0.8892(5) 0.5486(6)
C11 C 0.4008(13) 0.9510(9) 0.6141(11)
H6 H 0.3983 0.8976 0.6072
C12 C 0.5951(13) 0.7840(9) 0.8693(10)
C13 C 0.4091(13) 1.1079(9) 0.6274(11)
C14 C 0.8481(11) 0.9434(8) 0.9025(8)
C15 C 0.6521(13) 0.9428(8) 0.6363(8)
C16 C 0.3515(12) 0.9511(8) 0.8629(8)
C17 C 0.3991(5) 1.2591(3) 0.6379(4)
H7 H 0.3900 1.3124 0.6432
C18 C 0.5988(5) 0.6409(3) 0.8718(4)
H8 H 0.5986 0.5876 0.8800
C19 C 0.1515(5) 0.9511(3) 0.5999(4)
O9 O 0.8192(5) 0.7283(3) 0.5607(4)
C20 C 0.2835(5) 0.9915(3) 0.6093(4)
C21 C 0.6843(5) 0.7152(3) 0.5000(4)
H9 H 0.6201 0.7542 0.5199
H10 H 0.6495 0.6651 0.5189
C22 C 0.6970(19) 0.7188(10) 0.3775(11)
H11 H 0.7349 0.7678 0.3595
H12 H 0.6078 0.7128 0.3381
H13 H 0.7562 0.6782 0.3573
H14 H 0.891(12) 0.693(8) 0.558(5)
Pb1_2 Pb 1.09669(4) 1.02306(2) 0.84854(3)
Pb1A Pb 0.90331(4) 1.02306(2) 1.15146(3)
Pb2_2 Pb -0.10906(4) 0.86186(2) 0.64158(3)
Pb2A Pb 0.10906(4) 0.86186(2) 0.35842(3)
O2_2 O 1.0571(10) 0.9753(6) 0.6492(8)
O6_2 O -0.0523(9) 0.9184(6) 0.8558(7)
O7_2 O -0.1454(8) 1.0067(5) 0.9540(6)
O7A O 0.1454(8) 1.0067(5) 1.0460(6)
O8_2 O 1.1398(8) 0.8892(5) 0.5486(6)
O8A O 0.8602(8) 0.8892(5) 0.4514(6)
O10 O 1.0000(5) 0.6248(3) 0.5000(4)
H15 H 0.939(9) 0.592(5) 0.458(8)
H15A H 1.061(9) 0.592(5) 0.542(8)
loop_
_geom_bond_atom_site_label_1
_geom_bond_atom_site_label_2
_geom_bond_site_symmetry_1
_geom_bond_site_symmetry_2
Pb1 O2 1_555 1_555
Pb2 O1 1_555 1_555
C1 C12 1_555 1_555
C2 C13 1_555 1_555
O1 C15 1_555 1_555
O2 C19 1_555 1_555
O3 Pb1 1_555 1_555
O4 Pb2 1_555 1_555
O5 Pb1 1_555 1_555
O6 Pb2 1_555 1_555
C3 C5 1_555 1_555
C4 C10 1_555 1_555
C5 H1 1_555 1_555
C6 C8 1_555 1_555
C7 H2 1_555 1_555
C8 H3 1_555 1_555
C9 C3 1_555 1_555
H4 C9 1_555 1_555
O7 C14 1_555 1_555
C10 H5 1_555 1_555
O8 C19 1_555 1_555
C11 C4 1_555 1_555
H6 C11 1_555 1_555
C12 C5 1_555 1_555
C13 C7 1_555 1_555
C14 O6 1_555 1_555
C15 O4 1_555 1_555
C16 O3 1_555 1_555
C17 C2 1_555 1_555
H7 C17 1_555 1_555
C18 C1 1_555 1_555
H8 C18 1_555 1_555
C19 C20 1_555 1_555
O9 Pb2 1_555 1_555
C20 C7 1_555 1_555
C21 O9 1_555 1_555
H9 C21 1_555 1_555
H10 C21 1_555 1_555
C22 C21 1_555 1_555
H11 C22 1_555 1_555
H12 C22 1_555 1_555
H13 C22 1_555 1_555
H14 O9 1_555 1_555
O10 H15 1_555 1_555
Pb1_2 O6 1_555 1_555
Pb1A O7 1_555 1_555
Pb2_2 O2 1_555 1_555
Pb2A O8 1_555 1_555
O2_2 Pb2 1_555 1_555
O6_2 Pb1 1_555 1_555
O7_2 Pb1 1_555 1_555
O7A Pb1 1_555 1_555
O8_2 Pb2 1_555 1_555
O8A Pb2 1_555 1_555
H15A O10 1_555 1_555
O5 C16 1_555 1_555
C3 C14 1_555 1_555
C4 C15 1_555 1_555
C6 C9 1_555 1_555
C6 C16 1_555 1_555
C8 C12 1_555 1_555
O7 Pb1_2 1_555 1_555
C10 C13 1_555 1_555
O8 Pb2_2 1_555 1_555
C11 C20 1_555 1_555
Pb1_2 O2_2 1_555 1_555
Pb2_2 O6_2 1_555 1_555

#END
