
#######################################################################
#
#                 Cambridge Crystallographic Data Centre
#                                CCDC 
#
#######################################################################
#
# If this CIF has been generated from an entry in the Cambridge 
# Structural Database, then it will include bibliographic, chemical, 
# crystal, experimental, refinement or atomic coordinate data resulting 
# from the CCDC's data processing and validation procedures.
#
#######################################################################

data_ROMQIV
_symmetry_cell_setting           triclinic
_symmetry_space_group_name_H-M   'P -1'
_symmetry_Int_Tables_number      2
_space_group_name_Hall           '-P 1'
loop_
_symmetry_equiv_pos_site_id
_symmetry_equiv_pos_as_xyz
1 x,y,z
2 -x,-y,-z
_cell_length_a                   10.528(2)
_cell_length_b                   10.647(2)
_cell_length_c                   13.843(3)
_cell_angle_alpha                104.51(3)
_cell_angle_beta                 103.51(3)
_cell_angle_gamma                108.29(3)
_cell_volume                     1341.49
loop_
_atom_site_label
_atom_site_type_symbol
_atom_site_fract_x
_atom_site_fract_y
_atom_site_fract_z
O1 O 0.360(3) 0.509(3) 0.377(2)
Zn1 Zn 1.32877(8) 1.08723(9) 1.42340(6)
Zn2 Zn 1.24521(9) 0.97480(12) 1.12408(7)
O2 O -0.0728(6) 0.1396(7) 0.0590(4)
O3 O -0.3049(6) 0.0366(7) 0.0013(4)
O4 O -0.5742(6) 0.0861(7) 0.2436(4)
O5 O -0.4708(5) 0.1504(6) 0.4149(4)
O6 O 0.0607(5) 0.3218(6) 0.4545(4)
O7 O 0.6091(5) 0.6846(6) 0.9684(4)
O8 O 0.4656(6) 0.7933(8) 1.2988(4)
O9 O 0.6662(6) 0.8607(7) 1.4289(4)
O10 O 1.1181(5) 1.0032(6) 1.3522(4)
O11 O 1.1073(6) 0.9074(8) 1.1881(5)
O12 O 1.3236(5) 0.8861(5) 1.4116(4)
O13 O 1.3113(6) 1.2770(7) 1.4075(6)
O14 O 1.2749(9) 0.7758(10) 1.1211(6)
O15 O 1.2066(7) 1.1648(7) 1.1365(5)
C1 C -0.1869(8) 0.1056(8) 0.0758(5)
C2 C -0.1918(7) 0.1462(7) 0.1867(5)
C3 C -0.3223(7) 0.1176(7) 0.2038(5)
H1 H -0.4069 0.0714 0.1464
C4 C -0.3251(7) 0.1580(7) 0.3060(5)
C5 C -0.1982(7) 0.2270(7) 0.3927(5)
H2 H -0.2004 0.2542 0.4614
C6 C -0.0699(7) 0.2545(7) 0.3758(5)
C7 C -0.0668(7) 0.2159(7) 0.2723(5)
H3 H 0.0201 0.2372 0.2612
C8 C -0.4652(7) 0.1296(7) 0.3226(6)
C9 C 0.0699(7) 0.3669(8) 0.5631(5)
H4 H 0.0258 0.2862 0.5820
H5 H 0.0219 0.4305 0.5753
C10 C 0.2246(7) 0.4408(7) 0.6280(5)
H6 H 0.2694 0.3742 0.6155
H7 H 0.2675 0.5159 0.6034
C11 C 0.2568(8) 0.5037(8) 0.7468(5)
H8 H 0.2147 0.4296 0.7726
H9 H 0.2150 0.5726 0.7608
C12 C 0.4168(8) 0.5744(7) 0.8054(5)
H10 H 0.4584 0.5060 0.7882
H11 H 0.4576 0.6502 0.7808
C13 C 0.4548(7) 0.6335(8) 0.9242(5)
H12 H 0.4241 0.7102 0.9438
H13 H 0.4097 0.5608 0.9500
C14 C 0.6713(7) 0.7451(7) 1.0764(5)
C15 C 0.8189(7) 0.7999(8) 1.1128(5)
H14 H 0.8675 0.7923 1.0650
C16 C 0.8938(7) 0.8662(7) 1.2212(5)
C17 C 0.8212(7) 0.8738(7) 1.2939(5)
H15 H 0.8712 0.9177 1.3664
C18 C 0.6726(7) 0.8146(7) 1.2562(5)
C19 C 0.5976(7) 0.7516(7) 1.1469(5)
H16 H 0.4987 0.7143 1.1219
C20 C 0.5951(7) 0.8235(7) 1.3339(5)
C21 C 1.0522(7) 0.9313(8) 1.2573(6)
Zn1_2 Zn -0.67123(8) 0.08723(9) 0.42340(6)
Zn1A Zn 0.67123(8) 0.91277(9) 1.57660(6)
Zn2_2 Zn -0.75479(9) -0.02520(12) 0.12408(7)
Zn2A Zn -0.24521(9) 0.02520(12) -0.12408(7)
O2A O 1.0728(6) 0.8604(7) 0.9410(4)
O3A O 1.3049(6) 0.9634(7) 0.9987(4)
O4_2 O 1.4258(6) 1.0861(7) 1.2436(4)
O5_2 O 1.5292(5) 1.1504(6) 1.4149(4)
O9A O 1.3338(6) 1.1393(7) 1.5711(4)
loop_
_geom_bond_atom_site_label_1
_geom_bond_atom_site_label_2
_geom_bond_site_symmetry_1
_geom_bond_site_symmetry_2
Zn1 O10 1_555 1_555
Zn2 O11 1_555 1_555
O2 C1 1_555 1_555
O3 C1 1_555 1_555
O4 C8 1_555 1_555
O5 C8 1_555 1_555
O6 C6 1_555 1_555
O7 C13 1_555 1_555
O8 C20 1_555 1_555
O9 C20 1_555 1_555
O10 C21 1_555 1_555
O11 C21 1_555 1_555
O12 Zn1 1_555 1_555
O13 Zn1 1_555 1_555
O14 Zn2 1_555 1_555
O15 Zn2 1_555 1_555
C1 C2 1_555 1_555
C2 C3 1_555 1_555
C3 H1 1_555 1_555
C4 C3 1_555 1_555
C5 C4 1_555 1_555
H2 C5 1_555 1_555
C6 C5 1_555 1_555
C7 C2 1_555 1_555
H3 C7 1_555 1_555
C8 C4 1_555 1_555
C9 O6 1_555 1_555
H4 C9 1_555 1_555
H5 C9 1_555 1_555
C10 C9 1_555 1_555
H6 C10 1_555 1_555
H7 C10 1_555 1_555
C11 C10 1_555 1_555
H8 C11 1_555 1_555
H9 C11 1_555 1_555
C12 C11 1_555 1_555
H10 C12 1_555 1_555
H11 C12 1_555 1_555
C13 C12 1_555 1_555
H12 C13 1_555 1_555
H13 C13 1_555 1_555
C14 O7 1_555 1_555
C15 C14 1_555 1_555
H14 C15 1_555 1_555
C16 C15 1_555 1_555
C17 C16 1_555 1_555
H15 C17 1_555 1_555
C18 C17 1_555 1_555
C19 C14 1_555 1_555
H16 C19 1_555 1_555
C20 C18 1_555 1_555
C21 C16 1_555 1_555
Zn1_2 O5 1_555 1_555
Zn1A O9 1_555 1_555
Zn2_2 O4 1_555 1_555
Zn2A O2 1_555 1_555
O2A Zn2 1_555 1_555
O3A Zn2 1_555 1_555
O4_2 Zn2 1_555 1_555
O5_2 Zn1 1_555 1_555
O9A Zn1 1_555 1_555
O3 Zn2A 1_555 1_555
C6 C7 1_555 1_555
C18 C19 1_555 1_555

#END
