
#######################################################################
#
#                 Cambridge Crystallographic Data Centre
#                                CCDC 
#
#######################################################################
#
# If this CIF has been generated from an entry in the Cambridge 
# Structural Database, then it will include bibliographic, chemical, 
# crystal, experimental, refinement or atomic coordinate data resulting 
# from the CCDC's data processing and validation procedures.
#
#######################################################################

data_ROMZIE
_symmetry_cell_setting           triclinic
_symmetry_space_group_name_H-M   'P -1'
_symmetry_Int_Tables_number      2
_space_group_name_Hall           '-P 1'
loop_
_symmetry_equiv_pos_site_id
_symmetry_equiv_pos_as_xyz
1 x,y,z
2 -x,-y,-z
_cell_length_a                   9.3632(12)
_cell_length_b                   9.5108(12)
_cell_length_c                   12.6032(16)
_cell_angle_alpha                92.188(2)
_cell_angle_beta                 95.212(2)
_cell_angle_gamma                109.4860(10)
_cell_volume                     1050.87
loop_
_atom_site_label
_atom_site_type_symbol
_atom_site_fract_x
_atom_site_fract_y
_atom_site_fract_z
Cu1 Cu 0.5000 0.0000 0.5000
Cu2 Cu 0.5000 0.0000 0.0000
O1 O 0.6642(5) 0.2603(4) 0.5057(3)
O2 O 0.6153(4) 0.0885(3) 0.3738(2)
O3 O 0.6860(5) 0.1340(4) 0.0939(3)
O4 O 0.4903(4) 0.1524(4) 0.1661(3)
N1 N 0.3256(4) 0.0634(4) 0.4469(3)
N2 N 0.1985(4) 0.1767(4) 0.3542(3)
N3 N 0.1307(5) 0.1489(5) 0.4459(4)
N4 N 0.5085(4) 0.6829(3) 0.2099(3)
N5 N 0.5013(5) 0.5970(4) 0.1197(3)
N6 N 0.5073(4) 0.8265(3) 0.0810(3)
C1 C 0.7569(4) 0.3415(4) 0.3411(3)
C2 C 0.7410(5) 0.3254(4) 0.2297(3)
C3 C 0.8166(5) 0.4470(4) 0.1734(3)
H1 H 0.8077 0.4344 0.0993
C4 C 0.9039(5) 0.5850(4) 0.2225(3)
C5 C 0.9229(5) 0.5969(5) 0.3336(4)
H2 H 0.9863 0.6859 0.3699
C6 C 0.8490(5) 0.4785(5) 0.3905(4)
H3 H 0.8612 0.4909 0.4648
C7 C 0.6748(5) 0.2229(5) 0.4125(4)
C8 C 0.6285(7) 0.1897(5) 0.1607(4)
C9 C 0.9779(5) 0.7225(5) 0.1594(4)
C10 C 0.9282(8) 0.6921(6) 0.0389(5)
H4 H 0.9745 0.7809 0.0034
H5 H 0.8193 0.6636 0.0262
H6 H 0.9597 0.6126 0.0118
C11 C 1.1507(6) 0.7664(6) 0.1798(6)
H7 H 1.1818 0.6878 0.1507
H8 H 1.1814 0.7824 0.2553
H9 H 1.1977 0.8568 0.1461
C12 C 0.9299(7) 0.8532(6) 0.1974(5)
H10 H 0.9584 0.8748 0.2730
H11 H 0.8214 0.8270 0.1824
H12 H 0.9797 0.9399 0.1608
C13 C 0.3129(5) 0.1268(5) 0.3557(4)
H13 H 0.3756 0.1344 0.3015
C14 C 0.2097(6) 0.0785(6) 0.4973(4)
H14 H 0.1881 0.0414 0.5634
C15 C 0.1556(6) 0.2682(6) 0.2737(5)
H15 H 0.0499 0.2594 0.2766
H16 H 0.1649 0.2301 0.2031
C16 C 0.2535(6) 0.4299(6) 0.2911(6)
H17 H 0.2110 0.5052 0.2856
C17 C 0.4181(6) 0.4656(6) 0.3169(4)
H18 H 0.4517 0.4061 0.2670
H19 H 0.4353 0.4333 0.3876
C18 C 0.5175(6) 0.6245(5) 0.3154(4)
H20 H 0.4880 0.6852 0.3669
H21 H 0.6222 0.6328 0.3372
C19 C 0.5131(5) 0.8184(4) 0.1859(3)
H22 H 0.5194 0.8962 0.2351
C20 C 0.4997(5) 0.6878(4) 0.0448(4)
H23 H 0.4938 0.6597 -0.0274
O1A O 0.3358(5) -0.2603(4) -0.5057(3)
O2A O 0.3847(4) -0.0885(3) -0.3738(2)
O3A O 0.3140(5) -0.1340(4) -0.0939(3)
O4A O 0.5097(4) -0.1524(4) -0.1661(3)
C1A C 0.2431(4) -0.3415(4) -0.3411(3)
C2A C 0.2590(5) -0.3254(4) -0.2297(3)
C3A C 0.1834(5) -0.4470(4) -0.1734(3)
H1A H 0.1923 -0.4344 -0.0993
C4A C 0.0961(5) -0.5850(4) -0.2225(3)
C5A C 0.0771(5) -0.5969(5) -0.3336(4)
H2A H 0.0137 -0.6859 -0.3699
C6A C 0.1510(5) -0.4785(5) -0.3905(4)
H3A H 0.1388 -0.4909 -0.4648
C7A C 0.3252(5) -0.2229(5) -0.4125(4)
C8A C 0.3715(7) -0.1897(5) -0.1607(4)
C9A C 0.0221(5) -0.7225(5) -0.1594(4)
C10A C 0.0718(8) -0.6921(6) -0.0389(5)
H4A H 0.0255 -0.7809 -0.0034
H5A H 0.1807 -0.6636 -0.0262
H6A H 0.0403 -0.6126 -0.0118
C11A C -0.1507(6) -0.7664(6) -0.1798(6)
H7A H -0.1818 -0.6878 -0.1507
H8A H -0.1814 -0.7824 -0.2553
H9A H -0.1977 -0.8568 -0.1461
C12A C 0.0701(7) -0.8532(6) -0.1974(5)
H10A H 0.0416 -0.8748 -0.2730
H11A H 0.1786 -0.8270 -0.1824
H12A H 0.0203 -0.9399 -0.1608
N1A N 0.6744(4) -0.0634(4) 0.5531(3)
N2A N 0.8015(4) -0.1767(4) 0.6458(3)
N3A N 0.8693(5) -0.1489(5) 0.5541(4)
N4A N 0.4915(4) -0.6829(3) 0.7901(3)
N5A N 0.4987(5) -0.5970(4) 0.8803(3)
N6A N 0.4927(4) -0.8265(3) 0.9190(3)
C13A C 0.6871(5) -0.1268(5) 0.6443(4)
H13A H 0.6244 -0.1344 0.6985
C14A C 0.7903(6) -0.0785(6) 0.5027(4)
H14A H 0.8119 -0.0414 0.4366
C15A C 0.8444(6) -0.2682(6) 0.7263(5)
H15A H 0.9501 -0.2594 0.7234
H16A H 0.8351 -0.2301 0.7969
C16A C 0.7465(6) -0.4299(6) 0.7089(6)
H17A H 0.7890 -0.5052 0.7144
C17A C 0.5819(6) -0.4656(6) 0.6831(4)
H18A H 0.5483 -0.4061 0.7330
H19A H 0.5647 -0.4333 0.6124
C18A C 0.4825(6) -0.6245(5) 0.6846(4)
H20A H 0.5120 -0.6852 0.6331
H21A H 0.3778 -0.6328 0.6628
C19A C 0.4869(5) -0.8184(4) 0.8141(3)
H22A H 0.4806 -0.8962 0.7649
C20A C 0.5003(5) -0.6878(4) 0.9552(4)
H23A H 0.5062 -0.6597 1.0274
Cu1_2 Cu 0.5000 0.0000 -0.5000
Cu2_2 Cu 0.5000 -1.0000 1.0000
Cu2_3 Cu 0.5000 1.0000 0.0000
O1A_2 O 0.3358(5) -0.2603(4) 0.4943(3)
O2A_2 O 0.3847(4) -0.0885(3) 0.6262(2)
N6_2 N 0.5073(4) -0.1735(3) 0.0810(3)
N6A_2 N 0.4927(4) 0.1735(3) -0.0810(3)
loop_
_geom_bond_atom_site_label_1
_geom_bond_atom_site_label_2
_geom_bond_site_symmetry_1
_geom_bond_site_symmetry_2
Cu1 O1 1_555 1_555
Cu2 O3 1_555 1_555
O1 C7 1_555 1_555
O2 Cu1 1_555 1_555
O3 C8 1_555 1_555
O4 Cu2 1_555 1_555
N1 Cu1 1_555 1_555
N2 N3 1_555 1_555
N3 C14 1_555 1_555
N4 N5 1_555 1_555
N5 C20 1_555 1_555
N6 C19 1_555 1_555
C1 C2 1_555 1_555
C2 C3 1_555 1_555
C3 H1 1_555 1_555
C4 C3 1_555 1_555
C5 C4 1_555 1_555
H2 C5 1_555 1_555
C6 C1 1_555 1_555
H3 C6 1_555 1_555
C7 O2 1_555 1_555
C8 O4 1_555 1_555
C9 C4 1_555 1_555
C10 C9 1_555 1_555
H4 C10 1_555 1_555
H5 C10 1_555 1_555
H6 C10 1_555 1_555
C11 C9 1_555 1_555
H7 C11 1_555 1_555
H8 C11 1_555 1_555
H9 C11 1_555 1_555
C12 C9 1_555 1_555
H10 C12 1_555 1_555
H11 C12 1_555 1_555
H12 C12 1_555 1_555
C13 N1 1_555 1_555
H13 C13 1_555 1_555
C14 N1 1_555 1_555
H14 C14 1_555 1_555
C15 N2 1_555 1_555
H15 C15 1_555 1_555
H16 C15 1_555 1_555
C16 C15 1_555 1_555
H17 C16 1_555 1_555
C17 C16 1_555 1_555
H18 C17 1_555 1_555
H19 C17 1_555 1_555
C18 N4 1_555 1_555
H20 C18 1_555 1_555
H21 C18 1_555 1_555
C19 N4 1_555 1_555
H22 C19 1_555 1_555
C20 N6 1_555 1_555
H23 C20 1_555 1_555
O1A C7A 1_555 1_555
O2A C7A 1_555 1_555
O3A Cu2 1_555 1_555
O4A Cu2 1_555 1_555
C1A C2A 1_555 1_555
C2A C3A 1_555 1_555
C3A H1A 1_555 1_555
C4A C3A 1_555 1_555
C5A C4A 1_555 1_555
H2A C5A 1_555 1_555
C6A C1A 1_555 1_555
H3A C6A 1_555 1_555
C7A C1A 1_555 1_555
C8A O3A 1_555 1_555
C9A C4A 1_555 1_555
C10A C9A 1_555 1_555
H4A C10A 1_555 1_555
H5A C10A 1_555 1_555
H6A C10A 1_555 1_555
C11A C9A 1_555 1_555
H7A C11A 1_555 1_555
H8A C11A 1_555 1_555
H9A C11A 1_555 1_555
C12A C9A 1_555 1_555
H10A C12A 1_555 1_555
H11A C12A 1_555 1_555
H12A C12A 1_555 1_555
N1A Cu1 1_555 1_555
N2A N3A 1_555 1_555
N3A C14A 1_555 1_555
N4A N5A 1_555 1_555
N5A C20A 1_555 1_555
N6A C19A 1_555 1_555
C13A N1A 1_555 1_555
H13A C13A 1_555 1_555
C14A N1A 1_555 1_555
H14A C14A 1_555 1_555
C15A N2A 1_555 1_555
H15A C15A 1_555 1_555
H16A C15A 1_555 1_555
C16A C15A 1_555 1_555
H17A C16A 1_555 1_555
C17A C16A 1_555 1_555
H18A C17A 1_555 1_555
H19A C17A 1_555 1_555
C18A N4A 1_555 1_555
H20A C18A 1_555 1_555
H21A C18A 1_555 1_555
C19A N4A 1_555 1_555
H22A C19A 1_555 1_555
C20A N6A 1_555 1_555
H23A C20A 1_555 1_555
Cu1_2 O1A 1_555 1_555
Cu2_2 N6A 1_555 1_555
Cu2_3 N6 1_555 1_555
O1A_2 Cu1 1_555 1_555
O2A_2 Cu1 1_555 1_555
N6_2 Cu2 1_555 1_555
N6A_2 Cu2 1_555 1_555
N2 C13 1_555 1_555
C1 C7 1_555 1_555
C2 C8 1_555 1_555
C5 C6 1_555 1_555
C17 C18 1_555 1_555
O2A Cu1_2 1_555 1_555
O4A C8A 1_555 1_555
C2A C8A 1_555 1_555
C5A C6A 1_555 1_555
N2A C13A 1_555 1_555
C17A C18A 1_555 1_555

#END
