
#######################################################################
#
#                 Cambridge Crystallographic Data Centre
#                                CCDC 
#
#######################################################################
#
# If this CIF has been generated from an entry in the Cambridge 
# Structural Database, then it will include bibliographic, chemical, 
# crystal, experimental, refinement or atomic coordinate data resulting 
# from the CCDC's data processing and validation procedures.
#
#######################################################################

data_RONNEN
_symmetry_cell_setting           monoclinic
_symmetry_space_group_name_H-M   'C 2/c'
_symmetry_Int_Tables_number      15
_space_group_name_Hall           '-C 2yn'
loop_
_symmetry_equiv_pos_site_id
_symmetry_equiv_pos_as_xyz
1 x,y,z
2 -x,y,1/2-z
3 1/2+x,1/2+y,z
4 1/2-x,1/2+y,1/2-z
5 -x,-y,-z
6 x,-y,1/2+z
7 1/2-x,1/2-y,-z
8 1/2+x,1/2-y,1/2+z
_cell_length_a                   26.339(2)
_cell_length_b                   6.177(1)
_cell_length_c                   17.702(5)
_cell_angle_alpha                90
_cell_angle_beta                 96.118(1)
_cell_angle_gamma                90
_cell_volume                     2863.64
loop_
_atom_site_label
_atom_site_type_symbol
_atom_site_fract_x
_atom_site_fract_y
_atom_site_fract_z
P1 P 0.0990(1) 0.6356(2) 0.9765(1)
S1 S 0.0726(1) 0.3720(2) 1.0305(1)
O1 O 0.0647(1) 0.8278(6) 0.9704(2)
C1 C -0.0321(2) 0.0951(13) 0.8401(4)
C2 C 0.1587(2) 0.6949(8) 1.0334(3)
C3 C 0.1975(2) 0.5436(10) 1.0454(3)
C4 C 0.2418(2) 0.5945(13) 1.0923(4)
C5 C 0.2469(2) 0.7936(12) 1.1269(4)
C6 C 0.2086(2) 0.9448(11) 1.1147(4)
C7 C 0.1646(2) 0.8986(9) 1.0678(3)
C8 C 0.1147(2) 0.5538(8) 0.8836(3)
C9 C 0.1354(2) 0.3505(9) 0.8696(3)
C10 C 0.1481(3) 0.3043(10) 0.7974(4)
C11 C 0.1400(2) 0.4517(12) 0.7398(3)
C12 C 0.1187(3) 0.6480(12) 0.7530(4)
C13 C 0.1069(2) 0.7015(10) 0.8254(3)
Hg1 Hg 0.0150(1) 0.2240(1) 0.9302(1)
H1 H -0.0657(2) 0.0736(13) 0.8551(4)
H2 H -0.0185(2) -0.0411(13) 0.8256(4)
H3 H -0.0339(2) 0.1931(13) 0.7978(4)
H4 H 0.1940(2) 0.4085(10) 1.0223(3)
H5 H 0.2679(2) 0.4933(13) 1.1002(4)
H6 H 0.2764(2) 0.8261(12) 1.1586(4)
H7 H 0.2123(2) 1.0794(11) 1.1383(4)
H8 H 0.1390(2) 1.0023(9) 1.0592(3)
H9 H 0.1405(2) 0.2481(9) 0.9082(3)
H10 H 0.1623(3) 0.1706(10) 0.7879(4)
H11 H 0.1490(2) 0.4185(12) 0.6918(3)
H12 H 0.1121(3) 0.7462(12) 0.7134(4)
H13 H 0.0937(2) 0.8376(10) 0.8345(3)
Hg1_2 Hg 0.0150(1) 1.2240(1) 0.9302(1)
O1_2 O 0.0647(1) -0.1722(6) 0.9704(2)
Hg1D Hg -0.0150(1) -0.2240(1) 1.0698(1)
loop_
_geom_bond_atom_site_label_1
_geom_bond_atom_site_label_2
_geom_bond_site_symmetry_1
_geom_bond_site_symmetry_2
P1 S1 1_555 1_555
S1 Hg1 1_555 1_555
O1 P1 1_555 1_555
C1 Hg1 1_555 1_555
C2 P1 1_555 1_555
C3 C2 1_555 1_555
C4 C3 1_555 1_555
C5 C4 1_555 1_555
C6 C5 1_555 1_555
C7 C2 1_555 1_555
C8 P1 1_555 1_555
C9 C8 1_555 1_555
C10 C9 1_555 1_555
C11 C10 1_555 1_555
C12 C11 1_555 1_555
C13 C8 1_555 1_555
Hg1 O1_2 1_555 1_555
H1 C1 1_555 1_555
H2 C1 1_555 1_555
H3 C1 1_555 1_555
H4 C3 1_555 1_555
H5 C4 1_555 1_555
H6 C5 1_555 1_555
H7 C6 1_555 1_555
H8 C7 1_555 1_555
H9 C9 1_555 1_555
H10 C10 1_555 1_555
H11 C11 1_555 1_555
H12 C12 1_555 1_555
H13 C13 1_555 1_555
Hg1_2 O1 1_555 1_555
Hg1D Hg1 1_555 1_555
C6 C7 1_555 1_555
C12 C13 1_555 1_555

#END
