
#######################################################################
#
#                 Cambridge Crystallographic Data Centre
#                                CCDC 
#
#######################################################################
#
# If this CIF has been generated from an entry in the Cambridge 
# Structural Database, then it will include bibliographic, chemical, 
# crystal, experimental, refinement or atomic coordinate data resulting 
# from the CCDC's data processing and validation procedures.
#
#######################################################################

data_RONXUP
_symmetry_cell_setting           monoclinic
_symmetry_space_group_name_H-M   'I 2/c'
_symmetry_Int_Tables_number      15
_space_group_name_Hall           '-I 2yc'
loop_
_symmetry_equiv_pos_site_id
_symmetry_equiv_pos_as_xyz
1 x,y,z
2 -x,y,1/2-z
3 1/2+x,1/2+y,1/2+z
4 1/2-x,1/2+y,-z
5 -x,-y,-z
6 x,-y,1/2+z
7 1/2-x,1/2-y,1/2-z
8 1/2+x,1/2-y,z
_cell_length_a                   21.0200(3)
_cell_length_b                   7.55300(10)
_cell_length_c                   6.88100(10)
_cell_angle_alpha                90
_cell_angle_beta                 98.456(2)
_cell_angle_gamma                90
_cell_volume                     1080.58
loop_
_atom_site_label
_atom_site_type_symbol
_atom_site_fract_x
_atom_site_fract_y
_atom_site_fract_z
Cu1 Cu 0.07873(2) 0.24919(2) 0.86414(3)
F1 F 0.07970(4) -0.00143(14) 0.87043(12)
F2 F 0.07490(4) 0.50030(13) 0.86656(12)
N1 N 0.18616(8) 0.25478(14) 0.7834(3)
O1 O 0.03758(6) 0.24668(11) 0.58403(19)
D1 D 0.0498(10) 0.167(2) 0.533(3)
D2 D 0.0475(10) 0.331(2) 0.531(3)
O2 O 0.11222(7) 0.25115(12) 1.14642(19)
D3 D 0.0996(10) 0.334(2) 1.197(3)
D4 D 0.1017(10) 0.164(2) 1.197(3)
C1 C 0.20678(7) 0.3506(2) 0.6440(3)
D5 D 0.1778 0.4232 0.5659
C2 C 0.23009(8) 0.1538(2) 0.8891(3)
D6 D 0.2179 0.0838 0.9885
N1F N 0.31384(8) 0.24522(14) 0.7166(3)
C1F C 0.29322(7) 0.1494(2) 0.8560(3)
D5F D 0.3222 0.0768 0.9341
C2F C 0.26991(8) 0.3462(2) 0.6109(3)
D6F D 0.2821 0.4162 0.5115
Cu1A Cu -0.07873(2) 0.24919(2) 0.63586(3)
F1A F -0.07970(4) -0.00143(14) 0.62957(12)
F2A F -0.07490(4) 0.50030(13) 0.63344(12)
O1A O -0.03758(6) 0.24668(11) 0.91597(19)
D1A D -0.0498(10) 0.167(2) 0.967(3)
D2A D -0.0475(10) 0.331(2) 0.969(3)
O2A O -0.11222(7) 0.25115(12) 0.35358(19)
D3A D -0.0996(10) 0.334(2) 0.303(3)
D4A D -0.1017(10) 0.164(2) 0.303(3)
Cu1F Cu 0.42127(2) 0.25081(2) 0.63586(3)
N1A N -0.18616(8) 0.25478(14) 0.7166(3)
loop_
_geom_bond_atom_site_label_1
_geom_bond_atom_site_label_2
_geom_bond_site_symmetry_1
_geom_bond_site_symmetry_2
Cu1 F1 1_555 1_555
F2 Cu1 1_555 1_555
N1 Cu1 1_555 1_555
O1 Cu1 1_555 1_555
D1 O1 1_555 1_555
D2 O1 1_555 1_555
O2 Cu1 1_555 1_555
D3 O2 1_555 1_555
D4 O2 1_555 1_555
C1 N1 1_555 1_555
D5 C1 1_555 1_555
C2 N1 1_555 1_555
D6 C2 1_555 1_555
N1F C1F 1_555 1_555
C1F C2 1_555 1_555
D5F C1F 1_555 1_555
C2F C1 1_555 1_555
D6F C2F 1_555 1_555
Cu1A O1 1_555 1_555
F1A Cu1A 1_555 1_555
F2A Cu1A 1_555 1_555
O1A Cu1 1_555 1_555
D1A O1A 1_555 1_555
D2A O1A 1_555 1_555
O2A Cu1A 1_555 1_555
D3A O2A 1_555 1_555
D4A O2A 1_555 1_555
Cu1F N1F 1_555 1_555
N1A Cu1A 1_555 1_555
N1F C2F 1_555 1_555
Cu1A O1A 1_555 1_555

#END
