
#######################################################################
#
#                 Cambridge Crystallographic Data Centre
#                                CCDC 
#
#######################################################################
#
# If this CIF has been generated from an entry in the Cambridge 
# Structural Database, then it will include bibliographic, chemical, 
# crystal, experimental, refinement or atomic coordinate data resulting 
# from the CCDC's data processing and validation procedures.
#
#######################################################################

data_ROQJIS
_symmetry_cell_setting           orthorhombic
_symmetry_space_group_name_H-M   'A b a 2'
_symmetry_Int_Tables_number      41
_space_group_name_Hall           'A 2 -2ab'
loop_
_symmetry_equiv_pos_site_id
_symmetry_equiv_pos_as_xyz
1 x,y,z
2 -x,-y,z
3 1/2+x,1/2-y,z
4 1/2-x,1/2+y,z
5 x,1/2+y,1/2+z
6 -x,1/2-y,1/2+z
7 1/2+x,-y,1/2+z
8 1/2-x,y,1/2+z
_cell_length_a                   21.9763(10)
_cell_length_b                   10.4278(4)
_cell_length_c                   10.7628(4)
_cell_angle_alpha                90
_cell_angle_beta                 90
_cell_angle_gamma                90
_cell_volume                     2466.45
loop_
_atom_site_label
_atom_site_type_symbol
_atom_site_fract_x
_atom_site_fract_y
_atom_site_fract_z
Cd1 Cd 0.28964(2) 0.80328(4) 0.54776(6)
O1 O 0.5667(3) 1.3358(6) 0.3188(6)
H1 H 0.5924 1.3654 0.3659
O2 O 0.2374(2) 0.7881(5) 0.3664(4)
O3 O 0.2281(2) 0.9854(4) 0.5688(6)
O4 O 0.1640(2) 0.8419(4) 0.2341(4)
O5 O 0.1606(2) 1.1194(4) 0.4855(4)
N1 N 0.3603(3) 0.9423(5) 0.4632(6)
N2 N 0.5273(3) 1.2590(6) 0.3848(6)
C1 C 0.3993(3) 1.0075(6) 0.5361(10)
H2 H 0.3986 0.9912 0.6210
C2 C 0.4397(4) 1.0962(7) 0.4928(6)
H3 H 0.4653 1.1396 0.5471
C3 C 0.4418(3) 1.1200(7) 0.3672(7)
C4 C 0.4014(4) 1.0572(8) 0.2916(8)
H4 H 0.4008 1.0743 0.2068
C5 C 0.3620(4) 0.9696(8) 0.3410(7)
H5 H 0.3354 0.9270 0.2880
C6 C 0.4862(5) 1.2111(7) 0.3153(9)
H6 H 0.4843 1.2337 0.2318
C7 C 0.1817(4) 1.0083(6) 0.5037(6)
C8 C 0.1495(3) 0.8966(6) 0.4435(6)
H7 H 0.1413 0.8318 0.5060
H8 H 0.1107 0.9257 0.4108
C9 C 0.1859(4) 0.8379(6) 0.3403(6)
O6 O 0.2144(3) 0.6950(5) 0.6543(5)
H9 H 0.224(4) 0.711(6) 0.732(3)
H10 H 0.223(3) 0.614(3) 0.638(5)
Cd1C Cd 0.21036(2) 1.30328(4) 0.54776(6)
Cd1G Cd 0.21036(2) 0.80328(4) 0.04776(6)
O4G O 0.3360(2) 0.8419(4) 0.7341(4)
O5C O 0.3394(2) 0.6194(4) 0.4855(4)
loop_
_geom_bond_atom_site_label_1
_geom_bond_atom_site_label_2
_geom_bond_site_symmetry_1
_geom_bond_site_symmetry_2
Cd1 O2 1_555 1_555
O1 H1 1_555 1_555
O2 C9 1_555 1_555
O3 Cd1 1_555 1_555
O4 C9 1_555 1_555
O5 C7 1_555 1_555
N1 Cd1 1_555 1_555
N2 O1 1_555 1_555
C1 N1 1_555 1_555
H2 C1 1_555 1_555
C2 C1 1_555 1_555
H3 C2 1_555 1_555
C3 C2 1_555 1_555
C4 C3 1_555 1_555
H4 C4 1_555 1_555
C5 N1 1_555 1_555
H5 C5 1_555 1_555
C6 N2 1_555 1_555
H6 C6 1_555 1_555
C7 O3 1_555 1_555
C8 C7 1_555 1_555
H7 C8 1_555 1_555
H8 C8 1_555 1_555
C9 C8 1_555 1_555
O6 Cd1 1_555 1_555
H9 O6 1_555 1_555
H10 O6 1_555 1_555
Cd1C O5 1_555 1_555
Cd1G O4 1_555 1_555
O4G Cd1 1_555 1_555
O5C Cd1 1_555 1_555
C3 C6 1_555 1_555
C4 C5 1_555 1_555

#END
