
#######################################################################
#
#                 Cambridge Crystallographic Data Centre
#                                CCDC 
#
#######################################################################
#
# If this CIF has been generated from an entry in the Cambridge 
# Structural Database, then it will include bibliographic, chemical, 
# crystal, experimental, refinement or atomic coordinate data resulting 
# from the CCDC's data processing and validation procedures.
#
#######################################################################

data_RORDAF
_symmetry_cell_setting           orthorhombic
_symmetry_space_group_name_H-M   'P b c n'
_symmetry_Int_Tables_number      60
_space_group_name_Hall           '-P 2n 2ab'
loop_
_symmetry_equiv_pos_site_id
_symmetry_equiv_pos_as_xyz
1 x,y,z
2 1/2-x,1/2-y,1/2+z
3 1/2+x,1/2-y,-z
4 -x,y,1/2-z
5 -x,-y,-z
6 1/2+x,1/2+y,1/2-z
7 1/2-x,1/2+y,z
8 x,-y,1/2+z
_cell_length_a                   9.5274(2)
_cell_length_b                   7.1161(2)
_cell_length_c                   26.9956(6)
_cell_angle_alpha                90
_cell_angle_beta                 90
_cell_angle_gamma                90
_cell_volume                     1830.25
loop_
_atom_site_label
_atom_site_type_symbol
_atom_site_fract_x
_atom_site_fract_y
_atom_site_fract_z
Cd1 Cd 0.33254(2) 0.22020(3) 0.140653(7)
Cl1 Cl 0.17039(6) 0.41101(9) 0.08492(2)
Cl2 Cl 0.18258(9) 0.02851(10) 0.19952(3)
O1 O 0.5231(2) 0.1516(3) 0.19657(8)
N1 N 0.5423(2) 0.2959(3) 0.10400(8)
C1 C 0.5507(3) 0.3304(4) 0.05501(9)
H1 H 0.4665 0.3339 0.0362
C2 C 0.6761(3) 0.3606(4) 0.03109(11)
H2 H 0.6785 0.3850 -0.0035
C3 C 0.7986(3) 0.3545(4) 0.05842(11)
H3 H 0.8868 0.3756 0.0429
C4 C 0.7911(3) 0.3175(4) 0.10850(11)
H4 H 0.8742 0.3123 0.1279
C5 C 0.6608(3) 0.2880(4) 0.13025(11)
C6 C 0.6476(3) 0.2510(4) 0.18518(11)
H5 H 0.7296 0.1773 0.1965
H6 H 0.6477 0.3722 0.2032
H7 H 0.526(5) 0.031(3) 0.2037(18)
Cd1F Cd 0.16746(2) -0.27980(3) 0.140653(7)
Cd1F_2 Cd 0.16746(2) 0.72020(3) 0.140653(7)
Cl1F Cl 0.32961(6) -0.08899(9) 0.08492(2)
Cl2F Cl 0.31742(9) 0.52851(10) 0.19952(3)
loop_
_geom_bond_atom_site_label_1
_geom_bond_atom_site_label_2
_geom_bond_site_symmetry_1
_geom_bond_site_symmetry_2
Cd1 Cl1 1_555 1_555
Cl1 Cd1F_2 1_555 1_555
Cl2 Cd1 1_555 1_555
O1 Cd1 1_555 1_555
N1 Cd1 1_555 1_555
C1 N1 1_555 1_555
H1 C1 1_555 1_555
C2 C1 1_555 1_555
H2 C2 1_555 1_555
C3 C2 1_555 1_555
H3 C3 1_555 1_555
C4 C3 1_555 1_555
H4 C4 1_555 1_555
C5 N1 1_555 1_555
C6 O1 1_555 1_555
H5 C6 1_555 1_555
H6 C6 1_555 1_555
H7 O1 1_555 1_555
Cd1F Cl2 1_555 1_555
Cd1F_2 Cl2F 1_555 1_555
Cl1F Cd1 1_555 1_555
Cl2F Cd1 1_555 1_555
C4 C5 1_555 1_555
C5 C6 1_555 1_555
Cd1F Cl1F 1_555 1_555

#END
