
#######################################################################
#
#                 Cambridge Crystallographic Data Centre
#                                CCDC 
#
#######################################################################
#
# If this CIF has been generated from an entry in the Cambridge 
# Structural Database, then it will include bibliographic, chemical, 
# crystal, experimental, refinement or atomic coordinate data resulting 
# from the CCDC's data processing and validation procedures.
#
#######################################################################

data_RORJIR
_symmetry_cell_setting           triclinic
_symmetry_space_group_name_H-M   'P -1'
_symmetry_Int_Tables_number      2
_space_group_name_Hall           '-P 1'
loop_
_symmetry_equiv_pos_site_id
_symmetry_equiv_pos_as_xyz
1 x,y,z
2 -x,-y,-z
_cell_length_a                   10.745(5)
_cell_length_b                   12.039(2)
_cell_length_c                   16.469(3)
_cell_angle_alpha                70.04(2)
_cell_angle_beta                 83.31(3)
_cell_angle_gamma                63.57(2)
_cell_volume                     1791.55
loop_
_atom_site_label
_atom_site_type_symbol
_atom_site_fract_x
_atom_site_fract_y
_atom_site_fract_z
C27 C -0.5468(23) 0.5525(25) 0.8663(23)
F1 F -0.6497(17) 0.6418(18) 0.8938(11)
F2 F -0.5646(28) 0.4507(20) 0.8805(15)
F3 F -0.4215(20) 0.5338(37) 0.8867(23)
S1 S -0.5091(10) 0.6180(8) 0.7636(5)
O1 O -0.4093(16) 0.5202(18) 0.7336(12)
O2 O -0.5374(29) 0.7483(16) 0.7289(15)
O3 O -0.6552(23) 0.6140(35) 0.7633(36)
C28 C 0.805(10) 0.0358(98) 0.0458(57)
C29 C 0.7113(83) 0.0763(72) -0.0193(49)
C30 C 0.5485(69) 0.1471(63) -0.0036(40)
C31 C 0.9517(23) 0.0193(29) 0.0059(22)
C32 C 1.0003(30) 0.0916(21) -0.0638(19)
C33 C 0.8597(33) -0.0401(26) 0.0823(17)
N5 N 0.7683(23) 0.0838(27) 0.0311(21)
C34 C 0.8168(27) 0.1562(19) -0.0387(17)
C35 C 1.0432(30) -0.1046(26) 0.0572(16)
C36 C 0.5127(26) 0.0633(24) 0.0689(14)
C37 C 0.4830(27) -0.0406(25) 0.0754(14)
C38 C 0.4405(26) -0.1036(21) 0.1531(18)
N6 N 0.4277(26) -0.0629(25) 0.2243(13)
C39 C 0.4574(31) 0.0409(28) 0.2179(15)
C40 C 0.4999(29) 0.1040(23) 0.1402(19)
C31A C 1.0483(23) -0.0193(29) -0.0059(22)
C28A C 1.195(10) -0.0358(98) -0.0458(57)
C29A C 1.2887(83) -0.0763(72) 0.0193(49)
C30A C 1.4515(69) -0.1471(63) 0.0036(40)
C36A C 1.4873(26) -0.0633(24) -0.0689(14)
C37A C 1.5170(27) 0.0406(25) -0.0754(14)
C38A C 1.5595(26) 0.1036(21) -0.1531(18)
N6A N 1.5723(26) 0.0629(25) -0.2243(13)
C39A C 1.5426(31) -0.0409(28) -0.2179(15)
C40A C 1.5001(29) -0.1040(23) -0.1402(19)
N5A N 1.2317(23) -0.0838(27) -0.0311(21)
C33A C 1.1403(33) 0.0401(26) -0.0823(17)
C32A C 0.9997(30) -0.0916(21) 0.0638(19)
C34A C 1.1832(27) -0.1562(19) 0.0387(17)
C35A C 0.9568(30) 0.1046(26) -0.0572(16)
N1 N -0.0906(13) 0.6594(11) 0.6227(8)
C1 C -0.0408(16) 0.7305(13) 0.5602(11)
H1 H 0.0496(16) 0.6891(13) 0.5437(11)
C2 C -0.1153(16) 0.8609(14) 0.5190(10)
H2 H -0.0751(16) 0.9058(14) 0.4754(10)
C3 C -0.2509(15) 0.9284(13) 0.5409(9)
C4 C -0.3012(16) 0.8537(15) 0.6027(11)
H3 H -0.3923(16) 0.8920(15) 0.6189(11)
C5 C -0.2207(19) 0.7223(16) 0.6421(11)
H4 H -0.2598(19) 0.6751(16) 0.6848(11)
C6 C -0.3331(16) 1.0736(14) 0.5017(10)
H5 H -0.3374(16) 1.0960(14) 0.4393(10)
H6 H -0.4274(16) 1.0982(14) 0.5212(10)
C7 C -0.2739(15) 1.1507(14) 0.5239(12)
H7 H -0.1815(15) 1.1297(14) 0.5014(12)
H8 H -0.2645(15) 1.1244(14) 0.5863(12)
C8 C -0.3611(15) 1.2985(13) 0.4886(13)
H9 H -0.3828(15) 1.3238(13) 0.4276(13)
H10 H -0.3077(15) 1.3426(13) 0.4946(13)
C9 C -0.4969(17) 1.3426(13) 0.5362(14)
C10 C -0.6136(19) 1.3646(14) 0.4969(10)
H11 H -0.6095(19) 1.3568(14) 0.4423(10)
C11 C -0.7387(18) 1.3988(15) 0.5377(12)
H12 H -0.8180(18) 1.4142(15) 0.5099(12)
N2 N -0.7479(14) 1.4103(11) 0.6177(10)
C12 C -0.6348(20) 1.3949(15) 0.6512(11)
H13 H -0.6402(20) 1.4102(15) 0.7034(11)
C13 C -0.5102(19) 1.3579(15) 0.6142(13)
H14 H -0.4322(19) 1.3427(15) 0.6434(13)
N3 N 0.0459(16) 0.4047(12) 0.8421(9)
C14 C -0.0731(17) 0.4310(14) 0.8815(10)
H15 H -0.1542(17) 0.4742(14) 0.8469(10)
C15 C -0.0863(17) 0.4011(14) 0.9656(12)
H16 H -0.1740(17) 0.4238(14) 0.9887(12)
C16 C 0.0358(21) 0.3332(14) 1.0213(10)
C17 C 0.1602(18) 0.3066(15) 0.9818(11)
H17 H 0.2433(18) 0.2636(15) 1.0144(11)
C18 C 0.1604(20) 0.3435(16) 0.8949(14)
H18 H 0.2460(20) 0.3255(16) 0.8694(14)
C19 C 0.0369(20) 0.2857(14) 1.1213(10)
H19 H -0.0397(20) 0.3507(14) 1.1415(10)
H20 H 0.1234(20) 0.2712(14) 1.1451(10)
C20 C 0.0215(19) 0.1524(14) 1.1504(10)
H21 H -0.0621(19) 0.1669(14) 1.1231(10)
H22 H 0.1005(19) 0.0874(14) 1.1316(10)
C21 C 0.0140(21) 0.1016(15) 1.2475(10)
H23 H -0.0657(21) 0.1655(15) 1.2666(10)
H24 H 0.0973(21) 0.0869(15) 1.2752(10)
C22 C 0.0008(20) -0.0262(15) 1.2720(9)
C23 C -0.1226(20) -0.0342(15) 1.2882(11)
H25 H -0.2030(20) 0.0407(15) 1.2881(11)
C24 C -0.1311(18) -0.1487(16) 1.3044(11)
H26 H -0.2177(18) -0.1499(16) 1.3132(11)
N4 N 0.0155(17) 0.2628(12) 0.6919(8)
C25 C 0.1053(18) -0.2565(15) 1.2965(11)
H27 H 0.1856(18) -0.3335(15) 1.3012(11)
C26 C 0.1181(17) -0.1432(15) 1.2782(10)
H28 H 0.2055(17) -0.1440(15) 1.2697(10)
Ag1 Ag 0.04695(15) 0.44219(11) 0.69435(9)
N2_2 N 0.2521(14) 0.4103(11) 0.6177(10)
C11_2 C 0.2613(18) 0.3988(15) 0.5377(12)
C10_2 C 0.3864(19) 0.3646(14) 0.4969(10)
C9_2 C 0.5031(17) 0.3426(13) 0.5362(14)
C8_2 C 0.6389(15) 0.2985(13) 0.4886(13)
C7_2 C 0.7261(15) 0.1507(14) 0.5239(12)
C6_2 C 0.6669(16) 0.0736(14) 0.5017(10)
C3_2 C 0.7491(15) -0.0716(13) 0.5409(9)
C2_2 C 0.8847(16) -0.1391(14) 0.5190(10)
C1_2 C 0.9592(16) -0.2695(13) 0.5602(11)
N1_2 N 0.9094(13) -0.3406(11) 0.6227(8)
C5_2 C 0.7793(19) -0.2777(16) 0.6421(11)
C4_2 C 0.6988(16) -0.1463(15) 0.6027(11)
H3_2 H 0.6077(16) -0.1080(15) 0.6189(11)
H4_2 H 0.7402(19) -0.3249(16) 0.6848(11)
Ag1_2 Ag 1.04695(15) -0.55781(11) 0.69435(9)
H1_2 H 1.0496(16) -0.3109(13) 0.5437(11)
H2_2 H 0.9249(16) -0.0942(14) 0.4754(10)
H5_2 H 0.6626(16) 0.0960(14) 0.4393(10)
H6_2 H 0.5726(16) 0.0982(14) 0.5212(10)
H7_2 H 0.8185(15) 0.1297(14) 0.5014(12)
H8_2 H 0.7355(15) 0.1244(14) 0.5863(12)
H9_2 H 0.6172(15) 0.3238(13) 0.4276(13)
H10_2 H 0.6923(15) 0.3426(13) 0.4946(13)
C13_2 C 0.4898(19) 0.3579(15) 0.6142(13)
C12_2 C 0.3652(20) 0.3949(15) 0.6512(11)
H13_2 H 0.3598(20) 0.4102(15) 0.7034(11)
H14_2 H 0.5678(19) 0.3427(15) 0.6434(13)
H11_2 H 0.3905(19) 0.3568(14) 0.4423(10)
H12_2 H 0.1820(18) 0.4142(15) 0.5099(12)
N4A N -0.0155(17) -0.2628(12) 1.3081(8)
Ag1A Ag -0.04695(15) -0.44219(11) 1.30565(9)
N1A N 0.0906(13) -0.6594(11) 1.3773(8)
C1A C 0.0408(16) -0.7305(13) 1.4398(11)
H1A H -0.0496(16) -0.6891(13) 1.4563(11)
C2A C 0.1153(16) -0.8609(14) 1.4810(10)
H2A H 0.0751(16) -0.9058(14) 1.5246(10)
C3A C 0.2509(15) -0.9284(13) 1.4591(9)
C4A C 0.3012(16) -0.8537(15) 1.3973(11)
H3A H 0.3923(16) -0.8920(15) 1.3811(11)
C5A C 0.2207(19) -0.7223(16) 1.3579(11)
H4A H 0.2598(19) -0.6751(16) 1.3152(11)
C6A C 0.3331(16) -1.0736(14) 1.4983(10)
H5A H 0.3374(16) -1.0960(14) 1.5607(10)
H6A H 0.4274(16) -1.0982(14) 1.4788(10)
C7A C 0.2739(15) -1.1507(14) 1.4761(12)
H7A H 0.1815(15) -1.1297(14) 1.4986(12)
H8A H 0.2645(15) -1.1244(14) 1.4137(12)
C8A C 0.3611(15) -1.2985(13) 1.5114(13)
H9A H 0.3828(15) -1.3238(13) 1.5724(13)
H10A H 0.3077(15) -1.3426(13) 1.5054(13)
C9A C 0.4969(17) -1.3426(13) 1.4638(14)
C10A C 0.6136(19) -1.3646(14) 1.5031(10)
H11A H 0.6095(19) -1.3568(14) 1.5577(10)
C11A C 0.7387(18) -1.3988(15) 1.4623(12)
H12A H 0.8180(18) -1.4142(15) 1.4901(12)
N2A N 0.7479(14) -1.4103(11) 1.3823(10)
C12A C 0.6348(20) -1.3949(15) 1.3488(11)
H13A H 0.6402(20) -1.4102(15) 1.2966(11)
C13A C 0.5102(19) -1.3579(15) 1.3858(13)
H14A H 0.4322(19) -1.3427(15) 1.3566(13)
Ag1A_2 Ag 0.95305(15) -1.44219(11) 1.30565(9)
N2A_2 N -0.2521(14) -0.4103(11) 1.3823(10)
N3A N -0.0459(16) -0.4047(12) 1.1579(9)
Ag1_3 Ag -0.95305(15) 1.44219(11) 0.69435(9)
loop_
_geom_bond_atom_site_label_1
_geom_bond_atom_site_label_2
_geom_bond_site_symmetry_1
_geom_bond_site_symmetry_2
N1 C1 1_555 1_555
C1 H1 1_555 1_555
C2 C1 1_555 1_555
H2 C2 1_555 1_555
C3 C2 1_555 1_555
C4 C3 1_555 1_555
H3 C4 1_555 1_555
C5 N1 1_555 1_555
H4 C5 1_555 1_555
C6 C3 1_555 1_555
H5 C6 1_555 1_555
H6 C6 1_555 1_555
C7 C6 1_555 1_555
H7 C7 1_555 1_555
H8 C7 1_555 1_555
C8 C7 1_555 1_555
H9 C8 1_555 1_555
H10 C8 1_555 1_555
C9 C8 1_555 1_555
C10 C9 1_555 1_555
H11 C10 1_555 1_555
C11 C10 1_555 1_555
H12 C11 1_555 1_555
N2 C11 1_555 1_555
C12 N2 1_555 1_555
H13 C12 1_555 1_555
C13 C9 1_555 1_555
H14 C13 1_555 1_555
N3 C14 1_555 1_555
C14 H15 1_555 1_555
C15 C14 1_555 1_555
H16 C15 1_555 1_555
C16 C15 1_555 1_555
C17 C16 1_555 1_555
H17 C17 1_555 1_555
C18 N3 1_555 1_555
H18 C18 1_555 1_555
C19 C16 1_555 1_555
H19 C19 1_555 1_555
H20 C19 1_555 1_555
C20 C19 1_555 1_555
H21 C20 1_555 1_555
H22 C20 1_555 1_555
C21 C20 1_555 1_555
H23 C21 1_555 1_555
H24 C21 1_555 1_555
C22 C21 1_555 1_555
C23 C22 1_555 1_555
H25 C23 1_555 1_555
C24 C23 1_555 1_555
H26 C24 1_555 1_555
N4 Ag1 1_555 1_555
C25 H27 1_555 1_555
C26 C22 1_555 1_555
H28 C26 1_555 1_555
Ag1 N1 1_555 1_555
C27 F1 1_555 1_555
F2 C27 1_555 1_555
F3 C27 1_555 1_555
S1 C27 1_555 1_555
O1 S1 1_555 1_555
O2 S1 1_555 1_555
O3 S1 1_555 1_555
C28 C29 1_555 1_555
C29 C30 1_555 1_555
C30 C36 1_555 1_555
C31 C28 1_555 1_555
C32 C31 1_555 1_555
C33 C28 1_555 1_555
N5 C28 1_555 1_555
C34 C28 1_555 1_555
C35 C31 1_555 1_555
C36 C37 1_555 1_555
C37 C38 1_555 1_555
C38 N6 1_555 1_555
N6 C39 1_555 1_555
C39 C40 1_555 1_555
C40 C36 1_555 1_555
N2_2 Ag1 1_555 1_555
C11_2 N2_2 1_555 1_555
C10_2 C11_2 1_555 1_555
C9_2 C10_2 1_555 1_555
C8_2 C9_2 1_555 1_555
C7_2 C8_2 1_555 1_555
C6_2 C7_2 1_555 1_555
C3_2 C6_2 1_555 1_555
C2_2 C3_2 1_555 1_555
C1_2 C2_2 1_555 1_555
N1_2 C1_2 1_555 1_555
C5_2 N1_2 1_555 1_555
C4_2 C3_2 1_555 1_555
H3_2 C4_2 1_555 1_555
H4_2 C5_2 1_555 1_555
Ag1_2 N1_2 1_555 1_555
H1_2 C1_2 1_555 1_555
H2_2 C2_2 1_555 1_555
H5_2 C6_2 1_555 1_555
H6_2 C6_2 1_555 1_555
H7_2 C7_2 1_555 1_555
H8_2 C7_2 1_555 1_555
H9_2 C8_2 1_555 1_555
H10_2 C8_2 1_555 1_555
C13_2 C9_2 1_555 1_555
C12_2 N2_2 1_555 1_555
H13_2 C12_2 1_555 1_555
H14_2 C13_2 1_555 1_555
H11_2 C10_2 1_555 1_555
H12_2 C11_2 1_555 1_555
N4A C24 1_555 1_555
Ag1A N4A 1_555 1_555
N1A Ag1A 1_555 1_555
C1A N1A 1_555 1_555
H1A C1A 1_555 1_555
C2A C1A 1_555 1_555
H2A C2A 1_555 1_555
C3A C2A 1_555 1_555
C4A C3A 1_555 1_555
H3A C4A 1_555 1_555
C5A N1A 1_555 1_555
H4A C5A 1_555 1_555
C6A C3A 1_555 1_555
H5A C6A 1_555 1_555
H6A C6A 1_555 1_555
C7A C6A 1_555 1_555
H7A C7A 1_555 1_555
H8A C7A 1_555 1_555
C8A C7A 1_555 1_555
H9A C8A 1_555 1_555
H10A C8A 1_555 1_555
C9A C8A 1_555 1_555
C10A C9A 1_555 1_555
H11A C10A 1_555 1_555
C11A C10A 1_555 1_555
H12A C11A 1_555 1_555
N2A C11A 1_555 1_555
C12A N2A 1_555 1_555
H13A C12A 1_555 1_555
C13A C9A 1_555 1_555
H14A C13A 1_555 1_555
Ag1A_2 N2A 1_555 1_555
N2A_2 Ag1A 1_555 1_555
N3A Ag1A 1_555 1_555
Ag1_3 N2 1_555 1_555
C31A C31 1_555 1_555
C28A C31A 1_555 1_555
C29A C28A 1_555 1_555
C30A C29A 1_555 1_555
C36A C30A 1_555 1_555
C37A C36A 1_555 1_555
C38A C37A 1_555 1_555
N6A C38A 1_555 1_555
C39A N6A 1_555 1_555
C40A C36A 1_555 1_555
N5A C28A 1_555 1_555
C33A C32 1_555 1_555
C32A C31 1_555 1_555
C34A C35 1_555 1_555
C35A C31 1_555 1_555
C4 C5 1_555 1_555
C12 C13 1_555 1_555
N3 Ag1 1_555 1_555
C17 C18 1_555 1_555
C25 N4A 1_555 1_555
C25 C26 1_555 1_555
C29 N5 1_555 1_555
C29 C34 1_555 1_555
C31 C33 1_555 1_555
C31 C34 1_555 1_555
C32 C35A 1_555 1_555
C32 C31A 1_555 1_555
C33 N5 1_555 1_555
C33 C32A 1_555 1_555
N5 C34 1_555 1_555
C34 C35A 1_555 1_555
C35 C31A 1_555 1_555
C35 C32A 1_555 1_555
C5_2 C4_2 1_555 1_555
C13_2 C12_2 1_555 1_555
C4A C5A 1_555 1_555
C12A C13A 1_555 1_555
C31A C32A 1_555 1_555
C31A C34A 1_555 1_555
C31A C33A 1_555 1_555
C31A C35A 1_555 1_555
C28A C33A 1_555 1_555
C28A C34A 1_555 1_555
C29A N5A 1_555 1_555
C29A C34A 1_555 1_555
C39A C40A 1_555 1_555
N5A C34A 1_555 1_555
N5A C33A 1_555 1_555

#END
