
#######################################################################
#
#                 Cambridge Crystallographic Data Centre
#                                CCDC 
#
#######################################################################
#
# If this CIF has been generated from an entry in the Cambridge 
# Structural Database, then it will include bibliographic, chemical, 
# crystal, experimental, refinement or atomic coordinate data resulting 
# from the CCDC's data processing and validation procedures.
#
#######################################################################

data_RORRIB
_symmetry_cell_setting           triclinic
_symmetry_space_group_name_H-M   'P -1'
_symmetry_Int_Tables_number      2
_space_group_name_Hall           '-P 1'
loop_
_symmetry_equiv_pos_site_id
_symmetry_equiv_pos_as_xyz
1 x,y,z
2 -x,-y,-z
_cell_length_a                   8.9367(5)
_cell_length_b                   9.4944(6)
_cell_length_c                   11.9769(8)
_cell_angle_alpha                83.967(4)
_cell_angle_beta                 73.740(3)
_cell_angle_gamma                67.598(3)
_cell_volume                     901.95
loop_
_atom_site_label
_atom_site_type_symbol
_atom_site_fract_x
_atom_site_fract_y
_atom_site_fract_z
U1 U 0.5000 0.0000 0.5000
U2 U 0.42045(2) 0.289662(13) 0.178869(11)
O1 O 0.3535(4) 0.1846(3) 0.5399(2)
O2 O 0.4414(5) 0.3772(3) 0.2935(2)
O3 O 0.4011(4) 0.2020(3) 0.0642(2)
O4 O 0.4028(4) 0.0731(3) 0.3094(2)
O5 O 0.3154(5) -0.0890(3) 0.4220(2)
O6 O -0.3038(5) 0.0737(3) 0.3539(2)
O7 O -0.3102(4) 0.1015(3) 0.1681(2)
O8 O 0.3823(5) -0.3813(3) -0.0496(2)
O9 O 0.2655(4) -0.4627(3) 0.1189(2)
O10 O 0.1370(5) 0.3451(3) 0.2824(3)
N1 N -0.1358(6) 0.4305(4) 0.3827(4)
C1 C 0.2268(6) -0.0251(4) 0.2460(3)
H1 H 0.2421 0.0473 0.1808
C2 C 0.0384(6) 0.0169(4) 0.2998(3)
H2 H 0.0196 -0.0555 0.3630
H3 H -0.0109 0.1205 0.3337
C3 C -0.0457(6) 0.0115(4) 0.2076(3)
H4 H -0.0175 0.0810 0.1434
C4 C 0.0274(5) -0.1509(3) 0.1548(3)
H5 H 0.0035 -0.2240 0.2158
H6 H -0.0257 -0.1519 0.0928
C5 C 0.2164(6) -0.1977(4) 0.1045(3)
H7 H 0.2364 -0.1258 0.0400
C6 C 0.3047(6) -0.1891(4) 0.1942(3)
H8 H 0.4258 -0.2151 0.1569
H9 H 0.2924 -0.2634 0.2571
C7 C 0.3177(6) -0.0141(4) 0.3304(3)
C8 C -0.2334(6) 0.0646(4) 0.2471(3)
C9 C 0.2956(6) -0.3588(4) 0.0538(3)
C10 C -0.0142(7) 0.4097(4) 0.2857(4)
C11 C -0.0824(8) 0.4671(5) 0.1813(5)
H10 H -0.0687 0.3821 0.1332
H11 H -0.0283 0.5342 0.1326
C12 C -0.2700(9) 0.5571(5) 0.2404(6)
H12 H -0.2923 0.6674 0.2422
H13 H -0.3428 0.5417 0.1977
C13 C -0.3031(8) 0.4936(6) 0.3649(6)
H14 H -0.3796 0.5753 0.4218
H15 H -0.3509 0.4139 0.3703
C14 C -0.1167(10) 0.3752(6) 0.4955(4)
H16 H 0.0013 0.3126 0.4899
H17 H -0.1857 0.3136 0.5264
H18 H -0.1526 0.4616 0.5477
U2A U -0.42045(2) -0.289662(13) 0.821131(11)
O2A O -0.4414(5) -0.3772(3) 0.7065(2)
O3A O -0.4011(4) -0.2020(3) 0.9358(2)
O4A O -0.4028(4) -0.0731(3) 0.6906(2)
O5A O -0.3154(5) 0.0890(3) 0.5780(2)
O6A O 0.3038(5) -0.0737(3) 0.6461(2)
O7A O 0.3102(4) -0.1015(3) 0.8319(2)
O8A O -0.3823(5) 0.3813(3) 1.0496(2)
O9A O -0.2655(4) 0.4627(3) 0.8811(2)
O10A O -0.1370(5) -0.3451(3) 0.7176(3)
N1A N 0.1358(6) -0.4305(4) 0.6173(4)
C1A C -0.2268(6) 0.0251(4) 0.7540(3)
H1A H -0.2421 -0.0473 0.8192
C2A C -0.0384(6) -0.0169(4) 0.7002(3)
H2A H -0.0196 0.0555 0.6370
H3A H 0.0109 -0.1205 0.6663
C3A C 0.0457(6) -0.0115(4) 0.7924(3)
H4A H 0.0175 -0.0810 0.8566
C4A C -0.0274(5) 0.1509(3) 0.8452(3)
H5A H -0.0035 0.2240 0.7842
H6A H 0.0257 0.1519 0.9072
C5A C -0.2164(6) 0.1977(4) 0.8955(3)
H7A H -0.2364 0.1258 0.9600
C6A C -0.3047(6) 0.1891(4) 0.8058(3)
H8A H -0.4258 0.2151 0.8431
H9A H -0.2924 0.2634 0.7429
C7A C -0.3177(6) 0.0141(4) 0.6696(3)
C8A C 0.2334(6) -0.0646(4) 0.7529(3)
C9A C -0.2956(6) 0.3588(4) 0.9462(3)
C10A C 0.0142(7) -0.4097(4) 0.7143(4)
C11A C 0.0824(8) -0.4671(5) 0.8187(5)
H10A H 0.0687 -0.3821 0.8668
H11A H 0.0283 -0.5342 0.8674
C12A C 0.2700(9) -0.5571(5) 0.7596(6)
H12A H 0.2923 -0.6674 0.7578
H13A H 0.3428 -0.5417 0.8023
C13A C 0.3031(8) -0.4936(6) 0.6351(6)
H14A H 0.3796 -0.5753 0.5782
H15A H 0.3509 -0.4139 0.6297
C14A C 0.1167(10) -0.3752(6) 0.5045(4)
H16A H -0.0013 -0.3126 0.5101
H17A H 0.1857 -0.3136 0.4736
H18A H 0.1526 -0.4616 0.4523
O1A O 0.6465(4) -0.1846(3) 0.4601(2)
U1_2 U -0.5000 0.0000 0.5000
U2_2 U -0.57955(2) 0.289662(13) 0.178869(11)
U2_3 U -0.57955(2) 0.289662(13) 1.178869(11)
U2_4 U 0.42045(2) -0.710338(13) 0.178869(11)
U2A_2 U -0.42045(2) 0.710338(13) 0.821131(11)
U2A_3 U 0.57955(2) -0.289662(13) -0.178869(11)
U2A_4 U 0.57955(2) -0.289662(13) 0.821131(11)
O4A_2 O 0.5972(4) -0.0731(3) 0.6906(2)
O5A_2 O 0.6846(5) 0.0890(3) 0.5780(2)
O6_2 O 0.6962(5) 0.0737(3) 0.3539(2)
O7_2 O 0.6898(4) 0.1015(3) 0.1681(2)
O7A_2 O -0.6898(4) -0.1015(3) 0.8319(2)
O8_2 O -0.6177(5) -0.3813(3) 0.9504(2)
O8A_2 O 0.6177(5) 0.3813(3) 0.0496(2)
O9_2 O 0.2655(4) 0.5373(3) 0.1189(2)
O9A_2 O -0.2655(4) -0.5373(3) 0.8811(2)
loop_
_geom_bond_atom_site_label_1
_geom_bond_atom_site_label_2
_geom_bond_site_symmetry_1
_geom_bond_site_symmetry_2
U1 O1 1_555 1_555
U2 O2 1_555 1_555
O3 U2 1_555 1_555
O4 U1 1_555 1_555
O5 U1 1_555 1_555
O6 C8 1_555 1_555
O7 C8 1_555 1_555
O8 C9 1_555 1_555
O9 C9 1_555 1_555
O10 U2 1_555 1_555
N1 C10 1_555 1_555
C1 H1 1_555 1_555
C2 C1 1_555 1_555
H2 C2 1_555 1_555
H3 C2 1_555 1_555
C3 C2 1_555 1_555
H4 C3 1_555 1_555
C4 C3 1_555 1_555
H5 C4 1_555 1_555
H6 C4 1_555 1_555
C5 C4 1_555 1_555
H7 C5 1_555 1_555
C6 C1 1_555 1_555
H8 C6 1_555 1_555
H9 C6 1_555 1_555
C7 O4 1_555 1_555
C8 C3 1_555 1_555
C9 C5 1_555 1_555
C10 O10 1_555 1_555
C11 C10 1_555 1_555
H10 C11 1_555 1_555
H11 C11 1_555 1_555
C12 C11 1_555 1_555
H12 C12 1_555 1_555
H13 C12 1_555 1_555
C13 N1 1_555 1_555
H14 C13 1_555 1_555
H15 C13 1_555 1_555
C14 N1 1_555 1_555
H16 C14 1_555 1_555
H17 C14 1_555 1_555
H18 C14 1_555 1_555
U2A O2A 1_555 1_555
O3A U2A 1_555 1_555
O4A U2A 1_555 1_555
O5A C7A 1_555 1_555
O6A U1 1_555 1_555
O7A C8A 1_555 1_555
O8A C9A 1_555 1_555
O9A C9A 1_555 1_555
O10A U2A 1_555 1_555
N1A C10A 1_555 1_555
C1A H1A 1_555 1_555
C2A C1A 1_555 1_555
H2A C2A 1_555 1_555
H3A C2A 1_555 1_555
C3A C2A 1_555 1_555
H4A C3A 1_555 1_555
C4A C3A 1_555 1_555
H5A C4A 1_555 1_555
H6A C4A 1_555 1_555
C5A C4A 1_555 1_555
H7A C5A 1_555 1_555
C6A C1A 1_555 1_555
H8A C6A 1_555 1_555
H9A C6A 1_555 1_555
C7A O4A 1_555 1_555
C8A O6A 1_555 1_555
C9A C5A 1_555 1_555
C10A O10A 1_555 1_555
C11A C10A 1_555 1_555
H10A C11A 1_555 1_555
H11A C11A 1_555 1_555
C12A C11A 1_555 1_555
H12A C12A 1_555 1_555
H13A C12A 1_555 1_555
C13A N1A 1_555 1_555
H14A C13A 1_555 1_555
H15A C13A 1_555 1_555
C14A N1A 1_555 1_555
H16A C14A 1_555 1_555
H17A C14A 1_555 1_555
H18A C14A 1_555 1_555
O1A U1 1_555 1_555
U1_2 O6 1_555 1_555
U2_2 O7 1_555 1_555
U2_3 O8A 1_555 1_555
U2_4 O9 1_555 1_555
U2A_2 O9A 1_555 1_555
U2A_3 O8 1_555 1_555
U2A_4 O7A 1_555 1_555
O4A_2 U1 1_555 1_555
O5A_2 U1 1_555 1_555
O6_2 U1 1_555 1_555
O7_2 U2 1_555 1_555
O7A_2 U2A 1_555 1_555
O8_2 U2A 1_555 1_555
O8A_2 U2 1_555 1_555
O9_2 U2 1_555 1_555
O9A_2 U2A 1_555 1_555
U2 O4 1_555 1_555
O5 C7 1_555 1_555
C1 C7 1_555 1_555
C5 C6 1_555 1_555
C12 C13 1_555 1_555
O4A U1_2 1_555 1_555
O5A U1_2 1_555 1_555
C1A C7A 1_555 1_555
C3A C8A 1_555 1_555
C5A C6A 1_555 1_555
C12A C13A 1_555 1_555
U2A_4 O4A_2 1_555 1_555

#END
