
#######################################################################
#
#                 Cambridge Crystallographic Data Centre
#                                CCDC 
#
#######################################################################
#
# If this CIF has been generated from an entry in the Cambridge 
# Structural Database, then it will include bibliographic, chemical, 
# crystal, experimental, refinement or atomic coordinate data resulting 
# from the CCDC's data processing and validation procedures.
#
#######################################################################

data_RORWEA
_symmetry_cell_setting           monoclinic
_symmetry_space_group_name_H-M   'P 21/c'
_symmetry_Int_Tables_number      14
_space_group_name_Hall           '-P 2ybc'
loop_
_symmetry_equiv_pos_site_id
_symmetry_equiv_pos_as_xyz
1 x,y,z
2 -x,1/2+y,1/2-z
3 -x,-y,-z
4 x,1/2-y,1/2+z
_cell_length_a                   11.172(2)
_cell_length_b                   16.717(5)
_cell_length_c                   9.365(2)
_cell_angle_alpha                90
_cell_angle_beta                 99.09(2)
_cell_angle_gamma                90
_cell_volume                     1727.06
loop_
_atom_site_label
_atom_site_type_symbol
_atom_site_fract_x
_atom_site_fract_y
_atom_site_fract_z
Cu1 Cu 0.99030(5) 0.00968(4) 0.72714(5)
S1 S 1.0500(1) 0.12320(7) 0.6041(1)
S2 S 1.2731(1) 0.01640(8) 0.5268(1)
S3 S 1.1729(1) 0.18485(8) 0.3428(1)
S4 S 1.1677(1) -0.05167(9) 0.8481(1)
P1 P 1.1207(1) 0.07574(8) 0.4236(1)
N1 N 1.0946(3) -0.0518(2) 1.1201(4)
C1 C 0.9139(4) 0.1713(3) 0.5089(5)
C2 C 0.8346(5) 0.2015(4) 0.6089(6)
C3 C 0.7195(5) 0.2362(4) 0.5258(8)
C4 C 1.3579(5) 0.0885(4) 0.6457(6)
C5 C 1.4715(6) 0.0530(5) 0.7207(9)
C6 C 1.5479(6) 0.1062(5) 0.8166(8)
C7 C 1.1865(5) 0.1568(3) 0.1587(5)
C8 C 1.3028(5) 0.1186(4) 0.1392(6)
C9 C 1.4113(6) 0.1686(5) 0.1821(9)
C10 C 1.1251(4) -0.0535(3) 1.0084(4)
H1 H 0.880(4) 0.141(3) 0.441(4)
H2 H 0.937(4) 0.212(3) 0.451(4)
H3 H 0.810(4) 0.158(3) 0.651(5)
H4 H 0.884(4) 0.239(2) 0.667(5)
H5 H 0.669(4) 0.258(3) 0.582(5)
H6 H 0.682(4) 0.198(3) 0.469(4)
H7 H 0.738(4) 0.287(3) 0.470(5)
H8 H 1.3768 0.1322 0.5910
H9 H 1.3108 0.1042 0.7160
H10 H 1.4536 0.0059 0.7763
H11 H 1.5181 0.0306 0.6480
H12 H 1.6218 0.0775 0.8576
H13 H 1.5077 0.1237 0.8871
H14 H 1.5722 0.1484 0.7588
H15 H 1.180(4) 0.209(3) 0.116(4)
H16 H 1.117(4) 0.121(3) 0.125(4)
H17 H 1.3104 0.0698 0.1934
H18 H 1.2984 0.1056 0.0389
H19 H 1.4809 0.1402 0.1694
H20 H 1.4154 0.1807 0.2847
H21 H 1.4034 0.2164 0.1302
P1B P 0.8793(1) -0.07574(8) 0.5764(1)
N1B N 0.9054(3) 0.0518(2) 0.8799(4)
Cu1B Cu 1.00970(5) -0.00968(4) 0.27286(5)
Cu1B_2 Cu 1.00970(5) -0.00968(4) 1.27286(5)
loop_
_geom_bond_atom_site_label_1
_geom_bond_atom_site_label_2
_geom_bond_site_symmetry_1
_geom_bond_site_symmetry_2
Cu1 S1 1_555 1_555
S1 P1 1_555 1_555
S2 P1 1_555 1_555
S3 P1 1_555 1_555
S4 Cu1 1_555 1_555
P1 Cu1B 1_555 1_555
N1 C10 1_555 1_555
C1 S1 1_555 1_555
C2 C1 1_555 1_555
C3 C2 1_555 1_555
C4 S2 1_555 1_555
C5 C4 1_555 1_555
C6 C5 1_555 1_555
C7 S3 1_555 1_555
C8 C7 1_555 1_555
C9 C8 1_555 1_555
C10 S4 1_555 1_555
H1 C1 1_555 1_555
H2 C1 1_555 1_555
H3 C2 1_555 1_555
H4 C2 1_555 1_555
H5 C3 1_555 1_555
H6 C3 1_555 1_555
H7 C3 1_555 1_555
H8 C4 1_555 1_555
H9 C4 1_555 1_555
H10 C5 1_555 1_555
H11 C5 1_555 1_555
H12 C6 1_555 1_555
H13 C6 1_555 1_555
H14 C6 1_555 1_555
H15 C7 1_555 1_555
H16 C7 1_555 1_555
H17 C8 1_555 1_555
H18 C8 1_555 1_555
H19 C9 1_555 1_555
H20 C9 1_555 1_555
H21 C9 1_555 1_555
P1B Cu1 1_555 1_555
N1B Cu1 1_555 1_555
Cu1B_2 N1 1_555 1_555

#END
