
#######################################################################
#
#                 Cambridge Crystallographic Data Centre
#                                CCDC 
#
#######################################################################
#
# If this CIF has been generated from an entry in the Cambridge 
# Structural Database, then it will include bibliographic, chemical, 
# crystal, experimental, refinement or atomic coordinate data resulting 
# from the CCDC's data processing and validation procedures.
#
#######################################################################

data_ROTQIC
_symmetry_cell_setting           monoclinic
_symmetry_space_group_name_H-M   'P 21'
_symmetry_Int_Tables_number      4
_space_group_name_Hall           'P 2yb'
loop_
_symmetry_equiv_pos_site_id
_symmetry_equiv_pos_as_xyz
1 x,y,z
2 -x,1/2+y,-z
_cell_length_a                   8.6937(7)
_cell_length_b                   20.6607(18)
_cell_length_c                   12.0563(11)
_cell_angle_alpha                90
_cell_angle_beta                 101.903(2)
_cell_angle_gamma                90
_cell_volume                     2118.96
loop_
_atom_site_label
_atom_site_type_symbol
_atom_site_fract_x
_atom_site_fract_y
_atom_site_fract_z
C1 C -0.1733(11) 0.9806(4) 0.7959(9)
N1 N -0.2251(11) 1.0402(5) 0.8295(11)
C2 C -0.1229(16) 1.0882(4) 0.8058(13)
C3 C -0.0080(13) 1.0583(4) 0.7575(11)
C4 C -0.0391(11) 0.9917(4) 0.7514(9)
Zn1 Zn 0.66061(9) 0.9937(2) 0.23951(7)
Zn2 Zn 1.05371(9) 0.9979(2) 0.17922(7)
O1 O 0.4498(7) 0.9832(6) 0.2683(5)
O2 O 0.895(2) 0.8400(9) 0.5615(13)
O3 O 0.2258(6) 1.0019(6) 0.3237(5)
N2 N 1.278(3) 1.1452(8) 0.0382(16)
O4 O 0.3009(14) 0.5834(5) 0.7068(10)
O5 O -0.1430(8) 1.0027(9) 1.0480(6)
O6 O -0.3858(8) 0.9961(11) 1.0765(5)
O7 O 0.9836(9) 0.9135(4) 0.2357(8)
O8 O 0.7550(13) 0.9133(5) 0.2983(8)
C5 C 0.3697(9) 0.9986(8) 0.3421(6)
C6 C 0.4574(12) 1.0158(9) 0.4619(9)
C7 C 0.6070(15) 0.985(2) 0.5060(10)
H1 H 0.6479 1.0010 0.5813
H2 H 0.6793 0.9959 0.4582
H3 H 0.5936 0.9394 0.5077
N3 N 0.3511(10) 1.0128(5) 0.5419(7)
C8 C 0.2806(15) 0.9585(7) 0.5715(10)
C9 C 0.1644(9) 0.9790(2) 0.6422(7)
C10 C 0.0526(13) 0.9528(3) 0.6967(11)
H4 H 0.0388 0.9082 0.6966
O9 O 0.3124(13) 0.9041(5) 0.5465(9)
C11 C 0.160(2) 0.6012(9) 0.7123(18)
O10 O 0.0736(15) 0.5549(7) 0.7233(12)
C12 C -0.2813(13) 1.000(2) 1.0177(9)
C13 C 0.8789(16) 0.8907(6) 0.2887(12)
C14 C 0.9355(14) 0.8268(7) 0.3477(13)
N4 N 0.8069(16) 0.7988(5) 0.3966(11)
C15 C 0.6700(19) 0.7669(8) 0.3376(13)
C16 C 0.5743(11) 0.7581(5) 0.4199(7)
C17 C 0.6490(12) 0.7872(5) 0.5216(7)
C18 C 0.5829(13) 0.7842(6) 0.6170(8)
H5 H 0.6327 0.8029 0.6851
C19 C 0.4399(12) 0.7523(5) 0.6076(8)
C20 C 0.340(2) 0.7403(7) 0.6949(15)
N5 N 0.2192(14) 0.7040(6) 0.6398(13)
C21 C 0.2316(17) 0.6864(10) 0.5381(15)
C22 C 0.3687(11) 0.7225(6) 0.5057(7)
C23 C 0.4323(12) 0.7253(8) 0.4090(8)
H6 H 0.3827 0.7064 0.3410
C24 C -0.0384(18) 0.6922(10) 0.683(3)
H7 H -0.0453 0.7385 0.6865
H8 H -0.0910 0.6733 0.7380
H9 H -0.0873 0.6776 0.6087
O11 O 0.373(2) 0.7512(7) 0.7905(14)
C25 C 0.986(3) 0.7747(9) 0.270(2)
H10 H 1.0197 0.7366 0.3141
H11 H 1.0704 0.7910 0.2384
H12 H 0.8981 0.7641 0.2105
O12 O 0.6435(18) 0.7454(9) 0.2374(10)
C26 C 1.206(4) 1.2028(11) 0.043(3)
C27 C 1.426(4) 1.149(2) 0.012(4)
O13 O 0.146(2) 0.6528(11) 0.4649(17)
C28 C 0.1214(19) 0.6734(8) 0.7074(16)
C29 C 0.795(2) 0.8130(6) 0.5033(11)
C30 C 0.1849(14) 1.0462(2) 0.6467(10)
O14 O 0.321(3) 1.1234(6) 0.5609(16)
C31 C 0.0991(16) 1.0874(3) 0.7021(12)
H13 H 0.1126 1.1321 0.7021
C32 C 1.2474(17) 1.0886(8) 0.0819(15)
H14 H 1.3187 1.0548 0.0841
C33 C 0.274(2) 1.0685(8) 0.5777(14)
O15 O 1.1399(13) 1.0806(7) 0.1156(13)
O16 O -0.213(2) 0.9288(6) 0.8149(16)
O17 O -0.1222(19) 1.1421(5) 0.8441(13)
C34 C -0.337(3) 1.0465(10) 0.9034(19)
C35 C -0.486(2) 1.0481(16) 0.8503(15)
H15 H -0.5076 1.0884 0.8104
H16 H -0.5524 1.0442 0.9046
H17 H -0.5070 1.0129 0.7973
O18 O 1.1547(12) 0.9457(5) 0.0688(8)
C36 C 1.211(4) 0.9002(9) 0.085(2)
H18 H 1.2155 0.8892 0.1607
C37 C 1.308(6) 0.7898(11) 0.064(4)
C38 C 1.399(5) 0.868(2) -0.024(4)
N6 N 1.279(4) 0.8522(8) 0.0352(14)
Zn1_2 Zn -0.33939(9) 0.9937(2) 1.23951(7)
Zn1A Zn 0.33939(9) 0.4937(2) 0.76049(7)
Zn2_2 Zn 0.05371(9) 0.9979(2) 0.17922(7)
Zn2_3 Zn 0.05371(9) 0.9979(2) 1.17922(7)
Zn2A Zn -0.05371(9) 0.4979(2) 0.82078(7)
O3_2 O 1.2258(6) 1.0019(6) 0.3237(5)
O4A O 0.6991(14) 1.0834(5) 0.2932(10)
O5_2 O 0.8570(8) 1.0027(9) 0.0480(6)
O6_2 O 0.6142(8) 0.9961(11) 0.0765(5)
O10A O 0.9264(15) 1.0549(7) 0.2767(12)
loop_
_geom_bond_atom_site_label_1
_geom_bond_atom_site_label_2
_geom_bond_site_symmetry_1
_geom_bond_site_symmetry_2
C1 N1 1_555 1_555
N1 C2 1_555 1_555
C2 C3 1_555 1_555
C3 C4 1_555 1_555
C4 C1 1_555 1_555
Zn1 O1 1_555 1_555
Zn2 O7 1_555 1_555
O1 C5 1_555 1_555
O2 C29 1_555 1_555
O3 C5 1_555 1_555
N2 C26 1_555 1_555
O4 C11 1_555 1_555
O5 C12 1_555 1_555
O6 C12 1_555 1_555
O7 C13 1_555 1_555
O8 Zn1 1_555 1_555
C5 C6 1_555 1_555
C6 C7 1_555 1_555
C7 H1 1_555 1_555
H2 C7 1_555 1_555
H3 C7 1_555 1_555
N3 C6 1_555 1_555
C8 N3 1_555 1_555
C9 C8 1_555 1_555
C10 C4 1_555 1_555
H4 C10 1_555 1_555
O9 C8 1_555 1_555
C11 O10 1_555 1_555
O10 Zn2A 1_555 1_555
C12 C34 1_555 1_555
C13 O8 1_555 1_555
C14 C13 1_555 1_555
N4 C14 1_555 1_555
C15 N4 1_555 1_555
C16 C15 1_555 1_555
C17 C16 1_555 1_555
C18 C17 1_555 1_555
H5 C18 1_555 1_555
C19 C18 1_555 1_555
C20 C19 1_555 1_555
N5 C20 1_555 1_555
C21 N5 1_555 1_555
C22 C19 1_555 1_555
C23 C16 1_555 1_555
H6 C23 1_555 1_555
C24 H7 1_555 1_555
H8 C24 1_555 1_555
H9 C24 1_555 1_555
O11 C20 1_555 1_555
C25 C14 1_555 1_555
H10 C25 1_555 1_555
H11 C25 1_555 1_555
H12 C25 1_555 1_555
O12 C15 1_555 1_555
C27 N2 1_555 1_555
O13 C21 1_555 1_555
C28 C11 1_555 1_555
C29 N4 1_555 1_555
C30 C9 1_555 1_555
O14 C33 1_555 1_555
C31 C3 1_555 1_555
H13 C31 1_555 1_555
C32 N2 1_555 1_555
H14 C32 1_555 1_555
C33 N3 1_555 1_555
O15 Zn2 1_555 1_555
O16 C1 1_555 1_555
O17 C2 1_555 1_555
C34 N1 1_555 1_555
C35 C34 1_555 1_555
H15 C35 1_555 1_555
H16 C35 1_555 1_555
H17 C35 1_555 1_555
O18 Zn2 1_555 1_555
C36 O18 1_555 1_555
H18 C36 1_555 1_555
C37 N6 1_555 1_555
C38 N6 1_555 1_555
N6 C36 1_555 1_555
Zn1_2 O6 1_555 1_555
Zn1A O4 1_555 1_555
Zn2_2 O3 1_555 1_555
Zn2_3 O5 1_555 1_555
O3_2 Zn2 1_555 1_555
O4A Zn1 1_555 1_555
O5_2 Zn2 1_555 1_555
O6_2 Zn1 1_555 1_555
O10A Zn2 1_555 1_555
C9 C10 1_555 1_555
C17 C29 1_555 1_555
N5 C28 1_555 1_555
C21 C22 1_555 1_555
C22 C23 1_555 1_555
C24 C28 1_555 1_555
C30 C31 1_555 1_555
C30 C33 1_555 1_555
C32 O15 1_555 1_555

#END
