
#######################################################################
#
#                 Cambridge Crystallographic Data Centre
#                                CCDC 
#
#######################################################################
#
# If this CIF has been generated from an entry in the Cambridge 
# Structural Database, then it will include bibliographic, chemical, 
# crystal, experimental, refinement or atomic coordinate data resulting 
# from the CCDC's data processing and validation procedures.
#
#######################################################################

data_ROVQAW
_symmetry_cell_setting           orthorhombic
_symmetry_space_group_name_H-M   'C 2 2 21'
_symmetry_Int_Tables_number      20
_space_group_name_Hall           'C 2n 2'
loop_
_symmetry_equiv_pos_site_id
_symmetry_equiv_pos_as_xyz
1 x,y,z
2 -x,-y,1/2+z
3 -x,y,1/2-z
4 x,-y,-z
5 1/2+x,1/2+y,z
6 1/2-x,1/2-y,1/2+z
7 1/2-x,1/2+y,1/2-z
8 1/2+x,1/2-y,-z
_cell_length_a                   14.223(3)
_cell_length_b                   22.370(5)
_cell_length_c                   17.486(4)
_cell_angle_alpha                90
_cell_angle_beta                 90
_cell_angle_gamma                90
_cell_volume                     5563.49
loop_
_atom_site_label
_atom_site_type_symbol
_atom_site_fract_x
_atom_site_fract_y
_atom_site_fract_z
Cu1 Cu 1.0000 1.12552(8) 0.2500
Cu2 Cu 1.0000 0.62373(7) 0.2500
P1 P 0.8324(2) 0.60636(11) 0.13892(16)
C1 C 0.8642(10) 0.6693(5) 0.0140(7)
H1 H 0.8623 0.6392 -0.0259
H2 H 0.9281 0.6713 0.0334
C2 C 0.8371(10) 0.7284(5) -0.0185(6)
H3 H 0.8792 0.7382 -0.0610
C3 C 0.7363(9) 0.7362(4) -0.0441(5)
H4 H 0.7082 0.6978 -0.0586
C4 C 0.6831(9) 0.7647(5) 0.0256(6)
H5 H 0.6687 0.7330 0.0624
C5 C 0.7636(10) 0.8042(5) 0.0595(6)
H6 H 0.7641 0.8431 0.0337
C6 C 0.7574(8) 0.7704(4) 0.1956(4)
H7 H 0.7593 0.7297 0.1848
C7 C 0.7584(7) 0.8668(4) 0.1790(5)
C8 C 0.7505(8) 0.8524(4) 0.2550(5)
C9 C 0.7540(9) 0.8999(4) 0.3097(6)
C10 C 0.7516(10) 0.9645(5) 0.1990(8)
C11 C 1.0000 0.4066(6) 0.2500
C12 C 1.0186(9) 0.4408(4) 0.1845(7)
H8 H 1.0311 0.4211 0.1387
C13 C 1.0192(10) 0.5012(5) 0.1852(7)
H9 H 1.0330 0.5218 0.1404
C14 C 1.0025(10) 0.7466(4) 0.1860(6)
H10 H 1.0037 0.7257 0.1400
C15 C 1.0032(11) 0.8083(4) 0.1832(6)
H11 H 1.0060 0.8278 0.1363
C16 C 1.0000 0.8408(6) 0.2500
C17 C 1.0000 0.9072(5) 0.2500
C18 C 0.9965(11) 0.9407(4) 0.1835(7)
H12 H 0.9934 0.9213 0.1365
C19 C 0.9976(14) 1.0026(5) 0.1855(9)
H13 H 0.9966 1.0235 0.1395
C20 C 1.0107(10) 0.2470(5) 0.1856(5)
H14 H 1.0185 0.2261 0.1401
C21 C 1.0108(9) 0.3087(4) 0.1820(6)
H15 H 1.0180 0.3282 0.1354
C22 C 1.0000 0.3418(5) 0.2500
N1 N 0.7497(9) 0.9567(4) 0.2739(5)
N2 N 0.7571(7) 0.9211(4) 0.1459(5)
N3 N 0.7530(9) 1.0235(4) 0.1747(7)
H16 H 0.7526 1.0520 0.2077
H17 H 0.7543 1.0316 0.1266
N4 N 0.7537(7) 0.7918(3) 0.2641(4)
N5 N 0.7582(6) 0.8132(3) 0.1415(4)
N6 N 1.0000 0.5326(5) 0.2500
N7 N 1.0000 0.7155(5) 0.2500
N8 N 1.0000 1.0331(5) 0.2500
N9 N 1.0000 0.2151(5) 0.2500
O1 O 0.9332(5) 0.6224(4) 0.1558(4)
O2 O 0.8195(7) 0.5429(3) 0.1091(5)
O3 O 0.7668(7) 0.6184(4) 0.2058(5)
O4 O 0.8017(6) 0.6528(3) 0.0744(5)
O5 O 0.8499(6) 0.7733(3) 0.0438(4)
O6 O 0.7329(8) 0.7782(3) -0.1066(4)
H18 H 0.6998 0.7648 -0.1409
O7 O 0.6042(6) 0.7946(4) 0.0110(4)
H19 H 0.6155 0.8220 -0.0188
O8 O 0.7518(7) 0.8977(4) 0.3803(5)
O9 O 1.0923(7) 1.1255(4) 0.1687(6)
H20 H 1.1494 1.1237 0.1828
H21 H 1.0891 1.1141 0.1224
O10 O 1.1174(7) 1.1320(4) 0.3592(7)
H22 H 1.1593 1.1584 0.3665
H23 H 1.1167 1.1089 0.3978
O11 O 0.8694(13) 0.6314(6) 0.3392(9)
H24 H 0.8386 0.6281 0.2978
H25 H 0.8924 0.6665 0.3414
C12B C 0.9814(9) 0.4408(4) 0.3155(7)
H8B H 0.9689 0.4211 0.3613
C13B C 0.9808(10) 0.5012(5) 0.3148(7)
H9B H 0.9670 0.5218 0.3596
C20B C 0.9893(10) 0.2470(5) 0.3144(5)
H14B H 0.9815 0.2261 0.3599
C21B C 0.9892(9) 0.3087(4) 0.3180(6)
H15B H 0.9820 0.3282 0.3646
C14B C 0.9975(10) 0.7466(4) 0.3140(6)
H10B H 0.9963 0.7257 0.3600
C15B C 0.9968(11) 0.8083(4) 0.3168(6)
H11B H 0.9940 0.8278 0.3637
C18B C 1.0035(11) 0.9407(4) 0.3165(7)
H12B H 1.0066 0.9213 0.3635
C19B C 1.0024(14) 1.0026(5) 0.3145(9)
H13B H 1.0034 1.0235 0.3605
P1B P 1.1676(2) 0.60636(11) 0.36108(16)
C1B C 1.1358(10) 0.6693(5) 0.4860(7)
H1B H 1.1377 0.6392 0.5259
H2B H 1.0719 0.6713 0.4666
C2B C 1.1629(10) 0.7284(5) 0.5185(6)
H3B H 1.1208 0.7382 0.5610
C3B C 1.2637(9) 0.7362(4) 0.5441(5)
H4B H 1.2918 0.6978 0.5586
C4B C 1.3169(9) 0.7647(5) 0.4744(6)
H5B H 1.3313 0.7330 0.4376
C5B C 1.2364(10) 0.8042(5) 0.4405(6)
H6B H 1.2359 0.8431 0.4663
C6B C 1.2426(8) 0.7704(4) 0.3044(4)
H7B H 1.2407 0.7297 0.3152
C7B C 1.2416(7) 0.8668(4) 0.3210(5)
C8B C 1.2495(8) 0.8524(4) 0.2450(5)
C9B C 1.2460(9) 0.8999(4) 0.1903(6)
C10B C 1.2484(10) 0.9645(5) 0.3010(8)
N1B N 1.2503(9) 0.9567(4) 0.2261(5)
N2B N 1.2429(7) 0.9211(4) 0.3541(5)
N3B N 1.2470(9) 1.0235(4) 0.3253(7)
H16B H 1.2474 1.0520 0.2923
H17B H 1.2457 1.0316 0.3734
N4B N 1.2463(7) 0.7918(3) 0.2359(4)
N5B N 1.2418(6) 0.8132(3) 0.3585(4)
O1B O 1.0668(5) 0.6224(4) 0.3442(4)
O2B O 1.1805(7) 0.5429(3) 0.3909(5)
O3B O 1.2332(7) 0.6184(4) 0.2942(5)
O4B O 1.1983(6) 0.6528(3) 0.4256(5)
O5B O 1.1501(6) 0.7733(3) 0.4562(4)
O6B O 1.2671(8) 0.7782(3) 0.6066(4)
H18B H 1.3002 0.7648 0.6409
O7B O 1.3958(6) 0.7946(4) 0.4890(4)
H19B H 1.3845 0.8220 0.5188
O8B O 1.2482(7) 0.8977(4) 0.1197(5)
O9B O 0.9077(7) 1.1255(4) 0.3313(6)
H20B H 0.8506 1.1237 0.3172
H21B H 0.9109 1.1141 0.3776
O10B O 0.8826(7) 1.1320(4) 0.1408(7)
H22B H 0.8407 1.1584 0.1335
H23B H 0.8833 1.1089 0.1022
O11B O 1.1306(13) 0.6314(6) 0.1608(9)
H24B H 1.1614 0.6281 0.2022
H25B H 1.1076 0.6665 0.1586
Cu1_2 Cu 1.0000 0.12552(8) 0.2500
N9_2 N 1.0000 1.2151(5) 0.2500
O12 O 0.9206(15) 0.5000 0.0000
H26 H 0.8856 0.5139 0.0352
H26C H 0.8856 0.4861 -0.0352
O13 O 0.6248(11) 0.5547(7) 0.4954(9)
H27 H 0.5672 0.5648 0.4976
H28 H 0.6505 0.5625 0.5382
O14 O 0.9047(15) 0.5798(10) 0.4889(14)
H29 H 0.8960 0.5935 0.4441
H30 H 0.9535 0.5578 0.4884
O15 O 0.9194(19) 0.9104(12) 0.5197(16)
H31 H 0.8781 0.9070 0.4849
O16? O 0.8267(16) 0.9660(8) 0.4929(12)
H32? H 0.7909 0.9600 0.5311
loop_
_geom_bond_atom_site_label_1
_geom_bond_atom_site_label_2
_geom_bond_site_symmetry_1
_geom_bond_site_symmetry_2
Cu1 N8 1_555 1_555
Cu2 N6 1_555 1_555
P1 O1 1_555 1_555
C1 H1 1_555 1_555
H2 C1 1_555 1_555
C2 C1 1_555 1_555
H3 C2 1_555 1_555
C3 C2 1_555 1_555
H4 C3 1_555 1_555
C4 C3 1_555 1_555
H5 C4 1_555 1_555
C5 C4 1_555 1_555
H6 C5 1_555 1_555
C6 H7 1_555 1_555
C7 C8 1_555 1_555
C8 C9 1_555 1_555
C9 N1 1_555 1_555
C10 N1 1_555 1_555
C11 C12 1_555 1_555
C12 H8 1_555 1_555
C13 C12 1_555 1_555
H9 C13 1_555 1_555
C14 H10 1_555 1_555
C15 C14 1_555 1_555
H11 C15 1_555 1_555
C16 C15 1_555 1_555
C17 C16 1_555 1_555
C18 C17 1_555 1_555
H12 C18 1_555 1_555
C19 C18 1_555 1_555
H13 C19 1_555 1_555
C20 H14 1_555 1_555
C21 C20 1_555 1_555
H15 C21 1_555 1_555
C22 C11 1_555 1_555
N2 C7 1_555 1_555
N3 C10 1_555 1_555
H16 N3 1_555 1_555
H17 N3 1_555 1_555
N4 C6 1_555 1_555
N5 C5 1_555 1_555
N6 C13 1_555 1_555
N7 Cu2 1_555 1_555
N8 C19 1_555 1_555
N9 C20 1_555 1_555
O1 Cu2 1_555 1_555
O2 P1 1_555 1_555
O3 P1 1_555 1_555
O4 P1 1_555 1_555
O5 C2 1_555 1_555
O6 C3 1_555 1_555
H18 O6 1_555 1_555
O7 C4 1_555 1_555
H19 O7 1_555 1_555
O8 C9 1_555 1_555
O9 Cu1 1_555 1_555
H20 O9 1_555 1_555
H21 O9 1_555 1_555
O10 Cu1 1_555 1_555
H22 O10 1_555 1_555
H23 O10 1_555 1_555
O11 Cu2 1_555 1_555
H24 O11 1_555 1_555
H25 O11 1_555 1_555
O12 H26 1_555 1_555
O13 H27 1_555 1_555
H28 O13 1_555 1_555
O14 H29 1_555 1_555
H30 O14 1_555 1_555
O15 H31 1_555 1_555
C12B C11 1_555 1_555
H8B C12B 1_555 1_555
C13B N6 1_555 1_555
H9B C13B 1_555 1_555
C20B N9 1_555 1_555
H14B C20B 1_555 1_555
C21B C22 1_555 1_555
H15B C21B 1_555 1_555
C14B N7 1_555 1_555
H10B C14B 1_555 1_555
C15B C16 1_555 1_555
H11B C15B 1_555 1_555
C18B C17 1_555 1_555
H12B C18B 1_555 1_555
C19B N8 1_555 1_555
H13B C19B 1_555 1_555
P1B O1B 1_555 1_555
C1B H1B 1_555 1_555
H2B C1B 1_555 1_555
C2B C1B 1_555 1_555
H3B C2B 1_555 1_555
C3B C2B 1_555 1_555
H4B C3B 1_555 1_555
C4B C3B 1_555 1_555
H5B C4B 1_555 1_555
C5B C4B 1_555 1_555
H6B C5B 1_555 1_555
C6B H7B 1_555 1_555
C7B C8B 1_555 1_555
C8B C9B 1_555 1_555
C9B N1B 1_555 1_555
C10B N1B 1_555 1_555
N2B C7B 1_555 1_555
N3B C10B 1_555 1_555
H16B N3B 1_555 1_555
H17B N3B 1_555 1_555
N4B C6B 1_555 1_555
N5B C5B 1_555 1_555
O1B Cu2 1_555 1_555
O2B P1B 1_555 1_555
O3B P1B 1_555 1_555
O4B P1B 1_555 1_555
O5B C2B 1_555 1_555
O6B C3B 1_555 1_555
H18B O6B 1_555 1_555
O7B C4B 1_555 1_555
H19B O7B 1_555 1_555
O8B C9B 1_555 1_555
O9B Cu1 1_555 1_555
H20B O9B 1_555 1_555
H21B O9B 1_555 1_555
O10B Cu1 1_555 1_555
H22B O10B 1_555 1_555
H23B O10B 1_555 1_555
O11B Cu2 1_555 1_555
H24B O11B 1_555 1_555
H25B O11B 1_555 1_555
Cu1_2 N9 1_555 1_555
N9_2 Cu1 1_555 1_555
H26C O12 1_555 1_555
C1 O4 1_555 1_555
C5 O5 1_555 1_555
C6 N5 1_555 1_555
C7 N5 1_555 1_555
C8 N4 1_555 1_555
C10 N2 1_555 1_555
C14 N7 1_555 1_555
C21 C22 1_555 1_555
C12B C13B 1_555 1_555
C20B C21B 1_555 1_555
C14B C15B 1_555 1_555
C18B C19B 1_555 1_555
C1B O4B 1_555 1_555
C5B O5B 1_555 1_555
C6B N5B 1_555 1_555
C7B N5B 1_555 1_555
C8B N4B 1_555 1_555
C10B N2B 1_555 1_555

#END
