
#######################################################################
#
#                 Cambridge Crystallographic Data Centre
#                                CCDC 
#
#######################################################################
#
# If this CIF has been generated from an entry in the Cambridge 
# Structural Database, then it will include bibliographic, chemical, 
# crystal, experimental, refinement or atomic coordinate data resulting 
# from the CCDC's data processing and validation procedures.
#
#######################################################################

data_ROVXAD
_symmetry_cell_setting           triclinic
_symmetry_space_group_name_H-M   'P 1'
_symmetry_Int_Tables_number      1
_space_group_name_Hall           'P 1'
loop_
_symmetry_equiv_pos_site_id
_symmetry_equiv_pos_as_xyz
1 x,y,z
_cell_length_a                   8.1216(4)
_cell_length_b                   13.0011(7)
_cell_length_c                   13.1701(7)
_cell_angle_alpha                89.8110(10)
_cell_angle_beta                 90.0100(10)
_cell_angle_gamma                71.7950(10)
_cell_volume                     1321.01
loop_
_atom_site_label
_atom_site_type_symbol
_atom_site_fract_x
_atom_site_fract_y
_atom_site_fract_z
Cu1 Cu 0.24977(9) 0.65334(6) 0.44520(6)
S1 S 0.0615(3) 0.72637(17) 0.57641(15)
S2 S -0.3626(3) 0.91993(17) 0.55808(17)
S3 S 0.9047(3) 0.38590(17) 0.33188(18)
S4 S 1.1346(2) 0.58014(16) 0.31371(16)
N1 N -0.3365(9) 0.6095(6) 0.5700(6)
N2 N -0.5625(9) 0.5416(6) 0.5257(5)
N3 N 0.6230(9) 0.6938(6) 0.3219(6)
N4 N 0.3258(9) 0.7637(6) 0.3667(5)
O1 O -0.0437(7) 0.5139(5) 0.5705(5)
O2 O -0.5833(8) 0.7601(5) 0.5882(5)
O3 O -0.5905(8) 0.4400(5) 0.5274(5)
O4 O 0.5222(8) 0.5447(5) 0.3043(5)
O5 O 0.8144(8) 0.7973(5) 0.3178(4)
O6 O 0.1987(8) 0.8646(5) 0.3619(5)
C1 C -0.1539(12) 0.5956(7) 0.5704(7)
C2 C -0.1389(10) 0.7080(6) 0.5693(6)
C3 C -0.2989(10) 0.7803(7) 0.5676(6)
C4 C -0.4316(12) 0.7250(7) 0.5743(7)
C5 C -0.0025(12) 0.8728(7) 0.5929(7)
H1 H -0.0379 0.8904 0.6643
H2 H 0.0988 0.8977 0.5794
C6 C -0.1525(11) 0.9344(7) 0.5224(7)
H3 H -0.1246 0.9078 0.4521
H4 H -0.1622 1.0122 0.5229
C7 C -0.4067(11) 0.5267(7) 0.5633(6)
C8 C -0.3259(11) 0.4171(7) 0.5928(6)
H5 H -0.2151 0.3859 0.6229
C9 C -0.4492(11) 0.3654(7) 0.5666(6)
C10 C -0.4525(15) 0.2544(9) 0.5740(9)
H6 H -0.5656 0.2541 0.5997
H7 H -0.3612 0.2135 0.6206
H8 H -0.4330 0.2209 0.5067
C11 C 0.6400(11) 0.5854(7) 0.3146(7)
C12 C 0.8288(11) 0.5234(7) 0.3221(7)
C13 C 0.9130(11) 0.5993(7) 0.3206(7)
C14 C 0.7875(10) 0.7083(6) 0.3189(6)
C15 C 1.2109(11) 0.4333(7) 0.3010(7)
H9 H 1.1947 0.4150 0.2295
H10 H 1.3368 0.4074 0.3154
C16 C 1.1248(11) 0.3731(7) 0.3676(7)
H11 H 1.1250 0.3993 0.4380
H12 H 1.1939 0.2954 0.3669
C17 C 0.4624(11) 0.7816(7) 0.3281(7)
C18 C 0.4342(12) 0.8902(7) 0.3016(7)
H13 H 0.5145 0.9222 0.2737
C19 C 0.2723(11) 0.9368(7) 0.3243(7)
C20 C 0.1495(12) 1.0509(8) 0.3175(7)
Cu1_2 Cu -0.75023(9) 0.65334(6) 0.44520(6)
Cu1_3 Cu 1.24977(9) 0.65334(6) 0.44520(6)
S4_2 S 0.1346(2) 0.58014(16) 0.31371(16)
N2_2 N 0.4375(9) 0.5416(6) 0.5257(5)
Cu2 Cu 0.84890(9) 0.65334(6) 0.94518(6)
S5 S 1.0366(3) 0.58026(16) 0.81353(16)
S6 S 1.4612(3) 0.38578(18) 0.83179(18)
S7 S 0.1943(3) 0.92000(17) 1.05811(17)
S8 S -0.0363(3) 0.72626(16) 1.07663(15)
N5 N 1.4357(9) 0.6939(6) 0.8221(6)
N6 N 1.6635(9) 0.7637(6) 0.8667(5)
N7 N 0.4795(9) 0.6097(6) 1.0698(6)
N8 N 0.7742(9) 0.5417(6) 1.0260(5)
O7 O 1.1405(8) 0.7974(5) 0.8179(5)
O8 O 1.6848(8) 0.5449(5) 0.8044(5)
O9 O 1.6881(8) 0.8647(5) 0.8618(5)
O10 O 0.5747(8) 0.7600(5) 1.0877(5)
O11 O 0.2822(7) 0.5136(5) 1.0699(5)
O12 O 0.9021(8) 0.4402(5) 1.0272(5)
C21 C 1.2562(10) 0.7084(6) 0.8192(6)
C22 C 1.2392(12) 0.5990(7) 0.8205(7)
C23 C 1.3996(11) 0.5231(7) 0.8212(7)
C24 C 1.5282(11) 0.5853(7) 0.8143(6)
C25 C 1.1070(10) 0.4330(7) 0.8012(7)
H14 H 1.0069 0.4073 0.8157
H15 H 1.1416 0.4144 0.7299
C26 C 1.2540(11) 0.3728(7) 0.8687(7)
H16 H 1.2627 0.2952 0.8686
H17 H 1.2279 0.3997 0.9390
C27 C 1.5068(11) 0.7817(7) 0.8281(7)
C28 C 1.4269(13) 0.8905(7) 0.8025(7)
H18 H 1.3140 0.9231 0.7756
C29 C 1.5431(11) 0.9363(7) 0.8243(7)
C30 C 1.5522(12) 1.0500(8) 0.8160(7)
H19 H 1.4450 1.0970 0.7853
H20 H 1.6511 1.0501 0.7734
H21 H 1.5665 1.0768 0.8838
C31 C 0.4602(11) 0.7253(7) 1.0747(7)
C32 C 0.2706(11) 0.7806(7) 1.0684(6)
C33 C 0.1824(10) 0.7080(6) 1.0691(6)
C34 C 0.3100(11) 0.5961(7) 1.0701(7)
C35 C -0.0300(12) 0.9347(7) 1.0212(7)
H22 H -0.0981 1.0125 1.0215
H23 H -0.0305 0.9078 0.9511
C36 C -0.1190(11) 0.8726(7) 1.0923(7)
H24 H -0.2452 0.8973 1.0786
H25 H -0.1017 0.8906 1.1637
C37 C 0.6304(10) 0.5266(6) 1.0633(6)
C38 C 0.6601(11) 0.4168(7) 1.0918(6)
H26 H 0.5802 0.3853 1.1211
C39 C 0.8363(11) 0.3649(7) 1.0667(7)
C40 C 0.9512(13) 0.2550(8) 1.0760(8)
H27 H 0.9788 0.2233 1.0083
H28 H 0.8944 0.2120 1.1159
H29 H 1.0583 0.2553 1.1102
Cu2_2 Cu -0.15110(9) 0.65334(6) 0.94518(6)
Cu2_3 Cu 1.84890(9) 0.65334(6) 0.94518(6)
S8_2 S 0.9637(3) 0.72626(16) 1.07663(15)
N6_2 N 0.6635(9) 0.7637(6) 0.8667(5)
S9 S 0.5012(3) 0.1544(2) 0.1341(2)
O13 O 0.6164(10) 0.1615(6) 0.0583(6)
O14 O 0.4385(10) 0.0721(6) 0.1209(6)
O15 O 0.3721(8) 0.2551(5) 0.1208(5)
C41 C 0.5994(13) 0.1517(8) 0.2556(8)
F1 F 0.6392(9) 0.2460(6) 0.2690(6)
F2 F 0.4681(11) 0.1504(6) 0.3259(6)
F3 F 0.7459(11) 0.0590(7) 0.2524(6)
S10 S 0.0963(3) 0.1545(2) 0.6341(2)
O16 O 0.1254(8) 0.2544(5) 0.6215(5)
O17 O 0.2411(10) 0.0711(6) 0.6209(6)
O18 O -0.0263(10) 0.1617(6) 0.5581(6)
C42 C 0.0007(13) 0.1516(8) 0.7558(8)
F4 F -0.1335(10) 0.2454(6) 0.7688(6)
F5 F 0.1331(11) 0.1504(6) 0.8256(6)
F6 F -0.0527(11) 0.0586(7) 0.7535(7)
loop_
_geom_bond_atom_site_label_1
_geom_bond_atom_site_label_2
_geom_bond_site_symmetry_1
_geom_bond_site_symmetry_2
Cu1 S1 1_555 1_555
S1 C2 1_555 1_555
S2 C3 1_555 1_555
S3 C12 1_555 1_555
S4 C13 1_555 1_555
N1 C1 1_555 1_555
N2 O3 1_555 1_555
N3 C11 1_555 1_555
N4 Cu1 1_555 1_555
O1 C1 1_555 1_555
O2 C4 1_555 1_555
O3 C9 1_555 1_555
O4 C11 1_555 1_555
O5 C14 1_555 1_555
O6 N4 1_555 1_555
C1 C2 1_555 1_555
C2 C3 1_555 1_555
C3 C4 1_555 1_555
C4 N1 1_555 1_555
C5 S1 1_555 1_555
H1 C5 1_555 1_555
H2 C5 1_555 1_555
C6 S2 1_555 1_555
H3 C6 1_555 1_555
H4 C6 1_555 1_555
C7 N1 1_555 1_555
C8 C7 1_555 1_555
H5 C8 1_555 1_555
C9 C8 1_555 1_555
C10 C9 1_555 1_555
H6 C10 1_555 1_555
H7 C10 1_555 1_555
H8 C10 1_555 1_555
C11 C12 1_555 1_555
C12 C13 1_555 1_555
C13 C14 1_555 1_555
C14 N3 1_555 1_555
C15 S4 1_555 1_555
H9 C15 1_555 1_555
H10 C15 1_555 1_555
C16 S3 1_555 1_555
H11 C16 1_555 1_555
H12 C16 1_555 1_555
C17 N3 1_555 1_555
C18 C17 1_555 1_555
H13 C18 1_555 1_555
C19 O6 1_555 1_555
C20 C19 1_555 1_555
Cu2 S5 1_555 1_555
S5 C22 1_555 1_555
S6 C23 1_555 1_555
S7 C32 1_555 1_555
S8 C33 1_555 1_555
N5 C21 1_555 1_555
N6 O9 1_555 1_555
N7 C31 1_555 1_555
N8 Cu2 1_555 1_555
O7 C21 1_555 1_555
O8 C24 1_555 1_555
O9 C29 1_555 1_555
O10 C31 1_555 1_555
O11 C34 1_555 1_555
O12 N8 1_555 1_555
C21 C22 1_555 1_555
C22 C23 1_555 1_555
C23 C24 1_555 1_555
C24 N5 1_555 1_555
C25 S5 1_555 1_555
H14 C25 1_555 1_555
H15 C25 1_555 1_555
C26 S6 1_555 1_555
H16 C26 1_555 1_555
H17 C26 1_555 1_555
C27 N5 1_555 1_555
C28 C27 1_555 1_555
H18 C28 1_555 1_555
C29 C28 1_555 1_555
C30 C29 1_555 1_555
H19 C30 1_555 1_555
H20 C30 1_555 1_555
H21 C30 1_555 1_555
C31 C32 1_555 1_555
C32 C33 1_555 1_555
C33 C34 1_555 1_555
C34 N7 1_555 1_555
C35 S7 1_555 1_555
H22 C35 1_555 1_555
H23 C35 1_555 1_555
C36 S8 1_555 1_555
H24 C36 1_555 1_555
H25 C36 1_555 1_555
C37 N7 1_555 1_555
C38 C37 1_555 1_555
H26 C38 1_555 1_555
C39 O12 1_555 1_555
C40 C39 1_555 1_555
H27 C40 1_555 1_555
H28 C40 1_555 1_555
H29 C40 1_555 1_555
S9 O13 1_555 1_555
O14 S9 1_555 1_555
O15 S9 1_555 1_555
C41 S9 1_555 1_555
F1 C41 1_555 1_555
F2 C41 1_555 1_555
F3 C41 1_555 1_555
S10 O16 1_555 1_555
O17 S10 1_555 1_555
O18 S10 1_555 1_555
C42 S10 1_555 1_555
F4 C42 1_555 1_555
F5 C42 1_555 1_555
F6 C42 1_555 1_555
Cu1_2 N2 1_555 1_555
Cu1_3 S4 1_555 1_555
S4_2 Cu1 1_555 1_555
N2_2 Cu1 1_555 1_555
Cu2_2 S8 1_555 1_555
Cu2_3 N6 1_555 1_555
S8_2 Cu2 1_555 1_555
N6_2 Cu2 1_555 1_555
N2 C7 1_555 1_555
N4 C17 1_555 1_555
C5 C6 1_555 1_555
C15 C16 1_555 1_555
C18 C19 1_555 1_555
N6 C27 1_555 1_555
N8 C37 1_555 1_555
C25 C26 1_555 1_555
C35 C36 1_555 1_555
C38 C39 1_555 1_555

#END
