
#######################################################################
#
#                 Cambridge Crystallographic Data Centre
#                                CCDC 
#
#######################################################################
#
# If this CIF has been generated from an entry in the Cambridge 
# Structural Database, then it will include bibliographic, chemical, 
# crystal, experimental, refinement or atomic coordinate data resulting 
# from the CCDC's data processing and validation procedures.
#
#######################################################################

data_ROYRUU
_symmetry_cell_setting           monoclinic
_symmetry_space_group_name_H-M   'P 21/c'
_symmetry_Int_Tables_number      14
_space_group_name_Hall           '-P 2ybc'
loop_
_symmetry_equiv_pos_site_id
_symmetry_equiv_pos_as_xyz
1 x,y,z
2 -x,1/2+y,1/2-z
3 -x,-y,-z
4 x,1/2-y,1/2+z
_cell_length_a                   14.2831(2)
_cell_length_b                   29.8625(4)
_cell_length_c                   18.2631(3)
_cell_angle_alpha                90
_cell_angle_beta                 106.9678(17)
_cell_angle_gamma                90
_cell_volume                     7450.65
loop_
_atom_site_label
_atom_site_type_symbol
_atom_site_fract_x
_atom_site_fract_y
_atom_site_fract_z
Ce1 Ce 0.187150(14) 0.257543(7) 0.825752(12)
Ce2 Ce 0.326315(14) 0.332102(7) 0.678417(13)
O1 O 0.3283(3) 0.25204(11) 0.6664(2)
O2 O 0.2542(2) 0.21386(10) 0.7371(2)
O3 O 0.2580(2) 0.12715(10) 0.7284(2)
H1 H 0.244(4) 0.1525(8) 0.738(3)
O4 O 0.6596(2) -0.09644(10) 0.8879(2)
O5 O 0.5609(2) -0.10009(10) 0.77056(19)
O6 O 0.4492(3) -0.03403(10) 0.7123(2)
H2 H 0.479(3) -0.0577(10) 0.714(3)
O7 O 0.1803(3) 0.33910(11) 0.8286(2)
O8 O 0.2462(2) 0.37843(10) 0.7534(2)
O9 O 0.2231(3) 0.46334(11) 0.7423(3)
H3 H 0.2422 0.4385 0.7337
O10 O -0.1972(2) 0.68194(10) 0.60877(19)
O11 O -0.0845(2) 0.68608(10) 0.72003(19)
O12 O 0.0407(2) 0.62350(10) 0.7654(2)
H4 H 0.007(4) 0.6462(12) 0.761(3)
O13 O 0.3703(3) 0.30086(12) 0.8094(2)
O14 O 0.3647(2) 0.24931(14) 0.8923(2)
O15 O 0.5178(2) 0.22374(11) 0.9948(2)
H5 H 0.4608(14) 0.2231(18) 0.968(3)
O16 O 1.1493(2) 0.17749(13) 1.1224(2)
O17 O 1.0908(2) 0.21932(13) 1.1986(2)
O18 O 0.9094(2) 0.23887(15) 1.1645(2)
H6 H 0.9679 0.2398 1.1879
O19 O 0.0247(3) 0.26649(14) 0.8457(3)
O20 O 0.2188(3) 0.27668(13) 0.9659(2)
O21 O 0.3065(3) 0.30770(11) 0.54054(19)
H7 H 0.3012 0.2785 0.5365
H8 H 0.284(5) 0.316(2) 0.4925(14)
O22 O 0.4946(3) 0.31629(15) 0.6618(3)
H9 H 0.4878 0.3036 0.6185
H10 H 0.550(3) 0.331(2) 0.679(4)
N1 N -0.1361(3) 0.27066(18) 0.8342(3)
N2 N 0.1327(6) 0.3178(3) 1.0278(5)
C1 C 0.3136(3) 0.21675(14) 0.6984(3)
C2 C 0.3705(3) 0.17616(14) 0.6913(3)
C3 C 0.4546(4) 0.18067(15) 0.6705(3)
H11 H 0.4731 0.2090 0.6589
C4 C 0.5139(4) 0.14392(16) 0.6660(3)
C5 C 0.6018(4) 0.1489(2) 0.6464(4)
H12 H 0.6222 0.1773 0.6369
C6 C 0.6573(4) 0.1126(2) 0.6413(4)
H13 H 0.7156 0.1165 0.6291
C7 C 0.6273(4) 0.0703(2) 0.6539(4)
H14 H 0.6648 0.0457 0.6488
C8 C 0.5436(4) 0.06386(17) 0.6738(3)
H15 H 0.5252 0.0349 0.6826
C9 C 0.4840(3) 0.10044(15) 0.6812(3)
C10 C 0.3967(3) 0.09529(14) 0.7039(3)
C11 C 0.3423(3) 0.13248(14) 0.7079(3)
C12 C 0.3651(3) 0.04944(14) 0.7247(3)
H16 H 0.3035 0.0527 0.7366
H17 H 0.3536 0.0300 0.6804
C13 C 0.4387(3) 0.02696(13) 0.7921(3)
C14 C 0.4680(3) 0.04775(14) 0.8651(3)
C15 C 0.4237(4) 0.08754(15) 0.8821(3)
H18 H 0.3712 0.1000 0.8450
C16 C 0.4571(4) 0.10764(17) 0.9520(4)
H19 H 0.4270 0.1337 0.9615
C17 C 0.5353(5) 0.08999(19) 1.0092(4)
H20 H 0.5592 0.1049 1.0556
C18 C 0.5766(4) 0.05060(18) 0.9967(3)
H21 H 0.6272 0.0381 1.0356
C19 C 0.5437(4) 0.02857(15) 0.9255(3)
C20 C 0.5820(3) -0.01329(15) 0.9131(3)
H22 H 0.6293 -0.0268 0.9531
C21 C 0.5516(3) -0.03470(14) 0.8437(3)
C22 C 0.4790(3) -0.01373(14) 0.7823(3)
C23 C 0.5936(3) -0.07914(14) 0.8343(3)
C24 C 0.1931(3) 0.37496(14) 0.7976(3)
C25 C 0.1421(3) 0.41615(14) 0.8125(3)
C26 C 0.0757(4) 0.41328(16) 0.8536(3)
H23 H 0.0650 0.3858 0.8736
C27 C 0.0236(4) 0.45085(17) 0.8661(4)
C28 C -0.0458(6) 0.4476(3) 0.9072(5)
H24 H -0.0551 0.4203 0.9286
C29 C -0.0996(7) 0.4840(3) 0.9160(5)
H25 H -0.1475 0.4810 0.9409
C30 C -0.0828(5) 0.5256(2) 0.8877(4)
H26 H -0.1176 0.5505 0.8957
C31 C -0.0165(4) 0.53003(16) 0.8490(3)
H27 H -0.0062 0.5581 0.8308
C32 C 0.0383(3) 0.49283(15) 0.8352(3)
C33 C 0.1049(3) 0.49599(14) 0.7913(3)
C34 C 0.1579(3) 0.45880(14) 0.7826(3)
C35 C 0.1161(3) 0.53958(14) 0.7516(3)
H28 H 0.1658 0.5354 0.7257
H29 H 0.1396 0.5624 0.7905
C36 C 0.0234(3) 0.55688(13) 0.6936(3)
C37 C -0.0285(3) 0.53178(14) 0.6280(3)
C38 C -0.0010(4) 0.48751(15) 0.6124(3)
H30 H 0.0548 0.4745 0.6451
C39 C -0.0548(5) 0.46423(16) 0.5510(4)
H31 H -0.0371 0.4350 0.5437
C40 C -0.1369(4) 0.48325(18) 0.4980(4)
H32 H -0.1726 0.4668 0.4559
C41 C -0.1635(4) 0.52539(17) 0.5084(3)
H33 H -0.2165 0.5383 0.4723
C42 C -0.1116(3) 0.55060(15) 0.5740(3)
C43 C -0.1418(3) 0.59407(15) 0.5859(3)
H34 H -0.1960 0.6065 0.5503
C44 C -0.0930(3) 0.61850(13) 0.6488(3)
C45 C -0.0093(3) 0.59967(13) 0.7034(3)
C46 C -0.1271(3) 0.66434(13) 0.6596(3)
C47 C 0.4104(3) 0.27892(16) 0.8688(3)
C48 C 0.5140(3) 0.28829(15) 0.9139(2)
C49 C 0.5601(4) 0.32582(16) 0.8990(3)
H35 H 0.5285 0.3441 0.8581
C50 C 0.6553(3) 0.33723(16) 0.9452(3)
C51 C 0.6971(5) 0.3793(2) 0.9382(4)
H36 H 0.6634 0.3991 0.9005
C52 C 0.7856(5) 0.3911(2) 0.9859(5)
H37 H 0.8113 0.4192 0.9817
C53 C 0.8383(4) 0.3610(2) 1.0412(4)
H38 H 0.8994 0.3693 1.0731
C54 C 0.8016(3) 0.31923(18) 1.0495(3)
H39 H 0.8382 0.2994 1.0860
C55 C 0.7071(3) 0.30650(16) 1.0017(3)
C56 C 0.6622(3) 0.26571(14) 1.0143(2)
C57 C 0.5648(3) 0.25909(14) 0.9750(3)
C58 C 0.7165(3) 0.23132(16) 1.0723(2)
H40 H 0.6704 0.2085 1.0772
H41 H 0.7413 0.2459 1.1216
C59 C 0.8020(3) 0.20853(14) 1.0523(2)
C60 C 0.7861(3) 0.17959(14) 0.9880(2)
C61 C 0.6913(3) 0.16878(15) 0.9398(3)
H42 H 0.6366 0.1813 0.9498
C62 C 0.6789(4) 0.14045(18) 0.8791(3)
H43 H 0.6159 0.1335 0.8491
C63 C 0.7586(4) 0.1218(2) 0.8611(3)
H44 H 0.7490 0.1034 0.8185
C64 C 0.8513(4) 0.13075(18) 0.9067(3)
H45 H 0.9045 0.1179 0.8949
C65 C 0.8679(3) 0.15903(15) 0.9710(3)
C66 C 0.9622(3) 0.16590(15) 1.0212(3)
H46 H 1.0154 0.1524 1.0104
C67 C 0.9782(3) 0.19169(15) 1.0853(3)
C68 C 0.8959(3) 0.21325(16) 1.1006(3)
C69 C 1.0798(3) 0.19621(16) 1.1385(3)
C70 C -0.0581(4) 0.2496(2) 0.8326(4)
H47 H -0.0642 0.2193 0.8206
C71 C -0.2317(5) 0.2495(3) 0.8156(5)
H48 H -0.2749 0.2637 0.7714
H49 H -0.2579 0.2524 0.8582
H50 H -0.2255 0.2183 0.8051
C72 C -0.1328(6) 0.3178(3) 0.8505(6)
H51 H -0.0793 0.3240 0.8953
H52 H -0.1931 0.3269 0.8593
H53 H -0.1238 0.3342 0.8078
C73 C 0.1983(7) 0.3133(3) 0.9879(5)
H54 H 0.2289 0.3388 0.9766
C74 C 0.0788(9) 0.2821(4) 1.0440(7)
H55 H 0.0103 0.2894 1.0274
H56 H 0.0987 0.2766 1.0982
H57 H 0.0902 0.2558 1.0177
C75 C 0.1119(9) 0.3613(4) 1.0543(7)
H58 H 0.1635 0.3818 1.0536
H59 H 0.1073 0.3588 1.1055
H60 H 0.0510 0.3723 1.0212
Ce1A Ce -0.187150(14) 0.757543(7) 0.674248(12)
Ce1C Ce 1.187150(14) 0.242457(7) 1.325752(12)
Ce2A Ce 0.673685(14) -0.167898(7) 0.821583(13)
Ce2C Ce 1.326315(14) 0.167898(7) 1.178417(13)
O4A O 0.3404(2) 0.40356(10) 0.6121(2)
O5A O 0.4391(2) 0.39991(10) 0.72944(19)
O10A O 0.1972(2) 0.18194(10) 0.89123(19)
O11A O 0.0845(2) 0.18608(10) 0.77997(19)
O16C O 0.1493(2) 0.32251(13) 0.6224(2)
O17C O 0.0908(2) 0.28068(13) 0.6986(2)
O23 O 0.3321(3) 0.64223(19) 0.2995(3)
N3 N 0.2341(4) 0.58398(17) 0.3076(3)
C76 C 0.3074(4) 0.6030(3) 0.2901(4)
H61 H 0.3445 0.5847 0.2681
C77 C 0.1718(6) 0.6094(3) 0.3395(6)
H62 H 0.1967 0.6089 0.3943
H63 H 0.1071 0.5968 0.3240
H64 H 0.1692 0.6398 0.3217
C78 C 0.2137(6) 0.5370(2) 0.2985(6)
H65 H 0.2546 0.5236 0.2711
H66 H 0.1462 0.5326 0.2703
H67 H 0.2266 0.5232 0.3479
O24 O 0.2728(12) 0.4460(5) 1.0171(10)
N4 N 0.3690(9) 0.4256(4) 0.9711(7)
C79 C 0.3279(13) 0.4654(5) 0.9857(11)
C80 C 0.4316(14) 0.4461(7) 0.9315(11)
C81 C 0.3752(14) 0.3764(5) 0.9813(12)
loop_
_geom_bond_atom_site_label_1
_geom_bond_atom_site_label_2
_geom_bond_site_symmetry_1
_geom_bond_site_symmetry_2
Ce1 O2 1_555 1_555
Ce2 O1 1_555 1_555
O1 C1 1_555 1_555
O2 C1 1_555 1_555
O3 H1 1_555 1_555
O4 C23 1_555 1_555
O5 C23 1_555 1_555
O6 H2 1_555 1_555
O7 Ce1 1_555 1_555
O8 Ce2 1_555 1_555
O9 H3 1_555 1_555
O10 C46 1_555 1_555
O11 C46 1_555 1_555
O12 H4 1_555 1_555
O13 Ce2 1_555 1_555
O14 Ce1 1_555 1_555
O15 H5 1_555 1_555
O16 C69 1_555 1_555
O17 C69 1_555 1_555
O18 H6 1_555 1_555
O19 Ce1 1_555 1_555
O20 Ce1 1_555 1_555
O21 Ce2 1_555 1_555
H7 O21 1_555 1_555
H8 O21 1_555 1_555
O22 Ce2 1_555 1_555
H9 O22 1_555 1_555
H10 O22 1_555 1_555
N1 C70 1_555 1_555
N2 C73 1_555 1_555
C1 C2 1_555 1_555
C2 C3 1_555 1_555
C3 H11 1_555 1_555
C4 C3 1_555 1_555
C5 C4 1_555 1_555
H12 C5 1_555 1_555
C6 C5 1_555 1_555
H13 C6 1_555 1_555
C7 C6 1_555 1_555
H14 C7 1_555 1_555
C8 C7 1_555 1_555
H15 C8 1_555 1_555
C9 C4 1_555 1_555
C10 C9 1_555 1_555
C11 O3 1_555 1_555
C12 C10 1_555 1_555
H16 C12 1_555 1_555
H17 C12 1_555 1_555
C13 C12 1_555 1_555
C14 C13 1_555 1_555
C15 C14 1_555 1_555
H18 C15 1_555 1_555
C16 C15 1_555 1_555
H19 C16 1_555 1_555
C17 C16 1_555 1_555
H20 C17 1_555 1_555
C18 C17 1_555 1_555
H21 C18 1_555 1_555
C19 C14 1_555 1_555
C20 C19 1_555 1_555
H22 C20 1_555 1_555
C21 C20 1_555 1_555
C22 O6 1_555 1_555
C23 C21 1_555 1_555
C24 O7 1_555 1_555
C25 C24 1_555 1_555
C26 C25 1_555 1_555
H23 C26 1_555 1_555
C27 C26 1_555 1_555
C28 C27 1_555 1_555
H24 C28 1_555 1_555
C29 C28 1_555 1_555
H25 C29 1_555 1_555
C30 C29 1_555 1_555
H26 C30 1_555 1_555
C31 C30 1_555 1_555
H27 C31 1_555 1_555
C32 C27 1_555 1_555
C33 C32 1_555 1_555
C34 O9 1_555 1_555
C35 C33 1_555 1_555
H28 C35 1_555 1_555
H29 C35 1_555 1_555
C36 C35 1_555 1_555
C37 C36 1_555 1_555
C38 C37 1_555 1_555
H30 C38 1_555 1_555
C39 C38 1_555 1_555
H31 C39 1_555 1_555
C40 C39 1_555 1_555
H32 C40 1_555 1_555
C41 C40 1_555 1_555
H33 C41 1_555 1_555
C42 C37 1_555 1_555
C43 C42 1_555 1_555
H34 C43 1_555 1_555
C44 C43 1_555 1_555
C45 O12 1_555 1_555
C46 C44 1_555 1_555
C47 O13 1_555 1_555
C48 C47 1_555 1_555
C49 C48 1_555 1_555
H35 C49 1_555 1_555
C50 C49 1_555 1_555
C51 C50 1_555 1_555
H36 C51 1_555 1_555
C52 C51 1_555 1_555
H37 C52 1_555 1_555
C53 C52 1_555 1_555
H38 C53 1_555 1_555
C54 C53 1_555 1_555
H39 C54 1_555 1_555
C55 C50 1_555 1_555
C56 C55 1_555 1_555
C57 O15 1_555 1_555
C58 C56 1_555 1_555
H40 C58 1_555 1_555
H41 C58 1_555 1_555
C59 C58 1_555 1_555
C60 C59 1_555 1_555
C61 C60 1_555 1_555
H42 C61 1_555 1_555
C62 C61 1_555 1_555
H43 C62 1_555 1_555
C63 C62 1_555 1_555
H44 C63 1_555 1_555
C64 C63 1_555 1_555
H45 C64 1_555 1_555
C65 C60 1_555 1_555
C66 C65 1_555 1_555
H46 C66 1_555 1_555
C67 C66 1_555 1_555
C68 O18 1_555 1_555
C69 C67 1_555 1_555
C70 O19 1_555 1_555
H47 C70 1_555 1_555
C71 N1 1_555 1_555
H48 C71 1_555 1_555
H49 C71 1_555 1_555
H50 C71 1_555 1_555
C72 N1 1_555 1_555
H51 C72 1_555 1_555
H52 C72 1_555 1_555
H53 C72 1_555 1_555
C73 O20 1_555 1_555
H54 C73 1_555 1_555
C74 N2 1_555 1_555
H55 C74 1_555 1_555
H56 C74 1_555 1_555
H57 C74 1_555 1_555
C75 N2 1_555 1_555
H58 C75 1_555 1_555
H59 C75 1_555 1_555
H60 C75 1_555 1_555
O23 C76 1_555 1_555
N3 C76 1_555 1_555
C76 H61 1_555 1_555
C77 N3 1_555 1_555
H62 C77 1_555 1_555
H63 C77 1_555 1_555
H64 C77 1_555 1_555
C78 N3 1_555 1_555
H65 C78 1_555 1_555
H66 C78 1_555 1_555
H67 C78 1_555 1_555
O24 C79 1_555 1_555
N4 C79 1_555 1_555
C80 N4 1_555 1_555
C81 N4 1_555 1_555
Ce1A O10 1_555 1_555
Ce1C O17 1_555 1_555
Ce2A O4 1_555 1_555
Ce2C O16 1_555 1_555
O4A Ce2 1_555 1_555
O5A Ce2 1_555 1_555
O10A Ce1 1_555 1_555
O11A Ce1 1_555 1_555
O16C Ce2 1_555 1_555
O17C Ce1 1_555 1_555
O5 Ce2A 1_555 1_555
O8 C24 1_555 1_555
O11 Ce1A 1_555 1_555
O14 C47 1_555 1_555
C2 C11 1_555 1_555
C8 C9 1_555 1_555
C10 C11 1_555 1_555
C13 C22 1_555 1_555
C18 C19 1_555 1_555
C21 C22 1_555 1_555
C25 C34 1_555 1_555
C31 C32 1_555 1_555
C33 C34 1_555 1_555
C36 C45 1_555 1_555
C41 C42 1_555 1_555
C44 C45 1_555 1_555
C48 C57 1_555 1_555
C54 C55 1_555 1_555
C56 C57 1_555 1_555
C59 C68 1_555 1_555
C64 C65 1_555 1_555
C67 C68 1_555 1_555

#END
