
#######################################################################
#
#                 Cambridge Crystallographic Data Centre
#                                CCDC 
#
#######################################################################
#
# If this CIF has been generated from an entry in the Cambridge 
# Structural Database, then it will include bibliographic, chemical, 
# crystal, experimental, refinement or atomic coordinate data resulting 
# from the CCDC's data processing and validation procedures.
#
#######################################################################

data_ROZKEX
_symmetry_cell_setting           monoclinic
_symmetry_space_group_name_H-M   'P 21/n'
_symmetry_Int_Tables_number      14
_space_group_name_Hall           '-P 2yn'
loop_
_symmetry_equiv_pos_site_id
_symmetry_equiv_pos_as_xyz
1 x,y,z
2 1/2-x,1/2+y,1/2-z
3 -x,-y,-z
4 1/2+x,1/2-y,1/2+z
_cell_length_a                   7.1627(18)
_cell_length_b                   11.810(3)
_cell_length_c                   14.438(4)
_cell_angle_alpha                90
_cell_angle_beta                 91.992(9)
_cell_angle_gamma                90
_cell_volume                     1220.59
loop_
_atom_site_label
_atom_site_type_symbol
_atom_site_fract_x
_atom_site_fract_y
_atom_site_fract_z
Mo1 Mo -0.26651(5) 0.25681(3) 0.14647(3)
Cu1 Cu -0.5000 0.0000 0.0000
Cu2 Cu 0.0000 0.0000 0.0000
F1 F -0.2756(4) 0.3398(2) 0.03657(19)
F2 F -0.2018(5) 0.1454(2) 0.24205(19)
F3 F 0.0128(4) 0.2607(2) 0.1354(2)
F4 F -0.2438(3) 0.11604(19) 0.06128(16)
O1 O -0.2586(4) 0.3714(3) 0.2209(2)
O2 O -0.5058(4) 0.2264(3) 0.1518(2)
N1 N -0.8389(4) -0.0130(3) 0.1156(2)
N2 N -0.6459(4) -0.0114(3) 0.1145(2)
N3 N -0.7296(5) -0.0234(3) 0.2570(2)
N4 N -0.7263(5) -0.0306(3) 0.3546(2)
H3 H -0.8293 -0.0331 0.3834
H4 H -0.6212 -0.0326 0.3853
N5 N -0.8510(4) 0.1310(3) -0.0393(2)
N6 N -0.6582(4) 0.1328(3) -0.0422(2)
N7 N -0.7646(4) 0.3023(3) -0.0657(2)
N8 N -0.7822(5) 0.4199(3) -0.0813(3)
H5 H -0.8909 0.4509 -0.0836
H6 H -0.6842 0.4606 -0.0885
C1 C -0.5837(6) -0.0165(3) 0.2002(3)
H7 H -0.4584 -0.0157 0.2194
C2 C -0.8850(5) -0.0197(3) 0.2017(3)
H8 H -1.0067 -0.0218 0.2220
C3 C -0.6096(5) 0.2374(3) -0.0589(3)
H9 H -0.4879 0.2630 -0.0650
C4 C -0.9115(6) 0.2334(3) -0.0539(3)
H10 H -1.0362 0.2556 -0.0558
Mo1B Mo -0.73349(5) -0.25681(3) -0.14647(3)
Cu2_2 Cu -1.0000 0.0000 0.0000
F1B F -0.7244(4) -0.3398(2) -0.03657(19)
F2B F -0.7982(5) -0.1454(2) -0.24205(19)
F3B F -1.0128(4) -0.2607(2) -0.1354(2)
F4B F -0.7562(3) -0.11604(19) -0.06128(16)
F4B_2 F 0.2438(3) -0.11604(19) -0.06128(16)
O1B O -0.7414(4) -0.3714(3) -0.2209(2)
O2B O -0.4942(4) -0.2264(3) -0.1518(2)
N1B N -0.1611(4) 0.0130(3) -0.1156(2)
N1_2 N 0.1611(4) -0.0130(3) 0.1156(2)
N2B N -0.3541(4) 0.0114(3) -0.1145(2)
N3B N -0.2704(5) 0.0234(3) -0.2570(2)
N4B N -0.2737(5) 0.0306(3) -0.3546(2)
H3B H -0.1707 0.0331 -0.3834
H4B H -0.3788 0.0326 -0.3853
N5B N -0.1490(4) -0.1310(3) 0.0393(2)
N5_2 N 0.1490(4) 0.1310(3) -0.0393(2)
N6B N -0.3418(4) -0.1328(3) 0.0422(2)
N7B N -0.2354(4) -0.3023(3) 0.0657(2)
N8B N -0.2178(5) -0.4199(3) 0.0813(3)
H5B H -0.1091 -0.4509 0.0836
H6B H -0.3158 -0.4606 0.0885
C1B C -0.4163(6) 0.0165(3) -0.2002(3)
H7B H -0.5416 0.0157 -0.2194
C2B C -0.1150(5) 0.0197(3) -0.2017(3)
H8B H 0.0067 0.0218 -0.2220
C3B C -0.3904(5) -0.2374(3) 0.0589(3)
H9B H -0.5121 -0.2630 0.0650
C4B C -0.0885(6) -0.2334(3) 0.0539(3)
H10B H 0.0362 -0.2556 0.0558
O3 O 0.2328(5) 0.2227(3) 0.2994(3)
H1 H 0.136(9) 0.220(5) 0.272(4)
H2 H 0.308(9) 0.230(5) 0.280(5)
loop_
_geom_bond_atom_site_label_1
_geom_bond_atom_site_label_2
_geom_bond_site_symmetry_1
_geom_bond_site_symmetry_2
Mo1 F1 1_555 1_555
Cu1 F4 1_555 1_555
Cu2 F4 1_555 1_555
F2 Mo1 1_555 1_555
F3 Mo1 1_555 1_555
F4 Mo1 1_555 1_555
O1 Mo1 1_555 1_555
O2 Mo1 1_555 1_555
O3 H1 1_555 1_555
H2 O3 1_555 1_555
N1 N2 1_555 1_555
N2 Cu1 1_555 1_555
N3 N4 1_555 1_555
N4 H3 1_555 1_555
H4 N4 1_555 1_555
N5 N6 1_555 1_555
N6 Cu1 1_555 1_555
N7 N8 1_555 1_555
N8 H5 1_555 1_555
H6 N8 1_555 1_555
C1 N2 1_555 1_555
H7 C1 1_555 1_555
C2 N1 1_555 1_555
H8 C2 1_555 1_555
C3 N6 1_555 1_555
H9 C3 1_555 1_555
C4 N5 1_555 1_555
H10 C4 1_555 1_555
Mo1B F1B 1_555 1_555
Cu2_2 N1 1_555 1_555
F2B Mo1B 1_555 1_555
F3B Mo1B 1_555 1_555
F4B Cu1 1_555 1_555
F4B_2 Cu2 1_555 1_555
O1B Mo1B 1_555 1_555
O2B Mo1B 1_555 1_555
N1B Cu2 1_555 1_555
N1_2 Cu2 1_555 1_555
N2B Cu1 1_555 1_555
N3B N4B 1_555 1_555
N4B H3B 1_555 1_555
H4B N4B 1_555 1_555
N5B Cu2 1_555 1_555
N5_2 Cu2 1_555 1_555
N6B Cu1 1_555 1_555
N7B N8B 1_555 1_555
N8B H5B 1_555 1_555
H6B N8B 1_555 1_555
C1B N2B 1_555 1_555
H7B C1B 1_555 1_555
C2B N1B 1_555 1_555
H8B C2B 1_555 1_555
C3B N6B 1_555 1_555
H9B C3B 1_555 1_555
C4B N5B 1_555 1_555
H10B C4B 1_555 1_555
N3 C1 1_555 1_555
N3 C2 1_555 1_555
N5 Cu2_2 1_555 1_555
N7 C3 1_555 1_555
N7 C4 1_555 1_555
Mo1B F4B 1_555 1_555
Cu2_2 F4B 1_555 1_555
N1B N2B 1_555 1_555
N3B C1B 1_555 1_555
N3B C2B 1_555 1_555
N5B N6B 1_555 1_555
N7B C3B 1_555 1_555
N7B C4B 1_555 1_555

#END
