
#######################################################################
#
#                 Cambridge Crystallographic Data Centre
#                                CCDC 
#
#######################################################################
#
# If this CIF has been generated from an entry in the Cambridge 
# Structural Database, then it will include bibliographic, chemical, 
# crystal, experimental, refinement or atomic coordinate data resulting 
# from the CCDC's data processing and validation procedures.
#
#######################################################################

data_ROZSUV
_symmetry_cell_setting           triclinic
_symmetry_space_group_name_H-M   'P -1'
_symmetry_Int_Tables_number      2
_space_group_name_Hall           '-P 1'
loop_
_symmetry_equiv_pos_site_id
_symmetry_equiv_pos_as_xyz
1 x,y,z
2 -x,-y,-z
_cell_length_a                   10.167(5)
_cell_length_b                   10.693(5)
_cell_length_c                   13.131(5)
_cell_angle_alpha                76.753(5)
_cell_angle_beta                 73.171(5)
_cell_angle_gamma                70.664(5)
_cell_volume                     1275.22
loop_
_atom_site_label
_atom_site_type_symbol
_atom_site_fract_x
_atom_site_fract_y
_atom_site_fract_z
Ni1 Ni 0.92690(3) 0.28071(3) 0.58761(2)
O1 O 1.12856(17) 0.31274(16) 0.57448(14)
O2 O 1.60586(19) 0.36395(18) 0.55075(17)
C1 C 1.1786(2) 0.1862(2) 0.59950(18)
O3 O 1.10006(17) 0.11135(17) 0.61678(14)
N1 N 0.9949(2) 0.2571(2) 0.42322(17)
C2 C 1.5590(2) 0.1542(2) 0.60562(18)
O4 O 1.77282(17) 0.19099(17) 0.61201(14)
C3 C 1.4187(2) 0.2091(2) 0.59370(18)
H1 H 1.3841 0.3010 0.5737
N2 N 0.8674(2) 0.3042(2) 0.75390(18)
C4 C 1.3299(2) 0.1278(2) 0.61140(19)
C5 C 1.5217(3) -0.0647(3) 0.6521(3)
H2 H 1.5571 -0.1568 0.6707
C6 C 1.3813(3) -0.0096(3) 0.6412(2)
H3 H 1.3221 -0.0644 0.6536
C7 C 0.9775(3) 0.1568(3) 0.3884(2)
H4 H 0.9220 0.1047 0.4361
C8 C 1.0379(3) 0.1266(3) 0.2851(2)
H5 H 1.0213 0.0566 0.2645
C9 C 1.6092(3) 0.0171(3) 0.6355(2)
H6 H 1.7025 -0.0203 0.6445
C10 C 1.6523(2) 0.2447(2) 0.58756(18)
C11 C 1.1232(3) 0.2004(3) 0.2123(2)
C12 C 1.0733(3) 0.3319(3) 0.3510(2)
H7 H 1.0836 0.4048 0.3722
C13 C 0.6880(6) 0.3485(8) 0.9139(4)
H8 H 0.5910 0.3633 0.9466
C14 C 1.1821(7) 0.0687(6) 0.0649(4)
H9 H 1.1203 0.0197 0.1079
C15 C 1.1389(3) 0.3064(3) 0.2478(2)
H10 H 1.1939 0.3599 0.2016
C16 C 0.6399(8) 0.4360(5) 1.2881(4)
H11 H 0.6093 0.4568 1.3577
C17 C 0.7758(5) 0.3524(3) 0.9689(3)
C18 C 1.1981(4) 0.1668(4) 0.1018(3)
C19 C 0.7259(6) 0.3800(4) 1.0824(3)
C20 C 0.7623(7) 0.4455(9) 1.2266(5)
H12 H 0.8212 0.4736 1.2535
C21 C 0.7358(5) 0.3232(7) 0.8095(4)
H13 H 0.6685 0.3194 0.7759
C22 C 0.5604(11) 0.3943(6) 1.2454(5)
H14 H 0.4733 0.3827 1.2877
C23 C 0.9521(4) 0.3102(6) 0.8081(3)
H15 H 1.0482 0.2981 0.7731
C24 C 0.9125(5) 0.3330(6) 0.9133(4)
H16 H 0.9813 0.3349 0.9461
N3 N 1.2741(5) 0.2467(5) 0.0395(3)
C25 C 0.6025(8) 0.3679(6) 1.1415(4)
H17 H 0.5432 0.3415 1.1136
C26 C 1.3454(7) 0.2143(8) -0.0610(4)
H18 H 1.4009 0.2685 -0.1055
C27 C 1.3415(7) 0.1123(7) -0.0994(4)
H19 H 1.3957 0.0926 -0.1671
N4 N 0.8095(5) 0.4158(7) 1.1225(4)
C28 C 1.2565(9) 0.0385(7) -0.0371(5)
H20 H 1.2475 -0.0324 -0.0619
O5 O 0.7938(2) 0.47166(19) 0.55735(17)
H21 H 0.816(4) 0.531(4) 0.517(3)
H22 H 0.723(4) 0.448(4) 0.548(3)
Ni1_2 Ni 1.92690(3) 0.28071(3) 0.58761(2)
O4_2 O 0.77282(17) 0.19099(17) 0.61201(14)
loop_
_geom_bond_atom_site_label_1
_geom_bond_atom_site_label_2
_geom_bond_site_symmetry_1
_geom_bond_site_symmetry_2
Ni1 O1 1_555 1_555
O1 C1 1_555 1_555
O2 C10 1_555 1_555
C1 O3 1_555 1_555
O3 Ni1 1_555 1_555
N1 Ni1 1_555 1_555
C2 C3 1_555 1_555
O4 C10 1_555 1_555
C3 H1 1_555 1_555
N2 Ni1 1_555 1_555
C4 C1 1_555 1_555
C5 H2 1_555 1_555
C6 C4 1_555 1_555
H3 C6 1_555 1_555
C7 N1 1_555 1_555
H4 C7 1_555 1_555
C8 C7 1_555 1_555
H5 C8 1_555 1_555
C9 C2 1_555 1_555
H6 C9 1_555 1_555
C10 C2 1_555 1_555
C11 C8 1_555 1_555
C12 N1 1_555 1_555
H7 C12 1_555 1_555
C13 H8 1_555 1_555
C14 H9 1_555 1_555
C15 C11 1_555 1_555
H10 C15 1_555 1_555
C16 H11 1_555 1_555
C17 C13 1_555 1_555
C18 C11 1_555 1_555
C19 C17 1_555 1_555
C20 C16 1_555 1_555
H12 C20 1_555 1_555
C21 N2 1_555 1_555
H13 C21 1_555 1_555
C22 C16 1_555 1_555
H14 C22 1_555 1_555
C23 N2 1_555 1_555
H15 C23 1_555 1_555
C24 C17 1_555 1_555
H16 C24 1_555 1_555
N3 C18 1_555 1_555
C25 C19 1_555 1_555
H17 C25 1_555 1_555
C26 N3 1_555 1_555
H18 C26 1_555 1_555
C27 C26 1_555 1_555
H19 C27 1_555 1_555
N4 C19 1_555 1_555
C28 C14 1_555 1_555
H20 C28 1_555 1_555
O5 Ni1 1_555 1_555
H21 O5 1_555 1_555
H22 O5 1_555 1_555
Ni1_2 O4 1_555 1_555
O4_2 Ni1 1_555 1_555
C3 C4 1_555 1_555
C5 C6 1_555 1_555
C5 C9 1_555 1_555
C12 C15 1_555 1_555
C13 C21 1_555 1_555
C14 C18 1_555 1_555
C20 N4 1_555 1_555
C22 C25 1_555 1_555
C23 C24 1_555 1_555
C27 C28 1_555 1_555

#END
