
#######################################################################
#
#                 Cambridge Crystallographic Data Centre
#                                CCDC 
#
#######################################################################
#
# If this CIF has been generated from an entry in the Cambridge 
# Structural Database, then it will include bibliographic, chemical, 
# crystal, experimental, refinement or atomic coordinate data resulting 
# from the CCDC's data processing and validation procedures.
#
#######################################################################

data_ROZSEF
_symmetry_cell_setting           orthorhombic
_symmetry_space_group_name_H-M   'A b a 2'
_symmetry_Int_Tables_number      41
_space_group_name_Hall           'A 2 -2ab'
loop_
_symmetry_equiv_pos_site_id
_symmetry_equiv_pos_as_xyz
1 x,y,z
2 -x,-y,z
3 1/2-x,1/2+y,z
4 1/2+x,1/2-y,z
5 x,1/2+y,1/2+z
6 -x,1/2-y,1/2+z
7 1/2-x,y,1/2+z
8 1/2+x,-y,1/2+z
_cell_length_a                   24.2159(17)
_cell_length_b                   13.3309(9)
_cell_length_c                   18.1912(12)
_cell_angle_alpha                90
_cell_angle_beta                 90
_cell_angle_gamma                90
_cell_volume                     5872.48
loop_
_atom_site_label
_atom_site_type_symbol
_atom_site_fract_x
_atom_site_fract_y
_atom_site_fract_z
O2 O 0.86611(14) 1.0721(2) 0.5096(3)
H3 H 0.8374 1.0824 0.4837
H4 H 0.8866 1.1220 0.5140
O3 O 0.82029(18) 0.8261(3) 0.6650(3)
H5 H 0.8149 0.8974 0.6537
H6 H 0.8554 0.8172 0.6491
O4 O 0.81000(17) 1.0334(3) 0.6453(3)
H7 H 0.8272 1.0526 0.5984
H8 H 0.7715 1.0236 0.6489
O5 O 0.7629(2) 1.1944(4) 0.7107(3)
H9 H 0.7572 1.2044 0.7606
H10 H 0.7388 1.2391 0.6930
N11 N 0.7665(2) 1.1752(4) 0.3989(4)
O11 O 0.72727(17) 1.2125(4) 0.3658(3)
O12 O 0.7666(3) 1.1739(4) 0.4684(4)
O13 O 0.8055(3) 1.1379(6) 0.3664(5)
O1 O 1.10950(14) 0.1257(3) 0.5187(3)
H1 H 1.1164 0.0581 0.5111
H2 H 1.1360 0.1611 0.5196
C1 C 1.01360(19) 0.3606(4) 0.3393(3)
C2 C 1.11176(19) 0.4035(4) 0.3295(3)
H11 H 1.1333 0.4255 0.2875
H12 H 1.1166 0.3316 0.3341
C3 C 1.13529(19) 0.4020(4) 0.4602(3)
C4 C 1.15864(19) 0.5508(4) 0.3984(3)
C5 C 1.1787(2) 0.5575(4) 0.4816(3)
C6 C 1.10984(18) 0.6792(4) 0.4601(3)
C7 C 1.1726(2) 0.4228(4) 0.5844(3)
H13 H 1.1759 0.3504 0.5824
H14 H 1.2079 0.4494 0.6005
C8 C 1.1486(2) 0.6808(4) 0.5848(3)
H15 H 1.1381 0.7510 0.5832
H16 H 1.1867 0.6774 0.6010
C9 C 1.0899(2) 0.3831(4) 0.6573(3)
C10 C 1.0628(2) 0.6650(4) 0.6569(3)
C11 C 1.1299(2) 0.5409(4) 0.6814(3)
C12 C 1.07849(19) 0.5249(4) 0.7334(3)
C13 C 1.01220(19) 0.3709(4) 0.7432(3)
H17 H 1.0189 0.2995 0.7381
H18 H 1.0105 0.3857 0.7954
C14 C 1.2031(2) 0.5639(4) 0.3405(3)
H19 H 1.2186 0.6300 0.3443
H20 H 1.1872 0.5551 0.2926
H21 H 1.2316 0.5149 0.3480
C15 C 1.24034(19) 0.5764(4) 0.4925(3)
H22 H 1.2499 0.6409 0.4728
H23 H 1.2611 0.5253 0.4676
H24 H 1.2489 0.5748 0.5440
C16 C 1.0868(2) 0.6612(4) 0.3300(3)
H25 H 1.1108 0.6544 0.2875
H26 H 1.0772 0.7316 0.3344
C17 C 1.0899(3) 0.5290(4) 0.8155(3)
H27 H 1.1144 0.4754 0.8288
H28 H 1.0558 0.5219 0.8420
H29 H 1.1066 0.5921 0.8277
C18 C 1.1845(2) 0.5573(4) 0.7214(3)
H30 H 1.1939 0.4981 0.7487
H31 H 1.1810 0.6130 0.7545
H32 H 1.2130 0.5712 0.6862
C19 C 1.03223(18) 0.5104(4) 0.2750(3)
C20 C 1.0585(2) 0.5197(5) 0.1992(3)
H33 H 1.0437 0.5773 0.1745
H34 H 1.0507 0.4605 0.1711
H35 H 1.0978 0.5272 0.2044
N1 N 1.05371(18) 0.4240(4) 0.3149(3)
N2 N 1.13353(18) 0.4516(3) 0.3953(3)
N3 N 1.16110(14) 0.4603(3) 0.5106(3)
N4 N 1.13081(18) 0.4488(4) 0.6386(3)
N5 N 1.05890(19) 0.4251(4) 0.7115(3)
N6 N 1.11746(17) 0.6317(4) 0.3951(3)
N7 N 1.14507(14) 0.6399(2) 0.5111(3)
N8 N 1.11380(18) 0.6292(4) 0.6386(3)
N9 N 1.04125(19) 0.6056(4) 0.7105(3)
N10 N 0.96374(19) 0.3958(4) 0.3163(3)
O6 O 1.02148(13) 0.2828(3) 0.3739(2)
O7 O 1.11706(14) 0.3172(3) 0.4716(2)
O8 O 1.08335(14) 0.2988(3) 0.6317(2)
O9 O 1.04128(15) 0.7412(3) 0.6312(2)
O10 O 1.07722(14) 0.7484(2) 0.4709(2)
Sr1 Sr 1.024436(15) 0.24097(3) 0.51336(4)
N12 N 1.0000 0.0000 0.4808(4)
O14 O 0.9953(2) 0.0792(4) 0.4448(4)
O15 O 0.9977(5) 0.0386(7) 0.5472(5)
N13 N 1.0000 0.5000 0.5146(4)
O16 O 1.0060(4) 0.4207(4) 0.5450(4)
O17 O 1.0262(5) 0.5115(11) 0.4573(7)
O1A O 0.89050(14) 0.8743(3) 0.5187(3)
H1A H 0.8836 0.9419 0.5111
H2A H 0.8640 0.8389 0.5196
C1A C 0.98640(19) 0.6394(4) 0.3393(3)
C2A C 0.88824(19) 0.5965(4) 0.3295(3)
H11A H 0.8667 0.5745 0.2875
H12A H 0.8834 0.6684 0.3341
C3A C 0.86471(19) 0.5980(4) 0.4602(3)
C4A C 0.84136(19) 0.4492(4) 0.3984(3)
C5A C 0.8213(2) 0.4425(4) 0.4816(3)
C6A C 0.89016(18) 0.3208(4) 0.4601(3)
C7A C 0.8274(2) 0.5772(4) 0.5844(3)
H13A H 0.8241 0.6496 0.5824
H14A H 0.7921 0.5506 0.6005
C8A C 0.8514(2) 0.3192(4) 0.5848(3)
H15A H 0.8619 0.2490 0.5832
H16A H 0.8133 0.3226 0.6010
C9A C 0.9101(2) 0.6169(4) 0.6573(3)
C10A C 0.9372(2) 0.3350(4) 0.6569(3)
C11A C 0.8701(2) 0.4591(4) 0.6814(3)
C12A C 0.92151(19) 0.4751(4) 0.7334(3)
C13A C 0.98780(19) 0.6291(4) 0.7432(3)
H17A H 0.9811 0.7005 0.7381
H18A H 0.9895 0.6143 0.7954
C14A C 0.7969(2) 0.4361(4) 0.3405(3)
H19A H 0.7814 0.3700 0.3443
H20A H 0.8128 0.4449 0.2926
H21A H 0.7684 0.4851 0.3480
C15A C 0.75966(19) 0.4236(4) 0.4925(3)
H22A H 0.7501 0.3591 0.4728
H23A H 0.7389 0.4747 0.4676
H24A H 0.7511 0.4252 0.5440
C16A C 0.9132(2) 0.3388(4) 0.3300(3)
H25A H 0.8892 0.3456 0.2875
H26A H 0.9228 0.2684 0.3344
C17A C 0.9101(3) 0.4710(4) 0.8155(3)
H27A H 0.8856 0.5246 0.8288
H28A H 0.9442 0.4781 0.8420
H29A H 0.8934 0.4079 0.8277
C18A C 0.8155(2) 0.4427(4) 0.7214(3)
H30A H 0.8061 0.5019 0.7487
H31A H 0.8190 0.3870 0.7545
H32A H 0.7870 0.4288 0.6862
C19A C 0.96777(18) 0.4896(4) 0.2750(3)
C20A C 0.9415(2) 0.4803(5) 0.1992(3)
H33A H 0.9563 0.4227 0.1745
H34A H 0.9493 0.5395 0.1711
H35A H 0.9022 0.4728 0.2044
N1A N 0.94629(18) 0.5760(4) 0.3149(3)
N2A N 0.86647(18) 0.5484(3) 0.3953(3)
N3A N 0.83890(14) 0.5397(3) 0.5106(3)
N4A N 0.86919(18) 0.5512(4) 0.6386(3)
N5A N 0.94110(19) 0.5749(4) 0.7115(3)
N6A N 0.88254(17) 0.3683(4) 0.3951(3)
N7A N 0.85493(14) 0.3601(2) 0.5111(3)
N8A N 0.88620(18) 0.3708(4) 0.6386(3)
N9A N 0.95875(19) 0.3944(4) 0.7105(3)
N10A N 1.03626(19) 0.6042(4) 0.3163(3)
O6A O 0.97852(13) 0.7172(3) 0.3739(2)
O7A O 0.88294(14) 0.6828(3) 0.4716(2)
O8A O 0.91665(14) 0.7012(3) 0.6317(2)
O9A O 0.95872(15) 0.2588(3) 0.6312(2)
O10A O 0.92278(14) 0.2516(2) 0.4709(2)
Sr1A Sr 0.975564(15) 0.75903(3) 0.51336(4)
Sr1A_2 Sr 0.975564(15) -0.24097(3) 0.51336(4)
O14A O 1.0047(2) -0.0792(4) 0.4448(4)
O14A_2 O 1.0047(2) 0.9208(4) 0.4448(4)
O15A O 1.0023(5) -0.0386(7) 0.5472(5)
O15A_2 O 1.0023(5) 0.9614(7) 0.5472(5)
O16A O 0.9940(4) 0.5793(4) 0.5450(4)
O17A O 0.9738(5) 0.4885(11) 0.4573(7)
loop_
_geom_bond_atom_site_label_1
_geom_bond_atom_site_label_2
_geom_bond_site_symmetry_1
_geom_bond_site_symmetry_2
O1 H1 1_555 1_555
H2 O1 1_555 1_555
O2 H3 1_555 1_555
H4 O2 1_555 1_555
O3 H5 1_555 1_555
H6 O3 1_555 1_555
O4 H7 1_555 1_555
H8 O4 1_555 1_555
O5 H9 1_555 1_555
H10 O5 1_555 1_555
C1 N1 1_555 1_555
C2 H11 1_555 1_555
H12 C2 1_555 1_555
C3 N2 1_555 1_555
C4 C5 1_555 1_555
C5 C15 1_555 1_555
C6 N6 1_555 1_555
C7 H13 1_555 1_555
H14 C7 1_555 1_555
C8 H15 1_555 1_555
H16 C8 1_555 1_555
C9 N4 1_555 1_555
C10 N8 1_555 1_555
C11 C12 1_555 1_555
C12 C17 1_555 1_555
C13 H17 1_555 1_555
H18 C13 1_555 1_555
C14 C4 1_555 1_555
H19 C14 1_555 1_555
H20 C14 1_555 1_555
H21 C14 1_555 1_555
C15 H22 1_555 1_555
H23 C15 1_555 1_555
H24 C15 1_555 1_555
C16 H25 1_555 1_555
H26 C16 1_555 1_555
C17 H27 1_555 1_555
H28 C17 1_555 1_555
H29 C17 1_555 1_555
C18 C11 1_555 1_555
H30 C18 1_555 1_555
H31 C18 1_555 1_555
H32 C18 1_555 1_555
C19 C20 1_555 1_555
C20 H33 1_555 1_555
H34 C20 1_555 1_555
H35 C20 1_555 1_555
N1 C2 1_555 1_555
N2 C2 1_555 1_555
N3 C3 1_555 1_555
N4 C7 1_555 1_555
N5 C9 1_555 1_555
N6 C4 1_555 1_555
N7 C5 1_555 1_555
N8 C8 1_555 1_555
N9 C10 1_555 1_555
N10 C1 1_555 1_555
O6 C1 1_555 1_555
O7 C3 1_555 1_555
O8 C9 1_555 1_555
O9 C10 1_555 1_555
O10 C6 1_555 1_555
Sr1 O1 1_555 1_555
N11 O11 1_555 1_555
O12 N11 1_555 1_555
O13 N11 1_555 1_555
N12 O14 1_555 1_555
O14 Sr1 1_555 1_555
O15 Sr1 1_555 1_555
N13 O16 1_555 1_555
O16 Sr1 1_555 1_555
O17 N13 1_555 1_555
O1A H1A 1_555 1_555
H2A O1A 1_555 1_555
C1A N1A 1_555 1_555
C2A H11A 1_555 1_555
H12A C2A 1_555 1_555
C3A N2A 1_555 1_555
C4A C5A 1_555 1_555
C5A C15A 1_555 1_555
C6A N6A 1_555 1_555
C7A H13A 1_555 1_555
H14A C7A 1_555 1_555
C8A H15A 1_555 1_555
H16A C8A 1_555 1_555
C9A N4A 1_555 1_555
C10A N8A 1_555 1_555
C11A C12A 1_555 1_555
C12A C17A 1_555 1_555
C13A N9 1_555 1_555
H17A C13A 1_555 1_555
H18A C13A 1_555 1_555
C14A C4A 1_555 1_555
H19A C14A 1_555 1_555
H20A C14A 1_555 1_555
H21A C14A 1_555 1_555
C15A H22A 1_555 1_555
H23A C15A 1_555 1_555
H24A C15A 1_555 1_555
C16A N10 1_555 1_555
H25A C16A 1_555 1_555
H26A C16A 1_555 1_555
C17A H27A 1_555 1_555
H28A C17A 1_555 1_555
H29A C17A 1_555 1_555
C18A C11A 1_555 1_555
H30A C18A 1_555 1_555
H31A C18A 1_555 1_555
H32A C18A 1_555 1_555
C19A C19 1_555 1_555
C20A C19A 1_555 1_555
H33A C20A 1_555 1_555
H34A C20A 1_555 1_555
H35A C20A 1_555 1_555
N1A C2A 1_555 1_555
N2A C2A 1_555 1_555
N3A C3A 1_555 1_555
N4A C7A 1_555 1_555
N5A C9A 1_555 1_555
N6A C4A 1_555 1_555
N7A C5A 1_555 1_555
N8A C8A 1_555 1_555
N9A C13 1_555 1_555
N10A C16 1_555 1_555
O6A C1A 1_555 1_555
O7A C3A 1_555 1_555
O8A C9A 1_555 1_555
O9A Sr1 1_555 1_555
O10A Sr1 1_555 1_555
Sr1A O9 1_555 1_555
Sr1A_2 O14A 1_555 1_555
O14A N12 1_555 1_555
O14A_2 Sr1A 1_555 1_555
O15A N12 1_555 1_555
O15A_2 Sr1A 1_555 1_555
O16A N13 1_555 1_555
O17A N13 1_555 1_555
C4 N2 1_555 1_555
C5 N3 1_555 1_555
C6 N7 1_555 1_555
C7 N3 1_555 1_555
C8 N7 1_555 1_555
C11 N4 1_555 1_555
C11 N8 1_555 1_555
C12 N5 1_555 1_555
C12 N9 1_555 1_555
C13 N5 1_555 1_555
C16 N6 1_555 1_555
C19 N1 1_555 1_555
C19 N10A 1_555 1_555
N10 C19A 1_555 1_555
O6 Sr1 1_555 1_555
O7 Sr1 1_555 1_555
O8 Sr1 1_555 1_555
O10 Sr1A 1_555 1_555
N12 O15 1_555 1_555
O15 O15A 1_555 1_555
O17 O17A 1_555 1_555
O1A Sr1A 1_555 1_555
C1A N10A 1_555 1_555
C4A N2A 1_555 1_555
C5A N3A 1_555 1_555
C6A N7A 1_555 1_555
C6A O10A 1_555 1_555
C7A N3A 1_555 1_555
C8A N7A 1_555 1_555
C10A N9A 1_555 1_555
C10A O9A 1_555 1_555
C11A N4A 1_555 1_555
C11A N8A 1_555 1_555
C12A N5A 1_555 1_555
C12A N9A 1_555 1_555
C13A N5A 1_555 1_555
C16A N6A 1_555 1_555
C19A N1A 1_555 1_555
O6A Sr1A 1_555 1_555
O7A Sr1A 1_555 1_555
O8A Sr1A 1_555 1_555
Sr1A O16A 1_555 1_555
Sr1A_2 O15A 1_555 1_555

#END
