
#######################################################################
#
#                 Cambridge Crystallographic Data Centre
#                                CCDC 
#
#######################################################################
#
# If this CIF has been generated from an entry in the Cambridge 
# Structural Database, then it will include bibliographic, chemical, 
# crystal, experimental, refinement or atomic coordinate data resulting 
# from the CCDC's data processing and validation procedures.
#
#######################################################################

data_ROZVUY
_symmetry_cell_setting           monoclinic
_symmetry_space_group_name_H-M   'P 21/n'
_symmetry_Int_Tables_number      14
_space_group_name_Hall           '-P 2yn'
loop_
_symmetry_equiv_pos_site_id
_symmetry_equiv_pos_as_xyz
1 x,y,z
2 1/2-x,1/2+y,1/2-z
3 -x,-y,-z
4 1/2+x,1/2-y,1/2+z
_cell_length_a                   9.0352(13)
_cell_length_b                   21.956(3)
_cell_length_c                   14.400(2)
_cell_angle_alpha                90
_cell_angle_beta                 95.343(2)
_cell_angle_gamma                90
_cell_volume                     2844.21
loop_
_atom_site_label
_atom_site_type_symbol
_atom_site_fract_x
_atom_site_fract_y
_atom_site_fract_z
Cd1 Cd 0.0000 0.0000 0.5000
O1 O 0.0414(3) 0.07641(11) 0.39552(16)
H1 H 0.068(5) 0.0657(18) 0.344(2)
H2 H 0.011(5) 0.1111(15) 0.394(3)
N1 N 0.1978(4) 0.25503(19) 0.9563(4)
N2 N -0.3084(3) 0.23110(11) 0.88825(18)
N3 N -0.3674(3) 0.12363(11) 0.77623(17)
N4 N -0.2350(3) 0.04205(12) 0.52201(17)
N5 N 0.0859(3) 0.06318(11) 0.62648(16)
N6 N 0.0842(3) 0.01314(11) 0.92137(16)
C1 C 0.2238(7) 0.2188(3) 1.0317(5)
H3 H 0.3213 0.2072 1.0496
C2 C 0.1153(8) 0.1985(2) 1.0825(5)
H4 H 0.1386 0.1728 1.1331
C3 C -0.0293(6) 0.21589(17) 1.0589(3)
H5 H -0.1046 0.2033 1.0944
C4 C -0.0613(4) 0.25304(15) 0.9805(3)
C5 C 0.0558(4) 0.27089(18) 0.9319(3)
H6 H 0.0355 0.2952 0.8794
C6 C -0.2179(4) 0.27298(15) 0.9505(2)
H7 H -0.2690 0.2794 1.0061
H8 H -0.2135 0.3120 0.9193
C7 C -0.3275(4) 0.17129(14) 0.9311(2)
H9 H -0.3710 0.1764 0.9897
H10 H -0.2312 0.1520 0.9442
C8 C -0.4268(3) 0.13112(14) 0.8670(2)
H11 H -0.4357 0.0915 0.8957
H12 H -0.5252 0.1490 0.8579
C9 C -0.3530(4) 0.18359(14) 0.7346(2)
H13 H -0.4499 0.2028 0.7251
H14 H -0.3143 0.1794 0.6743
C10 C -0.2489(3) 0.22331(14) 0.7977(2)
H15 H -0.1515 0.2045 0.8066
H16 H -0.2382 0.2628 0.7688
C11 C -0.4686(3) 0.08460(16) 0.7170(2)
H17 H -0.5668 0.1029 0.7115
H18 H -0.4759 0.0454 0.7473
C12 C -0.4211(3) 0.07456(14) 0.6204(2)
C13 C -0.2816(3) 0.05169(14) 0.6070(2)
H19 H -0.2170 0.0425 0.6592
C14 C -0.3300(3) 0.05470(14) 0.4473(2)
H20 H -0.2986 0.0487 0.3883
C15 C -0.4714(4) 0.07617(14) 0.4539(2)
H21 H -0.5351 0.0837 0.4006
C16 C -0.5170(3) 0.08632(14) 0.5417(2)
H22 H -0.6121 0.1010 0.5479
C17 C 0.0689(3) 0.12416(13) 0.6184(2)
H23 H 0.0379 0.1405 0.5603
C18 C 0.0957(3) 0.16300(14) 0.6933(2)
H24 H 0.0843 0.2048 0.6854
C19 C 0.1400(3) 0.13899(14) 0.7806(2)
H25 H 0.1579 0.1646 0.8319
C20 C 0.1572(3) 0.07638(13) 0.79076(19)
C21 C 0.1294(3) 0.04076(13) 0.71123(18)
H26 H 0.1418 -0.0012 0.7172
C22 C 0.2067(3) 0.04628(15) 0.88256(19)
H27 H 0.2867 0.0180 0.8737
H28 H 0.2449 0.0771 0.9268
C23 C -0.0242(3) 0.05629(14) 0.9533(2)
H29 H -0.0679 0.0798 0.9007
H30 H 0.0259 0.0843 0.9978
C24 C 0.1464(3) -0.02322(16) 1.0012(2)
H31 H 0.2000 0.0032 1.0466
H32 H 0.2161 -0.0527 0.9804
Cd1_2 Cd 0.0000 0.0000 1.5000
O1B O -0.0414(3) -0.07641(11) 0.60448(16)
H1B H -0.068(5) -0.0657(18) 0.656(2)
H2B H -0.011(5) -0.1111(15) 0.606(3)
N1B N -0.1978(4) -0.25503(19) 0.0437(4)
N2B N 0.3084(3) -0.23110(11) 0.11175(18)
N3B N 0.3674(3) -0.12363(11) 0.22377(17)
N4B N 0.2350(3) -0.04205(12) 0.47799(17)
N5B N -0.0859(3) -0.06318(11) 1.37352(16)
N5B_2 N -0.0859(3) -0.06318(11) 0.37352(16)
N6B N -0.0842(3) -0.01314(11) 1.07863(16)
C1B C -0.2238(7) -0.2188(3) -0.0317(5)
H3B H -0.3213 -0.2072 -0.0496
C2B C -0.1153(8) -0.1985(2) -0.0825(5)
H4B H -0.1386 -0.1728 -0.1331
C3B C 0.0293(6) -0.21589(17) -0.0589(3)
H5B H 0.1046 -0.2033 -0.0944
C4B C 0.0613(4) -0.25304(15) 0.0195(3)
C5B C -0.0558(4) -0.27089(18) 0.0681(3)
H6B H -0.0355 -0.2952 0.1206
C6B C 0.2179(4) -0.27298(15) 0.0495(2)
H7B H 0.2690 -0.2794 -0.0061
H8B H 0.2135 -0.3120 0.0807
C7B C 0.3275(4) -0.17129(14) 0.0689(2)
H9B H 0.3710 -0.1764 0.0103
H10B H 0.2312 -0.1520 0.0558
C8B C 0.4268(3) -0.13112(14) 0.1330(2)
H11B H 0.4357 -0.0915 0.1043
H12B H 0.5252 -0.1490 0.1421
C9B C 0.3530(4) -0.18359(14) 0.2654(2)
H13B H 0.4499 -0.2028 0.2749
H14B H 0.3143 -0.1794 0.3257
C10B C 0.2489(3) -0.22331(14) 0.2023(2)
H15B H 0.1515 -0.2045 0.1934
H16B H 0.2382 -0.2628 0.2312
C11B C 0.4686(3) -0.08460(16) 0.2830(2)
H17B H 0.5668 -0.1029 0.2885
H18B H 0.4759 -0.0454 0.2527
C12B C 0.4211(3) -0.07456(14) 0.3796(2)
C13B C 0.2816(3) -0.05169(14) 0.3930(2)
H19B H 0.2170 -0.0425 0.3408
C14B C 0.3300(3) -0.05470(14) 0.5527(2)
H20B H 0.2986 -0.0487 0.6117
C15B C 0.4714(4) -0.07617(14) 0.5461(2)
H21B H 0.5351 -0.0837 0.5994
C16B C 0.5170(3) -0.08632(14) 0.4583(2)
H22B H 0.6121 -0.1010 0.4521
C17B C -0.0689(3) -0.12416(13) 1.3816(2)
H23B H -0.0379 -0.1405 1.4397
C18B C -0.0957(3) -0.16300(14) 1.3067(2)
H24B H -0.0843 -0.2048 1.3146
C19B C -0.1400(3) -0.13899(14) 1.2194(2)
H25B H -0.1579 -0.1646 1.1681
C20B C -0.1572(3) -0.07638(13) 1.20924(19)
C21B C -0.1294(3) -0.04076(13) 1.28877(18)
H26B H -0.1418 0.0012 1.2828
C22B C -0.2067(3) -0.04628(15) 1.11744(19)
H27B H -0.2867 -0.0180 1.1263
H28B H -0.2449 -0.0771 1.0732
C23B C 0.0242(3) -0.05629(14) 1.0467(2)
H29B H 0.0679 -0.0798 1.0993
H30B H -0.0259 -0.0843 1.0022
C24B C -0.1464(3) 0.02322(16) 0.9988(2)
H31B H -0.2000 -0.0032 0.9534
H32B H -0.2161 0.0527 1.0196
O2 O 0.6241(4) 0.07618(18) 0.2196(3)
O3 O 0.4679(5) 0.0917(2) 0.0824(2)
O4 O 0.5592(7) 0.1731(2) 0.1649(4)
O5 O 0.3909(5) 0.1193(3) 0.2298(3)
Cl1 Cl 0.50574(12) 0.10874(6) 0.17497(6)
O6 O 0.1074(4) 0.04990(18) 0.2215(2)
H33 H 0.199(2) 0.055(3) 0.221(4)
H34 H 0.054(5) 0.036(3) 0.175(3)
O7 O -0.0563(4) 0.19142(15) 0.3897(3)
H35 H -0.054(7) 0.181(3) 0.333(2)
H36 H 0.010(5) 0.220(2) 0.395(4)
O8 O -0.2259(17) 0.2051(8) 1.2113(11)
loop_
_geom_bond_atom_site_label_1
_geom_bond_atom_site_label_2
_geom_bond_site_symmetry_1
_geom_bond_site_symmetry_2
Cd1 O1 1_555 1_555
O1 H1 1_555 1_555
H2 O1 1_555 1_555
N1 C1 1_555 1_555
N2 C6 1_555 1_555
N3 C8 1_555 1_555
N4 Cd1 1_555 1_555
N5 Cd1 1_555 1_555
N6 C22 1_555 1_555
C1 H3 1_555 1_555
C2 C1 1_555 1_555
H4 C2 1_555 1_555
C3 C2 1_555 1_555
H5 C3 1_555 1_555
C4 C3 1_555 1_555
C5 N1 1_555 1_555
H6 C5 1_555 1_555
C6 C4 1_555 1_555
H7 C6 1_555 1_555
H8 C6 1_555 1_555
C7 N2 1_555 1_555
H9 C7 1_555 1_555
H10 C7 1_555 1_555
C8 C7 1_555 1_555
H11 C8 1_555 1_555
H12 C8 1_555 1_555
C9 N3 1_555 1_555
H13 C9 1_555 1_555
H14 C9 1_555 1_555
C10 N2 1_555 1_555
H15 C10 1_555 1_555
H16 C10 1_555 1_555
C11 N3 1_555 1_555
H17 C11 1_555 1_555
H18 C11 1_555 1_555
C12 C11 1_555 1_555
C13 N4 1_555 1_555
H19 C13 1_555 1_555
C14 N4 1_555 1_555
H20 C14 1_555 1_555
C15 C14 1_555 1_555
H21 C15 1_555 1_555
C16 C12 1_555 1_555
H22 C16 1_555 1_555
C17 N5 1_555 1_555
H23 C17 1_555 1_555
C18 C17 1_555 1_555
H24 C18 1_555 1_555
C19 C18 1_555 1_555
H25 C19 1_555 1_555
C20 C19 1_555 1_555
C21 N5 1_555 1_555
H26 C21 1_555 1_555
C22 C20 1_555 1_555
H27 C22 1_555 1_555
H28 C22 1_555 1_555
C23 N6 1_555 1_555
H29 C23 1_555 1_555
H30 C23 1_555 1_555
C24 N6 1_555 1_555
H31 C24 1_555 1_555
H32 C24 1_555 1_555
O2 Cl1 1_555 1_555
O3 Cl1 1_555 1_555
O4 Cl1 1_555 1_555
O5 Cl1 1_555 1_555
O6 H33 1_555 1_555
H34 O6 1_555 1_555
O7 H35 1_555 1_555
H36 O7 1_555 1_555
Cd1_2 N5B 1_555 1_555
O1B Cd1 1_555 1_555
H1B O1B 1_555 1_555
H2B O1B 1_555 1_555
N1B C1B 1_555 1_555
N2B C6B 1_555 1_555
N3B C8B 1_555 1_555
N4B Cd1 1_555 1_555
N5B C17B 1_555 1_555
N5B_2 Cd1 1_555 1_555
N6B C22B 1_555 1_555
C1B H3B 1_555 1_555
C2B C1B 1_555 1_555
H4B C2B 1_555 1_555
C3B C2B 1_555 1_555
H5B C3B 1_555 1_555
C4B C3B 1_555 1_555
C5B N1B 1_555 1_555
H6B C5B 1_555 1_555
C6B C4B 1_555 1_555
H7B C6B 1_555 1_555
H8B C6B 1_555 1_555
C7B N2B 1_555 1_555
H9B C7B 1_555 1_555
H10B C7B 1_555 1_555
C8B C7B 1_555 1_555
H11B C8B 1_555 1_555
H12B C8B 1_555 1_555
C9B N3B 1_555 1_555
H13B C9B 1_555 1_555
H14B C9B 1_555 1_555
C10B N2B 1_555 1_555
H15B C10B 1_555 1_555
H16B C10B 1_555 1_555
C11B N3B 1_555 1_555
H17B C11B 1_555 1_555
H18B C11B 1_555 1_555
C12B C11B 1_555 1_555
C13B N4B 1_555 1_555
H19B C13B 1_555 1_555
C14B N4B 1_555 1_555
H20B C14B 1_555 1_555
C15B C14B 1_555 1_555
H21B C15B 1_555 1_555
C16B C12B 1_555 1_555
H22B C16B 1_555 1_555
C17B H23B 1_555 1_555
C18B C17B 1_555 1_555
H24B C18B 1_555 1_555
C19B C18B 1_555 1_555
H25B C19B 1_555 1_555
C20B C19B 1_555 1_555
C21B N5B 1_555 1_555
H26B C21B 1_555 1_555
C22B C20B 1_555 1_555
H27B C22B 1_555 1_555
H28B C22B 1_555 1_555
C23B C24 1_555 1_555
H29B C23B 1_555 1_555
H30B C23B 1_555 1_555
C24B C23 1_555 1_555
H31B C24B 1_555 1_555
H32B C24B 1_555 1_555
C4 C5 1_555 1_555
C9 C10 1_555 1_555
C12 C13 1_555 1_555
C15 C16 1_555 1_555
C20 C21 1_555 1_555
N6B C23B 1_555 1_555
N6B C24B 1_555 1_555
C4B C5B 1_555 1_555
C9B C10B 1_555 1_555
C12B C13B 1_555 1_555
C15B C16B 1_555 1_555
C20B C21B 1_555 1_555

#END
