
#######################################################################
#
#                 Cambridge Crystallographic Data Centre
#                                CCDC 
#
#######################################################################
#
# If this CIF has been generated from an entry in the Cambridge 
# Structural Database, then it will include bibliographic, chemical, 
# crystal, experimental, refinement or atomic coordinate data resulting 
# from the CCDC's data processing and validation procedures.
#
#######################################################################

data_ROZWEJ
_symmetry_cell_setting           triclinic
_symmetry_space_group_name_H-M   'P -1'
_symmetry_Int_Tables_number      2
_space_group_name_Hall           '-P 1'
loop_
_symmetry_equiv_pos_site_id
_symmetry_equiv_pos_as_xyz
1 x,y,z
2 -x,-y,-z
_cell_length_a                   6.4566(1)
_cell_length_b                   9.2901(2)
_cell_length_c                   11.1822(2)
_cell_angle_alpha                85.1880(10)
_cell_angle_beta                 87.7950(10)
_cell_angle_gamma                74.9190(10)
_cell_volume                     645.256
loop_
_atom_site_label
_atom_site_type_symbol
_atom_site_fract_x
_atom_site_fract_y
_atom_site_fract_z
Cd1 Cd -0.5000 0.5000 0.5000
Cd2 Cd -0.5000 0.5000 0.0000
S1 S -0.83492(9) 0.50691(6) 0.25921(5)
O1 O -0.3754(3) 0.6699(2) 0.39064(17)
H1 H -0.252(3) 0.656(3) 0.363(3)
H2 H -0.440(4) 0.760(2) 0.388(3)
O2 O -0.1850(3) 0.32459(19) 0.46901(16)
H3 H -0.104(4) 0.341(3) 0.4130(19)
H4 H -0.122(4) 0.324(3) 0.5336(18)
O3 O -0.3054(3) 0.3473(2) 0.15665(15)
H5 H -0.201(3) 0.372(3) 0.179(2)
H6 H -0.399(4) 0.366(3) 0.212(2)
O4 O -0.9640(3) 0.3967(2) 0.26819(15)
O5 O -0.9541(3) 0.6442(2) 0.31357(15)
O6 O -0.6308(3) 0.44108(19) 0.32346(14)
O7 O -0.7866(3) 0.54287(19) 0.13205(14)
N1 N -0.5975(3) 0.2938(2) -0.05600(18)
N2 N -0.4588(3) 0.0292(2) -0.37861(19)
C1 C -0.4794(4) 0.1997(3) -0.1318(2)
H7 H -0.3521 0.2209 -0.1651
C2 C -0.5321(4) 0.0725(3) -0.1647(2)
C3 C -0.7188(4) 0.0417(3) -0.1155(2)
H8 H -0.7576 -0.0460 -0.1331
C4 C -0.8487(4) 0.1423(3) -0.0393(2)
H9 H -0.9797 0.1261 -0.0071
C5 C -0.7827(4) 0.2642(3) -0.0125(2)
H10 H -0.8710 0.3317 0.0393
C6 C -0.3908(4) -0.0231(3) -0.2543(2)
H11 H -0.2403 -0.0198 -0.2453
H12 H -0.3977 -0.1282 -0.2378
C7 C -0.6537(4) -0.0175(3) -0.4086(2)
H13 H -0.7738 0.0260 -0.3540
H14 H -0.6247 -0.1278 -0.3976
C8 C -0.2849(4) -0.0349(3) -0.4628(2)
H15 H -0.2521 -0.1454 -0.4528
H16 H -0.1540 -0.0051 -0.4441
Cd2_2 Cd -0.5000 -0.5000 -1.0000
Cd2_3 Cd -0.5000 0.5000 1.0000
S1A S -0.16508(9) 0.49309(6) 0.74079(5)
O1A O -0.6246(3) 0.3301(2) 0.60936(17)
H1A H -0.748(3) 0.344(3) 0.637(3)
H2A H -0.560(4) 0.240(2) 0.612(3)
O2A O -0.8150(3) 0.67541(19) 0.53099(16)
H3A H -0.896(4) 0.659(3) 0.5870(19)
H4A H -0.878(4) 0.676(3) 0.4664(18)
O3A O -0.6946(3) 0.6527(2) -0.15665(15)
H5A H -0.799(3) 0.628(3) -0.179(2)
H6A H -0.601(4) 0.634(3) -0.212(2)
O4A O -0.0360(3) 0.6033(2) 0.73181(15)
O5A O -0.0459(3) 0.3558(2) 0.68643(15)
O6A O -0.3692(3) 0.55892(19) 0.67654(14)
O7A O -0.2134(3) 0.45713(19) 0.86795(14)
O7A_2 O -0.2134(3) 0.45713(19) -0.13205(14)
N1A N -0.4025(3) -0.2938(2) -0.94400(18)
N1A_2 N -0.4025(3) 0.7062(2) 0.05600(18)
N2A N -0.5412(3) -0.0292(2) -0.62139(19)
C1A C -0.5206(4) -0.1997(3) -0.8682(2)
H7A H -0.6479 -0.2209 -0.8349
C2A C -0.4679(4) -0.0725(3) -0.8353(2)
C3A C -0.2812(4) -0.0417(3) -0.8845(2)
H8A H -0.2424 0.0460 -0.8669
C4A C -0.1513(4) -0.1423(3) -0.9607(2)
H9A H -0.0203 -0.1261 -0.9929
C5A C -0.2173(4) -0.2642(3) -0.9875(2)
H10A H -0.1290 -0.3317 -1.0393
C6A C -0.6092(4) 0.0231(3) -0.7457(2)
H11A H -0.7597 0.0198 -0.7547
H12A H -0.6023 0.1282 -0.7622
C7A C -0.3463(4) 0.0175(3) -0.5914(2)
H13A H -0.2262 -0.0260 -0.6460
H14A H -0.3753 0.1278 -0.6024
C8A C -0.7151(4) 0.0349(3) -0.5372(2)
H15A H -0.7479 0.1454 -0.5472
H16A H -0.8460 0.0051 -0.5559
loop_
_geom_bond_atom_site_label_1
_geom_bond_atom_site_label_2
_geom_bond_site_symmetry_1
_geom_bond_site_symmetry_2
Cd1 O1 1_555 1_555
Cd2 O3 1_555 1_555
S1 O4 1_555 1_555
O1 H1 1_555 1_555
H2 O1 1_555 1_555
O2 Cd1 1_555 1_555
H3 O2 1_555 1_555
H4 O2 1_555 1_555
O3 H5 1_555 1_555
H6 O3 1_555 1_555
O5 S1 1_555 1_555
O6 Cd1 1_555 1_555
O7 Cd2 1_555 1_555
N1 Cd2 1_555 1_555
N2 C6 1_555 1_555
C1 N1 1_555 1_555
H7 C1 1_555 1_555
C2 C1 1_555 1_555
C3 C2 1_555 1_555
H8 C3 1_555 1_555
C4 C3 1_555 1_555
H9 C4 1_555 1_555
C5 N1 1_555 1_555
H10 C5 1_555 1_555
C6 C2 1_555 1_555
H11 C6 1_555 1_555
H12 C6 1_555 1_555
C7 N2 1_555 1_555
H13 C7 1_555 1_555
H14 C7 1_555 1_555
C8 N2 1_555 1_555
H15 C8 1_555 1_555
H16 C8 1_555 1_555
Cd2_2 N1A 1_555 1_555
Cd2_3 O7A 1_555 1_555
S1A O4A 1_555 1_555
O1A Cd1 1_555 1_555
H1A O1A 1_555 1_555
H2A O1A 1_555 1_555
O2A Cd1 1_555 1_555
H3A O2A 1_555 1_555
H4A O2A 1_555 1_555
O3A Cd2 1_555 1_555
H5A O3A 1_555 1_555
H6A O3A 1_555 1_555
O5A S1A 1_555 1_555
O6A Cd1 1_555 1_555
O7A S1A 1_555 1_555
O7A_2 Cd2 1_555 1_555
N1A C1A 1_555 1_555
N1A_2 Cd2 1_555 1_555
N2A C6A 1_555 1_555
C1A H7A 1_555 1_555
C2A C1A 1_555 1_555
C3A C2A 1_555 1_555
H8A C3A 1_555 1_555
C4A C3A 1_555 1_555
H9A C4A 1_555 1_555
C5A N1A 1_555 1_555
H10A C5A 1_555 1_555
C6A C2A 1_555 1_555
H11A C6A 1_555 1_555
H12A C6A 1_555 1_555
C7A C8 1_555 1_555
H13A C7A 1_555 1_555
H14A C7A 1_555 1_555
C8A C7 1_555 1_555
H15A C8A 1_555 1_555
H16A C8A 1_555 1_555
S1 O6 1_555 1_555
S1 O7 1_555 1_555
C4 C5 1_555 1_555
S1A O6A 1_555 1_555
N2A C7A 1_555 1_555
N2A C8A 1_555 1_555
C4A C5A 1_555 1_555

#END
