
#######################################################################
#
#                 Cambridge Crystallographic Data Centre
#                                CCDC 
#
#######################################################################
#
# If this CIF has been generated from an entry in the Cambridge 
# Structural Database, then it will include bibliographic, chemical, 
# crystal, experimental, refinement or atomic coordinate data resulting 
# from the CCDC's data processing and validation procedures.
#
#######################################################################

data_RUBGIF
_symmetry_cell_setting           orthorhombic
_symmetry_space_group_name_H-M   'C m c m'
_symmetry_Int_Tables_number      63
_space_group_name_Hall           '-C 2n 2'
loop_
_symmetry_equiv_pos_site_id
_symmetry_equiv_pos_as_xyz
1 x,y,z
2 -x,-y,1/2+z
3 -x,y,1/2-z
4 x,-y,-z
5 1/2+x,1/2+y,z
6 1/2-x,1/2-y,1/2+z
7 1/2-x,1/2+y,1/2-z
8 1/2+x,1/2-y,-z
9 -x,-y,-z
10 x,y,1/2-z
11 x,-y,1/2+z
12 -x,y,z
13 1/2-x,1/2-y,-z
14 1/2+x,1/2+y,1/2-z
15 1/2+x,1/2-y,1/2+z
16 1/2-x,1/2+y,z
_cell_length_a                   12.6764(16)
_cell_length_b                   13.6424(18)
_cell_length_c                   21.897(3)
_cell_angle_alpha                90
_cell_angle_beta                 90
_cell_angle_gamma                90
_cell_volume                     3786.79
loop_
_atom_site_label
_atom_site_type_symbol
_atom_site_fract_x
_atom_site_fract_y
_atom_site_fract_z
Ni1 Ni 0.0000 0.89426(6) 0.2500
Ni2 Ni 0.0000 0.70227(6) 0.2500
S1 S -0.5000 0.80244(10) 0.51414(6)
O1 O -0.5000 0.8943(3) 0.54627(17)
O2 O -0.5000 0.7120(3) 0.54822(18)
O3 O -0.1101(2) 0.8805(2) 0.31459(13)
O4 O -0.1116(2) 0.71677(19) 0.31397(12)
N1 N 0.0000 1.0392(4) 0.2500
N2 N 0.0000 1.5559(5) 0.2500
C1 C -0.3911(3) 0.8009(3) 0.46375(16)
C2 C -0.3509(3) 0.8887(3) 0.4428(2)
H2 H -0.3784 0.9479 0.4567
C3 C -0.2693(3) 0.8876(3) 0.4010(2)
H3 H -0.2413 0.9463 0.3868
C4 C -0.2287(3) 0.7988(3) 0.37998(17)
C5 C -0.2703(3) 0.7120(3) 0.4021(2)
H4 H -0.2431 0.6526 0.3884
C6 C -0.3509(3) 0.7119(3) 0.4440(2)
H5 H -0.3781 0.6532 0.4589
C7 C -0.1432(3) 0.7985(3) 0.33286(17)
C8 C -0.0878(6) 1.0893(5) 0.2500
H6 H -0.1510 1.0549 0.2500
C9 C -0.0923(6) 1.1909(5) 0.2500
H7 H -0.1570 1.2231 0.2500
C10 C 0.0000 1.2430(6) 0.2500
C11 C 0.0000 1.5066(6) 0.3011(3)
H8 H 0.0000 1.5413 0.3376
C12 C 0.0000 1.4039(6) 0.3035(4)
H9 H 0.0000 1.3717 0.3409
C13 C 0.0000 1.3516(5) 0.2500
Ni1_2 Ni -1.0000 0.89426(6) 0.2500
Ni1_3 Ni 1.0000 0.89426(6) 0.2500
Ni2_2 Ni 0.0000 1.70227(6) 0.2500
Ni2_3 Ni -1.0000 0.70227(6) 0.2500
Ni2_4 Ni 1.0000 0.70227(6) 0.2500
S1B S 0.5000 0.80244(10) -0.01414(6)
O1B O 0.5000 0.8943(3) -0.04627(17)
O2B O 0.5000 0.7120(3) -0.04822(18)
O3K O -0.8899(2) 0.8805(2) 0.31459(13)
O3B O 0.1101(2) 0.8805(2) 0.18541(13)
O3I O 0.8899(2) 0.8805(2) 0.18541(13)
O3I_2 O -0.1101(2) 0.8805(2) 0.18541(13)
O3K_2 O 0.1101(2) 0.8805(2) 0.31459(13)
O4K O -0.8884(2) 0.71677(19) 0.31397(12)
O4B O 0.1116(2) 0.71677(19) 0.18603(12)
O4I O 0.8884(2) 0.71677(19) 0.18603(12)
O4I_2 O -0.1116(2) 0.71677(19) 0.18603(12)
O4K_2 O 0.1116(2) 0.71677(19) 0.31397(12)
N2_2 N 0.0000 0.5559(5) 0.2500
C1K C -0.6089(3) 0.8009(3) 0.46375(16)
C1B C 0.3911(3) 0.8009(3) 0.03625(16)
C1I C 0.6089(3) 0.8009(3) 0.03625(16)
C2K C -0.6491(3) 0.8887(3) 0.4428(2)
C2B C 0.3509(3) 0.8887(3) 0.0572(2)
C2I C 0.6491(3) 0.8887(3) 0.0572(2)
H2K H -0.6216 0.9479 0.4567
H2B H 0.3784 0.9479 0.0433
H2I H 0.6216 0.9479 0.0433
C3K C -0.7307(3) 0.8876(3) 0.4010(2)
C3B C 0.2693(3) 0.8876(3) 0.0990(2)
C3I C 0.7307(3) 0.8876(3) 0.0990(2)
H3K H -0.7587 0.9463 0.3868
H3B H 0.2413 0.9463 0.1132
H3I H 0.7587 0.9463 0.1132
C4K C -0.7713(3) 0.7988(3) 0.37998(17)
C4B C 0.2287(3) 0.7988(3) 0.12002(17)
C4I C 0.7713(3) 0.7988(3) 0.12002(17)
C5K C -0.7297(3) 0.7120(3) 0.4021(2)
C5B C 0.2703(3) 0.7120(3) 0.0979(2)
C5I C 0.7297(3) 0.7120(3) 0.0979(2)
H4K H -0.7569 0.6526 0.3884
H4B H 0.2431 0.6526 0.1116
H4I H 0.7569 0.6526 0.1116
C6K C -0.6491(3) 0.7119(3) 0.4440(2)
C6B C 0.3509(3) 0.7119(3) 0.0560(2)
C6I C 0.6491(3) 0.7119(3) 0.0560(2)
H5K H -0.6219 0.6532 0.4589
H5B H 0.3781 0.6532 0.0411
H5I H 0.6219 0.6532 0.0411
C7K C -0.8568(3) 0.7985(3) 0.33286(17)
C7B C 0.1432(3) 0.7985(3) 0.16714(17)
C7I C 0.8568(3) 0.7985(3) 0.16714(17)
C8B C 0.0878(6) 1.0893(5) 0.2500
H6B H 0.1510 1.0549 0.2500
C9B C 0.0923(6) 1.1909(5) 0.2500
H7B H 0.1570 1.2231 0.2500
C11B C 0.0000 1.5066(6) 0.1989(3)
H8B H 0.0000 1.5413 0.1624
C12B C 0.0000 1.4039(6) 0.1965(4)
H9B H 0.0000 1.3717 0.1591
O5 O 0.0000 0.0043(5) 0.0723(4)
H1 H -0.041(4) -0.052(2) 0.076(3)
H1K H 0.041(4) -0.052(2) 0.076(3)
loop_
_geom_bond_atom_site_label_1
_geom_bond_atom_site_label_2
_geom_bond_site_symmetry_1
_geom_bond_site_symmetry_2
Ni1 O3 1_555 1_555
Ni2 O4 1_555 1_555
S1 O1 1_555 1_555
O2 S1 1_555 1_555
O3 C7 1_555 1_555
O4 C7 1_555 1_555
O5 H1 1_555 1_555
N1 Ni1 1_555 1_555
N2 C11 1_555 1_555
C1 S1 1_555 1_555
C2 C1 1_555 1_555
H2 C2 1_555 1_555
C3 C2 1_555 1_555
H3 C3 1_555 1_555
C4 C3 1_555 1_555
C5 C4 1_555 1_555
H4 C5 1_555 1_555
C6 C1 1_555 1_555
H5 C6 1_555 1_555
C7 C4 1_555 1_555
C8 N1 1_555 1_555
H6 C8 1_555 1_555
C9 C8 1_555 1_555
H7 C9 1_555 1_555
C10 C9 1_555 1_555
C11 H8 1_555 1_555
C12 C11 1_555 1_555
H9 C12 1_555 1_555
C13 C10 1_555 1_555
Ni1_2 O3K 1_555 1_555
Ni1_3 O3I 1_555 1_555
Ni2_2 N2 1_555 1_555
Ni2_3 O4K 1_555 1_555
Ni2_4 O4I 1_555 1_555
S1B O1B 1_555 1_555
O2B S1B 1_555 1_555
O3K C7K 1_555 1_555
O3B Ni1 1_555 1_555
O3I C7I 1_555 1_555
O3I_2 Ni1 1_555 1_555
O3K_2 Ni1 1_555 1_555
O4K C7K 1_555 1_555
O4B Ni2 1_555 1_555
O4I C7I 1_555 1_555
O4I_2 Ni2 1_555 1_555
O4K_2 Ni2 1_555 1_555
H1K O5 1_555 1_555
N2_2 Ni2 1_555 1_555
C1K S1 1_555 1_555
C1B S1B 1_555 1_555
C1I S1B 1_555 1_555
C2K C1K 1_555 1_555
C2B C1B 1_555 1_555
C2I C1I 1_555 1_555
H2K C2K 1_555 1_555
H2B C2B 1_555 1_555
H2I C2I 1_555 1_555
C3K C2K 1_555 1_555
C3B C2B 1_555 1_555
C3I C2I 1_555 1_555
H3K C3K 1_555 1_555
H3B C3B 1_555 1_555
H3I C3I 1_555 1_555
C4K C3K 1_555 1_555
C4B C3B 1_555 1_555
C4I C3I 1_555 1_555
C5K C4K 1_555 1_555
C5B C4B 1_555 1_555
C5I C4I 1_555 1_555
H4K C5K 1_555 1_555
H4B C5B 1_555 1_555
H4I C5I 1_555 1_555
C6K C1K 1_555 1_555
C6B C1B 1_555 1_555
C6I C1I 1_555 1_555
H5K C6K 1_555 1_555
H5B C6B 1_555 1_555
H5I C6I 1_555 1_555
C7K C4K 1_555 1_555
C7B O3B 1_555 1_555
C7I C4I 1_555 1_555
C8B N1 1_555 1_555
H6B C8B 1_555 1_555
C9B C10 1_555 1_555
H7B C9B 1_555 1_555
C11B N2 1_555 1_555
H8B C11B 1_555 1_555
C12B C13 1_555 1_555
H9B C12B 1_555 1_555
C5 C6 1_555 1_555
C12 C13 1_555 1_555
O4B C7B 1_555 1_555
C4B C7B 1_555 1_555
C5K C6K 1_555 1_555
C5B C6B 1_555 1_555
C5I C6I 1_555 1_555
C8B C9B 1_555 1_555
C11B C12B 1_555 1_555

#END
