
#######################################################################
#
#                 Cambridge Crystallographic Data Centre
#                                CCDC 
#
#######################################################################
#
# If this CIF has been generated from an entry in the Cambridge 
# Structural Database, then it will include bibliographic, chemical, 
# crystal, experimental, refinement or atomic coordinate data resulting 
# from the CCDC's data processing and validation procedures.
#
#######################################################################

data_RUBGOM
_symmetry_cell_setting           monoclinic
_symmetry_space_group_name_H-M   'P 21'
_symmetry_Int_Tables_number      4
_space_group_name_Hall           'P 2yb'
loop_
_symmetry_equiv_pos_site_id
_symmetry_equiv_pos_as_xyz
1 x,y,z
2 -x,1/2+y,-z
_cell_length_a                   11.8071(15)
_cell_length_b                   29.765(4)
_cell_length_c                   13.1818(16)
_cell_angle_alpha                90
_cell_angle_beta                 110.456(2)
_cell_angle_gamma                90
_cell_volume                     4340.46
loop_
_atom_site_label
_atom_site_type_symbol
_atom_site_fract_x
_atom_site_fract_y
_atom_site_fract_z
C1 C 0.6404(6) 0.1915(2) 0.3182(5)
C2 C 0.5665(5) 0.1629(2) 0.2249(5)
C3 C 0.4460(6) 0.1544(2) 0.2022(5)
H1 H 0.4059 0.1683 0.2452
C4 C 0.4408(6) 0.1087(3) 0.0605(5)
C5 C 0.5599(6) 0.1159(3) 0.0756(6)
H2 H 0.5970 0.1024 0.0298
C6 C 0.6226(6) 0.1431(3) 0.1581(6)
H3 H 0.7056 0.1488 0.1712
C7 C 0.1073(6) 0.0926(2) -0.1358(5)
C8 C 0.0626(6) 0.1496(2) -0.2708(6)
H4 H 0.0865 0.1712 -0.3125
C9 C -0.0594(5) 0.1430(2) -0.2882(6)
C10 C -0.0861(6) 0.1103(3) -0.2264(6)
H5 H -0.1691 0.1052 -0.2380
C11 C -0.0069(5) 0.0857(2) -0.1527(5)
H6 H -0.0319 0.0635 -0.1131
C12 C -0.1538(5) 0.1687(3) -0.3729(5)
C13 C 0.4614(6) 0.1621(2) 0.7260(5)
C14 C 0.5389(6) 0.1896(2) 0.8180(5)
C15 C 0.4912(6) 0.2107(3) 0.8849(6)
H7 H 0.4088 0.2050 0.8748
C16 C 0.6669(5) 0.2444(2) 0.9794(5)
C17 C 0.7284(6) 0.2219(2) 0.9215(5)
H8 H 0.8131 0.2252 0.9391
C18 C 0.6617(5) 0.1948(2) 0.8384(5)
H9 H 0.6991 0.1797 0.7949
C19 C 0.9924(6) 0.2608(2) 1.1834(5)
C20 C 1.1897(5) 0.2424(3) 1.2728(5)
H10 H 1.2732 0.2458 1.2840
C21 C 1.1580(5) 0.2112(2) 1.3358(5)
C22 C 1.0363(5) 0.2056(2) 1.3179(5)
H11 H 1.0108 0.1844 1.3593
C23 C 0.9529(5) 0.2306(2) 1.2408(5)
H12 H 0.8689 0.2270 1.2275
C24 C 1.2531(6) 0.1837(2) 1.4205(5)
C25 C 0.5605(8) 0.3074(3) 0.3181(9)
H13 H 0.5110 0.2873 0.3401
C26 C 0.5034(9) 0.3400(3) 0.2421(10)
C27 C 0.3629(10) 0.3448(4) 0.1986(13)
H14 H 0.3258 0.3150 0.1806
H15 H 0.3376 0.3637 0.1336
H16 H 0.3369 0.3587 0.2543
C28 C 0.5807(12) 0.3671(3) 0.2085(10)
H17 H 0.5478 0.3890 0.1536
C29 C 0.7021(11) 0.3623(3) 0.2539(8)
H18 H 0.7539 0.3816 0.2326
C30 C 0.7525(7) 0.3285(3) 0.3335(6)
C31 C 0.8841(7) 0.3218(3) 0.3860(7)
C32 C 0.9720(9) 0.3471(3) 0.3643(8)
H19 H 0.9499 0.3707 0.3125
C33 C 1.0941(9) 0.3370(4) 0.4206(10)
H20 H 1.1556 0.3539 0.4071
C34 C 1.1239(8) 0.3038(4) 0.4928(9)
C35 C 1.2552(8) 0.2922(5) 0.5596(10)
H21 H 1.2659 0.2923 0.6367
H22 H 1.3091 0.3146 0.5459
H23 H 1.2747 0.2624 0.5389
C36 C 1.0325(7) 0.2800(3) 0.5071(7)
H24 H 1.0542 0.2559 0.5573
C37 C 0.0605(7) 0.0759(3) 0.5323(7)
H25 H 0.0409 0.1010 0.4848
C38 C -0.0344(8) 0.0494(4) 0.5448(10)
C39 C -0.1631(8) 0.0605(5) 0.4846(11)
H26 H -0.2001 0.0365 0.4328
H27 H -0.1678 0.0889 0.4456
H28 H -0.2061 0.0635 0.5357
C40 C 0.0028(12) 0.0141(4) 0.6168(12)
H29 H -0.0572 -0.0034 0.6309
C41 C 0.1174(10) 0.0034(3) 0.6672(9)
H30 H 0.1376 -0.0228 0.7110
C42 C 0.2083(7) 0.0305(3) 0.6561(6)
C43 C 0.3400(8) 0.0228(3) 0.7113(7)
C44 C 0.3903(10) -0.0120(3) 0.7875(8)
H31 H 0.3393 -0.0324 0.8067
C45 C 0.5133(10) -0.0158(4) 0.8327(8)
H32 H 0.5469 -0.0390 0.8839
C46 C 0.5887(10) 0.0128(4) 0.8066(9)
C47 C 0.7263(10) 0.0083(4) 0.8551(11)
H33 H 0.7560 0.0232 0.9258
H34 H 0.7626 0.0224 0.8066
H35 H 0.7484 -0.0236 0.8639
C48 C 0.5337(8) 0.0473(3) 0.7362(7)
H36 H 0.5842 0.0689 0.7201
N1 N 0.3821(5) 0.1267(2) 0.1200(5)
N2 N 0.1486(6) 0.1248(2) -0.1933(6)
N3 N 0.5516(5) 0.2388(2) 0.9639(4)
N4 N 1.1107(5) 0.2684(2) 1.1964(4)
N5 N 0.6783(5) 0.3024(2) 0.3617(5)
N6 N 0.9133(5) 0.2878(2) 0.4560(5)
N7 N 0.1757(5) 0.0662(2) 0.5858(5)
N8 N 0.4123(6) 0.0522(2) 0.6888(5)
O1 O 0.7445(4) 0.20172(18) 0.3259(4)
O2 O 0.5932(4) 0.20519(15) 0.3866(3)
O3 O -0.1172(4) 0.1970(2) -0.4248(4)
O4 O -0.2625(4) 0.16199(17) -0.3840(4)
O5 O 0.5024(4) 0.14727(14) 0.6552(3)
O6 O 0.3538(4) 0.15316(17) 0.7192(4)
O7 O 1.3622(4) 0.19193(17) 1.4292(4)
O8 O 1.2157(4) 0.15777(18) 1.4736(4)
S1 S 0.37246(18) 0.06736(7) -0.03976(16)
S2 S 0.2052(2) 0.05655(7) -0.03597(16)
S3 S 0.72988(16) 0.28589(7) 1.08099(14)
S4 S 0.89848(17) 0.29760(7) 1.08102(14)
Mn1 Mn 0.76883(8) 0.24479(3) 0.47172(8)
Mn2 Mn 0.54901(8) 0.17573(4) 0.52152(8)
Mn3 Mn 0.32528(8) 0.10854(3) 0.57455(7)
O9 O 0.5321(15) 0.1107(7) 0.438(2)
O10 O 0.3733(9) 0.0750(3) 0.4589(7)
C49 C 0.4496(16) 0.0815(7) 0.411(2)
C50 C 0.4474(12) 0.0464(6) 0.3308(14)
C51 C 0.5338(18) 0.0441(8) 0.283(2)
H37 H 0.5972 0.0656 0.3041
N9 N 0.5336(11) 0.0137(5) 0.2105(12)
C52 C 0.4457(14) -0.0165(5) 0.1831(13)
C53 C 0.3528(13) -0.0163(6) 0.2231(17)
H38 H 0.2903 -0.0381 0.2001
C54 C 0.3524(18) 0.0159(9) 0.297(2)
H39 H 0.2880 0.0175 0.3239
S5 S 0.4625(6) -0.05344(12) 0.0839(4)
S6 S 0.3078(5) -0.08965(12) 0.0353(2)
C55 C 0.3346(13) -0.1327(5) 0.1362(11)
N10 N 0.2395(10) -0.1398(6) 0.1646(14)
C56 C 0.2479(13) -0.1719(7) 0.2396(17)
H40 H 0.1792 -0.1778 0.2592
C57 C 0.349(2) -0.1958(11) 0.288(3)
C58 C 0.4467(19) -0.1888(8) 0.254(2)
H41 H 0.5188 -0.2056 0.2860
C59 C 0.4399(13) -0.1575(5) 0.1749(14)
H42 H 0.5044 -0.1532 0.1484
C60 C 0.3552(16) -0.2325(6) 0.3696(16)
O11 O 0.4374(17) -0.2614(6) 0.3918(15)
O12 O 0.2723(16) -0.2281(10) 0.4113(17)
O3_2 O 0.8828(4) 0.1970(2) 0.5752(4)
O4_2 O 0.7375(4) 0.16199(17) 0.6160(4)
O7_2 O 0.3622(4) 0.19193(17) 0.4292(4)
O8_2 O 0.2157(4) 0.15777(18) 0.4736(4)
Mn1_2 Mn -0.23117(8) 0.24479(3) -0.52828(8)
Mn1A Mn 0.23117(8) -0.25521(3) 0.52828(8)
Mn2_2 Mn -0.45099(8) 0.17573(4) -0.47848(8)
Mn2_3 Mn 1.54901(8) 0.17573(4) 1.52152(8)
Mn2A Mn 0.45099(8) -0.32427(4) 0.47848(8)
Mn3_2 Mn 1.32528(8) 0.10854(3) 1.57455(7)
O11A O 0.5626(17) 0.2386(6) 0.6082(15)
O12A O 0.7277(16) 0.2719(10) 0.5887(17)
O17 O 0.2536(11) 0.3320(4) -0.1617(12)
C73 C 0.2799(13) 0.2988(4) -0.1012(13)
H49 H 0.3639 0.2936 -0.0654
N13 N 0.2087(10) 0.2703(3) -0.0803(9)
C74 C 0.0829(13) 0.2724(6) -0.1378(13)
H50 H 0.0502 0.3001 -0.1184
H51 H 0.0434 0.2464 -0.1190
H52 H 0.0679 0.2723 -0.2157
C75 C 0.2504(14) 0.2360(4) -0.0001(10)
H53 H 0.3386 0.2376 0.0329
H54 H 0.2269 0.2065 -0.0340
H55 H 0.2142 0.2404 0.0557
O18 O 0.9799(16) 0.4274(3) 0.2037(8)
C76 C 0.9802(18) 0.4484(6) 0.1210(12)
H56 H 0.9506 0.4783 0.1157
N14 N 1.0130(10) 0.4364(4) 0.0441(9)
C77 C 1.0539(14) 0.3948(5) 0.0239(17)
H57 H 1.0731 0.3963 -0.0426
H58 H 0.9909 0.3722 0.0154
H59 H 1.1267 0.3864 0.0847
C78 C 0.9923(15) 0.4679(7) -0.0472(13)
H60 H 1.0218 0.4545 -0.1012
H61 H 1.0357 0.4960 -0.0206
H62 H 0.9056 0.4741 -0.0804
O19 O 1.1095(11) 0.9757(5) 0.3153(12)
C79 C 1.0115(13) 0.9711(5) 0.3273(14)
H63 H 0.9652 0.9973 0.3263
N15 N 0.9672(10) 0.9325(3) 0.3413(10)
C80 C 1.0251(17) 0.8916(5) 0.3378(16)
H64 H 1.1127 0.8964 0.3627
H65 H 0.9970 0.8803 0.2633
H66 H 1.0060 0.8697 0.3848
C81 C 0.8448(13) 0.9283(6) 0.3478(16)
H67 H 0.8010 0.9567 0.3254
H68 H 0.8518 0.9215 0.4225
H69 H 0.8006 0.9041 0.2998
O20 O 0.690(2) -0.0487(11) 0.535(2)
C82 C 0.591(2) -0.0385(8) 0.548(2)
H70 H 0.5781 -0.0112 0.5800
N16 N 0.5086(14) -0.0694(5) 0.5122(11)
C83 C 0.535(3) -0.1087(8) 0.464(3)
H71 H 0.4656 -0.1290 0.4430
H72 H 0.6054 -0.1240 0.5157
H73 H 0.5540 -0.1004 0.3994
C84 C 0.3793(17) -0.0651(9) 0.486(2)
H74 H 0.3401 -0.0940 0.4600
H75 H 0.3474 -0.0422 0.4302
H76 H 0.3628 -0.0562 0.5515
O21 O 0.869(2) 0.0780(8) 0.155(3)
C85 C 0.9136(12) 0.1002(7) 0.0960(16)
H77 H 0.8674 0.1063 0.0224
N17 N 1.0189(9) 0.1134(4) 0.1368(11)
C86 C 1.1190(16) 0.0941(6) 0.2095(12)
H78 H 1.1288 0.1045 0.2826
H79 H 1.1903 0.1025 0.1921
H80 H 1.1098 0.0614 0.2060
C87 C 1.049(2) 0.1529(5) 0.0755(15)
H81 H 1.0956 0.1417 0.0317
H82 H 1.0977 0.1751 0.1275
H83 H 0.9745 0.1669 0.0282
O22 O 0.7366(10) 0.0065(4) 0.1331(11)
O23 O 0.7163(11) -0.0826(4) 0.0371(9)
O13? O 0.542(4) 0.1097(16) 0.459(5)
O14? O 0.3570(18) 0.0852(6) 0.4355(15)
C61? C 0.460(3) 0.0802(16) 0.423(4)
C62? C 0.468(2) 0.0485(11) 0.339(3)
C63? C 0.564(3) 0.0480(11) 0.301(3)
H43? H 0.6214 0.0718 0.3241
N11? N 0.584(2) 0.0170(8) 0.236(2)
C64? C 0.502(3) -0.0152(9) 0.201(3)
C65? C 0.398(3) -0.0152(11) 0.225(3)
H44? H 0.3350 -0.0358 0.1898
C66? C 0.385(3) 0.0143(11) 0.299(3)
H45? H 0.3188 0.0114 0.3243
S7? S 0.550(2) -0.0552(3) 0.1253(9)
S8? S 0.399(2) -0.0903(3) 0.0475(7)
C67? C 0.396(3) -0.1328(9) 0.145(3)
N12? N 0.293(3) -0.1342(11) 0.160(3)
C68? C 0.282(3) -0.1650(12) 0.233(3)
H46? H 0.2120 -0.1645 0.2530
C69? C 0.368(4) -0.1960(19) 0.278(5)
C70? C 0.472(3) -0.1948(13) 0.252(3)
H47? H 0.5294 -0.2185 0.2761
C71? C 0.495(3) -0.1601(10) 0.192(3)
H48? H 0.5715 -0.1556 0.1837
C72? C 0.360(3) -0.2266(11) 0.366(3)
O15? O 0.442(3) -0.2538(10) 0.415(3)
O16? O 0.258(3) -0.2227(18) 0.382(3)
loop_
_geom_bond_atom_site_label_1
_geom_bond_atom_site_label_2
_geom_bond_site_symmetry_1
_geom_bond_site_symmetry_2
C1 C2 1_555 1_555
C2 C3 1_555 1_555
C3 H1 1_555 1_555
C4 C5 1_555 1_555
C5 H2 1_555 1_555
C6 C2 1_555 1_555
H3 C6 1_555 1_555
C7 C11 1_555 1_555
C8 H4 1_555 1_555
C9 C8 1_555 1_555
C10 C9 1_555 1_555
H5 C10 1_555 1_555
C11 C10 1_555 1_555
H6 C11 1_555 1_555
C12 C9 1_555 1_555
C13 C14 1_555 1_555
C14 C15 1_555 1_555
C15 H7 1_555 1_555
C16 C17 1_555 1_555
C17 H8 1_555 1_555
C18 C14 1_555 1_555
H9 C18 1_555 1_555
C19 C23 1_555 1_555
C20 H10 1_555 1_555
C21 C20 1_555 1_555
C22 C21 1_555 1_555
H11 C22 1_555 1_555
C23 C22 1_555 1_555
H12 C23 1_555 1_555
C24 C21 1_555 1_555
C25 H13 1_555 1_555
C26 C25 1_555 1_555
C27 C26 1_555 1_555
H14 C27 1_555 1_555
H15 C27 1_555 1_555
H16 C27 1_555 1_555
C28 C26 1_555 1_555
H17 C28 1_555 1_555
C29 C28 1_555 1_555
H18 C29 1_555 1_555
C30 C29 1_555 1_555
C31 C30 1_555 1_555
C32 C31 1_555 1_555
H19 C32 1_555 1_555
C33 C32 1_555 1_555
H20 C33 1_555 1_555
C34 C33 1_555 1_555
C35 C34 1_555 1_555
H21 C35 1_555 1_555
H22 C35 1_555 1_555
H23 C35 1_555 1_555
C36 C34 1_555 1_555
H24 C36 1_555 1_555
C37 H25 1_555 1_555
C38 C37 1_555 1_555
C39 C38 1_555 1_555
H26 C39 1_555 1_555
H27 C39 1_555 1_555
H28 C39 1_555 1_555
C40 C38 1_555 1_555
H29 C40 1_555 1_555
C41 C40 1_555 1_555
H30 C41 1_555 1_555
C42 C41 1_555 1_555
C43 C42 1_555 1_555
C44 C43 1_555 1_555
H31 C44 1_555 1_555
C45 C44 1_555 1_555
H32 C45 1_555 1_555
C46 C45 1_555 1_555
C47 C46 1_555 1_555
H33 C47 1_555 1_555
H34 C47 1_555 1_555
H35 C47 1_555 1_555
C48 C46 1_555 1_555
H36 C48 1_555 1_555
N1 C3 1_555 1_555
N2 C7 1_555 1_555
N3 C15 1_555 1_555
N4 C19 1_555 1_555
N5 C25 1_555 1_555
N6 C31 1_555 1_555
N7 C37 1_555 1_555
N8 C43 1_555 1_555
O1 C1 1_555 1_555
O2 C1 1_555 1_555
O3 C12 1_555 1_555
O4 C12 1_555 1_555
O5 C13 1_555 1_555
O6 C13 1_555 1_555
O7 C24 1_555 1_555
O8 C24 1_555 1_555
S1 C4 1_555 1_555
S2 C7 1_555 1_555
S3 C16 1_555 1_555
S4 C19 1_555 1_555
Mn1 N5 1_555 1_555
Mn2 O2 1_555 1_555
Mn3 N7 1_555 1_555
O9 Mn2 1_555 1_555
O10 Mn3 1_555 1_555
C49 O9 1_555 1_555
C50 C49 1_555 1_555
C51 C50 1_555 1_555
H37 C51 1_555 1_555
N9 C51 1_555 1_555
C52 N9 1_555 1_555
C53 C52 1_555 1_555
H38 C53 1_555 1_555
C54 C50 1_555 1_555
H39 C54 1_555 1_555
S5 C52 1_555 1_555
S6 S5 1_555 1_555
C55 S6 1_555 1_555
N10 C55 1_555 1_555
C56 N10 1_555 1_555
H40 C56 1_555 1_555
C57 C56 1_555 1_555
C58 C57 1_555 1_555
H41 C58 1_555 1_555
C59 C55 1_555 1_555
H42 C59 1_555 1_555
C60 C57 1_555 1_555
O11 C60 1_555 1_555
O12 C60 1_555 1_555
O17 C73 1_555 1_555
C73 H49 1_555 1_555
N13 C73 1_555 1_555
C74 N13 1_555 1_555
H50 C74 1_555 1_555
H51 C74 1_555 1_555
H52 C74 1_555 1_555
C75 N13 1_555 1_555
H53 C75 1_555 1_555
H54 C75 1_555 1_555
H55 C75 1_555 1_555
O18 C76 1_555 1_555
C76 H56 1_555 1_555
N14 C76 1_555 1_555
C77 N14 1_555 1_555
H57 C77 1_555 1_555
H58 C77 1_555 1_555
H59 C77 1_555 1_555
C78 N14 1_555 1_555
H60 C78 1_555 1_555
H61 C78 1_555 1_555
H62 C78 1_555 1_555
O19 C79 1_555 1_555
C79 H63 1_555 1_555
N15 C79 1_555 1_555
C80 N15 1_555 1_555
H64 C80 1_555 1_555
H65 C80 1_555 1_555
H66 C80 1_555 1_555
C81 N15 1_555 1_555
H67 C81 1_555 1_555
H68 C81 1_555 1_555
H69 C81 1_555 1_555
O20 C82 1_555 1_555
C82 H70 1_555 1_555
N16 C82 1_555 1_555
C83 N16 1_555 1_555
H71 C83 1_555 1_555
H72 C83 1_555 1_555
H73 C83 1_555 1_555
C84 N16 1_555 1_555
H74 C84 1_555 1_555
H75 C84 1_555 1_555
H76 C84 1_555 1_555
O21 C85 1_555 1_555
C85 H77 1_555 1_555
N17 C85 1_555 1_555
C86 N17 1_555 1_555
H78 C86 1_555 1_555
H79 C86 1_555 1_555
H80 C86 1_555 1_555
C87 N17 1_555 1_555
H81 C87 1_555 1_555
H82 C87 1_555 1_555
H83 C87 1_555 1_555
O3_2 Mn1 1_555 1_555
O4_2 Mn2 1_555 1_555
O7_2 Mn2 1_555 1_555
O8_2 Mn3 1_555 1_555
Mn1_2 O3 1_555 1_555
Mn1A O12 1_555 1_555
Mn2_2 O4 1_555 1_555
Mn2_3 O7 1_555 1_555
Mn2A O11 1_555 1_555
Mn3_2 O8 1_555 1_555
O11A Mn2 1_555 1_555
O12A Mn1 1_555 1_555
C4 N1 1_555 1_555
C5 C6 1_555 1_555
C8 N2 1_555 1_555
C16 N3 1_555 1_555
C17 C18 1_555 1_555
C20 N4 1_555 1_555
C30 N5 1_555 1_555
C36 N6 1_555 1_555
C42 N7 1_555 1_555
C48 N8 1_555 1_555
N6 Mn1 1_555 1_555
N8 Mn3 1_555 1_555
O1 Mn1 1_555 1_555
O2 Mn1 1_555 1_555
O5 Mn2 1_555 1_555
O5 Mn3 1_555 1_555
O6 Mn3 1_555 1_555
S1 S2 1_555 1_555
S3 S4 1_555 1_555
O10 C49 1_555 1_555
C53 C54 1_555 1_555
C58 C59 1_555 1_555

#END
