
#######################################################################
#
#                 Cambridge Crystallographic Data Centre
#                                CCDC 
#
#######################################################################
#
# If this CIF has been generated from an entry in the Cambridge 
# Structural Database, then it will include bibliographic, chemical, 
# crystal, experimental, refinement or atomic coordinate data resulting 
# from the CCDC's data processing and validation procedures.
#
#######################################################################

data_RUBLIK
_symmetry_cell_setting           monoclinic
_symmetry_space_group_name_H-M   'C 2/c'
_symmetry_Int_Tables_number      15
_space_group_name_Hall           '-C 2yn'
loop_
_symmetry_equiv_pos_site_id
_symmetry_equiv_pos_as_xyz
1 x,y,z
2 -x,y,1/2-z
3 1/2+x,1/2+y,z
4 1/2-x,1/2+y,1/2-z
5 -x,-y,-z
6 x,-y,1/2+z
7 1/2-x,1/2-y,-z
8 1/2+x,1/2-y,1/2+z
_cell_length_a                   23.878(5)
_cell_length_b                   20.558(5)
_cell_length_c                   15.339(4)
_cell_angle_alpha                90
_cell_angle_beta                 127.329(5)
_cell_angle_gamma                90
_cell_volume                     5987.34
loop_
_atom_site_label
_atom_site_type_symbol
_atom_site_fract_x
_atom_site_fract_y
_atom_site_fract_z
Zn1 Zn 0.289518(19) -0.02490(2) 0.58444(3)
Cl1 Cl 0.23890(4) 0.03937(5) 0.63915(7)
Cl2 Cl 0.40183(4) 0.01428(4) 0.66537(6)
Cl3 Cl 0.29588(5) -0.12811(5) 0.64164(7)
Cl4 Cl 0.23243(5) -0.02303(5) 0.40092(6)
Zn2 Zn 0.51281(4) -0.28149(5) 0.72952(6)
Cl5 Cl 0.48742(15) -0.17847(12) 0.71756(14)
Cl6 Cl 0.52918(10) -0.26583(10) 0.60033(15)
Cl7 Cl 0.59505(6) -0.33946(8) 0.85185(11)
Zn2A Zn 0.48719(4) -0.28149(5) 0.77048(6)
Cl5A Cl 0.51258(15) -0.17847(12) 0.78244(14)
Cl6A Cl 0.47082(10) -0.26583(10) 0.89967(15)
Cl7A Cl 0.40495(6) -0.33946(8) 0.64815(11)
O9 O 0.42163(12) -0.52380(13) 0.67643(18)
H18 H 0.4358(6) -0.5559(6) 0.6638(13)
H19 H 0.3836(4) -0.5087(10) 0.6542(17)
O10 O 0.28205(16) -0.10218(17) -0.1636(2)
H20 H 0.2790(6) -0.1145(12) -0.2168(7)
H21 H 0.2734(10) -0.0645(5) -0.158(2)
Gd1 Gd 0.881129(7) -0.242573(8) 0.618074(10)
O1 O 0.92390(11) -0.32179(12) 0.75708(15)
O2 O 1.03699(10) -0.30037(12) 0.88872(16)
O3 O 0.78886(11) -0.24883(11) 0.63308(17)
O4 O 0.67929(11) -0.26287(12) 0.57509(16)
O5 O 0.93465(10) -0.18219(12) 0.78444(15)
O6 O 1.05031(10) -0.16084(12) 0.88770(16)
N1 N 0.97354(16) -0.44512(17) 1.0695(2)
H1 H 0.9721 -0.4679 1.1151
N2 N 0.81581(16) -0.29908(18) 0.9714(2)
H2 H 0.8310 -0.3093 1.0367
N3 N 0.97563(17) -0.04935(17) 1.0833(2)
H3 H 0.9728 -0.0294 1.1298
C1 C 0.98094(15) -0.32859(16) 0.8511(2)
C2 C 0.97805(14) -0.37364(16) 0.9266(2)
C3 C 1.03566(17) -0.37753(19) 1.0356(2)
H4 H 1.0771 -0.3556 1.0613
C4 C 1.0309(2) -0.4140(2) 1.1052(3)
H5 H 1.0692 -0.4166 1.1790
C5 C 0.91566(18) -0.4433(2) 0.9633(3)
H6 H 0.8750 -0.4657 0.9403
C6 C 0.91843(16) -0.40757(18) 0.8903(2)
H7 H 0.8799 -0.4065 0.8166
C7 C 0.74395(15) -0.26022(16) 0.6480(2)
C8 C 0.76919(14) -0.27226(16) 0.7648(2)
C9 C 0.83805(18) -0.26017(19) 0.8512(3)
H8 H 0.8688 -0.2429 0.8391
C10 C 0.8612(2) -0.2739(3) 0.9564(3)
H9 H 0.9077 -0.2657 1.0161
C11 C 0.74869(19) -0.3089(2) 0.8896(3)
H10 H 0.7183 -0.3246 0.9035
C12 C 0.72390(16) -0.29568(19) 0.7837(2)
H11 H 0.6768 -0.3027 0.7256
C13 C 0.99026(15) -0.15649(15) 0.8636(2)
C14 C 0.98411(15) -0.11590(16) 0.9398(2)
C15 C 1.0433(2) -0.0974(2) 1.0411(3)
H12 H 1.0878 -0.1081 1.0622
C16 C 1.0365(2) -0.0632(2) 1.1107(3)
H13 H 1.0765 -0.0499 1.1786
C17 C 0.9168(2) -0.0644(2) 0.9865(3)
H14 H 0.8735 -0.0521 0.9687
C18 C 0.91977(17) -0.0985(2) 0.9122(3)
H15 H 0.8786 -0.1096 0.8440
O7 O 0.81712(11) -0.13912(11) 0.55777(18)
H16 H 0.7758 -0.1456 0.5318
O8 O 0.82819(10) -0.35123(11) 0.53688(16)
H17 H 0.8185 -0.3537 0.4757
Gd1A Gd 1.118871(7) -0.242573(8) 0.881926(10)
Gd1F Gd 0.618871(7) -0.257427(8) 0.381926(10)
O1A O 1.07610(11) -0.32179(12) 0.74292(15)
O2A O 0.96301(10) -0.30037(12) 0.61128(16)
O3F O 0.71114(11) -0.25117(11) 0.36692(17)
O3A O 1.21114(11) -0.24883(11) 0.86692(17)
O4F O 0.82071(11) -0.23713(12) 0.42491(16)
O4G O 1.17929(11) -0.23713(12) 1.07509(16)
O5A O 1.06535(10) -0.18219(12) 0.71556(15)
O6A O 0.94969(10) -0.16084(12) 0.61230(16)
N1A N 1.02646(16) -0.44512(17) 0.4305(2)
H1A H 1.0279 -0.4679 0.3849
N2F N 0.68419(16) -0.20092(18) 0.0286(2)
H2F H 0.6690 -0.1907 -0.0367
N3A N 1.02437(17) -0.04935(17) 0.4167(2)
H3A H 1.0272 -0.0294 0.3702
C1A C 1.01906(15) -0.32859(16) 0.6489(2)
C2A C 1.02195(14) -0.37364(16) 0.5734(2)
C3A C 0.96434(17) -0.37753(19) 0.4644(2)
H4A H 0.9229 -0.3556 0.4387
C4A C 0.9691(2) -0.4140(2) 0.3948(3)
H5A H 0.9308 -0.4166 0.3210
C5A C 1.08434(18) -0.4433(2) 0.5367(3)
H6A H 1.1250 -0.4657 0.5597
C6A C 1.08157(16) -0.40757(18) 0.6097(2)
H7A H 1.1201 -0.4065 0.6834
C7F C 0.75605(15) -0.23978(16) 0.3520(2)
C8F C 0.73081(14) -0.22774(16) 0.2352(2)
C9F C 0.66195(18) -0.23983(19) 0.1488(3)
H8F H 0.6312 -0.2571 0.1609
C10F C 0.6388(2) -0.2261(3) 0.0436(3)
H9F H 0.5923 -0.2343 -0.0161
C11F C 0.75131(19) -0.1911(2) 0.1104(3)
H10F H 0.7817 -0.1754 0.0965
C12F C 0.77610(16) -0.20432(19) 0.2163(2)
H11F H 0.8232 -0.1973 0.2744
C13A C 1.00974(15) -0.15649(15) 0.6364(2)
C14A C 1.01589(15) -0.11590(16) 0.5602(2)
C15A C 0.9567(2) -0.0974(2) 0.4589(3)
H12A H 0.9122 -0.1081 0.4378
C16A C 0.9635(2) -0.0632(2) 0.3893(3)
H13A H 0.9235 -0.0499 0.3214
C17A C 1.0832(2) -0.0644(2) 0.5135(3)
H14A H 1.1265 -0.0521 0.5313
C18A C 1.08023(17) -0.0985(2) 0.5878(3)
H15A H 1.1214 -0.1096 0.6560
O7A O 1.18288(11) -0.13912(11) 0.94223(18)
H16A H 1.2242 -0.1456 0.9682
O8A O 1.17181(10) -0.35123(11) 0.96312(16)
H17A H 1.1815 -0.3537 1.0243
loop_
_geom_bond_atom_site_label_1
_geom_bond_atom_site_label_2
_geom_bond_site_symmetry_1
_geom_bond_site_symmetry_2
Gd1 O1 1_555 1_555
Zn1 Cl1 1_555 1_555
Zn2 Cl5 1_555 1_555
Cl2 Zn1 1_555 1_555
Cl3 Zn1 1_555 1_555
Cl4 Zn1 1_555 1_555
Cl5 Zn2A 1_555 1_555
Cl6 Zn2 1_555 1_555
Cl7 Zn2 1_555 1_555
O1 C1 1_555 1_555
O2 C1 1_555 1_555
O3 Gd1 1_555 1_555
O4 C7 1_555 1_555
O5 Gd1 1_555 1_555
O6 C13 1_555 1_555
N1 H1 1_555 1_555
N2 H2 1_555 1_555
N3 H3 1_555 1_555
C1 C2 1_555 1_555
C2 C3 1_555 1_555
C3 H4 1_555 1_555
C4 N1 1_555 1_555
H5 C4 1_555 1_555
C5 N1 1_555 1_555
H6 C5 1_555 1_555
C6 C2 1_555 1_555
H7 C6 1_555 1_555
C7 O3 1_555 1_555
C8 C7 1_555 1_555
C9 C8 1_555 1_555
H8 C9 1_555 1_555
C10 N2 1_555 1_555
H9 C10 1_555 1_555
C11 N2 1_555 1_555
H10 C11 1_555 1_555
C12 C8 1_555 1_555
H11 C12 1_555 1_555
C13 O5 1_555 1_555
C14 C13 1_555 1_555
C15 C14 1_555 1_555
H12 C15 1_555 1_555
C16 N3 1_555 1_555
H13 C16 1_555 1_555
C17 N3 1_555 1_555
H14 C17 1_555 1_555
C18 C14 1_555 1_555
H15 C18 1_555 1_555
O7 Gd1 1_555 1_555
H16 O7 1_555 1_555
O8 Gd1 1_555 1_555
H17 O8 1_555 1_555
O9 H18 1_555 1_555
O10 H20 1_555 1_555
H19 O9 1_555 1_555
H21 O10 1_555 1_555
Gd1A O2 1_555 1_555
Gd1F O4 1_555 1_555
Zn2A Zn2 1_555 1_555
Cl5A Zn2 1_555 1_555
Cl6A Zn2A 1_555 1_555
Cl7A Zn2 1_555 1_555
O1A Gd1A 1_555 1_555
O2A Gd1 1_555 1_555
O3F Gd1F 1_555 1_555
O3A Gd1A 1_555 1_555
O4F Gd1 1_555 1_555
O4G Gd1A 1_555 1_555
O5A Gd1A 1_555 1_555
O6A Gd1 1_555 1_555
N1A H1A 1_555 1_555
N2F H2F 1_555 1_555
N3A H3A 1_555 1_555
C1A O1A 1_555 1_555
C2A C1A 1_555 1_555
C3A C2A 1_555 1_555
H4A C3A 1_555 1_555
C4A N1A 1_555 1_555
H5A C4A 1_555 1_555
C5A N1A 1_555 1_555
H6A C5A 1_555 1_555
C6A C2A 1_555 1_555
H7A C6A 1_555 1_555
C7F O3F 1_555 1_555
C8F C7F 1_555 1_555
C9F C8F 1_555 1_555
H8F C9F 1_555 1_555
C10F N2F 1_555 1_555
H9F C10F 1_555 1_555
C11F N2F 1_555 1_555
H10F C11F 1_555 1_555
C12F C8F 1_555 1_555
H11F C12F 1_555 1_555
C13A O5A 1_555 1_555
C14A C13A 1_555 1_555
C15A C14A 1_555 1_555
H12A C15A 1_555 1_555
C16A N3A 1_555 1_555
H13A C16A 1_555 1_555
C17A N3A 1_555 1_555
H14A C17A 1_555 1_555
C18A C14A 1_555 1_555
H15A C18A 1_555 1_555
O7A Gd1A 1_555 1_555
H16A O7A 1_555 1_555
O8A Gd1A 1_555 1_555
H17A O8A 1_555 1_555
Cl5 Cl5A 1_555 1_555
Cl7 Zn2A 1_555 1_555
O6 Gd1A 1_555 1_555
C3 C4 1_555 1_555
C5 C6 1_555 1_555
C9 C10 1_555 1_555
C11 C12 1_555 1_555
C15 C16 1_555 1_555
C17 C18 1_555 1_555
Zn2A Cl5A 1_555 1_555
Zn2A Cl7A 1_555 1_555
O2A C1A 1_555 1_555
O4F C7F 1_555 1_555
O6A C13A 1_555 1_555
C3A C4A 1_555 1_555
C5A C6A 1_555 1_555
C9F C10F 1_555 1_555
C11F C12F 1_555 1_555
C15A C16A 1_555 1_555
C17A C18A 1_555 1_555

#END
