
#######################################################################
#
#                 Cambridge Crystallographic Data Centre
#                                CCDC 
#
#######################################################################
#
# If this CIF has been generated from an entry in the Cambridge 
# Structural Database, then it will include bibliographic, chemical, 
# crystal, experimental, refinement or atomic coordinate data resulting 
# from the CCDC's data processing and validation procedures.
#
#######################################################################

data_RUBMAD01
_symmetry_cell_setting           monoclinic
_symmetry_space_group_name_H-M   'C 2/c'
_symmetry_Int_Tables_number      15
_space_group_name_Hall           '-C 2yn'
loop_
_symmetry_equiv_pos_site_id
_symmetry_equiv_pos_as_xyz
1 x,y,z
2 -x,y,1/2-z
3 1/2+x,1/2+y,z
4 1/2-x,1/2+y,1/2-z
5 -x,-y,-z
6 x,-y,1/2+z
7 1/2-x,1/2-y,-z
8 1/2+x,1/2-y,1/2+z
_cell_length_a                   15.831(6)
_cell_length_b                   7.872(2)
_cell_length_c                   13.351(5)
_cell_angle_alpha                90
_cell_angle_beta                 111.701(8)
_cell_angle_gamma                90
_cell_volume                     1545.9
loop_
_atom_site_label
_atom_site_type_symbol
_atom_site_fract_x
_atom_site_fract_y
_atom_site_fract_z
Ag1 Ag 0.08215(3) 0.02603(6) -0.02438(4)
Ag2 Ag 0.5000 0.0000 0.0000
O1 O 0.1583(3) 0.0694(6) -0.3516(3)
O2 O 0.0272(2) 0.2080(5) -0.3801(4)
N1 N 0.2228(3) 0.1681(5) -0.1408(4)
N2 N 0.2110(3) 0.0575(6) -0.0681(4)
N3 N 0.3551(3) 0.0533(6) -0.0558(4)
C1 C 0.2924(4) -0.0069(7) -0.0198(5)
H1 H 0.3056 -0.0883 0.0353
C2 C 0.3086(3) 0.1627(7) -0.1334(5)
H2 H 0.3330 0.2260 -0.1760
C3 C 0.1471(3) 0.2568(7) -0.2190(5)
H3 H 0.1672 0.3706 -0.2299
H4 H 0.0992 0.2703 -0.1895
C4 C 0.1078(4) 0.1696(7) -0.3256(5)
Ag1A Ag 0.91785(3) 0.02603(6) 0.52438(4)
Ag1A_2 Ag -0.08215(3) 0.02603(6) -0.47562(4)
Ag1E Ag 0.08215(3) -0.02603(6) -0.52438(4)
Ag1E_2 Ag 1.08215(3) -0.02603(6) 0.47562(4)
Ag1D Ag 0.91785(3) -0.02603(6) 0.02438(4)
Ag1D_2 Ag -0.08215(3) -0.02603(6) 0.02438(4)
Ag1_2 Ag 1.08215(3) 0.02603(6) -0.02438(4)
O1D O 0.8417(3) -0.0694(6) 0.3516(3)
O1E O 0.1583(3) -0.0694(6) 0.1484(3)
O1A O 0.8417(3) 0.0694(6) -0.1484(3)
O2D O 0.9728(2) -0.2080(5) 0.3801(4)
O2A O -0.0272(2) 0.2080(5) -0.1199(4)
O2E O 1.0272(2) -0.2080(5) 0.1199(4)
N1D N 0.7772(3) -0.1681(5) 0.1408(4)
N2D N 0.7890(3) -0.0575(6) 0.0681(4)
N3D N 0.6449(3) -0.0533(6) 0.0558(4)
C1D C 0.7076(4) 0.0069(7) 0.0198(5)
H1D H 0.6944 0.0883 -0.0353
C2D C 0.6914(3) -0.1627(7) 0.1334(5)
H2D H 0.6670 -0.2260 0.1760
C3D C 0.8529(3) -0.2568(7) 0.2190(5)
H3D H 0.8328 -0.3706 0.2299
H4D H 0.9008 -0.2703 0.1895
C4D C 0.8922(4) -0.1696(7) 0.3256(5)
Cl1 Cl 0.0000 -0.2685(2) -0.2500
O3 O 0.0107(7) -0.2454(13) -0.1341(8)
O4 O 0.0971(6) -0.290(2) -0.1994(9)
O3A O -0.0107(7) -0.2454(13) -0.3659(8)
O4A O -0.0971(6) -0.290(2) -0.3006(9)
O5? O -0.0273(9) -0.1272(15) -0.2133(10)
O6? O -0.0238(14) -0.436(3) -0.2273(17)
O7? O -0.060(2) -0.392(3) -0.265(2)
loop_
_geom_bond_atom_site_label_1
_geom_bond_atom_site_label_2
_geom_bond_site_symmetry_1
_geom_bond_site_symmetry_2
Ag1 N2 1_555 1_555
Ag2 N3 1_555 1_555
O1 C4 1_555 1_555
O2 C4 1_555 1_555
N1 N2 1_555 1_555
N2 C1 1_555 1_555
N3 C1 1_555 1_555
C1 H1 1_555 1_555
C2 N1 1_555 1_555
H2 C2 1_555 1_555
C3 N1 1_555 1_555
H3 C3 1_555 1_555
H4 C3 1_555 1_555
C4 C3 1_555 1_555
Cl1 O3 1_555 1_555
O4 Cl1 1_555 1_555
Ag1A Ag1E_2 1_555 1_555
Ag1A_2 O2 1_555 1_555
Ag1E O1 1_555 1_555
Ag1E_2 O2D 1_555 1_555
Ag1D Ag1_2 1_555 1_555
Ag1D_2 Ag1 1_555 1_555
O1D Ag1A 1_555 1_555
O1E Ag1 1_555 1_555
O1A Ag1D 1_555 1_555
O2D C4D 1_555 1_555
O2A Ag1 1_555 1_555
O2E Ag1D 1_555 1_555
N1D N2D 1_555 1_555
N2D Ag1D 1_555 1_555
N3D Ag2 1_555 1_555
C1D N2D 1_555 1_555
H1D C1D 1_555 1_555
C2D N1D 1_555 1_555
H2D C2D 1_555 1_555
C3D N1D 1_555 1_555
H3D C3D 1_555 1_555
H4D C3D 1_555 1_555
C4D O1D 1_555 1_555
O3A Cl1 1_555 1_555
O4A Cl1 1_555 1_555
N3 C2 1_555 1_555
Ag1A_2 Ag1E 1_555 1_555
N3D C1D 1_555 1_555
N3D C2D 1_555 1_555
C3D C4D 1_555 1_555

#END
