
#######################################################################
#
#                 Cambridge Crystallographic Data Centre
#                                CCDC 
#
#######################################################################
#
# If this CIF has been generated from an entry in the Cambridge 
# Structural Database, then it will include bibliographic, chemical, 
# crystal, experimental, refinement or atomic coordinate data resulting 
# from the CCDC's data processing and validation procedures.
#
#######################################################################

data_RUBRUD
_symmetry_cell_setting           monoclinic
_symmetry_space_group_name_H-M   'P 21/c'
_symmetry_Int_Tables_number      14
_space_group_name_Hall           '-P 2ybc'
loop_
_symmetry_equiv_pos_site_id
_symmetry_equiv_pos_as_xyz
1 x,y,z
2 -x,1/2+y,1/2-z
3 -x,-y,-z
4 x,1/2-y,1/2+z
_cell_length_a                   15.097(2)
_cell_length_b                   7.8518(14)
_cell_length_c                   7.2255(12)
_cell_angle_alpha                90
_cell_angle_beta                 100.100(5)
_cell_angle_gamma                90
_cell_volume                     843.228
loop_
_atom_site_label
_atom_site_type_symbol
_atom_site_fract_x
_atom_site_fract_y
_atom_site_fract_z
C1 C 0.18649(15) 0.0078(3) 0.7322(3)
C2 C 0.09835(15) 0.0623(3) 0.6767(3)
H1 H 0.0501 -0.0167 0.6667
C3 C 0.08145(16) 0.2324(3) 0.6362(3)
H2 H 0.0216 0.2707 0.5946
C4 C 0.15235(15) 0.3470(3) 0.6565(3)
H3 H 0.141 0.4645 0.6315
C5 C 0.24018(15) 0.2900(3) 0.7133(3)
H4 H 0.288 0.3701 0.7273
C6 C 0.25980(14) 0.1198(3) 0.7502(3)
K1 K 0.43785(3) -0.34679(7) 0.84940(7)
N1 N 0.19671(12) -0.1752(3) 0.7745(3)
O1 O 0.13890(11) -0.2429(2) 0.8514(3)
O2 O 0.25984(11) -0.2526(2) 0.7288(2)
O3 O 0.37397(10) -0.0426(2) 0.9973(2)
O4 O 0.40713(10) -0.0261(2) 0.6815(2)
O5 O 0.42106(10) 0.2260(2) 0.8766(2)
S1 S 0.37539(4) 0.06461(8) 0.83398(8)
K1_2 K 0.43785(3) 0.65321(7) 0.84940(7)
K1A K 0.56215(3) 0.15321(7) 0.65060(7)
K1B K 0.56215(3) 0.34679(7) 1.15060(7)
K1C K 0.43785(3) -0.15321(7) 0.34940(7)
K1C_2 K 0.43785(3) -0.15321(7) 1.34940(7)
O3C O 0.37397(10) -0.4574(2) 0.4973(2)
O4A O 0.59287(10) -0.5261(2) 0.8185(2)
O4C O 0.40713(10) -0.4739(2) 1.1815(2)
O5_2 O 0.42106(10) -0.7740(2) 0.8766(2)
O5A O 0.57894(10) -0.2740(2) 0.6234(2)
O5B O 0.57894(10) -0.2260(2) 1.1234(2)
loop_
_geom_bond_atom_site_label_1
_geom_bond_atom_site_label_2
_geom_bond_site_symmetry_1
_geom_bond_site_symmetry_2
C1 C2 1_555 1_555
C2 H1 1_555 1_555
C3 C2 1_555 1_555
H2 C3 1_555 1_555
C4 C3 1_555 1_555
H3 C4 1_555 1_555
C5 C4 1_555 1_555
H4 C5 1_555 1_555
C6 C1 1_555 1_555
K1 O2 1_555 1_555
N1 C1 1_555 1_555
O1 N1 1_555 1_555
O2 N1 1_555 1_555
O3 K1 1_555 1_555
O4 K1 1_555 1_555
O5 S1 1_555 1_555
S1 C6 1_555 1_555
K1_2 O5 1_555 1_555
K1A O4 1_555 1_555
K1B O5 1_555 1_555
K1C O4 1_555 1_555
K1C_2 O3 1_555 1_555
O3C K1 1_555 1_555
O4A K1 1_555 1_555
O4C K1 1_555 1_555
O5_2 K1 1_555 1_555
O5A K1 1_555 1_555
O5B K1 1_555 1_555
C5 C6 1_555 1_555
O3 S1 1_555 1_555
O4 S1 1_555 1_555
O5 K1A 1_555 1_555
K1A O5A 1_555 1_555
K1C O3C 1_555 1_555
K1C O5A 1_555 1_555
K1C_2 O4C 1_555 1_555
K1C_2 O5B 1_555 1_555

#END
