
#######################################################################
#
#                 Cambridge Crystallographic Data Centre
#                                CCDC 
#
#######################################################################
#
# If this CIF has been generated from an entry in the Cambridge 
# Structural Database, then it will include bibliographic, chemical, 
# crystal, experimental, refinement or atomic coordinate data resulting 
# from the CCDC's data processing and validation procedures.
#
#######################################################################

data_RUBXOC
_symmetry_cell_setting           monoclinic
_symmetry_space_group_name_H-M   'C 2/c'
_symmetry_Int_Tables_number      15
_space_group_name_Hall           '-C 2yn'
loop_
_symmetry_equiv_pos_site_id
_symmetry_equiv_pos_as_xyz
1 x,y,z
2 1/2+x,1/2+y,z
3 -x,y,1/2-z
4 1/2-x,1/2+y,1/2-z
5 -x,-y,-z
6 1/2-x,1/2-y,-z
7 x,-y,1/2+z
8 1/2+x,1/2-y,1/2+z
_cell_length_a                   33.325(2)
_cell_length_b                   13.821(3)
_cell_length_c                   8.807(1)
_cell_angle_alpha                90
_cell_angle_beta                 93.826(2)
_cell_angle_gamma                90
_cell_volume                     4047.33
loop_
_atom_site_label
_atom_site_type_symbol
_atom_site_fract_x
_atom_site_fract_y
_atom_site_fract_z
Ag1 Ag 0.009370(16) 0.88578(4) -0.45295(7)
Ag2 Ag 0.0000 0.54313(6) -0.2500
C1 C 0.1200(2) 0.7781(6) -0.1780(8)
C2 C 0.1463(3) 0.7147(6) -0.2421(9)
H1 H 0.1362 0.6666 -0.3078
C3 C 0.1878(3) 0.7223(6) -0.2092(11)
H2 H 0.2053 0.6800 -0.2535
C4 C 0.2027(3) 0.7945(6) -0.1085(10)
H3 H 0.2302 0.8000 -0.0854
C5 C 0.1348(2) 0.8517(6) -0.0722(9)
C6 C 0.1764(2) 0.8579(6) -0.0434(10)
C7 C 0.1920(3) 0.9269(6) 0.0559(10)
H4 H 0.2197 0.9304 0.0770
C8 C 0.1672(3) 0.9912(7) 0.1250(11)
H5 H 0.1784 1.0380 0.1909
C9 C 0.1259(2) 0.9865(7) 0.0967(10)
H6 H 0.1091 1.0293 0.1437
C10 C 0.1097(3) 0.9163(6) -0.0036(9)
H7 H 0.0821 0.9128 -0.0246
C11 C 0.1124(2) 0.6045(6) 0.0896(10)
C12 C 0.1338(3) 0.5298(6) 0.0270(10)
H8 H 0.1213 0.4892 -0.0459
C13 C 0.1741(2) 0.5160(6) 0.0736(10)
H9 H 0.1885 0.4651 0.0343
C14 C 0.1926(3) 0.5784(7) 0.1787(10)
H10 H 0.2196 0.5701 0.2105
C15 C 0.1303(3) 0.6662(6) 0.1933(11)
C16 C 0.1712(2) 0.6517(6) 0.2351(9)
C17 C 0.1912(3) 0.7136(6) 0.3396(10)
H11 H 0.2182 0.7032 0.3688
C18 C 0.1709(3) 0.7908(7) 0.4001(10)
H12 H 0.1846 0.8339 0.4661
C19 C 0.1301(2) 0.8038(6) 0.3623(10)
H13 H 0.1162 0.8541 0.4057
C20 C 0.1099(3) 0.7412(6) 0.2587(10)
H14 H 0.0826 0.7498 0.2335
C21 C 0.0011(2) 0.9063(6) -0.6869(8)
N1 N -0.0011(2) 0.9063(6) -0.8131(8)
O1 O 0.05326(16) 0.7153(4) -0.0620(6)
O2 O 0.04568(16) 0.8495(4) -0.2482(6)
O3 O 0.06072(18) 0.6794(4) -0.3385(7)
O4 O 0.05008(17) 0.5346(4) -0.0721(7)
Ag3 Ag 0.038820(18) 0.64658(4) -0.57265(7)
O5 O 0.03283(17) 0.6248(4) 0.1592(7)
P1 P 0.06720(7) 0.75637(15) -0.2214(3)
P2 P 0.05907(7) 0.61521(16) 0.0302(3)
Ag1B Ag -0.009370(16) 0.88578(4) -0.04705(7)
Ag1B_2 Ag -0.009370(16) 0.88578(4) -1.04705(7)
Ag1_2 Ag 0.009370(16) 0.88578(4) 0.54705(7)
C1B C -0.1200(2) 0.7781(6) -0.3220(8)
C2B C -0.1463(3) 0.7147(6) -0.2579(9)
H1B H -0.1362 0.6666 -0.1922
C3B C -0.1878(3) 0.7223(6) -0.2908(11)
H2B H -0.2053 0.6800 -0.2465
C4B C -0.2027(3) 0.7945(6) -0.3915(10)
H3B H -0.2302 0.8000 -0.4146
C5B C -0.1348(2) 0.8517(6) -0.4278(9)
C6B C -0.1764(2) 0.8579(6) -0.4566(10)
C7B C -0.1920(3) 0.9269(6) -0.5559(10)
H4B H -0.2197 0.9304 -0.5770
C8B C -0.1672(3) 0.9912(7) -0.6250(11)
H5B H -0.1784 1.0380 -0.6909
C9B C -0.1259(2) 0.9865(7) -0.5967(10)
H6B H -0.1091 1.0293 -0.6437
C10B C -0.1097(3) 0.9163(6) -0.4964(9)
H7B H -0.0821 0.9128 -0.4754
C11B C -0.1124(2) 0.6045(6) -0.5896(10)
C12B C -0.1338(3) 0.5298(6) -0.5270(10)
H8B H -0.1213 0.4892 -0.4541
C13B C -0.1741(2) 0.5160(6) -0.5736(10)
H9B H -0.1885 0.4651 -0.5343
C14B C -0.1926(3) 0.5784(7) -0.6787(10)
H10B H -0.2196 0.5701 -0.7105
C15B C -0.1303(3) 0.6662(6) -0.6933(11)
C16B C -0.1712(2) 0.6517(6) -0.7351(9)
C17B C -0.1912(3) 0.7136(6) -0.8396(10)
H11B H -0.2182 0.7032 -0.8688
C18B C -0.1709(3) 0.7908(7) -0.9001(10)
H12B H -0.1846 0.8339 -0.9661
C19B C -0.1301(2) 0.8038(6) -0.8623(10)
H13B H -0.1162 0.8541 -0.9057
C20B C -0.1099(3) 0.7412(6) -0.7587(10)
H14B H -0.0826 0.7498 -0.7335
C21B C -0.0011(2) 0.9063(6) 0.1869(8)
N1B N 0.0011(2) 0.9063(6) 0.3131(8)
O1B O -0.05326(16) 0.7153(4) -0.4380(6)
O2B O -0.04568(16) 0.8495(4) -0.2518(6)
O3B O -0.06072(18) 0.6794(4) -0.1615(7)
O4B O -0.05008(17) 0.5346(4) -0.4279(7)
O4F O 0.05008(17) 0.4654(4) -0.5721(7)
O4D O -0.05008(17) 0.4654(4) 0.0721(7)
Ag3B Ag -0.038820(18) 0.64658(4) 0.07265(7)
Ag3F Ag 0.038820(18) 0.35342(4) -0.07265(7)
Ag3_2 Ag 0.038820(18) 0.64658(4) 0.42735(7)
Ag3D Ag -0.038820(18) 0.35342(4) -0.42735(7)
Ag3B_2 Ag -0.038820(18) 0.64658(4) -0.92735(7)
O5B O -0.03283(17) 0.6248(4) -0.6592(7)
O5_2 O 0.03283(17) 0.6248(4) -0.8408(7)
O5B_2 O -0.03283(17) 0.6248(4) 0.3408(7)
P1B P -0.06720(7) 0.75637(15) -0.2786(3)
P2B P -0.05907(7) 0.61521(16) -0.5302(3)
loop_
_geom_bond_atom_site_label_1
_geom_bond_atom_site_label_2
_geom_bond_site_symmetry_1
_geom_bond_site_symmetry_2
Ag1 C21 1_555 1_555
Ag2 O4 1_555 1_555
C1 C2 1_555 1_555
C2 H1 1_555 1_555
C3 C2 1_555 1_555
H2 C3 1_555 1_555
C4 C3 1_555 1_555
H3 C4 1_555 1_555
C5 C1 1_555 1_555
C6 C4 1_555 1_555
C7 C6 1_555 1_555
H4 C7 1_555 1_555
C8 C7 1_555 1_555
H5 C8 1_555 1_555
C9 C8 1_555 1_555
H6 C9 1_555 1_555
C10 C5 1_555 1_555
H7 C10 1_555 1_555
C11 C12 1_555 1_555
C12 H8 1_555 1_555
C13 C12 1_555 1_555
H9 C13 1_555 1_555
C14 C13 1_555 1_555
H10 C14 1_555 1_555
C15 C11 1_555 1_555
C16 C14 1_555 1_555
C17 C16 1_555 1_555
H11 C17 1_555 1_555
C18 C17 1_555 1_555
H12 C18 1_555 1_555
C19 C18 1_555 1_555
H13 C19 1_555 1_555
C20 C15 1_555 1_555
H14 C20 1_555 1_555
C21 N1 1_555 1_555
N1 Ag1B_2 1_555 1_555
O1 P1 1_555 1_555
O2 Ag1 1_555 1_555
O3 Ag3 1_555 1_555
O4 P2 1_555 1_555
Ag3 O4F 1_555 1_555
O5 P2 1_555 1_555
P1 C1 1_555 1_555
P2 C11 1_555 1_555
Ag1B C21B 1_555 1_555
Ag1_2 N1B 1_555 1_555
C1B C2B 1_555 1_555
C2B H1B 1_555 1_555
C3B C2B 1_555 1_555
H2B C3B 1_555 1_555
C4B C3B 1_555 1_555
H3B C4B 1_555 1_555
C5B C1B 1_555 1_555
C6B C4B 1_555 1_555
C7B C6B 1_555 1_555
H4B C7B 1_555 1_555
C8B C7B 1_555 1_555
H5B C8B 1_555 1_555
C9B C8B 1_555 1_555
H6B C9B 1_555 1_555
C10B C5B 1_555 1_555
H7B C10B 1_555 1_555
C11B C12B 1_555 1_555
C12B H8B 1_555 1_555
C13B C12B 1_555 1_555
H9B C13B 1_555 1_555
C14B C13B 1_555 1_555
H10B C14B 1_555 1_555
C15B C11B 1_555 1_555
C16B C14B 1_555 1_555
C17B C16B 1_555 1_555
H11B C17B 1_555 1_555
C18B C17B 1_555 1_555
H12B C18B 1_555 1_555
C19B C18B 1_555 1_555
H13B C19B 1_555 1_555
C20B C15B 1_555 1_555
H14B C20B 1_555 1_555
C21B N1B 1_555 1_555
O1B P1B 1_555 1_555
O2B Ag1B 1_555 1_555
O3B Ag3B 1_555 1_555
O4B Ag2 1_555 1_555
O4D Ag3B 1_555 1_555
Ag3B O5 1_555 1_555
Ag3F O4 1_555 1_555
Ag3_2 O5 1_555 1_555
Ag3D O4B 1_555 1_555
Ag3B_2 O5B 1_555 1_555
O5B Ag3 1_555 1_555
O5_2 Ag3 1_555 1_555
O5B_2 Ag3B 1_555 1_555
P1B C1B 1_555 1_555
P2B C11B 1_555 1_555
C5 C6 1_555 1_555
C9 C10 1_555 1_555
C15 C16 1_555 1_555
C19 C20 1_555 1_555
O1 P2 1_555 1_555
O2 P1 1_555 1_555
O3 P1 1_555 1_555
C5B C6B 1_555 1_555
C9B C10B 1_555 1_555
C15B C16B 1_555 1_555
C19B C20B 1_555 1_555
O1B P2B 1_555 1_555
O2B P1B 1_555 1_555
O3B P1B 1_555 1_555
O4B P2B 1_555 1_555
Ag3_2 O5B_2 1_555 1_555
Ag3B_2 O5_2 1_555 1_555
O5B P2B 1_555 1_555

#END
