
#######################################################################
#
#                 Cambridge Crystallographic Data Centre
#                                CCDC 
#
#######################################################################
#
# If this CIF has been generated from an entry in the Cambridge 
# Structural Database, then it will include bibliographic, chemical, 
# crystal, experimental, refinement or atomic coordinate data resulting 
# from the CCDC's data processing and validation procedures.
#
#######################################################################

data_RUBZIY01
_symmetry_cell_setting           orthorhombic
_symmetry_space_group_name_H-M   'P b c a'
_symmetry_Int_Tables_number      61
_space_group_name_Hall           '-P 2ac 2ab'
loop_
_symmetry_equiv_pos_site_id
_symmetry_equiv_pos_as_xyz
1 x,y,z
2 1/2-x,-y,1/2+z
3 1/2+x,1/2-y,-z
4 -x,1/2+y,1/2-z
5 -x,-y,-z
6 1/2+x,y,1/2-z
7 1/2-x,1/2+y,z
8 x,1/2-y,1/2+z
_cell_length_a                   7.726(3)
_cell_length_b                   10.277(5)
_cell_length_c                   18.324(9)
_cell_angle_alpha                90
_cell_angle_beta                 90
_cell_angle_gamma                90
_cell_volume                     1454.93
loop_
_atom_site_label
_atom_site_type_symbol
_atom_site_fract_x
_atom_site_fract_y
_atom_site_fract_z
Pb1 Pb 0.50752(3) -0.29744(2) -0.518227(15)
O1 O 0.3422(7) -0.2824(4) -0.4014(3)
O2 O 0.4711(6) -0.4690(5) -0.4190(3)
O3 O 0.3202(7) -0.4097(4) -0.0237(3)
O4 O 0.3051(6) -0.6211(4) -0.0530(3)
C1 C 0.4335(9) -0.5602(6) -0.1955(4)
H1 H 0.4744 -0.6386 -0.1768
C2 C 0.3795(9) -0.4204(6) -0.2989(4)
C3 C 0.3288(8) -0.5021(6) -0.0691(3)
C4 C 0.3605(8) -0.4704(6) -0.1488(4)
C5 C 0.4468(9) -0.5358(7) -0.2696(4)
H2 H 0.5004 -0.5961 -0.3000
C6 C 0.3949(8) -0.3900(6) -0.3777(4)
C7 C 0.3101(9) -0.3288(7) -0.2522(4)
H3 H 0.2686 -0.2508 -0.2710
C8 C 0.3009(9) -0.3513(6) -0.1770(4)
H4 H 0.2559 -0.2881 -0.1460
Pb1D Pb 0.49248(3) -0.70256(2) -0.481773(15)
Pb1E Pb 0.00752(3) -0.29744(2) 0.018227(15)
Pb1G Pb 0.50752(3) -0.20256(2) -0.018227(15)
Pb1A Pb -0.00752(3) -0.70256(2) -0.018227(15)
Pb1C Pb 0.49248(3) -0.79744(2) 0.018227(15)
O2D O 0.5289(6) -0.5310(5) -0.5810(3)
O3E O 0.8202(7) -0.4097(4) -0.4763(3)
O3G O 0.3202(7) -0.0903(4) -0.5237(3)
O4A O 0.1949(6) -0.3789(4) -0.5530(3)
O4C O 0.6949(6) -0.1211(4) -0.4470(3)
loop_
_geom_bond_atom_site_label_1
_geom_bond_atom_site_label_2
_geom_bond_site_symmetry_1
_geom_bond_site_symmetry_2
Pb1 O1 1_555 1_555
O1 C6 1_555 1_555
O2 Pb1 1_555 1_555
O3 C3 1_555 1_555
O4 C3 1_555 1_555
C1 H1 1_555 1_555
C2 C5 1_555 1_555
C3 C4 1_555 1_555
C4 C1 1_555 1_555
C5 C1 1_555 1_555
H2 C5 1_555 1_555
C6 O2 1_555 1_555
C7 C2 1_555 1_555
H3 C7 1_555 1_555
C8 C4 1_555 1_555
H4 C8 1_555 1_555
Pb1D O2 1_555 1_555
Pb1E O3 1_555 1_555
Pb1G O3 1_555 1_555
Pb1A O4 1_555 1_555
Pb1C O4 1_555 1_555
O2D Pb1 1_555 1_555
O3E Pb1 1_555 1_555
O3G Pb1 1_555 1_555
O4A Pb1 1_555 1_555
O4C Pb1 1_555 1_555
C2 C6 1_555 1_555
C7 C8 1_555 1_555
Pb1D O2D 1_555 1_555

#END
