
#######################################################################
#
#                 Cambridge Crystallographic Data Centre
#                                CCDC 
#
#######################################################################
#
# If this CIF has been generated from an entry in the Cambridge 
# Structural Database, then it will include bibliographic, chemical, 
# crystal, experimental, refinement or atomic coordinate data resulting 
# from the CCDC's data processing and validation procedures.
#
#######################################################################

data_RUCZIZ
_symmetry_cell_setting           monoclinic
_symmetry_space_group_name_H-M   'C 2/c'
_symmetry_Int_Tables_number      15
_space_group_name_Hall           '-C 2yn'
loop_
_symmetry_equiv_pos_site_id
_symmetry_equiv_pos_as_xyz
1 x,y,z
2 -x,y,1/2-z
3 1/2+x,1/2+y,z
4 1/2-x,1/2+y,1/2-z
5 -x,-y,-z
6 x,-y,1/2+z
7 1/2-x,1/2-y,-z
8 1/2+x,1/2-y,1/2+z
_cell_length_a                   20.40441(17)
_cell_length_b                   14.24587(11)
_cell_length_c                   27.9874(3)
_cell_angle_alpha                90
_cell_angle_beta                 104.7541(10)
_cell_angle_gamma                90
_cell_volume                     7867.1
loop_
_atom_site_label
_atom_site_type_symbol
_atom_site_fract_x
_atom_site_fract_y
_atom_site_fract_z
Tb1 Tb 0.170380(14) 0.87572(2) 0.111908(10)
N1 N 0.0841(3) 0.7302(4) 0.0841(2)
N2 N 0.2144(3) 0.7330(4) 0.07969(19)
N3 N 0.0902(2) 0.8887(3) 0.02783(19)
O1 O 0.2615(2) 0.9055(3) 0.07633(17)
O2 O 0.3489(3) 0.8568(4) 0.0486(2)
O3 O 0.1585(2) 1.0297(3) 0.07842(16)
O4 O 0.1408(3) 1.1224(3) 0.01218(19)
C1 C -0.0139(4) 0.6557(5) 0.1116(4)
H1 H 0.0149 0.6039 0.1289
H2 H -0.0353 0.6351 0.0774
C2 C 0.0289(3) 0.7406(5) 0.1105(3)
H3 H 0.0499 0.7596 0.1450
H4 H -0.0013 0.7923 0.0947
C3 C 0.1245(3) 0.6443(4) 0.1006(3)
H5 H 0.0978 0.5883 0.0866
H6 H 0.1354 0.6397 0.1371
C4 C 0.1896(3) 0.6472(5) 0.0839(2)
C5 C 0.2220(4) 0.5668(5) 0.0738(3)
H7 H 0.2032 0.5065 0.0760
C6 C 0.2824(4) 0.5769(6) 0.0606(3)
H8 H 0.3063 0.5228 0.0545
C7 C 0.3082(4) 0.6653(5) 0.0562(3)
H9 H 0.3494 0.6728 0.0467
C8 C 0.2726(3) 0.7427(5) 0.0658(2)
C9 C 0.2967(3) 0.8416(5) 0.0629(2)
C10 C 0.0571(3) 0.7249(5) 0.0302(2)
H10 H 0.0119 0.6949 0.0229
H11 H 0.0871 0.6840 0.0165
C11 C 0.0508(3) 0.8184(4) 0.0044(2)
C12 C 0.0097(3) 0.8278(5) -0.0430(3)
H12 H -0.0184 0.7774 -0.0583
C13 C 0.0102(3) 0.9118(5) -0.0677(3)
H13 H -0.0166 0.9194 -0.1006
C14 C 0.0506(3) 0.9854(5) -0.0436(2)
H14 H 0.0514 1.0439 -0.0597
C15 C 0.0888(3) 0.9718(4) 0.0035(2)
C16 C 0.1331(3) 1.0474(4) 0.0338(2)
N4 N -0.1594(3) 0.6040(4) 0.1738(2)
H15 H -0.142(4) 0.647(5) 0.201(3)
N5 N -0.2361(3) 0.7242(4) 0.2174(2)
N6 N -0.2942(3) 0.4890(4) 0.18919(19)
O5 O -0.1776(2) 0.7803(3) 0.31230(16)
O6 O -0.2768(2) 0.8148(3) 0.32528(17)
O7 O -0.4192(2) 0.4340(3) 0.13963(16)
O8 O -0.4640(3) 0.5135(5) 0.1920(2)
C17 C -0.0693(4) 0.6784(5) 0.1385(3)
H16 H -0.0485 0.7079 0.1708
H17 H -0.1023 0.7231 0.1186
C18 C -0.1048(4) 0.5900(6) 0.1461(3)
H18 H -0.0708 0.5449 0.1647
H19 H -0.1258 0.5619 0.1134
C19 C -0.2193(3) 0.6554(5) 0.1420(3)
H20 H -0.2466 0.6108 0.1178
H21 H -0.2026 0.7049 0.1233
C20 C -0.2648(3) 0.7003(5) 0.1712(3)
C21 C -0.3329(4) 0.7158(5) 0.1488(3)
H22 H -0.3516 0.6989 0.1152
C22 C -0.3732(4) 0.7564(6) 0.1764(3)
H23 H -0.4200 0.7677 0.1622
C23 C -0.3435(4) 0.7802(5) 0.2255(3)
H24 H -0.3695 0.8082 0.2455
C24 C -0.2763(3) 0.7623(4) 0.2442(3)
C25 C -0.2415(3) 0.7862(4) 0.2968(2)
C26 C -0.1759(4) 0.5078(5) 0.1894(3)
H25 H -0.1904 0.4678 0.1596
H26 H -0.1343 0.4798 0.2108
C27 C -0.2300(3) 0.5071(5) 0.2164(3)
C28 C -0.2163(4) 0.5243(5) 0.2673(3)
H27 H -0.1710 0.5332 0.2864
C29 C -0.2696(4) 0.5280(5) 0.2893(3)
H28 H -0.2612 0.5382 0.3238
C30 C -0.3344(4) 0.5170(5) 0.2610(3)
H29 H -0.3718 0.5235 0.2752
C31 C -0.3446(3) 0.4963(4) 0.2120(2)
C32 C -0.4150(3) 0.4797(5) 0.1791(2)
Tb1B Tb 0.670380(14) 1.37572(2) 0.111908(10)
Tb1B_2 Tb -0.329620(14) 0.37572(2) 0.111908(10)
Tb1A Tb -0.170380(14) 0.87572(2) 0.388092(10)
Tb1C Tb 0.329620(14) 1.37572(2) 0.388092(10)
N1B N 0.5841(3) 1.2302(4) 0.0841(2)
N2B N 0.7144(3) 1.2330(4) 0.07969(19)
N3B N 0.5902(2) 1.3887(3) 0.02783(19)
O1B O 0.7615(2) 1.4055(3) 0.07633(17)
O2B O 0.8489(3) 1.3568(4) 0.0486(2)
O3B O 0.6585(2) 1.5297(3) 0.07842(16)
O4B O 0.6408(3) 1.6224(3) 0.01218(19)
C1B C 0.4861(4) 1.1557(5) 0.1116(4)
H1B H 0.5149 1.1039 0.1289
H2B H 0.4647 1.1351 0.0774
C2B C 0.5289(3) 1.2406(5) 0.1105(3)
H3B H 0.5499 1.2596 0.1450
H4B H 0.4987 1.2923 0.0947
C3B C 0.6245(3) 1.1443(4) 0.1006(3)
H5B H 0.5978 1.0883 0.0866
H6B H 0.6354 1.1397 0.1371
C4B C 0.6896(3) 1.1472(5) 0.0839(2)
C5B C 0.7220(4) 1.0668(5) 0.0738(3)
H7B H 0.7032 1.0065 0.0760
C6B C 0.7824(4) 1.0769(6) 0.0606(3)
H8B H 0.8063 1.0228 0.0545
C7B C 0.8082(4) 1.1653(5) 0.0562(3)
H9B H 0.8494 1.1728 0.0467
C8B C 0.7726(3) 1.2427(5) 0.0658(2)
C9B C 0.7967(3) 1.3416(5) 0.0629(2)
C10B C 0.5571(3) 1.2249(5) 0.0302(2)
H10B H 0.5119 1.1949 0.0229
H11B H 0.5871 1.1840 0.0165
C11B C 0.5508(3) 1.3184(4) 0.0044(2)
C12B C 0.5097(3) 1.3278(5) -0.0430(3)
H12B H 0.4816 1.2774 -0.0583
C13B C 0.5102(3) 1.4118(5) -0.0677(3)
H13B H 0.4834 1.4194 -0.1006
C14B C 0.5506(3) 1.4854(5) -0.0436(2)
H14B H 0.5514 1.5439 -0.0597
C15B C 0.5888(3) 1.4718(4) 0.0035(2)
C16B C 0.6331(3) 1.5474(4) 0.0338(2)
N4B N 0.3406(3) 1.1040(4) 0.1738(2)
H15B H 0.358(4) 1.147(5) 0.201(3)
N5B N 0.2639(3) 1.2242(4) 0.2174(2)
N6B N 0.2058(3) 0.9890(4) 0.18919(19)
N6_2 N 0.7058(3) 1.4890(4) 0.18919(19)
O5B O 0.3224(2) 1.2803(3) 0.31230(16)
O5A O 0.1776(2) 0.7803(3) 0.18770(16)
O5C O 0.6776(2) 1.2803(3) 0.18770(16)
O6B O 0.2232(2) 1.3148(3) 0.32528(17)
O6A O 0.2768(2) 0.8148(3) 0.17472(17)
O6C O 0.7768(2) 1.3148(3) 0.17472(17)
O7B O 0.0808(2) 0.9340(3) 0.13963(16)
O7_2 O 0.5808(2) 1.4340(3) 0.13963(16)
O8B O 0.0360(3) 1.0135(5) 0.1920(2)
C17B C 0.4307(4) 1.1784(5) 0.1385(3)
H16B H 0.4515 1.2079 0.1708
H17B H 0.3977 1.2231 0.1186
C18B C 0.3952(4) 1.0900(6) 0.1461(3)
H18B H 0.4292 1.0449 0.1647
H19B H 0.3742 1.0619 0.1134
C19B C 0.2807(3) 1.1554(5) 0.1420(3)
H20B H 0.2534 1.1108 0.1178
H21B H 0.2974 1.2049 0.1233
C20B C 0.2352(3) 1.2003(5) 0.1712(3)
C21B C 0.1671(4) 1.2158(5) 0.1488(3)
H22B H 0.1484 1.1989 0.1152
C22B C 0.1268(4) 1.2564(6) 0.1764(3)
H23B H 0.0800 1.2677 0.1622
C23B C 0.1565(4) 1.2802(5) 0.2255(3)
H24B H 0.1305 1.3082 0.2455
C24B C 0.2237(3) 1.2623(4) 0.2442(3)
C25B C 0.2585(3) 1.2862(4) 0.2968(2)
C26B C 0.3241(4) 1.0078(5) 0.1894(3)
H25B H 0.3096 0.9678 0.1596
H26B H 0.3657 0.9798 0.2108
C27B C 0.2700(3) 1.0071(5) 0.2164(3)
C28B C 0.2837(4) 1.0243(5) 0.2673(3)
H27B H 0.3290 1.0332 0.2864
C29B C 0.2304(4) 1.0280(5) 0.2893(3)
H28B H 0.2388 1.0382 0.3238
C30B C 0.1656(4) 1.0170(5) 0.2610(3)
H29B H 0.1282 1.0235 0.2752
C31B C 0.1554(3) 0.9963(4) 0.2120(2)
C32B C 0.0850(3) 0.9797(5) 0.1791(2)
O9 O 0.5000 1.3257(6) 0.2500
O10 O 0.5888(3) 1.1878(5) 0.2377(2)
O11 O 0.3152(5) 0.8062(5) 0.4587(3)
O12 O 0.4867(14) 0.8534(19) 0.2187(10)
O13 O 0.4167(8) 0.7680(11) 0.1762(6)
O14 O 0.0744(6) 0.4127(9) 0.0668(5)
O15 O 0.0000 0.1523(5) 0.2500
O16 O 0.3262(4) 0.3498(4) 0.0773(2)
O17 O 0.4171(4) 0.4195(6) 0.1656(3)
O18 O 0.4791(4) 0.8809(7) 0.1169(5)
O19 O 0.3744(10) 1.0441(14) 0.0211(7)
O20 O 0.3086(8) 1.0728(11) 0.0300(6)
O21 O 0.5000 0.968(9) 0.2500
O22 O 0.0000 0.5000 0.0000
loop_
_geom_bond_atom_site_label_1
_geom_bond_atom_site_label_2
_geom_bond_site_symmetry_1
_geom_bond_site_symmetry_2
Tb1 N1 1_555 1_555
N1 C2 1_555 1_555
N2 Tb1 1_555 1_555
N3 Tb1 1_555 1_555
O1 Tb1 1_555 1_555
O2 C9 1_555 1_555
O3 Tb1 1_555 1_555
O4 C16 1_555 1_555
C1 H1 1_555 1_555
H2 C1 1_555 1_555
C2 C1 1_555 1_555
H3 C2 1_555 1_555
H4 C2 1_555 1_555
C3 N1 1_555 1_555
H5 C3 1_555 1_555
H6 C3 1_555 1_555
C4 N2 1_555 1_555
C5 C4 1_555 1_555
H7 C5 1_555 1_555
C6 C5 1_555 1_555
H8 C6 1_555 1_555
C7 C6 1_555 1_555
H9 C7 1_555 1_555
C8 N2 1_555 1_555
C9 O1 1_555 1_555
C10 N1 1_555 1_555
H10 C10 1_555 1_555
H11 C10 1_555 1_555
C11 N3 1_555 1_555
C12 C11 1_555 1_555
H12 C12 1_555 1_555
C13 C12 1_555 1_555
H13 C13 1_555 1_555
C14 C13 1_555 1_555
H14 C14 1_555 1_555
C15 N3 1_555 1_555
C16 O3 1_555 1_555
N4 H15 1_555 1_555
N5 C20 1_555 1_555
N6 C27 1_555 1_555
O5 C25 1_555 1_555
O6 C25 1_555 1_555
O7 C32 1_555 1_555
O8 C32 1_555 1_555
C17 C1 1_555 1_555
H16 C17 1_555 1_555
H17 C17 1_555 1_555
C18 N4 1_555 1_555
H18 C18 1_555 1_555
H19 C18 1_555 1_555
C19 N4 1_555 1_555
H20 C19 1_555 1_555
H21 C19 1_555 1_555
C20 C19 1_555 1_555
C21 C20 1_555 1_555
H22 C21 1_555 1_555
C22 C21 1_555 1_555
H23 C22 1_555 1_555
C23 C22 1_555 1_555
H24 C23 1_555 1_555
C24 N5 1_555 1_555
C25 C24 1_555 1_555
C26 N4 1_555 1_555
H25 C26 1_555 1_555
H26 C26 1_555 1_555
C27 C26 1_555 1_555
C28 C27 1_555 1_555
H27 C28 1_555 1_555
C29 C28 1_555 1_555
H28 C29 1_555 1_555
C30 C29 1_555 1_555
H29 C30 1_555 1_555
C31 N6 1_555 1_555
C32 C31 1_555 1_555
Tb1B N1B 1_555 1_555
Tb1B_2 N6 1_555 1_555
Tb1A O5 1_555 1_555
Tb1C O5B 1_555 1_555
N1B C2B 1_555 1_555
N2B Tb1B 1_555 1_555
N3B Tb1B 1_555 1_555
O1B Tb1B 1_555 1_555
O2B C9B 1_555 1_555
O3B Tb1B 1_555 1_555
O4B C16B 1_555 1_555
C1B H1B 1_555 1_555
H2B C1B 1_555 1_555
C2B C1B 1_555 1_555
H3B C2B 1_555 1_555
H4B C2B 1_555 1_555
C3B N1B 1_555 1_555
H5B C3B 1_555 1_555
H6B C3B 1_555 1_555
C4B N2B 1_555 1_555
C5B C4B 1_555 1_555
H7B C5B 1_555 1_555
C6B C5B 1_555 1_555
H8B C6B 1_555 1_555
C7B C6B 1_555 1_555
H9B C7B 1_555 1_555
C8B N2B 1_555 1_555
C9B O1B 1_555 1_555
C10B N1B 1_555 1_555
H10B C10B 1_555 1_555
H11B C10B 1_555 1_555
C11B N3B 1_555 1_555
C12B C11B 1_555 1_555
H12B C12B 1_555 1_555
C13B C12B 1_555 1_555
H13B C13B 1_555 1_555
C14B C13B 1_555 1_555
H14B C14B 1_555 1_555
C15B N3B 1_555 1_555
C16B O3B 1_555 1_555
N4B H15B 1_555 1_555
N5B C20B 1_555 1_555
N6B Tb1 1_555 1_555
N6_2 Tb1B 1_555 1_555
O5B C25B 1_555 1_555
O5A Tb1 1_555 1_555
O5C Tb1B 1_555 1_555
O6B Tb1C 1_555 1_555
O6A Tb1 1_555 1_555
O6C Tb1B 1_555 1_555
O7B Tb1 1_555 1_555
O7_2 Tb1B 1_555 1_555
O8B C32B 1_555 1_555
C17B C1B 1_555 1_555
H16B C17B 1_555 1_555
H17B C17B 1_555 1_555
C18B N4B 1_555 1_555
H18B C18B 1_555 1_555
H19B C18B 1_555 1_555
C19B N4B 1_555 1_555
H20B C19B 1_555 1_555
H21B C19B 1_555 1_555
C20B C19B 1_555 1_555
C21B C20B 1_555 1_555
H22B C21B 1_555 1_555
C22B C21B 1_555 1_555
H23B C22B 1_555 1_555
C23B C22B 1_555 1_555
H24B C23B 1_555 1_555
C24B N5B 1_555 1_555
C25B O6B 1_555 1_555
C26B N4B 1_555 1_555
H25B C26B 1_555 1_555
H26B C26B 1_555 1_555
C27B N6B 1_555 1_555
C28B C27B 1_555 1_555
H27B C28B 1_555 1_555
C29B C28B 1_555 1_555
H28B C29B 1_555 1_555
C30B C29B 1_555 1_555
H29B C30B 1_555 1_555
C31B N6B 1_555 1_555
C32B O7B 1_555 1_555
C3 C4 1_555 1_555
C7 C8 1_555 1_555
C8 C9 1_555 1_555
C10 C11 1_555 1_555
C14 C15 1_555 1_555
C15 C16 1_555 1_555
O6 Tb1A 1_555 1_555
O7 Tb1B_2 1_555 1_555
C17 C18 1_555 1_555
C23 C24 1_555 1_555
C30 C31 1_555 1_555
C3B C4B 1_555 1_555
C7B C8B 1_555 1_555
C8B C9B 1_555 1_555
C10B C11B 1_555 1_555
C14B C15B 1_555 1_555
C15B C16B 1_555 1_555
C17B C18B 1_555 1_555
C23B C24B 1_555 1_555
C24B C25B 1_555 1_555
C26B C27B 1_555 1_555
C30B C31B 1_555 1_555
C31B C32B 1_555 1_555

#END
