
#######################################################################
#
#                 Cambridge Crystallographic Data Centre
#                                CCDC 
#
#######################################################################
#
# If this CIF has been generated from an entry in the Cambridge 
# Structural Database, then it will include bibliographic, chemical, 
# crystal, experimental, refinement or atomic coordinate data resulting 
# from the CCDC's data processing and validation procedures.
#
#######################################################################

data_RUCZAR
_symmetry_cell_setting           monoclinic
_symmetry_space_group_name_H-M   'P 21/n'
_symmetry_Int_Tables_number      14
_space_group_name_Hall           '-P 2yn'
loop_
_symmetry_equiv_pos_site_id
_symmetry_equiv_pos_as_xyz
1 x,y,z
2 1/2-x,1/2+y,1/2-z
3 -x,-y,-z
4 1/2+x,1/2-y,1/2+z
_cell_length_a                   17.1057(7)
_cell_length_b                   14.2608(5)
_cell_length_c                   14.8950(6)
_cell_angle_alpha                90
_cell_angle_beta                 100.431(4)
_cell_angle_gamma                90
_cell_volume                     3573.45
loop_
_atom_site_label
_atom_site_type_symbol
_atom_site_fract_x
_atom_site_fract_y
_atom_site_fract_z
Er1 Er -0.18436(3) 0.15435(4) 0.04521(4)
N1 N -0.2418(5) 0.1282(6) -0.1349(6)
N2 N -0.1505(5) 0.0040(6) -0.0243(7)
N3 N -0.1239(5) 0.2532(6) -0.0573(7)
O1 O -0.0726(5) 0.0813(7) 0.1226(6)
O2 O 0.0060(5) -0.0412(8) 0.1582(7)
O3 O -0.1072(5) 0.2720(7) 0.1197(6)
O4 O -0.0344(9) 0.4016(8) 0.1211(8)
C1 C -0.3858(7) 0.1620(9) -0.1456(10)
H1 H -0.4012 0.0982 -0.1631
H2 H -0.3773 0.1658 -0.0795
C2 C -0.3120(6) 0.1854(9) -0.1773(9)
H3 H -0.3203 0.1770 -0.2430
H4 H -0.3001 0.2510 -0.1647
C3 C -0.2589(8) 0.0259(8) -0.1496(8)
H5 H -0.2674 0.0122 -0.2144
H6 H -0.3072 0.0101 -0.1274
C4 C -0.1920(7) -0.0325(9) -0.1013(9)
C5 C -0.1738(9) -0.1186(11) -0.1321(11)
H7 H -0.2030 -0.1416 -0.1863
C6 C -0.1129(10) -0.1722(11) -0.0842(11)
H8 H -0.1009 -0.2310 -0.1050
C7 C -0.0707(8) -0.1357(8) -0.0048(10)
H9 H -0.0295 -0.1698 0.0297
C8 C -0.0903(6) -0.0465(9) 0.0238(8)
C9 C -0.0480(7) 0.0003(11) 0.1085(9)
C10 C -0.1773(7) 0.1518(8) -0.1841(8)
H10 H -0.1388 0.1012 -0.1769
H11 H -0.1989 0.1582 -0.2486
C11 C -0.1365(7) 0.2411(9) -0.1497(9)
C12 C -0.1069(9) 0.3047(11) -0.2083(11)
H12 H -0.1164 0.2949 -0.2711
C13 C -0.0645(12) 0.3805(13) -0.1715(15)
H13 H -0.0450 0.4237 -0.2088
C14 C -0.0505(11) 0.3925(12) -0.0758(13)
H14 H -0.0194 0.4423 -0.0494
C15 C -0.0836(8) 0.3290(9) -0.0199(10)
C16 C -0.0738(10) 0.3373(10) 0.0821(11)
N4 N -0.6025(6) 0.2453(7) -0.1904(7)
H15 H -0.6164 0.2275 -0.2499
N5 N -0.7138(5) 0.4067(6) -0.2884(6)
N6 N -0.7523(7) 0.2067(8) -0.2871(10)
O5 O -0.7931(5) 0.4324(7) -0.4564(6)
O6 O -0.8978(6) 0.4882(7) -0.4095(7)
O7 O -0.7720(6) 0.2266(7) -0.4744(7)
O8 O -0.8865(8) 0.1542(10) -0.4864(9)
C17 C -0.4553(7) 0.2320(9) -0.1882(9)
H16 H -0.4651 0.2293 -0.2544
H17 H -0.4425 0.2961 -0.1689
C18 C -0.5259(7) 0.1962(10) -0.1505(9)
H18 H -0.5158 0.2045 -0.0848
H19 H -0.5320 0.1296 -0.1630
C19 C -0.5930(7) 0.3514(8) -0.1880(10)
H20 H -0.5616 0.3698 -0.1297
H21 H -0.5644 0.3706 -0.2356
C20 C -0.6729(8) 0.4017(9) -0.2016(9)
C21 C -0.6983(10) 0.4405(10) -0.1290(10)
H22 H -0.6650 0.4417 -0.0723
C22 C -0.7743(11) 0.4786(11) -0.1396(10)
H23 H -0.7947 0.5004 -0.0897
C23 C -0.8184(9) 0.4826(9) -0.2272(9)
H24 H -0.8691 0.5088 -0.2378
C24 C -0.7862(7) 0.4474(8) -0.2978(9)
C25 C -0.8292(7) 0.4548(9) -0.3959(9)
C26 C -0.6659(8) 0.2101(10) -0.1397(11)
H25 H -0.6646 0.2479 -0.0853
H26 H -0.6533 0.1461 -0.1203
C27 C -0.7480(8) 0.2125(9) -0.1944(12)
C28 C -0.8131(12) 0.2183(14) -0.1554(15)
H27 H -0.8078 0.2248 -0.0924
C29 C -0.8864(11) 0.2145(18) -0.2088(16)
H28 H -0.9318 0.2211 -0.1830
C30 C -0.8928(11) 0.2011(14) -0.3000(15)
H29 H -0.9424 0.1917 -0.3362
C31 C -0.8242(9) 0.2013(10) -0.3396(12)
C32 C -0.8265(11) 0.1942(11) -0.4418(10)
Er1C Er -0.68436(3) 0.34565(4) -0.45479(4)
N5C N -0.2138(5) 0.0933(6) 0.2116(6)
O5C O -0.2931(5) 0.0676(7) 0.0436(6)
O7C O -0.2720(6) 0.2734(7) 0.0256(7)
O9 O -0.7220(10) 0.5594(10) 0.1129(9)
O10 O -0.5554(7) 0.0857(10) 0.0805(8)
O11 O -0.5764(9) 0.4688(13) 0.1607(9)
O12 O -0.634(3) 0.285(2) 0.0725(12)
O13 O -0.817(3) 0.398(2) 0.0801(16)
O14 O -0.5000 0.5000 0.0000
loop_
_geom_bond_atom_site_label_1
_geom_bond_atom_site_label_2
_geom_bond_site_symmetry_1
_geom_bond_site_symmetry_2
Er1 N1 1_555 1_555
N1 C2 1_555 1_555
N2 Er1 1_555 1_555
N3 Er1 1_555 1_555
O1 Er1 1_555 1_555
O2 C9 1_555 1_555
O3 Er1 1_555 1_555
O4 C16 1_555 1_555
C1 H1 1_555 1_555
H2 C1 1_555 1_555
C2 C1 1_555 1_555
H3 C2 1_555 1_555
H4 C2 1_555 1_555
C3 N1 1_555 1_555
H5 C3 1_555 1_555
H6 C3 1_555 1_555
C4 N2 1_555 1_555
C5 C4 1_555 1_555
H7 C5 1_555 1_555
C6 C5 1_555 1_555
H8 C6 1_555 1_555
C7 C6 1_555 1_555
H9 C7 1_555 1_555
C8 N2 1_555 1_555
C9 O1 1_555 1_555
C10 N1 1_555 1_555
H10 C10 1_555 1_555
H11 C10 1_555 1_555
C11 N3 1_555 1_555
C12 C11 1_555 1_555
H12 C12 1_555 1_555
C13 C12 1_555 1_555
H13 C13 1_555 1_555
C14 C13 1_555 1_555
H14 C14 1_555 1_555
C15 N3 1_555 1_555
C16 O3 1_555 1_555
N4 H15 1_555 1_555
N5 C20 1_555 1_555
N6 C27 1_555 1_555
O5 C25 1_555 1_555
O6 C25 1_555 1_555
O7 C32 1_555 1_555
O8 C32 1_555 1_555
C17 C1 1_555 1_555
H16 C17 1_555 1_555
H17 C17 1_555 1_555
C18 N4 1_555 1_555
H18 C18 1_555 1_555
H19 C18 1_555 1_555
C19 N4 1_555 1_555
H20 C19 1_555 1_555
H21 C19 1_555 1_555
C20 C19 1_555 1_555
C21 C20 1_555 1_555
H22 C21 1_555 1_555
C22 C21 1_555 1_555
H23 C22 1_555 1_555
C23 C22 1_555 1_555
H24 C23 1_555 1_555
C24 N5 1_555 1_555
C25 C24 1_555 1_555
C26 N4 1_555 1_555
H25 C26 1_555 1_555
H26 C26 1_555 1_555
C27 C26 1_555 1_555
C28 C27 1_555 1_555
H27 C28 1_555 1_555
C29 C28 1_555 1_555
H28 C29 1_555 1_555
C30 C29 1_555 1_555
H29 C30 1_555 1_555
C31 N6 1_555 1_555
C32 C31 1_555 1_555
Er1C N5 1_555 1_555
N5C Er1 1_555 1_555
O5C Er1 1_555 1_555
O7C Er1 1_555 1_555
C3 C4 1_555 1_555
C7 C8 1_555 1_555
C8 C9 1_555 1_555
C10 C11 1_555 1_555
C14 C15 1_555 1_555
C15 C16 1_555 1_555
O5 Er1C 1_555 1_555
O7 Er1C 1_555 1_555
C17 C18 1_555 1_555
C23 C24 1_555 1_555
C30 C31 1_555 1_555

#END
