
#######################################################################
#
#                 Cambridge Crystallographic Data Centre
#                                CCDC 
#
#######################################################################
#
# If this CIF has been generated from an entry in the Cambridge 
# Structural Database, then it will include bibliographic, chemical, 
# crystal, experimental, refinement or atomic coordinate data resulting 
# from the CCDC's data processing and validation procedures.
#
#######################################################################

data_RUDGAZ
_symmetry_cell_setting           orthorhombic
_symmetry_space_group_name_H-M   'P c a 21'
_symmetry_Int_Tables_number      29
_space_group_name_Hall           'P 2c -2ac'
loop_
_symmetry_equiv_pos_site_id
_symmetry_equiv_pos_as_xyz
1 x,y,z
2 -x,-y,1/2+z
3 1/2+x,-y,z
4 1/2-x,y,1/2+z
_cell_length_a                   17.3753(4)
_cell_length_b                   15.5977(3)
_cell_length_c                   7.2248(2)
_cell_angle_alpha                90
_cell_angle_beta                 90
_cell_angle_gamma                90
_cell_volume                     1958.03
loop_
_atom_site_label
_atom_site_type_symbol
_atom_site_fract_x
_atom_site_fract_y
_atom_site_fract_z
Pb1 Pb 0.545108(4) 0.882887(4) 0.41172(3)
N1 N 0.63786(14) 0.74612(14) 0.3685(3)
N2 N 0.48806(12) 0.72556(13) 0.4390(3)
N3 N 0.40414(14) 0.87155(14) 0.5061(3)
N4 N 0.37908(14) 0.64209(16) 0.5204(4)
N5 N 0.42086(15) 0.57085(15) 0.5048(4)
N6 N 0.60630(15) 0.49202(15) 0.5507(4)
C1 C 0.70991(17) 0.76198(18) 0.3176(4)
H1 H 0.7299 0.8165 0.3374
C2 C 0.75665(17) 0.70041(19) 0.2362(4)
H2 H 0.8081 0.7120 0.2109
C3 C 0.72518(19) 0.62165(18) 0.1936(4)
H3 H 0.7544 0.5806 0.1322
C4 C 0.64942(17) 0.60409(17) 0.2432(4)
H4 H 0.6268 0.5518 0.2142
C5 C 0.60855(17) 0.66714(16) 0.3374(4)
C6 C 0.52954(12) 0.65460(13) 0.4120(7)
C7 C 0.49555(16) 0.57475(17) 0.4606(4)
C8 C 0.41543(15) 0.71741(17) 0.4981(4)
C9 C 0.36978(15) 0.79550(17) 0.5366(4)
C10 C 0.29467(17) 0.78925(19) 0.6001(4)
H5 H 0.2733 0.7359 0.6262
C11 C 0.2519(2) 0.8634(2) 0.6242(4)
H6 H 0.2014 0.8607 0.6664
C12 C 0.28586(18) 0.94142(18) 0.5842(4)
H7 H 0.2581 0.9921 0.5949
C13 C 0.36238(17) 0.94255(18) 0.5276(4)
H8 H 0.3854 0.9952 0.5037
C14 C 0.53600(16) 0.49038(17) 0.4762(4)
C15 C 0.64166(19) 0.41627(19) 0.5712(4)
H9 H 0.6910 0.4157 0.6210
C16 C 0.60844(19) 0.33852(18) 0.5221(5)
H10 H 0.6353 0.2876 0.5391
C17 C 0.53487(17) 0.33740(18) 0.4474(4)
H11 H 0.5112 0.2862 0.4140
C18 C 0.49782(15) 0.41582(15) 0.4245(6)
H12 H 0.4484 0.4183 0.3755
N7 N 0.61079(16) 0.85834(18) 0.8041(4)
O1 O 0.65578(14) 0.89734(14) 0.6968(4)
O2 O 0.54785(12) 0.82958(15) 0.7364(3)
O3 O 0.62633(16) 0.84712(18) 0.9683(4)
N8 N 0.44105(14) 0.92127(15) 0.0516(3)
O4 O 0.48154(13) 0.98112(12) 0.1223(3)
O5 O 0.44607(12) 0.84766(14) 0.1202(3)
O6 O 0.39735(12) 0.93704(12) -0.0775(5)
Pb1A Pb 0.454892(4) 1.117113(4) -0.08828(3)
O4A O 0.51846(13) 1.01888(12) 0.6223(3)
O6A O 0.60265(12) 1.06296(12) 0.4225(5)
loop_
_geom_bond_atom_site_label_1
_geom_bond_atom_site_label_2
_geom_bond_site_symmetry_1
_geom_bond_site_symmetry_2
Pb1 N1 1_555 1_555
N1 C1 1_555 1_555
N2 Pb1 1_555 1_555
N3 Pb1 1_555 1_555
N4 N5 1_555 1_555
N5 C7 1_555 1_555
N6 C14 1_555 1_555
C1 H1 1_555 1_555
C2 C1 1_555 1_555
H2 C2 1_555 1_555
C3 C2 1_555 1_555
H3 C3 1_555 1_555
C4 C3 1_555 1_555
H4 C4 1_555 1_555
C5 N1 1_555 1_555
C6 N2 1_555 1_555
C7 C6 1_555 1_555
C8 N2 1_555 1_555
C9 N3 1_555 1_555
C10 C9 1_555 1_555
H5 C10 1_555 1_555
C11 C10 1_555 1_555
H6 C11 1_555 1_555
C12 C11 1_555 1_555
H7 C12 1_555 1_555
C13 N3 1_555 1_555
H8 C13 1_555 1_555
C14 C7 1_555 1_555
C15 N6 1_555 1_555
H9 C15 1_555 1_555
C16 C15 1_555 1_555
H10 C16 1_555 1_555
C17 C16 1_555 1_555
H11 C17 1_555 1_555
C18 C14 1_555 1_555
H12 C18 1_555 1_555
N7 O1 1_555 1_555
O1 Pb1 1_555 1_555
O2 Pb1 1_555 1_555
O3 N7 1_555 1_555
N8 O4 1_555 1_555
O4 Pb1 1_555 1_555
O5 Pb1 1_555 1_555
O6 N8 1_555 1_555
Pb1A O4 1_555 1_555
O4A Pb1 1_555 1_555
O6A Pb1 1_555 1_555
N4 C8 1_555 1_555
C4 C5 1_555 1_555
C5 C6 1_555 1_555
C8 C9 1_555 1_555
C12 C13 1_555 1_555
C17 C18 1_555 1_555
N7 O2 1_555 1_555
N8 O5 1_555 1_555
O6 Pb1A 1_555 1_555

#END
