
#######################################################################
#
#                 Cambridge Crystallographic Data Centre
#                                CCDC 
#
#######################################################################
#
# If this CIF has been generated from an entry in the Cambridge 
# Structural Database, then it will include bibliographic, chemical, 
# crystal, experimental, refinement or atomic coordinate data resulting 
# from the CCDC's data processing and validation procedures.
#
#######################################################################

data_RUDSAL
_symmetry_cell_setting           orthorhombic
_symmetry_space_group_name_H-M   'P n m a'
_symmetry_Int_Tables_number      62
_space_group_name_Hall           '-P 2ac 2n'
loop_
_symmetry_equiv_pos_site_id
_symmetry_equiv_pos_as_xyz
1 x,y,z
2 1/2-x,-y,1/2+z
3 1/2+x,1/2-y,1/2-z
4 -x,1/2+y,-z
5 -x,-y,-z
6 1/2+x,y,1/2-z
7 1/2-x,1/2+y,1/2+z
8 x,1/2-y,z
_cell_length_a                   6.418(2)
_cell_length_b                   10.099(3)
_cell_length_c                   17.553(5)
_cell_angle_alpha                90
_cell_angle_beta                 90
_cell_angle_gamma                90
_cell_volume                     1137.7
loop_
_atom_site_label
_atom_site_type_symbol
_atom_site_fract_x
_atom_site_fract_y
_atom_site_fract_z
Pb1 Pb 0.17942(3) -0.7500 0.334120(9)
O1 O 0.5582(6) -0.7500 0.3773(2)
H1 H 0.5997 -0.6834 0.3538
O2 O 0.3869(8) -0.3575(3) -0.03075(16)
O3 O 0.3274(4) -0.5002(4) 0.32033(17)
O4 O 0.3349(4) -0.6053(3) 0.21152(16)
C1 C 0.3683(8) -0.2500 0.0889(3)
C2 C 0.3464(5) -0.3692(4) 0.2082(2)
C3 C 0.3809(9) -0.2500 0.0040(3)
C4 C 0.3365(5) -0.5000(4) 0.2501(2)
C5 C 0.3383(7) -0.2500 0.2476(3)
H2 H 0.3273 -0.2500 0.3004
C6 C 0.3611(5) -0.3691(4) 0.12835(19)
H3 H 0.3659 -0.4488 0.1019
Na1 Na 0.3552(6) -0.3969(4) 0.4659(2)
Pb1B Pb 0.67942(3) -0.7500 0.165880(9)
Pb1_2 Pb 0.17942(3) 0.2500 0.334120(9)
Pb1B_2 Pb 0.67942(3) 0.2500 0.165880(9)
Pb1A Pb 0.32058(3) -0.2500 -0.165880(9)
H1G H 0.5997 -0.8166 0.3538
O2F O 0.1131(8) -0.8575(3) 0.46925(16)
O2A O 0.1131(8) -0.6425(3) 0.46925(16)
O2G O 0.3869(8) -0.1425(3) -0.03075(16)
O3G O 0.3274(4) -0.9998(4) 0.32033(17)
O3G_2 O 0.3274(4) 0.0002(4) 0.32033(17)
O4B O -0.1651(4) -0.8947(3) 0.28848(16)
O4E O -0.1651(4) -0.6053(3) 0.28848(16)
O4G O 0.3349(4) -0.8947(3) 0.21152(16)
O4G_2 O 0.3349(4) 0.1053(3) 0.21152(16)
C2G C 0.3464(5) -0.1308(4) 0.2082(2)
C4G C 0.3365(5) 0.0000(4) 0.2501(2)
C6G C 0.3611(5) -0.1309(4) 0.12835(19)
H3G H 0.3659 -0.0512 0.1019
Na1G Na 0.3552(6) -0.1031(4) 0.4659(2)
loop_
_geom_bond_atom_site_label_1
_geom_bond_atom_site_label_2
_geom_bond_site_symmetry_1
_geom_bond_site_symmetry_2
Pb1 O1 1_555 1_555
O1 H1 1_555 1_555
O2 C3 1_555 1_555
O3 Pb1 1_555 1_555
O4 Pb1 1_555 1_555
C1 C3 1_555 1_555
C2 C4 1_555 1_555
C3 O2G 1_555 1_555
C4 O3 1_555 1_555
C5 C2 1_555 1_555
H2 C5 1_555 1_555
C6 C1 1_555 1_555
H3 C6 1_555 1_555
Na1 O3 1_555 1_555
Pb1B O4 1_555 1_555
Pb1_2 O3G_2 1_555 1_555
Pb1B_2 O4G_2 1_555 1_555
Pb1A O2 1_555 1_555
H1G O1 1_555 1_555
O2F Pb1 1_555 1_555
O2A Pb1 1_555 1_555
O2G Pb1A 1_555 1_555
O3G Pb1 1_555 1_555
O3G_2 C4G 1_555 1_555
O4B Pb1 1_555 1_555
O4E Pb1 1_555 1_555
O4G Pb1 1_555 1_555
O4G_2 Pb1_2 1_555 1_555
C2G C5 1_555 1_555
C4G O4G_2 1_555 1_555
C6G C1 1_555 1_555
H3G C6G 1_555 1_555
Na1G O3G_2 1_555 1_555
O4 C4 1_555 1_555
C2 C6 1_555 1_555
Pb1B O4G 1_555 1_555
C2G C4G 1_555 1_555
C2G C6G 1_555 1_555

#END
