
#######################################################################
#
#                 Cambridge Crystallographic Data Centre
#                                CCDC 
#
#######################################################################
#
# If this CIF has been generated from an entry in the Cambridge 
# Structural Database, then it will include bibliographic, chemical, 
# crystal, experimental, refinement or atomic coordinate data resulting 
# from the CCDC's data processing and validation procedures.
#
#######################################################################

data_RUFSUI
_symmetry_cell_setting           monoclinic
_symmetry_space_group_name_H-M   'P 21'
_symmetry_Int_Tables_number      4
_space_group_name_Hall           'P 2yb'
loop_
_symmetry_equiv_pos_site_id
_symmetry_equiv_pos_as_xyz
1 x,y,z
2 -x,1/2+y,-z
_cell_length_a                   8.1979(8)
_cell_length_b                   16.2506(15)
_cell_length_c                   10.0947(10)
_cell_angle_alpha                90
_cell_angle_beta                 102.638(2)
_cell_angle_gamma                90
_cell_volume                     1312.24
loop_
_atom_site_label
_atom_site_type_symbol
_atom_site_fract_x
_atom_site_fract_y
_atom_site_fract_z
Sn1 Sn 0.81657(6) -0.00071(3) 0.85159(5)
O1 O 0.6841(7) 0.0759(4) 0.6920(5)
O2 O 0.8315(7) -0.0158(4) 0.6102(5)
O3 O 0.6841(6) 0.0714(4) -0.0296(5)
O4 O 0.8585(6) -0.0069(5) 0.1107(5)
O5 O 0.1778(7) 0.0165(4) 0.2474(6)
H1 H 0.079(5) 0.004(7) 0.210(9)
O6 O 0.1156(7) 0.1498(4) 0.2042(6)
C1 C 0.6699(10) 0.0828(6) 0.4530(8)
H2 H 0.6960 0.1430 0.4584
C2 C 0.7488(10) 0.0444(5) 0.3436(7)
H3 H 0.8710 0.0541 0.3665
H4 H 0.7296 -0.0157 0.3409
C3 C 0.6746(9) 0.0811(5) 0.2048(8)
H5 H 0.7002 0.1414 0.2097
C4 C 0.4844(9) 0.0718(5) 0.1687(8)
H6 H 0.4556 0.0127 0.1574
H7 H 0.4394 0.0996 0.0811
C5 C 0.4011(10) 0.1090(5) 0.2795(8)
H8 H 0.4235 0.1695 0.2841
C6 C 0.4791(10) 0.0720(6) 0.4177(8)
H9 H 0.4519 0.0126 0.4172
H10 H 0.4307 0.0989 0.4883
C7 C 0.7359(11) 0.0450(6) 0.5906(8)
C8 C 0.7467(10) 0.0455(5) 0.0918(8)
C9 C 0.2174(10) 0.0967(5) 0.2392(8)
C10 C 1.0490(10) 0.0576(5) 0.8918(8)
H11 H 1.1359 0.0182 0.9330
H12 H 1.0478 0.1036 0.9544
H13 H 1.0726 0.0784 0.8068
C11 C 0.6632(10) -0.1044(5) 0.8346(8)
H14 H 0.6518 -0.1286 0.7441
H15 H 0.5526 -0.0884 0.8480
H16 H 0.7130 -0.1449 0.9036
Sn2 Sn 1.04388(6) -0.14928(3) 1.57836(5)
O7 O 1.1731(7) -0.2246(3) 1.4604(5)
O8 O 1.0112(6) -0.1382(4) 1.3279(5)
O9 O 1.1758(7) -0.2214(3) 0.7416(5)
O10 O 1.0243(6) -0.1308(3) 0.8212(5)
O11 O 1.6829(6) -0.1522(4) 1.1901(5)
H17 H 1.784(3) -0.143(6) 1.225(7)
O12 O 1.7539(7) -0.2842(4) 1.2103(6)
C12 C 1.1912(9) -0.2275(5) 1.2288(8)
H18 H 1.1717 -0.2882 1.2236
C13 C 1.1111(9) -0.1906(5) 1.0903(7)
H19 H 0.9902 -0.2035 1.0678
H20 H 1.1239 -0.1300 1.0939
C14 C 1.1924(9) -0.2249(5) 0.9822(8)
H21 H 1.1729 -0.2857 0.9774
C15 C 1.3839(10) -0.2099(5) 1.0182(8)
H22 H 1.4351 -0.2352 0.9480
H23 H 1.4062 -0.1500 1.0191
C16 C 1.4626(9) -0.2461(5) 1.1559(8)
H24 H 1.4433 -0.3069 1.1506
C17 C 1.3821(9) -0.2128(5) 1.2661(8)
H25 H 1.4050 -0.1532 1.2777
H26 H 1.4306 -0.2405 1.3531
C18 C 1.1168(9) -0.1943(5) 1.3423(7)
C19 C 1.6488(10) -0.2320(5) 1.1890(8)
C20 C 1.1243(9) -0.1896(5) 0.8434(7)
C21 C 0.8082(9) -0.2046(5) 1.5390(8)
H27 H 0.8092 -0.2534 1.4821
H28 H 0.7244 -0.1655 1.4916
H29 H 0.7803 -0.2210 1.6249
C22 C 1.1993(10) -0.0457(6) 1.5954(9)
H30 H 1.1420 -0.0018 1.5366
H31 H 1.3030 -0.0602 1.5677
H32 H 1.2256 -0.0267 1.6898
Sn1_2 Sn 0.81657(6) -0.00071(3) -0.14841(5)
O3_2 O 0.6841(6) 0.0714(4) 0.9704(5)
O4_2 O 0.8585(6) -0.0069(5) 1.1107(5)
Sn2_2 Sn 1.04388(6) -0.14928(3) 0.57836(5)
O9_2 O 1.1758(7) -0.2214(3) 1.7416(5)
O10_2 O 1.0243(6) -0.1308(3) 1.8212(5)
loop_
_geom_bond_atom_site_label_1
_geom_bond_atom_site_label_2
_geom_bond_site_symmetry_1
_geom_bond_site_symmetry_2
Sn1 O1 1_555 1_555
O1 C7 1_555 1_555
O2 Sn1 1_555 1_555
O3 C8 1_555 1_555
O4 C8 1_555 1_555
O5 H1 1_555 1_555
O6 C9 1_555 1_555
C1 H2 1_555 1_555
C2 C1 1_555 1_555
H3 C2 1_555 1_555
H4 C2 1_555 1_555
C3 C2 1_555 1_555
H5 C3 1_555 1_555
C4 C3 1_555 1_555
H6 C4 1_555 1_555
H7 C4 1_555 1_555
C5 C4 1_555 1_555
H8 C5 1_555 1_555
C6 C1 1_555 1_555
H9 C6 1_555 1_555
H10 C6 1_555 1_555
C7 O2 1_555 1_555
C8 C3 1_555 1_555
C9 O5 1_555 1_555
C10 Sn1 1_555 1_555
H11 C10 1_555 1_555
H12 C10 1_555 1_555
H13 C10 1_555 1_555
C11 Sn1 1_555 1_555
H14 C11 1_555 1_555
H15 C11 1_555 1_555
H16 C11 1_555 1_555
Sn2 O7 1_555 1_555
O7 C18 1_555 1_555
O8 Sn2 1_555 1_555
O9 C20 1_555 1_555
O10 Sn1 1_555 1_555
O11 H17 1_555 1_555
O12 C19 1_555 1_555
C12 H18 1_555 1_555
C13 C12 1_555 1_555
H19 C13 1_555 1_555
H20 C13 1_555 1_555
C14 C13 1_555 1_555
H21 C14 1_555 1_555
C15 C14 1_555 1_555
H22 C15 1_555 1_555
H23 C15 1_555 1_555
C16 C15 1_555 1_555
H24 C16 1_555 1_555
C17 C12 1_555 1_555
H25 C17 1_555 1_555
H26 C17 1_555 1_555
C18 O8 1_555 1_555
C19 O11 1_555 1_555
C20 O10 1_555 1_555
C21 Sn2 1_555 1_555
H27 C21 1_555 1_555
H28 C21 1_555 1_555
H29 C21 1_555 1_555
C22 Sn2 1_555 1_555
H30 C22 1_555 1_555
H31 C22 1_555 1_555
H32 C22 1_555 1_555
Sn1_2 O3 1_555 1_555
O3_2 Sn1 1_555 1_555
O4_2 Sn1 1_555 1_555
Sn2_2 O9 1_555 1_555
O9_2 Sn2 1_555 1_555
O10_2 Sn2 1_555 1_555
O4 Sn1_2 1_555 1_555
C1 C7 1_555 1_555
C5 C6 1_555 1_555
C5 C9 1_555 1_555
O10 Sn2_2 1_555 1_555
C12 C18 1_555 1_555
C14 C20 1_555 1_555
C16 C17 1_555 1_555
C16 C19 1_555 1_555

#END
