
#######################################################################
#
#                 Cambridge Crystallographic Data Centre
#                                CCDC 
#
#######################################################################
#
# If this CIF has been generated from an entry in the Cambridge 
# Structural Database, then it will include bibliographic, chemical, 
# crystal, experimental, refinement or atomic coordinate data resulting 
# from the CCDC's data processing and validation procedures.
#
#######################################################################

data_RUFTAP
_symmetry_cell_setting           monoclinic
_symmetry_space_group_name_H-M   'P 21/n'
_symmetry_Int_Tables_number      14
_space_group_name_Hall           '-P 2yn'
loop_
_symmetry_equiv_pos_site_id
_symmetry_equiv_pos_as_xyz
1 x,y,z
2 1/2-x,1/2+y,1/2-z
3 -x,-y,-z
4 1/2+x,1/2-y,1/2+z
_cell_length_a                   10.2338(7)
_cell_length_b                   8.3870(4)
_cell_length_c                   18.4587(14)
_cell_angle_alpha                90
_cell_angle_beta                 94.877(6)
_cell_angle_gamma                90
_cell_volume                     1578.59
loop_
_atom_site_label
_atom_site_type_symbol
_atom_site_fract_x
_atom_site_fract_y
_atom_site_fract_z
Zn1 Zn 0.30057(5) 0.32513(6) 0.40728(3)
O1 O 0.1795(4) 0.9249(4) 0.3374(2)
H1 H 0.1650 1.0143 0.3529
O2 O 0.3073(4) 0.2218(5) 0.5103(2)
O3 O 0.1286(3) 0.2223(4) 0.3724(2)
O4 O 0.4551(3) 0.8480(4) 0.4262(2)
H2 H 0.4393 0.9389 0.4116
O5 O -0.4621(3) 0.3670(4) 0.4250(2)
O6 O 0.3020(4) 0.4541(4) 0.3032(2)
O7 O -0.5684(3) 0.1659(4) 0.3710(2)
O8 O 0.0127(3) 0.4068(5) 0.4235(3)
N1 N 0.2719(3) 0.5582(4) 0.4393(2)
C1 C 0.2717(4) 0.6769(5) 0.3790(2)
C2 C 0.2212(5) 0.5925(6) 0.3092(3)
H3 H 0.1302 0.5617 0.3113
H4 H 0.2274 0.6622 0.2677
C3 C -0.3426(5) 0.0785(6) 0.3005(3)
H5 H -0.4217 0.0326 0.2829
C4 C -0.3400(4) 0.1873(5) 0.3563(3)
C5 C -0.2203(4) 0.2523(5) 0.3830(2)
H6 H -0.2180 0.3261 0.4207
C6 C -0.4629(4) 0.2441(6) 0.3870(3)
C7 C -0.1052(4) 0.2094(5) 0.3548(3)
C8 C -0.1086(5) 0.1019(6) 0.2977(3)
H7 H -0.0316 0.0731 0.2778
C9 C 0.1789(4) 0.8128(5) 0.3949(3)
H8 H 0.0910 0.7720 0.3982
H9 H 0.2080 0.8631 0.4407
C10 C -0.2284(5) 0.0372(7) 0.2704(3)
H10 H -0.2313 -0.0342 0.2318
C11 C 0.4108(5) 0.7373(6) 0.3713(3)
H11 H 0.4703 0.6471 0.3732
H12 H 0.4135 0.7876 0.3242
C12 C 0.0202(4) 0.2878(6) 0.3870(3)
C13 C 0.2179(8) 0.2387(13) 0.5634(5)
H13 H 0.2389 0.3328 0.5916
H14 H 0.2230 0.1470 0.5946
H15 H 0.1307 0.2479 0.5401
H16 H 0.184(5) 0.545(6) 0.459(3)
H17 H 0.3387 0.5804 0.4761
H18 H 0.297(5) 0.440(7) 0.2519(4)
H19 H 0.389(5) 0.195(13) 0.536(5)
Zn1_2 Zn -0.69943(5) 0.32513(6) 0.40728(3)
O5_2 O 0.5379(3) 0.3670(4) 0.4250(2)
O7_2 O 0.4316(3) 0.1659(4) 0.3710(2)
loop_
_geom_bond_atom_site_label_1
_geom_bond_atom_site_label_2
_geom_bond_site_symmetry_1
_geom_bond_site_symmetry_2
Zn1 O2 1_555 1_555
O1 H1 1_555 1_555
O2 C13 1_555 1_555
O3 Zn1 1_555 1_555
O4 H2 1_555 1_555
O5 C6 1_555 1_555
O6 Zn1 1_555 1_555
O7 C6 1_555 1_555
O8 C12 1_555 1_555
N1 Zn1 1_555 1_555
C1 N1 1_555 1_555
C2 O6 1_555 1_555
H3 C2 1_555 1_555
H4 C2 1_555 1_555
C3 H5 1_555 1_555
C4 C3 1_555 1_555
C5 C4 1_555 1_555
H6 C5 1_555 1_555
C6 C4 1_555 1_555
C7 C5 1_555 1_555
C8 C7 1_555 1_555
H7 C8 1_555 1_555
C9 O1 1_555 1_555
H8 C9 1_555 1_555
H9 C9 1_555 1_555
C10 C3 1_555 1_555
H10 C10 1_555 1_555
C11 O4 1_555 1_555
H11 C11 1_555 1_555
H12 C11 1_555 1_555
C12 O3 1_555 1_555
C13 H13 1_555 1_555
H14 C13 1_555 1_555
H15 C13 1_555 1_555
H16 N1 1_555 1_555
H17 N1 1_555 1_555
H18 O6 1_555 1_555
H19 O2 1_555 1_555
Zn1_2 O5 1_555 1_555
O5_2 Zn1 1_555 1_555
O7_2 Zn1 1_555 1_555
O7 Zn1_2 1_555 1_555
C1 C2 1_555 1_555
C1 C9 1_555 1_555
C1 C11 1_555 1_555
C7 C12 1_555 1_555
C8 C10 1_555 1_555

#END
