
#######################################################################
#
#                 Cambridge Crystallographic Data Centre
#                                CCDC 
#
#######################################################################
#
# If this CIF has been generated from an entry in the Cambridge 
# Structural Database, then it will include bibliographic, chemical, 
# crystal, experimental, refinement or atomic coordinate data resulting 
# from the CCDC's data processing and validation procedures.
#
#######################################################################

data_RUFVEV
_symmetry_cell_setting           triclinic
_symmetry_space_group_name_H-M   'P -1'
_symmetry_Int_Tables_number      2
_space_group_name_Hall           '-P 1'
loop_
_symmetry_equiv_pos_site_id
_symmetry_equiv_pos_as_xyz
1 x,y,z
2 -x,-y,-z
_cell_length_a                   7.570(7)
_cell_length_b                   10.630(10)
_cell_length_c                   16.062(15)
_cell_angle_alpha                97.955(10)
_cell_angle_beta                 94.363(11)
_cell_angle_gamma                103.286(10)
_cell_volume                     1237.97
loop_
_atom_site_label
_atom_site_type_symbol
_atom_site_fract_x
_atom_site_fract_y
_atom_site_fract_z
Mn1 Mn 1.15301(10) 1.16370(7) 0.49674(5)
Mn2 Mn 1.0000 1.0000 1.0000
N1 N 0.8760(6) 0.8938(4) 1.0957(3)
N2 N 0.7264(6) 0.7376(4) 1.1591(3)
N3 N 0.4555(6) 0.3971(5) 1.1068(3)
N4 N 0.3756(6) 0.4458(4) 1.3313(3)
N5 N 0.2619(6) 0.3290(4) 1.4284(3)
O1 O 1.2744(7) 1.0489(5) 0.4033(3)
O2 O 1.6875(6) 1.1580(4) 0.8822(2)
H1 H 1.7286 1.1932 0.9306
O3 O 1.7205(5) 0.9713(4) 0.9249(2)
O4 O 1.0197(5) 0.8202(4) 0.9162(2)
O5 O 1.1450(6) 0.6953(4) 0.9919(2)
O6 O 1.0876(6) 0.3044(4) 0.5876(2)
O7 O 0.8264(6) 0.2079(4) 0.6333(3)
O8 O 1.3425(6) 1.1200(4) 0.5965(2)
O9 O 1.1049(5) 0.9528(4) 0.5608(2)
C1 C 0.7517(8) 0.7816(5) 1.0842(3)
H2 H 0.6898 0.7385 1.0321
C2 C 0.8442(7) 0.8294(5) 1.2211(3)
H3 H 0.8592 0.8264 1.2788
C3 C 0.9319(8) 0.9233(5) 1.1803(3)
H4 H 1.0189 0.9980 1.2062
C4 C 0.6122(7) 0.6154(5) 1.1707(3)
C5 C 0.5689(8) 0.5121(5) 1.1038(3)
H5 H 0.6218 0.5238 1.0541
C6 C 0.3883(8) 0.3795(5) 1.1811(3)
H6 H 0.3044 0.3017 1.1842
C7 C 0.4408(7) 0.4740(5) 1.2529(3)
C8 C 0.5493(7) 0.5969(5) 1.2481(3)
H7 H 0.5784 0.6636 1.2946
C9 C 0.3225(8) 0.3247(5) 1.3536(4)
H8 H 0.3285 0.2477 1.3197
C10 C 0.2760(8) 0.4610(5) 1.4563(4)
H9 H 0.2419 0.4953 1.5073
C11 C 0.3476(7) 0.5322(5) 1.3972(3)
H10 H 0.3727 0.6228 1.4011
C12 C 1.0768(7) 0.7204(5) 0.9246(3)
C13 C 1.0551(7) 0.6151(5) 0.8477(3)
C14 C 1.1270(7) 0.6399(5) 0.7722(3)
C15 C 1.0976(7) 0.5361(5) 0.7053(3)
H11 H 1.1500 0.5503 0.6558
C16 C 0.9925(7) 0.4122(5) 0.7102(3)
C17 C 0.9202(7) 0.3894(5) 0.7848(3)
H12 H 0.8483 0.3072 0.7887
C18 C 0.9549(7) 0.4893(5) 0.8541(3)
H13 H 0.9112 0.4724 0.9051
C19 C 1.2421(7) 0.7703(5) 0.7624(3)
C20 C 1.3851(6) 0.8401(5) 0.8229(3)
H14 H 1.4086 0.8062 0.8717
C21 C 1.4947(6) 0.9611(5) 0.8113(3)
C22 C 1.4568(7) 1.0146(5) 0.7392(3)
H15 H 1.5273 1.0956 0.7319
C23 C 1.3131(7) 0.9465(5) 0.6781(3)
C24 C 1.2078(7) 0.8236(5) 0.6900(3)
H16 H 1.1137 0.7773 0.6488
C25 C 1.6458(7) 1.0324(5) 0.8787(3)
C26 C 1.2519(7) 1.0094(5) 0.6067(3)
C27 C 0.9640(7) 0.2994(5) 0.6374(3)
H17 H 1.36(2) 1.079(15) 0.441(9)
H18 H 1.233(9) 0.976(8) 0.391(4)
Mn1A Mn 0.84699(10) 0.83630(7) 0.50326(5)
O1A O 0.7256(7) 0.9511(5) 0.5967(3)
O2A O 0.3125(6) 0.8420(4) 0.1178(2)
H1A H 0.2714 0.8068 0.0694
O3A O 0.2795(5) 1.0287(4) 0.0751(2)
O4A O 0.9803(5) 1.1798(4) 0.0838(2)
O5A O 0.8550(6) 1.3047(4) 0.0081(2)
O6A O 0.9124(6) 1.6956(4) 0.4124(2)
O7A O 1.1736(6) 1.7921(4) 0.3667(3)
O8A O 0.6575(6) 0.8800(4) 0.4035(2)
O9A O 0.8951(5) 1.0472(4) 0.4392(2)
C12A C 0.9232(7) 1.2796(5) 0.0754(3)
C13A C 0.9449(7) 1.3849(5) 0.1523(3)
C14A C 0.8730(7) 1.3601(5) 0.2278(3)
C15A C 0.9024(7) 1.4639(5) 0.2947(3)
H11A H 0.8500 1.4497 0.3442
C16A C 1.0075(7) 1.5878(5) 0.2898(3)
C17A C 1.0798(7) 1.6106(5) 0.2152(3)
H12A H 1.1517 1.6928 0.2113
C18A C 1.0451(7) 1.5107(5) 0.1459(3)
H13A H 1.0888 1.5276 0.0949
C19A C 0.7579(7) 1.2297(5) 0.2376(3)
C20A C 0.6149(6) 1.1599(5) 0.1771(3)
H14A H 0.5914 1.1938 0.1283
C21A C 0.5053(6) 1.0389(5) 0.1887(3)
C22A C 0.5432(7) 0.9854(5) 0.2608(3)
H15A H 0.4727 0.9044 0.2681
C23A C 0.6869(7) 1.0535(5) 0.3219(3)
C24A C 0.7922(7) 1.1764(5) 0.3100(3)
H16A H 0.8863 1.2227 0.3512
C25A C 0.3542(7) 0.9676(5) 0.1213(3)
C26A C 0.7481(7) 0.9906(5) 0.3933(3)
C27A C 1.0360(7) 1.7006(5) 0.3626(3)
H17A H 0.64(2) 0.921(15) 0.559(9)
H18A H 0.767(9) 1.024(8) 0.609(4)
N1_2 N 1.8760(6) 1.8938(4) 0.0957(3)
N2_2 N 1.7264(6) 1.7376(4) 0.1591(3)
N3_2 N 1.4555(6) 1.3971(5) 0.1068(3)
N4_2 N 1.3756(6) 1.4458(4) 0.3313(3)
N5_2 N 1.2619(6) 1.3290(4) 0.4284(3)
C1_2 C 1.7517(8) 1.7816(5) 0.0842(3)
H2_2 H 1.6898 1.7385 0.0321
C2_2 C 1.8442(7) 1.8294(5) 0.2211(3)
H3_2 H 1.8592 1.8264 0.2788
C3_2 C 1.9319(8) 1.9233(5) 0.1803(3)
H4_2 H 2.0189 1.9980 0.2062
C4_2 C 1.6122(7) 1.6154(5) 0.1707(3)
C5_2 C 1.5689(8) 1.5121(5) 0.1038(3)
H5_2 H 1.6218 1.5238 0.0541
C6_2 C 1.3883(8) 1.3795(5) 0.1811(3)
H6_2 H 1.3044 1.3017 0.1842
C7_2 C 1.4408(7) 1.4740(5) 0.2529(3)
C8_2 C 1.5493(7) 1.5969(5) 0.2481(3)
H7_2 H 1.5784 1.6636 0.2946
C9_2 C 1.3225(8) 1.3247(5) 0.3536(4)
H8_2 H 1.3285 1.2477 0.3197
C10_2 C 1.2760(8) 1.4610(5) 0.4563(4)
H9_2 H 1.2419 1.4953 0.5073
C11_2 C 1.3476(7) 1.5322(5) 0.3972(3)
H10_2 H 1.3727 1.6228 0.4011
Mn1_2 Mn 0.15301(10) 0.16370(7) 1.49674(5)
Mn1_3 Mn 1.15301(10) 0.16370(7) 0.49674(5)
Mn1A_2 Mn 0.84699(10) 1.83630(7) 0.50326(5)
Mn2_2 Mn 0.0000 1.0000 0.0000
Mn2_3 Mn 1.0000 1.0000 0.0000
Mn2_4 Mn 2.0000 1.0000 1.0000
Mn2_5 Mn 2.0000 2.0000 0.0000
N1A N 1.1240(6) 1.1062(4) 0.9043(3)
N5A N 0.7381(6) 0.6710(4) 0.5716(3)
O3_2 O 0.7205(5) 0.9713(4) 0.9249(2)
O3A_2 O 1.2795(5) 1.0287(4) 1.0751(2)
O4A_2 O 0.9803(5) 1.1798(4) 1.0838(2)
O6_2 O 1.0876(6) 1.3044(4) 0.5876(2)
O6A_2 O 0.9124(6) 0.6956(4) 0.4124(2)
loop_
_geom_bond_atom_site_label_1
_geom_bond_atom_site_label_2
_geom_bond_site_symmetry_1
_geom_bond_site_symmetry_2
Mn1 O1 1_555 1_555
Mn2 N1 1_555 1_555
N1 C1 1_555 1_555
N2 C1 1_555 1_555
N3 C5 1_555 1_555
N4 C7 1_555 1_555
N5 C9 1_555 1_555
O1 H17 1_555 1_555
O2 H1 1_555 1_555
O3 C25 1_555 1_555
O4 Mn2 1_555 1_555
O5 C12 1_555 1_555
O6 C27 1_555 1_555
O7 C27 1_555 1_555
O8 Mn1 1_555 1_555
O9 C26 1_555 1_555
C1 H2 1_555 1_555
C2 N2 1_555 1_555
H3 C2 1_555 1_555
C3 N1 1_555 1_555
H4 C3 1_555 1_555
C4 N2 1_555 1_555
C5 C4 1_555 1_555
H5 C5 1_555 1_555
C6 N3 1_555 1_555
H6 C6 1_555 1_555
C7 C6 1_555 1_555
C8 C4 1_555 1_555
H7 C8 1_555 1_555
C9 N4 1_555 1_555
H8 C9 1_555 1_555
C10 N5 1_555 1_555
H9 C10 1_555 1_555
C11 N4 1_555 1_555
H10 C11 1_555 1_555
C12 O4 1_555 1_555
C13 C12 1_555 1_555
C14 C13 1_555 1_555
C15 C14 1_555 1_555
H11 C15 1_555 1_555
C16 C15 1_555 1_555
C17 C16 1_555 1_555
H12 C17 1_555 1_555
C18 C13 1_555 1_555
H13 C18 1_555 1_555
C19 C14 1_555 1_555
C20 C19 1_555 1_555
H14 C20 1_555 1_555
C21 C20 1_555 1_555
C22 C21 1_555 1_555
H15 C22 1_555 1_555
C23 C22 1_555 1_555
C24 C19 1_555 1_555
H16 C24 1_555 1_555
C25 O2 1_555 1_555
C26 O8 1_555 1_555
C27 C16 1_555 1_555
H18 O1 1_555 1_555
Mn1A O9 1_555 1_555
O1A Mn1A 1_555 1_555
O2A H1A 1_555 1_555
O3A C25A 1_555 1_555
O4A C12A 1_555 1_555
O5A C12A 1_555 1_555
O6A C27A 1_555 1_555
O7A C27A 1_555 1_555
O8A Mn1A 1_555 1_555
O9A Mn1 1_555 1_555
C12A C13A 1_555 1_555
C13A C14A 1_555 1_555
C14A C15A 1_555 1_555
C15A H11A 1_555 1_555
C16A C15A 1_555 1_555
C17A C16A 1_555 1_555
H12A C17A 1_555 1_555
C18A C13A 1_555 1_555
H13A C18A 1_555 1_555
C19A C14A 1_555 1_555
C20A C19A 1_555 1_555
H14A C20A 1_555 1_555
C21A C20A 1_555 1_555
C22A C21A 1_555 1_555
H15A C22A 1_555 1_555
C23A C22A 1_555 1_555
C24A C19A 1_555 1_555
H16A C24A 1_555 1_555
C25A O2A 1_555 1_555
C26A O8A 1_555 1_555
C27A C16A 1_555 1_555
H17A O1A 1_555 1_555
H18A O1A 1_555 1_555
N1_2 C1_2 1_555 1_555
N2_2 C1_2 1_555 1_555
N3_2 C5_2 1_555 1_555
N4_2 C7_2 1_555 1_555
N5_2 Mn1 1_555 1_555
C1_2 H2_2 1_555 1_555
C2_2 N2_2 1_555 1_555
H3_2 C2_2 1_555 1_555
C3_2 N1_2 1_555 1_555
H4_2 C3_2 1_555 1_555
C4_2 N2_2 1_555 1_555
C5_2 C4_2 1_555 1_555
H5_2 C5_2 1_555 1_555
C6_2 N3_2 1_555 1_555
H6_2 C6_2 1_555 1_555
C7_2 C6_2 1_555 1_555
C8_2 C4_2 1_555 1_555
H7_2 C8_2 1_555 1_555
C9_2 N4_2 1_555 1_555
H8_2 C9_2 1_555 1_555
C10_2 N5_2 1_555 1_555
H9_2 C10_2 1_555 1_555
C11_2 N4_2 1_555 1_555
H10_2 C11_2 1_555 1_555
Mn1_2 N5 1_555 1_555
Mn1_3 O6 1_555 1_555
Mn1A_2 O6A 1_555 1_555
Mn2_2 O3A 1_555 1_555
Mn2_3 O4A 1_555 1_555
Mn2_4 O3 1_555 1_555
Mn2_5 N1_2 1_555 1_555
N1A Mn2 1_555 1_555
N5A Mn1A 1_555 1_555
O3_2 Mn2 1_555 1_555
O3A_2 Mn2 1_555 1_555
O4A_2 Mn2 1_555 1_555
O6_2 Mn1 1_555 1_555
O6A_2 Mn1A 1_555 1_555
C2 C3 1_555 1_555
C7 C8 1_555 1_555
C10 C11 1_555 1_555
C17 C18 1_555 1_555
C21 C25 1_555 1_555
C23 C24 1_555 1_555
C23 C26 1_555 1_555
O9A C26A 1_555 1_555
C17A C18A 1_555 1_555
C21A C25A 1_555 1_555
C23A C24A 1_555 1_555
C23A C26A 1_555 1_555
N5_2 C9_2 1_555 1_555
C2_2 C3_2 1_555 1_555
C7_2 C8_2 1_555 1_555
C10_2 C11_2 1_555 1_555

#END
