
#######################################################################
#
#                 Cambridge Crystallographic Data Centre
#                                CCDC 
#
#######################################################################
#
# If this CIF has been generated from an entry in the Cambridge 
# Structural Database, then it will include bibliographic, chemical, 
# crystal, experimental, refinement or atomic coordinate data resulting 
# from the CCDC's data processing and validation procedures.
#
#######################################################################

data_RUFVOE
_symmetry_cell_setting           orthorhombic
_symmetry_space_group_name_H-M   'P 21 21 21'
_symmetry_Int_Tables_number      19
_space_group_name_Hall           'P 2ac 2ab'
loop_
_symmetry_equiv_pos_site_id
_symmetry_equiv_pos_as_xyz
1 x,y,z
2 1/2-x,-y,1/2+z
3 -x,1/2+y,1/2-z
4 1/2+x,1/2-y,-z
_cell_length_a                   8.388(3)
_cell_length_b                   26.571(10)
_cell_length_c                   8.325(3)
_cell_angle_alpha                90
_cell_angle_beta                 90
_cell_angle_gamma                90
_cell_volume                     1855.46
loop_
_atom_site_label
_atom_site_type_symbol
_atom_site_fract_x
_atom_site_fract_y
_atom_site_fract_z
Ba1 Ba 0.06454(2) 0.227892(7) 0.00381(3)
Cu1 Cu 0.08351(5) 0.147379(16) -0.52719(6)
Cl1 Cl 0.06046(15) 0.07617(4) 0.07478(13)
O1 O 0.1425(4) 0.19334(13) -0.3017(4)
O2 O 0.3616(4) 0.21466(13) -0.1706(4)
O3 O 0.1536(4) 0.20045(13) -0.6696(4)
O4 O 0.3346(4) 0.24147(15) -0.8027(4)
O5 O -0.1406(4) 0.15121(12) -0.5918(5)
O6 O -0.3600(4) 0.10449(14) -0.5973(5)
O7 O -0.3919(5) 0.04531(14) -0.1253(5)
H1 H -0.4271 0.0626 -0.0518
O8 O -0.2634(5) 0.11527(13) -0.2009(5)
O9 O 0.0892(5) 0.12128(13) -0.0139(6)
O10 O 0.0899(7) 0.03450(15) -0.0243(6)
O11 O -0.1006(5) 0.07531(18) 0.1288(6)
O12 O 0.1633(6) 0.0745(2) 0.2110(6)
O13 O -0.2470(4) 0.18373(12) 0.0739(5)
H2 H -0.2686 0.1548 0.0362
H3 H -0.2250 0.1728 0.1672
N1 N 0.3089(4) 0.12569(11) -0.4806(4)
H4 H 0.3563 0.1151 -0.5730
N2 N 0.0174(4) 0.08797(12) -0.4023(5)
H5 H -0.0033 0.0979 -0.2998
C1 C 0.3927(5) 0.17115(15) -0.4189(5)
H6 H 0.4953 0.1609 -0.3732
C2 C 0.2920(5) 0.19494(15) -0.2874(5)
C3 C 0.4230(5) 0.20800(16) -0.5571(5)
H7 H 0.4485 0.2404 -0.5097
H8 H 0.5179 0.1966 -0.6130
C4 C 0.2955(5) 0.21695(16) -0.6827(5)
C5 C -0.1318(4) 0.06845(14) -0.4733(5)
H9 H -0.1007 0.0444 -0.5568
C6 C -0.2193(5) 0.11137(16) -0.5582(6)
C7 C -0.2348(6) 0.03969(17) -0.3539(7)
H10 H -0.3244 0.0250 -0.4108
H11 H -0.1726 0.0123 -0.3091
C8 C -0.2967(5) 0.07134(17) -0.2200(6)
C9 C 0.3018(5) 0.08371(15) -0.3647(6)
H12 H 0.2978 0.0968 -0.2559
H13 H 0.3961 0.0628 -0.3749
C10 C 0.1533(5) 0.05266(15) -0.3990(6)
H14 H 0.1634 0.0356 -0.5016
H15 H 0.1380 0.0276 -0.3159
Ba1C Ba 0.56454(2) 0.272108(7) -0.00381(3)
Ba1_2 Ba 0.06454(2) 0.227892(7) -0.99619(3)
Ba1C_2 Ba 0.56454(2) 0.272108(7) -1.00381(3)
Ba1C_3 Ba -0.43546(2) 0.272108(7) -0.00381(3)
O2C O -0.1384(4) 0.28534(13) 0.1706(4)
O3_2 O 0.1536(4) 0.20045(13) 0.3304(4)
O4_2 O 0.3346(4) 0.24147(15) 0.1973(4)
O4C O -0.1654(4) 0.25853(15) -0.1973(4)
O13C O 0.2530(4) 0.31627(12) -0.0739(5)
H2C H 0.2314 0.3452 -0.0362
H3C H 0.2750 0.3272 -0.1672
O14 O -0.503(3) 0.1044(7) 0.118(2)
H16 H -0.5961 0.0889 0.1240
H17 H -0.4555 0.1029 0.1986
O15? O -0.507(2) 0.0834(8) 0.118(3)
loop_
_geom_bond_atom_site_label_1
_geom_bond_atom_site_label_2
_geom_bond_site_symmetry_1
_geom_bond_site_symmetry_2
Ba1 O1 1_555 1_555
Cu1 O1 1_555 1_555
Cl1 O9 1_555 1_555
O1 C2 1_555 1_555
O2 Ba1 1_555 1_555
O3 Cu1 1_555 1_555
O4 C4 1_555 1_555
O5 Cu1 1_555 1_555
O6 C6 1_555 1_555
O7 H1 1_555 1_555
O8 C8 1_555 1_555
O9 Ba1 1_555 1_555
O10 Cl1 1_555 1_555
O11 Cl1 1_555 1_555
O12 Cl1 1_555 1_555
O13 Ba1 1_555 1_555
H2 O13 1_555 1_555
H3 O13 1_555 1_555
N1 Cu1 1_555 1_555
H4 N1 1_555 1_555
N2 Cu1 1_555 1_555
H5 N2 1_555 1_555
C1 N1 1_555 1_555
H6 C1 1_555 1_555
C2 O2 1_555 1_555
C3 C1 1_555 1_555
H7 C3 1_555 1_555
H8 C3 1_555 1_555
C4 O3 1_555 1_555
C5 N2 1_555 1_555
H9 C5 1_555 1_555
C6 O5 1_555 1_555
C7 C5 1_555 1_555
H10 C7 1_555 1_555
H11 C7 1_555 1_555
C8 O7 1_555 1_555
C9 N1 1_555 1_555
H12 C9 1_555 1_555
H13 C9 1_555 1_555
C10 N2 1_555 1_555
H14 C10 1_555 1_555
H15 C10 1_555 1_555
O14 H16 1_555 1_555
H17 O14 1_555 1_555
Ba1C O2 1_555 1_555
Ba1_2 O3 1_555 1_555
Ba1C_2 O4 1_555 1_555
Ba1C_3 O13 1_555 1_555
O2C Ba1 1_555 1_555
O3_2 Ba1 1_555 1_555
O4_2 Ba1 1_555 1_555
O4C Ba1 1_555 1_555
O13C Ba1 1_555 1_555
H2C O13C 1_555 1_555
H3C O13C 1_555 1_555
O4 Ba1_2 1_555 1_555
C1 C2 1_555 1_555
C3 C4 1_555 1_555
C5 C6 1_555 1_555
C7 C8 1_555 1_555
C9 C10 1_555 1_555
Ba1C O4_2 1_555 1_555
Ba1C O13C 1_555 1_555
Ba1C_3 O2C 1_555 1_555
Ba1C_3 O4C 1_555 1_555

#END
