
#######################################################################
#
#                 Cambridge Crystallographic Data Centre
#                                CCDC 
#
#######################################################################
#
# If this CIF has been generated from an entry in the Cambridge 
# Structural Database, then it will include bibliographic, chemical, 
# crystal, experimental, refinement or atomic coordinate data resulting 
# from the CCDC's data processing and validation procedures.
#
#######################################################################

data_RUFVAR
_symmetry_cell_setting           monoclinic
_symmetry_space_group_name_H-M   'P 21/n'
_symmetry_Int_Tables_number      14
_space_group_name_Hall           '-P 2yn'
loop_
_symmetry_equiv_pos_site_id
_symmetry_equiv_pos_as_xyz
1 x,y,z
2 1/2-x,1/2+y,1/2-z
3 -x,-y,-z
4 1/2+x,1/2-y,1/2+z
_cell_length_a                   14.9620(12)
_cell_length_b                   15.0110(12)
_cell_length_c                   17.5963(15)
_cell_angle_alpha                90
_cell_angle_beta                 98.0920(10)
_cell_angle_gamma                90
_cell_volume                     3912.68
loop_
_atom_site_label
_atom_site_type_symbol
_atom_site_fract_x
_atom_site_fract_y
_atom_site_fract_z
Mn1 Mn 0.68491(2) 0.475347(19) 0.725982(16)
Mn2 Mn 0.46542(2) 0.26590(2) 0.858801(17)
N1 N 0.48987(15) 1.11906(12) 0.85862(11)
N2 N 0.48179(15) 0.98196(12) 0.90240(11)
N3 N 0.39792(13) 0.39858(12) 0.83501(11)
N4 N 0.37224(13) 0.52250(11) 0.76883(10)
N5 N 1.20289(11) 0.61097(11) 1.23079(10)
N6 N 1.06512(12) 0.65061(11) 1.18125(11)
N7 N 0.58426(13) 0.31229(13) 0.93162(11)
N8 N 0.72107(13) 0.33476(13) 0.99196(12)
O1 O 0.59716(9) 0.36465(9) 0.73599(8)
O2 O 0.48351(10) 0.27049(9) 0.74056(8)
O3 O 0.89250(11) 0.24417(11) 0.45248(9)
O4 O 0.77805(12) 0.31098(15) 0.38332(10)
O5 O 0.30474(10) 0.49966(10) 0.39809(8)
O6 O 0.41756(10) 0.44077(10) 0.34803(8)
O7 O 0.82575(10) 0.05210(10) 0.66902(8)
O8 O 0.71636(10) 0.09338(9) 0.73302(8)
C1 C 0.43810(17) 1.05912(14) 0.88587(13)
H1 H 0.3784 1.0692 0.8928
C2 C 0.5713(2) 1.07687(17) 0.85722(16)
H2 H 0.6216 1.1023 0.8401
C3 C 0.5673(2) 0.99266(17) 0.88454(16)
H3 H 0.6134 0.9506 0.8900
C4 C 0.4437(2) 0.90309(16) 0.93584(14)
H4 H 0.3868 0.9193 0.9525
H5 H 0.4845 0.8843 0.9807
C5 C 0.42804(17) 0.82605(14) 0.88056(13)
C6 C 0.49911(18) 0.77095(16) 0.87014(15)
H6 H 0.5561 0.7818 0.8971
C7 C 0.48628(17) 0.69979(15) 0.82008(15)
H7 H 0.5347 0.6632 0.8134
C8 C 0.40244(16) 0.68263(14) 0.78007(12)
C9 C 0.33063(16) 0.73740(15) 0.79067(14)
H8 H 0.2735 0.7262 0.7640
C10 C 0.34365(17) 0.80851(15) 0.84064(14)
H9 H 0.2952 0.8450 0.8475
C11 C 0.38955(18) 0.60358(14) 0.72672(13)
H10 H 0.3391 0.6147 0.6868
H11 H 0.4432 0.5954 0.7024
C12 C 0.43479(16) 0.46689(14) 0.80436(13)
H12 H 0.4967 0.4756 0.8070
C13 C 0.30652(17) 0.41271(17) 0.81933(16)
H13 H 0.2625 0.3757 0.8346
C14 C 0.29020(17) 0.48858(17) 0.77842(16)
H14 H 0.2340 0.5128 0.7604
C15 C 1.11610(15) 0.72692(14) 1.18967(13)
H15 H 1.0965 0.7846 1.1771
C16 C 1.19996(15) 0.70178(14) 1.21971(13)
H16 H 1.2488 0.7401 1.2313
C17 C 1.11994(14) 0.58317(14) 1.20678(13)
H17 H 1.1018 0.5240 1.2075
C18 C 0.96643(16) 0.64690(17) 1.15908(18)
H18 H 0.9481 0.6959 1.1244
H19 H 0.9376 0.6551 1.2046
C19 C 0.93357(14) 0.56103(15) 1.12087(13)
C20 C 0.92757(16) 0.48450(17) 1.16321(14)
H20 H 0.9466 0.4852 1.2158
C21 C 0.89356(16) 0.40685(17) 1.12829(16)
H21 H 0.8918 0.3552 1.1573
C22 C 0.86224(15) 0.40524(16) 1.05092(15)
C23 C 0.86870(18) 0.48112(18) 1.00872(15)
H22 H 0.8488 0.4807 0.9562
C24 C 0.90440(17) 0.55810(17) 1.04343(15)
H23 H 0.9088 0.6088 1.0139
C25 C 0.81883(19) 0.32282(19) 1.0136(2)
H24 H 0.8461 0.3089 0.9682
H25 H 0.8297 0.2730 1.0488
C26 C 0.66976(17) 0.29199(18) 0.93561(16)
H26 H 0.6923 0.2520 0.9027
C27 C 0.58065(17) 0.37220(18) 0.98948(14)
H27 H 0.5283 0.3993 1.0010
C28 C 0.66371(18) 0.38635(18) 1.02735(15)
H28 H 0.6792 0.4237 1.0693
C29 C 0.52743(13) 0.32488(12) 0.70595(10)
C30 C 0.48877(13) 0.34691(12) 0.62388(11)
C31 C 0.53372(13) 0.33224(12) 0.55990(10)
C32 C 0.49212(13) 0.36593(12) 0.48913(11)
H29 H 0.5197 0.3558 0.4457
C33 C 0.41219(13) 0.41338(12) 0.48090(11)
C34 C 0.36792(14) 0.42494(14) 0.54475(12)
H30 H 0.3134 0.4556 0.5403
C35 C 0.40563(13) 0.39046(13) 0.61464(11)
H31 H 0.3748 0.3964 0.6567
C36 C 0.37557(14) 0.45341(12) 0.40451(11)
C37 C 0.62073(13) 0.28310(12) 0.56289(10)
C38 C 0.64742(13) 0.21596(12) 0.61666(11)
H32 H 0.6108 0.2020 0.6535
C39 C 0.72824(13) 0.16964(12) 0.61570(10)
C40 C 0.78142(13) 0.18725(13) 0.55911(11)
H33 H 0.8341 0.1549 0.5573
C41 C 0.75619(13) 0.25330(13) 0.50494(11)
C42 C 0.67757(13) 0.30112(13) 0.50828(11)
H34 H 0.6622 0.3467 0.4730
C43 C 0.81257(15) 0.27205(15) 0.44217(12)
C44 C 0.75829(13) 0.10059(12) 0.67621(11)
Mn1A Mn 0.81509(2) -0.024653(19) 0.774018(16)
Mn1B Mn 0.31509(2) 0.524653(19) 0.274018(16)
Mn1B_2 Mn 1.31509(2) 0.524653(19) 1.274018(16)
Mn2_2 Mn 0.46542(2) 1.26590(2) 0.858801(17)
Mn2C Mn 0.96542(2) 0.23410(2) 0.358801(17)
N1_2 N 0.48987(15) 0.11906(12) 0.85862(11)
N5B N 0.79711(11) 0.38903(11) 0.76921(10)
O3C O 0.39250(11) 0.25583(11) 0.95248(9)
O5B O 0.69526(10) 0.50034(10) 0.60191(8)
O6B O 0.58244(10) 0.55923(10) 0.65197(8)
O7A O 0.67425(10) 0.55210(10) 0.83098(8)
O8A O 0.78364(10) 0.59338(9) 0.76698(8)
loop_
_geom_bond_atom_site_label_1
_geom_bond_atom_site_label_2
_geom_bond_site_symmetry_1
_geom_bond_site_symmetry_2
Mn1 O1 1_555 1_555
Mn2 N3 1_555 1_555
N1 C1 1_555 1_555
N2 C1 1_555 1_555
N3 C12 1_555 1_555
N4 C11 1_555 1_555
N5 C16 1_555 1_555
N6 C15 1_555 1_555
N7 Mn2 1_555 1_555
N8 C25 1_555 1_555
O1 C29 1_555 1_555
O2 Mn2 1_555 1_555
O3 C43 1_555 1_555
O4 C43 1_555 1_555
O5 C36 1_555 1_555
O6 C36 1_555 1_555
O7 C44 1_555 1_555
O8 C44 1_555 1_555
C1 H1 1_555 1_555
C2 N1 1_555 1_555
H2 C2 1_555 1_555
C3 N2 1_555 1_555
H3 C3 1_555 1_555
C4 N2 1_555 1_555
H4 C4 1_555 1_555
H5 C4 1_555 1_555
C5 C4 1_555 1_555
C6 C5 1_555 1_555
H6 C6 1_555 1_555
C7 C6 1_555 1_555
H7 C7 1_555 1_555
C8 C7 1_555 1_555
C9 C8 1_555 1_555
H8 C9 1_555 1_555
C10 C5 1_555 1_555
H9 C10 1_555 1_555
C11 C8 1_555 1_555
H10 C11 1_555 1_555
H11 C11 1_555 1_555
C12 N4 1_555 1_555
H12 C12 1_555 1_555
C13 N3 1_555 1_555
H13 C13 1_555 1_555
C14 N4 1_555 1_555
H14 C14 1_555 1_555
C15 H15 1_555 1_555
C16 C15 1_555 1_555
H16 C16 1_555 1_555
C17 N5 1_555 1_555
H17 C17 1_555 1_555
C18 N6 1_555 1_555
H18 C18 1_555 1_555
H19 C18 1_555 1_555
C19 C18 1_555 1_555
C20 C19 1_555 1_555
H20 C20 1_555 1_555
C21 C20 1_555 1_555
H21 C21 1_555 1_555
C22 C21 1_555 1_555
C23 C22 1_555 1_555
H22 C23 1_555 1_555
C24 C19 1_555 1_555
H23 C24 1_555 1_555
C25 C22 1_555 1_555
H24 C25 1_555 1_555
H25 C25 1_555 1_555
C26 N7 1_555 1_555
H26 C26 1_555 1_555
C27 N7 1_555 1_555
H27 C27 1_555 1_555
C28 N8 1_555 1_555
H28 C28 1_555 1_555
C29 O2 1_555 1_555
C30 C29 1_555 1_555
C31 C30 1_555 1_555
C32 C31 1_555 1_555
H29 C32 1_555 1_555
C33 C32 1_555 1_555
C34 C33 1_555 1_555
H30 C34 1_555 1_555
C35 C30 1_555 1_555
H31 C35 1_555 1_555
C36 C33 1_555 1_555
C37 C31 1_555 1_555
C38 C37 1_555 1_555
H32 C38 1_555 1_555
C39 C38 1_555 1_555
C40 C39 1_555 1_555
H33 C40 1_555 1_555
C41 C40 1_555 1_555
C42 C37 1_555 1_555
H34 C42 1_555 1_555
C43 C41 1_555 1_555
C44 C39 1_555 1_555
Mn1A O7 1_555 1_555
Mn1B O5 1_555 1_555
Mn1B_2 N5 1_555 1_555
Mn2_2 N1 1_555 1_555
Mn2C O3 1_555 1_555
N1_2 Mn2 1_555 1_555
N5B Mn1 1_555 1_555
O3C Mn2 1_555 1_555
O5B Mn1 1_555 1_555
O6B Mn1 1_555 1_555
O7A Mn1 1_555 1_555
O8A Mn1 1_555 1_555
N6 C17 1_555 1_555
N8 C26 1_555 1_555
O6 Mn1B 1_555 1_555
O8 Mn1A 1_555 1_555
C2 C3 1_555 1_555
C9 C10 1_555 1_555
C13 C14 1_555 1_555
C23 C24 1_555 1_555
C27 C28 1_555 1_555
C34 C35 1_555 1_555
C41 C42 1_555 1_555

#END
