
#######################################################################
#
#                 Cambridge Crystallographic Data Centre
#                                CCDC 
#
#######################################################################
#
# If this CIF has been generated from an entry in the Cambridge 
# Structural Database, then it will include bibliographic, chemical, 
# crystal, experimental, refinement or atomic coordinate data resulting 
# from the CCDC's data processing and validation procedures.
#
#######################################################################

data_RUGLAI
_symmetry_cell_setting           monoclinic
_symmetry_space_group_name_H-M   'C 2/c'
_symmetry_Int_Tables_number      15
_space_group_name_Hall           '-C 2yn'
loop_
_symmetry_equiv_pos_site_id
_symmetry_equiv_pos_as_xyz
1 x,y,z
2 -x,y,1/2-z
3 1/2+x,1/2+y,z
4 1/2-x,1/2+y,1/2-z
5 -x,-y,-z
6 x,-y,1/2+z
7 1/2-x,1/2-y,-z
8 1/2+x,1/2-y,1/2+z
_cell_length_a                   21.3303(10)
_cell_length_b                   13.9282(7)
_cell_length_c                   18.8191(8)
_cell_angle_alpha                90
_cell_angle_beta                 105.898(2)
_cell_angle_gamma                90
_cell_volume                     5377.17
loop_
_atom_site_label
_atom_site_type_symbol
_atom_site_fract_x
_atom_site_fract_y
_atom_site_fract_z
N6 N 0.65714(19) 0.7689(3) 0.3122(2)
C18 C 0.6705(3) 0.8436(4) 0.3562(3)
H19 H 0.6542 0.9043 0.3365
C19 C 0.7065(3) 0.8400(4) 0.4288(3)
H20 H 0.7149 0.8973 0.4573
C20 C 0.73050(19) 0.7537(3) 0.4606(2)
C21 C 0.7175(3) 0.6755(4) 0.4145(3)
H21 H 0.7334 0.6138 0.4322
C22 C 0.6809(3) 0.6873(4) 0.3418(3)
H22 H 0.6725 0.6319 0.3113
N6F N 0.84286(19) 0.7311(3) 0.6878(2)
C18F C 0.8295(3) 0.6564(4) 0.6438(3)
H19F H 0.8458 0.5957 0.6635
C19F C 0.7935(3) 0.6600(4) 0.5712(3)
H20F H 0.7851 0.6027 0.5427
C20F C 0.76950(19) 0.7463(3) 0.5394(2)
C21F C 0.7825(3) 0.8245(4) 0.5855(3)
H21F H 0.7666 0.8862 0.5678
C22F C 0.8191(3) 0.8127(4) 0.6582(3)
H22F H 0.8275 0.8681 0.6887
C23 C 0.2874(2) -0.0273(4) 0.3010(3)
H23 H 0.2474 0.0080 0.2776
H24 H 0.2776 -0.0959 0.3021
H25 H 0.3192 -0.0173 0.2727
O5 O 0.31368(15) 0.0065(2) 0.37410(19)
H26 H 0.3416 0.0492 0.3745
O6 O 0.61640(16) 0.1532(2) 0.56753(17)
H27 H 0.629(2) 0.0948(18) 0.578(3)
H28 H 0.5829(17) 0.149(3) 0.5304(19)
C24 C 0.4505(3) 0.6234(4) 0.0597(3)
H29 H 0.4069 0.5947 0.0461
H30 H 0.4829 0.5742 0.0577
H31 H 0.4523 0.6752 0.0250
O7 O 0.46436(17) 0.6612(2) 0.13256(18)
H32 H 0.5015 0.6865 0.1439
O8 O 0.58327(16) 0.2660(2) 0.66600(17)
H33 H 0.595(2) 0.225(3) 0.638(2)
H34 H 0.602(2) 0.249(3) 0.7095(12)
Cu1 Cu 0.443562(19) 0.19017(3) 0.29931(2)
Cu2 Cu 0.48892(9) 0.40218(6) 0.23824(10)
N1 N 0.41251(14) 0.3149(2) 0.32606(16)
C1 C 0.47001(18) -0.0216(3) 0.2888(2)
H1 H 0.4452 -0.0415 0.3211
C2 C 0.5000 -0.0824(4) 0.2500
H2 H 0.5000 -0.1506 0.2500
N2 N 0.43319(15) 0.3994(2) 0.30483(16)
N3 N 0.48133(14) 0.0696(2) 0.27388(16)
C3 C 0.36708(18) 0.3341(3) 0.3612(2)
H3 H 0.3448 0.2873 0.3818
C4 C 0.35742(19) 0.4327(3) 0.3630(2)
H4 H 0.3280 0.4661 0.3840
C5 C 0.40082(19) 0.4713(3) 0.3271(2)
H5 H 0.4066 0.5378 0.3196
O1 O 0.41245(12) 0.12652(19) 0.38042(13)
O2 O 0.51407(14) 0.1584(2) 0.44448(15)
C6 C 0.4582(2) 0.1299(3) 0.4416(2)
C7 C 0.4408(2) 0.0982(3) 0.5105(2)
H6 H 0.4254 0.0316 0.5047
H7 H 0.4063 0.1397 0.5187
H8 H 0.4794 0.1028 0.5530
N4 N 0.35158(14) 0.1651(2) 0.20064(16)
N5 N 0.08970(15) 0.1182(3) -0.12643(17)
C8 C 0.29047(17) 0.1867(3) 0.2001(2)
H9 H 0.2829 0.2117 0.2439
C9 C 0.23757(17) 0.1746(3) 0.1391(2)
H10 H 0.1951 0.1905 0.1420
C10 C 0.24640(17) 0.1392(3) 0.0736(2)
C11 C 0.31010(18) 0.1156(3) 0.0744(2)
H11 H 0.3192 0.0903 0.0314
C12 C 0.36021(18) 0.1293(3) 0.1385(2)
H12 H 0.4032 0.1121 0.1379
C13 C 0.07844(18) 0.1310(3) -0.0610(2)
H13 H 0.0344 0.1374 -0.0597
C14 C 0.12650(17) 0.1356(3) 0.0053(2)
H14 H 0.1153 0.1430 0.0506
C15 C 0.19192(17) 0.1292(2) 0.00480(19)
C16 C 0.20350(18) 0.1160(3) -0.0634(2)
H15 H 0.2470 0.1105 -0.0668
C17 C 0.15207(19) 0.1106(3) -0.1266(2)
H16 H 0.1616 0.1010 -0.1725
O3 O 0.5000 0.5461(3) 0.2500
H17 H 0.515(3) 0.581(3) 0.2865(13)
O4 O 0.4921(8) 0.2623(3) 0.2379(6)
H18 H 0.4581(9) 0.2547(13) 0.1940(9)
C1A C 0.52999(18) -0.0216(3) 0.2112(2)
H1A H 0.5548 -0.0415 0.1789
N3A N 0.51867(14) 0.0696(2) 0.22612(16)
H17A H 0.485(3) 0.581(3) 0.2135(13)
Cu1A Cu 0.556438(19) 0.19017(3) 0.20069(2)
Cu2A Cu 0.51108(9) 0.40218(6) 0.26176(10)
N1A N 0.58749(14) 0.3149(2) 0.17394(16)
N2A N 0.56681(15) 0.3994(2) 0.19517(16)
C3A C 0.63292(18) 0.3341(3) 0.1388(2)
H3A H 0.6552 0.2873 0.1182
C4A C 0.64258(19) 0.4327(3) 0.1370(2)
H4A H 0.6720 0.4661 0.1160
C5A C 0.59918(19) 0.4713(3) 0.1729(2)
H5A H 0.5934 0.5378 0.1804
O1A O 0.58755(12) 0.12652(19) 0.11958(13)
O2A O 0.48593(14) 0.1584(2) 0.05552(15)
C6A C 0.5418(2) 0.1299(3) 0.0584(2)
C7A C 0.5592(2) 0.0982(3) -0.0105(2)
H6A H 0.5746 0.0316 -0.0047
H7A H 0.5937 0.1397 -0.0187
H8A H 0.5206 0.1028 -0.0530
N4A N 0.64842(14) 0.1651(2) 0.29936(16)
N5A N 0.91030(15) 0.1182(3) 0.62643(17)
C8A C 0.70953(17) 0.1867(3) 0.2999(2)
H9A H 0.7171 0.2117 0.2561
C9A C 0.76243(17) 0.1746(3) 0.3609(2)
H10A H 0.8049 0.1905 0.3580
C10A C 0.75360(17) 0.1392(3) 0.4264(2)
C11A C 0.68990(18) 0.1156(3) 0.4256(2)
H11A H 0.6808 0.0903 0.4686
C12A C 0.63979(18) 0.1293(3) 0.3615(2)
H12A H 0.5968 0.1121 0.3621
C13A C 0.92156(18) 0.1310(3) 0.5610(2)
H13A H 0.9656 0.1374 0.5597
C14A C 0.87350(17) 0.1356(3) 0.4947(2)
H14A H 0.8847 0.1430 0.4494
C15A C 0.80808(17) 0.1292(2) 0.49520(19)
C16A C 0.79650(18) 0.1160(3) 0.5634(2)
H15A H 0.7530 0.1105 0.5668
C17A C 0.84793(19) 0.1106(3) 0.6266(2)
H16A H 0.8384 0.1010 0.6725
O4A O 0.5079(8) 0.2623(3) 0.2621(6)
H18A H 0.5419(9) 0.2547(13) 0.3060(9)
Cu2F Cu 0.01108(9) 0.09782(6) -0.23824(10)
Cu2G Cu 0.98892(9) 0.09782(6) 0.73824(10)
N5F N 0.41030(15) 0.3818(3) 0.12643(17)
N5G N 0.58970(15) 0.3818(3) 0.37357(17)
loop_
_geom_bond_atom_site_label_1
_geom_bond_atom_site_label_2
_geom_bond_site_symmetry_1
_geom_bond_site_symmetry_2
Cu1 N1 1_555 1_555
Cu2 N2 1_555 1_555
N1 N2 1_555 1_555
C1 H1 1_555 1_555
C2 C1 1_555 1_555
H2 C2 1_555 1_555
N2 C5 1_555 1_555
N3 Cu1 1_555 1_555
C3 N1 1_555 1_555
H3 C3 1_555 1_555
C4 C3 1_555 1_555
H4 C4 1_555 1_555
C5 C4 1_555 1_555
H5 C5 1_555 1_555
O1 Cu1 1_555 1_555
O2 Cu1 1_555 1_555
C6 O1 1_555 1_555
C7 C6 1_555 1_555
H6 C7 1_555 1_555
H7 C7 1_555 1_555
H8 C7 1_555 1_555
N4 Cu1 1_555 1_555
N5 C13 1_555 1_555
C8 N4 1_555 1_555
H9 C8 1_555 1_555
C9 C8 1_555 1_555
H10 C9 1_555 1_555
C10 C9 1_555 1_555
C11 C10 1_555 1_555
H11 C11 1_555 1_555
C12 N4 1_555 1_555
H12 C12 1_555 1_555
C13 H13 1_555 1_555
C14 C13 1_555 1_555
H14 C14 1_555 1_555
C15 C10 1_555 1_555
C16 C15 1_555 1_555
H15 C16 1_555 1_555
C17 N5 1_555 1_555
H16 C17 1_555 1_555
O3 Cu2 1_555 1_555
H17 O3 1_555 1_555
O4 Cu1 1_555 1_555
H18 O4 1_555 1_555
N6 C18 1_555 1_555
C18 H19 1_555 1_555
C19 C18 1_555 1_555
H20 C19 1_555 1_555
C20 C19 1_555 1_555
C21 C20 1_555 1_555
H21 C21 1_555 1_555
C22 N6 1_555 1_555
H22 C22 1_555 1_555
C23 H23 1_555 1_555
H24 C23 1_555 1_555
H25 C23 1_555 1_555
O5 C23 1_555 1_555
H26 O5 1_555 1_555
O6 H27 1_555 1_555
H28 O6 1_555 1_555
C24 H29 1_555 1_555
H30 C24 1_555 1_555
H31 C24 1_555 1_555
O7 C24 1_555 1_555
H32 O7 1_555 1_555
O8 H33 1_555 1_555
H34 O8 1_555 1_555
C1A C2 1_555 1_555
H1A C1A 1_555 1_555
N3A N3 1_555 1_555
H17A O3 1_555 1_555
Cu1A O4 1_555 1_555
Cu2A N2 1_555 1_555
N1A Cu1A 1_555 1_555
N2A Cu2 1_555 1_555
C3A N1A 1_555 1_555
H3A C3A 1_555 1_555
C4A C3A 1_555 1_555
H4A C4A 1_555 1_555
C5A N2A 1_555 1_555
H5A C5A 1_555 1_555
O1A Cu1A 1_555 1_555
O2A Cu1A 1_555 1_555
C6A O1A 1_555 1_555
C7A C6A 1_555 1_555
H6A C7A 1_555 1_555
H7A C7A 1_555 1_555
H8A C7A 1_555 1_555
N4A Cu1A 1_555 1_555
N5A C13A 1_555 1_555
C8A N4A 1_555 1_555
H9A C8A 1_555 1_555
C9A C8A 1_555 1_555
H10A C9A 1_555 1_555
C10A C9A 1_555 1_555
C11A C10A 1_555 1_555
H11A C11A 1_555 1_555
C12A N4A 1_555 1_555
H12A C12A 1_555 1_555
C13A H13A 1_555 1_555
C14A C13A 1_555 1_555
H14A C14A 1_555 1_555
C15A C10A 1_555 1_555
C16A C15A 1_555 1_555
H15A C16A 1_555 1_555
C17A N5A 1_555 1_555
H16A C17A 1_555 1_555
O4A Cu1 1_555 1_555
H18A O4A 1_555 1_555
Cu2F N5 1_555 1_555
Cu2G N5A 1_555 1_555
N5F Cu2 1_555 1_555
N5G Cu2A 1_555 1_555
N6F C18F 1_555 1_555
C18F H19F 1_555 1_555
C19F C18F 1_555 1_555
H20F C19F 1_555 1_555
C20F C20 1_555 1_555
C21F C20F 1_555 1_555
H21F C21F 1_555 1_555
C22F N6F 1_555 1_555
H22F C22F 1_555 1_555
Cu2 O4A 1_555 1_555
C1 N3 1_555 1_555
O2 C6 1_555 1_555
C11 C12 1_555 1_555
C14 C15 1_555 1_555
C16 C17 1_555 1_555
O3 Cu2A 1_555 1_555
O4 Cu2A 1_555 1_555
C21 C22 1_555 1_555
C1A N3A 1_555 1_555
N3A Cu1A 1_555 1_555
Cu1A O4A 1_555 1_555
Cu2A N2A 1_555 1_555
N1A N2A 1_555 1_555
C4A C5A 1_555 1_555
O2A C6A 1_555 1_555
C11A C12A 1_555 1_555
C14A C15A 1_555 1_555
C16A C17A 1_555 1_555
C19F C20F 1_555 1_555
C21F C22F 1_555 1_555

#END
