
#######################################################################
#
#                 Cambridge Crystallographic Data Centre
#                                CCDC 
#
#######################################################################
#
# If this CIF has been generated from an entry in the Cambridge 
# Structural Database, then it will include bibliographic, chemical, 
# crystal, experimental, refinement or atomic coordinate data resulting 
# from the CCDC's data processing and validation procedures.
#
#######################################################################

data_RUGWOG
_symmetry_cell_setting           orthorhombic
_symmetry_space_group_name_H-M   'P c c n'
_symmetry_Int_Tables_number      56
_space_group_name_Hall           '-P 2ab 2ac'
loop_
_symmetry_equiv_pos_site_id
_symmetry_equiv_pos_as_xyz
1 x,y,z
2 1/2-x,1/2-y,z
3 -x,1/2+y,1/2-z
4 1/2+x,-y,1/2-z
5 -x,-y,-z
6 1/2+x,1/2+y,-z
7 x,1/2-y,1/2+z
8 1/2-x,y,1/2+z
_cell_length_a                   8.7985(17)
_cell_length_b                   10.694(2)
_cell_length_c                   25.535(5)
_cell_angle_alpha                90
_cell_angle_beta                 90
_cell_angle_gamma                90
_cell_volume                     2402.62
loop_
_atom_site_label
_atom_site_type_symbol
_atom_site_fract_x
_atom_site_fract_y
_atom_site_fract_z
C1 C 0.1521(3) 0.0127(2) 0.37317(9)
C2 C 0.0873(3) -0.0769(2) 0.33333(8)
C3 C -0.0284(3) -0.0330(2) 0.30090(10)
H1 H -0.0602 0.0495 0.3044
C4 C -0.0974(3) -0.1075(3) 0.26391(11)
H2 H -0.1743 -0.0756 0.2428
C5 C -0.0514(3) -0.2295(3) 0.25857(11)
H3 H -0.0971 -0.2807 0.2337
C6 C 0.0626(3) -0.2760(2) 0.29012(11)
H4 H 0.0930 -0.3589 0.2866
C7 C 0.1323(3) -0.2002(2) 0.32707(9)
C8 C -0.0782(4) 0.3622(3) 0.39283(15)
H5 H -0.0598 0.3578 0.3570
C9 C -0.2154(4) 0.4118(4) 0.4104(2)
H6 H -0.2872 0.4412 0.3866
C10 C -0.2425(4) 0.4166(3) 0.4628(2)
H7 H -0.3337 0.4489 0.4752
C11 C -0.1361(4) 0.3741(3) 0.49663(16)
H8 H -0.1540 0.3766 0.5325
C12 C -0.0007(3) 0.3269(2) 0.47753(11)
C13 C 0.1247(3) 0.2844(2) 0.51128(10)
C14 C 0.1214(5) 0.2817(3) 0.56602(12)
H9 H 0.0327 0.3013 0.5840
C15 C 0.2500 0.2500 0.59255(18)
H10 H 0.2500 0.2500 0.6290
N1 N 0.2500 0.2500 0.48583(10)
N2 N 0.0271(3) 0.3210(2) 0.42577(9)
O1 O 0.1871(2) 0.11853(16) 0.35496(7)
O2 O 0.1571(3) -0.0158(2) 0.41919(8)
O3 O 0.2500 -0.2500 0.35744(9)
Zn1 Zn 0.2500 0.2500 0.404461(14)
C1A C 0.3479(3) -0.5127(2) 0.37317(9)
C2A C 0.4127(3) -0.4231(2) 0.33333(8)
C3A C 0.5284(3) -0.4670(2) 0.30090(10)
H1A H 0.5602 -0.5495 0.3044
C4A C 0.5974(3) -0.3925(3) 0.26391(11)
H2A H 0.6743 -0.4244 0.2428
C5A C 0.5514(3) -0.2705(3) 0.25857(11)
H3A H 0.5971 -0.2193 0.2337
C6A C 0.4374(3) -0.2240(2) 0.29012(11)
H4A H 0.4070 -0.1411 0.2866
C7A C 0.3677(3) -0.2998(2) 0.32707(9)
C8A C 0.5782(4) 0.1378(3) 0.39283(15)
H5A H 0.5598 0.1422 0.3570
C9A C 0.7154(4) 0.0882(4) 0.4104(2)
H6A H 0.7872 0.0588 0.3866
C10A C 0.7425(4) 0.0834(3) 0.4628(2)
H7A H 0.8337 0.0511 0.4752
C11A C 0.6361(4) 0.1259(3) 0.49663(16)
H8A H 0.6540 0.1234 0.5325
C12A C 0.5007(3) 0.1731(2) 0.47753(11)
C13A C 0.3753(3) 0.2156(2) 0.51128(10)
C14A C 0.3786(5) 0.2183(3) 0.56602(12)
H9A H 0.4673 0.1987 0.5840
N2A N 0.4729(3) 0.1790(2) 0.42577(9)
O1A O 0.3129(2) -0.61853(16) 0.35496(7)
O1A_2 O 0.3129(2) 0.38147(16) 0.35496(7)
O2A O 0.3429(3) -0.4842(2) 0.41919(8)
Zn1_2 Zn 0.2500 -0.7500 0.404461(14)
loop_
_geom_bond_atom_site_label_1
_geom_bond_atom_site_label_2
_geom_bond_site_symmetry_1
_geom_bond_site_symmetry_2
C1 C2 1_555 1_555
C2 C3 1_555 1_555
C3 H1 1_555 1_555
C4 C3 1_555 1_555
H2 C4 1_555 1_555
C5 C4 1_555 1_555
H3 C5 1_555 1_555
C6 C5 1_555 1_555
H4 C6 1_555 1_555
C7 C2 1_555 1_555
C8 H5 1_555 1_555
C9 C8 1_555 1_555
H6 C9 1_555 1_555
C10 C9 1_555 1_555
H7 C10 1_555 1_555
C11 C10 1_555 1_555
H8 C11 1_555 1_555
C12 C11 1_555 1_555
C13 C12 1_555 1_555
C14 C13 1_555 1_555
H9 C14 1_555 1_555
C15 C14 1_555 1_555
H10 C15 1_555 1_555
N1 C13 1_555 1_555
N2 C8 1_555 1_555
O1 C1 1_555 1_555
O2 C1 1_555 1_555
O3 C7 1_555 1_555
Zn1 N1 1_555 1_555
C1A C2A 1_555 1_555
C2A C3A 1_555 1_555
C3A H1A 1_555 1_555
C4A C3A 1_555 1_555
H2A C4A 1_555 1_555
C5A C4A 1_555 1_555
H3A C5A 1_555 1_555
C6A C5A 1_555 1_555
H4A C6A 1_555 1_555
C7A O3 1_555 1_555
C8A H5A 1_555 1_555
C9A C8A 1_555 1_555
H6A C9A 1_555 1_555
C10A C9A 1_555 1_555
H7A C10A 1_555 1_555
C11A C10A 1_555 1_555
H8A C11A 1_555 1_555
C12A C11A 1_555 1_555
C13A N1 1_555 1_555
C14A C15 1_555 1_555
H9A C14A 1_555 1_555
N2A Zn1 1_555 1_555
O1A C1A 1_555 1_555
O1A_2 Zn1 1_555 1_555
O2A C1A 1_555 1_555
Zn1_2 O1A 1_555 1_555
C6 C7 1_555 1_555
C12 N2 1_555 1_555
N2 Zn1 1_555 1_555
O1 Zn1 1_555 1_555
C2A C7A 1_555 1_555
C6A C7A 1_555 1_555
C8A N2A 1_555 1_555
C12A C13A 1_555 1_555
C12A N2A 1_555 1_555
C13A C14A 1_555 1_555

#END
