
#######################################################################
#
#                 Cambridge Crystallographic Data Centre
#                                CCDC 
#
#######################################################################
#
# If this CIF has been generated from an entry in the Cambridge 
# Structural Database, then it will include bibliographic, chemical, 
# crystal, experimental, refinement or atomic coordinate data resulting 
# from the CCDC's data processing and validation procedures.
#
#######################################################################

data_RUHFIL
_symmetry_cell_setting           cubic
_symmetry_space_group_name_H-M   'P 21 3'
_symmetry_Int_Tables_number      198
_space_group_name_Hall           'P 2ac 2ab 3'
loop_
_symmetry_equiv_pos_site_id
_symmetry_equiv_pos_as_xyz
1 x,y,z
2 1/2-x,-y,1/2+z
3 -x,1/2+y,1/2-z
4 1/2+x,1/2-y,-z
5 z,x,y
6 1/2+z,1/2-x,-y
7 1/2-z,-x,1/2+y
8 -z,1/2+x,1/2-y
9 y,z,x
10 -y,1/2+z,1/2-x
11 1/2+y,1/2-z,-x
12 1/2-y,-z,1/2+x
_cell_length_a                   17.6180(2)
_cell_length_b                   17.6180(2)
_cell_length_c                   17.6180(2)
_cell_angle_alpha                90
_cell_angle_beta                 90
_cell_angle_gamma                90
_cell_volume                     5468.52
loop_
_atom_site_label
_atom_site_type_symbol
_atom_site_fract_x
_atom_site_fract_y
_atom_site_fract_z
C1 C 0.4870(3) 0.2592(3) 0.4969(3)
C2 C 0.4904(3) 0.2341(3) 0.4132(3)
C3 C 0.4109(3) 0.2084(3) 0.3864(3)
C4 C 0.453(2) -0.1049(8) 0.489(2)
C5 C 0.3773(10) 0.0276(19) 0.493(3)
O1 O 0.40319(18) 0.1415(2) 0.3672(2)
O2 O 0.54404(16) 0.17705(17) 0.40356(18)
O3 O 0.4789(3) 0.4789(3) 0.4789(3)
O4 O 0.36056(18) 0.25713(19) 0.3874(2)
O5 O 0.50782(19) 0.29930(17) 0.37120(18)
O6 O 0.4506(2) 0.3190(2) 0.5094(2)
O7 O 0.5183(2) 0.2185(2) 0.5457(2)
O8 O 0.5242(2) 0.0242(2) 0.4758(2)
S1 S 0.4671(10) -0.0100 0.5194(10)
Cu1 Cu 0.49998(3) 0.09204(4) 0.34945(4)
Ce1 Ce 0.397264(16) 0.397264(16) 0.397264(16)
C4G C 0.511(2) -0.047(2) 0.6049(8)
C5G C 0.507(3) -0.1227(10) 0.4724(19)
S1G S 0.4806(10) -0.0329(10) 0.5100
C4J C 0.3951(8) 0.011(2) 0.547(2)
C5J C 0.5276(19) 0.007(3) 0.6227(10)
S1J S 0.4900 -0.0194(10) 0.5329(10)
C1D C 0.4969(3) 0.4870(3) 0.2592(3)
C2D C 0.4132(3) 0.4904(3) 0.2341(3)
C3D C 0.3864(3) 0.4109(3) 0.2084(3)
O1D O 0.3672(2) 0.40319(18) 0.1415(2)
O2D O 0.40356(18) 0.54404(16) 0.17705(17)
O4D O 0.3874(2) 0.36056(18) 0.25713(19)
O5D O 0.37120(18) 0.50782(19) 0.29930(17)
O6D O 0.5094(2) 0.4506(2) 0.3190(2)
O7D O 0.5457(2) 0.5183(2) 0.2185(2)
Cu1D Cu 0.34945(4) 0.49998(3) 0.09204(4)
C1H C 0.2592(3) 0.4969(3) 0.4870(3)
C2H C 0.2341(3) 0.4132(3) 0.4904(3)
C3H C 0.2084(3) 0.3864(3) 0.4109(3)
O1H O 0.1415(2) 0.3672(2) 0.40319(18)
O2H O 0.17705(17) 0.40356(18) 0.54404(16)
O4H O 0.25713(19) 0.3874(2) 0.36056(18)
O5H O 0.29930(17) 0.37120(18) 0.50782(19)
O6H O 0.3190(2) 0.5094(2) 0.4506(2)
O7H O 0.2185(2) 0.5457(2) 0.5183(2)
Cu1H Cu 0.09204(4) 0.34945(4) 0.49998(3)
O2C O 0.04404(16) 0.32295(17) 0.59644(18)
O2G O 0.59644(18) 0.04404(16) 0.32295(17)
O2K O 0.32295(17) 0.59644(18) 0.04404(16)
O7C O 0.0183(2) 0.2815(2) 0.4543(2)
O7G O 0.4543(2) 0.0183(2) 0.2815(2)
O7K O 0.2815(2) 0.4543(2) 0.0183(2)
O8B O 0.4758(2) 0.5242(2) 0.0242(2)
O8C O 0.0242(2) 0.4758(2) 0.5242(2)
Cu1B Cu 0.50002(3) 0.59204(4) 0.15055(4)
Cu1F Cu 0.15055(4) 0.50002(3) 0.59204(4)
Cu1G Cu 0.65055(4) -0.00002(3) 0.40796(4)
Cu1J Cu 0.59204(4) 0.15055(4) 0.50002(3)
loop_
_geom_bond_atom_site_label_1
_geom_bond_atom_site_label_2
_geom_bond_site_symmetry_1
_geom_bond_site_symmetry_2
C1 C2 1_555 1_555
C2 C3 1_555 1_555
C3 O1 1_555 1_555
C4 S1 1_555 1_555
C5 S1 1_555 1_555
O1 Cu1 1_555 1_555
O2 C2 1_555 1_555
O3 Ce1 1_555 1_555
O4 C3 1_555 1_555
O5 C2 1_555 1_555
O6 C1 1_555 1_555
O7 C1 1_555 1_555
O8 S1 1_555 1_555
S1 C4G 1_555 1_555
Cu1 O2 1_555 1_555
Ce1 O4 1_555 1_555
C4G S1G 1_555 1_555
C5G C4 1_555 1_555
S1G C4 1_555 1_555
C4J C5 1_555 1_555
C5J S1 1_555 1_555
S1J C4 1_555 1_555
C1D C2D 1_555 1_555
C2D C3D 1_555 1_555
C3D O1D 1_555 1_555
O1D Cu1D 1_555 1_555
O2D C2D 1_555 1_555
O4D Ce1 1_555 1_555
O5D Ce1 1_555 1_555
O6D Ce1 1_555 1_555
O7D C1D 1_555 1_555
Cu1D O2D 1_555 1_555
C1H C2H 1_555 1_555
C2H C3H 1_555 1_555
C3H O1H 1_555 1_555
O1H Cu1H 1_555 1_555
O2H C2H 1_555 1_555
O4H Ce1 1_555 1_555
O5H Ce1 1_555 1_555
O6H Ce1 1_555 1_555
O7H C1H 1_555 1_555
Cu1H O2H 1_555 1_555
O2C Cu1H 1_555 1_555
O2G Cu1 1_555 1_555
O2K Cu1D 1_555 1_555
O7C Cu1H 1_555 1_555
O7G Cu1 1_555 1_555
O7K Cu1D 1_555 1_555
O8B Cu1D 1_555 1_555
O8C Cu1H 1_555 1_555
Cu1B O2D 1_555 1_555
Cu1F O2H 1_555 1_555
Cu1G O8 1_555 1_555
Cu1J O2 1_555 1_555
C5 S1G 1_555 1_555
O5 Ce1 1_555 1_555
O6 Ce1 1_555 1_555
O7 Cu1J 1_555 1_555
O8 Cu1 1_555 1_555
O8 S1G 1_555 1_555
O8 S1J 1_555 1_555
O8 Cu1J 1_555 1_555
S1 C4J 1_555 1_555
C4G C5J 1_555 1_555
C4G S1J 1_555 1_555
C5G S1G 1_555 1_555
C5G S1J 1_555 1_555
S1G C4J 1_555 1_555
C4J S1J 1_555 1_555
C5J S1J 1_555 1_555
C1D O6D 1_555 1_555
C2D O5D 1_555 1_555
C3D O4D 1_555 1_555
O7D Cu1B 1_555 1_555
C1H O6H 1_555 1_555
C2H O5H 1_555 1_555
C3H O4H 1_555 1_555
O7H Cu1F 1_555 1_555
O2G Cu1G 1_555 1_555
O8B Cu1B 1_555 1_555
O8C Cu1F 1_555 1_555

#END
