
#######################################################################
#
#                 Cambridge Crystallographic Data Centre
#                                CCDC 
#
#######################################################################
#
# If this CIF has been generated from an entry in the Cambridge 
# Structural Database, then it will include bibliographic, chemical, 
# crystal, experimental, refinement or atomic coordinate data resulting 
# from the CCDC's data processing and validation procedures.
#
#######################################################################

data_RUHFUX
_symmetry_cell_setting           cubic
_symmetry_space_group_name_H-M   'P 21 3'
_symmetry_Int_Tables_number      198
_space_group_name_Hall           'P 2ac 2ab 3'
loop_
_symmetry_equiv_pos_site_id
_symmetry_equiv_pos_as_xyz
1 x,y,z
2 1/2-x,-y,1/2+z
3 -x,1/2+y,1/2-z
4 1/2+x,1/2-y,-z
5 z,x,y
6 1/2+z,1/2-x,-y
7 1/2-z,-x,1/2+y
8 -z,1/2+x,1/2-y
9 y,z,x
10 -y,1/2+z,1/2-x
11 1/2+y,1/2-z,-x
12 1/2-y,-z,1/2+x
_cell_length_a                   17.5154(4)
_cell_length_b                   17.5154(4)
_cell_length_c                   17.5154(4)
_cell_angle_alpha                90
_cell_angle_beta                 90
_cell_angle_gamma                90
_cell_volume                     5373.54
loop_
_atom_site_label
_atom_site_type_symbol
_atom_site_fract_x
_atom_site_fract_y
_atom_site_fract_z
C1 C 0.7418(4) 0.9971(4) 0.0145(4)
C2 C 0.7653(3) 0.9128(4) 0.0089(3)
C3 C 0.7909(4) 0.8859(3) 0.0903(4)
C4 C 0.9848(18) 1.037(2) 0.1077(12)
C5 C 0.984(3) 0.960(5) 0.1241(12)
O1 O 0.8593(3) 0.8672(3) 0.0979(2)
O2 O 0.7410(2) 0.8869(3) 0.1403(2)
O3 O 0.8218(2) 0.9029(2) -0.0448(2)
O4 O 0.6993(2) 0.8707(2) -0.0076(3)
O5 O 0.6802(3) 1.0083(3) 0.0496(3)
O6 O 0.7801(3) 1.0463(3) -0.0182(3)
O7 O 0.5213(4) 0.9787(4) 0.0213(4)
O8 O 0.9734(3) 0.9734(3) -0.0266(3)
S1 S 1.0345(5) 1.0000 0.0276(6)
Nd1 Nd 0.60324(2) 0.89676(2) 0.10324(2)
Cu1 Cu 0.90772(5) 0.84875(5) 0.00006(4)
C4D C 1.1077(12) 0.9848(18) 0.037(2)
C5D C 1.1241(12) 0.984(3) -0.040(5)
S1D S 1.0276(6) 1.0345(5) 0.0000
C4H C 1.037(2) 1.1077(12) -0.0152(18)
C5H C 0.960(5) 1.1241(12) -0.016(3)
S1H S 1.0000 1.0276(6) 0.0345(5)
C1D C 1.0145(4) 0.7418(4) -0.0029(4)
C2D C 1.0089(3) 0.7653(3) -0.0872(4)
C3D C 1.0903(4) 0.7909(4) -0.1141(3)
O1D O 1.0979(2) 0.8593(3) -0.1328(3)
O2D O 1.1403(2) 0.7410(2) -0.1131(3)
O3D O 0.9552(2) 0.8218(2) -0.0971(2)
O4D O 0.9924(3) 0.6993(2) -0.1293(2)
O5D O 1.0496(3) 0.6802(3) 0.0083(3)
O6D O 0.9818(3) 0.7801(3) 0.0463(3)
Cu1D Cu 1.00006(4) 0.90772(5) -0.15125(5)
C1H C 0.9971(4) 1.0145(4) -0.2582(4)
C2H C 0.9128(4) 1.0089(3) -0.2347(3)
C3H C 0.8859(3) 1.0903(4) -0.2091(4)
O1H O 0.8672(3) 1.0979(2) -0.1407(3)
O2H O 0.8869(3) 1.1403(2) -0.2590(2)
O3H O 0.9029(2) 0.9552(2) -0.1782(2)
O4H O 0.8707(2) 0.9924(3) -0.3007(2)
O5H O 1.0083(3) 1.0496(3) -0.3198(3)
O6H O 1.0463(3) 0.9818(3) -0.2199(3)
Cu1H Cu 0.84875(5) 1.00006(4) -0.09228(5)
O2E O 0.6403(2) 0.7590(2) 0.1131(3)
O2K O 0.6131(3) 0.8597(2) 0.2410(2)
O4E O 0.4924(3) 0.8007(2) 0.1293(2)
O4K O 0.6293(2) 1.0076(3) 0.1993(2)
O5E O 0.5496(3) 0.8198(3) -0.0083(3)
O5K O 0.4917(3) 0.9504(3) 0.1802(3)
Nd1A Nd 0.89676(2) 1.10324(2) -0.39676(2)
Nd1C Nd 1.10324(2) 0.60324(2) -0.10324(2)
loop_
_geom_bond_atom_site_label_1
_geom_bond_atom_site_label_2
_geom_bond_site_symmetry_1
_geom_bond_site_symmetry_2
C1 C2 1_555 1_555
C2 C3 1_555 1_555
C3 O1 1_555 1_555
C4 C5 1_555 1_555
C5 S1 1_555 1_555
O1 Cu1 1_555 1_555
O2 C3 1_555 1_555
O3 C2 1_555 1_555
O4 C2 1_555 1_555
O5 C1 1_555 1_555
O6 C1 1_555 1_555
O7 Nd1 1_555 1_555
O8 S1 1_555 1_555
S1 C4 1_555 1_555
Nd1 O2 1_555 1_555
Cu1 O3 1_555 1_555
C4D S1 1_555 1_555
C5D S1 1_555 1_555
S1D C4 1_555 1_555
C4H S1 1_555 1_555
C5H S1D 1_555 1_555
S1H C4 1_555 1_555
C1D C2D 1_555 1_555
C2D C3D 1_555 1_555
C3D O1D 1_555 1_555
O1D Cu1D 1_555 1_555
O2D C3D 1_555 1_555
O3D Cu1 1_555 1_555
O4D C2D 1_555 1_555
O5D C1D 1_555 1_555
O6D Cu1 1_555 1_555
Cu1D O8 1_555 1_555
C1H C2H 1_555 1_555
C2H C3H 1_555 1_555
C3H O1H 1_555 1_555
O1H Cu1H 1_555 1_555
O2H C3H 1_555 1_555
O3H Cu1D 1_555 1_555
O4H C2H 1_555 1_555
O5H C1H 1_555 1_555
O6H Cu1D 1_555 1_555
Cu1H O3 1_555 1_555
O2E Nd1 1_555 1_555
O2K Nd1 1_555 1_555
O4E Nd1 1_555 1_555
O4K Nd1 1_555 1_555
O5E Nd1 1_555 1_555
O5K Nd1 1_555 1_555
Nd1A O2H 1_555 1_555
Nd1C O2D 1_555 1_555
C5 S1H 1_555 1_555
O4 Nd1 1_555 1_555
O5 Nd1 1_555 1_555
O6 Cu1H 1_555 1_555
O8 Cu1 1_555 1_555
O8 S1D 1_555 1_555
O8 S1H 1_555 1_555
O8 Cu1H 1_555 1_555
S1 S1D 1_555 1_555
S1 S1H 1_555 1_555
C4D C5D 1_555 1_555
C4D S1D 1_555 1_555
C4D S1H 1_555 1_555
C5D S1D 1_555 1_555
S1D C4H 1_555 1_555
S1D S1H 1_555 1_555
C4H C5H 1_555 1_555
C4H S1H 1_555 1_555
C5H S1H 1_555 1_555
C1D O6D 1_555 1_555
C2D O3D 1_555 1_555
O3D Cu1D 1_555 1_555
O4D Nd1C 1_555 1_555
O5D Nd1C 1_555 1_555
C1H O6H 1_555 1_555
C2H O3H 1_555 1_555
O3H Cu1H 1_555 1_555
O4H Nd1A 1_555 1_555
O5H Nd1A 1_555 1_555

#END
