
#######################################################################
#
#                 Cambridge Crystallographic Data Centre
#                                CCDC 
#
#######################################################################
#
# If this CIF has been generated from an entry in the Cambridge 
# Structural Database, then it will include bibliographic, chemical, 
# crystal, experimental, refinement or atomic coordinate data resulting 
# from the CCDC's data processing and validation procedures.
#
#######################################################################

data_RUHJAH
_symmetry_cell_setting           monoclinic
_symmetry_space_group_name_H-M   'P 21/n'
_symmetry_Int_Tables_number      14
_space_group_name_Hall           '-P 2yn'
loop_
_symmetry_equiv_pos_site_id
_symmetry_equiv_pos_as_xyz
1 x,y,z
2 1/2-x,1/2+y,1/2-z
3 -x,-y,-z
4 1/2+x,1/2-y,1/2+z
_cell_length_a                   8.7542(8)
_cell_length_b                   16.4242(15)
_cell_length_c                   15.9879(15)
_cell_angle_alpha                90
_cell_angle_beta                 91.709(2)
_cell_angle_gamma                90
_cell_volume                     2297.73
loop_
_atom_site_label
_atom_site_type_symbol
_atom_site_fract_x
_atom_site_fract_y
_atom_site_fract_z
Zn1 Zn 0.10628(4) 0.68295(2) 1.13297(2)
O1 O -0.0839(3) 0.43503(14) 0.84216(15)
O2 O 0.1264(3) 0.45968(14) 0.92111(16)
O3 O -0.2985(3) 0.79618(14) 0.75052(15)
O4 O -0.2862(3) 0.67938(14) 0.68128(15)
N1 N 0.0729(3) 0.75613(16) 1.00382(17)
N2 N 0.3104(3) 0.66593(16) 1.07085(18)
N3 N -0.1067(3) 0.73520(16) 1.13981(18)
C1 C 0.0021(4) 0.7060(2) 0.9386(2)
C2 C 0.0387(4) 0.62326(19) 0.9361(2)
H1 H 0.1086 0.6016 0.9769
C3 C -0.0246(4) 0.5724(2) 0.8759(2)
C4 C -0.1245(4) 0.6038(2) 0.8142(2)
H2 H -0.1681 0.5691 0.7724
C5 C -0.1594(4) 0.68607(19) 0.8146(2)
C6 C -0.0983(4) 0.7367(2) 0.8771(2)
H3 H -0.1254 0.7927 0.8778
C7 C 0.0115(4) 0.4820(2) 0.8808(2)
C8 C -0.2557(4) 0.7211(2) 0.7441(2)
C9 C 0.4073(4) 0.6064(2) 1.0945(2)
H4 H 0.381 0.5719 1.1395
C10 C 0.5442(4) 0.5935(2) 1.0554(2)
H5 H 0.6116 0.5514 1.0737
C11 C 0.5806(4) 0.6432(2) 0.9895(2)
H6 H 0.6744 0.6363 0.962
C12 C 0.4791(4) 0.7034(2) 0.9637(2)
H7 H 0.5015 0.7373 0.9176
C13 C 0.3451(4) 0.7135(2) 1.0056(2)
C14 C 0.2311(4) 0.7804(2) 0.9838(2)
H8 H 0.2592 0.8303 1.0155
H9 H 0.2356 0.7931 0.9234
C15 C -0.2088(4) 0.7094(2) 1.1949(2)
H10 H -0.1811 0.6659 1.2316
C16 C -0.3529(4) 0.7436(2) 1.2006(2)
H11 H -0.4217 0.7252 1.2414
C17 C -0.3940(4) 0.8054(2) 1.1450(2)
H12 H -0.4925 0.8296 1.1467
C18 C -0.2898(4) 0.8316(2) 1.0870(2)
H13 H -0.3165 0.8731 1.0479
C19 C -0.1455(4) 0.7960(2) 1.0871(2)
C20 C -0.0214(4) 0.82546(19) 1.0307(2)
H14 H -0.0683 0.8526 0.9809
H15 H 0.0438 0.8656 1.061
Zn1B Zn -0.10628(4) 0.31705(2) 0.86703(2)
Zn1C Zn -0.39372(4) 0.81705(2) 0.63297(2)
O1B O 0.0839(3) 0.56497(14) 1.15784(15)
O3C O 0.2015(3) 0.70382(14) 1.25052(15)
O4C O 0.2138(3) 0.82062(14) 1.18128(15)
O5 O 0.2951(4) -0.05770(18) 0.85020(18)
N4 N 0.1199(4) 0.01811(19) 0.77788(19)
C21 C -0.0104(5) -0.0131(3) 0.8232(3)
H16 H -0.0592 -0.0572 0.791
H17 H -0.0843 0.0309 0.8311
H18 H 0.025 -0.0338 0.8779
C22 C 0.2604(5) -0.0064(2) 0.7963(2)
H19 H 0.3409 0.0171 0.7659
C23 C 0.0895(5) 0.0792(2) 0.7143(3)
H20 H 0.0511 0.1288 0.7405
H21 H 0.0128 0.0586 0.6737
H22 H 0.1841 0.0916 0.6855
O6 O 0.1056(4) 0.59988(17) 0.38281(17)
H23 H 0.1439 0.6231 0.3412
H24 H 0.0168 0.5821 0.3699
O7 O 0.2399(6) 0.9808(2) 0.0252(2)
H25 H 0.3217 0.9556 0.0388
H26 H 0.2401 1.0273 0.0486
loop_
_geom_bond_atom_site_label_1
_geom_bond_atom_site_label_2
_geom_bond_site_symmetry_1
_geom_bond_site_symmetry_2
Zn1 N1 1_555 1_555
O1 C7 1_555 1_555
O2 C7 1_555 1_555
O3 C8 1_555 1_555
O4 C8 1_555 1_555
N1 C1 1_555 1_555
N2 Zn1 1_555 1_555
N3 Zn1 1_555 1_555
C1 C2 1_555 1_555
C2 H1 1_555 1_555
C3 C2 1_555 1_555
C4 C3 1_555 1_555
H2 C4 1_555 1_555
C5 C4 1_555 1_555
C6 C1 1_555 1_555
H3 C6 1_555 1_555
C7 C3 1_555 1_555
C8 C5 1_555 1_555
C9 N2 1_555 1_555
H4 C9 1_555 1_555
C10 C9 1_555 1_555
H5 C10 1_555 1_555
C11 C10 1_555 1_555
H6 C11 1_555 1_555
C12 C11 1_555 1_555
H7 C12 1_555 1_555
C13 N2 1_555 1_555
C14 N1 1_555 1_555
H8 C14 1_555 1_555
H9 C14 1_555 1_555
C15 N3 1_555 1_555
H10 C15 1_555 1_555
C16 C15 1_555 1_555
H11 C16 1_555 1_555
C17 C16 1_555 1_555
H12 C17 1_555 1_555
C18 C17 1_555 1_555
H13 C18 1_555 1_555
C19 N3 1_555 1_555
C20 N1 1_555 1_555
H14 C20 1_555 1_555
H15 C20 1_555 1_555
O5 C22 1_555 1_555
N4 C21 1_555 1_555
C21 H16 1_555 1_555
H17 C21 1_555 1_555
H18 C21 1_555 1_555
C22 N4 1_555 1_555
H19 C22 1_555 1_555
C23 N4 1_555 1_555
H20 C23 1_555 1_555
H21 C23 1_555 1_555
H22 C23 1_555 1_555
O6 H23 1_555 1_555
H24 O6 1_555 1_555
O7 H25 1_555 1_555
H26 O7 1_555 1_555
Zn1B O1 1_555 1_555
Zn1C O3 1_555 1_555
O1B Zn1 1_555 1_555
O3C Zn1 1_555 1_555
O4C Zn1 1_555 1_555
O4 Zn1C 1_555 1_555
C5 C6 1_555 1_555
C12 C13 1_555 1_555
C13 C14 1_555 1_555
C18 C19 1_555 1_555
C19 C20 1_555 1_555

#END
