
#######################################################################
#
#                 Cambridge Crystallographic Data Centre
#                                CCDC 
#
#######################################################################
#
# If this CIF has been generated from an entry in the Cambridge 
# Structural Database, then it will include bibliographic, chemical, 
# crystal, experimental, refinement or atomic coordinate data resulting 
# from the CCDC's data processing and validation procedures.
#
#######################################################################

data_RUHVEX
_symmetry_cell_setting           monoclinic
_symmetry_space_group_name_H-M   'C 2/c'
_symmetry_Int_Tables_number      15
_space_group_name_Hall           '-C 2yn'
loop_
_symmetry_equiv_pos_site_id
_symmetry_equiv_pos_as_xyz
1 x,y,z
2 -x,y,1/2-z
3 1/2+x,1/2+y,z
4 1/2-x,1/2+y,1/2-z
5 -x,-y,-z
6 x,-y,1/2+z
7 1/2-x,1/2-y,-z
8 1/2+x,1/2-y,1/2+z
_cell_length_a                   23.2701(17)
_cell_length_b                   11.5236(9)
_cell_length_c                   11.1892(8)
_cell_angle_alpha                90
_cell_angle_beta                 110.230(2)
_cell_angle_gamma                90
_cell_volume                     2815.35
loop_
_atom_site_label
_atom_site_type_symbol
_atom_site_fract_x
_atom_site_fract_y
_atom_site_fract_z
Cd1 Cd 0.30505(2) 0.35551(2) 0.50716(2)
O1 O 0.20275(7) 0.33244(15) 0.42740(15)
S1 S 0.31307(4) 0.41358(6) 0.94823(6)
N1 N 0.29065(8) 0.30079(18) 0.30084(17)
N2 N 0.40179(10) 0.3290(2) 0.4881(2)
N3 N 0.32772(11) 0.4156(2) 0.71169(19)
C1 C 0.16809(11) 0.3723(2) 0.3158(2)
C2 C 0.10803(13) 0.4068(3) 0.2978(3)
H1 H 0.0936 0.3997 0.3653
C3 C 0.07103(14) 0.4491(3) 0.1888(3)
H2 H 0.0318 0.4723 0.1825
C4 C 0.08899(15) 0.4599(4) 0.0830(3)
H3 H 0.0624 0.4896 0.0066
C5 C 0.14724(13) 0.4254(3) 0.0947(3)
H4 H 0.1601 0.4321 0.0250
C6 C 0.18773(11) 0.3804(2) 0.2093(2)
C7 C 0.24592(12) 0.3379(2) 0.2063(2)
H5 H 0.2511 0.3377 0.1275
C8 C 0.34337(12) 0.2533(3) 0.2786(3)
H6 H 0.3435 0.2798 0.1963
H7 H 0.3403 0.1694 0.2757
C9 C 0.40268(11) 0.2880(2) 0.3797(3)
C10 C 0.45764(15) 0.2728(5) 0.3605(4)
H8 H 0.4581 0.2411 0.2844
C11 C 0.51137(16) 0.3041(6) 0.4527(5)
H9 H 0.5484 0.2954 0.4391
C12 C 0.51023(17) 0.3477(5) 0.5635(4)
H10 H 0.5462 0.3689 0.6282
C13 C 0.45468(15) 0.3598(4) 0.5777(3)
H11 H 0.4535 0.3909 0.6535
C14 C 0.32144(11) 0.4159(2) 0.8083(2)
Cd1E Cd 0.30505(2) 0.64449(2) 1.00716(2)
Cd1F Cd 0.19495(2) 0.14449(2) 0.49284(2)
O1F O 0.29725(7) 0.16756(15) 0.57260(15)
S1E S 0.31307(4) 0.58642(6) 0.44823(6)
loop_
_geom_bond_atom_site_label_1
_geom_bond_atom_site_label_2
_geom_bond_site_symmetry_1
_geom_bond_site_symmetry_2
Cd1 O1 1_555 1_555
O1 C1 1_555 1_555
S1 C14 1_555 1_555
N1 Cd1 1_555 1_555
N2 Cd1 1_555 1_555
N3 Cd1 1_555 1_555
C1 C2 1_555 1_555
C2 H1 1_555 1_555
C3 C2 1_555 1_555
H2 C3 1_555 1_555
C4 C3 1_555 1_555
H3 C4 1_555 1_555
C5 C4 1_555 1_555
H4 C5 1_555 1_555
C6 C1 1_555 1_555
C7 N1 1_555 1_555
H5 C7 1_555 1_555
C8 N1 1_555 1_555
H6 C8 1_555 1_555
H7 C8 1_555 1_555
C9 N2 1_555 1_555
C10 C9 1_555 1_555
H8 C10 1_555 1_555
C11 C10 1_555 1_555
H9 C11 1_555 1_555
C12 C11 1_555 1_555
H10 C12 1_555 1_555
C13 N2 1_555 1_555
H11 C13 1_555 1_555
C14 N3 1_555 1_555
Cd1E S1 1_555 1_555
Cd1F O1 1_555 1_555
O1F Cd1 1_555 1_555
S1E Cd1 1_555 1_555
C5 C6 1_555 1_555
C6 C7 1_555 1_555
C8 C9 1_555 1_555
C12 C13 1_555 1_555
Cd1F O1F 1_555 1_555

#END
