
#######################################################################
#
#                 Cambridge Crystallographic Data Centre
#                                CCDC 
#
#######################################################################
#
# If this CIF has been generated from an entry in the Cambridge 
# Structural Database, then it will include bibliographic, chemical, 
# crystal, experimental, refinement or atomic coordinate data resulting 
# from the CCDC's data processing and validation procedures.
#
#######################################################################

data_RUJGOT
_symmetry_cell_setting           monoclinic
_symmetry_space_group_name_H-M   'C 2/c'
_symmetry_Int_Tables_number      15
_space_group_name_Hall           '-C 2yn'
loop_
_symmetry_equiv_pos_site_id
_symmetry_equiv_pos_as_xyz
1 x,y,z
2 -x,y,1/2-z
3 1/2+x,1/2+y,z
4 1/2-x,1/2+y,1/2-z
5 -x,-y,-z
6 x,-y,1/2+z
7 1/2-x,1/2-y,-z
8 1/2+x,1/2-y,1/2+z
_cell_length_a                   17.334(3)
_cell_length_b                   11.183(2)
_cell_length_c                   11.418(2)
_cell_angle_alpha                90
_cell_angle_beta                 95.96(3)
_cell_angle_gamma                90
_cell_volume                     2201.37
loop_
_atom_site_label
_atom_site_type_symbol
_atom_site_fract_x
_atom_site_fract_y
_atom_site_fract_z
Mn1 Mn 0.0000 0.62974(6) 0.7500
Mn2 Mn 0.41120(3) 0.95209(4) 0.48511(4)
O1 O 0.30252(13) 1.0493(2) 0.4751(2)
O3 O 0.14298(13) 0.7148(2) 0.58004(19)
O5 O 0.08423(13) 0.7739(2) 0.73638(18)
O6 O 0.10275(15) 0.3597(2) 0.84929(19)
O7 O 0.02493(13) 0.6057(2) 0.93965(19)
H5 H 0.040(2) 0.661(3) 0.961(3)
O8 O 0.08565(12) 0.49145(19) 0.70331(17)
N1 N 0.25704(15) 1.0320(2) 0.5612(2)
C1 C 0.12926(17) 0.7889(3) 0.6579(3)
C2 C 0.17166(18) 0.9073(3) 0.6565(3)
C3 C 0.21922(18) 0.9272(3) 0.5682(3)
H6 H 0.2277(17) 0.868(3) 0.508(3)
C4 C 0.2490(2) 1.1205(3) 0.6397(3)
H7 H 0.2776(19) 1.190(3) 0.625(3)
C5 C 0.2033(2) 1.1033(3) 0.7291(3)
H8 H 0.1996(19) 1.170(3) 0.787(3)
C6 C 0.1644(2) 0.9969(3) 0.7385(3)
H9 H 0.1308(19) 0.983(3) 0.800(3)
C7 C 0.1054(2) 0.3931(3) 0.7454(3)
H10 H 0.119(2) 0.327(4) 0.690(3)
Mn2A Mn -0.41120(3) 0.95209(4) 1.01489(4)
Mn2F Mn 0.08880(3) 0.54791(4) 0.51489(4)
Mn2C Mn 0.08880(3) 0.45209(4) 1.01489(4)
Mn2G Mn -0.08880(3) 0.54791(4) 0.98511(4)
Mn2B Mn -0.08880(3) 0.45209(4) 0.48511(4)
O1A O -0.30252(13) 1.0493(2) 1.0249(2)
O3A O -0.14298(13) 0.7148(2) 0.91996(19)
O3F O 0.35702(13) 0.7852(2) 0.41996(19)
O3G O -0.35702(13) 0.7852(2) 1.08004(19)
O5A O -0.08423(13) 0.7739(2) 0.76362(18)
O6A O -0.10275(15) 0.3597(2) 0.65071(19)
O6C O 0.39725(15) 0.8597(2) 0.65071(19)
O6B O -0.39725(15) 0.8597(2) 0.84929(19)
O7A O -0.02493(13) 0.6057(2) 0.56035(19)
O7C O 0.47507(13) 1.1057(2) 0.56035(19)
O7G O 0.52493(13) 0.8943(2) 0.43965(19)
O7B O -0.47507(13) 1.1057(2) 0.93965(19)
O7F O -0.52493(13) 0.8943(2) 1.06035(19)
H5A H -0.040(2) 0.661(3) 0.539(3)
H5C H 0.460(2) 1.161(3) 0.539(3)
H5G H 0.540(2) 0.839(3) 0.461(3)
H5B H -0.460(2) 1.161(3) 0.961(3)
H5F H -0.540(2) 0.839(3) 1.039(3)
O8A O -0.08565(12) 0.49145(19) 0.79669(17)
O8F O 0.41435(12) 1.00855(19) 0.29669(17)
O8G O -0.41435(12) 1.00855(19) 1.20331(17)
N1A N -0.25704(15) 1.0320(2) 0.9388(2)
C1A C -0.12926(17) 0.7889(3) 0.8421(3)
C2A C -0.17166(18) 0.9073(3) 0.8435(3)
C3A C -0.21922(18) 0.9272(3) 0.9318(3)
H6A H -0.2277(17) 0.868(3) 0.992(3)
C4A C -0.2490(2) 1.1205(3) 0.8603(3)
H7A H -0.2776(19) 1.190(3) 0.875(3)
C5A C -0.2033(2) 1.1033(3) 0.7709(3)
H8A H -0.1996(19) 1.170(3) 0.713(3)
C6A C -0.1644(2) 0.9969(3) 0.7615(3)
H9A H -0.1308(19) 0.983(3) 0.700(3)
C7A C -0.1054(2) 0.3931(3) 0.7546(3)
H10A H -0.119(2) 0.327(4) 0.810(3)
O2 O 0.4316(4) 0.3856(7) 0.5389(5)
H1 H 0.4595 0.3797 0.4821
H2 H 0.4210 0.3482 0.6001
O4 O 0.5220(3) 0.6367(3) 0.8710(3)
H3 H 0.5500 0.6991 0.8810
H4 H 0.5085 0.6545 0.7994
H11? H 0.5706 0.6373 0.8919
loop_
_geom_bond_atom_site_label_1
_geom_bond_atom_site_label_2
_geom_bond_site_symmetry_1
_geom_bond_site_symmetry_2
Mn1 O5 1_555 1_555
Mn2 O1 1_555 1_555
O1 N1 1_555 1_555
O2 H1 1_555 1_555
H2 O2 1_555 1_555
O3 C1 1_555 1_555
O4 H3 1_555 1_555
H4 O4 1_555 1_555
O5 C1 1_555 1_555
O6 C7 1_555 1_555
O7 Mn1 1_555 1_555
H5 O7 1_555 1_555
O8 Mn1 1_555 1_555
N1 C3 1_555 1_555
C1 C2 1_555 1_555
C2 C3 1_555 1_555
C3 H6 1_555 1_555
C4 N1 1_555 1_555
H7 C4 1_555 1_555
C5 C4 1_555 1_555
H8 C5 1_555 1_555
C6 C2 1_555 1_555
H9 C6 1_555 1_555
C7 O8 1_555 1_555
H10 C7 1_555 1_555
Mn2A O1A 1_555 1_555
Mn2F O3 1_555 1_555
Mn2C O6 1_555 1_555
Mn2G O7 1_555 1_555
Mn2B O6A 1_555 1_555
O1A N1A 1_555 1_555
O3A Mn2G 1_555 1_555
O3F Mn2 1_555 1_555
O3G Mn2A 1_555 1_555
O5A Mn1 1_555 1_555
O6A C7A 1_555 1_555
O6C Mn2 1_555 1_555
O6B Mn2A 1_555 1_555
O7A Mn1 1_555 1_555
O7C Mn2 1_555 1_555
O7G Mn2 1_555 1_555
O7B Mn2A 1_555 1_555
O7F Mn2A 1_555 1_555
H5A O7A 1_555 1_555
H5C O7C 1_555 1_555
H5G O7G 1_555 1_555
H5B O7B 1_555 1_555
H5F O7F 1_555 1_555
O8A Mn1 1_555 1_555
O8F Mn2 1_555 1_555
O8G Mn2A 1_555 1_555
N1A C3A 1_555 1_555
C1A O3A 1_555 1_555
C2A C1A 1_555 1_555
C3A C2A 1_555 1_555
H6A C3A 1_555 1_555
C4A N1A 1_555 1_555
H7A C4A 1_555 1_555
C5A C4A 1_555 1_555
H8A C5A 1_555 1_555
C6A C2A 1_555 1_555
H9A C6A 1_555 1_555
C7A O8A 1_555 1_555
H10A C7A 1_555 1_555
O7 Mn2C 1_555 1_555
O8 Mn2F 1_555 1_555
C5 C6 1_555 1_555
Mn2F O7A 1_555 1_555
Mn2G O8A 1_555 1_555
Mn2B O7A 1_555 1_555
O5A C1A 1_555 1_555
C5A C6A 1_555 1_555

#END
