
#######################################################################
#
#                 Cambridge Crystallographic Data Centre
#                                CCDC 
#
#######################################################################
#
# If this CIF has been generated from an entry in the Cambridge 
# Structural Database, then it will include bibliographic, chemical, 
# crystal, experimental, refinement or atomic coordinate data resulting 
# from the CCDC's data processing and validation procedures.
#
#######################################################################

data_RUJGIO
_symmetry_cell_setting           monoclinic
_symmetry_space_group_name_H-M   'P 21/n'
_symmetry_Int_Tables_number      14
_space_group_name_Hall           '-P 2yn'
loop_
_symmetry_equiv_pos_site_id
_symmetry_equiv_pos_as_xyz
1 x,y,z
2 1/2-x,1/2+y,1/2-z
3 -x,-y,-z
4 1/2+x,1/2-y,1/2+z
_cell_length_a                   12.4105(6)
_cell_length_b                   16.7214(7)
_cell_length_c                   15.9039(7)
_cell_angle_alpha                90
_cell_angle_beta                 97.126(2)
_cell_angle_gamma                90
_cell_volume                     3274.9
loop_
_atom_site_label
_atom_site_type_symbol
_atom_site_fract_x
_atom_site_fract_y
_atom_site_fract_z
Nd1 Nd 0.770990(9) 0.205352(7) 0.731442(7)
Ni1 Ni 1.01916(2) 0.251088(17) 0.652706(18)
O1 O 0.82732(13) 0.06173(10) 0.78058(11)
O2 O 0.95706(12) 0.16571(9) 0.72405(10)
O3 O 0.86200(12) 0.29192(9) 0.64042(10)
O4 O 0.65161(13) 0.28494(11) 0.61017(12)
O5 O 0.79797(18) 0.33215(11) 0.82036(12)
O6 O 0.87376(17) 0.22779(11) 0.87918(12)
O7 O 0.8783(2) 0.33855(13) 0.94932(13)
O8 O 0.58147(19) 0.25522(14) 0.76571(16)
O9 O 0.65022(19) 0.16364(15) 0.84721(14)
O10 O 0.4758(2) 0.1813(2) 0.8293(2)
O11 O 1.26925(14) 0.37522(11) 1.09610(11)
O12 O 1.13013(14) 0.38771(11) 1.16778(11)
O13 O 0.96559(16) 0.17233(14) 0.54841(12)
N1 N 1.16667(16) 0.19475(13) 0.66638(14)
N2 N 1.06056(16) 0.33968(13) 0.57481(13)
N3 N 0.85091(18) 0.30047(13) 0.88485(14)
N4 N 0.5667(2) 0.19922(17) 0.81541(17)
N5 N 1.06146(15) 0.32379(12) 0.75943(12)
C1 C 0.7554(2) 0.00413(17) 0.8111(2)
H1 H 0.6886 0.0304 0.8213
H2 H 0.7899 -0.0192 0.8635
H3 H 0.7393 -0.0376 0.7691
C2 C 0.92672(19) 0.03289(14) 0.76317(15)
C3 C 0.9588(2) -0.04560(15) 0.77328(18)
H4 H 0.9121 -0.0835 0.7931
C4 C 1.0607(2) -0.06864(16) 0.75401(19)
H5 H 1.0824 -0.1224 0.7599
C5 C 1.1286(2) -0.01352(16) 0.72676(17)
H6 H 1.1979 -0.0296 0.7153
C6 C 1.09790(19) 0.06770(15) 0.71509(15)
C7 C 0.99412(18) 0.09192(13) 0.73283(14)
C8 C 1.17838(19) 0.12135(16) 0.68854(16)
H7 H 1.2481 0.0997 0.6874
C9 C 1.2645(2) 0.2365(2) 0.6470(2)
H8 H 1.3213 0.1970 0.6407
H9 H 1.2908 0.2714 0.6946
C10 C 1.2451(2) 0.2862(2) 0.5668(2)
H10 H 1.3156 0.3031 0.5512
H11 H 1.2105 0.2523 0.5209
C11 C 1.1759(2) 0.35930(18) 0.5727(2)
H12 H 1.2028 0.3891 0.6241
H13 H 1.1825 0.3940 0.5239
C12 C 0.9922(2) 0.37884(15) 0.52454(16)
H14 H 1.0212 0.4153 0.4884
C13 C 0.8749(2) 0.37360(15) 0.51667(15)
C14 C 0.8181(3) 0.41591(17) 0.44854(17)
H15 H 0.8575 0.4450 0.4120
C15 C 0.7073(3) 0.41577(19) 0.43419(18)
H16 H 0.6711 0.4455 0.3891
C16 C 0.6485(2) 0.37142(17) 0.48657(17)
H17 H 0.5723 0.3699 0.4762
C17 C 0.70242(19) 0.32966(14) 0.55381(15)
C18 C 0.81701(18) 0.33082(13) 0.57222(14)
C19 C 0.5369(2) 0.2716(2) 0.5849(2)
H18 H 0.5074 0.2396 0.6275
H19 H 0.5268 0.2436 0.5310
H20 H 0.4995 0.3226 0.5792
C20 C 1.1253(2) 0.29712(14) 0.82798(16)
H21 H 1.1438 0.2426 0.8306
C21 C 1.1648(2) 0.34535(15) 0.89428(16)
H22 H 1.2112 0.3241 0.9401
C22 C 1.13619(19) 0.42595(14) 0.89387(15)
C23 C 1.0666(2) 0.45282(15) 0.82388(16)
H23 H 1.0434 0.5064 0.8207
C24 C 1.0322(2) 0.39999(15) 0.75918(16)
H24 H 0.9855 0.4192 0.7125
C25 C 1.1781(2) 0.48147(16) 0.96425(16)
H25 H 1.1634 0.5367 0.9457
H26 H 1.2570 0.4751 0.9763
C26 C 1.1271(2) 0.46681(17) 1.04580(16)
H27 H 1.1266 0.5178 1.0762
H28 H 1.0513 0.4511 1.0298
C27 C 1.17877(19) 0.40613(14) 1.10558(15)
C28 C 0.9909(3) 0.1616(2) 0.4653(2)
H29 H 1.0165 0.2127 0.4449
H30 H 0.9243 0.1472 0.4287
C29 C 1.0730(3) 0.1005(3) 0.4568(3)
H31 H 1.0862 0.0971 0.3980
H32 H 1.0475 0.0492 0.4749
H33 H 1.1400 0.1147 0.4918
H34 H 0.914(3) 0.150(2) 0.556(2)
Nd1C Nd 1.270990(9) 0.294648(7) 1.231442(7)
O11C O 0.76925(14) 0.12478(11) 0.59610(11)
O12C O 0.63013(14) 0.11229(11) 0.66778(11)
loop_
_geom_bond_atom_site_label_1
_geom_bond_atom_site_label_2
_geom_bond_site_symmetry_1
_geom_bond_site_symmetry_2
Nd1 O1 1_555 1_555
Ni1 O2 1_555 1_555
O1 C1 1_555 1_555
O2 Nd1 1_555 1_555
O3 Nd1 1_555 1_555
O4 Nd1 1_555 1_555
O5 Nd1 1_555 1_555
O6 Nd1 1_555 1_555
O7 N3 1_555 1_555
O8 Nd1 1_555 1_555
O9 Nd1 1_555 1_555
O10 N4 1_555 1_555
O11 C27 1_555 1_555
O12 C27 1_555 1_555
O13 Ni1 1_555 1_555
N1 Ni1 1_555 1_555
N2 Ni1 1_555 1_555
N3 O5 1_555 1_555
N4 O8 1_555 1_555
N5 Ni1 1_555 1_555
C1 H1 1_555 1_555
H2 C1 1_555 1_555
H3 C1 1_555 1_555
C2 O1 1_555 1_555
C3 C2 1_555 1_555
H4 C3 1_555 1_555
C4 C3 1_555 1_555
H5 C4 1_555 1_555
C5 C4 1_555 1_555
H6 C5 1_555 1_555
C6 C5 1_555 1_555
C7 O2 1_555 1_555
C8 N1 1_555 1_555
H7 C8 1_555 1_555
C9 N1 1_555 1_555
H8 C9 1_555 1_555
H9 C9 1_555 1_555
C10 C9 1_555 1_555
H10 C10 1_555 1_555
H11 C10 1_555 1_555
C11 N2 1_555 1_555
H12 C11 1_555 1_555
H13 C11 1_555 1_555
C12 N2 1_555 1_555
H14 C12 1_555 1_555
C13 C12 1_555 1_555
C14 C13 1_555 1_555
H15 C14 1_555 1_555
C15 C14 1_555 1_555
H16 C15 1_555 1_555
C16 C15 1_555 1_555
H17 C16 1_555 1_555
C17 O4 1_555 1_555
C18 O3 1_555 1_555
C19 O4 1_555 1_555
H18 C19 1_555 1_555
H19 C19 1_555 1_555
H20 C19 1_555 1_555
C20 N5 1_555 1_555
H21 C20 1_555 1_555
C21 C20 1_555 1_555
H22 C21 1_555 1_555
C22 C21 1_555 1_555
C23 C22 1_555 1_555
H23 C23 1_555 1_555
C24 N5 1_555 1_555
H24 C24 1_555 1_555
C25 C22 1_555 1_555
H25 C25 1_555 1_555
H26 C25 1_555 1_555
C26 C25 1_555 1_555
H27 C26 1_555 1_555
H28 C26 1_555 1_555
C27 C26 1_555 1_555
C28 O13 1_555 1_555
H29 C28 1_555 1_555
H30 C28 1_555 1_555
C29 C28 1_555 1_555
H31 C29 1_555 1_555
H32 C29 1_555 1_555
H33 C29 1_555 1_555
H34 O13 1_555 1_555
Nd1C O11 1_555 1_555
O11C Nd1 1_555 1_555
O12C Nd1 1_555 1_555
Ni1 O3 1_555 1_555
O6 N3 1_555 1_555
O9 N4 1_555 1_555
O12 Nd1C 1_555 1_555
C2 C7 1_555 1_555
C6 C7 1_555 1_555
C6 C8 1_555 1_555
C10 C11 1_555 1_555
C13 C18 1_555 1_555
C16 C17 1_555 1_555
C17 C18 1_555 1_555
C23 C24 1_555 1_555

#END
