
#######################################################################
#
#                 Cambridge Crystallographic Data Centre
#                                CCDC 
#
#######################################################################
#
# If this CIF has been generated from an entry in the Cambridge 
# Structural Database, then it will include bibliographic, chemical, 
# crystal, experimental, refinement or atomic coordinate data resulting 
# from the CCDC's data processing and validation procedures.
#
#######################################################################

data_RUKQAQ01
_symmetry_cell_setting           monoclinic
_symmetry_space_group_name_H-M   'P 21/c'
_symmetry_Int_Tables_number      14
_space_group_name_Hall           '-P 2ybc'
loop_
_symmetry_equiv_pos_site_id
_symmetry_equiv_pos_as_xyz
1 x,y,z
2 -x,1/2+y,1/2-z
3 -x,-y,-z
4 x,1/2-y,1/2+z
_cell_length_a                   12.3072(19)
_cell_length_b                   7.7045(12)
_cell_length_c                   15.867(2)
_cell_angle_alpha                90
_cell_angle_beta                 105.609(3)
_cell_angle_gamma                90
_cell_volume                     1449.04
loop_
_atom_site_label
_atom_site_type_symbol
_atom_site_fract_x
_atom_site_fract_y
_atom_site_fract_z
Co1 Co 0.29952(3) 0.48788(5) 0.18183(2)
O1 O 0.36406(18) 0.2411(2) 0.18454(13)
O2 O 0.2900(2) 0.3333(3) 0.05126(14)
O3 O 0.32610(19) -0.0528(3) -0.19381(12)
O4 O 0.37573(19) -0.3299(3) -0.16856(13)
N1 N 0.45073(19) -0.3910(3) 0.16205(14)
H1 H 0.4579 -0.4950 0.1447
H2 H 0.4596 -0.3704 0.2168
N2 N 0.1789(2) 0.6667(3) 0.11453(15)
C1 C 0.3658(2) 0.0445(3) 0.06930(17)
C2 C 0.3508(2) 0.0145(3) -0.01938(17)
H3 H 0.3256 0.1035 -0.0595
C3 C 0.3735(2) -0.1478(3) -0.04801(17)
C4 C 0.4092(2) -0.2817(4) 0.01185(17)
H4 H 0.4231 -0.3911 -0.0077
C5 C 0.4240(2) -0.2528(3) 0.10021(16)
C6 C 0.4034(2) -0.0891(4) 0.12875(17)
H5 H 0.4149 -0.0686 0.1883
C7 C 0.3382(2) 0.2166(4) 0.10237(19)
C8 C 0.3584(2) -0.1817(4) -0.14398(17)
C9 C 0.1656(3) 0.8166(4) 0.1526(2)
H6 H 0.2047 0.8328 0.2110
C10 C 0.0968(3) 0.9491(4) 0.1100(2)
H7 H 0.0911 1.0514 0.1396
C11 C 0.0370(3) 0.9305(4) 0.0242(2)
C12 C 0.0497(4) 0.7732(5) -0.0143(2)
H8 H 0.0090 0.7516 -0.0718
C13 C 0.1219(4) 0.6485(5) 0.0314(2)
H9 H 0.1310 0.5466 0.0026
O5 O 0.15701(19) 0.3353(3) 0.21409(15)
H10 H 0.1936 0.2680 0.2510
C14 C 0.0743(3) 0.4186(6) 0.2471(3)
H11 H 0.0310 0.3327 0.2676
H12 H 0.0253 0.4857 0.2014
H13 H 0.1107 0.4937 0.2946
Co1C Co 0.29952(3) 0.01212(5) 0.68183(2)
Co1C_2 Co 0.29952(3) 0.01212(5) -0.31817(2)
Co1_2 Co 0.29952(3) -0.51212(5) 0.18183(2)
Co1B Co -0.29952(3) 1.51212(5) -0.18183(2)
Co1C_3 Co 0.29952(3) 1.01212(5) 0.68183(2)
O1C O 0.36406(18) 0.2589(2) 0.68454(13)
O2C O 0.2900(2) 0.1667(3) 0.55126(14)
O3C O 0.32610(19) 0.5528(3) 0.30619(12)
O3_2 O 0.32610(19) -0.0528(3) 0.80619(12)
O4C O 0.37573(19) 0.8299(3) 0.33144(13)
N1C N 0.45073(19) 0.8910(3) 0.66205(14)
N1_2 N 0.45073(19) 0.6090(3) 0.16205(14)
N1C_2 N 0.45073(19) -0.1090(3) 0.66205(14)
H1C H 0.4579 0.9950 0.6447
H1_2 H 0.4579 0.5050 0.1447
H1C_2 H 0.4579 -0.0050 0.6447
H2C H 0.4596 0.8704 0.7168
H2_2 H 0.4596 0.6296 0.2168
H2C_2 H 0.4596 -0.1296 0.7168
N2B N -0.1789(2) 1.3333(3) -0.11453(15)
N2C N 0.1789(2) -0.1667(3) 0.61453(15)
C1C C 0.3658(2) 0.4555(3) 0.56930(17)
C2C C 0.3508(2) 0.4855(3) 0.48062(17)
H3C H 0.3256 0.3965 0.4405
C3C C 0.3735(2) 0.6478(3) 0.45199(17)
C4C C 0.4092(2) 0.7817(4) 0.51185(17)
H4C H 0.4231 0.8911 0.4923
C5C C 0.4240(2) 0.7528(3) 0.60021(16)
C6C C 0.4034(2) 0.5891(4) 0.62875(17)
H5C H 0.4149 0.5686 0.6883
C7C C 0.3382(2) 0.2834(4) 0.60237(19)
C8C C 0.3584(2) 0.6817(4) 0.35602(17)
C9B C -0.1656(3) 1.1834(4) -0.1526(2)
H6B H -0.2047 1.1672 -0.2110
C10B C -0.0968(3) 1.0509(4) -0.1100(2)
H7B H -0.0911 0.9486 -0.1396
C11B C -0.0370(3) 1.0695(4) -0.0242(2)
C12B C -0.0497(4) 1.2268(5) 0.0143(2)
H8B H -0.0090 1.2484 0.0718
C13B C -0.1219(4) 1.3515(5) -0.0314(2)
H9B H -0.1310 1.4534 -0.0026
O5C O 0.15701(19) 0.1647(3) 0.71409(15)
H10C H 0.1936 0.2320 0.7510
C14C C 0.0743(3) 0.0814(6) 0.7471(3)
H11C H 0.0310 0.1673 0.7676
H12C H 0.0253 0.0143 0.7014
H13C H 0.1107 0.0063 0.7946
O6 O 0.2312(3) 0.3974(4) -0.14452(18)
H14 H 0.2727 0.4783 -0.1554
H15 H 0.2332 0.4084 -0.0908
loop_
_geom_bond_atom_site_label_1
_geom_bond_atom_site_label_2
_geom_bond_site_symmetry_1
_geom_bond_site_symmetry_2
Co1 O1 1_555 1_555
O1 C7 1_555 1_555
O2 Co1 1_555 1_555
O3 C8 1_555 1_555
O4 C8 1_555 1_555
N1 H1 1_555 1_555
H2 N1 1_555 1_555
N2 Co1 1_555 1_555
C1 C2 1_555 1_555
C2 H3 1_555 1_555
C3 C2 1_555 1_555
C4 C3 1_555 1_555
H4 C4 1_555 1_555
C5 N1 1_555 1_555
C6 C1 1_555 1_555
H5 C6 1_555 1_555
C7 O2 1_555 1_555
C8 C3 1_555 1_555
C9 N2 1_555 1_555
H6 C9 1_555 1_555
C10 C9 1_555 1_555
H7 C10 1_555 1_555
C11 C10 1_555 1_555
C12 C11 1_555 1_555
H8 C12 1_555 1_555
C13 N2 1_555 1_555
H9 C13 1_555 1_555
O5 Co1 1_555 1_555
H10 O5 1_555 1_555
C14 O5 1_555 1_555
H11 C14 1_555 1_555
H12 C14 1_555 1_555
H13 C14 1_555 1_555
O6 H14 1_555 1_555
H15 O6 1_555 1_555
Co1C O1C 1_555 1_555
Co1C_2 O3 1_555 1_555
Co1_2 N1 1_555 1_555
Co1B N2B 1_555 1_555
Co1C_3 N1C 1_555 1_555
O1C C7C 1_555 1_555
O2C Co1C 1_555 1_555
O3C Co1 1_555 1_555
O3_2 Co1C 1_555 1_555
O4C C8C 1_555 1_555
N1C H1C 1_555 1_555
N1_2 Co1 1_555 1_555
N1C_2 Co1C 1_555 1_555
H1_2 N1_2 1_555 1_555
H1C_2 N1C_2 1_555 1_555
H2C N1C 1_555 1_555
H2_2 N1_2 1_555 1_555
H2C_2 N1C_2 1_555 1_555
N2B C9B 1_555 1_555
N2C Co1C 1_555 1_555
C1C C2C 1_555 1_555
C2C H3C 1_555 1_555
C3C C2C 1_555 1_555
C4C C3C 1_555 1_555
H4C C4C 1_555 1_555
C5C N1C 1_555 1_555
C6C C1C 1_555 1_555
H5C C6C 1_555 1_555
C7C O2C 1_555 1_555
C8C O3C 1_555 1_555
C9B H6B 1_555 1_555
C10B C9B 1_555 1_555
H7B C10B 1_555 1_555
C11B C11 1_555 1_555
C12B C11B 1_555 1_555
H8B C12B 1_555 1_555
C13B N2B 1_555 1_555
H9B C13B 1_555 1_555
O5C Co1C 1_555 1_555
H10C O5C 1_555 1_555
C14C O5C 1_555 1_555
H11C C14C 1_555 1_555
H12C C14C 1_555 1_555
H13C C14C 1_555 1_555
C1 C7 1_555 1_555
C4 C5 1_555 1_555
C5 C6 1_555 1_555
C12 C13 1_555 1_555
C1C C7C 1_555 1_555
C3C C8C 1_555 1_555
C4C C5C 1_555 1_555
C5C C6C 1_555 1_555
C10B C11B 1_555 1_555
C12B C13B 1_555 1_555

#END
