
#######################################################################
#
#                 Cambridge Crystallographic Data Centre
#                                CCDC 
#
#######################################################################
#
# If this CIF has been generated from an entry in the Cambridge 
# Structural Database, then it will include bibliographic, chemical, 
# crystal, experimental, refinement or atomic coordinate data resulting 
# from the CCDC's data processing and validation procedures.
#
#######################################################################

data_RULJIT
_symmetry_cell_setting           monoclinic
_symmetry_space_group_name_H-M   'P 21/n'
_symmetry_Int_Tables_number      14
_space_group_name_Hall           '-P 2yn'
loop_
_symmetry_equiv_pos_site_id
_symmetry_equiv_pos_as_xyz
1 x,y,z
2 1/2-x,1/2+y,1/2-z
3 -x,-y,-z
4 1/2+x,1/2-y,1/2+z
_cell_length_a                   14.2342(16)
_cell_length_b                   8.1413(9)
_cell_length_c                   15.7539(17)
_cell_angle_alpha                90
_cell_angle_beta                 90.9820(10)
_cell_angle_gamma                90
_cell_volume                     1825.37
loop_
_atom_site_label
_atom_site_type_symbol
_atom_site_fract_x
_atom_site_fract_y
_atom_site_fract_z
Eu1 Eu 0.099701(11) 0.07737(2) 0.656162(10)
O1 O 0.17984(17) 0.0553(3) 0.50991(15)
O2 O 0.11705(18) 0.2928(3) 0.54400(14)
O3 O -0.00529(17) 0.1423(3) 0.40371(15)
O4 O -0.0475(2) 0.3737(4) 0.3397(2)
O5 O 0.3493(2) 0.5549(4) 0.68717(18)
O6 O 0.48615(18) 0.4563(4) 0.72646(15)
O7 O 0.66922(19) 0.1227(4) 0.52883(16)
H1 H 0.7135 0.0666 0.5132
O8 O 0.6173(2) 0.0714(4) 0.39676(16)
O9 O 0.26105(18) 0.1674(3) 0.67148(16)
H2 H 0.3077 0.1170 0.6508
H3 H 0.2771 0.2138 0.7178
O10 O 0.19314(19) -0.1797(4) 0.6677(2)
H4 H 0.1540 -0.2582 0.6632
H5 H 0.2433 -0.2123 0.6445
O11 O 0.0742(2) 0.3324(3) 0.72707(16)
H6 H -0.0882 0.0927 0.5824
H7 H -0.0749 0.2455 0.5835
O12 O -0.0592(2) 0.1639(4) 0.6137(2)
H8 H 0.0816 0.3466 0.7809
H9 H 0.0652 0.4226 0.7002
C1 C 0.2806(2) 0.3162(4) 0.3882(2)
C2 C 0.1873(2) 0.2773(4) 0.40739(19)
C3 C 0.1153(2) 0.3120(4) 0.3478(2)
C4 C 0.1375(3) 0.3790(5) 0.2692(2)
H10 H 0.0898 0.4040 0.2302
C5 C 0.2297(3) 0.4086(6) 0.2488(2)
H11 H 0.2443 0.4482 0.1952
C6 C 0.3012(3) 0.3792(5) 0.3083(2)
H12 H 0.3631 0.4018 0.2947
C7 C 0.3596(2) 0.3049(4) 0.4519(2)
C8 C 0.3540(2) 0.3860(4) 0.5304(2)
H13 H 0.2990 0.4408 0.5441
C9 C 0.4295(2) 0.3854(4) 0.5880(2)
C10 C 0.5121(2) 0.3035(4) 0.5680(2)
H14 H 0.5626 0.3029 0.6063
C11 C 0.5188(2) 0.2221(4) 0.4902(2)
C12 C 0.4431(2) 0.2238(4) 0.4326(2)
H15 H 0.4483 0.1703 0.3808
C13 C 0.1604(2) 0.2052(4) 0.49240(19)
C14 C 0.0139(2) 0.2745(4) 0.3656(2)
C15 C 0.4209(2) 0.4712(4) 0.6717(2)
C16 C 0.6060(2) 0.1322(4) 0.4674(2)
Eu1A Eu 0.400299(11) 0.57737(2) 0.843838(10)
Eu1B Eu -0.099701(11) -0.07737(2) 0.343838(10)
O3B O 0.00529(17) -0.1423(3) 0.59629(15)
O5A O 0.1507(2) 0.0549(4) 0.81283(18)
O6A O 0.01385(18) -0.0437(4) 0.77354(15)
O13 O 0.8571(4) 0.3735(6) 0.5116(3)
H16 H 0.8571 0.4749 0.4989
H17 H 0.8783 0.3263 0.4678
loop_
_geom_bond_atom_site_label_1
_geom_bond_atom_site_label_2
_geom_bond_site_symmetry_1
_geom_bond_site_symmetry_2
Eu1 O1 1_555 1_555
O1 C13 1_555 1_555
O2 Eu1 1_555 1_555
O3 C14 1_555 1_555
O4 C14 1_555 1_555
O5 C15 1_555 1_555
O6 C15 1_555 1_555
O7 H1 1_555 1_555
O8 C16 1_555 1_555
O9 Eu1 1_555 1_555
H2 O9 1_555 1_555
H3 O9 1_555 1_555
O10 Eu1 1_555 1_555
H4 O10 1_555 1_555
H5 O10 1_555 1_555
O11 Eu1 1_555 1_555
H6 O12 1_555 1_555
H7 O12 1_555 1_555
O12 Eu1 1_555 1_555
H8 O11 1_555 1_555
H9 O11 1_555 1_555
C1 C2 1_555 1_555
C2 C3 1_555 1_555
C3 C4 1_555 1_555
C4 H10 1_555 1_555
C5 C4 1_555 1_555
H11 C5 1_555 1_555
C6 C1 1_555 1_555
H12 C6 1_555 1_555
C7 C1 1_555 1_555
C8 C7 1_555 1_555
H13 C8 1_555 1_555
C9 C8 1_555 1_555
C10 C9 1_555 1_555
H14 C10 1_555 1_555
C11 C10 1_555 1_555
C12 C7 1_555 1_555
H15 C12 1_555 1_555
C13 O2 1_555 1_555
C14 C3 1_555 1_555
C15 C9 1_555 1_555
C16 O7 1_555 1_555
O13 H16 1_555 1_555
H17 O13 1_555 1_555
Eu1A O5 1_555 1_555
Eu1B O3 1_555 1_555
O3B Eu1 1_555 1_555
O5A Eu1 1_555 1_555
O6A Eu1 1_555 1_555
O6 Eu1A 1_555 1_555
C2 C13 1_555 1_555
C5 C6 1_555 1_555
C11 C12 1_555 1_555
C11 C16 1_555 1_555

#END
