
#######################################################################
#
#                 Cambridge Crystallographic Data Centre
#                                CCDC 
#
#######################################################################
#
# If this CIF has been generated from an entry in the Cambridge 
# Structural Database, then it will include bibliographic, chemical, 
# crystal, experimental, refinement or atomic coordinate data resulting 
# from the CCDC's data processing and validation procedures.
#
#######################################################################

data_RULJOZ
_symmetry_cell_setting           triclinic
_symmetry_space_group_name_H-M   'P -1'
_symmetry_Int_Tables_number      2
_space_group_name_Hall           '-P 1'
loop_
_symmetry_equiv_pos_site_id
_symmetry_equiv_pos_as_xyz
1 x,y,z
2 -x,-y,-z
_cell_length_a                   6.8886(10)
_cell_length_b                   10.8309(15)
_cell_length_c                   11.6747(16)
_cell_angle_alpha                94.020(2)
_cell_angle_beta                 100.659(2)
_cell_angle_gamma                96.853(2)
_cell_volume                     846.1
loop_
_atom_site_label
_atom_site_type_symbol
_atom_site_fract_x
_atom_site_fract_y
_atom_site_fract_z
Sm1 Sm 0.08946(3) -0.232250(15) 0.506120(15)
O1 O -0.1341(4) -0.3962(2) 0.5819(2)
H1 H -0.2149 -0.4517 0.5360
H2 H -0.0881 -0.4469 0.6289
O2 O 0.3139(4) -0.0395(3) 0.6066(2)
H3 H 0.3112 -0.0348 0.6792
H4 H 0.2650 0.0239 0.5807
O3 O 0.3878(6) -0.2301(4) 0.4208(4)
H5 H 0.4949 -0.2615 0.4195
H6 H 0.4445 -0.1972 0.4889
O4 O 0.1139(4) 0.0994(2) 0.4203(2)
O5 O 0.1041(4) -0.0974(2) 0.3511(2)
O6 O 0.2059(4) -0.1656(2) -0.0698(2)
H7 H 0.2026 -0.2015 -0.1345
O7 O 0.2900(4) 0.0032(2) -0.1585(2)
O8 O 0.7642(4) 0.2731(2) 0.2800(2)
O9 O 0.7018(4) 0.3967(2) 0.4223(2)
O10 O 0.9524(4) 0.6016(2) 0.3338(2)
O11 O 0.7548(4) 0.7329(2) 0.3805(2)
C1 C 0.5625(6) 0.4365(3) 0.2283(3)
C2 C 0.4859(6) 0.6357(3) 0.1643(3)
H8 H 0.5127 0.7224 0.1719
C3 C 0.3254(6) 0.5759(4) 0.0820(4)
H9 H 0.2470 0.6222 0.0327
C4 C 0.6066(6) 0.5670(3) 0.2356(3)
C5 C 0.3965(6) 0.3762(3) 0.1476(3)
C6 C 0.2821(6) 0.4474(4) 0.0731(3)
H10 H 0.1753 0.4076 0.0168
C7 C 0.2770(5) 0.1895(3) 0.2407(3)
H11 H 0.2875 0.2413 0.3091
C8 C 0.2019(5) -0.0171(3) 0.1372(3)
H12 H 0.1639 -0.1025 0.1360
C9 C 0.2546(5) 0.0329(3) 0.0388(3)
C10 C 0.3313(5) 0.2394(3) 0.1431(3)
C11 C 0.2065(5) 0.0623(3) 0.2377(3)
C12 C 0.3147(5) 0.1605(3) 0.0419(3)
H13 H 0.3443 0.1936 -0.0253
C13 C 0.2509(5) -0.0434(3) -0.0730(3)
C14 C 0.1368(5) 0.0179(3) 0.3426(3)
C15 C 0.6834(5) 0.3643(3) 0.3141(3)
C16 C 0.7821(6) 0.6366(3) 0.3209(3)
Sm1_2 Sm 1.08946(3) 0.767750(15) 0.506120(15)
Sm1A Sm -0.08946(3) 0.232250(15) 0.493880(15)
Sm1A_2 Sm 0.91054(3) 0.232250(15) 0.493880(15)
O4A O -0.1139(4) -0.0994(2) 0.5797(2)
O8A O 0.2358(4) -0.2731(2) 0.7200(2)
O9A O 0.2982(4) -0.3967(2) 0.5777(2)
O10_2 O -0.0476(4) -0.3984(2) 0.3338(2)
O11_2 O -0.2452(4) -0.2671(2) 0.3805(2)
loop_
_geom_bond_atom_site_label_1
_geom_bond_atom_site_label_2
_geom_bond_site_symmetry_1
_geom_bond_site_symmetry_2
Sm1 O1 1_555 1_555
O1 H1 1_555 1_555
H2 O1 1_555 1_555
O2 Sm1 1_555 1_555
H3 O2 1_555 1_555
H4 O2 1_555 1_555
O3 Sm1 1_555 1_555
H5 O3 1_555 1_555
H6 O3 1_555 1_555
O4 C14 1_555 1_555
O5 Sm1 1_555 1_555
O6 H7 1_555 1_555
O7 C13 1_555 1_555
O8 C15 1_555 1_555
O9 C15 1_555 1_555
O10 C16 1_555 1_555
O11 C16 1_555 1_555
C1 C4 1_555 1_555
C2 H8 1_555 1_555
C3 C2 1_555 1_555
H9 C3 1_555 1_555
C4 C2 1_555 1_555
C5 C1 1_555 1_555
C6 C3 1_555 1_555
H10 C6 1_555 1_555
C7 H11 1_555 1_555
C8 H12 1_555 1_555
C9 C8 1_555 1_555
C10 C5 1_555 1_555
C11 C7 1_555 1_555
C12 C9 1_555 1_555
H13 C12 1_555 1_555
C13 O6 1_555 1_555
C14 O5 1_555 1_555
C15 C1 1_555 1_555
C16 C4 1_555 1_555
Sm1_2 O10 1_555 1_555
Sm1A O4 1_555 1_555
Sm1A_2 O8 1_555 1_555
O4A Sm1 1_555 1_555
O8A Sm1 1_555 1_555
O9A Sm1 1_555 1_555
O10_2 Sm1 1_555 1_555
O11_2 Sm1 1_555 1_555
O9 Sm1A_2 1_555 1_555
O11 Sm1_2 1_555 1_555
C5 C6 1_555 1_555
C7 C10 1_555 1_555
C8 C11 1_555 1_555
C9 C13 1_555 1_555
C10 C12 1_555 1_555
C11 C14 1_555 1_555

#END
