
#######################################################################
#
#                 Cambridge Crystallographic Data Centre
#                                CCDC 
#
#######################################################################
#
# If this CIF has been generated from an entry in the Cambridge 
# Structural Database, then it will include bibliographic, chemical, 
# crystal, experimental, refinement or atomic coordinate data resulting 
# from the CCDC's data processing and validation procedures.
#
#######################################################################

data_RULNOD
_symmetry_cell_setting           monoclinic
_symmetry_space_group_name_H-M   'P 21/c'
_symmetry_Int_Tables_number      14
_space_group_name_Hall           '-P 2ybc'
loop_
_symmetry_equiv_pos_site_id
_symmetry_equiv_pos_as_xyz
1 x,y,z
2 -x,1/2+y,1/2-z
3 -x,-y,-z
4 x,1/2-y,1/2+z
_cell_length_a                   17.3644(8)
_cell_length_b                   16.2122(8)
_cell_length_c                   16.2003(8)
_cell_angle_alpha                90
_cell_angle_beta                 103.5170(10)
_cell_angle_gamma                90
_cell_volume                     4434.3
loop_
_atom_site_label
_atom_site_type_symbol
_atom_site_fract_x
_atom_site_fract_y
_atom_site_fract_z
C1 C 0.6633(2) 0.3471(2) 0.5725(3)
H1 H 0.6657 0.3243 0.6257
C2 C 0.6107(2) 0.3130(3) 0.5027(3)
H2 H 0.5790 0.2686 0.5096
C3 C 0.6063(2) 0.3453(3) 0.4247(3)
H3 H 0.5713 0.3235 0.3773
C4 C 0.6551(2) 0.4119(3) 0.4163(3)
C5 C 0.6553(3) 0.4519(3) 0.3379(3)
C6 C 0.7016(3) 0.5182(3) 0.3317(3)
C7 C 0.7572(2) 0.5492(3) 0.4045(3)
C8 C 0.8096(3) 0.6138(3) 0.4013(3)
H4 H 0.8083 0.6406 0.3502
C9 C 0.8623(3) 0.6374(3) 0.4727(3)
H5 H 0.8980 0.6799 0.4713
C10 C 0.8620(3) 0.5967(3) 0.5485(3)
H6 H 0.8989 0.6125 0.5974
C11 C 0.7598(2) 0.5118(2) 0.4832(2)
C12 C 0.7075(2) 0.4432(2) 0.4891(2)
C13 C 0.6327(4) 0.4964(4) 0.2078(3)
H7 H 0.6111 0.5005 0.1498
C14 C 0.5733(2) 0.5860(2) 0.5204(2)
C15 C 0.5689(2) 0.6147(3) 0.4408(3)
H8 H 0.6007 0.6587 0.4326
C16 C 0.5169(2) 0.5787(3) 0.3712(3)
H9 H 0.5139 0.5989 0.3168
C17 C 0.5265(2) 0.5179(2) 0.5360(2)
C18 C 0.4710(2) 0.5145(2) 0.3828(3)
H10 H 0.4369 0.4910 0.3358
C19 C 0.8817(2) 0.3294(3) 0.5110(3)
C20 C 0.8922(3) 0.3705(3) 0.4414(3)
H11 H 0.9281 0.4140 0.4475
C21 C 0.8488(3) 0.3474(3) 0.3602(3)
H12 H 0.8562 0.3755 0.3126
C22 C 0.7963(3) 0.2845(3) 0.3510(3)
H13 H 0.7680 0.2702 0.2968
C23 C 0.7832(2) 0.2400(3) 0.4215(3)
C24 C 0.7281(2) 0.1737(3) 0.4143(3)
C25 C 0.7185(3) 0.1328(3) 0.4845(3)
H14 H 0.6821 0.0899 0.4787
C26 C 0.7626(3) 0.1545(3) 0.5651(3)
H15 H 0.7557 0.1254 0.6124
C27 C 0.8153(3) 0.2172(3) 0.5753(3)
H16 H 0.8438 0.2313 0.6295
C28 C 0.8276(2) 0.2620(3) 0.5038(3)
C29 C 0.9396(2) 0.3681(2) 0.8585(3)
H17 H 0.9449 0.3434 0.8083
C30 C 0.9864(2) 0.3385(2) 0.9350(3)
H18 H 1.0224 0.2960 0.9351
C31 C 0.9786(2) 0.3727(2) 1.0093(3)
H19 H 1.0083 0.3532 1.0610
C32 C 0.9251(2) 0.4377(2) 1.0069(2)
C33 C 0.9119(2) 0.4780(2) 1.0807(3)
C34 C 0.9140(3) 0.5180(3) 1.2071(3)
H20 H 0.9269 0.5232 1.2659
C35 C 0.8569(2) 0.5397(2) 1.0740(3)
C36 C 0.8105(2) 0.5693(3) 0.9960(3)
C37 C 0.7569(3) 0.6346(3) 0.9879(3)
H21 H 0.7504 0.6627 1.0359
C38 C 0.7147(4) 0.6568(4) 0.9103(3)
H22 H 0.6781 0.6996 0.9040
C39 C 0.7270(3) 0.6145(4) 0.8397(3)
H23 H 0.6968 0.6294 0.7865
C40 C 0.8217(2) 0.5310(2) 0.9216(3)
C41 C 0.8797(2) 0.4645(2) 0.9278(2)
Pr1 Pr 0.798492(13) 0.480174(14) 0.704451(14)
N1 N 0.71043(18) 0.41064(19) 0.5670(2)
N2 N 0.81154(19) 0.5364(2) 0.5545(2)
N3 N 0.6876(3) 0.5466(3) 0.2488(3)
N4 N 0.6102(2) 0.4383(3) 0.2567(2)
H24 H 0.5751 0.4005 0.2407
N5 N 0.88810(18) 0.42939(19) 0.8532(2)
N6 N 0.7796(2) 0.5539(2) 0.8443(2)
N7 N 0.9481(2) 0.4645(2) 1.1655(2)
N8 N 0.8587(2) 0.5639(2) 1.1557(2)
H25 H 0.8299 0.6014 1.1709
O1 O 0.69277(15) 0.57489(16) 0.65240(17)
O2 O 0.67921(18) 0.69984(19) 0.5697(2)
O3 O 0.58959(17) 0.67118(19) 0.6593(2)
O4 O 0.88421(16) 0.38185(18) 0.66383(18)
O5 O 0.98756(18) 0.2906(2) 0.6470(2)
O6 O 0.98617(19) 0.4325(2) 0.5969(2)
O7 O 0.72171(17) 0.11509(19) 0.26377(18)
O8 O 0.6177(2) 0.0784(3) 0.3305(2)
O9 O 0.62517(19) 0.2158(2) 0.2763(2)
O10 O 0.90537(17) 0.57908(18) 0.7442(2)
H26 H 0.897(2) 0.6292(13) 0.740(3)
H27 H 0.9521(15) 0.568(2) 0.774(3)
S1 S 0.63806(6) 0.63807(7) 0.60613(7)
S2 S 0.94096(7) 0.36172(8) 0.61118(7)
S3 S 0.66689(7) 0.14337(9) 0.31440(8)
C14B C 0.4267(2) 0.4140(2) 0.4796(2)
C15B C 0.4311(2) 0.3853(3) 0.5592(3)
H8B H 0.3993 0.3413 0.5674
C16B C 0.4831(2) 0.4213(3) 0.6288(3)
H9B H 0.4861 0.4011 0.6832
C17B C 0.4735(2) 0.4821(2) 0.4640(2)
C18B C 0.5290(2) 0.4855(2) 0.6172(3)
H10B H 0.5631 0.5090 0.6642
O1B O 0.30723(15) 0.42511(16) 0.34760(17)
O2B O 0.32079(18) 0.30016(19) 0.4303(2)
O3B O 0.41041(17) 0.32882(19) 0.3407(2)
S1B S 0.36194(6) 0.36193(7) 0.39387(7)
C1B C 0.3367(2) 0.6529(2) 0.4275(3)
H1B H 0.3343 0.6757 0.3743
C2B C 0.3893(2) 0.6870(3) 0.4973(3)
H2B H 0.4210 0.7314 0.4904
C3B C 0.3937(2) 0.6547(3) 0.5753(3)
H3B H 0.4287 0.6765 0.6227
C4B C 0.3449(2) 0.5881(3) 0.5837(3)
C5B C 0.3447(3) 0.5481(3) 0.6621(3)
C6B C 0.2984(3) 0.4818(3) 0.6683(3)
C7B C 0.2428(2) 0.4508(3) 0.5955(3)
C8B C 0.1904(3) 0.3862(3) 0.5987(3)
H4B H 0.1917 0.3594 0.6498
C9B C 0.1377(3) 0.3626(3) 0.5273(3)
H5B H 0.1020 0.3201 0.5287
C10B C 0.1380(3) 0.4033(3) 0.4515(3)
H6B H 0.1011 0.3875 0.4026
C11B C 0.2402(2) 0.4882(2) 0.5168(2)
C12B C 0.2925(2) 0.5568(2) 0.5109(2)
C13B C 0.3673(4) 0.5036(4) 0.7922(3)
H7B H 0.3889 0.4995 0.8502
C19B C 0.1183(2) 0.6706(3) 0.4890(3)
C20B C 0.1078(3) 0.6295(3) 0.5586(3)
H11B H 0.0719 0.5860 0.5525
C21B C 0.1512(3) 0.6526(3) 0.6398(3)
H12B H 0.1438 0.6245 0.6874
C22B C 0.2037(3) 0.7155(3) 0.6490(3)
H13B H 0.2320 0.7298 0.7032
C23B C 0.2168(2) 0.7600(3) 0.5785(3)
C24B C 0.2719(2) 0.8263(3) 0.5857(3)
C25B C 0.2815(3) 0.8672(3) 0.5155(3)
H14B H 0.3179 0.9101 0.5213
C26B C 0.2374(3) 0.8455(3) 0.4349(3)
H15B H 0.2443 0.8746 0.3876
C27B C 0.1847(3) 0.7828(3) 0.4247(3)
H16B H 0.1562 0.7687 0.3705
C28B C 0.1724(2) 0.7380(3) 0.4962(3)
C29B C 0.0604(2) 0.6319(2) 0.1415(3)
H17B H 0.0551 0.6566 0.1917
C30B C 0.0136(2) 0.6615(2) 0.0650(3)
H18B H -0.0224 0.7040 0.0649
C31B C 0.0214(2) 0.6273(2) -0.0093(3)
H19B H -0.0083 0.6468 -0.0610
C32B C 0.0749(2) 0.5623(2) -0.0069(2)
C33B C 0.0881(2) 0.5220(2) -0.0807(3)
C34B C 0.0860(3) 0.4820(3) -0.2071(3)
H20B H 0.0731 0.4768 -0.2659
C35B C 0.1431(2) 0.4603(2) -0.0740(3)
C36B C 0.1895(2) 0.4307(3) 0.0040(3)
C37B C 0.2431(3) 0.3654(3) 0.0121(3)
H21B H 0.2496 0.3373 -0.0359
C38B C 0.2853(4) 0.3432(4) 0.0897(3)
H22B H 0.3219 0.3004 0.0960
C39B C 0.2730(3) 0.3855(4) 0.1603(3)
H23B H 0.3032 0.3706 0.2135
C40B C 0.1783(2) 0.4690(2) 0.0784(3)
C41B C 0.1203(2) 0.5355(2) 0.0722(2)
Pr1B Pr 0.201508(13) 0.519826(14) 0.295549(14)
N1B N 0.28957(18) 0.58936(19) 0.4330(2)
N2B N 0.18846(19) 0.4636(2) 0.4455(2)
N3B N 0.3124(3) 0.4534(3) 0.7512(3)
N4B N 0.3898(2) 0.5617(3) 0.7433(2)
H24B H 0.4249 0.5995 0.7593
N5B N 0.11190(18) 0.57061(19) 0.1468(2)
N6B N 0.2204(2) 0.4461(2) 0.1557(2)
N7B N 0.0519(2) 0.5355(2) -0.1655(2)
N8B N 0.1413(2) 0.4361(2) -0.1557(2)
H25B H 0.1701 0.3986 -0.1709
O4B O 0.11579(16) 0.61815(18) 0.33617(18)
O5B O 0.01244(18) 0.7094(2) 0.3530(2)
O6B O 0.01383(19) 0.5675(2) 0.4031(2)
O7B O 0.27829(17) 0.88491(19) 0.73623(18)
O8B O 0.3823(2) 0.9216(3) 0.6695(2)
O9B O 0.37483(19) 0.7842(2) 0.7237(2)
O10B O 0.09463(17) 0.42092(18) 0.2558(2)
H26B H 0.103(2) 0.3708(13) 0.260(3)
H27B H 0.0479(15) 0.432(2) 0.226(3)
S2B S 0.05904(7) 0.63828(8) 0.38882(7)
S3B S 0.33311(7) 0.85663(9) 0.68560(8)
Pr1A Pr 0.201508(13) 0.980174(14) 0.795549(14)
Pr1C Pr 0.798492(13) 0.019826(14) 0.204451(14)
O7A O 0.27829(17) 0.61509(19) 0.23623(18)
O7C O 0.72171(17) 0.38491(19) 0.76377(18)
O11 O 0.24847(18) 0.3154(2) 0.80410(19)
H28 H 0.2700 0.2824 0.8429
H29 H 0.2803 0.3535 0.7980
O12 O 0.4935(3) 0.1923(3) 0.6975(3)
H30 H 0.4660 0.1593 0.6602
H31 H 0.4700 0.1861 0.7373
O13 O 0.8715(6) 0.7273(6) 0.7921(7)
O15 O 0.5247(5) 0.8384(5) 0.6210(6)
O16 O 0.5430(11) 0.8353(11) 0.4919(12)
O14? O 0.9015(3) 0.7416(4) 0.7176(4)
O17? O 0.4897(12) 0.8827(13) 0.4581(14)
O18? O 0.544(2) 0.950(2) 0.458(2)
O19? O 0.5342(12) 1.0309(13) 0.4602(14)
loop_
_geom_bond_atom_site_label_1
_geom_bond_atom_site_label_2
_geom_bond_site_symmetry_1
_geom_bond_site_symmetry_2
C1 H1 1_555 1_555
C2 C1 1_555 1_555
H2 C2 1_555 1_555
C3 C2 1_555 1_555
H3 C3 1_555 1_555
C4 C3 1_555 1_555
C5 C4 1_555 1_555
C6 C5 1_555 1_555
C7 C6 1_555 1_555
C8 C7 1_555 1_555
H4 C8 1_555 1_555
C9 C8 1_555 1_555
H5 C9 1_555 1_555
C10 C9 1_555 1_555
H6 C10 1_555 1_555
C11 C7 1_555 1_555
C12 C4 1_555 1_555
C13 H7 1_555 1_555
C14 C15 1_555 1_555
C15 H8 1_555 1_555
C16 C15 1_555 1_555
H9 C16 1_555 1_555
C17 C14 1_555 1_555
C18 C16 1_555 1_555
H10 C18 1_555 1_555
C19 C20 1_555 1_555
C20 H11 1_555 1_555
C21 C20 1_555 1_555
H12 C21 1_555 1_555
C22 C21 1_555 1_555
H13 C22 1_555 1_555
C23 C22 1_555 1_555
C24 C23 1_555 1_555
C25 C24 1_555 1_555
H14 C25 1_555 1_555
C26 C25 1_555 1_555
H15 C26 1_555 1_555
C27 C26 1_555 1_555
H16 C27 1_555 1_555
C28 C19 1_555 1_555
C29 H17 1_555 1_555
C30 C29 1_555 1_555
H18 C30 1_555 1_555
C31 C30 1_555 1_555
H19 C31 1_555 1_555
C32 C31 1_555 1_555
C33 C32 1_555 1_555
C34 H20 1_555 1_555
C35 C33 1_555 1_555
C36 C35 1_555 1_555
C37 C36 1_555 1_555
H21 C37 1_555 1_555
C38 C37 1_555 1_555
H22 C38 1_555 1_555
C39 C38 1_555 1_555
H23 C39 1_555 1_555
C40 C36 1_555 1_555
C41 C32 1_555 1_555
Pr1 N1 1_555 1_555
N1 C1 1_555 1_555
N2 C10 1_555 1_555
N3 C6 1_555 1_555
N4 C5 1_555 1_555
H24 N4 1_555 1_555
N5 C29 1_555 1_555
N6 C39 1_555 1_555
N7 C33 1_555 1_555
N8 C34 1_555 1_555
H25 N8 1_555 1_555
O1 Pr1 1_555 1_555
O2 S1 1_555 1_555
O3 S1 1_555 1_555
O4 Pr1 1_555 1_555
O5 S2 1_555 1_555
O6 S2 1_555 1_555
O7 S3 1_555 1_555
O8 S3 1_555 1_555
O9 S3 1_555 1_555
O10 Pr1 1_555 1_555
H26 O10 1_555 1_555
H27 O10 1_555 1_555
S1 C14 1_555 1_555
S2 C19 1_555 1_555
S3 C24 1_555 1_555
O11 H28 1_555 1_555
H29 O11 1_555 1_555
O12 H30 1_555 1_555
H31 O12 1_555 1_555
C14B C15B 1_555 1_555
C15B H8B 1_555 1_555
C16B C15B 1_555 1_555
H9B C16B 1_555 1_555
C17B C17 1_555 1_555
C18B C17 1_555 1_555
H10B C18B 1_555 1_555
O1B S1B 1_555 1_555
O2B S1B 1_555 1_555
O3B S1B 1_555 1_555
S1B C14B 1_555 1_555
C1B H1B 1_555 1_555
C2B C1B 1_555 1_555
H2B C2B 1_555 1_555
C3B C2B 1_555 1_555
H3B C3B 1_555 1_555
C4B C3B 1_555 1_555
C5B C4B 1_555 1_555
C6B C5B 1_555 1_555
C7B C6B 1_555 1_555
C8B C7B 1_555 1_555
H4B C8B 1_555 1_555
C9B C8B 1_555 1_555
H5B C9B 1_555 1_555
C10B C9B 1_555 1_555
H6B C10B 1_555 1_555
C11B C7B 1_555 1_555
C12B C4B 1_555 1_555
C13B H7B 1_555 1_555
C19B C20B 1_555 1_555
C20B H11B 1_555 1_555
C21B C20B 1_555 1_555
H12B C21B 1_555 1_555
C22B C21B 1_555 1_555
H13B C22B 1_555 1_555
C23B C22B 1_555 1_555
C24B C23B 1_555 1_555
C25B C24B 1_555 1_555
H14B C25B 1_555 1_555
C26B C25B 1_555 1_555
H15B C26B 1_555 1_555
C27B C26B 1_555 1_555
H16B C27B 1_555 1_555
C28B C19B 1_555 1_555
C29B H17B 1_555 1_555
C30B C29B 1_555 1_555
H18B C30B 1_555 1_555
C31B C30B 1_555 1_555
H19B C31B 1_555 1_555
C32B C31B 1_555 1_555
C33B C32B 1_555 1_555
C34B H20B 1_555 1_555
C35B C33B 1_555 1_555
C36B C35B 1_555 1_555
C37B C36B 1_555 1_555
H21B C37B 1_555 1_555
C38B C37B 1_555 1_555
H22B C38B 1_555 1_555
C39B C38B 1_555 1_555
H23B C39B 1_555 1_555
C40B C36B 1_555 1_555
C41B C32B 1_555 1_555
Pr1B O1B 1_555 1_555
N1B C1B 1_555 1_555
N2B C10B 1_555 1_555
N3B C6B 1_555 1_555
N4B C5B 1_555 1_555
H24B N4B 1_555 1_555
N5B C29B 1_555 1_555
N6B C39B 1_555 1_555
N7B C33B 1_555 1_555
N8B C34B 1_555 1_555
H25B N8B 1_555 1_555
O4B Pr1B 1_555 1_555
O5B S2B 1_555 1_555
O6B S2B 1_555 1_555
O7B S3B 1_555 1_555
O8B S3B 1_555 1_555
O9B S3B 1_555 1_555
O10B Pr1B 1_555 1_555
H26B O10B 1_555 1_555
H27B O10B 1_555 1_555
S2B C19B 1_555 1_555
S3B C24B 1_555 1_555
Pr1A O7B 1_555 1_555
Pr1C O7 1_555 1_555
O7A Pr1B 1_555 1_555
O7C Pr1 1_555 1_555
C11 C12 1_555 1_555
C11 N2 1_555 1_555
C12 N1 1_555 1_555
C13 N3 1_555 1_555
C13 N4 1_555 1_555
C18 C17B 1_555 1_555
C23 C28 1_555 1_555
C27 C28 1_555 1_555
C34 N7 1_555 1_555
C35 N8 1_555 1_555
C40 C41 1_555 1_555
C40 N6 1_555 1_555
C41 N5 1_555 1_555
Pr1 N2 1_555 1_555
Pr1 N5 1_555 1_555
Pr1 N6 1_555 1_555
O1 S1 1_555 1_555
O4 S2 1_555 1_555
C14B C17B 1_555 1_555
C16B C18B 1_555 1_555
C11B C12B 1_555 1_555
C11B N2B 1_555 1_555
C12B N1B 1_555 1_555
C13B N3B 1_555 1_555
C13B N4B 1_555 1_555
C23B C28B 1_555 1_555
C27B C28B 1_555 1_555
C34B N7B 1_555 1_555
C35B N8B 1_555 1_555
C40B C41B 1_555 1_555
C40B N6B 1_555 1_555
C41B N5B 1_555 1_555
Pr1B N1B 1_555 1_555
Pr1B N2B 1_555 1_555
Pr1B N5B 1_555 1_555
Pr1B N6B 1_555 1_555
O4B S2B 1_555 1_555

#END
