
#######################################################################
#
#                 Cambridge Crystallographic Data Centre
#                                CCDC 
#
#######################################################################
#
# If this CIF has been generated from an entry in the Cambridge 
# Structural Database, then it will include bibliographic, chemical, 
# crystal, experimental, refinement or atomic coordinate data resulting 
# from the CCDC's data processing and validation procedures.
#
#######################################################################

data_RULPEV
_symmetry_cell_setting           monoclinic
_symmetry_space_group_name_H-M   'P 21/c'
_symmetry_Int_Tables_number      14
_space_group_name_Hall           '-P 2ybc'
loop_
_symmetry_equiv_pos_site_id
_symmetry_equiv_pos_as_xyz
1 x,y,z
2 -x,1/2+y,1/2-z
3 -x,-y,-z
4 x,1/2-y,1/2+z
_cell_length_a                   17.2968(15)
_cell_length_b                   16.1959(14)
_cell_length_c                   16.0280(14)
_cell_angle_alpha                90
_cell_angle_beta                 103.363(2)
_cell_angle_gamma                90
_cell_volume                     4368.47
loop_
_atom_site_label
_atom_site_type_symbol
_atom_site_fract_x
_atom_site_fract_y
_atom_site_fract_z
C1 C 0.6636(3) 0.3468(3) 0.5767(4)
H1 H 0.6656 0.3242 0.6305
C2 C 0.6119(3) 0.3119(3) 0.5071(4)
H2 H 0.5805 0.2669 0.5143
C3 C 0.6075(3) 0.3442(4) 0.4279(4)
H3 H 0.5724 0.3224 0.3801
C4 C 0.6564(3) 0.4106(3) 0.4194(4)
C5 C 0.6569(4) 0.4507(4) 0.3403(4)
C6 C 0.7043(4) 0.5168(4) 0.3332(4)
C7 C 0.7589(4) 0.5480(4) 0.4072(4)
C8 C 0.8117(4) 0.6115(4) 0.4030(4)
H4 H 0.8115 0.6374 0.3512
C9 C 0.8633(4) 0.6350(4) 0.4756(4)
H5 H 0.8993 0.6773 0.4743
C10 C 0.8623(4) 0.5960(4) 0.5521(4)
H6 H 0.8989 0.6126 0.6013
C11 C 0.7608(3) 0.5110(3) 0.4870(3)
C12 C 0.7080(3) 0.4430(3) 0.4927(3)
C13 C 0.6349(5) 0.4938(5) 0.2091(5)
H7 H 0.6138 0.4974 0.1503
C14 C 0.5756(3) 0.5847(3) 0.5211(3)
C15 C 0.5712(3) 0.6132(3) 0.4408(4)
H8 H 0.6036 0.6567 0.4321
C16 C 0.5180(3) 0.5776(4) 0.3707(4)
H9 H 0.5149 0.5982 0.3158
C17 C 0.5267(3) 0.5178(3) 0.5365(3)
C18 C 0.4713(3) 0.5142(3) 0.3817(4)
H10 H 0.4369 0.4911 0.3342
C19 C 0.8799(3) 0.3282(3) 0.5124(4)
C20 C 0.8896(4) 0.3692(4) 0.4407(4)
H11 H 0.9247 0.4135 0.4461
C21 C 0.8468(4) 0.3447(4) 0.3593(4)
H12 H 0.8543 0.3721 0.3108
C22 C 0.7946(4) 0.2812(4) 0.3511(4)
H13 H 0.7664 0.2661 0.2966
C23 C 0.7817(3) 0.2373(4) 0.4230(4)
C24 C 0.7274(4) 0.1707(4) 0.4170(4)
C25 C 0.7183(4) 0.1301(4) 0.4879(4)
H14 H 0.6825 0.0865 0.4827
C26 C 0.7624(4) 0.1533(4) 0.5692(4)
H15 H 0.7560 0.1251 0.6176
C27 C 0.8139(3) 0.2163(4) 0.5773(4)
H16 H 0.8425 0.2310 0.6318
C28 C 0.8262(3) 0.2607(3) 0.5065(4)
C29 C 0.9379(3) 0.3672(3) 0.8553(4)
H17 H 0.9433 0.3428 0.8045
C30 C 0.9847(3) 0.3376(3) 0.9328(4)
H18 H 1.0202 0.2945 0.9330
C31 C 0.9778(3) 0.3726(3) 1.0075(4)
H19 H 1.0084 0.3534 1.0593
C32 C 0.9242(3) 0.4379(3) 1.0065(3)
C33 C 0.9121(3) 0.4787(3) 1.0804(3)
C34 C 0.9157(4) 0.5187(4) 1.2081(4)
H20 H 0.9289 0.5240 1.2675
C35 C 0.8575(3) 0.5406(3) 1.0745(3)
C36 C 0.8113(3) 0.5705(4) 0.9958(4)
C37 C 0.7576(4) 0.6361(4) 0.9896(4)
H21 H 0.7511 0.6639 1.0383
C38 C 0.7152(5) 0.6578(5) 0.9098(5)
H22 H 0.6794 0.7015 0.9029
C39 C 0.7260(4) 0.6141(5) 0.8397(4)
H23 H 0.6943 0.6282 0.7865
C40 C 0.8219(3) 0.5316(3) 0.9206(3)
C41 C 0.8787(3) 0.4643(3) 0.9258(3)
Gd1 Gd 0.797287(16) 0.480268(17) 0.705589(17)
N1 N 0.7105(3) 0.4101(3) 0.5721(3)
N2 N 0.8120(3) 0.5360(3) 0.5591(3)
N3 N 0.6894(4) 0.5455(4) 0.2499(4)
N4 N 0.6119(3) 0.4359(3) 0.2577(3)
H24 H 0.5769 0.3979 0.2415
N5 N 0.8865(3) 0.4281(3) 0.8511(3)
N6 N 0.7781(3) 0.5536(3) 0.8422(3)
N7 N 0.9493(3) 0.4649(3) 1.1662(3)
N8 N 0.8605(3) 0.5652(3) 1.1566(3)
H25 H 0.8322 0.6032 1.1724
O1 O 0.6936(2) 0.5717(2) 0.6544(2)
O2 O 0.6836(3) 0.6957(2) 0.5704(3)
O3 O 0.5916(2) 0.6711(2) 0.6600(3)
O4 O 0.8801(2) 0.3845(2) 0.6645(2)
O5 O 0.9845(3) 0.2923(3) 0.6505(3)
O6 O 0.9839(3) 0.4327(3) 0.5976(3)
O7 O 0.7216(2) 0.1107(2) 0.2648(2)
O8 O 0.6183(3) 0.0726(3) 0.3336(3)
O9 O 0.6233(3) 0.2108(3) 0.2776(3)
O10 O 0.9021(2) 0.5758(2) 0.7438(3)
H26 H 0.889(3) 0.622(2) 0.760(4)
H27 H 0.947(2) 0.561(3) 0.775(3)
S1 S 0.64044(9) 0.63581(9) 0.60709(10)
S2 S 0.93772(10) 0.36271(11) 0.61286(10)
S3 S 0.66638(10) 0.13893(12) 0.31570(11)
C14B C 0.4244(3) 0.4153(3) 0.4789(3)
C15B C 0.4288(3) 0.3868(3) 0.5592(4)
H8B H 0.3964 0.3433 0.5679
C16B C 0.4820(3) 0.4224(4) 0.6293(4)
H9B H 0.4851 0.4018 0.6842
C17B C 0.4733(3) 0.4822(3) 0.4635(3)
C18B C 0.5287(3) 0.4858(3) 0.6183(4)
H10B H 0.5631 0.5089 0.6658
O1B O 0.3064(2) 0.4283(2) 0.3456(2)
O2B O 0.3164(3) 0.3043(2) 0.4296(3)
O3B O 0.4084(2) 0.3289(2) 0.3400(3)
S1B S 0.35956(9) 0.36419(9) 0.39291(10)
C1B C 0.3364(3) 0.6532(3) 0.4233(4)
H1B H 0.3344 0.6758 0.3695
C2B C 0.3881(3) 0.6881(3) 0.4929(4)
H2B H 0.4195 0.7331 0.4857
C3B C 0.3925(3) 0.6558(4) 0.5721(4)
H3B H 0.4276 0.6776 0.6199
C4B C 0.3436(3) 0.5894(3) 0.5806(4)
C5B C 0.3431(4) 0.5493(4) 0.6597(4)
C6B C 0.2957(4) 0.4832(4) 0.6668(4)
C7B C 0.2411(4) 0.4520(4) 0.5928(4)
C8B C 0.1883(4) 0.3885(4) 0.5970(4)
H4B H 0.1885 0.3626 0.6488
C9B C 0.1367(4) 0.3650(4) 0.5244(4)
H5B H 0.1007 0.3227 0.5257
C10B C 0.1377(4) 0.4040(4) 0.4479(4)
H6B H 0.1011 0.3874 0.3987
C11B C 0.2392(3) 0.4890(3) 0.5130(3)
C12B C 0.2920(3) 0.5570(3) 0.5073(3)
C13B C 0.3651(5) 0.5062(5) 0.7909(5)
H7B H 0.3862 0.5026 0.8497
C19B C 0.1201(3) 0.6718(3) 0.4876(4)
C20B C 0.1104(4) 0.6308(4) 0.5593(4)
H11B H 0.0753 0.5865 0.5539
C21B C 0.1532(4) 0.6553(4) 0.6407(4)
H12B H 0.1457 0.6279 0.6892
C22B C 0.2054(4) 0.7188(4) 0.6489(4)
H13B H 0.2336 0.7339 0.7034
C23B C 0.2183(3) 0.7627(4) 0.5770(4)
C24B C 0.2726(4) 0.8293(4) 0.5830(4)
C25B C 0.2817(4) 0.8699(4) 0.5121(4)
H14B H 0.3175 0.9135 0.5173
C26B C 0.2376(4) 0.8467(4) 0.4308(4)
H15B H 0.2440 0.8749 0.3824
C27B C 0.1861(3) 0.7837(4) 0.4227(4)
H16B H 0.1575 0.7690 0.3682
C28B C 0.1738(3) 0.7393(3) 0.4935(4)
C29B C 0.0621(3) 0.6328(3) 0.1447(4)
H17B H 0.0567 0.6572 0.1955
C30B C 0.0153(3) 0.6624(3) 0.0672(4)
H18B H -0.0202 0.7055 0.0670
C31B C 0.0222(3) 0.6274(3) -0.0075(4)
H19B H -0.0084 0.6466 -0.0593
C32B C 0.0758(3) 0.5621(3) -0.0065(3)
C33B C 0.0879(3) 0.5213(3) -0.0804(3)
C34B C 0.0843(4) 0.4813(4) -0.2081(4)
H20B H 0.0711 0.4760 -0.2675
C35B C 0.1425(3) 0.4594(3) -0.0745(3)
C36B C 0.1887(3) 0.4295(4) 0.0042(4)
C37B C 0.2424(4) 0.3639(4) 0.0104(4)
H21B H 0.2489 0.3361 -0.0383
C38B C 0.2848(5) 0.3422(5) 0.0902(5)
H22B H 0.3206 0.2985 0.0971
C39B C 0.2740(4) 0.3859(5) 0.1603(4)
H23B H 0.3057 0.3718 0.2135
C40B C 0.1781(3) 0.4684(3) 0.0794(3)
C41B C 0.1213(3) 0.5357(3) 0.0742(3)
Gd1B Gd 0.202713(16) 0.519732(17) 0.294411(17)
N1B N 0.2895(3) 0.5899(3) 0.4279(3)
N2B N 0.1880(3) 0.4640(3) 0.4409(3)
N3B N 0.3106(4) 0.4545(4) 0.7501(4)
N4B N 0.3881(3) 0.5641(3) 0.7423(3)
H24B H 0.4231 0.6021 0.7585
N5B N 0.1135(3) 0.5719(3) 0.1489(3)
N6B N 0.2219(3) 0.4464(3) 0.1578(3)
N7B N 0.0507(3) 0.5351(3) -0.1662(3)
N8B N 0.1395(3) 0.4348(3) -0.1566(3)
H25B H 0.1678 0.3968 -0.1724
O4B O 0.1199(2) 0.6155(2) 0.3355(2)
O5B O 0.0155(3) 0.7077(3) 0.3495(3)
O6B O 0.0161(3) 0.5673(3) 0.4024(3)
O7B O 0.2784(2) 0.8893(2) 0.7352(2)
O8B O 0.3817(3) 0.9274(3) 0.6664(3)
O9B O 0.3767(3) 0.7892(3) 0.7224(3)
O10B O 0.0979(2) 0.4242(2) 0.2562(3)
H26B H 0.111(3) 0.378(2) 0.240(4)
H27B H 0.053(2) 0.439(3) 0.225(3)
S2B S 0.06228(10) 0.63729(11) 0.38714(10)
S3B S 0.33362(10) 0.86107(12) 0.68430(11)
Gd1A Gd 0.202713(16) 0.980268(17) 0.794411(17)
Gd1C Gd 0.797287(16) 0.019732(17) 0.205589(17)
O7A O 0.2784(2) 0.6107(2) 0.2352(2)
O7C O 0.7216(2) 0.3893(2) 0.7648(2)
O11 O 0.2483(3) 0.3145(3) 0.8021(2)
H28 H 0.2698 0.2815 0.8409
H29 H 0.2801 0.3526 0.7960
O12 O 0.4945(4) 0.1923(4) 0.6969(4)
H30 H 0.4670 0.1593 0.6596
H31 H 0.4710 0.1861 0.7367
O13 O 0.8728(6) 0.7246(6) 0.8001(6)
O15 O 0.5273(7) 0.8359(7) 0.6240(7)
O16 O 0.5422(13) 0.8350(13) 0.4946(14)
O14? O 0.8976(5) 0.7389(5) 0.7219(6)
O17? O 0.4919(16) 0.8857(17) 0.4615(17)
O18? O 0.543(2) 0.947(3) 0.464(3)
O19? O 0.5334(15) 1.0284(17) 0.4614(16)
loop_
_geom_bond_atom_site_label_1
_geom_bond_atom_site_label_2
_geom_bond_site_symmetry_1
_geom_bond_site_symmetry_2
C1 H1 1_555 1_555
C2 C1 1_555 1_555
H2 C2 1_555 1_555
C3 C2 1_555 1_555
H3 C3 1_555 1_555
C4 C3 1_555 1_555
C5 C4 1_555 1_555
C6 C5 1_555 1_555
C7 C6 1_555 1_555
C8 C7 1_555 1_555
H4 C8 1_555 1_555
C9 C8 1_555 1_555
H5 C9 1_555 1_555
C10 C9 1_555 1_555
H6 C10 1_555 1_555
C11 C7 1_555 1_555
C12 C4 1_555 1_555
C13 H7 1_555 1_555
C14 C15 1_555 1_555
C15 H8 1_555 1_555
C16 C15 1_555 1_555
H9 C16 1_555 1_555
C17 C14 1_555 1_555
C18 C16 1_555 1_555
H10 C18 1_555 1_555
C19 C20 1_555 1_555
C20 H11 1_555 1_555
C21 C20 1_555 1_555
H12 C21 1_555 1_555
C22 C21 1_555 1_555
H13 C22 1_555 1_555
C23 C22 1_555 1_555
C24 C23 1_555 1_555
C25 C24 1_555 1_555
H14 C25 1_555 1_555
C26 C25 1_555 1_555
H15 C26 1_555 1_555
C27 C26 1_555 1_555
H16 C27 1_555 1_555
C28 C19 1_555 1_555
C29 H17 1_555 1_555
C30 C29 1_555 1_555
H18 C30 1_555 1_555
C31 C30 1_555 1_555
H19 C31 1_555 1_555
C32 C31 1_555 1_555
C33 C32 1_555 1_555
C34 H20 1_555 1_555
C35 C33 1_555 1_555
C36 C35 1_555 1_555
C37 C36 1_555 1_555
H21 C37 1_555 1_555
C38 C37 1_555 1_555
H22 C38 1_555 1_555
C39 C38 1_555 1_555
H23 C39 1_555 1_555
C40 C36 1_555 1_555
C41 C32 1_555 1_555
Gd1 N1 1_555 1_555
N1 C1 1_555 1_555
N2 C10 1_555 1_555
N3 C6 1_555 1_555
N4 C5 1_555 1_555
H24 N4 1_555 1_555
N5 C29 1_555 1_555
N6 C39 1_555 1_555
N7 C33 1_555 1_555
N8 C34 1_555 1_555
H25 N8 1_555 1_555
O1 Gd1 1_555 1_555
O2 S1 1_555 1_555
O3 S1 1_555 1_555
O4 Gd1 1_555 1_555
O5 S2 1_555 1_555
O6 S2 1_555 1_555
O7 S3 1_555 1_555
O8 S3 1_555 1_555
O9 S3 1_555 1_555
O10 Gd1 1_555 1_555
H26 O10 1_555 1_555
H27 O10 1_555 1_555
S1 C14 1_555 1_555
S2 C19 1_555 1_555
S3 C24 1_555 1_555
O11 H28 1_555 1_555
H29 O11 1_555 1_555
O12 H30 1_555 1_555
H31 O12 1_555 1_555
C14B C15B 1_555 1_555
C15B H8B 1_555 1_555
C16B C15B 1_555 1_555
H9B C16B 1_555 1_555
C17B C17 1_555 1_555
C18B C17 1_555 1_555
H10B C18B 1_555 1_555
O1B S1B 1_555 1_555
O2B S1B 1_555 1_555
O3B S1B 1_555 1_555
S1B C14B 1_555 1_555
C1B H1B 1_555 1_555
C2B C1B 1_555 1_555
H2B C2B 1_555 1_555
C3B C2B 1_555 1_555
H3B C3B 1_555 1_555
C4B C3B 1_555 1_555
C5B C4B 1_555 1_555
C6B C5B 1_555 1_555
C7B C6B 1_555 1_555
C8B C7B 1_555 1_555
H4B C8B 1_555 1_555
C9B C8B 1_555 1_555
H5B C9B 1_555 1_555
C10B C9B 1_555 1_555
H6B C10B 1_555 1_555
C11B C7B 1_555 1_555
C12B C4B 1_555 1_555
C13B H7B 1_555 1_555
C19B C20B 1_555 1_555
C20B H11B 1_555 1_555
C21B C20B 1_555 1_555
H12B C21B 1_555 1_555
C22B C21B 1_555 1_555
H13B C22B 1_555 1_555
C23B C22B 1_555 1_555
C24B C23B 1_555 1_555
C25B C24B 1_555 1_555
H14B C25B 1_555 1_555
C26B C25B 1_555 1_555
H15B C26B 1_555 1_555
C27B C26B 1_555 1_555
H16B C27B 1_555 1_555
C28B C19B 1_555 1_555
C29B H17B 1_555 1_555
C30B C29B 1_555 1_555
H18B C30B 1_555 1_555
C31B C30B 1_555 1_555
H19B C31B 1_555 1_555
C32B C31B 1_555 1_555
C33B C32B 1_555 1_555
C34B H20B 1_555 1_555
C35B C33B 1_555 1_555
C36B C35B 1_555 1_555
C37B C36B 1_555 1_555
H21B C37B 1_555 1_555
C38B C37B 1_555 1_555
H22B C38B 1_555 1_555
C39B C38B 1_555 1_555
H23B C39B 1_555 1_555
C40B C36B 1_555 1_555
C41B C32B 1_555 1_555
Gd1B O1B 1_555 1_555
N1B C1B 1_555 1_555
N2B C10B 1_555 1_555
N3B C6B 1_555 1_555
N4B C5B 1_555 1_555
H24B N4B 1_555 1_555
N5B C29B 1_555 1_555
N6B C39B 1_555 1_555
N7B C33B 1_555 1_555
N8B C34B 1_555 1_555
H25B N8B 1_555 1_555
O4B Gd1B 1_555 1_555
O5B S2B 1_555 1_555
O6B S2B 1_555 1_555
O7B S3B 1_555 1_555
O8B S3B 1_555 1_555
O9B S3B 1_555 1_555
O10B Gd1B 1_555 1_555
H26B O10B 1_555 1_555
H27B O10B 1_555 1_555
S2B C19B 1_555 1_555
S3B C24B 1_555 1_555
Gd1A O7B 1_555 1_555
Gd1C O7 1_555 1_555
O7A Gd1B 1_555 1_555
O7C Gd1 1_555 1_555
C11 C12 1_555 1_555
C11 N2 1_555 1_555
C12 N1 1_555 1_555
C13 N3 1_555 1_555
C13 N4 1_555 1_555
C18 C17B 1_555 1_555
C23 C28 1_555 1_555
C27 C28 1_555 1_555
C34 N7 1_555 1_555
C35 N8 1_555 1_555
C40 C41 1_555 1_555
C40 N6 1_555 1_555
C41 N5 1_555 1_555
Gd1 N2 1_555 1_555
Gd1 N5 1_555 1_555
Gd1 N6 1_555 1_555
O1 S1 1_555 1_555
O4 S2 1_555 1_555
C14B C17B 1_555 1_555
C16B C18B 1_555 1_555
C11B C12B 1_555 1_555
C11B N2B 1_555 1_555
C12B N1B 1_555 1_555
C13B N3B 1_555 1_555
C13B N4B 1_555 1_555
C23B C28B 1_555 1_555
C27B C28B 1_555 1_555
C34B N7B 1_555 1_555
C35B N8B 1_555 1_555
C40B C41B 1_555 1_555
C40B N6B 1_555 1_555
C41B N5B 1_555 1_555
Gd1B N1B 1_555 1_555
Gd1B N2B 1_555 1_555
Gd1B N5B 1_555 1_555
Gd1B N6B 1_555 1_555
O4B S2B 1_555 1_555

#END
