
#######################################################################
#
#                 Cambridge Crystallographic Data Centre
#                                CCDC 
#
#######################################################################
#
# If this CIF has been generated from an entry in the Cambridge 
# Structural Database, then it will include bibliographic, chemical, 
# crystal, experimental, refinement or atomic coordinate data resulting 
# from the CCDC's data processing and validation procedures.
#
#######################################################################

data_RULYII
_symmetry_cell_setting           monoclinic
_symmetry_space_group_name_H-M   'C 2/c'
_symmetry_Int_Tables_number      15
_space_group_name_Hall           '-C 2yn'
loop_
_symmetry_equiv_pos_site_id
_symmetry_equiv_pos_as_xyz
1 x,y,z
2 -x,y,1/2-z
3 1/2+x,1/2+y,z
4 1/2-x,1/2+y,1/2-z
5 -x,-y,-z
6 x,-y,1/2+z
7 1/2-x,1/2-y,-z
8 1/2+x,1/2-y,1/2+z
_cell_length_a                   17.9229(7)
_cell_length_b                   10.5361(4)
_cell_length_c                   23.3537(10)
_cell_angle_alpha                90
_cell_angle_beta                 92.3340(10)
_cell_angle_gamma                90
_cell_volume                     4406.39
loop_
_atom_site_label
_atom_site_type_symbol
_atom_site_fract_x
_atom_site_fract_y
_atom_site_fract_z
Eu1 Eu 0.26453(2) 0.60829(2) 0.24487(2)
Mn1 Mn 0.45504(3) 0.28342(5) 0.10374(2)
O1 O 0.35619(14) 0.4631(2) 0.22081(11)
O2 O 0.31546(14) 0.2647(2) 0.22768(11)
O3 O 0.29630(15) 0.7393(2) 0.16798(10)
O4 O 0.19887(14) 0.5336(2) 0.16138(10)
O5 O 0.36614(15) 0.7293(2) 0.28188(11)
O6 O 0.28923(15) 0.5421(3) 0.33993(10)
O7 O 0.44306(19) 0.5382(3) 0.05294(14)
O8 O 0.5142(2) 0.1679(4) 0.00021(15)
O9 O 0.30110(18) 0.2173(4) 0.06602(15)
O10 O 0.17196(14) 0.4550(2) 0.27174(10)
H1 H 0.1793 0.3927 0.3016
H2 H 0.151 0.4071 0.2476
C1 C 0.36332(19) 0.3462(3) 0.21491(14)
C2 C 0.43482(18) 0.2986(3) 0.19242(14)
C3 C 0.4979(2) 0.3728(3) 0.17986(15)
H3 H 0.5019 0.4622 0.1845
C4 C 0.5536(2) 0.2925(4) 0.15938(16)
H4 H 0.6016 0.3177 0.1478
C5 C 0.5250(2) 0.1669(4) 0.15926(17)
H5 H 0.5508 0.0934 0.1472
C6 C 0.4525(2) 0.1688(3) 0.17986(16)
H6 H 0.421 0.0974 0.1846
C7 C 0.3417(3) 0.8187(5) 0.08106(18)
H7 H 0.3945 0.8081 0.0927
H8 H 0.3259 0.9055 0.0895
H9 H 0.3349 0.8028 0.0398
C8 C 0.2951(2) 0.7259(4) 0.11354(16)
C9 C 0.2554(2) 0.6324(4) 0.08330(16)
H10 H 0.2604 0.6286 0.043
C10 C 0.2085(2) 0.5433(3) 0.10824(15)
C11 C 0.1646(2) 0.4549(4) 0.06934(16)
H11 H 0.1795 0.3685 0.0761
H12 H 0.1126 0.4657 0.0763
H13 H 0.1727 0.4787 0.0304
C12 C 0.4773(3) 0.8096(5) 0.3265(2)
H14 H 0.4651 0.8853 0.3052
H15 H 0.4923 0.8333 0.3649
H16 H 0.5166 0.7661 0.3079
C13 C 0.4101(2) 0.7240(4) 0.32600(17)
C14 C 0.3993(2) 0.6459(4) 0.37336(18)
H17 H 0.4352 0.6499 0.4043
C15 C 0.3395(2) 0.5626(4) 0.37824(16)
C16 C 0.3329(3) 0.4930(4) 0.43446(17)
H18 H 0.3264 0.4039 0.4271
H19 H 0.2904 0.5248 0.4536
H20 H 0.3769 0.5056 0.4586
C17 C 0.4473(2) 0.4380(4) 0.07172(17)
C18 C 0.4916(2) 0.2141(4) 0.04037(19)
C19 C 0.3610(2) 0.2425(4) 0.08026(17)
Eu1C Eu 0.23547(2) 0.10829(2) 0.25513(2)
O2C O 0.18454(14) 0.7647(2) 0.27232(11)
loop_
_geom_bond_atom_site_label_1
_geom_bond_atom_site_label_2
_geom_bond_site_symmetry_1
_geom_bond_site_symmetry_2
Eu1 O1 1_555 1_555
Mn1 C2 1_555 1_555
O1 C1 1_555 1_555
O2 C1 1_555 1_555
O3 Eu1 1_555 1_555
O4 Eu1 1_555 1_555
O5 Eu1 1_555 1_555
O6 Eu1 1_555 1_555
O7 C17 1_555 1_555
O8 C18 1_555 1_555
O9 C19 1_555 1_555
O10 Eu1 1_555 1_555
H1 O10 1_555 1_555
H2 O10 1_555 1_555
C1 C2 1_555 1_555
C2 C3 1_555 1_555
C3 Mn1 1_555 1_555
H3 C3 1_555 1_555
C4 Mn1 1_555 1_555
H4 C4 1_555 1_555
C5 Mn1 1_555 1_555
H5 C5 1_555 1_555
C6 Mn1 1_555 1_555
H6 C6 1_555 1_555
C7 H7 1_555 1_555
H8 C7 1_555 1_555
H9 C7 1_555 1_555
C8 O3 1_555 1_555
C9 C8 1_555 1_555
H10 C9 1_555 1_555
C10 O4 1_555 1_555
C11 C10 1_555 1_555
H11 C11 1_555 1_555
H12 C11 1_555 1_555
H13 C11 1_555 1_555
C12 H14 1_555 1_555
H15 C12 1_555 1_555
H16 C12 1_555 1_555
C13 O5 1_555 1_555
C14 C13 1_555 1_555
H17 C14 1_555 1_555
C15 O6 1_555 1_555
C16 C15 1_555 1_555
H18 C16 1_555 1_555
H19 C16 1_555 1_555
H20 C16 1_555 1_555
C17 Mn1 1_555 1_555
C18 Mn1 1_555 1_555
C19 Mn1 1_555 1_555
Eu1C O2 1_555 1_555
O2C Eu1 1_555 1_555
C2 C6 1_555 1_555
C3 C4 1_555 1_555
C4 C5 1_555 1_555
C5 C6 1_555 1_555
C7 C8 1_555 1_555
C9 C10 1_555 1_555
C12 C13 1_555 1_555
C14 C15 1_555 1_555

#END
