
#######################################################################
#
#                 Cambridge Crystallographic Data Centre
#                                CCDC 
#
#######################################################################
#
# If this CIF has been generated from an entry in the Cambridge 
# Structural Database, then it will include bibliographic, chemical, 
# crystal, experimental, refinement or atomic coordinate data resulting 
# from the CCDC's data processing and validation procedures.
#
#######################################################################

data_RUMFOU
_symmetry_cell_setting           orthorhombic
_symmetry_space_group_name_H-M   'P b c a'
_symmetry_Int_Tables_number      61
_space_group_name_Hall           '-P 2ac 2ab'
loop_
_symmetry_equiv_pos_site_id
_symmetry_equiv_pos_as_xyz
1 x,y,z
2 1/2-x,-y,1/2+z
3 1/2+x,1/2-y,-z
4 -x,1/2+y,1/2-z
5 -x,-y,-z
6 1/2+x,y,1/2-z
7 1/2-x,1/2+y,z
8 x,1/2-y,1/2+z
_cell_length_a                   14.878(4)
_cell_length_b                   13.883(2)
_cell_length_c                   17.288(3)
_cell_angle_alpha                90
_cell_angle_beta                 90
_cell_angle_gamma                90
_cell_volume                     3570.86
loop_
_atom_site_label
_atom_site_type_symbol
_atom_site_fract_x
_atom_site_fract_y
_atom_site_fract_z
Co1 Co 0.2516(1) 0.2288(1) 0.4365(1)
N1 N 0.3293(2) 0.1818(3) 0.5281(2)
C1 C 0.4134(3) 0.2087(4) 0.5447(3)
C2 C 0.3763(3) 0.1027(4) 0.6313(3)
C3 C 0.4452(3) 0.1615(4) 0.6090(3)
N2 N 0.3079(2) 0.1152(3) 0.5832(2)
C4 C 0.2235(3) 0.0632(4) 0.5766(2)
C5 C 0.1943(3) 0.0154(3) 0.6510(2)
C6 C 0.1673(4) -0.0789(4) 0.6488(3)
C7 C 0.1300(4) -0.1225(4) 0.7135(3)
C8 C 0.1208(3) -0.0729(3) 0.7817(3)
C9 C 0.1515(3) 0.0210(3) 0.7843(3)
C10 C 0.1870(3) 0.0645(3) 0.7200(3)
C11 C 0.0719(3) -0.1151(3) 0.8506(3)
N3 N 0.0686(2) -0.2198(3) 0.8507(2)
C12 C 0.0027(3) -0.2768(4) 0.8240(3)
C13 C 0.0325(3) -0.3696(4) 0.8285(3)
C14 C 0.1180(3) -0.3642(3) 0.8587(3)
N4 N 0.3590(2) 0.2727(3) 0.3718(2)
O1 O 0.2128(2) 0.3661(2) 0.4642(2)
O2 O 0.1020(3) 0.4084(3) 0.5378(3)
O3 O 0.1279(2) 0.2581(3) 0.5131(2)
N5 N 0.1454(3) 0.3452(3) 0.5065(2)
O4 O 0.1622(2) 0.2334(2) 0.3273(2)
O5 O 0.1157(3) 0.0935(3) 0.2870(2)
O6 O 0.1949(2) 0.1063(2) 0.3921(2)
N6 N 0.1558(3) 0.1431(3) 0.3333(2)
H1 H 0.4461(3) 0.2536(4) 0.5163(3)
H2 H 0.3773(3) 0.0608(4) 0.6732(3)
H3 H 0.5012(3) 0.1681(4) 0.6323(3)
H4 H 0.2296(3) 0.0144(4) 0.5368(2)
H5 H 0.1770(3) 0.1077(4) 0.5602(2)
H6 H 0.1740(4) -0.1141(4) 0.6034(3)
H7 H 0.1109(4) -0.1862(4) 0.7106(3)
H8 H 0.1480(3) 0.0553(3) 0.8304(3)
H9 H 0.2064(3) 0.1281(3) 0.7230(3)
H10 H 0.1014(3) -0.0935(3) 0.8976(3)
H11 H 0.0110(3) -0.0903(3) 0.8513(3)
H12 H -0.0531(3) -0.2567(4) 0.8058(3)
H13 H 0.0015(3) -0.4249(4) 0.8141(3)
H14 H 0.1547(3) -0.4170(3) 0.8685(3)
N4A N 0.1410(2) -0.2727(3) 0.8718(2)
Co1A Co 0.2484(1) -0.2288(1) 0.9365(1)
loop_
_geom_bond_atom_site_label_1
_geom_bond_atom_site_label_2
_geom_bond_site_symmetry_1
_geom_bond_site_symmetry_2
Co1 N1 1_555 1_555
N1 C1 1_555 1_555
C1 C3 1_555 1_555
C2 C3 1_555 1_555
C3 H3 1_555 1_555
N2 N1 1_555 1_555
C4 N2 1_555 1_555
C5 C4 1_555 1_555
C6 C5 1_555 1_555
C7 C6 1_555 1_555
C8 C7 1_555 1_555
C9 C8 1_555 1_555
C10 C5 1_555 1_555
C11 C8 1_555 1_555
N3 C11 1_555 1_555
C12 N3 1_555 1_555
C13 C12 1_555 1_555
C14 C13 1_555 1_555
N4 Co1 1_555 1_555
O1 Co1 1_555 1_555
O2 N5 1_555 1_555
O3 Co1 1_555 1_555
N5 O1 1_555 1_555
O4 Co1 1_555 1_555
O5 N6 1_555 1_555
O6 Co1 1_555 1_555
N6 O4 1_555 1_555
H1 C1 1_555 1_555
H2 C2 1_555 1_555
H4 C4 1_555 1_555
H5 C4 1_555 1_555
H6 C6 1_555 1_555
H7 C7 1_555 1_555
H8 C9 1_555 1_555
H9 C10 1_555 1_555
H10 C11 1_555 1_555
H11 C11 1_555 1_555
H12 C12 1_555 1_555
H13 C13 1_555 1_555
H14 C14 1_555 1_555
N4A N3 1_555 1_555
Co1A N4A 1_555 1_555
C2 N2 1_555 1_555
C9 C10 1_555 1_555
C14 N4A 1_555 1_555
O3 N5 1_555 1_555
O6 N6 1_555 1_555

#END
