
#######################################################################
#
#                 Cambridge Crystallographic Data Centre
#                                CCDC 
#
#######################################################################
#
# If this CIF has been generated from an entry in the Cambridge 
# Structural Database, then it will include bibliographic, chemical, 
# crystal, experimental, refinement or atomic coordinate data resulting 
# from the CCDC's data processing and validation procedures.
#
#######################################################################

data_RUMQIZ
_symmetry_cell_setting           monoclinic
_symmetry_space_group_name_H-M   'P 1 1 21/n'
_symmetry_Int_Tables_number      14
_space_group_name_Hall           '-P 2n'
loop_
_symmetry_equiv_pos_site_id
_symmetry_equiv_pos_as_xyz
1 x,y,z
2 1/2-x,1/2-y,1/2+z
3 -x,-y,-z
4 1/2+x,1/2+y,1/2-z
_cell_length_a                   10.612(3)
_cell_length_b                   12.973(3)
_cell_length_c                   3.7221(1)
_cell_angle_alpha                90
_cell_angle_beta                 90
_cell_angle_gamma                91.16(2)
_cell_volume                     512.315
loop_
_atom_site_label
_atom_site_type_symbol
_atom_site_fract_x
_atom_site_fract_y
_atom_site_fract_z
Ag1 Ag 0.63868(4) 0.98032(3) 0.0106(2)
O1 O 0.6369(4) 1.1085(3) -0.388(1)
O2 O 0.4369(4) 1.1552(3) -0.345(1)
O3 O 0.3197(4) 1.3179(3) -0.429(1)
O4 O 0.3539(4) 1.4651(3) -0.709(1)
C1 C 0.5497(5) 1.1696(4) -0.445(2)
C2 C 0.5860(5) 1.2640(4) -0.652(2)
C3 C 0.5224(5) 1.3499(4) -0.717(2)
C4 C 0.3933(5) 1.3798(4) -0.619(2)
H1 H 0.379(7) 1.243(6) -0.35(2)
H2 H 0.688(7) 1.262(6) -0.76(2)
H3 H 0.547(7) 1.386(6) -0.81(2)
Ag1B Ag 0.36132(4) 1.01968(3) -0.0106(2)
O1_2 O 0.6369(4) 1.1085(3) 0.612(1)
O2B O 0.5631(4) 0.8448(3) 0.345(1)
O4C O 0.8539(4) 0.9651(3) 0.209(1)
Ag1_2 Ag 0.63868(4) 0.98032(3) -0.9894(2)
Ag1C Ag 0.13868(4) 1.48032(3) -0.5106(2)
loop_
_geom_bond_atom_site_label_1
_geom_bond_atom_site_label_2
_geom_bond_site_symmetry_1
_geom_bond_site_symmetry_2
Ag1 O1 1_555 1_555
O1 C1 1_555 1_555
O2 C1 1_555 1_555
O3 C4 1_555 1_555
O4 C4 1_555 1_555
C1 C2 1_555 1_555
C2 C3 1_555 1_555
C3 C4 1_555 1_555
H1 O3 1_555 1_555
H2 C2 1_555 1_555
H3 C3 1_555 1_555
Ag1B O2 1_555 1_555
O1_2 Ag1 1_555 1_555
O2B Ag1 1_555 1_555
O4C Ag1 1_555 1_555
Ag1_2 O1 1_555 1_555
Ag1C O4 1_555 1_555

#END
