
#######################################################################
#
#                 Cambridge Crystallographic Data Centre
#                                CCDC 
#
#######################################################################
#
# If this CIF has been generated from an entry in the Cambridge 
# Structural Database, then it will include bibliographic, chemical, 
# crystal, experimental, refinement or atomic coordinate data resulting 
# from the CCDC's data processing and validation procedures.
#
#######################################################################

data_RUNXUU
_symmetry_cell_setting           monoclinic
_symmetry_space_group_name_H-M   'C 2/c'
_symmetry_Int_Tables_number      15
_space_group_name_Hall           '-C 2yn'
loop_
_symmetry_equiv_pos_site_id
_symmetry_equiv_pos_as_xyz
1 x,y,z
2 -x,y,1/2-z
3 1/2+x,1/2+y,z
4 1/2-x,1/2+y,1/2-z
5 -x,-y,-z
6 x,-y,1/2+z
7 1/2-x,1/2-y,-z
8 1/2+x,1/2-y,1/2+z
_cell_length_a                   27.816(4)
_cell_length_b                   10.1698(13)
_cell_length_c                   17.985(2)
_cell_angle_alpha                90
_cell_angle_beta                 123.450(1)
_cell_angle_gamma                90
_cell_volume                     4244.97
loop_
_atom_site_label
_atom_site_type_symbol
_atom_site_fract_x
_atom_site_fract_y
_atom_site_fract_z
Co1 Co 0.187746(11) 0.68115(2) 0.424024(16)
Co2 Co 0.0000 0.65364(3) 0.2500
O1 O -0.04989(6) 0.88543(17) 0.39140(10)
O2 O -0.05227(6) 0.75066(14) 0.29065(9)
O3 O 0.21171(6) 0.90857(18) 0.63371(10)
O4 O 0.22668(5) 0.80302(13) 0.53935(9)
O5 O 0.16074(6) 0.82921(14) 0.32918(9)
H1 H 0.1262 0.8147 0.2925
H2 H 0.1770 0.8566 0.3050
N1 N 0.05953(6) 0.74257(15) 0.37315(10)
N2 N 0.11724(6) 0.74708(15) 0.42672(10)
N3 N 0.16057(7) 0.52569(17) 0.32822(11)
N4 N 0.19686(7) 0.50877(16) 0.50075(11)
N5 N 0.01413(8) 0.47782(16) 0.33409(11)
C1 C -0.02609(8) 0.81803(19) 0.36292(13)
C2 C 0.03757(8) 0.81144(18) 0.41277(12)
C3 C 0.08205(8) 0.86340(19) 0.49323(12)
H5 H 0.0793 0.9148 0.5335
C4 C 0.13179(8) 0.82056(18) 0.49953(12)
C5 C 0.19398(8) 0.84788(19) 0.56432(13)
C6 C 0.14532(10) 0.5346(2) 0.24390(15)
H6 H 0.1442 0.6173 0.2209
C7 C 0.13095(12) 0.4250(3) 0.18883(17)
H7 H 0.1210 0.4350 0.1306
C8 C 0.13159(12) 0.3035(3) 0.22073(19)
H8 H 0.1215 0.2302 0.1841
C9 C 0.14754(11) 0.2887(2) 0.30922(19)
C10 C 0.15044(13) 0.1653(3) 0.3489(2)
H9 H 0.1403 0.0892 0.3148
C11 C 0.16753(14) 0.1569(3) 0.4347(3)
H10 H 0.1688 0.0749 0.4587
C12 C 0.18382(11) 0.2717(2) 0.49032(19)
C13 C 0.20323(12) 0.2694(3) 0.5810(2)
H11 H 0.2057 0.1899 0.6085
C14 C 0.21837(12) 0.3832(3) 0.62844(18)
H12 H 0.2310 0.3821 0.6883
C15 C 0.21472(10) 0.5017(2) 0.58638(15)
H13 H 0.2252 0.5790 0.6195
C16 C 0.18130(9) 0.3950(2) 0.45330(15)
C17 C 0.16226(9) 0.4044(2) 0.36086(15)
C18 C 0.02927(11) 0.4774(2) 0.41868(15)
H14 H 0.0346 0.5579 0.4468
C19 C 0.03755(12) 0.3634(3) 0.46692(17)
H15 H 0.0479 0.3685 0.5256
C20 C 0.03040(12) 0.2438(2) 0.42758(17)
H16 H 0.0354 0.1666 0.4588
C21 C 0.01542(11) 0.2390(2) 0.33919(16)
C22 C 0.00775(9) 0.3590(2) 0.29544(14)
C23 C 0.00747(14) 0.1186(2) 0.29257(18)
H17 H 0.0127 0.0389 0.3215
Co1A Co -0.187746(11) 0.68115(2) 0.075976(16)
Co1F Co 0.312254(11) 0.81885(2) 0.575976(16)
Co1G Co -0.312254(11) 0.81885(2) -0.075976(16)
O1A O 0.04989(6) 0.88543(17) 0.10860(10)
O2A O 0.05227(6) 0.75066(14) 0.20935(9)
O3A O -0.21171(6) 0.90857(18) -0.13371(10)
O4A O -0.22668(5) 0.80302(13) -0.03935(9)
O4F O 0.27332(5) 0.69698(13) 0.46065(9)
O4G O -0.27332(5) 0.69698(13) 0.03935(9)
O5A O -0.16074(6) 0.82921(14) 0.17082(9)
H1A H -0.1262 0.8147 0.2075
H2A H -0.1770 0.8566 0.1950
N1A N -0.05953(6) 0.74257(15) 0.12685(10)
N2A N -0.11724(6) 0.74708(15) 0.07328(10)
N3A N -0.16057(7) 0.52569(17) 0.17178(11)
N4A N -0.19686(7) 0.50877(16) -0.00075(11)
N5A N -0.01413(8) 0.47782(16) 0.16591(11)
C1A C 0.02609(8) 0.81803(19) 0.13708(13)
C2A C -0.03757(8) 0.81144(18) 0.08723(12)
C3A C -0.08205(8) 0.86340(19) 0.00677(12)
H5A H -0.0793 0.9148 -0.0335
C4A C -0.13179(8) 0.82056(18) 0.00047(12)
C5A C -0.19398(8) 0.84788(19) -0.06432(13)
C6A C -0.14532(10) 0.5346(2) 0.25610(15)
H6A H -0.1442 0.6173 0.2791
C7A C -0.13095(12) 0.4250(3) 0.31117(17)
H7A H -0.1210 0.4350 0.3694
C8A C -0.13159(12) 0.3035(3) 0.27927(19)
H8A H -0.1215 0.2302 0.3159
C9A C -0.14754(11) 0.2887(2) 0.19078(19)
C10A C -0.15044(13) 0.1653(3) 0.1511(2)
H9A H -0.1403 0.0892 0.1852
C11A C -0.16753(14) 0.1569(3) 0.0653(3)
H10A H -0.1688 0.0749 0.0413
C12A C -0.18382(11) 0.2717(2) 0.00968(19)
C13A C -0.20323(12) 0.2694(3) -0.0810(2)
H11A H -0.2057 0.1899 -0.1085
C14A C -0.21837(12) 0.3832(3) -0.12844(18)
H12A H -0.2310 0.3821 -0.1883
C15A C -0.21472(10) 0.5017(2) -0.08638(15)
H13A H -0.2252 0.5790 -0.1195
C16A C -0.18130(9) 0.3950(2) 0.04670(15)
C17A C -0.16226(9) 0.4044(2) 0.13914(15)
C18A C -0.02927(11) 0.4774(2) 0.08132(15)
H14A H -0.0346 0.5579 0.0532
C19A C -0.03755(12) 0.3634(3) 0.03308(17)
H15A H -0.0479 0.3685 -0.0256
C20A C -0.03040(12) 0.2438(2) 0.07242(17)
H16A H -0.0354 0.1666 0.0412
C21A C -0.01542(11) 0.2390(2) 0.16081(16)
C22A C -0.00775(9) 0.3590(2) 0.20456(14)
C23A C -0.00747(14) 0.1186(2) 0.20743(18)
H17A H -0.0127 0.0389 0.1785
O6 O 0.33300(7) 0.4168(2) 0.30467(12)
H3 H 0.3687 0.4147 0.3299
H4 H 0.3238 0.4798 0.3241
loop_
_geom_bond_atom_site_label_1
_geom_bond_atom_site_label_2
_geom_bond_site_symmetry_1
_geom_bond_site_symmetry_2
Co1 O4 1_555 1_555
Co2 O2 1_555 1_555
O1 C1 1_555 1_555
O2 C1 1_555 1_555
O3 C5 1_555 1_555
O4 C5 1_555 1_555
O5 Co1 1_555 1_555
H1 O5 1_555 1_555
H2 O5 1_555 1_555
O6 H3 1_555 1_555
H4 O6 1_555 1_555
N1 Co2 1_555 1_555
N2 Co1 1_555 1_555
N3 Co1 1_555 1_555
N4 Co1 1_555 1_555
N5 Co2 1_555 1_555
C1 C2 1_555 1_555
C2 N1 1_555 1_555
C3 C2 1_555 1_555
H5 C3 1_555 1_555
C4 N2 1_555 1_555
C5 C4 1_555 1_555
C6 N3 1_555 1_555
H6 C6 1_555 1_555
C7 C6 1_555 1_555
H7 C7 1_555 1_555
C8 C7 1_555 1_555
H8 C8 1_555 1_555
C9 C8 1_555 1_555
C10 C9 1_555 1_555
H9 C10 1_555 1_555
C11 C10 1_555 1_555
H10 C11 1_555 1_555
C12 C11 1_555 1_555
C13 C12 1_555 1_555
H11 C13 1_555 1_555
C14 C13 1_555 1_555
H12 C14 1_555 1_555
C15 N4 1_555 1_555
H13 C15 1_555 1_555
C16 N4 1_555 1_555
C17 N3 1_555 1_555
C18 N5 1_555 1_555
H14 C18 1_555 1_555
C19 C18 1_555 1_555
H15 C19 1_555 1_555
C20 C19 1_555 1_555
H16 C20 1_555 1_555
C21 C20 1_555 1_555
C22 N5 1_555 1_555
C23 C21 1_555 1_555
H17 C23 1_555 1_555
Co1A O4A 1_555 1_555
Co1F O4 1_555 1_555
Co1G O4A 1_555 1_555
O1A C1A 1_555 1_555
O2A Co2 1_555 1_555
O3A C5A 1_555 1_555
O4A C5A 1_555 1_555
O4F Co1 1_555 1_555
O4G Co1A 1_555 1_555
O5A Co1A 1_555 1_555
H1A O5A 1_555 1_555
H2A O5A 1_555 1_555
N1A Co2 1_555 1_555
N2A Co1A 1_555 1_555
N3A Co1A 1_555 1_555
N4A Co1A 1_555 1_555
N5A Co2 1_555 1_555
C1A O2A 1_555 1_555
C2A N1A 1_555 1_555
C3A C2A 1_555 1_555
H5A C3A 1_555 1_555
C4A N2A 1_555 1_555
C5A C4A 1_555 1_555
C6A N3A 1_555 1_555
H6A C6A 1_555 1_555
C7A C6A 1_555 1_555
H7A C7A 1_555 1_555
C8A C7A 1_555 1_555
H8A C8A 1_555 1_555
C9A C8A 1_555 1_555
C10A C9A 1_555 1_555
H9A C10A 1_555 1_555
C11A C10A 1_555 1_555
H10A C11A 1_555 1_555
C12A C11A 1_555 1_555
C13A C12A 1_555 1_555
H11A C13A 1_555 1_555
C14A C13A 1_555 1_555
H12A C14A 1_555 1_555
C15A N4A 1_555 1_555
H13A C15A 1_555 1_555
C16A N4A 1_555 1_555
C17A N3A 1_555 1_555
C18A N5A 1_555 1_555
H14A C18A 1_555 1_555
C19A C18A 1_555 1_555
H15A C19A 1_555 1_555
C20A C19A 1_555 1_555
H16A C20A 1_555 1_555
C21A C20A 1_555 1_555
C22A C22 1_555 1_555
C23A C23 1_555 1_555
H17A C23A 1_555 1_555
N1 N2 1_555 1_555
C3 C4 1_555 1_555
C9 C17 1_555 1_555
C12 C16 1_555 1_555
C14 C15 1_555 1_555
C16 C17 1_555 1_555
C21 C22 1_555 1_555
Co1F O4F 1_555 1_555
Co1G O4G 1_555 1_555
N1A N2A 1_555 1_555
N5A C22A 1_555 1_555
C1A C2A 1_555 1_555
C3A C4A 1_555 1_555
C9A C17A 1_555 1_555
C12A C16A 1_555 1_555
C14A C15A 1_555 1_555
C16A C17A 1_555 1_555
C21A C22A 1_555 1_555
C21A C23A 1_555 1_555

#END
