
#######################################################################
#
#                 Cambridge Crystallographic Data Centre
#                                CCDC 
#
#######################################################################
#
# If this CIF has been generated from an entry in the Cambridge 
# Structural Database, then it will include bibliographic, chemical, 
# crystal, experimental, refinement or atomic coordinate data resulting 
# from the CCDC's data processing and validation procedures.
#
#######################################################################

data_RUNYEG
_symmetry_cell_setting           triclinic
_symmetry_space_group_name_H-M   'P -1'
_symmetry_Int_Tables_number      2
_space_group_name_Hall           '-P 1'
loop_
_symmetry_equiv_pos_site_id
_symmetry_equiv_pos_as_xyz
1 x,y,z
2 -x,-y,-z
_cell_length_a                   7.6120(15)
_cell_length_b                   13.231(3)
_cell_length_c                   14.107(3)
_cell_angle_alpha                81.58(3)
_cell_angle_beta                 84.39(3)
_cell_angle_gamma                84.86(3)
_cell_volume                     1394.64
loop_
_atom_site_label
_atom_site_type_symbol
_atom_site_fract_x
_atom_site_fract_y
_atom_site_fract_z
Zn1 Zn 1.22388(3) 0.77517(2) 0.96748(2)
O1 O 1.00535(19) 0.77523(12) 0.90904(10)
C1 C 1.0328(3) 0.74051(16) 0.82773(14)
O2 O 1.1779(2) 0.70195(16) 0.79802(12)
C2 C 0.8785(3) 0.75058(15) 0.76783(13)
C3 C 0.8911(3) 0.70214(17) 0.68588(14)
H1 H 0.9968 0.6626 0.6688
C4 C 0.7496(3) 0.71139(17) 0.62886(14)
H2 H 0.7596 0.6782 0.5730
C5 C 0.5942(3) 0.76861(14) 0.65294(13)
C6 C 0.5820(3) 0.81591(15) 0.73577(14)
H3 H 0.4759 0.8548 0.7534
C7 C 0.7222(3) 0.80691(15) 0.79245(13)
H4 H 0.7116 0.8395 0.8487
C8 C 0.4380(3) 0.78042(15) 0.59262(13)
H5 H 0.4718 0.7494 0.5331
H6 H 0.3391 0.7438 0.6289
N1 N 0.3799(2) 0.88899(12) 0.56753(11)
C9 C 0.1987(2) 0.90376(16) 0.53596(13)
H7 H 0.1594 0.9776 0.5314
H8 H 0.1187 0.8666 0.5860
C10 C 0.1782(2) 0.86806(16) 0.44015(13)
C11 C 0.1457(3) 0.76664(17) 0.43520(15)
H9 H 0.1303 0.7200 0.4928
C12 C 0.1356(3) 0.73307(18) 0.34711(16)
H10 H 0.1124 0.6641 0.3450
C13 C 0.1594(3) 0.80026(17) 0.26189(14)
C14 C 0.1907(3) 0.90132(16) 0.26604(14)
H11 H 0.2069 0.9477 0.2083
C15 C 0.1983(3) 0.93481(16) 0.35458(14)
H12 H 0.2177 1.0044 0.3566
C16 C 0.1511(4) 0.76279(19) 0.16646(16)
O3 O 0.1163(5) 0.6753(2) 0.16375(15)
O4 O 0.1888(2) 0.82644(13) 0.09230(10)
C17 C 0.5120(2) 0.94218(14) 0.50058(13)
H13 H 0.5026 0.9260 0.4350
H14 H 0.6319 0.9170 0.5193
N2 N 1.4427(2) 0.67772(12) 0.97087(12)
C18 C 1.5540(3) 0.68202(15) 1.03877(14)
H15 H 1.5189 0.7250 1.0867
C19 C 1.7157(3) 0.62708(15) 1.04165(15)
H16 H 1.7912 0.6336 1.0899
C20 C 1.7685(3) 0.56133(14) 0.97291(14)
C21 C 1.6518(3) 0.55627(14) 0.90420(14)
H17 H 1.6815 0.5121 0.8568
C22 C 1.4928(3) 0.61526(14) 0.90465(14)
H18 H 1.4160 0.6115 0.8563
C23 C 1.9373(3) 0.49875(14) 0.97049(14)
H19 H 1.9588 0.4533 0.9236
O5 O 1.3226(2) 0.90675(11) 0.89900(11)
S1 S 1.19629(7) 1.00174(4) 0.88159(4)
C24 C 1.2782(4) 1.0622(3) 0.7673(3)
H20 H 1.4046 1.0709 0.7678
H21 H 1.2139 1.1294 0.7529
H22 H 1.2614 1.0197 0.7180
C25 C 1.2606(5) 1.0837(3) 0.9579(3)
H23 H 1.3889 1.0886 0.9479
H24 H 1.2284 1.0561 1.0251
H25 H 1.2001 1.1520 0.9432
O1A O -0.00535(19) 1.22477(12) 0.09096(10)
C1A C -0.0328(3) 1.25949(16) 0.17227(14)
O2A O -0.1779(2) 1.29805(16) 0.20198(12)
C2A C 0.1215(3) 1.24942(15) 0.23217(13)
C3A C 0.1089(3) 1.29786(17) 0.31412(14)
H1A H 0.0032 1.3374 0.3312
C4A C 0.2504(3) 1.28861(17) 0.37114(14)
H2A H 0.2404 1.3218 0.4270
C5A C 0.4058(3) 1.23139(14) 0.34706(13)
C6A C 0.4180(3) 1.18409(15) 0.26423(14)
H3A H 0.5241 1.1452 0.2466
C7A C 0.2778(3) 1.19309(15) 0.20755(13)
H4A H 0.2884 1.1605 0.1513
C8A C 0.5620(3) 1.21958(15) 0.40738(13)
H5A H 0.5282 1.2506 0.4669
H6A H 0.6609 1.2562 0.3711
N1A N 0.6201(2) 1.11101(12) 0.43247(11)
C9A C 0.8013(2) 1.09624(16) 0.46404(13)
H7A H 0.8406 1.0224 0.4686
H8A H 0.8813 1.1334 0.4140
C10A C 0.8218(2) 1.13194(16) 0.55985(13)
C11A C 0.8543(3) 1.23336(17) 0.56480(15)
H9A H 0.8697 1.2800 0.5072
C12A C 0.8644(3) 1.26693(18) 0.65289(16)
H10A H 0.8876 1.3359 0.6550
C13A C 0.8406(3) 1.19974(17) 0.73811(14)
C14A C 0.8093(3) 1.09868(16) 0.73396(14)
H11A H 0.7931 1.0523 0.7917
C15A C 0.8017(3) 1.06519(16) 0.64542(14)
H12A H 0.7823 0.9956 0.6434
C16A C 0.8489(4) 1.23721(19) 0.83354(16)
O3A O 0.8837(5) 1.3247(2) 0.83625(15)
O4A O 0.8112(2) 1.17356(13) 0.90770(10)
C17A C 0.4880(2) 1.05782(14) 0.49942(13)
H13A H 0.4974 1.0740 0.5650
H14A H 0.3681 1.0830 0.4807
N2A N 2.5573(2) 0.32228(12) 1.02913(12)
C18A C 2.4460(3) 0.31798(15) 0.96123(14)
H15A H 2.4811 0.2750 0.9133
C19A C 2.2843(3) 0.37292(15) 0.95835(15)
H16A H 2.2088 0.3664 0.9101
C20A C 2.2315(3) 0.43867(14) 1.02709(14)
C21A C 2.3482(3) 0.44373(14) 1.09580(14)
H17A H 2.3185 0.4879 1.1432
C22A C 2.5072(3) 0.38474(14) 1.09535(14)
H18A H 2.5840 0.3885 1.1437
C23A C 2.0627(3) 0.50125(14) 1.02951(14)
H19A H 2.0412 0.5467 1.0764
Zn1A Zn -0.22388(3) 1.22483(2) 0.03252(2)
O5A O -0.3226(2) 1.09325(11) 0.10100(11)
S1A S -0.19629(7) 0.99826(4) 0.11841(4)
C24A C -0.2782(4) 0.9378(3) 0.2327(3)
H20A H -0.4046 0.9291 0.2322
H21A H -0.2139 0.8706 0.2471
H22A H -0.2614 0.9803 0.2820
C25A C -0.2606(5) 0.9163(3) 0.0421(3)
H23A H -0.3889 0.9114 0.0521
H24A H -0.2284 0.9439 -0.0251
H25A H -0.2001 0.8480 0.0568
Zn1_2 Zn 0.22388(3) 0.77517(2) -0.03252(2)
Zn1A_2 Zn 0.77612(3) 1.22483(2) 1.03252(2)
Zn1A_3 Zn 2.77612(3) 0.22483(2) 1.03252(2)
O4_2 O 1.1888(2) 0.82644(13) 1.09230(10)
O4A_2 O -0.1888(2) 1.17356(13) -0.09230(10)
N2A_2 N -0.4427(2) 1.32228(12) 0.02913(12)
loop_
_geom_bond_atom_site_label_1
_geom_bond_atom_site_label_2
_geom_bond_site_symmetry_1
_geom_bond_site_symmetry_2
Zn1 O1 1_555 1_555
O1 C1 1_555 1_555
C1 O2 1_555 1_555
C2 C1 1_555 1_555
C3 C2 1_555 1_555
H1 C3 1_555 1_555
C4 C3 1_555 1_555
H2 C4 1_555 1_555
C5 C4 1_555 1_555
C6 C5 1_555 1_555
H3 C6 1_555 1_555
C7 C2 1_555 1_555
H4 C7 1_555 1_555
C8 C5 1_555 1_555
H5 C8 1_555 1_555
H6 C8 1_555 1_555
N1 C8 1_555 1_555
C9 N1 1_555 1_555
H7 C9 1_555 1_555
H8 C9 1_555 1_555
C10 C9 1_555 1_555
C11 C10 1_555 1_555
H9 C11 1_555 1_555
C12 C11 1_555 1_555
H10 C12 1_555 1_555
C13 C12 1_555 1_555
C14 C13 1_555 1_555
H11 C14 1_555 1_555
C15 C10 1_555 1_555
H12 C15 1_555 1_555
C16 C13 1_555 1_555
O3 C16 1_555 1_555
O4 C16 1_555 1_555
C17 N1 1_555 1_555
H13 C17 1_555 1_555
H14 C17 1_555 1_555
N2 Zn1 1_555 1_555
C18 N2 1_555 1_555
H15 C18 1_555 1_555
C19 C18 1_555 1_555
H16 C19 1_555 1_555
C20 C19 1_555 1_555
C21 C20 1_555 1_555
H17 C21 1_555 1_555
C22 N2 1_555 1_555
H18 C22 1_555 1_555
C23 C20 1_555 1_555
H19 C23 1_555 1_555
O5 Zn1 1_555 1_555
S1 O5 1_555 1_555
C24 S1 1_555 1_555
H20 C24 1_555 1_555
H21 C24 1_555 1_555
H22 C24 1_555 1_555
C25 S1 1_555 1_555
H23 C25 1_555 1_555
H24 C25 1_555 1_555
H25 C25 1_555 1_555
O1A C1A 1_555 1_555
C1A O2A 1_555 1_555
C2A C1A 1_555 1_555
C3A C2A 1_555 1_555
H1A C3A 1_555 1_555
C4A C3A 1_555 1_555
H2A C4A 1_555 1_555
C5A C4A 1_555 1_555
C6A C5A 1_555 1_555
H3A C6A 1_555 1_555
C7A C2A 1_555 1_555
H4A C7A 1_555 1_555
C8A C5A 1_555 1_555
H5A C8A 1_555 1_555
H6A C8A 1_555 1_555
N1A C8A 1_555 1_555
C9A N1A 1_555 1_555
H7A C9A 1_555 1_555
H8A C9A 1_555 1_555
C10A C9A 1_555 1_555
C11A C10A 1_555 1_555
H9A C11A 1_555 1_555
C12A C11A 1_555 1_555
H10A C12A 1_555 1_555
C13A C12A 1_555 1_555
C14A C13A 1_555 1_555
H11A C14A 1_555 1_555
C15A C10A 1_555 1_555
H12A C15A 1_555 1_555
C16A C13A 1_555 1_555
O3A C16A 1_555 1_555
O4A C16A 1_555 1_555
C17A C17 1_555 1_555
H13A C17A 1_555 1_555
H14A C17A 1_555 1_555
N2A C18A 1_555 1_555
C18A H15A 1_555 1_555
C19A C18A 1_555 1_555
H16A C19A 1_555 1_555
C20A C19A 1_555 1_555
C21A C20A 1_555 1_555
H17A C21A 1_555 1_555
C22A N2A 1_555 1_555
H18A C22A 1_555 1_555
C23A C23 1_555 1_555
H19A C23A 1_555 1_555
Zn1A O1A 1_555 1_555
O5A Zn1A 1_555 1_555
S1A O5A 1_555 1_555
C24A S1A 1_555 1_555
H20A C24A 1_555 1_555
H21A C24A 1_555 1_555
H22A C24A 1_555 1_555
C25A S1A 1_555 1_555
H23A C25A 1_555 1_555
H24A C25A 1_555 1_555
H25A C25A 1_555 1_555
Zn1_2 O4 1_555 1_555
Zn1A_2 O4A 1_555 1_555
Zn1A_3 N2A 1_555 1_555
O4_2 Zn1 1_555 1_555
O4A_2 Zn1A 1_555 1_555
N2A_2 Zn1A 1_555 1_555
C6 C7 1_555 1_555
C14 C15 1_555 1_555
C21 C22 1_555 1_555
C6A C7A 1_555 1_555
N1A C17A 1_555 1_555
C14A C15A 1_555 1_555
C20A C23A 1_555 1_555
C21A C22A 1_555 1_555

#END
