
#######################################################################
#
#                 Cambridge Crystallographic Data Centre
#                                CCDC 
#
#######################################################################
#
# If this CIF has been generated from an entry in the Cambridge 
# Structural Database, then it will include bibliographic, chemical, 
# crystal, experimental, refinement or atomic coordinate data resulting 
# from the CCDC's data processing and validation procedures.
#
#######################################################################

data_RUPSIG
_symmetry_cell_setting           orthorhombic
_symmetry_space_group_name_H-M   'P n m a'
_symmetry_Int_Tables_number      62
_space_group_name_Hall           '-P 2ac 2n'
loop_
_symmetry_equiv_pos_site_id
_symmetry_equiv_pos_as_xyz
1 x,y,z
2 1/2-x,-y,1/2+z
3 -x,1/2+y,-z
4 1/2+x,1/2-y,1/2-z
5 -x,-y,-z
6 1/2+x,y,1/2-z
7 x,1/2-y,z
8 1/2-x,1/2+y,1/2+z
_cell_length_a                   7.7017(3)
_cell_length_b                   22.7746(7)
_cell_length_c                   11.5195(4)
_cell_angle_alpha                90
_cell_angle_beta                 90
_cell_angle_gamma                90
_cell_volume                     2020.56
loop_
_atom_site_label
_atom_site_type_symbol
_atom_site_fract_x
_atom_site_fract_y
_atom_site_fract_z
C1 C 0.7728(5) 0.7500 0.6185(3)
H1 H 0.8935 0.7500 0.6208
C2 C 0.6850(3) 0.69793(12) 0.6169(2)
H2 H 0.7464 0.6628 0.6189
C3 C 0.5056(3) 0.69694(11) 0.6124(2)
C4 C 0.4230(3) 0.63794(11) 0.6143(2)
C5 C 0.4807(4) 0.59889(13) 0.6991(3)
H3 H 0.5611 0.6118 0.7538
C6 C 0.4227(4) 0.54206(13) 0.7044(3)
H4 H 0.4620 0.5173 0.7629
C7 C 0.3068(3) 0.52175(11) 0.6235(2)
C8 C 0.2435(3) 0.55996(11) 0.5408(2)
H5 H 0.1634 0.5465 0.4866
C9 C 0.2969(3) 0.61824(11) 0.5368(2)
C10 C 0.2125(3) 0.65672(10) 0.4474(2)
C11 C 0.2481(4) 0.45985(12) 0.6312(3)
C12 C 0.4187(5) 0.7500 0.6094(3)
H6 H 0.2981 0.7500 0.6053
Zn1 Zn 0.22071(5) 0.7500 0.26278(3)
O1 O 0.3048(2) 0.68852(7) 0.38402(14)
O2 O 0.0515(2) 0.65500(8) 0.44187(17)
O3 O 0.1525(3) 0.44334(9) 0.5430(2)
H7 H 0.1162 0.4100 0.5543
O4 O 0.2835(3) 0.42861(8) 0.7125(2)
O5 O -0.0408(3) 0.7500 0.3287(2)
O6 O 0.1476(2) 0.68339(7) 0.15486(17)
H8 H 0.175(4) 0.6507(6) 0.179(3)
H9 H 0.0475(18) 0.6859(13) 0.131(3)
H10 H -0.007(4) 0.7500 0.3961(10)
H11 H -0.1467(6) 0.7500 0.321(3)
C2F C 0.6850(3) 0.80207(12) 0.6169(2)
H2F H 0.7464 0.8372 0.6189
C3F C 0.5056(3) 0.80306(11) 0.6124(2)
C4F C 0.4230(3) 0.86206(11) 0.6143(2)
C5F C 0.4807(4) 0.90111(13) 0.6991(3)
H3F H 0.5611 0.8882 0.7538
C6F C 0.4227(4) 0.95794(13) 0.7044(3)
H4F H 0.4620 0.9827 0.7629
C7F C 0.3068(3) 0.97825(11) 0.6235(2)
C8F C 0.2435(3) 0.94004(11) 0.5408(2)
H5F H 0.1634 0.9535 0.4866
C9F C 0.2969(3) 0.88176(11) 0.5368(2)
C10F C 0.2125(3) 0.84328(10) 0.4474(2)
C11F C 0.2481(4) 1.04015(12) 0.6312(3)
O1F O 0.3048(2) 0.81148(7) 0.38402(14)
O2F O 0.0515(2) 0.84500(8) 0.44187(17)
O3F O 0.1525(3) 1.05666(9) 0.5430(2)
H7F H 0.1162 1.0900 0.5543
O4F O 0.2835(3) 1.07139(8) 0.7125(2)
O6F O 0.1476(2) 0.81661(7) 0.15486(17)
H8F H 0.175(4) 0.8493(6) 0.179(3)
H9F H 0.0475(18) 0.8141(13) 0.131(3)
Zn1C Zn -0.27929(5) 0.7500 0.23722(3)
O5C O 0.4592(3) 0.7500 0.1713(2)
loop_
_geom_bond_atom_site_label_1
_geom_bond_atom_site_label_2
_geom_bond_site_symmetry_1
_geom_bond_site_symmetry_2
C1 H1 1_555 1_555
C2 C1 1_555 1_555
H2 C2 1_555 1_555
C3 C2 1_555 1_555
C4 C3 1_555 1_555
C5 C4 1_555 1_555
H3 C5 1_555 1_555
C6 C5 1_555 1_555
H4 C6 1_555 1_555
C7 C6 1_555 1_555
C8 C7 1_555 1_555
H5 C8 1_555 1_555
C9 C4 1_555 1_555
C10 C9 1_555 1_555
C11 C7 1_555 1_555
C12 C3 1_555 1_555
H6 C12 1_555 1_555
Zn1 O1 1_555 1_555
O1 C10 1_555 1_555
O2 C10 1_555 1_555
O3 C11 1_555 1_555
H7 O3 1_555 1_555
O4 C11 1_555 1_555
O5 Zn1 1_555 1_555
O6 Zn1 1_555 1_555
H8 O6 1_555 1_555
H9 O6 1_555 1_555
H10 O5 1_555 1_555
H11 O5 1_555 1_555
C2F C1 1_555 1_555
H2F C2F 1_555 1_555
C3F C12 1_555 1_555
C4F C3F 1_555 1_555
C5F C4F 1_555 1_555
H3F C5F 1_555 1_555
C6F C5F 1_555 1_555
H4F C6F 1_555 1_555
C7F C6F 1_555 1_555
C8F C7F 1_555 1_555
H5F C8F 1_555 1_555
C9F C4F 1_555 1_555
C10F C9F 1_555 1_555
C11F C7F 1_555 1_555
O1F Zn1 1_555 1_555
O2F C10F 1_555 1_555
O3F C11F 1_555 1_555
H7F O3F 1_555 1_555
O4F C11F 1_555 1_555
O6F Zn1 1_555 1_555
H8F O6F 1_555 1_555
H9F O6F 1_555 1_555
Zn1C O5 1_555 1_555
O5C Zn1 1_555 1_555
C8 C9 1_555 1_555
C2F C3F 1_555 1_555
C8F C9F 1_555 1_555
C10F O1F 1_555 1_555

#END
