
#######################################################################
#
#                 Cambridge Crystallographic Data Centre
#                                CCDC 
#
#######################################################################
#
# If this CIF has been generated from an entry in the Cambridge 
# Structural Database, then it will include bibliographic, chemical, 
# crystal, experimental, refinement or atomic coordinate data resulting 
# from the CCDC's data processing and validation procedures.
#
#######################################################################

data_RUQSAX
_symmetry_cell_setting           triclinic
_symmetry_space_group_name_H-M   'P 1'
_symmetry_Int_Tables_number      1
_space_group_name_Hall           'P 1'
loop_
_symmetry_equiv_pos_site_id
_symmetry_equiv_pos_as_xyz
1 x,y,z
_cell_length_a                   4.798(1)
_cell_length_b                   6.752(1)
_cell_length_c                   8.304(1)
_cell_angle_alpha                66.66(1)
_cell_angle_beta                 86.63(1)
_cell_angle_gamma                79.44(1)
_cell_volume                     242.792
loop_
_atom_site_label
_atom_site_type_symbol
_atom_site_fract_x
_atom_site_fract_y
_atom_site_fract_z
O1 O 1.054(1) 0.209(1) 0.274(1)
O2 O 1.122(1) 0.551(1) 0.205(1)
O3 O 0.638(1) 0.248(1) 0.506(1)
O4 O 1.117(1) 0.300(1) 0.666(1)
O5 O 0.476(1) 0.711(1) 0.578(1)
O6 O 0.956(1) 0.821(1) 0.705(1)
O7 O 0.547(1) 0.843(1) 0.936(1)
O8 O 0.507(2) 0.493(1) 1.008(1)
O9 O 0.611(1) 1.002(1) 1.270(1)
C1 C 1.003(1) 0.388(1) 0.291(1)
C2 C 0.783(1) 0.426(1) 0.420(1)
C3 C 0.925(1) 0.484(1) 0.552(1)
C4 C 0.710(1) 0.548(1) 0.673(1)
C5 C 0.842(1) 0.627(2) 0.797(1)
C6 C 0.620(1) 0.665(1) 0.920(1)
K1 K 1.000 0.000 0.000
K1_2 K 1.000 1.000 0.000
O4_2 O 1.117(1) 1.300(1) 0.666(1)
K1_3 K 1.000 1.000 1.000
O1_2 O 1.054(1) 1.209(1) 1.274(1)
O2_2 O 1.122(1) 0.551(1) 1.205(1)
O7_2 O 1.547(1) 0.843(1) 0.936(1)
K1_4 K 1.000 0.000 1.000
K1_5 K 0.000 1.000 1.000
loop_
_geom_bond_atom_site_label_1
_geom_bond_atom_site_label_2
_geom_bond_site_symmetry_1
_geom_bond_site_symmetry_2
O1 C1 1_555 1_555
O2 C1 1_555 1_555
O3 C2 1_555 1_555
O4 C3 1_555 1_555
O5 C4 1_555 1_555
O6 C5 1_555 1_555
O7 C6 1_555 1_555
O8 C6 1_555 1_555
O9 K1_3 1_555 1_555
C1 C2 1_555 1_555
C2 C3 1_555 1_555
C3 C4 1_555 1_555
C4 C5 1_555 1_555
C5 C6 1_555 1_555
K1 O1 1_555 1_555
K1_2 O2 1_555 1_555
O4_2 K1_3 1_555 1_555
K1_3 O6 1_555 1_555
O1_2 K1_3 1_555 1_555
O2_2 K1_3 1_555 1_555
O7_2 K1_3 1_555 1_555
K1_4 O4 1_555 1_555
K1_5 O7 1_555 1_555
O7 K1_3 1_555 1_555

#END
