
#######################################################################
#
#                 Cambridge Crystallographic Data Centre
#                                CCDC 
#
#######################################################################
#
# If this CIF has been generated from an entry in the Cambridge 
# Structural Database, then it will include bibliographic, chemical, 
# crystal, experimental, refinement or atomic coordinate data resulting 
# from the CCDC's data processing and validation procedures.
#
#######################################################################

data_RURDUE
_symmetry_cell_setting           monoclinic
_symmetry_space_group_name_H-M   'P 21/c'
_symmetry_Int_Tables_number      14
_space_group_name_Hall           '-P 2ybc'
loop_
_symmetry_equiv_pos_site_id
_symmetry_equiv_pos_as_xyz
1 x,y,z
2 -x,1/2+y,1/2-z
3 -x,-y,-z
4 x,1/2-y,1/2+z
_cell_length_a                   11.453(3)
_cell_length_b                   17.850(4)
_cell_length_c                   20.519(4)
_cell_angle_alpha                90
_cell_angle_beta                 99.453(4)
_cell_angle_gamma                90
_cell_volume                     4137.86
loop_
_atom_site_label
_atom_site_type_symbol
_atom_site_fract_x
_atom_site_fract_y
_atom_site_fract_z
Fe1 Fe 0.58807(13) 0.69277(7) 1.09690(6)
Mn1 Mn 0.60445(14) 0.75573(8) 0.84658(6)
Cl1 Cl 0.1198(4) 0.9289(3) 1.0279(3)
O1 O 0.5667(8) 0.9174(5) 1.0949(4)
O2 O 0.3057(10) 0.5591(6) 1.0750(5)
N1 N 0.6105(7) 0.7051(4) 0.9489(4)
N2 N 0.5997(9) 0.8120(5) 0.7489(4)
N3 N 0.4290(9) 0.6623(7) 1.0782(4)
N4 N 0.5206(11) 0.7901(5) 1.0915(4)
N5 N 0.6197(12) 0.5834(5) 1.0952(4)
N6 N 0.7415(10) 0.7520(5) 1.1174(4)
N7 N 0.4110(13) 0.7325(10) 0.8174(6)
N8 N 0.5012(16) 0.8507(7) 0.8842(6)
N9 N 0.7402(13) 0.8464(7) 0.8897(6)
H3 H 0.7481 0.8781 0.8560
N10 N 0.7925(14) 0.7024(9) 0.8510(7)
H4 H 0.8040 0.6724 0.8874
N11 N 0.574(2) 0.6389(8) 0.7916(6)
C1 C 0.6056(8) 0.6970(5) 1.0034(5)
C2 C 0.5953(9) 0.8139(5) 0.6930(5)
C3 C 0.4023(14) 0.7912(8) 1.0749(6)
C4 C 0.3479(14) 0.7222(9) 1.0667(6)
C5 C 0.2239(18) 0.7168(11) 1.0468(7)
H5 H 0.1878 0.6700 1.0420
C6 C 0.1559(16) 0.7813(11) 1.0345(8)
H6 H 0.0747 0.7786 1.0200
C7 C 0.2117(18) 0.8485(10) 1.0442(9)
C8 C 0.3279(15) 0.8578(8) 1.0637(7)
H7 H 0.3606 0.9054 1.0700
C9 C 0.4068(16) 0.5897(10) 1.0798(6)
C10 C 0.5156(17) 0.5437(7) 1.0861(5)
C11 C 0.5112(18) 0.4680(9) 1.0797(5)
H8 H 0.4398 0.4421 1.0744
C12 C 0.618(2) 0.4312(8) 1.0816(6)
H9 H 0.6181 0.3795 1.0763
C13 C 0.7264(15) 0.4687(8) 1.0912(6)
H10 H 0.7981 0.4437 1.0930
C14 C 0.7199(16) 0.5486(7) 1.0980(5)
H11 H 0.7896 0.5762 1.1047
C15 C 0.8475(14) 0.7288(8) 1.1332(6)
H12 H 0.8605 0.6775 1.1376
C16 C 0.9454(13) 0.7767(10) 1.1441(7)
H13 H 1.0217 0.7577 1.1552
C17 C 0.9261(16) 0.8526(9) 1.1381(7)
H14 H 0.9894 0.8858 1.1433
C18 C 0.8123(14) 0.8785(7) 1.1244(5)
H15 H 0.7964 0.9296 1.1219
C19 C 0.7205(13) 0.8259(7) 1.1140(5)
C20 C 0.5944(13) 0.8500(7) 1.0986(5)
C21 C 0.372(2) 0.6700(12) 0.7836(7)
C22 C 0.265(3) 0.647(2) 0.7638(12)
H16 H 0.2483 0.6020 0.7414
C23 C 0.175(3) 0.697(3) 0.779(2)
H17 H 0.0958 0.6851 0.7669
C24 C 0.210(2) 0.7695(17) 0.8167(14)
H18 H 0.1551 0.8036 0.8274
C25 C 0.339(2) 0.7813(13) 0.8344(9)
C26 C 0.387(2) 0.8519(11) 0.8706(9)
C27 C 0.308(2) 0.9086(11) 0.8880(11)
H19 H 0.3514 0.9534 0.9015
H20 H 0.2703 0.8908 0.9237
H21 H 0.2482 0.9193 0.8504
C28 C 0.562(2) 0.9130(9) 0.9140(8)
H22 H 0.5247 0.9303 0.9506
H23 H 0.5597 0.9535 0.8823
C29 C 0.6869(19) 0.8901(9) 0.9385(7)
H24 H 0.7342 0.9347 0.9501
H25 H 0.6893 0.8604 0.9783
C30 C 0.852(2) 0.8177(14) 0.9129(10)
H26 H 0.8539 0.7951 0.9561
H27 H 0.9109 0.8572 0.9165
C31 C 0.8753(17) 0.7599(14) 0.8636(12)
H28 H 0.8800 0.7852 0.8222
H29 H 0.9522 0.7378 0.8790
C32 C 0.794(2) 0.6565(13) 0.7983(12)
H30 H 0.8656 0.6269 0.8048
H31 H 0.7920 0.6863 0.7586
C33 C 0.682(2) 0.6026(10) 0.7896(8)
H32 H 0.6771 0.5767 0.7477
H33 H 0.6946 0.5651 0.8243
C34 C 0.469(3) 0.6274(17) 0.7757(9)
C35 C 0.450(2) 0.5405(9) 0.7411(7)
H34 H 0.4301 0.5452 0.6940
H35 H 0.3865 0.5153 0.7577
H36 H 0.5213 0.5122 0.7523
Fe1C Fe 0.58807(13) 0.80723(7) 0.59690(6)
C2C C 0.5953(9) 0.6861(5) 1.1930(5)
Cl2 Cl 0.0430(5) 0.0451(3) 0.2293(3)
O3 O 0.025(2) 0.1059(11) 0.2611(12)
O4 O -0.0424(18) 0.0452(10) 0.1787(12)
O5 O 0.1568(17) 0.0454(16) 0.2156(14)
O6 O 0.0342(15) -0.0217(9) 0.2625(8)
O7 O 0.076(2) 0.434(3) 0.044(2)
H1 H 0.1481 0.4319 0.0426
H2 H 0.0545 0.3949 0.0642
loop_
_geom_bond_atom_site_label_1
_geom_bond_atom_site_label_2
_geom_bond_site_symmetry_1
_geom_bond_site_symmetry_2
Fe1 N3 1_555 1_555
Mn1 N1 1_555 1_555
Cl1 C7 1_555 1_555
Cl2 O3 1_555 1_555
O1 C20 1_555 1_555
O2 C9 1_555 1_555
O4 Cl2 1_555 1_555
O5 Cl2 1_555 1_555
O6 Cl2 1_555 1_555
O7 H1 1_555 1_555
H2 O7 1_555 1_555
N1 C1 1_555 1_555
N2 Mn1 1_555 1_555
N3 C4 1_555 1_555
N4 Fe1 1_555 1_555
N5 Fe1 1_555 1_555
N6 Fe1 1_555 1_555
N7 Mn1 1_555 1_555
N8 Mn1 1_555 1_555
N9 Mn1 1_555 1_555
H3 N9 1_555 1_555
N10 Mn1 1_555 1_555
H4 N10 1_555 1_555
N11 Mn1 1_555 1_555
C1 Fe1 1_555 1_555
C2 N2 1_555 1_555
C3 N4 1_555 1_555
C4 C3 1_555 1_555
C5 C4 1_555 1_555
H5 C5 1_555 1_555
C6 C5 1_555 1_555
H6 C6 1_555 1_555
C7 C6 1_555 1_555
C8 C3 1_555 1_555
H7 C8 1_555 1_555
C9 N3 1_555 1_555
C10 N5 1_555 1_555
C11 C10 1_555 1_555
H8 C11 1_555 1_555
C12 C11 1_555 1_555
H9 C12 1_555 1_555
C13 C12 1_555 1_555
H10 C13 1_555 1_555
C14 N5 1_555 1_555
H11 C14 1_555 1_555
C15 N6 1_555 1_555
H12 C15 1_555 1_555
C16 C15 1_555 1_555
H13 C16 1_555 1_555
C17 C16 1_555 1_555
H14 C17 1_555 1_555
C18 C17 1_555 1_555
H15 C18 1_555 1_555
C19 N6 1_555 1_555
C20 N4 1_555 1_555
C21 N7 1_555 1_555
C22 C21 1_555 1_555
H16 C22 1_555 1_555
C23 C22 1_555 1_555
H17 C23 1_555 1_555
C24 C23 1_555 1_555
H18 C24 1_555 1_555
C25 N7 1_555 1_555
C26 N8 1_555 1_555
C27 C26 1_555 1_555
H19 C27 1_555 1_555
H20 C27 1_555 1_555
H21 C27 1_555 1_555
C28 N8 1_555 1_555
H22 C28 1_555 1_555
H23 C28 1_555 1_555
C29 N9 1_555 1_555
H24 C29 1_555 1_555
H25 C29 1_555 1_555
C30 N9 1_555 1_555
H26 C30 1_555 1_555
H27 C30 1_555 1_555
C31 N10 1_555 1_555
H28 C31 1_555 1_555
H29 C31 1_555 1_555
C32 N10 1_555 1_555
H30 C32 1_555 1_555
H31 C32 1_555 1_555
C33 N11 1_555 1_555
H32 C33 1_555 1_555
H33 C33 1_555 1_555
C34 N11 1_555 1_555
C35 C34 1_555 1_555
H34 C35 1_555 1_555
H35 C35 1_555 1_555
H36 C35 1_555 1_555
Fe1C C2 1_555 1_555
C2C Fe1 1_555 1_555
C7 C8 1_555 1_555
C9 C10 1_555 1_555
C13 C14 1_555 1_555
C18 C19 1_555 1_555
C19 C20 1_555 1_555
C21 C34 1_555 1_555
C24 C25 1_555 1_555
C25 C26 1_555 1_555
C28 C29 1_555 1_555
C30 C31 1_555 1_555
C32 C33 1_555 1_555

#END
