
#######################################################################
#
#                 Cambridge Crystallographic Data Centre
#                                CCDC 
#
#######################################################################
#
# If this CIF has been generated from an entry in the Cambridge 
# Structural Database, then it will include bibliographic, chemical, 
# crystal, experimental, refinement or atomic coordinate data resulting 
# from the CCDC's data processing and validation procedures.
#
#######################################################################

data_RURXUY
_symmetry_cell_setting           triclinic
_symmetry_space_group_name_H-M   'P -1'
_symmetry_Int_Tables_number      2
_space_group_name_Hall           '-P 1'
loop_
_symmetry_equiv_pos_site_id
_symmetry_equiv_pos_as_xyz
1 x,y,z
2 -x,-y,-z
_cell_length_a                   10.094(4)
_cell_length_b                   12.516(4)
_cell_length_c                   12.983(5)
_cell_angle_alpha                109.117(5)
_cell_angle_beta                 93.146(5)
_cell_angle_gamma                105.765(4)
_cell_volume                     1472.69
loop_
_atom_site_label
_atom_site_type_symbol
_atom_site_fract_x
_atom_site_fract_y
_atom_site_fract_z
Co1 Co 0.13856(8) 0.42306(8) 0.05045(7)
O1 O 0.2395(4) 0.3331(4) 0.1412(3)
O2 O 0.3503(4) 0.4281(3) 0.0416(3)
O3 O 0.8621(4) 0.4925(4) 0.0573(3)
O4 O 0.9529(4) 0.3661(3) 0.1001(3)
O5 O 0.6757(4) 0.0808(4) 0.2434(4)
H1 H 0.6597 0.0281 0.2696
O6 O 0.4560(5) 0.0656(5) 0.2596(5)
N1 N 0.3568(5) 1.0966(5) 0.6863(5)
N2 N 0.1921(5) 0.5856(4) 0.1909(4)
N3 N 0.0700(5) 0.2563(5) -0.0854(5)
N4 N -0.1221(6) -0.3097(6) -0.5220(6)
C1 C 0.4124(7) 1.2248(6) 0.5849(6)
H2 H 0.4218 1.2343 0.5173
C2 C 0.4421(7) 1.3222(6) 0.6807(7)
H3 H 0.4703 1.3981 0.6775
C3 C 0.4310(6) 1.3091(6) 0.7797(6)
H4 H 0.4515 1.3740 0.8453
C4 C 0.3873(6) 1.1936(7) 0.7774(6)
H5 H 0.3785 1.1826 0.8444
C5 C 0.3683(6) 1.1130(6) 0.5908(6)
C6 C 0.3340(6) 1.0082(6) 0.4893(6)
H6 H 0.3568 1.0215 0.4252
C7 C 0.2739(6) 0.8964(6) 0.4795(5)
H7 H 0.2470 0.8831 0.5428
C8 C 0.2458(6) 0.7923(6) 0.3794(6)
C9 C 0.1863(7) 0.6799(6) 0.3827(6)
H8 H 0.1620 0.6710 0.4481
C10 C 0.1632(6) 0.5807(6) 0.2873(6)
H9 H 0.1250 0.5062 0.2918
C11 C 0.2477(6) 0.6946(6) 0.1890(6)
H10 H 0.2696 0.7015 0.1224
C12 C 0.2745(6) 0.7969(6) 0.2790(6)
H11 H 0.3126 0.8700 0.2717
C13 C 0.0403(7) 0.1358(7) -0.2743(6)
H12 H 0.0518 0.1326 -0.3458
C14 C 0.0800(6) 0.2441(6) -0.1890(6)
H13 H 0.1158 0.3122 -0.2056
C15 C 0.0140(8) 0.1563(7) -0.0657(6)
H14 H 0.0036 0.1628 0.0066
C16 C -0.0287(8) 0.0453(7) -0.1451(7)
H15 H -0.0658 -0.0212 -0.1264
C17 C -0.0161(7) 0.0329(7) -0.2550(7)
C18 C -0.0564(8) -0.0834(8) -0.3455(7)
H16 H -0.0324 -0.0854 -0.4141
C19 C -0.1234(8) -0.1838(7) -0.3360(7)
H17 H -0.1423 -0.1818 -0.2662
C20 C -0.1714(8) -0.2992(8) -0.4260(7)
C21 C -0.2702(9) -0.3902(8) -0.4125(7)
H18 H -0.3055 -0.3795 -0.3464
C22 C -0.3174(9) -0.4985(7) -0.4982(7)
H19 H -0.3839 -0.5620 -0.4901
C23 C -0.2660(9) -0.5117(7) -0.5947(7)
H20 H -0.2968 -0.5832 -0.6543
C24 C -0.1672(9) -0.4158(8) -0.6007(6)
H21 H -0.1286 -0.4258 -0.6653
C25 C 0.4723(6) 0.3259(5) 0.1189(5)
C26 C 0.5972(5) 0.3798(5) 0.0936(4)
H22 H 0.6039 0.4395 0.0646
C27 C 0.7149(5) 0.3452(5) 0.1115(4)
C28 C 0.7013(6) 0.2535(5) 0.1532(4)
H23 H 0.7775 0.2275 0.1628
C29 C 0.5768(6) 0.2017(5) 0.1799(5)
C30 C 0.4631(6) 0.2390(5) 0.1631(5)
H24 H 0.3788 0.2045 0.1822
C31 C 0.3456(6) 0.3637(5) 0.0993(5)
C32 C 0.8535(6) 0.4049(5) 0.0877(5)
C33 C 0.5621(7) 0.1101(6) 0.2307(6)
Co1A Co 0.86144(8) 0.57694(8) -0.05045(7)
Co1_2 Co 1.13856(8) 0.42306(8) 0.05045(7)
O3A O 0.1379(4) 0.5075(4) -0.0573(3)
O4_2 O -0.0471(4) 0.3661(3) 0.1001(3)
loop_
_geom_bond_atom_site_label_1
_geom_bond_atom_site_label_2
_geom_bond_site_symmetry_1
_geom_bond_site_symmetry_2
Co1 O1 1_555 1_555
O1 C31 1_555 1_555
O2 Co1 1_555 1_555
O3 C32 1_555 1_555
O4 C32 1_555 1_555
O5 H1 1_555 1_555
O6 C33 1_555 1_555
N1 C4 1_555 1_555
N2 Co1 1_555 1_555
N3 Co1 1_555 1_555
N4 C20 1_555 1_555
C1 H2 1_555 1_555
C2 C1 1_555 1_555
H3 C2 1_555 1_555
C3 C2 1_555 1_555
H4 C3 1_555 1_555
C4 C3 1_555 1_555
H5 C4 1_555 1_555
C5 N1 1_555 1_555
C6 C5 1_555 1_555
H6 C6 1_555 1_555
C7 C6 1_555 1_555
H7 C7 1_555 1_555
C8 C7 1_555 1_555
C9 C8 1_555 1_555
H8 C9 1_555 1_555
C10 N2 1_555 1_555
H9 C10 1_555 1_555
C11 N2 1_555 1_555
H10 C11 1_555 1_555
C12 C8 1_555 1_555
H11 C12 1_555 1_555
C13 H12 1_555 1_555
C14 N3 1_555 1_555
H13 C14 1_555 1_555
C15 N3 1_555 1_555
H14 C15 1_555 1_555
C16 C15 1_555 1_555
H15 C16 1_555 1_555
C17 C13 1_555 1_555
C18 C17 1_555 1_555
H16 C18 1_555 1_555
C19 C18 1_555 1_555
H17 C19 1_555 1_555
C20 C19 1_555 1_555
C21 C20 1_555 1_555
H18 C21 1_555 1_555
C22 C21 1_555 1_555
H19 C22 1_555 1_555
C23 C22 1_555 1_555
H20 C23 1_555 1_555
C24 N4 1_555 1_555
H21 C24 1_555 1_555
C25 C26 1_555 1_555
C26 H22 1_555 1_555
C27 C26 1_555 1_555
C28 C27 1_555 1_555
H23 C28 1_555 1_555
C29 C28 1_555 1_555
C30 C25 1_555 1_555
H24 C30 1_555 1_555
C31 O2 1_555 1_555
C32 C27 1_555 1_555
C33 O5 1_555 1_555
Co1A O3 1_555 1_555
Co1_2 O4 1_555 1_555
O3A Co1 1_555 1_555
O4_2 Co1 1_555 1_555
C1 C5 1_555 1_555
C9 C10 1_555 1_555
C11 C12 1_555 1_555
C13 C14 1_555 1_555
C16 C17 1_555 1_555
C23 C24 1_555 1_555
C25 C31 1_555 1_555
C29 C30 1_555 1_555
C29 C33 1_555 1_555

#END
