
#######################################################################
#
#                 Cambridge Crystallographic Data Centre
#                                CCDC 
#
#######################################################################
#
# If this CIF has been generated from an entry in the Cambridge 
# Structural Database, then it will include bibliographic, chemical, 
# crystal, experimental, refinement or atomic coordinate data resulting 
# from the CCDC's data processing and validation procedures.
#
#######################################################################

data_RUSPUS
_symmetry_cell_setting           triclinic
_symmetry_space_group_name_H-M   'P -1'
_symmetry_Int_Tables_number      2
_space_group_name_Hall           '-P 1'
loop_
_symmetry_equiv_pos_site_id
_symmetry_equiv_pos_as_xyz
1 x,y,z
2 -x,-y,-z
_cell_length_a                   11.2143(6)
_cell_length_b                   14.1588(7)
_cell_length_c                   16.1350(8)
_cell_angle_alpha                109.045(9)
_cell_angle_beta                 94.266(8)
_cell_angle_gamma                99.948(9)
_cell_volume                     2361.65
loop_
_atom_site_label
_atom_site_type_symbol
_atom_site_fract_x
_atom_site_fract_y
_atom_site_fract_z
Er1 Er 0.93220(2) 0.79345(2) 0.95547(2)
Er2 Er 1.40944(2) 0.79593(2) 1.44660(2)
S1 S 0.92227(12) 0.70856(11) 1.41349(10)
S2 S 1.44484(12) 0.71296(12) 0.91063(10)
S3 S 1.22035(13) 0.93993(11) 1.23795(10)
O1 O 1.2495(3) 0.8799(3) 1.5104(3)
O2 O 1.7151(3) 0.7350(3) 0.9062(3)
O3 O 1.3880(4) 0.9068(3) 1.3751(3)
N1 N 1.3775(4) 0.6058(3) 1.4039(3)
O4 O 1.4933(4) 1.0674(3) 1.4332(3)
O5 O 1.0352(4) 0.9166(3) 1.0851(3)
N2 N 0.8915(4) 0.6015(3) 0.9062(3)
O6 O 0.6050(4) 0.7803(4) 1.4539(3)
O7 O 1.0665(4) 1.0817(3) 1.1006(3)
O8 O 1.7718(4) 0.8774(3) 1.0204(3)
O9 O 1.1781(4) 0.6356(4) 0.8769(3)
N3 N 1.3574(4) 0.7295(4) 1.5672(3)
O10 O 1.1269(4) 0.7787(4) 0.9576(3)
N4 N 1.4255(4) 0.7005(4) 1.2865(3)
O11 O 1.1926(3) 0.7299(3) 1.4043(3)
O12 O 0.6553(4) 0.6323(3) 1.3799(3)
N5 N 0.9446(4) 0.7008(4) 0.7931(3)
C1 C 1.4120(5) 0.9990(4) 1.3797(3)
N6 N 0.8777(5) 0.7207(4) 1.0723(3)
C2 C 1.3377(5) 1.0262(4) 1.3142(4)
C3 C 1.0903(4) 1.0073(4) 1.1200(3)
C4 C 1.3347(5) 0.7774(5) 0.9548(4)
C5 C 0.9039(5) 0.5432(4) 0.8238(4)
C6 C 1.1915(5) 1.0312(4) 1.1943(4)
C7 C 1.1659(5) 0.8064(4) 1.4616(4)
C8 C 1.4139(5) 0.5980(4) 1.2570(4)
C9 C 1.3906(5) 0.5463(4) 1.3232(4)
C10 C 0.8634(5) 0.5542(4) 0.9645(4)
C11 C 0.8127(5) 0.7743(5) 1.4571(4)
C12 C 0.8439(5) 0.6201(5) 1.0534(4)
C13 C 1.3370(5) 0.6284(5) 1.5533(4)
C14 C 0.6818(5) 0.7231(5) 1.4272(4)
C15 C 0.8933(6) 0.4379(5) 0.7986(5)
H1 H 0.9004 0.3993 0.7409
C16 C 0.9297(5) 0.5989(5) 0.7614(4)
C17 C 1.3532(7) 0.4579(5) 1.4480(5)
H2 H 1.3422 0.4293 1.4919
C18 C 1.3561(5) 0.5620(4) 1.4661(4)
C19 C 1.0380(5) 0.8107(4) 1.4721(4)
C20 C 1.5600(5) 0.8144(5) 0.9734(4)
C21 C 1.3668(7) 0.3989(5) 1.3642(5)
H3 H 1.3647 0.3295 1.3510
C22 C 1.2029(5) 0.7246(5) 0.9266(4)
C23 C 0.9697(6) 0.7525(6) 0.7381(4)
H4 H 0.9813 0.8233 0.7602
C24 C 1.6887(5) 0.8089(5) 0.9664(4)
C25 C 1.4517(7) 0.7497(6) 1.2293(5)
H5 H 1.4604 0.8204 1.2488
C26 C 0.9931(6) 0.8905(5) 1.5229(5)
H6 H 1.0425 0.9520 1.5596
C27 C 1.2694(6) 1.1223(5) 1.2363(4)
H7 H 1.2679 1.1802 1.2211
C28 C 1.3386(6) 0.7922(6) 1.6461(4)
H8 H 1.3527 0.8620 1.6562
C29 C 1.3834(6) 0.4420(5) 1.3002(5)
H9 H 1.3897 0.4022 1.2427
C30 C 1.4663(8) 0.6993(7) 1.1425(5)
H10 H 1.4857 0.7357 1.1049
C31 C 0.9591(8) 0.6005(7) 0.6165(5)
H11 H 0.9622 0.5670 0.5569
C32 C 1.4254(7) 0.5430(6) 1.1702(5)
H12 H 1.4154 0.4723 1.1510
C33 C 0.8628(7) 0.7825(6) 1.1523(4)
H13 H 0.8880 0.8527 1.1665
C34 C 0.8646(5) 0.8706(5) 1.5144(5)
H14 H 0.8200 0.9175 1.5442
C35 C 0.8720(7) 0.3917(5) 0.8613(5)
H15 H 0.8688 0.3221 0.8470
C36 C 1.2793(7) 0.6553(7) 1.6978(5)
H16 H 1.2536 0.6301 1.7415
C37 C 1.3850(6) 0.8713(5) 1.0152(5)
H17 H 1.3392 0.9165 1.0460
C38 C 1.2977(7) 0.5894(6) 1.6175(5)
H18 H 1.2840 0.5195 1.6065
C39 C 0.9793(7) 0.7054(6) 0.6502(4)
H19 H 0.9991 0.7438 0.6143
C40 C 1.3525(6) 1.1203(5) 1.3050(4)
H20 H 1.4113 1.1768 1.3405
C41 C 1.5134(5) 0.8928(5) 1.0262(5)
H21 H 1.5617 0.9536 1.0651
C42 C 0.9338(6) 0.5451(6) 0.6726(4)
H22 H 0.9200 0.4741 0.6513
C43 C 0.7912(6) 0.5785(6) 1.1124(5)
H23 H 0.7680 0.5080 1.0974
C44 C 1.2994(7) 0.7580(6) 1.7125(5)
H24 H 1.2870 0.8036 1.7659
C45 C 0.8117(8) 0.7465(6) 1.2147(5)
H25 H 0.8031 0.7913 1.2697
C46 C 0.8557(6) 0.4491(5) 0.9438(5)
H26 H 0.8397 0.4188 0.9861
C47 C 1.4519(8) 0.5955(7) 1.1129(5)
H27 H 1.4599 0.5603 1.0546
C48 C 0.7740(8) 0.6424(7) 1.1929(5)
H28 H 0.7372 0.6158 1.2326
Er1_2 Er 1.93220(2) 0.79345(2) 0.95547(2)
Er1A Er 1.06780(2) 1.20655(2) 1.04453(2)
Er2_2 Er 0.40944(2) 0.79593(2) 1.44660(2)
Er2A Er 1.59056(2) 1.20407(2) 1.55340(2)
O2_2 O 0.7151(3) 0.7350(3) 0.9062(3)
O4A O 1.5067(4) 0.9326(3) 1.5668(3)
O6_2 O 1.6050(4) 0.7803(4) 1.4539(3)
O7A O 0.9335(4) 0.9183(3) 0.8994(3)
O8_2 O 0.7718(4) 0.8774(3) 1.0204(3)
O13 O 0.2919(10) 0.0565(7) 0.6574(7)
O14 O 0.2114(13) 0.9701(10) 0.8082(11)
loop_
_geom_bond_atom_site_label_1
_geom_bond_atom_site_label_2
_geom_bond_site_symmetry_1
_geom_bond_site_symmetry_2
Er1 O5 1_555 1_555
Er2 O1 1_555 1_555
S1 C11 1_555 1_555
S2 C4 1_555 1_555
S3 C2 1_555 1_555
O1 C7 1_555 1_555
O2 C24 1_555 1_555
O3 Er2 1_555 1_555
N1 Er2 1_555 1_555
O4 C1 1_555 1_555
O5 C3 1_555 1_555
N2 Er1 1_555 1_555
O6 C14 1_555 1_555
O7 C3 1_555 1_555
O8 C24 1_555 1_555
O9 C22 1_555 1_555
N3 Er2 1_555 1_555
O10 Er1 1_555 1_555
N4 Er2 1_555 1_555
O11 Er2 1_555 1_555
O12 C14 1_555 1_555
N5 Er1 1_555 1_555
C1 O3 1_555 1_555
N6 Er1 1_555 1_555
C2 C1 1_555 1_555
C3 C6 1_555 1_555
C4 C22 1_555 1_555
C5 N2 1_555 1_555
C6 S3 1_555 1_555
C7 O11 1_555 1_555
C8 N4 1_555 1_555
C9 N1 1_555 1_555
C10 N2 1_555 1_555
C11 C14 1_555 1_555
C12 N6 1_555 1_555
C13 N3 1_555 1_555
C15 C5 1_555 1_555
H1 C15 1_555 1_555
C16 N5 1_555 1_555
C17 H2 1_555 1_555
C18 N1 1_555 1_555
C19 S1 1_555 1_555
C20 S2 1_555 1_555
C21 C17 1_555 1_555
H3 C21 1_555 1_555
C22 O10 1_555 1_555
C23 N5 1_555 1_555
H4 C23 1_555 1_555
C24 C20 1_555 1_555
C25 N4 1_555 1_555
H5 C25 1_555 1_555
C26 C19 1_555 1_555
H6 C26 1_555 1_555
C27 C6 1_555 1_555
H7 C27 1_555 1_555
C28 N3 1_555 1_555
H8 C28 1_555 1_555
C29 C9 1_555 1_555
H9 C29 1_555 1_555
C30 C25 1_555 1_555
H10 C30 1_555 1_555
C31 H11 1_555 1_555
C32 C8 1_555 1_555
H12 C32 1_555 1_555
C33 N6 1_555 1_555
H13 C33 1_555 1_555
C34 C11 1_555 1_555
H14 C34 1_555 1_555
C35 C15 1_555 1_555
H15 C35 1_555 1_555
C36 H16 1_555 1_555
C37 C4 1_555 1_555
H17 C37 1_555 1_555
C38 C13 1_555 1_555
H18 C38 1_555 1_555
C39 C23 1_555 1_555
H19 C39 1_555 1_555
C40 C2 1_555 1_555
H20 C40 1_555 1_555
C41 C20 1_555 1_555
H21 C41 1_555 1_555
C42 C16 1_555 1_555
H22 C42 1_555 1_555
C43 C12 1_555 1_555
H23 C43 1_555 1_555
C44 C28 1_555 1_555
H24 C44 1_555 1_555
C45 C33 1_555 1_555
H25 C45 1_555 1_555
C46 C10 1_555 1_555
H26 C46 1_555 1_555
C47 C30 1_555 1_555
H27 C47 1_555 1_555
C48 C43 1_555 1_555
H28 C48 1_555 1_555
Er1_2 O2 1_555 1_555
Er1A O7 1_555 1_555
Er2_2 O6 1_555 1_555
Er2A O4 1_555 1_555
O2_2 Er1 1_555 1_555
O4A Er2 1_555 1_555
O6_2 Er2 1_555 1_555
O7A Er1 1_555 1_555
O8_2 Er1 1_555 1_555
O8 Er1_2 1_555 1_555
C5 C16 1_555 1_555
C7 C19 1_555 1_555
C8 C9 1_555 1_555
C10 C12 1_555 1_555
C13 C18 1_555 1_555
C17 C18 1_555 1_555
C21 C29 1_555 1_555
C26 C34 1_555 1_555
C27 C40 1_555 1_555
C31 C39 1_555 1_555
C31 C42 1_555 1_555
C32 C47 1_555 1_555
C35 C46 1_555 1_555
C36 C38 1_555 1_555
C36 C44 1_555 1_555
C37 C41 1_555 1_555
C45 C48 1_555 1_555

#END
