
#######################################################################
#
#                 Cambridge Crystallographic Data Centre
#                                CCDC 
#
#######################################################################
#
# If this CIF has been generated from an entry in the Cambridge 
# Structural Database, then it will include bibliographic, chemical, 
# crystal, experimental, refinement or atomic coordinate data resulting 
# from the CCDC's data processing and validation procedures.
#
#######################################################################

data_RUSPIG
_symmetry_cell_setting           triclinic
_symmetry_space_group_name_H-M   'P -1'
_symmetry_Int_Tables_number      2
_space_group_name_Hall           '-P 1'
loop_
_symmetry_equiv_pos_site_id
_symmetry_equiv_pos_as_xyz
1 x,y,z
2 -x,-y,-z
_cell_length_a                   10.007(5)
_cell_length_b                   14.298(6)
_cell_length_c                   18.414(6)
_cell_angle_alpha                109.983(5)
_cell_angle_beta                 99.963(4)
_cell_angle_gamma                99.123(4)
_cell_volume                     2370.32
loop_
_atom_site_label
_atom_site_type_symbol
_atom_site_fract_x
_atom_site_fract_y
_atom_site_fract_z
Dy1 Dy 0.46477(2) 0.79166(2) 0.44024(2)
Dy2 Dy 0.95066(2) 0.80405(2) 0.94028(2)
S1 S 0.14733(11) 0.71692(8) 0.67750(6)
S2 S 0.64877(11) 0.70455(8) 0.17350(6)
S3 S 0.74184(12) 0.93576(8) 0.71944(6)
O1 O 0.0075(3) 0.7362(2) 0.81076(16)
O2 O 0.5001(3) 0.7292(2) 0.30550(16)
O3 O 0.9011(3) 0.7604(2) 0.04504(17)
O4 O 0.1356(3) 0.8878(2) 0.89329(16)
N1 N 0.4136(3) 0.5972(2) 0.39537(18)
N2 N 0.2135(3) 0.6950(3) 0.3661(2)
N3 N 0.9126(3) 0.6101(2) 0.89432(18)
O5 O 0.6435(3) 0.8734(2) 0.39086(17)
N4 N 0.7044(3) 0.7007(3) 0.86563(19)
O6 O 0.7333(3) 0.6233(2) 0.02368(17)
O7 O 0.2340(3) 0.6373(2) 0.52741(18)
N5 N 0.6715(4) 0.7188(3) 0.4699(2)
O8 O 0.3688(4) 0.7844(3) 0.53997(19)
N6 N 1.1686(4) 0.7385(3) 0.9673(2)
O9 O 0.9056(3) 1.0576(2) 0.95078(15)
O10 O 0.6104(3) 0.9185(2) 0.55483(16)
O11 O 0.6232(3) 1.0846(2) 0.58505(17)
C1 C 0.6379(4) 1.0087(3) 0.6034(2)
C2 C 0.6046(4) 0.8033(3) 0.3231(2)
C3 C 0.1027(4) 0.8144(3) 0.8263(2)
C4 C 0.8604(4) 0.9894(3) 0.8826(2)
C5 C 0.7838(4) 0.5493(3) 0.8613(2)
C6 C 0.6710(4) 0.5984(3) 0.8401(2)
C7 C 0.2834(4) 0.5395(3) 0.3595(2)
C8 C 0.1788(4) 0.8203(3) 0.7655(2)
C9 C 0.1747(4) 0.5919(3) 0.3395(2)
C10 C 0.5150(4) 0.5520(3) 0.4132(2)
C11 C 0.2670(4) 0.7820(4) 0.6443(2)
C12 C 0.6838(4) 0.8061(3) 0.2626(2)
C13 C 0.8056(4) 0.7100(3) 0.0639(2)
C14 C 1.1595(4) 0.6373(3) 0.9477(2)
C15 C 0.7801(4) 0.7639(3) 0.1442(2)
C16 C 0.2904(4) 0.7284(4) 0.5638(2)
C17 C 0.6583(4) 0.6174(3) 0.4473(2)
C18 C 0.7991(4) 1.0202(3) 0.8163(2)
C19 C 0.7558(5) 0.4451(3) 0.8473(3)
H1 H 0.6664 0.4038 0.8224
C20 C 1.0175(5) 0.5689(3) 0.9145(2)
C21 C 0.5386(5) 0.5407(4) 0.7941(3)
H2 H 0.5185 0.4696 0.7759
C22 C 0.6042(5) 0.7473(4) 0.8482(3)
H3 H 0.6263 0.8184 0.8666
C23 C 0.2781(5) 0.8999(3) 0.7688(3)
H4 H 0.3096 0.9620 0.8122
C24 C 0.8463(5) 0.8583(3) 0.2011(3)
H5 H 0.9197 0.9020 0.1956
C25 C 0.2507(5) 0.4342(3) 0.3424(3)
H6 H 0.1601 0.3954 0.3169
C26 C 0.7261(5) 1.1207(3) 0.7507(2)
H7 H 0.7084 1.1806 0.7460
C27 C 0.0392(5) 0.5382(4) 0.2957(3)
H8 H 0.0148 0.4670 0.2770
C28 C 0.1156(5) 0.7448(4) 0.3523(3)
H9 H 0.1407 0.8160 0.3719
C29 C 0.3274(5) 0.8777(4) 0.6994(3)
H10 H 0.3947 0.9240 0.6918
C30 C 0.6976(4) 1.0302(3) 0.6885(2)
C31 C 0.7912(5) 0.8825(3) 0.2693(3)
H11 H 0.8246 0.9435 0.3135
C32 C 1.2796(5) 0.5988(4) 0.9568(3)
H12 H 1.2713 0.5289 0.9432
C33 C 0.8630(6) 0.4050(3) 0.8710(3)
H13 H 0.8465 0.3363 0.8644
C34 C 0.4880(5) 0.4477(3) 0.4002(3)
H14 H 0.5592 0.4188 0.4157
C35 C 0.7853(5) 1.1147(3) 0.8231(3)
H15 H 0.8125 1.1707 0.8714
C36 C 0.8007(5) 0.7806(4) 0.5007(3)
H16 H 0.8097 0.8509 0.5168
C37 C 1.2961(5) 0.8013(4) 0.9957(3)
H17 H 1.3035 0.8712 1.0096
C38 C 0.9949(5) 0.4669(3) 0.9047(3)
H18 H 1.0687 0.4405 0.9208
C39 C 0.7754(5) 0.5769(4) 0.4548(3)
H19 H 0.7654 0.5065 0.4387
C40 C 0.3539(5) 0.3887(3) 0.3640(3)
H20 H 0.3336 0.3191 0.3542
C41 C 0.9190(5) 0.7452(4) 0.5095(3)
H21 H 1.0065 0.7902 0.5308
C42 C 0.4376(5) 0.5899(4) 0.7759(3)
H22 H 0.3489 0.5526 0.7450
C43 C 0.4702(5) 0.6952(4) 0.8043(3)
H23 H 0.4033 0.7305 0.7941
C44 C -0.0208(5) 0.6962(4) 0.3103(3)
H24 H -0.0859 0.7337 0.3024
O12 O 0.8581(3) 0.8968(2) 0.86506(17)
O13 O 0.7872(3) 0.9038(2) 1.01177(18)
C45 C 1.4087(5) 0.6645(4) 0.9856(3)
H25 H 1.4889 0.6400 0.9918
C46 C 0.9056(5) 0.6419(4) 0.4863(3)
H26 H 0.9845 0.6158 0.4918
C47 C 1.4175(5) 0.7672(4) 1.0052(3)
H27 H 1.5041 0.8135 1.0248
C48 C -0.0577(5) 0.5913(5) 0.2806(3)
H28 H -0.1478 0.5565 0.2504
Dy1A Dy 0.53523(2) 1.20834(2) 0.55976(2)
Dy2_2 Dy -0.04934(2) 0.80405(2) 0.94028(2)
Dy2_3 Dy 0.95066(2) 0.80405(2) -0.05972(2)
Dy2A Dy 1.04934(2) 1.19595(2) 1.05972(2)
O1_2 O 1.0075(3) 0.7362(2) 0.81076(16)
O3_2 O 0.9011(3) 0.7604(2) 1.04504(17)
O4_2 O 1.1356(3) 0.8878(2) 0.89329(16)
O9A O 1.0944(3) 0.9424(2) 1.04922(15)
O11A O 0.3768(3) 0.9154(2) 0.41495(17)
O14 O 0.8659(9) 1.0429(5) 0.4783(5)
loop_
_geom_bond_atom_site_label_1
_geom_bond_atom_site_label_2
_geom_bond_site_symmetry_1
_geom_bond_site_symmetry_2
Dy1 O2 1_555 1_555
Dy2 N3 1_555 1_555
S1 C8 1_555 1_555
S2 C12 1_555 1_555
S3 C18 1_555 1_555
O1 C3 1_555 1_555
O2 C2 1_555 1_555
O3 C13 1_555 1_555
O4 C3 1_555 1_555
N1 Dy1 1_555 1_555
N2 Dy1 1_555 1_555
N3 C5 1_555 1_555
O5 Dy1 1_555 1_555
N4 Dy2 1_555 1_555
O6 C13 1_555 1_555
O7 C16 1_555 1_555
N5 Dy1 1_555 1_555
O8 Dy1 1_555 1_555
N6 Dy2 1_555 1_555
O9 C4 1_555 1_555
O10 Dy1 1_555 1_555
O11 C1 1_555 1_555
C1 O10 1_555 1_555
C2 O5 1_555 1_555
C3 C8 1_555 1_555
C4 C18 1_555 1_555
C5 C6 1_555 1_555
C6 N4 1_555 1_555
C7 N1 1_555 1_555
C8 C23 1_555 1_555
C9 N2 1_555 1_555
C10 N1 1_555 1_555
C11 S1 1_555 1_555
C12 C2 1_555 1_555
C13 C15 1_555 1_555
C14 N6 1_555 1_555
C15 S2 1_555 1_555
C16 O8 1_555 1_555
C17 N5 1_555 1_555
C18 C35 1_555 1_555
C19 C5 1_555 1_555
H1 C19 1_555 1_555
C20 N3 1_555 1_555
C21 C6 1_555 1_555
H2 C21 1_555 1_555
C22 N4 1_555 1_555
H3 C22 1_555 1_555
C23 H4 1_555 1_555
C24 C15 1_555 1_555
H5 C24 1_555 1_555
C25 C7 1_555 1_555
H6 C25 1_555 1_555
C26 H7 1_555 1_555
C27 C9 1_555 1_555
H8 C27 1_555 1_555
C28 N2 1_555 1_555
H9 C28 1_555 1_555
C29 C11 1_555 1_555
H10 C29 1_555 1_555
C30 S3 1_555 1_555
C31 C12 1_555 1_555
H11 C31 1_555 1_555
C32 C14 1_555 1_555
H12 C32 1_555 1_555
C33 C19 1_555 1_555
H13 C33 1_555 1_555
C34 C10 1_555 1_555
H14 C34 1_555 1_555
C35 C26 1_555 1_555
H15 C35 1_555 1_555
C36 N5 1_555 1_555
H16 C36 1_555 1_555
C37 N6 1_555 1_555
H17 C37 1_555 1_555
C38 C20 1_555 1_555
H18 C38 1_555 1_555
C39 C17 1_555 1_555
H19 C39 1_555 1_555
C40 C25 1_555 1_555
H20 C40 1_555 1_555
C41 C36 1_555 1_555
H21 C41 1_555 1_555
C42 C21 1_555 1_555
H22 C42 1_555 1_555
C43 C22 1_555 1_555
H23 C43 1_555 1_555
C44 C28 1_555 1_555
H24 C44 1_555 1_555
O12 Dy2 1_555 1_555
O13 Dy2 1_555 1_555
C45 C32 1_555 1_555
H25 C45 1_555 1_555
C46 C39 1_555 1_555
H26 C46 1_555 1_555
C47 C37 1_555 1_555
H27 C47 1_555 1_555
C48 C27 1_555 1_555
H28 C48 1_555 1_555
Dy1A O11 1_555 1_555
Dy2_2 O1 1_555 1_555
Dy2_3 O3 1_555 1_555
Dy2A O9 1_555 1_555
O1_2 Dy2 1_555 1_555
O3_2 Dy2 1_555 1_555
O4_2 Dy2 1_555 1_555
O9A Dy2 1_555 1_555
O11A Dy1 1_555 1_555
O4 Dy2_2 1_555 1_555
C1 C30 1_555 1_555
C4 O12 1_555 1_555
C7 C9 1_555 1_555
C10 C17 1_555 1_555
C11 C16 1_555 1_555
C14 C20 1_555 1_555
C23 C29 1_555 1_555
C24 C31 1_555 1_555
C26 C30 1_555 1_555
C33 C38 1_555 1_555
C34 C40 1_555 1_555
C41 C46 1_555 1_555
C42 C43 1_555 1_555
C44 C48 1_555 1_555
C45 C47 1_555 1_555

#END
