
#######################################################################
#
#                 Cambridge Crystallographic Data Centre
#                                CCDC 
#
#######################################################################
#
# If this CIF has been generated from an entry in the Cambridge 
# Structural Database, then it will include bibliographic, chemical, 
# crystal, experimental, refinement or atomic coordinate data resulting 
# from the CCDC's data processing and validation procedures.
#
#######################################################################

data_RUSQOM01
_symmetry_cell_setting           monoclinic
_symmetry_space_group_name_H-M   'P 21/n'
_symmetry_Int_Tables_number      14
_space_group_name_Hall           '-P 2yn'
loop_
_symmetry_equiv_pos_site_id
_symmetry_equiv_pos_as_xyz
1 x,y,z
2 1/2-x,1/2+y,1/2-z
3 -x,-y,-z
4 1/2+x,1/2-y,1/2+z
_cell_length_a                   8.061(2)
_cell_length_b                   8.598(3)
_cell_length_c                   10.932(3)
_cell_angle_alpha                90
_cell_angle_beta                 91.951(11)
_cell_angle_gamma                90
_cell_volume                     757.241
loop_
_atom_site_label
_atom_site_type_symbol
_atom_site_fract_x
_atom_site_fract_y
_atom_site_fract_z
Cd1 Cd 0.24251(3) 0.52237(3) 0.292530(18)
O1 O 0.2466(3) 0.2339(3) 0.34052(18)
O2 O -0.0412(3) 0.5044(2) 0.30934(18)
H1 H -0.0934(8) 0.4990(14) 0.3754(3)
H2 H -0.0901(9) 0.5759(5) 0.2685(5)
O3 O 0.2729(3) 0.4023(3) 0.49026(19)
O4 O 0.5259(3) 0.5177(2) 0.3040(2)
H3 H 0.6293(4) 0.5000(11) 0.3109(13)
H4 H 0.5178(12) 0.5929(5) 0.2539(5)
N1 N 0.1937(5) -0.1252(3) 0.5947(3)
N2 N 0.1769(5) -0.2644(4) 0.5354(3)
N3 N 0.2178(4) -0.2477(3) 0.4217(2)
N4 N 0.2574(3) -0.0975(3) 0.4046(2)
C1 C 0.2433(5) -0.0261(3) 0.5130(3)
C2 C 0.2766(6) 0.1375(4) 0.5491(3)
H5 H 0.3881 0.1420 0.5852
H6 H 0.2011 0.1640 0.6131
C3 C 0.2624(4) 0.2648(4) 0.4512(3)
Cd1A Cd 0.25749(3) 0.02237(3) 0.207470(18)
Cd1_2 Cd 0.24251(3) -0.47763(3) 0.292530(18)
O1A O 0.2534(3) 0.7339(3) 0.15948(18)
N3_2 N 0.2178(4) 0.7523(3) 0.4217(2)
N4A N 0.2426(3) 0.4025(3) 0.0954(2)
loop_
_geom_bond_atom_site_label_1
_geom_bond_atom_site_label_2
_geom_bond_site_symmetry_1
_geom_bond_site_symmetry_2
Cd1 O1 1_555 1_555
O1 C3 1_555 1_555
O2 Cd1 1_555 1_555
H1 O2 1_555 1_555
H2 O2 1_555 1_555
O3 Cd1 1_555 1_555
O4 Cd1 1_555 1_555
H3 O4 1_555 1_555
H4 O4 1_555 1_555
N1 N2 1_555 1_555
N2 N3 1_555 1_555
N3 N4 1_555 1_555
N4 C1 1_555 1_555
C1 N1 1_555 1_555
C2 C1 1_555 1_555
H5 C2 1_555 1_555
H6 C2 1_555 1_555
C3 O3 1_555 1_555
Cd1A O1 1_555 1_555
Cd1_2 N3 1_555 1_555
O1A Cd1 1_555 1_555
N3_2 Cd1 1_555 1_555
N4A Cd1 1_555 1_555
N4 Cd1A 1_555 1_555
C2 C3 1_555 1_555

#END
