
#######################################################################
#
#                 Cambridge Crystallographic Data Centre
#                                CCDC 
#
#######################################################################
#
# If this CIF has been generated from an entry in the Cambridge 
# Structural Database, then it will include bibliographic, chemical, 
# crystal, experimental, refinement or atomic coordinate data resulting 
# from the CCDC's data processing and validation procedures.
#
#######################################################################

data_RUSQAZ
_symmetry_cell_setting           triclinic
_symmetry_space_group_name_H-M   'P -1'
_symmetry_Int_Tables_number      2
_space_group_name_Hall           '-P 1'
loop_
_symmetry_equiv_pos_site_id
_symmetry_equiv_pos_as_xyz
1 x,y,z
2 -x,-y,-z
_cell_length_a                   11.1911(7)
_cell_length_b                   14.1360(9)
_cell_length_c                   16.1242(10)
_cell_angle_alpha                108.997(11)
_cell_angle_beta                 94.492(10)
_cell_angle_gamma                99.700(12)
_cell_volume                     2353
loop_
_atom_site_label
_atom_site_type_symbol
_atom_site_fract_x
_atom_site_fract_y
_atom_site_fract_z
Tm1 Tm 0.56685(2) 0.20652(2) 0.54449(2)
Tm2 Tm -0.09124(2) -0.20428(2) -0.05342(2)
S1 S 1.05397(4) 0.28715(4) 0.58887(3)
S2 S -0.57827(4) -0.29195(4) -0.08663(3)
S3 S 0.27867(4) 0.06017(3) 0.26211(3)
O1 O 1.37298(13) 0.22175(13) 0.54195(11)
O2 O -0.89581(13) -0.21931(12) -0.04620(12)
O3 O 0.78329(12) 0.26512(11) 0.59412(9)
N1 N -0.07568(15) -0.29946(13) -0.21334(11)
O4 O -0.30751(12) -0.27043(11) -0.09605(9)
N2 N 0.55408(15) 0.29803(13) 0.70589(11)
C1 C -0.63629(19) -0.12971(17) 0.01399(16)
H1 H -0.6815 -0.0829 0.0434
O5 O 0.46382(12) 0.08383(10) 0.41601(9)
C2 C -0.1991(2) -0.2407(2) 0.21266(16)
H2 H -0.2113 -0.1949 0.2661
C3 C 1.11457(19) 0.12836(17) 0.48524(16)
H3 H 1.1607 0.0827 0.4553
O6 O 0.00645(12) -0.06764(10) 0.06544(9)
N3 N 0.60808(13) 0.39807(11) 0.59320(10)
O7 O -0.25046(12) -0.12026(11) 0.00964(10)
O8 O 0.43405(13) -0.08125(10) 0.40019(9)
O9 O 0.11044(13) 0.09321(10) 0.12422(9)
C4 C 0.6866(3) 0.2520(2) 0.28538(16)
H4 H 0.6955 0.2067 0.2307
C5 C -0.1355(3) -0.60096(17) -0.13509(18)
H5 H -0.1392 -0.6706 -0.1484
N4 N -0.12223(13) -0.39372(11) -0.09537(10)
C6 C -0.0345(3) -0.3004(2) -0.35763(16)
H6 H -0.0152 -0.2638 -0.3951
C7 C -0.2007(2) -0.40948(19) 0.11854(17)
H7 H -0.2136 -0.4794 0.1079
C8 C -0.2193(3) -0.3434(2) 0.19814(17)
H8 H -0.2456 -0.3683 0.2418
C9 C 0.5408(3) 0.3985(2) 0.88338(16)
H9 H 0.5386 0.4324 0.9431
C10 C 0.5276(2) 0.24700(18) 0.76154(15)
H10 H 0.5135 0.1760 0.7392
C11 C 0.6290(2) 0.60766(16) 0.63909(17)
H11 H 0.6342 0.6777 0.6540
C12 C 0.7086(2) 0.42016(18) 0.38701(16)
H12 H 0.7329 0.4905 0.4018
O10 O 0.72689(12) 0.12214(11) 0.47946(10)
C13 C 0.7248(2) 0.3552(2) 0.30599(16)
H13 H 0.7612 0.3811 0.2658
N5 N -0.14149(15) -0.26923(12) 0.06787(11)
C14 C -0.0489(3) -0.4046(2) -0.38682(16)
H14 H -0.0411 -0.4401 -0.4452
C15 C -0.1184(2) -0.55818(16) -0.19950(16)
H15 H -0.1126 -0.5985 -0.2569
C16 C 0.30872(16) -0.03067(13) 0.30607(12)
O11 O 1.32028(13) 0.36530(12) 0.62305(11)
N6 N 0.61999(16) 0.27796(13) 0.42734(11)
C17 C 0.1480(2) -0.11997(15) 0.19445(14)
H16 H 0.0895 -0.1765 0.1586
C18 C -0.33356(16) -0.19389(15) -0.03916(13)
C19 C 0.80952(16) 0.19102(15) 0.53380(13)
C20 C 1.16456(17) 0.22313(16) 0.54467(14)
C21 C 0.5202(3) 0.2944(2) 0.85039(16)
H17 H 0.5017 0.2561 0.8867
O12 O -0.84453(13) -0.36724(11) -0.11989(11)
C22 C 0.65555(18) 0.37956(15) 0.44683(13)
C23 C 0.6443(2) 0.55005(16) 0.55555(16)
H18 H 0.6603 0.5804 0.5132
C24 C 0.08770(16) 0.00122(13) 0.11921(11)
C25 C -0.68770(16) -0.22606(15) -0.04298(13)
C26 C 0.16174(16) -0.02658(13) 0.18527(12)
C27 C 0.63566(17) 0.44523(14) 0.53498(13)
C28 C 0.59511(16) 0.45533(14) 0.67573(13)
C29 C -0.81964(16) -0.27662(15) -0.07274(13)
C30 C -0.0494(2) -0.25130(19) -0.27100(15)
H19 H -0.0408 -0.1806 -0.2514
C31 C 0.6057(2) 0.56121(16) 0.70104(15)
H20 H 0.5973 0.5996 0.7585
C32 C -0.10987(17) -0.45304(14) -0.17707(13)
C33 C 0.40955(15) -0.00732(13) 0.38044(11)
C34 C -0.0748(2) -0.45647(19) -0.32955(15)
H21 H -0.0848 -0.5273 -0.3487
C35 C -0.08595(17) -0.40155(15) -0.24231(13)
C36 C -0.14316(17) -0.43748(14) -0.03385(13)
C37 C -0.1601(2) -0.20646(18) 0.14630(14)
H22 H -0.1462 -0.1366 0.1564
C38 C -0.1471(2) -0.54142(17) -0.05138(17)
H23 H -0.1574 -0.5696 -0.0071
C39 C 0.56995(17) 0.40086(15) 0.73883(12)
C40 C 1.29655(16) 0.27584(16) 0.57327(13)
C41 C 0.6345(2) 0.21646(18) 0.34729(15)
H24 H 0.6083 0.1463 0.3327
C42 C -0.16213(18) -0.37019(15) 0.05401(13)
C43 C -0.50674(18) -0.10899(17) 0.02330(16)
H25 H -0.4572 -0.0477 0.0604
C44 C 0.93923(16) 0.18600(15) 0.52673(13)
C45 C -0.46266(16) -0.18968(15) -0.02866(13)
C46 C 0.23088(19) -0.12264(15) 0.26354(14)
H26 H 0.2325 -0.1806 0.2786
C47 C 0.98487(18) 0.10677(17) 0.47387(16)
H27 H 0.9363 0.0460 0.4351
C48 C 0.5647(2) 0.45320(19) 0.82752(15)
H28 H 0.5772 0.5242 0.8489
Tm1_2 Tm 1.56685(2) 0.20652(2) 0.54449(2)
Tm1A Tm 0.43315(2) -0.20652(2) 0.45551(2)
Tm2_2 Tm -1.09124(2) -0.20428(2) -0.05342(2)
Tm2A Tm 0.09124(2) 0.20428(2) 0.05342(2)
O1_2 O 0.37298(13) 0.22175(13) 0.54195(11)
O2_2 O 0.10419(13) -0.21931(12) -0.04620(12)
O8A O 0.56595(13) 0.08125(10) 0.59981(9)
O9A O -0.11044(13) -0.09321(10) -0.12422(9)
O13 O 0.2068(3) 0.9439(2) 0.8431(2)
O14 O 0.7112(4) 0.9709(3) 0.3085(3)
loop_
_geom_bond_atom_site_label_1
_geom_bond_atom_site_label_2
_geom_bond_site_symmetry_1
_geom_bond_site_symmetry_2
Tm1 O3 1_555 1_555
Tm2 N1 1_555 1_555
S1 C20 1_555 1_555
S2 C25 1_555 1_555
S3 C16 1_555 1_555
O1 C40 1_555 1_555
O2 C29 1_555 1_555
O3 C19 1_555 1_555
N1 C30 1_555 1_555
O4 Tm2 1_555 1_555
N2 Tm1 1_555 1_555
C1 H1 1_555 1_555
O5 Tm1 1_555 1_555
C2 H2 1_555 1_555
C3 H3 1_555 1_555
O6 Tm2 1_555 1_555
N3 Tm1 1_555 1_555
O7 Tm2 1_555 1_555
O8 C33 1_555 1_555
O9 C24 1_555 1_555
C4 H4 1_555 1_555
C5 H5 1_555 1_555
N4 Tm2 1_555 1_555
C6 H6 1_555 1_555
C7 H7 1_555 1_555
C8 C2 1_555 1_555
H8 C8 1_555 1_555
C9 H9 1_555 1_555
C10 N2 1_555 1_555
H10 C10 1_555 1_555
C11 H11 1_555 1_555
C12 H12 1_555 1_555
O10 Tm1 1_555 1_555
C13 C4 1_555 1_555
H13 C13 1_555 1_555
N5 Tm2 1_555 1_555
C14 C6 1_555 1_555
H14 C14 1_555 1_555
C15 C5 1_555 1_555
H15 C15 1_555 1_555
C16 C33 1_555 1_555
O11 C40 1_555 1_555
N6 Tm1 1_555 1_555
C17 H16 1_555 1_555
C18 O4 1_555 1_555
C19 O10 1_555 1_555
C20 C3 1_555 1_555
C21 C9 1_555 1_555
H17 C21 1_555 1_555
O12 C29 1_555 1_555
C22 C12 1_555 1_555
C23 C11 1_555 1_555
H18 C23 1_555 1_555
C24 O6 1_555 1_555
C25 C1 1_555 1_555
C26 S3 1_555 1_555
C27 N3 1_555 1_555
C28 N3 1_555 1_555
C29 C25 1_555 1_555
C30 C6 1_555 1_555
H19 C30 1_555 1_555
C31 C11 1_555 1_555
H20 C31 1_555 1_555
C32 N4 1_555 1_555
C33 O5 1_555 1_555
C34 C14 1_555 1_555
H21 C34 1_555 1_555
C35 N1 1_555 1_555
C36 N4 1_555 1_555
C37 C2 1_555 1_555
H22 C37 1_555 1_555
C38 C5 1_555 1_555
H23 C38 1_555 1_555
C39 N2 1_555 1_555
C40 C20 1_555 1_555
C41 C4 1_555 1_555
H24 C41 1_555 1_555
C42 C7 1_555 1_555
C43 C1 1_555 1_555
H25 C43 1_555 1_555
C44 S1 1_555 1_555
C45 S2 1_555 1_555
C46 C16 1_555 1_555
H26 C46 1_555 1_555
C47 C3 1_555 1_555
H27 C47 1_555 1_555
C48 C9 1_555 1_555
H28 C48 1_555 1_555
Tm1_2 O1 1_555 1_555
Tm1A O8 1_555 1_555
Tm2_2 O2 1_555 1_555
Tm2A O9 1_555 1_555
O1_2 Tm1 1_555 1_555
O2_2 Tm2 1_555 1_555
O8A Tm1 1_555 1_555
O9A Tm2 1_555 1_555
O7 C18 1_555 1_555
C7 C8 1_555 1_555
C10 C21 1_555 1_555
C12 C13 1_555 1_555
N5 C37 1_555 1_555
N5 C42 1_555 1_555
C15 C32 1_555 1_555
N6 C22 1_555 1_555
N6 C41 1_555 1_555
C17 C26 1_555 1_555
C17 C46 1_555 1_555
C18 C45 1_555 1_555
C19 C44 1_555 1_555
C22 C27 1_555 1_555
C23 C27 1_555 1_555
C24 C26 1_555 1_555
C28 C31 1_555 1_555
C28 C39 1_555 1_555
C32 C35 1_555 1_555
C34 C35 1_555 1_555
C36 C38 1_555 1_555
C36 C42 1_555 1_555
C39 C48 1_555 1_555
C43 C45 1_555 1_555
C44 C47 1_555 1_555

#END
