
#######################################################################
#
#                 Cambridge Crystallographic Data Centre
#                                CCDC 
#
#######################################################################
#
# If this CIF has been generated from an entry in the Cambridge 
# Structural Database, then it will include bibliographic, chemical, 
# crystal, experimental, refinement or atomic coordinate data resulting 
# from the CCDC's data processing and validation procedures.
#
#######################################################################

data_RUSRIH
_symmetry_cell_setting           triclinic
_symmetry_space_group_name_H-M   'P -1'
_symmetry_Int_Tables_number      2
_space_group_name_Hall           '-P 1'
loop_
_symmetry_equiv_pos_site_id
_symmetry_equiv_pos_as_xyz
1 x,y,z
2 -x,-y,-z
_cell_length_a                   8.4089(17)
_cell_length_b                   10.140(2)
_cell_length_c                   15.892(3)
_cell_angle_alpha                97.32(3)
_cell_angle_beta                 102.74(3)
_cell_angle_gamma                93.72(3)
_cell_volume                     1304.85
loop_
_atom_site_label
_atom_site_type_symbol
_atom_site_fract_x
_atom_site_fract_y
_atom_site_fract_z
Cu1 Cu 0.0000 0.0000 0.0000
Cu2 Cu -0.29577(5) 0.66655(4) 0.24594(2)
Cu3 Cu -1.30761(5) 0.34446(4) -0.31946(3)
S1 S -0.24310(9) 0.37852(7) 0.35655(4)
N1 N -0.4744(3) 0.6044(2) 0.14972(15)
N2 N -1.1397(3) 0.4008(2) -0.21561(15)
N3 N 0.5148(3) 1.2303(2) 0.60497(16)
N4 N -0.1214(3) 0.7838(2) 0.32126(16)
O1 O -0.2871(5) 0.5002(2) 0.32491(19)
O2 O -1.2427(3) 0.4945(2) -0.40277(14)
H1 H -1.147(2) 0.534(3) -0.390(2)
H2 H -1.265(4) 0.456(3) -0.4555(10)
O3 O -0.3120(3) 0.3588(3) 0.43007(14)
O4 O -0.0702(3) 0.3614(3) 0.37455(19)
O5 O -0.1372(2) 0.10121(18) 0.06159(12)
O6 O -0.2601(3) -0.09729(19) 0.06675(16)
O7 O -0.8501(3) 0.1569(2) 0.21667(16)
O8 O -0.8349(3) -0.00220(19) 0.10722(13)
C1 C -0.5291(4) 0.4741(3) 0.1237(2)
H3 H -0.4774 0.4109 0.1547
C2 C -0.0809(4) 0.9062(3) 0.3029(2)
H4 H -0.1394 0.9313 0.2515
C3 C -0.6583(4) 0.4308(3) 0.0531(2)
H5 H -0.6918 0.3401 0.0376
C4 C -0.5498(4) 0.6914(3) 0.1037(2)
H6 H -0.5120 0.7814 0.1195
C5 C -0.6818(4) 0.6559(3) 0.0333(2)
H7 H -0.7331 0.7215 0.0045
C6 C -0.9400(4) 0.3466(3) -0.0961(2)
H8 H -0.8938 0.2812 -0.0651
C7 C -1.0699(4) 0.3123(3) -0.1666(2)
H9 H -1.1118 0.2231 -0.1812
C8 C -0.9520(4) 0.5716(3) -0.12060(18)
H10 H -0.9154 0.6619 -0.1058
C9 C -1.0797(4) 0.5300(3) -0.19143(19)
H11 H -1.1266 0.5934 -0.2240
C10 C -0.7379(3) 0.5218(3) 0.00545(17)
C11 C -0.8774(3) 0.4806(3) -0.07113(17)
C12 C 0.4798(4) 1.1055(3) 0.6200(2)
H12 H 0.5408 1.0781 0.6699
C13 C 0.3597(4) 1.0164(3) 0.5663(2)
H13 H 0.3422 0.9307 0.5795
C14 C 0.4222(4) 1.2679(3) 0.5332(2)
H14 H 0.4419 1.3543 0.5217
C15 C 0.2995(4) 1.1836(3) 0.4762(2)
H15 H 0.2401 1.2135 0.4268
C16 C 0.0920(4) 0.8353(3) 0.4503(2)
H16 H 0.1500 0.8075 0.5009
C17 C -0.0327(4) 0.7502(3) 0.3947(2)
H17 H -0.0559 0.6660 0.4089
C18 C 0.0400(4) 0.9952(3) 0.3549(2)
H18 H 0.0613 1.0786 0.3390
C19 C 0.2632(3) 1.0545(3) 0.49140(18)
C20 C 0.1317(3) 0.9612(3) 0.43193(18)
C21 C -0.3417(3) 0.2490(2) 0.27161(16)
C22 C -0.5086(3) 0.2173(3) 0.25857(17)
H19 H -0.5661 0.2590 0.2964
C23 C -0.5904(3) 0.1221(2) 0.18825(17)
C24 C -0.5026(3) 0.0606(2) 0.13299(17)
H20 H -0.5562 -0.0038 0.0866
C25 C -0.3340(3) 0.0941(2) 0.14593(17)
C26 C -0.2531(3) 0.1899(2) 0.21533(16)
H21 H -0.1414 0.2140 0.2239
C27 C -0.2379(3) 0.0250(3) 0.08654(17)
C28 C -0.7747(3) 0.0915(3) 0.17064(17)
Cu1_2 Cu -1.0000 0.0000 0.0000
Cu1_3 Cu 1.0000 0.0000 0.0000
Cu2_2 Cu 0.70423(5) 0.66655(4) 0.24594(2)
Cu3_2 Cu -0.30761(5) 0.34446(4) -0.31946(3)
Cu3_3 Cu 0.69239(5) 1.34446(4) 0.68054(3)
Cu3_4 Cu 1.69239(5) 1.34446(4) 0.68054(3)
S1_2 S 0.75690(9) 0.37852(7) 0.35655(4)
N1_2 N 0.5256(3) 0.6044(2) 0.14972(15)
N2_2 N -0.1397(3) 0.4008(2) -0.21561(15)
N3_2 N 1.5148(3) 1.2303(2) 0.60497(16)
N3_3 N -1.4852(3) 0.2303(2) -0.39503(16)
N3_4 N -0.4852(3) 0.2303(2) -0.39503(16)
N4_2 N 0.8786(3) 0.7838(2) 0.32126(16)
O1_2 O 0.7129(5) 0.5002(2) 0.32491(19)
O2_2 O -0.2427(3) 0.4945(2) -0.40277(14)
H1_2 H -0.147(2) 0.534(3) -0.390(2)
H2_2 H -0.265(4) 0.456(3) -0.4555(10)
O3_2 O 0.6880(3) 0.3588(3) 0.43007(14)
O4_2 O 0.9298(3) 0.3614(3) 0.37455(19)
O5_2 O 0.8628(2) 0.10121(18) 0.06159(12)
O5A O 0.1372(2) -0.10121(18) -0.06159(12)
O6_2 O 0.7399(3) -0.09729(19) 0.06675(16)
O7_2 O 0.1499(3) 0.1569(2) 0.21667(16)
O8_2 O 0.1651(3) -0.00220(19) 0.10722(13)
O8A O -0.1651(3) 0.00220(19) -0.10722(13)
C1_2 C 0.4709(4) 0.4741(3) 0.1237(2)
H3_2 H 0.5226 0.4109 0.1547
C2_2 C 0.9191(4) 0.9062(3) 0.3029(2)
H4_2 H 0.8606 0.9313 0.2515
C3_2 C 0.3417(4) 0.4308(3) 0.0531(2)
H5_2 H 0.3082 0.3401 0.0376
C4_2 C 0.4502(4) 0.6914(3) 0.1037(2)
H6_2 H 0.4880 0.7814 0.1195
C5_2 C 0.3182(4) 0.6559(3) 0.0333(2)
H7_2 H 0.2669 0.7215 0.0045
C6_2 C 0.0600(4) 0.3466(3) -0.0961(2)
H8_2 H 0.1062 0.2812 -0.0651
C7_2 C -0.0699(4) 0.3123(3) -0.1666(2)
H9_2 H -0.1118 0.2231 -0.1812
C8_2 C 0.0480(4) 0.5716(3) -0.12060(18)
H10_2 H 0.0846 0.6619 -0.1058
C9_2 C -0.0797(4) 0.5300(3) -0.19143(19)
H11_2 H -0.1266 0.5934 -0.2240
C10_2 C 0.2621(3) 0.5218(3) 0.00545(17)
C11_2 C 0.1226(3) 0.4806(3) -0.07113(17)
C12_2 C 1.4798(4) 1.1055(3) 0.6200(2)
H12_2 H 1.5408 1.0781 0.6699
C13_2 C 1.3597(4) 1.0164(3) 0.5663(2)
H13_2 H 1.3422 0.9307 0.5795
C14_2 C 1.4222(4) 1.2679(3) 0.5332(2)
H14_2 H 1.4419 1.3543 0.5217
C15_2 C 1.2995(4) 1.1836(3) 0.4762(2)
H15_2 H 1.2401 1.2135 0.4268
C16_2 C 1.0920(4) 0.8353(3) 0.4503(2)
H16_2 H 1.1500 0.8075 0.5009
C17_2 C 0.9673(4) 0.7502(3) 0.3947(2)
H17_2 H 0.9441 0.6660 0.4089
C18_2 C 1.0400(4) 0.9952(3) 0.3549(2)
H18_2 H 1.0613 1.0786 0.3390
C19_2 C 1.2632(3) 1.0545(3) 0.49140(18)
C20_2 C 1.1317(3) 0.9612(3) 0.43193(18)
C21_2 C 0.6583(3) 0.2490(2) 0.27161(16)
C22_2 C 0.4914(3) 0.2173(3) 0.25857(17)
H19_2 H 0.4339 0.2590 0.2964
C23_2 C 0.4096(3) 0.1221(2) 0.18825(17)
C24_2 C 0.4974(3) 0.0606(2) 0.13299(17)
H20_2 H 0.4438 -0.0038 0.0866
C25_2 C 0.6660(3) 0.0941(2) 0.14593(17)
C26_2 C 0.7469(3) 0.1899(2) 0.21533(16)
H21_2 H 0.8586 0.2140 0.2239
C27_2 C 0.7621(3) 0.0250(3) 0.08654(17)
C28_2 C 0.2253(3) 0.0915(3) 0.17064(17)
loop_
_geom_bond_atom_site_label_1
_geom_bond_atom_site_label_2
_geom_bond_site_symmetry_1
_geom_bond_site_symmetry_2
Cu1 O5 1_555 1_555
Cu2 N1 1_555 1_555
Cu3 N2 1_555 1_555
S1 O1 1_555 1_555
N1 C1 1_555 1_555
N2 C7 1_555 1_555
N3 C12 1_555 1_555
N4 Cu2 1_555 1_555
O1 Cu2 1_555 1_555
O2 Cu3 1_555 1_555
H1 O2 1_555 1_555
H2 O2 1_555 1_555
O3 S1 1_555 1_555
O4 S1 1_555 1_555
O5 C27 1_555 1_555
O6 C27 1_555 1_555
O7 C28 1_555 1_555
O8 C28 1_555 1_555
C1 H3 1_555 1_555
C2 N4 1_555 1_555
H4 C2 1_555 1_555
C3 C1 1_555 1_555
H5 C3 1_555 1_555
C4 N1 1_555 1_555
H6 C4 1_555 1_555
C5 C4 1_555 1_555
H7 C5 1_555 1_555
C6 H8 1_555 1_555
C7 C6 1_555 1_555
H9 C7 1_555 1_555
C8 H10 1_555 1_555
C9 N2 1_555 1_555
H11 C9 1_555 1_555
C10 C3 1_555 1_555
C11 C6 1_555 1_555
C12 H12 1_555 1_555
C13 C12 1_555 1_555
H13 C13 1_555 1_555
C14 N3 1_555 1_555
H14 C14 1_555 1_555
C15 C14 1_555 1_555
H15 C15 1_555 1_555
C16 H16 1_555 1_555
C17 N4 1_555 1_555
H17 C17 1_555 1_555
C18 C2 1_555 1_555
H18 C18 1_555 1_555
C19 C13 1_555 1_555
C20 C16 1_555 1_555
C21 S1 1_555 1_555
C22 C21 1_555 1_555
H19 C22 1_555 1_555
C23 C22 1_555 1_555
C24 C23 1_555 1_555
H20 C24 1_555 1_555
C25 C24 1_555 1_555
C26 C21 1_555 1_555
H21 C26 1_555 1_555
C27 C25 1_555 1_555
C28 C23 1_555 1_555
Cu1_2 O8 1_555 1_555
Cu1_3 O5_2 1_555 1_555
Cu2_2 N1_2 1_555 1_555
Cu3_2 N2_2 1_555 1_555
Cu3_3 N3 1_555 1_555
Cu3_4 N3_2 1_555 1_555
S1_2 O1_2 1_555 1_555
N1_2 C1_2 1_555 1_555
N2_2 C7_2 1_555 1_555
N3_2 C12_2 1_555 1_555
N3_3 Cu3 1_555 1_555
N3_4 Cu3_2 1_555 1_555
N4_2 Cu2_2 1_555 1_555
O1_2 Cu2_2 1_555 1_555
O2_2 Cu3_2 1_555 1_555
H1_2 O2_2 1_555 1_555
H2_2 O2_2 1_555 1_555
O3_2 S1_2 1_555 1_555
O4_2 S1_2 1_555 1_555
O5_2 C27_2 1_555 1_555
O5A Cu1 1_555 1_555
O6_2 C27_2 1_555 1_555
O7_2 C28_2 1_555 1_555
O8_2 Cu1 1_555 1_555
O8A Cu1 1_555 1_555
C1_2 H3_2 1_555 1_555
C2_2 N4_2 1_555 1_555
H4_2 C2_2 1_555 1_555
C3_2 C1_2 1_555 1_555
H5_2 C3_2 1_555 1_555
C4_2 N1_2 1_555 1_555
H6_2 C4_2 1_555 1_555
C5_2 C4_2 1_555 1_555
H7_2 C5_2 1_555 1_555
C6_2 H8_2 1_555 1_555
C7_2 C6_2 1_555 1_555
H9_2 C7_2 1_555 1_555
C8_2 H10_2 1_555 1_555
C9_2 N2_2 1_555 1_555
H11_2 C9_2 1_555 1_555
C10_2 C3_2 1_555 1_555
C11_2 C6_2 1_555 1_555
C12_2 H12_2 1_555 1_555
C13_2 C12_2 1_555 1_555
H13_2 C13_2 1_555 1_555
C14_2 N3_2 1_555 1_555
H14_2 C14_2 1_555 1_555
C15_2 C14_2 1_555 1_555
H15_2 C15_2 1_555 1_555
C16_2 H16_2 1_555 1_555
C17_2 N4_2 1_555 1_555
H17_2 C17_2 1_555 1_555
C18_2 C2_2 1_555 1_555
H18_2 C18_2 1_555 1_555
C19_2 C13_2 1_555 1_555
C20_2 C16_2 1_555 1_555
C21_2 S1_2 1_555 1_555
C22_2 C21_2 1_555 1_555
H19_2 C22_2 1_555 1_555
C23_2 C22_2 1_555 1_555
C24_2 C23_2 1_555 1_555
H20_2 C24_2 1_555 1_555
C25_2 C24_2 1_555 1_555
C26_2 C21_2 1_555 1_555
H21_2 C26_2 1_555 1_555
C27_2 C25_2 1_555 1_555
C28_2 O8_2 1_555 1_555
C5 C10 1_555 1_555
C8 C9 1_555 1_555
C8 C11 1_555 1_555
C10 C11 1_555 1_555
C15 C19 1_555 1_555
C16 C17 1_555 1_555
C18 C20 1_555 1_555
C19 C20 1_555 1_555
C25 C26 1_555 1_555
C5_2 C10_2 1_555 1_555
C8_2 C9_2 1_555 1_555
C8_2 C11_2 1_555 1_555
C10_2 C11_2 1_555 1_555
C15_2 C19_2 1_555 1_555
C16_2 C17_2 1_555 1_555
C18_2 C20_2 1_555 1_555
C19_2 C20_2 1_555 1_555
C23_2 C28_2 1_555 1_555
C25_2 C26_2 1_555 1_555

#END
