
#######################################################################
#
#                 Cambridge Crystallographic Data Centre
#                                CCDC 
#
#######################################################################
#
# If this CIF has been generated from an entry in the Cambridge 
# Structural Database, then it will include bibliographic, chemical, 
# crystal, experimental, refinement or atomic coordinate data resulting 
# from the CCDC's data processing and validation procedures.
#
#######################################################################

data_RUSSEE
_symmetry_cell_setting           monoclinic
_symmetry_space_group_name_H-M   'C 2/c'
_symmetry_Int_Tables_number      15
_space_group_name_Hall           '-C 2yn'
loop_
_symmetry_equiv_pos_site_id
_symmetry_equiv_pos_as_xyz
1 x,y,z
2 -x,y,1/2-z
3 1/2+x,1/2+y,z
4 1/2-x,1/2+y,1/2-z
5 -x,-y,-z
6 x,-y,1/2+z
7 1/2-x,1/2-y,-z
8 1/2+x,1/2-y,1/2+z
_cell_length_a                   32.975(7)
_cell_length_b                   8.297(4)
_cell_length_c                   24.868(5)
_cell_angle_alpha                90
_cell_angle_beta                 130.06(3)
_cell_angle_gamma                90
_cell_volume                     5207.37
loop_
_atom_site_label
_atom_site_type_symbol
_atom_site_fract_x
_atom_site_fract_y
_atom_site_fract_z
O1 O 0.53402(7) 0.5479(2) 0.47584(10)
O2 O 0.55270(8) 0.3547(2) 0.43267(11)
C1 C 0.65965(11) 0.4006(3) 0.37349(15)
N1 N 0.61282(9) 0.5461(3) 0.42133(12)
N2 N 0.67221(9) 0.3537(3) 0.28617(13)
C2 C 0.68610(11) 0.3284(3) 0.34931(15)
N3 N 0.70775(10) 0.2703(3) 0.28763(15)
N4 N 0.74130(10) 0.1989(3) 0.34943(15)
N5 N 0.72906(10) 0.2341(3) 0.39021(14)
C3 C 0.55548(10) 0.4956(3) 0.45238(14)
C4 C 0.58729(12) 0.6197(3) 0.44727(16)
H1 H 0.5639 0.7057 0.4157
H2 H 0.6143 0.6666 0.4932
C5 C 0.65953(12) 0.4710(4) 0.46646(16)
H3 H 0.6759 0.4684 0.5139
C6 C 0.61055(11) 0.4764(4) 0.32714(16)
H4 H 0.5930 0.4787 0.2793
C7 C 0.68354(12) 0.3983(4) 0.44403(16)
H5 H 0.7160 0.3470 0.4762
C8 C 0.58826(11) 0.5479(4) 0.35263(16)
H6 H 0.5555 0.5984 0.3216
O3 O 0.38490(7) 0.0447(2) 0.36108(11)
O4 O 0.36281(8) 0.2578(2) 0.39202(11)
N6 N 0.26615(8) 0.1299(3) 0.33750(12)
C9 C 0.20135(11) 0.2958(3) 0.35240(15)
C10 C 0.27714(11) 0.1294(4) 0.39984(15)
H7 H 0.3064 0.0727 0.4375
C11 C 0.19129(12) 0.2961(3) 0.28858(15)
H8 H 0.1626 0.3533 0.2504
N7 N 0.17480(10) 0.3833(3) 0.42041(13)
C12 C 0.30119(11) 0.0393(3) 0.33041(16)
H9 H 0.2828 0.0230 0.2809
H10 H 0.3083 -0.0660 0.3518
C13 C 0.22414(11) 0.2109(3) 0.28247(16)
H11 H 0.2171 0.2096 0.2397
N8 N 0.09882(10) 0.4926(4) 0.33603(14)
C14 C 0.35394(10) 0.1242(3) 0.36433(14)
N9 N 0.13214(11) 0.4589(3) 0.40379(15)
C15 C 0.16546(11) 0.3749(3) 0.35950(15)
N10 N 0.11892(10) 0.4402(3) 0.30648(13)
C16 C 0.24549(11) 0.2120(4) 0.40835(15)
H12 H 0.2536 0.2118 0.4518
O5 O 0.57893(8) 0.2510(2) 0.57777(11)
H13 H 0.5926 0.1705 0.5991
H14 H 0.6052 0.2906 0.5861
O6 O 0.47983(8) 0.0540(2) 0.54165(10)
H15 H 0.4517 0.0252 0.5290
H16 H 0.4971 0.0926 0.5790
O7 O 0.41701(8) 0.5074(2) 0.33880(11)
H17 H 0.3884 0.4730 0.3056
H18 H 0.4114 0.5671 0.3566
O8 O 0.45137(9) 0.1732(3) 0.31808(12)
H19 H 0.4269 0.1254 0.2876
H20 H 0.4690 0.1890 0.3066
Ba1 Ba 0.473596(6) 0.258074(17) 0.442906(8)
O1D O 0.46598(7) 0.4521(2) 0.52416(10)
O2D O 0.44730(8) 0.6453(2) 0.56733(11)
C1D C 0.34035(11) 0.5994(3) 0.62651(15)
N1D N 0.38718(9) 0.4539(3) 0.57867(12)
N2D N 0.32779(9) 0.6463(3) 0.71383(13)
C2D C 0.31390(11) 0.6716(3) 0.65069(15)
N3D N 0.29225(10) 0.7297(3) 0.71237(15)
N4D N 0.25870(10) 0.8011(3) 0.65057(15)
N5D N 0.27094(10) 0.7659(3) 0.60979(14)
C3D C 0.44452(10) 0.5044(3) 0.54762(14)
C4D C 0.41271(12) 0.3803(3) 0.55273(16)
H1D H 0.4361 0.2943 0.5843
H2D H 0.3857 0.3334 0.5068
C5D C 0.34047(12) 0.5290(4) 0.53354(16)
H3D H 0.3241 0.5316 0.4861
C6D C 0.38945(11) 0.5236(4) 0.67286(16)
H4D H 0.4070 0.5213 0.7207
C7D C 0.31646(12) 0.6017(4) 0.55597(16)
H5D H 0.2840 0.6530 0.5238
C8D C 0.41174(11) 0.4521(4) 0.64737(16)
H6D H 0.4445 0.4016 0.6784
O3D O 0.61510(7) 0.9553(2) 0.63892(11)
O4D O 0.63719(8) 0.7422(2) 0.60798(11)
N6D N 0.73385(8) 0.8701(3) 0.66250(12)
C9D C 0.79865(11) 0.7042(3) 0.64760(15)
C10D C 0.72286(11) 0.8706(4) 0.60016(15)
H7D H 0.6936 0.9273 0.5625
C11D C 0.80871(12) 0.7039(3) 0.71142(15)
H8D H 0.8374 0.6467 0.7496
N7D N 0.82520(10) 0.6167(3) 0.57959(13)
C12D C 0.69881(11) 0.9607(3) 0.66959(16)
H9D H 0.7172 0.9770 0.7191
H10D H 0.6917 1.0660 0.6482
C13D C 0.77586(11) 0.7891(3) 0.71753(16)
H11D H 0.7829 0.7904 0.7603
N8D N 0.90118(10) 0.5074(4) 0.66397(14)
C14D C 0.64606(10) 0.8758(3) 0.63567(14)
N9D N 0.86786(11) 0.5411(3) 0.59621(15)
C15D C 0.83454(11) 0.6251(3) 0.64050(15)
N10D N 0.88108(10) 0.5598(3) 0.69352(13)
C16D C 0.75451(11) 0.7880(4) 0.59165(15)
H12D H 0.7464 0.7882 0.5482
O5D O 0.42107(8) 0.7490(2) 0.42223(11)
H13D H 0.4074 0.8295 0.4009
H14D H 0.3948 0.7094 0.4139
O6D O 0.52017(8) -0.0540(2) 0.45835(10)
O6D_2 O 0.52017(8) 0.9460(2) 0.45835(10)
O6_2 O 0.47983(8) 1.0540(2) 0.54165(10)
H15D H 0.5483 -0.0252 0.4710
H15D_2 H 0.5483 0.9748 0.4710
H15_2 H 0.4517 1.0252 0.5290
H16D H 0.5029 -0.0926 0.4210
H16D_2 H 0.5029 0.9074 0.4210
H16_2 H 0.4971 1.0926 0.5790
O7D O 0.58299(8) 0.4926(2) 0.66120(11)
H17D H 0.6116 0.5270 0.6944
H18D H 0.5886 0.4329 0.6434
O8D O 0.54863(9) 0.8268(3) 0.68192(12)
H19D H 0.5731 0.8746 0.7124
H20D H 0.5310 0.8110 0.6934
Ba1D Ba 0.526404(6) 0.741926(17) 0.557094(8)
Ba1D_2 Ba 0.526404(6) -0.258074(17) 0.557094(8)
O9 O 0.38826(8) 0.9292(3) 0.50901(11)
H21 H 0.3803 0.9600 0.5337
H22 H 0.3959 0.8480 0.5209
O10 O 0.33407(9) 0.5755(3) 0.38420(14)
H23 H 0.3065 0.5975 0.3734
H24 H 0.3374 0.4905 0.3811
O11 O 0.47084(11) 0.7594(3) 0.32622(15)
H25 H 0.4485 0.8066 0.2920
H26 H 0.4569 0.6815 0.3290
O12 O 0.0000 0.6838(5) 0.2500
H27 H 0.0261 0.6159 0.2769
H27A H -0.0261 0.6159 0.2231
loop_
_geom_bond_atom_site_label_1
_geom_bond_atom_site_label_2
_geom_bond_site_symmetry_1
_geom_bond_site_symmetry_2
O1 C3 1_555 1_555
O2 C3 1_555 1_555
C1 C2 1_555 1_555
N1 C4 1_555 1_555
N2 C2 1_555 1_555
C2 N5 1_555 1_555
N3 N2 1_555 1_555
N4 N3 1_555 1_555
N5 N4 1_555 1_555
C3 C4 1_555 1_555
C4 H1 1_555 1_555
H2 C4 1_555 1_555
C5 N1 1_555 1_555
H3 C5 1_555 1_555
C6 C1 1_555 1_555
H4 C6 1_555 1_555
C7 C1 1_555 1_555
H5 C7 1_555 1_555
C8 N1 1_555 1_555
H6 C8 1_555 1_555
O3 C14 1_555 1_555
O4 C14 1_555 1_555
N6 C10 1_555 1_555
C9 C11 1_555 1_555
C10 H7 1_555 1_555
C11 H8 1_555 1_555
N7 N9 1_555 1_555
C12 N6 1_555 1_555
H9 C12 1_555 1_555
H10 C12 1_555 1_555
C13 N6 1_555 1_555
H11 C13 1_555 1_555
N8 N9 1_555 1_555
C14 C12 1_555 1_555
C15 C9 1_555 1_555
N10 N8 1_555 1_555
C16 C9 1_555 1_555
H12 C16 1_555 1_555
O5 H13 1_555 1_555
H14 O5 1_555 1_555
O6 H15 1_555 1_555
H16 O6 1_555 1_555
O7 H17 1_555 1_555
H18 O7 1_555 1_555
O8 H19 1_555 1_555
H20 O8 1_555 1_555
Ba1 O1 1_555 1_555
O9 H21 1_555 1_555
H22 O9 1_555 1_555
O10 H23 1_555 1_555
H24 O10 1_555 1_555
O11 H25 1_555 1_555
H26 O11 1_555 1_555
O12 H27 1_555 1_555
O1D Ba1 1_555 1_555
O2D C3D 1_555 1_555
C1D C2D 1_555 1_555
N1D C4D 1_555 1_555
N2D C2D 1_555 1_555
C2D N5D 1_555 1_555
N3D N2D 1_555 1_555
N4D N3D 1_555 1_555
N5D N4D 1_555 1_555
C3D O1D 1_555 1_555
C4D C3D 1_555 1_555
H1D C4D 1_555 1_555
H2D C4D 1_555 1_555
C5D N1D 1_555 1_555
H3D C5D 1_555 1_555
C6D C1D 1_555 1_555
H4D C6D 1_555 1_555
C7D C1D 1_555 1_555
H5D C7D 1_555 1_555
C8D N1D 1_555 1_555
H6D C8D 1_555 1_555
O3D C14D 1_555 1_555
O4D C14D 1_555 1_555
N6D C10D 1_555 1_555
C9D C11D 1_555 1_555
C10D H7D 1_555 1_555
C11D H8D 1_555 1_555
N7D N9D 1_555 1_555
C12D N6D 1_555 1_555
H9D C12D 1_555 1_555
H10D C12D 1_555 1_555
C13D N6D 1_555 1_555
H11D C13D 1_555 1_555
N8D N9D 1_555 1_555
C14D C12D 1_555 1_555
C15D C9D 1_555 1_555
N10D N8D 1_555 1_555
C16D C9D 1_555 1_555
H12D C16D 1_555 1_555
O5D H13D 1_555 1_555
H14D O5D 1_555 1_555
O6D Ba1 1_555 1_555
O6D_2 H15D_2 1_555 1_555
O6_2 H15_2 1_555 1_555
H15D O6D 1_555 1_555
H16D O6D 1_555 1_555
H16D_2 O6D_2 1_555 1_555
H16_2 O6_2 1_555 1_555
O7D H17D 1_555 1_555
H18D O7D 1_555 1_555
O8D H19D 1_555 1_555
H20D O8D 1_555 1_555
Ba1D O1 1_555 1_555
Ba1D_2 O6 1_555 1_555
H27A O12 1_555 1_555
O2 Ba1 1_555 1_555
C5 C7 1_555 1_555
C6 C8 1_555 1_555
O3 Ba1 1_555 1_555
O4 Ba1 1_555 1_555
C10 C16 1_555 1_555
C11 C13 1_555 1_555
N7 C15 1_555 1_555
C15 N10 1_555 1_555
O5 Ba1 1_555 1_555
O6 Ba1 1_555 1_555
O7 Ba1 1_555 1_555
O8 Ba1 1_555 1_555
O1D Ba1D 1_555 1_555
O2D Ba1D 1_555 1_555
C5D C7D 1_555 1_555
C6D C8D 1_555 1_555
O3D Ba1D 1_555 1_555
O4D Ba1D 1_555 1_555
C10D C16D 1_555 1_555
C11D C13D 1_555 1_555
N7D C15D 1_555 1_555
C15D N10D 1_555 1_555
O5D Ba1D 1_555 1_555
O6D Ba1D_2 1_555 1_555
O6D_2 Ba1D 1_555 1_555
O6_2 Ba1D 1_555 1_555
O7D Ba1D 1_555 1_555
O8D Ba1D 1_555 1_555

#END
