
#######################################################################
#
#                 Cambridge Crystallographic Data Centre
#                                CCDC 
#
#######################################################################
#
# If this CIF has been generated from an entry in the Cambridge 
# Structural Database, then it will include bibliographic, chemical, 
# crystal, experimental, refinement or atomic coordinate data resulting 
# from the CCDC's data processing and validation procedures.
#
#######################################################################

data_RUSTOP
_symmetry_cell_setting           monoclinic
_symmetry_space_group_name_H-M   'P 21/n'
_symmetry_Int_Tables_number      14
_space_group_name_Hall           '-P 2yn'
loop_
_symmetry_equiv_pos_site_id
_symmetry_equiv_pos_as_xyz
1 x,y,z
2 1/2-x,1/2+y,1/2-z
3 -x,-y,-z
4 1/2+x,1/2-y,1/2+z
_cell_length_a                   11.735(4)
_cell_length_b                   11.993(4)
_cell_length_c                   12.348(4)
_cell_angle_alpha                90
_cell_angle_beta                 99.699(6)
_cell_angle_gamma                90
_cell_volume                     1712.99
loop_
_atom_site_label
_atom_site_type_symbol
_atom_site_fract_x
_atom_site_fract_y
_atom_site_fract_z
O1 O 1.1311(6) 0.5004(7) 0.0479(7)
O2 O 0.9534(8) 0.4112(7) 0.0414(7)
O3 O 0.9589(8) 0.6012(7) 0.0039(7)
O4 O 1.0098(7) 0.4723(7) -0.1206(6)
Cl1 Cl 1.0000 0.5000 0.0000
O1B O 0.8689(6) 0.4996(7) -0.0479(7)
O2B O 1.0466(8) 0.5888(7) -0.0414(7)
O3B O 1.0411(8) 0.3988(7) -0.0039(7)
O4B O 0.9902(7) 0.5277(7) 0.1206(6)
Ag1 Ag 0.18079(3) -0.04341(3) -0.07170(3)
Ag2 Ag 0.16838(3) -0.37380(3) -0.58151(2)
Ag3 Ag 0.0000 -0.5000 -0.5000
Ag4 Ag 0.10889(3) 0.07625(3) 0.11177(3)
C1 C 0.0549(4) 0.0755(4) -0.2830(4)
C2 C 0.0062(4) 0.1574(4) -0.1277(4)
C3 C -0.0076(4) 0.1506(5) -0.3502(4)
C4 C -0.0590(4) 0.2365(4) -0.2017(4)
C5 C 0.2417(4) -0.1972(4) -0.4007(4)
C6 C 0.2580(4) -0.1431(4) -0.3027(4)
C7 C 0.1279(4) -0.3316(4) -0.3379(4)
C8 C 0.3499(4) -0.3283(4) 0.1224(4)
C9 C 0.1450(4) -0.2707(4) -0.2381(4)
C10 C 0.3433(4) -0.1920(4) 0.2480(4)
C11 C 0.3050(4) -0.2566(4) 0.0406(4)
C12 C 0.2973(3) -0.1136(4) 0.1649(3)
N1 N -0.0664(3) 0.2339(3) -0.3074(3)
N2 N 0.0651(3) 0.0756(3) -0.1727(3)
N3 N 0.0085(3) 0.1629(4) -0.0207(3)
N4 N 0.2069(3) -0.1802(3) -0.2189(3)
N5 N 0.1765(3) -0.2891(3) -0.4217(3)
N6 N 0.3684(3) -0.2957(3) 0.2280(3)
N7 N 0.2748(3) -0.0078(3) 0.1875(3)
N8 N 0.0661(3) -0.4246(3) -0.3536(3)
N9 N 0.2777(3) -0.1498(3) 0.0599(3)
H1 H 0.367(5) -0.404(6) 0.114(5)
H2 H 0.350(5) -0.168(5) 0.318(5)
H3 H 0.286(5) -0.279(5) -0.036(5)
H4 H -0.016(5) 0.149(5) -0.426(5)
H5 H 0.298(5) 0.004(5) 0.255(5)
H6 H 0.302(5) -0.072(5) -0.290(5)
H7 H 0.111(5) -0.299(5) -0.183(5)
H8 H 0.091(5) 0.022(5) -0.310(5)
H9 H -0.030(5) 0.227(5) -0.007(5)
H10 H 0.272(5) -0.164(5) -0.459(5)
H11 H 0.040(5) -0.444(5) -0.299(5)
H12 H -0.094(5) 0.297(5) -0.169(5)
Ag1B Ag -0.18079(3) -0.95659(3) -0.92830(3)
Ag1B_2 Ag -0.18079(3) 0.04341(3) -0.92830(3)
Ag1A Ag 0.31921(3) -0.54341(3) -0.42830(3)
Ag2B Ag -0.16838(3) -0.62620(3) -0.41849(2)
Ag2B_2 Ag -0.16838(3) 0.37380(3) -0.41849(2)
Ag2A Ag 0.33162(3) 0.12620(3) 0.08151(2)
Ag4B Ag -0.10889(3) -0.07625(3) -1.11177(3)
Ag4A Ag 0.39111(3) -0.42375(3) 0.38823(3)
Ag4_2 Ag 0.10889(3) -0.92375(3) -0.88823(3)
Ag4A_2 Ag 0.39111(3) -0.42375(3) -0.61177(3)
C1B C -0.0549(4) -0.0755(4) -0.7170(4)
C2B C -0.0062(4) -0.1574(4) -0.8723(4)
C3B C 0.0076(4) -0.1506(5) -0.6498(4)
C4B C 0.0590(4) -0.2365(4) -0.7983(4)
C5B C -0.2417(4) -0.8028(4) -0.5993(4)
C6B C -0.2580(4) -0.8569(4) -0.6973(4)
C7B C -0.1279(4) -0.6684(4) -0.6621(4)
C8A C 0.1501(4) -0.8283(4) -0.6224(4)
C9B C -0.1450(4) -0.7293(4) -0.7619(4)
C10A C 0.1567(4) -0.6920(4) -0.7480(4)
C11A C 0.1950(4) -0.7566(4) -0.5406(4)
C12A C 0.2027(3) -0.6136(4) -0.6649(3)
N1B N 0.0664(3) -0.2339(3) -0.6926(3)
N1_2 N -0.0664(3) -0.7661(3) -0.3074(3)
N2B N -0.0651(3) -0.0756(3) -0.8273(3)
N2B_2 N -0.0651(3) -1.0756(3) -0.8273(3)
N3B N -0.0085(3) -0.1629(4) -0.9793(3)
N4B N -0.2069(3) -0.8198(3) -0.7811(3)
N5B N -0.1765(3) -0.7109(3) -0.5783(3)
N6A N 0.1316(3) -0.7957(3) -0.7280(3)
N6A_2 N 0.1316(3) 0.2043(3) 0.2720(3)
N6C N -0.1316(3) -0.2043(3) -1.2720(3)
N7A N 0.2252(3) -0.5078(3) -0.6875(3)
N7C N -0.2252(3) -0.4922(3) -0.3125(3)
N7B N -0.2748(3) 0.0078(3) -1.1875(3)
N8B N -0.0661(3) -0.5754(3) -0.6464(3)
N9A N 0.2223(3) -0.6498(3) -0.5599(3)
N9B N -0.2777(3) -0.8502(3) -1.0599(3)
H1A H 0.133(5) -0.904(6) -0.614(5)
H2A H 0.150(5) -0.668(5) -0.818(5)
H3A H 0.214(5) -0.779(5) -0.464(5)
H4B H 0.016(5) -0.149(5) -0.574(5)
H5A H 0.202(5) -0.496(5) -0.755(5)
H5C H -0.202(5) -0.504(5) -0.245(5)
H5B H -0.298(5) -0.004(5) -1.255(5)
H6B H -0.302(5) -0.928(5) -0.710(5)
H7B H -0.111(5) -0.701(5) -0.817(5)
H8B H -0.091(5) -0.022(5) -0.690(5)
H9B H 0.030(5) -0.227(5) -0.993(5)
H10B H -0.272(5) -0.836(5) -0.541(5)
H11B H -0.040(5) -0.556(5) -0.701(5)
H12B H 0.094(5) -0.297(5) -0.831(5)
loop_
_geom_bond_atom_site_label_1
_geom_bond_atom_site_label_2
_geom_bond_site_symmetry_1
_geom_bond_site_symmetry_2
Ag1 N2 1_555 1_555
Ag2 N5 1_555 1_555
Ag3 N8 1_555 1_555
Ag4 N3 1_555 1_555
C1 C3 1_555 1_555
C2 C4 1_555 1_555
C3 N1 1_555 1_555
C4 N1 1_555 1_555
C5 C6 1_555 1_555
C6 N4 1_555 1_555
C7 C9 1_555 1_555
C8 C11 1_555 1_555
C9 N4 1_555 1_555
C10 C12 1_555 1_555
C11 N9 1_555 1_555
C12 N7 1_555 1_555
N1 Ag2B_2 1_555 1_555
N2 C1 1_555 1_555
N3 C2 1_555 1_555
N4 Ag1 1_555 1_555
N5 C5 1_555 1_555
N6 C8 1_555 1_555
N7 Ag4 1_555 1_555
N8 C7 1_555 1_555
N9 Ag1 1_555 1_555
O1 Cl1 1_555 1_555
O2 Cl1 1_555 1_555
O3 Cl1 1_555 1_555
O4 Cl1 1_555 1_555
Cl1 O1B 1_555 1_555
H1 C8 1_555 1_555
H2 C10 1_555 1_555
H3 C11 1_555 1_555
H4 C3 1_555 1_555
H5 N7 1_555 1_555
H6 C6 1_555 1_555
H7 C9 1_555 1_555
H8 C1 1_555 1_555
H9 N3 1_555 1_555
H10 C5 1_555 1_555
H11 N8 1_555 1_555
H12 C4 1_555 1_555
Ag1B N2B_2 1_555 1_555
Ag1B_2 N2B 1_555 1_555
Ag1A N9A 1_555 1_555
Ag2B N1_2 1_555 1_555
Ag2A N7 1_555 1_555
Ag4B N3B 1_555 1_555
Ag4A N6 1_555 1_555
Ag4_2 N6A 1_555 1_555
Ag4A_2 N7A 1_555 1_555
C1B C3B 1_555 1_555
C2B C4B 1_555 1_555
C3B N1B 1_555 1_555
C4B N1B 1_555 1_555
C5B C6B 1_555 1_555
C6B N4B 1_555 1_555
C7B C9B 1_555 1_555
C8A C11A 1_555 1_555
C9B N4B 1_555 1_555
C10A C12A 1_555 1_555
C11A N9A 1_555 1_555
C12A N7A 1_555 1_555
N1B Ag2 1_555 1_555
N2B C1B 1_555 1_555
N3B C2B 1_555 1_555
N4B Ag1B 1_555 1_555
N5B Ag2B 1_555 1_555
N6A C8A 1_555 1_555
N6A_2 Ag4 1_555 1_555
N6C Ag4B 1_555 1_555
N7A Ag2 1_555 1_555
N7C Ag2B 1_555 1_555
N7B Ag4B 1_555 1_555
N8B Ag3 1_555 1_555
N9A C12A 1_555 1_555
N9B Ag1B 1_555 1_555
O2B Cl1 1_555 1_555
O3B Cl1 1_555 1_555
O4B Cl1 1_555 1_555
H1A C8A 1_555 1_555
H2A C10A 1_555 1_555
H3A C11A 1_555 1_555
H4B C3B 1_555 1_555
H5A N7A 1_555 1_555
H5C N7C 1_555 1_555
H5B N7B 1_555 1_555
H6B C6B 1_555 1_555
H7B C9B 1_555 1_555
H8B C1B 1_555 1_555
H9B N3B 1_555 1_555
H10B C5B 1_555 1_555
H11B N8B 1_555 1_555
H12B C4B 1_555 1_555
C2 N2 1_555 1_555
C7 N5 1_555 1_555
C10 N6 1_555 1_555
C12 N9 1_555 1_555
C2B N2B 1_555 1_555
C5B N5B 1_555 1_555
C7B N5B 1_555 1_555
C7B N8B 1_555 1_555
C10A N6A 1_555 1_555

#END
