
#######################################################################
#
#                 Cambridge Crystallographic Data Centre
#                                CCDC 
#
#######################################################################
#
# If this CIF has been generated from an entry in the Cambridge 
# Structural Database, then it will include bibliographic, chemical, 
# crystal, experimental, refinement or atomic coordinate data resulting 
# from the CCDC's data processing and validation procedures.
#
#######################################################################

data_RUSTIJ
_symmetry_cell_setting           triclinic
_symmetry_space_group_name_H-M   'P -1'
_symmetry_Int_Tables_number      2
_space_group_name_Hall           '-P 1'
loop_
_symmetry_equiv_pos_site_id
_symmetry_equiv_pos_as_xyz
1 x,y,z
2 -x,-y,-z
_cell_length_a                   8.190(2)
_cell_length_b                   10.228(3)
_cell_length_c                   11.658(3)
_cell_angle_alpha                114.561(4)
_cell_angle_beta                 98.621(4)
_cell_angle_gamma                99.697(4)
_cell_volume                     848.762
loop_
_atom_site_label
_atom_site_type_symbol
_atom_site_fract_x
_atom_site_fract_y
_atom_site_fract_z
Dy1 Dy 0.37548(2) 0.089278(18) 0.154958(16)
O1 O 0.3375(4) 0.1040(4) 0.3573(3)
O2 O 0.1076(4) -0.0114(4) 0.1981(3)
O3 O 0.4122(5) -0.1359(3) 0.1581(3)
O4 O 0.4719(4) -0.1541(3) -0.0222(3)
O5 O 0.6818(3) 0.1530(3) 0.2607(3)
O6 O 0.5479(3) 0.3301(3) 0.3169(3)
O7 O 0.2141(4) 0.2582(3) 0.1590(3)
O8 O 0.1792(4) -0.0273(4) -0.0537(3)
H1 H 0.081(5) -0.011(7) -0.092(5)
H2 H 0.221(7) -0.075(6) -0.126(4)
N1 N 0.3506(12) 0.0440(19) 0.5597(12)
H3 H 0.4089 0.0416 0.5036
H4 H 0.4005 0.0554 0.6348
N2 N 0.5405(16) -0.3078(10) 0.2516(9)
H5 H 0.5612 -0.3387 0.3092
H6 H 0.5298 -0.2188 0.2746
N3 N 0.7045(9) 0.5972(8) 0.4789(7)
H7 H 0.7076 0.6894 0.5228
H8 H 0.6104 0.5350 0.4271
N4 N 0.1216(6) 0.4619(5) 0.1927(5)
C1 C 0.1826(5) 0.0332(5) 0.3155(4)
C2 C 0.1789(6) 0.0296(7) 0.5294(5)
C3 C 0.0884(5) 0.0107(5) 0.4097(4)
C4 C -0.0874(6) -0.0201(6) 0.3811(5)
H9 H -0.1466 -0.0350 0.3003
C5 C 0.4547(5) -0.2069(4) 0.0559(4)
C6 C 0.5252(7) -0.3954(5) 0.1302(4)
C7 C 0.4798(5) -0.3574(4) 0.0290(4)
C8 C 0.4563(6) -0.4619(5) -0.0984(4)
H10 H 0.4273 -0.4360 -0.1649
C9 C 0.6848(5) 0.2879(4) 0.3265(4)
C10 C 0.9956(5) 0.3536(4) 0.4261(4)
H11 H 0.9921 0.2544 0.3757
C11 C 0.8458(5) 0.3993(4) 0.4161(4)
C12 C 0.8494(5) 0.5494(4) 0.4912(4)
C13 C 0.2284(7) 0.3924(6) 0.2194(5)
H12 H 0.3228 0.4482 0.2894
C14 C -0.0287(9) 0.3819(9) 0.0893(10)
H13 H 0.0027 0.3296 0.0096
H14 H -0.0909 0.4503 0.0807
H15 H -0.0992 0.3121 0.1081
C15 C 0.1461(11) 0.6211(7) 0.2720(7)
H16 H 0.2499 0.6596 0.3391
H17 H 0.0514 0.6376 0.3108
H18 H 0.1532 0.6709 0.2182
Dy1A Dy -0.37548(2) -0.089278(18) 0.845042(16)
Dy1_2 Dy 0.37548(2) -0.910722(18) 0.154958(16)
Dy1A_2 Dy 0.62452(2) -1.089278(18) -0.154958(16)
Dy1A_3 Dy 0.62452(2) -0.089278(18) -0.154958(16)
Dy1A_4 Dy 1.62452(2) 0.910722(18) 0.845042(16)
O1A O -0.3375(4) -0.1040(4) 0.6427(3)
O2A O -0.1076(4) 0.0114(4) 0.8019(3)
O3A O 0.5878(5) -0.8641(3) -0.1581(3)
O3A_2 O -0.4122(5) 0.1359(3) 0.8419(3)
O4A O 0.5281(4) -0.8459(3) 0.0222(3)
O4_2 O -0.5281(4) -0.1541(3) 0.9778(3)
O4A_2 O 0.5281(4) 0.1541(3) 0.0222(3)
O4A_3 O -0.4719(4) 0.1541(3) 1.0222(3)
O5A O 1.3182(3) 0.8470(3) 0.7393(3)
O5A_2 O -0.6818(3) -0.1530(3) 0.7393(3)
O6A O 1.4521(3) 0.6699(3) 0.6831(3)
O6A_2 O -0.5479(3) -0.3301(3) 0.6831(3)
O7A O -0.2141(4) -0.2582(3) 0.8410(3)
O8A O -0.1792(4) 0.0273(4) 1.0537(3)
H1A H -0.081(5) 0.011(7) 1.092(5)
H2A H -0.221(7) 0.075(6) 1.126(4)
N1A N -0.3506(12) -0.0440(19) 0.4403(12)
H3A H -0.4089 -0.0416 0.4964
H4A H -0.4005 -0.0554 0.3652
N2A N 0.4595(16) -0.6922(10) -0.2516(9)
H5A H 0.4388 -0.6613 -0.3092
H6A H 0.4702 -0.7812 -0.2746
N3A N 1.2955(9) 0.4028(8) 0.5211(7)
H7A H 1.2924 0.3106 0.4772
H8A H 1.3896 0.4650 0.5729
N4A N -0.1216(6) -0.4619(5) 0.8073(5)
C1A C -0.1826(5) -0.0332(5) 0.6845(4)
C2A C -0.1789(6) -0.0296(7) 0.4706(5)
C3A C -0.0884(5) -0.0107(5) 0.5903(4)
C4A C 0.0874(6) 0.0201(6) 0.6189(5)
H9A H 0.1466 0.0350 0.6997
C5A C 0.5453(5) -0.7931(4) -0.0559(4)
C6A C 0.4748(7) -0.6046(5) -0.1302(4)
C7A C 0.5202(5) -0.6426(4) -0.0290(4)
C8A C 0.5437(6) -0.5381(5) 0.0984(4)
H10A H 0.5727 -0.5640 0.1649
C9A C 1.3152(5) 0.7121(4) 0.6735(4)
C9A_2 C -0.6848(5) -0.2879(4) 0.6735(4)
C10A C 1.0044(5) 0.6464(4) 0.5739(4)
H11A H 1.0079 0.7456 0.6243
C11A C 1.1542(5) 0.6007(4) 0.5839(4)
C12A C 1.1506(5) 0.4506(4) 0.5088(4)
C13A C -0.2284(7) -0.3924(6) 0.7806(5)
H12A H -0.3228 -0.4482 0.7106
C14A C 0.0287(9) -0.3819(9) 0.9107(10)
H13A H -0.0027 -0.3296 0.9904
H14A H 0.0909 -0.4503 0.9193
H15A H 0.0992 -0.3121 0.8919
C15A C -0.1461(11) -0.6211(7) 0.7280(7)
H16A H -0.2499 -0.6596 0.6609
H17A H -0.0514 -0.6376 0.6892
H18A H -0.1532 -0.6709 0.7818
loop_
_geom_bond_atom_site_label_1
_geom_bond_atom_site_label_2
_geom_bond_site_symmetry_1
_geom_bond_site_symmetry_2
Dy1 O1 1_555 1_555
O1 C1 1_555 1_555
O2 Dy1 1_555 1_555
O3 Dy1 1_555 1_555
O4 Dy1 1_555 1_555
O5 Dy1 1_555 1_555
O6 Dy1 1_555 1_555
O7 Dy1 1_555 1_555
O8 Dy1 1_555 1_555
H1 O8 1_555 1_555
H2 O8 1_555 1_555
N1 H3 1_555 1_555
H4 N1 1_555 1_555
N2 H5 1_555 1_555
H6 N2 1_555 1_555
N3 H7 1_555 1_555
H8 N3 1_555 1_555
N4 C13 1_555 1_555
C1 O2 1_555 1_555
C2 N1 1_555 1_555
C3 C1 1_555 1_555
C4 C3 1_555 1_555
H9 C4 1_555 1_555
C5 O3 1_555 1_555
C6 N2 1_555 1_555
C7 C5 1_555 1_555
C8 C7 1_555 1_555
H10 C8 1_555 1_555
C9 O5 1_555 1_555
C10 H11 1_555 1_555
C11 C9 1_555 1_555
C12 N3 1_555 1_555
C13 O7 1_555 1_555
H12 C13 1_555 1_555
C14 N4 1_555 1_555
H13 C14 1_555 1_555
H14 C14 1_555 1_555
H15 C14 1_555 1_555
C15 N4 1_555 1_555
H16 C15 1_555 1_555
H17 C15 1_555 1_555
H18 C15 1_555 1_555
Dy1A O1A 1_555 1_555
Dy1_2 O4A 1_555 1_555
Dy1A_2 O3A 1_555 1_555
Dy1A_3 O4 1_555 1_555
Dy1A_4 O5A 1_555 1_555
O1A C1A 1_555 1_555
O2A Dy1A 1_555 1_555
O3A C5A 1_555 1_555
O3A_2 Dy1A 1_555 1_555
O4A Dy1A_2 1_555 1_555
O4_2 Dy1A 1_555 1_555
O4A_2 Dy1 1_555 1_555
O4A_3 Dy1A 1_555 1_555
O5A C9A 1_555 1_555
O5A_2 Dy1A 1_555 1_555
O6A Dy1A_4 1_555 1_555
O6A_2 Dy1A 1_555 1_555
O7A Dy1A 1_555 1_555
O8A Dy1A 1_555 1_555
H1A O8A 1_555 1_555
H2A O8A 1_555 1_555
N1A H3A 1_555 1_555
H4A N1A 1_555 1_555
N2A H5A 1_555 1_555
H6A N2A 1_555 1_555
N3A H7A 1_555 1_555
H8A N3A 1_555 1_555
N4A C13A 1_555 1_555
C1A O2A 1_555 1_555
C2A C4 1_555 1_555
C3A C1A 1_555 1_555
C4A C2 1_555 1_555
H9A C4A 1_555 1_555
C5A O4A 1_555 1_555
C6A C8 1_555 1_555
C7A C5A 1_555 1_555
C8A C6 1_555 1_555
H10A C8A 1_555 1_555
C9A O6A 1_555 1_555
C9A_2 O5A_2 1_555 1_555
C10A C12 1_555 1_555
H11A C10A 1_555 1_555
C11A C9A 1_555 1_555
C12A C10 1_555 1_555
C13A O7A 1_555 1_555
H12A C13A 1_555 1_555
C14A N4A 1_555 1_555
H13A C14A 1_555 1_555
H14A C14A 1_555 1_555
H15A C14A 1_555 1_555
C15A N4A 1_555 1_555
H16A C15A 1_555 1_555
H17A C15A 1_555 1_555
H18A C15A 1_555 1_555
O4 C5 1_555 1_555
O6 C9 1_555 1_555
C2 C3 1_555 1_555
C6 C7 1_555 1_555
C10 C11 1_555 1_555
C11 C12 1_555 1_555
Dy1A_3 O4A_2 1_555 1_555
O6A_2 C9A_2 1_555 1_555
N1A C2A 1_555 1_555
N2A C6A 1_555 1_555
N3A C12A 1_555 1_555
C2A C3A 1_555 1_555
C3A C4A 1_555 1_555
C6A C7A 1_555 1_555
C7A C8A 1_555 1_555
C10A C11A 1_555 1_555
C11A C12A 1_555 1_555

#END
