
#######################################################################
#
#                 Cambridge Crystallographic Data Centre
#                                CCDC 
#
#######################################################################
#
# If this CIF has been generated from an entry in the Cambridge 
# Structural Database, then it will include bibliographic, chemical, 
# crystal, experimental, refinement or atomic coordinate data resulting 
# from the CCDC's data processing and validation procedures.
#
#######################################################################

data_RUSYEK
_symmetry_cell_setting           orthorhombic
_symmetry_space_group_name_H-M   'P n n n'
_symmetry_Int_Tables_number      48
_space_group_name_Hall           '-P 2ab 2bc'
loop_
_symmetry_equiv_pos_site_id
_symmetry_equiv_pos_as_xyz
1 x,y,z
2 1/2-x,1/2-y,z
3 x,1/2-y,1/2-z
4 1/2-x,y,1/2-z
5 -x,-y,-z
6 1/2+x,1/2+y,-z
7 -x,1/2+y,1/2+z
8 1/2+x,-y,1/2+z
_cell_length_a                   14.172(5)
_cell_length_b                   24.011(5)
_cell_length_c                   26.274(5)
_cell_angle_alpha                90
_cell_angle_beta                 90
_cell_angle_gamma                90
_cell_volume                     8940.62
loop_
_atom_site_label
_atom_site_type_symbol
_atom_site_fract_x
_atom_site_fract_y
_atom_site_fract_z
Cu1 Cu -0.2500 0.4826(2) 0.7500
C8 C 0.1182(16) 0.4494(8) 0.7794(9)
H7 H 0.1461 0.4716 0.7524
H8 H 0.1573 0.4546 0.8093
C12 C 0.1289(11) 0.3612(5) 0.8088(5)
H12 H 0.1306 0.3779 0.8407
C13 C 0.1295(10) 0.3034(4) 0.8047(6)
H13 H 0.1316 0.2815 0.8338
C14 C 0.1270(10) 0.2785(3) 0.7570(7)
C15 C 0.1239(10) 0.3112(6) 0.7134(5)
H14 H 0.1222 0.2945 0.6814
C16 C 0.1233(10) 0.3689(6) 0.7175(5)
H15 H 0.1212 0.3908 0.6883
C17 C 0.1258(11) 0.3939(3) 0.7652(7)
N3 N -0.1327(10) 0.4835(7) 0.7821(6)
C18 C -0.0514(13) 0.4718(7) 0.7573(5)
H16 H -0.0457 0.4632 0.7230
N4 N 0.0201(10) 0.4749(7) 0.7913(7)
C19 C -0.0170(12) 0.4884(7) 0.8371(6)
H17 H 0.0165 0.4932 0.8672
C20 C -0.1114(12) 0.4937(7) 0.8315(6)
H18 H -0.1542 0.5027 0.8570
Cu1A Cu -0.2500 0.0174(2) 0.7500
C8B C 0.1182(16) 0.0506(8) 0.7206(9)
H7B H 0.1461 0.0284 0.7476
H8B H 0.1573 0.0454 0.6907
C12B C 0.1289(11) 0.1388(5) 0.6912(5)
H12B H 0.1306 0.1221 0.6593
C13B C 0.1295(10) 0.1966(4) 0.6953(6)
H13B H 0.1316 0.2185 0.6662
C14B C 0.1270(10) 0.2215(3) 0.7430(7)
C15B C 0.1239(10) 0.1888(6) 0.7866(5)
H14B H 0.1222 0.2055 0.8186
C16B C 0.1233(10) 0.1311(6) 0.7825(5)
H15B H 0.1212 0.1092 0.8117
C17B C 0.1258(11) 0.1061(3) 0.7348(7)
N3B N -0.1327(10) 0.0165(7) 0.7179(6)
N3C N -0.3673(10) 0.4835(7) 0.7179(6)
C18B C -0.0514(13) 0.0282(7) 0.7427(5)
H16B H -0.0457 0.0368 0.7770
N4B N 0.0201(10) 0.0251(7) 0.7087(7)
C19B C -0.0170(12) 0.0116(7) 0.6629(6)
H17B H 0.0165 0.0068 0.6328
C20B C -0.1114(12) 0.0063(7) 0.6685(6)
H18B H -0.1542 -0.0027 0.6430
Cu2 Cu 1.0000 -0.5000 0.0000
C1 C 1.1224(11) -0.2593(7) 0.2246(3)
C2 C 1.1411(12) -0.3137(8) 0.2095(7)
H1 H 1.1499 -0.3408 0.2343
C3 C 1.1075(11) -0.2376(7) 0.1343(7)
H2 H 1.0942 -0.2116 0.1091
C4 C 1.1325(11) -0.2931(7) 0.1213(7)
C5 C 1.1031(11) -0.2229(8) 0.1849(7)
H3 H 1.0863 -0.1865 0.1929
C6 C 1.1470(12) -0.3285(8) 0.1599(8)
H4 H 1.1618 -0.3653 0.1522
C7 C 1.1415(14) -0.3082(8) 0.0662(7)
H5 H 1.1331 -0.2750 0.0456
H6 H 1.2044 -0.3224 0.0598
N1 N 1.0720(11) -0.3501(6) 0.0508(5)
C9 C 0.9786(12) -0.3439(7) 0.0480(7)
H9 H 0.9451 -0.3116 0.0554
C10 C 0.9418(11) -0.3922(9) 0.0329(7)
H10 H 0.8781 -0.3995 0.0278
N2 N 1.0123(14) -0.4282(6) 0.0263(5)
C11 C 1.0928(11) -0.4022(7) 0.0374(6)
H11 H 1.1529 -0.4176 0.0360
Cu2B Cu 1.0000 0.0000 0.5000
C1B C 1.1224(11) -0.2407(7) 0.2754(3)
C2B C 1.1411(12) -0.1863(8) 0.2905(7)
H1B H 1.1499 -0.1592 0.2657
C3B C 1.1075(11) -0.2624(7) 0.3657(7)
H2B H 1.0942 -0.2884 0.3909
C4B C 1.1325(11) -0.2069(7) 0.3787(7)
C5B C 1.1031(11) -0.2771(8) 0.3151(7)
H3B H 1.0863 -0.3135 0.3071
C6B C 1.1470(12) -0.1715(8) 0.3401(8)
H4B H 1.1618 -0.1347 0.3478
C7B C 1.1415(14) -0.1918(8) 0.4338(7)
H5B H 1.1331 -0.2250 0.4544
H6B H 1.2044 -0.1776 0.4402
N1B N 1.0720(11) -0.1499(6) 0.4492(5)
C9B C 0.9786(12) -0.1561(7) 0.4520(7)
H9B H 0.9451 -0.1884 0.4446
C10B C 0.9418(11) -0.1078(9) 0.4671(7)
H10B H 0.8781 -0.1005 0.4722
N2B N 1.0123(14) -0.0718(6) 0.4737(5)
N2D N 0.9877(14) -0.5718(6) -0.0263(5)
C11B C 1.0928(11) -0.0978(7) 0.4626(6)
H11B H 1.1529 -0.0824 0.4640
W1 W 0.29439(6) 0.06052(4) 0.44653(3)
W2 W 0.59673(6) -0.12396(4) 0.44598(3)
W3 W 0.39063(6) -0.06295(4) 0.39248(3)
W4 W 0.28259(6) -0.00515(4) 0.56777(3)
W5 W 0.48851(7) -0.06593(4) 0.62092(3)
W6 W 0.37953(7) -0.12891(4) 0.51305(3)
P1 P 0.5000 0.0000 0.5000
O1 O 0.1794(9) -0.0088(7) 0.5991(5)
O2 O 0.3388(8) -0.0911(5) 0.3413(5)
O3 O 0.3195(10) -0.1886(5) 0.5207(5)
O4 O 0.6375(12) -0.1821(6) 0.4211(6)
O5 O 0.1968(9) 0.0884(7) 0.4196(7)
O6 O 0.4368(15) -0.0335(8) 0.5366(7)
O7 O 0.4396(12) -0.1216(5) 0.5777(6)
O8 O 0.2442(10) 0.0218(6) 0.5027(5)
O9 O 0.5052(9) -0.1040(7) 0.3964(5)
O10 O 0.3450(10) -0.1077(6) 0.4460(5)
O11 O 0.4435(15) 0.0145(7) 0.4546(7)
O12 O 0.4607(9) -0.0059(5) 0.3628(5)
O13 O 0.4772(12) -0.0575(9) 0.4731(7)
O14 O 0.3878(9) 0.0861(5) 0.4009(5)
O15 O 0.6719(10) -0.0701(5) 0.4189(5)
O16 O 0.3016(9) -0.0089(5) 0.4121(5)
O17 O 0.3319(11) 0.1159(5) 0.4935(5)
O18 O 0.4843(10) -0.0960(7) 0.6787(5)
O19 O 0.3659(10) -0.0303(6) 0.6177(6)
O20 O 0.2902(11) -0.0774(7) 0.5373(6)
O21 O 0.4978(9) -0.1523(7) 0.4866(6)
O22 O 0.4097(15) 0.0274(9) 0.5094(8)
W1D W 0.70561(6) -0.06052(4) 0.55347(3)
W2D W 0.40327(6) 0.12396(4) 0.55402(3)
W3D W 0.60937(6) 0.06295(4) 0.60752(3)
W4D W 0.71741(6) 0.00515(4) 0.43223(3)
W5D W 0.51149(7) 0.06593(4) 0.37908(3)
W6D W 0.62047(7) 0.12891(4) 0.48695(3)
O1D O 0.8206(9) 0.0088(7) 0.4009(5)
O2D O 0.6612(8) 0.0911(5) 0.6587(5)
O3D O 0.6805(10) 0.1886(5) 0.4793(5)
O4D O 0.3625(12) 0.1821(6) 0.5789(6)
O5D O 0.8032(9) -0.0884(7) 0.5804(7)
O6D O 0.5632(15) 0.0335(8) 0.4634(7)
O7D O 0.5604(12) 0.1216(5) 0.4223(6)
O8D O 0.7558(10) -0.0218(6) 0.4973(5)
O9D O 0.4948(9) 0.1040(7) 0.6036(5)
O10D O 0.6550(10) 0.1077(6) 0.5540(5)
O11D O 0.5565(15) -0.0145(7) 0.5454(7)
O12D O 0.5393(9) 0.0059(5) 0.6372(5)
O13D O 0.5228(12) 0.0575(9) 0.5269(7)
O14D O 0.6122(9) -0.0861(5) 0.5991(5)
O15D O 0.3281(10) 0.0701(5) 0.5811(5)
O16D O 0.6984(9) 0.0089(5) 0.5879(5)
O17D O 0.6681(11) -0.1159(5) 0.5065(5)
O18D O 0.5157(10) 0.0960(7) 0.3213(5)
O19D O 0.6341(10) 0.0303(6) 0.3823(6)
O20D O 0.7098(11) 0.0774(7) 0.4627(6)
O21D O 0.5022(9) 0.1523(7) 0.5134(6)
O22D O 0.5903(15) -0.0274(9) 0.4906(8)
loop_
_geom_bond_atom_site_label_1
_geom_bond_atom_site_label_2
_geom_bond_site_symmetry_1
_geom_bond_site_symmetry_2
W1 O5 1_555 1_555
W2 O4 1_555 1_555
W3 O2 1_555 1_555
W4 O1 1_555 1_555
W5 O6 1_555 1_555
W6 O3 1_555 1_555
P1 O6 1_555 1_555
O6 W4 1_555 1_555
O7 W5 1_555 1_555
O8 W1 1_555 1_555
O9 W2 1_555 1_555
O10 W3 1_555 1_555
O11 W1 1_555 1_555
O12 W3 1_555 1_555
O13 W2 1_555 1_555
O14 W1 1_555 1_555
O15 W2 1_555 1_555
O16 W1 1_555 1_555
Cu1 N3 1_555 1_555
Cu2 N2 1_555 1_555
O17 W1 1_555 1_555
C1 C2 1_555 1_555
C2 H1 1_555 1_555
O18 W5 1_555 1_555
C3 H2 1_555 1_555
C4 C3 1_555 1_555
C5 C1 1_555 1_555
H3 C5 1_555 1_555
O19 W4 1_555 1_555
O20 W4 1_555 1_555
C6 C2 1_555 1_555
H4 C6 1_555 1_555
O21 W2 1_555 1_555
C7 C4 1_555 1_555
H5 C7 1_555 1_555
H6 C7 1_555 1_555
O22 W1 1_555 1_555
C8 H7 1_555 1_555
H8 C8 1_555 1_555
N1 C7 1_555 1_555
C9 N1 1_555 1_555
H9 C9 1_555 1_555
C10 C9 1_555 1_555
H10 C10 1_555 1_555
N2 C10 1_555 1_555
C11 N1 1_555 1_555
H11 C11 1_555 1_555
C12 H12 1_555 1_555
C13 C12 1_555 1_555
H13 C13 1_555 1_555
C14 C13 1_555 1_555
C15 C14 1_555 1_555
H14 C15 1_555 1_555
C16 C15 1_555 1_555
H15 C16 1_555 1_555
C17 C8 1_555 1_555
N3 C18 1_555 1_555
C18 H16 1_555 1_555
N4 C8 1_555 1_555
C19 N4 1_555 1_555
H17 C19 1_555 1_555
C20 N3 1_555 1_555
H18 C20 1_555 1_555
W1D O5D 1_555 1_555
W2D O17 1_555 1_555
W3D O2D 1_555 1_555
W4D O15 1_555 1_555
W5D O11 1_555 1_555
W6D O3D 1_555 1_555
O1D W4D 1_555 1_555
O4D W2D 1_555 1_555
O6D P1 1_555 1_555
O7D W5D 1_555 1_555
O8D W1D 1_555 1_555
O9D W2D 1_555 1_555
O10D W3D 1_555 1_555
O11D W5 1_555 1_555
O12D W5 1_555 1_555
O13D P1 1_555 1_555
O14D W5 1_555 1_555
O15D W4 1_555 1_555
O16D W1D 1_555 1_555
Cu1A N3B 1_555 1_555
Cu2B N2B 1_555 1_555
O17D W2 1_555 1_555
C1B C1 1_555 1_555
C2B C1B 1_555 1_555
H1B C2B 1_555 1_555
O18D W5D 1_555 1_555
C3B H2B 1_555 1_555
C4B C3B 1_555 1_555
C5B C1B 1_555 1_555
H3B C5B 1_555 1_555
O19D W4D 1_555 1_555
O20D W4D 1_555 1_555
C6B C2B 1_555 1_555
H4B C6B 1_555 1_555
O21D W2D 1_555 1_555
C7B C4B 1_555 1_555
H5B C7B 1_555 1_555
H6B C7B 1_555 1_555
O22D W2 1_555 1_555
C8B H7B 1_555 1_555
H8B C8B 1_555 1_555
N1B C7B 1_555 1_555
C9B N1B 1_555 1_555
H9B C9B 1_555 1_555
C10B C9B 1_555 1_555
H10B C10B 1_555 1_555
N2B C10B 1_555 1_555
N2D Cu2 1_555 1_555
C11B N1B 1_555 1_555
H11B C11B 1_555 1_555
C12B H12B 1_555 1_555
C13B C12B 1_555 1_555
H13B C13B 1_555 1_555
C14B C14 1_555 1_555
C15B C14B 1_555 1_555
H14B C15B 1_555 1_555
C16B C15B 1_555 1_555
H15B C16B 1_555 1_555
C17B C8B 1_555 1_555
N3B C18B 1_555 1_555
N3C Cu1 1_555 1_555
C18B H16B 1_555 1_555
N4B C8B 1_555 1_555
C19B N4B 1_555 1_555
H17B C19B 1_555 1_555
C20B N3B 1_555 1_555
H18B C20B 1_555 1_555
W3 O9 1_555 1_555
W3 O11 1_555 1_555
W3 O13 1_555 1_555
W3 O16 1_555 1_555
W4 O8 1_555 1_555
W4 O22 1_555 1_555
W5 O19 1_555 1_555
W6 O6 1_555 1_555
W6 O7 1_555 1_555
W6 O10 1_555 1_555
W6 O13 1_555 1_555
W6 O20 1_555 1_555
W6 O21 1_555 1_555
P1 O11 1_555 1_555
P1 O13 1_555 1_555
P1 O22 1_555 1_555
P1 O11D 1_555 1_555
P1 O22D 1_555 1_555
O6 O13 1_555 1_555
O6 O22 1_555 1_555
O6 O11D 1_555 1_555
O11 O13 1_555 1_555
O11 O22 1_555 1_555
O11 O6D 1_555 1_555
O12 W5D 1_555 1_555
O13 O22D 1_555 1_555
O14 W5D 1_555 1_555
C3 C5 1_555 1_555
C4 C6 1_555 1_555
O22 W2D 1_555 1_555
O22 O13D 1_555 1_555
N2 C11 1_555 1_555
C12 C17 1_555 1_555
C16 C17 1_555 1_555
C18 N4 1_555 1_555
C19 C20 1_555 1_555
W1D O11D 1_555 1_555
W1D O14D 1_555 1_555
W1D O17D 1_555 1_555
W1D O22D 1_555 1_555
W2D O13D 1_555 1_555
W2D O15D 1_555 1_555
W3D O9D 1_555 1_555
W3D O11D 1_555 1_555
W3D O12D 1_555 1_555
W3D O13D 1_555 1_555
W3D O16D 1_555 1_555
W4D O6D 1_555 1_555
W4D O8D 1_555 1_555
W4D O22D 1_555 1_555
W5D O6D 1_555 1_555
W5D O19D 1_555 1_555
W6D O6D 1_555 1_555
W6D O7D 1_555 1_555
W6D O10D 1_555 1_555
W6D O13D 1_555 1_555
W6D O20D 1_555 1_555
W6D O21D 1_555 1_555
O6D O13D 1_555 1_555
O6D O22D 1_555 1_555
O11D O13D 1_555 1_555
O11D O22D 1_555 1_555
C3B C5B 1_555 1_555
C4B C6B 1_555 1_555
N2B C11B 1_555 1_555
C12B C17B 1_555 1_555
C13B C14B 1_555 1_555
C16B C17B 1_555 1_555
C18B N4B 1_555 1_555
C19B C20B 1_555 1_555

#END
