
#######################################################################
#
#                 Cambridge Crystallographic Data Centre
#                                CCDC 
#
#######################################################################
#
# If this CIF has been generated from an entry in the Cambridge 
# Structural Database, then it will include bibliographic, chemical, 
# crystal, experimental, refinement or atomic coordinate data resulting 
# from the CCDC's data processing and validation procedures.
#
#######################################################################

data_RUSZUB
_symmetry_cell_setting           monoclinic
_symmetry_space_group_name_H-M   'P 21/c'
_symmetry_Int_Tables_number      14
_space_group_name_Hall           '-P 2ybc'
loop_
_symmetry_equiv_pos_site_id
_symmetry_equiv_pos_as_xyz
1 x,y,z
2 -x,1/2+y,1/2-z
3 -x,-y,-z
4 x,1/2-y,1/2+z
_cell_length_a                   7.5507(2)
_cell_length_b                   5.6983(2)
_cell_length_c                   23.3644(7)
_cell_angle_alpha                90
_cell_angle_beta                 99.01
_cell_angle_gamma                90
_cell_volume                     992.876
loop_
_atom_site_label
_atom_site_type_symbol
_atom_site_fract_x
_atom_site_fract_y
_atom_site_fract_z
Th1 Th 0.184224(11) 0.261098(14) 0.029181(4)
O1 O 0.3849(2) -0.0044(3) 0.07797(8)
P1 P 0.49153(9) -0.23059(11) 0.07867(3)
O2 O 0.3688(3) -0.4433(3) 0.06670(8)
O3 O 0.6288(3) -0.2203(3) 0.03786(9)
C1 C 0.6114(3) -0.2674(4) 0.15115(11)
C2 C 0.6039(4) -0.0957(4) 0.19337(11)
H1 H 0.5407 0.0463 0.1833
C3 C 0.6884(4) -0.1311(5) 0.25010(11)
H2 H 0.6834 -0.0141 0.2788
C4 C 0.7805(3) -0.3406(5) 0.26424(11)
C5 C 0.7935(4) -0.5100(5) 0.22211(11)
H3 H 0.8599 -0.6497 0.2320
C6 C 0.7093(4) -0.4736(5) 0.16572(11)
H4 H 0.7179 -0.5888 0.1369
O4 O 0.9294(3) -0.5906(4) 0.33676(9)
C7 C 0.8565(3) -0.3829(5) 0.32584(11)
O5 O 0.8488(3) -0.2339(3) 0.36372(9)
F1 F -0.0025(2) 0.0768(3) -0.05044(6)
F2 F -0.0908(2) 0.4309(3) 0.03792(6)
Th1_2 Th 0.184224(11) -0.738902(14) 0.029181(4)
Th1B Th 0.815776(11) -0.261098(14) -0.029181(4)
Th1A Th 0.815776(11) -0.238902(14) 0.470819(4)
Th1B_2 Th -0.184224(11) -0.261098(14) -0.029181(4)
Th1B_3 Th -0.184224(11) 0.738902(14) -0.029181(4)
O2_2 O 0.3688(3) 0.5567(3) 0.06670(8)
O3B O 0.3712(3) 0.2203(3) -0.03786(9)
O5A O 0.1512(3) 0.2661(3) 0.13628(9)
F1B F 0.0025(2) -0.0768(3) 0.05044(6)
F2B F 0.0908(2) 0.5691(3) -0.03792(6)
loop_
_geom_bond_atom_site_label_1
_geom_bond_atom_site_label_2
_geom_bond_site_symmetry_1
_geom_bond_site_symmetry_2
Th1 O1 1_555 1_555
O1 P1 1_555 1_555
P1 O2 1_555 1_555
O2 Th1_2 1_555 1_555
O3 P1 1_555 1_555
C1 P1 1_555 1_555
C2 C1 1_555 1_555
H1 C2 1_555 1_555
C3 C2 1_555 1_555
H2 C3 1_555 1_555
C4 C3 1_555 1_555
C5 C4 1_555 1_555
H3 C5 1_555 1_555
C6 C1 1_555 1_555
H4 C6 1_555 1_555
O4 C7 1_555 1_555
C7 C4 1_555 1_555
O5 C7 1_555 1_555
F1 Th1 1_555 1_555
F2 Th1 1_555 1_555
Th1B O3 1_555 1_555
Th1A O5 1_555 1_555
Th1B_2 F1 1_555 1_555
Th1B_3 F2 1_555 1_555
O2_2 Th1 1_555 1_555
O3B Th1 1_555 1_555
O5A Th1 1_555 1_555
F1B Th1 1_555 1_555
F2B Th1 1_555 1_555
C5 C6 1_555 1_555
Th1B_2 F1B 1_555 1_555
Th1B_3 F2B 1_555 1_555

#END
