
#######################################################################
#
#                 Cambridge Crystallographic Data Centre
#                                CCDC 
#
#######################################################################
#
# If this CIF has been generated from an entry in the Cambridge 
# Structural Database, then it will include bibliographic, chemical, 
# crystal, experimental, refinement or atomic coordinate data resulting 
# from the CCDC's data processing and validation procedures.
#
#######################################################################

data_RUTGET
_symmetry_cell_setting           monoclinic
_symmetry_space_group_name_H-M   'P 21/c'
_symmetry_Int_Tables_number      14
_space_group_name_Hall           '-P 2ybc'
loop_
_symmetry_equiv_pos_site_id
_symmetry_equiv_pos_as_xyz
1 x,y,z
2 -x,1/2+y,1/2-z
3 -x,-y,-z
4 x,1/2-y,1/2+z
_cell_length_a                   4.93090(10)
_cell_length_b                   13.6444(4)
_cell_length_c                   11.4385(4)
_cell_angle_alpha                90
_cell_angle_beta                 93.5680(10)
_cell_angle_gamma                90
_cell_volume                     768.081
loop_
_atom_site_label
_atom_site_type_symbol
_atom_site_fract_x
_atom_site_fract_y
_atom_site_fract_z
Ge1 Ge 0.30872(10) 0.39711(4) 0.39690(5)
Ge2 Ge -0.19752(10) 0.53262(4) 0.34746(5)
Zn1 Zn 0.52169(12) 0.19589(4) 0.29289(5)
O1 O 0.2402(7) 0.2928(3) 0.3192(3)
O2 O 0.6595(7) 0.4225(3) 0.3949(3)
O3 O 0.2318(7) 0.3768(3) 0.5437(3)
O4 O 0.1500(7) 0.5047(3) 0.3430(3)
O5 O -0.3088(7) 0.5779(3) 0.2142(3)
N1 N 0.7360(9) 0.2511(3) 0.1584(4)
H1 H 0.9018 0.2627 0.1885
H2 H 0.7657 0.2041 0.1102
N2 N 0.8450(9) 0.3347(3) -0.0884(4)
H3 H 0.7202 0.3283 -0.1158
H4 H 0.9691 0.2895 -0.0573
C1 C 0.6028(11) 0.3360(4) 0.0970(5)
H5 H 0.4504 0.3085 0.0624
H6 H 0.5513 0.3772 0.1524
C2 C 0.7837(11) 0.3914(4) 0.0175(5)
H7 H 0.6705 0.4416 -0.0113
H8 H 0.9470 0.4110 0.0583
Ge2_2 Ge 0.80248(10) 0.53262(4) 0.34746(5)
Ge2B Ge 0.19752(10) 0.46738(4) 0.65254(5)
Zn1A Zn -0.52169(12) 0.69589(4) 0.20711(5)
Zn1C Zn 0.52169(12) 0.30411(4) -0.20711(5)
O2_2 O -0.3405(7) 0.4225(3) 0.3949(3)
O3B O -0.2318(7) 0.6232(3) 0.4563(3)
O5A O 0.3088(7) 0.0779(3) 0.2858(3)
N2C N 0.8450(9) 0.1653(3) 0.4116(4)
H3C H 0.7202 0.1717 0.3842
H4C H 0.9691 0.2105 0.4427
loop_
_geom_bond_atom_site_label_1
_geom_bond_atom_site_label_2
_geom_bond_site_symmetry_1
_geom_bond_site_symmetry_2
Ge1 O1 1_555 1_555
Ge2 O4 1_555 1_555
Zn1 O1 1_555 1_555
O2 Ge1 1_555 1_555
O3 Ge1 1_555 1_555
O4 Ge1 1_555 1_555
O5 Ge2 1_555 1_555
N1 Zn1 1_555 1_555
H1 N1 1_555 1_555
H2 N1 1_555 1_555
N2 H3 1_555 1_555
H4 N2 1_555 1_555
C1 N1 1_555 1_555
H5 C1 1_555 1_555
H6 C1 1_555 1_555
C2 N2 1_555 1_555
H7 C2 1_555 1_555
H8 C2 1_555 1_555
Ge2_2 O2 1_555 1_555
Ge2B O3 1_555 1_555
Zn1A O5 1_555 1_555
Zn1C N2 1_555 1_555
O2_2 Ge2 1_555 1_555
O3B Ge2 1_555 1_555
O5A Zn1 1_555 1_555
N2C Zn1 1_555 1_555
H3C N2C 1_555 1_555
H4C N2C 1_555 1_555
C1 C2 1_555 1_555

#END
