
#######################################################################
#
#                 Cambridge Crystallographic Data Centre
#                                CCDC 
#
#######################################################################
#
# If this CIF has been generated from an entry in the Cambridge 
# Structural Database, then it will include bibliographic, chemical, 
# crystal, experimental, refinement or atomic coordinate data resulting 
# from the CCDC's data processing and validation procedures.
#
#######################################################################

data_RUTPUS
_symmetry_cell_setting           monoclinic
_symmetry_space_group_name_H-M   'P 21/c'
_symmetry_Int_Tables_number      14
_space_group_name_Hall           '-P 2ybc'
loop_
_symmetry_equiv_pos_site_id
_symmetry_equiv_pos_as_xyz
1 x,y,z
2 -x,1/2+y,1/2-z
3 -x,-y,-z
4 x,1/2-y,1/2+z
_cell_length_a                   16.0686(10)
_cell_length_b                   14.4668(8)
_cell_length_c                   23.3907(14)
_cell_angle_alpha                90
_cell_angle_beta                 130.796(4)
_cell_angle_gamma                90
_cell_volume                     4116.36
loop_
_atom_site_label
_atom_site_type_symbol
_atom_site_fract_x
_atom_site_fract_y
_atom_site_fract_z
O1 O 0.7590(8) 0.2478(7) 0.3661(6)
N1 N 0.7665(9) 0.3718(8) 0.4265(6)
C28 C 0.8079(14) 0.3040(11) 0.4192(9)
H20 H 0.8830 0.2949 0.4577
C29 C 0.6413(18) 0.3866(16) 0.3676(13)
H21 H 0.6256 0.4413 0.3388
H22 H 0.6129 0.3935 0.3930
H23 H 0.6073 0.3342 0.3344
C30 C 0.8345(16) 0.4343(13) 0.4912(10)
H24 H 0.9104 0.4258 0.5154
H25 H 0.8242 0.4211 0.5264
H26 H 0.8135 0.4971 0.4741
C1 C 1.1507(7) 0.2502(6) 0.2799(5)
C2 C 1.0324(6) -0.0673(6) 0.1669(4)
C3 C 0.9268(6) 0.5110(5) 0.1344(4)
C4 C 0.8544(6) 0.1921(5) 0.1677(4)
C5 C 0.6527(7) 0.0298(5) 0.1629(5)
C6 C 0.4579(7) 0.0852(5) 0.0750(4)
H1 H 0.4491 0.0565 0.0358
C7 C 0.5596(6) 0.0780(6) 0.1507(5)
C8 C 0.5713(7) 0.1174(6) 0.2091(5)
H2 H 0.6378 0.1122 0.2583
C9 C 0.4829(8) 0.1657(7) 0.1946(5)
H3 H 0.4905 0.1909 0.2344
C10 C 1.1444(7) 0.1760(6) 0.2337(5)
C11 C 0.8582(6) 0.4254(5) 0.0992(4)
C12 C 0.7685(7) 0.4211(6) 0.0220(5)
H4 H 0.7481 0.4721 -0.0089
C13 C 0.2680(6) 0.1435(5) -0.0197(4)
C14 C 0.3721(6) 0.1355(5) 0.0602(4)
C15 C 0.3837(7) 0.1757(6) 0.1201(4)
H5 H 0.3258 0.2087 0.1103
C16 C 0.8828(6) 0.3505(5) 0.1446(4)
H6 H 0.9418 0.3539 0.1963
C17 C 0.8207(6) 0.2703(5) 0.1141(5)
C18 C 0.7370(8) 0.2658(6) 0.0377(5)
H7 H 0.6972 0.2112 0.0162
C19 C 1.0894(7) 0.0228(6) 0.1799(5)
C20 C 0.1359(8) 0.3415(6) 0.0278(5)
H8 H 0.1998 0.3435 0.0347
C21 C 0.7106(8) 0.3392(6) -0.0074(5)
H9 H 0.6525 0.3343 -0.0591
C22 C 1.0943(7) 0.0930(5) 0.2227(5)
H10 H 1.0629 0.0835 0.2443
C23 C 0.2369(12) 0.4391(10) 0.1397(8)
H11 H 0.2951 0.4272 0.1391
H12 H 0.2584 0.4182 0.1866
H13 H 0.2222 0.5043 0.1343
C24 C 1.1345(10) 0.0373(7) 0.1475(7)
H14 H 1.1328 -0.0098 0.1198
C25 C 1.1823(13) 0.1208(11) 0.1553(9)
H15 H 1.2121 0.1304 0.1325
C26 C 1.1856(11) 0.1910(8) 0.1980(7)
H16 H 1.2158 0.2482 0.2023
C27 C 0.0351(13) 0.3943(11) 0.0639(9)
H17 H -0.0271 0.3827 0.0118
H18 H 0.0290 0.4549 0.0776
H19 H 0.0372 0.3490 0.0949
N2 N 0.1349(8) 0.3885(6) 0.0753(5)
O2 O 0.6376(4) -0.0160(4) 0.1124(3)
O3 O 0.7493(4) 0.0389(4) 0.2265(3)
O4 O 0.8211(5) 0.1110(4) 0.1390(3)
O5 O 1.0191(5) 0.5057(4) 0.1994(3)
O6 O 0.2551(5) 0.0909(4) -0.0659(3)
O7 O 0.9730(4) -0.0755(4) 0.1836(3)
O8 O 1.0495(5) -0.1352(4) 0.1411(3)
O9 O 0.1985(4) 0.2047(4) -0.0350(3)
O10 O 0.0603(5) 0.2959(4) -0.0241(3)
O11 O -0.1254(5) 0.3298(4) -0.1665(4)
H27 H -0.1817 0.3424 -0.2127
H28 H -0.1275 0.3399 -0.1312
O12 O 0.9085(5) 0.2096(4) 0.2351(3)
O13 O 0.8896(4) 0.5857(4) 0.0978(3)
O14 O 1.1743(5) 0.3304(4) 0.2743(3)
O15 O 1.1302(5) 0.2305(5) 0.3215(4)
Y1 Y 0.83036(6) -0.03226(5) 0.18066(4)
Y2 Y 0.03428(6) 0.26901(5) -0.13656(4)
O5A O 0.9809(5) 0.0057(4) 0.3006(3)
O6B O 0.7449(5) -0.0909(4) 0.0659(3)
O8B O -0.0495(5) 0.1352(4) -0.1411(3)
O12C O -0.0915(5) 0.2904(4) -0.2649(3)
O13B O 0.1104(4) 0.4143(4) -0.0978(3)
O14A O 0.8257(5) -0.1696(4) 0.2257(3)
O15C O 0.1302(5) 0.2695(5) -0.1785(4)
Y1A Y 1.16964(6) 0.46774(5) 0.31934(4)
Y1B Y 0.16964(6) 0.03226(5) -0.18066(4)
Y2B Y 0.96572(6) -0.26901(5) 0.13656(4)
Y2C Y 1.03428(6) 0.23099(5) 0.36344(4)
Y2B_2 Y 0.96572(6) 0.73099(5) 0.13656(4)
loop_
_geom_bond_atom_site_label_1
_geom_bond_atom_site_label_2
_geom_bond_site_symmetry_1
_geom_bond_site_symmetry_2
O1 C28 1_555 1_555
N1 C28 1_555 1_555
C1 C10 1_555 1_555
C2 C19 1_555 1_555
C3 C11 1_555 1_555
C4 C17 1_555 1_555
C5 C7 1_555 1_555
C6 H1 1_555 1_555
C7 C6 1_555 1_555
C8 C7 1_555 1_555
H2 C8 1_555 1_555
C9 C8 1_555 1_555
H3 C9 1_555 1_555
C10 C22 1_555 1_555
C11 C12 1_555 1_555
C12 H4 1_555 1_555
C13 C14 1_555 1_555
C14 C6 1_555 1_555
C15 C9 1_555 1_555
H5 C15 1_555 1_555
C16 C11 1_555 1_555
H6 C16 1_555 1_555
C17 C16 1_555 1_555
C18 C17 1_555 1_555
H7 C18 1_555 1_555
C19 C22 1_555 1_555
C20 H8 1_555 1_555
C21 C12 1_555 1_555
H9 C21 1_555 1_555
C22 H10 1_555 1_555
C23 H11 1_555 1_555
H12 C23 1_555 1_555
H13 C23 1_555 1_555
C24 C19 1_555 1_555
H14 C24 1_555 1_555
C25 C24 1_555 1_555
H15 C25 1_555 1_555
C26 C10 1_555 1_555
H16 C26 1_555 1_555
C27 H17 1_555 1_555
H18 C27 1_555 1_555
H19 C27 1_555 1_555
C28 H20 1_555 1_555
C29 N1 1_555 1_555
H21 C29 1_555 1_555
H22 C29 1_555 1_555
H23 C29 1_555 1_555
C30 N1 1_555 1_555
H24 C30 1_555 1_555
H25 C30 1_555 1_555
H26 C30 1_555 1_555
N2 C20 1_555 1_555
O2 C5 1_555 1_555
O3 C5 1_555 1_555
O4 C4 1_555 1_555
O5 C3 1_555 1_555
O6 C13 1_555 1_555
O7 C2 1_555 1_555
O8 C2 1_555 1_555
O9 C13 1_555 1_555
O10 C20 1_555 1_555
O11 H27 1_555 1_555
H28 O11 1_555 1_555
O12 C4 1_555 1_555
O13 C3 1_555 1_555
O14 C1 1_555 1_555
O15 C1 1_555 1_555
Y1 O2 1_555 1_555
Y2 O9 1_555 1_555
O5A Y1 1_555 1_555
O6B Y1 1_555 1_555
O8B Y2 1_555 1_555
O12C Y2 1_555 1_555
O13B Y2 1_555 1_555
O14A Y1 1_555 1_555
O15C Y2 1_555 1_555
Y1A O5 1_555 1_555
Y1B O6 1_555 1_555
Y2B O8 1_555 1_555
Y2C O12 1_555 1_555
Y2B_2 O13 1_555 1_555
C14 C15 1_555 1_555
C18 C21 1_555 1_555
C23 N2 1_555 1_555
C25 C26 1_555 1_555
C27 N2 1_555 1_555
O3 Y1 1_555 1_555
O4 Y1 1_555 1_555
O7 Y1 1_555 1_555
O10 Y2 1_555 1_555
O11 Y2 1_555 1_555
O14 Y1A 1_555 1_555
O15 Y2C 1_555 1_555

#END
