
#######################################################################
#
#                 Cambridge Crystallographic Data Centre
#                                CCDC 
#
#######################################################################
#
# If this CIF has been generated from an entry in the Cambridge 
# Structural Database, then it will include bibliographic, chemical, 
# crystal, experimental, refinement or atomic coordinate data resulting 
# from the CCDC's data processing and validation procedures.
#
#######################################################################

data_RUVFOE
_symmetry_cell_setting           monoclinic
_symmetry_space_group_name_H-M   'C 2/c'
_symmetry_Int_Tables_number      15
_space_group_name_Hall           '-C 2yn'
loop_
_symmetry_equiv_pos_site_id
_symmetry_equiv_pos_as_xyz
1 x,y,z
2 -x,y,1/2-z
3 1/2+x,1/2+y,z
4 1/2-x,1/2+y,1/2-z
5 -x,-y,-z
6 x,-y,1/2+z
7 1/2-x,1/2-y,-z
8 1/2+x,1/2-y,1/2+z
_cell_length_a                   21.267(5)
_cell_length_b                   7.840(4)
_cell_length_c                   29.455(5)
_cell_angle_alpha                90
_cell_angle_beta                 98.405(6)
_cell_angle_gamma                90
_cell_volume                     4858.38
loop_
_atom_site_label
_atom_site_type_symbol
_atom_site_fract_x
_atom_site_fract_y
_atom_site_fract_z
Co1 Co 0.2500 -0.2500 0.0000
N1 N 0.75130(12) -0.4126(3) -0.44120(9)
N2 N 0.72491(13) -0.4922(4) -0.37448(9)
N3 N 0.35187(13) -0.2700(3) 0.01249(9)
N4 N 0.44602(13) -0.2877(4) -0.01020(10)
N5 N 0.68596(14) -0.4537(4) -0.11679(9)
N6 N 0.71572(13) -0.4726(4) -0.15549(9)
N7 N 0.61491(13) -0.4191(4) -0.17689(9)
N8 N 0.55749(16) -0.3707(5) -0.20286(13)
C1 C 0.73132(16) -0.5803(4) -0.44413(11)
H1 H 0.7296 -0.6485 -0.4701
C2 C 0.71460(16) -0.6305(4) -0.40377(12)
H2 H 0.6992 -0.7370 -0.3970
C3 C 0.74773(15) -0.3650(4) -0.39874(11)
H3 H 0.7594 -0.2577 -0.3869
C4 C 0.71162(16) -0.4832(4) -0.32810(11)
C5 C 0.75208(15) -0.3938(4) -0.29545(11)
H4 H 0.7884 -0.3416 -0.3031
C6 C 0.73760(16) -0.3833(5) -0.25115(12)
H5 H 0.7645 -0.3234 -0.2290
C7 C 0.68339(15) -0.4612(4) -0.23927(11)
C8 C 0.64332(15) -0.5504(4) -0.27254(11)
H6 H 0.6071 -0.6032 -0.2650
C9 C 0.65737(16) -0.5608(4) -0.31709(11)
H7 H 0.6304 -0.6197 -0.3394
C10 C 0.39494(19) -0.1879(7) 0.04326(15)
H8 H 0.3862 -0.1334 0.0697
C11 C 0.4524(2) -0.1979(9) 0.02946(19)
H9 H 0.4899 -0.1512 0.0445
C12 C 0.38484(16) -0.3285(5) -0.01873(12)
H10 H 0.3671 -0.3918 -0.0441
C13 C 0.49236(16) -0.3249(4) -0.03947(12)
C14 C 0.4745(2) -0.4136(8) -0.07950(19)
H11 H 0.4329 -0.4524 -0.0867
C15 C 0.5178(2) -0.4456(7) -0.10903(18)
H12 H 0.5053 -0.5066 -0.1359
C16 C 0.57926(17) -0.3883(4) -0.09921(12)
C17 C 0.59644(16) -0.3008(5) -0.05907(12)
H13 H 0.6380 -0.2614 -0.0519
C18 C 0.55358(16) -0.2692(5) -0.02875(12)
H14 H 0.5664 -0.2108 -0.0015
C19 C 0.62596(16) -0.4205(4) -0.13038(12)
C20 C 0.67178(15) -0.4507(4) -0.19130(11)
O5 O 0.23484(11) -0.4714(3) 0.03804(8)
H22 H 0.1995(11) -0.482(6) 0.0455(14)
H23 H 0.2599(13) -0.493(5) 0.0616(9)
H25 H 0.546(2) -0.443(4) -0.2215(13)
H26 H 0.560(3) -0.277(3) -0.2136(16)
Co1A Co 0.7500 -0.2500 -0.5000
N1A N 0.24870(12) -0.4126(3) -0.05880(9)
N1G N 0.25130(12) -0.0874(3) 0.05880(9)
N2A N 0.27509(13) -0.4922(4) -0.12552(9)
N3A N 0.64813(13) -0.2700(3) -0.51249(9)
N3F N 0.14813(13) -0.2300(3) -0.01249(9)
N4A N 0.55398(13) -0.2877(4) -0.48980(10)
N5A N 0.31404(14) -0.4537(4) -0.38321(9)
N6A N 0.28428(13) -0.4726(4) -0.34451(9)
N7A N 0.38509(13) -0.4191(4) -0.32311(9)
N8A N 0.44251(16) -0.3707(5) -0.29714(13)
C1A C 0.26868(16) -0.5803(4) -0.05587(11)
H1A H 0.2704 -0.6485 -0.0299
C2A C 0.28540(16) -0.6305(4) -0.09623(12)
H2A H 0.3008 -0.7370 -0.1030
C3A C 0.25227(15) -0.3650(4) -0.10126(11)
H3A H 0.2406 -0.2577 -0.1131
C4A C 0.28838(16) -0.4832(4) -0.17190(11)
C5A C 0.24792(15) -0.3938(4) -0.20455(11)
H4A H 0.2116 -0.3416 -0.1969
C6A C 0.26240(16) -0.3833(5) -0.24885(12)
H5A H 0.2355 -0.3234 -0.2710
C7A C 0.31661(15) -0.4612(4) -0.26073(11)
C8A C 0.35668(15) -0.5504(4) -0.22746(11)
H6A H 0.3929 -0.6032 -0.2350
C9A C 0.34263(16) -0.5608(4) -0.18291(11)
H7A H 0.3696 -0.6197 -0.1606
C10A C 0.60506(19) -0.1879(7) -0.54326(15)
H8A H 0.6138 -0.1334 -0.5697
C11A C 0.5476(2) -0.1979(9) -0.52946(19)
H9A H 0.5101 -0.1512 -0.5445
C12A C 0.61516(16) -0.3285(5) -0.48127(12)
H10A H 0.6329 -0.3918 -0.4559
C13A C 0.50764(16) -0.3249(4) -0.46053(12)
C14A C 0.5255(2) -0.4136(8) -0.42050(19)
H11A H 0.5671 -0.4524 -0.4133
C15A C 0.4822(2) -0.4456(7) -0.39097(18)
H12A H 0.4947 -0.5066 -0.3641
C16A C 0.42074(17) -0.3883(4) -0.40079(12)
C17A C 0.40356(16) -0.3008(5) -0.44093(12)
H13A H 0.3620 -0.2614 -0.4481
C18A C 0.44642(16) -0.2692(5) -0.47125(12)
H14A H 0.4336 -0.2108 -0.4985
C19A C 0.37404(16) -0.4205(4) -0.36962(12)
C20A C 0.32822(15) -0.4507(4) -0.30870(11)
O5F O 0.26516(11) -0.0286(3) -0.03804(8)
H22F H 0.3005(11) -0.018(6) -0.0455(14)
H23F H 0.2401(13) -0.007(5) -0.0616(9)
H25A H 0.454(2) -0.443(4) -0.2785(13)
H26A H 0.440(3) -0.277(3) -0.2864(16)
O1 O 0.62850(14) -0.0449(4) -0.14754(11)
O2 O 0.56718(19) 0.0011(5) -0.21218(11)
O3 O 0.60410(14) 0.2125(4) -0.17004(11)
N10 N 0.60035(16) 0.0554(4) -0.17595(12)
O4 O 0.37956(13) 0.0244(4) -0.07439(10)
N9 N 0.41086(15) -0.0286(5) -0.14433(11)
C21 C 0.4723(3) 0.0436(14) -0.13195(19)
H15 H 0.4957 0.0348 -0.1574
H16 H 0.4945 -0.0168 -0.1061
H17 H 0.4682 0.1614 -0.1240
C22 C 0.3976(2) -0.0962(7) -0.19033(15)
H18 H 0.4339 -0.0802 -0.2057
H19 H 0.3617 -0.0376 -0.2069
H20 H 0.3882 -0.2157 -0.1890
C23 C 0.37088(18) -0.0307(5) -0.11415(16)
H21 H 0.3314 -0.0795 -0.1239
O6 O 0.5000 0.3045(6) -0.2500
H24 H 0.519(3) 0.249(8) -0.2275(18)
H24A H 0.481(3) 0.249(8) -0.2725(18)
loop_
_geom_bond_atom_site_label_1
_geom_bond_atom_site_label_2
_geom_bond_site_symmetry_1
_geom_bond_site_symmetry_2
Co1 N3 1_555 1_555
O1 N10 1_555 1_555
O2 N10 1_555 1_555
O3 N10 1_555 1_555
O4 C23 1_555 1_555
N1 C1 1_555 1_555
N2 C2 1_555 1_555
N3 C10 1_555 1_555
N4 C11 1_555 1_555
N5 N6 1_555 1_555
N6 C20 1_555 1_555
N7 N8 1_555 1_555
N8 H25 1_555 1_555
N9 C21 1_555 1_555
C1 H1 1_555 1_555
C2 C1 1_555 1_555
H2 C2 1_555 1_555
C3 N1 1_555 1_555
H3 C3 1_555 1_555
C4 N2 1_555 1_555
C5 C4 1_555 1_555
H4 C5 1_555 1_555
C6 C5 1_555 1_555
H5 C6 1_555 1_555
C7 C6 1_555 1_555
C8 C7 1_555 1_555
H6 C8 1_555 1_555
C9 C4 1_555 1_555
H7 C9 1_555 1_555
C10 H8 1_555 1_555
C11 C10 1_555 1_555
H9 C11 1_555 1_555
C12 N3 1_555 1_555
H10 C12 1_555 1_555
C13 N4 1_555 1_555
C14 C13 1_555 1_555
H11 C14 1_555 1_555
C15 C14 1_555 1_555
H12 C15 1_555 1_555
C16 C15 1_555 1_555
C17 C16 1_555 1_555
H13 C17 1_555 1_555
C18 C13 1_555 1_555
H14 C18 1_555 1_555
C19 N5 1_555 1_555
C20 N7 1_555 1_555
C21 H15 1_555 1_555
H16 C21 1_555 1_555
H17 C21 1_555 1_555
C22 N9 1_555 1_555
H18 C22 1_555 1_555
H19 C22 1_555 1_555
H20 C22 1_555 1_555
C23 N9 1_555 1_555
H21 C23 1_555 1_555
O5 Co1 1_555 1_555
O6 H24 1_555 1_555
H22 O5 1_555 1_555
H23 O5 1_555 1_555
H26 N8 1_555 1_555
Co1A N1 1_555 1_555
N1A Co1 1_555 1_555
N1G Co1 1_555 1_555
N2A C2A 1_555 1_555
N3A Co1A 1_555 1_555
N3F Co1 1_555 1_555
N4A C11A 1_555 1_555
N5A N6A 1_555 1_555
N6A C20A 1_555 1_555
N7A N8A 1_555 1_555
N8A H25A 1_555 1_555
C1A N1A 1_555 1_555
H1A C1A 1_555 1_555
C2A C1A 1_555 1_555
H2A C2A 1_555 1_555
C3A N1A 1_555 1_555
H3A C3A 1_555 1_555
C4A N2A 1_555 1_555
C5A C4A 1_555 1_555
H4A C5A 1_555 1_555
C6A C5A 1_555 1_555
H5A C6A 1_555 1_555
C7A C6A 1_555 1_555
C8A C7A 1_555 1_555
H6A C8A 1_555 1_555
C9A C4A 1_555 1_555
H7A C9A 1_555 1_555
C10A N3A 1_555 1_555
H8A C10A 1_555 1_555
C11A C10A 1_555 1_555
H9A C11A 1_555 1_555
C12A N3A 1_555 1_555
H10A C12A 1_555 1_555
C13A N4A 1_555 1_555
C14A C13A 1_555 1_555
H11A C14A 1_555 1_555
C15A C14A 1_555 1_555
H12A C15A 1_555 1_555
C16A C15A 1_555 1_555
C17A C16A 1_555 1_555
H13A C17A 1_555 1_555
C18A C13A 1_555 1_555
H14A C18A 1_555 1_555
C19A N5A 1_555 1_555
C20A N7A 1_555 1_555
O5F Co1 1_555 1_555
H22F O5F 1_555 1_555
H23F O5F 1_555 1_555
H24A O6 1_555 1_555
H26A N8A 1_555 1_555
N2 C3 1_555 1_555
N4 C12 1_555 1_555
N7 C19 1_555 1_555
C7 C20 1_555 1_555
C8 C9 1_555 1_555
C16 C19 1_555 1_555
C17 C18 1_555 1_555
N2A C3A 1_555 1_555
N4A C12A 1_555 1_555
N7A C19A 1_555 1_555
C7A C20A 1_555 1_555
C8A C9A 1_555 1_555
C16A C19A 1_555 1_555
C17A C18A 1_555 1_555

#END
