
#######################################################################
#
#                 Cambridge Crystallographic Data Centre
#                                CCDC 
#
#######################################################################
#
# If this CIF has been generated from an entry in the Cambridge 
# Structural Database, then it will include bibliographic, chemical, 
# crystal, experimental, refinement or atomic coordinate data resulting 
# from the CCDC's data processing and validation procedures.
#
#######################################################################

data_RUVFAQ
_symmetry_cell_setting           monoclinic
_symmetry_space_group_name_H-M   'P 21/c'
_symmetry_Int_Tables_number      14
_space_group_name_Hall           '-P 2ybc'
loop_
_symmetry_equiv_pos_site_id
_symmetry_equiv_pos_as_xyz
1 x,y,z
2 -x,1/2+y,1/2-z
3 -x,-y,-z
4 x,1/2-y,1/2+z
_cell_length_a                   14.304(4)
_cell_length_b                   11.686(5)
_cell_length_c                   18.483(3)
_cell_angle_alpha                90
_cell_angle_beta                 103.608(5)
_cell_angle_gamma                90
_cell_volume                     3002.82
loop_
_atom_site_label
_atom_site_type_symbol
_atom_site_fract_x
_atom_site_fract_y
_atom_site_fract_z
Co1 Co 0.5000 0.0000 0.5000
N1 N -0.42292(17) -0.4905(2) 0.78850(14)
N2 N -0.47019(17) -0.5230(2) 0.89187(13)
N3 N 0.19917(17) -0.0698(2) 0.44071(13)
N4 N 0.35048(17) -0.0205(2) 0.45021(14)
N5 N -0.22832(17) -0.1952(2) 0.47719(13)
N6 N -0.29277(17) -0.2394(2) 0.51583(13)
N7 N -0.14783(16) -0.2754(2) 0.58070(13)
N8 N -0.06819(19) -0.3277(3) 0.62905(16)
C1 C -0.4984(2) -0.6138(3) 0.84290(17)
H1 H -0.5307 -0.6788 0.8530
C2 C -0.4242(2) -0.4519(3) 0.85696(16)
H2 H -0.3962 -0.3836 0.8771
C3 C -0.4719(2) -0.5937(3) 0.77843(18)
H3 H -0.4840 -0.6396 0.7362
C4 C -0.3777(2) -0.4369(3) 0.73620(16)
C5 C -0.2943(2) -0.3734(3) 0.76057(17)
H4 H -0.2685 -0.3630 0.8112
C6 C -0.2498(2) -0.3257(3) 0.70902(17)
H5 H -0.1939 -0.2832 0.7253
C7 C -0.2873(2) -0.3404(2) 0.63385(17)
C8 C -0.3727(2) -0.4017(2) 0.60943(17)
H6 H -0.3994 -0.4101 0.5587
C9 C -0.4175(2) -0.4498(3) 0.66042(16)
H7 H -0.4742 -0.4909 0.6442
C10 C 0.2900(2) -0.0698(2) 0.48438(16)
H8 H 0.3071 -0.1005 0.5321
C11 C 0.2960(2) 0.0121(2) 0.38221(17)
H9 H 0.3200 0.0486 0.3457
C12 C 0.2028(2) -0.0159(2) 0.37522(17)
H10 H 0.1518 -0.0017 0.3347
C13 C 0.1147(2) -0.1106(2) 0.46082(17)
C14 C 0.1060(2) -0.0987(2) 0.53395(16)
H11 H 0.1553 -0.0654 0.5696
C15 C 0.0238(2) -0.1367(2) 0.55309(16)
H12 H 0.0182 -0.1304 0.6021
C16 C -0.0513(2) -0.1847(2) 0.49924(16)
C17 C -0.0407(2) -0.1954(2) 0.42683(17)
H13 H -0.0903 -0.2276 0.3908
C18 C 0.0416(2) -0.1594(2) 0.40717(17)
H14 H 0.0480 -0.1678 0.3585
C19 C -0.1415(2) -0.2184(2) 0.51779(16)
C20 C -0.2439(2) -0.2863(2) 0.57708(16)
O3 O 0.48348(16) 0.17864(18) 0.50696(12)
H29 H 0.4269(15) 0.195(3) 0.5047(19)
H30 H -0.080(3) -0.408(3) 0.648(2)
H31 H -0.057(2) -0.290(3) 0.667(2)
H32 H 0.514(3) 0.224(3) 0.5407(19)
Co1A Co -0.5000 -0.5000 1.0000
Co1A_2 Co 1.5000 0.5000 0.0000
N1B N 1.42292(17) 0.4905(2) 0.21150(14)
N2B N 1.47019(17) 0.5230(2) 0.10813(13)
N2A N 0.47019(17) -0.0230(2) 0.60813(13)
N2C N 0.52981(17) 0.0230(2) 0.39187(13)
N3B N 0.80083(17) 0.0698(2) 0.55929(13)
N4B N 0.64952(17) 0.0205(2) 0.54979(14)
N5B N 1.22832(17) 0.1952(2) 0.52281(13)
N6B N 1.29277(17) 0.2394(2) 0.48417(13)
N7B N 1.14783(16) 0.2754(2) 0.41930(13)
N8B N 1.06819(19) 0.3277(3) 0.37095(16)
C1B C 1.4984(2) 0.6138(3) 0.15710(17)
H1B H 1.5307 0.6788 0.1470
C2B C 1.4242(2) 0.4519(3) 0.14304(16)
H2B H 1.3962 0.3836 0.1229
C3B C 1.4719(2) 0.5937(3) 0.22157(18)
H3B H 1.4840 0.6396 0.2638
C4B C 1.3777(2) 0.4369(3) 0.26380(16)
C5B C 1.2943(2) 0.3734(3) 0.23943(17)
H4B H 1.2685 0.3630 0.1888
C6B C 1.2498(2) 0.3257(3) 0.29098(17)
H5B H 1.1939 0.2832 0.2747
C7B C 1.2873(2) 0.3404(2) 0.36615(17)
C8B C 1.3727(2) 0.4017(2) 0.39057(17)
H6B H 1.3994 0.4101 0.4413
C9B C 1.4175(2) 0.4498(3) 0.33958(16)
H7B H 1.4742 0.4909 0.3558
C10B C 0.7100(2) 0.0698(2) 0.51562(16)
H8B H 0.6929 0.1005 0.4679
C11B C 0.7040(2) -0.0121(2) 0.61779(17)
H9B H 0.6800 -0.0486 0.6543
C12B C 0.7972(2) 0.0159(2) 0.62478(17)
H10B H 0.8482 0.0017 0.6653
C13B C 0.8853(2) 0.1106(2) 0.53918(17)
C14B C 0.8940(2) 0.0987(2) 0.46605(16)
H11B H 0.8447 0.0654 0.4304
C15B C 0.9762(2) 0.1367(2) 0.44691(16)
H12B H 0.9818 0.1304 0.3979
C16B C 1.0513(2) 0.1847(2) 0.50076(16)
C17B C 1.0407(2) 0.1954(2) 0.57317(17)
H13B H 1.0903 0.2276 0.6092
C18B C 0.9584(2) 0.1594(2) 0.59283(17)
H14B H 0.9520 0.1678 0.6415
C19B C 1.1415(2) 0.2184(2) 0.48221(16)
C20B C 1.2439(2) 0.2863(2) 0.42292(16)
O3B O 0.51652(16) -0.17864(18) 0.49304(12)
H29B H 0.5731(15) -0.195(3) 0.4953(19)
H30B H 1.080(3) 0.408(3) 0.352(2)
H31B H 1.057(2) 0.290(3) 0.333(2)
H32B H 0.486(3) -0.224(3) 0.4593(19)
F1 F 0.02769(19) 0.19088(19) 0.23743(13)
F2 F -0.0642(2) 0.07946(19) 0.15025(13)
F3 F -0.0133(2) 0.0158(3) 0.26680(18)
F4 F 0.0941(4) 0.0420(5) 0.20086(18)
B1 B 0.0095(4) 0.0816(4) 0.2149(2)
O1 O 0.3920(3) -0.2702(3) 0.3716(2)
N9 N 0.2860(2) -0.2320(3) 0.26416(18)
C21 C 0.3471(5) -0.1453(4) 0.2362(3)
H15 H 0.3140 -0.1197 0.1876
H16 H 0.4072 -0.1797 0.2337
H17 H 0.3590 -0.0812 0.2696
C22 C 0.1910(5) -0.2407(9) 0.2168(4)
H18 H 0.1880 -0.1981 0.1719
H19 H 0.1452 -0.2101 0.2422
H20 H 0.1763 -0.3195 0.2048
C23 C 0.3192(4) -0.2750(4) 0.3268(2)
H21 H 0.2750 -0.3227 0.3415
O2 O 0.3685(2) 0.0615(3) 0.1101(2)
N10 N 0.2283(2) -0.0201(3) 0.05021(18)
C24 C 0.2726(4) -0.1031(4) 0.0107(3)
H22 H 0.2236 -0.1497 -0.0199
H23 H 0.3156 -0.1506 0.0459
H24 H 0.3079 -0.0640 -0.0200
C25 C 0.1246(3) -0.0250(4) 0.0396(2)
H25 H 0.0991 -0.0842 0.0045
H26 H 0.0971 0.0472 0.0211
H27 H 0.1090 -0.0413 0.0863
C26 C 0.2828(3) 0.0541(3) 0.0961(2)
H28 H 0.2507 0.1058 0.1200
loop_
_geom_bond_atom_site_label_1
_geom_bond_atom_site_label_2
_geom_bond_site_symmetry_1
_geom_bond_site_symmetry_2
Co1 N4 1_555 1_555
F1 B1 1_555 1_555
F2 B1 1_555 1_555
F3 B1 1_555 1_555
F4 B1 1_555 1_555
O1 C23 1_555 1_555
O2 C26 1_555 1_555
N1 C2 1_555 1_555
N2 C1 1_555 1_555
N3 C10 1_555 1_555
N4 C10 1_555 1_555
N5 N6 1_555 1_555
N6 C20 1_555 1_555
N7 N8 1_555 1_555
N8 H30 1_555 1_555
N9 C21 1_555 1_555
N10 C24 1_555 1_555
C1 H1 1_555 1_555
C2 N2 1_555 1_555
H2 C2 1_555 1_555
C3 N1 1_555 1_555
H3 C3 1_555 1_555
C4 N1 1_555 1_555
C5 C4 1_555 1_555
H4 C5 1_555 1_555
C6 C5 1_555 1_555
H5 C6 1_555 1_555
C7 C6 1_555 1_555
C8 C7 1_555 1_555
H6 C8 1_555 1_555
C9 C4 1_555 1_555
H7 C9 1_555 1_555
C10 H8 1_555 1_555
C11 N4 1_555 1_555
H9 C11 1_555 1_555
C12 N3 1_555 1_555
H10 C12 1_555 1_555
C13 N3 1_555 1_555
C14 C13 1_555 1_555
H11 C14 1_555 1_555
C15 C14 1_555 1_555
H12 C15 1_555 1_555
C16 C15 1_555 1_555
C17 C16 1_555 1_555
H13 C17 1_555 1_555
C18 C13 1_555 1_555
H14 C18 1_555 1_555
C19 N5 1_555 1_555
C20 N7 1_555 1_555
C21 H15 1_555 1_555
H16 C21 1_555 1_555
H17 C21 1_555 1_555
C22 N9 1_555 1_555
H18 C22 1_555 1_555
H19 C22 1_555 1_555
H20 C22 1_555 1_555
C23 N9 1_555 1_555
H21 C23 1_555 1_555
C24 H22 1_555 1_555
H23 C24 1_555 1_555
H24 C24 1_555 1_555
C25 N10 1_555 1_555
H25 C25 1_555 1_555
H26 C25 1_555 1_555
H27 C25 1_555 1_555
C26 N10 1_555 1_555
H28 C26 1_555 1_555
O3 Co1 1_555 1_555
H29 O3 1_555 1_555
H31 N8 1_555 1_555
H32 O3 1_555 1_555
Co1A N2 1_555 1_555
Co1A_2 N2B 1_555 1_555
N1B C2B 1_555 1_555
N2B C1B 1_555 1_555
N2A Co1 1_555 1_555
N2C Co1 1_555 1_555
N3B C10B 1_555 1_555
N4B Co1 1_555 1_555
N5B N6B 1_555 1_555
N6B C20B 1_555 1_555
N7B N8B 1_555 1_555
N8B H30B 1_555 1_555
C1B H1B 1_555 1_555
C2B N2B 1_555 1_555
H2B C2B 1_555 1_555
C3B N1B 1_555 1_555
H3B C3B 1_555 1_555
C4B N1B 1_555 1_555
C5B C4B 1_555 1_555
H4B C5B 1_555 1_555
C6B C5B 1_555 1_555
H5B C6B 1_555 1_555
C7B C6B 1_555 1_555
C8B C7B 1_555 1_555
H6B C8B 1_555 1_555
C9B C4B 1_555 1_555
H7B C9B 1_555 1_555
C10B N4B 1_555 1_555
H8B C10B 1_555 1_555
C11B N4B 1_555 1_555
H9B C11B 1_555 1_555
C12B N3B 1_555 1_555
H10B C12B 1_555 1_555
C13B N3B 1_555 1_555
C14B C13B 1_555 1_555
H11B C14B 1_555 1_555
C15B C14B 1_555 1_555
H12B C15B 1_555 1_555
C16B C15B 1_555 1_555
C17B C16B 1_555 1_555
H13B C17B 1_555 1_555
C18B C13B 1_555 1_555
H14B C18B 1_555 1_555
C19B N5B 1_555 1_555
C20B N7B 1_555 1_555
O3B Co1 1_555 1_555
H29B O3B 1_555 1_555
H31B N8B 1_555 1_555
H32B O3B 1_555 1_555
N7 C19 1_555 1_555
C1 C3 1_555 1_555
C7 C20 1_555 1_555
C8 C9 1_555 1_555
C11 C12 1_555 1_555
C16 C19 1_555 1_555
C17 C18 1_555 1_555
N7B C19B 1_555 1_555
C1B C3B 1_555 1_555
C7B C20B 1_555 1_555
C8B C9B 1_555 1_555
C11B C12B 1_555 1_555
C16B C19B 1_555 1_555
C17B C18B 1_555 1_555

#END
