
#######################################################################
#
#                 Cambridge Crystallographic Data Centre
#                                CCDC 
#
#######################################################################
#
# If this CIF has been generated from an entry in the Cambridge 
# Structural Database, then it will include bibliographic, chemical, 
# crystal, experimental, refinement or atomic coordinate data resulting 
# from the CCDC's data processing and validation procedures.
#
#######################################################################

data_RUVYIR
_symmetry_cell_setting           orthorhombic
_symmetry_space_group_name_H-M   'F d d 2'
_symmetry_Int_Tables_number      43
_space_group_name_Hall           'F 2 -2d'
loop_
_symmetry_equiv_pos_site_id
_symmetry_equiv_pos_as_xyz
1 x,y,z
2 -x,-y,z
3 1/4+x,1/4-y,1/4+z
4 1/4-x,1/4+y,1/4+z
5 x,1/2+y,1/2+z
6 -x,1/2-y,1/2+z
7 1/4+x,3/4-y,3/4+z
8 1/4-x,3/4+y,3/4+z
9 1/2+x,y,1/2+z
10 1/2-x,-y,1/2+z
11 3/4+x,1/4-y,3/4+z
12 3/4-x,1/4+y,3/4+z
13 1/2+x,1/2+y,z
14 1/2-x,1/2-y,z
15 3/4+x,3/4-y,1/4+z
16 3/4-x,3/4+y,1/4+z
_cell_length_a                   12.8750(13)
_cell_length_b                   31.603(4)
_cell_length_c                   9.4844(13)
_cell_angle_alpha                90
_cell_angle_beta                 90
_cell_angle_gamma                90
_cell_volume                     3859.09
loop_
_atom_site_label
_atom_site_type_symbol
_atom_site_fract_x
_atom_site_fract_y
_atom_site_fract_z
Zn1 Zn 0.0000 0.0000 0.50425(8)
C1 C -0.0211(2) -0.08556(10) 0.3730(4)
C2 C -0.0160(2) -0.10900(9) 0.4977(6)
H1 H -0.0071 -0.0951 0.5833
C3 C -0.0238(2) -0.15182(10) 0.4952(5)
H2 H -0.0198 -0.1663 0.5803
C4 C -0.0424(2) -0.15368(9) 0.2483(4)
C5 C -0.0536(3) -0.17606(10) 0.1211(4)
H3 H -0.0562 -0.2055 0.1217
C6 C -0.0606(2) -0.15442(11) -0.0042(5)
H4 H -0.0677 -0.1694 -0.0880
C7 C -0.0574(2) -0.11042(10) -0.0075(4)
H5 H -0.0634 -0.0961 -0.0928
C8 C -0.0455(2) -0.08844(10) 0.1145(4)
H6 H -0.0434 -0.0590 0.1117
C9 C -0.0364(2) -0.10918(9) 0.2449(4)
C10 C -0.0476(3) -0.22058(10) 0.3834(4)
H7 H -0.0607 -0.2290 0.4801
H8 H -0.1070 -0.2291 0.3272
C11 C 0.0490(4) -0.24356(12) 0.3297(4)
N1 N -0.03698(18) -0.17421(8) 0.3773(3)
O1 O -0.01167(17) -0.04511(7) 0.3635(2)
O2 O 0.1351(2) -0.23176(8) 0.3814(3)
O3 O 0.0375(2) -0.27142(9) 0.2395(3)
Zn1F Zn 0.2500 -0.2500 0.25425(8)
Zn1J Zn -0.2500 0.2500 0.25425(8)
C1A C 0.0211(2) 0.08556(10) 0.3730(4)
C2A C 0.0160(2) 0.10900(9) 0.4977(6)
H1A H 0.0071 0.0951 0.5833
C3A C 0.0238(2) 0.15182(10) 0.4952(5)
H2A H 0.0198 0.1663 0.5803
C4A C 0.0424(2) 0.15368(9) 0.2483(4)
C5A C 0.0536(3) 0.17606(10) 0.1211(4)
H3A H 0.0562 0.2055 0.1217
C6A C 0.0606(2) 0.15442(11) -0.0042(5)
H4A H 0.0677 0.1694 -0.0880
C7A C 0.0574(2) 0.11042(10) -0.0075(4)
H5A H 0.0634 0.0961 -0.0928
C8A C 0.0455(2) 0.08844(10) 0.1145(4)
H6A H 0.0434 0.0590 0.1117
C9A C 0.0364(2) 0.10918(9) 0.2449(4)
C10A C 0.0476(3) 0.22058(10) 0.3834(4)
H7A H 0.0607 0.2290 0.4801
H8A H 0.1070 0.2291 0.3272
C11A C -0.0490(4) 0.24356(12) 0.3297(4)
N1A N 0.03698(18) 0.17421(8) 0.3773(3)
O1A O 0.01167(17) 0.04511(7) 0.3635(2)
O2A O -0.1351(2) 0.23176(8) 0.3814(3)
O2C O 0.1149(2) 0.01824(8) 0.6314(3)
O2N O -0.1149(2) -0.01824(8) 0.6314(3)
O3A O -0.0375(2) 0.27142(9) 0.2395(3)
O4 O 0.2500 0.2500 0.1467(5)
H9 H 0.3122 0.2497 0.1238
H9M H 0.1878 0.2503 0.1238
loop_
_geom_bond_atom_site_label_1
_geom_bond_atom_site_label_2
_geom_bond_site_symmetry_1
_geom_bond_site_symmetry_2
Zn1 O1 1_555 1_555
C1 C2 1_555 1_555
C2 H1 1_555 1_555
C3 C2 1_555 1_555
H2 C3 1_555 1_555
C4 C5 1_555 1_555
C5 H3 1_555 1_555
C6 C5 1_555 1_555
H4 C6 1_555 1_555
C7 C6 1_555 1_555
H5 C7 1_555 1_555
C8 C7 1_555 1_555
H6 C8 1_555 1_555
C9 C1 1_555 1_555
C10 H7 1_555 1_555
H8 C10 1_555 1_555
C11 C10 1_555 1_555
N1 C3 1_555 1_555
O1 C1 1_555 1_555
O2 C11 1_555 1_555
O3 C11 1_555 1_555
O4 H9 1_555 1_555
Zn1F O2 1_555 1_555
Zn1J O2A 1_555 1_555
C1A C2A 1_555 1_555
C2A H1A 1_555 1_555
C3A C2A 1_555 1_555
H2A C3A 1_555 1_555
C4A C5A 1_555 1_555
C5A H3A 1_555 1_555
C6A C5A 1_555 1_555
H4A C6A 1_555 1_555
C7A C6A 1_555 1_555
H5A C7A 1_555 1_555
C8A C7A 1_555 1_555
H6A C8A 1_555 1_555
C9A C1A 1_555 1_555
C10A H7A 1_555 1_555
H8A C10A 1_555 1_555
C11A C10A 1_555 1_555
N1A C3A 1_555 1_555
O1A Zn1 1_555 1_555
O2A C11A 1_555 1_555
O2C Zn1 1_555 1_555
O2N Zn1 1_555 1_555
O3A C11A 1_555 1_555
H9M O4 1_555 1_555
C4 C9 1_555 1_555
C4 N1 1_555 1_555
C8 C9 1_555 1_555
C10 N1 1_555 1_555
C1A O1A 1_555 1_555
C4A C9A 1_555 1_555
C4A N1A 1_555 1_555
C8A C9A 1_555 1_555
C10A N1A 1_555 1_555

#END
