
#######################################################################
#
#                 Cambridge Crystallographic Data Centre
#                                CCDC 
#
#######################################################################
#
# If this CIF has been generated from an entry in the Cambridge 
# Structural Database, then it will include bibliographic, chemical, 
# crystal, experimental, refinement or atomic coordinate data resulting 
# from the CCDC's data processing and validation procedures.
#
#######################################################################

data_RUWTUY
_symmetry_cell_setting           monoclinic
_symmetry_space_group_name_H-M   'P 21/c'
_symmetry_Int_Tables_number      14
_space_group_name_Hall           '-P 2ybc'
loop_
_symmetry_equiv_pos_site_id
_symmetry_equiv_pos_as_xyz
1 x,y,z
2 x,1/2-y,1/2+z
3 -x,-y,-z
4 -x,1/2+y,1/2-z
_cell_length_a                   12.0687(1)
_cell_length_b                   13.9416(1)
_cell_length_c                   42.5190(5)
_cell_angle_alpha                90
_cell_angle_beta                 94.3486(3)
_cell_angle_gamma                90
_cell_volume                     7133.52
loop_
_atom_site_label
_atom_site_type_symbol
_atom_site_fract_x
_atom_site_fract_y
_atom_site_fract_z
Au1 Au 0.101966(19) 0.056096(16) 0.102401(7)
Au2 Au -0.40960(2) 0.004890(16) 0.110520(7)
Tl1 Tl -0.15543(2) 0.035076(16) 0.120569(8)
Tl2 Tl 0.36132(2) 0.111546(16) 0.097901(8)
C1 C 0.1025(4) -0.0573(4) 0.07153(16)
C2 C 0.1893(4) -0.1242(4) 0.07162(15)
C3 C 0.1982(4) -0.1932(4) 0.04922(17)
C4 C 0.1161(5) -0.1987(4) 0.02464(17)
C5 C 0.0243(5) -0.1388(4) 0.02399(17)
C6 C 0.0208(5) -0.0687(4) 0.04669(17)
Cl1 Cl 0.29202(13) -0.12177(10) 0.10311(5)
Cl2 Cl 0.31054(13) -0.26960(11) 0.04976(5)
Cl3 Cl 0.12534(14) -0.28360(12) -0.00482(5)
Cl4 Cl -0.08191(13) -0.15172(12) -0.00517(5)
Cl5 Cl -0.09406(13) 0.00689(11) 0.04494(5)
C7 C 0.0976(4) 0.1714(4) 0.13241(16)
C8 C 0.0219(4) 0.2464(4) 0.12691(15)
C9 C 0.0088(5) 0.3207(4) 0.14789(17)
C10 C 0.0734(5) 0.3214(4) 0.17609(18)
C11 C 0.1521(5) 0.2503(4) 0.18278(17)
C12 C 0.1616(5) 0.1775(4) 0.16061(18)
Cl6 Cl -0.05984(13) 0.24730(10) 0.09116(5)
Cl7 Cl -0.08834(15) 0.40877(12) 0.13949(6)
Cl8 Cl 0.05533(16) 0.41137(13) 0.20332(6)
Cl9 Cl 0.23281(15) 0.25167(13) 0.21789(5)
Cl10 Cl 0.26109(14) 0.08935(12) 0.16963(5)
C13 C -0.3953(4) -0.0624(4) 0.06839(17)
C14 C -0.4053(4) -0.1627(4) 0.06544(16)
C15 C -0.3953(4) -0.2101(4) 0.03704(17)
C16 C -0.3736(5) -0.1580(4) 0.01016(17)
C17 C -0.3633(5) -0.0583(4) 0.01200(16)
C18 C -0.3738(5) -0.0137(4) 0.04064(18)
Cl11 Cl -0.42763(14) -0.22971(11) 0.09835(5)
Cl12 Cl -0.40840(14) -0.33306(10) 0.03445(5)
Cl13 Cl -0.35467(14) -0.21750(11) -0.02459(5)
Cl14 Cl -0.33457(14) 0.00569(11) -0.02102(5)
Cl15 Cl -0.35958(14) 0.11065(10) 0.04248(5)
C19 C -0.4258(4) 0.0693(4) 0.15296(17)
C20 C -0.3944(4) 0.1642(4) 0.15986(17)
C21 C -0.4102(5) 0.2088(4) 0.18824(19)
C22 C -0.4578(5) 0.1587(4) 0.21210(19)
C23 C -0.4887(5) 0.0633(4) 0.20674(18)
C24 C -0.4735(5) 0.0225(4) 0.17777(19)
Cl16 Cl -0.32697(14) 0.22769(11) 0.13182(5)
Cl17 Cl -0.37344(17) 0.32684(12) 0.19425(6)
Cl18 Cl -0.47998(16) 0.21255(15) 0.24729(6)
Cl19 Cl -0.54437(16) -0.00197(15) 0.23607(6)
Cl20 Cl -0.51918(13) -0.09515(11) 0.17099(5)
O1 O -0.1468(3) -0.1217(3) 0.14970(13)
P1 P -0.09544(13) -0.21697(11) 0.15694(5)
C25 C 0.0223(5) -0.2090(4) 0.18505(19)
C26 C 0.1185(5) -0.1654(4) 0.1762(2)
H1 H 0.1232 -0.1462 0.1549
C27 C 0.2072(6) -0.1498(5) 0.1979(2)
H2 H 0.2723 -0.1190 0.1916
C28 C 0.2013(6) -0.1787(5) 0.2283(2)
H3 H 0.2635 -0.1691 0.2430
C29 C 0.1074(6) -0.2216(5) 0.2382(2)
H4 H 0.1039 -0.2409 0.2595
C30 C 0.0180(6) -0.2359(4) 0.2163(2)
H5 H -0.0477 -0.2649 0.2228
C31 C -0.0514(5) -0.2750(4) 0.12271(19)
C32 C 0.0335(5) -0.3422(4) 0.1234(2)
H6 H 0.0759 -0.3549 0.1427
C33 C 0.0574(6) -0.3906(5) 0.0966(2)
H7 H 0.1152 -0.4370 0.0977
C34 C -0.0011(6) -0.3727(5) 0.0685(2)
H8 H 0.0167 -0.4060 0.0500
C35 C -0.0861(6) -0.3063(6) 0.0669(2)
H9 H -0.1280 -0.2943 0.0475
C36 C -0.1098(6) -0.2572(5) 0.0939(2)
H10 H -0.1671 -0.2104 0.0927
C37 C -0.1930(5) -0.2969(4) 0.17265(17)
C38 C -0.1662(5) -0.3902(4) 0.18169(18)
H11 H -0.0922 -0.4127 0.1808
C39 C -0.2466(6) -0.4502(5) 0.19185(19)
H12 H -0.2275 -0.5136 0.1984
C40 C -0.3545(6) -0.4190(5) 0.1927(2)
H13 H -0.4099 -0.4612 0.1993
C41 C -0.3820(6) -0.3268(5) 0.1838(2)
H14 H -0.4564 -0.3051 0.1845
C42 C -0.3015(5) -0.2656(4) 0.17397(19)
H15 H -0.3207 -0.2016 0.1681
P2 P 0.40093(13) 0.38838(11) 0.10507(5)
O2 O 0.3912(3) 0.2866(3) 0.11562(12)
C43 C 0.5362(5) 0.4188(4) 0.09376(16)
C44 C 0.6005(5) 0.4939(4) 0.10709(17)
H16 H 0.5734 0.5318 0.1234
C45 C 0.7039(5) 0.5129(5) 0.0964(2)
H17 H 0.7475 0.5640 0.1054
C46 C 0.7437(6) 0.4587(5) 0.0729(2)
H18 H 0.8146 0.4729 0.0657
C47 C 0.6828(5) 0.3846(5) 0.0595(2)
H19 H 0.7112 0.3471 0.0432
C48 C 0.5787(5) 0.3646(4) 0.06992(18)
H20 H 0.5360 0.3133 0.0606
C49 C 0.3073(5) 0.4136(4) 0.07126(17)
C50 C 0.2033(5) 0.3710(4) 0.06973(19)
H21 H 0.1832 0.3310 0.0865
C51 C 0.1298(6) 0.3863(5) 0.0442(2)
H22 H 0.0583 0.3576 0.0435
C52 C 0.1578(6) 0.4429(5) 0.0194(2)
H23 H 0.1067 0.4516 0.0015
C53 C 0.2592(6) 0.4862(5) 0.0207(2)
H24 H 0.2784 0.5264 0.0039
C54 C 0.3346(6) 0.4719(4) 0.04657(19)
H25 H 0.4053 0.5021 0.0474
C55 C 0.3672(5) 0.4707(4) 0.13566(18)
C56 C 0.3576(5) 0.4360(5) 0.1659(2)
H26 H 0.3689 0.3698 0.1703
C57 C 0.3314(6) 0.4981(6) 0.1897(2)
H27 H 0.3261 0.4747 0.2105
C58 C 0.3130(6) 0.5934(5) 0.1832(2)
H28 H 0.2944 0.6355 0.1995
C59 C 0.3213(6) 0.6281(5) 0.1536(2)
H29 H 0.3077 0.6942 0.1495
C60 C 0.3494(5) 0.5680(4) 0.12910(19)
H30 H 0.3561 0.5927 0.1085
O3 O -0.1084(5) 0.0998(4) 0.18321(17)
C61 C -0.0984(6) 0.0523(5) 0.2071(2)
C62 C -0.1926(6) -0.0018(6) 0.2190(2)
H31 H -0.2226 0.0339 0.2363
H32 H -0.1666 -0.0648 0.2266
H33 H -0.2509 -0.0102 0.2019
C63 C 0.0086(6) 0.0454(5) 0.2264(2)
H34 H 0.0616 0.0912 0.2186
H35 H 0.0382 -0.0198 0.2251
H36 H -0.0031 0.0603 0.2485
Tl2_2 Tl -0.63868(2) 0.111546(16) 0.097901(8)
Au2_2 Au 0.59040(2) 0.004890(16) 0.110520(7)
loop_
_geom_bond_atom_site_label_1
_geom_bond_atom_site_label_2
_geom_bond_site_symmetry_1
_geom_bond_site_symmetry_2
Au1 Tl1 1_555 1_555
Au2 Tl1 1_555 1_555
Tl1 O1 1_555 1_555
Tl2 Au1 1_555 1_555
C1 Au1 1_555 1_555
C2 C1 1_555 1_555
C3 C2 1_555 1_555
C4 C3 1_555 1_555
C5 C4 1_555 1_555
C6 C1 1_555 1_555
Cl1 C2 1_555 1_555
Cl2 C3 1_555 1_555
Cl3 C4 1_555 1_555
Cl4 C5 1_555 1_555
Cl5 C6 1_555 1_555
C7 Au1 1_555 1_555
C8 C7 1_555 1_555
C9 C8 1_555 1_555
C10 C9 1_555 1_555
C11 C10 1_555 1_555
C12 C7 1_555 1_555
Cl6 C8 1_555 1_555
Cl7 C9 1_555 1_555
Cl8 C10 1_555 1_555
Cl9 C11 1_555 1_555
Cl10 C12 1_555 1_555
C13 Au2 1_555 1_555
C14 C13 1_555 1_555
C15 C14 1_555 1_555
C16 C15 1_555 1_555
C17 C16 1_555 1_555
C18 C13 1_555 1_555
Cl11 C14 1_555 1_555
Cl12 C15 1_555 1_555
Cl13 C16 1_555 1_555
Cl14 C17 1_555 1_555
Cl15 C18 1_555 1_555
C19 Au2 1_555 1_555
C20 C19 1_555 1_555
C21 C20 1_555 1_555
C22 C21 1_555 1_555
C23 C22 1_555 1_555
C24 C19 1_555 1_555
Cl16 C20 1_555 1_555
Cl17 C21 1_555 1_555
Cl18 C22 1_555 1_555
Cl19 C23 1_555 1_555
Cl20 C24 1_555 1_555
O1 P1 1_555 1_555
P1 C25 1_555 1_555
C25 C26 1_555 1_555
C26 H1 1_555 1_555
C27 C26 1_555 1_555
H2 C27 1_555 1_555
C28 C27 1_555 1_555
H3 C28 1_555 1_555
C29 C28 1_555 1_555
H4 C29 1_555 1_555
C30 C25 1_555 1_555
H5 C30 1_555 1_555
C31 P1 1_555 1_555
C32 C31 1_555 1_555
H6 C32 1_555 1_555
C33 C32 1_555 1_555
H7 C33 1_555 1_555
C34 C33 1_555 1_555
H8 C34 1_555 1_555
C35 C34 1_555 1_555
H9 C35 1_555 1_555
C36 C31 1_555 1_555
H10 C36 1_555 1_555
C37 P1 1_555 1_555
C38 C37 1_555 1_555
H11 C38 1_555 1_555
C39 C38 1_555 1_555
H12 C39 1_555 1_555
C40 C39 1_555 1_555
H13 C40 1_555 1_555
C41 C40 1_555 1_555
H14 C41 1_555 1_555
C42 C37 1_555 1_555
H15 C42 1_555 1_555
P2 O2 1_555 1_555
O2 Tl2 1_555 1_555
C43 P2 1_555 1_555
C44 C43 1_555 1_555
H16 C44 1_555 1_555
C45 C44 1_555 1_555
H17 C45 1_555 1_555
C46 C45 1_555 1_555
H18 C46 1_555 1_555
C47 C46 1_555 1_555
H19 C47 1_555 1_555
C48 C43 1_555 1_555
H20 C48 1_555 1_555
C49 P2 1_555 1_555
C50 C49 1_555 1_555
H21 C50 1_555 1_555
C51 C50 1_555 1_555
H22 C51 1_555 1_555
C52 C51 1_555 1_555
H23 C52 1_555 1_555
C53 C52 1_555 1_555
H24 C53 1_555 1_555
C54 C49 1_555 1_555
H25 C54 1_555 1_555
C55 P2 1_555 1_555
C56 C55 1_555 1_555
H26 C56 1_555 1_555
C57 C56 1_555 1_555
H27 C57 1_555 1_555
C58 C57 1_555 1_555
H28 C58 1_555 1_555
C59 C58 1_555 1_555
H29 C59 1_555 1_555
C60 C55 1_555 1_555
H30 C60 1_555 1_555
O3 Tl1 1_555 1_555
C61 O3 1_555 1_555
C62 C61 1_555 1_555
H31 C62 1_555 1_555
H32 C62 1_555 1_555
H33 C62 1_555 1_555
C63 C61 1_555 1_555
H34 C63 1_555 1_555
H35 C63 1_555 1_555
H36 C63 1_555 1_555
Tl2_2 Au2 1_555 1_555
Au2_2 Tl2 1_555 1_555
C5 C6 1_555 1_555
C11 C12 1_555 1_555
C17 C18 1_555 1_555
C23 C24 1_555 1_555
C29 C30 1_555 1_555
C35 C36 1_555 1_555
C41 C42 1_555 1_555
C47 C48 1_555 1_555
C53 C54 1_555 1_555
C59 C60 1_555 1_555

#END
