
#######################################################################
#
#                 Cambridge Crystallographic Data Centre
#                                CCDC 
#
#######################################################################
#
# If this CIF has been generated from an entry in the Cambridge 
# Structural Database, then it will include bibliographic, chemical, 
# crystal, experimental, refinement or atomic coordinate data resulting 
# from the CCDC's data processing and validation procedures.
#
#######################################################################

data_RUWZEO
_symmetry_cell_setting           triclinic
_symmetry_space_group_name_H-M   'P -1'
_symmetry_Int_Tables_number      2
_space_group_name_Hall           '-P 1'
loop_
_symmetry_equiv_pos_site_id
_symmetry_equiv_pos_as_xyz
1 x,y,z
2 -x,-y,-z
_cell_length_a                   5.6502(11)
_cell_length_b                   10.286(2)
_cell_length_c                   11.395(2)
_cell_angle_alpha                63.41(3)
_cell_angle_beta                 87.30(3)
_cell_angle_gamma                74.80(3)
_cell_volume                     569.595
loop_
_atom_site_label
_atom_site_type_symbol
_atom_site_fract_x
_atom_site_fract_y
_atom_site_fract_z
C1 C -0.3683(3) 0.4480(2) 0.52092(17)
H1 H -0.2528 0.5093 0.5108
H2 H -0.3571 0.3748 0.6151
C2 C -0.3058(4) 0.2051(2) 0.5040(2)
H3 H -0.2235 0.1589 0.4468
C3 C -0.5674(5) 0.1941(3) 0.5115(2)
H4 H -0.6539 0.2405 0.5656
H5 H -0.5676 0.0877 0.5510
H6 H -0.6508 0.2470 0.4226
C4 C -0.1644(5) 0.1154(3) 0.6401(2)
H7 H -0.0096 0.1427 0.6367
H8 H -0.1288 0.0071 0.6664
H9 H -0.2642 0.1390 0.7043
C5 C -0.2213(3) 0.4316(2) 0.32031(17)
C6 C 0.4962(5) 0.1510(2) 0.1010(2)
H10 H 0.3613 0.1090 0.0943
H11 H 0.5210 0.1300 0.1938
C7 C 0.7273(5) 0.0749(3) 0.0616(3)
H12 H 0.7028 0.0949 -0.0301
H13 H 0.7682 -0.0342 0.1187
H14 H 0.8622 0.1142 0.0706
N1 N -0.2953(3) 0.36538(17) 0.44206(15)
O1 O 0.4277(3) 0.31012(15) 0.01962(13)
H15 H 0.3471 0.3302 -0.0493
K1 K 0.26230(8) 0.51119(5) 0.11367(4)
S1 S -0.19559(9) 0.61431(5) 0.25855(4)
S2 S -0.15106(9) 0.33591(5) 0.22614(4)
C1A C -0.6317(3) 0.5520(2) 0.47908(17)
H1A H -0.7472 0.4907 0.4892
H2A H -0.6429 0.6252 0.3849
N1A N -0.7047(3) 0.63462(17) 0.55794(15)
C2A C -0.6942(4) 0.7949(2) 0.4960(2)
H3A H -0.7765 0.8411 0.5532
C3A C -0.4326(5) 0.8059(3) 0.4885(2)
H4A H -0.3461 0.7595 0.4344
H5A H -0.4324 0.9123 0.4490
H6A H -0.3492 0.7530 0.5774
C4A C -0.8356(5) 0.8846(3) 0.3599(2)
H7A H -0.9904 0.8573 0.3633
H8A H -0.8712 0.9929 0.3336
H9A H -0.7358 0.8610 0.2957
C5A C -0.7787(3) 0.5684(2) 0.67969(17)
S1A S -0.80441(9) 0.38569(5) 0.74145(4)
S2A S -0.84894(9) 0.66409(5) 0.77386(4)
C6A C 0.5038(5) 0.8490(2) -0.1010(2)
H10A H 0.6387 0.8910 -0.0943
H11A H 0.4790 0.8700 -0.1938
C7A C 0.2727(5) 0.9251(3) -0.0616(3)
H12A H 0.2972 0.9051 0.0301
H13A H 0.2318 1.0342 -0.1187
H14A H 0.1378 0.8858 -0.0706
O1A O 0.5723(3) 0.68988(15) -0.01962(13)
H15A H 0.6529 0.6698 0.0493
K1A K 0.73770(8) 0.48881(5) -0.11367(4)
S2_2 S 0.84894(9) 0.33591(5) 0.22614(4)
S2A_2 S 0.15106(9) 0.66409(5) -0.22614(4)
K1_2 K -0.73770(8) 0.51119(5) 0.11367(4)
K1A_2 K -0.26230(8) 0.48881(5) -0.11367(4)
K1A_3 K -1.26230(8) 0.48881(5) 0.88633(4)
K1_3 K -0.73770(8) 0.51119(5) 1.11367(4)
K1A_4 K -0.26230(8) 0.48881(5) 0.88633(4)
S1A_2 S 1.19559(9) 0.38569(5) -0.25855(4)
S2A_3 S 1.15106(9) 0.66409(5) -0.22614(4)
loop_
_geom_bond_atom_site_label_1
_geom_bond_atom_site_label_2
_geom_bond_site_symmetry_1
_geom_bond_site_symmetry_2
C1 H1 1_555 1_555
H2 C1 1_555 1_555
C2 H3 1_555 1_555
C3 C2 1_555 1_555
H4 C3 1_555 1_555
H5 C3 1_555 1_555
H6 C3 1_555 1_555
C4 C2 1_555 1_555
H7 C4 1_555 1_555
H8 C4 1_555 1_555
H9 C4 1_555 1_555
C5 N1 1_555 1_555
C6 H10 1_555 1_555
H11 C6 1_555 1_555
C7 C6 1_555 1_555
H12 C7 1_555 1_555
H13 C7 1_555 1_555
H14 C7 1_555 1_555
N1 C1 1_555 1_555
O1 C6 1_555 1_555
H15 O1 1_555 1_555
K1 O1 1_555 1_555
S1 C5 1_555 1_555
S2 C5 1_555 1_555
C1A C1 1_555 1_555
H1A C1A 1_555 1_555
H2A C1A 1_555 1_555
N1A C1A 1_555 1_555
C2A N1A 1_555 1_555
H3A C2A 1_555 1_555
C3A C2A 1_555 1_555
H4A C3A 1_555 1_555
H5A C3A 1_555 1_555
H6A C3A 1_555 1_555
C4A C2A 1_555 1_555
H7A C4A 1_555 1_555
H8A C4A 1_555 1_555
H9A C4A 1_555 1_555
C5A N1A 1_555 1_555
S1A C5A 1_555 1_555
S2A C5A 1_555 1_555
C6A H10A 1_555 1_555
H11A C6A 1_555 1_555
C7A C6A 1_555 1_555
H12A C7A 1_555 1_555
H13A C7A 1_555 1_555
H14A C7A 1_555 1_555
O1A K1 1_555 1_555
H15A O1A 1_555 1_555
K1A O1 1_555 1_555
S2_2 K1 1_555 1_555
S2A_2 K1 1_555 1_555
K1_2 S2 1_555 1_555
K1A_2 S2 1_555 1_555
K1A_3 S1A 1_555 1_555
K1_3 S2A 1_555 1_555
K1A_4 S2A 1_555 1_555
S1A_2 K1A 1_555 1_555
S2A_3 K1A 1_555 1_555
C2 N1 1_555 1_555
K1 S1 1_555 1_555
K1 S2 1_555 1_555
S2A K1A_3 1_555 1_555
C6A O1A 1_555 1_555
O1A K1A 1_555 1_555
K1A S2_2 1_555 1_555
K1A S2A_2 1_555 1_555
S2A_2 K1A_2 1_555 1_555

#END
