
#######################################################################
#
#                 Cambridge Crystallographic Data Centre
#                                CCDC 
#
#######################################################################
#
# If this CIF has been generated from an entry in the Cambridge 
# Structural Database, then it will include bibliographic, chemical, 
# crystal, experimental, refinement or atomic coordinate data resulting 
# from the CCDC's data processing and validation procedures.
#
#######################################################################

data_RUXTOU
_symmetry_cell_setting           triclinic
_symmetry_space_group_name_H-M   'P -1'
_symmetry_Int_Tables_number      2
_space_group_name_Hall           '-P 1'
loop_
_symmetry_equiv_pos_site_id
_symmetry_equiv_pos_as_xyz
1 x,y,z
2 -x,-y,-z
_cell_length_a                   12.029(6)
_cell_length_b                   12.671(5)
_cell_length_c                   13.429(5)
_cell_angle_alpha                102.340(15)
_cell_angle_beta                 109.300(16)
_cell_angle_gamma                105.490(17)
_cell_volume                     1756.03
loop_
_atom_site_label
_atom_site_type_symbol
_atom_site_fract_x
_atom_site_fract_y
_atom_site_fract_z
C1 C 0.667(3) 0.536(2) 0.539(3)
H1 H 0.5887 0.4844 0.4840
C2 C 0.6902(18) 0.6510(18) 0.5891(16)
H2 H 0.6333 0.6891 0.5767
C3 C 0.8137(19) 0.6964(16) 0.661(2)
H3 H 0.8596 0.7724 0.7092
C4 C 0.985(2) 0.6072(19) 0.6989(19)
H4 H 1.0297 0.6226 0.6520
H5 H 0.9807 0.5315 0.7056
C5 C 1.0558(18) 0.6979(14) 0.8121(18)
C6 C 1.1468(19) 0.8027(16) 0.8300(19)
H6 H 1.1661 0.8189 0.7720
C7 C 1.2087(17) 0.8837(15) 0.9395(17)
H7 H 1.2699 0.9539 0.9520
C8 C 1.1839(15) 0.8650(13) 1.0310(18)
C9 C 1.0945(16) 0.7561(14) 1.0068(16)
H8 H 1.0750 0.7378 1.0640
C10 C 1.0346(15) 0.6754(15) 0.9016(17)
H9 H 0.9779 0.6032 0.8901
C11 C 1.2467(16) 0.9551(16) 1.1438(16)
H10 H 1.3156 0.9384 1.1913
H11 H 1.2821 1.0304 1.1375
C12 C 1.157(2) 0.9364(18) 1.2868(19)
H12 H 1.2199 0.9201 1.3360
C13 C 1.054(3) 0.941(2) 1.298(2)
H13 H 1.0308 0.9306 1.3561
C14 C 0.988(2) 0.9638(16) 1.2059(17)
H14 H 0.9100 0.9710 1.1913
C15 C 0.9498(17) 0.2340(14) 0.5198(19)
H15 H 1.0252 0.2906 0.5746
C16 C 0.937(2) 0.1303(18) 0.4514(15)
H16 H 1.0031 0.1062 0.4494
C17 C 0.815(2) 0.0699(16) 0.3886(17)
H17 H 0.7802 -0.0049 0.3374
C18 C 0.6138(16) 0.1072(14) 0.3667(16)
H18 H 0.5756 0.0524 0.2913
H19 H 0.5955 0.1766 0.3631
C19 C 0.5566(16) 0.0547(15) 0.4377(14)
C20 C 0.5361(17) 0.1180(14) 0.5192(16)
H20 H 0.5586 0.1977 0.5341
C21 C 0.5192(19) -0.0649(15) 0.4177(18)
H21 H 0.5310 -0.1109 0.3611
Cu1 Cu 0.7907(3) 0.3706(2) 0.5306(3)
Cu2 Cu 1.0000 1.0000 1.0000
N1 N 0.7641(15) 0.5083(15) 0.5739(18)
N2 N 0.8572(15) 0.6071(13) 0.6476(16)
N3 N 1.1586(14) 0.9587(13) 1.1945(11)
N4 N 1.0497(14) 0.9749(11) 1.1379(13)
N5 N 0.8326(14) 0.2395(12) 0.4936(14)
N6 N 0.7507(13) 0.1367(11) 0.4123(12)
O1 O 0.7121(12) 0.3467(9) 0.3153(11)
O2 O 0.4772(14) 0.3414(14) 0.1952(13)
O3 O 0.5986(13) 0.2682(15) 0.0837(13)
O4 O 0.2198(12) 0.2030(9) 0.1181(10)
O5 O 0.3530(13) 0.2004(14) -0.0138(13)
O6 O 0.4713(12) 0.0649(10) -0.0997(13)
O7 O 0.4931(17) 0.3910(15) 0.0405(15)
O8 O 0.6096(11) 0.2774(11) -0.1083(13)
O9 O 0.2044(15) 0.5236(11) 0.0035(12)
O10 O 0.1896(16) 0.3089(11) -0.0418(13)
O11 O 0.3801(17) 0.4700(15) 0.0203(17)
O12 O 0.4952(14) 0.4045(12) -0.0860(14)
O13 O 0.6085(17) 0.5369(13) 0.1052(18)
O14 O 0.3650(12) 0.2044(10) -0.2007(12)
O15 O 0.2564(12) 0.6418(13) 0.2294(11)
O16 O 0.3117(15) 0.4455(11) 0.1618(11)
O17 O 0.4998(11) 0.3512(10) -0.2659(12)
O18 O 0.1997(14) 0.3118(11) -0.2360(14)
O19 O 0.0052(11) 0.3658(10) -0.1928(14)
O20 O 0.7831(14) 0.4734(11) 0.1859(13)
O21 O 0.6632(14) 0.5458(11) 0.2981(14)
O22 O 0.2493(14) 0.2154(12) -0.4140(12)
P1 P 0.5000 0.5000 0.0000
W1 W 0.64488(6) 0.39571(6) 0.21548(6)
W2 W 0.30872(6) 0.29922(6) 0.08171(6)
W3 W 0.48207(6) 0.20516(5) -0.06583(6)
W4 W 0.16422(5) 0.40888(5) -0.12901(6)
W5 W 0.32995(6) 0.30735(5) -0.28134(5)
W6 W 0.33326(6) 0.59563(5) 0.15435(6)
C1A C 1.333(3) 1.464(2) 1.461(3)
H1A H 1.4113 1.5156 1.5160
C2A C 1.3098(18) 1.3490(18) 1.4109(16)
H2A H 1.3667 1.3109 1.4233
C3A C 1.1863(19) 1.3036(16) 1.339(2)
H3A H 1.1404 1.2276 1.2908
C4A C 1.015(2) 1.3928(19) 1.3011(19)
H4A H 0.9703 1.3774 1.3480
H5A H 1.0193 1.4685 1.2944
C5A C 0.9442(18) 1.3021(14) 1.1879(18)
C6A C 0.8532(19) 1.1973(16) 1.1700(19)
H6A H 0.8339 1.1811 1.2280
C7A C 0.7913(17) 1.1163(15) 1.0605(17)
H7A H 0.7301 1.0461 1.0480
C8A C 0.8161(15) 1.1350(13) 0.9690(18)
C9A C 0.9055(16) 1.2439(14) 0.9932(16)
H8A H 0.9250 1.2622 0.9360
C10A C 0.9654(15) 1.3246(15) 1.0984(17)
H9A H 1.0221 1.3968 1.1099
C11A C 0.7533(16) 1.0449(16) 0.8562(16)
H10A H 0.6844 1.0616 0.8087
H11A H 0.7179 0.9696 0.8625
C12A C 0.843(2) 1.0636(18) 0.7132(19)
H12A H 0.7801 1.0799 0.6640
C13A C 0.946(3) 1.059(2) 0.702(2)
H13A H 0.9692 1.0694 0.6439
C14A C 1.012(2) 1.0362(16) 0.7941(17)
H14A H 1.0900 1.0290 0.8087
C15A C 0.0502(17) -0.2340(14) 0.4802(19)
H15A H -0.0252 -0.2906 0.4254
C16A C 0.063(2) -0.1303(18) 0.5486(15)
H16A H -0.0031 -0.1062 0.5506
C17A C 0.185(2) -0.0699(16) 0.6114(17)
H17A H 0.2198 0.0049 0.6626
C18A C 0.3862(16) -0.1072(14) 0.6333(16)
H18A H 0.4244 -0.0524 0.7087
H19A H 0.4045 -0.1766 0.6369
C19A C 0.4434(16) -0.0547(15) 0.5623(14)
C20A C 0.4639(17) -0.1180(14) 0.4808(16)
H20A H 0.4414 -0.1977 0.4659
C21A C 0.4808(19) 0.0649(15) 0.5823(18)
H21A H 0.4690 0.1109 0.6389
Cu1A Cu 1.2093(3) 1.6294(2) 1.4694(3)
Cu1A_2 Cu 0.2093(3) -0.3706(2) 0.4694(3)
Cu1A_3 Cu 0.2093(3) 0.6294(2) -0.5306(3)
N1A N 1.2359(15) 1.4917(15) 1.4261(18)
N2A N 1.1428(15) 1.3929(13) 1.3524(16)
N3A N 0.8414(14) 1.0413(13) 0.8055(11)
N4A N 0.9503(14) 1.0251(11) 0.8621(13)
N5A N 0.1674(14) -0.2395(12) 0.5064(14)
N5A_2 N 1.1674(14) 1.7605(12) 1.5064(14)
N6A N 0.2493(13) -0.1367(11) 0.5877(12)
O1A O 1.2879(12) 1.6533(9) 1.6847(11)
O1A_2 O 0.2879(12) 0.6533(9) -0.3153(11)
O2A O 1.5228(14) 1.6586(14) 1.8048(13)
O2A_2 O 0.5228(14) 0.6586(14) -0.1952(13)
O3A O 1.4014(13) 1.7318(15) 1.9163(13)
O3A_2 O 0.4014(13) 0.7318(15) -0.0837(13)
O4A O 1.7802(12) 1.7970(9) 1.8819(10)
O4A_2 O 0.7802(12) 0.7970(9) -0.1181(10)
O5A O 1.6470(13) 1.7996(14) 2.0138(13)
O5A_2 O 0.6470(13) 0.7996(14) 0.0138(13)
O6A O 1.5287(12) 1.9351(10) 2.0997(13)
O6A_2 O 0.5287(12) 0.9351(10) 0.0997(13)
O7A O 0.5069(17) 0.6090(15) -0.0405(15)
O7A_2 O 1.5069(17) 1.6090(15) 1.9595(15)
O8A O 0.3904(11) 0.7226(11) 0.1083(13)
O8A_2 O 1.3904(11) 1.7226(11) 2.1083(13)
O9A O 0.7956(15) 0.4764(11) -0.0035(12)
O10A O 1.8104(16) 1.6911(11) 2.0418(13)
O10A_2 O 0.8104(16) 0.6911(11) 0.0418(13)
O11A O 0.6199(17) 0.5300(15) -0.0203(17)
O11A_2 O 1.6199(17) 1.5300(15) 1.9797(17)
O12A O 0.5048(14) 0.5955(12) 0.0860(14)
O12A_2 O 1.5048(14) 1.5955(12) 2.0860(14)
O13A O 0.3915(17) 0.4631(13) -0.1052(18)
O13A_2 O 1.3915(17) 1.4631(13) 1.8948(18)
O14A O 1.6350(12) 1.7956(10) 2.2007(12)
O14A_2 O 0.6350(12) 0.7956(10) 0.2007(12)
O15A O 0.7436(12) 0.3582(13) -0.2294(11)
O16A O 1.6883(15) 1.5545(11) 1.8382(11)
O16A_2 O 0.6883(15) 0.5545(11) -0.1618(11)
O17A O 0.5002(11) 0.6488(10) 0.2659(12)
O18A O 0.8003(14) 0.6882(11) 0.2360(14)
O19A O 0.9948(11) 0.6342(10) 0.1928(14)
O20A O 1.2169(14) 1.5266(11) 1.8141(13)
O20A_2 O 0.2169(14) 0.5266(11) -0.1859(13)
O21A O 1.3368(14) 1.4542(11) 1.7019(14)
O21A_2 O 0.3368(14) 0.4542(11) -0.2981(14)
O22A O 0.7507(14) 0.7846(12) 0.4140(12)
W1A W 1.35512(6) 1.60429(6) 1.78452(6)
W1A_2 W 0.35512(6) 0.60429(6) -0.21548(6)
W2A W 1.69128(6) 1.70078(6) 1.91829(6)
W2A_2 W 0.69128(6) 0.70078(6) -0.08171(6)
W3A W 1.51793(6) 1.79484(5) 2.06583(6)
W3A_2 W 0.51793(6) 0.79484(5) 0.06583(6)
W4A W 0.83578(5) 0.59112(5) 0.12901(6)
W4_2 W 1.16422(5) 1.40888(5) 1.87099(6)
W4A_2 W 1.83578(5) 1.59112(5) 2.12901(6)
W5A W 0.67005(6) 0.69265(5) 0.28134(5)
W5_2 W 1.32995(6) 1.30735(5) 1.71866(5)
W5A_2 W 1.67005(6) 1.69265(5) 2.28134(5)
W6A W 0.66674(6) 0.40437(5) -0.15435(6)
W6A_2 W 1.66674(6) 1.40437(5) 1.84565(6)
loop_
_geom_bond_atom_site_label_1
_geom_bond_atom_site_label_2
_geom_bond_site_symmetry_1
_geom_bond_site_symmetry_2
C1 H1 1_555 1_555
C2 C1 1_555 1_555
H2 C2 1_555 1_555
C3 C2 1_555 1_555
H3 C3 1_555 1_555
C4 H4 1_555 1_555
H5 C4 1_555 1_555
C5 C4 1_555 1_555
C6 C5 1_555 1_555
H6 C6 1_555 1_555
C7 C6 1_555 1_555
H7 C7 1_555 1_555
C8 C7 1_555 1_555
C9 C8 1_555 1_555
H8 C9 1_555 1_555
C10 C5 1_555 1_555
H9 C10 1_555 1_555
C11 C8 1_555 1_555
H10 C11 1_555 1_555
H11 C11 1_555 1_555
C12 H12 1_555 1_555
C13 C12 1_555 1_555
H13 C13 1_555 1_555
C14 C13 1_555 1_555
H14 C14 1_555 1_555
C15 H15 1_555 1_555
C16 C15 1_555 1_555
H16 C16 1_555 1_555
C17 C16 1_555 1_555
H17 C17 1_555 1_555
C18 H18 1_555 1_555
H19 C18 1_555 1_555
C19 C18 1_555 1_555
C20 C19 1_555 1_555
H20 C20 1_555 1_555
C21 C19 1_555 1_555
H21 C21 1_555 1_555
Cu1 N1 1_555 1_555
Cu2 N4 1_555 1_555
N1 C1 1_555 1_555
N2 C3 1_555 1_555
N3 C11 1_555 1_555
N4 C14 1_555 1_555
N5 C15 1_555 1_555
N6 C17 1_555 1_555
O1 Cu1 1_555 1_555
O2 W1 1_555 1_555
O3 W1 1_555 1_555
O4 W2 1_555 1_555
O5 W2 1_555 1_555
O6 W3 1_555 1_555
O7 O11 1_555 1_555
O8 W3 1_555 1_555
O9 W4 1_555 1_555
O10 W2 1_555 1_555
O11 P1 1_555 1_555
O12 O7 1_555 1_555
O13 O7 1_555 1_555
O14 W3 1_555 1_555
O15 W6 1_555 1_555
O16 W2 1_555 1_555
O17 W5 1_555 1_555
O18 W4 1_555 1_555
O19 W4 1_555 1_555
O20 W1 1_555 1_555
O21 W1 1_555 1_555
O22 W5 1_555 1_555
P1 O7 1_555 1_555
W1 O1 1_555 1_555
W2 O2 1_555 1_555
W3 O3 1_555 1_555
W4 O10 1_555 1_555
W5 O12 1_555 1_555
W6 O9 1_555 1_555
C1A H1A 1_555 1_555
C2A C1A 1_555 1_555
H2A C2A 1_555 1_555
C3A C2A 1_555 1_555
H3A C3A 1_555 1_555
C4A H4A 1_555 1_555
H5A C4A 1_555 1_555
C5A C4A 1_555 1_555
C6A C5A 1_555 1_555
H6A C6A 1_555 1_555
C7A C6A 1_555 1_555
H7A C7A 1_555 1_555
C8A C7A 1_555 1_555
C9A C8A 1_555 1_555
H8A C9A 1_555 1_555
C10A C5A 1_555 1_555
H9A C10A 1_555 1_555
C11A C8A 1_555 1_555
H10A C11A 1_555 1_555
H11A C11A 1_555 1_555
C12A H12A 1_555 1_555
C13A C12A 1_555 1_555
H13A C13A 1_555 1_555
C14A C13A 1_555 1_555
H14A C14A 1_555 1_555
C15A H15A 1_555 1_555
C16A C15A 1_555 1_555
H16A C16A 1_555 1_555
C17A C16A 1_555 1_555
H17A C17A 1_555 1_555
C18A H18A 1_555 1_555
H19A C18A 1_555 1_555
C19A C18A 1_555 1_555
C20A C21 1_555 1_555
H20A C20A 1_555 1_555
C21A C20 1_555 1_555
H21A C21A 1_555 1_555
Cu1A N1A 1_555 1_555
Cu1A_2 N5A 1_555 1_555
Cu1A_3 O1A_2 1_555 1_555
N1A C1A 1_555 1_555
N2A C3A 1_555 1_555
N3A C11A 1_555 1_555
N4A Cu2 1_555 1_555
N5A C15A 1_555 1_555
N5A_2 Cu1A 1_555 1_555
N6A C17A 1_555 1_555
O1A Cu1A 1_555 1_555
O1A_2 W1A_2 1_555 1_555
O2A W1A 1_555 1_555
O2A_2 W1A_2 1_555 1_555
O3A W1A 1_555 1_555
O3A_2 W1A_2 1_555 1_555
O4A W2A 1_555 1_555
O4A_2 W2A_2 1_555 1_555
O5A W2A 1_555 1_555
O5A_2 W2A_2 1_555 1_555
O6A W3A 1_555 1_555
O6A_2 W3A_2 1_555 1_555
O7A P1 1_555 1_555
O7A_2 O11A_2 1_555 1_555
O8A W6 1_555 1_555
O8A_2 W3A 1_555 1_555
O9A W4A 1_555 1_555
O10A W2A 1_555 1_555
O10A_2 W2A_2 1_555 1_555
O11A O12 1_555 1_555
O11A_2 W2A 1_555 1_555
O12A O11 1_555 1_555
O12A_2 O7A_2 1_555 1_555
O13A O11 1_555 1_555
O13A_2 O7A_2 1_555 1_555
O14A W3A 1_555 1_555
O14A_2 W3A_2 1_555 1_555
O15A W6A 1_555 1_555
O16A W2A 1_555 1_555
O16A_2 W2A_2 1_555 1_555
O17A W6 1_555 1_555
O18A W4A 1_555 1_555
O19A W4A 1_555 1_555
O20A W1A 1_555 1_555
O20A_2 W4 1_555 1_555
O21A W1A 1_555 1_555
O21A_2 W5 1_555 1_555
O22A W5A 1_555 1_555
W1A O1A 1_555 1_555
W1A_2 O7A 1_555 1_555
W2A O2A 1_555 1_555
W2A_2 O2A_2 1_555 1_555
W3A O3A 1_555 1_555
W3A_2 O3A_2 1_555 1_555
W4A O13 1_555 1_555
W4_2 O13A_2 1_555 1_555
W4A_2 O10A 1_555 1_555
W5A O13 1_555 1_555
W5_2 O13A_2 1_555 1_555
W5A_2 O12A_2 1_555 1_555
W6A O8 1_555 1_555
W6A_2 O11A_2 1_555 1_555
C4 N2 1_555 1_555
C9 C10 1_555 1_555
C12 N3 1_555 1_555
C18 N6 1_555 1_555
Cu1 N5 1_555 1_555
N1 N2 1_555 1_555
N3 N4 1_555 1_555
N5 N6 1_555 1_555
O5 W3 1_555 1_555
O7 W1 1_555 1_555
O7 W2 1_555 1_555
O7 W3 1_555 1_555
O11 W2 1_555 1_555
O11 W4 1_555 1_555
O11 W6 1_555 1_555
O12 P1 1_555 1_555
O12 W3 1_555 1_555
O12 O13A 1_555 1_555
O12 W6A 1_555 1_555
O13 P1 1_555 1_555
O13 W1 1_555 1_555
O13 O11A 1_555 1_555
O13 O12A 1_555 1_555
O14 W5 1_555 1_555
O16 W6 1_555 1_555
O17 W6A 1_555 1_555
O18 W5 1_555 1_555
O20 W4A 1_555 1_555
O21 W5A 1_555 1_555
P1 O11A 1_555 1_555
P1 O12A 1_555 1_555
P1 O13A 1_555 1_555
W4 O13A 1_555 1_555
W5 O13A 1_555 1_555
W6 O12A 1_555 1_555
C4A N2A 1_555 1_555
C9A C10A 1_555 1_555
C12A N3A 1_555 1_555
C14A N4A 1_555 1_555
C18A N6A 1_555 1_555
C19A C20A 1_555 1_555
C19A C21A 1_555 1_555
N1A N2A 1_555 1_555
N3A N4A 1_555 1_555
N5A N6A 1_555 1_555
O5A W3A 1_555 1_555
O5A_2 W3A_2 1_555 1_555
O7A O11A 1_555 1_555
O7A O12A 1_555 1_555
O7A O13A 1_555 1_555
O7A W2A_2 1_555 1_555
O7A W3A_2 1_555 1_555
O7A_2 W1A 1_555 1_555
O7A_2 W2A 1_555 1_555
O7A_2 W3A 1_555 1_555
O8A W3A_2 1_555 1_555
O9A W6A 1_555 1_555
O10A_2 W4A 1_555 1_555
O11A W2A_2 1_555 1_555
O11A W4A 1_555 1_555
O11A W6A 1_555 1_555
O11A_2 W4A_2 1_555 1_555
O12A W3A_2 1_555 1_555
O12A W5A 1_555 1_555
O12A_2 W3A 1_555 1_555
O13A W1A_2 1_555 1_555
O13A_2 W1A 1_555 1_555
O14A W5A_2 1_555 1_555
O14A_2 W5A 1_555 1_555
O16A W6A_2 1_555 1_555
O16A_2 W6A 1_555 1_555
O17A W5A 1_555 1_555
O18A W5A 1_555 1_555
O20A W4_2 1_555 1_555
O20A_2 W1A_2 1_555 1_555
O21A W5_2 1_555 1_555
O21A_2 W1A_2 1_555 1_555

#END
