
#######################################################################
#
#                 Cambridge Crystallographic Data Centre
#                                CCDC 
#
#######################################################################
#
# If this CIF has been generated from an entry in the Cambridge 
# Structural Database, then it will include bibliographic, chemical, 
# crystal, experimental, refinement or atomic coordinate data resulting 
# from the CCDC's data processing and validation procedures.
#
#######################################################################

data_RUXVAI
_symmetry_cell_setting           cubic
_symmetry_space_group_name_H-M   'I a -3'
_symmetry_Int_Tables_number      206
_space_group_name_Hall           '-I 2b 2c 3'
loop_
_symmetry_equiv_pos_site_id
_symmetry_equiv_pos_as_xyz
1 x,y,z
2 -x,1/2-y,z
3 x,-y,1/2-z
4 -x,1/2+y,1/2-z
5 z,x,y
6 -z,1/2-x,y
7 z,-x,1/2-y
8 -z,1/2+x,1/2-y
9 y,z,x
10 y,-z,1/2-x
11 -y,1/2+z,1/2-x
12 -y,1/2-z,x
13 1/2+x,1/2+y,1/2+z
14 1/2-x,-y,1/2+z
15 1/2+x,1/2-y,-z
16 1/2-x,y,-z
17 1/2+z,1/2+x,1/2+y
18 1/2-z,-x,1/2+y
19 1/2+z,1/2-x,-y
20 1/2-z,x,-y
21 1/2+y,1/2+z,1/2+x
22 1/2+y,1/2-z,-x
23 1/2-y,z,-x
24 1/2-y,-z,1/2+x
25 -x,-y,-z
26 x,1/2+y,-z
27 -x,y,1/2+z
28 x,1/2-y,1/2+z
29 -z,-x,-y
30 z,1/2+x,-y
31 -z,x,1/2+y
32 z,1/2-x,1/2+y
33 -y,-z,-x
34 -y,z,1/2+x
35 y,1/2-z,1/2+x
36 y,1/2+z,-x
37 1/2-x,1/2-y,1/2-z
38 1/2+x,y,1/2-z
39 1/2-x,1/2+y,z
40 1/2+x,-y,z
41 1/2-z,1/2-x,1/2-y
42 1/2+z,x,1/2-y
43 1/2-z,1/2+x,y
44 1/2+z,-x,y
45 1/2-y,1/2-z,1/2-x
46 1/2-y,1/2+z,x
47 1/2+y,-z,x
48 1/2+y,z,1/2-x
_cell_length_a                   32.631(4)
_cell_length_b                   32.631(4)
_cell_length_c                   32.631(4)
_cell_angle_alpha                90
_cell_angle_beta                 90
_cell_angle_gamma                90
_cell_volume                     34744.9
loop_
_atom_site_label
_atom_site_type_symbol
_atom_site_fract_x
_atom_site_fract_y
_atom_site_fract_z
Mo1 Mo 0.337908(15) 0.205135(16) 0.203536(16)
Mo2 Mo 0.241780(15) 0.201550(17) 0.152830(18)
O1 O 0.32461(19) 0.16590(14) 0.24341(14)
O2 O 0.29624(15) 0.18574(14) 0.16951(19)
O3 O 0.37903(13) 0.18494(14) 0.18245(16)
O4 O 0.36164(19) 0.23625(15) 0.24794(14)
O5 O 0.23852(14) 0.17738(17) 0.10853(17)
O6 O 0.19037(16) 0.22400(17) 0.15872(17)
O7 O 0.27190(19) 0.2411(2) 0.20973(19)
P1 P 0.2500 0.2500 0.2500
O16 O 0.2234(2) 0.2234(2) 0.2234(2)
Mo1RA Mo 0.294865(16) 0.296464(16) 0.162092(15)
Mo1NA Mo 0.296464(16) 0.162092(15) 0.294865(16)
Mo1D Mo 0.203536(16) 0.337908(15) 0.205135(16)
Mo1H Mo 0.205135(16) 0.203536(16) 0.337908(15)
Mo1JA Mo 0.162092(15) 0.294865(16) 0.296464(16)
Mo2NA Mo 0.347170(18) 0.258220(15) 0.298450(17)
Mo2H Mo 0.201550(17) 0.152830(18) 0.241780(15)
Mo2JA Mo 0.258220(15) 0.298450(17) 0.347170(18)
Mo2D Mo 0.152830(18) 0.241780(15) 0.201550(17)
Mo2RA Mo 0.298450(17) 0.347170(18) 0.258220(15)
O1RA O 0.33410(14) 0.25659(14) 0.17539(19)
O1D O 0.24341(14) 0.32461(19) 0.16590(14)
O1NA O 0.25659(14) 0.17539(19) 0.33410(14)
O1JA O 0.17539(19) 0.33410(14) 0.25659(14)
O1H O 0.16590(14) 0.24341(14) 0.32461(19)
O2RA O 0.31426(14) 0.33049(19) 0.20376(15)
O2NA O 0.33049(19) 0.20376(15) 0.31426(14)
O2D O 0.16951(19) 0.29624(15) 0.18574(14)
O2H O 0.18574(14) 0.16951(19) 0.29624(15)
O2JA O 0.20376(15) 0.31426(14) 0.33049(19)
O3RA O 0.31506(14) 0.31755(16) 0.12097(13)
O3NA O 0.31755(16) 0.12097(13) 0.31506(14)
O3D O 0.18245(16) 0.37903(13) 0.18494(14)
O3H O 0.18494(14) 0.18245(16) 0.37903(13)
O3JA O 0.12097(13) 0.31506(14) 0.31755(16)
O4RA O 0.26375(15) 0.25206(14) 0.13836(19)
O4NA O 0.25206(14) 0.13836(19) 0.26375(15)
O4D O 0.24794(14) 0.36164(19) 0.23625(15)
O4H O 0.23625(15) 0.24794(14) 0.36164(19)
O4JA O 0.13836(19) 0.26375(15) 0.25206(14)
O5NA O 0.39147(17) 0.26148(14) 0.32262(17)
O5H O 0.17738(17) 0.10853(17) 0.23852(14)
O5JA O 0.26148(14) 0.32262(17) 0.39147(17)
O5D O 0.10853(17) 0.23852(14) 0.17738(17)
O5RA O 0.32262(17) 0.39147(17) 0.26148(14)
O6H O 0.22400(17) 0.15872(17) 0.19037(16)
O6NA O 0.34128(17) 0.30963(16) 0.27600(17)
O6JA O 0.30963(16) 0.27600(17) 0.34128(17)
O6D O 0.15872(17) 0.19037(16) 0.22400(17)
O6RA O 0.27600(17) 0.34128(17) 0.30963(16)
O7D O 0.20973(19) 0.27190(19) 0.2411(2)
O7H O 0.2411(2) 0.20973(19) 0.27190(19)
O7JA O 0.22810(19) 0.2589(2) 0.29027(19)
O7RA O 0.2589(2) 0.29027(19) 0.22810(19)
O7NA O 0.29027(19) 0.22810(19) 0.2589(2)
O16JA O 0.2766(2) 0.2766(2) 0.2766(2)
Mo3 Mo -0.033973(19) 0.053167(18) 0.410839(17)
Mo4 Mo -0.04753(2) 0.09740(2) 0.508820(18)
O8 O -0.05220(18) 0.0767(2) 0.37041(17)
O9 O -0.05911(15) 0.0842(2) 0.45390(18)
O10 O -0.08029(18) 0.01477(16) 0.42210(19)
O11 O -0.00864(19) 0.00629(16) 0.3883(2)
O12 O -0.06906(16) 0.14265(16) 0.51335(15)
O13 O -0.0246(2) 0.0898(2) 0.5622(2)
O14 O -0.0222(2) -0.0034(2) 0.4601(2)
O15 O -0.0290(2) 0.0290(2) 0.5290(2)
P2 P 0.0000 0.0000 0.5000
Mo3HA Mo 0.053167(18) 0.089161(17) 0.466027(19)
Mo3J Mo -0.053167(18) -0.089161(17) 0.533973(19)
Mo3Q Mo 0.089161(17) 0.033973(19) 0.553167(18)
Mo3X Mo 0.033973(19) -0.053167(18) 0.589161(17)
Mo3OA Mo -0.089161(17) -0.033973(19) 0.446833(18)
Mo4X Mo 0.04753(2) -0.09740(2) 0.491180(18)
Mo4OA Mo 0.008820(18) -0.04753(2) 0.40260(2)
Mo4J Mo -0.09740(2) 0.008820(18) 0.54753(2)
Mo4HA Mo 0.09740(2) -0.008820(18) 0.45247(2)
Mo4Q Mo -0.008820(18) 0.04753(2) 0.59740(2)
O8HA O 0.0767(2) 0.12959(17) 0.44780(18)
O8J O -0.0767(2) -0.12959(17) 0.55220(18)
O8Q O 0.12959(17) 0.05220(18) 0.5767(2)
O8X O 0.05220(18) -0.0767(2) 0.62959(17)
O8OA O -0.12959(17) -0.05220(18) 0.4233(2)
O9HA O 0.0842(2) 0.04610(18) 0.44089(15)
O9J O -0.0842(2) -0.04610(18) 0.55911(15)
O9Q O 0.04610(18) 0.05911(15) 0.5842(2)
O9X O 0.05911(15) -0.0842(2) 0.54610(18)
O9OA O -0.04610(18) -0.05911(15) 0.4158(2)
O10HA O 0.01477(16) 0.07790(19) 0.41971(18)
O10Q O 0.07790(19) 0.08029(18) 0.51477(16)
O10J O -0.01477(16) -0.07790(19) 0.58029(18)
O10OA O -0.07790(19) -0.08029(18) 0.48523(16)
O10X O 0.08029(18) -0.01477(16) 0.57790(19)
O11HA O 0.00629(16) 0.1117(2) 0.49136(19)
O11J O -0.00629(16) -0.1117(2) 0.50864(19)
O11Q O 0.1117(2) 0.00864(19) 0.50629(16)
O11X O 0.00864(19) -0.00629(16) 0.6117(2)
O11OA O -0.1117(2) -0.00864(19) 0.49371(16)
O12X O 0.06906(16) -0.14265(16) 0.48665(15)
O12OA O 0.01335(15) -0.06906(16) 0.35735(16)
O12J O -0.14265(16) 0.01335(15) 0.56906(16)
O12HA O 0.14265(16) -0.01335(15) 0.43094(16)
O12Q O -0.01335(15) 0.06906(16) 0.64265(16)
O13J O -0.0898(2) 0.0622(2) 0.5246(2)
O13X O 0.0246(2) -0.0898(2) 0.4378(2)
O13HA O 0.0898(2) -0.0622(2) 0.4754(2)
O13OA O 0.0622(2) -0.0246(2) 0.4102(2)
O13Q O -0.0622(2) 0.0246(2) 0.5898(2)
O14J O 0.0034(2) -0.0399(2) 0.5222(2)
O14Q O 0.0399(2) 0.0222(2) 0.4966(2)
O14X O 0.0222(2) 0.0034(2) 0.5399(2)
O14OA O -0.0399(2) -0.0222(2) 0.5034(2)
O14HA O -0.0034(2) 0.0399(2) 0.4778(2)
O15X O 0.0290(2) -0.0290(2) 0.4710(2)
C1 C 0.2216(4) 0.0345(3) -0.0435(3)
H1 H 0.2438 0.0199 -0.0332
C2 C 0.1889(4) 0.0483(4) -0.0205(3)
H2 H 0.1850 0.0452 0.0076
C3 C 0.1634(3) 0.0678(4) -0.0476(3)
H3 H 0.1385 0.0801 -0.0414
C4 C 0.1671(3) 0.0847(2) -0.1215(2)
H4 H 0.1812 0.1106 -0.1250
H5 H 0.1380 0.0904 -0.1196
C5 C 0.1749(2) 0.05817(19) -0.1589(2)
C6 C 0.1912(3) 0.0753(2) -0.1940(2)
H6 H 0.1998 0.1025 -0.1939
C7 C 0.1949(2) 0.05245(19) -0.2292(2)
H7 H 0.2059 0.0646 -0.2526
C8 C 0.18279(18) 0.01179(17) -0.23076(17)
C9 C 0.16781(19) -0.00563(19) -0.19479(18)
H8 H 0.1605 -0.0332 -0.1945
C10 C 0.1638(2) 0.0173(2) -0.1599(2)
H9 H 0.1534 0.0051 -0.1363
C11 C 0.3126(6) 0.0313(5) -0.1790(4)
H10 H 0.3125 0.0598 -0.1786
C12 C 0.3411(7) 0.0077(6) -0.1983(6)
H11 H 0.3636 0.0168 -0.2131
C13 C 0.3300(4) -0.0323(5) -0.1915(4)
H12 H 0.3439 -0.0553 -0.2009
C14 C 0.2687(3) -0.0647(3) -0.1539(3)
H13 H 0.2795 -0.0907 -0.1635
H14 H 0.2418 -0.0612 -0.1660
C15 C 0.2638(3) -0.0670(2) -0.1081(3)
C16 C 0.2963(3) -0.0616(3) -0.0815(3)
H15 H 0.3223 -0.0571 -0.0922
C17 C 0.2912(3) -0.0626(3) -0.0398(3)
H16 H 0.3137 -0.0581 -0.0229
C18 C 0.2534(2) -0.0703(2) -0.0224(2)
C19 C 0.2205(3) -0.0764(2) -0.0499(3)
H17 H 0.1944 -0.0817 -0.0398
C20 C 0.2268(3) -0.0747(2) -0.0914(3)
H18 H 0.2046 -0.0790 -0.1088
Cu1 Cu 0.24622(5) 0.02564(4) -0.12520(4)
N1 N 0.2166(2) 0.0450(2) -0.0820(2)
N2 N 0.1805(2) 0.0659(2) -0.08395(17)
N3 N 0.2840(3) 0.0068(2) -0.1601(2)
N4 N 0.2948(2) -0.0326(2) -0.1685(2)
C1B C 0.2216(4) -0.0345(3) -0.4565(3)
C1O C 0.2784(4) 0.0345(3) 0.0435(3)
C1M C 0.2784(4) -0.0345(3) 0.4565(3)
H1B H 0.2438 -0.0199 -0.4668
H1O H 0.2562 0.0199 0.0332
H1M H 0.2562 -0.0199 0.4668
C2B C 0.1889(4) -0.0483(4) -0.4795(3)
C2O C 0.3111(4) 0.0483(4) 0.0205(3)
C2M C 0.3111(4) -0.0483(4) 0.4795(3)
H2B H 0.1850 -0.0452 -0.5076
H2O H 0.3150 0.0452 -0.0076
H2M H 0.3150 -0.0452 0.5076
C3B C 0.1634(3) -0.0678(4) -0.4524(3)
C3O C 0.3366(3) 0.0678(4) 0.0476(3)
C3M C 0.3366(3) -0.0678(4) 0.4524(3)
H3B H 0.1385 -0.0801 -0.4586
H3O H 0.3615 0.0801 0.0414
H3M H 0.3615 -0.0801 0.4586
C4B C 0.1671(3) -0.0847(2) -0.3785(2)
C4O C 0.3329(3) 0.0847(2) 0.1215(2)
C4M C 0.3329(3) -0.0847(2) 0.3785(2)
H4B H 0.1812 -0.1106 -0.3750
H4O H 0.3188 0.1106 0.1250
H4M H 0.3188 -0.1106 0.3750
H5B H 0.1380 -0.0904 -0.3804
H5O H 0.3620 0.0904 0.1196
H5M H 0.3620 -0.0904 0.3804
C5B C 0.1749(2) -0.05817(19) -0.3411(2)
C5O C 0.3251(2) 0.05817(19) 0.1589(2)
C5M C 0.3251(2) -0.05817(19) 0.3411(2)
C6B C 0.1912(3) -0.0753(2) -0.3060(2)
C6O C 0.3088(3) 0.0753(2) 0.1940(2)
C6M C 0.3088(3) -0.0753(2) 0.3060(2)
H6B H 0.1998 -0.1025 -0.3061
H6O H 0.3002 0.1025 0.1939
H6M H 0.3002 -0.1025 0.3061
C7B C 0.1949(2) -0.05245(19) -0.2708(2)
C7O C 0.3051(2) 0.05245(19) 0.2292(2)
C7M C 0.3051(2) -0.05245(19) 0.2708(2)
H7B H 0.2059 -0.0646 -0.2474
H7O H 0.2941 0.0646 0.2526
H7M H 0.2941 -0.0646 0.2474
C8B C 0.18279(18) -0.01179(17) -0.26924(17)
C8O C 0.31721(18) 0.01179(17) 0.23076(17)
C8M C 0.31721(18) -0.01179(17) 0.26924(17)
C9B C 0.16781(19) 0.00563(19) -0.30521(18)
C9O C 0.33219(19) -0.00563(19) 0.19479(18)
C9M C 0.33219(19) 0.00563(19) 0.30521(18)
H8B H 0.1605 0.0332 -0.3055
H8O H 0.3395 -0.0332 0.1945
H8M H 0.3395 0.0332 0.3055
C10B C 0.1638(2) -0.0173(2) -0.3401(2)
C10O C 0.3362(2) 0.0173(2) 0.1599(2)
C10M C 0.3362(2) -0.0173(2) 0.3401(2)
H9B H 0.1534 -0.0051 -0.3637
H9O H 0.3466 0.0051 0.1363
H9M H 0.3466 -0.0051 0.3637
C11O C 0.1874(6) 0.0313(5) 0.1790(4)
H10O H 0.1875 0.0598 0.1786
C12O C 0.1589(7) 0.0077(6) 0.1983(6)
H11O H 0.1364 0.0168 0.2131
C13O C 0.1700(4) -0.0323(5) 0.1915(4)
H12O H 0.1561 -0.0553 0.2009
C14O C 0.2313(3) -0.0647(3) 0.1539(3)
H13O H 0.2205 -0.0907 0.1635
H14O H 0.2582 -0.0612 0.1660
C15O C 0.2362(3) -0.0670(2) 0.1081(3)
C16O C 0.2037(3) -0.0616(3) 0.0815(3)
H15O H 0.1777 -0.0571 0.0922
C17O C 0.2088(3) -0.0626(3) 0.0398(3)
H16O H 0.1863 -0.0581 0.0229
C18O C 0.2466(2) -0.0703(2) 0.0224(2)
C19O C 0.2795(3) -0.0764(2) 0.0499(3)
H17O H 0.3056 -0.0817 0.0398
C20O C 0.2732(3) -0.0747(2) 0.0914(3)
H18O H 0.2954 -0.0790 0.1088
Cu1B Cu 0.24622(5) -0.02564(4) -0.37480(4)
Cu1O Cu 0.25378(5) 0.02564(4) 0.12520(4)
Cu1M Cu 0.25378(5) -0.02564(4) 0.37480(4)
N1B N 0.2166(2) -0.0450(2) -0.4180(2)
N1O N 0.2834(2) 0.0450(2) 0.0820(2)
N1M N 0.2834(2) -0.0450(2) 0.4180(2)
N2B N 0.1805(2) -0.0659(2) -0.41605(17)
N2O N 0.3195(2) 0.0659(2) 0.08395(17)
N2M N 0.3195(2) -0.0659(2) 0.41605(17)
N3O N 0.2160(3) 0.0068(2) 0.1601(2)
N3B N 0.2840(3) -0.0068(2) -0.3399(2)
N4O N 0.2052(2) -0.0326(2) 0.1685(2)
loop_
_geom_bond_atom_site_label_1
_geom_bond_atom_site_label_2
_geom_bond_site_symmetry_1
_geom_bond_site_symmetry_2
C1 H1 1_555 1_555
C2 C1 1_555 1_555
H2 C2 1_555 1_555
C3 C2 1_555 1_555
H3 C3 1_555 1_555
C4 H4 1_555 1_555
H5 C4 1_555 1_555
C5 C4 1_555 1_555
C6 C5 1_555 1_555
H6 C6 1_555 1_555
C7 C6 1_555 1_555
H7 C7 1_555 1_555
C8 C7 1_555 1_555
C9 C8 1_555 1_555
H8 C9 1_555 1_555
C10 C5 1_555 1_555
H9 C10 1_555 1_555
C11 H10 1_555 1_555
C12 C11 1_555 1_555
H11 C12 1_555 1_555
C13 C12 1_555 1_555
H12 C13 1_555 1_555
C14 H13 1_555 1_555
H14 C14 1_555 1_555
C15 C14 1_555 1_555
C16 C15 1_555 1_555
H15 C16 1_555 1_555
C17 C16 1_555 1_555
H16 C17 1_555 1_555
C18 C17 1_555 1_555
C19 C18 1_555 1_555
H17 C19 1_555 1_555
C20 C15 1_555 1_555
H18 C20 1_555 1_555
Cu1 N1 1_555 1_555
Mo1 O1 1_555 1_555
Mo2 O2 1_555 1_555
Mo3 O8 1_555 1_555
Mo4 O9 1_555 1_555
N1 C1 1_555 1_555
N2 C3 1_555 1_555
N3 C11 1_555 1_555
N4 C13 1_555 1_555
O1 Mo1NA 1_555 1_555
O2 Mo1 1_555 1_555
O3 Mo1 1_555 1_555
O4 Mo1 1_555 1_555
O5 Mo2 1_555 1_555
O6 Mo2 1_555 1_555
O7 Mo1 1_555 1_555
O9 Mo3 1_555 1_555
O10 Mo3 1_555 1_555
O11 Mo3 1_555 1_555
O12 Mo4 1_555 1_555
O13 Mo4 1_555 1_555
O14 Mo3 1_555 1_555
O15 Mo4 1_555 1_555
P1 O7 1_555 1_555
P2 O14 1_555 1_555
O16 Mo2 1_555 1_555
C1B H1B 1_555 1_555
C1O H1O 1_555 1_555
C1M H1M 1_555 1_555
C2B C1B 1_555 1_555
C2O C1O 1_555 1_555
C2M C1M 1_555 1_555
H2B C2B 1_555 1_555
H2O C2O 1_555 1_555
H2M C2M 1_555 1_555
C3B C2B 1_555 1_555
C3O C2O 1_555 1_555
C3M C2M 1_555 1_555
H3B C3B 1_555 1_555
H3O C3O 1_555 1_555
H3M C3M 1_555 1_555
C4B H4B 1_555 1_555
C4O H4O 1_555 1_555
C4M H4M 1_555 1_555
H5B C4B 1_555 1_555
H5O C4O 1_555 1_555
H5M C4M 1_555 1_555
C5B C4B 1_555 1_555
C5O C4O 1_555 1_555
C5M C4M 1_555 1_555
C6B C5B 1_555 1_555
C6O C5O 1_555 1_555
C6M C5M 1_555 1_555
H6B C6B 1_555 1_555
H6O C6O 1_555 1_555
H6M C6M 1_555 1_555
C7B C6B 1_555 1_555
C7O C6O 1_555 1_555
C7M C6M 1_555 1_555
H7B C7B 1_555 1_555
H7O C7O 1_555 1_555
H7M C7M 1_555 1_555
C8B C8 1_555 1_555
C8O C7O 1_555 1_555
C8M C7M 1_555 1_555
C9B C8B 1_555 1_555
C9O C8O 1_555 1_555
C9M C8M 1_555 1_555
H8B C9B 1_555 1_555
H8O C9O 1_555 1_555
H8M C9M 1_555 1_555
C10B C5B 1_555 1_555
C10O C5O 1_555 1_555
C10M C5M 1_555 1_555
H9B C10B 1_555 1_555
H9O C10O 1_555 1_555
H9M C10M 1_555 1_555
C11O H10O 1_555 1_555
C12O C11O 1_555 1_555
H11O C12O 1_555 1_555
C13O C12O 1_555 1_555
H12O C13O 1_555 1_555
C14O H13O 1_555 1_555
H14O C14O 1_555 1_555
C15O C14O 1_555 1_555
C16O C15O 1_555 1_555
H15O C16O 1_555 1_555
C17O C16O 1_555 1_555
H16O C17O 1_555 1_555
C18O C18 1_555 1_555
C19O C18O 1_555 1_555
H17O C19O 1_555 1_555
C20O C15O 1_555 1_555
H18O C20O 1_555 1_555
Cu1B N1B 1_555 1_555
Cu1O N1O 1_555 1_555
Cu1M N1M 1_555 1_555
Mo1RA O7 1_555 1_555
Mo1NA O1NA 1_555 1_555
Mo1D O1D 1_555 1_555
Mo1H O1NA 1_555 1_555
Mo1JA O1JA 1_555 1_555
Mo2NA O4 1_555 1_555
Mo2H O16 1_555 1_555
Mo2JA O2JA 1_555 1_555
Mo2D O6 1_555 1_555
Mo2RA O2RA 1_555 1_555
Mo3HA O8HA 1_555 1_555
Mo3J O8J 1_555 1_555
Mo3Q O8Q 1_555 1_555
Mo3X O8X 1_555 1_555
Mo3OA O10 1_555 1_555
Mo4X O9X 1_555 1_555
Mo4OA O11 1_555 1_555
Mo4J O15 1_555 1_555
Mo4HA O9HA 1_555 1_555
Mo4Q O13 1_555 1_555
N1B C1B 1_555 1_555
N1O C1O 1_555 1_555
N1M C1M 1_555 1_555
N2B C3B 1_555 1_555
N2O C3O 1_555 1_555
N2M C3M 1_555 1_555
N3O C11O 1_555 1_555
N3B Cu1B 1_555 1_555
N4O C13O 1_555 1_555
O1RA Mo1 1_555 1_555
O1D Mo1RA 1_555 1_555
O1JA Mo1D 1_555 1_555
O1H Mo1H 1_555 1_555
O2RA Mo1RA 1_555 1_555
O2NA Mo1NA 1_555 1_555
O2D Mo1D 1_555 1_555
O2H Mo1H 1_555 1_555
O2JA Mo1JA 1_555 1_555
O3RA Mo1RA 1_555 1_555
O3NA Mo1NA 1_555 1_555
O3D Mo1D 1_555 1_555
O3H Mo1H 1_555 1_555
O3JA Mo1JA 1_555 1_555
O4RA Mo2 1_555 1_555
O4NA Mo1NA 1_555 1_555
O4D Mo1D 1_555 1_555
O4H Mo1H 1_555 1_555
O4JA Mo1JA 1_555 1_555
O5NA Mo2NA 1_555 1_555
O5H Mo2H 1_555 1_555
O5JA Mo2JA 1_555 1_555
O5D Mo2D 1_555 1_555
O5RA Mo2RA 1_555 1_555
O6H Mo2 1_555 1_555
O6NA Mo2NA 1_555 1_555
O6JA Mo2NA 1_555 1_555
O6D Mo2H 1_555 1_555
O6RA Mo2JA 1_555 1_555
O7D P1 1_555 1_555
O7H P1 1_555 1_555
O7JA P1 1_555 1_555
O7RA P1 1_555 1_555
O7NA Mo1 1_555 1_555
O8OA Mo3OA 1_555 1_555
O9HA Mo3HA 1_555 1_555
O9J Mo3J 1_555 1_555
O9Q Mo3Q 1_555 1_555
O9X Mo3X 1_555 1_555
O9OA Mo3OA 1_555 1_555
O10HA Mo3 1_555 1_555
O10Q Mo3HA 1_555 1_555
O10J Mo3J 1_555 1_555
O10OA Mo3J 1_555 1_555
O10X Mo3Q 1_555 1_555
O11HA Mo4 1_555 1_555
O11J Mo3J 1_555 1_555
O11Q Mo3Q 1_555 1_555
O11X Mo3X 1_555 1_555
O11OA Mo3OA 1_555 1_555
O12X Mo4X 1_555 1_555
O12OA Mo4OA 1_555 1_555
O12J Mo4J 1_555 1_555
O12HA Mo4HA 1_555 1_555
O12Q Mo4Q 1_555 1_555
O13J Mo4 1_555 1_555
O13X Mo4X 1_555 1_555
O13HA Mo4X 1_555 1_555
O13OA Mo4OA 1_555 1_555
O13Q Mo4J 1_555 1_555
O14J P2 1_555 1_555
O14Q P2 1_555 1_555
O14X P2 1_555 1_555
O14OA P2 1_555 1_555
O14HA Mo3 1_555 1_555
O15X P2 1_555 1_555
O16JA P1 1_555 1_555
C4 N2 1_555 1_555
C9 C10 1_555 1_555
C14 N4 1_555 1_555
C19 C20 1_555 1_555
Cu1 N3 1_555 1_555
Mo2 O7 1_555 1_555
Mo4 O14HA 1_555 1_555
N1 N2 1_555 1_555
N3 N4 1_555 1_555
O14 Mo3OA 1_555 1_555
O14 Mo4OA 1_555 1_555
O15 P2 1_555 1_555
O15 Mo4Q 1_555 1_555
P1 O16 1_555 1_555
P1 O7NA 1_555 1_555
P2 O14HA 1_555 1_555
O16 Mo2D 1_555 1_555
C4B N2B 1_555 1_555
C4O N2O 1_555 1_555
C4M N2M 1_555 1_555
C7B C8B 1_555 1_555
C8O C8M 1_555 1_555
C9B C10B 1_555 1_555
C9O C10O 1_555 1_555
C9M C10M 1_555 1_555
C14O N4O 1_555 1_555
C17O C18O 1_555 1_555
C19O C20O 1_555 1_555
Cu1O N3O 1_555 1_555
Mo1RA O1RA 1_555 1_555
Mo1RA O4RA 1_555 1_555
Mo1RA O7RA 1_555 1_555
Mo1NA O7H 1_555 1_555
Mo1NA O7NA 1_555 1_555
Mo1D O7D 1_555 1_555
Mo1D O7RA 1_555 1_555
Mo1H O7H 1_555 1_555
Mo1H O7JA 1_555 1_555
Mo1JA O1H 1_555 1_555
Mo1JA O7D 1_555 1_555
Mo1JA O7JA 1_555 1_555
Mo2NA O2NA 1_555 1_555
Mo2NA O7NA 1_555 1_555
Mo2NA O16JA 1_555 1_555
Mo2H O2H 1_555 1_555
Mo2H O4NA 1_555 1_555
Mo2H O6H 1_555 1_555
Mo2H O7H 1_555 1_555
Mo2JA O4H 1_555 1_555
Mo2JA O6JA 1_555 1_555
Mo2JA O7JA 1_555 1_555
Mo2JA O16JA 1_555 1_555
Mo2D O2D 1_555 1_555
Mo2D O4JA 1_555 1_555
Mo2D O6D 1_555 1_555
Mo2D O7D 1_555 1_555
Mo2RA O4D 1_555 1_555
Mo2RA O6NA 1_555 1_555
Mo2RA O6RA 1_555 1_555
Mo2RA O7RA 1_555 1_555
Mo2RA O16JA 1_555 1_555
Mo3HA O10HA 1_555 1_555
Mo3HA O11HA 1_555 1_555
Mo3HA O14Q 1_555 1_555
Mo3HA O14HA 1_555 1_555
Mo3J O14J 1_555 1_555
Mo3J O14OA 1_555 1_555
Mo3Q O10Q 1_555 1_555
Mo3Q O14Q 1_555 1_555
Mo3Q O14X 1_555 1_555
Mo3X O10J 1_555 1_555
Mo3X O10X 1_555 1_555
Mo3X O14J 1_555 1_555
Mo3X O14X 1_555 1_555
Mo3OA O10OA 1_555 1_555
Mo3OA O14OA 1_555 1_555
Mo4X O11J 1_555 1_555
Mo4X O14J 1_555 1_555
Mo4X O15X 1_555 1_555
Mo4OA O9OA 1_555 1_555
Mo4OA O13X 1_555 1_555
Mo4OA O15X 1_555 1_555
Mo4J O9J 1_555 1_555
Mo4J O11OA 1_555 1_555
Mo4J O13J 1_555 1_555
Mo4J O14OA 1_555 1_555
Mo4HA O11Q 1_555 1_555
Mo4HA O13HA 1_555 1_555
Mo4HA O13OA 1_555 1_555
Mo4HA O14Q 1_555 1_555
Mo4HA O15X 1_555 1_555
Mo4Q O9Q 1_555 1_555
Mo4Q O11X 1_555 1_555
Mo4Q O13Q 1_555 1_555
Mo4Q O14X 1_555 1_555
N1B N2B 1_555 1_555
N1O N2O 1_555 1_555
N1M N2M 1_555 1_555
N3O N4O 1_555 1_555

#END
