
#######################################################################
#
#                 Cambridge Crystallographic Data Centre
#                                CCDC 
#
#######################################################################
#
# If this CIF has been generated from an entry in the Cambridge 
# Structural Database, then it will include bibliographic, chemical, 
# crystal, experimental, refinement or atomic coordinate data resulting 
# from the CCDC's data processing and validation procedures.
#
#######################################################################

data_RUXWEM
_symmetry_cell_setting           monoclinic
_symmetry_space_group_name_H-M   'C 2/c'
_symmetry_Int_Tables_number      15
_space_group_name_Hall           '-C 2yn'
loop_
_symmetry_equiv_pos_site_id
_symmetry_equiv_pos_as_xyz
1 x,y,z
2 1/2+x,1/2+y,z
3 x,-y,1/2+z
4 1/2+x,1/2-y,1/2+z
5 -x,-y,-z
6 1/2-x,1/2-y,-z
7 -x,y,1/2-z
8 1/2-x,1/2+y,1/2-z
_cell_length_a                   14.8056(4)
_cell_length_b                   6.3977(2)
_cell_length_c                   25.5214(9)
_cell_angle_alpha                90.00
_cell_angle_beta                 92.084(2)
_cell_angle_gamma                90.00
_cell_volume                     2415.83
loop_
_atom_site_label
_atom_site_type_symbol
_atom_site_fract_x
_atom_site_fract_y
_atom_site_fract_z
Cd1 Cd 0.625913(19) 0.18832(4) 0.492866(11)
C1 C 0.6517(3) 0.3044(6) 0.78162(17)
C2 C 0.6155(3) 0.2363(7) 0.72957(16)
C3 C 0.5627(3) 0.3182(6) 0.64093(17)
H1 H 0.5540 0.4161 0.6143
C4 C 0.5530(3) -0.0326(7) 0.67193(17)
H2 H 0.5360 -0.1712 0.6667
C5 C 0.7216(3) 0.4442(6) 0.87956(15)
C6 C 0.5378(3) 0.1113(7) 0.63230(16)
C7 C 0.6996(3) 0.1700(7) 0.81539(18)
H3 H 0.7085 0.0320 0.8054
C8 C 0.6375(3) 0.5087(7) 0.79902(17)
H4 H 0.6038 0.6005 0.7779
C9 C 0.7342(3) 0.2381(7) 0.86348(18)
H5 H 0.7661 0.1456 0.8853
C10 C 0.6721(3) 0.5765(7) 0.84677(17)
H6 H 0.6621 0.7136 0.8572
C11 C 0.5932(3) 0.0271(7) 0.71930(18)
H7 H 0.6058 -0.0735 0.7448
C12 C 0.6005(3) 0.3794(7) 0.68881(16)
H8 H 0.6162 0.5188 0.6940
C13 C 0.4912(3) 0.0486(7) 0.58175(15)
C14 C 0.7657(3) 0.5251(7) 0.92910(16)
O1 O 0.6096(2) 0.5376(5) 0.50295(14)
H9 H 0.6578 0.5883 0.5136
H10 H 0.5828 0.6335 0.4816
O2 O 0.4967(2) 0.1681(4) 0.54211(12)
O3 O 0.4477(2) -0.1193(5) 0.58073(12)
O4 O 0.8174(2) 0.4100(5) 0.95664(12)
O5 O 0.7538(2) 0.7163(4) 0.94161(12)
O3D O 0.5523(2) 0.1193(5) 0.41927(12)
O4G O 0.6826(2) -0.0900(5) 0.54336(12)
O5B O 0.7538(2) 0.2837(4) 0.44161(12)
O5G O 0.7462(2) 0.2163(4) 0.55839(12)
Cd1D Cd 0.374087(19) -0.18832(4) 0.507134(11)
Cd1G Cd 0.874087(19) 0.68832(4) 1.007134(11)
Cd1B Cd 0.625913(19) 0.81168(4) 0.992866(11)
loop_
_geom_bond_atom_site_label_1
_geom_bond_atom_site_label_2
_geom_bond_site_symmetry_1
_geom_bond_site_symmetry_2
Cd1 O1 1_555 1_555
C1 C2 1_555 1_555
C2 C11 1_555 1_555
C3 H1 1_555 1_555
C4 H2 1_555 1_555
C5 C9 1_555 1_555
C6 C3 1_555 1_555
C7 C1 1_555 1_555
H3 C7 1_555 1_555
C8 C1 1_555 1_555
H4 C8 1_555 1_555
C9 C7 1_555 1_555
H5 C9 1_555 1_555
C10 C5 1_555 1_555
H6 C10 1_555 1_555
C11 C4 1_555 1_555
H7 C11 1_555 1_555
C12 C2 1_555 1_555
H8 C12 1_555 1_555
C13 C6 1_555 1_555
C14 C5 1_555 1_555
O1 H9 1_555 1_555
H10 O1 1_555 1_555
O2 Cd1 1_555 1_555
O3 C13 1_555 1_555
O4 C14 1_555 1_555
O5 C14 1_555 1_555
O3D Cd1 1_555 1_555
O4G Cd1 1_555 1_555
O5B Cd1 1_555 1_555
O5G Cd1 1_555 1_555
Cd1D O3 1_555 1_555
Cd1G O4 1_555 1_555
Cd1B O5 1_555 1_555
C3 C12 1_555 1_555
C4 C6 1_555 1_555
C8 C10 1_555 1_555
C13 O2 1_555 1_555
O5 Cd1G 1_555 1_555

#END
