
#######################################################################
#
#                 Cambridge Crystallographic Data Centre
#                                CCDC 
#
#######################################################################
#
# If this CIF has been generated from an entry in the Cambridge 
# Structural Database, then it will include bibliographic, chemical, 
# crystal, experimental, refinement or atomic coordinate data resulting 
# from the CCDC's data processing and validation procedures.
#
#######################################################################

data_RUXXAJ
_symmetry_cell_setting           orthorhombic
_symmetry_space_group_name_H-M   'P b c a'
_symmetry_Int_Tables_number      61
_space_group_name_Hall           '-P 2ac 2ab'
loop_
_symmetry_equiv_pos_site_id
_symmetry_equiv_pos_as_xyz
1 x,y,z
2 1/2+x,y,1/2-z
3 x,1/2-y,1/2+z
4 1/2-x,1/2+y,z
5 -x,-y,-z
6 1/2-x,-y,1/2+z
7 -x,1/2+y,1/2-z
8 1/2+x,1/2-y,-z
_cell_length_a                   7.050(3)
_cell_length_b                   9.649(7)
_cell_length_c                   19.65(2)
_cell_angle_alpha                90
_cell_angle_beta                 90
_cell_angle_gamma                90
_cell_volume                     1336.7
loop_
_atom_site_label
_atom_site_type_symbol
_atom_site_fract_x
_atom_site_fract_y
_atom_site_fract_z
Ag1 Ag 0.12837(11) 0.06754(6) 0.07203(4)
Ag2 Ag 0.05851(11) 0.42295(6) 0.14471(3)
O1 O 0.0720(9) 0.1784(6) 0.1697(3)
O2 O 0.1959(10) 0.0000(6) 0.2297(3)
O3 O 0.1098(12) 0.1832(7) 0.5355(3)
O4 O 0.2802(9) 0.0297(6) 0.4751(3)
N1 N 0.1263(10) 0.1200(7) 0.3538(3)
H1 H 0.1515 0.0286 0.3545
C1 C 0.1214(12) 0.1180(8) 0.2264(4)
C2 C 0.0933(12) 0.2037(7) 0.2912(4)
H2 H 0.1786 0.2812 0.2907
H3 H -0.0340 0.2391 0.2918
C3 C 0.1120(13) 0.2100(8) 0.4153(4)
H4 H -0.0164 0.2414 0.4201
H5 H 0.1913 0.2899 0.4091
C4 C 0.1720(11) 0.1340(8) 0.4810(4)
Ag2C Ag 0.44149(11) -0.07705(6) 0.14471(3)
O3B O 0.1098(12) 0.3168(7) 0.0355(3)
O4E O 0.2198(9) -0.0297(6) -0.0249(3)
Ag1C Ag 0.37163(11) 0.56754(6) 0.07203(4)
O2C O 0.3041(10) 0.5000(6) 0.2297(3)
N1F N -0.1263(10) 0.6200(7) 0.1462(3)
Ag1B Ag 0.12837(11) 0.43246(6) 0.57203(4)
Ag2B Ag 0.05851(11) 0.07705(6) 0.64471(3)
Ag1E Ag 0.37163(11) -0.06754(6) 0.57203(4)
Ag2F Ag -0.05851(11) -0.07705(6) 0.35529(3)
H1F H -0.1515 0.5286 0.1455
loop_
_geom_bond_atom_site_label_1
_geom_bond_atom_site_label_2
_geom_bond_site_symmetry_1
_geom_bond_site_symmetry_2
Ag1 O1 1_555 1_555
Ag2 O1 1_555 1_555
O1 C1 1_555 1_555
O2 C1 1_555 1_555
O3 C4 1_555 1_555
O4 C4 1_555 1_555
N1 H1 1_555 1_555
C1 C2 1_555 1_555
C2 N1 1_555 1_555
H2 C2 1_555 1_555
H3 C2 1_555 1_555
C3 N1 1_555 1_555
H4 C3 1_555 1_555
H5 C3 1_555 1_555
C4 C3 1_555 1_555
Ag2C Ag1 1_555 1_555
O3B Ag1 1_555 1_555
O4E Ag1 1_555 1_555
Ag1C Ag2 1_555 1_555
O2C Ag2 1_555 1_555
N1F Ag2 1_555 1_555
Ag1B O3 1_555 1_555
Ag2B O3 1_555 1_555
Ag1E O4 1_555 1_555
Ag2F N1 1_555 1_555
H1F N1F 1_555 1_555
Ag2 O3B 1_555 1_555
O2 Ag2C 1_555 1_555
Ag2B Ag1E 1_555 1_555

#END
