
#######################################################################
#
#                 Cambridge Crystallographic Data Centre
#                                CCDC 
#
#######################################################################
#
# If this CIF has been generated from an entry in the Cambridge 
# Structural Database, then it will include bibliographic, chemical, 
# crystal, experimental, refinement or atomic coordinate data resulting 
# from the CCDC's data processing and validation procedures.
#
#######################################################################

data_RUYFOH01
_symmetry_cell_setting           monoclinic
_symmetry_space_group_name_H-M   'C 2'
_symmetry_Int_Tables_number      5
_space_group_name_Hall           'C 2y'
loop_
_symmetry_equiv_pos_site_id
_symmetry_equiv_pos_as_xyz
1 x,y,z
2 -x,y,-z
3 1/2+x,1/2+y,z
4 1/2-x,1/2+y,-z
_cell_length_a                   14.2100(19)
_cell_length_b                   4.8511(6)
_cell_length_c                   12.9310(13)
_cell_angle_alpha                90
_cell_angle_beta                 117.854(5)
_cell_angle_gamma                90
_cell_volume                     788.112
loop_
_atom_site_label
_atom_site_type_symbol
_atom_site_fract_x
_atom_site_fract_y
_atom_site_fract_z
Sn1 Sn 0.862669(18) 0.27005(14) 0.95513(2)
O1 O 0.7196(2) 0.5190(7) 0.9096(3)
O2 O 0.6945(2) 0.2553(17) 0.7606(3)
O3 O 0.5742(2) 0.0784(8) 0.9003(3)
O4 O 0.4040(3) 0.1032(8) 0.8621(3)
C1 C 0.4819(4) 0.1768(9) 0.8462(4)
C2 C 0.4629(3) 0.3974(10) 0.7601(4)
C3 C 0.3595(4) 0.4989(11) 0.6926(4)
H1 H 0.3039 0.4242 0.7023
C4 C 0.3387(4) 0.7048(10) 0.6130(4)
H2 H 0.2699 0.7732 0.5708
C5 C 0.4202(4) 0.8111(18) 0.5952(4)
H3 H 0.4056 0.9478 0.5393
C6 C 0.5233(4) 0.7158(14) 0.6599(4)
H4 H 0.5779 0.7901 0.6482
C7 C 0.5451(3) 0.5102(10) 0.7419(4)
C8 C 0.6593(4) 0.4141(11) 0.8075(5)
Sn1C Sn 0.637331(18) -0.22995(14) 1.04487(2)
Sn1B Sn 0.362669(18) -0.22995(14) 0.95513(2)
O3C O 0.9258(2) 0.5784(8) 1.0997(3)
O4B O 0.9040(3) 0.6032(8) 0.8621(3)
loop_
_geom_bond_atom_site_label_1
_geom_bond_atom_site_label_2
_geom_bond_site_symmetry_1
_geom_bond_site_symmetry_2
Sn1 O1 1_555 1_555
O1 C8 1_555 1_555
O2 Sn1 1_555 1_555
O3 C1 1_555 1_555
O4 C1 1_555 1_555
C1 C2 1_555 1_555
C2 C3 1_555 1_555
C3 H1 1_555 1_555
C4 C3 1_555 1_555
H2 C4 1_555 1_555
C5 C4 1_555 1_555
H3 C5 1_555 1_555
C6 C5 1_555 1_555
H4 C6 1_555 1_555
C7 C2 1_555 1_555
C8 O2 1_555 1_555
Sn1C O3 1_555 1_555
Sn1B O4 1_555 1_555
O3C Sn1 1_555 1_555
O4B Sn1 1_555 1_555
C6 C7 1_555 1_555
C7 C8 1_555 1_555

#END
