
#######################################################################
#
#                 Cambridge Crystallographic Data Centre
#                                CCDC 
#
#######################################################################
#
# If this CIF has been generated from an entry in the Cambridge 
# Structural Database, then it will include bibliographic, chemical, 
# crystal, experimental, refinement or atomic coordinate data resulting 
# from the CCDC's data processing and validation procedures.
#
#######################################################################

data_RUYGAU
_symmetry_cell_setting           tetragonal
_symmetry_space_group_name_H-M   'P 42/n c m'
_symmetry_Int_Tables_number      138
_space_group_name_Hall           '-P 4ac 2ac'
loop_
_symmetry_equiv_pos_site_id
_symmetry_equiv_pos_as_xyz
1 x,y,z
2 1/2-y,x,1/2+z
3 1/2-x,1/2-y,z
4 y,1/2-x,1/2+z
5 1/2+x,-y,1/2-z
6 1/2+y,1/2+x,-z
7 -x,1/2+y,1/2-z
8 -y,-x,-z
9 -x,-y,-z
10 1/2+y,-x,1/2-z
11 1/2+x,1/2+y,-z
12 -y,1/2+x,1/2-z
13 1/2-x,y,1/2+z
14 1/2-y,1/2-x,z
15 x,1/2-y,1/2+z
16 y,x,z
_cell_length_a                   18.2747(5)
_cell_length_b                   18.2747(5)
_cell_length_c                   4.6038(3)
_cell_angle_alpha                90
_cell_angle_beta                 90
_cell_angle_gamma                90
_cell_volume                     1537.51
loop_
_atom_site_label
_atom_site_type_symbol
_atom_site_fract_x
_atom_site_fract_y
_atom_site_fract_z
Sn1 Sn 0.156858(7) 0.656858(7) 0.5000
O1 O 0.19628(7) 0.57588(7) 0.1063(3)
O2 O 0.13147(7) 0.55478(7) -0.2968(3)
C1 C 0.15541(9) 0.53665(11) -0.0460(4)
C2 C 0.12966(10) 0.46388(11) 0.0607(4)
C3 C 0.16753(10) 0.42546(11) 0.2747(4)
H1 H 0.2108 0.4443 0.3501
C4 C 0.14073(12) 0.35927(12) 0.3752(7)
H2 H 0.1674 0.3326 0.5111
C5 C 0.06525(10) 0.43475(10) -0.0522(5)
H3 H 0.0415 0.4585 -0.2040
Sn1H Sn -0.156858(7) 0.343142(7) 0.5000
Sn1_2 Sn 0.156858(7) 0.656858(7) -0.5000
Sn1H_2 Sn -0.156858(7) 0.343142(7) -0.5000
O1M O -0.07588(7) 0.30372(7) 0.1063(3)
O1E O 0.07588(7) 0.69628(7) -0.1063(3)
O1H O -0.19628(7) 0.42412(7) -0.1063(3)
O1E_2 O 0.07588(7) 0.69628(7) 0.8937(3)
O1H_2 O -0.19628(7) 0.42412(7) 0.8937(3)
O2M O -0.05478(7) 0.36853(7) -0.2968(3)
O2E O 0.05478(7) 0.63147(7) 0.2968(3)
O2H O -0.13147(7) 0.44522(7) 0.2968(3)
O2_2 O 0.13147(7) 0.55478(7) 0.7032(3)
O2M_2 O -0.05478(7) 0.36853(7) 0.7032(3)
C1M C -0.03665(11) 0.34459(9) -0.0460(4)
C1E C 0.03665(11) 0.65541(9) 0.0460(4)
C1H C -0.15541(9) 0.46335(11) 0.0460(4)
C2M C 0.03612(11) 0.37034(10) 0.0607(4)
C2E C -0.03612(11) 0.62966(10) -0.0607(4)
C2H C -0.12966(10) 0.53612(11) -0.0607(4)
C3M C 0.07454(11) 0.33247(10) 0.2747(4)
C3E C -0.07454(11) 0.66753(10) -0.2747(4)
C3H C -0.16753(10) 0.57454(11) -0.2747(4)
H1M H 0.0557 0.2892 0.3501
H1E H -0.0557 0.7108 -0.3501
H1H H -0.2108 0.5557 -0.3501
C4E C -0.14073(12) 0.64073(12) -0.3752(7)
H2E H -0.1674 0.6674 -0.5111
C5E C -0.06525(10) 0.56525(10) 0.0522(5)
H3E H -0.0415 0.5415 0.2040
loop_
_geom_bond_atom_site_label_1
_geom_bond_atom_site_label_2
_geom_bond_site_symmetry_1
_geom_bond_site_symmetry_2
Sn1 O1 1_555 1_555
O1 C1 1_555 1_555
O2 C1 1_555 1_555
C1 C2 1_555 1_555
C2 C3 1_555 1_555
C3 H1 1_555 1_555
C4 C3 1_555 1_555
H2 C4 1_555 1_555
C5 C2 1_555 1_555
H3 C5 1_555 1_555
Sn1H O1M 1_555 1_555
Sn1_2 O2 1_555 1_555
Sn1H_2 O1H 1_555 1_555
O1M C1M 1_555 1_555
O1E Sn1_2 1_555 1_555
O1H C1H 1_555 1_555
O1E_2 Sn1 1_555 1_555
O1H_2 Sn1H 1_555 1_555
O2M Sn1H_2 1_555 1_555
O2E Sn1 1_555 1_555
O2H Sn1H 1_555 1_555
O2_2 Sn1 1_555 1_555
O2M_2 Sn1H 1_555 1_555
C1M O2M 1_555 1_555
C1E O1E 1_555 1_555
C1H O2H 1_555 1_555
C2M C5 1_555 1_555
C2E C1E 1_555 1_555
C2H C1H 1_555 1_555
C3M C4 1_555 1_555
C3E C2E 1_555 1_555
C3H C2H 1_555 1_555
H1M C3M 1_555 1_555
H1E C3E 1_555 1_555
H1H C3H 1_555 1_555
C4E C3E 1_555 1_555
H2E C4E 1_555 1_555
C5E C2E 1_555 1_555
H3E C5E 1_555 1_555
O2E C1E 1_555 1_555
C1M C2M 1_555 1_555
C2M C3M 1_555 1_555
C2H C5E 1_555 1_555
C3H C4E 1_555 1_555

#END
