
#######################################################################
#
#                 Cambridge Crystallographic Data Centre
#                                CCDC 
#
#######################################################################
#
# If this CIF has been generated from an entry in the Cambridge 
# Structural Database, then it will include bibliographic, chemical, 
# crystal, experimental, refinement or atomic coordinate data resulting 
# from the CCDC's data processing and validation procedures.
#
#######################################################################

data_RUYJOL
_symmetry_cell_setting           triclinic
_symmetry_space_group_name_H-M   'P -1'
_symmetry_Int_Tables_number      2
_space_group_name_Hall           '-P 1'
loop_
_symmetry_equiv_pos_site_id
_symmetry_equiv_pos_as_xyz
1 x,y,z
2 -x,-y,-z
_cell_length_a                   9.0313(11)
_cell_length_b                   10.0434(13)
_cell_length_c                   12.4591(16)
_cell_angle_alpha                97.387(7)
_cell_angle_beta                 109.497(3)
_cell_angle_gamma                101.338(6)
_cell_volume                     1021.2
loop_
_atom_site_label
_atom_site_type_symbol
_atom_site_fract_x
_atom_site_fract_y
_atom_site_fract_z
Ag1 Ag 0.62913(6) -0.99599(4) 0.25983(3)
Ag2 Ag 0.74592(5) -0.92269(4) -0.20166(3)
C1 C 0.7229(5) -0.9845(5) 0.0349(3)
C2 C 0.8208(5) -1.1434(4) -0.0550(4)
C3 C 0.8176(6) -1.2217(5) 0.0267(4)
H1 H 0.8524 -1.3029 0.0255
C4 C 0.7613(6) -1.1762(5) 0.1104(4)
H2 H 0.7550 -1.2299 0.1650
C5 C 0.8766(6) -1.1856(6) -0.1504(4)
H3 H 0.9361 -1.1047 -0.1656
H4 H 0.9457 -1.2467 -0.1278
H5 H 0.7843 -1.2328 -0.2194
C6 C 0.7716(6) -0.9490(5) -0.4527(4)
C7 C 0.9290(6) -0.7906(6) -0.5132(4)
C8 C 0.9747(7) -0.6988(7) -0.4081(5)
H6 H 1.0427 -0.6105 -0.3931
C9 C 0.9167(7) -0.7424(6) -0.3279(5)
H7 H 0.9488 -0.6826 -0.2561
C10 C 0.9919(8) -0.7542(8) -0.6062(5)
H8 H 1.0062 -0.8360 -0.6464
H9 H 0.9154 -0.7176 -0.6605
H10 H 1.0943 -0.6857 -0.5710
C11 C 0.4034(7) -1.3215(5) 0.2139(4)
C12 C 0.4071(7) -1.4625(5) 0.2439(5)
H11 H 0.3956 -1.5271 0.1749
H12 H 0.3139 -1.4952 0.2646
C13 C 0.5593(7) -1.4658(5) 0.3425(4)
H13 H 0.5816 -1.3912 0.4079
H14 H 0.6506 -1.4495 0.3171
C14 C 0.5454(7) -1.6016(5) 0.3824(4)
H15 H 0.6324 -1.5874 0.4573
H16 H 0.4438 -1.6238 0.3950
C15 C 0.5510(6) -1.7275(5) 0.3037(4)
N1 N 0.6818(5) -0.8649(4) 0.0409(3)
H17 H 0.6511 -0.8363 0.0961
H18 H 0.6857 -0.8160 -0.0104
N2 N 0.7152(4) -1.0582(4) 0.1168(3)
N3 N 0.7718(4) -1.0259(4) -0.0529(3)
N4 N 0.6687(6) -1.0725(5) -0.4759(4)
H19 H 0.6384 -1.1271 -0.5427
H20 H 0.6324 -1.0980 -0.4242
N5 N 0.8166(5) -0.8658(4) -0.3464(3)
N6 N 0.8253(5) -0.9136(4) -0.5368(3)
O1 O 0.2875(6) -1.3152(4) 0.1257(4)
O3 O 0.5090(6) -1.2190(4) 0.2811(3)
O5 O 0.5049(4) -1.8434(3) 0.3271(3)
O6 O 0.6049(6) -1.7124(4) 0.2255(3)
Ag1_2 Ag 0.62913(6) -1.99599(4) 0.25983(3)
O5_2 O 0.5049(4) -0.8434(3) 0.3271(3)
O4 O 0.2700(13) 0.5056(10) 0.8774(8)
H23 H 0.1872 0.5144 0.8929
H24 H 0.2962 0.5713 0.8451
O2? O 0.0195(13) 0.5162(11) 0.9413(10)
H21? H -0.0621 0.4614 0.9454
H22? H 0.0853 0.5562 1.0098
loop_
_geom_bond_atom_site_label_1
_geom_bond_atom_site_label_2
_geom_bond_site_symmetry_1
_geom_bond_site_symmetry_2
Ag1 N2 1_555 1_555
Ag2 N3 1_555 1_555
C1 N1 1_555 1_555
C2 C3 1_555 1_555
C3 H1 1_555 1_555
C4 C3 1_555 1_555
H2 C4 1_555 1_555
C5 C2 1_555 1_555
H3 C5 1_555 1_555
H4 C5 1_555 1_555
H5 C5 1_555 1_555
C6 N4 1_555 1_555
C7 C8 1_555 1_555
C8 H6 1_555 1_555
C9 C8 1_555 1_555
H7 C9 1_555 1_555
C10 C7 1_555 1_555
H8 C10 1_555 1_555
H9 C10 1_555 1_555
H10 C10 1_555 1_555
C11 C12 1_555 1_555
C12 H11 1_555 1_555
H12 C12 1_555 1_555
C13 C12 1_555 1_555
H13 C13 1_555 1_555
H14 C13 1_555 1_555
C14 C13 1_555 1_555
H15 C14 1_555 1_555
H16 C14 1_555 1_555
C15 C14 1_555 1_555
N1 H17 1_555 1_555
H18 N1 1_555 1_555
N2 C1 1_555 1_555
N3 C1 1_555 1_555
N4 H19 1_555 1_555
H20 N4 1_555 1_555
N5 Ag2 1_555 1_555
N6 C6 1_555 1_555
O1 C11 1_555 1_555
O3 Ag1 1_555 1_555
O4 H23 1_555 1_555
H24 O4 1_555 1_555
O5 C15 1_555 1_555
O6 C15 1_555 1_555
Ag1_2 O5 1_555 1_555
O5_2 Ag1 1_555 1_555
C2 N3 1_555 1_555
C4 N2 1_555 1_555
C6 N5 1_555 1_555
C7 N6 1_555 1_555
C9 N5 1_555 1_555
C11 O3 1_555 1_555

#END
