
#######################################################################
#
#                 Cambridge Crystallographic Data Centre
#                                CCDC 
#
#######################################################################
#
# If this CIF has been generated from an entry in the Cambridge 
# Structural Database, then it will include bibliographic, chemical, 
# crystal, experimental, refinement or atomic coordinate data resulting 
# from the CCDC's data processing and validation procedures.
#
#######################################################################

data_RUYKAY
_symmetry_cell_setting           triclinic
_symmetry_space_group_name_H-M   'P -1'
_symmetry_Int_Tables_number      2
_space_group_name_Hall           '-P 1'
loop_
_symmetry_equiv_pos_site_id
_symmetry_equiv_pos_as_xyz
1 x,y,z
2 -x,-y,-z
_cell_length_a                   8.9879(13)
_cell_length_b                   11.2940(18)
_cell_length_c                   12.2234(17)
_cell_angle_alpha                111.792(14)
_cell_angle_beta                 98.424(12)
_cell_angle_gamma                109.836(14)
_cell_volume                     1029.68
loop_
_atom_site_label
_atom_site_type_symbol
_atom_site_fract_x
_atom_site_fract_y
_atom_site_fract_z
Ag1 Ag 0.96331(4) 0.66156(4) 0.27598(4)
Ag2 Ag 1.33806(4) 1.21333(4) 0.80537(4)
C1 C 1.1827(5) 0.9024(5) 0.5607(4)
C2 C 1.3192(6) 0.7828(6) 0.4635(5)
H1 H 1.3186 0.7071 0.3975
C3 C 1.4650(6) 0.8729(6) 0.5557(5)
H2 H 1.5621 0.8610 0.5533
C4 C 1.4624(5) 0.9835(5) 0.6535(5)
C5 C 1.6171(6) 1.0904(6) 0.7605(5)
H3 H 1.6345 1.1835 0.7722
H4 H 1.7110 1.0738 0.7432
H5 H 1.6048 1.0822 0.8344
C6 C 0.6362(5) 0.4003(5) 0.0639(4)
C7 C 0.4604(6) 0.1991(6) 0.0596(5)
H6 H 0.3615 0.1172 0.0235
C8 C 0.5683(7) 0.2297(7) 0.1666(6)
H7 H 0.5445 0.1683 0.2021
C9 C 0.7101(6) 0.3496(6) 0.2212(5)
C10 C 0.8350(6) 0.3903(7) 0.3415(5)
H8 H 0.9253 0.4804 0.3667
H9 H 0.8772 0.3205 0.3294
H10 H 0.7816 0.3960 0.4046
C11 C 0.9931(6) 1.0419(6) 0.1178(5)
H11 H 0.9894 1.0718 0.1988
C12 C 0.9944(5) 0.9122(5) 0.0569(4)
C13 C 0.9972(6) 1.1277(6) 0.0621(5)
H12 H 0.9942 1.2138 0.1051
C14 C 0.9833(5) 0.8155(5) 0.1176(5)
C15 C 1.6057(5) 1.5579(6) 0.6174(5)
H13 H 1.6769 1.5988 0.6977
C16 C 1.4599(5) 1.4370(5) 0.5772(4)
C17 C 1.6470(6) 1.6184(6) 0.5405(5)
H14 H 1.7476 1.6972 0.5681
C18 C 1.4173(5) 1.3688(5) 0.6607(4)
N1 N 1.0414(4) 0.9129(4) 0.5678(4)
H15 H 0.9498 0.8520 0.5094
H16 H 1.0415 0.9806 0.6308
N2 N 1.1765(4) 0.7951(4) 0.4607(4)
N3 N 1.3214(4) 0.9980(4) 0.6576(4)
N4 N 0.6749(5) 0.4871(4) 0.0126(4)
H17 H 0.6085 0.4674 -0.0564
H18 H 0.7663 0.5630 0.0483
N5 N 0.7457(4) 0.4394(4) 0.1731(4)
N6 N 0.4918(4) 0.2826(4) 0.0046(4)
O1 O 0.9613(4) 0.8521(4) 0.2215(3)
O2 O 1.1225(4) 0.5013(4) 0.1957(3)
H19 H 1.2278 0.5319 0.2152
H20 H 1.0809 0.4400 0.1200
O3 O 0.9966(4) 0.7044(4) 0.0598(3)
O4 O 1.2771(4) 1.2716(4) 0.6272(3)
O5 O 1.5299(4) 1.4117(4) 0.7582(3)
Ag1A Ag 1.03669(4) 1.33844(4) -0.27598(4)
Ag1_2 Ag 1.96331(4) 1.66156(4) 1.27598(4)
Ag2_2 Ag 0.33806(4) 0.21333(4) -0.19463(4)
Ag2A Ag 0.66194(4) 0.78667(4) 0.19463(4)
Ag2_3 Ag 1.33806(4) 1.21333(4) -0.19463(4)
Ag2A_2 Ag 1.66194(4) 1.78667(4) 0.19463(4)
Ag2A_3 Ag 0.66194(4) 0.78667(4) -0.80537(4)
C1A C 0.8173(5) 1.0976(5) -0.5607(4)
C2A C 0.6808(6) 1.2172(6) -0.4635(5)
H1A H 0.6814 1.2929 -0.3975
C3A C 0.5350(6) 1.1271(6) -0.5557(5)
H2A H 0.4379 1.1390 -0.5533
C4A C 0.5376(5) 1.0165(5) -0.6535(5)
C5A C 0.3829(6) 0.9096(6) -0.7605(5)
H3A H 0.3655 0.8165 -0.7722
H4A H 0.2890 0.9262 -0.7432
H5A H 0.3952 0.9178 -0.8344
C6_2 C 1.6362(5) 1.4003(5) 1.0639(4)
C7_2 C 1.4604(6) 1.1991(6) 1.0596(5)
H6_2 H 1.3615 1.1172 1.0235
C8_2 C 1.5683(7) 1.2297(7) 1.1666(6)
H7_2 H 1.5445 1.1683 1.2021
C9_2 C 1.7101(6) 1.3496(6) 1.2212(5)
C10_2 C 1.8350(6) 1.3903(7) 1.3415(5)
H8_2 H 1.9253 1.4804 1.3667
H9_2 H 1.8772 1.3205 1.3294
H10_2 H 1.7816 1.3960 1.4046
C11A C 1.0069(6) 0.9581(6) -0.1178(5)
H11A H 1.0106 0.9282 -0.1988
C12A C 1.0056(5) 1.0878(5) -0.0569(4)
C13A C 1.0028(6) 0.8723(6) -0.0621(5)
H12A H 1.0058 0.7862 -0.1051
C14A C 1.0167(5) 1.1845(5) -0.1176(5)
C15A C 1.3943(5) 1.4421(6) 0.3826(5)
H13A H 1.3231 1.4012 0.3023
C16A C 1.5401(5) 1.5630(5) 0.4228(4)
C17A C 1.3530(6) 1.3816(6) 0.4595(5)
H14A H 1.2524 1.3028 0.4319
C18A C 1.5827(5) 1.6312(5) 0.3393(4)
N1A N 0.9586(4) 1.0871(4) -0.5678(4)
H15A H 1.0502 1.1480 -0.5094
H16A H 0.9585 1.0194 -0.6308
N2A N 0.8235(4) 1.2049(4) -0.4607(4)
N3A N 0.6786(4) 1.0020(4) -0.6576(4)
N3_2 N 0.3214(4) -0.0020(4) -0.3424(4)
N4_2 N 1.6749(5) 1.4871(4) 1.0126(4)
H17_2 H 1.6085 1.4674 0.9436
H18_2 H 1.7663 1.5630 1.0483
N5_2 N 1.7457(4) 1.4394(4) 1.1731(4)
N5A N 1.2543(4) 1.5606(4) -0.1731(4)
N6_2 N 1.4918(4) 1.2826(4) 1.0046(4)
O1A O 1.0387(4) 1.1479(4) -0.2215(3)
O1A_2 O 1.0387(4) 1.1479(4) 0.7785(3)
O1A_3 O 0.0387(4) 0.1479(4) -0.2215(3)
O2A O 0.8775(4) 1.4987(4) -0.1957(3)
H19A H 0.7722 1.4681 -0.2152
H20A H 0.9191 1.5600 -0.1200
O3A O 1.0034(4) 1.2956(4) -0.0598(3)
O4A O 1.7229(4) 1.7284(4) 0.3728(3)
O4_2 O 0.2771(4) 0.2716(4) -0.3728(3)
O5A O 1.4701(4) 1.5883(4) 0.2418(3)
O5_2 O 0.5299(4) 0.4117(4) -0.2418(3)
loop_
_geom_bond_atom_site_label_1
_geom_bond_atom_site_label_2
_geom_bond_site_symmetry_1
_geom_bond_site_symmetry_2
Ag1 N2 1_555 1_555
Ag2 N3 1_555 1_555
C1 N1 1_555 1_555
C2 H1 1_555 1_555
C3 C2 1_555 1_555
H2 C3 1_555 1_555
C4 C3 1_555 1_555
C5 C4 1_555 1_555
H3 C5 1_555 1_555
H4 C5 1_555 1_555
H5 C5 1_555 1_555
C6 N4 1_555 1_555
C7 H6 1_555 1_555
C8 C7 1_555 1_555
H7 C8 1_555 1_555
C9 C8 1_555 1_555
C10 C9 1_555 1_555
H8 C10 1_555 1_555
H9 C10 1_555 1_555
H10 C10 1_555 1_555
C11 H11 1_555 1_555
C12 C11 1_555 1_555
C13 C11 1_555 1_555
H12 C13 1_555 1_555
C14 C12 1_555 1_555
C15 H13 1_555 1_555
C16 C15 1_555 1_555
C17 C15 1_555 1_555
H14 C17 1_555 1_555
C18 C16 1_555 1_555
N1 H15 1_555 1_555
H16 N1 1_555 1_555
N2 C1 1_555 1_555
N3 C1 1_555 1_555
N4 H17 1_555 1_555
H18 N4 1_555 1_555
N5 Ag1 1_555 1_555
N6 C6 1_555 1_555
O1 Ag1 1_555 1_555
O2 Ag1 1_555 1_555
H19 O2 1_555 1_555
H20 O2 1_555 1_555
O3 C14 1_555 1_555
O4 Ag2 1_555 1_555
O5 Ag2 1_555 1_555
Ag1A N2A 1_555 1_555
Ag1_2 N5_2 1_555 1_555
Ag2_2 N6 1_555 1_555
Ag2A O1 1_555 1_555
Ag2_3 O1A 1_555 1_555
Ag2A_2 O4A 1_555 1_555
Ag2A_3 N3A 1_555 1_555
C1A N1A 1_555 1_555
C2A H1A 1_555 1_555
C3A C2A 1_555 1_555
H2A C3A 1_555 1_555
C4A C3A 1_555 1_555
C5A C4A 1_555 1_555
H3A C5A 1_555 1_555
H4A C5A 1_555 1_555
H5A C5A 1_555 1_555
C6_2 N4_2 1_555 1_555
C7_2 H6_2 1_555 1_555
C8_2 C7_2 1_555 1_555
H7_2 C8_2 1_555 1_555
C9_2 C8_2 1_555 1_555
C10_2 C9_2 1_555 1_555
H8_2 C10_2 1_555 1_555
H9_2 C10_2 1_555 1_555
H10_2 C10_2 1_555 1_555
C11A H11A 1_555 1_555
C12A C13 1_555 1_555
C13A C12 1_555 1_555
H12A C13A 1_555 1_555
C14A C12A 1_555 1_555
C15A H13A 1_555 1_555
C16A C17 1_555 1_555
C17A C16 1_555 1_555
H14A C17A 1_555 1_555
C18A C16A 1_555 1_555
N1A H15A 1_555 1_555
H16A N1A 1_555 1_555
N2A C1A 1_555 1_555
N3A C1A 1_555 1_555
N3_2 Ag2_2 1_555 1_555
N4_2 H17_2 1_555 1_555
H18_2 N4_2 1_555 1_555
N5_2 C6_2 1_555 1_555
N5A Ag1A 1_555 1_555
N6_2 Ag2 1_555 1_555
O1A Ag1A 1_555 1_555
O1A_2 Ag2 1_555 1_555
O1A_3 Ag2_2 1_555 1_555
O2A Ag1A 1_555 1_555
H19A O2A 1_555 1_555
H20A O2A 1_555 1_555
O3A C14A 1_555 1_555
O4A C18A 1_555 1_555
O4_2 Ag2_2 1_555 1_555
O5A Ag2A_2 1_555 1_555
O5_2 Ag2_2 1_555 1_555
C2 N2 1_555 1_555
C4 N3 1_555 1_555
C6 N5 1_555 1_555
C7 N6 1_555 1_555
C9 N5 1_555 1_555
C14 O1 1_555 1_555
C18 O4 1_555 1_555
C18 O5 1_555 1_555
C2A N2A 1_555 1_555
C4A N3A 1_555 1_555
C6_2 N6_2 1_555 1_555
C7_2 N6_2 1_555 1_555
C9_2 N5_2 1_555 1_555
C11A C12A 1_555 1_555
C11A C13A 1_555 1_555
C14A O1A 1_555 1_555
C15A C16A 1_555 1_555
C15A C17A 1_555 1_555
C18A O5A 1_555 1_555

#END
