
#######################################################################
#
#                 Cambridge Crystallographic Data Centre
#                                CCDC 
#
#######################################################################
#
# If this CIF has been generated from an entry in the Cambridge 
# Structural Database, then it will include bibliographic, chemical, 
# crystal, experimental, refinement or atomic coordinate data resulting 
# from the CCDC's data processing and validation procedures.
#
#######################################################################

data_RUZDUM
_symmetry_cell_setting           triclinic
_symmetry_space_group_name_H-M   'P -1'
_symmetry_Int_Tables_number      2
_space_group_name_Hall           '-P 1'
loop_
_symmetry_equiv_pos_site_id
_symmetry_equiv_pos_as_xyz
1 x,y,z
2 -x,-y,-z
_cell_length_a                   8.3322(5)
_cell_length_b                   10.1010(6)
_cell_length_c                   13.9601(9)
_cell_angle_alpha                90.5490(10)
_cell_angle_beta                 99.0860(10)
_cell_angle_gamma                106.5820(10)
_cell_volume                     1110.08
loop_
_atom_site_label
_atom_site_type_symbol
_atom_site_fract_x
_atom_site_fract_y
_atom_site_fract_z
Cd1 Cd 0.21363(3) 0.11786(2) 0.506130(15)
S1 S -0.24100(11) 0.49433(9) 0.14664(6)
N1 N 0.3679(3) 0.1229(2) 0.65523(18)
N2 N 1.0981(3) 0.2980(3) 1.0640(2)
H1 H 1.1127 0.3663 1.0268
O1 O 0.2578(3) 0.37931(19) 0.51016(15)
O2 O 0.0750(3) 0.23108(19) 0.39970(16)
O3 O 0.0336(3) 0.92160(19) 0.41067(15)
O4 O 0.2677(3) 0.8880(2) 0.48936(16)
O5 O -0.3294(5) 0.5962(4) 0.1403(2)
O6 O -0.1468(3) 0.4977(3) 0.06922(17)
O7 O -0.3457(4) 0.3584(3) 0.1568(2)
O8 O 0.4416(3) 0.1736(2) 0.42679(17)
H2 H 0.5272 0.1497 0.4536
H3 H 0.4612 0.2527 0.4029
C1 C 0.5899(4) 0.1140(3) 0.8247(2)
C2 C 0.6089(4) 0.2335(4) 0.7740(3)
H4 H 0.6963 0.3132 0.7964
C3 C 0.4964(4) 0.2324(3) 0.6901(2)
H5 H 0.5113 0.3127 0.6562
C4 C 0.3493(4) 0.0090(3) 0.7046(2)
H6 H 0.2597 -0.0687 0.6810
C5 C 0.4555(4) 0.0002(3) 0.7887(2)
H7 H 0.4371 -0.0815 0.8210
C6 C 0.7049(4) 0.1046(4) 0.9145(2)
H8 H 0.6780 0.0228 0.9465
C7 C 0.8423(4) 0.2026(4) 0.9530(2)
H9 H 0.8690 0.2849 0.9217
C8 C 0.9562(4) 0.1913(4) 1.0417(2)
C9 C 1.2174(5) 0.3030(4) 1.1411(3)
H10 H 1.3152 0.3777 1.1523
C10 C 1.1961(5) 0.1993(5) 1.2029(3)
H11 H 1.2778 0.2026 1.2573
C11 C 1.0526(5) 0.0897(4) 1.1838(3)
H12 H 1.0364 0.0181 1.2258
C12 C 0.9321(5) 0.0839(4) 1.1034(3)
H13 H 0.8351 0.0085 1.0905
C13 C 0.1472(4) 0.3527(3) 0.4354(2)
C14 C 0.0903(4) 0.4674(3) 0.3848(2)
C15 C 0.1448(3) 0.6012(3) 0.4258(2)
H14 H 0.2255 0.6231 0.4821
C16 C 0.0794(4) 0.7035(3) 0.3833(2)
C17 C 0.1324(4) 0.8462(3) 0.4312(2)
C18 C -0.0405(4) 0.6704(3) 0.2982(2)
H15 H -0.0868 0.7373 0.2701
C19 C -0.0899(4) 0.5375(3) 0.2561(2)
C20 C -0.0265(4) 0.4359(3) 0.2996(2)
H16 H -0.0626 0.3463 0.2714
Cd1_2 Cd 0.21363(3) 1.11786(2) 0.506130(15)
Cd1A Cd -0.21363(3) 0.88214(2) 0.493870(15)
O3_2 O 0.0336(3) -0.07840(19) 0.41067(15)
O3A O -0.0336(3) 0.07840(19) 0.58933(15)
O4_2 O 0.2677(3) -0.1120(2) 0.48936(16)
O9 O 0.4684(3) 0.5761(3) 0.64733(19)
H17 H 0.4160 0.5148 0.6022
H18 H 0.4161 0.5840 0.6937
O10 O 0.5950(4) 0.7919(3) 0.0094(2)
H19 H 0.6173 0.7330 0.0485
H20 H 0.5085 0.7634 -0.0349
loop_
_geom_bond_atom_site_label_1
_geom_bond_atom_site_label_2
_geom_bond_site_symmetry_1
_geom_bond_site_symmetry_2
Cd1 N1 1_555 1_555
S1 O5 1_555 1_555
N1 C3 1_555 1_555
N2 H1 1_555 1_555
O1 Cd1 1_555 1_555
O2 Cd1 1_555 1_555
O3 C17 1_555 1_555
O4 C17 1_555 1_555
O6 S1 1_555 1_555
O7 S1 1_555 1_555
O8 Cd1 1_555 1_555
H2 O8 1_555 1_555
H3 O8 1_555 1_555
C1 C2 1_555 1_555
C2 H4 1_555 1_555
C3 C2 1_555 1_555
H5 C3 1_555 1_555
C4 N1 1_555 1_555
H6 C4 1_555 1_555
C5 C1 1_555 1_555
H7 C5 1_555 1_555
C6 C1 1_555 1_555
H8 C6 1_555 1_555
C7 C6 1_555 1_555
H9 C7 1_555 1_555
C8 N2 1_555 1_555
C9 N2 1_555 1_555
H10 C9 1_555 1_555
C10 C9 1_555 1_555
H11 C10 1_555 1_555
C11 C10 1_555 1_555
H12 C11 1_555 1_555
C12 C8 1_555 1_555
H13 C12 1_555 1_555
C13 O1 1_555 1_555
C14 C13 1_555 1_555
C15 C14 1_555 1_555
H14 C15 1_555 1_555
C16 C15 1_555 1_555
C17 C16 1_555 1_555
C18 C16 1_555 1_555
H15 C18 1_555 1_555
C19 S1 1_555 1_555
C20 C14 1_555 1_555
H16 C20 1_555 1_555
O9 H17 1_555 1_555
H18 O9 1_555 1_555
O10 H19 1_555 1_555
H20 O10 1_555 1_555
Cd1_2 O3 1_555 1_555
Cd1A O3 1_555 1_555
O3_2 Cd1 1_555 1_555
O3A Cd1 1_555 1_555
O4_2 Cd1 1_555 1_555
O2 C13 1_555 1_555
O4 Cd1_2 1_555 1_555
C4 C5 1_555 1_555
C7 C8 1_555 1_555
C11 C12 1_555 1_555
C18 C19 1_555 1_555
C19 C20 1_555 1_555

#END
