
#######################################################################
#
#                 Cambridge Crystallographic Data Centre
#                                CCDC 
#
#######################################################################
#
# If this CIF has been generated from an entry in the Cambridge 
# Structural Database, then it will include bibliographic, chemical, 
# crystal, experimental, refinement or atomic coordinate data resulting 
# from the CCDC's data processing and validation procedures.
#
#######################################################################

data_RUZFEY
_symmetry_cell_setting           monoclinic
_symmetry_space_group_name_H-M   'P 21/c'
_symmetry_Int_Tables_number      14
_space_group_name_Hall           '-P 2ybc'
loop_
_symmetry_equiv_pos_site_id
_symmetry_equiv_pos_as_xyz
1 x,y,z
2 -x,1/2+y,1/2-z
3 -x,-y,-z
4 x,1/2-y,1/2+z
_cell_length_a                   15.0203(8)
_cell_length_b                   17.2406(10)
_cell_length_c                   17.0096(10)
_cell_angle_alpha                90
_cell_angle_beta                 98.8790(10)
_cell_angle_gamma                90
_cell_volume                     4352
loop_
_atom_site_label
_atom_site_type_symbol
_atom_site_fract_x
_atom_site_fract_y
_atom_site_fract_z
Cd1 Cd 0.258306(13) 0.260955(12) 0.753955(11)
O1 O 0.13679(13) 0.25199(13) 0.65021(13)
O2 O 0.02951(14) 0.29821(14) 0.71405(12)
O3 O -0.11970(13) 0.33607(13) 0.63420(12)
H1 H -0.0780 0.3353 0.6715
O4 O -0.39660(15) 0.32530(14) 0.37791(13)
H2 H -0.4396 0.3220 0.3420
O5 O -0.55165(17) 0.29122(16) 0.30889(15)
O6 O -0.64014(15) 0.21435(16) 0.36465(14)
O7 O 0.17207(14) 0.36071(12) 0.80060(12)
H3 H 0.1207 0.3371 0.7793
H4 H 0.1689 0.4061 0.7740
O8 O 0.30413(16) 0.15488(14) 0.68909(13)
H5 H 0.3349 0.1204 0.7146
H6 H 0.2732 0.1271 0.6530
N1 N 0.32424(17) 0.34437(15) 0.67005(15)
N2 N 0.3876(2) 0.48612(17) 0.26874(17)
N3 N 0.18661(18) 0.17501(15) 0.83284(15)
N4 N 0.1173(2) 0.00117(17) 1.21773(17)
C1 C 0.3612(2) 0.3600(2) 0.5385(2)
H7 H 0.3714 0.3367 0.4914
C2 C 0.3395(3) 0.3156(2) 0.6003(2)
H8 H 0.3353 0.2622 0.5930
C3 C 0.3347(2) 0.4201(2) 0.67863(19)
H9 H 0.3271 0.4417 0.7272
C4 C 0.3563(2) 0.4696(2) 0.62004(19)
H10 H 0.3631 0.5226 0.6296
C5 C 0.3676(2) 0.43878(19) 0.54723(19)
C6 C 0.3844(2) 0.4909(2) 0.48236(19)
H11 H 0.3967 0.5426 0.4953
C7 C 0.3834(2) 0.4701(2) 0.40700(19)
H12 H 0.3725 0.4180 0.3950
C8 C 0.3976(2) 0.52075(19) 0.3408(2)
C9 C 0.4024(3) 0.5292(2) 0.2073(2)
H13 H 0.3955 0.5061 0.1573
C10 C 0.4274(3) 0.6062(2) 0.2132(2)
H14 H 0.4384 0.6336 0.1686
C11 C 0.4358(2) 0.6410(2) 0.2853(2)
H15 H 0.4518 0.6930 0.2909
C12 C 0.4202(2) 0.59805(19) 0.3501(2)
H16 H 0.4249 0.6212 0.4000
C13 C 0.1490(2) 0.14982(19) 0.96204(19)
H17 H 0.1396 0.1695 1.0110
C14 C 0.1731(2) 0.19823(19) 0.90498(19)
H18 H 0.1806 0.2506 0.9173
C15 C 0.1723(2) 0.09966(19) 0.81631(19)
H19 H 0.1784 0.0822 0.7657
C16 C 0.1490(2) 0.04689(19) 0.87004(19)
H20 H 0.1402 -0.0049 0.8556
C17 C 0.1387(2) 0.07094(18) 0.94594(18)
C18 C 0.1197(2) 0.01407(19) 1.00527(19)
H21 H 0.1045 -0.0359 0.9874
C19 C 0.1224(2) 0.02801(19) 1.08193(19)
H22 H 0.1364 0.0785 1.0987
C20 C 0.1058(2) -0.02709(18) 1.14346(19)
C21 C 0.0991(3) -0.0455(2) 1.2758(2)
H23 H 0.1057 -0.0258 1.3273
C22 C 0.0713(3) -0.1206(2) 1.2639(2)
H24 H 0.0589 -0.1509 1.3061
C23 C 0.0619(2) -0.1504(2) 1.1887(2)
H25 H 0.0441 -0.2016 1.1790
C24 C 0.0793(2) -0.10336(18) 1.1279(2)
H26 H 0.0733 -0.1226 1.0762
C25 C 0.05651(19) 0.26881(17) 0.65406(17)
C26 C -0.01366(18) 0.25261(17) 0.58316(17)
C27 C 0.00460(19) 0.20317(18) 0.52526(17)
H27 H 0.0612 0.1801 0.5300
C28 C -0.06026(19) 0.18607(18) 0.45828(17)
C29 C -0.0405(2) 0.1357(2) 0.39816(19)
H28 H 0.0155 0.1115 0.4036
C30 C -0.1021(2) 0.1218(2) 0.3321(2)
H29 H -0.0883 0.0882 0.2930
C31 C -0.1861(2) 0.1583(2) 0.32339(19)
H30 H -0.2277 0.1492 0.2779
C32 C -0.2080(2) 0.20690(19) 0.38044(17)
H31 H -0.2643 0.2305 0.3732
C33 C -0.14645(18) 0.22220(17) 0.45074(16)
C34 C -0.16695(18) 0.27317(16) 0.51177(16)
C35 C -0.10099(18) 0.28737(16) 0.57602(16)
C36 C -0.25568(17) 0.31628(18) 0.50504(17)
H32 H -0.2617 0.3474 0.4570
H33 H -0.2515 0.3519 0.5496
C37 C -0.34204(18) 0.27028(16) 0.50294(16)
C38 C -0.35853(18) 0.22321(17) 0.56805(16)
C39 C -0.2956(2) 0.21438(19) 0.63879(17)
H34 H -0.2402 0.2395 0.6434
C40 C -0.3147(2) 0.1697(2) 0.70006(18)
H35 H -0.2719 0.1646 0.7455
C41 C -0.3974(2) 0.1316(2) 0.6962(2)
H36 H -0.4091 0.1008 0.7383
C42 C -0.4604(2) 0.1398(2) 0.63020(19)
H37 H -0.5159 0.1153 0.6280
C43 C -0.44309(19) 0.18481(19) 0.56499(17)
C44 C -0.5086(2) 0.19375(19) 0.49711(18)
H38 H -0.5632 0.1678 0.4946
C45 C -0.49443(18) 0.23924(17) 0.43498(17)
C46 C -0.41047(18) 0.27858(17) 0.43896(16)
C47 C -0.5669(2) 0.24918(19) 0.36424(19)
Cd1C Cd -0.741694(13) 0.239045(12) 0.253955(11)
O6C O 0.35986(15) 0.28565(16) 0.86465(14)
O9 O 0.2044(5) 0.0911(5) 0.5556(4)
N5 N 0.2691(4) 0.0203(3) 0.4737(3)
C48 C 0.2408(6) -0.0530(4) 0.4986(5)
H39 H 0.2009 -0.0458 0.5369
H40 H 0.2924 -0.0823 0.5222
H41 H 0.2099 -0.0806 0.4534
C49 C 0.2495(4) 0.0933(3) 0.4993(4)
H42 H 0.2675 0.1390 0.4773
C50 C 0.3276(6) 0.0181(5) 0.4120(5)
H43 H 0.3357 0.0697 0.3932
H44 H 0.3001 -0.0136 0.3685
H45 H 0.3850 -0.0034 0.4339
loop_
_geom_bond_atom_site_label_1
_geom_bond_atom_site_label_2
_geom_bond_site_symmetry_1
_geom_bond_site_symmetry_2
Cd1 O1 1_555 1_555
O1 C25 1_555 1_555
O2 C25 1_555 1_555
O3 H1 1_555 1_555
O4 H2 1_555 1_555
O5 C47 1_555 1_555
O6 C47 1_555 1_555
O7 Cd1 1_555 1_555
H3 O7 1_555 1_555
H4 O7 1_555 1_555
O8 Cd1 1_555 1_555
H5 O8 1_555 1_555
H6 O8 1_555 1_555
N1 Cd1 1_555 1_555
N2 C8 1_555 1_555
N3 Cd1 1_555 1_555
N4 C20 1_555 1_555
C1 H7 1_555 1_555
C2 N1 1_555 1_555
H8 C2 1_555 1_555
C3 N1 1_555 1_555
H9 C3 1_555 1_555
C4 C3 1_555 1_555
H10 C4 1_555 1_555
C5 C1 1_555 1_555
C6 C5 1_555 1_555
H11 C6 1_555 1_555
C7 C6 1_555 1_555
H12 C7 1_555 1_555
C8 C7 1_555 1_555
C9 N2 1_555 1_555
H13 C9 1_555 1_555
C10 C9 1_555 1_555
H14 C10 1_555 1_555
C11 C10 1_555 1_555
H15 C11 1_555 1_555
C12 C8 1_555 1_555
H16 C12 1_555 1_555
C13 H17 1_555 1_555
C14 N3 1_555 1_555
H18 C14 1_555 1_555
C15 N3 1_555 1_555
H19 C15 1_555 1_555
C16 C15 1_555 1_555
H20 C16 1_555 1_555
C17 C13 1_555 1_555
C18 C17 1_555 1_555
H21 C18 1_555 1_555
C19 C18 1_555 1_555
H22 C19 1_555 1_555
C20 C19 1_555 1_555
C21 N4 1_555 1_555
H23 C21 1_555 1_555
C22 C21 1_555 1_555
H24 C22 1_555 1_555
C23 C22 1_555 1_555
H25 C23 1_555 1_555
C24 C20 1_555 1_555
H26 C24 1_555 1_555
C25 C26 1_555 1_555
C26 C27 1_555 1_555
C27 H27 1_555 1_555
C28 C27 1_555 1_555
C29 C28 1_555 1_555
H28 C29 1_555 1_555
C30 C29 1_555 1_555
H29 C30 1_555 1_555
C31 C30 1_555 1_555
H30 C31 1_555 1_555
C32 C31 1_555 1_555
H31 C32 1_555 1_555
C33 C28 1_555 1_555
C34 C33 1_555 1_555
C35 O3 1_555 1_555
C36 C34 1_555 1_555
H32 C36 1_555 1_555
H33 C36 1_555 1_555
C37 C36 1_555 1_555
C38 C37 1_555 1_555
C39 C38 1_555 1_555
H34 C39 1_555 1_555
C40 C39 1_555 1_555
H35 C40 1_555 1_555
C41 C40 1_555 1_555
H36 C41 1_555 1_555
C42 C41 1_555 1_555
H37 C42 1_555 1_555
C43 C38 1_555 1_555
C44 C43 1_555 1_555
H38 C44 1_555 1_555
C45 C44 1_555 1_555
C46 O4 1_555 1_555
C47 C45 1_555 1_555
O9 C49 1_555 1_555
N5 C48 1_555 1_555
C48 H39 1_555 1_555
H40 C48 1_555 1_555
H41 C48 1_555 1_555
C49 N5 1_555 1_555
H42 C49 1_555 1_555
C50 N5 1_555 1_555
H43 C50 1_555 1_555
H44 C50 1_555 1_555
H45 C50 1_555 1_555
Cd1C O6 1_555 1_555
O6C Cd1 1_555 1_555
C1 C2 1_555 1_555
C4 C5 1_555 1_555
C11 C12 1_555 1_555
C13 C14 1_555 1_555
C16 C17 1_555 1_555
C23 C24 1_555 1_555
C26 C35 1_555 1_555
C32 C33 1_555 1_555
C34 C35 1_555 1_555
C37 C46 1_555 1_555
C42 C43 1_555 1_555
C45 C46 1_555 1_555

#END
