
#######################################################################
#
#                 Cambridge Crystallographic Data Centre
#                                CCDC 
#
#######################################################################
#
# If this CIF has been generated from an entry in the Cambridge 
# Structural Database, then it will include bibliographic, chemical, 
# crystal, experimental, refinement or atomic coordinate data resulting 
# from the CCDC's data processing and validation procedures.
#
#######################################################################

data_RUZFEX
_symmetry_cell_setting           triclinic
_symmetry_space_group_name_H-M   'P -1'
_symmetry_Int_Tables_number      2
_space_group_name_Hall           '-P 1'
loop_
_symmetry_equiv_pos_site_id
_symmetry_equiv_pos_as_xyz
1 x,y,z
2 -x,-y,-z
_cell_length_a                   7.6305(15)
_cell_length_b                   9.9654(15)
_cell_length_c                   11.219(2)
_cell_angle_alpha                106.98(2)
_cell_angle_beta                 103.52(2)
_cell_angle_gamma                107.50(2)
_cell_volume                     728.18
loop_
_atom_site_label
_atom_site_type_symbol
_atom_site_fract_x
_atom_site_fract_y
_atom_site_fract_z
Sm1 Sm 0.43939(14) 0.38248(12) 0.20761(10)
O1 O 0.5124(12) 0.1355(10) 0.1977(9)
O2 O 0.5719(12) 0.3143(10) 0.3891(8)
O3 O 0.5484(13) -0.3556(10) 0.2086(8)
O4 O 0.6878(13) -0.3675(10) 0.4013(9)
O5 O 0.9658(11) 0.3196(10) 0.8122(8)
O6 O 0.9656(12) 0.1004(10) 0.8216(8)
C1 C 0.5797(18) 0.1904(15) 0.3275(13)
C2 C 0.6469(16) -0.2915(13) 0.3345(13)
C3 C 0.9266(16) 0.1765(15) 0.7587(13)
C4 C 0.6611(17) 0.1063(15) 0.3983(13)
C5 C 0.6280(16) -0.0456(15) 0.3324(13)
C6 C 0.6912(18) -0.1241(15) 0.4039(13)
C7 C 0.7953(16) -0.0534(14) 0.5424(12)
C8 C 0.8240(15) 0.0998(14) 0.6076(12)
C9 C 0.7574(17) 0.1810(15) 0.5364(13)
O7 O 0.3513(11) 0.2426(10) -0.0283(8)
O8 O 0.1522(11) 0.4282(10) 0.0880(9)
O9 O 0.1334(12) 0.1679(10) 0.1606(10)
O10 O 0.2825(12) 0.4662(11) 0.3695(9)
O11 O 0.7532(12) 0.4194(10) 0.1689(10)
O3_2 O 0.5484(13) 0.6444(10) 0.2086(8)
O4_2 O 0.6878(13) 0.6325(10) 0.4013(9)
Sm1_2 Sm 0.43939(14) -0.61752(12) 0.20761(10)
O12 O -0.2413(12) 0.1350(11) 0.0398(10)
loop_
_geom_bond_atom_site_label_1
_geom_bond_atom_site_label_2
_geom_bond_site_symmetry_1
_geom_bond_site_symmetry_2
Sm1 O1 1_555 1_555
O1 C1 1_555 1_555
O2 Sm1 1_555 1_555
O3 C2 1_555 1_555
O4 C2 1_555 1_555
O5 C3 1_555 1_555
O6 C3 1_555 1_555
C1 O2 1_555 1_555
C2 C6 1_555 1_555
C3 C8 1_555 1_555
C4 C1 1_555 1_555
C5 C4 1_555 1_555
C6 C5 1_555 1_555
C7 C6 1_555 1_555
C8 C7 1_555 1_555
C9 C4 1_555 1_555
O7 Sm1 1_555 1_555
O8 Sm1 1_555 1_555
O9 Sm1 1_555 1_555
O10 Sm1 1_555 1_555
O11 Sm1 1_555 1_555
O3_2 Sm1 1_555 1_555
O4_2 Sm1 1_555 1_555
Sm1_2 O3 1_555 1_555
O4 Sm1_2 1_555 1_555
C8 C9 1_555 1_555

#END
