
#######################################################################
#
#                 Cambridge Crystallographic Data Centre
#                                CCDC 
#
#######################################################################
#
# If this CIF has been generated from an entry in the Cambridge 
# Structural Database, then it will include bibliographic, chemical, 
# crystal, experimental, refinement or atomic coordinate data resulting 
# from the CCDC's data processing and validation procedures.
#
#######################################################################

data_RUZGAV
_symmetry_cell_setting           monoclinic
_symmetry_space_group_name_H-M   'C 2/c'
_symmetry_Int_Tables_number      15
_space_group_name_Hall           '-C 2yn'
loop_
_symmetry_equiv_pos_site_id
_symmetry_equiv_pos_as_xyz
1 x,y,z
2 -x,y,1/2-z
3 1/2+x,1/2+y,z
4 1/2-x,1/2+y,1/2-z
5 -x,-y,-z
6 x,-y,1/2+z
7 1/2-x,1/2-y,-z
8 1/2+x,1/2-y,1/2+z
_cell_length_a                   16.004(8)
_cell_length_b                   10.356(5)
_cell_length_c                   19.881(7)
_cell_angle_alpha                90
_cell_angle_beta                 105.620(19)
_cell_angle_gamma                90
_cell_volume                     3173.34
loop_
_atom_site_label
_atom_site_type_symbol
_atom_site_fract_x
_atom_site_fract_y
_atom_site_fract_z
Cu1 Cu 0.2500 0.2500 0.5000
O1 O 0.3234(3) 0.3911(5) 0.4146(2)
O2 O 0.2617(2) 0.2011(4) 0.40782(16)
O3 O 0.0000 0.3575(7) 0.2500
N1 N 0.0082(3) 0.3865(4) 0.3904(2)
N2 N 0.1401(2) 0.3399(4) 0.45540(18)
C1 C 0.3573(5) 0.3511(8) 0.2840(3)
H1 H 0.3868 0.4183 0.3113
C2 C 0.3670(5) 0.3323(8) 0.2168(4)
H2 H 0.4029 0.3857 0.1994
C3 C 0.3234(5) 0.2360(8) 0.1784(3)
H3 H 0.3305 0.2231 0.1339
C4 C 0.2695(5) 0.1561(7) 0.2006(4)
H4 H 0.2384 0.0918 0.1719
C5 C 0.2625(4) 0.1745(7) 0.2688(3)
H5 H 0.2281 0.1188 0.2865
C6 C 0.3055(4) 0.2726(6) 0.3097(2)
C7 C 0.2970(4) 0.2922(7) 0.3827(3)
C8 C 0.0537(5) 0.7101(6) 0.4647(4)
H6 H 0.0312 0.7927 0.4657
C9 C 0.1372(5) 0.6833(6) 0.5059(3)
H7 H 0.1690 0.7487 0.5334
C10 C 0.1736(4) 0.5638(5) 0.5071(2)
H8 H 0.2295 0.5468 0.5344
C11 C 0.1237(3) 0.4689(5) 0.4660(2)
C12 C 0.0714(4) 0.2941(5) 0.4099(3)
C13 C 0.0621(5) 0.1584(6) 0.3792(4)
H9 H 0.0222 0.1604 0.3329
H10 H 0.1180 0.1295 0.3747
C14 C 0.0317(6) 0.0704(9) 0.4208(5)
H11 H 0.0292 -0.0144 0.4008
H12 H -0.0252 0.0957 0.4229
H13 H 0.0703 0.0697 0.4671
C15 C -0.0745(4) 0.3776(7) 0.3362(3)
H14 H -0.1183 0.4277 0.3500
H15 H -0.0936 0.2884 0.3307
C16 C -0.0639(5) 0.4274(8) 0.2685(3)
H16 H -0.1182 0.4194 0.2325
H17 H -0.0480 0.5181 0.2732
C17 C 0.0037(4) 0.6178(6) 0.4226(3)
H18 H -0.0518 0.6358 0.3947
C18 C 0.0400(3) 0.4987(5) 0.4240(2)
Cu1A Cu -0.2500 0.2500 0.0000
O1F O 0.1766(3) 0.1089(5) 0.5854(2)
O2F O 0.2383(2) 0.2989(4) 0.59218(16)
N1A N -0.0082(3) 0.3865(4) 0.1096(2)
N2A N -0.1401(2) 0.3399(4) 0.04460(18)
N2F N 0.3599(2) 0.1601(4) 0.54460(18)
C1F C 0.1427(5) 0.1489(8) 0.7160(3)
H1F H 0.1132 0.0817 0.6887
C2F C 0.1330(5) 0.1677(8) 0.7832(4)
H2F H 0.0971 0.1143 0.8006
C3F C 0.1766(5) 0.2640(8) 0.8216(3)
H3F H 0.1695 0.2769 0.8661
C4F C 0.2305(5) 0.3439(7) 0.7994(4)
H4F H 0.2616 0.4082 0.8281
C5F C 0.2375(4) 0.3255(7) 0.7312(3)
H5F H 0.2719 0.3812 0.7135
C6F C 0.1945(4) 0.2274(6) 0.6903(2)
C7F C 0.2030(4) 0.2078(7) 0.6173(3)
C8A C -0.0537(5) 0.7101(6) 0.0353(4)
H6A H -0.0312 0.7927 0.0343
C9A C -0.1372(5) 0.6833(6) -0.0059(3)
H7A H -0.1690 0.7487 -0.0334
C10A C -0.1736(4) 0.5638(5) -0.0071(2)
H8A H -0.2295 0.5468 -0.0344
C11A C -0.1237(3) 0.4689(5) 0.0340(2)
C12A C -0.0714(4) 0.2941(5) 0.0901(3)
C13A C -0.0621(5) 0.1584(6) 0.1208(4)
H9A H -0.0222 0.1604 0.1671
H10A H -0.1180 0.1295 0.1253
C14A C -0.0317(6) 0.0704(9) 0.0792(5)
H11A H -0.0292 -0.0144 0.0992
H12A H 0.0252 0.0957 0.0771
H13A H -0.0703 0.0697 0.0329
C15A C 0.0745(4) 0.3776(7) 0.1638(3)
H14A H 0.1183 0.4277 0.1500
H15A H 0.0936 0.2884 0.1693
C16A C 0.0639(5) 0.4274(8) 0.2315(3)
H16A H 0.1182 0.4194 0.2675
H17A H 0.0480 0.5181 0.2268
C17A C -0.0037(4) 0.6178(6) 0.0774(3)
H18A H 0.0518 0.6358 0.1053
C18A C -0.0400(3) 0.4987(5) 0.0760(2)
loop_
_geom_bond_atom_site_label_1
_geom_bond_atom_site_label_2
_geom_bond_site_symmetry_1
_geom_bond_site_symmetry_2
Cu1 O1 1_555 1_555
O1 C7 1_555 1_555
O2 Cu1 1_555 1_555
O3 C16 1_555 1_555
N1 C12 1_555 1_555
N2 Cu1 1_555 1_555
C1 H1 1_555 1_555
C2 C1 1_555 1_555
H2 C2 1_555 1_555
C3 C2 1_555 1_555
H3 C3 1_555 1_555
C4 C3 1_555 1_555
H4 C4 1_555 1_555
C5 C4 1_555 1_555
H5 C5 1_555 1_555
C6 C1 1_555 1_555
C7 O2 1_555 1_555
C8 H6 1_555 1_555
C9 C8 1_555 1_555
H7 C9 1_555 1_555
C10 C9 1_555 1_555
H8 C10 1_555 1_555
C11 N2 1_555 1_555
C12 N2 1_555 1_555
C13 C12 1_555 1_555
H9 C13 1_555 1_555
H10 C13 1_555 1_555
C14 C13 1_555 1_555
H11 C14 1_555 1_555
H12 C14 1_555 1_555
H13 C14 1_555 1_555
C15 N1 1_555 1_555
H14 C15 1_555 1_555
H15 C15 1_555 1_555
C16 C15 1_555 1_555
H16 C16 1_555 1_555
H17 C16 1_555 1_555
C17 C8 1_555 1_555
H18 C17 1_555 1_555
C18 N1 1_555 1_555
Cu1A N2A 1_555 1_555
O1F Cu1 1_555 1_555
O2F Cu1 1_555 1_555
N1A C12A 1_555 1_555
N2A C11A 1_555 1_555
N2F Cu1 1_555 1_555
C1F H1F 1_555 1_555
C2F C1F 1_555 1_555
H2F C2F 1_555 1_555
C3F C2F 1_555 1_555
H3F C3F 1_555 1_555
C4F C3F 1_555 1_555
H4F C4F 1_555 1_555
C5F C4F 1_555 1_555
H5F C5F 1_555 1_555
C6F C1F 1_555 1_555
C7F O1F 1_555 1_555
C8A H6A 1_555 1_555
C9A C8A 1_555 1_555
H7A C9A 1_555 1_555
C10A C9A 1_555 1_555
H8A C10A 1_555 1_555
C11A C10A 1_555 1_555
C12A N2A 1_555 1_555
C13A C12A 1_555 1_555
H9A C13A 1_555 1_555
H10A C13A 1_555 1_555
C14A C13A 1_555 1_555
H11A C14A 1_555 1_555
H12A C14A 1_555 1_555
H13A C14A 1_555 1_555
C15A N1A 1_555 1_555
H14A C15A 1_555 1_555
H15A C15A 1_555 1_555
C16A O3 1_555 1_555
H16A C16A 1_555 1_555
H17A C16A 1_555 1_555
C17A C8A 1_555 1_555
H18A C17A 1_555 1_555
C18A N1A 1_555 1_555
C5 C6 1_555 1_555
C6 C7 1_555 1_555
C10 C11 1_555 1_555
C11 C18 1_555 1_555
C17 C18 1_555 1_555
O2F C7F 1_555 1_555
C5F C6F 1_555 1_555
C6F C7F 1_555 1_555
C11A C18A 1_555 1_555
C15A C16A 1_555 1_555
C17A C18A 1_555 1_555

#END
