
#######################################################################
#
#                 Cambridge Crystallographic Data Centre
#                                CCDC 
#
#######################################################################
#
# If this CIF has been generated from an entry in the Cambridge 
# Structural Database, then it will include bibliographic, chemical, 
# crystal, experimental, refinement or atomic coordinate data resulting 
# from the CCDC's data processing and validation procedures.
#
#######################################################################

data_RUZGUP
_symmetry_cell_setting           monoclinic
_symmetry_space_group_name_H-M   'C 2/c'
_symmetry_Int_Tables_number      15
_space_group_name_Hall           '-C 2yn'
loop_
_symmetry_equiv_pos_site_id
_symmetry_equiv_pos_as_xyz
1 x,y,z
2 -x,y,1/2-z
3 1/2+x,1/2+y,z
4 1/2-x,1/2+y,1/2-z
5 -x,-y,-z
6 x,-y,1/2+z
7 1/2-x,1/2-y,-z
8 1/2+x,1/2-y,1/2+z
_cell_length_a                   19.3832(15)
_cell_length_b                   15.8228(8)
_cell_length_c                   18.203(2)
_cell_angle_alpha                90
_cell_angle_beta                 117.639(11)
_cell_angle_gamma                90
_cell_volume                     4945.73
loop_
_atom_site_label
_atom_site_type_symbol
_atom_site_fract_x
_atom_site_fract_y
_atom_site_fract_z
Zn1 Zn 0.260675(17) 0.08195(2) 0.012021(18)
C1 C 0.12193(15) 0.1246(2) -0.11912(16)
C2 C 0.05975(14) 0.17882(18) -0.18423(15)
C3 C 0.05937(14) 0.26654(17) -0.18337(15)
C4 C 0.11656(15) 0.31588(18) -0.10790(17)
C5 C 0.0000 0.3095(3) -0.2500
H1 H 0.0000 0.3682 -0.2500
C6 C 0.0000 0.1369(2) -0.2500
H2 H 0.0000 0.0781 -0.2500
C7 C 0.39038(15) -0.03284(18) 0.02671(17)
C8 C 0.43171(18) -0.0300(2) 0.11247(18)
H3 H 0.4128 -0.0009 0.1438
C9 C 0.5013(2) -0.0715(2) 0.1489(2)
H4 H 0.5303 -0.0708 0.2063
C10 C 0.52969(19) -0.1147(2) 0.1024(2)
H5 H 0.5775 -0.1419 0.1296
C11 C 0.48999(18) -0.1185(2) 0.0184(2)
H6 H 0.5093 -0.1476 -0.0126
C12 C 0.41917(15) -0.07684(18) -0.01857(17)
C13 C 0.30708(15) -0.01671(18) -0.10314(17)
C14 C 0.24037(17) 0.01131(19) -0.18165(17)
H7 H 0.1952 0.0194 -0.1727
H8 H 0.2279 -0.0325 -0.2232
C15 C 0.2577(2) 0.0931(2) -0.2136(2)
H9 H 0.2132 0.1091 -0.2644
H10 H 0.3017 0.0851 -0.2236
H11 H 0.2691 0.1369 -0.1731
C16 C 0.36865(19) -0.10780(19) -0.17143(19)
H12 H 0.4226 -0.1185 -0.1574
H13 H 0.3471 -0.0702 -0.2189
C17 C 0.32455(19) -0.1897(2) -0.19433(18)
H14 H 0.2699 -0.1782 -0.2123
H15 H 0.3288 -0.2144 -0.2408
C18 C 0.41804(17) -0.29502(19) -0.11767(18)
H16 H 0.4601 -0.2562 -0.1079
H17 H 0.4066 -0.3275 -0.1672
C19 C 0.44136(17) -0.3528(2) -0.04518(18)
H18 H 0.4936 -0.3735 -0.0290
H19 H 0.4430 -0.3207 0.0010
C20 C 0.39663(15) -0.5003(2) -0.09523(17)
C21 C 0.44488(18) -0.5242(2) -0.12915(19)
H20 H 0.4818 -0.4875 -0.1304
C22 C 0.43543(19) -0.6044(2) -0.1606(2)
H21 H 0.4653 -0.6220 -0.1857
C23 C 0.38208(19) -0.6603(2) -0.15585(19)
H22 H 0.3785 -0.7150 -0.1761
C24 C 0.33480(17) -0.6369(2) -0.12218(17)
H23 H 0.2996 -0.6747 -0.1188
C25 C 0.34122(15) -0.55485(19) -0.09334(16)
C26 C 0.33032(17) -0.43534(19) -0.04084(16)
C27 C 0.3009(2) -0.3659(2) -0.00699(19)
H24 H 0.2477 -0.3792 -0.0195
H25 H 0.2995 -0.3142 -0.0363
C28 C 0.3468(3) -0.3485(3) 0.0857(3)
H26 H 0.3228 -0.3030 0.1004
H27 H 0.3993 -0.3333 0.0992
H28 H 0.3473 -0.3984 0.1160
N1 N 0.36534(13) -0.06623(15) -0.10123(13)
N2 N 0.31962(12) 0.00460(14) -0.02752(13)
N3 N 0.38951(13) -0.42524(16) -0.06071(14)
N4 N 0.29977(13) -0.51212(15) -0.05937(13)
O1 O 0.18705(10) 0.15868(12) -0.07226(11)
O2 O 0.10784(12) 0.04864(14) -0.11662(12)
O3 O 0.10803(11) 0.31328(13) -0.04594(12)
O4 O 0.16768(10) 0.36028(12) -0.11659(10)
O5 O 0.35129(11) -0.24962(13) -0.12836(12)
Zn1F Zn 0.239325(17) -0.58195(2) -0.012021(18)
Zn1F_2 Zn 0.239325(17) 0.41805(2) -0.012021(18)
Zn1A Zn -0.260675(17) 0.08195(2) -0.512021(18)
Zn1G Zn -0.239325(17) 0.41805(2) -0.487979(18)
Zn1G_2 Zn -0.239325(17) -0.58195(2) -0.487979(18)
C1A C -0.12193(15) 0.1246(2) -0.38088(16)
C2A C -0.05975(14) 0.17882(18) -0.31577(15)
C3A C -0.05937(14) 0.26654(17) -0.31663(15)
C4A C -0.11656(15) 0.31588(18) -0.39210(17)
C7A C -0.39038(15) -0.03284(18) -0.52671(17)
C8A C -0.43171(18) -0.0300(2) -0.61247(18)
H3A H -0.4128 -0.0009 -0.6438
C9A C -0.5013(2) -0.0715(2) -0.6489(2)
H4A H -0.5303 -0.0708 -0.7063
C10A C -0.52969(19) -0.1147(2) -0.6024(2)
H5A H -0.5775 -0.1419 -0.6296
C11A C -0.48999(18) -0.1185(2) -0.5184(2)
H6A H -0.5093 -0.1476 -0.4874
C12A C -0.41917(15) -0.07684(18) -0.48143(17)
C13A C -0.30708(15) -0.01671(18) -0.39686(17)
C14A C -0.24037(17) 0.01131(19) -0.31835(17)
H7A H -0.1952 0.0194 -0.3273
H8A H -0.2279 -0.0325 -0.2768
C15A C -0.2577(2) 0.0931(2) -0.2864(2)
H9A H -0.2132 0.1091 -0.2356
H10A H -0.3017 0.0851 -0.2764
H11A H -0.2691 0.1369 -0.3269
C16A C -0.36865(19) -0.10780(19) -0.32857(19)
H12A H -0.4226 -0.1185 -0.3426
H13A H -0.3471 -0.0702 -0.2811
C17A C -0.32455(19) -0.1897(2) -0.30567(18)
H14A H -0.2699 -0.1782 -0.2877
H15A H -0.3288 -0.2144 -0.2592
C18A C -0.41804(17) -0.29502(19) -0.38233(18)
H16A H -0.4601 -0.2562 -0.3921
H17A H -0.4066 -0.3275 -0.3328
C19A C -0.44136(17) -0.3528(2) -0.45482(18)
H18A H -0.4936 -0.3735 -0.4710
H19A H -0.4430 -0.3207 -0.5010
C20A C -0.39663(15) -0.5003(2) -0.40477(17)
C21A C -0.44488(18) -0.5242(2) -0.37085(19)
H20A H -0.4818 -0.4875 -0.3696
C22A C -0.43543(19) -0.6044(2) -0.3394(2)
H21A H -0.4653 -0.6220 -0.3143
C23A C -0.38208(19) -0.6603(2) -0.34415(19)
H22A H -0.3785 -0.7150 -0.3239
C24A C -0.33480(17) -0.6369(2) -0.37782(17)
H23A H -0.2996 -0.6747 -0.3812
C25A C -0.34122(15) -0.55485(19) -0.40666(16)
C26A C -0.33032(17) -0.43534(19) -0.45916(16)
C27A C -0.3009(2) -0.3659(2) -0.49301(19)
H24A H -0.2477 -0.3792 -0.4805
H25A H -0.2995 -0.3142 -0.4637
C28A C -0.3468(3) -0.3485(3) -0.5857(3)
H26A H -0.3228 -0.3030 -0.6004
H27A H -0.3993 -0.3333 -0.5992
H28A H -0.3473 -0.3984 -0.6160
N1A N -0.36534(13) -0.06623(15) -0.39877(13)
N2A N -0.31962(12) 0.00460(14) -0.47248(13)
N3A N -0.38951(13) -0.42524(16) -0.43929(14)
N4F N 0.20023(13) 0.01212(15) 0.05937(13)
N4G N -0.20023(13) 0.01212(15) -0.55937(13)
N4A N -0.29977(13) -0.51212(15) -0.44063(13)
O1A O -0.18705(10) 0.15868(12) -0.42774(11)
O2A O -0.10784(12) 0.04864(14) -0.38338(12)
O3A O -0.10803(11) 0.31328(13) -0.45406(12)
O4A O -0.16768(10) 0.36028(12) -0.38341(10)
O4F O 0.33232(10) 0.13972(12) 0.11659(10)
O4G O -0.33232(10) 0.13972(12) -0.61659(10)
O5A O -0.35129(11) -0.24962(13) -0.37164(12)
loop_
_geom_bond_atom_site_label_1
_geom_bond_atom_site_label_2
_geom_bond_site_symmetry_1
_geom_bond_site_symmetry_2
Zn1 N2 1_555 1_555
C1 C2 1_555 1_555
C2 C3 1_555 1_555
C3 C4 1_555 1_555
C4 O3 1_555 1_555
C5 C3 1_555 1_555
H1 C5 1_555 1_555
C6 C2 1_555 1_555
H2 C6 1_555 1_555
C7 C8 1_555 1_555
C8 H3 1_555 1_555
C9 C8 1_555 1_555
H4 C9 1_555 1_555
C10 C9 1_555 1_555
H5 C10 1_555 1_555
C11 C10 1_555 1_555
H6 C11 1_555 1_555
C12 C7 1_555 1_555
C13 C14 1_555 1_555
C14 H7 1_555 1_555
H8 C14 1_555 1_555
C15 C14 1_555 1_555
H9 C15 1_555 1_555
H10 C15 1_555 1_555
H11 C15 1_555 1_555
C16 H12 1_555 1_555
H13 C16 1_555 1_555
C17 C16 1_555 1_555
H14 C17 1_555 1_555
H15 C17 1_555 1_555
C18 H16 1_555 1_555
H17 C18 1_555 1_555
C19 C18 1_555 1_555
H18 C19 1_555 1_555
H19 C19 1_555 1_555
C20 C21 1_555 1_555
C21 H20 1_555 1_555
C22 C21 1_555 1_555
H21 C22 1_555 1_555
C23 C22 1_555 1_555
H22 C23 1_555 1_555
C24 C23 1_555 1_555
H23 C24 1_555 1_555
C25 C20 1_555 1_555
C26 C27 1_555 1_555
C27 H24 1_555 1_555
H25 C27 1_555 1_555
C28 C27 1_555 1_555
H26 C28 1_555 1_555
H27 C28 1_555 1_555
H28 C28 1_555 1_555
N1 C12 1_555 1_555
N2 C7 1_555 1_555
N3 C19 1_555 1_555
N4 C25 1_555 1_555
O1 Zn1 1_555 1_555
O2 C1 1_555 1_555
O4 C4 1_555 1_555
O5 C17 1_555 1_555
Zn1F N4 1_555 1_555
Zn1F_2 O4 1_555 1_555
Zn1A N2A 1_555 1_555
Zn1G O4A 1_555 1_555
Zn1G_2 N4A 1_555 1_555
C1A C2A 1_555 1_555
C2A C6 1_555 1_555
C3A C5 1_555 1_555
C4A C3A 1_555 1_555
C7A C8A 1_555 1_555
C8A H3A 1_555 1_555
C9A C8A 1_555 1_555
H4A C9A 1_555 1_555
C10A C9A 1_555 1_555
H5A C10A 1_555 1_555
C11A C10A 1_555 1_555
H6A C11A 1_555 1_555
C12A C7A 1_555 1_555
C13A C14A 1_555 1_555
C14A H7A 1_555 1_555
H8A C14A 1_555 1_555
C15A C14A 1_555 1_555
H9A C15A 1_555 1_555
H10A C15A 1_555 1_555
H11A C15A 1_555 1_555
C16A H12A 1_555 1_555
H13A C16A 1_555 1_555
C17A C16A 1_555 1_555
H14A C17A 1_555 1_555
H15A C17A 1_555 1_555
C18A H16A 1_555 1_555
H17A C18A 1_555 1_555
C19A C18A 1_555 1_555
H18A C19A 1_555 1_555
H19A C19A 1_555 1_555
C20A C21A 1_555 1_555
C21A H20A 1_555 1_555
C22A C21A 1_555 1_555
H21A C22A 1_555 1_555
C23A C22A 1_555 1_555
H22A C23A 1_555 1_555
C24A C23A 1_555 1_555
H23A C24A 1_555 1_555
C25A C20A 1_555 1_555
C26A C27A 1_555 1_555
C27A H24A 1_555 1_555
H25A C27A 1_555 1_555
C28A C27A 1_555 1_555
H26A C28A 1_555 1_555
H27A C28A 1_555 1_555
H28A C28A 1_555 1_555
N1A C12A 1_555 1_555
N2A C7A 1_555 1_555
N3A C19A 1_555 1_555
N4F Zn1 1_555 1_555
N4G Zn1A 1_555 1_555
N4A C25A 1_555 1_555
O1A Zn1A 1_555 1_555
O2A C1A 1_555 1_555
O3A C4A 1_555 1_555
O4A C4A 1_555 1_555
O4F Zn1 1_555 1_555
O4G Zn1A 1_555 1_555
O5A C17A 1_555 1_555
C1 O1 1_555 1_555
C11 C12 1_555 1_555
C13 N1 1_555 1_555
C13 N2 1_555 1_555
C16 N1 1_555 1_555
C18 O5 1_555 1_555
C20 N3 1_555 1_555
C24 C25 1_555 1_555
C26 N3 1_555 1_555
C26 N4 1_555 1_555
C1A O1A 1_555 1_555
C2A C3A 1_555 1_555
C11A C12A 1_555 1_555
C13A N1A 1_555 1_555
C13A N2A 1_555 1_555
C16A N1A 1_555 1_555
C18A O5A 1_555 1_555
C20A N3A 1_555 1_555
C24A C25A 1_555 1_555
C26A N3A 1_555 1_555
C26A N4A 1_555 1_555

#END
