
#######################################################################
#
#                 Cambridge Crystallographic Data Centre
#                                CCDC 
#
#######################################################################
#
# If this CIF has been generated from an entry in the Cambridge 
# Structural Database, then it will include bibliographic, chemical, 
# crystal, experimental, refinement or atomic coordinate data resulting 
# from the CCDC's data processing and validation procedures.
#
#######################################################################

data_RUZLII
_symmetry_cell_setting           orthorhombic
_symmetry_space_group_name_H-M   'P b c n'
_symmetry_Int_Tables_number      60
_space_group_name_Hall           '-P 2n 2ab'
loop_
_symmetry_equiv_pos_site_id
_symmetry_equiv_pos_as_xyz
1 x,y,z
2 1/2-x,1/2-y,1/2+z
3 -x,y,1/2-z
4 1/2+x,1/2-y,-z
5 -x,-y,-z
6 1/2+x,1/2+y,1/2-z
7 x,-y,1/2+z
8 1/2-x,1/2+y,z
_cell_length_a                   15.598(3)
_cell_length_b                   13.943(3)
_cell_length_c                   21.272(4)
_cell_angle_alpha                90
_cell_angle_beta                 90
_cell_angle_gamma                90
_cell_volume                     4626.3
loop_
_atom_site_label
_atom_site_type_symbol
_atom_site_fract_x
_atom_site_fract_y
_atom_site_fract_z
Zn1 Zn 0.15604(3) 0.88157(3) 0.10665(2)
N1 N 0.1379(2) 0.9818(2) 0.17935(15)
O1 O 0.1578(2) 0.7726(2) 0.04311(14)
O2 O 0.3227(2) 0.4777(2) 0.03462(13)
N2 N 0.1326(2) 0.7929(2) 0.18499(15)
O3 O 0.2914(2) 0.8713(2) 0.12834(17)
O4 O 0.0220(2) 0.8916(2) 0.08688(16)
C1 C 0.1152(3) 0.8390(3) 0.23855(17)
C2 C 0.1176(3) 0.9451(3) 0.23525(18)
O5 O 0.2950(2) 0.7407(3) 0.03690(19)
O6 O 0.1948(2) 0.5313(2) 0.05844(17)
C3 C 0.2132(4) 0.7245(3) -0.0981(2)
H1 H 0.1706 0.7750 -0.1009
H2 H 0.2695 0.7540 -0.0982
C4 C 0.2007(3) 0.6690(3) -0.03764(19)
H3 H 0.1405 0.6493 -0.0352
C5 C 0.1006(3) 1.0033(3) 0.2859(2)
H4 H 0.0864 0.9768 0.3247
C6 C 0.2201(3) 0.7322(3) 0.0188(2)
C7 C 0.1347(3) 0.6981(3) 0.1842(2)
H5 H 0.1481 0.6667 0.1469
C8 C 0.2050(4) 0.6602(4) -0.1528(2)
H6 H 0.1974 0.6881 -0.1921
C9 C 0.2563(3) 0.5783(3) -0.03939(19)
H7 H 0.3152 0.5966 -0.0502
C10 C 0.2573(3) 0.5257(3) 0.02280(19)
C11 C 0.2078(3) 0.5662(3) -0.1499(2)
H8 H 0.2007 0.5317 -0.1869
C12 C 0.2216(3) 0.5120(3) -0.0908(2)
H9 H 0.2621 0.4604 -0.0983
H10 H 0.1679 0.4839 -0.0772
C13 C 0.1173(4) 0.6442(4) 0.2378(3)
H11 H 0.1185 0.5775 0.2364
C14 C 0.0957(3) 0.7883(4) 0.2934(2)
H12 H 0.0811 0.8205 0.3301
C15 C 0.1273(4) 1.1393(4) 0.2218(3)
H13 H 0.1324 1.2053 0.2164
C16 C 0.1049(4) 1.1020(4) 0.2785(2)
H14 H 0.0925 1.1423 0.3121
C17 C 0.0986(4) 0.6902(4) 0.2918(2)
H15 H 0.0877 0.6552 0.3281
C18 C 0.1422(3) 1.0779(3) 0.1732(2)
H16 H 0.1559 1.1034 0.1341
H17 H 0.053(7) 0.857(7) 0.067(5)
H18 H 0.063(5) 0.923(7) 0.077(6)
H19 H 0.309(8) 0.832(6) 0.104(4)
H20 H 0.293(8) 0.9287(11) 0.125(6)
Zn1G Zn 0.34396(3) 0.38157(3) 0.10665(2)
O2G O 0.1773(2) 0.9777(2) 0.03462(13)
O7 O 0.0582(3) 0.9379(3) -0.06264(16)
H21 H 0.045(8) 0.979(7) -0.038(5)
H22 H 0.066(9) 0.895(6) -0.038(5)
O8 O 0.4803(5) 1.0659(7) 0.0491(5)
H23 H 0.471(9) 1.019(6) 0.070(6)
H24 H 0.506(9) 1.090(10) 0.078(5)
O9 O 0.4615(5) 0.7295(7) 0.0035(6)
H25 H 0.453(12) 0.758(11) -0.029(4)
H26 H 0.458(10) 0.733(12) 0.0411(9)
loop_
_geom_bond_atom_site_label_1
_geom_bond_atom_site_label_2
_geom_bond_site_symmetry_1
_geom_bond_site_symmetry_2
Zn1 N1 1_555 1_555
N1 C2 1_555 1_555
O1 Zn1 1_555 1_555
O2 C10 1_555 1_555
N2 Zn1 1_555 1_555
O3 Zn1 1_555 1_555
O4 Zn1 1_555 1_555
C1 N2 1_555 1_555
C2 C1 1_555 1_555
O5 C6 1_555 1_555
O6 C10 1_555 1_555
C3 H1 1_555 1_555
H2 C3 1_555 1_555
C4 C3 1_555 1_555
H3 C4 1_555 1_555
C5 C2 1_555 1_555
H4 C5 1_555 1_555
C6 O1 1_555 1_555
C7 N2 1_555 1_555
H5 C7 1_555 1_555
C8 C3 1_555 1_555
H6 C8 1_555 1_555
C9 C4 1_555 1_555
H7 C9 1_555 1_555
C10 C9 1_555 1_555
C11 C8 1_555 1_555
H8 C11 1_555 1_555
C12 C9 1_555 1_555
H9 C12 1_555 1_555
H10 C12 1_555 1_555
C13 C7 1_555 1_555
H11 C13 1_555 1_555
C14 C1 1_555 1_555
H12 C14 1_555 1_555
C15 H13 1_555 1_555
C16 C5 1_555 1_555
H14 C16 1_555 1_555
C17 C13 1_555 1_555
H15 C17 1_555 1_555
C18 N1 1_555 1_555
H16 C18 1_555 1_555
H17 O4 1_555 1_555
H18 O4 1_555 1_555
H19 O3 1_555 1_555
H20 O3 1_555 1_555
O7 H21 1_555 1_555
H22 O7 1_555 1_555
O8 H23 1_555 1_555
H24 O8 1_555 1_555
O9 H25 1_555 1_555
H26 O9 1_555 1_555
Zn1G O2 1_555 1_555
O2G Zn1 1_555 1_555
C4 C6 1_555 1_555
C11 C12 1_555 1_555
C14 C17 1_555 1_555
C15 C16 1_555 1_555
C15 C18 1_555 1_555

#END
