
#######################################################################
#
#                 Cambridge Crystallographic Data Centre
#                                CCDC 
#
#######################################################################
#
# If this CIF has been generated from an entry in the Cambridge 
# Structural Database, then it will include bibliographic, chemical, 
# crystal, experimental, refinement or atomic coordinate data resulting 
# from the CCDC's data processing and validation procedures.
#
#######################################################################

data_SABVOH
_symmetry_cell_setting           orthorhombic
_symmetry_space_group_name_H-M   'P n m a'
_symmetry_Int_Tables_number      62
_space_group_name_Hall           '-P 2ac 2n'
loop_
_symmetry_equiv_pos_site_id
_symmetry_equiv_pos_as_xyz
1 x,y,z
2 1/2-x,-y,1/2+z
3 1/2+x,1/2-y,1/2-z
4 -x,1/2+y,-z
5 -x,-y,-z
6 1/2+x,y,1/2-z
7 1/2-x,1/2+y,1/2+z
8 x,1/2-y,z
_cell_length_a                   17.129(2)
_cell_length_b                   6.6284(6)
_cell_length_c                   12.1816(8)
_cell_angle_alpha                90
_cell_angle_beta                 90
_cell_angle_gamma                90
_cell_volume                     1383.07
loop_
_atom_site_label
_atom_site_type_symbol
_atom_site_fract_x
_atom_site_fract_y
_atom_site_fract_z
C7 C 0.014(3) -0.250 0.309(2)
C14 C -0.003(4) -0.157(7) 0.397(3)
C14G C -0.003(4) -0.343(7) 0.397(3)
C8 C 0.140(3) -0.04(1) -0.473(4)
C9 C 0.138(3) -0.250 -0.553(4)
C10 C 0.131(2) 0.137(3) -0.541(2)
C8G C 0.140(3) -0.46(1) -0.473(4)
C10G C 0.131(2) 0.363(3) -0.541(2)
C10G_2 C 0.131(2) -0.637(3) -0.541(2)
C8G_2 C 0.140(3) 0.54(1) -0.473(4)
C11 C -0.025(2) -0.250 -0.265(2)
C12 C -0.046(1) -0.382(4) -0.374(2)
C12G C -0.046(1) -0.118(4) -0.374(2)
Al1 Al 0.0000 0.000 0.000
O1 O 0.000(2) -0.250 -0.071(1)
O2 O 0.0867(9) -0.083(2) 0.088(1)
O3 O 0.4350(9) -0.083(2) 0.390(1)
C1 C 0.398(2) -0.250 0.370(3)
C2 C 0.123(2) -0.250 0.111(3)
C3 C 0.335(2) -0.250 0.293(3)
C4 C 0.185(1) -0.250 0.194(2)
C5 C 0.2312(9) -0.072(2) 0.198(2)
C6 C 0.303(1) -0.074(2) 0.258(2)
O3G O 0.4350(9) -0.417(2) 0.390(1)
O2G O 0.0867(9) -0.417(2) 0.088(1)
C6G C 0.303(1) -0.426(2) 0.258(2)
C5G C 0.2312(9) -0.428(2) 0.198(2)
O1C O 0.000(2) 0.250 0.071(1)
O2D O -0.0867(9) 0.083(2) -0.088(1)
O3A O 0.0650(9) 0.083(2) -0.110(1)
O3E O -0.0650(9) -0.083(2) 0.110(1)
Al1C Al 0.0000 -0.500 0.000
Al1A Al 0.5000 0.000 0.500
Al1B Al 0.5000 -0.500 0.500
C13? C 0.085(2) -0.063(5) 0.403(2)
loop_
_geom_bond_atom_site_label_1
_geom_bond_atom_site_label_2
_geom_bond_site_symmetry_1
_geom_bond_site_symmetry_2
Al1 O1 1_555 1_555
O1 Al1C 1_555 1_555
O2 Al1 1_555 1_555
O3 C1 1_555 1_555
C1 C3 1_555 1_555
C2 O2 1_555 1_555
C3 C6 1_555 1_555
C4 C2 1_555 1_555
C5 C4 1_555 1_555
C6 C5 1_555 1_555
C7 C14 1_555 1_555
C8 C9 1_555 1_555
C9 C8G 1_555 1_555
C10 C8 1_555 1_555
C11 C12 1_555 1_555
C12 C12G 1_555 1_555
C14 C14G 1_555 1_555
O3G C1 1_555 1_555
O2G C2 1_555 1_555
C6G C3 1_555 1_555
C5G C4 1_555 1_555
C14G C7 1_555 1_555
C8G C10G_2 1_555 1_555
C10G C10 1_555 1_555
C12G C11 1_555 1_555
O1C Al1 1_555 1_555
O2D Al1 1_555 1_555
O3A Al1 1_555 1_555
O3E Al1 1_555 1_555
Al1C O2G 1_555 1_555
Al1A O3 1_555 1_555
Al1B O3G 1_555 1_555
C8G_2 C10G 1_555 1_555
C6G C5G 1_555 1_555

#END
