
#######################################################################
#
#                 Cambridge Crystallographic Data Centre
#                                CCDC 
#
#######################################################################
#
# If this CIF has been generated from an entry in the Cambridge 
# Structural Database, then it will include bibliographic, chemical, 
# crystal, experimental, refinement or atomic coordinate data resulting 
# from the CCDC's data processing and validation procedures.
#
#######################################################################

data_SABWAU01
_symmetry_cell_setting           monoclinic
_symmetry_space_group_name_H-M   'P 21/c'
_symmetry_Int_Tables_number      14
_space_group_name_Hall           '-P 2ybc'
loop_
_symmetry_equiv_pos_site_id
_symmetry_equiv_pos_as_xyz
1 x,y,z
2 -x,1/2+y,1/2-z
3 -x,-y,-z
4 x,1/2-y,1/2+z
_cell_length_a                   19.50417(25)
_cell_length_b                   15.20143(13)
_cell_length_c                   6.56931(9)
_cell_angle_alpha                90
_cell_angle_beta                 104.1797(13)
_cell_angle_gamma                90
_cell_volume                     1888.4
loop_
_atom_site_label
_atom_site_type_symbol
_atom_site_fract_x
_atom_site_fract_y
_atom_site_fract_z
Al1 Al 0.5003(5) 0.2437(7) 0.5108(15)
Al2 Al 0.0000 0.50000 0.0000
Al3 Al 0.0000 0.50000 0.5000
O1 O 0.4999(10) 0.3025(12) 0.2651(26)
O2 O -0.0044(10) 0.5521(12) 0.2384(20)
O3 O 0.9159(7) 0.0696(5) 0.8722(21)
O4 O 0.9355(7) 0.0890(5) 0.5493(21)
O5 O 0.5573(7) 0.1589(5) 0.4451(21)
O6 O 0.5825(8) 0.1848(5) 0.1410(20)
C1 C 0.8198(6) 0.10662(25) 0.5895(22)
C2 C 0.7727(7) 0.10664(26) 0.7154(22)
C3 C 0.7007(6) 0.12479(27) 0.6281(23)
C4 C 0.6757(6) 0.14239(25) 0.4176(22)
C5 C 0.7230(7) 0.14221(27) 0.2936(22)
C6 C 0.7948(6) 0.12424(27) 0.3811(23)
C7 C 0.8954(5) 0.08731(22) 0.6750(20)
C8 C 0.6009(5) 0.16242(24) 0.3301(19)
H1 H 0.7895(10) 0.09399(33) 0.8651(27)
H2 H 0.6672(9) 0.1251(4) 0.7186(30)
H3 H 0.7062(10) 0.15493(33) 0.1444(26)
H4 H 0.8283(9) 0.1239(4) 0.2914(31)
O7 O 0.4141(8) 0.3064(5) 0.8665(19)
O8 O 0.4424(7) 0.3466(5) 0.5672(20)
O9 O 0.0632(6) 0.4169(4) 0.4568(20)
O10 O 0.0861(7) 0.4297(4) 0.1401(19)
C9 C 0.3237(6) 0.3571(4) 0.5896(21)
C10 C 0.2750(7) 0.3444(4) 0.7067(21)
C11 C 0.2028(7) 0.3636(4) 0.6220(20)
C12 C 0.1799(6) 0.39517(32) 0.4214(19)
C13 C 0.2287(7) 0.4083(4) 0.3019(20)
C14 C 0.3010(7) 0.3890(4) 0.3875(22)
C15 C 0.3985(6) 0.33603(31) 0.6785(18)
C16 C 0.1048(5) 0.41529(23) 0.3356(17)
H5 H 0.2908(10) 0.3217(4) 0.8491(25)
H6 H 0.1681(9) 0.3545(5) 0.7066(28)
H7 H 0.2127(11) 0.4310(4) 0.1592(24)
H8 H 0.3361(10) 0.3979(5) 0.3033(29)
H9 H 0.495(9) 0.3606(17) 0.279(11)
H10 H -0.007(9) 0.6102(17) 0.245(10)
Al1B Al -0.5003(5) 0.7563(7) -0.5108(15)
O1B O -0.4999(10) 0.6975(12) -0.2651(26)
O2B O 0.0044(10) 0.4479(12) -0.2384(20)
O3B O -0.9159(7) 0.9304(5) -0.8722(21)
O4B O -0.9355(7) 0.9110(5) -0.5493(21)
O5B O -0.5573(7) 0.8411(5) -0.4451(21)
O6B O -0.5825(8) 0.8152(5) -0.1410(20)
C1B C -0.8198(6) 0.89338(25) -0.5895(22)
C2B C -0.7727(7) 0.89336(26) -0.7154(22)
C3B C -0.7007(6) 0.87521(27) -0.6281(23)
C4B C -0.6757(6) 0.85761(25) -0.4176(22)
C5B C -0.7230(7) 0.85779(27) -0.2936(22)
C6B C -0.7948(6) 0.87576(27) -0.3811(23)
C7B C -0.8954(5) 0.91269(22) -0.6750(20)
C8B C -0.6009(5) 0.83758(24) -0.3301(19)
H1B H -0.7895(10) 0.90601(33) -0.8651(27)
H2B H -0.6672(9) 0.8749(4) -0.7186(30)
H3B H -0.7062(10) 0.84507(33) -0.1444(26)
H4B H -0.8283(9) 0.8761(4) -0.2914(31)
O7B O -0.4141(8) 0.6936(5) -0.8665(19)
O8B O -0.4424(7) 0.6534(5) -0.5672(20)
O9B O -0.0632(6) 0.5831(4) -0.4568(20)
O10B O -0.0861(7) 0.5703(4) -0.1401(19)
C9B C -0.3237(6) 0.6429(4) -0.5896(21)
C10B C -0.2750(7) 0.6556(4) -0.7067(21)
C11B C -0.2028(7) 0.6364(4) -0.6220(20)
C12B C -0.1799(6) 0.60483(32) -0.4214(19)
C13B C -0.2287(7) 0.5917(4) -0.3019(20)
C14B C -0.3010(7) 0.6110(4) -0.3875(22)
C15B C -0.3985(6) 0.66397(31) -0.6785(18)
C16B C -0.1048(5) 0.58471(23) -0.3356(17)
H5B H -0.2908(10) 0.6783(4) -0.8491(25)
H6B H -0.1681(9) 0.6455(5) -0.7066(28)
H7B H -0.2127(11) 0.5690(4) -0.1592(24)
H8B H -0.3361(10) 0.6021(5) -0.3033(29)
H9B H -0.495(9) 0.6394(17) -0.279(11)
H10B H 0.007(9) 0.3898(17) -0.245(10)
Al1A Al -0.5003(5) 0.7437(7) -1.0108(15)
Al1A_2 Al -0.5003(5) 0.7437(7) -0.0108(15)
Al1C Al 0.5003(5) 0.2563(7) 0.0108(15)
Al1C_2 Al 0.5003(5) 0.2563(7) 1.0108(15)
Al2A Al -1.0000 1.00000 -0.5000
Al2A_2 Al 1.0000 0.00000 0.5000
Al3_2 Al 0.0000 0.50000 -0.5000
Al3A Al -1.0000 1.00000 -1.0000
Al3A_2 Al 1.0000 0.00000 1.0000
O1A O -0.4999(10) 0.8025(12) -0.7651(26)
O1C O 0.4999(10) 0.1975(12) 0.7651(26)
O2B_2 O 0.0044(10) 0.4479(12) 0.7616(20)
O3A O 0.0841(7) 0.5696(5) 0.6278(21)
O3C O -0.0841(7) 0.4304(5) 0.3722(21)
O4A O 0.0645(7) 0.5890(5) -0.0493(21)
O4C O -0.0645(7) 0.4110(5) 0.0493(21)
O6A O -0.5825(8) 0.6848(5) -0.6410(20)
O6C O 0.5825(8) 0.3152(5) 0.6410(20)
O7A O -0.4141(8) 0.8064(5) -0.3665(19)
O7C O 0.4141(8) 0.1936(5) 0.3665(19)
O9B_2 O -0.0632(6) 0.5831(4) 0.5432(20)
O11 O 0.5272(7) 0.4790(10) 0.2436(23)
H11 H 0.535(6) 0.524(5) 0.360(11)
H12 H 0.572(4) 0.478(6) 0.197(18)
O12 O 0.0162(8) 0.7394(9) 0.1458(18)
H13 H 0.053(5) 0.748(6) 0.279(11)
H14 H -0.007(5) 0.7992(30) 0.111(18)
loop_
_geom_bond_atom_site_label_1
_geom_bond_atom_site_label_2
_geom_bond_site_symmetry_1
_geom_bond_site_symmetry_2
Al1 O1 1_555 1_555
Al2 O2 1_555 1_555
Al3 O2 1_555 1_555
O1 H9 1_555 1_555
O2 H10 1_555 1_555
O3 C7 1_555 1_555
O4 C7 1_555 1_555
O5 Al1 1_555 1_555
O6 C8 1_555 1_555
C1 C2 1_555 1_555
C2 C3 1_555 1_555
C3 C4 1_555 1_555
C4 C5 1_555 1_555
C5 C6 1_555 1_555
C6 C1 1_555 1_555
C7 C1 1_555 1_555
C8 O5 1_555 1_555
H1 C2 1_555 1_555
H2 C3 1_555 1_555
H3 C5 1_555 1_555
H4 C6 1_555 1_555
O7 C15 1_555 1_555
O8 Al1 1_555 1_555
O9 Al3 1_555 1_555
O10 Al2 1_555 1_555
C9 C10 1_555 1_555
C10 C11 1_555 1_555
C11 C12 1_555 1_555
C12 C13 1_555 1_555
C13 C14 1_555 1_555
C14 C9 1_555 1_555
C15 O8 1_555 1_555
C16 O9 1_555 1_555
H5 C10 1_555 1_555
H6 C11 1_555 1_555
H7 C13 1_555 1_555
H8 C14 1_555 1_555
O11 H11 1_555 1_555
H12 O11 1_555 1_555
O12 H13 1_555 1_555
H14 O12 1_555 1_555
Al1B O1B 1_555 1_555
O1B H9B 1_555 1_555
O2B Al2 1_555 1_555
O3B C7B 1_555 1_555
O4B C7B 1_555 1_555
O5B Al1B 1_555 1_555
O6B C8B 1_555 1_555
C1B C2B 1_555 1_555
C2B C3B 1_555 1_555
C3B C4B 1_555 1_555
C4B C5B 1_555 1_555
C5B C6B 1_555 1_555
C6B C1B 1_555 1_555
C7B C1B 1_555 1_555
C8B O5B 1_555 1_555
H1B C2B 1_555 1_555
H2B C3B 1_555 1_555
H3B C5B 1_555 1_555
H4B C6B 1_555 1_555
O7B C15B 1_555 1_555
O8B Al1B 1_555 1_555
O9B C16B 1_555 1_555
O10B Al2 1_555 1_555
C9B C10B 1_555 1_555
C10B C11B 1_555 1_555
C11B C12B 1_555 1_555
C12B C13B 1_555 1_555
C13B C14B 1_555 1_555
C14B C9B 1_555 1_555
C15B O8B 1_555 1_555
C16B O10B 1_555 1_555
H5B C10B 1_555 1_555
H6B C11B 1_555 1_555
H7B C13B 1_555 1_555
H8B C14B 1_555 1_555
H10B O2B 1_555 1_555
Al1A O7B 1_555 1_555
Al1A_2 O1B 1_555 1_555
Al1C O1 1_555 1_555
Al1C_2 O7 1_555 1_555
Al2A O4B 1_555 1_555
Al2A_2 O4 1_555 1_555
Al3_2 O2B 1_555 1_555
Al3A O3B 1_555 1_555
Al3A_2 O3 1_555 1_555
O1A Al1B 1_555 1_555
O1C Al1 1_555 1_555
O2B_2 Al3 1_555 1_555
O3A Al3 1_555 1_555
O3C Al3 1_555 1_555
O4A Al2 1_555 1_555
O4C Al2 1_555 1_555
O6A Al1B 1_555 1_555
O6C Al1 1_555 1_555
O7A Al1B 1_555 1_555
O7C Al1 1_555 1_555
O9B_2 Al3 1_555 1_555
O6 Al1C 1_555 1_555
C4 C8 1_555 1_555
O10 C16 1_555 1_555
C9 C15 1_555 1_555
C12 C16 1_555 1_555
O6B Al1A_2 1_555 1_555
C4B C8B 1_555 1_555
O9B Al3_2 1_555 1_555
C9B C15B 1_555 1_555
C12B C16B 1_555 1_555
Al1A O1A 1_555 1_555
Al1C_2 O1C 1_555 1_555

#END
