
#######################################################################
#
#                 Cambridge Crystallographic Data Centre
#                                CCDC 
#
#######################################################################
#
# If this CIF has been generated from an entry in the Cambridge 
# Structural Database, then it will include bibliographic, chemical, 
# crystal, experimental, refinement or atomic coordinate data resulting 
# from the CCDC's data processing and validation procedures.
#
#######################################################################

data_SACCOQ
_symmetry_cell_setting           orthorhombic
_symmetry_space_group_name_H-M   'F d d 2'
_symmetry_Int_Tables_number      43
_space_group_name_Hall           'F 2 -2d'
loop_
_symmetry_equiv_pos_site_id
_symmetry_equiv_pos_as_xyz
1 x,y,z
2 -x,-y,z
3 1/4+x,1/4-y,1/4+z
4 1/4-x,1/4+y,1/4+z
5 x,1/2+y,1/2+z
6 -x,1/2-y,1/2+z
7 1/4+x,3/4-y,3/4+z
8 1/4-x,3/4+y,3/4+z
9 1/2+x,y,1/2+z
10 1/2-x,-y,1/2+z
11 3/4+x,1/4-y,3/4+z
12 3/4-x,1/4+y,3/4+z
13 1/2+x,1/2+y,z
14 1/2-x,1/2-y,z
15 3/4+x,3/4-y,1/4+z
16 3/4-x,3/4+y,1/4+z
_cell_length_a                   14.9500(2)
_cell_length_b                   35.3082(4)
_cell_length_c                   11.64710(10)
_cell_angle_alpha                90
_cell_angle_beta                 90
_cell_angle_gamma                90
_cell_volume                     6148.01
loop_
_atom_site_label
_atom_site_type_symbol
_atom_site_fract_x
_atom_site_fract_y
_atom_site_fract_z
N4 N 0.0000 0.5000 0.1915(5)
C12 C 0.0020(3) 0.53148(15) 0.2508(4)
H14 H 0.0023 0.5543 0.2108
C13 C 0.0036(3) 0.53290(10) 0.3670(4)
H15 H 0.0072 0.5562 0.4040
C14 C 0.0000 0.5000 0.4310(5)
C15 C 0.0000 0.5000 0.5621(6)
C16 C 0.005(2) 0.5394(4) 0.6091(18)
H16 H -0.0349 0.5555 0.5664
H17 H 0.0648 0.5487 0.6028
H18 H -0.0129 0.5392 0.6884
C17 C 0.0627(12) 0.4725(6) 0.6110(13)
H19 H 0.0891 0.4579 0.5504
H20 H -0.0313 0.5440 0.6625
H21 H 0.1088 0.4857 0.6522
C18 C -0.0965(8) 0.4849(9) 0.5940(10)
H22 H -0.1409 0.5017 0.5635
H23 H -0.1024 0.4836 0.6760
H24 H 0.1047 0.5399 0.5619
C12A C -0.0020(3) 0.46852(15) 0.2508(4)
H14A H -0.0023 0.4457 0.2108
C13A C -0.0036(3) 0.46710(10) 0.3670(4)
H15A H -0.0072 0.4438 0.4040
C16A C -0.005(2) 0.4606(4) 0.6091(18)
H16A H 0.0349 0.4445 0.5664
H17A H -0.0648 0.4513 0.6028
H18A H 0.0129 0.4608 0.6884
C17A C -0.0627(12) 0.5275(6) 0.6110(13)
H19A H -0.0891 0.5421 0.5504
H20A H 0.0313 0.4560 0.6625
H21A H -0.1088 0.5143 0.6522
C18A C 0.0965(8) 0.5151(9) 0.5940(10)
H22A H 0.1409 0.4983 0.5635
H23A H 0.1024 0.5164 0.6760
H24A H -0.1047 0.4601 0.5619
Cu1 Cu 0.02147(3) 0.143562(12) 0.68337(6)
C1 C 0.1126(2) 0.12838(8) 0.7863(3)
N1 N 0.1717(2) 0.12108(8) 0.8453(3)
N3 N 0.04255(19) 0.20156(7) 0.6558(3)
C3 C 0.0990(3) 0.22158(11) 0.7197(3)
H1 H 0.1363 0.2086 0.7700
C4 C 0.1054(3) 0.26052(11) 0.7156(4)
H2 H 0.1468 0.2728 0.7621
C5 C 0.0524(2) 0.28109(9) 0.6448(3)
C6 C -0.0054(3) 0.26062(10) 0.5760(4)
H3 H -0.0424 0.2731 0.5242
C7 C -0.0082(2) 0.22162(10) 0.5838(3)
H4 H -0.0477 0.2086 0.5362
C8 C 0.0558(4) 0.32450(10) 0.6426(4)
C9 C 0.0106(11) 0.3406(3) 0.5440(13)
H5 H -0.0528 0.3373 0.5522
H6 H 0.0305 0.3281 0.4754
H7 H 0.0241 0.3671 0.5389
C10 C 0.0203(11) 0.3385(3) 0.7582(12)
H8 H 0.0494 0.3618 0.7783
H9 H 0.0321 0.3198 0.8161
H10 H -0.0431 0.3426 0.7527
C11 C 0.1555(5) 0.3358(2) 0.6449(9)
H11 H 0.1839 0.3246 0.7106
H12 H 0.1605 0.3629 0.6492
H13 H 0.1843 0.3270 0.5762
Cu1B Cu 0.27147(3) 0.106438(12) 0.93337(6)
N1J N -0.0783(2) 0.12892(8) 0.5953(3)
N2? N -0.1374(2) 0.12162(8) 0.5363(3)
C2? C -0.0783(2) 0.12892(8) 0.5953(3)
C19? C 0.1085(15) 0.3470(5) 0.7231(17)
C20? C 0.0746(18) 0.3366(7) 0.5171(13)
C21? C -0.0447(10) 0.3378(6) 0.657(3)
H25? H 0.1704 0.3400 0.7172
H26? H 0.0878 0.3425 0.7999
H27? H 0.1020 0.3734 0.7051
H28? H 0.1338 0.3287 0.4957
H29? H 0.0700 0.3636 0.5107
H30? H 0.0317 0.3249 0.4670
H31? H -0.0460 0.3638 0.6803
H32? H -0.0735 0.3225 0.7143
H33? H -0.0755 0.3350 0.5852
loop_
_geom_bond_atom_site_label_1
_geom_bond_atom_site_label_2
_geom_bond_site_symmetry_1
_geom_bond_site_symmetry_2
Cu1 C1 1_555 1_555
C1 N1 1_555 1_555
N1 Cu1B 1_555 1_555
N3 Cu1 1_555 1_555
C3 N3 1_555 1_555
H1 C3 1_555 1_555
C4 C3 1_555 1_555
H2 C4 1_555 1_555
C5 C4 1_555 1_555
C6 C5 1_555 1_555
H3 C6 1_555 1_555
C7 N3 1_555 1_555
H4 C7 1_555 1_555
C8 C5 1_555 1_555
C9 C8 1_555 1_555
H5 C9 1_555 1_555
H6 C9 1_555 1_555
H7 C9 1_555 1_555
C10 C8 1_555 1_555
H8 C10 1_555 1_555
H9 C10 1_555 1_555
H10 C10 1_555 1_555
C11 C8 1_555 1_555
H11 C11 1_555 1_555
H12 C11 1_555 1_555
H13 C11 1_555 1_555
N4 C12 1_555 1_555
C12 H14 1_555 1_555
C13 C12 1_555 1_555
H15 C13 1_555 1_555
C14 C13 1_555 1_555
C15 C14 1_555 1_555
C16 C15 1_555 1_555
H16 C16 1_555 1_555
H17 C16 1_555 1_555
H18 C16 1_555 1_555
C17 C15 1_555 1_555
H19 C17 1_555 1_555
H20 C16 1_555 1_555
H21 C17 1_555 1_555
C18 C15 1_555 1_555
H22 C18 1_555 1_555
H23 C18 1_555 1_555
H24 H17 1_555 1_555
N1J Cu1 1_555 1_555
C12A N4 1_555 1_555
H14A C12A 1_555 1_555
C13A C14 1_555 1_555
H15A C13A 1_555 1_555
C16A C15 1_555 1_555
H16A C17 1_555 1_555
H17A C18 1_555 1_555
H18A C17 1_555 1_555
C17A C15 1_555 1_555
H19A C17A 1_555 1_555
H20A C17 1_555 1_555
H21A C18 1_555 1_555
C18A C15 1_555 1_555
H22A C18A 1_555 1_555
H23A C18A 1_555 1_555
H24A C18 1_555 1_555
C6 C7 1_555 1_555
C16 C17A 1_555 1_555
C16 C18A 1_555 1_555
H16 C17A 1_555 1_555
H17 C18A 1_555 1_555
H18 H20 1_555 1_555
H18 C17A 1_555 1_555
C17 C16A 1_555 1_555
C17 C18A 1_555 1_555
H20 C17A 1_555 1_555
H21 C18A 1_555 1_555
C18 C16A 1_555 1_555
C18 C17A 1_555 1_555
H24 C18A 1_555 1_555
C12A C13A 1_555 1_555
C16A H16A 1_555 1_555
C16A H17A 1_555 1_555
C16A H18A 1_555 1_555
C16A H20A 1_555 1_555
H17A H24A 1_555 1_555
H18A H20A 1_555 1_555
C17A H21A 1_555 1_555

#END
