
#######################################################################
#
#                 Cambridge Crystallographic Data Centre
#                                CCDC 
#
#######################################################################
#
# If this CIF has been generated from an entry in the Cambridge 
# Structural Database, then it will include bibliographic, chemical, 
# crystal, experimental, refinement or atomic coordinate data resulting 
# from the CCDC's data processing and validation procedures.
#
#######################################################################

data_SACJUD
_symmetry_cell_setting           triclinic
_symmetry_space_group_name_H-M   'P -1'
_symmetry_Int_Tables_number      2
_space_group_name_Hall           '-P 1'
loop_
_symmetry_equiv_pos_site_id
_symmetry_equiv_pos_as_xyz
1 x,y,z
2 -x,-y,-z
_cell_length_a                   7.4685(9)
_cell_length_b                   7.5406(9)
_cell_length_c                   9.8646(12)
_cell_angle_alpha                83.202(2)
_cell_angle_beta                 69.1200(10)
_cell_angle_gamma                79.4130(10)
_cell_volume                     509.379
loop_
_atom_site_label
_atom_site_type_symbol
_atom_site_fract_x
_atom_site_fract_y
_atom_site_fract_z
Mn1 Mn 0.0000 0.0000 1.0000
O1 O 0.1341(5) 0.1075(6) 0.7740(4)
O2 O 0.6248(7) 0.7174(5) 0.6009(5)
O3 O 0.8412(6) 0.5053(6) 0.6418(5)
N1 N -0.2801(6) 0.1750(6) 1.0144(6)
N2 N -0.6061(5) 0.3315(5) 1.0514(5)
N3 N -0.9011(6) 0.2080(6) 1.0907(5)
N4 N 0.6780(6) 0.5613(5) 0.6354(4)
N5 N 0.2660(5) 0.2162(5) 0.7407(4)
C1 C 0.8071(7) 0.1586(7) 0.5875(7)
H1 H 0.8644 0.1353 0.6621
H2 H 0.8798 0.2352 0.5106
H3 H 0.8086 0.0465 0.5498
C2 C 0.6008(6) 0.2511(6) 0.6505(4)
C3 C 0.5386(6) 0.4356(5) 0.6707(4)
C4 C 0.3460(7) 0.5067(6) 0.7215(5)
H4 H 0.3085 0.6304 0.7314
C5 C 0.2088(7) 0.3947(6) 0.7576(5)
H5 H 0.0776 0.4414 0.7934
C6 C 0.4558(6) 0.1463(6) 0.6875(5)
H6 H 0.4898 0.0227 0.6755
C7 C -0.4372(6) 0.2398(5) 1.0330(4)
C8 C -0.7557(6) 0.2562(5) 1.0728(4)
Mn1_2 Mn -1.0000 0.0000 1.0000
O1A O -0.1341(5) -0.1075(6) 1.2260(4)
O2A O -0.6248(7) -0.7174(5) 1.3991(5)
O3A O -0.8412(6) -0.5053(6) 1.3582(5)
N1A N -0.7199(6) -0.1750(6) 0.9856(6)
N1A_2 N 0.2801(6) -0.1750(6) 0.9856(6)
N2A N -0.3939(5) -0.3315(5) 0.9486(5)
N3A N -0.0989(6) -0.2080(6) 0.9093(5)
N3_2 N 0.0989(6) 0.2080(6) 1.0907(5)
N4A N -0.6780(6) -0.5613(5) 1.3646(4)
N5A N -0.2660(5) -0.2162(5) 1.2593(4)
C1A C -0.8071(7) -0.1586(7) 1.4125(7)
H1A H -0.8644 -0.1353 1.3379
H2A H -0.8798 -0.2352 1.4894
H3A H -0.8086 -0.0465 1.4502
C2A C -0.6008(6) -0.2511(6) 1.3495(4)
C3A C -0.5386(6) -0.4356(5) 1.3293(4)
C4A C -0.3460(7) -0.5067(6) 1.2785(5)
H4A H -0.3085 -0.6304 1.2686
C5A C -0.2088(7) -0.3947(6) 1.2424(5)
H5A H -0.0776 -0.4414 1.2066
C6A C -0.4558(6) -0.1463(6) 1.3125(5)
H6A H -0.4898 -0.0227 1.3245
C7A C -0.5628(6) -0.2398(5) 0.9670(4)
C8A C -0.2443(6) -0.2562(5) 0.9272(4)
loop_
_geom_bond_atom_site_label_1
_geom_bond_atom_site_label_2
_geom_bond_site_symmetry_1
_geom_bond_site_symmetry_2
Mn1 O1 1_555 1_555
O1 N5 1_555 1_555
O2 N4 1_555 1_555
O3 N4 1_555 1_555
N1 Mn1 1_555 1_555
N2 C7 1_555 1_555
N3 C8 1_555 1_555
N4 C3 1_555 1_555
N5 C5 1_555 1_555
C1 H1 1_555 1_555
H2 C1 1_555 1_555
H3 C1 1_555 1_555
C2 C1 1_555 1_555
C3 C2 1_555 1_555
C4 C3 1_555 1_555
H4 C4 1_555 1_555
C5 C4 1_555 1_555
H5 C5 1_555 1_555
C6 N5 1_555 1_555
H6 C6 1_555 1_555
C7 N1 1_555 1_555
C8 N2 1_555 1_555
Mn1_2 N3 1_555 1_555
O1A Mn1 1_555 1_555
O2A N4A 1_555 1_555
O3A N4A 1_555 1_555
N1A Mn1_2 1_555 1_555
N1A_2 Mn1 1_555 1_555
N2A C7A 1_555 1_555
N3A Mn1 1_555 1_555
N3_2 Mn1 1_555 1_555
N4A C3A 1_555 1_555
N5A O1A 1_555 1_555
C1A H1A 1_555 1_555
H2A C1A 1_555 1_555
H3A C1A 1_555 1_555
C2A C1A 1_555 1_555
C3A C2A 1_555 1_555
C4A C3A 1_555 1_555
H4A C4A 1_555 1_555
C5A N5A 1_555 1_555
H5A C5A 1_555 1_555
C6A N5A 1_555 1_555
H6A C6A 1_555 1_555
C7A N1A 1_555 1_555
C8A N2A 1_555 1_555
C2 C6 1_555 1_555
N3A C8A 1_555 1_555
C2A C6A 1_555 1_555
C4A C5A 1_555 1_555

#END
