
#######################################################################
#
#                 Cambridge Crystallographic Data Centre
#                                CCDC 
#
#######################################################################
#
# If this CIF has been generated from an entry in the Cambridge 
# Structural Database, then it will include bibliographic, chemical, 
# crystal, experimental, refinement or atomic coordinate data resulting 
# from the CCDC's data processing and validation procedures.
#
#######################################################################

data_SACNIV
_symmetry_cell_setting           monoclinic
_symmetry_space_group_name_H-M   'P 21/c'
_symmetry_Int_Tables_number      14
_space_group_name_Hall           '-P 2ybc'
loop_
_symmetry_equiv_pos_site_id
_symmetry_equiv_pos_as_xyz
1 x,y,z
2 -x,1/2+y,1/2-z
3 -x,-y,-z
4 x,1/2-y,1/2+z
_cell_length_a                   13.6487(15)
_cell_length_b                   13.8943(15)
_cell_length_c                   9.5689(10)
_cell_angle_alpha                90
_cell_angle_beta                 102.354(2)
_cell_angle_gamma                90
_cell_volume                     1772.62
loop_
_atom_site_label
_atom_site_type_symbol
_atom_site_fract_x
_atom_site_fract_y
_atom_site_fract_z
Zn1 Zn 0.58444(2) 0.079712(19) -0.02071(3)
Zn2 Zn 1.00682(2) 0.11378(2) 0.28160(3)
C1 C 0.4541(2) 0.08864(18) -0.3302(3)
H1 H 0.4542 0.0217 -0.3314
C2 C 0.3969(2) 0.13892(19) -0.4431(3)
H2 H 0.3621 0.1045 -0.5214
C3 C 1.1347(2) 0.2627(2) -0.0091(3)
H3 H 1.1888 0.2768 -0.0505
O1 O 0.61908(15) 0.22667(13) 0.0032(2)
N1 N 0.87256(17) 0.05710(16) 0.2202(2)
O2 O 0.46933(13) 0.43800(12) -0.41926(18)
O3 O 0.36699(16) 0.42263(14) -0.2696(2)
C4 C 0.50631(18) 0.23251(17) -0.2203(2)
O4 O 0.59241(16) 0.36819(13) -0.1068(2)
N2 N 0.71501(16) 0.04118(15) 0.0977(2)
C5 C 1.1350(2) 0.1974(2) 0.0956(3)
H4 H 1.1893 0.1596 0.1388
N3 N 1.04186(17) 0.30488(17) -0.0445(2)
C6 C 1.1774(2) -0.0145(2) 0.4220(3)
H5 H 1.1833 0.0168 0.5093
N4 N 1.04174(17) 0.19633(17) 0.1272(2)
C7 C 0.44353(18) 0.28126(17) -0.3319(2)
C8 C 1.23803(19) -0.08361(18) 0.3969(3)
H6 H 1.2927 -0.1083 0.4620
N5 N 0.38944(17) 0.23387(15) -0.4451(2)
N6 N 0.50943(16) 0.13620(15) -0.2189(2)
N7 N 1.10687(17) 0.00429(17) 0.3059(2)
C9 C 0.57803(18) 0.28089(17) -0.0981(3)
C10 C 0.42532(19) 0.38857(17) -0.3354(3)
C11 C 0.7520(2) -0.0486(2) 0.1395(3)
H7 H 0.7171 -0.1062 0.1202
C12 C 0.7900(2) 0.10122(19) 0.1487(3)
H8 H 0.7854 0.1675 0.1357
C13 C 0.8477(2) -0.0394(2) 0.2135(3)
H9 H 0.8897 -0.0895 0.2532
C14 C 0.9896(2) 0.2621(2) 0.0407(3)
H10 H 0.9230 0.2768 0.0399
C15 C 1.1259(3) -0.0577(2) 0.2035(3)
H11 H 1.0889 -0.0613 0.1100
N8 N 1.2059(3) -0.1122(2) 0.2581(4)
H12 H 1.2318 -0.1563 0.2145
Zn1A Zn 0.41556(2) 0.579712(19) -0.47929(3)
Zn1C Zn 0.58444(2) 0.420288(19) -0.52071(3)
Zn2C Zn 1.00682(2) 0.38622(2) -0.21840(3)
O2A O 0.53067(13) -0.06200(12) -0.08074(18)
O2C O 0.46933(13) 0.06200(12) 0.08074(18)
N3C N 1.04186(17) 0.19512(17) 0.4555(2)
loop_
_geom_bond_atom_site_label_1
_geom_bond_atom_site_label_2
_geom_bond_site_symmetry_1
_geom_bond_site_symmetry_2
Zn1 O1 1_555 1_555
Zn2 N1 1_555 1_555
C1 H1 1_555 1_555
C2 C1 1_555 1_555
H2 C2 1_555 1_555
C3 H3 1_555 1_555
O1 C9 1_555 1_555
N1 C12 1_555 1_555
O2 C10 1_555 1_555
O3 C10 1_555 1_555
C4 C7 1_555 1_555
O4 C9 1_555 1_555
N2 Zn1 1_555 1_555
C5 C3 1_555 1_555
H4 C5 1_555 1_555
N3 C3 1_555 1_555
C6 H5 1_555 1_555
N4 Zn2 1_555 1_555
C7 N5 1_555 1_555
C8 C6 1_555 1_555
H6 C8 1_555 1_555
N5 C2 1_555 1_555
N6 Zn1 1_555 1_555
N7 Zn2 1_555 1_555
C9 C4 1_555 1_555
C10 C7 1_555 1_555
C11 N2 1_555 1_555
H7 C11 1_555 1_555
C12 N2 1_555 1_555
H8 C12 1_555 1_555
C13 N1 1_555 1_555
H9 C13 1_555 1_555
C14 N3 1_555 1_555
H10 C14 1_555 1_555
C15 N7 1_555 1_555
H11 C15 1_555 1_555
N8 C8 1_555 1_555
H12 N8 1_555 1_555
Zn1A O2 1_555 1_555
Zn1C O2 1_555 1_555
Zn2C N3 1_555 1_555
O2A Zn1 1_555 1_555
O2C Zn1 1_555 1_555
N3C Zn2 1_555 1_555
C1 N6 1_555 1_555
C4 N6 1_555 1_555
C5 N4 1_555 1_555
C6 N7 1_555 1_555
N4 C14 1_555 1_555
C11 C13 1_555 1_555
C15 N8 1_555 1_555

#END
