
#######################################################################
#
#                 Cambridge Crystallographic Data Centre
#                                CCDC 
#
#######################################################################
#
# If this CIF has been generated from an entry in the Cambridge 
# Structural Database, then it will include bibliographic, chemical, 
# crystal, experimental, refinement or atomic coordinate data resulting 
# from the CCDC's data processing and validation procedures.
#
#######################################################################

data_SACRUK
_symmetry_cell_setting           monoclinic
_symmetry_space_group_name_H-M   'P 21/c'
_symmetry_Int_Tables_number      14
_space_group_name_Hall           '-P 2ybc'
loop_
_symmetry_equiv_pos_site_id
_symmetry_equiv_pos_as_xyz
1 x,y,z
2 x,1/2-y,1/2+z
3 -x,-y,-z
4 -x,1/2+y,1/2-z
_cell_length_a                   9.564(2)
_cell_length_b                   17.689(3)
_cell_length_c                   8.0729(9)
_cell_angle_alpha                90
_cell_angle_beta                 108.470(10)
_cell_angle_gamma                90
_cell_volume                     1295.4
loop_
_atom_site_label
_atom_site_type_symbol
_atom_site_fract_x
_atom_site_fract_y
_atom_site_fract_z
Cu1 Cu 0.92041(7) 0.55402(3) 0.54202(9)
Cu2 Cu 0.64964(7) 0.30125(3) 0.77949(9)
I1 I 0.85263(3) 0.508229(18) 0.21301(4)
I2 I 0.50949(4) 0.277523(18) 1.00504(5)
N1 N 0.7461(4) 0.5213(2) 0.6275(6)
C1 C 0.7415(5) 0.4482(2) 0.6686(7)
H1 H 0.8116 0.4167 0.6472
N2 N 0.6464(4) 0.4161(2) 0.7372(5)
C2 C 0.5487(5) 0.4623(3) 0.7724(7)
H2 H 0.4829 0.4428 0.8251
C3 C 0.5436(6) 0.5386(3) 0.7317(7)
H3 H 0.4742 0.5704 0.7539
C4 C 0.6443(5) 0.5653(3) 0.6579(6)
H4 H 0.6415 0.6162 0.6280
N3 N 0.9629(4) 0.6672(2) 0.5357(6)
C5 C 1.0938(5) 0.6970(3) 0.6209(7)
H5 H 1.1651 0.6642 0.6887
N4 N 1.1325(4) 0.7691(2) 0.6185(6)
C6 C 1.0270(5) 0.8160(3) 0.5237(8)
H6 H 1.0488 0.8670 0.5180
C7 C 0.8877(6) 0.7905(3) 0.4349(9)
H7 H 0.8143 0.8237 0.3731
C8 C 0.8599(6) 0.7150(3) 0.4400(8)
H8 H 0.7678 0.6963 0.3758
I1B I 1.14737(3) 0.491771(18) 0.78699(4)
I2A I 0.50949(4) 0.222477(18) 0.50504(5)
N4C N 0.8675(4) 0.2691(2) 0.8815(6)
Cu1B Cu 1.07959(7) 0.44598(3) 0.45798(9)
Cu2A Cu 0.64964(7) 0.19875(3) 1.27949(9)
Cu2C Cu 1.35036(7) 0.80125(3) 0.72051(9)
loop_
_geom_bond_atom_site_label_1
_geom_bond_atom_site_label_2
_geom_bond_site_symmetry_1
_geom_bond_site_symmetry_2
Cu1 I1 1_555 1_555
Cu2 I2 1_555 1_555
I1 Cu1B 1_555 1_555
I2 Cu2A 1_555 1_555
N1 Cu1 1_555 1_555
C1 N1 1_555 1_555
H1 C1 1_555 1_555
N2 Cu2 1_555 1_555
C2 N2 1_555 1_555
H2 C2 1_555 1_555
C3 C2 1_555 1_555
H3 C3 1_555 1_555
C4 N1 1_555 1_555
H4 C4 1_555 1_555
N3 Cu1 1_555 1_555
C5 N3 1_555 1_555
H5 C5 1_555 1_555
N4 C5 1_555 1_555
C6 N4 1_555 1_555
H6 C6 1_555 1_555
C7 C6 1_555 1_555
H7 C7 1_555 1_555
C8 N3 1_555 1_555
H8 C8 1_555 1_555
I1B Cu1 1_555 1_555
I2A Cu2 1_555 1_555
N4C Cu2 1_555 1_555
Cu1B I1B 1_555 1_555
Cu2C N4 1_555 1_555
C1 N2 1_555 1_555
C3 C4 1_555 1_555
C7 C8 1_555 1_555

#END
