
#######################################################################
#
#                 Cambridge Crystallographic Data Centre
#                                CCDC 
#
#######################################################################
#
# If this CIF has been generated from an entry in the Cambridge 
# Structural Database, then it will include bibliographic, chemical, 
# crystal, experimental, refinement or atomic coordinate data resulting 
# from the CCDC's data processing and validation procedures.
#
#######################################################################

data_SADBOQ
_symmetry_cell_setting           triclinic
_symmetry_space_group_name_H-M   'P -1'
_symmetry_Int_Tables_number      2
_space_group_name_Hall           '-P 1'
loop_
_symmetry_equiv_pos_site_id
_symmetry_equiv_pos_as_xyz
1 x,y,z
2 -x,-y,-z
_cell_length_a                   9.508(4)
_cell_length_b                   9.648(4)
_cell_length_c                   10.153(3)
_cell_angle_alpha                69.650(11)
_cell_angle_beta                 68.520(12)
_cell_angle_gamma                83.930(13)
_cell_volume                     812.337
loop_
_atom_site_label
_atom_site_type_symbol
_atom_site_fract_x
_atom_site_fract_y
_atom_site_fract_z
O16 O 0.8696(6) 0.6457(6) 0.5220(6)
H11 H 0.9530 0.6605 0.4553
H12 H 0.8006 0.6836 0.4879
Tb1 Tb 0.17409(3) -0.30944(3) -0.21043(4)
C1 C 0.3821(8) -0.3619(8) -0.5482(8)
C2 C 0.5232(7) -0.2594(7) -0.6372(7)
C3 C 0.5391(7) -0.1319(7) -0.6198(7)
H1 H 0.4644 -0.1038 -0.5448
C4 C 0.6706(8) -0.0367(7) -0.7160(8)
C5 C 0.7800(7) -0.0951(8) -0.8231(8)
H2 H 0.8687 -0.0412 -0.8886
C6 C 0.7560(7) -0.2270(7) -0.8299(7)
C7 C 0.8651(7) -0.2989(8) -0.9377(8)
C8 C 0.1941(15) -0.2851(15) 0.1100(15)
C9 C 0.3205(15) -0.1736(15) 0.0664(15)
C10 C 0.3106(16) -0.0780(16) 0.1376(16)
C12 C 0.4504(16) -0.0310(18) 0.0515(17)
C13 C 0.443(2) 0.076(2) 0.111(2)
C14 C 0.3193(15) 0.0900(15) 0.2566(16)
O1 O 0.2832(5) -0.3237(5) -0.4469(5)
O2 O 0.3762(5) -0.4701(5) -0.5860(5)
O3 O 0.6267(5) -0.3095(5) -0.7417(5)
O4 O 0.8453(5) -0.4337(5) -0.9100(5)
O5 O 0.9679(5) -0.2182(6) -1.0433(6)
O6 O 0.6856(5) 0.0887(5) -0.7103(5)
O7 O 0.212(3) -0.343(3) 0.007(2)
O9 O 0.4442(10) -0.1797(10) -0.0545(10)
O10 O 0.3382(10) 0.1772(11) 0.3078(11)
O11 O 0.2109(10) -0.0003(10) 0.3049(10)
O13 O 0.0726(6) -0.1095(5) -0.3631(6)
H5 H 0.1082 -0.0440 -0.4482
H6 H -0.0177 -0.0905 -0.3575
O14 O -0.0359(5) -0.3978(5) -0.2348(5)
H7 H -0.0548 -0.3915 -0.3119
H8 H -0.1007 -0.4647 -0.1698
O15 O 0.4308(5) -0.3806(5) -0.2394(5)
H9 H 0.4796 -0.4385 -0.2868
H10 H 0.5064 -0.3312 -0.2541
O18 O 0.0979(13) -0.2197(13) 0.2371(13)
Tb1A Tb 0.82591(3) -0.69056(3) -0.78957(4)
Tb1_2 Tb 1.17409(3) -0.30944(3) -1.21043(4)
Tb1A_2 Tb 0.82591(3) 0.30944(3) -0.78957(4)
Tb1A_3 Tb 0.82591(3) 0.30944(3) 0.21043(4)
Tb1A_4 Tb -0.17409(3) -0.69056(3) 0.21043(4)
Tb1_3 Tb 0.17409(3) -1.30944(3) -0.21043(4)
C1A C 0.6179(8) -0.6381(8) -0.4518(8)
C2A C 0.4768(7) -0.7406(7) -0.3628(7)
C3A C 0.4609(7) -0.8681(7) -0.3802(7)
H1A H 0.5356 -0.8962 -0.4552
C4A C 0.3294(8) -0.9633(7) -0.2840(8)
C5A C 0.2200(7) -0.9049(8) -0.1769(8)
H2A H 0.1313 -0.9588 -0.1114
C6A C 0.2440(7) -0.7730(7) -0.1701(7)
C7A C 0.1349(7) -0.7011(8) -0.0623(8)
C8A C 0.8059(15) 0.2851(15) -0.1100(15)
C9A C 0.6795(15) 0.1736(15) -0.0664(15)
C10A C 0.6894(16) 0.0780(16) -0.1376(16)
C12A C 0.5496(16) 0.0310(18) -0.0515(17)
C13A C 0.557(2) -0.076(2) -0.111(2)
C14A C 0.6807(15) -0.0900(15) -0.2566(16)
O1A O 0.7168(5) -0.6763(5) -0.5531(5)
O2A O 0.6238(5) -0.5299(5) -0.4140(5)
O3A O 0.3733(5) -0.6905(5) -0.2583(5)
O4A O 0.1547(5) -0.5663(5) -0.0900(5)
O5A O 0.0321(5) -0.7818(6) 0.0433(6)
O5_2 O -0.0321(5) -0.2182(6) -0.0433(6)
O5A_2 O 1.0321(5) -0.7818(6) -0.9567(6)
O6A O 0.3144(5) -1.0887(5) -0.2897(5)
O6A_2 O 0.3144(5) -0.0887(5) -0.2897(5)
O6_2 O 0.6856(5) -0.9113(5) -0.7103(5)
O7A O 0.788(3) 0.343(3) -0.007(2)
O7A_2 O 0.788(3) -0.657(3) -1.007(2)
O9A O 0.5558(10) 0.1797(10) 0.0545(10)
O10A O 0.6618(10) -0.1772(11) -0.3078(11)
O11A O 0.7891(10) 0.0003(10) -0.3049(10)
O13A O 0.9274(6) -0.8905(5) -0.6369(6)
H5A H 0.8918 -0.9560 -0.5518
H6A H 1.0177 -0.9095 -0.6425
O14A O 1.0359(5) -0.6022(5) -0.7652(5)
H7A H 1.0548 -0.6085 -0.6881
H8A H 1.1007 -0.5353 -0.8302
O15A O 0.5692(5) -0.6194(5) -0.7606(5)
H9A H 0.5204 -0.5615 -0.7132
H10A H 0.4936 -0.6688 -0.7459
O18A O 0.9021(13) 0.2197(13) -0.2371(13)
H3? H 0.7750 0.0827 -0.2268
C11? C 0.4227(19) 0.036(2) 0.0773(18)
H4? H 0.3693 -0.1029 0.0957
O8? O 0.0912(13) -0.3029(13) 0.2315(13)
O12? O 0.4106(12) 0.1369(13) 0.1329(12)
O17? O 0.5100(11) 0.5730(10) 0.0028(12)
O19? O 0.7978(10) -0.1204(11) -0.4064(11)
O20? O 0.2150(18) -0.3538(17) 0.0329(15)
loop_
_geom_bond_atom_site_label_1
_geom_bond_atom_site_label_2
_geom_bond_site_symmetry_1
_geom_bond_site_symmetry_2
Tb1 O1 1_555 1_555
C1 C2 1_555 1_555
C2 C3 1_555 1_555
C3 H1 1_555 1_555
C4 C3 1_555 1_555
C5 C4 1_555 1_555
H2 C5 1_555 1_555
C6 C5 1_555 1_555
C7 C6 1_555 1_555
C8 C9 1_555 1_555
C9 C10 1_555 1_555
C10 C12 1_555 1_555
C12 C13 1_555 1_555
C13 C14 1_555 1_555
C14 O10 1_555 1_555
O1 C1 1_555 1_555
O2 C1 1_555 1_555
O3 C2 1_555 1_555
O4 C7 1_555 1_555
O5 C7 1_555 1_555
O6 C4 1_555 1_555
O7 Tb1 1_555 1_555
O9 C9 1_555 1_555
O11 C14 1_555 1_555
O13 Tb1 1_555 1_555
H5 O13 1_555 1_555
H6 O13 1_555 1_555
O14 Tb1 1_555 1_555
H7 O14 1_555 1_555
H8 O14 1_555 1_555
O15 Tb1 1_555 1_555
H9 O15 1_555 1_555
H10 O15 1_555 1_555
O16 H11 1_555 1_555
H12 O16 1_555 1_555
O18 C8 1_555 1_555
Tb1A O4 1_555 1_555
Tb1_2 O5 1_555 1_555
Tb1A_2 O6 1_555 1_555
Tb1A_3 O7A 1_555 1_555
Tb1A_4 O5A 1_555 1_555
Tb1_3 O6A 1_555 1_555
C1A C2A 1_555 1_555
C2A C3A 1_555 1_555
C3A H1A 1_555 1_555
C4A C3A 1_555 1_555
C5A C4A 1_555 1_555
H2A C5A 1_555 1_555
C6A C5A 1_555 1_555
C7A C6A 1_555 1_555
C8A C9A 1_555 1_555
C9A C10A 1_555 1_555
C10A C12A 1_555 1_555
C12A C12 1_555 1_555
C13A O9 1_555 1_555
C14A C13A 1_555 1_555
O1A Tb1A 1_555 1_555
O2A C1A 1_555 1_555
O3A C2A 1_555 1_555
O4A Tb1 1_555 1_555
O5A C7A 1_555 1_555
O5_2 Tb1 1_555 1_555
O5A_2 Tb1A 1_555 1_555
O6A C4A 1_555 1_555
O6A_2 Tb1 1_555 1_555
O6_2 Tb1A 1_555 1_555
O7A C8A 1_555 1_555
O7A_2 Tb1A 1_555 1_555
O9A C13 1_555 1_555
O10A C14A 1_555 1_555
O11A C14A 1_555 1_555
O13A Tb1A 1_555 1_555
H5A O13A 1_555 1_555
H6A O13A 1_555 1_555
O14A Tb1A 1_555 1_555
H7A O14A 1_555 1_555
H8A O14A 1_555 1_555
O15A Tb1A 1_555 1_555
H9A O15A 1_555 1_555
H10A O15A 1_555 1_555
O18A C8A 1_555 1_555
C6 O3 1_555 1_555
C8 O7 1_555 1_555
C1A O1A 1_555 1_555
C6A O3A 1_555 1_555
C7A O4A 1_555 1_555
C9A O9A 1_555 1_555
C12A C13A 1_555 1_555

#END
