
#######################################################################
#
#                 Cambridge Crystallographic Data Centre
#                                CCDC 
#
#######################################################################
#
# If this CIF has been generated from an entry in the Cambridge 
# Structural Database, then it will include bibliographic, chemical, 
# crystal, experimental, refinement or atomic coordinate data resulting 
# from the CCDC's data processing and validation procedures.
#
#######################################################################

data_SADCAD
_symmetry_cell_setting           triclinic
_symmetry_space_group_name_H-M   'P -1'
_symmetry_Int_Tables_number      2
_space_group_name_Hall           '-P 1'
loop_
_symmetry_equiv_pos_site_id
_symmetry_equiv_pos_as_xyz
1 x,y,z
2 -x,-y,-z
_cell_length_a                   9.4966(19)
_cell_length_b                   9.6020(19)
_cell_length_c                   10.144(2)
_cell_angle_alpha                69.48(3)
_cell_angle_beta                 68.52(3)
_cell_angle_gamma                83.79(3)
_cell_volume                     805.918
loop_
_atom_site_label
_atom_site_type_symbol
_atom_site_fract_x
_atom_site_fract_y
_atom_site_fract_z
O16 O 0.8739(9) 0.6457(9) 0.5209(9)
H11 H 0.9544 0.6608 0.4545
H12 H 0.8020 0.6838 0.4871
O17 O 0.514(2) 0.5735(19) 0.9985(19)
O17A O 0.486(2) 0.4265(19) 1.0015(19)
Ho1 Ho 0.82480(5) 0.30862(5) 0.21095(5)
C1 C 0.6195(12) 0.3610(12) 0.5474(12)
C2 C 0.4786(11) 0.2594(11) 0.6380(11)
C3 C 0.4601(12) 0.1318(13) 0.6192(12)
H1 H 0.5327 0.1040 0.5425
C4 C 0.3288(12) 0.0382(11) 0.7171(11)
C5 C 0.2191(12) 0.0954(12) 0.8245(12)
H2 H 0.1302 0.0414 0.8896
C6 C 0.2444(12) 0.2278(13) 0.8319(13)
C7 C 0.1362(11) 0.3023(12) 0.9375(12)
C8 C 0.807(2) 0.287(2) -0.108(2)
C9 C 0.681(2) 0.177(2) -0.071(2)
C10 C 0.690(3) 0.079(3) -0.137(3)
C12 C 0.551(2) 0.034(3) -0.055(2)
C13 C 0.555(3) -0.076(3) -0.113(3)
C14 C 0.681(2) -0.085(2) -0.257(2)
O1 O 0.7182(8) 0.3220(8) 0.4466(8)
O2 O 0.6252(8) 0.4712(8) 0.5845(9)
O3 O 0.3737(8) 0.3107(8) 0.7397(8)
O4 O 0.1588(9) 0.4384(9) 0.9070(9)
O5 O 0.0296(9) 0.2206(9) 1.0451(9)
O6 O 0.3153(8) -0.0878(8) 0.7105(8)
O7 O 0.780(3) 0.361(3) -0.029(3)
O8 O 0.9095(19) 0.304(2) -0.233(2)
O9 O 0.5555(18) 0.1821(16) 0.0537(16)
O10 O 0.6619(18) -0.1778(19) -0.3083(18)
O11 O 0.7901(17) 0.0008(17) -0.3037(17)
O13 O 0.9274(9) 0.1097(9) 0.3595(10)
H5 H 0.8918 0.0441 0.4446
H6 H 1.0176 0.0907 0.3539
O14 O 1.0328(9) 0.3988(9) 0.2337(9)
H7 H 1.0517 0.3925 0.3108
H8 H 1.0976 0.4657 0.1687
O15 O 0.5687(9) 0.3785(9) 0.2422(8)
H9 H 0.5199 0.4364 0.2896
H10 H 0.4931 0.3291 0.2569
Ho1A Ho 0.17520(5) 0.69138(5) 0.78905(5)
Ho1_2 Ho -0.17520(5) 0.30862(5) 1.21095(5)
Ho1A_2 Ho 0.17520(5) -0.30862(5) 0.78905(5)
Ho1A_3 Ho 0.17520(5) -0.30862(5) -0.21095(5)
Ho1A_4 Ho 1.17520(5) 0.69138(5) -0.21095(5)
Ho1_3 Ho 0.82480(5) 1.30862(5) 0.21095(5)
C1A C 0.3805(12) 0.6390(12) 0.4526(12)
C2A C 0.5214(11) 0.7406(11) 0.3620(11)
C3A C 0.5399(12) 0.8682(13) 0.3808(12)
H1A H 0.4673 0.8960 0.4575
C4A C 0.6712(12) 0.9618(11) 0.2829(11)
C5A C 0.7809(12) 0.9046(12) 0.1755(12)
H2A H 0.8698 0.9586 0.1104
C6A C 0.7556(12) 0.7722(13) 0.1681(13)
C7A C 0.8638(11) 0.6977(12) 0.0625(12)
C8A C 0.193(2) -0.287(2) 0.108(2)
C9A C 0.319(2) -0.177(2) 0.071(2)
C10A C 0.310(3) -0.079(3) 0.137(3)
C12A C 0.449(2) -0.034(3) 0.055(2)
C13A C 0.445(3) 0.076(3) 0.113(3)
C14A C 0.319(2) 0.085(2) 0.257(2)
O1A O 0.2818(8) 0.6780(8) 0.5534(8)
O2A O 0.3748(8) 0.5288(8) 0.4155(9)
O3A O 0.6263(8) 0.6893(8) 0.2603(8)
O4A O 0.8412(9) 0.5616(9) 0.0930(9)
O5A O 0.9704(9) 0.7794(9) -0.0451(9)
O5_2 O 1.0296(9) 0.2206(9) 0.0451(9)
O5A_2 O -0.0296(9) 0.7794(9) 0.9549(9)
O6A O 0.6847(8) 1.0878(8) 0.2895(8)
O6A_2 O 0.6847(8) 0.0878(8) 0.2895(8)
O6_2 O 0.3153(8) 0.9122(8) 0.7105(8)
O7A O 0.220(3) -0.361(3) 0.029(3)
O7A_2 O 0.220(3) 0.639(3) 1.029(3)
O8A O 0.0905(19) -0.304(2) 0.233(2)
O9A O 0.4445(18) -0.1821(16) -0.0537(16)
O10A O 0.3381(18) 0.1778(19) 0.3083(18)
O11A O 0.2099(17) -0.0008(17) 0.3037(17)
O13A O 0.0726(9) 0.8903(9) 0.6405(10)
H5A H 0.1082 0.9559 0.5554
H6A H -0.0176 0.9093 0.6461
O14A O -0.0328(9) 0.6012(9) 0.7663(9)
H7A H -0.0517 0.6075 0.6892
H8A H -0.0976 0.5343 0.8313
O15A O 0.4313(9) 0.6215(9) 0.7578(8)
H9A H 0.4801 0.5636 0.7104
H10A H 0.5069 0.6709 0.7431
H3? H 0.7752 0.0834 -0.2265
C11? C 0.576(3) -0.040(3) -0.076(3)
H4? H 0.3683 -0.1058 0.0995
O12? O 0.5921(19) -0.141(2) -0.1327(19)
O18? O 0.0978(18) -0.222(2) 0.2382(18)
O19? O 0.7968(17) -0.1194(17) -0.4092(17)
O20? O 0.792(3) 0.340(3) -0.015(3)
loop_
_geom_bond_atom_site_label_1
_geom_bond_atom_site_label_2
_geom_bond_site_symmetry_1
_geom_bond_site_symmetry_2
Ho1 O1 1_555 1_555
C1 C2 1_555 1_555
C2 C3 1_555 1_555
C3 H1 1_555 1_555
C4 C3 1_555 1_555
C5 C4 1_555 1_555
H2 C5 1_555 1_555
C6 C5 1_555 1_555
C7 C6 1_555 1_555
C8 C9 1_555 1_555
C9 C10 1_555 1_555
C10 C12 1_555 1_555
C12 C13 1_555 1_555
C13 C14 1_555 1_555
C14 O10 1_555 1_555
O1 C1 1_555 1_555
O2 C1 1_555 1_555
O3 C2 1_555 1_555
O4 C7 1_555 1_555
O5 C7 1_555 1_555
O6 C4 1_555 1_555
O7 Ho1 1_555 1_555
O8 C8 1_555 1_555
O9 C9 1_555 1_555
O11 C14 1_555 1_555
O13 Ho1 1_555 1_555
H5 O13 1_555 1_555
H6 O13 1_555 1_555
O14 Ho1 1_555 1_555
H7 O14 1_555 1_555
H8 O14 1_555 1_555
O15 Ho1 1_555 1_555
H9 O15 1_555 1_555
H10 O15 1_555 1_555
O16 H11 1_555 1_555
H12 O16 1_555 1_555
O17 O17A 1_555 1_555
Ho1A O4 1_555 1_555
Ho1_2 O5 1_555 1_555
Ho1A_2 O6 1_555 1_555
Ho1A_3 O7A 1_555 1_555
Ho1A_4 O5A 1_555 1_555
Ho1_3 O6A 1_555 1_555
C1A C2A 1_555 1_555
C2A C3A 1_555 1_555
C3A H1A 1_555 1_555
C4A C3A 1_555 1_555
C5A C4A 1_555 1_555
H2A C5A 1_555 1_555
C6A C5A 1_555 1_555
C7A C6A 1_555 1_555
C8A C9A 1_555 1_555
C9A C10A 1_555 1_555
C10A C12A 1_555 1_555
C12A C12 1_555 1_555
C13A O9 1_555 1_555
C14A C13A 1_555 1_555
O1A Ho1A 1_555 1_555
O2A C1A 1_555 1_555
O3A C2A 1_555 1_555
O4A Ho1 1_555 1_555
O5A C7A 1_555 1_555
O5_2 Ho1 1_555 1_555
O5A_2 Ho1A 1_555 1_555
O6A C4A 1_555 1_555
O6A_2 Ho1 1_555 1_555
O6_2 Ho1A 1_555 1_555
O7A C8A 1_555 1_555
O7A_2 Ho1A 1_555 1_555
O8A C8A 1_555 1_555
O9A C13 1_555 1_555
O10A C14A 1_555 1_555
O11A C14A 1_555 1_555
O13A Ho1A 1_555 1_555
H5A O13A 1_555 1_555
H6A O13A 1_555 1_555
O14A Ho1A 1_555 1_555
H7A O14A 1_555 1_555
H8A O14A 1_555 1_555
O15A Ho1A 1_555 1_555
H9A O15A 1_555 1_555
H10A O15A 1_555 1_555
C6 O3 1_555 1_555
C8 O7 1_555 1_555
C1A O1A 1_555 1_555
C6A O3A 1_555 1_555
C7A O4A 1_555 1_555
C9A O9A 1_555 1_555
C12A C13A 1_555 1_555

#END
