
#######################################################################
#
#                 Cambridge Crystallographic Data Centre
#                                CCDC 
#
#######################################################################
#
# If this CIF has been generated from an entry in the Cambridge 
# Structural Database, then it will include bibliographic, chemical, 
# crystal, experimental, refinement or atomic coordinate data resulting 
# from the CCDC's data processing and validation procedures.
#
#######################################################################

data_SADTEY02
_symmetry_cell_setting           monoclinic
_symmetry_space_group_name_H-M   'P 21/c'
_symmetry_Int_Tables_number      14
_space_group_name_Hall           '-P 2ybc'
loop_
_symmetry_equiv_pos_site_id
_symmetry_equiv_pos_as_xyz
1 x,y,z
2 -x,1/2+y,1/2-z
3 -x,-y,-z
4 x,1/2-y,1/2+z
_cell_length_a                   7.3319(15)
_cell_length_b                   12.459(3)
_cell_length_c                   18.157(4)
_cell_angle_alpha                90
_cell_angle_beta                 100.93(3)
_cell_angle_gamma                90
_cell_volume                     1628.52
loop_
_atom_site_label
_atom_site_type_symbol
_atom_site_fract_x
_atom_site_fract_y
_atom_site_fract_z
Zn1 Zn 0.35435(3) 0.259168(15) 0.383793(10)
C1 C 0.2633(2) 0.05475(13) 0.45314(8)
C2 C 0.2365(3) 0.03075(14) 0.32504(9)
H1 H 0.2436 0.0587 0.2782
C3 C 0.1848(3) -0.07555(14) 0.33003(9)
H2 H 0.1591 -0.1181 0.2872
C4 C 0.1718(2) -0.11791(13) 0.39945(9)
C5 C 0.2095(2) -0.05039(13) 0.46146(9)
H3 H 0.1985 -0.0759 0.5086
C6 C 0.3127(2) 0.13031(13) 0.51795(8)
C7 C 0.4169(2) 0.30019(14) 0.55583(9)
H4 H 0.4586 0.3674 0.5440
C8 C 0.4075(3) 0.27893(14) 0.62965(9)
H5 H 0.4392 0.3313 0.6663
C9 C 0.3502(2) 0.17824(13) 0.64816(9)
C10 C 0.3050(2) 0.10243(13) 0.59153(8)
H6 H 0.2699 0.0335 0.6027
C11 C 0.3417(2) 0.15294(14) 0.72948(9)
C12 C 0.1215(2) -0.23506(14) 0.40922(10)
N1 N 0.2765(2) 0.09466(11) 0.38526(7)
N2 N 0.36876(19) 0.22878(10) 0.50042(7)
O1 O 0.1146(2) -0.26521(9) 0.47421(7)
O2 O 0.0914(2) -0.29264(11) 0.35182(7)
O3 O 0.35374(19) 0.23358(9) 0.77177(6)
O4 O 0.3273(2) 0.05737(10) 0.74792(7)
O5 O 0.64229(19) 0.22612(12) 0.39471(7)
H7 H 0.6823(19) 0.2164(18) 0.3552(5)
H8 H 0.7242(18) 0.2382(16) 0.4331(7)
O6 O 0.06947(19) 0.30220(11) 0.36850(8)
H9 H -0.0111(17) 0.2556(10) 0.3492(12)
H10 H 0.037(3) 0.3679(7) 0.3657(12)
O7 O 0.40785(18) 0.42830(10) 0.39902(6)
H11 H 0.5218(11) 0.4337(16) 0.4198(10)
H12 H 0.391(3) 0.4454(14) 0.3527(4)
Zn1C Zn 0.35435(3) 0.240832(15) 0.883793(10)
O3C O 0.35374(19) 0.26642(9) 0.27177(6)
O8 O 0.9261(2) 0.50513(11) 0.35989(8)
H13 H 0.8823(19) 0.5052(19) 0.3999(5)
H14 H 0.9847(19) 0.5636(8) 0.3573(12)
O9 O 0.24187(19) 0.53599(10) 0.51467(7)
H15 H 0.187(2) 0.5947(8) 0.4991(10)
H16 H 0.243(3) 0.5016(11) 0.4741(6)
O10 O 0.8110(2) 0.15336(11) 0.28149(8)
H17 H 0.767(2) 0.0906(7) 0.2786(13)
H18 H 0.831(2) 0.1745(16) 0.2393(5)
loop_
_geom_bond_atom_site_label_1
_geom_bond_atom_site_label_2
_geom_bond_site_symmetry_1
_geom_bond_site_symmetry_2
Zn1 N1 1_555 1_555
C1 C5 1_555 1_555
C2 H1 1_555 1_555
C3 C2 1_555 1_555
H2 C3 1_555 1_555
C4 C3 1_555 1_555
C5 C4 1_555 1_555
H3 C5 1_555 1_555
C6 C1 1_555 1_555
C7 H4 1_555 1_555
C8 C7 1_555 1_555
H5 C8 1_555 1_555
C9 C8 1_555 1_555
C10 C6 1_555 1_555
H6 C10 1_555 1_555
C11 C9 1_555 1_555
C12 C4 1_555 1_555
N1 C1 1_555 1_555
N2 Zn1 1_555 1_555
O1 C12 1_555 1_555
O2 C12 1_555 1_555
O3 C11 1_555 1_555
O4 C11 1_555 1_555
O5 Zn1 1_555 1_555
H7 O5 1_555 1_555
H8 O5 1_555 1_555
O6 Zn1 1_555 1_555
H9 O6 1_555 1_555
H10 O6 1_555 1_555
O7 Zn1 1_555 1_555
H11 O7 1_555 1_555
H12 O7 1_555 1_555
O8 H13 1_555 1_555
H14 O8 1_555 1_555
O9 H15 1_555 1_555
H16 O9 1_555 1_555
O10 H17 1_555 1_555
H18 O10 1_555 1_555
Zn1C O3 1_555 1_555
O3C Zn1 1_555 1_555
C2 N1 1_555 1_555
C6 N2 1_555 1_555
C7 N2 1_555 1_555
C9 C10 1_555 1_555

#END
