
#######################################################################
#
#                 Cambridge Crystallographic Data Centre
#                                CCDC 
#
#######################################################################
#
# If this CIF has been generated from an entry in the Cambridge 
# Structural Database, then it will include bibliographic, chemical, 
# crystal, experimental, refinement or atomic coordinate data resulting 
# from the CCDC's data processing and validation procedures.
#
#######################################################################

data_SADTEY03
_symmetry_cell_setting           monoclinic
_symmetry_space_group_name_H-M   'P 21/c'
_symmetry_Int_Tables_number      14
_space_group_name_Hall           '-P 2ybc'
loop_
_symmetry_equiv_pos_site_id
_symmetry_equiv_pos_as_xyz
1 x,y,z
2 -x,1/2+y,1/2-z
3 -x,-y,-z
4 x,1/2-y,1/2+z
_cell_length_a                   7.284(5)
_cell_length_b                   12.401(8)
_cell_length_c                   18.037(12)
_cell_angle_alpha                90
_cell_angle_beta                 100.837(8)
_cell_angle_gamma                90
_cell_volume                     1600.21
loop_
_atom_site_label
_atom_site_type_symbol
_atom_site_fract_x
_atom_site_fract_y
_atom_site_fract_z
Zn1 Zn 0.1455(2) 0.2596(1) 0.1163(1)
C1 C 0.1585(16) 0.3461(9) 0.2724(6)
C2 C 0.1474(16) 0.3214(9) 0.3506(6)
C3 C 0.0934(17) 0.2219(9) 0.3706(6)
H1 H 0.0645 0.1687 0.3340
C4 C 0.0809(16) 0.1992(9) 0.4442(6)
H2 H 0.0370 0.1320 0.4557
C5 C 0.1871(14) 0.3683(8) 0.4815(6)
C6 C 0.1959(14) 0.3971(8) 0.4084(5)
H3 H 0.2338 0.4660 0.3976
C7 C 0.2355(15) 0.4452(8) 0.5469(5)
C8 C 0.2632(18) 0.4674(10) 0.6750(6)
H4 H 0.2552 0.4396 0.7222
C9 C 0.3157(16) 0.5768(9) 0.6690(6)
H5 H 0.3396 0.6200 0.7118
C10 C 0.3309(15) 0.6180(8) 0.6021(6)
C11 C 0.2931(15) 0.5504(9) 0.5394(6)
H6 H 0.3067 0.5760 0.4923
C12 C 0.3800(16) 0.7360(9) 0.5915(7)
N1 N 0.1300(13) 0.2708(7) 0.4993(5)
N2 N 0.2257(13) 0.4046(7) 0.6155(4)
O1 O 0.1736(13) 0.4431(7) 0.2514(4)
O2 O 0.1477(12) 0.2677(6) 0.2280(4)
O3 O 0.3850(12) 0.7657(6) 0.5255(4)
O4 O 0.4093(13) 0.7927(6) 0.6487(4)
O5 O 0.0887(11) 0.4286(5) 0.1011(4)
H7 H 0.0764 0.4711 0.1424
H8 H 0.0761 0.4594 0.0534
O6 O -0.1420(11) 0.2258(7) 0.1060(4)
O7 O 0.4265(12) 0.3011(7) 0.1320(5)
H9 H 0.519(7) 0.260(4) 0.141(7)
H10 H 0.467(4) 0.3641(14) 0.1227(13)
H11 H -0.2311 0.2411 0.0543
H12 H -0.2083 0.2059 0.1305
Zn1C Zn 0.1455(2) 0.2404(1) 0.6163(1)
N1C N 0.1300(13) 0.2292(7) -0.0007(5)
N2C N 0.2257(13) 0.0954(7) 0.1155(4)
O8 O 0.7450(11) 0.4634(6) 0.0132(4)
H13 H 0.6882 0.4039 -0.0087
H14 H 0.6772 0.4796 0.0418
O9 O 0.6875(15) 0.1533(8) 0.2187(4)
H15 H 0.673(11) 0.174(6) 0.262(2)
H16 H 0.70(4) 0.085(3) 0.222(7)
O10 O 0.4270(13) 0.0054(6) 0.3610(4)
H17 H 0.4684 0.0674 0.3514
H18 H 0.4393 0.0446 0.4052
loop_
_geom_bond_atom_site_label_1
_geom_bond_atom_site_label_2
_geom_bond_site_symmetry_1
_geom_bond_site_symmetry_2
Zn1 O2 1_555 1_555
C1 C2 1_555 1_555
C2 C3 1_555 1_555
C3 H1 1_555 1_555
C4 C3 1_555 1_555
H2 C4 1_555 1_555
C5 C6 1_555 1_555
C6 C2 1_555 1_555
H3 C6 1_555 1_555
C7 C5 1_555 1_555
C8 H4 1_555 1_555
C9 C8 1_555 1_555
H5 C9 1_555 1_555
C10 C9 1_555 1_555
C11 C7 1_555 1_555
H6 C11 1_555 1_555
C12 C10 1_555 1_555
N1 C4 1_555 1_555
N2 C7 1_555 1_555
O1 C1 1_555 1_555
O2 C1 1_555 1_555
O3 C12 1_555 1_555
O4 C12 1_555 1_555
O5 Zn1 1_555 1_555
H7 O5 1_555 1_555
H8 O5 1_555 1_555
O6 Zn1 1_555 1_555
O7 Zn1 1_555 1_555
H9 O7 1_555 1_555
H10 O7 1_555 1_555
H11 O6 1_555 1_555
H12 O6 1_555 1_555
O8 H13 1_555 1_555
H14 O8 1_555 1_555
O9 H15 1_555 1_555
H16 O9 1_555 1_555
O10 H17 1_555 1_555
H18 O10 1_555 1_555
Zn1C N1 1_555 1_555
N1C Zn1 1_555 1_555
N2C Zn1 1_555 1_555
C5 N1 1_555 1_555
C8 N2 1_555 1_555
C10 C11 1_555 1_555
N2 Zn1C 1_555 1_555

#END
