
#######################################################################
#
#                 Cambridge Crystallographic Data Centre
#                                CCDC 
#
#######################################################################
#
# If this CIF has been generated from an entry in the Cambridge 
# Structural Database, then it will include bibliographic, chemical, 
# crystal, experimental, refinement or atomic coordinate data resulting 
# from the CCDC's data processing and validation procedures.
#
#######################################################################

data_SAFDOU
_symmetry_cell_setting           trigonal
_symmetry_space_group_name_H-M   'P 31 2 1'
_symmetry_Int_Tables_number      152
_space_group_name_Hall           'P 31 2"'
loop_
_symmetry_equiv_pos_site_id
_symmetry_equiv_pos_as_xyz
1 x,y,z
2 -y,x-y,1/3+z
3 -x+y,-x,2/3+z
4 y,x,-z
5 x-y,-y,2/3-z
6 -x,-x+y,1/3-z
_cell_length_a                   9.0521(13)
_cell_length_b                   9.0521(13)
_cell_length_c                   52.470(11)
_cell_angle_alpha                90
_cell_angle_beta                 90
_cell_angle_gamma                120
_cell_volume                     3723.41
loop_
_atom_site_label
_atom_site_type_symbol
_atom_site_fract_x
_atom_site_fract_y
_atom_site_fract_z
Zn1 Zn 0.61691(5) 0.56462(5) 0.031021(7)
Zn2 Zn 0.88114(5) 0.62957(5) 0.139747(7)
O1 O 0.5750(3) 0.3622(3) 0.01178(4)
O2 O 0.8274(3) 0.7528(3) 0.01830(4)
O3 O 0.5961(3) 0.4199(3) -0.03014(4)
O4 O 0.7517(3) 0.4560(3) 0.16515(4)
O5 O 0.9058(3) 0.5436(3) 0.20106(4)
O6 O 0.8978(4) 0.8375(3) 0.15205(5)
N1 N 0.6497(3) 0.5170(3) 0.06693(4)
N2 N 0.7528(3) 0.5425(3) 0.10704(5)
N3 N 0.5940(4) 0.1848(4) -0.01588(5)
N4 N 1.0043(5) 1.0043(5) 0.0000
N5 N 0.6591(4) 0.2963(4) 0.20013(5)
N6 N 1.0000 1.1032(5) 0.1667
C1 C 0.7521(5) 0.8882(5) 0.07206(7)
H1 H 0.6428 0.8215 0.0655
C2 C 0.8316(6) 1.0654(5) 0.07046(8)
H2 H 0.7766 1.1172 0.0627
C3 C 0.9932(6) 1.1629(5) 0.08049(9)
H3 H 1.0462 1.2813 0.0798
C4 C 1.0773(6) 1.0865(5) 0.09152(7)
H4 H 1.1870 1.1536 0.0979
C5 C 0.9985(5) 0.9104(5) 0.09305(6)
H5 H 1.0550 0.8595 0.1005
C6 C 0.8346(5) 0.8100(4) 0.08340(6)
C7 C 0.7473(4) 0.6227(4) 0.08569(6)
C8 C 0.6498(4) 0.3696(4) 0.10177(6)
C9 C 0.6048(5) 0.2254(5) 0.11655(6)
H6 H 0.6466 0.2351 0.1330
C10 C 0.4971(5) 0.0683(5) 0.10609(7)
H7 H 0.4649 -0.0295 0.1157
C11 C 0.4348(5) 0.0531(5) 0.08119(7)
H8 H 0.3630 -0.0549 0.0745
C12 C 0.4772(5) 0.1935(4) 0.06647(7)
H9 H 0.4346 0.1824 0.0500
C13 C 0.5861(4) 0.3535(4) 0.07689(6)
C14 C 0.8556(5) 0.8556(5) 0.0000
C15 C 1.1260(5) 1.0518(6) 0.02054(7)
H10 H 1.0726 0.9779 0.0349
H11 H 1.1649 1.1677 0.0254
H12 H 1.2213 1.0412 0.0150
C16 C 0.5881(4) 0.3284(4) -0.01132(6)
C17 C 0.5966(6) 0.1272(6) -0.04163(7)
H13 H 0.5995 0.2086 -0.0536
H14 H 0.4961 0.0186 -0.0444
H15 H 0.6960 0.1162 -0.0438
C18 C 0.5903(7) 0.0760(6) 0.00490(8)
H16 H 0.6551 0.1457 0.0190
H17 H 0.6388 0.0086 -0.0008
H18 H 0.4744 0.0021 0.0101
C19 C 0.7772(4) 0.4385(4) 0.18828(6)
C20 C 0.5019(5) 0.1739(6) 0.18801(8)
H19 H 0.4878 0.2209 0.1724
H20 H 0.4078 0.1475 0.1992
H21 H 0.5053 0.0717 0.1844
C21 C 0.6793(6) 0.2625(6) 0.22652(8)
H22 H 0.7903 0.3467 0.2324
H23 H 0.6671 0.1512 0.2279
H24 H 0.5936 0.2672 0.2367
C22 C 1.0000 0.9526(5) 0.1667
C23 C 0.8890(7) 1.1336(6) 0.15050(9)
H25 H 0.8378 1.0447 0.1380
H26 H 0.9541 1.2417 0.1421
H27 H 0.8013 1.1346 0.1607
Zn1C Zn 0.56462(5) 0.61691(5) -0.031021(7)
Zn2E Zn 1.11886(5) 0.74843(7) 0.193586(7)
Zn2C Zn 0.62957(5) 0.88114(5) -0.139747(7)
O1C O 0.3622(3) 0.5750(3) -0.01178(4)
O2C O 0.7528(3) 0.8274(3) -0.01830(4)
O3C O 0.4199(3) 0.5961(3) 0.03014(4)
O4E O 1.2483(3) 0.7043(4) 0.16818(4)
O5E O 1.0942(3) 0.6378(4) 0.13227(4)
O6E O 1.1022(4) 0.9397(5) 0.18128(5)
N1C N 0.5170(3) 0.6497(3) -0.06693(4)
N2C N 0.5425(3) 0.7528(3) -0.10704(5)
N2E N 1.2472(3) 0.7897(4) 0.22629(5)
N3C N 0.1848(4) 0.5940(4) 0.01588(5)
N5E N 1.3409(4) 0.6372(6) 0.13320(5)
C1C C 0.8882(5) 0.7521(5) -0.07206(7)
H1C H 0.8215 0.6428 -0.0655
C2C C 1.0654(5) 0.8316(6) -0.07046(8)
H2C H 1.1172 0.7766 -0.0627
C3C C 1.1629(5) 0.9932(6) -0.08049(9)
H3C H 1.2813 1.0462 -0.0798
C4C C 1.0865(5) 1.0773(6) -0.09152(7)
H4C H 1.1536 1.1870 -0.0979
C5C C 0.9104(5) 0.9985(5) -0.09305(6)
H5C H 0.8595 1.0550 -0.1005
C6C C 0.8100(4) 0.8346(5) -0.08340(6)
C7C C 0.6227(4) 0.7473(4) -0.08569(6)
C8C C 0.3696(4) 0.6498(4) -0.10177(6)
C9C C 0.2254(5) 0.6048(5) -0.11655(6)
H6C H 0.2351 0.6466 -0.1330
C10C C 0.0683(5) 0.4971(5) -0.10609(7)
H7C H -0.0295 0.4649 -0.1157
C11C C 0.0531(5) 0.4348(5) -0.08119(7)
H8C H -0.0549 0.3630 -0.0745
C12C C 0.1935(4) 0.4772(5) -0.06647(7)
H9C H 0.1824 0.4346 -0.0500
C13C C 0.3535(4) 0.5861(4) -0.07689(6)
C15C C 1.0518(6) 1.1260(5) -0.02054(7)
H10C H 0.9779 1.0726 -0.0349
H11C H 1.1677 1.1649 -0.0254
H12C H 1.0412 1.2213 -0.0150
C16C C 0.3284(4) 0.5881(4) 0.01132(6)
C17C C 0.1272(6) 0.5966(6) 0.04163(7)
H13C H 0.2086 0.5995 0.0536
H14C H 0.0186 0.4961 0.0444
H15C H 0.1162 0.6960 0.0438
C18C C 0.0760(6) 0.5903(7) -0.00490(8)
H16C H 0.1457 0.6551 -0.0190
H17C H 0.0086 0.6388 0.0008
H18C H 0.0021 0.4744 -0.0101
C19E C 1.2228(4) 0.6613(6) 0.14505(6)
C20E C 1.4981(5) 0.6720(8) 0.14532(8)
H19E H 1.5122 0.7331 0.1609
H20E H 1.5922 0.7397 0.1341
H21E H 1.4947 0.5664 0.1489
C21E C 1.3207(6) 0.5832(8) 0.10681(8)
H22E H 1.2097 0.5564 0.1009
H23E H 1.3329 0.4841 0.1054
H24E H 1.4064 0.6736 0.0966
C23E C 1.1110(7) 1.2446(9) 0.18283(9)
H25E H 1.1622 1.2069 0.1953
H26E H 1.0459 1.2876 0.1912
H27E H 1.1987 1.3333 0.1726
loop_
_geom_bond_atom_site_label_1
_geom_bond_atom_site_label_2
_geom_bond_site_symmetry_1
_geom_bond_site_symmetry_2
Zn1 O1 1_555 1_555
Zn2 O4 1_555 1_555
O1 C16 1_555 1_555
O2 Zn1 1_555 1_555
O3 C16 1_555 1_555
O4 C19 1_555 1_555
O5 C19 1_555 1_555
O6 Zn2 1_555 1_555
N1 Zn1 1_555 1_555
N2 Zn2 1_555 1_555
N3 C16 1_555 1_555
N4 C14 1_555 1_555
N5 C19 1_555 1_555
N6 C22 1_555 1_555
C1 H1 1_555 1_555
C2 C1 1_555 1_555
H2 C2 1_555 1_555
C3 C2 1_555 1_555
H3 C3 1_555 1_555
C4 C3 1_555 1_555
H4 C4 1_555 1_555
C5 C4 1_555 1_555
H5 C5 1_555 1_555
C6 C1 1_555 1_555
C7 N1 1_555 1_555
C8 N2 1_555 1_555
C9 C8 1_555 1_555
H6 C9 1_555 1_555
C10 C9 1_555 1_555
H7 C10 1_555 1_555
C11 C10 1_555 1_555
H8 C11 1_555 1_555
C12 C11 1_555 1_555
H9 C12 1_555 1_555
C13 N1 1_555 1_555
C14 O2 1_555 1_555
C15 N4 1_555 1_555
H10 C15 1_555 1_555
H11 C15 1_555 1_555
H12 C15 1_555 1_555
C17 N3 1_555 1_555
H13 C17 1_555 1_555
H14 C17 1_555 1_555
H15 C17 1_555 1_555
C18 N3 1_555 1_555
H16 C18 1_555 1_555
H17 C18 1_555 1_555
H18 C18 1_555 1_555
C20 N5 1_555 1_555
H19 C20 1_555 1_555
H20 C20 1_555 1_555
H21 C20 1_555 1_555
C21 N5 1_555 1_555
H22 C21 1_555 1_555
H23 C21 1_555 1_555
H24 C21 1_555 1_555
C22 O6 1_555 1_555
C23 N6 1_555 1_555
H25 C23 1_555 1_555
H26 C23 1_555 1_555
H27 C23 1_555 1_555
Zn1C O3 1_555 1_555
Zn2E O5 1_555 1_555
Zn2C N2C 1_555 1_555
O1C Zn1C 1_555 1_555
O2C C14 1_555 1_555
O3C Zn1 1_555 1_555
O4E Zn2E 1_555 1_555
O5E Zn2 1_555 1_555
O6E C22 1_555 1_555
N1C Zn1C 1_555 1_555
N2C C7C 1_555 1_555
N2E Zn2E 1_555 1_555
N3C C16C 1_555 1_555
N5E C19E 1_555 1_555
C1C H1C 1_555 1_555
C2C C1C 1_555 1_555
H2C C2C 1_555 1_555
C3C C2C 1_555 1_555
H3C C3C 1_555 1_555
C4C C3C 1_555 1_555
H4C C4C 1_555 1_555
C5C C4C 1_555 1_555
H5C C5C 1_555 1_555
C6C C1C 1_555 1_555
C7C N1C 1_555 1_555
C8C N2C 1_555 1_555
C9C C8C 1_555 1_555
H6C C9C 1_555 1_555
C10C C9C 1_555 1_555
H7C C10C 1_555 1_555
C11C C10C 1_555 1_555
H8C C11C 1_555 1_555
C12C C11C 1_555 1_555
H9C C12C 1_555 1_555
C13C N1C 1_555 1_555
C15C N4 1_555 1_555
H10C C15C 1_555 1_555
H11C C15C 1_555 1_555
H12C C15C 1_555 1_555
C16C O1C 1_555 1_555
C17C N3C 1_555 1_555
H13C C17C 1_555 1_555
H14C C17C 1_555 1_555
H15C C17C 1_555 1_555
C18C N3C 1_555 1_555
H16C C18C 1_555 1_555
H17C C18C 1_555 1_555
H18C C18C 1_555 1_555
C19E O4E 1_555 1_555
C20E N5E 1_555 1_555
H19E C20E 1_555 1_555
H20E C20E 1_555 1_555
H21E C20E 1_555 1_555
C21E N5E 1_555 1_555
H22E C21E 1_555 1_555
H23E C21E 1_555 1_555
H24E C21E 1_555 1_555
C23E N6 1_555 1_555
H25E C23E 1_555 1_555
H26E C23E 1_555 1_555
H27E C23E 1_555 1_555
N2 C7 1_555 1_555
C5 C6 1_555 1_555
C6 C7 1_555 1_555
C8 C13 1_555 1_555
C12 C13 1_555 1_555
Zn1C O2C 1_555 1_555
Zn2E O6E 1_555 1_555
O3C C16C 1_555 1_555
O5E C19E 1_555 1_555
C5C C6C 1_555 1_555
C6C C7C 1_555 1_555
C8C C13C 1_555 1_555
C12C C13C 1_555 1_555

#END
