
#######################################################################
#
#                 Cambridge Crystallographic Data Centre
#                                CCDC 
#
#######################################################################
#
# If this CIF has been generated from an entry in the Cambridge 
# Structural Database, then it will include bibliographic, chemical, 
# crystal, experimental, refinement or atomic coordinate data resulting 
# from the CCDC's data processing and validation procedures.
#
#######################################################################

data_SAFWAY
_symmetry_cell_setting           orthorhombic
_symmetry_space_group_name_H-M   'P b c a'
_symmetry_Int_Tables_number      61
_space_group_name_Hall           '-P 2ac 2ab'
loop_
_symmetry_equiv_pos_site_id
_symmetry_equiv_pos_as_xyz
1 x,y,z
2 1/2+x,y,1/2-z
3 x,1/2-y,1/2+z
4 1/2-x,1/2+y,z
5 -x,-y,-z
6 1/2-x,-y,1/2+z
7 -x,1/2+y,1/2-z
8 1/2+x,1/2-y,-z
_cell_length_a                   13.6228(8)
_cell_length_b                   20.5638(12)
_cell_length_c                   22.3082(13)
_cell_angle_alpha                90
_cell_angle_beta                 90
_cell_angle_gamma                90
_cell_volume                     6249.34
loop_
_atom_site_label
_atom_site_type_symbol
_atom_site_fract_x
_atom_site_fract_y
_atom_site_fract_z
Zn1 Zn 0.17581(3) 0.22070(2) 0.52049(2)
S1 S 0.49649(7) -0.03167(5) 0.39630(5)
S2 S 0.68555(8) -0.01039(6) 0.17875(6)
Cl1 Cl 0.21833(12) 0.27396(6) 0.60245(6)
Cl2 Cl 0.03368(9) 0.17038(7) 0.50995(7)
N1 N 0.2881(2) 0.15965(16) 0.49686(15)
N2 N 0.8093(2) -0.21209(16) 0.04798(16)
C1 C 0.4573(3) 0.1409(2) 0.48125(19)
H1 H 0.5212 0.1557 0.4867
C2 C 0.3810(3) 0.1769(2) 0.5014(2)
H2 H 0.3951 0.2164 0.5198
C3 C 0.2702(3) 0.1022(2) 0.4703(2)
H3 H 0.2056 0.0880 0.4669
C4 C 0.3436(3) 0.06391(19) 0.4483(2)
H4 H 0.3278 0.0246 0.4301
C5 C 0.4408(2) 0.08235(17) 0.45262(17)
C6 C 0.5201(3) 0.04274(17) 0.42840(17)
C7 C 0.6173(3) 0.05577(18) 0.42495(18)
H5 H 0.6447 0.0937 0.4403
C8 C 0.6743(3) 0.00697(18) 0.39599(18)
C9 C 0.6178(3) -0.04440(18) 0.37872(18)
C10 C 0.6477(3) -0.10658(19) 0.3497(2)
H6 H 0.6375 -0.1035 0.3072
H7 H 0.6091 -0.1416 0.3656
H8 H 0.7159 -0.1147 0.3576
C11 C 0.7797(3) 0.0123(2) 0.3862(2)
C12 C 0.8510(3) 0.0326(3) 0.4350(2)
H9 H 0.8448 0.0787 0.4438
H10 H 0.8397 0.0081 0.4715
C13 C 0.9507(3) 0.0175(4) 0.4092(3)
H11 H 0.9771 -0.0217 0.4272
H12 H 0.9958 0.0531 0.4169
C14 C 0.9375(3) 0.0082(3) 0.3426(3)
H13 H 0.9624 0.0453 0.3204
H14 H 0.9708 -0.0308 0.3289
C15 C 0.8283(3) 0.0020(2) 0.3353(2)
C16 C 0.7865(3) -0.0125(2) 0.2739(2)
C17 C 0.7152(3) 0.0227(2) 0.2468(2)
C18 C 0.6631(4) 0.0837(2) 0.2671(2)
H15 H 0.6038 0.0721 0.2877
H16 H 0.6474 0.1099 0.2328
H17 H 0.7050 0.1078 0.2936
C19 C 0.8183(3) -0.0658(2) 0.2397(2)
H18 H 0.8675 -0.0940 0.2522
C20 C 0.7702(3) -0.0724(2) 0.18621(19)
C21 C 0.7811(3) -0.1210(2) 0.14010(18)
C22 C 0.8558(3) -0.1681(2) 0.14250(19)
H19 H 0.8980 -0.1694 0.1753
C23 C 0.8667(3) -0.2118(2) 0.0971(2)
H20 H 0.9161 -0.2429 0.1001
C24 C 0.7379(3) -0.1679(2) 0.0460(2)
H21 H 0.6968 -0.1678 0.0127
C25 C 0.7214(3) -0.1229(2) 0.08951(19)
H22 H 0.6702 -0.0933 0.0855
N2F N 0.1907(2) 0.28791(16) 0.45202(16)
Zn1F Zn 0.82419(3) -0.27930(2) -0.02049(2)
O1 O 0.4957(6) 0.3330(4) 0.2669(4)
N3 N 0.4211(5) 0.2365(3) 0.2892(4)
C26 C 0.4853(10) 0.2806(7) 0.3082(7)
H23 H 0.5194 0.2775 0.3443
C27 C 0.3906(11) 0.2229(6) 0.2300(6)
H24 H 0.3443 0.2553 0.2172
H25 H 0.3601 0.1808 0.2287
H26 H 0.4465 0.2234 0.2038
C28 C 0.3975(10) 0.1927(8) 0.3402(7)
H27 H 0.4181 0.2126 0.3771
H28 H 0.4312 0.1520 0.3351
H29 H 0.3280 0.1851 0.3415
loop_
_geom_bond_atom_site_label_1
_geom_bond_atom_site_label_2
_geom_bond_site_symmetry_1
_geom_bond_site_symmetry_2
Zn1 Cl1 1_555 1_555
S1 C6 1_555 1_555
S2 C17 1_555 1_555
Cl2 Zn1 1_555 1_555
O1 C26 1_555 1_555
N1 Zn1 1_555 1_555
N2 C23 1_555 1_555
N3 C26 1_555 1_555
C1 H1 1_555 1_555
C2 N1 1_555 1_555
H2 C2 1_555 1_555
C3 N1 1_555 1_555
H3 C3 1_555 1_555
C4 C3 1_555 1_555
H4 C4 1_555 1_555
C5 C1 1_555 1_555
C6 C5 1_555 1_555
C7 C6 1_555 1_555
H5 C7 1_555 1_555
C8 C7 1_555 1_555
C9 S1 1_555 1_555
C10 C9 1_555 1_555
H6 C10 1_555 1_555
H7 C10 1_555 1_555
H8 C10 1_555 1_555
C11 C8 1_555 1_555
C12 C11 1_555 1_555
H9 C12 1_555 1_555
H10 C12 1_555 1_555
C13 C12 1_555 1_555
H11 C13 1_555 1_555
H12 C13 1_555 1_555
C14 C13 1_555 1_555
H13 C14 1_555 1_555
H14 C14 1_555 1_555
C15 C11 1_555 1_555
C16 C15 1_555 1_555
C17 C16 1_555 1_555
C18 C17 1_555 1_555
H15 C18 1_555 1_555
H16 C18 1_555 1_555
H17 C18 1_555 1_555
C19 C16 1_555 1_555
H18 C19 1_555 1_555
C20 S2 1_555 1_555
C21 C20 1_555 1_555
C22 C21 1_555 1_555
H19 C22 1_555 1_555
C23 C22 1_555 1_555
H20 C23 1_555 1_555
C24 N2 1_555 1_555
H21 C24 1_555 1_555
C25 C21 1_555 1_555
H22 C25 1_555 1_555
C26 H23 1_555 1_555
C27 N3 1_555 1_555
H24 C27 1_555 1_555
H25 C27 1_555 1_555
H26 C27 1_555 1_555
C28 N3 1_555 1_555
H27 C28 1_555 1_555
H28 C28 1_555 1_555
H29 C28 1_555 1_555
N2F Zn1 1_555 1_555
Zn1F N2 1_555 1_555
C1 C2 1_555 1_555
C4 C5 1_555 1_555
C8 C9 1_555 1_555
C14 C15 1_555 1_555
C19 C20 1_555 1_555
C24 C25 1_555 1_555

#END
