
#######################################################################
#
#                 Cambridge Crystallographic Data Centre
#                                CCDC 
#
#######################################################################
#
# If this CIF has been generated from an entry in the Cambridge 
# Structural Database, then it will include bibliographic, chemical, 
# crystal, experimental, refinement or atomic coordinate data resulting 
# from the CCDC's data processing and validation procedures.
#
#######################################################################

data_SAGHUE
_symmetry_cell_setting           monoclinic
_symmetry_space_group_name_H-M   'P 21/n'
_symmetry_Int_Tables_number      14
_space_group_name_Hall           '-P 2yn'
loop_
_symmetry_equiv_pos_site_id
_symmetry_equiv_pos_as_xyz
1 x,y,z
2 1/2+x,1/2-y,1/2+z
3 -x,-y,-z
4 1/2-x,1/2+y,1/2-z
_cell_length_a                   8.601(4)
_cell_length_b                   8.515(4)
_cell_length_c                   15.276(7)
_cell_angle_alpha                90
_cell_angle_beta                 92.154(8)
_cell_angle_gamma                90
_cell_volume                     1117.99
loop_
_atom_site_label
_atom_site_type_symbol
_atom_site_fract_x
_atom_site_fract_y
_atom_site_fract_z
Mn1 Mn 0.5000 0.5000 0.5000
N1 N 0.8206(2) 0.1217(2) 0.58523(13)
N2 N 0.7516(2) 0.0452(2) 0.51530(14)
N3 N 0.6332(2) 0.2766(2) 0.53835(14)
N4 N 0.8712(2) -0.2153(2) 0.62059(12)
N5 N 0.9567(2) -0.2751(2) 0.55510(14)
N6 N 0.7106(2) -0.3672(2) 0.54685(13)
N7 N 0.2062(3) 0.5965(3) 0.73858(16)
N8 N 0.4008(2) 0.5362(3) 0.63066(14)
N9 N -0.0415(3) 0.4541(3) 0.75330(18)
C1 C 0.6411(3) 0.1426(3) 0.49035(17)
H1 H 0.5728 0.1216 0.4432
C2 C 0.7498(3) 0.2583(3) 0.59697(15)
H2 H 0.7779 0.3309 0.6402
C3 C 0.8544(3) -0.3647(3) 0.51273(17)
H3 H 0.8786 -0.4220 0.4632
C4 C 0.7269(3) -0.2705(3) 0.61462(15)
H4 H 0.6486 -0.2451 0.6525
C5 C 0.9613(3) 0.0595(3) 0.62889(16)
H5 H 1.0029 0.1373 0.6698
H6 H 1.0387 0.0410 0.5855
C6 C 0.9330(3) -0.0924(3) 0.67800(16)
H7 H 1.0301 -0.1279 0.7057
H8 H 0.8603 -0.0728 0.7238
C7 C 0.3038(3) 0.5595(3) 0.67918(16)
C8 C 0.0766(3) 0.5163(3) 0.74390(17)
N1B N 0.1794(2) 0.8783(2) 0.41477(13)
N2B N 0.2484(2) 0.9548(2) 0.48470(14)
N3B N 0.3668(2) 0.7234(2) 0.46165(14)
N4B N 0.1288(2) 1.2153(2) 0.37941(12)
N5B N 0.0433(2) 1.2751(2) 0.44490(14)
N6B N 0.2894(2) 1.3672(2) 0.45315(13)
C1B C 0.3589(3) 0.8574(3) 0.50965(17)
H1B H 0.4272 0.8784 0.5568
C2B C 0.2502(3) 0.7417(3) 0.40303(15)
H2B H 0.2221 0.6691 0.3598
C3B C 0.1456(3) 1.3647(3) 0.48727(17)
H3B H 0.1214 1.4220 0.5368
C4B C 0.2731(3) 1.2705(3) 0.38538(15)
H4B H 0.3514 1.2451 0.3475
C5B C 0.0387(3) 0.9405(3) 0.37111(16)
H5B H -0.0029 0.8627 0.3302
H6B H -0.0387 0.9590 0.4145
C6B C 0.0670(3) 1.0924(3) 0.32200(16)
H7B H -0.0301 1.1279 0.2943
H8B H 0.1397 1.0728 0.2762
N7B N 0.7938(3) 0.4035(3) 0.26142(16)
N8B N 0.5992(2) 0.4638(3) 0.36934(14)
N9B N 1.0415(3) 0.5459(3) 0.24670(18)
C7B C 0.6962(3) 0.4405(3) 0.32082(16)
C8B C 0.9234(3) 0.4837(3) 0.25610(17)
N6_2 N 0.7106(2) 0.6328(2) 0.54685(13)
N6B_2 N 0.2894(2) 0.3672(2) 0.45315(13)
Mn1_2 Mn 0.5000 -0.5000 0.5000
Mn1_3 Mn 0.5000 1.5000 0.5000
loop_
_geom_bond_atom_site_label_1
_geom_bond_atom_site_label_2
_geom_bond_site_symmetry_1
_geom_bond_site_symmetry_2
Mn1 N3 1_555 1_555
N1 N2 1_555 1_555
N2 C1 1_555 1_555
N3 C1 1_555 1_555
N4 N5 1_555 1_555
N5 C3 1_555 1_555
N6 C3 1_555 1_555
N7 C7 1_555 1_555
N8 Mn1 1_555 1_555
N9 C8 1_555 1_555
C1 H1 1_555 1_555
C2 N1 1_555 1_555
H2 C2 1_555 1_555
C3 H3 1_555 1_555
C4 N4 1_555 1_555
H4 C4 1_555 1_555
C5 N1 1_555 1_555
H5 C5 1_555 1_555
H6 C5 1_555 1_555
C6 N4 1_555 1_555
H7 C6 1_555 1_555
H8 C6 1_555 1_555
C7 N8 1_555 1_555
C8 N7 1_555 1_555
N1B N2B 1_555 1_555
N2B C1B 1_555 1_555
N3B Mn1 1_555 1_555
N4B N5B 1_555 1_555
N5B C3B 1_555 1_555
N6B C3B 1_555 1_555
C1B N3B 1_555 1_555
H1B C1B 1_555 1_555
C2B N1B 1_555 1_555
H2B C2B 1_555 1_555
C3B H3B 1_555 1_555
C4B N4B 1_555 1_555
H4B C4B 1_555 1_555
C5B N1B 1_555 1_555
H5B C5B 1_555 1_555
H6B C5B 1_555 1_555
C6B N4B 1_555 1_555
H7B C6B 1_555 1_555
H8B C6B 1_555 1_555
N7B C7B 1_555 1_555
N8B Mn1 1_555 1_555
N9B C8B 1_555 1_555
C7B N8B 1_555 1_555
C8B N7B 1_555 1_555
N6_2 Mn1 1_555 1_555
N6B_2 Mn1 1_555 1_555
Mn1_2 N6 1_555 1_555
Mn1_3 N6B 1_555 1_555
N3 C2 1_555 1_555
N6 C4 1_555 1_555
C5 C6 1_555 1_555
N3B C2B 1_555 1_555
N6B C4B 1_555 1_555
C5B C6B 1_555 1_555

#END
