
#######################################################################
#
#                 Cambridge Crystallographic Data Centre
#                                CCDC 
#
#######################################################################
#
# If this CIF has been generated from an entry in the Cambridge 
# Structural Database, then it will include bibliographic, chemical, 
# crystal, experimental, refinement or atomic coordinate data resulting 
# from the CCDC's data processing and validation procedures.
#
#######################################################################

data_SAGHOY
_symmetry_cell_setting           triclinic
_symmetry_space_group_name_H-M   'P -1'
_symmetry_Int_Tables_number      2
_space_group_name_Hall           '-P 1'
loop_
_symmetry_equiv_pos_site_id
_symmetry_equiv_pos_as_xyz
1 x,y,z
2 -x,-y,-z
_cell_length_a                   7.923(3)
_cell_length_b                   8.350(3)
_cell_length_c                   14.880(5)
_cell_angle_alpha                86.372(10)
_cell_angle_beta                 76.164(10)
_cell_angle_gamma                79.421(9)
_cell_volume                     939.413
loop_
_atom_site_label
_atom_site_type_symbol
_atom_site_fract_x
_atom_site_fract_y
_atom_site_fract_z
Mn1 Mn 0.5000 0.5000 0.5000
N1 N 0.12223(18) 0.17067(17) 0.50217(9)
N2 N 0.01319(18) 0.28159(18) 0.56263(11)
N3 N 0.28774(18) 0.33867(17) 0.52481(10)
N4 N 0.3441(2) 0.65607(19) 0.61462(10)
O1 O 0.36255(17) 0.66594(16) 0.41012(9)
H1 H 0.256(4) 0.671(3) 0.4144(18)
H2 H 0.410(4) 0.672(3) 0.3546(19)
S1 S 0.24498(7) 0.94753(6) 0.71083(4)
C1 C 0.1196(2) 0.3793(2) 0.57407(12)
H3 H 0.0811 0.4703 0.6136
C2 C 0.2841(2) 0.2063(2) 0.48117(11)
H4 H 0.3830 0.1454 0.4406
C3 C 0.0550(2) 0.0473(2) 0.46212(12)
H5 H 0.1551 -0.0290 0.4257
H6 H -0.0185 0.1005 0.4197
C4 C 0.3022(2) 0.7768(2) 0.65514(11)
C3A C -0.0550(2) -0.0473(2) 0.53788(12)
N1A N -0.12223(18) -0.17067(17) 0.49783(9)
N2A N -0.01319(18) -0.28159(18) 0.43737(11)
C1A C -0.1196(2) -0.3793(2) 0.42593(12)
N3A N -0.28774(18) -0.33867(17) 0.47519(10)
C2A C -0.2841(2) -0.2063(2) 0.51883(11)
H4A H -0.3830 -0.1454 0.5594
H3A H -0.0811 -0.4703 0.3864
H5A H -0.1551 0.0290 0.5743
H6A H 0.0185 -0.1005 0.5803
N4A N 0.6559(2) 0.34393(19) 0.38538(10)
S1A S 0.75502(7) 0.05247(6) 0.28917(4)
C4A C 0.6978(2) 0.2232(2) 0.34486(11)
O1A O 0.63745(17) 0.33406(16) 0.58988(9)
H1A H 0.744(4) 0.329(3) 0.5856(18)
H2A H 0.590(4) 0.328(3) 0.6454(19)
N3A_2 N 0.71226(18) 0.66133(17) 0.47519(10)
Mn1_2 Mn -0.5000 -0.5000 0.5000
Mn2 Mn 0.0000 0.5000 0.0000
N5 N 0.19509(18) 0.86620(16) 0.12239(9)
N6 N 0.2411(2) 0.9251(2) 0.03451(11)
N7 N 0.1076(2) 0.70963(18) 0.03839(10)
N8 N 0.54237(18) 0.80312(17) 0.16127(9)
N9 N 0.5435(2) 0.6814(2) 0.22544(11)
N10 N 0.74290(19) 0.60512(18) 0.09464(10)
N11 N 0.0788(2) 0.36036(19) 0.11813(11)
S2 S 0.23498(8) 0.35804(7) 0.26784(4)
C5 C 0.1846(3) 0.8269(2) -0.01306(13)
H7 H 0.1971 0.8377 -0.0782
C6 C 0.1172(2) 0.7393(2) 0.12339(12)
H8 H 0.0741 0.6780 0.1772
C7 C 0.6657(3) 0.5654(2) 0.18203(13)
H9 H 0.6970 0.4622 0.2100
C8 C 0.6608(2) 0.7561(2) 0.08441(11)
H10 H 0.6837 0.8212 0.0297
C9 C 0.2323(2) 0.9395(2) 0.20032(12)
H11 H 0.2046 0.8699 0.2564
H12 H 0.1560 1.0475 0.2123
C10 C 0.4244(2) 0.9589(2) 0.18101(13)
H13 H 0.4499 1.0346 0.1275
H14 H 0.4462 1.0071 0.2354
C11 C 0.1436(2) 0.3587(2) 0.18059(12)
N5A N -0.19509(18) 0.13380(16) -0.12239(9)
N6A N -0.2411(2) 0.0749(2) -0.03451(11)
N7A N -0.1076(2) 0.29037(18) -0.03839(10)
N8A N -0.54237(18) 0.19688(17) -0.16127(9)
N9A N -0.5435(2) 0.3186(2) -0.22544(11)
N10A N -0.74290(19) 0.39488(18) -0.09464(10)
C5A C -0.1846(3) 0.1731(2) 0.01306(13)
H7A H -0.1971 0.1623 0.0782
C6A C -0.1172(2) 0.2607(2) -0.12339(12)
H8A H -0.0741 0.3220 -0.1772
C7A C -0.6657(3) 0.4346(2) -0.18203(13)
H9A H -0.6970 0.5378 -0.2100
C8A C -0.6608(2) 0.2439(2) -0.08441(11)
H10A H -0.6837 0.1788 -0.0297
C9A C -0.2323(2) 0.0605(2) -0.20032(12)
H11A H -0.2046 0.1301 -0.2564
H12A H -0.1560 -0.0475 -0.2123
C10A C -0.4244(2) 0.0411(2) -0.18101(13)
H13A H -0.4499 -0.0346 -0.1275
H14A H -0.4462 -0.0071 -0.2354
N11A N -0.0788(2) 0.63964(19) -0.11813(11)
S2A S -0.23498(8) 0.64196(7) -0.26784(4)
C11A C -0.1436(2) 0.6413(2) -0.18059(12)
N10_2 N -0.25710(19) 0.60512(18) 0.09464(10)
N10A_2 N 0.25710(19) 0.39488(18) -0.09464(10)
Mn2_2 Mn 1.0000 0.5000 0.0000
Mn2_3 Mn -1.0000 0.5000 0.0000
loop_
_geom_bond_atom_site_label_1
_geom_bond_atom_site_label_2
_geom_bond_site_symmetry_1
_geom_bond_site_symmetry_2
Mn1 N3 1_555 1_555
Mn2 N7 1_555 1_555
N1 N2 1_555 1_555
N2 C1 1_555 1_555
N3 C1 1_555 1_555
N4 Mn1 1_555 1_555
N5 N6 1_555 1_555
N6 C5 1_555 1_555
N7 C5 1_555 1_555
N8 N9 1_555 1_555
N9 C7 1_555 1_555
N10 C7 1_555 1_555
N11 Mn2 1_555 1_555
O1 Mn1 1_555 1_555
H1 O1 1_555 1_555
H2 O1 1_555 1_555
S1 C4 1_555 1_555
S2 C11 1_555 1_555
C1 H3 1_555 1_555
C2 N1 1_555 1_555
H4 C2 1_555 1_555
C3 N1 1_555 1_555
H5 C3 1_555 1_555
H6 C3 1_555 1_555
C4 N4 1_555 1_555
C5 H7 1_555 1_555
C6 N5 1_555 1_555
H8 C6 1_555 1_555
C7 H9 1_555 1_555
C8 N8 1_555 1_555
H10 C8 1_555 1_555
C9 N5 1_555 1_555
H11 C9 1_555 1_555
H12 C9 1_555 1_555
C10 N8 1_555 1_555
H13 C10 1_555 1_555
H14 C10 1_555 1_555
C11 N11 1_555 1_555
C3A C3 1_555 1_555
N1A C3A 1_555 1_555
N2A N1A 1_555 1_555
C1A N2A 1_555 1_555
N3A C1A 1_555 1_555
C2A N1A 1_555 1_555
H4A C2A 1_555 1_555
H3A C1A 1_555 1_555
H5A C3A 1_555 1_555
H6A C3A 1_555 1_555
N4A Mn1 1_555 1_555
S1A C4A 1_555 1_555
C4A N4A 1_555 1_555
O1A Mn1 1_555 1_555
H1A O1A 1_555 1_555
H2A O1A 1_555 1_555
N5A N6A 1_555 1_555
N6A C5A 1_555 1_555
N7A Mn2 1_555 1_555
N8A N9A 1_555 1_555
N9A C7A 1_555 1_555
N10A C7A 1_555 1_555
C5A N7A 1_555 1_555
H7A C5A 1_555 1_555
C6A N5A 1_555 1_555
H8A C6A 1_555 1_555
C7A H9A 1_555 1_555
C8A N8A 1_555 1_555
H10A C8A 1_555 1_555
C9A N5A 1_555 1_555
H11A C9A 1_555 1_555
H12A C9A 1_555 1_555
C10A N8A 1_555 1_555
H13A C10A 1_555 1_555
H14A C10A 1_555 1_555
N11A Mn2 1_555 1_555
S2A C11A 1_555 1_555
C11A N11A 1_555 1_555
N3A_2 Mn1 1_555 1_555
N10_2 Mn2 1_555 1_555
N10A_2 Mn2 1_555 1_555
Mn2_2 N10 1_555 1_555
Mn1_2 N3A 1_555 1_555
Mn2_3 N10A 1_555 1_555
N3 C2 1_555 1_555
N7 C6 1_555 1_555
N10 C8 1_555 1_555
C9 C10 1_555 1_555
N3A C2A 1_555 1_555
N7A C6A 1_555 1_555
N10A C8A 1_555 1_555
C9A C10A 1_555 1_555

#END
