
#######################################################################
#
#                 Cambridge Crystallographic Data Centre
#                                CCDC 
#
#######################################################################
#
# If this CIF has been generated from an entry in the Cambridge 
# Structural Database, then it will include bibliographic, chemical, 
# crystal, experimental, refinement or atomic coordinate data resulting 
# from the CCDC's data processing and validation procedures.
#
#######################################################################

data_SAGKER
_symmetry_cell_setting           orthorhombic
_symmetry_space_group_name_H-M   'C 2 2 21'
_symmetry_Int_Tables_number      20
_space_group_name_Hall           'C 2n 2'
loop_
_symmetry_equiv_pos_site_id
_symmetry_equiv_pos_as_xyz
1 x,y,z
2 -x,-y,1/2+z
3 -x,y,1/2-z
4 x,-y,-z
5 1/2+x,1/2+y,z
6 1/2-x,1/2-y,1/2+z
7 1/2-x,1/2+y,1/2-z
8 1/2+x,1/2-y,-z
_cell_length_a                   6.534(2)
_cell_length_b                   15.441(5)
_cell_length_c                   9.230(3)
_cell_angle_alpha                90
_cell_angle_beta                 90
_cell_angle_gamma                90
_cell_volume                     931.228
loop_
_atom_site_label
_atom_site_type_symbol
_atom_site_fract_x
_atom_site_fract_y
_atom_site_fract_z
Ag1 Ag 0.14166(5) -0.5000 -0.5000
V1 V -0.5000 -0.51490(4) -0.2500
O1 O -0.5863(3) -0.57550(13) -0.3792(2)
O2 O -0.2334(3) -0.48017(12) -0.3357(2)
O3 O -0.0299(4) -0.37663(14) -0.4231(2)
N1 N -0.5000 -0.37979(18) -0.2500
C1 C -0.3436(5) -0.33774(18) -0.3081(3)
C2 C -0.3378(5) -0.2484(2) -0.3109(4)
H1 H -0.2283 -0.2190 -0.3524
C3 C -0.5000 -0.2045(3) -0.2500
H2 H -0.5000 -0.1443 -0.2500
C4 C -0.1874(4) -0.4002(2) -0.3627(3)
C1B C -0.6564(5) -0.33774(18) -0.1919(3)
C2B C -0.6622(5) -0.2484(2) -0.1891(4)
H1B H -0.7717 -0.2190 -0.1476
C4B C -0.8126(4) -0.4002(2) -0.1373(3)
O2B O -0.7666(3) -0.48017(12) -0.1643(2)
O3B O -0.9701(4) -0.37663(14) -0.0769(2)
O1C O 0.4137(3) -0.42450(13) -0.6208(2)
O3C O -0.0299(4) -0.62337(14) -0.5769(2)
Ag1A Ag -1.14166(5) -0.5000 0.0000
O1_2 O 0.4137(3) -0.57550(13) -0.3792(2)
O1B O -0.4137(3) -0.57550(13) -0.1208(2)
Ag1_2 Ag -0.85834(5) -0.5000 -0.5000
Ag1A_2 Ag -0.14166(5) -0.5000 0.0000
loop_
_geom_bond_atom_site_label_1
_geom_bond_atom_site_label_2
_geom_bond_site_symmetry_1
_geom_bond_site_symmetry_2
Ag1 O3 1_555 1_555
V1 O1 1_555 1_555
O1 Ag1_2 1_555 1_555
O2 V1 1_555 1_555
O3 C4 1_555 1_555
N1 V1 1_555 1_555
C1 N1 1_555 1_555
C2 C1 1_555 1_555
H1 C2 1_555 1_555
C3 C2 1_555 1_555
H2 C3 1_555 1_555
C4 O2 1_555 1_555
C1B N1 1_555 1_555
C2B C3 1_555 1_555
H1B C2B 1_555 1_555
C4B C1B 1_555 1_555
O2B V1 1_555 1_555
O3B C4B 1_555 1_555
O1C Ag1 1_555 1_555
O3C Ag1 1_555 1_555
Ag1A O3B 1_555 1_555
O1_2 Ag1 1_555 1_555
O1B V1 1_555 1_555
Ag1A_2 O1B 1_555 1_555
C1 C4 1_555 1_555
C1B C2B 1_555 1_555
C4B O2B 1_555 1_555

#END
