
#######################################################################
#
#                 Cambridge Crystallographic Data Centre
#                                CCDC 
#
#######################################################################
#
# If this CIF has been generated from an entry in the Cambridge 
# Structural Database, then it will include bibliographic, chemical, 
# crystal, experimental, refinement or atomic coordinate data resulting 
# from the CCDC's data processing and validation procedures.
#
#######################################################################

data_SAHLOD
_symmetry_cell_setting           triclinic
_symmetry_space_group_name_H-M   'P -1'
_symmetry_Int_Tables_number      2
_space_group_name_Hall           '-P 1'
loop_
_symmetry_equiv_pos_site_id
_symmetry_equiv_pos_as_xyz
1 x,y,z
2 -x,-y,-z
_cell_length_a                   8.7040(17)
_cell_length_b                   10.769(2)
_cell_length_c                   22.068(4)
_cell_angle_alpha                88.90(3)
_cell_angle_beta                 86.66(3)
_cell_angle_gamma                80.23(3)
_cell_volume                     2034.95
loop_
_atom_site_label
_atom_site_type_symbol
_atom_site_fract_x
_atom_site_fract_y
_atom_site_fract_z
Mo1 Mo 0.24059(8) -0.48876(7) 0.29626(3)
Mo2 Mo -0.78656(8) -0.56261(7) 0.15164(3)
Mo3 Mo 0.15738(9) -0.88956(7) 0.15240(4)
Mo4 Mo 0.05631(8) -0.95882(7) 0.29524(3)
Mo5 Mo 0.12866(9) -0.72512(8) 0.38421(3)
Ni1 Ni 0.07837(13) -0.22668(11) 0.39749(5)
Ni2 Ni -0.91713(14) -0.28160(12) 0.06511(6)
P1 P -0.0480(2) -0.6504(2) 0.25051(10)
P2 P -0.6356(2) -0.7957(2) 0.25536(10)
O1 O 0.1321(7) -0.3608(6) 0.3351(3)
O2 O -0.8765(7) -0.4597(6) 0.0980(3)
O3 O 0.0309(7) -0.5972(6) 0.3031(3)
O4 O 0.2727(7) -0.6135(6) 0.3597(3)
O5 O -0.7020(7) -0.6566(6) 0.2384(3)
O6 O 0.4263(7) -0.4560(6) 0.2935(3)
O7 O 0.1833(7) -0.4388(6) 0.2165(3)
O8 O -0.0372(7) -0.5720(6) 0.1933(3)
O9 O -0.5922(7) -0.5659(6) 0.1319(3)
O10 O 0.1873(7) -0.7203(6) 0.1258(3)
O11 O 0.0279(6) -0.7896(5) 0.2368(3)
O12 O -0.6269(7) -0.8711(6) 0.1987(3)
O13 O -0.0248(8) -0.8835(6) 0.1266(3)
O14 O 0.2718(8) -0.9816(6) 0.1005(3)
O15 O 0.1519(7) -1.0129(6) 0.2179(3)
O16 O -0.1264(7) -0.9870(6) 0.2861(3)
O17 O 0.1392(7) -1.0848(6) 0.3403(3)
O18 O -0.7342(7) -0.8472(6) 0.3078(3)
O19 O -0.0038(7) -0.8335(6) 0.3580(3)
O20 O 0.2367(7) -0.8202(6) 0.4344(3)
O21 O -0.0028(7) -0.6261(6) 0.4306(3)
O22 O 0.0060(9) -0.3700(7) 0.4491(3)
O23 O -0.9831(8) -0.3599(7) -0.0141(3)
O24 O -0.8356(9) -0.2321(7) 0.1481(3)
N1 N -0.1529(8) -0.1615(7) 0.3841(3)
N2 N 0.0210(8) -0.1021(7) 0.4659(3)
N3 N -0.2877(9) 0.2491(8) 0.5575(3)
N4 N -0.7065(9) -0.2663(8) 0.0229(3)
N5 N -0.9607(9) -0.1062(8) 0.0311(4)
N6 N -0.8600(9) 0.2265(8) -0.0999(4)
C1 C -0.2369(10) -0.2069(9) 0.3445(4)
H1 H -0.1865 -0.2680 0.3176
C2 C -0.3960(11) -0.1680(10) 0.3412(4)
H2 H -0.4510 -0.2023 0.3127
C3 C -0.4713(11) -0.0781(9) 0.3808(5)
H3 H -0.5780 -0.0492 0.3792
C4 C -0.3845(10) -0.0308(9) 0.4235(4)
H4 H -0.4342 0.0259 0.4526
C5 C -0.2227(10) -0.0689(8) 0.4225(4)
C6 C -0.1156(10) -0.0226(9) 0.4639(4)
C7 C -0.1354(11) 0.0875(9) 0.4984(4)
C8 C -0.2680(10) 0.1904(9) 0.5043(4)
C9 C -0.3634(11) 0.2343(9) 0.4566(4)
H5 H -0.3387 0.2031 0.4176
C10 C -0.4947(10) 0.3247(9) 0.4682(4)
H6 H -0.5600 0.3542 0.4373
C11 C -0.5270(11) 0.3701(9) 0.5260(5)
H7 H -0.6218 0.4209 0.5366
C12 C -0.4142(11) 0.3381(9) 0.5684(5)
H8 H -0.4267 0.3796 0.6055
C13 C -0.5772(10) -0.3485(9) 0.0318(4)
H9 H -0.5858 -0.4250 0.0509
C14 C -0.4319(10) -0.3242(10) 0.0138(4)
H10 H -0.3433 -0.3832 0.0207
C15 C -0.4184(10) -0.2098(9) -0.0150(4)
H11 H -0.3208 -0.1909 -0.0272
C16 C -0.5533(11) -0.1248(9) -0.0250(4)
H12 H -0.5479 -0.0480 -0.0442
C17 C -0.6976(10) -0.1567(9) -0.0057(4)
C18 C -0.8514(10) -0.0695(9) -0.0091(4)
C19 C -0.8952(10) 0.0421(9) -0.0432(4)
C20 C -0.8048(11) 0.1008(9) -0.0919(4)
C21 C -0.6877(11) 0.0383(11) -0.1292(5)
H13 H -0.6593 -0.0488 -0.1270
C22 C -0.6106(13) 0.1109(11) -0.1717(5)
H14 H -0.5255 0.0721 -0.1959
C23 C -0.6602(13) 0.2355(12) -0.1771(5)
H15 H -0.6096 0.2831 -0.2048
C24 C -0.7889(13) 0.2935(11) -0.1407(5)
H16 H -0.8249 0.3795 -0.1450
C25 C -0.2437(10) -0.6515(9) 0.2790(4)
H17 H -0.2410 -0.6883 0.3195
H18 H -0.2971 -0.5650 0.2826
C26 C -0.3412(11) -0.7251(10) 0.2395(4)
H19 H -0.4040 -0.6672 0.2129
H20 H -0.2719 -0.7864 0.2147
C27 C -0.4480(9) -0.7927(8) 0.2827(4)
H21 H -0.4611 -0.7507 0.3216
H22 H -0.3964 -0.8786 0.2893
C7A C 0.1354(11) -0.0875(9) 0.5016(4)
C6A C 0.1156(10) 0.0226(9) 0.5361(4)
N2A N -0.0210(8) 0.1021(7) 0.5341(3)
C5A C 0.2227(10) 0.0689(8) 0.5775(4)
N1A N 0.1529(8) 0.1615(7) 0.6159(3)
C1A C 0.2369(10) 0.2069(9) 0.6555(4)
H1A H 0.1865 0.2680 0.6824
C2A C 0.3960(11) 0.1680(10) 0.6588(4)
H2A H 0.4510 0.2023 0.6873
C3A C 0.4713(11) 0.0781(9) 0.6192(5)
H3A H 0.5780 0.0492 0.6208
C4A C 0.3845(10) 0.0308(9) 0.5765(4)
H4A H 0.4342 -0.0259 0.5474
C8A C 0.2680(10) -0.1904(9) 0.4957(4)
N3A N 0.2877(9) -0.2491(8) 0.4425(3)
C12A C 0.4142(11) -0.3381(9) 0.4316(5)
C11A C 0.5270(11) -0.3701(9) 0.4740(5)
C10A C 0.4947(10) -0.3247(9) 0.5318(4)
C9A C 0.3634(11) -0.2343(9) 0.5434(4)
H5A H 0.3387 -0.2031 0.5824
H6A H 0.5600 -0.3542 0.5627
H7A H 0.6218 -0.4209 0.4634
H8A H 0.4267 -0.3796 0.3945
C19A C -1.1048(10) -0.0421(9) 0.0432(4)
C18A C -1.1486(10) 0.0695(9) 0.0091(4)
N5A N -1.0393(9) 0.1062(8) -0.0311(4)
C17A C -1.3024(10) 0.1567(9) 0.0057(4)
N4A N -1.2935(9) 0.2663(8) -0.0229(3)
C13A C -1.4228(10) 0.3485(9) -0.0318(4)
H9A H -1.4142 0.4250 -0.0509
C14A C -1.5681(10) 0.3242(10) -0.0138(4)
H10A H -1.6567 0.3832 -0.0207
C15A C -1.5816(10) 0.2098(9) 0.0150(4)
H11A H -1.6792 0.1909 0.0272
C16A C -1.4467(11) 0.1248(9) 0.0250(4)
H12A H -1.4521 0.0480 0.0442
C20A C -1.1952(11) -0.1008(9) 0.0919(4)
N6A N -1.1400(9) -0.2265(8) 0.0999(4)
C24A C -1.2111(13) -0.2935(11) 0.1407(5)
C23A C -1.3398(13) -0.2355(12) 0.1771(5)
C22A C -1.3894(13) -0.1109(11) 0.1717(5)
C21A C -1.3123(11) -0.0383(11) 0.1292(5)
H13A H -1.3407 0.0488 0.1270
H14A H -1.4745 -0.0721 0.1959
H15A H -1.3904 -0.2831 0.2048
H16A H -1.1751 -0.3795 0.1450
P1_2 P 0.9520(2) -0.6504(2) 0.25051(10)
P2_2 P 0.3644(2) -0.7957(2) 0.25536(10)
O3_2 O 1.0309(7) -0.5972(6) 0.3031(3)
O5_2 O 0.2980(7) -0.6566(6) 0.2384(3)
O8_2 O 0.9628(7) -0.5720(6) 0.1933(3)
O11_2 O 1.0279(6) -0.7896(5) 0.2368(3)
O12_2 O 0.3731(7) -0.8711(6) 0.1987(3)
O18_2 O 0.2658(7) -0.8472(6) 0.3078(3)
C25_2 C 0.7563(10) -0.6515(9) 0.2790(4)
H17_2 H 0.7590 -0.6883 0.3195
H18_2 H 0.7029 -0.5650 0.2826
C26_2 C 0.6588(11) -0.7251(10) 0.2395(4)
H19_2 H 0.5960 -0.6672 0.2129
H20_2 H 0.7281 -0.7864 0.2147
C27_2 C 0.5520(9) -0.7927(8) 0.2827(4)
H21_2 H 0.5389 -0.7507 0.3216
H22_2 H 0.6036 -0.8786 0.2893
Mo1_2 Mo 1.24059(8) -0.48876(7) 0.29626(3)
Mo2_2 Mo 0.21344(8) -0.56261(7) 0.15164(3)
Mo3_2 Mo 1.15738(9) -0.88956(7) 0.15240(4)
Mo4_2 Mo 1.05631(8) -0.95882(7) 0.29524(3)
Mo5_2 Mo 1.12866(9) -0.72512(8) 0.38421(3)
O7_2 O -0.8167(7) -0.4388(6) 0.2165(3)
O10_2 O -0.8127(7) -0.7203(6) 0.1258(3)
O17_2 O 0.1392(7) -0.0848(6) 0.3403(3)
O1_2 O 1.1321(7) -0.3608(6) 0.3351(3)
O4_2 O 1.2727(7) -0.6135(6) 0.3597(3)
O6_2 O 1.4263(7) -0.4560(6) 0.2935(3)
O2_2 O 0.1235(7) -0.4597(6) 0.0980(3)
O9_2 O 0.4078(7) -0.5659(6) 0.1319(3)
O13_2 O 0.9752(8) -0.8835(6) 0.1266(3)
O14_2 O 1.2718(8) -0.9816(6) 0.1005(3)
O15_2 O 1.1519(7) -1.0129(6) 0.2179(3)
O16_2 O 0.8736(7) -0.9870(6) 0.2861(3)
O19_2 O 0.9962(7) -0.8335(6) 0.3580(3)
O20_2 O 1.2367(7) -0.8202(6) 0.4344(3)
O21_2 O 0.9972(7) -0.6261(6) 0.4306(3)
Ni1_2 Ni 1.07837(13) -0.22668(11) 0.39749(5)
Ni2_2 Ni 0.08287(14) -0.28160(12) 0.06511(6)
O22_2 O 1.0060(9) -0.3700(7) 0.4491(3)
O23_2 O 0.0169(8) -0.3599(7) -0.0141(3)
O24_2 O 0.1644(9) -0.2321(7) 0.1481(3)
O8_3 O -1.0372(7) -0.5720(6) 0.1933(3)
Mo1_3 Mo -0.75941(8) -0.48876(7) 0.29626(3)
Mo3_3 Mo -0.84262(9) -0.88956(7) 0.15240(4)
Ni1_3 Ni 0.07837(13) -1.22668(11) 0.39749(5)
Mo4_3 Mo -0.94369(8) -0.95882(7) 0.29524(3)
Mo5_3 Mo -0.87134(9) -0.72512(8) 0.38421(3)
Ni1A Ni -0.07837(13) 0.22668(11) 0.60251(5)
Ni2A Ni -1.08287(14) 0.28160(12) -0.06511(6)
Mo2_3 Mo 1.21344(8) -0.56261(7) 0.15164(3)
O5_3 O 1.2980(7) -0.6566(6) 0.2384(3)
O7_3 O 1.1833(7) -0.4388(6) 0.2165(3)
O10_3 O 1.1873(7) -0.7203(6) 0.1258(3)
O12_3 O 1.3731(7) -0.8711(6) 0.1987(3)
O17_3 O 1.1392(7) -1.0848(6) 0.3403(3)
O18_3 O 1.2658(7) -0.8472(6) 0.3078(3)
Mo4_4 Mo 0.05631(8) 0.04118(7) 0.29524(3)
O17_4 O 1.1392(7) -0.0848(6) 0.3403(3)
N1_2 N 0.8471(8) -0.1615(7) 0.3841(3)
N2_2 N 1.0210(8) -0.1021(7) 0.4659(3)
N3A_2 N 1.2877(9) -0.2491(8) 0.4425(3)
N4_2 N 0.2935(9) -0.2663(8) 0.0229(3)
N5_2 N 0.0393(9) -0.1062(8) 0.0311(4)
N6A_2 N -0.1400(9) -0.2265(8) 0.0999(4)
O25 O 0.7548(9) -0.5841(8) 0.1016(3)
loop_
_geom_bond_atom_site_label_1
_geom_bond_atom_site_label_2
_geom_bond_site_symmetry_1
_geom_bond_site_symmetry_2
Mo1 O1 1_555 1_555
Mo2 O2 1_555 1_555
Mo3 O10 1_555 1_555
Mo4 O11 1_555 1_555
Mo5 O3 1_555 1_555
Ni1 O1 1_555 1_555
Ni2 O2 1_555 1_555
P1 O3 1_555 1_555
P2 O5 1_555 1_555
O3 Mo1 1_555 1_555
O4 Mo1 1_555 1_555
O5 Mo2 1_555 1_555
O6 Mo1 1_555 1_555
O7 Mo1 1_555 1_555
O8 P1 1_555 1_555
O9 Mo2 1_555 1_555
O10 Mo2_2 1_555 1_555
O11 Mo3 1_555 1_555
O12 P2 1_555 1_555
O13 Mo3 1_555 1_555
O14 Mo3 1_555 1_555
O15 Mo3 1_555 1_555
O16 Mo4 1_555 1_555
O17 Mo4 1_555 1_555
O18 P2 1_555 1_555
O19 Mo4 1_555 1_555
O20 Mo5 1_555 1_555
O21 Mo5 1_555 1_555
O22 Ni1 1_555 1_555
O23 Ni2 1_555 1_555
O24 Ni2 1_555 1_555
N1 Ni1 1_555 1_555
N2 Ni1 1_555 1_555
N3 C8 1_555 1_555
N4 Ni2 1_555 1_555
N5 Ni2 1_555 1_555
N6 C20 1_555 1_555
C1 N1 1_555 1_555
H1 C1 1_555 1_555
C2 C1 1_555 1_555
H2 C2 1_555 1_555
C3 C2 1_555 1_555
H3 C3 1_555 1_555
C4 C3 1_555 1_555
H4 C4 1_555 1_555
C5 N1 1_555 1_555
C6 N2 1_555 1_555
C7 C6 1_555 1_555
C8 C7 1_555 1_555
C9 C8 1_555 1_555
H5 C9 1_555 1_555
C10 C9 1_555 1_555
H6 C10 1_555 1_555
C11 C10 1_555 1_555
H7 C11 1_555 1_555
C12 N3 1_555 1_555
H8 C12 1_555 1_555
C13 N4 1_555 1_555
H9 C13 1_555 1_555
C14 C13 1_555 1_555
H10 C14 1_555 1_555
C15 C14 1_555 1_555
H11 C15 1_555 1_555
C16 C15 1_555 1_555
H12 C16 1_555 1_555
C17 N4 1_555 1_555
C18 N5 1_555 1_555
C19 C18 1_555 1_555
C20 C19 1_555 1_555
C21 C20 1_555 1_555
H13 C21 1_555 1_555
C22 C21 1_555 1_555
H14 C22 1_555 1_555
C23 C22 1_555 1_555
H15 C23 1_555 1_555
C24 N6 1_555 1_555
H16 C24 1_555 1_555
C25 P1 1_555 1_555
H17 C25 1_555 1_555
H18 C25 1_555 1_555
C26 C25 1_555 1_555
H19 C26 1_555 1_555
H20 C26 1_555 1_555
C27 P2 1_555 1_555
H21 C27 1_555 1_555
H22 C27 1_555 1_555
C7A N2 1_555 1_555
C6A C7A 1_555 1_555
N2A C7 1_555 1_555
C5A C6A 1_555 1_555
N1A C5A 1_555 1_555
C1A N1A 1_555 1_555
H1A C1A 1_555 1_555
C2A C1A 1_555 1_555
H2A C2A 1_555 1_555
C3A C2A 1_555 1_555
H3A C3A 1_555 1_555
C4A C5A 1_555 1_555
H4A C4A 1_555 1_555
C8A C7A 1_555 1_555
N3A Ni1 1_555 1_555
C12A N3A 1_555 1_555
C11A C12A 1_555 1_555
C10A C11A 1_555 1_555
C9A C8A 1_555 1_555
H5A C9A 1_555 1_555
H6A C10A 1_555 1_555
H7A C11A 1_555 1_555
H8A C12A 1_555 1_555
C19A N5 1_555 1_555
C18A C19A 1_555 1_555
N5A C19 1_555 1_555
C17A C18A 1_555 1_555
N4A C17A 1_555 1_555
C13A N4A 1_555 1_555
H9A C13A 1_555 1_555
C14A C13A 1_555 1_555
H10A C14A 1_555 1_555
C15A C14A 1_555 1_555
H11A C15A 1_555 1_555
C16A C17A 1_555 1_555
H12A C16A 1_555 1_555
C20A C19A 1_555 1_555
N6A Ni2 1_555 1_555
C24A N6A 1_555 1_555
C23A C24A 1_555 1_555
C22A C23A 1_555 1_555
C21A C20A 1_555 1_555
H13A C21A 1_555 1_555
H14A C22A 1_555 1_555
H15A C23A 1_555 1_555
H16A C24A 1_555 1_555
P1_2 O3_2 1_555 1_555
P2_2 O5_2 1_555 1_555
O3_2 Mo1_2 1_555 1_555
O5_2 Mo1 1_555 1_555
O8_2 P1_2 1_555 1_555
O11_2 P1_2 1_555 1_555
O12_2 Mo3 1_555 1_555
O18_2 Mo4 1_555 1_555
C25_2 P1_2 1_555 1_555
H17_2 C25_2 1_555 1_555
H18_2 C25_2 1_555 1_555
C26_2 C25_2 1_555 1_555
H19_2 C26_2 1_555 1_555
H20_2 C26_2 1_555 1_555
C27_2 P2_2 1_555 1_555
H21_2 C27_2 1_555 1_555
H22_2 C27_2 1_555 1_555
Mo1_2 O1_2 1_555 1_555
Mo2_2 O7 1_555 1_555
Mo3_2 O11_2 1_555 1_555
Mo4_2 O11_2 1_555 1_555
Mo5_2 O3_2 1_555 1_555
O7_2 Mo2 1_555 1_555
O10_2 Mo2 1_555 1_555
O17_2 Ni1 1_555 1_555
O1_2 Ni1_2 1_555 1_555
O4_2 Mo1_2 1_555 1_555
O6_2 Mo1_2 1_555 1_555
O2_2 Mo2_2 1_555 1_555
O9_2 Mo2_2 1_555 1_555
O13_2 Mo3_2 1_555 1_555
O14_2 Mo3_2 1_555 1_555
O15_2 Mo3_2 1_555 1_555
O16_2 Mo4_2 1_555 1_555
O19_2 Mo4_2 1_555 1_555
O20_2 Mo5_2 1_555 1_555
O21_2 Mo5_2 1_555 1_555
Ni1_2 O22_2 1_555 1_555
Ni2_2 O2_2 1_555 1_555
O23_2 Ni2_2 1_555 1_555
O24_2 Ni2_2 1_555 1_555
O8_3 Mo2 1_555 1_555
Mo1_3 O5 1_555 1_555
Mo3_3 O12 1_555 1_555
Ni1_3 O17 1_555 1_555
Mo4_3 O18 1_555 1_555
Mo5_3 O18 1_555 1_555
Ni1A N3 1_555 1_555
Ni2A N6 1_555 1_555
Mo2_3 O8_2 1_555 1_555
O5_3 Mo1_2 1_555 1_555
O7_3 Mo1_2 1_555 1_555
O10_3 Mo3_2 1_555 1_555
O12_3 Mo3_2 1_555 1_555
O17_3 Mo4_2 1_555 1_555
O18_3 Mo4_2 1_555 1_555
Mo4_4 O17_2 1_555 1_555
O17_4 Ni1_2 1_555 1_555
N1_2 Ni1_2 1_555 1_555
N2_2 Ni1_2 1_555 1_555
N3A_2 Ni1_2 1_555 1_555
N4_2 Ni2_2 1_555 1_555
N5_2 Ni2_2 1_555 1_555
N6A_2 Ni2_2 1_555 1_555
Mo4 O15 1_555 1_555
Mo5 O4 1_555 1_555
Mo5 O18_2 1_555 1_555
Mo5 O19 1_555 1_555
P1 O11 1_555 1_555
O8 Mo2_2 1_555 1_555
C4 C5 1_555 1_555
C5 C6 1_555 1_555
C11 C12 1_555 1_555
C16 C17 1_555 1_555
C17 C18 1_555 1_555
C23 C24 1_555 1_555
C26 C27 1_555 1_555
C6A N2A 1_555 1_555
N2A Ni1A 1_555 1_555
N1A Ni1A 1_555 1_555
C3A C4A 1_555 1_555
C8A N3A 1_555 1_555
C10A C9A 1_555 1_555
C18A N5A 1_555 1_555
N5A Ni2A 1_555 1_555
N4A Ni2A 1_555 1_555
C15A C16A 1_555 1_555
C20A N6A 1_555 1_555
C22A C21A 1_555 1_555
P2_2 O12_2 1_555 1_555
P2_2 O18_2 1_555 1_555
O5_2 Mo2_2 1_555 1_555
C26_2 C27_2 1_555 1_555
Mo4_2 O15_2 1_555 1_555
Mo5_2 O4_2 1_555 1_555
Mo5_2 O19_2 1_555 1_555
Mo5_2 O18_3 1_555 1_555
O7_2 Mo1_3 1_555 1_555
O10_2 Mo3_3 1_555 1_555
Mo2_3 O5_3 1_555 1_555
Mo2_3 O7_3 1_555 1_555
Mo2_3 O10_3 1_555 1_555

#END
