
#######################################################################
#
#                 Cambridge Crystallographic Data Centre
#                                CCDC 
#
#######################################################################
#
# If this CIF has been generated from an entry in the Cambridge 
# Structural Database, then it will include bibliographic, chemical, 
# crystal, experimental, refinement or atomic coordinate data resulting 
# from the CCDC's data processing and validation procedures.
#
#######################################################################

data_SAHLAP
_symmetry_cell_setting           triclinic
_symmetry_space_group_name_H-M   'P -1'
_symmetry_Int_Tables_number      2
_space_group_name_Hall           '-P 1'
loop_
_symmetry_equiv_pos_site_id
_symmetry_equiv_pos_as_xyz
1 x,y,z
2 -x,-y,-z
_cell_length_a                   9.6676(5)
_cell_length_b                   11.0988(5)
_cell_length_c                   11.5999(6)
_cell_angle_alpha                70.1350(10)
_cell_angle_beta                 75.4600(10)
_cell_angle_gamma                70.8870(10)
_cell_volume                     1092.29
loop_
_atom_site_label
_atom_site_type_symbol
_atom_site_fract_x
_atom_site_fract_y
_atom_site_fract_z
Mo1 Mo 0.805081(19) 0.156483(17) 0.717249(16)
Mo2 Mo 0.502827(19) 0.402260(17) 0.763464(16)
Mo3 Mo 0.941944(18) 0.755522(16) 0.522214(15)
Ni1 Ni 0.70189(3) -0.15242(3) 0.79525(2)
P1 P 0.81338(6) 0.49087(5) 0.60749(5)
P2 P 0.70552(6) 0.40344(5) 0.45096(5)
O1 O 0.68047(16) 0.50808(15) 0.70954(13)
O2 O 0.92171(16) 0.56752(14) 0.60309(13)
O3 O 0.85465(16) 0.33217(15) 0.39169(14)
O4 O 0.58279(16) 0.44259(15) 0.37180(14)
O5 O 0.65174(16) 0.32155(14) 0.58233(13)
O6 O 0.71334(17) 0.04382(15) 0.72636(14)
O7 O 0.91953(17) 0.07491(16) 0.82493(14)
O8 O 0.66571(16) 0.26081(15) 0.81803(13)
O9 O 0.38990(17) 0.31124(16) 0.76812(15)
O10 O 0.42983(18) 0.45978(16) 0.89074(14)
O11 O 0.90142(16) 0.34257(14) 0.62665(13)
O12 O 0.94885(17) 0.12452(15) 0.57337(14)
O13 O 0.84840(17) 0.81402(15) 0.64781(14)
O14 O 0.80681(17) 0.79793(15) 0.43476(14)
O15 O 0.69065(19) -0.34882(16) 0.85909(16)
N1 N 0.85237(19) -0.20158(17) 0.90909(16)
N2 N 0.57174(19) -0.08793(17) 0.93791(16)
N3 N 0.49892(19) 0.09497(18) 1.26255(16)
C1 C 0.7375(2) 0.5476(2) 0.46634(19)
C2 C 0.9873(2) -0.2857(2) 0.8964(2)
C3 C 1.0751(2) -0.3362(2) 0.9888(2)
C4 C 1.0191(3) -0.3003(2) 1.0980(2)
C5 C 0.8784(2) -0.2140(2) 1.1127(2)
C6 C 0.7982(2) -0.1637(2) 1.01487(19)
C7 C 0.6444(2) -0.0741(2) 1.01513(18)
C8 C 0.5678(2) 0.0203(2) 1.08096(18)
C9 C 0.6132(2) 0.0561(2) 1.17647(19)
C10 C 0.7559(2) 0.0585(2) 1.1763(2)
C11 C 0.7823(2) 0.0909(2) 1.2733(2)
C12 C 0.6676(2) 0.1206(2) 1.3660(2)
C13 C 0.5256(2) 0.1248(2) 1.3561(2)
H1 H 0.654(3) 0.607(3) 0.479(3)
H2 H 0.799(3) 0.573(3) 0.407(3)
H3 H 1.020(3) -0.307(3) 0.827(3)
H4 H 1.169(3) -0.389(3) 0.977(3)
H5 H 1.075(4) -0.336(3) 1.159(3)
H6 H 0.840(3) -0.194(3) 1.186(3)
H7 H 0.828(3) 0.040(3) 1.115(3)
H8 H 0.881(3) 0.091(3) 1.277(2)
H9 H 0.682(3) 0.140(3) 1.432(3)
H10 H 0.437(3) 0.153(3) 1.414(3)
H11 H 0.685(4) -0.389(3) 0.821(3)
H12 H 0.653(3) -0.378(3) 0.929(3)
C8A C 0.4322(2) -0.0203(2) 0.91904(18)
C7A C 0.3556(2) 0.0741(2) 0.98487(18)
N2A N 0.42826(19) 0.08793(17) 1.06209(16)
C6A C 0.2018(2) 0.1637(2) 0.98513(19)
N1A N 0.14763(19) 0.20158(17) 1.09091(16)
C2A C 0.0127(2) 0.2857(2) 1.1036(2)
C3A C -0.0751(2) 0.3362(2) 1.0112(2)
C4A C -0.0191(3) 0.3003(2) 0.9020(2)
C5A C 0.1216(2) 0.2140(2) 0.8873(2)
H6A H 0.160(3) 0.194(3) 0.814(3)
H5A H -0.075(4) 0.336(3) 0.841(3)
H4A H -0.169(3) 0.389(3) 1.023(3)
H3A H -0.020(3) 0.307(3) 1.173(3)
C9A C 0.3868(2) -0.0561(2) 0.82353(19)
N3A N 0.50108(19) -0.09497(18) 0.73745(16)
C13A C 0.4744(2) -0.1248(2) 0.6439(2)
C12A C 0.3324(2) -0.1206(2) 0.6340(2)
C11A C 0.2177(2) -0.0909(2) 0.7267(2)
C10A C 0.2441(2) -0.0585(2) 0.8237(2)
H7A H 0.172(3) -0.040(3) 0.885(3)
H8A H 0.119(3) -0.091(3) 0.723(2)
H9A H 0.318(3) -0.140(3) 0.568(3)
H10A H 0.563(3) -0.153(3) 0.586(3)
Mo2A Mo 0.497173(19) 0.597740(17) 0.236536(16)
Mo3A Mo 1.058056(18) 0.244478(16) 0.477786(15)
P1A P 0.18662(6) 0.50913(5) 0.39251(5)
P2A P 0.29448(6) 0.59656(5) 0.54904(5)
O1A O 0.31953(16) 0.49192(15) 0.29046(13)
O2A O 0.07829(16) 0.43248(14) 0.39691(13)
O3A O 0.14535(16) 0.66783(15) 0.60831(14)
O4A O 0.41721(16) 0.55741(15) 0.62820(14)
O5A O 0.34826(16) 0.67845(14) 0.41767(13)
O11A O 0.09858(16) 0.65743(14) 0.37335(13)
C1A C 0.2625(2) 0.4524(2) 0.53366(19)
H1A H 0.346(3) 0.393(3) 0.521(3)
H2A H 0.201(3) 0.427(3) 0.593(3)
O12A O 1.05115(17) 0.87548(15) 0.42663(14)
O13_2 O 0.84840(17) -0.18598(15) 0.64781(14)
O8A O 0.33429(16) 0.73919(15) 0.18197(13)
O9A O 0.61010(17) 0.68876(16) 0.23188(15)
O10A O 0.57017(18) 0.54022(16) 0.10926(14)
O14A O 1.19319(17) 0.20207(15) 0.56524(14)
Mo1A Mo 0.194919(19) 0.843517(17) 0.282751(16)
Ni1_2 Ni 0.70189(3) 0.84758(3) 0.79525(2)
O6A O 0.28666(17) 0.95618(15) 0.27364(14)
O7A O 0.08047(17) 0.92509(16) 0.17507(14)
O15_2 O 0.69065(19) 0.65118(16) 0.85909(16)
H11_2 H 0.685(4) 0.611(3) 0.821(3)
H12_2 H 0.653(3) 0.622(3) 0.929(3)
O3A_2 O 1.14535(16) 0.66783(15) 0.60831(14)
O11A_2 O 1.09858(16) 0.65743(14) 0.37335(13)
Ni1A Ni 0.29811(3) 0.15242(3) 1.20475(2)
O2A_2 O 1.07829(16) 0.43248(14) 0.39691(13)
O13A O 1.15160(17) 0.18598(15) 0.35219(14)
Mo3A_2 Mo 0.058056(18) 0.244478(16) 0.477786(15)
Mo3_2 Mo -0.058056(18) 0.755522(16) 0.522214(15)
Mo3_3 Mo 0.941944(18) -0.244478(16) 0.522214(15)
O12A_2 O 0.05115(17) 0.87548(15) 0.42663(14)
O6_2 O 0.71334(17) 1.04382(15) 0.72636(14)
N1_2 N 0.85237(19) 0.79842(17) 0.90909(16)
N2_2 N 0.57174(19) 0.91207(17) 0.93791(16)
N3A_2 N 0.50108(19) 0.90503(18) 0.73745(16)
Ni1A_2 Ni 0.29811(3) 1.15242(3) 0.20475(2)
loop_
_geom_bond_atom_site_label_1
_geom_bond_atom_site_label_2
_geom_bond_site_symmetry_1
_geom_bond_site_symmetry_2
Mo1 O5 1_555 1_555
Mo2 O1 1_555 1_555
Mo3 O2 1_555 1_555
Ni1 O6 1_555 1_555
P1 O1 1_555 1_555
P2 O3 1_555 1_555
O2 P1 1_555 1_555
O3 Mo3A 1_555 1_555
O4 P2 1_555 1_555
O5 Mo2 1_555 1_555
O6 Mo1 1_555 1_555
O7 Mo1 1_555 1_555
O8 Mo1 1_555 1_555
O9 Mo2 1_555 1_555
O10 Mo2 1_555 1_555
O11 Mo1 1_555 1_555
O12 Mo1 1_555 1_555
O13 Mo3 1_555 1_555
O14 Mo3 1_555 1_555
O15 Ni1 1_555 1_555
N1 Ni1 1_555 1_555
N2 Ni1 1_555 1_555
N3 C9 1_555 1_555
C1 P1 1_555 1_555
C2 N1 1_555 1_555
C3 C2 1_555 1_555
C4 C3 1_555 1_555
C5 C4 1_555 1_555
C6 N1 1_555 1_555
C7 N2 1_555 1_555
C8 C7 1_555 1_555
C9 C8 1_555 1_555
C10 C9 1_555 1_555
C11 C10 1_555 1_555
C12 C11 1_555 1_555
C13 N3 1_555 1_555
H1 C1 1_555 1_555
H2 C1 1_555 1_555
H3 C2 1_555 1_555
H4 C3 1_555 1_555
H5 C4 1_555 1_555
H6 C5 1_555 1_555
H7 C10 1_555 1_555
H8 C11 1_555 1_555
H9 C12 1_555 1_555
H10 C13 1_555 1_555
H11 O15 1_555 1_555
H12 O15 1_555 1_555
C8A N2 1_555 1_555
C7A C8A 1_555 1_555
N2A C8 1_555 1_555
C6A C7A 1_555 1_555
N1A C6A 1_555 1_555
C2A N1A 1_555 1_555
C3A C2A 1_555 1_555
C4A C3A 1_555 1_555
C5A C6A 1_555 1_555
H6A C5A 1_555 1_555
H5A C4A 1_555 1_555
H4A C3A 1_555 1_555
H3A C2A 1_555 1_555
C9A C8A 1_555 1_555
N3A Ni1 1_555 1_555
C13A N3A 1_555 1_555
C12A C13A 1_555 1_555
C11A C12A 1_555 1_555
C10A C9A 1_555 1_555
H7A C10A 1_555 1_555
H8A C11A 1_555 1_555
H9A C12A 1_555 1_555
H10A C13A 1_555 1_555
Mo2A O4 1_555 1_555
Mo3A O11 1_555 1_555
P1A O1A 1_555 1_555
P2A O3A 1_555 1_555
O1A Mo2A 1_555 1_555
O2A P1A 1_555 1_555
O3A Mo3_2 1_555 1_555
O4A Mo2 1_555 1_555
O5A Mo2A 1_555 1_555
O11A P1A 1_555 1_555
C1A P1A 1_555 1_555
H1A C1A 1_555 1_555
H2A C1A 1_555 1_555
O12A Mo3 1_555 1_555
O13_2 Ni1 1_555 1_555
O8A Mo2A 1_555 1_555
O9A Mo2A 1_555 1_555
O10A Mo2A 1_555 1_555
O14A Mo3A 1_555 1_555
Mo1A O5A 1_555 1_555
Ni1_2 O13 1_555 1_555
O6A Mo1A 1_555 1_555
O7A Mo1A 1_555 1_555
O15_2 Ni1_2 1_555 1_555
H11_2 O15_2 1_555 1_555
H12_2 O15_2 1_555 1_555
O3A_2 Mo3 1_555 1_555
O11A_2 Mo3 1_555 1_555
Ni1A N3 1_555 1_555
O2A_2 Mo3A 1_555 1_555
O13A Mo3A 1_555 1_555
Mo3A_2 O2A 1_555 1_555
Mo3_2 O11A 1_555 1_555
Mo3_3 O13_2 1_555 1_555
O12A_2 Mo1A 1_555 1_555
O6_2 Ni1_2 1_555 1_555
N1_2 Ni1_2 1_555 1_555
N2_2 Ni1_2 1_555 1_555
N3A_2 Ni1_2 1_555 1_555
Ni1A_2 O6A 1_555 1_555
Mo2 O8 1_555 1_555
P1 O11 1_555 1_555
P2 C1 1_555 1_555
P2 O5 1_555 1_555
O12 Mo3A 1_555 1_555
C5 C6 1_555 1_555
C6 C7 1_555 1_555
C12 C13 1_555 1_555
C7A N2A 1_555 1_555
N2A Ni1A 1_555 1_555
N1A Ni1A 1_555 1_555
C4A C5A 1_555 1_555
C9A N3A 1_555 1_555
C11A C10A 1_555 1_555
P2A C1A 1_555 1_555
P2A O4A 1_555 1_555
P2A O5A 1_555 1_555
O11A Mo1A 1_555 1_555
O8A Mo1A 1_555 1_555
Mo3_2 O12A_2 1_555 1_555

#END
