
#######################################################################
#
#                 Cambridge Crystallographic Data Centre
#                                CCDC 
#
#######################################################################
#
# If this CIF has been generated from an entry in the Cambridge 
# Structural Database, then it will include bibliographic, chemical, 
# crystal, experimental, refinement or atomic coordinate data resulting 
# from the CCDC's data processing and validation procedures.
#
#######################################################################

data_SAHMIY
_symmetry_cell_setting           monoclinic
_symmetry_space_group_name_H-M   'P 21/n'
_symmetry_Int_Tables_number      14
_space_group_name_Hall           '-P 2yn'
loop_
_symmetry_equiv_pos_site_id
_symmetry_equiv_pos_as_xyz
1 x,y,z
2 1/2+x,1/2-y,1/2+z
3 -x,-y,-z
4 1/2-x,1/2+y,1/2-z
_cell_length_a                   16.0750(12)
_cell_length_b                   17.3256(13)
_cell_length_c                   23.2488(17)
_cell_angle_alpha                90
_cell_angle_beta                 103.3160(10)
_cell_angle_gamma                90
_cell_volume                     6300.92
loop_
_atom_site_label
_atom_site_type_symbol
_atom_site_fract_x
_atom_site_fract_y
_atom_site_fract_z
Mo1 Mo -0.27076(3) 0.19198(3) 0.27136(2)
Mo2 Mo -0.32050(3) 0.15294(3) 0.12524(2)
Mo3 Mo -0.14482(3) 0.02836(3) 0.10259(2)
Mo4 Mo 0.01832(3) 0.06322(3) 0.22191(2)
Mo5 Mo -0.06527(3) 0.14422(3) 0.32825(2)
Ni1 Ni -0.29051(5) 0.36098(5) 0.36200(4)
Ni2 Ni -0.23343(4) 0.06383(4) 0.55053(3)
P1 P -0.30650(9) 0.51721(8) 0.26569(6)
P2 P -0.12380(8) 0.20741(7) 0.18189(6)
O1 O -0.1840(2) 0.1397(2) 0.32922(17)
O2 O -0.1415(2) 0.2079(2) 0.24392(17)
O3 O -0.2482(2) 0.5880(2) 0.28378(17)
O4 O -0.2616(3) 0.2850(2) 0.30032(18)
O5 O -0.3549(3) 0.1537(2) 0.29422(19)
O6 O -0.3249(2) 0.2170(2) 0.19174(17)
O7 O -0.4062(2) 0.0946(2) 0.12809(18)
O8 O -0.2029(2) 0.2241(2) 0.13403(17)
O9 O -0.2494(2) 0.0799(2) 0.09510(18)
O10 O -0.3622(3) 0.2081(2) 0.06493(19)
O11 O -0.0899(2) 0.1275(2) 0.16681(17)
O12 O -0.3049(3) 0.4674(2) 0.31984(19)
O13 O -0.0407(2) -0.0023(2) 0.15594(18)
O14 O -0.1763(3) -0.0632(2) 0.0731(2)
O15 O -0.1068(3) 0.0705(3) 0.04831(19)
O16 O -0.3994(2) 0.5404(2) 0.23716(17)
O17 O 0.0176(2) 0.1409(2) 0.27927(17)
O18 O 0.0745(2) -0.0097(2) 0.26294(19)
O19 O 0.0895(2) 0.1062(2) 0.18803(19)
O20 O -0.0228(3) 0.0778(3) 0.38133(18)
O21 O -0.0361(3) 0.2312(2) 0.36199(18)
N1 N -0.4144(4) 0.3131(3) 0.3449(2)
N2 N -0.2773(3) 0.2725(2) 0.4206(2)
N3 N -0.1666(3) 0.3758(3) 0.4070(2)
N4 N -0.3504(3) 0.0354(3) 0.4948(2)
N5 N -0.2530(3) 0.1535(3) 0.4945(2)
N6 N -0.1225(3) 0.1280(3) 0.5814(2)
N7 N -0.1732(3) -0.0181(3) 0.5109(2)
N8 N -0.2199(3) -0.0224(3) 0.6092(2)
N9 N -0.2851(3) 0.1129(3) 0.6166(2)
N10 N -0.3994(3) -0.0638(3) 0.7143(2)
N11 N -0.2381(3) -0.1468(3) 0.6754(2)
N12 N -0.2397(3) -0.2642(3) 0.5650(2)
C1 C -0.2647(4) 0.4629(3) 0.2130(3)
H1 H -0.3007 0.4165 0.2014
H2 H -0.2681 0.4947 0.1772
C2 C -0.1726(4) 0.4379(3) 0.2370(3)
H3 H -0.1360 0.4840 0.2478
H4 H -0.1687 0.4065 0.2732
C3 C -0.1409(4) 0.3909(3) 0.1913(3)
H5 H -0.1348 0.4253 0.1585
H6 H -0.1841 0.3512 0.1747
C4 C -0.0416(3) 0.2784(3) 0.1816(2)
H7 H 0.0150 0.2557 0.1993
H8 H -0.0424 0.2930 0.1403
C5 C -0.0548(4) 0.3510(3) 0.2166(3)
H9 H -0.0518 0.3365 0.2582
H10 H -0.0079 0.3879 0.2162
C6 C -0.4823(4) 0.3433(4) 0.3091(3)
H11 H -0.4752 0.3818 0.2816
C7 C -0.5612(5) 0.3204(4) 0.3112(4)
H12 H -0.6086 0.3416 0.2836
C8 C -0.5762(5) 0.2674(5) 0.3516(4)
H13 H -0.6326 0.2535 0.3538
C9 C -0.5020(4) 0.2339(4) 0.3908(4)
H14 H -0.5078 0.1980 0.4205
C10 C -0.4253(4) 0.2550(3) 0.3837(3)
C11 C -0.3430(3) 0.2244(3) 0.4198(2)
C12 C -0.2001(3) 0.2649(3) 0.4577(2)
C13 C -0.1355(4) 0.3204(3) 0.4467(2)
C14 C -0.0488(4) 0.3175(3) 0.4727(3)
H15 H -0.0259 0.2753 0.4974
C15 C 0.0038(4) 0.3761(3) 0.4625(3)
H16 H 0.0628 0.3760 0.4814
C16 C -0.0307(4) 0.4347(3) 0.4245(3)
H17 H 0.0039 0.4768 0.4179
C17 C -0.1157(4) 0.4316(3) 0.3963(3)
H18 H -0.1387 0.4705 0.3684
C18 C -0.3910(4) -0.0323(3) 0.4938(3)
H19 H -0.3721 -0.0669 0.5259
C19 C -0.4596(4) -0.0548(3) 0.4482(3)
H20 H -0.4889 -0.1021 0.4500
C20 C -0.4829(4) -0.0060(3) 0.4010(3)
H21 H -0.5280 -0.0202 0.3685
C21 C -0.4409(4) 0.0645(3) 0.4002(3)
H22 H -0.4566 0.0985 0.3674
C22 C -0.3760(4) 0.0834(3) 0.4482(3)
C23 C -0.3258(3) 0.1563(3) 0.4530(2)
C24 C -0.1934(3) 0.2088(3) 0.5023(2)
C25 C -0.1282(3) 0.2011(3) 0.5588(2)
C26 C -0.0815(3) 0.2609(3) 0.5896(2)
H23 H -0.0910 0.3124 0.5756
C27 C -0.0206(3) 0.2454(3) 0.6411(3)
H24 H 0.0124 0.2860 0.6626
C28 C -0.0088(4) 0.1707(4) 0.6606(3)
H25 H 0.0356 0.1582 0.6940
C29 C -0.0623(3) 0.1135(3) 0.6311(3)
H26 H -0.0563 0.0624 0.6464
C30 C -0.1428(3) -0.0060(3) 0.4628(2)
H27 H -0.1524 0.0427 0.4436
C31 C -0.0978(4) -0.0615(3) 0.4402(3)
H28 H -0.0767 -0.0514 0.4060
C32 C -0.0840(4) -0.1322(3) 0.4683(3)
H29 H -0.0544 -0.1718 0.4530
C33 C -0.1139(4) -0.1449(3) 0.5191(2)
H30 H -0.1032 -0.1926 0.5398
C34 C -0.1592(3) -0.0871(3) 0.5390(2)
C35 C -0.1938(3) -0.0910(3) 0.5938(2)
C36 C -0.2538(3) -0.0130(3) 0.6562(2)
C37 C -0.2760(3) 0.0686(3) 0.6654(2)
C38 C -0.2826(4) 0.0995(3) 0.7185(3)
H31 H -0.2748 0.0676 0.7526
C39 C -0.3008(5) 0.1778(4) 0.7224(3)
H32 H -0.3035 0.2004 0.7591
C40 C -0.3147(4) 0.2221(4) 0.6712(3)
H33 H -0.3299 0.2750 0.6720
C41 C -0.3060(4) 0.1881(3) 0.6192(3)
H34 H -0.3150 0.2184 0.5843
C42 C -0.3352(4) -0.0853(4) 0.8340(3)
H35 H -0.3128 -0.0924 0.8752
C43 C -0.4203(4) -0.0741(4) 0.8125(3)
H36 H -0.4587 -0.0740 0.8381
C44 C -0.4492(4) -0.0629(4) 0.7527(3)
H37 H -0.5086 -0.0539 0.7379
C45 C -0.2813(4) -0.0865(4) 0.7953(3)
H38 H -0.2216 -0.0941 0.8096
C46 C -0.3160(3) -0.0764(3) 0.7356(2)
C47 C -0.2652(3) -0.0778(3) 0.6891(2)
C48 C -0.2031(3) -0.1550(3) 0.6284(2)
C49 C -0.1883(3) -0.2378(3) 0.6146(2)
C50 C -0.1312(3) -0.2843(3) 0.6534(2)
H39 H -0.0938 -0.2630 0.6873
C51 C -0.1298(4) -0.3626(3) 0.6414(3)
H40 H -0.0917 -0.3961 0.6673
C52 C -0.1848(4) -0.3910(3) 0.5913(3)
H41 H -0.1867 -0.4447 0.5828
C53 C -0.2370(4) -0.3400(4) 0.5537(3)
H42 H -0.2727 -0.3595 0.5183
O3C O -0.2518(2) 0.0880(2) 0.21622(17)
O12C O -0.1951(3) -0.0326(2) 0.18016(19)
O16C O -0.1006(2) 0.0404(2) 0.26284(17)
O14C O -0.3237(3) 0.4368(2) 0.4269(2)
Mo1C Mo -0.22924(3) 0.69198(3) 0.22864(2)
Mo2C Mo -0.17950(3) 0.65294(3) 0.37476(2)
Mo3C Mo -0.35518(3) 0.52836(3) 0.39741(2)
Ni1C Ni -0.20949(5) -0.13902(5) 0.13800(4)
Mo4C Mo -0.51832(3) 0.56322(3) 0.27809(2)
Mo5C Mo -0.43473(3) 0.64422(3) 0.17175(2)
O22 O -0.3429(4) 0.7981(3) 0.4621(2)
O23 O -0.5066(5) 0.7705(5) 0.4717(4)
O25 O -0.2133(12) 0.8626(8) 0.9646(3)
O26 O -0.9387(6) 0.1283(6) 0.0703(4)
O24? O -0.161(3) 0.860(3) 0.9591(17)
loop_
_geom_bond_atom_site_label_1
_geom_bond_atom_site_label_2
_geom_bond_site_symmetry_1
_geom_bond_site_symmetry_2
Mo1 O1 1_555 1_555
Mo2 O6 1_555 1_555
Mo3 O9 1_555 1_555
Mo4 O11 1_555 1_555
Mo5 O1 1_555 1_555
Ni1 O4 1_555 1_555
Ni2 N4 1_555 1_555
P1 O3 1_555 1_555
P2 O2 1_555 1_555
O2 Mo1 1_555 1_555
O3 Mo1C 1_555 1_555
O4 Mo1 1_555 1_555
O5 Mo1 1_555 1_555
O6 Mo1 1_555 1_555
O7 Mo2 1_555 1_555
O8 Mo2 1_555 1_555
O9 Mo2 1_555 1_555
O10 Mo2 1_555 1_555
O11 Mo3 1_555 1_555
O12 Ni1 1_555 1_555
O13 Mo3 1_555 1_555
O14 Mo3 1_555 1_555
O15 Mo3 1_555 1_555
O16 P1 1_555 1_555
O17 Mo4 1_555 1_555
O18 Mo4 1_555 1_555
O19 Mo4 1_555 1_555
O20 Mo5 1_555 1_555
O21 Mo5 1_555 1_555
N1 Ni1 1_555 1_555
N2 Ni1 1_555 1_555
N3 Ni1 1_555 1_555
N4 C18 1_555 1_555
N5 Ni2 1_555 1_555
N6 Ni2 1_555 1_555
N7 Ni2 1_555 1_555
N8 Ni2 1_555 1_555
N9 Ni2 1_555 1_555
N10 C44 1_555 1_555
N11 C47 1_555 1_555
N12 C49 1_555 1_555
C1 P1 1_555 1_555
H1 C1 1_555 1_555
H2 C1 1_555 1_555
C2 C1 1_555 1_555
H3 C2 1_555 1_555
H4 C2 1_555 1_555
C3 C2 1_555 1_555
H5 C3 1_555 1_555
H6 C3 1_555 1_555
C4 P2 1_555 1_555
H7 C4 1_555 1_555
H8 C4 1_555 1_555
C5 C3 1_555 1_555
H9 C5 1_555 1_555
H10 C5 1_555 1_555
C6 N1 1_555 1_555
H11 C6 1_555 1_555
C7 C6 1_555 1_555
H12 C7 1_555 1_555
C8 C7 1_555 1_555
H13 C8 1_555 1_555
C9 C8 1_555 1_555
H14 C9 1_555 1_555
C10 N1 1_555 1_555
C11 N2 1_555 1_555
C12 N2 1_555 1_555
C13 N3 1_555 1_555
C14 C13 1_555 1_555
H15 C14 1_555 1_555
C15 C14 1_555 1_555
H16 C15 1_555 1_555
C16 C15 1_555 1_555
H17 C16 1_555 1_555
C17 N3 1_555 1_555
H18 C17 1_555 1_555
C18 H19 1_555 1_555
C19 C18 1_555 1_555
H20 C19 1_555 1_555
C20 C19 1_555 1_555
H21 C20 1_555 1_555
C21 C20 1_555 1_555
H22 C21 1_555 1_555
C22 N4 1_555 1_555
C23 N5 1_555 1_555
C24 N5 1_555 1_555
C25 N6 1_555 1_555
C26 C25 1_555 1_555
H23 C26 1_555 1_555
C27 C26 1_555 1_555
H24 C27 1_555 1_555
C28 C27 1_555 1_555
H25 C28 1_555 1_555
C29 N6 1_555 1_555
H26 C29 1_555 1_555
C30 N7 1_555 1_555
H27 C30 1_555 1_555
C31 C30 1_555 1_555
H28 C31 1_555 1_555
C32 C31 1_555 1_555
H29 C32 1_555 1_555
C33 C32 1_555 1_555
H30 C33 1_555 1_555
C34 N7 1_555 1_555
C35 N8 1_555 1_555
C36 N8 1_555 1_555
C37 N9 1_555 1_555
C38 C37 1_555 1_555
H31 C38 1_555 1_555
C39 C38 1_555 1_555
H32 C39 1_555 1_555
C40 C39 1_555 1_555
H33 C40 1_555 1_555
C41 N9 1_555 1_555
H34 C41 1_555 1_555
C42 H35 1_555 1_555
C43 C42 1_555 1_555
H36 C43 1_555 1_555
C44 C43 1_555 1_555
H37 C44 1_555 1_555
C45 C42 1_555 1_555
H38 C45 1_555 1_555
C46 N10 1_555 1_555
C47 C36 1_555 1_555
C48 N11 1_555 1_555
C49 C48 1_555 1_555
C50 C49 1_555 1_555
H39 C50 1_555 1_555
C51 C50 1_555 1_555
H40 C51 1_555 1_555
C52 C51 1_555 1_555
H41 C52 1_555 1_555
C53 N12 1_555 1_555
H42 C53 1_555 1_555
O3C Mo1 1_555 1_555
O12C Mo3 1_555 1_555
O16C Mo4 1_555 1_555
O14C Ni1 1_555 1_555
Mo2C O3 1_555 1_555
Mo3C O12 1_555 1_555
Ni1C O14 1_555 1_555
Mo4C O16 1_555 1_555
Mo5C O16 1_555 1_555
Mo2 O3C 1_555 1_555
Mo4 O13 1_555 1_555
Mo5 O2 1_555 1_555
Mo5 O17 1_555 1_555
Mo5 O16C 1_555 1_555
P1 O12 1_555 1_555
P2 O8 1_555 1_555
P2 O11 1_555 1_555
C4 C5 1_555 1_555
C9 C10 1_555 1_555
C10 C11 1_555 1_555
C11 C23 1_555 1_555
C12 C13 1_555 1_555
C12 C24 1_555 1_555
C16 C17 1_555 1_555
C21 C22 1_555 1_555
C22 C23 1_555 1_555
C24 C25 1_555 1_555
C28 C29 1_555 1_555
C33 C34 1_555 1_555
C34 C35 1_555 1_555
C35 C48 1_555 1_555
C36 C37 1_555 1_555
C40 C41 1_555 1_555
C45 C46 1_555 1_555
C46 C47 1_555 1_555
C52 C53 1_555 1_555
O12C Ni1C 1_555 1_555
O14C Mo3C 1_555 1_555

#END
