
#######################################################################
#
#                 Cambridge Crystallographic Data Centre
#                                CCDC 
#
#######################################################################
#
# If this CIF has been generated from an entry in the Cambridge 
# Structural Database, then it will include bibliographic, chemical, 
# crystal, experimental, refinement or atomic coordinate data resulting 
# from the CCDC's data processing and validation procedures.
#
#######################################################################

data_SAHTIF01
_symmetry_cell_setting           orthorhombic
_symmetry_space_group_name_H-M   'P m n a'
_symmetry_Int_Tables_number      53
_space_group_name_Hall           '-P 2ac 2'
loop_
_symmetry_equiv_pos_site_id
_symmetry_equiv_pos_as_xyz
1 x,y,z
2 1/2-x,-y,1/2+z
3 x,-y,-z
4 1/2-x,y,1/2-z
5 -x,-y,-z
6 1/2+x,y,1/2-z
7 -x,y,z
8 1/2+x,-y,1/2+z
_cell_length_a                   7.5374(3)
_cell_length_b                   5.3004(3)
_cell_length_c                   10.4638(5)
_cell_angle_alpha                90
_cell_angle_beta                 90
_cell_angle_gamma                90
_cell_volume                     418.042
loop_
_atom_site_label
_atom_site_type_symbol
_atom_site_fract_x
_atom_site_fract_y
_atom_site_fract_z
Fe1 Fe 0.5000 -0.5000 0.0000
N1 N 0.2889(7) -0.2809(11) 0.0780(5)
N2 N 0.0000 0.2729(16) 0.3267(7)
C1 C 0.1585(10) -0.1894(14) 0.1157(8)
C2 C 0.0000 -0.0834(19) 0.1597(10)
C3 C 0.0000 0.1170(21) 0.2518(11)
Fe1A Fe 0.0000 0.5000 0.5000
N1B N 0.2889(7) -0.7191(11) -0.0780(5)
C1B C 0.1585(10) -0.8106(14) -0.1157(8)
C2B C 0.0000 -0.9166(19) -0.1597(10)
C1D C -0.1585(10) -0.8106(14) -0.1157(8)
N1D N -0.2889(7) -0.7191(11) -0.0780(5)
Fe1_2 Fe -0.5000 -0.5000 0.0000
N1F N -0.2889(7) -0.2809(11) 0.0780(5)
C1F C -0.1585(10) -0.1894(14) 0.1157(8)
C3B C 0.0000 -1.1170(21) -0.2518(11)
N2B N 0.0000 -1.2729(16) -0.3267(7)
Fe1A_2 Fe 0.0000 -1.5000 -0.5000
N1D_2 N 0.7111(7) -0.7191(11) -0.0780(5)
N1F_2 N 0.7111(7) -0.2809(11) 0.0780(5)
N2A N 0.5000 -0.2729(16) -0.1733(7)
N2C N 0.5000 -0.7271(16) 0.1733(7)
loop_
_geom_bond_atom_site_label_1
_geom_bond_atom_site_label_2
_geom_bond_site_symmetry_1
_geom_bond_site_symmetry_2
Fe1 N1 1_555 1_555
N1 C1 1_555 1_555
N2 C3 1_555 1_555
C1 C2 1_555 1_555
C2 C3 1_555 1_555
Fe1A N2 1_555 1_555
N1B Fe1 1_555 1_555
C1B N1B 1_555 1_555
C2B C1B 1_555 1_555
C1D C2B 1_555 1_555
N1D C1D 1_555 1_555
Fe1_2 N1D 1_555 1_555
N1F Fe1_2 1_555 1_555
C1F C2 1_555 1_555
C3B C2B 1_555 1_555
N2B C3B 1_555 1_555
Fe1A_2 N2B 1_555 1_555
N1D_2 Fe1 1_555 1_555
N1F_2 Fe1 1_555 1_555
N2A Fe1 1_555 1_555
N2C Fe1 1_555 1_555
N1F C1F 1_555 1_555

#END
