
#######################################################################
#
#                 Cambridge Crystallographic Data Centre
#                                CCDC 
#
#######################################################################
#
# If this CIF has been generated from an entry in the Cambridge 
# Structural Database, then it will include bibliographic, chemical, 
# crystal, experimental, refinement or atomic coordinate data resulting 
# from the CCDC's data processing and validation procedures.
#
#######################################################################

data_SAHYAD02
_symmetry_cell_setting           tetragonal
_symmetry_space_group_name_H-M   'P 43 21 2'
_symmetry_Int_Tables_number      96
_space_group_name_Hall           'P 4nw 2abw'
loop_
_symmetry_equiv_pos_site_id
_symmetry_equiv_pos_as_xyz
1 x,y,z
2 -x,-y,1/2+z
3 1/2-y,1/2+x,3/4+z
4 1/2+y,1/2-x,1/4+z
5 1/2-x,1/2+y,3/4-z
6 1/2+x,1/2-y,1/4-z
7 y,x,-z
8 -y,-x,1/2-z
_cell_length_a                   15.8545(8)
_cell_length_b                   15.8545(8)
_cell_length_c                   21.596(2)
_cell_angle_alpha                90
_cell_angle_beta                 90
_cell_angle_gamma                90
_cell_volume                     5428.48
loop_
_atom_site_label
_atom_site_type_symbol
_atom_site_fract_x
_atom_site_fract_y
_atom_site_fract_z
C1 C 0.8602(3) 0.0870(3) -0.1087(2)
H1 H 0.8896 0.0370 -0.0977
C2 C 0.7986(4) 0.1162(4) -0.0690(2)
H2 H 0.7859 0.0861 -0.0321
C3 C 0.7553(3) 0.1899(4) -0.0833(2)
C4 C 0.7829(4) 0.2340(3) -0.1357(2)
H3 H 0.7597 0.2878 -0.1451
C5 C 0.8432(4) 0.1996(4) -0.1733(2)
H4 H 0.8592 0.2302 -0.2092
C6 C 0.6827(3) 0.2211(3) -0.0461(2)
C7 C 0.6644(4) 0.1902(3) 0.0133(2)
H5 H 0.6998 0.1485 0.0313
C8 C 0.5963(4) 0.2193(4) 0.0454(3)
H6 H 0.5861 0.1988 0.0861
C9 C 0.5416(4) 0.2783(4) 0.0201(3)
H7 H 0.4928 0.2962 0.0420
C10 C 0.5599(3) 0.3105(3) -0.0384(2)
C11 C 0.6292(3) 0.2815(3) -0.0715(2)
H8 H 0.6402 0.3030 -0.1117
C12 C 0.5040(3) 0.3728(3) -0.0692(2)
C13 C 0.4093(3) 0.4236(3) -0.1320(2)
C14 C 0.3389(3) 0.4326(4) -0.1764(2)
C15 C 0.3373(4) 0.5043(4) -0.2130(3)
H9 H 0.3809 0.5452 -0.2100
C16 C 0.2708(4) 0.5158(4) -0.2544(3)
H10 H 0.2682 0.5652 -0.2793
C17 C 0.2085(4) 0.4550(4) -0.2590(3)
H11 H 0.1641 0.4627 -0.2880
C18 C 0.2093(3) 0.3833(3) -0.2225(2)
C19 C 0.2754(3) 0.3734(3) -0.1807(2)
H12 H 0.2768 0.3251 -0.1547
C20 C 0.1425(4) 0.3179(4) -0.2281(2)
C21 C 0.0947(4) 0.3086(3) -0.2816(3)
H13 H 0.1010 0.3476 -0.3147
C22 C 0.0382(3) 0.2430(4) -0.2869(3)
H14 H 0.0068 0.2378 -0.3242
C23 C 0.0689(4) 0.1963(4) -0.1896(2)
H15 H 0.0595 0.1574 -0.1569
C24 C 0.1268(4) 0.2602(4) -0.1805(3)
H16 H 0.1557 0.2650 -0.1421
Cd1 Cd 0.94102(2) 0.05898(2) -0.2500
N1 N 0.8812(3) 0.1256(3) -0.1625(2)
N2 N 0.5063(3) 0.4559(3) -0.0655(2)
N3 N 0.4461(3) 0.4882(3) -0.1046(2)
N4 N 0.4440(3) 0.3508(3) -0.1112(2)
N5 N 0.4260(4) 0.2689(3) -0.1318(3)
H18 H 0.4712 0.2402 -0.1432
H19 H 0.4141 0.2405 -0.0975
N6 N 0.0255(3) 0.1864(3) -0.2420(2)
C1_2 C 1.8602(3) 0.0870(3) -0.1087(2)
H1_2 H 1.8896 0.0370 -0.0977
C2_2 C 1.7986(4) 0.1162(4) -0.0690(2)
H2_2 H 1.7859 0.0861 -0.0321
C3_2 C 1.7553(3) 0.1899(4) -0.0833(2)
C4_2 C 1.7829(4) 0.2340(3) -0.1357(2)
H3_2 H 1.7597 0.2878 -0.1451
C5_2 C 1.8432(4) 0.1996(4) -0.1733(2)
H4_2 H 1.8592 0.2302 -0.2092
C6_2 C 1.6827(3) 0.2211(3) -0.0461(2)
C7_2 C 1.6644(4) 0.1902(3) 0.0133(2)
H5_2 H 1.6998 0.1485 0.0313
C8_2 C 1.5963(4) 0.2193(4) 0.0454(3)
H6_2 H 1.5861 0.1988 0.0861
C9_2 C 1.5416(4) 0.2783(4) 0.0201(3)
H7_2 H 1.4928 0.2962 0.0420
C10_2 C 1.5599(3) 0.3105(3) -0.0384(2)
C11_2 C 1.6292(3) 0.2815(3) -0.0715(2)
H8_2 H 1.6402 0.3030 -0.1117
C12_2 C 1.5040(3) 0.3728(3) -0.0692(2)
C13_2 C 1.4093(3) 0.4236(3) -0.1320(2)
C14_2 C 1.3389(3) 0.4326(4) -0.1764(2)
C15_2 C 1.3373(4) 0.5043(4) -0.2130(3)
H9_2 H 1.3809 0.5452 -0.2100
C16_2 C 1.2708(4) 0.5158(4) -0.2544(3)
H10_2 H 1.2682 0.5652 -0.2793
C17_2 C 1.2085(4) 0.4550(4) -0.2590(3)
H11_2 H 1.1641 0.4627 -0.2880
C18_2 C 1.2093(3) 0.3833(3) -0.2225(2)
C19_2 C 1.2754(3) 0.3734(3) -0.1807(2)
H12_2 H 1.2768 0.3251 -0.1547
C20_2 C 1.1425(4) 0.3179(4) -0.2281(2)
C21_2 C 1.0947(4) 0.3086(3) -0.2816(3)
H13_2 H 1.1010 0.3476 -0.3147
C22_2 C 1.0382(3) 0.2430(4) -0.2869(3)
H14_2 H 1.0068 0.2378 -0.3242
C23_2 C 1.0689(4) 0.1963(4) -0.1896(2)
H15_2 H 1.0595 0.1574 -0.1569
C24_2 C 1.1268(4) 0.2602(4) -0.1805(3)
H16_2 H 1.1557 0.2650 -0.1421
Cd1C Cd 0.55898(2) 0.55898(2) 0.0000
Cd1_2 Cd -0.05898(2) 0.05898(2) -0.2500
Cd1_3 Cd 1.94102(2) 0.05898(2) -0.2500
Cd1C_2 Cd 1.55898(2) 0.55898(2) 0.0000
N1_2 N 1.8812(3) 0.1256(3) -0.1625(2)
N1G N 0.8744(3) 0.1188(3) -0.3375(2)
N2_2 N 1.5063(3) 0.4559(3) -0.0655(2)
N2B N 1.0441(3) 0.0063(3) -0.3155(2)
N2D N 0.9937(3) -0.0441(3) -0.1845(2)
N3_2 N 1.4461(3) 0.4882(3) -0.1046(2)
N4_2 N 1.4440(3) 0.3508(3) -0.1112(2)
N5_2 N 1.4260(4) 0.2689(3) -0.1318(3)
H18_2 H 1.4712 0.2402 -0.1432
H19_2 H 1.4141 0.2405 -0.0975
N6_2 N 1.0255(3) 0.1864(3) -0.2420(2)
N6G N 0.8136(3) -0.0255(3) -0.2580(2)
Cl2 Cl 0.26882(12) 0.26882(12) 0.0000
O1 O 0.2452(8) 0.2268(5) -0.0523(3)
O3 O 0.2131(10) 0.3372(13) -0.0207(18)
O1F O 0.2268(5) 0.2452(8) 0.0523(3)
O3F O 0.3372(13) 0.2131(10) 0.0207(18)
Cl3 Cl 0.0639(3) 0.4158(2) 0.40464(14)
C25 C 0.0406(6) 0.4644(6) 0.3360(4)
H17 H 0.0190 0.4248 0.3036
Cl4 Cl 0.1211(3) 0.5277(3) 0.31035(16)
Cl5 Cl -0.0365(7) 0.5249(8) 0.3688(7)
Cl1? Cl 0.37550(13) 0.62450(13) 0.2500
O2? O 0.3299(5) 0.3299(5) 0.0000
O4? O 0.4535(8) 0.599(2) 0.2769(8)
O5? O 0.3163(14) 0.5993(9) 0.2954(9)
O6? O 0.3853(18) 0.7139(7) 0.2576(12)
C26? C 0.0406(6) 0.4644(6) 0.3360(4)
Cl6? Cl 0.0426(8) 0.5706(5) 0.3269(4)
Cl7? Cl -0.0394(4) 0.4196(3) 0.2944(2)
H20? H 0.0905 0.4475 0.3105
O7? O 0.414(2) 0.6096(14) 0.3059(7)
loop_
_geom_bond_atom_site_label_1
_geom_bond_atom_site_label_2
_geom_bond_site_symmetry_1
_geom_bond_site_symmetry_2
C1 H1 1_555 1_555
C2 C1 1_555 1_555
H2 C2 1_555 1_555
C3 C2 1_555 1_555
C4 C3 1_555 1_555
H3 C4 1_555 1_555
C5 C4 1_555 1_555
H4 C5 1_555 1_555
C6 C3 1_555 1_555
C7 C6 1_555 1_555
H5 C7 1_555 1_555
C8 C7 1_555 1_555
H6 C8 1_555 1_555
C9 C8 1_555 1_555
H7 C9 1_555 1_555
C10 C9 1_555 1_555
C11 C6 1_555 1_555
H8 C11 1_555 1_555
C12 C10 1_555 1_555
C13 C14 1_555 1_555
C14 C15 1_555 1_555
C15 H9 1_555 1_555
C16 C15 1_555 1_555
H10 C16 1_555 1_555
C17 C16 1_555 1_555
H11 C17 1_555 1_555
C18 C17 1_555 1_555
C19 C14 1_555 1_555
H12 C19 1_555 1_555
C20 C18 1_555 1_555
C21 C20 1_555 1_555
H13 C21 1_555 1_555
C22 C21 1_555 1_555
H14 C22 1_555 1_555
C23 H15 1_555 1_555
C24 C20 1_555 1_555
H16 C24 1_555 1_555
Cd1 N1 1_555 1_555
Cl2 O1 1_555 1_555
Cl3 C25 1_555 1_555
C25 H17 1_555 1_555
Cl4 C25 1_555 1_555
Cl5 C25 1_555 1_555
N1 C1 1_555 1_555
N2 C12 1_555 1_555
N3 C13 1_555 1_555
N4 C12 1_555 1_555
N5 N4 1_555 1_555
H18 N5 1_555 1_555
H19 N5 1_555 1_555
N6 C22 1_555 1_555
O3 Cl2 1_555 1_555
C1_2 H1_2 1_555 1_555
C2_2 C1_2 1_555 1_555
H2_2 C2_2 1_555 1_555
C3_2 C2_2 1_555 1_555
C4_2 C3_2 1_555 1_555
H3_2 C4_2 1_555 1_555
C5_2 C4_2 1_555 1_555
H4_2 C5_2 1_555 1_555
C6_2 C3_2 1_555 1_555
C7_2 C6_2 1_555 1_555
H5_2 C7_2 1_555 1_555
C8_2 C7_2 1_555 1_555
H6_2 C8_2 1_555 1_555
C9_2 C8_2 1_555 1_555
H7_2 C9_2 1_555 1_555
C10_2 C9_2 1_555 1_555
C11_2 C6_2 1_555 1_555
H8_2 C11_2 1_555 1_555
C12_2 C10_2 1_555 1_555
C13_2 C14_2 1_555 1_555
C14_2 C15_2 1_555 1_555
C15_2 H9_2 1_555 1_555
C16_2 C15_2 1_555 1_555
H10_2 C16_2 1_555 1_555
C17_2 C16_2 1_555 1_555
H11_2 C17_2 1_555 1_555
C18_2 C17_2 1_555 1_555
C19_2 C14_2 1_555 1_555
H12_2 C19_2 1_555 1_555
C20_2 C18_2 1_555 1_555
C21_2 C20_2 1_555 1_555
H13_2 C21_2 1_555 1_555
C22_2 C21_2 1_555 1_555
H14_2 C22_2 1_555 1_555
C23_2 H15_2 1_555 1_555
C24_2 C20_2 1_555 1_555
H16_2 C24_2 1_555 1_555
Cd1C N2 1_555 1_555
Cd1_2 N6 1_555 1_555
Cd1_3 N1_2 1_555 1_555
Cd1C_2 N2_2 1_555 1_555
N1_2 C1_2 1_555 1_555
N1G Cd1 1_555 1_555
N2_2 C12_2 1_555 1_555
N2B Cd1 1_555 1_555
N2D Cd1 1_555 1_555
N3_2 C13_2 1_555 1_555
N4_2 C12_2 1_555 1_555
N5_2 N4_2 1_555 1_555
H18_2 N5_2 1_555 1_555
H19_2 N5_2 1_555 1_555
N6_2 Cd1 1_555 1_555
N6G Cd1 1_555 1_555
O1F Cl2 1_555 1_555
O3F Cl2 1_555 1_555
C5 N1 1_555 1_555
C10 C11 1_555 1_555
C13 N4 1_555 1_555
C18 C19 1_555 1_555
C23 C24 1_555 1_555
C23 N6 1_555 1_555
N2 N3 1_555 1_555
C5_2 N1_2 1_555 1_555
C10_2 C11_2 1_555 1_555
C13_2 N4_2 1_555 1_555
C18_2 C19_2 1_555 1_555
C22_2 N6_2 1_555 1_555
C23_2 C24_2 1_555 1_555
C23_2 N6_2 1_555 1_555
N2_2 N3_2 1_555 1_555

#END
