
#######################################################################
#
#                 Cambridge Crystallographic Data Centre
#                                CCDC 
#
#######################################################################
#
# If this CIF has been generated from an entry in the Cambridge 
# Structural Database, then it will include bibliographic, chemical, 
# crystal, experimental, refinement or atomic coordinate data resulting 
# from the CCDC's data processing and validation procedures.
#
#######################################################################

data_SAJCIQ
_symmetry_cell_setting           orthorhombic
_symmetry_space_group_name_H-M   'C 2 2 21'
_symmetry_Int_Tables_number      20
_space_group_name_Hall           'C 2n 2'
loop_
_symmetry_equiv_pos_site_id
_symmetry_equiv_pos_as_xyz
1 x,y,z
2 -x,-y,1/2+z
3 x,-y,-z
4 -x,y,1/2-z
5 1/2+x,1/2+y,z
6 1/2-x,1/2-y,1/2+z
7 1/2+x,1/2-y,-z
8 1/2-x,1/2+y,1/2-z
_cell_length_a                   12.6255(6)
_cell_length_b                   13.7423(8)
_cell_length_c                   21.4274(11)
_cell_angle_alpha                90
_cell_angle_beta                 90
_cell_angle_gamma                90
_cell_volume                     3717.73
loop_
_atom_site_label
_atom_site_type_symbol
_atom_site_fract_x
_atom_site_fract_y
_atom_site_fract_z
C1 C 1.36313(11) 1.09472(10) 0.84830(6)
C2 C 1.25017(10) 1.06536(9) 0.86386(6)
C3 C 1.18611(11) 1.01728(10) 0.81977(6)
C4 C 1.08079(12) 0.99524(11) 0.83305(7)
H1 H 1.0378 0.9632 0.8030
C5 C 1.03966(12) 1.02071(11) 0.89080(8)
H2 H 0.9678 1.0059 0.8998
C6 C 1.10018(12) 1.06710(11) 0.93562(7)
H3 H 1.0698 1.0847 0.9746
C7 C 1.20642(11) 1.08791(10) 0.92316(6)
C8 C 1.20949(11) 0.91057(10) 0.72710(6)
C9 C 1.28918(12) 0.88357(11) 0.67575(7)
C10 C 1.24662(12) 1.17395(11) 1.02335(7)
C11 C 1.33849(13) 1.22116(11) 1.05938(7)
C12 C 1.37045(17) 0.96370(14) 0.66163(9)
H4 H 1.4142 0.9753 0.6987
H5 H 1.3333 1.0238 0.6503
H6 H 1.4158 0.9432 0.6269
C13 C 1.34700(15) 0.79204(13) 0.69929(9)
H7 H 1.2948 0.7432 0.7122
H8 H 1.3919 0.8092 0.7349
H9 H 1.3911 0.7655 0.6657
C14 C 1.22823(15) 0.85863(15) 0.61593(8)
H10 H 1.1958 0.9178 0.5990
H11 H 1.1728 0.8110 0.6255
H12 H 1.2772 0.8312 0.5851
C15 C 1.44731(15) 1.2071(2) 1.03007(10)
H13 H 1.4488 1.2381 0.9889
H14 H 1.4618 1.1374 1.0256
H15 H 1.5013 1.2367 1.0569
C16 C 1.3125(2) 1.33107(14) 1.06268(12)
H16 H 1.2406 1.3399 1.0789
H17 H 1.3173 1.3594 1.0208
H18 H 1.3632 1.3635 1.0904
C17 C 1.33921(16) 1.18067(16) 1.12593(8)
H19 H 1.3608 1.1122 1.1251
H20 H 1.2681 1.1860 1.1439
H21 H 1.3893 1.2180 1.1514
N1 N 1.23312(10) 0.98902(9) 0.76226(5)
H22 H 1.291(2) 1.0230(18) 0.7551(12)
N2 N 1.27292(10) 1.13083(10) 0.96825(6)
H23 H 1.343(2) 1.1305(19) 0.9591(12)
O1 O 1.38324(9) 1.11903(8) 0.79235(5)
O2 O 1.43011(9) 1.09522(9) 0.89158(5)
O3 O 1.13025(9) 0.85903(8) 0.73607(5)
O4 O 1.15545(10) 1.17897(11) 1.04350(6)
O5 O 1.56223(10) 1.23438(10) 0.85273(5)
H24 H 1.530(2) 1.185(2) 0.8709(13)
H25 H 1.596(2) 1.266(2) 0.8825(15)
Ca1 Ca 1.5000 1.23819(2) 0.7500
Ca1D Ca 1.0000 0.73819(2) 0.7500
O1C O 1.61676(9) 1.11903(8) 0.70765(5)
O3D O 1.63025(9) 1.35903(8) 0.73607(5)
O3G O 1.36975(9) 1.35903(8) 0.76393(5)
O5C O 1.43777(10) 1.23438(10) 0.64727(5)
C1C C 1.63687(11) 1.09472(10) 0.65170(6)
H24C H 1.470(2) 1.185(2) 0.6291(13)
H25C H 1.404(2) 1.266(2) 0.6175(15)
C2C C 1.74983(10) 1.06536(9) 0.63614(6)
O2C O 1.56989(9) 1.09522(9) 0.60842(5)
C3C C 1.81389(11) 1.01728(10) 0.68023(6)
C7C C 1.79358(11) 1.08791(10) 0.57684(6)
C4C C 1.91921(12) 0.99524(11) 0.66695(7)
N1C N 1.76688(10) 0.98902(9) 0.73774(5)
C6C C 1.89982(12) 1.06710(11) 0.56438(7)
N2C N 1.72708(10) 1.13083(10) 0.53175(6)
H1C H 1.9622 0.9632 0.6970
C5C C 1.96034(12) 1.02071(11) 0.60920(8)
C8C C 1.79051(11) 0.91057(10) 0.77290(6)
H22C H 1.709(2) 1.0230(18) 0.7449(12)
H3C H 1.9302 1.0847 0.5254
C10C C 1.75338(12) 1.17395(11) 0.47665(7)
H23C H 1.657(2) 1.1305(19) 0.5409(12)
H2C H 2.0322 1.0059 0.6002
C9C C 1.71082(12) 0.88357(11) 0.82425(7)
O3C O 1.86975(9) 0.85903(8) 0.76393(5)
C11C C 1.66151(13) 1.22116(11) 0.44062(7)
O4C O 1.84455(10) 1.17897(11) 0.45650(6)
Ca1D_2 Ca 2.0000 0.73819(2) 0.7500
C12C C 1.62955(17) 0.96370(14) 0.83837(9)
C13C C 1.65300(15) 0.79204(13) 0.80071(9)
C14C C 1.77177(15) 0.85863(15) 0.88407(8)
C15C C 1.55269(15) 1.2071(2) 0.46993(10)
C16C C 1.6875(2) 1.33107(14) 0.43732(12)
C17C C 1.66079(16) 1.18067(16) 0.37407(8)
H4C H 1.5858 0.9753 0.8013
H5C H 1.6667 1.0238 0.8497
H6C H 1.5842 0.9432 0.8731
H7C H 1.7052 0.7432 0.7878
H8C H 1.6081 0.8092 0.7651
H9C H 1.6089 0.7655 0.8343
H10C H 1.8042 0.9178 0.9010
H11C H 1.8272 0.8110 0.8745
H12C H 1.7228 0.8312 0.9149
H13C H 1.5512 1.2381 0.5111
H14C H 1.5382 1.1374 0.4744
H15C H 1.4987 1.2367 0.4431
H16C H 1.7594 1.3399 0.4211
H17C H 1.6827 1.3594 0.4792
H18C H 1.6368 1.3635 0.4096
H19C H 1.6392 1.1122 0.3749
H20C H 1.7319 1.1860 0.3561
H21C H 1.6107 1.2180 0.3486
loop_
_geom_bond_atom_site_label_1
_geom_bond_atom_site_label_2
_geom_bond_site_symmetry_1
_geom_bond_site_symmetry_2
C1 C2 1_555 1_555
C2 C3 1_555 1_555
C3 C4 1_555 1_555
C4 H1 1_555 1_555
C5 C4 1_555 1_555
H2 C5 1_555 1_555
C6 C5 1_555 1_555
H3 C6 1_555 1_555
C7 C2 1_555 1_555
C8 C9 1_555 1_555
C9 C12 1_555 1_555
C10 C11 1_555 1_555
C11 C15 1_555 1_555
C12 H4 1_555 1_555
H5 C12 1_555 1_555
H6 C12 1_555 1_555
C13 C9 1_555 1_555
H7 C13 1_555 1_555
H8 C13 1_555 1_555
H9 C13 1_555 1_555
C14 C9 1_555 1_555
H10 C14 1_555 1_555
H11 C14 1_555 1_555
H12 C14 1_555 1_555
C15 H13 1_555 1_555
H14 C15 1_555 1_555
H15 C15 1_555 1_555
C16 C11 1_555 1_555
H16 C16 1_555 1_555
H17 C16 1_555 1_555
H18 C16 1_555 1_555
C17 C11 1_555 1_555
H19 C17 1_555 1_555
H20 C17 1_555 1_555
H21 C17 1_555 1_555
N1 C3 1_555 1_555
H22 N1 1_555 1_555
N2 C7 1_555 1_555
H23 N2 1_555 1_555
O1 C1 1_555 1_555
O2 C1 1_555 1_555
O3 C8 1_555 1_555
O4 C10 1_555 1_555
O5 H24 1_555 1_555
H25 O5 1_555 1_555
Ca1 O1 1_555 1_555
Ca1D O3 1_555 1_555
O1C Ca1 1_555 1_555
O3D Ca1 1_555 1_555
O3G Ca1 1_555 1_555
O5C Ca1 1_555 1_555
C1C O1C 1_555 1_555
H24C O5C 1_555 1_555
H25C O5C 1_555 1_555
C2C C1C 1_555 1_555
O2C C1C 1_555 1_555
C3C C2C 1_555 1_555
C7C C2C 1_555 1_555
C4C C3C 1_555 1_555
N1C C3C 1_555 1_555
C6C C7C 1_555 1_555
N2C C7C 1_555 1_555
H1C C4C 1_555 1_555
C5C C4C 1_555 1_555
C8C N1C 1_555 1_555
H22C N1C 1_555 1_555
H3C C6C 1_555 1_555
C10C N2C 1_555 1_555
H23C N2C 1_555 1_555
H2C C5C 1_555 1_555
C9C C8C 1_555 1_555
O3C C8C 1_555 1_555
C11C C10C 1_555 1_555
O4C C10C 1_555 1_555
Ca1D_2 O3C 1_555 1_555
C12C C9C 1_555 1_555
C13C C9C 1_555 1_555
C14C C9C 1_555 1_555
C15C C11C 1_555 1_555
C16C C11C 1_555 1_555
C17C C11C 1_555 1_555
H4C C12C 1_555 1_555
H5C C12C 1_555 1_555
H6C C12C 1_555 1_555
H7C C13C 1_555 1_555
H8C C13C 1_555 1_555
H9C C13C 1_555 1_555
H10C C14C 1_555 1_555
H11C C14C 1_555 1_555
H12C C14C 1_555 1_555
H13C C15C 1_555 1_555
H14C C15C 1_555 1_555
H15C C15C 1_555 1_555
H16C C16C 1_555 1_555
H17C C16C 1_555 1_555
H18C C16C 1_555 1_555
H19C C17C 1_555 1_555
H20C C17C 1_555 1_555
H21C C17C 1_555 1_555
C6 C7 1_555 1_555
C8 N1 1_555 1_555
C10 N2 1_555 1_555
O5 Ca1 1_555 1_555
C6C C5C 1_555 1_555

#END
