
#######################################################################
#
#                 Cambridge Crystallographic Data Centre
#                                CCDC 
#
#######################################################################
#
# If this CIF has been generated from an entry in the Cambridge 
# Structural Database, then it will include bibliographic, chemical, 
# crystal, experimental, refinement or atomic coordinate data resulting 
# from the CCDC's data processing and validation procedures.
#
#######################################################################

data_SAJGUG
_symmetry_cell_setting           orthorhombic
_symmetry_space_group_name_H-M   'P c c n'
_symmetry_Int_Tables_number      56
_space_group_name_Hall           '-P 2ab 2ac'
loop_
_symmetry_equiv_pos_site_id
_symmetry_equiv_pos_as_xyz
1 x,y,z
2 1/2+x,1/2+y,-z
3 x,1/2-y,1/2+z
4 1/2-x,y,1/2+z
5 -x,-y,-z
6 1/2-x,1/2-y,z
7 -x,1/2+y,1/2-z
8 1/2+x,-y,1/2-z
_cell_length_a                   12.899(2)
_cell_length_b                   21.730(4)
_cell_length_c                   6.6809(13)
_cell_angle_alpha                90
_cell_angle_beta                 90
_cell_angle_gamma                90
_cell_volume                     1872.62
loop_
_atom_site_label
_atom_site_type_symbol
_atom_site_fract_x
_atom_site_fract_y
_atom_site_fract_z
Pb1 Pb 0.39221(2) 0.425609(16) -0.61315(5)
S1 S 0.31061(18) 0.51253(12) -0.9647(4)
S2 S 0.30261(19) 0.34539(13) -0.2558(4)
N1 N 0.5348(5) 0.3514(4) -0.5088(12)
N2 N 0.4409(7) 0.3686(5) 0.0596(14)
N3 N 0.4468(6) 0.5028(5) -1.2890(13)
C1 C 0.6293(7) 0.3705(5) -0.4579(15)
H1 H 0.6383 0.4121 -0.4300
C2 C 0.7148(6) 0.3325(4) -0.4440(14)
H2 H 0.7784 0.3484 -0.4039
C3 C 0.7057(6) 0.2697(4) -0.4904(11)
C4 C 0.6064(6) 0.2497(5) -0.5392(13)
H3 H 0.5950 0.2083 -0.5676
C5 C 0.5238(7) 0.2909(5) -0.5459(14)
H4 H 0.4583 0.2760 -0.5774
C6 C 0.3910(6) 0.5069(5) -1.1525(14)
C7 C 0.3851(7) 0.3599(5) -0.0716(18)
C3E C 0.7943(6) 0.2303(4) -0.4904(11)
C2E C 0.7852(6) 0.1675(4) -0.4440(14)
C1E C 0.8707(7) 0.1295(5) -0.4579(15)
N1E N 0.9652(5) 0.1486(4) -0.5088(12)
C5E C 0.9762(7) 0.2091(5) -0.5459(14)
C4E C 0.8936(6) 0.2503(5) -0.5392(13)
H3E H 0.9050 0.2917 -0.5676
H4E H 1.0417 0.2240 -0.5774
H1E H 0.8617 0.0879 -0.4300
H2E H 0.7216 0.1516 -0.4039
S1C S 0.18939(18) 0.51253(12) -0.4647(4)
N3C N 0.0532(6) 0.5028(5) -0.7890(13)
C6C C 0.1090(6) 0.5069(5) -0.6525(14)
S2C S 0.19739(19) 0.34539(13) -0.7558(4)
N2C N 0.0591(7) 0.3686(5) -0.4404(14)
C7C C 0.1149(7) 0.3599(5) -0.5716(18)
Pb1C Pb 0.10779(2) 0.425609(16) -0.11315(5)
N2_2 N 0.4409(7) 0.3686(5) -0.9404(14)
N3_2 N 0.4468(6) 0.5028(5) -0.2890(13)
N3D N 0.5532(6) 0.4972(5) -0.7110(13)
Pb1C_2 Pb 0.10779(2) 0.425609(16) -1.11315(5)
Pb1_2 Pb 0.39221(2) 0.425609(16) 0.38685(5)
Pb1_3 Pb 0.39221(2) 0.425609(16) -1.61315(5)
Pb1D Pb 0.60779(2) 0.574391(16) -1.38685(5)
Pb1E Pb 1.10779(2) 0.074391(16) -0.61315(5)
Pb1G Pb -0.10779(2) 0.574391(16) -0.88685(5)
S1_2 S 0.31061(18) 0.51253(12) 0.0353(4)
S2C_2 S 0.19739(19) 0.34539(13) 0.2442(4)
N1C N -0.0348(5) 0.3514(4) -0.0088(12)
N3C_2 N 0.0532(6) 0.5028(5) 0.2110(13)
N3G N -0.0532(6) 0.4972(5) -0.2110(13)
loop_
_geom_bond_atom_site_label_1
_geom_bond_atom_site_label_2
_geom_bond_site_symmetry_1
_geom_bond_site_symmetry_2
Pb1 S1 1_555 1_555
S1 C6 1_555 1_555
S2 Pb1 1_555 1_555
N1 Pb1 1_555 1_555
N2 C7 1_555 1_555
N3 C6 1_555 1_555
C1 N1 1_555 1_555
H1 C1 1_555 1_555
C2 C1 1_555 1_555
H2 C2 1_555 1_555
C3 C2 1_555 1_555
C4 C3 1_555 1_555
H3 C4 1_555 1_555
C5 N1 1_555 1_555
H4 C5 1_555 1_555
C7 S2 1_555 1_555
C3E C3 1_555 1_555
C2E C3E 1_555 1_555
C1E C2E 1_555 1_555
N1E C1E 1_555 1_555
C5E N1E 1_555 1_555
C4E C3E 1_555 1_555
H3E C4E 1_555 1_555
H4E C5E 1_555 1_555
H1E C1E 1_555 1_555
H2E C2E 1_555 1_555
S1C Pb1 1_555 1_555
N3C C6C 1_555 1_555
C6C S1C 1_555 1_555
S2C Pb1 1_555 1_555
N2C C7C 1_555 1_555
C7C S2C 1_555 1_555
Pb1C S2 1_555 1_555
N2_2 Pb1 1_555 1_555
N3_2 Pb1 1_555 1_555
N3D Pb1 1_555 1_555
Pb1C_2 S1 1_555 1_555
Pb1_2 N2 1_555 1_555
Pb1_3 N3 1_555 1_555
Pb1D N3 1_555 1_555
Pb1E N1E 1_555 1_555
Pb1G N3C 1_555 1_555
S1_2 Pb1C 1_555 1_555
S2C_2 Pb1C 1_555 1_555
N1C Pb1C 1_555 1_555
N3C_2 Pb1C 1_555 1_555
N3G Pb1C 1_555 1_555
C4 C5 1_555 1_555
C5E C4E 1_555 1_555
S1C Pb1C 1_555 1_555
N3C Pb1C_2 1_555 1_555
S2C Pb1C_2 1_555 1_555
N2C Pb1C 1_555 1_555
Pb1_2 S1_2 1_555 1_555
Pb1_2 S2C_2 1_555 1_555

#END
