
#######################################################################
#
#                 Cambridge Crystallographic Data Centre
#                                CCDC 
#
#######################################################################
#
# If this CIF has been generated from an entry in the Cambridge 
# Structural Database, then it will include bibliographic, chemical, 
# crystal, experimental, refinement or atomic coordinate data resulting 
# from the CCDC's data processing and validation procedures.
#
#######################################################################

data_SAKDIT
_symmetry_cell_setting           orthorhombic
_symmetry_space_group_name_H-M   'P b c a'
_symmetry_Int_Tables_number      61
_space_group_name_Hall           '-P 2ac 2ab'
loop_
_symmetry_equiv_pos_site_id
_symmetry_equiv_pos_as_xyz
1 x,y,z
2 1/2-x,-y,1/2+z
3 -x,1/2+y,1/2-z
4 1/2+x,1/2-y,-z
5 -x,-y,-z
6 1/2+x,y,1/2-z
7 x,1/2-y,1/2+z
8 1/2-x,1/2+y,z
_cell_length_a                   9.9499(6)
_cell_length_b                   11.0634(5)
_cell_length_c                   19.3835(9)
_cell_angle_alpha                90
_cell_angle_beta                 90
_cell_angle_gamma                90
_cell_volume                     2133.73
loop_
_atom_site_label
_atom_site_type_symbol
_atom_site_fract_x
_atom_site_fract_y
_atom_site_fract_z
Fe1 Fe 0.0000 0.5000 0.5000
O1 O 0.1367(3) 0.5762(3) 0.43840(17)
C1 C 0.1533(5) 0.5764(4) 0.3725(3)
C2 C 0.2467(5) 0.6568(5) 0.3419(3)
H1 H 0.2971 0.7092 0.3709
C3 C 0.2670(6) 0.6616(5) 0.2719(3)
H2 H 0.3323 0.7155 0.2537
C4 C 0.1935(6) 0.5889(5) 0.2273(3)
H3 H 0.2065 0.5939 0.1788
C5 C 0.1023(6) 0.5100(4) 0.2546(3)
H4 H 0.0517 0.4601 0.2243
C6 C 0.0807(5) 0.5002(5) 0.3260(3)
N1 N -0.0455(4) 0.3857(4) 0.4118(2)
C7 C -0.0140(5) 0.4096(4) 0.3486(3)
H5 H -0.0572 0.3633 0.3138
C8 C -0.1430(5) 0.2945(4) 0.4240(2)
C9 C -0.1107(5) 0.1926(4) 0.4615(3)
H6 H -0.0205 0.1779 0.4752
C10 C -0.2124(5) 0.1117(4) 0.4788(3)
H7 H -0.1898 0.0429 0.5057
N2 N -0.3408(4) 0.1262(4) 0.4595(2)
C11 C -0.3699(5) 0.2231(4) 0.4207(2)
H8 H -0.4598 0.2330 0.4052
C12 C -0.2763(5) 0.3090(4) 0.4021(2)
H9 H -0.3017 0.3766 0.3748
Fe1C Fe -0.5000 0.0000 0.5000
Fe1C_2 Fe 0.5000 1.0000 0.5000
O1D O -0.1367(3) 0.4238(3) 0.56160(17)
C1D C -0.1533(5) 0.4236(4) 0.6275(3)
C2D C -0.2467(5) 0.3432(5) 0.6581(3)
H1D H -0.2971 0.2908 0.6291
C3D C -0.2670(6) 0.3384(5) 0.7281(3)
H2D H -0.3323 0.2845 0.7463
C4D C -0.1935(6) 0.4111(5) 0.7727(3)
H3D H -0.2065 0.4061 0.8212
C5D C -0.1023(6) 0.4900(4) 0.7454(3)
H4D H -0.0517 0.5399 0.7757
C6D C -0.0807(5) 0.4998(5) 0.6740(3)
N1D N 0.0455(4) 0.6143(4) 0.5882(2)
C7D C 0.0140(5) 0.5904(4) 0.6514(3)
H5D H 0.0572 0.6367 0.6862
C8D C 0.1430(5) 0.7055(4) 0.5760(2)
C9D C 0.1107(5) 0.8074(4) 0.5385(3)
H6D H 0.0205 0.8221 0.5248
C10D C 0.2124(5) 0.8883(4) 0.5212(3)
H7D H 0.1898 0.9571 0.4943
N2D N 0.3408(4) 0.8738(4) 0.5405(2)
N2C N 0.1592(4) 0.3738(4) 0.5405(2)
N2G N -0.1592(4) 0.6262(4) 0.4595(2)
C11D C 0.3699(5) 0.7769(4) 0.5793(2)
H8D H 0.4598 0.7670 0.5948
C12D C 0.2763(5) 0.6910(4) 0.5979(2)
H9D H 0.3017 0.6234 0.6252
loop_
_geom_bond_atom_site_label_1
_geom_bond_atom_site_label_2
_geom_bond_site_symmetry_1
_geom_bond_site_symmetry_2
Fe1 O1 1_555 1_555
O1 C1 1_555 1_555
C1 C2 1_555 1_555
C2 H1 1_555 1_555
C3 C2 1_555 1_555
H2 C3 1_555 1_555
C4 C3 1_555 1_555
H3 C4 1_555 1_555
C5 C4 1_555 1_555
H4 C5 1_555 1_555
C6 C1 1_555 1_555
N1 Fe1 1_555 1_555
C7 C6 1_555 1_555
H5 C7 1_555 1_555
C8 N1 1_555 1_555
C9 C8 1_555 1_555
H6 C9 1_555 1_555
C10 C9 1_555 1_555
H7 C10 1_555 1_555
N2 C10 1_555 1_555
C11 N2 1_555 1_555
H8 C11 1_555 1_555
C12 C8 1_555 1_555
H9 C12 1_555 1_555
Fe1C N2 1_555 1_555
Fe1C_2 N2D 1_555 1_555
O1D Fe1 1_555 1_555
C1D O1D 1_555 1_555
C2D C1D 1_555 1_555
H1D C2D 1_555 1_555
C3D C2D 1_555 1_555
H2D C3D 1_555 1_555
C4D C3D 1_555 1_555
H3D C4D 1_555 1_555
C5D C4D 1_555 1_555
H4D C5D 1_555 1_555
C6D C1D 1_555 1_555
N1D Fe1 1_555 1_555
C7D C6D 1_555 1_555
H5D C7D 1_555 1_555
C8D N1D 1_555 1_555
C9D C8D 1_555 1_555
H6D C9D 1_555 1_555
C10D C9D 1_555 1_555
H7D C10D 1_555 1_555
N2D C10D 1_555 1_555
N2C Fe1 1_555 1_555
N2G Fe1 1_555 1_555
C11D N2D 1_555 1_555
H8D C11D 1_555 1_555
C12D C8D 1_555 1_555
H9D C12D 1_555 1_555
C5 C6 1_555 1_555
N1 C7 1_555 1_555
C11 C12 1_555 1_555
C5D C6D 1_555 1_555
N1D C7D 1_555 1_555
C11D C12D 1_555 1_555

#END
