
#######################################################################
#
#                 Cambridge Crystallographic Data Centre
#                                CCDC 
#
#######################################################################
#
# If this CIF has been generated from an entry in the Cambridge 
# Structural Database, then it will include bibliographic, chemical, 
# crystal, experimental, refinement or atomic coordinate data resulting 
# from the CCDC's data processing and validation procedures.
#
#######################################################################

data_SAKJET
_symmetry_cell_setting           monoclinic
_symmetry_space_group_name_H-M   'P 21/n'
_symmetry_Int_Tables_number      14
_space_group_name_Hall           '-P 2yn'
loop_
_symmetry_equiv_pos_site_id
_symmetry_equiv_pos_as_xyz
1 x,y,z
2 1/2-x,1/2+y,1/2-z
3 -x,-y,-z
4 1/2+x,1/2-y,1/2+z
_cell_length_a                   21.169(12)
_cell_length_b                   15.965(8)
_cell_length_c                   15.885(6)
_cell_angle_alpha                90
_cell_angle_beta                 93.12(4)
_cell_angle_gamma                90
_cell_volume                     5360.59
loop_
_atom_site_label
_atom_site_type_symbol
_atom_site_fract_x
_atom_site_fract_y
_atom_site_fract_z
La1 La 0.29978(2) 0.76580(3) 0.01461(3)
La2 La 0.14248(2) 0.79127(3) -0.18309(3)
La3 La 0.46284(2) 0.74553(3) 0.18423(3)
S1 S 0.2225(2) 0.7839(2) 0.2116(2)
S2 S 0.1830(2) 0.9352(2) -0.3500(2)
S3 S 0.4320(2) 0.8038(2) 0.4019(2)
S4 S 0.3731(2) 0.9247(3) -0.1115(3)
Cl1 Cl 0.1854(2) 1.0618(3) 0.0683(4)
Cl2 Cl 0.3175(3) 0.7199(6) -0.3723(3)
Cl3 Cl 0.0639(2) 0.5893(3) 0.0586(3)
Cl4 Cl -0.0066(4) 1.0578(4) -0.1106(5)
Cl5 Cl 0.1185(3) 0.6665(3) -0.5553(3)
Cl6 Cl 0.0875(2) 0.4548(2) -0.1631(2)
Cl7 Cl 0.5327(2) 0.6091(3) -0.1072(3)
Cl8 Cl 0.2871(2) 0.4427(2) 0.0943(3)
Cl9 Cl 0.3642(3) 1.0376(3) 0.2493(4)
O1 O 0.2339(4) 0.7302(5) 0.1356(5)
O2 O 0.1729(4) 0.9218(5) -0.2568(5)
O3 O 0.4121(4) 0.7542(5) 0.3228(5)
O4 O 0.3492(4) 0.8963(5) -0.0296(5)
O5 O 0.2313(4) 0.8905(5) 0.0577(5)
O6 O 0.2099(3) 0.8717(4) -0.0761(4)
O7 O 0.3273(3) 0.7289(6) -0.1329(4)
O8 O 0.2481(3) 0.7559(6) -0.2244(5)
O9 O 0.2044(3) 0.6939(4) -0.0479(4)
O10 O 0.1045(3) 0.7278(5) -0.0458(4)
O11 O 0.0691(4) 0.9031(5) -0.1194(5)
O12 O 0.0255(4) 0.8627(5) -0.2398(5)
O13 O 0.1180(5) 0.7679(5) -0.3340(5)
O14 O 0.0483(3) 0.6890(5) -0.4035(5)
O15 O 0.1329(3) 0.6264(4) -0.1978(4)
O16 O 0.0404(3) 0.6878(4) -0.2086(4)
O17 O 0.4924(4) 0.6475(5) 0.0613(5)
O18 O 0.4211(3) 0.7432(4) 0.0243(4)
O19 O 0.3789(3) 0.6385(5) 0.1765(5)
O20 O 0.3228(3) 0.6157(4) 0.0556(5)
O21 O 0.4388(3) 0.9025(4) 0.1800(5)
O22 O 0.3546(3) 0.8268(4) 0.1474(4)
C1 C 0.2449(6) 0.7193(9) 0.2990(9)
C2 C 0.1385(6) 0.7820(10) 0.2184(9)
C3 C 0.2362(6) 1.0214(10) -0.3542(10)
C4 C 0.1120(6) 0.9852(10) -0.3886(10)
C5 C 0.3602(7) 0.8372(13) 0.4420(10)
C6 C 0.4558(6) 0.7257(10) 0.4794(8)
C7 C 0.4457(8) 0.9733(14) -0.0872(13)
C8 C 0.3254(9) 1.0145(11) -0.1363(11)
C9 C 0.2068(4) 0.9137(6) -0.0108(6)
C10 C 0.1702(6) 0.9959(7) -0.0195(9)
C11 C 0.3034(5) 0.7377(7) -0.2044(6)
C12 C 0.3514(7) 0.7208(13) -0.2702(9)
C13 C 0.1501(4) 0.6821(6) -0.0233(6)
C14 C 0.1427(5) 0.6047(7) 0.0285(7)
C15 C 0.0291(5) 0.9115(7) -0.1791(7)
C16 C -0.0207(6) 0.9808(9) -0.1840(10)
C17 C 0.0991(5) 0.7274(7) -0.3972(6)
C18 C 0.1417(6) 0.7292(10) -0.4673(9)
C19 C 0.0748(4) 0.6265(6) -0.1967(6)
C20 C 0.0385(5) 0.5453(7) -0.1760(8)
C21 C 0.4624(4) 0.6900(7) 0.0071(7)
C22 C 0.4756(6) 0.6866(10) -0.0854(7)
C23 C 0.3447(5) 0.5958(6) 0.1283(7)
C24 C 0.3279(6) 0.5112(8) 0.1675(9)
C25 C 0.3802(4) 0.8953(6) 0.1650(6)
C26 C 0.3382(6) 0.9722(7) 0.1700(8)
O12C O 0.5255(4) 0.6373(5) 0.2602(5)
O14C O 0.5483(3) 0.8110(5) 0.0965(5)
O16C O 0.5404(3) 0.8122(4) 0.2914(4)
La3C La -0.03716(2) 0.75447(3) -0.31577(3)
loop_
_geom_bond_atom_site_label_1
_geom_bond_atom_site_label_2
_geom_bond_site_symmetry_1
_geom_bond_site_symmetry_2
La1 O1 1_555 1_555
La2 O2 1_555 1_555
La3 O3 1_555 1_555
S1 O1 1_555 1_555
S2 O2 1_555 1_555
S3 O3 1_555 1_555
S4 O4 1_555 1_555
Cl1 C10 1_555 1_555
Cl2 C12 1_555 1_555
Cl3 C14 1_555 1_555
Cl4 C16 1_555 1_555
Cl5 C18 1_555 1_555
Cl6 C20 1_555 1_555
Cl7 C22 1_555 1_555
Cl8 C24 1_555 1_555
Cl9 C26 1_555 1_555
O4 La1 1_555 1_555
O5 La1 1_555 1_555
O6 La1 1_555 1_555
O7 La1 1_555 1_555
O8 La2 1_555 1_555
O9 La1 1_555 1_555
O10 La2 1_555 1_555
O11 La2 1_555 1_555
O12 La2 1_555 1_555
O13 La2 1_555 1_555
O14 C17 1_555 1_555
O15 La2 1_555 1_555
O16 La2 1_555 1_555
O17 La3 1_555 1_555
O18 La1 1_555 1_555
O19 La3 1_555 1_555
O20 La1 1_555 1_555
O21 La3 1_555 1_555
O22 La1 1_555 1_555
C1 S1 1_555 1_555
C2 S1 1_555 1_555
C3 S2 1_555 1_555
C4 S2 1_555 1_555
C5 S3 1_555 1_555
C6 S3 1_555 1_555
C7 S4 1_555 1_555
C8 S4 1_555 1_555
C9 O5 1_555 1_555
C10 C9 1_555 1_555
C11 O7 1_555 1_555
C12 C11 1_555 1_555
C13 O9 1_555 1_555
C14 C13 1_555 1_555
C15 O11 1_555 1_555
C16 C15 1_555 1_555
C17 O13 1_555 1_555
C18 C17 1_555 1_555
C19 O15 1_555 1_555
C20 C19 1_555 1_555
C21 O17 1_555 1_555
C22 C21 1_555 1_555
C23 O19 1_555 1_555
C24 C23 1_555 1_555
C25 O21 1_555 1_555
C26 C25 1_555 1_555
O12C La3 1_555 1_555
O14C La3 1_555 1_555
O16C La3 1_555 1_555
La3C O12 1_555 1_555
La2 O6 1_555 1_555
La2 O9 1_555 1_555
La3 O18 1_555 1_555
La3 O22 1_555 1_555
O6 C9 1_555 1_555
O8 C11 1_555 1_555
O10 C13 1_555 1_555
O12 C15 1_555 1_555
O14 La3C 1_555 1_555
O16 C19 1_555 1_555
O16 La3C 1_555 1_555
O18 C21 1_555 1_555
O20 C23 1_555 1_555
O22 C25 1_555 1_555

#END
