
#######################################################################
#
#                 Cambridge Crystallographic Data Centre
#                                CCDC 
#
#######################################################################
#
# If this CIF has been generated from an entry in the Cambridge 
# Structural Database, then it will include bibliographic, chemical, 
# crystal, experimental, refinement or atomic coordinate data resulting 
# from the CCDC's data processing and validation procedures.
#
#######################################################################

data_SALCOP04
_symmetry_cell_setting           monoclinic
_symmetry_space_group_name_H-M   'P 21/a'
_symmetry_Int_Tables_number      14
_space_group_name_Hall           '-P 2yab'
loop_
_symmetry_equiv_pos_site_id
_symmetry_equiv_pos_as_xyz
1 x,y,z
2 1/2-x,1/2+y,-z
3 -x,-y,-z
4 1/2+x,1/2-y,z
_cell_length_a                   7.9298(1)
_cell_length_b                   5.9938(1)
_cell_length_c                   13.9192(2)
_cell_angle_alpha                90
_cell_angle_beta                 97.363(1)
_cell_angle_gamma                90
_cell_volume                     656.119
loop_
_atom_site_label
_atom_site_type_symbol
_atom_site_fract_x
_atom_site_fract_y
_atom_site_fract_z
Cu1 Cu 0.5000 0.0000 0.5000
N1 N 0.3790(3) -0.2496(4) 0.43342(17)
O1 O 0.5110(3) 0.1525(3) 0.38004(14)
O2 O 0.3230(3) -0.4150(4) 0.49303(16)
C1 C 0.4584(4) 0.0861(5) 0.2900(2)
C2 C 0.4868(4) 0.2197(6) 0.2121(2)
C3 C 0.4333(5) 0.1592(7) 0.1186(2)
C4 C 0.3480(5) -0.0399(7) 0.0983(3)
C5 C 0.3188(4) -0.1763(6) 0.1722(2)
C6 C 0.3735(4) -0.1218(5) 0.2698(2)
C7 C 0.3357(4) -0.2790(5) 0.3422(2)
H1 H 0.541(4) 0.350(6) 0.224(2)
H2 H 0.453(4) 0.246(5) 0.072(2)
H3 H 0.322(5) -0.079(7) 0.041(3)
H4 H 0.267(4) -0.294(6) 0.164(2)
H5 H 0.275(4) -0.419(6) 0.325(2)
H6 H 0.350(5) -0.374(6) 0.542(3)
Cu1A Cu 0.0000 -0.5000 0.5000
Cu1A_2 Cu 1.0000 0.5000 0.5000
N1B N 0.6210(3) 0.2496(4) 0.56658(17)
O1B O 0.4890(3) -0.1525(3) 0.61996(14)
O2B O 0.6770(3) 0.4150(4) 0.50697(16)
O2A O 0.1770(3) 0.0850(4) 0.50697(16)
O2C O 0.8230(3) -0.0850(4) 0.49303(16)
C1B C 0.5416(4) -0.0861(5) 0.7100(2)
C2B C 0.5132(4) -0.2197(6) 0.7879(2)
C3B C 0.5667(5) -0.1592(7) 0.8814(2)
C4B C 0.6520(5) 0.0399(7) 0.9017(3)
C5B C 0.6812(4) 0.1763(6) 0.8278(2)
C6B C 0.6265(4) 0.1218(5) 0.7302(2)
C7B C 0.6643(4) 0.2790(5) 0.6578(2)
H1B H 0.459(4) -0.350(6) 0.776(2)
H2B H 0.547(4) -0.246(5) 0.928(2)
H3B H 0.678(5) 0.079(7) 0.959(3)
H4B H 0.733(4) 0.294(6) 0.836(2)
H5B H 0.725(4) 0.419(6) 0.675(2)
H6B H 0.650(5) 0.374(6) 0.458(3)
H6A H 0.150(5) 0.126(6) 0.458(3)
H6C H 0.850(5) -0.126(6) 0.542(3)
loop_
_geom_bond_atom_site_label_1
_geom_bond_atom_site_label_2
_geom_bond_site_symmetry_1
_geom_bond_site_symmetry_2
Cu1 N1 1_555 1_555
N1 O2 1_555 1_555
O1 Cu1 1_555 1_555
O2 H6 1_555 1_555
C1 O1 1_555 1_555
C2 C1 1_555 1_555
C3 C2 1_555 1_555
C4 C3 1_555 1_555
C5 C4 1_555 1_555
C6 C1 1_555 1_555
C7 N1 1_555 1_555
H1 C2 1_555 1_555
H2 C3 1_555 1_555
H3 C4 1_555 1_555
H4 C5 1_555 1_555
H5 C7 1_555 1_555
Cu1A O2 1_555 1_555
Cu1A_2 O2B 1_555 1_555
N1B Cu1 1_555 1_555
O1B Cu1 1_555 1_555
O2B N1B 1_555 1_555
O2A Cu1 1_555 1_555
O2C Cu1 1_555 1_555
C1B O1B 1_555 1_555
C2B C1B 1_555 1_555
C3B C2B 1_555 1_555
C4B C3B 1_555 1_555
C5B C4B 1_555 1_555
C6B C1B 1_555 1_555
C7B N1B 1_555 1_555
H1B C2B 1_555 1_555
H2B C3B 1_555 1_555
H3B C4B 1_555 1_555
H4B C5B 1_555 1_555
H5B C7B 1_555 1_555
H6B O2B 1_555 1_555
H6A O2A 1_555 1_555
H6C O2C 1_555 1_555
C5 C6 1_555 1_555
C6 C7 1_555 1_555
C5B C6B 1_555 1_555
C6B C7B 1_555 1_555

#END
