
#######################################################################
#
#                 Cambridge Crystallographic Data Centre
#                                CCDC 
#
#######################################################################
#
# If this CIF has been generated from an entry in the Cambridge 
# Structural Database, then it will include bibliographic, chemical, 
# crystal, experimental, refinement or atomic coordinate data resulting 
# from the CCDC's data processing and validation procedures.
#
#######################################################################

data_SALSIJ
_symmetry_cell_setting           orthorhombic
_symmetry_space_group_name_H-M   'I b c a'
_symmetry_Int_Tables_number      73
_space_group_name_Hall           '-I 2b 2c'
loop_
_symmetry_equiv_pos_site_id
_symmetry_equiv_pos_as_xyz
1 x,y,z
2 x,-y,1/2-z
3 1/2-x,y,-z
4 -x,1/2-y,z
5 1/2+x,1/2+y,1/2+z
6 1/2+x,1/2-y,-z
7 -x,1/2+y,1/2-z
8 1/2-x,-y,1/2+z
9 -x,-y,-z
10 -x,y,1/2+z
11 1/2+x,-y,z
12 x,1/2+y,-z
13 1/2-x,1/2-y,1/2-z
14 1/2-x,1/2+y,z
15 x,1/2-y,1/2+z
16 1/2+x,y,1/2-z
_cell_length_a                   21.7463(7)
_cell_length_b                   21.746
_cell_length_c                   57.664(2)
_cell_angle_alpha                90
_cell_angle_beta                 90
_cell_angle_gamma                90
_cell_volume                     27269
loop_
_atom_site_label
_atom_site_type_symbol
_atom_site_fract_x
_atom_site_fract_y
_atom_site_fract_z
N1 N 0.2463(2) 0.4745(2) 0.02267(10)
N2 N 0.2287(3) 0.4853(2) 0.14477(12)
N3 N 0.2262(3) 0.4900(3) 0.18887(12)
O1 O -0.1734(4) 0.5205(5) 0.06642(14)
O2 O -0.1730(4) 0.5249(6) 0.10432(13)
O3 O 0.1440(4) 0.4739(4) 0.06241(12)
O4 O 0.1418(5) 0.4804(4) 0.10038(13)
O5 O 0.2388(5) 0.3849(3) 0.06546(12)
O6 O 0.2321(4) 0.3861(3) 0.10358(11)
O7 O 0.2678(6) 0.0683(3) 0.06285(13)
O8 O 0.2627(6) 0.0700(3) 0.10099(12)
O9 O 0.2298(5) 0.4055(4) 0.23335(12)
O10 O 0.1331(4) 0.4965(5) 0.23064(12)
O11 O -0.1839(4) 0.4951(5) 0.23090(15)
O12 O 0.2196(5) 0.4084(4) 0.27055(13)
C1 C 0.1182(4) 0.4805(4) 0.08085(15)
C2 C 0.2363(4) 0.3601(4) 0.08461(14)
C3 C 0.2571(4) 0.1631(4) 0.08149(14)
C4 C 0.0379(6) 0.5000 0.2500
C5 C 0.2424(4) 0.2913(4) 0.08436(14)
C6 C -0.0902(6) 0.5000 0.2500
C7 C -0.1608(8) 0.5000 0.2500
C8 C 0.0487(4) 0.4888(4) 0.08213(14)
C9 C 0.2387(5) 0.3127(5) 0.2516(2)
C10 C 0.2320(4) 0.1907(4) 0.10116(15)
C11 C 0.2633(4) 0.0948(4) 0.08185(15)
C12 C 0.1066(8) 0.5000 0.2500
C13 C 0.2287(5) 0.3836(4) 0.25215(18)
C14 C -0.0770(4) 0.5099(4) 0.08548(15)
C15 C -0.1468(5) 0.5188(4) 0.08629(16)
C16 C -0.0396(4) 0.5275(4) 0.10320(16)
C17 C 0.2471(7) 0.4115(6) 0.0130(2)
C18 C 0.2688(4) 0.2634(4) 0.06485(15)
C19 C 0.2749(4) 0.2043(4) 0.06325(17)
C20 C 0.2955(7) 0.5117(6) 0.0150(2)
C21 C 0.0211(5) 0.5161(4) 0.10194(17)
C22 C 0.2240(4) 0.2510(4) 0.10310(15)
C23 C -0.0595(5) 0.5231(4) 0.26863(19)
C24 C 0.0013(5) 0.5233(4) 0.26872(17)
C25 C 0.2558(10) 0.4275(9) 0.1562(3)
C26 C 0.1649(10) 0.4949(10) 0.1522(4)
C27 C 0.1957(8) 0.5078(7) 0.0106(3)
C28 C 0.2638(5) 0.2889(5) 0.23238(19)
C29 C 0.2187(5) 0.2720(5) 0.26902(18)
C30 C -0.0521(5) 0.4830(4) 0.06568(17)
C31 C 0.0109(4) 0.4708(3) 0.06379(15)
C32 C 0.2558(10) 0.4396(10) 0.1818(4)
C33 C 0.1626(9) 0.4961(8) 0.1783(3)
C34 C 0.2639(9) 0.5475(9) 0.1519(3)
C35 C 0.2614(9) 0.5482(9) 0.1781(3)
Zn1 Zn 0.23417(6) 0.47834(5) 0.108806(18)
Zn2 Zn 0.23626(6) 0.47642(5) 0.057844(17)
Zn3 Zn 0.22427(6) 0.49941(6) 0.224471(17)
Cl1 Cl 0.1876(3) 0.28046(18) 0.12712(10)
Cl2 Cl 0.0349(2) 0.4349(4) 0.03968(9)
Cl3 Cl -0.0655(3) 0.5605(4) 0.12789(10)
Cl4 Cl 0.3079(4) 0.1746(2) 0.03802(10)
Cl5 Cl -0.0806(4) 0.5594(7) 0.2933(2)
Cl6 Cl 0.0274(10) 0.5664(8) 0.2941(4)
Cl7 Cl 0.1844(4) 0.3010(3) 0.29372(10)
N1B N 0.2537(2) 0.4745(2) -0.02267(10)
N1A N 0.2463(2) 0.5255(2) 0.47733(10)
N2A N 0.2287(3) 0.5147(2) 0.35523(12)
N3A N 0.2262(3) 0.5100(3) 0.31113(12)
O1A O -0.1734(4) 0.4795(5) 0.43358(14)
O1J O 0.3266(4) 0.4795(5) 0.06642(14)
O1O O 0.3266(4) 0.5205(5) 0.43358(14)
O2A O -0.1730(4) 0.4751(6) 0.39568(13)
O2J O 0.3270(4) 0.4751(6) 0.10432(13)
O2O O 0.3270(4) 0.5249(6) 0.39568(13)
O3A O 0.1440(4) 0.5261(4) 0.43759(12)
O4A O 0.1418(5) 0.5196(4) 0.39962(13)
O5A O 0.2388(5) 0.6151(3) 0.43454(12)
O6A O 0.2321(4) 0.6139(3) 0.39642(11)
O7A O 0.2678(6) 0.9317(3) 0.43715(13)
O7L O 0.2322(6) 0.4317(3) 0.43715(13)
O7M O 0.2322(6) 0.5683(3) 0.06285(13)
O8A O 0.2627(6) 0.9300(3) 0.39901(12)
O8L O 0.2373(6) 0.4300(3) 0.39901(12)
O8M O 0.2373(6) 0.5700(3) 0.10099(12)
O9L O 0.2702(5) 0.0945(4) 0.26665(12)
O9A O 0.2298(5) 0.5945(4) 0.26665(12)
O10A O 0.1331(4) 0.5035(5) 0.26936(12)
O11A O -0.1839(4) 0.5049(5) 0.26910(15)
O11J O 0.3161(4) 0.5049(5) 0.23090(15)
O11O O 0.3161(4) 0.4951(5) 0.26910(15)
O12L O 0.2804(5) 0.0916(4) 0.22945(13)
O12A O 0.2196(5) 0.5916(4) 0.22945(13)
C1A C 0.1182(4) 0.5195(4) 0.41915(15)
C2A C 0.2363(4) 0.6399(4) 0.41539(14)
C3A C 0.2571(4) 0.8369(4) 0.41851(14)
C5A C 0.2424(4) 0.7087(4) 0.41564(14)
C8A C 0.0487(4) 0.5112(4) 0.41787(14)
C9L C 0.2613(5) 0.1873(5) 0.2484(2)
C10A C 0.2320(4) 0.8093(4) 0.39884(15)
C11A C 0.2633(4) 0.9052(4) 0.41815(15)
C13L C 0.2713(5) 0.1164(4) 0.24785(18)
C14A C -0.0770(4) 0.4901(4) 0.41452(15)
C15A C -0.1468(5) 0.4812(4) 0.41371(16)
C16A C -0.0396(4) 0.4725(4) 0.39680(16)
C17B C 0.2529(7) 0.4115(6) -0.0130(2)
C18A C 0.2688(4) 0.7366(4) 0.43515(15)
C19A C 0.2749(4) 0.7957(4) 0.43675(17)
C20B C 0.2045(7) 0.5117(6) -0.0150(2)
C21A C 0.0211(5) 0.4839(4) 0.39806(17)
C22A C 0.2240(4) 0.7490(4) 0.39690(15)
C23A C -0.0595(5) 0.4769(4) 0.23137(19)
C24A C 0.0013(5) 0.4767(4) 0.23128(17)
C25A C 0.2558(10) 0.5725(9) 0.3438(3)
C26A C 0.1649(10) 0.5051(10) 0.3478(4)
C27B C 0.3043(8) 0.5078(7) -0.0106(3)
C28L C 0.2362(5) 0.2111(5) 0.26762(19)
C29L C 0.2813(5) 0.2280(5) 0.23098(18)
C30A C -0.0521(5) 0.5170(4) 0.43432(17)
C31A C 0.0109(4) 0.5292(3) 0.43621(15)
C32A C 0.2558(10) 0.5604(10) 0.3182(4)
C33A C 0.1626(9) 0.5039(8) 0.3217(3)
C34A C 0.2639(9) 0.4525(9) 0.3481(3)
C35A C 0.2614(9) 0.4518(9) 0.3219(3)
Zn1A Zn 0.23417(6) 0.52166(5) 0.391194(18)
Zn1J Zn -0.26583(6) 0.52166(5) 0.108806(18)
Zn1L Zn 0.26583(6) 1.02166(5) 0.391194(18)
Zn1M Zn 0.26583(6) -0.02166(5) 0.108806(18)
Zn1O Zn -0.26583(6) 0.47834(5) 0.391194(18)
Zn2A Zn 0.23626(6) 0.52358(5) 0.442156(17)
Zn2B Zn 0.26374(6) 0.47642(5) -0.057844(17)
Zn2J Zn -0.26374(6) 0.52358(5) 0.057844(17)
Zn2L Zn 0.26374(6) 1.02358(5) 0.442156(17)
Zn2M Zn 0.26374(6) -0.02358(5) 0.057844(17)
Zn2O Zn -0.26374(6) 0.47642(5) 0.442156(17)
Zn3A Zn 0.22427(6) 0.50059(6) 0.275529(17)
Zn3J Zn -0.27573(6) 0.50059(6) 0.224471(17)
Zn3L Zn 0.27573(6) 0.00059(6) 0.275529(17)
Zn3M Zn 0.27573(6) -0.00059(6) 0.224471(17)
Zn3O Zn -0.27573(6) 0.49941(6) 0.275529(17)
Cl1A Cl 0.1876(3) 0.71954(18) 0.37288(10)
Cl2A Cl 0.0349(2) 0.5651(4) 0.46032(9)
Cl3A Cl -0.0655(3) 0.4395(4) 0.37211(10)
Cl4A Cl 0.3079(4) 0.8254(2) 0.46198(10)
Cl5A Cl -0.0806(4) 0.4406(7) 0.2067(2)
Cl6A Cl 0.0274(10) 0.4336(8) 0.2059(4)
Cl7L Cl 0.3156(4) 0.1990(3) 0.20628(10)
loop_
_geom_bond_atom_site_label_1
_geom_bond_atom_site_label_2
_geom_bond_site_symmetry_1
_geom_bond_site_symmetry_2
N1 C17 1_555 1_555
N2 C25 1_555 1_555
N3 C32 1_555 1_555
O1 C15 1_555 1_555
O2 C15 1_555 1_555
O3 C1 1_555 1_555
O4 C1 1_555 1_555
O5 C2 1_555 1_555
O6 C2 1_555 1_555
O7 C11 1_555 1_555
O8 C11 1_555 1_555
O9 C13 1_555 1_555
O10 C12 1_555 1_555
O11 C7 1_555 1_555
O12 C13 1_555 1_555
C1 C8 1_555 1_555
C2 C5 1_555 1_555
C3 C10 1_555 1_555
C4 C12 1_555 1_555
C5 C18 1_555 1_555
C6 C7 1_555 1_555
C7 O11A 1_555 1_555
C8 C21 1_555 1_555
C9 C13 1_555 1_555
C10 C22 1_555 1_555
C11 C3 1_555 1_555
C12 O10A 1_555 1_555
C14 C15 1_555 1_555
C16 C14 1_555 1_555
C17 C17B 1_555 1_555
C18 C19 1_555 1_555
C19 C3 1_555 1_555
C20 N1 1_555 1_555
C21 C16 1_555 1_555
C22 C5 1_555 1_555
C23 C6 1_555 1_555
C24 C4 1_555 1_555
C25 C32 1_555 1_555
C26 N2 1_555 1_555
C27 N1 1_555 1_555
C28 C9 1_555 1_555
C29 C9 1_555 1_555
C30 C14 1_555 1_555
C31 C8 1_555 1_555
C33 N3 1_555 1_555
C34 N2 1_555 1_555
C35 N3 1_555 1_555
Zn1 N2 1_555 1_555
Zn2 N1 1_555 1_555
Zn3 N3 1_555 1_555
Cl1 C22 1_555 1_555
Cl2 C31 1_555 1_555
Cl3 C16 1_555 1_555
Cl4 C19 1_555 1_555
Cl5 C23 1_555 1_555
Cl6 C24 1_555 1_555
Cl7 C29 1_555 1_555
N1B C17B 1_555 1_555
N1A Zn2A 1_555 1_555
N2A C25A 1_555 1_555
N3A C32A 1_555 1_555
O1A C15A 1_555 1_555
O1J Zn2 1_555 1_555
O1O Zn2A 1_555 1_555
O2A C15A 1_555 1_555
O2J Zn1 1_555 1_555
O2O Zn1A 1_555 1_555
O3A C1A 1_555 1_555
O4A C1A 1_555 1_555
O5A C2A 1_555 1_555
O6A C2A 1_555 1_555
O7A C11A 1_555 1_555
O7L Zn2A 1_555 1_555
O7M Zn2 1_555 1_555
O8A C11A 1_555 1_555
O8L Zn1A 1_555 1_555
O8M Zn1 1_555 1_555
O9L C13L 1_555 1_555
O9A Zn3A 1_555 1_555
O10A Zn3A 1_555 1_555
O11A Zn3O 1_555 1_555
O11J Zn3 1_555 1_555
O11O Zn3A 1_555 1_555
O12L C13L 1_555 1_555
O12A Zn3 1_555 1_555
C1A C8A 1_555 1_555
C2A C5A 1_555 1_555
C3A C10A 1_555 1_555
C5A C18A 1_555 1_555
C8A C21A 1_555 1_555
C9L C13L 1_555 1_555
C10A C22A 1_555 1_555
C11A C3A 1_555 1_555
C14A C15A 1_555 1_555
C16A C14A 1_555 1_555
C18A C19A 1_555 1_555
C19A C3A 1_555 1_555
C20B C27 1_555 1_555
C21A C16A 1_555 1_555
C22A C5A 1_555 1_555
C23A C6 1_555 1_555
C24A C4 1_555 1_555
C25A C32A 1_555 1_555
C26A N2A 1_555 1_555
C27B C20 1_555 1_555
C28L C29 1_555 1_555
C29L C28 1_555 1_555
C30A C14A 1_555 1_555
C31A C8A 1_555 1_555
C33A N3A 1_555 1_555
C34A N2A 1_555 1_555
C35A N3A 1_555 1_555
Zn1A N2A 1_555 1_555
Zn1J O2 1_555 1_555
Zn1L O8A 1_555 1_555
Zn1M O8 1_555 1_555
Zn1O O2A 1_555 1_555
Zn2A O3A 1_555 1_555
Zn2B N1B 1_555 1_555
Zn2J O1 1_555 1_555
Zn2L O7A 1_555 1_555
Zn2M O7 1_555 1_555
Zn2O O1A 1_555 1_555
Zn3A O12 1_555 1_555
Zn3J O11 1_555 1_555
Zn3L O9L 1_555 1_555
Zn3M O12L 1_555 1_555
Cl1A C22A 1_555 1_555
Cl2A C31A 1_555 1_555
Cl3A C16A 1_555 1_555
Cl4A C19A 1_555 1_555
Cl5A C23A 1_555 1_555
Cl6A C24A 1_555 1_555
Cl7L C29L 1_555 1_555
O3 Zn2 1_555 1_555
O4 Zn1 1_555 1_555
O5 Zn2 1_555 1_555
O6 Zn1 1_555 1_555
O9 Zn3 1_555 1_555
O10 Zn3 1_555 1_555
C23 C24 1_555 1_555
C26 C33 1_555 1_555
C30 C31 1_555 1_555
C34 C35 1_555 1_555
N1B C20B 1_555 1_555
N1B C27B 1_555 1_555
N3A Zn3A 1_555 1_555
O4A Zn1A 1_555 1_555
O5A Zn2A 1_555 1_555
O6A Zn1A 1_555 1_555
C9L C28L 1_555 1_555
C9L C29L 1_555 1_555
C23A C24A 1_555 1_555
C26A C33A 1_555 1_555
C30A C31A 1_555 1_555
C34A C35A 1_555 1_555

#END
