
#######################################################################
#
#                 Cambridge Crystallographic Data Centre
#                                CCDC 
#
#######################################################################
#
# If this CIF has been generated from an entry in the Cambridge 
# Structural Database, then it will include bibliographic, chemical, 
# crystal, experimental, refinement or atomic coordinate data resulting 
# from the CCDC's data processing and validation procedures.
#
#######################################################################

data_SAMGIY
_symmetry_cell_setting           triclinic
_symmetry_space_group_name_H-M   'P -1'
_symmetry_Int_Tables_number      2
_space_group_name_Hall           '-P 1'
loop_
_symmetry_equiv_pos_site_id
_symmetry_equiv_pos_as_xyz
1 x,y,z
2 -x,-y,-z
_cell_length_a                   11.2701(10)
_cell_length_b                   11.9262(12)
_cell_length_c                   13.3539(11)
_cell_angle_alpha                68.920(10)
_cell_angle_beta                 87.234(10)
_cell_angle_gamma                65.315(11)
_cell_volume                     1510.69
loop_
_atom_site_label
_atom_site_type_symbol
_atom_site_fract_x
_atom_site_fract_y
_atom_site_fract_z
Ni1 Ni 0.5000 0.5000 0.5000
N1 N 0.39366(15) 0.55878(14) 0.35560(11)
N2 N 0.39341(15) 0.68610(15) 0.50356(11)
C1 C 0.50681(18) 0.65390(17) 0.67125(14)
C2 C 0.41401(18) 0.73109(17) 0.57913(13)
C3 C 0.3262(2) 0.87169(18) 0.54835(15)
H1 H 0.3201 0.9261 0.5875
C4 C 0.25522(19) 0.91023(18) 0.45375(14)
H2 H 0.1901 0.9969 0.4132
C5 C 0.29770(18) 0.79330(17) 0.42596(13)
C6 C 0.24964(18) 0.79127(17) 0.33191(13)
C7 C 0.29274(18) 0.68119(17) 0.30069(13)
C8 C 0.23686(18) 0.67976(18) 0.20600(14)
H3 H 0.1659 0.7517 0.1546
C9 C 0.30504(19) 0.55636(18) 0.20468(14)
H4 H 0.2912 0.5252 0.1521
C10 C 0.40346(17) 0.48053(17) 0.29882(13)
C11 C 0.51333(19) 0.72210(18) 0.74474(14)
C12 C 0.47354(19) 0.69102(18) 0.84720(14)
C13 C 0.4764(2) 0.7558(2) 0.91432(15)
C14 C 0.5209(2) 0.8530(2) 0.87997(17)
C15 C 0.5622(2) 0.8857(2) 0.77909(17)
C16 C 0.5580(2) 0.8204(2) 0.71259(15)
F1 F 0.42815(12) 0.59787(12) 0.88325(9)
F2 F 0.43477(16) 0.72475(15) 1.01207(10)
F3 F 0.52529(18) 0.91571(16) 0.94440(11)
F4 F 0.60775(17) 0.97918(15) 0.74572(12)
F5 F 0.59926(14) 0.85518(13) 0.61520(9)
C17 C 0.14596(19) 0.92005(18) 0.25587(13)
C18 C 0.0207(2) 0.98039(19) 0.28261(14)
C19 C -0.0764(2) 1.0974(2) 0.21193(17)
C20 C -0.0480(3) 1.1602(2) 0.11192(17)
C21 C 0.0755(3) 1.1049(2) 0.08320(15)
C22 C 0.1707(2) 0.98558(19) 0.15400(15)
F6 F -0.01115(12) 0.92338(12) 0.38011(9)
F7 F -0.19810(13) 1.14750(15) 0.23986(12)
F8 F -0.14152(17) 1.27430(14) 0.04271(11)
F9 F 0.1037(2) 1.16680(15) -0.01412(10)
F10 F 0.28899(13) 0.93470(13) 0.12127(9)
N3 N 0.35625(15) 0.42463(15) 0.58341(12)
N4 N 0.02177(18) 0.44650(18) 0.53985(13)
C23 C 0.23432(19) 0.46561(19) 0.53914(14)
H5 H 0.2021 0.5392 0.4722
C24 C 0.15219(19) 0.4054(2) 0.58660(14)
C25 C 0.1973(2) 0.2962(2) 0.68468(15)
C26 C 0.3236(2) 0.2557(2) 0.73057(16)
H6 H 0.3584 0.1827 0.7977
C27 C 0.3987(2) 0.32125(19) 0.67906(15)
H7 H 0.4843 0.2920 0.7127
C28 C 0.1129(3) 0.2275(3) 0.73802(19)
H8 H 0.1678 0.1409 0.7937
H9 H 0.0700 0.2144 0.6838
H10 H 0.0459 0.2822 0.7714
Ni1_2 Ni -0.5000 0.5000 0.5000
N1A N 0.60634(15) 0.44122(14) 0.64440(11)
N2A N 0.60659(15) 0.31390(15) 0.49644(11)
C1A C 0.49319(18) 0.34610(17) 0.32875(14)
C2A C 0.58599(18) 0.26891(17) 0.42087(13)
C3A C 0.6738(2) 0.12831(18) 0.45165(15)
H1A H 0.6799 0.0739 0.4125
C4A C 0.74478(19) 0.08977(18) 0.54625(14)
H2A H 0.8099 0.0031 0.5868
C5A C 0.70230(18) 0.20670(17) 0.57404(13)
C6A C 0.75036(18) 0.20873(17) 0.66809(13)
C7A C 0.70726(18) 0.31881(17) 0.69931(13)
C8A C 0.76314(18) 0.32024(18) 0.79400(14)
H3A H 0.8341 0.2483 0.8454
C9A C 0.69496(19) 0.44364(18) 0.79532(14)
H4A H 0.7088 0.4748 0.8479
C10A C 0.59654(17) 0.51947(17) 0.70118(13)
C11A C 0.48667(19) 0.27790(18) 0.25526(14)
C12A C 0.52646(19) 0.30898(18) 0.15280(14)
C13A C 0.5236(2) 0.2442(2) 0.08568(15)
C14A C 0.4791(2) 0.1470(2) 0.12003(17)
C15A C 0.4378(2) 0.1143(2) 0.22091(17)
C16A C 0.4420(2) 0.1796(2) 0.28741(15)
F1A F 0.57185(12) 0.40213(12) 0.11675(9)
F2A F 0.56523(16) 0.27525(15) -0.01207(10)
F3A F 0.47471(18) 0.08429(16) 0.05560(11)
F4A F 0.39225(17) 0.02082(15) 0.25428(12)
F5A F 0.40074(14) 0.14482(13) 0.38480(9)
C17A C 0.85404(19) 0.07995(18) 0.74413(13)
C18A C 0.9793(2) 0.01961(19) 0.71739(14)
C19A C 1.0764(2) -0.0974(2) 0.78807(17)
C20A C 1.0480(3) -0.1602(2) 0.88808(17)
C21A C 0.9245(3) -0.1049(2) 0.91680(15)
C22A C 0.8293(2) 0.01442(19) 0.84600(15)
F6A F 1.01115(12) 0.07662(12) 0.61989(9)
F7A F 1.19810(13) -0.14750(15) 0.76014(12)
F8A F 1.14152(17) -0.27430(14) 0.95729(11)
F9A F 0.8963(2) -0.16680(15) 1.01412(10)
F10A F 0.71101(13) 0.06530(13) 0.87873(9)
N3A N -0.35625(15) 0.57537(15) 0.41659(12)
N3A_2 N 0.64375(15) 0.57537(15) 0.41659(12)
N4A N -0.02177(18) 0.55350(18) 0.46015(13)
C23A C -0.23432(19) 0.53439(19) 0.46086(14)
H5A H -0.2021 0.4608 0.5278
C24A C -0.15219(19) 0.5946(2) 0.41340(14)
C25A C -0.1973(2) 0.7038(2) 0.31532(15)
C26A C -0.3236(2) 0.7443(2) 0.26943(16)
H6A H -0.3584 0.8173 0.2023
C27A C -0.3987(2) 0.67875(19) 0.32094(15)
H7A H -0.4843 0.7080 0.2873
C28A C -0.1129(3) 0.7725(3) 0.26198(19)
H8A H -0.1678 0.8591 0.2063
H9A H -0.0700 0.7856 0.3162
H10A H -0.0459 0.7178 0.2286
C29 C 0.1203(3) 0.5270(2) 0.8253(2)
C30 C -0.0054(3) 0.5361(3) 0.8108(3)
H11 H -0.0340 0.4800 0.8664
C31 C -0.0896(3) 0.6259(3) 0.7164(3)
H12 H -0.1744 0.6297 0.7073
C32 C -0.0501(3) 0.7091(3) 0.6364(2)
H13 H -0.1084 0.7722 0.5726
C33 C 0.0735(3) 0.7009(3) 0.6488(2)
H14 H 0.1011 0.7581 0.5933
C34 C 0.1586(3) 0.6093(3) 0.7422(2)
H15 H 0.2449 0.6032 0.7489
C35 C 0.2141(4) 0.4269(3) 0.9265(2)
H16 H 0.2629 0.3420 0.9173
H17 H 0.1642 0.4138 0.9884
H18 H 0.2760 0.4600 0.9392
loop_
_geom_bond_atom_site_label_1
_geom_bond_atom_site_label_2
_geom_bond_site_symmetry_1
_geom_bond_site_symmetry_2
Ni1 N1 1_555 1_555
N1 C7 1_555 1_555
N2 Ni1 1_555 1_555
C1 C2 1_555 1_555
C2 N2 1_555 1_555
C3 C2 1_555 1_555
H1 C3 1_555 1_555
C4 C3 1_555 1_555
H2 C4 1_555 1_555
C5 N2 1_555 1_555
C6 C5 1_555 1_555
C7 C6 1_555 1_555
C8 C7 1_555 1_555
H3 C8 1_555 1_555
C9 C8 1_555 1_555
H4 C9 1_555 1_555
C10 N1 1_555 1_555
C11 C1 1_555 1_555
C12 C11 1_555 1_555
C13 C12 1_555 1_555
C14 C13 1_555 1_555
C15 C14 1_555 1_555
C16 C11 1_555 1_555
F1 C12 1_555 1_555
F2 C13 1_555 1_555
F3 C14 1_555 1_555
F4 C15 1_555 1_555
F5 C16 1_555 1_555
C17 C6 1_555 1_555
C18 C17 1_555 1_555
C19 C18 1_555 1_555
C20 C19 1_555 1_555
C21 C20 1_555 1_555
C22 C17 1_555 1_555
F6 C18 1_555 1_555
F7 C19 1_555 1_555
F8 C20 1_555 1_555
F9 C21 1_555 1_555
F10 C22 1_555 1_555
N3 Ni1 1_555 1_555
N4 C24 1_555 1_555
C23 N3 1_555 1_555
H5 C23 1_555 1_555
C24 C23 1_555 1_555
C25 C24 1_555 1_555
C26 C25 1_555 1_555
H6 C26 1_555 1_555
C27 N3 1_555 1_555
H7 C27 1_555 1_555
C28 C25 1_555 1_555
H8 C28 1_555 1_555
H9 C28 1_555 1_555
H10 C28 1_555 1_555
C29 C30 1_555 1_555
C30 H11 1_555 1_555
C31 C30 1_555 1_555
H12 C31 1_555 1_555
C32 C31 1_555 1_555
H13 C32 1_555 1_555
C33 C32 1_555 1_555
H14 C33 1_555 1_555
C34 C29 1_555 1_555
H15 C34 1_555 1_555
C35 C29 1_555 1_555
H16 C35 1_555 1_555
H17 C35 1_555 1_555
H18 C35 1_555 1_555
Ni1_2 N3A 1_555 1_555
N1A Ni1 1_555 1_555
N2A Ni1 1_555 1_555
C1A C10 1_555 1_555
C2A N2A 1_555 1_555
C3A C2A 1_555 1_555
H1A C3A 1_555 1_555
C4A C3A 1_555 1_555
H2A C4A 1_555 1_555
C5A N2A 1_555 1_555
C6A C5A 1_555 1_555
C7A N1A 1_555 1_555
C8A C7A 1_555 1_555
H3A C8A 1_555 1_555
C9A C8A 1_555 1_555
H4A C9A 1_555 1_555
C10A C1 1_555 1_555
C11A C1A 1_555 1_555
C12A C11A 1_555 1_555
C13A C12A 1_555 1_555
C14A C13A 1_555 1_555
C15A C14A 1_555 1_555
C16A C11A 1_555 1_555
F1A C12A 1_555 1_555
F2A C13A 1_555 1_555
F3A C14A 1_555 1_555
F4A C15A 1_555 1_555
F5A C16A 1_555 1_555
C17A C6A 1_555 1_555
C18A C17A 1_555 1_555
C19A C18A 1_555 1_555
C20A C19A 1_555 1_555
C21A C20A 1_555 1_555
C22A C17A 1_555 1_555
F6A C18A 1_555 1_555
F7A C19A 1_555 1_555
F8A C20A 1_555 1_555
F9A C21A 1_555 1_555
F10A C22A 1_555 1_555
N3A C23A 1_555 1_555
N3A_2 Ni1 1_555 1_555
N4A N4 1_555 1_555
C23A H5A 1_555 1_555
C24A N4A 1_555 1_555
C25A C24A 1_555 1_555
C26A C25A 1_555 1_555
H6A C26A 1_555 1_555
C27A N3A 1_555 1_555
H7A C27A 1_555 1_555
C28A C25A 1_555 1_555
H8A C28A 1_555 1_555
H9A C28A 1_555 1_555
H10A C28A 1_555 1_555
C4 C5 1_555 1_555
C9 C10 1_555 1_555
C15 C16 1_555 1_555
C21 C22 1_555 1_555
C26 C27 1_555 1_555
C33 C34 1_555 1_555
N1A C10A 1_555 1_555
C1A C2A 1_555 1_555
C4A C5A 1_555 1_555
C6A C7A 1_555 1_555
C9A C10A 1_555 1_555
C15A C16A 1_555 1_555
C21A C22A 1_555 1_555
C23A C24A 1_555 1_555
C26A C27A 1_555 1_555

#END
