
#######################################################################
#
#                 Cambridge Crystallographic Data Centre
#                                CCDC 
#
#######################################################################
#
# If this CIF has been generated from an entry in the Cambridge 
# Structural Database, then it will include bibliographic, chemical, 
# crystal, experimental, refinement or atomic coordinate data resulting 
# from the CCDC's data processing and validation procedures.
#
#######################################################################

data_SAMMEA01
_symmetry_cell_setting           triclinic
_symmetry_space_group_name_H-M   'P -1'
_symmetry_Int_Tables_number      2
_space_group_name_Hall           '-P 1'
loop_
_symmetry_equiv_pos_site_id
_symmetry_equiv_pos_as_xyz
1 x,y,z
2 -x,-y,-z
_cell_length_a                   8.7501(3)
_cell_length_b                   16.9319(6)
_cell_length_c                   20.1421(8)
_cell_angle_alpha                105.1270(10)
_cell_angle_beta                 102.346(2)
_cell_angle_gamma                91.8790(10)
_cell_volume                     2801.7
loop_
_atom_site_label
_atom_site_type_symbol
_atom_site_fract_x
_atom_site_fract_y
_atom_site_fract_z
Cu1 Cu 0.58561(7) 0.34866(3) 0.00724(3)
Cu2 Cu 0.07797(7) 0.16155(3) 0.01343(3)
O1 O 0.5127(4) 0.2666(2) 0.07970(18)
O2 O 0.3633(4) 0.30247(19) -0.04351(15)
O3 O 0.2985(4) 0.1838(2) 0.06822(17)
O4 O 0.1544(4) 0.22378(19) -0.04431(15)
O5 O 0.8068(4) 0.36748(19) 0.06419(15)
O6 O 0.6630(4) 0.25078(19) -0.04813(15)
O7 O 0.0056(4) 0.2903(2) 0.08422(16)
O8 O -0.1430(4) 0.17092(19) -0.03462(15)
O9 O 0.5119(4) 0.44496(18) 0.06412(14)
O10 O 0.5745(4) 0.43145(19) -0.06396(15)
O11 O 0.0161(4) 0.09186(18) 0.06825(14)
O12 O 0.0610(4) 0.03617(19) -0.06469(16)
C31 C 0.3787(7) 0.2346(3) 0.0498(3)
C32 C 0.2927(7) 0.2560(3) -0.0178(2)
C33 C 0.8793(6) 0.3043(3) 0.0507(2)
C34 C 0.7944(6) 0.2356(3) -0.0164(2)
C35 C 0.4821(5) 0.5049(3) 0.0377(2)
C36 C -0.0129(6) 0.0156(3) 0.0381(2)
Cu1A Cu 0.41439(7) 0.65134(3) -0.00724(3)
Cu1_2 Cu -0.41439(7) 0.34866(3) 0.00724(3)
Cu1_3 Cu 1.58561(7) 0.34866(3) 0.00724(3)
Cu2_2 Cu 1.07797(7) 0.16155(3) 0.01343(3)
Cu2A Cu -0.07797(7) -0.16155(3) -0.01343(3)
O1A O 0.4873(4) 0.7334(2) -0.07970(18)
O1_2 O 1.5127(4) 0.2666(2) 0.07970(18)
O2A O 0.6367(4) 0.69753(19) 0.04351(15)
O2_2 O 1.3633(4) 0.30247(19) -0.04351(15)
O3_2 O 1.2985(4) 0.1838(2) 0.06822(17)
O4_2 O 1.1544(4) 0.22378(19) -0.04431(15)
O5_2 O -0.1932(4) 0.36748(19) 0.06419(15)
O5A O 0.1932(4) 0.63252(19) -0.06419(15)
O6_2 O -0.3370(4) 0.25078(19) -0.04813(15)
O6A O 0.3370(4) 0.74922(19) 0.04813(15)
O7_2 O 1.0056(4) 0.2903(2) 0.08422(16)
O8_2 O 0.8570(4) 0.17092(19) -0.03462(15)
O9A O 0.4881(4) 0.55504(18) -0.06412(14)
O10A O 0.4255(4) 0.56855(19) 0.06396(15)
O11A O -0.0161(4) -0.09186(18) -0.06825(14)
O11_2 O 1.0161(4) 0.09186(18) 0.06825(14)
O12A O -0.0610(4) -0.03617(19) 0.06469(16)
O12_2 O 1.0610(4) 0.03617(19) -0.06469(16)
C31_2 C 1.3787(7) 0.2346(3) 0.0498(3)
C32_2 C 1.2927(7) 0.2560(3) -0.0178(2)
C33_2 C -0.1207(6) 0.3043(3) 0.0507(2)
C34_2 C -0.2056(6) 0.2356(3) -0.0164(2)
C35A C 0.5179(5) 0.4951(3) -0.0377(2)
C36A C 0.0129(6) -0.0156(3) -0.0381(2)
S1 S 0.27674(17) -0.12217(8) 0.43988(6)
S2 S 0.11249(16) 0.01344(7) 0.40213(6)
S3 S 0.37184(16) -0.01521(7) 0.60305(6)
S4 S 0.21317(17) 0.12171(8) 0.56518(6)
S5 S 0.21937(17) -0.23022(7) 0.29675(6)
S6 S 0.03254(16) -0.06666(8) 0.24792(6)
S7 S 0.45937(16) 0.06471(8) 0.75654(6)
S8 S 0.27787(17) 0.23098(7) 0.70871(6)
C1 C 0.2212(5) -0.0239(3) 0.4681(2)
C2 C 0.2624(5) 0.0221(3) 0.5370(2)
C3 C 0.1923(5) -0.1353(3) 0.3500(2)
C4 C 0.1203(5) -0.0721(3) 0.3328(2)
C5 C 0.3681(6) 0.0715(3) 0.6722(2)
C6 C 0.2989(6) 0.1348(3) 0.6544(2)
C7 C 0.0993(7) -0.2281(3) 0.2120(2)
H1 H 0.1301 -0.2697 0.1753
H2 H -0.0093 -0.2432 0.2109
C8 C 0.1084(7) -0.1494(3) 0.1952(2)
H3 H 0.0530 -0.1577 0.1464
H4 H 0.2178 -0.1335 0.1985
C9 C 0.3967(6) 0.1522(3) 0.8118(2)
H5 H 0.2878 0.1400 0.8122
H6 H 0.4584 0.1613 0.8597
C10 C 0.4103(7) 0.2298(3) 0.7903(2)
H7 H 0.5172 0.2394 0.7860
H8 H 0.3920 0.2751 0.8278
S9 S 1.05789(17) 0.35018(7) 0.39422(6)
S10 S 0.90809(17) 0.21759(7) 0.43322(6)
S11 S 1.15154(16) 0.45612(7) 0.55689(6)
S12 S 0.99752(16) 0.32566(7) 0.59711(6)
S13 S 1.00300(16) 0.26186(7) 0.24196(6)
S14 S 0.83161(15) 0.10302(7) 0.29243(6)
S15 S 1.27170(17) 0.56119(8) 0.70024(6)
S16 S 1.08572(16) 0.40576(7) 0.75036(6)
C11 C 1.0115(5) 0.3137(3) 0.4611(2)
C12 C 1.0508(5) 0.3595(3) 0.5304(2)
C13 C 0.9848(5) 0.2607(3) 0.3264(2)
C14 C 0.9178(5) 0.1995(3) 0.3449(2)
C15 C 1.1671(6) 0.4693(3) 0.6468(2)
C16 C 1.0955(5) 0.4103(3) 0.6656(2)
C17 C 0.8447(5) 0.1858(3) 0.1890(2)
H9 H 0.7458 0.2061 0.1967
H10 H 0.8440 0.1781 0.1395
C18 C 0.8564(6) 0.1037(3) 0.2052(2)
H11 H 0.9583 0.0853 0.2004
H12 H 0.7773 0.0641 0.1700
C19 C 1.2299(7) 0.5642(3) 0.7844(2)
H13 H 1.3131 0.5998 0.8207
H14 H 1.1335 0.5904 0.7866
C20 C 1.2139(9) 0.4912(4) 0.8024(3)
H15 H 1.1870 0.5056 0.8480
H16 H 1.3179 0.4721 0.8099
S17 S 0.54872(16) 0.34727(7) 0.40438(6)
S18 S 0.40141(17) 0.21658(8) 0.44611(6)
S19 S 0.64058(16) 0.45722(7) 0.56741(6)
S20 S 0.49468(16) 0.32569(7) 0.60898(6)
S21 S 0.48113(17) 0.25870(8) 0.25183(6)
S22 S 0.30263(16) 0.10373(8) 0.30442(6)
S23 S 0.75446(17) 0.56518(8) 0.71029(6)
S24 S 0.59295(17) 0.40494(7) 0.76281(6)
C21 C 0.5024(5) 0.3133(3) 0.4721(2)
C22 C 0.5424(5) 0.3602(3) 0.5413(2)
C23 C 0.4670(5) 0.2586(3) 0.3370(2)
C24 C 0.3982(5) 0.1987(3) 0.3561(2)
C25 C 0.6573(6) 0.4712(3) 0.6577(2)
C26 C 0.5945(6) 0.4104(3) 0.6775(2)
C27 C 0.4452(6) 0.1494(3) 0.2092(2)
H17 H 0.4418 0.1405 0.1593
H18 H 0.5331 0.1226 0.2288
C28 C 0.2993(6) 0.1099(3) 0.2162(2)
H19 H 0.2801 0.0548 0.1844
H20 H 0.2124 0.1404 0.2015
C29 C 0.7125(6) 0.5687(3) 0.7952(2)
H21 H 0.7821 0.6121 0.8313
H22 H 0.6056 0.5828 0.7943
C30 C 0.7304(6) 0.4913(3) 0.8152(2)
H23 H 0.7224 0.5015 0.8640
H24 H 0.8356 0.4761 0.8132
O13 O 0.3721(7) -0.0433(3) 0.1013(3)
C37 C 0.4552(16) -0.0387(7) 0.0487(6)
O14 O -0.1320(9) -0.3889(4) 0.1034(4)
C38 C -0.0634(15) -0.4220(7) 0.0492(6)
O15? O 0.064(5) -0.3886(15) 0.0805(14)
loop_
_geom_bond_atom_site_label_1
_geom_bond_atom_site_label_2
_geom_bond_site_symmetry_1
_geom_bond_site_symmetry_2
Cu1 O1 1_555 1_555
Cu2 O3 1_555 1_555
S1 C1 1_555 1_555
S2 C1 1_555 1_555
S3 C2 1_555 1_555
S4 C2 1_555 1_555
S5 C3 1_555 1_555
S6 C4 1_555 1_555
S7 C5 1_555 1_555
S8 C6 1_555 1_555
S9 C11 1_555 1_555
S10 C11 1_555 1_555
S11 C12 1_555 1_555
S12 C12 1_555 1_555
S13 C13 1_555 1_555
S14 C14 1_555 1_555
S15 C15 1_555 1_555
S16 C16 1_555 1_555
S17 C21 1_555 1_555
S18 C21 1_555 1_555
S19 C22 1_555 1_555
S20 C22 1_555 1_555
S21 C23 1_555 1_555
S22 C24 1_555 1_555
S23 C25 1_555 1_555
S24 C26 1_555 1_555
O1 C31 1_555 1_555
O2 Cu1 1_555 1_555
O3 C31 1_555 1_555
O4 Cu2 1_555 1_555
O5 Cu1 1_555 1_555
O6 Cu1 1_555 1_555
O7 Cu2 1_555 1_555
O8 Cu2 1_555 1_555
O9 Cu1 1_555 1_555
O10 Cu1 1_555 1_555
O11 Cu2 1_555 1_555
O12 Cu2 1_555 1_555
C1 C2 1_555 1_555
C3 S1 1_555 1_555
C4 S2 1_555 1_555
C5 S3 1_555 1_555
C6 S4 1_555 1_555
C7 S5 1_555 1_555
H1 C7 1_555 1_555
H2 C7 1_555 1_555
C8 S6 1_555 1_555
H3 C8 1_555 1_555
H4 C8 1_555 1_555
C9 S7 1_555 1_555
H5 C9 1_555 1_555
H6 C9 1_555 1_555
C10 S8 1_555 1_555
H7 C10 1_555 1_555
H8 C10 1_555 1_555
C11 C12 1_555 1_555
C13 S9 1_555 1_555
C14 S10 1_555 1_555
C15 S11 1_555 1_555
C16 S12 1_555 1_555
C17 S13 1_555 1_555
H9 C17 1_555 1_555
H10 C17 1_555 1_555
C18 S14 1_555 1_555
H11 C18 1_555 1_555
H12 C18 1_555 1_555
C19 S15 1_555 1_555
H13 C19 1_555 1_555
H14 C19 1_555 1_555
C20 S16 1_555 1_555
H15 C20 1_555 1_555
H16 C20 1_555 1_555
C21 C22 1_555 1_555
C23 S17 1_555 1_555
C24 S18 1_555 1_555
C25 S19 1_555 1_555
C26 S20 1_555 1_555
C27 S21 1_555 1_555
H17 C27 1_555 1_555
H18 C27 1_555 1_555
C28 S22 1_555 1_555
H19 C28 1_555 1_555
H20 C28 1_555 1_555
C29 S23 1_555 1_555
H21 C29 1_555 1_555
H22 C29 1_555 1_555
C30 S24 1_555 1_555
H23 C30 1_555 1_555
H24 C30 1_555 1_555
C31 C32 1_555 1_555
C32 O2 1_555 1_555
C33 O5 1_555 1_555
C34 O6 1_555 1_555
C35 O9 1_555 1_555
C36 O11 1_555 1_555
O13 C37 1_555 1_555
O14 C38 1_555 1_555
Cu1A O1A 1_555 1_555
Cu1_2 O5_2 1_555 1_555
Cu1_3 O1_2 1_555 1_555
Cu2_2 O3_2 1_555 1_555
Cu2A O11A 1_555 1_555
O1_2 C31_2 1_555 1_555
O2A Cu1A 1_555 1_555
O2_2 Cu1_3 1_555 1_555
O3_2 C31_2 1_555 1_555
O4_2 Cu2_2 1_555 1_555
O5_2 C33_2 1_555 1_555
O5A Cu1A 1_555 1_555
O6_2 Cu1_2 1_555 1_555
O6A Cu1A 1_555 1_555
O7_2 C33 1_555 1_555
O8_2 C34 1_555 1_555
O9A Cu1A 1_555 1_555
O10A C35 1_555 1_555
O11A C36A 1_555 1_555
O11_2 Cu2_2 1_555 1_555
O12A C36 1_555 1_555
O12_2 Cu2_2 1_555 1_555
C31_2 C32_2 1_555 1_555
C32_2 O2_2 1_555 1_555
C33_2 O7 1_555 1_555
C34_2 O8 1_555 1_555
C35A O10 1_555 1_555
C36A O12 1_555 1_555
O4 C32 1_555 1_555
C3 C4 1_555 1_555
C5 C6 1_555 1_555
C7 C8 1_555 1_555
C9 C10 1_555 1_555
C13 C14 1_555 1_555
C15 C16 1_555 1_555
C17 C18 1_555 1_555
C19 C20 1_555 1_555
C23 C24 1_555 1_555
C25 C26 1_555 1_555
C27 C28 1_555 1_555
C29 C30 1_555 1_555
C33 C34 1_555 1_555
C35 C35A 1_555 1_555
C36 C36A 1_555 1_555
Cu1A O10A 1_555 1_555
Cu2_2 O7_2 1_555 1_555
Cu2_2 O8_2 1_555 1_555
Cu2A O12A 1_555 1_555
O4_2 C32_2 1_555 1_555
O6_2 C34_2 1_555 1_555
O9A C35A 1_555 1_555
C33_2 C34_2 1_555 1_555

#END
