
#######################################################################
#
#                 Cambridge Crystallographic Data Centre
#                                CCDC 
#
#######################################################################
#
# If this CIF has been generated from an entry in the Cambridge 
# Structural Database, then it will include bibliographic, chemical, 
# crystal, experimental, refinement or atomic coordinate data resulting 
# from the CCDC's data processing and validation procedures.
#
#######################################################################

data_SAMVUZ
_symmetry_cell_setting           monoclinic
_symmetry_space_group_name_H-M   'P 21/c'
_symmetry_Int_Tables_number      14
_space_group_name_Hall           '-P 2ybc'
loop_
_symmetry_equiv_pos_site_id
_symmetry_equiv_pos_as_xyz
1 x,y,z
2 -x,1/2+y,1/2-z
3 -x,-y,-z
4 x,1/2-y,1/2+z
_cell_length_a                   14.669(2)
_cell_length_b                   12.988(2)
_cell_length_c                   11.7707(18)
_cell_angle_alpha                90
_cell_angle_beta                 103.621(2)
_cell_angle_gamma                90
_cell_volume                     2179.49
loop_
_atom_site_label
_atom_site_type_symbol
_atom_site_fract_x
_atom_site_fract_y
_atom_site_fract_z
Gd1 Gd 0.650521(11) 0.143757(10) 0.581934(12)
O1 O 0.75461(18) 0.1132(2) 0.4570(2)
O2 O 1.0149(2) 0.1176(2) 0.3319(2)
H1 H 0.9589 0.1145 0.3309
O3 O 1.1490(2) 0.1220(2) 0.4662(3)
O4 O 0.8470(2) 0.1111(2) 0.3327(2)
C1 C 0.9784(4) 0.1333(3) 1.0267(4)
H2 H 0.9346 0.1428 1.0715
C2 C 0.9513(3) 0.1374(2) 0.9051(4)
H3 H 0.8889 0.1487 0.8672
C3 C 1.0635(3) 0.1211(3) 0.4397(4)
C4 C 0.9173(3) 0.1217(2) 0.5347(3)
C5 C 1.0193(3) 0.1242(3) 0.8416(3)
C6 C 0.8326(3) 0.1151(3) 0.4356(3)
N1 N 1.1369(3) 0.1010(3) 1.0209(3)
C7 C 0.9950(3) 0.1260(3) 0.7147(3)
C8 C 1.0713(3) 0.1149(3) 1.0794(4)
H4 H 1.0887 0.1122 1.1606
C9 C 1.0104(3) 0.1225(2) 0.5322(3)
C10 C 1.1108(3) 0.1063(3) 0.9044(3)
H5 H 1.1567 0.0975 0.8626
N2 N 0.9077(2) 0.1242(2) 0.6482(3)
N3 N 1.0587(2) 0.1251(2) 0.6466(3)
H6 H 1.1187 0.1261 0.6715
O5 O 0.67537(16) 0.19078(16) 0.78442(18)
O6 O 0.60862(17) 0.24454(15) 0.92465(18)
O7 O 0.56518(17) 0.45907(17) 0.93358(19)
O8 O 0.74334(19) 0.30164(18) 0.6213(2)
H7 H 0.7363 0.3534 0.5742
H8 H 0.7635 0.3251 0.6910
N4 N 0.52436(19) 0.26877(19) 0.6213(2)
C11 C 0.5023(2) 0.3962(2) 0.7424(3)
C12 C 0.6170(2) 0.2443(2) 0.8208(3)
C13 C 0.4029(2) 0.3174(3) 0.4441(3)
N5 N 0.3197(2) 0.1978(2) 0.3017(3)
C14 C 0.5507(2) 0.3066(2) 0.7330(3)
C15 C 0.4583(3) 0.3329(2) 0.5640(3)
C16 C 0.3777(3) 0.3973(3) 0.3640(3)
H9 H 0.3951 0.4648 0.3852
C17 C 0.3715(3) 0.2200(3) 0.4088(3)
H10 H 0.3872 0.1665 0.4624
N6 N 0.4455(2) 0.41112(19) 0.6339(2)
H11 H 0.4077 0.4620 0.6135
C18 C 0.2994(3) 0.2741(3) 0.2256(3)
H12 H 0.2654 0.2593 0.1502
C19 C 0.3264(3) 0.3747(3) 0.2527(3)
H13 H 0.3104 0.4263 0.1968
O9 O 0.44229(17) 0.53794(17) 0.82086(19)
C20 C 0.5043(2) 0.4697(2) 0.8404(3)
O10 O 0.74449(18) 0.0023(2) 0.6737(2)
H14 H 0.7952 -0.0083 0.6507
H15 H 0.7300 -0.0543 0.7030
Gd1C Gd 0.650521(11) 0.356243(10) 1.081934(12)
Gd1A Gd 0.349479(11) 0.643757(10) 0.918066(12)
O6C O 0.60862(17) 0.25546(15) 0.42465(18)
O7C O 0.56518(17) 0.04093(17) 0.43358(19)
O9A O 0.55771(17) 0.03794(17) 0.67914(19)
O11 O 0.71137(18) 0.03737(18) 0.9492(2)
H16 H 0.7533 -0.0083 0.9473
H17 H 0.7023 0.0728 0.8864
loop_
_geom_bond_atom_site_label_1
_geom_bond_atom_site_label_2
_geom_bond_site_symmetry_1
_geom_bond_site_symmetry_2
Gd1 O1 1_555 1_555
O1 C6 1_555 1_555
O2 H1 1_555 1_555
O3 C3 1_555 1_555
O4 C6 1_555 1_555
C1 H2 1_555 1_555
C2 C1 1_555 1_555
H3 C2 1_555 1_555
C3 O2 1_555 1_555
C4 C6 1_555 1_555
C5 C2 1_555 1_555
N1 C8 1_555 1_555
C7 C5 1_555 1_555
C8 C1 1_555 1_555
H4 C8 1_555 1_555
C9 C3 1_555 1_555
C10 C5 1_555 1_555
H5 C10 1_555 1_555
N2 C4 1_555 1_555
N3 C7 1_555 1_555
H6 N3 1_555 1_555
O5 Gd1 1_555 1_555
O6 C12 1_555 1_555
O7 C20 1_555 1_555
O8 Gd1 1_555 1_555
H7 O8 1_555 1_555
H8 O8 1_555 1_555
N4 Gd1 1_555 1_555
C11 C14 1_555 1_555
C12 O5 1_555 1_555
C13 C15 1_555 1_555
N5 C17 1_555 1_555
C14 N4 1_555 1_555
C15 N4 1_555 1_555
C16 C13 1_555 1_555
H9 C16 1_555 1_555
C17 C13 1_555 1_555
H10 C17 1_555 1_555
N6 C11 1_555 1_555
H11 N6 1_555 1_555
C18 N5 1_555 1_555
H12 C18 1_555 1_555
C19 C16 1_555 1_555
H13 C19 1_555 1_555
O9 C20 1_555 1_555
C20 C11 1_555 1_555
O10 Gd1 1_555 1_555
H14 O10 1_555 1_555
H15 O10 1_555 1_555
O11 H16 1_555 1_555
H17 O11 1_555 1_555
Gd1C O6 1_555 1_555
Gd1A O9 1_555 1_555
O6C Gd1 1_555 1_555
O7C Gd1 1_555 1_555
O9A Gd1 1_555 1_555
C4 C9 1_555 1_555
N1 C10 1_555 1_555
C7 N2 1_555 1_555
C9 N3 1_555 1_555
O7 Gd1C 1_555 1_555
C12 C14 1_555 1_555
C15 N6 1_555 1_555
C18 C19 1_555 1_555

#END
