
#######################################################################
#
#                 Cambridge Crystallographic Data Centre
#                                CCDC 
#
#######################################################################
#
# If this CIF has been generated from an entry in the Cambridge 
# Structural Database, then it will include bibliographic, chemical, 
# crystal, experimental, refinement or atomic coordinate data resulting 
# from the CCDC's data processing and validation procedures.
#
#######################################################################

data_SAMVOT
_symmetry_cell_setting           monoclinic
_symmetry_space_group_name_H-M   'P 21/c'
_symmetry_Int_Tables_number      14
_space_group_name_Hall           '-P 2ybc'
loop_
_symmetry_equiv_pos_site_id
_symmetry_equiv_pos_as_xyz
1 x,y,z
2 -x,1/2+y,1/2-z
3 -x,-y,-z
4 x,1/2-y,1/2+z
_cell_length_a                   14.6753(13)
_cell_length_b                   13.0120(12)
_cell_length_c                   11.7854(11)
_cell_angle_alpha                90
_cell_angle_beta                 103.7210(10)
_cell_angle_gamma                90
_cell_volume                     2186.26
loop_
_atom_site_label
_atom_site_type_symbol
_atom_site_fract_x
_atom_site_fract_y
_atom_site_fract_z
Eu1 Eu 0.348590(10) 0.143429(11) 0.918000(12)
O1 O 0.24515(15) 0.1121(2) 1.0442(2)
N1 N 0.47569(17) 0.2689(2) 0.8785(2)
O2 O 0.15223(17) 0.1107(2) 1.1678(2)
C1 C 0.5412(2) 0.3333(2) 0.9359(3)
C2 C 0.5969(2) 0.3179(3) 1.0560(3)
O3 O 0.43474(15) 0.45948(17) 0.56701(18)
C3 C 0.0061(2) 0.1261(3) 0.7867(3)
C4 C 0.0827(2) 0.1215(3) 0.9660(3)
C5 C -0.0188(2) 0.1248(3) 0.6595(3)
C6 C -0.0645(2) 0.1207(3) 1.0588(3)
C7 C -0.0111(2) 0.1221(3) 0.9675(3)
O4 O -0.01636(17) 0.1178(2) 1.1670(2)
H1 H 0.0398 0.1164 1.1687
O5 O -0.14994(18) 0.1216(2) 1.0316(3)
N2 N 0.0919(2) 0.1243(2) 0.8528(2)
N3 N -0.0583(2) 0.1257(2) 0.8531(3)
C8 C 0.1662(2) 0.1144(3) 1.0646(3)
O6 O 0.32420(14) 0.19111(16) 0.71558(17)
O7 O 0.25646(17) 0.30304(19) 0.8789(2)
H2 H 0.2261 0.3252 0.8122
H3 H 0.2633 0.3541 0.9271
O8 O 0.39098(15) 0.24444(16) 0.57584(17)
C9 C 0.4971(2) 0.3960(2) 0.7573(3)
C10 C 0.3826(2) 0.2449(2) 0.6788(2)
N4 N 0.6799(2) 0.1981(2) 1.1984(3)
C11 C 0.6221(2) 0.3981(3) 1.1359(3)
H4 H 0.6043 0.4654 1.1150
C12 C 0.4493(2) 0.3068(2) 0.7668(2)
C13 C 0.6741(3) 0.3751(3) 1.2471(3)
H5 H 0.6909 0.4267 1.3027
C14 C 0.6288(2) 0.2204(3) 1.0915(3)
H6 H 0.6137 0.1671 1.0377
C15 C 0.7005(2) 0.2750(3) 1.2743(3)
H7 H 0.7347 0.2604 1.3496
N5 N -0.1362(2) 0.1013(3) 0.4799(3)
C16 C 0.0497(3) 0.1378(3) 0.5963(3)
H8 H 0.1120 0.1491 0.6345
C17 C 0.0229(3) 0.1336(3) 0.4752(3)
H9 H 0.0669 0.1429 0.4309
C18 C -0.0698(3) 0.1155(3) 0.4217(3)
H10 H -0.0869 0.1130 0.3406
C19 C -0.1105(3) 0.1067(3) 0.5964(3)
H11 H -0.1565 0.0978 0.6379
N6 N 0.55454(18) 0.4114(2) 0.8663(2)
O9 O 0.55831(15) 0.53727(17) 0.67987(18)
C20 C 0.4964(2) 0.4696(2) 0.6601(3)
O11 O 0.25564(16) 0.0001(2) 0.8266(2)
H14 H 0.2451 -0.0569 0.8564
H15 H 0.2032 0.0242 0.7892
H16 H 0.597(3) 0.458(3) 0.885(3)
H17 H -0.119(3) 0.124(3) 0.828(4)
Eu1A Eu 0.651410(10) 0.643429(11) 0.582000(12)
Eu1C Eu 0.348590(10) 0.356571(11) 0.418000(12)
O3C O 0.43474(15) 0.04052(17) 1.06701(18)
O8C O 0.39098(15) 0.25556(16) 1.07584(17)
O9A O 0.44169(15) 0.03727(17) 0.82013(18)
O10 O 0.28882(16) 0.03690(18) 0.55187(19)
H12 H 0.2759 0.0841 0.5954
H13 H 0.2422 -0.0038 0.5355
loop_
_geom_bond_atom_site_label_1
_geom_bond_atom_site_label_2
_geom_bond_site_symmetry_1
_geom_bond_site_symmetry_2
Eu1 O1 1_555 1_555
O1 C8 1_555 1_555
N1 Eu1 1_555 1_555
O2 C8 1_555 1_555
C1 N1 1_555 1_555
C2 C1 1_555 1_555
O3 C20 1_555 1_555
C3 C5 1_555 1_555
C4 C7 1_555 1_555
C5 C16 1_555 1_555
C6 C7 1_555 1_555
C7 N3 1_555 1_555
O4 C6 1_555 1_555
H1 O4 1_555 1_555
O5 C6 1_555 1_555
N2 C3 1_555 1_555
N3 C3 1_555 1_555
C8 C4 1_555 1_555
O6 Eu1 1_555 1_555
O7 Eu1 1_555 1_555
H2 O7 1_555 1_555
H3 O7 1_555 1_555
O8 C10 1_555 1_555
C9 C12 1_555 1_555
C10 O6 1_555 1_555
N4 C14 1_555 1_555
C11 C2 1_555 1_555
H4 C11 1_555 1_555
C12 N1 1_555 1_555
C13 C11 1_555 1_555
H5 C13 1_555 1_555
C14 C2 1_555 1_555
H6 C14 1_555 1_555
C15 N4 1_555 1_555
H7 C15 1_555 1_555
N5 C18 1_555 1_555
C16 H8 1_555 1_555
C17 C16 1_555 1_555
H9 C17 1_555 1_555
C18 C17 1_555 1_555
H10 C18 1_555 1_555
C19 C5 1_555 1_555
H11 C19 1_555 1_555
N6 C1 1_555 1_555
O9 C20 1_555 1_555
C20 C9 1_555 1_555
O10 H12 1_555 1_555
H13 O10 1_555 1_555
O11 Eu1 1_555 1_555
H14 O11 1_555 1_555
H15 O11 1_555 1_555
H16 N6 1_555 1_555
H17 N3 1_555 1_555
Eu1A O9 1_555 1_555
Eu1C O3 1_555 1_555
O3C Eu1 1_555 1_555
O8C Eu1 1_555 1_555
O9A Eu1 1_555 1_555
C4 N2 1_555 1_555
O8 Eu1C 1_555 1_555
C9 N6 1_555 1_555
C10 C12 1_555 1_555
C13 C15 1_555 1_555
N5 C19 1_555 1_555

#END
