
#######################################################################
#
#                 Cambridge Crystallographic Data Centre
#                                CCDC 
#
#######################################################################
#
# If this CIF has been generated from an entry in the Cambridge 
# Structural Database, then it will include bibliographic, chemical, 
# crystal, experimental, refinement or atomic coordinate data resulting 
# from the CCDC's data processing and validation procedures.
#
#######################################################################

data_SAMWIO
_symmetry_cell_setting           monoclinic
_symmetry_space_group_name_H-M   'P 21/c'
_symmetry_Int_Tables_number      14
_space_group_name_Hall           '-P 2ybc'
loop_
_symmetry_equiv_pos_site_id
_symmetry_equiv_pos_as_xyz
1 x,y,z
2 -x,1/2+y,1/2-z
3 -x,-y,-z
4 x,1/2-y,1/2+z
_cell_length_a                   15.9560(17)
_cell_length_b                   11.9660(13)
_cell_length_c                   12.9119(14)
_cell_angle_alpha                90
_cell_angle_beta                 111.4900(10)
_cell_angle_gamma                90
_cell_volume                     2293.88
loop_
_atom_site_label
_atom_site_type_symbol
_atom_site_fract_x
_atom_site_fract_y
_atom_site_fract_z
Dy1 Dy 0.626361(9) 0.333699(12) 0.578230(11)
C1 C 0.4368(2) 0.1606(3) 0.5718(3)
C2 C 0.4593(2) 0.0701(3) 0.8476(2)
O1 O 0.67049(14) 0.28855(18) 0.77081(16)
C3 C 0.5360(2) 0.1925(3) 0.7360(2)
O2 O 0.67564(17) 0.14543(19) 0.59278(19)
H1 H 0.7138 0.1282 0.6570
H2 H 0.6929 0.1177 0.5432
O3 O 0.65362(16) 0.5090(2) 0.50211(19)
H3 H 0.7070 0.5320 0.5135
H4 H 0.6231 0.5633 0.5140
C4 C 0.6233(2) 0.2359(3) 0.8144(2)
C5 C 0.3921(2) 0.1511(3) 0.4514(3)
C6 C 0.4713(2) 0.1253(3) 0.7503(2)
N1 N 0.2581(2) 0.1562(3) 0.2867(3)
C7 C 0.2999(2) 0.1667(3) 0.3971(3)
H5 H 0.2657 0.1853 0.4394
C8 C 0.4425(2) 0.1235(3) 0.3866(3)
H6 H 0.5045 0.1131 0.4196
N2 N 0.51348(17) 0.2152(2) 0.6237(2)
N3 N 0.40982(18) 0.1067(2) 0.6455(2)
H7 H 0.3618 0.0670 0.6294
O4 O 0.48887(14) 0.11798(19) 0.94136(16)
O5 O 0.64544(15) 0.2200(2) 0.91700(17)
C9 C 0.3992(3) 0.1119(3) 0.2731(3)
H8 H 0.4311 0.0925 0.2283
O6 O 0.41841(16) -0.0209(2) 0.82772(17)
O7 O 0.78242(15) 0.3617(2) 0.66201(19)
H9 H 0.8139 0.3197 0.7166
H10 H 0.8170 0.3833 0.6284
C20 C 0.3086(3) 0.1296(4) 0.2279(3)
H19 H 0.2803 0.1226 0.1512
Dy1C Dy 0.626361(9) 0.166301(12) 1.078230(11)
Dy1A Dy 0.373639(9) -0.166301(12) 0.921770(11)
O4C O 0.48887(14) 0.38202(19) 0.44136(16)
O5C O 0.64544(15) 0.2800(2) 0.41700(17)
O6A O 0.58159(16) 0.4791(2) 0.67228(17)
O8 O 1.18736(17) 1.1153(2) 0.9546(2)
N4 N 1.07635(19) 0.9238(2) 0.9075(2)
C10 C 1.1062(3) 1.1272(3) 0.9224(3)
C11 C 1.0436(2) 1.0317(3) 0.8946(3)
C12 C 1.0057(2) 0.7362(3) 0.8788(3)
C13 C 1.0038(2) 0.8589(3) 0.8742(3)
C14 C 0.8793(3) 1.1174(3) 0.8170(3)
O9 O 0.90425(18) 1.2196(2) 0.8248(2)
O10 O 0.80021(18) 1.0838(2) 0.7814(2)
O12 O 1.07063(18) 1.2274(2) 0.9094(2)
H13 H 1.0157 1.2226 0.8791
N5 N 0.92694(19) 0.9197(2) 0.8390(2)
H14 H 0.8730 0.8937 0.8130
N6 N 1.0950(2) 0.5697(3) 0.9357(3)
C15 C 1.0867(3) 0.6809(3) 0.9287(3)
H15 H 1.1387 0.7237 0.9591
C16 C 0.9508(2) 1.0305(3) 0.8523(3)
C17 C 0.9284(3) 0.6715(3) 0.8364(3)
H16 H 0.8724 0.7053 0.8038
C18 C 1.0199(3) 0.5096(3) 0.8911(3)
H17 H 1.0247 0.4321 0.8925
C19 C 0.9356(3) 0.5565(3) 0.8431(3)
H18 H 0.8845 0.5117 0.8158
O11 O 0.26958(16) 0.9617(2) 0.57204(19)
H11 H 0.2760 0.9110 0.6203
H12 H 0.2137 0.9685 0.5312
loop_
_geom_bond_atom_site_label_1
_geom_bond_atom_site_label_2
_geom_bond_site_symmetry_1
_geom_bond_site_symmetry_2
Dy1 O1 1_555 1_555
C1 C5 1_555 1_555
C2 C6 1_555 1_555
O1 C4 1_555 1_555
C3 C4 1_555 1_555
O2 Dy1 1_555 1_555
H1 O2 1_555 1_555
H2 O2 1_555 1_555
O3 Dy1 1_555 1_555
H3 O3 1_555 1_555
H4 O3 1_555 1_555
C4 O5 1_555 1_555
C5 C7 1_555 1_555
C6 C3 1_555 1_555
N1 C7 1_555 1_555
C7 H5 1_555 1_555
C8 C5 1_555 1_555
H6 C8 1_555 1_555
N2 Dy1 1_555 1_555
N3 C1 1_555 1_555
H7 N3 1_555 1_555
O4 C2 1_555 1_555
O5 Dy1C 1_555 1_555
C9 C8 1_555 1_555
H8 C9 1_555 1_555
O6 C2 1_555 1_555
O7 Dy1 1_555 1_555
H9 O7 1_555 1_555
H10 O7 1_555 1_555
O8 C10 1_555 1_555
N4 C11 1_555 1_555
C10 C11 1_555 1_555
C11 C16 1_555 1_555
C12 C13 1_555 1_555
C13 N4 1_555 1_555
C14 O9 1_555 1_555
O10 C14 1_555 1_555
O11 H11 1_555 1_555
H12 O11 1_555 1_555
O12 C10 1_555 1_555
H13 O12 1_555 1_555
N5 C13 1_555 1_555
H14 N5 1_555 1_555
N6 C15 1_555 1_555
C15 C12 1_555 1_555
H15 C15 1_555 1_555
C16 C14 1_555 1_555
C17 C12 1_555 1_555
H16 C17 1_555 1_555
C18 N6 1_555 1_555
H17 C18 1_555 1_555
C19 C17 1_555 1_555
H18 C19 1_555 1_555
C20 N1 1_555 1_555
H19 C20 1_555 1_555
Dy1C O4 1_555 1_555
Dy1A O6 1_555 1_555
O4C Dy1 1_555 1_555
O5C Dy1 1_555 1_555
O6A Dy1 1_555 1_555
C1 N2 1_555 1_555
C3 N2 1_555 1_555
C6 N3 1_555 1_555
C9 C20 1_555 1_555
N5 C16 1_555 1_555
C18 C19 1_555 1_555

#END
