
#######################################################################
#
#                 Cambridge Crystallographic Data Centre
#                                CCDC 
#
#######################################################################
#
# If this CIF has been generated from an entry in the Cambridge 
# Structural Database, then it will include bibliographic, chemical, 
# crystal, experimental, refinement or atomic coordinate data resulting 
# from the CCDC's data processing and validation procedures.
#
#######################################################################

data_SANBUF
_symmetry_cell_setting           orthorhombic
_symmetry_space_group_name_H-M   'I m m 2'
_symmetry_Int_Tables_number      44
_space_group_name_Hall           'I 2 -2'
loop_
_symmetry_equiv_pos_site_id
_symmetry_equiv_pos_as_xyz
1 x,y,z
2 -x,-y,z
3 x,-y,z
4 -x,y,z
5 1/2+x,1/2+y,1/2+z
6 1/2-x,1/2-y,1/2+z
7 1/2+x,1/2-y,1/2+z
8 1/2-x,1/2+y,1/2+z
_cell_length_a                   7.6236(11)
_cell_length_b                   15.488(3)
_cell_length_c                   6.9565(10)
_cell_angle_alpha                90
_cell_angle_beta                 90
_cell_angle_gamma                90
_cell_volume                     821.384
loop_
_atom_site_label
_atom_site_type_symbol
_atom_site_fract_x
_atom_site_fract_y
_atom_site_fract_z
Cu1 Cu 0.0000 0.19143(4) 0.97954(16)
C1 C 0.1671(9) 0.3316(4) 0.7301(7)
C2 C 0.0000 0.3806(5) 0.7611(11)
H1 H 0.0000 0.4026 0.8918
H2 H 0.0000 0.4301 0.6756
C3 C 0.0000 0.0000 0.9296(12)
H3 H 0.1031 0.0000 1.0114
C4 C 0.1607(9) 0.0774(3) 0.6808(7)
H4 H 0.1641 0.1284 0.6000
H5 H 0.2648 0.0774 0.7610
C5 C 0.0000 0.0000 0.4428(14)
H6 H 0.0000 -0.0506 0.3607
N1 N 0.0000 0.0798(4) 0.8053(8)
N2 N 0.1595(9) 0.0000 0.5603(8)
O1 O 0.1904(7) 0.2596(2) 0.8127(5)
O2 O 0.2772(7) 0.3650(2) 0.6210(5)
O3 O 0.0000 0.2866(4) 1.1713(9)
H7 H -0.0903 0.2845 1.2351
C1C C -0.1671(9) 0.3316(4) 0.7301(7)
O1C O -0.1904(7) 0.2596(2) 0.8127(5)
O2C O -0.2772(7) 0.3650(2) 0.6210(5)
H3A H -0.1031 0.0000 1.0114
C4B C 0.1607(9) -0.0774(3) 0.6808(7)
H4B H 0.1641 -0.1284 0.6000
H5B H 0.2648 -0.0774 0.7610
N1B N 0.0000 -0.0798(4) 0.8053(8)
C4A C -0.1607(9) -0.0774(3) 0.6808(7)
H4A H -0.1641 -0.1284 0.6000
H5A H -0.2648 -0.0774 0.7610
N2A N -0.1595(9) 0.0000 0.5603(8)
C4C C -0.1607(9) 0.0774(3) 0.6808(7)
H4C H -0.1641 0.1284 0.6000
H5C H -0.2648 0.0774 0.7610
H6A H 0.0000 0.0506 0.3607
H7C H 0.0903 0.2845 1.2351
C1E C 0.3329(9) 0.1684(4) 1.2301(7)
C2E C 0.5000 0.1194(5) 1.2611(11)
H1E H 0.5000 0.0974 1.3918
H2E H 0.5000 0.0699 1.1756
O1E O 0.3096(7) 0.2404(2) 1.3127(5)
O2E O 0.2228(7) 0.1350(2) 1.1210(5)
C1F C 0.6671(9) 0.1684(4) 1.2301(7)
O1F O 0.6904(7) 0.2404(2) 1.3127(5)
O2F O 0.7772(7) 0.1350(2) 1.1210(5)
Cu1B Cu 0.0000 -0.19143(4) 0.97954(16)
O3B O 0.0000 -0.2866(4) 1.1713(9)
H7B H -0.0903 -0.2845 1.2351
H7A H 0.0903 -0.2845 1.2351
O2F_2 O -0.2228(7) 0.1350(2) 1.1210(5)
Cu1E Cu 0.5000 0.30857(4) 0.47954(16)
Cu1E_2 Cu -0.5000 0.30857(4) 0.47954(16)
Cu1E_3 Cu 0.5000 0.30857(4) 1.47954(16)
Cu1_2 Cu 1.0000 0.19143(4) 0.97954(16)
O1A O -0.1904(7) -0.2596(2) 0.8127(5)
O1B O 0.1904(7) -0.2596(2) 0.8127(5)
O2D O -0.2228(7) -0.1350(2) 1.1210(5)
O2G O 0.2228(7) -0.1350(2) 1.1210(5)
loop_
_geom_bond_atom_site_label_1
_geom_bond_atom_site_label_2
_geom_bond_site_symmetry_1
_geom_bond_site_symmetry_2
Cu1 N1 1_555 1_555
C1 C2 1_555 1_555
C2 H1 1_555 1_555
H2 C2 1_555 1_555
C3 H3 1_555 1_555
C4 H4 1_555 1_555
H5 C4 1_555 1_555
C5 H6 1_555 1_555
N1 C3 1_555 1_555
N2 C4 1_555 1_555
O1 Cu1 1_555 1_555
O2 C1 1_555 1_555
O3 Cu1 1_555 1_555
H7 O3 1_555 1_555
C1C C2 1_555 1_555
O1C Cu1 1_555 1_555
O2C C1C 1_555 1_555
H3A C3 1_555 1_555
C4B N2 1_555 1_555
H4B C4B 1_555 1_555
H5B C4B 1_555 1_555
N1B C3 1_555 1_555
C4A N1B 1_555 1_555
H4A C4A 1_555 1_555
H5A C4A 1_555 1_555
N2A C5 1_555 1_555
C4C N1 1_555 1_555
H4C C4C 1_555 1_555
H5C C4C 1_555 1_555
H6A C5 1_555 1_555
H7C O3 1_555 1_555
C1E C2E 1_555 1_555
C2E H1E 1_555 1_555
H2E C2E 1_555 1_555
O1E C1E 1_555 1_555
O2E Cu1 1_555 1_555
C1F C2E 1_555 1_555
O1F C1F 1_555 1_555
O2F C1F 1_555 1_555
Cu1B N1B 1_555 1_555
O3B Cu1B 1_555 1_555
H7B O3B 1_555 1_555
H7A O3B 1_555 1_555
O2F_2 Cu1 1_555 1_555
Cu1E O2 1_555 1_555
Cu1E_2 O2C 1_555 1_555
Cu1E_3 O1E 1_555 1_555
Cu1_2 O2F 1_555 1_555
O1A Cu1B 1_555 1_555
O1B Cu1B 1_555 1_555
O2D Cu1B 1_555 1_555
O2G Cu1B 1_555 1_555
C1 O1 1_555 1_555
C4 N1 1_555 1_555
C5 N2 1_555 1_555
C1C O1C 1_555 1_555
C4B N1B 1_555 1_555
C4A N2A 1_555 1_555
N2A C4C 1_555 1_555
C1E O2E 1_555 1_555
O1F Cu1E_3 1_555 1_555

#END
