
#######################################################################
#
#                 Cambridge Crystallographic Data Centre
#                                CCDC 
#
#######################################################################
#
# If this CIF has been generated from an entry in the Cambridge 
# Structural Database, then it will include bibliographic, chemical, 
# crystal, experimental, refinement or atomic coordinate data resulting 
# from the CCDC's data processing and validation procedures.
#
#######################################################################

data_SANSUV01
_symmetry_cell_setting           monoclinic
_symmetry_space_group_name_H-M   'P 21/c'
_symmetry_Int_Tables_number      14
_space_group_name_Hall           '-P 2ybc'
loop_
_symmetry_equiv_pos_site_id
_symmetry_equiv_pos_as_xyz
1 x,y,z
2 -x,1/2+y,1/2-z
3 -x,-y,-z
4 x,1/2-y,1/2+z
_cell_length_a                   12.950(2)
_cell_length_b                   13.101(1)
_cell_length_c                   16.766(2)
_cell_angle_alpha                90
_cell_angle_beta                 91.45(1)
_cell_angle_gamma                90
_cell_volume                     2843.57
loop_
_atom_site_label
_atom_site_type_symbol
_atom_site_fract_x
_atom_site_fract_y
_atom_site_fract_z
Tl1 Tl 0.39771(2) -0.09678(2) 0.271932(14)
Tl2 Tl 0.69157(2) -0.29638(2) 0.282420(15)
Cl1 Cl 0.52009(14) -0.28196(14) 0.34478(10)
Cl2 Cl 0.25064(16) 0.02848(14) 0.16760(10)
Cl3 Cl 0.36908(16) 0.12639(15) 0.34560(9)
C1 C 0.5227(6) -0.0620(5) 0.1985(3)
C2 C 0.5194(5) -0.0910(5) 0.1184(3)
C3 C 0.6007(6) -0.0641(5) 0.0695(4)
H1 H 0.5989 -0.0847 0.0152
C4 C 0.6842(6) -0.0075(6) 0.0990(4)
C5 C 0.6876(6) 0.0189(5) 0.1796(4)
H2 H 0.7453 0.0559 0.2005
C6 C 0.6095(6) -0.0073(5) 0.2292(4)
C7 C 0.4325(6) -0.1563(6) 0.0852(4)
H3 H 0.4401 -0.1646 0.0276
H4 H 0.3662 -0.1233 0.0955
H5 H 0.4346 -0.2234 0.1110
C8 C 0.7724(6) 0.0222(6) 0.0455(4)
H6 H 0.7793 -0.0291 0.0034
H7 H 0.8369 0.0257 0.0773
H8 H 0.7580 0.0889 0.0213
C9 C 0.6176(6) 0.0237(6) 0.3173(4)
H9 H 0.6905 0.0271 0.3342
H10 H 0.5821 -0.0270 0.3497
H11 H 0.5854 0.0907 0.3243
C10 C 0.2800(6) -0.1535(6) 0.3456(4)
C11 C 0.1966(6) -0.2063(6) 0.3117(4)
C12 C 0.1207(7) -0.2430(6) 0.3623(5)
H12 H 0.0634 -0.2790 0.3398
C13 C 0.1265(7) -0.2286(7) 0.4439(5)
C14 C 0.2116(8) -0.1781(7) 0.4755(4)
H13 H 0.2172 -0.1693 0.5317
C15 C 0.2887(7) -0.1399(6) 0.4292(4)
C16 C 0.1862(6) -0.2271(6) 0.2227(4)
H14 H 0.1280 -0.2734 0.2124
H15 H 0.2499 -0.2586 0.2041
H16 H 0.1741 -0.1627 0.1942
C17 C 0.0443(7) -0.2721(8) 0.4969(5)
H17 H 0.0763 -0.2945 0.5475
H18 H 0.0109 -0.3303 0.4702
H19 H -0.0074 -0.2194 0.5073
C18 C 0.3827(7) -0.0881(6) 0.4676(4)
H20 H 0.3767 -0.0889 0.5258
H21 H 0.3865 -0.0173 0.4490
H22 H 0.4454 -0.1246 0.4528
C19 C 0.8102(5) -0.1834(5) 0.3047(4)
C20 C 0.8695(6) -0.1519(5) 0.2408(4)
C21 C 0.9442(6) -0.0769(6) 0.2567(5)
H23 H 0.9849 -0.0534 0.2142
C22 C 0.9611(6) -0.0357(6) 0.3317(5)
C23 C 0.8992(6) -0.0688(6) 0.3933(4)
H24 H 0.9082 -0.0393 0.4448
C24 C 0.8238(6) -0.1448(6) 0.3816(4)
C25 C 0.8535(6) -0.1949(6) 0.1578(4)
H25 H 0.8642 -0.2689 0.1590
H26 H 0.9030 -0.1636 0.1219
H27 H 0.7830 -0.1800 0.1386
C26 C 1.0445(7) 0.0418(7) 0.3469(6)
H28 H 1.0216 0.0912 0.3867
H29 H 1.0592 0.0776 0.2971
H30 H 1.1072 0.0074 0.3669
C27 C 0.7594(6) -0.1805(6) 0.4498(4)
H31 H 0.7854 -0.1497 0.4996
H32 H 0.7635 -0.2551 0.4539
H33 H 0.6873 -0.1601 0.4402
Tl2A Tl 0.30843(2) 0.20362(2) 0.217580(15)
Cl2A Cl 0.74936(16) -0.47152(14) 0.33240(10)
Cl3A Cl 0.63092(16) -0.37361(15) 0.15440(9)
loop_
_geom_bond_atom_site_label_1
_geom_bond_atom_site_label_2
_geom_bond_site_symmetry_1
_geom_bond_site_symmetry_2
Tl1 Cl1 1_555 1_555
Tl2 Cl1 1_555 1_555
Cl2 Tl1 1_555 1_555
Cl3 Tl1 1_555 1_555
C1 Tl1 1_555 1_555
C2 C1 1_555 1_555
C3 C2 1_555 1_555
H1 C3 1_555 1_555
C4 C3 1_555 1_555
C5 C4 1_555 1_555
H2 C5 1_555 1_555
C6 C1 1_555 1_555
C7 C2 1_555 1_555
H3 C7 1_555 1_555
H4 C7 1_555 1_555
H5 C7 1_555 1_555
C8 C4 1_555 1_555
H6 C8 1_555 1_555
H7 C8 1_555 1_555
H8 C8 1_555 1_555
C9 C6 1_555 1_555
H9 C9 1_555 1_555
H10 C9 1_555 1_555
H11 C9 1_555 1_555
C10 Tl1 1_555 1_555
C11 C10 1_555 1_555
C12 C11 1_555 1_555
H12 C12 1_555 1_555
C13 C12 1_555 1_555
C14 C13 1_555 1_555
H13 C14 1_555 1_555
C15 C10 1_555 1_555
C16 C11 1_555 1_555
H14 C16 1_555 1_555
H15 C16 1_555 1_555
H16 C16 1_555 1_555
C17 C13 1_555 1_555
H17 C17 1_555 1_555
H18 C17 1_555 1_555
H19 C17 1_555 1_555
C18 C15 1_555 1_555
H20 C18 1_555 1_555
H21 C18 1_555 1_555
H22 C18 1_555 1_555
C19 Tl2 1_555 1_555
C20 C19 1_555 1_555
C21 C20 1_555 1_555
H23 C21 1_555 1_555
C22 C21 1_555 1_555
C23 C22 1_555 1_555
H24 C23 1_555 1_555
C24 C19 1_555 1_555
C25 C20 1_555 1_555
H25 C25 1_555 1_555
H26 C25 1_555 1_555
H27 C25 1_555 1_555
C26 C22 1_555 1_555
H28 C26 1_555 1_555
H29 C26 1_555 1_555
H30 C26 1_555 1_555
C27 C24 1_555 1_555
H31 C27 1_555 1_555
H32 C27 1_555 1_555
H33 C27 1_555 1_555
Tl2A Cl2 1_555 1_555
Cl2A Tl2 1_555 1_555
Cl3A Tl2 1_555 1_555
Cl3 Tl2A 1_555 1_555
C5 C6 1_555 1_555
C14 C15 1_555 1_555
C23 C24 1_555 1_555

#END
