
#######################################################################
#
#                 Cambridge Crystallographic Data Centre
#                                CCDC 
#
#######################################################################
#
# If this CIF has been generated from an entry in the Cambridge 
# Structural Database, then it will include bibliographic, chemical, 
# crystal, experimental, refinement or atomic coordinate data resulting 
# from the CCDC's data processing and validation procedures.
#
#######################################################################

data_SANWEK
_symmetry_cell_setting           monoclinic
_symmetry_space_group_name_H-M   'P 21/n'
_symmetry_Int_Tables_number      14
_space_group_name_Hall           '-P 2yn'
loop_
_symmetry_equiv_pos_site_id
_symmetry_equiv_pos_as_xyz
1 x,y,z
2 1/2-x,1/2+y,1/2-z
3 -x,-y,-z
4 1/2+x,1/2-y,1/2+z
_cell_length_a                   14.433(2)
_cell_length_b                   7.6395(8)
_cell_length_c                   18.089(2)
_cell_angle_alpha                90
_cell_angle_beta                 111.527(2)
_cell_angle_gamma                90
_cell_volume                     1855.38
loop_
_atom_site_label
_atom_site_type_symbol
_atom_site_fract_x
_atom_site_fract_y
_atom_site_fract_z
Zn1 Zn 0.912085(15) 0.93035(3) 0.179958(11)
S1 S 0.80091(3) 0.52705(5) 0.14871(2)
N1 N 0.84039(13) 0.9420(2) 0.05358(10)
N2 N 1.01229(12) 0.7964(2) 0.13913(10)
O1 O 0.84301(9) 0.68431(16) 0.19418(7)
O2 O 0.86303(10) 0.44769(18) 0.11046(8)
O3 O 0.77445(10) 0.40242(16) 0.19930(8)
O4 O 0.59967(12) 0.4002(2) -0.15981(9)
O5 O 0.48552(11) 0.6100(2) -0.20156(8)
O6 O 0.43916(11) 0.7963(2) -0.10180(9)
H1 H 0.4355(19) 0.749(3) -0.1451(9)
O7 O 0.79398(12) 1.05137(18) 0.19383(10)
H2 H 0.7673(19) 1.004(3) 0.2235(14)
H3 H 0.7886(18) 1.1613(14) 0.1951(16)
O8 O 0.99415(10) 1.17231(19) 0.18507(8)
H4 H 0.9569(16) 1.260(2) 0.1719(15)
H5 H 1.0280(16) 1.178(4) 0.2345(6)
C1 C 0.68949(12) 0.5948(2) 0.07296(10)
C2 C 0.66264(13) 0.5307(2) -0.00330(10)
H6 H 0.7010 0.4439 -0.0141
C3 C 0.57834(13) 0.5946(2) -0.06472(10)
C4 C 0.52016(13) 0.7221(2) -0.04668(11)
C5 C 0.54516(13) 0.7790(3) 0.03179(11)
H7 H 0.5044 0.8589 0.0441
C6 C 0.62972(13) 0.7175(2) 0.09104(10)
H8 H 0.6468 0.7578 0.1429
C7 C 0.55406(14) 0.5264(3) -0.14733(11)
C8 C 0.75220(17) 1.0199(3) 0.01470(13)
H9 H 0.7179 1.0700 0.0440
C9 C 0.7110(2) 1.0277(4) -0.06734(15)
H10 H 0.6498 1.0817 -0.0931
C10 C 0.7626(2) 0.9539(4) -0.10962(15)
H11 H 0.7368 0.9585 -0.1648
C11 C 0.8523(2) 0.8733(4) -0.07078(13)
H12 H 0.8874 0.8226 -0.0993
C12 C 0.88993(16) 0.8685(3) 0.01207(11)
C13 C 0.98590(16) 0.7851(3) 0.05979(12)
C14 C 1.0458(2) 0.6982(3) 0.02646(17)
H13 H 1.0273 0.6920 -0.0284
C15 C 1.1324(2) 0.6219(4) 0.0756(2)
H14 H 1.1729 0.5623 0.0542
C16 C 1.1590(2) 0.6337(5) 0.1559(2)
H15 H 1.2176 0.5823 0.1898
C17 C 1.09729(18) 0.7235(4) 0.18636(16)
H16 H 1.1158 0.7332 0.2412
Zn1C Zn 0.412085(15) 0.56965(3) -0.320042(11)
O5C O 0.98552(11) 0.8900(2) 0.29844(8)
loop_
_geom_bond_atom_site_label_1
_geom_bond_atom_site_label_2
_geom_bond_site_symmetry_1
_geom_bond_site_symmetry_2
Zn1 N1 1_555 1_555
S1 O1 1_555 1_555
N1 C8 1_555 1_555
N2 Zn1 1_555 1_555
O1 Zn1 1_555 1_555
O2 S1 1_555 1_555
O3 S1 1_555 1_555
O4 C7 1_555 1_555
O5 C7 1_555 1_555
O6 H1 1_555 1_555
O7 Zn1 1_555 1_555
H2 O7 1_555 1_555
H3 O7 1_555 1_555
O8 Zn1 1_555 1_555
H4 O8 1_555 1_555
H5 O8 1_555 1_555
C1 S1 1_555 1_555
C2 C1 1_555 1_555
H6 C2 1_555 1_555
C3 C2 1_555 1_555
C4 O6 1_555 1_555
C5 C4 1_555 1_555
H7 C5 1_555 1_555
C6 C1 1_555 1_555
H8 C6 1_555 1_555
C7 C3 1_555 1_555
C8 H9 1_555 1_555
C9 C8 1_555 1_555
H10 C9 1_555 1_555
C10 C9 1_555 1_555
H11 C10 1_555 1_555
C11 C10 1_555 1_555
H12 C11 1_555 1_555
C12 N1 1_555 1_555
C13 N2 1_555 1_555
C14 C13 1_555 1_555
H13 C14 1_555 1_555
C15 C14 1_555 1_555
H14 C15 1_555 1_555
C16 C15 1_555 1_555
H15 C16 1_555 1_555
C17 N2 1_555 1_555
H16 C17 1_555 1_555
Zn1C O5 1_555 1_555
O5C Zn1 1_555 1_555
C3 C4 1_555 1_555
C5 C6 1_555 1_555
C11 C12 1_555 1_555
C12 C13 1_555 1_555
C16 C17 1_555 1_555

#END
