
#######################################################################
#
#                 Cambridge Crystallographic Data Centre
#                                CCDC 
#
#######################################################################
#
# If this CIF has been generated from an entry in the Cambridge 
# Structural Database, then it will include bibliographic, chemical, 
# crystal, experimental, refinement or atomic coordinate data resulting 
# from the CCDC's data processing and validation procedures.
#
#######################################################################

data_SAPBOB
_symmetry_cell_setting           orthorhombic
_symmetry_space_group_name_H-M   'P 21 21 21'
_symmetry_Int_Tables_number      19
_space_group_name_Hall           'P 2ac 2ab'
loop_
_symmetry_equiv_pos_site_id
_symmetry_equiv_pos_as_xyz
1 x,y,z
2 1/2-x,-y,1/2+z
3 -x,1/2+y,1/2-z
4 1/2+x,1/2-y,-z
_cell_length_a                   6.9836(14)
_cell_length_b                   15.597(3)
_cell_length_c                   17.506(4)
_cell_angle_alpha                90
_cell_angle_beta                 90
_cell_angle_gamma                90
_cell_volume                     1906.81
loop_
_atom_site_label
_atom_site_type_symbol
_atom_site_fract_x
_atom_site_fract_y
_atom_site_fract_z
Cu1 Cu 0.92487(7) 0.37035(3) 0.65767(3)
N1 N 0.9691(5) 0.3592(2) 0.54454(17)
N2 N 0.9647(5) 0.24231(19) 0.6495(2)
O1 O 0.8420(4) 0.49070(16) 0.65260(18)
O2 O 0.5548(5) 0.45832(19) 0.60405(18)
O3 O 0.4064(4) 0.61112(18) 0.64953(17)
O4 O -0.3511(4) 0.6359(2) 0.26580(16)
O5 O -0.0648(5) 0.6823(2) 0.22836(17)
O6 O 0.0760(5) 0.6695(2) 0.36762(16)
O7 O 1.2237(4) 0.4076(2) 0.6905(2)
C1 C 0.6703(7) 0.5065(3) 0.6358(2)
C2 C 0.6058(6) 0.5969(2) 0.6588(3)
C3 C 0.3345(6) 0.6243(3) 0.5773(2)
C4 C 0.1401(6) 0.6374(3) 0.5742(2)
C5 C 0.4383(7) 0.6284(3) 0.5104(2)
C6 C -0.1792(7) 0.6587(3) 0.2773(2)
C7 C -0.1241(5) 0.6571(3) 0.3604(2)
C8 C 0.1537(7) 0.6561(3) 0.4385(3)
C9 C 0.0503(7) 0.6525(3) 0.5062(2)
C10 C 0.3487(6) 0.6451(3) 0.4418(3)
C11 C 0.9772(7) 0.4236(3) 0.4950(3)
C12 C 0.9957(7) 0.4111(3) 0.4177(3)
C13 C 1.0024(6) 0.3283(3) 0.3903(3)
C14 C 0.9962(6) 0.2610(3) 0.4408(3)
C15 C 0.9814(5) 0.2778(3) 0.5179(2)
C16 C 0.9800(6) 0.2118(3) 0.5782(2)
C17 C 0.9964(6) 0.1241(3) 0.5640(3)
C18 C 0.9969(8) 0.0688(3) 0.6251(3)
C19 C 0.9802(8) 0.1001(3) 0.6982(3)
C20 C 0.9660(8) 0.1869(3) 0.7079(3)
H1 H 1.292(6) 0.374(3) 0.716(3)
H2 H 1.291(6) 0.433(3) 0.658(3)
H3 H 0.6394 0.6065 0.7119
H4 H 0.6753 0.6384 0.6283
H5 H 0.0687 0.6361 0.6190
H6 H 0.5700 0.6198 0.5116
H7 H -0.1918 0.7021 0.3876
H8 H -0.1598 0.6025 0.3827
H9 H -0.0816 0.6605 0.5052
H10 H 0.4210 0.6490 0.3973
H11 H 0.9701 0.4795 0.5134
H12 H 1.0034 0.4575 0.3845
H13 H 1.0112 0.3181 0.3381
H14 H 1.0018 0.2048 0.4233
H15 H 1.0067 0.1036 0.5143
H16 H 1.0085 0.0101 0.6169
H17 H 0.9785 0.0632 0.7400
H18 H 0.9570 0.2084 0.7573
Cu1A Cu -0.42487(7) 0.62965(3) 0.15767(3)
O4A O 0.8511(4) 0.3641(2) 0.76580(16)
loop_
_geom_bond_atom_site_label_1
_geom_bond_atom_site_label_2
_geom_bond_site_symmetry_1
_geom_bond_site_symmetry_2
Cu1 N1 1_555 1_555
N1 C11 1_555 1_555
N2 Cu1 1_555 1_555
O1 Cu1 1_555 1_555
O2 C1 1_555 1_555
O3 C2 1_555 1_555
O4 C6 1_555 1_555
O5 C6 1_555 1_555
O6 C7 1_555 1_555
O7 Cu1 1_555 1_555
C1 O1 1_555 1_555
C2 C1 1_555 1_555
C3 O3 1_555 1_555
C4 C3 1_555 1_555
C5 C3 1_555 1_555
C6 C7 1_555 1_555
C7 H7 1_555 1_555
C8 O6 1_555 1_555
C9 C4 1_555 1_555
C10 C5 1_555 1_555
C11 C12 1_555 1_555
C12 C13 1_555 1_555
C13 C14 1_555 1_555
C14 C15 1_555 1_555
C15 N1 1_555 1_555
C16 N2 1_555 1_555
C17 C16 1_555 1_555
C18 C17 1_555 1_555
C19 C18 1_555 1_555
C20 N2 1_555 1_555
H1 O7 1_555 1_555
H2 O7 1_555 1_555
H3 C2 1_555 1_555
H4 C2 1_555 1_555
H5 C4 1_555 1_555
H6 C5 1_555 1_555
H8 C7 1_555 1_555
H9 C9 1_555 1_555
H10 C10 1_555 1_555
H11 C11 1_555 1_555
H12 C12 1_555 1_555
H13 C13 1_555 1_555
H14 C14 1_555 1_555
H15 C17 1_555 1_555
H16 C18 1_555 1_555
H17 C19 1_555 1_555
H18 C20 1_555 1_555
Cu1A O4 1_555 1_555
O4A Cu1 1_555 1_555
C8 C9 1_555 1_555
C8 C10 1_555 1_555
C15 C16 1_555 1_555
C19 C20 1_555 1_555

#END
