
#######################################################################
#
#                 Cambridge Crystallographic Data Centre
#                                CCDC 
#
#######################################################################
#
# If this CIF has been generated from an entry in the Cambridge 
# Structural Database, then it will include bibliographic, chemical, 
# crystal, experimental, refinement or atomic coordinate data resulting 
# from the CCDC's data processing and validation procedures.
#
#######################################################################

data_SAPVUB
_symmetry_cell_setting           orthorhombic
_symmetry_space_group_name_H-M   'P c a 21'
_symmetry_Int_Tables_number      29
_space_group_name_Hall           'P 2c -2ac'
loop_
_symmetry_equiv_pos_site_id
_symmetry_equiv_pos_as_xyz
1 x,y,z
2 1/2-x,y,1/2+z
3 1/2+x,-y,z
4 -x,-y,1/2+z
_cell_length_a                   9.82610(10)
_cell_length_b                   5.83930(10)
_cell_length_c                   35.2520(4)
_cell_angle_alpha                90
_cell_angle_beta                 90
_cell_angle_gamma                90
_cell_volume                     2022.67
loop_
_atom_site_label
_atom_site_type_symbol
_atom_site_fract_x
_atom_site_fract_y
_atom_site_fract_z
Mn1 Mn 0.90178(19) 0.49337(17) 0.06871(4)
Mn2 Mn 0.65115(17) 1.00056(17) 0.05564(3)
P1 P 0.6230(3) 0.4968(3) 0.01418(9)
P2 P 0.8734(4) 0.9901(3) 0.10998(10)
C1 C 0.8290(9) 1.0306(13) 0.1593(3)
C2 C 0.5796(11) 0.5482(19) -0.0354(3)
C3 C 0.8872(9) 0.8817(16) 0.1886(3)
C4 C 1.0035(11) 0.9545(18) 0.2087(3)
C5 C 0.8677(15) 0.5249(18) 0.2253(5)
C6 C 0.8245(9) 0.6718(16) 0.1965(3)
C7 C 1.0556(10) 0.8103(16) 0.2372(3)
C8 C 0.9890(10) 0.5937(17) 0.2457(3)
C9 C 0.6371(9) 0.3874(16) -0.0637(3)
C10 C 0.6294(10) 0.0270(14) -0.1006(3)
C11 C 0.7525(12) 0.4568(19) -0.0848(3)
C12 C 0.7411(10) 0.1054(17) -0.1208(3)
C13 C 0.5727(10) 0.1804(18) -0.0723(3)
C14 C 0.8057(10) 0.3096(16) -0.1129(3)
C15 C 1.0443(12) 0.4576(19) 0.2762(3)
C16 C 0.7986(13) -0.0375(19) -0.1515(4)
O1 O 0.7733(9) 0.4819(10) 0.0185(3)
O2 O 0.8000(6) 0.7741(9) 0.09560(16)
O3 O 0.8066(6) 1.1955(10) 0.08987(18)
O4 O 0.5495(7) 0.2856(11) 0.03030(18)
O5 O 1.0275(7) 0.9801(8) 0.1049(2)
O6 O 1.1420(9) 0.4981(10) 0.2930(3)
O7 O 0.9759(8) 0.2749(15) 0.2855(3)
O8 O 0.7247(8) -0.2228(13) -0.1601(3)
O9 O 0.9180(8) 0.0020(9) -0.1658(3)
O10 O 1.0609(9) 0.4956(8) 0.1157(3)
O11 O 0.7996(8) 0.9906(8) 0.0079(3)
O12 O 0.5569(6) 0.6991(10) 0.03621(18)
Mn1_2 Mn 0.90178(19) 1.49337(17) 0.06871(4)
Mn1B Mn 0.40178(19) 0.50663(17) 0.06871(4)
Mn2_2 Mn 0.65115(17) 0.00056(17) 0.05564(3)
Mn2B Mn 1.15115(17) 0.99944(17) 0.05564(3)
O3_2 O 0.8066(6) 0.1955(10) 0.08987(18)
O4B O 1.0495(7) 0.7144(11) 0.03030(18)
O4_2 O 0.5495(7) 1.2856(11) 0.03030(18)
O5B O 0.5275(7) 1.0199(8) 0.1049(2)
O12B O 1.0569(6) 0.3009(10) 0.03621(18)
loop_
_geom_bond_atom_site_label_1
_geom_bond_atom_site_label_2
_geom_bond_site_symmetry_1
_geom_bond_site_symmetry_2
Mn1 O1 1_555 1_555
Mn2 O2 1_555 1_555
P1 C2 1_555 1_555
P2 C1 1_555 1_555
C1 C3 1_555 1_555
C2 C9 1_555 1_555
C3 C4 1_555 1_555
C4 C7 1_555 1_555
C5 C6 1_555 1_555
C6 C3 1_555 1_555
C7 C8 1_555 1_555
C8 C5 1_555 1_555
C9 C11 1_555 1_555
C10 C12 1_555 1_555
C11 C14 1_555 1_555
C12 C14 1_555 1_555
C13 C9 1_555 1_555
C15 C8 1_555 1_555
C16 C12 1_555 1_555
O1 P1 1_555 1_555
O2 Mn1 1_555 1_555
O3 Mn2 1_555 1_555
O4 P1 1_555 1_555
O5 P2 1_555 1_555
O6 C15 1_555 1_555
O7 C15 1_555 1_555
O8 C16 1_555 1_555
O9 C16 1_555 1_555
O10 Mn1 1_555 1_555
O11 Mn2 1_555 1_555
O12 Mn2 1_555 1_555
Mn1_2 O3 1_555 1_555
Mn1B O4 1_555 1_555
Mn2_2 O4 1_555 1_555
Mn2B O5 1_555 1_555
O3_2 Mn1 1_555 1_555
O4B Mn1 1_555 1_555
O4_2 Mn2 1_555 1_555
O5B Mn2 1_555 1_555
O12B Mn1 1_555 1_555
P1 O12 1_555 1_555
P2 O2 1_555 1_555
P2 O3 1_555 1_555
C10 C13 1_555 1_555
O12 Mn1B 1_555 1_555
Mn2_2 O3_2 1_555 1_555
Mn2B O4B 1_555 1_555

#END
