
#######################################################################
#
#                 Cambridge Crystallographic Data Centre
#                                CCDC 
#
#######################################################################
#
# If this CIF has been generated from an entry in the Cambridge 
# Structural Database, then it will include bibliographic, chemical, 
# crystal, experimental, refinement or atomic coordinate data resulting 
# from the CCDC's data processing and validation procedures.
#
#######################################################################

data_SAPWAI
_symmetry_cell_setting           orthorhombic
_symmetry_space_group_name_H-M   'P c a 21'
_symmetry_Int_Tables_number      29
_space_group_name_Hall           'P 2c -2ac'
loop_
_symmetry_equiv_pos_site_id
_symmetry_equiv_pos_as_xyz
1 x,y,z
2 1/2-x,y,1/2+z
3 1/2+x,-y,z
4 -x,-y,1/2+z
_cell_length_a                   10.0229(2)
_cell_length_b                   5.95800(10)
_cell_length_c                   34.9009(6)
_cell_angle_alpha                90
_cell_angle_beta                 90
_cell_angle_gamma                90
_cell_volume                     2084.16
loop_
_atom_site_label
_atom_site_type_symbol
_atom_site_fract_x
_atom_site_fract_y
_atom_site_fract_z
Cd1 Cd 0.88792(12) 0.49513(7) 0.070044(15)
Cd2 Cd 0.63812(12) 1.00090(7) 0.054611(16)
P1 P 0.6074(4) 0.4924(3) 0.01183(16)
P2 P 0.8592(4) 0.9839(3) 0.11280(18)
C1 C 0.8195(10) 1.0423(14) 0.1627(3)
C2 C 0.5674(9) 0.5439(15) -0.0372(3)
C3 C 0.8783(8) 0.8789(13) 0.1914(3)
C4 C 0.9920(10) 0.9405(16) 0.2112(3)
C5 C 0.8715(12) 0.5302(16) 0.2270(5)
C6 C 0.8163(8) 0.6734(13) 0.1992(3)
C7 C 1.0497(10) 0.7974(14) 0.2393(3)
C8 C 0.9851(9) 0.5933(15) 0.2468(3)
C9 C 0.6280(8) 0.3939(14) -0.0670(3)
C10 C 0.6208(11) 0.0367(16) -0.1026(4)
C11 C 0.7437(10) 0.4568(14) -0.0863(3)
C12 C 0.7334(8) 0.1070(13) -0.1228(3)
C13 C 0.5641(9) 0.1831(14) -0.0753(3)
C14 C 0.7975(9) 0.3039(13) -0.1146(3)
C15 C 1.0454(12) 0.4474(19) 0.2772(4)
C16 C 0.7929(10) -0.0370(14) -0.1530(3)
O1 O 0.7561(7) 0.4681(9) 0.0172(2)
O2 O 0.7828(6) 0.7717(8) 0.0993(2)
O3 O 0.7951(6) 1.1826(9) 0.0906(2)
O4 O 0.5312(6) 0.2829(9) 0.0258(2)
O5 O 1.0082(7) 0.9637(9) 0.1074(2)
O6 O 1.1607(11) 0.4947(8) 0.2900(4)
O7 O 0.9717(7) 0.2751(11) 0.2862(3)
O8 O 0.7216(7) -0.2219(11) -0.1617(3)
O9 O 0.8931(10) 0.0009(8) -0.1700(4)
O10 O 1.0506(10) 0.4922(7) 0.1192(3)
O11 O 0.7958(11) 0.9852(8) 0.0052(3)
O12 O 0.5447(6) 0.6900(9) 0.0336(2)
Cd1_2 Cd 0.88792(12) 1.49513(7) 0.070044(15)
Cd1B Cd 0.38792(12) 0.50487(7) 0.070044(15)
Cd2_2 Cd 0.63812(12) 0.00090(7) 0.054611(16)
Cd2B Cd 1.13812(12) 0.99910(7) 0.054611(16)
O3_2 O 0.7951(6) 0.1826(9) 0.0906(2)
O4B O 1.0312(6) 0.7171(9) 0.0258(2)
O4_2 O 0.5312(6) 1.2829(9) 0.0258(2)
O5B O 0.5082(7) 1.0363(9) 0.1074(2)
O12B O 1.0447(6) 0.3100(9) 0.0336(2)
loop_
_geom_bond_atom_site_label_1
_geom_bond_atom_site_label_2
_geom_bond_site_symmetry_1
_geom_bond_site_symmetry_2
Cd1 O1 1_555 1_555
Cd2 O2 1_555 1_555
P1 C2 1_555 1_555
P2 C1 1_555 1_555
C1 C3 1_555 1_555
C2 C9 1_555 1_555
C3 C4 1_555 1_555
C4 C7 1_555 1_555
C5 C6 1_555 1_555
C6 C3 1_555 1_555
C7 C8 1_555 1_555
C8 C5 1_555 1_555
C9 C11 1_555 1_555
C10 C12 1_555 1_555
C11 C14 1_555 1_555
C12 C14 1_555 1_555
C13 C9 1_555 1_555
C15 C8 1_555 1_555
C16 C12 1_555 1_555
O1 P1 1_555 1_555
O2 Cd1 1_555 1_555
O3 Cd2 1_555 1_555
O4 P1 1_555 1_555
O5 P2 1_555 1_555
O6 C15 1_555 1_555
O7 C15 1_555 1_555
O8 C16 1_555 1_555
O9 C16 1_555 1_555
O10 Cd1 1_555 1_555
O11 Cd2 1_555 1_555
O12 Cd2 1_555 1_555
Cd1_2 O3 1_555 1_555
Cd1B O4 1_555 1_555
Cd2_2 O4 1_555 1_555
Cd2B O5 1_555 1_555
O3_2 Cd1 1_555 1_555
O4B Cd1 1_555 1_555
O4_2 Cd2 1_555 1_555
O5B Cd2 1_555 1_555
O12B Cd1 1_555 1_555
P1 O12 1_555 1_555
P2 O2 1_555 1_555
P2 O3 1_555 1_555
C10 C13 1_555 1_555
O12 Cd1B 1_555 1_555
Cd2_2 O3_2 1_555 1_555
Cd2B O4B 1_555 1_555

#END
