
#######################################################################
#
#                 Cambridge Crystallographic Data Centre
#                                CCDC 
#
#######################################################################
#
# If this CIF has been generated from an entry in the Cambridge 
# Structural Database, then it will include bibliographic, chemical, 
# crystal, experimental, refinement or atomic coordinate data resulting 
# from the CCDC's data processing and validation procedures.
#
#######################################################################

data_SAQFOG
_symmetry_cell_setting           orthorhombic
_symmetry_space_group_name_H-M   'F d d 2'
_symmetry_Int_Tables_number      43
_space_group_name_Hall           'F 2 -2d'
loop_
_symmetry_equiv_pos_site_id
_symmetry_equiv_pos_as_xyz
1 x,y,z
2 -x,-y,z
3 1/4+x,1/4-y,1/4+z
4 1/4-x,1/4+y,1/4+z
5 x,1/2+y,1/2+z
6 -x,1/2-y,1/2+z
7 1/4+x,3/4-y,3/4+z
8 1/4-x,3/4+y,3/4+z
9 1/2+x,y,1/2+z
10 1/2-x,-y,1/2+z
11 3/4+x,1/4-y,3/4+z
12 3/4-x,1/4+y,3/4+z
13 1/2+x,1/2+y,z
14 1/2-x,1/2-y,z
15 3/4+x,3/4-y,1/4+z
16 3/4-x,3/4+y,1/4+z
_cell_length_a                   61.594(9)
_cell_length_b                   15.968(2)
_cell_length_c                   16.590(2)
_cell_angle_alpha                90
_cell_angle_beta                 90
_cell_angle_gamma                90
_cell_volume                     16316.8
loop_
_atom_site_label
_atom_site_type_symbol
_atom_site_fract_x
_atom_site_fract_y
_atom_site_fract_z
Zn1 Zn 0.000840(18) 0.26952(5) 0.04953(7)
N1 N -0.01777(10) 0.2879(4) 0.1469(4)
N2 N 0.01922(10) 0.1703(4) 0.0764(4)
C1 C 0.08771(15) 0.0230(6) 0.3005(7)
H1 H 0.0980 0.0388 0.2624
C2 C -0.07296(12) 0.2986(4) 0.4689(4)
N3 N -0.05857(10) 0.2746(3) 0.4105(4)
H2 H -0.0519 0.2274 0.4089
C3 C -0.04299(11) 0.3224(4) 0.2839(4)
C4 C 0.03364(14) 0.1693(5) 0.1387(5)
H3 H 0.0356 0.2183 0.1680
C5 C 0.04379(12) 0.0256(4) 0.1165(5)
C6 C 0.05672(13) -0.0479(4) 0.1333(4)
C7 C -0.07969(11) 0.3796(4) 0.4531(4)
C8 C -0.05656(12) 0.3377(4) 0.3549(4)
C9 C -0.06917(11) 0.4033(4) 0.3771(4)
C10 C -0.08058(15) 0.2501(5) 0.5354(6)
H4 H -0.0756 0.1961 0.5453
C11 C -0.07042(13) 0.4893(5) 0.3414(4)
C12 C 0.04548(13) 0.0995(5) 0.1607(4)
H5 H 0.0546 0.1018 0.2053
N4 N 0.05860(10) -0.1099(4) 0.0746(4)
H6 H 0.0519 -0.1100 0.0292
C13 C 0.07950(12) -0.1492(4) 0.1777(4)
C14 C -0.03294(14) 0.3466(5) 0.1461(5)
H7 H -0.0352 0.3761 0.0985
C15 C 0.01788(13) 0.0979(5) 0.0344(5)
H8 H 0.0089 0.0963 -0.0107
C16 C -0.01593(14) 0.2443(5) 0.2163(5)
H9 H -0.0061 0.2003 0.2181
C17 C -0.08594(13) 0.5148(5) 0.2892(6)
H10 H -0.0966 0.4773 0.2731
C18 C 0.12363(15) -0.3191(5) 0.2872(7)
H11 H 0.1337 -0.3556 0.3100
C19 C -0.10162(12) 0.5022(4) 0.4989(4)
H12 H -0.0965 0.5348 0.4565
C20 C 0.08039(17) -0.2408(5) 0.0581(7)
H13 H 0.0750 -0.2539 0.0073
C21 C 0.10252(15) -0.2734(5) 0.1720(6)
C22 C -0.10278(12) 0.3700(5) 0.5710(4)
C23 C 0.02900(12) 0.0275(4) 0.0548(5)
H14 H 0.0265 -0.0213 0.0257
C24 C 0.07246(14) -0.1696(5) 0.0994(5)
C25 C 0.07119(12) -0.0300(4) 0.2789(4)
C26 C -0.09525(15) 0.2874(5) 0.5824(5)
H15 H -0.1009 0.2569 0.6254
C27 C -0.11580(14) 0.5373(5) 0.5534(5)
H16 H -0.1197 0.5933 0.5486
C28 C -0.09474(11) 0.4203(4) 0.5048(4)
C29 C 0.11518(14) -0.2554(5) 0.3323(6)
H17 H 0.1187 -0.2514 0.3866
C30 C -0.11814(13) 0.4087(6) 0.6232(5)
H18 H -0.1243 0.3770 0.6643
C31 C 0.06978(12) -0.0717(4) 0.1971(4)
C32 C 0.10157(13) -0.1974(4) 0.2989(5)
H19 H 0.0969 -0.1521 0.3294
C33 C -0.04577(13) 0.3670(5) 0.2124(5)
H20 H -0.0560 0.4096 0.2090
C34 C -0.05475(13) 0.5482(4) 0.3638(4)
H21 H -0.0438 0.5315 0.3988
C35 C 0.05615(13) -0.0516(4) 0.3351(5)
H22 H 0.0446 -0.0859 0.3206
C36 C -0.02762(13) 0.2613(5) 0.2832(5)
H23 H -0.0251 0.2305 0.3298
C37 C -0.12412(14) 0.4894(6) 0.6152(5)
H24 H -0.1339 0.5129 0.6515
C38 C 0.09452(12) -0.2060(4) 0.2171(5)
C39 C -0.08614(14) 0.5968(5) 0.2591(5)
H25 H -0.0966 0.6124 0.2215
C40 C 0.11743(15) -0.3293(5) 0.2094(7)
H26 H 0.1230 -0.3739 0.1799
C41 C 0.08925(16) 0.0532(6) 0.3778(6)
H27 H 0.1008 0.0877 0.3919
C42 C 0.09537(17) -0.2888(5) 0.0912(5)
H28 H 0.1013 -0.3329 0.0619
C43 C -0.05469(12) 0.6297(4) 0.3366(4)
C44 C -0.03931(12) 0.6904(4) 0.3716(4)
C45 C -0.07106(14) 0.6542(4) 0.2844(5)
H29 H -0.0718 0.7094 0.2666
N5 N -0.03402(13) 0.7640(4) 0.3389(4)
N6 N -0.02907(11) 0.6783(4) 0.4411(4)
N7 N -0.01978(12) 0.7986(4) 0.3910(5)
N8 N -0.01757(11) 0.7475(4) 0.4515(4)
C46 C 0.05778(13) -0.0228(4) 0.4143(5)
C47 C 0.04230(14) -0.0555(5) 0.4759(5)
C48 C 0.07393(15) 0.0328(5) 0.4343(5)
H30 H 0.0744 0.0563 0.4855
N9 N 0.03129(11) -0.1256(4) 0.4659(4)
N10 N 0.03931(15) -0.0223(4) 0.5482(5)
N11 N 0.02025(11) -0.1341(4) 0.5326(4)
N12 N 0.02440(15) -0.0730(5) 0.5816(5)
Zn1D Zn 0.000840(18) -0.23048(5) -0.45047(7)
Zn1D_2 Zn 0.000840(18) 0.76952(5) 0.54953(7)
Zn1D_3 Zn 0.000840(18) -0.23048(5) 0.54953(7)
Zn1D_4 Zn 0.000840(18) 0.76952(5) -0.45047(7)
N1D N -0.01777(10) -0.2121(4) -0.3531(4)
N2D N 0.01922(10) 0.6703(4) -0.4236(4)
N2D_2 N 0.01922(10) -0.3297(4) -0.4236(4)
C1D C 0.08771(15) 0.5230(6) -0.1995(7)
H1D H 0.0980 0.5388 -0.2376
C2D C -0.07296(12) -0.2014(4) -0.0311(4)
N3D N -0.05857(10) -0.2254(3) -0.0895(4)
H2D H -0.0519 -0.2726 -0.0911
C3D C -0.04299(11) -0.1776(4) -0.2161(4)
C4D C 0.03364(14) 0.6693(5) -0.3613(5)
H3D H 0.0356 0.7183 -0.3320
C5D C 0.04379(12) 0.5256(4) -0.3835(5)
C6D C 0.05672(13) 0.4521(4) -0.3667(4)
C7D C -0.07969(11) -0.1204(4) -0.0469(4)
C8D C -0.05656(12) -0.1623(4) -0.1451(4)
C9D C -0.06917(11) -0.0967(4) -0.1229(4)
C10D C -0.08058(15) -0.2499(5) 0.0354(6)
H4D H -0.0756 -0.3039 0.0453
C11D C -0.07042(13) -0.0107(5) -0.1586(4)
C12D C 0.04548(13) 0.5995(5) -0.3393(4)
H5D H 0.0546 0.6018 -0.2947
N4D N 0.05860(10) 0.3901(4) -0.4254(4)
H6D H 0.0519 0.3900 -0.4708
C13D C 0.07950(12) 0.3508(4) -0.3223(4)
C14D C -0.03294(14) -0.1534(5) -0.3539(5)
H7D H -0.0352 -0.1239 -0.4015
C15D C 0.01788(13) 0.5979(5) -0.4656(5)
H8D H 0.0089 0.5963 -0.5107
C16D C -0.01593(14) -0.2557(5) -0.2837(5)
H9D H -0.0061 -0.2997 -0.2819
C17D C -0.08594(13) 0.0148(5) -0.2108(6)
H10D H -0.0966 -0.0227 -0.2269
C18D C 0.12363(15) 0.1809(5) -0.2128(7)
H11D H 0.1337 0.1444 -0.1900
C19D C -0.10162(12) 0.0022(4) -0.0011(4)
H12D H -0.0965 0.0348 -0.0435
C20D C 0.08039(17) 0.2592(5) -0.4419(7)
H13D H 0.0750 0.2461 -0.4927
C21D C 0.10252(15) 0.2266(5) -0.3280(6)
C22D C -0.10278(12) -0.1300(5) 0.0710(4)
C23D C 0.02900(12) 0.5275(4) -0.4452(5)
H14D H 0.0265 0.4787 -0.4743
C24D C 0.07246(14) 0.3304(5) -0.4006(5)
C25D C 0.07119(12) 0.4700(4) -0.2211(4)
C26D C -0.09525(15) -0.2126(5) 0.0824(5)
H15D H -0.1009 -0.2431 0.1254
C27D C -0.11580(14) 0.0373(5) 0.0534(5)
H16D H -0.1197 0.0933 0.0486
C28D C -0.09474(11) -0.0797(4) 0.0048(4)
C29D C 0.11518(14) 0.2446(5) -0.1677(6)
H17D H 0.1187 0.2486 -0.1134
C30D C -0.11814(13) -0.0913(6) 0.1232(5)
H18D H -0.1243 -0.1230 0.1643
C31D C 0.06978(12) 0.4283(4) -0.3029(4)
C32D C 0.10157(13) 0.3026(4) -0.2011(5)
H19D H 0.0969 0.3479 -0.1706
C33D C -0.04577(13) -0.1330(5) -0.2876(5)
H20D H -0.0560 -0.0904 -0.2910
C34D C -0.05475(13) 0.0482(4) -0.1362(4)
H21D H -0.0438 0.0315 -0.1012
C35D C 0.05615(13) 0.4484(4) -0.1649(5)
H22D H 0.0446 0.4141 -0.1794
C36D C -0.02762(13) -0.2387(5) -0.2168(5)
H23D H -0.0251 -0.2695 -0.1702
C37D C -0.12412(14) -0.0106(6) 0.1152(5)
H24D H -0.1339 0.0129 0.1515
C38D C 0.09452(12) 0.2940(4) -0.2829(5)
C39D C -0.08614(14) 0.0968(5) -0.2409(5)
H25D H -0.0966 0.1124 -0.2785
C40D C 0.11743(15) 0.1707(5) -0.2906(7)
H26D H 0.1230 0.1261 -0.3201
C41D C 0.08925(16) 0.5532(6) -0.1222(6)
H27D H 0.1008 0.5877 -0.1081
C42D C 0.09537(17) 0.2112(5) -0.4088(5)
H28D H 0.1013 0.1671 -0.4381
C43D C -0.05469(12) 0.1297(4) -0.1634(4)
C44D C -0.03931(12) 0.1904(4) -0.1284(4)
C45D C -0.07106(14) 0.1542(4) -0.2156(5)
H29D H -0.0718 0.2094 -0.2334
N5D N -0.03402(13) 0.2640(4) -0.1611(4)
N6D N -0.02907(11) 0.1783(4) -0.0589(4)
N7D N -0.01978(12) 0.2986(4) -0.1090(5)
N8D N -0.01757(11) 0.2475(4) -0.0485(4)
N8_2 N -0.01757(11) -0.2525(4) -0.5485(4)
C46D C 0.05778(13) 0.4772(4) -0.0857(5)
C47D C 0.04230(14) 0.4445(5) -0.0241(5)
C48D C 0.07393(15) 0.5328(5) -0.0657(5)
H30D H 0.0744 0.5563 -0.0145
N9D N 0.03129(11) 0.3744(4) -0.0341(4)
N10D N 0.03931(15) 0.4777(4) 0.0482(5)
N11D N 0.02025(11) 0.3659(4) 0.0326(4)
N11_2 N 0.02025(11) -0.1341(4) -0.4674(4)
N12D N 0.02440(15) 0.4270(5) 0.0816(5)
O1 O 0.0000 0.0000 -0.1238(7)
O2 O 0.0000 0.0000 0.7163(7)
O3 O 0.0000 0.0000 0.303(2)
loop_
_geom_bond_atom_site_label_1
_geom_bond_atom_site_label_2
_geom_bond_site_symmetry_1
_geom_bond_site_symmetry_2
Zn1 N1 1_555 1_555
N1 C14 1_555 1_555
N2 Zn1 1_555 1_555
C1 H1 1_555 1_555
C2 N3 1_555 1_555
N3 H2 1_555 1_555
C3 C8 1_555 1_555
C4 N2 1_555 1_555
H3 C4 1_555 1_555
C5 C6 1_555 1_555
C6 N4 1_555 1_555
C7 C2 1_555 1_555
C8 N3 1_555 1_555
C9 C7 1_555 1_555
C10 C2 1_555 1_555
H4 C10 1_555 1_555
C11 C9 1_555 1_555
C12 C4 1_555 1_555
H5 C12 1_555 1_555
N4 H6 1_555 1_555
C13 C24 1_555 1_555
C14 H7 1_555 1_555
C15 N2 1_555 1_555
H8 C15 1_555 1_555
C16 N1 1_555 1_555
H9 C16 1_555 1_555
C17 C11 1_555 1_555
H10 C17 1_555 1_555
C18 H11 1_555 1_555
C19 H12 1_555 1_555
C20 H13 1_555 1_555
C21 C38 1_555 1_555
C22 C26 1_555 1_555
C23 C5 1_555 1_555
H14 C23 1_555 1_555
C24 N4 1_555 1_555
C25 C1 1_555 1_555
C26 C10 1_555 1_555
H15 C26 1_555 1_555
C27 C19 1_555 1_555
H16 C27 1_555 1_555
C28 C7 1_555 1_555
C29 C18 1_555 1_555
H17 C29 1_555 1_555
C30 C22 1_555 1_555
H18 C30 1_555 1_555
C31 C6 1_555 1_555
C32 C29 1_555 1_555
H19 C32 1_555 1_555
C33 C3 1_555 1_555
H20 C33 1_555 1_555
C34 C11 1_555 1_555
H21 C34 1_555 1_555
C35 C25 1_555 1_555
H22 C35 1_555 1_555
C36 C3 1_555 1_555
H23 C36 1_555 1_555
C37 C27 1_555 1_555
H24 C37 1_555 1_555
C38 C13 1_555 1_555
C39 C17 1_555 1_555
H25 C39 1_555 1_555
C40 C18 1_555 1_555
H26 C40 1_555 1_555
C41 C1 1_555 1_555
H27 C41 1_555 1_555
C42 C20 1_555 1_555
H28 C42 1_555 1_555
C43 C34 1_555 1_555
C44 C43 1_555 1_555
C45 C39 1_555 1_555
H29 C45 1_555 1_555
N5 C44 1_555 1_555
N6 C44 1_555 1_555
N7 N5 1_555 1_555
N8 N6 1_555 1_555
C46 C35 1_555 1_555
C47 C46 1_555 1_555
C48 C41 1_555 1_555
H30 C48 1_555 1_555
N9 C47 1_555 1_555
N10 C47 1_555 1_555
N11 N9 1_555 1_555
N12 N10 1_555 1_555
Zn1D N1D 1_555 1_555
Zn1D_2 N8 1_555 1_555
Zn1D_3 N11 1_555 1_555
Zn1D_4 N2D 1_555 1_555
N1D C14D 1_555 1_555
N2D C4D 1_555 1_555
N2D_2 Zn1D 1_555 1_555
C1D H1D 1_555 1_555
C2D N3D 1_555 1_555
N3D H2D 1_555 1_555
C3D C8D 1_555 1_555
C4D H3D 1_555 1_555
C5D C6D 1_555 1_555
C6D N4D 1_555 1_555
C7D C2D 1_555 1_555
C8D N3D 1_555 1_555
C9D C7D 1_555 1_555
C10D C2D 1_555 1_555
H4D C10D 1_555 1_555
C11D C9D 1_555 1_555
C12D C4D 1_555 1_555
H5D C12D 1_555 1_555
N4D H6D 1_555 1_555
C13D C24D 1_555 1_555
C14D H7D 1_555 1_555
C15D N2D 1_555 1_555
H8D C15D 1_555 1_555
C16D N1D 1_555 1_555
H9D C16D 1_555 1_555
C17D C11D 1_555 1_555
H10D C17D 1_555 1_555
C18D H11D 1_555 1_555
C19D H12D 1_555 1_555
C20D H13D 1_555 1_555
C21D C38D 1_555 1_555
C22D C26D 1_555 1_555
C23D C5D 1_555 1_555
H14D C23D 1_555 1_555
C24D N4D 1_555 1_555
C25D C1D 1_555 1_555
C26D C10D 1_555 1_555
H15D C26D 1_555 1_555
C27D C19D 1_555 1_555
H16D C27D 1_555 1_555
C28D C7D 1_555 1_555
C29D C18D 1_555 1_555
H17D C29D 1_555 1_555
C30D C22D 1_555 1_555
H18D C30D 1_555 1_555
C31D C6D 1_555 1_555
C32D C29D 1_555 1_555
H19D C32D 1_555 1_555
C33D C3D 1_555 1_555
H20D C33D 1_555 1_555
C34D C11D 1_555 1_555
H21D C34D 1_555 1_555
C35D C25D 1_555 1_555
H22D C35D 1_555 1_555
C36D C3D 1_555 1_555
H23D C36D 1_555 1_555
C37D C27D 1_555 1_555
H24D C37D 1_555 1_555
C38D C13D 1_555 1_555
C39D C17D 1_555 1_555
H25D C39D 1_555 1_555
C40D C18D 1_555 1_555
H26D C40D 1_555 1_555
C41D C1D 1_555 1_555
H27D C41D 1_555 1_555
C42D C20D 1_555 1_555
H28D C42D 1_555 1_555
C43D C34D 1_555 1_555
C44D C43D 1_555 1_555
C45D C39D 1_555 1_555
H29D C45D 1_555 1_555
N5D C44D 1_555 1_555
N6D C44D 1_555 1_555
N7D N5D 1_555 1_555
N8D Zn1 1_555 1_555
N8_2 Zn1D 1_555 1_555
C46D C35D 1_555 1_555
C47D C46D 1_555 1_555
C48D C41D 1_555 1_555
H30D C48D 1_555 1_555
N9D C47D 1_555 1_555
N10D C47D 1_555 1_555
N11D Zn1 1_555 1_555
N11_2 Zn1D 1_555 1_555
N12D N10D 1_555 1_555
C5 C12 1_555 1_555
C8 C9 1_555 1_555
C13 C31 1_555 1_555
C14 C33 1_555 1_555
C15 C23 1_555 1_555
C16 C36 1_555 1_555
C19 C28 1_555 1_555
C20 C24 1_555 1_555
C21 C40 1_555 1_555
C21 C42 1_555 1_555
C22 C28 1_555 1_555
C25 C31 1_555 1_555
C30 C37 1_555 1_555
C32 C38 1_555 1_555
C43 C45 1_555 1_555
N7 N8 1_555 1_555
C46 C48 1_555 1_555
N11 N12 1_555 1_555
C5D C12D 1_555 1_555
C8D C9D 1_555 1_555
C13D C31D 1_555 1_555
C14D C33D 1_555 1_555
C15D C23D 1_555 1_555
C16D C36D 1_555 1_555
C19D C28D 1_555 1_555
C20D C24D 1_555 1_555
C21D C40D 1_555 1_555
C21D C42D 1_555 1_555
C22D C28D 1_555 1_555
C25D C31D 1_555 1_555
C30D C37D 1_555 1_555
C32D C38D 1_555 1_555
C43D C45D 1_555 1_555
N6D N8D 1_555 1_555
N7D N8D 1_555 1_555
C46D C48D 1_555 1_555
N9D N11D 1_555 1_555
N11D N12D 1_555 1_555

#END
