
#######################################################################
#
#                 Cambridge Crystallographic Data Centre
#                                CCDC 
#
#######################################################################
#
# If this CIF has been generated from an entry in the Cambridge 
# Structural Database, then it will include bibliographic, chemical, 
# crystal, experimental, refinement or atomic coordinate data resulting 
# from the CCDC's data processing and validation procedures.
#
#######################################################################

data_SAQFUM
_symmetry_cell_setting           tetragonal
_symmetry_space_group_name_H-M   'I -4 2 d'
_symmetry_Int_Tables_number      122
_space_group_name_Hall           'I -4 2bw'
loop_
_symmetry_equiv_pos_site_id
_symmetry_equiv_pos_as_xyz
1 x,y,z
2 -x,-y,z
3 y,-x,-z
4 -y,x,-z
5 1/2-x,y,3/4-z
6 1/2+x,-y,3/4-z
7 1/2-y,-x,3/4+z
8 1/2+y,x,3/4+z
9 1/2+x,1/2+y,1/2+z
10 1/2-x,1/2-y,1/2+z
11 1/2+y,1/2-x,1/2-z
12 1/2-y,1/2+x,1/2-z
13 -x,1/2+y,1/4-z
14 x,1/2-y,1/4-z
15 -y,1/2-x,1/4+z
16 y,1/2+x,1/4+z
_cell_length_a                   14.2430(18)
_cell_length_b                   14.2430(18)
_cell_length_c                   28.419(5)
_cell_angle_alpha                90
_cell_angle_beta                 90
_cell_angle_gamma                90
_cell_volume                     5765.16
loop_
_atom_site_label
_atom_site_type_symbol
_atom_site_fract_x
_atom_site_fract_y
_atom_site_fract_z
Zn1 Zn 0.25038(2) 0.2500 0.1250
Zn2 Zn 0.5000 0.5000 0.0000
N1 N 0.41348(16) 0.43010(17) 0.04266(9)
N2 N 0.32705(16) 0.33840(16) 0.08521(9)
N3 N 0.17533(15) 0.16799(16) 0.08187(8)
C1 C 0.40835(17) 0.34646(18) 0.06315(9)
C2 C 0.48292(18) 0.27554(19) 0.06148(9)
N4 N 0.17005(15) 0.09590(17) 0.01558(7)
N5 N 0.22272(14) 0.14887(17) 0.04122(7)
C3 C 0.09260(17) 0.12584(17) 0.07877(8)
N6 N 0.08752(14) 0.08041(16) 0.03746(9)
Zn3 Zn 0.0000 0.0000 0.0000
N7 N 0.28084(15) 0.42141(16) 0.07848(9)
C4 C -0.14382(19) 0.1220(2) 0.13573(11)
H1 H -0.2065 0.1189 0.1267
C5 C 0.01854(16) 0.12574(16) 0.11459(8)
N8 N 0.33212(16) 0.47536(16) 0.05323(8)
C6 C -0.07514(18) 0.12560(18) 0.10198(8)
H2 H -0.0917 0.1280 0.0704
C7 C 0.04235(18) 0.12592(18) 0.16223(8)
H3 H 0.1050 0.1267 0.1714
C8 C -0.1211(2) 0.1228(3) 0.18290(13)
H4 H -0.1681 0.1219 0.2056
C9 C -0.02845(19) 0.1249(2) 0.19582(9)
H5 H -0.0127 0.1257 0.2276
C10 C 0.5773(2) 0.3015(2) 0.06255(11)
H6 H 0.5929 0.3645 0.0661
C11 C 0.6460(2) 0.2377(3) 0.05863(12)
H7 H 0.7083 0.2572 0.0596
C12 C 0.4631(2) 0.1830(2) 0.05641(17)
H8 H 0.4010 0.1626 0.0558
C13 C 0.6265(3) 0.1463(4) 0.0533(2)
H9 H 0.6741 0.1020 0.0505
C14 C 0.5340(3) 0.1205(3) 0.0522(3)
H10 H 0.5193 0.0573 0.0484
Zn1A Zn 0.74962(2) 0.7500 0.1250
Zn1B Zn 0.2500 0.74962(2) -0.1250
Zn1C Zn 0.7500 0.25038(2) -0.1250
N1A N 0.58652(16) 0.56990(17) 0.04266(9)
N1B N 0.43010(17) 0.58652(16) -0.04266(9)
N1C N 0.56990(17) 0.41348(16) -0.04266(9)
N2A N 0.67295(16) 0.66160(16) 0.08521(9)
N2B N 0.33840(16) 0.67295(16) -0.08521(9)
N2C N 0.66160(16) 0.32705(16) -0.08521(9)
N2M N 0.32705(16) 0.16160(16) 0.16479(9)
N2L N 0.67295(16) 0.83840(16) 0.16479(9)
N3M N 0.17533(15) 0.33201(16) 0.16813(8)
N3A N 0.82467(15) 0.83201(16) 0.08187(8)
N3L N 0.82467(15) 0.66799(16) 0.16813(8)
C1A C 0.59165(17) 0.65354(18) 0.06315(9)
C1B C 0.34646(18) 0.59165(17) -0.06315(9)
C1C C 0.65354(18) 0.40835(17) -0.06315(9)
C2A C 0.51708(18) 0.72446(19) 0.06148(9)
C2B C 0.27554(19) 0.51708(18) -0.06148(9)
C2C C 0.72446(19) 0.48292(18) -0.06148(9)
N4M N 0.17005(15) 0.40410(17) 0.23442(7)
N4A N 0.82995(15) 0.90410(17) 0.01558(7)
N4L N 0.82995(15) 0.59590(17) 0.23442(7)
N5M N 0.22272(14) 0.35113(17) 0.20878(7)
N5A N 0.77728(14) 0.85113(17) 0.04122(7)
N5L N 0.77728(14) 0.64887(17) 0.20878(7)
C3M C 0.09260(17) 0.37416(17) 0.17123(8)
C3A C 0.90740(17) 0.87416(17) 0.07877(8)
C3L C 0.90740(17) 0.62584(17) 0.17123(8)
N6M N 0.08752(14) 0.41959(16) 0.21254(9)
N6A N 0.91248(14) 0.91959(16) 0.03746(9)
N6L N 0.91248(14) 0.58041(16) 0.21254(9)
N6A_2 N -0.08752(14) -0.08041(16) 0.03746(9)
N6B N 0.08041(16) -0.08752(14) -0.03746(9)
N6C N -0.08041(16) 0.08752(14) -0.03746(9)
Zn3L Zn 0.0000 0.5000 0.2500
Zn3_2 Zn 1.0000 1.0000 0.0000
Zn3L_2 Zn 1.0000 0.5000 0.2500
N7A N 0.71916(15) 0.57859(16) 0.07848(9)
N7B N 0.42141(16) 0.71916(15) -0.07848(9)
N7C N 0.57859(16) 0.28084(15) -0.07848(9)
C4M C -0.14382(19) 0.3780(2) 0.11427(11)
C4A C 1.14382(19) 0.8780(2) 0.13573(11)
C4L C 1.14382(19) 0.6220(2) 0.11427(11)
H1M H -0.2065 0.3811 0.1233
H1A H 1.2065 0.8811 0.1267
H1L H 1.2065 0.6189 0.1233
C5M C 0.01854(16) 0.37426(16) 0.13541(8)
C5A C 0.98146(16) 0.87426(16) 0.11459(8)
C5L C 0.98146(16) 0.62574(16) 0.13541(8)
N8A N 0.66788(16) 0.52464(16) 0.05323(8)
N8B N 0.47536(16) 0.66788(16) -0.05323(8)
N8C N 0.52464(16) 0.33212(16) -0.05323(8)
C6M C -0.07514(18) 0.37440(18) 0.14802(8)
C6A C 1.07514(18) 0.87440(18) 0.10198(8)
C6L C 1.07514(18) 0.62560(18) 0.14802(8)
H2M H -0.0917 0.3720 0.1796
H2A H 1.0917 0.8720 0.0704
H2L H 1.0917 0.6280 0.1796
C7M C 0.04235(18) 0.37408(18) 0.08777(8)
C7A C 0.95765(18) 0.87408(18) 0.16223(8)
C7L C 0.95765(18) 0.62592(18) 0.08777(8)
H3M H 0.1050 0.3733 0.0786
H3A H 0.8950 0.8733 0.1714
H3L H 0.8950 0.6267 0.0786
C8M C -0.1211(2) 0.3772(3) 0.06710(13)
C8A C 1.1211(2) 0.8772(3) 0.18290(13)
C8L C 1.1211(2) 0.6228(3) 0.06710(13)
H4M H -0.1681 0.3781 0.0444
H4A H 1.1681 0.8781 0.2056
H4L H 1.1681 0.6219 0.0444
C9M C -0.02845(19) 0.3751(2) 0.05418(9)
C9A C 1.02845(19) 0.8751(2) 0.19582(9)
C9L C 1.02845(19) 0.6249(2) 0.05418(9)
H5M H -0.0127 0.3743 0.0224
H5A H 1.0127 0.8743 0.2276
H5L H 1.0127 0.6257 0.0224
C10A C 0.4227(2) 0.6985(2) 0.06255(11)
C10B C 0.3015(2) 0.4227(2) -0.06255(11)
C10C C 0.6985(2) 0.5773(2) -0.06255(11)
H6A H 0.4071 0.6355 0.0661
H6B H 0.3645 0.4071 -0.0661
H6C H 0.6355 0.5929 -0.0661
C11A C 0.3540(2) 0.7623(3) 0.05863(12)
C11B C 0.2377(3) 0.3540(2) -0.05863(12)
C11C C 0.7623(3) 0.6460(2) -0.05863(12)
H7A H 0.2917 0.7428 0.0596
H7B H 0.2572 0.2917 -0.0596
H7C H 0.7428 0.7083 -0.0596
C12A C 0.5369(2) 0.8170(2) 0.05641(17)
C12B C 0.1830(2) 0.5369(2) -0.05641(17)
C12C C 0.8170(2) 0.4631(2) -0.05641(17)
H8A H 0.5990 0.8374 0.0558
H8B H 0.1626 0.5990 -0.0558
H8C H 0.8374 0.4010 -0.0558
C13A C 0.3735(3) 0.8537(4) 0.0533(2)
C13B C 0.1463(4) 0.3735(3) -0.0533(2)
C13C C 0.8537(4) 0.6265(3) -0.0533(2)
H9A H 0.3259 0.8980 0.0505
H9B H 0.1020 0.3259 -0.0505
H9C H 0.8980 0.6741 -0.0505
C14A C 0.4660(3) 0.8795(3) 0.0522(3)
C14B C 0.1205(3) 0.4660(3) -0.0522(3)
C14C C 0.8795(3) 0.5340(3) -0.0522(3)
H10A H 0.4807 0.9427 0.0484
H10B H 0.0573 0.4807 -0.0484
H10C H 0.9427 0.5193 -0.0484
loop_
_geom_bond_atom_site_label_1
_geom_bond_atom_site_label_2
_geom_bond_site_symmetry_1
_geom_bond_site_symmetry_2
Zn1 N2 1_555 1_555
Zn2 N1 1_555 1_555
N1 C1 1_555 1_555
N2 C1 1_555 1_555
N3 Zn1 1_555 1_555
C1 C2 1_555 1_555
C2 C10 1_555 1_555
N4 N5 1_555 1_555
N5 N3 1_555 1_555
C3 N3 1_555 1_555
N6 N4 1_555 1_555
Zn3 N6 1_555 1_555
N7 N2 1_555 1_555
C4 H1 1_555 1_555
C5 C3 1_555 1_555
N8 N1 1_555 1_555
C6 C4 1_555 1_555
H2 C6 1_555 1_555
C7 C5 1_555 1_555
H3 C7 1_555 1_555
C8 C4 1_555 1_555
H4 C8 1_555 1_555
C9 C7 1_555 1_555
H5 C9 1_555 1_555
C10 H6 1_555 1_555
C11 C10 1_555 1_555
H7 C11 1_555 1_555
C12 C2 1_555 1_555
H8 C12 1_555 1_555
C13 C11 1_555 1_555
H9 C13 1_555 1_555
C14 C12 1_555 1_555
H10 C14 1_555 1_555
Zn1A N2A 1_555 1_555
Zn1B N2B 1_555 1_555
Zn1C N2C 1_555 1_555
N1A Zn2 1_555 1_555
N1B Zn2 1_555 1_555
N1C Zn2 1_555 1_555
N2A C1A 1_555 1_555
N2B C1B 1_555 1_555
N2C C1C 1_555 1_555
N2M Zn1 1_555 1_555
N2L Zn1A 1_555 1_555
N3M Zn1 1_555 1_555
N3A Zn1A 1_555 1_555
N3L Zn1A 1_555 1_555
C1A N1A 1_555 1_555
C1B N1B 1_555 1_555
C1C N1C 1_555 1_555
C2A C1A 1_555 1_555
C2B C1B 1_555 1_555
C2C C1C 1_555 1_555
N4M N5M 1_555 1_555
N4A N5A 1_555 1_555
N4L N5L 1_555 1_555
N5M N3M 1_555 1_555
N5A N3A 1_555 1_555
N5L N3L 1_555 1_555
C3M N3M 1_555 1_555
C3A N3A 1_555 1_555
C3L N3L 1_555 1_555
N6M N4M 1_555 1_555
N6A N4A 1_555 1_555
N6L N4L 1_555 1_555
N6A_2 Zn3 1_555 1_555
N6B Zn3 1_555 1_555
N6C Zn3 1_555 1_555
Zn3L N6M 1_555 1_555
Zn3_2 N6A 1_555 1_555
Zn3L_2 N6L 1_555 1_555
N7A N2A 1_555 1_555
N7B N2B 1_555 1_555
N7C N2C 1_555 1_555
C4M H1M 1_555 1_555
C4A H1A 1_555 1_555
C4L H1L 1_555 1_555
C5M C3M 1_555 1_555
C5A C3A 1_555 1_555
C5L C3L 1_555 1_555
N8A N1A 1_555 1_555
N8B N1B 1_555 1_555
N8C N1C 1_555 1_555
C6M C4M 1_555 1_555
C6A C4A 1_555 1_555
C6L C4L 1_555 1_555
H2M C6M 1_555 1_555
H2A C6A 1_555 1_555
H2L C6L 1_555 1_555
C7M C5M 1_555 1_555
C7A C5A 1_555 1_555
C7L C5L 1_555 1_555
H3M C7M 1_555 1_555
H3A C7A 1_555 1_555
H3L C7L 1_555 1_555
C8M C4M 1_555 1_555
C8A C4A 1_555 1_555
C8L C4L 1_555 1_555
H4M C8M 1_555 1_555
H4A C8A 1_555 1_555
H4L C8L 1_555 1_555
C9M C7M 1_555 1_555
C9A C7A 1_555 1_555
C9L C7L 1_555 1_555
H5M C9M 1_555 1_555
H5A C9A 1_555 1_555
H5L C9L 1_555 1_555
C10A C2A 1_555 1_555
C10B C2B 1_555 1_555
C10C C2C 1_555 1_555
H6A C10A 1_555 1_555
H6B C10B 1_555 1_555
H6C C10C 1_555 1_555
C11A C10A 1_555 1_555
C11B C10B 1_555 1_555
C11C C10C 1_555 1_555
H7A C11A 1_555 1_555
H7B C11B 1_555 1_555
H7C C11C 1_555 1_555
C12A C2A 1_555 1_555
C12B C2B 1_555 1_555
C12C C2C 1_555 1_555
H8A C12A 1_555 1_555
H8B C12B 1_555 1_555
H8C C12C 1_555 1_555
C13A C11A 1_555 1_555
C13B C11B 1_555 1_555
C13C C11C 1_555 1_555
H9A C13A 1_555 1_555
H9B C13B 1_555 1_555
H9C C13C 1_555 1_555
C14A C12A 1_555 1_555
C14B C12B 1_555 1_555
C14C C12C 1_555 1_555
H10A C14A 1_555 1_555
H10B C14B 1_555 1_555
H10C C14C 1_555 1_555
C3 N6 1_555 1_555
N7 N8 1_555 1_555
C5 C6 1_555 1_555
C8 C9 1_555 1_555
C13 C14 1_555 1_555
C3M N6M 1_555 1_555
C3A N6A 1_555 1_555
C3L N6L 1_555 1_555
N7A N8A 1_555 1_555
N7B N8B 1_555 1_555
N7C N8C 1_555 1_555
C5M C6M 1_555 1_555
C5A C6A 1_555 1_555
C5L C6L 1_555 1_555
C8M C9M 1_555 1_555
C8A C9A 1_555 1_555
C8L C9L 1_555 1_555
C13A C14A 1_555 1_555
C13B C14B 1_555 1_555
C13C C14C 1_555 1_555

#END
