
#######################################################################
#
#                 Cambridge Crystallographic Data Centre
#                                CCDC 
#
#######################################################################
#
# If this CIF has been generated from an entry in the Cambridge 
# Structural Database, then it will include bibliographic, chemical, 
# crystal, experimental, refinement or atomic coordinate data resulting 
# from the CCDC's data processing and validation procedures.
#
#######################################################################

data_SAQJOK
_symmetry_cell_setting           monoclinic
_symmetry_space_group_name_H-M   'P 21/c'
_symmetry_Int_Tables_number      14
_space_group_name_Hall           '-P 2ybc'
loop_
_symmetry_equiv_pos_site_id
_symmetry_equiv_pos_as_xyz
1 x,y,z
2 -x,1/2+y,1/2-z
3 -x,-y,-z
4 x,1/2-y,1/2+z
_cell_length_a                   12.582(3)
_cell_length_b                   7.4652(15)
_cell_length_c                   9.903(2)
_cell_angle_alpha                90
_cell_angle_beta                 101.33(3)
_cell_angle_gamma                90
_cell_volume                     912.033
loop_
_atom_site_label
_atom_site_type_symbol
_atom_site_fract_x
_atom_site_fract_y
_atom_site_fract_z
Cd1 Cd -0.5000 0.0000 0.0000
O1 O -0.07349(17) 0.0929(3) 0.3303(2)
C1 C -0.3628(2) 0.3759(4) 0.0046(3)
H1 H -0.4196 0.4023 -0.0681
C2 C -0.2794(2) 0.4971(4) 0.0362(3)
H2 H -0.2786 0.6002 -0.0164
C3 C -0.1955(2) 0.4626(3) 0.1489(3)
H3 H -0.1383 0.5427 0.1734
C4 C -0.1998(2) 0.3061(3) 0.2230(3)
C5 C -0.2851(2) 0.1891(3) 0.1804(3)
H4 H -0.2860 0.0822 0.2284
C6 C -0.1090(2) 0.2453(4) 0.3375(3)
C7 C 0.0319(2) 0.3164(4) 0.5367(3)
H5 H 0.059(3) 0.205(4) 0.513(3)
C8 C -0.1145(2) 0.5354(3) 0.4668(3)
H6 H -0.182(3) 0.558(4) 0.402(3)
N1 N -0.6049(2) 0.1022(5) 0.1530(3)
N2 N -0.5918(3) 0.3198(4) 0.3227(4)
N3 N -0.59458(19) 0.2119(3) 0.2377(2)
N4 N -0.36691(16) 0.2212(3) 0.0732(2)
N5 N -0.06852(18) 0.3609(3) 0.4393(2)
H7 H -0.131(3) 0.530(4) 0.558(3)
H8 H 0.018(2) 0.301(4) 0.627(3)
Cd1C Cd -0.5000 0.5000 0.5000
Cd1C_2 Cd -0.5000 -0.5000 0.5000
Cd1_2 Cd 0.5000 1.0000 1.0000
O1B O 0.07349(17) 0.9071(3) 0.6697(2)
C1B C 0.3628(2) 0.6241(4) 0.9954(3)
H1B H 0.4196 0.5977 1.0681
C2B C 0.2794(2) 0.5029(4) 0.9638(3)
H2B H 0.2786 0.3998 1.0164
C3B C 0.1955(2) 0.5374(3) 0.8511(3)
H3B H 0.1383 0.4573 0.8266
C4B C 0.1998(2) 0.6939(3) 0.7770(3)
C5B C 0.2851(2) 0.8109(3) 0.8196(3)
H4B H 0.2860 0.9178 0.7716
C6B C 0.1090(2) 0.7547(4) 0.6625(3)
C7B C -0.0319(2) 0.6836(4) 0.4633(3)
H5B H -0.059(3) 0.795(4) 0.487(3)
C8B C 0.1145(2) 0.4646(3) 0.5332(3)
H6B H 0.182(3) 0.442(4) 0.598(3)
N1A N -0.3951(2) -0.3978(5) 0.3470(3)
N1B N -0.3951(2) -0.1022(5) -0.1530(3)
N2C N -0.5918(3) 0.1802(4) -0.1773(4)
N2A N -0.4082(3) -0.1802(4) 0.1773(4)
N3A N -0.40542(19) -0.2881(3) 0.2623(2)
N4B N 0.36691(16) 0.7788(3) 0.9268(2)
N4B_2 N -0.63309(16) -0.2212(3) -0.0732(2)
N5B N 0.06852(18) 0.6391(3) 0.5607(2)
H7B H 0.131(3) 0.470(4) 0.442(3)
H8B H -0.018(2) 0.699(4) 0.373(3)
loop_
_geom_bond_atom_site_label_1
_geom_bond_atom_site_label_2
_geom_bond_site_symmetry_1
_geom_bond_site_symmetry_2
Cd1 N1 1_555 1_555
O1 C6 1_555 1_555
C1 H1 1_555 1_555
C2 C1 1_555 1_555
H2 C2 1_555 1_555
C3 C2 1_555 1_555
H3 C3 1_555 1_555
C4 C3 1_555 1_555
C5 C4 1_555 1_555
H4 C5 1_555 1_555
C6 C4 1_555 1_555
C7 H5 1_555 1_555
C8 H6 1_555 1_555
N1 N3 1_555 1_555
N2 N3 1_555 1_555
N4 Cd1 1_555 1_555
N5 C6 1_555 1_555
H7 C8 1_555 1_555
H8 C7 1_555 1_555
Cd1C N2 1_555 1_555
Cd1C_2 N1A 1_555 1_555
Cd1_2 N4B 1_555 1_555
O1B C6B 1_555 1_555
C1B H1B 1_555 1_555
C2B C1B 1_555 1_555
H2B C2B 1_555 1_555
C3B C2B 1_555 1_555
H3B C3B 1_555 1_555
C4B C3B 1_555 1_555
C5B C4B 1_555 1_555
H4B C5B 1_555 1_555
C6B C4B 1_555 1_555
C7B C8 1_555 1_555
H5B C7B 1_555 1_555
C8B C7 1_555 1_555
H6B C8B 1_555 1_555
N1A N3A 1_555 1_555
N1B Cd1 1_555 1_555
N2C Cd1 1_555 1_555
N2A Cd1 1_555 1_555
N3A N2A 1_555 1_555
N4B C1B 1_555 1_555
N4B_2 Cd1 1_555 1_555
N5B C6B 1_555 1_555
H7B C8B 1_555 1_555
H8B C7B 1_555 1_555
C1 N4 1_555 1_555
C5 N4 1_555 1_555
C7 N5 1_555 1_555
C8 N5 1_555 1_555
C5B N4B 1_555 1_555
C7B N5B 1_555 1_555
C8B N5B 1_555 1_555

#END
