
#######################################################################
#
#                 Cambridge Crystallographic Data Centre
#                                CCDC 
#
#######################################################################
#
# If this CIF has been generated from an entry in the Cambridge 
# Structural Database, then it will include bibliographic, chemical, 
# crystal, experimental, refinement or atomic coordinate data resulting 
# from the CCDC's data processing and validation procedures.
#
#######################################################################

data_SAQPEH01
_symmetry_cell_setting           monoclinic
_symmetry_space_group_name_H-M   'P 21/c'
_symmetry_Int_Tables_number      14
_space_group_name_Hall           '-P 2ybc'
loop_
_symmetry_equiv_pos_site_id
_symmetry_equiv_pos_as_xyz
1 x,y,z
2 -x,1/2+y,1/2-z
3 -x,-y,-z
4 x,1/2-y,1/2+z
_cell_length_a                   10.213(3)
_cell_length_b                   18.938(5)
_cell_length_c                   16.619(4)
_cell_angle_alpha                90
_cell_angle_beta                 96.744(9)
_cell_angle_gamma                90
_cell_volume                     3192.1
loop_
_atom_site_label
_atom_site_type_symbol
_atom_site_fract_x
_atom_site_fract_y
_atom_site_fract_z
P1 P -0.4981(3) 0.16948(18) -0.1603(2)
F1 F -0.5847(11) 0.1415(8) -0.0959(8)
F2 F -0.5739(10) 0.1349(6) -0.2350(6)
F3 F -0.5875(12) 0.2313(5) -0.1695(8)
F4 F -0.3949(13) 0.1881(7) -0.2128(8)
F5 F -0.4262(8) 0.0948(4) -0.1449(4)
F6 F -0.4017(11) 0.1946(6) -0.0866(7)
C25 C -0.4485(13) 0.0109(8) 0.4854(8)
C26 C -0.4286(13) -0.1205(8) 0.4444(8)
H16 H -0.3866 -0.1564 0.4191
C27 C -0.3845(16) -0.0546(9) 0.4425(9)
C28 C -0.3973(18) 0.0796(10) 0.4795(10)
C29 C -0.5450(16) -0.1366(9) 0.4868(10)
H17 H -0.5771 -0.1823 0.4904
C30 C -0.2837(19) -0.0373(10) 0.4097(11)
H18 H -0.2381 -0.0713 0.3838
C31 C -0.238(2) 0.0367(11) 0.4123(12)
H19 H -0.1590 0.0440 0.3911
C32 C -0.2884(18) 0.0915(11) 0.4383(11)
H20 H -0.2553 0.1365 0.4306
C25B C -0.5515(13) -0.0109(8) 0.5146(8)
C26B C -0.5714(13) 0.1205(8) 0.5556(8)
H16B H -0.6134 0.1564 0.5809
C27B C -0.6155(16) 0.0546(9) 0.5575(9)
C28B C -0.6027(18) -0.0796(10) 0.5205(10)
C29B C -0.4550(16) 0.1366(9) 0.5132(10)
H17B H -0.4229 0.1823 0.5096
C30B C -0.7163(19) 0.0373(10) 0.5903(11)
H18B H -0.7619 0.0713 0.6162
C31B C -0.762(2) -0.0367(11) 0.5877(12)
H19B H -0.8410 -0.0440 0.6089
C32B C -0.7116(18) -0.0915(11) 0.5617(11)
H20B H -0.7447 -0.1365 0.5694
Cu1 Cu 0.0000 0.0000 0.0000
O1 O 0.1251(4) 0.0358(2) 0.1235(3)
O2 O -0.8090(5) 0.1632(2) 0.3935(3)
O3 O -0.8299(5) -0.0903(2) 0.3549(3)
O4 O -0.4927(4) 0.0437(3) 0.2535(3)
C1 C -0.7687(7) 0.0997(4) 0.3602(5)
C2 C -0.8303(7) 0.0367(4) 0.3716(5)
H1 H -0.9051 0.0347 0.3985
C3 C -0.7778(7) -0.0231(3) 0.3422(5)
C4 C -0.6673(7) -0.0218(4) 0.3017(4)
H2 H -0.6338 -0.0630 0.2816
C5 C -0.6089(6) 0.0418(4) 0.2924(4)
C6 C -0.6571(6) 0.1042(4) 0.3216(4)
H3 H -0.6156 0.1473 0.3153
O5 O -1.0197(6) 0.1539(3) 0.3360(5)
N1 N -0.9818(5) 0.3977(3) 0.4552(4)
C7 C -0.8695(7) 0.3633(4) 0.4763(5)
H4 H -0.8025 0.3863 0.5089
C8 C -0.8476(7) 0.2946(4) 0.4518(5)
H5 H -0.7675 0.2724 0.4676
C9 C -0.9456(7) 0.2602(4) 0.4042(4)
C10 C -1.0653(7) 0.2960(4) 0.3820(5)
H6 H -1.1348 0.2739 0.3505
C11 C -1.0770(7) 0.3644(4) 0.4081(5)
H7 H -1.1551 0.3885 0.3922
C12 C -0.9326(8) 0.1861(4) 0.3738(5)
O6 O -1.0276(7) -0.0650(4) 0.2900(5)
N2 N -1.0449(8) -0.3230(4) 0.3519(5)
C13 C -0.9253(11) -0.3001(5) 0.3712(7)
H8 H -0.8605 -0.3327 0.3895
C14 C -0.8882(9) -0.2289(4) 0.3661(6)
H9 H -0.8029 -0.2140 0.3838
C15 C -0.9831(8) -0.1824(4) 0.3340(5)
C16 C -1.1096(9) -0.2071(4) 0.3115(6)
H10 H -1.1753 -0.1765 0.2891
C17 C -1.1364(10) -0.2750(5) 0.3222(6)
H11 H -1.2227 -0.2904 0.3085
C18 C -0.9498(9) -0.1061(4) 0.3227(5)
O7 O -0.6080(5) 0.0759(4) 0.1374(4)
N3 N -0.1620(5) 0.0243(3) 0.0576(4)
C19 C -0.1608(7) 0.0143(4) 0.1376(5)
H12 H -0.0828 -0.0011 0.1669
C20 C -0.2666(7) 0.0252(4) 0.1786(5)
H13 H -0.2606 0.0168 0.2340
C21 C -0.3821(6) 0.0488(4) 0.1373(4)
C22 C -0.3862(6) 0.0594(4) 0.0567(5)
H14 H -0.4631 0.0757 0.0271
C23 C -0.2753(7) 0.0458(4) 0.0182(5)
H15 H -0.2808 0.0520 -0.0376
C24 C -0.5075(7) 0.0580(4) 0.1752(5)
Cu1A Cu -1.0000 0.5000 0.5000
Cu1A_2 Cu -1.0000 -0.5000 0.5000
O1B O -0.1251(4) -0.0358(2) -0.1235(3)
O2A O -0.1910(5) -0.3368(2) 0.1065(3)
O3A O -0.1701(5) -0.5903(2) 0.1451(3)
O4A O -0.5073(4) -0.4563(3) 0.2465(3)
C1A C -0.2313(7) -0.4003(4) 0.1398(5)
C2A C -0.1697(7) -0.4633(4) 0.1284(5)
H1A H -0.0949 -0.4653 0.1015
C3A C -0.2222(7) -0.5231(3) 0.1578(5)
C4A C -0.3327(7) -0.5218(4) 0.1983(4)
H2A H -0.3662 -0.5630 0.2184
C5A C -0.3911(6) -0.4582(4) 0.2076(4)
C6A C -0.3429(6) -0.3958(4) 0.1784(4)
H3A H -0.3844 -0.3527 0.1847
O5A O 0.0197(6) -0.3461(3) 0.1640(5)
N1A N -0.0182(5) -0.1023(3) 0.0448(4)
N1C N 0.0182(5) 0.1023(3) -0.0448(4)
C7A C -0.1305(7) -0.1367(4) 0.0237(5)
H4A H -0.1975 -0.1137 -0.0089
C8A C -0.1524(7) -0.2054(4) 0.0482(5)
H5A H -0.2325 -0.2276 0.0324
C9A C -0.0544(7) -0.2398(4) 0.0958(4)
C10A C 0.0653(7) -0.2040(4) 0.1180(5)
H6A H 0.1348 -0.2261 0.1495
C11A C 0.0770(7) -0.1356(4) 0.0919(5)
H7A H 0.1551 -0.1115 0.1078
C12A C -0.0674(8) -0.3139(4) 0.1262(5)
O6A O 0.0276(7) -0.5650(4) 0.2100(5)
N2A N 0.0449(8) -0.8230(4) 0.1481(5)
C13A C -0.0747(11) -0.8001(5) 0.1288(7)
H8A H -0.1395 -0.8327 0.1105
C14A C -0.1118(9) -0.7289(4) 0.1339(6)
H9A H -0.1971 -0.7140 0.1162
C15A C -0.0169(8) -0.6824(4) 0.1660(5)
C16A C 0.1096(9) -0.7071(4) 0.1885(6)
H10A H 0.1753 -0.6765 0.2109
C17A C 0.1364(10) -0.7750(5) 0.1778(6)
H11A H 0.2227 -0.7904 0.1915
C18A C -0.0502(9) -0.6061(4) 0.1773(5)
O7A O -0.3920(5) -0.4241(4) 0.3626(4)
N3A N -0.8380(5) -0.4757(3) 0.4424(4)
N3B N 0.1620(5) -0.0243(3) -0.0576(4)
C19A C -0.8392(7) -0.4857(4) 0.3624(5)
H12A H -0.9172 -0.5011 0.3331
C20A C -0.7334(7) -0.4748(4) 0.3214(5)
H13A H -0.7394 -0.4832 0.2660
C21A C -0.6179(6) -0.4512(4) 0.3627(4)
C22A C -0.6138(6) -0.4406(4) 0.4433(5)
H14A H -0.5369 -0.4243 0.4729
C23A C -0.7247(7) -0.4542(4) 0.4818(5)
H15A H -0.7192 -0.4480 0.5376
C24A C -0.4925(7) -0.4420(4) 0.3248(5)
loop_
_geom_bond_atom_site_label_1
_geom_bond_atom_site_label_2
_geom_bond_site_symmetry_1
_geom_bond_site_symmetry_2
Cu1 O1 1_555 1_555
P1 F1 1_555 1_555
F2 P1 1_555 1_555
F3 P1 1_555 1_555
F4 P1 1_555 1_555
F5 P1 1_555 1_555
F6 P1 1_555 1_555
O2 C1 1_555 1_555
O3 C3 1_555 1_555
O4 C5 1_555 1_555
C1 C2 1_555 1_555
C2 H1 1_555 1_555
C3 C2 1_555 1_555
C4 C3 1_555 1_555
H2 C4 1_555 1_555
C5 C4 1_555 1_555
C6 C1 1_555 1_555
H3 C6 1_555 1_555
O5 C12 1_555 1_555
N1 C7 1_555 1_555
C7 H4 1_555 1_555
C8 C7 1_555 1_555
H5 C8 1_555 1_555
C9 C8 1_555 1_555
C10 C9 1_555 1_555
H6 C10 1_555 1_555
C11 N1 1_555 1_555
H7 C11 1_555 1_555
C12 O2 1_555 1_555
O6 C18 1_555 1_555
N2 C13 1_555 1_555
C13 H8 1_555 1_555
C14 C13 1_555 1_555
H9 C14 1_555 1_555
C15 C14 1_555 1_555
C16 C15 1_555 1_555
H10 C16 1_555 1_555
C17 N2 1_555 1_555
H11 C17 1_555 1_555
C18 O3 1_555 1_555
O7 C24 1_555 1_555
N3 Cu1 1_555 1_555
C19 N3 1_555 1_555
H12 C19 1_555 1_555
C20 C19 1_555 1_555
H13 C20 1_555 1_555
C21 C20 1_555 1_555
C22 C21 1_555 1_555
H14 C22 1_555 1_555
C23 N3 1_555 1_555
H15 C23 1_555 1_555
C24 O4 1_555 1_555
C25 C27 1_555 1_555
C26 H16 1_555 1_555
C27 C26 1_555 1_555
C28 C25 1_555 1_555
C29 C26 1_555 1_555
H17 C29 1_555 1_555
C30 C27 1_555 1_555
H18 C30 1_555 1_555
C31 C30 1_555 1_555
H19 C31 1_555 1_555
C32 C28 1_555 1_555
H20 C32 1_555 1_555
Cu1A N1 1_555 1_555
Cu1A_2 N3A 1_555 1_555
O1B Cu1 1_555 1_555
O2A C1A 1_555 1_555
O3A C3A 1_555 1_555
O4A C5A 1_555 1_555
C1A C2A 1_555 1_555
C2A H1A 1_555 1_555
C3A C2A 1_555 1_555
C4A C3A 1_555 1_555
H2A C4A 1_555 1_555
C5A C4A 1_555 1_555
C6A C1A 1_555 1_555
H3A C6A 1_555 1_555
O5A C12A 1_555 1_555
N1A Cu1 1_555 1_555
N1C Cu1 1_555 1_555
C7A N1A 1_555 1_555
H4A C7A 1_555 1_555
C8A C7A 1_555 1_555
H5A C8A 1_555 1_555
C9A C8A 1_555 1_555
C10A C9A 1_555 1_555
H6A C10A 1_555 1_555
C11A N1A 1_555 1_555
H7A C11A 1_555 1_555
C12A O2A 1_555 1_555
O6A C18A 1_555 1_555
N2A C13A 1_555 1_555
C13A H8A 1_555 1_555
C14A C13A 1_555 1_555
H9A C14A 1_555 1_555
C15A C14A 1_555 1_555
C16A C15A 1_555 1_555
H10A C16A 1_555 1_555
C17A N2A 1_555 1_555
H11A C17A 1_555 1_555
C18A O3A 1_555 1_555
O7A C24A 1_555 1_555
N3A C19A 1_555 1_555
N3B Cu1 1_555 1_555
C19A H12A 1_555 1_555
C20A C19A 1_555 1_555
H13A C20A 1_555 1_555
C21A C20A 1_555 1_555
C22A C21A 1_555 1_555
H14A C22A 1_555 1_555
C23A N3A 1_555 1_555
H15A C23A 1_555 1_555
C24A O4A 1_555 1_555
C25B C25 1_555 1_555
C26B H16B 1_555 1_555
C27B C25B 1_555 1_555
C28B C29 1_555 1_555
C29B C28 1_555 1_555
H17B C29B 1_555 1_555
C30B C27B 1_555 1_555
H18B C30B 1_555 1_555
C31B C30B 1_555 1_555
H19B C31B 1_555 1_555
C32B C28B 1_555 1_555
H20B C32B 1_555 1_555
C5 C6 1_555 1_555
C9 C12 1_555 1_555
C10 C11 1_555 1_555
C15 C18 1_555 1_555
C16 C17 1_555 1_555
C21 C24 1_555 1_555
C22 C23 1_555 1_555
C31 C32 1_555 1_555
C5A C6A 1_555 1_555
C9A C12A 1_555 1_555
C10A C11A 1_555 1_555
C15A C18A 1_555 1_555
C16A C17A 1_555 1_555
C21A C24A 1_555 1_555
C22A C23A 1_555 1_555
C25B C28B 1_555 1_555
C26B C27B 1_555 1_555
C26B C29B 1_555 1_555
C31B C32B 1_555 1_555

#END
