
#######################################################################
#
#                 Cambridge Crystallographic Data Centre
#                                CCDC 
#
#######################################################################
#
# If this CIF has been generated from an entry in the Cambridge 
# Structural Database, then it will include bibliographic, chemical, 
# crystal, experimental, refinement or atomic coordinate data resulting 
# from the CCDC's data processing and validation procedures.
#
#######################################################################

data_SAQPEH
_symmetry_cell_setting           monoclinic
_symmetry_space_group_name_H-M   'P 21/c'
_symmetry_Int_Tables_number      14
_space_group_name_Hall           '-P 2ybc'
loop_
_symmetry_equiv_pos_site_id
_symmetry_equiv_pos_as_xyz
1 x,y,z
2 -x,1/2+y,1/2-z
3 -x,-y,-z
4 x,1/2-y,1/2+z
_cell_length_a                   10.224(2)
_cell_length_b                   18.934(4)
_cell_length_c                   16.667(4)
_cell_angle_alpha                90
_cell_angle_beta                 96.438(7)
_cell_angle_gamma                90
_cell_volume                     3206.07
loop_
_atom_site_label
_atom_site_type_symbol
_atom_site_fract_x
_atom_site_fract_y
_atom_site_fract_z
P1 P -0.4976(2) 0.16930(11) -0.15927(13)
F1 F -0.5809(7) 0.1415(5) -0.0915(5)
F2 F -0.5730(6) 0.1334(4) -0.2350(4)
F3 F -0.5889(8) 0.2301(3) -0.1675(5)
F4 F -0.3897(9) 0.1849(5) -0.2117(5)
F5 F -0.4249(6) 0.0946(3) -0.1445(3)
F6 F -0.4022(7) 0.1941(3) -0.0843(4)
C25 C -0.6019(11) -0.0800(6) -0.4804(6)
C26 C -0.5514(9) -0.0113(5) -0.4849(5)
C27 C -0.6171(12) 0.0539(6) -0.4420(7)
C28 C -0.7235(12) 0.0376(7) -0.4095(7)
H16 H -0.7727 0.0718 -0.3863
C29 C -0.7612(15) -0.0356(8) -0.4113(9)
H17 H -0.8375 -0.0442 -0.3873
C30 C -0.7135(12) -0.0893(7) -0.4378(7)
H18 H -0.7488 -0.1338 -0.4304
C31 C -0.5412(12) -0.1351(7) -0.5120(6)
H19 H -0.5713 -0.1811 -0.5078
C32 C -0.5724(10) 0.1191(6) -0.4476(6)
H20 H -0.6159 0.1558 -0.4247
C25B C -0.3981(11) 0.0800(6) -0.5196(6)
C26B C -0.4486(9) 0.0113(5) -0.5151(5)
C27B C -0.3829(12) -0.0539(6) -0.5580(7)
C28B C -0.2765(12) -0.0376(7) -0.5905(7)
H16B H -0.2273 -0.0718 -0.6137
C29B C -0.2388(15) 0.0356(8) -0.5887(9)
H17B H -0.1625 0.0442 -0.6127
C30B C -0.2865(12) 0.0893(7) -0.5622(7)
H18B H -0.2512 0.1338 -0.5696
C31B C -0.4588(12) 0.1351(7) -0.4880(6)
H19B H -0.4287 0.1811 -0.4922
C32B C -0.4276(10) -0.1191(6) -0.5524(6)
H20B H -0.3841 -0.1558 -0.5753
Cu1 Cu 0.0000 0.0000 0.0000
O1 O 0.1249(3) 0.03594(16) 0.12385(19)
O2 O -0.1913(3) -0.33678(16) 0.1063(2)
O3 O -0.1687(3) -0.59019(15) 0.1457(2)
O4 O -0.5061(3) -0.45632(16) 0.24655(18)
C1 C -0.2317(4) -0.4005(2) 0.1395(3)
C2 C -0.1708(4) -0.4632(2) 0.1270(3)
H1 H -0.0977 -0.4655 0.0985
C3 C -0.2222(5) -0.5226(2) 0.1584(3)
C4 C -0.3318(4) -0.5218(2) 0.1978(3)
H2 H -0.3656 -0.5632 0.2173
C5 C -0.3910(4) -0.4574(2) 0.2079(3)
C6 C -0.3419(4) -0.3959(2) 0.1787(3)
H3 H -0.3825 -0.3527 0.1855
O5 O 0.0182(4) -0.3455(2) 0.1638(3)
N1 N -0.0183(3) -0.10225(18) 0.0440(2)
C7 C -0.1312(5) -0.1364(2) 0.0244(3)
H4 H -0.1989 -0.1133 -0.0072
C8 C -0.1518(4) -0.2046(2) 0.0491(3)
H5 H -0.2322 -0.2266 0.0343
C9 C -0.0538(5) -0.2397(2) 0.0955(3)
C10 C 0.0642(5) -0.2040(3) 0.1171(3)
H6 H 0.1333 -0.2257 0.1488
C11 C 0.0757(5) -0.1356(2) 0.0903(3)
H7 H 0.1538 -0.1116 0.1056
C12 C -0.0683(5) -0.3128(3) 0.1264(3)
O6 O 0.0261(5) -0.5645(2) 0.2099(3)
N2 N 0.0444(6) -0.8234(2) 0.1481(3)
C13 C -0.0732(7) -0.7990(3) 0.1280(4)
H8 H -0.1371 -0.8312 0.1073
C14 C -0.1118(6) -0.7298(3) 0.1345(4)
H9 H -0.1978 -0.7156 0.1182
C15 C -0.0173(5) -0.6824(3) 0.1663(3)
C16 C 0.1083(6) -0.7066(3) 0.1882(4)
H10 H 0.1741 -0.6759 0.2096
C17 C 0.1351(7) -0.7766(3) 0.1781(4)
H11 H 0.2205 -0.7925 0.1928
C18 C -0.0494(6) -0.6057(3) 0.1773(3)
O7 O -0.3915(3) -0.4243(3) 0.3624(2)
N3 N -0.8375(3) -0.47578(18) 0.4421(2)
C19 C -0.8400(4) -0.4854(2) 0.3628(3)
H12 H -0.9182 -0.5005 0.3340
C20 C -0.7332(4) -0.4744(3) 0.3214(3)
H13 H -0.7394 -0.4819 0.2660
C21 C -0.6174(4) -0.4522(2) 0.3627(3)
C22 C -0.6148(4) -0.4407(3) 0.4447(3)
H14 H -0.5387 -0.4242 0.4745
C23 C -0.7246(4) -0.4539(3) 0.4815(3)
H15 H -0.7204 -0.4472 0.5370
C24 C -0.4927(4) -0.4420(3) 0.3255(3)
Cu1A Cu -1.0000 -0.5000 0.5000
Cu1A_2 Cu 1.0000 0.5000 -0.5000
O1B O -0.1249(3) -0.03594(16) -0.12385(19)
O2B O 0.1913(3) 0.33678(16) -0.1063(2)
O3B O 0.1687(3) 0.59019(15) -0.1457(2)
O4B O 0.5061(3) 0.45632(16) -0.24655(18)
C1B C 0.2317(4) 0.4005(2) -0.1395(3)
C2B C 0.1708(4) 0.4632(2) -0.1270(3)
H1B H 0.0977 0.4655 -0.0985
C3B C 0.2222(5) 0.5226(2) -0.1584(3)
C4B C 0.3318(4) 0.5218(2) -0.1978(3)
H2B H 0.3656 0.5632 -0.2173
C5B C 0.3910(4) 0.4574(2) -0.2079(3)
C6B C 0.3419(4) 0.3959(2) -0.1787(3)
H3B H 0.3825 0.3527 -0.1855
O5B O -0.0182(4) 0.3455(2) -0.1638(3)
N1B N 0.0183(3) 0.10225(18) -0.0440(2)
C7B C 0.1312(5) 0.1364(2) -0.0244(3)
H4B H 0.1989 0.1133 0.0072
C8B C 0.1518(4) 0.2046(2) -0.0491(3)
H5B H 0.2322 0.2266 -0.0343
C9B C 0.0538(5) 0.2397(2) -0.0955(3)
C10B C -0.0642(5) 0.2040(3) -0.1171(3)
H6B H -0.1333 0.2257 -0.1488
C11B C -0.0757(5) 0.1356(2) -0.0903(3)
H7B H -0.1538 0.1116 -0.1056
C12B C 0.0683(5) 0.3128(3) -0.1264(3)
O6B O -0.0261(5) 0.5645(2) -0.2099(3)
N2B N -0.0444(6) 0.8234(2) -0.1481(3)
C13B C 0.0732(7) 0.7990(3) -0.1280(4)
H8B H 0.1371 0.8312 -0.1073
C14B C 0.1118(6) 0.7298(3) -0.1345(4)
H9B H 0.1978 0.7156 -0.1182
C15B C 0.0173(5) 0.6824(3) -0.1663(3)
C16B C -0.1083(6) 0.7066(3) -0.1882(4)
H10B H -0.1741 0.6759 -0.2096
C17B C -0.1351(7) 0.7766(3) -0.1781(4)
H11B H -0.2205 0.7925 -0.1928
C18B C 0.0494(6) 0.6057(3) -0.1773(3)
O7B O 0.3915(3) 0.4243(3) -0.3624(2)
N3B N 0.8375(3) 0.47578(18) -0.4421(2)
N3A N -0.1625(3) 0.02422(18) 0.0579(2)
N3C N 0.1625(3) -0.02422(18) -0.0579(2)
C19B C 0.8400(4) 0.4854(2) -0.3628(3)
H12B H 0.9182 0.5005 -0.3340
C20B C 0.7332(4) 0.4744(3) -0.3214(3)
H13B H 0.7394 0.4819 -0.2660
C21B C 0.6174(4) 0.4522(2) -0.3627(3)
C22B C 0.6148(4) 0.4407(3) -0.4447(3)
H14B H 0.5387 0.4242 -0.4745
C23B C 0.7246(4) 0.4539(3) -0.4815(3)
H15B H 0.7204 0.4472 -0.5370
C24B C 0.4927(4) 0.4420(3) -0.3255(3)
loop_
_geom_bond_atom_site_label_1
_geom_bond_atom_site_label_2
_geom_bond_site_symmetry_1
_geom_bond_site_symmetry_2
Cu1 O1 1_555 1_555
P1 F1 1_555 1_555
F2 P1 1_555 1_555
F3 P1 1_555 1_555
F4 P1 1_555 1_555
F5 P1 1_555 1_555
F6 P1 1_555 1_555
O2 C1 1_555 1_555
O3 C3 1_555 1_555
O4 C5 1_555 1_555
C1 C2 1_555 1_555
C2 H1 1_555 1_555
C3 C2 1_555 1_555
C4 C3 1_555 1_555
H2 C4 1_555 1_555
C5 C4 1_555 1_555
C6 C1 1_555 1_555
H3 C6 1_555 1_555
O5 C12 1_555 1_555
N1 Cu1 1_555 1_555
C7 N1 1_555 1_555
H4 C7 1_555 1_555
C8 C7 1_555 1_555
H5 C8 1_555 1_555
C9 C8 1_555 1_555
C10 C9 1_555 1_555
H6 C10 1_555 1_555
C11 N1 1_555 1_555
H7 C11 1_555 1_555
C12 O2 1_555 1_555
O6 C18 1_555 1_555
N2 C13 1_555 1_555
C13 H8 1_555 1_555
C14 C13 1_555 1_555
H9 C14 1_555 1_555
C15 C14 1_555 1_555
C16 C15 1_555 1_555
H10 C16 1_555 1_555
C17 N2 1_555 1_555
H11 C17 1_555 1_555
C18 O3 1_555 1_555
O7 C24 1_555 1_555
N3 C19 1_555 1_555
C19 H12 1_555 1_555
C20 C19 1_555 1_555
H13 C20 1_555 1_555
C21 C20 1_555 1_555
C22 C21 1_555 1_555
H14 C22 1_555 1_555
C23 N3 1_555 1_555
H15 C23 1_555 1_555
C24 O4 1_555 1_555
C25 C26 1_555 1_555
C26 C27 1_555 1_555
C27 C28 1_555 1_555
C28 H16 1_555 1_555
C29 C28 1_555 1_555
H17 C29 1_555 1_555
C30 C25 1_555 1_555
H18 C30 1_555 1_555
C31 C25 1_555 1_555
H19 C31 1_555 1_555
C32 C27 1_555 1_555
H20 C32 1_555 1_555
Cu1A N3 1_555 1_555
Cu1A_2 N3B 1_555 1_555
O1B Cu1 1_555 1_555
O2B C1B 1_555 1_555
O3B C3B 1_555 1_555
O4B C5B 1_555 1_555
C1B C2B 1_555 1_555
C2B H1B 1_555 1_555
C3B C2B 1_555 1_555
C4B C3B 1_555 1_555
H2B C4B 1_555 1_555
C5B C4B 1_555 1_555
C6B C1B 1_555 1_555
H3B C6B 1_555 1_555
O5B C12B 1_555 1_555
N1B Cu1 1_555 1_555
C7B N1B 1_555 1_555
H4B C7B 1_555 1_555
C8B C7B 1_555 1_555
H5B C8B 1_555 1_555
C9B C8B 1_555 1_555
C10B C9B 1_555 1_555
H6B C10B 1_555 1_555
C11B N1B 1_555 1_555
H7B C11B 1_555 1_555
C12B O2B 1_555 1_555
O6B C18B 1_555 1_555
N2B C13B 1_555 1_555
C13B H8B 1_555 1_555
C14B C13B 1_555 1_555
H9B C14B 1_555 1_555
C15B C14B 1_555 1_555
C16B C15B 1_555 1_555
H10B C16B 1_555 1_555
C17B N2B 1_555 1_555
H11B C17B 1_555 1_555
C18B O3B 1_555 1_555
O7B C24B 1_555 1_555
N3B C19B 1_555 1_555
N3A Cu1 1_555 1_555
N3C Cu1 1_555 1_555
C19B H12B 1_555 1_555
C20B C19B 1_555 1_555
H13B C20B 1_555 1_555
C21B C20B 1_555 1_555
C22B C21B 1_555 1_555
H14B C22B 1_555 1_555
C23B N3B 1_555 1_555
H15B C23B 1_555 1_555
C24B O4B 1_555 1_555
C25B C26B 1_555 1_555
C26B C26 1_555 1_555
C27B C26B 1_555 1_555
C28B C27B 1_555 1_555
H16B C28B 1_555 1_555
C29B C28B 1_555 1_555
H17B C29B 1_555 1_555
C30B C25B 1_555 1_555
H18B C30B 1_555 1_555
C31B C32 1_555 1_555
H19B C31B 1_555 1_555
C32B C31 1_555 1_555
H20B C32B 1_555 1_555
C5 C6 1_555 1_555
C9 C12 1_555 1_555
C10 C11 1_555 1_555
C15 C18 1_555 1_555
C16 C17 1_555 1_555
C21 C24 1_555 1_555
C22 C23 1_555 1_555
C29 C30 1_555 1_555
C5B C6B 1_555 1_555
C9B C12B 1_555 1_555
C10B C11B 1_555 1_555
C15B C18B 1_555 1_555
C16B C17B 1_555 1_555
C21B C24B 1_555 1_555
C22B C23B 1_555 1_555
C25B C31B 1_555 1_555
C27B C32B 1_555 1_555
C29B C30B 1_555 1_555

#END
