
#######################################################################
#
#                 Cambridge Crystallographic Data Centre
#                                CCDC 
#
#######################################################################
#
# If this CIF has been generated from an entry in the Cambridge 
# Structural Database, then it will include bibliographic, chemical, 
# crystal, experimental, refinement or atomic coordinate data resulting 
# from the CCDC's data processing and validation procedures.
#
#######################################################################

data_SAQSAF03
_symmetry_cell_setting           cubic
_symmetry_space_group_name_H-M   'P a -3'
_symmetry_Int_Tables_number      205
_space_group_name_Hall           '-P 2ac 2ab 3'
loop_
_symmetry_equiv_pos_site_id
_symmetry_equiv_pos_as_xyz
1 x,y,z
2 z,x,y
3 y,z,x
4 1/2-y,-z,1/2+x
5 1/2+z,1/2-x,-y
6 -y,1/2+z,1/2-x
7 1/2-z,-x,1/2+y
8 -z,1/2+x,1/2-y
9 1/2+y,1/2-z,-x
10 1/2-x,-y,1/2+z
11 1/2+x,1/2-y,-z
12 -x,1/2+y,1/2-z
13 -x,-y,-z
14 -z,-x,-y
15 -y,-z,-x
16 1/2+y,z,1/2-x
17 1/2-z,1/2+x,y
18 y,1/2-z,1/2+x
19 1/2+z,x,1/2-y
20 z,1/2-x,1/2+y
21 1/2-y,1/2+z,x
22 1/2+x,y,1/2-z
23 1/2-x,1/2+y,z
24 x,1/2-y,1/2+z
_cell_length_a                   11.78842(18)
_cell_length_b                   11.78842(18)
_cell_length_c                   11.78842(18)
_cell_angle_alpha                90
_cell_angle_beta                 90
_cell_angle_gamma                90
_cell_volume                     1638.2
loop_
_atom_site_label
_atom_site_type_symbol
_atom_site_fract_x
_atom_site_fract_y
_atom_site_fract_z
C1 C 0.0333(3) -0.0355(3) 0.3211(3)
N1 N 0.1283(2) 0.0086(3) 0.3693(3)
H1 H 0.1585 0.0670 0.3376
S1 S -0.03350(8) 0.02215(8) 0.21151(7)
Cl1 Cl 0.22508(8) 0.22508(8) 0.22508(8)
Cu1 Cu 0.10977(6) 0.10977(6) 0.10977(6)
C1E C 0.0355(3) -0.1789(3) 0.4667(3)
N1E N -0.0086(3) -0.1307(3) 0.3717(2)
H1E H -0.0670 -0.1624 0.3415
S1E S -0.02215(8) -0.28849(7) 0.53350(8)
C1F C 0.1789(3) -0.0333(3) 0.4645(3)
N1F N 0.1307(3) -0.1283(2) 0.5086(3)
H1F H 0.1624 -0.1585 0.5670
S1F S 0.28849(7) 0.03350(8) 0.52215(8)
S1A S 0.21151(7) -0.03350(8) 0.02215(8)
S1B S 0.02215(8) 0.21151(7) -0.03350(8)
Cu1C Cu 0.39023(6) -0.10977(6) 0.60977(6)
Cu1E Cu -0.10977(6) -0.39023(6) 0.39023(6)
loop_
_geom_bond_atom_site_label_1
_geom_bond_atom_site_label_2
_geom_bond_site_symmetry_1
_geom_bond_site_symmetry_2
C1 N1 1_555 1_555
N1 H1 1_555 1_555
S1 C1 1_555 1_555
Cl1 Cu1 1_555 1_555
Cu1 S1 1_555 1_555
C1E N1E 1_555 1_555
N1E C1 1_555 1_555
H1E N1E 1_555 1_555
S1E C1E 1_555 1_555
C1F N1 1_555 1_555
N1F C1E 1_555 1_555
H1F N1F 1_555 1_555
S1F C1F 1_555 1_555
S1A Cu1 1_555 1_555
S1B Cu1 1_555 1_555
Cu1C S1F 1_555 1_555
Cu1E S1E 1_555 1_555
C1F N1F 1_555 1_555

#END
