
#######################################################################
#
#                 Cambridge Crystallographic Data Centre
#                                CCDC 
#
#######################################################################
#
# If this CIF has been generated from an entry in the Cambridge 
# Structural Database, then it will include bibliographic, chemical, 
# crystal, experimental, refinement or atomic coordinate data resulting 
# from the CCDC's data processing and validation procedures.
#
#######################################################################

data_SAQSIN
_symmetry_cell_setting           cubic
_symmetry_space_group_name_H-M   'P a -3'
_symmetry_Int_Tables_number      205
_space_group_name_Hall           '-P 2ac 2ab 3'
loop_
_symmetry_equiv_pos_site_id
_symmetry_equiv_pos_as_xyz
1 x,y,z
2 z,x,y
3 y,z,x
4 1/2-x,-y,1/2+z
5 -x,1/2+y,1/2-z
6 1/2+x,1/2-y,-z
7 1/2+z,1/2-x,-y
8 1/2-z,-x,1/2+y
9 -z,1/2+x,1/2-y
10 -y,1/2+z,1/2-x
11 1/2+y,1/2-z,-x
12 1/2-y,-z,1/2+x
13 -x,-y,-z
14 -z,-x,-y
15 -y,-z,-x
16 1/2+x,y,1/2-z
17 x,1/2-y,1/2+z
18 1/2-x,1/2+y,z
19 1/2-z,1/2+x,y
20 1/2+z,x,1/2-y
21 z,1/2-x,1/2+y
22 y,1/2-z,1/2+x
23 1/2-y,1/2+z,x
24 1/2+y,z,1/2-x
_cell_length_a                   12.0266(4)
_cell_length_b                   12.0266(4)
_cell_length_c                   12.0266(4)
_cell_angle_alpha                90
_cell_angle_beta                 90
_cell_angle_gamma                90
_cell_volume                     1739.52
loop_
_atom_site_label
_atom_site_type_symbol
_atom_site_fract_x
_atom_site_fract_y
_atom_site_fract_z
Cu1 Cu 0.11946(12) 0.11946(12) 0.11946(12)
I1 I 0.24571(7) 0.24571(7) 0.24571(7)
S1 S 0.2118(2) -0.0208(2) 0.0243(2)
C1 C 0.3233(8) 0.0365(8) -0.0329(9)
N1 N 0.3699(10) -0.0059(10) -0.1252(10)
H1 H 0.372(12) -0.042(10) -0.136(12)
Cu1C Cu 0.38054(12) -0.11946(12) -0.38054(12)
Cu1E Cu 0.61946(12) 0.38054(12) -0.11946(12)
S1K S 0.5208(2) -0.0243(2) -0.2882(2)
S1F S 0.5243(2) 0.2882(2) 0.0208(2)
S1A S 0.0243(2) 0.2118(2) -0.0208(2)
S1B S -0.0208(2) 0.0243(2) 0.2118(2)
C1K C 0.4635(8) 0.0329(9) -0.1767(8)
C1F C 0.4671(9) 0.1767(8) -0.0365(8)
N1K N 0.5059(10) 0.1252(10) -0.1301(10)
N1F N 0.3748(10) 0.1301(10) 0.0059(10)
H1F H 0.364(12) 0.128(12) 0.042(10)
H1K H 0.542(10) 0.136(12) -0.128(12)
loop_
_geom_bond_atom_site_label_1
_geom_bond_atom_site_label_2
_geom_bond_site_symmetry_1
_geom_bond_site_symmetry_2
Cu1 I1 1_555 1_555
S1 Cu1 1_555 1_555
C1 S1 1_555 1_555
N1 C1 1_555 1_555
H1 N1 1_555 1_555
Cu1C S1K 1_555 1_555
Cu1E S1F 1_555 1_555
S1K C1K 1_555 1_555
S1F C1F 1_555 1_555
S1A Cu1 1_555 1_555
S1B Cu1 1_555 1_555
C1K N1 1_555 1_555
C1F N1K 1_555 1_555
N1K C1K 1_555 1_555
N1F C1 1_555 1_555
H1F N1F 1_555 1_555
H1K N1K 1_555 1_555
C1F N1F 1_555 1_555

#END
