
#######################################################################
#
#                 Cambridge Crystallographic Data Centre
#                                CCDC 
#
#######################################################################
#
# If this CIF has been generated from an entry in the Cambridge 
# Structural Database, then it will include bibliographic, chemical, 
# crystal, experimental, refinement or atomic coordinate data resulting 
# from the CCDC's data processing and validation procedures.
#
#######################################################################

data_SAQYEO
_symmetry_cell_setting           orthorhombic
_symmetry_space_group_name_H-M   'P c c a'
_symmetry_Int_Tables_number      54
_space_group_name_Hall           '-P 2a 2ac'
loop_
_symmetry_equiv_pos_site_id
_symmetry_equiv_pos_as_xyz
1 x,y,z
2 1/2-x,-y,z
3 -x,y,1/2-z
4 1/2+x,-y,1/2-z
5 -x,-y,-z
6 1/2+x,y,-z
7 x,-y,1/2+z
8 1/2-x,y,1/2+z
_cell_length_a                   7.304(3)
_cell_length_b                   9.981(3)
_cell_length_c                   19.956(6)
_cell_angle_alpha                90
_cell_angle_beta                 90
_cell_angle_gamma                90
_cell_volume                     1454.82
loop_
_atom_site_label
_atom_site_type_symbol
_atom_site_fract_x
_atom_site_fract_y
_atom_site_fract_z
O6 O -0.3219(4) -0.3747(2) 0.27610(11)
H7 H -0.3166(65) -0.3389(42) 0.3050(22)
Cd1 Cd 0.2500 0.0000 0.102151(12)
O1 O 0.2220(11) -0.0032(10) 0.2152(2)
O2 O -0.0480(3) 0.0635(2) 0.10108(9)
O3 O 0.1443(2) -0.2363(2) 0.11871(8)
O4 O 0.1825(2) -0.15615(15) 0.01717(8)
C1 C 0.1353(3) -0.2494(2) 0.05565(11)
C2 C 0.0656(3) -0.3795(2) 0.02666(11)
C3 C 0.0601(3) -0.3993(2) -0.04228(11)
C4 C 0.0046(4) -0.4817(2) 0.06867(13)
H1 H 0.1035(32) -0.3360(23) -0.0706(12)
H2 H 0.0066(43) -0.4687(30) 0.1145(14)
H3 H -0.0863(43) 0.0959(31) 0.0636(18)
H4 H -0.1093(56) 0.0986(39) 0.1301(19)
O1A O 0.2780(11) 0.0032(10) 0.2152(2)
O2A O 0.5480(3) -0.0635(2) 0.10108(9)
H3A H 0.5863(43) -0.0959(31) 0.0636(18)
H4A H 0.6093(56) -0.0986(39) 0.1301(19)
O3A O 0.3557(2) 0.2363(2) 0.11871(8)
C1A C 0.3647(3) 0.2494(2) 0.05565(11)
O4A O 0.3175(2) 0.15615(15) 0.01717(8)
C2A C 0.4344(3) 0.3795(2) 0.02666(11)
C3A C 0.4399(3) 0.3993(2) -0.04228(11)
C4E C 0.5046(4) 0.5183(2) -0.06867(13)
C2E C 0.5656(3) 0.6205(2) -0.02666(11)
C1E C 0.6353(3) 0.7506(2) -0.05565(11)
O3E O 0.6443(2) 0.7637(2) -0.11871(8)
Cd1E Cd 0.7500 1.0000 -0.102151(12)
O1E O 0.7220(11) 0.9968(10) -0.2152(2)
O1D O 0.7780(11) 1.0032(10) -0.2152(2)
O2E O 0.4520(3) 1.0635(2) -0.10108(9)
H3E H 0.4137(43) 1.0959(31) -0.0636(18)
H4E H 0.3907(56) 1.0986(39) -0.1301(19)
O2D O 1.0480(3) 0.9365(2) -0.10108(9)
H3D H 1.0863(43) 0.9041(31) -0.0636(18)
H4D H 1.1093(56) 0.9014(39) -0.1301(19)
O3D O 0.8557(2) 1.2363(2) -0.11871(8)
C1D C 0.8647(3) 1.2494(2) -0.05565(11)
O4D O 0.8175(2) 1.15615(15) -0.01717(8)
O4E O 0.6825(2) 0.84385(15) -0.01717(8)
C2D C 0.9344(3) 1.3795(2) -0.02666(11)
C3D C 0.9399(3) 1.3993(2) 0.04228(11)
C4_2 C 1.0046(4) 1.5183(2) 0.06867(13)
C2_2 C 1.0656(3) 1.6205(2) 0.02666(11)
C1_2 C 1.1353(3) 1.7506(2) 0.05565(11)
O3_2 O 1.1443(2) 1.7637(2) 0.11871(8)
Cd1_2 Cd 1.2500 2.0000 0.102151(12)
O4_2 O 1.1825(2) 1.84385(15) 0.01717(8)
C3_2 C 1.0601(3) 1.6007(2) -0.04228(11)
C4D C 0.9954(4) 1.4817(2) -0.06867(13)
H2D H 0.9934(43) 1.4687(30) -0.1145(14)
H1_2 H 1.1035(32) 1.6640(23) -0.0706(12)
H2_2 H 1.0066(43) 1.5313(30) 0.1145(14)
H1D H 0.8965(32) 1.3360(23) 0.0706(12)
C3E C 0.5601(3) 0.6007(2) 0.04228(11)
C4A C 0.4954(4) 0.4817(2) 0.06867(13)
H2A H 0.4934(43) 0.4687(30) 0.1145(14)
H1E H 0.6035(32) 0.6640(23) 0.0706(12)
H2E H 0.5066(43) 0.5313(30) -0.1145(14)
H1A H 0.3965(32) 0.3360(23) -0.0706(12)
C3D_2 C -0.0601(3) -0.6007(2) 0.04228(11)
C4D_2 C -0.0046(4) -0.5183(2) -0.06867(13)
C2D_2 C -0.0656(3) -0.6205(2) -0.02666(11)
C1D_2 C -0.1353(3) -0.7506(2) -0.05565(11)
O3D_2 O -0.1443(2) -0.7637(2) -0.11871(8)
Cd1E_2 Cd -0.2500 -1.0000 -0.102151(12)
O4D_2 O -0.1825(2) -0.84385(15) -0.01717(8)
H2D_2 H -0.0066(43) -0.5313(30) -0.1145(14)
O5 O -0.1919(3) -0.1894(2) 0.18597(10)
H5 H -0.2217(49) -0.2598(35) 0.2062(22)
H6 H -0.0841(58) -0.2017(38) 0.1635(21)
loop_
_geom_bond_atom_site_label_1
_geom_bond_atom_site_label_2
_geom_bond_site_symmetry_1
_geom_bond_site_symmetry_2
Cd1 O1 1_555 1_555
O1 O1A 1_555 1_555
O2 Cd1 1_555 1_555
O3 Cd1 1_555 1_555
O4 Cd1 1_555 1_555
C1 O3 1_555 1_555
C2 C1 1_555 1_555
C3 C2 1_555 1_555
C4 C2 1_555 1_555
O5 H5 1_555 1_555
O6 H7 1_555 1_555
H1 C3 1_555 1_555
H2 C4 1_555 1_555
H3 O2 1_555 1_555
H4 O2 1_555 1_555
H6 O5 1_555 1_555
O1A Cd1 1_555 1_555
O2A Cd1 1_555 1_555
H3A O2A 1_555 1_555
H4A O2A 1_555 1_555
O3A Cd1 1_555 1_555
C1A O3A 1_555 1_555
O4A Cd1 1_555 1_555
C2A C1A 1_555 1_555
C3A C2A 1_555 1_555
C4E C3A 1_555 1_555
C2E C4E 1_555 1_555
C1E C2E 1_555 1_555
O3E C1E 1_555 1_555
Cd1E O3E 1_555 1_555
O1E Cd1E 1_555 1_555
O1D Cd1E 1_555 1_555
O2E Cd1E 1_555 1_555
H3E O2E 1_555 1_555
H4E O2E 1_555 1_555
O2D Cd1E 1_555 1_555
H3D O2D 1_555 1_555
H4D O2D 1_555 1_555
O3D Cd1E 1_555 1_555
C1D O3D 1_555 1_555
O4D Cd1E 1_555 1_555
O4E C1E 1_555 1_555
C2D C1D 1_555 1_555
C3D C2D 1_555 1_555
C4_2 C3D 1_555 1_555
C2_2 C4_2 1_555 1_555
C1_2 C2_2 1_555 1_555
O3_2 C1_2 1_555 1_555
Cd1_2 O3_2 1_555 1_555
O4_2 C1_2 1_555 1_555
C3_2 C2_2 1_555 1_555
C4D C2D 1_555 1_555
H2D C4D 1_555 1_555
H1_2 C3_2 1_555 1_555
H2_2 C4_2 1_555 1_555
H1D C3D 1_555 1_555
C3E C2E 1_555 1_555
C4A C2A 1_555 1_555
H2A C4A 1_555 1_555
H1E C3E 1_555 1_555
H2E C4E 1_555 1_555
H1A C3A 1_555 1_555
C3D_2 C4 1_555 1_555
C4D_2 C3 1_555 1_555
C2D_2 C3D_2 1_555 1_555
C1D_2 C2D_2 1_555 1_555
O3D_2 C1D_2 1_555 1_555
Cd1E_2 O3D_2 1_555 1_555
O4D_2 C1D_2 1_555 1_555
H2D_2 C4D_2 1_555 1_555
O4 C1 1_555 1_555
C1A O4A 1_555 1_555
Cd1E O4E 1_555 1_555
O1E O1D 1_555 1_555
C1D O4D 1_555 1_555
Cd1_2 O4_2 1_555 1_555
C3_2 C4D 1_555 1_555
C3E C4A 1_555 1_555
C4D_2 C2D_2 1_555 1_555
Cd1E_2 O4D_2 1_555 1_555

#END
