
#######################################################################
#
#                 Cambridge Crystallographic Data Centre
#                                CCDC 
#
#######################################################################
#
# If this CIF has been generated from an entry in the Cambridge 
# Structural Database, then it will include bibliographic, chemical, 
# crystal, experimental, refinement or atomic coordinate data resulting 
# from the CCDC's data processing and validation procedures.
#
#######################################################################

data_SAQYAL
_symmetry_cell_setting           monoclinic
_symmetry_space_group_name_H-M   'P 21/c'
_symmetry_Int_Tables_number      14
_space_group_name_Hall           '-P 2ybc'
loop_
_symmetry_equiv_pos_site_id
_symmetry_equiv_pos_as_xyz
1 x,y,z
2 -x,1/2+y,1/2-z
3 -x,-y,-z
4 x,1/2-y,1/2+z
_cell_length_a                   6.4492(5)
_cell_length_b                   25.388(2)
_cell_length_c                   14.1833(11)
_cell_angle_alpha                90
_cell_angle_beta                 90.952(5)
_cell_angle_gamma                90
_cell_volume                     2321.94
loop_
_atom_site_label
_atom_site_type_symbol
_atom_site_fract_x
_atom_site_fract_y
_atom_site_fract_z
Fe1 Fe 0.04906(8) 0.32414(2) 0.88263(4)
Fe2 Fe 0.25412(8) 0.54698(2) 0.58968(4)
S2 S -0.25437(13) 0.52086(3) 0.61088(6)
O5 O -0.3060(4) 0.49892(9) 0.70212(16)
O6 O -0.0683(4) 0.55416(9) 0.61878(18)
O7 O -0.2149(4) 0.47725(9) 0.54492(17)
O8 O -0.4234(4) 0.55538(9) 0.57344(17)
O9 O 0.2222(4) 0.62920(9) 0.56659(17)
O10 O -0.0083(4) 0.28384(10) 1.00466(18)
O11 O -0.2442(4) 0.36097(10) 0.89204(17)
O12 O -0.0675(4) 0.27293(9) 0.77972(18)
O13 O 0.3437(4) 0.28811(10) 0.87041(17)
N1 N 0.1687(4) 0.39329(11) 0.9680(2)
N2 N 0.1316(4) 0.38453(11) 0.7781(2)
N3 N 0.2221(4) 0.47073(11) 0.6624(2)
N4 N 0.2946(4) 0.56651(11) 0.7409(2)
N5 N 0.3107(5) 0.57988(12) 0.9366(2)
N6 N 0.2510(4) 0.49123(12) 1.0528(2)
C1 C 0.2175(5) 0.44812(14) 1.1027(3)
H1 H 0.2209 0.4504 1.1681
C2 C 0.1770(5) 0.39906(14) 1.0608(2)
H2 H 0.1556 0.3699 1.0991
C3 C 0.1211(5) 0.38152(14) 0.6851(3)
H3 H 0.0799 0.3500 0.6573
C4 C 0.1698(5) 0.42435(14) 0.6269(3)
H4 H 0.1653 0.4200 0.5618
C5 C 0.3276(5) 0.61327(14) 0.7798(3)
H5 H 0.3463 0.6425 0.7414
C6 C 0.3346(5) 0.61918(14) 0.8774(3)
H6 H 0.3575 0.6527 0.9020
C7 C 0.2463(5) 0.48589(14) 0.9581(3)
C8 C 0.2030(5) 0.43741(13) 0.9160(2)
C9 C 0.1889(5) 0.43182(14) 0.8149(3)
C10 C 0.2282(5) 0.47485(13) 0.7581(2)
C11 C 0.2703(5) 0.52563(13) 0.7996(2)
C12 C 0.2757(5) 0.53184(14) 0.8975(3)
H7 H 0.286(3) 0.6466(10) 0.5173(13)
H8 H 0.082(2) 0.2613(9) 1.033(2)
H9 H -0.284(5) 0.3745(10) 0.8356(9)
H10 H 0.019(2) 0.2463(8) 0.763(2)
H11 H 0.403(4) 0.2828(13) 0.8129(8)
H12 H 0.088(2) 0.6399(12) 0.5748(18)
H13 H -0.1442(18) 0.2789(11) 1.019(2)
H14 H -0.245(5) 0.3845(8) 0.9414(10)
H15 H -0.198(2) 0.2699(11) 0.755(2)
H16 H 0.428(3) 0.2833(13) 0.9205(10)
Fe2B Fe -0.25412(8) 0.45302(2) 0.41032(4)
Fe2_2 Fe -0.74588(8) 0.54698(2) 0.58968(4)
O7B O 0.2149(4) 0.52275(9) 0.45508(17)
O8_2 O 0.5766(4) 0.55538(9) 0.57344(17)
S1 S -0.49140(14) 0.27349(3) 0.59910(6)
O1 O -0.7138(4) 0.28169(10) 0.57931(17)
O2 O -0.4110(4) 0.23370(9) 0.53284(17)
O3 O -0.3770(4) 0.32318(10) 0.58755(18)
O4 O -0.4636(4) 0.25435(10) 0.69745(17)
O14 O -0.3940(4) 0.39502(9) 0.73115(17)
H17 H -0.380(5) 0.3727(6) 0.6820(13)
H18 H -0.355(5) 0.4288(5) 0.7217(19)
O15 O 0.1794(4) 0.31047(9) 1.23660(18)
H19 H 0.285(3) 0.2877(8) 1.2206(16)
H20 H 0.201(4) 0.3241(9) 1.2960(11)
O16 O -0.7981(4) 0.34240(10) 0.42288(18)
H21 H -0.733(4) 0.3736(5) 0.4204(18)
H22 H -0.762(5) 0.3226(7) 0.4751(13)
loop_
_geom_bond_atom_site_label_1
_geom_bond_atom_site_label_2
_geom_bond_site_symmetry_1
_geom_bond_site_symmetry_2
Fe1 O10 1_555 1_555
Fe2 O6 1_555 1_555
S1 O1 1_555 1_555
S2 O5 1_555 1_555
O2 S1 1_555 1_555
O3 S1 1_555 1_555
O4 S1 1_555 1_555
O6 S2 1_555 1_555
O7 S2 1_555 1_555
O8 S2 1_555 1_555
O9 Fe2 1_555 1_555
O10 H8 1_555 1_555
O11 Fe1 1_555 1_555
O12 Fe1 1_555 1_555
O13 Fe1 1_555 1_555
O14 H17 1_555 1_555
O15 H19 1_555 1_555
O16 H21 1_555 1_555
N1 Fe1 1_555 1_555
N2 Fe1 1_555 1_555
N3 Fe2 1_555 1_555
N4 Fe2 1_555 1_555
N5 C6 1_555 1_555
N6 C1 1_555 1_555
C1 H1 1_555 1_555
C2 N1 1_555 1_555
H2 C2 1_555 1_555
C3 N2 1_555 1_555
H3 C3 1_555 1_555
C4 N3 1_555 1_555
H4 C4 1_555 1_555
C5 N4 1_555 1_555
H5 C5 1_555 1_555
C6 C5 1_555 1_555
H6 C6 1_555 1_555
C7 N6 1_555 1_555
C8 N1 1_555 1_555
C9 N2 1_555 1_555
C10 N3 1_555 1_555
C11 N4 1_555 1_555
C12 N5 1_555 1_555
H7 O9 1_555 1_555
H9 O11 1_555 1_555
H10 O12 1_555 1_555
H11 O13 1_555 1_555
H12 O9 1_555 1_555
H13 O10 1_555 1_555
H14 O11 1_555 1_555
H15 O12 1_555 1_555
H16 O13 1_555 1_555
H18 O14 1_555 1_555
H20 O15 1_555 1_555
H22 O16 1_555 1_555
Fe2B O7 1_555 1_555
Fe2_2 O8 1_555 1_555
O7B Fe2 1_555 1_555
O8_2 Fe2 1_555 1_555
C1 C2 1_555 1_555
C3 C4 1_555 1_555
C7 C8 1_555 1_555
C7 C12 1_555 1_555
C8 C9 1_555 1_555
C9 C10 1_555 1_555
C10 C11 1_555 1_555
C11 C12 1_555 1_555

#END
