
#######################################################################
#
#                 Cambridge Crystallographic Data Centre
#                                CCDC 
#
#######################################################################
#
# If this CIF has been generated from an entry in the Cambridge 
# Structural Database, then it will include bibliographic, chemical, 
# crystal, experimental, refinement or atomic coordinate data resulting 
# from the CCDC's data processing and validation procedures.
#
#######################################################################

data_SAQYUF
_symmetry_cell_setting           triclinic
_symmetry_space_group_name_H-M   'P -1'
_symmetry_Int_Tables_number      2
_space_group_name_Hall           '-P 1'
loop_
_symmetry_equiv_pos_site_id
_symmetry_equiv_pos_as_xyz
1 x,y,z
2 -x,-y,-z
_cell_length_a                   8.268(2)
_cell_length_b                   10.003(2)
_cell_length_c                   17.156(4)
_cell_angle_alpha                80.524(5)
_cell_angle_beta                 81.164(5)
_cell_angle_gamma                72.404(5)
_cell_volume                     1325.88
loop_
_atom_site_label
_atom_site_type_symbol
_atom_site_fract_x
_atom_site_fract_y
_atom_site_fract_z
Pt1 Pt 0.68000(8) 0.88839(8) 0.27951(3)
Cu1 Cu 1.5000 0.5000 0.5000
Cu2 Cu 1.5000 1.0000 0.0000
O1 O 1.4083(11) 0.6889(10) 0.4518(8)
O2 O 1.3069(14) 0.4660(13) 0.4643(11)
O3 O 1.3777(15) 1.0789(18) 0.0914(6)
O4 O 1.3319(17) 0.899(2) 0.0098(7)
N1 N 0.8259(13) 0.6971(14) 0.3275(8)
C1 C 0.9610(17) 0.7014(18) 0.3588(9)
H1 H 0.9828 0.7895 0.3584
C2 C 1.0708(18) 0.5779(17) 0.3920(14)
C3 C 1.034(2) 0.448(2) 0.3948(19)
H2 H 1.1027 0.3625 0.4200
C4 C 0.892(2) 0.451(2) 0.3588(19)
H3 H 0.8685 0.3656 0.3540
C5 C 0.788(2) 0.576(2) 0.3310(14)
H4 H 0.6842 0.5785 0.3133
N2 N 0.8262(17) 0.8501(19) 0.1766(7)
C6 C 0.958(2) 0.905(3) 0.1563(9)
H5 H 0.9764 0.9619 0.1914
C7 C 1.068(3) 0.884(3) 0.0891(9)
C8 C 1.040(3) 0.799(3) 0.0356(11)
H6 H 1.1190 0.7728 -0.0095
C9 C 0.897(3) 0.758(3) 0.0522(13)
H7 H 0.8684 0.7097 0.0152
C10 C 0.788(2) 0.784(3) 0.1237(10)
H8 H 0.6878 0.7540 0.1340
N3 N 1.2664(14) 0.6932(13) 0.4199(9)
H9 H 1.2080 0.7727 0.3945
N4 N 1.234(2) 1.024(2) 0.1120(8)
H10 H 1.1609 1.0482 0.1537
N5 N 0.5473(13) 0.9214(12) 0.3862(6)
H11 H 0.5013 0.8489 0.4051
H12 H 0.4623 1.0040 0.3813
H13 H 0.6183 0.9264 0.4206
N6 N 0.5432(15) 1.0785(14) 0.2306(7)
H14 H 0.4830 1.0665 0.1934
H15 H 0.6153 1.1302 0.2071
H16 H 0.4698 1.1249 0.2691
C11 C 1.218(2) 0.5834(19) 0.4266(14)
C12 C 1.216(3) 0.942(3) 0.0690(9)
Pt1A Pt 2.32000(8) 0.11161(8) 0.72049(3)
Cu2_2 Cu 1.5000 0.0000 1.0000
O1A O 1.5917(11) 0.3111(10) 0.5482(8)
O2A O 1.6931(14) 0.5340(13) 0.5357(11)
O3A O 1.6223(15) -0.0789(18) 0.9086(6)
O3A_2 O 1.6223(15) 0.9211(18) -0.0914(6)
O4A O 1.6681(17) 0.101(2) 0.9902(7)
O4A_2 O 1.6681(17) 1.101(2) -0.0098(7)
N1A N 2.1741(13) 0.3029(14) 0.6725(8)
C1A C 2.0390(17) 0.2986(18) 0.6412(9)
H1A H 2.0172 0.2105 0.6416
C2A C 1.9292(18) 0.4221(17) 0.6080(14)
C3A C 1.966(2) 0.552(2) 0.6052(19)
H2A H 1.8973 0.6375 0.5800
C4A C 2.108(2) 0.549(2) 0.6412(19)
H3A H 2.1315 0.6344 0.6460
C5A C 2.212(2) 0.424(2) 0.6690(14)
H4A H 2.3158 0.4215 0.6867
N2A N 2.1738(17) 0.1499(19) 0.8234(7)
C6A C 2.042(2) 0.095(3) 0.8437(9)
H5A H 2.0236 0.0381 0.8086
C7A C 1.932(3) 0.116(3) 0.9109(9)
C8A C 1.960(3) 0.201(3) 0.9644(11)
H6A H 1.8810 0.2272 1.0095
C9A C 2.103(3) 0.242(3) 0.9478(13)
H7A H 2.1316 0.2903 0.9848
C10A C 2.212(2) 0.216(3) 0.8763(10)
H8A H 2.3122 0.2460 0.8660
N3A N 1.7336(14) 0.3068(13) 0.5801(9)
H9A H 1.7920 0.2273 0.6055
N4A N 1.766(2) -0.024(2) 0.8880(8)
H10A H 1.8391 -0.0482 0.8463
N5A N 2.4527(13) 0.0786(12) 0.6138(6)
H11A H 2.4987 0.1511 0.5949
H12A H 2.5377 -0.0040 0.6187
H13A H 2.3817 0.0736 0.5794
N6A N 2.4568(15) -0.0785(14) 0.7694(7)
H14A H 2.5170 -0.0665 0.8066
H15A H 2.3847 -0.1302 0.7929
H16A H 2.5302 -0.1249 0.7309
C11A C 1.782(2) 0.4166(19) 0.5734(14)
C12A C 1.784(3) 0.058(3) 0.9310(9)
S1 S 1.1051(4) 1.0730(4) 0.3187(2)
O5 O 1.2213(12) 1.1321(10) 0.3490(5)
O6 O 0.9494(12) 1.0845(12) 0.3729(5)
O7 O 1.1884(12) 0.9238(11) 0.3062(5)
O8 O 1.0656(13) 1.1540(13) 0.2392(6)
O9 O 0.8073(13) 0.9082(12) 0.4850(6)
O10 O 0.3994(15) 0.7755(12) 0.6180(8)
O11 O 0.5730(15) 0.2777(16) 0.7920(8)
O12 O 0.2307(15) 0.7442(15) 0.8368(7)
O13 O 0.571(2) 0.5493(16) 0.7248(12)
O14 O 0.338(4) 0.400(2) 1.0549(12)
O15 O 0.422(3) 0.479(2) 0.9024(9)
O16 O 0.828(4) 0.589(3) 0.7950(16)
loop_
_geom_bond_atom_site_label_1
_geom_bond_atom_site_label_2
_geom_bond_site_symmetry_1
_geom_bond_site_symmetry_2
Pt1 N1 1_555 1_555
Cu1 O1 1_555 1_555
Cu2 O3 1_555 1_555
O1 N3 1_555 1_555
O2 Cu1 1_555 1_555
O3 N4 1_555 1_555
O4 Cu2 1_555 1_555
N1 C1 1_555 1_555
C1 H1 1_555 1_555
C2 C1 1_555 1_555
C3 C2 1_555 1_555
H2 C3 1_555 1_555
C4 C3 1_555 1_555
H3 C4 1_555 1_555
C5 N1 1_555 1_555
H4 C5 1_555 1_555
N2 Pt1 1_555 1_555
C6 N2 1_555 1_555
H5 C6 1_555 1_555
C7 C6 1_555 1_555
C8 C7 1_555 1_555
H6 C8 1_555 1_555
C9 C8 1_555 1_555
H7 C9 1_555 1_555
C10 N2 1_555 1_555
H8 C10 1_555 1_555
N3 H9 1_555 1_555
N4 H10 1_555 1_555
N5 Pt1 1_555 1_555
H11 N5 1_555 1_555
H12 N5 1_555 1_555
H13 N5 1_555 1_555
N6 Pt1 1_555 1_555
H14 N6 1_555 1_555
H15 N6 1_555 1_555
H16 N6 1_555 1_555
C11 O2 1_555 1_555
C12 O4 1_555 1_555
S1 O5 1_555 1_555
O6 S1 1_555 1_555
O7 S1 1_555 1_555
O8 S1 1_555 1_555
Pt1A N1A 1_555 1_555
Cu2_2 O3A 1_555 1_555
O1A Cu1 1_555 1_555
O2A Cu1 1_555 1_555
O3A N4A 1_555 1_555
O3A_2 Cu2 1_555 1_555
O4A Cu2_2 1_555 1_555
O4A_2 Cu2 1_555 1_555
N1A C1A 1_555 1_555
C1A H1A 1_555 1_555
C2A C1A 1_555 1_555
C3A C2A 1_555 1_555
H2A C3A 1_555 1_555
C4A C3A 1_555 1_555
H3A C4A 1_555 1_555
C5A N1A 1_555 1_555
H4A C5A 1_555 1_555
N2A Pt1A 1_555 1_555
C6A N2A 1_555 1_555
H5A C6A 1_555 1_555
C7A C6A 1_555 1_555
C8A C7A 1_555 1_555
H6A C8A 1_555 1_555
C9A C8A 1_555 1_555
H7A C9A 1_555 1_555
C10A N2A 1_555 1_555
H8A C10A 1_555 1_555
N3A O1A 1_555 1_555
H9A N3A 1_555 1_555
N4A H10A 1_555 1_555
N5A Pt1A 1_555 1_555
H11A N5A 1_555 1_555
H12A N5A 1_555 1_555
H13A N5A 1_555 1_555
N6A Pt1A 1_555 1_555
H14A N6A 1_555 1_555
H15A N6A 1_555 1_555
H16A N6A 1_555 1_555
C11A O2A 1_555 1_555
C12A O4A 1_555 1_555
C2 C11 1_555 1_555
C4 C5 1_555 1_555
C7 C12 1_555 1_555
C9 C10 1_555 1_555
N3 C11 1_555 1_555
N4 C12 1_555 1_555
C2A C11A 1_555 1_555
C4A C5A 1_555 1_555
C7A C12A 1_555 1_555
C9A C10A 1_555 1_555
N3A C11A 1_555 1_555
N4A C12A 1_555 1_555

#END
