
#######################################################################
#
#                 Cambridge Crystallographic Data Centre
#                                CCDC 
#
#######################################################################
#
# If this CIF has been generated from an entry in the Cambridge 
# Structural Database, then it will include bibliographic, chemical, 
# crystal, experimental, refinement or atomic coordinate data resulting 
# from the CCDC's data processing and validation procedures.
#
#######################################################################

data_SAQYOZ
_symmetry_cell_setting           monoclinic
_symmetry_space_group_name_H-M   'P 21/n'
_symmetry_Int_Tables_number      14
_space_group_name_Hall           '-P 2yn'
loop_
_symmetry_equiv_pos_site_id
_symmetry_equiv_pos_as_xyz
1 x,y,z
2 1/2-x,1/2+y,1/2-z
3 -x,-y,-z
4 1/2+x,1/2-y,1/2+z
_cell_length_a                   6.2531(4)
_cell_length_b                   10.6598(6)
_cell_length_c                   8.5163(5)
_cell_angle_alpha                90
_cell_angle_beta                 101.4260(10)
_cell_angle_gamma                90
_cell_volume                     556.419
loop_
_atom_site_label
_atom_site_type_symbol
_atom_site_fract_x
_atom_site_fract_y
_atom_site_fract_z
Zn1 Zn 0.15651(4) 0.89560(2) 0.72145(3)
P1 P 0.25618(9) 0.66097(5) 0.90279(7)
N1 N 0.0285(3) 0.87672(16) 0.9314(2)
O1 O 0.3431(3) 0.74973(16) 0.78950(19)
O2 O 0.1811(3) 0.53594(15) 0.8238(2)
O3 O 0.4090(3) 0.64670(18) 1.0613(2)
C1 C 0.0097(4) 0.73700(19) 0.9398(3)
C2 C -0.1917(4) 0.9333(2) 0.9251(3)
C3 C 0.1775(4) 0.9252(2) 1.0762(3)
H1 H -0.109(5) 0.704(3) 0.873(4)
H2 H -0.024(5) 0.705(3) 1.038(4)
H3 H -0.293(5) 0.907(2) 0.823(4)
H4 H -0.242(5) 0.901(2) 1.023(4)
H5 H 0.312(5) 0.887(3) 1.082(4)
H6 H 0.129(5) 0.887(3) 1.165(4)
Zn1B Zn -0.15651(4) 1.10440(2) 1.27855(3)
Zn1A Zn 0.34349(4) 0.39560(2) 0.77855(3)
Zn1C Zn 0.65651(4) 0.60440(2) 1.22145(3)
Zn1C_2 Zn -0.34349(4) 1.60440(2) 1.22145(3)
Zn1A_2 Zn -0.65651(4) 1.39560(2) 0.77855(3)
P1B P -0.25618(9) 1.33903(5) 1.09721(7)
N1B N -0.0285(3) 1.12328(16) 1.0686(2)
O1B O -0.3431(3) 1.25027(16) 1.21050(19)
O2B O -0.1811(3) 1.46406(15) 1.1762(2)
O2A O 0.3189(3) 1.03594(15) 0.6762(2)
O2C O -0.3189(3) 0.96406(15) 1.3238(2)
O3B O -0.4090(3) 1.35330(18) 0.9387(2)
O3C O -0.0910(3) 0.85330(18) 0.5613(2)
O3A O 0.0910(3) 1.14670(18) 1.4387(2)
C1B C -0.0097(4) 1.26300(19) 1.0602(3)
C2B C 0.1917(4) 1.0667(2) 1.0749(3)
C3B C -0.1775(4) 1.0748(2) 0.9238(3)
H1B H 0.109(5) 1.296(3) 1.127(4)
H2B H 0.024(5) 1.295(3) 0.962(4)
H3B H 0.293(5) 1.093(2) 1.177(4)
H4B H 0.242(5) 1.099(2) 0.977(4)
H5B H -0.312(5) 1.113(3) 0.918(4)
H6B H -0.129(5) 1.113(3) 0.835(4)
loop_
_geom_bond_atom_site_label_1
_geom_bond_atom_site_label_2
_geom_bond_site_symmetry_1
_geom_bond_site_symmetry_2
Zn1 N1 1_555 1_555
P1 O1 1_555 1_555
N1 C1 1_555 1_555
O1 Zn1 1_555 1_555
O2 P1 1_555 1_555
O3 P1 1_555 1_555
C1 P1 1_555 1_555
C2 N1 1_555 1_555
C3 N1 1_555 1_555
H1 C1 1_555 1_555
H2 C1 1_555 1_555
H3 C2 1_555 1_555
H4 C2 1_555 1_555
H5 C3 1_555 1_555
H6 C3 1_555 1_555
Zn1B N1B 1_555 1_555
Zn1A O2 1_555 1_555
Zn1C O3 1_555 1_555
Zn1C_2 O2B 1_555 1_555
Zn1A_2 O3B 1_555 1_555
P1B O1B 1_555 1_555
N1B C1B 1_555 1_555
O1B Zn1B 1_555 1_555
O2B P1B 1_555 1_555
O2A Zn1 1_555 1_555
O2C Zn1B 1_555 1_555
O3B P1B 1_555 1_555
O3C Zn1 1_555 1_555
O3A Zn1B 1_555 1_555
C1B P1B 1_555 1_555
C2B C3 1_555 1_555
C3B C2 1_555 1_555
H1B C1B 1_555 1_555
H2B C1B 1_555 1_555
H3B C2B 1_555 1_555
H4B C2B 1_555 1_555
H5B C3B 1_555 1_555
H6B C3B 1_555 1_555
N1B C2B 1_555 1_555
N1B C3B 1_555 1_555

#END
