
#######################################################################
#
#                 Cambridge Crystallographic Data Centre
#                                CCDC 
#
#######################################################################
#
# If this CIF has been generated from an entry in the Cambridge 
# Structural Database, then it will include bibliographic, chemical, 
# crystal, experimental, refinement or atomic coordinate data resulting 
# from the CCDC's data processing and validation procedures.
#
#######################################################################

data_SAQYEO03
_symmetry_cell_setting           orthorhombic
_symmetry_space_group_name_H-M   'P c c a'
_symmetry_Int_Tables_number      54
_space_group_name_Hall           '-P 2a 2ac'
loop_
_symmetry_equiv_pos_site_id
_symmetry_equiv_pos_as_xyz
1 x,y,z
2 1/2-x,-y,z
3 -x,y,1/2-z
4 1/2+x,-y,1/2-z
5 -x,-y,-z
6 1/2+x,y,-z
7 x,-y,1/2+z
8 1/2-x,y,1/2+z
_cell_length_a                   7.30180(10)
_cell_length_b                   9.9975(3)
_cell_length_c                   19.9695(5)
_cell_angle_alpha                90
_cell_angle_beta                 90
_cell_angle_gamma                90
_cell_volume                     1457.77
loop_
_atom_site_label
_atom_site_type_symbol
_atom_site_fract_x
_atom_site_fract_y
_atom_site_fract_z
Cd1 Cd 0.2500 0.5000 0.397842(17)
O1 O 0.2500 0.5000 0.2857(3)
O2 O 0.1445(4) 0.2636(2) 0.38124(12)
O3 O -0.0469(4) 0.5628(4) 0.39898(16)
H1 H -0.0744 0.5892 0.4365
O4 O 0.1822(4) 0.3440(2) 0.48275(13)
C1 C 0.0598(5) 0.1002(3) 0.54253(17)
H2 H 0.1001 0.1672 0.5713
C2 C 0.1350(5) 0.2503(3) 0.44446(18)
C3 C 0.0655(5) 0.1208(3) 0.47351(17)
C4 C -0.0049(5) -0.0183(3) 0.56862(18)
H3 H -0.0083 -0.0302 0.6148
H5 H 0.220(7) 0.444(5) 0.265(3)
H9 H -0.100(7) 0.589(5) 0.373(2)
Cd1D Cd -0.2500 -0.5000 0.602158(17)
O2D O -0.1445(4) -0.2636(2) 0.61876(12)
O2A O 0.3555(4) 0.7364(2) 0.38124(12)
O3A O 0.5469(4) 0.4372(4) 0.39898(16)
H1A H 0.5744 0.4108 0.4365
O4D O -0.1822(4) -0.3440(2) 0.51725(13)
O4A O 0.3178(4) 0.6560(2) 0.48275(13)
C1D C -0.0598(5) -0.1002(3) 0.45747(17)
H2D H -0.1001 -0.1672 0.4287
C2D C -0.1350(5) -0.2503(3) 0.55554(18)
C3D C -0.0655(5) -0.1208(3) 0.52649(17)
C4D C 0.0049(5) 0.0183(3) 0.43138(18)
H3D H 0.0083 0.0302 0.3852
H5A H 0.280(7) 0.556(5) 0.265(3)
H9A H 0.600(7) 0.411(5) 0.373(2)
O5 O -0.1782(6) 0.1254(4) 0.7239(2)
H6 H -0.210(9) 0.161(7) 0.695(4)
H7 H -0.12(2) 0.091(14) 0.739(12)
O6 O 0.1932(5) 0.3103(4) 0.18606(16)
H4 H 0.216(7) 0.232(5) 0.210(3)
H8 H 0.087(9) 0.290(6) 0.167(3)
loop_
_geom_bond_atom_site_label_1
_geom_bond_atom_site_label_2
_geom_bond_site_symmetry_1
_geom_bond_site_symmetry_2
Cd1 O1 1_555 1_555
O1 H5 1_555 1_555
O2 Cd1 1_555 1_555
O3 Cd1 1_555 1_555
H1 O3 1_555 1_555
O4 Cd1 1_555 1_555
C1 H2 1_555 1_555
C2 O2 1_555 1_555
C3 C1 1_555 1_555
C4 C1 1_555 1_555
H3 C4 1_555 1_555
O5 H6 1_555 1_555
O6 H4 1_555 1_555
H7 O5 1_555 1_555
H8 O6 1_555 1_555
H9 O3 1_555 1_555
Cd1D O2D 1_555 1_555
O2D C2D 1_555 1_555
O2A Cd1 1_555 1_555
O3A Cd1 1_555 1_555
H1A O3A 1_555 1_555
O4D Cd1D 1_555 1_555
O4A Cd1 1_555 1_555
C1D H2D 1_555 1_555
C2D O4D 1_555 1_555
C3D C4 1_555 1_555
C4D C3 1_555 1_555
H3D C4D 1_555 1_555
H5A O1 1_555 1_555
H9A O3A 1_555 1_555
O4 C2 1_555 1_555
C2 C3 1_555 1_555
C1D C3D 1_555 1_555
C1D C4D 1_555 1_555
C2D C3D 1_555 1_555

#END
