
#######################################################################
#
#                 Cambridge Crystallographic Data Centre
#                                CCDC 
#
#######################################################################
#
# If this CIF has been generated from an entry in the Cambridge 
# Structural Database, then it will include bibliographic, chemical, 
# crystal, experimental, refinement or atomic coordinate data resulting 
# from the CCDC's data processing and validation procedures.
#
#######################################################################

data_SARNUV
_symmetry_cell_setting           monoclinic
_symmetry_space_group_name_H-M   'P 21/n'
_symmetry_Int_Tables_number      14
_space_group_name_Hall           '-P 2yn'
loop_
_symmetry_equiv_pos_site_id
_symmetry_equiv_pos_as_xyz
1 x,y,z
2 1/2-x,1/2+y,1/2-z
3 -x,-y,-z
4 1/2+x,1/2-y,1/2+z
_cell_length_a                   9.3202(4)
_cell_length_b                   14.2960(6)
_cell_length_c                   13.2368(4)
_cell_angle_alpha                90
_cell_angle_beta                 110.178(2)
_cell_angle_gamma                90
_cell_volume                     1655.45
loop_
_atom_site_label
_atom_site_type_symbol
_atom_site_fract_x
_atom_site_fract_y
_atom_site_fract_z
Ag1 Ag 0.20050(2) 0.002029(14) 0.105184(17)
N1 N 0.2770(2) 0.13732(15) 0.07283(17)
N2 N 0.2301(3) 0.47015(16) 0.09034(18)
N3 N 0.1420(3) 0.53813(16) 0.11956(18)
N4 N 0.1073(3) 0.87160(15) 0.13657(17)
N5 N 0.4843(3) -0.07238(19) 0.1686(2)
C1 C 0.3933(3) 0.14508(19) 0.0348(2)
H1 H 0.4406 0.0897 0.0220
C2 C 0.4463(3) 0.2305(2) 0.0138(2)
H2 H 0.5278 0.2332 -0.0137
C3 C 0.3802(3) 0.31201(18) 0.0330(2)
H3 H 0.4151 0.3713 0.0187
C4 C 0.2611(3) 0.30540(17) 0.07399(19)
C5 C 0.2132(3) 0.21715(18) 0.0915(2)
H4 H 0.1310 0.2126 0.1182
C6 C 0.1860(3) 0.38697(18) 0.0995(2)
H5 H 0.1021 0.3780 0.1236
C7 C 0.1936(3) 0.62039(18) 0.1144(2)
H6 H 0.2822 0.6277 0.0952
C8 C 0.1179(3) 0.70356(18) 0.1377(2)
C9 C -0.0058(3) 0.69932(19) 0.1740(2)
H7 H -0.0443 0.6408 0.1870
C10 C -0.0715(3) 0.78253(18) 0.1907(2)
H8 H -0.1555 0.7816 0.2158
C11 C -0.0136(3) 0.86610(19) 0.1707(2)
H9 H -0.0605 0.9225 0.1812
C12 C 0.1715(3) 0.79082(19) 0.1218(2)
H10 H 0.2579 0.7937 0.0994
C13 C 0.5905(4) -0.0650(2) 0.2429(2)
C14 C 0.7253(4) -0.0565(2) 0.3398(2)
H11 H 0.7692 -0.1186 0.3622
H12 H 0.8012 -0.0167 0.3248
H13 H 0.6963 -0.0285 0.3975
Ag1_2 Ag 0.20050(2) 1.002029(14) 0.105184(17)
N4_2 N 0.1073(3) -0.12840(15) 0.13657(17)
Cl1 Cl 0.85576(8) 0.13894(5) 0.17036(6)
O1 O 0.8089(4) 0.14747(18) 0.2604(2)
O2 O 0.7549(3) 0.07563(17) 0.0932(2)
O3 O 1.0068(2) 0.10077(15) 0.20161(19)
O4 O 0.8526(3) 0.22899(14) 0.12103(18)
loop_
_geom_bond_atom_site_label_1
_geom_bond_atom_site_label_2
_geom_bond_site_symmetry_1
_geom_bond_site_symmetry_2
Ag1 N1 1_555 1_555
Cl1 O1 1_555 1_555
O2 Cl1 1_555 1_555
O3 Cl1 1_555 1_555
O4 Cl1 1_555 1_555
N1 C1 1_555 1_555
N2 N3 1_555 1_555
N3 C7 1_555 1_555
N4 C11 1_555 1_555
N5 Ag1 1_555 1_555
C1 H1 1_555 1_555
C2 C1 1_555 1_555
H2 C2 1_555 1_555
C3 C2 1_555 1_555
H3 C3 1_555 1_555
C4 C3 1_555 1_555
C5 N1 1_555 1_555
H4 C5 1_555 1_555
C6 N2 1_555 1_555
H5 C6 1_555 1_555
C7 H6 1_555 1_555
C8 C7 1_555 1_555
C9 C8 1_555 1_555
H7 C9 1_555 1_555
C10 C9 1_555 1_555
H8 C10 1_555 1_555
C11 C10 1_555 1_555
H9 C11 1_555 1_555
C12 N4 1_555 1_555
H10 C12 1_555 1_555
C13 N5 1_555 1_555
C14 C13 1_555 1_555
H11 C14 1_555 1_555
H12 C14 1_555 1_555
H13 C14 1_555 1_555
Ag1_2 N4 1_555 1_555
N4_2 Ag1 1_555 1_555
C4 C5 1_555 1_555
C4 C6 1_555 1_555
C8 C12 1_555 1_555

#END
