
#######################################################################
#
#                 Cambridge Crystallographic Data Centre
#                                CCDC 
#
#######################################################################
#
# If this CIF has been generated from an entry in the Cambridge 
# Structural Database, then it will include bibliographic, chemical, 
# crystal, experimental, refinement or atomic coordinate data resulting 
# from the CCDC's data processing and validation procedures.
#
#######################################################################

data_SARNEF
_symmetry_cell_setting           monoclinic
_symmetry_space_group_name_H-M   'P 21/m'
_symmetry_Int_Tables_number      11
_space_group_name_Hall           '-P 2yb'
loop_
_symmetry_equiv_pos_site_id
_symmetry_equiv_pos_as_xyz
1 x,y,z
2 -x,1/2+y,-z
3 -x,-y,-z
4 x,1/2-y,z
_cell_length_a                   6.0509(2)
_cell_length_b                   15.8105(4)
_cell_length_c                   8.6688(2)
_cell_angle_alpha                90
_cell_angle_beta                 97.244(1)
_cell_angle_gamma                90
_cell_volume                     822.705
loop_
_atom_site_label
_atom_site_type_symbol
_atom_site_fract_x
_atom_site_fract_y
_atom_site_fract_z
Ag1 Ag 0.0000 0.5000 0.5000
N1 N 0.2728(3) 0.48892(10) 0.3640(2)
N2 N 0.9120(3) 0.51539(11) 0.0384(2)
C1 C 0.3522(3) 0.41197(13) 0.3352(2)
H1 H 0.2841 0.3638 0.3746
C2 C 0.5283(3) 0.39995(13) 0.2508(2)
H2 H 0.5777 0.3444 0.2315
C3 C 0.6332(3) 0.46973(13) 0.1942(2)
C4 C 0.5510(3) 0.54988(13) 0.2246(2)
H3 H 0.6172 0.5992 0.1878
C5 C 0.3735(3) 0.55668(13) 0.3084(2)
H4 H 0.3192 0.6115 0.3281
C6 C 0.8214(3) 0.45523(12) 0.1068(2)
H5 H 0.8781 0.3995 0.1007
Ag1_2 Ag 2.0000 0.5000 -0.5000
N1B N 1.7272(3) 0.51108(10) -0.3640(2)
N1B_2 N -0.2728(3) 0.51108(10) 0.6360(2)
N2B N 1.0880(3) 0.48461(11) -0.0384(2)
C1B C 1.6478(3) 0.58803(13) -0.3352(2)
H1B H 1.7159 0.6362 -0.3746
C2B C 1.4717(3) 0.60005(13) -0.2508(2)
H2B H 1.4223 0.6556 -0.2315
C3B C 1.3668(3) 0.53027(13) -0.1942(2)
C4B C 1.4490(3) 0.45012(13) -0.2246(2)
H3B H 1.3828 0.4008 -0.1878
C5B C 1.6265(3) 0.44332(13) -0.3084(2)
H4B H 1.6808 0.3885 -0.3281
C6B C 1.1786(3) 0.54477(12) -0.1068(2)
H5B H 1.1219 0.6005 -0.1007
Cl1 Cl 0.92201(13) 0.2500 0.49044(8)
O1 O 0.9598(4) 0.2500 0.3294(3)
O2 O 0.6858(3) 0.2500 0.5011(3)
O3 O 1.0228(3) 0.32429(9) 0.5667(2)
O3C O 1.0228(3) 0.17571(9) 0.5667(2)
N3 N 0.3360(6) 0.7500 0.0710(4)
C7 C 0.1474(7) 0.7500 0.0661(4)
C8 C -0.0949(7) 0.7500 0.0566(5)
H6 H -0.140(8) 0.7500 0.146(6)
H7 H -0.153(5) 0.706(2) -0.002(4)
H7C H -0.153(5) 0.794(2) -0.002(4)
loop_
_geom_bond_atom_site_label_1
_geom_bond_atom_site_label_2
_geom_bond_site_symmetry_1
_geom_bond_site_symmetry_2
Ag1 N1 1_555 1_555
Cl1 O1 1_555 1_555
N1 C1 1_555 1_555
N2 C6 1_555 1_555
N3 C7 1_555 1_555
O2 Cl1 1_555 1_555
O3 Cl1 1_555 1_555
C1 H1 1_555 1_555
C2 C1 1_555 1_555
H2 C2 1_555 1_555
C3 C2 1_555 1_555
C4 C3 1_555 1_555
H3 C4 1_555 1_555
C5 N1 1_555 1_555
H4 C5 1_555 1_555
C6 C3 1_555 1_555
H5 C6 1_555 1_555
C7 C8 1_555 1_555
C8 H6 1_555 1_555
H7 C8 1_555 1_555
Ag1_2 N1B 1_555 1_555
N1B C1B 1_555 1_555
N1B_2 Ag1 1_555 1_555
N2B N2 1_555 1_555
O3C Cl1 1_555 1_555
C1B H1B 1_555 1_555
C2B C1B 1_555 1_555
H2B C2B 1_555 1_555
C3B C2B 1_555 1_555
C4B C3B 1_555 1_555
H3B C4B 1_555 1_555
C5B N1B 1_555 1_555
H4B C5B 1_555 1_555
C6B N2B 1_555 1_555
H5B C6B 1_555 1_555
H7C C8 1_555 1_555
C4 C5 1_555 1_555
C3B C6B 1_555 1_555
C4B C5B 1_555 1_555

#END
