
#######################################################################
#
#                 Cambridge Crystallographic Data Centre
#                                CCDC 
#
#######################################################################
#
# If this CIF has been generated from an entry in the Cambridge 
# Structural Database, then it will include bibliographic, chemical, 
# crystal, experimental, refinement or atomic coordinate data resulting 
# from the CCDC's data processing and validation procedures.
#
#######################################################################

data_SARPIL
_symmetry_cell_setting           monoclinic
_symmetry_space_group_name_H-M   'C 2/c'
_symmetry_Int_Tables_number      15
_space_group_name_Hall           '-C 2yn'
loop_
_symmetry_equiv_pos_site_id
_symmetry_equiv_pos_as_xyz
1 x,y,z
2 1/2+x,1/2+y,z
3 -x,y,1/2-z
4 1/2-x,1/2+y,1/2-z
5 -x,-y,-z
6 1/2-x,1/2-y,-z
7 x,-y,1/2+z
8 1/2+x,1/2-y,1/2+z
_cell_length_a                   25.0213(5)
_cell_length_b                   9.3011(2)
_cell_length_c                   15.9564(4)
_cell_angle_alpha                90
_cell_angle_beta                 109.683(1)
_cell_angle_gamma                90
_cell_volume                     3496.49
loop_
_atom_site_label
_atom_site_type_symbol
_atom_site_fract_x
_atom_site_fract_y
_atom_site_fract_z
Ag1 Ag 0.213282(9) 0.71552(2) 0.144788(16)
N1 N 0.44569(10) 0.5013(3) 0.10618(17)
N2 N 0.46716(10) 0.3904(3) 0.14751(17)
N3 N 0.28890(10) 0.6303(3) 0.12509(16)
N4 N 0.62834(10) 0.2783(3) 0.13923(16)
C1 C 0.30880(12) 0.4975(3) 0.1520(2)
H1 H 0.2868 0.4356 0.1748
C2 C 0.35985(12) 0.4472(3) 0.14775(19)
H2 H 0.3726 0.3526 0.1670
C3 C 0.39214(12) 0.5381(3) 0.11472(19)
C4 C 0.37171(12) 0.6741(3) 0.0858(2)
H3 H 0.3927 0.7374 0.0618
C5 C 0.32036(12) 0.7163(3) 0.0925(2)
H4 H 0.3067 0.8102 0.0733
C6 C 0.59734(12) 0.1882(3) 0.1706(2)
H5 H 0.6126 0.0965 0.1920
C7 C 0.60681(12) 0.4089(3) 0.1106(2)
H6 H 0.6287 0.4735 0.0893
C8 C 0.55385(12) 0.4535(3) 0.1109(2)
H7 H 0.5397 0.5465 0.0904
C9 C 0.52213(12) 0.3576(3) 0.1420(2)
C10 C 0.54423(12) 0.2237(3) 0.1727(2)
H8 H 0.5233 0.1575 0.1948
Ag1A Ag -0.286718(9) 1.21552(2) 0.144788(16)
Ag1A_2 Ag 0.713282(9) 0.21552(2) 0.144788(16)
N1A N -0.05431(10) 1.0013(3) 0.10618(17)
N2A N -0.03284(10) 0.8904(3) 0.14751(17)
N3A N -0.21110(10) 1.1303(3) 0.12509(16)
N4A N 0.12834(10) 0.7783(3) 0.13923(16)
N4_2 N -0.37166(10) 1.2783(3) 0.13923(16)
C1A C -0.19120(12) 0.9975(3) 0.1520(2)
H1A H -0.2132 0.9356 0.1748
C2A C -0.14015(12) 0.9472(3) 0.14775(19)
H2A H -0.1274 0.8526 0.1670
C3A C -0.10786(12) 1.0381(3) 0.11472(19)
C4A C -0.12829(12) 1.1741(3) 0.0858(2)
H3A H -0.1073 1.2374 0.0618
C5A C -0.17964(12) 1.2163(3) 0.0925(2)
H4A H -0.1933 1.3102 0.0733
C6A C 0.09734(12) 0.6882(3) 0.1706(2)
H5A H 0.1126 0.5965 0.1920
C7A C 0.10681(12) 0.9089(3) 0.1106(2)
H6A H 0.1287 0.9735 0.0893
C8A C 0.05385(12) 0.9535(3) 0.1109(2)
H7A H 0.0397 1.0465 0.0904
C9A C 0.02213(12) 0.8576(3) 0.1420(2)
C10A C 0.04423(12) 0.7237(3) 0.1727(2)
H8A H 0.0233 0.6575 0.1948
Ag2 Ag 0.2500 0.2500 1.0000
N5 N 0.01104(11) 0.4469(3) 1.02302(18)
N6 N 0.17100(10) 0.3307(3) 1.01268(17)
C11 C 0.15506(12) 0.2990(3) 1.0826(2)
H9 H 0.1810 0.2489 1.1312
C12 C 0.10266(13) 0.3355(3) 1.0876(2)
H10 H 0.0923 0.3088 1.1375
C13 C 0.06574(12) 0.4124(3) 1.0173(2)
C14 C 0.08162(12) 0.4489(3) 0.9446(2)
H11 H 0.0571 0.5026 0.8963
C15 C 0.13396(12) 0.4046(3) 0.9450(2)
H12 H 0.1448 0.4272 0.8949
Ag2A Ag -0.2500 0.7500 1.0000
Ag2A_2 Ag 0.7500 -0.2500 1.0000
N5D N -0.01104(11) 0.5531(3) 0.97698(18)
N5E N 0.48896(11) 0.0531(3) 0.97698(18)
N5A N 0.51104(11) -0.0531(3) 1.02302(18)
N6D N -0.17100(10) 0.6693(3) 0.98732(17)
N6E N 0.32900(10) 0.1693(3) 0.98732(17)
N6A N 0.67100(10) -0.1693(3) 1.01268(17)
N6D_2 N 0.82900(10) -0.3307(3) 0.98732(17)
C11D C -0.15506(12) 0.7010(3) 0.9174(2)
C11E C 0.34494(12) 0.2010(3) 0.9174(2)
C11A C 0.65506(12) -0.2010(3) 1.0826(2)
H9D H -0.1810 0.7511 0.8688
H9E H 0.3190 0.2511 0.8688
H9A H 0.6810 -0.2511 1.1312
C12D C -0.10266(13) 0.6645(3) 0.9124(2)
C12E C 0.39734(13) 0.1645(3) 0.9124(2)
C12A C 0.60266(13) -0.1645(3) 1.0876(2)
H10D H -0.0923 0.6912 0.8625
H10E H 0.4077 0.1912 0.8625
H10A H 0.5923 -0.1912 1.1375
C13D C -0.06574(12) 0.5876(3) 0.9827(2)
C13E C 0.43426(12) 0.0876(3) 0.9827(2)
C13A C 0.56574(12) -0.0876(3) 1.0173(2)
C14D C -0.08162(12) 0.5511(3) 1.0554(2)
C14E C 0.41838(12) 0.0511(3) 1.0554(2)
C14A C 0.58162(12) -0.0511(3) 0.9446(2)
H11D H -0.0571 0.4974 1.1037
H11E H 0.4429 -0.0026 1.1037
H11A H 0.5571 0.0026 0.8963
C15D C -0.13396(12) 0.5954(3) 1.0550(2)
C15E C 0.36604(12) 0.0954(3) 1.0550(2)
C15A C 0.63396(12) -0.0954(3) 0.9450(2)
H12D H -0.1448 0.5728 1.1051
H12E H 0.3552 0.0728 1.1051
H12A H 0.6448 -0.0728 0.8949
N7 N 0.26395(10) 0.0332(3) 0.16845(17)
O1 O 0.23534(9) -0.0091(2) 0.09171(14)
O2 O 0.27619(10) -0.0517(2) 0.23256(15)
O3 O 0.28089(9) 0.1614(2) 0.18029(14)
N8? N 0.0135(3) 0.3365(7) 1.2463(6)
O4? O 0.0608(4) 0.4043(10) 1.2584(6)
O5? O 0.0277(4) 0.4018(12) 1.2457(6)
O6? O 0.0132(3) 0.2119(6) 1.2242(4)
Cl1? Cl 0.0905(7) 0.2968(18) 1.1796(11)
loop_
_geom_bond_atom_site_label_1
_geom_bond_atom_site_label_2
_geom_bond_site_symmetry_1
_geom_bond_site_symmetry_2
Ag1 N3 1_555 1_555
Ag2 N6 1_555 1_555
N1 N2 1_555 1_555
N2 C9 1_555 1_555
N3 C1 1_555 1_555
N4 C6 1_555 1_555
N5 C13 1_555 1_555
N6 C11 1_555 1_555
N7 O1 1_555 1_555
O2 N7 1_555 1_555
O3 N7 1_555 1_555
C1 H1 1_555 1_555
C2 C1 1_555 1_555
H2 C2 1_555 1_555
C3 N1 1_555 1_555
C4 C3 1_555 1_555
H3 C4 1_555 1_555
C5 N3 1_555 1_555
H4 C5 1_555 1_555
C6 H5 1_555 1_555
C7 N4 1_555 1_555
H6 C7 1_555 1_555
C8 C7 1_555 1_555
H7 C8 1_555 1_555
C9 C8 1_555 1_555
C10 C6 1_555 1_555
H8 C10 1_555 1_555
C11 H9 1_555 1_555
C12 C11 1_555 1_555
H10 C12 1_555 1_555
C13 C12 1_555 1_555
C14 C13 1_555 1_555
H11 C14 1_555 1_555
C15 N6 1_555 1_555
H12 C15 1_555 1_555
Ag1A N3A 1_555 1_555
Ag1A_2 N4 1_555 1_555
Ag2A N6D 1_555 1_555
Ag2A_2 N6A 1_555 1_555
N1A N2A 1_555 1_555
N2A C9A 1_555 1_555
N3A C1A 1_555 1_555
N4A Ag1 1_555 1_555
N4_2 Ag1A 1_555 1_555
N5D N5 1_555 1_555
N5E N5A 1_555 1_555
N5A C13A 1_555 1_555
N6D C11D 1_555 1_555
N6E Ag2 1_555 1_555
N6A C11A 1_555 1_555
N6D_2 Ag2A_2 1_555 1_555
C1A H1A 1_555 1_555
C2A C1A 1_555 1_555
H2A C2A 1_555 1_555
C3A N1A 1_555 1_555
C4A C3A 1_555 1_555
H3A C4A 1_555 1_555
C5A N3A 1_555 1_555
H4A C5A 1_555 1_555
C6A N4A 1_555 1_555
H5A C6A 1_555 1_555
C7A N4A 1_555 1_555
H6A C7A 1_555 1_555
C8A C7A 1_555 1_555
H7A C8A 1_555 1_555
C9A C8A 1_555 1_555
C10A C6A 1_555 1_555
H8A C10A 1_555 1_555
C11D H9D 1_555 1_555
C11E N6E 1_555 1_555
C11A H9A 1_555 1_555
H9E C11E 1_555 1_555
C12D C11D 1_555 1_555
C12E C11E 1_555 1_555
C12A C11A 1_555 1_555
H10D C12D 1_555 1_555
H10E C12E 1_555 1_555
H10A C12A 1_555 1_555
C13D N5D 1_555 1_555
C13E N5E 1_555 1_555
C13A C12A 1_555 1_555
C14D C13D 1_555 1_555
C14E C13E 1_555 1_555
C14A C13A 1_555 1_555
H11D C14D 1_555 1_555
H11E C14E 1_555 1_555
H11A C14A 1_555 1_555
C15D N6D 1_555 1_555
C15E N6E 1_555 1_555
C15A N6A 1_555 1_555
H12D C15D 1_555 1_555
H12E C15E 1_555 1_555
H12A C15A 1_555 1_555
C2 C3 1_555 1_555
C4 C5 1_555 1_555
C9 C10 1_555 1_555
C14 C15 1_555 1_555
C2A C3A 1_555 1_555
C4A C5A 1_555 1_555
C9A C10A 1_555 1_555
C12D C13D 1_555 1_555
C12E C13E 1_555 1_555
C14D C15D 1_555 1_555
C14E C15E 1_555 1_555
C14A C15A 1_555 1_555

#END
