
#######################################################################
#
#                 Cambridge Crystallographic Data Centre
#                                CCDC 
#
#######################################################################
#
# If this CIF has been generated from an entry in the Cambridge 
# Structural Database, then it will include bibliographic, chemical, 
# crystal, experimental, refinement or atomic coordinate data resulting 
# from the CCDC's data processing and validation procedures.
#
#######################################################################

data_SARTEK03
_symmetry_cell_setting           monoclinic
_symmetry_space_group_name_H-M   'C 2/m'
_symmetry_Int_Tables_number      12
_space_group_name_Hall           '-C 2y'
loop_
_symmetry_equiv_pos_site_id
_symmetry_equiv_pos_as_xyz
1 x,y,z
2 -x,y,-z
3 1/2+x,1/2+y,z
4 1/2-x,1/2+y,-z
5 -x,-y,-z
6 x,-y,z
7 1/2-x,1/2-y,-z
8 1/2+x,1/2-y,z
_cell_length_a                   12.02(3)
_cell_length_b                   6.883(14)
_cell_length_c                   3.712(8)
_cell_angle_alpha                90
_cell_angle_beta                 95.82(2)
_cell_angle_gamma                90
_cell_volume                     305.524
loop_
_atom_site_label
_atom_site_type_symbol
_atom_site_fract_x
_atom_site_fract_y
_atom_site_fract_z
Cu1 Cu 1.0000 0.0000 0.0000
Cl1 Cl 1.14847(10) 0.0000 -0.5597(3)
N1 N 1.0000 -0.2966(6) 0.0000
C1 C 0.9085(3) -0.3993(6) 0.0636(10)
H1 H 0.8438 -0.3335 0.1086
Cu1_2 Cu 1.0000 0.0000 -1.0000
Cu1_3 Cu 1.0000 -1.0000 0.0000
Cu1_4 Cu 1.0000 0.0000 1.0000
Cl1_2 Cl 1.14847(10) 0.0000 0.4403(3)
Cl1A Cl 0.85153(10) 0.0000 -0.4403(3)
Cl1A_2 Cl 0.85153(10) 0.0000 0.5597(3)
N1D N 1.0000 -0.7034(6) 0.0000
N1D_2 N 1.0000 0.2966(6) 0.0000
C1E C 0.9085(3) -0.6007(6) 0.0636(10)
C1D C 1.0915(3) -0.6007(6) -0.0636(10)
C1A C 1.0915(3) -0.3993(6) -0.0636(10)
H1A H 1.1562 -0.3335 -0.1086
H1D H 1.1562 -0.6665 -0.1086
H1E H 0.8438 -0.6665 0.1086
loop_
_geom_bond_atom_site_label_1
_geom_bond_atom_site_label_2
_geom_bond_site_symmetry_1
_geom_bond_site_symmetry_2
Cu1 Cl1 1_555 1_555
Cl1 Cu1_2 1_555 1_555
N1 Cu1 1_555 1_555
C1 N1 1_555 1_555
H1 C1 1_555 1_555
Cu1_2 Cl1A 1_555 1_555
Cu1_3 N1D 1_555 1_555
Cu1_4 Cl1_2 1_555 1_555
Cl1_2 Cu1 1_555 1_555
Cl1A Cu1 1_555 1_555
Cl1A_2 Cu1 1_555 1_555
N1D C1E 1_555 1_555
N1D_2 Cu1 1_555 1_555
C1E C1 1_555 1_555
C1D N1D 1_555 1_555
C1A N1 1_555 1_555
H1A C1A 1_555 1_555
H1D C1D 1_555 1_555
H1E C1E 1_555 1_555
Cu1_4 Cl1A_2 1_555 1_555
C1D C1A 1_555 1_555

#END
