
#######################################################################
#
#                 Cambridge Crystallographic Data Centre
#                                CCDC 
#
#######################################################################
#
# If this CIF has been generated from an entry in the Cambridge 
# Structural Database, then it will include bibliographic, chemical, 
# crystal, experimental, refinement or atomic coordinate data resulting 
# from the CCDC's data processing and validation procedures.
#
#######################################################################

data_SARWEO
_symmetry_cell_setting           trigonal
_symmetry_space_group_name_H-M   'P 3 c 1'
_symmetry_Int_Tables_number      158
_space_group_name_Hall           'P 3 -2"c'
loop_
_symmetry_equiv_pos_site_id
_symmetry_equiv_pos_as_xyz
1 x,y,z
2 -y,x-y,z
3 -x+y,-x,z
4 -y,-x,1/2+z
5 x,x-y,1/2+z
6 -x+y,y,1/2+z
_cell_length_a                   10.885(1)
_cell_length_b                   10.885(1)
_cell_length_c                   21.403(2)
_cell_angle_alpha                90
_cell_angle_beta                 90
_cell_angle_gamma                120
_cell_volume                     2196.15
loop_
_atom_site_label
_atom_site_type_symbol
_atom_site_fract_x
_atom_site_fract_y
_atom_site_fract_z
Gd1 Gd 1.0000 1.0000 0.3738
O1 O 0.974(3) 0.819(3) 0.438(1)
O2 O 0.599(2) 0.584(2) 0.493(1)
O3 O 0.511(2) 0.579(2) 0.611(1)
O4 O 0.769(2) 0.784(2) 0.3512(10)
O5 O 0.824(3) 0.961(3) 0.2908(10)
O6 O 0.628(4) 0.769(3) 0.278(1)
N1 N 0.855(3) 0.582(2) 0.442(1)
N2 N 0.6667 0.3333 0.362(1)
N3 N 0.737(4) 0.835(5) 0.307(1)
C1 C 0.894(4) 0.712(5) 0.468(2)
C2 C 0.836(3) 0.706(2) 0.5319(9)
C3 C 0.699(3) 0.649(3) 0.543(1)
C4 C 0.649(5) 0.642(4) 0.605(2)
C5 C 0.745(6) 0.706(4) 0.651(1)
C6 C 0.887(6) 0.772(3) 0.639(1)
C7 C 0.932(3) 0.770(4) 0.579(1)
C8 C 0.535(4) 0.672(5) 0.478(2)
C9 C 0.441(7) 0.544(6) 0.670(2)
C10 C 0.896(3) 0.560(3) 0.381(1)
C11 C 0.766(3) 0.470(3) 0.3398(10)
H1 H 0.7126 0.7040 0.6929
H2 H 0.9535 0.8182 0.6719
H3 H 1.0306 0.8134 0.5701
H4 H 0.4873 0.6796 0.5142
H5 H 0.6067 0.7640 0.4660
H6 H 0.4682 0.6294 0.4453
H7 H 0.3412 0.4969 0.6636
H8 H 0.4646 0.4828 0.6922
H9 H 0.4700 0.6280 0.6934
H10 H 0.8022 0.5083 0.4641
H11 H 0.9523 0.6494 0.3612
H12 H 0.9490 0.5132 0.3850
H13 H 0.7179 0.5211 0.3340
H14 H 0.8002 0.4578 0.3006
Gd1_2 Gd 0.0000 0.0000 0.3738
Gd1_3 Gd 1.0000 0.0000 0.3738
O1A O 0.181(3) 0.155(4) 0.438(1)
O1B O 0.845(4) 0.026(3) 0.438(1)
O1A_2 O 1.181(3) 1.155(4) 0.438(1)
O1B_2 O 0.845(4) 1.026(3) 0.438(1)
O2A O 0.416(2) 0.015(3) 0.493(1)
O2B O 0.985(3) 0.401(2) 0.493(1)
O3A O 0.421(2) -0.068(3) 0.611(1)
O3B O 1.068(3) 0.489(2) 0.611(1)
O4A O 1.216(2) 0.985(3) 0.3512(10)
O4B O 1.015(3) 1.231(2) 0.3512(10)
O5A O 1.039(3) 0.863(4) 0.2908(10)
O5B O 1.137(4) 1.176(3) 0.2908(10)
O6A O 1.231(3) 0.859(5) 0.278(1)
O6B O 1.141(5) 1.372(4) 0.278(1)
N1A N 0.418(2) 0.273(4) 0.442(1)
N1B N 0.727(4) 0.145(3) 0.442(1)
N3A N 1.165(5) 0.902(6) 0.307(1)
N3B N 1.098(6) 1.263(4) 0.307(1)
C1A C 0.288(5) 0.182(6) 0.468(2)
C1B C 0.818(6) 0.106(4) 0.468(2)
C2A C 0.294(2) 0.130(4) 0.5319(9)
C2B C 0.870(4) 0.164(3) 0.5319(9)
C3A C 0.351(3) 0.050(4) 0.543(1)
C3B C 0.950(4) 0.301(3) 0.543(1)
C4A C 0.358(4) 0.007(6) 0.605(2)
C4B C 0.993(6) 0.351(5) 0.605(2)
C5A C 0.294(4) 0.039(7) 0.651(1)
C5B C 0.961(7) 0.255(6) 0.651(1)
C6A C 0.228(3) 0.115(7) 0.639(1)
C6B C 0.885(7) 0.113(6) 0.639(1)
C7A C 0.230(4) 0.162(5) 0.579(1)
C7B C 0.838(5) 0.068(3) 0.579(1)
C8A C 0.328(5) -0.137(6) 0.478(2)
C8B C 1.137(6) 0.465(4) 0.478(2)
C9A C 0.456(6) -0.103(9) 0.670(2)
C9B C 1.103(9) 0.559(7) 0.670(2)
C10A C 0.440(3) 0.336(4) 0.381(1)
C10B C 0.664(4) 0.104(3) 0.381(1)
C11A C 0.530(3) 0.296(4) 0.3398(10)
C11B C 0.704(4) 0.234(3) 0.3398(10)
H1A H 0.2960 0.0086 0.6929
H1B H 0.9914 0.2874 0.6929
H2A H 0.1818 0.1353 0.6719
H2B H 0.8647 0.0465 0.6719
H3A H 0.1866 0.2172 0.5701
H3B H 0.7828 -0.0306 0.5701
H4A H 0.3204 -0.1923 0.5142
H4B H 1.1923 0.5127 0.5142
H5A H 0.2360 -0.1573 0.4660
H5B H 1.1573 0.3933 0.4660
H6A H 0.3706 -0.1612 0.4453
H6B H 1.1612 0.5318 0.4453
H7A H 0.5031 -0.1557 0.6636
H7B H 1.1557 0.6588 0.6636
H8A H 0.5172 -0.0182 0.6922
H8B H 1.0182 0.5354 0.6922
H9A H 0.3720 -0.1580 0.6934
H9B H 1.1580 0.5300 0.6934
H10A H 0.4917 0.2939 0.4641
H10B H 0.7061 0.1978 0.4641
H11A H 0.3506 0.3029 0.3612
H11B H 0.6971 0.0477 0.3612
H12A H 0.4868 0.4358 0.3850
H12B H 0.5642 0.0510 0.3850
H13A H 0.4789 0.1968 0.3340
H13B H 0.8032 0.2821 0.3340
H14A H 0.5422 0.3424 0.3006
H14B H 0.6576 0.1998 0.3006
N4 N 0.6667 0.3333 0.537(2)
C12 C 0.6667 0.3333 0.657(2)
C13 C 0.6667 0.3333 0.590(3)
loop_
_geom_bond_atom_site_label_1
_geom_bond_atom_site_label_2
_geom_bond_site_symmetry_1
_geom_bond_site_symmetry_2
Gd1 O1 1_555 1_555
O1 C1 1_555 1_555
O2 C3 1_555 1_555
O3 C4 1_555 1_555
O4 Gd1 1_555 1_555
O5 Gd1 1_555 1_555
O6 N3 1_555 1_555
N1 C1 1_555 1_555
N2 C11 1_555 1_555
N3 O4 1_555 1_555
N4 C13 1_555 1_555
C1 C2 1_555 1_555
C2 C3 1_555 1_555
C3 C4 1_555 1_555
C4 C5 1_555 1_555
C5 C6 1_555 1_555
C6 C7 1_555 1_555
C7 C2 1_555 1_555
C8 O2 1_555 1_555
C9 O3 1_555 1_555
C10 N1 1_555 1_555
C11 C10 1_555 1_555
C12 C13 1_555 1_555
H1 C5 1_555 1_555
H2 C6 1_555 1_555
H3 C7 1_555 1_555
H4 C8 1_555 1_555
H5 C8 1_555 1_555
H6 C8 1_555 1_555
H7 C9 1_555 1_555
H8 C9 1_555 1_555
H9 C9 1_555 1_555
H10 N1 1_555 1_555
H11 C10 1_555 1_555
H12 C10 1_555 1_555
H13 C11 1_555 1_555
H14 C11 1_555 1_555
Gd1_2 O1A 1_555 1_555
Gd1_3 O1B 1_555 1_555
O1A C1A 1_555 1_555
O1B C1B 1_555 1_555
O1A_2 Gd1 1_555 1_555
O1B_2 Gd1 1_555 1_555
O2A C3A 1_555 1_555
O2B C3B 1_555 1_555
O3A C4A 1_555 1_555
O3B C4B 1_555 1_555
O4A Gd1 1_555 1_555
O4B Gd1 1_555 1_555
O5A Gd1 1_555 1_555
O5B Gd1 1_555 1_555
O6A N3A 1_555 1_555
O6B N3B 1_555 1_555
N1A C1A 1_555 1_555
N1B C1B 1_555 1_555
N3A O4A 1_555 1_555
N3B O4B 1_555 1_555
C1A C2A 1_555 1_555
C1B C2B 1_555 1_555
C2A C3A 1_555 1_555
C2B C3B 1_555 1_555
C3A C4A 1_555 1_555
C3B C4B 1_555 1_555
C4A C5A 1_555 1_555
C4B C5B 1_555 1_555
C5A C6A 1_555 1_555
C5B C6B 1_555 1_555
C6A C7A 1_555 1_555
C6B C7B 1_555 1_555
C7A C2A 1_555 1_555
C7B C2B 1_555 1_555
C8A O2A 1_555 1_555
C8B O2B 1_555 1_555
C9A O3A 1_555 1_555
C9B O3B 1_555 1_555
C10A N1A 1_555 1_555
C10B N1B 1_555 1_555
C11A N2 1_555 1_555
C11B N2 1_555 1_555
H1A C5A 1_555 1_555
H1B C5B 1_555 1_555
H2A C6A 1_555 1_555
H2B C6B 1_555 1_555
H3A C7A 1_555 1_555
H3B C7B 1_555 1_555
H4A C8A 1_555 1_555
H4B C8B 1_555 1_555
H5A C8A 1_555 1_555
H5B C8B 1_555 1_555
H6A C8A 1_555 1_555
H6B C8B 1_555 1_555
H7A C9A 1_555 1_555
H7B C9B 1_555 1_555
H8A C9A 1_555 1_555
H8B C9B 1_555 1_555
H9A C9A 1_555 1_555
H9B C9B 1_555 1_555
H10A N1A 1_555 1_555
H10B N1B 1_555 1_555
H11A C10A 1_555 1_555
H11B C10B 1_555 1_555
H12A C10A 1_555 1_555
H12B C10B 1_555 1_555
H13A C11A 1_555 1_555
H13B C11B 1_555 1_555
H14A C11A 1_555 1_555
H14B C11B 1_555 1_555
O5 N3 1_555 1_555
O5A N3A 1_555 1_555
O5B N3B 1_555 1_555
C10A C11A 1_555 1_555
C10B C11B 1_555 1_555

#END
