
#######################################################################
#
#                 Cambridge Crystallographic Data Centre
#                                CCDC 
#
#######################################################################
#
# If this CIF has been generated from an entry in the Cambridge 
# Structural Database, then it will include bibliographic, chemical, 
# crystal, experimental, refinement or atomic coordinate data resulting 
# from the CCDC's data processing and validation procedures.
#
#######################################################################

data_SASGUP
_symmetry_cell_setting           monoclinic
_symmetry_space_group_name_H-M   'P 21/n'
_symmetry_Int_Tables_number      14
_space_group_name_Hall           '-P 2yn'
loop_
_symmetry_equiv_pos_site_id
_symmetry_equiv_pos_as_xyz
1 x,y,z
2 1/2-x,1/2+y,1/2-z
3 -x,-y,-z
4 1/2+x,1/2-y,1/2+z
_cell_length_a                   7.6376(15)
_cell_length_b                   19.620(4)
_cell_length_c                   15.178(3)
_cell_angle_alpha                90
_cell_angle_beta                 95.63(3)
_cell_angle_gamma                90
_cell_volume                     2263.45
loop_
_atom_site_label
_atom_site_type_symbol
_atom_site_fract_x
_atom_site_fract_y
_atom_site_fract_z
C1 C 0.2499(5) 0.0836(2) 0.0766(3)
C2 C 0.2602(5) 0.0420(2) 0.0034(3)
H1 H 0.3553 0.0126 0.0015
C3 C 0.1305(5) 0.0439(2) -0.0670(3)
H2 H 0.1360 0.0148 -0.1150
C4 C -0.0067(6) 0.0892(2) -0.0653(3)
C5 C -0.0229(6) 0.1304(3) 0.0073(3)
H3 H -0.1183 0.1598 0.0084
C6 C 0.1063(6) 0.1273(3) 0.0789(3)
H4 H 0.0967 0.1545 0.1283
C7 C 0.3907(6) 0.0838(2) 0.1526(3)
C8 C -0.2549(6) 0.1396(2) -0.1477(3)
C9 C -0.4271(7) 0.1252(3) -0.1342(4)
H5 H -0.4572 0.0826 -0.1133
C10 C -0.5539(6) 0.1746(3) -0.1520(4)
H6 H -0.6702 0.1652 -0.1431
C11 C -0.5100(6) 0.2382(2) -0.1831(3)
C12 C -0.3355(5) 0.2519(3) -0.1955(3)
H7 H -0.3050 0.2945 -0.2160
C13 C -0.2079(6) 0.2033(3) -0.1776(3)
H8 H -0.0912 0.2129 -0.1855
C14 C -0.6497(6) 0.2913(3) -0.2031(3)
C15 C 0.7756(8) -0.0573(3) 0.3113(5)
H9 H 0.7647 -0.0585 0.2497
C16 C 0.8467(11) -0.1149(4) 0.3592(8)
H10 H 0.8828 -0.1533 0.3300
C17 C 0.8603(9) -0.1120(4) 0.4496(7)
H11 H 0.9078 -0.1491 0.4817
C18 C 0.8068(8) -0.0565(4) 0.4946(5)
C19 C 0.8188(9) -0.0512(5) 0.5915(5)
H12 H 0.8679 -0.0866 0.6265
C20 C 0.7582(10) 0.0051(5) 0.6297(4)
H13 H 0.7616 0.0068 0.6911
C21 C 0.6905(8) 0.0612(4) 0.5805(3)
C22 C 0.6300(10) 0.1212(5) 0.6181(4)
H14 H 0.6309 0.1243 0.6793
C23 C 0.5700(12) 0.1746(5) 0.5666(5)
H15 H 0.5319 0.2146 0.5916
C24 C 0.5678(9) 0.1677(4) 0.4775(4)
H16 H 0.5282 0.2043 0.4420
C25 C 0.6812(6) 0.0586(3) 0.4864(3)
C26 C 0.7385(6) -0.0016(3) 0.4436(4)
N1 N 0.6189(6) 0.1115(3) 0.4379(3)
N2 N 0.7247(5) -0.0025(2) 0.3515(3)
O1 O 0.5289(4) 0.0503(2) 0.1476(2)
O2 O 0.3672(5) 0.1177(2) 0.2201(2)
O4 O -0.6018(4) 0.35171(18) -0.2170(3)
O5 O -0.8077(5) 0.2748(2) -0.2040(3)
O6 O -0.1314(5) 0.08726(18) -0.1374(2)
Cd1 Cd 0.63389(4) 0.099766(19) 0.28748(2)
O4C O 0.8982(4) 0.14829(18) 0.2830(3)
O5C O 0.6923(5) 0.2252(2) 0.2960(3)
Cd1C Cd -0.86611(4) 0.400234(19) -0.21252(2)
O3 O 0.926(3) -0.2730(7) 0.4171(9)
loop_
_geom_bond_atom_site_label_1
_geom_bond_atom_site_label_2
_geom_bond_site_symmetry_1
_geom_bond_site_symmetry_2
C1 C2 1_555 1_555
C2 H1 1_555 1_555
C3 C2 1_555 1_555
H2 C3 1_555 1_555
C4 C3 1_555 1_555
C5 C4 1_555 1_555
H3 C5 1_555 1_555
C6 C1 1_555 1_555
H4 C6 1_555 1_555
C7 C1 1_555 1_555
C8 C9 1_555 1_555
C9 H5 1_555 1_555
C10 C9 1_555 1_555
H6 C10 1_555 1_555
C11 C10 1_555 1_555
C12 C11 1_555 1_555
H7 C12 1_555 1_555
C13 C8 1_555 1_555
H8 C13 1_555 1_555
C14 C11 1_555 1_555
C15 H9 1_555 1_555
C16 C15 1_555 1_555
H10 C16 1_555 1_555
C17 C16 1_555 1_555
H11 C17 1_555 1_555
C18 C17 1_555 1_555
C19 C18 1_555 1_555
H12 C19 1_555 1_555
C20 C19 1_555 1_555
H13 C20 1_555 1_555
C21 C20 1_555 1_555
C22 C21 1_555 1_555
H14 C22 1_555 1_555
C23 C22 1_555 1_555
H15 C23 1_555 1_555
C24 C23 1_555 1_555
H16 C24 1_555 1_555
C25 C21 1_555 1_555
C26 C18 1_555 1_555
N1 C24 1_555 1_555
N2 C15 1_555 1_555
O1 C7 1_555 1_555
O2 C7 1_555 1_555
O4 C14 1_555 1_555
O5 C14 1_555 1_555
O6 C4 1_555 1_555
Cd1 N1 1_555 1_555
O4C Cd1 1_555 1_555
O5C Cd1 1_555 1_555
Cd1C O4 1_555 1_555
C5 C6 1_555 1_555
C8 O6 1_555 1_555
C12 C13 1_555 1_555
C25 C26 1_555 1_555
C25 N1 1_555 1_555
C26 N2 1_555 1_555
N2 Cd1 1_555 1_555
O1 Cd1 1_555 1_555
O2 Cd1 1_555 1_555
O5 Cd1C 1_555 1_555

#END
