
#######################################################################
#
#                 Cambridge Crystallographic Data Centre
#                                CCDC 
#
#######################################################################
#
# If this CIF has been generated from an entry in the Cambridge 
# Structural Database, then it will include bibliographic, chemical, 
# crystal, experimental, refinement or atomic coordinate data resulting 
# from the CCDC's data processing and validation procedures.
#
#######################################################################

data_SASHAW
_symmetry_cell_setting           monoclinic
_symmetry_space_group_name_H-M   'P 21/n'
_symmetry_Int_Tables_number      14
_space_group_name_Hall           '-P 2yn'
loop_
_symmetry_equiv_pos_site_id
_symmetry_equiv_pos_as_xyz
1 x,y,z
2 1/2-x,1/2+y,1/2-z
3 -x,-y,-z
4 1/2+x,1/2-y,1/2+z
_cell_length_a                   7.7568(16)
_cell_length_b                   18.438(4)
_cell_length_c                   15.161(3)
_cell_angle_alpha                90
_cell_angle_beta                 98.87(3)
_cell_angle_gamma                90
_cell_volume                     2142.39
loop_
_atom_site_label
_atom_site_type_symbol
_atom_site_fract_x
_atom_site_fract_y
_atom_site_fract_z
Zn1 Zn 0.28572(4) 0.09489(2) 0.16944(2)
C1 C 0.3358(4) 0.1459(2) -0.0191(2)
H1 H 0.3592 0.1911 0.0074
C2 C 0.3389(6) 0.1381(3) -0.1112(3)
H2 H 0.3644 0.1772 -0.1457
C3 C 0.3035(6) 0.0715(3) -0.1481(3)
H3 H 0.3053 0.0649 -0.2088
C4 C 0.2656(5) 0.0145(3) -0.0978(2)
H4 H 0.2406 -0.0308 -0.1235
C5 C 0.2648(4) 0.0250(2) -0.00740(18)
C6 C 0.2264(4) -0.03362(18) 0.05296(19)
C7 C 0.1909(5) -0.1048(2) 0.0257(3)
H5 H 0.1893 -0.1177 -0.0338
C8 C 0.1584(6) -0.1556(3) 0.0865(3)
H6 H 0.1352 -0.2034 0.0686
C9 C 0.1598(6) -0.1364(3) 0.1732(3)
H7 H 0.1386 -0.1704 0.2156
C10 C 0.1936(5) -0.0652(2) 0.1961(2)
H8 H 0.1932 -0.0516 0.2551
C11 C 0.6705(3) 0.09064(15) 0.37546(17)
C12 C 0.6349(4) 0.06767(16) 0.45766(18)
H9 H 0.5218 0.0542 0.4637
C13 C 0.7653(4) 0.06440(17) 0.53123(18)
H10 H 0.7409 0.0467 0.5854
C14 C 0.9319(4) 0.08766(16) 0.52362(17)
C15 C 0.9733(4) 0.11043(19) 0.4427(2)
H11 H 1.0861 0.1251 0.4378
C16 C 0.8424(4) 0.11092(17) 0.36885(19)
H12 H 0.8695 0.1250 0.3137
C17 C 0.5262(4) 0.09022(15) 0.29804(18)
C18 C 1.1825(4) 0.13687(17) 0.61512(17)
C19 C 1.1341(3) 0.20607(17) 0.6333(2)
H13 H 1.0173 0.2173 0.6335
C20 C 1.2620(3) 0.25943(16) 0.65144(18)
H14 H 1.2299 0.3065 0.6639
C21 C 1.4382(3) 0.24304(15) 0.65118(17)
C22 C 1.4842(4) 0.17236(17) 0.6357(2)
H15 H 1.6011 0.1605 0.6369
C23 C 1.3582(4) 0.11892(17) 0.6183(2)
H16 H 1.3905 0.0713 0.6087
C24 C 1.5778(4) 0.30052(17) 0.66452(17)
N1 N 0.3002(3) 0.09031(16) 0.03070(16)
N2 N 0.2271(3) -0.01440(15) 0.13813(16)
O1 O 0.5586(3) 0.10327(12) 0.22062(12)
O2 O 0.3712(3) 0.07486(13) 0.30985(13)
O3 O 1.0583(3) 0.08196(12) 0.60020(14)
O4 O 1.5320(3) 0.36568(11) 0.67176(13)
O5 O 1.7364(3) 0.28388(13) 0.66427(15)
Zn1C Zn 1.78572(4) 0.40511(2) 0.66944(2)
O4C O 0.0320(3) 0.13432(11) 0.17176(13)
O5C O 0.2364(3) 0.21612(13) 0.16427(15)
loop_
_geom_bond_atom_site_label_1
_geom_bond_atom_site_label_2
_geom_bond_site_symmetry_1
_geom_bond_site_symmetry_2
Zn1 N1 1_555 1_555
C1 H1 1_555 1_555
C2 C1 1_555 1_555
H2 C2 1_555 1_555
C3 C2 1_555 1_555
H3 C3 1_555 1_555
C4 C3 1_555 1_555
H4 C4 1_555 1_555
C5 C4 1_555 1_555
C6 C5 1_555 1_555
C7 C6 1_555 1_555
H5 C7 1_555 1_555
C8 C7 1_555 1_555
H6 C8 1_555 1_555
C9 C8 1_555 1_555
H7 C9 1_555 1_555
C10 C9 1_555 1_555
H8 C10 1_555 1_555
C11 C12 1_555 1_555
C12 H9 1_555 1_555
C13 C12 1_555 1_555
H10 C13 1_555 1_555
C14 C13 1_555 1_555
C15 C14 1_555 1_555
H11 C15 1_555 1_555
C16 C11 1_555 1_555
H12 C16 1_555 1_555
C17 C11 1_555 1_555
C18 C19 1_555 1_555
C19 H13 1_555 1_555
C20 C19 1_555 1_555
H14 C20 1_555 1_555
C21 C20 1_555 1_555
C22 C21 1_555 1_555
H15 C22 1_555 1_555
C23 C18 1_555 1_555
H16 C23 1_555 1_555
C24 C21 1_555 1_555
N1 C1 1_555 1_555
N2 Zn1 1_555 1_555
O1 Zn1 1_555 1_555
O2 Zn1 1_555 1_555
O3 C14 1_555 1_555
O4 C24 1_555 1_555
O5 C24 1_555 1_555
Zn1C O4 1_555 1_555
O4C Zn1 1_555 1_555
O5C Zn1 1_555 1_555
C5 N1 1_555 1_555
C6 N2 1_555 1_555
C10 N2 1_555 1_555
C15 C16 1_555 1_555
C17 O1 1_555 1_555
C17 O2 1_555 1_555
C18 O3 1_555 1_555
C22 C23 1_555 1_555
O5 Zn1C 1_555 1_555

#END
