
#######################################################################
#
#                 Cambridge Crystallographic Data Centre
#                                CCDC 
#
#######################################################################
#
# If this CIF has been generated from an entry in the Cambridge 
# Structural Database, then it will include bibliographic, chemical, 
# crystal, experimental, refinement or atomic coordinate data resulting 
# from the CCDC's data processing and validation procedures.
#
#######################################################################

data_SASNUV
_symmetry_cell_setting           orthorhombic
_symmetry_space_group_name_H-M   'I 2 2 2'
_symmetry_Int_Tables_number      23
_space_group_name_Hall           'I 2 2'
loop_
_symmetry_equiv_pos_site_id
_symmetry_equiv_pos_as_xyz
1 x,y,z
2 1/2+x,1/2+y,1/2+z
3 x,-y,-z
4 1/2+x,1/2-y,1/2-z
5 -x,y,-z
6 1/2-x,1/2+y,1/2-z
7 -x,-y,z
8 1/2-x,1/2-y,1/2+z
_cell_length_a                   23.587(5)
_cell_length_b                   5.161(2)
_cell_length_c                   7.121(1)
_cell_angle_alpha                90
_cell_angle_beta                 90
_cell_angle_gamma                90
_cell_volume                     866.857
loop_
_atom_site_label
_atom_site_type_symbol
_atom_site_fract_x
_atom_site_fract_y
_atom_site_fract_z
Ni1 Ni 0.00000 0.00000 0.00000
Br1 Br 0.00000 0.50000 0.00000
N1 N 0.0598(2) -0.0113(30) 0.1875(5)
C1 C 0.1143(2) -0.0723(8) 0.0919(6)
C2 C 0.1670(2) -0.0170(29) 0.2102(8)
C3 C 0.2196(2) -0.0731(10) 0.0921(8)
H1 H 0.051(3) -0.134(17) 0.285(13)
H2 H 0.058(3) 0.125(12) 0.227(10)
H3 H 0.114(2) -0.262(8) 0.069(6)
H4 H 0.165(2) -0.124(10) 0.319(7)
H5 H 0.223(2) -0.252(9) 0.061(7)
H6 H 0.254(2) -0.037(14) 0.169(6)
Br1_2 Br 0.00000 -0.50000 0.00000
N1B N 0.0598(2) 0.0113(30) -0.1875(5)
N1D N -0.0598(2) -0.0113(30) -0.1875(5)
N1F N -0.0598(2) 0.0113(30) 0.1875(5)
Ni1_2 Ni 0.00000 1.00000 0.00000
C1B C 0.1143(2) 0.0723(8) -0.0919(6)
C3B C 0.2196(2) 0.0731(10) -0.0921(8)
H1B H 0.051(3) 0.134(17) -0.285(13)
H2B H 0.058(3) -0.125(12) -0.227(10)
C1D C -0.1143(2) -0.0723(8) -0.0919(6)
H1D H -0.051(3) -0.134(17) -0.285(13)
H2D H -0.058(3) 0.125(12) -0.227(10)
C1F C -0.1143(2) 0.0723(8) 0.0919(6)
H1F H -0.051(3) 0.134(17) 0.285(13)
H2F H -0.058(3) -0.125(12) 0.227(10)
C2B C 0.1670(2) 0.0170(29) -0.2102(8)
H3B H 0.114(2) 0.262(8) -0.069(6)
H5B H 0.223(2) 0.252(9) -0.061(7)
H6B H 0.254(2) 0.037(14) -0.169(6)
C2D C -0.1670(2) -0.0170(29) -0.2102(8)
H3D H -0.114(2) -0.262(8) -0.069(6)
C2F C -0.1670(2) 0.0170(29) 0.2102(8)
H3F H -0.114(2) 0.262(8) 0.069(6)
H4B H 0.165(2) 0.124(10) -0.319(7)
C3D C -0.2196(2) -0.0731(10) -0.0921(8)
H4D H -0.165(2) -0.124(10) -0.319(7)
C3F C -0.2196(2) 0.0731(10) 0.0921(8)
H4F H -0.165(2) 0.124(10) 0.319(7)
H5D H -0.223(2) -0.252(9) -0.061(7)
H6D H -0.254(2) -0.037(14) -0.169(6)
H5F H -0.223(2) 0.252(9) 0.061(7)
H6F H -0.254(2) 0.037(14) 0.169(6)
Br2 Br 0.41516(3) 0.00000 0.00000
loop_
_geom_bond_atom_site_label_1
_geom_bond_atom_site_label_2
_geom_bond_site_symmetry_1
_geom_bond_site_symmetry_2
Ni1 Br1 1_555 1_555
Br1 Ni1_2 1_555 1_555
N1 Ni1 1_555 1_555
C1 N1 1_555 1_555
C2 C1 1_555 1_555
C3 C2 1_555 1_555
H1 N1 1_555 1_555
H2 N1 1_555 1_555
H3 C1 1_555 1_555
H4 C2 1_555 1_555
H5 C3 1_555 1_555
H6 C3 1_555 1_555
Br1_2 Ni1 1_555 1_555
N1B Ni1 1_555 1_555
N1D Ni1 1_555 1_555
N1F Ni1 1_555 1_555
C1B C1 1_555 1_555
C3B C3 1_555 1_555
H1B N1B 1_555 1_555
H2B N1B 1_555 1_555
C1D N1D 1_555 1_555
H1D N1D 1_555 1_555
H2D N1D 1_555 1_555
C1F N1F 1_555 1_555
H1F N1F 1_555 1_555
H2F N1F 1_555 1_555
C2B C1B 1_555 1_555
H3B C1B 1_555 1_555
H5B C3B 1_555 1_555
H6B C3B 1_555 1_555
C2D C1D 1_555 1_555
H3D C1D 1_555 1_555
C2F C1F 1_555 1_555
H3F C1F 1_555 1_555
H4B C2B 1_555 1_555
C3D C2D 1_555 1_555
H4D C2D 1_555 1_555
C3F C2F 1_555 1_555
H4F C2F 1_555 1_555
H5D C3D 1_555 1_555
H6D C3D 1_555 1_555
H5F C3F 1_555 1_555
H6F C3F 1_555 1_555
N1B C1B 1_555 1_555
C3B C2B 1_555 1_555
C1D C1F 1_555 1_555
C3D C3F 1_555 1_555

#END
