
#######################################################################
#
#                 Cambridge Crystallographic Data Centre
#                                CCDC 
#
#######################################################################
#
# If this CIF has been generated from an entry in the Cambridge 
# Structural Database, then it will include bibliographic, chemical, 
# crystal, experimental, refinement or atomic coordinate data resulting 
# from the CCDC's data processing and validation procedures.
#
#######################################################################

data_SASNUV01
_symmetry_cell_setting           orthorhombic
_symmetry_space_group_name_H-M   'I 2 2 2'
_symmetry_Int_Tables_number      23
_space_group_name_Hall           'I 2 2'
loop_
_symmetry_equiv_pos_site_id
_symmetry_equiv_pos_as_xyz
1 x,y,z
2 1/2+x,1/2+y,1/2+z
3 x,-y,-z
4 1/2+x,1/2-y,1/2-z
5 -x,y,-z
6 1/2-x,1/2+y,1/2-z
7 -x,-y,z
8 1/2-x,1/2-y,1/2+z
_cell_length_a                   23.501(4)
_cell_length_b                   5.157(1)
_cell_length_c                   7.090(1)
_cell_angle_alpha                90
_cell_angle_beta                 90
_cell_angle_gamma                90
_cell_volume                     859.27
loop_
_atom_site_label
_atom_site_type_symbol
_atom_site_fract_x
_atom_site_fract_y
_atom_site_fract_z
Ni1 Ni 0.00000 0.00000 0.00000
Br1 Br 0.00000 0.50000 0.00000
N1 N 0.0599(1) -0.0131(20) 0.1890(4)
C1 C 0.1148(1) -0.0738(7) 0.0922(5)
C2 C 0.1675(1) -0.0175(19) 0.2093(5)
C3 C 0.2208(2) -0.0755(8) 0.0927(6)
H1 H 0.047(2) -0.159(17) 0.262(13)
H2 H 0.063(2) 0.117(10) 0.236(9)
H3 H 0.116(2) -0.259(8) 0.067(6)
H4 H 0.168(2) -0.113(11) 0.322(7)
H5 H 0.169(2) 0.171(10) 0.238(7)
H6 H 0.226(2) -0.254(9) 0.075(7)
H7 H 0.255(1) -0.042(11) 0.160(5)
Br1_2 Br 0.00000 -0.50000 0.00000
N1B N 0.0599(1) 0.0131(20) -0.1890(4)
N1D N -0.0599(1) -0.0131(20) -0.1890(4)
N1F N -0.0599(1) 0.0131(20) 0.1890(4)
Ni1_2 Ni 0.00000 1.00000 0.00000
C1B C 0.1148(1) 0.0738(7) -0.0922(5)
C3B C 0.2208(2) 0.0755(8) -0.0927(6)
H1B H 0.047(2) 0.159(17) -0.262(13)
H2B H 0.063(2) -0.117(10) -0.236(9)
C1D C -0.1148(1) -0.0738(7) -0.0922(5)
H1D H -0.047(2) -0.159(17) -0.262(13)
H2D H -0.063(2) 0.117(10) -0.236(9)
C1F C -0.1148(1) 0.0738(7) 0.0922(5)
H1F H -0.047(2) 0.159(17) 0.262(13)
H2F H -0.063(2) -0.117(10) 0.236(9)
C2B C 0.1675(1) 0.0175(19) -0.2093(5)
H3B H 0.116(2) 0.259(8) -0.067(6)
H6B H 0.226(2) 0.254(9) -0.075(7)
H7B H 0.255(1) 0.042(11) -0.160(5)
C2D C -0.1675(1) -0.0175(19) -0.2093(5)
H3D H -0.116(2) -0.259(8) -0.067(6)
C2F C -0.1675(1) 0.0175(19) 0.2093(5)
H3F H -0.116(2) 0.259(8) 0.067(6)
H4B H 0.168(2) 0.113(11) -0.322(7)
H5B H 0.169(2) -0.171(10) -0.238(7)
C3D C -0.2208(2) -0.0755(8) -0.0927(6)
H4D H -0.168(2) -0.113(11) -0.322(7)
H5D H -0.169(2) 0.171(10) -0.238(7)
C3F C -0.2208(2) 0.0755(8) 0.0927(6)
H4F H -0.168(2) 0.113(11) 0.322(7)
H5F H -0.169(2) -0.171(10) 0.238(7)
H6D H -0.226(2) -0.254(9) -0.075(7)
H7D H -0.255(1) -0.042(11) -0.160(5)
H6F H -0.226(2) 0.254(9) 0.075(7)
H7F H -0.255(1) 0.042(11) 0.160(5)
Br2 Br 0.41468(2) 0.00000 0.00000
loop_
_geom_bond_atom_site_label_1
_geom_bond_atom_site_label_2
_geom_bond_site_symmetry_1
_geom_bond_site_symmetry_2
Ni1 Br1 1_555 1_555
Br1 Ni1_2 1_555 1_555
N1 Ni1 1_555 1_555
C1 N1 1_555 1_555
C2 C1 1_555 1_555
C3 C2 1_555 1_555
H1 N1 1_555 1_555
H2 N1 1_555 1_555
H3 C1 1_555 1_555
H4 C2 1_555 1_555
H5 C2 1_555 1_555
H6 C3 1_555 1_555
H7 C3 1_555 1_555
Br1_2 Ni1 1_555 1_555
N1B Ni1 1_555 1_555
N1D Ni1 1_555 1_555
N1F Ni1 1_555 1_555
C1B C1 1_555 1_555
C3B C3 1_555 1_555
H1B N1B 1_555 1_555
H2B N1B 1_555 1_555
C1D N1D 1_555 1_555
H1D N1D 1_555 1_555
H2D N1D 1_555 1_555
C1F N1F 1_555 1_555
H1F N1F 1_555 1_555
H2F N1F 1_555 1_555
C2B C1B 1_555 1_555
H3B C1B 1_555 1_555
H6B C3B 1_555 1_555
H7B C3B 1_555 1_555
C2D C1D 1_555 1_555
H3D C1D 1_555 1_555
C2F C1F 1_555 1_555
H3F C1F 1_555 1_555
H4B C2B 1_555 1_555
H5B C2B 1_555 1_555
C3D C2D 1_555 1_555
H4D C2D 1_555 1_555
H5D C2D 1_555 1_555
C3F C2F 1_555 1_555
H4F C2F 1_555 1_555
H5F C2F 1_555 1_555
H6D C3D 1_555 1_555
H7D C3D 1_555 1_555
H6F C3F 1_555 1_555
H7F C3F 1_555 1_555
N1B C1B 1_555 1_555
C3B C2B 1_555 1_555
C1D C1F 1_555 1_555
C3D C3F 1_555 1_555

#END
