
#######################################################################
#
#                 Cambridge Crystallographic Data Centre
#                                CCDC 
#
#######################################################################
#
# If this CIF has been generated from an entry in the Cambridge 
# Structural Database, then it will include bibliographic, chemical, 
# crystal, experimental, refinement or atomic coordinate data resulting 
# from the CCDC's data processing and validation procedures.
#
#######################################################################

data_SATGAW
_symmetry_cell_setting           orthorhombic
_symmetry_space_group_name_H-M   'P b c a'
_symmetry_Int_Tables_number      61
_space_group_name_Hall           '-P 2ac 2ab'
loop_
_symmetry_equiv_pos_site_id
_symmetry_equiv_pos_as_xyz
1 x,y,z
2 1/2-x,-y,1/2+z
3 -x,1/2+y,1/2-z
4 1/2+x,1/2-y,-z
5 -x,-y,-z
6 1/2+x,y,1/2-z
7 x,1/2-y,1/2+z
8 1/2-x,1/2+y,z
_cell_length_a                   8.7063(12)
_cell_length_b                   14.7402(16)
_cell_length_c                   24.965(2)
_cell_angle_alpha                90
_cell_angle_beta                 90
_cell_angle_gamma                90
_cell_volume                     3203.82
loop_
_atom_site_label
_atom_site_type_symbol
_atom_site_fract_x
_atom_site_fract_y
_atom_site_fract_z
Ag1 Ag 0.74104(5) 0.68288(3) 0.773279(15)
S1 S 0.49758(13) 0.32973(7) 0.72762(4)
S2 S 0.48921(13) 0.53320(8) 0.73519(4)
N1 N 0.6916(4) 0.6352(2) 0.68747(14)
N2 N 0.5476(5) 0.5385(3) 0.63006(15)
N3 N 0.5960(4) 0.2788(2) 0.82168(14)
N4 N 0.3977(5) 0.3901(3) 0.82214(15)
C1 C 0.7653(5) 0.6679(3) 0.6445(2)
H1 H 0.8405 0.7119 0.6495
C2 C 0.7337(6) 0.6388(4) 0.5936(2)
H2 H 0.7846 0.6627 0.5640
C3 C 0.6237(6) 0.5729(3) 0.5880(2)
H3 H 0.6010 0.5514 0.5539
C4 C 0.5862(5) 0.5710(3) 0.67714(17)
C5 C 0.3936(5) 0.4318(3) 0.71137(18)
H4 H 0.2919 0.4286 0.7271
H5 H 0.3816 0.4356 0.6728
C6 C 0.4956(5) 0.3349(3) 0.79814(16)
C7 C 0.5947(6) 0.2797(3) 0.87532(18)
H6 H 0.6640 0.2429 0.8935
C8 C 0.4958(7) 0.3323(3) 0.90453(19)
H7 H 0.4950 0.3314 0.9418
C9 C 0.3980(7) 0.3865(3) 0.8757(2)
H8 H 0.3283 0.4224 0.8943
N5 N 0.6653(5) 0.6047(3) 0.85088(19)
C10 C 0.6647(6) 0.5815(3) 0.8936(2)
C11 C 0.6674(10) 0.5514(5) 0.9488(2)
H9 H 0.5644 0.5496 0.9625
H10 H 0.7277 0.5927 0.9698
H11 H 0.7118 0.4918 0.9507
Ag1G Ag 0.75896(5) 0.18288(3) 0.773279(15)
N3G N 0.9040(4) 0.7788(2) 0.82168(14)
B1 B 0.5266(7) 0.6771(4) 0.4480(2)
F1 F 0.5264(7) 0.6888(3) 0.39453(15)
F2 F 0.4026(7) 0.6296(5) 0.4640(3)
F3 F 0.6535(8) 0.6321(5) 0.4620(2)
F4 F 0.5211(9) 0.7592(3) 0.4721(2)
B2? B 0.501(3) 0.6763(14) 0.4574(9)
F5? F 0.553(4) 0.5928(13) 0.4695(10)
F6? F 0.387(4) 0.698(3) 0.4915(15)
F7? F 0.616(4) 0.7365(19) 0.4639(13)
F8? F 0.446(4) 0.676(2) 0.4070(11)
loop_
_geom_bond_atom_site_label_1
_geom_bond_atom_site_label_2
_geom_bond_site_symmetry_1
_geom_bond_site_symmetry_2
Ag1 N1 1_555 1_555
S1 C5 1_555 1_555
S2 C4 1_555 1_555
N1 C1 1_555 1_555
N2 C3 1_555 1_555
N3 C6 1_555 1_555
N4 C6 1_555 1_555
C1 H1 1_555 1_555
C2 C1 1_555 1_555
H2 C2 1_555 1_555
C3 C2 1_555 1_555
H3 C3 1_555 1_555
C4 N1 1_555 1_555
C5 S2 1_555 1_555
H4 C5 1_555 1_555
H5 C5 1_555 1_555
C6 S1 1_555 1_555
C7 N3 1_555 1_555
H6 C7 1_555 1_555
C8 C7 1_555 1_555
H7 C8 1_555 1_555
C9 N4 1_555 1_555
H8 C9 1_555 1_555
N5 Ag1 1_555 1_555
C10 N5 1_555 1_555
C11 C10 1_555 1_555
H9 C11 1_555 1_555
H10 C11 1_555 1_555
H11 C11 1_555 1_555
B1 F1 1_555 1_555
F2 B1 1_555 1_555
F3 B1 1_555 1_555
F4 B1 1_555 1_555
Ag1G N3 1_555 1_555
N3G Ag1 1_555 1_555
N2 C4 1_555 1_555
C8 C9 1_555 1_555

#END
