
#######################################################################
#
#                 Cambridge Crystallographic Data Centre
#                                CCDC 
#
#######################################################################
#
# If this CIF has been generated from an entry in the Cambridge 
# Structural Database, then it will include bibliographic, chemical, 
# crystal, experimental, refinement or atomic coordinate data resulting 
# from the CCDC's data processing and validation procedures.
#
#######################################################################

data_SATRUB
_symmetry_cell_setting           triclinic
_symmetry_space_group_name_H-M   'P -1'
_symmetry_Int_Tables_number      2
_space_group_name_Hall           '-P 1'
loop_
_symmetry_equiv_pos_site_id
_symmetry_equiv_pos_as_xyz
1 x,y,z
2 -x,-y,-z
_cell_length_a                   6.78160(10)
_cell_length_b                   8.43240(10)
_cell_length_c                   10.74260(10)
_cell_angle_alpha                70.9210(10)
_cell_angle_beta                 72.0260(10)
_cell_angle_gamma                67.1450(10)
_cell_volume                     523.227
loop_
_atom_site_label
_atom_site_type_symbol
_atom_site_fract_x
_atom_site_fract_y
_atom_site_fract_z
Cd1 Cd 0.239813(18) 0.953079(15) 0.559913(11)
N1 N 0.3669(3) 1.1842(2) 0.46320(17)
N2 N 0.2983(3) 1.3089(3) 0.3760(2)
N3 N 0.2406(4) 1.4276(4) 0.2907(4)
N4 N 0.1485(2) 0.9302(2) 0.37915(15)
N5 N 0.2281(3) 0.9988(2) 0.26710(16)
N6 N 0.3028(3) 1.0617(3) 0.15955(19)
N7 N 0.2368(2) 0.6757(2) 0.69519(15)
C1 C 0.2399(3) 0.6426(2) 0.82615(17)
C2 C 0.2603(3) 0.4764(2) 0.91211(19)
H1 H 0.2560 0.4576 1.0049
C3 C 0.2874(4) 0.3369(3) 0.8583(2)
H2 H 0.3060 0.2206 0.9141
C4 C 0.2871(4) 0.3691(3) 0.7243(2)
H3 H 0.3057 0.2761 0.6860
C5 C 0.2584(3) 0.5425(3) 0.6459(2)
H4 H 0.2543 0.5661 0.5539
C6 C 0.2261(3) 0.8000(2) 0.87132(17)
C7 C 0.2133(4) 0.7828(3) 1.01610(19)
H5 H 0.2678 0.8705 1.0236
H6 H 0.3027 0.6635 1.0547
H7 H 0.0608 0.8030 1.0651
O1 O 0.2253(2) 0.93993(18) 0.78895(14)
Cd1A Cd 0.760187(18) 1.046921(15) 0.440087(11)
Cd1A_2 Cd -0.239813(18) 1.046921(15) 0.440087(11)
N1A N 0.6331(3) 0.8158(2) 0.53680(17)
N4A N -0.1485(2) 1.0698(2) 0.62085(15)
loop_
_geom_bond_atom_site_label_1
_geom_bond_atom_site_label_2
_geom_bond_site_symmetry_1
_geom_bond_site_symmetry_2
Cd1 N1 1_555 1_555
N1 N2 1_555 1_555
N2 N3 1_555 1_555
N4 Cd1 1_555 1_555
N5 N4 1_555 1_555
N6 N5 1_555 1_555
N7 Cd1 1_555 1_555
C1 N7 1_555 1_555
C2 C1 1_555 1_555
H1 C2 1_555 1_555
C3 C2 1_555 1_555
H2 C3 1_555 1_555
C4 C3 1_555 1_555
H3 C4 1_555 1_555
C5 N7 1_555 1_555
H4 C5 1_555 1_555
C6 C1 1_555 1_555
C7 C6 1_555 1_555
H5 C7 1_555 1_555
H6 C7 1_555 1_555
H7 C7 1_555 1_555
O1 Cd1 1_555 1_555
Cd1A N1 1_555 1_555
Cd1A_2 N4 1_555 1_555
N1A Cd1 1_555 1_555
N4A Cd1 1_555 1_555
C4 C5 1_555 1_555
C6 O1 1_555 1_555
Cd1A N1A 1_555 1_555
Cd1A_2 N4A 1_555 1_555

#END
