
#######################################################################
#
#                 Cambridge Crystallographic Data Centre
#                                CCDC 
#
#######################################################################
#
# If this CIF has been generated from an entry in the Cambridge 
# Structural Database, then it will include bibliographic, chemical, 
# crystal, experimental, refinement or atomic coordinate data resulting 
# from the CCDC's data processing and validation procedures.
#
#######################################################################

data_SAVLUX
_symmetry_cell_setting           triclinic
_symmetry_space_group_name_H-M   'P -1'
_symmetry_Int_Tables_number      2
_space_group_name_Hall           '-P 1'
loop_
_symmetry_equiv_pos_site_id
_symmetry_equiv_pos_as_xyz
1 x,y,z
2 -x,-y,-z
_cell_length_a                   8.6598(15)
_cell_length_b                   10.2396(11)
_cell_length_c                   13.1712(16)
_cell_angle_alpha                95.658(4)
_cell_angle_beta                 100.013(4)
_cell_angle_gamma                109.946(5)
_cell_volume                     1065.3
loop_
_atom_site_label
_atom_site_type_symbol
_atom_site_fract_x
_atom_site_fract_y
_atom_site_fract_z
Zn1 Zn 0.5000 0.5000 0.5000
Zn2 Zn 0.153603(17) 0.711895(14) 0.710614(12)
O1 O 0.41622(14) 0.68720(12) 0.45241(10)
O2 O 0.31273(14) 0.69915(14) 0.59145(11)
O3 O -0.14281(15) 0.53188(14) 0.26750(13)
O4 O 0.05289(19) 0.50250(14) 0.37850(14)
O5 O 0.02080(15) 1.18832(13) 0.36104(12)
O6 O -0.18860(15) 1.00191(14) 0.26924(12)
C1 C 0.2195(2) 0.80019(18) 0.45005(15)
C2 C 0.06981(19) 0.73763(16) 0.37249(14)
C3 C -0.0101(2) 0.82578(18) 0.33481(15)
H1 H -0.1096 0.7858 0.2839
C4 C 0.0504(2) 0.96888(18) 0.36895(14)
C5 C 0.1986(2) 1.02740(19) 0.44398(16)
H2 H 0.2430 1.1242 0.4675
C6 C 0.2823(2) 0.94449(17) 0.48487(15)
H3 H 0.3814 0.9858 0.5361
C7 C 0.32054(18) 0.71981(17) 0.49917(14)
C8 C -0.0081(2) 0.58445(19) 0.33777(16)
C9 C -0.0458(2) 1.05813(17) 0.33105(15)
N1 N 0.07994(19) 0.70696(17) 0.87309(14)
N2 N 0.40013(18) 0.80210(16) 0.84101(14)
C10 C -0.0746(2) 0.6617(2) 0.88620(19)
H4 H -0.1624 0.6434 0.8285
C11 C -0.1125(3) 0.6401(3) 0.9811(2)
H5 H -0.2237 0.6052 0.9880
C12 C 0.0208(3) 0.6719(3) 1.0673(2)
H6 H 0.0015 0.6600 1.1337
C13 C 0.1720(3) 0.7186(2) 1.05200(18)
H7 H 0.2605 0.7413 1.1100
C14 C 0.2116(3) 0.73681(19) 0.95906(17)
C15 C 0.3843(3) 0.7923(2) 0.93923(16)
C16 C 0.5225(3) 0.8372(2) 1.0213(2)
H8 H 0.5098 0.8299 1.0894
C17 C 0.6784(3) 0.8926(3) 1.0007(2)
H9 H 0.7723 0.9222 1.0559
C18 C 0.7015(3) 0.9062(2) 0.9027(2)
H10 H 0.8081 0.9437 0.8886
C19 C 0.5495(3) 0.8585(3) 0.8215(2)
H11 H 0.5582 0.8681 0.7530
O7 O 0.76205(16) 0.61640(15) 0.48128(13)
O8 O 0.4172(3) 0.3939(3) 0.3321(2)
Zn2A Zn 0.846397(17) 0.288105(14) 0.289386(12)
Zn2A_2 Zn -0.153603(17) 0.288105(14) 0.289386(12)
Zn2A_3 Zn -0.153603(17) 1.288105(14) 0.289386(12)
Zn2_2 Zn 1.153603(17) 0.711895(14) 0.710614(12)
Zn2_3 Zn 1.153603(17) -0.288105(14) 0.710614(12)
O1A O 0.58378(14) 0.31280(12) 0.54759(10)
O2A O 0.68727(14) 0.30085(14) 0.40855(11)
O3A O 1.14281(15) 0.46812(14) 0.73250(13)
O3A_2 O 0.14281(15) 0.46812(14) 0.73250(13)
O3_2 O 0.85719(15) 0.53188(14) 0.26750(13)
O4A O 0.94711(19) 0.49750(14) 0.62150(14)
O4A_2 O -0.05289(19) 0.49750(14) 0.62150(14)
O4_2 O 1.05289(19) 0.50250(14) 0.37850(14)
O5A O 0.97920(15) -0.18832(13) 0.63896(12)
O5A_2 O -0.02080(15) 0.81168(13) 0.63896(12)
O5_2 O 1.02080(15) 0.18832(13) 0.36104(12)
O6A O 1.18860(15) -0.00191(14) 0.73076(12)
C1A C 0.7805(2) 0.19981(18) 0.54995(15)
C2A C 0.93019(19) 0.26237(16) 0.62751(14)
C3A C 1.0101(2) 0.17422(18) 0.66519(15)
H1A H 1.1096 0.2142 0.7161
C4A C 0.9496(2) 0.03112(18) 0.63105(14)
C5A C 0.8014(2) -0.02740(19) 0.55602(16)
H2A H 0.7570 -0.1242 0.5325
C6A C 0.7177(2) 0.05551(17) 0.51513(15)
H3A H 0.6186 0.0142 0.4639
C7A C 0.67946(18) 0.28019(17) 0.50083(14)
C8A C 1.0081(2) 0.41555(19) 0.66223(16)
C9A C 1.0458(2) -0.05813(17) 0.66895(15)
N1A N 0.92006(19) 0.29304(17) 0.12691(14)
N2A N 0.59987(18) 0.19790(16) 0.15899(14)
C10A C 1.0746(2) 0.3383(2) 0.11380(19)
H4A H 1.1624 0.3566 0.1715
C11A C 1.1125(3) 0.3599(3) 0.0189(2)
H5A H 1.2237 0.3948 0.0120
C12A C 0.9792(3) 0.3281(3) -0.0673(2)
H6A H 0.9985 0.3400 -0.1337
C13A C 0.8280(3) 0.2814(2) -0.05200(18)
H7A H 0.7395 0.2587 -0.1100
C14A C 0.7884(3) 0.26319(19) 0.04094(17)
C15A C 0.6157(3) 0.2077(2) 0.06077(16)
C16A C 0.4775(3) 0.1628(2) -0.0213(2)
H8A H 0.4902 0.1701 -0.0894
C17A C 0.3216(3) 0.1074(3) -0.0007(2)
H9A H 0.2277 0.0778 -0.0559
C18A C 0.2985(3) 0.0938(2) 0.0973(2)
H10A H 0.1919 0.0563 0.1114
C19A C 0.4505(3) 0.1415(3) 0.1785(2)
H11A H 0.4418 0.1319 0.2470
O7A O 0.23795(16) 0.38360(15) 0.51872(13)
O8A O 0.5828(3) 0.6061(3) 0.6679(2)
O9 O 0.4611(3) 0.4630(2) 0.8177(2)
O10 O 0.4889(2) 1.2190(2) 0.73091(14)
loop_
_geom_bond_atom_site_label_1
_geom_bond_atom_site_label_2
_geom_bond_site_symmetry_1
_geom_bond_site_symmetry_2
Zn1 O1 1_555 1_555
Zn2 O2 1_555 1_555
O1 C7 1_555 1_555
O2 C7 1_555 1_555
O3 C8 1_555 1_555
O4 C8 1_555 1_555
O5 C9 1_555 1_555
O6 C9 1_555 1_555
C1 C2 1_555 1_555
C2 C3 1_555 1_555
C3 H1 1_555 1_555
C4 C3 1_555 1_555
C5 C4 1_555 1_555
H2 C5 1_555 1_555
C6 C1 1_555 1_555
H3 C6 1_555 1_555
C7 C1 1_555 1_555
C8 C2 1_555 1_555
C9 C4 1_555 1_555
N1 Zn2 1_555 1_555
N2 Zn2 1_555 1_555
C10 N1 1_555 1_555
H4 C10 1_555 1_555
C11 C10 1_555 1_555
H5 C11 1_555 1_555
C12 C11 1_555 1_555
H6 C12 1_555 1_555
C13 C12 1_555 1_555
H7 C13 1_555 1_555
C14 N1 1_555 1_555
C15 N2 1_555 1_555
C16 C15 1_555 1_555
H8 C16 1_555 1_555
C17 C16 1_555 1_555
H9 C17 1_555 1_555
C18 C17 1_555 1_555
H10 C18 1_555 1_555
C19 N2 1_555 1_555
H11 C19 1_555 1_555
O7 Zn1 1_555 1_555
O8 Zn1 1_555 1_555
Zn2A O2A 1_555 1_555
Zn2A_2 O3 1_555 1_555
Zn2A_3 O5 1_555 1_555
Zn2_2 O3A 1_555 1_555
Zn2_3 O5A 1_555 1_555
O1A Zn1 1_555 1_555
O2A C7A 1_555 1_555
O3A C8A 1_555 1_555
O3A_2 Zn2 1_555 1_555
O3_2 Zn2A 1_555 1_555
O4A Zn2_2 1_555 1_555
O4A_2 Zn2 1_555 1_555
O4_2 Zn2A 1_555 1_555
O5A C9A 1_555 1_555
O5A_2 Zn2 1_555 1_555
O5_2 Zn2A 1_555 1_555
O6A C9A 1_555 1_555
C1A C2A 1_555 1_555
C2A C3A 1_555 1_555
C3A H1A 1_555 1_555
C4A C3A 1_555 1_555
C5A C4A 1_555 1_555
H2A C5A 1_555 1_555
C6A C1A 1_555 1_555
H3A C6A 1_555 1_555
C7A O1A 1_555 1_555
C8A O4A 1_555 1_555
C9A C4A 1_555 1_555
N1A Zn2A 1_555 1_555
N2A Zn2A 1_555 1_555
C10A N1A 1_555 1_555
H4A C10A 1_555 1_555
C11A C10A 1_555 1_555
H5A C11A 1_555 1_555
C12A C11A 1_555 1_555
H6A C12A 1_555 1_555
C13A C12A 1_555 1_555
H7A C13A 1_555 1_555
C14A N1A 1_555 1_555
C15A N2A 1_555 1_555
C16A C15A 1_555 1_555
H8A C16A 1_555 1_555
C17A C16A 1_555 1_555
H9A C17A 1_555 1_555
C18A C17A 1_555 1_555
H10A C18A 1_555 1_555
C19A N2A 1_555 1_555
H11A C19A 1_555 1_555
O7A Zn1 1_555 1_555
O8A Zn1 1_555 1_555
O4 Zn2A_2 1_555 1_555
C5 C6 1_555 1_555
C13 C14 1_555 1_555
C14 C15 1_555 1_555
C18 C19 1_555 1_555
C1A C7A 1_555 1_555
C2A C8A 1_555 1_555
C5A C6A 1_555 1_555
C13A C14A 1_555 1_555
C14A C15A 1_555 1_555
C18A C19A 1_555 1_555

#END
