
#######################################################################
#
#                 Cambridge Crystallographic Data Centre
#                                CCDC 
#
#######################################################################
#
# If this CIF has been generated from an entry in the Cambridge 
# Structural Database, then it will include bibliographic, chemical, 
# crystal, experimental, refinement or atomic coordinate data resulting 
# from the CCDC's data processing and validation procedures.
#
#######################################################################

data_SAVLIL
_symmetry_cell_setting           orthorhombic
_symmetry_space_group_name_H-M   'F d d 2'
_symmetry_Int_Tables_number      43
_space_group_name_Hall           'F 2 -2d'
loop_
_symmetry_equiv_pos_site_id
_symmetry_equiv_pos_as_xyz
1 x,y,z
2 -x,-y,z
3 1/4+x,1/4-y,1/4+z
4 1/4-x,1/4+y,1/4+z
5 x,1/2+y,1/2+z
6 -x,1/2-y,1/2+z
7 1/4+x,3/4-y,3/4+z
8 1/4-x,3/4+y,3/4+z
9 1/2+x,y,1/2+z
10 1/2-x,-y,1/2+z
11 3/4+x,1/4-y,3/4+z
12 3/4-x,1/4+y,3/4+z
13 1/2+x,1/2+y,z
14 1/2-x,1/2-y,z
15 3/4+x,3/4-y,1/4+z
16 3/4-x,3/4+y,1/4+z
_cell_length_a                   19.004(3)
_cell_length_b                   26.711(4)
_cell_length_c                   11.0770(15)
_cell_angle_alpha                90
_cell_angle_beta                 90
_cell_angle_gamma                90
_cell_volume                     5622.86
loop_
_atom_site_label
_atom_site_type_symbol
_atom_site_fract_x
_atom_site_fract_y
_atom_site_fract_z
Cu1 Cu 0.5000 0.5000 1.2943(3)
Cu2 Cu 0.22974(2) 0.424120(17) 1.7439(3)
O1 O 0.22350(15) 0.42602(12) 1.5690(4)
O2 O 0.31961(12) 0.46858(9) 1.5145(3)
O3 O 0.41999(11) 0.45285(9) 1.2983(3)
O4 O 0.35866(12) 0.52316(9) 1.2828(3)
O5 O 0.24797(14) 0.41032(12) 0.9148(4)
O6 O 0.15554(14) 0.36380(10) 0.9697(3)
O7 O 0.15819(15) 0.37216(10) 1.7291
H1 H 0.170(3) 0.3469(14) 1.687(5)
H2 H 0.1483(18) 0.3611(13) 1.7990(14)
O8 O 0.31651(12) 0.46522(9) 1.7490(3)
H3 H 0.3457(16) 0.4435(11) 1.774(4)
H4 H 0.331(2) 0.4741(18) 1.6797(19)
N1 N 0.5000 0.5000 1.1137(5)
N2 N 0.5000 0.5000 0.4736(5)
C1 C 0.2555(2) 0.42629(13) 1.3625(4)
C2 C 0.29807(16) 0.44440(12) 1.2695(4)
C3 C 0.28249(19) 0.43246(13) 1.1507(4)
H5 H 0.3097 0.4456 1.0885
C4 C 0.2262(2) 0.40089(13) 1.1240(4)
C5 C 0.18552(19) 0.38097(14) 1.2158(4)
H6 H 0.1488 0.3592 1.1977
C6 C 0.19961(19) 0.39348(14) 1.3347(4)
H7 H 0.1722 0.3802 1.3964
C7 C 0.26786(18) 0.44229(13) 1.4912(4)
C8 C 0.36178(18) 0.47676(13) 1.2884(4)
C9 C 0.20819(18) 0.39038(13) 0.9913(5)
C10 C 0.5507(2) 0.47683(16) 1.0508(4)
H8 H 0.5861 0.4603 1.0929
C11 C 0.5526(2) 0.47646(17) 0.9255(4)
H9 H 0.5893 0.4604 0.8858
C12 C 0.5000 0.5000 0.8586(6)
C13 C 0.54153(19) 0.46930(15) 0.5360(4)
H10 H 0.5710 0.4478 0.4936
C14 C 0.5428(2) 0.46798(15) 0.6588(4)
H11 H 0.5723 0.4456 0.6985
C15 C 0.5000 0.5000 0.7246(5)
Cu1_2 Cu 0.5000 0.5000 0.2943(3)
Cu2A Cu 0.77026(2) 0.575880(17) 1.7439(3)
Cu2I Cu 0.27026(2) 0.575880(17) 1.2439(3)
Cu2_2 Cu 0.22974(2) 0.424120(17) 0.7439(3)
Cu2H Cu 0.72974(2) 0.424120(17) 1.2439(3)
Cu2A_2 Cu 0.77026(2) 0.575880(17) 0.7439(3)
O1A O 0.77650(15) 0.57398(12) 1.5690(4)
O2A O 0.68039(12) 0.53142(9) 1.5145(3)
O3A O 0.58001(11) 0.54715(9) 1.2983(3)
O4A O 0.64134(12) 0.47684(9) 1.2828(3)
O4I O 0.14134(12) 0.47684(9) 1.7828(3)
O4H O 0.85866(12) 0.52316(9) 1.7828(3)
O5A O 0.75203(14) 0.58968(12) 0.9148(4)
O5_2 O 0.24797(14) 0.41032(12) 1.9148(4)
O5A_2 O 0.75203(14) 0.58968(12) 1.9148(4)
O6A O 0.84446(14) 0.63620(10) 0.9697(3)
O7A O 0.84181(15) 0.62784(10) 1.7291
H1A H 0.830(3) 0.6531(14) 1.687(5)
H2A H 0.8517(18) 0.6389(13) 1.7990(14)
O8A O 0.68349(12) 0.53478(9) 1.7490(3)
H3A H 0.6543(16) 0.5565(11) 1.774(4)
H4A H 0.669(2) 0.5259(18) 1.6797(19)
N2_2 N 0.5000 0.5000 1.4736(5)
C1A C 0.7445(2) 0.57371(13) 1.3625(4)
C2A C 0.70193(16) 0.55560(12) 1.2695(4)
C3A C 0.71751(19) 0.56754(13) 1.1507(4)
H5A H 0.6903 0.5544 1.0885
C4A C 0.7738(2) 0.59911(13) 1.1240(4)
C5A C 0.81448(19) 0.61903(14) 1.2158(4)
H6A H 0.8512 0.6408 1.1977
C6A C 0.80039(19) 0.60652(14) 1.3347(4)
H7A H 0.8278 0.6198 1.3964
C7A C 0.73214(18) 0.55771(13) 1.4912(4)
C8A C 0.63822(18) 0.52324(13) 1.2884(4)
C9A C 0.79181(18) 0.60962(13) 0.9913(5)
C10A C 0.4493(2) 0.52317(16) 1.0508(4)
H8A H 0.4139 0.5397 1.0929
C11A C 0.4474(2) 0.52354(17) 0.9255(4)
H9A H 0.4107 0.5396 0.8858
C13A C 0.45847(19) 0.53070(15) 0.5360(4)
H10A H 0.4290 0.5522 0.4936
C14A C 0.4572(2) 0.53202(15) 0.6588(4)
H11A H 0.4277 0.5544 0.6985
loop_
_geom_bond_atom_site_label_1
_geom_bond_atom_site_label_2
_geom_bond_site_symmetry_1
_geom_bond_site_symmetry_2
Cu1 O3 1_555 1_555
Cu2 O1 1_555 1_555
O1 C7 1_555 1_555
O2 C7 1_555 1_555
O3 C8 1_555 1_555
O4 C8 1_555 1_555
O5 C9 1_555 1_555
O6 C9 1_555 1_555
O7 Cu2 1_555 1_555
H1 O7 1_555 1_555
H2 O7 1_555 1_555
O8 Cu2 1_555 1_555
H3 O8 1_555 1_555
H4 O8 1_555 1_555
N1 Cu1 1_555 1_555
N2 C13 1_555 1_555
C1 C2 1_555 1_555
C2 C3 1_555 1_555
C3 H5 1_555 1_555
C4 C3 1_555 1_555
C5 C4 1_555 1_555
H6 C5 1_555 1_555
C6 C1 1_555 1_555
H7 C6 1_555 1_555
C7 C1 1_555 1_555
C8 C2 1_555 1_555
C9 C4 1_555 1_555
C10 N1 1_555 1_555
H8 C10 1_555 1_555
C11 C10 1_555 1_555
H9 C11 1_555 1_555
C12 C11 1_555 1_555
C13 H10 1_555 1_555
C14 C13 1_555 1_555
H11 C14 1_555 1_555
C15 C12 1_555 1_555
Cu1_2 N2 1_555 1_555
Cu2A O1A 1_555 1_555
Cu2I O4 1_555 1_555
Cu2_2 O5 1_555 1_555
Cu2H O4A 1_555 1_555
Cu2A_2 O5A 1_555 1_555
O1A C7A 1_555 1_555
O2A C7A 1_555 1_555
O3A Cu1 1_555 1_555
O4A C8A 1_555 1_555
O4I Cu2 1_555 1_555
O4H Cu2A 1_555 1_555
O5A C9A 1_555 1_555
O5_2 Cu2 1_555 1_555
O5A_2 Cu2A 1_555 1_555
O6A C9A 1_555 1_555
O7A Cu2A 1_555 1_555
H1A O7A 1_555 1_555
H2A O7A 1_555 1_555
O8A Cu2A 1_555 1_555
H3A O8A 1_555 1_555
H4A O8A 1_555 1_555
N2_2 Cu1 1_555 1_555
C1A C2A 1_555 1_555
C2A C3A 1_555 1_555
C3A H5A 1_555 1_555
C4A C3A 1_555 1_555
C5A C4A 1_555 1_555
H6A C5A 1_555 1_555
C6A C1A 1_555 1_555
H7A C6A 1_555 1_555
C7A C1A 1_555 1_555
C8A O3A 1_555 1_555
C9A C4A 1_555 1_555
C10A N1 1_555 1_555
H8A C10A 1_555 1_555
C11A C12 1_555 1_555
H9A C11A 1_555 1_555
C13A N2 1_555 1_555
H10A C13A 1_555 1_555
C14A C15 1_555 1_555
H11A C14A 1_555 1_555
C5 C6 1_555 1_555
C14 C15 1_555 1_555
C2A C8A 1_555 1_555
C5A C6A 1_555 1_555
C10A C11A 1_555 1_555
C13A C14A 1_555 1_555

#END
