
#######################################################################
#
#                 Cambridge Crystallographic Data Centre
#                                CCDC 
#
#######################################################################
#
# If this CIF has been generated from an entry in the Cambridge 
# Structural Database, then it will include bibliographic, chemical, 
# crystal, experimental, refinement or atomic coordinate data resulting 
# from the CCDC's data processing and validation procedures.
#
#######################################################################

data_SAVSEP
_symmetry_cell_setting           triclinic
_symmetry_space_group_name_H-M   'P -1'
_symmetry_Int_Tables_number      2
_space_group_name_Hall           '-P 1'
loop_
_symmetry_equiv_pos_site_id
_symmetry_equiv_pos_as_xyz
1 x,y,z
2 -x,-y,-z
_cell_length_a                   9.782(2)
_cell_length_b                   13.609(3)
_cell_length_c                   17.742(3)
_cell_angle_alpha                68.476(6)
_cell_angle_beta                 82.789(7)
_cell_angle_gamma                71.747(5)
_cell_volume                     2086.46
loop_
_atom_site_label
_atom_site_type_symbol
_atom_site_fract_x
_atom_site_fract_y
_atom_site_fract_z
Mn1 Mn 0.92132(5) 0.77268(4) 0.44883(3)
Mn2 Mn 1.0000 0.5000 0.5000
Mn3 Mn 0.55574(5) 0.79466(4) -0.07384(3)
Mn4 Mn 0.5000 1.0000 0.0000
O1 O 0.8269(2) 0.63891(18) 0.52063(14)
O2 O 0.6416(3) 0.7877(2) 0.48369(16)
O5 O 0.1374(2) 0.5565(2) 0.54599(14)
O6 O 0.1503(2) 0.7266(2) 0.47568(15)
O7 O 0.8521(3) 0.7784(2) 0.33341(15)
O8 O 1.0176(2) 0.6205(2) 0.38349(13)
O9 O 0.5681(3) 0.8415(2) 0.09559(15)
O10 O 0.6112(3) 0.7060(2) 0.04628(15)
O11 O 0.6426(2) 0.9324(2) -0.08324(15)
O12 O 0.8194(3) 0.7992(2) -0.1041(2)
O13 O 1.3489(3) 0.9531(3) -0.05462(17)
O14 O 1.3227(3) 0.8034(3) -0.06321(17)
C1 C 0.5897(3) 0.6163(2) 0.54881(17)
C2 C 0.4486(3) 0.6559(2) 0.52199(18)
H5 H 0.4170 0.7258 0.4830
C3 C 0.3549(3) 0.5925(3) 0.55270(18)
C4 C 0.4028(3) 0.4883(3) 0.6122(2)
H6 H 0.3402 0.4453 0.6338
C5 C 0.5430(3) 0.4488(3) 0.6392(2)
H7 H 0.5741 0.3798 0.6793
C6 C 0.6371(3) 0.5117(3) 0.60670(18)
H8 H 0.7322 0.4840 0.6236
C7 C 0.6898(3) 0.6866(3) 0.51473(18)
C8 C 0.2038(3) 0.6280(3) 0.52202(18)
C9 C 0.8887(3) 0.6462(3) 0.26940(18)
C10 C 0.7764(3) 0.7104(2) 0.21568(17)
H9 H 0.7214 0.7786 0.2183
C11 C 0.7456(4) 0.6740(3) 0.1584(2)
C12 C 0.8274(6) 0.5716(4) 0.1563(3)
H10 H 0.8073 0.5461 0.1182
C13 C 0.9379(7) 0.5073(4) 0.2096(3)
H11 H 0.9914 0.4384 0.2077
C14 C 0.9696(5) 0.5444(3) 0.2655(3)
H12 H 1.0455 0.5011 0.3009
C15 C 0.9212(3) 0.6850(3) 0.33181(18)
C16 C 0.6317(4) 0.7465(3) 0.09565(19)
C17 C 0.8776(3) 0.9558(3) -0.10178(19)
C18 C 1.0225(3) 0.9016(3) -0.08395(18)
H13 H 1.0567 0.8256 -0.0713
C19 C 1.1156(3) 0.9602(3) -0.08493(18)
C20 C 1.0656(4) 1.0729(3) -0.1057(2)
H14 H 1.1282 1.1122 -0.1058
C21 C 0.9224(4) 1.1287(3) -0.1264(3)
H15 H 0.8905 1.2053 -0.1426
C22 C 0.8272(4) 1.0699(3) -0.1229(2)
H16 H 0.7304 1.1065 -0.1345
C23 C 0.7768(3) 0.8906(3) -0.09554(19)
C24 C 1.2727(4) 0.9012(4) -0.0652(2)
C25 C 0.8568(4) 1.0092(3) 0.3103(2)
H17 H 0.8780 0.9673 0.2768
C26 C 0.8171(4) 1.1243(3) 0.2748(2)
H18 H 0.8115 1.1584 0.2188
C27 C 0.7866(4) 1.1854(3) 0.3245(2)
H19 H 0.7598 1.2621 0.3026
C28 C 0.7961(4) 1.1321(3) 0.4079(2)
H20 H 0.7769 1.1725 0.4424
C29 C 0.8347(3) 1.0173(3) 0.4392(2)
C30 C 0.8457(3) 0.9543(3) 0.5277(2)
C31 C 0.8235(4) 1.0040(3) 0.5859(2)
H21 H 0.7999 1.0804 0.5703
C32 C 0.8364(4) 0.9395(4) 0.6667(2)
H22 H 0.8215 0.9718 0.7062
C33 C 0.8720(4) 0.8264(4) 0.6884(2)
H23 H 0.8820 0.7812 0.7426
C34 C 0.8924(4) 0.7815(3) 0.6279(2)
H24 H 0.9160 0.7052 0.6424
C35 C 0.6460(5) 0.5454(4) -0.0647(3)
H25 H 0.6633 0.5298 -0.0106
C36 C 0.6568(7) 0.4586(5) -0.0912(5)
H26 H 0.6804 0.3859 -0.0556
C37 C 0.6320(9) 0.4831(7) -0.1698(6)
H27 H 0.6381 0.4268 -0.1891
C38 C 0.5974(7) 0.5915(6) -0.2224(4)
H28 H 0.5806 0.6080 -0.2767
C39 C 0.5880(4) 0.6742(4) -0.1937(3)
C40 C 0.5508(4) 0.7922(4) -0.2456(2)
C41 C 0.5381(4) 0.8316(6) -0.3304(3)
H29 H 0.5551 0.7822 -0.3579
C42 C 0.5008(5) 0.9424(7) -0.3723(3)
H30 H 0.4940 0.9688 -0.4284
C43 C 0.4734(5) 1.0141(5) -0.3318(3)
H31 H 0.4452 1.0898 -0.3595
C44 C 0.4884(4) 0.9726(4) -0.2490(3)
H32 H 0.4708 1.0217 -0.2214
N1 N 0.8656(3) 0.9571(2) 0.39033(16)
N2 N 0.8795(3) 0.8438(2) 0.54931(16)
N3 N 0.6115(3) 0.6500(3) -0.11474(18)
N4 N 0.5273(3) 0.8639(3) -0.20672(17)
Mn1A Mn 1.07868(5) 0.22732(4) 0.55117(3)
Mn1_2 Mn -0.07868(5) 0.77268(4) 0.44883(3)
Mn1A_2 Mn 2.07868(5) 0.22732(4) 0.55117(3)
Mn2_2 Mn 0.0000 0.5000 0.5000
Mn2_3 Mn 2.0000 0.5000 0.5000
Mn3A Mn 1.44426(5) 0.20534(4) 1.07384(3)
Mn3_2 Mn 1.55574(5) 0.79466(4) -0.07384(3)
Mn3_3 Mn -0.44426(5) 0.79466(4) -0.07384(3)
Mn4_2 Mn 1.5000 1.0000 0.0000
Mn4_3 Mn 1.5000 0.0000 1.0000
Mn4_4 Mn -0.5000 1.0000 0.0000
O1A O 1.1731(2) 0.36109(18) 0.47937(14)
O2A O 1.3584(3) 0.2123(2) 0.51631(16)
O5A O 1.8626(2) 0.4435(2) 0.45401(14)
O5_2 O 1.1374(2) 0.5565(2) 0.54599(14)
O5A_2 O 0.8626(2) 0.4435(2) 0.45401(14)
O6A O 1.8497(2) 0.2734(2) 0.52432(15)
O6_2 O 1.1503(2) 0.7266(2) 0.47568(15)
O6A_2 O 0.8497(2) 0.2734(2) 0.52432(15)
O7A O 1.1479(3) 0.2216(2) 0.66659(15)
O8A O 0.9824(2) 0.3795(2) 0.61651(13)
O9A O 1.4319(3) 0.1585(2) 0.90441(15)
O9A_2 O 0.4319(3) 1.1585(2) -0.09559(15)
O10A O 1.3888(3) 0.2940(2) 0.95372(15)
O11_2 O -0.3574(2) 0.9324(2) -0.08324(15)
O11A O 0.3574(2) 1.0676(2) 0.08324(15)
O11A_2 O 1.3574(2) 0.0676(2) 1.08324(15)
O12_2 O -0.1806(3) 0.7992(2) -0.1041(2)
O13_2 O 0.3489(3) 0.9531(3) -0.05462(17)
O13A O 0.6511(3) 1.0469(3) 0.05462(17)
O14_2 O 0.3227(3) 0.8034(3) -0.06321(17)
O14A O 1.6773(3) 0.1966(3) 1.06321(17)
C1A C 1.4103(3) 0.3837(2) 0.45119(17)
C2A C 1.5514(3) 0.3441(2) 0.47801(18)
H5A H 1.5830 0.2742 0.5170
C3A C 1.6451(3) 0.4075(3) 0.44730(18)
C4A C 1.5972(3) 0.5117(3) 0.3878(2)
H6A H 1.6598 0.5547 0.3662
C5A C 1.4570(3) 0.5512(3) 0.3608(2)
H7A H 1.4259 0.6202 0.3207
C6A C 1.3629(3) 0.4883(3) 0.39330(18)
H8A H 1.2678 0.5160 0.3764
C7A C 1.3102(3) 0.3134(3) 0.48527(18)
C8A C 1.7962(3) 0.3720(3) 0.47798(18)
C9A C 1.1113(3) 0.3538(3) 0.73060(18)
C10A C 1.2236(3) 0.2896(2) 0.78432(17)
H9A H 1.2786 0.2214 0.7817
C11A C 1.2544(4) 0.3260(3) 0.8416(2)
C12A C 1.1726(6) 0.4284(4) 0.8437(3)
H10A H 1.1927 0.4539 0.8818
C13A C 1.0621(7) 0.4927(4) 0.7904(3)
H11A H 1.0086 0.5616 0.7923
C14A C 1.0304(5) 0.4556(3) 0.7345(3)
H12A H 0.9545 0.4989 0.6991
C15A C 1.0788(3) 0.3150(3) 0.66819(18)
C16A C 1.3683(4) 0.2535(3) 0.90435(19)
C17_2 C -0.1224(3) 0.9558(3) -0.10178(19)
C18_2 C 0.0225(3) 0.9016(3) -0.08395(18)
H13_2 H 0.0567 0.8256 -0.0713
C19_2 C 0.1156(3) 0.9602(3) -0.08493(18)
C20_2 C 0.0656(4) 1.0729(3) -0.1057(2)
H14_2 H 0.1282 1.1122 -0.1058
C21_2 C -0.0776(4) 1.1287(3) -0.1264(3)
H15_2 H -0.1095 1.2053 -0.1426
C22_2 C -0.1728(4) 1.0699(3) -0.1229(2)
H16_2 H -0.2696 1.1065 -0.1345
C23_2 C -0.2232(3) 0.8906(3) -0.09554(19)
C24_2 C 0.2727(4) 0.9012(4) -0.0652(2)
C25A C 1.1432(4) -0.0092(3) 0.6897(2)
H17A H 1.1220 0.0327 0.7232
C26A C 1.1829(4) -0.1243(3) 0.7252(2)
H18A H 1.1885 -0.1584 0.7812
C27A C 1.2134(4) -0.1854(3) 0.6755(2)
H19A H 1.2402 -0.2621 0.6974
C28A C 1.2039(4) -0.1321(3) 0.5921(2)
H20A H 1.2231 -0.1725 0.5576
C29A C 1.1653(3) -0.0173(3) 0.5608(2)
C30A C 1.1543(3) 0.0457(3) 0.4723(2)
C31A C 1.1765(4) -0.0040(3) 0.4141(2)
H21A H 1.2001 -0.0804 0.4297
C32A C 1.1636(4) 0.0605(4) 0.3333(2)
H22A H 1.1785 0.0282 0.2938
C33A C 1.1280(4) 0.1736(4) 0.3116(2)
H23A H 1.1180 0.2188 0.2574
C34A C 1.1076(4) 0.2185(3) 0.3721(2)
H24A H 1.0840 0.2948 0.3576
C35A C 1.3540(5) 0.4546(4) 1.0647(3)
H25A H 1.3367 0.4702 1.0106
C36A C 1.3432(7) 0.5414(5) 1.0912(5)
H26A H 1.3196 0.6141 1.0556
C37A C 1.3680(9) 0.5169(7) 1.1698(6)
H27A H 1.3619 0.5732 1.1891
C38A C 1.4026(7) 0.4085(6) 1.2224(4)
H28A H 1.4194 0.3920 1.2767
C39A C 1.4120(4) 0.3258(4) 1.1937(3)
C40A C 1.4492(4) 0.2078(4) 1.2456(2)
C41A C 1.4619(4) 0.1684(6) 1.3304(3)
H29A H 1.4449 0.2178 1.3579
C42A C 1.4992(5) 0.0576(7) 1.3723(3)
H30A H 1.5060 0.0312 1.4284
C43A C 1.5266(5) -0.0141(5) 1.3318(3)
H31A H 1.5548 -0.0898 1.3595
C44A C 1.5116(4) 0.0274(4) 1.2490(3)
H32A H 1.5292 -0.0217 1.2214
N1A N 1.1344(3) 0.0429(2) 0.60967(16)
N2A N 1.1205(3) 0.1562(2) 0.45069(16)
N3A N 1.3885(3) 0.3500(3) 1.11474(18)
N4A N 1.4727(3) 0.1361(3) 1.20672(17)
O3 O 0.9685(7) 0.3964(5) 0.0454(5)
H1 H 0.9856 0.4593 0.0187
H2 H 1.0196 0.3257 0.0697
O4 O 0.7283(11) 0.3608(8) 0.1236(6)
H3 H 0.7075 0.3143 0.1084
H4 H 0.8083 0.3739 0.1014
loop_
_geom_bond_atom_site_label_1
_geom_bond_atom_site_label_2
_geom_bond_site_symmetry_1
_geom_bond_site_symmetry_2
Mn1 O1 1_555 1_555
Mn2 O1 1_555 1_555
Mn3 O10 1_555 1_555
Mn4 O9 1_555 1_555
O1 C7 1_555 1_555
O2 C7 1_555 1_555
O3 H1 1_555 1_555
H2 O3 1_555 1_555
O4 H3 1_555 1_555
H4 O4 1_555 1_555
O5 C8 1_555 1_555
O6 C8 1_555 1_555
O7 Mn1 1_555 1_555
O8 Mn2 1_555 1_555
O9 C16 1_555 1_555
O10 C16 1_555 1_555
O11 Mn3 1_555 1_555
O12 C23 1_555 1_555
O13 C24 1_555 1_555
O14 C24 1_555 1_555
C1 C2 1_555 1_555
C2 H5 1_555 1_555
C3 C2 1_555 1_555
C4 C3 1_555 1_555
H6 C4 1_555 1_555
C5 C4 1_555 1_555
H7 C5 1_555 1_555
C6 C1 1_555 1_555
H8 C6 1_555 1_555
C7 C1 1_555 1_555
C8 C3 1_555 1_555
C9 C10 1_555 1_555
C10 H9 1_555 1_555
C11 C10 1_555 1_555
C12 C11 1_555 1_555
H10 C12 1_555 1_555
C13 C12 1_555 1_555
H11 C13 1_555 1_555
C14 C9 1_555 1_555
H12 C14 1_555 1_555
C15 O7 1_555 1_555
C16 C11 1_555 1_555
C17 C18 1_555 1_555
C18 H13 1_555 1_555
C19 C18 1_555 1_555
C20 C19 1_555 1_555
H14 C20 1_555 1_555
C21 C20 1_555 1_555
H15 C21 1_555 1_555
C22 C17 1_555 1_555
H16 C22 1_555 1_555
C23 O11 1_555 1_555
C24 C19 1_555 1_555
C25 H17 1_555 1_555
C26 C25 1_555 1_555
H18 C26 1_555 1_555
C27 C26 1_555 1_555
H19 C27 1_555 1_555
C28 C27 1_555 1_555
H20 C28 1_555 1_555
C29 C28 1_555 1_555
C30 C29 1_555 1_555
C31 C30 1_555 1_555
H21 C31 1_555 1_555
C32 C31 1_555 1_555
H22 C32 1_555 1_555
C33 C32 1_555 1_555
H23 C33 1_555 1_555
C34 C33 1_555 1_555
H24 C34 1_555 1_555
C35 H25 1_555 1_555
C36 C35 1_555 1_555
H26 C36 1_555 1_555
C37 C36 1_555 1_555
H27 C37 1_555 1_555
C38 C37 1_555 1_555
H28 C38 1_555 1_555
C39 C38 1_555 1_555
C40 C39 1_555 1_555
C41 C40 1_555 1_555
H29 C41 1_555 1_555
C42 C41 1_555 1_555
H30 C42 1_555 1_555
C43 C42 1_555 1_555
H31 C43 1_555 1_555
C44 C43 1_555 1_555
H32 C44 1_555 1_555
N1 Mn1 1_555 1_555
N2 Mn1 1_555 1_555
N3 Mn3 1_555 1_555
N4 Mn3 1_555 1_555
Mn1A O1A 1_555 1_555
Mn1_2 O6 1_555 1_555
Mn1A_2 O6A 1_555 1_555
Mn2_2 O5 1_555 1_555
Mn2_3 O5A 1_555 1_555
Mn3A O10A 1_555 1_555
Mn3_2 O14 1_555 1_555
Mn3_3 O11_2 1_555 1_555
Mn4_2 O13 1_555 1_555
Mn4_3 O9A 1_555 1_555
Mn4_4 O11_2 1_555 1_555
O1A Mn2 1_555 1_555
O2A C7A 1_555 1_555
O5A C8A 1_555 1_555
O5_2 Mn2 1_555 1_555
O5A_2 Mn2 1_555 1_555
O6A C8A 1_555 1_555
O6_2 Mn1 1_555 1_555
O6A_2 Mn1A 1_555 1_555
O7A Mn1A 1_555 1_555
O8A Mn2 1_555 1_555
O9A C16A 1_555 1_555
O9A_2 Mn4 1_555 1_555
O10A C16A 1_555 1_555
O11_2 C23_2 1_555 1_555
O11A Mn4 1_555 1_555
O11A_2 Mn3A 1_555 1_555
O12_2 C23_2 1_555 1_555
O13_2 Mn4 1_555 1_555
O13A Mn4 1_555 1_555
O14_2 Mn3 1_555 1_555
O14A Mn3A 1_555 1_555
C1A C2A 1_555 1_555
C2A H5A 1_555 1_555
C3A C2A 1_555 1_555
C4A C3A 1_555 1_555
H6A C4A 1_555 1_555
C5A C4A 1_555 1_555
H7A C5A 1_555 1_555
C6A C1A 1_555 1_555
H8A C6A 1_555 1_555
C7A O1A 1_555 1_555
C8A C3A 1_555 1_555
C9A C10A 1_555 1_555
C10A H9A 1_555 1_555
C11A C10A 1_555 1_555
C12A C11A 1_555 1_555
H10A C12A 1_555 1_555
C13A C12A 1_555 1_555
H11A C13A 1_555 1_555
C14A C9A 1_555 1_555
H12A C14A 1_555 1_555
C15A O7A 1_555 1_555
C16A C11A 1_555 1_555
C17_2 C18_2 1_555 1_555
C18_2 H13_2 1_555 1_555
C19_2 C18_2 1_555 1_555
C20_2 C19_2 1_555 1_555
H14_2 C20_2 1_555 1_555
C21_2 C20_2 1_555 1_555
H15_2 C21_2 1_555 1_555
C22_2 C17_2 1_555 1_555
H16_2 C22_2 1_555 1_555
C23_2 C17_2 1_555 1_555
C24_2 O13_2 1_555 1_555
C25A H17A 1_555 1_555
C26A C25A 1_555 1_555
H18A C26A 1_555 1_555
C27A C26A 1_555 1_555
H19A C27A 1_555 1_555
C28A C27A 1_555 1_555
H20A C28A 1_555 1_555
C29A C28A 1_555 1_555
C30A C29A 1_555 1_555
C31A C30A 1_555 1_555
H21A C31A 1_555 1_555
C32A C31A 1_555 1_555
H22A C32A 1_555 1_555
C33A C32A 1_555 1_555
H23A C33A 1_555 1_555
C34A C33A 1_555 1_555
H24A C34A 1_555 1_555
C35A H25A 1_555 1_555
C36A C35A 1_555 1_555
H26A C36A 1_555 1_555
C37A C36A 1_555 1_555
H27A C37A 1_555 1_555
C38A C37A 1_555 1_555
H28A C38A 1_555 1_555
C39A C38A 1_555 1_555
C40A C39A 1_555 1_555
C41A C40A 1_555 1_555
H29A C41A 1_555 1_555
C42A C41A 1_555 1_555
H30A C42A 1_555 1_555
C43A C42A 1_555 1_555
H31A C43A 1_555 1_555
C44A C43A 1_555 1_555
H32A C44A 1_555 1_555
N1A Mn1A 1_555 1_555
N2A Mn1A 1_555 1_555
N3A Mn3A 1_555 1_555
N4A Mn3A 1_555 1_555
Mn4 O11 1_555 1_555
O8 C15 1_555 1_555
C5 C6 1_555 1_555
C9 C15 1_555 1_555
C13 C14 1_555 1_555
C17 C23 1_555 1_555
C21 C22 1_555 1_555
C25 N1 1_555 1_555
C29 N1 1_555 1_555
C30 N2 1_555 1_555
C34 N2 1_555 1_555
C35 N3 1_555 1_555
C39 N3 1_555 1_555
C40 N4 1_555 1_555
C44 N4 1_555 1_555
Mn4_3 O11A_2 1_555 1_555
O8A C15A 1_555 1_555
O14_2 C24_2 1_555 1_555
C1A C7A 1_555 1_555
C5A C6A 1_555 1_555
C9A C15A 1_555 1_555
C13A C14A 1_555 1_555
C19_2 C24_2 1_555 1_555
C21_2 C22_2 1_555 1_555
C25A N1A 1_555 1_555
C29A N1A 1_555 1_555
C30A N2A 1_555 1_555
C34A N2A 1_555 1_555
C35A N3A 1_555 1_555
C39A N3A 1_555 1_555
C40A N4A 1_555 1_555
C44A N4A 1_555 1_555

#END
