
#######################################################################
#
#                 Cambridge Crystallographic Data Centre
#                                CCDC 
#
#######################################################################
#
# If this CIF has been generated from an entry in the Cambridge 
# Structural Database, then it will include bibliographic, chemical, 
# crystal, experimental, refinement or atomic coordinate data resulting 
# from the CCDC's data processing and validation procedures.
#
#######################################################################

data_SAVSIT
_symmetry_cell_setting           monoclinic
_symmetry_space_group_name_H-M   'P 21/c'
_symmetry_Int_Tables_number      14
_space_group_name_Hall           '-P 2ybc'
loop_
_symmetry_equiv_pos_site_id
_symmetry_equiv_pos_as_xyz
1 x,y,z
2 -x,1/2+y,1/2-z
3 -x,-y,-z
4 x,1/2-y,1/2+z
_cell_length_a                   12.596(5)
_cell_length_b                   9.623(3)
_cell_length_c                   15.059(5)
_cell_angle_alpha                90
_cell_angle_beta                 95.715(7)
_cell_angle_gamma                90
_cell_volume                     1816.25
loop_
_atom_site_label
_atom_site_type_symbol
_atom_site_fract_x
_atom_site_fract_y
_atom_site_fract_z
Mn1 Mn 0.248397(17) 0.23430(2) -0.402877(14)
O1 O 0.25315(8) 0.41573(11) -0.31920(7)
O2 O 0.36441(9) 0.55670(12) -0.38338(7)
O3 O 0.41596(9) 0.56394(11) 0.08237(7)
O4 O 0.28951(9) 0.42803(11) 0.01241(7)
O5 O 0.37743(9) 0.15545(13) -0.31064(8)
H1 H 0.4098(18) 0.087(2) -0.3293(15)
H2 H 0.404(2) 0.173(3) -0.2567(12)
O6 O 0.30427(9) 0.36993(12) -0.50718(7)
H3 H 0.3317(18) 0.440(2) -0.4781(14)
H4 H 0.3496(14) 0.344(2) -0.5417(12)
N1 N 0.07895(11) 0.25533(13) -0.47170(9)
N2 N 0.13434(10) 0.09507(14) -0.32942(9)
C1 C 0.33490(11) 0.60063(15) -0.23322(9)
C2 C 0.33088(11) 0.53423(15) -0.15162(10)
H7 H 0.3094 0.4418 -0.1503
C3 C 0.35867(11) 0.60454(15) -0.07177(9)
C4 C 0.38626(13) 0.74487(15) -0.07396(11)
H8 H 0.4050 0.7926 -0.0210
C5 C 0.38573(12) 0.81324(16) -0.15521(10)
H9 H 0.4017 0.9075 -0.1563
C6 C 0.36158(12) 0.74184(15) -0.23477(11)
H10 H 0.3631 0.7877 -0.2890
C7 C 0.31570(11) 0.51832(15) -0.31836(10)
C8 C 0.35597(11) 0.52727(15) 0.01493(10)
C9 C 0.05275(13) 0.34235(18) -0.53981(11)
H11 H 0.1058 0.3986 -0.5594
C10 C -0.04972(15) 0.3525(2) -0.58254(12)
H12 H -0.0653 0.4153 -0.6289
C11 C -0.12804(15) 0.2673(2) -0.55468(14)
H13 H -0.1974 0.2718 -0.5821
C12 C -0.10207(13) 0.1755(2) -0.48563(12)
H14 H -0.1535 0.1160 -0.4667
C13 C 0.00178(11) 0.17280(16) -0.44456(10)
C14 C 0.03359(12) 0.07997(16) -0.36758(10)
C15 C -0.03668(13) -0.01516(19) -0.33560(13)
H15 H -0.1060 -0.0235 -0.3627
C16 C -0.00201(15) -0.0971(2) -0.26296(14)
H16 H -0.0477 -0.1612 -0.2406
C17 C 0.10150(15) -0.0824(2) -0.22412(13)
H17 H 0.1269 -0.1366 -0.1755
C18 C 0.16642(13) 0.01476(18) -0.25923(11)
H18 H 0.2359 0.0249 -0.2328
Mn1C Mn 0.248397(17) 0.26570(2) 0.097123(14)
O4C O 0.28951(9) 0.07197(11) -0.48759(7)
O7 O 0.54926(9) 0.70837(13) -0.37045(7)
H5 H 0.4944(15) 0.656(2) -0.3726(14)
H6 H 0.5210(17) 0.7884(19) -0.3851(14)
loop_
_geom_bond_atom_site_label_1
_geom_bond_atom_site_label_2
_geom_bond_site_symmetry_1
_geom_bond_site_symmetry_2
Mn1 O1 1_555 1_555
O1 C7 1_555 1_555
O2 C7 1_555 1_555
O3 C8 1_555 1_555
O4 C8 1_555 1_555
O5 Mn1 1_555 1_555
H1 O5 1_555 1_555
H2 O5 1_555 1_555
O6 Mn1 1_555 1_555
H3 O6 1_555 1_555
H4 O6 1_555 1_555
O7 H5 1_555 1_555
H6 O7 1_555 1_555
N1 Mn1 1_555 1_555
N2 Mn1 1_555 1_555
C1 C2 1_555 1_555
C2 H7 1_555 1_555
C3 C2 1_555 1_555
C4 C3 1_555 1_555
H8 C4 1_555 1_555
C5 C4 1_555 1_555
H9 C5 1_555 1_555
C6 C1 1_555 1_555
H10 C6 1_555 1_555
C7 C1 1_555 1_555
C8 C3 1_555 1_555
C9 N1 1_555 1_555
H11 C9 1_555 1_555
C10 C9 1_555 1_555
H12 C10 1_555 1_555
C11 C10 1_555 1_555
H13 C11 1_555 1_555
C12 C11 1_555 1_555
H14 C12 1_555 1_555
C13 N1 1_555 1_555
C14 N2 1_555 1_555
C15 C14 1_555 1_555
H15 C15 1_555 1_555
C16 C15 1_555 1_555
H16 C16 1_555 1_555
C17 C16 1_555 1_555
H17 C17 1_555 1_555
C18 N2 1_555 1_555
H18 C18 1_555 1_555
Mn1C O4 1_555 1_555
O4C Mn1 1_555 1_555
C5 C6 1_555 1_555
C12 C13 1_555 1_555
C13 C14 1_555 1_555
C17 C18 1_555 1_555

#END
