
#######################################################################
#
#                 Cambridge Crystallographic Data Centre
#                                CCDC 
#
#######################################################################
#
# If this CIF has been generated from an entry in the Cambridge 
# Structural Database, then it will include bibliographic, chemical, 
# crystal, experimental, refinement or atomic coordinate data resulting 
# from the CCDC's data processing and validation procedures.
#
#######################################################################

data_SAWKOR
_symmetry_cell_setting           hexagonal
_symmetry_space_group_name_H-M   'P 63'
_symmetry_Int_Tables_number      173
_space_group_name_Hall           'P 6c'
loop_
_symmetry_equiv_pos_site_id
_symmetry_equiv_pos_as_xyz
1 x,y,z
2 -x,-y,1/2+z
3 -y,x-y,z
4 y,-x+y,1/2+z
5 -x+y,-x,z
6 x-y,x,1/2+z
_cell_length_a                   13.5662(7)
_cell_length_b                   13.5662(7)
_cell_length_c                   20.1867(11)
_cell_angle_alpha                90
_cell_angle_beta                 90
_cell_angle_gamma                120
_cell_volume                     3217.45
loop_
_atom_site_label
_atom_site_type_symbol
_atom_site_fract_x
_atom_site_fract_y
_atom_site_fract_z
I1 I 0.0000 0.0000 0.50004(4)
I2 I 0.31191(4) 0.33999(4) 0.52284(4)
I3 I 0.3333 0.6667 0.53549(4)
Cu1 Cu 0.17328(8) 0.14147(8) 0.57830(5)
Cu2 Cu 0.27525(8) 0.48959(8) 0.45981(5)
S1 S 0.55564(16) 0.15297(16) 0.86946(10)
S2 S 0.08514(15) 0.17796(16) 0.66662(9)
N1 N 0.7004(5) 0.1098(6) 0.9310(3)
N2 N 0.5453(6) -0.0483(6) 0.8761(4)
N3 N 0.0855(6) 0.3719(6) 0.6471(4)
N4 N -0.0689(5) 0.2011(5) 0.6015(3)
C1 C 0.7429(7) 0.0407(7) 0.9456(4)
H1 H 0.8118 0.0716 0.9682
C2 C 0.6897(7) -0.0718(9) 0.9288(5)
H2 H 0.7207 -0.1173 0.9396
C3 C 0.5850(8) -0.1162(9) 0.8942(5)
H3 H 0.5438 -0.1934 0.8841
C4 C 0.6043(7) 0.0613(6) 0.8952(4)
C5 C 0.4304(8) 0.0514(9) 0.8228(6)
H4 H 0.4526 0.0200 0.7863
H5 H 0.3785 -0.0106 0.8512
C6 C 0.3723(8) 0.1167(8) 0.7961(5)
C7 C 0.2677(8) 0.0889(8) 0.8177(5)
H6 H 0.2329 0.0328 0.8499
C8 C 0.2111(9) 0.1415(8) 0.7932(5)
H7 H 0.1382 0.1195 0.8084
C9 C 0.2606(7) 0.2253(7) 0.7469(4)
C10 C 0.3703(8) 0.2551(8) 0.7244(5)
H8 H 0.4057 0.3119 0.6925
C11 C 0.4256(8) 0.2016(8) 0.7488(5)
H9 H 0.4982 0.2220 0.7339
C12 C 0.2004(7) 0.2823(8) 0.7176(5)
H10 H 0.2527 0.3469 0.6909
H11 H 0.1705 0.3091 0.7525
C13 C 0.0287(6) 0.2592(6) 0.6353(4)
C14 C 0.0361(8) 0.4287(8) 0.6229(5)
H12 H 0.0726 0.5071 0.6292
C15 C -0.0662(7) 0.3769(8) 0.5889(6)
H13 H -0.0992 0.4183 0.5733
C16 C -0.1166(6) 0.2614(7) 0.5792(5)
H14 H -0.1855 0.2238 0.5566
I2D I 0.02808(6) -0.31191(4) 0.52284(4)
I2B I -0.33999(4) -0.02808(6) 0.52284(4)
I2C I 0.33999(4) 0.02808(6) 1.02284(4)
I2A I -0.31191(4) -0.33999(4) 1.02284(4)
I3A I 0.6667 0.3333 1.03549(4)
I3A_2 I -0.3333 -0.6667 1.03549(4)
Cu1D Cu -0.03181(11) -0.17328(8) 0.57830(5)
Cu1B Cu -0.14147(8) 0.03181(11) 0.57830(5)
Cu1E Cu 0.03181(11) 0.17328(8) 0.07830(5)
Cu1A Cu -0.17328(8) -0.14147(8) 0.07830(5)
Cu2C Cu 0.48959(8) 0.21434(11) 0.95981(5)
Cu2A Cu -0.27525(8) -0.48959(8) 0.95981(5)
Cu2B Cu 0.51041(8) 0.78566(11) 0.45981(5)
Cu2D Cu 0.21434(11) 0.72475(8) 0.45981(5)
Cu2E Cu 0.78566(11) 0.27525(8) 0.95981(5)
Cu2C_2 Cu -0.51041(8) -0.78566(11) 0.95981(5)
Cu2D_2 Cu 0.21434(11) -0.27525(8) 0.45981(5)
Cu2B_2 Cu -0.48959(8) -0.21434(11) 0.45981(5)
S1D S -0.40267(23) -0.55564(16) 0.86946(10)
S1E S 0.40267(23) 0.55564(16) 0.36946(10)
S2D S 0.09282(22) -0.08514(15) 0.66662(9)
S2E S -0.09282(22) 0.08514(15) 0.16662(9)
S2B S -0.17796(16) -0.09282(22) 0.66662(9)
N1D N -0.5906(8) -0.7004(5) 0.9310(3)
N1E N 0.5906(8) 0.7004(5) 0.4310(3)
N1C N 0.1098(6) 0.4094(8) 0.4310(3)
N1D_2 N 0.4094(8) 0.2996(5) 0.9310(3)
N1B N -0.1098(6) -0.4094(8) 0.9310(3)
N2D N -0.5936(8) -0.5453(6) 0.8761(4)
N2E N 0.5936(8) 0.5453(6) 0.3761(4)
N3D N 0.2864(8) -0.0855(6) 0.6471(4)
N3E N -0.2864(8) 0.0855(6) 0.1471(4)
N4D N 0.2700(7) 0.0689(5) 0.6015(3)
N4E N -0.2700(7) -0.0689(5) 0.1015(3)
N4B N -0.2011(5) -0.2700(7) 0.6015(3)
C1D C -0.7022(10) -0.7429(7) 0.9456(4)
C1E C 0.7022(10) 0.7429(7) 0.4456(4)
H1D H -0.7402 -0.8118 0.9682
H1E H 0.7402 0.8118 0.4682
C2D C -0.7615(11) -0.6897(7) 0.9288(5)
C2E C 0.7615(11) 0.6897(7) 0.4288(5)
H2D H -0.8380 -0.7207 0.9396
H2E H 0.8380 0.7207 0.4396
C3D C -0.7012(12) -0.5850(8) 0.8942(5)
C3E C 0.7012(12) 0.5850(8) 0.3942(5)
H3D H -0.7372 -0.5438 0.8841
H3E H 0.7372 0.5438 0.3841
C4D C -0.5430(9) -0.6043(7) 0.8952(4)
C4E C 0.5430(9) 0.6043(7) 0.3952(4)
C5D C -0.3790(12) -0.4304(8) 0.8228(6)
C5E C 0.3790(12) 0.4304(8) 0.3228(6)
H4D H -0.4326 -0.4526 0.7863
H4E H 0.4326 0.4526 0.2863
H5D H -0.3891 -0.3785 0.8512
H5E H 0.3891 0.3785 0.3512
C6D C -0.2556(11) -0.3723(8) 0.7961(5)
C6E C 0.2556(11) 0.3723(8) 0.2961(5)
C7D C -0.1788(11) -0.2677(8) 0.8177(5)
C7E C 0.1788(11) 0.2677(8) 0.3177(5)
H6D H -0.2001 -0.2329 0.8499
H6E H 0.2001 0.2329 0.3499
C8D C -0.0696(12) -0.2111(9) 0.7932(5)
C8E C 0.0696(12) 0.2111(9) 0.2932(5)
H7D H -0.0187 -0.1382 0.8084
H7E H 0.0187 0.1382 0.3084
C9D C -0.0353(10) -0.2606(7) 0.7469(4)
C9E C 0.0353(10) 0.2606(7) 0.2469(4)
C10D C -0.1152(11) -0.3703(8) 0.7244(5)
C10E C 0.1152(11) 0.3703(8) 0.2244(5)
H8D H -0.0938 -0.4057 0.6925
H8E H 0.0938 0.4057 0.1925
C11D C -0.2240(11) -0.4256(8) 0.7488(5)
C11E C 0.2240(11) 0.4256(8) 0.2488(5)
H9D H -0.2762 -0.4982 0.7339
H9E H 0.2762 0.4982 0.2339
C12D C 0.0819(11) -0.2004(7) 0.7176(5)
C12E C -0.0819(11) 0.2004(7) 0.2176(5)
H10D H 0.0942 -0.2527 0.6909
H10E H -0.0942 0.2527 0.1909
H11D H 0.1386 -0.1705 0.7525
H11E H -0.1386 0.1705 0.2525
C13D C 0.2305(8) -0.0287(6) 0.6353(4)
C13E C -0.2305(8) 0.0287(6) 0.1353(4)
C14D C 0.3926(11) -0.0361(8) 0.6229(5)
C14E C -0.3926(11) 0.0361(8) 0.1229(5)
H12D H 0.4345 -0.0726 0.6292
H12E H -0.4345 0.0726 0.1292
C15D C 0.4431(11) 0.0662(7) 0.5889(6)
C15E C -0.4431(11) -0.0662(7) 0.0889(6)
H13D H 0.5175 0.0992 0.5733
H13E H -0.5175 -0.0992 0.0733
C16D C 0.3780(9) 0.1166(6) 0.5792(5)
C16E C -0.3780(9) -0.1166(6) 0.0792(5)
H14D H 0.4093 0.1855 0.5566
H14E H -0.4093 -0.1855 0.0566
F1 F 0.6667 0.3333 0.5785(13)
F2 F 0.6689(9) 0.2417(8) 0.4931(7)
B1 B 0.6667 0.3333 0.5099(16)
F2D F 0.5728(12) 0.3311(9) 0.4931(7)
F2B F 0.7583(8) 0.4272(12) 0.4931(7)
O1 O 0.6667 0.3333 0.252(2)
loop_
_geom_bond_atom_site_label_1
_geom_bond_atom_site_label_2
_geom_bond_site_symmetry_1
_geom_bond_site_symmetry_2
I1 Cu1 1_555 1_555
I2 Cu1 1_555 1_555
I3 Cu2 1_555 1_555
Cu1 S2 1_555 1_555
Cu2 I2 1_555 1_555
S1 C4 1_555 1_555
S2 C12 1_555 1_555
N1 C1 1_555 1_555
N2 C3 1_555 1_555
N3 C13 1_555 1_555
N4 C13 1_555 1_555
C1 H1 1_555 1_555
C2 C1 1_555 1_555
H2 C2 1_555 1_555
C3 C2 1_555 1_555
H3 C3 1_555 1_555
C4 N1 1_555 1_555
C5 S1 1_555 1_555
H4 C5 1_555 1_555
H5 C5 1_555 1_555
C6 C5 1_555 1_555
C7 C6 1_555 1_555
H6 C7 1_555 1_555
C8 C7 1_555 1_555
H7 C8 1_555 1_555
C9 C8 1_555 1_555
C10 C9 1_555 1_555
H8 C10 1_555 1_555
C11 C6 1_555 1_555
H9 C11 1_555 1_555
C12 C9 1_555 1_555
H10 C12 1_555 1_555
H11 C12 1_555 1_555
C13 S2 1_555 1_555
C14 N3 1_555 1_555
H12 C14 1_555 1_555
C15 C14 1_555 1_555
H13 C15 1_555 1_555
C16 N4 1_555 1_555
H14 C16 1_555 1_555
F1 B1 1_555 1_555
F2 B1 1_555 1_555
B1 F2D 1_555 1_555
I2D Cu1D 1_555 1_555
I2B Cu1B 1_555 1_555
I2C Cu2C 1_555 1_555
I2A Cu2A 1_555 1_555
I3A Cu2C 1_555 1_555
I3A_2 Cu2A 1_555 1_555
Cu1D I1 1_555 1_555
Cu1B I1 1_555 1_555
Cu1E S2E 1_555 1_555
Cu1A N4E 1_555 1_555
Cu2C S1 1_555 1_555
Cu2A S1D 1_555 1_555
Cu2B I3 1_555 1_555
Cu2D I3 1_555 1_555
Cu2E N1 1_555 1_555
Cu2C_2 I3A_2 1_555 1_555
Cu2D_2 I2D 1_555 1_555
Cu2B_2 I2B 1_555 1_555
S1D C4D 1_555 1_555
S1E Cu2 1_555 1_555
S2D Cu1D 1_555 1_555
S2E C12E 1_555 1_555
S2B Cu1B 1_555 1_555
N1D Cu2C_2 1_555 1_555
N1E Cu2B 1_555 1_555
N1C Cu2 1_555 1_555
N1D_2 Cu2C 1_555 1_555
N1B Cu2A 1_555 1_555
N2D C3D 1_555 1_555
N2E C3E 1_555 1_555
N3D C13D 1_555 1_555
N3E C13E 1_555 1_555
N4D Cu1 1_555 1_555
N4E C13E 1_555 1_555
N4B Cu1D 1_555 1_555
C1D N1D 1_555 1_555
C1E N1E 1_555 1_555
H1D C1D 1_555 1_555
H1E C1E 1_555 1_555
C2D C1D 1_555 1_555
C2E C1E 1_555 1_555
H2D C2D 1_555 1_555
H2E C2E 1_555 1_555
C3D C2D 1_555 1_555
C3E C2E 1_555 1_555
H3D C3D 1_555 1_555
H3E C3E 1_555 1_555
C4D N1D 1_555 1_555
C4E S1E 1_555 1_555
C5D S1D 1_555 1_555
C5E S1E 1_555 1_555
H4D C5D 1_555 1_555
H4E C5E 1_555 1_555
H5D C5D 1_555 1_555
H5E C5E 1_555 1_555
C6D C5D 1_555 1_555
C6E C5E 1_555 1_555
C7D C6D 1_555 1_555
C7E C6E 1_555 1_555
H6D C7D 1_555 1_555
H6E C7E 1_555 1_555
C8D C7D 1_555 1_555
C8E C7E 1_555 1_555
H7D C8D 1_555 1_555
H7E C8E 1_555 1_555
C9D C8D 1_555 1_555
C9E C8E 1_555 1_555
C10D C9D 1_555 1_555
C10E C9E 1_555 1_555
H8D C10D 1_555 1_555
H8E C10E 1_555 1_555
C11D C6D 1_555 1_555
C11E C6E 1_555 1_555
H9D C11D 1_555 1_555
H9E C11E 1_555 1_555
C12D S2D 1_555 1_555
C12E C9E 1_555 1_555
H10D C12D 1_555 1_555
H10E C12E 1_555 1_555
H11D C12D 1_555 1_555
H11E C12E 1_555 1_555
C13D S2D 1_555 1_555
C13E S2E 1_555 1_555
C14D N3D 1_555 1_555
C14E N3E 1_555 1_555
H12D C14D 1_555 1_555
H12E C14E 1_555 1_555
C15D C14D 1_555 1_555
C15E C14E 1_555 1_555
H13D C15D 1_555 1_555
H13E C15E 1_555 1_555
C16D N4D 1_555 1_555
C16E N4E 1_555 1_555
H14D C16D 1_555 1_555
H14E C16E 1_555 1_555
F2B B1 1_555 1_555
N2 C4 1_555 1_555
N4 Cu1B 1_555 1_555
C10 C11 1_555 1_555
C15 C16 1_555 1_555
I3A Cu2E 1_555 1_555
N1E C4E 1_555 1_555
N2D C4D 1_555 1_555
N2E C4E 1_555 1_555
N4D C13D 1_555 1_555
C9D C12D 1_555 1_555
C10D C11D 1_555 1_555
C10E C11E 1_555 1_555
C15D C16D 1_555 1_555
C15E C16E 1_555 1_555

#END
