
#######################################################################
#
#                 Cambridge Crystallographic Data Centre
#                                CCDC 
#
#######################################################################
#
# If this CIF has been generated from an entry in the Cambridge 
# Structural Database, then it will include bibliographic, chemical, 
# crystal, experimental, refinement or atomic coordinate data resulting 
# from the CCDC's data processing and validation procedures.
#
#######################################################################

data_SAWTOZ
_symmetry_cell_setting           monoclinic
_symmetry_space_group_name_H-M   'P 21/n'
_symmetry_Int_Tables_number      14
_space_group_name_Hall           '-P 2yn'
loop_
_symmetry_equiv_pos_site_id
_symmetry_equiv_pos_as_xyz
1 x,y,z
2 1/2-x,1/2+y,1/2-z
3 -x,-y,-z
4 1/2+x,1/2-y,1/2+z
_cell_length_a                   4.195(2)
_cell_length_b                   14.11(1)
_cell_length_c                   14.27(1)
_cell_angle_alpha                90
_cell_angle_beta                 99.20(6)
_cell_angle_gamma                90
_cell_volume                     833.796
loop_
_atom_site_label
_atom_site_type_symbol
_atom_site_fract_x
_atom_site_fract_y
_atom_site_fract_z
Cu1 Cu 0.7030(4) 0.0829(1) 0.0233(1)
I1 I 0.2608(2) 0.03688(6) 0.12844(6)
N1 N 0.580(2) 0.2109(7) -0.0405(7)
C1 C 0.700(3) 0.2974(9) -0.0090(10)
C2 C 0.920(4) 0.2991(10) 0.0806(10)
C3 C 1.025(4) 0.3727(11) 0.1295(12)
C4 C 0.601(4) 0.3787(10) -0.0630(10)
C5 C 0.391(3) 0.3707(10) -0.1463(11)
C6 C 0.267(4) 0.2854(10) -0.1777(10)
C7 C 0.372(3) 0.2081(10) -0.1228(10)
H1 H 1.001 0.238 0.109
H2 H 1.062 0.444 0.102
H3 H 1.070 0.369 0.199
H4 H 0.692 0.441 -0.041
H5 H 0.323 0.427 -0.184
H6 H 0.109 0.279 -0.238
H7 H 0.287 0.144 -0.145
I1_2 I 1.2608(2) 0.03688(6) 0.12844(6)
I1B I 0.7392(2) -0.03688(6) -0.12844(6)
Cu1_2 Cu -0.2970(4) 0.0829(1) 0.0233(1)
Cu1B Cu 0.2970(4) -0.0829(1) -0.0233(1)
Cu1B_2 Cu 1.2970(4) -0.0829(1) -0.0233(1)
I1B_2 I -0.2608(2) -0.03688(6) -0.12844(6)
N1B N 0.420(2) -0.2109(7) 0.0405(7)
C1B C 0.300(3) -0.2974(9) 0.0090(10)
C7B C 0.628(3) -0.2081(10) 0.1228(10)
C2B C 0.080(4) -0.2991(10) -0.0806(10)
C4B C 0.399(4) -0.3787(10) 0.0630(10)
C6B C 0.733(4) -0.2854(10) 0.1777(10)
H7B H 0.713 -0.144 0.145
C3B C -0.025(4) -0.3727(11) -0.1295(12)
H1B H -0.001 -0.238 -0.109
C5B C 0.609(3) -0.3707(10) 0.1463(11)
H4B H 0.308 -0.441 0.041
H6B H 0.891 -0.279 0.238
H2B H -0.062 -0.444 -0.102
H3B H -0.070 -0.369 -0.199
H5B H 0.677 -0.427 0.184
loop_
_geom_bond_atom_site_label_1
_geom_bond_atom_site_label_2
_geom_bond_site_symmetry_1
_geom_bond_site_symmetry_2
Cu1 I1 1_555 1_555
I1 Cu1_2 1_555 1_555
N1 Cu1 1_555 1_555
C1 N1 1_555 1_555
C2 C1 1_555 1_555
C3 C2 1_555 1_555
C4 C1 1_555 1_555
C5 C4 1_555 1_555
C6 C5 1_555 1_555
C7 N1 1_555 1_555
H1 C2 1_555 1_555
H2 C3 1_555 1_555
H3 C3 1_555 1_555
H4 C4 1_555 1_555
H5 C5 1_555 1_555
H6 C6 1_555 1_555
H7 C7 1_555 1_555
I1_2 Cu1 1_555 1_555
I1B Cu1 1_555 1_555
Cu1B I1 1_555 1_555
Cu1B_2 I1B 1_555 1_555
I1B_2 Cu1B 1_555 1_555
N1B Cu1B 1_555 1_555
C1B N1B 1_555 1_555
C7B N1B 1_555 1_555
C2B C1B 1_555 1_555
C4B C1B 1_555 1_555
C6B C7B 1_555 1_555
H7B C7B 1_555 1_555
C3B C2B 1_555 1_555
H1B C2B 1_555 1_555
C5B C4B 1_555 1_555
H4B C4B 1_555 1_555
H6B C6B 1_555 1_555
H2B C3B 1_555 1_555
H3B C3B 1_555 1_555
H5B C5B 1_555 1_555
C6 C7 1_555 1_555
I1B Cu1B 1_555 1_555
C6B C5B 1_555 1_555

#END
