
#######################################################################
#
#                 Cambridge Crystallographic Data Centre
#                                CCDC 
#
#######################################################################
#
# If this CIF has been generated from an entry in the Cambridge 
# Structural Database, then it will include bibliographic, chemical, 
# crystal, experimental, refinement or atomic coordinate data resulting 
# from the CCDC's data processing and validation procedures.
#
#######################################################################

data_SAWTUF
_symmetry_cell_setting           monoclinic
_symmetry_space_group_name_H-M   'P 21/n'
_symmetry_Int_Tables_number      14
_space_group_name_Hall           '-P 2yn'
loop_
_symmetry_equiv_pos_site_id
_symmetry_equiv_pos_as_xyz
1 x,y,z
2 1/2-x,1/2+y,1/2-z
3 -x,-y,-z
4 1/2+x,1/2-y,1/2+z
_cell_length_a                   12.030(4)
_cell_length_b                   4.194(1)
_cell_length_c                   17.005(6)
_cell_angle_alpha                90
_cell_angle_beta                 98.30(3)
_cell_angle_gamma                90
_cell_volume                     848.981
loop_
_atom_site_label
_atom_site_type_symbol
_atom_site_fract_x
_atom_site_fract_y
_atom_site_fract_z
Cu1 Cu 0.30743(7) 0.5215(3) 0.29586(5)
I1 I 0.21882(4) 0.0294(1) 0.36129(3)
N1 N 0.4763(5) 0.546(2) 0.3332(4)
C1 C 0.5434(8) 0.707(2) 0.2932(5)
C2 C 0.6585(8) 0.738(3) 0.3165(6)
C3 C 0.7071(8) 0.598(2) 0.3864(6)
C4 C 0.8288(10) 0.622(4) 0.4178(9)
C5 C 0.9013(12) 0.720(6) 0.3980(13)
C6 C 0.6367(9) 0.425(3) 0.4280(6)
C7 C 0.5236(7) 0.406(2) 0.4006(5)
H1 H 0.508 0.814 0.244
H2 H 0.707 0.859 0.285
H3 H 0.668 0.308 0.478
H4 H 0.473 0.291 0.433
H5 H 0.856 0.506 0.472
H6 H 0.907 0.964 0.395
H7 H 0.955 0.624 0.368
I1_2 I 0.21882(4) 1.0294(1) 0.36129(3)
I1A I 0.28118(4) 0.5294(1) 0.13871(3)
Cu1_2 Cu 0.30743(7) -0.4785(3) 0.29586(5)
Cu1A Cu 0.19257(7) 0.0215(3) 0.20414(5)
loop_
_geom_bond_atom_site_label_1
_geom_bond_atom_site_label_2
_geom_bond_site_symmetry_1
_geom_bond_site_symmetry_2
Cu1 I1 1_555 1_555
I1 Cu1_2 1_555 1_555
N1 Cu1 1_555 1_555
C1 N1 1_555 1_555
C2 C1 1_555 1_555
C3 C2 1_555 1_555
C4 C3 1_555 1_555
C5 C4 1_555 1_555
C6 C3 1_555 1_555
C7 N1 1_555 1_555
H1 C1 1_555 1_555
H2 C2 1_555 1_555
H3 C6 1_555 1_555
H4 C7 1_555 1_555
H5 C4 1_555 1_555
H6 C5 1_555 1_555
H7 C5 1_555 1_555
I1_2 Cu1 1_555 1_555
I1A Cu1 1_555 1_555
Cu1A I1 1_555 1_555
C6 C7 1_555 1_555
I1A Cu1A 1_555 1_555

#END
