
#######################################################################
#
#                 Cambridge Crystallographic Data Centre
#                                CCDC 
#
#######################################################################
#
# If this CIF has been generated from an entry in the Cambridge 
# Structural Database, then it will include bibliographic, chemical, 
# crystal, experimental, refinement or atomic coordinate data resulting 
# from the CCDC's data processing and validation procedures.
#
#######################################################################

data_SAWTIT
_symmetry_cell_setting           triclinic
_symmetry_space_group_name_H-M   'P -1'
_symmetry_Int_Tables_number      2
_space_group_name_Hall           '-P 1'
loop_
_symmetry_equiv_pos_site_id
_symmetry_equiv_pos_as_xyz
1 x,y,z
2 -x,-y,-z
_cell_length_a                   9.913(9)
_cell_length_b                   9.532(5)
_cell_length_c                   8.872(4)
_cell_angle_alpha                90.52(4)
_cell_angle_beta                 105.39(5)
_cell_angle_gamma                91.55(6)
_cell_volume                     807.85
loop_
_atom_site_label
_atom_site_type_symbol
_atom_site_fract_x
_atom_site_fract_y
_atom_site_fract_z
Br1 Br 0.0447(2) 0.6249(2) 0.1885(2)
Cu1 Cu 0.1470(2) 0.4252(2) 0.0874(2)
N1 N 0.124(1) 0.258(1) 0.224(1)
C1 C 0.151(1) 0.124(1) 0.191(2)
C2 C 0.169(1) 0.092(1) 0.036(2)
C3 C 0.199(2) -0.036(2) -0.012(2)
C4 C 0.163(2) 0.022(2) 0.306(2)
C5 C 0.145(2) 0.059(2) 0.448(2)
C6 C 0.112(2) 0.197(2) 0.475(2)
C7 C 0.102(2) 0.289(2) 0.362(2)
Cu2 Cu 0.3877(2) 0.0762(2) 0.0768(2)
Br2 Br 0.5343(2) -0.1228(2) 0.1828(2)
N2 N 0.478(1) 0.244(1) 0.215(1)
C8 C 0.452(1) 0.378(1) 0.182(2)
C9 C 0.344(1) 0.412(1) 0.037(2)
C10 C 0.292(2) 0.539(2) -0.006(2)
C11 C 0.523(2) 0.487(2) 0.286(2)
C12 C 0.626(2) 0.452(2) 0.418(2)
C13 C 0.648(2) 0.314(1) 0.448(2)
C14 C 0.574(2) 0.213(2) 0.348(2)
H1 H 0.158 0.167 -0.040
H2 H 0.209 -0.111 0.060
H3 H 0.210 -0.052 -0.114
H4 H 0.183 -0.074 0.285
H5 H 0.157 -0.009 0.532
H6 H 0.095 0.225 0.576
H7 H 0.076 0.384 0.382
H8 H 0.307 0.335 -0.037
H9 H 0.328 0.616 0.064
H10 H 0.222 0.552 -0.101
H11 H 0.500 0.585 0.265
H12 H 0.681 0.524 0.489
H13 H 0.716 0.287 0.543
H14 H 0.592 0.115 0.375
Cu1A Cu -0.1470(2) 0.5748(2) -0.0874(2)
Br1A Br -0.0447(2) 0.3751(2) -0.1885(2)
Br2A Br 0.4657(2) 0.1228(2) -0.1828(2)
Cu2A Cu 0.6123(2) -0.0762(2) -0.0768(2)
N1A N -0.124(1) 0.742(1) -0.224(1)
C9A C -0.344(1) 0.588(1) -0.037(2)
C10A C -0.292(2) 0.461(2) 0.006(2)
C1A C -0.151(1) 0.876(1) -0.191(2)
C7A C -0.102(2) 0.711(2) -0.362(2)
C8A C -0.452(1) 0.622(1) -0.182(2)
H8A H -0.307 0.665 0.037
H9A H -0.328 0.384 -0.064
H10A H -0.222 0.448 0.101
C2A C -0.169(1) 0.908(1) -0.036(2)
C4A C -0.163(2) 0.978(2) -0.306(2)
C6A C -0.112(2) 0.803(2) -0.475(2)
H7A H -0.076 0.616 -0.382
N2A N -0.478(1) 0.756(1) -0.215(1)
C11A C -0.523(2) 0.513(2) -0.286(2)
C5A C -0.145(2) 0.941(2) -0.448(2)
H4A H -0.183 1.074 -0.285
H6A H -0.095 0.775 -0.576
C12A C -0.626(2) 0.548(2) -0.418(2)
H11A H -0.500 0.415 -0.265
H5A H -0.157 1.009 -0.532
C13A C -0.648(2) 0.686(1) -0.448(2)
H12A H -0.681 0.476 -0.489
C3A C -0.199(2) 1.036(2) 0.012(2)
Cu2A_2 Cu -0.3877(2) 0.9238(2) -0.0768(2)
H1A H -0.158 0.833 0.040
C14A C -0.574(2) 0.787(2) -0.348(2)
H13A H -0.716 0.713 -0.543
H2A H -0.209 1.111 -0.060
H3A H -0.210 1.052 0.114
H14A H -0.592 0.885 -0.375
Br2_2 Br -0.4657(2) 0.8772(2) 0.1828(2)
Br2A_2 Br -0.5343(2) 1.1228(2) -0.1828(2)
loop_
_geom_bond_atom_site_label_1
_geom_bond_atom_site_label_2
_geom_bond_site_symmetry_1
_geom_bond_site_symmetry_2
Br1 Cu1 1_555 1_555
Cu1 N1 1_555 1_555
N1 C1 1_555 1_555
C1 C2 1_555 1_555
C2 C3 1_555 1_555
C3 Cu2 1_555 1_555
C4 C1 1_555 1_555
C5 C4 1_555 1_555
C6 C5 1_555 1_555
C7 N1 1_555 1_555
Cu2 C2 1_555 1_555
Br2 Cu2 1_555 1_555
N2 Cu2 1_555 1_555
C8 N2 1_555 1_555
C9 Cu1 1_555 1_555
C10 Cu1 1_555 1_555
C11 C8 1_555 1_555
C12 C11 1_555 1_555
C13 C12 1_555 1_555
C14 N2 1_555 1_555
H1 C2 1_555 1_555
H2 C3 1_555 1_555
H3 C3 1_555 1_555
H4 C4 1_555 1_555
H5 C5 1_555 1_555
H6 C6 1_555 1_555
H7 C7 1_555 1_555
H8 C9 1_555 1_555
H9 C10 1_555 1_555
H10 C10 1_555 1_555
H11 C11 1_555 1_555
H12 C12 1_555 1_555
H13 C13 1_555 1_555
H14 C14 1_555 1_555
Cu1A Br1 1_555 1_555
Br1A Cu1 1_555 1_555
Br2A Cu2 1_555 1_555
Cu2A Br2 1_555 1_555
N1A Cu1A 1_555 1_555
C9A Cu1A 1_555 1_555
C10A Cu1A 1_555 1_555
C1A N1A 1_555 1_555
C7A N1A 1_555 1_555
C8A C9A 1_555 1_555
H8A C9A 1_555 1_555
H9A C10A 1_555 1_555
H10A C10A 1_555 1_555
C2A C1A 1_555 1_555
C4A C1A 1_555 1_555
C6A C7A 1_555 1_555
H7A C7A 1_555 1_555
N2A C8A 1_555 1_555
C11A C8A 1_555 1_555
C5A C4A 1_555 1_555
H4A C4A 1_555 1_555
H6A C6A 1_555 1_555
C12A C11A 1_555 1_555
H11A C11A 1_555 1_555
H5A C5A 1_555 1_555
C13A C12A 1_555 1_555
H12A C12A 1_555 1_555
C3A C2A 1_555 1_555
Cu2A_2 C2A 1_555 1_555
H1A C2A 1_555 1_555
C14A N2A 1_555 1_555
H13A C13A 1_555 1_555
H2A C3A 1_555 1_555
H3A C3A 1_555 1_555
H14A C14A 1_555 1_555
Br2_2 Cu2A_2 1_555 1_555
Br2A_2 Cu2A_2 1_555 1_555
C6 C7 1_555 1_555
C8 C9 1_555 1_555
C9 C10 1_555 1_555
C13 C14 1_555 1_555
Cu1A Br1A 1_555 1_555
Br2A Cu2A 1_555 1_555
C9A C10A 1_555 1_555
C6A C5A 1_555 1_555
N2A Cu2A_2 1_555 1_555
C13A C14A 1_555 1_555
C3A Cu2A_2 1_555 1_555

#END
