
#######################################################################
#
#                 Cambridge Crystallographic Data Centre
#                                CCDC 
#
#######################################################################
#
# If this CIF has been generated from an entry in the Cambridge 
# Structural Database, then it will include bibliographic, chemical, 
# crystal, experimental, refinement or atomic coordinate data resulting 
# from the CCDC's data processing and validation procedures.
#
#######################################################################

data_SAWVOB
_symmetry_cell_setting           triclinic
_symmetry_space_group_name_H-M   'I 1'
_symmetry_Int_Tables_number      1
_space_group_name_Hall           'I 1'
loop_
_symmetry_equiv_pos_site_id
_symmetry_equiv_pos_as_xyz
1 x,y,z
2 1/2+x,1/2+y,1/2+z
_cell_length_a                   14.76(1)
_cell_length_b                   9.689(5)
_cell_length_c                   3.900(3)
_cell_angle_alpha                84.16(6)
_cell_angle_beta                 80.42(7)
_cell_angle_gamma                86.81(6)
_cell_volume                     546.679
loop_
_atom_site_label
_atom_site_type_symbol
_atom_site_fract_x
_atom_site_fract_y
_atom_site_fract_z
Br1 Br 0.2500 0.2500 -0.75
Cu1 Cu 0.2478(2) 0.3971(2) -0.2940(7)
N1 N 0.250(1) 0.599(1) -0.284(3)
C1 C 0.325(1) 0.670(2) -0.441(4)
C2 C 0.401(1) 0.602(2) -0.626(5)
C3 C 0.476(1) 0.669(2) -0.779(5)
C4 C 0.481(1) 0.812(2) -0.766(5)
C5 C 0.410(2) 0.884(2) -0.590(5)
C6 C 0.330(1) 0.817(2) -0.421(4)
C7 C 0.257(1) 0.886(2) -0.236(4)
C8 C 0.177(1) 0.672(2) -0.107(4)
C9 C 0.098(1) 0.603(2) 0.058(5)
C10 C 0.025(1) 0.673(2) 0.229(5)
C11 C 0.030(1) 0.814(2) 0.258(5)
C12 C 0.102(2) 0.888(2) 0.118(5)
C13 C 0.181(1) 0.818(2) -0.076(4)
H1 H 0.399 0.503 -0.636
H2 H 0.527 0.616 -0.906
H3 H 0.535 0.860 -0.871
H4 H 0.414 0.982 -0.587
H5 H 0.261 0.985 -0.213
H6 H 0.095 0.504 0.049
H7 H -0.030 0.623 0.323
H8 H -0.022 0.861 0.391
H9 H 0.102 0.985 0.142
Cu1_2 Cu 0.2478(2) 0.3971(2) -1.2940(7)
Br1_2 Br 0.2500 0.2500 0.25
loop_
_geom_bond_atom_site_label_1
_geom_bond_atom_site_label_2
_geom_bond_site_symmetry_1
_geom_bond_site_symmetry_2
Br1 Cu1 1_555 1_555
Cu1 N1 1_555 1_555
N1 C1 1_555 1_555
C1 C2 1_555 1_555
C2 C3 1_555 1_555
C3 C4 1_555 1_555
C4 C5 1_555 1_555
C5 C6 1_555 1_555
C6 C1 1_555 1_555
C7 C6 1_555 1_555
C8 N1 1_555 1_555
C9 C8 1_555 1_555
C10 C9 1_555 1_555
C11 C10 1_555 1_555
C12 C11 1_555 1_555
C13 C7 1_555 1_555
H1 C2 1_555 1_555
H2 C3 1_555 1_555
H3 C4 1_555 1_555
H4 C5 1_555 1_555
H5 C7 1_555 1_555
H6 C9 1_555 1_555
H7 C10 1_555 1_555
H8 C11 1_555 1_555
H9 C12 1_555 1_555
Cu1_2 Br1 1_555 1_555
Br1_2 Cu1 1_555 1_555
C8 C13 1_555 1_555
C12 C13 1_555 1_555

#END
