
#######################################################################
#
#                 Cambridge Crystallographic Data Centre
#                                CCDC 
#
#######################################################################
#
# If this CIF has been generated from an entry in the Cambridge 
# Structural Database, then it will include bibliographic, chemical, 
# crystal, experimental, refinement or atomic coordinate data resulting 
# from the CCDC's data processing and validation procedures.
#
#######################################################################

data_SAWVAN
_symmetry_cell_setting           monoclinic
_symmetry_space_group_name_H-M   'P 21'
_symmetry_Int_Tables_number      4
_space_group_name_Hall           'P 2yb'
loop_
_symmetry_equiv_pos_site_id
_symmetry_equiv_pos_as_xyz
1 x,y,z
2 -x,1/2+y,-z
_cell_length_a                   7.505(3)
_cell_length_b                   6.501(3)
_cell_length_c                   7.597(3)
_cell_angle_alpha                90
_cell_angle_beta                 102.28(3)
_cell_angle_gamma                90
_cell_volume                     362.177
loop_
_atom_site_label
_atom_site_type_symbol
_atom_site_fract_x
_atom_site_fract_y
_atom_site_fract_z
Cu1 Cu 0.5133(1) 0.2500 0.8450(1)
Cl1 Cl 0.5091(3) 0.1228(4) 1.1237(3)
N1 N 0.7796(8) 0.218(1) 0.8167(9)
C1 C 0.867(1) 0.367(2) 0.754(1)
H1 H 0.812(12) 0.459(20) 0.702(11)
C2 C 1.038(1) 0.340(2) 0.707(1)
H2 H 1.070(11) 0.416(18) 0.642(10)
C3 C 1.119(1) 0.151(2) 0.722(1)
C4 C 0.291(1) 0.106(1) 0.668(1)
H3 H 0.339(10) -0.001(13) 0.690(10)
C5 C 0.379(1) 0.234(2) 0.576(1)
H4 H 0.322(12) 0.348(13) 0.542(11)
H5 H 0.460(11) 0.198(17) 0.520(12)
C6 C 1.028(1) -0.006(2) 0.791(1)
H6 H 1.068(12) -0.142(13) 0.800(12)
C7 C 0.861(1) 0.034(2) 0.834(1)
H7 H 0.800(10) -0.044(18) 0.847(11)
Cu1A Cu 0.4867(1) -0.2500 1.1550(1)
Cl1A Cl 0.4909(3) 0.6228(4) 0.8763(3)
C4_2 C 1.291(1) 0.106(1) 0.668(1)
C3_2 C 0.119(1) 0.151(2) 0.722(1)
H3_2 H 1.339(10) -0.001(13) 0.690(10)
loop_
_geom_bond_atom_site_label_1
_geom_bond_atom_site_label_2
_geom_bond_site_symmetry_1
_geom_bond_site_symmetry_2
Cu1 Cl1 1_555 1_555
Cl1 Cu1A 1_555 1_555
N1 Cu1 1_555 1_555
C1 N1 1_555 1_555
H1 C1 1_555 1_555
C2 C1 1_555 1_555
H2 C2 1_555 1_555
C3 C2 1_555 1_555
C4 Cu1 1_555 1_555
H3 C4 1_555 1_555
C5 Cu1 1_555 1_555
H4 C5 1_555 1_555
H5 C5 1_555 1_555
C6 C3 1_555 1_555
H6 C6 1_555 1_555
C7 N1 1_555 1_555
H7 C7 1_555 1_555
Cl1A Cu1 1_555 1_555
C4_2 C3 1_555 1_555
C3_2 C4 1_555 1_555
H3_2 C4_2 1_555 1_555
C4 C5 1_555 1_555
C6 C7 1_555 1_555

#END
