
#######################################################################
#
#                 Cambridge Crystallographic Data Centre
#                                CCDC 
#
#######################################################################
#
# If this CIF has been generated from an entry in the Cambridge 
# Structural Database, then it will include bibliographic, chemical, 
# crystal, experimental, refinement or atomic coordinate data resulting 
# from the CCDC's data processing and validation procedures.
#
#######################################################################

data_SAXMEL
_symmetry_cell_setting           triclinic
_symmetry_space_group_name_H-M   'P -1'
_symmetry_Int_Tables_number      2
_space_group_name_Hall           '-P 1'
loop_
_symmetry_equiv_pos_site_id
_symmetry_equiv_pos_as_xyz
1 x,y,z
2 -x,-y,-z
_cell_length_a                   8.4440(17)
_cell_length_b                   10.685(2)
_cell_length_c                   11.195(2)
_cell_angle_alpha                85.47(3)
_cell_angle_beta                 81.33(3)
_cell_angle_gamma                67.78(3)
_cell_volume                     924.099
loop_
_atom_site_label
_atom_site_type_symbol
_atom_site_fract_x
_atom_site_fract_y
_atom_site_fract_z
Co1 Co 0.5000 0.5000 0.5000
Co2 Co 1.5000 0.0000 1.5000
C1 C 0.7332(5) 0.4683(4) 0.2555(3)
C2 C 0.8375(5) 0.5522(4) 0.2695(4)
H1 H 0.7898 0.6374 0.2258
H2 H 0.9542 0.5058 0.2308
C3 C 0.8469(5) 0.5834(4) 0.3985(3)
H3 H 0.8626 0.5026 0.4489
H4 H 0.9469 0.6072 0.3986
C4 C 0.6880(5) 0.6970(3) 0.4523(3)
C5 C 1.4611(5) -0.0686(4) 1.2451(3)
H5 H 1.5652 -0.1380 1.2567
C6 C 1.4009(5) -0.0605(4) 1.1360(3)
H6 H 1.4623 -0.1231 1.0764
C7 C 1.2466(5) 0.0432(4) 1.1170(3)
C8 C 1.1583(6) 0.1306(4) 1.2102(4)
H7 H 1.0529 0.1996 1.2013
C9 C 1.2287(5) 0.1140(4) 1.3168(3)
H8 H 1.1684 0.1736 1.3788
C10 C 1.1789(5) 0.0599(4) 1.0009(3)
C11 C 1.0466(5) 0.1332(4) 0.8504(3)
C12 C 0.9246(5) 0.2191(4) 0.7698(3)
C13 C 0.8084(5) 0.3470(4) 0.8029(3)
H9 H 0.8045 0.3801 0.8781
C14 C 0.6987(5) 0.4244(4) 0.7229(3)
H10 H 0.6240 0.5110 0.7453
C15 C 0.8065(5) 0.2580(4) 0.5837(3)
H11 H 0.8058 0.2269 0.5086
C16 C 0.9225(5) 0.1748(4) 0.6563(3)
H12 H 0.9988 0.0900 0.6303
H13 H 1.302(5) -0.117(4) 0.922(4)
H14 H 1.715(5) 0.074(3) 1.338(2)
H17 H 1.611(5) 0.175(2) 1.417(3)
N1 N 1.3803(4) 0.0160(3) 1.3351(3)
N2 N 1.0604(4) 0.1703(3) 0.9604(3)
N3 N 1.2339(4) -0.0370(3) 0.9195(3)
N4 N 1.1501(4) 0.0076(3) 0.8216(3)
N5 N 0.6936(4) 0.3821(3) 0.6152(3)
O1 O 0.6704(3) 0.4182(2) 0.3470(2)
O2 O 0.7194(4) 0.4485(3) 0.1490(3)
O3 O 0.5585(3) 0.6715(2) 0.5007(2)
O4 O 0.6904(3) 0.8143(2) 0.4442(2)
O5 O 1.6640(4) 0.0921(2) 1.4084(2)
Co2_2 Co 0.5000 1.0000 0.5000
Co2_3 Co -0.5000 1.0000 -0.5000
Co2_4 Co 0.5000 0.0000 0.5000
C1A C 0.2668(5) 0.5317(4) 0.7445(3)
C2A C 0.1625(5) 0.4478(4) 0.7305(4)
H1A H 0.2102 0.3626 0.7742
H2A H 0.0458 0.4942 0.7692
C3A C 0.1531(5) 0.4166(4) 0.6015(3)
H3A H 0.1374 0.4974 0.5511
H4A H 0.0531 0.3928 0.6014
C4A C 0.3120(5) 0.3030(3) 0.5477(3)
C5A C -0.4611(5) 1.0686(4) -0.2451(3)
H5A H -0.5652 1.1380 -0.2567
C6A C -0.4009(5) 1.0605(4) -0.1360(3)
H6A H -0.4623 1.1231 -0.0764
C7A C -0.2466(5) 0.9568(4) -0.1170(3)
C8A C -0.1583(6) 0.8694(4) -0.2102(4)
H7A H -0.0529 0.8004 -0.2013
C9A C -0.2287(5) 0.8860(4) -0.3168(3)
H8A H -0.1684 0.8264 -0.3788
C10A C -0.1789(5) 0.9401(4) -0.0009(3)
C11A C -0.0466(5) 0.8668(4) 0.1496(3)
C12A C 0.0754(5) 0.7809(4) 0.2302(3)
C13A C 0.1916(5) 0.6530(4) 0.1971(3)
H9A H 0.1955 0.6199 0.1219
C14A C 0.3013(5) 0.5756(4) 0.2771(3)
H10A H 0.3760 0.4890 0.2547
C15A C 0.1935(5) 0.7420(4) 0.4163(3)
H11A H 0.1942 0.7731 0.4914
C16A C 0.0775(5) 0.8252(4) 0.3437(3)
H12A H 0.0012 0.9100 0.3697
H13A H -0.302(5) 1.117(4) 0.078(4)
H14A H 1.285(5) -0.074(3) 1.662(2)
H17A H 1.389(5) -0.175(2) 1.583(3)
N1A N -0.3803(4) 0.9840(3) -0.3351(3)
N1A_2 N 1.6197(4) -0.0160(3) 1.6649(3)
N2A N -0.0604(4) 0.8297(3) 0.0396(3)
N3A N -0.2339(4) 1.0370(3) 0.0805(3)
N4A N -0.1501(4) 0.9924(3) 0.1784(3)
N5A N 0.3064(4) 0.6179(3) 0.3848(3)
O1A O 0.3296(3) 0.5818(2) 0.6530(2)
O2A O 0.2806(4) 0.5515(3) 0.8510(3)
O3A O 0.4415(3) 0.3285(2) 0.4993(2)
O4A O 0.3096(3) 0.1857(2) 0.5558(2)
O4_2 O 1.6904(3) -0.1857(2) 1.4442(2)
O4A_2 O 1.3096(3) 0.1857(2) 1.5558(2)
O5A O 1.3360(4) -0.0921(2) 1.5916(2)
H15 H 0.596(4) 0.342(3) 0.112(4)
H18 H 0.452(3) 0.323(4) 0.081(4)
O6 O 0.5543(5) 0.2878(3) 0.0973(5)
H16 H 0.146(4) 0.353(4) 0.021(3)
H19 H 0.225(5) 0.445(3) -0.020(3)
O7 O 0.2228(6) 0.3831(4) 0.0314(3)
loop_
_geom_bond_atom_site_label_1
_geom_bond_atom_site_label_2
_geom_bond_site_symmetry_1
_geom_bond_site_symmetry_2
Co1 N5 1_555 1_555
Co2 N1 1_555 1_555
C1 C2 1_555 1_555
C2 H1 1_555 1_555
H2 C2 1_555 1_555
C3 C2 1_555 1_555
H3 C3 1_555 1_555
H4 C3 1_555 1_555
C4 C3 1_555 1_555
C5 H5 1_555 1_555
C6 C5 1_555 1_555
H6 C6 1_555 1_555
C7 C6 1_555 1_555
C8 C7 1_555 1_555
H7 C8 1_555 1_555
C9 C8 1_555 1_555
H8 C9 1_555 1_555
C10 C7 1_555 1_555
C11 C12 1_555 1_555
C12 C13 1_555 1_555
C13 H9 1_555 1_555
C14 C13 1_555 1_555
H10 C14 1_555 1_555
C15 H11 1_555 1_555
C16 C12 1_555 1_555
H12 C16 1_555 1_555
H13 N3 1_555 1_555
H14 O5 1_555 1_555
H15 O6 1_555 1_555
H16 O7 1_555 1_555
H17 O5 1_555 1_555
H18 O6 1_555 1_555
H19 O7 1_555 1_555
N1 C5 1_555 1_555
N2 C10 1_555 1_555
N3 C10 1_555 1_555
N4 C11 1_555 1_555
N5 C14 1_555 1_555
O1 Co1 1_555 1_555
O2 C1 1_555 1_555
O3 Co1 1_555 1_555
O4 C4 1_555 1_555
O5 Co2 1_555 1_555
Co2_2 O4 1_555 1_555
Co2_3 N1A 1_555 1_555
Co2_4 O4A 1_555 1_555
C1A C2A 1_555 1_555
C2A H1A 1_555 1_555
H2A C2A 1_555 1_555
C3A C2A 1_555 1_555
H3A C3A 1_555 1_555
H4A C3A 1_555 1_555
C4A C3A 1_555 1_555
C5A H5A 1_555 1_555
C6A C5A 1_555 1_555
H6A C6A 1_555 1_555
C7A C6A 1_555 1_555
C8A C7A 1_555 1_555
H7A C8A 1_555 1_555
C9A C8A 1_555 1_555
H8A C9A 1_555 1_555
C10A C7A 1_555 1_555
C11A C12A 1_555 1_555
C12A C13A 1_555 1_555
C13A H9A 1_555 1_555
C14A C13A 1_555 1_555
H10A C14A 1_555 1_555
C15A H11A 1_555 1_555
C16A C12A 1_555 1_555
H12A C16A 1_555 1_555
H13A N3A 1_555 1_555
H14A O5A 1_555 1_555
H17A O5A 1_555 1_555
N1A C5A 1_555 1_555
N1A_2 Co2 1_555 1_555
N2A C10A 1_555 1_555
N3A C10A 1_555 1_555
N4A C11A 1_555 1_555
N5A Co1 1_555 1_555
O1A Co1 1_555 1_555
O2A C1A 1_555 1_555
O3A Co1 1_555 1_555
O4A C4A 1_555 1_555
O4_2 Co2 1_555 1_555
O4A_2 Co2 1_555 1_555
O5A Co2 1_555 1_555
C1 O1 1_555 1_555
C4 O3 1_555 1_555
C9 N1 1_555 1_555
C11 N2 1_555 1_555
C15 C16 1_555 1_555
C15 N5 1_555 1_555
N3 N4 1_555 1_555
C1A O1A 1_555 1_555
C4A O3A 1_555 1_555
C9A N1A 1_555 1_555
C11A N2A 1_555 1_555
C14A N5A 1_555 1_555
C15A C16A 1_555 1_555
C15A N5A 1_555 1_555
N3A N4A 1_555 1_555

#END
