
#######################################################################
#
#                 Cambridge Crystallographic Data Centre
#                                CCDC 
#
#######################################################################
#
# If this CIF has been generated from an entry in the Cambridge 
# Structural Database, then it will include bibliographic, chemical, 
# crystal, experimental, refinement or atomic coordinate data resulting 
# from the CCDC's data processing and validation procedures.
#
#######################################################################

data_SAXREQ
_symmetry_cell_setting           tetragonal
_symmetry_space_group_name_H-M   'P -4 21 c'
_symmetry_Int_Tables_number      114
_space_group_name_Hall           'P -4 2n'
loop_
_symmetry_equiv_pos_site_id
_symmetry_equiv_pos_as_xyz
1 x,y,z
2 y,-x,-z
3 -x,-y,z
4 -y,x,-z
5 1/2+x,1/2-y,1/2-z
6 1/2-x,1/2+y,1/2-z
7 1/2-y,1/2-x,1/2+z
8 1/2+y,1/2+x,1/2+z
_cell_length_a                   11.7750(18)
_cell_length_b                   11.7750(18)
_cell_length_c                   15.111(3)
_cell_angle_alpha                90
_cell_angle_beta                 90
_cell_angle_gamma                90
_cell_volume                     2095.15
loop_
_atom_site_label
_atom_site_type_symbol
_atom_site_fract_x
_atom_site_fract_y
_atom_site_fract_z
Zn1 Zn 1.0000 0.5000 0.839055(14)
O1 O 0.84990(9) 0.47349(9) 0.89163(6)
N1 N 0.98232(11) 0.65136(11) 0.77827(8)
C1 C 0.89007(12) 0.60821(13) 1.00529(10)
O2 O 0.70607(9) 0.54086(11) 0.97149(8)
N2 N 0.95521(11) 0.96174(11) 0.64859(9)
H1 H 0.8917 0.9782 0.6207
C2 C 0.98896(13) 0.56263(12) 1.04293(9)
C3 C 1.06387(13) 0.63510(13) 1.08692(10)
H2 H 1.1314 0.6052 1.1123
C4 C 1.04081(14) 0.75033(13) 1.09405(11)
H3 H 1.0922 0.7986 1.1246
C5 C 0.94263(15) 0.79535(14) 1.05658(11)
H4 H 0.9272 0.8744 1.0609
C6 C 0.86770(13) 0.72416(13) 1.01306(11)
H5 H 0.8002 0.7546 0.9882
C7 C 0.80767(13) 0.53554(13) 0.95358(10)
C8 C 0.88009(13) 0.77998(13) 0.68494(11)
H6 H 0.8140 0.7950 0.6508
C9 C 0.96613(13) 0.86217(13) 0.69154(10)
C10 C 1.05865(14) 0.83575(14) 0.74565(11)
H7 H 1.1181 0.8893 0.7540
C11 C 0.89159(13) 0.67853(13) 0.72757(11)
H8 H 0.8327 0.6240 0.7213
C12 C 1.06295(14) 0.73096(15) 0.78690(11)
H9 H 1.1266 0.7145 0.8234
Zn1_2 Zn 1.0000 1.5000 0.839055(14)
O1B O 1.15010(9) 0.52651(9) 0.89163(6)
N1B N 1.01768(11) 1.34864(11) 0.77827(8)
N1B_2 N 1.01768(11) 0.34864(11) 0.77827(8)
C1B C 1.10993(12) 0.39179(13) 1.00529(10)
O2B O 1.29393(9) 0.45914(11) 0.97149(8)
N2B N 1.04479(11) 1.03826(11) 0.64859(9)
H1B H 1.1083 1.0218 0.6207
C2B C 1.01104(13) 0.43737(12) 1.04293(9)
C3B C 0.93613(13) 0.36490(13) 1.08692(10)
H2B H 0.8686 0.3948 1.1123
C4B C 0.95919(14) 0.24967(13) 1.09405(11)
H3B H 0.9078 0.2014 1.1246
C5B C 1.05737(15) 0.20465(14) 1.05658(11)
H4B H 1.0728 0.1256 1.0609
C6B C 1.13230(13) 0.27584(13) 1.01306(11)
H5B H 1.1998 0.2454 0.9882
C7B C 1.19233(13) 0.46446(13) 0.95358(10)
C8B C 1.11991(13) 1.22002(13) 0.68494(11)
H6B H 1.1860 1.2050 0.6508
C9B C 1.03387(13) 1.13783(13) 0.69154(10)
C10B C 0.94135(14) 1.16425(14) 0.74565(11)
H7B H 0.8819 1.1107 0.7540
C11B C 1.10841(13) 1.32147(13) 0.72757(11)
H8B H 1.1673 1.3760 0.7213
C12B C 0.93705(14) 1.26904(15) 0.78690(11)
H9B H 0.8734 1.2855 0.8234
loop_
_geom_bond_atom_site_label_1
_geom_bond_atom_site_label_2
_geom_bond_site_symmetry_1
_geom_bond_site_symmetry_2
Zn1 O1 1_555 1_555
O1 C7 1_555 1_555
N1 Zn1 1_555 1_555
C1 C2 1_555 1_555
O2 C7 1_555 1_555
N2 H1 1_555 1_555
C2 C3 1_555 1_555
C3 H2 1_555 1_555
C4 C3 1_555 1_555
H3 C4 1_555 1_555
C5 C4 1_555 1_555
H4 C5 1_555 1_555
C6 C1 1_555 1_555
H5 C6 1_555 1_555
C7 C1 1_555 1_555
C8 H6 1_555 1_555
C9 N2 1_555 1_555
C10 C9 1_555 1_555
H7 C10 1_555 1_555
C11 N1 1_555 1_555
H8 C11 1_555 1_555
C12 N1 1_555 1_555
H9 C12 1_555 1_555
Zn1_2 N1B 1_555 1_555
O1B Zn1 1_555 1_555
N1B C11B 1_555 1_555
N1B_2 Zn1 1_555 1_555
C1B C2B 1_555 1_555
O2B C7B 1_555 1_555
N2B N2 1_555 1_555
H1B N2B 1_555 1_555
C2B C2 1_555 1_555
C3B C2B 1_555 1_555
H2B C3B 1_555 1_555
C4B C3B 1_555 1_555
H3B C4B 1_555 1_555
C5B C4B 1_555 1_555
H4B C5B 1_555 1_555
C6B C1B 1_555 1_555
H5B C6B 1_555 1_555
C7B O1B 1_555 1_555
C8B H6B 1_555 1_555
C9B N2B 1_555 1_555
C10B C9B 1_555 1_555
H7B C10B 1_555 1_555
C11B C8B 1_555 1_555
H8B C11B 1_555 1_555
C12B N1B 1_555 1_555
H9B C12B 1_555 1_555
C5 C6 1_555 1_555
C8 C9 1_555 1_555
C8 C11 1_555 1_555
C10 C12 1_555 1_555
C1B C7B 1_555 1_555
C5B C6B 1_555 1_555
C8B C9B 1_555 1_555
C10B C12B 1_555 1_555

#END
