
#######################################################################
#
#                 Cambridge Crystallographic Data Centre
#                                CCDC 
#
#######################################################################
#
# If this CIF has been generated from an entry in the Cambridge 
# Structural Database, then it will include bibliographic, chemical, 
# crystal, experimental, refinement or atomic coordinate data resulting 
# from the CCDC's data processing and validation procedures.
#
#######################################################################

data_SAXYOH
_symmetry_cell_setting           monoclinic
_symmetry_space_group_name_H-M   'P 21/c'
_symmetry_Int_Tables_number      14
_space_group_name_Hall           '-P 2ybc'
loop_
_symmetry_equiv_pos_site_id
_symmetry_equiv_pos_as_xyz
1 x,y,z
2 -x,1/2+y,1/2-z
3 -x,-y,-z
4 x,1/2-y,1/2+z
_cell_length_a                   15.1992(14)
_cell_length_b                   4.9120(4)
_cell_length_c                   22.877(2)
_cell_angle_alpha                90
_cell_angle_beta                 101.504(10)
_cell_angle_gamma                90
_cell_volume                     1673.65
loop_
_atom_site_label
_atom_site_type_symbol
_atom_site_fract_x
_atom_site_fract_y
_atom_site_fract_z
Co1 Co 0.90375(5) 0.06059(15) 0.25459(4)
Co2 Co 1.02737(6) 0.10852(15) 0.15734(4)
O1 O 0.7929(3) 0.3112(8) 0.23799(19)
O2 O 0.9786(3) 0.3409(7) 0.21692(18)
H1 H 0.943(3) 0.445(8) 0.1976(14)
O3 O 0.0742(3) 0.7249(7) 0.15413(18)
O4 O 0.8491(3) 0.6961(7) 0.28276(18)
O5 O 0.9142(3) 0.0352(9) 0.0959(2)
O6 O 0.0740(3) 0.3532(8) 0.10006(18)
O7 O 0.8754(3) -0.1591(8) 0.17276(19)
C1 C 0.7865(4) 0.5533(12) 0.2515(3)
C2 C 0.1198(4) 0.7579(12) 0.0601(3)
H2 H 0.0791 0.9077 0.0469
H3 H 0.1210 0.6418 0.0259
C3 C 0.6977(4) 0.6957(12) 0.2336(3)
H4 H 0.7075 0.8591 0.2119
H5 H 0.6790 0.7537 0.2697
C4 C 0.2142(4) 0.8704(12) 0.0838(3)
H6 H 0.2312 0.9849 0.0533
H7 H 0.2123 0.9847 0.1181
C5 C 0.3751(4) 0.7801(13) 0.1319(3)
H8 H 0.3907 0.9216 0.1062
H9 H 0.3673 0.8664 0.1687
C6 C 0.0861(4) 0.5988(13) 0.1066(3)
C7 C 0.7051(4) -0.0260(13) 0.0668(3)
H10 H 0.7230 0.1310 0.0462
H11 H 0.6931 0.0360 0.1047
C8 C 0.4533(4) 0.5832(13) 0.1464(3)
H12 H 0.4363 0.4309 0.1688
H13 H 0.4666 0.5127 0.1096
C9 C 0.6195(4) -0.1433(13) 0.0299(3)
H14 H 0.6314 -0.2046 -0.0081
H15 H 0.6018 -0.3007 0.0503
C10 C 0.5367(4) 0.7163(13) 0.1824(3)
H16 H 0.5230 0.7780 0.2198
H17 H 0.5500 0.8765 0.1609
C11 C 0.6208(4) 0.5420(12) 0.1962(3)
H18 H 0.6087 0.3796 0.2174
H19 H 0.6373 0.4856 0.1592
C12 C 0.8631(4) -0.1091(12) 0.1182(3)
C13 C 0.5426(4) 0.0574(13) 0.0184(3)
H20 H 0.5305 0.1182 0.0564
H21 H 0.5604 0.2152 -0.0019
C14 C 0.2858(4) 0.6573(13) 0.1018(3)
H22 H 0.2937 0.5575 0.0666
H23 H 0.2662 0.5293 0.1289
C15 C 0.7818(4) -0.2268(13) 0.0784(3)
H24 H 0.7631 -0.3889 0.0969
H25 H 0.7969 -0.2798 0.0408
Co1A Co 0.09625(5) -0.43941(15) 0.24541(4)
Co1A_2 Co 1.09625(5) 0.56059(15) 0.24541(4)
Co1A_3 Co 0.09625(5) 0.56059(15) 0.24541(4)
Co1_2 Co 0.90375(5) 1.06059(15) 0.25459(4)
Co1B Co 0.09625(5) -0.06059(15) -0.25459(4)
Co1A_4 Co 1.09625(5) -0.43941(15) 0.24541(4)
Co2A Co 0.97263(6) -0.39148(15) 0.34266(4)
Co2_2 Co 0.02737(6) 1.10852(15) 0.15734(4)
Co2A_2 Co 0.97263(6) 0.60852(15) 0.34266(4)
Co2_3 Co 0.02737(6) 0.10852(15) 0.15734(4)
Co2B Co -0.02737(6) -0.10852(15) -0.15734(4)
O1A O 0.2071(3) -0.1888(8) 0.26201(19)
O2A O 1.0214(3) -0.1591(7) 0.28308(18)
O2A_2 O 0.0214(3) -0.1591(7) 0.28308(18)
O2_2 O -0.0214(3) -0.6591(7) 0.21692(18)
H1A H 1.057(3) -0.055(8) 0.3024(14)
H1A_2 H 0.057(3) -0.055(8) 0.3024(14)
H1_2 H -0.057(3) -0.555(8) 0.1976(14)
O3A O 0.9258(3) 0.2249(7) 0.34587(18)
O3_2 O 1.0742(3) -0.2751(7) 0.15413(18)
O3_3 O 0.0742(3) -0.2751(7) 0.15413(18)
O3A_2 O 0.9258(3) -0.7751(7) 0.34587(18)
O4A O 0.1509(3) 0.1961(7) 0.21724(18)
O4_2 O 0.8491(3) -0.3039(7) 0.28276(18)
O4A_2 O 1.1509(3) 0.1961(7) 0.21724(18)
O4A_3 O 0.1509(3) -0.8039(7) 0.21724(18)
O5B O 0.0858(3) -0.0352(9) -0.0959(2)
O5A O 1.0858(3) -0.4648(9) 0.4041(2)
O6A O 0.9260(3) -0.1468(8) 0.39994(18)
O6_2 O 1.0740(3) 0.3532(8) 0.10006(18)
O7B O 0.1246(3) 0.1591(8) -0.17276(19)
O7A O 0.1246(3) -0.6591(8) 0.32724(19)
C1A C 0.2135(4) 0.0533(12) 0.2485(3)
C2A C 0.8802(4) 0.2579(12) 0.4399(3)
H2A H 0.9209 0.4077 0.4531
H3A H 0.8790 0.1418 0.4741
C3A C 0.3023(4) 0.1957(12) 0.2664(3)
H4A H 0.2925 0.3591 0.2881
H5A H 0.3210 0.2537 0.2303
C4A C 0.7858(4) 0.3704(12) 0.4162(3)
H6A H 0.7688 0.4849 0.4467
H7A H 0.7877 0.4847 0.3819
C5A C 0.6249(4) 0.2801(13) 0.3681(3)
H8A H 0.6093 0.4216 0.3938
H9A H 0.6327 0.3664 0.3313
C6A C 0.9139(4) 0.0988(13) 0.3934(3)
C7B C 0.2949(4) 0.0260(13) -0.0668(3)
H10B H 0.2770 -0.1310 -0.0462
H11B H 0.3069 -0.0360 -0.1047
C8A C 0.5467(4) 0.0832(13) 0.3536(3)
H12A H 0.5637 -0.0691 0.3312
H13A H 0.5334 0.0127 0.3904
C9B C 0.3805(4) 0.1433(13) -0.0299(3)
H14B H 0.3686 0.2046 0.0081
H15B H 0.3982 0.3007 -0.0503
C10A C 0.4633(4) 0.2163(13) 0.3176(3)
H16A H 0.4770 0.2780 0.2802
H17A H 0.4500 0.3765 0.3391
C11A C 0.3792(4) 0.0420(12) 0.3038(3)
H18A H 0.3913 -0.1204 0.2826
H19A H 0.3627 -0.0144 0.3408
C12B C 0.1369(4) 0.1091(12) -0.1182(3)
C13B C 0.4574(4) -0.0574(13) -0.0184(3)
H20B H 0.4695 -0.1182 -0.0564
H21B H 0.4396 -0.2152 0.0019
C14A C 0.7142(4) 0.1573(13) 0.3982(3)
H22A H 0.7063 0.0575 0.4334
H23A H 0.7338 0.0293 0.3711
C15B C 0.2182(4) 0.2268(13) -0.0784(3)
H24B H 0.2369 0.3889 -0.0969
H25B H 0.2031 0.2798 -0.0408
loop_
_geom_bond_atom_site_label_1
_geom_bond_atom_site_label_2
_geom_bond_site_symmetry_1
_geom_bond_site_symmetry_2
Co1 O1 1_555 1_555
Co2 O2 1_555 1_555
O1 C1 1_555 1_555
O2 Co1 1_555 1_555
H1 O2 1_555 1_555
O3 C6 1_555 1_555
O4 C1 1_555 1_555
O5 Co2 1_555 1_555
O6 C6 1_555 1_555
O7 Co1 1_555 1_555
C1 C3 1_555 1_555
C2 H2 1_555 1_555
H3 C2 1_555 1_555
C3 H4 1_555 1_555
H5 C3 1_555 1_555
C4 C2 1_555 1_555
H6 C4 1_555 1_555
H7 C4 1_555 1_555
C5 H8 1_555 1_555
H9 C5 1_555 1_555
C6 C2 1_555 1_555
C7 H10 1_555 1_555
H11 C7 1_555 1_555
C8 C5 1_555 1_555
H12 C8 1_555 1_555
H13 C8 1_555 1_555
C9 C7 1_555 1_555
H14 C9 1_555 1_555
H15 C9 1_555 1_555
C10 C8 1_555 1_555
H16 C10 1_555 1_555
H17 C10 1_555 1_555
C11 C3 1_555 1_555
H18 C11 1_555 1_555
H19 C11 1_555 1_555
C12 O5 1_555 1_555
C13 C9 1_555 1_555
H20 C13 1_555 1_555
H21 C13 1_555 1_555
C14 C4 1_555 1_555
H22 C14 1_555 1_555
H23 C14 1_555 1_555
C15 C7 1_555 1_555
H24 C15 1_555 1_555
H25 C15 1_555 1_555
Co1A O1A 1_555 1_555
Co1A_2 O2 1_555 1_555
Co1A_3 O3 1_555 1_555
Co1_2 O4 1_555 1_555
Co1B O7B 1_555 1_555
Co1A_4 O2A 1_555 1_555
Co2A O2A 1_555 1_555
Co2_2 O3 1_555 1_555
Co2A_2 O4 1_555 1_555
Co2_3 O6 1_555 1_555
Co2B O5B 1_555 1_555
O1A C1A 1_555 1_555
O2A Co1 1_555 1_555
O2A_2 Co1A 1_555 1_555
O2_2 Co1A 1_555 1_555
H1A O2A 1_555 1_555
H1A_2 O2A_2 1_555 1_555
H1_2 O2_2 1_555 1_555
O3A Co1 1_555 1_555
O3_2 Co2 1_555 1_555
O3_3 Co1A 1_555 1_555
O3A_2 Co2A 1_555 1_555
O4A Co1A_3 1_555 1_555
O4_2 Co1 1_555 1_555
O4A_2 Co2 1_555 1_555
O4A_3 Co1A 1_555 1_555
O5B C12B 1_555 1_555
O5A Co2A 1_555 1_555
O6A Co2A 1_555 1_555
O6_2 Co2 1_555 1_555
O7B C12B 1_555 1_555
O7A Co1A 1_555 1_555
C1A O4A 1_555 1_555
C2A H2A 1_555 1_555
H3A C2A 1_555 1_555
C3A C1A 1_555 1_555
H4A C3A 1_555 1_555
H5A C3A 1_555 1_555
C4A C2A 1_555 1_555
H6A C4A 1_555 1_555
H7A C4A 1_555 1_555
C5A H8A 1_555 1_555
H9A C5A 1_555 1_555
C6A O3A 1_555 1_555
C7B H10B 1_555 1_555
H11B C7B 1_555 1_555
C8A C5A 1_555 1_555
H12A C8A 1_555 1_555
H13A C8A 1_555 1_555
C9B C7B 1_555 1_555
H14B C9B 1_555 1_555
H15B C9B 1_555 1_555
C10A C8A 1_555 1_555
H16A C10A 1_555 1_555
H17A C10A 1_555 1_555
C11A C3A 1_555 1_555
H18A C11A 1_555 1_555
H19A C11A 1_555 1_555
C12B C15B 1_555 1_555
C13B C13 1_555 1_555
H20B C13B 1_555 1_555
H21B C13B 1_555 1_555
C14A C4A 1_555 1_555
H22A C14A 1_555 1_555
H23A C14A 1_555 1_555
C15B C7B 1_555 1_555
H24B C15B 1_555 1_555
H25B C15B 1_555 1_555
O7 C12 1_555 1_555
C5 C14 1_555 1_555
C10 C11 1_555 1_555
C12 C15 1_555 1_555
Co1A_2 O4A_2 1_555 1_555
Co1A_4 O3_2 1_555 1_555
Co2A O4_2 1_555 1_555
Co2A_2 O3A 1_555 1_555
Co2_3 O3_3 1_555 1_555
Co2_3 O4A 1_555 1_555
O6A C6A 1_555 1_555
C2A C6A 1_555 1_555
C5A C14A 1_555 1_555
C9B C13B 1_555 1_555
C10A C11A 1_555 1_555

#END
