
#######################################################################
#
#                 Cambridge Crystallographic Data Centre
#                                CCDC 
#
#######################################################################
#
# If this CIF has been generated from an entry in the Cambridge 
# Structural Database, then it will include bibliographic, chemical, 
# crystal, experimental, refinement or atomic coordinate data resulting 
# from the CCDC's data processing and validation procedures.
#
#######################################################################

data_SAYKIO
_symmetry_cell_setting           monoclinic
_symmetry_space_group_name_H-M   'C 2/c'
_symmetry_Int_Tables_number      15
_space_group_name_Hall           '-C 2yn'
loop_
_symmetry_equiv_pos_site_id
_symmetry_equiv_pos_as_xyz
1 x,y,z
2 -x,y,1/2-z
3 1/2+x,1/2+y,z
4 1/2-x,1/2+y,1/2-z
5 -x,-y,-z
6 x,-y,1/2+z
7 1/2-x,1/2-y,-z
8 1/2+x,1/2-y,1/2+z
_cell_length_a                   35.621(3)
_cell_length_b                   9.2925(8)
_cell_length_c                   20.4260(17)
_cell_angle_alpha                90
_cell_angle_beta                 114.6560(10)
_cell_angle_gamma                90
_cell_volume                     6144.75
loop_
_atom_site_label
_atom_site_type_symbol
_atom_site_fract_x
_atom_site_fract_y
_atom_site_fract_z
U1 U 0.339170(12) 1.55735(5) 0.90574(2)
U2 U 0.0000 0.0000 1.0000
O1 O 0.1174(2) 1.1121(8) 0.8101(4)
O2 O 0.3053(3) 1.7649(12) 0.8289(6)
O3 O 0.0000 0.9418(10) 0.7500
O4 O 0.0507(3) 0.7260(10) 0.7249(5)
O5 O 0.09969(19) 0.7065(7) 0.8791(4)
O6 O 0.2647(2) 1.5281(10) 0.8495(5)
O7 O 0.2998(2) 1.3564(10) 0.9202(5)
O8 O 0.0498(2) 0.1624(8) 1.0071(4)
O9 O 0.1103(2) 0.0934(8) 1.0183(4)
O10 O 0.1065(2) 0.2082(9) 0.5817(4)
O11 O 0.0498(2) 0.1364(10) 0.5847(5)
O12 O 0.3354(2) 1.6428(9) 0.9789(4)
O13 O 0.3419(3) 1.4765(11) 0.8338(5)
O14 O -0.0065(2) 0.0956(10) 1.0677(4)
C1 C 0.0731(3) 0.9188(10) 0.8072(5)
C2 C 0.1134(3) 0.9993(12) 0.8502(6)
H1 H 0.1132 1.0354 0.8947
H2 H 0.1366 0.9343 0.8624
C3 C 0.0362(3) 1.0225(11) 0.7830(6)
H3 H 0.0361 1.0738 0.8243
H4 H 0.0382 1.0925 0.7494
C4 C 0.0807(4) 0.8384(14) 0.7438(6)
H5 H 0.0757 0.9022 0.7034
H6 H 0.1085 0.8001 0.7610
C5 C 0.0667(3) 0.8126(11) 0.8559(6)
H7 H 0.0663 0.8616 0.8976
H8 H 0.0403 0.7649 0.8309
C6 C 0.0588(3) 0.6010(14) 0.6924(6)
C7 C 0.0898(3) 0.6133(14) 0.6690(7)
H9 H 0.1049 0.6976 0.6745
C8 C 0.0977(4) 0.4800(13) 0.6339(6)
H10 H 0.1180 0.4770 0.6165
C9 C 0.0725(3) 0.3624(12) 0.6292(5)
C10 C 0.0430(4) 0.3785(16) 0.6565(6)
H11 H 0.0261 0.2988 0.6507
C11 C 0.0350(4) 0.4890(15) 0.6895(8)
H12 H 0.0152 0.4883 0.7081
C12 C 0.0763(3) 0.2292(12) 0.5962(6)
C13 C 0.0950(3) 0.5866(11) 0.9120(6)
C14 C 0.1258(3) 0.4849(11) 0.9306(6)
H13 H 0.1494 0.5047 0.9233
C15 C 0.1225(3) 0.3541(12) 0.9598(6)
H14 H 0.1431 0.2852 0.9703
C16 C 0.0874(3) 0.3256(10) 0.9737(5)
C17 C 0.0590(3) 0.4290(11) 0.9585(6)
H15 H 0.0364 0.4121 0.9689
C18 C 0.0614(3) 0.5590(11) 0.9283(6)
H16 H 0.0408 0.6277 0.9189
C19 C 0.0831(3) 0.1854(11) 1.0005(5)
C20 C 0.1549(3) 1.1809(11) 0.8335(6)
C21 C 0.1547(3) 1.3098(12) 0.8018(6)
H17 H 0.1298 1.3465 0.7684
C22 C 0.1901(3) 1.3869(13) 0.8178(6)
H18 H 0.1894 1.4757 0.7963
C23 C 0.2266(3) 1.3301(12) 0.8662(6)
C24 C 0.2268(3) 1.2062(15) 0.8987(7)
H19 H 0.2519 1.1705 0.9322
C25 C 0.1907(3) 1.1271(13) 0.8843(7)
H20 H 0.1912 1.0417 0.9083
C26 C 0.2651(3) 1.4107(14) 0.8785(7)
U1A U -0.339170(12) 1.55735(5) 0.59426(2)
U1F U 0.160830(12) -0.05735(5) 1.09426(2)
U1C U 0.160830(12) 0.05735(5) 0.59426(2)
U1B U -0.160830(12) 0.05735(5) 0.90574(2)
U1G U -0.160830(12) -0.05735(5) 0.40574(2)
U2A U 0.0000 0.0000 0.5000
O1A O -0.1174(2) 1.1121(8) 0.6899(4)
O2A O -0.3053(3) 1.7649(12) 0.6711(6)
O4A O -0.0507(3) 0.7260(10) 0.7751(5)
O5A O -0.09969(19) 0.7065(7) 0.6209(4)
O6A O -0.2647(2) 1.5281(10) 0.6505(5)
O7A O -0.2998(2) 1.3564(10) 0.5798(5)
O8A O -0.0498(2) 0.1624(8) 0.4929(4)
O8D O -0.0498(2) -0.1624(8) 0.9929(4)
O9A O -0.1103(2) 0.0934(8) 0.4817(4)
O9F O 0.3897(2) 1.4066(8) 0.9817(4)
O9G O -0.3897(2) 1.4066(8) 0.5183(4)
O10A O -0.1065(2) 0.2082(9) 0.9183(4)
O10C O 0.3935(2) 1.7082(9) 0.9183(4)
O10B O -0.3935(2) 1.7082(9) 0.5817(4)
O11A O -0.0498(2) 0.1364(10) 0.9153(5)
O11E O 0.0498(2) -0.1364(10) 1.0847(5)
O12A O -0.3354(2) 1.6428(9) 0.5211(4)
O13A O -0.3419(3) 1.4765(11) 0.6662(5)
O14D O 0.0065(2) -0.0956(10) 0.9323(4)
C1A C -0.0731(3) 0.9188(10) 0.6928(5)
C2A C -0.1134(3) 0.9993(12) 0.6498(6)
H1A H -0.1132 1.0354 0.6053
H2A H -0.1366 0.9343 0.6376
C3A C -0.0362(3) 1.0225(11) 0.7170(6)
H3A H -0.0361 1.0738 0.6757
H4A H -0.0382 1.0925 0.7506
C4A C -0.0807(4) 0.8384(14) 0.7562(6)
H5A H -0.0757 0.9022 0.7966
H6A H -0.1085 0.8001 0.7390
C5A C -0.0667(3) 0.8126(11) 0.6441(6)
H7A H -0.0663 0.8616 0.6024
H8A H -0.0403 0.7649 0.6691
C6A C -0.0588(3) 0.6010(14) 0.8076(6)
C7A C -0.0898(3) 0.6133(14) 0.8310(7)
H9A H -0.1049 0.6976 0.8255
C8A C -0.0977(4) 0.4800(13) 0.8661(6)
H10A H -0.1180 0.4770 0.8835
C9A C -0.0725(3) 0.3624(12) 0.8708(5)
C10A C -0.0430(4) 0.3785(16) 0.8435(6)
H11A H -0.0261 0.2988 0.8493
C11A C -0.0350(4) 0.4890(15) 0.8105(8)
H12A H -0.0152 0.4883 0.7919
C12A C -0.0763(3) 0.2292(12) 0.9038(6)
C13A C -0.0950(3) 0.5866(11) 0.5880(6)
C14A C -0.1258(3) 0.4849(11) 0.5694(6)
H13A H -0.1494 0.5047 0.5767
C15A C -0.1225(3) 0.3541(12) 0.5402(6)
H14A H -0.1431 0.2852 0.5297
C16A C -0.0874(3) 0.3256(10) 0.5263(5)
C17A C -0.0590(3) 0.4290(11) 0.5415(6)
H15A H -0.0364 0.4121 0.5311
C18A C -0.0614(3) 0.5590(11) 0.5717(6)
H16A H -0.0408 0.6277 0.5811
C19A C -0.0831(3) 0.1854(11) 0.4995(5)
C20A C -0.1549(3) 1.1809(11) 0.6665(6)
C21A C -0.1547(3) 1.3098(12) 0.6982(6)
H17A H -0.1298 1.3465 0.7316
C22A C -0.1901(3) 1.3869(13) 0.6822(6)
H18A H -0.1894 1.4757 0.7037
C23A C -0.2266(3) 1.3301(12) 0.6338(6)
C24A C -0.2268(3) 1.2062(15) 0.6013(7)
H19A H -0.2519 1.1705 0.5678
C25A C -0.1907(3) 1.1271(13) 0.6157(7)
H20A H -0.1912 1.0417 0.5917
C26A C -0.2651(3) 1.4107(14) 0.6215(7)
loop_
_geom_bond_atom_site_label_1
_geom_bond_atom_site_label_2
_geom_bond_site_symmetry_1
_geom_bond_site_symmetry_2
U1 O2 1_555 1_555
U2 O8 1_555 1_555
O1 C2 1_555 1_555
O3 C3 1_555 1_555
O4 C4 1_555 1_555
O5 C5 1_555 1_555
O6 U1 1_555 1_555
O7 U1 1_555 1_555
O8 C19 1_555 1_555
O9 C19 1_555 1_555
O10 C12 1_555 1_555
O11 C12 1_555 1_555
O12 U1 1_555 1_555
O13 U1 1_555 1_555
O14 U2 1_555 1_555
C1 C2 1_555 1_555
C2 H1 1_555 1_555
H2 C2 1_555 1_555
C3 C1 1_555 1_555
H3 C3 1_555 1_555
H4 C3 1_555 1_555
C4 C1 1_555 1_555
H5 C4 1_555 1_555
H6 C4 1_555 1_555
C5 C1 1_555 1_555
H7 C5 1_555 1_555
H8 C5 1_555 1_555
C6 O4 1_555 1_555
C7 C6 1_555 1_555
H9 C7 1_555 1_555
C8 C7 1_555 1_555
H10 C8 1_555 1_555
C9 C8 1_555 1_555
C10 C9 1_555 1_555
H11 C10 1_555 1_555
C11 C6 1_555 1_555
H12 C11 1_555 1_555
C12 C9 1_555 1_555
C13 O5 1_555 1_555
C14 C13 1_555 1_555
H13 C14 1_555 1_555
C15 C14 1_555 1_555
H14 C15 1_555 1_555
C16 C15 1_555 1_555
C17 C16 1_555 1_555
H15 C17 1_555 1_555
C18 C13 1_555 1_555
H16 C18 1_555 1_555
C19 C16 1_555 1_555
C20 O1 1_555 1_555
C21 C20 1_555 1_555
H17 C21 1_555 1_555
C22 C21 1_555 1_555
H18 C22 1_555 1_555
C23 C22 1_555 1_555
C24 C23 1_555 1_555
H19 C24 1_555 1_555
C25 C20 1_555 1_555
H20 C25 1_555 1_555
C26 O6 1_555 1_555
U1A O2A 1_555 1_555
U1F O9 1_555 1_555
U1C O10 1_555 1_555
U1B O10A 1_555 1_555
U1G O9A 1_555 1_555
U2A O11 1_555 1_555
O1A C2A 1_555 1_555
O4A C4A 1_555 1_555
O5A C5A 1_555 1_555
O6A U1A 1_555 1_555
O7A U1A 1_555 1_555
O8A U2A 1_555 1_555
O8D U2 1_555 1_555
O9A C19A 1_555 1_555
O9F U1 1_555 1_555
O9G U1A 1_555 1_555
O10A C12A 1_555 1_555
O10C U1 1_555 1_555
O10B U1A 1_555 1_555
O11A U2 1_555 1_555
O11E U2 1_555 1_555
O12A U1A 1_555 1_555
O13A U1A 1_555 1_555
O14D U2 1_555 1_555
C1A C2A 1_555 1_555
C2A H1A 1_555 1_555
H2A C2A 1_555 1_555
C3A O3 1_555 1_555
H3A C3A 1_555 1_555
H4A C3A 1_555 1_555
C4A C1A 1_555 1_555
H5A C4A 1_555 1_555
H6A C4A 1_555 1_555
C5A C1A 1_555 1_555
H7A C5A 1_555 1_555
H8A C5A 1_555 1_555
C6A O4A 1_555 1_555
C7A C6A 1_555 1_555
H9A C7A 1_555 1_555
C8A C7A 1_555 1_555
H10A C8A 1_555 1_555
C9A C8A 1_555 1_555
C10A C9A 1_555 1_555
H11A C10A 1_555 1_555
C11A C6A 1_555 1_555
H12A C11A 1_555 1_555
C12A O11A 1_555 1_555
C13A O5A 1_555 1_555
C14A C13A 1_555 1_555
H13A C14A 1_555 1_555
C15A C14A 1_555 1_555
H14A C15A 1_555 1_555
C16A C15A 1_555 1_555
C17A C16A 1_555 1_555
H15A C17A 1_555 1_555
C18A C13A 1_555 1_555
H16A C18A 1_555 1_555
C19A O8A 1_555 1_555
C20A O1A 1_555 1_555
C21A C20A 1_555 1_555
H17A C21A 1_555 1_555
C22A C21A 1_555 1_555
H18A C22A 1_555 1_555
C23A C22A 1_555 1_555
C24A C23A 1_555 1_555
H19A C24A 1_555 1_555
C25A C20A 1_555 1_555
H20A C25A 1_555 1_555
C26A O6A 1_555 1_555
O7 C26 1_555 1_555
C10 C11 1_555 1_555
C17 C18 1_555 1_555
C23 C26 1_555 1_555
C24 C25 1_555 1_555
O7A C26A 1_555 1_555
C1A C3A 1_555 1_555
C9A C12A 1_555 1_555
C10A C11A 1_555 1_555
C16A C19A 1_555 1_555
C17A C18A 1_555 1_555
C23A C26A 1_555 1_555
C24A C25A 1_555 1_555

#END
