
#######################################################################
#
#                 Cambridge Crystallographic Data Centre
#                                CCDC 
#
#######################################################################
#
# If this CIF has been generated from an entry in the Cambridge 
# Structural Database, then it will include bibliographic, chemical, 
# crystal, experimental, refinement or atomic coordinate data resulting 
# from the CCDC's data processing and validation procedures.
#
#######################################################################

data_SAZPUE
_symmetry_cell_setting           monoclinic
_symmetry_space_group_name_H-M   'P 21/n'
_symmetry_Int_Tables_number      14
_space_group_name_Hall           '-P 2yn'
loop_
_symmetry_equiv_pos_site_id
_symmetry_equiv_pos_as_xyz
1 x,y,z
2 1/2-x,1/2+y,1/2-z
3 -x,-y,-z
4 1/2+x,1/2-y,1/2+z
_cell_length_a                   12.406(3)
_cell_length_b                   8.655(2)
_cell_length_c                   14.372(4)
_cell_angle_alpha                90
_cell_angle_beta                 113.57(2)
_cell_angle_gamma                90
_cell_volume                     1414.43
loop_
_atom_site_label
_atom_site_type_symbol
_atom_site_fract_x
_atom_site_fract_y
_atom_site_fract_z
Cd1 Cd -0.1808(1) 0.0539(2) 0.00678(8)
I1 I 0.07783(9) 0.1702(1) 0.09999(8)
N1 N -0.141(1) -0.083(2) 0.1575(9)
C1 C -0.043(1) -0.198(2) 0.193(1)
C2 C -0.017(1) -0.272(2) 0.294(1)
C3 C 0.090(1) -0.370(2) 0.324(1)
N2 N 0.130(1) -0.437(2) 0.4297(8)
N3 N -0.239(1) 0.235(2) -0.128(1)
C4 C -0.198(2) 0.398(2) -0.102(1)
C5 C -0.238(2) 0.467(2) -0.031(1)
C6 C -0.204(2) 0.419(2) 0.071(1)
N4 N -0.247(1) 0.260(2) 0.080(1)
H1 H -0.2111 -0.1372 0.1492
H2 H -0.1241 -0.0081 0.2100
H3 H 0.0263 -0.1462 0.1968
H4 H -0.0625 -0.2777 0.1434
H5 H -0.0826 -0.3344 0.2895
H6 H -0.0049 -0.19325 0.3437
H7 H 0.0731 -0.4529 0.2764
H8 H 0.1517 -0.3082 0.3202
H9 H 0.1280 -0.3550 0.4731
H10 H 0.0739 -0.5140 0.4273
H11 H -0.3227 0.2356 -0.1581
H12 H -0.2095 0.1990 -0.1760
H13 H -0.1145 0.3990 -0.0731
H14 H -0.2271 0.4577 -0.1623
H15 H -0.3218 0.4586 -0.0603
H16 H -0.2164 0.5734 -0.0271
H17 H -0.2344 0.4899 0.1045
H18 H -0.1198 0.4194 0.1024
H19 H -0.2220 0.2381 0.1503
H20 H -0.3303 0.2615 0.0483
I1B I -0.07783(9) -0.1702(1) -0.09999(8)
N2C N -0.370(1) -0.063(2) -0.0703(8)
Cd1B Cd 0.1808(1) -0.0539(2) -0.00678(8)
Cd1C Cd 0.3192(1) -0.5539(2) 0.50678(8)
H9C H -0.3720 -0.1450 -0.0269
H10C H -0.4261 0.0140 -0.0727
I2 I 0.57794(9) 0.7307(2) 0.13844(8)
loop_
_geom_bond_atom_site_label_1
_geom_bond_atom_site_label_2
_geom_bond_site_symmetry_1
_geom_bond_site_symmetry_2
Cd1 I1 1_555 1_555
I1 Cd1B 1_555 1_555
N1 Cd1 1_555 1_555
C1 N1 1_555 1_555
C2 C1 1_555 1_555
C3 C2 1_555 1_555
N2 C3 1_555 1_555
N3 Cd1 1_555 1_555
C4 N3 1_555 1_555
C5 C4 1_555 1_555
C6 C5 1_555 1_555
N4 Cd1 1_555 1_555
H1 N1 1_555 1_555
H2 N1 1_555 1_555
H3 C1 1_555 1_555
H4 C1 1_555 1_555
H5 C2 1_555 1_555
H6 C2 1_555 1_555
H7 C3 1_555 1_555
H8 C3 1_555 1_555
H9 N2 1_555 1_555
H10 N2 1_555 1_555
H11 N3 1_555 1_555
H12 N3 1_555 1_555
H13 C4 1_555 1_555
H14 C4 1_555 1_555
H15 C5 1_555 1_555
H16 C5 1_555 1_555
H17 C6 1_555 1_555
H18 C6 1_555 1_555
H19 N4 1_555 1_555
H20 N4 1_555 1_555
I1B Cd1 1_555 1_555
N2C Cd1 1_555 1_555
Cd1B I1B 1_555 1_555
Cd1C N2 1_555 1_555
H9C N2C 1_555 1_555
H10C N2C 1_555 1_555
C6 N4 1_555 1_555

#END
