
#######################################################################
#
#                 Cambridge Crystallographic Data Centre
#                                CCDC 
#
#######################################################################
#
# If this CIF has been generated from an entry in the Cambridge 
# Structural Database, then it will include bibliographic, chemical, 
# crystal, experimental, refinement or atomic coordinate data resulting 
# from the CCDC's data processing and validation procedures.
#
#######################################################################

data_SAZSOC
_symmetry_cell_setting           tetragonal
_symmetry_space_group_name_H-M   'I 41/a'
_symmetry_Int_Tables_number      88
_space_group_name_Hall           '-I 4ad'
loop_
_symmetry_equiv_pos_site_id
_symmetry_equiv_pos_as_xyz
1 x,y,z
2 3/4-y,1/4+x,1/4+z
3 1/2+x,1/2+y,1/2+z
4 1/4-y,3/4+x,3/4+z
5 1/4+y,1/4-x,1/4+z
6 1/2-x,-y,1/2+z
7 3/4+y,3/4-x,3/4+z
8 -x,1/2-y,z
9 -x,-y,-z
10 1/4+y,3/4-x,3/4-z
11 1/2-x,1/2-y,1/2-z
12 3/4+y,1/4-x,1/4-z
13 3/4-y,3/4+x,3/4-z
14 1/2+x,y,1/2-z
15 1/4-y,1/4+x,1/4-z
16 x,1/2+y,-z
_cell_length_a                   21.625(6)
_cell_length_b                   21.625(6)
_cell_length_c                   12.826(3)
_cell_angle_alpha                90
_cell_angle_beta                 90
_cell_angle_gamma                90
_cell_volume                     5997.96
loop_
_atom_site_label
_atom_site_type_symbol
_atom_site_fract_x
_atom_site_fract_y
_atom_site_fract_z
Co1 Co 0.0000 0.5000 0.0000
V1 V 0.00261(4) 0.35971(4) 0.15841(8)
O1 O 0.00196(19) 0.42401(18) 0.0894(3)
O2 O 0.0073(2) 0.3765(2) 0.2814(4)
O3 O -0.0662(2) 0.3180(2) 0.1334(4)
N1 N 0.0944(2) 0.5212(2) 0.0467(4)
N2 N 0.4636(2) 0.5535(2) 0.3664(4)
C1 C 0.1375(3) 0.4774(3) 0.0631(5)
H1 H 0.1252 0.4362 0.0605
C2 C 0.1980(3) 0.4899(3) 0.0834(5)
H2 H 0.2256 0.4576 0.0943
C3 C 0.2187(3) 0.5508(3) 0.0880(4)
C4 C 0.1739(3) 0.5964(3) 0.0736(5)
H3 H 0.1848 0.6380 0.0778
C5 C 0.1138(3) 0.5799(3) 0.0532(5)
H4 H 0.0849 0.6112 0.0434
C6 C 0.4638(3) 0.5276(3) 0.2713(5)
H5 H 0.4824 0.4891 0.2631
C7 C 0.4377(3) 0.5553(3) 0.1855(5)
H6 H 0.4402 0.5359 0.1209
C8 C 0.4077(3) 0.6116(3) 0.1935(5)
C9 C 0.4083(4) 0.6388(3) 0.2914(6)
H7 H 0.3900 0.6773 0.3013
C10 C 0.4362(3) 0.6087(3) 0.3744(6)
H8 H 0.4359 0.6280 0.4392
C11 C 0.2866(3) 0.5646(3) 0.1064(5)
H9 H 0.3105 0.5421 0.0549
H10 H 0.2978 0.5484 0.1744
C12 C 0.3058(3) 0.6322(3) 0.1021(6)
H11 H 0.2884 0.6537 0.1618
H12 H 0.2886 0.6509 0.0397
C13 C 0.3759(4) 0.6412(4) 0.1018(6)
H13 H 0.3927 0.6238 0.0381
H14 H 0.3849 0.6851 0.1019
Co1M Co 0.5000 0.5000 0.5000
Co1M_2 Co -0.5000 0.5000 -0.5000
V1H V -0.00261(4) 0.64029(4) -0.15841(8)
V1N V -0.10971(4) 0.25261(4) 0.09159(8)
V1K V 0.10971(4) 0.24739(4) 0.09159(8)
O1H O -0.00196(19) 0.57599(18) -0.0894(3)
O2H O -0.0073(2) 0.6235(2) -0.2814(4)
O3K O 0.0680(2) 0.3162(2) 0.1166(4)
O3C O -0.0680(2) 0.6838(2) -0.1166(4)
O3H O 0.0662(2) 0.6820(2) -0.1334(4)
N1H N -0.0944(2) 0.4788(2) -0.0467(4)
N2H N -0.4636(2) 0.4465(2) -0.3664(4)
N2M N -0.0364(2) 0.5535(2) 0.1336(4)
N2E N 0.0364(2) 0.4465(2) -0.1336(4)
C1H C -0.1375(3) 0.5226(3) -0.0631(5)
H1H H -0.1252 0.5638 -0.0605
C2H C -0.1980(3) 0.5101(3) -0.0834(5)
H2H H -0.2256 0.5424 -0.0943
C3H C -0.2187(3) 0.4492(3) -0.0880(4)
C4H C -0.1739(3) 0.4036(3) -0.0736(5)
H3H H -0.1848 0.3620 -0.0778
C5H C -0.1138(3) 0.4201(3) -0.0532(5)
H4H H -0.0849 0.3888 -0.0434
C6H C -0.4638(3) 0.4724(3) -0.2713(5)
H5H H -0.4824 0.5109 -0.2631
C7H C -0.4377(3) 0.4447(3) -0.1855(5)
H6H H -0.4402 0.4641 -0.1209
C8H C -0.4077(3) 0.3884(3) -0.1935(5)
C9H C -0.4083(4) 0.3612(3) -0.2914(6)
H7H H -0.3900 0.3227 -0.3013
C10H C -0.4362(3) 0.3913(3) -0.3744(6)
H8H H -0.4359 0.3720 -0.4392
C11H C -0.2866(3) 0.4354(3) -0.1064(5)
H9H H -0.3105 0.4579 -0.0549
H10H H -0.2978 0.4516 -0.1744
C12H C -0.3058(3) 0.3678(3) -0.1021(6)
H11H H -0.2884 0.3463 -0.1618
H12H H -0.2886 0.3491 -0.0397
C13H C -0.3759(4) 0.3588(4) -0.1018(6)
H13H H -0.3927 0.3762 -0.0381
H14H H -0.3849 0.3149 -0.1019
loop_
_geom_bond_atom_site_label_1
_geom_bond_atom_site_label_2
_geom_bond_site_symmetry_1
_geom_bond_site_symmetry_2
Co1 O1 1_555 1_555
V1 O1 1_555 1_555
O2 V1 1_555 1_555
O3 V1 1_555 1_555
N1 Co1 1_555 1_555
N2 C6 1_555 1_555
C1 N1 1_555 1_555
H1 C1 1_555 1_555
C2 C1 1_555 1_555
H2 C2 1_555 1_555
C3 C2 1_555 1_555
C4 C3 1_555 1_555
H3 C4 1_555 1_555
C5 N1 1_555 1_555
H4 C5 1_555 1_555
C6 H5 1_555 1_555
C7 C6 1_555 1_555
H6 C7 1_555 1_555
C8 C7 1_555 1_555
C9 C8 1_555 1_555
H7 C9 1_555 1_555
C10 N2 1_555 1_555
H8 C10 1_555 1_555
C11 C3 1_555 1_555
H9 C11 1_555 1_555
H10 C11 1_555 1_555
C12 C11 1_555 1_555
H11 C12 1_555 1_555
H12 C12 1_555 1_555
C13 C8 1_555 1_555
H13 C13 1_555 1_555
H14 C13 1_555 1_555
Co1M N2 1_555 1_555
Co1M_2 N2H 1_555 1_555
V1H O1H 1_555 1_555
V1N O3 1_555 1_555
V1K O3K 1_555 1_555
O1H Co1 1_555 1_555
O2H V1H 1_555 1_555
O3K V1 1_555 1_555
O3C V1H 1_555 1_555
O3H V1H 1_555 1_555
N1H Co1 1_555 1_555
N2H C6H 1_555 1_555
N2M Co1 1_555 1_555
N2E Co1 1_555 1_555
C1H N1H 1_555 1_555
H1H C1H 1_555 1_555
C2H C1H 1_555 1_555
H2H C2H 1_555 1_555
C3H C2H 1_555 1_555
C4H C3H 1_555 1_555
H3H C4H 1_555 1_555
C5H N1H 1_555 1_555
H4H C5H 1_555 1_555
C6H H5H 1_555 1_555
C7H C6H 1_555 1_555
H6H C7H 1_555 1_555
C8H C7H 1_555 1_555
C9H C8H 1_555 1_555
H7H C9H 1_555 1_555
C10H N2H 1_555 1_555
H8H C10H 1_555 1_555
C11H C3H 1_555 1_555
H9H C11H 1_555 1_555
H10H C11H 1_555 1_555
C12H C11H 1_555 1_555
H11H C12H 1_555 1_555
H12H C12H 1_555 1_555
C13H C8H 1_555 1_555
H13H C13H 1_555 1_555
H14H C13H 1_555 1_555
C4 C5 1_555 1_555
C9 C10 1_555 1_555
C12 C13 1_555 1_555
C4H C5H 1_555 1_555
C9H C10H 1_555 1_555
C12H C13H 1_555 1_555

#END
