
#######################################################################
#
#                 Cambridge Crystallographic Data Centre
#                                CCDC 
#
#######################################################################
#
# If this CIF has been generated from an entry in the Cambridge 
# Structural Database, then it will include bibliographic, chemical, 
# crystal, experimental, refinement or atomic coordinate data resulting 
# from the CCDC's data processing and validation procedures.
#
#######################################################################

data_SAZVAR
_symmetry_cell_setting           monoclinic
_symmetry_space_group_name_H-M   'P 21'
_symmetry_Int_Tables_number      4
_space_group_name_Hall           'P 2yb'
loop_
_symmetry_equiv_pos_site_id
_symmetry_equiv_pos_as_xyz
1 x,y,z
2 -x,1/2+y,-z
_cell_length_a                   10.0973(15)
_cell_length_b                   7.9349(11)
_cell_length_c                   11.8244(18)
_cell_angle_alpha                90
_cell_angle_beta                 115.098(2)
_cell_angle_gamma                90
_cell_volume                     857.935
loop_
_atom_site_label
_atom_site_type_symbol
_atom_site_fract_x
_atom_site_fract_y
_atom_site_fract_z
Zn1 Zn 0.83158(4) 0.24157(8) 0.22190(4)
O1 O 1.0302(3) 0.1370(5) 0.3174(3)
O2 O 1.0942(4) 0.3102(5) 0.2027(4)
O3 O 1.7316(4) 0.1003(5) 0.3051(4)
O4 O 1.5347(5) 0.1915(10) 0.1463(5)
N1 N 0.8430(9) 0.4806(7) 0.2802(6)
N2 N 0.8207(7) 0.7440(11) 0.3307(5)
H1 H 0.7680 0.8296 0.3297
N3 N 0.7830(4) 0.2036(5) 0.0421(4)
N4 N 0.7784(6) 0.0795(7) -0.1263(5)
H2 H 0.7749 -0.0035 -0.1743
C1 C 1.1222(5) 0.1968(6) 0.2802(4)
C2 C 1.2741(5) 0.1249(6) 0.3361(4)
C3 C 1.3300(5) 0.0376(7) 0.4478(5)
H3 H 1.2712 0.0180 0.4893
C4 C 1.4733(6) -0.0213(10) 0.4987(7)
H4 H 1.5104 -0.0795 0.5740
C5 C 1.5606(5) 0.0078(7) 0.4358(5)
H5 H 1.6572 -0.0289 0.4704
C6 C 1.5043(5) 0.0915(6) 0.3218(5)
C7 C 1.3621(4) 0.1498(6) 0.2741(4)
H6 H 1.3245 0.2073 0.1984
C8 C 1.5948(5) 0.1312(8) 0.2497(5)
C9 C 0.6116(7) 0.609(2) 0.1918(8)
H7 H 0.5813 0.5030 0.1495
H8 H 0.5893 0.6979 0.1313
H9 H 0.5609 0.6287 0.2433
C10 C 0.7852(11) 0.6052(8) 0.2777(8)
C11 C 1.0057(8) 0.5495(13) 0.3775(8)
H10 H 1.0411 0.4857 0.4547
H11 H 1.0746 0.5363 0.3408
C12 C 0.9927(8) 0.7161(17) 0.4008(7)
H12 H 1.0446 0.7875 0.3665
H13 H 1.0286 0.7377 0.4897
C13 C 0.8029(9) -0.1034(9) 0.0471(6)
H14 H 0.8078 -0.0905 0.1295
H15 H 0.8903 -0.1575 0.0522
H16 H 0.7195 -0.1710 -0.0025
C14 C 0.7892(5) 0.0647(7) -0.0115(5)
C15 C 0.7732(7) 0.2535(12) -0.1590(5)
H17 H 0.6865 0.2787 -0.2346
H18 H 0.8593 0.2860 -0.1705
C16 C 0.7687(7) 0.3415(8) -0.0451(6)
H19 H 0.8488 0.4210 -0.0086
H20 H 0.6771 0.4011 -0.0680
Zn1_2 Zn 1.83158(4) 0.24157(8) 0.22190(4)
O3_2 O 0.7316(4) 0.1003(5) 0.3051(4)
loop_
_geom_bond_atom_site_label_1
_geom_bond_atom_site_label_2
_geom_bond_site_symmetry_1
_geom_bond_site_symmetry_2
Zn1 O1 1_555 1_555
O1 C1 1_555 1_555
O2 C1 1_555 1_555
O3 C8 1_555 1_555
O4 C8 1_555 1_555
N1 Zn1 1_555 1_555
N2 H1 1_555 1_555
N3 Zn1 1_555 1_555
N4 H2 1_555 1_555
C1 C2 1_555 1_555
C2 C3 1_555 1_555
C3 H3 1_555 1_555
C4 C3 1_555 1_555
H4 C4 1_555 1_555
C5 C4 1_555 1_555
H5 C5 1_555 1_555
C6 C5 1_555 1_555
C7 C2 1_555 1_555
H6 C7 1_555 1_555
C8 C6 1_555 1_555
C9 H7 1_555 1_555
H8 C9 1_555 1_555
H9 C9 1_555 1_555
C10 N1 1_555 1_555
C11 N1 1_555 1_555
H10 C11 1_555 1_555
H11 C11 1_555 1_555
C12 N2 1_555 1_555
H12 C12 1_555 1_555
H13 C12 1_555 1_555
C13 H14 1_555 1_555
H15 C13 1_555 1_555
H16 C13 1_555 1_555
C14 N3 1_555 1_555
C15 N4 1_555 1_555
H17 C15 1_555 1_555
H18 C15 1_555 1_555
C16 N3 1_555 1_555
H19 C16 1_555 1_555
H20 C16 1_555 1_555
Zn1_2 O3 1_555 1_555
O3_2 Zn1 1_555 1_555
N2 C10 1_555 1_555
N4 C14 1_555 1_555
C6 C7 1_555 1_555
C9 C10 1_555 1_555
C11 C12 1_555 1_555
C13 C14 1_555 1_555
C15 C16 1_555 1_555

#END
