
#######################################################################
#
#                 Cambridge Crystallographic Data Centre
#                                CCDC 
#
#######################################################################
#
# If this CIF has been generated from an entry in the Cambridge 
# Structural Database, then it will include bibliographic, chemical, 
# crystal, experimental, refinement or atomic coordinate data resulting 
# from the CCDC's data processing and validation procedures.
#
#######################################################################

data_SAZWUM
_symmetry_cell_setting           triclinic
_symmetry_space_group_name_H-M   'P -1'
_symmetry_Int_Tables_number      2
_space_group_name_Hall           '-P 1'
loop_
_symmetry_equiv_pos_site_id
_symmetry_equiv_pos_as_xyz
1 x,y,z
2 -x,-y,-z
_cell_length_a                   10.3823(11)
_cell_length_b                   12.2166(13)
_cell_length_c                   13.2189(15)
_cell_angle_alpha                65.324(2)
_cell_angle_beta                 86.737(2)
_cell_angle_gamma                76.276(2)
_cell_volume                     1478.35
loop_
_atom_site_label
_atom_site_type_symbol
_atom_site_fract_x
_atom_site_fract_y
_atom_site_fract_z
Cu1 Cu 0.28017(9) 0.86770(8) 0.75689(8)
Cu2 Cu 0.73452(9) 0.77302(8) 0.67730(9)
Cu3 Cu 0.05007(10) 0.83325(8) 0.88345(9)
Cu4 Cu 0.33702(9) 1.05010(8) 0.93873(8)
Cl1 Cl 0.9457(2) 0.7302(2) 0.7253(2)
Cl2 Cl 0.7272(2) 0.61177(19) 0.6434(2)
Cl3 Cl 0.54308(19) 1.01059(18) 0.87364(16)
Cl4 Cl 0.2983(2) 0.86397(17) 0.96092(18)
O1 O 0.2003(5) 0.7316(4) 0.8440(4)
O2 O 0.3714(5) 0.9936(4) 0.6640(4)
O3 O 0.0963(5) 0.9605(4) 0.7485(4)
O4 O 0.0000(5) 0.7202(4) 1.0267(4)
N1 N 0.4484(6) 0.7594(5) 0.7587(5)
N2 N 0.5442(6) 0.8247(5) 0.7035(5)
N3 N 0.7110(6) 0.9583(5) 0.6076(5)
N4 N -0.1000(6) 0.9467(5) 0.9043(5)
N5 N -0.1666(6) 0.8902(5) 1.0010(5)
N6 N -0.2823(6) 0.7724(5) 1.1766(5)
C1 C 0.2602(7) 0.6102(7) 0.8911(6)
C2 C 0.1904(8) 0.5266(6) 0.9644(7)
H1 H 0.1040 0.5551 0.9808
C3 C 0.2493(9) 0.4029(7) 1.0118(7)
H2 H 0.2026 0.3486 1.0621
C4 C 0.3759(8) 0.3555(6) 0.9876(7)
H3 H 0.4127 0.2705 1.0184
C5 C 0.4455(8) 0.4364(7) 0.9175(7)
H4 H 0.5310 0.4057 0.9010
C6 C 0.3913(7) 0.5651(6) 0.8693(6)
C7 C 0.4799(7) 0.6422(6) 0.8057(6)
H5 H 0.5661 0.6026 0.7990
C8 C 0.4928(7) 0.9441(7) 0.6598(6)
C9 C 0.5865(8) 1.0225(6) 0.6026(6)
C10 C 0.5475(8) 1.1481(7) 0.5460(6)
H6 H 0.4592 1.1896 0.5425
C11 C 0.6440(9) 1.2120(7) 0.4937(7)
H7 H 0.6216 1.2979 0.4555
C12 C 0.7711(9) 1.1474(8) 0.4991(7)
H8 H 0.8364 1.1884 0.4629
C13 C 0.8026(8) 1.0214(7) 0.5583(7)
H9 H 0.8907 0.9783 0.5644
C14 C 0.0388(7) 1.0811(6) 0.7057(6)
C15 C 0.0919(8) 1.1628(6) 0.6134(6)
H10 H 0.1676 1.1322 0.5833
C16 C 0.0341(8) 1.2873(7) 0.5665(7)
H11 H 0.0719 1.3389 0.5051
C17 C -0.0775(9) 1.3386(7) 0.6068(7)
H12 H -0.1150 1.4233 0.5739
C18 C -0.1323(8) 1.2605(7) 0.6977(7)
H13 H -0.2086 1.2931 0.7259
C19 C -0.0751(7) 1.1322(6) 0.7488(6)
C20 C -0.1408(7) 1.0611(7) 0.8446(7)
H14 H -0.2187 1.1026 0.8637
C21 C -0.1036(7) 0.7747(7) 1.0563(7)
C22 C -0.1672(8) 0.7065(7) 1.1587(6)
C23 C -0.1148(8) 0.5856(7) 1.2261(7)
H15 H -0.0347 0.5430 1.2109
C24 C -0.1842(10) 0.5270(8) 1.3186(8)
H16 H -0.1517 0.4443 1.3665
C25 C -0.2998(10) 0.5933(8) 1.3370(8)
H17 H -0.3476 0.5558 1.3983
C26 C -0.3469(9) 0.7141(8) 1.2668(7)
H18 H -0.4263 0.7579 1.2816
Cu4A Cu 0.66298(9) 0.94990(8) 1.06127(8)
Cu4A_2 Cu -0.33702(9) 0.94990(8) 1.06127(8)
Cl3A Cl 0.45692(19) 0.98941(18) 1.12636(16)
N5A N 0.1666(6) 1.1098(5) 0.9990(5)
N6A N 0.2823(6) 1.2276(5) 0.8234(5)
loop_
_geom_bond_atom_site_label_1
_geom_bond_atom_site_label_2
_geom_bond_site_symmetry_1
_geom_bond_site_symmetry_2
Cu1 Cl4 1_555 1_555
Cu2 Cl1 1_555 1_555
Cu3 O1 1_555 1_555
Cu4 Cl3 1_555 1_555
Cl2 Cu2 1_555 1_555
Cl3 Cu4A 1_555 1_555
Cl4 Cu4 1_555 1_555
O1 Cu1 1_555 1_555
O2 Cu1 1_555 1_555
O3 Cu1 1_555 1_555
O4 Cu3 1_555 1_555
N1 Cu1 1_555 1_555
N2 Cu2 1_555 1_555
N3 Cu2 1_555 1_555
N4 Cu3 1_555 1_555
N5 N4 1_555 1_555
N6 C22 1_555 1_555
C1 O1 1_555 1_555
C2 C1 1_555 1_555
H1 C2 1_555 1_555
C3 C2 1_555 1_555
H2 C3 1_555 1_555
C4 C3 1_555 1_555
H3 C4 1_555 1_555
C5 C4 1_555 1_555
H4 C5 1_555 1_555
C6 C1 1_555 1_555
C7 N1 1_555 1_555
H5 C7 1_555 1_555
C8 O2 1_555 1_555
C9 N3 1_555 1_555
C10 C9 1_555 1_555
H6 C10 1_555 1_555
C11 C10 1_555 1_555
H7 C11 1_555 1_555
C12 C11 1_555 1_555
H8 C12 1_555 1_555
C13 N3 1_555 1_555
H9 C13 1_555 1_555
C14 O3 1_555 1_555
C15 C14 1_555 1_555
H10 C15 1_555 1_555
C16 C15 1_555 1_555
H11 C16 1_555 1_555
C17 C16 1_555 1_555
H12 C17 1_555 1_555
C18 C17 1_555 1_555
H13 C18 1_555 1_555
C19 C14 1_555 1_555
C20 N4 1_555 1_555
H14 C20 1_555 1_555
C21 O4 1_555 1_555
C22 C21 1_555 1_555
C23 C22 1_555 1_555
H15 C23 1_555 1_555
C24 C23 1_555 1_555
H16 C24 1_555 1_555
C25 C24 1_555 1_555
H17 C25 1_555 1_555
C26 N6 1_555 1_555
H18 C26 1_555 1_555
Cu4A Cl3A 1_555 1_555
Cu4A_2 N5 1_555 1_555
Cl3A Cu4 1_555 1_555
N5A Cu4 1_555 1_555
N6A Cu4 1_555 1_555
Cu3 O3 1_555 1_555
N1 N2 1_555 1_555
N2 C8 1_555 1_555
N5 C21 1_555 1_555
N6 Cu4A_2 1_555 1_555
C5 C6 1_555 1_555
C6 C7 1_555 1_555
C8 C9 1_555 1_555
C12 C13 1_555 1_555
C18 C19 1_555 1_555
C19 C20 1_555 1_555
C25 C26 1_555 1_555

#END
