
#######################################################################
#
#                 Cambridge Crystallographic Data Centre
#                                CCDC 
#
#######################################################################
#
# If this CIF has been generated from an entry in the Cambridge 
# Structural Database, then it will include bibliographic, chemical, 
# crystal, experimental, refinement or atomic coordinate data resulting 
# from the CCDC's data processing and validation procedures.
#
#######################################################################

data_SBHGAF
_symmetry_cell_setting           tetragonal
_symmetry_space_group_name_H-M   'P 41'
_symmetry_Int_Tables_number      76
_space_group_name_Hall           'P 4w'
loop_
_symmetry_equiv_pos_site_id
_symmetry_equiv_pos_as_xyz
1 x,y,z
2 -y,x,1/4+z
3 -x,-y,1/2+z
4 y,-x,3/4+z
_cell_length_a                   12.953(4)
_cell_length_b                   12.953(4)
_cell_length_c                   12.727(4)
_cell_angle_alpha                90
_cell_angle_beta                 90
_cell_angle_gamma                90
_cell_volume                     2135.34
loop_
_atom_site_label
_atom_site_type_symbol
_atom_site_fract_x
_atom_site_fract_y
_atom_site_fract_z
Hg1 Hg 0.02171 0.08958 1.00000
Br1 Br 0.11600 0.06820 1.18850
S1 S 0.09500 0.15280 0.83410
O1 O -0.01060 0.44260 1.14970
O2 O 0.34350 0.28930 0.39550
C1 C 0.11620 0.50190 0.90630
C2 C 0.08630 0.53310 1.01790
C3 C 0.05530 0.44070 1.08130
C4 C 0.11270 0.34530 1.06080
C5 C 0.18040 0.33390 0.98190
C6 C 0.24060 0.23700 0.97070
C7 C 0.23190 0.19110 0.86100
C8 C 0.26710 0.27140 0.78000
C9 C 0.20320 0.37210 0.78880
C10 C 0.20190 0.41980 0.90130
C11 C 0.23450 0.45220 0.70580
C12 C 0.23030 0.40870 0.59260
C13 C 0.29850 0.31310 0.58390
C14 C 0.26470 0.23350 0.66590
C15 C 0.32800 0.13700 0.63890
C16 C 0.33770 0.14230 0.51720
C17 C 0.28800 0.24540 0.48300
C18 C 0.41260 0.34500 0.59600
C19 C 0.30670 0.46920 0.93140
C20 C 0.17740 0.23490 0.44290
C21 C 0.16860 0.31520 0.35640
C22 C 0.27700 0.30830 0.30900
H1 H 0.13800 0.56400 0.87500
H2 H 0.05000 0.47800 0.87900
H3 H 0.15000 0.57200 1.06600
H4 H 0.03000 0.56900 1.02900
H5 H 0.10300 0.28900 1.09800
H6 H 0.29800 0.25100 0.98000
H7 H 0.22700 0.19300 1.02400
H8 H 0.27400 0.12700 0.86100
H9 H 0.32800 0.27800 0.80300
H10 H 0.13300 0.34700 0.76300
H11 H 0.18200 0.50800 0.71100
H12 H 0.29600 0.47300 0.72900
H13 H 0.17000 0.39100 0.58500
H14 H 0.24300 0.45600 0.54400
H15 H 0.18900 0.21900 0.66100
H16 H 0.39600 0.12000 0.66900
H17 H 0.29900 0.07500 0.65500
H18 H 0.40100 0.14700 0.50500
H19 H 0.30700 0.08100 0.48300
H20 H 0.42300 0.38000 0.53300
H21 H 0.42000 0.38000 0.67600
H22 H 0.46100 0.29500 0.58800
H23 H 0.35400 0.42900 0.92100
H24 H 0.31300 0.49400 1.01600
H25 H 0.31600 0.52300 0.90100
H26 H 0.15500 0.17400 0.39900
H27 H 0.12800 0.24200 0.49100
H28 H 0.10900 0.30400 0.31800
H29 H 0.15200 0.38100 0.38300
H30 H 0.27800 0.25700 0.26900
H31 H 0.29100 0.36600 0.27600
Br1C Br 0.06820 -0.11600 0.93850
S1A S -0.15280 0.09500 1.08410
Hg1A Hg -0.08958 0.02171 1.25000
Hg1C Hg 0.08958 -0.02171 0.75000
loop_
_geom_bond_atom_site_label_1
_geom_bond_atom_site_label_2
_geom_bond_site_symmetry_1
_geom_bond_site_symmetry_2
Hg1 Br1 1_555 1_555
Br1 Hg1A 1_555 1_555
S1 Hg1 1_555 1_555
O1 C3 1_555 1_555
O2 C17 1_555 1_555
C1 C2 1_555 1_555
C2 C3 1_555 1_555
C3 C4 1_555 1_555
C4 C5 1_555 1_555
C5 C6 1_555 1_555
C6 C7 1_555 1_555
C7 S1 1_555 1_555
C8 C7 1_555 1_555
C9 C8 1_555 1_555
C10 C1 1_555 1_555
C11 C9 1_555 1_555
C12 C11 1_555 1_555
C13 C12 1_555 1_555
C14 C8 1_555 1_555
C15 C14 1_555 1_555
C16 C15 1_555 1_555
C17 C13 1_555 1_555
C18 C13 1_555 1_555
C19 C10 1_555 1_555
C20 C17 1_555 1_555
C21 C20 1_555 1_555
C22 O2 1_555 1_555
H1 C1 1_555 1_555
H2 C1 1_555 1_555
H3 C2 1_555 1_555
H4 C2 1_555 1_555
H5 C4 1_555 1_555
H6 C6 1_555 1_555
H7 C6 1_555 1_555
H8 C7 1_555 1_555
H9 C8 1_555 1_555
H10 C9 1_555 1_555
H11 C11 1_555 1_555
H12 C11 1_555 1_555
H13 C12 1_555 1_555
H14 C12 1_555 1_555
H15 C14 1_555 1_555
H16 C15 1_555 1_555
H17 C15 1_555 1_555
H18 C16 1_555 1_555
H19 C16 1_555 1_555
H20 C18 1_555 1_555
H21 C18 1_555 1_555
H22 C18 1_555 1_555
H23 C19 1_555 1_555
H24 C19 1_555 1_555
H25 C19 1_555 1_555
H26 C20 1_555 1_555
H27 C20 1_555 1_555
H28 C21 1_555 1_555
H29 C21 1_555 1_555
H30 C22 1_555 1_555
H31 C22 1_555 1_555
Br1C Hg1 1_555 1_555
S1A Hg1 1_555 1_555
Hg1A S1A 1_555 1_555
Hg1C S1 1_555 1_555
C5 C10 1_555 1_555
C9 C10 1_555 1_555
C13 C14 1_555 1_555
C16 C17 1_555 1_555
C21 C22 1_555 1_555
Br1C Hg1C 1_555 1_555

#END
