
#######################################################################
#
#                 Cambridge Crystallographic Data Centre
#                                CCDC 
#
#######################################################################
#
# If this CIF has been generated from an entry in the Cambridge 
# Structural Database, then it will include bibliographic, chemical, 
# crystal, experimental, refinement or atomic coordinate data resulting 
# from the CCDC's data processing and validation procedures.
#
#######################################################################

data_SEBMUH
_symmetry_cell_setting           orthorhombic
_symmetry_space_group_name_H-M   'P 21 21 2'
_symmetry_Int_Tables_number      18
_space_group_name_Hall           'P 2 2ab'
loop_
_symmetry_equiv_pos_site_id
_symmetry_equiv_pos_as_xyz
1 x,y,z
2 1/2+x,1/2-y,-z
3 1/2-x,1/2+y,-z
4 -x,-y,z
_cell_length_a                   6.934(1)
_cell_length_b                   24.626(2)
_cell_length_c                   5.008(1)
_cell_angle_alpha                90
_cell_angle_beta                 90
_cell_angle_gamma                90
_cell_volume                     855.149
loop_
_atom_site_label
_atom_site_type_symbol
_atom_site_fract_x
_atom_site_fract_y
_atom_site_fract_z
K1 K 0.24584(7) 0.53956(2) 0.1724(1)
C1 C 0.8363(3) 0.73865(8) 0.0430(4)
O1 O 0.8164(3) 0.77621(6) 0.2013(3)
O2 O 0.8047(2) 0.74028(6) -0.2029(3)
C2 C 0.8938(3) 0.68315(7) 0.1573(4)
N1 N 1.0192(2) 0.69136(6) 0.3950(3)
C3 C 0.7107(3) 0.65272(8) 0.2356(4)
C4 C 0.7390(3) 0.59573(7) 0.3438(4)
O3 O 0.5880(2) 0.57104(6) 0.4126(4)
O4 O 0.9055(2) 0.57648(6) 0.3594(4)
O5 O 0.50000 0.50000 -0.1834(5)
O6 O 0.00000 0.50000 -0.2279(5)
O7 O 0.2851(3) 0.61730(6) -0.2469(4)
H1 H 0.9630 0.6613 0.0225
H2 H 1.0631 0.6594 0.4623
H3 H 1.1122 0.7137 0.3509
H4 H 0.9491 0.7141 0.5216
H5 H 0.6356 0.6760 0.3648
H6 H 0.6277 0.6461 0.0830
H7 H 0.4372 0.4776 -0.3217
H8 H 0.0269 0.4640 -0.3023
H9 H 0.2967 0.6598 -0.2142
H10 H 0.3824 0.6062 -0.3837
H7C H 0.5628 0.5224 -0.3217
H8C H -0.0269 0.5360 -0.3023
C1C C 0.1637(3) 0.26135(8) 0.0430(4)
O1C O 0.1836(3) 0.22379(6) 0.2013(3)
O2C O 0.1953(2) 0.25972(6) -0.2029(3)
C2C C 0.1062(3) 0.31685(7) 0.1573(4)
N1C N -0.0192(2) 0.30864(6) 0.3950(3)
C3C C 0.2893(3) 0.34728(8) 0.2356(4)
C4C C 0.2610(3) 0.40427(7) 0.3438(4)
O3C O 0.4120(2) 0.42896(6) 0.4126(4)
O4C O 0.0945(2) 0.42352(6) 0.3594(4)
H1C H 0.0370 0.3387 0.0225
H2C H -0.0631 0.3406 0.4623
H3C H -0.1122 0.2863 0.3509
H4C H 0.0509 0.2859 0.5216
H5C H 0.3644 0.3240 0.3648
H6C H 0.3723 0.3539 0.0830
K1C K 0.75416(7) 0.46044(2) 0.1724(1)
O7C O 0.7149(3) 0.38270(6) -0.2469(4)
H9C H 0.7033 0.3402 -0.2142
H10C H 0.6176 0.3938 -0.3837
K1C_2 K -0.24584(7) 0.46044(2) 0.1724(1)
O4_2 O -0.0945(2) 0.57648(6) 0.3594(4)
K1_2 K 1.24584(7) 0.53956(2) 0.1724(1)
O4C_2 O 1.0945(2) 0.42352(6) 0.3594(4)
O6_2 O 1.00000 0.50000 -0.2279(5)
H8_2 H 1.0269 0.4640 -0.3023
H8C_2 H 0.9731 0.5360 -0.3023
loop_
_geom_bond_atom_site_label_1
_geom_bond_atom_site_label_2
_geom_bond_site_symmetry_1
_geom_bond_site_symmetry_2
K1 O3 1_555 1_555
C1 O1 1_555 1_555
O2 C1 1_555 1_555
C2 C1 1_555 1_555
N1 C2 1_555 1_555
C3 C2 1_555 1_555
C4 C3 1_555 1_555
O3 C4 1_555 1_555
O4 C4 1_555 1_555
O5 K1 1_555 1_555
O6 K1 1_555 1_555
O7 K1 1_555 1_555
H1 C2 1_555 1_555
H2 N1 1_555 1_555
H3 N1 1_555 1_555
H4 N1 1_555 1_555
H5 C3 1_555 1_555
H6 C3 1_555 1_555
H7 O5 1_555 1_555
H8 O6 1_555 1_555
H9 O7 1_555 1_555
H10 O7 1_555 1_555
H7C O5 1_555 1_555
H8C O6 1_555 1_555
C1C O1C 1_555 1_555
O2C C1C 1_555 1_555
C2C C1C 1_555 1_555
N1C C2C 1_555 1_555
C3C C2C 1_555 1_555
C4C C3C 1_555 1_555
O3C K1 1_555 1_555
O4C K1 1_555 1_555
H1C C2C 1_555 1_555
H2C N1C 1_555 1_555
H3C N1C 1_555 1_555
H4C N1C 1_555 1_555
H5C C3C 1_555 1_555
H6C C3C 1_555 1_555
K1C O3 1_555 1_555
O7C K1C 1_555 1_555
H9C O7C 1_555 1_555
H10C O7C 1_555 1_555
K1C_2 O6 1_555 1_555
O4_2 K1 1_555 1_555
K1_2 O4 1_555 1_555
O4C_2 K1C 1_555 1_555
O6_2 K1C 1_555 1_555
H8_2 O6_2 1_555 1_555
H8C_2 O6_2 1_555 1_555
O4 K1C 1_555 1_555
O5 K1C 1_555 1_555
C4C O3C 1_555 1_555
C4C O4C 1_555 1_555
O3C K1C 1_555 1_555
O4C K1C_2 1_555 1_555
K1C_2 O4_2 1_555 1_555
K1_2 O4C_2 1_555 1_555
K1_2 O6_2 1_555 1_555

#END
