
#######################################################################
#
#                 Cambridge Crystallographic Data Centre
#                                CCDC 
#
#######################################################################
#
# If this CIF has been generated from an entry in the Cambridge 
# Structural Database, then it will include bibliographic, chemical, 
# crystal, experimental, refinement or atomic coordinate data resulting 
# from the CCDC's data processing and validation procedures.
#
#######################################################################

data_SEBMER01
_symmetry_cell_setting           orthorhombic
_symmetry_space_group_name_H-M   'P 21 21 21'
_symmetry_Int_Tables_number      19
_space_group_name_Hall           'P 2ac 2ab'
loop_
_symmetry_equiv_pos_site_id
_symmetry_equiv_pos_as_xyz
1 x,y,z
2 1/2-x,-y,1/2+z
3 -x,1/2+y,1/2-z
4 1/2+x,1/2-y,-z
_cell_length_a                   7.3244(4)
_cell_length_b                   8.7417(5)
_cell_length_c                   20.0952(12)
_cell_angle_alpha                90
_cell_angle_beta                 90
_cell_angle_gamma                90
_cell_volume                     1286.65
loop_
_atom_site_label
_atom_site_type_symbol
_atom_site_fract_x
_atom_site_fract_y
_atom_site_fract_z
Sr1 Sr 0.59172(4) 0.29952(3) 0.942985(12)
O1 O 0.7410(3) 0.1447(2) 1.04626(9)
O2 O 0.4388(3) 0.1327(2) 1.03924(9)
O3 O 0.5981(3) -0.5032(2) 1.04399(8)
O4 O 0.5819(3) -0.39746(19) 0.94409(9)
O5 O 0.6344(3) 0.3971(3) 0.82041(10)
O6 O 0.3875(3) 0.0953(2) 0.87571(10)
O7 O 0.7930(3) 0.0837(2) 0.88795(10)
N1 N 0.7484(3) -0.0371(3) 1.16126(12)
C1 C 0.5884(5) 0.0934(3) 1.06514(12)
C2 C 0.5814(4) -0.0261(3) 1.12097(12)
C3 C 0.5328(4) -0.1824(3) 1.09245(12)
C4 C 0.6588(4) -0.2339(3) 1.03601(14)
C5 C 0.6087(4) -0.3870(3) 1.00622(13)
H1 H 0.4821 0.0035 1.1510
H2 H 0.779(4) 0.052(2) 1.1790(13)
H3 H 0.840(3) -0.069(3) 1.1351(12)
H4 H 0.4083 -0.1793 1.0760
H5 H 0.5377 -0.2576 1.1279
H6 H 0.6563 -0.1572 1.0011
H7 H 0.7828 -0.2394 1.0528
H8 H 0.706(4) 0.346(3) 0.7962(14)
H9 H 0.654(5) 0.482(2) 0.8057(16)
H10 H 0.422(5) 0.011(2) 0.8672(14)
H11 H 0.308(4) 0.079(4) 0.9006(13)
H12 H 0.883(3) 0.057(3) 0.9087(13)
H13 H 0.742(4) 0.001(3) 0.8795(15)
Sr1C Sr 1.09172(4) 0.20048(3) 1.057015(12)
Sr1C_2 Sr 0.09172(4) 0.20048(3) 1.057015(12)
Sr1_2 Sr 0.59172(4) -0.70048(3) 0.942985(12)
O1C O 0.2410(3) 0.3553(2) 0.95374(9)
O2C O 0.9388(3) 0.3673(2) 0.96076(9)
O3_2 O 0.5981(3) 0.4968(2) 1.04399(8)
O4_2 O 0.5819(3) 0.60254(19) 0.94409(9)
O8 O 0.5885(4) -0.1647(2) 0.85517(9)
H14 H 0.625(4) -0.203(4) 0.8225(11)
H15 H 0.581(5) -0.233(3) 0.8820(12)
O9 O 0.8906(3) 0.2018(3) 0.76530(9)
H16 H 0.869(5) 0.151(3) 0.7971(12)
H17 H 0.845(4) 0.152(3) 0.7356(12)
O10 O 0.2660(3) 0.1808(3) 0.74915(10)
H18 H 0.157(3) 0.196(5) 0.7539(15)
H19 H 0.301(5) 0.155(4) 0.7851(11)
loop_
_geom_bond_atom_site_label_1
_geom_bond_atom_site_label_2
_geom_bond_site_symmetry_1
_geom_bond_site_symmetry_2
Sr1 O1 1_555 1_555
O1 C1 1_555 1_555
O2 Sr1 1_555 1_555
O3 C5 1_555 1_555
O4 C5 1_555 1_555
O5 Sr1 1_555 1_555
O6 Sr1 1_555 1_555
O7 Sr1 1_555 1_555
O8 H14 1_555 1_555
O9 H16 1_555 1_555
O10 H18 1_555 1_555
N1 C2 1_555 1_555
C1 O2 1_555 1_555
C2 C1 1_555 1_555
C3 C2 1_555 1_555
C4 C3 1_555 1_555
C5 C4 1_555 1_555
H1 C2 1_555 1_555
H2 N1 1_555 1_555
H3 N1 1_555 1_555
H4 C3 1_555 1_555
H5 C3 1_555 1_555
H6 C4 1_555 1_555
H7 C4 1_555 1_555
H8 O5 1_555 1_555
H9 O5 1_555 1_555
H10 O6 1_555 1_555
H11 O6 1_555 1_555
H12 O7 1_555 1_555
H13 O7 1_555 1_555
H15 O8 1_555 1_555
H17 O9 1_555 1_555
H19 O10 1_555 1_555
Sr1C O1 1_555 1_555
Sr1C_2 O2 1_555 1_555
Sr1_2 O3 1_555 1_555
O1C Sr1 1_555 1_555
O2C Sr1 1_555 1_555
O3_2 Sr1 1_555 1_555
O4_2 Sr1 1_555 1_555
O4 Sr1_2 1_555 1_555
Sr1C O2C 1_555 1_555
Sr1C_2 O1C 1_555 1_555

#END
