
#######################################################################
#
#                 Cambridge Crystallographic Data Centre
#                                CCDC 
#
#######################################################################
#
# If this CIF has been generated from an entry in the Cambridge 
# Structural Database, then it will include bibliographic, chemical, 
# crystal, experimental, refinement or atomic coordinate data resulting 
# from the CCDC's data processing and validation procedures.
#
#######################################################################

data_SEBTOJ
_symmetry_cell_setting           monoclinic
_symmetry_space_group_name_H-M   'P 21'
_symmetry_Int_Tables_number      4
_space_group_name_Hall           'P 2yb'
loop_
_symmetry_equiv_pos_site_id
_symmetry_equiv_pos_as_xyz
1 x,y,z
2 -x,1/2+y,-z
_cell_length_a                   5.4376(15)
_cell_length_b                   18.426(5)
_cell_length_c                   5.5827(16)
_cell_angle_alpha                90
_cell_angle_beta                 104.483(4)
_cell_angle_gamma                90
_cell_volume                     541.574
loop_
_atom_site_label
_atom_site_type_symbol
_atom_site_fract_x
_atom_site_fract_y
_atom_site_fract_z
Cd1 Cd 0.69614(4) -0.165307(15) 0.26168(4)
S1 S 1.29475(15) -0.12997(5) 0.67975(17)
O1 O 1.0965(5) -0.17550(19) 0.5155(4)
O2 O 1.2222(6) -0.05448(18) 0.6770(6)
O3 O 1.3394(4) -0.1616(3) 0.9328(4)
O4 O 1.5369(5) -0.13774(16) 0.6024(5)
O5 O 0.8815(6) -0.21333(18) -0.0256(5)
H1 H 0.7806 -0.1952 -0.1641
H2 H 1.0108 -0.2407 -0.0061
N1 N 0.7378(6) -0.0406(2) 0.2048(6)
N2 N 0.5067(6) 0.12361(19) 0.4523(6)
N3 N 0.2340(8) 0.1596(2) 0.6599(8)
N4 N 0.3886(7) 0.2175(2) 0.6352(7)
C1 C 0.8598(8) -0.0117(3) 0.0505(8)
H3 H 0.9390 -0.0426 -0.0389
C2 C 0.8745(9) 0.0619(3) 0.0168(8)
H4 H 0.9646 0.0799 -0.0917
C3 C 0.7549(8) 0.1097(3) 0.1446(8)
H5 H 0.7570 0.1596 0.1204
C4 C 0.6319(8) 0.0787(2) 0.3108(8)
C5 C 0.6262(8) 0.0049(3) 0.3367(8)
H6 H 0.5430 -0.0147 0.4485
C6 C 0.3083(8) 0.1049(3) 0.5516(9)
H7 H 0.2368 0.0588 0.5420
C7 C 0.5486(8) 0.1940(2) 0.5129(9)
H8 H 0.6746 0.2222 0.4731
Cd1_2 Cd 1.69614(4) -0.165307(15) 1.26168(4)
Cd1_3 Cd 1.69614(4) -0.165307(15) 0.26168(4)
Cd1A Cd 0.30386(4) 0.334693(15) 0.73832(4)
O3_2 O 0.3394(4) -0.1616(3) -0.0672(4)
O4_2 O 0.5369(5) -0.13774(16) 0.6024(5)
N4A N 0.6114(7) -0.2825(2) 0.3648(7)
loop_
_geom_bond_atom_site_label_1
_geom_bond_atom_site_label_2
_geom_bond_site_symmetry_1
_geom_bond_site_symmetry_2
Cd1 O1 1_555 1_555
S1 O1 1_555 1_555
O2 S1 1_555 1_555
O3 S1 1_555 1_555
O4 S1 1_555 1_555
O5 Cd1 1_555 1_555
H1 O5 1_555 1_555
H2 O5 1_555 1_555
N1 Cd1 1_555 1_555
N2 C4 1_555 1_555
N3 N4 1_555 1_555
N4 C7 1_555 1_555
C1 N1 1_555 1_555
H3 C1 1_555 1_555
C2 C1 1_555 1_555
H4 C2 1_555 1_555
C3 C2 1_555 1_555
H5 C3 1_555 1_555
C4 C3 1_555 1_555
C5 N1 1_555 1_555
H6 C5 1_555 1_555
C6 N2 1_555 1_555
H7 C6 1_555 1_555
C7 N2 1_555 1_555
H8 C7 1_555 1_555
Cd1_2 O3 1_555 1_555
Cd1_3 O4 1_555 1_555
Cd1A N4 1_555 1_555
O3_2 Cd1 1_555 1_555
O4_2 Cd1 1_555 1_555
N4A Cd1 1_555 1_555
N3 C6 1_555 1_555
C4 C5 1_555 1_555

#END
