
#######################################################################
#
#                 Cambridge Crystallographic Data Centre
#                                CCDC 
#
#######################################################################
#
# If this CIF has been generated from an entry in the Cambridge 
# Structural Database, then it will include bibliographic, chemical, 
# crystal, experimental, refinement or atomic coordinate data resulting 
# from the CCDC's data processing and validation procedures.
#
#######################################################################

data_SEDHAK
_symmetry_cell_setting           triclinic
_symmetry_space_group_name_H-M   'P -1'
_symmetry_Int_Tables_number      2
_space_group_name_Hall           '-P 1'
loop_
_symmetry_equiv_pos_site_id
_symmetry_equiv_pos_as_xyz
1 x,y,z
2 -x,-y,-z
_cell_length_a                   14.443(7)
_cell_length_b                   16.201(12)
_cell_length_c                   16.586(14)
_cell_angle_alpha                68.27(6)
_cell_angle_beta                 80.84(6)
_cell_angle_gamma                75.73(5)
_cell_volume                     3483.99
loop_
_atom_site_label
_atom_site_type_symbol
_atom_site_fract_x
_atom_site_fract_y
_atom_site_fract_z
Ag1 Ag 0.0378(2) 0.4706(2) -0.0880(2)
Ag2 Ag -0.2864(2) 0.6408(2) -0.0259(2)
Ag3 Ag -0.4588(2) 0.3943(2) -0.0026(2)
Ag4 Ag -0.2254(2) 0.5086(2) -0.1195(2)
S1 S 0.1737(7) 0.3497(5) -0.0572(5)
S2 S -0.4162(7) 0.6455(6) -0.1008(5)
S3 S -0.3392(7) 0.4226(6) -0.1164(6)
S4 S -0.0978(7) 0.5834(6) -0.1381(5)
C1 C -0.2310(21) 0.6364(17) 0.1633(17)
C2 C -0.2642(22) 0.5543(17) 0.2191(17)
C3 C -0.3070(24) 0.5482(20) 0.2998(19)
C4 C -0.3061(23) 0.6156(19) 0.3302(18)
C5 C -0.2829(22) 0.6995(19) 0.2782(18)
C6 C -0.2414(23) 0.7080(18) 0.1930(19)
C7 C -0.4463(23) 0.7629(20) -0.1702(20)
C8 C -0.4394(25) 0.7746(21) -0.2594(21)
C9 C -0.4591(28) 0.8661(24) -0.3212(25)
C10 C -0.4863(1) 0.9346(1) -0.2879(2)
C11 C -0.4932(24) 0.9230(21) -0.1983(20)
C12 C -0.4787(24) 0.8347(22) -0.1383(20)
C13 C -0.2706(25) 0.3125(21) -0.1144(22)
C14 C -0.2155(24) 0.2566(21) -0.0463(19)
C15 C -0.1614(23) 0.1677(20) -0.0419(19)
C16 C -0.1702(23) 0.1425(18) -0.1087(18)
C17 C -0.2294(23) 0.1914(20) -0.1769(20)
C18 C -0.2812(23) 0.2820(19) -0.1777(18)
C19 C -0.0769(22) 0.6356(18) -0.2565(18)
C20 C -0.0615(23) 0.5887(20) -0.3128(19)
C21 C -0.0502(22) 0.6327(19) -0.4015(18)
C22 C -0.0564(25) 0.7252(20) -0.4372(19)
C23 C -0.0766(25) 0.7755(23) -0.3795(21)
C24 C -0.0855(23) 0.7295(19) -0.2869(18)
C25 C -0.2513(23) 0.4808(20) 0.1834(20)
C26 C -0.2041(24) 0.3918(20) 0.2461(20)
C27 C -0.3494(24) 0.4701(22) 0.1739(22)
C28 C -0.3440(15) 0.6150(19) 0.4226(3)
C29 C -0.2776(27) 0.5439(24) 0.4911(23)
C30 C -0.4497(23) 0.6086(33) 0.4500(32)
C31 C -0.2080(29) 0.7982(22) 0.1412(23)
C32 C -0.1044(29) 0.7875(24) 0.1486(23)
C33 C -0.2663(26) 0.8806(23) 0.1588(22)
C34 C -0.4132(29) 0.6930(26) -0.2950(25)
C35 C -0.3287(33) 0.7109(29) -0.3545(28)
C36 C -0.4943(37) 0.6874(34) -0.3336(33)
C37 C -0.5095(20) 1.0349(13) -0.3275(14)
C38 C -0.5827(27) 1.0623(24) -0.3908(28)
C39 C -0.4217(30) 1.0680(25) -0.3729(32)
C40 C -0.4814(23) 0.8238(21) -0.0446(19)
C41 C -0.5790(24) 0.8717(21) -0.0189(20)
C42 C -0.4064(25) 0.8584(22) -0.0235(22)
C43 C -0.1977(29) 0.2834(24) 0.0305(21)
C44 C -0.0974(27) 0.2906(22) 0.0349(22)
C45 C -0.2360(28) 0.2163(24) 0.1172(23)
C46 C -0.1158(1) 0.0449(5) -0.0977(22)
C47 C -0.1782(24) -0.0247(21) -0.0831(22)
C48 C -0.0397(26) 0.0503(25) -0.1749(19)
C49 C -0.3530(29) 0.3372(26) -0.2473(23)
C50 C -0.3148(27) 0.3249(23) -0.3325(22)
C51 C -0.4476(27) 0.3110(24) -0.2167(23)
C52 C -0.0474(22) 0.4853(20) -0.2828(20)
C53 C 0.0479(23) 0.4458(20) -0.3239(19)
C54 C -0.1202(24) 0.4587(21) -0.3085(20)
C55 C -0.0492(33) 0.7773(30) -0.5397(27)
C56 C -0.1398(36) 0.8000(35) -0.5703(33)
C57 C 0.0411(37) 0.7325(33) -0.5768(33)
C58 C -0.1136(27) 0.7874(22) -0.2241(22)
C59 C -0.0344(29) 0.8470(25) -0.2483(25)
C60 C -0.2069(32) 0.8418(29) -0.2376(27)
H1 H -0.3365 0.4980 0.3345
H2 H -0.2948 0.7492 0.2994
H3 H -0.4533 0.8780 -0.3827
H4 H -0.5079 0.9744 -0.1794
H5 H -0.1220 0.1293 0.0049
H6 H -0.2354 0.1681 -0.2208
H7 H -0.0371 0.5982 -0.4397
H8 H -0.0848 0.8404 -0.4030
H9 H -0.2133 0.4969 0.1291
H10 H -0.1971 0.3446 0.2225
H11 H -0.1422 0.3959 0.2567
H12 H -0.2436 0.3783 0.2998
H13 H -0.3421 0.4224 0.1508
H14 H -0.3839 0.4541 0.2302
H15 H -0.3843 0.5255 0.1355
H16 H -0.3437 0.6748 0.4211
H17 H -0.2131 0.5522 0.4725
H18 H -0.2959 0.5526 0.5460
H19 H -0.2815 0.4835 0.4971
H20 H -0.4879 0.6534 0.4050
H21 H -0.4596 0.5495 0.4582
H22 H -0.4680 0.6210 0.5032
H23 H -0.2175 0.8105 0.0815
H24 H -0.0837 0.8432 0.1151
H25 H -0.0939 0.7716 0.2087
H26 H -0.0685 0.7401 0.1277
H27 H -0.2392 0.9320 0.1231
H28 H -0.3306 0.8897 0.1440
H29 H -0.2672 0.8737 0.2190
H30 H -0.4024 0.6337 -0.2511
H31 H -0.3061 0.6628 -0.3777
H32 H -0.3417 0.7679 -0.4014
H33 H -0.2807 0.7119 -0.3211
H34 H -0.4751 0.6369 -0.3538
H35 H -0.5471 0.6779 -0.2904
H36 H -0.5135 0.7420 -0.3817
H37 H -0.5333 1.0605 -0.2827
H38 H -0.5904 1.1263 -0.4225
H39 H -0.5629 1.0297 -0.4306
H40 H -0.6426 1.0492 -0.3601
H41 H -0.4377 1.1321 -0.4045
H42 H -0.3770 1.0565 -0.3311
H43 H -0.3934 1.0367 -0.4128
H44 H -0.4683 0.7597 -0.0126
H45 H -0.5817 0.8670 0.0408
H46 H -0.5904 0.9346 -0.0553
H47 H -0.6271 0.8437 -0.0259
H48 H -0.4139 0.8494 0.0376
H49 H -0.3444 0.8263 -0.0374
H50 H -0.4125 0.9220 -0.0564
H51 H -0.2322 0.3448 0.0198
H52 H -0.0956 0.3107 0.0823
H53 H -0.0555 0.2324 0.0442
H54 H -0.0770 0.3336 -0.0187
H55 H -0.2278 0.2330 0.1651
H56 H -0.3027 0.2192 0.1149
H57 H -0.2008 0.1557 0.1250
H58 H -0.0861 0.0205 -0.0436
H59 H -0.2216 -0.0275 -0.0323
H60 H -0.2140 -0.0063 -0.1331
H61 H -0.1379 -0.0835 -0.0754
H62 H -0.0045 -0.0096 -0.1705
H63 H -0.0714 0.0775 -0.2280
H64 H 0.0035 0.0867 -0.1746
H65 H -0.3600 0.4006 -0.2574
H66 H -0.2568 0.3475 -0.3532
H67 H -0.3021 0.2615 -0.3248
H68 H -0.3619 0.3575 -0.3742
H69 H -0.4930 0.3481 -0.2588
H70 H -0.4423 0.2483 -0.2087
H71 H -0.4688 0.3204 -0.1623
H72 H -0.0470 0.4602 -0.2205
H73 H 0.0564 0.3811 -0.3056
H74 H 0.0478 0.4714 -0.3861
H75 H 0.0993 0.4610 -0.3055
H76 H -0.1188 0.3938 -0.2895
H77 H -0.1876 0.4824 -0.2818
H78 H -0.1300 0.4836 -0.3706
H79 H -0.0404 0.8388 -0.5605
H80 H -0.1361 0.8334 -0.6317
H81 H -0.1593 0.7441 -0.5599
H82 H -0.1857 0.8355 -0.5411
H83 H 0.0499 0.7651 -0.6381
H84 H 0.0941 0.7321 -0.5483
H85 H 0.0376 0.6712 -0.5677
H86 H -0.1150 0.7504 -0.1636
H87 H -0.0448 0.8822 -0.2110
H88 H 0.0278 0.8078 -0.2411
H89 H -0.0381 0.8869 -0.3078
H90 H -0.2225 0.8763 -0.1993
H91 H -0.2092 0.8824 -0.2969
H92 H -0.2522 0.8035 -0.2257
Ag1A Ag -0.0378(2) 0.5294(2) 0.0880(2)
S1A S -0.1737(7) 0.6503(5) 0.0572(5)
Ag3A Ag -0.5412(2) 0.6057(2) 0.0026(2)
S4A S 0.0978(7) 0.4166(6) 0.1381(5)
C61 C 0.8240(49) 0.1593(29) 0.4242(36)
Cl1 Cl 0.7536(19) 0.1200(19) 0.3733(18)
Cl2 Cl 0.7404(19) 0.2211(19) 0.4824(18)
Cl3 Cl 0.8625(22) 0.0583(15) 0.5116(16)
loop_
_geom_bond_atom_site_label_1
_geom_bond_atom_site_label_2
_geom_bond_site_symmetry_1
_geom_bond_site_symmetry_2
Ag1 S1 1_555 1_555
Ag2 Ag4 1_555 1_555
Ag3 S3 1_555 1_555
Ag4 S3 1_555 1_555
S2 Ag2 1_555 1_555
S3 C13 1_555 1_555
S4 Ag1 1_555 1_555
C1 C2 1_555 1_555
C2 C3 1_555 1_555
C3 C4 1_555 1_555
C4 C5 1_555 1_555
C5 C6 1_555 1_555
C6 C1 1_555 1_555
C7 S2 1_555 1_555
C8 C7 1_555 1_555
C9 C8 1_555 1_555
C10 C9 1_555 1_555
C11 C10 1_555 1_555
C12 C7 1_555 1_555
C13 C14 1_555 1_555
C14 C15 1_555 1_555
C15 C16 1_555 1_555
C16 C17 1_555 1_555
C17 C18 1_555 1_555
C18 C13 1_555 1_555
C19 S4 1_555 1_555
C20 C19 1_555 1_555
C21 C20 1_555 1_555
C22 C21 1_555 1_555
C23 C22 1_555 1_555
C24 C19 1_555 1_555
C25 C2 1_555 1_555
C26 C25 1_555 1_555
C27 C25 1_555 1_555
C28 C4 1_555 1_555
C29 C28 1_555 1_555
C30 C28 1_555 1_555
C31 C6 1_555 1_555
C32 C31 1_555 1_555
C33 C31 1_555 1_555
C34 C8 1_555 1_555
C35 C34 1_555 1_555
C36 C34 1_555 1_555
C37 C10 1_555 1_555
C38 C37 1_555 1_555
C39 C37 1_555 1_555
C40 C12 1_555 1_555
C41 C40 1_555 1_555
C42 C40 1_555 1_555
C43 C14 1_555 1_555
C44 C43 1_555 1_555
C45 C43 1_555 1_555
C46 C16 1_555 1_555
C47 C46 1_555 1_555
C48 C46 1_555 1_555
C49 C18 1_555 1_555
C50 C49 1_555 1_555
C51 C49 1_555 1_555
C52 C20 1_555 1_555
C53 C52 1_555 1_555
C54 C52 1_555 1_555
C55 C22 1_555 1_555
C56 C55 1_555 1_555
C57 C55 1_555 1_555
C58 C24 1_555 1_555
C59 C58 1_555 1_555
C60 C58 1_555 1_555
C61 Cl1 1_555 1_555
Cl2 C61 1_555 1_555
Cl3 C61 1_555 1_555
H1 C3 1_555 1_555
H2 C5 1_555 1_555
H3 C9 1_555 1_555
H4 C11 1_555 1_555
H5 C15 1_555 1_555
H6 C17 1_555 1_555
H7 C21 1_555 1_555
H8 C23 1_555 1_555
H9 C25 1_555 1_555
H10 C26 1_555 1_555
H11 C26 1_555 1_555
H12 C26 1_555 1_555
H13 C27 1_555 1_555
H14 C27 1_555 1_555
H15 C27 1_555 1_555
H16 C28 1_555 1_555
H17 C29 1_555 1_555
H18 C29 1_555 1_555
H19 C29 1_555 1_555
H20 C30 1_555 1_555
H21 C30 1_555 1_555
H22 C30 1_555 1_555
H23 C31 1_555 1_555
H24 C32 1_555 1_555
H25 C32 1_555 1_555
H26 C32 1_555 1_555
H27 C33 1_555 1_555
H28 C33 1_555 1_555
H29 C33 1_555 1_555
H30 C34 1_555 1_555
H31 C35 1_555 1_555
H32 C35 1_555 1_555
H33 C35 1_555 1_555
H34 C36 1_555 1_555
H35 C36 1_555 1_555
H36 C36 1_555 1_555
H37 C37 1_555 1_555
H38 C38 1_555 1_555
H39 C38 1_555 1_555
H40 C38 1_555 1_555
H41 C39 1_555 1_555
H42 C39 1_555 1_555
H43 C39 1_555 1_555
H44 C40 1_555 1_555
H45 C41 1_555 1_555
H46 C41 1_555 1_555
H47 C41 1_555 1_555
H48 C42 1_555 1_555
H49 C42 1_555 1_555
H50 C42 1_555 1_555
H51 C43 1_555 1_555
H52 C44 1_555 1_555
H53 C44 1_555 1_555
H54 C44 1_555 1_555
H55 C45 1_555 1_555
H56 C45 1_555 1_555
H57 C45 1_555 1_555
H58 C46 1_555 1_555
H59 C47 1_555 1_555
H60 C47 1_555 1_555
H61 C47 1_555 1_555
H62 C48 1_555 1_555
H63 C48 1_555 1_555
H64 C48 1_555 1_555
H65 C49 1_555 1_555
H66 C50 1_555 1_555
H67 C50 1_555 1_555
H68 C50 1_555 1_555
H69 C51 1_555 1_555
H70 C51 1_555 1_555
H71 C51 1_555 1_555
H72 C52 1_555 1_555
H73 C53 1_555 1_555
H74 C53 1_555 1_555
H75 C53 1_555 1_555
H76 C54 1_555 1_555
H77 C54 1_555 1_555
H78 C54 1_555 1_555
H79 C55 1_555 1_555
H80 C56 1_555 1_555
H81 C56 1_555 1_555
H82 C56 1_555 1_555
H83 C57 1_555 1_555
H84 C57 1_555 1_555
H85 C57 1_555 1_555
H86 C58 1_555 1_555
H87 C59 1_555 1_555
H88 C59 1_555 1_555
H89 C59 1_555 1_555
H90 C60 1_555 1_555
H91 C60 1_555 1_555
H92 C60 1_555 1_555
Ag1A Ag1 1_555 1_555
S1A Ag2 1_555 1_555
Ag3A Ag3 1_555 1_555
S4A Ag1A 1_555 1_555
Ag4 S4 1_555 1_555
S2 Ag3A 1_555 1_555
C1 S1A 1_555 1_555
C11 C12 1_555 1_555
C23 C24 1_555 1_555
Ag1A S1A 1_555 1_555

#END
