
#######################################################################
#
#                 Cambridge Crystallographic Data Centre
#                                CCDC 
#
#######################################################################
#
# If this CIF has been generated from an entry in the Cambridge 
# Structural Database, then it will include bibliographic, chemical, 
# crystal, experimental, refinement or atomic coordinate data resulting 
# from the CCDC's data processing and validation procedures.
#
#######################################################################

data_SEDJAN
_symmetry_cell_setting           triclinic
_symmetry_space_group_name_H-M   'P -1'
_symmetry_Int_Tables_number      2
_space_group_name_Hall           '-P 1'
loop_
_symmetry_equiv_pos_site_id
_symmetry_equiv_pos_as_xyz
1 x,y,z
2 -x,-y,-z
_cell_length_a                   13.284(2)
_cell_length_b                   14.760(3)
_cell_length_c                   16.701(3)
_cell_angle_alpha                81.455(3)
_cell_angle_beta                 68.819(3)
_cell_angle_gamma                66.350(3)
_cell_volume                     2796.91
loop_
_atom_site_label
_atom_site_type_symbol
_atom_site_fract_x
_atom_site_fract_y
_atom_site_fract_z
Mo1 Mo -0.32833(5) -0.44516(4) 0.07831(3)
Mo2 Mo -0.38060(4) -0.21312(4) 0.27309(3)
Mo3 Mo -0.43036(5) -0.19379(4) 0.06476(3)
Mo4 Mo -0.32097(4) -0.46000(4) 0.29960(4)
Mo5 Mo -0.82803(4) -0.14394(4) 0.20519(3)
Mo6 Mo -0.50325(4) -0.56369(4) 0.25089(3)
Mo7 Mo -0.71734(5) -0.42660(4) 0.42272(3)
Mo8 Mo -0.66274(4) -0.04458(4) 0.25169(3)
Mo9 Mo -0.58362(5) -0.31815(4) 0.03963(3)
Mo10 Mo -0.54528(4) -0.29831(4) 0.45015(3)
Mo11 Mo -0.76306(5) -0.41232(4) 0.23232(4)
Mo12 Mo -0.82312(5) -0.15375(4) 0.40836(3)
P1 P -0.57369(12) -0.30530(11) 0.24745(9)
O1 O -0.4912(3) -0.3147(3) 0.2954(2)
O2 O -0.5082(3) -0.3111(3) 0.1505(2)
O3 O -0.6192(3) -0.3889(3) 0.2753(2)
O4 O -0.6764(3) -0.2059(3) 0.2683(2)
O5 O -0.4420(4) -0.6877(3) 0.2480(3)
O6 O -0.5346(3) -0.1042(3) 0.2848(3)
O7 O -0.7805(3) -0.0398(3) 0.2036(3)
O8 O -0.5589(4) -0.2947(3) 0.5534(3)
O9 O -0.6100(3) -0.5457(3) 0.3711(3)
O10 O -0.8089(3) -0.2837(3) 0.4206(3)
O11 O -0.7995(4) -0.4593(3) 0.5155(3)
O12 O -0.2767(3) -0.3417(3) 0.2766(3)
O13 O -0.4056(3) -0.5314(3) 0.2991(3)
O14 O -0.6326(4) -0.5392(3) 0.2198(3)
O15 O -0.6179(3) -0.3917(3) 0.4517(3)
O16 O -0.4371(4) -0.4146(3) 0.0126(3)
O17 O -0.4184(4) -0.5255(3) 0.1481(3)
O18 O -0.8349(3) -0.2744(3) 0.2366(3)
O19 O -0.6825(4) -0.2024(3) 0.4431(3)
O20 O -0.8061(3) -0.4297(3) 0.3478(3)
O21 O -0.2885(3) -0.4496(3) 0.1735(3)
O22 O -0.3996(4) -0.4157(3) 0.4110(3)
O23 O -0.8550(4) -0.4443(3) 0.2064(3)
O24 O -0.1947(4) -0.5462(3) 0.3044(3)
O25 O -0.9464(4) -0.0854(3) 0.1747(3)
O26 O -0.3009(4) -0.1494(3) 0.2737(3)
O27 O -0.2103(4) -0.5290(3) 0.0131(3)
O28 O -0.6225(4) -0.3093(4) -0.0470(3)
O29 O -0.9036(3) -0.1208(3) 0.3311(3)
O30 O -0.4547(3) -0.2240(3) 0.3980(3)
O31 O -0.6748(4) 0.0739(3) 0.2371(3)
O32 O -0.3088(3) -0.3279(3) 0.0345(3)
O33 O -0.3586(4) -0.1284(3) -0.0073(3)
O34 O -0.9287(4) -0.1031(3) 0.5002(3)
O35 O -0.5048(4) -0.2210(3) 0.0039(3)
O36 O -0.6622(4) -0.3874(3) 0.1171(3)
O37 O -0.7145(3) -0.2005(3) 0.1061(3)
O38 O -0.3658(4) -0.2132(3) 0.1597(3)
O39 O -0.7704(4) -0.0434(3) 0.3593(3)
O40 O -0.5563(3) -0.0985(3) 0.1350(3)
Ag1 Ag -0.56730(4) 0.19845(4) 0.31893(3)
Ag2 Ag -0.19447(4) -0.07037(4) -0.08099(3)
Ag3 Ag -0.92040(4) 0.30134(4) 0.74334(3)
N1 N -0.2596(5) 0.0169(4) 0.0374(3)
C1 C -0.4372(7) 0.0870(5) 0.4408(5)
H1 H -0.5139 0.1153 0.4804
C2 C -0.3478(7) 0.0396(5) 0.4733(5)
H2 H -0.3619 0.0358 0.5335
C3 C -0.2378(7) -0.0020(5) 0.4162(5)
H3 H -0.1735 -0.0345 0.4362
C4 C -0.2207(6) 0.0036(5) 0.3293(5)
H4 H -0.1447 -0.0255 0.2891
C5 C -0.3155(6) 0.0522(5) 0.3014(4)
C6 C -0.3007(6) 0.0510(5) 0.2090(4)
C7 C -0.1957(6) 0.0444(5) 0.1455(5)
H5 H -0.1358 0.0510 0.1595
C8 C -0.1798(6) 0.0283(5) 0.0626(4)
H6 H -0.1078 0.0248 0.0199
C9 C -0.3627(5) 0.0293(5) 0.0982(4)
H7 H -0.4234 0.0276 0.0819
C10 C -0.3847(5) 0.0445(5) 0.1831(4)
H8 H -0.4585 0.0505 0.2242
N2 N -0.4238(5) 0.0960(4) 0.3572(3)
N3 N -0.7183(5) 0.2823(4) 0.2839(3)
C11 C -0.7058(6) 0.2954(5) 0.2002(4)
H9 H -0.6291 0.2751 0.1597
C12 C -0.7976(7) 0.3365(5) 0.1703(4)
H10 H -0.7844 0.3448 0.1103
C13 C -0.9096(6) 0.3658(5) 0.2279(4)
H11 H -0.9748 0.3939 0.2085
C14 C -0.9248(6) 0.3532(5) 0.3149(4)
H12 H -1.0009 0.3722 0.3561
C15 C -0.8280(6) 0.3128(5) 0.3406(4)
C16 C -0.8413(5) 0.3020(5) 0.4328(4)
C17 C -0.9273(5) 0.2728(5) 0.4903(4)
H13 H -0.9754 0.2550 0.4704
C18 C -0.9436(6) 0.2693(5) 0.5772(4)
H14 H -1.0021 0.2475 0.6160
C19 C -0.7951(5) 0.3226(5) 0.5523(4)
H15 H -0.7474 0.3396 0.5734
C20 C -0.7740(5) 0.3267(5) 0.4658(4)
H16 H -0.7130 0.3465 0.4283
N4 N -0.8794(4) 0.2959(4) 0.6087(3)
N5 N -0.0318(4) -0.1690(4) -0.1768(3)
C21 C -0.0045(6) -0.1526(5) -0.2617(4)
H17 H -0.0650 -0.1130 -0.2840
C22 C 0.1076(6) -0.1908(5) -0.3177(4)
H18 H 0.1243 -0.1757 -0.3773
C23 C 0.1954(6) -0.2513(5) -0.2865(4)
H19 H 0.2732 -0.2799 -0.3243
C24 C 0.1690(6) -0.2694(5) -0.2007(4)
H20 H 0.2285 -0.3095 -0.1775
C25 C 0.0541(5) -0.2286(4) -0.1473(4)
C26 C 0.0238(5) -0.2492(4) -0.0540(4)
C27 C 0.0895(6) -0.2443(5) -0.0093(4)
H21 H 0.1555 -0.2270 -0.0378
C28 C 0.0591(6) -0.2647(5) 0.0777(4)
H22 H 0.1050 -0.2603 0.1083
C29 C -0.0936(5) -0.2984(5) 0.0756(4)
H23 H -0.1564 -0.3198 0.1044
C30 C -0.0698(5) -0.2770(5) -0.0099(4)
H24 H -0.1173 -0.2812 -0.0392
N6 N -0.9684(5) 0.2904(4) 0.8794(3)
Mo1A Mo -0.67167(5) 0.44516(4) 0.92169(3)
Mo2A Mo -0.61940(4) 0.21312(4) 0.72691(3)
Mo3A Mo -0.56964(5) 0.19379(4) 0.93524(3)
Mo4A Mo -0.67903(4) 0.46000(4) 0.70040(4)
Mo5A Mo -0.17197(4) 0.14394(4) 0.79481(3)
Mo6A Mo -0.49675(4) 0.56369(4) 0.74911(3)
Mo7A Mo -0.28266(5) 0.42660(4) 0.57728(3)
Mo8A Mo -0.33726(4) 0.04458(4) 0.74831(3)
Mo9A Mo -0.41638(5) 0.31815(4) 0.96037(3)
Mo10A Mo -0.45472(4) 0.29831(4) 0.54985(3)
Mo11A Mo -0.23694(5) 0.41232(4) 0.76768(4)
Mo12A Mo -0.17688(5) 0.15375(4) 0.59164(3)
P1A P -0.42631(12) 0.30530(11) 0.75255(9)
O1A O -0.5088(3) 0.3147(3) 0.7046(2)
O2A O -0.4918(3) 0.3111(3) 0.8495(2)
O3A O -0.3808(3) 0.3889(3) 0.7247(2)
O4A O -0.3236(3) 0.2059(3) 0.7317(2)
O5A O -0.5580(4) 0.6877(3) 0.7520(3)
O6A O -0.4654(3) 0.1042(3) 0.7152(3)
O7_2 O -0.7805(3) -0.0398(3) 1.2036(3)
O7A O -0.2195(3) 0.0398(3) -0.2036(3)
O7A_2 O -0.2195(3) 0.0398(3) 0.7964(3)
O8A O -0.4411(4) 0.2947(3) 0.4466(3)
O9A O -0.3900(3) 0.5457(3) 0.6289(3)
O10A O -0.1911(3) 0.2837(3) 0.5794(3)
O11A O -0.2005(4) 0.4593(3) 0.4845(3)
O12A O -0.7233(3) 0.3417(3) 0.7234(3)
O13A O -0.5944(3) 0.5314(3) 0.7009(3)
O14A O -0.3674(4) 0.5392(3) 0.7802(3)
O15A O -0.3821(3) 0.3917(3) 0.5483(3)
O16A O -0.5629(4) 0.4146(3) 0.9874(3)
O17A O -0.5816(4) 0.5255(3) 0.8519(3)
O18A O -0.1651(3) 0.2744(3) 0.7634(3)
O19A O -0.3175(4) 0.2024(3) 0.5569(3)
O20A O -0.1939(3) 0.4297(3) 0.6522(3)
O21A O -0.7115(3) 0.4496(3) 0.8265(3)
O22A O -0.6004(4) 0.4157(3) 0.5890(3)
O23A O -0.1450(4) 0.4443(3) 0.7936(3)
O24A O -0.8053(4) 0.5462(3) 0.6956(3)
O25A O -0.0536(4) 0.0854(3) 0.8253(3)
O26A O -0.6991(4) 0.1494(3) 0.7263(3)
O27A O -0.7897(4) 0.5290(3) 0.9869(3)
O28A O -0.3775(4) 0.3093(4) 1.0470(3)
O29A O -0.0964(3) 0.1208(3) 0.6689(3)
O30A O -0.5453(3) 0.2240(3) 0.6020(3)
O31A O -0.3252(4) -0.0739(3) 0.7629(3)
O32A O -0.6912(3) 0.3279(3) 0.9655(3)
O33A O -0.6414(4) 0.1284(3) 1.0073(3)
O34A O -0.0713(4) 0.1031(3) 0.4998(3)
O35A O -0.4952(4) 0.2210(3) 0.9961(3)
O36A O -0.3378(4) 0.3874(3) 0.8829(3)
O37A O -0.2855(3) 0.2005(3) 0.8939(3)
O38A O -0.6342(4) 0.2132(3) 0.8403(3)
O39A O -0.2296(4) 0.0434(3) 0.6407(3)
O40A O -0.4437(3) 0.0985(3) 0.8650(3)
Ag1A Ag -0.43270(4) -0.19845(4) 0.68107(3)
Ag2A Ag -0.80553(4) 0.07037(4) 1.08099(3)
Ag2A_2 Ag -0.80553(4) 0.07037(4) 0.08099(3)
Ag2_2 Ag -0.19447(4) -0.07037(4) 0.91901(3)
Ag3A Ag -0.07960(4) -0.30134(4) 0.25666(3)
N1A N -0.7404(5) -0.0169(4) 0.9626(3)
C1A C -0.5628(7) -0.0870(5) 0.5592(5)
H1A H -0.4861 -0.1153 0.5196
C2A C -0.6522(7) -0.0396(5) 0.5267(5)
H2A H -0.6381 -0.0358 0.4665
C3A C -0.7622(7) 0.0020(5) 0.5838(5)
H3A H -0.8265 0.0345 0.5638
C4A C -0.7793(6) -0.0036(5) 0.6707(5)
H4A H -0.8553 0.0255 0.7109
C5A C -0.6845(6) -0.0522(5) 0.6986(4)
C6A C -0.6993(6) -0.0510(5) 0.7910(4)
C7A C -0.8043(6) -0.0444(5) 0.8545(5)
H5A H -0.8642 -0.0510 0.8405
C8A C -0.8202(6) -0.0283(5) 0.9374(4)
H6A H -0.8922 -0.0248 0.9801
C9A C -0.6373(5) -0.0293(5) 0.9018(4)
H7A H -0.5766 -0.0276 0.9181
C10A C -0.6153(5) -0.0445(5) 0.8169(4)
H8A H -0.5415 -0.0505 0.7758
N2A N -0.5762(5) -0.0960(4) 0.6428(3)
N3A N -0.2817(5) -0.2823(4) 0.7161(3)
C11A C -0.2942(6) -0.2954(5) 0.7998(4)
H9A H -0.3709 -0.2751 0.8403
C12A C -0.2024(7) -0.3365(5) 0.8297(4)
H10A H -0.2156 -0.3448 0.8897
C13A C -0.0904(6) -0.3658(5) 0.7721(4)
H11A H -0.0252 -0.3939 0.7915
C14A C -0.0752(6) -0.3532(5) 0.6851(4)
H12A H 0.0009 -0.3722 0.6439
C15A C -0.1720(6) -0.3128(5) 0.6594(4)
C16A C -0.1587(5) -0.3020(5) 0.5672(4)
C17A C -0.0727(5) -0.2728(5) 0.5097(4)
H13A H -0.0246 -0.2550 0.5296
C18A C -0.0564(6) -0.2693(5) 0.4228(4)
H14A H 0.0021 -0.2475 0.3840
C19A C -0.2049(5) -0.3226(5) 0.4477(4)
H15A H -0.2526 -0.3396 0.4266
C20A C -0.2260(5) -0.3267(5) 0.5342(4)
H16A H -0.2870 -0.3465 0.5717
N4A N -0.1206(4) -0.2959(4) 0.3913(3)
N5A N -0.9682(4) 0.1690(4) 1.1768(3)
C21A C -0.9955(6) 0.1526(5) 1.2617(4)
H17A H -0.9350 0.1130 1.2840
C22A C -1.1076(6) 0.1908(5) 1.3177(4)
H18A H -1.1243 0.1757 1.3773
C23A C -1.1954(6) 0.2513(5) 1.2865(4)
H19A H -1.2732 0.2799 1.3243
C24A C -1.1690(6) 0.2694(5) 1.2007(4)
H20A H -1.2285 0.3095 1.1775
C25A C -1.0541(5) 0.2286(4) 1.1473(4)
C26A C -1.0238(5) 0.2492(4) 1.0540(4)
C27A C -1.0895(6) 0.2443(5) 1.0093(4)
H21A H -1.1555 0.2270 1.0378
C28A C -1.0591(6) 0.2647(5) 0.9223(4)
H22A H -1.1050 0.2603 0.8917
C29A C -0.9064(5) 0.2984(5) 0.9244(4)
H23A H -0.8436 0.3198 0.8956
C30A C -0.9302(5) 0.2770(5) 1.0099(4)
H24A H -0.8827 0.2812 1.0392
N6A N -0.0316(5) -0.2904(4) 0.1206(3)
loop_
_geom_bond_atom_site_label_1
_geom_bond_atom_site_label_2
_geom_bond_site_symmetry_1
_geom_bond_site_symmetry_2
Mo1 O2 1_555 1_555
Mo2 O1 1_555 1_555
Mo3 O2 1_555 1_555
Mo4 O1 1_555 1_555
Mo5 O4 1_555 1_555
Mo6 O3 1_555 1_555
Mo7 O3 1_555 1_555
Mo8 O4 1_555 1_555
Mo9 O2 1_555 1_555
Mo10 O1 1_555 1_555
Mo11 O3 1_555 1_555
Mo12 O4 1_555 1_555
P1 O1 1_555 1_555
O2 P1 1_555 1_555
O3 P1 1_555 1_555
O4 P1 1_555 1_555
O5 Mo6 1_555 1_555
O6 Mo2 1_555 1_555
O7 Mo5 1_555 1_555
O8 Mo10 1_555 1_555
O9 Mo6 1_555 1_555
O10 Mo7 1_555 1_555
O11 Mo7 1_555 1_555
O12 Mo2 1_555 1_555
O13 Mo4 1_555 1_555
O14 Mo6 1_555 1_555
O15 Mo7 1_555 1_555
O16 Mo1 1_555 1_555
O17 Mo1 1_555 1_555
O18 Mo5 1_555 1_555
O19 Mo10 1_555 1_555
O20 Mo7 1_555 1_555
O21 Mo1 1_555 1_555
O22 Mo4 1_555 1_555
O23 Mo11 1_555 1_555
O24 Mo4 1_555 1_555
O25 Mo5 1_555 1_555
O26 Mo2 1_555 1_555
O27 Mo1 1_555 1_555
O28 Mo9 1_555 1_555
O29 Mo5 1_555 1_555
O30 Mo2 1_555 1_555
O31 Mo8 1_555 1_555
O32 Mo1 1_555 1_555
O33 Mo3 1_555 1_555
O34 Mo12 1_555 1_555
O35 Mo3 1_555 1_555
O36 Mo9 1_555 1_555
O37 Mo5 1_555 1_555
O38 Mo2 1_555 1_555
O39 Mo8 1_555 1_555
O40 Mo3 1_555 1_555
Ag1 N2 1_555 1_555
Ag2 O33 1_555 1_555
Ag3 N4 1_555 1_555
N1 Ag2 1_555 1_555
C1 H1 1_555 1_555
C2 C1 1_555 1_555
H2 C2 1_555 1_555
C3 C2 1_555 1_555
H3 C3 1_555 1_555
C4 C3 1_555 1_555
H4 C4 1_555 1_555
C5 C4 1_555 1_555
C6 C5 1_555 1_555
C7 C6 1_555 1_555
H5 C7 1_555 1_555
C8 N1 1_555 1_555
H6 C8 1_555 1_555
C9 N1 1_555 1_555
H7 C9 1_555 1_555
C10 C6 1_555 1_555
H8 C10 1_555 1_555
N2 C1 1_555 1_555
N3 Ag1 1_555 1_555
C11 N3 1_555 1_555
H9 C11 1_555 1_555
C12 C11 1_555 1_555
H10 C12 1_555 1_555
C13 C12 1_555 1_555
H11 C13 1_555 1_555
C14 C13 1_555 1_555
H12 C14 1_555 1_555
C15 N3 1_555 1_555
C16 C15 1_555 1_555
C17 C16 1_555 1_555
H13 C17 1_555 1_555
C18 C17 1_555 1_555
H14 C18 1_555 1_555
C19 H15 1_555 1_555
C20 C16 1_555 1_555
H16 C20 1_555 1_555
N4 C18 1_555 1_555
N5 Ag2 1_555 1_555
C21 N5 1_555 1_555
H17 C21 1_555 1_555
C22 C21 1_555 1_555
H18 C22 1_555 1_555
C23 C22 1_555 1_555
H19 C23 1_555 1_555
C24 C23 1_555 1_555
H20 C24 1_555 1_555
C25 N5 1_555 1_555
C26 C25 1_555 1_555
C27 C26 1_555 1_555
H21 C27 1_555 1_555
C28 C27 1_555 1_555
H22 C28 1_555 1_555
C29 H23 1_555 1_555
C30 C26 1_555 1_555
H24 C30 1_555 1_555
N6 Ag3 1_555 1_555
Mo1A O2A 1_555 1_555
Mo2A O1A 1_555 1_555
Mo3A O2A 1_555 1_555
Mo4A O1A 1_555 1_555
Mo5A O4A 1_555 1_555
Mo6A O3A 1_555 1_555
Mo7A O3A 1_555 1_555
Mo8A O4A 1_555 1_555
Mo9A O2A 1_555 1_555
Mo10A O1A 1_555 1_555
Mo11A O3A 1_555 1_555
Mo12A O4A 1_555 1_555
P1A O1A 1_555 1_555
O2A P1A 1_555 1_555
O3A P1A 1_555 1_555
O4A P1A 1_555 1_555
O5A Mo6A 1_555 1_555
O6A Mo2A 1_555 1_555
O7_2 Ag2A 1_555 1_555
O7A Ag2 1_555 1_555
O7A_2 Mo5A 1_555 1_555
O8A Mo10A 1_555 1_555
O9A Mo6A 1_555 1_555
O10A Mo7A 1_555 1_555
O11A Mo7A 1_555 1_555
O12A Mo2A 1_555 1_555
O13A Mo4A 1_555 1_555
O14A Mo6A 1_555 1_555
O15A Mo7A 1_555 1_555
O16A Mo1A 1_555 1_555
O17A Mo1A 1_555 1_555
O18A Mo5A 1_555 1_555
O19A Mo10A 1_555 1_555
O20A Mo7A 1_555 1_555
O21A Mo1A 1_555 1_555
O22A Mo4A 1_555 1_555
O23A Mo11A 1_555 1_555
O24A Mo4A 1_555 1_555
O25A Mo5A 1_555 1_555
O26A Mo2A 1_555 1_555
O27A Mo1A 1_555 1_555
O28A Mo9A 1_555 1_555
O29A Mo5A 1_555 1_555
O30A Mo2A 1_555 1_555
O31A Mo8A 1_555 1_555
O32A Mo1A 1_555 1_555
O33A Mo3A 1_555 1_555
O34A Mo12A 1_555 1_555
O35A Mo3A 1_555 1_555
O36A Mo9A 1_555 1_555
O37A Mo5A 1_555 1_555
O38A Mo2A 1_555 1_555
O39A Mo8A 1_555 1_555
O40A Mo3A 1_555 1_555
Ag1A N2A 1_555 1_555
Ag2A O33A 1_555 1_555
Ag2A_2 O7 1_555 1_555
Ag2_2 O7A_2 1_555 1_555
Ag3A N4A 1_555 1_555
N1A Ag2A 1_555 1_555
C1A H1A 1_555 1_555
C2A C1A 1_555 1_555
H2A C2A 1_555 1_555
C3A C2A 1_555 1_555
H3A C3A 1_555 1_555
C4A C3A 1_555 1_555
H4A C4A 1_555 1_555
C5A C4A 1_555 1_555
C6A C5A 1_555 1_555
C7A C6A 1_555 1_555
H5A C7A 1_555 1_555
C8A N1A 1_555 1_555
H6A C8A 1_555 1_555
C9A N1A 1_555 1_555
H7A C9A 1_555 1_555
C10A C6A 1_555 1_555
H8A C10A 1_555 1_555
N2A C1A 1_555 1_555
N3A Ag1A 1_555 1_555
C11A N3A 1_555 1_555
H9A C11A 1_555 1_555
C12A C11A 1_555 1_555
H10A C12A 1_555 1_555
C13A C12A 1_555 1_555
H11A C13A 1_555 1_555
C14A C13A 1_555 1_555
H12A C14A 1_555 1_555
C15A N3A 1_555 1_555
C16A C15A 1_555 1_555
C17A C16A 1_555 1_555
H13A C17A 1_555 1_555
C18A C17A 1_555 1_555
H14A C18A 1_555 1_555
C19A H15A 1_555 1_555
C20A C16A 1_555 1_555
H16A C20A 1_555 1_555
N4A C18A 1_555 1_555
N5A Ag2A 1_555 1_555
C21A N5A 1_555 1_555
H17A C21A 1_555 1_555
C22A C21A 1_555 1_555
H18A C22A 1_555 1_555
C23A C22A 1_555 1_555
H19A C23A 1_555 1_555
C24A C23A 1_555 1_555
H20A C24A 1_555 1_555
C25A N5A 1_555 1_555
C26A C25A 1_555 1_555
C27A C26A 1_555 1_555
H21A C27A 1_555 1_555
C28A N6 1_555 1_555
H22A C28A 1_555 1_555
C29A N6 1_555 1_555
H23A C29A 1_555 1_555
C30A C26A 1_555 1_555
H24A C30A 1_555 1_555
N6A C28 1_555 1_555
Mo3 O32 1_555 1_555
Mo3 O38 1_555 1_555
Mo4 O12 1_555 1_555
Mo4 O21 1_555 1_555
Mo6 O13 1_555 1_555
Mo6 O17 1_555 1_555
Mo7 O9 1_555 1_555
Mo8 O6 1_555 1_555
Mo8 O7 1_555 1_555
Mo8 O40 1_555 1_555
Mo9 O16 1_555 1_555
Mo9 O35 1_555 1_555
Mo9 O37 1_555 1_555
Mo10 O15 1_555 1_555
Mo10 O22 1_555 1_555
Mo10 O30 1_555 1_555
Mo11 O14 1_555 1_555
Mo11 O18 1_555 1_555
Mo11 O20 1_555 1_555
Mo11 O36 1_555 1_555
Mo12 O10 1_555 1_555
Mo12 O19 1_555 1_555
Mo12 O29 1_555 1_555
Mo12 O39 1_555 1_555
C5 N2 1_555 1_555
C7 C8 1_555 1_555
C9 C10 1_555 1_555
C14 C15 1_555 1_555
C19 C20 1_555 1_555
C19 N4 1_555 1_555
C24 C25 1_555 1_555
C29 C30 1_555 1_555
C29 N6A 1_555 1_555
Mo3A O32A 1_555 1_555
Mo3A O38A 1_555 1_555
Mo4A O12A 1_555 1_555
Mo4A O21A 1_555 1_555
Mo6A O13A 1_555 1_555
Mo6A O17A 1_555 1_555
Mo7A O9A 1_555 1_555
Mo8A O6A 1_555 1_555
Mo8A O7A_2 1_555 1_555
Mo8A O40A 1_555 1_555
Mo9A O16A 1_555 1_555
Mo9A O35A 1_555 1_555
Mo9A O37A 1_555 1_555
Mo10A O15A 1_555 1_555
Mo10A O22A 1_555 1_555
Mo10A O30A 1_555 1_555
Mo11A O14A 1_555 1_555
Mo11A O18A 1_555 1_555
Mo11A O20A 1_555 1_555
Mo11A O36A 1_555 1_555
Mo12A O10A 1_555 1_555
Mo12A O19A 1_555 1_555
Mo12A O29A 1_555 1_555
Mo12A O39A 1_555 1_555
Ag3A N6A 1_555 1_555
C5A N2A 1_555 1_555
C7A C8A 1_555 1_555
C9A C10A 1_555 1_555
C14A C15A 1_555 1_555
C19A C20A 1_555 1_555
C19A N4A 1_555 1_555
C24A C25A 1_555 1_555
C27A C28A 1_555 1_555
C29A C30A 1_555 1_555

#END
