
#######################################################################
#
#                 Cambridge Crystallographic Data Centre
#                                CCDC 
#
#######################################################################
#
# If this CIF has been generated from an entry in the Cambridge 
# Structural Database, then it will include bibliographic, chemical, 
# crystal, experimental, refinement or atomic coordinate data resulting 
# from the CCDC's data processing and validation procedures.
#
#######################################################################

data_SEDPOI
_symmetry_cell_setting           monoclinic
_symmetry_space_group_name_H-M   'C 2/c'
_symmetry_Int_Tables_number      15
_space_group_name_Hall           '-C 2yn'
loop_
_symmetry_equiv_pos_site_id
_symmetry_equiv_pos_as_xyz
1 x,y,z
2 -x,y,1/2-z
3 1/2+x,1/2+y,z
4 1/2-x,1/2+y,1/2-z
5 -x,-y,-z
6 x,-y,1/2+z
7 1/2-x,1/2-y,-z
8 1/2+x,1/2-y,1/2+z
_cell_length_a                   28.1449(13)
_cell_length_b                   6.2453(3)
_cell_length_c                   15.6447(6)
_cell_angle_alpha                90
_cell_angle_beta                 114.808(4)
_cell_angle_gamma                90
_cell_volume                     2496.16
loop_
_atom_site_label
_atom_site_type_symbol
_atom_site_fract_x
_atom_site_fract_y
_atom_site_fract_z
Hg1 Hg -0.5000 -0.35263(7) -0.2500
Cu1 Cu -0.2500 0.2500 0.0000
Br1 Br -0.45887(3) -0.54241(14) -0.34485(5)
O1 O -0.20618(19) 0.4290(8) 0.1010(3)
N1 N -0.3139(2) 0.4292(9) -0.0245(4)
N2 N -0.4506(2) -0.1021(9) -0.1319(4)
C1 C -0.2179(3) 0.6078(11) 0.1301(5)
C2 C -0.1777(3) 0.7143(12) 0.2066(5)
H1 H -0.1440 0.6506 0.2362
C3 C -0.1869(3) 0.9076(11) 0.2383(5)
H2 H -0.1594 0.9758 0.2895
C4 C -0.2360(3) 1.0069(12) 0.1971(5)
H3 H -0.2420 1.1415 0.2191
C5 C -0.2744(3) 0.9048(11) 0.1251(5)
H4 H -0.3079 0.9703 0.0969
C6 C -0.2672(3) 0.7056(11) 0.0897(5)
C7 C -0.3113(3) 0.6101(12) 0.0149(5)
H5 H -0.3427 0.6920 -0.0084
C8 C -0.3645(3) 0.3769(11) -0.1022(4)
H6 H -0.3585 0.3314 -0.1575
H7 H -0.3864 0.5075 -0.1201
C9 C -0.3937(3) 0.2033(11) -0.0782(5)
C10 C -0.3969(3) 0.1897(12) 0.0074(5)
H8 H -0.3783 0.2884 0.0563
C11 C -0.4274(3) 0.0304(13) 0.0215(5)
H9 H -0.4310 0.0231 0.0792
C12 C -0.4522(3) -0.1165(12) -0.0486(5)
H10 H -0.4710 -0.2309 -0.0371
C13 C -0.4224(3) 0.0529(12) -0.1460(5)
H11 H -0.4216 0.0616 -0.2060
Cu1A Cu -0.7500 0.2500 -0.5000
Br1A Br -0.54113(3) -0.54241(14) -0.15515(5)
O1A O -0.79382(19) 0.4290(8) -0.6010(3)
O1F O -0.29382(19) 0.0710(8) -0.1010(3)
N1A N -0.6861(2) 0.4292(9) -0.4755(4)
N1F N -0.1861(2) 0.0708(9) 0.0245(4)
N2A N -0.5494(2) -0.1021(9) -0.3681(4)
C1A C -0.7821(3) 0.6078(11) -0.6301(5)
C2A C -0.8223(3) 0.7143(12) -0.7066(5)
H1A H -0.8560 0.6506 -0.7362
C3A C -0.8131(3) 0.9076(11) -0.7383(5)
H2A H -0.8406 0.9758 -0.7895
C4A C -0.7640(3) 1.0069(12) -0.6971(5)
H3A H -0.7580 1.1415 -0.7191
C5A C -0.7256(3) 0.9048(11) -0.6251(5)
H4A H -0.6921 0.9703 -0.5969
C6A C -0.7328(3) 0.7056(11) -0.5897(5)
C7A C -0.6887(3) 0.6101(12) -0.5149(5)
H5A H -0.6573 0.6920 -0.4916
C8A C -0.6355(3) 0.3769(11) -0.3978(4)
H6A H -0.6415 0.3314 -0.3425
H7A H -0.6136 0.5075 -0.3799
C9A C -0.6063(3) 0.2033(11) -0.4218(5)
C10A C -0.6031(3) 0.1897(12) -0.5074(5)
H8A H -0.6217 0.2884 -0.5563
C11A C -0.5726(3) 0.0304(13) -0.5215(5)
H9A H -0.5690 0.0231 -0.5792
C12A C -0.5478(3) -0.1165(12) -0.4514(5)
H10A H -0.5290 -0.2309 -0.4629
C13A C -0.5776(3) 0.0529(12) -0.3540(5)
H11A H -0.5784 0.0616 -0.2940
loop_
_geom_bond_atom_site_label_1
_geom_bond_atom_site_label_2
_geom_bond_site_symmetry_1
_geom_bond_site_symmetry_2
Hg1 Br1 1_555 1_555
Cu1 O1 1_555 1_555
O1 C1 1_555 1_555
N1 Cu1 1_555 1_555
N2 Hg1 1_555 1_555
C1 C2 1_555 1_555
C2 H1 1_555 1_555
C3 C2 1_555 1_555
H2 C3 1_555 1_555
C4 C3 1_555 1_555
H3 C4 1_555 1_555
C5 C4 1_555 1_555
H4 C5 1_555 1_555
C6 C1 1_555 1_555
C7 N1 1_555 1_555
H5 C7 1_555 1_555
C8 N1 1_555 1_555
H6 C8 1_555 1_555
H7 C8 1_555 1_555
C9 C8 1_555 1_555
C10 C9 1_555 1_555
H8 C10 1_555 1_555
C11 C10 1_555 1_555
H9 C11 1_555 1_555
C12 N2 1_555 1_555
H10 C12 1_555 1_555
C13 N2 1_555 1_555
H11 C13 1_555 1_555
Cu1A O1A 1_555 1_555
Br1A Hg1 1_555 1_555
O1A C1A 1_555 1_555
O1F Cu1 1_555 1_555
N1A Cu1A 1_555 1_555
N1F Cu1 1_555 1_555
N2A Hg1 1_555 1_555
C1A C2A 1_555 1_555
C2A H1A 1_555 1_555
C3A C2A 1_555 1_555
H2A C3A 1_555 1_555
C4A C3A 1_555 1_555
H3A C4A 1_555 1_555
C5A C4A 1_555 1_555
H4A C5A 1_555 1_555
C6A C1A 1_555 1_555
C7A N1A 1_555 1_555
H5A C7A 1_555 1_555
C8A N1A 1_555 1_555
H6A C8A 1_555 1_555
H7A C8A 1_555 1_555
C9A C8A 1_555 1_555
C10A C9A 1_555 1_555
H8A C10A 1_555 1_555
C11A C10A 1_555 1_555
H9A C11A 1_555 1_555
C12A N2A 1_555 1_555
H10A C12A 1_555 1_555
C13A N2A 1_555 1_555
H11A C13A 1_555 1_555
C5 C6 1_555 1_555
C6 C7 1_555 1_555
C9 C13 1_555 1_555
C11 C12 1_555 1_555
C5A C6A 1_555 1_555
C6A C7A 1_555 1_555
C9A C13A 1_555 1_555
C11A C12A 1_555 1_555

#END
