
#######################################################################
#
#                 Cambridge Crystallographic Data Centre
#                                CCDC 
#
#######################################################################
#
# If this CIF has been generated from an entry in the Cambridge 
# Structural Database, then it will include bibliographic, chemical, 
# crystal, experimental, refinement or atomic coordinate data resulting 
# from the CCDC's data processing and validation procedures.
#
#######################################################################

data_SEDQOJ
_symmetry_cell_setting           triclinic
_symmetry_space_group_name_H-M   'P -1'
_symmetry_Int_Tables_number      2
_space_group_name_Hall           '-P 1'
loop_
_symmetry_equiv_pos_site_id
_symmetry_equiv_pos_as_xyz
1 x,y,z
2 -x,-y,-z
_cell_length_a                   12.231(2)
_cell_length_b                   14.349(2)
_cell_length_c                   16.022(2)
_cell_angle_alpha                85.731(4)
_cell_angle_beta                 70.171(3)
_cell_angle_gamma                79.761(4)
_cell_volume                     2602.75
loop_
_atom_site_label
_atom_site_type_symbol
_atom_site_fract_x
_atom_site_fract_y
_atom_site_fract_z
Cd1 Cd 0.66855(6) 0.37598(4) 0.16046(5)
Cd2 Cd 0.69776(6) 0.84890(4) 0.63687(5)
C1 C 0.6393(7) 0.5899(5) 0.1053(6)
H1 H 0.6381 0.5933 0.1633
C2 C 0.6190(7) 0.6744(6) 0.0596(6)
C3 C 0.6222(7) 0.6686(6) -0.0262(6)
H2 H 0.6089 0.7232 -0.0587
C4 C 0.6453(7) 0.5819(6) -0.0631(6)
H3 H 0.6483 0.5769 -0.1214
C5 C 0.6642(8) 0.5013(6) -0.0137(7)
H4 H 0.6803 0.4427 -0.0403
C6 C 0.5950(7) 0.7621(5) 0.1087(6)
C7 C 0.5351(7) 0.8456(5) 0.0847(6)
H5 H 0.5080 0.8497 0.0366
C8 C 0.5189(7) 0.9218(6) 0.1373(6)
H6 H 0.4807 0.9794 0.1227
C9 C 0.6101(7) 0.8337(6) 0.2234(6)
C10 C 0.7409(7) 0.7127(5) 0.3076(6)
H7 H 0.7534 0.6924 0.3633
H8 H 0.7013 0.6672 0.2920
C11 C 0.8582(7) 0.7179(5) 0.2354(6)
H9 H 0.9031 0.7533 0.2575
H10 H 0.8434 0.7531 0.1852
C12 C 1.0130(8) 0.5718(6) 0.2784(7)
C13 C 1.1450(8) 0.4607(7) 0.3147(8)
H11 H 1.1968 0.4036 0.3047
C14 C 1.1341(7) 0.5129(6) 0.3858(7)
H12 H 1.1797 0.4936 0.4220
C15 C 1.0530(8) 0.5954(6) 0.4019(8)
C16 C 1.0298(8) 0.6546(7) 0.4775(7)
C17 C 0.9233(8) 0.7174(6) 0.5068(7)
H13 H 0.8725 0.7217 0.4742
C18 C 0.9650(9) 0.7660(7) 0.6236(7)
H14 H 0.9432 0.8024 0.6742
C19 C 1.0704(9) 0.7103(7) 0.5986(8)
H15 H 1.1219 0.7102 0.6299
C20 C 1.1023(8) 0.6526(7) 0.5253(7)
H16 H 1.1743 0.6122 0.5091
C21 C 0.9414(9) 0.3470(6) 0.1365(7)
H17 H 0.9155 0.3966 0.1764
C22 C 1.0580(9) 0.3048(8) 0.1111(7)
H18 H 1.1099 0.3256 0.1338
C23 C 1.0969(8) 0.2319(6) 0.0518(7)
H19 H 1.1752 0.2027 0.0344
C24 C 1.0199(8) 0.2025(6) 0.0187(6)
C25 C 0.9065(8) 0.2490(6) 0.0473(7)
H20 H 0.8541 0.2303 0.0238
C26 C 0.6802(7) 0.0666(6) -0.4087(6)
H21 H 0.6780 0.0663 -0.3501
C27 C 0.6667(8) 0.1537(6) -0.4494(7)
C28 C 0.6662(9) 0.1527(6) -0.5343(7)
H22 H 0.6516 0.2099 -0.5630
C29 C 0.6870(10) 0.0685(7) -0.5792(8)
H23 H 0.6959 0.0673 -0.6391
C30 C 0.6937(11) -0.0146(7) -0.5274(8)
H24 H 0.6965 -0.0717 -0.5526
C31 C 0.6441(7) 0.2398(5) -0.3981(6)
C32 C 0.6620(7) 0.3128(6) -0.2850(7)
C33 C 0.5601(8) 0.3993(6) -0.3666(8)
H25 H 0.5174 0.4559 -0.3787
C34 C 0.5779(7) 0.3232(6) -0.4187(7)
H26 H 0.5479 0.3264 -0.4651
C35 C 0.8343(7) 0.2139(5) -0.2176(6)
H27 H 0.8665 0.2020 -0.2808
H28 H 0.8965 0.2296 -0.1991
C36 C 0.7955(7) 0.1273(5) -0.1701(7)
H29 H 0.7304 0.1126 -0.1856
H30 H 0.7692 0.1365 -0.1065
C37 C 1.0131(8) 0.0483(6) -0.1455(7)
C38 C 1.0538(8) 0.1252(6) -0.0462(7)
C39 C 1.1575(8) 0.0606(6) -0.0594(7)
H31 H 1.2079 0.0632 -0.0275
C40 C 1.1810(9) -0.0071(6) -0.1221(8)
H32 H 1.2510 -0.0497 -0.1337
N1 N 0.6605(6) 0.5036(4) 0.0695(5)
N2 N 0.5541(6) 0.9190(4) 0.2074(5)
N3 N 0.6313(6) 0.7568(4) 0.1772(5)
N4 N 1.0858(7) 0.4872(5) 0.2598(6)
N5 N 0.9939(6) 0.6258(5) 0.3465(6)
N6 N 0.8894(7) 0.7713(5) 0.5781(6)
N7 N 0.8642(6) 0.3182(5) 0.1052(6)
N8 N 0.6128(6) 0.2157(5) 0.0961(6)
N9 N 0.6888(7) 0.4151(7) 0.3234(6)
N10 N 0.6961(7) -0.0171(5) -0.4452(5)
N11 N 0.6869(6) 0.2359(4) -0.3319(5)
N12 N 0.6015(6) 0.3956(5) -0.2992(6)
N13 N 0.9817(6) 0.1172(5) -0.0880(5)
N14 N 1.1107(7) -0.0157(5) -0.1672(6)
N15 N 0.6282(7) 0.6986(6) 0.5703(6)
N16 N 0.7085(7) 0.8729(6) 0.8053(6)
O1 O 0.6183(5) 0.2245(4) 0.1727(5)
O2 O 0.6394(5) 0.2823(4) 0.0424(5)
O3 O 0.5871(5) 0.1443(4) 0.0765(5)
O4 O 0.6907(5) 0.4770(4) 0.2628(5)
O5 O 0.6811(6) 0.3319(4) 0.3074(5)
O6 O 0.6883(7) 0.4389(5) 0.3957(5)
O7 O 0.4710(4) 0.4231(3) 0.2254(4)
H33 H 0.4591 0.4575 0.2696
H34 H 0.4378 0.3746 0.2430
O8 O 0.6385(5) 0.7006(4) 0.6459(5)
O9 O 0.6486(5) 0.7716(4) 0.5226(4)
O10 O 0.6015(7) 0.6315(4) 0.5476(5)
O11 O 0.7263(5) 0.9372(4) 0.7453(5)
O12 O 0.7041(5) 0.7918(4) 0.7837(5)
O13 O 0.6950(5) 0.8887(4) 0.8827(4)
O14 O 0.5025(4) 0.9033(3) 0.7054(4)
H35 H 0.4944 0.9347 0.7506
H36 H 0.4657 0.8565 0.7216
S1 S 0.7124(2) 0.31550(15) -0.19633(19)
S2 S 0.6517(2) 0.82924(15) 0.31903(18)
S3 S 0.9203(2) 0.02949(16) -0.2019(2)
S4 S 0.9467(2) 0.60463(17) 0.1972(2)
Cd2_2 Cd 0.69776(6) -0.15110(4) -0.36313(5)
N10_2 N 0.6961(7) 0.9829(5) 0.5548(5)
O15 O 0.006(2) 0.976(2) 0.4454(10)
H37 H -0.0135 1.0303 0.4240
H38 H 0.0798 0.9621 0.4218
loop_
_geom_bond_atom_site_label_1
_geom_bond_atom_site_label_2
_geom_bond_site_symmetry_1
_geom_bond_site_symmetry_2
Cd1 N1 1_555 1_555
Cd2 N6 1_555 1_555
C1 H1 1_555 1_555
C2 C1 1_555 1_555
C3 C2 1_555 1_555
H2 C3 1_555 1_555
C4 C3 1_555 1_555
H3 C4 1_555 1_555
C5 C4 1_555 1_555
H4 C5 1_555 1_555
C6 C2 1_555 1_555
C7 C6 1_555 1_555
H5 C7 1_555 1_555
C8 C7 1_555 1_555
H6 C8 1_555 1_555
C9 N2 1_555 1_555
C10 H7 1_555 1_555
H8 C10 1_555 1_555
C11 C10 1_555 1_555
H9 C11 1_555 1_555
H10 C11 1_555 1_555
C12 N4 1_555 1_555
C13 H11 1_555 1_555
C14 C13 1_555 1_555
H12 C14 1_555 1_555
C15 C14 1_555 1_555
C16 C15 1_555 1_555
C17 C16 1_555 1_555
H13 C17 1_555 1_555
C18 H14 1_555 1_555
C19 C18 1_555 1_555
H15 C19 1_555 1_555
C20 C16 1_555 1_555
H16 C20 1_555 1_555
C21 H17 1_555 1_555
C22 C21 1_555 1_555
H18 C22 1_555 1_555
C23 C22 1_555 1_555
H19 C23 1_555 1_555
C24 C23 1_555 1_555
C25 C24 1_555 1_555
H20 C25 1_555 1_555
C26 H21 1_555 1_555
C27 C26 1_555 1_555
C28 C27 1_555 1_555
H22 C28 1_555 1_555
C29 C28 1_555 1_555
H23 C29 1_555 1_555
C30 C29 1_555 1_555
H24 C30 1_555 1_555
C31 C27 1_555 1_555
C32 N11 1_555 1_555
C33 H25 1_555 1_555
C34 C31 1_555 1_555
H26 C34 1_555 1_555
C35 H27 1_555 1_555
H28 C35 1_555 1_555
C36 C35 1_555 1_555
H29 C36 1_555 1_555
H30 C36 1_555 1_555
C37 N13 1_555 1_555
C38 C24 1_555 1_555
C39 C38 1_555 1_555
H31 C39 1_555 1_555
C40 C39 1_555 1_555
H32 C40 1_555 1_555
N1 C1 1_555 1_555
N2 C8 1_555 1_555
N3 C6 1_555 1_555
N4 C13 1_555 1_555
N5 C12 1_555 1_555
N6 C17 1_555 1_555
N7 Cd1 1_555 1_555
N8 O1 1_555 1_555
N9 O4 1_555 1_555
N10 C26 1_555 1_555
N11 C31 1_555 1_555
N12 C32 1_555 1_555
N13 C38 1_555 1_555
N14 C37 1_555 1_555
N15 O8 1_555 1_555
N16 O11 1_555 1_555
O1 Cd1 1_555 1_555
O2 Cd1 1_555 1_555
O3 N8 1_555 1_555
O4 Cd1 1_555 1_555
O5 Cd1 1_555 1_555
O6 N9 1_555 1_555
O7 Cd1 1_555 1_555
H33 O7 1_555 1_555
H34 O7 1_555 1_555
O8 Cd2 1_555 1_555
O9 Cd2 1_555 1_555
O10 N15 1_555 1_555
O11 Cd2 1_555 1_555
O12 Cd2 1_555 1_555
O13 N16 1_555 1_555
O14 Cd2 1_555 1_555
H35 O14 1_555 1_555
H36 O14 1_555 1_555
O15 H37 1_555 1_555
H38 O15 1_555 1_555
S1 C32 1_555 1_555
S2 C9 1_555 1_555
S3 C36 1_555 1_555
S4 C11 1_555 1_555
Cd2_2 N10 1_555 1_555
N10_2 Cd2 1_555 1_555
C5 N1 1_555 1_555
C9 N3 1_555 1_555
C10 S2 1_555 1_555
C12 S4 1_555 1_555
C15 N5 1_555 1_555
C18 N6 1_555 1_555
C19 C20 1_555 1_555
C21 N7 1_555 1_555
C25 N7 1_555 1_555
C30 N10 1_555 1_555
C33 C34 1_555 1_555
C33 N12 1_555 1_555
C35 S1 1_555 1_555
C37 S3 1_555 1_555
C40 N14 1_555 1_555
N8 O2 1_555 1_555
N9 O5 1_555 1_555
N15 O9 1_555 1_555
N16 O12 1_555 1_555

#END
