
#######################################################################
#
#                 Cambridge Crystallographic Data Centre
#                                CCDC 
#
#######################################################################
#
# If this CIF has been generated from an entry in the Cambridge 
# Structural Database, then it will include bibliographic, chemical, 
# crystal, experimental, refinement or atomic coordinate data resulting 
# from the CCDC's data processing and validation procedures.
#
#######################################################################

data_SEDVEE
_symmetry_cell_setting           triclinic
_symmetry_space_group_name_H-M   'P -1'
_symmetry_Int_Tables_number      2
_space_group_name_Hall           '-P 1'
loop_
_symmetry_equiv_pos_site_id
_symmetry_equiv_pos_as_xyz
1 x,y,z
2 -x,-y,-z
_cell_length_a                   7.4070(8)
_cell_length_b                   10.0041(11)
_cell_length_c                   12.2534(13)
_cell_angle_alpha                83.2700(10)
_cell_angle_beta                 86.2260(10)
_cell_angle_gamma                68.7860(10)
_cell_volume                     840.351
loop_
_atom_site_label
_atom_site_type_symbol
_atom_site_fract_x
_atom_site_fract_y
_atom_site_fract_z
Zn1 Zn 0.18303(3) 0.06646(2) 1.02301(2)
O1 O 0.3924(2) -0.07099(16) 0.93378(12)
O2 O 0.6469(2) -0.0369(2) 0.84616(14)
O3 O -0.0094(2) 0.01518(17) 0.88979(12)
O4 O 0.0959(3) -0.18423(18) 0.80516(15)
N1 N 0.1286(2) 0.26331(18) 0.94648(14)
N2 N -0.0132(3) 0.47684(19) 0.85961(14)
C1 C 0.0883(3) -0.0620(2) 0.81407(17)
C2 C 0.1881(3) 0.0112(2) 0.72905(17)
C3 C 0.0994(4) 0.0596(3) 0.62868(19)
H1 H -0.0156 0.0463 0.6174
C4 C 0.1793(4) 0.1276(3) 0.5449(2)
H2 H 0.1180 0.1600 0.4780
C5 C 0.3498(4) 0.1473(3) 0.5609(2)
H3 H 0.4027 0.1945 0.5052
C6 C 0.4421(4) 0.0968(3) 0.6596(2)
H4 H 0.5585 0.1089 0.6693
C7 C 0.3642(3) 0.0278(2) 0.74496(17)
C8 C 0.4738(3) -0.0297(2) 0.84902(18)
C9 C 0.2685(3) 0.3202(2) 0.90924(18)
H5 H 0.4010 0.2750 0.9195
C10 C 0.1819(3) 0.4522(3) 0.85546(18)
H6 H 0.2423 0.5140 0.8223
C11 C -0.0407(3) 0.3606(2) 0.91478(17)
C12 C -0.2327(3) 0.3453(3) 0.9343(2)
H7 H -0.2167 0.2541 0.9754
H8 H -0.2895 0.3502 0.8651
H9 H -0.3159 0.4217 0.9751
C13 C -0.1649(4) 0.6060(2) 0.80947(19)
H10 H -0.1079 0.6771 0.7818
H11 H -0.2618 0.6472 0.8653
C14 C -0.2618(3) 0.5734(2) 0.71649(18)
C15 C -0.1589(4) 0.4830(4) 0.6403(3)
H12 H -0.0250 0.4402 0.6451
C16 C -0.2511(4) 0.4544(4) 0.5563(3)
H13 H -0.1776 0.3926 0.5057
C17 C -0.4508(3) 0.5156(3) 0.54542(18)
C18 C -0.5522(3) 0.6073(3) 0.62255(19)
H14 H -0.6860 0.6513 0.6178
C19 C -0.4592(3) 0.6351(3) 0.70658(19)
H15 H -0.5318 0.6968 0.7574
Zn1A Zn 0.81697(3) -0.06646(2) 0.97699(2)
Zn1A_2 Zn -0.18303(3) -0.06646(2) 0.97699(2)
Zn1A_3 Zn -1.18303(3) 0.93354(2) -0.02301(2)
Zn1_2 Zn -0.81697(3) 1.06646(2) 0.02301(2)
Zn1_3 Zn -1.81697(3) 1.06646(2) 0.02301(2)
O1A O -1.3924(2) 1.07099(16) 0.06622(12)
O2A O 0.3531(2) 0.0369(2) 1.15384(14)
O2_2 O -1.3531(2) 0.9631(2) -0.15384(14)
O2A_2 O -1.6469(2) 1.0369(2) 0.15384(14)
O3A O 0.0094(2) -0.01518(17) 1.11021(12)
O3_2 O -1.0094(2) 1.01518(17) -0.11021(12)
O3A_2 O -0.9906(2) 0.98482(17) 0.11021(12)
O4A O -1.0959(3) 1.18423(18) 0.19484(15)
N1A N -1.1286(2) 0.73669(18) 0.05352(14)
N2A N -0.9868(3) 0.52316(19) 0.14039(14)
C1A C -1.0883(3) 1.0620(2) 0.18593(17)
C2A C -1.1881(3) 0.9888(2) 0.27095(17)
C3A C -1.0994(4) 0.9404(3) 0.37132(19)
H1A H -0.9844 0.9537 0.3826
C4A C -1.1793(4) 0.8724(3) 0.4551(2)
H2A H -1.1180 0.8400 0.5220
C5A C -1.3498(4) 0.8527(3) 0.4391(2)
H3A H -1.4027 0.8055 0.4948
C6A C -1.4421(4) 0.9032(3) 0.3404(2)
H4A H -1.5585 0.8911 0.3307
C7A C -1.3642(3) 0.9722(2) 0.25504(17)
C8A C -1.4738(3) 1.0297(2) 0.15098(18)
C9A C -1.2685(3) 0.6798(2) 0.09076(18)
H5A H -1.4010 0.7250 0.0805
C10A C -1.1819(3) 0.5478(3) 0.14454(18)
H6A H -1.2423 0.4860 0.1777
C11A C -0.9593(3) 0.6394(2) 0.08522(17)
C12A C -0.7673(3) 0.6547(3) 0.0657(2)
H7A H -0.7833 0.7459 0.0246
H8A H -0.7105 0.6498 0.1349
H9A H -0.6841 0.5783 0.0249
C13A C -0.8351(4) 0.3940(2) 0.19053(19)
H10A H -0.8921 0.3229 0.2182
H11A H -0.7382 0.3528 0.1347
C14A C -0.7382(3) 0.4266(2) 0.28351(18)
C15A C -0.8411(4) 0.5170(4) 0.3597(3)
H12A H -0.9750 0.5598 0.3549
C16A C -0.7489(4) 0.5456(4) 0.4437(3)
H13A H -0.8224 0.6074 0.4943
C17A C -0.5492(3) 0.4844(3) 0.45458(18)
C18A C -0.4478(3) 0.3927(3) 0.37745(19)
H14A H -0.3140 0.3487 0.3822
C19A C -0.5408(3) 0.3649(3) 0.29342(19)
H15A H -0.4682 0.3032 0.2426
loop_
_geom_bond_atom_site_label_1
_geom_bond_atom_site_label_2
_geom_bond_site_symmetry_1
_geom_bond_site_symmetry_2
Zn1 O1 1_555 1_555
O1 C8 1_555 1_555
O2 C8 1_555 1_555
O3 Zn1 1_555 1_555
O4 C1 1_555 1_555
N1 Zn1 1_555 1_555
N2 C10 1_555 1_555
C1 O3 1_555 1_555
C2 C1 1_555 1_555
C3 C2 1_555 1_555
H1 C3 1_555 1_555
C4 C3 1_555 1_555
H2 C4 1_555 1_555
C5 C4 1_555 1_555
H3 C5 1_555 1_555
C6 C5 1_555 1_555
H4 C6 1_555 1_555
C7 C2 1_555 1_555
C8 C7 1_555 1_555
C9 N1 1_555 1_555
H5 C9 1_555 1_555
C10 C9 1_555 1_555
H6 C10 1_555 1_555
C11 N1 1_555 1_555
C12 C11 1_555 1_555
H7 C12 1_555 1_555
H8 C12 1_555 1_555
H9 C12 1_555 1_555
C13 N2 1_555 1_555
H10 C13 1_555 1_555
H11 C13 1_555 1_555
C14 C13 1_555 1_555
C15 C14 1_555 1_555
H12 C15 1_555 1_555
C16 C15 1_555 1_555
H13 C16 1_555 1_555
C17 C16 1_555 1_555
C18 C17 1_555 1_555
H14 C18 1_555 1_555
C19 C14 1_555 1_555
H15 C19 1_555 1_555
Zn1A O2 1_555 1_555
Zn1A_2 O3 1_555 1_555
Zn1A_3 O1A 1_555 1_555
Zn1_2 O3_2 1_555 1_555
Zn1_3 O2A_2 1_555 1_555
O1A C8A 1_555 1_555
O2A Zn1 1_555 1_555
O2_2 Zn1A_3 1_555 1_555
O2A_2 C8A 1_555 1_555
O3A Zn1 1_555 1_555
O3_2 Zn1A_3 1_555 1_555
O3A_2 Zn1A_3 1_555 1_555
O4A C1A 1_555 1_555
N1A Zn1A_3 1_555 1_555
N2A C10A 1_555 1_555
C1A O3A_2 1_555 1_555
C2A C1A 1_555 1_555
C3A C2A 1_555 1_555
H1A C3A 1_555 1_555
C4A C3A 1_555 1_555
H2A C4A 1_555 1_555
C5A C4A 1_555 1_555
H3A C5A 1_555 1_555
C6A C5A 1_555 1_555
H4A C6A 1_555 1_555
C7A C2A 1_555 1_555
C8A C7A 1_555 1_555
C9A N1A 1_555 1_555
H5A C9A 1_555 1_555
C10A C9A 1_555 1_555
H6A C10A 1_555 1_555
C11A N1A 1_555 1_555
C12A C11A 1_555 1_555
H7A C12A 1_555 1_555
H8A C12A 1_555 1_555
H9A C12A 1_555 1_555
C13A N2A 1_555 1_555
H10A C13A 1_555 1_555
H11A C13A 1_555 1_555
C14A C13A 1_555 1_555
C15A C14A 1_555 1_555
H12A C15A 1_555 1_555
C16A C15A 1_555 1_555
H13A C16A 1_555 1_555
C17A C17 1_555 1_555
C18A C17A 1_555 1_555
H14A C18A 1_555 1_555
C19A C14A 1_555 1_555
H15A C19A 1_555 1_555
N2 C11 1_555 1_555
C6 C7 1_555 1_555
C18 C19 1_555 1_555
Zn1A_2 O3A 1_555 1_555
Zn1_2 O3A_2 1_555 1_555
N2A C11A 1_555 1_555
C6A C7A 1_555 1_555
C16A C17A 1_555 1_555
C18A C19A 1_555 1_555

#END
