
#######################################################################
#
#                 Cambridge Crystallographic Data Centre
#                                CCDC 
#
#######################################################################
#
# If this CIF has been generated from an entry in the Cambridge 
# Structural Database, then it will include bibliographic, chemical, 
# crystal, experimental, refinement or atomic coordinate data resulting 
# from the CCDC's data processing and validation procedures.
#
#######################################################################

data_SEDVIG
_symmetry_cell_setting           monoclinic
_symmetry_space_group_name_H-M   'P 21'
_symmetry_Int_Tables_number      4
_space_group_name_Hall           'P 2yb'
loop_
_symmetry_equiv_pos_site_id
_symmetry_equiv_pos_as_xyz
1 x,y,z
2 -x,1/2+y,-z
_cell_length_a                   10.863(3)
_cell_length_b                   16.587(7)
_cell_length_c                   19.741(5)
_cell_angle_alpha                90
_cell_angle_beta                 102.93(3)
_cell_angle_gamma                90
_cell_volume                     3466.83
loop_
_atom_site_label
_atom_site_type_symbol
_atom_site_fract_x
_atom_site_fract_y
_atom_site_fract_z
Ho1 Ho -0.16941(5) -0.49980 0.10193(3)
Ho2 Ho -0.32154(4) -0.49516(4) -0.09661(3)
O1 O 0.0650(9) -0.4792(6) 0.1498(5)
O2 O -0.1163(9) -0.5747(7) 0.2053(6)
O3 O -0.3446(8) -0.4930(6) 0.1641(5)
O4 O -0.1458(10) -0.3885(6) 0.1789(6)
O5 O -0.5454(9) -0.5168(6) -0.1327(6)
O6 O -0.1536(8) -0.4940(6) -0.1596(5)
O7 O -0.3467(10) -0.6061(6) -0.1756(5)
O8 O -0.3892(9) -0.4081(6) -0.1985(5)
O9 O -0.1856(8) -0.3850(6) -0.0634(5)
O10 O -0.0990(8) -0.3862(6) 0.0520(5)
C1 C -0.1126(11) -0.3594(8) -0.0105(7)
C2 C -0.0332(11) -0.2829(8) -0.0170(7)
N1 N -0.0498(10) -0.2648(7) -0.0914(6)
C3 C -0.0712(12) -0.2116(8) 0.0220(7)
C4 C 0.0308(12) -0.1515(9) 0.0463(7)
C5 C 0.0672(11) -0.0974(8) -0.0063(7)
O11 O 0.0362(8) -0.1107(6) -0.0709(5)
O12 O 0.1464(7) -0.0374(6) 0.0128(5)
O13 O -0.3711(9) -0.6162(7) -0.0445(6)
O14 O -0.3011(8) -0.6106(8) 0.0725(5)
C6 C -0.3569(11) -0.6436(8) 0.0170(6)
C7 C -0.4148(12) -0.7284(8) 0.0209(7)
N2 N -0.3995(11) -0.7480(8) 0.0962(6)
C8 C -0.5472(12) -0.7376(9) -0.0206(7)
C9 C -0.5826(13) -0.8235(9) -0.0510(8)
C10 C -0.5986(11) -0.8880(8) 0.0034(8)
O15 O -0.5556(8) -0.8790(6) 0.0689(5)
O16 O -0.6571(8) -0.9534(6) -0.0194(5)
O11A O -0.0362(8) -0.6107(6) 0.0709(5)
O12A O -0.1464(7) -0.5374(6) -0.0128(5)
O16A O -0.3429(8) -0.4534(6) 0.0194(5)
O15A O -0.4444(8) -0.3790(6) -0.0689(5)
Ho1A Ho 0.16941(5) 0.00020 -0.10193(3)
Ho2A Ho 0.32154(4) 0.00484(4) 0.09661(3)
Ho2A_2 Ho -0.67846(4) -0.99516(4) 0.09661(3)
Ho1A_2 Ho -0.83059(5) -0.99980 -0.10193(3)
Ho3 Ho -0.8236(5) -0.52189(4) -0.60723(3)
Ho4 Ho -0.67983(4) -0.51230(4) -0.40800(3)
O17 O -1.0541(9) -0.5179(7) -0.6372(6)
O18 O -0.8760(9) -0.6106(6) -0.7071(5)
O19 O -0.6633(8) -0.5020(6) -0.6711(5)
O20 O -0.8943(10) -0.4293(6) -0.7014(5)
O21 O -0.4575(9) -0.5272(7) -0.3645(5)
O22 O -0.8660(9) -0.5134(6) -0.3565(6)
O23 O -0.6537(10) -0.6242(6) -0.3308(5)
O24 O -0.6350(9) -0.4480(7) -0.2990(5)
O25 O -0.8841(8) -0.4024(6) -0.5633(5)
O26 O -0.8246(8) -0.4055(6) -0.4478(5)
C11 C -0.8890(11) -0.3806(8) -0.5043(7)
C12 C -0.9820(12) -0.3155(8) -0.4991(7)
N3 N -0.9872(10) -0.3058(7) -0.4244(6)
C13 C -0.9442(12) -0.2358(9) -0.5289(7)
C14 C -1.0540(13) -0.1729(9) -0.5486(8)
C15 C -1.0846(12) -0.1257(8) -0.4888(7)
O27 O -1.0616(8) -0.1486(6) -0.4280(5)
O28 O -1.1460(8) -0.0605(6) -0.5050(5)
O29 O -0.6216(9) -0.6348(6) -0.4591(5)
O30 O -0.6843(8) -0.6273(6) -0.5766(5)
C16 C -0.6265(11) -0.6594(8) -0.5201(7)
C17 C -0.5649(12) -0.7415(8) -0.5273(7)
N4 N -0.5458(11) -0.7465(7) -0.6008(6)
C18 C -0.4410(14) -0.7574(9) -0.4745(8)
C19 C -0.4245(12) -0.8457(9) -0.4474(7)
C20 C -0.4040(11) -0.9061(8) -0.5001(7)
O31 O -0.4370(8) -0.8936(6) -0.5642(5)
O32 O -0.3527(8) -0.9734(6) -0.4783(5)
O27A O -0.9384(8) -0.6486(6) -0.5720(5)
O28A O -0.8540(8) -0.5605(6) -0.4950(5)
O32A O -0.6473(8) -0.4734(6) -0.5217(5)
O31A O -0.5630(8) -0.3936(6) -0.4358(5)
Ho3A Ho -1.1764(5) -0.02189(4) -0.39277(3)
Ho4A Ho -1.32017(4) -0.01230(4) -0.59200(3)
Ho4A_2 Ho -0.32017(4) -1.01230(4) -0.59200(3)
Ho3A_2 Ho -0.1764(5) -1.02189(4) -0.39277(3)
Cl1 Cl -0.3533(3) -0.1668(2) -0.1839(2)
O33 O -0.3909(11) -0.1807(8) -0.2573(6)
O34 O -0.4507(11) -0.1240(7) -0.1615(7)
O35 O -0.3359(11) -0.2439(7) -0.1454(7)
O36 O -0.2338(10) -0.1232(8) -0.1650(7)
Cl2 Cl -1.1930(4) -0.9800(3) -0.9530(2)
O37 O -1.1964(15) -1.0414(10) -0.8994(10)
O38 O -1.1882(13) -1.0154(10) -1.0187(7)
O39 O -1.0816(10) -0.9307(7) -0.9241(9)
O40 O -1.3005(11) -0.9283(10) -0.9554(8)
Cl3 Cl -0.1618(3) -0.3450(2) -0.2974(2)
O41 O -0.0633(9) -0.3963(7) -0.3103(6)
O42 O -0.1812(10) -0.2756(7) -0.3447(7)
O43 O -0.2822(10) -0.3886(7) -0.3112(6)
O44 O -0.1296(11) -0.3163(7) -0.2256(5)
Cl4 Cl -0.2652(3) -0.7202(3) -0.7054(2)
O45 O -0.2887(11) -0.6350(7) -0.7177(7)
O46 O -0.2832(11) -0.7407(7) -0.6387(6)
O47 O -0.1351(9) -0.7357(8) -0.7124(6)
O48 O -0.3498(11) -0.7646(9) -0.7580(6)
Cl5 Cl -0.3068(4) -0.3562(2) -0.6782(2)
O49 O -0.3518(18) -0.2920(8) -0.6406(8)
O50 O -0.3348(13) -0.3386(9) -0.7520(7)
O51 O -0.3699(15) -0.4291(9) -0.6686(9)
O52 O -0.1642(16) -0.3636(9) -0.6520(11)
Cl6 Cl -0.2043(3) -0.5156(3) -0.4666(2)
O53 O -0.2107(13) -0.5587(8) -0.5295(7)
O54 O -0.0913(10) -0.4675(7) -0.4563(6)
O55 O -0.3154(13) -0.4645(12) -0.4734(8)
O56 O -0.1949(13) -0.5712(10) -0.4096(7)
Cl7 Cl -0.0082(3) -0.1875(2) -0.7524(2)
O57 O -0.0830(15) -0.2258(9) -0.8159(7)
O58 O -0.0974(12) -0.1553(10) -0.7166(8)
O59 O 0.0626(14) -0.2450(9) -0.7067(8)
O60 O 0.0675(17) -0.1258(10) -0.7678(10)
Cl8 Cl -0.6669(4) -0.3381(3) -0.8219(3)
O61 O -0.6540(13) -0.3353(9) -0.7464(7)
O62 O -0.6053(15) -0.4116(8) -0.8438(9)
O63 O -0.5947(12) -0.2688(7) -0.8407(8)
O64 O -0.7971(13) -0.3310(8) -0.8559(9)
O65 O -1.1757(11) -0.9366(10) -0.7818(6)
O66 O 0.3652(10) -0.6679(7) 0.8084(7)
loop_
_geom_bond_atom_site_label_1
_geom_bond_atom_site_label_2
_geom_bond_site_symmetry_1
_geom_bond_site_symmetry_2
Ho1 O1 1_555 1_555
Ho2 O5 1_555 1_555
O2 Ho1 1_555 1_555
O3 Ho1 1_555 1_555
O4 Ho1 1_555 1_555
O6 Ho2 1_555 1_555
O7 Ho2 1_555 1_555
O8 Ho2 1_555 1_555
O9 Ho2 1_555 1_555
O10 Ho1 1_555 1_555
C1 O9 1_555 1_555
C2 C1 1_555 1_555
N1 C2 1_555 1_555
C3 C2 1_555 1_555
C4 C3 1_555 1_555
C5 C4 1_555 1_555
O11 C5 1_555 1_555
O12 C5 1_555 1_555
O13 Ho2 1_555 1_555
O14 Ho1 1_555 1_555
C6 O13 1_555 1_555
C7 C6 1_555 1_555
N2 C7 1_555 1_555
C8 C7 1_555 1_555
C9 C8 1_555 1_555
C10 C9 1_555 1_555
O15 C10 1_555 1_555
O16 C10 1_555 1_555
Ho3 O17 1_555 1_555
Ho4 O21 1_555 1_555
O18 Ho3 1_555 1_555
O19 Ho3 1_555 1_555
O20 Ho3 1_555 1_555
O22 Ho4 1_555 1_555
O23 Ho4 1_555 1_555
O24 Ho4 1_555 1_555
O25 Ho3 1_555 1_555
O26 Ho4 1_555 1_555
C11 O25 1_555 1_555
C12 C11 1_555 1_555
N3 C12 1_555 1_555
C13 C12 1_555 1_555
C14 C13 1_555 1_555
C15 C14 1_555 1_555
O27 C15 1_555 1_555
O28 C15 1_555 1_555
O29 Ho4 1_555 1_555
O30 Ho3 1_555 1_555
C16 O29 1_555 1_555
C17 C16 1_555 1_555
N4 C17 1_555 1_555
C18 C17 1_555 1_555
C19 C18 1_555 1_555
C20 C19 1_555 1_555
O31 C20 1_555 1_555
O32 C20 1_555 1_555
Cl1 O33 1_555 1_555
O34 Cl1 1_555 1_555
O35 Cl1 1_555 1_555
O36 Cl1 1_555 1_555
Cl2 O37 1_555 1_555
O38 Cl2 1_555 1_555
O39 Cl2 1_555 1_555
O40 Cl2 1_555 1_555
Cl3 O41 1_555 1_555
O42 Cl3 1_555 1_555
O43 Cl3 1_555 1_555
O44 Cl3 1_555 1_555
Cl4 O45 1_555 1_555
O46 Cl4 1_555 1_555
O47 Cl4 1_555 1_555
O48 Cl4 1_555 1_555
Cl5 O49 1_555 1_555
O50 Cl5 1_555 1_555
O51 Cl5 1_555 1_555
O52 Cl5 1_555 1_555
Cl6 O53 1_555 1_555
O54 Cl6 1_555 1_555
O55 Cl6 1_555 1_555
O56 Cl6 1_555 1_555
Cl7 O57 1_555 1_555
O58 Cl7 1_555 1_555
O59 Cl7 1_555 1_555
O60 Cl7 1_555 1_555
Cl8 O61 1_555 1_555
O62 Cl8 1_555 1_555
O63 Cl8 1_555 1_555
O64 Cl8 1_555 1_555
O11A Ho1 1_555 1_555
O12A Ho1 1_555 1_555
O16A Ho1 1_555 1_555
O15A Ho2 1_555 1_555
Ho1A O11 1_555 1_555
Ho2A O12 1_555 1_555
Ho2A_2 O15 1_555 1_555
Ho1A_2 O16 1_555 1_555
O27A Ho3 1_555 1_555
O28A Ho3 1_555 1_555
O32A Ho3 1_555 1_555
O31A Ho4 1_555 1_555
Ho3A O27 1_555 1_555
Ho4A O28 1_555 1_555
Ho4A_2 O31 1_555 1_555
Ho3A_2 O32 1_555 1_555
Ho2 O12A 1_555 1_555
Ho2 O16A 1_555 1_555
O10 C1 1_555 1_555
O12 Ho1A 1_555 1_555
O14 C6 1_555 1_555
O16 Ho2A_2 1_555 1_555
Ho4 O28A 1_555 1_555
Ho4 O32A 1_555 1_555
O26 C11 1_555 1_555
O28 Ho3A 1_555 1_555
O30 C16 1_555 1_555
O32 Ho4A_2 1_555 1_555

#END
