
#######################################################################
#
#                 Cambridge Crystallographic Data Centre
#                                CCDC 
#
#######################################################################
#
# If this CIF has been generated from an entry in the Cambridge 
# Structural Database, then it will include bibliographic, chemical, 
# crystal, experimental, refinement or atomic coordinate data resulting 
# from the CCDC's data processing and validation procedures.
#
#######################################################################

data_SEDWIJ
_symmetry_cell_setting           triclinic
_symmetry_space_group_name_H-M   'P -1'
_symmetry_Int_Tables_number      2
_space_group_name_Hall           '-P 1'
loop_
_symmetry_equiv_pos_site_id
_symmetry_equiv_pos_as_xyz
1 x,y,z
2 -x,-y,-z
_cell_length_a                   9.2041(16)
_cell_length_b                   12.332(2)
_cell_length_c                   14.090(3)
_cell_angle_alpha                71.190(3)
_cell_angle_beta                 74.876(3)
_cell_angle_gamma                74.533(3)
_cell_volume                     1431.98
loop_
_atom_site_label
_atom_site_type_symbol
_atom_site_fract_x
_atom_site_fract_y
_atom_site_fract_z
Zn1 Zn 0.91747(3) 0.92372(3) 0.61359(2)
O1 O 0.9526(2) 0.88670(17) 0.76942(15)
H1 H 1.0048 0.9160 0.7938
H2 H 0.9411 0.8175 0.8039
N1 N 0.7297(3) 0.8205(2) 0.67774(19)
N2 N 0.4537(3) 0.5715(3) 0.8421(2)
N3 N 0.3678(3) 0.5873(3) 0.9198(2)
N4 N 0.1107(3) 0.3262(2) 1.0879(2)
N5 N 1.0820(3) 0.76340(19) 0.59894(17)
N6 N 1.3711(3) 0.4383(2) 0.58385(19)
N7 N 1.4427(3) 0.3920(2) 0.6549(2)
N8 N 1.7414(2) 0.07172(19) 0.64349(17)
N9 N 0.9050(3) 0.9726(2) 0.45247(18)
N10 N 0.7885(3) 0.9955(2) 0.4208(2)
N11 N 0.6769(4) 1.0188(4) 0.3907(3)
C1 C 0.7181(4) 0.7359(3) 0.6417(3)
H3 H 0.7748 0.7313 0.5775
C2 C 0.6271(4) 0.6556(3) 0.6946(3)
H4 H 0.6248 0.5967 0.6674
C3 C 0.5394(3) 0.6632(3) 0.7880(2)
C4 C 0.5433(3) 0.7537(3) 0.8244(2)
H5 H 0.4820 0.7633 0.8862
C5 C 0.6398(3) 0.8293(3) 0.7673(2)
H6 H 0.6426 0.8897 0.7924
C6 C 0.2817(4) 0.4951(3) 0.9725(3)
C7 C 0.2896(4) 0.4000(3) 0.9381(3)
H7 H 0.3524 0.3907 0.8766
C8 C 0.2004(4) 0.3191(3) 0.9988(3)
H8 H 0.2038 0.2558 0.9755
C9 C 0.1041(4) 0.4190(3) 1.1182(3)
H9 H 0.0404 0.4264 1.1799
C10 C 0.1874(4) 0.5056(3) 1.0625(3)
H10 H 0.1788 0.5696 1.0862
C11 C 1.1810(3) 0.7101(3) 0.6625(2)
H11 H 1.1840 0.7465 0.7102
C12 C 1.2783(3) 0.6046(3) 0.6612(2)
H12 H 1.3456 0.5710 0.7066
C13 C 1.2746(3) 0.5492(2) 0.5914(2)
C14 C 1.1759(3) 0.6021(2) 0.5240(2)
H13 H 1.1715 0.5671 0.4757
C15 C 1.0828(3) 0.7096(2) 0.5303(2)
H14 H 1.0171 0.7462 0.4840
C16 C 1.5377(3) 0.2805(2) 0.6509(2)
C17 C 1.6618(3) 0.2457(2) 0.6988(2)
H15 H 1.6775 0.2909 0.7354
C18 C 1.7623(3) 0.1423(2) 0.6912(2)
H16 H 1.8487 0.1206 0.7207
C19 C 1.6141(3) 0.1034(3) 0.6038(2)
H17 H 1.5950 0.0526 0.5741
C20 C 1.5097(3) 0.2070(3) 0.6044(2)
H18 H 1.4238 0.2266 0.5746
Zn1_2 Zn -0.08253(3) 1.92372(3) 0.61359(2)
Zn1_3 Zn 1.91747(3) -0.07628(3) 0.61359(2)
Zn1A Zn 1.08253(3) 1.07628(3) 0.38641(2)
O1_2 O -0.0474(2) 1.88670(17) 0.76942(15)
H1_2 H 0.0048 1.9160 0.7938
H2_2 H -0.0589 1.8175 0.8039
N1_2 N -0.2703(3) 1.8205(2) 0.67774(19)
N2_2 N -0.5463(3) 1.5715(3) 0.8421(2)
N3_2 N -0.6322(3) 1.5873(3) 0.9198(2)
N4_2 N -0.8893(3) 1.3262(2) 1.0879(2)
N5_2 N 0.0820(3) 1.76340(19) 0.59894(17)
N6_2 N 0.3711(3) 1.4383(2) 0.58385(19)
N7_2 N 0.4427(3) 1.3920(2) 0.6549(2)
N8_2 N 0.7414(2) 1.07172(19) 0.64349(17)
N8_3 N -0.2586(2) 2.07172(19) 0.64349(17)
N9A N 1.0950(3) 1.0274(2) 0.54753(18)
N9_2 N -0.0950(3) 1.9726(2) 0.45247(18)
N9A_2 N 0.0950(3) 2.0274(2) 0.54753(18)
N10A N 1.2115(3) 1.0045(2) 0.5792(2)
N11A N 1.3231(4) 0.9812(4) 0.6093(3)
C1_2 C -0.2819(4) 1.7359(3) 0.6417(3)
H3_2 H -0.2252 1.7313 0.5775
C2_2 C -0.3729(4) 1.6556(3) 0.6946(3)
H4_2 H -0.3752 1.5967 0.6674
C3_2 C -0.4606(3) 1.6632(3) 0.7880(2)
C4_2 C -0.4567(3) 1.7537(3) 0.8244(2)
H5_2 H -0.5180 1.7633 0.8862
C5_2 C -0.3602(3) 1.8293(3) 0.7673(2)
H6_2 H -0.3574 1.8897 0.7924
C6_2 C -0.7183(4) 1.4951(3) 0.9725(3)
C7_2 C -0.7104(4) 1.4000(3) 0.9381(3)
H7_2 H -0.6476 1.3907 0.8766
C8_2 C -0.7996(4) 1.3191(3) 0.9988(3)
H8_2 H -0.7962 1.2558 0.9755
C9_2 C -0.8959(4) 1.4190(3) 1.1182(3)
H9_2 H -0.9596 1.4264 1.1799
C10_2 C -0.8126(4) 1.5056(3) 1.0625(3)
H10_2 H -0.8212 1.5696 1.0862
C11_2 C 0.1810(3) 1.7101(3) 0.6625(2)
H11_2 H 0.1840 1.7465 0.7102
C12_2 C 0.2783(3) 1.6046(3) 0.6612(2)
H12_2 H 0.3456 1.5710 0.7066
C13_2 C 0.2746(3) 1.5492(2) 0.5914(2)
C14_2 C 0.1759(3) 1.6021(2) 0.5240(2)
H13_2 H 0.1715 1.5671 0.4757
C15_2 C 0.0828(3) 1.7096(2) 0.5303(2)
H14_2 H 0.0171 1.7462 0.4840
C16_2 C 0.5377(3) 1.2805(2) 0.6509(2)
C17_2 C 0.6618(3) 1.2457(2) 0.6988(2)
H15_2 H 0.6775 1.2909 0.7354
C18_2 C 0.7623(3) 1.1423(2) 0.6912(2)
H16_2 H 0.8487 1.1206 0.7207
C19_2 C 0.6141(3) 1.1034(3) 0.6038(2)
H17_2 H 0.5950 1.0526 0.5741
C20_2 C 0.5097(3) 1.2070(3) 0.6044(2)
H18_2 H 0.4238 1.2266 0.5746
N12 N 0.1334(3) 0.9522(3) 0.8663(2)
N13 N 0.4490(3) 0.9750(3) 1.0253(2)
C21 C 0.2208(4) 1.0332(3) 0.8249(3)
H19 H 0.2097 1.0833 0.7607
C22 C 0.3260(4) 1.0467(3) 0.8717(3)
H20 H 0.3849 1.1038 0.8398
C23 C 0.3415(4) 0.9729(3) 0.9673(2)
C24 C 0.2491(4) 0.8922(3) 1.0123(3)
H21 H 0.2544 0.8436 1.0778
C25 C 0.1493(4) 0.8844(3) 0.9595(3)
H22 H 0.0887 0.8282 0.9904
N12A N 0.8666(3) 1.0478(3) 1.1337(2)
N13A N 0.5510(3) 1.0250(3) 0.9747(2)
C21A C 0.7792(4) 0.9668(3) 1.1751(3)
H19A H 0.7903 0.9167 1.2393
C22A C 0.6740(4) 0.9533(3) 1.1283(3)
H20A H 0.6151 0.8962 1.1602
C23A C 0.6585(4) 1.0271(3) 1.0327(2)
C24A C 0.7509(4) 1.1078(3) 0.9877(3)
H21A H 0.7456 1.1564 0.9222
C25A C 0.8507(4) 1.1156(3) 1.0405(3)
H22A H 0.9113 1.1718 1.0096
Cl1 Cl 0.01643(10) 0.33866(8) 0.72705(7)
O2 O -0.0766(4) 0.4483(3) 0.6857(3)
O3 O -0.0774(4) 0.2662(3) 0.8016(2)
O4 O 0.0926(4) 0.2854(3) 0.6474(2)
O5 O 0.1243(3) 0.3551(3) 0.7723(2)
loop_
_geom_bond_atom_site_label_1
_geom_bond_atom_site_label_2
_geom_bond_site_symmetry_1
_geom_bond_site_symmetry_2
Zn1 O1 1_555 1_555
O1 H1 1_555 1_555
H2 O1 1_555 1_555
N1 Zn1 1_555 1_555
N2 N3 1_555 1_555
N3 C6 1_555 1_555
N4 C8 1_555 1_555
N5 Zn1 1_555 1_555
N6 N7 1_555 1_555
N7 C16 1_555 1_555
N8 C18 1_555 1_555
N9 Zn1 1_555 1_555
N10 N9 1_555 1_555
N11 N10 1_555 1_555
C1 N1 1_555 1_555
H3 C1 1_555 1_555
C2 C1 1_555 1_555
H4 C2 1_555 1_555
C3 N2 1_555 1_555
C4 C3 1_555 1_555
H5 C4 1_555 1_555
C5 N1 1_555 1_555
H6 C5 1_555 1_555
C6 C7 1_555 1_555
C7 H7 1_555 1_555
C8 C7 1_555 1_555
H8 C8 1_555 1_555
C9 N4 1_555 1_555
H9 C9 1_555 1_555
C10 C6 1_555 1_555
H10 C10 1_555 1_555
C11 N5 1_555 1_555
H11 C11 1_555 1_555
C12 C11 1_555 1_555
H12 C12 1_555 1_555
C13 N6 1_555 1_555
C14 C13 1_555 1_555
H13 C14 1_555 1_555
C15 N5 1_555 1_555
H14 C15 1_555 1_555
C16 C17 1_555 1_555
C17 H15 1_555 1_555
C18 C17 1_555 1_555
H16 C18 1_555 1_555
C19 N8 1_555 1_555
H17 C19 1_555 1_555
C20 C16 1_555 1_555
H18 C20 1_555 1_555
N12 C21 1_555 1_555
N13 C23 1_555 1_555
C21 H19 1_555 1_555
C22 C21 1_555 1_555
H20 C22 1_555 1_555
C23 C22 1_555 1_555
C24 C23 1_555 1_555
H21 C24 1_555 1_555
C25 N12 1_555 1_555
H22 C25 1_555 1_555
Cl1 O2 1_555 1_555
O3 Cl1 1_555 1_555
O4 Cl1 1_555 1_555
O5 Cl1 1_555 1_555
Zn1_2 O1_2 1_555 1_555
Zn1_3 N8 1_555 1_555
Zn1A N9 1_555 1_555
O1_2 H1_2 1_555 1_555
H2_2 O1_2 1_555 1_555
N1_2 Zn1_2 1_555 1_555
N2_2 N3_2 1_555 1_555
N3_2 C6_2 1_555 1_555
N4_2 C8_2 1_555 1_555
N5_2 Zn1_2 1_555 1_555
N6_2 N7_2 1_555 1_555
N7_2 C16_2 1_555 1_555
N8_2 Zn1 1_555 1_555
N8_3 Zn1_2 1_555 1_555
N9A Zn1 1_555 1_555
N9_2 Zn1_2 1_555 1_555
N9A_2 Zn1_2 1_555 1_555
N10A N9A 1_555 1_555
N11A N10A 1_555 1_555
C1_2 N1_2 1_555 1_555
H3_2 C1_2 1_555 1_555
C2_2 C1_2 1_555 1_555
H4_2 C2_2 1_555 1_555
C3_2 N2_2 1_555 1_555
C4_2 C3_2 1_555 1_555
H5_2 C4_2 1_555 1_555
C5_2 N1_2 1_555 1_555
H6_2 C5_2 1_555 1_555
C6_2 C7_2 1_555 1_555
C7_2 H7_2 1_555 1_555
C8_2 C7_2 1_555 1_555
H8_2 C8_2 1_555 1_555
C9_2 N4_2 1_555 1_555
H9_2 C9_2 1_555 1_555
C10_2 C6_2 1_555 1_555
H10_2 C10_2 1_555 1_555
C11_2 N5_2 1_555 1_555
H11_2 C11_2 1_555 1_555
C12_2 C11_2 1_555 1_555
H12_2 C12_2 1_555 1_555
C13_2 N6_2 1_555 1_555
C14_2 C13_2 1_555 1_555
H13_2 C14_2 1_555 1_555
C15_2 N5_2 1_555 1_555
H14_2 C15_2 1_555 1_555
C16_2 C17_2 1_555 1_555
C17_2 H15_2 1_555 1_555
C18_2 N8_2 1_555 1_555
H16_2 C18_2 1_555 1_555
C19_2 N8_2 1_555 1_555
H17_2 C19_2 1_555 1_555
C20_2 C16_2 1_555 1_555
H18_2 C20_2 1_555 1_555
N12A C21A 1_555 1_555
N13A N13 1_555 1_555
C21A H19A 1_555 1_555
C22A C21A 1_555 1_555
H20A C22A 1_555 1_555
C23A N13A 1_555 1_555
C24A C23A 1_555 1_555
H21A C24A 1_555 1_555
C25A N12A 1_555 1_555
H22A C25A 1_555 1_555
C2 C3 1_555 1_555
C4 C5 1_555 1_555
C9 C10 1_555 1_555
C12 C13 1_555 1_555
C14 C15 1_555 1_555
C19 C20 1_555 1_555
C24 C25 1_555 1_555
Zn1A N9A 1_555 1_555
C2_2 C3_2 1_555 1_555
C4_2 C5_2 1_555 1_555
C9_2 C10_2 1_555 1_555
C12_2 C13_2 1_555 1_555
C14_2 C15_2 1_555 1_555
C17_2 C18_2 1_555 1_555
C19_2 C20_2 1_555 1_555
C22A C23A 1_555 1_555
C24A C25A 1_555 1_555

#END
