
#######################################################################
#
#                 Cambridge Crystallographic Data Centre
#                                CCDC 
#
#######################################################################
#
# If this CIF has been generated from an entry in the Cambridge 
# Structural Database, then it will include bibliographic, chemical, 
# crystal, experimental, refinement or atomic coordinate data resulting 
# from the CCDC's data processing and validation procedures.
#
#######################################################################

data_SEFMOH
_symmetry_cell_setting           triclinic
_symmetry_space_group_name_H-M   'P -1'
_symmetry_Int_Tables_number      2
_space_group_name_Hall           '-P 1'
loop_
_symmetry_equiv_pos_site_id
_symmetry_equiv_pos_as_xyz
1 x,y,z
2 -x,-y,-z
_cell_length_a                   7.044(9)
_cell_length_b                   7.962(9)
_cell_length_c                   8.398(10)
_cell_angle_alpha                90.669(7)
_cell_angle_beta                 108.583(18)
_cell_angle_gamma                94.578(19)
_cell_volume                     444.672
loop_
_atom_site_label
_atom_site_type_symbol
_atom_site_fract_x
_atom_site_fract_y
_atom_site_fract_z
Mn1 Mn 0.0000 0.5000 0.5000
F1 F 0.4404(5) 1.0538(3) 0.6717(3)
F2 F 0.4326(5) 0.6868(3) 1.1007(3)
O1 O 0.1775(4) 0.6782(3) 0.6978(3)
O2 O 0.4958(5) 0.6478(5) 0.7153(5)
O3 O 0.2717(5) 0.3926(4) 0.4920(4)
N1 N -0.0073(5) 0.3075(4) 0.6978(4)
C1 C -0.0653(9) 0.1456(5) 0.6543(5)
C2 C -0.0667(8) 0.0223(5) 0.7672(5)
C3 C -0.0018(5) 0.0640(4) 0.9367(4)
C4 C 0.0639(7) 0.2314(5) 0.9821(5)
C5 C 0.0597(7) 0.3474(5) 0.8609(5)
C6 C 0.4710(6) 1.0254(5) 0.8354(4)
C7 C 0.4349(5) 0.8630(5) 0.8821(4)
C8 C 0.4649(6) 0.8409(5) 1.0490(5)
C9 C 0.3665(6) 0.7160(5) 0.7538(4)
H1 H -0.1075 0.1141 0.5406
H2 H -0.1111 -0.0886 0.7293
H3 H 0.1112 0.2658 1.0951
H4 H 0.1060 0.4589 0.8951
H5 H 0.3085 0.3731 0.4127
H6 H 0.3724 0.4520 0.5934
Mn1_2 Mn 0.0000 -0.5000 1.5000
Mn1_3 Mn 1.0000 1.5000 1.5000
F1A F 0.5596(5) 0.9462(3) 1.3283(3)
F2A F 0.5674(5) 1.3132(3) 0.8993(3)
O1A O 0.8225(4) 1.3218(3) 1.3022(3)
O1A_2 O -0.1775(4) 0.3218(3) 0.3022(3)
O2A O 0.5042(5) 1.3522(5) 1.2847(5)
O3A O -0.2717(5) 0.6074(4) 0.5080(4)
N1A N 0.0073(5) -0.3075(4) 1.3022(4)
N1A_2 N 0.0073(5) 0.6925(4) 0.3022(4)
C1A C 0.0653(9) -0.1456(5) 1.3457(5)
C2A C 0.0667(8) -0.0223(5) 1.2328(5)
C3A C 0.0018(5) -0.0640(4) 1.0633(4)
C4A C -0.0639(7) -0.2314(5) 1.0179(5)
C5A C -0.0597(7) -0.3474(5) 1.1391(5)
C6A C 0.5290(6) 0.9746(5) 1.1646(4)
C7A C 0.5651(5) 1.1370(5) 1.1179(4)
C8A C 0.5351(6) 1.1591(5) 0.9510(5)
C9A C 0.6335(6) 1.2840(5) 1.2462(4)
H1A H 0.1075 -0.1141 1.4594
H2A H 0.1111 0.0886 1.2707
H3A H -0.1112 -0.2658 0.9049
H4A H -0.1060 -0.4589 1.1049
H5A H -0.3085 0.6269 0.5873
H6A H -0.3724 0.5480 0.4066
loop_
_geom_bond_atom_site_label_1
_geom_bond_atom_site_label_2
_geom_bond_site_symmetry_1
_geom_bond_site_symmetry_2
Mn1 O1 1_555 1_555
F1 C6 1_555 1_555
F2 C8 1_555 1_555
O1 C9 1_555 1_555
O2 C9 1_555 1_555
O3 Mn1 1_555 1_555
N1 Mn1 1_555 1_555
C1 N1 1_555 1_555
C2 C1 1_555 1_555
C3 C2 1_555 1_555
C4 C3 1_555 1_555
C5 N1 1_555 1_555
C6 C7 1_555 1_555
C7 C8 1_555 1_555
C8 C6A 1_555 1_555
C9 C7 1_555 1_555
H1 C1 1_555 1_555
H2 C2 1_555 1_555
H3 C4 1_555 1_555
H4 C5 1_555 1_555
H5 O3 1_555 1_555
H6 O3 1_555 1_555
Mn1_2 N1A 1_555 1_555
Mn1_3 O1A 1_555 1_555
F1A C6A 1_555 1_555
F2A C8A 1_555 1_555
O1A C9A 1_555 1_555
O1A_2 Mn1 1_555 1_555
O2A C9A 1_555 1_555
O3A Mn1 1_555 1_555
N1A C1A 1_555 1_555
N1A_2 Mn1 1_555 1_555
C1A C2A 1_555 1_555
C2A C3A 1_555 1_555
C3A C3 1_555 1_555
C4A C3A 1_555 1_555
C5A N1A 1_555 1_555
C6A C7A 1_555 1_555
C7A C8A 1_555 1_555
C8A C6 1_555 1_555
C9A C7A 1_555 1_555
H1A C1A 1_555 1_555
H2A C2A 1_555 1_555
H3A C4A 1_555 1_555
H4A C5A 1_555 1_555
H5A O3A 1_555 1_555
H6A O3A 1_555 1_555
C4 C5 1_555 1_555
C4A C5A 1_555 1_555

#END
