
#######################################################################
#
#                 Cambridge Crystallographic Data Centre
#                                CCDC 
#
#######################################################################
#
# If this CIF has been generated from an entry in the Cambridge 
# Structural Database, then it will include bibliographic, chemical, 
# crystal, experimental, refinement or atomic coordinate data resulting 
# from the CCDC's data processing and validation procedures.
#
#######################################################################

data_SEFNEX
_symmetry_cell_setting           monoclinic
_symmetry_space_group_name_H-M   'P 21/n'
_symmetry_Int_Tables_number      14
_space_group_name_Hall           '-P 2yn'
loop_
_symmetry_equiv_pos_site_id
_symmetry_equiv_pos_as_xyz
1 x,y,z
2 1/2-x,1/2+y,1/2-z
3 -x,-y,-z
4 1/2+x,1/2-y,1/2+z
_cell_length_a                   13.5979(15)
_cell_length_b                   8.1208(5)
_cell_length_c                   18.1611(19)
_cell_angle_alpha                90
_cell_angle_beta                 111.895(5)
_cell_angle_gamma                90
_cell_volume                     1860.8
loop_
_atom_site_label
_atom_site_type_symbol
_atom_site_fract_x
_atom_site_fract_y
_atom_site_fract_z
Cd1 Cd 0.314796(8) 0.414519(13) 0.081535(6)
O1 O 0.16527(9) 0.31358(14) 0.10184(8)
O2 O 0.31312(9) 0.17129(14) 0.16090(7)
O3 O -0.07498(9) -0.77035(16) 0.52922(7)
O4 O -0.24792(9) -0.75515(14) 0.46192(7)
O5 O 0.48267(10) 0.46469(15) 0.17342(8)
O6 O 0.37776(10) 0.62968(19) 0.20133(8)
O7 O 0.54807(11) 0.64479(17) 0.26641(8)
O8 O 0.32922(10) 0.66350(15) 0.02118(8)
O9 O 0.17081(11) 0.63653(18) 0.01964(8)
O10 O 0.22024(12) 0.87000(18) -0.01406(10)
N1 N 0.03721(10) -0.25148(15) 0.12181(7)
N2 N -0.09797(10) -0.45276(16) 0.28943(8)
N3 N 0.47003(11) 0.58307(15) 0.21478(8)
N4 N 0.23807(11) 0.72679(17) 0.00777(8)
C1 C 0.21428(13) 0.18542(19) 0.13465(9)
C2 C 0.14983(12) 0.03506(19) 0.13669(9)
C3 C 0.03975(12) 0.03591(19) 0.10089(9)
H1 H 0.0036 0.1338 0.0820
C4 C -0.01512(12) -0.10957(19) 0.09366(9)
H2 H -0.0886 -0.1101 0.0693
C5 C 0.14347(12) -0.25379(19) 0.15986(9)
H3 H 0.1777 -0.3522 0.1804
C6 C 0.20132(12) -0.1113(2) 0.16836(10)
H4 H 0.2744 -0.1128 0.1951
C7 C -0.02153(13) -0.41064(17) 0.10673(10)
H5 H 0.0134 -0.4880 0.0838
H6 H -0.0927 -0.3928 0.0683
C8 C -0.02818(13) -0.48545(19) 0.18156(10)
H7 H -0.0686 -0.5869 0.1678
H8 H 0.0427 -0.5126 0.2181
C9 C -0.07974(14) -0.3705(2) 0.22271(10)
H9 H -0.0346 -0.2753 0.2427
H10 H -0.1470 -0.3322 0.1845
C10 C -0.19659(13) -0.4556(2) 0.29093(10)
H11 H -0.2516 -0.4014 0.2516
C11 C -0.21614(12) -0.5383(2) 0.35028(10)
H12 H -0.2841 -0.5396 0.3512
C12 C -0.13398(12) -0.61953(19) 0.40866(9)
C13 C -0.03220(13) -0.6080(2) 0.40812(10)
H13 H 0.0245 -0.6573 0.4481
C14 C -0.01607(12) -0.5232(2) 0.34808(10)
H14 H 0.0520 -0.5143 0.3479
C15 C -0.15329(12) -0.72167(18) 0.47137(9)
Cd1C Cd -0.185204(8) -0.914519(13) 0.581535(6)
O3C O 0.42502(9) 0.27035(16) 0.02922(7)
O4C O 0.25208(9) 0.25515(14) -0.03808(7)
O11 O 0.33244(14) 0.5743(2) -0.13320(11)
H15 H 0.353(2) 0.604(4) -0.0805(8)
H16 H 0.3969(14) 0.569(4) -0.139(2)
loop_
_geom_bond_atom_site_label_1
_geom_bond_atom_site_label_2
_geom_bond_site_symmetry_1
_geom_bond_site_symmetry_2
Cd1 O1 1_555 1_555
O1 C1 1_555 1_555
O2 Cd1 1_555 1_555
O3 C15 1_555 1_555
O4 C15 1_555 1_555
O5 Cd1 1_555 1_555
O6 N3 1_555 1_555
O7 N3 1_555 1_555
O8 Cd1 1_555 1_555
O9 Cd1 1_555 1_555
O10 N4 1_555 1_555
N1 C4 1_555 1_555
N2 C9 1_555 1_555
N3 O5 1_555 1_555
N4 O8 1_555 1_555
C1 O2 1_555 1_555
C2 C1 1_555 1_555
C3 C2 1_555 1_555
H1 C3 1_555 1_555
C4 C3 1_555 1_555
H2 C4 1_555 1_555
C5 N1 1_555 1_555
H3 C5 1_555 1_555
C6 C2 1_555 1_555
H4 C6 1_555 1_555
C7 N1 1_555 1_555
H5 C7 1_555 1_555
H6 C7 1_555 1_555
C8 C7 1_555 1_555
H7 C8 1_555 1_555
H8 C8 1_555 1_555
C9 C8 1_555 1_555
H9 C9 1_555 1_555
H10 C9 1_555 1_555
C10 N2 1_555 1_555
H11 C10 1_555 1_555
C11 C10 1_555 1_555
H12 C11 1_555 1_555
C12 C11 1_555 1_555
C13 C12 1_555 1_555
H13 C13 1_555 1_555
C14 N2 1_555 1_555
H14 C14 1_555 1_555
C15 C12 1_555 1_555
O11 H15 1_555 1_555
H16 O11 1_555 1_555
Cd1C O3 1_555 1_555
O3C Cd1 1_555 1_555
O4C Cd1 1_555 1_555
O4 Cd1C 1_555 1_555
O9 N4 1_555 1_555
C5 C6 1_555 1_555
C13 C14 1_555 1_555

#END
