
#######################################################################
#
#                 Cambridge Crystallographic Data Centre
#                                CCDC 
#
#######################################################################
#
# If this CIF has been generated from an entry in the Cambridge 
# Structural Database, then it will include bibliographic, chemical, 
# crystal, experimental, refinement or atomic coordinate data resulting 
# from the CCDC's data processing and validation procedures.
#
#######################################################################

data_SEFPEZ01
_symmetry_cell_setting           monoclinic
_symmetry_space_group_name_H-M   'C 2/c'
_symmetry_Int_Tables_number      15
_space_group_name_Hall           '-C 2yn'
loop_
_symmetry_equiv_pos_site_id
_symmetry_equiv_pos_as_xyz
1 x,y,z
2 -x,y,1/2-z
3 1/2+x,1/2+y,z
4 1/2-x,1/2+y,1/2-z
5 -x,-y,-z
6 x,-y,1/2+z
7 1/2-x,1/2-y,-z
8 1/2+x,1/2-y,1/2+z
_cell_length_a                   19.895(3)
_cell_length_b                   11.2693(19)
_cell_length_c                   15.589(3)
_cell_angle_alpha                90
_cell_angle_beta                 94.829(2)
_cell_angle_gamma                90
_cell_volume                     3482.69
loop_
_atom_site_label
_atom_site_type_symbol
_atom_site_fract_x
_atom_site_fract_y
_atom_site_fract_z
Ni1 Ni 0.2500 0.7500 0.0000
O1 O 0.22223(10) 0.82735(17) 0.11341(12)
O2 O 0.28876(10) 0.61503(16) 0.07474(12)
N1 N 0.34509(9) 0.84178(17) 0.01038(13)
C1 C 0.34887(13) 0.9604(2) 0.0163(2)
H1 H 0.3094 1.0021 0.0235
C2 C 0.40759(13) 1.0243(2) 0.0124(2)
H2 H 0.4065 1.1066 0.0157
C3 C 0.46797(11) 0.9674(2) 0.00345(15)
C4 C 0.46444(13) 0.8442(2) 0.00119(19)
H3 H 0.5036 0.8001 -0.0020
C5 C 0.40369(13) 0.7870(2) 0.00366(19)
H4 H 0.4035 0.7046 0.0004
H5 H 0.3208(19) 0.571(3) 0.061(2)
H6 H 0.2142(17) 0.904(3) 0.120(2)
H7 H 0.259(2) 0.572(4) 0.102(3)
H8 H 0.244(3) 0.797(4) 0.163(3)
N1D N 0.65491(9) 1.15822(17) -0.01038(13)
C1D C 0.65113(13) 1.0396(2) -0.0163(2)
H1D H 0.6906 0.9979 -0.0235
C2D C 0.59241(13) 0.9757(2) -0.0124(2)
H2D H 0.5935 0.8934 -0.0157
C3D C 0.53203(11) 1.0326(2) -0.00345(15)
C4D C 0.53556(13) 1.1558(2) -0.00119(19)
H3D H 0.4964 1.1999 0.0020
C5D C 0.59631(13) 1.2130(2) -0.00366(19)
H4D H 0.5965 1.2954 -0.0004
O1F O 0.27777(10) 0.67265(17) -0.11341(12)
H6F H 0.2858(17) 0.596(3) -0.120(2)
H8F H 0.256(3) 0.703(4) -0.163(3)
O2F O 0.21124(10) 0.88497(16) -0.07474(12)
H5F H 0.1792(19) 0.929(3) -0.061(2)
H7F H 0.241(2) 0.928(4) -0.102(3)
Ni1B Ni 0.7500 1.2500 0.0000
N1F N 0.15491(9) 0.65822(17) -0.01038(13)
Ni2 Ni 0.5000 0.49191(3) 0.2500
O3 O 0.51240(9) 0.48570(16) 0.12106(11)
O4 O 0.39472(9) 0.48242(15) 0.22440(12)
N2 N 0.5000 0.3063(2) 0.2500
N3 N 0.5000 -0.3212(2) 0.2500
C6 C 0.55083(13) 0.2445(2) 0.22086(18)
H9 H 0.5864 0.2861 0.2000
C7 C 0.55305(13) 0.1225(2) 0.22020(18)
H10 H 0.5897 0.0833 0.2000
C8 C 0.5000 0.0582(3) 0.2500
C9 C 0.5000 -0.0726(3) 0.2500
C10 C 0.44071(13) -0.1368(2) 0.2407(2)
H11 H 0.3994 -0.0977 0.2346
C11 C 0.44294(14) -0.2592(2) 0.2404(2)
H12 H 0.4024 -0.3005 0.2332
H13 H 0.3638(18) 0.510(3) 0.253(2)
H14 H 0.3816(18) 0.480(3) 0.173(2)
H15 H 0.531(2) 0.553(4) 0.098(3)
H16 H 0.4775(19) 0.483(3) 0.085(2)
C6A C 0.44917(13) 0.2445(2) 0.27914(18)
H9A H 0.4136 0.2861 0.3000
C7A C 0.44695(13) 0.1225(2) 0.27980(18)
H10A H 0.4103 0.0833 0.3000
C10A C 0.55929(13) -0.1368(2) 0.2593(2)
H11A H 0.6006 -0.0977 0.2654
C11A C 0.55706(14) -0.2592(2) 0.2596(2)
H12A H 0.5976 -0.3005 0.2668
O3A O 0.48760(9) 0.48570(16) 0.37894(11)
O4A O 0.60528(9) 0.48242(15) 0.27560(12)
H13A H 0.6362(18) 0.510(3) 0.247(2)
H14A H 0.6184(18) 0.480(3) 0.327(2)
H15A H 0.469(2) 0.553(4) 0.402(3)
H16A H 0.5225(19) 0.483(3) 0.415(2)
Ni2_2 Ni 0.5000 -0.50809(3) 0.2500
N3_2 N 0.5000 0.6788(2) 0.2500
O5 O 0.41424(8) 0.65889(14) 0.43965(11)
O6 O 0.38641(8) 0.53231(14) 0.54078(11)
O7 O 0.29709(9) 0.56009(14) 0.32461(11)
O8 O 0.27894(10) 0.74315(16) 0.27258(11)
C12 C 0.37469(11) 0.61972(18) 0.49011(14)
C13 C 0.30855(11) 0.68331(18) 0.49402(14)
C14 C 0.26778(11) 0.71185(18) 0.41971(13)
C15 C 0.28292(11) 0.6686(2) 0.33194(14)
C16 C 0.20957(11) 0.77860(18) 0.42667(14)
H17 H 0.1824 0.7979 0.3772
O5F O 0.08576(8) 0.84111(14) 0.56035(11)
O6F O 0.11359(8) 0.96769(14) 0.45922(11)
O7F O 0.20291(9) 0.93991(14) 0.67539(11)
O8F O 0.22106(10) 0.75685(16) 0.72742(11)
C12F C 0.12531(11) 0.88028(18) 0.50989(14)
C13F C 0.19145(11) 0.81669(18) 0.50598(14)
C14F C 0.23222(11) 0.78815(18) 0.58029(13)
C15F C 0.21708(11) 0.8314(2) 0.66806(14)
C16F C 0.29043(11) 0.72140(18) 0.57333(14)
H17F H 0.3176 0.7021 0.6228
O9 O 0.21164(11) 0.49116(19) 0.18106(14)
H18 H 0.211(2) 0.409(4) 0.187(3)
H19 H 0.236(2) 0.519(3) 0.233(3)
loop_
_geom_bond_atom_site_label_1
_geom_bond_atom_site_label_2
_geom_bond_site_symmetry_1
_geom_bond_site_symmetry_2
Ni1 O1 1_555 1_555
O1 H6 1_555 1_555
O2 Ni1 1_555 1_555
N1 Ni1 1_555 1_555
C1 N1 1_555 1_555
H1 C1 1_555 1_555
C2 C1 1_555 1_555
H2 C2 1_555 1_555
C3 C2 1_555 1_555
C4 C3 1_555 1_555
H3 C4 1_555 1_555
C5 N1 1_555 1_555
H4 C5 1_555 1_555
H5 O2 1_555 1_555
H7 O2 1_555 1_555
H8 O1 1_555 1_555
Ni2 O3 1_555 1_555
O3 H15 1_555 1_555
O4 Ni2 1_555 1_555
N2 Ni2 1_555 1_555
N3 C11 1_555 1_555
C6 N2 1_555 1_555
H9 C6 1_555 1_555
C7 C6 1_555 1_555
H10 C7 1_555 1_555
C8 C7 1_555 1_555
C9 C8 1_555 1_555
C10 C9 1_555 1_555
H11 C10 1_555 1_555
C11 C10 1_555 1_555
H12 C11 1_555 1_555
H13 O4 1_555 1_555
H14 O4 1_555 1_555
H16 O3 1_555 1_555
O5 C12 1_555 1_555
O6 C12 1_555 1_555
O7 C15 1_555 1_555
O8 C15 1_555 1_555
C12 C13 1_555 1_555
C13 C14 1_555 1_555
C14 C15 1_555 1_555
C16 C14 1_555 1_555
H17 C16 1_555 1_555
O9 H18 1_555 1_555
H19 O9 1_555 1_555
N1D C1D 1_555 1_555
C1D H1D 1_555 1_555
C2D C1D 1_555 1_555
H2D C2D 1_555 1_555
C3D C3 1_555 1_555
C4D C3D 1_555 1_555
H3D C4D 1_555 1_555
C5D N1D 1_555 1_555
H4D C5D 1_555 1_555
O1F Ni1 1_555 1_555
H6F O1F 1_555 1_555
H8F O1F 1_555 1_555
O2F Ni1 1_555 1_555
H5F O2F 1_555 1_555
H7F O2F 1_555 1_555
Ni1B N1D 1_555 1_555
N1F Ni1 1_555 1_555
C6A N2 1_555 1_555
H9A C6A 1_555 1_555
C7A C8 1_555 1_555
H10A C7A 1_555 1_555
C10A C9 1_555 1_555
H11A C10A 1_555 1_555
C11A N3 1_555 1_555
H12A C11A 1_555 1_555
O3A Ni2 1_555 1_555
O4A Ni2 1_555 1_555
H13A O4A 1_555 1_555
H14A O4A 1_555 1_555
H15A O3A 1_555 1_555
H16A O3A 1_555 1_555
Ni2_2 N3 1_555 1_555
N3_2 Ni2 1_555 1_555
O5F C12F 1_555 1_555
O6F C12F 1_555 1_555
O7F C15F 1_555 1_555
O8F C15F 1_555 1_555
C12F C13F 1_555 1_555
C13F C16 1_555 1_555
C14F C13F 1_555 1_555
C15F C14F 1_555 1_555
C16F C13 1_555 1_555
H17F C16F 1_555 1_555
C4 C5 1_555 1_555
C2D C3D 1_555 1_555
C4D C5D 1_555 1_555
C6A C7A 1_555 1_555
C10A C11A 1_555 1_555
C14F C16F 1_555 1_555

#END
