
#######################################################################
#
#                 Cambridge Crystallographic Data Centre
#                                CCDC 
#
#######################################################################
#
# If this CIF has been generated from an entry in the Cambridge 
# Structural Database, then it will include bibliographic, chemical, 
# crystal, experimental, refinement or atomic coordinate data resulting 
# from the CCDC's data processing and validation procedures.
#
#######################################################################

data_SEFSIG
_symmetry_cell_setting           triclinic
_symmetry_space_group_name_H-M   'P -1'
_symmetry_Int_Tables_number      2
_space_group_name_Hall           '-P 1'
loop_
_symmetry_equiv_pos_site_id
_symmetry_equiv_pos_as_xyz
1 x,y,z
2 -x,-y,-z
_cell_length_a                   10.349(2)
_cell_length_b                   10.903(2)
_cell_length_c                   13.952(3)
_cell_angle_alpha                68.669(4)
_cell_angle_beta                 79.582(4)
_cell_angle_gamma                82.797(4)
_cell_volume                     1439.2
loop_
_atom_site_label
_atom_site_type_symbol
_atom_site_fract_x
_atom_site_fract_y
_atom_site_fract_z
Cd1 Cd 0.45747(2) 0.55421(2) 0.362703(15)
Cd2 Cd 0.555027(19) 0.49514(2) 0.128491(15)
C1 C 0.4374(3) 0.7818(3) 0.1362(2)
C2 C 0.4340(3) 0.8555(3) 0.2105(2)
C3 C 0.4088(3) 0.9903(3) 0.1813(2)
H1 H 0.3893 1.0399 0.1150
C4 C 0.4130(3) 1.0503(3) 0.2524(2)
H2 H 0.3935 1.1407 0.2350
C5 C 0.4461(3) 0.9758(3) 0.3491(2)
H3 H 0.4524 1.0151 0.3970
C6 C 0.4698(3) 0.8405(3) 0.3732(2)
C7 C 0.5050(3) 0.7510(3) 0.4769(2)
C8 C 0.1408(3) 0.6088(4) 0.3514(3)
H4 H 0.1501 0.5958 0.2882
C9 C 0.0306(4) 0.6585(4) 0.3961(3)
H5 H -0.0486 0.6865 0.3696
C10 C 0.1822(3) 0.6132(3) 0.4934(3)
H6 H 0.2255 0.6050 0.5485
C11 C -0.0254(4) 0.7182(4) 0.5568(4)
H7 H -0.0036 0.6737 0.6265
H8 H -0.1166 0.7042 0.5584
C12 C -0.0105(3) 0.8654(4) 0.5253(3)
C13 C -0.0897(5) 0.9331(5) 0.5781(5)
H9 H -0.1532 0.8895 0.6322
C14 C 0.0794(5) 0.9331(5) 0.4459(5)
H10 H 0.1350 0.8890 0.4070
C15 C 0.7505(3) 0.5955(3) 0.2406(2)
C16 C 0.8200(3) 0.6184(3) 0.1305(2)
C17 C 0.9466(3) 0.6614(3) 0.0983(3)
H11 H 0.9927 0.6750 0.1445
C18 C 1.0025(3) 0.6834(4) -0.0030(3)
H12 H 1.0875 0.7115 -0.0262
C19 C 0.9318(3) 0.6636(3) -0.0699(3)
H13 H 0.9677 0.6790 -0.1391
C20 C 0.8071(3) 0.6207(3) -0.0330(2)
C21 C 0.7251(3) 0.5957(3) -0.1026(2)
C22 C 0.7232(4) 0.2307(4) 0.2568(3)
H14 H 0.7335 0.2689 0.3045
C23 C 0.7666(4) 0.1075(4) 0.2619(4)
H15 H 0.8115 0.0455 0.3126
C24 C 0.6692(3) 0.2048(3) 0.1259(3)
H16 H 0.6352 0.2199 0.0649
C25 C 0.7603(4) -0.0247(4) 0.1466(4)
H17 H 0.6878 -0.0338 0.1148
H18 H 0.7684 -0.1031 0.2076
C26 C 0.8854(4) -0.0136(4) 0.0708(4)
C27 C 1.0055(4) -0.0381(4) 0.1050(4)
H19 H 1.0101 -0.0640 0.1757
C28 C 0.8798(4) 0.0242(4) -0.0338(4)
H20 H 0.7984 0.0405 -0.0571
N1 N 0.4611(2) 0.7825(2) 0.30548(18)
N2 N 0.7529(2) 0.5979(2) 0.06521(18)
N3 N 0.2363(3) 0.5804(3) 0.4130(2)
N4 N 0.0578(3) 0.6597(3) 0.4867(2)
N5 N 0.6622(2) 0.2914(3) 0.1716(2)
N6 N 0.7317(3) 0.0915(3) 0.1782(3)
O1 O 0.4987(2) 0.6291(2) 0.49724(15)
O2 O 0.5354(3) 0.8019(2) 0.5346(2)
O3 O 0.4330(2) 0.6576(2) 0.17714(15)
O4 O 0.4453(3) 0.8464(3) 0.04397(18)
O5 O 0.6567(2) 0.5189(2) 0.27059(16)
O6 O 0.7879(3) 0.6519(3) 0.29113(19)
O7 O 0.61309(19) 0.5524(2) -0.06014(15)
O8 O 0.7730(2) 0.6186(3) -0.19465(18)
O9 O 0.4157(2) 0.3927(2) 0.29528(15)
H21 H 0.3352 0.3937 0.2893
H22 H 0.4443 0.3151 0.3291
Cd1A Cd 0.54253(2) 0.44579(2) 0.637297(15)
Cd1A_2 Cd -0.45747(2) 1.44579(2) 0.637297(15)
Cd1A_3 Cd 0.54253(2) 0.44579(2) -0.362703(15)
Cd2A Cd 0.444973(19) 0.50486(2) 0.871509(15)
Cd2A_2 Cd 0.444973(19) 0.50486(2) -0.128491(15)
Cd2A_3 Cd 1.444973(19) -0.49514(2) -0.128491(15)
C1A C 0.5626(3) 0.2182(3) 0.8638(2)
C2A C 0.5660(3) 0.1445(3) 0.7895(2)
C3A C 0.5912(3) 0.0097(3) 0.8187(2)
H1A H 0.6107 -0.0399 0.8850
C4A C 0.5870(3) -0.0503(3) 0.7476(2)
H2A H 0.6065 -0.1407 0.7650
C5A C 0.5539(3) 0.0242(3) 0.6509(2)
H3A H 0.5476 -0.0151 0.6030
C6A C 0.5302(3) 0.1595(3) 0.6268(2)
C7A C 0.4950(3) 0.2490(3) 0.5231(2)
C8A C -0.1408(3) 1.3912(4) 0.6486(3)
H4A H -0.1501 1.4042 0.7118
C9A C -0.0306(4) 1.3415(4) 0.6039(3)
H5A H 0.0486 1.3135 0.6304
C10A C -0.1822(3) 1.3868(3) 0.5066(3)
H6A H -0.2255 1.3950 0.4515
C11A C 0.0254(4) 1.2818(4) 0.4432(4)
H7A H 0.0036 1.3263 0.3735
H8A H 0.1166 1.2958 0.4416
C12A C 0.0105(3) 1.1346(4) 0.4747(3)
C13A C 0.0897(5) 1.0669(5) 0.4219(5)
H9A H 0.1532 1.1105 0.3678
C14A C -0.0794(5) 1.0669(5) 0.5541(5)
H10A H -0.1350 1.1110 0.5930
C15A C 0.2495(3) 0.4045(3) -0.2406(2)
C16A C 0.1800(3) 0.3816(3) -0.1305(2)
C17A C 0.0534(3) 0.3386(3) -0.0983(3)
H11A H 0.0073 0.3250 -0.1445
C18A C -0.0025(3) 0.3166(4) 0.0030(3)
H12A H -0.0875 0.2885 0.0262
C19A C 0.0682(3) 0.3364(3) 0.0699(3)
H13A H 0.0323 0.3210 0.1391
C20A C 0.1929(3) 0.3793(3) 0.0330(2)
C21A C 0.2749(3) 0.4043(3) 0.1026(2)
C22A C 1.2768(4) -0.2307(4) -0.2568(3)
H14A H 1.2665 -0.2689 -0.3045
C23A C 1.2334(4) -0.1075(4) -0.2619(4)
H15A H 1.1885 -0.0455 -0.3126
C24A C 1.3308(3) -0.2048(3) -0.1259(3)
H16A H 1.3648 -0.2199 -0.0649
C25A C 1.2397(4) 0.0247(4) -0.1466(4)
H17A H 1.3122 0.0338 -0.1148
H18A H 1.2316 0.1031 -0.2076
C26A C 1.1146(4) 0.0136(4) -0.0708(4)
C27A C 0.9945(4) 0.0381(4) -0.1050(4)
H19A H 0.9899 0.0640 -0.1757
C28A C 1.1202(4) -0.0242(4) 0.0338(4)
H20A H 1.2016 -0.0405 0.0571
N1A N 0.5389(2) 0.2175(2) 0.69452(18)
N2A N 0.2471(2) 0.4021(2) -0.06521(18)
N2A_2 N 0.2471(2) 0.4021(2) 0.93479(18)
N3A N -0.2363(3) 1.4196(3) 0.5870(2)
N3A_2 N 0.7637(3) 0.4196(3) 0.5870(2)
N4A N -0.0578(3) 1.3403(3) 0.5133(2)
N5A N 1.3378(2) -0.2914(3) -0.1716(2)
N5A_2 N 0.3378(2) 0.7086(3) 0.8284(2)
N6A N 1.2683(3) -0.0915(3) -0.1782(3)
O1A O 0.5013(2) 0.3709(2) 0.50276(15)
O2A O 0.4646(3) 0.1981(2) 0.4654(2)
O3A O 0.5670(2) 0.3424(2) 0.82286(15)
O4A O 0.5547(3) 0.1536(3) 0.95603(18)
O5A O 0.3433(2) 0.4811(2) -0.27059(16)
O5A_2 O 0.3433(2) 0.4811(2) 0.72941(16)
O6A O 0.2121(3) 0.3481(3) -0.29113(19)
O7A O 0.38691(19) 0.4476(2) 0.06014(15)
O7_2 O 0.61309(19) 0.5524(2) 0.93986(15)
O7A_2 O 0.38691(19) 0.4476(2) 1.06014(15)
O8A O 0.2270(2) 0.3814(3) 0.19465(18)
O9A O 0.5843(2) 0.6073(2) 0.70472(15)
H21A H 0.6648 0.6063 0.7107
H22A H 0.5557 0.6849 0.6709
loop_
_geom_bond_atom_site_label_1
_geom_bond_atom_site_label_2
_geom_bond_site_symmetry_1
_geom_bond_site_symmetry_2
Cd1 N1 1_555 1_555
Cd2 N2 1_555 1_555
C1 C2 1_555 1_555
C2 C3 1_555 1_555
C3 H1 1_555 1_555
C4 C3 1_555 1_555
H2 C4 1_555 1_555
C5 C4 1_555 1_555
H3 C5 1_555 1_555
C6 C5 1_555 1_555
C7 C6 1_555 1_555
C8 H4 1_555 1_555
C9 C8 1_555 1_555
H5 C9 1_555 1_555
C10 H6 1_555 1_555
C11 H7 1_555 1_555
H8 C11 1_555 1_555
C12 C11 1_555 1_555
C13 C12 1_555 1_555
H9 C13 1_555 1_555
C14 C12 1_555 1_555
H10 C14 1_555 1_555
C15 C16 1_555 1_555
C16 C17 1_555 1_555
C17 H11 1_555 1_555
C18 C17 1_555 1_555
H12 C18 1_555 1_555
C19 C18 1_555 1_555
H13 C19 1_555 1_555
C20 C19 1_555 1_555
C21 C20 1_555 1_555
C22 H14 1_555 1_555
C23 C22 1_555 1_555
H15 C23 1_555 1_555
C24 H16 1_555 1_555
C25 H17 1_555 1_555
H18 C25 1_555 1_555
C26 C25 1_555 1_555
C27 C26 1_555 1_555
H19 C27 1_555 1_555
C28 C26 1_555 1_555
H20 C28 1_555 1_555
N1 C2 1_555 1_555
N2 C16 1_555 1_555
N3 Cd1 1_555 1_555
N4 C9 1_555 1_555
N5 Cd2 1_555 1_555
N6 C23 1_555 1_555
O1 Cd1 1_555 1_555
O2 C7 1_555 1_555
O3 Cd1 1_555 1_555
O4 C1 1_555 1_555
O5 Cd1 1_555 1_555
O6 C15 1_555 1_555
O7 Cd2 1_555 1_555
O8 C21 1_555 1_555
O9 Cd1 1_555 1_555
H21 O9 1_555 1_555
H22 O9 1_555 1_555
Cd1A O1 1_555 1_555
Cd1A_2 N3A 1_555 1_555
Cd1A_3 O5A 1_555 1_555
Cd2A N2A_2 1_555 1_555
Cd2A_2 O7 1_555 1_555
Cd2A_3 N5A 1_555 1_555
C1A C2A 1_555 1_555
C2A C3A 1_555 1_555
C3A H1A 1_555 1_555
C4A C3A 1_555 1_555
H2A C4A 1_555 1_555
C5A C4A 1_555 1_555
H3A C5A 1_555 1_555
C6A C5A 1_555 1_555
C7A C6A 1_555 1_555
C8A H4A 1_555 1_555
C9A C8A 1_555 1_555
H5A C9A 1_555 1_555
C10A H6A 1_555 1_555
C11A H7A 1_555 1_555
H8A C11A 1_555 1_555
C12A C11A 1_555 1_555
C13A C14 1_555 1_555
H9A C13A 1_555 1_555
C14A C13 1_555 1_555
H10A C14A 1_555 1_555
C15A C16A 1_555 1_555
C16A C17A 1_555 1_555
C17A H11A 1_555 1_555
C18A C17A 1_555 1_555
H12A C18A 1_555 1_555
C19A C18A 1_555 1_555
H13A C19A 1_555 1_555
C20A C19A 1_555 1_555
C21A C20A 1_555 1_555
C22A H14A 1_555 1_555
C23A C22A 1_555 1_555
H15A C23A 1_555 1_555
C24A H16A 1_555 1_555
C25A H17A 1_555 1_555
H18A C25A 1_555 1_555
C26A C25A 1_555 1_555
C27A C28 1_555 1_555
H19A C27A 1_555 1_555
C28A C27 1_555 1_555
H20A C28A 1_555 1_555
N1A Cd1A 1_555 1_555
N2A Cd2A_2 1_555 1_555
N3A C8A 1_555 1_555
N3A_2 Cd1A 1_555 1_555
N4A C9A 1_555 1_555
N5A C22A 1_555 1_555
N5A_2 Cd2A 1_555 1_555
N6A C23A 1_555 1_555
O1A Cd1 1_555 1_555
O2A C7A 1_555 1_555
O3A Cd1A 1_555 1_555
O4A C1A 1_555 1_555
O5A Cd2A_2 1_555 1_555
O5A_2 Cd1A 1_555 1_555
O6A C15A 1_555 1_555
O7A Cd2 1_555 1_555
O7_2 Cd2A 1_555 1_555
O7A_2 Cd2A 1_555 1_555
O8A C21A 1_555 1_555
O9A Cd1A 1_555 1_555
H21A O9A 1_555 1_555
H22A O9A 1_555 1_555
Cd2 O3 1_555 1_555
Cd2 O5 1_555 1_555
Cd2 O9 1_555 1_555
C1 O3 1_555 1_555
C6 N1 1_555 1_555
C7 O1 1_555 1_555
C8 N3 1_555 1_555
C10 N3 1_555 1_555
C10 N4 1_555 1_555
C11 N4 1_555 1_555
C15 O5 1_555 1_555
C20 N2 1_555 1_555
C21 O7 1_555 1_555
C22 N5 1_555 1_555
C24 N5 1_555 1_555
C24 N6 1_555 1_555
C25 N6 1_555 1_555
Cd1A O1A 1_555 1_555
Cd2A O3A 1_555 1_555
Cd2A O5A_2 1_555 1_555
Cd2A O9A 1_555 1_555
Cd2A_2 O7A 1_555 1_555
C1A O3A 1_555 1_555
C2A N1A 1_555 1_555
C6A N1A 1_555 1_555
C7A O1A 1_555 1_555
C10A N3A 1_555 1_555
C10A N4A 1_555 1_555
C11A N4A 1_555 1_555
C12A C13A 1_555 1_555
C12A C14A 1_555 1_555
C15A O5A 1_555 1_555
C16A N2A 1_555 1_555
C20A N2A 1_555 1_555
C21A O7A 1_555 1_555
C24A N5A 1_555 1_555
C24A N6A 1_555 1_555
C25A N6A 1_555 1_555
C26A C27A 1_555 1_555
C26A C28A 1_555 1_555

#END
