
#######################################################################
#
#                 Cambridge Crystallographic Data Centre
#                                CCDC 
#
#######################################################################
#
# If this CIF has been generated from an entry in the Cambridge 
# Structural Database, then it will include bibliographic, chemical, 
# crystal, experimental, refinement or atomic coordinate data resulting 
# from the CCDC's data processing and validation procedures.
#
#######################################################################

data_SEFWOQ
_symmetry_cell_setting           monoclinic
_symmetry_space_group_name_H-M   'C c'
_symmetry_Int_Tables_number      9
_space_group_name_Hall           'C -2yc'
loop_
_symmetry_equiv_pos_site_id
_symmetry_equiv_pos_as_xyz
1 x,y,z
2 x,-y,1/2+z
3 1/2+x,1/2+y,z
4 1/2+x,1/2-y,1/2+z
_cell_length_a                   13.4766(10)
_cell_length_b                   12.1937(9)
_cell_length_c                   10.2546(8)
_cell_angle_alpha                90
_cell_angle_beta                 102.2590(10)
_cell_angle_gamma                90
_cell_volume                     1646.71
loop_
_atom_site_label
_atom_site_type_symbol
_atom_site_fract_x
_atom_site_fract_y
_atom_site_fract_z
Co1 Co 1.18209(4) 0.24673(3) 0.55491(5)
N1 N 1.10166(19) 0.09578(19) 0.5153(3)
N2 N 0.76029(18) 0.09935(19) 0.0952(3)
O1 O 1.1570(2) 0.24248(18) 0.7506(3)
H1 H 1.193(3) 0.212(3) 0.815(3)
H2 H 1.110(2) 0.283(3) 0.764(4)
O2 O 1.32081(16) 0.16391(17) 0.6145(2)
H3 H 1.359(2) 0.156(3) 0.556(3)
H4 H 1.343(3) 0.115(2) 0.674(3)
O3 O 1.1996(2) 0.25315(16) 0.3575(3)
H5 H 1.244(2) 0.218(3) 0.329(4)
H6 H 1.168(3) 0.297(2) 0.302(3)
O4 O 1.04011(16) 0.33169(17) 0.5018(2)
H7 H 1.011(3) 0.371(3) 0.433(3)
H8 H 1.015(3) 0.356(3) 0.566(3)
C1 C 1.0286(2) 0.0887(2) 0.4038(3)
H13 H 1.0162 0.1498 0.3485
C2 C 0.9703(2) -0.0051(2) 0.3665(3)
C3 C 0.9911(2) -0.0970(2) 0.4489(3)
H14 H 0.9550 -0.1617 0.4265
C4 C 1.0658(2) -0.0907(2) 0.5642(3)
H15 H 1.0800 -0.1509 0.6207
C5 C 1.1195(2) 0.0069(2) 0.5948(3)
H16 H 1.1695 0.0108 0.6727
C6 C 0.8326(2) 0.0906(2) 0.2063(3)
H17 H 0.8456 0.1511 0.2624
C7 C 0.8899(2) -0.0048(2) 0.2431(3)
C8 C 0.8694(2) -0.0949(2) 0.1581(3)
H18 H 0.9062 -0.1596 0.1778
C9 C 0.7933(2) -0.0868(2) 0.0436(3)
H19 H 0.7775 -0.1466 -0.0133
C10 C 0.7410(2) 0.0111(2) 0.0149(3)
H20 H 0.6908 0.0161 -0.0627
Co1C Co 0.68209(4) 0.25327(3) 0.05491(5)
N2C N 1.26029(18) 0.40065(19) 0.5952(3)
S1 S 0.92421(6) 0.41257(4) 0.81444(8)
O5 O 1.00980(16) 0.39734(16) 0.7456(2)
O6 O 0.83125(16) 0.36127(16) 0.7366(2)
O7 O 0.90778(14) 0.53247(14) 0.8270(2)
O8 O 0.95104(16) 0.36233(15) 0.9489(2)
O9 O 1.27707(19) 0.1406(2) 0.9547(2)
H9 H 1.293(3) 0.139(3) 1.0382(19)
H10 H 1.316(3) 0.099(3) 0.923(4)
O10 O 1.09098(18) 0.60244(18) 0.6887(2)
H11 H 1.069(3) 0.542(2) 0.706(4)
H12 H 1.063(3) 0.611(3) 0.611(2)
loop_
_geom_bond_atom_site_label_1
_geom_bond_atom_site_label_2
_geom_bond_site_symmetry_1
_geom_bond_site_symmetry_2
Co1 N1 1_555 1_555
S1 O5 1_555 1_555
N1 C1 1_555 1_555
N2 C6 1_555 1_555
O1 Co1 1_555 1_555
H1 O1 1_555 1_555
H2 O1 1_555 1_555
O2 Co1 1_555 1_555
H3 O2 1_555 1_555
H4 O2 1_555 1_555
O3 Co1 1_555 1_555
H5 O3 1_555 1_555
H6 O3 1_555 1_555
O4 Co1 1_555 1_555
H7 O4 1_555 1_555
H8 O4 1_555 1_555
O6 S1 1_555 1_555
O7 S1 1_555 1_555
O8 S1 1_555 1_555
O9 H9 1_555 1_555
H10 O9 1_555 1_555
O10 H11 1_555 1_555
H12 O10 1_555 1_555
C1 H13 1_555 1_555
C2 C1 1_555 1_555
C3 C2 1_555 1_555
H14 C3 1_555 1_555
C4 C3 1_555 1_555
H15 C4 1_555 1_555
C5 N1 1_555 1_555
H16 C5 1_555 1_555
C6 H17 1_555 1_555
C7 C2 1_555 1_555
C8 C7 1_555 1_555
H18 C8 1_555 1_555
C9 C8 1_555 1_555
H19 C9 1_555 1_555
C10 N2 1_555 1_555
H20 C10 1_555 1_555
Co1C N2 1_555 1_555
N2C Co1 1_555 1_555
C4 C5 1_555 1_555
C6 C7 1_555 1_555
C9 C10 1_555 1_555

#END
