
#######################################################################
#
#                 Cambridge Crystallographic Data Centre
#                                CCDC 
#
#######################################################################
#
# If this CIF has been generated from an entry in the Cambridge 
# Structural Database, then it will include bibliographic, chemical, 
# crystal, experimental, refinement or atomic coordinate data resulting 
# from the CCDC's data processing and validation procedures.
#
#######################################################################

data_SEFWIL
_symmetry_cell_setting           cubic
_symmetry_space_group_name_H-M   'I -4 3 m'
_symmetry_Int_Tables_number      217
_space_group_name_Hall           'I -4 2 3'
loop_
_symmetry_equiv_pos_site_id
_symmetry_equiv_pos_as_xyz
1 x,y,z
2 -x,-y,z
3 -x,y,-z
4 x,-y,-z
5 z,x,y
6 z,-x,-y
7 -z,-x,y
8 -z,x,-y
9 y,z,x
10 -y,z,-x
11 y,-z,-x
12 -y,-z,x
13 y,x,z
14 -y,-x,z
15 y,-x,-z
16 -y,x,-z
17 x,z,y
18 -x,z,-y
19 -x,-z,y
20 x,-z,-y
21 z,y,x
22 z,-y,-x
23 -z,y,-x
24 -z,-y,x
25 1/2+x,1/2+y,1/2+z
26 1/2-x,1/2-y,1/2+z
27 1/2-x,1/2+y,1/2-z
28 1/2+x,1/2-y,1/2-z
29 1/2+z,1/2+x,1/2+y
30 1/2+z,1/2-x,1/2-y
31 1/2-z,1/2-x,1/2+y
32 1/2-z,1/2+x,1/2-y
33 1/2+y,1/2+z,1/2+x
34 1/2-y,1/2+z,1/2-x
35 1/2+y,1/2-z,1/2-x
36 1/2-y,1/2-z,1/2+x
37 1/2+y,1/2+x,1/2+z
38 1/2-y,1/2-x,1/2+z
39 1/2+y,1/2-x,1/2-z
40 1/2-y,1/2+x,1/2-z
41 1/2+x,1/2+z,1/2+y
42 1/2-x,1/2+z,1/2-y
43 1/2-x,1/2-z,1/2+y
44 1/2+x,1/2-z,1/2-y
45 1/2+z,1/2+y,1/2+x
46 1/2+z,1/2-y,1/2-x
47 1/2-z,1/2+y,1/2-x
48 1/2-z,1/2-y,1/2+x
_cell_length_a                   17.0659(12)
_cell_length_b                   17.0659(12)
_cell_length_c                   17.0659(12)
_cell_angle_alpha                90
_cell_angle_beta                 90
_cell_angle_gamma                90
_cell_volume                     4970.36
loop_
_atom_site_label
_atom_site_type_symbol
_atom_site_fract_x
_atom_site_fract_y
_atom_site_fract_z
N3 N 0.0000 0.0000 0.476(3)
N3B N 0.0000 0.0000 0.524(3)
N5 N 0.273(4) 0.305(4) 0.550(3)
N5L N 0.305(4) 0.273(4) 0.550(3)
N6 N 0.2849(18) 0.2849(18) 0.2849(18)
N7 N 0.313(2) 0.313(2) 0.313(2)
N8 N 0.246(5) 0.5000 0.5000
N9 N 0.308(10) 0.5000 0.5000
Zn1 Zn 0.0000 0.7500 0.5000
C1 C -0.0138(3) 0.6277(3) 0.3723(6)
N1 N 0.0276(3) 0.6822(3) 0.4094(3)
H1 H 0.1417 0.7134 0.3876
N2 N 0.0987(6) 0.6805(7) 0.3748(5)
C3 C -0.0941(11) 0.6038(11) 0.3962(7)
H2 H -0.1328 0.6342 0.3666
H3 H -0.1011 0.6135 0.4524
H4 H -0.1015 0.5478 0.3854
Zn1Q Zn 0.0000 0.5000 0.2500
Zn1P Zn 0.0000 0.5000 0.7500
C1B C 0.0138(3) 0.6277(3) 0.6277(6)
N1B N -0.0276(3) 0.6822(3) 0.5906(3)
N1SA N -0.0906(3) 0.8178(3) 0.4724(3)
N1UA N 0.0906(3) 0.8178(3) 0.5276(3)
N1S N 0.0276(3) 0.5906(3) 0.3178(3)
N1R N -0.0276(3) 0.5906(3) 0.6822(3)
H1B H -0.1417 0.7134 0.6124
H1R H -0.1417 0.6124 0.7134
N2S N 0.0987(6) 0.6252(5) 0.3195(7)
N2B N -0.0987(6) 0.6805(7) 0.6252(5)
N2R N -0.0987(6) 0.6252(5) 0.6805(7)
C3B C 0.0941(11) 0.6038(11) 0.6038(7)
H2B H 0.1328 0.6342 0.6334
H3B H 0.1011 0.6135 0.5476
H3R H 0.1011 0.5476 0.6135
C2? C 0.0987(6) 0.6805(7) 0.3748(5)
N4? N 0.2774(17) 0.2774(17) 0.520(3)
N10? N 0.469(10) 0.531(10) 0.469(10)
loop_
_geom_bond_atom_site_label_1
_geom_bond_atom_site_label_2
_geom_bond_site_symmetry_1
_geom_bond_site_symmetry_2
Zn1 N1 1_555 1_555
C1 N1 1_555 1_555
N1 N2 1_555 1_555
H1 N2 1_555 1_555
N2 N2S 1_555 1_555
C3 C1 1_555 1_555
H2 C3 1_555 1_555
H3 C3 1_555 1_555
H4 C3 1_555 1_555
N3 N3B 1_555 1_555
N5 N5L 1_555 1_555
N6 N7 1_555 1_555
N8 N9 1_555 1_555
Zn1Q N1S 1_555 1_555
Zn1P N1R 1_555 1_555
C1B N1B 1_555 1_555
N1B Zn1 1_555 1_555
N1SA Zn1 1_555 1_555
N1UA Zn1 1_555 1_555
N1S C1 1_555 1_555
N1R C1B 1_555 1_555
H1B N2B 1_555 1_555
H1R N2R 1_555 1_555
N2S N1S 1_555 1_555
N2B N1B 1_555 1_555
N2R N1R 1_555 1_555
C3B C1B 1_555 1_555
H2B C3B 1_555 1_555
H3B C3B 1_555 1_555
H3R C3B 1_555 1_555
N2B N2R 1_555 1_555

#END
