
#######################################################################
#
#                 Cambridge Crystallographic Data Centre
#                                CCDC 
#
#######################################################################
#
# If this CIF has been generated from an entry in the Cambridge 
# Structural Database, then it will include bibliographic, chemical, 
# crystal, experimental, refinement or atomic coordinate data resulting 
# from the CCDC's data processing and validation procedures.
#
#######################################################################

data_SEFYEI
_symmetry_cell_setting           monoclinic
_symmetry_space_group_name_H-M   'P 21'
_symmetry_Int_Tables_number      4
_space_group_name_Hall           'P 2yb'
loop_
_symmetry_equiv_pos_site_id
_symmetry_equiv_pos_as_xyz
1 x,y,z
2 -x,1/2+y,-z
_cell_length_a                   8.3568(5)
_cell_length_b                   24.0311(16)
_cell_length_c                   11.5456(7)
_cell_angle_alpha                90
_cell_angle_beta                 105.8910(10)
_cell_angle_gamma                90
_cell_volume                     2230.02
loop_
_atom_site_label
_atom_site_type_symbol
_atom_site_fract_x
_atom_site_fract_y
_atom_site_fract_z
Pb1 Pb 0.135783(16) 0.467790(5) 0.220730(12)
Pb2 Pb -0.095470(16) 0.532070(5) -0.109230(12)
S1 S -0.28787(12) 0.74317(4) 0.16686(9)
S2 S 0.57580(12) 0.25557(4) 0.24046(9)
O1 O -0.1264(4) 0.55748(12) 0.1113(3)
O2 O -0.2264(4) 0.61687(13) -0.0382(3)
O3 O -0.7190(4) 0.55331(12) 0.2125(3)
O4 O -0.7671(4) 0.50829(12) 0.0404(3)
O5 O 0.4246(3) 0.44282(11) 0.2609(3)
O6 O 0.2737(4) 0.37542(14) 0.1525(3)
O7 O 0.6543(3) 0.49109(11) -0.0966(2)
O8 O 0.8717(4) 0.44085(12) -0.0014(3)
O9 O -0.2888(5) 0.73542(14) 0.2890(3)
O10 O -0.3835(4) 0.78772(13) 0.0986(3)
O11 O 0.5460(5) 0.26618(13) 0.3536(3)
O12 O 0.4841(4) 0.21236(12) 0.1679(3)
N1 N -0.3016(4) 0.55845(13) -0.3114(3)
N2 N -0.1363(4) 0.46115(15) -0.2872(3)
N3 N 0.1325(5) 0.52061(15) 0.4294(3)
N4 N 0.2547(5) 0.41592(14) 0.4522(3)
N5 N -0.3544(4) 0.68613(14) 0.0965(4)
N6 N 0.5448(5) 0.31101(14) 0.1598(4)
C1 C -0.2046(5) 0.60020(16) 0.0678(3)
C2 C -0.2884(5) 0.63225(15) 0.1505(3)
C3 C -0.4249(5) 0.5983(2) 0.1819(4)
C4 C -0.5662(6) 0.5816(2) 0.0745(4)
C5 C -0.6933(5) 0.54528(16) 0.1113(4)
C6 C -0.0790(5) 0.75374(17) 0.1655(5)
C7 C 0.0452(7) 0.7278(2) 0.2523(7)
C8 C 0.2111(8) 0.7358(3) 0.2485(10)
H1 H 0.2988 0.7193 0.3058
C9 C 0.2410(10) 0.7690(4) 0.1564(11)
H2 H 0.3496 0.7730 0.1513
C10 C 0.1165(11) 0.7954(3) 0.0750(9)
C11 C -0.0454(8) 0.7875(2) 0.0771(6)
C12 C 0.4092(5) 0.39605(16) 0.2068(3)
C13 C 0.5737(5) 0.36649(15) 0.2127(4)
C14 C 0.6852(5) 0.40133(18) 0.1555(4)
C15 C 0.6058(6) 0.41553(19) 0.0240(4)
C16 C 0.7185(5) 0.45116(16) -0.0273(4)
C17 C 0.7908(6) 0.24154(17) 0.2708(4)
C18 C 0.8535(9) 0.2216(3) 0.1815(6)
C19 C 1.0273(12) 0.2119(3) 0.2042(10)
H3 H 1.0734 0.1974 0.1459
C20 C 1.1212(10) 0.2251(3) 0.3164(12)
H4 H 1.2358 0.2209 0.3317
C21 C 1.0632(8) 0.2441(3) 0.4098(8)
H5 H 1.1340 0.2513 0.4857
C22 C 0.8930(7) 0.2518(2) 0.3839(5)
H6 H 0.8471 0.2641 0.4442
C23 C -0.3902(5) 0.60559(18) -0.3191(4)
C24 C -0.4969(6) 0.62458(19) -0.4246(4)
C25 C -0.5182(5) 0.59286(18) -0.5262(4)
C26 C -0.4316(5) 0.54348(17) -0.5201(4)
C27 C -0.3222(4) 0.52772(16) -0.4115(3)
C28 C -0.2226(5) 0.47499(16) -0.3986(3)
C29 C -0.2171(6) 0.4430(2) -0.4974(4)
C30 C -0.1164(7) 0.3964(2) -0.4792(5)
C31 C -0.0308(7) 0.3810(2) -0.3642(5)
C32 C -0.0437(7) 0.4147(2) -0.2713(5)
C33 C 0.0488(7) 0.5682(2) 0.4144(5)
H7 H 0.0000 0.5803 0.3362
C34 C 0.0304(8) 0.6003(3) 0.5072(6)
C35 C 0.1056(9) 0.5825(2) 0.6230(6)
C36 C 0.1936(7) 0.5332(2) 0.6409(5)
C37 C 0.2022(5) 0.50241(17) 0.5412(4)
C38 C 0.2900(5) 0.44772(17) 0.5525(4)
C39 C 0.3974(7) 0.4301(2) 0.6584(5)
C40 C 0.4723(8) 0.3790(3) 0.6644(5)
C41 C 0.4338(8) 0.3453(2) 0.5629(5)
C42 C 0.3267(7) 0.3661(2) 0.4595(5)
H8 H -0.204(5) 0.6398(16) 0.224(4)
H9 H 0.007(8) 0.708(2) 0.332(6)
H10 H 0.145(9) 0.826(3) 0.010(6)
H11 H -0.128(8) 0.802(3) 0.029(6)
H12 H 0.627(5) 0.3599(15) 0.298(4)
H13 H 0.777(4) 0.2076(12) 0.117(3)
H14 H -0.370(5) 0.6281(18) -0.251(4)
H15 H -0.545(7) 0.655(2) -0.426(5)
H16 H -0.598(6) 0.607(2) -0.603(4)
H17 H -0.453(5) 0.5267(19) -0.583(4)
H18 H -0.288(7) 0.456(2) -0.580(5)
H19 H -0.114(7) 0.375(2) -0.545(5)
H20 H 0.048(7) 0.349(2) -0.343(5)
H21 H -0.003(5) 0.4065(16) -0.190(4)
H22 H -0.036(9) 0.633(3) 0.480(6)
H23 H 0.098(7) 0.603(3) 0.680(5)
H24 H 0.254(5) 0.5177(16) 0.723(4)
H25 H 0.423(9) 0.452(3) 0.720(6)
H26 H 0.567(7) 0.367(2) 0.735(5)
H27 H 0.475(7) 0.309(3) 0.564(5)
H28 H 0.297(6) 0.344(2) 0.393(5)
H29 H -0.476(6) 0.622(2) 0.237(5)
H30 H -0.525(8) 0.565(3) 0.004(6)
H31 H 0.720(6) 0.430(2) 0.203(5)
H32 H 0.522(6) 0.4347(18) 0.021(4)
H33 H -0.370(5) 0.5654(17) 0.230(3)
H34 H -0.625(6) 0.6145(19) 0.045(4)
H35 H 0.796(5) 0.3782(17) 0.158(4)
H36 H 0.581(6) 0.383(2) -0.025(4)
H37 H -0.381(5) 0.6906(18) 0.034(4)
H38 H 0.492(6) 0.3062(18) 0.100(4)
Pb1_2 Pb -0.864217(16) 0.467790(5) 0.220730(12)
Pb1_3 Pb 1.135783(16) 0.467790(5) 0.220730(12)
Pb2_2 Pb -1.095470(16) 0.532070(5) -0.109230(12)
Pb2_3 Pb 0.904530(16) 0.532070(5) -0.109230(12)
O3_2 O 0.2810(4) 0.55331(12) 0.2125(3)
O4_2 O 0.2329(4) 0.50829(12) 0.0404(3)
O7_2 O -0.3457(3) 0.49109(11) -0.0966(2)
O8_2 O -0.1283(4) 0.44085(12) -0.0014(3)
loop_
_geom_bond_atom_site_label_1
_geom_bond_atom_site_label_2
_geom_bond_site_symmetry_1
_geom_bond_site_symmetry_2
Pb1 O1 1_555 1_555
Pb2 O1 1_555 1_555
S1 O9 1_555 1_555
S2 O11 1_555 1_555
O1 C1 1_555 1_555
O2 Pb2 1_555 1_555
O3 C5 1_555 1_555
O4 C5 1_555 1_555
O5 Pb1 1_555 1_555
O6 Pb1 1_555 1_555
O7 C16 1_555 1_555
O8 C16 1_555 1_555
O10 S1 1_555 1_555
O12 S2 1_555 1_555
N1 Pb2 1_555 1_555
N2 Pb2 1_555 1_555
N3 Pb1 1_555 1_555
N4 Pb1 1_555 1_555
N5 S1 1_555 1_555
N6 S2 1_555 1_555
C1 O2 1_555 1_555
C2 N5 1_555 1_555
C3 C2 1_555 1_555
C4 C3 1_555 1_555
C5 C4 1_555 1_555
C6 S1 1_555 1_555
C7 C6 1_555 1_555
C8 C7 1_555 1_555
H1 C8 1_555 1_555
C9 C8 1_555 1_555
H2 C9 1_555 1_555
C10 C9 1_555 1_555
C11 C6 1_555 1_555
C12 O5 1_555 1_555
C13 N6 1_555 1_555
C14 C13 1_555 1_555
C15 C14 1_555 1_555
C16 C15 1_555 1_555
C17 S2 1_555 1_555
C18 C17 1_555 1_555
C19 C18 1_555 1_555
H3 C19 1_555 1_555
C20 C19 1_555 1_555
H4 C20 1_555 1_555
C21 C20 1_555 1_555
H5 C21 1_555 1_555
C22 C17 1_555 1_555
H6 C22 1_555 1_555
C23 N1 1_555 1_555
C24 C23 1_555 1_555
C25 C24 1_555 1_555
C26 C25 1_555 1_555
C27 N1 1_555 1_555
C28 N2 1_555 1_555
C29 C28 1_555 1_555
C30 C29 1_555 1_555
C31 C30 1_555 1_555
C32 N2 1_555 1_555
C33 N3 1_555 1_555
H7 C33 1_555 1_555
C34 C33 1_555 1_555
C35 C34 1_555 1_555
C36 C35 1_555 1_555
C37 N3 1_555 1_555
C38 N4 1_555 1_555
C39 C38 1_555 1_555
C40 C39 1_555 1_555
C41 C40 1_555 1_555
C42 N4 1_555 1_555
H8 C2 1_555 1_555
H9 C7 1_555 1_555
H10 C10 1_555 1_555
H11 C11 1_555 1_555
H12 C13 1_555 1_555
H13 C18 1_555 1_555
H14 C23 1_555 1_555
H15 C24 1_555 1_555
H16 C25 1_555 1_555
H17 C26 1_555 1_555
H18 C29 1_555 1_555
H19 C30 1_555 1_555
H20 C31 1_555 1_555
H21 C32 1_555 1_555
H22 C34 1_555 1_555
H23 C35 1_555 1_555
H24 C36 1_555 1_555
H25 C39 1_555 1_555
H26 C40 1_555 1_555
H27 C41 1_555 1_555
H28 C42 1_555 1_555
H29 C3 1_555 1_555
H30 C4 1_555 1_555
H31 C14 1_555 1_555
H32 C15 1_555 1_555
H33 C3 1_555 1_555
H34 C4 1_555 1_555
H35 C14 1_555 1_555
H36 C15 1_555 1_555
H37 N5 1_555 1_555
H38 N6 1_555 1_555
Pb1_2 O3 1_555 1_555
Pb1_3 O8 1_555 1_555
Pb2_2 O4 1_555 1_555
Pb2_3 O7 1_555 1_555
O3_2 Pb1 1_555 1_555
O4_2 Pb1 1_555 1_555
O7_2 Pb2 1_555 1_555
O8_2 Pb1 1_555 1_555
Pb2 O4_2 1_555 1_555
Pb2 O8_2 1_555 1_555
O4 Pb1_2 1_555 1_555
O6 C12 1_555 1_555
O8 Pb2_3 1_555 1_555
C1 C2 1_555 1_555
C10 C11 1_555 1_555
C12 C13 1_555 1_555
C21 C22 1_555 1_555
C26 C27 1_555 1_555
C27 C28 1_555 1_555
C31 C32 1_555 1_555
C36 C37 1_555 1_555
C37 C38 1_555 1_555
C41 C42 1_555 1_555

#END
