
#######################################################################
#
#                 Cambridge Crystallographic Data Centre
#                                CCDC 
#
#######################################################################
#
# If this CIF has been generated from an entry in the Cambridge 
# Structural Database, then it will include bibliographic, chemical, 
# crystal, experimental, refinement or atomic coordinate data resulting 
# from the CCDC's data processing and validation procedures.
#
#######################################################################

data_SEGDIT
_symmetry_cell_setting           triclinic
_symmetry_space_group_name_H-M   'P -1'
_symmetry_Int_Tables_number      2
_space_group_name_Hall           '-P 1'
loop_
_symmetry_equiv_pos_site_id
_symmetry_equiv_pos_as_xyz
1 x,y,z
2 -x,-y,-z
_cell_length_a                   10.6827(2)
_cell_length_b                   14.4414(3)
_cell_length_c                   14.6757(3)
_cell_angle_alpha                102.8860(10)
_cell_angle_beta                 99.6040(10)
_cell_angle_gamma                104.2590(10)
_cell_volume                     2079.29
loop_
_atom_site_label
_atom_site_type_symbol
_atom_site_fract_x
_atom_site_fract_y
_atom_site_fract_z
C1 C -0.4518(3) 0.0808(3) 0.3473(2)
C2 C 1.0286(3) 0.8936(2) 0.4771(2)
C3 C 0.8305(3) 0.8193(2) 0.5410(2)
H1 H 0.7755 0.8002 0.4796
C4 C -0.2626(3) 0.2157(3) 0.4651(3)
H2 H -0.2209 0.2214 0.4150
C5 C 0.7782(3) 0.7980(3) 0.6168(2)
C6 C 0.4509(3) 0.6047(3) 0.4878(2)
C7 C 0.6381(3) 0.7364(3) 0.6054(3)
C8 C 0.3425(3) 0.4154(3) 0.7311(3)
C9 C -0.3873(3) 0.1473(3) 0.4465(2)
C10 C 0.8593(4) 0.8303(3) 0.7083(3)
H3 H 0.8238 0.8182 0.7597
C11 C 1.2837(4) 1.0178(3) 0.9344(3)
C12 C 0.9642(3) 0.8691(2) 0.5559(2)
C13 C 1.0443(3) 0.8985(3) 0.6474(2)
H4 H 1.1343 0.9307 0.6574
C14 C 0.9976(3) 0.8489(3) 0.2999(2)
C15 C -0.1996(3) 0.2752(2) 0.5573(3)
C16 C 1.1243(3) 0.8964(3) 0.2935(2)
H5 H 1.1909 0.9271 0.3495
C17 C -0.4493(3) 0.1406(3) 0.5212(2)
H6 H -0.5332 0.0956 0.5094
C18 C 0.4876(3) 0.3292(3) 0.8113(2)
H7 H 0.4379 0.2697 0.7661
C19 C 0.4545(3) 0.4159(3) 0.8084(2)
C20 C 0.9934(3) 0.8808(3) 0.7247(2)
C21 C 0.3779(3) 0.5762(3) 0.5511(3)
H8 H 0.4085 0.6098 0.6161
C22 C 0.4019(4) 0.5564(3) 0.3914(3)
H9 H 0.4476 0.5756 0.3468
C23 C 1.0744(4) 0.9141(3) 0.8261(3)
C24 C -0.0654(4) 0.3465(3) 0.5770(3)
C25 C -0.2618(4) 0.2663(3) 0.6319(3)
H10 H -0.2193 0.3048 0.6943
C26 C 0.2847(4) 0.4794(3) 0.3609(3)
H11 H 0.2515 0.4454 0.2961
C27 C 1.2890(4) 0.9717(3) 1.0058(3)
H12 H 1.2442 0.9043 0.9910
C28 C -0.3876(4) 0.2000(3) 0.6132(3)
H13 H -0.4304 0.1956 0.6630
C29 C 0.5941(4) 0.3303(3) 0.8809(3)
C30 C 0.2181(4) 0.4542(3) 0.4285(3)
H14 H 0.1389 0.4027 0.4084
C31 C 0.9003(4) 0.8058(3) 0.2163(3)
H15 H 0.8149 0.7724 0.2183
C32 C 1.0561(4) 0.8586(4) 0.1287(3)
H16 H 1.0756 0.8623 0.0699
C33 C 0.9294(4) 0.8119(4) 0.1304(3)
H17 H 0.8635 0.7846 0.0737
C34 C 1.4245(4) 1.1160(3) 1.1165(3)
H18 H 1.4687 1.1507 1.1797
C35 C 0.6666(5) 0.4195(4) 0.9477(3)
H19 H 0.7369 0.4211 0.9955
C36 C 0.5285(5) 0.5042(3) 0.8757(3)
H20 H 0.5063 0.5624 0.8748
C37 C 0.6357(5) 0.5061(4) 0.9443(4)
H21 H 0.6871 0.5660 0.9882
C38 C 1.4308(5) 1.1651(4) 1.0465(3)
H22 H 1.4831 1.2308 1.0613
C39 C 0.6350(4) 0.2385(3) 0.8825(3)
C40 C 1.3586(4) 1.1155(3) 0.9541(3)
H23 H 1.3603 1.1475 0.9056
C41 C 0.1160(9) 0.6547(6) 0.7390(6)
H24 H 0.0700 0.6087 0.7701
H25 H 0.0609 0.6968 0.7265
C42 C 0.2369(11) 0.7154(8) 0.8044(7)
H26 H 0.2742 0.7707 0.7811
H27 H 0.2982 0.6772 0.8100
H28 H 0.2201 0.7396 0.8662
N1 N 1.3567(3) 1.0200(2) 1.0967(2)
N2 N 1.1531(3) 0.8992(2) 0.2085(2)
N3 N 0.2634(3) 0.5011(2) 0.5218(2)
N4 N 0.5750(3) 0.6780(2) 0.5155(2)
N5 N 0.9620(2) 0.8403(2) 0.38678(19)
N6 N 1.2021(3) 0.9672(3) 0.8417(2)
O1 O 0.0006(3) 0.3885(2) 0.6617(2)
O2 O -0.0156(3) 0.3642(2) 0.5087(2)
O3 O 0.3075(3) 0.4934(2) 0.73979(19)
O4 O 0.2900(2) 0.3403(2) 0.66040(18)
O5 O 0.5875(3) 0.7373(2) 0.67399(19)
O6 O 1.0265(3) 0.8959(3) 0.8912(2)
O7 O 1.1353(2) 0.95754(18) 0.49551(16)
O8 O -0.3861(3) 0.0705(2) 0.28595(18)
O9 O -0.5756(2) 0.03518(19) 0.33136(17)
O10 O 0.5708(3) 0.1603(2) 0.81518(18)
O11 O 0.7296(3) 0.2409(2) 0.9453(2)
O14 O 0.1261(3) 0.6021(2) 0.6545(2)
Zn1 Zn 0.16433(4) 0.47004(3) 0.62524(3)
Zn2 Zn 1.34967(4) 0.94908(3) 0.20116(3)
H31 H 0.8872 0.7950 0.3840
H32 H 1.2323 0.9724 0.7897
H33 H 0.6210 0.6811 0.4702
H38 H 0.0834 0.6221 0.5983
N1_2 N 1.3567(3) 1.0200(2) 0.0967(2)
O9_2 O 1.4244(2) 1.03518(19) 0.33136(17)
O10A O 1.4292(3) 0.8397(2) 0.18482(18)
Zn2_2 Zn 1.34967(4) 0.94908(3) 1.20116(3)
Zn2_3 Zn -0.65033(4) -0.05092(3) 0.20116(3)
Zn2A Zn 0.65033(4) 0.05092(3) 0.79884(3)
O12 O 0.6988(4) 0.8970(3) 0.3304(3)
O13 O 1.0109(6) 0.6282(4) 0.9772(4)
H29 H 0.9896 0.5879 1.0095
H30 H 0.9795 0.5851 0.9227
O15 O -0.0208(7) 0.5516(6) 0.1320(5)
H34 H 0.0107 0.5906 0.1013
H35 H 0.0496 0.5372 0.1494
O16 O 0.8312(7) 0.7022(5) 0.8804(6)
H36 H 0.8956 0.6774 0.8906
H37 H 0.8785 0.7616 0.9103
C43? C 0.101(3) 0.6641(19) 0.8489(17)
H39? H 0.1454 0.6221 0.8752
H40? H 0.0091 0.6440 0.8495
H41? H 0.1414 0.7319 0.8868
loop_
_geom_bond_atom_site_label_1
_geom_bond_atom_site_label_2
_geom_bond_site_symmetry_1
_geom_bond_site_symmetry_2
C1 C9 1_555 1_555
C2 C12 1_555 1_555
C3 H1 1_555 1_555
C4 H2 1_555 1_555
C5 C3 1_555 1_555
C6 C21 1_555 1_555
C7 C5 1_555 1_555
C8 C19 1_555 1_555
C9 C4 1_555 1_555
C10 C5 1_555 1_555
H3 C10 1_555 1_555
C11 C27 1_555 1_555
C12 C3 1_555 1_555
C13 C12 1_555 1_555
H4 C13 1_555 1_555
C14 C16 1_555 1_555
C15 C4 1_555 1_555
C16 H5 1_555 1_555
C17 C9 1_555 1_555
H6 C17 1_555 1_555
C18 H7 1_555 1_555
C19 C18 1_555 1_555
C20 C10 1_555 1_555
C21 H8 1_555 1_555
C22 C6 1_555 1_555
H9 C22 1_555 1_555
C23 C20 1_555 1_555
C24 C15 1_555 1_555
C25 C15 1_555 1_555
H10 C25 1_555 1_555
C26 C22 1_555 1_555
H11 C26 1_555 1_555
C27 H12 1_555 1_555
C28 C17 1_555 1_555
H13 C28 1_555 1_555
C29 C18 1_555 1_555
C30 C26 1_555 1_555
H14 C30 1_555 1_555
C31 C14 1_555 1_555
H15 C31 1_555 1_555
C32 H16 1_555 1_555
C33 C31 1_555 1_555
H17 C33 1_555 1_555
C34 H18 1_555 1_555
C35 C29 1_555 1_555
H19 C35 1_555 1_555
C36 C19 1_555 1_555
H20 C36 1_555 1_555
C37 C35 1_555 1_555
H21 C37 1_555 1_555
C38 C34 1_555 1_555
H22 C38 1_555 1_555
C39 C29 1_555 1_555
C40 C11 1_555 1_555
H23 C40 1_555 1_555
C41 H24 1_555 1_555
H25 C41 1_555 1_555
C42 C41 1_555 1_555
H26 C42 1_555 1_555
H27 C42 1_555 1_555
H28 C42 1_555 1_555
N1 C27 1_555 1_555
N2 C16 1_555 1_555
N3 C21 1_555 1_555
N4 C6 1_555 1_555
N5 C2 1_555 1_555
N6 C11 1_555 1_555
O1 C24 1_555 1_555
O2 C24 1_555 1_555
O3 C8 1_555 1_555
O4 C8 1_555 1_555
O5 C7 1_555 1_555
O6 C23 1_555 1_555
O7 C2 1_555 1_555
O8 C1 1_555 1_555
O9 C1 1_555 1_555
O10 C39 1_555 1_555
O11 C39 1_555 1_555
O13 H29 1_555 1_555
O14 C41 1_555 1_555
O15 H34 1_555 1_555
O16 H36 1_555 1_555
Zn1 N3 1_555 1_555
Zn2 N2 1_555 1_555
H30 O13 1_555 1_555
H31 N5 1_555 1_555
H32 N6 1_555 1_555
H33 N4 1_555 1_555
H35 O15 1_555 1_555
H37 O16 1_555 1_555
H38 O14 1_555 1_555
N1_2 Zn2 1_555 1_555
O9_2 Zn2 1_555 1_555
O10A Zn2 1_555 1_555
Zn2_2 N1 1_555 1_555
Zn2_3 O9 1_555 1_555
Zn2A O10 1_555 1_555
C7 N4 1_555 1_555
C13 C20 1_555 1_555
C14 N5 1_555 1_555
C23 N6 1_555 1_555
C25 C28 1_555 1_555
C30 N3 1_555 1_555
C32 C33 1_555 1_555
C32 N2 1_555 1_555
C34 N1 1_555 1_555
C36 C37 1_555 1_555
C38 C40 1_555 1_555
O1 Zn1 1_555 1_555
O2 Zn1 1_555 1_555
O3 Zn1 1_555 1_555
O14 Zn1 1_555 1_555

#END
