
#######################################################################
#
#                 Cambridge Crystallographic Data Centre
#                                CCDC 
#
#######################################################################
#
# If this CIF has been generated from an entry in the Cambridge 
# Structural Database, then it will include bibliographic, chemical, 
# crystal, experimental, refinement or atomic coordinate data resulting 
# from the CCDC's data processing and validation procedures.
#
#######################################################################

data_SEGFIV
_symmetry_cell_setting           triclinic
_symmetry_space_group_name_H-M   'P -1'
_symmetry_Int_Tables_number      2
_space_group_name_Hall           '-P 1'
loop_
_symmetry_equiv_pos_site_id
_symmetry_equiv_pos_as_xyz
1 x,y,z
2 -x,-y,-z
_cell_length_a                   11.328(2)
_cell_length_b                   13.975(3)
_cell_length_c                   18.270(3)
_cell_angle_alpha                106.019(4)
_cell_angle_beta                 100.171(4)
_cell_angle_gamma                102.572(3)
_cell_volume                     2625.59
loop_
_atom_site_label
_atom_site_type_symbol
_atom_site_fract_x
_atom_site_fract_y
_atom_site_fract_z
Ag1 Ag 1.21873(5) 0.62122(4) 0.47141(3)
C1 C 0.9952(7) 0.6520(5) 0.5367(4)
H1 H 1.0599 0.6882 0.5835
C2 C 0.8757(6) 0.6521(6) 0.5390(4)
H2 H 0.8592 0.6874 0.5869
C3 C 0.7775(6) 0.6009(5) 0.4719(4)
C4 C 0.8093(7) 0.5466(5) 0.4054(4)
H3 H 0.7458 0.5072 0.3586
C5 C 0.9317(7) 0.5497(5) 0.4072(4)
H4 H 0.9506 0.5123 0.3609
C6 C 0.4903(6) 0.6322(5) 0.5398(4)
H5 H 0.4644 0.6446 0.5874
C7 C 0.6089(7) 0.6248(5) 0.5416(4)
H6 H 0.6633 0.6307 0.5896
C8 C 0.6506(6) 0.6084(5) 0.4719(4)
C9 C 0.5633(6) 0.5977(5) 0.4036(4)
H7 H 0.5854 0.5847 0.3548
C10 C 0.4472(7) 0.6058(6) 0.4069(4)
H8 H 0.3905 0.5990 0.3596
N1 N 1.0262(5) 0.6034(5) 0.4715(3)
N2 N 0.4081(5) 0.6226(4) 0.4727(3)
Ag1_2 Ag 0.21873(5) 0.62122(4) 0.47141(3)
N2_2 N 1.4081(5) 0.6226(4) 0.4727(3)
Ag2 Ag 1.25532(5) 0.86248(4) 0.49018(3)
C11 C 1.0405(7) 0.9164(5) 0.5536(4)
H9 H 1.1068 0.9511 0.5997
C12 C 0.9218(6) 0.9240(5) 0.5567(4)
H10 H 0.9075 0.9629 0.6042
C13 C 0.8231(7) 0.8742(5) 0.4895(4)
C14 C 0.8515(6) 0.8173(5) 0.4222(4)
H11 H 0.7868 0.7805 0.3755
C15 C 0.9718(6) 0.8142(5) 0.4230(4)
H12 H 0.9890 0.7770 0.3760
C16 C 0.5339(7) 0.8968(6) 0.5588(4)
H13 H 0.5098 0.9116 0.6070
C17 C 0.6570(7) 0.8994(6) 0.5614(4)
H14 H 0.7161 0.9167 0.6102
C18 C 0.6929(7) 0.8761(6) 0.4905(5)
C19 C 0.6040(6) 0.8606(5) 0.4226(4)
H15 H 0.6264 0.8512 0.3739
C20 C 0.4830(7) 0.8589(5) 0.4257(4)
H16 H 0.4227 0.8458 0.3782
N3 N 1.0664(5) 0.8619(4) 0.4881(3)
N4 N 0.4468(5) 0.8749(4) 0.4927(3)
Ag2_2 Ag 0.25532(5) 0.86248(4) 0.49018(3)
N4_2 N 1.4468(5) 0.8749(4) 0.4927(3)
Ag3 Ag 0.26087(5) 0.62977(5) 0.99269(4)
C21 C 0.4753(7) 0.5738(6) 0.9325(4)
H17 H 0.4096 0.5386 0.8861
C22 C 0.5952(6) 0.5663(5) 0.9308(4)
H18 H 0.6095 0.5250 0.8842
C23 C 0.6940(6) 0.6186(5) 0.9967(4)
C24 C 0.6659(7) 0.6761(5) 1.0633(4)
H19 H 0.7303 0.7129 1.1101
C25 C 0.5439(6) 0.6799(5) 1.0615(4)
H20 H 0.5266 0.7198 1.1075
C26 C 0.9792(7) 0.5805(6) 0.9276(4)
H21 H 0.9997 0.5545 0.8791
C27 C 0.8565(6) 0.5762(5) 0.9260(4)
H22 H 0.7946 0.5474 0.8773
C28 C 0.8226(6) 0.6146(5) 0.9966(4)
C29 C 0.9188(6) 0.6521(5) 1.0656(4)
H23 H 0.9010 0.6772 1.1152
C30 C 1.0390(7) 0.6526(6) 1.0619(4)
H24 H 1.1023 0.6777 1.1098
N5 N 0.4493(5) 0.6285(5) 0.9966(3)
N6 N 1.0720(5) 0.6196(4) 0.9940(4)
Ag3_2 Ag 1.26087(5) 0.62977(5) 0.99269(4)
N6_2 N 0.0720(5) 0.6196(4) 0.9940(4)
Ag4 Ag 0.30673(5) 0.87270(4) 1.02031(3)
C31 C 0.5279(6) 0.8383(6) 0.9528(4)
H25 H 0.4624 0.7994 0.9069
C32 C 0.6481(7) 0.8384(5) 0.9507(4)
H26 H 0.6641 0.7992 0.9039
C33 C 0.7472(6) 0.8955(5) 1.0165(4)
C34 C 0.7157(7) 0.9540(5) 1.0825(4)
H27 H 0.7795 0.9966 1.1283
C35 C 0.5922(6) 0.9493(5) 1.0807(4)
H28 H 0.5726 0.9886 1.1260
C36 C 1.0334(6) 0.8517(6) 0.9528(4)
H29 H 1.0563 0.8289 0.9047
C37 C 0.9128(7) 0.8582(5) 0.9499(4)
H30 H 0.8547 0.8396 0.9004
C38 C 0.8769(6) 0.8915(5) 1.0183(4)
C39 C 0.9665(7) 0.9161(5) 1.0891(4)
H31 H 0.9461 0.9394 1.1380
C40 C 1.0820(7) 0.9066(5) 1.0871(4)
H32 H 1.1409 0.9223 1.1358
N7 N 0.4992(5) 0.8911(4) 1.0171(3)
N8 N 1.1188(5) 0.8761(4) 1.0200(3)
Ag4_2 Ag 1.30673(5) 0.87270(4) 1.02031(3)
N8_2 N 0.1188(5) 0.8761(4) 1.0200(3)
C41 C 0.6884(8) 0.7977(6) 0.7457(4)
C42 C 0.8089(9) 0.8495(6) 0.7440(4)
H33 H 0.8256 0.9187 0.7429
C43 C 0.9030(8) 0.8013(7) 0.7438(4)
H34 H 0.9835 0.8379 0.7427
C44 C 0.8817(8) 0.6995(7) 0.7452(4)
H35 H 0.9471 0.6671 0.7454
C45 C 0.7641(7) 0.6470(6) 0.7461(4)
H36 H 0.7476 0.5773 0.7458
C46 C 0.6693(7) 0.6962(6) 0.7476(4)
C47 C 0.5476(8) 0.6438(6) 0.7530(4)
N9 N 0.5967(7) 0.8453(5) 0.7452(4)
H37 H 0.5216 0.8124 0.7461
H38 H 0.6120 0.9093 0.7439
N10 N 0.4524(7) 0.6043(6) 0.7575(4)
N11 N 0.1785(6) 0.1159(5) 0.7533(3)
O1 O 0.1288(5) 0.0206(4) 0.7376(3)
O2 O 0.1164(5) 0.1796(4) 0.7657(3)
O3 O 0.2918(5) 0.1484(4) 0.7568(3)
N12 N 0.3845(6) 0.8649(6) 1.2006(4)
O4 O 0.3750(5) 0.9402(4) 1.1772(3)
O5 O 0.4481(5) 0.8822(5) 1.2679(3)
O6 O 0.3337(5) 0.7749(4) 1.1564(3)
N13 N 0.2133(6) 0.7284(6) 0.8059(4)
O7 O 0.2118(6) 0.7144(5) 0.8700(3)
O8 O 0.1816(5) 0.6534(4) 0.7438(3)
O9 O 0.2107(18) 0.8153(18) 0.8003(17)
N14 N 0.1308(6) 0.6440(5) 0.2934(4)
O10 O 0.2092(5) 0.7219(5) 0.3434(3)
O11 O 0.0551(5) 0.6543(5) 0.2400(3)
O12 O 0.1282(5) 0.5570(5) 0.2983(4)
O13 O 0.1493(5) 0.9051(4) 0.2840(3)
H39 H 0.0701 0.8852 0.2679
H40 H 0.1727 0.8596 0.3009
O14 O 0.6081(5) 0.3884(4) 0.7740(3)
H41 H 0.6267 0.3434 0.7935
H42 H 0.5299 0.3804 0.7672
O15 O 0.6533(5) 0.6433(4) 0.2475(3)
H43 H 0.6741 0.7042 0.2448
H44 H 0.7035 0.6110 0.2303
O16 O 0.8089(5) 0.5224(4) 0.1918(3)
H45 H 0.8101 0.4723 0.2095
H46 H 0.8825 0.5630 0.2058
O17 O 0.3054(5) 0.7309(4) 0.6382(3)
H47 H 0.2689 0.7085 0.6695
H48 H 0.3132 0.7955 0.6498
O18 O 0.3320(5) 0.9431(4) 0.6750(3)
H49 H 0.3978 0.9939 0.6914
H50 H 0.2739 0.9639 0.6923
O19? O 0.2792(18) 0.8148(18) 0.8072(17)
loop_
_geom_bond_atom_site_label_1
_geom_bond_atom_site_label_2
_geom_bond_site_symmetry_1
_geom_bond_site_symmetry_2
Ag1 N1 1_555 1_555
Ag2 N3 1_555 1_555
Ag3 N5 1_555 1_555
Ag4 N7 1_555 1_555
C1 H1 1_555 1_555
C2 C1 1_555 1_555
H2 C2 1_555 1_555
C3 C2 1_555 1_555
C4 C3 1_555 1_555
H3 C4 1_555 1_555
C5 C4 1_555 1_555
H4 C5 1_555 1_555
C6 H5 1_555 1_555
C7 C6 1_555 1_555
H6 C7 1_555 1_555
C8 C3 1_555 1_555
C9 C8 1_555 1_555
H7 C9 1_555 1_555
C10 C9 1_555 1_555
H8 C10 1_555 1_555
C11 H9 1_555 1_555
C12 C11 1_555 1_555
H10 C12 1_555 1_555
C13 C12 1_555 1_555
C14 C13 1_555 1_555
H11 C14 1_555 1_555
C15 C14 1_555 1_555
H12 C15 1_555 1_555
C16 H13 1_555 1_555
C17 C16 1_555 1_555
H14 C17 1_555 1_555
C18 C13 1_555 1_555
C19 C18 1_555 1_555
H15 C19 1_555 1_555
C20 C19 1_555 1_555
H16 C20 1_555 1_555
C21 H17 1_555 1_555
C22 C21 1_555 1_555
H18 C22 1_555 1_555
C23 C22 1_555 1_555
C24 C23 1_555 1_555
H19 C24 1_555 1_555
C25 C24 1_555 1_555
H20 C25 1_555 1_555
C26 H21 1_555 1_555
C27 C26 1_555 1_555
H22 C27 1_555 1_555
C28 C23 1_555 1_555
C29 C28 1_555 1_555
H23 C29 1_555 1_555
C30 C29 1_555 1_555
H24 C30 1_555 1_555
C31 H25 1_555 1_555
C32 C31 1_555 1_555
H26 C32 1_555 1_555
C33 C32 1_555 1_555
C34 C33 1_555 1_555
H27 C34 1_555 1_555
C35 C34 1_555 1_555
H28 C35 1_555 1_555
C36 H29 1_555 1_555
C37 C36 1_555 1_555
H30 C37 1_555 1_555
C38 C33 1_555 1_555
C39 C38 1_555 1_555
H31 C39 1_555 1_555
C40 C39 1_555 1_555
H32 C40 1_555 1_555
C41 C42 1_555 1_555
C42 H33 1_555 1_555
C43 C42 1_555 1_555
H34 C43 1_555 1_555
C44 C43 1_555 1_555
H35 C44 1_555 1_555
C45 C44 1_555 1_555
H36 C45 1_555 1_555
C46 C41 1_555 1_555
C47 C46 1_555 1_555
N1 C1 1_555 1_555
N2 C6 1_555 1_555
N3 C11 1_555 1_555
N4 C16 1_555 1_555
N5 C21 1_555 1_555
N6 C26 1_555 1_555
N7 C31 1_555 1_555
N8 C36 1_555 1_555
N9 C41 1_555 1_555
H37 N9 1_555 1_555
H38 N9 1_555 1_555
N10 C47 1_555 1_555
N11 O1 1_555 1_555
N12 O4 1_555 1_555
N13 O7 1_555 1_555
N14 O10 1_555 1_555
O2 N11 1_555 1_555
O3 N11 1_555 1_555
O5 N12 1_555 1_555
O6 N12 1_555 1_555
O8 N13 1_555 1_555
O9 N13 1_555 1_555
O11 N14 1_555 1_555
O12 N14 1_555 1_555
O13 H39 1_555 1_555
H40 O13 1_555 1_555
O14 H41 1_555 1_555
H42 O14 1_555 1_555
O15 H43 1_555 1_555
H44 O15 1_555 1_555
O16 H45 1_555 1_555
H46 O16 1_555 1_555
O17 H47 1_555 1_555
H48 O17 1_555 1_555
O18 H49 1_555 1_555
H50 O18 1_555 1_555
Ag1_2 N2 1_555 1_555
Ag2_2 N4 1_555 1_555
Ag3_2 N6 1_555 1_555
Ag4_2 N8 1_555 1_555
N2_2 Ag1 1_555 1_555
N4_2 Ag2 1_555 1_555
N6_2 Ag3 1_555 1_555
N8_2 Ag4 1_555 1_555
C5 N1 1_555 1_555
C7 C8 1_555 1_555
C10 N2 1_555 1_555
C15 N3 1_555 1_555
C17 C18 1_555 1_555
C20 N4 1_555 1_555
C25 N5 1_555 1_555
C27 C28 1_555 1_555
C30 N6 1_555 1_555
C35 N7 1_555 1_555
C37 C38 1_555 1_555
C40 N8 1_555 1_555
C45 C46 1_555 1_555

#END
