
#######################################################################
#
#                 Cambridge Crystallographic Data Centre
#                                CCDC 
#
#######################################################################
#
# If this CIF has been generated from an entry in the Cambridge 
# Structural Database, then it will include bibliographic, chemical, 
# crystal, experimental, refinement or atomic coordinate data resulting 
# from the CCDC's data processing and validation procedures.
#
#######################################################################

data_SEGFUH
_symmetry_cell_setting           monoclinic
_symmetry_space_group_name_H-M   'P 21/c'
_symmetry_Int_Tables_number      14
_space_group_name_Hall           '-P 2ybc'
loop_
_symmetry_equiv_pos_site_id
_symmetry_equiv_pos_as_xyz
1 x,y,z
2 -x,1/2+y,1/2-z
3 -x,-y,-z
4 x,1/2-y,1/2+z
_cell_length_a                   14.010(4)
_cell_length_b                   11.380(3)
_cell_length_c                   18.085(5)
_cell_angle_alpha                90
_cell_angle_beta                 101.627(5)
_cell_angle_gamma                90
_cell_volume                     2824.19
loop_
_atom_site_label
_atom_site_type_symbol
_atom_site_fract_x
_atom_site_fract_y
_atom_site_fract_z
Ag1 Ag 0.88953(6) 1.01668(6) 0.50371(4)
C1 C 0.9099(7) 0.7694(8) 0.5746(5)
H1 H 0.9343 0.8116 0.6198
C2 C 0.9053(8) 0.6480(10) 0.5776(5)
H2 H 0.9246 0.6101 0.6250
C3 C 0.8741(7) 0.5811(8) 0.5154(6)
C4 C 0.8428(7) 0.6451(8) 0.4468(5)
H3 H 0.8183 0.6043 0.4011
C5 C 0.8482(8) 0.7653(9) 0.4471(6)
H4 H 0.8277 0.8057 0.4006
C6 C 0.9057(8) 0.2634(10) 0.5736(6)
H5 H 0.9274 0.2201 0.6188
C7 C 0.9022(8) 0.3869(10) 0.5778(6)
H6 H 0.9209 0.4253 0.6252
C8 C 0.8718(6) 0.4513(9) 0.5136(5)
C9 C 0.8429(9) 0.3856(10) 0.4480(5)
H7 H 0.8185 0.4248 0.4017
C10 C 0.8488(9) 0.2695(8) 0.4490(6)
H8 H 0.8289 0.2290 0.4025
N1 N 0.8812(5) 0.8297(6) 0.5101(4)
N2 N 0.8805(5) 0.2062(7) 0.5103(4)
Ag1_2 Ag 0.88953(6) 0.01668(6) 0.50371(4)
N2_2 N 0.8805(5) 1.2062(7) 0.5103(4)
Ag2 Ag 0.62280(6) 1.31227(7) 0.48824(5)
C11 C 0.6222(9) 1.0652(10) 0.5548(7)
H9 H 0.6205 1.1082 0.5995
C12 C 0.6149(8) 0.9421(9) 0.5557(6)
H10 H 0.6054 0.9031 0.6001
C13 C 0.6214(7) 0.8772(8) 0.4917(5)
C14 C 0.6331(9) 0.9408(10) 0.4306(7)
H11 H 0.6377 0.9010 0.3853
C15 C 0.6385(8) 1.0604(10) 0.4328(6)
H12 H 0.6477 1.1011 0.3889
C16 C 0.6459(7) 0.5586(9) 0.5532(6)
H13 H 0.6682 0.5154 0.5984
C17 C 0.6480(7) 0.6838(8) 0.5564(5)
H14 H 0.6710 0.7218 0.6034
C18 C 0.6169(7) 0.7518(8) 0.4914(5)
C19 C 0.5828(7) 0.6846(8) 0.4241(6)
H15 H 0.5602 0.7238 0.3774
C20 C 0.5827(8) 0.5618(9) 0.4268(6)
H16 H 0.5589 0.5202 0.3813
N3 N 0.6315(6) 1.1222(8) 0.4934(5)
N4 N 0.6137(6) 0.4998(7) 0.4892(4)
Ag2_2 Ag 0.62280(6) 0.31227(7) 0.48824(5)
N4_2 N 0.6137(6) 1.4998(7) 0.4892(4)
C21 C 0.1189(8) 0.6143(11) 0.7444(6)
C22 C 0.1649(8) 0.4999(8) 0.7476(5)
C23 C 0.1092(7) 0.3982(8) 0.7453(5)
H17 H 0.0412 0.4028 0.7438
C24 C 0.1542(7) 0.2911(9) 0.7451(5)
H18 H 0.1164 0.2216 0.7435
C25 C 0.2557(7) 0.2815(9) 0.7472(5)
C26 C 0.3097(7) 0.3850(9) 0.7490(5)
H19 H 0.3778 0.3806 0.7505
C27 C 0.2655(7) 0.4940(8) 0.7484(5)
H20 H 0.3026 0.5639 0.7487
N5 N 0.0812(8) 0.7042(8) 0.7374(5)
N6 N 0.2989(6) 0.1749(7) 0.7442(5)
H21 H 0.3614 0.1708 0.7434
H22 H 0.2643 0.1102 0.7432
N7 N 0.8860(6) 0.4881(7) 0.8179(4)
O1 O 0.8175(6) 0.4706(7) 0.8502(4)
O3 O 0.9691(6) 0.5066(7) 0.8557(4)
O4 O 0.8707(6) 0.4933(6) 0.7477(4)
N8 N 0.5610(7) 0.2981(8) 0.2973(6)
O5 O 0.5348(8) 0.3069(13) 0.2314(6)
O6 O 0.5054(7) 0.3015(9) 0.3404(6)
O7 O 0.6494(7) 0.2848(9) 0.3276(6)
O2 O 0.3044(7) 0.6673(9) 0.3328(5)
H23 H 0.2613 0.6278 0.3033
H24 H 0.3417 0.6996 0.3071
loop_
_geom_bond_atom_site_label_1
_geom_bond_atom_site_label_2
_geom_bond_site_symmetry_1
_geom_bond_site_symmetry_2
Ag1 N1 1_555 1_555
Ag2 N3 1_555 1_555
C1 H1 1_555 1_555
C2 C1 1_555 1_555
H2 C2 1_555 1_555
C3 C2 1_555 1_555
C4 C3 1_555 1_555
H3 C4 1_555 1_555
C5 C4 1_555 1_555
H4 C5 1_555 1_555
C6 H5 1_555 1_555
C7 C6 1_555 1_555
H6 C7 1_555 1_555
C8 C3 1_555 1_555
C9 C8 1_555 1_555
H7 C9 1_555 1_555
C10 C9 1_555 1_555
H8 C10 1_555 1_555
C11 H9 1_555 1_555
C12 C11 1_555 1_555
H10 C12 1_555 1_555
C13 C12 1_555 1_555
C14 C13 1_555 1_555
H11 C14 1_555 1_555
C15 C14 1_555 1_555
H12 C15 1_555 1_555
C16 H13 1_555 1_555
C17 C16 1_555 1_555
H14 C17 1_555 1_555
C18 C13 1_555 1_555
C19 C18 1_555 1_555
H15 C19 1_555 1_555
C20 C19 1_555 1_555
H16 C20 1_555 1_555
C21 C22 1_555 1_555
C22 C23 1_555 1_555
C23 H17 1_555 1_555
C24 C23 1_555 1_555
H18 C24 1_555 1_555
C25 C24 1_555 1_555
C26 C25 1_555 1_555
H19 C26 1_555 1_555
C27 C22 1_555 1_555
H20 C27 1_555 1_555
N1 C1 1_555 1_555
N2 C6 1_555 1_555
N3 C11 1_555 1_555
N4 C16 1_555 1_555
N5 C21 1_555 1_555
N6 C25 1_555 1_555
H21 N6 1_555 1_555
H22 N6 1_555 1_555
N7 O1 1_555 1_555
N8 O5 1_555 1_555
O2 H23 1_555 1_555
H24 O2 1_555 1_555
O3 N7 1_555 1_555
O4 N7 1_555 1_555
O6 N8 1_555 1_555
O7 N8 1_555 1_555
Ag1_2 N2 1_555 1_555
Ag2_2 N4 1_555 1_555
N2_2 Ag1 1_555 1_555
N4_2 Ag2 1_555 1_555
C5 N1 1_555 1_555
C7 C8 1_555 1_555
C10 N2 1_555 1_555
C15 N3 1_555 1_555
C17 C18 1_555 1_555
C20 N4 1_555 1_555
C26 C27 1_555 1_555

#END
