
#######################################################################
#
#                 Cambridge Crystallographic Data Centre
#                                CCDC 
#
#######################################################################
#
# If this CIF has been generated from an entry in the Cambridge 
# Structural Database, then it will include bibliographic, chemical, 
# crystal, experimental, refinement or atomic coordinate data resulting 
# from the CCDC's data processing and validation procedures.
#
#######################################################################

data_SEGHOB
_symmetry_cell_setting           triclinic
_symmetry_space_group_name_H-M   'P -1'
_symmetry_Int_Tables_number      2
_space_group_name_Hall           '-P 1'
loop_
_symmetry_equiv_pos_site_id
_symmetry_equiv_pos_as_xyz
1 x,y,z
2 -x,-y,-z
_cell_length_a                   6.721(2)
_cell_length_b                   7.221(2)
_cell_length_c                   8.719(2)
_cell_angle_alpha                81.33(2)
_cell_angle_beta                 85.35(2)
_cell_angle_gamma                75.21(2)
_cell_volume                     404.057
loop_
_atom_site_label
_atom_site_type_symbol
_atom_site_fract_x
_atom_site_fract_y
_atom_site_fract_z
Cu1 Cu -0.0047(2) 0.2917(2) -0.0682(1)
Cu2 Cu 0.4230(2) 0.4146(2) 0.1658(1)
Cl1 Cl 0.1048(3) 0.3260(3) 0.1662(3)
Cl2 Cl -0.3402(3) 0.2623(3) -0.0301(3)
N1 N -0.4485(12) 0.3349(12) -0.6390(8)
C1 C 0.244(1) 0.206(1) -0.223(1)
C2 C 0.083(1) 0.140(1) -0.260(1)
C3 C -0.058(1) 0.235(1) -0.378(1)
C4 C -0.209(1) 0.166(1) -0.418(1)
C5 C -0.342(1) 0.261(1) -0.540(1)
H1 H 0.34(1) 0.14(1) -0.17(1)
H2 H 0.28(1) 0.34(1) -0.30(1)
H3 H 0.08(1) 0.03(1) -0.21(1)
H4 H -0.06(1) 0.34(1) -0.41(1)
H5 H -0.20(1) 0.05(1) -0.38(1)
Cl1A Cl -0.1048(3) 0.6740(3) -0.1662(3)
Cu1A Cu 0.0047(2) 0.7083(2) 0.0682(1)
Cl2_2 Cl 0.6598(3) 0.2623(3) -0.0301(3)
Cl2A Cl 0.3402(3) 0.7377(3) 0.0301(3)
Cu2_2 Cu -0.5770(2) 0.4146(2) 0.1658(1)
Cu2A Cu -0.4230(2) 0.5854(2) -0.1658(1)
C1A C -0.244(1) 0.794(1) 0.223(1)
C2A C -0.083(1) 0.860(1) 0.260(1)
Cu2A_2 Cu 0.5770(2) 0.5854(2) -0.1658(1)
Cl2A_2 Cl -0.6598(3) 0.7377(3) 0.0301(3)
N1A N -0.5515(12) 0.6651(12) -0.3610(8)
H1A H -0.34(1) 0.86(1) 0.17(1)
H2A H -0.28(1) 0.66(1) 0.30(1)
C3A C 0.058(1) 0.765(1) 0.378(1)
H3A H -0.08(1) 0.97(1) 0.21(1)
C4A C 0.209(1) 0.834(1) 0.418(1)
H4A H 0.06(1) 0.66(1) 0.41(1)
C5A C 0.342(1) 0.739(1) 0.540(1)
H5A H 0.20(1) 0.95(1) 0.38(1)
N1_2 N 0.5515(12) 0.3349(12) 0.3610(8)
N1A_2 N 0.4485(12) 0.6651(12) 0.6390(8)
Cu2_3 Cu -0.5770(2) 0.4146(2) -0.8342(1)
Cu2A_3 Cu 0.5770(2) 0.5854(2) 0.8342(1)
loop_
_geom_bond_atom_site_label_1
_geom_bond_atom_site_label_2
_geom_bond_site_symmetry_1
_geom_bond_site_symmetry_2
Cu1 Cl1 1_555 1_555
Cu2 Cl1 1_555 1_555
Cl1 Cu1A 1_555 1_555
Cl2 Cu1 1_555 1_555
N1 C5 1_555 1_555
C1 Cu1 1_555 1_555
C2 Cu1 1_555 1_555
C3 C2 1_555 1_555
C4 C3 1_555 1_555
C5 C4 1_555 1_555
H1 C1 1_555 1_555
H2 C1 1_555 1_555
H3 C2 1_555 1_555
H4 C3 1_555 1_555
H5 C4 1_555 1_555
Cl1A Cu1 1_555 1_555
Cu1A Cl1A 1_555 1_555
Cl2_2 Cu2 1_555 1_555
Cl2A Cu2 1_555 1_555
Cu2_2 Cl2 1_555 1_555
Cu2A Cl2 1_555 1_555
C1A Cu1A 1_555 1_555
C2A Cu1A 1_555 1_555
Cu2A_2 Cl2_2 1_555 1_555
Cl2A_2 Cu2_2 1_555 1_555
N1A Cu2A 1_555 1_555
H1A C1A 1_555 1_555
H2A C1A 1_555 1_555
C3A C2A 1_555 1_555
H3A C2A 1_555 1_555
C4A C3A 1_555 1_555
H4A C3A 1_555 1_555
C5A C4A 1_555 1_555
H5A C4A 1_555 1_555
N1_2 Cu2 1_555 1_555
N1A_2 C5A 1_555 1_555
Cu2_3 N1 1_555 1_555
Cu2A_3 N1A_2 1_555 1_555
C1 C2 1_555 1_555
Cl1A Cu2A 1_555 1_555
Cu1A Cl2A 1_555 1_555
Cl2A Cu2A_2 1_555 1_555
Cu2A Cl2A_2 1_555 1_555
C1A C2A 1_555 1_555

#END
