
#######################################################################
#
#                 Cambridge Crystallographic Data Centre
#                                CCDC 
#
#######################################################################
#
# If this CIF has been generated from an entry in the Cambridge 
# Structural Database, then it will include bibliographic, chemical, 
# crystal, experimental, refinement or atomic coordinate data resulting 
# from the CCDC's data processing and validation procedures.
#
#######################################################################

data_SEGKEW
_symmetry_cell_setting           monoclinic
_symmetry_space_group_name_H-M   'P 21/c'
_symmetry_Int_Tables_number      14
_space_group_name_Hall           '-P 2ybc'
loop_
_symmetry_equiv_pos_site_id
_symmetry_equiv_pos_as_xyz
1 x,y,z
2 -x,1/2+y,1/2-z
3 -x,-y,-z
4 x,1/2-y,1/2+z
_cell_length_a                   7.9573(3)
_cell_length_b                   16.6249(5)
_cell_length_c                   20.7201(7)
_cell_angle_alpha                90
_cell_angle_beta                 96.423(3)
_cell_angle_gamma                90
_cell_volume                     2723.84
loop_
_atom_site_label
_atom_site_type_symbol
_atom_site_fract_x
_atom_site_fract_y
_atom_site_fract_z
O1 O 0.4794(4) 0.68023(16) 0.27564(15)
O2 O 0.0303(4) 0.67428(16) 0.28869(15)
C1 C 0.5610(6) 0.5432(2) 0.2828(2)
C2 C 0.3711(6) 0.5189(2) 0.1618(2)
C3 C 0.3775(6) 0.5941(2) 0.1889(2)
C4 C 0.1105(6) 0.5370(2) 0.29741(19)
C5 C 0.1031(5) 0.4617(2) 0.2713(2)
C6 C 0.4724(6) 0.6113(2) 0.2513(2)
C7 C -0.0746(6) 0.5865(2) 0.2037(2)
Cl1 Cl -0.20132(15) 0.49142(6) 0.10437(5)
Cl2 Cl 0.65881(16) 0.38817(6) 0.29541(5)
O3 O 0.4528(4) 0.38122(16) 0.16946(15)
O4 O 0.0025(4) 0.37458(16) 0.18466(15)
C8 C -0.0814(6) 0.5111(2) 0.1773(2)
C9 C 0.4559(6) 0.4506(2) 0.1938(2)
O5 O 0.8708(5) 0.7166(2) 0.44373(17)
O6 O 0.3823(5) 0.7324(2) 0.45038(18)
C10 C 0.9677(6) 0.7430(3) 0.4885(2)
C11 C 0.4823(7) 0.7532(3) 0.4961(2)
C12 C 1.0024(7) 0.6009(3) 0.5322(3)
C13 C 0.5009(7) 0.6062(3) 0.5294(3)
C14 C 0.5395(7) 0.8394(3) 0.5052(2)
H1 H 0.4882 0.8714 0.4697
H2 H 0.6603 0.842 0.5064
H3 H 0.5063 0.8597 0.5453
C15 C 1.0166(7) 0.8311(3) 0.4922(3)
H4 H 0.9613 0.8589 0.4551
H5 H 1.1369 0.836 0.4926
H6 H 0.9825 0.8541 0.5312
C16 C 0.5482(6) 0.6933(3) 0.5465(2)
C17 C 1.0421(6) 0.6902(3) 0.5431(2)
H7 H 0.9993 0.7073 0.5829
H8 H 1.1639 0.6973 0.5487
Cl3 Cl -0.18646(15) 0.66567(6) 0.16622(5)
H9 H 0.498(7) 0.709(3) 0.588(3)
H10 H 0.377(8) 0.603(3) 0.524(3)
H11 H 0.667(7) 0.705(3) 0.551(2)
H12 H 0.546(8) 0.588(4) 0.492(3)
H13 H 1.064(7) 0.565(3) 0.566(3)
H14 H 1.036(8) 0.581(4) 0.497(3)
H15 H 0.553(8) 0.568(4) 0.563(3)
H16 H 0.879(9) 0.593(4) 0.532(3)
Cl4 Cl 0.27796(14) 0.67543(5) 0.14983(5)
Cl5 Cl 0.22058(14) 0.55757(6) 0.37191(5)
K1 K 0.27136(12) 0.77717(5) 0.33051(4)
K2 K 0.76328(12) 0.75931(5) 0.32053(4)
Cl6 Cl 0.19976(15) 0.38065(6) 0.31219(5)
Cl7 Cl 0.68167(15) 0.56317(6) 0.35526(5)
Cl8 Cl 0.26480(14) 0.50154(6) 0.08603(5)
C18 C 0.0241(6) 0.6049(2) 0.2649(2)
C19 C 0.0089(6) 0.4436(2) 0.2092(2)
C20 C 0.5536(6) 0.4679(2) 0.2563(2)
O2_2 O 1.0303(4) 0.67428(16) 0.28869(15)
O3A O 0.5472(4) 0.88122(16) 0.33054(15)
O4A O -0.0025(4) 0.87458(16) 0.31534(15)
O4A_2 O 0.9975(4) 0.87458(16) 0.31534(15)
K1A K 0.72864(12) 0.27717(5) 0.16949(4)
K1A_2 K -0.27136(12) 0.27717(5) 0.16949(4)
K2_2 K -0.23672(12) 0.75931(5) 0.32053(4)
K2A K 0.23672(12) 0.25931(5) 0.17947(4)
loop_
_geom_bond_atom_site_label_1
_geom_bond_atom_site_label_2
_geom_bond_site_symmetry_1
_geom_bond_site_symmetry_2
O1 C6 1_555 1_555
O2 K1 1_555 1_555
C1 C6 1_555 1_555
C2 C3 1_555 1_555
C3 C6 1_555 1_555
C4 C5 1_555 1_555
C5 Cl6 1_555 1_555
C7 C8 1_555 1_555
Cl1 C8 1_555 1_555
Cl2 C20 1_555 1_555
O3 C9 1_555 1_555
O4 C19 1_555 1_555
C8 C19 1_555 1_555
C9 C2 1_555 1_555
O5 C10 1_555 1_555
O6 C11 1_555 1_555
C10 C15 1_555 1_555
C11 C14 1_555 1_555
C12 C17 1_555 1_555
C13 C16 1_555 1_555
C14 H1 1_555 1_555
H2 C14 1_555 1_555
H3 C14 1_555 1_555
C15 H4 1_555 1_555
H5 C15 1_555 1_555
H6 C15 1_555 1_555
C16 C11 1_555 1_555
C17 C10 1_555 1_555
H7 C17 1_555 1_555
H8 C17 1_555 1_555
Cl3 C7 1_555 1_555
H9 C16 1_555 1_555
H10 C13 1_555 1_555
H11 C16 1_555 1_555
H12 C13 1_555 1_555
H13 C12 1_555 1_555
H14 C12 1_555 1_555
H15 C13 1_555 1_555
H16 C12 1_555 1_555
Cl4 C3 1_555 1_555
Cl5 C4 1_555 1_555
K1 O1 1_555 1_555
K2 O1 1_555 1_555
Cl7 C1 1_555 1_555
Cl8 C2 1_555 1_555
C18 O2 1_555 1_555
C19 C5 1_555 1_555
C20 C1 1_555 1_555
O2_2 K2 1_555 1_555
O3A K1 1_555 1_555
O4A K1 1_555 1_555
O4A_2 K2 1_555 1_555
K1A O3 1_555 1_555
K1A_2 O4 1_555 1_555
K2_2 O2 1_555 1_555
K2A O3 1_555 1_555
C4 C18 1_555 1_555
C7 C18 1_555 1_555
O4 K2A 1_555 1_555
C9 C20 1_555 1_555
O5 K2 1_555 1_555
O6 K1 1_555 1_555
K2 O3A 1_555 1_555
O4A K2_2 1_555 1_555

#END
