
#######################################################################
#
#                 Cambridge Crystallographic Data Centre
#                                CCDC 
#
#######################################################################
#
# If this CIF has been generated from an entry in the Cambridge 
# Structural Database, then it will include bibliographic, chemical, 
# crystal, experimental, refinement or atomic coordinate data resulting 
# from the CCDC's data processing and validation procedures.
#
#######################################################################

data_SEGKUM
_symmetry_cell_setting           orthorhombic
_symmetry_space_group_name_H-M   'P 21 21 21'
_symmetry_Int_Tables_number      19
_space_group_name_Hall           'P 2ac 2ab'
loop_
_symmetry_equiv_pos_site_id
_symmetry_equiv_pos_as_xyz
1 x,y,z
2 1/2-x,-y,1/2+z
3 -x,1/2+y,1/2-z
4 1/2+x,1/2-y,-z
_cell_length_a                   6.594(2)
_cell_length_b                   12.467(4)
_cell_length_c                   14.022(4)
_cell_angle_alpha                90
_cell_angle_beta                 90
_cell_angle_gamma                90
_cell_volume                     1152.71
loop_
_atom_site_label
_atom_site_type_symbol
_atom_site_fract_x
_atom_site_fract_y
_atom_site_fract_z
Dy1 Dy -0.09946(6) 1.15000(3) 0.27423(3)
K1 K 0.0958(3) 1.36039(15) 0.02952(14)
N1 N -0.1088(12) 1.2882(5) 0.3998(5)
O1 O -0.1367(9) 1.5079(4) 0.2427(4)
O2 O -0.1235(9) 1.3310(4) 0.2168(4)
O3 O 0.0747(10) 1.6256(4) 0.3884(4)
O4 O -0.2303(10) 1.6472(5) 0.4542(5)
O5 O 0.0628(8) 1.3008(5) 0.7111(4)
O6 O -0.2704(8) 1.2812(5) 0.7101(4)
O7 O -0.0862(11) 1.0984(5) 0.5845(4)
O8 O -0.1097(11) 1.0806(4) 0.4269(4)
C1 C -0.1060(15) 1.3924(6) 0.3778(6)
C2 C -0.0984(15) 1.4714(6) 0.4467(6)
C3 C -0.1068(14) 1.4390(6) 0.5419(5)
H1 H -0.1140 1.4914 0.5909
C4 C -0.1046(13) 1.3315(6) 0.5653(5)
C5 C -0.1057(14) 1.2568(6) 0.4916(6)
C6 C -0.1208(12) 1.4129(6) 0.2704(6)
C7 C -0.0885(17) 1.5922(6) 0.4269(6)
C8 C -0.1033(14) 1.3010(6) 0.6697(6)
C9 C -0.1011(14) 1.1360(6) 0.5041(6)
O9 O -0.2921(9) 0.9905(5) 0.2499(4)
H2 H -0.3320 0.9817 0.1928
H3 H -0.3631 0.9534 0.2883
O10 O 0.4571(10) 1.3342(5) 0.1324(5)
H4 H 0.4404 1.2715 0.1547
H5 H 0.5790 1.3438 0.1146
Dy1B Dy 0.09946(6) 1.65000(3) 0.22577(3)
Dy1C Dy 0.40054(6) 1.35000(3) 0.72577(3)
Dy1C_2 Dy -0.59946(6) 1.35000(3) 0.72577(3)
K1A K 0.4042(3) 1.63961(15) 0.52952(14)
K1B K -0.0958(3) 1.86039(15) 0.47048(14)
K1A_2 K -0.5958(3) 1.63961(15) 0.52952(14)
K1B_2 K -0.0958(3) 0.86039(15) 0.47048(14)
O1B O 0.1367(9) 1.0079(4) 0.2573(4)
O3B O -0.0747(10) 1.1256(4) 0.1116(4)
O3A O 0.4253(10) 1.3744(4) -0.1116(4)
O4B O 0.2303(10) 1.1472(5) 0.0458(5)
O4A O -0.2697(10) 1.3528(5) -0.0458(5)
O5C O -0.4372(8) 1.1992(5) 0.2889(4)
O6C O 0.2296(8) 1.2188(5) 0.2899(4)
O8B O 0.1097(11) 1.5806(4) 0.0731(4)
loop_
_geom_bond_atom_site_label_1
_geom_bond_atom_site_label_2
_geom_bond_site_symmetry_1
_geom_bond_site_symmetry_2
Dy1 N1 1_555 1_555
K1 O2 1_555 1_555
N1 C1 1_555 1_555
O1 C6 1_555 1_555
O2 Dy1 1_555 1_555
O3 C7 1_555 1_555
O4 C7 1_555 1_555
O5 C8 1_555 1_555
O6 C8 1_555 1_555
O7 C9 1_555 1_555
O8 Dy1 1_555 1_555
C1 C2 1_555 1_555
C2 C3 1_555 1_555
C3 H1 1_555 1_555
C4 C3 1_555 1_555
C5 N1 1_555 1_555
C6 O2 1_555 1_555
C7 C2 1_555 1_555
C8 C4 1_555 1_555
C9 O8 1_555 1_555
O9 Dy1 1_555 1_555
H2 O9 1_555 1_555
H3 O9 1_555 1_555
O10 K1 1_555 1_555
H4 O10 1_555 1_555
H5 O10 1_555 1_555
Dy1B O1 1_555 1_555
Dy1C O5 1_555 1_555
Dy1C_2 O6 1_555 1_555
K1A O3 1_555 1_555
K1B O4 1_555 1_555
K1A_2 O4 1_555 1_555
K1B_2 O8 1_555 1_555
O1B Dy1 1_555 1_555
O3B Dy1 1_555 1_555
O3A K1 1_555 1_555
O4B K1 1_555 1_555
O4A K1 1_555 1_555
O5C Dy1 1_555 1_555
O6C Dy1 1_555 1_555
O8B K1 1_555 1_555
O3 Dy1B 1_555 1_555
C1 C6 1_555 1_555
C4 C5 1_555 1_555
C5 C9 1_555 1_555
Dy1B O8B 1_555 1_555

#END
