
#######################################################################
#
#                 Cambridge Crystallographic Data Centre
#                                CCDC 
#
#######################################################################
#
# If this CIF has been generated from an entry in the Cambridge 
# Structural Database, then it will include bibliographic, chemical, 
# crystal, experimental, refinement or atomic coordinate data resulting 
# from the CCDC's data processing and validation procedures.
#
#######################################################################

data_SEGPIF
_symmetry_cell_setting           hexagonal
_symmetry_space_group_name_H-M   'P 61'
_symmetry_Int_Tables_number      169
_space_group_name_Hall           'P 61'
loop_
_symmetry_equiv_pos_site_id
_symmetry_equiv_pos_as_xyz
1 x,y,z
2 -x,-y,1/2+z
3 -y,x-y,1/3+z
4 -x+y,-x,2/3+z
5 x-y,x,1/6+z
6 y,-x+y,5/6+z
_cell_length_a                   14.499(4)
_cell_length_b                   14.499(4)
_cell_length_c                   45.818(12)
_cell_angle_alpha                90
_cell_angle_beta                 90
_cell_angle_gamma                120
_cell_volume                     8341.48
loop_
_atom_site_label
_atom_site_type_symbol
_atom_site_fract_x
_atom_site_fract_y
_atom_site_fract_z
Cl2 Cl 0.3833(11) -0.1244(7) 0.7586(2)
Cl3 Cl 0.0165(5) -0.5928(6) 0.6702(2)
Cl4 Cl 0.9487(7) -0.0025(13) 0.6197(2)
Cl5 Cl 0.4867(10) -0.5436(7) 0.5652(2)
Cl6 Cl 0.3045(12) -0.5463(10) 0.5700(6)
C1 C 0.7151(11) -0.2100(10) 0.5333(3)
C2 C 0.6919(12) -0.1647(12) 0.5100(3)
H1 H 0.6262 -0.2056 0.5005
C3 C 0.7591(10) -0.0631(10) 0.4997(3)
H2 H 0.7434 -0.0342 0.4834
C4 C 0.8516(11) -0.0079(11) 0.5157(3)
C5 C 0.8792(12) -0.0449(12) 0.5401(3)
H3 H 0.9433 -0.0026 0.5501
C6 C 0.8073(11) -0.1473(11) 0.5488(3)
H4 H 0.8215 -0.1750 0.5657
O1 O 0.6554(11) -0.3085(8) 0.5452(4)
H5 H 0.6002 -0.3431 0.5355
O2 O 0.9165(11) 0.0957(9) 0.5034(3)
O3 O 0.0278(3) -0.4323(3) 0.53149(11)
O4 O 0.3363(3) -0.1473(3) 0.53096(11)
O5 O 0.1721(4) -0.4951(3) 0.54163(10)
O6 O 0.3701(3) -0.3059(3) 0.51391(10)
Yb1 Yb 0.209960(17) -0.323664(17) 0.530223(19)
C7 C 0.3093(4) -0.3363(4) 0.59675(11)
C8 C 0.3820(5) -0.3622(4) 0.63949(14)
H7 H 0.3942 -0.4231 0.6421
C9 C 0.2659(5) -0.3943(5) 0.64481(13)
H8 H 0.2238 -0.4696 0.6510
C10 C 0.3766(5) -0.2554(4) 0.67653(12)
C11 C 0.1227(4) -0.4017(5) 0.60968(15)
H9 H 0.1079 -0.4270 0.5894
H10 H 0.0713 -0.4593 0.6222
C12 C 0.1839(5) -0.3129(5) 0.67871(14)
H11 H 0.1209 -0.3843 0.6791
H12 H 0.1988 -0.2868 0.6989
C13 C 0.1240(4) -0.2439(5) 0.59064(12)
C14 C 0.0775(4) -0.2827(5) 0.63931(13)
H13 H 0.0076 -0.3400 0.6464
C15 C 0.0736(4) -0.1819(5) 0.63070(12)
H14 H 0.0002 -0.1939 0.6321
C16 C 0.1902(4) -0.1422(5) 0.67021(12)
C17 C 0.1073(5) -0.0850(6) 0.58137(15)
H15 H 0.0967 -0.1116 0.5613
H16 H 0.0460 -0.0772 0.5867
C18 C 0.1676(5) 0.0061(5) 0.65342(14)
H17 H 0.1024 0.0083 0.6493
H18 H 0.1901 0.0326 0.6733
C19 C 0.2818(5) 0.0492(5) 0.56204(13)
C20 C 0.2252(5) 0.0988(5) 0.60436(14)
H19 H 0.1701 0.1200 0.6046
C21 C 0.3361(4) 0.1917(5) 0.59382(12)
H20 H 0.3316 0.2549 0.5878
C22 C 0.3519(5) 0.1481(5) 0.64242(13)
C23 C 0.4541(5) 0.2088(4) 0.55063(12)
H21 H 0.4338 0.1821 0.5307
H22 H 0.4714 0.2834 0.5508
C24 C 0.5122(4) 0.2935(4) 0.62017(12)
H23 H 0.5329 0.3210 0.6401
H24 H 0.5215 0.3525 0.6078
C25 C 0.5692(4) 0.1279(4) 0.54758(12)
C26 C 0.6245(5) 0.2691(4) 0.58102(13)
H25 H 0.6635 0.3450 0.5752
C27 C 0.7003(4) 0.2233(4) 0.58311(12)
H26 H 0.7753 0.2782 0.5794
C28 C 0.6158(4) 0.2047(4) 0.62730(13)
C29 C 0.6946(5) 0.0637(5) 0.55665(13)
H27 H 0.6740 0.0327 0.5371
H28 H 0.7725 0.1020 0.5576
C30 C 0.7509(4) 0.1500(4) 0.62713(13)
H29 H 0.7640 0.1777 0.6471
H30 H 0.8197 0.1828 0.6170
C31 C 0.5755(4) -0.1225(4) 0.56999(12)
C32 C 0.7122(4) -0.0232(4) 0.60328(12)
H31 H 0.7863 -0.0029 0.5982
C33 C 0.6490(4) -0.1389(5) 0.61408(13)
H32 H 0.6951 -0.1707 0.6165
C34 C 0.6463(4) -0.0282(4) 0.65045(13)
C35 C 0.4915(5) -0.3023(4) 0.59185(12)
H33 H 0.5236 -0.3424 0.5998
H34 H 0.4683 -0.3274 0.5719
C36 C 0.5557(5) -0.2176(4) 0.66247(12)
H35 H 0.5842 -0.2654 0.6592
H36 H 0.5759 -0.1886 0.6822
N1 N 0.4000(3) -0.3239(3) 0.60911(10)
N2 N 0.2295(4) -0.3780(4) 0.61738(11)
N3 N 0.4405(4) -0.2791(4) 0.66074(10)
N4 N 0.2725(4) -0.3217(4) 0.66823(11)
N5 N 0.1081(4) -0.3117(4) 0.61261(11)
N6 N 0.1113(4) -0.1628(4) 0.60079(10)
N7 N 0.1592(4) -0.2451(4) 0.66221(11)
N8 N 0.1436(4) -0.1037(4) 0.65204(12)
N9 N 0.2037(4) 0.0187(4) 0.58272(12)
N10 N 0.3643(4) 0.1476(4) 0.56983(11)
N11 N 0.2484(4) 0.0752(4) 0.63362(11)
N12 N 0.4032(4) 0.2137(4) 0.62017(9)
N13 N 0.5477(4) 0.2037(4) 0.55881(14)
N14 N 0.6582(4) 0.1400(3) 0.56053(10)
N15 N 0.5827(4) 0.2566(4) 0.60999(11)
N16 N 0.6843(3) 0.1817(3) 0.61293(10)
N17 N 0.6535(3) -0.0218(3) 0.57777(11)
N18 N 0.5705(4) -0.1913(4) 0.59104(10)
N19 N 0.7085(3) 0.0361(4) 0.62826(10)
N20 N 0.6048(4) -0.1302(4) 0.64166(11)
O7 O 0.3008(3) -0.3140(3) 0.57162(9)
O8 O 0.1461(3) -0.2513(3) 0.56482(9)
O9 O 0.2769(3) -0.0008(3) 0.54021(9)
O10 O 0.5179(3) 0.0645(3) 0.52870(10)
O11 O 0.5210(3) -0.1441(3) 0.54830(9)
O12 O 0.4049(3) -0.1904(3) 0.69672(10)
O13 O 0.2471(3) -0.0963(3) 0.69110(9)
O14 O 0.3860(3) 0.1486(3) 0.66688(9)
O15 O 0.5903(3) 0.1795(3) 0.65352(9)
O16 O 0.6294(3) 0.0002(3) 0.67418(9)
Yb1D Yb 0.533624(24) 0.209960(17) 0.696890(19)
O14E O 0.1486(3) -0.2374(4) 0.50021(9)
O15E O 0.1795(3) -0.4108(4) 0.48685(9)
Cl1 Cl 0.4016(6) -0.4309(5) 0.47784(18)
H6? H 0.9722 0.1286 0.5130
loop_
_geom_bond_atom_site_label_1
_geom_bond_atom_site_label_2
_geom_bond_site_symmetry_1
_geom_bond_site_symmetry_2
C1 C2 1_555 1_555
C2 H1 1_555 1_555
C3 C2 1_555 1_555
H2 C3 1_555 1_555
C4 C3 1_555 1_555
C5 C4 1_555 1_555
H3 C5 1_555 1_555
C6 C1 1_555 1_555
H4 C6 1_555 1_555
O1 C1 1_555 1_555
H5 O1 1_555 1_555
O2 C4 1_555 1_555
O3 Yb1 1_555 1_555
O4 Yb1 1_555 1_555
O5 Yb1 1_555 1_555
O6 Yb1 1_555 1_555
Yb1 O7 1_555 1_555
C7 N1 1_555 1_555
C8 H7 1_555 1_555
C9 C8 1_555 1_555
H8 C9 1_555 1_555
C10 N3 1_555 1_555
C11 H9 1_555 1_555
H10 C11 1_555 1_555
C12 H11 1_555 1_555
H12 C12 1_555 1_555
C13 N5 1_555 1_555
C14 H13 1_555 1_555
C15 C14 1_555 1_555
H14 C15 1_555 1_555
C16 N7 1_555 1_555
C17 H15 1_555 1_555
H16 C17 1_555 1_555
C18 H17 1_555 1_555
H18 C18 1_555 1_555
C19 N9 1_555 1_555
C20 H19 1_555 1_555
C21 C20 1_555 1_555
H20 C21 1_555 1_555
C22 N11 1_555 1_555
C23 H21 1_555 1_555
H22 C23 1_555 1_555
C24 H23 1_555 1_555
H24 C24 1_555 1_555
C25 N13 1_555 1_555
C26 H25 1_555 1_555
C27 C26 1_555 1_555
H26 C27 1_555 1_555
C28 N15 1_555 1_555
C29 H27 1_555 1_555
H28 C29 1_555 1_555
C30 H29 1_555 1_555
H30 C30 1_555 1_555
C31 N17 1_555 1_555
C32 H31 1_555 1_555
C33 C32 1_555 1_555
H32 C33 1_555 1_555
C34 N19 1_555 1_555
C35 H33 1_555 1_555
H34 C35 1_555 1_555
C36 H35 1_555 1_555
H36 C36 1_555 1_555
N1 C8 1_555 1_555
N2 C7 1_555 1_555
N3 C8 1_555 1_555
N4 C9 1_555 1_555
N5 C11 1_555 1_555
N6 C13 1_555 1_555
N7 C12 1_555 1_555
N8 C15 1_555 1_555
N9 C17 1_555 1_555
N10 C19 1_555 1_555
N11 C18 1_555 1_555
N12 C21 1_555 1_555
N13 C23 1_555 1_555
N14 C25 1_555 1_555
N15 C24 1_555 1_555
N16 C27 1_555 1_555
N17 C29 1_555 1_555
N18 C31 1_555 1_555
N19 C30 1_555 1_555
N20 C33 1_555 1_555
O7 C7 1_555 1_555
O8 Yb1 1_555 1_555
O9 C19 1_555 1_555
O10 C25 1_555 1_555
O11 C31 1_555 1_555
O12 C10 1_555 1_555
O13 C16 1_555 1_555
O14 C22 1_555 1_555
O15 C28 1_555 1_555
O16 C34 1_555 1_555
Yb1D O14 1_555 1_555
O14E Yb1 1_555 1_555
O15E Yb1 1_555 1_555
C5 C6 1_555 1_555
C9 N2 1_555 1_555
C10 N4 1_555 1_555
C11 N2 1_555 1_555
C12 N4 1_555 1_555
C13 O8 1_555 1_555
C14 N5 1_555 1_555
C14 N7 1_555 1_555
C15 N6 1_555 1_555
C16 N8 1_555 1_555
C17 N6 1_555 1_555
C18 N8 1_555 1_555
C20 N9 1_555 1_555
C20 N11 1_555 1_555
C21 N10 1_555 1_555
C22 N12 1_555 1_555
C23 N10 1_555 1_555
C24 N12 1_555 1_555
C26 N13 1_555 1_555
C26 N15 1_555 1_555
C27 N14 1_555 1_555
C28 N16 1_555 1_555
C29 N14 1_555 1_555
C30 N16 1_555 1_555
C32 N17 1_555 1_555
C32 N19 1_555 1_555
C33 N18 1_555 1_555
C34 N20 1_555 1_555
C35 N1 1_555 1_555
C35 N18 1_555 1_555
C36 N3 1_555 1_555
C36 N20 1_555 1_555
O15 Yb1D 1_555 1_555

#END
