
#######################################################################
#
#                 Cambridge Crystallographic Data Centre
#                                CCDC 
#
#######################################################################
#
# If this CIF has been generated from an entry in the Cambridge 
# Structural Database, then it will include bibliographic, chemical, 
# crystal, experimental, refinement or atomic coordinate data resulting 
# from the CCDC's data processing and validation procedures.
#
#######################################################################

data_SEGVEH
_symmetry_cell_setting           orthorhombic
_symmetry_space_group_name_H-M   'P 21 21 21'
_symmetry_Int_Tables_number      19
_space_group_name_Hall           'P 2ac 2ab'
loop_
_symmetry_equiv_pos_site_id
_symmetry_equiv_pos_as_xyz
1 x,y,z
2 1/2-x,-y,1/2+z
3 -x,1/2+y,1/2-z
4 1/2+x,1/2-y,-z
_cell_length_a                   7.6961(15)
_cell_length_b                   8.2458(17)
_cell_length_c                   18.737(4)
_cell_angle_alpha                90
_cell_angle_beta                 90
_cell_angle_gamma                90
_cell_volume                     1189.06
loop_
_atom_site_label
_atom_site_type_symbol
_atom_site_fract_x
_atom_site_fract_y
_atom_site_fract_z
C1 C 0.7566(10) 0.0403(9) 0.1388(3)
C2 C 0.6390(10) -0.0549(9) 0.0886(4)
H1 H 0.7099 -0.1135 0.0544
H2 H 0.5730 -0.1336 0.1159
C3 C 0.3681(10) -0.0273(10) 0.0202(4)
H3 H 0.3195 -0.1033 0.0543
H4 H 0.4007 -0.0869 -0.0224
C4 C 0.2340(10) 0.1000(9) 0.0015(3)
C5 C 0.1962(10) 0.5405(8) 0.1519(4)
C6 C 0.1067(9) 0.6882(9) 0.1838(4)
H5 H 0.1912 0.7509 0.2105
H6 H 0.0636 0.7561 0.1453
N1 N 0.5202(7) 0.0508(7) 0.0506(3)
H7 H 0.5815 0.0886 0.0126
N2 N -0.0410(8) 0.6451(6) 0.2319(3)
H8 H -0.0010 0.5809 0.2671
H9 H -0.0819 0.7364 0.2522
O1 O 0.7116(6) 0.1841(6) 0.1531(2)
O2 O 0.8857(7) -0.0295(7) 0.1621(3)
O3 O 0.2405(7) 0.2328(6) 0.0338(3)
O4 O 0.1203(7) 0.0616(6) -0.0436(3)
O5 O 0.3037(8) 0.5673(6) 0.1037(3)
O6 O 0.1676(7) 0.4019(6) 0.1770(3)
Tb1 Tb 0.44109(4) 0.29995(3) 0.122476(15)
C7 C -0.3407(9) 0.5348(8) 0.2431(3)
C8 C -0.1867(10) 0.5610(9) 0.1952(4)
H10 H -0.1463 0.4568 0.1778
H11 H -0.2225 0.6248 0.1543
O7 O -0.3354(7) 0.5943(6) 0.3061(2)
O8 O -0.4619(7) 0.4504(7) 0.2201(3)
O4C O 0.6203(7) 0.4384(6) 0.0436(3)
Tb1_2 Tb -0.55891(4) 0.29995(3) 0.122476(15)
Tb1B Tb -0.44109(4) 0.79995(3) 0.377524(15)
Tb1C Tb -0.05891(4) 0.20005(3) -0.122476(15)
O7B O 0.3354(7) 0.0943(6) 0.1939(2)
O8_2 O 0.5381(7) 0.4504(7) 0.2201(3)
loop_
_geom_bond_atom_site_label_1
_geom_bond_atom_site_label_2
_geom_bond_site_symmetry_1
_geom_bond_site_symmetry_2
C1 C2 1_555 1_555
C2 H1 1_555 1_555
H2 C2 1_555 1_555
C3 H3 1_555 1_555
H4 C3 1_555 1_555
C4 C3 1_555 1_555
C5 C6 1_555 1_555
C6 H5 1_555 1_555
H6 C6 1_555 1_555
N1 C2 1_555 1_555
H7 N1 1_555 1_555
N2 C6 1_555 1_555
H8 N2 1_555 1_555
H9 N2 1_555 1_555
O1 C1 1_555 1_555
O2 C1 1_555 1_555
O3 C4 1_555 1_555
O4 C4 1_555 1_555
O5 C5 1_555 1_555
O6 C5 1_555 1_555
Tb1 N1 1_555 1_555
C7 C8 1_555 1_555
C8 N2 1_555 1_555
H10 C8 1_555 1_555
H11 C8 1_555 1_555
O7 C7 1_555 1_555
O8 C7 1_555 1_555
O4C Tb1 1_555 1_555
Tb1_2 O8 1_555 1_555
Tb1B O7 1_555 1_555
Tb1C O4 1_555 1_555
O7B Tb1 1_555 1_555
O8_2 Tb1 1_555 1_555
C3 N1 1_555 1_555
O1 Tb1 1_555 1_555
O3 Tb1 1_555 1_555
O5 Tb1 1_555 1_555
O6 Tb1 1_555 1_555

#END
