
#######################################################################
#
#                 Cambridge Crystallographic Data Centre
#                                CCDC 
#
#######################################################################
#
# If this CIF has been generated from an entry in the Cambridge 
# Structural Database, then it will include bibliographic, chemical, 
# crystal, experimental, refinement or atomic coordinate data resulting 
# from the CCDC's data processing and validation procedures.
#
#######################################################################

data_SEGVOR
_symmetry_cell_setting           orthorhombic
_symmetry_space_group_name_H-M   'P 21 21 21'
_symmetry_Int_Tables_number      19
_space_group_name_Hall           'P 2ac 2ab'
loop_
_symmetry_equiv_pos_site_id
_symmetry_equiv_pos_as_xyz
1 x,y,z
2 1/2-x,-y,1/2+z
3 -x,1/2+y,1/2-z
4 1/2+x,1/2-y,-z
_cell_length_a                   7.7305(10)
_cell_length_b                   8.2593(11)
_cell_length_c                   18.791(3)
_cell_angle_alpha                90
_cell_angle_beta                 90
_cell_angle_gamma                90
_cell_volume                     1199.78
loop_
_atom_site_label
_atom_site_type_symbol
_atom_site_fract_x
_atom_site_fract_y
_atom_site_fract_z
C1 C -0.2566(6) 0.9592(5) 0.1387(2)
C2 C -0.1393(6) 1.0552(5) 0.0891(3)
H1 H -0.2096 1.1148 0.0553
H2 H -0.0732 1.1329 0.1167
C3 C 0.1302(6) 1.0293(5) 0.0192(2)
H3 H 0.1774 1.1070 0.0527
H4 H 0.0961 1.0870 -0.0235
C4 C 0.2661(6) 0.9032(5) 0.0011(2)
C5 C 0.3053(6) 0.4573(5) 0.1524(2)
C6 C 0.3942(6) 0.3120(5) 0.1848(2)
H5 H 0.3098 0.2499 0.2115
H6 H 0.4372 0.2435 0.1468
C7 C 0.6866(6) 0.4354(5) 0.1957(2)
H7 H 0.6472 0.5385 0.1770
H8 H 0.7232 0.3693 0.1558
C8 C 0.8389(5) 0.4639(5) 0.2441(2)
Gd1 Gd 0.05922(2) 0.69814(2) 0.122072(9)
N1 N -0.0203(4) 0.9485(4) 0.05052(17)
H9 H -0.0823 0.9108 0.0128
N2 N 0.5400(4) 0.3540(4) 0.23255(17)
H10 H 0.5793 0.2628 0.2532
H11 H 0.5007 0.4194 0.2672
O1 O 0.2581(4) 0.7679(3) 0.03208(16)
O2 O 0.3784(4) 0.9426(4) -0.04347(16)
O3 O -0.2117(4) 0.8145(4) 0.15308(15)
O4 O -0.3848(5) 1.0281(4) 0.16257(17)
O5 O 0.1986(5) 0.4296(4) 0.10381(16)
O6 O 0.3336(4) 0.5960(3) 0.17669(15)
O7 O 0.8335(4) 0.4047(3) 0.30598(14)
O8 O 0.9614(4) 0.5455(4) 0.22018(16)
Gd1_2 Gd 1.05922(2) 0.69814(2) 0.122072(9)
Gd1B Gd 0.94078(2) 0.19814(2) 0.377928(9)
Gd1C Gd 0.55922(2) 0.80186(2) -0.122072(9)
O2C O -0.1216(4) 0.5574(4) 0.04347(16)
O7B O 0.1665(4) 0.9047(3) 0.19402(14)
O8_2 O -0.0386(4) 0.5455(4) 0.22018(16)
loop_
_geom_bond_atom_site_label_1
_geom_bond_atom_site_label_2
_geom_bond_site_symmetry_1
_geom_bond_site_symmetry_2
C1 C2 1_555 1_555
C2 H1 1_555 1_555
H2 C2 1_555 1_555
C3 H3 1_555 1_555
H4 C3 1_555 1_555
C4 C3 1_555 1_555
C5 C6 1_555 1_555
C6 H5 1_555 1_555
H6 C6 1_555 1_555
C7 H7 1_555 1_555
H8 C7 1_555 1_555
C8 C7 1_555 1_555
Gd1 N1 1_555 1_555
N1 C2 1_555 1_555
H9 N1 1_555 1_555
N2 C6 1_555 1_555
H10 N2 1_555 1_555
H11 N2 1_555 1_555
O1 C4 1_555 1_555
O2 C4 1_555 1_555
O3 C1 1_555 1_555
O4 C1 1_555 1_555
O5 C5 1_555 1_555
O6 C5 1_555 1_555
O7 C8 1_555 1_555
O8 C8 1_555 1_555
Gd1_2 O8 1_555 1_555
Gd1B O7 1_555 1_555
Gd1C O2 1_555 1_555
O2C Gd1 1_555 1_555
O7B Gd1 1_555 1_555
O8_2 Gd1 1_555 1_555
C3 N1 1_555 1_555
C7 N2 1_555 1_555
Gd1 O1 1_555 1_555
Gd1 O3 1_555 1_555
Gd1 O5 1_555 1_555
Gd1 O6 1_555 1_555

#END
