
#######################################################################
#
#                 Cambridge Crystallographic Data Centre
#                                CCDC 
#
#######################################################################
#
# If this CIF has been generated from an entry in the Cambridge 
# Structural Database, then it will include bibliographic, chemical, 
# crystal, experimental, refinement or atomic coordinate data resulting 
# from the CCDC's data processing and validation procedures.
#
#######################################################################

data_SEHBAK
_symmetry_cell_setting           triclinic
_symmetry_space_group_name_H-M   'P -1'
_symmetry_Int_Tables_number      2
_space_group_name_Hall           '-P 1'
loop_
_symmetry_equiv_pos_site_id
_symmetry_equiv_pos_as_xyz
1 x,y,z
2 -x,-y,-z
_cell_length_a                   8.1294(2)
_cell_length_b                   11.4747(2)
_cell_length_c                   15.7778(3)
_cell_angle_alpha                95.4790(10)
_cell_angle_beta                 102.8020(10)
_cell_angle_gamma                90.9920(10)
_cell_volume                     1427.53
loop_
_atom_site_label
_atom_site_type_symbol
_atom_site_fract_x
_atom_site_fract_y
_atom_site_fract_z
Ag1 Ag 0.85782(2) -0.776740(17) 0.023620(13)
Ag2 Ag 1.50394(2) -0.949670(17) 0.099440(13)
N1 N 0.9570(2) -0.60814(18) 0.09641(13)
N2 N 1.1675(2) -0.69566(18) 0.18961(13)
H1 H 1.1400 -0.7574 0.1533
N3 N 1.6093(2) -0.77051(18) 0.15730(13)
N4 N 1.8242(3) -0.84639(18) 0.25484(13)
H2 H 1.8097 -0.9071 0.2171
N5 N 1.1301(3) -0.92908(18) -0.04276(13)
N6 N 0.5116(3) -0.78062(19) -0.09177(14)
O1 O 1.3332(2) -0.62967(16) 0.32282(11)
O2 O 1.4260(2) -1.26643(16) 0.28936(13)
O3 O 1.5842(2) -1.17917(16) 0.41512(12)
O4 O 1.9787(2) -0.77726(16) 0.38962(12)
O5 O 1.9924(2) -1.41381(16) 0.38324(12)
O6 O 2.2321(2) -1.33548(15) 0.47227(11)
O7 O 0.9799(2) -0.90272(16) -0.07164(11)
O8 O 1.2198(2) -0.86981(16) 0.02193(11)
O9 O 1.1864(2) -1.01684(15) -0.07987(11)
O10 O 0.5997(2) -0.86587(15) -0.05843(11)
O11 O 0.5757(2) -0.68093(16) -0.07300(12)
O12 O 0.3707(2) -0.80367(16) -0.13920(12)
C1 C 0.8778(3) -0.5124(2) 0.06744(17)
H3 H 0.7835 -0.5229 0.0213
C2 C 0.9291(3) -0.4008(2) 0.10258(17)
H4 H 0.8686 -0.3370 0.0825
C3 C 1.0739(3) -0.3851(2) 0.16903(18)
H5 H 1.1144 -0.3098 0.1924
C4 C 1.1573(3) -0.4806(2) 0.20024(17)
H6 H 1.2536 -0.4712 0.2452
C5 C 1.0946(3) -0.5916(2) 0.16306(16)
C6 C 1.2781(3) -0.7101(2) 0.26702(16)
C7 C 1.3292(3) -0.8336(2) 0.27971(16)
C8 C 1.4580(3) -0.8493(2) 0.35196(18)
H7 H 1.5112 -0.7844 0.3881
C9 C 1.5069(4) -0.9602(2) 0.37026(19)
H8 H 1.5913 -0.9694 0.4194
C10 C 1.4318(3) -1.0582(2) 0.31628(17)
C11 C 1.3062(3) -1.0437(2) 0.24340(16)
H9 H 1.2560 -1.1088 0.2066
C12 C 1.2548(3) -0.9326(2) 0.22501(16)
H10 H 1.1701 -0.9238 0.1759
C13 C 1.4781(3) -1.1796(2) 0.33614(17)
C14 C 1.6359(3) -1.2929(2) 0.44023(18)
H11 H 1.7117 -1.2840 0.4967
H12 H 1.6920 -1.3306 0.3982
H13 H 1.5384 -1.3398 0.4425
C15 C 1.5227(3) -0.6795(2) 0.12545(17)
H14 H 1.4352 -0.6945 0.0762
C16 C 1.5566(3) -0.5654(2) 0.16183(17)
H15 H 1.4934 -0.5046 0.1382
C17 C 1.6882(3) -0.5440(2) 0.23486(17)
H16 H 1.7134 -0.4679 0.2613
C18 C 1.7815(3) -0.6344(2) 0.26833(17)
H17 H 1.8708 -0.6206 0.3169
C19 C 1.7387(3) -0.7466(2) 0.22767(16)
C20 C 1.9284(3) -0.8585(2) 0.33470(17)
C21 C 1.9721(3) -0.9827(2) 0.34942(16)
C22 C 2.1030(3) -1.0006(2) 0.41956(18)
H18 H 2.1637 -0.9367 0.4537
C23 C 2.1429(3) -1.1125(2) 0.43859(18)
H19 H 2.2320 -1.1236 0.4851
C24 C 2.0533(3) -1.2082(2) 0.38995(17)
C25 C 1.9228(3) -1.1911(2) 0.31987(17)
H20 H 1.8616 -1.2551 0.2862
C26 C 1.8834(3) -1.0790(2) 0.29995(17)
H21 H 1.7960 -1.0681 0.2526
C27 C 2.0864(3) -1.3305(2) 0.41342(17)
C28 C 2.2663(3) -1.4494(2) 0.50238(18)
H22 H 2.3698 -1.4447 0.5461
H23 H 2.1755 -1.4750 0.5269
H24 H 2.2763 -1.5044 0.4541
Ag2A Ag 0.49606(2) -1.050330(17) -0.099440(13)
O10A O 1.4003(2) -1.13413(15) 0.05843(11)
loop_
_geom_bond_atom_site_label_1
_geom_bond_atom_site_label_2
_geom_bond_site_symmetry_1
_geom_bond_site_symmetry_2
Ag1 N1 1_555 1_555
Ag2 N3 1_555 1_555
N1 C1 1_555 1_555
N2 H1 1_555 1_555
N3 C15 1_555 1_555
N4 H2 1_555 1_555
N5 O7 1_555 1_555
N6 O10 1_555 1_555
O1 C6 1_555 1_555
O2 C13 1_555 1_555
O3 C13 1_555 1_555
O4 C20 1_555 1_555
O5 C27 1_555 1_555
O6 C27 1_555 1_555
O7 Ag1 1_555 1_555
O8 Ag2 1_555 1_555
O9 N5 1_555 1_555
O10 Ag1 1_555 1_555
O11 N6 1_555 1_555
O12 N6 1_555 1_555
C1 H3 1_555 1_555
C2 C1 1_555 1_555
H4 C2 1_555 1_555
C3 C2 1_555 1_555
H5 C3 1_555 1_555
C4 C3 1_555 1_555
H6 C4 1_555 1_555
C5 N1 1_555 1_555
C6 N2 1_555 1_555
C7 C6 1_555 1_555
C8 C7 1_555 1_555
H7 C8 1_555 1_555
C9 C8 1_555 1_555
H8 C9 1_555 1_555
C10 C9 1_555 1_555
C11 C10 1_555 1_555
H9 C11 1_555 1_555
C12 C7 1_555 1_555
H10 C12 1_555 1_555
C13 C10 1_555 1_555
C14 O3 1_555 1_555
H11 C14 1_555 1_555
H12 C14 1_555 1_555
H13 C14 1_555 1_555
C15 H14 1_555 1_555
C16 C15 1_555 1_555
H15 C16 1_555 1_555
C17 C16 1_555 1_555
H16 C17 1_555 1_555
C18 C17 1_555 1_555
H17 C18 1_555 1_555
C19 N3 1_555 1_555
C20 N4 1_555 1_555
C21 C20 1_555 1_555
C22 C21 1_555 1_555
H18 C22 1_555 1_555
C23 C22 1_555 1_555
H19 C23 1_555 1_555
C24 C23 1_555 1_555
C25 C24 1_555 1_555
H20 C25 1_555 1_555
C26 C21 1_555 1_555
H21 C26 1_555 1_555
C27 C24 1_555 1_555
C28 O6 1_555 1_555
H22 C28 1_555 1_555
H23 C28 1_555 1_555
H24 C28 1_555 1_555
Ag2A O10 1_555 1_555
O10A Ag2 1_555 1_555
N2 C5 1_555 1_555
N4 C19 1_555 1_555
N5 O8 1_555 1_555
C4 C5 1_555 1_555
C11 C12 1_555 1_555
C18 C19 1_555 1_555
C25 C26 1_555 1_555

#END
