
#######################################################################
#
#                 Cambridge Crystallographic Data Centre
#                                CCDC 
#
#######################################################################
#
# If this CIF has been generated from an entry in the Cambridge 
# Structural Database, then it will include bibliographic, chemical, 
# crystal, experimental, refinement or atomic coordinate data resulting 
# from the CCDC's data processing and validation procedures.
#
#######################################################################

data_SEHFES
_symmetry_cell_setting           triclinic
_symmetry_space_group_name_H-M   'P -1'
_symmetry_Int_Tables_number      2
_space_group_name_Hall           '-P 1'
loop_
_symmetry_equiv_pos_site_id
_symmetry_equiv_pos_as_xyz
1 x,y,z
2 -x,-y,-z
_cell_length_a                   7.6224(5)
_cell_length_b                   11.3078(6)
_cell_length_c                   13.4989(6)
_cell_angle_alpha                65.261(5)
_cell_angle_beta                 74.349(5)
_cell_angle_gamma                83.501(5)
_cell_volume                     1017.54
loop_
_atom_site_label
_atom_site_type_symbol
_atom_site_fract_x
_atom_site_fract_y
_atom_site_fract_z
Zn1 Zn 0.34116(7) 0.38360(5) 0.77166(4)
C1 C 0.2705(6) 0.5950(4) 0.8491(4)
C2 C 0.2773(5) 0.4958(4) 0.9650(3)
C3 C 0.2186(6) 0.5338(4) 1.0531(4)
H1 H 0.1706 0.6170 1.0394
C4 C 0.2289(7) 0.4512(5) 1.1625(4)
H2 H 0.1883 0.4789 1.2208
C5 C 0.2988(6) 0.3305(5) 1.1824(4)
H3 H 0.3084 0.2751 1.2546
C6 C 0.3480(5) 0.3665(4) 0.9877(3)
C7 C 0.4208(6) 0.1542(4) 1.1227(4)
H4 H 0.4578 0.1205 1.1929
H5 H 0.5267 0.1539 1.0637
C8 C 0.2754(6) 0.0659(4) 1.1322(3)
C9 C 0.3273(6) -0.0560(4) 1.1322(4)
H6 H 0.4501 -0.0783 1.1197
C10 C 0.1983(6) -0.1448(4) 1.1505(4)
H7 H 0.2346 -0.2263 1.1510
C11 C 0.0138(6) -0.1118(4) 1.1683(3)
C12 C -0.0346(6) 0.0115(4) 1.1636(4)
H8 H -0.1565 0.0360 1.1721
C13 C 0.0940(6) 0.0994(4) 1.1464(4)
H9 H 0.0578 0.1815 1.1444
C14 C -0.1291(6) -0.2085(4) 1.1962(4)
C15 C 0.6502(6) 0.5262(4) 0.5665(4)
H10 H 0.6223 0.6083 0.5668
C16 C 0.7857(6) 0.4996(4) 0.4911(4)
H11 H 0.8674 0.5589 0.4307
C17 C 0.6421(6) 0.3201(4) 0.6124(4)
H12 H 0.6087 0.2328 0.6497
C18 C 0.8989(7) 0.2931(5) 0.4615(4)
H13 H 1.0240 0.3203 0.4431
H14 H 0.8663 0.3132 0.3915
C19 C 0.8858(7) 0.1474(5) 0.5301(4)
H15 H 0.7608 0.1198 0.5489
H16 H 0.9195 0.1268 0.5999
C20 C 1.0091(7) 0.0731(5) 0.4669(4)
H17 H 0.9788 0.0966 0.3956
H18 H 1.1346 0.0982 0.4509
N1 N 0.3553(5) 0.2895(3) 1.0972(3)
N2 N 0.5595(5) 0.4130(3) 0.6432(3)
N3 N 0.7799(5) 0.3673(3) 0.5207(3)
O1 O 0.2454(5) 0.7091(3) 0.8366(3)
O2 O 0.2954(5) 0.5598(3) 0.7679(3)
O4 O 0.4059(4) 0.3153(3) 0.9178(2)
O6 O -0.2950(4) -0.1796(3) 1.2208(3)
O7 O -0.0835(4) -0.3203(3) 1.1982(3)
Zn1A Zn 1.65884(7) -0.38360(5) 0.22834(4)
Zn1A_2 Zn -0.34116(7) -0.38360(5) 1.22834(4)
C1A C -0.2705(6) -0.5950(4) 1.1509(4)
C2A C -0.2773(5) -0.4958(4) 1.0350(3)
C3A C -0.2186(6) -0.5338(4) 0.9469(4)
H1A H -0.1706 -0.6170 0.9606
C4A C -0.2289(7) -0.4512(5) 0.8375(4)
H2A H -0.1883 -0.4789 0.7792
C5A C -0.2988(6) -0.3305(5) 0.8176(4)
H3A H -0.3084 -0.2751 0.7454
C6A C -0.3480(5) -0.3665(4) 1.0123(3)
C7A C -0.4208(6) -0.1542(4) 0.8773(4)
H4A H -0.4578 -0.1205 0.8071
H5A H -0.5267 -0.1539 0.9363
C8A C -0.2754(6) -0.0659(4) 0.8678(3)
C9A C -0.3273(6) 0.0560(4) 0.8678(4)
H6A H -0.4501 0.0783 0.8803
C10A C -0.1983(6) 0.1448(4) 0.8495(4)
H7A H -0.2346 0.2263 0.8490
C11A C -0.0138(6) 0.1118(4) 0.8317(3)
C12A C 0.0346(6) -0.0115(4) 0.8364(4)
H8A H 0.1565 -0.0360 0.8279
C13A C -0.0940(6) -0.0994(4) 0.8536(4)
H9A H -0.0578 -0.1815 0.8556
C14A C 0.1291(6) 0.2085(4) 0.8038(4)
C15A C 1.3498(6) -0.5262(4) 0.4335(4)
H10A H 1.3777 -0.6083 0.4332
C16A C 1.2143(6) -0.4996(4) 0.5089(4)
H11A H 1.1326 -0.5589 0.5693
C17A C 1.3579(6) -0.3201(4) 0.3876(4)
H12A H 1.3913 -0.2328 0.3503
C18A C 1.1011(7) -0.2931(5) 0.5385(4)
H13A H 0.9760 -0.3203 0.5569
H14A H 1.1337 -0.3132 0.6085
C19A C 1.1142(7) -0.1474(5) 0.4699(4)
H15A H 1.2392 -0.1198 0.4511
H16A H 1.0805 -0.1268 0.4001
C20A C 0.9909(7) -0.0731(5) 0.5331(4)
H17A H 1.0212 -0.0966 0.6044
H18A H 0.8654 -0.0982 0.5491
N1A N -0.3553(5) -0.2895(3) 0.9028(3)
N2A N 1.4405(5) -0.4130(3) 0.3568(3)
N3A N 1.2201(5) -0.3673(3) 0.4793(3)
O1A O -0.2454(5) -0.7091(3) 1.1634(3)
O2A O -0.2954(5) -0.5598(3) 1.2321(3)
O2A_2 O 1.7046(5) -0.5598(3) 0.2321(3)
O4A O -0.4059(4) -0.3153(3) 1.0822(2)
O4A_2 O 1.5941(4) -0.3153(3) 0.0822(2)
O6A O 0.2950(4) 0.1796(3) 0.7792(3)
O6_2 O 1.7050(4) -0.1796(3) 0.2208(3)
O7A O 0.0835(4) 0.3203(3) 0.8018(3)
O7_2 O 1.9165(4) -0.3203(3) 0.1982(3)
O3 O 0.6282(7) 0.8664(5) 0.4271(4)
H19 H 0.5984 0.9521 0.3916
H20 H 0.6548 0.8418 0.3680
O5 O 0.4419(7) 0.8724(5) 0.6312(4)
H21 H 0.4895 0.8252 0.5897
H22 H 0.3462 0.8260 0.6840
loop_
_geom_bond_atom_site_label_1
_geom_bond_atom_site_label_2
_geom_bond_site_symmetry_1
_geom_bond_site_symmetry_2
Zn1 N2 1_555 1_555
C1 C2 1_555 1_555
C2 C3 1_555 1_555
C3 H1 1_555 1_555
C4 C3 1_555 1_555
H2 C4 1_555 1_555
C5 C4 1_555 1_555
H3 C5 1_555 1_555
C6 C2 1_555 1_555
C7 H4 1_555 1_555
H5 C7 1_555 1_555
C8 C7 1_555 1_555
C9 C8 1_555 1_555
H6 C9 1_555 1_555
C10 C9 1_555 1_555
H7 C10 1_555 1_555
C11 C10 1_555 1_555
C12 C11 1_555 1_555
H8 C12 1_555 1_555
C13 C8 1_555 1_555
H9 C13 1_555 1_555
C14 C11 1_555 1_555
C15 H10 1_555 1_555
C16 C15 1_555 1_555
H11 C16 1_555 1_555
C17 H12 1_555 1_555
C18 H13 1_555 1_555
H14 C18 1_555 1_555
C19 C18 1_555 1_555
H15 C19 1_555 1_555
H16 C19 1_555 1_555
C20 C19 1_555 1_555
H17 C20 1_555 1_555
H18 C20 1_555 1_555
N1 C5 1_555 1_555
N2 C15 1_555 1_555
N3 C16 1_555 1_555
O1 C1 1_555 1_555
O2 Zn1 1_555 1_555
O3 H19 1_555 1_555
H20 O3 1_555 1_555
O4 Zn1 1_555 1_555
O5 H21 1_555 1_555
H22 O5 1_555 1_555
O6 C14 1_555 1_555
O7 C14 1_555 1_555
Zn1A N2A 1_555 1_555
Zn1A_2 O6 1_555 1_555
C1A C2A 1_555 1_555
C2A C3A 1_555 1_555
C3A H1A 1_555 1_555
C4A C3A 1_555 1_555
H2A C4A 1_555 1_555
C5A C4A 1_555 1_555
H3A C5A 1_555 1_555
C6A C2A 1_555 1_555
C7A H4A 1_555 1_555
H5A C7A 1_555 1_555
C8A C7A 1_555 1_555
C9A C8A 1_555 1_555
H6A C9A 1_555 1_555
C10A C9A 1_555 1_555
H7A C10A 1_555 1_555
C11A C10A 1_555 1_555
C12A C11A 1_555 1_555
H8A C12A 1_555 1_555
C13A C8A 1_555 1_555
H9A C13A 1_555 1_555
C14A C11A 1_555 1_555
C15A H10A 1_555 1_555
C16A C15A 1_555 1_555
H11A C16A 1_555 1_555
C17A H12A 1_555 1_555
C18A H13A 1_555 1_555
H14A C18A 1_555 1_555
C19A C18A 1_555 1_555
H15A C19A 1_555 1_555
H16A C19A 1_555 1_555
C20A C20 1_555 1_555
H17A C20A 1_555 1_555
H18A C20A 1_555 1_555
N1A C5A 1_555 1_555
N2A C15A 1_555 1_555
N3A C16A 1_555 1_555
O1A C1A 1_555 1_555
O2A Zn1A_2 1_555 1_555
O2A_2 Zn1A 1_555 1_555
O4A Zn1A_2 1_555 1_555
O4A_2 Zn1A 1_555 1_555
O6A Zn1 1_555 1_555
O6_2 Zn1A 1_555 1_555
O7A Zn1 1_555 1_555
O7_2 Zn1A 1_555 1_555
C1 O2 1_555 1_555
C6 N1 1_555 1_555
C6 O4 1_555 1_555
C7 N1 1_555 1_555
C12 C13 1_555 1_555
C17 N2 1_555 1_555
C17 N3 1_555 1_555
C18 N3 1_555 1_555
O7 Zn1A_2 1_555 1_555
C1A O2A 1_555 1_555
C6A N1A 1_555 1_555
C6A O4A 1_555 1_555
C7A N1A 1_555 1_555
C12A C13A 1_555 1_555
C14A O6A 1_555 1_555
C14A O7A 1_555 1_555
C17A N2A 1_555 1_555
C17A N3A 1_555 1_555
C18A N3A 1_555 1_555
C19A C20A 1_555 1_555

#END
