
#######################################################################
#
#                 Cambridge Crystallographic Data Centre
#                                CCDC 
#
#######################################################################
#
# If this CIF has been generated from an entry in the Cambridge 
# Structural Database, then it will include bibliographic, chemical, 
# crystal, experimental, refinement or atomic coordinate data resulting 
# from the CCDC's data processing and validation procedures.
#
#######################################################################

data_SEHHUK
_symmetry_cell_setting           monoclinic
_symmetry_space_group_name_H-M   'P 21/c'
_symmetry_Int_Tables_number      14
_space_group_name_Hall           '-P 2ybc'
loop_
_symmetry_equiv_pos_site_id
_symmetry_equiv_pos_as_xyz
1 x,y,z
2 -x,1/2+y,1/2-z
3 -x,-y,-z
4 x,1/2-y,1/2+z
_cell_length_a                   8.6360(6)
_cell_length_b                   35.5231(14)
_cell_length_c                   17.7388(12)
_cell_angle_alpha                90
_cell_angle_beta                 92.067(3)
_cell_angle_gamma                90
_cell_volume                     5438.32
loop_
_atom_site_label
_atom_site_type_symbol
_atom_site_fract_x
_atom_site_fract_y
_atom_site_fract_z
C1 C 0.2785(3) 0.75162(7) 0.46773(16)
C2 C 0.2766(3) 0.79375(7) 0.47690(16)
C3 C 0.1495(3) 0.80991(7) 0.51077(16)
H1 H 0.0671 0.7950 0.5252
C4 C 0.1475(3) 0.84857(7) 0.52278(16)
H2 H 0.0632 0.8598 0.5450
C5 C 0.2710(3) 0.87025(7) 0.50154(16)
C6 C 0.3969(3) 0.85417(7) 0.46686(15)
H3 H 0.4785 0.8690 0.4513
C7 C 0.3984(3) 0.81608(7) 0.45607(17)
H4 H 0.4833 0.8050 0.4342
C8 C 0.3808(3) 0.93289(7) 0.49994(15)
H5 H 0.4057 0.9307 0.4472
H6 H 0.4728 0.9272 0.5308
C9 C 0.3236(3) 0.97174(7) 0.51657(14)
C10 C 0.3559(3) 0.98858(7) 0.58614(14)
C11 C 0.2980(3) 1.02479(7) 0.60149(15)
C12 C 0.2158(3) 1.04518(6) 0.54335(14)
C13 C 0.1758(3) 1.02717(7) 0.47530(14)
C14 C 0.2311(3) 0.99030(7) 0.46127(14)
C15 C 0.1881(3) 0.97110(7) 0.38785(14)
H7 H 0.1302 0.9487 0.3976
H8 H 0.2806 0.9646 0.3624
H9 H 0.1261 0.9878 0.3567
C16 C 0.4494(3) 0.96820(8) 0.64701(15)
H10 H 0.4521 0.9418 0.6355
H11 H 0.4024 0.9719 0.6947
H12 H 0.5531 0.9780 0.6495
C17 C 0.1745(3) 1.08622(6) 0.55396(15)
H13 H 0.2161 1.1009 0.5139
H14 H 0.2173 1.0949 0.6015
H15 H 0.0638 1.0889 0.5531
C18 C 0.0667(3) 1.04601(7) 0.42039(15)
H16 H -0.0075 1.0279 0.3997
H17 H 0.0105 1.0658 0.4452
C19 C 0.0732(3) 1.08091(7) 0.30658(14)
C20 C 0.1573(3) 1.09406(7) 0.24659(16)
H18 H 0.2621 1.0883 0.2447
C21 C 0.0885(3) 1.11550(7) 0.18981(15)
H19 H 0.1468 1.1243 0.1504
C22 C -0.0684(3) 1.12390(7) 0.19181(14)
C23 C -0.1525(3) 1.11011(7) 0.25076(14)
H20 H -0.2582 1.1150 0.2518
C24 C -0.0831(3) 1.08942(7) 0.30743(16)
H21 H -0.1415 1.0810 0.3471
C25 C -0.1418(3) 1.14791(7) 0.13049(14)
C26 C 0.3189(3) 1.04151(7) 0.67797(14)
H22 H 0.2283 1.0562 0.6897
H23 H 0.3310 1.0217 0.7153
C27 C 0.4856(3) 1.08499(8) 0.74504(16)
C28 C 0.6179(3) 1.10797(7) 0.74642(15)
H24 H 0.6827 1.1084 0.7057
C29 C 0.6499(3) 1.12986(7) 0.80913(15)
H25 H 0.7361 1.1456 0.8098
C30 C 0.5572(3) 1.12907(7) 0.87130(16)
C31 C 0.4266(3) 1.10607(8) 0.86996(15)
H26 H 0.3634 1.1053 0.9113
C32 C 0.3911(3) 1.08438(7) 0.80716(15)
H27 H 0.3033 1.0692 0.8062
C33 C 0.5881(3) 1.15250(7) 0.93951(16)
C37 C 0.0557(3) 0.73566(7) 0.66131(15)
H35 H -0.0040 0.7495 0.6265
C38 C 0.2065(3) 0.73311(8) 0.78739(16)
H36 H 0.2409 0.7100 0.7654
H37 H 0.1623 0.7279 0.8352
H38 H 0.2930 0.7499 0.7946
C39 C 0.0187(3) 0.78690(8) 0.75950(16)
H39 H -0.0110 0.8013 0.7155
H40 H 0.0931 0.8009 0.7897
H41 H -0.0710 0.7820 0.7883
Cl1 Cl 0.64337(7) 0.690523(18) 0.34582(4)
Co1 Co 0.43147(4) 0.685036(10) 0.42420(2)
Co2 Co 0.07381(4) 0.686225(10) 0.52101(2)
N2 N 0.0881(3) 0.75089(6) 0.73639(13)
O1 O 0.4003(2) 0.73889(5) 0.44111(10)
O2 O 0.1685(2) 0.73269(5) 0.48291(10)
O3 O 0.25720(19) 0.90792(5) 0.51737(10)
O4 O 0.15555(19) 1.06142(5) 0.36178(9)
O5 O -0.0616(2) 1.15836(5) 0.07929(10)
O6 O -0.2827(2) 1.15641(5) 0.13851(10)
O7 O 0.45583(19) 1.06556(5) 0.68044(9)
O8 O 0.7141(2) 1.16747(5) 0.94660(10)
O9 O 0.5006(2) 1.15980(5) 0.98879(11)
O11 O 0.1076(2) 0.70410(5) 0.64316(10)
O13 O 0.0292(2) 0.62850(5) 0.57233(10)
O14 O -0.1382(2) 0.70578(5) 0.49588(11)
Co1A Co -0.43147(4) 1.185036(10) 0.07580(2)
Co1A_2 Co 0.56853(4) 1.185036(10) 1.07580(2)
Co2A Co -0.07381(4) 1.186225(10) -0.02101(2)
Co2A_2 Co 0.92619(4) 1.186225(10) 0.97899(2)
O5A O 0.0616(2) 0.65836(5) 0.42071(10)
O6A O 0.2827(2) 0.65641(5) 0.36149(10)
O8A O 0.2859(2) 0.66747(5) 0.55340(10)
O9A O 0.4994(2) 0.65980(5) 0.51121(11)
C34 C 0.6490(3) 0.77149(8) 0.57512(15)
H28 H 0.5930 0.7493 0.5683
C35 C 0.4532(3) 0.79373(8) 0.66256(16)
H29 H 0.4785 0.7814 0.7096
H30 H 0.3841 0.7781 0.6327
H31 H 0.4040 0.8174 0.6721
C36 C 0.6677(3) 0.83733(7) 0.63497(16)
H32 H 0.7582 0.8344 0.6675
H33 H 0.5963 0.8541 0.6580
H34 H 0.6972 0.8476 0.5875
N1 N 0.5927(2) 0.80011(6) 0.62245(12)
O10 O 0.7688(2) 0.77572(5) 0.54376(10)
C40 C 0.8872(3) 0.65459(7) 0.73854(17)
H42 H 0.8696 0.6548 0.6865
C41 C 0.6873(3) 0.70576(8) 0.74917(17)
H43 H 0.6896 0.7034 0.6953
H44 H 0.7083 0.7314 0.7633
H45 H 0.5868 0.6987 0.7658
C42 C 0.8341(3) 0.68130(8) 0.86815(15)
H46 H 0.8277 0.6561 0.8876
H47 H 0.7567 0.6967 0.8904
H48 H 0.9350 0.6914 0.8802
N3 N 0.8075(3) 0.68062(6) 0.78519(13)
O12 O 0.9800(2) 0.63169(5) 0.76805(11)
O15 O 0.9998(7) 0.49453(16) 0.3130(3)
O16 O 0.4219(7) 0.51688(19) 0.3653(4)
O17 O 0.5006(7) 0.57733(16) 0.4489(3)
O18 O 0.8413(7) 0.43676(16) 0.4348(3)
O19 O 0.2290(7) 0.04381(17) 0.0292(4)
loop_
_geom_bond_atom_site_label_1
_geom_bond_atom_site_label_2
_geom_bond_site_symmetry_1
_geom_bond_site_symmetry_2
C1 C2 1_555 1_555
C2 C3 1_555 1_555
C3 H1 1_555 1_555
C4 C3 1_555 1_555
H2 C4 1_555 1_555
C5 C4 1_555 1_555
C6 C5 1_555 1_555
H3 C6 1_555 1_555
C7 C2 1_555 1_555
H4 C7 1_555 1_555
C8 H5 1_555 1_555
H6 C8 1_555 1_555
C9 C8 1_555 1_555
C10 C9 1_555 1_555
C11 C10 1_555 1_555
C12 C11 1_555 1_555
C13 C12 1_555 1_555
C14 C9 1_555 1_555
C15 C14 1_555 1_555
H7 C15 1_555 1_555
H8 C15 1_555 1_555
H9 C15 1_555 1_555
C16 C10 1_555 1_555
H10 C16 1_555 1_555
H11 C16 1_555 1_555
H12 C16 1_555 1_555
C17 C12 1_555 1_555
H13 C17 1_555 1_555
H14 C17 1_555 1_555
H15 C17 1_555 1_555
C18 C13 1_555 1_555
H16 C18 1_555 1_555
H17 C18 1_555 1_555
C19 C20 1_555 1_555
C20 H18 1_555 1_555
C21 C20 1_555 1_555
H19 C21 1_555 1_555
C22 C21 1_555 1_555
C23 C22 1_555 1_555
H20 C23 1_555 1_555
C24 C19 1_555 1_555
H21 C24 1_555 1_555
C25 C22 1_555 1_555
C26 C11 1_555 1_555
H22 C26 1_555 1_555
H23 C26 1_555 1_555
C27 C28 1_555 1_555
C28 H24 1_555 1_555
C29 C28 1_555 1_555
H25 C29 1_555 1_555
C30 C29 1_555 1_555
C31 C30 1_555 1_555
H26 C31 1_555 1_555
C32 C27 1_555 1_555
H27 C32 1_555 1_555
C33 C30 1_555 1_555
C34 H28 1_555 1_555
C35 H29 1_555 1_555
H30 C35 1_555 1_555
H31 C35 1_555 1_555
C36 H32 1_555 1_555
H33 C36 1_555 1_555
H34 C36 1_555 1_555
C37 H35 1_555 1_555
C38 H36 1_555 1_555
H37 C38 1_555 1_555
H38 C38 1_555 1_555
C39 H39 1_555 1_555
H40 C39 1_555 1_555
H41 C39 1_555 1_555
C40 H42 1_555 1_555
C41 H43 1_555 1_555
H44 C41 1_555 1_555
H45 C41 1_555 1_555
C42 H46 1_555 1_555
H47 C42 1_555 1_555
H48 C42 1_555 1_555
Cl1 Co1 1_555 1_555
Co1 O1 1_555 1_555
Co2 O2 1_555 1_555
N1 C34 1_555 1_555
N2 C37 1_555 1_555
N3 C40 1_555 1_555
O1 C1 1_555 1_555
O2 C1 1_555 1_555
O3 C5 1_555 1_555
O4 C18 1_555 1_555
O5 C25 1_555 1_555
O6 C25 1_555 1_555
O7 C26 1_555 1_555
O8 C33 1_555 1_555
O9 C33 1_555 1_555
O10 C34 1_555 1_555
O11 C37 1_555 1_555
O12 C40 1_555 1_555
O13 Co2 1_555 1_555
O14 Co2 1_555 1_555
Co1A O6 1_555 1_555
Co1A_2 O9 1_555 1_555
Co2A O5 1_555 1_555
Co2A_2 O8 1_555 1_555
O5A Co2 1_555 1_555
O6A Co1 1_555 1_555
O8A Co2 1_555 1_555
O9A Co1 1_555 1_555
C6 C7 1_555 1_555
C8 O3 1_555 1_555
C13 C14 1_555 1_555
C19 O4 1_555 1_555
C23 C24 1_555 1_555
C27 O7 1_555 1_555
C31 C32 1_555 1_555
C35 N1 1_555 1_555
C36 N1 1_555 1_555
C38 N2 1_555 1_555
C39 N2 1_555 1_555
C41 N3 1_555 1_555
C42 N3 1_555 1_555
Co2 O11 1_555 1_555

#END
