
#######################################################################
#
#                 Cambridge Crystallographic Data Centre
#                                CCDC 
#
#######################################################################
#
# If this CIF has been generated from an entry in the Cambridge 
# Structural Database, then it will include bibliographic, chemical, 
# crystal, experimental, refinement or atomic coordinate data resulting 
# from the CCDC's data processing and validation procedures.
#
#######################################################################

data_SEHKOH
_symmetry_cell_setting           monoclinic
_symmetry_space_group_name_H-M   'C 2/c'
_symmetry_Int_Tables_number      15
_space_group_name_Hall           '-C 2yn'
loop_
_symmetry_equiv_pos_site_id
_symmetry_equiv_pos_as_xyz
1 x,y,z
2 -x,y,1/2-z
3 1/2+x,1/2+y,z
4 1/2-x,1/2+y,1/2-z
5 -x,-y,-z
6 x,-y,1/2+z
7 1/2-x,1/2-y,-z
8 1/2+x,1/2-y,1/2+z
_cell_length_a                   27.540(3)
_cell_length_b                   19.1614(17)
_cell_length_c                   16.0561(15)
_cell_angle_alpha                90
_cell_angle_beta                 119.2720(10)
_cell_angle_gamma                90
_cell_volume                     7390.97
loop_
_atom_site_label
_atom_site_type_symbol
_atom_site_fract_x
_atom_site_fract_y
_atom_site_fract_z
Pt1 Pt 0.216360(12) 0.192355(15) 0.89258(2)
Zn1 Zn 0.01741(4) 0.09893(5) 0.36691(7)
S1 S 0.19622(10) 0.25642(12) 0.75948(16)
S2 S 0.12499(9) 0.20452(11) 0.85336(17)
O1 O -0.0487(8) 0.0570(10) 0.3727(13)
O2 O -0.0579(9) 0.1621(13) 0.3742(17)
O3 O -0.1134(7) 0.1081(14) 0.3902(13)
O4 O 0.0000 0.1438(5) 0.2500
N1 N 0.2428(3) 0.1369(3) 1.0167(4)
N2 N 0.3001(3) 0.1812(3) 0.9384(5)
N3 N 0.0750(3) 0.1455(4) 0.4867(5)
N4 N 0.0503(3) -0.0050(4) 0.8656(5)
N5 N -0.0737(4) 0.1006(8) 0.3842(8)
C1 C 0.2124(3) 0.1207(4) 1.0589(6)
H1 H 0.1771 0.1399 1.0345
C2 C 0.2310(4) 0.0780(5) 1.1348(6)
H2 H 0.2083 0.0683 1.1613
C3 C 0.2829(4) 0.0485(5) 1.1736(7)
C4 C 0.3158(3) 0.0673(5) 1.1337(7)
H3 H 0.3518 0.0499 1.1591
C5 C 0.2950(3) 0.1117(4) 1.0566(5)
C6 C 0.3274(3) 0.1384(4) 1.0127(5)
C7 C 0.3836(3) 0.1231(5) 1.0474(6)
H4 H 0.4010 0.0911 1.0969
C8 C 0.4136(4) 0.1538(5) 1.0108(7)
C9 C 0.3848(4) 0.2011(5) 0.9378(7)
H5 H 0.4035 0.2255 0.9119
C10 C 0.3286(4) 0.2123(4) 0.9029(6)
H6 H 0.3101 0.2431 0.8522
C11 C 0.3051(5) 0.0004(8) 1.2638(9)
C12 C 0.2607(11) -0.0316(19) 1.281(2)
H7 H 0.2779 -0.0599 1.3379
H8 H 0.2365 -0.0601 1.2278
H9 H 0.2395 0.0048 1.2896
C13 C 0.3566(12) -0.0446(17) 1.284(3)
H10 H 0.3675 -0.0722 1.3401
H11 H 0.3868 -0.0145 1.2933
H12 H 0.3474 -0.0747 1.2304
C14 C 0.3435(12) 0.0423(15) 1.3540(17)
H13 H 0.3572 0.0125 1.4089
H14 H 0.3230 0.0803 1.3610
H15 H 0.3743 0.0605 1.3484
C15 C 0.4756(4) 0.1398(5) 1.0493(7)
C16 C 0.4883(11) 0.0649(10) 1.084(2)
H16 H 0.4788 0.0346 1.0303
H17 H 0.4668 0.0523 1.1139
H18 H 0.5272 0.0604 1.1287
C17 C 0.4887(13) 0.1493(15) 0.9681(17)
H19 H 0.4700 0.1901 0.9318
H20 H 0.4764 0.1091 0.9273
H21 H 0.5282 0.1549 0.9941
C18 C 0.5084(12) 0.1865(13) 1.1327(17)
H22 H 0.5057 0.2338 1.1110
H23 H 0.5467 0.1723 1.1646
H24 H 0.4940 0.1836 1.1763
C19 C 0.0975(4) 0.1116(4) 0.5704(6)
H25 H 0.0885 0.0649 0.5711
C20 C 0.1327(4) 0.1430(4) 0.6539(6)
H26 H 0.1450 0.1180 0.7103
C21 C 0.1513(3) 0.2111(4) 0.6585(6)
C22 C 0.1290(4) 0.2448(5) 0.5694(6)
H27 H 0.1403 0.2900 0.5659
C23 C 0.0913(4) 0.2120(6) 0.4891(7)
H28 H 0.0758 0.2368 0.4321
C24 C 0.0970(4) -0.0019(5) 0.8572(6)
H29 H 0.1133 -0.0437 0.8546
C25 C 0.1215(3) 0.0594(4) 0.8524(6)
H30 H 0.1534 0.0582 0.8462
C26 C 0.0989(3) 0.1222(4) 0.8566(5)
C27 C 0.0504(4) 0.1205(5) 0.8648(7)
H31 H 0.0335 0.1618 0.8675
C28 C 0.0280(4) 0.0567(5) 0.8687(7)
H32 H -0.0042 0.0565 0.8738
Pt1E Pt 0.216360(12) -0.192355(15) 1.39258(2)
Pt1E_2 Pt 0.216360(12) -0.192355(15) 0.39258(2)
Zn1E Zn 0.01741(4) -0.09893(5) 0.86691(7)
Zn1A Zn -0.01741(4) 0.09893(5) 0.13309(7)
S1E S 0.19622(10) -0.25642(12) 1.25948(16)
S2E S 0.12499(9) -0.20452(11) 0.35336(17)
S2E_2 S 0.12499(9) -0.20452(11) 1.35336(17)
O1E O -0.0487(8) -0.0570(10) 0.8727(13)
O2E O -0.0579(9) -0.1621(13) 0.8742(17)
O3E O -0.1134(7) -0.1081(14) 0.8902(13)
O4D O 0.0000 -0.1438(5) 0.7500
N1E N 0.2428(3) -0.1369(3) 1.5167(4)
N2E N 0.3001(3) -0.1812(3) 1.4384(5)
N3E N 0.0750(3) -0.1455(4) 0.9867(5)
N4E N 0.0503(3) 0.0050(4) 0.3656(5)
N5E N -0.0737(4) -0.1006(8) 0.8842(8)
C1E C 0.2124(3) -0.1207(4) 1.5589(6)
H1E H 0.1771 -0.1399 1.5345
C2E C 0.2310(4) -0.0780(5) 1.6348(6)
H2E H 0.2083 -0.0683 1.6613
C3E C 0.2829(4) -0.0485(5) 1.6736(7)
C4E C 0.3158(3) -0.0673(5) 1.6337(7)
H3E H 0.3518 -0.0499 1.6591
C5E C 0.2950(3) -0.1117(4) 1.5566(5)
C6E C 0.3274(3) -0.1384(4) 1.5127(5)
C7E C 0.3836(3) -0.1231(5) 1.5474(6)
H4E H 0.4010 -0.0911 1.5969
C8E C 0.4136(4) -0.1538(5) 1.5108(7)
C9E C 0.3848(4) -0.2011(5) 1.4378(7)
H5E H 0.4035 -0.2255 1.4119
C10E C 0.3286(4) -0.2123(4) 1.4029(6)
H6E H 0.3101 -0.2431 1.3522
C11E C 0.3051(5) -0.0004(8) 1.7638(9)
C12E C 0.2607(11) 0.0316(19) 1.781(2)
H7E H 0.2779 0.0599 1.8379
H8E H 0.2365 0.0601 1.7278
H9E H 0.2395 -0.0048 1.7896
C13E C 0.3566(12) 0.0446(17) 1.784(3)
H10E H 0.3675 0.0722 1.8401
H11E H 0.3868 0.0145 1.7933
H12E H 0.3474 0.0747 1.7304
C14E C 0.3435(12) -0.0423(15) 1.8540(17)
H13E H 0.3572 -0.0125 1.9089
H14E H 0.3230 -0.0803 1.8610
H15E H 0.3743 -0.0605 1.8484
C15E C 0.4756(4) -0.1398(5) 1.5493(7)
C16E C 0.4883(11) -0.0649(10) 1.584(2)
H16E H 0.4788 -0.0346 1.5303
H17E H 0.4668 -0.0523 1.6139
H18E H 0.5272 -0.0604 1.6287
C17E C 0.4887(13) -0.1493(15) 1.4681(17)
H19E H 0.4700 -0.1901 1.4318
H20E H 0.4764 -0.1091 1.4273
H21E H 0.5282 -0.1549 1.4941
C18E C 0.5084(12) -0.1865(13) 1.6327(17)
H22E H 0.5057 -0.2338 1.6110
H23E H 0.5467 -0.1723 1.6646
H24E H 0.4940 -0.1836 1.6763
C19E C 0.0975(4) -0.1116(4) 1.0704(6)
H25E H 0.0885 -0.0649 1.0711
C20E C 0.1327(4) -0.1430(4) 1.1539(6)
H26E H 0.1450 -0.1180 1.2103
C21E C 0.1513(3) -0.2111(4) 1.1585(6)
C22E C 0.1290(4) -0.2448(5) 1.0694(6)
H27E H 0.1403 -0.2900 1.0659
C23E C 0.0913(4) -0.2120(6) 0.9891(7)
H28E H 0.0758 -0.2368 0.9321
C24E C 0.0970(4) 0.0019(5) 0.3572(6)
H29E H 0.1133 0.0437 0.3546
C25E C 0.1215(3) -0.0594(4) 0.3524(6)
H30E H 0.1534 -0.0582 0.3462
C26E C 0.0989(3) -0.1222(4) 0.3566(5)
C27E C 0.0504(4) -0.1205(5) 0.3648(7)
H31E H 0.0335 -0.1618 0.3675
C28E C 0.0280(4) -0.0567(5) 0.3687(7)
H32E H -0.0042 -0.0565 0.3738
O5 O 0.5702(12) 0.0422(16) 0.824(2)
C29 C 0.6128(15) 0.068(2) 0.913(2)
O6 O 0.2802(17) 0.367(2) 0.555(3)
C30 C 0.302(2) 0.316(3) 0.634(4)
C31? C 0.2753(13) 0.014(2) 1.324(2)
H33? H 0.2905 -0.0160 1.3788
H34? H 0.2361 0.0055 1.2857
H35? H 0.2810 0.0620 1.3452
C32? C 0.2851(16) -0.0736(13) 1.229(3)
H36? H 0.2984 -0.1047 1.2823
H37? H 0.2992 -0.0883 1.1873
H38? H 0.2452 -0.0745 1.1942
C33? C 0.3646(9) 0.0137(19) 1.335(2)
H39? H 0.3759 -0.0173 1.3883
H40? H 0.3689 0.0611 1.3565
H41? H 0.3873 0.0056 1.3058
C34? C 0.4979(12) 0.0835(13) 1.1316(18)
H42? H 0.4810 0.0392 1.1056
H43? H 0.4886 0.0975 1.1795
H44? H 0.5376 0.0797 1.1597
C35? C 0.4863(13) 0.1122(16) 0.9731(18)
H45? H 0.4741 0.1457 0.9223
H46? H 0.4662 0.0693 0.9487
H47? H 0.5254 0.1038 0.9991
C36? C 0.5037(13) 0.2093(12) 1.094(2)
H48? H 0.4905 0.2447 1.0451
H49? H 0.5433 0.2045 1.1210
H50? H 0.4949 0.2223 1.1425
O7? O 0.5315(15) 0.2042(18) 0.769(3)
C37? C 0.571(2) 0.154(3) 0.831(4)
O8? O 0.4138(15) 0.101(2) 0.628(3)
C38? C 0.4692(16) 0.099(3) 0.704(3)
O9? O -0.0381(18) 0.055(2) 0.410(3)
O10? O -0.044(2) 0.159(3) 0.423(4)
O11? O -0.1125(15) 0.064(3) 0.394(3)
loop_
_geom_bond_atom_site_label_1
_geom_bond_atom_site_label_2
_geom_bond_site_symmetry_1
_geom_bond_site_symmetry_2
Pt1 S1 1_555 1_555
Zn1 O1 1_555 1_555
S1 C21 1_555 1_555
S2 Pt1 1_555 1_555
O1 N5 1_555 1_555
O2 Zn1 1_555 1_555
O3 N5 1_555 1_555
O4 Zn1 1_555 1_555
N1 Pt1 1_555 1_555
N2 Pt1 1_555 1_555
N3 Zn1 1_555 1_555
N4 C24 1_555 1_555
N5 O2 1_555 1_555
C1 N1 1_555 1_555
H1 C1 1_555 1_555
C2 C1 1_555 1_555
H2 C2 1_555 1_555
C3 C2 1_555 1_555
C4 C3 1_555 1_555
H3 C4 1_555 1_555
C5 N1 1_555 1_555
C6 N2 1_555 1_555
C7 C6 1_555 1_555
H4 C7 1_555 1_555
C8 C7 1_555 1_555
C9 C8 1_555 1_555
H5 C9 1_555 1_555
C10 N2 1_555 1_555
H6 C10 1_555 1_555
C11 C3 1_555 1_555
C12 C11 1_555 1_555
H7 C12 1_555 1_555
H8 C12 1_555 1_555
H9 C12 1_555 1_555
C13 C11 1_555 1_555
H10 C13 1_555 1_555
H11 C13 1_555 1_555
H12 C13 1_555 1_555
C14 C11 1_555 1_555
H13 C14 1_555 1_555
H14 C14 1_555 1_555
H15 C14 1_555 1_555
C15 C8 1_555 1_555
C16 C15 1_555 1_555
H16 C16 1_555 1_555
H17 C16 1_555 1_555
H18 C16 1_555 1_555
C17 C15 1_555 1_555
H19 C17 1_555 1_555
H20 C17 1_555 1_555
H21 C17 1_555 1_555
C18 C15 1_555 1_555
H22 C18 1_555 1_555
H23 C18 1_555 1_555
H24 C18 1_555 1_555
C19 N3 1_555 1_555
H25 C19 1_555 1_555
C20 C19 1_555 1_555
H26 C20 1_555 1_555
C21 C20 1_555 1_555
C22 C21 1_555 1_555
H27 C22 1_555 1_555
C23 N3 1_555 1_555
H28 C23 1_555 1_555
C24 H29 1_555 1_555
C25 C24 1_555 1_555
H30 C25 1_555 1_555
C26 S2 1_555 1_555
C27 C26 1_555 1_555
H31 C27 1_555 1_555
C28 N4 1_555 1_555
H32 C28 1_555 1_555
O5 C29 1_555 1_555
O6 C30 1_555 1_555
Pt1E S1E 1_555 1_555
Pt1E_2 S2E 1_555 1_555
Zn1E N4 1_555 1_555
Zn1A O4 1_555 1_555
S1E C21E 1_555 1_555
S2E C26E 1_555 1_555
S2E_2 Pt1E 1_555 1_555
O1E Zn1E 1_555 1_555
O2E Zn1E 1_555 1_555
O3E N5E 1_555 1_555
O4D Zn1E 1_555 1_555
N1E Pt1E 1_555 1_555
N2E Pt1E 1_555 1_555
N3E Zn1E 1_555 1_555
N4E Zn1 1_555 1_555
N5E O1E 1_555 1_555
C1E N1E 1_555 1_555
H1E C1E 1_555 1_555
C2E C1E 1_555 1_555
H2E C2E 1_555 1_555
C3E C2E 1_555 1_555
C4E C3E 1_555 1_555
H3E C4E 1_555 1_555
C5E N1E 1_555 1_555
C6E N2E 1_555 1_555
C7E C6E 1_555 1_555
H4E C7E 1_555 1_555
C8E C7E 1_555 1_555
C9E C8E 1_555 1_555
H5E C9E 1_555 1_555
C10E N2E 1_555 1_555
H6E C10E 1_555 1_555
C11E C3E 1_555 1_555
C12E C11E 1_555 1_555
H7E C12E 1_555 1_555
H8E C12E 1_555 1_555
H9E C12E 1_555 1_555
C13E C11E 1_555 1_555
H10E C13E 1_555 1_555
H11E C13E 1_555 1_555
H12E C13E 1_555 1_555
C14E C11E 1_555 1_555
H13E C14E 1_555 1_555
H14E C14E 1_555 1_555
H15E C14E 1_555 1_555
C15E C8E 1_555 1_555
C16E C15E 1_555 1_555
H16E C16E 1_555 1_555
H17E C16E 1_555 1_555
H18E C16E 1_555 1_555
C17E C15E 1_555 1_555
H19E C17E 1_555 1_555
H20E C17E 1_555 1_555
H21E C17E 1_555 1_555
C18E C15E 1_555 1_555
H22E C18E 1_555 1_555
H23E C18E 1_555 1_555
H24E C18E 1_555 1_555
C19E N3E 1_555 1_555
H25E C19E 1_555 1_555
C20E C19E 1_555 1_555
H26E C20E 1_555 1_555
C21E C20E 1_555 1_555
C22E C21E 1_555 1_555
H27E C22E 1_555 1_555
C23E N3E 1_555 1_555
H28E C23E 1_555 1_555
C24E N4E 1_555 1_555
H29E C24E 1_555 1_555
C25E C24E 1_555 1_555
H30E C25E 1_555 1_555
C26E C25E 1_555 1_555
C27E C26E 1_555 1_555
H31E C27E 1_555 1_555
C28E N4E 1_555 1_555
H32E C28E 1_555 1_555
C4 C5 1_555 1_555
C5 C6 1_555 1_555
C9 C10 1_555 1_555
C22 C23 1_555 1_555
C25 C26 1_555 1_555
C27 C28 1_555 1_555
O2E N5E 1_555 1_555
C4E C5E 1_555 1_555
C5E C6E 1_555 1_555
C9E C10E 1_555 1_555
C22E C23E 1_555 1_555
C27E C28E 1_555 1_555

#END
