
#######################################################################
#
#                 Cambridge Crystallographic Data Centre
#                                CCDC 
#
#######################################################################
#
# If this CIF has been generated from an entry in the Cambridge 
# Structural Database, then it will include bibliographic, chemical, 
# crystal, experimental, refinement or atomic coordinate data resulting 
# from the CCDC's data processing and validation procedures.
#
#######################################################################

data_SEHLOI
_symmetry_cell_setting           monoclinic
_symmetry_space_group_name_H-M   'P 21/c'
_symmetry_Int_Tables_number      14
_space_group_name_Hall           '-P 2ybc'
loop_
_symmetry_equiv_pos_site_id
_symmetry_equiv_pos_as_xyz
1 x,y,z
2 -x,1/2+y,1/2-z
3 -x,-y,-z
4 x,1/2-y,1/2+z
_cell_length_a                   13.5730(18)
_cell_length_b                   11.7732(16)
_cell_length_c                   12.9248(17)
_cell_angle_alpha                90
_cell_angle_beta                 117.6530(10)
_cell_angle_gamma                90
_cell_volume                     1829.44
loop_
_atom_site_label
_atom_site_type_symbol
_atom_site_fract_x
_atom_site_fract_y
_atom_site_fract_z
Tb1 Tb 0.488125(16) 0.446665(16) 1.149839(16)
Zn1 Zn 0.15825(4) 0.25695(4) 0.95413(4)
O1 O 0.3137(2) 0.3639(2) 1.0012(2)
N1 N 0.1831(3) 0.2512(3) 0.8040(3)
C1 C 0.1357(3) 0.2073(3) 0.6963(3)
C2 C 0.2553(3) 0.3328(3) 0.8023(3)
C3 C 0.3246(3) 0.3915(3) 0.9118(3)
C4 C 0.0583(4) 0.1095(3) 0.6630(4)
O2 O 0.2676(3) 0.3823(3) 0.5267(3)
N2 N 0.1707(3) 0.2546(3) 0.6241(3)
C5 C 0.3019(3) 0.4004(3) 0.6346(3)
C6 C 0.2470(3) 0.3342(3) 0.6910(4)
N3 N -0.0738(3) -0.0852(3) 0.6001(3)
O3 O 0.0157(3) 0.1504(3) 0.8917(3)
H1 H -0.0116 0.1402 0.9383
H2 H -0.0412 0.1687 0.8290
O4 O 0.3719(3) 0.4575(3) 1.2404(3)
H3 H 0.3346 0.5182 1.2295
H4 H 0.3592 0.4156 1.2864
O5 O 0.3980(2) 0.4643(2) 0.9230(2)
O6 O 0.5518(3) 0.2979(3) 1.0715(3)
H5 H 0.5676 0.3144 1.0194
H6 H 0.6035 0.2603 1.1198
O7 O 0.4577(3) 0.7955(3) 1.2188(3)
O8 O 0.4059(3) 0.6259(3) 1.1036(3)
O9 O 0.3059(3) 0.6813(3) 1.2081(4)
O10 O 0.2865(3) 0.7866(3) 1.0400(3)
S1 S 0.36205(10) 0.72467(9) 1.14292(10)
C7 C -0.1064(4) 0.0101(4) 0.5351(4)
H7 H -0.1749 0.0098 0.4682
C8 C 0.0223(4) -0.0819(4) 0.6979(4)
H8 H 0.0444 -0.1462 0.7451
C9 C -0.0437(4) 0.1080(4) 0.5625(4)
H9 H -0.0690 0.1717 0.5148
C10 C 0.0915(4) 0.0126(4) 0.7330(4)
H10 H 0.1584 0.0113 0.8017
O11 O 0.3783(3) 0.4696(3) 0.6923(3)
Tb1B Tb 0.511875(16) 0.553335(16) 0.850161(16)
Tb1A Tb 0.511875(16) 0.946665(16) 1.350161(16)
Tb1C Tb 0.488125(16) 0.053335(16) 0.649839(16)
Zn1B Zn 0.84175(4) 0.74305(4) 1.04587(4)
Zn1A Zn -0.15825(4) -0.24305(4) 0.54587(4)
Zn1A_2 Zn 0.84175(4) 0.75695(4) 1.54587(4)
Zn1C Zn 0.15825(4) 0.24305(4) 0.45413(4)
Zn1C_2 Zn 1.15825(4) 1.24305(4) 1.45413(4)
O1B O 0.6863(2) 0.6361(2) 0.9988(2)
N1B N 0.8169(3) 0.7488(3) 1.1960(3)
C1B C 0.8643(3) 0.7927(3) 1.3037(3)
C2B C 0.7447(3) 0.6672(3) 1.1977(3)
C3B C 0.6754(3) 0.6085(3) 1.0882(3)
C4B C 0.9417(4) 0.8905(3) 1.3370(4)
O2B O 0.7324(3) 0.6177(3) 1.4733(3)
O2A O 0.7324(3) 0.8823(3) 0.9733(3)
O2C O 0.2676(3) 0.1177(3) 1.0267(3)
N2B N 0.8293(3) 0.7454(3) 1.3759(3)
N2A N 0.8293(3) 0.7546(3) 0.8759(3)
N2C N 0.1707(3) 0.2454(3) 1.1241(3)
C5B C 0.6981(3) 0.5996(3) 1.3654(3)
C6B C 0.7530(3) 0.6658(3) 1.3090(4)
N3B N 1.0738(3) 1.0852(3) 1.3999(3)
N3A N 0.0738(3) 0.4148(3) 0.8999(3)
N3C N 0.9262(3) 0.5852(3) 1.1001(3)
O3B O 0.9843(3) 0.8496(3) 1.1083(3)
H1B H 1.0116 0.8598 1.0617
H2B H 1.0412 0.8313 1.1710
O4B O 0.6281(3) 0.5425(3) 0.7596(3)
H3B H 0.6654 0.4818 0.7705
H4B H 0.6408 0.5844 0.7136
O5B O 0.6020(2) 0.5357(2) 1.0770(2)
O6B O 0.4482(3) 0.7021(3) 0.9285(3)
H5B H 0.4324 0.6856 0.9806
H6B H 0.3965 0.7397 0.8802
O7B O 0.5423(3) 0.2045(3) 0.7812(3)
O7A O 0.5423(3) 0.2955(3) 1.2812(3)
O7C O 0.4577(3) 0.7045(3) 0.7188(3)
O8B O 0.5941(3) 0.3741(3) 0.8964(3)
O9B O 0.6941(3) 0.3187(3) 0.7919(4)
O10B O 0.7135(3) 0.2134(3) 0.9600(3)
S1B S 0.63795(10) 0.27533(9) 0.85708(10)
C7B C 1.1064(4) 0.9899(4) 1.4649(4)
H7B H 1.1749 0.9902 1.5318
C8B C 0.9777(4) 1.0819(4) 1.3021(4)
H8B H 0.9556 1.1462 1.2549
C9B C 1.0437(4) 0.8920(4) 1.4375(4)
H9B H 1.0690 0.8283 1.4852
C10B C 0.9085(4) 0.9874(4) 1.2670(4)
H10B H 0.8416 0.9887 1.1983
O11B O 0.6217(3) 0.5304(3) 1.3077(3)
O12 O 0.4342(3) 0.4027(3) 0.4652(3)
H11 H 0.3974 0.4072 0.5033
H12 H 0.4964 0.3719 0.5094
O13 O 0.0898(3) 0.9041(3) 0.9806(4)
H13 H 0.1580 0.8856 1.0139
H14 H 0.0926 0.9735 0.9640
O14 O 0.8162(3) 0.1853(4) 0.6988(4)
H15 H 0.7867 0.2032 0.6297
H16 H 0.7790 0.2130 0.7275
loop_
_geom_bond_atom_site_label_1
_geom_bond_atom_site_label_2
_geom_bond_site_symmetry_1
_geom_bond_site_symmetry_2
Tb1 O1 1_555 1_555
Zn1 O1 1_555 1_555
O1 C3 1_555 1_555
N1 Zn1 1_555 1_555
C1 N1 1_555 1_555
C2 N1 1_555 1_555
C3 C2 1_555 1_555
C4 C1 1_555 1_555
O2 C5 1_555 1_555
N2 C1 1_555 1_555
C5 C6 1_555 1_555
C6 C2 1_555 1_555
N3 C7 1_555 1_555
O3 Zn1 1_555 1_555
H1 O3 1_555 1_555
H2 O3 1_555 1_555
O4 Tb1 1_555 1_555
H3 O4 1_555 1_555
H4 O4 1_555 1_555
O5 Tb1 1_555 1_555
O6 Tb1 1_555 1_555
H5 O6 1_555 1_555
H6 O6 1_555 1_555
O7 S1 1_555 1_555
O8 Tb1 1_555 1_555
O9 S1 1_555 1_555
O10 S1 1_555 1_555
S1 O8 1_555 1_555
C7 H7 1_555 1_555
C8 N3 1_555 1_555
H8 C8 1_555 1_555
C9 C4 1_555 1_555
H9 C9 1_555 1_555
C10 C4 1_555 1_555
H10 C10 1_555 1_555
O11 C5 1_555 1_555
O12 H11 1_555 1_555
H12 O12 1_555 1_555
O13 H13 1_555 1_555
H14 O13 1_555 1_555
O14 H15 1_555 1_555
H16 O14 1_555 1_555
Tb1B O5 1_555 1_555
Tb1A O7 1_555 1_555
Tb1C O7B 1_555 1_555
Zn1B O1B 1_555 1_555
Zn1A N3 1_555 1_555
Zn1A_2 O2B 1_555 1_555
Zn1C O2 1_555 1_555
Zn1C_2 N3B 1_555 1_555
O1B Tb1B 1_555 1_555
N1B Zn1B 1_555 1_555
C1B N1B 1_555 1_555
C2B N1B 1_555 1_555
C3B O1B 1_555 1_555
C4B C1B 1_555 1_555
O2B C5B 1_555 1_555
O2A Zn1B 1_555 1_555
O2C Zn1 1_555 1_555
N2B Zn1A_2 1_555 1_555
N2A Zn1B 1_555 1_555
N2C Zn1 1_555 1_555
C5B C6B 1_555 1_555
C6B C2B 1_555 1_555
N3B C7B 1_555 1_555
N3A Zn1 1_555 1_555
N3C Zn1B 1_555 1_555
O3B Zn1B 1_555 1_555
H1B O3B 1_555 1_555
H2B O3B 1_555 1_555
O4B Tb1B 1_555 1_555
H3B O4B 1_555 1_555
H4B O4B 1_555 1_555
O5B Tb1 1_555 1_555
O6B Tb1B 1_555 1_555
H5B O6B 1_555 1_555
H6B O6B 1_555 1_555
O7B S1B 1_555 1_555
O7A Tb1 1_555 1_555
O7C Tb1B 1_555 1_555
O8B Tb1B 1_555 1_555
O9B S1B 1_555 1_555
O10B S1B 1_555 1_555
S1B O8B 1_555 1_555
C7B H7B 1_555 1_555
C8B N3B 1_555 1_555
H8B C8B 1_555 1_555
C9B C4B 1_555 1_555
H9B C9B 1_555 1_555
C10B C4B 1_555 1_555
H10B C10B 1_555 1_555
O11B Tb1 1_555 1_555
C3 O5 1_555 1_555
N2 C6 1_555 1_555
N2 Zn1C 1_555 1_555
C7 C9 1_555 1_555
C8 C10 1_555 1_555
O11 Tb1B 1_555 1_555
Tb1B O5B 1_555 1_555
C1B N2B 1_555 1_555
C2B C3B 1_555 1_555
C3B O5B 1_555 1_555
N2B C6B 1_555 1_555
C5B O11B 1_555 1_555
C7B C9B 1_555 1_555
C8B C10B 1_555 1_555

#END
