
#######################################################################
#
#                 Cambridge Crystallographic Data Centre
#                                CCDC 
#
#######################################################################
#
# If this CIF has been generated from an entry in the Cambridge 
# Structural Database, then it will include bibliographic, chemical, 
# crystal, experimental, refinement or atomic coordinate data resulting 
# from the CCDC's data processing and validation procedures.
#
#######################################################################

data_SEHLEY
_symmetry_cell_setting           orthorhombic
_symmetry_space_group_name_H-M   'F d d d'
_symmetry_Int_Tables_number      70
_space_group_name_Hall           '-F 2uv 2vw'
loop_
_symmetry_equiv_pos_site_id
_symmetry_equiv_pos_as_xyz
1 x,y,z
2 3/4-x,3/4-y,z
3 3/4-x,y,3/4-z
4 x,3/4-y,3/4-z
5 x,1/2+y,1/2+z
6 3/4-x,1/4-y,1/2+z
7 3/4-x,1/2+y,1/4-z
8 x,1/4-y,1/4-z
9 1/2+x,y,1/2+z
10 1/4-x,3/4-y,1/2+z
11 1/4-x,y,1/4-z
12 1/2+x,3/4-y,1/4-z
13 1/2+x,1/2+y,z
14 1/4-x,1/4-y,z
15 1/4-x,1/2+y,3/4-z
16 1/2+x,1/4-y,3/4-z
17 -x,-y,-z
18 1/4+x,1/4+y,-z
19 1/4+x,-y,1/4+z
20 -x,1/4+y,1/4+z
21 -x,1/2-y,1/2-z
22 1/4+x,3/4+y,1/2-z
23 1/4+x,1/2-y,3/4+z
24 -x,3/4+y,3/4+z
25 1/2-x,-y,1/2-z
26 3/4+x,1/4+y,1/2-z
27 3/4+x,-y,3/4+z
28 1/2-x,1/4+y,3/4+z
29 1/2-x,1/2-y,-z
30 3/4+x,3/4+y,-z
31 3/4+x,1/2-y,1/4+z
32 1/2-x,3/4+y,1/4+z
_cell_length_a                   12.284(2)
_cell_length_b                   22.733(4)
_cell_length_c                   34.400(6)
_cell_angle_alpha                90
_cell_angle_beta                 90
_cell_angle_gamma                90
_cell_volume                     9606.27
loop_
_atom_site_label
_atom_site_type_symbol
_atom_site_fract_x
_atom_site_fract_y
_atom_site_fract_z
Cl2 Cl 1.2895(10) 0.4657(5) 0.2362(5)
Cl2X Cl 1.2105(10) 0.5343(5) 0.2638(5)
Eu1 Eu 0.8750 0.3750 -0.1250
Zn1 Zn 0.99285(7) 0.57511(4) -0.24810(2)
Zn2 Zn 1.3750 0.3750 -0.39347(5)
N1 N 1.0626(5) 0.4898(2) -0.25080(15)
N2 N 1.1388(5) 0.4001(3) -0.25454(17)
O1 O 0.9370(4) 0.5412(2) -0.19687(14)
O2 O 0.9380(4) 0.4634(2) -0.15831(13)
C1 C 1.1270(5) 0.4526(3) -0.2710(2)
O3 O 1.0187(4) 0.3461(2) -0.16639(14)
O4 O 1.1526(4) 0.3124(2) -0.20323(15)
C2 C 1.0769(5) 0.4025(3) -0.22091(18)
C3 C 1.0302(5) 0.4575(3) -0.21908(18)
C4 C 1.1835(6) 0.4688(3) -0.3074(2)
N3 N 1.2927(5) 0.4388(3) -0.36208(18)
C5 C 1.0798(6) 0.3512(3) -0.19462(19)
C6 C 1.2545(7) 0.5399(4) -0.3521(2)
H1 H 1.2630 0.5786 -0.3604
C7 C 1.1949(7) 0.5272(3) -0.3191(2)
H2 H 1.1628 0.5573 -0.3049
C8 C 1.3009(8) 0.4945(4) -0.3726(2)
H3 H 1.3401 0.5034 -0.3950
C9 C 0.9625(5) 0.4877(3) -0.1892(2)
O5 O 1.3750 0.3750 -0.4555(2)
H4 H 1.3676 0.3434 -0.4686
Cl1 Cl 1.1250 0.6250 -0.2458(3)
C10 C 1.2333(6) 0.4258(3) -0.3303(2)
H6 H 1.2251 0.3866 -0.3233
O6 O 1.5163(6) 0.4337(3) -0.3946(2)
H7 H 1.5286 0.4626 -0.3767
H8 H 1.5543 0.4450 -0.4142
Zn1A Zn 0.75715(7) 0.17489(4) -0.24810(2)
Zn1B Zn 0.75715(7) 0.57511(4) -0.00190(2)
Zn1C Zn 0.99285(7) 0.17489(4) -0.00190(2)
Zn1U Zn 1.24285(7) 0.32511(4) -0.25190(2)
Zn1M Zn 1.25715(7) 0.67489(4) -0.24810(2)
Zn1X Zn 0.50715(7) 0.42489(4) -0.25190(2)
Zn1EA Zn 0.50715(7) 0.32511(4) 0.00190(2)
Zn1R Zn 1.24285(7) 0.42489(4) 0.00190(2)
Zn1L Zn 0.49285(7) 0.07511(4) -0.24810(2)
Zn2_2 Zn 0.3750 0.3750 -0.39347(5)
Zn2B Zn 0.3750 0.3750 0.14347(5)
Zn2B_2 Zn 1.3750 0.3750 0.14347(5)
N1A N 0.6874(5) 0.2602(2) -0.25080(15)
N1B N 0.6874(5) 0.4898(2) 0.00080(15)
N1C N 1.0626(5) 0.2602(2) 0.00080(15)
N2A N 0.6112(5) 0.3499(3) -0.25454(17)
N2B N 0.6112(5) 0.4001(3) 0.00454(17)
N2C N 1.1388(5) 0.3499(3) 0.00454(17)
N2Y N 0.8888(5) 0.6501(3) -0.24546(17)
N2T N 0.8612(5) 0.0999(3) -0.24546(17)
N2S N 0.8612(5) 0.6501(3) -0.00454(17)
N2DA N 0.8888(5) 0.0999(3) -0.00454(17)
O1A O 0.8130(4) 0.2088(2) -0.19687(14)
O1B O 0.8130(4) 0.5412(2) -0.05313(14)
O1C O 0.9370(4) 0.2088(2) -0.05313(14)
O2A O 0.8120(4) 0.2866(2) -0.15831(13)
O2B O 0.8120(4) 0.4634(2) -0.09169(13)
O2C O 0.9380(4) 0.2866(2) -0.09169(13)
C1A C 0.6230(5) 0.2974(3) -0.2710(2)
C1B C 0.6230(5) 0.4526(3) 0.0210(2)
C1C C 1.1270(5) 0.2974(3) 0.0210(2)
O3A O 0.7313(4) 0.4039(2) -0.16639(14)
O3B O 0.7313(4) 0.3461(2) -0.08361(14)
O3C O 1.0187(4) 0.4039(2) -0.08361(14)
O4A O 0.5974(4) 0.4376(2) -0.20323(15)
O4B O 0.5974(4) 0.3124(2) -0.04677(15)
O4C O 1.1526(4) 0.4376(2) -0.04677(15)
O4Y O 0.9026(4) 0.5624(2) -0.29677(15)
O4T O 0.8474(4) 0.1876(2) -0.29677(15)
O4S O 0.8474(4) 0.5624(2) 0.04677(15)
O4DA O 0.9026(4) 0.1876(2) 0.04677(15)
C2A C 0.6731(5) 0.3475(3) -0.22091(18)
C2B C 0.6731(5) 0.4025(3) -0.02909(18)
C2C C 1.0769(5) 0.3475(3) -0.02909(18)
C3A C 0.7198(5) 0.2925(3) -0.21908(18)
C3B C 0.7198(5) 0.4575(3) -0.03092(18)
C3C C 1.0302(5) 0.2925(3) -0.03092(18)
C4A C 0.5665(6) 0.2812(3) -0.3074(2)
C4B C 0.5665(6) 0.4688(3) 0.0574(2)
C4C C 1.1835(6) 0.2812(3) 0.0574(2)
N3A N 0.4573(5) 0.3112(3) -0.36208(18)
N3B N 0.4573(5) 0.4388(3) 0.11208(18)
N3C N 1.2927(5) 0.3112(3) 0.11208(18)
N3A_2 N 1.4573(5) 0.3112(3) -0.36208(18)
N3_2 N 0.2927(5) 0.4388(3) -0.36208(18)
C5A C 0.6702(6) 0.3988(3) -0.19462(19)
C5B C 0.6702(6) 0.3512(3) -0.05538(19)
C5C C 1.0798(6) 0.3988(3) -0.05538(19)
C6A C 0.4955(7) 0.2101(4) -0.3521(2)
C6B C 0.4955(7) 0.5399(4) 0.1021(2)
C6C C 1.2545(7) 0.2101(4) 0.1021(2)
H1A H 0.4870 0.1714 -0.3604
H1B H 0.4870 0.5786 0.1104
H1C H 1.2630 0.1714 0.1104
C7A C 0.5551(7) 0.2228(3) -0.3191(2)
C7B C 0.5551(7) 0.5272(3) 0.0691(2)
C7C C 1.1949(7) 0.2228(3) 0.0691(2)
H2A H 0.5872 0.1927 -0.3049
H2B H 0.5872 0.5573 0.0549
H2C H 1.1628 0.1927 0.0549
C8A C 0.4491(8) 0.2555(4) -0.3726(2)
C8B C 0.4491(8) 0.4945(4) 0.1226(2)
C8C C 1.3009(8) 0.2555(4) 0.1226(2)
H3A H 0.4099 0.2466 -0.3950
H3B H 0.4099 0.5034 0.1450
H3C H 1.3401 0.2466 0.1450
C9A C 0.7875(5) 0.2623(3) -0.1892(2)
C9B C 0.7875(5) 0.4877(3) -0.0608(2)
C9C C 0.9625(5) 0.2623(3) -0.0608(2)
O5_2 O 0.3750 0.3750 -0.4555(2)
H4A H 1.3824 0.4066 -0.4686
H4A_2 H 0.3824 0.4066 -0.4686
H4_2 H 0.3676 0.3434 -0.4686
Cl1A Cl 0.6250 0.1250 -0.2458(3)
Cl1B Cl 0.6250 0.6250 -0.0042(3)
Cl1C Cl 1.1250 0.1250 -0.0042(3)
C10A C 0.5167(6) 0.3242(3) -0.3303(2)
C10B C 0.5167(6) 0.4258(3) 0.0803(2)
C10C C 1.2333(6) 0.3242(3) 0.0803(2)
H6A H 0.5249 0.3634 -0.3233
H6B H 0.5249 0.3866 0.0733
H6C H 1.2251 0.3634 0.0733
O6A O 1.2337(6) 0.3163(3) -0.3946(2)
O6A_2 O 0.2337(6) 0.3163(3) -0.3946(2)
O6_2 O 0.5163(6) 0.4337(3) -0.3946(2)
H7A H 1.2214 0.2874 -0.3767
H7A_2 H 0.2214 0.2874 -0.3767
H7_2 H 0.5286 0.4626 -0.3767
H8A H 1.1957 0.3050 -0.4142
H8A_2 H 0.1957 0.3050 -0.4142
H8_2 H 0.5543 0.4450 -0.4142
H5? H 1.3794 0.4034 -0.4716
loop_
_geom_bond_atom_site_label_1
_geom_bond_atom_site_label_2
_geom_bond_site_symmetry_1
_geom_bond_site_symmetry_2
Eu1 O2 1_555 1_555
Zn1 N1 1_555 1_555
Zn2 N3 1_555 1_555
N1 C1 1_555 1_555
N2 C1 1_555 1_555
O1 Zn1 1_555 1_555
O2 C9 1_555 1_555
C1 C4 1_555 1_555
O3 Eu1 1_555 1_555
O4 C5 1_555 1_555
C2 N2 1_555 1_555
C3 N1 1_555 1_555
C4 C7 1_555 1_555
N3 C8 1_555 1_555
C5 O3 1_555 1_555
C6 H1 1_555 1_555
C7 C6 1_555 1_555
H2 C7 1_555 1_555
C8 C6 1_555 1_555
H3 C8 1_555 1_555
C9 O1 1_555 1_555
O5 Zn2 1_555 1_555
H4 O5 1_555 1_555
Cl1 Zn1 1_555 1_555
C10 C4 1_555 1_555
H6 C10 1_555 1_555
O6 Zn2 1_555 1_555
H7 O6 1_555 1_555
H8 O6 1_555 1_555
Cl2 Cl2X 1_555 1_555
Zn1A N1A 1_555 1_555
Zn1B N1B 1_555 1_555
Zn1C N1C 1_555 1_555
Zn1U N2 1_555 1_555
Zn1M Cl1 1_555 1_555
Zn1X N2A 1_555 1_555
Zn1EA N2B 1_555 1_555
Zn1R N2C 1_555 1_555
Zn1L Cl1A 1_555 1_555
Zn2_2 N3A 1_555 1_555
Zn2B N3B 1_555 1_555
Zn2B_2 N3C 1_555 1_555
N1A C1A 1_555 1_555
N1B C1B 1_555 1_555
N1C C1C 1_555 1_555
N2A C1A 1_555 1_555
N2B C1B 1_555 1_555
N2C C1C 1_555 1_555
N2Y Zn1 1_555 1_555
N2T Zn1A 1_555 1_555
N2S Zn1B 1_555 1_555
N2DA Zn1C 1_555 1_555
O1A Zn1A 1_555 1_555
O1B Zn1B 1_555 1_555
O1C Zn1C 1_555 1_555
O2A Eu1 1_555 1_555
O2B Eu1 1_555 1_555
O2C Eu1 1_555 1_555
C1A C4A 1_555 1_555
C1B C4B 1_555 1_555
C1C C4C 1_555 1_555
O3A Eu1 1_555 1_555
O3B Eu1 1_555 1_555
O3C Eu1 1_555 1_555
O4A Zn1X 1_555 1_555
O4B Zn1EA 1_555 1_555
O4C Zn1R 1_555 1_555
O4Y Zn1 1_555 1_555
O4T Zn1A 1_555 1_555
O4S Zn1B 1_555 1_555
O4DA Zn1C 1_555 1_555
C2A N2A 1_555 1_555
C2B N2B 1_555 1_555
C2C N2C 1_555 1_555
C3A N1A 1_555 1_555
C3B N1B 1_555 1_555
C3C N1C 1_555 1_555
C4A C7A 1_555 1_555
C4B C7B 1_555 1_555
C4C C7C 1_555 1_555
N3A C8A 1_555 1_555
N3B C8B 1_555 1_555
N3C C8C 1_555 1_555
N3A_2 Zn2 1_555 1_555
N3_2 Zn2_2 1_555 1_555
C5A O3A 1_555 1_555
C5B O3B 1_555 1_555
C5C O3C 1_555 1_555
C6A H1A 1_555 1_555
C6B H1B 1_555 1_555
C6C H1C 1_555 1_555
C7A C6A 1_555 1_555
C7B C6B 1_555 1_555
C7C C6C 1_555 1_555
H2A C7A 1_555 1_555
H2B C7B 1_555 1_555
H2C C7C 1_555 1_555
C8A C6A 1_555 1_555
C8B C6B 1_555 1_555
C8C C6C 1_555 1_555
H3A C8A 1_555 1_555
H3B C8B 1_555 1_555
H3C C8C 1_555 1_555
C9A O1A 1_555 1_555
C9B O1B 1_555 1_555
C9C O1C 1_555 1_555
O5_2 Zn2_2 1_555 1_555
H4A O5 1_555 1_555
H4A_2 O5_2 1_555 1_555
H4_2 O5_2 1_555 1_555
Cl1A Zn1A 1_555 1_555
Cl1B Zn1B 1_555 1_555
Cl1C Zn1C 1_555 1_555
C10A C4A 1_555 1_555
C10B C4B 1_555 1_555
C10C C4C 1_555 1_555
H6A C10A 1_555 1_555
H6B C10B 1_555 1_555
H6C C10C 1_555 1_555
O6A Zn2 1_555 1_555
O6A_2 Zn2_2 1_555 1_555
O6_2 Zn2_2 1_555 1_555
H7A O6A 1_555 1_555
H7A_2 O6A_2 1_555 1_555
H7_2 O6_2 1_555 1_555
H8A O6A 1_555 1_555
H8A_2 O6A_2 1_555 1_555
H8_2 O6_2 1_555 1_555
O4 Zn1U 1_555 1_555
C2 C3 1_555 1_555
C2 C5 1_555 1_555
C3 C9 1_555 1_555
N3 C10 1_555 1_555
O2A C9A 1_555 1_555
O2B C9B 1_555 1_555
O2C C9C 1_555 1_555
O4A C5A 1_555 1_555
O4B C5B 1_555 1_555
O4C C5C 1_555 1_555
C2A C3A 1_555 1_555
C2A C5A 1_555 1_555
C2B C3B 1_555 1_555
C2B C5B 1_555 1_555
C2C C3C 1_555 1_555
C2C C5C 1_555 1_555
C3A C9A 1_555 1_555
C3B C9B 1_555 1_555
C3C C9C 1_555 1_555
N3A C10A 1_555 1_555
N3B C10B 1_555 1_555
N3C C10C 1_555 1_555

#END
