
#######################################################################
#
#                 Cambridge Crystallographic Data Centre
#                                CCDC 
#
#######################################################################
#
# If this CIF has been generated from an entry in the Cambridge 
# Structural Database, then it will include bibliographic, chemical, 
# crystal, experimental, refinement or atomic coordinate data resulting 
# from the CCDC's data processing and validation procedures.
#
#######################################################################

data_SEHLIC
_symmetry_cell_setting           orthorhombic
_symmetry_space_group_name_H-M   'F d d d'
_symmetry_Int_Tables_number      70
_space_group_name_Hall           '-F 2uv 2vw'
loop_
_symmetry_equiv_pos_site_id
_symmetry_equiv_pos_as_xyz
1 x,y,z
2 3/4-x,3/4-y,z
3 3/4-x,y,3/4-z
4 x,3/4-y,3/4-z
5 x,1/2+y,1/2+z
6 3/4-x,1/4-y,1/2+z
7 3/4-x,1/2+y,1/4-z
8 x,1/4-y,1/4-z
9 1/2+x,y,1/2+z
10 1/4-x,3/4-y,1/2+z
11 1/4-x,y,1/4-z
12 1/2+x,3/4-y,1/4-z
13 1/2+x,1/2+y,z
14 1/4-x,1/4-y,z
15 1/4-x,1/2+y,3/4-z
16 1/2+x,1/4-y,3/4-z
17 -x,-y,-z
18 1/4+x,1/4+y,-z
19 1/4+x,-y,1/4+z
20 -x,1/4+y,1/4+z
21 -x,1/2-y,1/2-z
22 1/4+x,3/4+y,1/2-z
23 1/4+x,1/2-y,3/4+z
24 -x,3/4+y,3/4+z
25 1/2-x,-y,1/2-z
26 3/4+x,1/4+y,1/2-z
27 3/4+x,-y,3/4+z
28 1/2-x,1/4+y,3/4+z
29 1/2-x,1/2-y,-z
30 3/4+x,3/4+y,-z
31 3/4+x,1/2-y,1/4+z
32 1/2-x,3/4+y,1/4+z
_cell_length_a                   12.1678(5)
_cell_length_b                   22.6910(8)
_cell_length_c                   34.3938(14)
_cell_angle_alpha                90
_cell_angle_beta                 90
_cell_angle_gamma                90
_cell_volume                     9496.11
loop_
_atom_site_label
_atom_site_type_symbol
_atom_site_fract_x
_atom_site_fract_y
_atom_site_fract_z
Cl2 Cl 1.2861(12) 0.4656(7) 0.2366(5)
Cl2X Cl 1.2139(12) 0.5344(7) 0.2634(5)
Tb1 Tb 0.8750 0.3750 -0.1250
Zn1 Zn 0.99281(7) 0.57513(4) -0.24799(2)
Zn2 Zn 1.3750 0.3750 -0.39368(5)
N1 N 1.0625(5) 0.4898(3) -0.25069(16)
N2 N 1.1382(5) 0.4005(3) -0.25424(17)
O1 O 0.9373(4) 0.5412(2) -0.19625(14)
O2 O 0.9378(4) 0.4632(2) -0.15805(14)
C1 C 1.1268(5) 0.4530(3) -0.2711(2)
O3 O 1.0185(4) 0.3465(2) -0.16598(15)
O4 O 1.1516(5) 0.3121(2) -0.20301(16)
C2 C 1.0763(6) 0.4028(3) -0.22079(19)
C3 C 1.0302(5) 0.4576(3) -0.21877(19)
C4 C 1.1839(6) 0.4694(3) -0.3073(2)
N3 N 1.2926(5) 0.4391(3) -0.36219(19)
C5 C 1.0795(6) 0.3511(3) -0.1945(2)
C6 C 1.2539(8) 0.5405(4) -0.3524(3)
H1 H 1.2607 0.5792 -0.3609
C7 C 1.1957(7) 0.5275(3) -0.3191(2)
H2 H 1.1643 0.5577 -0.3046
C8 C 1.3013(8) 0.4955(4) -0.3727(2)
H3 H 1.3417 0.5045 -0.3948
C9 C 0.9621(6) 0.4877(3) -0.1886(2)
O5 O 1.3750 0.3750 -0.4558(2)
H4 H 1.3676 0.3434 -0.4689
Cl1 Cl 1.1250 0.6250 -0.2471(3)
C10 C 1.2342(7) 0.4265(3) -0.3300(2)
H6 H 1.2273 0.3873 -0.3226
O6 O 1.5163(6) 0.4330(3) -0.3946(2)
H7 H 1.5286 0.4619 -0.3767
H8 H 1.5542 0.4443 -0.4142
Zn1A Zn 0.75719(7) 0.17487(4) -0.24799(2)
Zn1B Zn 0.75719(7) 0.57513(4) -0.00201(2)
Zn1C Zn 0.99281(7) 0.17487(4) -0.00201(2)
Zn1U Zn 1.24281(7) 0.32513(4) -0.25201(2)
Zn1M Zn 1.25719(7) 0.67487(4) -0.24799(2)
Zn1X Zn 0.50719(7) 0.42487(4) -0.25201(2)
Zn1EA Zn 0.50719(7) 0.32513(4) 0.00201(2)
Zn1R Zn 1.24281(7) 0.42487(4) 0.00201(2)
Zn1L Zn 0.49281(7) 0.07513(4) -0.24799(2)
Zn2_2 Zn 0.3750 0.3750 -0.39368(5)
Zn2B Zn 0.3750 0.3750 0.14368(5)
Zn2B_2 Zn 1.3750 0.3750 0.14368(5)
N1A N 0.6875(5) 0.2602(3) -0.25069(16)
N1B N 0.6875(5) 0.4898(3) 0.00069(16)
N1C N 1.0625(5) 0.2602(3) 0.00069(16)
N2A N 0.6118(5) 0.3495(3) -0.25424(17)
N2B N 0.6118(5) 0.4005(3) 0.00424(17)
N2C N 1.1382(5) 0.3495(3) 0.00424(17)
N2Y N 0.8882(5) 0.6505(3) -0.24576(17)
N2T N 0.8618(5) 0.0995(3) -0.24576(17)
N2S N 0.8618(5) 0.6505(3) -0.00424(17)
N2DA N 0.8882(5) 0.0995(3) -0.00424(17)
O1A O 0.8127(4) 0.2088(2) -0.19625(14)
O1B O 0.8127(4) 0.5412(2) -0.05375(14)
O1C O 0.9373(4) 0.2088(2) -0.05375(14)
O2A O 0.8122(4) 0.2868(2) -0.15805(14)
O2B O 0.8122(4) 0.4632(2) -0.09195(14)
O2C O 0.9378(4) 0.2868(2) -0.09195(14)
C1A C 0.6232(5) 0.2970(3) -0.2711(2)
C1B C 0.6232(5) 0.4530(3) 0.0211(2)
C1C C 1.1268(5) 0.2970(3) 0.0211(2)
O3A O 0.7315(4) 0.4035(2) -0.16598(15)
O3B O 0.7315(4) 0.3465(2) -0.08402(15)
O3C O 1.0185(4) 0.4035(2) -0.08402(15)
O4A O 0.5984(5) 0.4379(2) -0.20301(16)
O4B O 0.5984(5) 0.3121(2) -0.04699(16)
O4C O 1.1516(5) 0.4379(2) -0.04699(16)
O4Y O 0.9016(5) 0.5621(2) -0.29699(16)
O4T O 0.8484(5) 0.1879(2) -0.29699(16)
O4S O 0.8484(5) 0.5621(2) 0.04699(16)
O4DA O 0.9016(5) 0.1879(2) 0.04699(16)
C2A C 0.6737(6) 0.3472(3) -0.22079(19)
C2B C 0.6737(6) 0.4028(3) -0.02921(19)
C2C C 1.0763(6) 0.3472(3) -0.02921(19)
C3A C 0.7198(5) 0.2924(3) -0.21877(19)
C3B C 0.7198(5) 0.4576(3) -0.03123(19)
C3C C 1.0302(5) 0.2924(3) -0.03123(19)
C4A C 0.5661(6) 0.2806(3) -0.3073(2)
C4B C 0.5661(6) 0.4694(3) 0.0573(2)
C4C C 1.1839(6) 0.2806(3) 0.0573(2)
N3A N 0.4574(5) 0.3109(3) -0.36219(19)
N3B N 0.4574(5) 0.4391(3) 0.11219(19)
N3C N 1.2926(5) 0.3109(3) 0.11219(19)
N3A_2 N 1.4574(5) 0.3109(3) -0.36219(19)
N3_2 N 0.2926(5) 0.4391(3) -0.36219(19)
C5A C 0.6705(6) 0.3989(3) -0.1945(2)
C5B C 0.6705(6) 0.3511(3) -0.0555(2)
C5C C 1.0795(6) 0.3989(3) -0.0555(2)
C6A C 0.4961(8) 0.2095(4) -0.3524(3)
C6B C 0.4961(8) 0.5405(4) 0.1024(3)
C6C C 1.2539(8) 0.2095(4) 0.1024(3)
H1A H 0.4893 0.1708 -0.3609
H1B H 0.4893 0.5792 0.1109
H1C H 1.2607 0.1708 0.1109
C7A C 0.5543(7) 0.2225(3) -0.3191(2)
C7B C 0.5543(7) 0.5275(3) 0.0691(2)
C7C C 1.1957(7) 0.2225(3) 0.0691(2)
H2A H 0.5857 0.1923 -0.3046
H2B H 0.5857 0.5577 0.0546
H2C H 1.1643 0.1923 0.0546
C8A C 0.4487(8) 0.2545(4) -0.3727(2)
C8B C 0.4487(8) 0.4955(4) 0.1227(2)
C8C C 1.3013(8) 0.2545(4) 0.1227(2)
H3A H 0.4083 0.2455 -0.3948
H3B H 0.4083 0.5045 0.1448
H3C H 1.3417 0.2455 0.1448
C9A C 0.7879(6) 0.2623(3) -0.1886(2)
C9B C 0.7879(6) 0.4877(3) -0.0614(2)
C9C C 0.9621(6) 0.2623(3) -0.0614(2)
O5_2 O 0.3750 0.3750 -0.4558(2)
H4A H 1.3824 0.4066 -0.4689
H4A_2 H 0.3824 0.4066 -0.4689
H4_2 H 0.3676 0.3434 -0.4689
Cl1A Cl 0.6250 0.1250 -0.2471(3)
Cl1B Cl 0.6250 0.6250 -0.0029(3)
Cl1C Cl 1.1250 0.1250 -0.0029(3)
C10A C 0.5158(7) 0.3235(3) -0.3300(2)
C10B C 0.5158(7) 0.4265(3) 0.0800(2)
C10C C 1.2342(7) 0.3235(3) 0.0800(2)
H6A H 0.5227 0.3627 -0.3226
H6B H 0.5227 0.3873 0.0726
H6C H 1.2273 0.3627 0.0726
O6A O 1.2337(6) 0.3170(3) -0.3946(2)
O6A_2 O 0.2337(6) 0.3170(3) -0.3946(2)
O6_2 O 0.5163(6) 0.4330(3) -0.3946(2)
H7A H 1.2214 0.2881 -0.3767
H7A_2 H 0.2214 0.2881 -0.3767
H7_2 H 0.5286 0.4619 -0.3767
H8A H 1.1958 0.3057 -0.4142
H8A_2 H 0.1958 0.3057 -0.4142
H8_2 H 0.5542 0.4443 -0.4142
H5? H 1.3794 0.4034 -0.4719
loop_
_geom_bond_atom_site_label_1
_geom_bond_atom_site_label_2
_geom_bond_site_symmetry_1
_geom_bond_site_symmetry_2
Tb1 O2 1_555 1_555
Zn1 N1 1_555 1_555
Zn2 N3 1_555 1_555
N1 C1 1_555 1_555
N2 C1 1_555 1_555
O1 Zn1 1_555 1_555
O2 C9 1_555 1_555
C1 C4 1_555 1_555
O3 Tb1 1_555 1_555
O4 C5 1_555 1_555
C2 N2 1_555 1_555
C3 N1 1_555 1_555
C4 C7 1_555 1_555
N3 C8 1_555 1_555
C5 O3 1_555 1_555
C6 H1 1_555 1_555
C7 C6 1_555 1_555
H2 C7 1_555 1_555
C8 C6 1_555 1_555
H3 C8 1_555 1_555
C9 O1 1_555 1_555
O5 Zn2 1_555 1_555
H4 O5 1_555 1_555
Cl1 Zn1 1_555 1_555
C10 C4 1_555 1_555
H6 C10 1_555 1_555
O6 Zn2 1_555 1_555
H7 O6 1_555 1_555
H8 O6 1_555 1_555
Cl2 Cl2X 1_555 1_555
Zn1A N1A 1_555 1_555
Zn1B N1B 1_555 1_555
Zn1C N1C 1_555 1_555
Zn1U N2 1_555 1_555
Zn1M Cl1 1_555 1_555
Zn1X N2A 1_555 1_555
Zn1EA N2B 1_555 1_555
Zn1R N2C 1_555 1_555
Zn1L Cl1A 1_555 1_555
Zn2_2 N3A 1_555 1_555
Zn2B N3B 1_555 1_555
Zn2B_2 N3C 1_555 1_555
N1A C1A 1_555 1_555
N1B C1B 1_555 1_555
N1C C1C 1_555 1_555
N2A C1A 1_555 1_555
N2B C1B 1_555 1_555
N2C C1C 1_555 1_555
N2Y Zn1 1_555 1_555
N2T Zn1A 1_555 1_555
N2S Zn1B 1_555 1_555
N2DA Zn1C 1_555 1_555
O1A Zn1A 1_555 1_555
O1B Zn1B 1_555 1_555
O1C Zn1C 1_555 1_555
O2A Tb1 1_555 1_555
O2B Tb1 1_555 1_555
O2C Tb1 1_555 1_555
C1A C4A 1_555 1_555
C1B C4B 1_555 1_555
C1C C4C 1_555 1_555
O3A Tb1 1_555 1_555
O3B Tb1 1_555 1_555
O3C Tb1 1_555 1_555
O4A Zn1X 1_555 1_555
O4B Zn1EA 1_555 1_555
O4C Zn1R 1_555 1_555
O4Y Zn1 1_555 1_555
O4T Zn1A 1_555 1_555
O4S Zn1B 1_555 1_555
O4DA Zn1C 1_555 1_555
C2A N2A 1_555 1_555
C2B N2B 1_555 1_555
C2C N2C 1_555 1_555
C3A N1A 1_555 1_555
C3B N1B 1_555 1_555
C3C N1C 1_555 1_555
C4A C7A 1_555 1_555
C4B C7B 1_555 1_555
C4C C7C 1_555 1_555
N3A C8A 1_555 1_555
N3B C8B 1_555 1_555
N3C C8C 1_555 1_555
N3A_2 Zn2 1_555 1_555
N3_2 Zn2_2 1_555 1_555
C5A O3A 1_555 1_555
C5B O3B 1_555 1_555
C5C O3C 1_555 1_555
C6A H1A 1_555 1_555
C6B H1B 1_555 1_555
C6C H1C 1_555 1_555
C7A C6A 1_555 1_555
C7B C6B 1_555 1_555
C7C C6C 1_555 1_555
H2A C7A 1_555 1_555
H2B C7B 1_555 1_555
H2C C7C 1_555 1_555
C8A C6A 1_555 1_555
C8B C6B 1_555 1_555
C8C C6C 1_555 1_555
H3A C8A 1_555 1_555
H3B C8B 1_555 1_555
H3C C8C 1_555 1_555
C9A O1A 1_555 1_555
C9B O1B 1_555 1_555
C9C O1C 1_555 1_555
O5_2 Zn2_2 1_555 1_555
H4A O5 1_555 1_555
H4A_2 O5_2 1_555 1_555
H4_2 O5_2 1_555 1_555
Cl1A Zn1A 1_555 1_555
Cl1B Zn1B 1_555 1_555
Cl1C Zn1C 1_555 1_555
C10A C4A 1_555 1_555
C10B C4B 1_555 1_555
C10C C4C 1_555 1_555
H6A C10A 1_555 1_555
H6B C10B 1_555 1_555
H6C C10C 1_555 1_555
O6A Zn2 1_555 1_555
O6A_2 Zn2_2 1_555 1_555
O6_2 Zn2_2 1_555 1_555
H7A O6A 1_555 1_555
H7A_2 O6A_2 1_555 1_555
H7_2 O6_2 1_555 1_555
H8A O6A 1_555 1_555
H8A_2 O6A_2 1_555 1_555
H8_2 O6_2 1_555 1_555
O4 Zn1U 1_555 1_555
C2 C3 1_555 1_555
C2 C5 1_555 1_555
C3 C9 1_555 1_555
N3 C10 1_555 1_555
O2A C9A 1_555 1_555
O2B C9B 1_555 1_555
O2C C9C 1_555 1_555
O4A C5A 1_555 1_555
O4B C5B 1_555 1_555
O4C C5C 1_555 1_555
C2A C3A 1_555 1_555
C2A C5A 1_555 1_555
C2B C3B 1_555 1_555
C2B C5B 1_555 1_555
C2C C3C 1_555 1_555
C2C C5C 1_555 1_555
C3A C9A 1_555 1_555
C3B C9B 1_555 1_555
C3C C9C 1_555 1_555
N3A C10A 1_555 1_555
N3B C10B 1_555 1_555
N3C C10C 1_555 1_555

#END
