
#######################################################################
#
#                 Cambridge Crystallographic Data Centre
#                                CCDC 
#
#######################################################################
#
# If this CIF has been generated from an entry in the Cambridge 
# Structural Database, then it will include bibliographic, chemical, 
# crystal, experimental, refinement or atomic coordinate data resulting 
# from the CCDC's data processing and validation procedures.
#
#######################################################################

data_SEHMOI
_symmetry_cell_setting           monoclinic
_symmetry_space_group_name_H-M   'C 2/c'
_symmetry_Int_Tables_number      15
_space_group_name_Hall           '-C 2yn'
loop_
_symmetry_equiv_pos_site_id
_symmetry_equiv_pos_as_xyz
1 x,y,z
2 1/2+x,1/2+y,z
3 -x,y,1/2-z
4 1/2-x,1/2+y,1/2-z
5 -x,-y,-z
6 1/2-x,1/2-y,-z
7 x,-y,1/2+z
8 1/2+x,1/2-y,1/2+z
_cell_length_a                   20.268(13)
_cell_length_b                   6.393(4)
_cell_length_c                   28.096(18)
_cell_angle_alpha                90
_cell_angle_beta                 107.944(11)
_cell_angle_gamma                90
_cell_volume                     3463.41
loop_
_atom_site_label
_atom_site_type_symbol
_atom_site_fract_x
_atom_site_fract_y
_atom_site_fract_z
N1 N 0.3315(2) 0.2308(7) 0.37613(16)
Sm1 Sm 0.205605(12) 0.29249(4) 0.361404(9)
Ru1 Ru -0.027965(18) 0.47803(5) 0.394333(13)
C1 C -0.0198(2) 0.4045(7) 0.49947(17)
C2 C -0.0835(2) 0.1354(7) 0.45390(18)
H1 H -0.1039 0.0648 0.4231
C3 C -0.0914(2) 0.0549(7) 0.49753(18)
H2 H -0.1171 -0.0698 0.4969
C4 C -0.0611(2) 0.1588(7) 0.54192(18)
H3 H -0.0658 0.1038 0.5721
C5 C 0.0583(2) 0.3081(7) 0.39779(17)
C6 C -0.0014(2) 0.6609(7) 0.34640(18)
C7 C -0.0843(3) 0.2899(8) 0.34074(18)
C8 C 0.3839(2) 0.1445(7) 0.38399(17)
N2 N -0.04715(19) 0.3128(6) 0.45444(14)
N3 N -0.02517(19) 0.3368(6) 0.54321(15)
N4 N 0.1080(2) 0.2236(6) 0.39637(15)
N5 N 0.0175(2) 0.7724(6) 0.32059(16)
N6 N -0.1205(2) 0.1838(7) 0.31110(16)
N7 N 0.2802(2) 0.0719(7) 0.45622(15)
O1 O 0.24481(18) -0.0235(5) 0.41658(13)
O2 O 0.27377(18) 0.2657(6) 0.45533(14)
O3 O 0.3193(2) -0.0230(7) 0.49155(14)
O4 O 0.22529(18) 0.2248(6) 0.28220(13)
H4 H 0.2650 0.2287 0.2791
H5 H 0.1978 0.1888 0.2545
O5 O 0.25691(19) 0.6195(5) 0.34295(14)
H6 H 0.2906 0.6496 0.3331
H7 H 0.2393 0.7326 0.3481
O6 O 0.10344(16) 0.4325(5) 0.29497(12)
H8 H 0.0804 0.5195 0.3055
H9 H 0.0750 0.3367 0.2817
O7 O 0.18283(19) 0.5948(5) 0.40786(13)
H10 H 0.2125 0.6890 0.4118
H11 H 0.1826 0.5552 0.4362
O8 O 0.14790(18) -0.0301(5) 0.32275(13)
H12 H 0.1138 -0.0889 0.3287
H13 H 0.1462 -0.0796 0.2943
N1A N -0.1685(2) 0.7308(7) 0.37613(16)
Sm1A Sm -0.294395(12) 0.79249(4) 0.361404(9)
Sm1A_2 Sm 0.705605(12) -0.20751(4) 0.361404(9)
Ru1A Ru 0.472035(18) -0.02197(5) 0.394333(13)
Ru1D Ru 0.027965(18) 0.52197(5) 0.605667(13)
C1D C 0.0198(2) 0.5955(7) 0.50053(17)
C2D C 0.0835(2) 0.8646(7) 0.54610(18)
H1D H 0.1039 0.9352 0.5769
C3D C 0.0914(2) 0.9451(7) 0.50247(18)
H2D H 0.1171 1.0698 0.5031
C4D C 0.0611(2) 0.8412(7) 0.45808(18)
H3D H 0.0658 0.8962 0.4279
C5A C 0.5583(2) -0.1919(7) 0.39779(17)
C6A C 0.4986(2) 0.1609(7) 0.34640(18)
C7A C 0.4157(3) -0.2101(8) 0.34074(18)
C8A C -0.1161(2) 0.6445(7) 0.38399(17)
N2D N 0.04715(19) 0.6872(6) 0.54556(14)
N2A N 0.45285(19) -0.1872(6) 0.45444(14)
N3D N 0.02517(19) 0.6632(6) 0.45679(15)
N3E N 0.52517(19) 0.1632(6) 0.45679(15)
N4A N 0.6080(2) -0.2764(6) 0.39637(15)
N4A_2 N -0.3920(2) 0.7236(6) 0.39637(15)
N5A N 0.5175(2) 0.2724(6) 0.32059(16)
N6A N 0.3795(2) -0.3162(7) 0.31110(16)
N7A N -0.2198(2) 0.5719(7) 0.45622(15)
O1A O -0.25519(18) 0.4765(5) 0.41658(13)
O2A O -0.22623(18) 0.7657(6) 0.45533(14)
O3A O -0.1807(2) 0.4770(7) 0.49155(14)
O4A O -0.27471(18) 0.7248(6) 0.28220(13)
H4A H -0.2350 0.7287 0.2791
H5A H -0.3022 0.6888 0.2545
O5A O -0.24309(19) 1.1195(5) 0.34295(14)
H6A H -0.2094 1.1496 0.3331
H7A H -0.2607 1.2326 0.3481
O6A O -0.39656(16) 0.9325(5) 0.29497(12)
H8A H -0.4196 1.0195 0.3055
H9A H -0.4250 0.8367 0.2817
O7A O -0.31717(19) 1.0948(5) 0.40786(13)
H10A H -0.2875 1.1890 0.4118
H11A H -0.3174 1.0552 0.4362
O8A O -0.35210(18) 0.4699(5) 0.32275(13)
H12A H -0.3862 0.4111 0.3287
H13A H -0.3538 0.4204 0.2943
O9 O 0.14896(18) 0.7733(6) 0.23712(13)
O10 O 0.0000 0.1399(8) 0.2500
loop_
_geom_bond_atom_site_label_1
_geom_bond_atom_site_label_2
_geom_bond_site_symmetry_1
_geom_bond_site_symmetry_2
N1 Sm1 1_555 1_555
Sm1 N4 1_555 1_555
Ru1 C5 1_555 1_555
C1 N2 1_555 1_555
C2 H1 1_555 1_555
C3 C2 1_555 1_555
H2 C3 1_555 1_555
C4 C3 1_555 1_555
H3 C4 1_555 1_555
C5 N4 1_555 1_555
C6 Ru1 1_555 1_555
C7 Ru1 1_555 1_555
C8 N1 1_555 1_555
N2 Ru1 1_555 1_555
N3 C1 1_555 1_555
N5 C6 1_555 1_555
N6 C7 1_555 1_555
N7 O1 1_555 1_555
O1 Sm1 1_555 1_555
O2 Sm1 1_555 1_555
O3 N7 1_555 1_555
O4 Sm1 1_555 1_555
H4 O4 1_555 1_555
H5 O4 1_555 1_555
O5 Sm1 1_555 1_555
H6 O5 1_555 1_555
H7 O5 1_555 1_555
O6 Sm1 1_555 1_555
H8 O6 1_555 1_555
H9 O6 1_555 1_555
O7 Sm1 1_555 1_555
H10 O7 1_555 1_555
H11 O7 1_555 1_555
O8 Sm1 1_555 1_555
H12 O8 1_555 1_555
H13 O8 1_555 1_555
N1A Sm1A 1_555 1_555
Sm1A N4A_2 1_555 1_555
Sm1A_2 N4A 1_555 1_555
Ru1A C8 1_555 1_555
Ru1D N3 1_555 1_555
C1D C1 1_555 1_555
C2D H1D 1_555 1_555
C3D C2D 1_555 1_555
H2D C3D 1_555 1_555
C4D C3D 1_555 1_555
H3D C4D 1_555 1_555
C5A Ru1A 1_555 1_555
C6A Ru1A 1_555 1_555
C7A Ru1A 1_555 1_555
C8A Ru1 1_555 1_555
N2D Ru1D 1_555 1_555
N2A Ru1A 1_555 1_555
N3D Ru1 1_555 1_555
N3E Ru1A 1_555 1_555
N4A C5A 1_555 1_555
N5A C6A 1_555 1_555
N6A C7A 1_555 1_555
N7A O1A 1_555 1_555
O1A Sm1A 1_555 1_555
O2A Sm1A 1_555 1_555
O3A N7A 1_555 1_555
O4A Sm1A 1_555 1_555
H4A O4A 1_555 1_555
H5A O4A 1_555 1_555
O5A Sm1A 1_555 1_555
H6A O5A 1_555 1_555
H7A O5A 1_555 1_555
O6A Sm1A 1_555 1_555
H8A O6A 1_555 1_555
H9A O6A 1_555 1_555
O7A Sm1A 1_555 1_555
H10A O7A 1_555 1_555
H11A O7A 1_555 1_555
O8A Sm1A 1_555 1_555
H12A O8A 1_555 1_555
H13A O8A 1_555 1_555
C2 N2 1_555 1_555
C4 N3 1_555 1_555
N7 O2 1_555 1_555
N1A C8A 1_555 1_555
C1D N2D 1_555 1_555
C1D N3D 1_555 1_555
C2D N2D 1_555 1_555
C4D N3D 1_555 1_555
N7A O2A 1_555 1_555

#END
