
#######################################################################
#
#                 Cambridge Crystallographic Data Centre
#                                CCDC 
#
#######################################################################
#
# If this CIF has been generated from an entry in the Cambridge 
# Structural Database, then it will include bibliographic, chemical, 
# crystal, experimental, refinement or atomic coordinate data resulting 
# from the CCDC's data processing and validation procedures.
#
#######################################################################

data_SEHMUP
_symmetry_cell_setting           monoclinic
_symmetry_space_group_name_H-M   'P 21/c'
_symmetry_Int_Tables_number      14
_space_group_name_Hall           '-P 2ybc'
loop_
_symmetry_equiv_pos_site_id
_symmetry_equiv_pos_as_xyz
1 x,y,z
2 -x,1/2+y,1/2-z
3 -x,-y,-z
4 x,1/2-y,1/2+z
_cell_length_a                   14.0498(12)
_cell_length_b                   20.9140(17)
_cell_length_c                   11.6127(9)
_cell_angle_alpha                90
_cell_angle_beta                 94.684(2)
_cell_angle_gamma                90
_cell_volume                     3400.85
loop_
_atom_site_label
_atom_site_type_symbol
_atom_site_fract_x
_atom_site_fract_y
_atom_site_fract_z
C1 C 0.6196(3) 0.09422(18) 0.7572(3)
H1 H 0.5953 0.1261 0.8024
C2 C 0.7039(3) 0.10584(19) 0.7086(3)
H2 H 0.7349 0.1449 0.7204
C3 C 0.7425(3) 0.0590(2) 0.6418(3)
C4 C 0.6936(3) 0.00160(19) 0.6297(3)
H3 H 0.7179 -0.0316 0.5876
C5 C 0.6088(3) -0.00627(19) 0.6803(3)
H4 H 0.5767 -0.0450 0.6705
C6 C 0.8325(3) 0.0716(2) 0.5847(3)
C7 C 0.8982(3) 0.1151(2) 0.6330(4)
H5 H 0.8874 0.1340 0.7032
C8 C 0.9803(3) 0.1318(2) 0.5798(4)
C9 C 0.9979(3) 0.1006(2) 0.4784(4)
H6 H 1.0532 0.1095 0.4426
C10 C 0.9330(3) 0.0564(2) 0.4304(3)
C11 C 0.8490(3) 0.0413(2) 0.4809(3)
H7 H 0.8056 0.0120 0.4467
C12 C 1.0447(3) 0.1819(2) 0.6351(4)
C13 C 1.0111(4) 0.2262(3) 0.7085(5)
H8 H 0.9472 0.2252 0.7241
C14 C 1.0702(4) 0.2719(3) 0.7593(6)
H9 H 1.0449 0.2996 0.8116
C15 C 1.1903(5) 0.2378(4) 0.6692(6)
H10 H 1.2538 0.2408 0.6528
C16 C 1.1370(4) 0.1884(3) 0.6152(6)
H11 H 1.1651 0.1604 0.5659
C17 C 0.9634(3) 0.05570(19) 0.2312(3)
C18 C 0.8948(3) 0.09846(19) 0.1877(3)
H12 H 0.8415 0.1066 0.2279
C19 C 0.9060(3) 0.12939(19) 0.0833(3)
C20 C 0.9862(3) 0.11440(19) 0.0245(3)
H13 H 0.9936 0.1343 -0.0458
C21 C 1.0547(3) 0.07107(19) 0.0669(3)
C22 C 1.0423(3) 0.04146(19) 0.1737(3)
H14 H 1.0874 0.0124 0.2050
C23 C 1.1404(3) 0.05697(19) 0.0042(3)
C24 C 1.2202(3) 0.0262(2) 0.0549(4)
H15 H 1.2201 0.0121 0.1308
C25 C 1.2994(3) 0.0160(2) -0.0042(3)
H16 H 1.3508 -0.0060 0.0327
C26 C 1.2290(3) 0.0641(2) -0.1634(4)
H17 H 1.2306 0.0767 -0.2400
C27 C 1.1469(3) 0.0754(2) -0.1098(4)
H18 H 1.0954 0.0955 -0.1501
C28 C 0.8362(3) 0.1780(2) 0.0360(4)
C29 C 0.8631(3) 0.2280(2) -0.0316(4)
H19 H 0.9259 0.2306 -0.0512
C30 C 0.7987(3) 0.2739(2) -0.0703(4)
H20 H 0.8195 0.3063 -0.1170
C31 C 0.6824(3) 0.2278(2) 0.0193(5)
H21 H 0.6196 0.2274 0.0390
C32 C 0.7420(3) 0.1783(2) 0.0605(4)
H22 H 0.7182 0.1456 0.1043
C33 C 0.4122(3) 0.14318(16) 0.6390(3)
C34 C 0.4312(3) 0.21333(16) 0.6197(3)
C35 C 0.4721(3) 0.25089(17) 0.7096(3)
H23 H 0.4859 0.2328 0.7822
C36 C 0.4082(3) 0.24117(17) 0.5129(3)
H24 H 0.3797 0.2167 0.4527
C37 C 0.4274(3) 0.30565(16) 0.4951(3)
H25 H 0.4109 0.3242 0.4235
C38 C 0.4709(3) 0.34210(15) 0.5839(3)
C39 C 0.4924(3) 0.31442(17) 0.6924(3)
H26 H 0.5204 0.3389 0.7529
C40 C 0.5036(2) 0.40943(15) 0.5614(3)
N1 N 0.5706(2) 0.03970(13) 0.7430(3)
N2 N 1.1610(4) 0.2795(3) 0.7393(6)
N3 N 1.3060(2) 0.03625(13) -0.1124(3)
N4 N 0.7086(3) 0.2747(2) -0.0451(4)
Ni1 Ni 0.43572(3) 0.033169(18) 0.81105(3)
O1 O 0.9520(2) 0.02177(14) 0.3326(2)
O2 O 0.40900(18) 0.12478(10) 0.74186(19)
O3 O 0.4036(3) 0.10757(12) 0.5514(2)
O4 O 0.5351(2) 0.44066(11) 0.6489(2)
O5 O 0.50257(18) 0.42786(11) 0.4592(2)
O6 O 0.36827(18) -0.00139(11) 0.6589(2)
H27 H 0.3573 0.0331 0.6049
H28 H 0.3583 -0.0466 0.6658
N3_2 N 0.3060(2) 0.03625(13) 0.8876(3)
Ni1_2 Ni 1.43572(3) 0.033169(18) -0.18895(3)
Ni1A Ni 0.56428(3) 0.533169(18) 0.68895(3)
Ni1C Ni 0.43572(3) 0.466831(18) 0.31105(3)
O4A O 0.4649(2) -0.05934(11) 0.8511(2)
O5C O 0.50257(18) 0.07214(11) 0.9592(2)
O7 O 0.4186(2) 0.88639(13) 0.5613(2)
H29 H 0.4329 0.8470 0.5688
H30 H 0.4685 0.9078 0.5502
loop_
_geom_bond_atom_site_label_1
_geom_bond_atom_site_label_2
_geom_bond_site_symmetry_1
_geom_bond_site_symmetry_2
C1 H1 1_555 1_555
C2 C1 1_555 1_555
H2 C2 1_555 1_555
C3 C2 1_555 1_555
C4 C3 1_555 1_555
H3 C4 1_555 1_555
C5 C4 1_555 1_555
H4 C5 1_555 1_555
C6 C3 1_555 1_555
C7 C6 1_555 1_555
H5 C7 1_555 1_555
C8 C7 1_555 1_555
C9 C8 1_555 1_555
H6 C9 1_555 1_555
C10 C9 1_555 1_555
C11 C6 1_555 1_555
H7 C11 1_555 1_555
C12 C8 1_555 1_555
C13 C12 1_555 1_555
H8 C13 1_555 1_555
C14 C13 1_555 1_555
H9 C14 1_555 1_555
C15 H10 1_555 1_555
C16 C12 1_555 1_555
H11 C16 1_555 1_555
C17 C18 1_555 1_555
C18 H12 1_555 1_555
C19 C18 1_555 1_555
C20 C19 1_555 1_555
H13 C20 1_555 1_555
C21 C20 1_555 1_555
C22 C17 1_555 1_555
H14 C22 1_555 1_555
C23 C21 1_555 1_555
C24 C23 1_555 1_555
H15 C24 1_555 1_555
C25 C24 1_555 1_555
H16 C25 1_555 1_555
C26 H17 1_555 1_555
C27 C23 1_555 1_555
H18 C27 1_555 1_555
C28 C19 1_555 1_555
C29 C28 1_555 1_555
H19 C29 1_555 1_555
C30 C29 1_555 1_555
H20 C30 1_555 1_555
C31 H21 1_555 1_555
C32 C28 1_555 1_555
H22 C32 1_555 1_555
C33 C34 1_555 1_555
C34 C35 1_555 1_555
C35 H23 1_555 1_555
C36 C34 1_555 1_555
H24 C36 1_555 1_555
C37 C36 1_555 1_555
H25 C37 1_555 1_555
C38 C37 1_555 1_555
C39 C35 1_555 1_555
H26 C39 1_555 1_555
C40 C38 1_555 1_555
N1 C1 1_555 1_555
N2 C14 1_555 1_555
N3 C25 1_555 1_555
N4 C30 1_555 1_555
Ni1 N1 1_555 1_555
O1 C10 1_555 1_555
O2 C33 1_555 1_555
O3 C33 1_555 1_555
O4 C40 1_555 1_555
O5 C40 1_555 1_555
O6 Ni1 1_555 1_555
H27 O6 1_555 1_555
H28 O6 1_555 1_555
O7 H29 1_555 1_555
H30 O7 1_555 1_555
N3_2 Ni1 1_555 1_555
Ni1_2 N3 1_555 1_555
Ni1A O4 1_555 1_555
Ni1C O5 1_555 1_555
O4A Ni1 1_555 1_555
O5C Ni1 1_555 1_555
C5 N1 1_555 1_555
C10 C11 1_555 1_555
C15 C16 1_555 1_555
C15 N2 1_555 1_555
C17 O1 1_555 1_555
C21 C22 1_555 1_555
C26 C27 1_555 1_555
C26 N3 1_555 1_555
C31 C32 1_555 1_555
C31 N4 1_555 1_555
C38 C39 1_555 1_555
Ni1 O2 1_555 1_555

#END
