
#######################################################################
#
#                 Cambridge Crystallographic Data Centre
#                                CCDC 
#
#######################################################################
#
# If this CIF has been generated from an entry in the Cambridge 
# Structural Database, then it will include bibliographic, chemical, 
# crystal, experimental, refinement or atomic coordinate data resulting 
# from the CCDC's data processing and validation procedures.
#
#######################################################################

data_SEHMAV
_symmetry_cell_setting           monoclinic
_symmetry_space_group_name_H-M   'C 2/c'
_symmetry_Int_Tables_number      15
_space_group_name_Hall           '-C 2yn'
loop_
_symmetry_equiv_pos_site_id
_symmetry_equiv_pos_as_xyz
1 x,y,z
2 -x,y,1/2-z
3 1/2+x,1/2+y,z
4 1/2-x,1/2+y,1/2-z
5 -x,-y,-z
6 x,-y,1/2+z
7 1/2-x,1/2-y,-z
8 1/2+x,1/2-y,1/2+z
_cell_length_a                   26.909(5)
_cell_length_b                   12.170(3)
_cell_length_c                   17.157(3)
_cell_angle_alpha                90
_cell_angle_beta                 124.694(3)
_cell_angle_gamma                90
_cell_volume                     4619.65
loop_
_atom_site_label
_atom_site_type_symbol
_atom_site_fract_x
_atom_site_fract_y
_atom_site_fract_z
C1 C 0.5163(2) 0.8589(4) 0.3334(3)
C2 C 0.5026(2) 0.7967(3) 0.3865(3)
H1 H 0.4796 0.7332 0.3612
C3 C 0.52344(19) 0.8298(3) 0.4776(3)
C4 C 0.5561(2) 0.9254(3) 0.5119(3)
H2 H 0.5691 0.9492 0.5722
C5 C 0.57074(19) 0.9888(3) 0.4586(3)
C6 C 0.54965(19) 0.9530(3) 0.3681(3)
H3 H 0.5583 0.9930 0.3310
C7 C 0.61069(19) 1.0849(3) 0.5038(3)
C8 C 0.6404(2) 1.1041(4) 0.5982(3)
H4 H 0.6362 1.0545 0.6354
C9 C 0.6766(2) 1.1955(4) 0.6405(4)
H5 H 0.6962 1.2045 0.7055
C10 C 0.6574(3) 1.2520(5) 0.5025(4)
H6 H 0.6625 1.3022 0.4668
C11 C 0.6210(3) 1.1606(4) 0.4563(4)
H7 H 0.6034 1.1513 0.3918
C12 C 0.5146(2) 0.7574(3) 0.5395(3)
C13 C 0.4775(2) 0.6671(4) 0.5051(3)
H8 H 0.4553 0.6507 0.4407
C14 C 0.4732(2) 0.6001(4) 0.5668(3)
H9 H 0.4480 0.5390 0.5423
C15 C 0.5385(2) 0.7075(4) 0.6918(3)
H10 H 0.5605 0.7225 0.7564
C16 C 0.5440(2) 0.7788(4) 0.6339(3)
H11 H 0.5679 0.8414 0.6596
C17 C 0.6006(2) 0.3802(4) 0.8208(3)
C18 C 0.63894(19) 0.2925(3) 0.8907(3)
C19 C 0.6643(2) 0.2101(3) 0.8661(3)
H12 H 0.6573 0.2107 0.8064
C20 C 0.6994(2) 0.1287(3) 0.9294(3)
C21 C 0.70914(19) 0.1269(3) 1.0180(3)
H13 H 0.7323 0.0710 1.0606
C22 C 0.68458(19) 0.2079(3) 1.0437(3)
C23 C 0.64889(18) 0.2887(3) 0.9787(3)
H14 H 0.6313 0.3416 0.9948
C24 C 0.6961(2) 0.2072(4) 1.1402(3)
C25 C 0.7268(2) 0.0402(4) 0.9025(4)
N1 N 0.50378(17) 0.6201(3) 0.6601(2)
N2 N 0.68491(16) 1.2713(3) 0.5932(3)
O1 O 0.5000 0.8079(3) 0.2500
O2 O 0.56798(15) 0.4321(2) 0.8412(2)
O3 O 0.60098(15) 0.3979(3) 0.7500(2)
O4 O 0.71200(17) 0.0402(3) 0.8185(3)
O5 O 0.76237(16) -0.0277(3) 0.9603(2)
O6 O 0.67248(16) 0.2796(2) 1.1599(2)
O7 O 0.72890(14) 0.1301(2) 1.1959(2)
Zn1 Zn 0.5000 0.51823(6) 0.7500
Zn2 Zn 0.74228(3) 1.40037(5) 0.66986(4)
O8 O 0.66720(16) 1.4920(3) 0.6536(2)
H15 H 0.6513 1.4541 0.6756
H16 H 0.6803 1.5522 0.6840
O9 O 0.81808(16) 1.3049(2) 0.6884(2)
H17 H 0.8331 1.3052 0.7509
H18 H 0.8414 1.2527 0.7185
C1A C 0.4837(2) 0.8589(4) 0.1666(3)
C2A C 0.4974(2) 0.7967(3) 0.1135(3)
H1A H 0.5204 0.7332 0.1388
C3A C 0.47656(19) 0.8298(3) 0.0224(3)
C4A C 0.4439(2) 0.9254(3) -0.0119(3)
H2A H 0.4309 0.9492 -0.0722
C5A C 0.42926(19) 0.9888(3) 0.0414(3)
C6A C 0.45035(19) 0.9530(3) 0.1319(3)
H3A H 0.4417 0.9930 0.1690
C7A C 0.38931(19) 1.0849(3) -0.0038(3)
C8A C 0.3596(2) 1.1041(4) -0.0982(3)
H4A H 0.3638 1.0545 -0.1354
C9A C 0.3234(2) 1.1955(4) -0.1405(4)
H5A H 0.3038 1.2045 -0.2055
C10A C 0.3426(3) 1.2520(5) -0.0025(4)
H6A H 0.3375 1.3022 0.0332
C11A C 0.3790(3) 1.1606(4) 0.0437(4)
H7A H 0.3966 1.1513 0.1082
C12A C 0.4854(2) 0.7574(3) -0.0395(3)
C13A C 0.5225(2) 0.6671(4) -0.0051(3)
H8A H 0.5447 0.6507 0.0593
C14A C 0.5268(2) 0.6001(4) -0.0668(3)
H9A H 0.5520 0.5390 -0.0423
C15A C 0.4615(2) 0.7075(4) -0.1918(3)
H10A H 0.4395 0.7225 -0.2564
C16A C 0.4560(2) 0.7788(4) -0.1339(3)
H11A H 0.4321 0.8414 -0.1596
C17A C 0.3994(2) 0.3802(4) 0.6792(3)
C18A C 0.36106(19) 0.2925(3) 0.6093(3)
C19A C 0.3357(2) 0.2101(3) 0.6339(3)
H12A H 0.3427 0.2107 0.6936
C20A C 0.3006(2) 0.1287(3) 0.5706(3)
C21A C 0.29086(19) 0.1269(3) 0.4820(3)
H13A H 0.2677 0.0710 0.4394
C22A C 0.31542(19) 0.2079(3) 0.4563(3)
C23A C 0.35111(18) 0.2887(3) 0.5213(3)
H14A H 0.3687 0.3416 0.5052
C24A C 0.3039(2) 0.2072(4) 0.3598(3)
C25A C 0.2732(2) 0.0402(4) 0.5975(4)
N1A N 0.49622(17) 0.6201(3) -0.1601(2)
N1A_2 N 0.49622(17) 0.6201(3) 0.8399(2)
N2A N 0.31509(16) 1.2713(3) -0.0932(3)
O2A O 0.43202(15) 0.4321(2) 0.6588(2)
O3A O 0.39902(15) 0.3979(3) 0.7500(2)
O4A O 0.28800(17) 0.0402(3) 0.6815(3)
O4C O 0.78800(17) 1.5402(3) 0.6815(3)
O4B O 0.21200(17) 1.5402(3) -0.1815(3)
O5A O 0.23763(16) -0.0277(3) 0.5397(2)
O5C O 0.73763(16) 1.4723(3) 0.5397(2)
O5B O 0.26237(16) 1.4723(3) -0.0397(2)
O6A O 0.32752(16) 0.2796(2) 0.3401(2)
O7A O 0.27110(14) 0.1301(2) 0.3041(2)
O7F O 0.77110(14) 1.3699(2) 0.8041(2)
O7G O 0.22890(14) 1.3699(2) -0.3041(2)
Zn1_2 Zn 0.5000 0.51823(6) -0.2500
Zn2A Zn 0.25772(3) 1.40037(5) -0.16986(4)
Zn2C Zn 0.75772(3) -0.09963(5) 0.83014(4)
Zn2F Zn 0.75772(3) 0.09963(5) 1.33014(4)
Zn2B Zn 0.24228(3) -0.09963(5) 0.66986(4)
Zn2G Zn 0.24228(3) 0.09963(5) 0.16986(4)
O8A O 0.33280(16) 1.4920(3) -0.1536(2)
H15A H 0.3487 1.4541 -0.1756
H16A H 0.3197 1.5522 -0.1840
O9A O 0.18192(16) 1.3049(2) -0.1884(2)
H17A H 0.1669 1.3052 -0.2509
H18A H 0.1586 1.2527 -0.2185
loop_
_geom_bond_atom_site_label_1
_geom_bond_atom_site_label_2
_geom_bond_site_symmetry_1
_geom_bond_site_symmetry_2
C1 C2 1_555 1_555
C2 H1 1_555 1_555
C3 C2 1_555 1_555
C4 C3 1_555 1_555
H2 C4 1_555 1_555
C5 C4 1_555 1_555
C6 C1 1_555 1_555
H3 C6 1_555 1_555
C7 C5 1_555 1_555
C8 C7 1_555 1_555
H4 C8 1_555 1_555
C9 C8 1_555 1_555
H5 C9 1_555 1_555
C10 H6 1_555 1_555
C11 C7 1_555 1_555
H7 C11 1_555 1_555
C12 C3 1_555 1_555
C13 C12 1_555 1_555
H8 C13 1_555 1_555
C14 C13 1_555 1_555
H9 C14 1_555 1_555
C15 H10 1_555 1_555
C16 C12 1_555 1_555
H11 C16 1_555 1_555
C17 C18 1_555 1_555
C18 C19 1_555 1_555
C19 H12 1_555 1_555
C20 C19 1_555 1_555
C21 C20 1_555 1_555
H13 C21 1_555 1_555
C22 C21 1_555 1_555
C23 C18 1_555 1_555
H14 C23 1_555 1_555
C24 C22 1_555 1_555
C25 C20 1_555 1_555
N1 C14 1_555 1_555
N2 C9 1_555 1_555
O1 C1 1_555 1_555
O2 C17 1_555 1_555
O3 C17 1_555 1_555
O4 C25 1_555 1_555
O5 C25 1_555 1_555
O6 C24 1_555 1_555
O7 C24 1_555 1_555
Zn1 N1 1_555 1_555
Zn2 N2 1_555 1_555
O8 Zn2 1_555 1_555
H15 O8 1_555 1_555
H16 O8 1_555 1_555
O9 Zn2 1_555 1_555
H17 O9 1_555 1_555
H18 O9 1_555 1_555
C1A O1 1_555 1_555
C2A C1A 1_555 1_555
H1A C2A 1_555 1_555
C3A C2A 1_555 1_555
C4A C3A 1_555 1_555
H2A C4A 1_555 1_555
C5A C4A 1_555 1_555
C6A C1A 1_555 1_555
H3A C6A 1_555 1_555
C7A C5A 1_555 1_555
C8A C7A 1_555 1_555
H4A C8A 1_555 1_555
C9A C8A 1_555 1_555
H5A C9A 1_555 1_555
C10A H6A 1_555 1_555
C11A C7A 1_555 1_555
H7A C11A 1_555 1_555
C12A C3A 1_555 1_555
C13A C12A 1_555 1_555
H8A C13A 1_555 1_555
C14A C13A 1_555 1_555
H9A C14A 1_555 1_555
C15A H10A 1_555 1_555
C16A C12A 1_555 1_555
H11A C16A 1_555 1_555
C17A C18A 1_555 1_555
C18A C19A 1_555 1_555
C19A H12A 1_555 1_555
C20A C19A 1_555 1_555
C21A C20A 1_555 1_555
H13A C21A 1_555 1_555
C22A C21A 1_555 1_555
C23A C18A 1_555 1_555
H14A C23A 1_555 1_555
C24A C22A 1_555 1_555
C25A C20A 1_555 1_555
N1A C14A 1_555 1_555
N1A_2 Zn1 1_555 1_555
N2A C9A 1_555 1_555
O2A Zn1 1_555 1_555
O3A C17A 1_555 1_555
O4A C25A 1_555 1_555
O4C Zn2 1_555 1_555
O4B Zn2A 1_555 1_555
O5A C25A 1_555 1_555
O5C Zn2 1_555 1_555
O5B Zn2A 1_555 1_555
O6A C24A 1_555 1_555
O7A C24A 1_555 1_555
O7F Zn2 1_555 1_555
O7G Zn2A 1_555 1_555
Zn1_2 N1A 1_555 1_555
Zn2A N2A 1_555 1_555
Zn2C O4 1_555 1_555
Zn2F O7 1_555 1_555
Zn2B O4A 1_555 1_555
Zn2G O7A 1_555 1_555
O8A Zn2A 1_555 1_555
H15A O8A 1_555 1_555
H16A O8A 1_555 1_555
O9A Zn2A 1_555 1_555
H17A O9A 1_555 1_555
H18A O9A 1_555 1_555
C5 C6 1_555 1_555
C10 C11 1_555 1_555
C10 N2 1_555 1_555
C15 C16 1_555 1_555
C15 N1 1_555 1_555
C22 C23 1_555 1_555
O2 Zn1 1_555 1_555
O5 Zn2C 1_555 1_555
C5A C6A 1_555 1_555
C10A C11A 1_555 1_555
C10A N2A 1_555 1_555
C15A C16A 1_555 1_555
C15A N1A 1_555 1_555
C17A O2A 1_555 1_555
C22A C23A 1_555 1_555
O5A Zn2B 1_555 1_555

#END
