
#######################################################################
#
#                 Cambridge Crystallographic Data Centre
#                                CCDC 
#
#######################################################################
#
# If this CIF has been generated from an entry in the Cambridge 
# Structural Database, then it will include bibliographic, chemical, 
# crystal, experimental, refinement or atomic coordinate data resulting 
# from the CCDC's data processing and validation procedures.
#
#######################################################################

data_SEHNAV
_symmetry_cell_setting           monoclinic
_symmetry_space_group_name_H-M   'C 2/c'
_symmetry_Int_Tables_number      15
_space_group_name_Hall           '-C 2yn'
loop_
_symmetry_equiv_pos_site_id
_symmetry_equiv_pos_as_xyz
1 x,y,z
2 1/2+x,1/2+y,z
3 -x,y,1/2-z
4 1/2-x,1/2+y,1/2-z
5 -x,-y,-z
6 1/2-x,1/2-y,-z
7 x,-y,1/2+z
8 1/2+x,1/2-y,1/2+z
_cell_length_a                   20.352(4)
_cell_length_b                   6.4118(13)
_cell_length_c                   28.182(6)
_cell_angle_alpha                90
_cell_angle_beta                 107.95(3)
_cell_angle_gamma                90
_cell_volume                     3498.55
loop_
_atom_site_label
_atom_site_type_symbol
_atom_site_fract_x
_atom_site_fract_y
_atom_site_fract_z
N1 N 0.3335(2) 0.2348(7) 0.37563(18)
Nd1 Nd 0.205477(14) 0.29303(4) 0.361363(11)
Ru1 Ru -0.02784(2) 0.47845(6) 0.394568(16)
C1 C -0.0196(2) 0.4049(8) 0.4990(2)
C2 C -0.0846(3) 0.1362(8) 0.4544(2)
H1 H -0.1062 0.0710 0.4242
C3 C -0.0907(3) 0.0543(8) 0.4965(2)
H2 H -0.1140 -0.0710 0.4958
C4 C -0.0612(3) 0.1602(8) 0.5421(2)
H3 H -0.0664 0.1067 0.5714
C5 C 0.0571(3) 0.3069(8) 0.3984(2)
C6 C -0.0009(3) 0.6595(8) 0.3458(2)
C7 C -0.0840(3) 0.2935(9) 0.3411(2)
C8 C 0.3837(3) 0.1469(8) 0.3839(2)
N2 N -0.0472(2) 0.3138(7) 0.45498(18)
N3 N -0.0260(2) 0.3369(7) 0.54324(17)
N4 N 0.1080(2) 0.2210(7) 0.39599(18)
N5 N 0.0173(2) 0.7706(7) 0.32163(19)
N6 N -0.1208(3) 0.1844(8) 0.31135(18)
N7 N 0.2818(2) 0.0736(8) 0.45609(18)
O1 O 0.2456(2) -0.0238(6) 0.41719(15)
O2 O 0.2750(2) 0.2672(6) 0.45571(16)
O3 O 0.3205(2) -0.0212(8) 0.49228(17)
O4 O 0.2254(2) 0.2202(7) 0.28126(16)
H4 H 0.2651 0.2241 0.2781
H5 H 0.1979 0.1842 0.2536
O5 O 0.2559(2) 0.6234(6) 0.34234(17)
H6 H 0.2895 0.6534 0.3325
H7 H 0.2382 0.7365 0.3474
O6 O 0.10137(19) 0.4310(6) 0.29335(14)
H8 H 0.0783 0.5179 0.3039
H9 H 0.0729 0.3352 0.2800
O7 O 0.1821(2) 0.5966(6) 0.40799(15)
H10 H 0.2119 0.6908 0.4119
H11 H 0.1819 0.5570 0.4364
O8 O 0.1489(2) -0.0358(6) 0.32254(15)
H12 H 0.1148 -0.0945 0.3285
H13 H 0.1472 -0.0853 0.2940
N1A N -0.1665(2) 0.7348(7) 0.37563(18)
Nd1A Nd -0.294523(14) 0.79303(4) 0.361363(11)
Nd1A_2 Nd 0.705477(14) -0.20697(4) 0.361363(11)
Ru1A Ru 0.47216(2) -0.02155(6) 0.394568(16)
Ru1D Ru 0.02784(2) 0.52155(6) 0.605432(16)
C1D C 0.0196(2) 0.5951(8) 0.5010(2)
C2D C 0.0846(3) 0.8638(8) 0.5456(2)
H1D H 0.1062 0.9290 0.5758
C3D C 0.0907(3) 0.9457(8) 0.5035(2)
H2D H 0.1140 1.0710 0.5042
C4D C 0.0612(3) 0.8398(8) 0.4579(2)
H3D H 0.0664 0.8933 0.4286
C5A C 0.5571(3) -0.1931(8) 0.3984(2)
C6A C 0.4991(3) 0.1595(8) 0.3458(2)
C7A C 0.4160(3) -0.2065(9) 0.3411(2)
C8A C -0.1163(3) 0.6469(8) 0.3839(2)
N2D N 0.0472(2) 0.6862(7) 0.54502(18)
N2A N 0.4528(2) -0.1862(7) 0.45498(18)
N3D N 0.0260(2) 0.6631(7) 0.45676(17)
N3E N 0.5260(2) 0.1631(7) 0.45676(17)
N4A N 0.6080(2) -0.2790(7) 0.39599(18)
N4A_2 N -0.3920(2) 0.7210(7) 0.39599(18)
N5A N 0.5173(2) 0.2706(7) 0.32163(19)
N6A N 0.3792(3) -0.3156(8) 0.31135(18)
N7A N -0.2182(2) 0.5736(8) 0.45609(18)
O1A O -0.2544(2) 0.4762(6) 0.41719(15)
O2A O -0.2250(2) 0.7672(6) 0.45571(16)
O3A O -0.1795(2) 0.4788(8) 0.49228(17)
O4A O -0.2746(2) 0.7202(7) 0.28126(16)
H4A H -0.2349 0.7241 0.2781
H5A H -0.3021 0.6842 0.2536
O5A O -0.2441(2) 1.1234(6) 0.34234(17)
H6A H -0.2105 1.1534 0.3325
H7A H -0.2618 1.2365 0.3474
O6A O -0.39863(19) 0.9310(6) 0.29335(14)
H8A H -0.4217 1.0179 0.3039
H9A H -0.4271 0.8352 0.2800
O7A O -0.3179(2) 1.0966(6) 0.40799(15)
H10A H -0.2881 1.1908 0.4119
H11A H -0.3181 1.0570 0.4364
O8A O -0.3511(2) 0.4642(6) 0.32254(15)
H12A H -0.3852 0.4055 0.3285
H13A H -0.3528 0.4147 0.2940
O9 O 0.1481(2) 0.7775(7) 0.23587(16)
O10 O 0.0000 0.1325(9) 0.2500
loop_
_geom_bond_atom_site_label_1
_geom_bond_atom_site_label_2
_geom_bond_site_symmetry_1
_geom_bond_site_symmetry_2
N1 Nd1 1_555 1_555
Nd1 N4 1_555 1_555
Ru1 C5 1_555 1_555
C1 N2 1_555 1_555
C2 H1 1_555 1_555
C3 C2 1_555 1_555
H2 C3 1_555 1_555
C4 C3 1_555 1_555
H3 C4 1_555 1_555
C5 N4 1_555 1_555
C6 Ru1 1_555 1_555
C7 Ru1 1_555 1_555
C8 N1 1_555 1_555
N2 Ru1 1_555 1_555
N3 C1 1_555 1_555
N5 C6 1_555 1_555
N6 C7 1_555 1_555
N7 O1 1_555 1_555
O1 Nd1 1_555 1_555
O2 Nd1 1_555 1_555
O3 N7 1_555 1_555
O4 Nd1 1_555 1_555
H4 O4 1_555 1_555
H5 O4 1_555 1_555
O5 Nd1 1_555 1_555
H6 O5 1_555 1_555
H7 O5 1_555 1_555
O6 Nd1 1_555 1_555
H8 O6 1_555 1_555
H9 O6 1_555 1_555
O7 Nd1 1_555 1_555
H10 O7 1_555 1_555
H11 O7 1_555 1_555
O8 Nd1 1_555 1_555
H12 O8 1_555 1_555
H13 O8 1_555 1_555
N1A Nd1A 1_555 1_555
Nd1A N4A_2 1_555 1_555
Nd1A_2 N4A 1_555 1_555
Ru1A C8 1_555 1_555
Ru1D N3 1_555 1_555
C1D C1 1_555 1_555
C2D H1D 1_555 1_555
C3D C2D 1_555 1_555
H2D C3D 1_555 1_555
C4D C3D 1_555 1_555
H3D C4D 1_555 1_555
C5A Ru1A 1_555 1_555
C6A Ru1A 1_555 1_555
C7A Ru1A 1_555 1_555
C8A Ru1 1_555 1_555
N2D Ru1D 1_555 1_555
N2A Ru1A 1_555 1_555
N3D Ru1 1_555 1_555
N3E Ru1A 1_555 1_555
N4A C5A 1_555 1_555
N5A C6A 1_555 1_555
N6A C7A 1_555 1_555
N7A O1A 1_555 1_555
O1A Nd1A 1_555 1_555
O2A Nd1A 1_555 1_555
O3A N7A 1_555 1_555
O4A Nd1A 1_555 1_555
H4A O4A 1_555 1_555
H5A O4A 1_555 1_555
O5A Nd1A 1_555 1_555
H6A O5A 1_555 1_555
H7A O5A 1_555 1_555
O6A Nd1A 1_555 1_555
H8A O6A 1_555 1_555
H9A O6A 1_555 1_555
O7A Nd1A 1_555 1_555
H10A O7A 1_555 1_555
H11A O7A 1_555 1_555
O8A Nd1A 1_555 1_555
H12A O8A 1_555 1_555
H13A O8A 1_555 1_555
C2 N2 1_555 1_555
C4 N3 1_555 1_555
N7 O2 1_555 1_555
N1A C8A 1_555 1_555
C1D N2D 1_555 1_555
C1D N3D 1_555 1_555
C2D N2D 1_555 1_555
C4D N3D 1_555 1_555
N7A O2A 1_555 1_555

#END
