
#######################################################################
#
#                 Cambridge Crystallographic Data Centre
#                                CCDC 
#
#######################################################################
#
# If this CIF has been generated from an entry in the Cambridge 
# Structural Database, then it will include bibliographic, chemical, 
# crystal, experimental, refinement or atomic coordinate data resulting 
# from the CCDC's data processing and validation procedures.
#
#######################################################################

data_SEHRON
_symmetry_cell_setting           triclinic
_symmetry_space_group_name_H-M   'P -1'
_symmetry_Int_Tables_number      2
_space_group_name_Hall           '-P 1'
loop_
_symmetry_equiv_pos_site_id
_symmetry_equiv_pos_as_xyz
1 x,y,z
2 -x,-y,-z
_cell_length_a                   10.667(2)
_cell_length_b                   11.147(2)
_cell_length_c                   20.207(4)
_cell_angle_alpha                90.983(4)
_cell_angle_beta                 92.150(4)
_cell_angle_gamma                108.128(3)
_cell_volume                     2280.79
loop_
_atom_site_label
_atom_site_type_symbol
_atom_site_fract_x
_atom_site_fract_y
_atom_site_fract_z
W1 W 0.39509(8) 0.58275(8) 0.17981(4)
W2 W 0.75102(8) 0.84428(7) 0.41832(4)
W3 W 0.62556(9) 0.40819(8) 0.21387(4)
W4 W 0.80561(8) 1.05723(8) 0.29547(4)
W5 W 0.77131(8) 0.95148(8) 0.12334(4)
W6 W 0.68694(9) 0.63699(8) 0.08364(4)
W7 W 0.93213(8) 0.56123(8) 0.28358(4)
W8 W 1.02452(8) 0.89510(8) 0.32663(4)
W9 W 0.48011(9) 0.89477(9) 0.22106(4)
W10 W 0.42633(9) 0.67923(9) 0.34145(5)
W11 W 0.99234(8) 0.79187(8) 0.15392(4)
W12 W 0.66041(9) 0.50880(9) 0.37486(5)
P1 P 0.7129(6) 0.7341(5) 0.2513(3)
O1 O 0.5676(13) 0.7275(13) 0.2483(8)
O2 O 0.7903(16) 0.8387(13) 0.3007(8)
O3 O 0.7276(15) 0.6086(14) 0.2707(8)
O4 O 0.7643(16) 0.7642(14) 0.1834(7)
O5 O 0.8085(16) 0.4291(14) 0.2331(8)
O6 O 0.3074(14) 0.6486(14) 0.3979(7)
O7 O 0.2580(15) 0.4945(16) 0.1367(9)
O8 O 1.0527(16) 0.4965(15) 0.2957(9)
O9 O 0.7050(15) 0.8103(15) 0.0637(8)
O10 O 0.746(2) 0.8690(18) 0.4989(9)
O11 O 0.3368(17) 0.5788(15) 0.2678(8)
O12 O 0.8354(19) 1.2113(16) 0.3065(8)
O13 O 0.5997(15) 0.3855(16) 0.3032(8)
O14 O 0.3759(16) 0.7457(15) 0.1748(7)
O15 O 0.3996(17) 0.8175(16) 0.2990(8)
O16 O 0.9390(14) 0.9260(16) 0.1201(9)
O17 O 0.8318(16) 0.5020(16) 0.3585(8)
O18 O 0.9763(14) 1.0426(14) 0.3133(9)
O19 O 0.9968(16) 0.7170(14) 0.3256(8)
O20 O 1.1366(17) 0.8182(17) 0.1182(9)
O21 O 0.8756(14) 0.6866(14) 0.0878(8)
O22 O 0.9346(14) 0.8792(14) 0.4062(8)
O23 O 1.0367(15) 0.8852(14) 0.2344(8)
O24 O 0.5724(13) 0.7888(13) 0.3885(7)
O25 O 0.7877(15) 1.0701(16) 0.0718(8)
O26 O 1.1840(16) 0.9603(16) 0.3531(8)
O27 O 0.5710(18) 0.2570(14) 0.1833(9)
O28 O 0.9758(15) 0.6470(14) 0.2047(8)
O29 O 0.8321(15) 1.0372(16) 0.2045(8)
O30 O 0.6586(15) 0.5713(13) 0.0069(7)
O31 O 0.6809(16) 0.4997(15) 0.1368(8)
O32 O 0.6240(14) 0.9941(14) 0.2756(8)
O33 O 0.5071(15) 0.5547(14) 0.3582(8)
O34 O 0.3912(15) 0.9949(14) 0.2033(8)
O35 O 0.7621(14) 1.0013(13) 0.3828(8)
O36 O 0.7367(16) 0.6693(13) 0.4111(8)
O37 O 0.6268(13) 0.4164(13) 0.4426(7)
O38 O 0.4740(14) 0.4601(13) 0.2058(7)
O39 O 0.6001(15) 0.9208(18) 0.1525(8)
O40 O 0.5191(15) 0.6222(15) 0.1141(8)
Cu1 Cu 0.2851(3) 0.7209(2) 0.50515(14)
Cu2 Cu 0.3539(4) 0.1049(4) 0.11734(17)
N1 N 0.2374(17) 0.1736(17) 0.1659(10)
C1 C 0.140(2) 0.207(2) 0.1351(13)
C2 C 0.115(2) 0.182(2) 0.0615(12)
H1 H 0.1756 0.1383 0.0451
H2 H 0.1299 0.2616 0.0391
H3 H 0.0238 0.1281 0.0526
C3 C 0.069(2) 0.267(2) 0.1725(15)
H4 H -0.0032 0.2890 0.1534
C4 C 0.200(2) 0.2576(19) 0.2668(11)
C5 C 0.233(2) 0.296(2) 0.3357(11)
H5 H 0.1719 0.3389 0.3518
H6 H 0.3236 0.3546 0.3399
H7 H 0.2268 0.2220 0.3622
C6 C 0.265(2) 0.196(2) 0.2287(13)
H8 H 0.3327 0.1683 0.2490
N2 N 0.1067(19) 0.2936(18) 0.2353(11)
H9 H 0.0671 0.3382 0.2580
N3 N 0.4103(17) 0.8819(15) 0.5074(9)
C7 C 0.5011(19) 0.9358(18) 0.5538(10)
C8 C 0.501(2) 0.860(2) 0.6162(12)
H10 H 0.4307 0.7785 0.6114
H11 H 0.5867 0.8446 0.6222
H12 H 0.4865 0.9070 0.6548
C9 C 0.410(2) 0.949(2) 0.4509(12)
H13 H 0.3478 0.9135 0.4154
N4 N 0.439(2) 0.048(2) 0.0484(9)
C10 C 0.532(2) 0.122(3) 0.0137(13)
C11 C 0.574(3) 0.261(2) 0.0272(13)
H14 H 0.5224 0.2803 0.0626
H15 H 0.5595 0.3036 -0.0131
H16 H 0.6680 0.2907 0.0408
C12 C 0.407(2) -0.075(2) 0.0348(12)
H17 H 0.3411 -0.1320 0.0592
N5 N 0.1165(16) 0.5950(16) 0.5014(8)
C13 C 0.0079(19) 0.6195(18) 0.5184(10)
C14 C 0.020(2) 0.7503(18) 0.5360(10)
H18 H 0.1126 0.8025 0.5344
H19 H -0.0340 0.7814 0.5045
H20 H -0.0106 0.7548 0.5808
C15 C 0.111(2) 0.478(2) 0.4837(12)
H21 H 0.1897 0.4615 0.4723
W1_2 W 0.39509(8) 1.58275(8) 0.17981(4)
W2_2 W 0.75102(8) 1.84428(7) 0.41832(4)
W3_2 W 0.62556(9) 1.40819(8) 0.21387(4)
W4_2 W 0.80561(8) 2.05723(8) 0.29547(4)
W5_2 W 0.77131(8) 1.95148(8) 0.12334(4)
W6_2 W 0.68694(9) 1.63699(8) 0.08364(4)
W7_2 W 0.93213(8) 1.56123(8) 0.28358(4)
W8_2 W 1.02452(8) 1.89510(8) 0.32663(4)
W9_2 W 0.48011(9) 1.89477(9) 0.22106(4)
W10_2 W 0.42633(9) 1.67923(9) 0.34145(5)
W11_2 W 0.99234(8) 1.79187(8) 0.15392(4)
W12_2 W 0.66041(9) 1.50880(9) 0.37486(5)
P1_2 P 0.7129(6) 1.7341(5) 0.2513(3)
O1_2 O 0.5676(13) 1.7275(13) 0.2483(8)
O2_2 O 0.7903(16) 1.8387(13) 0.3007(8)
O3_2 O 0.7276(15) 1.6086(14) 0.2707(8)
O4_2 O 0.7643(16) 1.7642(14) 0.1834(7)
O5_2 O 0.8085(16) 1.4291(14) 0.2331(8)
O6_2 O 0.3074(14) 1.6486(14) 0.3979(7)
O6A O 0.6926(14) 1.3514(14) 0.6021(7)
O7_2 O 0.2580(15) 1.4945(16) 0.1367(9)
O8_2 O 1.0527(16) 1.4965(15) 0.2957(9)
O9_2 O 0.7050(15) 1.8103(15) 0.0637(8)
O10_2 O 0.746(2) 1.8690(18) 0.4989(9)
O11_2 O 0.3368(17) 1.5788(15) 0.2678(8)
O12_2 O 0.8354(19) 2.2113(16) 0.3065(8)
O13_2 O 0.5997(15) 1.3855(16) 0.3032(8)
O14_2 O 0.3759(16) 1.7457(15) 0.1748(7)
O15_2 O 0.3996(17) 1.8175(16) 0.2990(8)
O16_2 O 0.9390(14) 1.9260(16) 0.1201(9)
O17_2 O 0.8318(16) 1.5020(16) 0.3585(8)
O18_2 O 0.9763(14) 2.0426(14) 0.3133(9)
O19_2 O 0.9968(16) 1.7170(14) 0.3256(8)
O20_2 O 1.1366(17) 1.8182(17) 0.1182(9)
O21_2 O 0.8756(14) 1.6866(14) 0.0878(8)
O22_2 O 0.9346(14) 1.8792(14) 0.4062(8)
O23_2 O 1.0367(15) 1.8852(14) 0.2344(8)
O24_2 O 0.5724(13) 1.7888(13) 0.3885(7)
O25_2 O 0.7877(15) 2.0701(16) 0.0718(8)
O26_2 O 1.1840(16) 1.9603(16) 0.3531(8)
O27_2 O 0.5710(18) 1.2570(14) 0.1833(9)
O28_2 O 0.9758(15) 1.6470(14) 0.2047(8)
O29_2 O 0.8321(15) 2.0372(16) 0.2045(8)
O30_2 O 0.6586(15) 1.5713(13) 0.0069(7)
O31_2 O 0.6809(16) 1.4997(15) 0.1368(8)
O32_2 O 0.6240(14) 1.9941(14) 0.2756(8)
O33_2 O 0.5071(15) 1.5547(14) 0.3582(8)
O34_2 O 0.3912(15) -0.0051(14) 0.2033(8)
O34_3 O 0.3912(15) 1.9949(14) 0.2033(8)
O35_2 O 0.7621(14) 2.0013(13) 0.3828(8)
O36_2 O 0.7367(16) 1.6693(13) 0.4111(8)
O37A O 0.3732(13) 0.5836(13) 0.5574(7)
O37_2 O 0.6268(13) 1.4164(13) 0.4426(7)
O38_2 O 0.4740(14) 1.4601(13) 0.2058(7)
O39_2 O 0.6001(15) 1.9208(18) 0.1525(8)
O40_2 O 0.5191(15) 1.6222(15) 0.1141(8)
Cu1A Cu 0.7149(3) 0.2791(2) 0.49485(14)
Cu1A_2 Cu 0.7149(3) 1.2791(2) 0.49485(14)
Cu1A_3 Cu -0.2851(3) 0.2791(2) 0.49485(14)
Cu1_2 Cu 0.2851(3) 1.7209(2) 0.50515(14)
Cu2_2 Cu 0.3539(4) 1.1049(4) 0.11734(17)
Cu2A Cu 0.6461(4) -0.1049(4) -0.11734(17)
Cu2_3 Cu 0.3539(4) 2.1049(4) 0.11734(17)
N1_2 N 0.2374(17) 1.1736(17) 0.1659(10)
C1_2 C 0.140(2) 1.207(2) 0.1351(13)
C2_2 C 0.115(2) 1.182(2) 0.0615(12)
H1_2 H 0.1756 1.1383 0.0451
H2_2 H 0.1299 1.2616 0.0391
H3_2 H 0.0238 1.1281 0.0526
C3_2 C 0.069(2) 1.267(2) 0.1725(15)
H4_2 H -0.0032 1.2890 0.1534
C4_2 C 0.200(2) 1.2576(19) 0.2668(11)
C5_2 C 0.233(2) 1.296(2) 0.3357(11)
H5_2 H 0.1719 1.3389 0.3518
H6_2 H 0.3236 1.3546 0.3399
H7_2 H 0.2268 1.2220 0.3622
C6_2 C 0.265(2) 1.196(2) 0.2287(13)
H8_2 H 0.3327 1.1683 0.2490
N2_2 N 0.1067(19) 1.2936(18) 0.2353(11)
H9_2 H 0.0671 1.3382 0.2580
N3A N 0.5897(17) 1.1181(15) 0.4926(9)
C7A C 0.4989(19) 1.0642(18) 0.4462(10)
C8A C 0.499(2) 1.140(2) 0.3838(12)
H10A H 0.5693 1.2215 0.3886
H11A H 0.4133 1.1554 0.3778
H12A H 0.5135 1.0930 0.3452
C9A C 0.590(2) 1.051(2) 0.5491(12)
H13A H 0.6522 1.0865 0.5846
N4A N 0.561(2) -0.048(2) -0.0484(9)
N4_2 N 0.439(2) 1.048(2) 0.0484(9)
C10A C 0.468(2) -0.122(3) -0.0137(13)
C11A C 0.426(3) -0.261(2) -0.0272(13)
H14A H 0.4776 -0.2803 -0.0626
H15A H 0.4405 -0.3036 0.0131
H16A H 0.3320 -0.2907 -0.0408
C12A C 0.593(2) 0.075(2) -0.0348(12)
H17A H 0.6589 0.1320 -0.0592
N5A N -0.1165(16) 0.4050(16) 0.4986(8)
N5A_2 N 0.8835(16) 1.4050(16) 0.4986(8)
C13A C -0.0079(19) 0.3805(18) 0.4816(10)
C14A C -0.020(2) 0.2497(18) 0.4640(10)
H18A H -0.1126 0.1975 0.4656
H19A H 0.0340 0.2186 0.4955
H20A H 0.0106 0.2452 0.4192
C15A C -0.111(2) 0.522(2) 0.5163(12)
H21A H -0.1897 0.5385 0.5277
loop_
_geom_bond_atom_site_label_1
_geom_bond_atom_site_label_2
_geom_bond_site_symmetry_1
_geom_bond_site_symmetry_2
W1 O1 1_555 1_555
W2 O2 1_555 1_555
W3 O3 1_555 1_555
W4 O2 1_555 1_555
W5 O4 1_555 1_555
W6 O4 1_555 1_555
W7 O3 1_555 1_555
W8 O2 1_555 1_555
W9 O1 1_555 1_555
W10 O1 1_555 1_555
W11 O4 1_555 1_555
W12 O3 1_555 1_555
P1 O1 1_555 1_555
O2 P1 1_555 1_555
O3 P1 1_555 1_555
O4 P1 1_555 1_555
O5 W3 1_555 1_555
O6 W10 1_555 1_555
O7 W1 1_555 1_555
O8 W7 1_555 1_555
O9 W5 1_555 1_555
O10 W2 1_555 1_555
O11 W1 1_555 1_555
O12 W4 1_555 1_555
O13 W3 1_555 1_555
O14 W1 1_555 1_555
O15 W9 1_555 1_555
O16 W5 1_555 1_555
O17 W7 1_555 1_555
O18 W4 1_555 1_555
O19 W7 1_555 1_555
O20 W11 1_555 1_555
O21 W6 1_555 1_555
O22 W2 1_555 1_555
O23 W8 1_555 1_555
O24 W2 1_555 1_555
O25 W5 1_555 1_555
O26 W8 1_555 1_555
O27 W3 1_555 1_555
O28 W7 1_555 1_555
O29 W4 1_555 1_555
O30 W6 1_555 1_555
O31 W3 1_555 1_555
O32 W4 1_555 1_555
O33 W10 1_555 1_555
O34 W9 1_555 1_555
O35 W2 1_555 1_555
O36 W2 1_555 1_555
O37 W12 1_555 1_555
O38 W1 1_555 1_555
O39 W5 1_555 1_555
O40 W1 1_555 1_555
Cu1 O6 1_555 1_555
Cu2 O27 1_555 1_555
N1 Cu2 1_555 1_555
C1 N1 1_555 1_555
C2 C1 1_555 1_555
H1 C2 1_555 1_555
H2 C2 1_555 1_555
H3 C2 1_555 1_555
C3 C1 1_555 1_555
H4 C3 1_555 1_555
C4 C5 1_555 1_555
C5 H5 1_555 1_555
H6 C5 1_555 1_555
H7 C5 1_555 1_555
C6 N1 1_555 1_555
H8 C6 1_555 1_555
N2 C3 1_555 1_555
H9 N2 1_555 1_555
N3 Cu1 1_555 1_555
C7 N3 1_555 1_555
C8 C7 1_555 1_555
H10 C8 1_555 1_555
H11 C8 1_555 1_555
H12 C8 1_555 1_555
C9 N3 1_555 1_555
H13 C9 1_555 1_555
N4 Cu2 1_555 1_555
C10 N4 1_555 1_555
C11 C10 1_555 1_555
H14 C11 1_555 1_555
H15 C11 1_555 1_555
H16 C11 1_555 1_555
C12 N4 1_555 1_555
H17 C12 1_555 1_555
N5 Cu1 1_555 1_555
C13 N5 1_555 1_555
C14 C13 1_555 1_555
H18 C14 1_555 1_555
H19 C14 1_555 1_555
H20 C14 1_555 1_555
C15 N5 1_555 1_555
H21 C15 1_555 1_555
W1_2 O1_2 1_555 1_555
W2_2 O2_2 1_555 1_555
W3_2 O3_2 1_555 1_555
W4_2 O2_2 1_555 1_555
W5_2 O4_2 1_555 1_555
W6_2 O4_2 1_555 1_555
W7_2 O3_2 1_555 1_555
W8_2 O2_2 1_555 1_555
W9_2 O1_2 1_555 1_555
W10_2 O1_2 1_555 1_555
W11_2 O4_2 1_555 1_555
W12_2 O3_2 1_555 1_555
P1_2 O1_2 1_555 1_555
O2_2 P1_2 1_555 1_555
O3_2 P1_2 1_555 1_555
O4_2 P1_2 1_555 1_555
O5_2 W3_2 1_555 1_555
O6_2 W10_2 1_555 1_555
O6A Cu1A_2 1_555 1_555
O7_2 W1_2 1_555 1_555
O8_2 W7_2 1_555 1_555
O9_2 W5_2 1_555 1_555
O10_2 W2_2 1_555 1_555
O11_2 W1_2 1_555 1_555
O12_2 W4_2 1_555 1_555
O13_2 W3_2 1_555 1_555
O14_2 W1_2 1_555 1_555
O15_2 W9_2 1_555 1_555
O16_2 W5_2 1_555 1_555
O17_2 W7_2 1_555 1_555
O18_2 W4_2 1_555 1_555
O19_2 W7_2 1_555 1_555
O20_2 W11_2 1_555 1_555
O21_2 W6_2 1_555 1_555
O22_2 W2_2 1_555 1_555
O23_2 W8_2 1_555 1_555
O24_2 W2_2 1_555 1_555
O25_2 W5_2 1_555 1_555
O26_2 W8_2 1_555 1_555
O27_2 W3_2 1_555 1_555
O28_2 W7_2 1_555 1_555
O29_2 W4_2 1_555 1_555
O30_2 W6_2 1_555 1_555
O31_2 W3_2 1_555 1_555
O32_2 W4_2 1_555 1_555
O33_2 W10_2 1_555 1_555
O34_2 Cu2 1_555 1_555
O34_3 W9_2 1_555 1_555
O35_2 W2_2 1_555 1_555
O36_2 W2_2 1_555 1_555
O37A Cu1 1_555 1_555
O37_2 W12_2 1_555 1_555
O38_2 W1_2 1_555 1_555
O39_2 W5_2 1_555 1_555
O40_2 W1_2 1_555 1_555
Cu1A O37 1_555 1_555
Cu1A_2 O37_2 1_555 1_555
Cu1A_3 N5A 1_555 1_555
Cu1_2 O6_2 1_555 1_555
Cu2_2 O34 1_555 1_555
Cu2A N4A 1_555 1_555
Cu2_3 O34_3 1_555 1_555
N1_2 Cu2_2 1_555 1_555
C1_2 N1_2 1_555 1_555
C2_2 C1_2 1_555 1_555
H1_2 C2_2 1_555 1_555
H2_2 C2_2 1_555 1_555
H3_2 C2_2 1_555 1_555
C3_2 C1_2 1_555 1_555
H4_2 C3_2 1_555 1_555
C4_2 C5_2 1_555 1_555
C5_2 H5_2 1_555 1_555
H6_2 C5_2 1_555 1_555
H7_2 C5_2 1_555 1_555
C6_2 N1_2 1_555 1_555
H8_2 C6_2 1_555 1_555
N2_2 C3_2 1_555 1_555
H9_2 N2_2 1_555 1_555
N3A Cu1A_2 1_555 1_555
C7A C9 1_555 1_555
C8A C7A 1_555 1_555
H10A C8A 1_555 1_555
H11A C8A 1_555 1_555
H12A C8A 1_555 1_555
C9A C7 1_555 1_555
H13A C9A 1_555 1_555
N4A C10A 1_555 1_555
N4_2 Cu2_2 1_555 1_555
C10A C12 1_555 1_555
C11A C10A 1_555 1_555
H14A C11A 1_555 1_555
H15A C11A 1_555 1_555
H16A C11A 1_555 1_555
C12A C10 1_555 1_555
H17A C12A 1_555 1_555
N5A C13A 1_555 1_555
N5A_2 Cu1A_2 1_555 1_555
C13A C15 1_555 1_555
C14A C13A 1_555 1_555
H18A C14A 1_555 1_555
H19A C14A 1_555 1_555
H20A C14A 1_555 1_555
C15A C13 1_555 1_555
H21A C15A 1_555 1_555
W3 O38 1_555 1_555
W4 O35 1_555 1_555
W5 O29 1_555 1_555
W6 O9 1_555 1_555
W6 O31 1_555 1_555
W6 O40 1_555 1_555
W7 O5 1_555 1_555
W8 O18 1_555 1_555
W8 O19 1_555 1_555
W8 O22 1_555 1_555
W9 O14 1_555 1_555
W9 O32 1_555 1_555
W9 O39 1_555 1_555
W10 O11 1_555 1_555
W10 O15 1_555 1_555
W10 O24 1_555 1_555
W11 O16 1_555 1_555
W11 O21 1_555 1_555
W11 O23 1_555 1_555
W11 O28 1_555 1_555
W12 O13 1_555 1_555
W12 O17 1_555 1_555
W12 O33 1_555 1_555
W12 O36 1_555 1_555
C4 C6 1_555 1_555
C4 N2 1_555 1_555
W3_2 O38_2 1_555 1_555
W4_2 O35_2 1_555 1_555
W5_2 O29_2 1_555 1_555
W6_2 O9_2 1_555 1_555
W6_2 O31_2 1_555 1_555
W6_2 O40_2 1_555 1_555
W7_2 O5_2 1_555 1_555
W8_2 O18_2 1_555 1_555
W8_2 O19_2 1_555 1_555
W8_2 O22_2 1_555 1_555
W9_2 O14_2 1_555 1_555
W9_2 O32_2 1_555 1_555
W9_2 O39_2 1_555 1_555
W10_2 O11_2 1_555 1_555
W10_2 O15_2 1_555 1_555
W10_2 O24_2 1_555 1_555
W11_2 O16_2 1_555 1_555
W11_2 O21_2 1_555 1_555
W11_2 O23_2 1_555 1_555
W11_2 O28_2 1_555 1_555
W12_2 O13_2 1_555 1_555
W12_2 O17_2 1_555 1_555
W12_2 O33_2 1_555 1_555
W12_2 O36_2 1_555 1_555
O27_2 Cu2_2 1_555 1_555
C4_2 C6_2 1_555 1_555
C4_2 N2_2 1_555 1_555
N3A C7A 1_555 1_555
N3A C9A 1_555 1_555
N4A C12A 1_555 1_555
N5A C15A 1_555 1_555

#END
