
#######################################################################
#
#                 Cambridge Crystallographic Data Centre
#                                CCDC 
#
#######################################################################
#
# If this CIF has been generated from an entry in the Cambridge 
# Structural Database, then it will include bibliographic, chemical, 
# crystal, experimental, refinement or atomic coordinate data resulting 
# from the CCDC's data processing and validation procedures.
#
#######################################################################

data_SEHSOO
_symmetry_cell_setting           monoclinic
_symmetry_space_group_name_H-M   'P 21/n'
_symmetry_Int_Tables_number      14
_space_group_name_Hall           '-P 2yn'
loop_
_symmetry_equiv_pos_site_id
_symmetry_equiv_pos_as_xyz
1 x,y,z
2 1/2-x,1/2+y,1/2-z
3 -x,-y,-z
4 1/2+x,1/2-y,1/2+z
_cell_length_a                   10.844(2)
_cell_length_b                   15.585(3)
_cell_length_c                   10.961(2)
_cell_angle_alpha                90
_cell_angle_beta                 100.557(4)
_cell_angle_gamma                90
_cell_volume                     1821.09
loop_
_atom_site_label
_atom_site_type_symbol
_atom_site_fract_x
_atom_site_fract_y
_atom_site_fract_z
Ho1 Ho 1.14293(2) 0.102027(14) 0.89700(2)
O1 O 0.9365(3) 0.0621(2) 0.8368(3)
O2 O 0.8293(3) 0.0106(3) 0.9746(4)
O3 O 0.3637(3) 0.0644(3) 0.9094(4)
O4 O 0.2885(3) 0.1702(3) 0.7876(4)
O5 O 0.5489(4) 0.3368(3) 0.5595(4)
O6 O 0.7432(3) 0.3006(3) 0.5536(4)
O7 O 1.1447(4) 0.0109(3) 0.7284(4)
O8 O 1.0447(3) 0.2253(3) 0.7975(4)
C1 C 0.8393(4) 0.0565(3) 0.8836(5)
C2 C 0.3777(5) 0.1218(3) 0.8345(5)
C3 C 0.6429(5) 0.2906(3) 0.5958(5)
C4 C 0.7261(5) 0.1076(3) 0.8248(5)
C5 C 0.6093(5) 0.0900(3) 0.8555(5)
H1 H 0.6012 0.0467 0.9118
C6 C 0.5047(5) 0.1379(3) 0.8009(5)
C7 C 0.5175(5) 0.2025(3) 0.7167(5)
H2 H 0.4476 0.2339 0.6800
C8 C 0.6338(5) 0.2205(3) 0.6869(5)
C9 C 0.7376(5) 0.1731(3) 0.7416(5)
H3 H 0.8158 0.1854 0.7223
C10 C 1.0869(6) -0.0519(4) 0.6822(6)
H4 H 1.0323 -0.0790 0.7261
C11 C 1.0298(10) -0.1587(5) 0.5200(8)
H5 H 0.9790 -0.1803 0.5762
H6 H 1.0885 -0.2020 0.5057
H7 H 0.9772 -0.1436 0.4427
C12 C 1.1808(8) -0.0423(6) 0.5009(7)
H8 H 1.2211 0.0061 0.5454
H9 H 1.1328 -0.0235 0.4230
H10 H 1.2432 -0.0827 0.4860
C13 C 0.9626(10) 0.3816(6) 0.8118(11)
H11 H 0.9402 0.3748 0.8920
H12 H 0.8932 0.3649 0.7487
H13 H 0.9832 0.4406 0.8000
C14 C 1.1124(10) 0.3425(6) 0.6497(8)
H14 H 1.1822 0.3119 0.6281
H15 H 1.1268 0.4031 0.6451
H16 H 1.0372 0.3275 0.5930
N1 N 1.0980(6) -0.0830(4) 0.5737(6)
S1 S 1.09617(16) 0.31518(10) 0.80177(17)
Ho1B Ho 0.85707(2) -0.102027(14) 1.10300(2)
Ho1_2 Ho 0.14293(2) 0.102027(14) 0.89700(2)
Ho1C Ho 0.64293(2) 0.397973(14) 0.39700(2)
O2B O 1.1707(3) -0.0106(3) 1.0254(4)
O3_2 O 1.3637(3) 0.0644(3) 0.9094(4)
O4_2 O 1.2885(3) 0.1702(3) 0.7876(4)
O5C O 1.0489(4) 0.1632(3) 1.0595(4)
O6C O 1.2432(3) 0.1994(3) 1.0536(4)
loop_
_geom_bond_atom_site_label_1
_geom_bond_atom_site_label_2
_geom_bond_site_symmetry_1
_geom_bond_site_symmetry_2
Ho1 O1 1_555 1_555
O1 C1 1_555 1_555
O2 C1 1_555 1_555
O3 C2 1_555 1_555
O4 C2 1_555 1_555
O5 C3 1_555 1_555
O6 C3 1_555 1_555
O7 Ho1 1_555 1_555
O8 Ho1 1_555 1_555
C1 C4 1_555 1_555
C2 C6 1_555 1_555
C3 C8 1_555 1_555
C4 C5 1_555 1_555
C5 H1 1_555 1_555
C6 C5 1_555 1_555
C7 C6 1_555 1_555
H2 C7 1_555 1_555
C8 C7 1_555 1_555
C9 C4 1_555 1_555
H3 C9 1_555 1_555
C10 O7 1_555 1_555
H4 C10 1_555 1_555
C11 H5 1_555 1_555
H6 C11 1_555 1_555
H7 C11 1_555 1_555
C12 H8 1_555 1_555
H9 C12 1_555 1_555
H10 C12 1_555 1_555
C13 H11 1_555 1_555
H12 C13 1_555 1_555
H13 C13 1_555 1_555
C14 H14 1_555 1_555
H15 C14 1_555 1_555
H16 C14 1_555 1_555
N1 C10 1_555 1_555
S1 O8 1_555 1_555
Ho1B O2 1_555 1_555
Ho1_2 O3 1_555 1_555
Ho1C O5 1_555 1_555
O2B Ho1 1_555 1_555
O3_2 Ho1 1_555 1_555
O4_2 Ho1 1_555 1_555
O5C Ho1 1_555 1_555
O6C Ho1 1_555 1_555
O4 Ho1_2 1_555 1_555
O6 Ho1C 1_555 1_555
C8 C9 1_555 1_555
C11 N1 1_555 1_555
C12 N1 1_555 1_555
C13 S1 1_555 1_555
C14 S1 1_555 1_555

#END
