
#######################################################################
#
#                 Cambridge Crystallographic Data Centre
#                                CCDC 
#
#######################################################################
#
# If this CIF has been generated from an entry in the Cambridge 
# Structural Database, then it will include bibliographic, chemical, 
# crystal, experimental, refinement or atomic coordinate data resulting 
# from the CCDC's data processing and validation procedures.
#
#######################################################################

data_SEHSUU
_symmetry_cell_setting           monoclinic
_symmetry_space_group_name_H-M   'P 21/n'
_symmetry_Int_Tables_number      14
_space_group_name_Hall           '-P 2yn'
loop_
_symmetry_equiv_pos_site_id
_symmetry_equiv_pos_as_xyz
1 x,y,z
2 1/2-x,1/2+y,1/2-z
3 -x,-y,-z
4 1/2+x,1/2-y,1/2+z
_cell_length_a                   10.8158(9)
_cell_length_b                   15.5514(13)
_cell_length_c                   10.9331(9)
_cell_angle_alpha                90
_cell_angle_beta                 100.557(2)
_cell_angle_gamma                90
_cell_volume                     1807.83
loop_
_atom_site_label
_atom_site_type_symbol
_atom_site_fract_x
_atom_site_fract_y
_atom_site_fract_z
Er1 Er 0.35697(3) 0.10199(2) 0.60277(3)
O1 O 0.5622(4) 0.0629(3) 0.6631(5)
O2 O 0.6706(5) 0.0103(3) 0.5250(5)
O3 O 1.1365(5) 0.0635(4) 0.5906(5)
O4 O 1.2121(5) 0.1705(4) 0.7117(5)
O5 O 0.9518(5) 0.3376(4) 0.9410(5)
O6 O 0.7565(5) 0.3010(4) 0.9466(5)
O7 O 0.4538(5) 0.2245(3) 0.7015(5)
O8 O 0.3553(6) 0.0119(4) 0.7701(5)
C1 C 0.6603(7) 0.0556(5) 0.6155(7)
C2 C 1.1223(7) 0.1225(5) 0.6641(7)
C3 C 0.8570(8) 0.2918(5) 0.9039(7)
C4 C 0.7729(7) 0.1080(5) 0.6751(6)
C5 C 0.8914(7) 0.0904(5) 0.6456(6)
H1 H 0.8998 0.0464 0.5901
C6 C 0.9953(7) 0.1378(5) 0.6983(6)
C7 C 0.9819(7) 0.2028(5) 0.7825(7)
H2 H 1.0520 0.2344 0.8189
C8 C 0.8661(7) 0.2212(5) 0.8132(7)
C9 C 0.7626(7) 0.1736(5) 0.7586(7)
H3 H 0.6843 0.1859 0.7782
C10 C 0.5348(12) 0.3805(7) 0.6861(13)
H4 H 0.5556 0.3739 0.6050
H5 H 0.6052 0.3633 0.7481
H6 H 0.5149 0.4396 0.6990
C11 C 0.3906(12) 0.3407(8) 0.8513(9)
H7 H 0.3209 0.3101 0.8735
H8 H 0.3774 0.4014 0.8580
H9 H 0.4667 0.3245 0.9064
C12 C 0.4122(9) -0.0502(7) 0.8164(8)
H10 H 0.4665 -0.0775 0.7720
C13 C 0.3189(10) -0.0420(8) 1.0007(9)
H11 H 0.2784 0.0069 0.9571
H12 H 0.3671 -0.0239 1.0790
H13 H 0.2564 -0.0828 1.0149
C14 C 0.4694(12) -0.1565(7) 0.9785(10)
H14 H 0.5207 -0.1777 0.9221
H15 H 0.4108 -0.2002 0.9922
H16 H 0.5219 -0.1416 1.0562
N1 N 0.4021(8) -0.0820(5) 0.9262(7)
S1 S 0.4034(2) 0.31529(16) 0.6978(2)
Er1B Er 0.64303(3) -0.10199(2) 0.39723(3)
Er1_2 Er 1.35697(3) 0.10199(2) 0.60277(3)
Er1C Er 0.85697(3) 0.39801(2) 1.10277(3)
O2B O 0.3294(5) -0.0103(3) 0.4750(5)
O3_2 O 0.1365(5) 0.0635(4) 0.5906(5)
O4_2 O 0.2121(5) 0.1705(4) 0.7117(5)
O5C O 0.4518(5) 0.1624(4) 0.4410(5)
O6C O 0.2565(5) 0.1990(4) 0.4466(5)
loop_
_geom_bond_atom_site_label_1
_geom_bond_atom_site_label_2
_geom_bond_site_symmetry_1
_geom_bond_site_symmetry_2
Er1 O1 1_555 1_555
O1 C1 1_555 1_555
O2 C1 1_555 1_555
O3 C2 1_555 1_555
O4 C2 1_555 1_555
O5 C3 1_555 1_555
O6 C3 1_555 1_555
O7 Er1 1_555 1_555
O8 Er1 1_555 1_555
C1 C4 1_555 1_555
C2 C6 1_555 1_555
C3 C8 1_555 1_555
C4 C5 1_555 1_555
C5 H1 1_555 1_555
C6 C5 1_555 1_555
C7 C6 1_555 1_555
H2 C7 1_555 1_555
C8 C7 1_555 1_555
C9 C4 1_555 1_555
H3 C9 1_555 1_555
C10 H4 1_555 1_555
H5 C10 1_555 1_555
H6 C10 1_555 1_555
C11 H7 1_555 1_555
H8 C11 1_555 1_555
H9 C11 1_555 1_555
C12 O8 1_555 1_555
H10 C12 1_555 1_555
C13 H11 1_555 1_555
H12 C13 1_555 1_555
H13 C13 1_555 1_555
C14 H14 1_555 1_555
H15 C14 1_555 1_555
H16 C14 1_555 1_555
N1 C12 1_555 1_555
S1 O7 1_555 1_555
Er1B O2 1_555 1_555
Er1_2 O3 1_555 1_555
Er1C O5 1_555 1_555
O2B Er1 1_555 1_555
O3_2 Er1 1_555 1_555
O4_2 Er1 1_555 1_555
O5C Er1 1_555 1_555
O6C Er1 1_555 1_555
O4 Er1_2 1_555 1_555
O6 Er1C 1_555 1_555
C8 C9 1_555 1_555
C10 S1 1_555 1_555
C11 S1 1_555 1_555
C13 N1 1_555 1_555
C14 N1 1_555 1_555

#END
