
#######################################################################
#
#                 Cambridge Crystallographic Data Centre
#                                CCDC 
#
#######################################################################
#
# If this CIF has been generated from an entry in the Cambridge 
# Structural Database, then it will include bibliographic, chemical, 
# crystal, experimental, refinement or atomic coordinate data resulting 
# from the CCDC's data processing and validation procedures.
#
#######################################################################

data_SEHSEE01
_symmetry_cell_setting           rhombohedral
_symmetry_space_group_name_H-M   'R -3 c'
_symmetry_Int_Tables_number      167
_space_group_name_Hall           '-R 3 2"c'
loop_
_symmetry_equiv_pos_site_id
_symmetry_equiv_pos_as_xyz
1 x,y,z
2 -y,x-y,z
3 -x+y,-x,z
4 y,x,1/2-z
5 -x,-x+y,1/2-z
6 x-y,-y,1/2-z
7 2/3+x,1/3+y,1/3+z
8 2/3-y,1/3+x-y,1/3+z
9 2/3-x+y,1/3-x,1/3+z
10 2/3+y,1/3+x,5/6-z
11 2/3-x,1/3-x+y,5/6-z
12 2/3+x-y,1/3-y,5/6-z
13 1/3+x,2/3+y,2/3+z
14 1/3-y,2/3+x-y,2/3+z
15 1/3-x+y,2/3-x,2/3+z
16 1/3+y,2/3+x,1/6-z
17 1/3-x,2/3-x+y,1/6-z
18 1/3+x-y,2/3-y,1/6-z
19 -x,-y,-z
20 y,-x+y,-z
21 x-y,x,-z
22 -y,-x,1/2+z
23 x,x-y,1/2+z
24 -x+y,y,1/2+z
25 1/3-x,2/3-y,2/3-z
26 1/3+y,2/3-x+y,2/3-z
27 1/3+x-y,2/3+x,2/3-z
28 1/3-y,2/3-x,1/6+z
29 1/3+x,2/3+x-y,1/6+z
30 1/3-x+y,2/3+y,1/6+z
31 2/3-x,1/3-y,1/3-z
32 2/3+y,1/3-x+y,1/3-z
33 2/3+x-y,1/3+x,1/3-z
34 2/3-y,1/3-x,5/6+z
35 2/3+x,1/3+x-y,5/6+z
36 2/3-x+y,1/3+y,5/6+z
_cell_length_a                   18.5930(17)
_cell_length_b                   18.5930(17)
_cell_length_c                   22.866(4)
_cell_angle_alpha                90
_cell_angle_beta                 90
_cell_angle_gamma                120
_cell_volume                     6845.73
loop_
_atom_site_label
_atom_site_type_symbol
_atom_site_fract_x
_atom_site_fract_y
_atom_site_fract_z
W1 W -0.15639(5) 1.05738(5) 1.00168(3)
W2 W 0.12424(5) 1.03691(5) 0.87337(3)
Cu1 Cu 0.2515(2) 1.0000 0.7500
P1 P 0.0000 1.0000 1.0000
N1 N 0.2045(9) 0.9011(9) 0.7959(6)
O1 O 0.1815(11) 1.0523(11) 0.8139(8)
O2 O -0.1526(16) 1.0310(10) 1.0801(7)
O3 O 0.0000 1.0000 0.9298(15)
O4 O -0.0246(12) 1.0634(14) 0.9813(9)
O5 O -0.2305(12) 1.0842(15) 1.0018(10)
O6 O 0.0653(11) 1.0917(11) 0.8568(15)
O7 O -0.1271(11) 1.0682(13) 0.9206(7)
O8 O -0.0586(12) 1.1622(16) 1.0130(8)
C1 C 0.2486(14) 0.8820(13) 0.8305(9)
H1 H 0.3063 0.9133 0.8291
C2 C 0.1233(13) 0.8522(13) 0.7967(9)
H2 H 0.0907 0.8622 0.7708
O4A O -0.0634(14) 0.9120(18) 0.9813(9)
O4B O 0.0880(18) 1.0246(12) 0.9813(9)
O3R O 0.0000 1.0000 1.0702(15)
O4R O 0.0246(12) 0.9366(14) 1.0187(9)
O4S O 0.0634(14) 1.0880(18) 1.0187(9)
O4T O -0.0880(18) 0.9754(12) 1.0187(9)
N1X N 0.1288(9) 0.7656(9) 0.8708(6)
C1X C 0.0847(14) 0.7847(13) 0.8362(9)
H1X H 0.0270 0.7534 0.8376
C2X C 0.2100(13) 0.8145(13) 0.8700(9)
H2X H 0.2426 0.8045 0.8959
W1A W -0.05738(5) 0.78623(7) 1.00168(3)
W2A W -0.03691(5) 1.08733(7) 0.87337(3)
Cu1A Cu 0.0000 1.2515(2) 0.7500
N1A N 0.0989(9) 1.3034(13) 0.7959(6)
O1A O -0.0523(11) 1.1292(16) 0.8139(8)
O2A O -0.0310(10) 0.8164(19) 1.0801(7)
O5A O -0.0842(15) 0.6853(19) 1.0018(10)
O6A O -0.0917(11) 0.9736(16) 0.8568(15)
O7A O -0.0682(13) 0.8047(17) 0.9206(7)
O8A O -0.1622(16) 0.7792(20) 1.0130(8)
C1A C 0.1180(13) 1.3666(19) 0.8305(9)
H1A H 0.0867 1.3930 0.8291
C2A C 0.1478(13) 1.2711(18) 0.7967(9)
H2A H 0.1378 1.2285 0.7708
N1Y N 0.2344(9) 1.3633(13) 0.8708(6)
C1Y C 0.2153(13) 1.3001(19) 0.8362(9)
H1Y H 0.2466 1.2737 0.8376
C2Y C 0.1855(13) 1.3956(18) 0.8700(9)
H2Y H 0.1955 1.4382 0.8959
W1B W 0.21377(7) 1.15639(5) 1.00168(3)
W2B W -0.08733(7) 0.87576(5) 0.87337(3)
Cu1B Cu -0.2515(2) 0.7485(2) 0.7500
N1B N -0.3034(13) 0.7955(9) 0.7959(6)
O1B O -0.1292(16) 0.8185(11) 0.8139(8)
O2B O 0.1836(19) 1.1526(16) 1.0801(7)
O5B O 0.3147(19) 1.2305(12) 1.0018(10)
O6B O 0.0264(16) 0.9347(11) 0.8568(15)
O7B O 0.1953(17) 1.1271(11) 0.9206(7)
O8B O 0.2208(20) 1.0586(12) 1.0130(8)
C1B C -0.3666(19) 0.7514(14) 0.8305(9)
H1B H -0.3930 0.6937 0.8291
C2B C -0.2711(18) 0.8767(13) 0.7967(9)
H2B H -0.2285 0.9093 0.7708
N1Z N -0.3633(13) 0.8712(9) 0.8708(6)
C1Z C -0.3001(19) 0.9153(14) 0.8362(9)
H1Z H -0.2737 0.9730 0.8376
C2Z C -0.3956(18) 0.7900(13) 0.8700(9)
H2Z H -0.4382 0.7574 0.8959
W1C W 0.05738(5) 0.84361(5) 0.49832(3)
W2C W 0.03691(5) 1.12424(5) 0.62663(3)
O1C O 0.0523(11) 1.1815(11) 0.6861(8)
O2C O 0.0310(10) 0.8474(16) 0.4199(7)
O5C O 0.0842(15) 0.7695(12) 0.4982(10)
O6C O 0.0917(11) 1.0653(11) 0.6432(15)
O7C O 0.0682(13) 0.8729(11) 0.5794(7)
O8C O 0.1622(16) 0.9414(12) 0.4870(8)
W1D W 0.15639(5) 1.21377(7) 0.49832(3)
W2D W -0.12424(5) 0.91267(7) 0.62663(3)
O1D O -0.1815(11) 0.8708(16) 0.6861(8)
O2D O 0.1526(16) 1.1836(19) 0.4199(7)
O5D O 0.2305(12) 1.3147(19) 0.4982(10)
O6D O -0.0653(11) 1.0264(16) 0.6432(15)
O7D O 0.1271(11) 1.1953(17) 0.5794(7)
O8D O 0.0586(12) 1.2208(20) 0.4870(8)
W1E W -0.21377(7) 0.94262(5) 0.49832(3)
W2E W 0.08733(7) 0.96309(5) 0.62663(3)
O1E O 0.1292(16) 0.9477(11) 0.6861(8)
O2E O -0.1836(19) 0.9690(10) 0.4199(7)
O5E O -0.3147(19) 0.9158(15) 0.4982(10)
O6E O -0.0264(16) 0.9083(11) 0.6432(15)
O7E O -0.1953(17) 0.9318(13) 0.5794(7)
O8E O -0.2208(20) 0.8378(16) 0.4870(8)
W1R W 0.15639(5) 0.94262(5) 0.99832(3)
W1S W 0.05738(5) 1.21377(7) 0.99832(3)
W1T W -0.21377(7) 0.84361(5) 0.99832(3)
W1U W -0.05738(5) 1.15639(5) 0.50168(3)
W1V W -0.15639(5) 0.78623(7) 0.50168(3)
W1W W 0.21377(7) 1.05738(5) 0.50168(3)
W2R W -0.12424(5) 0.96309(5) 1.12663(3)
W2S W 0.03691(5) 0.91267(7) 1.12663(3)
W2T W 0.08733(7) 1.12424(5) 1.12663(3)
W2U W -0.03691(5) 0.87576(5) 0.37337(3)
W2V W 0.12424(5) 1.08733(7) 0.37337(3)
W2W W -0.08733(7) 1.03691(5) 0.37337(3)
Cu1X Cu 0.0818(2) 0.6667 0.9167
Cu1Y Cu 0.3333 1.4152(2) 0.9167
Cu1Z Cu -0.4152(2) 0.9182(2) 0.9167
N1C N -0.0989(9) 1.2045(9) 0.7041(6)
N1D N -0.2045(9) 0.6966(13) 0.7041(6)
N1E N 0.3034(13) 1.0989(9) 0.7041(6)
O2R O 0.1526(16) 0.9690(10) 0.9199(7)
O2S O 0.0310(10) 1.1836(19) 0.9199(7)
O2T O -0.1836(19) 0.8474(16) 0.9199(7)
O2U O -0.0310(10) 1.1526(16) 0.5801(7)
O2V O -0.1526(16) 0.8164(19) 0.5801(7)
O2W O 0.1836(19) 1.0310(10) 0.5801(7)
O3C O 0.0000 1.0000 0.5702(15)
O4C O 0.0634(14) 0.9754(12) 0.5187(9)
O4D O 0.0246(12) 1.0880(18) 0.5187(9)
O4E O -0.0880(18) 0.9366(14) 0.5187(9)
O4U O -0.0634(14) 1.0246(12) 0.4813(9)
O4V O -0.0246(12) 0.9120(18) 0.4813(9)
O4W O 0.0880(18) 1.0634(14) 0.4813(9)
O8R O 0.0586(12) 0.8378(16) 0.9870(8)
O8S O 0.1622(16) 1.2208(20) 0.9870(8)
O8T O -0.2208(20) 0.9414(12) 0.9870(8)
O8U O -0.1622(16) 1.0586(12) 0.5130(8)
O8V O -0.0586(12) 0.7792(20) 0.5130(8)
O8W O 0.2208(20) 1.1622(16) 0.5130(8)
loop_
_geom_bond_atom_site_label_1
_geom_bond_atom_site_label_2
_geom_bond_site_symmetry_1
_geom_bond_site_symmetry_2
W1 O2 1_555 1_555
W2 O1 1_555 1_555
Cu1 N1 1_555 1_555
P1 O3 1_555 1_555
N1 C1 1_555 1_555
O1 Cu1 1_555 1_555
O2 W2R 1_555 1_555
O3 W2 1_555 1_555
O4 W1 1_555 1_555
O5 W1 1_555 1_555
O6 W2 1_555 1_555
O7 W1 1_555 1_555
O8 W1 1_555 1_555
C1 H1 1_555 1_555
C2 N1 1_555 1_555
H2 C2 1_555 1_555
O4A P1 1_555 1_555
O4B P1 1_555 1_555
O3R P1 1_555 1_555
O4R P1 1_555 1_555
O4S P1 1_555 1_555
O4T W1 1_555 1_555
N1X C1X 1_555 1_555
C1X C2 1_555 1_555
H1X C1X 1_555 1_555
C2X C1 1_555 1_555
H2X C2X 1_555 1_555
W1A O4A 1_555 1_555
W2A O3 1_555 1_555
Cu1A N1A 1_555 1_555
N1A C1A 1_555 1_555
O1A W2A 1_555 1_555
O2A W1A 1_555 1_555
O5A W1A 1_555 1_555
O6A W2A 1_555 1_555
O7A W1A 1_555 1_555
O8A W1A 1_555 1_555
C1A H1A 1_555 1_555
C2A N1A 1_555 1_555
H2A C2A 1_555 1_555
N1Y C1Y 1_555 1_555
C1Y C2A 1_555 1_555
H1Y C1Y 1_555 1_555
C2Y C1A 1_555 1_555
H2Y C2Y 1_555 1_555
W1B O4B 1_555 1_555
W2B O3 1_555 1_555
Cu1B N1B 1_555 1_555
N1B C1B 1_555 1_555
O1B W2B 1_555 1_555
O2B W1B 1_555 1_555
O5B W1B 1_555 1_555
O6B W2 1_555 1_555
O7B W2 1_555 1_555
O8B W1B 1_555 1_555
C1B H1B 1_555 1_555
C2B N1B 1_555 1_555
H2B C2B 1_555 1_555
N1Z C1Z 1_555 1_555
C1Z C2B 1_555 1_555
H1Z C1Z 1_555 1_555
C2Z C1B 1_555 1_555
H2Z C2Z 1_555 1_555
W1C O2C 1_555 1_555
W2C O1C 1_555 1_555
O1C Cu1A 1_555 1_555
O2C W2U 1_555 1_555
O5C W1C 1_555 1_555
O6C W2C 1_555 1_555
O7C W1C 1_555 1_555
O8C W1C 1_555 1_555
W1D O2D 1_555 1_555
W2D O1D 1_555 1_555
O1D Cu1B 1_555 1_555
O2D W2V 1_555 1_555
O5D W1D 1_555 1_555
O6D W2C 1_555 1_555
O7D W2C 1_555 1_555
O8D W1D 1_555 1_555
W1E O2E 1_555 1_555
W2E O6C 1_555 1_555
O1E Cu1 1_555 1_555
O2E W2W 1_555 1_555
O5E W1E 1_555 1_555
O6E W2D 1_555 1_555
O7E W2D 1_555 1_555
O8E W1E 1_555 1_555
W1R O4B 1_555 1_555
W1S O4 1_555 1_555
W1T O4A 1_555 1_555
W1U O8D 1_555 1_555
W1V O8E 1_555 1_555
W1W O8C 1_555 1_555
W2R O3R 1_555 1_555
W2S O3R 1_555 1_555
W2T O3R 1_555 1_555
Cu1X N1X 1_555 1_555
Cu1Y N1Y 1_555 1_555
Cu1Z N1Z 1_555 1_555
N1C Cu1A 1_555 1_555
N1D Cu1B 1_555 1_555
N1E Cu1 1_555 1_555
O2R W2 1_555 1_555
O2S W2A 1_555 1_555
O2T W2B 1_555 1_555
O2U W2C 1_555 1_555
O2V W2D 1_555 1_555
O2W W2E 1_555 1_555
O3C W2C 1_555 1_555
O4C W1C 1_555 1_555
O4D W1D 1_555 1_555
O4E W1E 1_555 1_555
O4U W1E 1_555 1_555
O4V W1C 1_555 1_555
O4W W1D 1_555 1_555
O8R W1A 1_555 1_555
O8S W1B 1_555 1_555
O8T W1 1_555 1_555
O8U W1E 1_555 1_555
O8V W1C 1_555 1_555
O8W W1D 1_555 1_555
P1 O4 1_555 1_555
P1 O4T 1_555 1_555
O4 O4S 1_555 1_555
O4 O4T 1_555 1_555
O6 W2A 1_555 1_555
O7 W2A 1_555 1_555
O8 W1S 1_555 1_555
O4A O4R 1_555 1_555
O4A O4T 1_555 1_555
O4B O4R 1_555 1_555
O4B O4S 1_555 1_555
O4R W1A 1_555 1_555
O4R W1R 1_555 1_555
O4S W1B 1_555 1_555
O4S W1S 1_555 1_555
O4T W1T 1_555 1_555
N1X C2X 1_555 1_555
Cu1A O1A 1_555 1_555
O2A W2S 1_555 1_555
O6A W2B 1_555 1_555
O7A W2B 1_555 1_555
O8A W1T 1_555 1_555
N1Y C2Y 1_555 1_555
W1B O7B 1_555 1_555
W2B O6B 1_555 1_555
Cu1B O1B 1_555 1_555
O2B W2T 1_555 1_555
O8B W1R 1_555 1_555
N1Z C2Z 1_555 1_555
O7C W2E 1_555 1_555
W1D O7D 1_555 1_555
W2D O6D 1_555 1_555
W2D O3C 1_555 1_555
W1E O7E 1_555 1_555
W2E O1E 1_555 1_555
W2E O6E 1_555 1_555
W2E O3C 1_555 1_555
W1R O2R 1_555 1_555
W1R O8R 1_555 1_555
W1S O2S 1_555 1_555
W1S O8S 1_555 1_555
W1T O2T 1_555 1_555
W1T O8T 1_555 1_555
W1U O2U 1_555 1_555
W1U O4D 1_555 1_555
W1U O4U 1_555 1_555
W1U O8U 1_555 1_555
W1V O2V 1_555 1_555
W1V O4E 1_555 1_555
W1V O4V 1_555 1_555
W1V O8V 1_555 1_555
W1W O2W 1_555 1_555
W1W O4C 1_555 1_555
W1W O4W 1_555 1_555
W1W O8W 1_555 1_555
O4C O4V 1_555 1_555
O4C O4W 1_555 1_555
O4D O4U 1_555 1_555
O4D O4W 1_555 1_555
O4E O4U 1_555 1_555
O4E O4V 1_555 1_555

#END
