
#######################################################################
#
#                 Cambridge Crystallographic Data Centre
#                                CCDC 
#
#######################################################################
#
# If this CIF has been generated from an entry in the Cambridge 
# Structural Database, then it will include bibliographic, chemical, 
# crystal, experimental, refinement or atomic coordinate data resulting 
# from the CCDC's data processing and validation procedures.
#
#######################################################################

data_SEHTEF
_symmetry_cell_setting           monoclinic
_symmetry_space_group_name_H-M   'P 21/n'
_symmetry_Int_Tables_number      14
_space_group_name_Hall           '-P 2yn'
loop_
_symmetry_equiv_pos_site_id
_symmetry_equiv_pos_as_xyz
1 x,y,z
2 1/2-x,1/2+y,1/2-z
3 -x,-y,-z
4 1/2+x,1/2-y,1/2+z
_cell_length_a                   10.8388(12)
_cell_length_b                   15.5918(18)
_cell_length_c                   10.9421(13)
_cell_angle_alpha                90
_cell_angle_beta                 100.513(2)
_cell_angle_gamma                90
_cell_volume                     1818.13
loop_
_atom_site_label
_atom_site_type_symbol
_atom_site_fract_x
_atom_site_fract_y
_atom_site_fract_z
Y1 Y -0.14338(3) 0.10209(2) 0.60265(4)
O1 O 0.0626(2) 0.06292(16) 0.6621(3)
O2 O 0.1712(2) 0.01004(17) 0.5259(3)
O3 O 0.6358(2) 0.06373(17) 0.5905(3)
O4 O 0.7115(2) 0.16988(18) 0.7123(3)
O5 O 0.4506(2) 0.33720(18) 0.9403(3)
O6 O 0.2567(2) 0.30088(17) 0.9455(3)
O7 O -0.0466(2) 0.22540(17) 0.7018(3)
O8 O -0.1441(3) 0.0123(2) 0.7707(3)
C1 C 0.1599(3) 0.0562(2) 0.6158(4)
C2 C 0.6217(3) 0.1218(2) 0.6642(4)
C3 C 0.3563(4) 0.2909(3) 0.9040(4)
C4 C 0.2732(3) 0.1081(2) 0.6756(4)
C5 C 0.3909(3) 0.0905(2) 0.6453(4)
H1 H 0.3988 0.0472 0.5888
C6 C 0.4961(3) 0.1374(2) 0.6994(4)
C7 C 0.4816(3) 0.2019(2) 0.7822(4)
H2 H 0.5515 0.2335 0.8187
C8 C 0.3658(3) 0.2210(2) 0.8127(4)
C9 C 0.2622(3) 0.1732(2) 0.7588(4)
H3 H 0.1842 0.1851 0.7788
C10 C 0.0354(6) 0.3812(3) 0.6896(7)
H4 H 0.0579 0.3750 0.6092
H5 H 0.1047 0.3642 0.7526
H6 H 0.0148 0.4401 0.7022
C11 C -0.1104(6) 0.3416(4) 0.8502(5)
H7 H -0.1798 0.3110 0.8728
H8 H -0.1244 0.4022 0.8557
H9 H -0.0345 0.3262 0.9058
C12 C -0.0869(5) -0.0518(3) 0.8162(5)
H10 H -0.0341 -0.0797 0.7711
C13 C -0.1808(5) -0.0416(4) 0.9998(5)
H11 H -0.2209 0.0069 0.9550
H12 H -0.1329 -0.0228 1.0777
H13 H -0.2433 -0.0819 1.0146
C14 C -0.0295(6) -0.1574(3) 0.9778(6)
H14 H 0.0211 -0.1782 0.9206
H15 H -0.0876 -0.2012 0.9917
H16 H 0.0236 -0.1428 1.0552
S1 S -0.09698(12) 0.31522(8) 0.69851(14)
N1 N -0.0975(4) -0.0826(3) 0.9267(4)
Y1B Y 0.14338(3) -0.10209(2) 0.39735(4)
Y1_2 Y 0.85662(3) 0.10209(2) 0.60265(4)
Y1C Y 0.35662(3) 0.39791(2) 1.10265(4)
O2B O -0.1712(2) -0.01004(17) 0.4741(3)
O3_2 O -0.3642(2) 0.06373(17) 0.5905(3)
O4_2 O -0.2885(2) 0.16988(18) 0.7123(3)
O5C O -0.0494(2) 0.16280(18) 0.4403(3)
O6C O -0.2433(2) 0.19912(17) 0.4455(3)
loop_
_geom_bond_atom_site_label_1
_geom_bond_atom_site_label_2
_geom_bond_site_symmetry_1
_geom_bond_site_symmetry_2
Y1 O1 1_555 1_555
O1 C1 1_555 1_555
O2 C1 1_555 1_555
O3 C2 1_555 1_555
O4 C2 1_555 1_555
O5 C3 1_555 1_555
O6 C3 1_555 1_555
O7 Y1 1_555 1_555
O8 Y1 1_555 1_555
C1 C4 1_555 1_555
C2 C6 1_555 1_555
C3 C8 1_555 1_555
C4 C5 1_555 1_555
C5 H1 1_555 1_555
C6 C5 1_555 1_555
C7 C6 1_555 1_555
H2 C7 1_555 1_555
C8 C7 1_555 1_555
C9 C4 1_555 1_555
H3 C9 1_555 1_555
C10 H4 1_555 1_555
H5 C10 1_555 1_555
H6 C10 1_555 1_555
C11 H7 1_555 1_555
H8 C11 1_555 1_555
H9 C11 1_555 1_555
C12 O8 1_555 1_555
H10 C12 1_555 1_555
C13 H11 1_555 1_555
H12 C13 1_555 1_555
H13 C13 1_555 1_555
C14 H14 1_555 1_555
H15 C14 1_555 1_555
H16 C14 1_555 1_555
S1 O7 1_555 1_555
N1 C12 1_555 1_555
Y1B O2 1_555 1_555
Y1_2 O3 1_555 1_555
Y1C O5 1_555 1_555
O2B Y1 1_555 1_555
O3_2 Y1 1_555 1_555
O4_2 Y1 1_555 1_555
O5C Y1 1_555 1_555
O6C Y1 1_555 1_555
O4 Y1_2 1_555 1_555
O6 Y1C 1_555 1_555
C8 C9 1_555 1_555
C10 S1 1_555 1_555
C11 S1 1_555 1_555
C13 N1 1_555 1_555
C14 N1 1_555 1_555

#END
