
#######################################################################
#
#                 Cambridge Crystallographic Data Centre
#                                CCDC 
#
#######################################################################
#
# If this CIF has been generated from an entry in the Cambridge 
# Structural Database, then it will include bibliographic, chemical, 
# crystal, experimental, refinement or atomic coordinate data resulting 
# from the CCDC's data processing and validation procedures.
#
#######################################################################

data_SEJCER
_symmetry_cell_setting           monoclinic
_symmetry_space_group_name_H-M   'P 21/n'
_symmetry_Int_Tables_number      14
_space_group_name_Hall           '-P 2yn'
loop_
_symmetry_equiv_pos_site_id
_symmetry_equiv_pos_as_xyz
1 x,y,z
2 1/2-x,1/2+y,1/2-z
3 -x,-y,-z
4 1/2+x,1/2-y,1/2+z
_cell_length_a                   8.6460(8)
_cell_length_b                   35.144(3)
_cell_length_c                   12.0483(10)
_cell_angle_alpha                90
_cell_angle_beta                 92.381(4)
_cell_angle_gamma                90
_cell_volume                     3657.78
loop_
_atom_site_label
_atom_site_type_symbol
_atom_site_fract_x
_atom_site_fract_y
_atom_site_fract_z
Zn1 Zn 0.98499(6) 0.652773(13) 0.30149(4)
Zn2 Zn 0.66954(5) 0.500240(13) -0.37487(4)
Zn3 Zn 0.66178(6) 0.653740(14) 0.03274(4)
O1 O 1.1706(3) 0.64462(9) 0.4102(3)
H1 H 1.2737 0.6534 0.3774
H2 H 1.2064 0.6290 0.4553
O2 O 0.4535(3) 0.52371(9) -0.3871(3)
O3 O 0.2785(3) 0.54110(8) -0.5169(2)
O4 O 0.5870(4) 0.62409(9) -0.1012(3)
O5 O 0.4046(5) 0.66223(13) -0.0510(4)
O6 O 0.8686(4) 0.63161(10) 0.0820(3)
O7 O 1.0613(4) 0.61415(8) 0.1913(2)
O8 O 0.7135(4) 0.53622(9) -0.2241(3)
O9 O 0.8939(4) 0.50060(9) -0.2899(3)
N1 N 1.0526(4) 0.70034(9) 0.2149(3)
N2 N 1.1881(4) 0.83246(10) 0.0597(3)
N3 N 1.3335(4) 0.82606(9) -0.0883(3)
N4 N 1.3048(4) 0.79025(10) -0.0522(3)
N5 N 1.3719(4) 0.89974(10) -0.1212(3)
N6 N 1.2538(4) 0.95535(9) 0.0153(3)
N7 N 0.7358(4) 0.20034(10) -0.4590(3)
N8 N 0.5703(4) 0.33203(10) -0.3227(3)
N9 N 0.4463(4) 0.29152(10) -0.2119(3)
N10 N 0.4229(4) 0.32789(10) -0.1763(3)
N11 N 0.4274(4) 0.40341(10) -0.1339(3)
N12 N 0.5603(4) 0.45590(10) -0.2736(3)
C1 C 1.0090(5) 0.73599(12) 0.2408(3)
H3 H 0.9427 0.7394 0.2988
C2 C 1.0589(5) 0.76745(12) 0.1846(4)
H4 H 1.0261 0.7916 0.2044
C3 C 1.1586(5) 0.76295(11) 0.0979(3)
C4 C 1.2032(5) 0.72625(12) 0.0715(3)
H5 H 1.2692 0.7220 0.0138
C5 C 1.1492(5) 0.69646(11) 0.1312(3)
H6 H 1.1810 0.6721 0.1129
C6 C 1.2172(5) 0.79560(11) 0.0353(3)
C7 C 1.2634(5) 0.85001(11) -0.0201(3)
C8 C 1.2828(4) 0.89075(11) -0.0357(3)
C9 C 1.4012(5) 0.93660(12) -0.1366(4)
H7 H 1.4615 0.9439 -0.1952
C10 C 1.3447(5) 0.96391(11) -0.0686(3)
H8 H 1.3702 0.9892 -0.0809
C11 C 1.2241(5) 0.91854(12) 0.0317(3)
H9 H 1.1625 0.9115 0.0897
C12 C 0.7523(5) 0.23578(13) -0.4972(4)
H10 H 0.8112 0.2395 -0.5592
C13 C 0.6868(6) 0.26679(13) -0.4496(4)
H11 H 0.7012 0.2909 -0.4795
C14 C 0.5982(5) 0.26249(12) -0.3562(3)
C15 C 0.5783(5) 0.22588(12) -0.3187(4)
H12 H 0.5171 0.2213 -0.2584
C16 C 0.6495(6) 0.19603(13) -0.3707(4)
H13 H 0.6366 0.1716 -0.3428
C17 C 0.5358(5) 0.29560(12) -0.2985(3)
C18 C 0.4976(5) 0.35098(11) -0.2439(3)
C19 C 0.4984(4) 0.39213(12) -0.2254(3)
C20 C 0.5673(5) 0.41864(12) -0.2941(3)
H14 H 0.6192 0.4102 -0.3554
C21 C 0.4859(5) 0.46678(13) -0.1839(4)
H15 H 0.4771 0.4926 -0.1683
C22 C 0.4218(5) 0.44062(14) -0.1141(4)
H16 H 0.3732 0.4492 -0.0514
C23 C 0.3476(5) 0.54501(11) -0.4225(3)
C24 C 0.2944(5) 0.57666(12) -0.3512(3)
C25 C 0.3921(5) 0.59111(12) -0.2664(3)
H17 H 0.4894 0.5804 -0.2526
C26 C 0.3446(5) 0.62123(13) -0.2030(4)
C27 C 0.1976(6) 0.63658(16) -0.2206(4)
H18 H 0.1658 0.6569 -0.1776
C28 C 0.0983(6) 0.62148(16) -0.3029(4)
H19 H -0.0012 0.6312 -0.3139
C29 C 0.1474(5) 0.59205(14) -0.3682(4)
H20 H 0.0815 0.5824 -0.4243
C30 C 0.4511(5) 0.63722(13) -0.1122(4)
C31 C 0.9796(5) 0.61065(11) 0.1030(3)
C32 C 1.0225(5) 0.58007(12) 0.0238(3)
C33 C 0.9203(5) 0.56839(12) -0.0622(3)
H21 H 0.8246 0.5802 -0.0727
C34 C 0.9622(5) 0.53901(12) -0.1320(3)
C35 C 1.1074(5) 0.52230(14) -0.1193(4)
H22 H 1.1363 0.5031 -0.1672
C36 C 1.2081(6) 0.53445(17) -0.0353(5)
H23 H 1.3057 0.5235 -0.0268
C37 C 1.1654(5) 0.56287(14) 0.0366(4)
H24 H 1.2336 0.5705 0.0940
C38 C 0.8501(5) 0.52434(12) -0.2212(4)
Zn1C Zn 1.48499(6) 0.847227(13) -0.19851(4)
Zn2B Zn 0.33046(5) 0.499760(13) -0.62513(4)
Zn2C Zn 1.16954(5) 0.999760(13) 0.12513(4)
Zn3A Zn 0.83822(6) 0.153740(14) -0.53274(4)
Zn3B Zn 0.33822(6) 0.346260(14) -0.03274(4)
O3B O 0.7215(3) 0.45890(8) -0.4831(2)
N3C N 0.8335(4) 0.67394(9) 0.4117(3)
N5C N 0.8719(4) 0.60026(10) 0.3788(3)
N6C N 0.7538(4) 0.54465(9) -0.4847(3)
N7A N 0.7642(4) 0.70034(10) -0.0410(3)
N10B N 0.5771(4) 0.67211(10) 0.1763(3)
N11B N 0.5726(4) 0.59659(10) 0.1339(3)
loop_
_geom_bond_atom_site_label_1
_geom_bond_atom_site_label_2
_geom_bond_site_symmetry_1
_geom_bond_site_symmetry_2
Zn1 O1 1_555 1_555
Zn2 O2 1_555 1_555
Zn3 O4 1_555 1_555
O1 H1 1_555 1_555
H2 O1 1_555 1_555
O2 C23 1_555 1_555
O3 C23 1_555 1_555
O4 C30 1_555 1_555
O5 Zn3 1_555 1_555
O6 Zn3 1_555 1_555
O7 Zn1 1_555 1_555
O8 Zn2 1_555 1_555
O9 Zn2 1_555 1_555
N1 Zn1 1_555 1_555
N2 C6 1_555 1_555
N3 N4 1_555 1_555
N4 C6 1_555 1_555
N5 C8 1_555 1_555
N6 C10 1_555 1_555
N7 C12 1_555 1_555
N8 C17 1_555 1_555
N9 N10 1_555 1_555
N10 C18 1_555 1_555
N11 C19 1_555 1_555
N12 Zn2 1_555 1_555
C1 N1 1_555 1_555
H3 C1 1_555 1_555
C2 C1 1_555 1_555
H4 C2 1_555 1_555
C3 C2 1_555 1_555
C4 C3 1_555 1_555
H5 C4 1_555 1_555
C5 N1 1_555 1_555
H6 C5 1_555 1_555
C6 C3 1_555 1_555
C7 N2 1_555 1_555
C8 C7 1_555 1_555
C9 N5 1_555 1_555
H7 C9 1_555 1_555
C10 C9 1_555 1_555
H8 C10 1_555 1_555
C11 N6 1_555 1_555
H9 C11 1_555 1_555
C12 H10 1_555 1_555
C13 C12 1_555 1_555
H11 C13 1_555 1_555
C14 C13 1_555 1_555
C15 C14 1_555 1_555
H12 C15 1_555 1_555
C16 N7 1_555 1_555
H13 C16 1_555 1_555
C17 N9 1_555 1_555
C18 N8 1_555 1_555
C19 C18 1_555 1_555
C20 N12 1_555 1_555
H14 C20 1_555 1_555
C21 N12 1_555 1_555
H15 C21 1_555 1_555
C22 N11 1_555 1_555
H16 C22 1_555 1_555
C23 C24 1_555 1_555
C24 C25 1_555 1_555
C25 H17 1_555 1_555
C26 C25 1_555 1_555
C27 C26 1_555 1_555
H18 C27 1_555 1_555
C28 C27 1_555 1_555
H19 C28 1_555 1_555
C29 C24 1_555 1_555
H20 C29 1_555 1_555
C30 O5 1_555 1_555
C31 O6 1_555 1_555
C32 C31 1_555 1_555
C33 C32 1_555 1_555
H21 C33 1_555 1_555
C34 C33 1_555 1_555
C35 C34 1_555 1_555
H22 C35 1_555 1_555
C36 C35 1_555 1_555
H23 C36 1_555 1_555
C37 C32 1_555 1_555
H24 C37 1_555 1_555
C38 O8 1_555 1_555
Zn1C N3 1_555 1_555
Zn2B O3 1_555 1_555
Zn2C N6 1_555 1_555
Zn3A N7 1_555 1_555
Zn3B N10 1_555 1_555
O3B Zn2 1_555 1_555
N3C Zn1 1_555 1_555
N5C Zn1 1_555 1_555
N6C Zn2 1_555 1_555
N7A Zn3 1_555 1_555
N10B Zn3 1_555 1_555
N11B Zn3 1_555 1_555
O7 C31 1_555 1_555
O9 C38 1_555 1_555
N3 C7 1_555 1_555
N5 Zn1C 1_555 1_555
N11 Zn3B 1_555 1_555
C4 C5 1_555 1_555
C8 C11 1_555 1_555
C14 C17 1_555 1_555
C15 C16 1_555 1_555
C19 C20 1_555 1_555
C21 C22 1_555 1_555
C26 C30 1_555 1_555
C28 C29 1_555 1_555
C34 C38 1_555 1_555
C36 C37 1_555 1_555

#END
