
#######################################################################
#
#                 Cambridge Crystallographic Data Centre
#                                CCDC 
#
#######################################################################
#
# If this CIF has been generated from an entry in the Cambridge 
# Structural Database, then it will include bibliographic, chemical, 
# crystal, experimental, refinement or atomic coordinate data resulting 
# from the CCDC's data processing and validation procedures.
#
#######################################################################

data_SEJNEB
_symmetry_cell_setting           triclinic
_symmetry_space_group_name_H-M   'P 1'
_symmetry_Int_Tables_number      1
_space_group_name_Hall           'P 1'
loop_
_symmetry_equiv_pos_site_id
_symmetry_equiv_pos_as_xyz
1 x,y,z
_cell_length_a                   9.048(4)
_cell_length_b                   9.274(4)
_cell_length_c                   13.587(6)
_cell_angle_alpha                100.925(9)
_cell_angle_beta                 92.436(7)
_cell_angle_gamma                96.813(9)
_cell_volume                     1109.06
loop_
_atom_site_label
_atom_site_type_symbol
_atom_site_fract_x
_atom_site_fract_y
_atom_site_fract_z
C1 C 0.7104(8) 0.6841(9) 0.8398(5)
C2 C 0.6876(8) 0.8163(8) 0.9059(5)
H1 H 0.6435 0.8146 0.9663
C3 C 0.7336(8) 0.9456(10) 0.8766(5)
H2 H 0.7289 1.0352 0.9199
C4 C 0.7882(9) 0.9449(8) 0.7812(5)
C5 C 0.7976(8) 0.8178(7) 0.7178(5)
H3 H 0.8320 0.8198 0.6545
C6 C 0.7568(9) 0.6838(8) 0.7454(5)
C7 C 0.7625(7) 0.5424(8) 0.6775(5)
C8 C 0.7008(8) 0.4120(8) 0.7113(5)
H4 H 0.6851 0.3206 0.6676
C9 C 0.6663(9) 0.4244(9) 0.8070(5)
H5 H 0.6369 0.3375 0.8296
C10 C 0.9060(8) 1.1034(8) 0.6736(5)
H6 H 1.0092 1.0902 0.6813
H7 H 0.8986 1.2014 0.6621
H8 H 0.8584 1.0318 0.6174
C11 C 0.8218(9) 0.5250(8) 0.5735(5)
H9 H 0.9200 0.5836 0.5765
C12 C 0.7074(8) 0.5812(8) 0.5041(5)
H10 H 0.7017 0.6859 0.5315
C13 C 0.5505(8) 0.4988(8) 0.4908(5)
H11 H 0.4897 0.5479 0.5405
H12 H 0.5536 0.3988 0.5018
C14 C 0.7236(8) 0.4148(8) 0.3289(5)
H13 H 0.7670 0.3427 0.3604
H14 H 0.7675 0.4172 0.2653
C15 C 0.5532(9) 0.3756(9) 0.3131(5)
H15 H 0.5239 0.2782 0.3278
H16 H 0.5215 0.3735 0.2437
C16 C 0.7497(8) 0.5672(8) 0.3970(5)
H17 H 0.8577 0.5974 0.4010
C17 C 0.6842(8) 0.6702(8) 0.3456(5)
H18 H 0.7080 0.6544 0.2757
H19 H 0.7210 0.7716 0.3773
C18 C 0.5154(8) 0.6386(8) 0.3538(5)
H20 H 0.4670 0.6321 0.2869
C19 C 0.4540(8) 0.7679(8) 0.4277(5)
C20 C 1.2640(8) 0.7986(8) 0.7067(4)
C21 C 1.2340(8) 0.6726(7) 0.6396(4)
H21 H 1.2269 0.6748 0.5714
C22 C 1.2131(8) 0.5371(9) 0.6707(5)
H22 H 1.1912 0.4491 0.6238
C23 C 1.2254(10) 0.5354(9) 0.7727(5)
C24 C 1.2550(7) 0.6656(8) 0.8422(5)
H23 H 1.2607 0.6627 0.9103
C25 C 1.2776(7) 0.8092(7) 0.8107(5)
C26 C 1.3099(8) 0.9526(8) 0.8759(5)
C27 C 1.3181(8) 1.0819(8) 0.8259(5)
H24 H 1.3287 1.1774 0.8642
C28 C 1.3101(9) 1.0606(9) 0.7246(5)
H25 H 1.3252 1.1425 0.6942
C29 C 1.1234(7) 0.3896(8) 0.8901(5)
H26 H 1.1971 0.3968 0.9443
H27 H 1.0628 0.2950 0.8799
H28 H 1.0616 0.4669 0.9062
C30 C 1.3485(7) 0.9747(8) 0.9897(5)
H29 H 1.4310 0.9188 1.0009
C31 C 1.2091(9) 0.9180(9) 1.0469(5)
H30 H 1.1827 0.8111 1.0233
C32 C 1.0731(8) 0.9943(8) 1.0347(5)
H31 H 1.0109 0.9435 0.9755
H32 H 1.1018 1.0962 1.0285
C33 C 1.2466(8) 1.1075(9) 1.2161(5)
H33 H 1.2994 1.1775 1.1809
H34 H 1.2927 1.1186 1.2833
C34 C 1.0791(8) 1.1183(9) 1.2159(6)
H35 H 1.0604 1.2138 1.2024
H36 H 1.0443 1.1101 1.2814
C35 C 1.2331(9) 0.9500(8) 1.1581(5)
H37 H 1.3358 0.9282 1.1665
C36 C 1.1502(7) 0.8286(9) 1.1971(5)
H38 H 1.1717 0.8387 1.2688
H39 H 1.1723 0.7327 1.1628
C37 C 0.9914(7) 0.8504(7) 1.1732(5)
H40 H 0.9407 0.8637 1.2360
C38 C 0.9060(8) 0.7181(8) 1.1003(5)
Cl1 Cl 0.41991(19) 0.59043(19) 1.07465(12)
Cl2 Cl 0.70084(19) 0.31841(18) 1.04291(12)
Cl3 Cl 1.0048(2) 0.87126(19) 0.46807(12)
Cl4 Cl 1.33375(19) 1.15162(18) 0.49263(12)
N1 N 0.6708(6) 0.5544(7) 0.8740(4)
N2 N 0.4780(7) 0.4925(7) 0.3833(4)
H41 H 0.3775 0.4664 0.3807
N3 N 1.2811(6) 0.9247(7) 0.6662(4)
N4 N 0.9894(7) 0.9876(6) 1.1311(4)
H42 H 0.8937 1.0056 1.1213
O1 O 0.8320(6) 1.0831(6) 0.7657(3)
O2 O 0.8320(5) 0.3729(5) 0.5372(3)
H43 H 0.9246 0.3769 0.5279
O3 O 0.3207(5) 0.7648(5) 0.4201(3)
O4 O 0.5381(5) 0.8559(6) 0.4892(3)
O5 O 1.1962(5) 0.4043(5) 0.8000(3)
O6 O 1.3911(5) 1.1251(5) 1.0337(3)
H44 H 1.4503 1.1627 0.9957
O7 O 0.7672(6) 0.7075(5) 1.1096(3)
O8 O 0.9686(5) 0.6394(5) 1.0384(4)
Zn1 Zn 0.64565(9) 0.54058(8) 1.02154(6)
Zn2 Zn 1.25098(8) 0.92710(8) 0.51447(6)
O3_2 O 1.3207(5) 0.7648(5) 0.4201(3)
Zn2_2 Zn 0.25098(8) 0.92710(8) 0.51447(6)
O9 O 0.5810(5) 0.9364(5) 0.1963(3)
H45 H 0.6080 0.8771 0.2321
H46 H 0.6519 1.0055 0.1967
O10 O 0.0827(6) 0.5409(5) 0.3338(4)
H47 H 0.1542 0.5951 0.3160
H48 H 0.0949 0.4492 0.3131
O11 O 0.1073(6) 0.4307(6) 0.1348(4)
H49 H 0.0994 0.5004 0.1017
H50 H 0.2025 0.4118 0.1272
O12 O 0.7150(5) 0.0635(5) 0.3827(3)
H51 H 0.6484 0.1036 0.3556
H52 H 0.7788 0.1304 0.4175
O13 O 0.0653(5) 0.3325(5) 0.4460(3)
H53 H 0.1364 0.2847 0.4581
H54 H 0.0097 0.3405 0.4950
loop_
_geom_bond_atom_site_label_1
_geom_bond_atom_site_label_2
_geom_bond_site_symmetry_1
_geom_bond_site_symmetry_2
C1 C2 1_555 1_555
C2 H1 1_555 1_555
C3 C2 1_555 1_555
H2 C3 1_555 1_555
C4 C3 1_555 1_555
C5 C4 1_555 1_555
H3 C5 1_555 1_555
C6 C1 1_555 1_555
C7 C6 1_555 1_555
C8 C7 1_555 1_555
H4 C8 1_555 1_555
C9 C8 1_555 1_555
H5 C9 1_555 1_555
C10 H6 1_555 1_555
H7 C10 1_555 1_555
H8 C10 1_555 1_555
C11 C7 1_555 1_555
H9 C11 1_555 1_555
C12 C11 1_555 1_555
H10 C12 1_555 1_555
C13 C12 1_555 1_555
H11 C13 1_555 1_555
H12 C13 1_555 1_555
C14 H13 1_555 1_555
H14 C14 1_555 1_555
C15 C14 1_555 1_555
H15 C15 1_555 1_555
H16 C15 1_555 1_555
C16 C12 1_555 1_555
H17 C16 1_555 1_555
C17 C16 1_555 1_555
H18 C17 1_555 1_555
H19 C17 1_555 1_555
C18 C17 1_555 1_555
H20 C18 1_555 1_555
C19 C18 1_555 1_555
C20 C21 1_555 1_555
C21 H21 1_555 1_555
C22 C21 1_555 1_555
H22 C22 1_555 1_555
C23 C22 1_555 1_555
C24 C23 1_555 1_555
H23 C24 1_555 1_555
C25 C20 1_555 1_555
C26 C25 1_555 1_555
C27 C26 1_555 1_555
H24 C27 1_555 1_555
C28 C27 1_555 1_555
H25 C28 1_555 1_555
C29 H26 1_555 1_555
H27 C29 1_555 1_555
H28 C29 1_555 1_555
C30 C26 1_555 1_555
H29 C30 1_555 1_555
C31 C30 1_555 1_555
H30 C31 1_555 1_555
C32 C31 1_555 1_555
H31 C32 1_555 1_555
H32 C32 1_555 1_555
C33 H33 1_555 1_555
H34 C33 1_555 1_555
C34 C33 1_555 1_555
H35 C34 1_555 1_555
H36 C34 1_555 1_555
C35 C31 1_555 1_555
H37 C35 1_555 1_555
C36 C35 1_555 1_555
H38 C36 1_555 1_555
H39 C36 1_555 1_555
C37 C36 1_555 1_555
H40 C37 1_555 1_555
C38 C37 1_555 1_555
Cl1 Zn1 1_555 1_555
Cl2 Zn1 1_555 1_555
Cl3 Zn2 1_555 1_555
Cl4 Zn2 1_555 1_555
N1 C1 1_555 1_555
N2 C13 1_555 1_555
H41 N2 1_555 1_555
N3 C20 1_555 1_555
N4 C32 1_555 1_555
H42 N4 1_555 1_555
O1 C4 1_555 1_555
O2 C11 1_555 1_555
H43 O2 1_555 1_555
O3 C19 1_555 1_555
O4 C19 1_555 1_555
O5 C23 1_555 1_555
O6 C30 1_555 1_555
H44 O6 1_555 1_555
O7 C38 1_555 1_555
O8 C38 1_555 1_555
O9 H45 1_555 1_555
H46 O9 1_555 1_555
O10 H47 1_555 1_555
H48 O10 1_555 1_555
O11 H49 1_555 1_555
H50 O11 1_555 1_555
O12 H51 1_555 1_555
H52 O12 1_555 1_555
O13 H53 1_555 1_555
H54 O13 1_555 1_555
Zn1 N1 1_555 1_555
Zn2 N3 1_555 1_555
O3_2 Zn2 1_555 1_555
Zn2_2 O3 1_555 1_555
C5 C6 1_555 1_555
C9 N1 1_555 1_555
C10 O1 1_555 1_555
C14 C16 1_555 1_555
C15 N2 1_555 1_555
C18 N2 1_555 1_555
C24 C25 1_555 1_555
C28 N3 1_555 1_555
C29 O5 1_555 1_555
C33 C35 1_555 1_555
C34 N4 1_555 1_555
C37 N4 1_555 1_555
O7 Zn1 1_555 1_555

#END
