
#######################################################################
#
#                 Cambridge Crystallographic Data Centre
#                                CCDC 
#
#######################################################################
#
# If this CIF has been generated from an entry in the Cambridge 
# Structural Database, then it will include bibliographic, chemical, 
# crystal, experimental, refinement or atomic coordinate data resulting 
# from the CCDC's data processing and validation procedures.
#
#######################################################################

data_SEJXOV
_symmetry_cell_setting           triclinic
_symmetry_space_group_name_H-M   'P -1'
_symmetry_Int_Tables_number      2
_space_group_name_Hall           '-P 1'
loop_
_symmetry_equiv_pos_site_id
_symmetry_equiv_pos_as_xyz
1 x,y,z
2 -x,-y,-z
_cell_length_a                   7.3467(2)
_cell_length_b                   11.7325(3)
_cell_length_c                   13.5919(4)
_cell_angle_alpha                101.5635(16)
_cell_angle_beta                 90.6115(17)
_cell_angle_gamma                92.7337(12)
_cell_volume                     1146.23
loop_
_atom_site_label
_atom_site_type_symbol
_atom_site_fract_x
_atom_site_fract_y
_atom_site_fract_z
Tb1 Tb -0.48258(8) -0.30164(6) -0.21590(4)
Fe1 Fe 0.0000 -0.5000 0.0000
Fe2 Fe 0.0000 -0.5000 -0.5000
O1 O -0.4646(17) -0.1891(9) -0.3405(7)
O2 O -0.4689(19) -0.1870(10) -0.0512(7)
O3 O -0.7277(15) -0.1753(10) -0.1945(8)
O4 O -0.1998(19) -0.1895(15) -0.1943(10)
N1 N -0.029(2) -0.7485(14) -0.1284(12)
N2 N -0.2881(18) -0.4200(14) -0.1352(10)
N3 N -0.6968(17) -0.4124(12) -0.1247(9)
N4 N 0.7032(18) -0.5808(12) -0.6644(9)
N5 N -0.2963(17) -0.4170(12) -0.3467(9)
N6 N -0.030(2) -0.7503(13) -0.4612(12)
N7 N -0.4446(18) -0.1972(10) -0.4390(8)
N8 N -0.4607(19) -0.1934(10) 0.0465(8)
C1 C -0.018(2) -0.6533(15) -0.0823(11)
C2 C -0.178(2) -0.4521(13) -0.0877(11)
C3 C -0.8099(18) -0.4477(12) -0.0800(9)
C4 C 0.8181(18) -0.5484(11) -0.6046(11)
C5 C -0.1891(19) -0.4499(13) -0.4036(10)
C6 C -0.016(2) -0.6570(14) -0.4744(11)
C7 C -0.508(2) -0.2913(13) -0.5067(11)
H1 H -0.5556 -0.3561 -0.4843
C8 C -0.5037(19) -0.2935(12) -0.6048(11)
H2 H -0.5500 -0.3592 -0.6497
C9 C -0.362(2) -0.1058(14) -0.4722(11)
H3 H -0.3072 -0.0441 -0.4260
C10 C -0.358(2) -0.1034(14) -0.5705(11)
H4 H -0.3075 -0.0380 -0.5909
C11 C -0.429(2) -0.1965(13) -0.6419(11)
C12 C -0.440(2) -0.1958(14) -0.7518(10)
C13 C -0.441(3) -0.0918(17) -0.7861(13)
H5 H -0.4369 -0.0214 -0.7400
C14 C -0.446(3) -0.0915(16) 0.1136(12)
H6 H -0.4396 -0.0214 0.0915
C15 C -0.4611(19) -0.2931(13) 0.0773(10)
H7 H -0.4648 -0.3627 0.0302
C16 C -0.456(2) -0.2956(13) -0.8233(11)
H8 H -0.4633 -0.3671 -0.8036
Tb1_2 Tb -0.48258(8) -0.30164(6) -1.21590(4)
Tb1A Tb 0.48258(8) -0.69836(6) -0.78410(4)
Tb1_3 Tb 0.51742(8) -0.30164(6) -0.21590(4)
Tb1A_2 Tb -0.51742(8) -0.69836(6) -0.78410(4)
Tb1_4 Tb -0.48258(8) -0.30164(6) 0.78410(4)
Fe1_2 Fe 0.0000 -0.5000 -1.0000
Fe1_3 Fe -1.0000 -0.5000 0.0000
Fe2_2 Fe 1.0000 -0.5000 -0.5000
O1A O 0.4646(17) -0.8109(9) -0.6595(7)
O1_2 O -0.4646(17) -0.1891(9) 0.6595(7)
O2_2 O -0.4689(19) -0.1870(10) -1.0512(7)
O2A O 0.4689(19) -0.8130(10) -0.9488(7)
O3A O 0.7277(15) -0.8247(10) -0.8055(8)
O4A O 0.1998(19) -0.8105(15) -0.8057(10)
N1A N 0.029(2) -0.2515(14) 0.1284(12)
N2A N 0.2881(18) -0.5800(14) -0.8648(10)
N3A N 0.6968(17) -0.5876(12) -0.8753(9)
N4A N -0.7032(18) -0.4192(12) -0.3356(9)
N4_2 N -0.2968(18) -0.5808(12) -0.6644(9)
N4A_2 N 0.2968(18) -0.4192(12) -0.3356(9)
N5A N 0.2963(17) -0.5830(12) -0.6533(9)
N6A N 0.030(2) -0.2497(13) -0.5388(12)
N7_2 N -0.4446(18) -0.1972(10) 0.5610(8)
N8_2 N -0.4607(19) -0.1934(10) -0.9535(8)
C1A C 0.018(2) -0.3467(15) 0.0823(11)
C2A C 0.178(2) -0.5479(13) -0.9123(11)
C2A_2 C 0.178(2) -0.5479(13) 0.0877(11)
C3_2 C 0.1901(18) -0.4477(12) -0.0800(9)
C3A C -0.1901(18) -0.5523(12) 0.0800(9)
C4_2 C -0.1819(18) -0.5484(11) -0.6046(11)
C4A C 0.1819(18) -0.4516(11) -0.3954(11)
C5A C 0.1891(19) -0.5501(13) -0.5964(10)
C6A C 0.016(2) -0.3430(14) -0.5256(11)
C7_2 C -0.508(2) -0.2913(13) 0.4933(11)
H1_2 H -0.5556 -0.3561 0.5157
C8_2 C -0.5037(19) -0.2935(12) 0.3952(11)
H2_2 H -0.5500 -0.3592 0.3503
C9_2 C -0.362(2) -0.1058(14) 0.5278(11)
H3_2 H -0.3072 -0.0441 0.5740
C10_2 C -0.358(2) -0.1034(14) 0.4295(11)
H4_2 H -0.3075 -0.0380 0.4091
C11_2 C -0.429(2) -0.1965(13) 0.3581(11)
C12_2 C -0.440(2) -0.1958(14) 0.2482(10)
C13_2 C -0.441(3) -0.0918(17) 0.2139(13)
H5_2 H -0.4369 -0.0214 0.2600
C14_2 C -0.446(3) -0.0915(16) -0.8864(12)
H6_2 H -0.4396 -0.0214 -0.9085
C15_2 C -0.4611(19) -0.2931(13) -0.9227(10)
H7_2 H -0.4648 -0.3627 -0.9698
C16_2 C -0.456(2) -0.2956(13) 0.1767(11)
H8_2 H -0.4633 -0.3671 0.1964
O5 O -0.9639(17) -0.1145(11) -0.3313(9)
O6 O -0.963(2) -0.1164(15) -0.0304(11)
O7 O -1.086(2) 0.0986(11) -0.3212(9)
loop_
_geom_bond_atom_site_label_1
_geom_bond_atom_site_label_2
_geom_bond_site_symmetry_1
_geom_bond_site_symmetry_2
Tb1 O1 1_555 1_555
Fe1 C1 1_555 1_555
Fe2 C5 1_555 1_555
O1 N7 1_555 1_555
O2 Tb1 1_555 1_555
O3 Tb1 1_555 1_555
O4 Tb1 1_555 1_555
N1 C1 1_555 1_555
N2 Tb1 1_555 1_555
N3 Tb1 1_555 1_555
N4 C4 1_555 1_555
N5 Tb1 1_555 1_555
N6 C6 1_555 1_555
N7 C7 1_555 1_555
N8 O2 1_555 1_555
C2 Fe1 1_555 1_555
C3 N3 1_555 1_555
C4 Fe2_2 1_555 1_555
C5 N5 1_555 1_555
C6 Fe2 1_555 1_555
C7 H1 1_555 1_555
C8 C7 1_555 1_555
H2 C8 1_555 1_555
C9 N7 1_555 1_555
H3 C9 1_555 1_555
C10 C9 1_555 1_555
H4 C10 1_555 1_555
C11 C8 1_555 1_555
C12 C11 1_555 1_555
C13 C12 1_555 1_555
H5 C13 1_555 1_555
C14 N8 1_555 1_555
H6 C14 1_555 1_555
C15 N8 1_555 1_555
H7 C15 1_555 1_555
C16 C12 1_555 1_555
H8 C16 1_555 1_555
Tb1_2 O2_2 1_555 1_555
Tb1A N4 1_555 1_555
Tb1_3 N4A_2 1_555 1_555
Tb1A_2 N4_2 1_555 1_555
Tb1_4 O1_2 1_555 1_555
Fe1_2 C2A 1_555 1_555
Fe1_3 C3 1_555 1_555
O1A Tb1A 1_555 1_555
O1_2 N7_2 1_555 1_555
O2_2 N8_2 1_555 1_555
O2A Tb1A 1_555 1_555
O3A Tb1A 1_555 1_555
O4A Tb1A 1_555 1_555
N1A C1A 1_555 1_555
N2A Tb1A 1_555 1_555
N3A Tb1A 1_555 1_555
N4A Tb1 1_555 1_555
N4_2 C4_2 1_555 1_555
N4A_2 C4A 1_555 1_555
N5A Tb1A 1_555 1_555
N6A C6A 1_555 1_555
N7_2 C7_2 1_555 1_555
N8_2 C14_2 1_555 1_555
C1A Fe1 1_555 1_555
C2A N2A 1_555 1_555
C2A_2 Fe1 1_555 1_555
C3_2 Fe1 1_555 1_555
C3A Fe1 1_555 1_555
C4_2 Fe2 1_555 1_555
C4A Fe2 1_555 1_555
C5A Fe2 1_555 1_555
C6A Fe2 1_555 1_555
C7_2 H1_2 1_555 1_555
C8_2 C7_2 1_555 1_555
H2_2 C8_2 1_555 1_555
C9_2 N7_2 1_555 1_555
H3_2 C9_2 1_555 1_555
C10_2 C9_2 1_555 1_555
H4_2 C10_2 1_555 1_555
C11_2 C8_2 1_555 1_555
C12_2 C11_2 1_555 1_555
C13_2 C14 1_555 1_555
H5_2 C13_2 1_555 1_555
C14_2 C13 1_555 1_555
H6_2 C14_2 1_555 1_555
C15_2 C16 1_555 1_555
H7_2 C15_2 1_555 1_555
C16_2 C15 1_555 1_555
H8_2 C16_2 1_555 1_555
N2 C2 1_555 1_555
C10 C11 1_555 1_555
N5A C5A 1_555 1_555
N8_2 C15_2 1_555 1_555
C10_2 C11_2 1_555 1_555
C12_2 C13_2 1_555 1_555
C12_2 C16_2 1_555 1_555

#END
