
#######################################################################
#
#                 Cambridge Crystallographic Data Centre
#                                CCDC 
#
#######################################################################
#
# If this CIF has been generated from an entry in the Cambridge 
# Structural Database, then it will include bibliographic, chemical, 
# crystal, experimental, refinement or atomic coordinate data resulting 
# from the CCDC's data processing and validation procedures.
#
#######################################################################

data_SEKRAC
_symmetry_cell_setting           monoclinic
_symmetry_space_group_name_H-M   'C 2/c'
_symmetry_Int_Tables_number      15
_space_group_name_Hall           '-C 2yn'
loop_
_symmetry_equiv_pos_site_id
_symmetry_equiv_pos_as_xyz
1 x,y,z
2 1/2+x,1/2+y,z
3 -x,y,1/2-z
4 1/2-x,1/2+y,1/2-z
5 -x,-y,-z
6 1/2-x,1/2-y,-z
7 x,-y,1/2+z
8 1/2+x,1/2-y,1/2+z
_cell_length_a                   17.223(2)
_cell_length_b                   14.8767(12)
_cell_length_c                   21.411(3)
_cell_angle_alpha                90
_cell_angle_beta                 110.561(7)
_cell_angle_gamma                90
_cell_volume                     5136.49
loop_
_atom_site_label
_atom_site_type_symbol
_atom_site_fract_x
_atom_site_fract_y
_atom_site_fract_z
Mo1 Mo 0.25341(3) 0.58023(3) 0.12175(2)
Mo2 Mo 0.14777(3) 0.72277(3) -0.00349(2)
Mo3 Mo 0.31203(3) 0.79045(3) 0.13856(2)
Mo4 Mo 0.29960(3) 0.56973(3) -0.01248(2)
Cu1 Cu 0.54191(4) 0.81670(5) 0.19044(4)
Cu2 Cu 0.46113(4) 0.61117(5) 0.17285(4)
C1 C 0.6324(3) 0.5716(4) 0.1890(3)
C2 C 0.6274(3) 0.4716(4) 0.1952(3)
H1 H 0.6181 0.4579 0.2363
H2 H 0.6803 0.4455 0.1984
C3 C 0.7610(4) 0.7700(6) 0.1190(4)
H3 H 0.7695 0.7073 0.1108
H4 H 0.7135 0.7913 0.0821
C4 C 0.4301(4) 1.0685(5) 0.0883(4)
H5 H 0.3943 1.0161 0.0794
H6 H 0.4058 1.1141 0.1082
C5 C 0.5098(4) 1.0097(4) 0.2016(3)
C6 C 0.5573(4) 0.3263(4) 0.1470(4)
H7 H 0.5142 0.2997 0.1100
H8 H 0.5471 0.3141 0.1875
H9 H 0.6099 0.3012 0.1501
C7 C 0.5163(4) 1.0429(4) 0.1383(4)
H10 H 0.5405 0.9965 0.1190
H11 H 0.5524 1.0950 0.1472
C8 C 0.5585(4) 0.4273(4) 0.1368(3)
H12 H 0.5053 0.4527 0.1333
H13 H 0.5678 0.4397 0.0954
C9 C 0.7421(4) 0.7775(4) 0.1838(3)
H14 H 0.7931 0.7712 0.2218
H15 H 0.7189 0.8363 0.1862
C10 C 0.8369(5) 0.8233(6) 0.1211(5)
H16 H 0.8460 0.8162 0.0796
H17 H 0.8844 0.8017 0.1570
H18 H 0.8283 0.8857 0.1281
C11 C 0.4339(5) 1.1039(6) 0.0229(4)
H19 H 0.3790 1.1191 -0.0064
H20 H 0.4566 1.0585 0.0025
H21 H 0.4684 1.1564 0.0313
C12 C 0.6825(3) 0.7068(4) 0.1861(3)
N1 N 0.6043(3) 0.7158(3) 0.1796(2)
N2 N 0.5072(3) 0.9259(3) 0.2200(3)
N3 N 0.7019(3) 0.6175(3) 0.1923(2)
N4 N 0.7829(3) 0.5835(3) 0.2055(3)
H22 H 0.7926 0.5270 0.2127
H23 H 0.8224 0.6193 0.2064
N5 N 0.5730(3) 0.6297(3) 0.1816(2)
O1 O 0.2551(2) 0.6963(3) 0.16275(19)
O2 O 0.2767(3) 0.4933(3) -0.0756(2)
O3 O 0.3036(2) 0.8753(3) 0.1887(2)
O4 O 0.2061(2) 0.5122(3) 0.1613(2)
O5 O 0.1849(2) 0.8208(2) 0.06128(18)
O6 O 0.2443(2) 0.5186(3) 0.0423(2)
O7 O 0.1408(2) 0.6403(3) 0.05397(19)
O8 O 0.1696(2) 0.6401(2) -0.06587(19)
O9 O 0.0490(2) 0.7523(3) -0.0465(2)
O10 O 0.4004(2) 0.5510(3) 0.0346(2)
O11 O 0.3593(2) 0.5605(3) 0.16350(19)
O12 O 0.4137(2) 0.7522(2) 0.1753(2)
O13 O 0.2904(2) 0.6909(2) 0.05057(19)
N6 N 0.5000 1.0632(5) 0.2500
N7 N 0.5000 1.1573(6) 0.2500
Mo1E Mo 0.24659(3) 0.91977(3) -0.12175(2)
Mo2E Mo 0.35223(3) 0.77723(3) 0.00349(2)
Mo3E Mo 0.18797(3) 0.70955(3) -0.13856(2)
Mo4E Mo 0.20040(3) 0.93027(3) 0.01248(2)
Cu1B Cu 0.45809(4) 0.81670(5) 0.30956(4)
Cu1E Cu -0.04191(4) 0.68330(5) -0.19044(4)
Cu2E Cu 0.03887(4) 0.88883(5) -0.17285(4)
Cu2B Cu 0.53887(4) 0.61117(5) 0.32715(4)
C1B C 0.3676(3) 0.5716(4) 0.3110(3)
C2B C 0.3726(3) 0.4716(4) 0.3048(3)
H1B H 0.3819 0.4579 0.2637
H2B H 0.3197 0.4455 0.3016
C3B C 0.2390(4) 0.7700(6) 0.3810(4)
H3B H 0.2305 0.7073 0.3892
H4B H 0.2865 0.7913 0.4179
C4B C 0.5699(4) 1.0685(5) 0.4117(4)
H5B H 0.6057 1.0161 0.4206
H6B H 0.5942 1.1141 0.3918
C5B C 0.4902(4) 1.0097(4) 0.2984(3)
C6B C 0.4427(4) 0.3263(4) 0.3530(4)
H7B H 0.4858 0.2997 0.3900
H8B H 0.4529 0.3141 0.3125
H9B H 0.3901 0.3012 0.3499
C7B C 0.4837(4) 1.0429(4) 0.3617(4)
H10B H 0.4595 0.9965 0.3810
H11B H 0.4476 1.0950 0.3528
C8B C 0.4415(4) 0.4273(4) 0.3632(3)
H12B H 0.4947 0.4527 0.3667
H13B H 0.4322 0.4397 0.4046
C9B C 0.2579(4) 0.7775(4) 0.3162(3)
H14B H 0.2069 0.7712 0.2782
H15B H 0.2811 0.8363 0.3138
C10B C 0.1631(5) 0.8233(6) 0.3789(5)
H16B H 0.1540 0.8162 0.4204
H17B H 0.1156 0.8017 0.3430
H18B H 0.1717 0.8857 0.3719
C11B C 0.5661(5) 1.1039(6) 0.4771(4)
H19B H 0.6210 1.1191 0.5064
H20B H 0.5434 1.0585 0.4975
H21B H 0.5316 1.1564 0.4687
C12B C 0.3175(3) 0.7068(4) 0.3139(3)
N1B N 0.3957(3) 0.7158(3) 0.3204(2)
N2B N 0.4928(3) 0.9259(3) 0.2800(3)
N3B N 0.2981(3) 0.6175(3) 0.3077(2)
N4B N 0.2171(3) 0.5835(3) 0.2945(3)
H22B H 0.2074 0.5270 0.2873
H23B H 0.1776 0.6193 0.2936
N5B N 0.4270(3) 0.6297(3) 0.3184(2)
O1E O 0.2449(2) 0.8037(3) -0.16275(19)
O2E O 0.2233(3) 1.0067(3) 0.0756(2)
O3E O 0.1964(2) 0.6247(3) -0.1887(2)
O4E O 0.2939(2) 0.9878(3) -0.1613(2)
O5E O 0.3151(2) 0.6792(2) -0.06128(18)
O6E O 0.2557(2) 0.9814(3) -0.0423(2)
O7E O 0.3592(2) 0.8597(3) -0.05397(19)
O8E O 0.3304(2) 0.8599(2) 0.06587(19)
O9E O 0.4510(2) 0.7477(3) 0.0465(2)
O10E O 0.0996(2) 0.9490(3) -0.0346(2)
O11E O 0.1407(2) 0.9395(3) -0.16350(19)
O11B O 0.6407(2) 0.5605(3) 0.33650(19)
O12E O 0.0863(2) 0.7478(2) -0.1753(2)
O12B O 0.5863(2) 0.7522(2) 0.3247(2)
O13E O 0.2096(2) 0.8091(2) -0.05057(19)
loop_
_geom_bond_atom_site_label_1
_geom_bond_atom_site_label_2
_geom_bond_site_symmetry_1
_geom_bond_site_symmetry_2
Mo1 O1 1_555 1_555
Mo2 O5 1_555 1_555
Mo3 O1 1_555 1_555
Mo4 O2 1_555 1_555
Cu1 N1 1_555 1_555
Cu2 N5 1_555 1_555
C1 C2 1_555 1_555
C2 H1 1_555 1_555
H2 C2 1_555 1_555
C3 H3 1_555 1_555
H4 C3 1_555 1_555
C4 H5 1_555 1_555
H6 C4 1_555 1_555
C5 C7 1_555 1_555
C6 H7 1_555 1_555
H8 C6 1_555 1_555
H9 C6 1_555 1_555
C7 C4 1_555 1_555
H10 C7 1_555 1_555
H11 C7 1_555 1_555
C8 C2 1_555 1_555
H12 C8 1_555 1_555
H13 C8 1_555 1_555
C9 C3 1_555 1_555
H14 C9 1_555 1_555
H15 C9 1_555 1_555
C10 C3 1_555 1_555
H16 C10 1_555 1_555
H17 C10 1_555 1_555
H18 C10 1_555 1_555
C11 C4 1_555 1_555
H19 C11 1_555 1_555
H20 C11 1_555 1_555
H21 C11 1_555 1_555
C12 C9 1_555 1_555
N1 C12 1_555 1_555
N2 Cu1 1_555 1_555
N3 C1 1_555 1_555
N4 N3 1_555 1_555
H22 N4 1_555 1_555
H23 N4 1_555 1_555
N5 C1 1_555 1_555
O3 Mo3 1_555 1_555
O4 Mo1 1_555 1_555
O5 Mo3 1_555 1_555
O6 Mo1 1_555 1_555
O7 Mo1 1_555 1_555
O8 Mo2 1_555 1_555
O9 Mo2 1_555 1_555
O10 Mo4 1_555 1_555
O11 Mo1 1_555 1_555
O12 Mo3 1_555 1_555
O13 Mo1 1_555 1_555
N6 C5 1_555 1_555
N7 N6 1_555 1_555
Mo1E O1E 1_555 1_555
Mo2E O13 1_555 1_555
Mo3E O8 1_555 1_555
Mo4E O5 1_555 1_555
Cu1B N1B 1_555 1_555
Cu1E O12E 1_555 1_555
Cu2E O11E 1_555 1_555
Cu2B N5B 1_555 1_555
C1B C2B 1_555 1_555
C2B H1B 1_555 1_555
H2B C2B 1_555 1_555
C3B H3B 1_555 1_555
H4B C3B 1_555 1_555
C4B H5B 1_555 1_555
H6B C4B 1_555 1_555
C5B N6 1_555 1_555
C6B H7B 1_555 1_555
H8B C6B 1_555 1_555
H9B C6B 1_555 1_555
C7B C4B 1_555 1_555
H10B C7B 1_555 1_555
H11B C7B 1_555 1_555
C8B C2B 1_555 1_555
H12B C8B 1_555 1_555
H13B C8B 1_555 1_555
C9B C3B 1_555 1_555
H14B C9B 1_555 1_555
H15B C9B 1_555 1_555
C10B C3B 1_555 1_555
H16B C10B 1_555 1_555
H17B C10B 1_555 1_555
H18B C10B 1_555 1_555
C11B C4B 1_555 1_555
H19B C11B 1_555 1_555
H20B C11B 1_555 1_555
H21B C11B 1_555 1_555
C12B C9B 1_555 1_555
N1B C12B 1_555 1_555
N2B N2 1_555 1_555
N3B C1B 1_555 1_555
N4B N3B 1_555 1_555
H22B N4B 1_555 1_555
H23B N4B 1_555 1_555
N5B C1B 1_555 1_555
O1E Mo3E 1_555 1_555
O2E Mo4E 1_555 1_555
O3E Mo3E 1_555 1_555
O4E Mo1E 1_555 1_555
O5E Mo4 1_555 1_555
O6E Mo1E 1_555 1_555
O7E Mo1E 1_555 1_555
O8E Mo3 1_555 1_555
O9E Mo2E 1_555 1_555
O10E Mo4E 1_555 1_555
O11E Mo1E 1_555 1_555
O11B Cu2B 1_555 1_555
O12E Mo3E 1_555 1_555
O12B Cu1B 1_555 1_555
O13E Mo2 1_555 1_555
Mo2 O7 1_555 1_555
Mo2 O13 1_555 1_555
Mo3 O13 1_555 1_555
Mo4 O6 1_555 1_555
Mo4 O8 1_555 1_555
Mo4 O13 1_555 1_555
Cu1 O12 1_555 1_555
Cu2 O11 1_555 1_555
Cu2 O12 1_555 1_555
C5 N2 1_555 1_555
C6 C8 1_555 1_555
C12 N3 1_555 1_555
N1 N5 1_555 1_555
Mo1E O13E 1_555 1_555
Mo2E O5E 1_555 1_555
Mo2E O7E 1_555 1_555
Mo2E O8E 1_555 1_555
Mo2E O13E 1_555 1_555
Mo3E O5E 1_555 1_555
Mo3E O13E 1_555 1_555
Mo4E O6E 1_555 1_555
Mo4E O8E 1_555 1_555
Mo4E O13E 1_555 1_555
Cu1B N2B 1_555 1_555
Cu2E O12E 1_555 1_555
Cu2B O12B 1_555 1_555
C5B C7B 1_555 1_555
C5B N2B 1_555 1_555
C6B C8B 1_555 1_555
C12B N3B 1_555 1_555
N1B N5B 1_555 1_555

#END
