
#######################################################################
#
#                 Cambridge Crystallographic Data Centre
#                                CCDC 
#
#######################################################################
#
# If this CIF has been generated from an entry in the Cambridge 
# Structural Database, then it will include bibliographic, chemical, 
# crystal, experimental, refinement or atomic coordinate data resulting 
# from the CCDC's data processing and validation procedures.
#
#######################################################################

data_SELBIW
_symmetry_cell_setting           orthorhombic
_symmetry_space_group_name_H-M   'P 21 21 21'
_symmetry_Int_Tables_number      19
_space_group_name_Hall           'P 2ac 2ab'
loop_
_symmetry_equiv_pos_site_id
_symmetry_equiv_pos_as_xyz
1 x,y,z
2 1/2-x,-y,1/2+z
3 1/2+x,1/2-y,-z
4 -x,1/2+y,1/2-z
_cell_length_a                   6.7778(3)
_cell_length_b                   15.2422(8)
_cell_length_c                   18.9036(9)
_cell_angle_alpha                90
_cell_angle_beta                 90
_cell_angle_gamma                90
_cell_volume                     1952.9
loop_
_atom_site_label
_atom_site_type_symbol
_atom_site_fract_x
_atom_site_fract_y
_atom_site_fract_z
Cu1 Cu 0.21588(17) 0.77914(6) 0.66016(5)
Cu2 Cu 0.2031(2) 1.15406(9) 0.59371(6)
S1 S 0.3094(4) 0.66737(14) 0.58000(11)
S2 S -0.1745(4) 0.73763(13) 0.66453(11)
S3 S -0.0075(4) 1.02583(18) 0.55928(14)
S4 S 0.5020(4) 1.10540(16) 0.54919(12)
N1 N 0.2456(10) 0.8590(4) 0.7458(3)
N2 N 0.2737(10) 0.6894(4) 0.7311(3)
N3 N -0.1945(13) 0.6787(5) 0.8035(4)
N4 N 0.1842(14) 0.8711(5) 0.5881(4)
N5 N 0.6059(13) 1.2464(6) 0.4617(4)
C1 C 0.2287(13) 0.9457(5) 0.7509(4)
H1 H 0.2108 0.9785 0.7099
C2 C 0.2371(12) 0.9890(5) 0.8159(4)
H2 H 0.2236 1.0496 0.8183
C3 C 0.2654(13) 0.9409(5) 0.8756(4)
H3 H 0.2732 0.9687 0.9193
C4 C 0.2823(13) 0.8515(6) 0.8714(4)
H4 H 0.2993 0.8181 0.9121
C5 C 0.2740(13) 0.8115(5) 0.8061(4)
C6 C 0.2880(13) 0.7185(5) 0.7951(4)
H5 H 0.3068 0.6803 0.8329
C7 C 0.2779(12) 0.5991(5) 0.7132(4)
C8 C 0.2694(13) 0.5305(5) 0.7615(4)
H6 H 0.2725 0.542 0.8098
C9 C 0.2563(12) 0.4457(6) 0.7374(5)
H7 H 0.2506 0.4001 0.77
C10 C 0.2515(13) 0.4268(5) 0.6673(5)
H8 H 0.2415 0.3688 0.6524
C11 C 0.2612(12) 0.4928(5) 0.6187(4)
H9 H 0.2573 0.4797 0.5706
C12 C 0.2770(13) 0.5794(4) 0.6408(4)
C13 C 0.1115(17) 0.6532(7) 0.5168(5)
H10 H 0.1186 0.6986 0.4817
H11 H -0.013 0.6565 0.5409
H12 H 0.124 0.597 0.4944
C14 C -0.1880(13) 0.7043(5) 0.7458(4)
C15 C 0.1147(15) 0.9313(7) 0.5795(5)
C16 C 0.5649(15) 1.1871(6) 0.4982(4)
Cu2C Cu -0.2031(2) 0.65406(9) 0.90629(6)
Cu2B Cu 0.7031(2) 1.34594(9) 0.40629(6)
N3C N 0.1945(13) 1.1787(5) 0.6965(4)
N5B N 0.1059(13) 1.2536(6) 0.5383(4)
loop_
_geom_bond_atom_site_label_1
_geom_bond_atom_site_label_2
_geom_bond_site_symmetry_1
_geom_bond_site_symmetry_2
Cu1 S1 1_555 1_555
Cu2 S3 1_555 1_555
S1 C12 1_555 1_555
S2 Cu1 1_555 1_555
S3 C15 1_555 1_555
S4 Cu2 1_555 1_555
N1 Cu1 1_555 1_555
N2 Cu1 1_555 1_555
N3 C14 1_555 1_555
N4 Cu1 1_555 1_555
N5 C16 1_555 1_555
C1 N1 1_555 1_555
H1 C1 1_555 1_555
C2 C1 1_555 1_555
H2 C2 1_555 1_555
C3 C2 1_555 1_555
H3 C3 1_555 1_555
C4 C3 1_555 1_555
H4 C4 1_555 1_555
C5 N1 1_555 1_555
C6 N2 1_555 1_555
H5 C6 1_555 1_555
C7 N2 1_555 1_555
C8 C7 1_555 1_555
H6 C8 1_555 1_555
C9 C8 1_555 1_555
H7 C9 1_555 1_555
C10 C9 1_555 1_555
H8 C10 1_555 1_555
C11 C10 1_555 1_555
H9 C11 1_555 1_555
C12 C7 1_555 1_555
C13 S1 1_555 1_555
H10 C13 1_555 1_555
H11 C13 1_555 1_555
H12 C13 1_555 1_555
C14 S2 1_555 1_555
C15 N4 1_555 1_555
C16 S4 1_555 1_555
Cu2C N3 1_555 1_555
Cu2B N5 1_555 1_555
N3C Cu2 1_555 1_555
N5B Cu2 1_555 1_555
C4 C5 1_555 1_555
C5 C6 1_555 1_555
C11 C12 1_555 1_555

#END
