
#######################################################################
#
#                 Cambridge Crystallographic Data Centre
#                                CCDC 
#
#######################################################################
#
# If this CIF has been generated from an entry in the Cambridge 
# Structural Database, then it will include bibliographic, chemical, 
# crystal, experimental, refinement or atomic coordinate data resulting 
# from the CCDC's data processing and validation procedures.
#
#######################################################################

data_SELMOM
_symmetry_cell_setting           monoclinic
_symmetry_space_group_name_H-M   'P 21/n'
_symmetry_Int_Tables_number      14
_space_group_name_Hall           '-P 2yn'
loop_
_symmetry_equiv_pos_site_id
_symmetry_equiv_pos_as_xyz
1 x,y,z
2 1/2-x,1/2+y,1/2-z
3 -x,-y,-z
4 1/2+x,1/2-y,1/2+z
_cell_length_a                   12.5202(2)
_cell_length_b                   6.7238(1)
_cell_length_c                   18.8360(3)
_cell_angle_alpha                90
_cell_angle_beta                 108.6942(5)
_cell_angle_gamma                90
_cell_volume                     1502.02
loop_
_atom_site_label
_atom_site_type_symbol
_atom_site_fract_x
_atom_site_fract_y
_atom_site_fract_z
Cu1 Cu 0.57300(3) 0.28818(7) 0.22386(2)
O1 O 0.6604(2) 0.1184(4) 0.15743(13)
O2 O 0.7839(2) -0.0751(4) 0.23822(14)
O3 O 0.9076(2) -0.3346(4) 0.17809(14)
O4 O 0.8839(2) -0.3136(5) 0.05671(15)
N1 N 0.5122(2) 0.4870(4) 0.13820(16)
N2 N 0.4243(2) 0.1628(4) 0.17356(16)
N3 N 0.2671(2) 0.1641(5) 0.07570(17)
H1 H 0.2161 0.2035 0.0340
C1 C 0.5630(3) 0.6501(6) 0.1244(2)
H2 H 0.6350 0.6850 0.1580
C2 C 0.5144(4) 0.7701(6) 0.0628(2)
H3 H 0.5522 0.8856 0.0543
C3 C 0.4094(4) 0.7187(6) 0.0137(2)
H4 H 0.3749 0.7982 -0.0292
C4 C 0.3554(3) 0.5529(6) 0.0274(2)
H5 H 0.2830 0.5166 -0.0053
C5 C 0.4087(3) 0.4400(5) 0.08989(19)
C6 C 0.3650(3) 0.2575(5) 0.1121(2)
C7 C 0.3627(3) -0.0051(6) 0.17874(19)
C8 C 0.3858(3) -0.1581(6) 0.2308(2)
H6 H 0.4534 -0.1605 0.2722
C9 C 0.3054(3) -0.3081(6) 0.2197(2)
H7 H 0.3178 -0.4145 0.2546
C10 C 0.2067(3) -0.3047(6) 0.1580(2)
H8 H 0.1538 -0.4097 0.1521
C11 C 0.1836(3) -0.1558(7) 0.1057(2)
H9 H 0.1165 -0.1561 0.0639
C12 C 0.2623(3) -0.0049(6) 0.1164(2)
C13 C 0.7564(3) 0.0465(5) 0.18386(19)
C14 C 0.8424(3) 0.1090(6) 0.1483(2)
H10 H 0.8541 0.2478 0.1449
C15 C 0.9038(3) -0.0117(7) 0.1211(2)
H11 H 0.9565 0.0488 0.1011
C16 C 0.8978(3) -0.2342(6) 0.1191(2)
Cu1A Cu 0.92700(3) -0.21182(7) 0.27614(2)
O2A O 0.7161(2) 0.4249(4) 0.26178(14)
O3A O 0.5924(2) 0.1654(4) 0.32191(14)
O5 O 0.9927(5) -0.3444(10) -0.0522(4)
H12 H 0.9240 -0.3558 -0.0453
H13 H 0.9854 -0.4393 -0.0885
loop_
_geom_bond_atom_site_label_1
_geom_bond_atom_site_label_2
_geom_bond_site_symmetry_1
_geom_bond_site_symmetry_2
Cu1 O1 1_555 1_555
O1 C13 1_555 1_555
O2 C13 1_555 1_555
O3 C16 1_555 1_555
O4 C16 1_555 1_555
N1 Cu1 1_555 1_555
N2 Cu1 1_555 1_555
N3 H1 1_555 1_555
C1 N1 1_555 1_555
H2 C1 1_555 1_555
C2 C1 1_555 1_555
H3 C2 1_555 1_555
C3 C2 1_555 1_555
H4 C3 1_555 1_555
C4 C3 1_555 1_555
H5 C4 1_555 1_555
C5 N1 1_555 1_555
C6 N2 1_555 1_555
C7 N2 1_555 1_555
C8 C7 1_555 1_555
H6 C8 1_555 1_555
C9 C8 1_555 1_555
H7 C9 1_555 1_555
C10 C9 1_555 1_555
H8 C10 1_555 1_555
C11 C10 1_555 1_555
H9 C11 1_555 1_555
C12 N3 1_555 1_555
C13 C14 1_555 1_555
C14 H10 1_555 1_555
C15 C14 1_555 1_555
H11 C15 1_555 1_555
C16 C15 1_555 1_555
O5 H12 1_555 1_555
H13 O5 1_555 1_555
Cu1A O2 1_555 1_555
O2A Cu1 1_555 1_555
O3A Cu1 1_555 1_555
O3 Cu1A 1_555 1_555
N3 C6 1_555 1_555
C4 C5 1_555 1_555
C5 C6 1_555 1_555
C7 C12 1_555 1_555
C11 C12 1_555 1_555

#END
