
#######################################################################
#
#                 Cambridge Crystallographic Data Centre
#                                CCDC 
#
#######################################################################
#
# If this CIF has been generated from an entry in the Cambridge 
# Structural Database, then it will include bibliographic, chemical, 
# crystal, experimental, refinement or atomic coordinate data resulting 
# from the CCDC's data processing and validation procedures.
#
#######################################################################

data_SELNIH
_symmetry_cell_setting           monoclinic
_symmetry_space_group_name_H-M   'P 21'
_symmetry_Int_Tables_number      4
_space_group_name_Hall           'P 2yb'
loop_
_symmetry_equiv_pos_site_id
_symmetry_equiv_pos_as_xyz
1 x,y,z
2 -x,1/2+y,-z
_cell_length_a                   11.714(2)
_cell_length_b                   7.1380(14)
_cell_length_c                   12.393(3)
_cell_angle_alpha                90
_cell_angle_beta                 103.62(3)
_cell_angle_gamma                90
_cell_volume                     1007.09
loop_
_atom_site_label
_atom_site_type_symbol
_atom_site_fract_x
_atom_site_fract_y
_atom_site_fract_z
Pb1 Pb 0.628525(19) -0.39893(9) 0.553214(17)
N1 N 0.7837(8) -0.5995(13) 0.7516(7)
O1 O 0.6763(8) -0.5848(15) 0.7516(8)
O2 O 0.8168(6) -0.5442(13) 0.6696(6)
O3 O 0.8537(10) -0.6666(13) 0.8302(7)
N2 N 0.6539(7) -0.9112(18) 0.4855(6)
O4 O 0.6038(9) -0.7532(12) 0.4891(7)
O5 O 0.7578(7) -0.920(2) 0.5095(7)
O6 O 0.5849(8) -1.0485(12) 0.4526(7)
N3 N 0.5429(6) -0.4408(10) 0.3435(6)
N4 N 0.4334(7) -0.5095(11) 0.3023(6)
N5 N 0.5631(6) -0.3628(12) 0.1625(5)
N6 N 0.7739(6) -0.3690(17) 0.4283(6)
C1 C 0.6046(7) -0.384(2) 0.2729(6)
C2 C 0.4544(8) -0.4180(17) 0.1226(7)
C3 C 0.3886(6) -0.5024(9) 0.1932(5)
C4 C 0.2727(6) -0.5956(9) 0.1567(5)
C5 C 0.1927(10) -0.5770(18) 0.2216(9)
H1 H 0.2118 -0.5097 0.2877
C6 C 0.0828(12) -0.660(2) 0.1867(10)
H2 H 0.0283 -0.6475 0.2299
C7 C 0.0530(10) -0.763(2) 0.0886(11)
H3 H -0.0209 -0.8174 0.0667
C8 C 0.1338(11) -0.7824(19) 0.0234(11)
H4 H 0.1150 -0.8505 -0.0424
C9 C 0.2439(9) -0.6979(15) 0.0588(8)
H5 H 0.2989 -0.7105 0.0160
C10 C 0.4025(7) -0.377(2) 0.0033(6)
C11 C 0.2946(9) -0.2917(16) -0.0311(7)
H6 H 0.2514 -0.2594 0.0202
C12 C 0.2512(9) -0.2544(19) -0.1431(7)
H7 H 0.1779 -0.1989 -0.1679
C13 C 0.3195(12) -0.3016(19) -0.2188(8)
H8 H 0.2906 -0.2763 -0.2939
C14 C 0.4238(9) -0.381(3) -0.1854(7)
H9 H 0.4668 -0.4100 -0.2374
C15 C 0.4714(9) -0.4227(10) -0.0720(7)
H10 H 0.5450 -0.4778 -0.0483
C16 C 0.7299(7) -0.3366(14) 0.3198(7)
C17 C 0.8874(8) -0.3364(17) 0.4719(9)
H11 H 0.9180 -0.3585 0.5471
C18 C 0.9603(9) -0.2711(17) 0.4085(9)
H12 H 1.0399 -0.2550 0.4401
C19 C 0.9163(10) -0.2297(19) 0.2991(10)
H13 H 0.9643 -0.1810 0.2559
C20 C 0.7988(9) -0.2621(18) 0.2545(8)
H14 H 0.7660 -0.2337 0.1804
Pb1A Pb 0.371475(19) -0.89893(9) 0.446786(17)
O6A O 0.4151(8) -0.5485(12) 0.5474(7)
loop_
_geom_bond_atom_site_label_1
_geom_bond_atom_site_label_2
_geom_bond_site_symmetry_1
_geom_bond_site_symmetry_2
Pb1 O1 1_555 1_555
N1 O1 1_555 1_555
O2 Pb1 1_555 1_555
O3 N1 1_555 1_555
N2 O4 1_555 1_555
O4 Pb1 1_555 1_555
O5 N2 1_555 1_555
O6 N2 1_555 1_555
N3 Pb1 1_555 1_555
N4 N3 1_555 1_555
N5 C1 1_555 1_555
N6 Pb1 1_555 1_555
C1 N3 1_555 1_555
C2 N5 1_555 1_555
C3 N4 1_555 1_555
C4 C3 1_555 1_555
C5 C4 1_555 1_555
H1 C5 1_555 1_555
C6 C5 1_555 1_555
H2 C6 1_555 1_555
C7 C6 1_555 1_555
H3 C7 1_555 1_555
C8 C7 1_555 1_555
H4 C8 1_555 1_555
C9 C4 1_555 1_555
H5 C9 1_555 1_555
C10 C2 1_555 1_555
C11 C10 1_555 1_555
H6 C11 1_555 1_555
C12 C11 1_555 1_555
H7 C12 1_555 1_555
C13 C12 1_555 1_555
H8 C13 1_555 1_555
C14 C13 1_555 1_555
H9 C14 1_555 1_555
C15 C10 1_555 1_555
H10 C15 1_555 1_555
C16 N6 1_555 1_555
C17 N6 1_555 1_555
H11 C17 1_555 1_555
C18 C17 1_555 1_555
H12 C18 1_555 1_555
C19 C18 1_555 1_555
H13 C19 1_555 1_555
C20 C16 1_555 1_555
H14 C20 1_555 1_555
Pb1A O6 1_555 1_555
O6A Pb1 1_555 1_555
N1 O2 1_555 1_555
C1 C16 1_555 1_555
C2 C3 1_555 1_555
C8 C9 1_555 1_555
C14 C15 1_555 1_555
C19 C20 1_555 1_555

#END
