
#######################################################################
#
#                 Cambridge Crystallographic Data Centre
#                                CCDC 
#
#######################################################################
#
# If this CIF has been generated from an entry in the Cambridge 
# Structural Database, then it will include bibliographic, chemical, 
# crystal, experimental, refinement or atomic coordinate data resulting 
# from the CCDC's data processing and validation procedures.
#
#######################################################################

data_SELQUX
_symmetry_cell_setting           monoclinic
_symmetry_space_group_name_H-M   'P 21/c'
_symmetry_Int_Tables_number      14
_space_group_name_Hall           '-P 2ybc'
loop_
_symmetry_equiv_pos_site_id
_symmetry_equiv_pos_as_xyz
1 x,y,z
2 -x,1/2+y,1/2-z
3 -x,-y,-z
4 x,1/2-y,1/2+z
_cell_length_a                   9.5601(19)
_cell_length_b                   14.382(3)
_cell_length_c                   18.401(5)
_cell_angle_alpha                90
_cell_angle_beta                 113.56(2)
_cell_angle_gamma                90
_cell_volume                     2319.12
loop_
_atom_site_label
_atom_site_type_symbol
_atom_site_fract_x
_atom_site_fract_y
_atom_site_fract_z
Zn1 Zn 0.37279(4) -0.54196(3) 0.13966(2)
O1 O 0.3489(3) -0.4204(2) 0.08732(16)
O2 O 0.5112(5) -0.3543(3) 0.19362(18)
O3 O 0.2243(4) -0.5323(2) 0.1893(2)
O4 O 0.2378(5) -0.6819(3) 0.2021(2)
O5 O -0.3822(4) -0.5775(3) 0.12199(19)
O6 O -0.4313(3) -0.5721(3) 0.2272(2)
O7 O 0.0023(4) -0.6277(3) 0.49396(17)
O8 O 0.2368(3) -0.6276(2) 0.49827(16)
N1 N -0.2529(3) -0.1066(2) -0.53150(16)
C1 C 0.4221(4) -0.3517(3) 0.1246(2)
C2 C 0.3968(4) -0.2612(3) 0.07959(19)
C3 C 0.4526(4) -0.1787(3) 0.1198(2)
H3 H 0.5067 -0.1797 0.1745
C4 C 0.4286(4) -0.0953(3) 0.0795(2)
H4 H 0.4664 -0.0404 0.1071
C5 C 0.3480(4) -0.0935(3) -0.0022(2)
H5 H 0.3320 -0.0380 -0.0302
C6 C 0.3151(4) -0.2597(3) -0.00192(19)
H6 H 0.2765 -0.3144 -0.0298
C7 C 0.2924(4) -0.1762(3) -0.04046(19)
N2 N 0.1991(3) -0.1726(2) -0.12624(16)
C8 C 0.2640(4) -0.1791(3) -0.1784(2)
H7 H 0.3686 -0.1889 -0.1604
C9 C 0.1779(4) -0.1716(3) -0.2577(2)
H8 H 0.2245 -0.1762 -0.2933
C10 C 0.0474(4) -0.1610(3) -0.1516(2)
H9 H 0.0028 -0.1585 -0.1150
C11 C -0.0413(4) -0.1529(3) -0.2304(2)
H10 H -0.1460 -0.1444 -0.2471
C12 C 0.0216(4) -0.1572(2) -0.28597(19)
C13 C -0.0742(4) -0.1434(2) -0.37194(19)
C14 C -0.0116(4) -0.1367(4) -0.4270(2)
H11 H 0.0929 -0.1446 -0.4116
C15 C -0.1026(4) -0.1185(4) -0.5046(2)
H12 H -0.0569 -0.1141 -0.5406
C16 C -0.2285(4) -0.1339(4) -0.3996(2)
H13 H -0.2768 -0.1406 -0.3650
C17 C -0.3135(4) -0.1145(4) -0.4780(2)
H14 H -0.4183 -0.1064 -0.4946
C18 C 0.1917(4) -0.6052(3) 0.2130(2)
C19 C 0.0849(4) -0.5990(3) 0.25548(19)
C20 C 0.1366(4) -0.6101(3) 0.3372(2)
H15 H 0.2401 -0.6193 0.3675
C21 C 0.0348(4) -0.6075(3) 0.37398(19)
C22 C -0.1194(4) -0.5957(3) 0.3287(2)
H16 H -0.1876 -0.5933 0.3532
C23 C -0.1727(4) -0.5873(3) 0.2466(2)
C24 C -0.0695(4) -0.5873(3) 0.21129(19)
H17 H -0.1047 -0.5794 0.1567
C25 C -0.3410(4) -0.5785(3) 0.1945(3)
C26 C 0.0878(4) -0.6210(3) 0.4619(2)
H18 H 0.270(6) -0.637(3) 0.550(3)
Zn1_2 Zn -0.62721(4) -0.54196(3) 0.13966(2)
Zn1A Zn -0.37279(4) -0.04196(3) -0.63966(2)
O6_2 O 0.5687(3) -0.5721(3) 0.2272(2)
N1A N 0.2529(3) -0.6066(2) 0.03150(16)
O9 O 0.6494(4) -0.1693(3) -0.14900(17)
H1 H 0.5981 -0.1577 -0.1978
H2 H 0.6920 -0.2122 -0.1645
loop_
_geom_bond_atom_site_label_1
_geom_bond_atom_site_label_2
_geom_bond_site_symmetry_1
_geom_bond_site_symmetry_2
Zn1 O1 1_555 1_555
O1 C1 1_555 1_555
O2 C1 1_555 1_555
O3 Zn1 1_555 1_555
O4 C18 1_555 1_555
O5 C25 1_555 1_555
O6 C25 1_555 1_555
O7 C26 1_555 1_555
O8 C26 1_555 1_555
O9 H1 1_555 1_555
H2 O9 1_555 1_555
N1 C15 1_555 1_555
C1 C2 1_555 1_555
C2 C3 1_555 1_555
C3 H3 1_555 1_555
C4 C3 1_555 1_555
H4 C4 1_555 1_555
C5 C4 1_555 1_555
H5 C5 1_555 1_555
C6 C2 1_555 1_555
H6 C6 1_555 1_555
C7 C5 1_555 1_555
N2 C7 1_555 1_555
C8 N2 1_555 1_555
H7 C8 1_555 1_555
C9 C8 1_555 1_555
H8 C9 1_555 1_555
C10 N2 1_555 1_555
H9 C10 1_555 1_555
C11 C10 1_555 1_555
H10 C11 1_555 1_555
C12 C9 1_555 1_555
C13 C12 1_555 1_555
C14 C13 1_555 1_555
H11 C14 1_555 1_555
C15 C14 1_555 1_555
H12 C15 1_555 1_555
C16 C13 1_555 1_555
H13 C16 1_555 1_555
C17 N1 1_555 1_555
H14 C17 1_555 1_555
C18 O3 1_555 1_555
C19 C18 1_555 1_555
C20 C19 1_555 1_555
H15 C20 1_555 1_555
C21 C20 1_555 1_555
C22 C21 1_555 1_555
H16 C22 1_555 1_555
C23 C22 1_555 1_555
C24 C19 1_555 1_555
H17 C24 1_555 1_555
C25 C23 1_555 1_555
C26 C21 1_555 1_555
H18 O8 1_555 1_555
Zn1_2 O6 1_555 1_555
Zn1A N1 1_555 1_555
O6_2 Zn1 1_555 1_555
N1A Zn1 1_555 1_555
C6 C7 1_555 1_555
C11 C12 1_555 1_555
C16 C17 1_555 1_555
C23 C24 1_555 1_555

#END
