
#######################################################################
#
#                 Cambridge Crystallographic Data Centre
#                                CCDC 
#
#######################################################################
#
# If this CIF has been generated from an entry in the Cambridge 
# Structural Database, then it will include bibliographic, chemical, 
# crystal, experimental, refinement or atomic coordinate data resulting 
# from the CCDC's data processing and validation procedures.
#
#######################################################################

data_SEMQIK
_symmetry_cell_setting           orthorhombic
_symmetry_space_group_name_H-M   'P 21 21 2'
_symmetry_Int_Tables_number      18
_space_group_name_Hall           'P 2 2ab'
loop_
_symmetry_equiv_pos_site_id
_symmetry_equiv_pos_as_xyz
1 x,y,z
2 -x,-y,z
3 1/2+x,1/2-y,-z
4 1/2-x,1/2+y,-z
_cell_length_a                   13.951(2)
_cell_length_b                   6.374(1)
_cell_length_c                   8.408(1)
_cell_angle_alpha                90
_cell_angle_beta                 90
_cell_angle_gamma                90
_cell_volume                     747.67
loop_
_atom_site_label
_atom_site_type_symbol
_atom_site_fract_x
_atom_site_fract_y
_atom_site_fract_z
Mn1 Mn -0.5000 0.5000 0.5319(1)
O1 O -0.6431(2) 0.6482(4) 0.5511(3)
O2 O -0.4496(2) 0.7135(4) 0.7209(3)
O3 O -0.3469(2) 0.9324(4) 0.4956(3)
O4 O -0.4492(2) 0.7294(4) 0.3576(3)
N1 N -0.4410(2) 1.1861(4) -0.0140(3)
C1 C -0.3599(3) 1.2970(5) -0.0226(4)
C2 C -0.2868(3) 1.2861(5) 0.0892(4)
C3 C -0.2983(3) 1.1517(5) 0.2133(4)
C4 C -0.3816(2) 1.0301(5) 0.2302(4)
C5 C -0.4527(2) 1.0562(4) 0.1120(4)
C6 C -0.3937(2) 0.8864(5) 0.3716(4)
C5A C -0.5473(2) 0.9438(4) 0.1120(4)
N1A N -0.5590(2) 0.8139(4) -0.0140(3)
C1A C -0.6401(3) 0.7030(5) -0.0226(4)
C2A C -0.7132(3) 0.7139(5) 0.0892(4)
C3A C -0.7017(3) 0.8483(5) 0.2133(4)
C4A C -0.6184(2) 0.9699(5) 0.2302(4)
C6A C -0.6063(2) 1.1136(5) 0.3716(4)
O3A O -0.6531(2) 1.0676(4) 0.4956(3)
O4A O -0.5508(2) 1.2706(4) 0.3576(3)
O1A O -0.3569(2) 0.3518(4) 0.5511(3)
O2A O -0.5504(2) 0.2865(4) 0.7209(3)
O4A_2 O -0.5508(2) 0.2706(4) 0.3576(3)
Mn1_2 Mn -0.5000 1.5000 0.5319(1)
loop_
_geom_bond_atom_site_label_1
_geom_bond_atom_site_label_2
_geom_bond_site_symmetry_1
_geom_bond_site_symmetry_2
Mn1 O1 1_555 1_555
O2 Mn1 1_555 1_555
O3 C6 1_555 1_555
O4 Mn1 1_555 1_555
N1 C1 1_555 1_555
C1 C2 1_555 1_555
C2 C3 1_555 1_555
C3 C4 1_555 1_555
C4 C5 1_555 1_555
C5 N1 1_555 1_555
C6 O4 1_555 1_555
C5A C5 1_555 1_555
N1A C5A 1_555 1_555
C1A N1A 1_555 1_555
C2A C1A 1_555 1_555
C3A C2A 1_555 1_555
C4A C5A 1_555 1_555
C6A C4A 1_555 1_555
O3A C6A 1_555 1_555
O4A C6A 1_555 1_555
O1A Mn1 1_555 1_555
O2A Mn1 1_555 1_555
O4A_2 Mn1 1_555 1_555
Mn1_2 O4A 1_555 1_555
C4 C6 1_555 1_555
C3A C4A 1_555 1_555

#END
