
#######################################################################
#
#                 Cambridge Crystallographic Data Centre
#                                CCDC 
#
#######################################################################
#
# If this CIF has been generated from an entry in the Cambridge 
# Structural Database, then it will include bibliographic, chemical, 
# crystal, experimental, refinement or atomic coordinate data resulting 
# from the CCDC's data processing and validation procedures.
#
#######################################################################

data_SEMQOR
_symmetry_cell_setting           monoclinic
_symmetry_space_group_name_H-M   'P 21/c'
_symmetry_Int_Tables_number      14
_space_group_name_Hall           '-P 2ybc'
loop_
_symmetry_equiv_pos_site_id
_symmetry_equiv_pos_as_xyz
1 x,y,z
2 -x,1/2+y,1/2-z
3 -x,-y,-z
4 x,1/2-y,1/2+z
_cell_length_a                   19.5041(15)
_cell_length_b                   7.4865(6)
_cell_length_c                   17.4861(13)
_cell_angle_alpha                90
_cell_angle_beta                 97.797(2)
_cell_angle_gamma                90
_cell_volume                     2529.67
loop_
_atom_site_label
_atom_site_type_symbol
_atom_site_fract_x
_atom_site_fract_y
_atom_site_fract_z
Ni1 Ni 0.715307(18) 0.84632(5) 0.79422(2)
O1 O 0.80544(11) 0.7327(3) 0.77281(13)
H1 H 0.8180(15) 0.6266(14) 0.7819(18)
H2 H 0.8337(11) 0.758(4) 0.7422(13)
O2 O 0.73618(11) 1.0687(3) 0.72886(13)
H3 H 0.7085(13) 1.145(3) 0.7419(18)
H4 H 0.7750(8) 1.114(4) 0.7443(17)
N1 N 0.76838(11) 0.9623(3) 0.89242(12)
N2 N 0.79354(12) 1.0540(4) 1.01575(13)
N3 N 0.84896(11) 1.0759(3) 0.97625(12)
N4 N 0.95671(11) 1.1893(3) 0.96375(12)
N5 N 1.06318(11) 1.3024(3) 0.94339(13)
N6 N 1.12255(12) 1.3934(4) 0.96822(14)
N7 N 1.11704(13) 1.3202(4) 0.84210(14)
N8 N 0.69338(11) 0.6264(3) 0.85968(12)
N9 N 0.71112(12) 0.4484(4) 0.96436(14)
N10 N 0.64278(11) 0.4526(3) 0.93461(13)
N11 N 0.53149(11) 0.3437(3) 0.92784(12)
N12 N 0.41919(11) 0.2438(3) 0.90960(13)
N13 N 0.36062(12) 0.1802(4) 0.93443(14)
N14 N 0.34100(11) 0.2528(3) 0.80831(13)
N15 N 0.58573(15) 1.0788(5) 0.79197(16)
O3 O 0.62140(10) 0.9506(3) 0.82499(11)
O4 O 0.52201(13) 1.0698(4) 0.78795(15)
O5 O 0.61476(15) 1.2068(4) 0.76549(15)
C1 C 0.74737(15) 0.9869(4) 0.96248(17)
H5 H 0.7029 0.9579 0.9720
C2 C 0.83300(14) 1.0193(4) 0.90363(15)
H6 H 0.8629 1.0200 0.8665
C3 C 0.91185(14) 1.1532(4) 1.01199(15)
C4 C 0.92214(15) 1.1825(4) 1.09020(15)
H7 H 0.8889 1.1511 1.1213
C5 C 0.98383(16) 1.2605(4) 1.12060(17)
H8 H 0.9929 1.2845 1.1732
C6 C 1.03177(15) 1.3026(4) 1.07292(16)
H9 H 1.0738 1.3554 1.0921
C7 C 1.01543(14) 1.2637(4) 0.99584(16)
C8 C 1.15189(15) 1.4000(4) 0.90527(19)
H10 H 1.1942 1.4563 0.9040
C9 C 1.06118(15) 1.2612(4) 0.86853(17)
H11 H 1.0254 1.1996 0.8393
C10 C 0.73893(15) 0.5530(4) 0.91721(17)
H12 H 0.7862 0.5756 0.9225
C11 C 0.63340(14) 0.5583(4) 0.87214(16)
H13 H 0.5911 0.5802 0.8422
C12 C 0.59237(14) 0.3617(4) 0.97183(15)
C13 C 0.60712(15) 0.3032(4) 1.04706(16)
H14 H 0.6508 0.3173 1.0751
C14 C 0.55381(16) 0.2227(4) 1.07858(16)
H15 H 0.5610 0.1836 1.1295
C15 C 0.48991(15) 0.1997(4) 1.03514(16)
H16 H 0.4536 0.1443 1.0553
C16 C 0.48241(14) 0.2629(4) 0.96024(16)
C17 C 0.31550(15) 0.1881(4) 0.87131(17)
H17 H 0.2697 0.1522 0.8700
C18 C 0.40638(14) 0.2853(4) 0.83482(16)
H18 H 0.4389 0.3305 0.8056
Ni1A Ni 0.284693(18) 0.34632(5) 0.70578(2)
N14A N 0.65900(11) 0.7528(3) 0.69169(13)
N16 N 0.88056(16) 0.3289(5) 0.77449(15)
O6 O 0.89106(14) 0.1707(4) 0.76078(13)
O7 O 0.92488(12) 0.4440(3) 0.77585(13)
O8 O 0.82113(13) 0.3709(4) 0.78777(18)
loop_
_geom_bond_atom_site_label_1
_geom_bond_atom_site_label_2
_geom_bond_site_symmetry_1
_geom_bond_site_symmetry_2
Ni1 O1 1_555 1_555
O1 H1 1_555 1_555
H2 O1 1_555 1_555
O2 Ni1 1_555 1_555
H3 O2 1_555 1_555
H4 O2 1_555 1_555
N1 Ni1 1_555 1_555
N2 N3 1_555 1_555
N3 C2 1_555 1_555
N4 C3 1_555 1_555
N5 N6 1_555 1_555
N6 C8 1_555 1_555
N7 C8 1_555 1_555
N8 Ni1 1_555 1_555
N9 N10 1_555 1_555
N10 C11 1_555 1_555
N11 C12 1_555 1_555
N12 N13 1_555 1_555
N13 C17 1_555 1_555
N14 C17 1_555 1_555
N15 O3 1_555 1_555
O3 Ni1 1_555 1_555
O4 N15 1_555 1_555
O5 N15 1_555 1_555
C1 N1 1_555 1_555
H5 C1 1_555 1_555
C2 N1 1_555 1_555
H6 C2 1_555 1_555
C3 N3 1_555 1_555
C4 C3 1_555 1_555
H7 C4 1_555 1_555
C5 C4 1_555 1_555
H8 C5 1_555 1_555
C6 C5 1_555 1_555
H9 C6 1_555 1_555
C7 N4 1_555 1_555
C8 H10 1_555 1_555
C9 N5 1_555 1_555
H11 C9 1_555 1_555
C10 N8 1_555 1_555
H12 C10 1_555 1_555
C11 N8 1_555 1_555
H13 C11 1_555 1_555
C12 N10 1_555 1_555
C13 C12 1_555 1_555
H14 C13 1_555 1_555
C14 C13 1_555 1_555
H15 C14 1_555 1_555
C15 C14 1_555 1_555
H16 C15 1_555 1_555
C16 N11 1_555 1_555
C17 H17 1_555 1_555
C18 N12 1_555 1_555
H18 C18 1_555 1_555
N16 O6 1_555 1_555
O7 N16 1_555 1_555
O8 N16 1_555 1_555
Ni1A N14 1_555 1_555
N14A Ni1 1_555 1_555
N2 C1 1_555 1_555
N5 C7 1_555 1_555
N7 C9 1_555 1_555
N9 C10 1_555 1_555
N12 C16 1_555 1_555
N14 C18 1_555 1_555
C6 C7 1_555 1_555
C15 C16 1_555 1_555

#END
