
#######################################################################
#
#                 Cambridge Crystallographic Data Centre
#                                CCDC 
#
#######################################################################
#
# If this CIF has been generated from an entry in the Cambridge 
# Structural Database, then it will include bibliographic, chemical, 
# crystal, experimental, refinement or atomic coordinate data resulting 
# from the CCDC's data processing and validation procedures.
#
#######################################################################

data_SENDEV
_symmetry_cell_setting           orthorhombic
_symmetry_space_group_name_H-M   'P c a 21'
_symmetry_Int_Tables_number      29
_space_group_name_Hall           'P 2c -2ac'
loop_
_symmetry_equiv_pos_site_id
_symmetry_equiv_pos_as_xyz
1 x,y,z
2 -x,-y,1/2+z
3 1/2-x,y,1/2+z
4 1/2+x,-y,z
_cell_length_a                   17.4320(10)
_cell_length_b                   3.8123(3)
_cell_length_c                   16.7340(10)
_cell_angle_alpha                90
_cell_angle_beta                 90
_cell_angle_gamma                90
_cell_volume                     1112.07
loop_
_atom_site_label
_atom_site_type_symbol
_atom_site_fract_x
_atom_site_fract_y
_atom_site_fract_z
Cu1 Cu 0.12416(2) 0.4233(2) 0.50000(4)
S1 S 0.17001(5) -0.1116(2) 0.43013(5)
N1 N 0.1504(2) 0.3860(9) 0.6170(2)
N2 N 0.0252(2) 0.1930(10) 0.6528(2)
N3 N 0.0109(2) 0.3206(9) 0.5154(2)
N4 N 0.0737(2) -0.0730(10) 0.2955(2)
C1 C 0.2215(2) 0.4670(10) 0.6413(3)
C2 C 0.2465(2) 0.4370(10) 0.7187(3)
C3 C 0.1946(3) 0.3280(10) 0.7746(3)
C4 C 0.1211(2) 0.2490(10) 0.7528(2)
C5 C 0.0997(2) 0.2810(10) 0.6727(2)
C6 C -0.0173(2) 0.1950(10) 0.5836(2)
C7 C -0.0922(2) 0.0590(10) 0.5885(2)
C8 C -0.1366(2) 0.0570(10) 0.5213(3)
C9 C -0.1088(2) 0.1960(10) 0.4506(2)
C10 C -0.0347(2) 0.3200(10) 0.4509(2)
C11 C 0.1124(2) -0.0920(10) 0.3506(2)
H1 H -0.0007 0.1194 0.6932
H2 H 0.2561 0.5482 0.6032
H3 H 0.2969 0.4886 0.7326
H4 H 0.2094 0.3080 0.8278
H5 H 0.0858 0.1753 0.7909
H6 H -0.1110 -0.0289 0.6366
H7 H -0.1857 -0.0368 0.5231
H8 H -0.1389 0.2043 0.4047
H9 H -0.0151 0.4101 0.4034
Cu1_2 Cu 0.12416(2) -0.5767(2) 0.50000(4)
S1_2 S 0.17001(5) 0.8884(2) 0.43013(5)
loop_
_geom_bond_atom_site_label_1
_geom_bond_atom_site_label_2
_geom_bond_site_symmetry_1
_geom_bond_site_symmetry_2
Cu1 S1 1_555 1_555
S1 C11 1_555 1_555
N1 Cu1 1_555 1_555
N2 C5 1_555 1_555
N3 Cu1 1_555 1_555
N4 C11 1_555 1_555
C1 N1 1_555 1_555
C2 C1 1_555 1_555
C3 C2 1_555 1_555
C4 C3 1_555 1_555
C5 N1 1_555 1_555
C6 N2 1_555 1_555
C7 C6 1_555 1_555
C8 C7 1_555 1_555
C9 C8 1_555 1_555
C10 N3 1_555 1_555
H1 N2 1_555 1_555
H2 C1 1_555 1_555
H3 C2 1_555 1_555
H4 C3 1_555 1_555
H5 C4 1_555 1_555
H6 C7 1_555 1_555
H7 C8 1_555 1_555
H8 C9 1_555 1_555
H9 C10 1_555 1_555
Cu1_2 S1 1_555 1_555
S1_2 Cu1 1_555 1_555
N3 C6 1_555 1_555
C4 C5 1_555 1_555
C9 C10 1_555 1_555

#END
