
#######################################################################
#
#                 Cambridge Crystallographic Data Centre
#                                CCDC 
#
#######################################################################
#
# If this CIF has been generated from an entry in the Cambridge 
# Structural Database, then it will include bibliographic, chemical, 
# crystal, experimental, refinement or atomic coordinate data resulting 
# from the CCDC's data processing and validation procedures.
#
#######################################################################

data_SENFUO
_symmetry_cell_setting           triclinic
_symmetry_space_group_name_H-M   'P -1'
_symmetry_Int_Tables_number      2
_space_group_name_Hall           '-P 1'
loop_
_symmetry_equiv_pos_site_id
_symmetry_equiv_pos_as_xyz
1 x,y,z
2 -x,-y,-z
_cell_length_a                   10.257(3)
_cell_length_b                   11.662(3)
_cell_length_c                   11.806(4)
_cell_angle_alpha                99.638(6)
_cell_angle_beta                 107.055(7)
_cell_angle_gamma                90.471(5)
_cell_volume                     1328.58
loop_
_atom_site_label
_atom_site_type_symbol
_atom_site_fract_x
_atom_site_fract_y
_atom_site_fract_z
Mn1 Mn 0.54293(8) -0.02217(6) 0.23487(7)
S1 S 0.6208(2) -0.37865(15) -0.0014(2)
S2 S 0.43294(17) 0.34395(13) 0.40950(17)
O1 O 0.3737(5) 0.0358(4) 0.0950(4)
N1 N 0.7708(4) 0.2651(3) 0.1651(4)
N2 N 0.8736(5) 0.1903(4) 0.1769(5)
N3 N 0.6878(4) 0.1075(3) 0.2020(4)
N4 N 0.8318(4) 0.7892(4) 0.4787(4)
N5 N 0.8123(5) 0.8752(4) 0.5648(4)
N6 N 0.7036(4) 0.9114(4) 0.3796(4)
N7 N 1.2834(4) 0.6879(4) 0.2659(4)
N8 N 1.1936(5) 0.7246(5) 0.1724(5)
N9 N 1.3829(5) 0.8435(4) 0.2413(4)
N10 N 0.5929(6) -0.1531(4) 0.0996(4)
N11 N 0.4990(5) 0.1142(4) 0.3651(4)
C1 C 0.8890(5) 0.4642(4) 0.2298(5)
C2 C 0.8463(5) 0.5299(4) 0.3222(5)
C3 C 0.9388(5) 0.6132(4) 0.4085(4)
C4 C 1.0716(5) 0.6330(4) 0.4019(5)
C5 C 1.1136(5) 0.5647(4) 0.3112(5)
C6 C 1.0226(5) 0.4795(4) 0.2252(5)
C7 C 0.7856(5) 0.3789(4) 0.1335(5)
H1 H 0.6974 0.4128 0.1164
H2 H 0.8123 0.3685 0.0603
C8 C 0.7015(5) 0.5146(5) 0.3260(5)
H3 H 0.6861 0.5740 0.3868
H4 H 0.6873 0.4393 0.3446
H5 H 0.6390 0.5207 0.2491
C9 C 0.8983(5) 0.6829(4) 0.5121(5)
H6 H 0.8361 0.6350 0.5353
H7 H 0.9790 0.7043 0.5808
C10 C 1.1657(6) 0.7295(5) 0.4888(5)
H8 H 1.1223 0.8020 0.4849
H9 H 1.2490 0.7348 0.4681
H10 H 1.1857 0.7133 0.5691
C11 C 1.2579(5) 0.5806(4) 0.3083(5)
H11 H 1.3197 0.5825 0.3886
H12 H 1.2777 0.5142 0.2558
C12 C 1.0697(6) 0.4076(5) 0.1276(5)
H13 H 1.0945 0.4579 0.0797
H14 H 0.9971 0.3527 0.0775
H15 H 1.1474 0.3665 0.1635
C13 C 0.8174(6) 0.0976(5) 0.1996(5)
H16 H 0.8640 0.0307 0.2130
C14 C 0.6625(5) 0.2137(4) 0.1796(5)
H17 H 0.5798 0.2478 0.1746
C15 C 0.7359(6) 0.9451(5) 0.5005(5)
H18 H 0.7060 1.0132 0.5357
C16 C 0.7657(6) 0.8120(5) 0.3708(5)
H19 H 0.7632 0.7646 0.2984
C17 C 1.2582(7) 0.8182(6) 0.1629(6)
H20 H 1.2200 0.8639 0.1056
C18 C 1.3954(6) 0.7589(5) 0.3027(5)
H21 H 1.4729 0.7495 0.3645
C19 C 0.6055(6) -0.2484(5) 0.0588(5)
C20 C 0.4696(5) 0.2102(5) 0.3826(5)
H22 H 0.374(6) 0.061(5) 0.032(4)
H23 H 0.309(8) 0.078(8) 0.106(9)
Mn1_2 Mn 0.54293(8) 0.97783(6) 0.23487(7)
Mn1_3 Mn 1.54293(8) 0.97783(6) 0.23487(7)
N6_2 N 0.7036(4) -0.0886(4) 0.3796(4)
N9_2 N 0.3829(5) -0.1565(4) 0.2413(4)
O2 O 0.1510(6) 0.0998(6) 0.1664(7)
O3 O 0.9163(11) -0.1977(12) 0.1390(13)
loop_
_geom_bond_atom_site_label_1
_geom_bond_atom_site_label_2
_geom_bond_site_symmetry_1
_geom_bond_site_symmetry_2
Mn1 O1 1_555 1_555
S1 C19 1_555 1_555
S2 C20 1_555 1_555
O1 H22 1_555 1_555
N1 N2 1_555 1_555
N2 C13 1_555 1_555
N3 Mn1 1_555 1_555
N4 N5 1_555 1_555
N5 C15 1_555 1_555
N6 C15 1_555 1_555
N7 N8 1_555 1_555
N8 C17 1_555 1_555
N9 C17 1_555 1_555
N10 Mn1 1_555 1_555
N11 Mn1 1_555 1_555
C1 C2 1_555 1_555
C2 C3 1_555 1_555
C3 C4 1_555 1_555
C4 C5 1_555 1_555
C5 C6 1_555 1_555
C6 C1 1_555 1_555
C7 N1 1_555 1_555
H1 C7 1_555 1_555
H2 C7 1_555 1_555
C8 C2 1_555 1_555
H3 C8 1_555 1_555
H4 C8 1_555 1_555
H5 C8 1_555 1_555
C9 N4 1_555 1_555
H6 C9 1_555 1_555
H7 C9 1_555 1_555
C10 C4 1_555 1_555
H8 C10 1_555 1_555
H9 C10 1_555 1_555
H10 C10 1_555 1_555
C11 N7 1_555 1_555
H11 C11 1_555 1_555
H12 C11 1_555 1_555
C12 C6 1_555 1_555
H13 C12 1_555 1_555
H14 C12 1_555 1_555
H15 C12 1_555 1_555
C13 N3 1_555 1_555
H16 C13 1_555 1_555
C14 N1 1_555 1_555
H17 C14 1_555 1_555
C15 H18 1_555 1_555
C16 N4 1_555 1_555
H19 C16 1_555 1_555
C17 H20 1_555 1_555
C18 N7 1_555 1_555
H21 C18 1_555 1_555
C19 N10 1_555 1_555
C20 N11 1_555 1_555
H23 O1 1_555 1_555
Mn1_2 N6 1_555 1_555
Mn1_3 N9 1_555 1_555
N6_2 Mn1 1_555 1_555
N9_2 Mn1 1_555 1_555
N3 C14 1_555 1_555
N6 C16 1_555 1_555
N9 C18 1_555 1_555
C1 C7 1_555 1_555
C3 C9 1_555 1_555
C5 C11 1_555 1_555

#END
