
#######################################################################
#
#                 Cambridge Crystallographic Data Centre
#                                CCDC 
#
#######################################################################
#
# If this CIF has been generated from an entry in the Cambridge 
# Structural Database, then it will include bibliographic, chemical, 
# crystal, experimental, refinement or atomic coordinate data resulting 
# from the CCDC's data processing and validation procedures.
#
#######################################################################

data_SENGEZ
_symmetry_cell_setting           triclinic
_symmetry_space_group_name_H-M   'P -1'
_symmetry_Int_Tables_number      2
_space_group_name_Hall           '-P 1'
loop_
_symmetry_equiv_pos_site_id
_symmetry_equiv_pos_as_xyz
1 x,y,z
2 -x,-y,-z
_cell_length_a                   9.2592(18)
_cell_length_b                   13.168(3)
_cell_length_c                   13.213(3)
_cell_angle_alpha                105.115(4)
_cell_angle_beta                 94.857(3)
_cell_angle_gamma                104.629(4)
_cell_volume                     1485.18
loop_
_atom_site_label
_atom_site_type_symbol
_atom_site_fract_x
_atom_site_fract_y
_atom_site_fract_z
Mn1 Mn 0.64831(5) 0.30978(4) 0.07984(4)
O1 O 0.7692(3) 0.3671(2) 0.2388(2)
O2 O 0.6659(3) 0.4937(3) 0.3261(3)
O3 O 0.7549(3) 0.18080(19) 0.0364(2)
O4 O 0.9620(3) 0.2644(2) -0.0173(3)
O5 O 0.5425(3) 0.4426(2) 0.1214(2)
O6 O 0.8333(3) 0.42486(19) 0.0338(2)
N1 N 0.3173(3) 0.1534(2) 0.2470(2)
N2 N 0.3726(4) 0.0660(3) 0.2126(3)
N3 N 0.4702(3) 0.1982(2) 0.1390(2)
N4 N 0.4805(3) 0.1716(2) 0.7396(2)
N5 N 0.3907(4) 0.2399(3) 0.7561(3)
N6 N 0.5259(3) 0.2525(2) 0.9105(2)
N7 N 0.0413(3) -0.2710(2) 0.3506(3)
N8 N 0.1732(4) -0.2971(3) 0.3506(3)
N9 N 0.0045(4) -0.4095(3) 0.2086(3)
C1 C 0.2222(4) 0.0890(3) 0.3947(3)
C2 C 0.3406(4) 0.1335(3) 0.4818(3)
C3 C 0.3591(4) 0.0709(3) 0.5502(3)
C4 C 0.2541(4) -0.0314(3) 0.5375(3)
C5 C 0.1353(4) -0.0730(3) 0.4519(3)
C6 C 0.1211(4) -0.0151(3) 0.3780(3)
C7 C 0.2054(4) 0.1552(3) 0.3192(3)
H1 H 0.1035 0.1256 0.2775
H2 H 0.2172 0.2313 0.3602
C8 C 0.4441(4) 0.2483(3) 0.5016(4)
H3 H 0.3853 0.3005 0.5141
H4 H 0.4927 0.2525 0.4399
H5 H 0.5205 0.2655 0.5632
C9 C 0.5004(4) 0.1098(3) 0.6335(3)
H6 H 0.5322 0.0459 0.6397
H7 H 0.5818 0.1567 0.6092
C10 C 0.2718(5) -0.0953(3) 0.6158(3)
H8 H 0.1924 -0.0948 0.6592
H9 H 0.3696 -0.0617 0.6610
H10 H 0.2647 -0.1705 0.5772
C11 C 0.0199(4) -0.1828(3) 0.4369(3)
H11 H 0.0271 -0.2028 0.5032
H12 H -0.0819 -0.1756 0.4216
C12 C 0.0001(5) -0.0673(3) 0.2802(3)
H13 H 0.0344 -0.1184 0.2274
H14 H -0.0192 -0.0106 0.2511
H15 H -0.0921 -0.1061 0.2995
C13 C 0.4640(4) 0.0979(3) 0.1496(3)
H16 H 0.5213 0.0543 0.1143
C14 C 0.3747(4) 0.2296(3) 0.2017(3)
H17 H 0.3514 0.2967 0.2124
C15 C 0.4221(4) 0.2860(3) 0.8596(3)
H18 H 0.3762 0.3380 0.8952
C16 C 0.5592(4) 0.1808(3) 0.8316(3)
H19 H 0.6293 0.1417 0.8399
C17 C 0.1446(5) -0.3804(4) 0.2649(4)
H20 H 0.2167 -0.4174 0.2440
C18 C -0.0565(4) -0.3390(3) 0.2663(3)
H21 H -0.1564 -0.3370 0.2500
C19 C 0.8850(4) 0.4714(3) 0.4139(3)
C20 C 0.9881(5) 0.4109(3) 0.4129(3)
H22 H 0.9809 0.3506 0.3539
C21 C 1.1022(5) 0.4399(3) 0.4998(3)
H23 H 1.1712 0.3983 0.4994
C22 C 0.7622(4) 0.4411(3) 0.3187(3)
C23 C 0.9451(4) 0.0907(3) 0.0070(3)
C24 C 0.8575(4) -0.0028(3) 0.0261(3)
H24 H 0.7606 -0.0051 0.0436
C25 C 0.9123(4) -0.0931(3) 0.0195(3)
H25 H 0.8527 -0.1559 0.0331
C26 C 0.8841(4) 0.1869(3) 0.0098(3)
H26 H 0.565(5) 0.464(3) 0.1886(16)
H27 H 0.452(2) 0.441(3) 0.109(3)
H28 H 0.874(4) 0.379(3) 0.004(3)
H29 H 0.881(4) 0.478(2) 0.085(2)
Mn1A Mn 1.35169(5) -0.30978(4) -0.07984(4)
Mn1_2 Mn 0.64831(5) 0.30978(4) 1.07984(4)
Mn1A_2 Mn 1.35169(5) -0.30978(4) -1.07984(4)
Mn1A_3 Mn 1.35169(5) 0.69022(4) 0.92016(4)
O1A O 1.2308(3) 0.6329(2) 0.7612(2)
O1A_2 O 1.2308(3) -0.3671(2) -0.2388(2)
O2A O 1.3341(3) 0.5063(3) 0.6739(3)
O3A O 1.2451(3) -0.18080(19) -0.0364(2)
O4A O 1.0380(3) -0.2644(2) 0.0173(3)
O5A O 1.4575(3) -0.4426(2) -0.1214(2)
O6A O 1.1667(3) -0.42486(19) -0.0338(2)
N1A N 1.6827(3) -0.1534(2) -0.2470(2)
N2A N 1.6274(4) -0.0660(3) -0.2126(3)
N3A N 1.5298(3) -0.1982(2) -0.1390(2)
N4A N 1.5195(3) -0.1716(2) -0.7396(2)
N5A N 1.6093(4) -0.2399(3) -0.7561(3)
N6A N 1.4741(3) -0.2525(2) -0.9105(2)
N6_2 N 0.5259(3) 0.2525(2) -0.0895(2)
N6A_2 N 1.4741(3) -0.2525(2) 0.0895(2)
N7A N 1.9587(3) 0.2710(2) -0.3506(3)
N8A N 1.8268(4) 0.2971(3) -0.3506(3)
N9A N 1.9955(4) 0.4095(3) -0.2086(3)
C1A C 1.7778(4) -0.0890(3) -0.3947(3)
C2A C 1.6594(4) -0.1335(3) -0.4818(3)
C3A C 1.6409(4) -0.0709(3) -0.5502(3)
C4A C 1.7459(4) 0.0314(3) -0.5375(3)
C5A C 1.8647(4) 0.0730(3) -0.4519(3)
C6A C 1.8789(4) 0.0151(3) -0.3780(3)
C7A C 1.7946(4) -0.1552(3) -0.3192(3)
H1A H 1.8965 -0.1256 -0.2775
H2A H 1.7828 -0.2313 -0.3602
C8A C 1.5559(4) -0.2483(3) -0.5016(4)
H3A H 1.6147 -0.3005 -0.5141
H4A H 1.5073 -0.2525 -0.4399
H5A H 1.4795 -0.2655 -0.5632
C9A C 1.4996(4) -0.1098(3) -0.6335(3)
H6A H 1.4678 -0.0459 -0.6397
H7A H 1.4182 -0.1567 -0.6092
C10A C 1.7282(5) 0.0953(3) -0.6158(3)
H8A H 1.8076 0.0948 -0.6592
H9A H 1.6304 0.0617 -0.6610
H10A H 1.7353 0.1705 -0.5772
C11A C 1.9801(4) 0.1828(3) -0.4369(3)
H11A H 1.9729 0.2028 -0.5032
H12A H 2.0819 0.1756 -0.4216
C12A C 1.9999(5) 0.0673(3) -0.2802(3)
H13A H 1.9656 0.1184 -0.2274
H14A H 2.0192 0.0106 -0.2511
H15A H 2.0921 0.1061 -0.2995
C13A C 1.5360(4) -0.0979(3) -0.1496(3)
H16A H 1.4787 -0.0543 -0.1143
C14A C 1.6253(4) -0.2296(3) -0.2017(3)
H17A H 1.6486 -0.2967 -0.2124
C15A C 1.5779(4) -0.2860(3) -0.8596(3)
H18A H 1.6238 -0.3380 -0.8952
C16A C 1.4408(4) -0.1808(3) -0.8316(3)
H19A H 1.3707 -0.1417 -0.8399
C17A C 1.8554(5) 0.3804(4) -0.2649(4)
H20A H 1.7833 0.4174 -0.2440
C18A C 2.0565(4) 0.3390(3) -0.2663(3)
H21A H 2.1564 0.3370 -0.2500
C19A C 1.1150(4) 0.5286(3) 0.5861(3)
C20A C 1.0119(5) 0.5891(3) 0.5871(3)
H22A H 1.0191 0.6494 0.6461
C21A C 0.8978(5) 0.5601(3) 0.5002(3)
H23A H 0.8288 0.6017 0.5006
C22A C 1.2378(4) 0.5589(3) 0.6813(3)
C23A C 1.0549(4) -0.0907(3) -0.0070(3)
C24A C 1.1425(4) 0.0028(3) -0.0261(3)
H24A H 1.2394 0.0051 -0.0436
C25A C 1.0877(4) 0.0931(3) -0.0195(3)
H25A H 1.1473 0.1559 -0.0331
C26A C 1.1159(4) -0.1869(3) -0.0098(3)
H26A H 1.435(5) -0.464(3) -0.1886(16)
H27A H 1.548(2) -0.441(3) -0.109(3)
H28A H 1.126(4) -0.379(3) -0.004(3)
H29A H 1.119(4) -0.478(2) -0.085(2)
O7 O 0.2511(3) 0.4263(3) 0.0595(3)
H30 H 0.184(4) 0.369(2) 0.038(3)
H31 H 0.231(4) 0.481(2) 0.048(3)
O8 O 0.3818(6) 0.4552(4) 0.3758(5)
loop_
_geom_bond_atom_site_label_1
_geom_bond_atom_site_label_2
_geom_bond_site_symmetry_1
_geom_bond_site_symmetry_2
Mn1 O1 1_555 1_555
O1 C22 1_555 1_555
O2 C22 1_555 1_555
O3 Mn1 1_555 1_555
O4 C26 1_555 1_555
O5 Mn1 1_555 1_555
O6 Mn1 1_555 1_555
O7 H30 1_555 1_555
N1 N2 1_555 1_555
N2 C13 1_555 1_555
N3 Mn1 1_555 1_555
N4 N5 1_555 1_555
N5 C15 1_555 1_555
N6 C15 1_555 1_555
N7 N8 1_555 1_555
N8 C17 1_555 1_555
N9 C17 1_555 1_555
C1 C2 1_555 1_555
C2 C3 1_555 1_555
C3 C4 1_555 1_555
C4 C5 1_555 1_555
C5 C6 1_555 1_555
C6 C1 1_555 1_555
C7 N1 1_555 1_555
H1 C7 1_555 1_555
H2 C7 1_555 1_555
C8 C2 1_555 1_555
H3 C8 1_555 1_555
H4 C8 1_555 1_555
H5 C8 1_555 1_555
C9 N4 1_555 1_555
H6 C9 1_555 1_555
H7 C9 1_555 1_555
C10 C4 1_555 1_555
H8 C10 1_555 1_555
H9 C10 1_555 1_555
H10 C10 1_555 1_555
C11 N7 1_555 1_555
H11 C11 1_555 1_555
H12 C11 1_555 1_555
C12 C6 1_555 1_555
H13 C12 1_555 1_555
H14 C12 1_555 1_555
H15 C12 1_555 1_555
C13 N3 1_555 1_555
H16 C13 1_555 1_555
C14 N1 1_555 1_555
H17 C14 1_555 1_555
C15 H18 1_555 1_555
C16 N4 1_555 1_555
H19 C16 1_555 1_555
C17 H20 1_555 1_555
C18 N7 1_555 1_555
H21 C18 1_555 1_555
C19 C20 1_555 1_555
C20 H22 1_555 1_555
C21 C20 1_555 1_555
H23 C21 1_555 1_555
C22 C19 1_555 1_555
C23 C24 1_555 1_555
C24 H24 1_555 1_555
C25 C24 1_555 1_555
H25 C25 1_555 1_555
C26 O3 1_555 1_555
H26 O5 1_555 1_555
H27 O5 1_555 1_555
H28 O6 1_555 1_555
H29 O6 1_555 1_555
H31 O7 1_555 1_555
Mn1A O1A_2 1_555 1_555
Mn1_2 N6 1_555 1_555
Mn1A_2 N6A 1_555 1_555
Mn1A_3 O1A 1_555 1_555
O1A C22A 1_555 1_555
O2A C22A 1_555 1_555
O3A Mn1A 1_555 1_555
O4A C26A 1_555 1_555
O5A Mn1A 1_555 1_555
O6A Mn1A 1_555 1_555
N1A N2A 1_555 1_555
N2A C13A 1_555 1_555
N3A Mn1A 1_555 1_555
N4A N5A 1_555 1_555
N5A C15A 1_555 1_555
N6A C15A 1_555 1_555
N6_2 Mn1 1_555 1_555
N6A_2 Mn1A 1_555 1_555
N7A N8A 1_555 1_555
N8A C17A 1_555 1_555
N9A C17A 1_555 1_555
C1A C2A 1_555 1_555
C2A C3A 1_555 1_555
C3A C4A 1_555 1_555
C4A C5A 1_555 1_555
C5A C6A 1_555 1_555
C6A C1A 1_555 1_555
C7A N1A 1_555 1_555
H1A C7A 1_555 1_555
H2A C7A 1_555 1_555
C8A C2A 1_555 1_555
H3A C8A 1_555 1_555
H4A C8A 1_555 1_555
H5A C8A 1_555 1_555
C9A N4A 1_555 1_555
H6A C9A 1_555 1_555
H7A C9A 1_555 1_555
C10A C4A 1_555 1_555
H8A C10A 1_555 1_555
H9A C10A 1_555 1_555
H10A C10A 1_555 1_555
C11A N7A 1_555 1_555
H11A C11A 1_555 1_555
H12A C11A 1_555 1_555
C12A C6A 1_555 1_555
H13A C12A 1_555 1_555
H14A C12A 1_555 1_555
H15A C12A 1_555 1_555
C13A N3A 1_555 1_555
H16A C13A 1_555 1_555
C14A N1A 1_555 1_555
H17A C14A 1_555 1_555
C15A H18A 1_555 1_555
C16A N4A 1_555 1_555
H19A C16A 1_555 1_555
C17A H20A 1_555 1_555
C18A N7A 1_555 1_555
H21A C18A 1_555 1_555
C19A C21 1_555 1_555
C20A C19A 1_555 1_555
H22A C20A 1_555 1_555
C21A C19 1_555 1_555
H23A C21A 1_555 1_555
C22A C19A 1_555 1_555
C23A C25 1_555 1_555
C24A C23A 1_555 1_555
H24A C24A 1_555 1_555
C25A C23 1_555 1_555
H25A C25A 1_555 1_555
C26A O3A 1_555 1_555
H26A O5A 1_555 1_555
H27A O5A 1_555 1_555
H28A O6A 1_555 1_555
H29A O6A 1_555 1_555
N3 C14 1_555 1_555
N6 C16 1_555 1_555
N9 C18 1_555 1_555
C1 C7 1_555 1_555
C3 C9 1_555 1_555
C5 C11 1_555 1_555
C23 C26 1_555 1_555
N3A C14A 1_555 1_555
N6A C16A 1_555 1_555
N9A C18A 1_555 1_555
C1A C7A 1_555 1_555
C3A C9A 1_555 1_555
C5A C11A 1_555 1_555
C20A C21A 1_555 1_555
C23A C26A 1_555 1_555
C24A C25A 1_555 1_555

#END
