
#######################################################################
#
#                 Cambridge Crystallographic Data Centre
#                                CCDC 
#
#######################################################################
#
# If this CIF has been generated from an entry in the Cambridge 
# Structural Database, then it will include bibliographic, chemical, 
# crystal, experimental, refinement or atomic coordinate data resulting 
# from the CCDC's data processing and validation procedures.
#
#######################################################################

data_SENKAY
_symmetry_cell_setting           monoclinic
_symmetry_space_group_name_H-M   'P 21/c'
_symmetry_Int_Tables_number      14
_space_group_name_Hall           '-P 2ybc'
loop_
_symmetry_equiv_pos_site_id
_symmetry_equiv_pos_as_xyz
1 x,y,z
2 -x,1/2+y,1/2-z
3 -x,-y,-z
4 x,1/2-y,1/2+z
_cell_length_a                   16.432(3)
_cell_length_b                   10.8059(17)
_cell_length_c                   16.627(3)
_cell_angle_alpha                90
_cell_angle_beta                 112.100(3)
_cell_angle_gamma                90
_cell_volume                     2735.42
loop_
_atom_site_label
_atom_site_type_symbol
_atom_site_fract_x
_atom_site_fract_y
_atom_site_fract_z
Zn1 Zn 0.25922(2) -0.09421(3) 0.52690(2)
O1 O 0.41757(16) -0.4562(2) 0.72498(16)
H1 H 0.3817 -0.3997 0.7119
O2 O 0.33855(14) -0.2629(2) 0.64885(15)
O3 O 0.37769(13) -0.16623(19) 0.55288(14)
O4 O -0.06538(18) -0.1902(3) 0.50067(19)
H2 H -0.0257 -0.1393 0.5105
O5 O 0.07898(17) -0.0967(2) 0.4993(2)
O6 O 0.17170(13) -0.2200(2) 0.47295(14)
N1 N 0.25582(16) 0.0198(2) 0.42659(15)
N2 N 0.26043(16) 0.4667(2) 0.11769(15)
C1 C 0.1881(2) 0.0943(3) 0.3882(2)
H3 H 0.1400 0.0894 0.4046
C2 C 0.1855(2) 0.1780(3) 0.3255(2)
H4 H 0.1362 0.2275 0.3002
C3 C 0.25535(18) 0.1894(2) 0.29959(17)
C4 C 0.3243(2) 0.1083(3) 0.3374(2)
H5 H 0.3724 0.1098 0.3208
C5 C 0.3222(2) 0.0257(3) 0.3992(2)
H6 H 0.3692 -0.0284 0.4231
C6 C 0.2091(2) 0.4762(3) 0.1625(2)
H7 H 0.1738 0.5460 0.1542
C7 C 0.2055(2) 0.3882(3) 0.2209(2)
H8 H 0.1675 0.3989 0.2500
C8 C 0.25769(18) 0.2845(3) 0.23633(17)
C9 C 0.3121(2) 0.2746(3) 0.1902(2)
H9 H 0.3484 0.2060 0.1977
C10 C 0.3120(2) 0.3670(3) 0.1331(2)
H10 H 0.3500 0.3595 0.1036
C11 C 0.38816(19) -0.2513(3) 0.60753(19)
C12 C 0.46065(17) -0.3429(3) 0.62190(18)
C13 C 0.51540(18) -0.3341(3) 0.57728(18)
H11 H 0.5098 -0.2671 0.5405
C14 C 0.58003(19) -0.4239(3) 0.58591(19)
C15 C 0.6381(2) -0.4166(4) 0.5404(2)
H12 H 0.6348 -0.3500 0.5039
C16 C 0.6991(2) -0.5081(5) 0.5509(3)
H13 H 0.7373 -0.5025 0.5216
C17 C 0.7048(3) -0.6084(4) 0.6040(3)
H14 H 0.7460 -0.6700 0.6091
C18 C 0.6516(2) -0.6188(3) 0.6490(2)
H15 H 0.6564 -0.6870 0.6846
C19 C 0.5883(2) -0.5261(3) 0.6418(2)
C20 C 0.5319(2) -0.5335(3) 0.6880(2)
H16 H 0.5366 -0.6000 0.7250
C21 C 0.4705(2) -0.4448(3) 0.6789(2)
C22 C 0.0966(2) -0.1964(3) 0.4730(2)
C23 C 0.02793(18) -0.2939(3) 0.43936(18)
C24 C -0.0498(2) -0.2874(3) 0.4576(2)
C25 C -0.1091(2) -0.3808(3) 0.4317(2)
H17 H -0.1582 -0.3780 0.4466
C26 C -0.0990(2) -0.4804(3) 0.3835(2)
C27 C -0.1611(3) -0.5780(4) 0.3537(3)
H18 H -0.2100 -0.5779 0.3689
C28 C -0.1510(3) -0.6695(4) 0.3046(3)
H19 H -0.1930 -0.7318 0.2859
C29 C -0.0783(4) -0.6731(4) 0.2810(3)
H20 H -0.0726 -0.7366 0.2457
C30 C -0.0156(3) -0.5829(4) 0.3094(3)
H21 H 0.0335 -0.5864 0.2945
C31 C -0.0242(2) -0.4855(3) 0.3611(2)
C32 C 0.03859(19) -0.3913(3) 0.3924(2)
H22 H 0.0895 -0.3956 0.3805
Zn1C Zn 0.25922(2) 0.59421(3) 0.02690(2)
N2C N 0.26043(16) 0.0333(2) 0.61769(15)
O7 O 0.5150(3) -0.4268(6) 0.9164(4)
H23 H 0.5499 -0.4849 0.9166
H24 H 0.4884 -0.4142 0.8623
loop_
_geom_bond_atom_site_label_1
_geom_bond_atom_site_label_2
_geom_bond_site_symmetry_1
_geom_bond_site_symmetry_2
Zn1 O3 1_555 1_555
O1 H1 1_555 1_555
O2 C11 1_555 1_555
O3 C11 1_555 1_555
O4 H2 1_555 1_555
O5 C22 1_555 1_555
O6 Zn1 1_555 1_555
N1 Zn1 1_555 1_555
N2 C6 1_555 1_555
C1 N1 1_555 1_555
H3 C1 1_555 1_555
C2 C1 1_555 1_555
H4 C2 1_555 1_555
C3 C2 1_555 1_555
C4 C3 1_555 1_555
H5 C4 1_555 1_555
C5 N1 1_555 1_555
H6 C5 1_555 1_555
C6 H7 1_555 1_555
C7 C6 1_555 1_555
H8 C7 1_555 1_555
C8 C3 1_555 1_555
C9 C8 1_555 1_555
H9 C9 1_555 1_555
C10 N2 1_555 1_555
H10 C10 1_555 1_555
C11 C12 1_555 1_555
C12 C13 1_555 1_555
C13 H11 1_555 1_555
C14 C13 1_555 1_555
C15 C14 1_555 1_555
H12 C15 1_555 1_555
C16 C15 1_555 1_555
H13 C16 1_555 1_555
C17 C16 1_555 1_555
H14 C17 1_555 1_555
C18 C17 1_555 1_555
H15 C18 1_555 1_555
C19 C14 1_555 1_555
C20 C19 1_555 1_555
H16 C20 1_555 1_555
C21 O1 1_555 1_555
C22 O6 1_555 1_555
C23 C22 1_555 1_555
C24 O4 1_555 1_555
C25 C24 1_555 1_555
H17 C25 1_555 1_555
C26 C25 1_555 1_555
C27 C26 1_555 1_555
H18 C27 1_555 1_555
C28 C27 1_555 1_555
H19 C28 1_555 1_555
C29 C28 1_555 1_555
H20 C29 1_555 1_555
C30 C29 1_555 1_555
H21 C30 1_555 1_555
C31 C26 1_555 1_555
C32 C23 1_555 1_555
H22 C32 1_555 1_555
O7 H23 1_555 1_555
H24 O7 1_555 1_555
Zn1C N2 1_555 1_555
N2C Zn1 1_555 1_555
C4 C5 1_555 1_555
C7 C8 1_555 1_555
C9 C10 1_555 1_555
C12 C21 1_555 1_555
C18 C19 1_555 1_555
C20 C21 1_555 1_555
C23 C24 1_555 1_555
C30 C31 1_555 1_555
C31 C32 1_555 1_555

#END
