
#######################################################################
#
#                 Cambridge Crystallographic Data Centre
#                                CCDC 
#
#######################################################################
#
# If this CIF has been generated from an entry in the Cambridge 
# Structural Database, then it will include bibliographic, chemical, 
# crystal, experimental, refinement or atomic coordinate data resulting 
# from the CCDC's data processing and validation procedures.
#
#######################################################################

data_SENMOO
_symmetry_cell_setting           monoclinic
_symmetry_space_group_name_H-M   'P 21/c'
_symmetry_Int_Tables_number      14
_space_group_name_Hall           '-P 2ybc'
loop_
_symmetry_equiv_pos_site_id
_symmetry_equiv_pos_as_xyz
1 x,y,z
2 -x,1/2+y,1/2-z
3 -x,-y,-z
4 x,1/2-y,1/2+z
_cell_length_a                   10.587(5)
_cell_length_b                   11.919(4)
_cell_length_c                   19.215(9)
_cell_angle_alpha                90
_cell_angle_beta                 102.20(4)
_cell_angle_gamma                90
_cell_volume                     2369.91
loop_
_atom_site_label
_atom_site_type_symbol
_atom_site_fract_x
_atom_site_fract_y
_atom_site_fract_z
Co1 Co 0.05077(6) 0.23388(5) 0.34040(3)
F1 F 0.3837(3) 0.0618(2) 0.5011(1)
F2 F 0.4313(3) 0.2187(3) 0.5569(2)
F3 F 0.5286(3) 0.1710(3) 0.4730(2)
F4 F 0.3965(3) 0.5665(2) 0.4084(1)
F5 F 0.3593(3) 0.5126(2) 0.2983(2)
F6 F 0.2111(3) 0.5967(2) 0.3396(1)
F7 F -0.2077(3) 0.3742(3) 0.5003(2)
F8 F -0.1738(3) 0.2264(3) 0.5653(2)
F9 F -0.0196(3) 0.3413(3) 0.5639(2)
F10 F -0.1194(5) -0.1197(3) 0.3347(2)
F11 F -0.2982(3) -0.0495(3) 0.3520(2)
F12 F -0.1570(3) -0.1170(2) 0.4395(1)
O1 O -0.1127(3) 0.2923(2) 0.2694(2)
O2 O -0.1227(3) 0.6795(2) 0.2467(2)
O3 O 0.2138(3) 0.1718(3) 0.4096(2)
O4 O 0.1471(3) 0.3817(2) 0.3363(2)
O5 O -0.0228(3) 0.2898(2) 0.4255(2)
O6 O -0.0428(3) 0.0853(2) 0.3444(2)
N1 N -0.1527(3) 0.3949(3) 0.2667(2)
N2 N -0.1581(3) 0.5775(3) 0.2552(2)
C1 C -0.0846(4) 0.4862(3) 0.2581(2)
C2 C -0.2945(4) 0.4213(4) 0.2587(2)
C3 C -0.2869(4) 0.5504(4) 0.2738(3)
C4 C -0.3505(4) 0.3514(4) 0.3110(3)
C5 C -0.3580(5) 0.3920(4) 0.1820(3)
C6 C -0.2692(5) 0.5803(4) 0.3521(3)
C7 C -0.3934(4) 0.6215(4) 0.2282(3)
C8 C 0.4133(5) 0.1686(4) 0.4925(3)
C9 C 0.3092(4) 0.2287(4) 0.4380(2)
C10 C 0.3381(5) 0.3423(4) 0.4249(3)
C11 C 0.2570(4) 0.4072(4) 0.3747(2)
C12 C 0.3048(4) 0.5220(4) 0.3560(3)
C13 C -0.1228(5) 0.2934(4) 0.5235(3)
C14 C -0.0858(4) 0.2314(4) 0.4602(2)
C15 C -0.1307(5) 0.1207(4) 0.4473(3)
C16 C -0.1049(4) 0.0578(4) 0.3905(3)
C17 C -0.1674(5) -0.0600(4) 0.3789(3)
H1 H 0.0037(4) 0.4861(3) 0.2547(2)
H2 H -0.4397(4) 0.3682(4) 0.3060(3)
H3 H -0.3404(4) 0.2740(4) 0.3018(3)
H4 H -0.3061(4) 0.3685(4) 0.3582(3)
H5 H -0.4480(5) 0.4073(4) 0.1740(3)
H6 H -0.3205(5) 0.4351(4) 0.1500(3)
H7 H -0.3452(5) 0.3144(4) 0.1743(3)
H8 H -0.2015(5) 0.5365(4) 0.3795(3)
H9 H -0.2485(5) 0.6576(4) 0.3585(3)
H10 H -0.3474(5) 0.5654(4) 0.3672(3)
H11 H -0.3743(4) 0.6988(4) 0.2367(3)
H12 H -0.3986(4) 0.6052(4) 0.1792(3)
H13 H -0.4737(4) 0.6045(4) 0.2404(3)
H14 H 0.4149(5) 0.3750(4) 0.4517(3)
H15 H -0.1803(5) 0.0879(4) 0.4779(3)
Co1A Co -0.05077(6) 0.73388(5) 0.15960(3)
O2A O 0.1227(3) 0.1795(2) 0.2533(2)
loop_
_geom_bond_atom_site_label_1
_geom_bond_atom_site_label_2
_geom_bond_site_symmetry_1
_geom_bond_site_symmetry_2
Co1 O1 1_555 1_555
F1 C8 1_555 1_555
F2 C8 1_555 1_555
F3 C8 1_555 1_555
F4 C12 1_555 1_555
F5 C12 1_555 1_555
F6 C12 1_555 1_555
F7 C13 1_555 1_555
F8 C13 1_555 1_555
F9 C13 1_555 1_555
F10 C17 1_555 1_555
F11 C17 1_555 1_555
F12 C17 1_555 1_555
O1 N1 1_555 1_555
O2 N2 1_555 1_555
O3 Co1 1_555 1_555
O4 Co1 1_555 1_555
O5 Co1 1_555 1_555
O6 Co1 1_555 1_555
N1 C1 1_555 1_555
N2 C1 1_555 1_555
C1 H1 1_555 1_555
C2 N1 1_555 1_555
C3 N2 1_555 1_555
C4 C2 1_555 1_555
C5 C2 1_555 1_555
C6 C3 1_555 1_555
C7 C3 1_555 1_555
C8 C9 1_555 1_555
C9 O3 1_555 1_555
C10 C9 1_555 1_555
C11 O4 1_555 1_555
C12 C11 1_555 1_555
C13 C14 1_555 1_555
C14 O5 1_555 1_555
C15 C14 1_555 1_555
C16 O6 1_555 1_555
C17 C16 1_555 1_555
H2 C4 1_555 1_555
H3 C4 1_555 1_555
H4 C4 1_555 1_555
H5 C5 1_555 1_555
H6 C5 1_555 1_555
H7 C5 1_555 1_555
H8 C6 1_555 1_555
H9 C6 1_555 1_555
H10 C6 1_555 1_555
H11 C7 1_555 1_555
H12 C7 1_555 1_555
H13 C7 1_555 1_555
H14 C10 1_555 1_555
H15 C15 1_555 1_555
Co1A O2 1_555 1_555
O2A Co1 1_555 1_555
C2 C3 1_555 1_555
C10 C11 1_555 1_555
C15 C16 1_555 1_555

#END
