
#######################################################################
#
#                 Cambridge Crystallographic Data Centre
#                                CCDC 
#
#######################################################################
#
# If this CIF has been generated from an entry in the Cambridge 
# Structural Database, then it will include bibliographic, chemical, 
# crystal, experimental, refinement or atomic coordinate data resulting 
# from the CCDC's data processing and validation procedures.
#
#######################################################################

data_SEPNAD
_symmetry_cell_setting           triclinic
_symmetry_space_group_name_H-M   'P -1'
_symmetry_Int_Tables_number      2
_space_group_name_Hall           '-P 1'
loop_
_symmetry_equiv_pos_site_id
_symmetry_equiv_pos_as_xyz
1 x,y,z
2 -x,-y,-z
_cell_length_a                   7.5572(15)
_cell_length_b                   11.613(2)
_cell_length_c                   11.820(2)
_cell_angle_alpha                97.15(3)
_cell_angle_beta                 101.07(3)
_cell_angle_gamma                107.09(3)
_cell_volume                     954.826
loop_
_atom_site_label
_atom_site_type_symbol
_atom_site_fract_x
_atom_site_fract_y
_atom_site_fract_z
Cd1 Cd 0.08914(3) 0.17005(2) 0.225005(19)
C1 C 0.2247(4) 0.5292(3) 0.1430(3)
C2 C 0.3825(5) 0.5651(3) 0.0942(3)
H1 H 0.4729 0.5250 0.1032
C3 C 0.4040(5) 0.6600(3) 0.0325(3)
H2 H 0.5091 0.6835 0.0003
C4 C 0.2702(4) 0.7203(3) 0.0182(2)
C5 C 0.1178(4) 0.6877(3) 0.0716(3)
H3 H 0.0300 0.7298 0.0655
C6 C 0.0974(4) 0.5937(3) 0.1331(3)
H4 H -0.0042 0.5731 0.1687
C7 C 0.1900(5) 0.4158(3) 0.1965(3)
C8 C 0.2792(4) 0.8109(3) -0.0630(3)
C9 C -0.0925(5) -0.1254(3) 0.2279(3)
H5 H -0.1608 -0.1296 0.1523
C10 C -0.1335(5) -0.2293(3) 0.2785(3)
H6 H -0.2254 -0.3022 0.2360
C11 C -0.0384(5) -0.2240(3) 0.3907(3)
H7 H -0.0675 -0.2928 0.4251
C12 C 0.1040(4) -0.1141(3) 0.4548(3)
C13 C 0.2054(4) -0.1003(3) 0.5734(3)
C14 C 0.3520(4) 0.0059(3) 0.6283(3)
C15 C 0.3970(4) 0.1071(3) 0.5675(3)
C16 C 0.5431(5) 0.2193(3) 0.6184(3)
H8 H 0.6205 0.2286 0.6926
C17 C 0.5712(5) 0.3131(3) 0.5602(3)
H9 H 0.6686 0.3869 0.5936
C18 C 0.4536(5) 0.2992(3) 0.4494(3)
H10 H 0.4733 0.3650 0.4105
C19 C 0.2885(4) 0.0987(3) 0.4541(3)
C20 C 0.1404(4) -0.0143(3) 0.3951(2)
N1 N 0.0412(4) -0.0203(2) 0.2844(2)
N2 N 0.3145(4) 0.1950(2) 0.3974(2)
N3 N 0.1453(4) -0.1920(2) 0.6389(2)
H11 H 0.2506 -0.1981 0.6848
H12 H 0.0885 -0.2639 0.5877
N4 N 0.4547(4) 0.0213(3) 0.7420(2)
H13 H 0.4278 -0.0366 0.7811
H14 H 0.5456 0.0888 0.7740
O1 O 0.2927(4) 0.3501(2) 0.1863(3)
O2 O 0.0538(4) 0.3873(3) 0.2441(3)
O3 O 0.3986(3) 0.8213(2) -0.1245(2)
O4 O 0.1594(3) 0.8684(2) -0.0677(2)
O5 O 0.2127(4) 0.0925(3) 0.0752(2)
H15 H 0.328(2) 0.121(4) 0.102(5)
H16 H 0.188(5) 0.0216(16) 0.041(3)
Cd1A Cd -0.08914(3) -0.17005(2) 0.774995(19)
Cd1A_2 Cd -0.08914(3) 0.82995(2) -0.225005(19)
C1A C -0.2247(4) 0.4708(3) -0.1430(3)
C2A C -0.3825(5) 0.4349(3) -0.0942(3)
H1A H -0.4729 0.4750 -0.1032
C3A C -0.4040(5) 0.3400(3) -0.0325(3)
H2A H -0.5091 0.3165 -0.0003
C4A C -0.2702(4) 0.2797(3) -0.0182(2)
C5A C -0.1178(4) 0.3123(3) -0.0716(3)
H3A H -0.0300 0.2702 -0.0655
C6A C -0.0974(4) 0.4063(3) -0.1331(3)
H4A H 0.0042 0.4269 -0.1687
C7A C -0.1900(5) 0.5842(3) -0.1965(3)
C8A C -0.2792(4) 0.1891(3) 0.0630(3)
C9A C 0.0925(5) 0.1254(3) 0.7721(3)
H5A H 0.1608 0.1296 0.8477
C10A C 0.1335(5) 0.2293(3) 0.7215(3)
H6A H 0.2254 0.3022 0.7640
C11A C 0.0384(5) 0.2240(3) 0.6093(3)
H7A H 0.0675 0.2928 0.5749
C12A C -0.1040(4) 0.1141(3) 0.5452(3)
C13A C -0.2054(4) 0.1003(3) 0.4266(3)
C14A C -0.3520(4) -0.0059(3) 0.3717(3)
C15A C -0.3970(4) -0.1071(3) 0.4325(3)
C16A C -0.5431(5) -0.2193(3) 0.3816(3)
H8A H -0.6205 -0.2286 0.3074
C17A C -0.5712(5) -0.3131(3) 0.4398(3)
H9A H -0.6686 -0.3869 0.4064
C18A C -0.4536(5) -0.2992(3) 0.5506(3)
H10A H -0.4733 -0.3650 0.5895
C19A C -0.2885(4) -0.0987(3) 0.5459(3)
C20A C -0.1404(4) 0.0143(3) 0.6049(2)
N1A N -0.0412(4) 0.0203(2) 0.7156(2)
N2A N -0.3145(4) -0.1950(2) 0.6026(2)
N3A N -0.1453(4) 0.1920(2) 0.3611(2)
H11A H -0.2506 0.1981 0.3152
H12A H -0.0885 0.2639 0.4123
N4A N -0.4547(4) -0.0213(3) 0.2580(2)
H13A H -0.4278 0.0366 0.2189
H14A H -0.5456 -0.0888 0.2260
O1A O -0.2927(4) 0.6499(2) -0.1863(3)
O1A_2 O -0.2927(4) -0.3501(2) 0.8137(3)
O2A O -0.0538(4) 0.6127(3) -0.2441(3)
O2A_2 O -0.0538(4) -0.3873(3) 0.7559(3)
O3A O -0.3986(3) 0.1787(2) 0.1245(2)
O4A O -0.1594(3) 0.1316(2) 0.0677(2)
O4_2 O 0.1594(3) -0.1316(2) 0.9323(2)
O5A O -0.2127(4) -0.0925(3) 0.9248(2)
H15A H -0.328(2) -0.121(4) 0.898(5)
H16A H -0.188(5) -0.0216(16) 0.959(3)
O6 O 0.7266(8) 0.4568(4) 0.2807(4)
H17 H 0.818(13) 0.444(15) 0.260(17)
H18 H 0.625(10) 0.404(9) 0.245(11)
O7 O 0.0000 0.5000 0.5000
loop_
_geom_bond_atom_site_label_1
_geom_bond_atom_site_label_2
_geom_bond_site_symmetry_1
_geom_bond_site_symmetry_2
Cd1 N1 1_555 1_555
C1 C2 1_555 1_555
C2 H1 1_555 1_555
C3 C2 1_555 1_555
H2 C3 1_555 1_555
C4 C3 1_555 1_555
C5 C4 1_555 1_555
H3 C5 1_555 1_555
C6 C1 1_555 1_555
H4 C6 1_555 1_555
C7 C1 1_555 1_555
C8 C4 1_555 1_555
C9 H5 1_555 1_555
C10 C9 1_555 1_555
H6 C10 1_555 1_555
C11 C10 1_555 1_555
H7 C11 1_555 1_555
C12 C11 1_555 1_555
C13 C12 1_555 1_555
C14 C13 1_555 1_555
C15 C14 1_555 1_555
C16 C15 1_555 1_555
H8 C16 1_555 1_555
C17 C16 1_555 1_555
H9 C17 1_555 1_555
C18 C17 1_555 1_555
H10 C18 1_555 1_555
C19 C15 1_555 1_555
C20 C12 1_555 1_555
N1 C9 1_555 1_555
N2 Cd1 1_555 1_555
N3 C13 1_555 1_555
H11 N3 1_555 1_555
H12 N3 1_555 1_555
N4 C14 1_555 1_555
H13 N4 1_555 1_555
H14 N4 1_555 1_555
O1 Cd1 1_555 1_555
O2 Cd1 1_555 1_555
O3 C8 1_555 1_555
O4 C8 1_555 1_555
O5 Cd1 1_555 1_555
O6 H17 1_555 1_555
H15 O5 1_555 1_555
H16 O5 1_555 1_555
H18 O6 1_555 1_555
Cd1A N3 1_555 1_555
Cd1A_2 O4 1_555 1_555
C1A C2A 1_555 1_555
C2A H1A 1_555 1_555
C3A C2A 1_555 1_555
H2A C3A 1_555 1_555
C4A C3A 1_555 1_555
C5A C4A 1_555 1_555
H3A C5A 1_555 1_555
C6A C1A 1_555 1_555
H4A C6A 1_555 1_555
C7A C1A 1_555 1_555
C8A C4A 1_555 1_555
C9A H5A 1_555 1_555
C10A C9A 1_555 1_555
H6A C10A 1_555 1_555
C11A C10A 1_555 1_555
H7A C11A 1_555 1_555
C12A C11A 1_555 1_555
C13A C12A 1_555 1_555
C14A C13A 1_555 1_555
C15A C14A 1_555 1_555
C16A C15A 1_555 1_555
H8A C16A 1_555 1_555
C17A C16A 1_555 1_555
H9A C17A 1_555 1_555
C18A C17A 1_555 1_555
H10A C18A 1_555 1_555
C19A C15A 1_555 1_555
C20A C12A 1_555 1_555
N1A Cd1A 1_555 1_555
N2A Cd1A 1_555 1_555
N3A Cd1 1_555 1_555
H11A N3A 1_555 1_555
H12A N3A 1_555 1_555
N4A C14A 1_555 1_555
H13A N4A 1_555 1_555
H14A N4A 1_555 1_555
O1A Cd1A_2 1_555 1_555
O1A_2 Cd1A 1_555 1_555
O2A Cd1A_2 1_555 1_555
O2A_2 Cd1A 1_555 1_555
O3A C8A 1_555 1_555
O4A Cd1 1_555 1_555
O4_2 Cd1A 1_555 1_555
O5A Cd1A 1_555 1_555
H15A O5A 1_555 1_555
H16A O5A 1_555 1_555
C5 C6 1_555 1_555
C7 O1 1_555 1_555
C7 O2 1_555 1_555
C18 N2 1_555 1_555
C19 C20 1_555 1_555
C19 N2 1_555 1_555
C20 N1 1_555 1_555
C5A C6A 1_555 1_555
C7A O1A 1_555 1_555
C7A O2A 1_555 1_555
C8A O4A 1_555 1_555
C9A N1A 1_555 1_555
C13A N3A 1_555 1_555
C18A N2A 1_555 1_555
C19A C20A 1_555 1_555
C19A N2A 1_555 1_555
C20A N1A 1_555 1_555

#END
