
#######################################################################
#
#                 Cambridge Crystallographic Data Centre
#                                CCDC 
#
#######################################################################
#
# If this CIF has been generated from an entry in the Cambridge 
# Structural Database, then it will include bibliographic, chemical, 
# crystal, experimental, refinement or atomic coordinate data resulting 
# from the CCDC's data processing and validation procedures.
#
#######################################################################

data_SEPPOT
_symmetry_cell_setting           tetragonal
_symmetry_space_group_name_H-M   'P 43 21 2'
_symmetry_Int_Tables_number      96
_space_group_name_Hall           'P 4nw 2abw'
loop_
_symmetry_equiv_pos_site_id
_symmetry_equiv_pos_as_xyz
1 x,y,z
2 -x,-y,1/2+z
3 1/2-y,1/2+x,3/4+z
4 1/2+y,1/2-x,1/4+z
5 1/2-x,1/2+y,3/4-z
6 1/2+x,1/2-y,1/4-z
7 y,x,-z
8 -y,-x,1/2-z
_cell_length_a                   9.0299(8)
_cell_length_b                   9.0299(8)
_cell_length_c                   17.424(3)
_cell_angle_alpha                90
_cell_angle_beta                 90
_cell_angle_gamma                90
_cell_volume                     1420.74
loop_
_atom_site_label
_atom_site_type_symbol
_atom_site_fract_x
_atom_site_fract_y
_atom_site_fract_z
Mn1 Mn 0.31854(5) 0.31854(5) 0.0000
O1 O 0.4237(2) 0.2136(2) 0.09913(11)
O2 O 0.6263(2) 0.1285(2) 0.15993(11)
N1 N 0.6394(2) 0.3606(2) 0.2500
N2 N 0.4213(3) 0.5787(3) 0.2500
N3 N 0.3716(3) 0.5649(3) 0.02880(13)
C1 C 0.5247(3) 0.2208(3) 0.14843(15)
C2 C 0.5245(3) 0.3533(3) 0.20143(16)
C3 C 0.4140(3) 0.4602(3) 0.20344(17)
H1 H 0.3322 0.4494 0.1715
C4 C 0.2705(4) 0.6603(4) 0.05595(17)
H2 H 0.1744 0.6266 0.0639
C5 C 0.3025(4) 0.8060(4) 0.07252(17)
H3 H 0.2309 0.8670 0.0942
C6 C 0.4397(4) 0.8595(4) 0.0568(2)
H4 H 0.4623 0.9584 0.0660
C7 C 0.5450(4) 0.7651(4) 0.02715(19)
H5 H 0.6394 0.7996 0.0156
C8 C 0.5082(3) 0.6174(3) 0.01472(16)
Mn1C Mn 0.81854(5) 0.18146(5) 0.2500
Mn1A Mn 0.68146(5) 0.68146(5) 0.5000
O1G O 0.7864(2) 0.5763(2) 0.40087(11)
O1F O 0.2136(2) 0.4237(2) -0.09913(11)
O2G O 0.8715(2) 0.3737(2) 0.34007(11)
O2B O 0.3715(2) 0.1263(2) -0.09007(11)
O2E O 0.1263(2) 0.3715(2) 0.09007(11)
N1B N 0.1394(2) 0.1394(2) 0.0000
N3F N 0.5649(3) 0.3716(3) -0.02880(13)
C1G C 0.7792(3) 0.4753(3) 0.35157(15)
C2G C 0.6467(3) 0.4755(3) 0.29857(16)
C3G C 0.5398(3) 0.5860(3) 0.29656(17)
H1G H 0.5506 0.6678 0.3285
C4F C 0.6603(4) 0.2705(4) -0.05595(17)
H2F H 0.6266 0.1744 -0.0639
C5F C 0.8060(4) 0.3025(4) -0.07252(17)
H3F H 0.8670 0.2309 -0.0942
C6F C 0.8595(4) 0.4397(4) -0.0568(2)
H4F H 0.9584 0.4623 -0.0660
C7F C 0.7651(4) 0.5450(4) -0.02715(19)
H5F H 0.7996 0.6394 -0.0156
C8F C 0.6174(3) 0.5082(3) -0.01472(16)
loop_
_geom_bond_atom_site_label_1
_geom_bond_atom_site_label_2
_geom_bond_site_symmetry_1
_geom_bond_site_symmetry_2
Mn1 O1 1_555 1_555
O1 C1 1_555 1_555
O2 C1 1_555 1_555
N1 C2 1_555 1_555
N2 C3 1_555 1_555
N3 Mn1 1_555 1_555
C1 C2 1_555 1_555
C2 C3 1_555 1_555
C3 H1 1_555 1_555
C4 N3 1_555 1_555
H2 C4 1_555 1_555
C5 C4 1_555 1_555
H3 C5 1_555 1_555
C6 C5 1_555 1_555
H4 C6 1_555 1_555
C7 C6 1_555 1_555
H5 C7 1_555 1_555
C8 N3 1_555 1_555
Mn1C O2 1_555 1_555
Mn1A O1G 1_555 1_555
O1G C1G 1_555 1_555
O1F Mn1 1_555 1_555
O2G Mn1C 1_555 1_555
O2B Mn1 1_555 1_555
O2E Mn1 1_555 1_555
N1B Mn1 1_555 1_555
N3F Mn1 1_555 1_555
C1G O2G 1_555 1_555
C2G N1 1_555 1_555
C3G N2 1_555 1_555
H1G C3G 1_555 1_555
C4F N3F 1_555 1_555
H2F C4F 1_555 1_555
C5F C4F 1_555 1_555
H3F C5F 1_555 1_555
C6F C5F 1_555 1_555
H4F C6F 1_555 1_555
C7F C6F 1_555 1_555
H5F C7F 1_555 1_555
C8F C8 1_555 1_555
N1 Mn1C 1_555 1_555
C7 C8 1_555 1_555
N3F C8F 1_555 1_555
C1G C2G 1_555 1_555
C2G C3G 1_555 1_555
C7F C8F 1_555 1_555

#END
