
#######################################################################
#
#                 Cambridge Crystallographic Data Centre
#                                CCDC 
#
#######################################################################
#
# If this CIF has been generated from an entry in the Cambridge 
# Structural Database, then it will include bibliographic, chemical, 
# crystal, experimental, refinement or atomic coordinate data resulting 
# from the CCDC's data processing and validation procedures.
#
#######################################################################

data_SEQLAC
_symmetry_cell_setting           monoclinic
_symmetry_space_group_name_H-M   'P 21/n'
_symmetry_Int_Tables_number      14
_space_group_name_Hall           '-P 2yn'
loop_
_symmetry_equiv_pos_site_id
_symmetry_equiv_pos_as_xyz
1 x,y,z
2 1/2-x,1/2+y,1/2-z
3 -x,-y,-z
4 1/2+x,1/2-y,1/2+z
_cell_length_a                   10.565(3)
_cell_length_b                   11.280(4)
_cell_length_c                   23.344(7)
_cell_angle_alpha                90
_cell_angle_beta                 92.500(5)
_cell_angle_gamma                90
_cell_volume                     2779.33
loop_
_atom_site_label
_atom_site_type_symbol
_atom_site_fract_x
_atom_site_fract_y
_atom_site_fract_z
B1 B 0.7219(4) 0.0640(4) 0.8828(2)
F1 F 0.8009(3) 0.0458(3) 0.92929(13)
F2 F 0.5998(3) 0.0804(3) 0.89994(17)
F3 F 0.7628(3) 0.1602(3) 0.85346(16)
F4 F 0.7188(3) -0.0291(3) 0.84568(16)
Ag1 Ag 0.61589(3) 0.57437(3) 0.140066(15)
N1 N 0.7250(3) 0.7321(3) 0.10955(14)
C1 C 0.8429(3) 0.7472(3) 0.13276(16)
C2 C 0.9265(4) 0.8286(4) 0.1102(2)
H1 H 1.0102 0.8371 0.1263
C3 C 0.8851(5) 0.8964(4) 0.0641(2)
H2 H 0.9403 0.9529 0.0482
C4 C 0.7630(5) 0.8824(5) 0.0408(2)
H3 H 0.7331 0.9288 0.0091
C5 C 0.6871(4) 0.7996(4) 0.06499(19)
H4 H 0.6033 0.7897 0.0493
N2 N 0.8096(3) 0.5807(3) 0.19640(14)
N3 N 0.8651(3) 0.5357(3) 0.24439(14)
C6 C 0.9700(4) 0.5988(4) 0.2611(2)
H5 H 1.0241 0.5836 0.2938
C7 C 0.9832(4) 0.6870(4) 0.22254(18)
H6 H 1.0480 0.7454 0.2225
C8 C 0.8805(3) 0.6739(3) 0.18255(16)
C9 C 0.8170(4) 0.4271(4) 0.2698(2)
H7 H 0.7237 0.4247 0.2638
H8 H 0.8368 0.4282 0.3116
C10 C 0.8725(4) 0.3180(4) 0.24474(17)
C11 C 0.9838(3) 0.2689(3) 0.26894(16)
H9 H 1.0228 0.3039 0.3022
C12 C 1.0386(3) 0.1692(3) 0.24495(17)
C13 C 0.9815(4) 0.1171(4) 0.19690(18)
H10 H 1.0188 0.0494 0.1803
C14 C 0.8698(4) 0.1635(4) 0.1729(2)
H11 H 0.8302 0.1271 0.1401
C15 C 0.8158(4) 0.2631(4) 0.19675(19)
H12 H 0.7392 0.2942 0.1801
C16 C 1.1619(3) 0.1210(4) 0.27159(18)
H13 H 1.2259 0.1179 0.2419
H14 H 1.1935 0.1760 0.3020
N4 N 1.0598(3) -0.0180(3) 0.33494(13)
N5 N 1.1485(3) 0.0034(3) 0.29616(13)
C17 C 1.2271(4) -0.0911(3) 0.29188(18)
H15 H 1.2970 -0.0967 0.2677
C18 C 1.1880(3) -0.1761(3) 0.32831(16)
H16 H 1.2243 -0.2522 0.3348
C19 C 1.0819(3) -0.1274(3) 0.35436(15)
N6 N 0.9052(3) -0.1081(3) 0.41443(15)
C20 C 0.9987(3) -0.1788(4) 0.39704(16)
C21 C 1.0139(4) -0.2933(4) 0.41675(18)
H17 H 1.0796 -0.3422 0.4034
C22 C 0.9316(4) -0.3355(5) 0.4563(2)
H18 H 0.9409 -0.4138 0.4708
C23 C 0.8366(4) -0.2643(5) 0.4747(2)
H19 H 0.7791 -0.2919 0.5019
C24 C 0.8271(4) -0.1524(5) 0.4527(2)
H20 H 0.7611 -0.1029 0.4654
Ag1A Ag 0.88411(3) 0.07437(3) 0.359934(15)
N4A N 0.4402(3) 0.4820(3) 0.16506(13)
N6A N 0.5948(3) 0.3919(3) 0.08557(15)
C25? C 1.1281(9) 0.5465(9) 0.0791(4)
H21? H 1.1371 0.6235 0.0603
H22? H 1.2122 0.5129 0.0881
H23? H 1.0834 0.5570 0.1147
C26? C 1.0560(12) 0.4661(11) 0.0410(5)
H24? H 1.1200 0.4511 0.0115
C27? C 1.0432(13) 0.3425(10) 0.0651(7)
H25? H 0.9985 0.2919 0.0366
H26? H 0.9951 0.3457 0.1000
H27? H 1.1276 0.3097 0.0741
O1? O 0.9515(6) 0.4795(9) 0.0068(4)
C28? C 0.9950(19) 0.510(2) -0.0794(6)
H28? H 1.0845 0.4896 -0.0731
H29? H 0.9838 0.5569 -0.1147
H30? H 0.9442 0.4379 -0.0828
C29? C 0.9549(16) 0.5784(15) -0.0324(6)
H31? H 1.0160 0.6420 -0.0200
C30? C 0.8233(16) 0.6145(18) -0.0318(7)
H32? H 0.8096 0.6833 -0.0570
H33? H 0.8024 0.6356 0.0074
H34? H 0.7690 0.5490 -0.0455
loop_
_geom_bond_atom_site_label_1
_geom_bond_atom_site_label_2
_geom_bond_site_symmetry_1
_geom_bond_site_symmetry_2
Ag1 N1 1_555 1_555
N1 C1 1_555 1_555
C1 C2 1_555 1_555
C2 H1 1_555 1_555
C3 C2 1_555 1_555
H2 C3 1_555 1_555
C4 C3 1_555 1_555
H3 C4 1_555 1_555
C5 N1 1_555 1_555
H4 C5 1_555 1_555
N2 Ag1 1_555 1_555
N3 N2 1_555 1_555
C6 N3 1_555 1_555
H5 C6 1_555 1_555
C7 C6 1_555 1_555
H6 C7 1_555 1_555
C8 C1 1_555 1_555
C9 N3 1_555 1_555
H7 C9 1_555 1_555
H8 C9 1_555 1_555
C10 C9 1_555 1_555
C11 C10 1_555 1_555
H9 C11 1_555 1_555
C12 C11 1_555 1_555
C13 C12 1_555 1_555
H10 C13 1_555 1_555
C14 C13 1_555 1_555
H11 C14 1_555 1_555
C15 C10 1_555 1_555
H12 C15 1_555 1_555
C16 C12 1_555 1_555
H13 C16 1_555 1_555
H14 C16 1_555 1_555
N4 N5 1_555 1_555
N5 C16 1_555 1_555
C17 N5 1_555 1_555
H15 C17 1_555 1_555
C18 C17 1_555 1_555
H16 C18 1_555 1_555
C19 N4 1_555 1_555
N6 C20 1_555 1_555
C20 C19 1_555 1_555
C21 C20 1_555 1_555
H17 C21 1_555 1_555
C22 C21 1_555 1_555
H18 C22 1_555 1_555
C23 C22 1_555 1_555
H19 C23 1_555 1_555
C24 N6 1_555 1_555
H20 C24 1_555 1_555
B1 F1 1_555 1_555
F2 B1 1_555 1_555
F3 B1 1_555 1_555
F4 B1 1_555 1_555
Ag1A N4 1_555 1_555
N4A Ag1 1_555 1_555
N6A Ag1 1_555 1_555
C4 C5 1_555 1_555
N2 C8 1_555 1_555
C7 C8 1_555 1_555
C14 C15 1_555 1_555
C18 C19 1_555 1_555
N6 Ag1A 1_555 1_555
C23 C24 1_555 1_555

#END
