
#######################################################################
#
#                 Cambridge Crystallographic Data Centre
#                                CCDC 
#
#######################################################################
#
# If this CIF has been generated from an entry in the Cambridge 
# Structural Database, then it will include bibliographic, chemical, 
# crystal, experimental, refinement or atomic coordinate data resulting 
# from the CCDC's data processing and validation procedures.
#
#######################################################################

data_SEQMEG
_symmetry_cell_setting           orthorhombic
_symmetry_space_group_name_H-M   'C c c a'
_symmetry_Int_Tables_number      68
_space_group_name_Hall           '-C 2a 2bc'
loop_
_symmetry_equiv_pos_site_id
_symmetry_equiv_pos_as_xyz
1 x,y,z
2 -x,1/2-y,z
3 1/2+x,-y,1/2-z
4 1/2-x,1/2+y,1/2-z
5 1/2+x,1/2+y,z
6 1/2-x,-y,z
7 x,1/2-y,1/2-z
8 -x,y,1/2-z
9 -x,-y,-z
10 x,1/2+y,-z
11 1/2-x,y,1/2+z
12 1/2+x,1/2-y,1/2+z
13 1/2-x,1/2-y,-z
14 1/2+x,y,-z
15 -x,1/2+y,1/2+z
16 x,-y,1/2+z
_cell_length_a                   12.1829(10)
_cell_length_b                   19.1078(14)
_cell_length_c                   17.4642(13)
_cell_angle_alpha                90
_cell_angle_beta                 90
_cell_angle_gamma                90
_cell_volume                     4065.46
loop_
_atom_site_label
_atom_site_type_symbol
_atom_site_fract_x
_atom_site_fract_y
_atom_site_fract_z
C9 C 0.00000 0.0302(6) 0.2500
S1 S 0.06542(22) 0.02749(23) 0.17944(19)
S1G S -0.06542(22) 0.02749(23) 0.32056(19)
Co1 Co 0.00000 0.25000 0.57645(5)
O1 O -0.6529(4) -0.1816(3) 0.56340(24)
O2 O -0.7320(4) -0.1346(3) 0.6614(3)
O3 O -0.5979(3) -0.20528(20) 0.6737(3)
N1 N -0.6632(4) -0.1716(3) 0.6317(3)
N2 N -0.0920(3) 0.15468(19) 0.58103(25)
N3 N -0.5 -0.2500 0.4531(3)
C1 C -0.5888(4) -0.2326(3) 0.4129(3)
C2 C -0.5919(4) -0.2321(3) 0.3341(3)
C3 C -0.5 -0.2500 0.2921(3)
C4 C -0.0995(5) 0.1119(3) 0.5211(3)
C5 C -0.1601(5) 0.0510(3) 0.5220(3)
C6 C -0.2159(4) 0.03247(21) 0.5874(3)
C7 C -0.2042(4) 0.07460(22) 0.6502(3)
C8 C -0.1417(4) 0.13489(23) 0.6446(3)
H1 H -0.342 -0.280 0.441
H2 H -0.338 -0.281 0.305
H3 H -0.063 0.127 0.471
H4 H -0.162 0.019 0.475
H5 H -0.242 0.062 0.700
H6 H -0.132 0.165 0.693
C6E C -0.2841(4) -0.03247(21) 0.5874(3)
C5E C -0.3399(5) -0.0510(3) 0.5220(3)
C4E C -0.4005(5) -0.1119(3) 0.5211(3)
N2E N -0.4080(3) -0.15468(19) 0.58103(25)
Co1E Co -0.50000 -0.25000 0.57645(5)
O1A O -0.3471(4) -0.3184(3) 0.56340(24)
N1A N -0.3368(4) -0.3284(3) 0.6317(3)
O2A O -0.2680(4) -0.3654(3) 0.6614(3)
O3A O -0.4021(3) -0.29472(20) 0.6737(3)
C2A C -0.4081(4) -0.2679(3) 0.3341(3)
C1A C -0.4112(4) -0.2674(3) 0.4129(3)
C3F C -0.5 -0.2500 0.2079(3)
C2F C -0.5919(4) -0.2679(3) 0.1659(3)
C1F C -0.5888(4) -0.2674(3) 0.0871(3)
N3F N -0.5 -0.2500 0.0469(3)
Co1C Co -0.50000 -0.25000 -0.07645(5)
O1F O -0.6529(4) -0.3184(3) -0.06340(24)
N1F N -0.6632(4) -0.3284(3) -0.1317(3)
O2F O -0.7320(4) -0.3654(3) -0.1614(3)
O3F O -0.5979(3) -0.29472(20) -0.1737(3)
O1G O -0.3471(4) -0.1816(3) -0.06340(24)
N1G N -0.3368(4) -0.1716(3) -0.1317(3)
O2G O -0.2680(4) -0.1346(3) -0.1614(3)
O3G O -0.4021(3) -0.20528(20) -0.1737(3)
N2C N -0.4080(3) -0.34532(19) -0.08103(25)
C4C C -0.4005(5) -0.3881(3) -0.0211(3)
C5C C -0.3399(5) -0.4490(3) -0.0220(3)
C6C C -0.2841(4) -0.46753(21) -0.0874(3)
C6F C -0.2159(4) -0.53247(21) -0.0874(3)
C5F C -0.1601(5) -0.5510(3) -0.0220(3)
C4F C -0.0995(5) -0.6119(3) -0.0211(3)
N2F N -0.0920(3) -0.65468(19) -0.08103(25)
Co1F Co 0.00000 -0.75000 -0.07645(5)
N2G N 0.0920(3) -0.84532(19) -0.08103(25)
C8F C -0.1417(4) -0.63489(23) -0.1446(3)
C7F C -0.2042(4) -0.57460(22) -0.1502(3)
H5F H -0.242 -0.562 -0.200
H6F H -0.132 -0.665 -0.193
H3F H -0.063 -0.627 0.029
H4F H -0.162 -0.519 0.025
C7C C -0.2958(4) -0.42540(22) -0.1502(3)
C8C C -0.3583(4) -0.36511(23) -0.1446(3)
H6C H -0.368 -0.335 -0.193
H5C H -0.258 -0.438 -0.200
H4C H -0.338 -0.481 0.025
H3C H -0.437 -0.373 0.029
C1G C -0.4112(4) -0.2326(3) 0.0871(3)
C2G C -0.4081(4) -0.2321(3) 0.1659(3)
H2F H -0.338 -0.219 0.195
H1F H -0.342 -0.220 0.059
H1G H -0.658 -0.280 0.059
H2G H -0.662 -0.281 0.195
H2A H -0.662 -0.219 0.305
H1A H -0.658 -0.220 0.441
C8E C -0.3583(4) -0.13489(23) 0.6446(3)
C7E C -0.2958(4) -0.07460(22) 0.6502(3)
H5E H -0.258 -0.062 0.700
H6E H -0.368 -0.165 0.693
H3E H -0.437 -0.127 0.471
H4E H -0.338 -0.019 0.475
N2A N 0.0920(3) 0.34532(19) 0.58103(25)
loop_
_geom_bond_atom_site_label_1
_geom_bond_atom_site_label_2
_geom_bond_site_symmetry_1
_geom_bond_site_symmetry_2
Co1 N2 1_555 1_555
O1 N1 1_555 1_555
O2 N1 1_555 1_555
O3 N1 1_555 1_555
N2 C4 1_555 1_555
N3 C1 1_555 1_555
C1 C2 1_555 1_555
C2 C3 1_555 1_555
C3 C2A 1_555 1_555
C4 C5 1_555 1_555
C5 C6 1_555 1_555
C6 C7 1_555 1_555
C7 C8 1_555 1_555
C8 N2 1_555 1_555
C9 S1 1_555 1_555
H1 C1A 1_555 1_555
H2 C2A 1_555 1_555
H3 C4 1_555 1_555
H4 C5 1_555 1_555
H5 C7 1_555 1_555
H6 C8 1_555 1_555
C6E C6 1_555 1_555
C5E C6E 1_555 1_555
C4E C5E 1_555 1_555
N2E C4E 1_555 1_555
Co1E O1 1_555 1_555
O1A Co1E 1_555 1_555
N1A O1A 1_555 1_555
O2A N1A 1_555 1_555
O3A Co1E 1_555 1_555
C2A C1A 1_555 1_555
C1A N3 1_555 1_555
C3F C3 1_555 1_555
C2F C3F 1_555 1_555
C1F C2F 1_555 1_555
N3F C1F 1_555 1_555
Co1C N3F 1_555 1_555
O1F Co1C 1_555 1_555
N1F O1F 1_555 1_555
O2F N1F 1_555 1_555
O3F Co1C 1_555 1_555
O1G Co1C 1_555 1_555
N1G O1G 1_555 1_555
O2G N1G 1_555 1_555
O3G Co1C 1_555 1_555
N2C Co1C 1_555 1_555
C4C N2C 1_555 1_555
C5C C4C 1_555 1_555
C6C C5C 1_555 1_555
C6F C6C 1_555 1_555
C5F C6F 1_555 1_555
C4F C5F 1_555 1_555
N2F C4F 1_555 1_555
Co1F N2F 1_555 1_555
N2G Co1F 1_555 1_555
C8F N2F 1_555 1_555
C7F C6F 1_555 1_555
H5F C7F 1_555 1_555
H6F C8F 1_555 1_555
H3F C4F 1_555 1_555
H4F C5F 1_555 1_555
C7C C6C 1_555 1_555
C8C N2C 1_555 1_555
H6C C8C 1_555 1_555
H5C C7C 1_555 1_555
H4C C5C 1_555 1_555
H3C C4C 1_555 1_555
C1G N3F 1_555 1_555
C2G C3F 1_555 1_555
H2F C2G 1_555 1_555
H1F C1G 1_555 1_555
H1G C1F 1_555 1_555
H2G C2F 1_555 1_555
H2A C2 1_555 1_555
H1A C1 1_555 1_555
C8E N2E 1_555 1_555
C7E C6E 1_555 1_555
H5E C7E 1_555 1_555
H6E C8E 1_555 1_555
H3E C4E 1_555 1_555
H4E C5E 1_555 1_555
N2A Co1 1_555 1_555
S1G C9 1_555 1_555
O3 Co1E 1_555 1_555
N3 Co1E 1_555 1_555
N2E Co1E 1_555 1_555
N1A O3A 1_555 1_555
N1F O3F 1_555 1_555
N1G O3G 1_555 1_555
C8F C7F 1_555 1_555
C7C C8C 1_555 1_555
C1G C2G 1_555 1_555
C8E C7E 1_555 1_555

#END
