
#######################################################################
#
#                 Cambridge Crystallographic Data Centre
#                                CCDC 
#
#######################################################################
#
# If this CIF has been generated from an entry in the Cambridge 
# Structural Database, then it will include bibliographic, chemical, 
# crystal, experimental, refinement or atomic coordinate data resulting 
# from the CCDC's data processing and validation procedures.
#
#######################################################################

data_SEQNOR
_symmetry_cell_setting           monoclinic
_symmetry_space_group_name_H-M   'P 21/c'
_symmetry_Int_Tables_number      14
_space_group_name_Hall           '-P 2ybc'
loop_
_symmetry_equiv_pos_site_id
_symmetry_equiv_pos_as_xyz
1 x,y,z
2 -x,1/2+y,1/2-z
3 -x,-y,-z
4 x,1/2-y,1/2+z
_cell_length_a                   10.417(2)
_cell_length_b                   15.204(3)
_cell_length_c                   8.558(2)
_cell_angle_alpha                90
_cell_angle_beta                 92.95(2)
_cell_angle_gamma                90
_cell_volume                     1353.62
loop_
_atom_site_label
_atom_site_type_symbol
_atom_site_fract_x
_atom_site_fract_y
_atom_site_fract_z
Co1 Co 0.2559(1) -0.0058(1) 0.1486(1)
N1 N 0.0805(5) 0.0723(4) 0.1364(6)
C1 C 0.0553(7) 0.1469(5) 0.2132(8)
C2 C -0.0630(7) 0.1865(5) 0.1974(9)
C3 C -0.1550(7) 0.1485(5) 0.1012(8)
N2 N 0.1321(5) -0.0730(3) -0.0244(6)
C4 C -0.0132(5) 0.0395(4) 0.0439(7)
N3 N 0.4327(5) -0.0798(4) 0.1251(6)
C5 C 0.4665(7) -0.1588(5) 0.1886(8)
C6 C 0.5824(6) -0.1962(5) 0.1615(8)
C7 C 0.6655(7) -0.1514(5) 0.0718(9)
N4 N 0.3653(5) 0.0726(3) -0.0087(6)
C8 C 0.5193(6) -0.0424(5) 0.0383(7)
O1 O 0.1853(5) -0.0959(4) 0.3004(6)
O2 O 0.3274(4) 0.0710(3) 0.3284(6)
H1 H 0.122 0.173 0.280
H2 H -0.081 0.239 0.254
H3 H -0.238 0.176 0.087
H4 H 0.408 -0.188 0.254
H5 H 0.605 -0.253 0.205
H6 H 0.748 -0.177 0.052
H7 H 0.224(6) -0.124(5) 0.390(6)
H8 H 0.096(2) -0.107(5) 0.307(8)
H9 H 0.410(3) 0.061(6) 0.379(7)
H10 H 0.272(5) 0.067(5) 0.414(5)
N2B N -0.1321(5) 0.0730(3) 0.0244(6)
Co1B Co -0.2559(1) 0.0058(1) -0.1486(1)
N1B N -0.0805(5) -0.0723(4) -0.1364(6)
C1B C -0.0553(7) -0.1469(5) -0.2132(8)
C2B C 0.0630(7) -0.1865(5) -0.1974(9)
C3B C 0.1550(7) -0.1485(5) -0.1012(8)
N4B N 0.6347(5) -0.0726(3) 0.0087(6)
Co1B_2 Co 0.7441(1) 0.0058(1) -0.1486(1)
N1B_2 N 0.9195(5) -0.0723(4) -0.1364(6)
N2B_2 N 0.8679(5) 0.0730(3) 0.0244(6)
N3B N 0.5673(5) 0.0798(4) -0.1251(6)
C5B C 0.5335(7) 0.1588(5) -0.1886(8)
C6B C 0.4176(6) 0.1962(5) -0.1615(8)
C7B C 0.3345(7) 0.1514(5) -0.0718(9)
C8B C 0.4807(6) 0.0424(5) -0.0383(7)
H6B H 0.252 0.177 -0.052
H5B H 0.395 0.253 -0.205
H4B H 0.592 0.188 -0.254
O1B O 0.8147(5) 0.0959(4) -0.3004(6)
H7B H 0.776(6) 0.124(5) -0.390(6)
H8B H 0.904(2) 0.107(5) -0.307(8)
O2B O 0.6726(4) -0.0710(3) -0.3284(6)
H9B H 0.590(3) -0.061(6) -0.379(7)
H10B H 0.728(5) -0.067(5) -0.414(5)
C4B C 0.0132(5) -0.0395(4) -0.0439(7)
H3B H 0.238 -0.176 -0.087
H2B H 0.081 -0.239 -0.254
H1B H -0.122 -0.173 -0.280
N5 N 0.6255(6) 0.1319(5) 0.3734(8)
O3 O 0.5842(5) 0.1382(4) 0.2355(6)
O4 O 0.5700(7) 0.0831(5) 0.4623(9)
O5 O 0.7167(6) 0.1757(4) 0.4258(7)
N6 N -0.1384(7) -0.1119(6) 0.3645(9)
O6 O -0.2067(16) -0.0441(11) 0.3923(18)
O8 O -0.1657(17) -0.1862(12) 0.4287(19)
O10 O -0.0704(14) -0.1019(10) 0.2496(17)
O7? O -0.1123(26) -0.0474(19) 0.4376(30)
O9? O -0.2083(20) -0.1614(14) 0.4241(24)
O11? O -0.0748(12) -0.1324(9) 0.2465(16)
loop_
_geom_bond_atom_site_label_1
_geom_bond_atom_site_label_2
_geom_bond_site_symmetry_1
_geom_bond_site_symmetry_2
Co1 N1 1_555 1_555
N1 C1 1_555 1_555
C1 C2 1_555 1_555
C2 C3 1_555 1_555
C3 H3 1_555 1_555
N2 Co1 1_555 1_555
C4 N1 1_555 1_555
N3 Co1 1_555 1_555
C5 N3 1_555 1_555
C6 C5 1_555 1_555
C7 C6 1_555 1_555
N4 Co1 1_555 1_555
C8 N3 1_555 1_555
O1 Co1 1_555 1_555
O2 Co1 1_555 1_555
N5 O3 1_555 1_555
O4 N5 1_555 1_555
O5 N5 1_555 1_555
N6 O6 1_555 1_555
O8 N6 1_555 1_555
O10 N6 1_555 1_555
H1 C1 1_555 1_555
H2 C2 1_555 1_555
H4 C5 1_555 1_555
H5 C6 1_555 1_555
H6 C7 1_555 1_555
H7 O1 1_555 1_555
H8 O1 1_555 1_555
H9 O2 1_555 1_555
H10 O2 1_555 1_555
N2B C3 1_555 1_555
Co1B N2B 1_555 1_555
N1B Co1B 1_555 1_555
C1B N1B 1_555 1_555
C2B C1B 1_555 1_555
C3B N2 1_555 1_555
N4B C7 1_555 1_555
Co1B_2 N4B 1_555 1_555
N1B_2 Co1B_2 1_555 1_555
N2B_2 Co1B_2 1_555 1_555
N3B Co1B_2 1_555 1_555
C5B N3B 1_555 1_555
C6B C5B 1_555 1_555
C7B N4 1_555 1_555
C8B N4 1_555 1_555
H6B C7B 1_555 1_555
H5B C6B 1_555 1_555
H4B C5B 1_555 1_555
O1B Co1B_2 1_555 1_555
H7B O1B 1_555 1_555
H8B O1B 1_555 1_555
O2B Co1B_2 1_555 1_555
H9B O2B 1_555 1_555
H10B O2B 1_555 1_555
C4B N2 1_555 1_555
H3B C3B 1_555 1_555
H2B C2B 1_555 1_555
H1B C1B 1_555 1_555
C4 N2B 1_555 1_555
C4 C4B 1_555 1_555
C8 C8B 1_555 1_555
C8 N4B 1_555 1_555
N1B C4B 1_555 1_555
C2B C3B 1_555 1_555
N3B C8B 1_555 1_555
C6B C7B 1_555 1_555

#END
