
#######################################################################
#
#                 Cambridge Crystallographic Data Centre
#                                CCDC 
#
#######################################################################
#
# If this CIF has been generated from an entry in the Cambridge 
# Structural Database, then it will include bibliographic, chemical, 
# crystal, experimental, refinement or atomic coordinate data resulting 
# from the CCDC's data processing and validation procedures.
#
#######################################################################

data_SERCUP
_symmetry_cell_setting           triclinic
_symmetry_space_group_name_H-M   'P -1'
_symmetry_Int_Tables_number      2
_space_group_name_Hall           '-P 1'
loop_
_symmetry_equiv_pos_site_id
_symmetry_equiv_pos_as_xyz
1 x,y,z
2 -x,-y,-z
_cell_length_a                   11.3853(4)
_cell_length_b                   12.0558(4)
_cell_length_c                   23.4951(9)
_cell_angle_alpha                93.417(2)
_cell_angle_beta                 97.951(2)
_cell_angle_gamma                109.364(2)
_cell_volume                     2993.98
loop_
_atom_site_label
_atom_site_type_symbol
_atom_site_fract_x
_atom_site_fract_y
_atom_site_fract_z
Cu1 Cu 0.69818(4) 0.53854(4) 0.81149(2)
Cu2 Cu 0.98617(4) 0.71439(4) 0.79644(2)
Cu3 Cu 0.80408(4) 0.48850(4) 0.70630(2)
Cu4 Cu 0.51908(4) 0.29339(4) 0.70951(2)
O1 O 0.8115(2) 0.6247(2) 0.76102(10)
H1 H 0.7744 0.6766 0.7404
O2 O 0.6828(2) 0.4005(2) 0.75392(10)
H2 H 0.7220 0.3503 0.7749
O3 O 0.6820(2) 0.6872(2) 0.84476(11)
O4 O 0.5190(3) 0.6291(2) 0.77344(12)
O5 O 0.5283(2) 1.1751(2) 0.75847(11)
O6 O 0.5613(3) 1.0422(3) 0.69763(12)
O7 O 0.1688(2) 0.7732(2) 0.81670(11)
O8 O 0.2007(3) 0.8781(3) 0.90176(12)
O9 O 0.6996(3) 1.0046(3) 0.99757(12)
H3 H 0.7318 1.0485 1.0278
O10 O 0.7380(4) 1.1721(3) 0.95989(16)
O11 O 0.8413(2) 0.3479(2) 0.68218(11)
O12 O 0.8410(3) 0.2759(3) 0.76775(12)
O13 O 1.3105(2) 0.3065(2) 0.74621(12)
O14 O 1.3417(2) 0.2010(2) 0.67434(11)
O15 O 0.9983(2) -0.1579(2) 0.74971(14)
O16 O 0.7943(2) -0.1873(2) 0.71991(13)
O17 O 0.7897(3) -0.0362(3) 0.52705(13)
H4 H 0.7639 -0.0441 0.4922
O18 O 0.9482(3) 0.1112(3) 0.50442(13)
N1 N 0.8783(3) 0.5129(3) 0.86079(14)
N2 N 0.9826(3) 0.5738(3) 0.83717(15)
N3 N 1.0264(3) 0.4368(3) 0.88363(14)
N4 N 1.5856(3) 0.4420(3) 0.86134(14)
N5 N 1.6234(3) 0.3772(3) 0.90133(16)
N6 N 1.4254(3) 0.3604(3) 0.90367(14)
N7 N 0.6306(3) 0.5004(3) 0.65001(15)
N8 N 0.5192(3) 0.4249(3) 0.66283(14)
N9 N 0.4762(3) 0.5639(3) 0.61879(14)
N10 N -0.0711(3) 0.5826(3) 0.65959(15)
N11 N -0.1081(3) 0.6478(3) 0.61924(17)
N12 N 0.0850(3) 0.6527(3) 0.61229(15)
C1 C 0.9067(3) 0.4321(4) 0.88785(17)
H5 H 0.8525 0.3782 0.9075
C2 C 1.0685(4) 0.5260(4) 0.85119(18)
H6 H 1.1479 0.5502 0.8403
C3 C 1.4684(4) 0.4299(4) 0.86314(17)
H7 H 1.4210 0.4645 0.8396
C4 C 1.5256(4) 0.3293(4) 0.9252(2)
H8 H 1.5241 0.2792 0.9539
C5 C 1.0937(3) 0.3611(4) 0.91043(17)
C6 C 1.2256(3) 0.3977(3) 0.89342(16)
H9 H 1.2180 0.3871 0.8517
H10 H 1.2714 0.4806 0.9068
C7 C 1.2972(3) 0.3224(4) 0.92041(17)
C8 C 1.3100(4) 0.3393(4) 0.98576(18)
H11 H 1.3571 0.4215 1.0001
H12 H 1.3558 0.2912 1.0029
C9 C 1.1774(4) 0.3031(5) 1.00292(19)
H13 H 1.1852 0.3142 1.0451
C10 C 1.1060(4) 0.3798(4) 0.97565(17)
H14 H 1.0228 0.3582 0.9865
H15 H 1.1515 0.4625 0.9895
C11 C 1.0223(4) 0.2319(4) 0.8877(2)
H16 H 1.0152 0.2212 0.8459
H17 H 0.9379 0.2080 0.8972
C12 C 1.0937(4) 0.1561(4) 0.9152(2)
H18 H 1.0474 0.0726 0.9011
C13 C 1.2268(4) 0.1928(4) 0.8978(2)
H19 H 1.2727 0.1441 0.9142
H20 H 1.2193 0.1819 0.8560
C14 C 1.1053(4) 0.1730(4) 0.9805(2)
H21 H 1.1498 0.1241 0.9979
H22 H 1.0219 0.1491 0.9912
C15 C 0.6016(4) 0.5819(4) 0.62379(19)
H23 H 0.6593 0.6447 0.6102
C16 C 0.4304(4) 0.4649(4) 0.64388(19)
H24 H 0.3460 0.4296 0.6472
C17 C 0.0448(4) 0.5886(4) 0.65502(19)
H25 H 0.0921 0.5534 0.6782
C18 C -0.0130(4) 0.6888(4) 0.5922(2)
H26 H -0.0120 0.7370 0.5627
C19 C 0.4057(4) 0.6368(4) 0.59203(17)
C20 C 0.2811(3) 0.6084(4) 0.61586(17)
H27 H 0.2317 0.5250 0.6062
H28 H 0.2986 0.6257 0.6576
C21 C 0.2072(3) 0.6827(4) 0.58962(17)
C22 C 0.2837(4) 0.8139(4) 0.60627(19)
H29 H 0.3009 0.8319 0.6480
H30 H 0.2362 0.8616 0.5902
C23 C 0.4077(4) 0.8423(4) 0.58270(19)
H31 H 0.4570 0.9266 0.5929
C24 C 0.4838(4) 0.7694(4) 0.60820(19)
H32 H 0.5037 0.7876 0.6499
H33 H 0.5625 0.7883 0.5931
C25 C 0.1780(4) 0.6525(4) 0.52402(17)
H34 H 0.1283 0.6975 0.5070
H35 H 0.1293 0.5690 0.5142
C26 C 0.3028(4) 0.6825(4) 0.49981(18)
H36 H 0.2852 0.6651 0.4576
C27 C 0.3785(4) 0.6075(4) 0.52664(17)
H37 H 0.3302 0.5240 0.5165
H38 H 0.4572 0.6247 0.5117
C28 C 0.3801(4) 0.8142(4) 0.5172(2)
H39 H 0.4590 0.8337 0.5023
H40 H 0.3335 0.8619 0.5004
C29 C 0.5867(4) 0.7020(3) 0.81450(17)
C30 C 0.5435(3) 1.0773(3) 0.74500(18)
C31 C 0.2395(3) 0.8422(3) 0.85962(17)
C32 C 0.6878(4) 1.0678(4) 0.95538(18)
C33 C 0.5552(3) 0.8121(3) 0.83063(16)
C34 C 0.5687(3) 0.8893(3) 0.78005(16)
H41 H 0.6548 0.9133 0.7726
H42 H 0.5132 0.8438 0.7453
C35 C 0.5349(3) 0.9986(3) 0.79500(15)
C36 C 0.3971(3) 0.9598(3) 0.80527(16)
H43 H 0.3750 1.0291 0.8143
H44 H 0.3413 0.9153 0.7704
C37 C 0.3798(3) 0.8830(3) 0.85522(15)
C38 C 0.4176(3) 0.7745(3) 0.84068(16)
H45 H 0.4073 0.7257 0.8722
H46 H 0.3623 0.7276 0.8062
C39 C 0.6429(3) 0.8858(3) 0.88538(17)
H47 H 0.7299 0.9107 0.8791
H48 H 0.6356 0.8380 0.9174
C40 C 0.6068(3) 0.9954(3) 0.90026(16)
C41 C 0.6214(3) 1.0713(3) 0.84953(16)
H49 H 0.5996 1.1409 0.8586
H50 H 0.7084 1.0973 0.8433
C42 C 0.4677(3) 0.9550(3) 0.91003(16)
H51 H 0.4580 0.9071 0.9420
H52 H 0.4452 1.0238 0.9199
C43 C 0.8589(3) 0.2749(3) 0.71734(17)
C44 C 1.2680(3) 0.2310(3) 0.70363(17)
C45 C 0.9081(4) -0.1284(3) 0.72519(17)
C46 C 0.8988(4) 0.0528(4) 0.53983(18)
C47 C 0.9137(3) 0.1853(3) 0.69273(16)
C48 C 1.0574(3) 0.2479(3) 0.70692(17)
H53 H 1.0805 0.3213 0.6894
H54 H 1.0831 0.2670 0.7485
C49 C 1.1263(3) 0.1697(3) 0.68459(16)
C50 C 1.0902(3) 0.0535(3) 0.71316(17)
H55 H 1.1332 0.0029 0.6990
H56 H 1.1165 0.0710 0.7547
C51 C 0.9477(3) -0.0100(3) 0.69907(17)
C52 C 0.8780(3) 0.0690(3) 0.72074(17)
H57 H 0.9002 0.0863 0.7625
H58 H 0.7876 0.0279 0.7111
C53 C 0.8741(3) 0.1565(3) 0.62711(16)
H59 H 0.8954 0.2290 0.6089
H60 H 0.7835 0.1163 0.6177
C54 C 0.9432(3) 0.0760(3) 0.60424(16)
C55 C 0.9085(3) -0.0389(3) 0.63331(16)
H61 H 0.8182 -0.0808 0.6238
H62 H 0.9511 -0.0897 0.6190
C56 C 1.0869(3) 0.1401(3) 0.61911(16)
H63 H 1.1302 0.0900 0.6048
H64 H 1.1103 0.2123 0.6006
O19 O 0.9418(3) 0.8195(4) 0.86929(16)
H65 H 1.0010 0.8231 0.8965
H66 H 0.8731 0.7718 0.8766
O20 O 0.5881(2) 0.2060(3) 0.62824(12)
H67 H 0.5819 0.1394 0.6401
H68 H 0.6659 0.2477 0.6322
Cu1_2 Cu 1.69818(4) 0.53854(4) 0.81149(2)
Cu2_2 Cu -0.01383(4) 0.71439(4) 0.79644(2)
Cu2_3 Cu 0.98617(4) -0.28561(4) 0.79644(2)
Cu3_2 Cu -0.19592(4) 0.48850(4) 0.70630(2)
Cu4_2 Cu 0.51908(4) 1.29339(4) 0.70951(2)
Cu4_3 Cu 1.51908(4) 0.29339(4) 0.70951(2)
O5_2 O 0.5283(2) 0.1751(2) 0.75847(11)
O7_2 O 1.1688(2) 0.7732(2) 0.81670(11)
O13_2 O 0.3105(2) 0.3065(2) 0.74621(12)
O14_2 O 0.3417(2) 0.2010(2) 0.67434(11)
O15_2 O 0.9983(2) 0.8421(2) 0.74971(14)
N4_2 N 0.5856(3) 0.4420(3) 0.86134(14)
N10_2 N 0.9289(3) 0.5826(3) 0.65959(15)
O21 O 0.2585(2) 0.5170(2) 0.75327(12)
H69 H 0.3346 0.5602 0.7533
H70 H 0.2525 0.4449 0.7477
O22 O 0.6503(3) -0.1151(4) 0.42988(15)
H71 H 0.6688 -0.1574 0.4048
H72 H 0.5708 -0.1412 0.4287
O23 O 0.7337(8) -0.3035(8) 0.4884(4)
H73 H 0.7330 -0.2333 0.4882
H74 H 0.7732 -0.3094 0.5209
O24 O 0.7515(10) 1.3369(10) 1.0398(5)
H75 H 0.7424 1.3002 1.0050
H76 H 0.7679 1.2841 1.0626
loop_
_geom_bond_atom_site_label_1
_geom_bond_atom_site_label_2
_geom_bond_site_symmetry_1
_geom_bond_site_symmetry_2
Cu1 O1 1_555 1_555
Cu2 O1 1_555 1_555
Cu3 O1 1_555 1_555
Cu4 O2 1_555 1_555
O1 H1 1_555 1_555
O2 Cu1 1_555 1_555
H2 O2 1_555 1_555
O3 Cu1 1_555 1_555
O4 Cu1 1_555 1_555
O5 C30 1_555 1_555
O6 C30 1_555 1_555
O7 C31 1_555 1_555
O8 C31 1_555 1_555
O9 H3 1_555 1_555
O10 C32 1_555 1_555
O11 Cu3 1_555 1_555
O12 C43 1_555 1_555
O13 C44 1_555 1_555
O14 C44 1_555 1_555
O15 C45 1_555 1_555
O16 C45 1_555 1_555
O17 H4 1_555 1_555
O18 C46 1_555 1_555
N1 Cu1 1_555 1_555
N2 Cu2 1_555 1_555
N3 C1 1_555 1_555
N4 N5 1_555 1_555
N5 C4 1_555 1_555
N6 C3 1_555 1_555
N7 Cu3 1_555 1_555
N8 Cu4 1_555 1_555
N9 C15 1_555 1_555
N10 N11 1_555 1_555
N11 C18 1_555 1_555
N12 C17 1_555 1_555
C1 N1 1_555 1_555
H5 C1 1_555 1_555
C2 N2 1_555 1_555
H6 C2 1_555 1_555
C3 N4 1_555 1_555
H7 C3 1_555 1_555
C4 N6 1_555 1_555
H8 C4 1_555 1_555
C5 N3 1_555 1_555
C6 C5 1_555 1_555
H9 C6 1_555 1_555
H10 C6 1_555 1_555
C7 N6 1_555 1_555
C8 C7 1_555 1_555
H11 C8 1_555 1_555
H12 C8 1_555 1_555
C9 C8 1_555 1_555
H13 C9 1_555 1_555
C10 C5 1_555 1_555
H14 C10 1_555 1_555
H15 C10 1_555 1_555
C11 C5 1_555 1_555
H16 C11 1_555 1_555
H17 C11 1_555 1_555
C12 C11 1_555 1_555
H18 C12 1_555 1_555
C13 C7 1_555 1_555
H19 C13 1_555 1_555
H20 C13 1_555 1_555
C14 C9 1_555 1_555
H21 C14 1_555 1_555
H22 C14 1_555 1_555
C15 N7 1_555 1_555
H23 C15 1_555 1_555
C16 N8 1_555 1_555
H24 C16 1_555 1_555
C17 N10 1_555 1_555
H25 C17 1_555 1_555
C18 N12 1_555 1_555
H26 C18 1_555 1_555
C19 N9 1_555 1_555
C20 C19 1_555 1_555
H27 C20 1_555 1_555
H28 C20 1_555 1_555
C21 N12 1_555 1_555
C22 C21 1_555 1_555
H29 C22 1_555 1_555
H30 C22 1_555 1_555
C23 C22 1_555 1_555
H31 C23 1_555 1_555
C24 C19 1_555 1_555
H32 C24 1_555 1_555
H33 C24 1_555 1_555
C25 C21 1_555 1_555
H34 C25 1_555 1_555
H35 C25 1_555 1_555
C26 C25 1_555 1_555
H36 C26 1_555 1_555
C27 C19 1_555 1_555
H37 C27 1_555 1_555
H38 C27 1_555 1_555
C28 C23 1_555 1_555
H39 C28 1_555 1_555
H40 C28 1_555 1_555
C29 O3 1_555 1_555
C30 C35 1_555 1_555
C31 C37 1_555 1_555
C32 O9 1_555 1_555
C33 C29 1_555 1_555
C34 C33 1_555 1_555
H41 C34 1_555 1_555
H42 C34 1_555 1_555
C35 C34 1_555 1_555
C36 C35 1_555 1_555
H43 C36 1_555 1_555
H44 C36 1_555 1_555
C37 C36 1_555 1_555
C38 C33 1_555 1_555
H45 C38 1_555 1_555
H46 C38 1_555 1_555
C39 C33 1_555 1_555
H47 C39 1_555 1_555
H48 C39 1_555 1_555
C40 C32 1_555 1_555
C41 C35 1_555 1_555
H49 C41 1_555 1_555
H50 C41 1_555 1_555
C42 C37 1_555 1_555
H51 C42 1_555 1_555
H52 C42 1_555 1_555
C43 O11 1_555 1_555
C44 C49 1_555 1_555
C45 C51 1_555 1_555
C46 O17 1_555 1_555
C47 C43 1_555 1_555
C48 C47 1_555 1_555
H53 C48 1_555 1_555
H54 C48 1_555 1_555
C49 C48 1_555 1_555
C50 C49 1_555 1_555
H55 C50 1_555 1_555
H56 C50 1_555 1_555
C51 C50 1_555 1_555
C52 C47 1_555 1_555
H57 C52 1_555 1_555
H58 C52 1_555 1_555
C53 C47 1_555 1_555
H59 C53 1_555 1_555
H60 C53 1_555 1_555
C54 C46 1_555 1_555
C55 C51 1_555 1_555
H61 C55 1_555 1_555
H62 C55 1_555 1_555
C56 C49 1_555 1_555
H63 C56 1_555 1_555
H64 C56 1_555 1_555
O19 Cu2 1_555 1_555
H65 O19 1_555 1_555
H66 O19 1_555 1_555
O20 Cu4 1_555 1_555
H67 O20 1_555 1_555
H68 O20 1_555 1_555
O21 H69 1_555 1_555
H70 O21 1_555 1_555
O22 H71 1_555 1_555
H72 O22 1_555 1_555
O23 H73 1_555 1_555
H74 O23 1_555 1_555
O24 H75 1_555 1_555
H76 O24 1_555 1_555
Cu1_2 N4 1_555 1_555
Cu2_2 O7 1_555 1_555
Cu2_3 O15 1_555 1_555
Cu3_2 N10 1_555 1_555
Cu4_2 O5 1_555 1_555
Cu4_3 O13 1_555 1_555
O5_2 Cu4 1_555 1_555
O7_2 Cu2 1_555 1_555
O13_2 Cu4 1_555 1_555
O14_2 Cu4 1_555 1_555
O15_2 Cu2 1_555 1_555
N4_2 Cu1 1_555 1_555
N10_2 Cu3 1_555 1_555
Cu3 O2 1_555 1_555
O4 C29 1_555 1_555
O14 Cu4_3 1_555 1_555
N1 N2 1_555 1_555
N3 C2 1_555 1_555
N7 N8 1_555 1_555
N9 C16 1_555 1_555
C6 C7 1_555 1_555
C9 C10 1_555 1_555
C12 C13 1_555 1_555
C12 C14 1_555 1_555
C20 C21 1_555 1_555
C23 C24 1_555 1_555
C26 C27 1_555 1_555
C26 C28 1_555 1_555
C37 C38 1_555 1_555
C39 C40 1_555 1_555
C40 C41 1_555 1_555
C40 C42 1_555 1_555
C51 C52 1_555 1_555
C53 C54 1_555 1_555
C54 C55 1_555 1_555
C54 C56 1_555 1_555

#END
