
#######################################################################
#
#                 Cambridge Crystallographic Data Centre
#                                CCDC 
#
#######################################################################
#
# If this CIF has been generated from an entry in the Cambridge 
# Structural Database, then it will include bibliographic, chemical, 
# crystal, experimental, refinement or atomic coordinate data resulting 
# from the CCDC's data processing and validation procedures.
#
#######################################################################

data_SERCOJ
_symmetry_cell_setting           triclinic
_symmetry_space_group_name_H-M   'P -1'
_symmetry_Int_Tables_number      2
_space_group_name_Hall           '-P 1'
loop_
_symmetry_equiv_pos_site_id
_symmetry_equiv_pos_as_xyz
1 x,y,z
2 -x,-y,-z
_cell_length_a                   8.6000(4)
_cell_length_b                   13.1848(7)
_cell_length_c                   18.3098(10)
_cell_angle_alpha                97.207(6)
_cell_angle_beta                 101.911(6)
_cell_angle_gamma                107.200(6)
_cell_volume                     1901.57
loop_
_atom_site_label
_atom_site_type_symbol
_atom_site_fract_x
_atom_site_fract_y
_atom_site_fract_z
Cu1 Cu 0.87850(5) 0.56349(3) 0.46771(2)
Cu2 Cu 0.71181(5) 0.34014(3) 0.53664(2)
Cu3 Cu 0.33110(5) 0.15796(3) -0.02877(2)
Cu4 Cu 0.34661(5) -0.08265(3) 0.02370(2)
O1 O 0.8345(3) 0.41463(18) 0.47219(12)
H1 H 0.7840 0.3797 0.4270
O2 O 0.4272(3) 0.07443(18) 0.03764(12)
H2 H 0.4226 0.0983 0.0822
O3 O 0.9250(3) 0.7187(2) 0.47680(16)
H3 H 1.0194 0.7587 0.4729
H4 H 0.8482 0.7402 0.4537
O4 O 0.9212(4) 0.5548(2) 0.36806(15)
O5 O 0.7894(5) 0.3788(3) 0.32279(17)
O6 O 0.5148(3) 0.28934(19) 0.02260(15)
O7 O 0.7429(3) 0.24043(18) 0.02062(13)
O8 O 0.8072(3) 0.7557(2) 0.07028(16)
O9 O 0.6337(3) 0.7130(2) 0.14257(17)
O10 O 1.3100(3) 0.6333(3) 0.11256(16)
H5 H 1.4135 0.6420 0.1163
O11 O 1.3446(4) 0.5297(3) 0.1971(2)
O12 O 0.7333(3) 0.20767(19) 0.48654(13)
O13 O 0.4715(3) 0.1644(2) 0.41813(15)
O14 O 0.5248(3) -0.08013(19) 0.11086(12)
O15 O 0.3100(3) -0.0726(2) 0.15577(14)
O16 O 0.3759(3) -0.26876(19) 0.38842(13)
O17 O 0.6281(3) -0.2808(2) 0.42924(17)
O18 O 1.1424(3) 0.0598(3) 0.40449(16)
H6 H 1.2435 0.0728 0.4014
O19 O 1.0932(4) 0.0064(5) 0.28311(18)
N1 N 0.7608(4) 0.5715(2) 0.55122(16)
N2 N 0.6943(4) 0.4815(2) 0.57912(15)
N3 N 0.6523(3) 0.6173(2) 0.64180(15)
N4 N 1.1337(3) 1.0217(2) 0.93324(15)
N5 N 1.1432(3) 0.9277(2) 0.95513(16)
N6 N 0.9003(3) 0.8922(2) 0.87534(16)
C1 C 0.7340(5) 0.6525(3) 0.5895(2)
H7 H 0.7665 0.7241 0.5818
C2 C 0.6305(4) 0.5106(3) 0.63370(18)
H8 H 0.5775 0.4643 0.6629
C3 C 0.9868(4) 0.9984(3) 0.88494(17)
H9 H 0.9478 1.0482 0.8607
C4 C 1.0018(4) 0.8506(3) 0.9204(2)
H10 H 0.9746 0.7779 0.9257
C5 C 0.6129(4) 0.6853(3) 0.70125(19)
H11 H 0.5318 0.6392 0.7240
H12 H 0.5620 0.7351 0.6784
C6 C 0.7712(5) 0.7485(3) 0.7616(2)
H13 H 0.8556 0.7889 0.7379
H14 H 0.8162 0.6984 0.7872
C7 C 0.7388(4) 0.8274(3) 0.8204(2)
H15 H 0.6879 0.8753 0.7949
H16 H 0.6607 0.7872 0.8471
C8 C 0.8519(5) 0.4754(3) 0.3144(2)
C9 C 0.6712(4) 0.3060(3) 0.04015(18)
C10 C 0.7482(4) 0.7004(3) 0.1160(2)
C11 C 1.2563(4) 0.5691(3) 0.15703(19)
C12 C 0.8635(4) 0.4984(3) 0.23483(19)
C13 C 0.7592(4) 0.3959(3) 0.17458(19)
H17 H 0.6401 0.3777 0.1746
H18 H 0.7962 0.3352 0.1870
C14 C 0.7793(4) 0.4133(3) 0.09526(17)
C15 C 0.7180(4) 0.5075(3) 0.07582(18)
H19 H 0.5985 0.4895 0.0750
H20 H 0.7301 0.5190 0.0252
C16 C 0.8222(4) 0.6121(3) 0.13580(19)
C17 C 0.8019(4) 0.5922(3) 0.2150(2)
H21 H 0.8669 0.6582 0.2535
H22 H 0.6831 0.5748 0.2154
C18 C 1.0494(4) 0.5283(3) 0.23415(18)
H23 H 1.1155 0.5943 0.2723
H24 H 1.0915 0.4699 0.2474
C19 C 0.9663(4) 0.4422(3) 0.09672(18)
H25 H 0.9810 0.4521 0.0461
H26 H 1.0061 0.3828 0.1097
C20 C 1.0094(4) 0.6402(3) 0.13517(19)
H27 H 1.0224 0.6516 0.0846
H28 H 1.0768 0.7072 0.1722
C21 C 1.0706(4) 0.5467(3) 0.15547(18)
C22 C 0.6105(4) 0.1510(3) 0.43064(18)
C23 C 0.4581(4) -0.0697(3) 0.16693(18)
C24 C 0.5344(4) -0.2376(3) 0.39519(18)
C25 C 1.0410(4) 0.0190(3) 0.33691(18)
C26 C 0.6407(4) 0.0604(3) 0.38017(17)
C27 C 0.5777(4) -0.0437(3) 0.41046(17)
H29 H 0.4580 -0.0601 0.4086
H30 H 0.6398 -0.0332 0.4637
C28 C 0.6031(4) -0.1389(3) 0.36224(17)
C29 C 0.5028(4) -0.1549(3) 0.27878(17)
H31 H 0.5174 -0.2157 0.2475
H32 H 0.3827 -0.1721 0.2762
C30 C 0.5650(4) -0.0516(3) 0.24782(17)
C31 C 0.5404(4) 0.0433(3) 0.29737(17)
H33 H 0.5787 0.1096 0.2777
H34 H 0.4206 0.0275 0.2951
C32 C 0.7529(4) -0.0254(3) 0.25098(17)
H35 H 0.7927 0.0404 0.2310
H36 H 0.7696 -0.0851 0.2195
C33 C 0.7914(4) -0.1119(3) 0.36528(18)
H37 H 0.8562 -0.1012 0.4180
H38 H 0.8088 -0.1724 0.3350
C34 C 0.8280(4) 0.0854(3) 0.38323(18)
H39 H 0.8927 0.0963 0.4360
H40 H 0.8692 0.1523 0.3645
C35 C 0.8534(4) -0.0087(3) 0.33398(17)
Cu1A Cu 1.12150(5) 0.43651(3) 0.53229(2)
Cu2A Cu 0.28819(5) -0.34014(3) 0.46336(2)
Cu3_2 Cu 1.33110(5) 1.15796(3) 0.97123(2)
Cu3A Cu 0.66890(5) -0.15796(3) 0.02877(2)
Cu3A_2 Cu 0.66890(5) 0.84204(3) 0.02877(2)
Cu4_2 Cu 1.34661(5) 0.91735(3) 1.02370(2)
Cu4A Cu 0.65339(5) 0.08265(3) -0.02370(2)
O1A O 1.1655(3) 0.58537(18) 0.52781(12)
O2A O 0.5728(3) -0.07443(18) -0.03764(12)
O7A O 0.2571(3) -0.24043(18) -0.02062(13)
O8A O 0.1928(3) 0.2443(2) -0.07028(16)
O14A O 0.4752(3) 0.08013(19) -0.11086(12)
O16A O 0.6241(3) 0.26876(19) 0.61158(13)
N4_2 N 0.1337(3) 0.0217(2) -0.06676(15)
N5_2 N 0.1432(3) -0.0723(2) -0.04487(16)
O20 O 1.2969(14) 0.3505(9) 0.0987(7)
H41 H 1.3767 0.3437 0.0800
H42 H 1.3310 0.4116 0.1288
O21 O 0.888(2) 0.1958(16) 0.6380(13)
loop_
_geom_bond_atom_site_label_1
_geom_bond_atom_site_label_2
_geom_bond_site_symmetry_1
_geom_bond_site_symmetry_2
Cu1 O1 1_555 1_555
Cu2 O1 1_555 1_555
Cu3 O2 1_555 1_555
Cu4 O2 1_555 1_555
O1 H1 1_555 1_555
O2 H2 1_555 1_555
O3 Cu1 1_555 1_555
H3 O3 1_555 1_555
H4 O3 1_555 1_555
O4 Cu1 1_555 1_555
O5 C8 1_555 1_555
O6 Cu3 1_555 1_555
O7 C9 1_555 1_555
O8 C10 1_555 1_555
O9 C10 1_555 1_555
O10 H5 1_555 1_555
O11 C11 1_555 1_555
O12 Cu2 1_555 1_555
O13 C22 1_555 1_555
O14 Cu4 1_555 1_555
O15 Cu4 1_555 1_555
O16 C24 1_555 1_555
O17 C24 1_555 1_555
O18 H6 1_555 1_555
O19 C25 1_555 1_555
N1 Cu1 1_555 1_555
N2 Cu2 1_555 1_555
N3 C1 1_555 1_555
N4 N5 1_555 1_555
N5 C4 1_555 1_555
N6 C3 1_555 1_555
C1 N1 1_555 1_555
H7 C1 1_555 1_555
C2 N2 1_555 1_555
H8 C2 1_555 1_555
C3 N4 1_555 1_555
H9 C3 1_555 1_555
C4 N6 1_555 1_555
H10 C4 1_555 1_555
C5 N3 1_555 1_555
H11 C5 1_555 1_555
H12 C5 1_555 1_555
C6 C5 1_555 1_555
H13 C6 1_555 1_555
H14 C6 1_555 1_555
C7 N6 1_555 1_555
H15 C7 1_555 1_555
H16 C7 1_555 1_555
C8 O4 1_555 1_555
C9 O6 1_555 1_555
C10 C16 1_555 1_555
C11 O10 1_555 1_555
C12 C8 1_555 1_555
C13 C12 1_555 1_555
H17 C13 1_555 1_555
H18 C13 1_555 1_555
C14 C9 1_555 1_555
C15 C14 1_555 1_555
H19 C15 1_555 1_555
H20 C15 1_555 1_555
C16 C15 1_555 1_555
C17 C12 1_555 1_555
H21 C17 1_555 1_555
H22 C17 1_555 1_555
C18 C12 1_555 1_555
H23 C18 1_555 1_555
H24 C18 1_555 1_555
C19 C14 1_555 1_555
H25 C19 1_555 1_555
H26 C19 1_555 1_555
C20 C16 1_555 1_555
H27 C20 1_555 1_555
H28 C20 1_555 1_555
C21 C11 1_555 1_555
C22 O12 1_555 1_555
C23 O14 1_555 1_555
C24 C28 1_555 1_555
C25 O18 1_555 1_555
C26 C22 1_555 1_555
C27 C26 1_555 1_555
H29 C27 1_555 1_555
H30 C27 1_555 1_555
C28 C27 1_555 1_555
C29 C28 1_555 1_555
H31 C29 1_555 1_555
H32 C29 1_555 1_555
C30 C23 1_555 1_555
C31 C26 1_555 1_555
H33 C31 1_555 1_555
H34 C31 1_555 1_555
C32 C30 1_555 1_555
H35 C32 1_555 1_555
H36 C32 1_555 1_555
C33 C28 1_555 1_555
H37 C33 1_555 1_555
H38 C33 1_555 1_555
C34 C26 1_555 1_555
H39 C34 1_555 1_555
H40 C34 1_555 1_555
C35 C25 1_555 1_555
O20 H41 1_555 1_555
H42 O20 1_555 1_555
Cu1A O1 1_555 1_555
Cu2A O16 1_555 1_555
Cu3_2 N4 1_555 1_555
Cu3A O14 1_555 1_555
Cu3A_2 O8 1_555 1_555
Cu4_2 N5 1_555 1_555
Cu4A O2 1_555 1_555
O1A Cu1 1_555 1_555
O2A Cu4 1_555 1_555
O7A Cu4 1_555 1_555
O8A Cu3 1_555 1_555
O14A Cu3 1_555 1_555
O16A Cu2 1_555 1_555
N4_2 Cu3 1_555 1_555
N5_2 Cu4 1_555 1_555
O7 Cu4A 1_555 1_555
O15 C23 1_555 1_555
N1 N2 1_555 1_555
N3 C2 1_555 1_555
C6 C7 1_555 1_555
C13 C14 1_555 1_555
C16 C17 1_555 1_555
C18 C21 1_555 1_555
C19 C21 1_555 1_555
C20 C21 1_555 1_555
C29 C30 1_555 1_555
C30 C31 1_555 1_555
C32 C35 1_555 1_555
C33 C35 1_555 1_555
C34 C35 1_555 1_555
Cu1A O1A 1_555 1_555
Cu3A O2A 1_555 1_555
Cu4A O2A 1_555 1_555
Cu4A O14A 1_555 1_555
N4_2 N5_2 1_555 1_555

#END
