
#######################################################################
#
#                 Cambridge Crystallographic Data Centre
#                                CCDC 
#
#######################################################################
#
# If this CIF has been generated from an entry in the Cambridge 
# Structural Database, then it will include bibliographic, chemical, 
# crystal, experimental, refinement or atomic coordinate data resulting 
# from the CCDC's data processing and validation procedures.
#
#######################################################################

data_SERLUX
_symmetry_cell_setting           monoclinic
_symmetry_space_group_name_H-M   'C 2/m'
_symmetry_Int_Tables_number      12
_space_group_name_Hall           '-C 2y'
loop_
_symmetry_equiv_pos_site_id
_symmetry_equiv_pos_as_xyz
1 x,y,z
2 1/2+x,1/2+y,z
3 -x,y,-z
4 1/2-x,1/2+y,-z
5 -x,-y,-z
6 1/2-x,1/2-y,-z
7 x,-y,z
8 1/2+x,1/2-y,z
_cell_length_a                   32.180(6)
_cell_length_b                   17.027(3)
_cell_length_c                   8.1453(15)
_cell_angle_alpha                90
_cell_angle_beta                 102.541(3)
_cell_angle_gamma                90
_cell_volume                     4356.56
loop_
_atom_site_label
_atom_site_type_symbol
_atom_site_fract_x
_atom_site_fract_y
_atom_site_fract_z
Ag1 Ag 0.148265(17) 0.60849(3) 0.06722(7)
N1 N 0.21166(17) 0.5408(3) 0.1171(6)
N2 N 0.11975(16) 0.5407(3) 0.2614(6)
C1 C 0.2501(2) 0.5621(4) 0.1467(8)
C2 C 0.2679(2) 0.6421(4) 0.1721(8)
C3 C 0.3021(2) 0.6636(4) 0.1086(8)
H1 H 0.3153 0.6272 0.0518
C4 C 0.3174(2) 0.7415(4) 0.1297(8)
C5 C 0.3529(2) 0.7639(4) 0.0619(9)
C6 C 0.3849(3) 0.7742(5) 0.0102(12)
H2 H 0.4099 0.7481 0.0047
C7 C 0.2969(2) 0.7951(4) 0.2167(9)
H3 H 0.3066 0.8466 0.2319
C8 C 0.2624(2) 0.7715(4) 0.2799(9)
H4 H 0.2489 0.8073 0.3371
C9 C 0.2478(2) 0.6956(4) 0.2589(8)
H5 H 0.2246 0.6799 0.3023
C10 C 0.1023(2) 0.5630(5) 0.3821(8)
C11 C 0.0956(3) 0.6408(5) 0.4383(8)
C12 C 0.1221(3) 0.7012(5) 0.4105(9)
H6 H 0.1448 0.6896 0.3612
C13 C 0.1159(4) 0.7781(6) 0.4530(12)
C14 C 0.1440(4) 0.8363(7) 0.4230(14)
C15 C 0.1685(5) 0.8840(8) 0.395(2)
H7 H 0.1876 0.9214 0.3730
C16 C 0.0835(4) 0.7917(8) 0.5358(13)
H8 H 0.0793 0.8427 0.5697
C17 C 0.0568(4) 0.7332(8) 0.5710(14)
H9 H 0.0353 0.7451 0.6268
C18 C 0.0626(3) 0.6572(7) 0.5223(11)
H10 H 0.0449 0.6172 0.5446
O1 O 0.0891(2) 0.5000 0.4596(8)
O2 O 0.27730(18) 0.5000 0.1689(7)
O3 O 0.1230(3) 0.5000 -0.1400(8)
H11 H 0.1372 0.5000 -0.2335
H12 H 0.0923 0.5000 -0.1810
Ag1F Ag 0.148265(17) 0.39151(3) 0.06722(7)
Ag1E Ag 0.351735(17) 0.89151(3) -0.06722(7)
Ag1C Ag 0.351735(17) 0.10849(3) -0.06722(7)
N1F N 0.21166(17) 0.4592(3) 0.1171(6)
N2F N 0.11975(16) 0.4593(3) 0.2614(6)
C1F C 0.2501(2) 0.4379(4) 0.1467(8)
C2F C 0.2679(2) 0.3579(4) 0.1721(8)
C3F C 0.3021(2) 0.3364(4) 0.1086(8)
H1F H 0.3153 0.3728 0.0518
C4F C 0.3174(2) 0.2585(4) 0.1297(8)
C5F C 0.3529(2) 0.2361(4) 0.0619(9)
C5E C 0.1471(2) 0.7361(4) -0.0619(9)
C5C C 0.1471(2) 0.2639(4) -0.0619(9)
C6F C 0.3849(3) 0.2258(5) 0.0102(12)
C6E C 0.1151(3) 0.7258(5) -0.0102(12)
C6C C 0.1151(3) 0.2742(5) -0.0102(12)
H2F H 0.4099 0.2519 0.0047
H2E H 0.0901 0.7519 -0.0047
H2C H 0.0901 0.2481 -0.0047
C7F C 0.2969(2) 0.2049(4) 0.2167(9)
H3F H 0.3066 0.1534 0.2319
C8F C 0.2624(2) 0.2285(4) 0.2799(9)
H4F H 0.2489 0.1927 0.3371
C9F C 0.2478(2) 0.3044(4) 0.2589(8)
H5F H 0.2246 0.3201 0.3023
C10F C 0.1023(2) 0.4370(5) 0.3821(8)
C11F C 0.0956(3) 0.3592(5) 0.4383(8)
C12F C 0.1221(3) 0.2988(5) 0.4105(9)
H6F H 0.1448 0.3104 0.3612
C13F C 0.1159(4) 0.2219(6) 0.4530(12)
C14F C 0.1440(4) 0.1637(7) 0.4230(14)
C15F C 0.1685(5) 0.1160(8) 0.395(2)
H7F H 0.1876 0.0786 0.3730
C16F C 0.0835(4) 0.2083(8) 0.5358(13)
H8F H 0.0793 0.1573 0.5697
C17F C 0.0568(4) 0.2668(8) 0.5710(14)
H9F H 0.0353 0.2549 0.6268
C18F C 0.0626(3) 0.3428(7) 0.5223(11)
H10F H 0.0449 0.3828 0.5446
O4 O 0.0364(3) 0.5000 0.7790(15)
H13 H 0.0094(8) 0.5000 0.76(4)
H14 H 0.050(9) 0.5000 0.881(13)
B1 B 0.2189(4) 0.5000 0.6089(14)
F1 F 0.2491(3) 0.5000 0.7560(10)
F2 F 0.1807(2) 0.5000 0.6483(10)
F3 F 0.2219(2) 0.4358(3) 0.5145(7)
F3F F 0.2219(2) 0.5642(3) 0.5145(7)
B2 B 0.0000 0.3238(16) 0.0000
F4 F 0.0267(5) 0.2734(11) 0.096(2)
F6 F 0.0323(6) 0.3747(11) 0.042(3)
F4B F -0.0267(5) 0.2734(11) -0.096(2)
F6B F -0.0323(6) 0.3747(11) -0.042(3)
F5? F 0.0175(6) 0.3431(13) -0.1326(19)
loop_
_geom_bond_atom_site_label_1
_geom_bond_atom_site_label_2
_geom_bond_site_symmetry_1
_geom_bond_site_symmetry_2
Ag1 N1 1_555 1_555
N1 C1 1_555 1_555
N2 Ag1 1_555 1_555
C1 C2 1_555 1_555
C2 C3 1_555 1_555
C3 H1 1_555 1_555
C4 C3 1_555 1_555
C5 C4 1_555 1_555
C6 C5 1_555 1_555
H2 C6 1_555 1_555
C7 C4 1_555 1_555
H3 C7 1_555 1_555
C8 C7 1_555 1_555
H4 C8 1_555 1_555
C9 C2 1_555 1_555
H5 C9 1_555 1_555
C10 N2 1_555 1_555
C11 C10 1_555 1_555
C12 C11 1_555 1_555
H6 C12 1_555 1_555
C13 C12 1_555 1_555
C14 C13 1_555 1_555
C15 C14 1_555 1_555
H7 C15 1_555 1_555
C16 C13 1_555 1_555
H8 C16 1_555 1_555
C17 C16 1_555 1_555
H9 C17 1_555 1_555
C18 C11 1_555 1_555
H10 C18 1_555 1_555
O1 C10 1_555 1_555
O2 C1 1_555 1_555
O3 Ag1 1_555 1_555
H11 O3 1_555 1_555
H12 O3 1_555 1_555
O4 H13 1_555 1_555
B1 F1 1_555 1_555
B2 F4 1_555 1_555
F2 B1 1_555 1_555
F3 B1 1_555 1_555
H14 O4 1_555 1_555
F6 B2 1_555 1_555
Ag1F O3 1_555 1_555
Ag1E C5 1_555 1_555
Ag1C C5F 1_555 1_555
N1F N1 1_555 1_555
N2F N2 1_555 1_555
C1F O2 1_555 1_555
C2F C1F 1_555 1_555
C3F C2F 1_555 1_555
H1F C3F 1_555 1_555
C4F C3F 1_555 1_555
C5F C4F 1_555 1_555
C5E Ag1 1_555 1_555
C5C Ag1F 1_555 1_555
C6F Ag1C 1_555 1_555
C6E Ag1 1_555 1_555
C6C Ag1F 1_555 1_555
H2F C6F 1_555 1_555
H2E C6E 1_555 1_555
H2C C6C 1_555 1_555
C7F C4F 1_555 1_555
H3F C7F 1_555 1_555
C8F C7F 1_555 1_555
H4F C8F 1_555 1_555
C9F C2F 1_555 1_555
H5F C9F 1_555 1_555
C10F O1 1_555 1_555
C11F C10F 1_555 1_555
C12F C11F 1_555 1_555
H6F C12F 1_555 1_555
C13F C12F 1_555 1_555
C14F C13F 1_555 1_555
C15F C14F 1_555 1_555
H7F C15F 1_555 1_555
C16F C13F 1_555 1_555
H8F C16F 1_555 1_555
C17F C16F 1_555 1_555
H9F C17F 1_555 1_555
C18F C11F 1_555 1_555
H10F C18F 1_555 1_555
F3F B1 1_555 1_555
F4B B2 1_555 1_555
F6B B2 1_555 1_555
C6 Ag1E 1_555 1_555
C8 C9 1_555 1_555
C17 C18 1_555 1_555
Ag1F N1F 1_555 1_555
Ag1F N2F 1_555 1_555
N1F C1F 1_555 1_555
N2F C10F 1_555 1_555
C5F C6F 1_555 1_555
C5E C6E 1_555 1_555
C5C C6C 1_555 1_555
C8F C9F 1_555 1_555
C17F C18F 1_555 1_555

#END
