
#######################################################################
#
#                 Cambridge Crystallographic Data Centre
#                                CCDC 
#
#######################################################################
#
# If this CIF has been generated from an entry in the Cambridge 
# Structural Database, then it will include bibliographic, chemical, 
# crystal, experimental, refinement or atomic coordinate data resulting 
# from the CCDC's data processing and validation procedures.
#
#######################################################################

data_SESCAW
_symmetry_cell_setting           tetragonal
_symmetry_space_group_name_H-M   'P 43'
_symmetry_Int_Tables_number      78
_space_group_name_Hall           'P 4cw'
loop_
_symmetry_equiv_pos_site_id
_symmetry_equiv_pos_as_xyz
1 x,y,z
2 -x,-y,1/2+z
3 -y,x,3/4+z
4 y,-x,1/4+z
_cell_length_a                   11.96630(10)
_cell_length_b                   11.96630(10)
_cell_length_c                   16.2923(3)
_cell_angle_alpha                90
_cell_angle_beta                 90
_cell_angle_gamma                90
_cell_volume                     2332.93
loop_
_atom_site_label
_atom_site_type_symbol
_atom_site_fract_x
_atom_site_fract_y
_atom_site_fract_z
Cu1 Cu 0.04446(6) 0.33749(6) 0.23362(4)
Si1 Si 0.17129(13) 0.84920(13) 0.08637(10)
Br1 Br -0.01078(8) 0.39901(6) 0.36961(5)
Br2 Br 0.20393(5) 0.26184(5) 0.15753(4)
S1 S -0.18456(16) 0.43431(14) 0.14030(12)
O1 O -0.0938(3) 0.3465(3) 0.1432(3)
N1 N 0.0876(4) 0.4948(4) 0.1968(3)
N2 N -0.1822(4) 0.9932(4) 0.0153(3)
C1 C 0.0931(5) 0.5133(5) 0.1165(4)
H1 H 0.0793 0.4523 0.0806
C2 C 0.1177(5) 0.6158(4) 0.0820(3)
H2 H 0.1173 0.6242 0.0241
C3 C 0.1428(4) 0.7066(4) 0.1314(4)
C4 C 0.1388(4) 0.6857(5) 0.2160(3)
H3 H 0.1546 0.7447 0.2533
C5 C 0.1123(5) 0.5815(5) 0.2465(4)
H4 H 0.1114 0.5705 0.3042
C6 C 0.2449(5) 0.8294(5) -0.0131(4)
H5 H 0.2602 0.9025 -0.0379
H6 H 0.1978 0.7853 -0.0502
H7 H 0.3155 0.7900 -0.0037
C7 C 0.2517(5) 0.9371(5) 0.1596(4)
H8 H 0.2655 1.0106 0.1351
H9 H 0.3232 0.9008 0.1720
H10 H 0.2087 0.9462 0.2104
C8 C 0.0289(5) 0.9102(5) 0.0637(4)
C9 C -0.0537(5) 0.8425(5) 0.0278(4)
H11 H -0.0391 0.7654 0.0187
C10 C -0.1543(5) 0.8861(5) 0.0059(4)
H12 H -0.2081 0.8372 -0.0176
C11 C -0.1053(5) 1.0601(5) 0.0489(4)
H13 H -0.1221 1.1372 0.0556
C12 C -0.0031(5) 1.0215(5) 0.0741(4)
H14 H 0.0475 1.0720 0.0994
C13 C -0.3113(6) 0.3562(7) 0.1400(6)
H15 H -0.3252 0.3264 0.1951
H16 H -0.3050 0.2944 0.1009
H17 H -0.3733 0.4050 0.1239
C14 C -0.1936(7) 0.4764(8) 0.0371(5)
H18 H -0.1270 0.5198 0.0226
H19 H -0.2604 0.5227 0.0295
H20 H -0.1984 0.4103 0.0018
Cu1B Cu -0.33749(6) 1.04446(6) -0.01638(4)
N2C N -0.0068(4) 0.1822(4) 0.2653(3)
S2 S 0.44323(18) 0.62121(17) 0.11495(16)
O2 O 0.5493(5) 0.5859(5) 0.0757(4)
C15 C 0.4802(8) 0.7127(7) 0.1937(5)
H21 H 0.5065 0.7833 0.1701
H22 H 0.5400 0.6793 0.2268
H23 H 0.4150 0.7270 0.2286
C16 C 0.3992(6) 0.5051(7) 0.1757(6)
H24 H 0.3759 0.4439 0.1395
H25 H 0.3363 0.5275 0.2105
H26 H 0.4613 0.4800 0.2103
loop_
_geom_bond_atom_site_label_1
_geom_bond_atom_site_label_2
_geom_bond_site_symmetry_1
_geom_bond_site_symmetry_2
Cu1 Br1 1_555 1_555
Si1 C3 1_555 1_555
Br2 Cu1 1_555 1_555
S1 O1 1_555 1_555
O1 Cu1 1_555 1_555
N1 Cu1 1_555 1_555
N2 C10 1_555 1_555
C1 N1 1_555 1_555
H1 C1 1_555 1_555
C2 C1 1_555 1_555
H2 C2 1_555 1_555
C3 C2 1_555 1_555
C4 C3 1_555 1_555
H3 C4 1_555 1_555
C5 N1 1_555 1_555
H4 C5 1_555 1_555
C6 Si1 1_555 1_555
H5 C6 1_555 1_555
H6 C6 1_555 1_555
H7 C6 1_555 1_555
C7 Si1 1_555 1_555
H8 C7 1_555 1_555
H9 C7 1_555 1_555
H10 C7 1_555 1_555
C8 Si1 1_555 1_555
C9 C8 1_555 1_555
H11 C9 1_555 1_555
C10 C9 1_555 1_555
H12 C10 1_555 1_555
C11 N2 1_555 1_555
H13 C11 1_555 1_555
C12 C8 1_555 1_555
H14 C12 1_555 1_555
C13 S1 1_555 1_555
H15 C13 1_555 1_555
H16 C13 1_555 1_555
H17 C13 1_555 1_555
C14 S1 1_555 1_555
H18 C14 1_555 1_555
H19 C14 1_555 1_555
H20 C14 1_555 1_555
S2 O2 1_555 1_555
C15 S2 1_555 1_555
H21 C15 1_555 1_555
H22 C15 1_555 1_555
H23 C15 1_555 1_555
C16 S2 1_555 1_555
H24 C16 1_555 1_555
H25 C16 1_555 1_555
H26 C16 1_555 1_555
Cu1B N2 1_555 1_555
N2C Cu1 1_555 1_555
C4 C5 1_555 1_555
C11 C12 1_555 1_555

#END
