
#######################################################################
#
#                 Cambridge Crystallographic Data Centre
#                                CCDC 
#
#######################################################################
#
# If this CIF has been generated from an entry in the Cambridge 
# Structural Database, then it will include bibliographic, chemical, 
# crystal, experimental, refinement or atomic coordinate data resulting 
# from the CCDC's data processing and validation procedures.
#
#######################################################################

data_SESLOS01
_symmetry_cell_setting           monoclinic
_symmetry_space_group_name_H-M   'C 2/c'
_symmetry_Int_Tables_number      15
_space_group_name_Hall           '-C 2yn'
loop_
_symmetry_equiv_pos_site_id
_symmetry_equiv_pos_as_xyz
1 x,y,z
2 1/2+x,1/2+y,z
3 -x,y,1/2-z
4 1/2-x,1/2+y,1/2-z
5 -x,-y,-z
6 1/2-x,1/2-y,-z
7 x,-y,1/2+z
8 1/2+x,1/2-y,1/2+z
_cell_length_a                   19.280(4)
_cell_length_b                   6.1519(12)
_cell_length_c                   15.689(3)
_cell_angle_alpha                90
_cell_angle_beta                 103.66(3)
_cell_angle_gamma                90
_cell_volume                     1808.22
loop_
_atom_site_label
_atom_site_type_symbol
_atom_site_fract_x
_atom_site_fract_y
_atom_site_fract_z
H1 H 0.470(3) -0.235(9) 0.442(4)
H2 H 0.441(3) -0.350(10) 0.369(4)
C1 C 0.45418(16) 0.2353(5) 0.10589(19)
Sm1 Sm 0.407262(8) 0.05976(2) 0.297226(9)
C2 C 0.27313(18) 0.5344(6) 0.0801(2)
O1 O 0.31824(13) 0.2057(4) 0.16292(15)
O2 O 0.50435(13) 0.2383(4) 0.06787(15)
O3 O 0.40524(16) 0.4427(4) 0.28105(18)
O4 O 0.38348(15) 0.7450(4) 0.20341(16)
O5 O 0.45046(18) -0.2351(4) 0.39320(19)
O6 O 0.21301(16) 0.4384(5) 0.19308(19)
C3 C 0.37862(18) 0.5444(5) 0.2121(2)
C4 C 0.21236(19) 0.5534(5) 0.1261(2)
O7 O 0.45966(12) 0.1211(4) 0.17405(15)
C5 C 0.33860(17) 0.4104(5) 0.1319(2)
C6 C 0.38744(17) 0.3672(6) 0.0701(2)
O8 O 0.16175(15) 0.6765(5) 0.0962(2)
H3 H 0.359(2) 0.289(7) 0.017(3)
H4 H 0.401(3) 0.497(8) 0.045(3)
H5 H 0.250(3) 0.456(8) 0.025(4)
H6 H 0.284(2) 0.652(8) 0.073(3)
H7 H 0.284(3) 0.229(9) 0.180(4)
Sm1B Sm 0.592738(8) 0.05976(2) 0.202774(9)
Sm1_2 Sm 0.407262(8) 1.05976(2) 0.297226(9)
Sm1C Sm 0.092738(8) 0.55976(2) 0.202774(9)
O2B O 0.49565(13) 0.2383(4) 0.43213(15)
O4_2 O 0.38348(15) -0.2550(4) 0.20341(16)
O6C O 0.28699(16) -0.0616(5) 0.30692(19)
O7B O 0.54034(12) 0.1211(4) 0.32595(15)
O8C O 0.33825(15) 0.1765(5) 0.4038(2)
loop_
_geom_bond_atom_site_label_1
_geom_bond_atom_site_label_2
_geom_bond_site_symmetry_1
_geom_bond_site_symmetry_2
H1 O5 1_555 1_555
H2 O5 1_555 1_555
C1 O2 1_555 1_555
Sm1 O1 1_555 1_555
C2 C4 1_555 1_555
O1 C5 1_555 1_555
O2 Sm1B 1_555 1_555
O3 Sm1 1_555 1_555
O4 C3 1_555 1_555
O5 Sm1 1_555 1_555
O6 C4 1_555 1_555
C3 O3 1_555 1_555
C4 O8 1_555 1_555
O7 C1 1_555 1_555
C5 C2 1_555 1_555
C6 C1 1_555 1_555
O8 Sm1C 1_555 1_555
H3 C6 1_555 1_555
H4 C6 1_555 1_555
H5 C2 1_555 1_555
H6 C2 1_555 1_555
H7 O1 1_555 1_555
Sm1B O7 1_555 1_555
Sm1_2 O4 1_555 1_555
Sm1C O6 1_555 1_555
O2B Sm1 1_555 1_555
O4_2 Sm1 1_555 1_555
O6C Sm1 1_555 1_555
O7B Sm1 1_555 1_555
O8C Sm1 1_555 1_555
Sm1 O7 1_555 1_555
C3 C5 1_555 1_555
C5 C6 1_555 1_555
Sm1B O7B 1_555 1_555

#END
