
#######################################################################
#
#                 Cambridge Crystallographic Data Centre
#                                CCDC 
#
#######################################################################
#
# If this CIF has been generated from an entry in the Cambridge 
# Structural Database, then it will include bibliographic, chemical, 
# crystal, experimental, refinement or atomic coordinate data resulting 
# from the CCDC's data processing and validation procedures.
#
#######################################################################

data_SESXEU
_symmetry_cell_setting           orthorhombic
_symmetry_space_group_name_H-M   'P c a b'
_symmetry_Int_Tables_number      61
_space_group_name_Hall           '-P 2bc 2ac'
loop_
_symmetry_equiv_pos_site_id
_symmetry_equiv_pos_as_xyz
1 x,y,z
2 -x,1/2-y,1/2+z
3 1/2+x,-y,1/2-z
4 1/2-x,1/2+y,-z
5 -x,-y,-z
6 x,1/2+y,1/2-z
7 1/2-x,y,1/2+z
8 1/2+x,1/2-y,z
_cell_length_a                   8.665(5)
_cell_length_b                   17.392(5)
_cell_length_c                   18.812(5)
_cell_angle_alpha                90
_cell_angle_beta                 90
_cell_angle_gamma                90
_cell_volume                     2835
loop_
_atom_site_label
_atom_site_type_symbol
_atom_site_fract_x
_atom_site_fract_y
_atom_site_fract_z
C1 C 0.8416(5) -0.0338(3) 0.0556(3)
C2 C 0.8675(6) -0.0807(3) -0.0025(3)
H1 H 0.9326 -0.1244 0.0017
C3 C 0.7986(6) -0.0636(3) -0.0662(3)
H2 H 0.8159 -0.0951 -0.1067
C4 C 0.7035(5) 0.0003(3) -0.0706(3)
H3 H 0.6551 0.0135 -0.1143
C5 C 0.6802(5) 0.0447(3) -0.0106(3)
C6 C 0.5794(5) 0.1142(3) -0.0097(3)
C7 C 0.5030(6) 0.1419(3) -0.0701(3)
H4 H 0.5132 0.1164 -0.1145
C8 C 0.4132(6) 0.2067(3) -0.0641(3)
H5 H 0.3603 0.2264 -0.1043
C9 C 0.4004(6) 0.2431(3) 0.0014(3)
H6 H 0.3364 0.2870 0.0068
C10 C 0.4827(5) 0.2142(3) 0.0590(3)
C11 C 0.9164(5) -0.0482(3) 0.1272(3)
C12 C 0.4806(6) 0.2505(3) 0.1310(3)
N1 N 0.7503(5) 0.0284(2) 0.0518(2)
N2 N 0.5693(5) 0.1500(2) 0.0531(2)
O1 O 0.8860(4) -0.0007(2) 0.17608(17)
O2 O 1.0017(4) -0.10573(19) 0.1324(2)
O3 O 0.5496(4) 0.2156(2) 0.18009(18)
O4 O 0.4154(4) 0.3151(2) 0.13790(19)
O5 O 0.5412(4) 0.01180(19) 0.19987(17)
O6 O 0.7508(4) 0.1238(2) 0.27733(19)
Cd1 Cd 0.70612(4) 0.103047(19) 0.156370(18)
O4G O 0.9154(4) 0.1849(2) 0.13790(19)
Cd1G Cd 0.20612(4) 0.396953(19) 0.156370(18)
O7 O 0.8528(5) -0.1242(2) -0.2466(2)
H7 H 0.9337 -0.1427 -0.2277
H8 H 0.8762 -0.0776 -0.2593
O8 O 0.3706(4) 0.2275(2) 0.29834(19)
H9 H 0.3340 0.2731 0.3089
H10 H 0.2974 0.2057 0.2748
loop_
_geom_bond_atom_site_label_1
_geom_bond_atom_site_label_2
_geom_bond_site_symmetry_1
_geom_bond_site_symmetry_2
C1 C2 1_555 1_555
C2 H1 1_555 1_555
C3 C2 1_555 1_555
H2 C3 1_555 1_555
C4 C3 1_555 1_555
H3 C4 1_555 1_555
C5 C4 1_555 1_555
C6 C5 1_555 1_555
C7 C6 1_555 1_555
H4 C7 1_555 1_555
C8 C7 1_555 1_555
H5 C8 1_555 1_555
C9 C8 1_555 1_555
H6 C9 1_555 1_555
C10 C9 1_555 1_555
C11 C1 1_555 1_555
C12 C10 1_555 1_555
N1 C1 1_555 1_555
N2 C6 1_555 1_555
O1 C11 1_555 1_555
O2 C11 1_555 1_555
O3 C12 1_555 1_555
O4 C12 1_555 1_555
O5 Cd1 1_555 1_555
O6 Cd1 1_555 1_555
O7 H7 1_555 1_555
H8 O7 1_555 1_555
O8 H9 1_555 1_555
H10 O8 1_555 1_555
Cd1 N1 1_555 1_555
O4G Cd1 1_555 1_555
Cd1G O4 1_555 1_555
C5 N1 1_555 1_555
C10 N2 1_555 1_555
N2 Cd1 1_555 1_555
O1 Cd1 1_555 1_555
O3 Cd1 1_555 1_555

#END
