
#######################################################################
#
#                 Cambridge Crystallographic Data Centre
#                                CCDC 
#
#######################################################################
#
# If this CIF has been generated from an entry in the Cambridge 
# Structural Database, then it will include bibliographic, chemical, 
# crystal, experimental, refinement or atomic coordinate data resulting 
# from the CCDC's data processing and validation procedures.
#
#######################################################################

data_SETCUQ
_symmetry_cell_setting           monoclinic
_symmetry_space_group_name_H-M   'P 21/c'
_symmetry_Int_Tables_number      14
_space_group_name_Hall           '-P 2ybc'
loop_
_symmetry_equiv_pos_site_id
_symmetry_equiv_pos_as_xyz
1 x,y,z
2 -x,1/2+y,1/2-z
3 -x,-y,-z
4 x,1/2-y,1/2+z
_cell_length_a                   10.433(2)
_cell_length_b                   6.2750(10)
_cell_length_c                   11.894(2)
_cell_angle_alpha                90
_cell_angle_beta                 110.388(2)
_cell_angle_gamma                90
_cell_volume                     729.886
loop_
_atom_site_label
_atom_site_type_symbol
_atom_site_fract_x
_atom_site_fract_y
_atom_site_fract_z
Ag1 Ag 0.54777(4) 0.14448(5) 0.84943(3)
N1 N 0.3817(3) -0.0307(5) 0.5734(3)
N2 N 0.4378(3) 0.1403(5) 0.6450(3)
N3 N 0.4137(4) 0.3089(5) 0.5785(3)
N4 N 0.3444(4) 0.2630(6) 0.4645(3)
C1 C 0.3250(4) 0.0513(6) 0.4628(4)
C2 C 0.2462(4) -0.0629(7) 0.3531(4)
C3 C 0.2160(4) 0.0412(7) 0.2432(4)
C4 C 0.1412(5) -0.0576(9) 0.1389(4)
C5 C 0.0955(5) -0.2628(9) 0.1409(5)
C6 C 0.1239(5) -0.3675(7) 0.2481(5)
C7 C 0.2004(4) -0.2704(7) 0.3545(4)
H1 H 0.2472 0.1795 0.2411
H2 H 0.1211 0.0138 0.0663
H3 H 0.0452 -0.3304 0.0696
H4 H 0.0913 -0.5052 0.2491
H5 H 0.2211 -0.3436 0.4266
Ag1A Ag 0.45223(4) -0.35552(5) 0.65057(3)
Ag1A_2 Ag 0.45223(4) 0.64448(5) 0.65057(3)
N1A N 0.6183(3) 0.4693(5) 0.9266(3)
N3A N 0.5863(4) -0.1911(5) 0.9215(3)
loop_
_geom_bond_atom_site_label_1
_geom_bond_atom_site_label_2
_geom_bond_site_symmetry_1
_geom_bond_site_symmetry_2
Ag1 N2 1_555 1_555
N1 N2 1_555 1_555
N2 N3 1_555 1_555
N3 N4 1_555 1_555
N4 C1 1_555 1_555
C1 N1 1_555 1_555
C2 C1 1_555 1_555
C3 C2 1_555 1_555
C4 C3 1_555 1_555
C5 C4 1_555 1_555
C6 C5 1_555 1_555
C7 C2 1_555 1_555
H1 C3 1_555 1_555
H2 C4 1_555 1_555
H3 C5 1_555 1_555
H4 C6 1_555 1_555
H5 C7 1_555 1_555
Ag1A N1 1_555 1_555
Ag1A_2 N3 1_555 1_555
N1A Ag1 1_555 1_555
N3A Ag1 1_555 1_555
C6 C7 1_555 1_555

#END
