
#######################################################################
#
#                 Cambridge Crystallographic Data Centre
#                                CCDC 
#
#######################################################################
#
# If this CIF has been generated from an entry in the Cambridge 
# Structural Database, then it will include bibliographic, chemical, 
# crystal, experimental, refinement or atomic coordinate data resulting 
# from the CCDC's data processing and validation procedures.
#
#######################################################################

data_SETNUB
_symmetry_cell_setting           orthorhombic
_symmetry_space_group_name_H-M   'F d d 2'
_symmetry_Int_Tables_number      43
_space_group_name_Hall           'F 2 -2d'
loop_
_symmetry_equiv_pos_site_id
_symmetry_equiv_pos_as_xyz
1 x,y,z
2 -x,-y,z
3 1/4+x,1/4-y,1/4+z
4 1/4-x,1/4+y,1/4+z
5 x,1/2+y,1/2+z
6 -x,1/2-y,1/2+z
7 1/4+x,3/4-y,3/4+z
8 1/4-x,3/4+y,3/4+z
9 1/2+x,y,1/2+z
10 1/2-x,-y,1/2+z
11 3/4+x,1/4-y,3/4+z
12 3/4-x,1/4+y,3/4+z
13 1/2+x,1/2+y,z
14 1/2-x,1/2-y,z
15 3/4+x,3/4-y,1/4+z
16 3/4-x,3/4+y,1/4+z
_cell_length_a                   18.769(4)
_cell_length_b                   42.406(9)
_cell_length_c                   7.2170(14)
_cell_angle_alpha                90
_cell_angle_beta                 90
_cell_angle_gamma                90
_cell_volume                     5744.14
loop_
_atom_site_label
_atom_site_type_symbol
_atom_site_fract_x
_atom_site_fract_y
_atom_site_fract_z
Mn1 Mn -0.581205(10) -0.287792(4) 0.40061(3)
O1 O -0.60690(6) -0.25687(3) 0.1688(2)
H1 H -0.5677(6) -0.2501(4) 0.125(3)
H2 H -0.6383(7) -0.2426(4) 0.156(4)
O3 O -0.47245(6) -0.28901(3) 0.26702(19)
O4 O -0.46232(5) -0.24731(3) 0.08228(17)
O5 O -0.19451(5) -0.28915(3) -0.04384(17)
O6 O -0.19401(7) -0.29557(4) 0.2632(2)
N1 N -0.59845(6) -0.33421(3) 0.25783(17)
N2 N -0.53787(6) -0.32647(3) 0.58823(17)
C1 C -0.63132(9) -0.33631(4) 0.0950(2)
H5 H -0.6434 -0.3178 0.0330
C2 C -0.64816(10) -0.36500(4) 0.0144(3)
H6 H -0.6722 -0.3658 -0.0982
C3 C -0.62851(10) -0.39237(4) 0.1043(3)
H7 H -0.6390 -0.4119 0.0529
C4 C -0.59316(9) -0.39039(4) 0.2711(3)
H8 H -0.5786 -0.4086 0.3324
C5 C -0.57957(7) -0.36076(3) 0.3467(2)
C6 C -0.54466(7) -0.35649(3) 0.5297(2)
C7 C -0.51976(8) -0.38165(3) 0.6345(3)
H9 H -0.5262 -0.4023 0.5937
C8 C -0.48545(10) -0.37576(4) 0.7993(3)
H10 H -0.4680 -0.3923 0.8705
C9 C -0.47719(10) -0.34488(4) 0.8581(2)
H11 H -0.4534 -0.3403 0.9678
C10 C -0.50517(9) -0.32118(4) 0.7494(2)
H12 H -0.5010 -0.3005 0.7905
C11 C -0.43817(7) -0.27132(3) 0.1642(2)
C12 C -0.36280(8) -0.27918(3) 0.1341(3)
C13 C -0.30105(8) -0.28522(3) 0.1190(2)
C14 C -0.22326(8) -0.29053(3) 0.1138(2)
Mn1E Mn -0.418795(10) -0.212208(4) -0.09939(3)
Mn1H Mn -0.081205(10) -0.287792(4) -0.09939(3)
O4E O -0.53768(5) -0.25269(3) 0.58228(17)
O5H O -0.69451(5) -0.28915(3) 0.45616(17)
O2 O -0.71646(7) -0.21393(3) 0.1273(2)
H3 H -0.7437(11) -0.2150(6) 0.034(2)
H4 H -0.7409(12) -0.2137(6) 0.226(2)
loop_
_geom_bond_atom_site_label_1
_geom_bond_atom_site_label_2
_geom_bond_site_symmetry_1
_geom_bond_site_symmetry_2
Mn1 O1 1_555 1_555
O1 H1 1_555 1_555
H2 O1 1_555 1_555
O2 H3 1_555 1_555
H4 O2 1_555 1_555
O3 Mn1 1_555 1_555
O4 C11 1_555 1_555
O5 C14 1_555 1_555
O6 C14 1_555 1_555
N1 Mn1 1_555 1_555
N2 Mn1 1_555 1_555
C1 N1 1_555 1_555
H5 C1 1_555 1_555
C2 C1 1_555 1_555
H6 C2 1_555 1_555
C3 C2 1_555 1_555
H7 C3 1_555 1_555
C4 C3 1_555 1_555
H8 C4 1_555 1_555
C5 N1 1_555 1_555
C6 N2 1_555 1_555
C7 C6 1_555 1_555
H9 C7 1_555 1_555
C8 C7 1_555 1_555
H10 C8 1_555 1_555
C9 C8 1_555 1_555
H11 C9 1_555 1_555
C10 N2 1_555 1_555
H12 C10 1_555 1_555
C11 O3 1_555 1_555
C12 C11 1_555 1_555
C13 C12 1_555 1_555
C14 C13 1_555 1_555
Mn1E O4 1_555 1_555
Mn1H O5 1_555 1_555
O4E Mn1 1_555 1_555
O5H Mn1 1_555 1_555
C4 C5 1_555 1_555
C5 C6 1_555 1_555
C9 C10 1_555 1_555

#END
