
#######################################################################
#
#                 Cambridge Crystallographic Data Centre
#                                CCDC 
#
#######################################################################
#
# If this CIF has been generated from an entry in the Cambridge 
# Structural Database, then it will include bibliographic, chemical, 
# crystal, experimental, refinement or atomic coordinate data resulting 
# from the CCDC's data processing and validation procedures.
#
#######################################################################

data_SETQUF
_symmetry_cell_setting           monoclinic
_symmetry_space_group_name_H-M   'C 2/c'
_symmetry_Int_Tables_number      15
_space_group_name_Hall           '-C 2yc'
loop_
_symmetry_equiv_pos_site_id
_symmetry_equiv_pos_as_xyz
1 x,y,z
2 -x,y,1/2-z
3 1/2-x,1/2+y,1/2-z
4 1/2+x,1/2+y,z
5 -x,-y,-z
6 x,-y,1/2+z
7 1/2+x,1/2-y,1/2+z
8 1/2-x,1/2-y,-z
_cell_length_a                   15.80006(34)
_cell_length_b                   16.04061(34)
_cell_length_c                   13.79701(23)
_cell_angle_alpha                90
_cell_angle_beta                 115.40273(91)
_cell_angle_gamma                90
_cell_volume                     3158.67
loop_
_atom_site_label
_atom_site_type_symbol
_atom_site_fract_x
_atom_site_fract_y
_atom_site_fract_z
Fe1 Fe 0.000 -0.00177(20) 0.750
O1 O 0.085671 0.090394 0.748735
O2 O 0.082686 0.092582 0.587885
O3 O 0.405875 0.416888 0.905307
O4 O 0.413927 0.410239 0.750235
C1 C 0.182833 0.189037 0.716607
C2 C 0.214906 0.220697 0.646315
C3 C 0.279113 0.284185 0.677749
C4 C 0.311247 0.316014 0.779474
C5 C 0.279174 0.284355 0.849765
C6 C 0.214966 0.220867 0.818332
C7 C 0.113939 0.120915 0.682880
C8 C 0.380141 0.384137 0.813201
H1 H 0.19192 0.197928 0.573549
H2 H 0.302056 0.306832 0.627467
H3 H 0.302160 0.307123 0.922532
H4 H 0.192023 0.19822 0.868614
Fe2 Fe 0.000 0.000 1
O5 O 0.06154(22) -0.00694(67) 0.90665(20)
O5D O -0.06154(22) 0.00694(67) 1.09335(20)
O1A O -0.085671 0.090394 0.751265
O2A O -0.082686 0.092582 0.912115
O3A O -0.405875 0.416888 0.594693
O4A O -0.413927 0.410239 0.749765
C1A C -0.182833 0.189037 0.783393
C2A C -0.214906 0.220697 0.853685
C3A C -0.279113 0.284185 0.822251
C4A C -0.311247 0.316014 0.720526
C5A C -0.279174 0.284355 0.650235
C6A C -0.214966 0.220867 0.681668
C7A C -0.113939 0.120915 0.817120
C8A C -0.380141 0.384137 0.686799
H1A H -0.19192 0.197928 0.926451
H2A H -0.302056 0.306832 0.872533
H3A H -0.302160 0.307123 0.577468
H4A H -0.192023 0.19822 0.631386
Fe1D Fe 0.000 0.00177(20) 1.250
Fe1B Fe -0.500 0.49823(20) 0.750
Fe1B_2 Fe 0.500 0.49823(20) 0.750
O2E O 0.082686 -0.092582 1.087885
O3G O 0.094125 0.083112 1.094693
O3C O -0.094125 -0.083112 0.905307
O4B O 0.086073 -0.089761 0.749765
O4C O -0.086073 -0.089761 0.750235
Fe2A Fe 0.000 0.000 0.5
Fe2G Fe 0.500 0.500 1
Fe2B Fe -0.500 0.500 0.5
O5A O -0.06154(22) -0.00694(67) 0.59335(20)
C9 C 0.287988 -0.022637 0.478706
H5 H 0.495464 0.194808 0.595478
C10 C 0.355021 0.038607 0.467573
C11 C 0.400832 0.096866 0.548924
C12 C 0.463396 0.154027 0.538532
C13 C 0.480148 0.152929 0.446790
C14 C 0.434336 0.094670 0.365438
C15 C 0.371772 0.037509 0.375830
H6 H 0.523943 0.192942 0.439516
C16 C 0.382884 0.098042 0.647220
H7 H 0.446062 0.093902 0.301218
H8 H 0.339704 -0.003272 0.318884
loop_
_geom_bond_atom_site_label_1
_geom_bond_atom_site_label_2
_geom_bond_site_symmetry_1
_geom_bond_site_symmetry_2
Fe1 O1 1_555 1_555
O1 C7 1_555 1_555
O2 C7 1_555 1_555
O3 C8 1_555 1_555
O4 C8 1_555 1_555
C1 C2 1_555 1_555
C2 C3 1_555 1_555
C3 C4 1_555 1_555
C4 C5 1_555 1_555
C5 C6 1_555 1_555
C6 C1 1_555 1_555
C7 C1 1_555 1_555
C8 C4 1_555 1_555
H1 C2 1_555 1_555
H2 C3 1_555 1_555
H3 C5 1_555 1_555
H4 C6 1_555 1_555
Fe2 O5 1_555 1_555
O5 Fe1 1_555 1_555
C9 C10 1_555 1_555
H5 C12 1_555 1_555
C10 C11 1_555 1_555
C11 C12 1_555 1_555
C12 C13 1_555 1_555
C13 C14 1_555 1_555
C14 C15 1_555 1_555
C15 C10 1_555 1_555
H6 C13 1_555 1_555
C16 C11 1_555 1_555
H7 C14 1_555 1_555
H8 C15 1_555 1_555
O5D Fe2 1_555 1_555
O1A Fe1 1_555 1_555
O2A Fe2 1_555 1_555
O3A C8A 1_555 1_555
O4A C8A 1_555 1_555
C1A C2A 1_555 1_555
C2A C3A 1_555 1_555
C3A C4A 1_555 1_555
C4A C5A 1_555 1_555
C5A C6A 1_555 1_555
C6A C1A 1_555 1_555
C7A O1A 1_555 1_555
C8A C4A 1_555 1_555
H1A C2A 1_555 1_555
H2A C3A 1_555 1_555
H3A C5A 1_555 1_555
H4A C6A 1_555 1_555
Fe1D O5D 1_555 1_555
Fe1B O4A 1_555 1_555
Fe1B_2 O4 1_555 1_555
O2E Fe2 1_555 1_555
O3G Fe2 1_555 1_555
O3C Fe2 1_555 1_555
O4B Fe1 1_555 1_555
O4C Fe1 1_555 1_555
Fe2A O2 1_555 1_555
Fe2G O3 1_555 1_555
Fe2B O3A 1_555 1_555
O5A Fe1 1_555 1_555
O2A C7A 1_555 1_555
C1A C7A 1_555 1_555
Fe2A O5A 1_555 1_555

#END
