
#######################################################################
#
#                 Cambridge Crystallographic Data Centre
#                                CCDC 
#
#######################################################################
#
# If this CIF has been generated from an entry in the Cambridge 
# Structural Database, then it will include bibliographic, chemical, 
# crystal, experimental, refinement or atomic coordinate data resulting 
# from the CCDC's data processing and validation procedures.
#
#######################################################################

data_SEVKEL
_symmetry_cell_setting           monoclinic
_symmetry_space_group_name_H-M   'P 21/n'
_symmetry_Int_Tables_number      14
_space_group_name_Hall           '-P 2yn'
loop_
_symmetry_equiv_pos_site_id
_symmetry_equiv_pos_as_xyz
1 x,y,z
2 1/2-x,1/2+y,1/2-z
3 -x,-y,-z
4 1/2+x,1/2-y,1/2+z
_cell_length_a                   9.1339(2)
_cell_length_b                   8.1744(2)
_cell_length_c                   21.7050(4)
_cell_angle_alpha                90
_cell_angle_beta                 99.2690(10)
_cell_angle_gamma                90
_cell_volume                     1599.43
loop_
_atom_site_label
_atom_site_type_symbol
_atom_site_fract_x
_atom_site_fract_y
_atom_site_fract_z
Eu1 Eu 0.49616(3) 0.47675(4) 0.247814(13)
O1 O 0.4675(5) 0.6409(5) 0.1497(2)
O2 O 0.3448(4) 0.7119(5) 0.24560(17)
O3 O 0.1987(4) 0.9043(5) 0.19605(18)
O4 O 0.5662(4) 0.5884(5) 0.35334(17)
O5 O 0.7089(4) 0.6501(5) 0.26350(18)
O6 O 0.8297(4) 0.8644(5) 0.31027(18)
O7 O 0.3366(5) 0.3132(5) 0.17634(17)
H1 H 0.2992 0.3272 0.1382
H2 H 0.2811 0.2534 0.1948
O8 O 0.5754(4) 0.2327(5) 0.30301(17)
H3 H 0.5534 0.1662 0.3302
H4 H 0.6417 0.1812 0.2875
C1 C 0.5518(6) 0.6496(7) 0.0990(2)
H5 H 0.5015 0.5879 0.0624
H6 H 0.6523 0.6035 0.1119
C2 C 0.5605(10) 0.8289(9) 0.0837(4)
H7 H 0.5280 0.8482 0.0385
H8 H 0.6631 0.8701 0.0956
C3 C 0.4553(8) 0.9128(9) 0.1223(3)
H9 H 0.5110 0.9651 0.1601
H10 H 0.3933 0.9963 0.0974
C4 C 0.3638(8) 0.7747(9) 0.1389(3)
H11 H 0.2832 0.7488 0.1033
C5 C 0.2990(7) 0.8005(7) 0.1988(3)
C6 C 0.5353(8) 0.5391(7) 0.4143(3)
H12 H 0.5464 0.4192 0.4195
H13 H 0.4326 0.5694 0.4189
C7 C 0.6458(7) 0.6274(7) 0.4629(3)
H14 H 0.7047 0.5479 0.4911
H15 H 0.5938 0.7017 0.4882
C8 C 0.7464(7) 0.7250(7) 0.4260(2)
H16 H 0.7695 0.8344 0.4446
H17 H 0.8403 0.6659 0.4242
C9 C 0.6520(6) 0.7381(7) 0.3616(3)
H18 H 0.5834 0.8337 0.3607
C10 C 0.7377(6) 0.7508(7) 0.3080(3)
Eu1A Eu 0.00384(3) 0.97675(4) 0.252186(13)
Eu1A_2 Eu 1.00384(3) 0.97675(4) 0.252186(13)
O3A O 0.3013(4) 0.4043(5) 0.30395(18)
O6A O 0.6703(4) 0.3644(5) 0.18973(18)
Br1 Br 0.23770(7) 0.35510(8) 0.03021(3)
O9 O -0.0080(5) 1.4080(5) -0.09577(17)
H19 H 0.0561 1.3849 -0.0641
H20 H -0.0822 1.4594 -0.0863
loop_
_geom_bond_atom_site_label_1
_geom_bond_atom_site_label_2
_geom_bond_site_symmetry_1
_geom_bond_site_symmetry_2
Eu1 O1 1_555 1_555
O1 C1 1_555 1_555
O2 Eu1 1_555 1_555
O3 C5 1_555 1_555
O4 Eu1 1_555 1_555
O5 Eu1 1_555 1_555
O6 C10 1_555 1_555
O7 Eu1 1_555 1_555
H1 O7 1_555 1_555
H2 O7 1_555 1_555
O8 Eu1 1_555 1_555
H3 O8 1_555 1_555
H4 O8 1_555 1_555
C1 H5 1_555 1_555
H6 C1 1_555 1_555
C2 C1 1_555 1_555
H7 C2 1_555 1_555
H8 C2 1_555 1_555
C3 C2 1_555 1_555
H9 C3 1_555 1_555
H10 C3 1_555 1_555
C4 O1 1_555 1_555
H11 C4 1_555 1_555
C5 O2 1_555 1_555
C6 O4 1_555 1_555
H12 C6 1_555 1_555
H13 C6 1_555 1_555
C7 C6 1_555 1_555
H14 C7 1_555 1_555
H15 C7 1_555 1_555
C8 C7 1_555 1_555
H16 C8 1_555 1_555
H17 C8 1_555 1_555
C9 O4 1_555 1_555
H18 C9 1_555 1_555
C10 O5 1_555 1_555
O9 H19 1_555 1_555
H20 O9 1_555 1_555
Eu1A O3 1_555 1_555
Eu1A_2 O6 1_555 1_555
O3A Eu1 1_555 1_555
O6A Eu1 1_555 1_555
C3 C4 1_555 1_555
C4 C5 1_555 1_555
C8 C9 1_555 1_555
C9 C10 1_555 1_555

#END
