
#######################################################################
#
#                 Cambridge Crystallographic Data Centre
#                                CCDC 
#
#######################################################################
#
# If this CIF has been generated from an entry in the Cambridge 
# Structural Database, then it will include bibliographic, chemical, 
# crystal, experimental, refinement or atomic coordinate data resulting 
# from the CCDC's data processing and validation procedures.
#
#######################################################################

data_SEVRUI01
_symmetry_cell_setting           monoclinic
_symmetry_space_group_name_H-M   'P 21/a'
_symmetry_Int_Tables_number      14
_space_group_name_Hall           '-P 2yab'
loop_
_symmetry_equiv_pos_site_id
_symmetry_equiv_pos_as_xyz
1 x,y,z
2 1/2-x,1/2+y,-z
3 -x,-y,-z
4 1/2+x,1/2-y,z
_cell_length_a                   6.8224(5)
_cell_length_b                   21.8495(15)
_cell_length_c                   7.2677(6)
_cell_angle_alpha                90
_cell_angle_beta                 92.233(2)
_cell_angle_gamma                90
_cell_volume                     1082.54
loop_
_atom_site_label
_atom_site_type_symbol
_atom_site_fract_x
_atom_site_fract_y
_atom_site_fract_z
Sr1 Sr 1.00395(8) 0.71129(3) 0.31170(9)
C1 C 0.5001(9) 0.3863(3) 0.2509(11)
O1 O 0.6644(6) 0.6807(2) 0.2283(7)
C2 C 0.5028(8) 0.4559(3) 0.2454(10)
O2 O 0.3418(6) 0.6803(2) 0.2506(7)
C3 C 0.6747(10) 0.4879(3) 0.2150(11)
H1 H 0.7900 0.4665 0.1963
O3 O 1.0042(9) 0.6649(4) -0.0112(9)
H2 H 0.907(13) 0.665(6) -0.076(16)
H3 H 1.116(14) 0.663(6) -0.086(17)
C4 C 0.6763(10) 0.5511(3) 0.2124(11)
H4 H 0.7929 0.5718 0.1935
O4 O 0.9980(8) 0.6211(2) 0.5308(8)
H5 H 0.893(9) 0.621(3) 0.593(9)
H6 H 1.088(11) 0.618(4) 0.602(12)
O5 O 0.7566(7) 0.7491(2) 0.5749(7)
H7 H 0.729(14) 0.716(3) 0.641(14)
H8 H 0.769(14) 0.783(3) 0.631(13)
C5 C 0.5043(8) 0.5842(3) 0.2379(10)
O6 O 0.3372(7) 0.3599(2) 0.2644(8)
C6 C 0.3318(10) 0.5516(3) 0.2666(12)
H9 H 0.2157 0.5729 0.2833
O7 O 0.6622(7) 0.3586(2) 0.2482(8)
C7 C 0.3311(10) 0.4885(3) 0.2705(12)
H10 H 0.2150 0.4677 0.2900
C8 C 0.5028(8) 0.6535(3) 0.2376(10)
Sr1_2 Sr 0.00395(8) 0.71129(3) 0.31170(9)
Sr1C Sr 0.50395(8) 0.78871(3) 0.31170(9)
O1C O 1.1644(6) 0.8193(2) 0.2283(7)
O2_2 O 1.3418(6) 0.6803(2) 0.2506(7)
O2C O 0.8418(6) 0.8197(2) 0.2506(7)
O5C O 1.2566(7) 0.7509(2) 0.5749(7)
loop_
_geom_bond_atom_site_label_1
_geom_bond_atom_site_label_2
_geom_bond_site_symmetry_1
_geom_bond_site_symmetry_2
Sr1 O1 1_555 1_555
C1 C2 1_555 1_555
O1 C8 1_555 1_555
C2 C3 1_555 1_555
O2 C8 1_555 1_555
C3 H1 1_555 1_555
O3 Sr1 1_555 1_555
H2 O3 1_555 1_555
H3 O3 1_555 1_555
C4 C3 1_555 1_555
H4 C4 1_555 1_555
O4 Sr1 1_555 1_555
H5 O4 1_555 1_555
H6 O4 1_555 1_555
O5 Sr1 1_555 1_555
H7 O5 1_555 1_555
H8 O5 1_555 1_555
C5 C4 1_555 1_555
O6 C1 1_555 1_555
C6 C5 1_555 1_555
H9 C6 1_555 1_555
O7 C1 1_555 1_555
C7 C2 1_555 1_555
H10 C7 1_555 1_555
C8 C5 1_555 1_555
Sr1_2 O2 1_555 1_555
Sr1C O1 1_555 1_555
O1C Sr1 1_555 1_555
O2_2 Sr1 1_555 1_555
O2C Sr1 1_555 1_555
O5C Sr1 1_555 1_555
O2 Sr1C 1_555 1_555
O5 Sr1C 1_555 1_555
C6 C7 1_555 1_555
Sr1C O2C 1_555 1_555

#END
