
#######################################################################
#
#                 Cambridge Crystallographic Data Centre
#                                CCDC 
#
#######################################################################
#
# If this CIF has been generated from an entry in the Cambridge 
# Structural Database, then it will include bibliographic, chemical, 
# crystal, experimental, refinement or atomic coordinate data resulting 
# from the CCDC's data processing and validation procedures.
#
#######################################################################

data_SEVROC
_symmetry_cell_setting           monoclinic
_symmetry_space_group_name_H-M   'P 21/c'
_symmetry_Int_Tables_number      14
_space_group_name_Hall           '-P 2ybc'
loop_
_symmetry_equiv_pos_site_id
_symmetry_equiv_pos_as_xyz
1 x,y,z
2 -x,1/2+y,1/2-z
3 -x,-y,-z
4 x,1/2-y,1/2+z
_cell_length_a                   7.27611
_cell_length_b                   5.42887
_cell_length_c                   20.35484
_cell_angle_alpha                90
_cell_angle_beta                 108.706
_cell_angle_gamma                90
_cell_volume                     761.566
loop_
_atom_site_label
_atom_site_type_symbol
_atom_site_fract_x
_atom_site_fract_y
_atom_site_fract_z
Sr1 Sr 0.254033 0.844781 0.004652
C1 C 0.343929 0.120165 0.407698
C2 C 0.306091 0.161545 0.329957
O1 O 0.447833 0.277384 0.449697
O2 O 0.247281 -0.046292 0.425316
C3 C 0.326246 0.393437 0.302739
C4 C 0.255633 -0.039498 0.283232
H1 H 0.378451 0.523382 0.334296
C5 C 0.284974 0.427758 0.231601
C6 C 0.235606 -0.011435 0.212694
H2 H 0.232088 -0.193045 0.299035
H3 H 0.283441 0.582889 0.212931
C7 C 0.235639 0.230729 0.185637
H4 H 0.226126 -0.151936 0.183038
C8 C 0.168102 0.272245 0.108809
O3 O 0.164179 0.104051 0.066351
O4 O 0.135912 0.507821 0.092208
Sr1_2 Sr 0.254033 -0.155219 0.004652
Sr1A Sr 0.745967 0.344781 0.495348
Sr1B Sr -0.254033 0.155219 -0.004652
Sr1C Sr 0.254033 -0.344781 0.504652
Sr1C_2 Sr 0.254033 0.655219 0.504652
O1A O 0.552167 0.777384 0.050303
O1C O 0.447833 1.222616 -0.050303
O2C O 0.247281 0.546292 -0.074684
O3_2 O 0.164179 1.104051 0.066351
O3B O -0.164179 0.895949 -0.066351
loop_
_geom_bond_atom_site_label_1
_geom_bond_atom_site_label_2
_geom_bond_site_symmetry_1
_geom_bond_site_symmetry_2
Sr1 O4 1_555 1_555
C1 C2 1_555 1_555
C2 C3 1_555 1_555
O1 C1 1_555 1_555
O2 C1 1_555 1_555
C3 H1 1_555 1_555
C4 C2 1_555 1_555
C5 C3 1_555 1_555
C6 C4 1_555 1_555
H2 C4 1_555 1_555
H3 C5 1_555 1_555
C7 C5 1_555 1_555
H4 C6 1_555 1_555
C8 C7 1_555 1_555
O3 C8 1_555 1_555
O4 C8 1_555 1_555
Sr1_2 O3 1_555 1_555
Sr1A O1 1_555 1_555
Sr1B O3 1_555 1_555
Sr1C O2 1_555 1_555
Sr1C_2 O1 1_555 1_555
O1A Sr1 1_555 1_555
O1C Sr1 1_555 1_555
O2C Sr1 1_555 1_555
O3_2 Sr1 1_555 1_555
O3B Sr1 1_555 1_555
C6 C7 1_555 1_555

#END
