
#######################################################################
#
#                 Cambridge Crystallographic Data Centre
#                                CCDC 
#
#######################################################################
#
# If this CIF has been generated from an entry in the Cambridge 
# Structural Database, then it will include bibliographic, chemical, 
# crystal, experimental, refinement or atomic coordinate data resulting 
# from the CCDC's data processing and validation procedures.
#
#######################################################################

data_SEVWEV
_symmetry_cell_setting           orthorhombic
_symmetry_space_group_name_H-M   'P 21 21 21'
_symmetry_Int_Tables_number      19
_space_group_name_Hall           'P 2ac 2ab'
loop_
_symmetry_equiv_pos_site_id
_symmetry_equiv_pos_as_xyz
1 x,y,z
2 1/2+x,1/2-y,-z
3 -x,1/2+y,1/2-z
4 1/2-x,-y,1/2+z
_cell_length_a                   6.120(3)
_cell_length_b                   9.719(2)
_cell_length_c                   20.133(8)
_cell_angle_alpha                90
_cell_angle_beta                 90
_cell_angle_gamma                90
_cell_volume                     1197.52
loop_
_atom_site_label
_atom_site_type_symbol
_atom_site_fract_x
_atom_site_fract_y
_atom_site_fract_z
Nd1 Nd -0.7142(1) -0.0340(1) 0.6853(1)
C1 C -0.2150(13) 0.1278(6) 0.3723(3)
C2 C -0.4198(11) 0.0624(7) 0.3738(3)
C3 C -0.5052(10) 0.0221(7) 0.4348(3)
C4 C -0.3934(11) 0.0457(7) 0.4933(3)
C5 C -0.1861(12) 0.1058(7) 0.4909(3)
C6 C -0.1025(11) 0.1481(7) 0.4309(3)
C7 C -0.1155(10) 0.1733(7) 0.3073(3)
C8 C -0.5526(9) 0.0427(7) 0.3132(3)
C9 C -0.4959(11) 0.0065(7) 0.5584(3)
O1 O -0.0742(8) 0.2991(5) 0.2993(2)
O2 O -0.0658(9) 0.0785(5) 0.2676(3)
O3 O -0.6442(9) -0.0699(5) 0.3018(2)
O4 O -0.5713(9) 0.1446(5) 0.2740(2)
O5 O -0.6976(8) -0.0158(6) 0.5602(2)
O6 O -0.3816(8) -0.0014(5) 0.6101(2)
O7 O -1.0263(11) 0.1123(7) 0.6653(3)
O8 O -1.0221(9) -0.1798(5) 0.6353(3)
O9 O -0.5858(13) -0.2729(7) 0.6605(4)
Nd1C Nd 0.2142(1) 0.0340(1) 0.1853(1)
Nd1C_2 Nd -0.7858(1) 0.0340(1) 0.1853(1)
Nd1A Nd -0.2142(1) 0.5340(1) 0.3147(1)
O1A O -0.5742(8) 0.2009(5) 0.7007(2)
O2C O -0.4342(9) -0.0785(5) 0.7676(3)
O3C O -0.8558(9) 0.0699(5) 0.8018(2)
O4C O -0.9287(9) -0.1446(5) 0.7740(2)
O10 O 0.0427(14) 0.7990(7) 0.4774(3)
loop_
_geom_bond_atom_site_label_1
_geom_bond_atom_site_label_2
_geom_bond_site_symmetry_1
_geom_bond_site_symmetry_2
Nd1 O5 1_555 1_555
C1 C2 1_555 1_555
C2 C3 1_555 1_555
C3 C4 1_555 1_555
C4 C5 1_555 1_555
C5 C6 1_555 1_555
C6 C1 1_555 1_555
C7 C1 1_555 1_555
C8 C2 1_555 1_555
C9 C4 1_555 1_555
O1 C7 1_555 1_555
O2 C7 1_555 1_555
O3 C8 1_555 1_555
O4 C8 1_555 1_555
O5 C9 1_555 1_555
O6 Nd1 1_555 1_555
O7 Nd1 1_555 1_555
O8 Nd1 1_555 1_555
O9 Nd1 1_555 1_555
Nd1C O2 1_555 1_555
Nd1C_2 O3 1_555 1_555
Nd1A O1 1_555 1_555
O1A Nd1 1_555 1_555
O2C Nd1 1_555 1_555
O3C Nd1 1_555 1_555
O4C Nd1 1_555 1_555
C9 O6 1_555 1_555
O4 Nd1C_2 1_555 1_555

#END
