
#######################################################################
#
#                 Cambridge Crystallographic Data Centre
#                                CCDC 
#
#######################################################################
#
# If this CIF has been generated from an entry in the Cambridge 
# Structural Database, then it will include bibliographic, chemical, 
# crystal, experimental, refinement or atomic coordinate data resulting 
# from the CCDC's data processing and validation procedures.
#
#######################################################################

data_SEWBAZ
_symmetry_cell_setting           monoclinic
_symmetry_space_group_name_H-M   'P 21'
_symmetry_Int_Tables_number      4
_space_group_name_Hall           'P 2yb'
loop_
_symmetry_equiv_pos_site_id
_symmetry_equiv_pos_as_xyz
1 x,y,z
2 -x,1/2+y,-z
_cell_length_a                   8.2288(7)
_cell_length_b                   17.0237(14)
_cell_length_c                   9.8162(8)
_cell_angle_alpha                90
_cell_angle_beta                 106.686(9)
_cell_angle_gamma                90
_cell_volume                     1317.2
loop_
_atom_site_label
_atom_site_type_symbol
_atom_site_fract_x
_atom_site_fract_y
_atom_site_fract_z
B1 B 0.532(3) 0.4758(15) 0.029(2)
F1 F 0.4792(15) 0.5481(8) 0.0240(12)
F2 F 0.4826(16) 0.4547(8) 0.1643(12)
F3 F 0.695(2) 0.4652(14) 0.0662(19)
F4 F 0.4256(15) 0.4323(7) -0.0776(12)
C1 C -0.5468(7) 0.6513(4) -0.2970(5)
H1 H -0.5960 0.6211 -0.3772
C2 C -0.3895(7) 0.6305(4) -0.2125(6)
H2 H -0.3338 0.5870 -0.2348
C3 C -0.3136(6) 0.6759(4) -0.0914(5)
C4 C -0.3977(6) 0.7413(4) -0.0680(5)
H3 H -0.3472 0.7747 0.0072
C5 C -0.5581(6) 0.7578(4) -0.1562(5)
H4 H -0.6158 0.8013 -0.1362
C6 C -0.1504(7) 0.6476(4) 0.0136(7)
H5 H -0.1748 0.6299 0.0995
H6 H -0.1073 0.6031 -0.0270
C7 C 0.1224(6) 0.6890(4) 0.1813(4)
H7 H 0.1259 0.6318 0.1937
C8 C 0.0747(5) 0.7265(4) 0.3080(4)
C9 C 0.2924(6) 0.7158(5) 0.1655(5)
H8 H 0.2950 0.7014 0.0695
C10 C 0.4373(8) 0.6742(7) 0.2687(8)
H9 H 0.4686 0.7021 0.3574
H10 H 0.5325 0.6722 0.2307
H11 H 0.4034 0.6217 0.2838
C11 C 0.3150(9) 0.8057(6) 0.1791(8)
H12 H 0.2192 0.8311 0.1147
H13 H 0.4166 0.8206 0.1562
H14 H 0.3233 0.8214 0.2748
C12 C 0.1335(7) 1.1136(3) 0.5323(6)
H15 H 0.1739 1.1564 0.5913
C13 C 0.1931(7) 1.0395(3) 0.5780(6)
H16 H 0.2723 1.0327 0.6663
C14 C 0.1334(7) 0.9749(3) 0.4903(5)
C15 C 0.0260(9) 0.9903(3) 0.3555(6)
H17 H -0.0093 0.9496 0.2906
C16 C -0.0279(8) 1.0654(4) 0.3184(5)
H18 H -0.1007 1.0740 0.2278
C17 C 0.1794(6) 0.8931(3) 0.5459(6)
H19 H 0.2271 0.8650 0.4805
H20 H 0.2662 0.8962 0.6367
C18 C -0.0490(6) 0.8806(3) 0.6685(5)
H21 H -0.0012 0.9330 0.6960
C19 C -0.0138(6) 0.8299(3) 0.8042(5)
C20 C -0.2429(8) 0.8889(4) 0.6114(7)
H22 H -0.2820 0.9024 0.6938
C21 C -0.3285(8) 0.8137(5) 0.5555(8)
H23 H -0.2973 0.7984 0.4722
H24 H -0.4492 0.8205 0.5313
H25 H -0.2942 0.7736 0.6268
C22 C -0.2952(12) 0.9566(7) 0.5092(12)
H26 H -0.2479 1.0045 0.5556
H27 H -0.4167 0.9605 0.4787
H28 H -0.2545 0.9479 0.4281
N1 N -0.6334(5) 0.7131(2) -0.2698(4)
N2 N -0.0192(5) 0.7087(3) 0.0507(4)
H29 H -0.0671 0.7543 0.0652
H30 H 0.0240 0.7157 -0.0229
N3 N 0.0180(6) 1.1264(2) 0.4043(5)
N4 N 0.0327(5) 0.8476(2) 0.5649(4)
H31 H -0.0474 0.8457 0.4790
O1 O 0.0516(5) 0.7625(2) 0.8008(4)
O2 O -0.0540(6) 0.8568(3) 0.9071(4)
O3 O 0.1698(4) 0.7081(2) 0.4300(3)
O4 O -0.0494(5) 0.7720(3) 0.2846(4)
Zn1 Zn 0.11617(5) 0.73138(4) 0.62001(4)
N1_2 N 0.3666(5) 0.7131(2) 0.7302(4)
N3A N -0.0180(6) 0.6264(2) 0.5957(5)
Zn1_2 Zn -0.88383(5) 0.73138(4) -0.37999(4)
Zn1A Zn -0.11617(5) 1.23138(4) 0.37999(4)
O5 O 0.8781(10) 0.0148(4) 0.9654(10)
loop_
_geom_bond_atom_site_label_1
_geom_bond_atom_site_label_2
_geom_bond_site_symmetry_1
_geom_bond_site_symmetry_2
B1 F1 1_555 1_555
F2 B1 1_555 1_555
F3 B1 1_555 1_555
F4 B1 1_555 1_555
C1 H1 1_555 1_555
C2 C1 1_555 1_555
H2 C2 1_555 1_555
C3 C2 1_555 1_555
C4 C3 1_555 1_555
H3 C4 1_555 1_555
C5 C4 1_555 1_555
H4 C5 1_555 1_555
C6 C3 1_555 1_555
H5 C6 1_555 1_555
H6 C6 1_555 1_555
C7 H7 1_555 1_555
C8 C7 1_555 1_555
C9 C7 1_555 1_555
H8 C9 1_555 1_555
C10 C9 1_555 1_555
H9 C10 1_555 1_555
H10 C10 1_555 1_555
H11 C10 1_555 1_555
C11 C9 1_555 1_555
H12 C11 1_555 1_555
H13 C11 1_555 1_555
H14 C11 1_555 1_555
C12 H15 1_555 1_555
C13 C12 1_555 1_555
H16 C13 1_555 1_555
C14 C13 1_555 1_555
C15 C14 1_555 1_555
H17 C15 1_555 1_555
C16 C15 1_555 1_555
H18 C16 1_555 1_555
C17 C14 1_555 1_555
H19 C17 1_555 1_555
H20 C17 1_555 1_555
C18 H21 1_555 1_555
C19 C18 1_555 1_555
C20 C18 1_555 1_555
H22 C20 1_555 1_555
C21 C20 1_555 1_555
H23 C21 1_555 1_555
H24 C21 1_555 1_555
H25 C21 1_555 1_555
C22 C20 1_555 1_555
H26 C22 1_555 1_555
H27 C22 1_555 1_555
H28 C22 1_555 1_555
N1 C1 1_555 1_555
N2 C6 1_555 1_555
H29 N2 1_555 1_555
H30 N2 1_555 1_555
N3 C12 1_555 1_555
N4 C17 1_555 1_555
H31 N4 1_555 1_555
O1 C19 1_555 1_555
O2 C19 1_555 1_555
O3 C8 1_555 1_555
O4 C8 1_555 1_555
Zn1 N4 1_555 1_555
N1_2 Zn1 1_555 1_555
N3A Zn1 1_555 1_555
Zn1_2 N1 1_555 1_555
Zn1A N3 1_555 1_555
C5 N1 1_555 1_555
C7 N2 1_555 1_555
C16 N3 1_555 1_555
C18 N4 1_555 1_555
O1 Zn1 1_555 1_555
O3 Zn1 1_555 1_555

#END
