
#######################################################################
#
#                 Cambridge Crystallographic Data Centre
#                                CCDC 
#
#######################################################################
#
# If this CIF has been generated from an entry in the Cambridge 
# Structural Database, then it will include bibliographic, chemical, 
# crystal, experimental, refinement or atomic coordinate data resulting 
# from the CCDC's data processing and validation procedures.
#
#######################################################################

data_SEWWOI
_symmetry_cell_setting           monoclinic
_symmetry_space_group_name_H-M   'P 21/c'
_symmetry_Int_Tables_number      14
_space_group_name_Hall           '-P 2ybc'
loop_
_symmetry_equiv_pos_site_id
_symmetry_equiv_pos_as_xyz
1 x,y,z
2 -x,1/2+y,1/2-z
3 -x,-y,-z
4 x,1/2-y,1/2+z
_cell_length_a                   8.368(3)
_cell_length_b                   7.7000(10)
_cell_length_c                   29.646(17)
_cell_angle_alpha                90
_cell_angle_beta                 94.91(4)
_cell_angle_gamma                90
_cell_volume                     1903.19
loop_
_atom_site_label
_atom_site_type_symbol
_atom_site_fract_x
_atom_site_fract_y
_atom_site_fract_z
Ag1 Ag 0.01287(8) 0.34329(10) 0.29378(2)
Ag2 Ag 0.47753(7) 0.26691(8) 0.483471(19)
Ag3 Ag -0.43464(8) -0.05361(10) 0.30758(2)
O1 O 0.2727(7) 0.4847(8) 0.5164(2)
O2 O 0.1399(8) 0.2458(7) 0.5094(2)
O3 O 0.0694(10) 0.4458(11) 0.5535(3)
O4 O -0.0007(7) 0.1600(8) 0.2228(3)
O5 O 0.1836(9) 0.3512(10) 0.2208(3)
O6 O 0.1547(8) 0.1562(9) 0.1685(2)
O7 O -0.2899(8) 0.4135(8) 0.2454(2)
O8 O -0.4636(7) 0.2085(9) 0.2512(2)
O9 O -0.2507(7) 0.2174(8) 0.2968(2)
N1 N 0.2398(7) 0.3465(7) 0.3444(2)
N2 N 0.1541(7) 0.2382(8) 0.4114(2)
H1 H 0.175 0.2138 0.4396
N3 N 0.4111(7) 0.3449(7) 0.4130(2)
N4 N 0.1601(7) 0.3934(8) 0.5268(2)
N5 N 0.1144(8) 0.2222(8) 0.2034(2)
N6 N -0.3340(8) 0.2800(8) 0.2644(2)
C1 C 0.2688(8) 0.3124(7) 0.3893(2)
C2 C 0.5235(8) 0.4245(9) 0.3910(3)
H2 H 0.6212 0.4507 0.4069
C3 C 0.5011(9) 0.4687(10) 0.3466(3)
H3 H 0.5797 0.5267 0.3321
C4 C 0.3569(9) 0.4237(10) 0.3241(2)
H4 H 0.3402 0.4481 0.2934
C5 C -0.0044(8) 0.1967(9) 0.3902(2)
H5 H 0.0057 0.1212 0.3644
H6 H -0.0577 0.3024 0.3794
C6 C -0.1046(8) 0.1068(9) 0.4239(2)
H7 H -0.0427 0.0146 0.4394
H8 H -0.1342 0.1895 0.4464
N7 N -0.5670(7) -0.0879(8) 0.37371(19)
N8 N -0.3591(7) -0.0443(8) 0.4295(2)
H9 H -0.3257 -0.0493 0.4577
N9 N -0.5851(7) -0.1851(7) 0.4495(2)
C7 C -0.5054(8) -0.1074(8) 0.4168(2)
C8 C -0.7339(9) -0.2406(9) 0.4379(3)
H10 H -0.7908 -0.2938 0.4597
C9 C -0.8064(9) -0.2218(10) 0.3945(3)
H11 H -0.9107 -0.2598 0.3869
C10 C -0.7179(9) -0.1450(10) 0.3635(2)
H12 H -0.7638 -0.1314 0.334
C11 C -0.2544(8) 0.0318(9) 0.3987(2)
H13 H -0.3112 0.1231 0.3814
H14 H -0.2239 -0.0561 0.3776
Ag1A Ag -0.01287(8) -0.15671(10) 0.20622(2)
Ag2B Ag -0.47753(7) -0.26691(8) 0.516529(19)
Ag3A Ag -0.56536(8) 0.44639(10) 0.19242(2)
Ag3A_2 Ag 0.43464(8) 0.44639(10) 0.19242(2)
O4A O 0.0007(7) 0.6600(8) 0.2772(3)
O5A O -0.1836(9) -0.1488(10) 0.2792(3)
O7A O -0.7101(8) -0.0865(8) 0.2546(2)
O8A O -0.5364(7) -0.2915(9) 0.2488(2)
N9B N 0.5851(7) 0.1851(7) 0.5505(2)
loop_
_geom_bond_atom_site_label_1
_geom_bond_atom_site_label_2
_geom_bond_site_symmetry_1
_geom_bond_site_symmetry_2
Ag1 O4 1_555 1_555
Ag2 O1 1_555 1_555
Ag3 O8 1_555 1_555
O1 N4 1_555 1_555
O2 N4 1_555 1_555
O3 N4 1_555 1_555
O4 N5 1_555 1_555
O5 Ag1 1_555 1_555
O6 N5 1_555 1_555
O7 N6 1_555 1_555
O8 N6 1_555 1_555
O9 Ag1 1_555 1_555
N1 Ag1 1_555 1_555
N2 H1 1_555 1_555
N3 Ag2 1_555 1_555
N5 O5 1_555 1_555
N6 O9 1_555 1_555
C1 N1 1_555 1_555
C2 N3 1_555 1_555
H2 C2 1_555 1_555
C3 C2 1_555 1_555
H3 C3 1_555 1_555
C4 N1 1_555 1_555
H4 C4 1_555 1_555
C5 N2 1_555 1_555
H5 C5 1_555 1_555
H6 C5 1_555 1_555
C6 C5 1_555 1_555
H7 C6 1_555 1_555
H8 C6 1_555 1_555
N7 Ag3 1_555 1_555
N8 H9 1_555 1_555
N9 C7 1_555 1_555
C7 N7 1_555 1_555
C8 N9 1_555 1_555
H10 C8 1_555 1_555
C9 C8 1_555 1_555
H11 C9 1_555 1_555
C10 N7 1_555 1_555
H12 C10 1_555 1_555
C11 C6 1_555 1_555
H13 C11 1_555 1_555
H14 C11 1_555 1_555
Ag1A O4 1_555 1_555
Ag2B N9 1_555 1_555
Ag3A O7 1_555 1_555
Ag3A_2 O5 1_555 1_555
O4A Ag1 1_555 1_555
O5A Ag3 1_555 1_555
O7A Ag3 1_555 1_555
O8A Ag3 1_555 1_555
N9B Ag2 1_555 1_555
Ag3 O9 1_555 1_555
O8 Ag3A 1_555 1_555
N2 C1 1_555 1_555
N3 C1 1_555 1_555
C3 C4 1_555 1_555
N8 C7 1_555 1_555
N8 C11 1_555 1_555
C9 C10 1_555 1_555
Ag1A O5A 1_555 1_555

#END
