
#######################################################################
#
#                 Cambridge Crystallographic Data Centre
#                                CCDC 
#
#######################################################################
#
# If this CIF has been generated from an entry in the Cambridge 
# Structural Database, then it will include bibliographic, chemical, 
# crystal, experimental, refinement or atomic coordinate data resulting 
# from the CCDC's data processing and validation procedures.
#
#######################################################################

data_SEWWIC
_symmetry_cell_setting           monoclinic
_symmetry_space_group_name_H-M   'P 21/c'
_symmetry_Int_Tables_number      14
_space_group_name_Hall           '-P 2ybc'
loop_
_symmetry_equiv_pos_site_id
_symmetry_equiv_pos_as_xyz
1 x,y,z
2 -x,1/2+y,1/2-z
3 -x,-y,-z
4 x,1/2-y,1/2+z
_cell_length_a                   4.798(6)
_cell_length_b                   13.756(2)
_cell_length_c                   22.487(3)
_cell_angle_alpha                90
_cell_angle_beta                 93.377(11)
_cell_angle_gamma                90
_cell_volume                     1481.59
loop_
_atom_site_label
_atom_site_type_symbol
_atom_site_fract_x
_atom_site_fract_y
_atom_site_fract_z
Ag1 Ag 0.31971(8) 0.68271(3) 0.260057(15)
N1 N 0.4117(9) 0.6985(2) 0.16920(17)
N2 N 0.1285(9) 0.5698(3) 0.13927(17)
H1 H 0.1056 0.5608 0.1765
N3 N 0.3471(9) 0.6519(3) 0.06659(17)
N4 N 0.0771(8) 0.2937(3) 0.14620(16)
H2 H 0.0301 0.3074 0.1816
N5 N -0.2281(8) 0.1640(2) 0.14884(16)
N6 N 0.0356(9) 0.1955(3) 0.06386(17)
C1 C 0.2988(9) 0.6412(3) 0.12426(19)
C2 C 0.5284(12) 0.7216(4) 0.0540(2)
H3 H 0.5689 0.7306 0.0144
C3 C 0.6584(12) 0.7807(4) 0.0964(3)
H4 H 0.7874 0.8276 0.0864
C4 C 0.5895(11) 0.7675(3) 0.1539(2)
H5 H 0.669 0.808 0.1833
C5 C -0.0206(10) 0.5062(3) 0.0968(2)
H6 H -0.0962 0.5451 0.0636
H7 H -0.1766 0.4771 0.1158
C6 C 0.1567(9) 0.4257(3) 0.07268(19)
H8 H 0.308 0.4549 0.0522
H9 H 0.0432 0.3889 0.0435
C7 C 0.2801(9) 0.3559(3) 0.1194(2)
H10 H 0.4165 0.3151 0.1013
H11 H 0.3781 0.3933 0.1507
C8 C -0.0409(8) 0.2162(3) 0.11873(18)
C9 C -0.3452(10) 0.0879(3) 0.1202(2)
H12 H -0.4753 0.0508 0.1392
C10 C -0.2811(11) 0.0629(4) 0.0644(2)
H13 H -0.3651 0.01 0.0448
C11 C -0.0881(11) 0.1187(4) 0.0382(2)
H14 H -0.0403 0.102 0.000
Ag1A Ag -0.31971(8) 0.18271(3) 0.239943(15)
N5A N 0.2281(8) 0.6640(2) 0.35116(16)
B1 B -0.1282(10) 0.4590(4) 0.2734(2)
F1 F 0.1519(6) 0.4588(3) 0.26083(17)
F2 F -0.1544(7) 0.4429(3) 0.33257(13)
F3 F -0.2648(7) 0.3879(3) 0.24037(14)
F4 F -0.2294(7) 0.5476(2) 0.25729(17)
loop_
_geom_bond_atom_site_label_1
_geom_bond_atom_site_label_2
_geom_bond_site_symmetry_1
_geom_bond_site_symmetry_2
Ag1 N1 1_555 1_555
N1 C1 1_555 1_555
N2 H1 1_555 1_555
N3 C1 1_555 1_555
N4 H2 1_555 1_555
N5 C8 1_555 1_555
N6 C8 1_555 1_555
C1 N2 1_555 1_555
C2 N3 1_555 1_555
H3 C2 1_555 1_555
C3 C2 1_555 1_555
H4 C3 1_555 1_555
C4 N1 1_555 1_555
H5 C4 1_555 1_555
C5 N2 1_555 1_555
H6 C5 1_555 1_555
H7 C5 1_555 1_555
C6 C5 1_555 1_555
H8 C6 1_555 1_555
H9 C6 1_555 1_555
C7 N4 1_555 1_555
H10 C7 1_555 1_555
H11 C7 1_555 1_555
C8 N4 1_555 1_555
C9 N5 1_555 1_555
H12 C9 1_555 1_555
C10 C9 1_555 1_555
H13 C10 1_555 1_555
C11 N6 1_555 1_555
H14 C11 1_555 1_555
B1 F1 1_555 1_555
F2 B1 1_555 1_555
F3 B1 1_555 1_555
F4 B1 1_555 1_555
Ag1A N5 1_555 1_555
N5A Ag1 1_555 1_555
C3 C4 1_555 1_555
C6 C7 1_555 1_555
C10 C11 1_555 1_555

#END
