
#######################################################################
#
#                 Cambridge Crystallographic Data Centre
#                                CCDC 
#
#######################################################################
#
# If this CIF has been generated from an entry in the Cambridge 
# Structural Database, then it will include bibliographic, chemical, 
# crystal, experimental, refinement or atomic coordinate data resulting 
# from the CCDC's data processing and validation procedures.
#
#######################################################################

data_SEWXUO
_symmetry_cell_setting           triclinic
_symmetry_space_group_name_H-M   'P 1'
_symmetry_Int_Tables_number      1
_space_group_name_Hall           'P 1'
loop_
_symmetry_equiv_pos_site_id
_symmetry_equiv_pos_as_xyz
1 x,y,z
_cell_length_a                   10.617(4)
_cell_length_b                   10.616(4)
_cell_length_c                   17.008(6)
_cell_angle_alpha                90.014(7)
_cell_angle_beta                 89.982(7)
_cell_angle_gamma                90.011(6)
_cell_volume                     1916.97
loop_
_atom_site_label
_atom_site_type_symbol
_atom_site_fract_x
_atom_site_fract_y
_atom_site_fract_z
Cr1 Cr 0.486(2) 0.508(2) -0.010(2)
Cr2 Cr 0.987(2) 0.007(2) 0.492(2)
O1 O 0.632(3) -0.021(3) -0.053(2)
O2 O 0.606(3) -0.041(3) 0.114(2)
O3 O 0.535(3) -0.109(3) 0.368(2)
O4 O 0.518(3) -0.138(3) 0.535(2)
O5 O 0.457(3) 0.156(3) 0.534(2)
O6 O 0.440(2) 0.124(3) 0.369(2)
O7 O 0.370(3) 0.055(3) 0.114(2)
O8 O 0.341(3) 0.037(3) -0.053(2)
O9 O 0.132(3) 0.537(3) -0.553(2)
O10 O 0.103(3) 0.555(3) -0.386(2)
O11 O 0.035(3) 0.626(3) -0.132(2)
O12 O 0.013(3) 0.651(3) 0.036(2)
O13 O -0.041(3) 0.363(3) 0.035(2)
O14 O -0.062(3) 0.390(3) -0.131(2)
O15 O -0.132(3) 0.461(3) -0.386(2)
O16 O -0.160(3) 0.477(3) -0.554(2)
O17 O 0.569(3) 0.228(3) 0.190(2)
O18 O 0.706(3) 0.088(3) 0.293(2)
O19 O 0.407(3) -0.213(3) 0.190(2)
O20 O 0.268(3) -0.072(3) 0.292(2)
O21 O -0.095(3) 0.728(3) -0.311(2)
O22 O -0.235(3) 0.590(3) -0.207(2)
O23 O 0.065(3) 0.287(3) -0.311(2)
O24 O 0.207(3) 0.426(3) -0.208(2)
N1 N 0.666(3) -0.170(3) 0.241(2)
N2 N 0.310(3) 0.187(3) 0.242(2)
N3 N 0.165(3) 0.685(3) -0.260(2)
N4 N -0.192(3) 0.328(3) -0.260(2)
N5 N 0.524(3) 0.208(3) 0.009(2)
N6 N 0.187(3) 0.473(3) -0.029(2)
N7 N 0.448(3) 0.809(3) 0.009(2)
N8 N 0.787(3) 0.545(3) -0.029(2)
N9 N 0.489(3) 0.508(3) -0.200(2)
N10 N 0.486(3) 0.509(3) 0.185(2)
N11 N 0.686(3) 0.046(3) 0.473(2)
N12 N 0.023(3) 0.307(3) -0.491(2)
N13 N 0.286(3) -0.030(3) 0.472(2)
N14 N -0.049(3) 0.708(3) -0.490(2)
N15 N 0.986(3) 0.005(3) 0.302(2)
N16 N 0.989(3) 0.010(3) 0.681(2)
C1 C 0.812(3) -0.123(3) -0.108(2)
C2 C 0.724(3) -0.091(3) -0.041(2)
C3 C 0.752(3) -0.143(3) 0.035(2)
C4 C 0.692(3) -0.123(3) 0.104(2)
C5 C 0.728(3) -0.200(3) 0.174(2)
C6 C 0.816(3) -0.295(3) 0.170(2)
C7 C 0.849(3) -0.355(3) 0.240(2)
C8 C 0.787(3) -0.324(3) 0.308(2)
C9 C 0.693(3) -0.230(3) 0.307(2)
C10 C 0.618(3) -0.197(3) 0.378(2)
C11 C 0.645(3) -0.258(3) 0.448(2)
C12 C 0.587(3) -0.230(3) 0.524(2)
C13 C 0.615(3) -0.313(3) 0.591(2)
C14 C 0.356(3) 0.333(3) 0.590(2)
C15 C 0.386(3) 0.246(3) 0.521(2)
C16 C 0.331(3) 0.275(3) 0.448(2)
C17 C 0.355(3) 0.213(3) 0.377(2)
C18 C 0.281(3) 0.247(3) 0.306(2)
C19 C 0.187(3) 0.340(3) 0.308(2)
C20 C 0.124(3) 0.370(3) 0.241(2)
C21 C 0.155(3) 0.307(3) 0.172(2)
C22 C 0.248(3) 0.215(3) 0.173(2)
C23 C 0.283(3) 0.139(3) 0.103(2)
C24 C 0.219(3) 0.162(3) 0.033(2)
C25 C 0.251(3) 0.110(3) -0.039(2)
C26 C 0.163(3) 0.137(3) -0.109(2)
C27 C 0.309(3) 0.638(3) -0.610(2)
C28 C 0.225(3) 0.608(3) -0.541(2)
C29 C 0.254(3) 0.662(3) -0.466(2)
C30 C 0.193(3) 0.638(3) -0.395(2)
C31 C 0.226(3) 0.713(3) -0.323(2)
C32 C 0.320(3) 0.809(3) -0.327(2)
C33 C 0.349(3) 0.868(3) -0.259(2)
C34 C 0.291(3) 0.837(3) -0.189(2)
C35 C 0.193(3) 0.749(3) -0.193(2)
C36 C 0.118(3) 0.713(3) -0.122(2)
C37 C 0.142(3) 0.777(3) -0.051(2)
C38 C 0.086(3) 0.744(3) 0.022(2)
C39 C 0.117(3) 0.832(3) 0.089(2)
C40 C -0.145(3) 0.181(3) 0.090(2)
C41 C -0.113(3) 0.271(3) 0.022(2)
C42 C -0.167(3) 0.240(3) -0.052(2)
C43 C -0.145(3) 0.304(3) -0.121(2)
C44 C -0.222(3) 0.268(3) -0.189(2)
C45 C -0.315(3) 0.178(3) -0.190(2)
C46 C -0.381(3) 0.145(3) -0.258(2)
C47 C -0.349(3) 0.210(3) -0.323(2)
C48 C -0.254(3) 0.306(3) -0.325(2)
C49 C -0.219(3) 0.376(3) -0.397(2)
C50 C -0.281(3) 0.357(3) -0.466(2)
C51 C -0.253(3) 0.407(3) -0.540(2)
C52 C -0.334(3) 0.379(3) -0.610(2)
C53 C 0.516(3) 0.314(3) 0.001(2)
C54 C 0.293(3) 0.483(3) -0.020(2)
C55 C 0.458(3) 0.705(3) -0.001(2)
C56 C 0.680(3) 0.533(3) -0.020(2)
C57 C 0.487(3) 0.508(3) -0.130(2)
C58 C 0.487(3) 0.509(3) 0.113(2)
C59 C 0.794(3) 0.035(3) 0.484(2)
C60 C 0.012(3) 0.201(3) -0.500(2)
C61 C 0.180(3) -0.018(3) 0.485(2)
C62 C -0.037(3) 0.813(3) -0.500(2)
C63 C 0.988(3) 0.007(3) 0.368(2)
C64 C 0.988(3) 0.008(3) 0.611(2)
La1 La 0.486(2) 0.007(2) 0.241(2)
La2 La -0.014(2) 0.507(2) -0.259(2)
H1 H 0.7711 -0.1612 -0.1500
H2 H 0.8825 -0.1746 -0.0916
H3 H 0.8536 -0.0451 -0.1297
H4 H 0.8277 -0.1966 0.0359
H5 H 0.8617 -0.3145 0.1219
H6 H 0.9183 -0.4144 0.2399
H7 H 0.8121 -0.3645 0.3563
H8 H 0.7110 -0.3205 0.4461
H9 H 0.6725 -0.3783 0.5740
H10 H 0.6602 -0.2653 0.6313
H11 H 0.5427 -0.3455 0.6105
H12 H 0.4364 0.3712 0.6115
H13 H 0.3203 0.2884 0.6314
H14 H 0.3065 0.4014 0.5742
H15 H 0.2771 0.3468 0.4454
H16 H 0.1729 0.3868 0.3558
H17 H 0.0645 0.4353 0.2410
H18 H 0.1168 0.3297 0.1237
H19 H 0.1533 0.2209 0.0344
H20 H 0.1033 0.1965 -0.0937
H21 H 0.1312 0.0640 -0.1280
H22 H 0.2146 0.1778 -0.1516
H23 H 0.3496 0.5634 -0.6315
H24 H 0.2677 0.6799 -0.6521
H25 H 0.3814 0.6938 -0.5954
H26 H 0.3270 0.7248 -0.4654
H27 H 0.3677 0.8360 -0.3776
H28 H 0.4190 0.9334 -0.2592
H29 H 0.3184 0.8826 -0.1423
H30 H 0.2059 0.8477 -0.0522
H31 H 0.1774 0.8998 0.0716
H32 H 0.1612 0.7898 0.1307
H33 H 0.0465 0.8728 0.1084
H34 H -0.1783 0.2287 0.1312
H35 H -0.0631 0.1465 0.1085
H36 H -0.1938 0.1195 0.0713
H37 H -0.2190 0.1735 -0.0548
H38 H -0.3306 0.1395 -0.1431
H39 H -0.4371 0.0839 -0.2589
H40 H -0.3880 0.1942 -0.3736
H41 H -0.3487 0.3062 -0.4639
H42 H -0.3968 0.3286 -0.5953
H43 H -0.2805 0.3402 -0.6501
H44 H -0.3621 0.4578 -0.6319
Co1 Co 0.487(2) 0.007(2) 0.021(2)
Co2 Co 0.487(2) 0.007(2) 0.462(2)
Co3 Co -0.013(2) 0.507(2) -0.038(2)
Co4 Co -0.014(2) 0.507(2) -0.480(2)
Cr2_2 Cr -0.013(2) 0.007(2) -0.508(2)
Cr2_3 Cr -0.013(2) 0.007(2) 0.492(2)
Cr2_4 Cr -0.013(2) 1.007(2) -0.508(2)
N7_2 N 0.448(3) -0.191(3) 0.009(2)
N8_2 N -0.213(3) 0.545(3) -0.029(2)
C60_2 C 1.012(3) 0.201(3) 0.500(2)
C61_2 C 1.180(3) -0.018(3) 0.485(2)
C62_2 C 0.963(3) -0.187(3) 0.500(2)
Co1_2 Co 0.487(2) 1.007(2) 0.021(2)
Co3_2 Co 0.987(2) 0.507(2) -0.038(2)
loop_
_geom_bond_atom_site_label_1
_geom_bond_atom_site_label_2
_geom_bond_site_symmetry_1
_geom_bond_site_symmetry_2
Cr1 C53 1_555 1_555
Cr2 C59 1_555 1_555
O1 C2 1_555 1_555
O2 C4 1_555 1_555
O3 C10 1_555 1_555
O4 C12 1_555 1_555
O5 C15 1_555 1_555
O6 C17 1_555 1_555
O7 C23 1_555 1_555
O8 C25 1_555 1_555
O9 C28 1_555 1_555
O10 C30 1_555 1_555
O11 C36 1_555 1_555
O12 C38 1_555 1_555
O13 C41 1_555 1_555
O14 C43 1_555 1_555
O15 C49 1_555 1_555
O16 C51 1_555 1_555
O17 La1 1_555 1_555
O18 La1 1_555 1_555
O19 La1 1_555 1_555
O20 La1 1_555 1_555
O21 La2 1_555 1_555
O22 La2 1_555 1_555
O23 La2 1_555 1_555
O24 La2 1_555 1_555
N1 C5 1_555 1_555
N2 C18 1_555 1_555
N3 C31 1_555 1_555
N4 C44 1_555 1_555
N5 C53 1_555 1_555
N6 C54 1_555 1_555
N7 C55 1_555 1_555
N8 C56 1_555 1_555
N9 C57 1_555 1_555
N10 C58 1_555 1_555
N11 C59 1_555 1_555
N12 C60 1_555 1_555
N13 C61 1_555 1_555
N14 C62 1_555 1_555
N15 C63 1_555 1_555
N16 C64 1_555 1_555
C1 C2 1_555 1_555
C2 C3 1_555 1_555
C3 C4 1_555 1_555
C4 C5 1_555 1_555
C5 C6 1_555 1_555
C6 C7 1_555 1_555
C7 C8 1_555 1_555
C8 C9 1_555 1_555
C9 N1 1_555 1_555
C10 C9 1_555 1_555
C11 C10 1_555 1_555
C12 C11 1_555 1_555
C13 C12 1_555 1_555
C14 C15 1_555 1_555
C15 C16 1_555 1_555
C16 C17 1_555 1_555
C17 C18 1_555 1_555
C18 C19 1_555 1_555
C19 C20 1_555 1_555
C20 C21 1_555 1_555
C21 C22 1_555 1_555
C22 N2 1_555 1_555
C23 C22 1_555 1_555
C24 C23 1_555 1_555
C25 C24 1_555 1_555
C26 C25 1_555 1_555
C27 C28 1_555 1_555
C28 C29 1_555 1_555
C29 C30 1_555 1_555
C30 C31 1_555 1_555
C31 C32 1_555 1_555
C32 C33 1_555 1_555
C33 C34 1_555 1_555
C34 C35 1_555 1_555
C35 N3 1_555 1_555
C36 C35 1_555 1_555
C37 C36 1_555 1_555
C38 C37 1_555 1_555
C39 C38 1_555 1_555
C40 C41 1_555 1_555
C41 C42 1_555 1_555
C42 C43 1_555 1_555
C43 C44 1_555 1_555
C44 C45 1_555 1_555
C45 C46 1_555 1_555
C46 C47 1_555 1_555
C47 C48 1_555 1_555
C48 N4 1_555 1_555
C49 C48 1_555 1_555
C50 C49 1_555 1_555
C51 C50 1_555 1_555
C52 C51 1_555 1_555
C54 Cr1 1_555 1_555
C55 Cr1 1_555 1_555
C56 Cr1 1_555 1_555
C57 Cr1 1_555 1_555
C58 Cr1 1_555 1_555
C60 Cr2_2 1_555 1_555
C61 Cr2_3 1_555 1_555
C62 Cr2_4 1_555 1_555
C63 Cr2 1_555 1_555
C64 Cr2 1_555 1_555
La1 O2 1_555 1_555
La2 O10 1_555 1_555
H1 C1 1_555 1_555
H2 C1 1_555 1_555
H3 C1 1_555 1_555
H4 C3 1_555 1_555
H5 C6 1_555 1_555
H6 C7 1_555 1_555
H7 C8 1_555 1_555
H8 C11 1_555 1_555
H9 C13 1_555 1_555
H10 C13 1_555 1_555
H11 C13 1_555 1_555
H12 C14 1_555 1_555
H13 C14 1_555 1_555
H14 C14 1_555 1_555
H15 C16 1_555 1_555
H16 C19 1_555 1_555
H17 C20 1_555 1_555
H18 C21 1_555 1_555
H19 C24 1_555 1_555
H20 C26 1_555 1_555
H21 C26 1_555 1_555
H22 C26 1_555 1_555
H23 C27 1_555 1_555
H24 C27 1_555 1_555
H25 C27 1_555 1_555
H26 C29 1_555 1_555
H27 C32 1_555 1_555
H28 C33 1_555 1_555
H29 C34 1_555 1_555
H30 C37 1_555 1_555
H31 C39 1_555 1_555
H32 C39 1_555 1_555
H33 C39 1_555 1_555
H34 C40 1_555 1_555
H35 C40 1_555 1_555
H36 C40 1_555 1_555
H37 C42 1_555 1_555
H38 C45 1_555 1_555
H39 C46 1_555 1_555
H40 C47 1_555 1_555
H41 C50 1_555 1_555
H42 C52 1_555 1_555
H43 C52 1_555 1_555
H44 C52 1_555 1_555
Co1 O1 1_555 1_555
Co2 O3 1_555 1_555
Co3 O11 1_555 1_555
Co4 O9 1_555 1_555
N7_2 Co1 1_555 1_555
N8_2 Co3 1_555 1_555
C60_2 Cr2 1_555 1_555
C61_2 Cr2 1_555 1_555
C62_2 Cr2 1_555 1_555
Co1_2 N7 1_555 1_555
Co3_2 N8 1_555 1_555
O2 Co1 1_555 1_555
O3 La1 1_555 1_555
O4 Co2 1_555 1_555
O5 Co2 1_555 1_555
O6 La1 1_555 1_555
O6 Co2 1_555 1_555
O7 La1 1_555 1_555
O7 Co1 1_555 1_555
O8 Co1 1_555 1_555
O10 Co4 1_555 1_555
O11 La2 1_555 1_555
O12 Co3 1_555 1_555
O13 Co3 1_555 1_555
O14 La2 1_555 1_555
O14 Co3 1_555 1_555
O15 La2 1_555 1_555
O15 Co4 1_555 1_555
O16 Co4 1_555 1_555
N1 La1 1_555 1_555
N2 La1 1_555 1_555
N3 La2 1_555 1_555
N4 La2 1_555 1_555
N5 Co1 1_555 1_555
N6 Co3 1_555 1_555
N11 Co2 1_555 1_555
N12 Co4 1_555 1_555
N13 Co2 1_555 1_555
N14 Co4 1_555 1_555

#END
