
#######################################################################
#
#                 Cambridge Crystallographic Data Centre
#                                CCDC 
#
#######################################################################
#
# If this CIF has been generated from an entry in the Cambridge 
# Structural Database, then it will include bibliographic, chemical, 
# crystal, experimental, refinement or atomic coordinate data resulting 
# from the CCDC's data processing and validation procedures.
#
#######################################################################

data_SEWXEZ
_symmetry_cell_setting           orthorhombic
_symmetry_space_group_name_H-M   'P n a 21'
_symmetry_Int_Tables_number      33
_space_group_name_Hall           'P 2c -2n'
loop_
_symmetry_equiv_pos_site_id
_symmetry_equiv_pos_as_xyz
1 x,y,z
2 -x,-y,1/2+z
3 1/2+x,1/2-y,z
4 1/2-x,1/2+y,1/2+z
_cell_length_a                   36.803(2)
_cell_length_b                   7.3345(4)
_cell_length_c                   27.2815(16)
_cell_angle_alpha                90
_cell_angle_beta                 90
_cell_angle_gamma                90
_cell_volume                     7364.14
loop_
_atom_site_label
_atom_site_type_symbol
_atom_site_fract_x
_atom_site_fract_y
_atom_site_fract_z
N1 N 0.1457(4) 0.818(2) 0.3160(5)
C1 C 0.1219(5) 0.754(2) 0.3370(6)
C2 C 0.0907(6) 0.674(3) 0.3650(8)
H1 H 0.0997 0.5961 0.3904
H2 H 0.0756 0.6053 0.3431
H3 H 0.0767 0.7711 0.3793
Ag1 Ag 0.93970(3) 0.39189(14) 0.41888(3)
Ag2 Ag 0.77426(2) 0.60332(15) 0.53015(3)
Ag3 Ag 0.76487(3) 1.10264(16) 0.48471(3)
C3 C 0.8917(3) 0.5798(16) 0.3399(4)
C4 C 0.8804(4) 0.6530(17) 0.2968(4)
H4 H 0.8560 0.6784 0.2911
C5 C 0.9068(3) 0.6886(18) 0.2613(4)
C6 C 0.9418(4) 0.6432(16) 0.2725(5)
H5 H 0.9598 0.6632 0.2491
C7 C 0.9513(3) 0.5706(17) 0.3158(4)
H6 H 0.9756 0.5462 0.3222
C8 C 0.8955(4) 0.7699(18) 0.2127(4)
H7 H 0.9156 0.8357 0.1988
H8 H 0.8755 0.8514 0.2176
H9 H 0.8884 0.6740 0.1907
C9 C 0.7849(3) 0.5577(14) 0.4189(4)
C10 C 0.7776(3) 0.5386(17) 0.3701(5)
H10 H 0.7964 0.5421 0.3474
C11 C 0.7424(3) 0.5142(16) 0.3545(4)
C12 C 0.7155(3) 0.5107(18) 0.3912(5)
H11 H 0.6913 0.4928 0.3827
C13 C 0.7246(3) 0.5330(18) 0.4388(4)
H12 H 0.7064 0.5303 0.4624
C14 C 0.7326(4) 0.496(2) 0.3015(5)
H13 H 0.7539 0.5132 0.2818
H14 H 0.7147 0.5859 0.2931
H15 H 0.7228 0.3763 0.2957
C15 C 0.9010(3) 1.1106(17) 0.3238(4)
C16 C 0.9043(4) 1.1806(19) 0.2771(5)
H16 H 0.8844 1.2297 0.2608
C17 C 0.9389(4) 1.1752(18) 0.2550(5)
C18 C 0.9664(4) 1.0932(18) 0.2817(5)
H17 H 0.9896 1.0833 0.2685
C19 C 0.9593(4) 1.026(2) 0.3277(5)
H18 H 0.9784 0.9728 0.3448
C20 C 0.9445(5) 1.245(2) 0.2045(5)
H19 H 0.9677 1.2053 0.1925
H20 H 0.9438 1.3762 0.2049
H21 H 0.9256 1.2001 0.1835
C21 C 0.7849(3) 1.0890(16) 0.3759(4)
C22 C 0.7831(3) 1.0614(17) 0.3263(4)
H22 H 0.8034 1.0831 0.3067
C23 C 0.7512(4) 1.0014(19) 0.3058(4)
C24 C 0.7221(4) 0.9723(18) 0.3374(4)
H23 H 0.7003 0.9269 0.3252
C25 C 0.7253(3) 1.0099(19) 0.3858(5)
H24 H 0.7050 0.9971 0.4057
C26 C 0.7485(5) 0.961(2) 0.2517(5)
H25 H 0.7552 1.0669 0.2333
H26 H 0.7240 0.9268 0.2438
H27 H 0.7646 0.8620 0.2436
C27 C 0.9428(3) 1.2117(15) 0.5212(4)
C28 C 0.9547(3) 1.1379(16) 0.5641(5)
H28 H 0.9388 1.1140 0.5898
C29 C 0.9921(4) 1.0992(18) 0.5677(5)
C30 C 1.0137(3) 1.1362(19) 0.5273(5)
H29 H 1.0384 1.1089 0.5280
C31 C 0.9984(3) 1.2138(16) 0.4859(5)
H30 H 1.0134 1.2392 0.4594
C32 C 1.0074(4) 1.022(2) 0.6146(5)
H31 H 1.0291 0.9543 0.6076
H32 H 0.9897 0.9423 0.6294
H33 H 1.0129 1.1194 0.6368
C33 C 0.8250(3) 1.2085(16) 0.5572(4)
C34 C 0.8437(3) 1.2442(18) 0.6006(4)
H34 H 0.8682 1.2751 0.6003
C35 C 0.8244(4) 1.2321(17) 0.6443(4)
C36 C 0.7875(3) 1.184(2) 0.6423(5)
H35 H 0.7742 1.1702 0.6710
C37 C 0.7714(4) 1.158(2) 0.5983(5)
H36 H 0.7465 1.1350 0.5977
C38 C 0.8434(4) 1.2690(19) 0.6918(4)
H37 H 0.8689 1.2454 0.6881
H38 H 0.8336 1.1911 0.7168
H39 H 0.8398 1.3941 0.7009
C39 C 0.9576(3) 0.6795(16) 0.5241(4)
C40 C 0.9831(3) 0.6096(17) 0.5577(4)
H40 H 0.9766 0.5627 0.5882
C41 C 1.0194(3) 0.6167(18) 0.5413(5)
C42 C 1.0259(4) 0.683(2) 0.4962(5)
H41 H 1.0496 0.6813 0.4844
C43 C 0.9989(4) 0.751(2) 0.4670(5)
H42 H 1.0049 0.8030 0.4370
C44 C 1.0484(4) 0.547(3) 0.5764(6)
H43 H 1.0620 0.4515 0.5609
H44 H 1.0370 0.5009 0.6055
H45 H 1.0645 0.6453 0.5849
C45 C 0.8439(3) 0.6873(16) 0.5895(4)
C46 C 0.8663(4) 0.7275(18) 0.6285(4)
H46 H 0.8913 0.7266 0.6242
C47 C 0.8519(4) 0.7692(18) 0.6741(4)
C48 C 0.8136(4) 0.762(2) 0.6767(5)
H47 H 0.8021 0.7839 0.7065
C49 C 0.7933(4) 0.722(2) 0.6361(5)
H48 H 0.7681 0.7239 0.6388
C50 C 0.8744(4) 0.812(2) 0.7164(5)
H49 H 0.8918 0.7167 0.7214
H50 H 0.8593 0.8237 0.7450
H51 H 0.8869 0.9253 0.7108
C51 C 0.6833(4) 0.907(2) 0.5241(6)
C52 C 0.6466(4) 0.863(2) 0.5383(6)
H52 H 0.6386 0.7565 0.5210
H53 H 0.6309 0.9637 0.5305
H54 H 0.6458 0.8402 0.5729
C53 C 0.6922(4) 0.4413(19) 0.5822(5)
C54 C 0.6591(4) 0.384(2) 0.6085(5)
H55 H 0.6655 0.3015 0.6344
H56 H 0.6428 0.3250 0.5861
H57 H 0.6474 0.4896 0.6222
N2 N 0.8847(2) 0.6462(13) 0.4596(3)
N3 N 0.8454(3) 0.8523(14) 0.3954(4)
N4 N 0.8784(2) 1.1426(12) 0.4365(3)
N5 N 0.8806(3) 0.9399(14) 0.5206(4)
N6 N 0.9257(3) 0.5320(14) 0.3510(4)
N7 N 0.7600(3) 0.5596(15) 0.4535(4)
N8 N 0.9266(3) 1.0328(15) 0.3498(4)
N9 N 0.7566(3) 1.0649(13) 0.4062(3)
N10 N 0.9627(2) 1.2544(13) 0.4822(4)
N11 N 0.7899(3) 1.1631(13) 0.5542(3)
N12 N 0.9637(3) 0.7455(15) 0.4811(4)
N13 N 0.8077(3) 0.6816(15) 0.5932(4)
N14 N 0.7121(4) 0.9407(18) 0.5123(5)
N15 N 0.7176(4) 0.488(2) 0.5637(5)
O1 O 0.8659(2) 0.5273(11) 0.3754(3)
O2 O 0.82014(19) 0.5633(10) 0.4385(3)
O3 O 0.8663(2) 1.1241(12) 0.3451(3)
O4 O 0.8159(2) 1.1580(10) 0.3991(3)
O5 O 0.9058(2) 1.2643(10) 0.5170(3)
O6 O 0.8408(2) 1.2234(10) 0.5119(3)
O7 O 0.9213(2) 0.6633(11) 0.5400(3)
O8 O 0.8568(2) 0.6296(11) 0.5440(3)
P1 P 0.85520(8) 0.6622(4) 0.41834(12)
P2 P 0.85407(8) 1.0579(4) 0.39673(11)
P3 P 0.87698(8) 1.1277(4) 0.49448(10)
P4 P 0.88623(8) 0.7319(4) 0.51223(11)
Ag1_2 Ag 0.93970(3) 1.39189(14) 0.41888(3)
N10_2 N 0.9627(2) 0.2544(13) 0.4822(4)
C55 C 0.0377(5) 0.280(3) 0.3517(6)
C56 C 0.0645(5) 0.181(3) 0.3205(7)
H58 H 0.0602 0.2094 0.2866
H59 H 0.0620 0.0521 0.3255
H60 H 0.0887 0.2180 0.3293
N16 N 0.0188(4) 0.361(2) 0.3747(5)
F1 F 0.0596(4) 0.471(3) 0.1747(6)
F2 F 0.0287(4) 0.744(2) 0.2501(6)
F3 F 0.0609(3) 0.773(3) 0.1846(7)
F4 F 0.0083(2) 0.6215(13) 0.1793(3)
F5 F 0.0812(2) 0.5846(14) 0.2426(3)
F6 F 0.0258(3) 0.454(2) 0.2424(5)
P5 P 0.04487(10) 0.6037(7) 0.21139(14)
F7 F 0.1363(2) -0.0458(14) 0.4478(4)
F8 F 0.0948(3) 0.3177(14) 0.4752(4)
F9 F 0.1519(2) 0.2150(16) 0.4855(4)
F10 F 0.1278(3) 0.2166(15) 0.4094(4)
F11 F 0.0793(2) 0.0628(12) 0.4368(3)
F12 F 0.1032(2) 0.0503(17) 0.5120(3)
P6 P 0.11559(10) 0.1386(6) 0.46049(14)
F13 F 0.1886(4) 0.3948(15) 0.6989(6)
F14 F 0.1873(4) 0.8126(18) 0.6843(7)
F15 F 0.2304(2) 0.6132(16) 0.7005(3)
F16 F 0.1959(3) 0.577(3) 0.6346(4)
F17 F 0.1461(2) 0.6007(15) 0.6774(4)
F18 F 0.1813(3) 0.633(2) 0.7453(4)
P7 P 0.18834(9) 0.6048(6) 0.68914(13)
loop_
_geom_bond_atom_site_label_1
_geom_bond_atom_site_label_2
_geom_bond_site_symmetry_1
_geom_bond_site_symmetry_2
N1 C1 1_555 1_555
C1 C2 1_555 1_555
C2 H1 1_555 1_555
H2 C2 1_555 1_555
H3 C2 1_555 1_555
Ag1 N6 1_555 1_555
Ag2 N7 1_555 1_555
Ag3 N9 1_555 1_555
C3 C4 1_555 1_555
C4 H4 1_555 1_555
C5 C4 1_555 1_555
C6 C5 1_555 1_555
H5 C6 1_555 1_555
C7 C6 1_555 1_555
H6 C7 1_555 1_555
C8 C5 1_555 1_555
H7 C8 1_555 1_555
H8 C8 1_555 1_555
H9 C8 1_555 1_555
C9 C10 1_555 1_555
C10 H10 1_555 1_555
C11 C10 1_555 1_555
C12 C11 1_555 1_555
H11 C12 1_555 1_555
C13 C12 1_555 1_555
H12 C13 1_555 1_555
C14 C11 1_555 1_555
H13 C14 1_555 1_555
H14 C14 1_555 1_555
H15 C14 1_555 1_555
C15 C16 1_555 1_555
C16 H16 1_555 1_555
C17 C16 1_555 1_555
C18 C17 1_555 1_555
H17 C18 1_555 1_555
C19 C18 1_555 1_555
H18 C19 1_555 1_555
C20 C17 1_555 1_555
H19 C20 1_555 1_555
H20 C20 1_555 1_555
H21 C20 1_555 1_555
C21 C22 1_555 1_555
C22 H22 1_555 1_555
C23 C22 1_555 1_555
C24 C23 1_555 1_555
H23 C24 1_555 1_555
C25 C24 1_555 1_555
H24 C25 1_555 1_555
C26 C23 1_555 1_555
H25 C26 1_555 1_555
H26 C26 1_555 1_555
H27 C26 1_555 1_555
C27 C28 1_555 1_555
C28 H28 1_555 1_555
C29 C28 1_555 1_555
C30 C29 1_555 1_555
H29 C30 1_555 1_555
C31 C30 1_555 1_555
H30 C31 1_555 1_555
C32 C29 1_555 1_555
H31 C32 1_555 1_555
H32 C32 1_555 1_555
H33 C32 1_555 1_555
C33 C34 1_555 1_555
C34 H34 1_555 1_555
C35 C34 1_555 1_555
C36 C35 1_555 1_555
H35 C36 1_555 1_555
C37 C36 1_555 1_555
H36 C37 1_555 1_555
C38 C35 1_555 1_555
H37 C38 1_555 1_555
H38 C38 1_555 1_555
H39 C38 1_555 1_555
C39 C40 1_555 1_555
C40 H40 1_555 1_555
C41 C40 1_555 1_555
C42 C41 1_555 1_555
H41 C42 1_555 1_555
C43 C42 1_555 1_555
H42 C43 1_555 1_555
C44 C41 1_555 1_555
H43 C44 1_555 1_555
H44 C44 1_555 1_555
H45 C44 1_555 1_555
C45 C46 1_555 1_555
C46 H46 1_555 1_555
C47 C46 1_555 1_555
C48 C47 1_555 1_555
H47 C48 1_555 1_555
C49 C48 1_555 1_555
H48 C49 1_555 1_555
C50 C47 1_555 1_555
H49 C50 1_555 1_555
H50 C50 1_555 1_555
H51 C50 1_555 1_555
C51 C52 1_555 1_555
C52 H52 1_555 1_555
H53 C52 1_555 1_555
H54 C52 1_555 1_555
C53 C54 1_555 1_555
C54 H55 1_555 1_555
H56 C54 1_555 1_555
H57 C54 1_555 1_555
N2 P1 1_555 1_555
N3 P1 1_555 1_555
N4 P2 1_555 1_555
N5 P3 1_555 1_555
N6 C3 1_555 1_555
N7 C9 1_555 1_555
N8 C15 1_555 1_555
N9 C21 1_555 1_555
N10 C27 1_555 1_555
N11 Ag3 1_555 1_555
N12 C39 1_555 1_555
N13 Ag2 1_555 1_555
N14 Ag3 1_555 1_555
N15 Ag2 1_555 1_555
O1 C3 1_555 1_555
O2 C9 1_555 1_555
O3 C15 1_555 1_555
O4 C21 1_555 1_555
O5 C27 1_555 1_555
O6 C33 1_555 1_555
O7 C39 1_555 1_555
O8 C45 1_555 1_555
P1 O1 1_555 1_555
P2 N3 1_555 1_555
P3 N4 1_555 1_555
P4 N2 1_555 1_555
C55 C56 1_555 1_555
C56 H58 1_555 1_555
H59 C56 1_555 1_555
H60 C56 1_555 1_555
N16 C55 1_555 1_555
F1 P5 1_555 1_555
F2 P5 1_555 1_555
F3 P5 1_555 1_555
F4 P5 1_555 1_555
F5 P5 1_555 1_555
F6 P5 1_555 1_555
F7 P6 1_555 1_555
F8 P6 1_555 1_555
F9 P6 1_555 1_555
F10 P6 1_555 1_555
F11 P6 1_555 1_555
F12 P6 1_555 1_555
F13 P7 1_555 1_555
F14 P7 1_555 1_555
F15 P7 1_555 1_555
F16 P7 1_555 1_555
F17 P7 1_555 1_555
F18 P7 1_555 1_555
Ag1_2 N10 1_555 1_555
N10_2 Ag1 1_555 1_555
C7 N6 1_555 1_555
C13 N7 1_555 1_555
C19 N8 1_555 1_555
C25 N9 1_555 1_555
C31 N10 1_555 1_555
C33 N11 1_555 1_555
C37 N11 1_555 1_555
C43 N12 1_555 1_555
C45 N13 1_555 1_555
C49 N13 1_555 1_555
C51 N14 1_555 1_555
C53 N15 1_555 1_555
N5 P4 1_555 1_555
O2 P1 1_555 1_555
O3 P2 1_555 1_555
O4 P2 1_555 1_555
O5 P3 1_555 1_555
O6 P3 1_555 1_555
O7 P4 1_555 1_555
O8 P4 1_555 1_555

#END
