
#######################################################################
#
#                 Cambridge Crystallographic Data Centre
#                                CCDC 
#
#######################################################################
#
# If this CIF has been generated from an entry in the Cambridge 
# Structural Database, then it will include bibliographic, chemical, 
# crystal, experimental, refinement or atomic coordinate data resulting 
# from the CCDC's data processing and validation procedures.
#
#######################################################################

data_SEWYOJ
_symmetry_cell_setting           orthorhombic
_symmetry_space_group_name_H-M   'P 21 21 21'
_symmetry_Int_Tables_number      19
_space_group_name_Hall           'P 2ac 2ab'
loop_
_symmetry_equiv_pos_site_id
_symmetry_equiv_pos_as_xyz
1 x,y,z
2 1/2-x,-y,1/2+z
3 1/2+x,1/2-y,-z
4 -x,1/2+y,1/2-z
_cell_length_a                   7.531(1)
_cell_length_b                   14.291(2)
_cell_length_c                   14.920(3)
_cell_angle_alpha                90
_cell_angle_beta                 90
_cell_angle_gamma                90
_cell_volume                     1605.77
loop_
_atom_site_label
_atom_site_type_symbol
_atom_site_fract_x
_atom_site_fract_y
_atom_site_fract_z
Mn1 Mn 0.49924(5) 0.25738(1) 0.26193(1)
Mn2 Mn -0.00818(3) 0.50769(1) 0.19325(1)
O1 O 0.0512(1) 0.48965(7) 0.04684(7)
N1 N 0.1992(2) 0.4019(1) 0.2165(1)
N2 N 0.7797(2) 0.4021(1) 0.1938(1)
N3 N 0.5295(4) 0.3536(1) 0.4492(1)
N4 N 0.4837(3) 0.15269(9) 0.07645(9)
N5 N 0.2176(2) 0.1144(1) 0.33423(10)
N6 N 0.7998(2) 0.1158(1) 0.3128(1)
N7 N -0.0656(2) 0.52306(9) 0.34464(9)
N8 N 0.0582(2) 0.4854(1) 0.5444(1)
C1 C 0.3080(2) 0.3477(1) 0.2308(1)
C2 C 0.6784(2) 0.3481(1) 0.2173(1)
C3 C 0.5189(3) 0.3183(1) 0.38123(10)
C4 C 0.4881(3) 0.19257(9) 0.14288(9)
C5 C 0.3199(2) 0.1683(1) 0.3094(1)
C6 C 0.6913(2) 0.1682(1) 0.2961(1)
C7 C 0.0355(2) 0.5848(1) 0.4059(1)
C8 C 0.0045(4) 0.6863(1) 0.38245(10)
C9 C -0.0117(3) 0.5721(1) 0.50415(10)
H1 H -0.0771 0.4673 0.3674
H2 H -0.1882 0.5436 0.3514
H3 H 0.1775 0.5660 0.3943
H4 H -0.1090 0.7127 0.4023
H5 H 0.0859 0.7230 0.4110
H6 H 0.0061 0.6971 0.3167
H7 H 0.0062 0.6238 0.5443
H8 H -0.1420 0.5842 0.5179
H9 H 0.0058 0.4811 0.6036
H10 H 0.1988 0.4861 0.5435
H11 H 0.0062 0.4305 0.5151
H12 H 0.0097 0.5420 0.0112
H13 H 0.0069 0.4419 0.0086
Mn2_2 Mn 0.99182(3) 0.50769(1) 0.19325(1)
Mn2C Mn 0.00818(3) 0.00769(1) 0.30675(1)
Mn2C_2 Mn 1.00818(3) 0.00769(1) 0.30675(1)
N2_2 N -0.2203(2) 0.4021(1) 0.1938(1)
N5C N -0.2176(2) 0.6144(1) 0.16577(10)
N6C N 0.2002(2) 0.6158(1) 0.1872(1)
O2 O 0.5043(4) 0.1740(1) 0.5711(1)
H14 H 0.5367 0.2326 0.5453
H15 H 0.4067 0.1486 0.5403
loop_
_geom_bond_atom_site_label_1
_geom_bond_atom_site_label_2
_geom_bond_site_symmetry_1
_geom_bond_site_symmetry_2
Mn1 C1 1_555 1_555
Mn2 O1 1_555 1_555
O1 H12 1_555 1_555
O2 H14 1_555 1_555
N1 Mn2 1_555 1_555
N2 C2 1_555 1_555
N3 C3 1_555 1_555
N4 C4 1_555 1_555
N5 C5 1_555 1_555
N6 C6 1_555 1_555
N7 Mn2 1_555 1_555
N8 C9 1_555 1_555
C1 N1 1_555 1_555
C2 Mn1 1_555 1_555
C3 Mn1 1_555 1_555
C4 Mn1 1_555 1_555
C5 Mn1 1_555 1_555
C6 Mn1 1_555 1_555
C7 N7 1_555 1_555
C8 C7 1_555 1_555
C9 C7 1_555 1_555
H1 N7 1_555 1_555
H2 N7 1_555 1_555
H3 C7 1_555 1_555
H4 C8 1_555 1_555
H5 C8 1_555 1_555
H6 C8 1_555 1_555
H7 C9 1_555 1_555
H8 C9 1_555 1_555
H9 N8 1_555 1_555
H10 N8 1_555 1_555
H11 N8 1_555 1_555
H13 O1 1_555 1_555
H15 O2 1_555 1_555
Mn2_2 N2 1_555 1_555
Mn2C N5 1_555 1_555
Mn2C_2 N6 1_555 1_555
N2_2 Mn2 1_555 1_555
N5C Mn2 1_555 1_555
N6C Mn2 1_555 1_555

#END
