
#######################################################################
#
#                 Cambridge Crystallographic Data Centre
#                                CCDC 
#
#######################################################################
#
# If this CIF has been generated from an entry in the Cambridge 
# Structural Database, then it will include bibliographic, chemical, 
# crystal, experimental, refinement or atomic coordinate data resulting 
# from the CCDC's data processing and validation procedures.
#
#######################################################################

data_SEWYAV
_symmetry_cell_setting           triclinic
_symmetry_space_group_name_H-M   'P 1'
_symmetry_Int_Tables_number      1
_space_group_name_Hall           'P 1'
loop_
_symmetry_equiv_pos_site_id
_symmetry_equiv_pos_as_xyz
1 x,y,z
_cell_length_a                   10.634(1)
_cell_length_b                   10.6385(8)
_cell_length_c                   16.878(2)
_cell_angle_alpha                89.956(7)
_cell_angle_beta                 89.992(8)
_cell_angle_gamma                89.904(7)
_cell_volume                     1909.4
loop_
_atom_site_label
_atom_site_type_symbol
_atom_site_fract_x
_atom_site_fract_y
_atom_site_fract_z
Cr1 Cr 0.500(3) -0.004(3) -0.246(2)
Cr2 Cr 0.000(3) 0.496(3) 0.254(2)
O1 O -0.025(3) -0.148(3) -0.292(2)
O2 O -0.042(3) -0.119(3) -0.123(2)
O3 O -0.114(3) -0.047(3) 0.130(2)
O4 O -0.143(3) -0.032(3) 0.300(2)
O5 O 0.146(3) 0.025(3) 0.300(2)
O6 O 0.118(3) 0.041(3) 0.130(2)
O7 O 0.045(3) 0.113(3) -0.122(2)
O8 O 0.029(3) 0.143(3) -0.293(2)
O9 O 0.529(3) -0.650(3) -0.793(2)
O10 O 0.546(3) -0.619(3) -0.623(2)
O11 O 0.619(3) -0.549(3) -0.371(2)
O12 O 0.646(3) -0.531(3) -0.200(2)
O13 O 0.356(3) -0.477(3) -0.200(2)
O14 O 0.386(3) -0.461(3) -0.370(2)
O15 O 0.460(3) -0.389(3) -0.623(2)
O16 O 0.475(3) -0.359(3) -0.792(2)
O17 O 0.209(3) -0.082(3) -0.050(2)
O18 O 0.080(3) -0.211(3) 0.058(2)
O19 O -0.203(3) 0.075(3) -0.051(2)
O20 O -0.074(3) 0.204(3) 0.058(2)
O21 O 0.708(3) -0.427(3) -0.549(2)
O22 O 0.580(3) -0.297(3) -0.443(2)
O23 O 0.295(3) -0.583(3) -0.549(2)
O24 O 0.423(3) -0.711(3) -0.442(2)
N1 N -0.172(3) -0.178(3) 0.004(2)
N2 N 0.178(3) 0.171(3) 0.003(2)
N3 N 0.677(3) -0.678(3) -0.495(2)
N4 N 0.328(3) -0.330(3) -0.495(2)
N5 N 0.200(3) -0.040(3) -0.227(2)
N6 N 0.539(3) -0.304(3) -0.265(2)
N7 N 0.802(3) 0.030(3) -0.227(2)
N8 N 0.466(3) 0.296(3) -0.266(2)
N9 N 0.501(3) -0.003(3) -0.439(2)
Co1 Co -0.001(3) -0.004(3) -0.218(2)
Co2 Co -0.001(3) -0.005(3) 0.225(2)
Co3 Co 0.499(3) -0.505(3) -0.275(2)
N10 N 0.497(3) -0.007(3) -0.061(2)
N11 N -0.032(3) 0.196(3) 0.236(2)
N12 N 0.301(3) -0.539(3) -0.729(2)
N13 N 0.039(3) -0.204(3) 0.235(2)
N14 N 0.700(3) -0.466(3) -0.729(2)
N15 N 0.003(3) 0.496(3) 0.062(2)
N16 N 0.002(3) 0.498(3) 0.448(2)
C1 C -0.125(3) -0.330(3) -0.347(2)
C2 C -0.094(3) -0.244(3) -0.278(2)
C3 C -0.145(3) -0.270(3) -0.205(2)
C4 C -0.126(3) -0.208(3) -0.133(2)
C5 C -0.197(3) -0.241(3) -0.061(2)
C6 C -0.296(3) -0.333(3) -0.064(2)
C7 C -0.359(3) -0.362(3) 0.004(2)
C8 C -0.324(3) -0.297(3) 0.075(2)
C9 C -0.236(3) -0.207(3) 0.071(2)
C10 C -0.202(3) -0.128(3) 0.142(2)
C11 C -0.263(3) -0.152(3) 0.211(2)
C12 C -0.237(3) -0.100(3) 0.286(2)
C13 C -0.320(3) -0.130(3) 0.355(2)
C14 C 0.327(3) 0.121(3) 0.354(2)
C15 C 0.237(3) 0.092(3) 0.286(2)
C16 C 0.268(3) 0.144(3) 0.212(2)
C17 C 0.207(3) 0.121(3) 0.140(2)
C18 C 0.240(3) 0.198(3) 0.070(2)
C19 C 0.335(3) 0.289(3) 0.072(2)
C20 C 0.364(3) 0.358(3) 0.005(2)
C21 C 0.298(3) 0.331(3) -0.064(2)
C22 C 0.203(3) 0.234(3) -0.063(2)
C23 C 0.125(3) 0.198(3) -0.132(2)
C24 C 0.147(3) 0.261(3) -0.205(2)
C25 C 0.098(3) 0.235(3) -0.278(2)
C26 C 0.129(3) 0.320(3) -0.347(2)
C27 C 0.631(3) -0.827(3) -0.848(2)
C28 C 0.597(3) -0.740(3) -0.778(2)
Co4 Co 0.499(3) -0.505(3) -0.718(2)
C29 C 0.649(3) -0.771(3) -0.704(2)
C30 C 0.629(3) -0.709(3) -0.634(2)
C31 C 0.702(3) -0.743(3) -0.563(2)
C32 C 0.798(3) -0.837(3) -0.565(2)
C33 C 0.861(3) -0.866(3) -0.496(2)
C34 C 0.830(3) -0.799(3) -0.427(2)
C35 C 0.740(3) -0.704(3) -0.428(2)
C36 C 0.704(3) -0.629(3) -0.357(2)
C37 C 0.768(3) -0.654(3) -0.288(2)
C38 C 0.741(3) -0.600(3) -0.214(2)
C39 C 0.829(3) -0.630(3) -0.145(2)
C40 C 0.178(3) -0.376(3) -0.146(2)
C41 C 0.266(3) -0.406(3) -0.214(2)
C42 C 0.238(3) -0.358(3) -0.289(2)
C43 C 0.298(3) -0.378(3) -0.358(2)
C44 C 0.264(3) -0.300(3) -0.430(2)
C45 C 0.169(3) -0.210(3) -0.430(2)
C46 C 0.143(4) -0.147(4) -0.497(2)
C47 C 0.205(3) -0.176(3) -0.567(2)
C48 C 0.299(3) -0.266(3) -0.561(2)
C49 C 0.374(3) -0.301(3) -0.636(2)
C50 C 0.355(3) -0.240(3) -0.704(2)
C51 C 0.405(3) -0.268(3) -0.780(2)
C52 C 0.376(3) -0.183(3) -0.846(2)
C53 C 0.308(3) -0.029(3) -0.237(2)
C54 C 0.528(3) -0.198(3) -0.254(2)
C55 C 0.696(3) 0.020(3) -0.238(2)
C56 C 0.475(3) 0.192(3) -0.252(2)
C57 C 0.504(3) -0.006(3) -0.368(2)
C58 C 0.502(3) -0.003(3) -0.127(2)
C59 C -0.024(3) 0.302(3) 0.245(2)
C60 C 0.196(3) -0.531(3) -0.739(2)
C61 C 0.029(3) -0.313(3) 0.245(2)
C62 C 0.807(3) -0.477(3) -0.741(2)
C63 C 0.000(3) 0.498(3) 0.129(2)
C64 C 0.005(3) 0.498(3) 0.379(2)
H1 H -0.1670 -0.2836 -0.3892
H2 H -0.0474 -0.3621 -0.3711
H3 H -0.1744 -0.3971 -0.3317
H4 H -0.2061 -0.3356 -0.2044
H5 H -0.3201 -0.3702 -0.1182
H6 H -0.4326 -0.4151 0.0003
H7 H -0.3510 -0.3298 0.1256
H8 H -0.3277 -0.2106 0.2075
H9 H -0.3883 -0.1815 0.3366
H10 H -0.2725 -0.1744 0.3924
H11 H -0.3528 -0.0551 0.3765
H12 H 0.2818 0.1622 0.3955
H13 H 0.3618 0.0448 0.3744
H14 H 0.3940 0.1742 0.3372
H15 H 0.3383 0.2032 0.2072
H16 H 0.3813 0.3026 0.1186
H17 H 0.4229 0.4278 0.0066
H18 H 0.3232 0.3745 -0.1179
H19 H 0.2097 0.3306 -0.2019
H20 H 0.1833 0.3901 -0.3323
H21 H 0.0549 0.3572 -0.3706
H22 H 0.1728 0.2767 -0.3896
H23 H 0.6728 -0.7817 -0.8902
H24 H 0.5573 -0.8645 -0.8699
H25 H 0.6869 -0.8932 -0.8316
H26 H 0.7055 -0.8413 -0.7016
H27 H 0.8255 -0.8729 -0.6174
H28 H 0.9269 -0.9285 -0.4986
H29 H 0.8745 -0.8212 -0.3774
H30 H 0.8344 -0.7178 -0.2936
H31 H 0.9002 -0.6783 -0.1597
H32 H 0.8654 -0.5477 -0.1252
H33 H 0.7865 -0.6649 -0.1027
H34 H 0.2183 -0.3343 -0.1044
H35 H 0.1089 -0.3205 -0.1646
H36 H 0.1381 -0.4505 -0.1271
H37 H 0.1696 -0.3001 -0.2938
H38 H 0.1353 -0.1782 -0.3785
H39 H 0.0713 -0.0921 -0.5010
H40 H 0.1824 -0.1349 -0.6172
H41 H 0.2997 -0.1689 -0.7015
H42 H 0.3217 -0.1141 -0.8308
H43 H 0.4511 -0.1430 -0.8692
H44 H 0.3353 -0.2254 -0.8896
Gd1 Gd -0.003(3) -0.005(3) 0.004(2)
Gd2 Gd 0.497(3) -0.505(3) -0.496(2)
Cr2_2 Cr 0.000(3) -0.504(3) -0.746(2)
Cr2_3 Cr 0.000(3) -0.504(3) 0.254(2)
Cr2_4 Cr 1.000(3) -0.504(3) -0.746(2)
N7_2 N -0.198(3) 0.030(3) -0.227(2)
N8_2 N 0.466(3) -0.704(3) -0.266(2)
Co1_2 Co 0.999(3) -0.004(3) -0.218(2)
Co3_2 Co 0.499(3) 0.495(3) -0.275(2)
C60_2 C 0.196(3) 0.469(3) 0.261(2)
C61_2 C 0.029(3) 0.687(3) 0.245(2)
C62_2 C -0.193(3) 0.523(3) 0.259(2)
loop_
_geom_bond_atom_site_label_1
_geom_bond_atom_site_label_2
_geom_bond_site_symmetry_1
_geom_bond_site_symmetry_2
Cr1 C53 1_555 1_555
Cr2 C59 1_555 1_555
O1 Co1 1_555 1_555
O2 Co1 1_555 1_555
O3 Co2 1_555 1_555
O4 Co2 1_555 1_555
O5 Co2 1_555 1_555
O6 Co2 1_555 1_555
O7 Co1 1_555 1_555
O8 Co1 1_555 1_555
O9 C28 1_555 1_555
O10 Co4 1_555 1_555
O11 Co3 1_555 1_555
O12 Co3 1_555 1_555
O13 Co3 1_555 1_555
O14 Co3 1_555 1_555
O15 Co4 1_555 1_555
O16 Co4 1_555 1_555
O17 Gd1 1_555 1_555
O18 Gd1 1_555 1_555
O19 Gd1 1_555 1_555
O20 Gd1 1_555 1_555
O21 Gd2 1_555 1_555
O22 Gd2 1_555 1_555
O23 Gd2 1_555 1_555
O24 Gd2 1_555 1_555
N1 C5 1_555 1_555
N2 C18 1_555 1_555
N3 C31 1_555 1_555
N4 C44 1_555 1_555
N5 Co1 1_555 1_555
N6 Co3 1_555 1_555
N7 C55 1_555 1_555
N8 C56 1_555 1_555
N9 C57 1_555 1_555
Co1 N7_2 1_555 1_555
Co2 N11 1_555 1_555
Co3 N8_2 1_555 1_555
N10 C58 1_555 1_555
N11 C59 1_555 1_555
N12 Co4 1_555 1_555
N13 Co2 1_555 1_555
N14 Co4 1_555 1_555
N15 C63 1_555 1_555
N16 C64 1_555 1_555
C1 C2 1_555 1_555
C2 O1 1_555 1_555
C3 C2 1_555 1_555
C4 O2 1_555 1_555
C5 C4 1_555 1_555
C6 C5 1_555 1_555
C7 C6 1_555 1_555
C8 C7 1_555 1_555
C9 N1 1_555 1_555
C10 O3 1_555 1_555
C11 C10 1_555 1_555
C12 O4 1_555 1_555
C13 C12 1_555 1_555
C14 C15 1_555 1_555
C15 O5 1_555 1_555
C16 C15 1_555 1_555
C17 O6 1_555 1_555
C18 C17 1_555 1_555
C19 C18 1_555 1_555
C20 C19 1_555 1_555
C21 C20 1_555 1_555
C22 N2 1_555 1_555
C23 O7 1_555 1_555
C24 C23 1_555 1_555
C25 O8 1_555 1_555
C26 C25 1_555 1_555
C27 C28 1_555 1_555
C28 C29 1_555 1_555
Co4 O9 1_555 1_555
C29 C30 1_555 1_555
C30 O10 1_555 1_555
C31 C30 1_555 1_555
C32 C31 1_555 1_555
C33 C32 1_555 1_555
C34 C33 1_555 1_555
C35 N3 1_555 1_555
C36 O11 1_555 1_555
C37 C36 1_555 1_555
C38 O12 1_555 1_555
C39 C38 1_555 1_555
C40 C41 1_555 1_555
C41 O13 1_555 1_555
C42 C41 1_555 1_555
C43 O14 1_555 1_555
C44 C43 1_555 1_555
C45 C44 1_555 1_555
C46 C45 1_555 1_555
C47 C46 1_555 1_555
C48 N4 1_555 1_555
C49 O15 1_555 1_555
C50 C49 1_555 1_555
C51 O16 1_555 1_555
C52 C51 1_555 1_555
C53 N5 1_555 1_555
C54 Cr1 1_555 1_555
C55 Cr1 1_555 1_555
C56 Cr1 1_555 1_555
C57 Cr1 1_555 1_555
C58 Cr1 1_555 1_555
C60 N12 1_555 1_555
C61 N13 1_555 1_555
C62 N14 1_555 1_555
C63 Cr2 1_555 1_555
C64 Cr2 1_555 1_555
H1 C1 1_555 1_555
H2 C1 1_555 1_555
H3 C1 1_555 1_555
H4 C3 1_555 1_555
H5 C6 1_555 1_555
H6 C7 1_555 1_555
H7 C8 1_555 1_555
H8 C11 1_555 1_555
H9 C13 1_555 1_555
H10 C13 1_555 1_555
H11 C13 1_555 1_555
H12 C14 1_555 1_555
H13 C14 1_555 1_555
H14 C14 1_555 1_555
H15 C16 1_555 1_555
H16 C19 1_555 1_555
H17 C20 1_555 1_555
H18 C21 1_555 1_555
H19 C24 1_555 1_555
H20 C26 1_555 1_555
H21 C26 1_555 1_555
H22 C26 1_555 1_555
H23 C27 1_555 1_555
H24 C27 1_555 1_555
H25 C27 1_555 1_555
H26 C29 1_555 1_555
H27 C32 1_555 1_555
H28 C33 1_555 1_555
H29 C34 1_555 1_555
H30 C37 1_555 1_555
H31 C39 1_555 1_555
H32 C39 1_555 1_555
H33 C39 1_555 1_555
H34 C40 1_555 1_555
H35 C40 1_555 1_555
H36 C40 1_555 1_555
H37 C42 1_555 1_555
H38 C45 1_555 1_555
H39 C46 1_555 1_555
H40 C47 1_555 1_555
H41 C50 1_555 1_555
H42 C52 1_555 1_555
H43 C52 1_555 1_555
H44 C52 1_555 1_555
Gd1 O2 1_555 1_555
Gd2 O10 1_555 1_555
Cr2_2 C60 1_555 1_555
Cr2_3 C61 1_555 1_555
Cr2_4 C62 1_555 1_555
Co1_2 N7 1_555 1_555
Co3_2 N8 1_555 1_555
C60_2 Cr2 1_555 1_555
C61_2 Cr2 1_555 1_555
C62_2 Cr2 1_555 1_555
O3 Gd1 1_555 1_555
O6 Gd1 1_555 1_555
O7 Gd1 1_555 1_555
O11 Gd2 1_555 1_555
O14 Gd2 1_555 1_555
O15 Gd2 1_555 1_555
N1 Gd1 1_555 1_555
N2 Gd1 1_555 1_555
N3 Gd2 1_555 1_555
N4 Gd2 1_555 1_555
N6 C54 1_555 1_555
C3 C4 1_555 1_555
C8 C9 1_555 1_555
C9 C10 1_555 1_555
C11 C12 1_555 1_555
C16 C17 1_555 1_555
C21 C22 1_555 1_555
C22 C23 1_555 1_555
C24 C25 1_555 1_555
C34 C35 1_555 1_555
C35 C36 1_555 1_555
C37 C38 1_555 1_555
C42 C43 1_555 1_555
C47 C48 1_555 1_555
C48 C49 1_555 1_555
C50 C51 1_555 1_555

#END
