
#######################################################################
#
#                 Cambridge Crystallographic Data Centre
#                                CCDC 
#
#######################################################################
#
# If this CIF has been generated from an entry in the Cambridge 
# Structural Database, then it will include bibliographic, chemical, 
# crystal, experimental, refinement or atomic coordinate data resulting 
# from the CCDC's data processing and validation procedures.
#
#######################################################################

data_SEYQUK
_symmetry_cell_setting           triclinic
_symmetry_space_group_name_H-M   'P -1'
_symmetry_Int_Tables_number      2
_space_group_name_Hall           '-P 1'
loop_
_symmetry_equiv_pos_site_id
_symmetry_equiv_pos_as_xyz
1 x,y,z
2 -x,-y,-z
_cell_length_a                   6.1480(9)
_cell_length_b                   7.6130(11)
_cell_length_c                   15.720(2)
_cell_angle_alpha                100.142(2)
_cell_angle_beta                 92.918(2)
_cell_angle_gamma                98.723(3)
_cell_volume                     713.615
loop_
_atom_site_label
_atom_site_type_symbol
_atom_site_fract_x
_atom_site_fract_y
_atom_site_fract_z
O1 O 0.3622(6) 0.6981(8) 0.2073(2)
H1 H 0.4687 0.7236 0.2434
C1 C 0.2424(10) 0.6678(9) 0.0600(3)
H2 H 0.1918 0.5404 0.0550
H3 H 0.2891 0.6922 0.0054
H4 H 0.1244 0.7330 0.0764
C2 C 0.4304(7) 0.7260(7) 0.1270(3)
H5 H 0.5482 0.6577 0.1116
H6 H 0.4871 0.8532 0.1300
Mn1 Mn 0.89000(6) 0.72277(5) 0.40489(2)
C3 C 0.5849(4) 0.3057(3) 0.36243(17)
C4 C 0.4007(4) 0.2415(3) 0.29075(17)
C5 C 0.4357(5) 0.2573(4) 0.20577(19)
C6 C 0.2718(5) 0.1968(5) 0.13926(19)
C7 C 0.0660(5) 0.1200(4) 0.15730(19)
C8 C 0.0285(4) 0.1034(4) 0.24180(18)
C9 C 0.1932(4) 0.1617(3) 0.30909(16)
C10 C 0.1462(4) 0.1347(3) 0.40040(17)
F1 F 0.6361(3) 0.3277(3) 0.18412(12)
F2 F 0.3129(4) 0.2096(4) 0.05768(12)
F3 F -0.0949(3) 0.0616(3) 0.09380(12)
F4 F -0.1753(3) 0.0300(3) 0.25673(12)
O2 O 0.6889(4) 0.4606(3) 0.36710(15)
O3 O 0.6173(3) 0.1979(3) 0.41114(13)
O4 O 0.1665(3) 0.2733(3) 0.45752(12)
O5 O 0.0940(4) -0.0247(3) 0.41056(14)
O6 O 0.5853(3) 0.8275(3) 0.37769(14)
H7 H 0.6061 0.9372 0.3950
H8 H 0.4748 0.7627 0.3885
O7 O 1.2008(3) 0.6293(3) 0.43527(13)
H9 H 1.1818 0.5185 0.4259
H10 H 1.2409 0.6885 0.4839
O8 O 0.9503(4) 0.6605(3) 0.26436(15)
H11 H 0.8611 0.5707 0.2422
H12 H 1.0814 0.6687 0.2555
Mn1_2 Mn -0.11000(6) -0.27723(5) 0.40489(2)
Mn1A Mn 0.11000(6) 0.27723(5) 0.59511(2)
O4A O 0.8335(3) 0.7267(3) 0.54248(12)
O5_2 O 1.0940(4) 0.9753(3) 0.41056(14)
loop_
_geom_bond_atom_site_label_1
_geom_bond_atom_site_label_2
_geom_bond_site_symmetry_1
_geom_bond_site_symmetry_2
O1 H1 1_555 1_555
C1 H2 1_555 1_555
H3 C1 1_555 1_555
H4 C1 1_555 1_555
C2 O1 1_555 1_555
H5 C2 1_555 1_555
H6 C2 1_555 1_555
Mn1 O2 1_555 1_555
C3 C4 1_555 1_555
C4 C5 1_555 1_555
C5 C6 1_555 1_555
C6 C7 1_555 1_555
C7 C8 1_555 1_555
C8 C9 1_555 1_555
C9 C4 1_555 1_555
C10 C9 1_555 1_555
F1 C5 1_555 1_555
F2 C6 1_555 1_555
F3 C7 1_555 1_555
F4 C8 1_555 1_555
O2 C3 1_555 1_555
O3 C3 1_555 1_555
O4 C10 1_555 1_555
O5 C10 1_555 1_555
O6 Mn1 1_555 1_555
H7 O6 1_555 1_555
H8 O6 1_555 1_555
O7 Mn1 1_555 1_555
H9 O7 1_555 1_555
H10 O7 1_555 1_555
O8 Mn1 1_555 1_555
H11 O8 1_555 1_555
H12 O8 1_555 1_555
Mn1_2 O5 1_555 1_555
Mn1A O4 1_555 1_555
O4A Mn1 1_555 1_555
O5_2 Mn1 1_555 1_555
C1 C2 1_555 1_555

#END
