
#######################################################################
#
#                 Cambridge Crystallographic Data Centre
#                                CCDC 
#
#######################################################################
#
# If this CIF has been generated from an entry in the Cambridge 
# Structural Database, then it will include bibliographic, chemical, 
# crystal, experimental, refinement or atomic coordinate data resulting 
# from the CCDC's data processing and validation procedures.
#
#######################################################################

data_SEYQOE
_symmetry_cell_setting           triclinic
_symmetry_space_group_name_H-M   'P -1'
_symmetry_Int_Tables_number      2
_space_group_name_Hall           '-P 1'
loop_
_symmetry_equiv_pos_site_id
_symmetry_equiv_pos_as_xyz
1 x,y,z
2 -x,-y,-z
_cell_length_a                   6.2177(14)
_cell_length_b                   7.6045(17)
_cell_length_c                   15.562(3)
_cell_angle_alpha                84.365(4)
_cell_angle_beta                 89.384(4)
_cell_angle_gamma                81.325(4)
_cell_volume                     723.871
loop_
_atom_site_label
_atom_site_type_symbol
_atom_site_fract_x
_atom_site_fract_y
_atom_site_fract_z
Mn1 Mn 0.09311(8) 0.73585(7) 0.09830(3)
C1 C 0.3949(6) 0.3332(5) 0.1343(3)
C2 C 0.5607(7) 0.2796(5) 0.2055(3)
C3 C 0.5069(7) 0.3112(6) 0.2898(3)
C4 C 0.6568(9) 0.2638(8) 0.3555(3)
C5 C 0.8641(8) 0.1869(7) 0.3385(3)
C6 C 0.9184(7) 0.1516(6) 0.2544(3)
C7 C 0.7704(6) 0.1955(5) 0.1883(3)
C8 C 0.8352(6) 0.1494(5) 0.0984(2)
C9 C -0.2003(8) 0.7329(7) 0.2571(3)
H1 H -0.3028 0.7583 0.2128
C10 C -0.1198(11) 0.6909(13) 0.4086(4)
H2 H 0.0258 0.6709 0.3866
H3 H -0.1485 0.5859 0.4436
H4 H -0.1353 0.7903 0.4429
C11 C -0.5006(10) 0.7712(11) 0.3564(4)
H5 H -0.5848 0.7624 0.3061
H6 H -0.5310 0.8905 0.3732
H7 H -0.5380 0.6884 0.4027
F1 F 0.3079(5) 0.3846(5) 0.3107(2)
F2 F 0.5990(7) 0.2939(6) 0.4364(2)
F3 F 1.0106(6) 0.1403(5) 0.4020(2)
F4 F 1.1228(4) 0.0765(4) 0.24102(18)
N1 N -0.2726(7) 0.7294(6) 0.3372(2)
O1 O 0.3033(6) 0.4898(4) 0.1289(2)
O2 O 0.3669(5) 0.2184(4) 0.0858(2)
O3 O 0.8324(5) 0.2770(4) 0.04106(17)
O4 O 0.8831(5) -0.0115(4) 0.08814(19)
O5 O -0.0079(5) 0.7051(5) 0.2367(2)
O6 O -0.2014(5) 0.6335(4) 0.06525(19)
H8 H -0.2140 0.6916 0.0178
H9 H -0.1868 0.5240 0.0699
O7 O 0.3821(5) 0.8592(4) 0.1139(2)
H10 H 0.3631 0.9684 0.1134
H11 H 0.4996 0.8041 0.1008
Mn1_2 Mn 1.09311(8) -0.26415(7) 0.09830(3)
Mn1A Mn 0.90689(8) 0.26415(7) -0.09830(3)
O3A O 0.1676(5) 0.7230(4) -0.04106(17)
O4_2 O -0.1169(5) 0.9885(4) 0.08814(19)
loop_
_geom_bond_atom_site_label_1
_geom_bond_atom_site_label_2
_geom_bond_site_symmetry_1
_geom_bond_site_symmetry_2
Mn1 O1 1_555 1_555
C1 C2 1_555 1_555
C2 C3 1_555 1_555
C3 C4 1_555 1_555
C4 C5 1_555 1_555
C5 C6 1_555 1_555
C6 C7 1_555 1_555
C7 C2 1_555 1_555
C8 C7 1_555 1_555
C9 H1 1_555 1_555
C10 H2 1_555 1_555
H3 C10 1_555 1_555
H4 C10 1_555 1_555
C11 H5 1_555 1_555
H6 C11 1_555 1_555
H7 C11 1_555 1_555
F1 C3 1_555 1_555
F2 C4 1_555 1_555
F3 C5 1_555 1_555
F4 C6 1_555 1_555
N1 C9 1_555 1_555
O1 C1 1_555 1_555
O2 C1 1_555 1_555
O3 C8 1_555 1_555
O4 C8 1_555 1_555
O5 Mn1 1_555 1_555
O6 Mn1 1_555 1_555
H8 O6 1_555 1_555
H9 O6 1_555 1_555
O7 Mn1 1_555 1_555
H10 O7 1_555 1_555
H11 O7 1_555 1_555
Mn1_2 O4 1_555 1_555
Mn1A O3 1_555 1_555
O3A Mn1 1_555 1_555
O4_2 Mn1 1_555 1_555
C9 O5 1_555 1_555
C10 N1 1_555 1_555
C11 N1 1_555 1_555

#END
