
#######################################################################
#
#                 Cambridge Crystallographic Data Centre
#                                CCDC 
#
#######################################################################
#
# If this CIF has been generated from an entry in the Cambridge 
# Structural Database, then it will include bibliographic, chemical, 
# crystal, experimental, refinement or atomic coordinate data resulting 
# from the CCDC's data processing and validation procedures.
#
#######################################################################

data_SEYWEZ
_symmetry_cell_setting           monoclinic
_symmetry_space_group_name_H-M   'P 21/c'
_symmetry_Int_Tables_number      14
_space_group_name_Hall           '-P 2ybc'
loop_
_symmetry_equiv_pos_site_id
_symmetry_equiv_pos_as_xyz
1 x,y,z
2 -x,1/2+y,1/2-z
3 -x,-y,-z
4 x,1/2-y,1/2+z
_cell_length_a                   9.7597(7)
_cell_length_b                   21.8310(15)
_cell_length_c                   22.2848(15)
_cell_angle_alpha                90
_cell_angle_beta                 90.5670(10)
_cell_angle_gamma                90
_cell_volume                     4747.86
loop_
_atom_site_label
_atom_site_type_symbol
_atom_site_fract_x
_atom_site_fract_y
_atom_site_fract_z
Sm1 Sm 0.40980(4) 0.352586(19) 0.246848(19)
Sm2 Sm 0.90808(4) 0.37105(2) 0.226049(19)
O1 O 0.8332(6) 0.2691(3) 0.2684(3)
O2 O 1.0058(5) 0.3146(3) 0.3132(2)
O3 O 0.4899(5) 0.4416(2) 0.1874(3)
O4 O 0.3217(5) 0.3890(3) 0.1464(2)
O5 O 0.5669(6) 0.3118(3) 0.1797(3)
O6 O 0.7691(7) 0.3366(3) 0.1461(3)
O7 O 0.7337(6) 0.3911(3) 0.2947(3)
O8 O 0.5247(5) 0.4049(3) 0.3251(3)
O9 O 0.0190(6) 0.4543(3) 0.2746(3)
O10 O 0.2284(6) 0.4215(3) 0.2597(3)
O11 O 0.0628(6) 0.3014(3) 0.1834(3)
O12 O 0.2634(6) 0.2727(3) 0.2220(3)
O13 O 0.2780(5) 0.3239(3) 0.3395(3)
O14 O 1.0424(5) 0.4215(3) 0.1447(2)
O15 O 0.5486(6) 0.2702(3) 0.2962(3)
O16 O 0.7690(5) 0.4620(3) 0.1878(3)
C1 C 0.9288(8) 0.2686(4) 0.3069(4)
C2 C 0.9504(9) 0.2132(4) 0.3444(4)
C3 C 1.0345(12) 0.2172(6) 0.3951(5)
H1 H 1.0747 0.2544 0.4056
C4 C 1.0580(15) 0.1656(7) 0.4299(6)
H2 H 1.1153 0.1681 0.4634
C5 C 0.9981(16) 0.1114(7) 0.4154(6)
H3 H 1.0132 0.0772 0.4394
C6 C 0.9145(14) 0.1067(6) 0.3651(7)
H4 H 0.8754 0.0693 0.3545
C7 C 0.8901(11) 0.1584(5) 0.3307(5)
H5 H 0.8315 0.1558 0.2976
C8 C 0.1464(8) 0.4622(4) 0.2761(3)
C9 C 0.1985(8) 0.5231(4) 0.2972(4)
C10 C 0.3370(10) 0.5349(5) 0.2953(5)
H6 H 0.3974 0.5050 0.2821
C11 C 0.3851(13) 0.5912(6) 0.3131(7)
H7 H 0.4787 0.5990 0.3111
C12 C 0.3041(17) 0.6341(6) 0.3325(7)
H8 H 0.3407 0.6711 0.3457
C13 C 0.1648(16) 0.6249(5) 0.3338(6)
H9 H 0.1063 0.6559 0.3464
C14 C 0.1134(10) 0.5682(4) 0.3160(5)
H10 H 0.0195 0.5612 0.3170
C15 C 0.9971(10) 0.4232(6) 0.0851(5)
H11 H 1.0163 0.3847 0.0662
H12 H 1.0437 0.4554 0.0642
H13 H 0.9002 0.4307 0.0839
C16 C 0.7772(12) 0.5228(5) 0.2072(7)
H14 H 0.7515 0.5252 0.2486
H15 H 0.7164 0.5477 0.1834
H16 H 0.8695 0.5373 0.2029
C17 C 0.6516(8) 0.4064(4) 0.3342(4)
C18 C 0.7026(8) 0.4243(4) 0.3947(4)
C19 C 0.8405(10) 0.4275(5) 0.4067(5)
H17 H 0.9030 0.4198 0.3763
C20 C 0.8867(15) 0.4422(6) 0.4632(7)
H18 H 0.9804 0.4451 0.4705
C21 C 0.7991(18) 0.4523(6) 0.5081(6)
H19 H 0.8318 0.4612 0.5465
C22 C 0.6630(17) 0.4494(7) 0.4971(6)
H20 H 0.6013 0.4562 0.5279
C23 C 0.6160(11) 0.4365(6) 0.4405(5)
H21 H 0.5220 0.4360 0.4332
C24 C 0.6549(8) 0.3131(4) 0.1396(4)
C25 C 0.6242(8) 0.2842(3) 0.0806(4)
C26 C 0.7238(10) 0.2731(5) 0.0394(5)
H22 H 0.8135 0.2847 0.0479
C27 C 0.6936(15) 0.2446(6) -0.0153(5)
H23 H 0.7630 0.2356 -0.0423
C28 C 0.5590(17) 0.2300(6) -0.0288(6)
H24 H 0.5368 0.2123 -0.0655
C29 C 0.4615(15) 0.2414(7) 0.0107(6)
H25 H 0.3711 0.2315 0.0013
C30 C 0.4919(10) 0.2676(5) 0.0656(5)
H26 H 0.4220 0.2743 0.0929
C31 C 0.1649(9) 0.2669(4) 0.1856(4)
C32 C 0.1717(8) 0.2155(4) 0.1414(4)
C33 C 0.2527(11) 0.1661(5) 0.1509(6)
H27 H 0.3076 0.1646 0.1852
C34 C 0.2560(14) 0.1179(6) 0.1111(7)
H28 H 0.3103 0.0838 0.1190
C35 C 0.1798(15) 0.1207(6) 0.0605(7)
H29 H 0.1832 0.0887 0.0331
C36 C 0.0979(13) 0.1699(6) 0.0490(5)
H30 H 0.0459 0.1714 0.0138
C37 C 0.0928(10) 0.2172(5) 0.0897(5)
H31 H 0.0358 0.2506 0.0823
C38 C 0.4008(8) 0.4348(4) 0.1455(4)
C39 C 0.3856(9) 0.4813(4) 0.0977(4)
C40 C 0.3284(9) 0.4648(5) 0.0433(5)
H32 H 0.2999 0.4247 0.0369
C41 C 0.3134(11) 0.5079(7) -0.0018(5)
H33 H 0.2754 0.4963 -0.0385
C42 C 0.3528(15) 0.5657(8) 0.0068(8)
H34 H 0.3412 0.5942 -0.0239
C43 C 0.4092(17) 0.5833(6) 0.0592(8)
H35 H 0.4362 0.6238 0.0647
C44 C 0.4274(11) 0.5402(5) 0.1062(5)
H36 H 0.4674 0.5520 0.1425
C45 C 0.2624(10) 0.3617(5) 0.3923(4)
H37 H 0.3233 0.3961 0.3900
H38 H 0.2838 0.3381 0.4275
H39 H 0.1695 0.3761 0.3944
C46 C 0.5064(13) 0.2118(6) 0.3121(6)
H40 H 0.4093 0.2118 0.3186
H41 H 0.5529 0.1994 0.3483
H42 H 0.5277 0.1836 0.2804
Sm2_2 Sm -0.09192(4) 0.37105(2) 0.226049(19)
O9_2 O 1.0190(6) 0.4543(3) 0.2746(3)
O11_2 O 1.0628(6) 0.3014(3) 0.1834(3)
loop_
_geom_bond_atom_site_label_1
_geom_bond_atom_site_label_2
_geom_bond_site_symmetry_1
_geom_bond_site_symmetry_2
Sm1 O3 1_555 1_555
Sm2 O1 1_555 1_555
O1 C1 1_555 1_555
O2 Sm2 1_555 1_555
O3 C38 1_555 1_555
O4 Sm1 1_555 1_555
O5 Sm1 1_555 1_555
O6 Sm2 1_555 1_555
O7 Sm2 1_555 1_555
O8 Sm1 1_555 1_555
O9 C8 1_555 1_555
O10 Sm1 1_555 1_555
O11 C31 1_555 1_555
O12 Sm1 1_555 1_555
O13 Sm1 1_555 1_555
O14 Sm2 1_555 1_555
O15 Sm1 1_555 1_555
O16 Sm2 1_555 1_555
C1 O2 1_555 1_555
C2 C1 1_555 1_555
C3 C2 1_555 1_555
H1 C3 1_555 1_555
C4 C3 1_555 1_555
H2 C4 1_555 1_555
C5 C4 1_555 1_555
H3 C5 1_555 1_555
C6 C5 1_555 1_555
H4 C6 1_555 1_555
C7 C2 1_555 1_555
H5 C7 1_555 1_555
C8 O10 1_555 1_555
C9 C8 1_555 1_555
C10 C9 1_555 1_555
H6 C10 1_555 1_555
C11 C10 1_555 1_555
H7 C11 1_555 1_555
C12 C11 1_555 1_555
H8 C12 1_555 1_555
C13 C12 1_555 1_555
H9 C13 1_555 1_555
C14 C9 1_555 1_555
H10 C14 1_555 1_555
C15 O14 1_555 1_555
H11 C15 1_555 1_555
H12 C15 1_555 1_555
H13 C15 1_555 1_555
C16 O16 1_555 1_555
H14 C16 1_555 1_555
H15 C16 1_555 1_555
H16 C16 1_555 1_555
C17 O7 1_555 1_555
C18 C17 1_555 1_555
C19 C18 1_555 1_555
H17 C19 1_555 1_555
C20 C19 1_555 1_555
H18 C20 1_555 1_555
C21 C20 1_555 1_555
H19 C21 1_555 1_555
C22 C21 1_555 1_555
H20 C22 1_555 1_555
C23 C18 1_555 1_555
H21 C23 1_555 1_555
C24 O5 1_555 1_555
C25 C24 1_555 1_555
C26 C25 1_555 1_555
H22 C26 1_555 1_555
C27 C26 1_555 1_555
H23 C27 1_555 1_555
C28 C27 1_555 1_555
H24 C28 1_555 1_555
C29 C28 1_555 1_555
H25 C29 1_555 1_555
C30 C25 1_555 1_555
H26 C30 1_555 1_555
C31 O12 1_555 1_555
C32 C31 1_555 1_555
C33 C32 1_555 1_555
H27 C33 1_555 1_555
C34 C33 1_555 1_555
H28 C34 1_555 1_555
C35 C34 1_555 1_555
H29 C35 1_555 1_555
C36 C35 1_555 1_555
H30 C36 1_555 1_555
C37 C32 1_555 1_555
H31 C37 1_555 1_555
C38 O4 1_555 1_555
C39 C38 1_555 1_555
C40 C39 1_555 1_555
H32 C40 1_555 1_555
C41 C40 1_555 1_555
H33 C41 1_555 1_555
C42 C41 1_555 1_555
H34 C42 1_555 1_555
C43 C42 1_555 1_555
H35 C43 1_555 1_555
C44 C39 1_555 1_555
H36 C44 1_555 1_555
C45 O13 1_555 1_555
H37 C45 1_555 1_555
H38 C45 1_555 1_555
H39 C45 1_555 1_555
C46 O15 1_555 1_555
H40 C46 1_555 1_555
H41 C46 1_555 1_555
H42 C46 1_555 1_555
Sm2_2 O9 1_555 1_555
O9_2 Sm2 1_555 1_555
O11_2 Sm2 1_555 1_555
O6 C24 1_555 1_555
O8 C17 1_555 1_555
O11 Sm2_2 1_555 1_555
C6 C7 1_555 1_555
C13 C14 1_555 1_555
C22 C23 1_555 1_555
C29 C30 1_555 1_555
C36 C37 1_555 1_555
C43 C44 1_555 1_555

#END
