
#######################################################################
#
#                 Cambridge Crystallographic Data Centre
#                                CCDC 
#
#######################################################################
#
# If this CIF has been generated from an entry in the Cambridge 
# Structural Database, then it will include bibliographic, chemical, 
# crystal, experimental, refinement or atomic coordinate data resulting 
# from the CCDC's data processing and validation procedures.
#
#######################################################################

data_SIBDEO
_symmetry_cell_setting           tetragonal
_symmetry_space_group_name_H-M   'P 4/n'
_symmetry_Int_Tables_number      85
_space_group_name_Hall           '-P 4a'
loop_
_symmetry_equiv_pos_site_id
_symmetry_equiv_pos_as_xyz
1 x,y,z
2 1/2-x,1/2-y,z
3 1/2-y,x,z
4 y,1/2-x,z
5 -x,-y,-z
6 1/2+x,1/2+y,-z
7 1/2+y,-x,-z
8 -y,1/2+x,-z
_cell_length_a                   16.1284(2)
_cell_length_b                   16.1284(2)
_cell_length_c                   5.21340(10)
_cell_angle_alpha                90
_cell_angle_beta                 90
_cell_angle_gamma                90
_cell_volume                     1356.14
loop_
_atom_site_label
_atom_site_type_symbol
_atom_site_fract_x
_atom_site_fract_y
_atom_site_fract_z
C1 C 0.24613(14) 0.05612(13) 0.7581(4)
H1 H 0.2852 0.0755 0.6413
C2 C 0.22691(16) -0.02647(13) 0.7572(5)
H2 H 0.2527 -0.0624 0.6425
C3 C 0.16867(18) -0.05581(14) 0.9290(5)
H3 H 0.1550 -0.1118 0.9324
C4 C 0.13104(14) -0.00088(14) 1.0960(4)
C5 C 0.15470(14) 0.08182(13) 1.0851(4)
H4 H 0.1301 0.1191 1.1980
C6 C 0.06797(15) -0.02926(15) 1.2786(5)
H5 H 0.0566 -0.0857 1.2904
N1 N 0.21108(11) 0.11017(11) 0.9200(3)
N2 N 0.02871(14) 0.02037(14) 1.4198(4)
Cl1 Cl 0.2500 0.2500 0.41877(18)
Cd1 Cd 0.2500 0.2500 0.91827(5)
C1D C -0.24613(14) -0.05612(13) 2.2419(4)
H1D H -0.2852 -0.0755 2.3587
C2D C -0.22691(16) 0.02647(13) 2.2428(5)
H2D H -0.2527 0.0624 2.3575
C3D C -0.16867(18) 0.05581(14) 2.0710(5)
H3D H -0.1550 0.1118 2.0676
C4D C -0.13104(14) 0.00088(14) 1.9040(4)
C5D C -0.15470(14) -0.08182(13) 1.9149(4)
H4D H -0.1301 -0.1191 1.8020
C6D C -0.06797(15) 0.02926(15) 1.7214(5)
H5D H -0.0566 0.0857 1.7096
N1D N -0.21108(11) -0.11017(11) 2.0800(3)
N2D N -0.02871(14) -0.02037(14) 1.5802(4)
C1B C 0.44388(13) 0.24613(14) 0.7581(4)
H1B H 0.4245 0.2852 0.6413
C2B C 0.52647(13) 0.22691(16) 0.7572(5)
H2B H 0.5624 0.2527 0.6425
C3B C 0.55581(14) 0.16867(18) 0.9290(5)
H3B H 0.6118 0.1550 0.9324
C4B C 0.50088(14) 0.13104(14) 1.0960(4)
C5B C 0.41818(13) 0.15470(14) 1.0851(4)
H4B H 0.3809 0.1301 1.1980
C6B C 0.52926(15) 0.06797(15) 1.2786(5)
H5B H 0.5857 0.0566 1.2904
N1B N 0.38983(11) 0.21108(11) 0.9200(3)
N2B N 0.47963(14) 0.02871(14) 1.4198(4)
C1F C 0.55612(13) -0.24613(14) 2.2419(4)
H1F H 0.5755 -0.2852 2.3587
C2F C 0.47353(13) -0.22691(16) 2.2428(5)
H2F H 0.4376 -0.2527 2.3575
C3F C 0.44419(14) -0.16867(18) 2.0710(5)
H3F H 0.3882 -0.1550 2.0676
C4F C 0.49912(14) -0.13104(14) 1.9040(4)
C5F C 0.58182(13) -0.15470(14) 1.9149(4)
H4F H 0.6191 -0.1301 1.8020
C6F C 0.47074(15) -0.06797(15) 1.7214(5)
H5F H 0.4143 -0.0566 1.7096
N1F N 0.61017(11) -0.21108(11) 2.0800(3)
N2F N 0.52037(14) -0.02871(14) 1.5802(4)
N1A N 0.28892(11) 0.38983(11) 0.9200(3)
N1C N 0.11017(11) 0.28892(11) 0.9200(3)
Cl1_2 Cl 0.2500 0.2500 1.41877(18)
Cd1_2 Cd 0.2500 0.2500 -0.08173(5)
Cd1D Cd -0.2500 -0.2500 2.08173(5)
Cd1D_2 Cd 0.7500 -0.2500 2.08173(5)
O1 O 0.2707(3) -0.31634(17) 0.3433(6)
Cl2 Cl 0.2500 -0.2500 0.5000
O1A O 0.2293(3) -0.18366(17) 0.3433(6)
O1F O 0.18366(17) -0.2707(3) 0.6567(6)
O1G O 0.31634(17) -0.2293(3) 0.6567(6)
loop_
_geom_bond_atom_site_label_1
_geom_bond_atom_site_label_2
_geom_bond_site_symmetry_1
_geom_bond_site_symmetry_2
C1 H1 1_555 1_555
C2 C1 1_555 1_555
H2 C2 1_555 1_555
C3 C2 1_555 1_555
H3 C3 1_555 1_555
C4 C3 1_555 1_555
C5 C4 1_555 1_555
H4 C5 1_555 1_555
C6 C4 1_555 1_555
H5 C6 1_555 1_555
N1 C1 1_555 1_555
N2 C6 1_555 1_555
Cl1 Cd1 1_555 1_555
Cd1 N1 1_555 1_555
O1 Cl2 1_555 1_555
Cl2 O1A 1_555 1_555
C1D H1D 1_555 1_555
C2D C1D 1_555 1_555
H2D C2D 1_555 1_555
C3D C2D 1_555 1_555
H3D C3D 1_555 1_555
C4D C3D 1_555 1_555
C5D C4D 1_555 1_555
H4D C5D 1_555 1_555
C6D C4D 1_555 1_555
H5D C6D 1_555 1_555
N1D C1D 1_555 1_555
N2D N2 1_555 1_555
C1B H1B 1_555 1_555
C2B C1B 1_555 1_555
H2B C2B 1_555 1_555
C3B C2B 1_555 1_555
H3B C3B 1_555 1_555
C4B C3B 1_555 1_555
C5B C4B 1_555 1_555
H4B C5B 1_555 1_555
C6B C4B 1_555 1_555
H5B C6B 1_555 1_555
N1B Cd1 1_555 1_555
N2B C6B 1_555 1_555
C1F H1F 1_555 1_555
C2F C1F 1_555 1_555
H2F C2F 1_555 1_555
C3F C2F 1_555 1_555
H3F C3F 1_555 1_555
C4F C3F 1_555 1_555
C5F C4F 1_555 1_555
H4F C5F 1_555 1_555
C6F C4F 1_555 1_555
H5F C6F 1_555 1_555
N1F C1F 1_555 1_555
N2F N2B 1_555 1_555
N1A Cd1 1_555 1_555
N1C Cd1 1_555 1_555
Cl1_2 Cd1 1_555 1_555
Cd1_2 Cl1 1_555 1_555
Cd1D N1D 1_555 1_555
Cd1D_2 N1F 1_555 1_555
O1F Cl2 1_555 1_555
O1G Cl2 1_555 1_555
C5 N1 1_555 1_555
C5D N1D 1_555 1_555
C6D N2D 1_555 1_555
C1B N1B 1_555 1_555
C5B N1B 1_555 1_555
C5F N1F 1_555 1_555
C6F N2F 1_555 1_555

#END
