
#######################################################################
#
#                 Cambridge Crystallographic Data Centre
#                                CCDC 
#
#######################################################################
#
# If this CIF has been generated from an entry in the Cambridge 
# Structural Database, then it will include bibliographic, chemical, 
# crystal, experimental, refinement or atomic coordinate data resulting 
# from the CCDC's data processing and validation procedures.
#
#######################################################################

data_SIBGUG
_symmetry_cell_setting           orthorhombic
_symmetry_space_group_name_H-M   'P 21 21 21'
_symmetry_Int_Tables_number      19
_space_group_name_Hall           'P 2ac 2ab'
loop_
_symmetry_equiv_pos_site_id
_symmetry_equiv_pos_as_xyz
1 x,y,z
2 1/2-x,-y,1/2+z
3 1/2+x,1/2-y,-z
4 -x,1/2+y,1/2-z
_cell_length_a                   7.5145(5)
_cell_length_b                   14.261(1)
_cell_length_c                   14.844(1)
_cell_angle_alpha                90
_cell_angle_beta                 90
_cell_angle_gamma                90
_cell_volume                     1590.75
loop_
_atom_site_label
_atom_site_type_symbol
_atom_site_fract_x
_atom_site_fract_y
_atom_site_fract_z
Mn1 Mn -0.49910(6) -0.25737(2) -0.26214(2)
Mn2 Mn 0.00836(4) -0.50781(2) -0.19365(2)
O1 O -0.0528(2) -0.48939(9) -0.04719(9)
N1 N -0.1994(2) -0.4024(1) -0.2166(1)
N2 N -0.7798(2) -0.4025(1) -0.1938(2)
N3 N -0.5301(4) -0.3527(2) -0.4505(1)
N4 N -0.4825(3) -0.1525(1) -0.0762(1)
N5 N -0.2182(3) -0.1139(1) -0.3345(1)
N6 N -0.7998(3) -0.1159(1) -0.3127(1)
N7 N 0.0663(2) -0.5236(1) -0.3452(1)
N8 N -0.0591(2) -0.4858(2) -0.5455(1)
C1 C -0.3077(3) -0.3477(2) -0.2316(2)
C2 C -0.6780(3) -0.3486(2) -0.2171(2)
C3 C -0.5204(4) -0.3177(1) -0.3822(1)
C4 C -0.4885(3) -0.1930(1) -0.1427(1)
C5 C -0.3198(3) -0.1680(2) -0.3098(2)
C6 C -0.6919(3) -0.1684(2) -0.2962(2)
C7 C -0.0350(3) -0.5858(2) -0.4064(1)
C8 C -0.0047(4) -0.6878(1) -0.3821(1)
C9 C 0.0119(4) -0.5736(2) -0.5050(1)
H1 H 0.1877 -0.5433 -0.3489
H2 H 0.0569 -0.4620 -0.3696
H3 H -0.1580 -0.5724 -0.3990
H4 H 0.1026 -0.7089 -0.4093
H5 H -0.1015 -0.7244 -0.4039
H6 H 0.0034 -0.6941 -0.3187
H7 H -0.0321 -0.6243 -0.5378
H8 H 0.1388 -0.5706 -0.5098
H9 H -0.1819 -0.4933 -0.5518
H10 H -0.0287 -0.4357 -0.5087
H11 H -0.0043 -0.4798 -0.6035
H12 H -0.0088 -0.5444 -0.0171
H13 H -0.0100 -0.4401 -0.0013
Mn2_2 Mn -0.99164(4) -0.50781(2) -0.19365(2)
Mn2C Mn -0.00836(4) -0.00781(2) -0.30635(2)
Mn2C_2 Mn -1.00836(4) -0.00781(2) -0.30635(2)
N2_2 N 0.2202(2) -0.4025(1) -0.1938(2)
N5C N 0.2182(3) -0.6139(1) -0.1655(1)
N6C N -0.2002(3) -0.6159(1) -0.1873(1)
O2 O -0.9976(5) -0.3262(2) -0.4285(2)
H14 H -0.9107 -0.3344 -0.4556
H15 H -1.0806 -0.3355 -0.4617
loop_
_geom_bond_atom_site_label_1
_geom_bond_atom_site_label_2
_geom_bond_site_symmetry_1
_geom_bond_site_symmetry_2
Mn1 C1 1_555 1_555
Mn2 O1 1_555 1_555
O1 H12 1_555 1_555
O2 H14 1_555 1_555
N1 Mn2 1_555 1_555
N2 C2 1_555 1_555
N3 C3 1_555 1_555
N4 C4 1_555 1_555
N5 C5 1_555 1_555
N6 C6 1_555 1_555
N7 Mn2 1_555 1_555
N8 C9 1_555 1_555
C1 N1 1_555 1_555
C2 Mn1 1_555 1_555
C3 Mn1 1_555 1_555
C4 Mn1 1_555 1_555
C5 Mn1 1_555 1_555
C6 Mn1 1_555 1_555
C7 N7 1_555 1_555
C8 C7 1_555 1_555
C9 C7 1_555 1_555
H1 N7 1_555 1_555
H2 N7 1_555 1_555
H3 C7 1_555 1_555
H4 C8 1_555 1_555
H5 C8 1_555 1_555
H6 C8 1_555 1_555
H7 C9 1_555 1_555
H8 C9 1_555 1_555
H9 N8 1_555 1_555
H10 N8 1_555 1_555
H11 N8 1_555 1_555
H13 O1 1_555 1_555
H15 O2 1_555 1_555
Mn2_2 N2 1_555 1_555
Mn2C N5 1_555 1_555
Mn2C_2 N6 1_555 1_555
N2_2 Mn2 1_555 1_555
N5C Mn2 1_555 1_555
N6C Mn2 1_555 1_555

#END
