
#######################################################################
#
#                 Cambridge Crystallographic Data Centre
#                                CCDC 
#
#######################################################################
#
# If this CIF has been generated from an entry in the Cambridge 
# Structural Database, then it will include bibliographic, chemical, 
# crystal, experimental, refinement or atomic coordinate data resulting 
# from the CCDC's data processing and validation procedures.
#
#######################################################################

data_SIBHIV
_symmetry_cell_setting           monoclinic
_symmetry_space_group_name_H-M   'P 21/n'
_symmetry_Int_Tables_number      14
_space_group_name_Hall           '-P 2yn'
loop_
_symmetry_equiv_pos_site_id
_symmetry_equiv_pos_as_xyz
1 x,y,z
2 1/2-x,1/2+y,1/2-z
3 -x,-y,-z
4 1/2+x,1/2-y,1/2+z
_cell_length_a                   7.5172(2)
_cell_length_b                   7.8572(2)
_cell_length_c                   20.7387(5)
_cell_angle_alpha                90
_cell_angle_beta                 91.3962(10)
_cell_angle_gamma                90
_cell_volume                     1224.55
loop_
_atom_site_label
_atom_site_type_symbol
_atom_site_fract_x
_atom_site_fract_y
_atom_site_fract_z
Ag1 Ag 0.26616(5) 0.10537(5) 0.002524(18)
Ag2 Ag 0.26576(6) 0.34673(6) 0.17526(2)
O1 O 0.5934(5) 0.1895(4) -0.00884(16)
O2 O 0.4757(4) 0.3540(5) 0.06223(17)
O3 O 0.9326(5) 0.1775(5) -0.00847(19)
O4 O 1.0756(4) 0.3744(5) 0.04443(18)
O5 O 0.8997(5) 0.5250(5) 0.13364(18)
O6 O 0.6694(5) 0.6253(4) 0.08295(18)
O7 O -0.0562(5) 0.2224(5) 0.22957(19)
O8 O 0.0427(4) 0.4662(5) 0.26097(17)
O9 O -0.0786(4) 0.4695(4) 0.38045(16)
O10 O -0.3649(5) 0.4836(5) 0.38275(17)
O11 O -0.5397(4) 0.3567(4) 0.28468(17)
O12 O -0.3859(5) 0.3240(5) 0.19893(17)
O13 O 0.2289(6) 0.0798(5) 0.12478(17)
O14 O 0.2986(7) 0.6373(6) 0.1472(2)
N1 N 0.6079(5) 0.3026(5) 0.03405(18)
N2 N 0.9329(5) 0.3031(5) 0.0284(2)
N3 N 0.7815(5) 0.5152(5) 0.09210(19)
N4 N -0.0727(5) 0.3567(5) 0.25871(19)
N5 N -0.2266(5) 0.4506(5) 0.35348(19)
N6 N -0.3940(5) 0.3527(5) 0.25773(19)
C1 C 0.7750(6) 0.3665(6) 0.0514(2)
C2 C -0.2369(6) 0.3849(6) 0.2917(2)
H1 H 0.132(11) 0.041(10) 0.136(4)
H2 H 0.321(10) 0.033(10) 0.135(4)
H3 H 0.351(11) 0.643(11) 0.118(4)
H4 H 0.195(11) 0.653(9) 0.129(4)
Ag1B Ag 0.73384(5) -0.10537(5) -0.002524(18)
Ag1_2 Ag 1.26616(5) 0.10537(5) 0.002524(18)
Ag2_2 Ag -0.73424(6) 0.34673(6) 0.17526(2)
O1B O 0.4066(5) -0.1895(4) 0.00884(16)
O3_2 O -0.0674(5) 0.1775(5) -0.00847(19)
O12_2 O 0.6141(5) 0.3240(5) 0.19893(17)
loop_
_geom_bond_atom_site_label_1
_geom_bond_atom_site_label_2
_geom_bond_site_symmetry_1
_geom_bond_site_symmetry_2
Ag1 O1 1_555 1_555
Ag2 O8 1_555 1_555
O1 N1 1_555 1_555
O2 N1 1_555 1_555
O3 N2 1_555 1_555
O4 N2 1_555 1_555
O5 N3 1_555 1_555
O6 N3 1_555 1_555
O7 N4 1_555 1_555
O8 N4 1_555 1_555
O9 N5 1_555 1_555
O10 N5 1_555 1_555
O11 N6 1_555 1_555
O12 N6 1_555 1_555
O13 Ag1 1_555 1_555
O14 Ag2 1_555 1_555
N1 C1 1_555 1_555
N2 C1 1_555 1_555
N3 C1 1_555 1_555
N4 C2 1_555 1_555
N5 C2 1_555 1_555
N6 C2 1_555 1_555
H1 O13 1_555 1_555
H2 O13 1_555 1_555
H3 O14 1_555 1_555
H4 O14 1_555 1_555
Ag1B O1 1_555 1_555
Ag1_2 O3 1_555 1_555
Ag2_2 O12 1_555 1_555
O1B Ag1 1_555 1_555
O3_2 Ag1 1_555 1_555
O12_2 Ag2 1_555 1_555
Ag2 O13 1_555 1_555
Ag1B O1B 1_555 1_555

#END
