
#######################################################################
#
#                 Cambridge Crystallographic Data Centre
#                                CCDC 
#
#######################################################################
#
# If this CIF has been generated from an entry in the Cambridge 
# Structural Database, then it will include bibliographic, chemical, 
# crystal, experimental, refinement or atomic coordinate data resulting 
# from the CCDC's data processing and validation procedures.
#
#######################################################################

data_SIBJAP
_symmetry_cell_setting           monoclinic
_symmetry_space_group_name_H-M   'C 2/c'
_symmetry_Int_Tables_number      15
_space_group_name_Hall           '-C 2yn'
loop_
_symmetry_equiv_pos_site_id
_symmetry_equiv_pos_as_xyz
1 x,y,z
2 1/2+x,1/2+y,z
3 -x,y,1/2-z
4 1/2-x,1/2+y,1/2-z
5 -x,-y,-z
6 1/2-x,1/2-y,-z
7 x,-y,1/2+z
8 1/2+x,1/2-y,1/2+z
_cell_length_a                   19.8837(2)
_cell_length_b                   7.6642(2)
_cell_length_c                   13.8194(2)
_cell_angle_alpha                90
_cell_angle_beta                 121.500(10)
_cell_angle_gamma                90
_cell_volume                     1795.64
loop_
_atom_site_label
_atom_site_type_symbol
_atom_site_fract_x
_atom_site_fract_y
_atom_site_fract_z
Er1 Er 0.268891(11) 0.71774(2) 0.229942(15)
O1 O 0.18749(18) 0.9827(4) 0.1379(3)
C1 C 0.1533(2) 0.9153(6) 0.0383(3)
O2 O 0.1717(2) 0.7632(4) 0.0287(3)
C2 C 0.0905(2) 1.0169(6) -0.0621(4)
H1 H 0.0513 1.0566 -0.0454
H2 H 0.0644 0.9398 -0.1272
O3 O 0.1797(2) 0.9720(4) -0.1594(3)
C3 C 0.1229(3) 1.1756(6) -0.0930(4)
H3 H 0.0790 1.2493 -0.1449
H4 H 0.1561 1.2428 -0.0246
O4 O 0.1968(2) 1.2561(5) -0.1773(3)
C4 C 0.1703(2) 1.1298(6) -0.1470(4)
O5 O 0.32251(17) 0.9824(4) 0.3389(2)
C5 C 0.3944(2) 0.9237(6) 0.3931(4)
O6 O 0.4057(2) 0.7700(4) 0.3781(3)
C6 C 0.4601(3) 1.0441(6) 0.4692(4)
H5 H 0.4495 1.0930 0.5246
H6 H 0.4615 1.1398 0.4243
O7 O 0.3330(2) 0.8875(4) 0.1527(3)
H7 H 0.322(3) 0.993(3) 0.140(5)
H8 H 0.329(4) 0.855(9) 0.091(3)
Er1C Er 0.231109(11) 0.21774(2) 0.270058(15)
Er1C_2 Er 0.231109(11) 1.21774(2) 0.270058(15)
Er1E Er 0.231109(11) 0.78226(2) -0.229942(15)
Er1F Er 0.268891(11) 1.28226(2) -0.270058(15)
Er1G Er 0.768891(11) 0.78226(2) 0.729942(15)
Er1D Er 0.731109(11) 1.28226(2) 0.770058(15)
Er1F_2 Er 0.268891(11) 0.28226(2) 0.729942(15)
Er1E_2 Er 0.231109(11) 0.78226(2) 0.770058(15)
O1C O 0.31251(18) 0.4827(4) 0.3621(3)
O1_2 O 0.18749(18) -0.0173(4) 0.1379(3)
C1C C 0.3467(2) 0.4153(6) 0.4617(3)
O2C O 0.3283(2) 0.2632(4) 0.4713(3)
C2C C 0.4095(2) 0.5169(6) 0.5621(4)
H1C H 0.4487 0.5566 0.5454
H2C H 0.4356 0.4398 0.6272
O3C O 0.3203(2) 0.4720(4) 0.6594(3)
O3E O 0.3203(2) 0.5280(4) 0.1594(3)
O3F O 0.1797(2) 0.0280(4) 0.3406(3)
C3C C 0.3771(3) 0.6756(6) 0.5930(4)
H3C H 0.4210 0.7493 0.6449
H4C H 0.3439 0.7428 0.5246
O4C O 0.3032(2) 0.7561(5) 0.6773(3)
O4F O 0.1968(2) 0.7439(5) 0.3227(3)
O4E O 0.3032(2) 0.2439(5) 0.1773(3)
C4C C 0.3297(2) 0.6298(6) 0.6470(4)
O5D O 0.67749(17) 1.0176(4) 0.6611(2)
O5C O 0.17749(17) 0.4824(4) 0.1611(2)
O5_2 O 0.32251(17) -0.0176(4) 0.3389(2)
C5D C 0.6056(2) 1.0763(6) 0.6069(4)
O6D O 0.5943(2) 1.2300(4) 0.6219(3)
O6C O 0.0943(2) 0.2700(4) 0.1219(3)
C6D C 0.5399(3) 0.9559(6) 0.5308(4)
H5D H 0.5505 0.9070 0.4754
H6D H 0.5385 0.8602 0.5757
O7C O 0.1670(2) 0.3875(4) 0.3473(3)
H7C H 0.178(3) 0.493(3) 0.360(5)
H8C H 0.171(4) 0.355(9) 0.409(3)
O8 O 0.5000 0.9747(17) 0.2500
loop_
_geom_bond_atom_site_label_1
_geom_bond_atom_site_label_2
_geom_bond_site_symmetry_1
_geom_bond_site_symmetry_2
Er1 O1 1_555 1_555
O1 C1 1_555 1_555
C1 O2 1_555 1_555
O2 Er1 1_555 1_555
C2 C1 1_555 1_555
H1 C2 1_555 1_555
H2 C2 1_555 1_555
O3 C4 1_555 1_555
C3 C2 1_555 1_555
H3 C3 1_555 1_555
H4 C3 1_555 1_555
O4 C4 1_555 1_555
C4 C3 1_555 1_555
O5 Er1 1_555 1_555
C5 O5 1_555 1_555
O6 Er1 1_555 1_555
C6 C5 1_555 1_555
H5 C6 1_555 1_555
H6 C6 1_555 1_555
O7 Er1 1_555 1_555
H7 O7 1_555 1_555
H8 O7 1_555 1_555
Er1C O1C 1_555 1_555
Er1C_2 O1 1_555 1_555
Er1E O3 1_555 1_555
Er1F O4 1_555 1_555
Er1G O5D 1_555 1_555
Er1D O5D 1_555 1_555
Er1F_2 O3C 1_555 1_555
Er1E_2 O4C 1_555 1_555
O1C Er1 1_555 1_555
O1_2 Er1C 1_555 1_555
C1C O1C 1_555 1_555
O2C Er1C 1_555 1_555
C2C C1C 1_555 1_555
H1C C2C 1_555 1_555
H2C C2C 1_555 1_555
O3C C4C 1_555 1_555
O3E Er1 1_555 1_555
O3F Er1C 1_555 1_555
C3C C2C 1_555 1_555
H3C C3C 1_555 1_555
H4C C3C 1_555 1_555
O4C C4C 1_555 1_555
O4F Er1 1_555 1_555
O4E Er1C 1_555 1_555
C4C C3C 1_555 1_555
O5D C5D 1_555 1_555
O5C Er1 1_555 1_555
O5_2 Er1C 1_555 1_555
C5D O6D 1_555 1_555
O6D Er1D 1_555 1_555
O6C Er1C 1_555 1_555
C6D C6 1_555 1_555
H5D C6D 1_555 1_555
H6D C6D 1_555 1_555
O7C Er1C 1_555 1_555
H7C O7C 1_555 1_555
H8C O7C 1_555 1_555
O5 Er1C_2 1_555 1_555
C5 O6 1_555 1_555
Er1C O5C 1_555 1_555
C1C O2C 1_555 1_555
C5D C6D 1_555 1_555

#END
