
#######################################################################
#
#                 Cambridge Crystallographic Data Centre
#                                CCDC 
#
#######################################################################
#
# If this CIF has been generated from an entry in the Cambridge 
# Structural Database, then it will include bibliographic, chemical, 
# crystal, experimental, refinement or atomic coordinate data resulting 
# from the CCDC's data processing and validation procedures.
#
#######################################################################

data_SIBNEX
_symmetry_cell_setting           monoclinic
_symmetry_space_group_name_H-M   'P 21/m'
_symmetry_Int_Tables_number      11
_space_group_name_Hall           '-P 2yb'
loop_
_symmetry_equiv_pos_site_id
_symmetry_equiv_pos_as_xyz
1 x,y,z
2 -x,1/2+y,-z
3 -x,-y,-z
4 x,1/2-y,z
_cell_length_a                   6.4942(6)
_cell_length_b                   6.7704(5)
_cell_length_c                   13.8801(12)
_cell_angle_alpha                90
_cell_angle_beta                 101.578(3)
_cell_angle_gamma                90
_cell_volume                     597.867
loop_
_atom_site_label
_atom_site_type_symbol
_atom_site_fract_x
_atom_site_fract_y
_atom_site_fract_z
Cu1 Cu 0.0000 -0.5000 -0.5000
O1 O -0.1228(5) -0.2500 0.15758(19)
H1 H -0.2424 -0.2500 0.1683
O2 O -0.0108(4) -0.2500 -0.57023(18)
H2 H -0.096(7) -0.2500 -0.608(4)
O3 O 0.3891(3) -0.4497(4) -0.42892(17)
N1 N -0.0622(3) -0.3514(3) -0.38371(13)
N2 N -0.1155(5) -0.2500 -0.2422(2)
C1 C -0.0953(4) -0.4085(4) -0.29848(17)
H3 H -0.1038 -0.5393 -0.2793
C2 C -0.1257(6) -0.2500 -0.1387(2)
C3 C -0.3157(6) -0.2500 -0.1098(3)
H4 H -0.4407 -0.2500 -0.1563
C4 C -0.3180(6) -0.2500 -0.0091(3)
H5 H -0.4453 -0.2500 0.0120
C5 C -0.1314(6) -0.2500 0.0586(2)
C6 C 0.0583(6) -0.2500 0.0285(3)
H6 H 0.1839 -0.2500 0.0746
C7 C 0.0601(6) -0.2500 -0.0712(3)
H7 H 0.1872 -0.2500 -0.0923
Cu1C Cu 0.0000 0.0000 -0.5000
O2B O 0.0108(4) -0.7500 -0.42977(18)
H2B H 0.096(7) -0.7500 -0.392(4)
O3B O -0.3891(3) -0.5503(4) -0.57108(17)
N1B N 0.0622(3) -0.6486(3) -0.61629(13)
N1C N -0.0622(3) -0.1486(3) -0.38371(13)
C1C C -0.0953(4) -0.0915(4) -0.29848(17)
H3C H -0.1038 0.0393 -0.2793
Cl1 Cl -0.50103(18) -0.2500 0.25214(8)
loop_
_geom_bond_atom_site_label_1
_geom_bond_atom_site_label_2
_geom_bond_site_symmetry_1
_geom_bond_site_symmetry_2
Cu1 O2 1_555 1_555
O1 H1 1_555 1_555
O2 H2 1_555 1_555
O3 Cu1 1_555 1_555
N1 Cu1 1_555 1_555
N2 C1 1_555 1_555
C1 N1 1_555 1_555
H3 C1 1_555 1_555
C2 N2 1_555 1_555
C3 C2 1_555 1_555
H4 C3 1_555 1_555
C4 C3 1_555 1_555
H5 C4 1_555 1_555
C5 O1 1_555 1_555
C6 C5 1_555 1_555
H6 C6 1_555 1_555
C7 C2 1_555 1_555
H7 C7 1_555 1_555
Cu1C O2 1_555 1_555
O2B Cu1 1_555 1_555
H2B O2B 1_555 1_555
O3B Cu1 1_555 1_555
N1B Cu1 1_555 1_555
N1C N1 1_555 1_555
C1C N2 1_555 1_555
H3C C1C 1_555 1_555
C4 C5 1_555 1_555
C6 C7 1_555 1_555
Cu1C N1C 1_555 1_555
N1C C1C 1_555 1_555

#END
