
#######################################################################
#
#                 Cambridge Crystallographic Data Centre
#                                CCDC 
#
#######################################################################
#
# If this CIF has been generated from an entry in the Cambridge 
# Structural Database, then it will include bibliographic, chemical, 
# crystal, experimental, refinement or atomic coordinate data resulting 
# from the CCDC's data processing and validation procedures.
#
#######################################################################

data_SIBYEI
_symmetry_cell_setting           triclinic
_symmetry_space_group_name_H-M   'P -1'
_symmetry_Int_Tables_number      2
_space_group_name_Hall           '-P 1'
loop_
_symmetry_equiv_pos_site_id
_symmetry_equiv_pos_as_xyz
1 x,y,z
2 -x,-y,-z
_cell_length_a                   11.393(2)
_cell_length_b                   12.107(2)
_cell_length_c                   15.801(3)
_cell_angle_alpha                80.39(3)
_cell_angle_beta                 79.97(3)
_cell_angle_gamma                86.91(3)
_cell_volume                     2115.39
loop_
_atom_site_label
_atom_site_type_symbol
_atom_site_fract_x
_atom_site_fract_y
_atom_site_fract_z
Mn1 Mn 0.44235(4) 0.12650(4) 0.02359(3)
Mn2 Mn 0.14957(5) 0.50588(5) -0.01892(4)
O1 O 0.5806(2) 0.0878(2) -0.05333(14)
O2 O 0.5176(2) 0.1151(2) 0.12075(14)
O3 O 0.3521(4) 0.0819(4) 0.4728(2)
O4 O 0.6821(3) 0.2235(3) -0.40764(19)
O5 O 0.0389(2) 0.4179(2) 0.06691(15)
O6 O 0.1650(2) 0.4078(2) -0.09971(15)
O7 O 0.0243(4) 0.3960(5) 0.4212(2)
O8 O 0.3397(5) 0.4769(5) -0.4517(3)
N1 N 0.2832(2) 0.1350(2) 0.09617(18)
N2 N 0.3444(2) 0.1154(2) -0.06677(19)
N3 N 0.1273(3) 0.6269(3) 0.0545(2)
N4 N 0.2343(3) 0.6256(3) -0.1048(2)
N5 N 0.3089(3) 0.4474(3) 0.0333(2)
H2 H 0.3216 0.4764 0.0768
N6 N 0.4539(3) 0.3057(3) -0.0187(2)
C1 C 0.5987(3) 0.1275(3) -0.1395(2)
C2 C 0.7158(3) 0.1392(3) -0.1833(2)
H3 H 0.7788 0.1237 -0.1525
C3 C 0.7385(4) 0.1737(3) -0.2720(3)
H4 H 0.8169 0.1831 -0.3001
C4 C 0.6473(4) 0.1945(4) -0.3198(3)
C5 C 0.5328(4) 0.1837(3) -0.2791(2)
H5 H 0.4711 0.1984 -0.3113
C6 C 0.5064(3) 0.1502(3) -0.1875(2)
C7 C 0.3840(3) 0.1313(3) -0.1497(2)
H6 H 0.3295 0.1304 -0.1871
C8 C 0.2191(3) 0.0879(3) -0.0313(2)
H7 H 0.2114 0.0076 -0.0134
H8 H 0.1689 0.1127 -0.0749
C9 C 0.1834(3) 0.1481(3) 0.0459(2)
H9 H 0.1676 0.2269 0.0262
H10 H 0.1117 0.1164 0.0821
C10 C 0.2613(3) 0.1279(3) 0.1795(2)
H11 H 0.1817 0.1298 0.2057
C11 C 0.3484(3) 0.1174(3) 0.2352(2)
C12 C 0.3069(4) 0.1083(4) 0.3264(3)
H12 H 0.2254 0.1121 0.3469
C13 C 0.3843(5) 0.0942(4) 0.3840(3)
C14 C 0.5051(4) 0.0874(4) 0.3537(3)
H13 H 0.5582 0.0776 0.3930
C15 C 0.5480(4) 0.0949(3) 0.2663(2)
H14 H 0.6299 0.0898 0.2474
C16 C 0.4711(3) 0.1100(3) 0.2049(2)
C17 C 0.5909(7) 0.2371(6) -0.4584(3)
H15 H 0.6250 0.2574 -0.5187
H16 H 0.5358 0.2951 -0.4408
H17 H 0.5497 0.1681 -0.4504
C18 C 0.2293(6) 0.0742(9) 0.5058(4)
H18 H 0.2170 0.0659 0.5682
H19 H 0.1987 0.0103 0.4889
H20 H 0.1884 0.1409 0.4830
C19 C 0.0406(3) 0.4124(3) 0.1531(2)
C20 C 0.0058(3) 0.3148(4) 0.2093(2)
H21 H -0.0133 0.2532 0.1867
C21 C -0.0010(4) 0.3072(4) 0.2990(3)
H22 H -0.0247 0.2410 0.3356
C22 C 0.0273(4) 0.3978(5) 0.3335(3)
C23 C 0.0615(4) 0.4937(5) 0.2806(3)
H23 H 0.0795 0.5546 0.3045
C24 C 0.0705(3) 0.5038(4) 0.1897(3)
C25 C 0.1012(3) 0.6107(4) 0.1375(3)
H24 H 0.1022 0.6719 0.1660
C26 C 0.1521(4) 0.7385(3) 0.0051(3)
H25 H 0.1720 0.7881 0.0425
H26 H 0.0830 0.7697 -0.0196
C27 C 0.2572(4) 0.7251(4) -0.0671(3)
H27 H 0.2637 0.7914 -0.1114
H28 H 0.3309 0.7142 -0.0436
C28 C 0.2719(3) 0.6204(4) -0.1860(3)
H29 H 0.3099 0.6829 -0.2198
C29 C 0.2603(3) 0.5261(4) -0.2295(3)
C30 C 0.3020(4) 0.5375(5) -0.3206(3)
H30 H 0.3375 0.6036 -0.3501
C31 C 0.2908(5) 0.4542(5) -0.3647(3)
C32 C 0.2381(4) 0.3565(5) -0.3218(3)
H31 H 0.2305 0.2992 -0.3528
C33 C 0.1964(4) 0.3422(4) -0.2339(3)
H32 H 0.1598 0.2758 -0.2064
C34 C 0.2081(3) 0.4258(3) -0.1856(2)
C35 C -0.0472(9) 0.3281(8) 0.4806(4)
H33 H -0.0371 0.3385 0.5378
H34 H -0.0276 0.2518 0.4733
H35 H -0.1285 0.3450 0.4735
C36 C 0.3065(9) 0.4238(9) -0.5057(5)
H36 H 0.3490 0.4496 -0.5631
H37 H 0.2225 0.4364 -0.5052
H38 H 0.3229 0.3451 -0.4899
C37 C 0.3869(3) 0.3747(3) 0.0071(2)
Mn2A Mn -0.14957(5) 0.49412(5) 0.01892(4)
O5A O -0.0389(2) 0.5821(2) -0.06691(15)
Cl1 Cl 0.92614(11) 0.97220(12) 0.23274(9)
O9 O 0.8202(3) 0.9235(4) 0.2728(2)
O10 O 0.9948(3) 0.9060(4) 0.1747(3)
O11 O 0.8872(5) 1.0682(4) 0.1718(4)
O12 O 0.9926(4) 1.0134(4) 0.2845(3)
O13 O 0.6342(3) 0.4174(3) -0.15507(19)
H1 H 0.6276 0.3493 -0.1488
C38 C 0.6005(6) 0.5898(5) -0.2456(4)
H39 H 0.5701 0.6212 -0.2977
H40 H 0.6826 0.6088 -0.2518
H41 H 0.5551 0.6196 -0.1970
C39 C 0.5909(6) 0.4681(5) -0.2310(4)
H42 H 0.5080 0.4493 -0.2259
H43 H 0.6356 0.4386 -0.2807
loop_
_geom_bond_atom_site_label_1
_geom_bond_atom_site_label_2
_geom_bond_site_symmetry_1
_geom_bond_site_symmetry_2
Mn1 O1 1_555 1_555
Mn2 O5 1_555 1_555
Cl1 O9 1_555 1_555
O1 C1 1_555 1_555
O2 Mn1 1_555 1_555
O3 C13 1_555 1_555
O4 C4 1_555 1_555
O5 C19 1_555 1_555
O6 Mn2 1_555 1_555
O7 C22 1_555 1_555
O8 C31 1_555 1_555
O10 Cl1 1_555 1_555
O11 Cl1 1_555 1_555
O12 Cl1 1_555 1_555
O13 H1 1_555 1_555
N1 Mn1 1_555 1_555
N2 Mn1 1_555 1_555
N3 Mn2 1_555 1_555
N4 Mn2 1_555 1_555
N5 Mn2 1_555 1_555
H2 N5 1_555 1_555
N6 Mn1 1_555 1_555
C1 C2 1_555 1_555
C2 H3 1_555 1_555
C3 C2 1_555 1_555
H4 C3 1_555 1_555
C4 C3 1_555 1_555
C5 C4 1_555 1_555
H5 C5 1_555 1_555
C6 C1 1_555 1_555
C7 N2 1_555 1_555
H6 C7 1_555 1_555
C8 N2 1_555 1_555
H7 C8 1_555 1_555
H8 C8 1_555 1_555
C9 N1 1_555 1_555
H9 C9 1_555 1_555
H10 C9 1_555 1_555
C10 N1 1_555 1_555
H11 C10 1_555 1_555
C11 C10 1_555 1_555
C12 C11 1_555 1_555
H12 C12 1_555 1_555
C13 C12 1_555 1_555
C14 C13 1_555 1_555
H13 C14 1_555 1_555
C15 C14 1_555 1_555
H14 C15 1_555 1_555
C16 O2 1_555 1_555
C17 O4 1_555 1_555
H15 C17 1_555 1_555
H16 C17 1_555 1_555
H17 C17 1_555 1_555
C18 O3 1_555 1_555
H18 C18 1_555 1_555
H19 C18 1_555 1_555
H20 C18 1_555 1_555
C19 C20 1_555 1_555
C20 H21 1_555 1_555
C21 C20 1_555 1_555
H22 C21 1_555 1_555
C22 C21 1_555 1_555
C23 C22 1_555 1_555
H23 C23 1_555 1_555
C24 C19 1_555 1_555
C25 N3 1_555 1_555
H24 C25 1_555 1_555
C26 N3 1_555 1_555
H25 C26 1_555 1_555
H26 C26 1_555 1_555
C27 N4 1_555 1_555
H27 C27 1_555 1_555
H28 C27 1_555 1_555
C28 N4 1_555 1_555
H29 C28 1_555 1_555
C29 C28 1_555 1_555
C30 C29 1_555 1_555
H30 C30 1_555 1_555
C31 C30 1_555 1_555
C32 C31 1_555 1_555
H31 C32 1_555 1_555
C33 C32 1_555 1_555
H32 C33 1_555 1_555
C34 O6 1_555 1_555
C35 O7 1_555 1_555
H33 C35 1_555 1_555
H34 C35 1_555 1_555
H35 C35 1_555 1_555
C36 O8 1_555 1_555
H36 C36 1_555 1_555
H37 C36 1_555 1_555
H38 C36 1_555 1_555
C37 N5 1_555 1_555
C38 H39 1_555 1_555
H40 C38 1_555 1_555
H41 C38 1_555 1_555
C39 O13 1_555 1_555
H42 C39 1_555 1_555
H43 C39 1_555 1_555
Mn2A O5 1_555 1_555
O5A Mn2 1_555 1_555
N6 C37 1_555 1_555
C5 C6 1_555 1_555
C6 C7 1_555 1_555
C8 C9 1_555 1_555
C11 C16 1_555 1_555
C15 C16 1_555 1_555
C23 C24 1_555 1_555
C24 C25 1_555 1_555
C26 C27 1_555 1_555
C29 C34 1_555 1_555
C33 C34 1_555 1_555
C38 C39 1_555 1_555
Mn2A O5A 1_555 1_555

#END
