
#######################################################################
#
#                 Cambridge Crystallographic Data Centre
#                                CCDC 
#
#######################################################################
#
# If this CIF has been generated from an entry in the Cambridge 
# Structural Database, then it will include bibliographic, chemical, 
# crystal, experimental, refinement or atomic coordinate data resulting 
# from the CCDC's data processing and validation procedures.
#
#######################################################################

data_SIBYAE
_symmetry_cell_setting           triclinic
_symmetry_space_group_name_H-M   'P -1'
_symmetry_Int_Tables_number      2
_space_group_name_Hall           '-P 1'
loop_
_symmetry_equiv_pos_site_id
_symmetry_equiv_pos_as_xyz
1 x,y,z
2 -x,-y,-z
_cell_length_a                   11.378(2)
_cell_length_b                   12.278(3)
_cell_length_c                   13.582(3)
_cell_angle_alpha                110.46(3)
_cell_angle_beta                 98.19(3)
_cell_angle_gamma                93.57(3)
_cell_volume                     1746.67
loop_
_atom_site_label
_atom_site_type_symbol
_atom_site_fract_x
_atom_site_fract_y
_atom_site_fract_z
Mn1 Mn 0.14591(4) 0.49800(4) 0.48718(4)
Mn2 Mn 0.45373(4) 0.88224(4) 0.52592(4)
O1 O 0.06392(19) 0.60772(19) 0.58194(16)
O2 O 0.1243(2) 0.56427(19) 0.38255(17)
O3 O 0.58127(19) 0.92206(19) 0.64003(17)
O4 O 0.55029(19) 0.90151(19) 0.42834(17)
N1 N 0.1560(2) 0.4075(2) 0.5834(2)
N2 N 0.1989(2) 0.3563(2) 0.3901(2)
N3 N 0.3353(2) 0.8822(2) 0.6193(2)
N4 N 0.3090(2) 0.8707(2) 0.4230(2)
N5 N 0.3276(2) 0.5806(2) 0.5547(2)
H1 H 0.3591 0.5752 0.6140
N6 N 0.4446(2) 0.6908(2) 0.4731(2)
C1 C 0.0963(3) 0.6454(3) 0.6889(3)
C2 C 0.0757(3) 0.7576(3) 0.7499(3)
H2 H 0.0443 0.8060 0.7160
C3 C 0.1012(4) 0.7982(4) 0.8596(3)
H3 H 0.0866 0.8732 0.8993
C4 C 0.1489(4) 0.7266(4) 0.9111(3)
H4 H 0.1666 0.7542 0.9853
C5 C 0.1695(4) 0.6177(4) 0.8540(3)
H5 H 0.2010 0.5707 0.8895
C6 C 0.1442(3) 0.5732(3) 0.7411(3)
C7 C 0.1594(3) 0.4532(3) 0.6844(3)
H6 H 0.1727 0.4053 0.7239
C8 C 0.1627(3) 0.2828(3) 0.5276(3)
H7 H 0.0831 0.2414 0.4960
H8 H 0.1997 0.2488 0.5771
C9 C 0.2371(4) 0.2737(3) 0.4418(3)
H9 H 0.3213 0.2934 0.4731
H10 H 0.2250 0.1944 0.3897
C10 C 0.2067(3) 0.3356(3) 0.2915(3)
H11 H 0.2346 0.2659 0.2546
C11 C 0.1759(3) 0.4111(3) 0.2336(3)
C12 C 0.1830(4) 0.3701(4) 0.1240(3)
H12 H 0.2079 0.2970 0.0928
C13 C 0.1542(4) 0.4350(4) 0.0634(3)
H13 H 0.1612 0.4079 -0.0083
C14 C 0.1141(4) 0.5426(4) 0.1102(3)
H14 H 0.0930 0.5868 0.0685
C15 C 0.1048(3) 0.5857(3) 0.2166(3)
H15 H 0.0772 0.6579 0.2457
C16 C 0.1367(3) 0.5209(3) 0.2810(3)
C17 C 0.5824(3) 0.9188(3) 0.7373(3)
C18 C 0.6908(4) 0.9453(3) 0.8070(3)
H16 H 0.7592 0.9703 0.7869
C19 C 0.6988(4) 0.9352(3) 0.9063(3)
H17 H 0.7723 0.9528 0.9517
C20 C 0.5987(5) 0.8994(4) 0.9379(3)
H18 H 0.6050 0.8889 1.0029
C21 C 0.4893(4) 0.8791(4) 0.8733(3)
H19 H 0.4215 0.8581 0.8967
C22 C 0.4770(4) 0.8892(3) 0.7723(3)
C23 C 0.3609(4) 0.8780(3) 0.7133(3)
H20 H 0.2969 0.8664 0.7456
C24 C 0.2090(3) 0.8645(3) 0.5654(3)
H21 H 0.1602 0.9076 0.6153
H22 H 0.1782 0.7821 0.5389
C25 C 0.2046(3) 0.9079(3) 0.4738(3)
H23 H 0.1311 0.8746 0.4229
H24 H 0.2081 0.9926 0.4999
C26 C 0.3031(3) 0.8356(3) 0.3215(3)
H25 H 0.2287 0.8281 0.2796
C27 C 0.4038(3) 0.8069(3) 0.2681(3)
C28 C 0.3819(4) 0.7496(4) 0.1573(3)
H26 H 0.3034 0.7266 0.1210
C29 C 0.4746(5) 0.7269(4) 0.1012(3)
H27 H 0.4591 0.6891 0.0274
C30 C 0.5902(4) 0.7605(4) 0.1549(3)
H28 H 0.6528 0.7445 0.1168
C31 C 0.6158(3) 0.8173(3) 0.2638(3)
H29 H 0.6948 0.8401 0.2986
C32 C 0.5220(3) 0.8408(3) 0.3221(3)
C33 C 0.3915(3) 0.6362(3) 0.5145(3)
Mn1A Mn -0.14591(4) 0.50200(4) 0.51282(4)
Mn2A Mn 0.54627(4) 1.11776(4) 0.47408(4)
O1A O -0.06392(19) 0.39228(19) 0.41806(16)
O4A O 0.44971(19) 1.09849(19) 0.57166(17)
Cl1 Cl 0.95798(11) 0.89422(12) 0.21436(11)
O5 O 0.9195(4) 0.8231(5) 0.2686(5)
O6 O 1.0405(4) 0.8375(4) 0.1540(3)
O7 O 0.8590(3) 0.9247(4) 0.1613(4)
O8 O 1.0254(4) 0.9995(4) 0.2935(3)
O9 O 0.5549(3) 0.5327(3) 0.3100(3)
C34 C 0.4981(5) 0.4778(5) 0.2064(4)
loop_
_geom_bond_atom_site_label_1
_geom_bond_atom_site_label_2
_geom_bond_site_symmetry_1
_geom_bond_site_symmetry_2
Mn1 O1 1_555 1_555
Mn2 O3 1_555 1_555
Cl1 O5 1_555 1_555
O1 C1 1_555 1_555
O2 Mn1 1_555 1_555
O3 C17 1_555 1_555
O4 Mn2 1_555 1_555
O6 Cl1 1_555 1_555
O7 Cl1 1_555 1_555
O8 Cl1 1_555 1_555
O9 C34 1_555 1_555
N1 Mn1 1_555 1_555
N2 Mn1 1_555 1_555
N3 Mn2 1_555 1_555
N4 Mn2 1_555 1_555
N5 Mn1 1_555 1_555
H1 N5 1_555 1_555
N6 Mn2 1_555 1_555
C1 C2 1_555 1_555
C2 H2 1_555 1_555
C3 C2 1_555 1_555
H3 C3 1_555 1_555
C4 C3 1_555 1_555
H4 C4 1_555 1_555
C5 C4 1_555 1_555
H5 C5 1_555 1_555
C6 C1 1_555 1_555
C7 N1 1_555 1_555
H6 C7 1_555 1_555
C8 N1 1_555 1_555
H7 C8 1_555 1_555
H8 C8 1_555 1_555
C9 N2 1_555 1_555
H9 C9 1_555 1_555
H10 C9 1_555 1_555
C10 N2 1_555 1_555
H11 C10 1_555 1_555
C11 C10 1_555 1_555
C12 C11 1_555 1_555
H12 C12 1_555 1_555
C13 C12 1_555 1_555
H13 C13 1_555 1_555
C14 C13 1_555 1_555
H14 C14 1_555 1_555
C15 C14 1_555 1_555
H15 C15 1_555 1_555
C16 O2 1_555 1_555
C17 C18 1_555 1_555
C18 H16 1_555 1_555
C19 C18 1_555 1_555
H17 C19 1_555 1_555
C20 C19 1_555 1_555
H18 C20 1_555 1_555
C21 C20 1_555 1_555
H19 C21 1_555 1_555
C22 C17 1_555 1_555
C23 N3 1_555 1_555
H20 C23 1_555 1_555
C24 N3 1_555 1_555
H21 C24 1_555 1_555
H22 C24 1_555 1_555
C25 N4 1_555 1_555
H23 C25 1_555 1_555
H24 C25 1_555 1_555
C26 N4 1_555 1_555
H25 C26 1_555 1_555
C27 C26 1_555 1_555
C28 C27 1_555 1_555
H26 C28 1_555 1_555
C29 C28 1_555 1_555
H27 C29 1_555 1_555
C30 C29 1_555 1_555
H28 C30 1_555 1_555
C31 C30 1_555 1_555
H29 C31 1_555 1_555
C32 O4 1_555 1_555
C33 N5 1_555 1_555
Mn1A O1 1_555 1_555
Mn2A O4 1_555 1_555
O1A Mn1 1_555 1_555
O4A Mn2 1_555 1_555
N6 C33 1_555 1_555
C5 C6 1_555 1_555
C6 C7 1_555 1_555
C8 C9 1_555 1_555
C11 C16 1_555 1_555
C15 C16 1_555 1_555
C21 C22 1_555 1_555
C22 C23 1_555 1_555
C24 C25 1_555 1_555
C27 C32 1_555 1_555
C31 C32 1_555 1_555
Mn1A O1A 1_555 1_555
Mn2A O4A 1_555 1_555

#END
