
#######################################################################
#
#                 Cambridge Crystallographic Data Centre
#                                CCDC 
#
#######################################################################
#
# If this CIF has been generated from an entry in the Cambridge 
# Structural Database, then it will include bibliographic, chemical, 
# crystal, experimental, refinement or atomic coordinate data resulting 
# from the CCDC's data processing and validation procedures.
#
#######################################################################

data_SICGES
_symmetry_cell_setting           orthorhombic
_symmetry_space_group_name_H-M   'P b c n'
_symmetry_Int_Tables_number      60
_space_group_name_Hall           '-P 2n 2ab'
loop_
_symmetry_equiv_pos_site_id
_symmetry_equiv_pos_as_xyz
1 x,y,z
2 1/2-x,1/2-y,1/2+z
3 -x,y,1/2-z
4 1/2+x,1/2-y,-z
5 -x,-y,-z
6 1/2+x,1/2+y,1/2-z
7 x,-y,1/2+z
8 1/2-x,1/2+y,z
_cell_length_a                   13.760(3)
_cell_length_b                   7.3499(15)
_cell_length_c                   15.494(3)
_cell_angle_alpha                90
_cell_angle_beta                 90
_cell_angle_gamma                90
_cell_volume                     1566.98
loop_
_atom_site_label
_atom_site_type_symbol
_atom_site_fract_x
_atom_site_fract_y
_atom_site_fract_z
C1 C 0.2436(2) 0.3336(4) 0.24066(15)
H1 H 0.2473 0.3757 0.2972
C2 C 0.18594(17) 0.2478(3) 0.12215(15)
H2 H 0.1438 0.2171 0.0775
C3 C 0.3440(2) 0.1790(3) 0.04611(18)
H3 H 0.3084 0.0950 0.0096
H4 H 0.4005 0.1157 0.0685
C4 C 0.3769(2) 0.3392(3) -0.00712(17)
H5 H 0.4214 0.4119 0.0270
H6 H 0.3208 0.4144 -0.0203
C5 C 0.42637(17) 0.2876(3) -0.09069(15)
Cd1 Cd 0.5000 0.17864(3) -0.2500
N1 N 0.28198(14) 0.2358(3) 0.11819(13)
N2 N 0.32042(15) 0.2924(3) 0.19501(14)
N3 N 0.15833(15) 0.3097(3) 0.19889(13)
O1 O 0.45574(16) 0.4123(3) -0.13939(12)
O2 O 0.43528(15) 0.1224(3) -0.11041(12)
O3 O 0.5000 -0.1433(4) -0.2500
H7 H 0.4533 -0.2131 -0.2638
H7B H 0.5467 -0.2131 -0.2362
C1B C 0.7564(2) 0.3336(4) -0.74066(15)
H1B H 0.7527 0.3757 -0.7972
C2B C 0.81406(17) 0.2478(3) -0.62215(15)
H2B H 0.8562 0.2171 -0.5775
C3B C 0.6560(2) 0.1790(3) -0.54611(18)
H3B H 0.6916 0.0950 -0.5096
H4B H 0.5995 0.1157 -0.5685
C4B C 0.6231(2) 0.3392(3) -0.49288(17)
H5B H 0.5786 0.4119 -0.5270
H6B H 0.6792 0.4144 -0.4797
C5B C 0.57363(17) 0.2876(3) -0.40931(15)
N1B N 0.71802(14) 0.2358(3) -0.61819(13)
N2B N 0.67958(15) 0.2924(3) -0.69501(14)
N3B N 0.84167(15) 0.3097(3) -0.69889(13)
O1B O 0.54426(16) 0.4123(3) -0.36061(12)
O2B O 0.56472(15) 0.1224(3) -0.38959(12)
Cd1A Cd 0.0000 0.32136(3) 0.2500
Cd1A_2 Cd 1.0000 0.32136(3) -0.7500
N3A N 0.34167(15) 0.1903(3) -0.30111(13)
N3C N 0.65833(15) 0.1903(3) -0.19889(13)
O4 O 0.62385(18) 0.7537(3) 0.57370(14)
H8 H 0.5988 0.8464 0.5978
H9 H 0.5958 0.6614 0.5954
loop_
_geom_bond_atom_site_label_1
_geom_bond_atom_site_label_2
_geom_bond_site_symmetry_1
_geom_bond_site_symmetry_2
C1 H1 1_555 1_555
C2 H2 1_555 1_555
C3 H3 1_555 1_555
H4 C3 1_555 1_555
C4 C3 1_555 1_555
H5 C4 1_555 1_555
H6 C4 1_555 1_555
C5 C4 1_555 1_555
Cd1 O1 1_555 1_555
N1 C2 1_555 1_555
N2 C1 1_555 1_555
N3 C1 1_555 1_555
O1 C5 1_555 1_555
O2 C5 1_555 1_555
O3 Cd1 1_555 1_555
H7 O3 1_555 1_555
O4 H8 1_555 1_555
H9 O4 1_555 1_555
H7B O3 1_555 1_555
C1B H1B 1_555 1_555
C2B H2B 1_555 1_555
C3B H3B 1_555 1_555
H4B C3B 1_555 1_555
C4B C3B 1_555 1_555
H5B C4B 1_555 1_555
H6B C4B 1_555 1_555
C5B C4B 1_555 1_555
N1B C2B 1_555 1_555
N2B C1B 1_555 1_555
N3B C1B 1_555 1_555
O1B Cd1 1_555 1_555
O2B Cd1 1_555 1_555
Cd1A N3 1_555 1_555
Cd1A_2 N3B 1_555 1_555
N3A Cd1 1_555 1_555
N3C Cd1 1_555 1_555
C2 N3 1_555 1_555
C3 N1 1_555 1_555
Cd1 O2 1_555 1_555
N1 N2 1_555 1_555
C2B N3B 1_555 1_555
C3B N1B 1_555 1_555
C5B O1B 1_555 1_555
C5B O2B 1_555 1_555
N1B N2B 1_555 1_555

#END
