
#######################################################################
#
#                 Cambridge Crystallographic Data Centre
#                                CCDC 
#
#######################################################################
#
# If this CIF has been generated from an entry in the Cambridge 
# Structural Database, then it will include bibliographic, chemical, 
# crystal, experimental, refinement or atomic coordinate data resulting 
# from the CCDC's data processing and validation procedures.
#
#######################################################################

data_SICJIY
_symmetry_cell_setting           hexagonal
_symmetry_space_group_name_H-M   'P 61'
_symmetry_Int_Tables_number      169
_space_group_name_Hall           'P 61'
loop_
_symmetry_equiv_pos_site_id
_symmetry_equiv_pos_as_xyz
1 x,y,z
2 -y,x-y,1/3+z
3 -x+y,-x,2/3+z
4 -x,-y,1/2+z
5 y,-x+y,5/6+z
6 x-y,x,1/6+z
_cell_length_a                   8.5737(7)
_cell_length_b                   8.5737(7)
_cell_length_c                   21.501(2)
_cell_angle_alpha                90
_cell_angle_beta                 90
_cell_angle_gamma                120
_cell_volume                     1368.76
loop_
_atom_site_label
_atom_site_type_symbol
_atom_site_fract_x
_atom_site_fract_y
_atom_site_fract_z
Na1 Na -0.06509(13) 0.00259(11) -0.41728(3)
N1 N -0.5680(3) 0.0424(3) -0.44397(8)
N2 N -0.5675(3) 0.0601(3) -0.38200(9)
C1 C -0.4323(3) 0.0384(3) -0.36075(9)
N3 N -0.3445(3) 0.0055(3) -0.40523(9)
C2 C -0.4337(3) 0.0078(3) -0.45592(10)
C3 C -0.3851(4) -0.0221(3) -0.51844(11)
C4 C -0.4806(5) -0.0019(4) -0.57326(12)
H1 H -0.4142 0.0061 -0.6113
H2 H -0.4882 0.1078 -0.5686
H3 H -0.6024 -0.1065 -0.5758
O1 O -0.2686(3) -0.0636(2) -0.52434(8)
C5 C -0.3794(4) 0.0586(4) -0.29435(11)
C6 C -0.4898(6) 0.0914(5) -0.24829(13)
H4 H -0.4985 0.1965 -0.2611
H5 H -0.4327 0.1139 -0.2072
H6 H -0.6108 -0.0145 -0.2462
O2 O -0.2460(3) 0.0533(2) -0.27905(9)
O3 O 0.0906(2) -0.05170(19) -0.49826(7)
H7 H 0.064(4) -0.152(4) -0.5085(15)
H8 H 0.192(4) 0.000(5) -0.4873(14)
Na1E Na -0.06768(17) -0.06509(13) -0.25061(3)
Na1D Na 0.00259(11) 0.06768(17) -0.58395(3)
O1E O -0.2050(4) -0.2686(3) -0.35767(8)
O2D O 0.0533(2) 0.2993(4) -0.44572(9)
O3E O 0.14230(28) 0.0906(2) -0.33159(7)
H7E H 0.216(6) 0.064(4) -0.3418(15)
H8E H 0.192(6) 0.192(4) -0.3206(14)
loop_
_geom_bond_atom_site_label_1
_geom_bond_atom_site_label_2
_geom_bond_site_symmetry_1
_geom_bond_site_symmetry_2
Na1 N3 1_555 1_555
N1 N2 1_555 1_555
N2 C1 1_555 1_555
C1 N3 1_555 1_555
N3 C2 1_555 1_555
C2 N1 1_555 1_555
C3 C2 1_555 1_555
C4 C3 1_555 1_555
H1 C4 1_555 1_555
H2 C4 1_555 1_555
H3 C4 1_555 1_555
O1 C3 1_555 1_555
C5 C1 1_555 1_555
C6 C5 1_555 1_555
H4 C6 1_555 1_555
H5 C6 1_555 1_555
H6 C6 1_555 1_555
O2 C5 1_555 1_555
O3 Na1 1_555 1_555
H7 O3 1_555 1_555
H8 O3 1_555 1_555
Na1E O2 1_555 1_555
Na1D O1 1_555 1_555
O1E Na1 1_555 1_555
O2D Na1 1_555 1_555
O3E Na1 1_555 1_555
H7E O3E 1_555 1_555
H8E O3E 1_555 1_555
O3 Na1D 1_555 1_555
Na1E O3E 1_555 1_555

#END
