
#######################################################################
#
#                 Cambridge Crystallographic Data Centre
#                                CCDC 
#
#######################################################################
#
# If this CIF has been generated from an entry in the Cambridge 
# Structural Database, then it will include bibliographic, chemical, 
# crystal, experimental, refinement or atomic coordinate data resulting 
# from the CCDC's data processing and validation procedures.
#
#######################################################################

data_SIDKAT
_symmetry_cell_setting           triclinic
_symmetry_space_group_name_H-M   'P -1'
_symmetry_Int_Tables_number      2
_space_group_name_Hall           '-P 1'
loop_
_symmetry_equiv_pos_site_id
_symmetry_equiv_pos_as_xyz
1 x,y,z
2 -x,-y,-z
_cell_length_a                   10.0900(10)
_cell_length_b                   10.2601(11)
_cell_length_c                   12.6419(13)
_cell_angle_alpha                87.932(2)
_cell_angle_beta                 73.1320(10)
_cell_angle_gamma                64.7300(10)
_cell_volume                     1126.75
loop_
_atom_site_label
_atom_site_type_symbol
_atom_site_fract_x
_atom_site_fract_y
_atom_site_fract_z
Cd1 Cd 0.87827(3) 0.56378(3) 0.363532(19)
O1 O 0.8454(3) 0.4904(2) 0.54245(18)
N1 N 0.8932(3) 0.6637(3) 0.1909(2)
O2 O 0.8636(3) 0.5693(3) 0.69541(19)
C1 C 0.2737(4) 0.5825(4) 0.6758(3)
O3 O 0.3422(3) 0.4535(3) 0.6361(2)
O4 O 0.1299(3) 0.6543(3) 0.7014(2)
C2 C 0.5257(4) 0.5886(4) 0.6511(3)
H1 H 0.5722 0.5059 0.6013
C3 C 0.5338(4) 0.6894(4) 0.0519(3)
C4 C 0.2998(4) 0.7803(4) 0.7677(3)
H2 H 0.1935 0.8255 0.7991
C5 C 0.6160(4) 0.6452(4) 0.6779(3)
C6 C 0.7879(4) 0.5628(3) 0.6340(3)
N2 N 0.1888(3) 1.2090(3) 0.5585(2)
C7 C 0.3678(4) 0.6535(4) 0.6975(3)
C8 C 0.8279(4) 0.6460(4) 0.1187(3)
H3 H 0.7597 0.6044 0.1413
C9 C 0.8559(4) 0.6863(4) 0.0111(3)
N3 N 0.7889(4) 0.6664(3) -0.0620(2)
H4 H 0.8087 0.6949 -0.1271
C10 C 0.1258(4) 1.1971(4) 0.4828(3)
H5 H 0.0511 1.2810 0.4675
N4 N 0.0924(4) 1.0708(3) 0.3485(3)
H6 H 0.0385 1.1533 0.3293
C11 C 0.5456(4) 0.7708(4) 0.7495(3)
H7 H 0.6051 0.8085 0.7692
C12 C 0.1647(4) 1.0673(4) 0.4254(3)
C13 C 0.4616(4) 0.6246(4) 0.1286(3)
H8 H 0.5058 0.5242 0.1273
C14 C 0.3240(4) 0.7068(4) 0.2078(3)
H9 H 0.2772 0.6609 0.2599
C15 C 0.2546(4) 0.8548(4) 0.2115(3)
C16 C 0.6864(4) 0.5994(4) -0.0335(3)
H10 H 0.7364 0.5077 -0.0053
H11 H 0.6673 0.5785 -0.1005
C17 C 0.9561(4) 0.7512(4) -0.0190(3)
H12 H 0.9786 0.7806 -0.0898
C18 C 1.0214(5) 0.7713(4) 0.0568(3)
H13 H 1.0880 0.8148 0.0378
C19 C 0.4654(5) 0.8375(4) 0.0547(3)
H14 H 0.5129 0.8831 0.0029
C20 C 0.3267(5) 0.9197(4) 0.1334(3)
H15 H 0.2815 1.0200 0.1338
C21 C 0.2948(4) 1.0878(4) 0.5811(3)
H16 H 0.3401 1.0939 0.6340
C22 C 0.3883(4) 0.8399(4) 0.7914(3)
H17 H 0.3413 0.9274 0.8359
C23 C 0.1030(4) 0.9422(4) 0.2985(3)
H18 H 0.0212 0.9694 0.2647
H19 H 0.0861 0.8813 0.3564
C24 C 0.3381(5) 0.9563(4) 0.5291(3)
H20 H 0.4116 0.8742 0.5474
C25 C 0.9876(4) 0.7266(4) 0.1603(3)
H21 H 1.0321 0.7408 0.2110
C26 C 0.2755(4) 0.9425(4) 0.4502(3)
H22 H 0.3060 0.8523 0.4141
Cd1A Cd 0.12173(3) 0.43622(3) 0.636468(19)
Cd1A_2 Cd 0.12173(3) 1.43622(3) 0.636468(19)
Cd1A_3 Cd 1.12173(3) 0.43622(3) 0.636468(19)
O2A O 1.1364(3) 0.4307(3) 0.30459(19)
O3A O 0.6578(3) 0.5465(3) 0.3639(2)
O4A O 0.8701(3) 0.3457(3) 0.2986(2)
N2A N 0.8112(3) 0.7910(3) 0.4415(2)
loop_
_geom_bond_atom_site_label_1
_geom_bond_atom_site_label_2
_geom_bond_site_symmetry_1
_geom_bond_site_symmetry_2
Cd1 O1 1_555 1_555
O1 C6 1_555 1_555
N1 Cd1 1_555 1_555
O2 C6 1_555 1_555
C1 O3 1_555 1_555
O3 Cd1A 1_555 1_555
O4 C1 1_555 1_555
C2 H1 1_555 1_555
C3 C13 1_555 1_555
C4 H2 1_555 1_555
C5 C2 1_555 1_555
C6 C5 1_555 1_555
N2 C10 1_555 1_555
C7 C1 1_555 1_555
C8 N1 1_555 1_555
H3 C8 1_555 1_555
C9 C8 1_555 1_555
N3 C9 1_555 1_555
H4 N3 1_555 1_555
C10 H5 1_555 1_555
N4 H6 1_555 1_555
C11 C5 1_555 1_555
H7 C11 1_555 1_555
C12 C10 1_555 1_555
C13 H8 1_555 1_555
C14 C13 1_555 1_555
H9 C14 1_555 1_555
C15 C14 1_555 1_555
C16 C3 1_555 1_555
H10 C16 1_555 1_555
H11 C16 1_555 1_555
C17 C9 1_555 1_555
H12 C17 1_555 1_555
C18 C17 1_555 1_555
H13 C18 1_555 1_555
C19 C3 1_555 1_555
H14 C19 1_555 1_555
C20 C15 1_555 1_555
H15 C20 1_555 1_555
C21 N2 1_555 1_555
H16 C21 1_555 1_555
C22 C4 1_555 1_555
H17 C22 1_555 1_555
C23 N4 1_555 1_555
H18 C23 1_555 1_555
H19 C23 1_555 1_555
C24 C21 1_555 1_555
H20 C24 1_555 1_555
C25 N1 1_555 1_555
H21 C25 1_555 1_555
C26 C12 1_555 1_555
H22 C26 1_555 1_555
Cd1A O4 1_555 1_555
Cd1A_2 N2 1_555 1_555
Cd1A_3 O2 1_555 1_555
O2A Cd1 1_555 1_555
O3A Cd1 1_555 1_555
O4A Cd1 1_555 1_555
N2A Cd1 1_555 1_555
C2 C7 1_555 1_555
C4 C7 1_555 1_555
N3 C16 1_555 1_555
N4 C12 1_555 1_555
C11 C22 1_555 1_555
C15 C23 1_555 1_555
C18 C25 1_555 1_555
C19 C20 1_555 1_555
C24 C26 1_555 1_555

#END
