
#######################################################################
#
#                 Cambridge Crystallographic Data Centre
#                                CCDC 
#
#######################################################################
#
# If this CIF has been generated from an entry in the Cambridge 
# Structural Database, then it will include bibliographic, chemical, 
# crystal, experimental, refinement or atomic coordinate data resulting 
# from the CCDC's data processing and validation procedures.
#
#######################################################################

data_SIDLOI
_symmetry_cell_setting           monoclinic
_symmetry_space_group_name_H-M   'C 2/c'
_symmetry_Int_Tables_number      15
_space_group_name_Hall           '-C 2yn'
loop_
_symmetry_equiv_pos_site_id
_symmetry_equiv_pos_as_xyz
1 x,y,z
2 -x,y,1/2-z
3 1/2+x,1/2+y,z
4 1/2-x,1/2+y,1/2-z
5 -x,-y,-z
6 x,-y,1/2+z
7 1/2-x,1/2-y,-z
8 1/2+x,1/2-y,1/2+z
_cell_length_a                   46.6723(14)
_cell_length_b                   11.4002(3)
_cell_length_c                   20.0539(6)
_cell_angle_alpha                90
_cell_angle_beta                 108.2300(10)
_cell_angle_gamma                90
_cell_volume                     10134.6
loop_
_atom_site_label
_atom_site_type_symbol
_atom_site_fract_x
_atom_site_fract_y
_atom_site_fract_z
C1 C 0.21491(6) 0.4984(2) 0.58057(13)
C2 C 0.34104(6) 0.7346(2) 0.53383(13)
H1 H 0.3370 0.8164 0.5327
C3 C 0.37028(6) 0.6931(2) 0.55377(13)
H2 H 0.3866 0.7471 0.5664
C4 C 0.37630(6) 0.5729(2) 0.55567(13)
C5 C 0.35232(6) 0.4943(2) 0.53695(14)
H3 H 0.3563 0.4124 0.5385
C6 C 0.32275(6) 0.5336(2) 0.51611(13)
H4 H 0.3064 0.4797 0.5026
C7 C 0.40746(6) 0.5265(3) 0.57849(15)
C8 C 0.10293(6) 0.5061(2) 0.37684(13)
C9 C 0.08958(6) 0.5231(2) 0.43527(13)
C10 C 0.06070(6) 0.5696(2) 0.42119(13)
H5 H 0.0489 0.5868 0.3743
C11 C 0.04947(6) 0.5903(2) 0.47610(13)
C12 C 0.06580(6) 0.5614(2) 0.54474(13)
H6 H 0.0572 0.5717 0.5815
C13 C 0.09494(6) 0.5170(2) 0.55894(13)
C14 C 0.10697(6) 0.4992(2) 0.50448(13)
H7 H 0.1270 0.4709 0.5143
C15 C 0.11406(6) 0.4944(2) 0.63377(12)
C16 C 0.01798(6) 0.7362(3) 0.50047(13)
C17 C -0.00986(6) 0.7532(3) 0.50979(14)
H8 H -0.0262 0.7022 0.4881
C18 C -0.01355(6) 0.8459(2) 0.55126(14)
H9 H -0.0327 0.8592 0.5574
C19 C 0.01061(6) 0.9197(2) 0.58391(13)
C20 C 0.03794(6) 0.9038(2) 0.57103(14)
H10 H 0.0542 0.9556 0.5917
C21 C 0.04161(6) 0.8136(2) 0.52859(14)
H11 H 0.0601 0.8045 0.5187
C22 C 0.00826(6) 1.0026(2) 0.63893(14)
C23 C 0.10327(6) 1.2484(2) 0.24603(14)
H12 H 0.0855 1.2908 0.2221
C24 C 0.15284(6) 1.2472(2) 0.31373(13)
H13 H 0.1707 1.2885 0.3386
C25 C 0.16201(6) 0.7789(2) 0.13436(13)
H14 H 0.1446 0.7374 0.1074
C26 C 0.16093(6) 0.9000(2) 0.13504(13)
H15 H 0.1429 0.9396 0.1095
C27 C 0.18622(6) 0.9644(2) 0.17319(13)
C28 C 0.21175(6) 0.8992(2) 0.20912(14)
H16 H 0.2298 0.9379 0.2355
C29 C 0.21067(6) 0.7782(2) 0.20617(14)
H17 H 0.2283 0.7359 0.2315
C30 C 0.18593(6) 1.0940(2) 0.17553(12)
C31 C 0.16312(6) 1.1595(2) 0.12900(13)
H18 H 0.1469 1.1208 0.0955
C32 C 0.16405(6) 1.2804(2) 0.13147(13)
H19 H 0.1484 1.3227 0.0985
C33 C 0.20846(6) 1.1573(2) 0.22420(13)
H20 H 0.2245 1.1170 0.2575
C34 C 0.20763(6) 1.2789(2) 0.22421(13)
H21 H 0.2231 1.3199 0.2585
C35 C -0.02569(6) 0.7986(2) 0.72435(14)
H22 H -0.0440 0.8405 0.7050
C36 C -0.02677(6) 0.6767(2) 0.72477(14)
H23 H -0.0455 0.6369 0.7080
C37 C 0.0000 0.6138(3) 0.7500
C38 C 0.0000 0.4835(3) 0.7500
C39 C -0.01826(6) 0.4206(2) 0.78028(13)
H24 H -0.0313 0.4604 0.8007
C40 C -0.01721(6) 0.2989(2) 0.78032(14)
H25 H -0.0292 0.2570 0.8028
N1 N 0.12825(5) 1.30946(18) 0.28009(10)
N2 N 0.18642(5) 0.71694(18) 0.16988(10)
N3 N 0.18592(5) 1.34145(17) 0.17793(10)
N4 N 0.0000 0.8601(3) 0.7500
N5 N 0.0000 0.2376(3) 0.7500
O1 O 0.18659(4) 0.48509(15) 0.56718(9)
O2 O 0.23242(4) 0.48791(16) 0.64223(9)
O3 O 0.42800(4) 0.61064(18) 0.58849(11)
O4 O 0.08655(4) 0.51206(15) 0.31398(9)
O5 O 0.13108(4) 0.48834(15) 0.39224(9)
O6 O 0.10180(4) 0.50712(14) 0.68102(9)
O7 O 0.14112(4) 0.46497(15) 0.64497(9)
O8 O 0.02075(4) 0.63928(18) 0.46056(9)
O9 O -0.01757(4) 1.03194(16) 0.64263(9)
O10 O 0.03149(4) 1.03273(16) 0.68770(10)
Co1 Co 0.0000 1.05331(4) 0.7500
H26 H 0.4462(4) 0.578(2) 0.6029(14)
C41 C 0.20139(6) 0.5219(2) 0.32211(13)
C42 C 0.22025(5) 0.5437(2) 0.39729(13)
C43 C 0.24777(6) 0.6024(2) 0.41219(13)
H27 H 0.2552 0.6261 0.3753
C44 C 0.26398(5) 0.6257(2) 0.48130(13)
C45 C 0.25437(6) 0.5873(2) 0.53623(13)
H28 H 0.2665 0.5998 0.5835
C46 C 0.22683(6) 0.5301(2) 0.52133(13)
C47 C 0.20949(6) 0.5102(2) 0.45196(13)
H29 H 0.1903 0.4738 0.4418
C48 C 0.31756(6) 0.6532(2) 0.51538(12)
C49 C 0.10364(6) 0.7443(2) 0.25658(14)
H30 H 0.0855 0.7006 0.2397
C50 C 0.10180(6) 0.8658(2) 0.25453(14)
H31 H 0.0828 0.9035 0.2371
C51 C 0.12816(6) 0.9321(2) 0.27824(12)
C52 C 0.15516(6) 0.8703(2) 0.30232(13)
H32 H 0.1738 0.9114 0.3178
C53 C 0.15489(6) 0.7496(2) 0.30366(13)
H33 H 0.1736 0.7098 0.3216
C54 C 0.12794(6) 1.0625(2) 0.27875(12)
C55 C 0.10214(6) 1.1275(2) 0.24406(14)
H34 H 0.0839 1.0886 0.2193
C56 C 0.15369(6) 1.1266(2) 0.31426(13)
H35 H 0.1718 1.0869 0.3388
N6 N 0.12970(5) 0.68503(18) 0.28110(10)
O11 O 0.21358(4) 0.54138(15) 0.27492(8)
O12 O 0.17473(4) 0.48810(14) 0.30974(9)
O13 O 0.28890(4) 0.70080(15) 0.49475(9)
O14 O 0.41387(5) 0.4242(2) 0.58796(15)
Co2 Co 0.186818(7) 0.52810(3) 0.172500(16)
Co3 Co 0.128808(7) 0.49747(3) 0.283776(16)
C35A C 0.02569(6) 0.7986(2) 0.77565(14)
H22A H 0.0440 0.8405 0.7950
C36A C 0.02677(6) 0.6767(2) 0.77523(14)
H23A H 0.0455 0.6369 0.7920
C39A C 0.01826(6) 0.4206(2) 0.71972(13)
H24A H 0.0313 0.4604 0.6993
C40A C 0.01721(6) 0.2989(2) 0.71968(14)
H25A H 0.0292 0.2570 0.6972
C1A C -0.21491(6) 0.4984(2) 0.91943(13)
C2A C -0.34104(6) 0.7346(2) 0.96617(13)
H1A H -0.3370 0.8164 0.9673
C3A C -0.37028(6) 0.6931(2) 0.94623(13)
H2A H -0.3866 0.7471 0.9336
C4A C -0.37630(6) 0.5729(2) 0.94433(13)
C5A C -0.35232(6) 0.4943(2) 0.96305(14)
H3A H -0.3563 0.4124 0.9615
C6A C -0.32275(6) 0.5336(2) 0.98389(13)
H4A H -0.3064 0.4797 0.9974
C7A C -0.40746(6) 0.5265(3) 0.92151(15)
C8A C -0.10293(6) 0.5061(2) 1.12316(13)
C9A C -0.08958(6) 0.5231(2) 1.06473(13)
C10A C -0.06070(6) 0.5696(2) 1.07881(13)
H5A H -0.0489 0.5868 1.1257
C11A C -0.04947(6) 0.5903(2) 1.02390(13)
C12A C -0.06580(6) 0.5614(2) 0.95526(13)
H6A H -0.0572 0.5717 0.9185
C13A C -0.09494(6) 0.5170(2) 0.94106(13)
C14A C -0.10697(6) 0.4992(2) 0.99552(13)
H7A H -0.1270 0.4709 0.9857
C15A C -0.11406(6) 0.4944(2) 0.86623(12)
C16A C -0.01798(6) 0.7362(3) 0.99953(13)
C17A C 0.00986(6) 0.7532(3) 0.99021(14)
H8A H 0.0262 0.7022 1.0119
C18A C 0.01355(6) 0.8459(2) 0.94874(14)
H9A H 0.0327 0.8592 0.9426
C19A C -0.01061(6) 0.9197(2) 0.91609(13)
C20A C -0.03794(6) 0.9038(2) 0.92897(14)
H10A H -0.0542 0.9556 0.9083
C21A C -0.04161(6) 0.8136(2) 0.97141(14)
H11A H -0.0601 0.8045 0.9813
C22A C -0.00826(6) 1.0026(2) 0.86107(14)
C23A C -0.10327(6) 1.2484(2) 1.25397(14)
H12A H -0.0855 1.2908 1.2779
C24A C -0.15284(6) 1.2472(2) 1.18627(13)
H13A H -0.1707 1.2885 1.1614
C25A C -0.16201(6) 0.7789(2) 1.36564(13)
H14A H -0.1446 0.7374 1.3926
C26A C -0.16093(6) 0.9000(2) 1.36496(13)
H15A H -0.1429 0.9396 1.3905
C27A C -0.18622(6) 0.9644(2) 1.32681(13)
C28A C -0.21175(6) 0.8992(2) 1.29088(14)
H16A H -0.2298 0.9379 1.2645
C29A C -0.21067(6) 0.7782(2) 1.29383(14)
H17A H -0.2283 0.7359 1.2685
C30A C -0.18593(6) 1.0940(2) 1.32447(12)
C31A C -0.16312(6) 1.1595(2) 1.37100(13)
H18A H -0.1469 1.1208 1.4045
C32A C -0.16405(6) 1.2804(2) 1.36853(13)
H19A H -0.1484 1.3227 1.4015
C33A C -0.20846(6) 1.1573(2) 1.27580(13)
H20A H -0.2245 1.1170 1.2425
C34A C -0.20763(6) 1.2789(2) 1.27579(13)
H21A H -0.2231 1.3199 1.2415
N1A N -0.12825(5) 1.30946(18) 1.21991(10)
N2A N -0.18642(5) 0.71694(18) 1.33012(10)
N3A N -0.18592(5) 1.34145(17) 1.32207(10)
O1A O -0.18659(4) 0.48509(15) 0.93282(9)
O2A O -0.23242(4) 0.48791(16) 0.85777(9)
O3A O -0.42800(4) 0.61064(18) 0.91151(11)
O4A O -0.08655(4) 0.51206(15) 1.18602(9)
O5A O -0.13108(4) 0.48834(15) 1.10776(9)
O6A O -0.10180(4) 0.50712(14) 0.81898(9)
O7A O -0.14112(4) 0.46497(15) 0.85503(9)
O8A O -0.02075(4) 0.63928(18) 1.03944(9)
O9A O 0.01757(4) 1.03194(16) 0.85737(9)
O10A O -0.03149(4) 1.03273(16) 0.81230(10)
H26A H -0.4462(4) 0.578(2) 0.8971(14)
C41A C -0.20139(6) 0.5219(2) 1.17789(13)
C42A C -0.22025(5) 0.5437(2) 1.10271(13)
C43A C -0.24777(6) 0.6024(2) 1.08781(13)
H27A H -0.2552 0.6261 1.1247
C44A C -0.26398(5) 0.6257(2) 1.01870(13)
C45A C -0.25437(6) 0.5873(2) 0.96377(13)
H28A H -0.2665 0.5998 0.9165
C46A C -0.22683(6) 0.5301(2) 0.97867(13)
C47A C -0.20949(6) 0.5102(2) 1.04804(13)
H29A H -0.1903 0.4738 1.0582
C48A C -0.31756(6) 0.6532(2) 0.98462(12)
C49A C -0.10364(6) 0.7443(2) 1.24342(14)
H30A H -0.0855 0.7006 1.2603
C50A C -0.10180(6) 0.8658(2) 1.24547(14)
H31A H -0.0828 0.9035 1.2629
C51A C -0.12816(6) 0.9321(2) 1.22176(12)
C52A C -0.15516(6) 0.8703(2) 1.19768(13)
H32A H -0.1738 0.9114 1.1822
C53A C -0.15489(6) 0.7496(2) 1.19634(13)
H33A H -0.1736 0.7098 1.1784
C54A C -0.12794(6) 1.0625(2) 1.22125(12)
C55A C -0.10214(6) 1.1275(2) 1.25594(14)
H34A H -0.0839 1.0886 1.2807
C56A C -0.15369(6) 1.1266(2) 1.18574(13)
H35A H -0.1718 1.0869 1.1612
N6A N -0.12970(5) 0.68503(18) 1.21890(10)
O11A O -0.21358(4) 0.54138(15) 1.22508(8)
O12A O -0.17473(4) 0.48810(14) 1.19026(9)
O13A O -0.28890(4) 0.70080(15) 1.00525(9)
O14A O -0.41387(5) 0.4242(2) 0.91204(15)
Co2A Co -0.186818(7) 0.52810(3) 1.327500(16)
Co3A Co -0.128808(7) 0.49747(3) 1.216224(16)
N1_2 N 0.12825(5) 0.30946(18) 0.28009(10)
N1A_2 N -0.12825(5) 0.30946(18) 1.21991(10)
N3_2 N 0.18592(5) 0.34145(17) 0.17793(10)
N3A_2 N -0.18592(5) 0.34145(17) 1.32207(10)
N5_2 N 0.0000 1.2376(3) 0.7500
O1D O -0.18659(4) 0.51491(15) 1.43282(9)
O1E O 0.18659(4) 0.51491(15) 0.06718(9)
O2D O -0.23242(4) 0.51209(16) 1.35777(9)
O2E O 0.23242(4) 0.51209(16) 0.14223(9)
O6D O -0.10180(4) 0.49288(14) 1.31898(9)
O6E O 0.10180(4) 0.49288(14) 0.18102(9)
O7D O -0.14112(4) 0.53503(15) 1.35503(9)
O7E O 0.14112(4) 0.53503(15) 0.14497(9)
Co1_2 Co 0.0000 0.05331(4) 0.7500
Co2_2 Co 0.186818(7) 1.52810(3) 0.172500(16)
Co2A_2 Co -0.186818(7) 1.52810(3) 1.327500(16)
Co2D Co -0.186818(7) 0.47190(3) 0.827500(16)
Co2E Co 0.186818(7) 0.47190(3) 0.672500(16)
Co3_2 Co 0.128808(7) 1.49747(3) 0.283776(16)
Co3A_2 Co -0.128808(7) 1.49747(3) 1.216224(16)
Co3D Co -0.128808(7) 0.50253(3) 0.716224(16)
Co3E Co 0.128808(7) 0.50253(3) 0.783776(16)
O15 O 0.15880(5) 0.30052(18) 0.48050(11)
O16 O 0.25925(6) 0.2628(2) 0.61027(11)
O17 O 0.28629(6) 0.2968(2) 0.50826(14)
loop_
_geom_bond_atom_site_label_1
_geom_bond_atom_site_label_2
_geom_bond_site_symmetry_1
_geom_bond_site_symmetry_2
C1 O1 1_555 1_555
C2 H1 1_555 1_555
C3 C2 1_555 1_555
H2 C3 1_555 1_555
C4 C3 1_555 1_555
C5 C4 1_555 1_555
H3 C5 1_555 1_555
C6 C5 1_555 1_555
H4 C6 1_555 1_555
C7 C4 1_555 1_555
C8 C9 1_555 1_555
C9 C10 1_555 1_555
C10 H5 1_555 1_555
C11 C10 1_555 1_555
C12 C11 1_555 1_555
H6 C12 1_555 1_555
C13 C12 1_555 1_555
C14 C9 1_555 1_555
H7 C14 1_555 1_555
C15 C13 1_555 1_555
C16 C17 1_555 1_555
C17 H8 1_555 1_555
C18 C17 1_555 1_555
H9 C18 1_555 1_555
C19 C18 1_555 1_555
C20 C19 1_555 1_555
H10 C20 1_555 1_555
C21 C16 1_555 1_555
H11 C21 1_555 1_555
C22 C19 1_555 1_555
C23 H12 1_555 1_555
C24 H13 1_555 1_555
C25 H14 1_555 1_555
C26 C25 1_555 1_555
H15 C26 1_555 1_555
C27 C26 1_555 1_555
C28 C27 1_555 1_555
H16 C28 1_555 1_555
C29 C28 1_555 1_555
H17 C29 1_555 1_555
C30 C27 1_555 1_555
C31 C30 1_555 1_555
H18 C31 1_555 1_555
C32 C31 1_555 1_555
H19 C32 1_555 1_555
C33 C30 1_555 1_555
H20 C33 1_555 1_555
C34 C33 1_555 1_555
H21 C34 1_555 1_555
C35 H22 1_555 1_555
C36 C35 1_555 1_555
H23 C36 1_555 1_555
C37 C36 1_555 1_555
C38 C37 1_555 1_555
C39 C38 1_555 1_555
H24 C39 1_555 1_555
C40 C39 1_555 1_555
H25 C40 1_555 1_555
N1 C23 1_555 1_555
N2 C25 1_555 1_555
N3 C32 1_555 1_555
N4 C35 1_555 1_555
N5 C40 1_555 1_555
O1 Co2E 1_555 1_555
O2 C1 1_555 1_555
O3 C7 1_555 1_555
O4 C8 1_555 1_555
O5 C8 1_555 1_555
O6 C15 1_555 1_555
O7 C15 1_555 1_555
O8 C11 1_555 1_555
O9 C22 1_555 1_555
O10 C22 1_555 1_555
Co1 N4 1_555 1_555
H26 O3 1_555 1_555
C41 C42 1_555 1_555
C42 C43 1_555 1_555
C43 H27 1_555 1_555
C44 C43 1_555 1_555
C45 C44 1_555 1_555
H28 C45 1_555 1_555
C46 C1 1_555 1_555
C47 C42 1_555 1_555
H29 C47 1_555 1_555
C48 C2 1_555 1_555
C49 H30 1_555 1_555
C50 C49 1_555 1_555
H31 C50 1_555 1_555
C51 C50 1_555 1_555
C52 C51 1_555 1_555
H32 C52 1_555 1_555
C53 C52 1_555 1_555
H33 C53 1_555 1_555
C54 C51 1_555 1_555
C55 C23 1_555 1_555
H34 C55 1_555 1_555
C56 C24 1_555 1_555
H35 C56 1_555 1_555
N6 C49 1_555 1_555
O11 C41 1_555 1_555
O12 C41 1_555 1_555
O13 C44 1_555 1_555
O14 C7 1_555 1_555
Co2 N2 1_555 1_555
Co3 O4 1_555 1_555
C35A N4 1_555 1_555
H22A C35A 1_555 1_555
C36A C37 1_555 1_555
H23A C36A 1_555 1_555
C39A C38 1_555 1_555
H24A C39A 1_555 1_555
C40A N5 1_555 1_555
H25A C40A 1_555 1_555
C1A O1A 1_555 1_555
C2A H1A 1_555 1_555
C3A C2A 1_555 1_555
H2A C3A 1_555 1_555
C4A C3A 1_555 1_555
C5A C4A 1_555 1_555
H3A C5A 1_555 1_555
C6A C5A 1_555 1_555
H4A C6A 1_555 1_555
C7A C4A 1_555 1_555
C8A C9A 1_555 1_555
C9A C10A 1_555 1_555
C10A H5A 1_555 1_555
C11A C10A 1_555 1_555
C12A C11A 1_555 1_555
H6A C12A 1_555 1_555
C13A C12A 1_555 1_555
C14A C9A 1_555 1_555
H7A C14A 1_555 1_555
C15A C13A 1_555 1_555
C16A C17A 1_555 1_555
C17A H8A 1_555 1_555
C18A C17A 1_555 1_555
H9A C18A 1_555 1_555
C19A C18A 1_555 1_555
C20A C19A 1_555 1_555
H10A C20A 1_555 1_555
C21A C16A 1_555 1_555
H11A C21A 1_555 1_555
C22A C19A 1_555 1_555
C23A H12A 1_555 1_555
C24A H13A 1_555 1_555
C25A H14A 1_555 1_555
C26A C25A 1_555 1_555
H15A C26A 1_555 1_555
C27A C26A 1_555 1_555
C28A C27A 1_555 1_555
H16A C28A 1_555 1_555
C29A C28A 1_555 1_555
H17A C29A 1_555 1_555
C30A C27A 1_555 1_555
C31A C30A 1_555 1_555
H18A C31A 1_555 1_555
C32A C31A 1_555 1_555
H19A C32A 1_555 1_555
C33A C30A 1_555 1_555
H20A C33A 1_555 1_555
C34A C33A 1_555 1_555
H21A C34A 1_555 1_555
N1A C23A 1_555 1_555
N2A C25A 1_555 1_555
N3A C32A 1_555 1_555
O1A Co2D 1_555 1_555
O2A C1A 1_555 1_555
O3A C7A 1_555 1_555
O4A C8A 1_555 1_555
O5A C8A 1_555 1_555
O6A C15A 1_555 1_555
O7A C15A 1_555 1_555
O8A C11A 1_555 1_555
O9A Co1 1_555 1_555
O10A Co1 1_555 1_555
H26A O3A 1_555 1_555
C41A C42A 1_555 1_555
C42A C43A 1_555 1_555
C43A H27A 1_555 1_555
C44A C43A 1_555 1_555
C45A C44A 1_555 1_555
H28A C45A 1_555 1_555
C46A C1A 1_555 1_555
C47A C42A 1_555 1_555
H29A C47A 1_555 1_555
C48A C2A 1_555 1_555
C49A H30A 1_555 1_555
C50A C49A 1_555 1_555
H31A C50A 1_555 1_555
C51A C50A 1_555 1_555
C52A C51A 1_555 1_555
H32A C52A 1_555 1_555
C53A C52A 1_555 1_555
H33A C53A 1_555 1_555
C54A C51A 1_555 1_555
C55A C23A 1_555 1_555
H34A C55A 1_555 1_555
C56A C24A 1_555 1_555
H35A C56A 1_555 1_555
N6A C49A 1_555 1_555
O11A C41A 1_555 1_555
O12A C41A 1_555 1_555
O13A C44A 1_555 1_555
O14A C7A 1_555 1_555
Co2A N2A 1_555 1_555
Co3A O4A 1_555 1_555
N1_2 Co3 1_555 1_555
N1A_2 Co3A 1_555 1_555
N3_2 Co2 1_555 1_555
N3A_2 Co2A 1_555 1_555
N5_2 Co1 1_555 1_555
O1D Co2A 1_555 1_555
O1E Co2 1_555 1_555
O2D Co2A 1_555 1_555
O2E Co2 1_555 1_555
O6D Co3A 1_555 1_555
O6E Co3 1_555 1_555
O7D Co2A 1_555 1_555
O7E Co2 1_555 1_555
Co1_2 N5 1_555 1_555
Co2_2 N3 1_555 1_555
Co2A_2 N3A 1_555 1_555
Co2D O2A 1_555 1_555
Co2E O2 1_555 1_555
Co3_2 N1 1_555 1_555
Co3A_2 N1A 1_555 1_555
Co3D O6A 1_555 1_555
Co3E O6 1_555 1_555
C6 C48 1_555 1_555
C13 C14 1_555 1_555
C16 O8 1_555 1_555
C20 C21 1_555 1_555
C24 N1 1_555 1_555
C29 N2 1_555 1_555
C34 N3 1_555 1_555
O5 Co3 1_555 1_555
O7 Co2E 1_555 1_555
O9 Co1 1_555 1_555
O10 Co1 1_555 1_555
C45 C46 1_555 1_555
C46 C47 1_555 1_555
C48 O13 1_555 1_555
C53 N6 1_555 1_555
C54 C55 1_555 1_555
C54 C56 1_555 1_555
N6 Co3 1_555 1_555
O11 Co2 1_555 1_555
O12 Co3 1_555 1_555
C35A C36A 1_555 1_555
C39A C40A 1_555 1_555
C6A C48A 1_555 1_555
C13A C14A 1_555 1_555
C16A O8A 1_555 1_555
C20A C21A 1_555 1_555
C22A O9A 1_555 1_555
C22A O10A 1_555 1_555
C24A N1A 1_555 1_555
C29A N2A 1_555 1_555
C34A N3A 1_555 1_555
O5A Co3A 1_555 1_555
O7A Co2D 1_555 1_555
C45A C46A 1_555 1_555
C46A C47A 1_555 1_555
C48A O13A 1_555 1_555
C53A N6A 1_555 1_555
C54A C55A 1_555 1_555
C54A C56A 1_555 1_555
N6A Co3A 1_555 1_555
O11A Co2A 1_555 1_555
O12A Co3A 1_555 1_555

#END
