
#######################################################################
#
#                 Cambridge Crystallographic Data Centre
#                                CCDC 
#
#######################################################################
#
# If this CIF has been generated from an entry in the Cambridge 
# Structural Database, then it will include bibliographic, chemical, 
# crystal, experimental, refinement or atomic coordinate data resulting 
# from the CCDC's data processing and validation procedures.
#
#######################################################################

data_SIDMID
_symmetry_cell_setting           triclinic
_symmetry_space_group_name_H-M   'P -1'
_symmetry_Int_Tables_number      2
_space_group_name_Hall           '-P 1'
loop_
_symmetry_equiv_pos_site_id
_symmetry_equiv_pos_as_xyz
1 x,y,z
2 -x,-y,-z
_cell_length_a                   9.5887(8)
_cell_length_b                   12.0516(10)
_cell_length_c                   13.4317(11)
_cell_angle_alpha                73.0720(10)
_cell_angle_beta                 87.0920(10)
_cell_angle_gamma                71.8270(10)
_cell_volume                     1409.46
loop_
_atom_site_label
_atom_site_type_symbol
_atom_site_fract_x
_atom_site_fract_y
_atom_site_fract_z
C1 C 0.3039(4) -0.0730(3) 0.6962(3)
C2 C 0.1511(4) -0.0037(3) 0.6506(3)
C3 C 0.1239(4) 0.1143(3) 0.5851(3)
H1 H 0.2008 0.1500 0.5698
C4 C -0.0172(4) 0.1796(3) 0.5423(3)
C5 C -0.1287(4) 0.1274(3) 0.5623(3)
H2 H -0.2241 0.1721 0.5311
C6 C -0.1013(4) 0.0092(3) 0.6281(3)
C7 C 0.0379(4) -0.0558(3) 0.6750(3)
H3 H 0.0557 -0.1347 0.7230
C8 C -0.2255(4) -0.0452(3) 0.6412(3)
C9 C -0.1290(4) 0.3949(3) 0.5046(3)
C10 C -0.1607(5) 0.3900(4) 0.6068(3)
H4 H -0.1276 0.3147 0.6602
C11 C -0.2403(5) 0.4944(4) 0.6310(3)
H5 H -0.2612 0.4903 0.7017
C12 C -0.2906(4) 0.6047(3) 0.5558(3)
C13 C -0.2586(5) 0.6079(4) 0.4537(3)
H6 H -0.2928 0.6831 0.4002
C14 C -0.1780(5) 0.5042(4) 0.4279(3)
H7 H -0.1564 0.5082 0.3573
C15 C -0.3718(4) 0.7202(3) 0.5835(3)
C16 C 0.6257(5) -0.0192(4) 0.9104(3)
H8 H 0.6793 -0.0908 0.9622
C17 C 0.4937(5) 0.1003(4) 0.7757(4)
H9 H 0.4350 0.1292 0.7130
C18 C 0.5317(5) 0.1721(4) 0.8241(4)
H10 H 0.5049 0.2586 0.8024
C19 C 0.6889(5) 0.1280(4) 0.9859(3)
H11 H 0.7299 0.0553 1.0460
H12 H 0.6151 0.1901 1.0120
C20 C 0.8104(5) 0.1781(4) 0.9386(3)
C21 C 0.9194(5) 0.1107(4) 0.8886(4)
H13 H 0.9145 0.0350 0.8836
C22 C 1.0345(5) 0.1511(4) 0.8460(3)
H14 H 1.1084 0.1030 0.8126
C23 C 1.0427(5) 0.2610(4) 0.8519(3)
H15 H 1.1220 0.2892 0.8225
C24 C 0.9352(4) 0.3297(4) 0.9008(3)
H16 H 0.9403 0.4061 0.9039
C25 C 0.8198(4) 0.2895(3) 0.9456(3)
C26 C 0.7031(5) 0.3641(3) 1.0024(3)
H17 H 0.6052 0.3634 0.9831
H18 H 0.7206 0.3251 1.0784
C27 C 0.6314(4) 0.5809(3) 0.8959(3)
H19 H 0.5704 0.5717 0.8473
C28 C 0.7516(5) 0.6563(4) 0.9729(4)
H20 H 0.7916 0.7121 0.9892
C29 C 0.7809(5) 0.5378(4) 1.0278(4)
H21 H 0.8433 0.4959 1.0887
N1 N 0.5529(3) -0.0200(3) 0.8310(3)
N2 N 0.6162(4) 0.0940(3) 0.9105(3)
N3 N 0.6560(3) 0.6846(3) 0.8902(2)
N4 N 0.7028(4) 0.4901(3) 0.9785(3)
O1 O 0.3284(3) -0.1586(2) 0.7786(2)
O2 O 0.4100(2) -0.0380(2) 0.65089(19)
O3 O -0.2199(3) -0.1386(2) 0.7169(2)
O4 O -0.3293(3) 0.0104(2) 0.5750(2)
O5 O -0.0425(3) 0.2962(2) 0.4734(2)
O6 O -0.4047(3) 0.8180(2) 0.5108(2)
O7 O -0.3989(3) 0.7099(2) 0.6781(2)
Co1 Co 0.5000 0.0000 0.5000
Co2 Co 0.57729(5) -0.16450(4) 0.76028(4)
C1A C -0.3039(4) 0.0730(3) 0.3038(3)
C2A C -0.1511(4) 0.0037(3) 0.3494(3)
C3A C -0.1239(4) -0.1143(3) 0.4149(3)
H1A H -0.2008 -0.1500 0.4302
C4A C 0.0172(4) -0.1796(3) 0.4577(3)
C5A C 0.1287(4) -0.1274(3) 0.4377(3)
H2A H 0.2241 -0.1721 0.4689
C6A C 0.1013(4) -0.0092(3) 0.3719(3)
C7A C -0.0379(4) 0.0558(3) 0.3250(3)
H3A H -0.0557 0.1347 0.2770
C8A C 0.2255(4) 0.0452(3) 0.3588(3)
C9A C 0.1290(4) -0.3949(3) 0.4954(3)
C10A C 0.1607(5) -0.3900(4) 0.3932(3)
H4A H 0.1276 -0.3147 0.3398
C11A C 0.2403(5) -0.4944(4) 0.3690(3)
H5A H 0.2612 -0.4903 0.2983
C12A C 0.2906(4) -0.6047(3) 0.4442(3)
C13A C 0.2586(5) -0.6079(4) 0.5463(3)
H6A H 0.2928 -0.6831 0.5998
C14A C 0.1780(5) -0.5042(4) 0.5721(3)
H7A H 0.1564 -0.5082 0.6427
C15A C 0.3718(4) -0.7202(3) 0.4165(3)
C16A C -0.6257(5) 0.0192(4) 0.0896(3)
H8A H -0.6793 0.0908 0.0378
C17A C -0.4937(5) -0.1003(4) 0.2243(4)
H9A H -0.4350 -0.1292 0.2870
C18A C -0.5317(5) -0.1721(4) 0.1759(4)
H10A H -0.5049 -0.2586 0.1976
C19A C -0.6889(5) -0.1280(4) 0.0141(3)
H11A H -0.7299 -0.0553 -0.0460
H12A H -0.6151 -0.1901 -0.0120
C20A C -0.8104(5) -0.1781(4) 0.0614(3)
C21A C -0.9194(5) -0.1107(4) 0.1114(4)
H13A H -0.9145 -0.0350 0.1164
C22A C -1.0345(5) -0.1511(4) 0.1540(3)
H14A H -1.1084 -0.1030 0.1874
C23A C -1.0427(5) -0.2610(4) 0.1481(3)
H15A H -1.1220 -0.2892 0.1775
C24A C -0.9352(4) -0.3297(4) 0.0992(3)
H16A H -0.9403 -0.4061 0.0961
C25A C -0.8198(4) -0.2895(3) 0.0544(3)
C26A C -0.7031(5) -0.3641(3) -0.0024(3)
H17A H -0.6052 -0.3634 0.0169
H18A H -0.7206 -0.3251 -0.0784
C27A C -0.6314(4) -0.5809(3) 0.1041(3)
H19A H -0.5704 -0.5717 0.1527
C28A C -0.7516(5) -0.6563(4) 0.0271(4)
H20A H -0.7916 -0.7121 0.0108
C29A C -0.7809(5) -0.5378(4) -0.0278(4)
H21A H -0.8433 -0.4959 -0.0887
N1A N -0.5529(3) 0.0200(3) 0.1690(3)
N2A N -0.6162(4) -0.0940(3) 0.0895(3)
N3A N -0.6560(3) -0.6846(3) 0.1098(2)
N4A N -0.7028(4) -0.4901(3) 0.0215(3)
O1A O -0.3284(3) 0.1586(2) 0.2214(2)
O2A O -0.4100(2) 0.0380(2) 0.34911(19)
O3A O 0.2199(3) 0.1386(2) 0.2831(2)
O4A O 0.3293(3) -0.0104(2) 0.4250(2)
O5A O 0.0425(3) -0.2962(2) 0.5266(2)
O6A O 0.4047(3) -0.8180(2) 0.4892(2)
O7A O 0.3989(3) -0.7099(2) 0.3219(2)
Co2A Co -0.57729(5) 0.16450(4) 0.23972(4)
N3_2 N 0.6560(3) -0.3154(3) 0.8902(2)
N3A_2 N -0.6560(3) 0.3154(3) 0.1098(2)
O2A_2 O 0.5900(2) 0.0380(2) 0.34911(19)
O3_2 O 0.7801(3) -0.1386(2) 0.7169(2)
O3A_2 O -0.7801(3) 0.1386(2) 0.2831(2)
O4_2 O 0.6707(3) 0.0104(2) 0.5750(2)
O6_2 O 0.5953(3) -0.1820(2) 0.5108(2)
O6A_2 O 0.4047(3) 0.1820(2) 0.4892(2)
O7_2 O 0.6011(3) -0.2901(2) 0.6781(2)
O7A_2 O -0.6011(3) 0.2901(2) 0.3219(2)
Co1_2 Co -0.5000 0.0000 0.5000
Co1_3 Co -0.5000 1.0000 0.5000
Co1_4 Co 0.5000 -1.0000 0.5000
Co2_2 Co -0.42271(5) -0.16450(4) 0.76028(4)
Co2_3 Co -0.42271(5) 0.83550(4) 0.76028(4)
Co2_4 Co 0.57729(5) 0.83550(4) 0.76028(4)
Co2A_2 Co -0.57729(5) -0.83550(4) 0.23972(4)
Co2A_3 Co 0.42271(5) -0.83550(4) 0.23972(4)
Co2A_4 Co 0.42271(5) 0.16450(4) 0.23972(4)
O8 O 0.0090(4) -0.3642(3) 0.7613(3)
O9 O 0.487(2) 0.452(2) 0.7546(18)
O10? O 0.3428(13) 0.5950(10) 0.7414(7)
loop_
_geom_bond_atom_site_label_1
_geom_bond_atom_site_label_2
_geom_bond_site_symmetry_1
_geom_bond_site_symmetry_2
C1 C2 1_555 1_555
C2 C3 1_555 1_555
C3 H1 1_555 1_555
C4 C3 1_555 1_555
C5 C4 1_555 1_555
H2 C5 1_555 1_555
C6 C5 1_555 1_555
C7 C2 1_555 1_555
H3 C7 1_555 1_555
C8 C6 1_555 1_555
C9 C10 1_555 1_555
C10 H4 1_555 1_555
C11 C10 1_555 1_555
H5 C11 1_555 1_555
C12 C11 1_555 1_555
C13 C12 1_555 1_555
H6 C13 1_555 1_555
C14 C9 1_555 1_555
H7 C14 1_555 1_555
C15 C12 1_555 1_555
C16 H8 1_555 1_555
C17 H9 1_555 1_555
C18 C17 1_555 1_555
H10 C18 1_555 1_555
C19 H11 1_555 1_555
H12 C19 1_555 1_555
C20 C19 1_555 1_555
C21 C20 1_555 1_555
H13 C21 1_555 1_555
C22 C21 1_555 1_555
H14 C22 1_555 1_555
C23 C22 1_555 1_555
H15 C23 1_555 1_555
C24 C23 1_555 1_555
H16 C24 1_555 1_555
C25 C20 1_555 1_555
C26 C25 1_555 1_555
H17 C26 1_555 1_555
H18 C26 1_555 1_555
C27 H19 1_555 1_555
C28 H20 1_555 1_555
C29 C28 1_555 1_555
H21 C29 1_555 1_555
N1 C16 1_555 1_555
N2 C16 1_555 1_555
N3 C27 1_555 1_555
N4 C26 1_555 1_555
O1 C1 1_555 1_555
O2 C1 1_555 1_555
O3 C8 1_555 1_555
O4 C8 1_555 1_555
O5 C4 1_555 1_555
O6 C15 1_555 1_555
O7 C15 1_555 1_555
Co1 O2 1_555 1_555
Co2 N1 1_555 1_555
C1A C2A 1_555 1_555
C2A C3A 1_555 1_555
C3A H1A 1_555 1_555
C4A C3A 1_555 1_555
C5A C4A 1_555 1_555
H2A C5A 1_555 1_555
C6A C5A 1_555 1_555
C7A C2A 1_555 1_555
H3A C7A 1_555 1_555
C8A C6A 1_555 1_555
C9A C10A 1_555 1_555
C10A H4A 1_555 1_555
C11A C10A 1_555 1_555
H5A C11A 1_555 1_555
C12A C11A 1_555 1_555
C13A C12A 1_555 1_555
H6A C13A 1_555 1_555
C14A C9A 1_555 1_555
H7A C14A 1_555 1_555
C15A C12A 1_555 1_555
C16A H8A 1_555 1_555
C17A H9A 1_555 1_555
C18A C17A 1_555 1_555
H10A C18A 1_555 1_555
C19A H11A 1_555 1_555
H12A C19A 1_555 1_555
C20A C19A 1_555 1_555
C21A C20A 1_555 1_555
H13A C21A 1_555 1_555
C22A C21A 1_555 1_555
H14A C22A 1_555 1_555
C23A C22A 1_555 1_555
H15A C23A 1_555 1_555
C24A C23A 1_555 1_555
H16A C24A 1_555 1_555
C25A C20A 1_555 1_555
C26A C25A 1_555 1_555
H17A C26A 1_555 1_555
H18A C26A 1_555 1_555
C27A H19A 1_555 1_555
C28A H20A 1_555 1_555
C29A C28A 1_555 1_555
H21A C29A 1_555 1_555
N1A C16A 1_555 1_555
N2A C16A 1_555 1_555
N3A C27A 1_555 1_555
N4A C26A 1_555 1_555
O1A C1A 1_555 1_555
O2A C1A 1_555 1_555
O3A C8A 1_555 1_555
O4A Co1 1_555 1_555
O5A C4A 1_555 1_555
O6A C15A 1_555 1_555
O7A C15A 1_555 1_555
Co2A N1A 1_555 1_555
N3_2 Co2 1_555 1_555
N3A_2 Co2A 1_555 1_555
O2A_2 Co1 1_555 1_555
O3_2 Co2 1_555 1_555
O3A_2 Co2A 1_555 1_555
O4_2 Co1 1_555 1_555
O6_2 Co1 1_555 1_555
O6A_2 Co1 1_555 1_555
O7_2 Co2 1_555 1_555
O7A_2 Co2A 1_555 1_555
Co1_2 O4 1_555 1_555
Co1_3 O6 1_555 1_555
Co1_4 O6A 1_555 1_555
Co2_2 O3 1_555 1_555
Co2_3 O7 1_555 1_555
Co2_4 N3 1_555 1_555
Co2A_2 N3A 1_555 1_555
Co2A_3 O7A 1_555 1_555
Co2A_4 O3A 1_555 1_555
C6 C7 1_555 1_555
C9 O5 1_555 1_555
C13 C14 1_555 1_555
C17 N1 1_555 1_555
C18 N2 1_555 1_555
C19 N2 1_555 1_555
C24 C25 1_555 1_555
C27 N4 1_555 1_555
C28 N3 1_555 1_555
C29 N4 1_555 1_555
O1 Co2 1_555 1_555
O2 Co2 1_555 1_555
C6A C7A 1_555 1_555
C8A O4A 1_555 1_555
C9A O5A 1_555 1_555
C13A C14A 1_555 1_555
C17A N1A 1_555 1_555
C18A N2A 1_555 1_555
C19A N2A 1_555 1_555
C24A C25A 1_555 1_555
C27A N4A 1_555 1_555
C28A N3A 1_555 1_555
C29A N4A 1_555 1_555
O1A Co2A 1_555 1_555
O2A Co2A 1_555 1_555
O2A Co1_2 1_555 1_555
O2A_2 Co2A_4 1_555 1_555

#END
