
#######################################################################
#
#                 Cambridge Crystallographic Data Centre
#                                CCDC 
#
#######################################################################
#
# If this CIF has been generated from an entry in the Cambridge 
# Structural Database, then it will include bibliographic, chemical, 
# crystal, experimental, refinement or atomic coordinate data resulting 
# from the CCDC's data processing and validation procedures.
#
#######################################################################

data_SIDYEK
_symmetry_cell_setting           triclinic
_symmetry_space_group_name_H-M   'P -1'
_symmetry_Int_Tables_number      2
_space_group_name_Hall           '-P 1'
loop_
_symmetry_equiv_pos_site_id
_symmetry_equiv_pos_as_xyz
1 x,y,z
2 -x,-y,-z
_cell_length_a                   9.7971(10)
_cell_length_b                   13.5557(14)
_cell_length_c                   15.0858(16)
_cell_angle_alpha                65.8320(10)
_cell_angle_beta                 82.1570(10)
_cell_angle_gamma                80.0500(10)
_cell_volume                     1795.57
loop_
_atom_site_label
_atom_site_type_symbol
_atom_site_fract_x
_atom_site_fract_y
_atom_site_fract_z
Pr1 Pr 0.290335(13) 1.038282(10) -0.051105(9)
Pr2 Pr 0.164106(13) 0.552191(10) 1.039854(9)
S1 S 0.13669(7) 1.33130(5) -0.45602(5)
S2 S 0.34813(7) 1.16012(5) -0.49995(4)
S3 S 0.50196(8) 1.09015(6) -0.65488(5)
S4 S 0.28627(9) 0.71240(7) 0.31038(5)
S5 S 0.22647(8) 0.58351(7) 0.52191(5)
S6 S 0.31620(9) 0.47927(7) 0.72300(5)
S7 S -0.15257(7) 0.98500(6) -0.26073(4)
S8 S -0.24392(7) 1.08433(6) -0.46625(5)
S9 S -0.16642(7) 1.20106(6) -0.67911(5)
O1 O 0.1922(2) 1.20057(16) -0.17700(13)
O2 O 0.0508(2) 1.33817(19) -0.27263(16)
O3 O 0.59170(18) 1.13562(14) -0.92848(12)
O4 O 0.6377(2) 0.99663(15) -0.78894(13)
O5 O 0.45205(18) 0.94837(15) 0.09458(12)
O6 O 0.26883(18) 0.86425(15) 0.11599(13)
O7 O 0.2544(2) 0.46075(18) 0.91756(15)
O8 O 0.3919(2) 0.57083(17) 0.92272(14)
O9 O 0.10012(19) 0.96076(17) -0.07064(14)
O10 O -0.10924(18) 0.91179(15) -0.05934(12)
O11 O -0.1282(2) 1.28991(16) -0.87792(13)
O12 O 0.0216(2) 1.40544(15) -0.90596(13)
O13 O 0.3540(2) 1.20601(17) -0.03276(16)
H1 H 0.3098 1.2672 -0.0424
H2 H 0.4178 1.1937 0.0033
O14 O -0.0211(2) 0.69016(18) 1.06325(15)
H3 H -0.0564 0.7391 1.0143
H4 H -0.0595 0.6967 1.1140
O15 O 0.1270(2) 0.52010(16) 1.21582(13)
H5 H 0.1592 0.4638 1.2602
H6 H 0.0774 0.5615 1.2380
O16 O 0.33788(19) 0.40379(16) 1.12218(14)
H7 H 0.4214 0.4145 1.1043
H8 H 0.3349 0.3530 1.1775
O17 O 0.3008(2) 0.67920(18) 1.06087(16)
H9 H 0.3382 0.7197 1.0093
H10 H 0.2450 0.7131 1.0879
N1 N 0.2387(2) 1.33460(18) -0.63124(15)
N2 N 0.3239(2) 1.27719(18) -0.68060(15)
N3 N 0.4566(3) 0.6622(2) 0.45709(17)
N4 N 0.4643(3) 0.6062(2) 0.55809(17)
N5 N -0.0022(2) 1.0974(2) -0.42739(16)
N6 N -0.0048(2) 1.1501(2) -0.52871(16)
C1 C 0.1468(3) 1.2623(2) -0.25881(18)
C2 C 0.2193(3) 1.2408(2) -0.34591(18)
H11 H 0.2158 1.1657 -0.3354
H12 H 0.3161 1.2517 -0.3529
C3 C 0.2399(3) 1.2832(2) -0.53710(18)
C4 C 0.3872(3) 1.1854(2) -0.62177(18)
C5 C 0.5147(3) 1.1652(2) -0.78491(19)
H13 H 0.4223 1.1940 -0.8075
H14 H 0.5660 1.2262 -0.8011
C6 C 0.5875(3) 1.0923(2) -0.83546(18)
C7 C 0.3762(2) 0.8737(2) 0.14673(17)
C8 C 0.4219(3) 0.7972(2) 0.24684(19)
H15 H 0.4375 0.8387 0.2829
H16 H 0.5079 0.7520 0.2407
C9 C 0.3407(3) 0.6557(2) 0.42874(19)
C10 C 0.3538(3) 0.5608(2) 0.59950(19)
C11 C 0.4260(3) 0.5243(3) 0.7829(2)
H17 H 0.5151 0.4786 0.7923
H18 H 0.4420 0.5989 0.7430
C12 C 0.3532(3) 0.5167(2) 0.88144(18)
C13 C -0.0052(3) 0.9584(2) -0.10757(18)
C14 C -0.0067(3) 1.0144(2) -0.21758(19)
H19 H -0.0122 1.0926 -0.2372
H20 H 0.0792 0.9900 -0.2473
C15 C -0.1174(3) 1.0585(2) -0.38604(18)
C16 C -0.1221(3) 1.1489(2) -0.55815(18)
C17 C -0.0248(3) 1.2817(2) -0.74000(18)
H21 H 0.0642 1.2364 -0.7261
H22 H -0.0283 1.3403 -0.7183
C18 C -0.0446(3) 1.3271(2) -0.84752(18)
Pr1A Pr 0.709665(13) 0.961718(10) -0.948895(9)
Pr1A_2 Pr 0.709665(13) 0.961718(10) 0.051105(9)
Pr1A_3 Pr -0.290335(13) 0.961718(10) 0.051105(9)
Pr2A Pr -0.164106(13) 1.447809(10) -1.039854(9)
Pr2_2 Pr 0.164106(13) 1.552191(10) -0.960146(9)
O3A O 0.40830(18) 0.86438(14) -0.07152(12)
O4A O 0.3623(2) 1.00337(15) -0.21106(13)
O5A O 0.54795(18) 1.05163(15) -0.09458(12)
O10A O 0.10924(18) 1.08821(15) 0.05934(12)
O11A O 0.1282(2) 0.71009(16) 0.87792(13)
O12_2 O 0.0216(2) 0.40544(15) 1.09404(13)
O12A O -0.0216(2) 0.59456(15) 0.90596(13)
loop_
_geom_bond_atom_site_label_1
_geom_bond_atom_site_label_2
_geom_bond_site_symmetry_1
_geom_bond_site_symmetry_2
Pr1 O1 1_555 1_555
Pr2 O7 1_555 1_555
S1 C2 1_555 1_555
S2 C3 1_555 1_555
S3 C4 1_555 1_555
S4 C8 1_555 1_555
S5 C9 1_555 1_555
S6 C10 1_555 1_555
S7 C14 1_555 1_555
S8 C15 1_555 1_555
S9 C16 1_555 1_555
O1 C1 1_555 1_555
O2 C1 1_555 1_555
O3 C6 1_555 1_555
O4 C6 1_555 1_555
O5 Pr1 1_555 1_555
O6 Pr1 1_555 1_555
O7 C12 1_555 1_555
O8 Pr2 1_555 1_555
O9 Pr1 1_555 1_555
O10 C13 1_555 1_555
O11 C18 1_555 1_555
O12 C18 1_555 1_555
O13 Pr1 1_555 1_555
H1 O13 1_555 1_555
H2 O13 1_555 1_555
O14 Pr2 1_555 1_555
H3 O14 1_555 1_555
H4 O14 1_555 1_555
O15 Pr2 1_555 1_555
H5 O15 1_555 1_555
H6 O15 1_555 1_555
O16 Pr2 1_555 1_555
H7 O16 1_555 1_555
H8 O16 1_555 1_555
O17 Pr2 1_555 1_555
H9 O17 1_555 1_555
H10 O17 1_555 1_555
N1 N2 1_555 1_555
N2 C4 1_555 1_555
N3 N4 1_555 1_555
N4 C10 1_555 1_555
N5 N6 1_555 1_555
N6 C16 1_555 1_555
C1 C2 1_555 1_555
C2 H11 1_555 1_555
H12 C2 1_555 1_555
C3 S1 1_555 1_555
C4 S2 1_555 1_555
C5 S3 1_555 1_555
H13 C5 1_555 1_555
H14 C5 1_555 1_555
C6 C5 1_555 1_555
C7 O5 1_555 1_555
C8 C7 1_555 1_555
H15 C8 1_555 1_555
H16 C8 1_555 1_555
C9 S4 1_555 1_555
C10 S5 1_555 1_555
C11 S6 1_555 1_555
H17 C11 1_555 1_555
H18 C11 1_555 1_555
C12 O8 1_555 1_555
C13 O9 1_555 1_555
C14 C13 1_555 1_555
H19 C14 1_555 1_555
H20 C14 1_555 1_555
C15 S7 1_555 1_555
C16 S8 1_555 1_555
C17 S9 1_555 1_555
H21 C17 1_555 1_555
H22 C17 1_555 1_555
C18 C17 1_555 1_555
Pr1A O3 1_555 1_555
Pr1A_2 O5 1_555 1_555
Pr1A_3 O10 1_555 1_555
Pr2A O11 1_555 1_555
Pr2_2 O12 1_555 1_555
O3A Pr1 1_555 1_555
O4A Pr1 1_555 1_555
O5A Pr1 1_555 1_555
O10A Pr1 1_555 1_555
O11A Pr2 1_555 1_555
O12_2 Pr2 1_555 1_555
O12A Pr2 1_555 1_555
O4 Pr1A 1_555 1_555
O6 C7 1_555 1_555
O12 Pr2A 1_555 1_555
N1 C3 1_555 1_555
N3 C9 1_555 1_555
N5 C15 1_555 1_555
C11 C12 1_555 1_555
Pr1A_2 O5A 1_555 1_555

#END
