
#######################################################################
#
#                 Cambridge Crystallographic Data Centre
#                                CCDC 
#
#######################################################################
#
# If this CIF has been generated from an entry in the Cambridge 
# Structural Database, then it will include bibliographic, chemical, 
# crystal, experimental, refinement or atomic coordinate data resulting 
# from the CCDC's data processing and validation procedures.
#
#######################################################################

data_SIDYUA
_symmetry_cell_setting           triclinic
_symmetry_space_group_name_H-M   'P -1'
_symmetry_Int_Tables_number      2
_space_group_name_Hall           '-P 1'
loop_
_symmetry_equiv_pos_site_id
_symmetry_equiv_pos_as_xyz
1 x,y,z
2 -x,-y,-z
_cell_length_a                   10.364(2)
_cell_length_b                   12.702(3)
_cell_length_c                   18.248(4)
_cell_angle_alpha                79.88(3)
_cell_angle_beta                 79.67(3)
_cell_angle_gamma                77.86(3)
_cell_volume                     2286.54
loop_
_atom_site_label
_atom_site_type_symbol
_atom_site_fract_x
_atom_site_fract_y
_atom_site_fract_z
Sr1 Sr 0.0000 1.0000 0.0000
Er1 Er 0.34017(4) 0.93982(5) 0.08513(3)
O1 O -0.0404(8) 0.7847(8) 0.0339(6)
O2 O 0.2136(9) 0.6748(9) 0.1473(6)
O3 O 0.3055(8) 0.9514(9) 0.2143(6)
H1 H 0.2503 1.0156 0.2236
H2 H 0.2606 0.8975 0.2402
O4 O 0.1703(8) 0.8382(8) 0.0770(5)
O5 O 0.4185(8) 0.7620(8) 0.1541(6)
H3 H 0.3915 0.7120 0.1341
H4 H 0.3768 0.7559 0.2046
O6 O 0.1268(7) 1.0735(8) -0.1499(5)
O8 O 0.4385(8) 1.0670(9) -0.0926(6)
O9 O 0.2529(7) 1.0099(7) -0.0286(5)
O10 O -0.1374(8) 1.1563(8) 0.0943(5)
O11 O 0.1037(8) 1.1175(9) 0.2166(6)
O12 O 0.1095(8) 1.0443(7) 0.1117(5)
O13 O 0.5397(8) 0.6272(8) -0.0463(6)
O14 O 0.4585(8) 0.8270(8) -0.0010(5)
O15 O 0.6360(8) 0.8826(8) -0.0733(5)
C1 C -0.1221(11) 0.7293(13) 0.0109(9)
H7 H -0.1876 0.7621 -0.0190
C2 C -0.0977(12) 0.6243(12) 0.0357(8)
H8 H -0.1409 0.5716 0.0268
C3 C 0.0104(12) 0.6076(12) 0.0797(9)
H9 H 0.0500 0.5425 0.1056
C4 C 0.0413(11) 0.7083(12) 0.0750(8)
C5 C 0.1493(11) 0.7446(12) 0.1022(8)
C6 C 0.0857(12) 1.1185(13) -0.2163(8)
H10 H 0.0027 1.1168 -0.2284
C7 C 0.1803(14) 1.1665(14) -0.2633(10)
H11 H 0.1748 1.2040 -0.3116
C8 C 0.2927(13) 1.1465(12) -0.2216(8)
H12 H 0.3752 1.1668 -0.2388
C9 C 0.2537(11) 1.0932(12) -0.1537(8)
C10 C 0.3199(11) 1.0538(12) -0.0864(8)
C11 C -0.2505(11) 1.2373(12) 0.0909(8)
H13 H -0.3127 1.2430 0.0588
C12 C -0.2579(13) 1.3072(15) 0.1410(9)
H14 H -0.3238 1.3679 0.1492
C13 C -0.1454(12) 1.2684(14) 0.1775(9)
H15 H -0.1241 1.2993 0.2154
C14 C -0.0727(11) 1.1790(11) 0.1491(8)
C15 C 0.0548(10) 1.1083(11) 0.1602(7)
C16 C 0.5993(14) 0.5440(14) -0.0852(10)
H16 H 0.5762 0.4755 -0.0753
C17 C 0.6960(13) 0.5729(12) -0.1399(9)
H17 H 0.7486 0.5300 -0.1744
C18 C 0.7020(12) 0.6815(12) -0.1347(8)
H18 H 0.7601 0.7239 -0.1646
C19 C 0.6057(11) 0.7111(11) -0.0772(8)
C20 C 0.5619(11) 0.8154(11) -0.0482(7)
Er1A Er -0.34017(4) 1.06018(5) -0.08513(3)
Er1A_2 Er 0.65983(4) 1.06018(5) -0.08513(3)
Er1_2 Er -0.65983(4) 0.93982(5) 0.08513(3)
O1A O 0.0404(8) 1.2153(8) -0.0339(6)
O2A O -0.2136(9) 1.3252(9) -0.1473(6)
O3A O -0.3055(8) 1.0486(9) -0.2143(6)
H1A H -0.2503 0.9844 -0.2236
H2A H -0.2606 1.1025 -0.2402
O4A O -0.1703(8) 1.1618(8) -0.0770(5)
O5A O -0.4185(8) 1.2380(8) -0.1541(6)
H3A H -0.3915 1.2880 -0.1341
H4A H -0.3768 1.2441 -0.2046
O6A O -0.1268(7) 0.9265(8) 0.1499(5)
O8A O -0.4385(8) 0.9330(9) 0.0926(6)
O8A_2 O 0.5615(8) 0.9330(9) 0.0926(6)
O8_2 O -0.5615(8) 1.0670(9) -0.0926(6)
O9A O -0.2529(7) 0.9901(7) 0.0286(5)
O10A O 0.1374(8) 0.8437(8) -0.0943(5)
O11A O -0.1037(8) 0.8825(9) -0.2166(6)
O12A O -0.1095(8) 0.9557(7) -0.1117(5)
O13A O 0.4603(8) 1.3728(8) 0.0463(6)
O14A O 0.5415(8) 1.1730(8) 0.0010(5)
O14A_2 O -0.4585(8) 1.1730(8) 0.0010(5)
O15A O 0.3640(8) 1.1174(8) 0.0733(5)
O15_2 O -0.3640(8) 0.8826(8) -0.0733(5)
C1A C 0.1221(11) 1.2707(13) -0.0109(9)
H7A H 0.1876 1.2379 0.0190
C2A C 0.0977(12) 1.3757(12) -0.0357(8)
H8A H 0.1409 1.4284 -0.0268
C3A C -0.0104(12) 1.3924(12) -0.0797(9)
H9A H -0.0500 1.4575 -0.1056
C4A C -0.0413(11) 1.2917(12) -0.0750(8)
C5A C -0.1493(11) 1.2554(12) -0.1022(8)
C6A C -0.0857(12) 0.8815(13) 0.2163(8)
H10A H -0.0027 0.8832 0.2284
C7A C -0.1803(14) 0.8335(14) 0.2633(10)
H11A H -0.1748 0.7960 0.3116
C8A C -0.2927(13) 0.8535(12) 0.2216(8)
H12A H -0.3752 0.8332 0.2388
C9A C -0.2537(11) 0.9068(12) 0.1537(8)
C10A C -0.3199(11) 0.9462(12) 0.0864(8)
C11A C 0.2505(11) 0.7627(12) -0.0909(8)
H13A H 0.3127 0.7570 -0.0588
C12A C 0.2579(13) 0.6928(15) -0.1410(9)
H14A H 0.3238 0.6321 -0.1492
C13A C 0.1454(12) 0.7316(14) -0.1775(9)
H15A H 0.1241 0.7007 -0.2154
C14A C 0.0727(11) 0.8210(11) -0.1491(8)
C15A C -0.0548(10) 0.8917(11) -0.1602(7)
C16A C 0.4007(14) 1.4560(14) 0.0852(10)
H16A H 0.4238 1.5245 0.0753
C17A C 0.3040(13) 1.4271(12) 0.1399(9)
H17A H 0.2514 1.4700 0.1744
C18A C 0.2980(12) 1.3185(12) 0.1347(8)
H18A H 0.2399 1.2761 0.1646
C19A C 0.3943(11) 1.2889(11) 0.0772(8)
C20A C 0.4381(11) 1.1846(11) 0.0482(7)
Sr2 Sr 0.5000 0.5000 0.5000
Er2 Er 0.16729(5) 0.50950(5) 0.41289(3)
O7 O 0.1427(10) 0.6314(10) 0.3034(6)
H5 H 0.1719 0.7074 0.2890
H6 H 0.1495 0.6230 0.2504
O16 O 0.3646(9) 0.4479(14) 0.6540(6)
O17 O 0.2532(7) 0.4849(8) 0.5272(5)
O18 O 0.0505(8) 0.4893(9) 0.5926(6)
O19 O 0.5174(10) 0.7211(10) 0.4454(8)
O20 O 0.3360(8) 0.6279(9) 0.4047(6)
O21 O 0.2798(9) 0.7750(9) 0.3197(6)
O22 O 0.1845(10) 0.1064(10) 0.4929(7)
O23 O 0.1404(8) 0.3352(8) 0.4708(6)
O24 O -0.0609(8) 0.3351(9) 0.5411(6)
C21 C 0.3933(14) 0.439(2) 0.7241(10)
H19 H 0.4779 0.4363 0.7355
C22 C 0.2842(15) 0.4343(17) 0.7748(10)
H20 H 0.2787 0.4212 0.8270
C23 C 0.1753(14) 0.4543(16) 0.7305(9)
H21 H 0.0846 0.4634 0.7490
C24 C 0.2297(11) 0.4569(13) 0.6590(8)
C25 C 0.1724(11) 0.4796(12) 0.5898(8)
C26 C 0.5863(15) 0.7935(17) 0.4618(11)
H22 H 0.6504 0.7746 0.4939
C27 C 0.5510(14) 0.8928(14) 0.4268(10)
H23 H 0.5827 0.9548 0.4303
C28 C 0.4529(14) 0.8851(14) 0.3822(9)
H24 H 0.4113 0.9408 0.3491
C29 C 0.4331(13) 0.7818(13) 0.3975(9)
C30 C 0.3438(12) 0.7221(13) 0.3735(9)
C31 C 0.1792(16) 0.0015(14) 0.5237(11)
H25 H 0.2380 -0.0589 0.5077
C32 C 0.0762(17) -0.0025(16) 0.5809(12)
H26 H 0.0528 -0.0641 0.6119
C33 C 0.0112(14) 0.1083(13) 0.5834(9)
H27 H -0.0646 0.1334 0.6159
C34 C 0.0802(13) 0.1677(12) 0.5304(9)
C35 C 0.0507(11) 0.2874(12) 0.5125(8)
O27 O 0.5703(17) 0.3747(17) 0.4191(12)
C36 C 0.613(4) 0.121(4) 0.283(3)
H32 H 0.6718 0.0599 0.2676
C37 C 0.495(3) 0.158(3) 0.262(2)
H33 H 0.4574 0.1289 0.2292
O28 O 0.438(2) 0.248(2) 0.2968(14)
C38 C 0.528(2) 0.266(2) 0.3352(15)
C39 C 0.489(2) 0.360(2) 0.3817(14)
C40 C 0.637(3) 0.184(2) 0.3302(18)
H34 H 0.7123 0.1744 0.3539
O29 O 0.3753(17) 0.4190(19) 0.3749(13)
O30 O 0.1665(18) 0.4094(17) 0.3124(11)
H35 H 0.1168 0.3649 0.3018
H36 H 0.2623 0.3534 0.3032
Er2A Er 0.83271(5) 0.49050(5) 0.58711(3)
Er2A_2 Er -0.16729(5) 0.49050(5) 0.58711(3)
Er2_2 Er 1.16729(5) 0.50950(5) 0.41289(3)
O7A O 0.8573(10) 0.3686(10) 0.6966(6)
H5A H 0.8281 0.2926 0.7110
H6A H 0.8505 0.3770 0.7496
O16A O 0.6354(9) 0.5521(14) 0.3460(6)
O17A O 0.7468(7) 0.5151(8) 0.4728(5)
O18A O 0.9495(8) 0.5107(9) 0.4074(6)
O18A_2 O -0.0505(8) 0.5107(9) 0.4074(6)
O18_2 O 1.0505(8) 0.4893(9) 0.5926(6)
O19A O 0.4826(10) 0.2789(10) 0.5546(8)
O20A O 0.6640(8) 0.3721(9) 0.5953(6)
O21A O 0.7202(9) 0.2250(9) 0.6803(6)
O22A O -0.1845(10) 0.8936(10) 0.5071(7)
O23A O -0.1404(8) 0.6648(8) 0.5292(6)
O23A_2 O 0.8596(8) 0.6648(8) 0.5292(6)
O24A O 0.0609(8) 0.6649(9) 0.4589(6)
O24_2 O 0.9391(8) 0.3351(9) 0.5411(6)
C21A C 0.6067(14) 0.561(2) 0.2759(10)
H19A H 0.5221 0.5637 0.2645
C22A C 0.7158(15) 0.5657(17) 0.2252(10)
H20A H 0.7213 0.5788 0.1730
C23A C 0.8247(14) 0.5457(16) 0.2695(9)
H21A H 0.9154 0.5366 0.2510
C24A C 0.7703(11) 0.5431(13) 0.3410(8)
C25A C 0.8276(11) 0.5204(12) 0.4102(8)
C26A C 0.4137(15) 0.2065(17) 0.5382(11)
H22A H 0.3496 0.2254 0.5061
C27A C 0.4490(14) 0.1072(14) 0.5732(10)
H23A H 0.4173 0.0452 0.5697
C28A C 0.5471(14) 0.1149(14) 0.6178(9)
H24A H 0.5887 0.0592 0.6509
C29A C 0.5669(13) 0.2182(13) 0.6025(9)
C30A C 0.6562(12) 0.2779(13) 0.6265(9)
C31A C -0.1792(16) 0.9985(14) 0.4763(11)
H25A H -0.2380 1.0589 0.4923
C32A C -0.0762(17) 1.0025(16) 0.4191(12)
H26A H -0.0528 1.0641 0.3881
C33A C -0.0112(14) 0.8917(13) 0.4166(9)
H27A H 0.0646 0.8666 0.3841
C34A C -0.0802(13) 0.8323(12) 0.4696(9)
C35A C -0.0507(11) 0.7126(12) 0.4875(8)
O27A O 0.4297(17) 0.6253(17) 0.5809(12)
C36A C 0.387(4) 0.879(4) 0.717(3)
H32A H 0.3282 0.9401 0.7324
C37A C 0.505(3) 0.842(3) 0.738(2)
H33A H 0.5426 0.8711 0.7708
O28A O 0.562(2) 0.752(2) 0.7032(14)
C38A C 0.472(2) 0.734(2) 0.6648(15)
C39A C 0.511(2) 0.640(2) 0.6183(14)
C40A C 0.363(3) 0.816(2) 0.6698(18)
H34A H 0.2877 0.8256 0.6461
O29A O 0.6247(17) 0.5810(19) 0.6251(13)
O30A O 0.8335(18) 0.5906(17) 0.6876(11)
H35A H 0.8832 0.6351 0.6982
H36A H 0.7377 0.6466 0.6968
O25 O 0.7944(15) 0.2714(13) 0.4358(8)
H28 H 0.8455 0.2890 0.4693
H29 H 0.7054 0.2790 0.4594
O26 O 0.0153(12) 0.2681(11) 0.3216(7)
H30 H 0.0379 0.2082 0.2990
H31 H -0.0510 0.2578 0.3595
O31? O 0.2461(18) 0.3910(17) 0.3217(12)
C41? C 0.356(2) 0.360(2) 0.3477(16)
O32? O 0.4066(19) 0.2042(18) 0.2763(13)
C42? C 0.451(2) 0.262(3) 0.3198(18)
C43? C 0.506(2) 0.118(3) 0.261(2)
H37? H 0.5027 0.0672 0.2311
C44? C 0.574(3) 0.207(3) 0.333(2)
H38? H 0.6262 0.2270 0.3631
C45? C 0.612(4) 0.117(4) 0.297(3)
H39? H 0.6913 0.0673 0.2963
O33? O 0.3918(18) 0.4004(19) 0.3966(14)
loop_
_geom_bond_atom_site_label_1
_geom_bond_atom_site_label_2
_geom_bond_site_symmetry_1
_geom_bond_site_symmetry_2
Sr1 O1 1_555 1_555
Sr2 O16 1_555 1_555
Er1 O3 1_555 1_555
Er2 O7 1_555 1_555
O1 C1 1_555 1_555
O2 C5 1_555 1_555
O3 H1 1_555 1_555
H2 O3 1_555 1_555
O4 Sr1 1_555 1_555
O5 Er1 1_555 1_555
H3 O5 1_555 1_555
H4 O5 1_555 1_555
O6 Sr1 1_555 1_555
O7 H5 1_555 1_555
H6 O7 1_555 1_555
O8 C10 1_555 1_555
O9 Sr1 1_555 1_555
O10 Sr1 1_555 1_555
O11 C15 1_555 1_555
O12 Sr1 1_555 1_555
O13 C16 1_555 1_555
O14 Er1 1_555 1_555
O15 C20 1_555 1_555
O16 C21 1_555 1_555
O17 Sr2 1_555 1_555
O18 C25 1_555 1_555
O19 Sr2 1_555 1_555
O20 Sr2 1_555 1_555
O21 C30 1_555 1_555
O22 C31 1_555 1_555
O23 Er2 1_555 1_555
O24 C35 1_555 1_555
C1 H7 1_555 1_555
C2 C1 1_555 1_555
H8 C2 1_555 1_555
C3 C2 1_555 1_555
H9 C3 1_555 1_555
C4 O1 1_555 1_555
C5 O4 1_555 1_555
C6 O6 1_555 1_555
H10 C6 1_555 1_555
C7 C6 1_555 1_555
H11 C7 1_555 1_555
C8 C7 1_555 1_555
H12 C8 1_555 1_555
C9 O6 1_555 1_555
C10 O9 1_555 1_555
C11 O10 1_555 1_555
H13 C11 1_555 1_555
C12 C11 1_555 1_555
H14 C12 1_555 1_555
C13 C12 1_555 1_555
H15 C13 1_555 1_555
C14 O10 1_555 1_555
C15 O12 1_555 1_555
C16 H16 1_555 1_555
C17 C16 1_555 1_555
H17 C17 1_555 1_555
C18 C17 1_555 1_555
H18 C18 1_555 1_555
C19 O13 1_555 1_555
C20 O14 1_555 1_555
C21 H19 1_555 1_555
C22 C21 1_555 1_555
H20 C22 1_555 1_555
C23 C22 1_555 1_555
H21 C23 1_555 1_555
C24 O16 1_555 1_555
C25 O17 1_555 1_555
C26 O19 1_555 1_555
H22 C26 1_555 1_555
C27 C26 1_555 1_555
H23 C27 1_555 1_555
C28 C27 1_555 1_555
H24 C28 1_555 1_555
C29 O19 1_555 1_555
C30 O20 1_555 1_555
C31 H25 1_555 1_555
C32 C31 1_555 1_555
H26 C32 1_555 1_555
C33 C32 1_555 1_555
H27 C33 1_555 1_555
C34 O22 1_555 1_555
C35 O23 1_555 1_555
O25 H28 1_555 1_555
H29 O25 1_555 1_555
O26 H30 1_555 1_555
H31 O26 1_555 1_555
O27 Sr2 1_555 1_555
C36 H32 1_555 1_555
C37 C36 1_555 1_555
H33 C37 1_555 1_555
O28 C37 1_555 1_555
C38 O28 1_555 1_555
C39 O27 1_555 1_555
C40 C36 1_555 1_555
H34 C40 1_555 1_555
O29 Er2 1_555 1_555
O30 Er2 1_555 1_555
H35 O30 1_555 1_555
H36 O30 1_555 1_555
Er1A O3A 1_555 1_555
Er1A_2 O8 1_555 1_555
Er1_2 O8A 1_555 1_555
Er2A O7A 1_555 1_555
Er2A_2 O18 1_555 1_555
Er2_2 O18A 1_555 1_555
O1A Sr1 1_555 1_555
O2A C5A 1_555 1_555
O3A H1A 1_555 1_555
H2A O3A 1_555 1_555
O4A Sr1 1_555 1_555
O5A Er1A 1_555 1_555
H3A O5A 1_555 1_555
H4A O5A 1_555 1_555
O6A Sr1 1_555 1_555
O7A H5A 1_555 1_555
H6A O7A 1_555 1_555
O8A C10A 1_555 1_555
O8A_2 Er1 1_555 1_555
O8_2 Er1A 1_555 1_555
O9A Sr1 1_555 1_555
O10A Sr1 1_555 1_555
O11A C15A 1_555 1_555
O12A Sr1 1_555 1_555
O13A C16A 1_555 1_555
O14A Er1A_2 1_555 1_555
O14A_2 Er1A 1_555 1_555
O15A Er1 1_555 1_555
O15_2 Er1A 1_555 1_555
O16A Sr2 1_555 1_555
O17A Sr2 1_555 1_555
O18A C25A 1_555 1_555
O18A_2 Er2 1_555 1_555
O18_2 Er2A 1_555 1_555
O19A Sr2 1_555 1_555
O20A Sr2 1_555 1_555
O21A C30A 1_555 1_555
O22A C31A 1_555 1_555
O23A Er2A_2 1_555 1_555
O23A_2 Er2A 1_555 1_555
O24A Er2 1_555 1_555
O24_2 Er2A 1_555 1_555
C1A O1A 1_555 1_555
H7A C1A 1_555 1_555
C2A C1A 1_555 1_555
H8A C2A 1_555 1_555
C3A C2A 1_555 1_555
H9A C3A 1_555 1_555
C4A O1A 1_555 1_555
C5A O4A 1_555 1_555
C6A O6A 1_555 1_555
H10A C6A 1_555 1_555
C7A C6A 1_555 1_555
H11A C7A 1_555 1_555
C8A C7A 1_555 1_555
H12A C8A 1_555 1_555
C9A O6A 1_555 1_555
C10A O9A 1_555 1_555
C11A O10A 1_555 1_555
H13A C11A 1_555 1_555
C12A C11A 1_555 1_555
H14A C12A 1_555 1_555
C13A C12A 1_555 1_555
H15A C13A 1_555 1_555
C14A O10A 1_555 1_555
C15A O12A 1_555 1_555
C16A H16A 1_555 1_555
C17A C16A 1_555 1_555
H17A C17A 1_555 1_555
C18A C17A 1_555 1_555
H18A C18A 1_555 1_555
C19A O13A 1_555 1_555
C20A O14A 1_555 1_555
C21A O16A 1_555 1_555
H19A C21A 1_555 1_555
C22A C21A 1_555 1_555
H20A C22A 1_555 1_555
C23A C22A 1_555 1_555
H21A C23A 1_555 1_555
C24A O16A 1_555 1_555
C25A O17A 1_555 1_555
C26A O19A 1_555 1_555
H22A C26A 1_555 1_555
C27A C26A 1_555 1_555
H23A C27A 1_555 1_555
C28A C27A 1_555 1_555
H24A C28A 1_555 1_555
C29A O19A 1_555 1_555
C30A O20A 1_555 1_555
C31A H25A 1_555 1_555
C32A C31A 1_555 1_555
H26A C32A 1_555 1_555
C33A C32A 1_555 1_555
H27A C33A 1_555 1_555
C34A O22A 1_555 1_555
C35A O23A 1_555 1_555
O27A Sr2 1_555 1_555
C36A H32A 1_555 1_555
C37A C36A 1_555 1_555
H33A C37A 1_555 1_555
O28A C37A 1_555 1_555
C38A O28A 1_555 1_555
C39A O27A 1_555 1_555
C40A C36A 1_555 1_555
H34A C40A 1_555 1_555
O29A Er2A 1_555 1_555
O30A Er2A 1_555 1_555
H35A O30A 1_555 1_555
H36A O30A 1_555 1_555
Er1 O4 1_555 1_555
Er1 O9 1_555 1_555
Er1 O12 1_555 1_555
Er2 O17 1_555 1_555
Er2 O20 1_555 1_555
O15 Er1A_2 1_555 1_555
O24 Er2A_2 1_555 1_555
C3 C4 1_555 1_555
C4 C5 1_555 1_555
C8 C9 1_555 1_555
C9 C10 1_555 1_555
C13 C14 1_555 1_555
C14 C15 1_555 1_555
C18 C19 1_555 1_555
C19 C20 1_555 1_555
C23 C24 1_555 1_555
C24 C25 1_555 1_555
C28 C29 1_555 1_555
C29 C30 1_555 1_555
C33 C34 1_555 1_555
C34 C35 1_555 1_555
C38 C39 1_555 1_555
C38 C40 1_555 1_555
C39 O29 1_555 1_555
Er1A O4A 1_555 1_555
Er1A O9A 1_555 1_555
Er1A O12A 1_555 1_555
Er2A O17A 1_555 1_555
Er2A O20A 1_555 1_555
O15A C20A 1_555 1_555
O24A C35A 1_555 1_555
C3A C4A 1_555 1_555
C4A C5A 1_555 1_555
C8A C9A 1_555 1_555
C9A C10A 1_555 1_555
C13A C14A 1_555 1_555
C14A C15A 1_555 1_555
C18A C19A 1_555 1_555
C19A C20A 1_555 1_555
C23A C24A 1_555 1_555
C24A C25A 1_555 1_555
C28A C29A 1_555 1_555
C29A C30A 1_555 1_555
C33A C34A 1_555 1_555
C34A C35A 1_555 1_555
C38A C39A 1_555 1_555
C38A C40A 1_555 1_555
C39A O29A 1_555 1_555

#END
