
#######################################################################
#
#                 Cambridge Crystallographic Data Centre
#                                CCDC 
#
#######################################################################
#
# If this CIF has been generated from an entry in the Cambridge 
# Structural Database, then it will include bibliographic, chemical, 
# crystal, experimental, refinement or atomic coordinate data resulting 
# from the CCDC's data processing and validation procedures.
#
#######################################################################

data_SIDYIO
_symmetry_cell_setting           triclinic
_symmetry_space_group_name_H-M   'P -1'
_symmetry_Int_Tables_number      2
_space_group_name_Hall           '-P 1'
loop_
_symmetry_equiv_pos_site_id
_symmetry_equiv_pos_as_xyz
1 x,y,z
2 -x,-y,-z
_cell_length_a                   9.7131(12)
_cell_length_b                   13.4869(16)
_cell_length_c                   14.9758(18)
_cell_angle_alpha                65.9300(10)
_cell_angle_beta                 82.1530(10)
_cell_angle_gamma                80.0890(10)
_cell_volume                     1759.7
loop_
_atom_site_label
_atom_site_type_symbol
_atom_site_fract_x
_atom_site_fract_y
_atom_site_fract_z
Eu1 Eu 0.208975(12) 0.464278(10) 0.549721(9)
Eu2 Eu 0.336943(12) 0.947661(10) -0.539504(9)
S1 S 0.36445(7) 0.16933(6) 0.95327(5)
S2 S 0.15157(7) 0.33962(5) 0.99978(5)
S3 S -0.00235(8) 0.40892(6) 1.15630(5)
S4 S 0.21392(9) 0.78672(7) 0.18997(5)
S5 S 0.27432(8) 0.91638(7) -0.02282(6)
S6 S 0.18276(9) 1.02268(7) -0.22471(5)
S7 S 0.34741(7) 0.48365(6) 0.24102(5)
S8 S 0.25509(7) 0.58432(6) 0.03412(5)
S9 S 0.33333(8) 0.70245(6) -0.17994(5)
O1 O 0.3062(2) 0.30505(16) 0.67275(14)
O2 O 0.4497(2) 0.16648(19) 0.76695(16)
O3 O -0.09372(19) 0.36395(15) 1.43140(13)
O4 O -0.1384(2) 0.50314(15) 1.29084(14)
O5 O 0.04678(18) 0.54977(15) 0.40700(13)
O6 O 0.23157(19) 0.63385(15) 0.38506(13)
O7 O 0.2495(2) 1.03627(18) -0.41940(15)
O8 O 0.10819(19) 0.92825(16) -0.42540(14)
O9 O 0.38918(18) 0.41296(15) 0.44398(13)
O10 O 0.60241(19) 0.45946(17) 0.43234(14)
O11 O 0.3705(2) 0.79445(16) -0.38004(14)
O12 O 0.5231(2) 0.90881(15) -0.40754(14)
O13 O 0.1472(2) 0.30065(17) 0.53058(17)
H1 H 0.1773 0.2346 0.5587
H2 H 0.0810 0.3071 0.4972
O14 O 0.5261(3) 0.81623(19) -0.56295(16)
H3 H 0.5562 0.7634 -0.5136
H4 H 0.5570 0.8063 -0.6138
O15 O 0.3734(2) 0.97962(16) -0.71305(14)
H5 H 0.4281 0.9369 -0.7320
H6 H 0.3460 1.0357 -0.7603
O16 O 0.16588(19) 1.09306(15) -0.62028(14)
H7 H 0.1665 1.1379 -0.6790
H8 H 0.0841 1.0788 -0.6007
O17 O 0.2082(3) 0.82113(18) -0.56095(16)
H9 H 0.2589 0.7874 -0.5911
H10 H 0.1626 0.7802 -0.5134
N1 N 0.2628(2) 0.16370(18) 1.13084(16)
N2 N 0.1767(2) 0.22101(18) 1.18142(16)
N3 N 0.0411(3) 0.8385(2) 0.04224(18)
N4 N 0.0337(3) 0.8954(2) -0.05929(18)
N5 N 0.4995(2) 0.5962(2) 0.07351(17)
N6 N 0.4965(2) 0.6501(2) -0.02855(17)
C1 C 0.3528(3) 0.2421(2) 0.75478(19)
C2 C 0.2804(3) 0.2623(2) 0.84328(19)
H11 H 0.1826 0.2516 0.8503
H12 H 0.2843 0.3373 0.8339
C3 C 0.2612(3) 0.2158(2) 1.03655(19)
C4 C 0.1128(3) 0.3132(2) 1.12247(19)
C5 C -0.0157(3) 0.3335(2) 1.2872(2)
H13 H -0.0681 0.2726 1.3033
H14 H 0.0772 0.3042 1.3101
C6 C -0.0886(3) 0.4071(2) 1.33778(19)
C7 C 0.1229(3) 0.6247(2) 0.35406(18)
C8 C 0.0764(3) 0.7019(2) 0.2540(2)
H15 H -0.0100 0.7475 0.2607
H16 H 0.0597 0.6606 0.2174
C9 C 0.1587(3) 0.8443(2) 0.0709(2)
C10 C 0.1454(3) 0.9405(2) -0.1008(2)
C11 C 0.0726(3) 0.9779(3) -0.2861(2)
H17 H 0.0538 0.9037 -0.2453
H18 H -0.0161 1.0252 -0.2974
C12 C 0.1476(3) 0.9821(2) -0.38338(19)
C13 C 0.4955(3) 0.4582(2) 0.39522(19)
C14 C 0.4944(3) 0.5137(2) 0.2845(2)
H19 H 0.5812 0.4889 0.2548
H20 H 0.4889 0.5922 0.2644
C15 C 0.3828(3) 0.5575(2) 0.11491(18)
C16 C 0.3777(3) 0.6490(2) -0.05840(19)
C17 C 0.4761(3) 0.7830(2) -0.24079(19)
H21 H 0.4734 0.8412 -0.2180
H22 H 0.5657 0.7372 -0.2273
C18 C 0.4563(3) 0.8302(2) -0.34880(19)
Eu1A Eu -0.208975(12) 0.535722(10) 1.450279(9)
Eu1A_2 Eu -0.208975(12) 0.535722(10) 0.450279(9)
Eu1A_3 Eu 0.791025(12) 0.535722(10) 0.450279(9)
Eu2A Eu 0.663057(12) 1.052339(10) -0.460496(9)
O3A O 0.09372(19) 0.63605(15) 0.56860(13)
O4A O 0.1384(2) 0.49686(15) 0.70916(14)
O5A O -0.04678(18) 0.45023(15) 0.59300(13)
O10A O 0.39759(19) 0.54054(17) 0.56766(14)
O12A O 0.4769(2) 1.09119(15) -0.59246(14)
loop_
_geom_bond_atom_site_label_1
_geom_bond_atom_site_label_2
_geom_bond_site_symmetry_1
_geom_bond_site_symmetry_2
Eu1 O1 1_555 1_555
Eu2 O7 1_555 1_555
S1 C2 1_555 1_555
S2 C3 1_555 1_555
S3 C4 1_555 1_555
S4 C8 1_555 1_555
S5 C9 1_555 1_555
S6 C10 1_555 1_555
S7 C14 1_555 1_555
S8 C15 1_555 1_555
S9 C16 1_555 1_555
O1 C1 1_555 1_555
O2 C1 1_555 1_555
O3 C6 1_555 1_555
O4 C6 1_555 1_555
O5 Eu1 1_555 1_555
O6 Eu1 1_555 1_555
O7 C12 1_555 1_555
O8 Eu2 1_555 1_555
O9 Eu1 1_555 1_555
O10 C13 1_555 1_555
O11 Eu2 1_555 1_555
O12 Eu2 1_555 1_555
O13 Eu1 1_555 1_555
H1 O13 1_555 1_555
H2 O13 1_555 1_555
O14 Eu2 1_555 1_555
H3 O14 1_555 1_555
H4 O14 1_555 1_555
O15 Eu2 1_555 1_555
H5 O15 1_555 1_555
H6 O15 1_555 1_555
O16 Eu2 1_555 1_555
H7 O16 1_555 1_555
H8 O16 1_555 1_555
O17 Eu2 1_555 1_555
H9 O17 1_555 1_555
H10 O17 1_555 1_555
N1 N2 1_555 1_555
N2 C4 1_555 1_555
N3 N4 1_555 1_555
N4 C10 1_555 1_555
N5 N6 1_555 1_555
N6 C16 1_555 1_555
C1 C2 1_555 1_555
C2 H11 1_555 1_555
H12 C2 1_555 1_555
C3 S1 1_555 1_555
C4 S2 1_555 1_555
C5 S3 1_555 1_555
H13 C5 1_555 1_555
H14 C5 1_555 1_555
C6 C5 1_555 1_555
C7 O5 1_555 1_555
C8 C7 1_555 1_555
H15 C8 1_555 1_555
H16 C8 1_555 1_555
C9 S4 1_555 1_555
C10 S5 1_555 1_555
C11 S6 1_555 1_555
H17 C11 1_555 1_555
H18 C11 1_555 1_555
C12 O8 1_555 1_555
C13 O9 1_555 1_555
C14 C13 1_555 1_555
H19 C14 1_555 1_555
H20 C14 1_555 1_555
C15 S7 1_555 1_555
C16 S8 1_555 1_555
C17 S9 1_555 1_555
H21 C17 1_555 1_555
H22 C17 1_555 1_555
C18 O11 1_555 1_555
Eu1A O3 1_555 1_555
Eu1A_2 O5 1_555 1_555
Eu1A_3 O10 1_555 1_555
Eu2A O12 1_555 1_555
O3A Eu1 1_555 1_555
O4A Eu1 1_555 1_555
O5A Eu1 1_555 1_555
O10A Eu1 1_555 1_555
O12A Eu2 1_555 1_555
O4 Eu1A 1_555 1_555
O6 C7 1_555 1_555
O12 C18 1_555 1_555
N1 C3 1_555 1_555
N3 C9 1_555 1_555
N5 C15 1_555 1_555
C11 C12 1_555 1_555
C17 C18 1_555 1_555
Eu1A_2 O5A 1_555 1_555
Eu2A O12A 1_555 1_555

#END
