
#######################################################################
#
#                 Cambridge Crystallographic Data Centre
#                                CCDC 
#
#######################################################################
#
# If this CIF has been generated from an entry in the Cambridge 
# Structural Database, then it will include bibliographic, chemical, 
# crystal, experimental, refinement or atomic coordinate data resulting 
# from the CCDC's data processing and validation procedures.
#
#######################################################################

data_SIJHEA
_symmetry_cell_setting           monoclinic
_symmetry_space_group_name_H-M   'P 21/c'
_symmetry_Int_Tables_number      14
_space_group_name_Hall           '-P 2ybc'
loop_
_symmetry_equiv_pos_site_id
_symmetry_equiv_pos_as_xyz
1 x,y,z
2 -x,1/2+y,1/2-z
3 -x,-y,-z
4 x,1/2-y,1/2+z
_cell_length_a                   15.5371(6)
_cell_length_b                   15.4888(6)
_cell_length_c                   9.0606(4)
_cell_angle_alpha                90
_cell_angle_beta                 92.8770(10)
_cell_angle_gamma                90
_cell_volume                     2177.69
loop_
_atom_site_label
_atom_site_type_symbol
_atom_site_fract_x
_atom_site_fract_y
_atom_site_fract_z
Cd1 Cd 0.284619(9) 0.205542(8) 0.431667(14)
O1 O 0.16066(11) 0.26186(11) 0.3364(2)
O2 O 0.65439(10) -0.16248(9) 1.04026(15)
N1 N 0.41476(11) 0.14769(10) 0.54511(18)
C1 C 0.65306(12) -0.14406(12) 0.9049(2)
O3 O 0.20692(10) 0.05580(10) 0.41105(16)
C2 C 0.54564(13) 0.04366(12) 0.6830(2)
O4 O 0.20478(9) 0.14101(9) 0.60430(16)
O5 O 0.69309(9) -0.18655(9) 0.81367(15)
C3 C 0.56511(12) 0.09927(12) 0.5634(2)
C4 C 0.49760(13) 0.15053(12) 0.4976(2)
C5 C 0.06757(14) -0.05293(13) 0.8366(2)
C6 C 0.18254(13) 0.07285(13) 0.5358(2)
C7 C 0.59673(14) -0.07066(14) 0.8569(2)
H1 H 0.5493 -0.0593 0.9124
C8 C 0.60825(13) -0.02045(12) 0.7428(2)
H2 H 0.6599 -0.0257 0.6962
C9 C 0.51502(16) 0.20475(14) 0.3778(3)
H3 H 0.4713 0.2388 0.3348
C10 C 0.59512(17) 0.20759(18) 0.3248(3)
H4 H 0.6057 0.2435 0.2455
N2 N -0.04247(13) -0.15863(13) 0.9950(2)
C11 C 0.12219(14) 0.00649(14) 0.7550(2)
H5 H 0.1566 0.0448 0.8107
C12 C -0.01709(14) -0.06402(15) 0.7938(2)
H6 H -0.0400 -0.0361 0.7098
C13 C 0.46382(14) 0.04760(14) 0.7314(2)
H7 H 0.4497 0.0151 0.8131
C14 C 0.04253(15) -0.14967(14) 1.0410(2)
C15 C 0.10042(14) -0.09741(13) 0.9647(2)
C16 C 0.64770(14) 0.10477(14) 0.5047(3)
H8 H 0.6928 0.0720 0.5465
C17 C 0.40115(14) 0.09951(13) 0.6606(2)
H9 H 0.3464 0.1000 0.6975
C18 C 0.0727(2) -0.19360(18) 1.1707(3)
H10 H 0.0351 -0.2281 1.2214
C19 C -0.06984(15) -0.11743(15) 0.8761(3)
H11 H -0.1273 -0.1237 0.8442
C20 C 0.66200(16) 0.15722(18) 0.3881(3)
H12 H 0.7165 0.1596 0.3502
C21 C 0.12649(14) 0.01005(14) 0.6112(2)
H13 H 0.0932 -0.0282 0.5535
C22 C 0.18682(16) -0.09198(17) 1.0205(3)
H14 H 0.2260 -0.0584 0.9716
C23 C 0.21329(19) -0.1355(2) 1.1456(4)
H15 H 0.2704 -0.1316 1.1808
C24 C 0.1553(2) -0.1859(2) 1.2211(4)
H16 H 0.1739 -0.2145 1.3072
H17 H 0.134(2) 0.2831(19) 0.386(4)
H18 H 0.1639(17) 0.3000(17) 0.257(3)
Cd1A Cd 0.715381(9) -0.294458(8) 1.068333(14)
Cd1B Cd 0.715381(9) -0.205542(8) 0.568333(14)
O2A O 0.34561(10) 0.33752(9) 0.45974(15)
O5B O 0.30691(9) 0.18655(9) 0.18633(15)
loop_
_geom_bond_atom_site_label_1
_geom_bond_atom_site_label_2
_geom_bond_site_symmetry_1
_geom_bond_site_symmetry_2
Cd1 O1 1_555 1_555
O1 H17 1_555 1_555
O2 C1 1_555 1_555
N1 Cd1 1_555 1_555
C1 O5 1_555 1_555
O3 Cd1 1_555 1_555
C2 C3 1_555 1_555
O4 Cd1 1_555 1_555
O5 Cd1B 1_555 1_555
C3 C4 1_555 1_555
C4 N1 1_555 1_555
C5 C11 1_555 1_555
C6 O3 1_555 1_555
C7 C1 1_555 1_555
H1 C7 1_555 1_555
C8 C2 1_555 1_555
H2 C8 1_555 1_555
C9 C4 1_555 1_555
H3 C9 1_555 1_555
C10 C9 1_555 1_555
H4 C10 1_555 1_555
N2 C14 1_555 1_555
C11 H5 1_555 1_555
C12 C5 1_555 1_555
H6 C12 1_555 1_555
C13 C2 1_555 1_555
H7 C13 1_555 1_555
C14 C15 1_555 1_555
C15 C5 1_555 1_555
C16 C3 1_555 1_555
H8 C16 1_555 1_555
C17 N1 1_555 1_555
H9 C17 1_555 1_555
C18 C14 1_555 1_555
H10 C18 1_555 1_555
C19 N2 1_555 1_555
H11 C19 1_555 1_555
C20 C10 1_555 1_555
H12 C20 1_555 1_555
C21 C6 1_555 1_555
H13 C21 1_555 1_555
C22 C15 1_555 1_555
H14 C22 1_555 1_555
C23 C22 1_555 1_555
H15 C23 1_555 1_555
C24 C18 1_555 1_555
H16 C24 1_555 1_555
H18 O1 1_555 1_555
Cd1A O2 1_555 1_555
O2A Cd1 1_555 1_555
O5B Cd1 1_555 1_555
O4 C6 1_555 1_555
C7 C8 1_555 1_555
C11 C21 1_555 1_555
C12 C19 1_555 1_555
C13 C17 1_555 1_555
C16 C20 1_555 1_555
C23 C24 1_555 1_555

#END
