
#######################################################################
#
#                 Cambridge Crystallographic Data Centre
#                                CCDC 
#
#######################################################################
#
# If this CIF has been generated from an entry in the Cambridge 
# Structural Database, then it will include bibliographic, chemical, 
# crystal, experimental, refinement or atomic coordinate data resulting 
# from the CCDC's data processing and validation procedures.
#
#######################################################################

data_SIJMOO
_symmetry_cell_setting           orthorhombic
_symmetry_space_group_name_H-M   'P 21 21 2'
_symmetry_Int_Tables_number      18
_space_group_name_Hall           'P 2 2ab'
loop_
_symmetry_equiv_pos_site_id
_symmetry_equiv_pos_as_xyz
1 x,y,z
2 -x,-y,z
3 1/2+x,1/2-y,-z
4 1/2-x,1/2+y,-z
_cell_length_a                   13.7290(2)
_cell_length_b                   17.3654(2)
_cell_length_c                   8.5825(4)
_cell_angle_alpha                90
_cell_angle_beta                 90
_cell_angle_gamma                90
_cell_volume                     2046.15
loop_
_atom_site_label
_atom_site_type_symbol
_atom_site_fract_x
_atom_site_fract_y
_atom_site_fract_z
B1 B -0.6899(3) 0.9065(2) 0.8400(4)
F1 F -0.70959(19) 0.96737(12) 0.7402(3)
F2 F -0.60533(16) 0.92484(13) 0.9245(3)
F3 F -0.6733(2) 0.84004(12) 0.7563(3)
F4 F -0.76639(19) 0.89668(15) 0.9407(3)
C21 C -0.0314(5) 0.9655(5) 0.7800(6)
O2 O -0.0736(5) 0.9767(5) 0.9239(9)
C21A C 0.0314(5) 1.0345(5) 0.7800(6)
O2A O 0.0736(5) 1.0233(5) 0.9239(9)
Ag1 Ag 0.155454(15) 0.702722(13) 0.06934(3)
N1 N 0.00672(17) 0.74294(14) 0.0101(3)
N2 N -0.18710(16) 0.78411(13) -0.0478(3)
C1 C -0.0402(2) 0.71478(16) -0.1195(3)
C2 C 0.0081(2) 0.66482(18) -0.2229(4)
H1 H 0.0734 0.6498 -0.2032
C3 C -0.0396(2) 0.63784(17) -0.3523(4)
H2 H -0.0071 0.6038 -0.4216
C4 C -0.1367(2) 0.66023(17) -0.3836(3)
H3 H -0.1688 0.6416 -0.4741
C5 C -0.1845(2) 0.70865(18) -0.2835(3)
H4 H -0.2499 0.7231 -0.3045
C6 C -0.13763(19) 0.73693(16) -0.1507(3)
C7 C -0.14060(19) 0.81019(14) 0.0766(3)
C8 C -0.1969(2) 0.86012(16) 0.1852(4)
C9 C -0.2433(2) 0.92536(17) 0.1278(4)
H5 H -0.2390 0.9376 0.0202
C10 C -0.2966(2) 0.97320(17) 0.2280(4)
H6 H -0.3271 1.0184 0.1893
C11 C -0.3041(2) 0.95368(18) 0.3848(4)
H7 H -0.3408 0.9854 0.4534
C12 C -0.2584(2) 0.88829(17) 0.4416(4)
H8 H -0.2643 0.8752 0.5486
C13 C -0.2038(2) 0.84161(17) 0.3428(4)
H9 H -0.1714 0.7974 0.3826
C14 C -0.0408(2) 0.78926(16) 0.1061(3)
C15 C 0.0139(2) 0.81974(16) 0.2422(3)
C16 C 0.0429(2) 0.77121(17) 0.3624(4)
H10 H 0.0280 0.7178 0.3577
C17 C 0.0937(2) 0.8006(2) 0.4894(4)
H11 H 0.1122 0.7677 0.5727
C18 C 0.1175(2) 0.8793(2) 0.4938(4)
H12 H 0.1530 0.8996 0.5795
C19 C 0.0892(2) 0.92700(19) 0.3734(4)
H13 H 0.1060 0.9800 0.3765
C20 C 0.0367(2) 0.89881(18) 0.2482(4)
H14 H 0.0162 0.9324 0.1672
O1 O 0.08224(19) 0.59452(13) 0.2139(3)
H15 H 0.0187 0.5797 0.1611
H16 H 0.1167 0.5522 0.2090
Ag1B Ag 0.655454(15) 0.797278(13) -0.06934(3)
Ag1B_2 Ag -0.344546(15) 0.797278(13) -0.06934(3)
N1B N 0.50672(17) 0.75706(14) -0.0101(3)
N2B N 0.31290(16) 0.71589(13) 0.0478(3)
N2_2 N 0.81290(16) 0.78411(13) -0.0478(3)
C1B C 0.4598(2) 0.78522(16) 0.1195(3)
C2B C 0.5081(2) 0.83518(18) 0.2229(4)
H1B H 0.5734 0.8502 0.2032
C3B C 0.4604(2) 0.86216(17) 0.3523(4)
H2B H 0.4929 0.8962 0.4216
C4B C 0.3633(2) 0.83977(17) 0.3836(3)
H3B H 0.3312 0.8584 0.4741
C5B C 0.3155(2) 0.79135(18) 0.2835(3)
H4B H 0.2501 0.7769 0.3045
C6B C 0.36237(19) 0.76307(16) 0.1507(3)
C7B C 0.35940(19) 0.68981(14) -0.0766(3)
C8B C 0.3031(2) 0.63988(16) -0.1852(4)
C9B C 0.2567(2) 0.57464(17) -0.1278(4)
H5B H 0.2610 0.5624 -0.0202
C10B C 0.2034(2) 0.52680(17) -0.2280(4)
H6B H 0.1729 0.4816 -0.1893
C11B C 0.1959(2) 0.54632(18) -0.3848(4)
H7B H 0.1592 0.5146 -0.4534
C12B C 0.2416(2) 0.61171(17) -0.4416(4)
H8B H 0.2357 0.6248 -0.5486
C13B C 0.2962(2) 0.65839(17) -0.3428(4)
H9B H 0.3286 0.7026 -0.3826
C14B C 0.4592(2) 0.71074(16) -0.1061(3)
C15B C 0.5139(2) 0.68026(16) -0.2422(3)
C16B C 0.5429(2) 0.72879(17) -0.3624(4)
H10B H 0.5280 0.7822 -0.3577
C17B C 0.5937(2) 0.6994(2) -0.4894(4)
H11B H 0.6122 0.7323 -0.5727
C18B C 0.6175(2) 0.6207(2) -0.4938(4)
H12B H 0.6530 0.6004 -0.5795
C19B C 0.5892(2) 0.57300(19) -0.3734(4)
H13B H 0.6060 0.5200 -0.3765
C20B C 0.5367(2) 0.60119(18) -0.2482(4)
H14B H 0.5162 0.5676 -0.1672
O1B O 0.58224(19) 0.90548(13) -0.2139(3)
H15B H 0.5187 0.9203 -0.1611
H16B H 0.6167 0.9478 -0.2090
loop_
_geom_bond_atom_site_label_1
_geom_bond_atom_site_label_2
_geom_bond_site_symmetry_1
_geom_bond_site_symmetry_2
Ag1 N1 1_555 1_555
N1 C1 1_555 1_555
N2 C6 1_555 1_555
C1 C2 1_555 1_555
C2 H1 1_555 1_555
C3 C2 1_555 1_555
H2 C3 1_555 1_555
C4 C3 1_555 1_555
H3 C4 1_555 1_555
C5 C4 1_555 1_555
H4 C5 1_555 1_555
C6 C1 1_555 1_555
C7 N2 1_555 1_555
C8 C7 1_555 1_555
C9 C8 1_555 1_555
H5 C9 1_555 1_555
C10 C9 1_555 1_555
H6 C10 1_555 1_555
C11 C10 1_555 1_555
H7 C11 1_555 1_555
C12 C11 1_555 1_555
H8 C12 1_555 1_555
C13 C8 1_555 1_555
H9 C13 1_555 1_555
C14 N1 1_555 1_555
C15 C14 1_555 1_555
C16 C15 1_555 1_555
H10 C16 1_555 1_555
C17 C16 1_555 1_555
H11 C17 1_555 1_555
C18 C17 1_555 1_555
H12 C18 1_555 1_555
C19 C18 1_555 1_555
H13 C19 1_555 1_555
C20 C15 1_555 1_555
H14 C20 1_555 1_555
B1 F1 1_555 1_555
F2 B1 1_555 1_555
F3 B1 1_555 1_555
F4 B1 1_555 1_555
O1 Ag1 1_555 1_555
H15 O1 1_555 1_555
H16 O1 1_555 1_555
C21 O2 1_555 1_555
Ag1B N1B 1_555 1_555
Ag1B_2 N2 1_555 1_555
N1B C1B 1_555 1_555
N2B Ag1 1_555 1_555
N2_2 Ag1B 1_555 1_555
C1B C2B 1_555 1_555
C2B H1B 1_555 1_555
C3B C2B 1_555 1_555
H2B C3B 1_555 1_555
C4B C3B 1_555 1_555
H3B C4B 1_555 1_555
C5B C4B 1_555 1_555
H4B C5B 1_555 1_555
C6B N2B 1_555 1_555
C7B N2B 1_555 1_555
C8B C7B 1_555 1_555
C9B C8B 1_555 1_555
H5B C9B 1_555 1_555
C10B C9B 1_555 1_555
H6B C10B 1_555 1_555
C11B C10B 1_555 1_555
H7B C11B 1_555 1_555
C12B C11B 1_555 1_555
H8B C12B 1_555 1_555
C13B C8B 1_555 1_555
H9B C13B 1_555 1_555
C14B N1B 1_555 1_555
C15B C14B 1_555 1_555
C16B C15B 1_555 1_555
H10B C16B 1_555 1_555
C17B C16B 1_555 1_555
H11B C17B 1_555 1_555
C18B C17B 1_555 1_555
H12B C18B 1_555 1_555
C19B C18B 1_555 1_555
H13B C19B 1_555 1_555
C20B C15B 1_555 1_555
H14B C20B 1_555 1_555
O1B Ag1B 1_555 1_555
H15B O1B 1_555 1_555
H16B O1B 1_555 1_555
C21A C21 1_555 1_555
O2A C21A 1_555 1_555
C5 C6 1_555 1_555
C7 C14 1_555 1_555
C12 C13 1_555 1_555
C19 C20 1_555 1_555
C1B C6B 1_555 1_555
C5B C6B 1_555 1_555
C7B C14B 1_555 1_555
C12B C13B 1_555 1_555
C19B C20B 1_555 1_555

#END
