
#######################################################################
#
#                 Cambridge Crystallographic Data Centre
#                                CCDC 
#
#######################################################################
#
# If this CIF has been generated from an entry in the Cambridge 
# Structural Database, then it will include bibliographic, chemical, 
# crystal, experimental, refinement or atomic coordinate data resulting 
# from the CCDC's data processing and validation procedures.
#
#######################################################################

data_SIJPAD
_symmetry_cell_setting           orthorhombic
_symmetry_space_group_name_H-M   'P c c n'
_symmetry_Int_Tables_number      56
_space_group_name_Hall           '-P 2ab 2ac'
loop_
_symmetry_equiv_pos_site_id
_symmetry_equiv_pos_as_xyz
1 x,y,z
2 1/2-x,1/2-y,z
3 -x,1/2+y,1/2-z
4 1/2+x,-y,1/2-z
5 -x,-y,-z
6 1/2+x,1/2+y,-z
7 x,1/2-y,1/2+z
8 1/2-x,y,1/2+z
_cell_length_a                   21.988(4)
_cell_length_b                   21.988(4)
_cell_length_c                   9.3928(19)
_cell_angle_alpha                90
_cell_angle_beta                 90
_cell_angle_gamma                90
_cell_volume                     4541.16
loop_
_atom_site_label
_atom_site_type_symbol
_atom_site_fract_x
_atom_site_fract_y
_atom_site_fract_z
I1 I 0.0000 0.5000 0.5000
I2 I 0.02556(5) 0.50493(4) 0.80494(10)
I2D I -0.02556(5) 0.49507(4) 0.19506(10)
Na1 Na 0.2500 0.2500 0.5281(7)
C1 C 0.2960(5) 0.1083(5) 0.6325(10)
H1 H 0.2957 0.0654 0.6560
H2 H 0.2953 0.1315 0.7204
O1 O 0.2443(3) 0.1233(3) 0.5467(7)
C2 C 0.1888(5) 0.1106(5) 0.6173(10)
H3 H 0.1873 0.1322 0.7073
H4 H 0.1857 0.0674 0.6366
C3 C 0.1368(4) 0.1307(4) 0.5232(11)
H5 H 0.1408 0.1133 0.4287
H6 H 0.0982 0.1181 0.5633
O2 O 0.1407(3) 0.1952(3) 0.5174(7)
C4 C 0.0990(4) 0.2256(4) 0.4342(9)
C5 C 0.0583(4) 0.1981(5) 0.3454(10)
H7 H 0.0566 0.1559 0.3397
C6 C 0.0190(5) 0.2339(6) 0.2628(11)
H8 H -0.0084 0.2154 0.2011
C7 C 0.0210(5) 0.2946(5) 0.2723(12)
H9 H -0.0051 0.3177 0.2162
C8 C 0.0611(4) 0.3239(5) 0.3645(11)
H10 H 0.0611 0.3661 0.3715
C9 C 0.1013(4) 0.2892(4) 0.4462(9)
O3 O 0.1445(3) 0.3114(3) 0.5349(7)
C10 C 0.3510(5) 0.1237(4) 0.5481(11)
H11 H 0.3870 0.1079 0.5951
H12 H 0.3484 0.1053 0.4544
O4 O 0.2494(4) 0.2501(4) 0.2331(9)
Na1F Na 0.2500 0.2500 0.0281(7)
C1A C 0.2040(5) 0.3917(5) 0.6325(10)
H1A H 0.2043 0.4346 0.6560
H2A H 0.2047 0.3685 0.7204
O1A O 0.2557(3) 0.3767(3) 0.5467(7)
C2A C 0.3112(5) 0.3894(5) 0.6173(10)
H3A H 0.3127 0.3678 0.7073
H4A H 0.3143 0.4326 0.6366
C3A C 0.3632(4) 0.3693(4) 0.5232(11)
H5A H 0.3592 0.3867 0.4287
H6A H 0.4018 0.3819 0.5633
O2A O 0.3593(3) 0.3048(3) 0.5174(7)
C4A C 0.4010(4) 0.2744(4) 0.4342(9)
C5A C 0.4417(4) 0.3019(5) 0.3454(10)
H7A H 0.4434 0.3441 0.3397
C6A C 0.4810(5) 0.2661(6) 0.2628(11)
H8A H 0.5084 0.2846 0.2011
C7A C 0.4790(5) 0.2054(5) 0.2723(12)
H9A H 0.5051 0.1823 0.2162
C8A C 0.4389(4) 0.1761(5) 0.3645(11)
H10A H 0.4389 0.1339 0.3715
C9A C 0.3987(4) 0.2108(4) 0.4462(9)
O3A O 0.3555(3) 0.1886(3) 0.5349(7)
C10A C 0.1490(5) 0.3763(4) 0.5481(11)
H11A H 0.1130 0.3921 0.5951
H12A H 0.1516 0.3947 0.4544
O4F O 0.2494(4) 0.2499(4) 0.7331(9)
Na2 Na 0.2500 0.7500 0.6022(6)
C11 C 0.1183(4) 0.6745(4) 0.5319(10)
H13 H 0.1381 0.6722 0.4398
H14 H 0.0753 0.6660 0.5191
O5 O 0.1263(3) 0.7333(3) 0.5917(7)
C12 C 0.1026(4) 0.7801(4) 0.5032(9)
H15 H 0.0597 0.7731 0.4854
H16 H 0.1237 0.7803 0.4125
C13 C 0.1112(4) 0.8399(4) 0.5774(11)
H17 H 0.0908 0.8720 0.5250
H18 H 0.0940 0.8381 0.6724
O6 O 0.1747(3) 0.8524(3) 0.5855(7)
C14 C 0.1922(4) 0.8972(4) 0.6783(9)
C15 C 0.1525(5) 0.9355(4) 0.7535(12)
H19 H 0.1108 0.9325 0.7389
C16 C 0.1747(6) 0.9773(5) 0.8480(13)
H20 H 0.1481 1.0022 0.8984
C17 C 0.2368(6) 0.9825(4) 0.8684(11)
H21 H 0.2518 1.0112 0.9321
C18 C 0.2770(5) 0.9454(4) 0.7948(11)
H22 H 0.3187 0.9492 0.8094
C19 C 0.2551(5) 0.9027(4) 0.7000(10)
O7 O 0.2901(3) 0.8630(3) 0.6246(7)
C20 C 0.1462(4) 0.6283(4) 0.6333(9)
H23 H 0.1321 0.6352 0.7297
H24 H 0.1354 0.5873 0.6052
O8 O 0.2494(4) 0.7501(4) 0.8529(9)
Na2F Na 0.2500 0.7500 1.1022(6)
C11A C 0.3817(4) 0.8255(4) 0.5319(10)
H13A H 0.3619 0.8278 0.4398
H14A H 0.4247 0.8340 0.5191
O5A O 0.3737(3) 0.7667(3) 0.5917(7)
C12A C 0.3974(4) 0.7199(4) 0.5032(9)
H15A H 0.4403 0.7269 0.4854
H16A H 0.3763 0.7197 0.4125
C13A C 0.3888(4) 0.6601(4) 0.5774(11)
H17A H 0.4092 0.6280 0.5250
H18A H 0.4060 0.6619 0.6724
O6A O 0.3253(3) 0.6476(3) 0.5855(7)
C14A C 0.3078(4) 0.6028(4) 0.6783(9)
C15A C 0.3475(5) 0.5645(4) 0.7535(12)
H19A H 0.3892 0.5675 0.7389
C16A C 0.3253(6) 0.5227(5) 0.8480(13)
H20A H 0.3519 0.4978 0.8984
C17A C 0.2632(6) 0.5175(4) 0.8684(11)
H21A H 0.2482 0.4888 0.9321
C18A C 0.2230(5) 0.5546(4) 0.7948(11)
H22A H 0.1813 0.5508 0.8094
C19A C 0.2449(5) 0.5973(4) 0.7000(10)
O7A O 0.2099(3) 0.6370(3) 0.6246(7)
C20A C 0.3538(4) 0.8717(4) 0.6333(9)
H23A H 0.3679 0.8648 0.7297
H24A H 0.3646 0.9127 0.6052
O8F O 0.2494(4) 0.7499(4) 0.3529(9)
loop_
_geom_bond_atom_site_label_1
_geom_bond_atom_site_label_2
_geom_bond_site_symmetry_1
_geom_bond_site_symmetry_2
I1 I2 1_555 1_555
Na1 O1 1_555 1_555
C1 H1 1_555 1_555
H2 C1 1_555 1_555
O1 C1 1_555 1_555
C2 O1 1_555 1_555
H3 C2 1_555 1_555
H4 C2 1_555 1_555
C3 C2 1_555 1_555
H5 C3 1_555 1_555
H6 C3 1_555 1_555
O2 Na1 1_555 1_555
C4 O2 1_555 1_555
C5 C4 1_555 1_555
H7 C5 1_555 1_555
C6 C5 1_555 1_555
H8 C6 1_555 1_555
C7 C6 1_555 1_555
H9 C7 1_555 1_555
C8 C7 1_555 1_555
H10 C8 1_555 1_555
C9 C4 1_555 1_555
O3 Na1 1_555 1_555
C10 C1 1_555 1_555
H11 C10 1_555 1_555
H12 C10 1_555 1_555
O4 Na1 1_555 1_555
Na2 O5 1_555 1_555
C11 H13 1_555 1_555
H14 C11 1_555 1_555
O5 C11 1_555 1_555
C12 O5 1_555 1_555
H15 C12 1_555 1_555
H16 C12 1_555 1_555
C13 C12 1_555 1_555
H17 C13 1_555 1_555
H18 C13 1_555 1_555
O6 Na2 1_555 1_555
C14 O6 1_555 1_555
C15 C14 1_555 1_555
H19 C15 1_555 1_555
C16 C15 1_555 1_555
H20 C16 1_555 1_555
C17 C16 1_555 1_555
H21 C17 1_555 1_555
C18 C17 1_555 1_555
H22 C18 1_555 1_555
C19 C14 1_555 1_555
O7 Na2 1_555 1_555
C20 C11 1_555 1_555
H23 C20 1_555 1_555
H24 C20 1_555 1_555
O8 Na2 1_555 1_555
I2D I1 1_555 1_555
Na1F O4 1_555 1_555
C1A H1A 1_555 1_555
H2A C1A 1_555 1_555
O1A Na1 1_555 1_555
C2A O1A 1_555 1_555
H3A C2A 1_555 1_555
H4A C2A 1_555 1_555
C3A C2A 1_555 1_555
H5A C3A 1_555 1_555
H6A C3A 1_555 1_555
O2A Na1 1_555 1_555
C4A O2A 1_555 1_555
C5A C4A 1_555 1_555
H7A C5A 1_555 1_555
C6A C5A 1_555 1_555
H8A C6A 1_555 1_555
C7A C6A 1_555 1_555
H9A C7A 1_555 1_555
C8A C7A 1_555 1_555
H10A C8A 1_555 1_555
C9A C4A 1_555 1_555
O3A Na1 1_555 1_555
C10A O3 1_555 1_555
H11A C10A 1_555 1_555
H12A C10A 1_555 1_555
O4F Na1 1_555 1_555
Na2F O8 1_555 1_555
C11A H13A 1_555 1_555
H14A C11A 1_555 1_555
O5A Na2 1_555 1_555
C12A O5A 1_555 1_555
H15A C12A 1_555 1_555
H16A C12A 1_555 1_555
C13A C12A 1_555 1_555
H17A C13A 1_555 1_555
H18A C13A 1_555 1_555
O6A Na2 1_555 1_555
C14A O6A 1_555 1_555
C15A C14A 1_555 1_555
H19A C15A 1_555 1_555
C16A C15A 1_555 1_555
H20A C16A 1_555 1_555
C17A C16A 1_555 1_555
H21A C17A 1_555 1_555
C18A C17A 1_555 1_555
H22A C18A 1_555 1_555
C19A C14A 1_555 1_555
O7A Na2 1_555 1_555
C20A O7 1_555 1_555
H23A C20A 1_555 1_555
H24A C20A 1_555 1_555
O8F Na2 1_555 1_555
C3 O2 1_555 1_555
C8 C9 1_555 1_555
C9 O3 1_555 1_555
C10 O3A 1_555 1_555
C13 O6 1_555 1_555
C18 C19 1_555 1_555
C19 O7 1_555 1_555
C20 O7A 1_555 1_555
C1A O1A 1_555 1_555
C1A C10A 1_555 1_555
C3A O2A 1_555 1_555
C8A C9A 1_555 1_555
C9A O3A 1_555 1_555
C11A O5A 1_555 1_555
C11A C20A 1_555 1_555
C13A O6A 1_555 1_555
C18A C19A 1_555 1_555
C19A O7A 1_555 1_555

#END
