
#######################################################################
#
#                 Cambridge Crystallographic Data Centre
#                                CCDC 
#
#######################################################################
#
# If this CIF has been generated from an entry in the Cambridge 
# Structural Database, then it will include bibliographic, chemical, 
# crystal, experimental, refinement or atomic coordinate data resulting 
# from the CCDC's data processing and validation procedures.
#
#######################################################################

data_SIKHUQ
_symmetry_cell_setting           rhombohedral
_symmetry_space_group_name_H-M   'R -3 c'
_symmetry_Int_Tables_number      167
_space_group_name_Hall           '-R 3 2"c'
loop_
_symmetry_equiv_pos_site_id
_symmetry_equiv_pos_as_xyz
1 x,y,z
2 -y,x-y,z
3 -x+y,-x,z
4 y,x,1/2-z
5 2/3+x,1/3+y,1/3+z
6 2/3-y,1/3+x-y,1/3+z
7 2/3-x+y,1/3-x,1/3+z
8 2/3+y,1/3+x,5/6-z
9 1/3+x,2/3+y,2/3+z
10 1/3+y,2/3+x,1/6-z
11 x-y,-y,1/2-z
12 -x,-x+y,1/2-z
13 1/3-y,2/3+x-y,2/3+z
14 1/3-x+y,2/3-x,2/3+z
15 1/3+x-y,2/3-y,1/6-z
16 1/3-x,2/3-x+y,1/6-z
17 2/3+x-y,1/3-y,5/6-z
18 2/3-x,1/3-x+y,5/6-z
19 -x,-y,-z
20 y,-x+y,-z
21 x-y,x,-z
22 -y,-x,1/2+z
23 1/3-x,2/3-y,2/3-z
24 1/3+y,2/3-x+y,2/3-z
25 1/3+x-y,2/3+x,2/3-z
26 1/3-y,2/3-x,1/6+z
27 2/3-x,1/3-y,1/3-z
28 2/3-y,1/3-x,5/6+z
29 -x+y,y,1/2+z
30 x,x-y,1/2+z
31 2/3+y,1/3-x+y,1/3-z
32 2/3+x-y,1/3+x,1/3-z
33 2/3-x+y,1/3+y,5/6+z
34 2/3+x,1/3+x-y,5/6+z
35 1/3-x+y,2/3+y,1/6+z
36 1/3+x,2/3+x-y,1/6+z
_cell_length_a                   12.3993(6)
_cell_length_b                   12.3993(6)
_cell_length_c                   66.177(6)
_cell_angle_alpha                90
_cell_angle_beta                 90
_cell_angle_gamma                120.00
_cell_volume                     8811.14
loop_
_atom_site_label
_atom_site_type_symbol
_atom_site_fract_x
_atom_site_fract_y
_atom_site_fract_z
Ag1 Ag 1.3333 0.6667 0.1667
Ag2 Ag 1.21612(6) 0.21612(6) 0.2500
N1 N 1.2514(5) 0.3222(5) 0.21975(7)
N2 N 1.2831(6) 0.4683(7) 0.18617(9)
N3 N 1.0559(5) 0.2542(4) 0.24420(7)
C1 C 1.3487(6) 0.3608(7) 0.20781(10)
H1 H 1.4090 0.3396 0.2108
C2 C 1.3632(7) 0.4327(8) 0.19078(11)
H2 H 1.4318 0.4561 0.1824
C3 C 1.1806(7) 0.4240(9) 0.19758(11)
H3 H 1.1185 0.4416 0.1940
C4 C 1.1643(6) 0.3514(6) 0.21487(8)
C5 C 1.0522(6) 0.3062(6) 0.22760(9)
C6 C 0.9479(9) 0.3254(10) 0.22104(16)
H4 H 0.8830 0.2916 0.2310
H5 H 0.9156 0.2842 0.2084
H6 H 0.9779 0.4129 0.2195
Ag1K Ag 0.6667 0.3334 0.3333
Ag1C Ag 1.6667 0.3333 0.3333
Ag1C_2 Ag 1.6667 1.3333 0.3333
Ag2A Ag 0.78388(6) 0.00000(8) 0.2500
Ag2A_2 Ag 1.78388(6) 1.00000(8) 0.2500
Ag2B Ag 2.00000(8) 0.78388(6) 0.2500
Ag2B_2 Ag 1.00000(8) 0.78388(6) 0.2500
Ag2_2 Ag 1.21612(6) 1.21612(6) 0.2500
N1K N 0.7486(5) 0.0708(7) 0.28025(7)
N1A N 1.6778(5) 0.9292(7) 0.21975(7)
N1J N 1.9292(7) 0.6778(5) 0.28025(7)
N1B N 1.0708(7) 0.7486(5) 0.21975(7)
N1C N 1.3222(5) 1.2514(5) 0.28025(7)
N1C_2 N 1.3222(5) 0.2514(5) 0.28025(7)
N1A_2 N 0.6778(5) -0.0708(7) 0.21975(7)
N2K N 0.7169(6) 0.1852(9) 0.31383(9)
N2A N 1.5317(7) 0.8148(9) 0.18617(9)
N2J N 1.8148(9) 0.5317(7) 0.31383(9)
N2B N 1.1852(9) 0.7169(6) 0.18617(9)
N2C N 1.4683(7) 1.2831(6) 0.31383(9)
N2DA N 1.1350(7) 0.5185(9) 0.14716(9)
N2EA N 1.4815(9) 0.6164(6) 0.14716(9)
N2Z N 1.3836(6) 0.8650(7) 0.14716(9)
N2C_2 N 0.4683(7) 0.2831(6) 0.31383(9)
N2HA N 0.5185(9) 0.1350(7) 0.35284(9)
N2IA N 0.6164(6) 0.4815(9) 0.35284(9)
N2Y N 0.8650(7) 0.3836(6) 0.35284(9)
N2J_2 N 0.8148(9) 0.5317(7) 0.31383(9)
N3K N 0.9441(5) 0.1983(6) 0.25580(7)
N3A N 1.7458(4) 0.8017(6) 0.24420(7)
N3J N 1.8017(6) 0.7458(4) 0.25580(7)
N3B N 1.1983(6) 0.9441(5) 0.24420(7)
N3C N 1.2542(4) 1.0559(5) 0.25580(7)
N3C_2 N 1.2542(4) 0.0559(5) 0.25580(7)
N3A_2 N 0.7458(4) -0.1983(6) 0.24420(7)
C1K C 0.6513(6) 0.0121(9) 0.29219(10)
C1A C 1.6392(7) 0.9879(9) 0.20781(10)
C1J C 1.9879(9) 0.6392(7) 0.29219(10)
C1B C 1.0121(9) 0.6513(6) 0.20781(10)
C1C C 1.3608(7) 1.3487(6) 0.29219(10)
H1K H 0.5910 -0.0694 0.2892
H1A H 1.6604 1.0694 0.2108
H1J H 2.0694 0.6604 0.2892
H1B H 0.9306 0.5910 0.2108
H1C H 1.3396 1.4090 0.2892
C2K C 0.6368(7) 0.0695(11) 0.30922(11)
C2A C 1.5673(8) 0.9305(11) 0.19078(11)
C2J C 1.9305(11) 0.5673(8) 0.30922(11)
C2B C 1.0695(11) 0.6368(7) 0.19078(11)
C2C C 1.4327(8) 1.3632(7) 0.30922(11)
H2K H 0.5682 0.0243 0.3176
H2A H 1.5439 0.9757 0.1824
H2J H 1.9757 0.5439 0.3176
H2B H 1.0243 0.5682 0.1824
H2C H 1.4561 1.4318 0.3176
C3K C 0.8194(7) 0.2434(11) 0.30242(11)
C3A C 1.5760(9) 0.7566(11) 0.19758(11)
C3J C 1.7566(11) 0.5760(9) 0.30242(11)
C3B C 1.2434(11) 0.8194(7) 0.19758(11)
C3C C 1.4240(9) 1.1806(7) 0.30242(11)
H3K H 0.8815 0.3231 0.3060
H3A H 1.5584 0.6769 0.1940
H3J H 1.6769 0.5584 0.3060
H3B H 1.3231 0.8815 0.1940
H3C H 1.4416 1.1185 0.3060
C4K C 0.8357(6) 0.1871(8) 0.28513(8)
C4A C 1.6486(6) 0.8129(8) 0.21487(8)
C4J C 1.8129(8) 0.6486(6) 0.28513(8)
C4B C 1.1871(8) 0.8357(6) 0.21487(8)
C4C C 1.3514(6) 1.1643(6) 0.28513(8)
C5K C 0.9478(6) 0.2540(8) 0.27240(9)
C5A C 1.6938(6) 0.7460(8) 0.22760(9)
C5J C 1.7460(8) 0.6938(6) 0.27240(9)
C5B C 1.2540(8) 0.9478(6) 0.22760(9)
C5C C 1.3062(6) 1.0522(6) 0.27240(9)
C6K C 1.0521(9) 0.3775(13) 0.27896(16)
C6A C 1.6746(10) 0.6225(13) 0.22104(16)
C6J C 1.6225(13) 0.6746(10) 0.27896(16)
C6B C 1.3775(13) 1.0521(9) 0.22104(16)
C6C C 1.3254(10) 0.9479(9) 0.27896(16)
H4K H 1.1170 0.4086 0.2690
H4A H 1.7084 0.5914 0.2310
H4J H 1.5914 0.7084 0.2690
H4B H 1.4086 1.1170 0.2310
H4C H 1.2916 0.8830 0.2690
H5K H 1.0844 0.3686 0.2916
H5A H 1.7158 0.6314 0.2084
H5J H 1.6314 0.7158 0.2916
H5B H 1.3686 1.0844 0.2084
H5C H 1.2842 0.9156 0.2916
H6K H 1.0221 0.4350 0.2805
H6A H 1.5871 0.5650 0.2195
H6J H 1.5650 0.5871 0.2805
H6B H 1.4350 1.0221 0.2195
H6C H 1.4129 0.9779 0.2805
Cl1 Cl 1.3333 0.6667 0.24530(6)
O1 O 1.3333 0.6667 0.22386(17)
O2 O 1.345(2) 0.5667(16) 0.2534(3)
O2A O 1.4333(16) 0.7783(26) 0.2534(3)
O2B O 1.2217(26) 0.655(2) 0.2534(3)
Cl2 Cl 1.3333 0.6667 0.37050(8)
O6 O 1.2453(9) 0.6972(14) 0.3628(2)
O7 O 1.3333 0.6667 0.39177(16)
O6A O 1.3028(14) 0.5481(17) 0.3628(2)
O6B O 1.4519(17) 0.7547(9) 0.3628(2)
O8 O 0.859(2) 0.352(3) 0.1741(5)
O9 O 1.3333 0.6667 0.3038(6)
O3? O 1.240(3) 0.608(5) 0.2302(5)
O4? O 1.3333 0.6667 0.26676(17)
O5? O 1.2105(19) 0.606(5) 0.2372(7)
O10? O 0.841(3) 0.272(3) 0.1701(4)
loop_
_geom_bond_atom_site_label_1
_geom_bond_atom_site_label_2
_geom_bond_site_symmetry_1
_geom_bond_site_symmetry_2
Ag1 N2 1_555 1_555
Ag2 N1 1_555 1_555
N1 C1 1_555 1_555
N2 C2 1_555 1_555
N3 Ag2 1_555 1_555
C1 H1 1_555 1_555
C2 C1 1_555 1_555
H2 C2 1_555 1_555
C3 N2 1_555 1_555
H3 C3 1_555 1_555
C4 N1 1_555 1_555
C5 N3 1_555 1_555
C6 C5 1_555 1_555
H4 C6 1_555 1_555
H5 C6 1_555 1_555
H6 C6 1_555 1_555
Cl1 O1 1_555 1_555
O2 Cl1 1_555 1_555
Cl2 O6 1_555 1_555
O7 Cl2 1_555 1_555
Ag1K N2K 1_555 1_555
Ag1C N2J 1_555 1_555
Ag1C_2 N2C 1_555 1_555
Ag2A N1K 1_555 1_555
Ag2A_2 N1A 1_555 1_555
Ag2B N1J 1_555 1_555
Ag2B_2 N1B 1_555 1_555
Ag2_2 N1C 1_555 1_555
N1K C1K 1_555 1_555
N1A C1A 1_555 1_555
N1J C1J 1_555 1_555
N1B C1B 1_555 1_555
N1C C1C 1_555 1_555
N1C_2 Ag2 1_555 1_555
N1A_2 Ag2A 1_555 1_555
N2K C2K 1_555 1_555
N2A Ag1 1_555 1_555
N2J C2J 1_555 1_555
N2B Ag1 1_555 1_555
N2C C2C 1_555 1_555
N2DA Ag1 1_555 1_555
N2EA Ag1 1_555 1_555
N2Z Ag1 1_555 1_555
N2C_2 Ag1K 1_555 1_555
N2HA Ag1K 1_555 1_555
N2IA Ag1K 1_555 1_555
N2Y Ag1K 1_555 1_555
N2J_2 Ag1K 1_555 1_555
N3K N3 1_555 1_555
N3A Ag2A_2 1_555 1_555
N3J Ag2B 1_555 1_555
N3B Ag2B_2 1_555 1_555
N3C Ag2_2 1_555 1_555
N3C_2 Ag2 1_555 1_555
N3A_2 Ag2A 1_555 1_555
C1K H1K 1_555 1_555
C1A H1A 1_555 1_555
C1J H1J 1_555 1_555
C1B H1B 1_555 1_555
C1C H1C 1_555 1_555
C2K C1K 1_555 1_555
C2A N2A 1_555 1_555
C2J C1J 1_555 1_555
C2B N2B 1_555 1_555
C2C C1C 1_555 1_555
H2K C2K 1_555 1_555
H2A C2A 1_555 1_555
H2J C2J 1_555 1_555
H2B C2B 1_555 1_555
H2C C2C 1_555 1_555
C3K N2K 1_555 1_555
C3A N2A 1_555 1_555
C3J N2J 1_555 1_555
C3B N2B 1_555 1_555
C3C N2C 1_555 1_555
H3K C3K 1_555 1_555
H3A C3A 1_555 1_555
H3J C3J 1_555 1_555
H3B C3B 1_555 1_555
H3C C3C 1_555 1_555
C4K N1K 1_555 1_555
C4A N1A 1_555 1_555
C4J N1J 1_555 1_555
C4B N1B 1_555 1_555
C4C N1C 1_555 1_555
C5K N3K 1_555 1_555
C5A N3A 1_555 1_555
C5J N3J 1_555 1_555
C5B N3B 1_555 1_555
C5C N3C 1_555 1_555
C6K C5K 1_555 1_555
C6A C5A 1_555 1_555
C6J C5J 1_555 1_555
C6B C5B 1_555 1_555
C6C C5C 1_555 1_555
H4K C6K 1_555 1_555
H4A C6A 1_555 1_555
H4J C6J 1_555 1_555
H4B C6B 1_555 1_555
H4C C6C 1_555 1_555
H5K C6K 1_555 1_555
H5A C6A 1_555 1_555
H5J C6J 1_555 1_555
H5B C6B 1_555 1_555
H5C C6C 1_555 1_555
H6K C6K 1_555 1_555
H6A C6A 1_555 1_555
H6J C6J 1_555 1_555
H6B C6B 1_555 1_555
H6C C6C 1_555 1_555
O2A Cl1 1_555 1_555
O2B Cl1 1_555 1_555
O6A Cl2 1_555 1_555
O6B Cl2 1_555 1_555
C3 C4 1_555 1_555
C4 C5 1_555 1_555
Ag2A N3K 1_555 1_555
N3A N3J 1_555 1_555
N3B N3C 1_555 1_555
C1A C2A 1_555 1_555
C1B C2B 1_555 1_555
C3K C4K 1_555 1_555
C3A C4A 1_555 1_555
C3J C4J 1_555 1_555
C3B C4B 1_555 1_555
C3C C4C 1_555 1_555
C4K C5K 1_555 1_555
C4A C5A 1_555 1_555
C4J C5J 1_555 1_555
C4B C5B 1_555 1_555
C4C C5C 1_555 1_555

#END
