
#######################################################################
#
#                 Cambridge Crystallographic Data Centre
#                                CCDC 
#
#######################################################################
#
# If this CIF has been generated from an entry in the Cambridge 
# Structural Database, then it will include bibliographic, chemical, 
# crystal, experimental, refinement or atomic coordinate data resulting 
# from the CCDC's data processing and validation procedures.
#
#######################################################################

data_SIKJEC
_symmetry_cell_setting           monoclinic
_symmetry_space_group_name_H-M   'C 2/c'
_symmetry_Int_Tables_number      15
_space_group_name_Hall           '-C 2yn'
loop_
_symmetry_equiv_pos_site_id
_symmetry_equiv_pos_as_xyz
1 x,y,z
2 1/2+x,1/2+y,z
3 -x,y,1/2-z
4 1/2-x,1/2+y,1/2-z
5 -x,-y,-z
6 1/2-x,1/2-y,-z
7 x,-y,1/2+z
8 1/2+x,1/2-y,1/2+z
_cell_length_a                   14.560(2)
_cell_length_b                   14.056(2)
_cell_length_c                   13.589(2)
_cell_angle_alpha                90
_cell_angle_beta                 116.528(2)
_cell_angle_gamma                90
_cell_volume                     2488.26
loop_
_atom_site_label
_atom_site_type_symbol
_atom_site_fract_x
_atom_site_fract_y
_atom_site_fract_z
Cu1 Cu 0.29938(3) 0.19014(3) 0.70330(3)
Cu2 Cu 0.0000 0.36631(4) 0.7500
O1 O 0.3418(2) 0.29428(17) 0.6282(2)
N1 N 0.0833(3) 0.2626(2) 0.1578(3)
H1 H 0.0252 0.2871 0.1553
H2 H 0.0798 0.1991 0.1641
N2 N 0.2129(3) 0.4358(2) 0.2271(3)
N3 N 0.2885(2) 0.3483(2) 0.4498(2)
N4 N 0.1797(3) 0.2655(3) 0.7339(4)
N5 N 0.0000 0.5831(5) 0.7500
C1 C 0.0824(5) 0.2818(4) 0.0512(4)
H3 H 0.1383 0.2473 0.0469
H4 H 0.0185 0.2588 -0.0073
C2 C 0.0935(5) 0.3859(4) 0.0349(4)
H5 H 0.0378 0.4192 0.0408
H6 H 0.0848 0.3950 -0.0395
C3 C 0.1924(5) 0.4319(4) 0.1122(4)
H7 H 0.1929 0.4964 0.0870
H8 H 0.2482 0.3979 0.1075
C4 C 0.3046(4) 0.4911(3) 0.2925(4)
H9 H 0.3637 0.4571 0.2951
H10 H 0.3001 0.5511 0.2554
C5 C 0.3231(4) 0.5118(3) 0.4103(4)
H11 H 0.2596 0.5350 0.4086
H12 H 0.3734 0.5624 0.4397
C6 C 0.3594(3) 0.4291(3) 0.4865(4)
H13 H 0.3686 0.4490 0.5587
H14 H 0.4257 0.4089 0.4933
C7 C 0.2876(3) 0.2909(2) 0.5227(3)
C8 C 0.1137(3) 0.3021(3) 0.7435(4)
C9 C 0.0000 0.5045(4) 0.7500
H15 H 0.154(4) 0.461(3) 0.221(3)
Cu1B Cu -0.29938(3) 0.19014(3) 0.79670(3)
Cu1E Cu 0.20062(3) 0.30986(3) 0.29670(3)
O1E O 0.1582(2) 0.20572(17) 0.3718(2)
O1B O -0.3418(2) 0.29428(17) 0.8718(2)
N1E N 0.4167(3) 0.2374(2) 0.8422(3)
N1G N -0.4167(3) 0.2374(2) 0.6578(3)
H1E H 0.4748 0.2129 0.8447
H1G H -0.4748 0.2129 0.6553
H2E H 0.4202 0.3009 0.8359
H2G H -0.4202 0.3009 0.6641
N2E N 0.2871(3) 0.0642(2) 0.7729(3)
N2G N -0.2871(3) 0.0642(2) 0.7271(3)
N3E N 0.2115(2) 0.1517(2) 0.5502(2)
N3G N -0.2115(2) 0.1517(2) 0.9498(2)
N4B N -0.1797(3) 0.2655(3) 0.7661(4)
C1E C 0.4176(5) 0.2182(4) 0.9488(4)
H3E H 0.3617 0.2527 0.9531
H4E H 0.4815 0.2412 1.0073
C2E C 0.4065(5) 0.1141(4) 0.9651(4)
H5E H 0.4622 0.0808 0.9592
H6E H 0.4152 0.1050 1.0395
C3E C 0.3076(5) 0.0681(4) 0.8878(4)
H7E H 0.3071 0.0036 0.9130
H8E H 0.2518 0.1021 0.8925
C4E C 0.1954(4) 0.0089(3) 0.7075(4)
H9E H 0.1363 0.0429 0.7049
H10E H 0.1999 -0.0511 0.7446
C5E C 0.1769(4) -0.0118(3) 0.5897(4)
H11E H 0.2404 -0.0350 0.5914
H12E H 0.1266 -0.0624 0.5603
C6E C 0.1406(3) 0.0709(3) 0.5135(4)
H13E H 0.1314 0.0510 0.4413
H14E H 0.0743 0.0911 0.5067
C7E C 0.2124(3) 0.2091(2) 0.4773(3)
C8B C -0.1137(3) 0.3021(3) 0.7565(4)
H15E H 0.346(4) 0.039(3) 0.779(3)
H15G H -0.346(4) 0.039(3) 0.721(3)
loop_
_geom_bond_atom_site_label_1
_geom_bond_atom_site_label_2
_geom_bond_site_symmetry_1
_geom_bond_site_symmetry_2
Cu1 O1 1_555 1_555
Cu2 C8 1_555 1_555
O1 C7 1_555 1_555
N1 H1 1_555 1_555
H2 N1 1_555 1_555
N2 C3 1_555 1_555
N3 C6 1_555 1_555
N4 Cu1 1_555 1_555
N5 C9 1_555 1_555
C1 N1 1_555 1_555
H3 C1 1_555 1_555
H4 C1 1_555 1_555
C2 C1 1_555 1_555
H5 C2 1_555 1_555
H6 C2 1_555 1_555
C3 C2 1_555 1_555
H7 C3 1_555 1_555
H8 C3 1_555 1_555
C4 N2 1_555 1_555
H9 C4 1_555 1_555
H10 C4 1_555 1_555
C5 C4 1_555 1_555
H11 C5 1_555 1_555
H12 C5 1_555 1_555
C6 C5 1_555 1_555
H13 C6 1_555 1_555
H14 C6 1_555 1_555
C7 N3 1_555 1_555
C8 N4 1_555 1_555
C9 Cu2 1_555 1_555
H15 N2 1_555 1_555
Cu1B O1B 1_555 1_555
Cu1E N1 1_555 1_555
O1E Cu1E 1_555 1_555
N1E Cu1 1_555 1_555
N1G Cu1B 1_555 1_555
H1E N1E 1_555 1_555
H1G N1G 1_555 1_555
H2E N1E 1_555 1_555
H2G N1G 1_555 1_555
N2E Cu1 1_555 1_555
N2G Cu1B 1_555 1_555
N3E Cu1 1_555 1_555
N3G Cu1B 1_555 1_555
N4B Cu1B 1_555 1_555
C1E N1E 1_555 1_555
H3E C1E 1_555 1_555
H4E C1E 1_555 1_555
C2E C1E 1_555 1_555
H5E C2E 1_555 1_555
H6E C2E 1_555 1_555
C3E N2E 1_555 1_555
H7E C3E 1_555 1_555
H8E C3E 1_555 1_555
C4E N2E 1_555 1_555
H9E C4E 1_555 1_555
H10E C4E 1_555 1_555
C5E C4E 1_555 1_555
H11E C5E 1_555 1_555
H12E C5E 1_555 1_555
C6E N3E 1_555 1_555
H13E C6E 1_555 1_555
H14E C6E 1_555 1_555
C7E C7 1_555 1_555
C8B Cu2 1_555 1_555
H15E N2E 1_555 1_555
H15G N2G 1_555 1_555
N2 Cu1E 1_555 1_555
N3 Cu1E 1_555 1_555
O1E C7E 1_555 1_555
N3E C7E 1_555 1_555
N4B C8B 1_555 1_555
C2E C3E 1_555 1_555
C5E C6E 1_555 1_555

#END
