
#######################################################################
#
#                 Cambridge Crystallographic Data Centre
#                                CCDC 
#
#######################################################################
#
# If this CIF has been generated from an entry in the Cambridge 
# Structural Database, then it will include bibliographic, chemical, 
# crystal, experimental, refinement or atomic coordinate data resulting 
# from the CCDC's data processing and validation procedures.
#
#######################################################################

data_SIKJOM
_symmetry_cell_setting           monoclinic
_symmetry_space_group_name_H-M   'P 21/n'
_symmetry_Int_Tables_number      14
_space_group_name_Hall           '-P 2yn'
loop_
_symmetry_equiv_pos_site_id
_symmetry_equiv_pos_as_xyz
1 x,y,z
2 1/2-x,1/2+y,1/2-z
3 -x,-y,-z
4 1/2+x,1/2-y,1/2+z
_cell_length_a                   5.682(2)
_cell_length_b                   13.702(5)
_cell_length_c                   28.274(10)
_cell_angle_alpha                90
_cell_angle_beta                 93.207(8)
_cell_angle_gamma                90
_cell_volume                     2197.82
loop_
_atom_site_label
_atom_site_type_symbol
_atom_site_fract_x
_atom_site_fract_y
_atom_site_fract_z
Cu1 Cu 0.04572(9) 0.08696(4) 0.031694(19)
Cu2 Cu 0.5000 0.0000 0.0000
O1 O 0.1838(5) -0.0421(2) 0.01809(11)
H1 H 0.194(8) -0.079(3) 0.0423(11)
O2 O 0.2569(5) 0.1122(2) 0.08690(11)
O3 O 0.6783(6) -0.1447(2) 0.02307(11)
H2 H 0.692(9) -0.2023(16) 0.0117(17)
H3 H 0.722(8) -0.147(4) 0.0526(6)
O4 O 0.5917(5) 0.0389(2) 0.06564(11)
O6 O 0.2948(6) -0.1916(2) 0.47944(13)
O7 O 0.5967(5) -0.2866(2) 0.45938(11)
N1 N 0.8004(7) 0.1483(3) 0.22905(13)
N2 N 0.8018(7) 0.0299(3) 0.39078(14)
C1 C 0.4669(8) 0.0835(3) 0.09393(16)
C2 C 0.5849(8) 0.1061(3) 0.14250(16)
C3 C 0.4861(8) 0.1741(3) 0.17203(16)
H4 H 0.3466 0.2058 0.1626
C4 C 0.5983(9) 0.1937(3) 0.21554(17)
H5 H 0.5332 0.2387 0.2357
C5 C 0.8970(9) 0.0821(4) 0.20102(17)
H6 H 1.0350 0.0503 0.2114
C6 C 0.7930(8) 0.0608(3) 0.15688(16)
H7 H 0.8628 0.0164 0.1371
C7 C 0.9108(9) 0.1669(4) 0.27741(16)
H8 H 0.8853 0.2341 0.2866
H9 H 1.0792 0.1551 0.2778
C8 C 0.7975(8) 0.0982(3) 0.31152(17)
H10 H 0.6297 0.1116 0.3112
H11 H 0.8176 0.0315 0.3010
C9 C 0.9028(9) 0.1086(3) 0.36167(16)
H12 H 1.0730 0.1025 0.3621
H13 H 0.8646 0.1721 0.3743
C10 C 0.6108(9) 0.0461(3) 0.41580(17)
H14 H 0.5488 0.1088 0.4172
C11 C 0.5064(8) -0.0281(3) 0.43922(17)
H15 H 0.3738 -0.0162 0.4562
C12 C 0.6009(8) -0.1212(3) 0.43732(17)
C13 C 0.8012(9) -0.1371(4) 0.41215(18)
H16 H 0.8685 -0.1989 0.4110
C14 C 0.8966(9) -0.0602(4) 0.38924(18)
H17 H 1.0299 -0.0701 0.3722
C15 C 0.4851(8) -0.2061(3) 0.46087(16)
Cu1B Cu 0.95428(9) -0.08696(4) -0.031694(19)
Cu1B_2 Cu -0.04572(9) -0.08696(4) -0.031694(19)
Cu1A Cu 0.45428(9) -0.41304(4) 0.468306(19)
Cu1_2 Cu 1.04572(9) 0.08696(4) 0.031694(19)
Cu1C Cu 0.54572(9) 0.41304(4) -0.468306(19)
O1B O 0.8162(5) 0.0421(2) -0.01809(11)
O1B_2 O -0.1838(5) 0.0421(2) -0.01809(11)
O1_2 O 1.1838(5) -0.0421(2) 0.01809(11)
H1B H 0.806(8) 0.079(3) -0.0423(11)
H1B_2 H -0.194(8) 0.079(3) -0.0423(11)
H1_2 H 1.194(8) -0.079(3) 0.0423(11)
O2B O 0.7431(5) -0.1122(2) -0.08690(11)
O3B O 0.3217(6) 0.1447(2) -0.02307(11)
H2B H 0.308(9) 0.2023(16) -0.0117(17)
H3B H 0.278(8) 0.147(4) -0.0526(6)
O4B O 0.4083(5) -0.0389(2) -0.06564(11)
O6B O 0.7052(6) 0.1916(2) -0.47944(13)
O7B O 0.4033(5) 0.2866(2) -0.45938(11)
O7A O -0.0967(5) 0.2134(2) 0.04062(11)
O7C O 1.0967(5) -0.2134(2) -0.04062(11)
N1B N 0.1996(7) -0.1483(3) -0.22905(13)
N2B N 0.1982(7) -0.0299(3) -0.39078(14)
C1B C 0.5331(8) -0.0835(3) -0.09393(16)
C2B C 0.4151(8) -0.1061(3) -0.14250(16)
C3B C 0.5139(8) -0.1741(3) -0.17203(16)
H4B H 0.6534 -0.2058 -0.1626
C4B C 0.4017(9) -0.1937(3) -0.21554(17)
H5B H 0.4668 -0.2387 -0.2357
C5B C 0.1030(9) -0.0821(4) -0.20102(17)
H6B H -0.0350 -0.0503 -0.2114
C6B C 0.2070(8) -0.0608(3) -0.15688(16)
H7B H 0.1372 -0.0164 -0.1371
C7B C 0.0892(9) -0.1669(4) -0.27741(16)
H8B H 0.1147 -0.2341 -0.2866
H9B H -0.0792 -0.1551 -0.2778
C8B C 0.2025(8) -0.0982(3) -0.31152(17)
H10B H 0.3703 -0.1116 -0.3112
H11B H 0.1824 -0.0315 -0.3010
C9B C 0.0972(9) -0.1086(3) -0.36167(16)
H12B H -0.0730 -0.1025 -0.3621
H13B H 0.1354 -0.1721 -0.3743
C10B C 0.3892(9) -0.0461(3) -0.41580(17)
H14B H 0.4512 -0.1088 -0.4172
C11B C 0.4936(8) 0.0281(3) -0.43922(17)
H15B H 0.6262 0.0162 -0.4562
C12B C 0.3991(8) 0.1212(3) -0.43732(17)
C13B C 0.1988(9) 0.1371(4) -0.41215(18)
H16B H 0.1315 0.1989 -0.4110
C14B C 0.1034(9) 0.0602(4) -0.38924(18)
H17B H -0.0299 0.0701 -0.3722
C15B C 0.5149(8) 0.2061(3) -0.46087(16)
Cl1 Cl 0.3308(2) -0.08317(9) 0.28311(4)
O8 O 0.4401(9) -0.1740(4) 0.2875(2)
O9 O 0.4216(9) -0.0220(4) 0.24821(16)
O10 O 0.0815(7) -0.0990(3) 0.27077(17)
O11 O 0.3513(7) -0.0340(3) 0.32808(15)
Cl2 Cl -0.1103(2) 0.18181(9) -0.12573(4)
O12 O -0.2198(7) 0.0939(3) -0.1424(2)
O13 O -0.1580(7) 0.2592(3) -0.15832(14)
O14 O -0.2019(8) 0.2056(4) -0.08051(15)
O15 O 0.1412(6) 0.1675(3) -0.11924(13)
O5 O -0.3958(7) 0.3725(3) -0.03354(15)
loop_
_geom_bond_atom_site_label_1
_geom_bond_atom_site_label_2
_geom_bond_site_symmetry_1
_geom_bond_site_symmetry_2
Cu1 O1 1_555 1_555
Cu2 O1 1_555 1_555
Cl1 O8 1_555 1_555
Cl2 O12 1_555 1_555
O1 H1 1_555 1_555
O2 Cu1 1_555 1_555
O3 Cu2 1_555 1_555
H2 O3 1_555 1_555
H3 O3 1_555 1_555
O4 Cu2 1_555 1_555
O6 C15 1_555 1_555
O7 C15 1_555 1_555
O9 Cl1 1_555 1_555
O10 Cl1 1_555 1_555
O11 Cl1 1_555 1_555
O13 Cl2 1_555 1_555
O14 Cl2 1_555 1_555
O15 Cl2 1_555 1_555
N1 C4 1_555 1_555
N2 C9 1_555 1_555
C1 O2 1_555 1_555
C2 C1 1_555 1_555
C3 C2 1_555 1_555
H4 C3 1_555 1_555
C4 C3 1_555 1_555
H5 C4 1_555 1_555
C5 N1 1_555 1_555
H6 C5 1_555 1_555
C6 C2 1_555 1_555
H7 C6 1_555 1_555
C7 N1 1_555 1_555
H8 C7 1_555 1_555
H9 C7 1_555 1_555
C8 C7 1_555 1_555
H10 C8 1_555 1_555
H11 C8 1_555 1_555
C9 C8 1_555 1_555
H12 C9 1_555 1_555
H13 C9 1_555 1_555
C10 N2 1_555 1_555
H14 C10 1_555 1_555
C11 C10 1_555 1_555
H15 C11 1_555 1_555
C12 C11 1_555 1_555
C13 C12 1_555 1_555
H16 C13 1_555 1_555
C14 N2 1_555 1_555
H17 C14 1_555 1_555
C15 C12 1_555 1_555
Cu1B O3 1_555 1_555
Cu1B_2 O1 1_555 1_555
Cu1A O7 1_555 1_555
Cu1_2 O1B 1_555 1_555
Cu1C O7B 1_555 1_555
O1B Cu2 1_555 1_555
O1B_2 Cu1 1_555 1_555
O1_2 Cu1B 1_555 1_555
H1B O1B 1_555 1_555
H1B_2 O1B_2 1_555 1_555
H1_2 O1_2 1_555 1_555
O2B Cu1B 1_555 1_555
O3B Cu1 1_555 1_555
H2B O3B 1_555 1_555
H3B O3B 1_555 1_555
O4B Cu2 1_555 1_555
O6B C15B 1_555 1_555
O7B C15B 1_555 1_555
O7A Cu1 1_555 1_555
O7C Cu1B 1_555 1_555
N1B C4B 1_555 1_555
N2B C9B 1_555 1_555
C1B O2B 1_555 1_555
C2B C1B 1_555 1_555
C3B C2B 1_555 1_555
H4B C3B 1_555 1_555
C4B C3B 1_555 1_555
H5B C4B 1_555 1_555
C5B N1B 1_555 1_555
H6B C5B 1_555 1_555
C6B C2B 1_555 1_555
H7B C6B 1_555 1_555
C7B N1B 1_555 1_555
H8B C7B 1_555 1_555
H9B C7B 1_555 1_555
C8B C7B 1_555 1_555
H10B C8B 1_555 1_555
H11B C8B 1_555 1_555
C9B C8B 1_555 1_555
H12B C9B 1_555 1_555
H13B C9B 1_555 1_555
C10B N2B 1_555 1_555
H14B C10B 1_555 1_555
C11B C10B 1_555 1_555
H15B C11B 1_555 1_555
C12B C11B 1_555 1_555
C13B C12B 1_555 1_555
H16B C13B 1_555 1_555
C14B N2B 1_555 1_555
H17B C14B 1_555 1_555
C15B C12B 1_555 1_555
Cu2 O3B 1_555 1_555
O4 C1 1_555 1_555
C5 C6 1_555 1_555
C13 C14 1_555 1_555
Cu1B O1B 1_555 1_555
Cu1B_2 O1B_2 1_555 1_555
Cu1_2 O1_2 1_555 1_555
O4B C1B 1_555 1_555
C5B C6B 1_555 1_555
C13B C14B 1_555 1_555

#END
