
#######################################################################
#
#                 Cambridge Crystallographic Data Centre
#                                CCDC 
#
#######################################################################
#
# If this CIF has been generated from an entry in the Cambridge 
# Structural Database, then it will include bibliographic, chemical, 
# crystal, experimental, refinement or atomic coordinate data resulting 
# from the CCDC's data processing and validation procedures.
#
#######################################################################

data_SIKTAI
_symmetry_cell_setting           monoclinic
_symmetry_space_group_name_H-M   'P 21/n'
_symmetry_Int_Tables_number      14
_space_group_name_Hall           '-P 2yn'
loop_
_symmetry_equiv_pos_site_id
_symmetry_equiv_pos_as_xyz
1 x,y,z
2 1/2-x,1/2+y,1/2-z
3 -x,-y,-z
4 1/2+x,1/2-y,1/2+z
_cell_length_a                   13.9727(4)
_cell_length_b                   11.3839(3)
_cell_length_c                   15.7589(5)
_cell_angle_alpha                90
_cell_angle_beta                 91.805(1)
_cell_angle_gamma                90
_cell_volume                     2505.43
loop_
_atom_site_label
_atom_site_type_symbol
_atom_site_fract_x
_atom_site_fract_y
_atom_site_fract_z
Zn1 Zn 0.422238(14) 0.728857(17) 0.623276(12)
O1 O 0.31350(8) 0.61677(11) 0.60320(8)
O2 O 0.22459(10) 0.72033(12) 0.69168(9)
O3 O 0.16102(9) 0.47890(11) 0.55800(8)
O4 O -0.04657(9) 0.73347(11) 0.24387(8)
O5 O 0.04941(10) 0.61292(12) 0.17759(8)
N1 N 0.35884(10) 0.87939(12) 0.55938(9)
N2 N 0.36258(11) 0.99868(13) 0.44679(10)
N3 N 0.49421(10) 0.73720(12) 0.50648(9)
N4 N 0.53471(10) 0.58271(13) 0.62703(9)
N5 N 0.64166(10) 0.48313(13) 0.55202(10)
C1 C 0.29357(12) 0.96995(15) 0.57029(11)
C2 C 0.23331(13) 0.99412(16) 0.63745(12)
H1 H 0.2294 0.9426 0.6846
C3 C 0.18006(13) 1.09569(17) 0.63228(13)
H2 H 0.1395 1.1151 0.6775
C4 C 0.18382(13) 1.17170(17) 0.56201(14)
H3 H 0.1460 1.2411 0.5610
C5 C 0.24138(13) 1.14745(16) 0.49445(13)
H4 H 0.2434 1.1978 0.4465
C6 C 0.29616(12) 1.04551(15) 0.50021(11)
C7 C 0.39800(12) 0.90166(15) 0.48560(11)
C8 C 0.47274(12) 0.82525(15) 0.45295(11)
C9 C 0.51828(12) 0.83822(15) 0.37603(11)
H5 H 0.5033 0.9024 0.3394
C10 C 0.58580(13) 0.75536(16) 0.35425(12)
H6 H 0.6172 0.7613 0.3018
C11 C 0.60739(13) 0.66342(16) 0.40960(11)
H7 H 0.6531 0.6054 0.3955
C12 C 0.56076(12) 0.65825(14) 0.48598(11)
C13 C 0.57888(12) 0.57316(14) 0.55394(11)
C14 C 0.63937(12) 0.42908(15) 0.63034(11)
C15 C 0.68990(13) 0.33328(17) 0.66429(12)
H8 H 0.7348 0.2908 0.6323
C16 C 0.67080(14) 0.30394(19) 0.74711(14)
H9 H 0.7045 0.2404 0.7732
C17 C 0.60301(15) 0.3654(2) 0.79374(13)
H10 H 0.5910 0.3411 0.8501
C18 C 0.55350(14) 0.45982(19) 0.76011(12)
H11 H 0.5081 0.5013 0.7922
C19 C 0.57264(13) 0.49230(16) 0.67693(11)
C20 C 0.23641(12) 0.63741(16) 0.64421(11)
C21 C 0.15786(13) 0.54521(17) 0.63434(12)
H12 H 0.1629 0.4906 0.6832
H13 H 0.0949 0.5849 0.6364
C22 C 0.12632(12) 0.53027(16) 0.48466(11)
C23 C 0.13065(13) 0.46024(16) 0.41267(12)
H14 H 0.1560 0.3829 0.4170
C24 C 0.09842(13) 0.50241(16) 0.33501(12)
H15 H 0.1042 0.4553 0.2857
C25 C 0.05729(12) 0.61395(15) 0.32832(11)
C26 C 0.05301(12) 0.68307(16) 0.40060(11)
H16 H 0.0252 0.7591 0.3966
C27 C 0.08878(12) 0.64315(16) 0.47883(11)
H17 H 0.0875 0.6923 0.5275
C28 C 0.01857(12) 0.65574(15) 0.24442(11)
H18 H 0.3875(14) 1.0325(18) 0.4025(14)
H19 H 0.6688(16) 0.4611(19) 0.5055(15)
Zn1C Zn -0.077762(14) 0.771143(17) 0.123276(12)
O4C O 0.45343(9) 0.76653(11) 0.74387(8)
loop_
_geom_bond_atom_site_label_1
_geom_bond_atom_site_label_2
_geom_bond_site_symmetry_1
_geom_bond_site_symmetry_2
Zn1 O1 1_555 1_555
O1 C20 1_555 1_555
O2 C20 1_555 1_555
O3 C21 1_555 1_555
O4 C28 1_555 1_555
O5 C28 1_555 1_555
N1 Zn1 1_555 1_555
N2 C6 1_555 1_555
N3 Zn1 1_555 1_555
N4 Zn1 1_555 1_555
N5 C13 1_555 1_555
C1 N1 1_555 1_555
C2 C1 1_555 1_555
H1 C2 1_555 1_555
C3 C2 1_555 1_555
H2 C3 1_555 1_555
C4 C3 1_555 1_555
H3 C4 1_555 1_555
C5 C4 1_555 1_555
H4 C5 1_555 1_555
C6 C1 1_555 1_555
C7 N1 1_555 1_555
C8 N3 1_555 1_555
C9 C8 1_555 1_555
H5 C9 1_555 1_555
C10 C9 1_555 1_555
H6 C10 1_555 1_555
C11 C10 1_555 1_555
H7 C11 1_555 1_555
C12 N3 1_555 1_555
C13 N4 1_555 1_555
C14 N5 1_555 1_555
C15 C14 1_555 1_555
H8 C15 1_555 1_555
C16 C15 1_555 1_555
H9 C16 1_555 1_555
C17 C16 1_555 1_555
H10 C17 1_555 1_555
C18 C17 1_555 1_555
H11 C18 1_555 1_555
C19 N4 1_555 1_555
C20 C21 1_555 1_555
C21 H12 1_555 1_555
H13 C21 1_555 1_555
C22 O3 1_555 1_555
C23 C22 1_555 1_555
H14 C23 1_555 1_555
C24 C23 1_555 1_555
H15 C24 1_555 1_555
C25 C24 1_555 1_555
C26 C25 1_555 1_555
H16 C26 1_555 1_555
C27 C22 1_555 1_555
H17 C27 1_555 1_555
C28 C25 1_555 1_555
H18 N2 1_555 1_555
H19 N5 1_555 1_555
Zn1C O4 1_555 1_555
O4C Zn1 1_555 1_555
N2 C7 1_555 1_555
C5 C6 1_555 1_555
C7 C8 1_555 1_555
C11 C12 1_555 1_555
C12 C13 1_555 1_555
C14 C19 1_555 1_555
C18 C19 1_555 1_555
C26 C27 1_555 1_555

#END
