
#######################################################################
#
#                 Cambridge Crystallographic Data Centre
#                                CCDC 
#
#######################################################################
#
# If this CIF has been generated from an entry in the Cambridge 
# Structural Database, then it will include bibliographic, chemical, 
# crystal, experimental, refinement or atomic coordinate data resulting 
# from the CCDC's data processing and validation procedures.
#
#######################################################################

data_SIKVIT
_symmetry_cell_setting           monoclinic
_symmetry_space_group_name_H-M   'P 21/c'
_symmetry_Int_Tables_number      14
_space_group_name_Hall           '-P 2ybc'
loop_
_symmetry_equiv_pos_site_id
_symmetry_equiv_pos_as_xyz
1 x,y,z
2 -x,1/2+y,1/2-z
3 -x,-y,-z
4 x,1/2-y,1/2+z
_cell_length_a                   8.6969(2)
_cell_length_b                   19.4441(3)
_cell_length_c                   10.5153(2)
_cell_angle_alpha                90
_cell_angle_beta                 105.3090(10)
_cell_angle_gamma                90
_cell_volume                     1715.08
loop_
_atom_site_label
_atom_site_type_symbol
_atom_site_fract_x
_atom_site_fract_y
_atom_site_fract_z
K1 K 0.0000 0.5000 0.5000
F1 F 0.14590(13) 0.38752(6) 0.94017(11)
F2 F 0.56253(12) 0.27984(5) 1.10709(10)
C1 C 0.4168(2) 0.36416(8) 0.95716(17)
C2 C 0.1148(2) 0.65022(10) 0.7058(2)
H1 H 0.2243 0.6327 0.7436
H2 H 0.0935 0.6867 0.7645
C3 C -0.1169(2) 0.51326(10) 0.80580(18)
H3 H -0.1163 0.4934 0.8927
H4 H -0.2214 0.5356 0.7685
C4 C 0.5408(2) 0.30581(9) 0.98578(17)
C5 C 0.1002(2) 0.67882(9) 0.5712(2)
H5 H -0.0121 0.6914 0.5293
H6 H 0.1663 0.7208 0.5776
C6 C 0.0149(2) 0.56476(11) 0.82085(18)
H7 H 0.0059 0.6003 0.8859
H8 H 0.1195 0.5417 0.8527
C7 C 0.1383(2) 0.65216(10) 0.36334(19)
H9 H 0.2041 0.6939 0.3659
H10 H 0.0259 0.6642 0.3204
C8 C 0.3351(2) 0.39358(10) 0.58383(18)
H11 H 0.3033 0.3698 0.5022
C9 C 0.3505(2) 0.35818(9) 0.70113(17)
H12 H 0.3291 0.3103 0.7005
C10 C 0.36601(19) 0.46379(10) 0.58551(17)
H13 H 0.3539 0.4878 0.5048
F3 F 0.26063(13) 0.31814(6) 1.09467(10)
C11 C 0.4145(2) 0.49906(9) 0.70437(18)
H14 H 0.4361 0.5470 0.7047
C12 C 0.1930(2) 0.59695(10) 0.28652(19)
H15 H 0.1881 0.6135 0.1965
H16 H 0.3046 0.5840 0.3303
O1 O 0.46995(15) 0.41357(6) 1.05467(11)
O2 O -0.09119(14) 0.46075(6) 0.71967(12)
F4 F 0.19862(13) 0.28415(6) 0.89290(11)
O3 O 0.15223(15) 0.62827(6) 0.49388(12)
O4 O 0.00273(14) 0.59572(6) 0.69612(12)
F5 F 0.68225(12) 0.32940(6) 0.97758(11)
C13 C 0.39776(19) 0.39399(9) 0.81983(17)
F6 F 0.50347(14) 0.25277(5) 0.90196(11)
C14 C 0.43135(19) 0.46438(9) 0.82253(16)
C15 C 0.2554(2) 0.33784(9) 0.97196(18)
Cu1 Cu 0.5000 0.5000 1.0000
C2B C -0.1148(2) 0.34978(10) 0.2942(2)
H1B H -0.2243 0.3673 0.2564
H2B H -0.0935 0.3133 0.2355
C3B C 0.1169(2) 0.48674(10) 0.19420(18)
H3B H 0.1163 0.5066 0.1073
H4B H 0.2214 0.4644 0.2315
C5B C -0.1002(2) 0.32118(9) 0.4288(2)
H5B H 0.0121 0.3086 0.4707
H6B H -0.1663 0.2792 0.4224
C6B C -0.0149(2) 0.43524(11) 0.17915(18)
H7B H -0.0059 0.3997 0.1141
H8B H -0.1195 0.4583 0.1473
C7B C -0.1383(2) 0.34784(10) 0.63666(19)
H9B H -0.2041 0.3061 0.6341
H10B H -0.0259 0.3358 0.6796
C12B C -0.1930(2) 0.40305(10) 0.71348(19)
H15B H -0.1881 0.3865 0.8035
H16B H -0.3046 0.4160 0.6697
O2B O 0.09119(14) 0.53925(6) 0.28033(12)
O3B O -0.15223(15) 0.37173(6) 0.50612(12)
O4B O -0.00273(14) 0.40428(6) 0.30388(12)
F1B F -0.14590(13) 0.61248(6) 0.05983(11)
F2B F -0.56253(12) 0.72016(5) -0.10709(10)
C1B C -0.4168(2) 0.63584(8) 0.04284(17)
C4B C -0.5408(2) 0.69419(9) 0.01422(17)
C8B C -0.3351(2) 0.60642(10) 0.41617(18)
H11B H -0.3033 0.6302 0.4978
C9B C -0.3505(2) 0.64182(9) 0.29887(17)
H12B H -0.3291 0.6897 0.2995
C10B C -0.36601(19) 0.53621(10) 0.41449(17)
H13B H -0.3539 0.5122 0.4952
F3B F -0.26063(13) 0.68186(6) -0.09467(10)
C11B C -0.4145(2) 0.50094(9) 0.29563(18)
H14B H -0.4361 0.4530 0.2953
O1B O -0.46995(15) 0.58643(6) -0.05467(11)
F4B F -0.19862(13) 0.71585(6) 0.10710(11)
F5B F -0.68225(12) 0.67060(6) 0.02242(11)
C13B C -0.39776(19) 0.60601(9) 0.18017(17)
F6B F -0.50347(14) 0.74723(5) 0.09804(11)
C14B C -0.43135(19) 0.53562(9) 0.17747(16)
C15B C -0.2554(2) 0.66216(9) 0.02804(18)
O1B_2 O 0.53005(15) 0.58643(6) 0.94533(11)
C14B_2 C 0.56865(19) 0.53562(9) 1.17747(16)
Cu1_2 Cu -0.5000 0.5000 0.0000
loop_
_geom_bond_atom_site_label_1
_geom_bond_atom_site_label_2
_geom_bond_site_symmetry_1
_geom_bond_site_symmetry_2
K1 C10 1_555 1_555
F1 C15 1_555 1_555
F2 C4 1_555 1_555
C1 C4 1_555 1_555
C2 H1 1_555 1_555
H2 C2 1_555 1_555
C3 H3 1_555 1_555
H4 C3 1_555 1_555
C4 F5 1_555 1_555
C5 C2 1_555 1_555
H5 C5 1_555 1_555
H6 C5 1_555 1_555
C6 C3 1_555 1_555
H7 C6 1_555 1_555
H8 C6 1_555 1_555
C7 H9 1_555 1_555
H10 C7 1_555 1_555
C8 H11 1_555 1_555
C9 C8 1_555 1_555
H12 C9 1_555 1_555
C10 C8 1_555 1_555
H13 C10 1_555 1_555
F3 C15 1_555 1_555
C11 C10 1_555 1_555
H14 C11 1_555 1_555
C12 C7 1_555 1_555
H15 C12 1_555 1_555
H16 C12 1_555 1_555
O1 C1 1_555 1_555
O2 K1 1_555 1_555
F4 C15 1_555 1_555
O3 K1 1_555 1_555
O4 K1 1_555 1_555
C13 C1 1_555 1_555
F6 C4 1_555 1_555
C14 C11 1_555 1_555
C15 C1 1_555 1_555
Cu1 O1 1_555 1_555
C2B H1B 1_555 1_555
H2B C2B 1_555 1_555
C3B H3B 1_555 1_555
H4B C3B 1_555 1_555
C5B C2B 1_555 1_555
H5B C5B 1_555 1_555
H6B C5B 1_555 1_555
C6B C3B 1_555 1_555
H7B C6B 1_555 1_555
H8B C6B 1_555 1_555
C7B H9B 1_555 1_555
H10B C7B 1_555 1_555
C12B O2 1_555 1_555
H15B C12B 1_555 1_555
H16B C12B 1_555 1_555
O2B K1 1_555 1_555
O3B K1 1_555 1_555
O4B K1 1_555 1_555
F1B C15B 1_555 1_555
F2B C4B 1_555 1_555
C1B C4B 1_555 1_555
C4B F5B 1_555 1_555
C8B H11B 1_555 1_555
C9B C8B 1_555 1_555
H12B C9B 1_555 1_555
C10B K1 1_555 1_555
H13B C10B 1_555 1_555
F3B C15B 1_555 1_555
C11B C10B 1_555 1_555
H14B C11B 1_555 1_555
O1B C1B 1_555 1_555
F4B C15B 1_555 1_555
C13B C1B 1_555 1_555
F6B C4B 1_555 1_555
C14B C11B 1_555 1_555
C15B C1B 1_555 1_555
O1B_2 Cu1 1_555 1_555
C14B_2 Cu1 1_555 1_555
Cu1_2 O1B 1_555 1_555
C2 O4 1_555 1_555
C3 O2 1_555 1_555
C5 O3 1_555 1_555
C6 O4 1_555 1_555
C7 O3 1_555 1_555
C9 C13 1_555 1_555
C12 O2B 1_555 1_555
C13 C14 1_555 1_555
C14 Cu1 1_555 1_555
C2B O4B 1_555 1_555
C3B O2B 1_555 1_555
C5B O3B 1_555 1_555
C6B O4B 1_555 1_555
C7B C12B 1_555 1_555
C7B O3B 1_555 1_555
C8B C10B 1_555 1_555
C9B C13B 1_555 1_555
C13B C14B 1_555 1_555
C14B Cu1_2 1_555 1_555

#END
