
#######################################################################
#
#                 Cambridge Crystallographic Data Centre
#                                CCDC 
#
#######################################################################
#
# If this CIF has been generated from an entry in the Cambridge 
# Structural Database, then it will include bibliographic, chemical, 
# crystal, experimental, refinement or atomic coordinate data resulting 
# from the CCDC's data processing and validation procedures.
#
#######################################################################

data_SIKYOB
_symmetry_cell_setting           monoclinic
_symmetry_space_group_name_H-M   'P 21/n'
_symmetry_Int_Tables_number      14
_space_group_name_Hall           '-P 2yn'
loop_
_symmetry_equiv_pos_site_id
_symmetry_equiv_pos_as_xyz
1 x,y,z
2 1/2-x,1/2+y,1/2-z
3 -x,-y,-z
4 1/2+x,1/2-y,1/2+z
_cell_length_a                   11.518(2)
_cell_length_b                   16.889(3)
_cell_length_c                   12.161(2)
_cell_angle_alpha                90
_cell_angle_beta                 111.59(3)
_cell_angle_gamma                90
_cell_volume                     2199.68
loop_
_atom_site_label
_atom_site_type_symbol
_atom_site_fract_x
_atom_site_fract_y
_atom_site_fract_z
Gd1 Gd 1.37305(3) -0.024450(17) 1.08166(3)
O1 O 1.5405(4) -0.1120(3) 1.1277(4)
O2 O 1.6579(4) -0.0985(3) 1.0182(4)
O3 O 1.8899(5) -0.4434(3) 1.4023(4)
O4 O 1.9898(5) -0.4369(3) 1.2789(4)
C1 C 1.6263(6) -0.1330(4) 1.0923(6)
C2 C 1.6970(6) -0.2068(4) 1.1491(6)
C3 C 1.6635(7) -0.2499(4) 1.2310(6)
H1 H 1.5962 -0.2337 1.2504
C4 C 1.7308(7) -0.3169(4) 1.2833(6)
H2 H 1.7082 -0.3455 1.3376
C5 C 1.8317(6) -0.3418(4) 1.2554(6)
C6 C 1.8643(6) -0.2996(4) 1.1728(6)
H3 H 1.9303 -0.3169 1.1523
C7 C 1.7990(6) -0.2319(4) 1.1210(6)
H4 H 1.8227 -0.2031 1.0676
C8 C 1.9090(6) -0.4119(4) 1.3161(6)
O5 O 1.2661(5) -0.1517(3) 1.0730(5)
H5 H 1.1911 -0.1536 1.0604
C9 C 1.3148(9) -0.2308(5) 1.0810(9)
H6 H 1.2500 -0.2682 1.0746
H7 H 1.3823 -0.2375 1.1556
H8 H 1.3447 -0.2394 1.0179
O6 O 1.2337(5) 0.0367(3) 1.1680(5)
H9 H 1.1805 0.0655 1.1220
C10 C 1.2564(9) 0.0608(6) 1.2846(8)
H10 H 1.1818 0.0836 1.2889
H11 H 1.3222 0.0994 1.3084
H12 H 1.2806 0.0158 1.3363
O7 O 1.4180(5) -0.0779(3) 1.2852(4)
H13 H 1.3827 -0.1204 1.2828
C11 C 1.5312(8) -0.0766(6) 1.3841(7)
H14 H 1.5204 -0.1040 1.4488
H15 H 1.5549 -0.0227 1.4066
H16 H 1.5954 -0.1021 1.3643
O8 O 1.1510(5) -0.0181(3) 0.9397(5)
H17 H 1.1060 -0.0538 0.9467
C12 C 1.0955(8) 0.0168(5) 0.8240(7)
H18 H 1.0069 0.0086 0.7946
H19 H 1.1299 -0.0074 0.7714
H20 H 1.1128 0.0726 0.8290
Gd1B Gd 1.62695(3) 0.024450(17) 0.91834(3)
Gd1C Gd 1.87305(3) -0.475550(17) 1.58166(3)
Gd1A Gd 2.12695(3) -0.524450(17) 1.41834(3)
Gd1C_2 Gd 0.87305(3) 0.524450(17) 0.58166(3)
Gd1A_2 Gd 1.12695(3) 0.475550(17) 0.41834(3)
O1B O 1.4595(4) 0.1120(3) 0.8723(4)
O2B O 1.3421(4) 0.0985(3) 0.9818(4)
O3B O 1.1101(5) 0.4434(3) 0.5977(4)
O3C O 1.3899(5) -0.0566(3) 0.9023(4)
O3A O 1.6101(5) 0.0566(3) 1.0977(4)
O4B O 1.0102(5) 0.4369(3) 0.7211(4)
O4A O 1.5102(5) 0.0631(3) 1.2211(4)
O4C O 1.4898(5) -0.0631(3) 0.7789(4)
C1B C 1.3737(6) 0.1330(4) 0.9077(6)
C2B C 1.3030(6) 0.2068(4) 0.8509(6)
C3B C 1.3365(7) 0.2499(4) 0.7690(6)
H1B H 1.4038 0.2337 0.7496
C4B C 1.2692(7) 0.3169(4) 0.7167(6)
H2B H 1.2918 0.3455 0.6624
C5B C 1.1683(6) 0.3418(4) 0.7446(6)
C6B C 1.1357(6) 0.2996(4) 0.8272(6)
H3B H 1.0697 0.3169 0.8477
C7B C 1.2010(6) 0.2319(4) 0.8790(6)
H4B H 1.1773 0.2031 0.9324
C8B C 1.0910(6) 0.4119(4) 0.6839(6)
O5B O 1.7339(5) 0.1517(3) 0.9270(5)
H5B H 1.8089 0.1536 0.9396
C9B C 1.6852(9) 0.2308(5) 0.9190(9)
H6B H 1.7500 0.2682 0.9254
H7B H 1.6177 0.2375 0.8444
H8B H 1.6553 0.2394 0.9821
O6B O 1.7663(5) -0.0367(3) 0.8320(5)
H9B H 1.8195 -0.0655 0.8780
C10B C 1.7436(9) -0.0608(6) 0.7154(8)
H10B H 1.8182 -0.0836 0.7111
H11B H 1.6778 -0.0994 0.6916
H12B H 1.7194 -0.0158 0.6637
O7B O 1.5820(5) 0.0779(3) 0.7148(4)
H13B H 1.6173 0.1204 0.7172
C11B C 1.4688(8) 0.0766(6) 0.6159(7)
H14B H 1.4796 0.1040 0.5512
H15B H 1.4451 0.0227 0.5934
H16B H 1.4046 0.1021 0.6357
O8B O 1.8490(5) 0.0181(3) 1.0603(5)
H17B H 1.8940 0.0538 1.0533
C12B C 1.9045(8) -0.0168(5) 1.1760(7)
H18B H 1.9931 -0.0086 1.2054
H19B H 1.8701 0.0074 1.2286
H20B H 1.8872 -0.0726 1.1710
Cl1 Cl 1.01644(17) 0.15848(12) 1.0513(2)
O9 O 1.3038(7) -0.1989(5) 1.3469(8)
H21 H 1.3413 -0.2160 1.4138
C13 C 1.1784(10) -0.2242(8) 1.3072(11)
H22 H 1.1277 -0.1891 1.2464
H23 H 1.1499 -0.2238 1.3720
H24 H 1.1723 -0.2769 1.2760
O10 O 1.0000 0.0000 0.5000
H25 H 0.9775 0.0251 0.4371
H25B H 1.0225 -0.0251 0.5629
loop_
_geom_bond_atom_site_label_1
_geom_bond_atom_site_label_2
_geom_bond_site_symmetry_1
_geom_bond_site_symmetry_2
Gd1 O1 1_555 1_555
O1 C1 1_555 1_555
O2 C1 1_555 1_555
O3 C8 1_555 1_555
O4 C8 1_555 1_555
C1 C2 1_555 1_555
C2 C3 1_555 1_555
C3 H1 1_555 1_555
C4 C3 1_555 1_555
H2 C4 1_555 1_555
C5 C4 1_555 1_555
C6 C5 1_555 1_555
H3 C6 1_555 1_555
C7 C2 1_555 1_555
H4 C7 1_555 1_555
C8 C5 1_555 1_555
O5 Gd1 1_555 1_555
H5 O5 1_555 1_555
C9 O5 1_555 1_555
H6 C9 1_555 1_555
H7 C9 1_555 1_555
H8 C9 1_555 1_555
O6 Gd1 1_555 1_555
H9 O6 1_555 1_555
C10 O6 1_555 1_555
H10 C10 1_555 1_555
H11 C10 1_555 1_555
H12 C10 1_555 1_555
O7 Gd1 1_555 1_555
H13 O7 1_555 1_555
C11 O7 1_555 1_555
H14 C11 1_555 1_555
H15 C11 1_555 1_555
H16 C11 1_555 1_555
O8 Gd1 1_555 1_555
H17 O8 1_555 1_555
C12 O8 1_555 1_555
H18 C12 1_555 1_555
H19 C12 1_555 1_555
H20 C12 1_555 1_555
O9 H21 1_555 1_555
C13 O9 1_555 1_555
H22 C13 1_555 1_555
H23 C13 1_555 1_555
H24 C13 1_555 1_555
O10 H25 1_555 1_555
Gd1B O2 1_555 1_555
Gd1C O3 1_555 1_555
Gd1A O3 1_555 1_555
Gd1C_2 O3B 1_555 1_555
Gd1A_2 O3B 1_555 1_555
O1B Gd1B 1_555 1_555
O2B Gd1 1_555 1_555
O3B C8B 1_555 1_555
O3C Gd1 1_555 1_555
O3A Gd1 1_555 1_555
O4B Gd1C_2 1_555 1_555
O4A Gd1 1_555 1_555
O4C Gd1B 1_555 1_555
C1B O1B 1_555 1_555
C2B C1B 1_555 1_555
C3B C2B 1_555 1_555
H1B C3B 1_555 1_555
C4B C3B 1_555 1_555
H2B C4B 1_555 1_555
C5B C4B 1_555 1_555
C6B C5B 1_555 1_555
H3B C6B 1_555 1_555
C7B C2B 1_555 1_555
H4B C7B 1_555 1_555
C8B O4B 1_555 1_555
O5B Gd1B 1_555 1_555
H5B O5B 1_555 1_555
C9B O5B 1_555 1_555
H6B C9B 1_555 1_555
H7B C9B 1_555 1_555
H8B C9B 1_555 1_555
O6B Gd1B 1_555 1_555
H9B O6B 1_555 1_555
C10B O6B 1_555 1_555
H10B C10B 1_555 1_555
H11B C10B 1_555 1_555
H12B C10B 1_555 1_555
O7B Gd1B 1_555 1_555
H13B O7B 1_555 1_555
C11B O7B 1_555 1_555
H14B C11B 1_555 1_555
H15B C11B 1_555 1_555
H16B C11B 1_555 1_555
O8B Gd1B 1_555 1_555
H17B O8B 1_555 1_555
C12B O8B 1_555 1_555
H18B C12B 1_555 1_555
H19B C12B 1_555 1_555
H20B C12B 1_555 1_555
H25B O10 1_555 1_555
O4 Gd1A 1_555 1_555
C6 C7 1_555 1_555
Gd1B O3C 1_555 1_555
Gd1B O3A 1_555 1_555
O2B C1B 1_555 1_555
C5B C8B 1_555 1_555
C6B C7B 1_555 1_555

#END
