
#######################################################################
#
#                 Cambridge Crystallographic Data Centre
#                                CCDC 
#
#######################################################################
#
# If this CIF has been generated from an entry in the Cambridge 
# Structural Database, then it will include bibliographic, chemical, 
# crystal, experimental, refinement or atomic coordinate data resulting 
# from the CCDC's data processing and validation procedures.
#
#######################################################################

data_SIKZAO
_symmetry_cell_setting           triclinic
_symmetry_space_group_name_H-M   'P -1'
_symmetry_Int_Tables_number      2
_space_group_name_Hall           '-P 1'
loop_
_symmetry_equiv_pos_site_id
_symmetry_equiv_pos_as_xyz
1 x,y,z
2 -x,-y,-z
_cell_length_a                   10.017(2)
_cell_length_b                   10.550(2)
_cell_length_c                   11.273(2)
_cell_angle_alpha                93.13(3)
_cell_angle_beta                 104.24(3)
_cell_angle_gamma                117.94(3)
_cell_volume                     999.852
loop_
_atom_site_label
_atom_site_type_symbol
_atom_site_fract_x
_atom_site_fract_y
_atom_site_fract_z
Eu1 Eu 0.73517(5) 0.62317(5) -0.94435(4)
O1 O 0.6216(8) 0.5430(7) -1.1617(6)
O2 O 0.3566(7) 0.4415(7) -1.2277(6)
O3 O 0.4849(7) 0.3434(6) -1.0047(6)
O4 O 0.7325(7) 0.3959(7) -0.9707(6)
O5 O 0.8575(8) 0.8416(7) -1.0461(7)
O6 O 0.9513(8) 0.6961(7) -1.0461(7)
O7 O 1.0032(9) 0.8576(7) -1.1654(7)
N1 N 0.9392(9) 0.7997(8) -1.0873(7)
C1 C 0.4925(11) 0.4943(10) -1.2464(9)
C2 C 0.4947(11) 0.4965(10) -1.3779(8)
C3 C 0.6376(12) 0.5477(11) -1.4033(9)
H1 H 0.7307 0.5806 -1.3378
C4 C 0.3558(12) 0.4493(11) -1.4770(9)
H2 H 0.2589 0.4159 -1.4615
C5 C 0.5896(11) 0.3036(9) -0.9914(8)
C6 C 0.5407(11) 0.1452(9) -0.9982(9)
C7 C 0.3936(12) 0.0463(10) -0.9898(10)
H3 H 0.3223 0.0769 -0.9825
C8 C 0.6470(12) 0.0997(10) -1.0075(10)
H4 H 0.7465 0.1669 -1.0121
O8 O 0.8523(8) 0.8583(7) -0.8000(6)
H5 H 0.9085 0.9317 -0.8234
C9 C 0.8294(19) 0.9008(14) -0.6869(13)
H6 H 0.8987 1.0042 -0.6562
H7 H 0.8531 0.8487 -0.6254
H8 H 0.7211 0.8780 -0.7033
O9 O 0.9748(8) 0.6593(8) -0.7900(6)
H9 H 0.9927 0.6913 -0.7165
C10 C 1.0827(14) 0.6079(14) -0.7995(12)
H10 H 1.1666 0.6426 -0.7219
H11 H 1.1269 0.6440 -0.8651
H12 H 1.0264 0.5028 -0.8180
Eu1A Eu 0.26483(5) 0.37683(5) -2.05565(4)
Eu1A_2 Eu 0.26483(5) 0.37683(5) -1.05565(4)
Eu1_2 Eu 0.73517(5) 0.62317(5) -1.94435(4)
Eu1_3 Eu 0.73517(5) -0.37683(5) -0.94435(4)
Eu1A_3 Eu 0.26483(5) -0.62317(5) -1.05565(4)
O1A O 0.3784(8) 0.4570(7) -1.8383(6)
O2A O 0.6434(7) 0.5585(7) -1.7723(6)
O2A_2 O 0.6434(7) 0.5585(7) -0.7723(6)
O2_2 O 0.3566(7) 0.4415(7) -2.2277(6)
O3A O 0.5151(7) -0.3434(6) -0.9953(6)
O3A_2 O 0.5151(7) 0.6566(6) -0.9953(6)
O3_2 O 0.4849(7) 0.3434(6) -2.0047(6)
O3A_3 O 0.5151(7) 0.6566(6) -1.9953(6)
O4A O 0.2675(7) -0.3959(7) -1.0293(6)
O4A_2 O 0.2675(7) 0.6041(7) -2.0293(6)
O5A O 0.1425(8) 0.1584(7) -1.9539(7)
O6A O 0.0487(8) 0.3039(7) -1.9539(7)
O7A O -0.0032(9) 0.1424(7) -1.8346(7)
N1A N 0.0608(9) 0.2003(8) -1.9127(7)
C1A C 0.5075(11) 0.5057(10) -1.7536(9)
C2A C 0.5053(11) 0.5035(10) -1.6221(8)
C3A C 0.3624(12) 0.4523(11) -1.5967(9)
H1A H 0.2693 0.4194 -1.6622
C4A C 0.6442(12) 0.5507(11) -1.5230(9)
H2A H 0.7411 0.5841 -1.5385
C5A C 0.4104(11) -0.3036(9) -1.0086(8)
C6A C 0.4593(11) -0.1452(9) -1.0018(9)
C7A C 0.6064(12) -0.0463(10) -1.0102(10)
H3A H 0.6777 -0.0769 -1.0175
C8A C 0.3530(12) -0.0997(10) -0.9925(10)
H4A H 0.2535 -0.1669 -0.9879
O8A O 0.1477(8) 0.1417(7) -2.2000(6)
H5A H 0.0915 0.0683 -2.1766
C9A C 0.1706(19) 0.0992(14) -2.3131(13)
H6A H 0.1013 -0.0042 -2.3438
H7A H 0.1469 0.1513 -2.3746
H8A H 0.2789 0.1220 -2.2967
O9A O 0.0252(8) 0.3407(8) -2.2100(6)
H9A H 0.0073 0.3087 -2.2835
C10A C -0.0827(14) 0.3921(14) -2.2005(12)
H10A H -0.1666 0.3574 -2.2781
H11A H -0.1269 0.3560 -2.1349
H12A H -0.0264 0.4972 -2.1820
N2 N 1.056(3) 0.704(3) -0.527(2)
C11 C 1.117(2) 0.702(2) -0.4208(16)
C12 C 1.221(3) 0.714(3) -0.307(2)
H13 H 1.1638 0.6838 -0.2475
H14 H 1.3051 0.8133 -0.2776
H15 H 1.2641 0.6516 -0.3188
O10 O 1.798(4) 1.076(4) -0.384(3)
H16 H 1.7706 1.1496 -0.4035
H17 H 1.8534 1.0652 -0.4387
O11? O 1.653(5) 0.922(5) -0.380(4)
H18? H 1.5787 0.9418 -0.3541
H19? H 1.6811 0.8649 -0.3268
loop_
_geom_bond_atom_site_label_1
_geom_bond_atom_site_label_2
_geom_bond_site_symmetry_1
_geom_bond_site_symmetry_2
Eu1 O1 1_555 1_555
O1 C1 1_555 1_555
O2 C1 1_555 1_555
O3 Eu1 1_555 1_555
O4 Eu1 1_555 1_555
O5 Eu1 1_555 1_555
O6 Eu1 1_555 1_555
O7 N1 1_555 1_555
N1 O5 1_555 1_555
C1 C2 1_555 1_555
C2 C3 1_555 1_555
C3 H1 1_555 1_555
C4 C2 1_555 1_555
H2 C4 1_555 1_555
C5 O3 1_555 1_555
C6 C5 1_555 1_555
C7 C6 1_555 1_555
H3 C7 1_555 1_555
C8 C6 1_555 1_555
H4 C8 1_555 1_555
O8 Eu1 1_555 1_555
H5 O8 1_555 1_555
C9 O8 1_555 1_555
H6 C9 1_555 1_555
H7 C9 1_555 1_555
H8 C9 1_555 1_555
O9 Eu1 1_555 1_555
H9 O9 1_555 1_555
C10 O9 1_555 1_555
H10 C10 1_555 1_555
H11 C10 1_555 1_555
H12 C10 1_555 1_555
N2 C11 1_555 1_555
C11 C12 1_555 1_555
C12 H13 1_555 1_555
H14 C12 1_555 1_555
H15 C12 1_555 1_555
O10 H16 1_555 1_555
H17 O10 1_555 1_555
Eu1A O1A 1_555 1_555
Eu1A_2 O2 1_555 1_555
Eu1_2 O2A 1_555 1_555
Eu1_3 O3A 1_555 1_555
Eu1A_3 O3A 1_555 1_555
O1A C1A 1_555 1_555
O2A C1A 1_555 1_555
O2A_2 Eu1 1_555 1_555
O2_2 Eu1A 1_555 1_555
O3A C5A 1_555 1_555
O3A_2 Eu1 1_555 1_555
O3_2 Eu1A 1_555 1_555
O3A_3 Eu1A 1_555 1_555
O4A Eu1A_3 1_555 1_555
O4A_2 Eu1A 1_555 1_555
O5A Eu1A 1_555 1_555
O6A Eu1A 1_555 1_555
O7A N1A 1_555 1_555
N1A O5A 1_555 1_555
C1A C2A 1_555 1_555
C2A C3A 1_555 1_555
C3A C4 1_555 1_555
H1A C3A 1_555 1_555
C4A C3 1_555 1_555
H2A C4A 1_555 1_555
C5A O4A 1_555 1_555
C6A C5A 1_555 1_555
C7A C8 1_555 1_555
H3A C7A 1_555 1_555
C8A C7 1_555 1_555
H4A C8A 1_555 1_555
O8A Eu1A 1_555 1_555
H5A O8A 1_555 1_555
C9A O8A 1_555 1_555
H6A C9A 1_555 1_555
H7A C9A 1_555 1_555
H8A C9A 1_555 1_555
O9A Eu1A 1_555 1_555
H9A O9A 1_555 1_555
C10A O9A 1_555 1_555
H10A C10A 1_555 1_555
H11A C10A 1_555 1_555
H12A C10A 1_555 1_555
O3 Eu1A_2 1_555 1_555
O4 C5 1_555 1_555
O6 N1 1_555 1_555
Eu1A_2 O3A_2 1_555 1_555
Eu1_2 O3_2 1_555 1_555
Eu1_2 O3A_3 1_555 1_555
O6A N1A 1_555 1_555
C2A C4A 1_555 1_555
C6A C7A 1_555 1_555
C6A C8A 1_555 1_555

#END
