
#######################################################################
#
#                 Cambridge Crystallographic Data Centre
#                                CCDC 
#
#######################################################################
#
# If this CIF has been generated from an entry in the Cambridge 
# Structural Database, then it will include bibliographic, chemical, 
# crystal, experimental, refinement or atomic coordinate data resulting 
# from the CCDC's data processing and validation procedures.
#
#######################################################################

data_SINTUF
_symmetry_cell_setting           monoclinic
_symmetry_space_group_name_H-M   'P 21/n'
_symmetry_Int_Tables_number      14
_space_group_name_Hall           '-P 2yn'
loop_
_symmetry_equiv_pos_site_id
_symmetry_equiv_pos_as_xyz
1 x,y,z
2 1/2-x,1/2+y,1/2-z
3 -x,-y,-z
4 1/2+x,1/2-y,1/2+z
_cell_length_a                   8.469(4)
_cell_length_b                   8.345(4)
_cell_length_c                   15.429(7)
_cell_angle_alpha                90
_cell_angle_beta                 92.409(7)
_cell_angle_gamma                90
_cell_volume                     1089.46
loop_
_atom_site_label
_atom_site_type_symbol
_atom_site_fract_x
_atom_site_fract_y
_atom_site_fract_z
Co1 Co 0.0000 0.0000 0.0000
N1 N 0.3671(3) -0.2826(3) 0.11926(15)
N2 N 0.4535(3) -0.2220(3) 0.05439(17)
N3 N 0.2026(3) -0.1306(3) 0.04479(16)
N4 N 0.3172(3) -0.6256(3) 0.08395(15)
N5 N 0.2513(3) -0.5472(3) 0.01353(16)
N6 N 0.1294(3) -0.7839(3) 0.03447(16)
N7 N 0.0940(3) 0.0278(3) -0.12518(16)
N8 N 0.2835(3) 0.0923(4) -0.23625(18)
N9 N 0.5377(4) -0.0466(4) -0.2524(2)
C1 C 0.3491(3) -0.1320(4) 0.0119(2)
H1 H 0.3736 -0.0735 -0.0371
C2 C 0.2199(3) -0.2269(3) 0.11270(19)
H2 H 0.1406 -0.2521 0.1503
C3 C 0.1397(3) -0.6471(3) -0.0132(2)
H3 H 0.0726 -0.6260 -0.0611
C4 C 0.2449(3) -0.7649(3) 0.09469(19)
H4 H 0.2712 -0.8386 0.1381
C5 C 0.4293(3) -0.4068(3) 0.17701(19)
H5 H 0.3548 -0.4265 0.2219
H6 H 0.5275 -0.3701 0.2049
C6 C 0.4589(3) -0.5623(3) 0.12900(19)
H7 H 0.5392 -0.5439 0.0871
H8 H 0.4994 -0.6416 0.1701
C7 C 0.1885(3) 0.0531(4) -0.17511(19)
C8 C 0.4168(3) 0.0144(4) -0.24286(19)
Co1_2 Co 0.0000 -1.0000 0.0000
Co1_3 Co 0.0000 1.0000 0.0000
N1B N -0.3671(3) 0.2826(3) -0.11926(15)
N2B N -0.4535(3) 0.2220(3) -0.05439(17)
N3B N -0.2026(3) 0.1306(3) -0.04479(16)
N4B N -0.3172(3) 0.6256(3) -0.08395(15)
N5B N -0.2513(3) 0.5472(3) -0.01353(16)
N6B N -0.1294(3) 0.7839(3) -0.03447(16)
N6_2 N 0.1294(3) 0.2161(3) 0.03447(16)
N6B_2 N -0.1294(3) -0.2161(3) -0.03447(16)
N7B N -0.0940(3) -0.0278(3) 0.12518(16)
N8B N -0.2835(3) -0.0923(4) 0.23625(18)
N9B N -0.5377(4) 0.0466(4) 0.2524(2)
C1B C -0.3491(3) 0.1320(4) -0.0119(2)
H1B H -0.3736 0.0735 0.0371
C2B C -0.2199(3) 0.2269(3) -0.11270(19)
H2B H -0.1406 0.2521 -0.1503
C3B C -0.1397(3) 0.6471(3) 0.0132(2)
H3B H -0.0726 0.6260 0.0611
C4B C -0.2449(3) 0.7649(3) -0.09469(19)
H4B H -0.2712 0.8386 -0.1381
C5B C -0.4293(3) 0.4068(3) -0.17701(19)
H5B H -0.3548 0.4265 -0.2219
H6B H -0.5275 0.3701 -0.2049
C6B C -0.4589(3) 0.5623(3) -0.12900(19)
H7B H -0.5392 0.5439 -0.0871
H8B H -0.4994 0.6416 -0.1701
C7B C -0.1885(3) -0.0531(4) 0.17511(19)
C8B C -0.4168(3) -0.0144(4) 0.24286(19)
loop_
_geom_bond_atom_site_label_1
_geom_bond_atom_site_label_2
_geom_bond_site_symmetry_1
_geom_bond_site_symmetry_2
Co1 N3 1_555 1_555
N1 N2 1_555 1_555
N2 C1 1_555 1_555
N3 C1 1_555 1_555
N4 N5 1_555 1_555
N5 C3 1_555 1_555
N6 C3 1_555 1_555
N7 Co1 1_555 1_555
N8 C7 1_555 1_555
N9 C8 1_555 1_555
C1 H1 1_555 1_555
C2 N1 1_555 1_555
H2 C2 1_555 1_555
C3 H3 1_555 1_555
C4 N4 1_555 1_555
H4 C4 1_555 1_555
C5 N1 1_555 1_555
H5 C5 1_555 1_555
H6 C5 1_555 1_555
C6 N4 1_555 1_555
H7 C6 1_555 1_555
H8 C6 1_555 1_555
C7 N7 1_555 1_555
C8 N8 1_555 1_555
Co1_2 N6 1_555 1_555
Co1_3 N6B 1_555 1_555
N1B N2B 1_555 1_555
N2B C1B 1_555 1_555
N3B Co1 1_555 1_555
N4B N5B 1_555 1_555
N5B C3B 1_555 1_555
N6B C3B 1_555 1_555
N6_2 Co1 1_555 1_555
N6B_2 Co1 1_555 1_555
N7B Co1 1_555 1_555
N8B C7B 1_555 1_555
N9B C8B 1_555 1_555
C1B N3B 1_555 1_555
H1B C1B 1_555 1_555
C2B N1B 1_555 1_555
H2B C2B 1_555 1_555
C3B H3B 1_555 1_555
C4B N4B 1_555 1_555
H4B C4B 1_555 1_555
C5B N1B 1_555 1_555
H5B C5B 1_555 1_555
H6B C5B 1_555 1_555
C6B N4B 1_555 1_555
H7B C6B 1_555 1_555
H8B C6B 1_555 1_555
C7B N7B 1_555 1_555
C8B N8B 1_555 1_555
N3 C2 1_555 1_555
N6 C4 1_555 1_555
C5 C6 1_555 1_555
N3B C2B 1_555 1_555
N6B C4B 1_555 1_555
C5B C6B 1_555 1_555

#END
