
#######################################################################
#
#                 Cambridge Crystallographic Data Centre
#                                CCDC 
#
#######################################################################
#
# If this CIF has been generated from an entry in the Cambridge 
# Structural Database, then it will include bibliographic, chemical, 
# crystal, experimental, refinement or atomic coordinate data resulting 
# from the CCDC's data processing and validation procedures.
#
#######################################################################

data_SINXUK
_symmetry_cell_setting           triclinic
_symmetry_space_group_name_H-M   'P -1'
_symmetry_Int_Tables_number      2
_space_group_name_Hall           '-P 1'
loop_
_symmetry_equiv_pos_site_id
_symmetry_equiv_pos_as_xyz
1 x,y,z
2 -x,-y,-z
_cell_length_a                   13.959(5)
_cell_length_b                   16.972(5)
_cell_length_c                   17.647(5)
_cell_angle_alpha                85.970(5)
_cell_angle_beta                 81.353(5)
_cell_angle_gamma                86.316(5)
_cell_volume                     4116.93
loop_
_atom_site_label
_atom_site_type_symbol
_atom_site_fract_x
_atom_site_fract_y
_atom_site_fract_z
Ag2 Ag 0.62096(10) 1.02563(8) 0.75356(8)
Ag3 Ag 1.15400(9) 0.75031(7) 0.66761(7)
C25 C 0.9689(11) 0.8729(8) 0.6537(8)
C26 C 0.9302(11) 0.7934(8) 0.6696(8)
C27 C 0.8298(11) 0.7802(8) 0.6739(8)
C28 C 0.9066(11) 0.9380(8) 0.6387(8)
C29 C 0.8655(11) 0.6428(9) 0.6942(8)
H13 H 0.8457 0.5914 0.7046
C30 C 0.7964(11) 0.7056(8) 0.6898(8)
H14 H 0.7304 0.6973 0.6974
C31 C 0.7628(11) 0.8477(9) 0.6642(8)
C32 C 1.0954(11) 0.9530(8) 0.6465(8)
H15 H 1.1607 0.9571 0.6500
C33 C 1.0430(11) 1.0190(9) 0.6297(8)
H16 H 1.0701 1.0680 0.6207
C34 C 1.2787(11) 0.8684(8) 0.5349(8)
H17 H 1.2347 0.8563 0.5033
C35 C 1.3406(10) 0.9322(8) 0.5126(8)
H18 H 1.3408 0.9586 0.4646
C36 C 1.4062(10) 0.9090(8) 0.6298(8)
C37 C 1.3470(10) 0.8483(8) 0.6465(8)
C38 C 1.3488(10) 0.8000(8) 0.7198(8)
C39 C 1.4091(10) 0.8117(8) 0.7714(8)
C40 C 1.4089(10) 0.7645(8) 0.8404(8)
H19 H 1.4494 0.7748 0.8755
C41 C 1.3494(10) 0.7042(8) 0.8547(8)
H20 H 1.3506 0.6708 0.8987
C42 C 1.2863(10) 0.6921(8) 0.8035(7)
H21 H 1.2437 0.6515 0.8145
C43 C 1.4005(11) 0.9551(8) 0.5621(8)
H22 H 1.4360 1.0001 0.5504
C44 C 1.4730(10) 0.8809(8) 0.7557(8)
C45 C 0.4652(11) 1.0478(10) 0.9085(9)
H23 H 0.4504 0.9965 0.9014
C46 C 0.5494(11) 1.1611(9) 0.8727(9)
C47 C 0.5049(11) 1.1999(9) 0.9296(9)
C48 C 0.6604(11) 1.2729(9) 0.8254(9)
C49 C 0.7344(11) 1.3001(9) 0.7724(9)
H24 H 0.7533 1.3514 0.7743
C50 C 0.7788(11) 1.2562(9) 0.7194(9)
H25 H 0.8329 1.2738 0.6868
C51 C 0.7453(11) 1.1836(9) 0.7120(9)
H26 H 0.7745 1.1549 0.6709
C52 C 0.5285(11) 1.2741(9) 0.9413(9)
C53 C 0.6307(11) 1.1948(9) 0.8135(9)
C54 C 0.9624(11) 0.6567(8) 0.6831(8)
H27 H 1.0070 0.6137 0.6844
C55 C 0.6010(11) 1.3155(9) 0.8900(9)
C56 C 0.4324(11) 1.1583(9) 0.9843(9)
H28 H 0.3969 1.1823 1.0262
C57 C 0.4215(11) 1.0851(9) 0.9699(9)
H29 H 0.3793 1.0563 1.0055
C58 C 0.8016(11) 0.9309(9) 0.6446(8)
C59 C 0.9493(11) 1.0100(9) 0.6267(8)
H30 H 0.9104 1.0547 0.6160
C60 C 1.4658(9) 0.9315(7) 0.6824(7)
N5 N 1.0586(9) 0.8803(7) 0.6586(6)
N6 N 0.9966(9) 0.7311(7) 0.6702(6)
N7 N 1.2855(8) 0.7396(6) 0.7359(6)
N8 N 1.2835(8) 0.8258(7) 0.6014(6)
N9 N 0.6745(9) 1.1522(7) 0.7594(7)
N10 N 0.5321(9) 1.0861(7) 0.8563(7)
P1 P 1.0000 1.0000 1.0000
W1 W 0.83720(3) 0.96624(3) 0.87006(2)
W2 W 1.04131(3) 0.83311(2) 0.88479(2)
W3 W 0.84565(3) 0.83892(2) 1.03936(3)
W4 W 0.79759(3) 1.13443(3) 0.98325(3)
W5 W 0.99439(4) 1.12540(2) 0.82924(2)
W6 W 1.19876(3) 0.99239(3) 0.84785(3)
O5 O 0.7052(6) 1.1980(5) 0.9760(5)
O6 O 1.0616(7) 0.7540(5) 0.8330(5)
O7 O 0.9468(6) 0.7986(5) 0.9661(5)
O8 O 1.2917(6) 0.9874(5) 0.7769(5)
O9 O 0.7610(6) 0.9496(5) 0.8085(5)
O10 O 0.9399(6) 0.8924(4) 0.8422(4)
O11 O 0.9288(6) 0.8188(5) 1.1153(5)
O12 O 0.7985(6) 0.8964(5) 0.9551(5)
O13 O 0.9154(6) 1.0446(5) 0.8137(5)
O14 O 0.9915(6) 1.1829(5) 0.7490(4)
O15 O 1.1305(6) 0.8129(5) 0.9542(5)
O16 O 0.7713(6) 0.7639(5) 1.0555(5)
O17 O 0.8900(6) 1.1645(5) 0.8963(5)
O18 O 0.7715(6) 1.0496(5) 0.9260(5)
O19 O 0.7797(6) 0.9175(5) 1.1013(5)
O20 O 1.1275(6) 0.9057(5) 0.8305(5)
O21 O 0.7506(6) 1.0698(5) 1.0733(5)
O22 O 1.1024(7) 1.0555(5) 0.8038(5)
O23 O 0.9334(11) 1.0389(9) 0.9416(9)
O24 O 0.9546(12) 0.9374(9) 0.9643(9)
O25 O 1.0603(11) 1.0483(8) 0.9376(9)
O26 O 1.0789(11) 0.9449(8) 0.9556(8)
O27 O 0.6775(8) 0.8439(7) 0.6724(6)
O28 O 0.6177(9) 1.3813(7) 0.8953(7)
O29 O 0.4881(9) 1.3129(7) 0.9984(7)
O30 O 1.5227(7) 0.8983(5) 0.8020(5)
O31 O 0.7454(7) 0.9879(6) 0.6350(5)
O32 O 1.5144(6) 0.9933(5) 0.6719(5)
O23A O 1.0666(11) 0.9611(9) 1.0584(9)
O24A O 1.0454(12) 1.0626(9) 1.0357(9)
O25A O 0.9397(11) 0.9517(8) 1.0624(9)
O26A O 0.9211(11) 1.0551(8) 1.0444(8)
Ag2A Ag 1.37904(10) 0.97437(8) 1.24644(8)
Ag3A Ag 0.84600(9) 1.24969(7) 1.33239(7)
C25A C 1.0311(11) 1.1271(8) 1.3463(8)
C26A C 1.0698(11) 1.2066(8) 1.3304(8)
C27A C 1.1702(11) 1.2198(8) 1.3261(8)
C28A C 1.0934(11) 1.0620(8) 1.3613(8)
C29A C 1.1345(11) 1.3572(9) 1.3058(8)
H13A H 1.1543 1.4086 1.2954
C30A C 1.2036(11) 1.2944(8) 1.3102(8)
H14A H 1.2696 1.3027 1.3026
C31A C 1.2372(11) 1.1523(9) 1.3358(8)
C32A C 0.9046(11) 1.0470(8) 1.3535(8)
H15A H 0.8393 1.0429 1.3500
C33A C 0.9570(11) 0.9810(9) 1.3703(8)
H16A H 0.9299 0.9320 1.3793
C34A C 0.7213(11) 1.1316(8) 1.4651(8)
H17A H 0.7653 1.1437 1.4967
C35A C 0.6594(10) 1.0678(8) 1.4874(8)
H18A H 0.6592 1.0414 1.5354
C36A C 0.5938(10) 1.0910(8) 1.3702(8)
C37A C 0.6530(10) 1.1517(8) 1.3535(8)
C38A C 0.6512(10) 1.2000(8) 1.2802(8)
C39A C 0.5909(10) 1.1883(8) 1.2286(8)
C40A C 0.5911(10) 1.2355(8) 1.1596(8)
H19A H 0.5506 1.2252 1.1245
C41A C 0.6506(10) 1.2958(8) 1.1453(8)
H20A H 0.6494 1.3292 1.1013
C42A C 0.7137(10) 1.3079(8) 1.1965(7)
H21A H 0.7563 1.3485 1.1855
C43A C 0.5995(11) 1.0449(8) 1.4379(8)
H22A H 0.5640 0.9999 1.4496
C44A C 0.5270(10) 1.1191(8) 1.2443(8)
C45A C 1.5348(11) 0.9522(10) 1.0915(9)
H23A H 1.5496 1.0035 1.0986
C46A C 1.4506(11) 0.8389(9) 1.1273(9)
C47A C 1.4951(11) 0.8001(9) 1.0704(9)
C48A C 1.3396(11) 0.7271(9) 1.1746(9)
C49A C 1.2656(11) 0.6999(9) 1.2276(9)
H24A H 1.2467 0.6486 1.2257
C50A C 1.2212(11) 0.7438(9) 1.2806(9)
H25A H 1.1671 0.7262 1.3132
C51A C 1.2547(11) 0.8164(9) 1.2880(9)
H26A H 1.2255 0.8451 1.3291
C52A C 1.4715(11) 0.7259(9) 1.0587(9)
C53A C 1.3693(11) 0.8052(9) 1.1865(9)
C54A C 1.0376(11) 1.3433(8) 1.3169(8)
H27A H 0.9930 1.3863 1.3156
C55A C 1.3990(11) 0.6845(9) 1.1100(9)
C56A C 1.5676(11) 0.8417(9) 1.0157(9)
H28A H 1.6031 0.8177 0.9738
C57A C 1.5785(11) 0.9149(9) 1.0301(9)
H29A H 1.6207 0.9437 0.9945
C58A C 1.1984(11) 1.0691(9) 1.3554(8)
C59A C 1.0507(11) 0.9900(9) 1.3733(8)
H30A H 1.0896 0.9453 1.3840
C60A C 0.5342(9) 1.0685(7) 1.3176(7)
N5A N 0.9414(9) 1.1197(7) 1.3414(6)
N6A N 1.0034(9) 1.2689(7) 1.3298(6)
N7A N 0.7145(8) 1.2604(6) 1.2641(6)
N8A N 0.7165(8) 1.1742(7) 1.3986(6)
N9A N 1.3255(9) 0.8478(7) 1.2406(7)
N10A N 1.4679(9) 0.9139(7) 1.1437(7)
W1A W 1.16280(3) 1.03376(3) 1.12994(2)
W2A W 0.95869(3) 1.16689(2) 1.11521(2)
W3A W 1.15435(3) 1.16108(2) 0.96064(3)
W4A W 1.20241(3) 0.86557(3) 1.01675(3)
W5A W 1.00561(4) 0.87460(2) 1.17076(2)
W6A W 0.80124(3) 1.00761(3) 1.15215(3)
O5A O 1.2948(6) 0.8020(5) 1.0240(5)
O6A O 0.9384(7) 1.2460(5) 1.1670(5)
O7A O 1.0532(6) 1.2014(5) 1.0339(5)
O8A O 0.7083(6) 1.0126(5) 1.2231(5)
O9A O 1.2390(6) 1.0504(5) 1.1915(5)
O10A O 1.0601(6) 1.1076(4) 1.1578(4)
O11A O 1.0712(6) 1.1812(5) 0.8847(5)
O12A O 1.2015(6) 1.1036(5) 1.0449(5)
O13A O 1.0846(6) 0.9554(5) 1.1863(5)
O14A O 1.0085(6) 0.8171(5) 1.2510(4)
O15A O 0.8695(6) 1.1871(5) 1.0458(5)
O16A O 1.2287(6) 1.2361(5) 0.9445(5)
O17A O 1.1100(6) 0.8355(5) 1.1037(5)
O18A O 1.2285(6) 0.9504(5) 1.0740(5)
O19A O 1.2203(6) 1.0825(5) 0.8987(5)
O20A O 0.8725(6) 1.0943(5) 1.1695(5)
O21A O 1.2494(6) 0.9302(5) 0.9267(5)
O22A O 0.8976(7) 0.9445(5) 1.1962(5)
O27A O 1.3225(8) 1.1561(7) 1.3276(6)
O28A O 1.3823(9) 0.6187(7) 1.1047(7)
O29A O 1.5119(9) 0.6871(7) 1.0016(7)
O30A O 0.4773(7) 1.1017(5) 1.1980(5)
O31A O 1.2546(7) 1.0121(6) 1.3650(5)
O32A O 0.4856(6) 1.0067(5) 1.3281(5)
Ag2_2 Ag 1.62096(10) 1.02563(8) 0.75356(8)
Ag2A_2 Ag 0.37904(10) 0.97437(8) 1.24644(8)
O30_2 O 0.5227(7) 0.8983(5) 0.8020(5)
O30A_2 O 1.4773(7) 1.1017(5) 1.1980(5)
O32_2 O 0.5144(6) 0.9933(5) 0.6719(5)
O32A_2 O 1.4856(6) 1.0067(5) 1.3281(5)
P2 P 0.5000 0.5000 0.5000
W7 W 0.51673(4) 0.62446(3) 0.32822(3)
W8 W 0.53245(4) 0.57870(3) 0.67643(3)
W9 W 0.70207(4) 0.47387(3) 0.35248(3)
W10 W 0.73229(4) 0.55716(3) 0.52686(3)
W11 W 0.54409(4) 0.70396(3) 0.50539(3)
W12 W 0.68717(4) 0.35278(3) 0.52643(3)
O33 O 0.6716(6) 0.6553(5) 0.5006(5)
O34 O 0.6634(6) 0.5648(5) 0.6256(5)
O35 O 0.7755(7) 0.2856(5) 0.5388(5)
O36 O 0.5245(7) 0.6817(5) 0.2471(5)
O37 O 0.7968(6) 0.4601(5) 0.2830(5)
O38 O 0.5475(7) 0.6141(5) 0.7591(5)
O39 O 0.3946(6) 0.5795(5) 0.6845(5)
O40 O 0.8417(6) 0.5818(5) 0.5396(5)
O41 O 0.4687(6) 0.5299(5) 0.2982(5)
O42 O 0.6401(6) 0.5701(5) 0.3183(5)
O43 O 0.5588(7) 0.6890(5) 0.3972(5)
O44 O 0.5622(7) 0.8006(5) 0.5072(5)
O45 O 0.4076(6) 0.7062(5) 0.5038(5)
O46 O 0.7399(6) 0.4455(5) 0.5490(5)
O47 O 0.6150(12) 0.4802(9) 0.4799(9)
O48 O 0.7514(7) 0.5345(5) 0.4221(5)
O49 O 0.3881(6) 0.6476(5) 0.3780(5)
O50 O 0.7202(6) 0.3853(5) 0.4202(5)
O51 O 0.5220(6) 0.6722(5) 0.6101(5)
O52 O 0.5528(12) 0.5601(9) 0.5379(9)
O53 O 0.5279(12) 0.5053(9) 0.4178(9)
O54 O 0.4852(12) 0.5825(9) 0.4634(9)
O47A O 0.3850(12) 0.5198(9) 0.5201(9)
O52A O 0.4472(12) 0.4399(9) 0.4621(9)
O53A O 0.4721(12) 0.4947(9) 0.5822(9)
O54A O 0.5148(12) 0.4175(9) 0.5366(9)
W7A W 0.48327(4) 0.37554(3) 0.67178(3)
W8A W 0.46755(4) 0.42130(3) 0.32357(3)
W9A W 0.29793(4) 0.52613(3) 0.64752(3)
W10A W 0.26771(4) 0.44284(3) 0.47314(3)
W11A W 0.45591(4) 0.29604(3) 0.49461(3)
W12A W 0.31283(4) 0.64722(3) 0.47357(3)
O33A O 0.3284(6) 0.3447(5) 0.4994(5)
O34A O 0.3366(6) 0.4352(5) 0.3744(5)
O35A O 0.2245(7) 0.7144(5) 0.4612(5)
O36A O 0.4755(7) 0.3183(5) 0.7529(5)
O37A O 0.2032(6) 0.5399(5) 0.7170(5)
O38A O 0.4525(7) 0.3859(5) 0.2409(5)
O39A O 0.6054(6) 0.4205(5) 0.3155(5)
O40A O 0.1583(6) 0.4182(5) 0.4604(5)
O41A O 0.5313(6) 0.4701(5) 0.7018(5)
O42A O 0.3599(6) 0.4299(5) 0.6817(5)
O43A O 0.4412(7) 0.3110(5) 0.6028(5)
O44A O 0.4378(7) 0.1994(5) 0.4928(5)
O45A O 0.5924(6) 0.2938(5) 0.4962(5)
O46A O 0.2601(6) 0.5545(5) 0.4510(5)
O48A O 0.2486(7) 0.4655(5) 0.5779(5)
O49A O 0.6119(6) 0.3524(5) 0.6220(5)
O50A O 0.2798(6) 0.6147(5) 0.5798(5)
O51A O 0.4780(6) 0.3278(5) 0.3899(5)
O55 O 0.1745(6) 0.3017(5) 1.1265(5)
Ag1 Ag 0.17761(11) 0.36778(7) 0.80455(6)
C1 C 0.1950(11) 0.2537(8) 0.6690(8)
C2 C 0.1141(11) 0.3112(8) 0.6528(8)
C3 C -0.0127(11) 0.3568(8) 0.5812(8)
H1 H -0.0493 0.3523 0.5420
C4 C 0.0627(11) 0.3032(8) 0.5900(8)
C5 C 0.2301(11) 0.1929(8) 0.6192(8)
C6 C 0.0845(13) 0.4024(9) 0.9748(9)
C7 C 0.1887(13) 0.4290(9) 0.9670(9)
C8 C 0.2248(13) 0.4560(9) 1.0292(10)
C9 C 0.3211(13) 0.4770(9) 1.0164(10)
H2 H 0.3496 0.4904 1.0577
C10 C 0.3081(11) 0.2119(8) 0.7459(8)
H3 H 0.3390 0.2177 0.7882
C11 C 0.3063(11) 0.1433(8) 0.6390(8)
H4 H 0.3317 0.1033 0.6072
C12 C 0.0889(11) 0.2358(8) 0.5455(8)
C13 C 0.1785(11) 0.1848(8) 0.5514(8)
C14 C -0.0704(13) 0.3878(9) 1.0476(10)
H5 H -0.1150 0.3904 1.0923
C15 C 0.0265(14) 0.4101(9) 1.0465(10)
C16 C 0.3738(14) 0.4783(9) 0.9460(9)
H6 H 0.4366 0.4956 0.9368
C17 C -0.0346(11) 0.4168(9) 0.6296(8)
H7 H -0.0853 0.4538 0.6233
C18 C 0.3414(11) 0.1516(8) 0.6986(8)
H8 H 0.3910 0.1164 0.7115
C19 C 0.0203(11) 0.4215(8) 0.6882(8)
H9 H 0.0058 0.4628 0.7207
C20 C 0.3293(12) 0.4527(8) 0.8881(9)
H10 H 0.3654 0.4537 0.8393
C21 C -0.0300(13) 0.3558(9) 0.9222(10)
H11 H -0.0504 0.3338 0.8809
C22 C -0.0959(14) 0.3637(9) 0.9852(10)
H12 H -0.1599 0.3519 0.9844
C23 C 0.0652(14) 0.4388(9) 1.1105(10)
C24 C 0.1591(14) 0.4595(9) 1.1032(10)
N1 N 0.2347(9) 0.2617(6) 0.7340(6)
N2 N 0.0911(9) 0.3706(7) 0.6997(6)
N3 N 0.0587(11) 0.3756(7) 0.9130(8)
N4 N 0.2413(10) 0.4268(7) 0.8948(7)
O1 O 0.0332(8) 0.2179(6) 0.5018(6)
O2 O 0.2119(8) 0.1342(6) 0.5053(6)
O3 O 0.1949(10) 0.4850(7) 1.1607(7)
O4 O -0.0011(10) 0.4488(7) 1.1707(7)
loop_
_geom_bond_atom_site_label_1
_geom_bond_atom_site_label_2
_geom_bond_site_symmetry_1
_geom_bond_site_symmetry_2
Ag1 N1 1_555 1_555
C1 C2 1_555 1_555
C2 C4 1_555 1_555
C3 H1 1_555 1_555
C4 C3 1_555 1_555
C5 C1 1_555 1_555
C6 C7 1_555 1_555
C7 C8 1_555 1_555
C8 C9 1_555 1_555
C9 H2 1_555 1_555
C10 H3 1_555 1_555
C11 C5 1_555 1_555
H4 C11 1_555 1_555
C12 C4 1_555 1_555
C13 C5 1_555 1_555
C14 H5 1_555 1_555
C15 C6 1_555 1_555
C16 C9 1_555 1_555
H6 C16 1_555 1_555
C17 C3 1_555 1_555
H7 C17 1_555 1_555
C18 C10 1_555 1_555
H8 C18 1_555 1_555
C19 C17 1_555 1_555
H9 C19 1_555 1_555
C20 C16 1_555 1_555
H10 C20 1_555 1_555
C21 H11 1_555 1_555
C22 C14 1_555 1_555
H12 C22 1_555 1_555
C23 C15 1_555 1_555
C24 C8 1_555 1_555
N1 C1 1_555 1_555
N2 Ag1 1_555 1_555
N3 Ag1 1_555 1_555
N4 Ag1 1_555 1_555
O1 C12 1_555 1_555
O2 C13 1_555 1_555
O3 C24 1_555 1_555
O4 C23 1_555 1_555
Ag2 N9 1_555 1_555
Ag3 N5 1_555 1_555
C25 C26 1_555 1_555
C26 C27 1_555 1_555
C27 C30 1_555 1_555
C28 C25 1_555 1_555
C29 H13 1_555 1_555
C30 C29 1_555 1_555
H14 C30 1_555 1_555
C31 C27 1_555 1_555
C32 H15 1_555 1_555
C33 C32 1_555 1_555
H16 C33 1_555 1_555
C34 H17 1_555 1_555
C35 C34 1_555 1_555
H18 C35 1_555 1_555
C36 C37 1_555 1_555
C37 C38 1_555 1_555
C38 C39 1_555 1_555
C39 C40 1_555 1_555
C40 H19 1_555 1_555
C41 C40 1_555 1_555
H20 C41 1_555 1_555
C42 C41 1_555 1_555
H21 C42 1_555 1_555
C43 C35 1_555 1_555
H22 C43 1_555 1_555
C44 C39 1_555 1_555
C45 H23 1_555 1_555
C46 C47 1_555 1_555
C47 C52 1_555 1_555
C48 C49 1_555 1_555
C49 H24 1_555 1_555
C50 C49 1_555 1_555
H25 C50 1_555 1_555
C51 C50 1_555 1_555
H26 C51 1_555 1_555
C52 C55 1_555 1_555
C53 C46 1_555 1_555
C54 C29 1_555 1_555
H27 C54 1_555 1_555
C55 C48 1_555 1_555
C56 C47 1_555 1_555
H28 C56 1_555 1_555
C57 C45 1_555 1_555
H29 C57 1_555 1_555
C58 C28 1_555 1_555
C59 C28 1_555 1_555
H30 C59 1_555 1_555
C60 C36 1_555 1_555
N5 C25 1_555 1_555
N6 Ag3 1_555 1_555
N7 Ag3 1_555 1_555
N8 Ag3 1_555 1_555
N9 C51 1_555 1_555
N10 Ag2 1_555 1_555
P1 O23 1_555 1_555
W1 O9 1_555 1_555
W2 O6 1_555 1_555
W3 O7 1_555 1_555
W4 O5 1_555 1_555
W5 O13 1_555 1_555
W6 O8 1_555 1_555
O7 W2 1_555 1_555
O9 Ag2 1_555 1_555
O10 W1 1_555 1_555
O11 W3 1_555 1_555
O12 W1 1_555 1_555
O13 W1 1_555 1_555
O14 W5 1_555 1_555
O15 W2 1_555 1_555
O16 W3 1_555 1_555
O17 W4 1_555 1_555
O18 W1 1_555 1_555
O19 W3 1_555 1_555
O20 W2 1_555 1_555
O21 W4 1_555 1_555
O22 W5 1_555 1_555
O23 W1 1_555 1_555
O24 P1 1_555 1_555
O25 P1 1_555 1_555
O26 P1 1_555 1_555
O27 C31 1_555 1_555
O28 C55 1_555 1_555
O29 C52 1_555 1_555
O30 C44 1_555 1_555
O31 Ag2 1_555 1_555
O32 C60 1_555 1_555
P2 O47 1_555 1_555
W7 O36 1_555 1_555
W8 O34 1_555 1_555
W9 O37 1_555 1_555
W10 O33 1_555 1_555
W11 O33 1_555 1_555
W12 O35 1_555 1_555
O34 W10 1_555 1_555
O38 W8 1_555 1_555
O39 W8 1_555 1_555
O40 W10 1_555 1_555
O41 W7 1_555 1_555
O42 W7 1_555 1_555
O43 W7 1_555 1_555
O44 W11 1_555 1_555
O45 W11 1_555 1_555
O46 W10 1_555 1_555
O47 W9 1_555 1_555
O48 W9 1_555 1_555
O49 W7 1_555 1_555
O50 W9 1_555 1_555
O51 W8 1_555 1_555
O52 P2 1_555 1_555
O53 P2 1_555 1_555
O54 P2 1_555 1_555
O23A P1 1_555 1_555
O24A P1 1_555 1_555
O25A P1 1_555 1_555
O26A P1 1_555 1_555
Ag2A N9A 1_555 1_555
Ag3A N5A 1_555 1_555
C25A C26A 1_555 1_555
C26A C27A 1_555 1_555
C27A C30A 1_555 1_555
C28A C25A 1_555 1_555
C29A H13A 1_555 1_555
C30A C29A 1_555 1_555
H14A C30A 1_555 1_555
C31A C27A 1_555 1_555
C32A H15A 1_555 1_555
C33A C32A 1_555 1_555
H16A C33A 1_555 1_555
C34A H17A 1_555 1_555
C35A C34A 1_555 1_555
H18A C35A 1_555 1_555
C36A C37A 1_555 1_555
C37A C38A 1_555 1_555
C38A C39A 1_555 1_555
C39A C40A 1_555 1_555
C40A H19A 1_555 1_555
C41A C40A 1_555 1_555
H20A C41A 1_555 1_555
C42A C41A 1_555 1_555
H21A C42A 1_555 1_555
C43A C35A 1_555 1_555
H22A C43A 1_555 1_555
C44A C39A 1_555 1_555
C45A H23A 1_555 1_555
C46A C47A 1_555 1_555
C47A C52A 1_555 1_555
C48A C49A 1_555 1_555
C49A H24A 1_555 1_555
C50A C49A 1_555 1_555
H25A C50A 1_555 1_555
C51A C50A 1_555 1_555
H26A C51A 1_555 1_555
C52A C55A 1_555 1_555
C53A C46A 1_555 1_555
C54A C29A 1_555 1_555
H27A C54A 1_555 1_555
C55A C48A 1_555 1_555
C56A C47A 1_555 1_555
H28A C56A 1_555 1_555
C57A C45A 1_555 1_555
H29A C57A 1_555 1_555
C58A C28A 1_555 1_555
C59A C28A 1_555 1_555
H30A C59A 1_555 1_555
C60A C36A 1_555 1_555
N5A C25A 1_555 1_555
N6A Ag3A 1_555 1_555
N7A Ag3A 1_555 1_555
N8A Ag3A 1_555 1_555
N9A C51A 1_555 1_555
N10A Ag2A 1_555 1_555
W1A O23A 1_555 1_555
W2A O24A 1_555 1_555
W3A O25 1_555 1_555
W4A O15 1_555 1_555
W5A O11 1_555 1_555
W6A O19 1_555 1_555
O5A W4A 1_555 1_555
O6A W2A 1_555 1_555
O7A W2A 1_555 1_555
O8A W6A 1_555 1_555
O9A Ag2A 1_555 1_555
O10A W1A 1_555 1_555
O11A W5 1_555 1_555
O12A W1A 1_555 1_555
O13A W1A 1_555 1_555
O14A W5A 1_555 1_555
O15A W4 1_555 1_555
O16A W3A 1_555 1_555
O17A W4A 1_555 1_555
O18A W1A 1_555 1_555
O19A W6 1_555 1_555
O20A W2A 1_555 1_555
O21A W6 1_555 1_555
O22A W5A 1_555 1_555
O27A C31A 1_555 1_555
O28A C55A 1_555 1_555
O29A C52A 1_555 1_555
O30A C44A 1_555 1_555
O31A Ag2A 1_555 1_555
O32A C60A 1_555 1_555
Ag2_2 O30 1_555 1_555
Ag2A_2 O30A 1_555 1_555
O30_2 Ag2 1_555 1_555
O30A_2 Ag2A 1_555 1_555
O32_2 Ag2 1_555 1_555
O32A_2 Ag2A 1_555 1_555
O47A P2 1_555 1_555
O52A P2 1_555 1_555
O53A P2 1_555 1_555
O54A P2 1_555 1_555
W7A O53A 1_555 1_555
W8A O41 1_555 1_555
W9A O39 1_555 1_555
W10A O47A 1_555 1_555
W11A O52A 1_555 1_555
W12A O45 1_555 1_555
O33A W10A 1_555 1_555
O34A W8A 1_555 1_555
O35A W12A 1_555 1_555
O36A W7A 1_555 1_555
O37A W9A 1_555 1_555
O38A W8A 1_555 1_555
O39A W9 1_555 1_555
O40A W10A 1_555 1_555
O41A W8 1_555 1_555
O42A W7A 1_555 1_555
O43A W7A 1_555 1_555
O44A W11A 1_555 1_555
O45A W12 1_555 1_555
O46A W10A 1_555 1_555
O48A W9A 1_555 1_555
O49A W12 1_555 1_555
O50A W9A 1_555 1_555
O51A W8A 1_555 1_555
C2 N2 1_555 1_555
C6 N3 1_555 1_555
C7 N4 1_555 1_555
C10 N1 1_555 1_555
C11 C18 1_555 1_555
C12 C13 1_555 1_555
C14 C15 1_555 1_555
C19 N2 1_555 1_555
C20 N4 1_555 1_555
C21 C22 1_555 1_555
C21 N3 1_555 1_555
C23 C24 1_555 1_555
C26 N6 1_555 1_555
C31 C58 1_555 1_555
C32 N5 1_555 1_555
C33 C59 1_555 1_555
C34 N8 1_555 1_555
C36 C43 1_555 1_555
C37 N8 1_555 1_555
C38 N7 1_555 1_555
C42 N7 1_555 1_555
C44 C60 1_555 1_555
C45 N10 1_555 1_555
C46 N10 1_555 1_555
C48 C53 1_555 1_555
C53 N9 1_555 1_555
C54 N6 1_555 1_555
C56 C57 1_555 1_555
C58 O31 1_555 1_555
W2 O10 1_555 1_555
W2 O24 1_555 1_555
W2 O26 1_555 1_555
W3 O12 1_555 1_555
W3 O25A 1_555 1_555
W4 O18 1_555 1_555
W4 O23 1_555 1_555
W4 O26A 1_555 1_555
W5 O17 1_555 1_555
W5 O23 1_555 1_555
W5 O25 1_555 1_555
W6 O20 1_555 1_555
W6 O22 1_555 1_555
W6 O25 1_555 1_555
W6 O26 1_555 1_555
O21 W6A 1_555 1_555
O23 O24 1_555 1_555
O23 O25 1_555 1_555
O24 O26 1_555 1_555
O24 O25A 1_555 1_555
O25 O26 1_555 1_555
O25 O24A 1_555 1_555
O26 W4A 1_555 1_555
O32 Ag2_2 1_555 1_555
W7 O53 1_555 1_555
W7 O54 1_555 1_555
W8 O52 1_555 1_555
W9 O42 1_555 1_555
W10 O47 1_555 1_555
W10 O48 1_555 1_555
W10 O52 1_555 1_555
W11 O43 1_555 1_555
W11 O51 1_555 1_555
W11 O52 1_555 1_555
W11 O54 1_555 1_555
W12 O46 1_555 1_555
W12 O47 1_555 1_555
W12 O50 1_555 1_555
O47 O53 1_555 1_555
O49 W12A 1_555 1_555
O52 O54 1_555 1_555
O52 O53A 1_555 1_555
O53 O54 1_555 1_555
O53 O52A 1_555 1_555
O23A O24A 1_555 1_555
O23A O25A 1_555 1_555
O23A W4A 1_555 1_555
O23A W5A 1_555 1_555
O24A O26A 1_555 1_555
O25A O26A 1_555 1_555
O25A W5A 1_555 1_555
O25A W6A 1_555 1_555
O26A W2A 1_555 1_555
O26A W6A 1_555 1_555
C26A N6A 1_555 1_555
C31A C58A 1_555 1_555
C32A N5A 1_555 1_555
C33A C59A 1_555 1_555
C34A N8A 1_555 1_555
C36A C43A 1_555 1_555
C37A N8A 1_555 1_555
C38A N7A 1_555 1_555
C42A N7A 1_555 1_555
C44A C60A 1_555 1_555
C45A N10A 1_555 1_555
C46A N10A 1_555 1_555
C48A C53A 1_555 1_555
C53A N9A 1_555 1_555
C54A N6A 1_555 1_555
C56A C57A 1_555 1_555
C58A O31A 1_555 1_555
W1A O9A 1_555 1_555
W2A O10A 1_555 1_555
W2A O15A 1_555 1_555
W3A O7A 1_555 1_555
W3A O11A 1_555 1_555
W3A O12A 1_555 1_555
W3A O19A 1_555 1_555
W4A O18A 1_555 1_555
W4A O21A 1_555 1_555
W5A O13A 1_555 1_555
W5A O17A 1_555 1_555
W6A O20A 1_555 1_555
W6A O22A 1_555 1_555
O32A Ag2A_2 1_555 1_555
O47A O53A 1_555 1_555
O47A W9A 1_555 1_555
O47A W12A 1_555 1_555
O52A O54A 1_555 1_555
O52A W8A 1_555 1_555
O52A W10A 1_555 1_555
O53A O54A 1_555 1_555
O54A W7A 1_555 1_555
O54A W11A 1_555 1_555
W7A O41A 1_555 1_555
W7A O49A 1_555 1_555
W8A O39A 1_555 1_555
W9A O42A 1_555 1_555
W10A O34A 1_555 1_555
W10A O48A 1_555 1_555
W11A O33A 1_555 1_555
W11A O43A 1_555 1_555
W11A O45A 1_555 1_555
W11A O51A 1_555 1_555
W12A O46A 1_555 1_555
W12A O50A 1_555 1_555

#END
