
#######################################################################
#
#                 Cambridge Crystallographic Data Centre
#                                CCDC 
#
#######################################################################
#
# If this CIF has been generated from an entry in the Cambridge 
# Structural Database, then it will include bibliographic, chemical, 
# crystal, experimental, refinement or atomic coordinate data resulting 
# from the CCDC's data processing and validation procedures.
#
#######################################################################

data_SINYAR
_symmetry_cell_setting           monoclinic
_symmetry_space_group_name_H-M   'P 21/c'
_symmetry_Int_Tables_number      14
_space_group_name_Hall           '-P 2ybc'
loop_
_symmetry_equiv_pos_site_id
_symmetry_equiv_pos_as_xyz
1 x,y,z
2 -x,1/2+y,1/2-z
3 -x,-y,-z
4 x,1/2-y,1/2+z
_cell_length_a                   14.919(3)
_cell_length_b                   9.780(2)
_cell_length_c                   20.352(7)
_cell_angle_alpha                90
_cell_angle_beta                 127.863(19)
_cell_angle_gamma                90
_cell_volume                     2344.38
loop_
_atom_site_label
_atom_site_type_symbol
_atom_site_fract_x
_atom_site_fract_y
_atom_site_fract_z
N1 N 0.0707(3) 0.5421(4) 0.6841(2)
C1 C -0.0333(4) 0.4783(5) 0.6444(3)
H1 H -0.0502 0.4133 0.6686
C2 C -0.1060(4) 0.5233(5) 0.5661(3)
H2 H -0.1809 0.4959 0.5267
Mn1 Mn 0.22345(5) 0.97582(6) 0.31331(4)
Mn2 Mn 0.5000 1.0000 0.5000
O1 O 0.3273(3) 0.9758(3) 0.27266(18)
O2 O 0.4993(3) 0.9621(3) 0.39751(17)
O3 O 0.3427(2) 1.3821(3) -0.08483(17)
O4 O 0.2014(3) 1.2641(3) -0.19041(18)
C3 C 0.4309(3) 1.0443(4) 0.0738(2)
N2 N 0.1275(3) 0.9729(4) 0.3687(2)
C4 C 0.3456(3) 0.8996(4) -0.0470(3)
C5 C 0.4066(3) 0.9147(4) 0.0384(2)
H3 H 0.4313 0.8376 0.0722
C6 C 0.3330(3) 1.1445(4) -0.0630(2)
C7 C 0.3968(3) 1.1583(4) 0.0224(2)
H4 H 0.4173 1.2452 0.0459
C8 C 0.4418(3) 1.0086(4) 0.2002(2)
H5 H 0.3755 0.9573 0.1676
O5 O 0.2483(3) 0.7415(3) -0.1595(2)
C9 C 0.4899(3) 1.0623(4) 0.1645(2)
C10 C 0.4914(3) 1.0305(4) 0.2835(2)
N3 N 0.0315(3) 0.8948(4) 0.4112(2)
C11 C 0.2910(4) 1.2695(4) -0.1172(2)
O6 O 0.3838(3) 0.6629(3) -0.0327(2)
C12 C 0.3061(3) 1.0144(4) -0.0979(2)
H6 H 0.2617 1.0041 -0.1553
C13 C 0.3243(4) 0.7576(4) -0.0828(3)
N4 N -0.0479(3) 0.6182(4) 0.5553(2)
N5 N -0.0138(3) 0.7574(4) 0.4799(2)
C14 C -0.0542(4) 0.8296(5) 0.4115(3)
C15 C 0.4341(4) 0.9843(4) 0.3202(3)
C16 C 0.0339(4) 0.9103(4) 0.3458(3)
H7 H -0.0231 0.8807 0.2919
C17 C 0.1295(4) 0.9518(5) 0.4790(3)
H8 H 0.1521 0.9565 0.5329
C18 C -0.1669(4) 0.8439(5) 0.3448(3)
H9 H -0.1897 0.8952 0.2985
C19 C -0.0915(4) 0.6963(5) 0.4823(3)
C20 C -0.2074(4) 0.7060(5) 0.4196(3)
H10 H -0.2584 0.6640 0.4251
C21 C 0.5918(4) 1.1033(4) 0.3318(3)
H11 H 0.6269 1.1163 0.3880
C22 C 0.6408(4) 1.1568(5) 0.2981(3)
H12 H 0.7083 1.2057 0.3314
C23 C 0.0581(4) 0.6250(5) 0.6284(3)
H13 H 0.1152 0.6816 0.6380
C24 C -0.2452(4) 0.7786(5) 0.3495(3)
H14 H -0.3224 0.7840 0.3056
C25 C 0.5893(4) 1.1377(4) 0.2145(3)
H15 H 0.6216 1.1758 0.1916
C26 C 0.1867(4) 0.9998(5) 0.4524(3)
H16 H 0.2562 1.0447 0.4857
N1B N 0.9293(3) 1.4579(4) 0.3159(2)
C1B C 1.0333(4) 1.5217(5) 0.3556(3)
H1B H 1.0502 1.5867 0.3314
C2B C 1.1060(4) 1.4767(5) 0.4339(3)
H2B H 1.1809 1.5041 0.4733
Mn1B Mn 0.77655(5) 1.02418(6) 0.68669(4)
O1B O 0.6727(3) 1.0242(3) 0.72734(18)
O2B O 0.5007(3) 1.0379(3) 0.60249(17)
O3B O 0.6573(2) 0.6179(3) 1.08483(17)
O4B O 0.7986(3) 0.7359(3) 1.19041(18)
C3B C 0.5691(3) 0.9557(4) 0.9262(2)
N2B N 0.8725(3) 1.0271(4) 0.6313(2)
C4B C 0.6544(3) 1.1004(4) 1.0470(3)
C5B C 0.5934(3) 1.0853(4) 0.9616(2)
H3B H 0.5687 1.1624 0.9278
C6B C 0.6670(3) 0.8555(4) 1.0630(2)
C7B C 0.6032(3) 0.8417(4) 0.9776(2)
H4B H 0.5827 0.7548 0.9541
C8B C 0.5582(3) 0.9914(4) 0.7998(2)
H5B H 0.6245 1.0427 0.8324
O5B O 0.7517(3) 1.2585(3) 1.1595(2)
C9B C 0.5101(3) 0.9377(4) 0.8355(2)
C10B C 0.5086(3) 0.9695(4) 0.7165(2)
N3B N 0.9685(3) 1.1052(4) 0.5888(2)
C11B C 0.7090(4) 0.7305(4) 1.1172(2)
O6B O 0.6162(3) 1.3371(3) 1.0327(2)
C12B C 0.6939(3) 0.9856(4) 1.0979(2)
H6B H 0.7383 0.9959 1.1553
C13B C 0.6757(4) 1.2424(4) 1.0828(3)
N4B N 1.0479(3) 1.3818(4) 0.4447(2)
N5B N 1.0138(3) 1.2426(4) 0.5201(2)
C14B C 1.0542(4) 1.1704(5) 0.5885(3)
C15B C 0.5659(4) 1.0157(4) 0.6798(3)
C16B C 0.9661(4) 1.0897(4) 0.6542(3)
H7B H 1.0231 1.1193 0.7081
C17B C 0.8705(4) 1.0482(5) 0.5210(3)
H8B H 0.8479 1.0435 0.4671
C18B C 1.1669(4) 1.1561(5) 0.6552(3)
H9B H 1.1897 1.1048 0.7015
C19B C 1.0915(4) 1.3037(5) 0.5177(3)
C20B C 1.2074(4) 1.2940(5) 0.5804(3)
H10B H 1.2584 1.3360 0.5749
C21B C 0.4082(4) 0.8967(4) 0.6682(3)
H11B H 0.3731 0.8837 0.6120
C22B C 0.3592(4) 0.8432(5) 0.7019(3)
H12B H 0.2917 0.7943 0.6686
C23B C 0.9419(4) 1.3750(5) 0.3716(3)
H13B H 0.8848 1.3184 0.3620
C24B C 1.2452(4) 1.2214(5) 0.6505(3)
H14B H 1.3224 1.2160 0.6944
C25B C 0.4107(4) 0.8623(4) 0.7855(3)
H15B H 0.3784 0.8242 0.8084
C26B C 0.8133(4) 1.0002(5) 0.5476(3)
H16B H 0.7438 0.9553 0.5143
N1A N 0.9293(3) 1.0421(4) 0.8159(2)
N1C N 0.0707(3) 0.9579(4) 0.1841(2)
Mn1A Mn 0.77655(5) 0.47582(6) 1.18669(4)
Mn1A_2 Mn 0.77655(5) 1.47582(6) 0.18669(4)
Mn1A_3 Mn 0.77655(5) 1.47582(6) 1.18669(4)
Mn1C Mn 0.22345(5) 0.52418(6) -0.18669(4)
Mn1C_2 Mn 0.22345(5) 0.52418(6) 0.81331(4)
Mn1C_3 Mn 0.22345(5) 1.52418(6) -0.18669(4)
Mn2A Mn 0.5000 0.5000 0.0000
Mn2A_2 Mn 0.5000 0.5000 1.0000
Mn2A_3 Mn 0.5000 1.5000 0.0000
Mn2A_4 Mn 0.5000 1.5000 1.0000
O3A O 0.6573(2) 0.8821(3) 0.58483(17)
O3C O 0.3427(2) 1.1179(3) 0.41517(17)
O5A O 0.7517(3) 1.2415(3) 0.6595(2)
O5C O 0.2483(3) 0.7585(3) 0.3405(2)
O6A O 0.6162(3) 1.1629(3) 0.5327(2)
O6C O 0.3838(3) 0.8371(3) 0.4673(2)
loop_
_geom_bond_atom_site_label_1
_geom_bond_atom_site_label_2
_geom_bond_site_symmetry_1
_geom_bond_site_symmetry_2
N1 C1 1_555 1_555
C1 H1 1_555 1_555
C2 C1 1_555 1_555
H2 C2 1_555 1_555
Mn1 O1 1_555 1_555
Mn2 O2 1_555 1_555
O1 C15 1_555 1_555
O2 C15 1_555 1_555
O3 C11 1_555 1_555
O4 C11 1_555 1_555
C3 C5 1_555 1_555
N2 Mn1 1_555 1_555
C4 C5 1_555 1_555
C5 H3 1_555 1_555
C6 C7 1_555 1_555
C7 C3 1_555 1_555
H4 C7 1_555 1_555
C8 H5 1_555 1_555
O5 C13 1_555 1_555
C9 C3 1_555 1_555
C10 C8 1_555 1_555
N3 C14 1_555 1_555
C11 C6 1_555 1_555
O6 C13 1_555 1_555
C12 C4 1_555 1_555
H6 C12 1_555 1_555
C13 C4 1_555 1_555
N4 C2 1_555 1_555
N5 C14 1_555 1_555
C14 C18 1_555 1_555
C15 C10 1_555 1_555
C16 N2 1_555 1_555
H7 C16 1_555 1_555
C17 N3 1_555 1_555
H8 C17 1_555 1_555
C18 H9 1_555 1_555
C19 N4 1_555 1_555
C20 C19 1_555 1_555
H10 C20 1_555 1_555
C21 C10 1_555 1_555
H11 C21 1_555 1_555
C22 C21 1_555 1_555
H12 C22 1_555 1_555
C23 N1 1_555 1_555
H13 C23 1_555 1_555
C24 C18 1_555 1_555
H14 C24 1_555 1_555
C25 C9 1_555 1_555
H15 C25 1_555 1_555
C26 N2 1_555 1_555
H16 C26 1_555 1_555
N1B C1B 1_555 1_555
C1B H1B 1_555 1_555
C2B C1B 1_555 1_555
H2B C2B 1_555 1_555
Mn1B O1B 1_555 1_555
O1B C15B 1_555 1_555
O2B Mn2 1_555 1_555
O3B C11B 1_555 1_555
O4B C11B 1_555 1_555
C3B C5B 1_555 1_555
N2B Mn1B 1_555 1_555
C4B C5B 1_555 1_555
C5B H3B 1_555 1_555
C6B C7B 1_555 1_555
C7B C3B 1_555 1_555
H4B C7B 1_555 1_555
C8B H5B 1_555 1_555
O5B C13B 1_555 1_555
C9B C3B 1_555 1_555
C10B C8B 1_555 1_555
N3B C14B 1_555 1_555
C11B C6B 1_555 1_555
O6B C13B 1_555 1_555
C12B C4B 1_555 1_555
H6B C12B 1_555 1_555
C13B C4B 1_555 1_555
N4B C2B 1_555 1_555
N5B C14B 1_555 1_555
C14B C18B 1_555 1_555
C15B O2B 1_555 1_555
C16B N2B 1_555 1_555
H7B C16B 1_555 1_555
C17B N3B 1_555 1_555
H8B C17B 1_555 1_555
C18B H9B 1_555 1_555
C19B N4B 1_555 1_555
C20B C19B 1_555 1_555
H10B C20B 1_555 1_555
C21B C10B 1_555 1_555
H11B C21B 1_555 1_555
C22B C21B 1_555 1_555
H12B C22B 1_555 1_555
C23B N1B 1_555 1_555
H13B C23B 1_555 1_555
C24B C18B 1_555 1_555
H14B C24B 1_555 1_555
C25B C9B 1_555 1_555
H15B C25B 1_555 1_555
C26B N2B 1_555 1_555
H16B C26B 1_555 1_555
N1A Mn1B 1_555 1_555
N1C Mn1 1_555 1_555
Mn1A O3B 1_555 1_555
Mn1A_2 N1B 1_555 1_555
Mn1A_3 O5B 1_555 1_555
Mn1C O5 1_555 1_555
Mn1C_2 N1 1_555 1_555
Mn1C_3 O3 1_555 1_555
Mn2A O6 1_555 1_555
Mn2A_2 O3B 1_555 1_555
Mn2A_3 O3 1_555 1_555
Mn2A_4 O6B 1_555 1_555
O3A Mn2 1_555 1_555
O3C Mn1 1_555 1_555
O5A Mn1B 1_555 1_555
O5C Mn1 1_555 1_555
O6A Mn2 1_555 1_555
O6C Mn2 1_555 1_555
Mn2 O3C 1_555 1_555
C6 C12 1_555 1_555
C8 C9 1_555 1_555
N3 C16 1_555 1_555
N4 C23 1_555 1_555
N5 C19 1_555 1_555
C17 C26 1_555 1_555
C20 C24 1_555 1_555
C22 C25 1_555 1_555
Mn1B O3A 1_555 1_555
C6B C12B 1_555 1_555
C8B C9B 1_555 1_555
C10B C15B 1_555 1_555
N3B C16B 1_555 1_555
N4B C23B 1_555 1_555
N5B C19B 1_555 1_555
C17B C26B 1_555 1_555
C20B C24B 1_555 1_555
C22B C25B 1_555 1_555

#END
