
#######################################################################
#
#                 Cambridge Crystallographic Data Centre
#                                CCDC 
#
#######################################################################
#
# If this CIF has been generated from an entry in the Cambridge 
# Structural Database, then it will include bibliographic, chemical, 
# crystal, experimental, refinement or atomic coordinate data resulting 
# from the CCDC's data processing and validation procedures.
#
#######################################################################

data_SINZUM
_symmetry_cell_setting           monoclinic
_symmetry_space_group_name_H-M   'P 21/c'
_symmetry_Int_Tables_number      14
_space_group_name_Hall           '-P 2ybc'
loop_
_symmetry_equiv_pos_site_id
_symmetry_equiv_pos_as_xyz
1 x,y,z
2 -x,1/2+y,1/2-z
3 -x,-y,-z
4 x,1/2-y,1/2+z
_cell_length_a                   14.6525(9)
_cell_length_b                   13.3917(9)
_cell_length_c                   11.8838(8)
_cell_angle_alpha                90
_cell_angle_beta                 101.2290(10)
_cell_angle_gamma                90
_cell_volume                     2287.22
loop_
_atom_site_label
_atom_site_type_symbol
_atom_site_fract_x
_atom_site_fract_y
_atom_site_fract_z
Cd1 Cd 0.524132(11) 0.534028(14) 0.152864(14)
S1 S -0.37643(4) 0.76173(5) 0.06711(5)
O1 O -0.35495(13) 0.85722(14) 0.12256(18)
O2 O -0.43931(12) 0.76898(16) -0.04225(16)
O3 O -0.40609(13) 0.69071(14) 0.14457(17)
O4 O 0.40851(11) 0.52829(14) -0.00981(14)
C1 C -0.26953(15) 0.71611(18) 0.0388(2)
C2 C -0.25918(17) 0.6914(2) -0.0702(2)
H1 H -0.3098 0.6950 -0.1309
C3 C -0.17288(17) 0.6610(2) -0.0894(2)
H2 H -0.1663 0.6422 -0.1627
C4 C -0.09687(16) 0.6584(2) -0.0004(2)
C5 C -0.10856(18) 0.6800(2) 0.1100(2)
H3 H -0.0582 0.6758 0.1709
C6 C -0.19473(17) 0.7075(2) 0.1296(2)
H4 H -0.2027 0.7204 0.2040
C7 C 0.14553(15) 0.61866(19) 0.0268(2)
C8 C 0.16132(17) 0.5814(2) -0.0758(2)
H5 H 0.1115 0.5756 -0.1373
C9 C 0.24917(17) 0.5525(2) -0.0902(2)
H6 H 0.2569 0.5291 -0.1614
C10 C 0.32597(16) 0.55742(18) -0.0008(2)
C11 C 0.31133(15) 0.59708(17) 0.1071(2)
C12 C 0.22212(16) 0.63000(18) 0.1207(2)
C13 C 0.21572(17) 0.6728(2) 0.2268(2)
H7 H 0.1591 0.6981 0.2382
C14 C 0.29137(18) 0.6777(2) 0.3128(2)
H8 H 0.2872 0.7062 0.3830
C15 C 0.37592(17) 0.6390(2) 0.2944(2)
H9 H 0.4269 0.6398 0.3548
C16 C 0.5990(2) 0.4612(2) 0.4026(2)
H10 H 0.5422 0.4728 0.4309
H11 H 0.6496 0.4540 0.4682
C17 C 0.5897(2) 0.3676(2) 0.3326(3)
H12 H 0.6472 0.3548 0.3061
H13 H 0.5780 0.3115 0.3795
N1 N 0.38645(13) 0.60162(15) 0.19521(17)
N2 N 0.05807(13) 0.64437(16) 0.05048(19)
N3 N -0.01022(14) 0.63141(17) -0.03039(19)
N4 N 0.51285(16) 0.37759(17) 0.23392(19)
H14 H 0.4580 0.3716 0.2566
H15 H 0.5164 0.3294 0.1821
N5 N 0.61736(16) 0.54607(16) 0.33322(18)
H16 H 0.6777 0.5464 0.3273
H17 H 0.6052 0.6034 0.3669
Cd1_2 Cd -0.475868(11) 0.534028(14) 0.152864(14)
Cd1B Cd 0.475868(11) 0.465972(14) -0.152864(14)
O3_2 O 0.59391(13) 0.69071(14) 0.14457(17)
O4B O 0.59149(11) 0.47171(14) 0.00981(14)
O5 O 0.1777(2) 0.4996(4) 0.6235(3)
C18 C 0.0675(4) 0.4835(4) 0.3301(4)
H18 H 0.0984 0.4213 0.3231
H19 H 0.0805 0.5295 0.2733
H20 H 0.0016 0.4724 0.3189
C19 C 0.1491(3) 0.4673(4) 0.5242(5)
H21 H 0.1623 0.4018 0.5069
C20 C 0.0793(4) 0.6239(4) 0.4666(6)
H22 H 0.0863 0.6327 0.5480
H23 H 0.0164 0.6387 0.4302
H24 H 0.1209 0.6682 0.4378
N6 N 0.1004(2) 0.5245(2) 0.4428(3)
loop_
_geom_bond_atom_site_label_1
_geom_bond_atom_site_label_2
_geom_bond_site_symmetry_1
_geom_bond_site_symmetry_2
Cd1 O4 1_555 1_555
S1 O1 1_555 1_555
O2 S1 1_555 1_555
O3 S1 1_555 1_555
O4 C10 1_555 1_555
C1 S1 1_555 1_555
C2 C1 1_555 1_555
H1 C2 1_555 1_555
C3 C2 1_555 1_555
H2 C3 1_555 1_555
C4 C3 1_555 1_555
C5 C4 1_555 1_555
H3 C5 1_555 1_555
C6 C1 1_555 1_555
H4 C6 1_555 1_555
C7 C8 1_555 1_555
C8 H5 1_555 1_555
C9 C8 1_555 1_555
H6 C9 1_555 1_555
C10 C9 1_555 1_555
C11 C10 1_555 1_555
C12 C7 1_555 1_555
C13 C12 1_555 1_555
H7 C13 1_555 1_555
C14 C13 1_555 1_555
H8 C14 1_555 1_555
C15 C14 1_555 1_555
H9 C15 1_555 1_555
C16 H10 1_555 1_555
H11 C16 1_555 1_555
C17 C16 1_555 1_555
H12 C17 1_555 1_555
H13 C17 1_555 1_555
N1 Cd1 1_555 1_555
N2 C7 1_555 1_555
N3 C4 1_555 1_555
N4 Cd1 1_555 1_555
H14 N4 1_555 1_555
H15 N4 1_555 1_555
N5 Cd1 1_555 1_555
H16 N5 1_555 1_555
H17 N5 1_555 1_555
O5 C19 1_555 1_555
C18 H18 1_555 1_555
H19 C18 1_555 1_555
H20 C18 1_555 1_555
C19 H21 1_555 1_555
C20 H22 1_555 1_555
H23 C20 1_555 1_555
H24 C20 1_555 1_555
N6 C18 1_555 1_555
Cd1_2 O3 1_555 1_555
Cd1B O4 1_555 1_555
O3_2 Cd1 1_555 1_555
O4B Cd1 1_555 1_555
C5 C6 1_555 1_555
C11 C12 1_555 1_555
C11 N1 1_555 1_555
C15 N1 1_555 1_555
C16 N5 1_555 1_555
C17 N4 1_555 1_555
N2 N3 1_555 1_555
C19 N6 1_555 1_555
C20 N6 1_555 1_555
Cd1B O4B 1_555 1_555

#END
