
#######################################################################
#
#                 Cambridge Crystallographic Data Centre
#                                CCDC 
#
#######################################################################
#
# If this CIF has been generated from an entry in the Cambridge 
# Structural Database, then it will include bibliographic, chemical, 
# crystal, experimental, refinement or atomic coordinate data resulting 
# from the CCDC's data processing and validation procedures.
#
#######################################################################

data_SIPHIJ
_symmetry_cell_setting           triclinic
_symmetry_space_group_name_H-M   'P -1'
_symmetry_Int_Tables_number      2
_space_group_name_Hall           '-P 1'
loop_
_symmetry_equiv_pos_site_id
_symmetry_equiv_pos_as_xyz
1 x,y,z
2 -x,-y,-z
_cell_length_a                   10.234(3)
_cell_length_b                   11.079(3)
_cell_length_c                   12.982(4)
_cell_angle_alpha                90.652(2)
_cell_angle_beta                 107.426(2)
_cell_angle_gamma                102.549(4)
_cell_volume                     1366.2
loop_
_atom_site_label
_atom_site_type_symbol
_atom_site_fract_x
_atom_site_fract_y
_atom_site_fract_z
Zn1 Zn 0.395662(19) 0.766282(17) 0.446774(15)
O1 O 0.69885(17) 0.49482(12) 0.11518(12)
N1 N 0.50479(15) 0.70771(13) 0.35189(12)
C1 C 0.6051(2) 0.79426(17) 0.32991(17)
H1 H 0.6281 0.8757 0.3641
O2 O 0.83036(15) 0.29706(13) 0.23598(10)
N2 N 1.23612(15) 0.61647(14) 0.44144(12)
C2 C 0.6757(2) 0.76970(18) 0.25991(18)
H2 H 0.7455 0.8335 0.2461
O3 O 0.56878(17) 0.67411(13) 0.61326(15)
C3 C 0.4770(2) 0.59305(17) 0.30498(16)
H3 H 0.4077 0.5306 0.3209
O4 O 0.54799(14) 0.86117(12) 0.56483(10)
C4 C 0.5440(2) 0.56081(17) 0.23465(16)
H4 H 0.5216 0.4778 0.2039
O5 O 0.78583(17) 1.06543(16) 0.53335(13)
C5 C 0.64399(19) 0.65068(17) 0.20959(14)
O6 O 0.69482(14) 1.12609(12) 0.65530(11)
C6 C 0.7142(2) 0.62399(17) 0.12834(17)
H5 H 0.6703 0.6552 0.0582
H6 H 0.8153 0.6662 0.1541
C7 C 0.74127(19) 0.44895(17) 0.03472(14)
C8 C 0.8105(2) 0.52381(18) -0.02728(15)
H7 H 0.8317 0.6116 -0.0147
C9 C 0.8484(2) 0.4694(2) -0.10756(16)
H8 H 0.8972 0.5201 -0.1491
C10 C 0.8157(2) 0.3428(2) -0.12715(15)
H9 H 0.8404 0.3059 -0.1829
C11 C 0.7463(2) 0.26896(18) -0.06524(15)
H10 H 0.7235 0.1814 -0.0797
C12 C 0.70899(18) 0.31954(16) 0.01746(14)
C13 C 0.63402(19) 0.23661(16) 0.08198(15)
C14 C 0.4989(2) 0.16543(19) 0.03168(18)
H11 H 0.4543 0.1718 -0.0429
C15 C 0.4284(2) 0.0852(2) 0.0891(2)
H12 H 0.3346 0.0399 0.0546
C16 C 0.4938(2) 0.07091(19) 0.19568(18)
H13 H 0.4457 0.0145 0.2341
C17 C 0.6296(2) 0.13843(18) 0.24744(16)
H14 H 0.6755 0.1271 0.3207
C18 C 0.69823(19) 0.22288(16) 0.19148(14)
C19 C 0.9066(2) 0.28423(19) 0.34484(15)
H15 H 0.9466 0.2100 0.3490
H16 H 0.8443 0.2758 0.3911
C20 C 1.02256(19) 0.40033(17) 0.38123(14)
C21 C 1.1563(2) 0.39788(18) 0.44638(16)
H17 H 1.1771 0.3220 0.4719
C22 C 1.2591(2) 0.50646(18) 0.47389(16)
H18 H 1.3508 0.5032 0.5180
C23 C 1.10476(19) 0.61963(17) 0.38220(15)
H19 H 1.0852 0.6973 0.3611
C24 C 0.99693(19) 0.51403(19) 0.35071(16)
H20 H 0.9054 0.5197 0.3082
C25 C 0.75405(18) 0.84760(16) 0.70307(14)
C26 C 0.8185(2) 0.7763(2) 0.78163(17)
H21 H 0.7732 0.6921 0.7830
C27 C 0.9471(3) 0.8262(2) 0.8574(2)
H22 H 0.9903 0.7766 0.9104
C28 C 1.0125(3) 0.9482(3) 0.8556(2)
H23 H 1.1011 0.9830 0.9077
C29 C 0.9497(2) 1.0206(2) 0.7783(2)
H24 H 0.9953 1.1049 0.7780
C30 C 0.82053(18) 0.97093(17) 0.70109(14)
C31 C 0.61386(18) 0.78797(16) 0.62272(14)
C32 C 0.76052(18) 1.05753(16) 0.62042(15)
Zn1_2 Zn 1.395662(19) 0.766282(17) 0.446774(15)
Zn1A Zn 0.604338(19) 1.233718(17) 0.553226(15)
N2_2 N 0.23612(15) 0.61647(14) 0.44144(12)
O6A O 0.30518(14) 0.87391(12) 0.34470(11)
O7 O 0.9348(5) 0.9024(6) 0.4713(5)
loop_
_geom_bond_atom_site_label_1
_geom_bond_atom_site_label_2
_geom_bond_site_symmetry_1
_geom_bond_site_symmetry_2
Zn1 N1 1_555 1_555
O1 C6 1_555 1_555
N1 C1 1_555 1_555
C1 H1 1_555 1_555
O2 C18 1_555 1_555
N2 C22 1_555 1_555
C2 C1 1_555 1_555
H2 C2 1_555 1_555
O3 C31 1_555 1_555
C3 N1 1_555 1_555
H3 C3 1_555 1_555
O4 Zn1 1_555 1_555
C4 C3 1_555 1_555
H4 C4 1_555 1_555
O5 C32 1_555 1_555
C5 C2 1_555 1_555
O6 C32 1_555 1_555
C6 C5 1_555 1_555
H5 C6 1_555 1_555
H6 C6 1_555 1_555
C7 O1 1_555 1_555
C8 C7 1_555 1_555
H7 C8 1_555 1_555
C9 C8 1_555 1_555
H8 C9 1_555 1_555
C10 C9 1_555 1_555
H9 C10 1_555 1_555
C11 C10 1_555 1_555
H10 C11 1_555 1_555
C12 C7 1_555 1_555
C13 C12 1_555 1_555
C14 C13 1_555 1_555
H11 C14 1_555 1_555
C15 C14 1_555 1_555
H12 C15 1_555 1_555
C16 C15 1_555 1_555
H13 C16 1_555 1_555
C17 C16 1_555 1_555
H14 C17 1_555 1_555
C18 C13 1_555 1_555
C19 O2 1_555 1_555
H15 C19 1_555 1_555
H16 C19 1_555 1_555
C20 C19 1_555 1_555
C21 C20 1_555 1_555
H17 C21 1_555 1_555
C22 C21 1_555 1_555
H18 C22 1_555 1_555
C23 N2 1_555 1_555
H19 C23 1_555 1_555
C24 C20 1_555 1_555
H20 C24 1_555 1_555
C25 C26 1_555 1_555
C26 H21 1_555 1_555
C27 C26 1_555 1_555
H22 C27 1_555 1_555
C28 C27 1_555 1_555
H23 C28 1_555 1_555
C29 C28 1_555 1_555
H24 C29 1_555 1_555
C30 C25 1_555 1_555
C31 O4 1_555 1_555
C32 C30 1_555 1_555
Zn1_2 N2 1_555 1_555
Zn1A O6 1_555 1_555
N2_2 Zn1 1_555 1_555
O6A Zn1 1_555 1_555
C4 C5 1_555 1_555
C11 C12 1_555 1_555
C17 C18 1_555 1_555
C23 C24 1_555 1_555
C25 C31 1_555 1_555
C29 C30 1_555 1_555

#END
