
#######################################################################
#
#                 Cambridge Crystallographic Data Centre
#                                CCDC 
#
#######################################################################
#
# If this CIF has been generated from an entry in the Cambridge 
# Structural Database, then it will include bibliographic, chemical, 
# crystal, experimental, refinement or atomic coordinate data resulting 
# from the CCDC's data processing and validation procedures.
#
#######################################################################

data_SIPWEU
_symmetry_cell_setting           triclinic
_symmetry_space_group_name_H-M   'P -1'
_symmetry_Int_Tables_number      2
_space_group_name_Hall           '-P 1'
loop_
_symmetry_equiv_pos_site_id
_symmetry_equiv_pos_as_xyz
1 x,y,z
2 -x,-y,-z
_cell_length_a                   10.2694(2)
_cell_length_b                   11.3452(2)
_cell_length_c                   13.4864(3)
_cell_angle_alpha                79.9920(10)
_cell_angle_beta                 73.8380(10)
_cell_angle_gamma                84.2460(10)
_cell_volume                     1483.98
loop_
_atom_site_label
_atom_site_type_symbol
_atom_site_fract_x
_atom_site_fract_y
_atom_site_fract_z
N3 N 0.3479(6) 0.0047(5) 1.1078(5)
H1 H 0.2888 -0.0041 1.0757
H2 H 0.3223 0.0123 1.1729
C35 C 0.4797(6) 0.0067(5) 1.0565(5)
H25 H 0.5277 -0.0569 1.0927
H26 H 0.5121 0.0819 1.0624
N3A N 0.6521(6) -0.0047(5) 0.8922(5)
H1A H 0.7112 0.0041 0.9243
H2A H 0.6777 -0.0123 0.8271
C35A C 0.5203(6) -0.0067(5) 0.9435(5)
H25A H 0.4723 0.0569 0.9073
H26A H 0.4879 -0.0819 0.9376
Zn1 Zn 0.22138(2) 0.06009(2) 0.39657(2)
Zn2 Zn 0.98480(2) -0.69958(2) 0.41554(2)
N1 N 0.3349(2) -0.09623(17) 0.41633(16)
N2 N 0.81399(18) -0.58855(17) 0.43755(16)
O1 O -0.06302(18) 0.16909(15) 0.36195(15)
O3 O 0.08901(16) 0.01474(15) 0.33402(14)
O4 O -0.01033(18) -0.25346(15) 0.44459(13)
O5 O -0.15908(16) -0.09484(15) 0.45927(13)
O6 O 0.2707(2) 0.22175(17) 0.18763(16)
O7 O 0.34938(18) 0.18065(16) 0.32915(15)
O8 O 0.13991(17) 0.38748(16) 0.33427(13)
O9 O 0.03557(18) 0.43562(19) 0.20767(16)
C1 C -0.0880(3) 0.1494(2) 0.1635(2)
H5 H -0.0679 0.2249 0.1712
C2 C -0.1302(3) 0.1358(3) 0.0764(2)
H6 H -0.1390 0.2022 0.0271
C3 C -0.1583(3) 0.0265(3) 0.0634(2)
H7 H -0.1863 0.0185 0.0051
C4 C -0.1456(3) -0.0755(2) 0.1372(2)
C5 C -0.1662(3) -0.1909(3) 0.1186(2)
H8 H -0.1953 -0.1979 0.0606
C6 C -0.1438(3) -0.2910(2) 0.1843(2)
H9 H -0.1521 -0.3664 0.1691
C7 C -0.1083(2) -0.2801(2) 0.2751(2)
H10 H -0.0934 -0.3492 0.3198
C8 C -0.0947(2) -0.1711(2) 0.30006(18)
C9 C -0.1057(2) -0.0644(2) 0.22815(18)
C10 C -0.0756(2) 0.0523(2) 0.23832(19)
C11 C -0.0127(2) 0.0793(2) 0.31891(19)
C12 C -0.0847(2) -0.1714(2) 0.40913(18)
C13 C 0.2246(3) 0.6259(2) 0.1457(2)
H11 H 0.1342 0.6524 0.1533
C14 C 0.3275(3) 0.7080(3) 0.0976(2)
H12 H 0.3048 0.7881 0.0767
C15 C 0.4595(3) 0.6681(2) 0.0825(2)
H13 H 0.5274 0.7212 0.0496
C16 C 0.4961(3) 0.5469(2) 0.11598(19)
C17 C 0.6344(3) 0.5088(2) 0.0983(2)
H14 H 0.7004 0.5623 0.0614
C18 C 0.6722(3) 0.3957(3) 0.1342(2)
H15 H 0.7638 0.3724 0.1244
C19 C 0.5730(3) 0.3131(2) 0.1865(2)
H16 H 0.6001 0.2357 0.2117
C20 C 0.4365(2) 0.3442(2) 0.20114(19)
C21 C 0.3934(2) 0.4646(2) 0.16788(18)
C22 C 0.2548(2) 0.5086(2) 0.18140(19)
C23 C 0.3424(2) 0.2431(2) 0.2406(2)
C24 C 0.1341(2) 0.4374(2) 0.2419(2)
C25 C 0.3654(3) -0.1699(3) 0.3454(2)
H17 H 0.3249 -0.1539 0.2904
C26 C 0.4544(3) -0.2688(3) 0.3497(2)
H18 H 0.4722 -0.3179 0.2984
C27 C 0.5170(2) -0.2955(2) 0.42977(19)
C28 C 0.4829(3) -0.2197(2) 0.5047(2)
H19 H 0.5211 -0.2342 0.5609
C29 C 0.3921(3) -0.1229(2) 0.4954(2)
H20 H 0.3698 -0.0738 0.5469
C30 C 0.7835(2) -0.5161(2) 0.5101(2)
H21 H 0.8293 -0.5299 0.5619
C31 C 0.6873(2) -0.4217(2) 0.51169(19)
H22 H 0.6704 -0.3727 0.5630
C32 C 0.6155(2) -0.4004(2) 0.43577(18)
C33 C 0.6429(2) -0.4803(2) 0.3645(2)
H23 H 0.5940 -0.4725 0.3148
C34 C 0.7421(2) -0.5712(2) 0.36703(19)
H24 H 0.7597 -0.6226 0.3176
Zn1A Zn -0.22138(2) -0.06009(2) 0.60343(2)
Zn1_2 Zn 1.22138(2) -0.93991(2) 0.39657(2)
Zn2_2 Zn -0.01520(2) 0.30042(2) 0.41554(2)
Zn2A Zn 0.01520(2) -0.30042(2) 0.58446(2)
Zn2A_2 Zn -0.98480(2) 0.69958(2) 0.58446(2)
N1A N -0.3349(2) 0.09623(17) 0.58367(16)
N2A N -0.81399(18) 0.58855(17) 0.56245(16)
N2_2 N -0.18601(18) 0.41145(17) 0.43755(16)
O1A O 0.06302(18) -0.16909(15) 0.63805(15)
O1_2 O 0.93698(18) -0.83091(15) 0.36195(15)
O3A O -0.08901(16) -0.01474(15) 0.66598(14)
O4A O 0.01033(18) 0.25346(15) 0.55541(13)
O4A_2 O 1.01033(18) -0.74654(15) 0.55541(13)
O5A O 0.15908(16) 0.09484(15) 0.54073(13)
O6_2 O 1.2707(2) -0.77825(17) 0.18763(16)
O7_2 O 1.34938(18) -0.81935(16) 0.32915(15)
O7A O -0.34938(18) -0.18065(16) 0.67085(15)
O8_2 O 1.13991(17) -0.61252(16) 0.33427(13)
O9_2 O 1.03557(18) -0.56438(19) 0.20767(16)
C1A C 0.0880(3) -0.1494(2) 0.8365(2)
H5A H 0.0679 -0.2249 0.8288
C2A C 0.1302(3) -0.1358(3) 0.9236(2)
H6A H 0.1390 -0.2022 0.9729
C3A C 0.1583(3) -0.0265(3) 0.9366(2)
H7A H 0.1863 -0.0185 0.9949
C4A C 0.1456(3) 0.0755(2) 0.8628(2)
C5A C 0.1662(3) 0.1909(3) 0.8814(2)
H8A H 0.1953 0.1979 0.9394
C6A C 0.1438(3) 0.2910(2) 0.8157(2)
H9A H 0.1521 0.3664 0.8309
C7A C 0.1083(2) 0.2801(2) 0.7249(2)
H10A H 0.0934 0.3492 0.6802
C8A C 0.0947(2) 0.1711(2) 0.69994(18)
C9A C 0.1057(2) 0.0644(2) 0.77185(18)
C10A C 0.0756(2) -0.0523(2) 0.76168(19)
C11A C 0.0127(2) -0.0793(2) 0.68109(19)
C12A C 0.0847(2) 0.1714(2) 0.59087(18)
C13_2 C 1.2246(3) -0.3741(2) 0.1457(2)
H11_2 H 1.1342 -0.3476 0.1533
C14_2 C 1.3275(3) -0.2920(3) 0.0976(2)
H12_2 H 1.3048 -0.2119 0.0767
C15_2 C 1.4595(3) -0.3319(2) 0.0825(2)
H13_2 H 1.5274 -0.2788 0.0496
C16_2 C 1.4961(3) -0.4531(2) 0.11598(19)
C17_2 C 1.6344(3) -0.4912(2) 0.0983(2)
H14_2 H 1.7004 -0.4377 0.0614
C18_2 C 1.6722(3) -0.6043(3) 0.1342(2)
H15_2 H 1.7638 -0.6276 0.1244
C19_2 C 1.5730(3) -0.6869(2) 0.1865(2)
H16_2 H 1.6001 -0.7643 0.2117
C20_2 C 1.4365(2) -0.6558(2) 0.20114(19)
C21_2 C 1.3934(2) -0.5354(2) 0.16788(18)
C22_2 C 1.2548(2) -0.4914(2) 0.18140(19)
C23_2 C 1.3424(2) -0.7569(2) 0.2406(2)
C24_2 C 1.1341(2) -0.5626(2) 0.2419(2)
C25A C -0.3654(3) 0.1699(3) 0.6546(2)
H17A H -0.3249 0.1539 0.7096
C26A C -0.4544(3) 0.2688(3) 0.6503(2)
H18A H -0.4722 0.3179 0.7016
C27A C -0.5170(2) 0.2955(2) 0.57023(19)
C28A C -0.4829(3) 0.2197(2) 0.4953(2)
H19A H -0.5211 0.2342 0.4391
C29A C -0.3921(3) 0.1229(2) 0.5046(2)
H20A H -0.3698 0.0738 0.4531
C30A C -0.7835(2) 0.5161(2) 0.4899(2)
H21A H -0.8293 0.5299 0.4381
C31A C -0.6873(2) 0.4217(2) 0.48831(19)
H22A H -0.6704 0.3727 0.4370
C32A C -0.6155(2) 0.4004(2) 0.56423(18)
C33A C -0.6429(2) 0.4803(2) 0.6355(2)
H23A H -0.5940 0.4725 0.6852
C34A C -0.7421(2) 0.5712(2) 0.63297(19)
H24A H -0.7597 0.6226 0.6824
O2? O 0.0051(9) 0.4427(6) 0.0050(6)
H3? H -0.031(19) 0.500(8) -0.030(10)
H4? H 0.012(17) 0.479(8) 0.053(8)
loop_
_geom_bond_atom_site_label_1
_geom_bond_atom_site_label_2
_geom_bond_site_symmetry_1
_geom_bond_site_symmetry_2
Zn1 N1 1_555 1_555
Zn2 N2 1_555 1_555
N1 C25 1_555 1_555
N2 C30 1_555 1_555
N3 H1 1_555 1_555
H2 N3 1_555 1_555
O1 C11 1_555 1_555
O3 Zn1 1_555 1_555
O4 C12 1_555 1_555
O5 C12 1_555 1_555
O6 C23 1_555 1_555
O7 Zn1 1_555 1_555
O8 C24 1_555 1_555
O9 C24 1_555 1_555
C1 H5 1_555 1_555
C2 C1 1_555 1_555
H6 C2 1_555 1_555
C3 C2 1_555 1_555
H7 C3 1_555 1_555
C4 C3 1_555 1_555
C5 C4 1_555 1_555
H8 C5 1_555 1_555
C6 C5 1_555 1_555
H9 C6 1_555 1_555
C7 C6 1_555 1_555
H10 C7 1_555 1_555
C8 C7 1_555 1_555
C9 C4 1_555 1_555
C10 C1 1_555 1_555
C11 O3 1_555 1_555
C12 C8 1_555 1_555
C13 H11 1_555 1_555
C14 C13 1_555 1_555
H12 C14 1_555 1_555
C15 C14 1_555 1_555
H13 C15 1_555 1_555
C16 C15 1_555 1_555
C17 C16 1_555 1_555
H14 C17 1_555 1_555
C18 C17 1_555 1_555
H15 C18 1_555 1_555
C19 C18 1_555 1_555
H16 C19 1_555 1_555
C20 C19 1_555 1_555
C21 C16 1_555 1_555
C22 C13 1_555 1_555
C23 O7 1_555 1_555
C24 C22 1_555 1_555
C25 H17 1_555 1_555
C26 C25 1_555 1_555
H18 C26 1_555 1_555
C27 C26 1_555 1_555
C28 C27 1_555 1_555
H19 C28 1_555 1_555
C29 N1 1_555 1_555
H20 C29 1_555 1_555
C30 H21 1_555 1_555
C31 C30 1_555 1_555
H22 C31 1_555 1_555
C32 C27 1_555 1_555
C33 C32 1_555 1_555
H23 C33 1_555 1_555
C34 N2 1_555 1_555
H24 C34 1_555 1_555
C35 N3 1_555 1_555
H25 C35 1_555 1_555
H26 C35 1_555 1_555
Zn1A O5 1_555 1_555
Zn1_2 O7_2 1_555 1_555
Zn2_2 O1 1_555 1_555
Zn2A O4 1_555 1_555
Zn2A_2 N2A 1_555 1_555
N1A Zn1A 1_555 1_555
N2A C30A 1_555 1_555
N2_2 Zn2_2 1_555 1_555
N3A H1A 1_555 1_555
H2A N3A 1_555 1_555
O1A Zn2A 1_555 1_555
O1_2 Zn2 1_555 1_555
O3A Zn1A 1_555 1_555
O4A Zn2_2 1_555 1_555
O4A_2 Zn2 1_555 1_555
O5A Zn1 1_555 1_555
O6_2 C23_2 1_555 1_555
O7_2 C23_2 1_555 1_555
O7A Zn1A 1_555 1_555
O8_2 Zn2 1_555 1_555
O9_2 C24_2 1_555 1_555
C1A H5A 1_555 1_555
C2A C1A 1_555 1_555
H6A C2A 1_555 1_555
C3A C2A 1_555 1_555
H7A C3A 1_555 1_555
C4A C3A 1_555 1_555
C5A C4A 1_555 1_555
H8A C5A 1_555 1_555
C6A C5A 1_555 1_555
H9A C6A 1_555 1_555
C7A C6A 1_555 1_555
H10A C7A 1_555 1_555
C8A C7A 1_555 1_555
C9A C4A 1_555 1_555
C10A C1A 1_555 1_555
C11A O1A 1_555 1_555
C12A O4A 1_555 1_555
C13_2 H11_2 1_555 1_555
C14_2 C13_2 1_555 1_555
H12_2 C14_2 1_555 1_555
C15_2 C14_2 1_555 1_555
H13_2 C15_2 1_555 1_555
C16_2 C15_2 1_555 1_555
C17_2 C16_2 1_555 1_555
H14_2 C17_2 1_555 1_555
C18_2 C17_2 1_555 1_555
H15_2 C18_2 1_555 1_555
C19_2 C18_2 1_555 1_555
H16_2 C19_2 1_555 1_555
C20_2 C19_2 1_555 1_555
C21_2 C16_2 1_555 1_555
C22_2 C13_2 1_555 1_555
C23_2 C20_2 1_555 1_555
C24_2 O8_2 1_555 1_555
C25A N1A 1_555 1_555
H17A C25A 1_555 1_555
C26A C25A 1_555 1_555
H18A C26A 1_555 1_555
C27A C26A 1_555 1_555
C28A C27A 1_555 1_555
H19A C28A 1_555 1_555
C29A N1A 1_555 1_555
H20A C29A 1_555 1_555
C30A H21A 1_555 1_555
C31A C30A 1_555 1_555
H22A C31A 1_555 1_555
C32A C27A 1_555 1_555
C33A C32A 1_555 1_555
H23A C33A 1_555 1_555
C34A N2A 1_555 1_555
H24A C34A 1_555 1_555
C35A C35 1_555 1_555
H25A C35A 1_555 1_555
H26A C35A 1_555 1_555
O8 Zn2_2 1_555 1_555
C8 C9 1_555 1_555
C9 C10 1_555 1_555
C10 C11 1_555 1_555
C20 C21 1_555 1_555
C20 C23 1_555 1_555
C21 C22 1_555 1_555
C28 C29 1_555 1_555
C31 C32 1_555 1_555
C33 C34 1_555 1_555
N3A C35A 1_555 1_555
O3A C11A 1_555 1_555
O5A C12A 1_555 1_555
C8A C9A 1_555 1_555
C8A C12A 1_555 1_555
C9A C10A 1_555 1_555
C10A C11A 1_555 1_555
C20_2 C21_2 1_555 1_555
C21_2 C22_2 1_555 1_555
C22_2 C24_2 1_555 1_555
C28A C29A 1_555 1_555
C31A C32A 1_555 1_555
C33A C34A 1_555 1_555

#END
