
#######################################################################
#
#                 Cambridge Crystallographic Data Centre
#                                CCDC 
#
#######################################################################
#
# If this CIF has been generated from an entry in the Cambridge 
# Structural Database, then it will include bibliographic, chemical, 
# crystal, experimental, refinement or atomic coordinate data resulting 
# from the CCDC's data processing and validation procedures.
#
#######################################################################

data_SIPZOH
_symmetry_cell_setting           monoclinic
_symmetry_space_group_name_H-M   'P 21'
_symmetry_Int_Tables_number      4
_space_group_name_Hall           'P 2yb'
loop_
_symmetry_equiv_pos_site_id
_symmetry_equiv_pos_as_xyz
1 x,y,z
2 -x,1/2+y,-z
_cell_length_a                   9.632(4)
_cell_length_b                   13.811(7)
_cell_length_c                   11.323(5)
_cell_angle_alpha                90
_cell_angle_beta                 107.433(7)
_cell_angle_gamma                90
_cell_volume                     1437.08
loop_
_atom_site_label
_atom_site_type_symbol
_atom_site_fract_x
_atom_site_fract_y
_atom_site_fract_z
C1 C 0.6084(6) 0.5927(4) 0.3158(5)
C2 C 0.4832(6) 0.5877(4) 0.4536(5)
C3 C 0.7245(6) 0.5618(4) 0.5279(5)
C4 C 0.4800(6) 0.6226(5) 0.0992(5)
H1 H 0.4346 0.6802 0.1197
H2 H 0.5054 0.6359 0.0241
C5 C 0.3727(6) 0.5420(5) 0.0746(5)
C6 C 0.2161(6) 0.6042(5) 0.3757(6)
H3 H 0.2083 0.6712 0.3487
H4 H 0.2134 0.5636 0.3051
C7 C 0.0909(6) 0.5794(4) 0.4230(5)
C8 C 0.8623(6) 0.5189(4) 0.7353(5)
H5 H 0.8044 0.5663 0.7626
H6 H 0.9624 0.5274 0.7859
C9 C 0.8138(6) 0.4202(5) 0.7621(6)
C10 C 0.3961(6) 0.3541(4) -0.1332(5)
H7 H 0.4799 0.3648 -0.0676
C11 C 0.4080(6) 0.3578(4) -0.2526(4)
H8 H 0.4940 0.3763 -0.2676
C12 C 0.2814(6) 0.3317(5) -0.3510(5)
C13 C 0.1564(7) 0.3142(4) -0.3203(5)
H9 H 0.0696 0.3022 -0.3819
C14 C 0.1598(6) 0.3145(4) -0.1955(5)
H10 H 0.0757 0.2983 -0.1758
C15 C 0.2822(5) 0.3336(6) -0.4841(4)
C16 C 0.4072(6) 0.3442(5) -0.5153(5)
H11 H 0.4953 0.3516 -0.4535
C17 C 0.4043(5) 0.3439(5) -0.6354(4)
H12 H 0.4922 0.3482 -0.6533
C18 C 0.1567(5) 0.3268(5) -0.6990(5)
H13 H 0.0694 0.3189 -0.7617
C19 C 0.1552(6) 0.3268(5) -0.5791(5)
H14 H 0.0671 0.3221 -0.5616
N1 N 0.4778(4) 0.6045(3) 0.3369(4)
N2 N 0.6022(5) 0.5672(4) 0.5531(4)
N3 N 0.7333(5) 0.5721(4) 0.4066(4)
N4 N 0.6169(5) 0.6023(4) 0.2019(4)
H15 H 0.6990 0.5972 0.1871
N5 N 0.3575(5) 0.5893(4) 0.4756(5)
H16 H 0.3497 0.5325 0.5121
N6 N 0.8548(6) 0.5419(3) 0.6082(5)
H17 H 0.9321 0.5427 0.5852
N7 N 0.2759(4) 0.3366(5) -0.1068(4)
N8 N 0.2813(4) 0.3377(5) -0.7301(4)
Ni1 Ni 0.27732(7) 0.33914(4) 0.08331(5)
O1 O 0.4050(4) 0.4592(2) 0.1174(4)
O2 O 0.2464(4) 0.5708(3) 0.0087(4)
O3 O -0.0288(4) 0.5685(3) 0.3351(3)
H18 H -0.0944 0.5550 0.3645
O4 O 0.1047(4) 0.5655(3) 0.5313(4)
O5 O 0.7655(4) 0.3652(3) 0.6773(4)
O6 O 0.8237(4) 0.4067(3) 0.8736(4)
O7 O 0.4641(5) 0.2585(3) 0.1255(3)
H19 H 0.4927 0.2472 0.2028
H20 H 0.5295 0.2898 0.1053
O8 O 0.0908(4) 0.4224(3) 0.0420(4)
H21 H 0.1058 0.4759 0.0107
H22 H 0.0211 0.3927 -0.0092
O9 O 0.1495(4) 0.2146(3) 0.0582(4)
H23 H 0.0690 0.2257 0.0033
H24 H 0.1932 0.1685 0.0344
N8_2 N 0.2813(4) 0.3377(5) 0.2699(4)
Ni1_2 Ni 0.27732(7) 0.33914(4) -0.91669(5)
O10 O 0.4634(9) 0.0797(5) 0.2219(7)
H25 H 0.5470 0.0542 0.2351
H26 H 0.4428 0.0838 0.2896
O11 O 0.8615(9) 0.2505(6) 0.0233(7)
H27 H 0.7904 0.2875 0.0216
H28 H 0.8739 0.2103 0.0823
O12 O 0.8041(10) 0.3145(7) 0.4509(8)
H29 H 0.7948 0.3294 0.5210
H30 H 0.7754 0.3613 0.4008
O13 O 0.7271(9) 0.3512(8) 0.1910(8)
H31 H 0.7948 0.3931 0.2074
H32 H 0.7356 0.3158 0.2541
O14 O 0.8275(10) 0.5572(7) 0.0748(8)
H33 H 0.7999 0.5079 0.0288
H34 H 0.9085 0.5454 0.1287
loop_
_geom_bond_atom_site_label_1
_geom_bond_atom_site_label_2
_geom_bond_site_symmetry_1
_geom_bond_site_symmetry_2
C1 N1 1_555 1_555
C2 N1 1_555 1_555
C3 N2 1_555 1_555
C4 H1 1_555 1_555
H2 C4 1_555 1_555
C5 C4 1_555 1_555
C6 H3 1_555 1_555
H4 C6 1_555 1_555
C7 C6 1_555 1_555
C8 H5 1_555 1_555
H6 C8 1_555 1_555
C9 C8 1_555 1_555
C10 H7 1_555 1_555
C11 C10 1_555 1_555
H8 C11 1_555 1_555
C12 C11 1_555 1_555
C13 C12 1_555 1_555
H9 C13 1_555 1_555
C14 C13 1_555 1_555
H10 C14 1_555 1_555
C15 C12 1_555 1_555
C16 C15 1_555 1_555
H11 C16 1_555 1_555
C17 C16 1_555 1_555
H12 C17 1_555 1_555
C18 H13 1_555 1_555
C19 C15 1_555 1_555
H14 C19 1_555 1_555
N2 C2 1_555 1_555
N3 C1 1_555 1_555
N4 C1 1_555 1_555
H15 N4 1_555 1_555
N5 C2 1_555 1_555
H16 N5 1_555 1_555
N6 C3 1_555 1_555
H17 N6 1_555 1_555
N7 C10 1_555 1_555
N8 C17 1_555 1_555
Ni1 N7 1_555 1_555
O1 C5 1_555 1_555
O2 C5 1_555 1_555
O3 C7 1_555 1_555
H18 O3 1_555 1_555
O4 C7 1_555 1_555
O5 C9 1_555 1_555
O6 C9 1_555 1_555
O7 Ni1 1_555 1_555
H19 O7 1_555 1_555
H20 O7 1_555 1_555
O8 Ni1 1_555 1_555
H21 O8 1_555 1_555
H22 O8 1_555 1_555
O9 Ni1 1_555 1_555
H23 O9 1_555 1_555
H24 O9 1_555 1_555
O10 H25 1_555 1_555
H26 O10 1_555 1_555
O11 H27 1_555 1_555
H28 O11 1_555 1_555
O12 H29 1_555 1_555
H30 O12 1_555 1_555
O13 H31 1_555 1_555
H32 O13 1_555 1_555
O14 H33 1_555 1_555
H34 O14 1_555 1_555
N8_2 Ni1 1_555 1_555
Ni1_2 N8 1_555 1_555
C3 N3 1_555 1_555
C4 N4 1_555 1_555
C6 N5 1_555 1_555
C8 N6 1_555 1_555
C14 N7 1_555 1_555
C18 C19 1_555 1_555
C18 N8 1_555 1_555
Ni1 O1 1_555 1_555

#END
