
#######################################################################
#
#                 Cambridge Crystallographic Data Centre
#                                CCDC 
#
#######################################################################
#
# If this CIF has been generated from an entry in the Cambridge 
# Structural Database, then it will include bibliographic, chemical, 
# crystal, experimental, refinement or atomic coordinate data resulting 
# from the CCDC's data processing and validation procedures.
#
#######################################################################

data_SIPZAS
_symmetry_cell_setting           orthorhombic
_symmetry_space_group_name_H-M   'P b c n'
_symmetry_Int_Tables_number      60
_space_group_name_Hall           '-P 2n 2ab'
loop_
_symmetry_equiv_pos_site_id
_symmetry_equiv_pos_as_xyz
1 x,y,z
2 1/2-x,1/2-y,1/2+z
3 1/2+x,1/2-y,-z
4 -x,y,1/2-z
5 -x,-y,-z
6 1/2+x,1/2+y,1/2-z
7 1/2-x,1/2+y,z
8 x,-y,1/2+z
_cell_length_a                   22.0462(1)
_cell_length_b                   12.2957(2)
_cell_length_c                   9.7560(2)
_cell_angle_alpha                90
_cell_angle_beta                 90
_cell_angle_gamma                90
_cell_volume                     2644.59
loop_
_atom_site_label
_atom_site_type_symbol
_atom_site_fract_x
_atom_site_fract_y
_atom_site_fract_z
Mo1 Mo 0.6956(1) 0.6764(1) 0.0266(1)
Cu1 Cu 0.7539(1) 0.9308(1) -0.1373(1)
O1 O 0.7106(1) 0.8100(3) -0.0278(4)
O2 O 0.7321(2) 0.5833(3) -0.0852(4)
O3 O 0.7214(2) 0.6593(3) 0.1960(4)
O4 O 0.6177(2) 0.6534(3) 0.0242(4)
N1 N 0.6763(2) 0.9719(3) -0.2296(5)
N2 N 0.8317(2) 0.8935(3) -0.0437(3)
C1 C 0.6557(2) 1.0722(4) -0.2470(6)
C2 C 0.6036(2) 1.0953(5) -0.3225(6)
C3 C 0.5707(2) 1.0119(4) -0.3834(6)
C4 C 0.5921(3) 0.9066(5) -0.3622(8)
C5 C 0.6440(3) 0.8909(5) -0.2868(8)
C6 C 0.8856(2) 0.8862(4) -0.1083(5)
C7 C 0.9401(2) 0.8792(4) -0.0370(6)
C8 C 0.9399(2) 0.8808(4) 0.1063(5)
C9 C 0.8838(2) 0.8868(4) 0.1718(5)
C10 C 0.8316(2) 0.8929(4) 0.0948(5)
C11 C 0.5172(2) 1.0354(5) -0.4678(6)
C12 C 0.9978(2) 0.8775(4) 0.1817(5)
H1 H 0.6803(22) 1.1297(43) -0.2114(52)
H2 H 0.5917(24) 1.1632(48) -0.3343(56)
H3 H 0.5718(28) 0.8398(53) -0.3964(65)
H4 H 0.6593(28) 0.8287(55) -0.2687(64)
H5 H 0.8859(23) 0.8843(46) -0.2056(58)
H6 H 0.9735(26) 0.8774(46) -0.0845(57)
H7 H 0.8807(26) 0.8805(50) 0.2675(64)
H8 H 0.7942(22) 0.8993(40) 0.1364(50)
H9 H 0.5094(28) 1.1034(51) -0.4749(67)
H10 H 1.0336(23) 0.8753(42) 0.1290(52)
O2F O 0.7679(2) 1.0833(3) -0.0852(4)
O3A O 0.7786(2) 0.8407(3) -0.3040(4)
Cu1F Cu 0.7461(1) 0.4308(1) -0.1373(1)
Cu1A Cu 0.7461(1) 0.5692(1) 0.3627(1)
C11D C 0.4828(2) 0.9646(5) -0.5322(6)
C12C C 1.0022(2) 0.8775(4) 0.3183(5)
Mo1F Mo 0.8044(1) 1.1764(1) 0.0266(1)
C3D C 0.4293(2) 0.9881(4) -0.6166(6)
H9D H 0.4906(28) 0.8966(51) -0.5251(67)
C8C C 1.0601(2) 0.8808(4) 0.3937(5)
H10C H 0.9664(23) 0.8753(42) 0.3710(52)
O1F O 0.7894(1) 1.3100(3) -0.0278(4)
O3F O 0.7786(2) 1.1593(3) 0.1960(4)
O4F O 0.8823(2) 1.1534(3) 0.0242(4)
C2D C 0.3964(2) 0.9047(5) -0.6775(6)
C4D C 0.4079(3) 1.0934(5) -0.6378(8)
C7C C 1.0599(2) 0.8792(4) 0.5370(6)
C9C C 1.1162(2) 0.8868(4) 0.3282(5)
Cu1F_2 Cu 0.7461(1) 1.4308(1) -0.1373(1)
Cu1G Cu 0.7539(1) 1.0692(1) 0.3627(1)
C1D C 0.3443(2) 0.9278(4) -0.7530(6)
H2D H 0.4083(24) 0.8368(48) -0.6657(56)
C5D C 0.3560(3) 1.1091(5) -0.7132(8)
H3D H 0.4282(28) 1.1602(53) -0.6036(65)
C6C C 1.1144(2) 0.8862(4) 0.6083(5)
H6C H 1.0265(26) 0.8774(46) 0.5845(57)
C10C C 1.1684(2) 0.8929(4) 0.4052(5)
H7C H 1.1193(26) 0.8805(50) 0.2325(64)
N1D N 0.3237(2) 1.0281(3) -0.7704(5)
H1D H 0.3197(22) 0.8703(43) -0.7886(52)
H4D H 0.3407(28) 1.1713(55) -0.7313(64)
N2C N 1.1683(2) 0.8935(3) 0.5437(3)
H5C H 1.1141(23) 0.8843(46) 0.7056(58)
H8C H 1.2058(22) 0.8993(40) 0.3636(50)
Cu1D Cu 0.2461(1) 1.0692(1) -0.8627(1)
Cu1C Cu 1.2461(1) 0.9308(1) 0.6373(1)
O1D O 0.2894(1) 1.1900(3) -0.9722(4)
O2B O 0.2321(2) 0.9167(3) -0.9148(4)
O3E O 0.2214(2) 1.1593(3) -0.6960(4)
N2D N 0.1683(2) 1.1065(3) -0.9563(3)
loop_
_geom_bond_atom_site_label_1
_geom_bond_atom_site_label_2
_geom_bond_site_symmetry_1
_geom_bond_site_symmetry_2
Mo1 O1 1_555 1_555
Cu1 O1 1_555 1_555
O2 Mo1 1_555 1_555
O3 Mo1 1_555 1_555
O4 Mo1 1_555 1_555
N1 Cu1 1_555 1_555
N2 Cu1 1_555 1_555
C1 N1 1_555 1_555
C2 C1 1_555 1_555
C3 C2 1_555 1_555
C4 C3 1_555 1_555
C5 N1 1_555 1_555
C6 N2 1_555 1_555
C7 C6 1_555 1_555
C8 C7 1_555 1_555
C9 C8 1_555 1_555
C10 N2 1_555 1_555
C11 C3 1_555 1_555
C12 C8 1_555 1_555
H1 C1 1_555 1_555
H2 C2 1_555 1_555
H3 C4 1_555 1_555
H4 C5 1_555 1_555
H5 C6 1_555 1_555
H6 C7 1_555 1_555
H7 C9 1_555 1_555
H8 C10 1_555 1_555
H9 C11 1_555 1_555
H10 C12 1_555 1_555
O2F Cu1 1_555 1_555
O3A Cu1 1_555 1_555
Cu1F O2 1_555 1_555
Cu1A O3 1_555 1_555
C11D C11 1_555 1_555
C12C C12 1_555 1_555
Mo1F O2F 1_555 1_555
C3D C11D 1_555 1_555
H9D C11D 1_555 1_555
C8C C12C 1_555 1_555
H10C C12C 1_555 1_555
O1F Mo1F 1_555 1_555
O3F Mo1F 1_555 1_555
O4F Mo1F 1_555 1_555
C2D C3D 1_555 1_555
C4D C3D 1_555 1_555
C7C C8C 1_555 1_555
C9C C8C 1_555 1_555
Cu1F_2 O1F 1_555 1_555
Cu1G O3F 1_555 1_555
C1D C2D 1_555 1_555
H2D C2D 1_555 1_555
C5D C4D 1_555 1_555
H3D C4D 1_555 1_555
C6C C7C 1_555 1_555
H6C C7C 1_555 1_555
C10C C9C 1_555 1_555
H7C C9C 1_555 1_555
N1D C1D 1_555 1_555
H1D C1D 1_555 1_555
H4D C5D 1_555 1_555
N2C C6C 1_555 1_555
H5C C6C 1_555 1_555
H8C C10C 1_555 1_555
Cu1D N1D 1_555 1_555
Cu1C N2C 1_555 1_555
O1D Cu1D 1_555 1_555
O2B Cu1D 1_555 1_555
O3E Cu1D 1_555 1_555
N2D Cu1D 1_555 1_555
C4 C5 1_555 1_555
C9 C10 1_555 1_555
C5D N1D 1_555 1_555
C10C N2C 1_555 1_555

#END
