
#######################################################################
#
#                 Cambridge Crystallographic Data Centre
#                                CCDC 
#
#######################################################################
#
# If this CIF has been generated from an entry in the Cambridge 
# Structural Database, then it will include bibliographic, chemical, 
# crystal, experimental, refinement or atomic coordinate data resulting 
# from the CCDC's data processing and validation procedures.
#
#######################################################################

data_SIPZEW01
_symmetry_cell_setting           monoclinic
_symmetry_space_group_name_H-M   'P n'
_symmetry_Int_Tables_number      7
_space_group_name_Hall           'P -2yac'
loop_
_symmetry_equiv_pos_site_id
_symmetry_equiv_pos_as_xyz
1 x,y,z
2 1/2+x,-y,1/2+z
_cell_length_a                   7.2851(2)
_cell_length_b                   9.9062(3)
_cell_length_c                   9.1407(2)
_cell_angle_alpha                90
_cell_angle_beta                 98.207(1)
_cell_angle_gamma                90
_cell_volume                     652.907
loop_
_atom_site_label
_atom_site_type_symbol
_atom_site_fract_x
_atom_site_fract_y
_atom_site_fract_z
Cu1 Cu -0.0801(1) -0.0228(1) 0.4663(1)
S1 S -0.2722(1) 0.1466(1) 0.2109(1)
O1 O -0.2921(4) 0.0538(3) 0.3362(3)
O2 O -0.3330(4) 0.0748(3) 0.0684(3)
O3 O -0.0752(4) 0.1816(3) 0.2155(3)
O4 O -0.3890(4) 0.2648(3) 0.2216(3)
O5 O -0.2358(4) -0.1534(3) 0.6145(3)
N1 N -0.0625(5) -0.1784(3) 0.3217(4)
N2 N -0.0729(4) -0.8588(3) -0.4001(3)
C1 C -0.0703(6) -0.3063(4) 0.3687(4)
C2 C -0.0642(6) -0.4171(4) 0.2772(4)
C3 C -0.0447(6) -0.3983(4) 0.1284(4)
C4 C -0.0302(6) -0.2651(4) 0.0807(4)
C5 C -0.0398(5) -0.1593(4) 0.1789(4)
C6 C -0.0520(7) -0.5172(4) 0.0309(5)
C7 C -0.0372(7) -0.5147(4) -0.1123(5)
C8 C -0.0509(6) -0.6344(4) -0.2083(4)
C9 C -0.0963(5) -0.7633(3) -0.1625(4)
C10 C -0.1050(5) -0.8707(4) -0.2583(4)
C11 C -0.0289(6) -0.7360(4) -0.4459(4)
C12 C -0.0159(6) -0.6228(4) -0.3549(4)
H1 H -0.0804(6) -0.3213(4) 0.4677(4)
H2 H -0.0730(6) -0.5039(4) 0.3145(4)
H3 H -0.0141(6) -0.2475(4) -0.0165(4)
H4 H -0.0302(5) -0.0714(4) 0.1450(4)
H5 H -0.1208(5) -0.7765(3) -0.0664(4)
H6 H -0.1343(5) -0.9554(4) -0.2243(4)
H7 H -0.0059(6) -0.7260(4) -0.5428(4)
H8 H 0.0159(6) -0.5396(4) -0.3911(4)
H9 H -0.1632(67) -0.1922(44) 0.6722(49)
H10 H -0.330(13) -0.1587(70) 0.6476(75)
O2A O 0.1670(4) -0.0748(3) 0.5684(3)
Cu1A Cu -0.5801(1) 0.0228(1) -0.0337(1)
N2_2 N -0.0729(4) 0.1412(3) 0.5999(3)
Cu1_2 Cu -0.0801(1) -1.0228(1) -0.5337(1)
loop_
_geom_bond_atom_site_label_1
_geom_bond_atom_site_label_2
_geom_bond_site_symmetry_1
_geom_bond_site_symmetry_2
Cu1 O1 1_555 1_555
S1 O1 1_555 1_555
O2 S1 1_555 1_555
O3 S1 1_555 1_555
O4 S1 1_555 1_555
O5 Cu1 1_555 1_555
N1 Cu1 1_555 1_555
N2 C10 1_555 1_555
C1 N1 1_555 1_555
C2 C1 1_555 1_555
C3 C2 1_555 1_555
C4 C3 1_555 1_555
C5 N1 1_555 1_555
C6 C3 1_555 1_555
C7 C6 1_555 1_555
C8 C7 1_555 1_555
C9 C8 1_555 1_555
C10 C9 1_555 1_555
C11 N2 1_555 1_555
C12 C8 1_555 1_555
H1 C1 1_555 1_555
H2 C2 1_555 1_555
H3 C4 1_555 1_555
H4 C5 1_555 1_555
H5 C9 1_555 1_555
H6 C10 1_555 1_555
H7 C11 1_555 1_555
H8 C12 1_555 1_555
H9 O5 1_555 1_555
H10 O5 1_555 1_555
O2A Cu1 1_555 1_555
Cu1A O2 1_555 1_555
N2_2 Cu1 1_555 1_555
Cu1_2 N2 1_555 1_555
C4 C5 1_555 1_555
C11 C12 1_555 1_555

#END
