
#######################################################################
#
#                 Cambridge Crystallographic Data Centre
#                                CCDC 
#
#######################################################################
#
# If this CIF has been generated from an entry in the Cambridge 
# Structural Database, then it will include bibliographic, chemical, 
# crystal, experimental, refinement or atomic coordinate data resulting 
# from the CCDC's data processing and validation procedures.
#
#######################################################################

data_SIQDAY
_symmetry_cell_setting           monoclinic
_symmetry_space_group_name_H-M   'C 2/c'
_symmetry_Int_Tables_number      15
_space_group_name_Hall           '-C 2yn'
loop_
_symmetry_equiv_pos_site_id
_symmetry_equiv_pos_as_xyz
1 x,y,z
2 1/2+x,1/2+y,z
3 -x,y,1/2-z
4 1/2-x,1/2+y,1/2-z
5 -x,-y,-z
6 1/2-x,1/2-y,-z
7 x,-y,1/2+z
8 1/2+x,1/2-y,1/2+z
_cell_length_a                   28.323(2)
_cell_length_b                   11.0466(8)
_cell_length_c                   20.5022(16)
_cell_angle_alpha                90
_cell_angle_beta                 120.9050(10)
_cell_angle_gamma                90
_cell_volume                     5503.84
loop_
_atom_site_label
_atom_site_type_symbol
_atom_site_fract_x
_atom_site_fract_y
_atom_site_fract_z
C24 C -0.2863(2) 0.9171(5) 0.9254(2)
H13 H -0.2592 0.9803 0.9467
H14 H -0.3099 0.9305 0.8718
H15 H -0.2681 0.8403 0.9337
C25 C -0.3554(2) 0.8666(5) 0.9615(3)
H16 H -0.3605 0.9059 0.9992
H17 H -0.3468 0.7828 0.9745
H18 H -0.3886 0.8729 0.9128
N1 N -0.3161(3) 0.9173(7) 0.9587(4)
H19 H -0.2893 0.9137 1.0079
H20 H -0.3273 0.9950 0.9516
Cd1 Cd 0.0000 -0.246920(19) 0.2500
C1 C 0.04688(12) 0.5903(2) 0.19600(14)
C2 C 0.06438(11) 0.4886(2) 0.16481(13)
C3 C 0.02467(11) 0.4239(2) 0.09846(13)
C4 C 0.03981(10) 0.3257(2) 0.07081(13)
C5 C 0.09585(12) 0.2909(3) 0.10818(15)
C6 C 0.11586(13) 0.1923(3) 0.08415(19)
H1 H 0.0913 0.1483 0.0412
C7 C 0.16991(14) 0.1615(3) 0.1226(2)
H2 H 0.1816 0.0974 0.1049
C8 C 0.20848(16) 0.2232(4) 0.1880(3)
H3 H 0.2452 0.1992 0.2141
C9 C 0.19164(12) 0.3193(3) 0.21316(19)
H4 H 0.2172 0.3611 0.2564
C10 C 0.13562(11) 0.3560(2) 0.17398(15)
C11 C 0.11821(11) 0.4541(2) 0.20003(14)
H5 H 0.1442 0.4968 0.2426
C12 C -0.00545(14) 0.2634(2) -0.00012(16)
H6 H 0.0113 0.2069 -0.0186
H7 H -0.0250 0.3238 -0.0393
C13 C -0.04655(10) 0.1954(2) 0.01313(13)
C14 C -0.02776(10) 0.0953(2) 0.05948(13)
C15 C -0.06173(10) 0.0291(2) 0.07951(12)
C16 C -0.03850(11) -0.0713(2) 0.13679(14)
C17 C -0.11591(11) 0.0612(2) 0.04720(14)
H8 H -0.1386 0.0172 0.0589
C18 C -0.13807(11) 0.1600(2) -0.00358(14)
C19 C -0.19410(13) 0.1916(3) -0.03598(19)
H9 H -0.2164 0.1468 -0.0239
C20 C -0.21590(15) 0.2878(4) -0.0852(2)
H10 H -0.2528 0.3081 -0.1068
C21 C -0.18204(14) 0.3545(3) -0.10228(18)
H11 H -0.1969 0.4193 -0.1358
C22 C -0.12740(13) 0.3277(3) -0.07113(15)
H12 H -0.1059 0.3751 -0.0834
C23 C -0.10281(12) 0.2284(2) -0.02028(14)
O1 O 0.08125(9) 0.65183(18) 0.25016(11)
O2 O -0.00460(9) 0.60859(18) 0.16651(12)
O3 O -0.02870(8) 0.45637(18) 0.06104(10)
H21 H -0.0334 0.5103 0.0846
O4 O 0.02523(8) 0.06045(18) 0.08764(11)
H22 H 0.0325 0.0037 0.1171
O5 O 0.01136(8) -0.10044(18) 0.16427(11)
O6 O 0.06802(8) -1.12135(17) 0.34201(11)
Cd1_2 Cd 0.0000 0.753080(19) 0.2500
Cd1_3 Cd 0.0000 -1.246920(19) 0.2500
C1B C -0.04688(12) -0.4097(2) 0.30400(14)
C2B C -0.06438(11) -0.5114(2) 0.33519(13)
C3B C -0.02467(11) -0.5761(2) 0.40154(13)
C4B C -0.03981(10) -0.6743(2) 0.42919(13)
C5B C -0.09585(12) -0.7091(3) 0.39182(15)
C6B C -0.11586(13) -0.8077(3) 0.41585(19)
H1B H -0.0913 -0.8517 0.4588
C7B C -0.16991(14) -0.8385(3) 0.3774(2)
H2B H -0.1816 -0.9026 0.3951
C8B C -0.20848(16) -0.7768(4) 0.3120(3)
H3B H -0.2452 -0.8008 0.2859
C9B C -0.19164(12) -0.6807(3) 0.28684(19)
H4B H -0.2172 -0.6389 0.2436
C10B C -0.13562(11) -0.6440(2) 0.32602(15)
C11B C -0.11821(11) -0.5459(2) 0.29997(14)
H5B H -0.1442 -0.5032 0.2574
C12B C 0.00545(14) -0.7366(2) 0.50012(16)
H6B H -0.0113 -0.7931 0.5186
H7B H 0.0250 -0.6762 0.5393
C13B C 0.04655(10) -0.8046(2) 0.48687(13)
C14B C 0.02776(10) -0.9047(2) 0.44052(13)
C15B C 0.06173(10) -0.9709(2) 0.42049(12)
C16B C 0.03850(11) -1.0713(2) 0.36321(14)
C17B C 0.11591(11) -0.9388(2) 0.45280(14)
H8B H 0.1386 -0.9828 0.4411
C18B C 0.13807(11) -0.8400(2) 0.50358(14)
C19B C 0.19410(13) -0.8084(3) 0.53598(19)
H9B H 0.2164 -0.8532 0.5239
C20B C 0.21590(15) -0.7122(4) 0.5852(2)
H10B H 0.2528 -0.6919 0.6068
C21B C 0.18204(14) -0.6455(3) 0.60228(18)
H11B H 0.1969 -0.5807 0.6358
C22B C 0.12740(13) -0.6723(3) 0.57113(15)
H12B H 0.1059 -0.6249 0.5834
C23B C 0.10281(12) -0.7716(2) 0.52028(14)
O1_2 O 0.08125(9) -0.34817(18) 0.25016(11)
O1B O -0.08125(9) -0.34817(18) 0.24984(11)
O2B O 0.00460(9) -0.39141(18) 0.33349(12)
O2_2 O -0.00460(9) -0.39141(18) 0.16651(12)
O3B O 0.02870(8) -0.54363(18) 0.43896(10)
H21B H 0.0334 -0.4897 0.4154
O4B O -0.02523(8) -0.93955(18) 0.41236(11)
H22B H -0.0325 -0.9963 0.3829
O5B O -0.01136(8) -1.10044(18) 0.33573(11)
O5B_2 O -0.01136(8) -0.10044(18) 0.33573(11)
O6B O -0.06802(8) -0.12135(17) 0.15799(11)
O6_2 O 0.06802(8) -0.12135(17) 0.34201(11)
loop_
_geom_bond_atom_site_label_1
_geom_bond_atom_site_label_2
_geom_bond_site_symmetry_1
_geom_bond_site_symmetry_2
Cd1 O5 1_555 1_555
C1 C2 1_555 1_555
C2 C3 1_555 1_555
C3 C4 1_555 1_555
C4 C5 1_555 1_555
C5 C6 1_555 1_555
C6 H1 1_555 1_555
C7 C6 1_555 1_555
H2 C7 1_555 1_555
C8 C7 1_555 1_555
H3 C8 1_555 1_555
C9 C8 1_555 1_555
H4 C9 1_555 1_555
C10 C5 1_555 1_555
C11 C2 1_555 1_555
H5 C11 1_555 1_555
C12 C4 1_555 1_555
H6 C12 1_555 1_555
H7 C12 1_555 1_555
C13 C12 1_555 1_555
C14 C13 1_555 1_555
C15 C14 1_555 1_555
C16 C15 1_555 1_555
C17 C15 1_555 1_555
H8 C17 1_555 1_555
C18 C17 1_555 1_555
C19 C18 1_555 1_555
H9 C19 1_555 1_555
C20 C19 1_555 1_555
H10 C20 1_555 1_555
C21 C20 1_555 1_555
H11 C21 1_555 1_555
C22 C21 1_555 1_555
H12 C22 1_555 1_555
C23 C13 1_555 1_555
C24 H13 1_555 1_555
H14 C24 1_555 1_555
H15 C24 1_555 1_555
C25 H16 1_555 1_555
H17 C25 1_555 1_555
H18 C25 1_555 1_555
N1 C24 1_555 1_555
H19 N1 1_555 1_555
H20 N1 1_555 1_555
O1 C1 1_555 1_555
O2 C1 1_555 1_555
O3 C3 1_555 1_555
H21 O3 1_555 1_555
O4 C14 1_555 1_555
H22 O4 1_555 1_555
O5 C16 1_555 1_555
O6 Cd1_3 1_555 1_555
Cd1_2 O1 1_555 1_555
Cd1_3 O5B 1_555 1_555
C1B C2B 1_555 1_555
C2B C3B 1_555 1_555
C3B C4B 1_555 1_555
C4B C5B 1_555 1_555
C5B C6B 1_555 1_555
C6B H1B 1_555 1_555
C7B C6B 1_555 1_555
H2B C7B 1_555 1_555
C8B C7B 1_555 1_555
H3B C8B 1_555 1_555
C9B C8B 1_555 1_555
H4B C9B 1_555 1_555
C10B C5B 1_555 1_555
C11B C2B 1_555 1_555
H5B C11B 1_555 1_555
C12B C4B 1_555 1_555
H6B C12B 1_555 1_555
H7B C12B 1_555 1_555
C13B C12B 1_555 1_555
C14B C13B 1_555 1_555
C15B C14B 1_555 1_555
C16B O6 1_555 1_555
C17B C15B 1_555 1_555
H8B C17B 1_555 1_555
C18B C17B 1_555 1_555
C19B C18B 1_555 1_555
H9B C19B 1_555 1_555
C20B C19B 1_555 1_555
H10B C20B 1_555 1_555
C21B C20B 1_555 1_555
H11B C21B 1_555 1_555
C22B C21B 1_555 1_555
H12B C22B 1_555 1_555
C23B C13B 1_555 1_555
O1_2 Cd1 1_555 1_555
O1B Cd1 1_555 1_555
O2B Cd1 1_555 1_555
O2_2 Cd1 1_555 1_555
O3B C3B 1_555 1_555
H21B O3B 1_555 1_555
O4B C14B 1_555 1_555
H22B O4B 1_555 1_555
O5B C16B 1_555 1_555
O5B_2 Cd1 1_555 1_555
O6B Cd1 1_555 1_555
O6_2 Cd1 1_555 1_555
C9 C10 1_555 1_555
C10 C11 1_555 1_555
C16 O6B 1_555 1_555
C18 C23 1_555 1_555
C22 C23 1_555 1_555
C25 N1 1_555 1_555
O2 Cd1_2 1_555 1_555
C1B O1B 1_555 1_555
C1B O2B 1_555 1_555
C9B C10B 1_555 1_555
C10B C11B 1_555 1_555
C15B C16B 1_555 1_555
C18B C23B 1_555 1_555
C22B C23B 1_555 1_555

#END
