
#######################################################################
#
#                 Cambridge Crystallographic Data Centre
#                                CCDC 
#
#######################################################################
#
# If this CIF has been generated from an entry in the Cambridge 
# Structural Database, then it will include bibliographic, chemical, 
# crystal, experimental, refinement or atomic coordinate data resulting 
# from the CCDC's data processing and validation procedures.
#
#######################################################################

data_SIQDON
_symmetry_cell_setting           monoclinic
_symmetry_space_group_name_H-M   'P 21/c'
_symmetry_Int_Tables_number      14
_space_group_name_Hall           '-P 2ybc'
loop_
_symmetry_equiv_pos_site_id
_symmetry_equiv_pos_as_xyz
1 x,y,z
2 -x,1/2+y,1/2-z
3 -x,-y,-z
4 x,1/2-y,1/2+z
_cell_length_a                   14.2243(4)
_cell_length_b                   16.6230(4)
_cell_length_c                   12.3468(3)
_cell_angle_alpha                90
_cell_angle_beta                 96.683(2)
_cell_angle_gamma                90
_cell_volume                     2899.57
loop_
_atom_site_label
_atom_site_type_symbol
_atom_site_fract_x
_atom_site_fract_y
_atom_site_fract_z
Co1 Co 0.88505(2) 0.10684(2) 0.24100(2)
N1 N 0.86044(14) 0.06281(13) 0.08538(14)
N2 N 0.84773(15) 0.06938(14) -0.09273(15)
N3 N 0.95243(14) 0.07778(13) -0.39915(15)
N4 N 1.06191(14) -0.00589(14) -0.32694(15)
O1 O 0.75716(12) 0.11458(12) 0.29818(13)
O2 O 0.78290(13) 0.21276(11) 0.18658(15)
O3 O 0.01445(14) 0.15418(14) 0.21622(17)
O4 O -0.02473(14) 0.19763(14) 0.37238(18)
C1 C 0.73113(17) 0.17903(18) 0.2485(2)
C2 C 0.64005(16) 0.21736(16) 0.27019(19)
C3 C 0.61159(18) 0.28894(17) 0.2200(2)
H1 H 0.6450 0.3095 0.1658
C4 C 0.53464(17) 0.33029(17) 0.2491(2)
H2 H 0.5174 0.3789 0.2151
C5 C 0.48220(16) 0.30051(16) 0.32865(19)
C6 C 0.50732(18) 0.22581(17) 0.3728(2)
H3 H 0.4708 0.2026 0.4222
C7 C 0.58549(18) 0.18531(17) 0.3449(2)
H4 H 0.6017 0.1358 0.3767
C8 C 0.03317(19) 0.19196(19) 0.3055(3)
C9 C 0.13000(17) 0.22873(16) 0.3285(2)
C10 C 0.19565(18) 0.21875(17) 0.2559(2)
H5 H 0.1803 0.1878 0.1936
C11 C 0.28437(18) 0.25423(17) 0.2744(2)
H6 H 0.3279 0.2464 0.2248
C12 C 0.30864(16) 0.30098(15) 0.36577(19)
C13 C 0.24343(18) 0.30976(17) 0.4402(2)
H7 H 0.2591 0.3398 0.5032
C14 C 0.15502(18) 0.27390(17) 0.4210(2)
H8 H 0.1119 0.2804 0.4715
C15 C 0.44091(19) 0.3680(2) 0.4949(2)
C16 C 0.40295(16) 0.34805(16) 0.37506(19)
C17 C 0.38009(19) 0.42781(18) 0.3137(2)
C18 C 0.83824(19) 0.10845(17) -0.00039(19)
H9 H 0.8183 0.1616 0.0028
C19 C 0.88563(18) -0.00974(17) 0.0453(2)
H10 H 0.9048 -0.0545 0.0874
C20 C 0.87850(19) -0.00672(18) -0.0648(2)
H11 H 0.8917 -0.0478 -0.1119
C21 C 0.8362(2) 0.10485(18) -0.20246(19)
H12 H 0.8978 0.1089 -0.2285
H13 H 0.8111 0.1589 -0.1983
C22 C 0.77081(18) 0.05639(16) -0.28354(19)
C23 C 0.6991(2) 0.01010(18) -0.2502(2)
H14 H 0.6923 0.0069 -0.1763
C24 C 0.6374(2) -0.0314(2) -0.3239(2)
H15 H 0.5892 -0.0621 -0.2999
C25 C 0.6471(2) -0.0275(2) -0.4335(2)
H16 H 0.6058 -0.0556 -0.4838
C26 C 0.71876(19) 0.01848(18) -0.4679(2)
H17 H 0.7254 0.0210 -0.5419
C27 C 0.78093(17) 0.06097(16) -0.39449(18)
C28 C 0.85790(17) 0.11024(17) -0.43674(19)
H18 H 0.8486 0.1105 -0.5158
H19 H 0.8539 0.1653 -0.4118
C29 C 1.0341(2) 0.12048(19) -0.3793(2)
H20 H 1.0423 0.1749 -0.3929
C30 C 1.10091(19) 0.0684(2) -0.3360(2)
H21 H 1.1641 0.0812 -0.3154
C31 C 0.97200(17) 0.00212(17) -0.36709(18)
H22 H 0.9280 -0.0395 -0.3724
F1 F 0.43787(12) 0.30444(12) 0.55932(12)
F2 F 0.39218(12) 0.42630(11) 0.53782(14)
F3 F 0.53063(11) 0.39261(12) 0.50328(14)
F4 F 0.30673(11) 0.46574(10) 0.34893(14)
F5 F 0.45241(11) 0.47983(10) 0.32465(14)
F6 F 0.35703(11) 0.41572(10) 0.20760(13)
Co1_2 Co -0.11495(2) 0.10684(2) 0.24100(2)
Co1B Co 1.11495(2) -0.10684(2) -0.24100(2)
N4B N 0.93809(14) 0.00589(14) 0.32694(15)
O3_2 O 1.01445(14) 0.15418(14) 0.21622(17)
loop_
_geom_bond_atom_site_label_1
_geom_bond_atom_site_label_2
_geom_bond_site_symmetry_1
_geom_bond_site_symmetry_2
Co1 N1 1_555 1_555
N1 C18 1_555 1_555
N2 C18 1_555 1_555
N3 C28 1_555 1_555
N4 C30 1_555 1_555
O1 Co1 1_555 1_555
O2 Co1 1_555 1_555
O3 C8 1_555 1_555
O4 C8 1_555 1_555
C1 O1 1_555 1_555
C2 C1 1_555 1_555
C3 C2 1_555 1_555
H1 C3 1_555 1_555
C4 C3 1_555 1_555
H2 C4 1_555 1_555
C5 C4 1_555 1_555
C6 C5 1_555 1_555
H3 C6 1_555 1_555
C7 C2 1_555 1_555
H4 C7 1_555 1_555
C8 C9 1_555 1_555
C9 C10 1_555 1_555
C10 H5 1_555 1_555
C11 C10 1_555 1_555
H6 C11 1_555 1_555
C12 C11 1_555 1_555
C13 C12 1_555 1_555
H7 C13 1_555 1_555
C14 C9 1_555 1_555
H8 C14 1_555 1_555
C15 C16 1_555 1_555
C16 C5 1_555 1_555
C17 C16 1_555 1_555
C18 H9 1_555 1_555
C19 N1 1_555 1_555
H10 C19 1_555 1_555
C20 N2 1_555 1_555
H11 C20 1_555 1_555
C21 N2 1_555 1_555
H12 C21 1_555 1_555
H13 C21 1_555 1_555
C22 C21 1_555 1_555
C23 C22 1_555 1_555
H14 C23 1_555 1_555
C24 C23 1_555 1_555
H15 C24 1_555 1_555
C25 C24 1_555 1_555
H16 C25 1_555 1_555
C26 C25 1_555 1_555
H17 C26 1_555 1_555
C27 C22 1_555 1_555
C28 C27 1_555 1_555
H18 C28 1_555 1_555
H19 C28 1_555 1_555
C29 N3 1_555 1_555
H20 C29 1_555 1_555
C30 C29 1_555 1_555
H21 C30 1_555 1_555
C31 N3 1_555 1_555
H22 C31 1_555 1_555
F1 C15 1_555 1_555
F2 C15 1_555 1_555
F3 C15 1_555 1_555
F4 C17 1_555 1_555
F5 C17 1_555 1_555
F6 C17 1_555 1_555
Co1_2 O3 1_555 1_555
Co1B N4 1_555 1_555
N4B Co1 1_555 1_555
O3_2 Co1 1_555 1_555
N4 C31 1_555 1_555
O2 C1 1_555 1_555
C6 C7 1_555 1_555
C12 C16 1_555 1_555
C13 C14 1_555 1_555
C19 C20 1_555 1_555
C26 C27 1_555 1_555

#END
