
#######################################################################
#
#                 Cambridge Crystallographic Data Centre
#                                CCDC 
#
#######################################################################
#
# If this CIF has been generated from an entry in the Cambridge 
# Structural Database, then it will include bibliographic, chemical, 
# crystal, experimental, refinement or atomic coordinate data resulting 
# from the CCDC's data processing and validation procedures.
#
#######################################################################

data_SIQDUS
_symmetry_cell_setting           monoclinic
_symmetry_space_group_name_H-M   'P 21/c'
_symmetry_Int_Tables_number      14
_space_group_name_Hall           '-P 2ybc'
loop_
_symmetry_equiv_pos_site_id
_symmetry_equiv_pos_as_xyz
1 x,y,z
2 -x,1/2+y,1/2-z
3 -x,-y,-z
4 x,1/2-y,1/2+z
_cell_length_a                   16.080(7)
_cell_length_b                   10.678(5)
_cell_length_c                   22.186(10)
_cell_angle_alpha                90
_cell_angle_beta                 101.950(7)
_cell_angle_gamma                90
_cell_volume                     3726.83
loop_
_atom_site_label
_atom_site_type_symbol
_atom_site_fract_x
_atom_site_fract_y
_atom_site_fract_z
Cu1 Cu 0.67595(4) -0.23095(5) 0.99816(3)
O1 O 0.7941(2) -0.0786(3) 0.90224(16)
O2 O 0.6645(2) -0.0867(3) 0.92286(15)
O3 O 0.8257(2) 0.0740(4) 0.82112(17)
H1 H 0.8344 0.0193 0.8476
O4 O 0.7253(3) 0.3947(3) 0.61836(15)
H2 H 0.7126 0.4459 0.5904
O5 O 0.7033(2) 0.6062(3) 0.56477(16)
O6 O 0.7215(2) 0.7814(3) 0.61971(17)
O7 O 0.7955(2) -0.2515(3) 0.99018(15)
H3 H 0.7923 -0.1862 0.9675
H4 H 0.8254 -0.2444 1.0267
N1 N 0.5514(3) -0.2314(3) 1.00073(17)
N2 N 0.6397(3) -0.3841(3) 0.94579(18)
C1 C 0.5083(4) -0.1515(5) 1.0289(2)
H5 H 0.5376 -0.0875 1.0527
C2 C 0.4209(4) -0.1610(6) 1.0237(3)
H6 H 0.3927 -0.1032 1.0436
C3 C 0.3764(4) -0.2543(6) 0.9898(3)
H7 H 0.3180 -0.2610 0.9867
C4 C 0.4195(3) -0.3407(5) 0.9592(2)
C5 C 0.3803(4) -0.4411(5) 0.9207(3)
H8 H 0.3222 -0.4545 0.9160
C6 C 0.4255(4) -0.5158(5) 0.8914(3)
H9 H 0.3980 -0.5794 0.8663
C7 C 0.5140(3) -0.5005(4) 0.8977(2)
C8 C 0.5644(4) -0.5750(5) 0.8684(3)
H10 H 0.5395 -0.6380 0.8418
C9 C 0.6488(5) -0.5568(5) 0.8783(3)
H11 H 0.6825 -0.6074 0.8590
C10 C 0.6853(4) -0.4610(5) 0.9179(3)
H12 H 0.7440 -0.4502 0.9251
C11 C 0.5550(3) -0.4057(4) 0.9358(2)
C12 C 0.5075(3) -0.3240(4) 0.9665(2)
C13 C 0.7172(3) -0.0465(4) 0.8930(2)
C14 C 0.6858(3) 0.0442(4) 0.8417(2)
C15 C 0.7410(3) 0.1013(4) 0.8067(2)
C16 C 0.7107(3) 0.1832(4) 0.7593(2)
C17 C 0.6219(3) 0.2048(4) 0.7419(2)
C18 C 0.5832(4) 0.2773(4) 0.6908(2)
H13 H 0.6172 0.3157 0.6669
C19 C 0.4978(4) 0.2926(5) 0.6753(3)
H14 H 0.4746 0.3404 0.6409
C20 C 0.4439(4) 0.2388(5) 0.7095(3)
H15 H 0.3856 0.2520 0.6986
C21 C 0.4773(3) 0.1668(5) 0.7590(3)
H16 H 0.4415 0.1295 0.7818
C22 C 0.5663(3) 0.1477(4) 0.7763(2)
C23 C 0.6007(3) 0.0710(4) 0.8266(2)
H17 H 0.5648 0.0374 0.8503
C24 C 0.7717(3) 0.2425(4) 0.7231(2)
H18 H 0.7541 0.2176 0.6803
H19 H 0.8279 0.2079 0.7383
C25 C 0.7786(3) 0.3854(5) 0.7255(2)
C26 C 0.7529(3) 0.4554(5) 0.6723(2)
C27 C 0.7526(3) 0.5889(4) 0.6739(2)
C28 C 0.7242(3) 0.6670(5) 0.6171(3)
C29 C 0.7810(3) 0.6481(5) 0.7280(2)
H20 H 0.7780 0.7350 0.7292
C30 C 0.8153(3) 0.5824(5) 0.7830(2)
C31 C 0.8536(3) 0.6441(6) 0.8377(3)
H21 H 0.8522 0.7311 0.8390
C32 C 0.8924(4) 0.5807(7) 0.8882(3)
H22 H 0.9200 0.6229 0.9233
C33 C 0.8902(4) 0.4497(7) 0.8864(3)
H23 H 0.9163 0.4057 0.9213
C34 C 0.8519(3) 0.3844(5) 0.8361(2)
H24 H 0.8503 0.2974 0.8373
C35 C 0.8141(3) 0.4491(5) 0.7818(2)
Cu1C Cu 0.67595(4) 0.73095(5) 0.49816(3)
O5C O 0.7033(2) -0.1062(3) 1.06477(16)
O8 O 0.0833(3) 0.2259(5) 0.9097(2)
N3 N 0.0632(3) 0.3371(5) 0.8229(3)
C36 C 0.0186(7) 0.2385(10) 0.7889(5)
H25 H 0.0567 0.1907 0.7698
H26 H -0.0263 0.2720 0.7577
H27 H -0.0052 0.1853 0.8159
C37 C 0.0686(7) 0.4409(11) 0.7863(5)
H28 H 0.1205 0.4851 0.8022
H29 H 0.0211 0.4952 0.7865
H30 H 0.0680 0.4142 0.7449
C38 C 0.0917(5) 0.3255(9) 0.8793(4)
H31 H 0.1207 0.3929 0.9005
O9 O 0.8346(6) 0.1396(8) 0.5509(4)
N4 N 0.9091(4) 0.3166(7) 0.5544(3)
C39 C 0.9560(8) 0.4059(13) 0.5947(6)
H32 H 0.9267 0.4847 0.5897
H33 H 1.0113 0.4158 0.5852
H34 H 0.9620 0.3779 0.6365
C40 C 0.8779(10) 0.3421(15) 0.4919(7)
H35 H 0.9237 0.3696 0.4735
H36 H 0.8355 0.4066 0.4879
H37 H 0.8531 0.2676 0.4716
C41 C 0.8810(7) 0.2172(11) 0.5808(6)
H38 H 0.8973 0.2071 0.6232
loop_
_geom_bond_atom_site_label_1
_geom_bond_atom_site_label_2
_geom_bond_site_symmetry_1
_geom_bond_site_symmetry_2
Cu1 O2 1_555 1_555
O1 C13 1_555 1_555
O2 C13 1_555 1_555
O3 H1 1_555 1_555
O4 H2 1_555 1_555
O5 C28 1_555 1_555
O6 C28 1_555 1_555
O7 Cu1 1_555 1_555
H3 O7 1_555 1_555
H4 O7 1_555 1_555
N1 Cu1 1_555 1_555
N2 Cu1 1_555 1_555
C1 N1 1_555 1_555
H5 C1 1_555 1_555
C2 C1 1_555 1_555
H6 C2 1_555 1_555
C3 C2 1_555 1_555
H7 C3 1_555 1_555
C4 C3 1_555 1_555
C5 C4 1_555 1_555
H8 C5 1_555 1_555
C6 C5 1_555 1_555
H9 C6 1_555 1_555
C7 C6 1_555 1_555
C8 C7 1_555 1_555
H10 C8 1_555 1_555
C9 C8 1_555 1_555
H11 C9 1_555 1_555
C10 N2 1_555 1_555
H12 C10 1_555 1_555
C11 N2 1_555 1_555
C12 N1 1_555 1_555
C13 C14 1_555 1_555
C14 C15 1_555 1_555
C15 O3 1_555 1_555
C16 C15 1_555 1_555
C17 C16 1_555 1_555
C18 C17 1_555 1_555
H13 C18 1_555 1_555
C19 C18 1_555 1_555
H14 C19 1_555 1_555
C20 C19 1_555 1_555
H15 C20 1_555 1_555
C21 C20 1_555 1_555
H16 C21 1_555 1_555
C22 C17 1_555 1_555
C23 C14 1_555 1_555
H17 C23 1_555 1_555
C24 C16 1_555 1_555
H18 C24 1_555 1_555
H19 C24 1_555 1_555
C25 C24 1_555 1_555
C26 O4 1_555 1_555
C27 C26 1_555 1_555
C28 C27 1_555 1_555
C29 C27 1_555 1_555
H20 C29 1_555 1_555
C30 C29 1_555 1_555
C31 C30 1_555 1_555
H21 C31 1_555 1_555
C32 C31 1_555 1_555
H22 C32 1_555 1_555
C33 C32 1_555 1_555
H23 C33 1_555 1_555
C34 C33 1_555 1_555
H24 C34 1_555 1_555
C35 C25 1_555 1_555
O8 C38 1_555 1_555
N3 C36 1_555 1_555
C36 H25 1_555 1_555
H26 C36 1_555 1_555
H27 C36 1_555 1_555
C37 N3 1_555 1_555
H28 C37 1_555 1_555
H29 C37 1_555 1_555
H30 C37 1_555 1_555
C38 N3 1_555 1_555
H31 C38 1_555 1_555
O9 C41 1_555 1_555
N4 C39 1_555 1_555
C39 H32 1_555 1_555
H33 C39 1_555 1_555
H34 C39 1_555 1_555
C40 N4 1_555 1_555
H35 C40 1_555 1_555
H36 C40 1_555 1_555
H37 C40 1_555 1_555
C41 N4 1_555 1_555
H38 C41 1_555 1_555
Cu1C O5 1_555 1_555
O5C Cu1 1_555 1_555
C4 C12 1_555 1_555
C7 C11 1_555 1_555
C9 C10 1_555 1_555
C11 C12 1_555 1_555
C21 C22 1_555 1_555
C22 C23 1_555 1_555
C25 C26 1_555 1_555
C30 C35 1_555 1_555
C34 C35 1_555 1_555

#END
