
#######################################################################
#
#                 Cambridge Crystallographic Data Centre
#                                CCDC 
#
#######################################################################
#
# If this CIF has been generated from an entry in the Cambridge 
# Structural Database, then it will include bibliographic, chemical, 
# crystal, experimental, refinement or atomic coordinate data resulting 
# from the CCDC's data processing and validation procedures.
#
#######################################################################

data_SIQFOO
_symmetry_cell_setting           monoclinic
_symmetry_space_group_name_H-M   'P 21/c'
_symmetry_Int_Tables_number      14
_space_group_name_Hall           '-P 2ybc'
loop_
_symmetry_equiv_pos_site_id
_symmetry_equiv_pos_as_xyz
1 x,y,z
2 -x,1/2+y,1/2-z
3 -x,-y,-z
4 x,1/2-y,1/2+z
_cell_length_a                   13.6265(13)
_cell_length_b                   16.8941(16)
_cell_length_c                   19.4796(18)
_cell_angle_alpha                90
_cell_angle_beta                 107.2390(10)
_cell_angle_gamma                90
_cell_volume                     4282.9
loop_
_atom_site_label
_atom_site_type_symbol
_atom_site_fract_x
_atom_site_fract_y
_atom_site_fract_z
Cd1 Cd 0.23851(3) 0.17139(2) 0.16233(2)
O2 O 0.1991(3) 0.2468(2) 0.0425(2)
O3 O 0.1108(3) 0.1431(3) 0.0572(2)
O4 O -0.0647(3) 0.1134(2) -0.0232(2)
H3 H -0.0252 0.1154 0.0177
O5 O -0.4302(3) 0.1799(2) -0.2346(2)
H4 H -0.4883 0.1852 -0.2623
O6 O -0.6099(3) 0.2390(3) -0.2831(2)
O7 O -0.6682(4) 0.3189(3) -0.2160(3)
N1 N 0.1740(3) 0.0549(3) 0.2071(2)
N2 N -0.1196(4) -0.2368(3) 0.3161(3)
N3 N 0.3677(3) 0.1032(3) 0.1323(3)
N4 N 0.7989(5) -0.0909(4) 0.0740(4)
C1 C 0.0329(4) 0.2971(4) -0.0752(3)
H5 H 0.0918 0.3282 -0.0619
C2 C 0.0311(4) 0.2283(3) -0.0388(3)
C3 C -0.0603(4) 0.1826(3) -0.0577(3)
C4 C -0.1478(4) 0.2073(3) -0.1114(3)
C5 C -0.1424(4) 0.2765(3) -0.1507(3)
C6 C -0.2243(5) 0.3018(4) -0.2103(3)
H6 H -0.2848 0.2726 -0.2240
C7 C -0.2159(6) 0.3688(4) -0.2484(4)
H7 H -0.2711 0.3846 -0.2869
C8 C -0.1277(6) 0.4122(4) -0.2303(4)
H8 H -0.1220 0.4558 -0.2579
C9 C -0.0470(6) 0.3920(4) -0.1713(4)
H9 H 0.0107 0.4243 -0.1573
C10 C -0.0512(5) 0.3224(3) -0.1320(3)
C11 C 0.1202(4) 0.2048(4) 0.0221(3)
C12 C -0.2464(4) 0.1575(3) -0.1258(3)
H10 H -0.2657 0.1391 -0.1752
H11 H -0.2319 0.1112 -0.0949
C13 C -0.3366(4) 0.2015(3) -0.1134(3)
C14 C -0.4263(4) 0.2114(3) -0.1696(3)
C15 C -0.5109(4) 0.2557(3) -0.1611(3)
C16 C -0.5067(5) 0.2851(4) -0.0955(3)
H12 H -0.5628 0.3130 -0.0902
C17 C -0.4196(5) 0.2748(3) -0.0350(3)
C18 C -0.4171(6) 0.3036(5) 0.0331(4)
H13 H -0.4743 0.3300 0.0384
C19 C -0.3328(7) 0.2940(5) 0.0921(4)
H14 H -0.3309 0.3152 0.1366
C20 C -0.2478(6) 0.2502(4) 0.0826(3)
H15 H -0.1909 0.2411 0.1221
C21 C -0.2479(5) 0.2219(4) 0.0187(3)
H16 H -0.1905 0.1944 0.0150
C22 C -0.3335(4) 0.2325(3) -0.0443(3)
C23 C -0.6027(4) 0.2723(4) -0.2235(3)
C24 C 0.4176(5) 0.1338(4) 0.0908(4)
H17 H 0.3941 0.1816 0.0684
C25 C 0.5019(5) 0.1004(4) 0.0779(4)
H18 H 0.5349 0.1265 0.0490
C26 C 0.5384(4) 0.0275(3) 0.1080(3)
C27 C 0.4839(5) -0.0048(4) 0.1507(4)
H19 H 0.5039 -0.0536 0.1724
C28 C 0.4021(5) 0.0326(4) 0.1619(4)
H20 H 0.3682 0.0085 0.1913
C29 C 0.6290(4) -0.0127(3) 0.0962(3)
C30 C 0.6949(5) 0.0231(4) 0.0663(4)
H21 H 0.6847 0.0760 0.0528
C31 C 0.7770(5) -0.0171(4) 0.0552(4)
H22 H 0.8191 0.0097 0.0331
C32 C 0.7346(7) -0.1260(4) 0.1009(6)
H23 H 0.7454 -0.1794 0.1121
C33 C 0.6503(6) -0.0900(4) 0.1144(5)
H24 H 0.6088 -0.1185 0.1358
C34 C -0.0743(6) -0.1780(4) 0.3591(4)
H25 H -0.0872 -0.1731 0.4032
C35 C -0.0110(6) -0.1250(4) 0.3428(4)
H26 H 0.0190 -0.0858 0.3759
C36 C 0.0102(4) -0.1277(3) 0.2781(3)
C37 C -0.0318(6) -0.1907(4) 0.2351(4)
H27 H -0.0177 -0.1981 0.1917
C38 C -0.0948(6) -0.2429(4) 0.2563(4)
H28 H -0.1215 -0.2854 0.2261
C39 C 0.0712(4) -0.0671(3) 0.2542(3)
C40 C 0.1518(5) -0.0259(4) 0.3013(3)
H29 H 0.1725 -0.0384 0.3500
C41 C 0.2005(5) 0.0327(4) 0.2760(3)
H30 H 0.2550 0.0586 0.3084
C42 C 0.1005(5) 0.0140(4) 0.1626(3)
H31 H 0.0824 0.0270 0.1141
C43 C 0.0481(4) -0.0470(3) 0.1833(3)
H32 H -0.0027 -0.0744 0.1491
Cd1A Cd -0.23851(3) -0.32861(2) 0.33767(2)
Cd1C Cd -0.76149(3) 0.32861(2) -0.33767(2)
O6C O 0.3901(3) 0.2610(3) 0.2169(2)
O7C O 0.3318(4) 0.1811(3) 0.2840(3)
N2A N 0.1196(4) 0.2632(3) 0.1839(3)
O1 O 0.3041(14) 0.4975(11) 0.0802(11)
H1 H 0.2556 0.4891 0.0418
H2 H 0.3088 0.4643 0.1146
loop_
_geom_bond_atom_site_label_1
_geom_bond_atom_site_label_2
_geom_bond_site_symmetry_1
_geom_bond_site_symmetry_2
Cd1 O2 1_555 1_555
O1 H1 1_555 1_555
H2 O1 1_555 1_555
O2 C11 1_555 1_555
O3 Cd1 1_555 1_555
O4 H3 1_555 1_555
O5 H4 1_555 1_555
O6 C23 1_555 1_555
O7 C23 1_555 1_555
N1 Cd1 1_555 1_555
N2 C34 1_555 1_555
N3 Cd1 1_555 1_555
N4 C31 1_555 1_555
C1 H5 1_555 1_555
C2 C1 1_555 1_555
C3 O4 1_555 1_555
C4 C3 1_555 1_555
C5 C4 1_555 1_555
C6 C5 1_555 1_555
H6 C6 1_555 1_555
C7 C6 1_555 1_555
H7 C7 1_555 1_555
C8 C7 1_555 1_555
H8 C8 1_555 1_555
C9 C8 1_555 1_555
H9 C9 1_555 1_555
C10 C1 1_555 1_555
C11 O3 1_555 1_555
C12 C4 1_555 1_555
H10 C12 1_555 1_555
H11 C12 1_555 1_555
C13 C12 1_555 1_555
C14 O5 1_555 1_555
C15 C14 1_555 1_555
C16 C15 1_555 1_555
H12 C16 1_555 1_555
C17 C16 1_555 1_555
C18 C17 1_555 1_555
H13 C18 1_555 1_555
C19 C18 1_555 1_555
H14 C19 1_555 1_555
C20 C19 1_555 1_555
H15 C20 1_555 1_555
C21 C20 1_555 1_555
H16 C21 1_555 1_555
C22 C13 1_555 1_555
C23 C15 1_555 1_555
C24 N3 1_555 1_555
H17 C24 1_555 1_555
C25 C24 1_555 1_555
H18 C25 1_555 1_555
C26 C25 1_555 1_555
C27 C26 1_555 1_555
H19 C27 1_555 1_555
C28 N3 1_555 1_555
H20 C28 1_555 1_555
C29 C26 1_555 1_555
C30 C29 1_555 1_555
H21 C30 1_555 1_555
C31 C30 1_555 1_555
H22 C31 1_555 1_555
C32 N4 1_555 1_555
H23 C32 1_555 1_555
C33 C29 1_555 1_555
H24 C33 1_555 1_555
C34 H25 1_555 1_555
C35 C34 1_555 1_555
H26 C35 1_555 1_555
C36 C35 1_555 1_555
C37 C36 1_555 1_555
H27 C37 1_555 1_555
C38 N2 1_555 1_555
H28 C38 1_555 1_555
C39 C36 1_555 1_555
C40 C39 1_555 1_555
H29 C40 1_555 1_555
C41 N1 1_555 1_555
H30 C41 1_555 1_555
C42 N1 1_555 1_555
H31 C42 1_555 1_555
C43 C39 1_555 1_555
H32 C43 1_555 1_555
Cd1A N2 1_555 1_555
Cd1C O6 1_555 1_555
O6C Cd1 1_555 1_555
O7C Cd1 1_555 1_555
N2A Cd1 1_555 1_555
O7 Cd1C 1_555 1_555
C2 C3 1_555 1_555
C2 C11 1_555 1_555
C5 C10 1_555 1_555
C9 C10 1_555 1_555
C13 C14 1_555 1_555
C17 C22 1_555 1_555
C21 C22 1_555 1_555
C27 C28 1_555 1_555
C32 C33 1_555 1_555
C37 C38 1_555 1_555
C40 C41 1_555 1_555
C42 C43 1_555 1_555

#END
