
#######################################################################
#
#                 Cambridge Crystallographic Data Centre
#                                CCDC 
#
#######################################################################
#
# If this CIF has been generated from an entry in the Cambridge 
# Structural Database, then it will include bibliographic, chemical, 
# crystal, experimental, refinement or atomic coordinate data resulting 
# from the CCDC's data processing and validation procedures.
#
#######################################################################

data_SIQKEK
_symmetry_cell_setting           monoclinic
_symmetry_space_group_name_H-M   'C 2/c'
_symmetry_Int_Tables_number      15
_space_group_name_Hall           '-C 2yn'
loop_
_symmetry_equiv_pos_site_id
_symmetry_equiv_pos_as_xyz
1 x,y,z
2 -x,y,1/2-z
3 1/2+x,1/2+y,z
4 1/2-x,1/2+y,1/2-z
5 -x,-y,-z
6 x,-y,1/2+z
7 1/2-x,1/2-y,-z
8 1/2+x,1/2-y,1/2+z
_cell_length_a                   19.574(4)
_cell_length_b                   10.397(2)
_cell_length_c                   16.391(3)
_cell_angle_alpha                90
_cell_angle_beta                 126.57(3)
_cell_angle_gamma                90
_cell_volume                     2679.04
loop_
_atom_site_label
_atom_site_type_symbol
_atom_site_fract_x
_atom_site_fract_y
_atom_site_fract_z
Ni1 Ni 0.2500 0.2500 0.0000
S1 S 0.00960(4) 0.30089(7) -0.11589(4)
O1 O 0.33777(10) 0.12701(15) 0.11809(11)
H1 H 0.3819 0.1260 0.1228
N1 N 0.20604(11) 0.14776(18) 0.12985(13)
N2 N 0.16604(11) 0.20303(17) 0.03460(13)
N3 N 0.07344(11) 0.19144(17) 0.06850(13)
C1 C 0.14988(13) 0.1414(2) 0.14866(15)
C2 C 0.16798(14) 0.0722(2) 0.23815(15)
C3 C 0.08589(14) 0.2306(2) -0.00320(16)
C4 C 0.25228(14) 0.0595(2) 0.32308(16)
H2 H 0.2952 0.1057 0.3278
C5 C 0.10622(14) 0.0079(2) 0.23876(16)
H3 H 0.0489 0.0184 0.1856
C6 C -0.00055(14) 0.2156(2) 0.06422(17)
C7 C -0.07039(16) 0.1365(2) 0.0080(2)
H4 H -0.0718 0.0716 -0.0320
C8 C -0.13834(17) 0.1546(3) 0.0117(2)
H5 H -0.1855 0.1008 -0.0251
C9 C -0.1365(2) 0.2512(3) 0.0692(3)
H6 H -0.1817 0.2612 0.0731
C10 C -0.0687(2) 0.3335(4) 0.1213(2)
H7 H -0.0689 0.4011 0.1583
C11 C 0.00030(18) 0.3160(3) 0.1191(2)
H8 H 0.0466 0.3716 0.1543
C12 C 0.27126(14) -0.0227(2) 0.40016(16)
H9 H 0.3278 -0.0309 0.4563
C13 C 0.13111(14) -0.0726(2) 0.31981(16)
H10 H 0.0891 -0.1153 0.3193
N4 N 0.21196(11) -0.09162(17) 0.39813(12)
S1F S 0.49040(4) 0.19911(7) 0.11589(4)
O1F O 0.16223(10) 0.37299(15) -0.11809(11)
H1F H 0.1181 0.3740 -0.1228
N1F N 0.29396(11) 0.35224(18) -0.12985(13)
N2F N 0.33396(11) 0.29697(17) -0.03460(13)
N3F N 0.42656(11) 0.30856(17) -0.06850(13)
C1F C 0.35012(13) 0.3586(2) -0.14866(15)
C2F C 0.33202(14) 0.4278(2) -0.23815(15)
C3F C 0.41411(14) 0.2694(2) 0.00320(16)
C4F C 0.24772(14) 0.4405(2) -0.32308(16)
H2F H 0.2048 0.3943 -0.3278
C5F C 0.39378(14) 0.4921(2) -0.23876(16)
H3F H 0.4511 0.4816 -0.1856
C6F C 0.50055(14) 0.2844(2) -0.06422(17)
C7F C 0.57039(16) 0.3635(2) -0.0080(2)
H4F H 0.5718 0.4284 0.0320
C8F C 0.63834(17) 0.3454(3) -0.0117(2)
H5F H 0.6855 0.3992 0.0251
C9F C 0.6365(2) 0.2488(3) -0.0692(3)
H6F H 0.6817 0.2388 -0.0731
C10F C 0.5687(2) 0.1665(4) -0.1213(2)
H7F H 0.5689 0.0989 -0.1583
C11F C 0.49970(18) 0.1840(3) -0.1191(2)
H8F H 0.4534 0.1284 -0.1543
C12F C 0.22874(14) 0.5227(2) -0.40016(16)
H9F H 0.1722 0.5309 -0.4563
C13F C 0.36889(14) 0.5726(2) -0.31981(16)
H10F H 0.4109 0.6153 -0.3193
N4F N 0.28804(11) 0.59162(17) -0.39813(12)
Ni1C Ni 0.2500 -0.2500 0.5000
Ni1C_2 Ni 0.2500 0.7500 -0.5000
N4C N 0.28804(11) 0.40838(17) 0.10187(12)
N4E N 0.21196(11) 0.09162(17) -0.10187(12)
loop_
_geom_bond_atom_site_label_1
_geom_bond_atom_site_label_2
_geom_bond_site_symmetry_1
_geom_bond_site_symmetry_2
Ni1 O1 1_555 1_555
S1 C3 1_555 1_555
O1 H1 1_555 1_555
N1 N2 1_555 1_555
N2 Ni1 1_555 1_555
N3 C1 1_555 1_555
C1 N1 1_555 1_555
C2 C1 1_555 1_555
C3 N2 1_555 1_555
C4 C2 1_555 1_555
H2 C4 1_555 1_555
C5 C2 1_555 1_555
H3 C5 1_555 1_555
C6 N3 1_555 1_555
C7 C6 1_555 1_555
H4 C7 1_555 1_555
C8 C7 1_555 1_555
H5 C8 1_555 1_555
C9 C8 1_555 1_555
H6 C9 1_555 1_555
C10 C9 1_555 1_555
H7 C10 1_555 1_555
C11 C6 1_555 1_555
H8 C11 1_555 1_555
C12 C4 1_555 1_555
H9 C12 1_555 1_555
C13 C5 1_555 1_555
H10 C13 1_555 1_555
N4 C12 1_555 1_555
S1F C3F 1_555 1_555
O1F Ni1 1_555 1_555
H1F O1F 1_555 1_555
N1F N2F 1_555 1_555
N2F Ni1 1_555 1_555
N3F C1F 1_555 1_555
C1F N1F 1_555 1_555
C2F C1F 1_555 1_555
C3F N2F 1_555 1_555
C4F C2F 1_555 1_555
H2F C4F 1_555 1_555
C5F C2F 1_555 1_555
H3F C5F 1_555 1_555
C6F N3F 1_555 1_555
C7F C6F 1_555 1_555
H4F C7F 1_555 1_555
C8F C7F 1_555 1_555
H5F C8F 1_555 1_555
C9F C8F 1_555 1_555
H6F C9F 1_555 1_555
C10F C9F 1_555 1_555
H7F C10F 1_555 1_555
C11F C6F 1_555 1_555
H8F C11F 1_555 1_555
C12F C4F 1_555 1_555
H9F C12F 1_555 1_555
C13F C5F 1_555 1_555
H10F C13F 1_555 1_555
N4F C12F 1_555 1_555
Ni1C N4 1_555 1_555
Ni1C_2 N4F 1_555 1_555
N4C Ni1 1_555 1_555
N4E Ni1 1_555 1_555
N3 C3 1_555 1_555
C10 C11 1_555 1_555
C13 N4 1_555 1_555
N3F C3F 1_555 1_555
C10F C11F 1_555 1_555
C13F N4F 1_555 1_555

#END
