
#######################################################################
#
#                 Cambridge Crystallographic Data Centre
#                                CCDC 
#
#######################################################################
#
# If this CIF has been generated from an entry in the Cambridge 
# Structural Database, then it will include bibliographic, chemical, 
# crystal, experimental, refinement or atomic coordinate data resulting 
# from the CCDC's data processing and validation procedures.
#
#######################################################################

data_SIQXIZ
_symmetry_cell_setting           monoclinic
_symmetry_space_group_name_H-M   'P 21/c'
_symmetry_Int_Tables_number      14
_space_group_name_Hall           '-P 2ybc'
loop_
_symmetry_equiv_pos_site_id
_symmetry_equiv_pos_as_xyz
1 x,y,z
2 x,1/2-y,1/2+z
3 -x,-y,-z
4 -x,1/2+y,1/2-z
_cell_length_a                   8.1349(3)
_cell_length_b                   12.0205(4)
_cell_length_c                   20.9954(7)
_cell_angle_alpha                90
_cell_angle_beta                 91.7050(10)
_cell_angle_gamma                90
_cell_volume                     2052.14
loop_
_atom_site_label
_atom_site_type_symbol
_atom_site_fract_x
_atom_site_fract_y
_atom_site_fract_z
K1 K 0.28116(13) 1.07842(8) -0.02437(6)
S1 S 0.0801(2) 0.97277(9) 0.09226(6)
P1 P 0.21028(15) 0.83735(9) 0.10226(6)
N1 N 0.2280(5) 0.7568(3) 0.0411(2)
C1 C 0.3306(5) 0.7845(4) -0.0046(2)
O1 O 0.4049(4) 0.8743(2) -0.0086(2)
C2 C 0.4095(5) 0.8665(3) 0.1378(2)
C3 C 0.5205(6) 0.7808(4) 0.1440(3)
H1 H 0.4921(6) 0.7105(4) 0.1287(3)
C4 C 0.6718(7) 0.7974(5) 0.1722(3)
H2 H 0.7459(7) 0.7388(5) 0.1765(3)
C5 C 0.7131(7) 0.8999(5) 0.1937(3)
H3 H 0.8167(7) 0.9118(5) 0.2124(3)
C6 C 0.6053(6) 0.9855(4) 0.1886(3)
H4 H 0.6341(6) 1.0552(4) 0.2045(3)
C7 C 0.4533(6) 0.9690(4) 0.1598(2)
H5 H 0.3801(6) 1.0282(4) 0.1554(2)
C8 C 0.1237(6) 0.7469(4) 0.1607(2)
C9 C 0.0734(7) 0.6410(4) 0.1467(3)
H6 H 0.0832(7) 0.6134(4) 0.1055(3)
C10 C 0.0082(8) 0.5749(5) 0.1932(3)
H7 H -0.0292(8) 0.5039(5) 0.1829(3)
C11 C -0.0018(7) 0.6116(5) 0.2527(3)
H8 H -0.0451(7) 0.5659(5) 0.2837(3)
C12 C 0.0510(8) 0.7157(5) 0.2684(3)
H9 H 0.0441(8) 0.7411(5) 0.3100(3)
C13 C 0.1142(6) 0.7830(4) 0.2225(3)
H10 H 0.1512(6) 0.8539(4) 0.2334(3)
C14 C 0.3550(6) 0.6989(4) -0.0541(2)
C15 C 0.3158(8) 0.5902(4) -0.0437(3)
H11 H 0.2703(8) 0.5691(4) -0.0055(3)
C16 C 0.3435(10) 0.5121(5) -0.0899(4)
H12 H 0.3156(10) 0.4382(5) -0.0828(4)
C17 C 0.4116(9) 0.5416(5) -0.1461(3)
H13 H 0.4328(9) 0.4881(5) -0.1768(3)
C18 C 0.4469(9) 0.6479(5) -0.1561(3)
H14 H 0.4898(9) 0.6690(5) -0.1949(3)
C19 C 0.4216(7) 0.7268(4) -0.1109(3)
H15 H 0.4499(7) 0.8004(4) -0.1187(3)
O2 O 0.1182(5) 1.2706(3) 0.0019(2)
H16 H 0.0019(21) 1.2732(47) -0.0115(30)
C20 C 0.1364(10) 1.3353(7) 0.0536(4)
H17 H 0.0626(10) 1.3974(7) 0.0500(4)
H18 H 0.2477(10) 1.3618(7) 0.0569(4)
H19 H 0.1121(10) 1.2930(7) 0.0909(4)
K1B K 0.71884(13) 0.92158(8) 0.02437(6)
S1B S 0.9199(2) 1.02723(9) -0.09226(6)
K1_2 K 1.28116(13) 1.07842(8) -0.02437(6)
S1_2 S 1.0801(2) 0.97277(9) 0.09226(6)
O1B O 0.5951(4) 1.1257(2) 0.0086(2)
K1B_2 K -0.28116(13) 0.92158(8) 0.02437(6)
S1B_2 S -0.0801(2) 1.02723(9) -0.09226(6)
O2B O 0.8818(5) 0.7294(3) -0.0019(2)
H16B H 0.9981(21) 0.7268(47) 0.0115(30)
C20B C 0.8636(10) 0.6647(7) -0.0536(4)
H17B H 0.9374(10) 0.6026(7) -0.0500(4)
H18B H 0.7523(10) 0.6382(7) -0.0569(4)
H19B H 0.8879(10) 0.7070(7) -0.0909(4)
C1B C 0.6694(5) 1.2155(4) 0.0046(2)
N1B N 0.7720(5) 1.2432(3) -0.0411(2)
P1B P 0.78972(15) 1.16265(9) -0.10226(6)
C2B C 0.5905(5) 1.1335(3) -0.1378(2)
C3B C 0.4795(6) 1.2192(4) -0.1440(3)
H1B H 0.5079(6) 1.2895(4) -0.1287(3)
C4B C 0.3282(7) 1.2026(5) -0.1722(3)
H2B H 0.2541(7) 1.2612(5) -0.1765(3)
C5B C 0.2869(7) 1.1001(5) -0.1937(3)
H3B H 0.1833(7) 1.0882(5) -0.2124(3)
C6B C 0.3947(6) 1.0145(4) -0.1886(3)
H4B H 0.3659(6) 0.9448(4) -0.2045(3)
C7B C 0.5467(6) 1.0310(4) -0.1598(2)
H5B H 0.6199(6) 0.9718(4) -0.1554(2)
C8B C 0.8763(6) 1.2531(4) -0.1607(2)
C9B C 0.9266(7) 1.3590(4) -0.1467(3)
H6B H 0.9168(7) 1.3866(4) -0.1055(3)
C10B C 0.9918(8) 1.4251(5) -0.1932(3)
H7B H 1.0292(8) 1.4961(5) -0.1829(3)
C11B C 1.0018(7) 1.3884(5) -0.2527(3)
H8B H 1.0451(7) 1.4341(5) -0.2837(3)
C12B C 0.9490(8) 1.2843(5) -0.2684(3)
H9B H 0.9559(8) 1.2589(5) -0.3100(3)
C13B C 0.8858(6) 1.2170(4) -0.2225(3)
H10B H 0.8488(6) 1.1461(4) -0.2334(3)
C14B C 0.6450(6) 1.3011(4) 0.0541(2)
C15B C 0.6842(8) 1.4098(4) 0.0437(3)
H11B H 0.7297(8) 1.4309(4) 0.0055(3)
C16B C 0.6565(10) 1.4879(5) 0.0899(4)
H12B H 0.6844(10) 1.5618(5) 0.0828(4)
C17B C 0.5884(9) 1.4584(5) 0.1461(3)
H13B H 0.5672(9) 1.5119(5) 0.1768(3)
C18B C 0.5531(9) 1.3521(5) 0.1561(3)
H14B H 0.5102(9) 1.3310(5) 0.1949(3)
C19B C 0.5784(7) 1.2732(4) 0.1109(3)
H15B H 0.5501(7) 1.1996(4) 0.1187(3)
loop_
_geom_bond_atom_site_label_1
_geom_bond_atom_site_label_2
_geom_bond_site_symmetry_1
_geom_bond_site_symmetry_2
K1 S1 1_555 1_555
S1 P1 1_555 1_555
P1 N1 1_555 1_555
N1 C1 1_555 1_555
C1 O1 1_555 1_555
O1 K1 1_555 1_555
C2 P1 1_555 1_555
C3 C2 1_555 1_555
H1 C3 1_555 1_555
C4 C3 1_555 1_555
H2 C4 1_555 1_555
C5 C4 1_555 1_555
H3 C5 1_555 1_555
C6 C5 1_555 1_555
H4 C6 1_555 1_555
C7 C2 1_555 1_555
H5 C7 1_555 1_555
C8 P1 1_555 1_555
C9 C8 1_555 1_555
H6 C9 1_555 1_555
C10 C9 1_555 1_555
H7 C10 1_555 1_555
C11 C10 1_555 1_555
H8 C11 1_555 1_555
C12 C11 1_555 1_555
H9 C12 1_555 1_555
C13 C8 1_555 1_555
H10 C13 1_555 1_555
C14 C1 1_555 1_555
C15 C14 1_555 1_555
H11 C15 1_555 1_555
C16 C15 1_555 1_555
H12 C16 1_555 1_555
C17 C16 1_555 1_555
H13 C17 1_555 1_555
C18 C17 1_555 1_555
H14 C18 1_555 1_555
C19 C14 1_555 1_555
H15 C19 1_555 1_555
O2 K1 1_555 1_555
H16 O2 1_555 1_555
C20 O2 1_555 1_555
H17 C20 1_555 1_555
H18 C20 1_555 1_555
H19 C20 1_555 1_555
K1B O1 1_555 1_555
S1B K1B 1_555 1_555
K1_2 S1B 1_555 1_555
S1_2 K1B 1_555 1_555
O1B K1 1_555 1_555
K1B_2 S1 1_555 1_555
S1B_2 K1 1_555 1_555
O2B K1B 1_555 1_555
H16B O2B 1_555 1_555
C20B O2B 1_555 1_555
H17B C20B 1_555 1_555
H18B C20B 1_555 1_555
H19B C20B 1_555 1_555
C1B O1B 1_555 1_555
N1B C1B 1_555 1_555
P1B S1B 1_555 1_555
C2B P1B 1_555 1_555
C3B C2B 1_555 1_555
H1B C3B 1_555 1_555
C4B C3B 1_555 1_555
H2B C4B 1_555 1_555
C5B C4B 1_555 1_555
H3B C5B 1_555 1_555
C6B C5B 1_555 1_555
H4B C6B 1_555 1_555
C7B C2B 1_555 1_555
H5B C7B 1_555 1_555
C8B P1B 1_555 1_555
C9B C8B 1_555 1_555
H6B C9B 1_555 1_555
C10B C9B 1_555 1_555
H7B C10B 1_555 1_555
C11B C10B 1_555 1_555
H8B C11B 1_555 1_555
C12B C11B 1_555 1_555
H9B C12B 1_555 1_555
C13B C8B 1_555 1_555
H10B C13B 1_555 1_555
C14B C1B 1_555 1_555
C15B C14B 1_555 1_555
H11B C15B 1_555 1_555
C16B C15B 1_555 1_555
H12B C16B 1_555 1_555
C17B C16B 1_555 1_555
H13B C17B 1_555 1_555
C18B C17B 1_555 1_555
H14B C18B 1_555 1_555
C19B C14B 1_555 1_555
H15B C19B 1_555 1_555
C6 C7 1_555 1_555
C12 C13 1_555 1_555
C18 C19 1_555 1_555
K1B O1B 1_555 1_555
K1_2 S1_2 1_555 1_555
K1B_2 S1B_2 1_555 1_555
N1B P1B 1_555 1_555
C6B C7B 1_555 1_555
C12B C13B 1_555 1_555
C18B C19B 1_555 1_555

#END
