
#######################################################################
#
#                 Cambridge Crystallographic Data Centre
#                                CCDC 
#
#######################################################################
#
# If this CIF has been generated from an entry in the Cambridge 
# Structural Database, then it will include bibliographic, chemical, 
# crystal, experimental, refinement or atomic coordinate data resulting 
# from the CCDC's data processing and validation procedures.
#
#######################################################################

data_SIRDII
_symmetry_cell_setting           monoclinic
_symmetry_space_group_name_H-M   'P 21/n'
_symmetry_Int_Tables_number      14
_space_group_name_Hall           '-P 2yn'
loop_
_symmetry_equiv_pos_site_id
_symmetry_equiv_pos_as_xyz
1 x,y,z
2 1/2-x,1/2+y,1/2-z
3 -x,-y,-z
4 1/2+x,1/2-y,1/2+z
_cell_length_a                   7.8637(6)
_cell_length_b                   12.3000(10)
_cell_length_c                   28.171(2)
_cell_angle_alpha                90
_cell_angle_beta                 92.8980(10)
_cell_angle_gamma                90
_cell_volume                     2721.31
loop_
_atom_site_label
_atom_site_type_symbol
_atom_site_fract_x
_atom_site_fract_y
_atom_site_fract_z
Cd1 Cd 0.50177(2) 0.428544(15) 0.118182(6)
Cd2 Cd 1.04851(2) 0.411235(15) 0.156322(6)
O1 O 0.7985(2) 0.50075(15) 0.12936(6)
O2 O 0.6379(2) 0.52978(16) 0.06447(6)
O3 O 0.9365(2) 0.63038(16) -0.07946(6)
O4 O 1.1234(3) 0.7672(2) -0.07333(7)
O5 O 1.2743(2) 0.52113(15) 0.13815(6)
O6 O 1.4639(3) 0.6430(2) 0.16189(10)
O7 O 1.2192(2) 0.80178(16) 0.31592(6)
O8 O 0.9394(2) 0.82976(17) 0.31672(6)
O9 O 0.8893(2) 0.25534(16) 0.16636(7)
H1 H 0.8839 0.2431 0.1370
H2 H 0.7943 0.2730 0.1752
N1 N 0.4431(3) 0.29248(19) 0.06515(8)
N2 N 0.4808(3) 0.03277(19) -0.26873(8)
C1 C 0.9043(3) 0.6195(2) 0.06895(8)
C2 C 0.9117(3) 0.6233(2) 0.01942(8)
H3 H 0.8406 0.5783 0.0008
C3 C 1.0223(3) 0.6926(2) -0.00248(9)
C4 C 1.1267(3) 0.7607(2) 0.02564(9)
H4 H 1.1980 0.8101 0.0114
C5 C 1.1244(3) 0.7552(2) 0.07468(9)
H5 H 1.1975 0.7997 0.0930
C6 C 1.0149(3) 0.6845(2) 0.09749(8)
C7 C 0.7736(3) 0.5455(2) 0.08894(8)
C8 C 1.0287(3) 0.6975(2) -0.05623(9)
C9 C 1.0191(3) 0.6936(2) 0.15058(8)
C10 C 1.1724(3) 0.6754(2) 0.17757(8)
C11 C 1.1873(3) 0.7077(2) 0.22495(9)
H6 H 1.2902 0.6982 0.2422
C12 C 1.0499(3) 0.7542(2) 0.24704(8)
C13 C 0.8944(3) 0.7636(2) 0.22129(9)
H7 H 0.7995 0.7894 0.2362
C14 C 0.8801(3) 0.7347(2) 0.17376(9)
H8 H 0.7760 0.7428 0.1570
C15 C 1.3173(3) 0.6126(2) 0.15770(9)
C16 C 1.0727(3) 0.7973(2) 0.29674(9)
C17 C 0.3509(4) 0.2039(2) 0.07491(10)
H9 H 0.3173 0.1943 0.1058
C18 C 0.3038(4) 0.1270(2) 0.04134(10)
H10 H 0.2406 0.0668 0.0498
C19 C 0.3511(3) 0.1394(2) -0.00570(9)
C20 C 0.4452(4) 0.2306(2) -0.01523(10)
H11 H 0.4797 0.2423 -0.0459
C21 C 0.4891(4) 0.3049(2) 0.02017(10)
H12 H 0.5528 0.3656 0.0126
C22 C 0.2939(4) 0.0570(3) -0.04310(10)
H13 H 0.1716 0.0636 -0.0488
H14 H 0.3166 -0.0153 -0.0305
C23 C 0.3775(4) 0.0674(2) -0.09025(10)
H15 H 0.4997 0.0593 -0.0850
H16 H 0.3556 0.1395 -0.1031
C24 C 0.3124(5) -0.0172(3) -0.12637(10)
H17 H 0.3465 -0.0888 -0.1150
H18 H 0.1889 -0.0151 -0.1283
C25 C 0.3262(4) -0.0072(2) -0.26068(9)
H19 H 0.2531 -0.0237 -0.2867
C26 C 0.2703(4) -0.0252(2) -0.21563(9)
H20 H 0.1618 -0.0529 -0.2119
C27 C 0.3758(4) -0.0018(2) -0.17588(10)
C28 C 0.5369(5) 0.0357(3) -0.18447(11)
H21 H 0.6138 0.0502 -0.1591
C29 C 0.5849(4) 0.0520(3) -0.23042(11)
H22 H 0.6943 0.0774 -0.2350
Cd1_2 Cd 1.50177(2) 0.428544(15) 0.118182(6)
Cd1A Cd 0.99823(2) 0.928544(15) 0.381818(6)
Cd2A Cd 1.45149(2) 0.911235(15) 0.343678(6)
Cd2B Cd 0.95149(2) 0.588765(15) -0.156322(6)
Cd2C Cd 0.54851(2) 0.088765(15) -0.343678(6)
O3B O 1.0635(2) 0.36962(16) 0.07946(6)
O5_2 O 0.2743(2) 0.52113(15) 0.13815(6)
O7A O 1.2808(2) 0.30178(16) 0.18408(6)
O8A O 0.5606(2) 0.32976(17) 0.18328(6)
N2C N 0.9808(3) 0.46723(19) 0.23127(8)
loop_
_geom_bond_atom_site_label_1
_geom_bond_atom_site_label_2
_geom_bond_site_symmetry_1
_geom_bond_site_symmetry_2
Cd1 O1 1_555 1_555
Cd2 O1 1_555 1_555
O1 C7 1_555 1_555
O2 Cd1 1_555 1_555
O3 C8 1_555 1_555
O4 C8 1_555 1_555
O5 Cd2 1_555 1_555
O6 C15 1_555 1_555
O7 C16 1_555 1_555
O8 C16 1_555 1_555
O9 Cd2 1_555 1_555
H1 O9 1_555 1_555
H2 O9 1_555 1_555
N1 Cd1 1_555 1_555
N2 C25 1_555 1_555
C1 C2 1_555 1_555
C2 H3 1_555 1_555
C3 C2 1_555 1_555
C4 C3 1_555 1_555
H4 C4 1_555 1_555
C5 C4 1_555 1_555
H5 C5 1_555 1_555
C6 C1 1_555 1_555
C7 O2 1_555 1_555
C8 C3 1_555 1_555
C9 C6 1_555 1_555
C10 C9 1_555 1_555
C11 C10 1_555 1_555
H6 C11 1_555 1_555
C12 C11 1_555 1_555
C13 C12 1_555 1_555
H7 C13 1_555 1_555
C14 C9 1_555 1_555
H8 C14 1_555 1_555
C15 O5 1_555 1_555
C16 C12 1_555 1_555
C17 N1 1_555 1_555
H9 C17 1_555 1_555
C18 C17 1_555 1_555
H10 C18 1_555 1_555
C19 C18 1_555 1_555
C20 C19 1_555 1_555
H11 C20 1_555 1_555
C21 N1 1_555 1_555
H12 C21 1_555 1_555
C22 C19 1_555 1_555
H13 C22 1_555 1_555
H14 C22 1_555 1_555
C23 C22 1_555 1_555
H15 C23 1_555 1_555
H16 C23 1_555 1_555
C24 C23 1_555 1_555
H17 C24 1_555 1_555
H18 C24 1_555 1_555
C25 H19 1_555 1_555
C26 C25 1_555 1_555
H20 C26 1_555 1_555
C27 C24 1_555 1_555
C28 C27 1_555 1_555
H21 C28 1_555 1_555
C29 N2 1_555 1_555
H22 C29 1_555 1_555
Cd1_2 O5 1_555 1_555
Cd1A O8 1_555 1_555
Cd2A O7 1_555 1_555
Cd2B O3 1_555 1_555
Cd2C N2 1_555 1_555
O3B Cd2 1_555 1_555
O5_2 Cd1 1_555 1_555
O7A Cd2 1_555 1_555
O8A Cd1 1_555 1_555
N2C Cd2 1_555 1_555
C1 C7 1_555 1_555
C5 C6 1_555 1_555
C10 C15 1_555 1_555
C13 C14 1_555 1_555
C20 C21 1_555 1_555
C26 C27 1_555 1_555
C28 C29 1_555 1_555

#END
