
#######################################################################
#
#                 Cambridge Crystallographic Data Centre
#                                CCDC 
#
#######################################################################
#
# If this CIF has been generated from an entry in the Cambridge 
# Structural Database, then it will include bibliographic, chemical, 
# crystal, experimental, refinement or atomic coordinate data resulting 
# from the CCDC's data processing and validation procedures.
#
#######################################################################

data_SIRDEC
_symmetry_cell_setting           monoclinic
_symmetry_space_group_name_H-M   'P 21/c'
_symmetry_Int_Tables_number      14
_space_group_name_Hall           '-P 2ybc'
loop_
_symmetry_equiv_pos_site_id
_symmetry_equiv_pos_as_xyz
1 x,y,z
2 -x,1/2+y,1/2-z
3 -x,-y,-z
4 x,1/2-y,1/2+z
_cell_length_a                   8.563(2)
_cell_length_b                   15.887(2)
_cell_length_c                   10.533(2)
_cell_angle_alpha                90
_cell_angle_beta                 113.55(1)
_cell_angle_gamma                90
_cell_volume                     1313.57
loop_
_atom_site_label
_atom_site_type_symbol
_atom_site_fract_x
_atom_site_fract_y
_atom_site_fract_z
Hg1 Hg 0.0459(1) 0.5776(1) 0.8476(1)
Hg2 Hg 0.0349(1) 0.7615(1) 1.1127(1)
Cl1 Cl 0.1772(7) 0.5812(3) 1.0876(5)
Cl2 Cl -0.1080(8) 0.5443(4) 0.6171(6)
O1 O 0.3124(17) 0.6185(9) 0.8083(14)
O2 O -0.0991(17) 0.7196(8) 0.8497(13)
N1 N 0.2378(20) 0.8210(9) 1.0983(15)
N2 N -0.1558(19) 0.7088(9) 1.1490(15)
C1 C 0.3335(25) 0.6272(13) 0.7013(21)
C2 C 0.4610(28) 0.5843(15) 0.6612(27)
C3 C 0.4477(28) 0.6270(14) 0.5259(24)
C4 C 0.2876(28) 0.8224(13) 0.9794(23)
C5 C -0.1794(24) 0.7743(12) 0.7644(20)
C6 C -0.3274(27) 0.8275(12) 0.7681(22)
C7 C -0.3632(35) 0.8885(15) 0.6497(28)
C8 C -0.2744(24) 0.6450(13) 1.0647(19)
H1 H 0.5734 0.5914 0.7320
H2 H 0.4355 0.5254 0.6463
H3 H 0.4408 0.5855 0.4576
H4 H 0.5442 0.6627 0.5425
H5 H 0.2002 0.8483 0.9007
H6 H 0.3079 0.7663 0.9558
H7 H -0.2942 0.8568 0.8546
H8 H -0.4248 0.7928 0.7540
H9 H -0.3232 0.9435 0.6844
H10 H -0.4856 0.8913 0.5952
H11 H -0.2136 0.6006 1.0424
H12 H -0.3546 0.6697 0.9809
C1C C 0.3335(25) 0.8728(13) 1.2013(21)
C5C C -0.1794(24) 0.7257(12) 1.2644(20)
N1C N 0.2378(20) 0.6790(9) 0.5983(15)
C4C C 0.2876(28) 0.6776(13) 0.4794(23)
C3C C 0.4477(28) 0.8730(14) 1.0259(24)
N2C N -0.1558(19) 0.7912(9) 0.6490(15)
C8C C -0.2744(24) 0.8550(13) 0.5647(19)
C7C C -0.3632(35) 0.6115(15) 1.1497(28)
O1C O 0.3124(17) 0.8815(9) 1.3083(14)
C2C C 0.4610(28) 0.9157(15) 1.1612(27)
O2C O -0.0991(17) 0.7804(8) 1.3497(13)
C6C C -0.3274(27) 0.6725(12) 1.2681(22)
Hg2C Hg 0.0349(1) 0.7385(1) 0.6127(1)
H5C H 0.2002 0.6517 0.4007
H6C H 0.3079 0.7337 0.4558
H3C H 0.4408 0.9145 0.9576
H4C H 0.5442 0.8373 1.0425
H11C H -0.2136 0.8994 0.5424
H12C H -0.3546 0.8303 0.4809
H9C H -0.3232 0.5565 1.1844
H10C H -0.4856 0.6087 1.0952
Hg1C Hg 0.0459(1) 0.9224(1) 1.3476(1)
H1C H 0.5734 0.9086 1.2320
H2C H 0.4355 0.9746 1.1463
Hg2C_2 Hg 0.0349(1) 0.7385(1) 1.6127(1)
H7C H -0.2942 0.6432 1.3546
H8C H -0.4248 0.7072 1.2540
O2C_2 O -0.0991(17) 0.7804(8) 0.3497(13)
Cl1C Cl 0.1772(7) 0.9188(3) 1.5876(5)
Cl2C Cl -0.1080(8) 0.9557(4) 1.1171(6)
loop_
_geom_bond_atom_site_label_1
_geom_bond_atom_site_label_2
_geom_bond_site_symmetry_1
_geom_bond_site_symmetry_2
Hg1 Cl1 1_555 1_555
Hg2 O2 1_555 1_555
Cl2 Hg1 1_555 1_555
O1 Hg1 1_555 1_555
O2 Hg1 1_555 1_555
N1 Hg2 1_555 1_555
N2 Hg2 1_555 1_555
C1 O1 1_555 1_555
C2 C1 1_555 1_555
C3 C2 1_555 1_555
C4 N1 1_555 1_555
C5 O2 1_555 1_555
C6 C5 1_555 1_555
C7 C6 1_555 1_555
C8 N2 1_555 1_555
H1 C2 1_555 1_555
H2 C2 1_555 1_555
H3 C3 1_555 1_555
H4 C3 1_555 1_555
H5 C4 1_555 1_555
H6 C4 1_555 1_555
H7 C6 1_555 1_555
H8 C6 1_555 1_555
H9 C7 1_555 1_555
H10 C7 1_555 1_555
H11 C8 1_555 1_555
H12 C8 1_555 1_555
C1C N1 1_555 1_555
C5C N2 1_555 1_555
N1C C1 1_555 1_555
C4C C3 1_555 1_555
C3C C4 1_555 1_555
N2C C5 1_555 1_555
C8C C7 1_555 1_555
C7C C8 1_555 1_555
O1C C1C 1_555 1_555
C2C C1C 1_555 1_555
O2C C5C 1_555 1_555
C6C C5C 1_555 1_555
Hg2C N1C 1_555 1_555
H5C C4C 1_555 1_555
H6C C4C 1_555 1_555
H3C C3C 1_555 1_555
H4C C3C 1_555 1_555
H11C C8C 1_555 1_555
H12C C8C 1_555 1_555
H9C C7C 1_555 1_555
H10C C7C 1_555 1_555
Hg1C O1C 1_555 1_555
H1C C2C 1_555 1_555
H2C C2C 1_555 1_555
Hg2C_2 O2C 1_555 1_555
H7C C6C 1_555 1_555
H8C C6C 1_555 1_555
O2C_2 Hg2C 1_555 1_555
Cl1C Hg1C 1_555 1_555
Cl2C Hg1C 1_555 1_555
N1C C4C 1_555 1_555
C3C C2C 1_555 1_555
N2C Hg2C 1_555 1_555
N2C C8C 1_555 1_555
C7C C6C 1_555 1_555
O2C Hg1C 1_555 1_555

#END
