
#######################################################################
#
#                 Cambridge Crystallographic Data Centre
#                                CCDC 
#
#######################################################################
#
# If this CIF has been generated from an entry in the Cambridge 
# Structural Database, then it will include bibliographic, chemical, 
# crystal, experimental, refinement or atomic coordinate data resulting 
# from the CCDC's data processing and validation procedures.
#
#######################################################################

data_SIRGEG
_symmetry_cell_setting           monoclinic
_symmetry_space_group_name_H-M   'P 21/c'
_symmetry_Int_Tables_number      14
_space_group_name_Hall           '-P 2ybc'
loop_
_symmetry_equiv_pos_site_id
_symmetry_equiv_pos_as_xyz
1 x,y,z
2 -x,1/2+y,1/2-z
3 -x,-y,-z
4 x,1/2-y,1/2+z
_cell_length_a                   9.250(2)
_cell_length_b                   12.011(3)
_cell_length_c                   14.326(4)
_cell_angle_alpha                90
_cell_angle_beta                 92.618(3)
_cell_angle_gamma                90
_cell_volume                     1589.98
loop_
_atom_site_label
_atom_site_type_symbol
_atom_site_fract_x
_atom_site_fract_y
_atom_site_fract_z
Cd1 Cd 0.86870(4) 0.62841(3) 1.20951(3)
Cd2 Cd 1.0000 0.5000 1.0000
O1 O 0.8249(5) 0.4700(3) 1.1111(3)
O2 O 0.6482(5) 0.5134(4) 1.1999(3)
O3 O 0.9086(6) 0.2484(5) 0.7900(4)
O4 O 0.9084(5) 0.4057(4) 0.8634(3)
O5 O 0.9449(7) 0.4848(4) 1.3179(4)
H1 H 1.0066 0.5127 1.3573
H2 H 0.9369 0.4142 1.3172
N1 N 0.6294(6) 0.8935(4) 1.0430(4)
N2 N 0.7760(5) 0.7359(4) 1.0857(3)
N3 N 0.5982(6) 0.9603(5) 0.8908(4)
H3 H 0.5398 1.0096 0.9109
H4 H 0.6163 0.9580 0.8325
N4 N 0.8101(5) 0.7755(4) 0.8399(3)
N5 N 0.8888(5) 0.6528(4) 0.9529(3)
C1 C 0.6607(6) 0.8875(5) 0.9501(4)
C2 C 0.6870(7) 0.8213(5) 1.1025(4)
H5 H 0.6633 0.8305 1.1645
C3 C 0.8057(6) 0.7302(4) 0.9936(4)
C4 C 0.7565(6) 0.8047(4) 0.9247(4)
C5 C 0.8884(7) 0.6843(5) 0.8629(4)
H6 H 0.9394 0.6453 0.8190
C6 C 0.7020(7) 0.4502(5) 1.1411(4)
C7 C 0.6233(9) 0.3467(6) 1.1104(5)
H7 H 0.5213 0.3641 1.1013
H8 H 0.6329 0.2922 1.1603
C8 C 0.6755(8) 0.2939(6) 1.0207(6)
H9 H 0.7801 0.2880 1.0249
H10 H 0.6361 0.2193 1.0143
C9 C 0.6305(7) 0.3605(7) 0.9365(5)
H11 H 0.6685 0.4354 0.9437
H12 H 0.5257 0.3655 0.9323
C10 C 0.6827(8) 0.3110(9) 0.8463(6)
H13 H 0.6569 0.2327 0.8443
H14 H 0.6315 0.3471 0.7941
C11 C 0.8428(7) 0.3212(6) 0.8334(5)
Cd1B Cd 1.13130(4) 0.37159(3) 0.79049(3)
Cd1C Cd 0.86870(4) 0.87159(3) 0.70951(3)
Cd1A Cd 1.13130(4) 0.12841(3) 1.29049(3)
O1B O 1.1751(5) 0.5300(3) 0.8889(3)
O2B O 1.3518(5) 0.4866(4) 0.8001(3)
O3B O 1.0914(6) 0.7516(5) 1.2100(4)
O4B O 1.0916(5) 0.5943(4) 1.1366(3)
O5B O 1.0551(7) 0.5152(4) 0.6821(4)
H1B H 0.9934 0.4873 0.6427
H2B H 1.0631 0.5858 0.6828
N1B N 1.3706(6) 0.1065(4) 0.9570(4)
N2B N 1.2240(5) 0.2641(4) 0.9143(3)
N3B N 1.4018(6) 0.0397(5) 1.1092(4)
H3B H 1.4602 -0.0096 1.0891
H4B H 1.3837 0.0420 1.1675
N4B N 1.1899(5) 0.2245(4) 1.1601(3)
N4C N 0.8101(5) 0.7245(4) 1.3399(3)
N4A N 1.1899(5) 0.2755(4) 0.6601(3)
N5B N 1.1112(5) 0.3472(4) 1.0471(3)
C1B C 1.3393(6) 0.1125(5) 1.0499(4)
C2B C 1.3130(7) 0.1787(5) 0.8975(4)
H5B H 1.3367 0.1695 0.8355
C3B C 1.1943(6) 0.2698(4) 1.0064(4)
C4B C 1.2435(6) 0.1953(4) 1.0753(4)
C5B C 1.1116(7) 0.3157(5) 1.1371(4)
H6B H 1.0606 0.3547 1.1810
C6B C 1.2980(7) 0.5498(5) 0.8589(4)
C7B C 1.3767(9) 0.6533(6) 0.8896(5)
H7B H 1.4787 0.6359 0.8987
H8B H 1.3671 0.7078 0.8397
C8B C 1.3245(8) 0.7061(6) 0.9793(6)
H9B H 1.2199 0.7120 0.9751
H10B H 1.3639 0.7807 0.9857
C9B C 1.3695(7) 0.6395(7) 1.0635(5)
H11B H 1.3315 0.5646 1.0563
H12B H 1.4743 0.6345 1.0677
C10B C 1.3173(8) 0.6890(9) 1.1537(6)
H13B H 1.3431 0.7673 1.1557
H14B H 1.3685 0.6529 1.2059
C11B C 1.1572(7) 0.6788(6) 1.1666(5)
O6 O 0.103(3) 0.5653(14) 0.459(2)
O7 O 0.657(5) 0.504(5) 0.773(3)
loop_
_geom_bond_atom_site_label_1
_geom_bond_atom_site_label_2
_geom_bond_site_symmetry_1
_geom_bond_site_symmetry_2
Cd1 O1 1_555 1_555
Cd2 O1 1_555 1_555
O1 C6 1_555 1_555
O2 Cd1 1_555 1_555
O3 C11 1_555 1_555
O4 Cd2 1_555 1_555
O5 Cd1 1_555 1_555
H1 O5 1_555 1_555
H2 O5 1_555 1_555
N1 C1 1_555 1_555
N2 Cd1 1_555 1_555
N3 H3 1_555 1_555
H4 N3 1_555 1_555
N4 C4 1_555 1_555
N5 Cd2 1_555 1_555
C1 N3 1_555 1_555
C2 N1 1_555 1_555
H5 C2 1_555 1_555
C3 N2 1_555 1_555
C4 C1 1_555 1_555
C5 N4 1_555 1_555
H6 C5 1_555 1_555
C6 O2 1_555 1_555
C7 C6 1_555 1_555
H7 C7 1_555 1_555
H8 C7 1_555 1_555
C8 C7 1_555 1_555
H9 C8 1_555 1_555
H10 C8 1_555 1_555
C9 C8 1_555 1_555
H11 C9 1_555 1_555
H12 C9 1_555 1_555
C10 C9 1_555 1_555
H13 C10 1_555 1_555
H14 C10 1_555 1_555
C11 O4 1_555 1_555
Cd1B O3 1_555 1_555
Cd1C N4 1_555 1_555
Cd1A N4B 1_555 1_555
O1B Cd2 1_555 1_555
O2B Cd1B 1_555 1_555
O3B Cd1 1_555 1_555
O4B Cd1 1_555 1_555
O5B Cd1B 1_555 1_555
H1B O5B 1_555 1_555
H2B O5B 1_555 1_555
N1B C1B 1_555 1_555
N2B Cd1B 1_555 1_555
N3B H3B 1_555 1_555
H4B N3B 1_555 1_555
N4B C4B 1_555 1_555
N4C Cd1 1_555 1_555
N4A Cd1B 1_555 1_555
N5B Cd2 1_555 1_555
C1B N3B 1_555 1_555
C2B N1B 1_555 1_555
H5B C2B 1_555 1_555
C3B N2B 1_555 1_555
C4B C1B 1_555 1_555
C5B N4B 1_555 1_555
H6B C5B 1_555 1_555
C6B O1B 1_555 1_555
C7B C6B 1_555 1_555
H7B C7B 1_555 1_555
H8B C7B 1_555 1_555
C8B C7B 1_555 1_555
H9B C8B 1_555 1_555
H10B C8B 1_555 1_555
C9B C8B 1_555 1_555
H11B C9B 1_555 1_555
H12B C9B 1_555 1_555
C10B C9B 1_555 1_555
H13B C10B 1_555 1_555
H14B C10B 1_555 1_555
C11B O3B 1_555 1_555
Cd2 O4B 1_555 1_555
O4 Cd1B 1_555 1_555
N2 C2 1_555 1_555
N5 C3 1_555 1_555
N5 C5 1_555 1_555
C3 C4 1_555 1_555
C10 C11 1_555 1_555
Cd1B O1B 1_555 1_555
O2B C6B 1_555 1_555
O4B C11B 1_555 1_555
N2B C2B 1_555 1_555
N5B C3B 1_555 1_555
N5B C5B 1_555 1_555
C3B C4B 1_555 1_555
C10B C11B 1_555 1_555

#END
