
#######################################################################
#
#                 Cambridge Crystallographic Data Centre
#                                CCDC 
#
#######################################################################
#
# If this CIF has been generated from an entry in the Cambridge 
# Structural Database, then it will include bibliographic, chemical, 
# crystal, experimental, refinement or atomic coordinate data resulting 
# from the CCDC's data processing and validation procedures.
#
#######################################################################

data_SIRJAG
_symmetry_cell_setting           triclinic
_symmetry_space_group_name_H-M   'P -1'
_symmetry_Int_Tables_number      2
_space_group_name_Hall           '-P 1'
loop_
_symmetry_equiv_pos_site_id
_symmetry_equiv_pos_as_xyz
1 x,y,z
2 -x,-y,-z
_cell_length_a                   6.9903(4)
_cell_length_b                   11.2042(6)
_cell_length_c                   12.2265(6)
_cell_angle_alpha                109.6010(10)
_cell_angle_beta                 90.9760(10)
_cell_angle_gamma                92.1710(10)
_cell_volume                     901
loop_
_atom_site_label
_atom_site_type_symbol
_atom_site_fract_x
_atom_site_fract_y
_atom_site_fract_z
C1 C 0.8280(4) 0.0561(3) 0.6433(3)
C2 C 0.9629(4) -0.0514(3) 0.6045(2)
C3 C 1.1595(4) -0.0293(3) 0.6364(3)
H1 H 1.2081 0.0529 0.6749
C4 C 0.8893(4) -0.1765(3) 0.5425(2)
H2 H 0.7604 -0.1908 0.5197
C5 C 1.0114(4) -0.2787(3) 0.5157(2)
H3 H 0.9637 -0.3606 0.4751
C6 C 1.2077(4) -0.2561(3) 0.5508(3)
C7 C 1.2814(4) -0.1309(3) 0.6101(3)
H4 H 1.4108 -0.1161 0.6315
C8 C 1.3316(4) -0.3663(3) 0.5323(3)
C9 C 0.9930(9) -0.0748(4) 0.8622(3)
H5 H 0.9902 0.0130 0.8938
C10 C 0.8366(7) -0.1581(4) 0.8135(4)
H6 H 0.7112 -0.1354 0.8077
C11 C 0.9013(6) -0.2829(4) 0.7744(3)
H7 H 0.8262 -0.3564 0.7383
C12 C 1.0978(5) -0.2765(4) 0.7996(3)
H8 H 1.1763 -0.3452 0.7829
C13 C 1.1568(7) -0.1477(4) 0.8549(3)
H9 H 1.2804 -0.1165 0.8815
O1 O 0.9597(3) 0.4426(2) 0.7668(2)
O2 O 0.9544(3) 0.2496(2) 0.9445(2)
O3 O 1.6199(3) 0.3214(2) 0.83962(18)
O4 O 1.2677(3) 0.2866(2) 0.80033(19)
O5 O 0.9067(3) 0.1651(2) 0.69402(19)
O6 O 0.6546(3) 0.0322(2) 0.6208(2)
O7 O 1.4454(4) 0.4592(2) 0.7451(2)
H10 H 1.4230 0.5122 0.8080
O8 O 1.4891(3) 0.2388(2) 0.63179(19)
H11 H 1.4935 0.1650 0.6294
O9 O 1.2738(3) -0.4737(2) 0.4731(2)
O10 O 1.5011(3) -0.3365(2) 0.5833(2)
H12 H 1.5621 -0.4006 0.5699
F1 F 0.8243(3) 0.51255(19) 1.00557(17)
P1 P 1.45467(11) 0.32572(7) 0.75892(7)
Fe1 Fe 1.04278(6) -0.17155(4) 0.69295(4)
U1 U 0.959018(15) 0.346753(10) 0.856107(9)
O3_2 O 0.6199(3) 0.3214(2) 0.83962(18)
F1A F 1.1757(3) 0.48745(19) 0.99443(17)
U1_2 U 1.959018(15) 0.346753(10) 0.856107(9)
U1A U 1.040982(15) 0.653247(10) 1.143893(9)
O11 O 0.4928(6) 0.9298(4) 0.1021(4)
O12 O 0.5366(4) 0.6452(2) 0.9372(2)
loop_
_geom_bond_atom_site_label_1
_geom_bond_atom_site_label_2
_geom_bond_site_symmetry_1
_geom_bond_site_symmetry_2
C1 C2 1_555 1_555
C2 C3 1_555 1_555
C3 H1 1_555 1_555
C4 C2 1_555 1_555
H2 C4 1_555 1_555
C5 C4 1_555 1_555
H3 C5 1_555 1_555
C6 C5 1_555 1_555
C7 C3 1_555 1_555
H4 C7 1_555 1_555
C8 C6 1_555 1_555
C9 H5 1_555 1_555
C10 C9 1_555 1_555
H6 C10 1_555 1_555
C11 C10 1_555 1_555
H7 C11 1_555 1_555
C12 C11 1_555 1_555
H8 C12 1_555 1_555
C13 C9 1_555 1_555
H9 C13 1_555 1_555
O1 U1 1_555 1_555
O2 U1 1_555 1_555
O3 P1 1_555 1_555
O4 P1 1_555 1_555
O5 C1 1_555 1_555
O6 C1 1_555 1_555
O7 H10 1_555 1_555
O8 H11 1_555 1_555
O9 C8 1_555 1_555
O10 C8 1_555 1_555
H12 O10 1_555 1_555
F1 U1 1_555 1_555
P1 O7 1_555 1_555
Fe1 C2 1_555 1_555
U1 O4 1_555 1_555
O3_2 U1 1_555 1_555
F1A U1 1_555 1_555
U1_2 O3 1_555 1_555
U1A F1 1_555 1_555
C3 Fe1 1_555 1_555
C4 Fe1 1_555 1_555
C5 Fe1 1_555 1_555
C6 C7 1_555 1_555
C6 Fe1 1_555 1_555
C7 Fe1 1_555 1_555
C9 Fe1 1_555 1_555
C10 Fe1 1_555 1_555
C11 Fe1 1_555 1_555
C12 C13 1_555 1_555
C12 Fe1 1_555 1_555
C13 Fe1 1_555 1_555
O5 U1 1_555 1_555
O8 P1 1_555 1_555
F1A U1A 1_555 1_555

#END
