
#######################################################################
#
#                 Cambridge Crystallographic Data Centre
#                                CCDC 
#
#######################################################################
#
# If this CIF has been generated from an entry in the Cambridge 
# Structural Database, then it will include bibliographic, chemical, 
# crystal, experimental, refinement or atomic coordinate data resulting 
# from the CCDC's data processing and validation procedures.
#
#######################################################################

data_SIRPIT
_symmetry_cell_setting           orthorhombic
_symmetry_space_group_name_H-M   'P 21 21 21'
_symmetry_Int_Tables_number      19
_space_group_name_Hall           'P 2ac 2ab'
loop_
_symmetry_equiv_pos_site_id
_symmetry_equiv_pos_as_xyz
1 x,y,z
2 1/2-x,-y,1/2+z
3 -x,1/2+y,1/2-z
4 1/2+x,1/2-y,-z
_cell_length_a                   5.0597(16)
_cell_length_b                   12.300(4)
_cell_length_c                   21.824(7)
_cell_angle_alpha                90
_cell_angle_beta                 90
_cell_angle_gamma                90
_cell_volume                     1358.2
loop_
_atom_site_label
_atom_site_type_symbol
_atom_site_fract_x
_atom_site_fract_y
_atom_site_fract_z
Cu1 Cu 0.03757(8) 0.21810(4) 1.05506(2)
O1 O 0.2134(5) 0.3136(2) 0.99456(11)
O2 O -0.1533(6) 0.4102(2) 0.99239(13)
O3 O 0.7723(6) 0.2326(2) 0.88453(12)
N1 N 0.3863(6) 0.3880(3) 0.89178(13)
C1 C 0.0660(8) 0.3904(3) 0.97275(16)
C2 C 0.1872(8) 0.4562(3) 0.92116(17)
H1 H 0.0502 0.4754 0.8913
C3 C 0.3175(8) 0.5607(3) 0.9462(2)
H2 H 0.4603 0.5390 0.9739
C4 C 0.1261(10) 0.6293(4) 0.9821(2)
H3 H 0.2145 0.6933 0.9968
H4 H 0.0602 0.5883 1.0163
H5 H -0.0186 0.6502 0.9562
C5 C 0.4388(11) 0.6273(4) 0.8947(2)
H6 H 0.3145 0.6333 0.8616
H7 H 0.5963 0.5920 0.8803
H8 H 0.4823 0.6985 0.9096
C6 C 0.4354(8) 0.3997(3) 0.83445(16)
H9 H 0.3271 0.4471 0.8128
C7 C 0.6381(8) 0.3475(3) 0.80121(17)
C8 C 0.6891(8) 0.3806(3) 0.73901(18)
C9 C 0.5471(10) 0.4602(4) 0.70795(16)
H10 H 0.4061 0.4936 0.7277
C10 C 0.6072(10) 0.4913(4) 0.64921(19)
H11 H 0.5063 0.5442 0.6297
C11 C 0.8171(11) 0.4441(4) 0.61909(19)
H12 H 0.8612 0.4665 0.5797
C12 C 0.9583(11) 0.3655(4) 0.64700(18)
H13 H 1.0985 0.3336 0.6261
C13 C 0.8999(8) 0.3304(4) 0.70662(17)
C14 C 1.0421(9) 0.2473(3) 0.73504(19)
H14 H 1.1755 0.2128 0.7131
C15 C 0.9940(8) 0.2153(4) 0.79283(17)
H15 H 1.0928 0.1590 0.8097
C16 C 0.7954(8) 0.2659(3) 0.82833(17)
Cu1C Cu 0.53757(8) 0.28190(4) 0.94494(2)
Cu1C_2 Cu -0.46243(8) 0.28190(4) 0.94494(2)
O1C O -0.2866(5) 0.1864(2) 1.00544(11)
O2C O 0.3467(6) 0.0898(2) 1.00761(13)
O3C O 0.2723(6) 0.2674(2) 1.11547(12)
N1C N -0.1137(6) 0.1120(3) 1.10822(13)
loop_
_geom_bond_atom_site_label_1
_geom_bond_atom_site_label_2
_geom_bond_site_symmetry_1
_geom_bond_site_symmetry_2
Cu1 O1 1_555 1_555
O1 C1 1_555 1_555
O2 C1 1_555 1_555
O3 C16 1_555 1_555
N1 C2 1_555 1_555
C1 C2 1_555 1_555
C2 H1 1_555 1_555
C3 C2 1_555 1_555
H2 C3 1_555 1_555
C4 C3 1_555 1_555
H3 C4 1_555 1_555
H4 C4 1_555 1_555
H5 C4 1_555 1_555
C5 C3 1_555 1_555
H6 C5 1_555 1_555
H7 C5 1_555 1_555
H8 C5 1_555 1_555
C6 N1 1_555 1_555
H9 C6 1_555 1_555
C7 C6 1_555 1_555
C8 C7 1_555 1_555
C9 C8 1_555 1_555
H10 C9 1_555 1_555
C10 C9 1_555 1_555
H11 C10 1_555 1_555
C11 C10 1_555 1_555
H12 C11 1_555 1_555
C12 C11 1_555 1_555
H13 C12 1_555 1_555
C13 C8 1_555 1_555
C14 C13 1_555 1_555
H14 C14 1_555 1_555
C15 C14 1_555 1_555
H15 C15 1_555 1_555
C16 C7 1_555 1_555
Cu1C O1 1_555 1_555
Cu1C_2 O2 1_555 1_555
O1C Cu1 1_555 1_555
O2C Cu1 1_555 1_555
O3C Cu1 1_555 1_555
N1C Cu1 1_555 1_555
O3 Cu1C 1_555 1_555
N1 Cu1C 1_555 1_555
C12 C13 1_555 1_555
C15 C16 1_555 1_555
Cu1C_2 O1C 1_555 1_555

#END
