
#######################################################################
#
#                 Cambridge Crystallographic Data Centre
#                                CCDC 
#
#######################################################################
#
# If this CIF has been generated from an entry in the Cambridge 
# Structural Database, then it will include bibliographic, chemical, 
# crystal, experimental, refinement or atomic coordinate data resulting 
# from the CCDC's data processing and validation procedures.
#
#######################################################################

data_SIRQAM
_symmetry_cell_setting           orthorhombic
_symmetry_space_group_name_H-M   'P n a 21'
_symmetry_Int_Tables_number      33
_space_group_name_Hall           'P 2c -2n'
loop_
_symmetry_equiv_pos_site_id
_symmetry_equiv_pos_as_xyz
1 x,y,z
2 -x,-y,1/2+z
3 1/2-x,1/2+y,1/2+z
4 1/2+x,1/2-y,z
_cell_length_a                   11.4714(4)
_cell_length_b                   3.93790(10)
_cell_length_c                   41.3765(13)
_cell_angle_alpha                90
_cell_angle_beta                 90
_cell_angle_gamma                90
_cell_volume                     1869.11
loop_
_atom_site_label
_atom_site_type_symbol
_atom_site_fract_x
_atom_site_fract_y
_atom_site_fract_z
C1 C 0.8768(5) 0.9449(15) -0.22642(15)
C2 C 0.9530(5) 0.8650(17) -0.25129(15)
H1 H 1.0242 0.7616 -0.2469
C3 C 0.9213(6) 0.9415(16) -0.28257(16)
C4 C 0.8165(6) 1.0954(19) -0.28965(18)
H2 H 0.7961 1.1439 -0.3109
C5 C 0.7421(7) 1.176(2) -0.2645(2)
H3 H 0.6718 1.2850 -0.2688
C6 C 0.7710(6) 1.0980(18) -0.23378(17)
H4 H 0.7190 1.1476 -0.2172
C7 C 0.9067(5) 0.8808(17) -0.19229(16)
H5 H 0.8442 0.8842 -0.1780
C8 C 1.0087(7) 0.8199(19) -0.17932(17)
H6 H 1.0726 0.8097 -0.1931
C9 C 1.0318(7) 0.7620(12) -0.1419(2)
C10 C 0.6250(5) 0.0557(14) 0.04175(15)
C11 C 0.7003(5) 0.1351(18) 0.06727(16)
H7 H 0.7714 0.2398 0.0632
C12 C 0.6685(5) 0.0576(17) 0.09846(15)
C13 C 0.5649(5) -0.0968(17) 0.10591(16)
H8 H 0.5469 -0.1513 0.1272
C14 C 0.4891(8) -0.169(2) 0.0817(2)
H9 H 0.4176 -0.2678 0.0865
C15 C 0.5174(6) -0.0957(18) 0.04918(17)
H10 H 0.4649 -0.1476 0.0328
C16 C 0.6534(5) 0.1348(18) 0.00843(15)
H11 H 0.5904 0.1669 -0.0054
C17 C 0.7587(8) 0.167(2) -0.00474(19)
H12 H 0.8236 0.1411 0.0085
C18 C 0.7767(5) 0.2373(12) -0.0372(2)
O1 O 1.1424(5) 0.7296(13) -0.13533(15)
O2 O 0.9423(5) 0.7573(9) -0.12644(13)
O3 O 0.8766(4) 0.2547(8) -0.04918(13)
O4 O 0.6928(5) 0.2587(10) -0.05877(14)
Cl1 Cl 1.0158(2) 0.8297(6) -0.31346(6)
Cl2 Cl 0.7636(2) 0.1632(6) 0.13041(6)
K1 K 1.03430(14) 0.7506(3) -0.06525(4)
K2 K 1.28378(14) 0.2349(3) -0.11798(4)
O1_2 O 1.1424(5) -0.2704(13) -0.13533(15)
O2C O 1.4423(5) -0.2573(9) -0.12644(13)
O2C_2 O 1.4423(5) 0.7427(9) -0.12644(13)
O3_2 O 0.8766(4) 1.2547(8) -0.04918(13)
O3C O 1.3766(4) 0.2453(8) -0.04918(13)
O4C O 1.1928(5) 0.2413(10) -0.05877(14)
O4C_2 O 1.1928(5) 1.2413(10) -0.05877(14)
K1_2 K 1.03430(14) -0.2494(3) -0.06525(4)
K1C K 0.53430(14) -0.2506(3) -0.06525(4)
K1C_2 K 0.53430(14) 0.7494(3) -0.06525(4)
K2_2 K 1.28378(14) 1.2349(3) -0.11798(4)
K2C K 0.78378(14) 0.2651(3) -0.11798(4)
K2C_2 K 0.78378(14) 1.2651(3) -0.11798(4)
loop_
_geom_bond_atom_site_label_1
_geom_bond_atom_site_label_2
_geom_bond_site_symmetry_1
_geom_bond_site_symmetry_2
C1 C2 1_555 1_555
C2 H1 1_555 1_555
C3 C2 1_555 1_555
C4 C3 1_555 1_555
H2 C4 1_555 1_555
C5 C4 1_555 1_555
H3 C5 1_555 1_555
C6 C1 1_555 1_555
H4 C6 1_555 1_555
C7 C1 1_555 1_555
H5 C7 1_555 1_555
C8 C7 1_555 1_555
H6 C8 1_555 1_555
C9 C8 1_555 1_555
C10 C11 1_555 1_555
C11 H7 1_555 1_555
C12 C11 1_555 1_555
C13 C12 1_555 1_555
H8 C13 1_555 1_555
C14 C13 1_555 1_555
H9 C14 1_555 1_555
C15 C10 1_555 1_555
H10 C15 1_555 1_555
C16 C10 1_555 1_555
H11 C16 1_555 1_555
C17 C16 1_555 1_555
H12 C17 1_555 1_555
C18 C17 1_555 1_555
O1 C9 1_555 1_555
O2 C9 1_555 1_555
O3 C18 1_555 1_555
O4 C18 1_555 1_555
Cl1 C3 1_555 1_555
Cl2 C12 1_555 1_555
K1 O1 1_555 1_555
K2 O1 1_555 1_555
O1_2 K2 1_555 1_555
O2C K2 1_555 1_555
O2C_2 K2 1_555 1_555
O3_2 K1 1_555 1_555
O3C K2 1_555 1_555
O4C K1 1_555 1_555
O4C_2 K1 1_555 1_555
K1_2 O3 1_555 1_555
K1C O4 1_555 1_555
K1C_2 O4 1_555 1_555
K2_2 O1 1_555 1_555
K2C O2 1_555 1_555
K2C_2 O2 1_555 1_555
C5 C6 1_555 1_555
C14 C15 1_555 1_555
O2 K1 1_555 1_555
O3 K1 1_555 1_555
O3 K2C 1_555 1_555
O4 K2C 1_555 1_555
K2 O4C 1_555 1_555
O1_2 K1_2 1_555 1_555
O2C_2 K2_2 1_555 1_555
O3_2 K2C_2 1_555 1_555
O4C K1_2 1_555 1_555
O4C_2 K2_2 1_555 1_555

#END
