
#######################################################################
#
#                 Cambridge Crystallographic Data Centre
#                                CCDC 
#
#######################################################################
#
# If this CIF has been generated from an entry in the Cambridge 
# Structural Database, then it will include bibliographic, chemical, 
# crystal, experimental, refinement or atomic coordinate data resulting 
# from the CCDC's data processing and validation procedures.
#
#######################################################################

data_SISBAZ
_symmetry_cell_setting           triclinic
_symmetry_space_group_name_H-M   'P -1'
_symmetry_Int_Tables_number      2
_space_group_name_Hall           '-P 1'
loop_
_symmetry_equiv_pos_site_id
_symmetry_equiv_pos_as_xyz
1 x,y,z
2 -x,-y,-z
_cell_length_a                   9.8805(4)
_cell_length_b                   12.1427(5)
_cell_length_c                   13.0895(6)
_cell_angle_alpha                89.271(3)
_cell_angle_beta                 70.875(4)
_cell_angle_gamma                80.560(3)
_cell_volume                     1462.24
loop_
_atom_site_label
_atom_site_type_symbol
_atom_site_fract_x
_atom_site_fract_y
_atom_site_fract_z
Pb1 Pb 0.484873(18) 0.359626(14) 0.460191(14)
Pb2 Pb 0.804816(18) 0.410205(15) 0.565576(14)
Pb3 Pb 0.429786(19) 0.407704(15) 0.746294(14)
C1 C 0.7675(5) 0.3067(4) 0.2898(4)
C2 C 0.8782(5) 0.2133(4) 0.2187(4)
C3 C 0.8431(7) 0.1076(5) 0.2338(5)
H1 H 0.7569 0.0972 0.2864
C4 C 0.9351(7) 0.0171(5) 0.1717(6)
H2 H 0.9100 -0.0537 0.1819
C5 C 1.0627(8) 0.0313(5) 0.0952(6)
H3 H 1.1248 -0.0302 0.0545
C6 C 1.1004(7) 0.1354(5) 0.0778(5)
H4 H 1.1866 0.1445 0.0244
C7 C 1.0092(6) 0.2277(4) 0.1404(4)
C8 C 1.0306(5) 0.5141(4) 0.1586(4)
C9 C 1.1210(5) 0.5394(5) 0.0567(4)
H5 H 1.1608 0.4841 0.0016
C10 C 1.1502(6) 0.6446(5) 0.0388(5)
H6 H 1.2082 0.6618 -0.0293
C11 C 1.0942(6) 0.7266(5) 0.1210(5)
H7 H 1.1178 0.7978 0.1089
C12 C 1.0027(6) 0.7028(5) 0.2220(5)
H8 H 0.9650 0.7581 0.2772
C13 C 0.9682(5) 0.5972(4) 0.2398(4)
C14 C 0.8711(5) 0.5684(4) 0.3495(3)
C15 C 0.6024(6) 0.1849(4) 0.6523(4)
C16 C 0.6878(5) 0.0704(4) 0.6110(4)
C17 C 0.8077(6) 0.0307(4) 0.6435(4)
H9 H 0.8333 0.0762 0.6883
C18 C 0.8898(6) -0.0749(5) 0.6105(5)
H10 H 0.9692 -0.0994 0.6331
C19 C 0.8533(6) -0.1424(5) 0.5448(5)
H11 H 0.9081 -0.2132 0.5230
C20 C 0.7354(6) -0.1070(4) 0.5102(4)
H12 H 0.7119 -0.1535 0.4650
C21 C 0.6528(5) -0.0020(4) 0.5433(4)
C22 C 0.6743(5) 0.5737(4) 0.7437(4)
C23 C 0.6034(5) 0.6598(4) 0.8350(4)
C24 C 0.6168(6) 0.7714(4) 0.8172(5)
H13 H 0.6678 0.7925 0.7486
C25 C 0.5542(7) 0.8514(5) 0.9018(5)
H14 H 0.5629 0.9259 0.8892
C26 C 0.4799(7) 0.8219(5) 1.0033(5)
H15 H 0.4391 0.8762 1.0593
C27 C 0.4654(5) 0.7123(4) 1.0230(4)
H16 H 0.4151 0.6926 1.0923
C28 C 0.5258(5) 0.6307(4) 0.9396(4)
N1 N 1.0566(5) 0.3312(4) 0.1151(3)
N2 N 0.9893(4) 0.4077(4) 0.1845(3)
N3 N 0.5371(4) 0.0367(3) 0.4999(3)
N4 N 0.4915(4) 0.5194(3) 0.9574(3)
O1 O 0.7583(4) 0.3090(3) 0.3889(3)
O2 O 0.6797(4) 0.3660(3) 0.2519(3)
O3 O 0.9283(4) 0.5374(3) 0.4190(3)
O4 O 0.7362(3) 0.5811(3) 0.3661(3)
O5 O 0.6618(4) 0.2501(3) 0.6912(3)
O6 O 0.4773(4) 0.2140(3) 0.6457(3)
O7 O 0.6736(3) 0.4715(3) 0.7619(2)
O8 O 0.7325(4) 0.6061(3) 0.6495(3)
O9 O 0.5596(3) 0.4535(2) 0.5819(2)
C15A C 0.3976(6) -0.1849(4) 0.3477(4)
C16A C 0.3122(5) -0.0704(4) 0.3890(4)
C17A C 0.1923(6) -0.0307(4) 0.3565(4)
H9A H 0.1667 -0.0762 0.3117
C18A C 0.1102(6) 0.0749(5) 0.3895(5)
H10A H 0.0308 0.0994 0.3669
C19A C 0.1467(6) 0.1424(5) 0.4552(5)
H11A H 0.0919 0.2132 0.4770
C20A C 0.2646(6) 0.1070(4) 0.4898(4)
H12A H 0.2881 0.1535 0.5350
C21A C 0.3472(5) 0.0020(4) 0.4567(4)
N3A N 0.4629(4) -0.0367(3) 0.5001(3)
O5A O 0.3382(4) -0.2501(3) 0.3088(3)
O6A O 0.5227(4) -0.2140(3) 0.3543(3)
C22A C 0.3257(5) 0.4263(4) 1.2563(4)
C23A C 0.3966(5) 0.3402(4) 1.1650(4)
C24A C 0.3832(6) 0.2286(4) 1.1828(5)
H13A H 0.3322 0.2075 1.2514
C25A C 0.4458(7) 0.1486(5) 1.0982(5)
H14A H 0.4371 0.0741 1.1108
C26A C 0.5201(7) 0.1781(5) 0.9967(5)
H15A H 0.5609 0.1238 0.9407
C27A C 0.5346(5) 0.2877(4) 0.9770(4)
H16A H 0.5849 0.3074 0.9077
C28A C 0.4742(5) 0.3693(4) 1.0604(4)
N4A N 0.5085(4) 0.4806(3) 1.0426(3)
O7A O 0.3264(3) 0.5285(3) 1.2381(2)
O8A O 0.2675(4) 0.3939(3) 1.3505(3)
Pb1A Pb 0.515127(18) -0.359626(14) 0.539809(14)
Pb2A Pb 0.195184(18) -0.410205(15) 0.434424(14)
Pb3A Pb 0.570214(19) -0.407704(15) 0.253706(14)
C1A C 0.2325(5) -0.3067(4) 0.7102(4)
C2A C 0.1218(5) -0.2133(4) 0.7813(4)
C3A C 0.1569(7) -0.1076(5) 0.7662(5)
H1A H 0.2431 -0.0972 0.7136
C4A C 0.0649(7) -0.0171(5) 0.8283(6)
H2A H 0.0900 0.0537 0.8181
C5A C -0.0627(8) -0.0313(5) 0.9048(6)
H3A H -0.1248 0.0302 0.9455
C6A C -0.1004(7) -0.1354(5) 0.9222(5)
H4A H -0.1866 -0.1445 0.9756
C7A C -0.0092(6) -0.2277(4) 0.8596(4)
C8A C -0.0306(5) -0.5141(4) 0.8414(4)
C9A C -0.1210(5) -0.5394(5) 0.9433(4)
H5A H -0.1608 -0.4841 0.9984
C10A C -0.1502(6) -0.6446(5) 0.9612(5)
H6A H -0.2082 -0.6618 1.0293
C11A C -0.0942(6) -0.7266(5) 0.8790(5)
H7A H -0.1178 -0.7978 0.8911
C12A C -0.0027(6) -0.7028(5) 0.7780(5)
H8A H 0.0350 -0.7581 0.7228
C13A C 0.0318(5) -0.5972(4) 0.7602(4)
C14A C 0.1289(5) -0.5684(4) 0.6505(3)
N1A N -0.0566(5) -0.3312(4) 0.8849(3)
N2A N 0.0107(4) -0.4077(4) 0.8155(3)
O1A O 0.2417(4) -0.3090(3) 0.6111(3)
O2A O 0.3203(4) -0.3660(3) 0.7481(3)
O3A O 0.0717(4) -0.5374(3) 0.5810(3)
O4A O 0.2638(3) -0.5811(3) 0.6339(3)
O9A O 0.4404(3) -0.4535(2) 0.4181(2)
Pb1_2 Pb 0.484873(18) -0.640374(14) 0.460191(14)
Pb1_3 Pb 0.484873(18) 0.359626(14) 1.460191(14)
Pb1A_2 Pb 0.515127(18) 0.640374(14) 0.539809(14)
Pb2_2 Pb -0.195184(18) -0.589795(15) 0.565576(14)
Pb2A_2 Pb 0.195184(18) 0.589795(15) 1.434424(14)
Pb2A_3 Pb 1.195184(18) 0.589795(15) 0.434424(14)
Pb3_2 Pb 0.429786(19) -0.592296(15) 0.746294(14)
Pb3A_2 Pb 0.570214(19) 0.592296(15) 0.253706(14)
Pb3A_3 Pb 0.570214(19) 0.592296(15) 1.253706(14)
O2_2 O 0.6797(4) -0.6340(3) 0.2519(3)
O2A_2 O 0.3203(4) 0.6340(3) 0.7481(3)
O3_2 O -0.0717(4) -0.4626(3) 0.4190(3)
O3A_2 O 1.0717(4) 0.4626(3) 0.5810(3)
O4_2 O 0.7362(3) -0.4189(3) 0.3661(3)
O4A_2 O 0.2638(3) 0.4189(3) 0.6339(3)
O7A_2 O 0.3264(3) -0.4715(3) 0.2381(2)
O8_2 O 0.7325(4) -0.3939(3) 0.6495(3)
O8A_2 O 0.2675(4) -0.6061(3) 0.3505(3)
O8A_3 O 0.2675(4) 0.3939(3) 0.3505(3)
O9_2 O 0.5596(3) -0.5465(2) 0.5819(2)
O9A_2 O 0.4404(3) 0.5465(2) 0.4181(2)
loop_
_geom_bond_atom_site_label_1
_geom_bond_atom_site_label_2
_geom_bond_site_symmetry_1
_geom_bond_site_symmetry_2
Pb1 O1 1_555 1_555
Pb2 O1 1_555 1_555
Pb3 O5 1_555 1_555
C1 C2 1_555 1_555
C2 C3 1_555 1_555
C3 H1 1_555 1_555
C4 C3 1_555 1_555
H2 C4 1_555 1_555
C5 C4 1_555 1_555
H3 C5 1_555 1_555
C6 C5 1_555 1_555
H4 C6 1_555 1_555
C7 C2 1_555 1_555
C8 C9 1_555 1_555
C9 H5 1_555 1_555
C10 C9 1_555 1_555
H6 C10 1_555 1_555
C11 C10 1_555 1_555
H7 C11 1_555 1_555
C12 C11 1_555 1_555
H8 C12 1_555 1_555
C13 C8 1_555 1_555
C14 C13 1_555 1_555
C15 C16 1_555 1_555
C16 C17 1_555 1_555
C17 H9 1_555 1_555
C18 C17 1_555 1_555
H10 C18 1_555 1_555
C19 C18 1_555 1_555
H11 C19 1_555 1_555
C20 C19 1_555 1_555
H12 C20 1_555 1_555
C21 C16 1_555 1_555
C22 C23 1_555 1_555
C23 C24 1_555 1_555
C24 H13 1_555 1_555
C25 C24 1_555 1_555
H14 C25 1_555 1_555
C26 C25 1_555 1_555
H15 C26 1_555 1_555
C27 C26 1_555 1_555
H16 C27 1_555 1_555
C28 C23 1_555 1_555
N1 C7 1_555 1_555
N2 C8 1_555 1_555
N3 C21 1_555 1_555
N4 C28 1_555 1_555
O1 C1 1_555 1_555
O2 Pb1 1_555 1_555
O3 Pb2 1_555 1_555
O4 C14 1_555 1_555
O5 Pb2 1_555 1_555
O6 Pb3 1_555 1_555
O7 Pb2 1_555 1_555
O8 Pb2 1_555 1_555
O9 Pb1 1_555 1_555
C15A C16A 1_555 1_555
C16A C17A 1_555 1_555
C17A H9A 1_555 1_555
C18A C17A 1_555 1_555
H10A C18A 1_555 1_555
C19A C18A 1_555 1_555
H11A C19A 1_555 1_555
C20A C19A 1_555 1_555
H12A C20A 1_555 1_555
C21A C16A 1_555 1_555
N3A N3 1_555 1_555
O5A C15A 1_555 1_555
O6A C15A 1_555 1_555
C22A C23A 1_555 1_555
C23A C24A 1_555 1_555
C24A H13A 1_555 1_555
C25A C24A 1_555 1_555
H14A C25A 1_555 1_555
C26A C25A 1_555 1_555
H15A C26A 1_555 1_555
C27A C26A 1_555 1_555
H16A C27A 1_555 1_555
C28A C23A 1_555 1_555
N4A N4 1_555 1_555
O7A C22A 1_555 1_555
O8A C22A 1_555 1_555
Pb1A O1A 1_555 1_555
Pb2A O5A 1_555 1_555
Pb3A O5A 1_555 1_555
C1A C2A 1_555 1_555
C2A C3A 1_555 1_555
C3A H1A 1_555 1_555
C4A C3A 1_555 1_555
H2A C4A 1_555 1_555
C5A C4A 1_555 1_555
H3A C5A 1_555 1_555
C6A C5A 1_555 1_555
H4A C6A 1_555 1_555
C7A C2A 1_555 1_555
C8A C9A 1_555 1_555
C9A H5A 1_555 1_555
C10A C9A 1_555 1_555
H6A C10A 1_555 1_555
C11A C10A 1_555 1_555
H7A C11A 1_555 1_555
C12A C11A 1_555 1_555
H8A C12A 1_555 1_555
C13A C8A 1_555 1_555
C14A C13A 1_555 1_555
N1A C7A 1_555 1_555
N2A C8A 1_555 1_555
O1A Pb2A 1_555 1_555
O2A Pb1A 1_555 1_555
O3A Pb2A 1_555 1_555
O4A C14A 1_555 1_555
O9A Pb1A 1_555 1_555
Pb1_2 O4A 1_555 1_555
Pb1_3 O8A 1_555 1_555
Pb1A_2 O4 1_555 1_555
Pb2_2 O3A 1_555 1_555
Pb2A_2 O7A 1_555 1_555
Pb2A_3 O3 1_555 1_555
Pb3_2 O2A 1_555 1_555
Pb3A_2 O2 1_555 1_555
Pb3A_3 O7A 1_555 1_555
O2_2 Pb3A 1_555 1_555
O2A_2 Pb3 1_555 1_555
O3_2 Pb2A 1_555 1_555
O3A_2 Pb2 1_555 1_555
O4_2 Pb1A 1_555 1_555
O4A_2 Pb1 1_555 1_555
O7A_2 Pb2A 1_555 1_555
O8_2 Pb1A 1_555 1_555
O8A_2 Pb2A 1_555 1_555
O8A_3 Pb1 1_555 1_555
O9_2 Pb1A 1_555 1_555
O9A_2 Pb1 1_555 1_555
Pb2 O9 1_555 1_555
Pb3 O7 1_555 1_555
Pb3 O9 1_555 1_555
Pb3 O4A_2 1_555 1_555
C1 O2 1_555 1_555
C6 C7 1_555 1_555
C12 C13 1_555 1_555
C14 O3 1_555 1_555
C15 O5 1_555 1_555
C15 O6 1_555 1_555
C20 C21 1_555 1_555
C22 O7 1_555 1_555
C22 O8 1_555 1_555
C27 C28 1_555 1_555
N1 N2 1_555 1_555
O4 Pb3A_2 1_555 1_555
O8 Pb1A_2 1_555 1_555
O9 Pb1A_2 1_555 1_555
C20A C21A 1_555 1_555
C21A N3A 1_555 1_555
O6A Pb3A 1_555 1_555
C27A C28A 1_555 1_555
C28A N4A 1_555 1_555
O8A Pb2A_2 1_555 1_555
Pb2A O9A 1_555 1_555
Pb3A O9A 1_555 1_555
Pb3A O4_2 1_555 1_555
Pb3A O7A_2 1_555 1_555
C1A O1A 1_555 1_555
C1A O2A 1_555 1_555
C6A C7A 1_555 1_555
C12A C13A 1_555 1_555
C14A O3A 1_555 1_555
N1A N2A 1_555 1_555
O4A Pb3_2 1_555 1_555
O9A Pb1_2 1_555 1_555
Pb1_2 O2_2 1_555 1_555
Pb1_2 O8A_2 1_555 1_555
Pb1_2 O9_2 1_555 1_555
Pb1A_2 O2A_2 1_555 1_555
Pb1A_2 O9A_2 1_555 1_555
Pb2_2 O3_2 1_555 1_555
Pb2A_3 O3A_2 1_555 1_555
Pb3_2 O9_2 1_555 1_555
Pb3A_2 O9A_2 1_555 1_555

#END
