
#######################################################################
#
#                 Cambridge Crystallographic Data Centre
#                                CCDC 
#
#######################################################################
#
# If this CIF has been generated from an entry in the Cambridge 
# Structural Database, then it will include bibliographic, chemical, 
# crystal, experimental, refinement or atomic coordinate data resulting 
# from the CCDC's data processing and validation procedures.
#
#######################################################################

data_SISGIM
_symmetry_cell_setting           triclinic
_symmetry_space_group_name_H-M   'P -1'
_symmetry_Int_Tables_number      2
_space_group_name_Hall           '-P 1'
loop_
_symmetry_equiv_pos_site_id
_symmetry_equiv_pos_as_xyz
1 x,y,z
2 -x,-y,-z
_cell_length_a                   6.8982(4)
_cell_length_b                   10.1549(6)
_cell_length_c                   15.2233(8)
_cell_angle_alpha                83.8120(10)
_cell_angle_beta                 78.1380(10)
_cell_angle_gamma                77.5150(10)
_cell_volume                     1016.71
loop_
_atom_site_label
_atom_site_type_symbol
_atom_site_fract_x
_atom_site_fract_y
_atom_site_fract_z
C1 C 0.1855(5) 0.6837(4) -0.1584(3)
C2 C 0.2079(6) 0.5816(4) -0.2151(3)
H1 H 0.1917 0.6024 -0.2745
C3 C 0.2549(6) 0.4482(4) -0.1824(3)
H2 H 0.2711 0.3790 -0.2203
C4 C 0.2778(6) 0.4170(4) -0.0935(3)
C5 C 0.2507(7) 0.5215(4) -0.0381(3)
H3 H 0.2637 0.5016 0.0218
C6 C 0.2048(7) 0.6542(4) -0.0702(3)
H4 H 0.1871 0.7236 -0.0323
C7 C 0.3357(6) 0.2709(4) -0.0590(3)
C8 C 0.3802(6) -0.1671(4) 0.3051(3)
H5 H 0.4098 -0.2265 0.2596
C9 C 0.3486(7) -0.2208(4) 0.3945(3)
H6 H 0.3607 -0.3134 0.4076
C10 C 0.3000(6) -0.1348(4) 0.4614(3)
H7 H 0.2792 -0.1681 0.5212
C11 C 0.2813(5) 0.0042(4) 0.4400(3)
C12 C 0.2259(6) 0.1061(4) 0.5035(3)
C13 C 0.1358(7) 0.2204(5) 0.6237(3)
H8 H 0.0986 0.2399 0.6838
C14 C 0.2051(6) 0.2408(4) 0.4812(3)
C15 C 0.2400(6) 0.2918(4) 0.3879(3)
C16 C 0.2154(6) 0.4283(4) 0.3598(3)
H9 H 0.1761 0.4937 0.4018
C17 C 0.2498(6) 0.4655(4) 0.2696(3)
H10 H 0.2331 0.5563 0.2493
C18 C 0.3100(6) 0.3652(4) 0.2093(3)
H11 H 0.3340 0.3915 0.1482
C19 C 0.2998(5) 0.1951(4) 0.3222(2)
C20 C 0.3179(5) 0.0516(4) 0.3479(2)
N1 N 0.3705(5) -0.0367(3) 0.2817(2)
N2 N 0.3356(4) 0.2338(3) 0.2328(2)
N3 N 0.1497(6) 0.3151(4) 0.5565(2)
N4 N 0.1803(5) 0.0940(4) 0.5965(2)
H12 H 0.1806 0.0204 0.6302
O1 O 0.2575(4) 0.9262(3) -0.1665(2)
O2 O 0.1646(5) 0.8561(3) -0.29649(19)
O3 O -0.0801(4) 0.9068(3) -0.1604(2)
O4 O 0.3751(4) 0.1806(3) -0.11419(18)
O5 O 0.3395(4) 0.2491(3) 0.02405(18)
O6 O 0.3123(4) -0.0494(3) 0.01766(17)
H13 H 0.2955 -0.0568 -0.0353
S1 S 0.12856(13) 0.85478(8) -0.19961(6)
Gd1 Gd 0.44409(2) 0.052210(16) 0.114443(11)
O1A O 0.7425(4) 0.0738(3) 0.1665(2)
O3A O 0.0801(4) 0.0932(3) 0.1604(2)
O4A O 0.6249(4) -0.1806(3) 0.11419(18)
O6A O 0.6877(4) 0.0494(3) -0.01766(17)
Gd1A Gd -0.44409(2) 0.947790(16) -0.114443(11)
Gd1A_2 Gd 0.55591(2) -0.052210(16) -0.114443(11)
Gd1A_3 Gd 0.55591(2) 0.947790(16) -0.114443(11)
O7 O 0.9087(7) 0.2293(4) 0.8537(3)
H14 H 1.0298 0.2169 0.8623
H15 H 0.8600 0.1583 0.8686
O8 O 0.6938(13) 0.4499(7) 0.4402(5)
H16 H 0.7450 0.5200 0.4345
H17 H 0.5809 0.4775 0.4747
loop_
_geom_bond_atom_site_label_1
_geom_bond_atom_site_label_2
_geom_bond_site_symmetry_1
_geom_bond_site_symmetry_2
C1 C2 1_555 1_555
C2 H1 1_555 1_555
C3 C2 1_555 1_555
H2 C3 1_555 1_555
C4 C3 1_555 1_555
C5 C4 1_555 1_555
H3 C5 1_555 1_555
C6 C1 1_555 1_555
H4 C6 1_555 1_555
C7 C4 1_555 1_555
C8 H5 1_555 1_555
C9 C8 1_555 1_555
H6 C9 1_555 1_555
C10 C9 1_555 1_555
H7 C10 1_555 1_555
C11 C10 1_555 1_555
C12 C11 1_555 1_555
C13 H8 1_555 1_555
C14 C12 1_555 1_555
C15 C14 1_555 1_555
C16 C15 1_555 1_555
H9 C16 1_555 1_555
C17 C16 1_555 1_555
H10 C17 1_555 1_555
C18 C17 1_555 1_555
H11 C18 1_555 1_555
C19 C15 1_555 1_555
C20 C11 1_555 1_555
N1 C8 1_555 1_555
N2 C18 1_555 1_555
N3 C13 1_555 1_555
N4 C12 1_555 1_555
H12 N4 1_555 1_555
O1 S1 1_555 1_555
O2 S1 1_555 1_555
O3 S1 1_555 1_555
O4 C7 1_555 1_555
O5 C7 1_555 1_555
O6 H13 1_555 1_555
S1 C1 1_555 1_555
Gd1 N1 1_555 1_555
O7 H14 1_555 1_555
H15 O7 1_555 1_555
O8 H16 1_555 1_555
H17 O8 1_555 1_555
O1A Gd1 1_555 1_555
O3A Gd1 1_555 1_555
O4A Gd1 1_555 1_555
O6A Gd1 1_555 1_555
Gd1A O3 1_555 1_555
Gd1A_2 O4 1_555 1_555
Gd1A_3 O1 1_555 1_555
C5 C6 1_555 1_555
C13 N4 1_555 1_555
C14 N3 1_555 1_555
C19 C20 1_555 1_555
C19 N2 1_555 1_555
C20 N1 1_555 1_555
N2 Gd1 1_555 1_555
O5 Gd1 1_555 1_555
O6 Gd1 1_555 1_555
O6 Gd1A_2 1_555 1_555
O6A Gd1A_2 1_555 1_555

#END
