
#######################################################################
#
#                 Cambridge Crystallographic Data Centre
#                                CCDC 
#
#######################################################################
#
# If this CIF has been generated from an entry in the Cambridge 
# Structural Database, then it will include bibliographic, chemical, 
# crystal, experimental, refinement or atomic coordinate data resulting 
# from the CCDC's data processing and validation procedures.
#
#######################################################################

data_SISJEJ
_symmetry_cell_setting           triclinic
_symmetry_space_group_name_H-M   'P -1'
_symmetry_Int_Tables_number      2
_space_group_name_Hall           '-P 1'
loop_
_symmetry_equiv_pos_site_id
_symmetry_equiv_pos_as_xyz
1 x,y,z
2 -x,-y,-z
_cell_length_a                   9.200(2)
_cell_length_b                   10.354(2)
_cell_length_c                   23.541(4)
_cell_angle_alpha                99.36(2)
_cell_angle_beta                 95.34(1)
_cell_angle_gamma                91.59(1)
_cell_volume                     2200.88
loop_
_atom_site_label
_atom_site_type_symbol
_atom_site_fract_x
_atom_site_fract_y
_atom_site_fract_z
Na1 Na 0.6213(2) 0.6353(1) 0.7226(1)
S1 S 0.6495(1) 0.9077(1) 0.7667(1)
C3 C 0.6694(4) 0.9448(3) 0.8415(2)
C4 C 0.7585(4) 0.8741(3) 0.8775(2)
C5 C 0.7780(4) 0.9101(3) 0.9367(2)
C6 C 0.7108(4) 1.0170(4) 0.9642(2)
C7 C 0.6196(4) 1.0861(4) 0.9312(2)
C8 C 0.5973(4) 1.0509(3) 0.8721(2)
C9 C 0.8386(5) 0.7577(4) 0.8512(2)
F1 F 0.9363(3) 0.7871(3) 0.8167(1)
F2 F 0.9104(3) 0.7003(2) 0.8918(1)
F3 F 0.7471(3) 0.6615(2) 0.8197(1)
C10 C 0.7385(5) 1.0581(5) 1.0276(2)
F4 F 0.8577(4) 1.1266(7) 1.0433(1)
F5 F 0.6348(3) 1.1248(3) 1.0517(1)
F6 F 0.7437(5) 0.9559(4) 1.0562(1)
C11 C 0.4895(5) 1.1279(4) 0.8402(2)
F7 F 0.3756(3) 1.0541(3) 0.8121(1)
F8 F 0.4326(3) 1.2222(3) 0.8766(1)
F9 F 0.5482(3) 1.1902(2) 0.8008(1)
Na2 Na 0.7731(2) 1.1451(1) 0.7445(1)
S2 S 0.6925(1) 0.3693(1) 0.6961(1)
C12 C 0.7963(4) 0.3384(3) 0.6380(2)
C13 C 0.9145(4) 0.4238(3) 0.6296(2)
C14 C 1.0010(4) 0.3938(3) 0.5852(2)
C15 C 0.9784(4) 0.2774(3) 0.5462(2)
C16 C 0.8624(4) 0.1930(3) 0.5518(2)
C17 C 0.7723(4) 0.2233(3) 0.5957(2)
C18 C 0.9495(4) 0.5508(4) 0.6707(2)
F10 F 0.9835(3) 0.5344(2) 0.7255(1)
F11 F 1.0647(3) 0.6170(2) 0.6564(1)
F12 F 0.8393(3) 0.6343(2) 0.6712(1)
C19 C 1.0773(5) 0.2461(4) 0.5006(2)
F13 F 1.0603(8) 0.1273(5) 0.4708(3)
F14 F 1.2180(7) 0.2630(8) 0.5192(3)
F15 F 1.0601(8) 0.3217(9) 0.4606(3)
C20 C 0.6463(5) 0.1286(4) 0.5969(2)
F16 F 0.6401(3) 0.0279(2) 0.5524(1)
F17 F 0.5170(3) 0.1819(3) 0.5932(1)
F18 F 0.6551(3) 0.0712(2) 0.6447(1)
O2 O 0.4213(4) 0.5863(3) 0.7654(2)
C21 C 0.3414(9) 0.6790(5) 0.8000(4)
C22 C 0.2625(7) 0.6125(5) 0.8373(3)
C23 C 0.2700(7) 0.4695(5) 0.8139(3)
C24 C 0.3528(7) 0.4655(4) 0.7629(3)
O3 O 0.5116(4) 0.6540(3) 0.6337(1)
C25 C 0.5345(7) 0.7630(5) 0.6059(3)
C26 C 0.4412(7) 0.7428(6) 0.5508(2)
C27 C 0.3487(7) 0.6238(5) 0.5511(2)
C28 C 0.4257(7) 0.5566(5) 0.5949(3)
O4 O 0.9888(3) 1.0792(3) 0.7080(1)
C29 C 1.0243(8) 0.9462(5) 0.6926(4)
C30 C 1.1739(7) 0.9404(6) 0.6771(3)
C31 C 1.2085(7) 1.0767(7) 0.6673(3)
C32 C 1.1138(5) 1.1590(5) 0.7040(3)
O5 O 0.8911(3) 1.2430(3) 0.8329(1)
C33 C 0.9983(5) 1.1874(4) 0.8685(2)
C34 C 1.0178(8) 1.2744(5) 0.9245(3)
C35 C 0.9690(6) 1.4032(5) 0.9137(2)
C36 C 0.8680(6) 1.3730(4) 0.8593(2)
H1 H 0.8397 0.8598 0.9591
H2 H 0.5713 1.1601 0.9499
H3 H 1.0793 0.4541 0.5814
H4 H 0.8439 0.1128 0.5249
H5 H 0.2798 0.7284 0.7771
H6 H 0.4112 0.7388 0.8246
H7 H 0.1627 0.6370 0.8330
H8 H 0.2988 0.6342 0.8774
H9 H 0.1748 0.4274 0.8038
H10 H 0.3220 0.4281 0.8428
H11 H 0.4252 0.4005 0.7628
H12 H 0.2874 0.4437 0.7282
H13 H 0.6352 0.7696 0.5987
H14 H 0.5119 0.8418 0.6304
H15 H 0.4980 0.7302 0.5183
H16 H 0.3819 0.8170 0.5486
H17 H 0.3360 0.5692 0.5137
H18 H 0.2543 0.6468 0.5628
H19 H 0.3589 0.5121 0.6150
H20 H 0.4874 0.4933 0.5760
H21 H 0.9603 0.9097 0.6589
H22 H 1.0086 0.8973 0.7229
H23 H 1.1845 0.8768 0.6433
H24 H 1.2362 0.9199 0.7091
H25 H 1.1819 1.0843 0.6276
H26 H 1.3104 1.1008 0.6769
H27 H 1.1651 1.1847 0.7418
H28 H 1.0869 1.2362 0.6886
H29 H 1.0891 1.1818 0.8514
H30 H 0.9664 1.1008 0.8730
H31 H 1.1184 1.2807 0.9402
H32 H 0.9596 1.2420 0.9514
H33 H 1.0510 1.4584 0.9090
H34 H 0.9191 1.4459 0.9451
H35 H 0.7682 1.3816 0.8676
H36 H 0.8896 1.4331 0.8338
S2_2 S 0.6925(1) 1.3693(1) 0.6961(1)
Na2_2 Na 0.7731(2) 0.1451(1) 0.7445(1)
O1 O 0.5368(29) 1.3837(13) 1.0156(6)
C1 C 0.6182(10) 1.4656(13) 1.0042(6)
C2 C 0.4248(16) 1.4313(12) 1.0228(6)
C2A C 0.5752(16) 1.5687(12) 0.9772(6)
C1A C 0.3818(10) 1.5344(13) 0.9958(6)
F19? F 1.0088(12) 1.1636(16) 0.4550(5)
F20? F 1.1275(13) 1.3417(10) 0.4792(5)
F21? F 1.1880(15) 1.1801(12) 0.5169(5)
loop_
_geom_bond_atom_site_label_1
_geom_bond_atom_site_label_2
_geom_bond_site_symmetry_1
_geom_bond_site_symmetry_2
O1 C1 1_555 1_555
C1 C2 1_555 1_555
C2 O1 1_555 1_555
Na1 S1 1_555 1_555
S1 C3 1_555 1_555
C3 C4 1_555 1_555
C4 C5 1_555 1_555
C5 C6 1_555 1_555
C6 C7 1_555 1_555
C7 C8 1_555 1_555
C8 C3 1_555 1_555
C9 C4 1_555 1_555
F1 C9 1_555 1_555
F2 C9 1_555 1_555
F3 C9 1_555 1_555
C10 C6 1_555 1_555
F4 C10 1_555 1_555
F5 C10 1_555 1_555
F6 C10 1_555 1_555
C11 C8 1_555 1_555
F7 C11 1_555 1_555
F8 C11 1_555 1_555
F9 C11 1_555 1_555
Na2 S1 1_555 1_555
S2 Na1 1_555 1_555
C12 S2 1_555 1_555
C13 C12 1_555 1_555
C14 C13 1_555 1_555
C15 C14 1_555 1_555
C16 C15 1_555 1_555
C17 C12 1_555 1_555
C18 C13 1_555 1_555
F10 C18 1_555 1_555
F11 C18 1_555 1_555
F12 C18 1_555 1_555
C19 C15 1_555 1_555
F13 C19 1_555 1_555
F14 C19 1_555 1_555
F15 C19 1_555 1_555
C20 C17 1_555 1_555
F16 C20 1_555 1_555
F17 C20 1_555 1_555
F18 C20 1_555 1_555
O2 Na1 1_555 1_555
C21 O2 1_555 1_555
C22 C21 1_555 1_555
C23 C22 1_555 1_555
C24 O2 1_555 1_555
O3 Na1 1_555 1_555
C25 O3 1_555 1_555
C26 C25 1_555 1_555
C27 C26 1_555 1_555
C28 O3 1_555 1_555
O4 Na2 1_555 1_555
C29 O4 1_555 1_555
C30 C29 1_555 1_555
C31 C30 1_555 1_555
C32 O4 1_555 1_555
O5 Na2 1_555 1_555
C33 O5 1_555 1_555
C34 C33 1_555 1_555
C35 C34 1_555 1_555
C36 O5 1_555 1_555
H1 C5 1_555 1_555
H2 C7 1_555 1_555
H3 C14 1_555 1_555
H4 C16 1_555 1_555
H5 C21 1_555 1_555
H6 C21 1_555 1_555
H7 C22 1_555 1_555
H8 C22 1_555 1_555
H9 C23 1_555 1_555
H10 C23 1_555 1_555
H11 C24 1_555 1_555
H12 C24 1_555 1_555
H13 C25 1_555 1_555
H14 C25 1_555 1_555
H15 C26 1_555 1_555
H16 C26 1_555 1_555
H17 C27 1_555 1_555
H18 C27 1_555 1_555
H19 C28 1_555 1_555
H20 C28 1_555 1_555
H21 C29 1_555 1_555
H22 C29 1_555 1_555
H23 C30 1_555 1_555
H24 C30 1_555 1_555
H25 C31 1_555 1_555
H26 C31 1_555 1_555
H27 C32 1_555 1_555
H28 C32 1_555 1_555
H29 C33 1_555 1_555
H30 C33 1_555 1_555
H31 C34 1_555 1_555
H32 C34 1_555 1_555
H33 C35 1_555 1_555
H34 C35 1_555 1_555
H35 C36 1_555 1_555
H36 C36 1_555 1_555
C2A C1 1_555 1_555
C1A C2 1_555 1_555
S2_2 Na2 1_555 1_555
Na2_2 S2 1_555 1_555
C16 C17 1_555 1_555
C23 C24 1_555 1_555
C27 C28 1_555 1_555
C31 C32 1_555 1_555
C35 C36 1_555 1_555
C2A C1A 1_555 1_555

#END
