
#######################################################################
#
#                 Cambridge Crystallographic Data Centre
#                                CCDC 
#
#######################################################################
#
# If this CIF has been generated from an entry in the Cambridge 
# Structural Database, then it will include bibliographic, chemical, 
# crystal, experimental, refinement or atomic coordinate data resulting 
# from the CCDC's data processing and validation procedures.
#
#######################################################################

data_SISLEL10
_symmetry_cell_setting           triclinic
_symmetry_space_group_name_H-M   'P -1'
_symmetry_Int_Tables_number      2
_space_group_name_Hall           '-P 1'
loop_
_symmetry_equiv_pos_site_id
_symmetry_equiv_pos_as_xyz
1 x,y,z
2 -x,-y,-z
_cell_length_a                   13.217(3)
_cell_length_b                   13.272(3)
_cell_length_c                   12.889(3)
_cell_angle_alpha                91.82(4)
_cell_angle_beta                 98.04(4)
_cell_angle_gamma                119.39(5)
_cell_volume                     1937.34
loop_
_atom_site_label
_atom_site_type_symbol
_atom_site_fract_x
_atom_site_fract_y
_atom_site_fract_z
Sb1 Sb 0.03052(4) 0.25469(3) 0.05702(3)
N1 N 0.1958(5) 0.2370(4) 0.1008(4)
C1 C 0.2700(5) 0.2170(5) 0.0999(4)
S1 S 0.3733(1) 0.1815(2) 0.1020(1)
C2 C -0.0561(5) 0.1160(5) 0.1496(5)
C3 C -0.0763(6) 0.0070(6) 0.1163(5)
C4 C -0.1309(7) -0.0856(6) 0.1725(6)
C5 C -0.1690(6) -0.0708(6) 0.2624(6)
C6 C -0.1494(8) 0.0361(8) 0.2960(8)
C7 C -0.0962(6) 0.1299(6) 0.2398(6)
C8 C 0.1108(5) 0.3963(5) 0.1799(5)
C9 C 0.1600(6) 0.3867(6) 0.2798(6)
C10 C 0.2148(8) 0.4790(8) 0.3569(8)
C11 C 0.2218(9) 0.5849(8) 0.333(1)
C12 C 0.1741(8) 0.5949(7) 0.237(1)
C13 C 0.1189(7) 0.5014(6) 0.1586(7)
Sb2 Sb 0.22221(3) -0.01698(3) 0.19362(3)
N2 N 0.1148(5) -0.1642(5) 0.2865(5)
C14 C 0.0266(6) -0.2265(5) 0.3113(5)
S2 S -0.0976(1) -0.3130(1) 0.3486(1)
C15 C 0.2587(5) 0.0977(5) 0.3317(4)
C16 C 0.3728(6) 0.1806(6) 0.3797(5)
C17 C 0.3900(8) 0.2556(6) 0.4659(6)
C18 C 0.2970(8) 0.2482(7) 0.5043(6)
C19 C 0.1849(8) 0.1682(8) 0.4576(6)
C20 C 0.1660(7) 0.0938(7) 0.3711(6)
C21 C 0.3650(5) -0.0489(5) 0.2369(5)
C22 C 0.3887(6) -0.0760(6) 0.3373(7)
C23 C 0.4718(7) -0.1083(7) 0.3645(9)
C24 C 0.5317(9) -0.1153(7) 0.291(1)
C25 C 0.5133(8) -0.0885(9) 0.190(1)
C26 C 0.4270(7) -0.0563(7) 0.1625(7)
Sb3 Sb -0.19542(3) -0.49310(3) 0.17762(3)
N3 N -0.1389(5) 0.2745(5) 0.0440(5)
C27 C -0.2159(6) -0.7072(5) 0.0370(5)
S3 S -0.3245(2) -0.6792(2) 0.0300(1)
C28 C -0.3498(5) -0.4817(5) 0.1878(5)
C29 C -0.4182(6) -0.5246(6) 0.2639(6)
C30 C -0.5108(6) -0.5046(7) 0.2688(7)
C31 C -0.5333(7) -0.4393(7) 0.2001(7)
C32 C -0.4661(8) -0.3969(9) 0.1240(8)
C33 C -0.3735(6) -0.4164(7) 0.1182(6)
C34 C -0.2067(5) -0.6104(5) 0.2929(4)
C35 C -0.1041(6) -0.5845(5) 0.3594(5)
C36 C -0.1038(7) -0.6594(6) 0.4304(5)
C37 C -0.2058(8) -0.7586(7) 0.4361(6)
C38 C -0.3080(7) -0.7862(6) 0.3693(6)
C39 C -0.3095(6) -0.7133(5) 0.2978(5)
H1 H -0.039(7) 0.007(7) 0.059(6)
H2 H -0.149(7) -0.165(7) 0.144(6)
H3 H -0.207(6) -0.141(6) 0.295(5)
H4 H -0.164(9) 0.043(9) 0.346(8)
H5 H -0.082(8) 0.214(8) 0.248(7)
H6 H 0.166(7) 0.311(8) 0.292(6)
H7 H 0.259(7) 0.477(6) 0.425(6)
H8 H 0.263(8) 0.631(9) 0.390(8)
H9 H 0.184(7) 0.674(8) 0.210(6)
H10 H 0.086(6) 0.509(6) 0.091(5)
H11 H 0.437(5) 0.188(4) 0.353(4)
H12 H 0.463(7) 0.308(7) 0.488(6)
H13 H 0.310(7) 0.297(7) 0.559(7)
H14 H 0.127(7) 0.167(7) 0.491(7)
H15 H 0.091(6) 0.041(6) 0.344(5)
H16 H 0.346(6) -0.064(6) 0.396(6)
H17 H 0.50(1) -0.13(1) 0.44(1)
H18 H 0.59(1) -0.14(1) 0.322(9)
H19 H 0.545(9) -0.083(9) 0.128(8)
H20 H 0.411(5) -0.038(5) 0.094(5)
H21 H -0.401(6) -0.569(6) 0.306(5)
H22 H -0.566(6) -0.538(6) 0.319(5)
H23 H -0.593(8) -0.423(8) 0.205(7)
H24 H -0.505(9) -0.371(8) 0.077(8)
H25 H -0.334(6) -0.398(6) 0.057(6)
H26 H -0.025(6) -0.516(6) 0.361(5)
H27 H -0.034(6) -0.644(5) 0.473(5)
H28 H -0.214(7) -0.806(8) 0.475(7)
H29 H -0.371(7) -0.847(7) 0.369(5)
H30 H -0.385(6) -0.733(5) 0.253(5)
N3_2 N -0.1389(5) -0.7255(5) 0.0440(5)
Sb1_2 Sb 0.03052(4) -0.74531(3) 0.05702(3)
loop_
_geom_bond_atom_site_label_1
_geom_bond_atom_site_label_2
_geom_bond_site_symmetry_1
_geom_bond_site_symmetry_2
Sb1 N1 1_555 1_555
N1 C1 1_555 1_555
C1 S1 1_555 1_555
S1 Sb2 1_555 1_555
C2 Sb1 1_555 1_555
C3 C2 1_555 1_555
C4 C3 1_555 1_555
C5 C4 1_555 1_555
C6 C5 1_555 1_555
C7 C2 1_555 1_555
C8 Sb1 1_555 1_555
C9 C8 1_555 1_555
C10 C9 1_555 1_555
C11 C10 1_555 1_555
C12 C11 1_555 1_555
C13 C8 1_555 1_555
Sb2 N2 1_555 1_555
N2 C14 1_555 1_555
C14 S2 1_555 1_555
S2 Sb3 1_555 1_555
C15 Sb2 1_555 1_555
C16 C15 1_555 1_555
C17 C16 1_555 1_555
C18 C17 1_555 1_555
C19 C18 1_555 1_555
C20 C15 1_555 1_555
C21 Sb2 1_555 1_555
C22 C21 1_555 1_555
C23 C22 1_555 1_555
C24 C23 1_555 1_555
C25 C24 1_555 1_555
C26 C21 1_555 1_555
Sb3 S3 1_555 1_555
N3 Sb1 1_555 1_555
C27 S3 1_555 1_555
C28 Sb3 1_555 1_555
C29 C28 1_555 1_555
C30 C29 1_555 1_555
C31 C30 1_555 1_555
C32 C31 1_555 1_555
C33 C28 1_555 1_555
C34 Sb3 1_555 1_555
C35 C34 1_555 1_555
C36 C35 1_555 1_555
C37 C36 1_555 1_555
C38 C37 1_555 1_555
C39 C34 1_555 1_555
H1 C3 1_555 1_555
H2 C4 1_555 1_555
H3 C5 1_555 1_555
H4 C6 1_555 1_555
H5 C7 1_555 1_555
H6 C9 1_555 1_555
H7 C10 1_555 1_555
H8 C11 1_555 1_555
H9 C12 1_555 1_555
H10 C13 1_555 1_555
H11 C16 1_555 1_555
H12 C17 1_555 1_555
H13 C18 1_555 1_555
H14 C19 1_555 1_555
H15 C20 1_555 1_555
H16 C22 1_555 1_555
H17 C23 1_555 1_555
H18 C24 1_555 1_555
H19 C25 1_555 1_555
H20 C26 1_555 1_555
H21 C29 1_555 1_555
H22 C30 1_555 1_555
H23 C31 1_555 1_555
H24 C32 1_555 1_555
H25 C33 1_555 1_555
H26 C35 1_555 1_555
H27 C36 1_555 1_555
H28 C37 1_555 1_555
H29 C38 1_555 1_555
H30 C39 1_555 1_555
N3_2 C27 1_555 1_555
Sb1_2 N3_2 1_555 1_555
C6 C7 1_555 1_555
C12 C13 1_555 1_555
C19 C20 1_555 1_555
C25 C26 1_555 1_555
C32 C33 1_555 1_555
C38 C39 1_555 1_555

#END
