
#######################################################################
#
#                 Cambridge Crystallographic Data Centre
#                                CCDC 
#
#######################################################################
#
# If this CIF has been generated from an entry in the Cambridge 
# Structural Database, then it will include bibliographic, chemical, 
# crystal, experimental, refinement or atomic coordinate data resulting 
# from the CCDC's data processing and validation procedures.
#
#######################################################################

data_SISPUH
_symmetry_cell_setting           monoclinic
_symmetry_space_group_name_H-M   'P c'
_symmetry_Int_Tables_number      7
_space_group_name_Hall           'P -2yc'
loop_
_symmetry_equiv_pos_site_id
_symmetry_equiv_pos_as_xyz
1 x,y,z
2 x,-y,1/2+z
_cell_length_a                   17.735(2)
_cell_length_b                   10.9253(13)
_cell_length_c                   16.853(2)
_cell_angle_alpha                90
_cell_angle_beta                 89.673(2)
_cell_angle_gamma                90
_cell_volume                     3265.39
loop_
_atom_site_label
_atom_site_type_symbol
_atom_site_fract_x
_atom_site_fract_y
_atom_site_fract_z
Gd1 Gd 0.17069(2) 0.39555(3) 0.87506(2)
Gd2 Gd 0.16906(2) 0.41028(3) 0.59247(2)
Gd3 Gd 0.66736(2) 1.03828(3) 0.52550(2)
Gd4 Gd 0.67487(2) 0.85843(3) 0.73981(2)
S1 S -0.08543(14) 0.1601(3) 0.76947(16)
S2 S -0.06735(14) 0.2266(3) 0.45223(17)
S3 S 0.42145(14) 0.6702(3) 0.85780(15)
S4 S 0.43042(14) 0.2257(3) 0.66941(15)
S5 S 0.41225(14) 0.7760(3) 0.51569(16)
S6 S 0.91820(14) 0.6782(3) 0.61062(15)
O1 O 0.0573(4) 0.3326(8) 0.8050(4)
O2 O 0.0889(4) 0.3109(8) 0.6791(4)
O3 O -0.2286(4) 0.0143(7) 0.7704(4)
O4 O -0.2637(4) 0.0503(7) 0.6474(4)
O5 O 0.0789(4) 0.3420(7) 0.4941(4)
O6 O 0.1023(4) 0.4175(7) 0.3727(5)
O7 O -0.2193(4) 0.1049(8) 0.4608(5)
O8 O -0.2657(4) 0.1992(7) 0.3550(5)
O9 O 0.2381(4) 0.5890(7) 0.9743(5)
O10 O 0.2753(4) 0.5340(7) 0.8556(5)
O11 O 0.5857(5) 0.8770(9) 0.9324(5)
O12 O 0.5676(4) 0.7975(8) 0.8141(5)
O13 O 0.2445(4) 0.2929(7) 0.7859(5)
O14 O 0.2803(4) 0.3514(8) 0.6651(5)
O15 O 0.6036(4) 0.0381(6) 0.7498(4)
O16 O 0.5753(4) 0.1065(7) 0.6270(5)
O17 O 0.2383(4) 0.5947(6) 0.5930(5)
O18 O 0.2634(4) 0.6725(7) 0.4729(5)
O19 O 0.6002(4) 0.8458(7) 0.6295(5)
O20 O 0.5582(4) 0.9064(8) 0.5127(5)
O21 O 0.7725(4) 0.7911(7) 0.6579(5)
O22 O 0.7444(4) 0.8668(7) 0.5379(5)
O23 O 1.0644(4) 0.5492(8) 0.6104(5)
O24 O 1.0993(4) 0.5999(7) 0.4902(5)
O25 O 0.1699(4) 0.5164(5) 0.7333(4)
H1 H 0.1261 0.5697 0.7347
H2 H 0.2137 0.5697 0.7337
O26 O 0.1918(5) 0.1916(7) 0.5743(6)
O27 O 0.1486(5) 0.1796(7) 0.8951(6)
O28 O 0.6619(9) 0.6421(8) 0.7314(9)
O29 O 0.6748(5) 0.9156(6) 0.3993(5)
O30 O 0.6844(5) 1.2572(6) 0.5425(5)
N1 N 0.1602(10) -0.0080(12) 0.5963(9)
N2 N 0.1624(9) -0.0161(12) 0.8634(8)
N3 N 0.6591(19) 0.440(3) 0.7765(15)
N4 N 0.6537(10) 1.4567(15) 0.5313(12)
C1 C 0.0436(5) 0.3072(9) 0.7364(6)
C2 C -0.0341(6) 0.2603(10) 0.7145(6)
C3 C -0.0689(7) 0.2893(13) 0.6445(8)
H3 H -0.0503 0.3456 0.6079
C4 C -0.1388(7) 0.2207(12) 0.6346(8)
H4 H -0.1689 0.2256 0.5897
C5 C -0.1544(6) 0.1508(10) 0.6964(6)
C6 C -0.2201(5) 0.0647(9) 0.7070(6)
C7 C 0.0619(6) 0.3630(8) 0.4218(6)
C8 C -0.0116(5) 0.3176(10) 0.3940(6)
C9 C -0.0471(7) 0.3434(14) 0.3262(7)
H5 H -0.0251 0.3898 0.2861
C10 C -0.1202(8) 0.2951(16) 0.3203(8)
H6 H -0.1520 0.3072 0.2773
C11 C -0.1386(6) 0.2284(11) 0.3856(6)
C12 C -0.2125(6) 0.1695(11) 0.4025(6)
C13 C 0.2834(5) 0.5927(8) 0.9191(6)
C14 C 0.3505(5) 0.6747(10) 0.9275(5)
C15 C 0.3652(7) 0.7586(12) 0.9844(7)
H7 H 0.3324 0.7749 1.0263
C16 C 0.4343(6) 0.8185(12) 0.9743(6)
H8 H 0.4523 0.8793 1.0078
C17 C 0.4713(5) 0.7768(10) 0.9098(6)
C18 C 0.5485(5) 0.8199(9) 0.8829(5)
C19 C 0.2911(6) 0.3021(11) 0.7298(6)
C20 C 0.3656(5) 0.2420(10) 0.7448(6)
C21 C 0.3899(6) 0.1888(14) 0.8110(7)
H9 H 0.3618 0.1881 0.8578
C22 C 0.4623(6) 0.1330(13) 0.8046(7)
H10 H 0.4871 0.0938 0.8460
C23 C 0.4902(5) 0.1445(9) 0.7304(7)
C24 C 0.5616(5) 0.0938(9) 0.6986(6)
C25 C 0.2789(5) 0.6486(9) 0.5422(6)
C26 C 0.3544(5) 0.6890(10) 0.5734(6)
C27 C 0.3859(7) 0.6644(14) 0.6456(7)
H11 H 0.3628 0.6159 0.6840
C28 C 0.4583(7) 0.7214(14) 0.6560(7)
H12 H 0.4868 0.7172 0.7020
C29 C 0.4789(5) 0.7815(10) 0.5899(6)
C30 C 0.5496(5) 0.8481(10) 0.5753(6)
C31 C 0.7859(5) 0.8109(9) 0.5870(7)
C32 C 0.8598(6) 0.7678(10) 0.5564(6)
C33 C 0.8865(7) 0.7890(14) 0.4822(7)
H13 H 0.8617 0.8344 0.4437
C34 C 0.9587(7) 0.7313(15) 0.4717(8)
H14 H 0.9866 0.7359 0.4250
C35 C 0.9817(5) 0.6705(11) 0.5358(7)
C36 C 1.0531(5) 0.6029(9) 0.5458(7)
C37 C 0.1460(9) 0.1093(14) 0.5826(11)
H15 H 0.0954 0.1313 0.5790
C38 C 0.1090(15) -0.106(3) 0.6064(17)
C39 C 0.2451(19) -0.035(3) 0.610(2)
C40 C 0.1856(12) 0.0975(16) 0.8836(11)
H16 H 0.2373 0.1091 0.8885
C41 C 0.0797(17) -0.033(3) 0.846(2)
C42 C 0.2112(17) -0.126(3) 0.8646(19)
C43 C 0.682(4) 0.561(5) 0.751(3)
H17 H 0.7339 0.5658 0.7535
C44 C 0.585(3) 0.430(5) 0.769(4)
C45 C 0.707(4) 0.346(6) 0.792(4)
C46 C 0.6380(9) 1.3377(14) 0.5411(9)
H18 H 0.5876 1.3156 0.5473
C47 C 0.5972(17) 1.553(3) 0.542(2)
C48 C 0.7393(16) 1.498(3) 0.538(2)
Gd1A Gd 0.17069(2) 0.60445(3) 0.37506(2)
Gd1A_2 Gd 1.17069(2) 0.60445(3) 0.37506(2)
Gd2_2 Gd 1.16906(2) 0.41028(3) 0.59247(2)
Gd2A Gd 0.16906(2) 0.58972(3) 1.09247(2)
Gd3_2 Gd -0.33264(2) 0.03828(3) 0.52550(2)
Gd3_3 Gd 0.66736(2) 0.03828(3) 0.52550(2)
Gd3A Gd 0.66736(2) 0.96172(3) 1.02550(2)
Gd4_2 Gd -0.32513(2) -0.14157(3) 0.73981(2)
Gd4_3 Gd 0.67487(2) -0.14157(3) 0.73981(2)
Gd4A Gd -0.32513(2) 0.14157(3) 0.23981(2)
O3_2 O 0.7714(4) 1.0143(7) 0.7704(4)
O4_2 O 0.7363(4) 1.0503(7) 0.6474(4)
O6A O 0.1023(4) 0.5825(7) 0.8727(5)
O7_2 O 0.7807(4) 1.1049(8) 0.4608(5)
O8A O 0.7343(4) 0.8008(7) 0.8550(5)
O9A O 0.2381(4) 0.4110(7) 0.4743(5)
O11A O 0.5857(5) 1.1230(9) 0.4324(5)
O15_2 O 0.6036(4) 1.0381(6) 0.7498(4)
O16_2 O 0.5753(4) 1.1065(7) 0.6270(5)
O18A O 0.2634(4) 0.3275(7) 0.9729(5)
O23_2 O 0.0644(4) 0.5492(8) 0.6104(5)
O24A O 0.0993(4) 0.4001(7) 0.9902(5)
loop_
_geom_bond_atom_site_label_1
_geom_bond_atom_site_label_2
_geom_bond_site_symmetry_1
_geom_bond_site_symmetry_2
Gd1 O1 1_555 1_555
Gd2 O2 1_555 1_555
Gd3 O20 1_555 1_555
Gd4 O12 1_555 1_555
S1 C2 1_555 1_555
S2 C8 1_555 1_555
S3 C14 1_555 1_555
S4 C20 1_555 1_555
S5 C26 1_555 1_555
S6 C32 1_555 1_555
O1 C1 1_555 1_555
O2 C1 1_555 1_555
O3 C6 1_555 1_555
O4 C6 1_555 1_555
O5 Gd2 1_555 1_555
O6 C7 1_555 1_555
O7 C12 1_555 1_555
O8 C12 1_555 1_555
O9 C13 1_555 1_555
O10 Gd1 1_555 1_555
O11 C18 1_555 1_555
O12 C18 1_555 1_555
O13 Gd1 1_555 1_555
O14 Gd2 1_555 1_555
O15 C24 1_555 1_555
O16 C24 1_555 1_555
O17 Gd2 1_555 1_555
O18 C25 1_555 1_555
O19 Gd4 1_555 1_555
O20 C30 1_555 1_555
O21 Gd4 1_555 1_555
O22 Gd3 1_555 1_555
O23 C36 1_555 1_555
O24 C36 1_555 1_555
O25 Gd1 1_555 1_555
H1 O25 1_555 1_555
H2 O25 1_555 1_555
O26 Gd2 1_555 1_555
O27 Gd1 1_555 1_555
O28 Gd4 1_555 1_555
O29 Gd3 1_555 1_555
O30 Gd3 1_555 1_555
N1 C37 1_555 1_555
N2 C40 1_555 1_555
N3 C43 1_555 1_555
N4 C46 1_555 1_555
C1 C2 1_555 1_555
C2 C3 1_555 1_555
C3 H3 1_555 1_555
C4 C3 1_555 1_555
H4 C4 1_555 1_555
C5 S1 1_555 1_555
C6 C5 1_555 1_555
C7 O5 1_555 1_555
C8 C7 1_555 1_555
C9 C8 1_555 1_555
H5 C9 1_555 1_555
C10 C9 1_555 1_555
H6 C10 1_555 1_555
C11 S2 1_555 1_555
C12 C11 1_555 1_555
C13 O10 1_555 1_555
C14 C13 1_555 1_555
C15 C14 1_555 1_555
H7 C15 1_555 1_555
C16 C15 1_555 1_555
H8 C16 1_555 1_555
C17 S3 1_555 1_555
C18 C17 1_555 1_555
C19 O13 1_555 1_555
C20 C19 1_555 1_555
C21 C20 1_555 1_555
H9 C21 1_555 1_555
C22 C21 1_555 1_555
H10 C22 1_555 1_555
C23 S4 1_555 1_555
C24 C23 1_555 1_555
C25 O17 1_555 1_555
C26 C25 1_555 1_555
C27 C26 1_555 1_555
H11 C27 1_555 1_555
C28 C27 1_555 1_555
H12 C28 1_555 1_555
C29 S5 1_555 1_555
C30 O19 1_555 1_555
C31 O21 1_555 1_555
C32 C31 1_555 1_555
C33 C32 1_555 1_555
H13 C33 1_555 1_555
C34 C33 1_555 1_555
H14 C34 1_555 1_555
C35 S6 1_555 1_555
C36 C35 1_555 1_555
C37 O26 1_555 1_555
H15 C37 1_555 1_555
C38 N1 1_555 1_555
C39 N1 1_555 1_555
C40 O27 1_555 1_555
H16 C40 1_555 1_555
C41 N2 1_555 1_555
C42 N2 1_555 1_555
C43 O28 1_555 1_555
H17 C43 1_555 1_555
C44 N3 1_555 1_555
C45 N3 1_555 1_555
C46 O30 1_555 1_555
H18 C46 1_555 1_555
C47 N4 1_555 1_555
C48 N4 1_555 1_555
Gd1A O6 1_555 1_555
Gd1A_2 O24 1_555 1_555
Gd2_2 O23 1_555 1_555
Gd2A O9 1_555 1_555
Gd3_2 O4 1_555 1_555
Gd3_3 O16 1_555 1_555
Gd3A O11 1_555 1_555
Gd4_2 O3 1_555 1_555
Gd4_3 O15 1_555 1_555
Gd4A O8 1_555 1_555
O3_2 Gd4 1_555 1_555
O4_2 Gd3 1_555 1_555
O6A Gd1 1_555 1_555
O7_2 Gd3 1_555 1_555
O8A Gd4 1_555 1_555
O9A Gd2 1_555 1_555
O11A Gd3 1_555 1_555
O15_2 Gd4 1_555 1_555
O16_2 Gd3 1_555 1_555
O18A Gd1 1_555 1_555
O23_2 Gd2 1_555 1_555
O24A Gd1 1_555 1_555
Gd2 O25 1_555 1_555
Gd4 O4_2 1_555 1_555
O4 Gd4_2 1_555 1_555
O7 Gd3_2 1_555 1_555
O14 C19 1_555 1_555
O18 Gd1A 1_555 1_555
O22 C31 1_555 1_555
C4 C5 1_555 1_555
C10 C11 1_555 1_555
C16 C17 1_555 1_555
C22 C23 1_555 1_555
C28 C29 1_555 1_555
C29 C30 1_555 1_555
C34 C35 1_555 1_555

#END
