
#######################################################################
#
#                 Cambridge Crystallographic Data Centre
#                                CCDC 
#
#######################################################################
#
# If this CIF has been generated from an entry in the Cambridge 
# Structural Database, then it will include bibliographic, chemical, 
# crystal, experimental, refinement or atomic coordinate data resulting 
# from the CCDC's data processing and validation procedures.
#
#######################################################################

data_SISQIW
_symmetry_cell_setting           monoclinic
_symmetry_space_group_name_H-M   'P c'
_symmetry_Int_Tables_number      7
_space_group_name_Hall           'P -2yc'
loop_
_symmetry_equiv_pos_site_id
_symmetry_equiv_pos_as_xyz
1 x,y,z
2 x,-y,1/2+z
_cell_length_a                   17.915(2)
_cell_length_b                   10.9350(12)
_cell_length_c                   16.9530(18)
_cell_angle_alpha                90
_cell_angle_beta                 89.832(2)
_cell_angle_gamma                90
_cell_volume                     3321.09
loop_
_atom_site_label
_atom_site_type_symbol
_atom_site_fract_x
_atom_site_fract_y
_atom_site_fract_z
Nd1 Nd 0.17111(3) 0.39210(4) 0.87626(2)
Nd2 Nd 0.16897(3) 0.41127(4) 0.59108(2)
Nd3 Nd 0.66722(3) 1.04491(4) 0.52727(3)
Nd4 Nd 0.67460(3) 0.86007(3) 0.73850(3)
S1 S -0.08588(15) 0.1631(3) 0.77175(17)
S2 S -0.06963(16) 0.2331(3) 0.44988(18)
S3 S 0.42131(15) 0.6667(3) 0.85580(17)
S4 S 0.42946(15) 0.2260(3) 0.67195(16)
S5 S 0.41229(15) 0.7819(3) 0.51448(18)
S6 S 0.91869(16) 0.6812(3) 0.61033(17)
O1 O 0.0575(4) 0.3238(8) 0.8055(5)
O2 O 0.0894(4) 0.3084(7) 0.6795(5)
O3 O -0.2284(4) 0.0145(8) 0.7750(5)
O4 O -0.2624(4) 0.0520(7) 0.6525(4)
O5 O 0.0776(4) 0.3399(7) 0.4903(5)
O6 O 0.0992(5) 0.4198(8) 0.3728(5)
O7 O -0.2199(5) 0.1149(8) 0.4598(5)
O8 O -0.2647(4) 0.2058(7) 0.3524(4)
O9 O 0.2388(4) 0.5828(6) 0.9698(5)
O10 O 0.2788(5) 0.5315(8) 0.8509(5)
O11 O 0.5877(5) 0.8618(9) 0.9318(5)
O12 O 0.5663(5) 0.7935(8) 0.8123(5)
O13 O 0.2432(4) 0.2863(7) 0.7838(4)
O14 O 0.2808(4) 0.3510(8) 0.6656(5)
O15 O 0.6015(4) 0.0422(7) 0.7507(4)
O16 O 0.5747(4) 0.1157(7) 0.6303(5)
O17 O 0.2417(4) 0.5958(7) 0.5927(5)
O18 O 0.2651(4) 0.6774(7) 0.4743(5)
O19 O 0.6003(4) 0.8579(7) 0.6230(5)
O20 O 0.5541(4) 0.9143(8) 0.5095(5)
O21 O 0.7734(4) 0.7924(7) 0.6548(5)
O22 O 0.7488(5) 0.8732(7) 0.5378(5)
O23 O 1.0623(5) 0.5487(9) 0.6140(5)
O24 O 1.1002(4) 0.5980(7) 0.4958(5)
O25 O 0.1702(5) 0.5169(5) 0.7327(4)
H1 H 0.1270 0.5702 0.7342
H2 H 0.2137 0.5698 0.7332
O26 O 0.1938(5) 0.1892(7) 0.5702(6)
O27 O 0.1475(5) 0.1757(7) 0.8994(7)
O28 O 0.6559(6) 0.6406(8) 0.7202(7)
O29 O 0.6742(5) 0.9266(8) 0.4033(5)
O30 O 0.6860(5) 1.2662(7) 0.5462(5)
N1 N 0.1760(14) -0.0109(18) 0.6005(13)
N2 N 0.1657(10) -0.0202(12) 0.8668(8)
N3 N 0.6578(15) 0.440(2) 0.7591(13)
N4 N 0.6585(11) 1.4671(13) 0.5227(12)
C1 C 0.0441(6) 0.3007(10) 0.7358(6)
C2 C -0.0315(6) 0.2512(11) 0.7138(7)
C3 C -0.0642(7) 0.2750(18) 0.6416(8)
H3 H -0.0444 0.3273 0.6037
C4 C -0.1332(7) 0.2080(14) 0.6331(7)
H4 H -0.1616 0.2088 0.5873
C5 C -0.1519(6) 0.1447(10) 0.6976(6)
C6 C -0.2188(6) 0.0646(9) 0.7099(7)
C7 C 0.0598(6) 0.3647(9) 0.4202(7)
C8 C -0.0138(6) 0.3220(11) 0.3926(6)
C9 C -0.0484(7) 0.3515(16) 0.3238(7)
H5 H -0.0265 0.3994 0.2847
C10 C -0.1210(8) 0.3017(15) 0.3177(8)
H6 H -0.1518 0.3119 0.2741
C11 C -0.1402(6) 0.2372(13) 0.3833(7)
C12 C -0.2138(6) 0.1807(12) 0.4004(6)
C13 C 0.2863(6) 0.5887(8) 0.9153(7)
C14 C 0.3527(6) 0.6640(10) 0.9250(6)
C15 C 0.3687(7) 0.7452(13) 0.9848(7)
H7 H 0.3368 0.7592 1.0273
C16 C 0.4372(7) 0.8047(13) 0.9756(8)
H8 H 0.4561 0.8624 1.0105
C17 C 0.4721(6) 0.7667(10) 0.9092(6)
C18 C 0.5492(6) 0.8112(9) 0.8831(7)
C19 C 0.2909(6) 0.2979(11) 0.7304(7)
C20 C 0.3644(6) 0.2402(12) 0.7455(7)
C21 C 0.3893(7) 0.1919(16) 0.8114(8)
H9 H 0.3627 0.1965 0.8585
C22 C 0.4603(7) 0.1318(14) 0.8058(8)
H10 H 0.4833 0.0883 0.8461
C23 C 0.4884(5) 0.1487(10) 0.7322(7)
C24 C 0.5608(6) 0.0986(10) 0.7020(7)
C25 C 0.2816(6) 0.6541(9) 0.5431(6)
C26 C 0.3565(6) 0.6926(11) 0.5734(6)
C27 C 0.3896(7) 0.6683(12) 0.6425(8)
H11 H 0.3688 0.6184 0.6811
C28 C 0.4594(7) 0.7267(13) 0.6505(8)
H12 H 0.4884 0.7225 0.6959
C29 C 0.4793(6) 0.7880(10) 0.5866(6)
C30 C 0.5479(6) 0.8585(11) 0.5704(7)
C31 C 0.7892(6) 0.8145(9) 0.5857(7)
C32 C 0.8626(5) 0.7716(11) 0.5538(6)
C33 C 0.8902(7) 0.7926(15) 0.4822(7)
H13 H 0.8666 0.8399 0.4441
C34 C 0.9612(7) 0.7330(15) 0.4710(8)
H14 H 0.9884 0.7356 0.4242
C35 C 0.9837(6) 0.6728(10) 0.5365(7)
C36 C 1.0532(6) 0.6032(10) 0.5480(7)
C37 C 0.1485(9) 0.1010(13) 0.5764(9)
H15 H 0.0981 0.1111 0.5650
C38 C 0.1189(13) -0.112(2) 0.6016(16)
C39 C 0.2604(19) -0.018(3) 0.592(3)
C40 C 0.175(2) 0.107(3) 0.8858(19)
H16 H 0.2253 0.1270 0.8840
C41 C 0.0840(16) -0.043(3) 0.8466(19)
C42 C 0.2131(17) -0.130(3) 0.851(2)
C43 C 0.6888(16) 0.556(2) 0.7379(17)
H17 H 0.7406 0.5627 0.7386
C44 C 0.581(2) 0.427(4) 0.755(3)
C45 C 0.686(3) 0.321(4) 0.786(2)
C46 C 0.6425(12) 1.3483(18) 0.5400(13)
H18 H 0.5924 1.3292 0.5479
C47 C 0.6041(18) 1.568(3) 0.516(2)
C48 C 0.7433(16) 1.504(3) 0.520(2)
Nd1A Nd 0.17111(3) 0.60790(4) 0.37626(2)
Nd1A_2 Nd 1.17111(3) 0.60790(4) 0.37626(2)
Nd2_2 Nd 1.16897(3) 0.41127(4) 0.59108(2)
Nd2A Nd 0.16897(3) 0.58873(4) 1.09108(2)
Nd3_2 Nd -0.33278(3) 0.04491(4) 0.52727(3)
Nd3_3 Nd 0.66722(3) 0.04491(4) 0.52727(3)
Nd3A Nd 0.66722(3) 0.95509(4) 1.02727(3)
Nd4_2 Nd -0.32540(3) -0.13993(3) 0.73850(3)
Nd4_3 Nd 0.67460(3) -0.13993(3) 0.73850(3)
Nd4A Nd -0.32540(3) 0.13993(3) 0.23850(3)
O3_2 O 0.7716(4) 1.0145(8) 0.7750(5)
O4_2 O 0.7376(4) 1.0520(7) 0.6525(4)
O6A O 0.0992(5) 0.5802(8) 0.8728(5)
O7_2 O 0.7801(5) 1.1149(8) 0.4598(5)
O8A O 0.7353(4) 0.7942(7) 0.8524(4)
O9A O 0.2388(4) 0.4172(6) 0.4698(5)
O11A O 0.5877(5) 1.1382(9) 0.4318(5)
O15_2 O 0.6015(4) 1.0422(7) 0.7507(4)
O16_2 O 0.5747(4) 1.1157(7) 0.6303(5)
O18A O 0.2651(4) 0.3226(7) 0.9743(5)
O23_2 O 0.0623(5) 0.5487(9) 0.6140(5)
O24_2 O 0.1002(4) 0.5980(7) 0.4958(5)
O24A O 0.1002(4) 0.4020(7) 0.9958(5)
loop_
_geom_bond_atom_site_label_1
_geom_bond_atom_site_label_2
_geom_bond_site_symmetry_1
_geom_bond_site_symmetry_2
Nd1 O1 1_555 1_555
Nd2 O2 1_555 1_555
Nd3 O19 1_555 1_555
Nd4 O12 1_555 1_555
S1 C2 1_555 1_555
S2 C8 1_555 1_555
S3 C14 1_555 1_555
S4 C20 1_555 1_555
S5 C26 1_555 1_555
S6 C32 1_555 1_555
O1 C1 1_555 1_555
O2 C1 1_555 1_555
O3 C6 1_555 1_555
O4 C6 1_555 1_555
O5 Nd2 1_555 1_555
O6 C7 1_555 1_555
O7 C12 1_555 1_555
O8 C12 1_555 1_555
O9 Nd1 1_555 1_555
O10 Nd1 1_555 1_555
O11 C18 1_555 1_555
O12 C18 1_555 1_555
O13 Nd1 1_555 1_555
O14 Nd2 1_555 1_555
O15 C24 1_555 1_555
O16 C24 1_555 1_555
O17 Nd2 1_555 1_555
O18 C25 1_555 1_555
O19 Nd4 1_555 1_555
O20 Nd3 1_555 1_555
O21 Nd4 1_555 1_555
O22 Nd3 1_555 1_555
O23 C36 1_555 1_555
O24 C36 1_555 1_555
O25 Nd1 1_555 1_555
H1 O25 1_555 1_555
H2 O25 1_555 1_555
O26 Nd2 1_555 1_555
O27 Nd1 1_555 1_555
O28 Nd4 1_555 1_555
O29 Nd3 1_555 1_555
O30 Nd3 1_555 1_555
N1 C37 1_555 1_555
N2 C40 1_555 1_555
N3 C43 1_555 1_555
N4 C46 1_555 1_555
C1 C2 1_555 1_555
C2 C3 1_555 1_555
C3 H3 1_555 1_555
C4 C3 1_555 1_555
H4 C4 1_555 1_555
C5 S1 1_555 1_555
C6 C5 1_555 1_555
C7 O5 1_555 1_555
C8 C7 1_555 1_555
C9 C8 1_555 1_555
H5 C9 1_555 1_555
C10 C9 1_555 1_555
H6 C10 1_555 1_555
C11 S2 1_555 1_555
C12 C11 1_555 1_555
C13 O9 1_555 1_555
C14 C13 1_555 1_555
C15 C14 1_555 1_555
H7 C15 1_555 1_555
C16 C15 1_555 1_555
H8 C16 1_555 1_555
C17 S3 1_555 1_555
C18 C17 1_555 1_555
C19 O13 1_555 1_555
C20 C19 1_555 1_555
C21 C20 1_555 1_555
H9 C21 1_555 1_555
C22 C21 1_555 1_555
H10 C22 1_555 1_555
C23 S4 1_555 1_555
C24 C23 1_555 1_555
C25 O17 1_555 1_555
C26 C25 1_555 1_555
C27 C26 1_555 1_555
H11 C27 1_555 1_555
C28 C27 1_555 1_555
H12 C28 1_555 1_555
C29 S5 1_555 1_555
C30 O19 1_555 1_555
C31 O21 1_555 1_555
C32 C31 1_555 1_555
C33 C32 1_555 1_555
H13 C33 1_555 1_555
C34 C33 1_555 1_555
H14 C34 1_555 1_555
C35 S6 1_555 1_555
C36 C35 1_555 1_555
C37 O26 1_555 1_555
H15 C37 1_555 1_555
C38 N1 1_555 1_555
C39 N1 1_555 1_555
C40 O27 1_555 1_555
H16 C40 1_555 1_555
C41 N2 1_555 1_555
C42 N2 1_555 1_555
C43 O28 1_555 1_555
H17 C43 1_555 1_555
C44 N3 1_555 1_555
C45 N3 1_555 1_555
C46 O30 1_555 1_555
H18 C46 1_555 1_555
C47 N4 1_555 1_555
C48 N4 1_555 1_555
Nd1A O6 1_555 1_555
Nd1A_2 O24 1_555 1_555
Nd2_2 O23 1_555 1_555
Nd2A O9 1_555 1_555
Nd3_2 O4 1_555 1_555
Nd3_3 O16 1_555 1_555
Nd3A O11 1_555 1_555
Nd4_2 O3 1_555 1_555
Nd4_3 O15 1_555 1_555
Nd4A O8 1_555 1_555
O3_2 Nd4 1_555 1_555
O4_2 Nd3 1_555 1_555
O6A Nd1 1_555 1_555
O7_2 Nd3 1_555 1_555
O8A Nd4 1_555 1_555
O9A Nd2 1_555 1_555
O11A Nd3 1_555 1_555
O15_2 Nd4 1_555 1_555
O16_2 Nd3 1_555 1_555
O18A Nd1 1_555 1_555
O23_2 Nd2 1_555 1_555
O24_2 Nd2 1_555 1_555
O24A Nd1 1_555 1_555
Nd2 O25 1_555 1_555
Nd4 O4_2 1_555 1_555
O4 Nd4_2 1_555 1_555
O7 Nd3_2 1_555 1_555
O10 C13 1_555 1_555
O14 C19 1_555 1_555
O18 Nd1A 1_555 1_555
O20 C30 1_555 1_555
O22 C31 1_555 1_555
O24 Nd2_2 1_555 1_555
C4 C5 1_555 1_555
C10 C11 1_555 1_555
C16 C17 1_555 1_555
C22 C23 1_555 1_555
C28 C29 1_555 1_555
C29 C30 1_555 1_555
C34 C35 1_555 1_555
Nd1A O9A 1_555 1_555
Nd1A O24_2 1_555 1_555
Nd2A O24A 1_555 1_555

#END
