
#######################################################################
#
#                 Cambridge Crystallographic Data Centre
#                                CCDC 
#
#######################################################################
#
# If this CIF has been generated from an entry in the Cambridge 
# Structural Database, then it will include bibliographic, chemical, 
# crystal, experimental, refinement or atomic coordinate data resulting 
# from the CCDC's data processing and validation procedures.
#
#######################################################################

data_SISQAO
_symmetry_cell_setting           monoclinic
_symmetry_space_group_name_H-M   'P c'
_symmetry_Int_Tables_number      7
_space_group_name_Hall           'P -2yc'
loop_
_symmetry_equiv_pos_site_id
_symmetry_equiv_pos_as_xyz
1 x,y,z
2 x,-y,1/2+z
_cell_length_a                   17.775(3)
_cell_length_b                   10.9268(18)
_cell_length_c                   16.874(3)
_cell_angle_alpha                90
_cell_angle_beta                 90.211(2)
_cell_angle_gamma                90
_cell_volume                     3277.31
loop_
_atom_site_label
_atom_site_type_symbol
_atom_site_fract_x
_atom_site_fract_y
_atom_site_fract_z
Eu1 Eu 0.17074(3) 0.39600(4) 0.87533(2)
Eu2 Eu 0.16914(3) 0.40935(4) 0.59224(2)
Eu3 Eu 0.66763(3) 1.03898(4) 0.52620(3)
Eu4 Eu 0.67440(3) 0.85878(4) 0.73915(3)
S1 S -0.08538(19) 0.1618(4) 0.7703(2)
S2 S -0.06773(18) 0.2277(4) 0.4516(2)
S3 S 0.42156(17) 0.6699(3) 0.85704(19)
S4 S 0.43046(19) 0.2259(4) 0.6704(2)
S5 S 0.41234(19) 0.7772(3) 0.5151(2)
S6 S 0.91828(19) 0.6778(3) 0.6104(2)
O1 O 0.0580(6) 0.3298(12) 0.8043(6)
O2 O 0.0893(5) 0.3086(9) 0.6793(6)
O3 O -0.2289(6) 0.0128(10) 0.7724(7)
O4 O -0.2629(5) 0.0514(9) 0.6488(6)
O5 O 0.0779(5) 0.3397(9) 0.4941(5)
O6 O 0.1023(5) 0.4163(9) 0.3737(6)
O7 O -0.2189(5) 0.1071(9) 0.4591(7)
O8 O -0.2648(5) 0.2011(10) 0.3536(6)
O9 O 0.2387(5) 0.5877(9) 0.9744(7)
O10 O 0.2766(5) 0.5360(9) 0.8548(6)
O11 O 0.5888(7) 0.8746(14) 0.9308(8)
O12 O 0.5674(5) 0.7971(10) 0.8125(6)
O13 O 0.2436(5) 0.2928(9) 0.7862(6)
O14 O 0.2807(5) 0.3526(10) 0.6644(6)
O15 O 0.6028(5) 0.0404(8) 0.7506(6)
O16 O 0.5744(6) 0.1081(10) 0.6285(7)
O17 O 0.2391(5) 0.5938(8) 0.5925(6)
O18 O 0.2625(5) 0.6737(9) 0.4734(6)
O19 O 0.6002(6) 0.8489(10) 0.6274(7)
O20 O 0.5588(6) 0.9079(9) 0.5107(7)
O21 O 0.7732(6) 0.7918(9) 0.6569(6)
O22 O 0.7475(6) 0.8688(10) 0.5373(7)
O23 O 1.0643(6) 0.5479(11) 0.6123(6)
O24 O 1.1003(5) 0.5996(9) 0.4912(6)
O25 O 0.1697(6) 0.5142(6) 0.7305(5)
H1 H 0.1259 0.5673 0.7311
H2 H 0.2132 0.5678 0.7309
O26 O 0.1940(7) 0.1899(9) 0.5741(8)
O27 O 0.1506(6) 0.1796(10) 0.8968(7)
O28 O 0.6605(11) 0.6416(10) 0.7308(12)
O29 O 0.6741(8) 0.9196(8) 0.3997(5)
O30 O 0.6858(6) 1.2578(8) 0.5436(7)
N1 N 0.1605(14) -0.0069(16) 0.5967(11)
N2 N 0.1604(13) -0.0150(16) 0.8642(11)
N3 N 0.654(2) 0.444(3) 0.7739(19)
N4 N 0.6547(13) 1.4606(18) 0.5345(15)
C1 C 0.0448(8) 0.3027(14) 0.7373(8)
C2 C -0.0326(7) 0.2573(13) 0.7146(9)
C3 C -0.0676(9) 0.2869(18) 0.6424(10)
H3 H -0.0493 0.3434 0.6059
C4 C -0.1362(9) 0.2168(16) 0.6329(9)
H4 H -0.1655 0.2180 0.5871
C5 C -0.1532(7) 0.1490(14) 0.6980(10)
C6 C -0.2202(8) 0.0658(14) 0.7078(9)
C7 C 0.0616(7) 0.3655(12) 0.4208(8)
C8 C -0.0126(7) 0.3190(13) 0.3928(8)
C9 C -0.0465(9) 0.346(2) 0.3250(10)
H5 H -0.0244 0.3950 0.2863
C10 C -0.1190(11) 0.295(2) 0.3166(11)
H6 H -0.1494 0.3033 0.2720
C11 C -0.1388(8) 0.2296(14) 0.3850(8)
C12 C -0.2120(8) 0.1692(15) 0.4024(8)
C13 C 0.2843(7) 0.5901(11) 0.9173(8)
C14 C 0.3512(6) 0.6720(12) 0.9266(7)
C15 C 0.3659(9) 0.7568(16) 0.9833(9)
H7 H 0.3326 0.7749 1.0241
C16 C 0.4366(9) 0.8151(15) 0.9747(9)
H8 H 0.4558 0.8734 1.0095
C17 C 0.4722(8) 0.7749(15) 0.9093(8)
C18 C 0.5483(7) 0.8176(12) 0.8831(7)
C19 C 0.2926(7) 0.3050(15) 0.7298(8)
C20 C 0.3672(7) 0.2428(13) 0.7466(8)
C21 C 0.3898(8) 0.1916(19) 0.8123(9)
H9 H 0.3626 0.1937 0.8593
C22 C 0.4619(8) 0.1311(18) 0.8042(10)
H10 H 0.4861 0.0877 0.8443
C23 C 0.4892(7) 0.1464(14) 0.7301(10)
C24 C 0.5610(8) 0.0948(13) 0.6993(8)
C25 C 0.2794(8) 0.6516(11) 0.5434(9)
C26 C 0.3550(7) 0.6896(12) 0.5736(8)
C27 C 0.3861(9) 0.6649(17) 0.6437(10)
H11 H 0.3633 0.6168 0.6822
C28 C 0.4598(8) 0.7215(18) 0.6535(10)
H12 H 0.4896 0.7150 0.6988
C29 C 0.4786(7) 0.7833(13) 0.5892(8)
C30 C 0.5506(7) 0.8485(13) 0.5746(8)
C31 C 0.7878(7) 0.8133(13) 0.5867(9)
C32 C 0.8608(7) 0.7679(13) 0.5552(8)
C33 C 0.8894(10) 0.790(2) 0.4815(9)
H13 H 0.8649 0.8340 0.4419
C34 C 0.9619(9) 0.7363(18) 0.4740(11)
H14 H 0.9919 0.7453 0.4294
C35 C 0.9821(7) 0.6726(14) 0.5364(9)
C36 C 1.0533(7) 0.6046(12) 0.5447(8)
C37 C 0.1461(13) 0.1082(19) 0.5860(16)
H15 H 0.0959 0.1320 0.5872
C38 C 0.113(2) -0.108(4) 0.604(2)
C39 C 0.252(2) -0.023(4) 0.620(3)
C40 C 0.1838(14) 0.0985(18) 0.8888(12)
H16 H 0.2349 0.1063 0.8998
C41 C 0.075(2) -0.038(5) 0.876(3)
C42 C 0.214(2) -0.120(4) 0.861(3)
C43 C 0.686(4) 0.561(5) 0.753(3)
H17 H 0.7373 0.5664 0.7608
C44 C 0.581(3) 0.433(6) 0.785(4)
C45 C 0.692(5) 0.334(6) 0.785(6)
C46 C 0.6419(12) 1.3395(18) 0.5417(12)
H18 H 0.5916 1.3169 0.5459
C47 C 0.600(2) 1.561(4) 0.534(3)
C48 C 0.741(2) 1.504(4) 0.538(3)
Eu1A Eu 0.17074(3) 0.60400(4) 0.37533(2)
Eu1A_2 Eu 1.17074(3) 0.60400(4) 0.37533(2)
Eu2_2 Eu 1.16914(3) 0.40935(4) 0.59224(2)
Eu2A Eu 0.16914(3) 0.59065(4) 1.09224(2)
Eu3_2 Eu -0.33237(3) 0.03898(4) 0.52620(3)
Eu3_3 Eu 0.66763(3) 0.03898(4) 0.52620(3)
Eu3A Eu 0.66763(3) 0.96102(4) 1.02620(3)
Eu4_2 Eu -0.32560(3) -0.14122(4) 0.73915(3)
Eu4_3 Eu 0.67440(3) -0.14122(4) 0.73915(3)
Eu4A Eu -0.32560(3) 0.14122(4) 0.23915(3)
O3_2 O 0.7711(6) 1.0128(10) 0.7724(7)
O4_2 O 0.7371(5) 1.0514(9) 0.6488(6)
O6A O 0.1023(5) 0.5837(9) 0.8737(6)
O7_2 O 0.7811(5) 1.1071(9) 0.4591(7)
O8A O 0.7352(5) 0.7989(10) 0.8536(6)
O9A O 0.2387(5) 0.4123(9) 0.4744(7)
O11A O 0.5888(7) 1.1254(14) 0.4308(8)
O15_2 O 0.6028(5) 1.0404(8) 0.7506(6)
O16_2 O 0.5744(6) 1.1081(10) 0.6285(7)
O18A O 0.2625(5) 0.3263(9) 0.9734(6)
O23_2 O 0.0643(6) 0.5479(11) 0.6123(6)
O24A O 0.1003(5) 0.4004(9) 0.9912(6)
loop_
_geom_bond_atom_site_label_1
_geom_bond_atom_site_label_2
_geom_bond_site_symmetry_1
_geom_bond_site_symmetry_2
Eu1 O1 1_555 1_555
Eu2 O2 1_555 1_555
Eu3 O20 1_555 1_555
Eu4 O12 1_555 1_555
S1 C2 1_555 1_555
S2 C8 1_555 1_555
S3 C14 1_555 1_555
S4 C20 1_555 1_555
S5 C26 1_555 1_555
S6 C32 1_555 1_555
O1 C1 1_555 1_555
O2 C1 1_555 1_555
O3 C6 1_555 1_555
O4 C6 1_555 1_555
O5 Eu2 1_555 1_555
O6 C7 1_555 1_555
O7 C12 1_555 1_555
O8 C12 1_555 1_555
O9 C13 1_555 1_555
O10 Eu1 1_555 1_555
O11 C18 1_555 1_555
O12 C18 1_555 1_555
O13 Eu1 1_555 1_555
O14 Eu2 1_555 1_555
O15 C24 1_555 1_555
O16 C24 1_555 1_555
O17 Eu2 1_555 1_555
O18 C25 1_555 1_555
O19 Eu4 1_555 1_555
O20 C30 1_555 1_555
O21 Eu4 1_555 1_555
O22 Eu3 1_555 1_555
O23 C36 1_555 1_555
O24 C36 1_555 1_555
O25 Eu1 1_555 1_555
H1 O25 1_555 1_555
H2 O25 1_555 1_555
O26 Eu2 1_555 1_555
O27 Eu1 1_555 1_555
O28 Eu4 1_555 1_555
O29 Eu3 1_555 1_555
O30 Eu3 1_555 1_555
N1 C37 1_555 1_555
N2 C40 1_555 1_555
N3 C43 1_555 1_555
N4 C46 1_555 1_555
C1 C2 1_555 1_555
C2 C3 1_555 1_555
C3 H3 1_555 1_555
C4 C3 1_555 1_555
H4 C4 1_555 1_555
C5 S1 1_555 1_555
C6 C5 1_555 1_555
C7 O5 1_555 1_555
C8 C7 1_555 1_555
C9 C8 1_555 1_555
H5 C9 1_555 1_555
C10 C9 1_555 1_555
H6 C10 1_555 1_555
C11 S2 1_555 1_555
C12 C11 1_555 1_555
C13 O10 1_555 1_555
C14 C13 1_555 1_555
C15 C14 1_555 1_555
H7 C15 1_555 1_555
C16 C15 1_555 1_555
H8 C16 1_555 1_555
C17 S3 1_555 1_555
C18 C17 1_555 1_555
C19 O13 1_555 1_555
C20 C19 1_555 1_555
C21 C20 1_555 1_555
H9 C21 1_555 1_555
C22 C21 1_555 1_555
H10 C22 1_555 1_555
C23 S4 1_555 1_555
C24 C23 1_555 1_555
C25 O17 1_555 1_555
C26 C25 1_555 1_555
C27 C26 1_555 1_555
H11 C27 1_555 1_555
C28 C27 1_555 1_555
H12 C28 1_555 1_555
C29 S5 1_555 1_555
C30 O19 1_555 1_555
C31 O21 1_555 1_555
C32 C31 1_555 1_555
C33 C32 1_555 1_555
H13 C33 1_555 1_555
C34 C33 1_555 1_555
H14 C34 1_555 1_555
C35 S6 1_555 1_555
C36 C35 1_555 1_555
C37 O26 1_555 1_555
H15 C37 1_555 1_555
C38 N1 1_555 1_555
C39 N1 1_555 1_555
C40 O27 1_555 1_555
H16 C40 1_555 1_555
C41 N2 1_555 1_555
C42 N2 1_555 1_555
C43 O28 1_555 1_555
H17 C43 1_555 1_555
C44 N3 1_555 1_555
C45 N3 1_555 1_555
C46 O30 1_555 1_555
H18 C46 1_555 1_555
C47 N4 1_555 1_555
C48 N4 1_555 1_555
Eu1A O6 1_555 1_555
Eu1A_2 O24 1_555 1_555
Eu2_2 O23 1_555 1_555
Eu2A O9 1_555 1_555
Eu3_2 O4 1_555 1_555
Eu3_3 O16 1_555 1_555
Eu3A O11 1_555 1_555
Eu4_2 O3 1_555 1_555
Eu4_3 O15 1_555 1_555
Eu4A O8 1_555 1_555
O3_2 Eu4 1_555 1_555
O4_2 Eu3 1_555 1_555
O6A Eu1 1_555 1_555
O7_2 Eu3 1_555 1_555
O8A Eu4 1_555 1_555
O9A Eu2 1_555 1_555
O11A Eu3 1_555 1_555
O15_2 Eu4 1_555 1_555
O16_2 Eu3 1_555 1_555
O18A Eu1 1_555 1_555
O23_2 Eu2 1_555 1_555
O24A Eu1 1_555 1_555
Eu2 O25 1_555 1_555
Eu4 O4_2 1_555 1_555
O4 Eu4_2 1_555 1_555
O7 Eu3_2 1_555 1_555
O14 C19 1_555 1_555
O18 Eu1A 1_555 1_555
O22 C31 1_555 1_555
C4 C5 1_555 1_555
C10 C11 1_555 1_555
C16 C17 1_555 1_555
C22 C23 1_555 1_555
C28 C29 1_555 1_555
C29 C30 1_555 1_555
C34 C35 1_555 1_555

#END
