
#######################################################################
#
#                 Cambridge Crystallographic Data Centre
#                                CCDC 
#
#######################################################################
#
# If this CIF has been generated from an entry in the Cambridge 
# Structural Database, then it will include bibliographic, chemical, 
# crystal, experimental, refinement or atomic coordinate data resulting 
# from the CCDC's data processing and validation procedures.
#
#######################################################################

data_SISRAO
_symmetry_cell_setting           monoclinic
_symmetry_space_group_name_H-M   'C 2/c'
_symmetry_Int_Tables_number      15
_space_group_name_Hall           '-C 2yn'
loop_
_symmetry_equiv_pos_site_id
_symmetry_equiv_pos_as_xyz
1 x,y,z
2 1/2+x,1/2+y,z
3 -x,y,1/2-z
4 1/2-x,1/2+y,1/2-z
5 -x,-y,-z
6 1/2-x,1/2-y,-z
7 x,-y,1/2+z
8 1/2+x,1/2-y,1/2+z
_cell_length_a                   9.1109(5)
_cell_length_b                   19.9089(13)
_cell_length_c                   10.1368(6)
_cell_angle_alpha                90
_cell_angle_beta                 108.678(2)
_cell_angle_gamma                90
_cell_volume                     1741.86
loop_
_atom_site_label
_atom_site_type_symbol
_atom_site_fract_x
_atom_site_fract_y
_atom_site_fract_z
Pr1 Pr 0.5000 -0.012395(5) 0.2500
O3 O 0.39135(13) 0.06627(5) 0.36985(12)
C1 C 0.40734(16) 0.11272(7) 0.45737(16)
O4 O 0.44092(14) 0.10463(6) 0.58607(11)
C2 C 0.38487(16) 0.18393(7) 0.40309(15)
C3 C 0.32343(18) 0.19666(8) 0.26097(16)
H1 H 0.2965 0.1608 0.1957
C4 C 0.30254(18) 0.26290(8) 0.21697(17)
H2 H 0.2592 0.2716 0.1200
N2 N 0.34031(16) 0.31529(7) 0.30399(15)
C5 C 0.40173(19) 0.30271(8) 0.44037(17)
H3 H 0.4307 0.3396 0.5029
C6 C 0.42480(18) 0.23791(7) 0.49424(16)
H4 H 0.4672 0.2307 0.5918
O5 O 0.24809(14) -0.05803(6) 0.27406(12)
O6 O 0.71822(14) 0.04409(6) 0.43941(12)
H5 H 0.179(3) -0.0353(13) 0.243(3)
H6 H 0.227(3) -0.0982(14) 0.252(3)
H7 H 0.727(3) 0.0448(14) 0.524(3)
H8 H 0.801(4) 0.0439(14) 0.430(3)
Pr1F Pr 0.5000 0.012395(5) 0.7500
Pr1F_2 Pr 0.5000 0.012395(5) -0.2500
O3B O 0.60865(13) 0.06627(5) 0.13015(12)
C1B C 0.59266(16) 0.11272(7) 0.04263(16)
O4B O 0.55908(14) 0.10463(6) -0.08607(11)
O4F O 0.44092(14) -0.10463(6) 0.08607(11)
O4D O 0.55908(14) -0.10463(6) 0.41393(11)
C2B C 0.61513(16) 0.18393(7) 0.09691(15)
C3B C 0.67657(18) 0.19666(8) 0.23903(16)
H1B H 0.7035 0.1608 0.3043
C4B C 0.69746(18) 0.26290(8) 0.28303(17)
H2B H 0.7408 0.2716 0.3800
N2B N 0.65969(16) 0.31529(7) 0.19601(15)
C5B C 0.59827(19) 0.30271(8) 0.05963(17)
H3B H 0.5693 0.3396 -0.0029
C6B C 0.57520(18) 0.23791(7) 0.00576(16)
H4B H 0.5328 0.2307 -0.0918
O5B O 0.75191(14) -0.05803(6) 0.22594(12)
O6B O 0.28178(14) 0.04409(6) 0.06059(12)
H5B H 0.821(3) -0.0353(13) 0.257(3)
H6B H 0.773(3) -0.0982(14) 0.248(3)
H7B H 0.273(3) 0.0448(14) -0.024(3)
H8B H 0.199(4) 0.0439(14) 0.070(3)
O1 O 0.01591(14) 0.03533(7) 0.14836(13)
N1 N 0.0000 0.06803(10) 0.2500
O2 O 0.0000 0.12965(9) 0.2500
O1B O -0.01591(14) 0.03533(7) 0.35164(13)
loop_
_geom_bond_atom_site_label_1
_geom_bond_atom_site_label_2
_geom_bond_site_symmetry_1
_geom_bond_site_symmetry_2
Pr1 O3 1_555 1_555
O1 N1 1_555 1_555
N1 O2 1_555 1_555
O3 C1 1_555 1_555
C1 O4 1_555 1_555
O4 Pr1F 1_555 1_555
C2 C1 1_555 1_555
C3 C2 1_555 1_555
H1 C3 1_555 1_555
C4 C3 1_555 1_555
H2 C4 1_555 1_555
N2 C4 1_555 1_555
C5 N2 1_555 1_555
H3 C5 1_555 1_555
C6 C2 1_555 1_555
H4 C6 1_555 1_555
O5 Pr1 1_555 1_555
O6 Pr1 1_555 1_555
H5 O5 1_555 1_555
H6 O5 1_555 1_555
H7 O6 1_555 1_555
H8 O6 1_555 1_555
Pr1F_2 O4B 1_555 1_555
O1B N1 1_555 1_555
O3B Pr1 1_555 1_555
C1B O3B 1_555 1_555
O4B C1B 1_555 1_555
O4F Pr1 1_555 1_555
O4D Pr1 1_555 1_555
C2B C1B 1_555 1_555
C3B C2B 1_555 1_555
H1B C3B 1_555 1_555
C4B C3B 1_555 1_555
H2B C4B 1_555 1_555
N2B C4B 1_555 1_555
C5B N2B 1_555 1_555
H3B C5B 1_555 1_555
C6B C2B 1_555 1_555
H4B C6B 1_555 1_555
O5B Pr1 1_555 1_555
O6B Pr1 1_555 1_555
H5B O5B 1_555 1_555
H6B O5B 1_555 1_555
H7B O6B 1_555 1_555
H8B O6B 1_555 1_555
C5 C6 1_555 1_555
C5B C6B 1_555 1_555

#END
