
#######################################################################
#
#                 Cambridge Crystallographic Data Centre
#                                CCDC 
#
#######################################################################
#
# If this CIF has been generated from an entry in the Cambridge 
# Structural Database, then it will include bibliographic, chemical, 
# crystal, experimental, refinement or atomic coordinate data resulting 
# from the CCDC's data processing and validation procedures.
#
#######################################################################

data_SISWUO
_symmetry_cell_setting           monoclinic
_symmetry_space_group_name_H-M   'P 21/c'
_symmetry_Int_Tables_number      14
_space_group_name_Hall           '-P 2ybc'
loop_
_symmetry_equiv_pos_site_id
_symmetry_equiv_pos_as_xyz
1 x,y,z
2 -x,1/2+y,1/2-z
3 -x,-y,-z
4 x,1/2-y,1/2+z
_cell_length_a                   19.061(4)
_cell_length_b                   12.717(3)
_cell_length_c                   15.548(3)
_cell_angle_alpha                90
_cell_angle_beta                 95.24(3)
_cell_angle_gamma                90
_cell_volume                     3753.07
loop_
_atom_site_label
_atom_site_type_symbol
_atom_site_fract_x
_atom_site_fract_y
_atom_site_fract_z
Cd1 Cd 0.36933(2) 0.47470(2) 0.84754(2)
Cd2 Cd 0.12783(2) 0.03163(2) 1.15440(2)
C1 C 0.26049(13) 0.38390(18) 0.99525(16)
C2 C 0.15967(13) 0.6266(2) 1.13646(16)
H1 H 0.1733 0.6981 1.1315
C3 C 0.12310(14) 0.1145(2) 1.34806(17)
C4 C 0.44746(12) 0.08622(19) 0.90068(15)
C5 C 0.06886(13) 0.68048(19) 1.23421(16)
C6 C 0.42021(13) -0.09039(19) 0.94510(15)
H2 H 0.4281 -0.1640 0.9419
C7 C 0.27567(14) -0.0846(2) 1.09516(17)
N1 N 0.16032(11) 0.08888(17) 1.29767(14)
C8 C 0.17496(13) 0.44377(19) 1.09867(16)
C9 C 0.45747(13) -0.02397(18) 0.89781(16)
H3 H 0.4908 -0.0521 0.8622
C10 C 0.33525(13) 0.2654(2) 0.72815(16)
C11 C 0.40325(15) 0.1547(2) 0.64336(17)
N2 N 0.32417(11) 0.35160(18) 0.74702(14)
N3 N 0.46527(11) 0.35413(18) 0.85722(14)
C12 C 0.48570(12) 0.15503(19) 0.84921(15)
C13 C 0.03781(13) 0.0737(2) 1.45331(15)
N4 N 0.17861(11) 0.17288(17) 1.09082(14)
C14 C 0.47622(13) 0.2651(2) 0.85185(16)
C15 C 0.08791(13) 0.4939(2) 1.19580(16)
H4 H 0.0522 0.4739 1.2314
C16 C 0.20933(12) 0.36190(19) 1.05318(15)
N5 N 0.30177(11) 0.40257(16) 0.94768(14)
C17 C 0.35245(13) 0.16156(19) 0.70515(16)
C18 C 0.34360(13) -0.2306(2) 1.05072(16)
N6 N 0.09538(11) 0.87674(17) 1.21660(14)
C19 C 0.39857(13) 0.1252(2) 0.95644(16)
H5 H 0.3918 0.1989 0.9608
C20 C 0.24373(14) -0.0075(2) 0.83642(16)
H6 H 0.2075 0.0004 0.8741
C21 C 0.19443(13) 0.2563(2) 1.07079(16)
C22 C 0.32413(13) 0.0710(2) 0.74218(16)
C23 C 0.07463(13) 0.1467(2) 1.40687(16)
C24 C 0.34817(14) -0.03155(19) 0.72352(16)
H7 H 0.3831 -0.0399 0.6843
C25 C 0.06461(13) 0.2576(2) 1.41147(16)
C26 C 0.36976(13) -0.0518(2) 0.99914(15)
C27 C 0.32987(13) -0.12116(19) 1.04675(16)
C28 C 0.05277(13) -0.0364(2) 1.45084(16)
H8 H 0.0887 -0.0608 1.4173
C29 C 0.32198(13) -0.1178(2) 0.76089(16)
H9 H 0.3393 -0.1854 0.7475
C30 C 0.08317(13) 0.7883(2) 1.22540(15)
C31 C -0.01672(13) 0.1068(2) 1.50461(16)
H10 H -0.0279 0.1794 1.5075
C32 C 0.27032(14) 0.0795(2) 0.79939(16)
H11 H 0.2525 0.1470 0.8121
C33 C 0.01717(14) 0.65215(19) 1.28886(17)
C34 C 0.26953(13) -0.1095(2) 0.81935(16)
C35 C 0.19304(13) 0.55060(19) 1.09234(16)
H12 H 0.2289 0.5705 1.0570
N7 N 0.23137(12) -0.05353(17) 1.13336(15)
C36 C 0.10549(12) 0.60086(19) 1.18912(15)
C37 C 0.12137(12) 0.41796(19) 1.15189(15)
H13 H 0.1081 0.3464 1.1575
C38 C 0.36125(13) 0.0590(2) 1.00371(16)
H14 H 0.3289 0.0874 1.0405
N8 N 0.05829(13) 0.3473(2) 1.41394(15)
N9 N 0.44436(13) 0.15188(18) 0.59354(16)
O1 O 0.43357(13) 0.54826(17) 0.95946(15)
O2 O 0.07558(12) -0.02389(19) 1.02719(14)
N10 N 0.35584(12) -0.31940(18) 1.05510(15)
N11 N 0.57161(11) 0.07214(17) 0.75093(14)
N12 N 0.29315(12) -0.38476(18) 0.83673(15)
N13 N -0.02475(12) 0.62429(17) 1.33312(14)
C39 C 0.24295(13) -0.2002(2) 0.85900(16)
C40 C 0.53349(13) 0.11289(19) 0.79396(16)
C41 C 0.18662(14) -0.19737(19) 0.91245(17)
C42 C 0.27064(13) -0.3018(2) 0.84634(16)
N14 N 0.14047(12) -0.19696(18) 0.95605(15)
H15 H 0.0899(19) -0.071(3) 1.008(2)
H16 H 0.4127(19) 0.578(3) 0.992(2)
H17 H 0.067(2) 0.018(3) 0.985(3)
H18 H 0.467(2) 0.578(3) 0.952(2)
C3B C -0.12310(14) -0.1145(2) 1.65194(17)
N1B N -0.16032(11) -0.08888(17) 1.70233(14)
C13B C -0.03781(13) -0.0737(2) 1.54669(15)
C23B C -0.07463(13) -0.1467(2) 1.59313(16)
C25B C -0.06461(13) -0.2576(2) 1.58853(16)
C28B C -0.05277(13) 0.0364(2) 1.54916(16)
H8B H -0.0887 0.0608 1.5827
C31B C 0.01672(13) -0.1068(2) 1.49539(16)
H10B H 0.0279 -0.1794 1.4925
N8B N -0.05829(13) -0.3473(2) 1.58606(15)
Cd1B Cd -0.36933(2) -0.47470(2) 2.15246(2)
Cd2B Cd -0.12783(2) -0.03163(2) 1.84560(2)
C1B C -0.26049(13) -0.38390(18) 2.00475(16)
C2B C -0.15967(13) -0.6266(2) 1.86354(16)
H1B H -0.1733 -0.6981 1.8685
C4B C -0.44746(12) -0.08622(19) 2.09932(15)
C5B C -0.06886(13) -0.68048(19) 1.76579(16)
C6B C -0.42021(13) 0.09039(19) 2.05490(15)
H2B H -0.4281 0.1640 2.0581
C7B C -0.27567(14) 0.0846(2) 1.90484(17)
C8B C -0.17496(13) -0.44377(19) 1.90133(16)
C9B C -0.45747(13) 0.02397(18) 2.10219(16)
H3B H -0.4908 0.0521 2.1378
C10B C -0.33525(13) -0.2654(2) 2.27185(16)
C11B C -0.40325(15) -0.1547(2) 2.35664(17)
N2B N -0.32417(11) -0.35160(18) 2.25298(14)
N3B N -0.46527(11) -0.35413(18) 2.14278(14)
C12B C -0.48570(12) -0.15503(19) 2.15079(15)
N4B N -0.17861(11) -0.17288(17) 1.90918(14)
C14B C -0.47622(13) -0.2651(2) 2.14815(16)
C15B C -0.08791(13) -0.4939(2) 1.80420(16)
H4B H -0.0522 -0.4739 1.7686
C16B C -0.20933(12) -0.36190(19) 1.94682(15)
N5B N -0.30177(11) -0.40257(16) 2.05232(14)
C17B C -0.35245(13) -0.16156(19) 2.29485(16)
C18B C -0.34360(13) 0.2306(2) 1.94928(16)
N6B N -0.09538(11) -0.87674(17) 1.78340(14)
C19B C -0.39857(13) -0.1252(2) 2.04356(16)
H5B H -0.3918 -0.1989 2.0392
C20B C -0.24373(14) 0.0075(2) 2.16358(16)
H6B H -0.2075 -0.0004 2.1259
C21B C -0.19443(13) -0.2563(2) 1.92921(16)
C22B C -0.32413(13) -0.0710(2) 2.25782(16)
C24B C -0.34817(14) 0.03155(19) 2.27648(16)
H7B H -0.3831 0.0399 2.3157
C26B C -0.36976(13) 0.0518(2) 2.00086(15)
C27B C -0.32987(13) 0.12116(19) 1.95325(16)
C29B C -0.32198(13) 0.1178(2) 2.23911(16)
H9B H -0.3393 0.1854 2.2525
C30B C -0.08317(13) -0.7883(2) 1.77460(15)
C32B C -0.27032(14) -0.0795(2) 2.20061(16)
H11B H -0.2525 -0.1470 2.1879
C33B C -0.01717(14) -0.65215(19) 1.71114(17)
C34B C -0.26953(13) 0.1095(2) 2.18065(16)
C35B C -0.19304(13) -0.55060(19) 1.90766(16)
H12B H -0.2289 -0.5705 1.9430
N7B N -0.23137(12) 0.05353(17) 1.86664(15)
C36B C -0.10549(12) -0.60086(19) 1.81088(15)
C37B C -0.12137(12) -0.41796(19) 1.84811(15)
H13B H -0.1081 -0.3464 1.8425
C38B C -0.36125(13) -0.0590(2) 1.99629(16)
H14B H -0.3289 -0.0874 1.9595
N9B N -0.44436(13) -0.15188(18) 2.40646(16)
O1B O -0.43357(13) -0.54826(17) 2.04054(15)
O2B O -0.07558(12) 0.02389(19) 1.97281(14)
N10B N -0.35584(12) 0.31940(18) 1.94490(15)
N11B N -0.57161(11) -0.07214(17) 2.24907(14)
N12B N -0.29315(12) 0.38476(18) 2.16327(15)
N13B N 0.02475(12) -0.62429(17) 1.66688(14)
C39B C -0.24295(13) 0.2002(2) 2.14100(16)
C40B C -0.53349(13) -0.11289(19) 2.20604(16)
C41B C -0.18662(14) 0.19737(19) 2.08755(17)
C42B C -0.27064(13) 0.3018(2) 2.15366(16)
N14B N -0.14047(12) 0.19696(18) 2.04395(15)
H15B H -0.0899(19) 0.071(3) 1.992(2)
H16B H -0.4127(19) -0.578(3) 2.008(2)
H17B H -0.067(2) -0.018(3) 2.015(3)
H18B H -0.467(2) -0.578(3) 2.048(2)
Cd1_2 Cd 0.36933(2) -0.52530(2) 0.84754(2)
Cd1A Cd 0.63067(2) -0.02530(2) 0.65246(2)
Cd1B_2 Cd -0.36933(2) 0.52530(2) 2.15246(2)
Cd1C Cd -0.63067(2) 0.02530(2) 2.34754(2)
Cd2_2 Cd 0.12783(2) 1.03163(2) 1.15440(2)
Cd2A Cd -0.12783(2) 0.53163(2) 1.34560(2)
Cd2B_2 Cd -0.12783(2) -1.03163(2) 1.84560(2)
Cd2C Cd 0.12783(2) -0.53163(2) 1.65440(2)
N6_2 N 0.09538(11) -0.12326(17) 1.21660(14)
N6B_2 N -0.09538(11) 0.12326(17) 1.78340(14)
N11A N 0.42839(11) 0.57214(17) 0.74907(14)
N11C N -0.42839(11) -0.57214(17) 2.25093(14)
N12_2 N 0.29315(12) 0.61524(18) 0.83673(15)
N12B_2 N -0.29315(12) -0.61524(18) 2.16327(15)
N13A N 0.02475(12) 0.12429(17) 1.16688(14)
N13C N -0.02475(12) -0.12429(17) 1.83312(14)
loop_
_geom_bond_atom_site_label_1
_geom_bond_atom_site_label_2
_geom_bond_site_symmetry_1
_geom_bond_site_symmetry_2
Cd1 N2 1_555 1_555
Cd2 N1 1_555 1_555
C1 C16 1_555 1_555
C2 H1 1_555 1_555
C3 N1 1_555 1_555
C4 C9 1_555 1_555
C5 C30 1_555 1_555
C6 H2 1_555 1_555
C7 C27 1_555 1_555
C8 C16 1_555 1_555
C9 C6 1_555 1_555
H3 C9 1_555 1_555
C10 N2 1_555 1_555
C11 C17 1_555 1_555
N3 Cd1 1_555 1_555
C12 C4 1_555 1_555
C13 C23 1_555 1_555
N4 Cd2 1_555 1_555
C14 N3 1_555 1_555
C15 H4 1_555 1_555
C16 C21 1_555 1_555
N5 Cd1 1_555 1_555
C17 C10 1_555 1_555
C18 C27 1_555 1_555
N6 C30 1_555 1_555
C19 C4 1_555 1_555
H5 C19 1_555 1_555
C20 H6 1_555 1_555
C21 N4 1_555 1_555
C22 C17 1_555 1_555
C23 C3 1_555 1_555
C24 C22 1_555 1_555
H7 C24 1_555 1_555
C25 C23 1_555 1_555
C26 C6 1_555 1_555
C27 C26 1_555 1_555
C28 C13 1_555 1_555
H8 C28 1_555 1_555
C29 C24 1_555 1_555
H9 C29 1_555 1_555
C31 C13 1_555 1_555
H10 C31 1_555 1_555
C32 C20 1_555 1_555
H11 C32 1_555 1_555
C33 C5 1_555 1_555
C34 C20 1_555 1_555
C35 C2 1_555 1_555
H12 C35 1_555 1_555
N7 Cd2 1_555 1_555
C36 C2 1_555 1_555
C37 C8 1_555 1_555
H13 C37 1_555 1_555
C38 C19 1_555 1_555
H14 C38 1_555 1_555
N8 C25 1_555 1_555
N9 C11 1_555 1_555
O1 Cd1 1_555 1_555
O2 Cd2 1_555 1_555
N10 C18 1_555 1_555
N11 C40 1_555 1_555
N12 C42 1_555 1_555
N13 C33 1_555 1_555
C39 C34 1_555 1_555
C40 C12 1_555 1_555
C41 C39 1_555 1_555
C42 C39 1_555 1_555
N14 C41 1_555 1_555
H15 O2 1_555 1_555
H16 O1 1_555 1_555
H17 O2 1_555 1_555
H18 O1 1_555 1_555
C3B N1B 1_555 1_555
N1B Cd2B 1_555 1_555
C13B C23B 1_555 1_555
C23B C3B 1_555 1_555
C25B C23B 1_555 1_555
C28B C31 1_555 1_555
H8B C28B 1_555 1_555
C31B C28 1_555 1_555
H10B C31B 1_555 1_555
N8B C25B 1_555 1_555
Cd1B N2B 1_555 1_555
Cd2B N4B 1_555 1_555
C1B C16B 1_555 1_555
C2B H1B 1_555 1_555
C4B C9B 1_555 1_555
C5B C30B 1_555 1_555
C6B H2B 1_555 1_555
C7B C27B 1_555 1_555
C8B C16B 1_555 1_555
C9B C6B 1_555 1_555
H3B C9B 1_555 1_555
C10B N2B 1_555 1_555
C11B C17B 1_555 1_555
N3B Cd1B 1_555 1_555
C12B C4B 1_555 1_555
N4B C21B 1_555 1_555
C14B N3B 1_555 1_555
C15B H4B 1_555 1_555
C16B C21B 1_555 1_555
N5B Cd1B 1_555 1_555
C17B C10B 1_555 1_555
C18B C27B 1_555 1_555
N6B C30B 1_555 1_555
C19B C4B 1_555 1_555
H5B C19B 1_555 1_555
C20B H6B 1_555 1_555
C22B C17B 1_555 1_555
C24B C22B 1_555 1_555
H7B C24B 1_555 1_555
C26B C6B 1_555 1_555
C27B C26B 1_555 1_555
C29B C24B 1_555 1_555
H9B C29B 1_555 1_555
C32B C20B 1_555 1_555
H11B C32B 1_555 1_555
C33B C5B 1_555 1_555
C34B C20B 1_555 1_555
C35B C2B 1_555 1_555
H12B C35B 1_555 1_555
N7B Cd2B 1_555 1_555
C36B C2B 1_555 1_555
C37B C8B 1_555 1_555
H13B C37B 1_555 1_555
C38B C19B 1_555 1_555
H14B C38B 1_555 1_555
N9B C11B 1_555 1_555
O1B Cd1B 1_555 1_555
O2B Cd2B 1_555 1_555
N10B C18B 1_555 1_555
N11B C40B 1_555 1_555
N12B C42B 1_555 1_555
N13B C33B 1_555 1_555
C39B C34B 1_555 1_555
C40B C12B 1_555 1_555
C41B C39B 1_555 1_555
C42B C39B 1_555 1_555
N14B C41B 1_555 1_555
H15B O2B 1_555 1_555
H16B O1B 1_555 1_555
H17B O2B 1_555 1_555
H18B O1B 1_555 1_555
Cd1_2 N12 1_555 1_555
Cd1A N11 1_555 1_555
Cd1B_2 N12B 1_555 1_555
Cd1C N11B 1_555 1_555
Cd2_2 N6 1_555 1_555
Cd2A N13 1_555 1_555
Cd2B_2 N6B 1_555 1_555
Cd2C N13B 1_555 1_555
N6_2 Cd2 1_555 1_555
N6B_2 Cd2B 1_555 1_555
N11A Cd1 1_555 1_555
N11C Cd1B 1_555 1_555
N12_2 Cd1 1_555 1_555
N12B_2 Cd1B 1_555 1_555
N13A Cd2 1_555 1_555
N13C Cd2B 1_555 1_555
C1 N5 1_555 1_555
C5 C36 1_555 1_555
C7 N7 1_555 1_555
C8 C35 1_555 1_555
C12 C14 1_555 1_555
C15 C36 1_555 1_555
C15 C37 1_555 1_555
C22 C32 1_555 1_555
C26 C38 1_555 1_555
C29 C34 1_555 1_555
C13B C28B 1_555 1_555
C13B C31B 1_555 1_555
C1B N5B 1_555 1_555
C5B C36B 1_555 1_555
C7B N7B 1_555 1_555
C8B C35B 1_555 1_555
C12B C14B 1_555 1_555
C15B C36B 1_555 1_555
C15B C37B 1_555 1_555
C22B C32B 1_555 1_555
C26B C38B 1_555 1_555
C29B C34B 1_555 1_555

#END
