
#######################################################################
#
#                 Cambridge Crystallographic Data Centre
#                                CCDC 
#
#######################################################################
#
# If this CIF has been generated from an entry in the Cambridge 
# Structural Database, then it will include bibliographic, chemical, 
# crystal, experimental, refinement or atomic coordinate data resulting 
# from the CCDC's data processing and validation procedures.
#
#######################################################################

data_SITPER
_symmetry_cell_setting           triclinic
_symmetry_space_group_name_H-M   'P -1'
_symmetry_Int_Tables_number      2
_space_group_name_Hall           '-P 1'
loop_
_symmetry_equiv_pos_site_id
_symmetry_equiv_pos_as_xyz
1 x,y,z
2 -x,-y,-z
_cell_length_a                   7.721(4)
_cell_length_b                   8.905(5)
_cell_length_c                   10.712(6)
_cell_angle_alpha                80.899(8)
_cell_angle_beta                 70.371(8)
_cell_angle_gamma                78.201(8)
_cell_volume                     675.845
loop_
_atom_site_label
_atom_site_type_symbol
_atom_site_fract_x
_atom_site_fract_y
_atom_site_fract_z
Mn1 Mn 0.68279(8) 0.63267(7) 0.78221(6)
N1 N 0.6431(6) 0.4399(5) 0.7004(4)
N2 N 0.7879(6) 0.6865(5) 0.5779(4)
O1 O 0.3779(6) 0.8502(5) 0.7181(4)
O2 O 0.4292(5) 0.7132(4) 0.8958(3)
O3 O -0.1927(5) 0.7956(4) 0.8208(4)
O4 O 0.0570(5) 0.6412(5) 0.8589(5)
O5 O 0.7698(6) 0.4753(6) 0.9192(5)
C1 C 0.5717(8) 0.3166(7) 0.7675(6)
H1 H 0.5307 0.3104 0.8600
C2 C 0.5552(9) 0.1968(7) 0.7067(6)
H2 H 0.5064 0.1112 0.7571
C3 C 0.6113(8) 0.2069(7) 0.5725(6)
H3 H 0.5976 0.1297 0.5291
C4 C 0.6887(7) 0.3315(6) 0.5006(5)
H4 H 0.7310 0.3381 0.4080
C5 C 0.7035(7) 0.4471(6) 0.5661(5)
C6 C 0.7831(7) 0.5860(6) 0.4973(5)
C7 C 0.8483(8) 0.6160(6) 0.3597(5)
H5 H 0.8474 0.5450 0.3051
C8 C 0.9148(8) 0.7527(7) 0.3045(6)
H6 H 0.9594 0.7736 0.2125
C9 C 0.9147(8) 0.8566(7) 0.3853(5)
H7 H 0.9550 0.9504 0.3498
C10 C 0.8528(8) 0.8184(6) 0.5225(6)
H8 H 0.8566 0.8872 0.5781
C11 C -0.0534(7) 0.7678(6) 0.8622(5)
C12 C 0.3319(7) 0.8152(6) 0.8386(5)
C13 C -0.0218(6) 0.8925(5) 0.9261(4)
C14 C 0.1767(7) 1.0103(5) 1.0007(5)
H9 H 0.2948 1.0175 1.0014
C15 C 0.1572(7) 0.9018(6) 0.9258(5)
H10 H 0.81(3) 0.367(6) 0.930(15)
H11 H 0.77(2) 0.499(15) 0.994(11)
Mn1A Mn -0.68279(8) 1.36733(7) 1.21779(6)
Mn1_2 Mn -0.31721(8) 0.63267(7) 0.78221(6)
Mn1A_2 Mn 0.31721(8) 1.36733(7) 1.21779(6)
N1A N -0.6431(6) 1.5601(5) 1.2996(4)
N2A N -0.7879(6) 1.3135(5) 1.4221(4)
O1A O -0.3779(6) 1.1498(5) 1.2819(4)
O2A O -0.4292(5) 1.2868(4) 1.1042(3)
O3A O 0.1927(5) 1.2044(4) 1.1792(4)
O3_2 O 0.8073(5) 0.7956(4) 0.8208(4)
O3A_2 O -0.8073(5) 1.2044(4) 1.1792(4)
O4A O -0.0570(5) 1.3588(5) 1.1411(5)
O5A O -0.7698(6) 1.5247(6) 1.0808(5)
C1A C -0.5717(8) 1.6834(7) 1.2325(6)
H1A H -0.5307 1.6896 1.1400
C2A C -0.5552(9) 1.8032(7) 1.2933(6)
H2A H -0.5064 1.8888 1.2429
C3A C -0.6113(8) 1.7931(7) 1.4275(6)
H3A H -0.5976 1.8703 1.4709
C4A C -0.6887(7) 1.6685(6) 1.4994(5)
H4A H -0.7310 1.6619 1.5920
C5A C -0.7035(7) 1.5529(6) 1.4339(5)
C6A C -0.7831(7) 1.4140(6) 1.5027(5)
C7A C -0.8483(8) 1.3840(6) 1.6403(5)
H5A H -0.8474 1.4550 1.6949
C8A C -0.9148(8) 1.2473(7) 1.6955(6)
H6A H -0.9594 1.2264 1.7875
C9A C -0.9147(8) 1.1434(7) 1.6147(5)
H7A H -0.9550 1.0496 1.6502
C10A C -0.8528(8) 1.1816(6) 1.4775(6)
H8A H -0.8566 1.1128 1.4219
C11A C 0.0534(7) 1.2322(6) 1.1378(5)
C12A C -0.3319(7) 1.1848(6) 1.1614(5)
C13A C 0.0218(6) 1.1075(5) 1.0739(4)
C14A C -0.1767(7) 0.9897(5) 0.9993(5)
H9A H -0.2948 0.9825 0.9986
C15A C -0.1572(7) 1.0982(6) 1.0742(5)
H10A H -0.81(3) 1.633(6) 1.070(15)
H11A H -0.77(2) 1.501(15) 1.006(11)
loop_
_geom_bond_atom_site_label_1
_geom_bond_atom_site_label_2
_geom_bond_site_symmetry_1
_geom_bond_site_symmetry_2
Mn1 N1 1_555 1_555
N1 C1 1_555 1_555
N2 Mn1 1_555 1_555
O1 C12 1_555 1_555
O2 Mn1 1_555 1_555
O3 C11 1_555 1_555
O4 C11 1_555 1_555
O5 Mn1 1_555 1_555
C1 H1 1_555 1_555
C2 C1 1_555 1_555
H2 C2 1_555 1_555
C3 C2 1_555 1_555
H3 C3 1_555 1_555
C4 C3 1_555 1_555
H4 C4 1_555 1_555
C5 N1 1_555 1_555
C6 N2 1_555 1_555
C7 C6 1_555 1_555
H5 C7 1_555 1_555
C8 C7 1_555 1_555
H6 C8 1_555 1_555
C9 C8 1_555 1_555
H7 C9 1_555 1_555
C10 N2 1_555 1_555
H8 C10 1_555 1_555
C11 C13 1_555 1_555
C12 O2 1_555 1_555
C13 C15 1_555 1_555
C14 H9 1_555 1_555
C15 C12 1_555 1_555
H10 O5 1_555 1_555
H11 O5 1_555 1_555
Mn1A N1A 1_555 1_555
Mn1_2 O3 1_555 1_555
Mn1A_2 O3A 1_555 1_555
N1A C1A 1_555 1_555
N2A Mn1A 1_555 1_555
O1A C12A 1_555 1_555
O2A Mn1A 1_555 1_555
O3A C11A 1_555 1_555
O3_2 Mn1 1_555 1_555
O3A_2 Mn1A 1_555 1_555
O4A C11A 1_555 1_555
O5A Mn1A 1_555 1_555
C1A H1A 1_555 1_555
C2A C1A 1_555 1_555
H2A C2A 1_555 1_555
C3A C2A 1_555 1_555
H3A C3A 1_555 1_555
C4A C3A 1_555 1_555
H4A C4A 1_555 1_555
C5A N1A 1_555 1_555
C6A N2A 1_555 1_555
C7A C6A 1_555 1_555
H5A C7A 1_555 1_555
C8A C7A 1_555 1_555
H6A C8A 1_555 1_555
C9A C8A 1_555 1_555
H7A C9A 1_555 1_555
C10A N2A 1_555 1_555
H8A C10A 1_555 1_555
C11A C13A 1_555 1_555
C12A O2A 1_555 1_555
C13A C14 1_555 1_555
C14A C13 1_555 1_555
H9A C14A 1_555 1_555
C15A C12A 1_555 1_555
H10A O5A 1_555 1_555
H11A O5A 1_555 1_555
C4 C5 1_555 1_555
C5 C6 1_555 1_555
C9 C10 1_555 1_555
C14 C15 1_555 1_555
C4A C5A 1_555 1_555
C5A C6A 1_555 1_555
C9A C10A 1_555 1_555
C13A C15A 1_555 1_555
C14A C15A 1_555 1_555

#END
