
#######################################################################
#
#                 Cambridge Crystallographic Data Centre
#                                CCDC 
#
#######################################################################
#
# If this CIF has been generated from an entry in the Cambridge 
# Structural Database, then it will include bibliographic, chemical, 
# crystal, experimental, refinement or atomic coordinate data resulting 
# from the CCDC's data processing and validation procedures.
#
#######################################################################

data_SITQOC
_symmetry_cell_setting           monoclinic
_symmetry_space_group_name_H-M   'C 2/c'
_symmetry_Int_Tables_number      15
_space_group_name_Hall           '-C 2yn'
loop_
_symmetry_equiv_pos_site_id
_symmetry_equiv_pos_as_xyz
1 x,y,z
2 1/2+x,1/2+y,z
3 -x,y,1/2-z
4 1/2-x,1/2+y,1/2-z
5 -x,-y,-z
6 1/2-x,1/2-y,-z
7 x,-y,1/2+z
8 1/2+x,1/2-y,1/2+z
_cell_length_a                   10.9134(5)
_cell_length_b                   47.545(2)
_cell_length_c                   17.1692(8)
_cell_angle_alpha                90
_cell_angle_beta                 106.3110(10)
_cell_angle_gamma                90
_cell_volume                     8550.15
loop_
_atom_site_label
_atom_site_type_symbol
_atom_site_fract_x
_atom_site_fract_y
_atom_site_fract_z
Ag1 Ag 0.65050(14) 0.11163(2) 0.22927(8)
N1 N 0.7022(11) 0.1503(2) 0.1505(7)
N2 N 0.6539(11) 0.1511(2) 0.2998(6)
N3 N 0.5856(11) 0.0809(2) 0.1146(7)
N4 N 0.6721(10) 0.0665(2) 0.2776(7)
C1 C 0.7207(15) 0.1505(4) 0.0772(11)
H1 H 0.7348 0.1334 0.0544
C2 C 0.720(2) 0.1746(6) 0.0339(13)
H2 H 0.7299 0.1737 -0.0181
C3 C 0.7047(16) 0.1994(5) 0.0651(14)
H3 H 0.7038 0.2158 0.0352
C4 C 0.6900(13) 0.2008(3) 0.1439(11)
C5 C 0.6755(15) 0.2264(4) 0.1808(13)
H4 H 0.6759 0.2432 0.1531
C6 C 0.6610(15) 0.2269(3) 0.2559(14)
H5 H 0.6559 0.2442 0.2804
C7 C 0.6531(13) 0.2019(3) 0.2988(10)
C8 C 0.6351(15) 0.2015(4) 0.3758(11)
H6 H 0.6302 0.2183 0.4022
C9 C 0.6248(15) 0.1773(5) 0.4121(10)
H7 H 0.6111 0.1770 0.4631
C10 C 0.6349(14) 0.1525(3) 0.3726(9)
H8 H 0.6280 0.1357 0.3988
C11 C 0.6638(12) 0.1758(3) 0.2627(8)
C12 C 0.6861(13) 0.1752(3) 0.1843(9)
C13 C 0.5551(15) 0.0883(3) 0.0368(9)
H9 H 0.5309 0.1067 0.0226
C14 C 0.5580(15) 0.0692(4) -0.0238(9)
H10 H 0.5382 0.0752 -0.0775
C15 C 0.5893(13) 0.0423(3) -0.0054(9)
H11 H 0.5947 0.0297 -0.0456
C16 C 0.6138(13) 0.0335(3) 0.0760(9)
C17 C 0.6400(15) 0.0053(3) 0.1006(10)
H12 H 0.6418 -0.0081 0.0616
C18 C 0.6623(14) -0.0029(3) 0.1780(11)
H13 H 0.6712 -0.0219 0.1912
C19 C 0.6724(13) 0.0179(3) 0.2410(9)
C20 C 0.7000(14) 0.0106(3) 0.3236(9)
H14 H 0.7066 -0.0081 0.3394
C21 C 0.7166(14) 0.0312(3) 0.3793(8)
H15 H 0.7376 0.0268 0.4343
C22 C 0.7021(15) 0.0594(3) 0.3544(8)
H16 H 0.7142 0.0735 0.3935
C23 C 0.6550(12) 0.0461(2) 0.2198(8)
C24 C 0.6189(12) 0.0541(2) 0.1347(7)
Ag2 Ag 0.0000 0.02852(3) 0.7500
Ag3 Ag 0.5000 0.19917(3) 0.7500
Mo1 Mo 0.01495(11) 0.13232(2) 0.95858(6)
Mo2 Mo 0.15789(11) 0.08008(2) 0.88348(6)
Mo3 Mo 0.34109(10) 0.13720(2) 0.82113(7)
Mo4 Mo 0.16885(11) 0.08398(2) 0.66923(6)
Mo5 Mo 0.18023(11) 0.18485(2) 0.67858(7)
Mo6 Mo 0.16839(10) 0.18969(2) 0.87303(6)
P1 P 0.0000 0.13443(7) 0.7500
O1 O 0.2794(8) 0.11111(15) 0.7264(4)
O2 O 0.4972(8) 0.13050(16) 0.8508(5)
O3 O 0.1204(7) 0.15296(13) 0.7712(4)
O4 O 0.2663(8) 0.05905(15) 0.6511(5)
O5 O 0.2560(9) 0.05529(16) 0.9365(5)
O6 O 0.2373(8) 0.20882(15) 0.6270(5)
O7 O 0.0049(7) 0.19700(14) 0.6575(4)
O8 O 0.2257(8) 0.21457(15) 0.9429(4)
O9 O 0.0000(7) 0.11575(13) 0.8230(4)
O10 O -0.0046(8) 0.06375(14) 0.8711(5)
O11 O 0.1246(7) 0.15921(14) 0.9401(4)
O12 O 0.0120(8) 0.13841(15) 1.0539(4)
O13 O -0.1233(7) 0.15745(13) 0.8967(4)
O14 O 0.2767(7) 0.10969(14) 0.8761(4)
O15 O 0.3249(7) 0.16651(15) 0.8871(4)
O16 O 0.2023(7) 0.20507(14) 0.7824(4)
O17 O 0.1297(8) 0.10235(14) 0.9723(4)
O18 O 0.3327(7) 0.16509(14) 0.7342(5)
O19 O 0.1236(8) 0.10383(14) 0.5725(4)
O20 O 0.1537(8) 0.07155(15) 0.7754(5)
N5 N -0.0301(10) -0.0107(2) 0.6663(6)
N6 N 0.5137(9) 0.2384(2) 0.6719(7)
C25 C -0.0605(15) -0.0106(3) 0.5863(8)
H17 H -0.0713 0.0066 0.5593
C26 C -0.0771(16) -0.0355(4) 0.5404(9)
H18 H -0.0991 -0.0348 0.4841
C27 C -0.0607(16) -0.0601(4) 0.5791(11)
H19 H -0.0697 -0.0766 0.5492
C28 C -0.0304(14) -0.0616(3) 0.6640(9)
C29 C -0.0144(18) -0.0869(3) 0.7092(10)
H20 H -0.0239 -0.1040 0.6817
C30 C 0.5082(15) 0.3150(3) 0.7133(9)
H21 H 0.5140 0.3321 0.6881
C31 C 0.5174(11) 0.2890(2) 0.6713(8)
C32 C 0.5287(13) 0.2884(3) 0.5927(9)
H22 H 0.5319 0.3051 0.5651
C33 C 0.5350(14) 0.2631(3) 0.5567(10)
H23 H 0.5448 0.2624 0.5046
C34 C 0.5269(13) 0.2386(3) 0.5971(10)
H24 H 0.5308 0.2215 0.5715
C35 C 0.5072(11) 0.2633(2) 0.7084(7)
C36 C -0.0152(12) -0.0354(2) 0.7069(7)
Ag3_2 Ag -0.5000 0.19917(3) 0.7500
Mo1B Mo -0.01495(11) 0.13232(2) 0.54142(6)
Mo2B Mo -0.15789(11) 0.08008(2) 0.61652(6)
Mo3B Mo -0.34109(10) 0.13720(2) 0.67887(7)
Mo4B Mo -0.16885(11) 0.08398(2) 0.83077(6)
Mo5B Mo -0.18023(11) 0.18485(2) 0.82142(7)
Mo6B Mo -0.16839(10) 0.18969(2) 0.62697(6)
O1B O -0.2794(8) 0.11111(15) 0.7736(4)
O2B O -0.4972(8) 0.13050(16) 0.6492(5)
O3B O -0.1204(7) 0.15296(13) 0.7288(4)
O4B O -0.2663(8) 0.05905(15) 0.8489(5)
O5B O -0.2560(9) 0.05529(16) 0.5635(5)
O6B O -0.2373(8) 0.20882(15) 0.8730(5)
O7B O -0.0049(7) 0.19700(14) 0.8425(4)
O8B O -0.2257(8) 0.21457(15) 0.5571(4)
O9B O 0.0000(7) 0.11575(13) 0.6770(4)
O10B O 0.0046(8) 0.06375(14) 0.6289(5)
O11B O -0.1246(7) 0.15921(14) 0.5599(4)
O12B O -0.0120(8) 0.13841(15) 0.4461(4)
O13B O 0.1233(7) 0.15745(13) 0.6033(4)
O14B O -0.2767(7) 0.10969(14) 0.6239(4)
O15B O -0.3249(7) 0.16651(15) 0.6129(4)
O16B O -0.2023(7) 0.20507(14) 0.7176(4)
O17B O -0.1297(8) 0.10235(14) 0.5277(4)
O18B O -0.3327(7) 0.16509(14) 0.7658(5)
O18B_2 O 0.6673(7) 0.16509(14) 0.7658(5)
O19B O -0.1236(8) 0.10383(14) 0.9275(4)
O20B O -0.1537(8) 0.07155(15) 0.7246(5)
N5B N 0.0301(10) -0.0107(2) 0.8337(6)
N6B N 0.4863(9) 0.2384(2) 0.8281(7)
C25B C 0.0605(15) -0.0106(3) 0.9137(8)
H17B H 0.0713 0.0066 0.9407
C26B C 0.0771(16) -0.0355(4) 0.9596(9)
H18B H 0.0991 -0.0348 1.0159
C27B C 0.0607(16) -0.0601(4) 0.9209(11)
H19B H 0.0697 -0.0766 0.9508
C28B C 0.0304(14) -0.0616(3) 0.8360(9)
C29B C 0.0144(18) -0.0869(3) 0.7908(10)
H20B H 0.0239 -0.1040 0.8183
C30B C 0.4918(15) 0.3150(3) 0.7867(9)
H21B H 0.4860 0.3321 0.8119
C31B C 0.4826(11) 0.2890(2) 0.8287(8)
C32B C 0.4713(13) 0.2884(3) 0.9073(9)
H22B H 0.4681 0.3051 0.9349
C33B C 0.4650(14) 0.2631(3) 0.9433(10)
H23B H 0.4552 0.2624 0.9954
C34B C 0.4731(13) 0.2386(3) 0.9029(10)
H24B H 0.4692 0.2215 0.9285
C35B C 0.4928(11) 0.2633(2) 0.7916(7)
C36B C 0.0152(12) -0.0354(2) 0.7931(7)
loop_
_geom_bond_atom_site_label_1
_geom_bond_atom_site_label_2
_geom_bond_site_symmetry_1
_geom_bond_site_symmetry_2
Ag1 N1 1_555 1_555
N1 C1 1_555 1_555
N2 Ag1 1_555 1_555
N3 Ag1 1_555 1_555
N4 Ag1 1_555 1_555
C1 H1 1_555 1_555
C2 C1 1_555 1_555
H2 C2 1_555 1_555
C3 C2 1_555 1_555
H3 C3 1_555 1_555
C4 C3 1_555 1_555
C5 C4 1_555 1_555
H4 C5 1_555 1_555
C6 C5 1_555 1_555
H5 C6 1_555 1_555
C7 C6 1_555 1_555
C8 C7 1_555 1_555
H6 C8 1_555 1_555
C9 C8 1_555 1_555
H7 C9 1_555 1_555
C10 N2 1_555 1_555
H8 C10 1_555 1_555
C11 N2 1_555 1_555
C12 N1 1_555 1_555
C13 N3 1_555 1_555
H9 C13 1_555 1_555
C14 C13 1_555 1_555
H10 C14 1_555 1_555
C15 C14 1_555 1_555
H11 C15 1_555 1_555
C16 C15 1_555 1_555
C17 C16 1_555 1_555
H12 C17 1_555 1_555
C18 C17 1_555 1_555
H13 C18 1_555 1_555
C19 C18 1_555 1_555
C20 C19 1_555 1_555
H14 C20 1_555 1_555
C21 C20 1_555 1_555
H15 C21 1_555 1_555
C22 N4 1_555 1_555
H16 C22 1_555 1_555
C23 N4 1_555 1_555
C24 N3 1_555 1_555
Ag2 O20 1_555 1_555
Ag3 O18 1_555 1_555
Mo1 O9 1_555 1_555
Mo2 O5 1_555 1_555
Mo3 O1 1_555 1_555
Mo4 O1 1_555 1_555
Mo5 O3 1_555 1_555
Mo6 O3 1_555 1_555
P1 O3 1_555 1_555
O2 Mo3 1_555 1_555
O3 Mo3 1_555 1_555
O4 Mo4 1_555 1_555
O6 Mo5 1_555 1_555
O7 Mo5 1_555 1_555
O8 Mo6 1_555 1_555
O9 Mo2 1_555 1_555
O10 Mo2 1_555 1_555
O11 Mo1 1_555 1_555
O12 Mo1 1_555 1_555
O13 Mo1 1_555 1_555
O14 Mo2 1_555 1_555
O15 Mo3 1_555 1_555
O16 Mo5 1_555 1_555
O17 Mo1 1_555 1_555
O18 Mo3 1_555 1_555
O19 Mo4 1_555 1_555
O20 Mo2 1_555 1_555
N5 Ag2 1_555 1_555
N6 Ag3 1_555 1_555
C25 N5 1_555 1_555
H17 C25 1_555 1_555
C26 C25 1_555 1_555
H18 C26 1_555 1_555
C27 C26 1_555 1_555
H19 C27 1_555 1_555
C28 C27 1_555 1_555
C29 C28 1_555 1_555
H20 C29 1_555 1_555
C30 H21 1_555 1_555
C31 C30 1_555 1_555
C32 C31 1_555 1_555
H22 C32 1_555 1_555
C33 C32 1_555 1_555
H23 C33 1_555 1_555
C34 N6 1_555 1_555
H24 C34 1_555 1_555
C35 N6 1_555 1_555
C36 N5 1_555 1_555
Ag3_2 O18B 1_555 1_555
Mo1B O19 1_555 1_555
Mo2B O5B 1_555 1_555
Mo3B O1B 1_555 1_555
Mo4B O9 1_555 1_555
Mo5B O13 1_555 1_555
Mo6B O7 1_555 1_555
O1B Mo4B 1_555 1_555
O2B Mo3B 1_555 1_555
O3B P1 1_555 1_555
O4B Mo4B 1_555 1_555
O6B Mo5B 1_555 1_555
O7B Mo6 1_555 1_555
O8B Mo6B 1_555 1_555
O9B Mo4 1_555 1_555
O10B Mo4 1_555 1_555
O11B Mo1B 1_555 1_555
O12B Mo1B 1_555 1_555
O13B Mo5 1_555 1_555
O14B Mo2B 1_555 1_555
O15B Mo3B 1_555 1_555
O16B Mo5B 1_555 1_555
O17B Mo1B 1_555 1_555
O18B Mo3B 1_555 1_555
O18B_2 Ag3 1_555 1_555
O19B Mo1 1_555 1_555
O20B Ag2 1_555 1_555
N5B Ag2 1_555 1_555
N6B Ag3 1_555 1_555
C25B N5B 1_555 1_555
H17B C25B 1_555 1_555
C26B C25B 1_555 1_555
H18B C26B 1_555 1_555
C27B C26B 1_555 1_555
H19B C27B 1_555 1_555
C28B C27B 1_555 1_555
C29B C29 1_555 1_555
H20B C29B 1_555 1_555
C30B C30 1_555 1_555
H21B C30B 1_555 1_555
C31B C30B 1_555 1_555
C32B C31B 1_555 1_555
H22B C32B 1_555 1_555
C33B C32B 1_555 1_555
H23B C33B 1_555 1_555
C34B N6B 1_555 1_555
H24B C34B 1_555 1_555
C35B C35 1_555 1_555
C36B C36 1_555 1_555
C4 C12 1_555 1_555
C7 C11 1_555 1_555
C9 C10 1_555 1_555
C11 C12 1_555 1_555
C16 C24 1_555 1_555
C19 C23 1_555 1_555
C21 C22 1_555 1_555
C23 C24 1_555 1_555
Mo2 O17 1_555 1_555
Mo3 O14 1_555 1_555
Mo4 O20 1_555 1_555
Mo5 O18 1_555 1_555
Mo6 O11 1_555 1_555
Mo6 O15 1_555 1_555
Mo6 O16 1_555 1_555
P1 O9 1_555 1_555
P1 O9B 1_555 1_555
O10 Mo4B 1_555 1_555
C28 C36 1_555 1_555
C31 C35 1_555 1_555
C33 C34 1_555 1_555
Mo1B O9B 1_555 1_555
Mo1B O13B 1_555 1_555
Mo2B O9B 1_555 1_555
Mo2B O10B 1_555 1_555
Mo2B O17B 1_555 1_555
Mo2B O20B 1_555 1_555
Mo3B O3B 1_555 1_555
Mo3B O14B 1_555 1_555
Mo4B O19B 1_555 1_555
Mo4B O20B 1_555 1_555
Mo5B O3B 1_555 1_555
Mo5B O7B 1_555 1_555
Mo5B O18B 1_555 1_555
Mo6B O3B 1_555 1_555
Mo6B O11B 1_555 1_555
Mo6B O15B 1_555 1_555
Mo6B O16B 1_555 1_555
N5B C36B 1_555 1_555
N6B C35B 1_555 1_555
C28B C29B 1_555 1_555
C28B C36B 1_555 1_555
C31B C35B 1_555 1_555
C33B C34B 1_555 1_555

#END
