
#######################################################################
#
#                 Cambridge Crystallographic Data Centre
#                                CCDC 
#
#######################################################################
#
# If this CIF has been generated from an entry in the Cambridge 
# Structural Database, then it will include bibliographic, chemical, 
# crystal, experimental, refinement or atomic coordinate data resulting 
# from the CCDC's data processing and validation procedures.
#
#######################################################################

data_SITQIW
_symmetry_cell_setting           monoclinic
_symmetry_space_group_name_H-M   'P 21/c'
_symmetry_Int_Tables_number      14
_space_group_name_Hall           '-P 2ybc'
loop_
_symmetry_equiv_pos_site_id
_symmetry_equiv_pos_as_xyz
1 x,y,z
2 -x,1/2+y,1/2-z
3 -x,-y,-z
4 x,1/2-y,1/2+z
_cell_length_a                   7.7358(17)
_cell_length_b                   8.1664(18)
_cell_length_c                   28.271(6)
_cell_angle_alpha                90
_cell_angle_beta                 95.184(4)
_cell_angle_gamma                90
_cell_volume                     1778.68
loop_
_atom_site_label
_atom_site_type_symbol
_atom_site_fract_x
_atom_site_fract_y
_atom_site_fract_z
La1 La -0.13703(3) 0.99047(3) 0.826521(8)
N1 N 0.1390(5) 0.8070(4) 0.86126(13)
N2 N 0.0465(5) 1.0701(4) 0.90922(13)
O1 O 0.0006(4) 0.7860(4) 0.77374(11)
O2 O 0.1899(4) 0.5937(4) 0.75647(11)
O3 O -0.1415(4) 1.2886(4) 0.85723(12)
O4 O -0.1072(5) 1.4731(4) 0.91601(13)
C1 C 0.1975(6) 0.6858(5) 0.83570(15)
C2 C 0.3151(6) 0.5691(6) 0.85410(18)
H1 H 0.3538 0.4871 0.8348
C3 C 0.3734(7) 0.5767(6) 0.90148(18)
H2 H 0.4479 0.4964 0.9148
C4 C 0.3210(6) 0.7048(6) 0.92968(16)
C5 C 0.3829(6) 0.7319(6) 0.97807(17)
H3 H 0.4558 0.6545 0.9936
C6 C 0.3394(6) 0.8659(6) 1.00209(18)
H4 H 0.3835 0.8794 1.0336
C7 C 0.2268(6) 0.9874(6) 0.98008(15)
C8 C 0.1874(6) 1.1372(6) 1.00115(17)
H5 H 0.2302 1.1594 1.0323
C9 C 0.0866(6) 1.2501(6) 0.97614(17)
H6 H 0.0632 1.3505 0.9897
C10 C 0.0178(6) 1.2125(5) 0.92913(16)
C11 C 0.1549(5) 0.9623(5) 0.93299(15)
C12 C 0.2036(6) 0.8192(5) 0.90760(15)
C13 C 0.1236(6) 0.6876(5) 0.78448(16)
C14 C -0.0872(6) 1.3353(6) 0.89836(18)
N3 N -0.4801(5) 1.1205(5) 0.86124(14)
O5 O -0.3761(4) 1.0291(4) 0.88559(11)
O6 O -0.4537(4) 1.1437(4) 0.81857(12)
O7 O -0.6035(4) 1.1850(4) 0.87878(13)
O8 O 0.1393(4) 1.1296(4) 0.80294(12)
H7 H 0.1027 1.1936 0.7790
H8 H 0.2432 1.1269 0.8140
O9 O -0.2184(4) 0.7354(4) 0.87317(13)
H9 H -0.1838 0.6434 0.8824
H10 H -0.2681 0.8267 0.8770
O10 O -0.3933(4) 0.8201(4) 0.78350(12)
H11 H -0.4915 0.8425 0.7593
H12 H -0.3753 0.7083 0.7875
La1A La 0.13703(3) 0.49047(3) 0.673479(8)
O2A O -0.1899(4) 1.0937(4) 0.74353(11)
O11 O 0.6716(5) 0.4760(4) 0.77649(13)
H13 H 0.7614 0.4872 0.7558
H14 H 0.6943 0.3869 0.7932
loop_
_geom_bond_atom_site_label_1
_geom_bond_atom_site_label_2
_geom_bond_site_symmetry_1
_geom_bond_site_symmetry_2
La1 N1 1_555 1_555
N1 C1 1_555 1_555
N2 La1 1_555 1_555
O1 La1 1_555 1_555
O2 C13 1_555 1_555
O3 La1 1_555 1_555
O4 C14 1_555 1_555
C1 C2 1_555 1_555
C2 H1 1_555 1_555
C3 C2 1_555 1_555
H2 C3 1_555 1_555
C4 C3 1_555 1_555
C5 C4 1_555 1_555
H3 C5 1_555 1_555
C6 C5 1_555 1_555
H4 C6 1_555 1_555
C7 C6 1_555 1_555
C8 C7 1_555 1_555
H5 C8 1_555 1_555
C9 C8 1_555 1_555
H6 C9 1_555 1_555
C10 N2 1_555 1_555
C11 N2 1_555 1_555
C12 N1 1_555 1_555
C13 O1 1_555 1_555
C14 O3 1_555 1_555
N3 O5 1_555 1_555
O5 La1 1_555 1_555
O6 La1 1_555 1_555
O7 N3 1_555 1_555
O8 La1 1_555 1_555
H7 O8 1_555 1_555
H8 O8 1_555 1_555
O9 La1 1_555 1_555
H9 O9 1_555 1_555
H10 O9 1_555 1_555
O10 La1 1_555 1_555
H11 O10 1_555 1_555
H12 O10 1_555 1_555
O11 H13 1_555 1_555
H14 O11 1_555 1_555
La1A O2 1_555 1_555
O2A La1 1_555 1_555
C1 C13 1_555 1_555
C4 C12 1_555 1_555
C7 C11 1_555 1_555
C9 C10 1_555 1_555
C10 C14 1_555 1_555
C11 C12 1_555 1_555
N3 O6 1_555 1_555

#END
