
#######################################################################
#
#                 Cambridge Crystallographic Data Centre
#                                CCDC 
#
#######################################################################
#
# If this CIF has been generated from an entry in the Cambridge 
# Structural Database, then it will include bibliographic, chemical, 
# crystal, experimental, refinement or atomic coordinate data resulting 
# from the CCDC's data processing and validation procedures.
#
#######################################################################

data_SITSOF
_symmetry_cell_setting           monoclinic
_symmetry_space_group_name_H-M   'P 21/c'
_symmetry_Int_Tables_number      14
_space_group_name_Hall           '-P 2ybc'
loop_
_symmetry_equiv_pos_site_id
_symmetry_equiv_pos_as_xyz
1 x,y,z
2 -x,1/2+y,1/2-z
3 -x,-y,-z
4 x,1/2-y,1/2+z
_cell_length_a                   11.7017(4)
_cell_length_b                   19.3409(8)
_cell_length_c                   20.7187(8)
_cell_angle_alpha                90
_cell_angle_beta                 94.211(3)
_cell_angle_gamma                90
_cell_volume                     4676.43
loop_
_atom_site_label
_atom_site_type_symbol
_atom_site_fract_x
_atom_site_fract_y
_atom_site_fract_z
Cu1 Cu 0.21984(3) 0.07093(3) 0.18039(2)
Cu2 Cu 0.20121(3) 0.10070(3) 0.32388(2)
Cu3 Cu 0.0000 0.0000 0.0000
Cu4 Cu 0.0000 0.0000 0.5000
C1 C 0.5697(3) -0.1889(2) 0.3363(2)
H1 H 0.5839 -0.2154 0.2985
H2 H 0.5359 -0.2181 0.3671
H3 H 0.6408 -0.1705 0.3551
C2 C 0.4896(3) -0.1306(2) 0.3176(2)
C3 C 0.4440(3) -0.1200(2) 0.2538(2)
H4 H 0.4651 -0.1499 0.2216
C4 C 0.3682(3) -0.0664(2) 0.23706(18)
C5 C 0.3365(3) -0.0202(2) 0.28434(18)
C6 C 0.3806(3) -0.0304(2) 0.34863(18)
C7 C 0.4553(3) -0.0849(2) 0.36285(19)
H5 H 0.4838 -0.0907 0.4056
C8 C 0.3363(3) 0.0072(2) 0.40585(19)
H6 H 0.2659 -0.0150 0.4168
H7 H 0.3918 0.0018 0.4426
C9 C 0.3121(3) -0.0652(2) 0.16930(18)
H8 H 0.3505 -0.0984 0.1433
H9 H 0.2331 -0.0800 0.1707
C10 C 0.4299(3) 0.0255(2) 0.1234(2)
H10 H 0.4525 0.0019 0.0851
H11 H 0.4837 0.0127 0.1593
C11 C 0.4365(3) 0.1025(2) 0.1128(2)
H12 H 0.5166 0.1148 0.1114
H13 H 0.4087 0.1252 0.1504
C12 C 0.3722(3) 0.1321(2) 0.0533(2)
H14 H 0.4081 0.1149 0.0157
H15 H 0.3823 0.1818 0.0542
C13 C 0.2446(3) 0.1174(2) 0.04333(18)
H16 H 0.2119 0.1456 0.0079
H17 H 0.2335 0.0693 0.0312
C14 C 0.4199(3) 0.1228(2) 0.3903(2)
H18 H 0.4662 0.1005 0.3593
H19 H 0.4642 0.1239 0.4317
C15 C 0.3924(3) 0.1960(2) 0.3683(2)
H20 H 0.3605 0.1942 0.3238
H21 H 0.4637 0.2216 0.3687
C16 C 0.3098(3) 0.2363(2) 0.4076(2)
H22 H 0.3063 0.2139 0.4493
H23 H 0.3406 0.2824 0.4155
C17 C 0.1887(3) 0.2430(2) 0.37650(19)
H24 H 0.1457 0.2735 0.4029
H25 H 0.1922 0.2647 0.3345
C18 C 0.0094(3) 0.1870(2) 0.33481(18)
H26 H -0.0350 0.2167 0.3612
H27 H -0.0287 0.1425 0.3313
C19 C 0.0118(3) 0.2181(2) 0.26816(18)
C20 C 0.0848(3) 0.1915(2) 0.22367(18)
C21 C 0.0894(3) 0.22435(18) 0.16359(17)
C22 C 0.1793(3) 0.2055(2) 0.11807(18)
H28 H 0.1651 0.2315 0.0782
H29 H 0.2539 0.2192 0.1375
C23 C 0.0145(3) 0.2789(2) 0.14784(19)
H30 H 0.0171 0.3001 0.1077
C24 C -0.0634(3) 0.3025(2) 0.1898(2)
C25 C -0.0588(3) 0.2729(2) 0.24982(19)
H31 H -0.1059 0.2906 0.2800
C26 C -0.1505(3) 0.3568(2) 0.1692(2)
H32 H -0.1405 0.3705 0.1254
H33 H -0.1405 0.3963 0.1971
H34 H -0.2262 0.3384 0.1718
C27 C -0.0219(3) -0.0094(2) 0.36749(17)
C28 C -0.0768(3) -0.03327(19) 0.30367(17)
C29 C -0.1729(3) -0.0760(2) 0.30078(19)
H35 H -0.2039 -0.0895 0.3389
C30 C -0.2223(3) -0.0983(2) 0.24221(19)
H36 H -0.2875 -0.1259 0.2407
C31 C -0.1754(3) -0.0798(2) 0.18596(18)
H37 H -0.2093 -0.0953 0.1466
C32 C -0.0788(3) -0.03849(19) 0.18662(17)
C33 C -0.0318(2) -0.01617(19) 0.24674(17)
H38 H 0.0331 0.0117 0.2482
C34 C -0.0270(3) -0.01875(19) 0.12638(18)
C35 C 0.1555(4) -0.1069(2) 0.00478(18)
C36 C 0.1957(3) -0.1805(2) 0.00410(18)
C37 C 0.3118(3) -0.1954(2) 0.0031(2)
H39 H 0.3648 -0.1595 0.0035
C38 C 0.3488(3) -0.2622(3) 0.0015(2)
H40 H 0.4265 -0.2711 -0.0006
C39 C 0.2732(3) -0.3166(2) 0.00285(19)
H41 H 0.2998 -0.3618 0.0019
C40 C 0.1580(3) -0.3035(2) 0.00561(18)
C41 C 0.1200(3) -0.2354(2) 0.00560(16)
H42 H 0.0421 -0.2265 0.0066
C42 C 0.0721(3) -0.3627(2) 0.00699(17)
O1 O 0.26269(17) 0.03181(13) 0.26752(11)
O2 O 0.15103(18) 0.13509(13) 0.23765(11)
O3 O 0.06093(19) 0.03151(14) 0.36928(12)
O4 O -0.06602(18) -0.03231(13) 0.41757(11)
O5 O 0.06856(18) 0.01031(14) 0.12893(11)
O6 O -0.08348(17) -0.03180(12) 0.07349(11)
O7 O 0.05006(19) -0.09583(13) -0.01036(12)
O8 O 0.2285(2) -0.06129(15) 0.01988(13)
O9 O 0.11132(18) -0.42415(15) 0.00521(12)
O10 O -0.0313(2) -0.34744(13) 0.01007(12)
N1 N 0.3134(2) 0.08176(18) 0.39639(14)
H43 H 0.283(2) 0.0948(19) 0.4335(12)
N2 N 0.3135(2) 0.00245(19) 0.13740(14)
H44 H 0.271(2) 0.001(2) 0.1028(11)
N3 N 0.1823(2) 0.13172(17) 0.10252(15)
H45 H 0.1141(17) 0.1207(19) 0.0930(17)
N4 N 0.1258(3) 0.17745(18) 0.36782(14)
H46 H 0.113(3) 0.162(2) 0.4055(11)
Cu1B Cu -0.21984(3) -0.07093(3) -0.18039(2)
Cu2B Cu -0.20121(3) -0.10070(3) -0.32388(2)
C1B C -0.5697(3) 0.1889(2) -0.3363(2)
H1B H -0.5839 0.2154 -0.2985
H2B H -0.5359 0.2181 -0.3671
H3B H -0.6408 0.1705 -0.3551
C2B C -0.4896(3) 0.1306(2) -0.3176(2)
C3B C -0.4440(3) 0.1200(2) -0.2538(2)
H4B H -0.4651 0.1499 -0.2216
C4B C -0.3682(3) 0.0664(2) -0.23706(18)
C5B C -0.3365(3) 0.0202(2) -0.28434(18)
C6B C -0.3806(3) 0.0304(2) -0.34863(18)
C7B C -0.4553(3) 0.0849(2) -0.36285(19)
H5B H -0.4838 0.0907 -0.4056
C8B C -0.3363(3) -0.0072(2) -0.40585(19)
H6B H -0.2659 0.0150 -0.4168
H7B H -0.3918 -0.0018 -0.4426
C9B C -0.3121(3) 0.0652(2) -0.16930(18)
H8B H -0.3505 0.0984 -0.1433
H9B H -0.2331 0.0800 -0.1707
C10B C -0.4299(3) -0.0255(2) -0.1234(2)
H10B H -0.4525 -0.0019 -0.0851
H11B H -0.4837 -0.0127 -0.1593
C11B C -0.4365(3) -0.1025(2) -0.1128(2)
H12B H -0.5166 -0.1148 -0.1114
H13B H -0.4087 -0.1252 -0.1504
C12B C -0.3722(3) -0.1321(2) -0.0533(2)
H14B H -0.4081 -0.1149 -0.0157
H15B H -0.3823 -0.1818 -0.0542
C13B C -0.2446(3) -0.1174(2) -0.04333(18)
H16B H -0.2119 -0.1456 -0.0079
H17B H -0.2335 -0.0693 -0.0312
C14B C -0.4199(3) -0.1228(2) -0.3903(2)
H18B H -0.4662 -0.1005 -0.3593
H19B H -0.4642 -0.1239 -0.4317
C15B C -0.3924(3) -0.1960(2) -0.3683(2)
H20B H -0.3605 -0.1942 -0.3238
H21B H -0.4637 -0.2216 -0.3687
C16B C -0.3098(3) -0.2363(2) -0.4076(2)
H22B H -0.3063 -0.2139 -0.4493
H23B H -0.3406 -0.2824 -0.4155
C17B C -0.1887(3) -0.2430(2) -0.37650(19)
H24B H -0.1457 -0.2735 -0.4029
H25B H -0.1922 -0.2647 -0.3345
C18B C -0.0094(3) -0.1870(2) -0.33481(18)
H26B H 0.0350 -0.2167 -0.3612
H27B H 0.0287 -0.1425 -0.3313
C19B C -0.0118(3) -0.2181(2) -0.26816(18)
C20B C -0.0848(3) -0.1915(2) -0.22367(18)
C21B C -0.0894(3) -0.22435(18) -0.16359(17)
C22B C -0.1793(3) -0.2055(2) -0.11807(18)
H28B H -0.1651 -0.2315 -0.0782
H29B H -0.2539 -0.2192 -0.1375
C23B C -0.0145(3) -0.2789(2) -0.14784(19)
H30B H -0.0171 -0.3001 -0.1077
C24B C 0.0634(3) -0.3025(2) -0.1898(2)
C25B C 0.0588(3) -0.2729(2) -0.24982(19)
H31B H 0.1059 -0.2906 -0.2800
C26B C 0.1505(3) -0.3568(2) -0.1692(2)
H32B H 0.1405 -0.3705 -0.1254
H33B H 0.1405 -0.3963 -0.1971
H34B H 0.2262 -0.3384 -0.1718
C27B C 0.0219(3) 0.0094(2) -0.36749(17)
C28B C 0.0768(3) 0.03327(19) -0.30367(17)
C29B C 0.1729(3) 0.0760(2) -0.30078(19)
H35B H 0.2039 0.0895 -0.3389
C30B C 0.2223(3) 0.0983(2) -0.24221(19)
H36B H 0.2875 0.1259 -0.2407
C31B C 0.1754(3) 0.0798(2) -0.18596(18)
H37B H 0.2093 0.0953 -0.1466
C32B C 0.0788(3) 0.03849(19) -0.18662(17)
C33B C 0.0318(2) 0.01617(19) -0.24674(17)
H38B H -0.0331 -0.0117 -0.2482
C34B C 0.0270(3) 0.01875(19) -0.12638(18)
C35B C -0.1555(4) 0.1069(2) -0.00478(18)
C36B C -0.1957(3) 0.1805(2) -0.00410(18)
C37B C -0.3118(3) 0.1954(2) -0.0031(2)
H39B H -0.3648 0.1595 -0.0035
C38B C -0.3488(3) 0.2622(3) -0.0015(2)
H40B H -0.4265 0.2711 0.0006
C39B C -0.2732(3) 0.3166(2) -0.00285(19)
H41B H -0.2998 0.3618 -0.0019
C40B C -0.1580(3) 0.3035(2) -0.00561(18)
C41B C -0.1200(3) 0.2354(2) -0.00560(16)
H42B H -0.0421 0.2265 -0.0066
C42B C -0.0721(3) 0.3627(2) -0.00699(17)
O1B O -0.26269(17) -0.03181(13) -0.26752(11)
O2B O -0.15103(18) -0.13509(13) -0.23765(11)
O3B O -0.06093(19) -0.03151(14) -0.36928(12)
O4B O 0.06602(18) 0.03231(13) -0.41757(11)
O5B O -0.06856(18) -0.01031(14) -0.12893(11)
O6B O 0.08348(17) 0.03180(12) -0.07349(11)
O7B O -0.05006(19) 0.09583(13) 0.01036(12)
O8B O -0.2285(2) 0.06129(15) -0.01988(13)
O9B O -0.11132(18) 0.42415(15) -0.00521(12)
O10B O 0.0313(2) 0.34744(13) -0.01007(12)
N1B N -0.3134(2) -0.08176(18) -0.39639(14)
H43B H -0.283(2) -0.0948(19) -0.4335(12)
N2B N -0.3135(2) -0.00245(19) -0.13740(14)
H44B H -0.271(2) -0.001(2) -0.1028(11)
N3B N -0.1823(2) -0.13172(17) -0.10252(15)
H45B H -0.1141(17) -0.1207(19) -0.0930(17)
N4B N -0.1258(3) -0.17745(18) -0.36782(14)
H46B H -0.113(3) -0.162(2) -0.4055(11)
Cu4_2 Cu 0.0000 0.0000 -0.5000
Cu4A Cu 0.0000 -0.5000 0.0000
Cu4A_2 Cu 0.0000 0.5000 0.0000
O4B_2 O 0.06602(18) 0.03231(13) 0.58243(11)
O9A O -0.11132(18) 0.07585(15) 0.49479(12)
O9C O 0.11132(18) -0.07585(15) 0.50521(12)
C43 C 0.7712(4) 0.1352(3) 0.1651(3)
H47 H 0.7741 0.1807 0.1468
H48 H 0.7336 0.1044 0.1340
H49 H 0.8477 0.1191 0.1762
C44 C 0.6596(4) 0.2002(4) 0.2429(4)
H50 H 0.6784 0.2368 0.2143
H51 H 0.6896 0.2108 0.2862
H52 H 0.5778 0.1954 0.2421
C45 C 0.6936(5) 0.0814(4) 0.2533(4)
O11 O 0.6412(3) 0.0805(3) 0.3046(2)
N5 N 0.7081(3) 0.1374(3) 0.2226(2)
O12 O 0.7385(2) 0.61710(18) 0.97105(16)
H53 H 0.8096(16) 0.617(3) 0.972(2)
H54 H 0.719(4) 0.5795(17) 0.951(2)
O13 O 0.3235(2) 0.5171(2) 0.07245(16)
H55 H 0.263(3) 0.536(2) 0.054(2)
H56 H 0.322(4) 0.525(3) 0.1144(11)
O14 O 0.6580(8) -0.0040(7) 0.0666(5)
H57 H 0.705(5) -0.010(5) 0.100(2)
loop_
_geom_bond_atom_site_label_1
_geom_bond_atom_site_label_2
_geom_bond_site_symmetry_1
_geom_bond_site_symmetry_2
Cu1 O1 1_555 1_555
Cu2 O1 1_555 1_555
Cu3 O5 1_555 1_555
Cu4 O4 1_555 1_555
C1 H1 1_555 1_555
H2 C1 1_555 1_555
H3 C1 1_555 1_555
C2 C1 1_555 1_555
C3 C2 1_555 1_555
H4 C3 1_555 1_555
C4 C3 1_555 1_555
C5 C4 1_555 1_555
C6 C5 1_555 1_555
C7 C2 1_555 1_555
H5 C7 1_555 1_555
C8 C6 1_555 1_555
H6 C8 1_555 1_555
H7 C8 1_555 1_555
C9 C4 1_555 1_555
H8 C9 1_555 1_555
H9 C9 1_555 1_555
C10 H10 1_555 1_555
H11 C10 1_555 1_555
C11 C10 1_555 1_555
H12 C11 1_555 1_555
H13 C11 1_555 1_555
C12 C11 1_555 1_555
H14 C12 1_555 1_555
H15 C12 1_555 1_555
C13 C12 1_555 1_555
H16 C13 1_555 1_555
H17 C13 1_555 1_555
C14 H18 1_555 1_555
H19 C14 1_555 1_555
C15 C14 1_555 1_555
H20 C15 1_555 1_555
H21 C15 1_555 1_555
C16 C15 1_555 1_555
H22 C16 1_555 1_555
H23 C16 1_555 1_555
C17 C16 1_555 1_555
H24 C17 1_555 1_555
H25 C17 1_555 1_555
C18 H26 1_555 1_555
H27 C18 1_555 1_555
C19 C18 1_555 1_555
C20 C19 1_555 1_555
C21 C20 1_555 1_555
C22 C21 1_555 1_555
H28 C22 1_555 1_555
H29 C22 1_555 1_555
C23 C21 1_555 1_555
H30 C23 1_555 1_555
C24 C23 1_555 1_555
C25 C19 1_555 1_555
H31 C25 1_555 1_555
C26 C24 1_555 1_555
H32 C26 1_555 1_555
H33 C26 1_555 1_555
H34 C26 1_555 1_555
C27 C28 1_555 1_555
C28 C29 1_555 1_555
C29 H35 1_555 1_555
C30 C29 1_555 1_555
H36 C30 1_555 1_555
C31 C30 1_555 1_555
H37 C31 1_555 1_555
C32 C31 1_555 1_555
C33 C28 1_555 1_555
H38 C33 1_555 1_555
C34 C32 1_555 1_555
C35 C36 1_555 1_555
C36 C37 1_555 1_555
C37 H39 1_555 1_555
C38 C37 1_555 1_555
H40 C38 1_555 1_555
C39 C38 1_555 1_555
H41 C39 1_555 1_555
C40 C39 1_555 1_555
C41 C36 1_555 1_555
H42 C41 1_555 1_555
C42 C40 1_555 1_555
O1 C5 1_555 1_555
O2 Cu1 1_555 1_555
O3 Cu2 1_555 1_555
O4 C27 1_555 1_555
O5 Cu1 1_555 1_555
O6 Cu3 1_555 1_555
O7 Cu3 1_555 1_555
O8 C35 1_555 1_555
O9 C42 1_555 1_555
O10 C42 1_555 1_555
N1 Cu2 1_555 1_555
H43 N1 1_555 1_555
N2 Cu1 1_555 1_555
H44 N2 1_555 1_555
N3 Cu1 1_555 1_555
H45 N3 1_555 1_555
N4 Cu2 1_555 1_555
H46 N4 1_555 1_555
C43 H47 1_555 1_555
H48 C43 1_555 1_555
H49 C43 1_555 1_555
C44 H50 1_555 1_555
H51 C44 1_555 1_555
H52 C44 1_555 1_555
C45 O11 1_555 1_555
N5 C43 1_555 1_555
O12 H53 1_555 1_555
H54 O12 1_555 1_555
O13 H55 1_555 1_555
H56 O13 1_555 1_555
O14 H57 1_555 1_555
Cu1B O1B 1_555 1_555
Cu2B O1B 1_555 1_555
C1B H1B 1_555 1_555
H2B C1B 1_555 1_555
H3B C1B 1_555 1_555
C2B C1B 1_555 1_555
C3B C2B 1_555 1_555
H4B C3B 1_555 1_555
C4B C3B 1_555 1_555
C5B C4B 1_555 1_555
C6B C5B 1_555 1_555
C7B C2B 1_555 1_555
H5B C7B 1_555 1_555
C8B C6B 1_555 1_555
H6B C8B 1_555 1_555
H7B C8B 1_555 1_555
C9B C4B 1_555 1_555
H8B C9B 1_555 1_555
H9B C9B 1_555 1_555
C10B H10B 1_555 1_555
H11B C10B 1_555 1_555
C11B C10B 1_555 1_555
H12B C11B 1_555 1_555
H13B C11B 1_555 1_555
C12B C11B 1_555 1_555
H14B C12B 1_555 1_555
H15B C12B 1_555 1_555
C13B C12B 1_555 1_555
H16B C13B 1_555 1_555
H17B C13B 1_555 1_555
C14B H18B 1_555 1_555
H19B C14B 1_555 1_555
C15B C14B 1_555 1_555
H20B C15B 1_555 1_555
H21B C15B 1_555 1_555
C16B C15B 1_555 1_555
H22B C16B 1_555 1_555
H23B C16B 1_555 1_555
C17B C16B 1_555 1_555
H24B C17B 1_555 1_555
H25B C17B 1_555 1_555
C18B H26B 1_555 1_555
H27B C18B 1_555 1_555
C19B C18B 1_555 1_555
C20B C19B 1_555 1_555
C21B C20B 1_555 1_555
C22B C21B 1_555 1_555
H28B C22B 1_555 1_555
H29B C22B 1_555 1_555
C23B C21B 1_555 1_555
H30B C23B 1_555 1_555
C24B C23B 1_555 1_555
C25B C19B 1_555 1_555
H31B C25B 1_555 1_555
C26B C24B 1_555 1_555
H32B C26B 1_555 1_555
H33B C26B 1_555 1_555
H34B C26B 1_555 1_555
C27B C28B 1_555 1_555
C28B C29B 1_555 1_555
C29B H35B 1_555 1_555
C30B C29B 1_555 1_555
H36B C30B 1_555 1_555
C31B C30B 1_555 1_555
H37B C31B 1_555 1_555
C32B C31B 1_555 1_555
C33B C28B 1_555 1_555
H38B C33B 1_555 1_555
C34B C32B 1_555 1_555
C35B C36B 1_555 1_555
C36B C37B 1_555 1_555
C37B H39B 1_555 1_555
C38B C37B 1_555 1_555
H40B C38B 1_555 1_555
C39B C38B 1_555 1_555
H41B C39B 1_555 1_555
C40B C39B 1_555 1_555
C41B C36B 1_555 1_555
H42B C41B 1_555 1_555
C42B C40B 1_555 1_555
O1B C5B 1_555 1_555
O2B Cu1B 1_555 1_555
O3B Cu2B 1_555 1_555
O4B C27B 1_555 1_555
O5B Cu3 1_555 1_555
O6B Cu3 1_555 1_555
O7B Cu3 1_555 1_555
O8B C35B 1_555 1_555
O9B C42B 1_555 1_555
O10B C42B 1_555 1_555
N1B Cu2B 1_555 1_555
H43B N1B 1_555 1_555
N2B Cu1B 1_555 1_555
H44B N2B 1_555 1_555
N3B Cu1B 1_555 1_555
H45B N3B 1_555 1_555
N4B Cu2B 1_555 1_555
H46B N4B 1_555 1_555
Cu4_2 O4B 1_555 1_555
Cu4A O9 1_555 1_555
Cu4A_2 O9B 1_555 1_555
O4B_2 Cu4 1_555 1_555
O9A Cu4 1_555 1_555
O9C Cu4 1_555 1_555
Cu2 O2 1_555 1_555
C6 C7 1_555 1_555
C8 N1 1_555 1_555
C9 N2 1_555 1_555
C10 N2 1_555 1_555
C13 N3 1_555 1_555
C14 N1 1_555 1_555
C17 N4 1_555 1_555
C18 N4 1_555 1_555
C20 O2 1_555 1_555
C22 N3 1_555 1_555
C24 C25 1_555 1_555
C27 O3 1_555 1_555
C32 C33 1_555 1_555
C34 O5 1_555 1_555
C34 O6 1_555 1_555
C35 O7 1_555 1_555
C40 C41 1_555 1_555
C44 N5 1_555 1_555
C45 N5 1_555 1_555
Cu1B O5B 1_555 1_555
Cu2B O2B 1_555 1_555
C6B C7B 1_555 1_555
C8B N1B 1_555 1_555
C9B N2B 1_555 1_555
C10B N2B 1_555 1_555
C13B N3B 1_555 1_555
C14B N1B 1_555 1_555
C17B N4B 1_555 1_555
C18B N4B 1_555 1_555
C20B O2B 1_555 1_555
C22B N3B 1_555 1_555
C24B C25B 1_555 1_555
C27B O3B 1_555 1_555
C32B C33B 1_555 1_555
C34B O5B 1_555 1_555
C34B O6B 1_555 1_555
C35B O7B 1_555 1_555
C40B C41B 1_555 1_555

#END
