
#######################################################################
#
#                 Cambridge Crystallographic Data Centre
#                                CCDC 
#
#######################################################################
#
# If this CIF has been generated from an entry in the Cambridge 
# Structural Database, then it will include bibliographic, chemical, 
# crystal, experimental, refinement or atomic coordinate data resulting 
# from the CCDC's data processing and validation procedures.
#
#######################################################################

data_SITTIA
_symmetry_cell_setting           monoclinic
_symmetry_space_group_name_H-M   'P 21/c'
_symmetry_Int_Tables_number      14
_space_group_name_Hall           '-P 2ybc'
loop_
_symmetry_equiv_pos_site_id
_symmetry_equiv_pos_as_xyz
1 x,y,z
2 -x,1/2+y,1/2-z
3 -x,-y,-z
4 x,1/2-y,1/2+z
_cell_length_a                   10.122(3)
_cell_length_b                   13.407(6)
_cell_length_c                   26.346(5)
_cell_angle_alpha                90
_cell_angle_beta                 97.217(4)
_cell_angle_gamma                90
_cell_volume                     3546.98
loop_
_atom_site_label
_atom_site_type_symbol
_atom_site_fract_x
_atom_site_fract_y
_atom_site_fract_z
Co1 Co 0.24605(6) 0.22645(5) 0.68040(2)
Co2 Co 0.21017(6) 0.29400(5) 0.56729(2)
Co3 Co -0.27266(6) 0.26325(5) 0.62165(2)
C1 C 0.3945(7) -0.2208(5) 0.5521(2)
H1 H 0.4130 -0.2609 0.5823
H2 H 0.4748 -0.2115 0.5368
H3 H 0.3292 -0.2537 0.5282
C2 C 0.3415(5) -0.1205(4) 0.5662(2)
C3 C 0.3273(5) -0.0962(4) 0.6170(2)
H4 H 0.3470 -0.1449 0.6419
C4 C 0.2857(5) -0.0044(4) 0.63198(18)
C5 C 0.2538(4) 0.0715(4) 0.59532(18)
C6 C 0.2607(5) 0.0471(4) 0.54339(19)
C7 C 0.3056(5) -0.0464(4) 0.53035(19)
H5 H 0.3119 -0.0598 0.4961
C8 C 0.2872(5) 0.0091(4) 0.68972(18)
H6 H 0.2698 -0.0554 0.7042
H7 H 0.3765 0.0287 0.7039
C9 C 0.2273(5) 0.1185(4) 0.49837(18)
H8 H 0.3099 0.1489 0.4911
H9 H 0.1937 0.0790 0.4687
C10 C 0.1874(5) 0.0693(4) 0.76316(18)
H10 H 0.1432 0.0066 0.7683
H11 H 0.1311 0.1221 0.7736
C11 C 0.3167(5) 0.0712(4) 0.7988(2)
H12 H 0.3664 0.0116 0.7923
H13 H 0.2951 0.0663 0.8335
C12 C 0.4085(5) 0.1598(4) 0.7964(2)
H14 H 0.4527 0.1536 0.7659
H15 H 0.4766 0.1572 0.8257
C13 C 0.3401(6) 0.2625(4) 0.79555(19)
H16 H 0.2522 0.2540 0.8060
H17 H 0.3908 0.3051 0.8206
C14 C 0.0946(5) 0.2496(4) 0.45364(19)
H18 H 0.0337 0.3030 0.4596
H19 H 0.0448 0.2023 0.4308
C15 C 0.2016(5) 0.2939(4) 0.42527(19)
H20 H 0.1577 0.3257 0.3946
H21 H 0.2540 0.2393 0.4143
C16 C 0.2982(5) 0.3698(4) 0.45285(19)
H22 H 0.3621 0.3342 0.4768
H23 H 0.3471 0.4012 0.4278
C17 C 0.2346(5) 0.4507(4) 0.48175(18)
H24 H 0.2689 0.5148 0.4725
H25 H 0.1393 0.4505 0.4710
C18 C 0.1344(7) 0.7539(4) 0.7022(2)
H26 H 0.1408 0.7565 0.7388
H27 H 0.0452 0.7702 0.6877
H28 H 0.1953 0.8010 0.6905
C19 C 0.1688(5) 0.6499(4) 0.6856(2)
C20 C 0.1977(5) 0.5733(4) 0.7205(2)
H29 H 0.2026 0.5878 0.7552
C21 C 0.2199(5) 0.4758(4) 0.70588(18)
C22 C 0.2144(5) 0.4506(4) 0.65379(18)
C23 C 0.1886(5) 0.5287(4) 0.61778(18)
C24 C 0.1667(5) 0.6254(4) 0.6342(2)
H30 H 0.1500 0.6756 0.6099
C25 C 0.2358(5) 0.4005(4) 0.74925(18)
H31 H 0.2673 0.4361 0.7805
H32 H 0.1482 0.3746 0.7531
C26 C 0.1716(5) 0.5142(4) 0.56007(18)
H33 H 0.0797 0.4955 0.5493
H34 H 0.1862 0.5780 0.5444
C27 C 0.0558(5) 0.0657(4) 0.6814(2)
H35 H 0.0101 0.0181 0.7007
H36 H 0.0588 0.0385 0.6474
C28 C -0.0211(5) 0.1637(4) 0.67715(19)
C29 C 0.0074(5) 0.1610(4) 0.52033(19)
H37 H 0.0271 0.1044 0.5429
H38 H -0.0523 0.1386 0.4908
C30 C -0.0616(5) 0.2422(4) 0.54839(18)
C31 C 0.4591(5) 0.3460(4) 0.7326(2)
H39 H 0.5199 0.3508 0.7640
H40 H 0.4510 0.4120 0.7174
C32 C 0.5183(5) 0.2768(4) 0.69638(19)
C33 C 0.3995(5) 0.4550(4) 0.55873(19)
H41 H 0.4053 0.4912 0.5908
H42 H 0.4403 0.4958 0.5346
C34 C 0.4766(5) 0.3586(4) 0.56722(18)
C35 C -0.3789(11) 0.0437(10) 0.6154(4)
H43 H -0.4305 0.0336 0.6437
H44 H -0.4194 0.0022 0.5876
C36 C -0.2518(13) 0.0031(15) 0.6310(5)
H45 H -0.2605 -0.0660 0.6395
H46 H -0.2104 0.0386 0.6604
H47 H -0.1979 0.0091 0.6037
N1 N 0.1942(4) 0.0807(3) 0.70703(14)
N2 N 0.1324(4) 0.1982(3) 0.50331(14)
N3 N 0.3257(4) 0.3140(3) 0.74534(14)
N4 N 0.2583(4) 0.4396(3) 0.53922(14)
O1 O 0.2140(3) 0.1626(3) 0.60861(12)
O2 O 0.2367(3) 0.3573(3) 0.63901(12)
O3 O 0.0423(3) 0.2435(3) 0.68913(13)
O4 O -0.1428(3) 0.1586(3) 0.66210(14)
O5 O 0.4497(3) 0.2046(3) 0.67848(13)
O6 O 0.6322(3) 0.2987(3) 0.68651(14)
O7 O 0.4129(3) 0.2771(3) 0.56270(13)
O8 O 0.5999(3) 0.3658(3) 0.57953(14)
O9 O 0.0040(3) 0.3203(3) 0.56119(13)
O10 O -0.1766(4) 0.2240(3) 0.55787(14)
O11 O -0.4010(4) 0.1435(3) 0.59943(18)
H48 H -0.459(7) 0.177(6) 0.585(3)
O12 O -0.1331(4) 0.3807(3) 0.64032(15)
H49 H -0.132(6) 0.432(3) 0.620(2)
H50 H -0.074(5) 0.356(5) 0.6632(18)
Co3_2 Co 0.72734(6) 0.26325(5) 0.62165(2)
O6_2 O -0.3678(3) 0.2987(3) 0.68651(14)
O8_2 O -0.4001(3) 0.3658(3) 0.57953(14)
loop_
_geom_bond_atom_site_label_1
_geom_bond_atom_site_label_2
_geom_bond_site_symmetry_1
_geom_bond_site_symmetry_2
Co1 N1 1_555 1_555
Co2 N2 1_555 1_555
Co3 O4 1_555 1_555
C1 H1 1_555 1_555
H2 C1 1_555 1_555
H3 C1 1_555 1_555
C2 C1 1_555 1_555
C3 C2 1_555 1_555
H4 C3 1_555 1_555
C4 C3 1_555 1_555
C5 C4 1_555 1_555
C6 C5 1_555 1_555
C7 C2 1_555 1_555
H5 C7 1_555 1_555
C8 C4 1_555 1_555
H6 C8 1_555 1_555
H7 C8 1_555 1_555
C9 C6 1_555 1_555
H8 C9 1_555 1_555
H9 C9 1_555 1_555
C10 H10 1_555 1_555
H11 C10 1_555 1_555
C11 C10 1_555 1_555
H12 C11 1_555 1_555
H13 C11 1_555 1_555
C12 C11 1_555 1_555
H14 C12 1_555 1_555
H15 C12 1_555 1_555
C13 C12 1_555 1_555
H16 C13 1_555 1_555
H17 C13 1_555 1_555
C14 H18 1_555 1_555
H19 C14 1_555 1_555
C15 C14 1_555 1_555
H20 C15 1_555 1_555
H21 C15 1_555 1_555
C16 C15 1_555 1_555
H22 C16 1_555 1_555
H23 C16 1_555 1_555
C17 C16 1_555 1_555
H24 C17 1_555 1_555
H25 C17 1_555 1_555
C18 H26 1_555 1_555
H27 C18 1_555 1_555
H28 C18 1_555 1_555
C19 C18 1_555 1_555
C20 C19 1_555 1_555
H29 C20 1_555 1_555
C21 C20 1_555 1_555
C22 C21 1_555 1_555
C23 C22 1_555 1_555
C24 C19 1_555 1_555
H30 C24 1_555 1_555
C25 C21 1_555 1_555
H31 C25 1_555 1_555
H32 C25 1_555 1_555
C26 C23 1_555 1_555
H33 C26 1_555 1_555
H34 C26 1_555 1_555
C27 H35 1_555 1_555
H36 C27 1_555 1_555
C28 C27 1_555 1_555
C29 H37 1_555 1_555
H38 C29 1_555 1_555
C30 C29 1_555 1_555
C31 H39 1_555 1_555
H40 C31 1_555 1_555
C32 C31 1_555 1_555
C33 H41 1_555 1_555
H42 C33 1_555 1_555
C34 C33 1_555 1_555
C35 H43 1_555 1_555
H44 C35 1_555 1_555
C36 C35 1_555 1_555
H45 C36 1_555 1_555
H46 C36 1_555 1_555
H47 C36 1_555 1_555
N1 C8 1_555 1_555
N2 C9 1_555 1_555
N3 Co1 1_555 1_555
N4 Co2 1_555 1_555
O1 Co1 1_555 1_555
O2 Co1 1_555 1_555
O3 Co1 1_555 1_555
O4 C28 1_555 1_555
O5 Co1 1_555 1_555
O6 C32 1_555 1_555
O7 Co2 1_555 1_555
O8 C34 1_555 1_555
O9 Co2 1_555 1_555
O10 Co3 1_555 1_555
O11 Co3 1_555 1_555
H48 O11 1_555 1_555
O12 Co3 1_555 1_555
H49 O12 1_555 1_555
H50 O12 1_555 1_555
Co3_2 O6 1_555 1_555
O6_2 Co3 1_555 1_555
O8_2 Co3 1_555 1_555
Co2 O1 1_555 1_555
Co2 O2 1_555 1_555
C5 O1 1_555 1_555
C6 C7 1_555 1_555
C10 N1 1_555 1_555
C13 N3 1_555 1_555
C14 N2 1_555 1_555
C17 N4 1_555 1_555
C22 O2 1_555 1_555
C23 C24 1_555 1_555
C25 N3 1_555 1_555
C26 N4 1_555 1_555
C27 N1 1_555 1_555
C28 O3 1_555 1_555
C29 N2 1_555 1_555
C30 O9 1_555 1_555
C30 O10 1_555 1_555
C31 N3 1_555 1_555
C32 O5 1_555 1_555
C33 N4 1_555 1_555
C34 O7 1_555 1_555
C35 O11 1_555 1_555
O8 Co3_2 1_555 1_555

#END
