
#######################################################################
#
#                 Cambridge Crystallographic Data Centre
#                                CCDC 
#
#######################################################################
#
# If this CIF has been generated from an entry in the Cambridge 
# Structural Database, then it will include bibliographic, chemical, 
# crystal, experimental, refinement or atomic coordinate data resulting 
# from the CCDC's data processing and validation procedures.
#
#######################################################################

data_SITTUM
_symmetry_cell_setting           tetragonal
_symmetry_space_group_name_H-M   'I 41/a'
_symmetry_Int_Tables_number      88
_space_group_name_Hall           '-I 4ad'
loop_
_symmetry_equiv_pos_site_id
_symmetry_equiv_pos_as_xyz
1 x,y,z
2 -x,1/2-y,z
3 3/4-y,1/4+x,1/4+z
4 1/4+y,1/4-x,1/4+z
5 1/2+x,1/2+y,1/2+z
6 1/2-x,-y,1/2+z
7 1/4-y,3/4+x,3/4+z
8 3/4+y,3/4-x,3/4+z
9 -x,-y,-z
10 x,1/2+y,-z
11 1/4+y,3/4-x,3/4-z
12 3/4-y,3/4+x,3/4-z
13 1/2-x,1/2-y,1/2-z
14 1/2+x,y,1/2-z
15 3/4+y,1/4-x,1/4-z
16 1/4-y,1/4+x,1/4-z
_cell_length_a                   27.150(7)
_cell_length_b                   27.150(7)
_cell_length_c                   13.122(3)
_cell_angle_alpha                90
_cell_angle_beta                 90
_cell_angle_gamma                90
_cell_volume                     9672.52
loop_
_atom_site_label
_atom_site_type_symbol
_atom_site_fract_x
_atom_site_fract_y
_atom_site_fract_z
Zn1 Zn 0.02485(3) 0.13802(3) 0.57299(7)
Zn2 Zn 0.08424(3) 0.11332(3) 0.38479(7)
C1 C 0.1906(3) -0.0448(3) 0.7418(7)
H1 H 0.1913 -0.0376 0.8134
H2 H 0.2237 -0.0493 0.7175
H3 H 0.1721 -0.0744 0.7303
C2 C 0.1671(2) -0.0031(2) 0.6860(7)
C3 C 0.1756(2) 0.0059(3) 0.5845(6)
H4 H 0.1977 -0.0143 0.5501
C4 C 0.1527(2) 0.0439(2) 0.5304(6)
C5 C 0.1186(2) 0.0742(2) 0.5820(6)
C6 C 0.1125(2) 0.0688(2) 0.6866(6)
C7 C 0.1356(2) 0.0297(3) 0.7396(6)
H5 H 0.1302 0.0255 0.8091
C8 C 0.0849(2) 0.1063(3) 0.7490(6)
H6 H 0.0880 0.0976 0.8204
H7 H 0.1005 0.1381 0.7397
C9 C 0.0073(2) 0.0627(2) 0.7425(6)
H8 H 0.0100 0.0550 0.8145
H9 H 0.0252 0.0376 0.7052
C10 C -0.0465(3) 0.0604(3) 0.7121(7)
H10 H -0.0502 0.0715 0.6423
H11 H -0.0656 0.0821 0.7556
C11 C -0.0659(3) 0.0078(3) 0.7217(8)
H12 H -0.0405 -0.0151 0.7003
H13 H -0.0736 0.0010 0.7925
C12 C 0.1683(3) 0.0542(3) 0.4231(6)
H14 H 0.1830 0.0867 0.4208
H15 H 0.1937 0.0306 0.4045
C13 C 0.0096(2) 0.1513(3) 0.7875(6)
H16 H -0.0032 0.1373 0.8501
H17 H 0.0354 0.1745 0.8056
C14 C -0.0309(2) 0.1784(2) 0.7343(6)
C15 C 0.1496(3) 0.0684(3) 0.2485(6)
H18 H 0.1274 0.0595 0.1937
H19 H 0.1805 0.0514 0.2371
C16 C 0.1584(4) 0.1227(4) 0.2455(7)
C17 C -0.0190(3) 0.0961(3) 0.3871(8)
C18 C -0.0644(3) 0.0808(5) 0.3306(9)
H20 H -0.0717 0.1047 0.2788
H21 H -0.0915 0.0787 0.3773
H22 H -0.0590 0.0493 0.2996
C19 C -0.1100(3) 0.0003(3) 0.6597(7)
H23 H -0.1031 0.0114 0.5910
H24 H -0.1361 0.0209 0.6866
N1 N 0.03129(18) 0.11108(19) 0.7237(5)
N2 N 0.1286(2) 0.0519(2) 0.3456(5)
O1 O 0.09373(16) 0.10983(16) 0.5316(4)
O2 O -0.03318(16) 0.17670(17) 0.6384(4)
O3 O -0.06059(17) 0.20290(17) 0.7859(4)
O4 O 0.1918(3) 0.1388(3) 0.1918(7)
O5 O 0.1296(2) 0.1501(2) 0.3010(5)
O6 O 0.0189(2) 0.1036(2) 0.3309(5)
O7 O -0.0195(2) 0.1002(2) 0.4793(5)
C1H C -0.1906(3) 0.0448(3) 0.2582(7)
H1H H -0.1913 0.0376 0.1866
H2H H -0.2237 0.0493 0.2825
H3H H -0.1721 0.0744 0.2697
C2H C -0.1671(2) 0.0031(2) 0.3140(7)
C3H C -0.1756(2) -0.0059(3) 0.4155(6)
H4H H -0.1977 0.0143 0.4499
C4H C -0.1527(2) -0.0439(2) 0.4696(6)
C5H C -0.1186(2) -0.0742(2) 0.4180(6)
C6H C -0.1125(2) -0.0688(2) 0.3134(6)
C7H C -0.1356(2) -0.0297(3) 0.2604(6)
H5H H -0.1302 -0.0255 0.1909
C8H C -0.0849(2) -0.1063(3) 0.2510(6)
H6H H -0.0880 -0.0976 0.1796
H7H H -0.1005 -0.1381 0.2603
C9H C -0.0073(2) -0.0627(2) 0.2575(6)
H8H H -0.0100 -0.0550 0.1855
H9H H -0.0252 -0.0376 0.2948
C10H C 0.0465(3) -0.0604(3) 0.2879(7)
H10H H 0.0502 -0.0715 0.3577
H11H H 0.0656 -0.0821 0.2444
C11H C 0.0659(3) -0.0078(3) 0.2783(8)
H12H H 0.0405 0.0151 0.2997
H13H H 0.0736 -0.0010 0.2075
C12H C -0.1683(3) -0.0542(3) 0.5769(6)
H14H H -0.1830 -0.0867 0.5792
H15H H -0.1937 -0.0306 0.5955
C13H C -0.0096(2) -0.1513(3) 0.2125(6)
H16H H 0.0032 -0.1373 0.1499
H17H H -0.0354 -0.1745 0.1944
C14H C 0.0309(2) -0.1784(2) 0.2657(6)
C15H C -0.1496(3) -0.0684(3) 0.7515(6)
H18H H -0.1274 -0.0595 0.8063
H19H H -0.1805 -0.0514 0.7629
C16H C -0.1584(4) -0.1227(4) 0.7545(7)
C19H C 0.1100(3) -0.0003(3) 0.3403(7)
H23H H 0.1031 -0.0114 0.4090
H24H H 0.1361 -0.0209 0.3134
N1H N -0.03129(18) -0.11108(19) 0.2763(5)
N2H N -0.1286(2) -0.0519(2) 0.6544(5)
O1H O -0.09373(16) -0.10983(16) 0.4684(4)
O2H O 0.03318(16) -0.17670(17) 0.3616(4)
O3H O 0.06059(17) -0.20290(17) 0.2141(4)
O4H O -0.1918(3) -0.1388(3) 0.8082(7)
O5H O -0.1296(2) -0.1501(2) 0.6990(5)
Zn1H Zn -0.02485(3) -0.13802(3) 0.42701(7)
Zn2H Zn -0.08424(3) -0.11332(3) 0.61521(7)
C17H C 0.0190(3) -0.0961(3) 0.6129(8)
C18H C 0.0644(3) -0.0808(5) 0.6694(9)
H20H H 0.0717 -0.1047 0.7212
H21H H 0.0915 -0.0787 0.6227
H22H H 0.0590 -0.0493 0.7004
O6H O -0.0189(2) -0.1036(2) 0.6691(5)
O7H O 0.0195(2) -0.1002(2) 0.5207(5)
Zn1F Zn 0.11198(3) -0.22515(3) 0.32299(7)
Zn1N Zn -0.11198(3) 0.22515(3) 0.67701(7)
Zn2F Zn 0.13668(3) -0.16576(3) 0.13479(7)
Zn2N Zn -0.13668(3) 0.16576(3) 0.86521(7)
O2G O -0.07330(17) -0.21682(16) 0.3884(4)
O2O O 0.07330(17) 0.21682(16) 0.6116(4)
O3G O -0.04710(17) -0.18941(17) 0.5359(4)
O3O O 0.04710(17) 0.18941(17) 0.4641(4)
O8 O 0.0781(11) 0.0397(16) 0.006(3)
H25 H 0.108(4) 0.033(11) -0.01(2)
loop_
_geom_bond_atom_site_label_1
_geom_bond_atom_site_label_2
_geom_bond_site_symmetry_1
_geom_bond_site_symmetry_2
Zn1 N1 1_555 1_555
Zn2 N2 1_555 1_555
C1 H1 1_555 1_555
H2 C1 1_555 1_555
H3 C1 1_555 1_555
C2 C1 1_555 1_555
C3 C2 1_555 1_555
H4 C3 1_555 1_555
C4 C3 1_555 1_555
C5 C4 1_555 1_555
C6 C5 1_555 1_555
C7 C2 1_555 1_555
H5 C7 1_555 1_555
C8 C6 1_555 1_555
H6 C8 1_555 1_555
H7 C8 1_555 1_555
C9 H8 1_555 1_555
H9 C9 1_555 1_555
C10 C9 1_555 1_555
H10 C10 1_555 1_555
H11 C10 1_555 1_555
C11 C10 1_555 1_555
H12 C11 1_555 1_555
H13 C11 1_555 1_555
C12 C4 1_555 1_555
H14 C12 1_555 1_555
H15 C12 1_555 1_555
C13 H16 1_555 1_555
H17 C13 1_555 1_555
C14 C13 1_555 1_555
C15 H18 1_555 1_555
H19 C15 1_555 1_555
C16 C15 1_555 1_555
C17 C18 1_555 1_555
C18 H20 1_555 1_555
H21 C18 1_555 1_555
H22 C18 1_555 1_555
C19 C11 1_555 1_555
H23 C19 1_555 1_555
H24 C19 1_555 1_555
N1 C8 1_555 1_555
N2 C12 1_555 1_555
O1 Zn1 1_555 1_555
O2 Zn1 1_555 1_555
O3 C14 1_555 1_555
O4 C16 1_555 1_555
O5 Zn2 1_555 1_555
O6 Zn2 1_555 1_555
O7 Zn1 1_555 1_555
O8 H25 1_555 1_555
C1H H1H 1_555 1_555
H2H C1H 1_555 1_555
H3H C1H 1_555 1_555
C2H C1H 1_555 1_555
C3H C2H 1_555 1_555
H4H C3H 1_555 1_555
C4H C3H 1_555 1_555
C5H C4H 1_555 1_555
C6H C5H 1_555 1_555
C7H C2H 1_555 1_555
H5H C7H 1_555 1_555
C8H C6H 1_555 1_555
H6H C8H 1_555 1_555
H7H C8H 1_555 1_555
C9H H8H 1_555 1_555
H9H C9H 1_555 1_555
C10H C9H 1_555 1_555
H10H C10H 1_555 1_555
H11H C10H 1_555 1_555
C11H C10H 1_555 1_555
H12H C11H 1_555 1_555
H13H C11H 1_555 1_555
C12H C4H 1_555 1_555
H14H C12H 1_555 1_555
H15H C12H 1_555 1_555
C13H H16H 1_555 1_555
H17H C13H 1_555 1_555
C14H C13H 1_555 1_555
C15H H18H 1_555 1_555
H19H C15H 1_555 1_555
C16H C15H 1_555 1_555
C19H N2 1_555 1_555
H23H C19H 1_555 1_555
H24H C19H 1_555 1_555
N1H C8H 1_555 1_555
N2H C19 1_555 1_555
O1H C5H 1_555 1_555
O2H C14H 1_555 1_555
O3H C14H 1_555 1_555
O4H C16H 1_555 1_555
O5H C16H 1_555 1_555
Zn1H N1H 1_555 1_555
Zn2H N2H 1_555 1_555
C17H C18H 1_555 1_555
C18H H20H 1_555 1_555
H21H C18H 1_555 1_555
H22H C18H 1_555 1_555
O6H Zn2H 1_555 1_555
O7H Zn1H 1_555 1_555
Zn1F O2H 1_555 1_555
Zn1N O2 1_555 1_555
Zn2F O3H 1_555 1_555
Zn2N O3 1_555 1_555
O2G Zn1H 1_555 1_555
O2O Zn1 1_555 1_555
O3G Zn1H 1_555 1_555
O3O Zn1 1_555 1_555
Zn2 O1 1_555 1_555
Zn2 O3O 1_555 1_555
C5 O1 1_555 1_555
C6 C7 1_555 1_555
C9 N1 1_555 1_555
C13 N1 1_555 1_555
C14 O2 1_555 1_555
C15 N2 1_555 1_555
C16 O5 1_555 1_555
C17 O6 1_555 1_555
C17 O7 1_555 1_555
O3 Zn1N 1_555 1_555
C6H C7H 1_555 1_555
C9H N1H 1_555 1_555
C11H C19H 1_555 1_555
C12H N2H 1_555 1_555
C13H N1H 1_555 1_555
C15H N2H 1_555 1_555
O1H Zn1H 1_555 1_555
O1H Zn2H 1_555 1_555
O2H Zn1H 1_555 1_555
O3H Zn1F 1_555 1_555
O5H Zn2H 1_555 1_555
Zn2H O3G 1_555 1_555
C17H O6H 1_555 1_555
C17H O7H 1_555 1_555

#END
