
#######################################################################
#
#                 Cambridge Crystallographic Data Centre
#                                CCDC 
#
#######################################################################
#
# If this CIF has been generated from an entry in the Cambridge 
# Structural Database, then it will include bibliographic, chemical, 
# crystal, experimental, refinement or atomic coordinate data resulting 
# from the CCDC's data processing and validation procedures.
#
#######################################################################

data_SITVOH
_symmetry_cell_setting           triclinic
_symmetry_space_group_name_H-M   'P -1'
_symmetry_Int_Tables_number      2
_space_group_name_Hall           '-P 1'
loop_
_symmetry_equiv_pos_site_id
_symmetry_equiv_pos_as_xyz
1 x,y,z
2 -x,-y,-z
_cell_length_a                   8.0693(10)
_cell_length_b                   9.4513(12)
_cell_length_c                   12.1644(15)
_cell_angle_alpha                93.480(2)
_cell_angle_beta                 92.836(2)
_cell_angle_gamma                108.276(2)
_cell_volume                     877.001
loop_
_atom_site_label
_atom_site_type_symbol
_atom_site_fract_x
_atom_site_fract_y
_atom_site_fract_z
Pr1 Pr 1.265824(19) 0.560457(15) 0.442635(12)
O1 O 0.9445(3) 0.3615(2) 0.44294(16)
O2 O 1.0389(3) 0.4480(2) 0.28500(17)
O3 O 0.6682(3) 0.4837(2) 0.37019(16)
O4 O 0.4687(3) 0.5772(3) 0.29933(18)
O5 O 1.2888(3) 0.3153(2) 0.41210(19)
O6 O 1.4855(3) 0.2232(2) 0.48826(18)
C1 C 0.9292(4) 0.3565(3) 0.3367(2)
C2 C 0.7847(4) 0.2317(3) 0.2786(2)
C3 C 0.7532(4) 0.0905(4) 0.3179(3)
H1 H 0.8185 0.0799 0.3802
C4 C 0.6270(5) -0.0335(4) 0.2660(3)
H2 H 0.6075 -0.1271 0.2926
C5 C 0.5308(5) -0.0163(4) 0.1743(3)
H3 H 0.4465 -0.0993 0.1382
C6 C 0.5579(4) 0.1237(4) 0.1350(3)
H4 H 0.4897 0.1332 0.0738
C7 C 0.6858(4) 0.2505(3) 0.1858(2)
C8 C 0.7103(4) 0.3949(3) 0.1337(2)
C9 C 0.7714(4) 0.4010(4) 0.0281(3)
H5 H 0.8055 0.3223 -0.0014
C10 C 0.7824(5) 0.5222(4) -0.0339(3)
H6 H 0.8257 0.5251 -0.1035
C11 C 0.7291(5) 0.6370(4) 0.0083(3)
H7 H 0.7356 0.7181 -0.0328
C12 C 0.6658(4) 0.6326(4) 0.1120(3)
H8 H 0.6272 0.7101 0.1391
C13 C 0.6584(4) 0.5140(3) 0.1771(2)
C14 C 0.5931(4) 0.5244(3) 0.2904(2)
C15 C 1.3514(4) 0.2122(3) 0.4272(3)
C16 C 1.2579(4) 0.0626(3) 0.3652(3)
C17 C 1.2850(4) -0.0667(3) 0.3992(3)
H9 H 1.3622 -0.0576 0.4606
N1 N 1.2071(3) -0.2035(3) 0.3493(2)
C18 C 1.0990(4) -0.2135(4) 0.2595(3)
H10 H 1.0436 -0.3072 0.2231
C19 C 1.0666(5) -0.0902(4) 0.2188(3)
H11 H 0.9921 -0.1015 0.1558
C20 C 1.1459(4) 0.0500(4) 0.2728(3)
H12 H 1.1243 0.1339 0.2475
Pr1A Pr 0.734176(19) 0.439543(15) 0.557365(12)
Pr1_2 Pr 0.265824(19) 0.560457(15) 0.442635(12)
Pr1A_2 Pr 1.734176(19) 0.439543(15) 0.557365(12)
Pr1_3 Pr 1.265824(19) -0.439543(15) 0.442635(12)
O1A O 1.0555(3) 0.6385(2) 0.55706(16)
O3A O 1.3318(3) 0.5163(2) 0.62981(16)
O4_2 O 1.4687(3) 0.5772(3) 0.29933(18)
O6A O 1.5145(3) 0.7768(2) 0.51174(18)
N1_2 N 1.2071(3) 0.7965(3) 0.3493(2)
loop_
_geom_bond_atom_site_label_1
_geom_bond_atom_site_label_2
_geom_bond_site_symmetry_1
_geom_bond_site_symmetry_2
Pr1 O1 1_555 1_555
O1 C1 1_555 1_555
O2 Pr1 1_555 1_555
O3 C14 1_555 1_555
O4 C14 1_555 1_555
O5 Pr1 1_555 1_555
O6 C15 1_555 1_555
C1 O2 1_555 1_555
C2 C1 1_555 1_555
C3 C2 1_555 1_555
H1 C3 1_555 1_555
C4 C3 1_555 1_555
H2 C4 1_555 1_555
C5 C4 1_555 1_555
H3 C5 1_555 1_555
C6 C5 1_555 1_555
H4 C6 1_555 1_555
C7 C2 1_555 1_555
C8 C7 1_555 1_555
C9 C8 1_555 1_555
H5 C9 1_555 1_555
C10 C9 1_555 1_555
H6 C10 1_555 1_555
C11 C10 1_555 1_555
H7 C11 1_555 1_555
C12 C11 1_555 1_555
H8 C12 1_555 1_555
C13 C8 1_555 1_555
C14 C13 1_555 1_555
C15 O5 1_555 1_555
C16 C15 1_555 1_555
C17 C16 1_555 1_555
H9 C17 1_555 1_555
N1 C17 1_555 1_555
C18 N1 1_555 1_555
H10 C18 1_555 1_555
C19 C18 1_555 1_555
H11 C19 1_555 1_555
C20 C16 1_555 1_555
H12 C20 1_555 1_555
Pr1A O1 1_555 1_555
Pr1_2 O4 1_555 1_555
Pr1A_2 O6 1_555 1_555
Pr1_3 N1 1_555 1_555
O1A Pr1 1_555 1_555
O3A Pr1 1_555 1_555
O4_2 Pr1 1_555 1_555
O6A Pr1 1_555 1_555
N1_2 Pr1 1_555 1_555
O3 Pr1A 1_555 1_555
C6 C7 1_555 1_555
C12 C13 1_555 1_555
C19 C20 1_555 1_555
Pr1A O1A 1_555 1_555

#END
