
#######################################################################
#
#                 Cambridge Crystallographic Data Centre
#                                CCDC 
#
#######################################################################
#
# If this CIF has been generated from an entry in the Cambridge 
# Structural Database, then it will include bibliographic, chemical, 
# crystal, experimental, refinement or atomic coordinate data resulting 
# from the CCDC's data processing and validation procedures.
#
#######################################################################

data_SITWOJ
_symmetry_cell_setting           monoclinic
_symmetry_space_group_name_H-M   'P 21/n'
_symmetry_Int_Tables_number      14
_space_group_name_Hall           '-P 2yn'
loop_
_symmetry_equiv_pos_site_id
_symmetry_equiv_pos_as_xyz
1 x,y,z
2 1/2-x,1/2+y,1/2-z
3 -x,-y,-z
4 1/2+x,1/2-y,1/2+z
_cell_length_a                   9.4051(7)
_cell_length_b                   15.1458(11)
_cell_length_c                   14.3526(10)
_cell_angle_alpha                90
_cell_angle_beta                 101.954(1)
_cell_angle_gamma                90
_cell_volume                     2000.16
loop_
_atom_site_label
_atom_site_type_symbol
_atom_site_fract_x
_atom_site_fract_y
_atom_site_fract_z
Er1 Er 0.250587(11) 0.006694(7) 0.482401(8)
N1 N 0.3980(2) 0.10874(13) 0.82575(14)
N2 N 0.3110(2) 0.18040(14) 0.82378(15)
N3 N 0.4802(2) 0.29786(13) 0.51989(15)
N4 N 0.4399(3) 0.37813(14) 0.48224(15)
N5 N -0.0355(2) 0.28632(13) 0.63151(15)
N6 N -0.0843(2) 0.27463(14) 0.71331(15)
O1 O 0.37176(17) 0.06877(10) 0.63618(11)
O2 O 0.21572(18) -0.03884(11) 0.64268(12)
O3 O 0.34064(18) 0.14388(11) 0.44870(12)
O4 O 0.55321(19) 0.07865(11) 0.45847(13)
O5 O 0.07521(19) 0.09296(11) 0.51850(12)
O6 O -0.13690(18) 0.12903(11) 0.55236(12)
O7 O 0.0748(2) 0.03531(13) 0.34089(13)
O8 O 0.3355(2) -0.04089(14) 0.34741(14)
C1 C 0.3055(3) 0.01903(15) 0.68267(18)
C2 C 0.3326(3) 0.02620(17) 0.78978(19)
H1 H 0.2410 0.0194 0.8100
H2 H 0.3957 -0.0218 0.8175
C3 C 0.4040(3) 0.24686(18) 0.84937(18)
H3 H 0.3759 0.3051 0.8552
C4 C 0.5487(3) 0.21850(19) 0.86636(19)
H4 H 0.6321 0.2526 0.8847
C5 C 0.5405(3) 0.12968(18) 0.84999(18)
H5 H 0.6184 0.0909 0.8546
C6 C 0.4766(3) 0.14621(16) 0.45827(17)
C7 C 0.5539(3) 0.23446(16) 0.47032(18)
H6 H 0.6525 0.2261 0.5059
H7 H 0.5589 0.2577 0.4081
C8 C 0.3848(3) 0.41835(17) 0.54940(19)
H8 H 0.3477 0.4755 0.5438
C9 C 0.3891(3) 0.36496(17) 0.62881(18)
H9 H 0.3565 0.3782 0.6841
C10 C 0.4523(3) 0.28858(17) 0.60692(18)
H10 H 0.4722 0.2390 0.6457
C11 C -0.0051(3) 0.14275(15) 0.55435(17)
C12 C 0.0667(3) 0.22395(16) 0.60592(18)
H11 H 0.1337 0.2053 0.6633
H12 H 0.1228 0.2534 0.5655
C13 C -0.1841(3) 0.33746(17) 0.71133(19)
H13 H -0.2363 0.3461 0.7590
C14 C -0.2006(3) 0.38851(17) 0.62939(19)
H14 H -0.2630 0.4361 0.6120
C15 C -0.1043(3) 0.35318(16) 0.57976(19)
H15 H -0.0895 0.3722 0.5209
H16 H 0.419(5) -0.047(3) 0.349(3)
H17 H 0.072(5) 0.002(3) 0.299(4)
H18 H -0.006(5) 0.037(3) 0.349(3)
H19 H 0.286(5) -0.064(3) 0.307(3)
Er1B Er -0.250587(11) -0.006694(7) 0.517599(8)
Er1B_2 Er 0.749413(11) -0.006694(7) 0.517599(8)
O4B O 0.44679(19) -0.07865(11) 0.54153(13)
O6B O 0.13690(18) -0.12903(11) 0.44764(12)
O9 O 0.6028(2) 0.59928(12) 0.71660(14)
H20 H 0.579(5) 0.603(3) 0.657(3)
H21 H 0.586(5) 0.648(3) 0.731(3)
loop_
_geom_bond_atom_site_label_1
_geom_bond_atom_site_label_2
_geom_bond_site_symmetry_1
_geom_bond_site_symmetry_2
Er1 O1 1_555 1_555
N1 N2 1_555 1_555
N2 C3 1_555 1_555
N3 N4 1_555 1_555
N4 C8 1_555 1_555
N5 N6 1_555 1_555
N6 C13 1_555 1_555
O1 C1 1_555 1_555
O2 Er1 1_555 1_555
O3 Er1 1_555 1_555
O4 C6 1_555 1_555
O5 Er1 1_555 1_555
O6 C11 1_555 1_555
O7 Er1 1_555 1_555
O8 Er1 1_555 1_555
C1 O2 1_555 1_555
C2 N1 1_555 1_555
H1 C2 1_555 1_555
H2 C2 1_555 1_555
C3 H3 1_555 1_555
C4 C3 1_555 1_555
H4 C4 1_555 1_555
C5 N1 1_555 1_555
H5 C5 1_555 1_555
C6 O3 1_555 1_555
C7 N3 1_555 1_555
H6 C7 1_555 1_555
H7 C7 1_555 1_555
C8 H8 1_555 1_555
C9 C8 1_555 1_555
H9 C9 1_555 1_555
C10 N3 1_555 1_555
H10 C10 1_555 1_555
C11 O5 1_555 1_555
C12 N5 1_555 1_555
H11 C12 1_555 1_555
H12 C12 1_555 1_555
C13 H13 1_555 1_555
C14 C13 1_555 1_555
H14 C14 1_555 1_555
C15 N5 1_555 1_555
H15 C15 1_555 1_555
H16 O8 1_555 1_555
H17 O7 1_555 1_555
H18 O7 1_555 1_555
H19 O8 1_555 1_555
O9 H20 1_555 1_555
H21 O9 1_555 1_555
Er1B O6 1_555 1_555
Er1B_2 O4 1_555 1_555
O4B Er1 1_555 1_555
O6B Er1 1_555 1_555
C1 C2 1_555 1_555
C4 C5 1_555 1_555
C6 C7 1_555 1_555
C9 C10 1_555 1_555
C11 C12 1_555 1_555
C14 C15 1_555 1_555

#END
