
#######################################################################
#
#                 Cambridge Crystallographic Data Centre
#                                CCDC 
#
#######################################################################
#
# If this CIF has been generated from an entry in the Cambridge 
# Structural Database, then it will include bibliographic, chemical, 
# crystal, experimental, refinement or atomic coordinate data resulting 
# from the CCDC's data processing and validation procedures.
#
#######################################################################

data_SITWID
_symmetry_cell_setting           monoclinic
_symmetry_space_group_name_H-M   'P 21/n'
_symmetry_Int_Tables_number      14
_space_group_name_Hall           '-P 2yn'
loop_
_symmetry_equiv_pos_site_id
_symmetry_equiv_pos_as_xyz
1 x,y,z
2 1/2-x,1/2+y,1/2-z
3 -x,-y,-z
4 1/2+x,1/2-y,1/2+z
_cell_length_a                   9.2976(8)
_cell_length_b                   15.2803(13)
_cell_length_c                   14.3756(13)
_cell_angle_alpha                90
_cell_angle_beta                 100.969(1)
_cell_angle_gamma                90
_cell_volume                     2005.03
loop_
_atom_site_label
_atom_site_type_symbol
_atom_site_fract_x
_atom_site_fract_y
_atom_site_fract_z
Dy1 Dy 0.257572(11) 0.007800(6) 0.479946(8)
N1 N 0.3926(2) 0.10958(12) 0.82322(13)
N2 N 0.3046(2) 0.18046(13) 0.82150(14)
N3 N 0.4832(2) 0.29892(12) 0.52006(14)
N4 N 0.4407(2) 0.37747(13) 0.48145(14)
N5 N -0.0347(2) 0.28476(12) 0.62915(14)
N6 N -0.0849(2) 0.27402(13) 0.71117(14)
O1 O 0.37205(16) 0.07040(10) 0.63461(11)
O2 O 0.22056(17) -0.03976(10) 0.64139(11)
O3 O 0.33089(17) 0.15148(10) 0.44457(11)
O4 O 0.53815(18) 0.07869(10) 0.46266(12)
O5 O 0.07321(17) 0.09030(10) 0.51819(11)
O6 O -0.14078(16) 0.12841(10) 0.55204(11)
O7 O 0.07446(19) 0.03485(12) 0.33964(13)
O8 O 0.33630(18) -0.04124(13) 0.34182(13)
C1 C 0.3056(2) 0.01953(14) 0.68101(17)
C2 C 0.3277(3) 0.02764(15) 0.78778(17)
H1 H 0.2337 0.0215 0.8069
H2 H 0.3900 -0.0198 0.8164
C3 C 0.3984(3) 0.24642(17) 0.84705(17)
H3 H 0.3699 0.3041 0.8533
C4 C 0.5441(3) 0.21851(18) 0.86333(18)
H4 H 0.6280 0.2524 0.8812
C5 C 0.5361(3) 0.13041(17) 0.84709(17)
H5 H 0.6147 0.0920 0.8516
C6 C 0.4683(2) 0.14962(14) 0.45796(16)
C7 C 0.5540(2) 0.23403(14) 0.46997(17)
H6 H 0.6521 0.2228 0.5051
H7 H 0.5622 0.2567 0.4082
C8 C 0.3844(3) 0.41807(16) 0.54846(18)
H8 H 0.3456 0.4743 0.5422
C9 C 0.3905(3) 0.36671(16) 0.62858(18)
H9 H 0.3582 0.3807 0.6841
C10 C 0.4549(3) 0.29097(15) 0.60744(17)
H10 H 0.4754 0.2424 0.6468
C11 C -0.0077(2) 0.14082(14) 0.55309(16)
C12 C 0.0661(2) 0.22192(14) 0.60259(17)
H11 H 0.1341 0.2037 0.6591
H12 H 0.1225 0.2502 0.5609
C13 C -0.1829(3) 0.33798(16) 0.71014(18)
H13 H -0.2358 0.3474 0.7580
C14 C -0.1963(3) 0.38887(16) 0.62858(18)
H14 H -0.2568 0.4371 0.6120
C15 C -0.1009(3) 0.35232(15) 0.57832(17)
H15 H -0.0846 0.3708 0.5196
H16 H -0.004(5) 0.035(3) 0.354(3)
H17 H 0.069(5) 0.003(2) 0.299(4)
H18 H 0.408(5) -0.054(3) 0.341(3)
H19 H 0.280(4) -0.070(3) 0.299(3)
Dy1B Dy -0.257572(11) -0.007800(6) 0.520054(8)
Dy1B_2 Dy 0.742428(11) -0.007800(6) 0.520054(8)
O4B O 0.46185(18) -0.07869(10) 0.53734(12)
O6B O 0.14078(16) -0.12841(10) 0.44796(11)
O9 O 0.6005(2) 0.60103(11) 0.71688(13)
H20 H 0.587(4) 0.645(3) 0.733(3)
H21 H 0.576(5) 0.598(3) 0.663(3)
loop_
_geom_bond_atom_site_label_1
_geom_bond_atom_site_label_2
_geom_bond_site_symmetry_1
_geom_bond_site_symmetry_2
Dy1 O1 1_555 1_555
N1 N2 1_555 1_555
N2 C3 1_555 1_555
N3 N4 1_555 1_555
N4 C8 1_555 1_555
N5 N6 1_555 1_555
N6 C13 1_555 1_555
O1 C1 1_555 1_555
O2 Dy1 1_555 1_555
O3 Dy1 1_555 1_555
O4 Dy1 1_555 1_555
O5 Dy1 1_555 1_555
O6 C11 1_555 1_555
O7 Dy1 1_555 1_555
O8 Dy1 1_555 1_555
C1 O2 1_555 1_555
C2 N1 1_555 1_555
H1 C2 1_555 1_555
H2 C2 1_555 1_555
C3 H3 1_555 1_555
C4 C3 1_555 1_555
H4 C4 1_555 1_555
C5 N1 1_555 1_555
H5 C5 1_555 1_555
C6 O3 1_555 1_555
C7 N3 1_555 1_555
H6 C7 1_555 1_555
H7 C7 1_555 1_555
C8 H8 1_555 1_555
C9 C8 1_555 1_555
H9 C9 1_555 1_555
C10 N3 1_555 1_555
H10 C10 1_555 1_555
C11 O5 1_555 1_555
C12 N5 1_555 1_555
H11 C12 1_555 1_555
H12 C12 1_555 1_555
C13 H13 1_555 1_555
C14 C13 1_555 1_555
H14 C14 1_555 1_555
C15 N5 1_555 1_555
H15 C15 1_555 1_555
H16 O7 1_555 1_555
H17 O7 1_555 1_555
H18 O8 1_555 1_555
H19 O8 1_555 1_555
O9 H20 1_555 1_555
H21 O9 1_555 1_555
Dy1B O6 1_555 1_555
Dy1B_2 O4 1_555 1_555
O4B Dy1 1_555 1_555
O6B Dy1 1_555 1_555
O4 C6 1_555 1_555
C1 C2 1_555 1_555
C4 C5 1_555 1_555
C6 C7 1_555 1_555
C9 C10 1_555 1_555
C11 C12 1_555 1_555
C14 C15 1_555 1_555
Dy1B_2 O4B 1_555 1_555

#END
