
#######################################################################
#
#                 Cambridge Crystallographic Data Centre
#                                CCDC 
#
#######################################################################
#
# If this CIF has been generated from an entry in the Cambridge 
# Structural Database, then it will include bibliographic, chemical, 
# crystal, experimental, refinement or atomic coordinate data resulting 
# from the CCDC's data processing and validation procedures.
#
#######################################################################

data_SITWAV
_symmetry_cell_setting           monoclinic
_symmetry_space_group_name_H-M   'P 21/n'
_symmetry_Int_Tables_number      14
_space_group_name_Hall           '-P 2yn'
loop_
_symmetry_equiv_pos_site_id
_symmetry_equiv_pos_as_xyz
1 x,y,z
2 1/2-x,1/2+y,1/2-z
3 -x,-y,-z
4 1/2+x,1/2-y,1/2+z
_cell_length_a                   9.2515(5)
_cell_length_b                   15.3810(8)
_cell_length_c                   14.4142(7)
_cell_angle_alpha                90
_cell_angle_beta                 100.2910(10)
_cell_angle_gamma                90
_cell_volume                     2018.11
loop_
_atom_site_label
_atom_site_type_symbol
_atom_site_fract_x
_atom_site_fract_y
_atom_site_fract_z
Eu1 Eu 0.261616(15) 0.008161(8) 0.478959(10)
N1 N 0.3878(3) 0.11043(15) 0.82301(17)
N2 N 0.3004(3) 0.18150(17) 0.82077(18)
N3 N 0.4857(3) 0.29902(15) 0.52044(17)
N4 N 0.4404(3) 0.37652(16) 0.48047(18)
N5 N -0.0330(3) 0.28509(16) 0.62806(17)
N6 N -0.0841(3) 0.27469(16) 0.70996(18)
O1 O 0.3708(2) 0.07184(12) 0.63540(13)
O2 O 0.2226(2) -0.03969(13) 0.64189(14)
O3 O 0.3244(2) 0.15766(13) 0.44265(14)
O4 O 0.5252(2) 0.07886(12) 0.46330(14)
O5 O 0.0701(2) 0.08964(13) 0.51800(14)
O6 O -0.1440(2) 0.13077(12) 0.55182(14)
O7 O 0.0734(2) 0.03278(13) 0.33802(14)
O8 O 0.3375(2) -0.04501(14) 0.33756(14)
C1 C 0.3042(3) 0.02038(18) 0.6813(2)
C2 C 0.3214(4) 0.0298(2) 0.7876(2)
H1 H 0.2253 0.0252 0.8053
H2 H 0.3809 -0.0179 0.8173
C3 C 0.3962(4) 0.2462(2) 0.8458(2)
H3 H 0.3692 0.3039 0.8518
C4 C 0.5402(4) 0.2173(2) 0.8616(2)
H4 H 0.6247 0.2505 0.8790
C5 C 0.5319(3) 0.1298(2) 0.8463(2)
H5 H 0.6101 0.0912 0.8510
C6 C 0.4610(3) 0.15195(18) 0.45746(19)
C7 C 0.5538(3) 0.23351(18) 0.4706(2)
H6 H 0.6505 0.2197 0.5058
H7 H 0.5656 0.2559 0.4095
C8 C 0.3843(4) 0.4176(2) 0.5474(2)
H8 H 0.3445 0.4733 0.5406
C9 C 0.3923(4) 0.3677(2) 0.6284(2)
H9 H 0.3599 0.3824 0.6838
C10 C 0.4581(3) 0.29219(19) 0.6087(2)
H10 H 0.4798 0.2448 0.6488
C11 C -0.0104(3) 0.14178(18) 0.55244(19)
C12 C 0.0655(3) 0.22160(18) 0.6008(2)
H11 H 0.1334 0.2031 0.6566
H12 H 0.1227 0.2489 0.5586
C13 C -0.1808(3) 0.3392(2) 0.7098(2)
H13 H -0.2334 0.3491 0.7581
C14 C -0.1932(4) 0.3894(2) 0.6292(2)
H14 H -0.2531 0.4377 0.6134
C15 C -0.0978(3) 0.35256(19) 0.5778(2)
H15 H -0.0812 0.3708 0.5192
Eu1B Eu -0.261616(15) -0.008161(8) 0.521041(10)
Eu1B_2 Eu 0.738384(15) -0.008161(8) 0.521041(10)
O4B O 0.4748(2) -0.07886(12) 0.53670(14)
O6B O 0.1440(2) -0.13077(12) 0.44818(14)
O9 O 0.5984(2) 0.60393(13) 0.71637(14)
loop_
_geom_bond_atom_site_label_1
_geom_bond_atom_site_label_2
_geom_bond_site_symmetry_1
_geom_bond_site_symmetry_2
Eu1 O1 1_555 1_555
N1 N2 1_555 1_555
N2 C3 1_555 1_555
N3 N4 1_555 1_555
N4 C8 1_555 1_555
N5 N6 1_555 1_555
N6 C13 1_555 1_555
O1 C1 1_555 1_555
O2 Eu1 1_555 1_555
O3 Eu1 1_555 1_555
O4 Eu1 1_555 1_555
O5 Eu1 1_555 1_555
O6 C11 1_555 1_555
O7 Eu1 1_555 1_555
O8 Eu1 1_555 1_555
C1 O2 1_555 1_555
C2 N1 1_555 1_555
H1 C2 1_555 1_555
H2 C2 1_555 1_555
C3 H3 1_555 1_555
C4 C3 1_555 1_555
H4 C4 1_555 1_555
C5 N1 1_555 1_555
H5 C5 1_555 1_555
C6 O3 1_555 1_555
C7 N3 1_555 1_555
H6 C7 1_555 1_555
H7 C7 1_555 1_555
C8 H8 1_555 1_555
C9 C8 1_555 1_555
H9 C9 1_555 1_555
C10 N3 1_555 1_555
H10 C10 1_555 1_555
C11 O5 1_555 1_555
C12 N5 1_555 1_555
H11 C12 1_555 1_555
H12 C12 1_555 1_555
C13 H13 1_555 1_555
C14 C13 1_555 1_555
H14 C14 1_555 1_555
C15 N5 1_555 1_555
H15 C15 1_555 1_555
Eu1B O6 1_555 1_555
Eu1B_2 O4 1_555 1_555
O4B Eu1 1_555 1_555
O6B Eu1 1_555 1_555
O4 C6 1_555 1_555
C1 C2 1_555 1_555
C4 C5 1_555 1_555
C6 C7 1_555 1_555
C9 C10 1_555 1_555
C11 C12 1_555 1_555
C14 C15 1_555 1_555
Eu1B_2 O4B 1_555 1_555

#END
