
#######################################################################
#
#                 Cambridge Crystallographic Data Centre
#                                CCDC 
#
#######################################################################
#
# If this CIF has been generated from an entry in the Cambridge 
# Structural Database, then it will include bibliographic, chemical, 
# crystal, experimental, refinement or atomic coordinate data resulting 
# from the CCDC's data processing and validation procedures.
#
#######################################################################

data_SIVCUX
_symmetry_cell_setting           orthorhombic
_symmetry_space_group_name_H-M   'P c a 21'
_symmetry_Int_Tables_number      29
_space_group_name_Hall           'P 2c -2ac'
loop_
_symmetry_equiv_pos_site_id
_symmetry_equiv_pos_as_xyz
1 x,y,z
2 -x,-y,1/2+z
3 1/2-x,y,1/2+z
4 1/2+x,-y,z
_cell_length_a                   21.7550(13)
_cell_length_b                   10.0835(4)
_cell_length_c                   6.2678(3)
_cell_angle_alpha                90
_cell_angle_beta                 90
_cell_angle_gamma                90
_cell_volume                     1374.95
loop_
_atom_site_label
_atom_site_type_symbol
_atom_site_fract_x
_atom_site_fract_y
_atom_site_fract_z
C1 C 0.3768(2) 0.8014(4) 0.4768(7)
H1 H 0.3894 0.8048 0.3284
H2 H 0.3324 0.7945 0.4820
C2 C 0.40593(17) 0.6824(3) 0.5862(6)
H3 H 0.3866 0.6670 0.7234
H4 H 0.4008 0.6036 0.4993
C3 C 0.51162(19) 0.6189(4) 0.6016(6)
H5 H 0.4979 0.5339 0.5691
C4 C 0.57736(17) 0.6375(3) 0.6338(8)
C5 C 0.60434(18) 0.7612(4) 0.6961(6)
C6 C 0.6692(2) 0.7657(4) 0.7203(8)
H6 H 0.6877 0.8451 0.7599
C7 C 0.70549(19) 0.6556(5) 0.6868(8)
H7 H 0.7479 0.6607 0.7024
C8 C 0.67746(18) 0.5357(4) 0.6288(8)
C9 C 0.61492(18) 0.5265(4) 0.6020(6)
H8 H 0.5974 0.4460 0.5625
C10 C 0.3616(3) 0.9539(5) 0.7863(9)
H9 H 0.3610 0.8761 0.8772
H10 H 0.3823 1.0243 0.8635
C11 C 0.2975(3) 0.9953(8) 0.7432(13)
H11 H 0.2783 0.9320 0.6502
H12 H 0.2975 1.0809 0.6763
H13 H 0.2752 0.9997 0.8750
N1 N 0.39731(19) 0.9229(3) 0.5894(6)
H14 H 0.3932 0.9925 0.4981
N2 N 0.47142(15) 0.7113(3) 0.6149(5)
N3 N 0.71605(16) 0.4194(4) 0.5936(6)
N4 N 0.4948(2) 1.0803(3) 0.7784(6)
N5 N 0.49425(17) 1.1829(3) 0.6835(7)
N6 N 0.4957(3) 1.2848(4) 0.6051(7)
O1 O 0.57337(14) 0.8695(3) 0.7303(5)
O2 O 0.77238(14) 0.4340(4) 0.6040(5)
O3 O 0.69109(14) 0.3128(3) 0.5595(5)
Cu1 Cu 0.48818(2) 0.89989(4) 0.65380(9)
N4A N 0.5052(2) 0.9197(3) 0.2784(6)
Cu1A Cu 0.51182(2) 1.10011(4) 1.15380(9)
loop_
_geom_bond_atom_site_label_1
_geom_bond_atom_site_label_2
_geom_bond_site_symmetry_1
_geom_bond_site_symmetry_2
C1 H1 1_555 1_555
H2 C1 1_555 1_555
C2 C1 1_555 1_555
H3 C2 1_555 1_555
H4 C2 1_555 1_555
C3 H5 1_555 1_555
C4 C3 1_555 1_555
C5 C4 1_555 1_555
C6 C5 1_555 1_555
H6 C6 1_555 1_555
C7 C6 1_555 1_555
H7 C7 1_555 1_555
C8 C7 1_555 1_555
C9 C4 1_555 1_555
H8 C9 1_555 1_555
C10 H9 1_555 1_555
H10 C10 1_555 1_555
C11 C10 1_555 1_555
H11 C11 1_555 1_555
H12 C11 1_555 1_555
H13 C11 1_555 1_555
N1 C1 1_555 1_555
H14 N1 1_555 1_555
N2 C2 1_555 1_555
N3 C8 1_555 1_555
N4 N5 1_555 1_555
N5 N6 1_555 1_555
O1 C5 1_555 1_555
O2 N3 1_555 1_555
O3 N3 1_555 1_555
Cu1 N1 1_555 1_555
N4A Cu1 1_555 1_555
Cu1A N4 1_555 1_555
C3 N2 1_555 1_555
C8 C9 1_555 1_555
C10 N1 1_555 1_555
N2 Cu1 1_555 1_555
N4 Cu1 1_555 1_555
O1 Cu1 1_555 1_555

#END
