
#######################################################################
#
#                 Cambridge Crystallographic Data Centre
#                                CCDC 
#
#######################################################################
#
# If this CIF has been generated from an entry in the Cambridge 
# Structural Database, then it will include bibliographic, chemical, 
# crystal, experimental, refinement or atomic coordinate data resulting 
# from the CCDC's data processing and validation procedures.
#
#######################################################################

data_SIVNUH
_symmetry_cell_setting           triclinic
_symmetry_space_group_name_H-M   'P -1'
_symmetry_Int_Tables_number      2
_space_group_name_Hall           '-P 1'
loop_
_symmetry_equiv_pos_site_id
_symmetry_equiv_pos_as_xyz
1 x,y,z
2 -x,-y,-z
_cell_length_a                   8.6442(9)
_cell_length_b                   11.0859(12)
_cell_length_c                   14.2907(15)
_cell_angle_alpha                108.5670(10)
_cell_angle_beta                 91.523(2)
_cell_angle_gamma                91.7910(10)
_cell_volume                     1296.58
loop_
_atom_site_label
_atom_site_type_symbol
_atom_site_fract_x
_atom_site_fract_y
_atom_site_fract_z
Cu1 Cu 0.5000 -0.5000 0.5000
Cu2 Cu 0.39006(6) -0.03936(5) 0.39800(4)
Cu3 Cu 1.37765(6) -0.68229(5) 0.27195(4)
Cu4 Cu 1.12352(6) -0.30770(5) 0.24225(4)
Cu5 Cu 1.11021(6) 0.04492(5) 0.11223(4)
Cu6 Cu 2.0000 -0.5000 0.0000
C1 C 0.2829(4) -0.2951(4) 0.5378(3)
C2 C 0.1771(5) -0.3348(4) 0.5940(3)
H1 H 0.1890 -0.4101 0.6084
C3 C 0.0535(5) -0.2594(5) 0.6281(3)
H2 H -0.0202 -0.2851 0.6648
C4 C 0.0376(5) -0.1450(5) 0.6080(3)
H3 H -0.0447 -0.0945 0.6341
C5 C 0.1389(5) -0.1048(4) 0.5513(3)
H4 H 0.1263 -0.0291 0.5375
C6 C 0.2628(4) -0.1827(4) 0.5147(3)
C7 C 0.4733(4) -0.2659(4) 0.4499(3)
C8 C 0.3780(5) 0.0832(4) 0.3401(3)
C9 C 1.6634(5) -0.8037(4) 0.1727(3)
H5 H 1.6158 -0.8759 0.1809
C10 C 1.8010(5) -0.8159(4) 0.1275(3)
H6 H 1.8426 -0.8958 0.1034
C11 C 1.8800(4) -0.7108(4) 0.1168(3)
C12 C 1.8091(5) -0.5949(4) 0.1529(3)
H7 H 1.8575 -0.5207 0.1490
C13 C 1.6680(5) -0.5911(4) 0.1942(3)
H8 H 1.6208 -0.5132 0.2155
C14 C 1.2816(5) -0.5368(4) 0.2690(3)
C15 C 0.8878(5) -0.3331(4) 0.3898(3)
H9 H 0.9704 -0.3686 0.4131
C16 C 0.7488(4) -0.3271(4) 0.4358(3)
H10 H 0.7398 -0.3570 0.4894
C17 C 0.6219(4) -0.2765(3) 0.4020(3)
C18 C 0.6456(5) -0.2326(4) 0.3227(3)
H11 H 0.5639 -0.1991 0.2968
C19 C 0.7880(5) -0.2381(4) 0.2822(3)
H12 H 0.8012 -0.2044 0.2309
C20 C 1.1215(5) -0.1799(4) 0.1846(3)
C21 C 2.2534(5) -0.7926(4) 0.0174(3)
C22 C 2.3836(5) -0.8632(4) -0.0109(3)
H13 H 2.3944 -0.9408 0.0002
C23 C 2.4966(5) -0.8135(4) -0.0563(3)
H14 H 2.5843 -0.8594 -0.0778
C24 C 2.4815(5) -0.6957(4) -0.0705(3)
H15 H 2.5608 -0.6635 -0.0996
C25 C 2.3509(5) -0.6254(4) -0.0422(3)
H16 H 2.3420 -0.5461 -0.0508
C26 C 2.2344(4) -0.6775(4) -0.0008(3)
C27 C 2.0307(4) -0.7205(3) 0.0708(3)
N1 N 0.4202(4) -0.3463(3) 0.4971(2)
N2 N 0.3824(4) -0.1664(3) 0.4577(2)
N3 N 0.3684(4) 0.1666(4) 0.3101(3)
N4 N 1.5929(4) -0.6931(3) 0.2061(2)
N5 N 1.2260(4) -0.4479(4) 0.2616(3)
N6 N 1.1128(4) -0.0966(4) 0.1553(3)
N7 N 0.9098(4) -0.2901(3) 0.3133(2)
N8 N 2.1239(4) -0.8183(3) 0.0635(2)
N9 N 2.0910(4) -0.6333(3) 0.0325(2)
Cu2A Cu 0.60994(6) -0.96064(5) 0.60200(4)
Cu3A Cu -0.37765(6) -0.31771(5) 0.72805(4)
Cu3_2 Cu 0.37765(6) 0.31771(5) 0.27195(4)
Cu3A_2 Cu 0.62235(6) -1.31771(5) 0.72805(4)
Cu4A Cu -0.12352(6) -0.69230(5) 0.75775(4)
Cu5A Cu -0.11021(6) -1.04492(5) 0.88777(4)
Cu5_2 Cu 2.11021(6) -0.95508(5) 0.11223(4)
Cu6_2 Cu 1.0000 0.5000 0.0000
C1A C 0.7171(4) -0.7049(4) 0.4622(3)
C2A C 0.8229(5) -0.6652(4) 0.4060(3)
H1A H 0.8110 -0.5899 0.3916
C3A C 0.9465(5) -0.7406(5) 0.3719(3)
H2A H 1.0202 -0.7149 0.3352
C4A C 0.9624(5) -0.8550(5) 0.3920(3)
H3A H 1.0447 -0.9055 0.3659
C5A C 0.8611(5) -0.8952(4) 0.4487(3)
H4A H 0.8737 -0.9709 0.4625
C6A C 0.7372(4) -0.8173(4) 0.4853(3)
C7A C 0.5267(4) -0.7341(4) 0.5501(3)
C8A C 0.6220(5) -1.0832(4) 0.6599(3)
C9_2 C 0.6634(5) 0.1963(4) 0.1727(3)
H5_2 H 0.6158 0.1241 0.1809
C10_2 C 0.8010(5) 0.1841(4) 0.1275(3)
H6_2 H 0.8426 0.1042 0.1034
C11_2 C 0.8800(4) 0.2892(4) 0.1168(3)
C12_2 C 0.8091(5) 0.4051(4) 0.1529(3)
H7_2 H 0.8575 0.4793 0.1490
C13_2 C 0.6680(5) 0.4089(4) 0.1942(3)
H8_2 H 0.6208 0.4868 0.2155
C14A C -0.2816(5) -0.4632(4) 0.7310(3)
C15A C 0.1122(5) -0.6669(4) 0.6102(3)
H9A H 0.0296 -0.6314 0.5869
C16A C 0.2512(4) -0.6729(4) 0.5642(3)
H10A H 0.2602 -0.6430 0.5106
C17A C 0.3781(4) -0.7235(3) 0.5980(3)
C18A C 0.3544(5) -0.7674(4) 0.6773(3)
H11A H 0.4361 -0.8009 0.7032
C19A C 0.2120(5) -0.7619(4) 0.7178(3)
H12A H 0.1988 -0.7956 0.7691
C20A C -0.1215(5) -0.8201(4) 0.8154(3)
C21_2 C 1.2534(5) 0.2074(4) 0.0174(3)
C22_2 C 1.3836(5) 0.1368(4) -0.0109(3)
H13_2 H 1.3944 0.0592 0.0002
C23_2 C 1.4966(5) 0.1865(4) -0.0563(3)
H14_2 H 1.5843 0.1406 -0.0778
C24_2 C 1.4815(5) 0.3043(4) -0.0705(3)
H15_2 H 1.5608 0.3365 -0.0996
C25_2 C 1.3509(5) 0.3746(4) -0.0422(3)
H16_2 H 1.3420 0.4539 -0.0508
C26_2 C 1.2344(4) 0.3225(4) -0.0008(3)
C27_2 C 1.0307(4) 0.2795(3) 0.0708(3)
N1A N 0.5798(4) -0.6537(3) 0.5029(2)
N2A N 0.6176(4) -0.8336(3) 0.5423(2)
N3A N 0.6316(4) -1.1666(4) 0.6899(3)
N3_2 N 1.3684(4) -0.8334(4) 0.3101(3)
N3A_2 N -0.3684(4) -0.1666(4) 0.6899(3)
N4_2 N 0.5929(4) 0.3069(3) 0.2061(2)
N4A N -0.5929(4) -0.3069(3) 0.7939(2)
N5A N -0.2260(4) -0.5521(4) 0.7384(3)
N6A N -0.1128(4) -0.9034(4) 0.8447(3)
N7A N 0.0902(4) -0.7099(3) 0.6867(2)
N8_2 N 1.1239(4) 0.1817(3) 0.0635(2)
N8A N -0.1239(4) -1.1817(3) 0.9365(2)
N9_2 N 1.0910(4) 0.3667(3) 0.0325(2)
N9A N 1.9090(4) -0.3667(3) -0.0325(2)
loop_
_geom_bond_atom_site_label_1
_geom_bond_atom_site_label_2
_geom_bond_site_symmetry_1
_geom_bond_site_symmetry_2
Cu1 N1 1_555 1_555
Cu2 C8 1_555 1_555
Cu3 C14 1_555 1_555
Cu4 C20 1_555 1_555
Cu5 N6 1_555 1_555
Cu6 N9 1_555 1_555
C1 C2 1_555 1_555
C2 H1 1_555 1_555
C3 C2 1_555 1_555
H2 C3 1_555 1_555
C4 C3 1_555 1_555
H3 C4 1_555 1_555
C5 C4 1_555 1_555
H4 C5 1_555 1_555
C6 C1 1_555 1_555
C7 C17 1_555 1_555
C8 N3 1_555 1_555
C9 H5 1_555 1_555
C10 C9 1_555 1_555
H6 C10 1_555 1_555
C11 C10 1_555 1_555
C12 C11 1_555 1_555
H7 C12 1_555 1_555
C13 C12 1_555 1_555
H8 C13 1_555 1_555
C14 N5 1_555 1_555
C15 H9 1_555 1_555
C16 C15 1_555 1_555
H10 C16 1_555 1_555
C17 C16 1_555 1_555
C18 C17 1_555 1_555
H11 C18 1_555 1_555
C19 C18 1_555 1_555
H12 C19 1_555 1_555
C20 N6 1_555 1_555
C21 C22 1_555 1_555
C22 H13 1_555 1_555
C23 C22 1_555 1_555
H14 C23 1_555 1_555
C24 C23 1_555 1_555
H15 C24 1_555 1_555
C25 C24 1_555 1_555
H16 C25 1_555 1_555
C26 C21 1_555 1_555
C27 C11 1_555 1_555
N1 C1 1_555 1_555
N2 Cu2 1_555 1_555
N3 Cu3_2 1_555 1_555
N4 Cu3 1_555 1_555
N5 Cu4 1_555 1_555
N7 Cu4 1_555 1_555
N8 C21 1_555 1_555
N9 C26 1_555 1_555
Cu2A C8A 1_555 1_555
Cu3A C14A 1_555 1_555
Cu3_2 N4_2 1_555 1_555
Cu3A_2 N3A 1_555 1_555
Cu4A C20A 1_555 1_555
Cu5A N6A 1_555 1_555
Cu5_2 N8 1_555 1_555
Cu6_2 N9_2 1_555 1_555
C1A C2A 1_555 1_555
C2A H1A 1_555 1_555
C3A C2A 1_555 1_555
H2A C3A 1_555 1_555
C4A C3A 1_555 1_555
H3A C4A 1_555 1_555
C5A C4A 1_555 1_555
H4A C5A 1_555 1_555
C6A C1A 1_555 1_555
C7A C17A 1_555 1_555
C8A N3A 1_555 1_555
C9_2 H5_2 1_555 1_555
C10_2 C9_2 1_555 1_555
H6_2 C10_2 1_555 1_555
C11_2 C10_2 1_555 1_555
C12_2 C11_2 1_555 1_555
H7_2 C12_2 1_555 1_555
C13_2 C12_2 1_555 1_555
H8_2 C13_2 1_555 1_555
C14A N5A 1_555 1_555
C15A H9A 1_555 1_555
C16A C15A 1_555 1_555
H10A C16A 1_555 1_555
C17A C16A 1_555 1_555
C18A C17A 1_555 1_555
H11A C18A 1_555 1_555
C19A C18A 1_555 1_555
H12A C19A 1_555 1_555
C20A N6A 1_555 1_555
C21_2 C22_2 1_555 1_555
C22_2 H13_2 1_555 1_555
C23_2 C22_2 1_555 1_555
H14_2 C23_2 1_555 1_555
C24_2 C23_2 1_555 1_555
H15_2 C24_2 1_555 1_555
C25_2 C24_2 1_555 1_555
H16_2 C25_2 1_555 1_555
C26_2 C21_2 1_555 1_555
C27_2 C11_2 1_555 1_555
N1A Cu1 1_555 1_555
N2A Cu2A 1_555 1_555
N3_2 Cu3 1_555 1_555
N3A_2 Cu3A 1_555 1_555
N4_2 C9_2 1_555 1_555
N4A Cu3A 1_555 1_555
N5A Cu4A 1_555 1_555
N7A Cu4A 1_555 1_555
N8_2 Cu5 1_555 1_555
N8A Cu5A 1_555 1_555
N9_2 C26_2 1_555 1_555
N9A Cu6 1_555 1_555
C5 C6 1_555 1_555
C6 N2 1_555 1_555
C7 N1 1_555 1_555
C7 N2 1_555 1_555
C9 N4 1_555 1_555
C13 N4 1_555 1_555
C15 N7 1_555 1_555
C19 N7 1_555 1_555
C25 C26 1_555 1_555
C27 N8 1_555 1_555
C27 N9 1_555 1_555
C1A N1A 1_555 1_555
C5A C6A 1_555 1_555
C6A N2A 1_555 1_555
C7A N1A 1_555 1_555
C7A N2A 1_555 1_555
C13_2 N4_2 1_555 1_555
C15A N7A 1_555 1_555
C19A N7A 1_555 1_555
C21_2 N8_2 1_555 1_555
C25_2 C26_2 1_555 1_555
C27_2 N8_2 1_555 1_555
C27_2 N9_2 1_555 1_555

#END
