
#######################################################################
#
#                 Cambridge Crystallographic Data Centre
#                                CCDC 
#
#######################################################################
#
# If this CIF has been generated from an entry in the Cambridge 
# Structural Database, then it will include bibliographic, chemical, 
# crystal, experimental, refinement or atomic coordinate data resulting 
# from the CCDC's data processing and validation procedures.
#
#######################################################################

data_SIVTAU
_symmetry_cell_setting           rhombohedral
_symmetry_space_group_name_H-M   'R -3'
_symmetry_Int_Tables_number      148
_space_group_name_Hall           '-R 3'
loop_
_symmetry_equiv_pos_site_id
_symmetry_equiv_pos_as_xyz
1 x,y,z
2 -y,x-y,z
3 -x+y,-x,z
4 2/3+x,1/3+y,1/3+z
5 2/3-y,1/3+x-y,1/3+z
6 2/3-x+y,1/3-x,1/3+z
7 1/3+x,2/3+y,2/3+z
8 1/3-y,2/3+x-y,2/3+z
9 1/3-x+y,2/3-x,2/3+z
10 -x,-y,-z
11 y,-x+y,-z
12 x-y,x,-z
13 1/3-x,2/3-y,2/3-z
14 1/3+y,2/3-x+y,2/3-z
15 1/3+x-y,2/3+x,2/3-z
16 2/3-x,1/3-y,1/3-z
17 2/3+y,1/3-x+y,1/3-z
18 2/3+x-y,1/3+x,1/3-z
_cell_length_a                   13.9350(3)
_cell_length_b                   13.9350(3)
_cell_length_c                   17.4746(5)
_cell_angle_alpha                90
_cell_angle_beta                 90
_cell_angle_gamma                120
_cell_volume                     2938.68
loop_
_atom_site_label
_atom_site_type_symbol
_atom_site_fract_x
_atom_site_fract_y
_atom_site_fract_z
C1 C -0.1206(3) 0.1359(2) 0.44761(16)
H1 H -0.1552 0.1249 0.4949
Fe1 Fe 0.0000 0.0000 0.5000
N1 N -0.04742(19) 0.10108(18) 0.42822(11)
C2 C -0.0190(2) 0.1336(2) 0.35691(15)
H2 H 0.0305 0.1214 0.3287
C3 C -0.1701(3) 0.1488(3) 0.20836(16)
H3 H -0.2316 0.1502 0.2332
H4 H -0.1838 0.0733 0.2102
C4 C -0.1344(3) 0.1885(3) 0.38736(19)
H5 H -0.1793 0.2203 0.3855
N2 N -0.0698(2) 0.1861(2) 0.33002(13)
C5 C -0.0649(3) 0.2235(3) 0.25057(19)
H6 H -0.0030 0.2246 0.2244
H7 H -0.0529 0.2984 0.2507
C1O C -0.2127(3) 0.1974(2) -0.11428(16)
H1O H -0.1781 0.2084 -0.1616
N1O N -0.28591(19) 0.23225(18) -0.09489(11)
C2O C -0.3143(2) 0.1997(2) -0.02358(15)
H2O H -0.3638 0.2119 0.0046
C3O C -0.1632(3) 0.1845(3) 0.12497(16)
H3O H -0.1017 0.1831 0.1001
H4O H -0.1495 0.2600 0.1231
C4O C -0.1989(3) 0.1448(3) -0.05403(19)
H5O H -0.1540 0.1130 -0.0522
N2O N -0.2635(2) 0.1472(2) 0.00331(13)
C5O C -0.2684(3) 0.1098(3) 0.08276(19)
H6O H -0.3303 0.1087 0.1089
H7O H -0.2804 0.0349 0.0826
C1A C -0.1359(2) -0.2565(4) 0.44761(16)
H1A H -0.1249 -0.2801 0.4949
N1A N -0.10108(18) -0.14850(26) 0.42822(11)
C2A C -0.1336(2) -0.1526(3) 0.35691(15)
H2A H -0.1214 -0.0909 0.3287
C3A C -0.1488(3) -0.3189(4) 0.20836(16)
H3A H -0.1502 -0.3818 0.2332
H4A H -0.0733 -0.2571 0.2102
C4A C -0.1885(3) -0.3229(4) 0.38736(19)
H5A H -0.2203 -0.3996 0.3855
N2A N -0.1861(2) -0.2559(3) 0.33002(13)
C5A C -0.2235(3) -0.2884(4) 0.25057(19)
H6A H -0.2246 -0.2276 0.2244
H7A H -0.2984 -0.3513 0.2507
C1P C -0.1974(2) -0.4102(4) -0.11428(16)
H1P H -0.2084 -0.3866 -0.1616
N1P N -0.23225(18) -0.51817(26) -0.09489(11)
C2P C -0.1997(2) -0.5141(3) -0.02358(15)
H2P H -0.2119 -0.5758 0.0046
C3P C -0.1845(3) -0.3478(4) 0.12497(16)
H3P H -0.1831 -0.2849 0.1001
H4P H -0.2600 -0.4096 0.1231
C4P C -0.1448(3) -0.3438(4) -0.05403(19)
H5P H -0.1130 -0.2671 -0.0522
N2P N -0.1472(2) -0.4108(3) 0.00331(13)
C5P C -0.1098(3) -0.3783(4) 0.08276(19)
H6P H -0.1087 -0.4391 0.1089
H7P H -0.0349 -0.3154 0.0826
C1B C 0.2565(4) 0.1206(3) 0.44761(16)
H1B H 0.2801 0.1552 0.4949
N1B N 0.14850(26) 0.04742(19) 0.42822(11)
C2B C 0.1526(3) 0.0190(2) 0.35691(15)
H2B H 0.0909 -0.0305 0.3287
C3B C 0.3189(4) 0.1701(3) 0.20836(16)
H3B H 0.3818 0.2316 0.2332
H4B H 0.2571 0.1838 0.2102
C4B C 0.3229(4) 0.1344(3) 0.38736(19)
H5B H 0.3996 0.1793 0.3855
N2B N 0.2559(3) 0.0698(2) 0.33002(13)
C5B C 0.2884(4) 0.0649(3) 0.25057(19)
H6B H 0.2276 0.0030 0.2244
H7B H 0.3513 0.0529 0.2507
C1Q C 0.4102(4) 0.2127(3) -0.11428(16)
H1Q H 0.3866 0.1781 -0.1616
N1Q N 0.51817(26) 0.28591(19) -0.09489(11)
C2Q C 0.5141(3) 0.3143(2) -0.02358(15)
H2Q H 0.5758 0.3638 0.0046
C3Q C 0.3478(4) 0.1632(3) 0.12497(16)
H3Q H 0.2849 0.1017 0.1001
H4Q H 0.4096 0.1495 0.1231
C4Q C 0.3438(4) 0.1989(3) -0.05403(19)
H5Q H 0.2671 0.1540 -0.0522
N2Q N 0.4108(3) 0.2635(2) 0.00331(13)
C5Q C 0.3783(4) 0.2684(3) 0.08276(19)
H6Q H 0.4391 0.3303 0.1089
H7Q H 0.3154 0.2804 0.0826
Fe1C Fe -0.3333 -0.6667 -0.1667
Fe1C_2 Fe -0.3333 0.3333 -0.1667
Fe1C_3 Fe 0.6667 0.3333 -0.1667
N1I N 0.04742(19) -0.10108(18) 0.57178(11)
N1J N 0.10108(18) 0.14850(26) 0.57178(11)
N1K N -0.14850(26) -0.04742(19) 0.57178(11)
Cl1 Cl -0.3333 0.3333 0.19824(9)
O1 O -0.2311(5) 0.3657(6) 0.2200(6)
O2 O -0.3333 0.3333 0.1231(5)
O1A O -0.3657(6) 0.4032(8) 0.2200(6)
O1B O -0.4032(8) 0.2311(5) 0.2200(6)
loop_
_geom_bond_atom_site_label_1
_geom_bond_atom_site_label_2
_geom_bond_site_symmetry_1
_geom_bond_site_symmetry_2
C1 H1 1_555 1_555
Fe1 N1 1_555 1_555
N1 C1 1_555 1_555
C2 N1 1_555 1_555
H2 C2 1_555 1_555
C3 H3 1_555 1_555
H4 C3 1_555 1_555
C4 C1 1_555 1_555
H5 C4 1_555 1_555
N2 C2 1_555 1_555
C5 C3 1_555 1_555
H6 C5 1_555 1_555
H7 C5 1_555 1_555
Cl1 O1 1_555 1_555
O2 Cl1 1_555 1_555
C1O H1O 1_555 1_555
N1O C1O 1_555 1_555
C2O N1O 1_555 1_555
H2O C2O 1_555 1_555
C3O C3 1_555 1_555
H3O C3O 1_555 1_555
H4O C3O 1_555 1_555
C4O C1O 1_555 1_555
H5O C4O 1_555 1_555
N2O C2O 1_555 1_555
C5O C3O 1_555 1_555
H6O C5O 1_555 1_555
H7O C5O 1_555 1_555
C1A H1A 1_555 1_555
N1A Fe1 1_555 1_555
C2A N1A 1_555 1_555
H2A C2A 1_555 1_555
C3A H3A 1_555 1_555
H4A C3A 1_555 1_555
C4A C1A 1_555 1_555
H5A C4A 1_555 1_555
N2A C2A 1_555 1_555
C5A C3A 1_555 1_555
H6A C5A 1_555 1_555
H7A C5A 1_555 1_555
C1P H1P 1_555 1_555
N1P C1P 1_555 1_555
C2P N1P 1_555 1_555
H2P C2P 1_555 1_555
C3P C3A 1_555 1_555
H3P C3P 1_555 1_555
H4P C3P 1_555 1_555
C4P C1P 1_555 1_555
H5P C4P 1_555 1_555
N2P C2P 1_555 1_555
C5P C3P 1_555 1_555
H6P C5P 1_555 1_555
H7P C5P 1_555 1_555
C1B H1B 1_555 1_555
N1B Fe1 1_555 1_555
C2B N1B 1_555 1_555
H2B C2B 1_555 1_555
C3B H3B 1_555 1_555
H4B C3B 1_555 1_555
C4B C1B 1_555 1_555
H5B C4B 1_555 1_555
N2B C2B 1_555 1_555
C5B C3B 1_555 1_555
H6B C5B 1_555 1_555
H7B C5B 1_555 1_555
C1Q H1Q 1_555 1_555
N1Q C1Q 1_555 1_555
C2Q N1Q 1_555 1_555
H2Q C2Q 1_555 1_555
C3Q C3B 1_555 1_555
H3Q C3Q 1_555 1_555
H4Q C3Q 1_555 1_555
C4Q C1Q 1_555 1_555
H5Q C4Q 1_555 1_555
N2Q C2Q 1_555 1_555
C5Q C3Q 1_555 1_555
H6Q C5Q 1_555 1_555
H7Q C5Q 1_555 1_555
Fe1C N1P 1_555 1_555
Fe1C_2 N1O 1_555 1_555
Fe1C_3 N1Q 1_555 1_555
N1I Fe1 1_555 1_555
N1J Fe1 1_555 1_555
N1K Fe1 1_555 1_555
O1A Cl1 1_555 1_555
O1B Cl1 1_555 1_555
C4 N2 1_555 1_555
N2 C5 1_555 1_555
C4O N2O 1_555 1_555
N2O C5O 1_555 1_555
C1A N1A 1_555 1_555
C4A N2A 1_555 1_555
N2A C5A 1_555 1_555
C4P N2P 1_555 1_555
N2P C5P 1_555 1_555
C1B N1B 1_555 1_555
C4B N2B 1_555 1_555
N2B C5B 1_555 1_555
C4Q N2Q 1_555 1_555
N2Q C5Q 1_555 1_555

#END
