
#######################################################################
#
#                 Cambridge Crystallographic Data Centre
#                                CCDC 
#
#######################################################################
#
# If this CIF has been generated from an entry in the Cambridge 
# Structural Database, then it will include bibliographic, chemical, 
# crystal, experimental, refinement or atomic coordinate data resulting 
# from the CCDC's data processing and validation procedures.
#
#######################################################################

data_SIVTIC
_symmetry_cell_setting           monoclinic
_symmetry_space_group_name_H-M   'P 21/c'
_symmetry_Int_Tables_number      14
_space_group_name_Hall           '-P 2ybc'
loop_
_symmetry_equiv_pos_site_id
_symmetry_equiv_pos_as_xyz
1 x,y,z
2 -x,1/2+y,1/2-z
3 -x,-y,-z
4 x,1/2-y,1/2+z
_cell_length_a                   7.587(2)
_cell_length_b                   18.000(4)
_cell_length_c                   9.154(2)
_cell_angle_alpha                90
_cell_angle_beta                 111.42(1)
_cell_angle_gamma                90
_cell_volume                     1163.78
loop_
_atom_site_label
_atom_site_type_symbol
_atom_site_fract_x
_atom_site_fract_y
_atom_site_fract_z
Fe1 Fe 1.0000 0.0000 0.5000
N1 N 0.69296(18) 0.00251(7) 0.38437(17)
N2 N 0.83640(16) 0.09046(6) 0.87101(13)
N3 N 0.58833(16) 0.04153(7) 0.29062(14)
N4 N 0.96329(15) 0.04463(6) 0.70900(13)
N5 N 0.03467(16) 0.38666(6) 0.92058(13)
N6 N 0.15522(17) 0.29692(6) 0.82196(14)
C1 C 0.80451(19) 0.06456(8) 0.72553(16)
H1 H 0.6854 0.0612 0.6467
C2 C 0.5520(2) 0.16853(8) 0.81602(17)
H2 H 0.4691 0.1382 0.7310
H3 H 0.6171 0.2031 0.7717
C3 C 0.4324(2) 0.21231(8) 0.88827(17)
H4 H 0.3720 0.1784 0.9378
H5 H 0.5130 0.2456 0.9681
C4 C 1.1035(2) 0.05776(8) 0.85223(17)
H6 H 1.2317 0.0487 0.8762
C5 C 1.0278(2) 0.08573(8) 0.95287(17)
H7 H 1.0924 0.0991 1.0569
C6 C -0.0853(2) 0.32709(8) 0.88516(19)
H8 H -0.1998 0.3250 0.9005
C7 C -0.0127(2) 0.27161(8) 0.8243(2)
H9 H -0.0669 0.2253 0.7908
C8 C 0.1781(2) 0.36614(8) 0.88112(16)
H10 H 0.2825 0.3959 0.8928
C9 C 0.6957(2) 0.11924(10) 0.93183(18)
H11 H 0.7600 0.1471 1.0272
H12 H 0.6311 0.0778 0.9583
C10 C 0.2840(2) 0.25648(9) 0.76371(18)
H13 H 0.2103 0.2230 0.6808
H14 H 0.3463 0.2918 0.7185
N7 N 0.4805(2) 0.07880(11) 0.1968(2)
N1B N 1.30704(18) -0.00251(7) 0.61563(17)
N2B N 1.16360(16) -0.09046(6) 0.12899(13)
N3B N 1.41167(16) -0.04153(7) 0.70938(14)
N4B N 1.03671(15) -0.04463(6) 0.29100(13)
N5B N 1.96533(16) -0.38666(6) 0.07942(13)
N6B N 1.84478(17) -0.29692(6) 0.17804(14)
C1B C 1.19549(19) -0.06456(8) 0.27447(16)
H1B H 1.3146 -0.0612 0.3533
C2B C 1.4480(2) -0.16853(8) 0.18398(17)
H2B H 1.5309 -0.1382 0.2690
H3B H 1.3829 -0.2031 0.2283
C3B C 1.5676(2) -0.21231(8) 0.11173(17)
H4B H 1.6280 -0.1784 0.0622
H5B H 1.4870 -0.2456 0.0319
C4B C 0.8965(2) -0.05776(8) 0.14777(17)
H6B H 0.7683 -0.0487 0.1238
C5B C 0.9722(2) -0.08573(8) 0.04713(17)
H7B H 0.9076 -0.0991 -0.0569
C6B C 2.0853(2) -0.32709(8) 0.11484(19)
H8B H 2.1998 -0.3250 0.0995
C7B C 2.0127(2) -0.27161(8) 0.1757(2)
H9B H 2.0669 -0.2253 0.2092
C8B C 1.8219(2) -0.36614(8) 0.11888(16)
H10B H 1.7175 -0.3959 0.1072
C9B C 1.3043(2) -0.11924(10) 0.06817(18)
H11B H 1.2400 -0.1471 -0.0272
H12B H 1.3689 -0.0778 0.0417
C10B C 1.7160(2) -0.25648(9) 0.23629(18)
H13B H 1.7897 -0.2230 0.3192
H14B H 1.6537 -0.2918 0.2815
N7B N 1.5195(2) -0.07880(11) 0.8032(2)
Fe1A Fe 0.0000 0.5000 1.0000
Fe1A_2 Fe 2.0000 -0.5000 0.0000
N5A N 0.96533(16) -0.11334(6) 0.57942(13)
N5C N 1.03467(16) 0.11334(6) 0.42058(13)
loop_
_geom_bond_atom_site_label_1
_geom_bond_atom_site_label_2
_geom_bond_site_symmetry_1
_geom_bond_site_symmetry_2
Fe1 N1 1_555 1_555
N1 N3 1_555 1_555
N2 C1 1_555 1_555
N3 N7 1_555 1_555
N4 Fe1 1_555 1_555
N5 C6 1_555 1_555
N6 C7 1_555 1_555
C1 N4 1_555 1_555
H1 C1 1_555 1_555
C2 H2 1_555 1_555
H3 C2 1_555 1_555
C3 C2 1_555 1_555
H4 C3 1_555 1_555
H5 C3 1_555 1_555
C4 N4 1_555 1_555
H6 C4 1_555 1_555
C5 N2 1_555 1_555
H7 C5 1_555 1_555
C6 H8 1_555 1_555
C7 C6 1_555 1_555
H9 C7 1_555 1_555
C8 N5 1_555 1_555
H10 C8 1_555 1_555
C9 N2 1_555 1_555
H11 C9 1_555 1_555
H12 C9 1_555 1_555
C10 N6 1_555 1_555
H13 C10 1_555 1_555
H14 C10 1_555 1_555
N1B Fe1 1_555 1_555
N2B C1B 1_555 1_555
N3B N1B 1_555 1_555
N4B Fe1 1_555 1_555
N5B C6B 1_555 1_555
N6B C7B 1_555 1_555
C1B N4B 1_555 1_555
H1B C1B 1_555 1_555
C2B H2B 1_555 1_555
H3B C2B 1_555 1_555
C3B C2B 1_555 1_555
H4B C3B 1_555 1_555
H5B C3B 1_555 1_555
C4B N4B 1_555 1_555
H6B C4B 1_555 1_555
C5B N2B 1_555 1_555
H7B C5B 1_555 1_555
C6B H8B 1_555 1_555
C7B C6B 1_555 1_555
H9B C7B 1_555 1_555
C8B N5B 1_555 1_555
H10B C8B 1_555 1_555
C9B N2B 1_555 1_555
H11B C9B 1_555 1_555
H12B C9B 1_555 1_555
C10B N6B 1_555 1_555
H13B C10B 1_555 1_555
H14B C10B 1_555 1_555
N7B N3B 1_555 1_555
Fe1A N5 1_555 1_555
Fe1A_2 N5B 1_555 1_555
N5A Fe1 1_555 1_555
N5C Fe1 1_555 1_555
N6 C8 1_555 1_555
C2 C9 1_555 1_555
C3 C10 1_555 1_555
C4 C5 1_555 1_555
N6B C8B 1_555 1_555
C2B C9B 1_555 1_555
C3B C10B 1_555 1_555
C4B C5B 1_555 1_555

#END
