
#######################################################################
#
#                 Cambridge Crystallographic Data Centre
#                                CCDC 
#
#######################################################################
#
# If this CIF has been generated from an entry in the Cambridge 
# Structural Database, then it will include bibliographic, chemical, 
# crystal, experimental, refinement or atomic coordinate data resulting 
# from the CCDC's data processing and validation procedures.
#
#######################################################################

data_SIVXEC
_symmetry_cell_setting           monoclinic
_symmetry_space_group_name_H-M   'P 21/c'
_symmetry_Int_Tables_number      14
_space_group_name_Hall           '-P 2ybc'
loop_
_symmetry_equiv_pos_site_id
_symmetry_equiv_pos_as_xyz
1 x,y,z
2 -x,1/2+y,1/2-z
3 -x,-y,-z
4 x,1/2-y,1/2+z
_cell_length_a                   15.883(3)
_cell_length_b                   12.631(3)
_cell_length_c                   8.0124(16)
_cell_angle_alpha                90
_cell_angle_beta                 91.69(3)
_cell_angle_gamma                90
_cell_volume                     1606.73
loop_
_atom_site_label
_atom_site_type_symbol
_atom_site_fract_x
_atom_site_fract_y
_atom_site_fract_z
Zn1 Zn 0.25292(4) 0.80248(5) 0.09411(9)
O1 O 0.2897(2) 0.6540(3) -0.1781(5)
O2 O 0.3591(3) 0.7399(3) 0.0240(6)
O3 O 1.1941(2) 0.6220(3) 0.1801(5)
O4 O 1.1336(3) 0.7638(3) 0.0742(6)
O5 O 0.2473(3) 0.9390(3) -0.0267(5)
H1 H 0.2363 0.9278 -0.1296
H2 H 0.2474 1.0055 -0.0107
N1 N 0.7442(3) 0.8493(4) -0.0210(7)
C1 C 0.3567(4) 0.6780(5) -0.0979(8)
C2 C 0.4401(4) 0.6308(4) -0.1431(7)
C3 C 0.4415(4) 0.5404(5) -0.2445(8)
H3 H 0.3917 0.5119 -0.2887
C4 C 0.5191(4) 0.4936(5) -0.2780(8)
H4 H 0.5207 0.4310 -0.3390
C5 C 0.5930(4) 0.5398(5) -0.2212(7)
H5 H 0.6442 0.5091 -0.2469
C6 C 0.5919(3) 0.6312(4) -0.1263(7)
C7 C 0.5143(3) 0.6749(4) -0.0869(7)
H6 H 0.5130 0.7354 -0.0209
C8 C 0.6714(3) 0.6849(5) -0.0695(7)
C9 C 0.7430(4) 0.6301(4) -0.0133(7)
H7 H 0.7424 0.5565 -0.0110
C10 C 0.8153(3) 0.6842(5) 0.0392(7)
C11 C 0.8114(4) 0.7938(5) 0.0339(8)
H8 H 0.8587 0.8314 0.0710
C12 C 0.6771(4) 0.7947(5) -0.0704(8)
H9 H 0.6301 0.8325 -0.1086
C13 C 0.8925(4) 0.6307(4) 0.1076(7)
C14 C 0.9731(4) 0.6736(4) 0.0898(7)
H10 H 0.9792 0.7369 0.0323
C15 C 0.8861(4) 0.5360(5) 0.1946(8)
H11 H 0.8333 0.5060 0.2081
C16 C 0.9568(4) 0.4854(5) 0.2620(9)
H12 H 0.9514 0.4220 0.3197
C17 C 1.0354(4) 0.5299(5) 0.2427(8)
H13 H 1.0831 0.4967 0.2882
C18 C 1.0432(3) 0.6237(4) 0.1558(7)
C19 C 1.1289(4) 0.6719(5) 0.1356(7)
Zn1_2 Zn 1.25292(4) 0.80248(5) 0.09411(9)
Zn1C Zn 0.25292(4) 0.69752(5) -0.40589(9)
O1C O 0.2897(2) 0.8460(3) 0.3219(5)
O3_2 O 0.1941(2) 0.6220(3) 0.1801(5)
O4_2 O 0.1336(3) 0.7638(3) 0.0742(6)
loop_
_geom_bond_atom_site_label_1
_geom_bond_atom_site_label_2
_geom_bond_site_symmetry_1
_geom_bond_site_symmetry_2
Zn1 O2 1_555 1_555
O1 C1 1_555 1_555
O2 C1 1_555 1_555
O3 C19 1_555 1_555
O4 C19 1_555 1_555
O5 Zn1 1_555 1_555
H1 O5 1_555 1_555
H2 O5 1_555 1_555
N1 C11 1_555 1_555
C1 C2 1_555 1_555
C2 C3 1_555 1_555
C3 H3 1_555 1_555
C4 C3 1_555 1_555
H4 C4 1_555 1_555
C5 C4 1_555 1_555
H5 C5 1_555 1_555
C6 C5 1_555 1_555
C7 C2 1_555 1_555
H6 C7 1_555 1_555
C8 C6 1_555 1_555
C9 C8 1_555 1_555
H7 C9 1_555 1_555
C10 C9 1_555 1_555
C11 C10 1_555 1_555
H8 C11 1_555 1_555
C12 N1 1_555 1_555
H9 C12 1_555 1_555
C13 C10 1_555 1_555
C14 C13 1_555 1_555
H10 C14 1_555 1_555
C15 C13 1_555 1_555
H11 C15 1_555 1_555
C16 C15 1_555 1_555
H12 C16 1_555 1_555
C17 C16 1_555 1_555
H13 C17 1_555 1_555
C18 C14 1_555 1_555
C19 C18 1_555 1_555
Zn1_2 O3 1_555 1_555
Zn1C O1 1_555 1_555
O1C Zn1 1_555 1_555
O3_2 Zn1 1_555 1_555
O4_2 Zn1 1_555 1_555
O4 Zn1_2 1_555 1_555
C6 C7 1_555 1_555
C8 C12 1_555 1_555
C17 C18 1_555 1_555

#END
