
#######################################################################
#
#                 Cambridge Crystallographic Data Centre
#                                CCDC 
#
#######################################################################
#
# If this CIF has been generated from an entry in the Cambridge 
# Structural Database, then it will include bibliographic, chemical, 
# crystal, experimental, refinement or atomic coordinate data resulting 
# from the CCDC's data processing and validation procedures.
#
#######################################################################

data_SIWFOT
_symmetry_cell_setting           orthorhombic
_symmetry_space_group_name_H-M   'P n a 21'
_symmetry_Int_Tables_number      33
_space_group_name_Hall           'P 2c -2n'
loop_
_symmetry_equiv_pos_site_id
_symmetry_equiv_pos_as_xyz
1 x,y,z
2 1/2-x,1/2+y,1/2+z
3 1/2+x,1/2-y,z
4 -x,-y,1/2+z
_cell_length_a                   10.940(3)
_cell_length_b                   9.611(4)
_cell_length_c                   6.576(3)
_cell_angle_alpha                90
_cell_angle_beta                 90
_cell_angle_gamma                90
_cell_volume                     691.429
loop_
_atom_site_label
_atom_site_type_symbol
_atom_site_fract_x
_atom_site_fract_y
_atom_site_fract_z
S1 S 0.75100(6) 0.29357 0.0000
O1 O 0.8826(2) 0.2779(2) 0.0030(6)
O2 O 0.6838(2) 0.1654(3) -0.0282(6)
C1 C 0.7046(4) 0.4207(5) -0.1806(8)
C2 C 0.6693(4) 0.5448(4) -0.0578(9)
C3 C 0.6108(4) 0.4900(5) 0.1380(9)
C4 C 0.6972(4) 0.3793(4) 0.2193(8)
Cl1 Cl 1.00279(8) 0.37804(8) -0.4566(3)
Li1 Li 1.0173(5) 0.4033(6) -0.098(1)
H1 H 0.7699 0.4426 -0.2678
H2 H 0.6366 0.3883 -0.2547
H3 H 0.7402 0.5987 -0.0228
H4 H 0.6134 0.6016 -0.1284
H5 H 0.6004 0.5631 0.2355
H6 H 0.5328 0.4503 0.1098
H7 H 0.7628 0.4214 0.2941
H8 H 0.6551 0.3168 0.3087
Li1B Li 0.5173(5) 0.0967(6) -0.098(1)
Li1C Li 0.9827(5) 0.5967(6) -0.598(1)
O2B O 1.1838(2) 0.3346(3) -0.0282(6)
Cl1C Cl 0.99721(8) 0.62196(8) 0.0434(3)
loop_
_geom_bond_atom_site_label_1
_geom_bond_atom_site_label_2
_geom_bond_site_symmetry_1
_geom_bond_site_symmetry_2
S1 O1 1_555 1_555
O1 Li1 1_555 1_555
O2 S1 1_555 1_555
C1 S1 1_555 1_555
C2 C1 1_555 1_555
C3 C2 1_555 1_555
C4 S1 1_555 1_555
Cl1 Li1 1_555 1_555
Li1 O2B 1_555 1_555
H1 C1 1_555 1_555
H2 C1 1_555 1_555
H3 C2 1_555 1_555
H4 C2 1_555 1_555
H5 C3 1_555 1_555
H6 C3 1_555 1_555
H7 C4 1_555 1_555
H8 C4 1_555 1_555
Li1B O2 1_555 1_555
Li1C Cl1 1_555 1_555
Cl1C Li1 1_555 1_555
C3 C4 1_555 1_555

#END
