
#######################################################################
#
#                 Cambridge Crystallographic Data Centre
#                                CCDC 
#
#######################################################################
#
# If this CIF has been generated from an entry in the Cambridge 
# Structural Database, then it will include bibliographic, chemical, 
# crystal, experimental, refinement or atomic coordinate data resulting 
# from the CCDC's data processing and validation procedures.
#
#######################################################################

data_SIWKOZ
_symmetry_cell_setting           monoclinic
_symmetry_space_group_name_H-M   'P 21/n'
_symmetry_Int_Tables_number      14
_space_group_name_Hall           '-P 2yn'
loop_
_symmetry_equiv_pos_site_id
_symmetry_equiv_pos_as_xyz
1 x,y,z
2 1/2-x,1/2+y,1/2-z
3 -x,-y,-z
4 1/2+x,1/2-y,1/2+z
_cell_length_a                   10.910(2)
_cell_length_b                   15.083(3)
_cell_length_c                   11.123(2)
_cell_angle_alpha                90
_cell_angle_beta                 110.21(3)
_cell_angle_gamma                90
_cell_volume                     1717.66
loop_
_atom_site_label
_atom_site_type_symbol
_atom_site_fract_x
_atom_site_fract_y
_atom_site_fract_z
I1 I 0.44768(3) 0.759110(15) 0.75649(3)
Mn1 Mn 0.40981(4) 0.40865(3) 0.79590(5)
S1 S 0.79892(8) 0.65150(5) 0.50708(7)
C1 C 0.6975(3) 0.6171(2) 0.5924(3)
C2 C 0.6322(3) 0.6807(2) 0.6349(3)
H1 H 0.6447 0.7402 0.6203
C3 C 0.5473(3) 0.6581(2) 0.6994(3)
C4 C 0.5225(3) 0.5708(2) 0.7234(3)
C5 C 0.5908(3) 0.5037(2) 0.6778(3)
C6 C 0.6788(3) 0.5253(2) 0.6144(3)
C7 C 0.7416(3) 0.4536(2) 0.5757(3)
H2 H 0.8019 0.4644 0.5354
C8 C 0.7119(3) 0.3686(2) 0.5988(4)
H3 H 0.7511 0.3210 0.5731
C9 C 0.6224(3) 0.3535(2) 0.6612(4)
H4 H 0.6038 0.2952 0.6762
C10 C 0.1568(4) 0.5003(2) 0.8168(4)
H5 H 0.1572 0.5251 0.7403
C11 C 0.0570(4) 0.5235(3) 0.8602(3)
H6 H -0.0078 0.5625 0.8131
C12 C 0.0535(3) 0.4882(2) 0.9750(3)
C13 C 0.1537(3) 0.4305(2) 1.0391(3)
H7 H 0.1564 0.4055 1.1164
C14 C 0.2502(3) 0.4099(2) 0.9883(3)
H8 H 0.3157 0.3705 1.0327
O1 O 0.4433(2) 0.54718(14) 0.7831(2)
O2 O 0.9333(2) 0.63136(17) 0.5854(2)
O3 O 0.7740(2) 0.74644(15) 0.4834(2)
O4 O 0.7584(2) 0.60030(15) 0.3877(2)
O5 O 0.4040(3) 0.26385(19) 0.7781(4)
O6 O 0.5531(3) 0.38817(19) 0.9844(3)
N1 N 0.5631(2) 0.41779(17) 0.6996(3)
N2 N 0.2532(2) 0.44419(17) 0.8785(3)
H9 H 0.551(4) 0.406(3) 1.049(4)
H10 H 0.441(5) 0.226(3) 0.827(5)
H11 H 0.607(5) 0.351(3) 0.992(4)
H12 H 0.366(6) 0.245(3) 0.715(6)
I1B I 0.55232(3) 0.240890(15) 0.24351(3)
Mn1B Mn 0.59019(4) 0.59135(3) 0.20410(5)
Mn1B_2 Mn -0.40981(4) 0.59135(3) 1.20410(5)
S1B S 0.20108(8) 0.34850(5) 0.49292(7)
C1B C 0.3025(3) 0.3829(2) 0.4076(3)
C2B C 0.3678(3) 0.3193(2) 0.3651(3)
H1B H 0.3553 0.2598 0.3797
C3B C 0.4527(3) 0.3419(2) 0.3006(3)
C4B C 0.4775(3) 0.4292(2) 0.2766(3)
C5B C 0.4092(3) 0.4963(2) 0.3222(3)
C6B C 0.3212(3) 0.4747(2) 0.3856(3)
C7B C 0.2584(3) 0.5464(2) 0.4243(3)
H2B H 0.1981 0.5356 0.4646
C8B C 0.2881(3) 0.6314(2) 0.4012(4)
H3B H 0.2489 0.6790 0.4269
C9B C 0.3776(3) 0.6465(2) 0.3388(4)
H4B H 0.3962 0.7048 0.3238
C10B C -0.1568(4) 0.4997(2) 1.1832(4)
H5B H -0.1572 0.4749 1.2597
C11B C -0.0570(4) 0.4765(3) 1.1398(3)
H6B H 0.0078 0.4375 1.1869
C12B C -0.0535(3) 0.5118(2) 1.0250(3)
C13B C -0.1537(3) 0.5695(2) 0.9609(3)
H7B H -0.1564 0.5945 0.8836
C14B C -0.2502(3) 0.5901(2) 1.0117(3)
H8B H -0.3157 0.6295 0.9673
O1B O 0.5567(2) 0.45282(14) 0.2169(2)
O2B O 0.0667(2) 0.36864(17) 0.4146(2)
O3B O 0.2260(2) 0.25356(15) 0.5166(2)
O4B O 0.2416(2) 0.39970(15) 0.6123(2)
O5B O 0.5960(3) 0.73615(19) 0.2219(4)
O6B O 0.4469(3) 0.61183(19) 0.0156(3)
N1B N 0.4369(2) 0.58221(17) 0.3004(3)
N2B N -0.2532(2) 0.55581(17) 1.1215(3)
N2B_2 N 0.7468(2) 0.55581(17) 0.1215(3)
H9B H 0.449(4) 0.594(3) -0.049(4)
H10B H 0.559(5) 0.774(3) 0.173(5)
H11B H 0.393(5) 0.649(3) 0.008(4)
H12B H 0.634(6) 0.755(3) 0.285(6)
loop_
_geom_bond_atom_site_label_1
_geom_bond_atom_site_label_2
_geom_bond_site_symmetry_1
_geom_bond_site_symmetry_2
I1 C3 1_555 1_555
Mn1 O1 1_555 1_555
S1 C1 1_555 1_555
C1 C2 1_555 1_555
C2 H1 1_555 1_555
C3 C2 1_555 1_555
C4 C3 1_555 1_555
C5 C4 1_555 1_555
C6 C1 1_555 1_555
C7 C6 1_555 1_555
H2 C7 1_555 1_555
C8 C7 1_555 1_555
H3 C8 1_555 1_555
C9 C8 1_555 1_555
H4 C9 1_555 1_555
C10 H5 1_555 1_555
C11 C10 1_555 1_555
H6 C11 1_555 1_555
C12 C11 1_555 1_555
C13 C12 1_555 1_555
H7 C13 1_555 1_555
C14 C13 1_555 1_555
H8 C14 1_555 1_555
O1 C4 1_555 1_555
O2 S1 1_555 1_555
O3 S1 1_555 1_555
O4 S1 1_555 1_555
O5 Mn1 1_555 1_555
O6 Mn1 1_555 1_555
N1 Mn1 1_555 1_555
N2 Mn1 1_555 1_555
H9 O6 1_555 1_555
H10 O5 1_555 1_555
H11 O6 1_555 1_555
H12 O5 1_555 1_555
I1B C3B 1_555 1_555
Mn1B O4 1_555 1_555
Mn1B_2 N2B 1_555 1_555
S1B C1B 1_555 1_555
C1B C2B 1_555 1_555
C2B H1B 1_555 1_555
C3B C2B 1_555 1_555
C4B C3B 1_555 1_555
C5B C4B 1_555 1_555
C6B C1B 1_555 1_555
C7B C6B 1_555 1_555
H2B C7B 1_555 1_555
C8B C7B 1_555 1_555
H3B C8B 1_555 1_555
C9B C8B 1_555 1_555
H4B C9B 1_555 1_555
C10B H5B 1_555 1_555
C11B C10B 1_555 1_555
H6B C11B 1_555 1_555
C12B C12 1_555 1_555
C13B C12B 1_555 1_555
H7B C13B 1_555 1_555
C14B C13B 1_555 1_555
H8B C14B 1_555 1_555
O1B Mn1B 1_555 1_555
O2B S1B 1_555 1_555
O3B S1B 1_555 1_555
O4B Mn1 1_555 1_555
O5B Mn1B 1_555 1_555
O6B Mn1B 1_555 1_555
N1B Mn1B 1_555 1_555
N2B C10B 1_555 1_555
N2B_2 Mn1B 1_555 1_555
H9B O6B 1_555 1_555
H10B O5B 1_555 1_555
H11B O6B 1_555 1_555
H12B O5B 1_555 1_555
C5 C6 1_555 1_555
C5 N1 1_555 1_555
C9 N1 1_555 1_555
C10 N2 1_555 1_555
C14 N2 1_555 1_555
S1B O4B 1_555 1_555
C4B O1B 1_555 1_555
C5B C6B 1_555 1_555
C5B N1B 1_555 1_555
C9B N1B 1_555 1_555
C11B C12B 1_555 1_555
C14B N2B 1_555 1_555

#END
