
#######################################################################
#
#                 Cambridge Crystallographic Data Centre
#                                CCDC 
#
#######################################################################
#
# If this CIF has been generated from an entry in the Cambridge 
# Structural Database, then it will include bibliographic, chemical, 
# crystal, experimental, refinement or atomic coordinate data resulting 
# from the CCDC's data processing and validation procedures.
#
#######################################################################

data_SIWSIC
_symmetry_cell_setting           monoclinic
_symmetry_space_group_name_H-M   'P 21/c'
_symmetry_Int_Tables_number      14
_space_group_name_Hall           '-P 2ybc'
loop_
_symmetry_equiv_pos_site_id
_symmetry_equiv_pos_as_xyz
1 x,y,z
2 -x,1/2+y,1/2-z
3 -x,-y,-z
4 x,1/2-y,1/2+z
_cell_length_a                   8.8851(4)
_cell_length_b                   14.3096(4)
_cell_length_c                   8.3842(4)
_cell_angle_alpha                90
_cell_angle_beta                 93.120(5)
_cell_angle_gamma                90
_cell_volume                     1064.41
loop_
_atom_site_label
_atom_site_type_symbol
_atom_site_fract_x
_atom_site_fract_y
_atom_site_fract_z
Cu1 Cu 0.0000 0.5000 0.5000
C1 C 0.1946(3) 0.76643(17) 0.4743(3)
C2 C 0.1548(3) 0.85610(17) 0.4243(3)
H1 H 0.0714 0.8652 0.3541
C3 C 0.2396(3) 0.93166(17) 0.4789(3)
C4 C 0.3688(3) 0.91791(18) 0.5777(3)
H2 H 0.4255 0.9688 0.6151
C5 C 0.4125(3) 0.82755(18) 0.6202(3)
C6 C 0.3238(3) 0.75241(18) 0.5732(3)
H3 H 0.3501 0.6925 0.6073
C7 C 0.0982(3) 0.68482(17) 0.4233(3)
C8 C 0.1920(3) 1.02977(19) 0.4369(3)
C9 C 0.5963(3) 0.73604(19) 0.7763(4)
H4 H 0.5102 0.7076 0.8236
H5 H 0.6707 0.7494 0.8623
C10 C 0.6753(3) 0.5422(2) 0.5456(4)
H6 H 0.6498 0.4867 0.4931
C11 C 0.8039(3) 0.65305(18) 0.6415(3)
H7 H 0.8830 0.6927 0.6729
N1 N 0.6606(2) 0.66816(15) 0.6686(3)
N2 N 0.5744(3) 0.59603(17) 0.6076(3)
N3 N 0.8186(2) 0.57307(14) 0.5631(3)
O1 O 0.12190(19) 0.61102(12) 0.5051(2)
O2 O 0.0032(2) 0.69277(12) 0.3093(2)
O3 O 0.0947(2) 1.03304(13) 0.3102(2)
H8 H 0.0714 1.0875 0.2913
O4 O 0.2330(2) 1.09763(13) 0.5113(3)
O5 O 0.5498(2) 0.82094(13) 0.7056(2)
C1B C -0.1946(3) 0.23357(17) 0.5257(3)
C2B C -0.1548(3) 0.14390(17) 0.5757(3)
H1B H -0.0714 0.1348 0.6459
C3B C -0.2396(3) 0.06834(17) 0.5211(3)
C4B C -0.3688(3) 0.08209(18) 0.4223(3)
H2B H -0.4255 0.0312 0.3849
C5B C -0.4125(3) 0.17245(18) 0.3798(3)
C6B C -0.3238(3) 0.24759(18) 0.4268(3)
H3B H -0.3501 0.3075 0.3927
C7B C -0.0982(3) 0.31518(17) 0.5767(3)
C8B C -0.1920(3) -0.02977(19) 0.5631(3)
C9B C -0.5963(3) 0.26396(19) 0.2237(4)
H4B H -0.5102 0.2924 0.1764
H5B H -0.6707 0.2506 0.1377
C10B C -0.6753(3) 0.4578(2) 0.4544(4)
H6B H -0.6498 0.5133 0.5069
C11B C -0.8039(3) 0.34695(18) 0.3585(3)
H7B H -0.8830 0.3073 0.3271
N1B N -0.6606(2) 0.33184(15) 0.3314(3)
N2B N -0.5744(3) 0.40397(17) 0.3924(3)
N3B N -0.8186(2) 0.42693(14) 0.4369(3)
O1B O -0.12190(19) 0.38898(12) 0.4949(2)
O2B O -0.0032(2) 0.30723(12) 0.6907(2)
O3B O -0.0947(2) -0.03304(13) 0.6898(2)
H8B H -0.0714 -0.0875 0.7087
O4B O -0.2330(2) -0.09763(13) 0.4887(3)
O5B O -0.5498(2) 0.17906(13) 0.2944(2)
Cu1_2 Cu -1.0000 0.5000 0.5000
Cu1_3 Cu 1.0000 0.5000 0.5000
Cu1A Cu 0.0000 0.0000 1.0000
Cu1A_2 Cu 0.0000 1.0000 0.0000
N3_2 N -0.1814(2) 0.57307(14) 0.5631(3)
N3B_2 N 0.1814(2) 0.42693(14) 0.4369(3)
O3A O -0.0947(2) 0.53304(13) 0.1898(2)
O3C O 0.0947(2) 0.46696(13) 0.8102(2)
loop_
_geom_bond_atom_site_label_1
_geom_bond_atom_site_label_2
_geom_bond_site_symmetry_1
_geom_bond_site_symmetry_2
Cu1 O1 1_555 1_555
C1 C2 1_555 1_555
C2 H1 1_555 1_555
C3 C2 1_555 1_555
C4 C3 1_555 1_555
H2 C4 1_555 1_555
C5 C4 1_555 1_555
C6 C1 1_555 1_555
H3 C6 1_555 1_555
C7 C1 1_555 1_555
C8 C3 1_555 1_555
C9 H4 1_555 1_555
H5 C9 1_555 1_555
C10 H6 1_555 1_555
C11 H7 1_555 1_555
N1 C9 1_555 1_555
N2 C10 1_555 1_555
N3 C10 1_555 1_555
O1 C7 1_555 1_555
O2 C7 1_555 1_555
O3 C8 1_555 1_555
H8 O3 1_555 1_555
O4 C8 1_555 1_555
O5 C5 1_555 1_555
C1B C2B 1_555 1_555
C2B H1B 1_555 1_555
C3B C2B 1_555 1_555
C4B C3B 1_555 1_555
H2B C4B 1_555 1_555
C5B C4B 1_555 1_555
C6B C1B 1_555 1_555
H3B C6B 1_555 1_555
C7B C1B 1_555 1_555
C8B C3B 1_555 1_555
C9B H4B 1_555 1_555
H5B C9B 1_555 1_555
C10B H6B 1_555 1_555
C11B H7B 1_555 1_555
N1B C9B 1_555 1_555
N2B C10B 1_555 1_555
N3B C10B 1_555 1_555
O1B Cu1 1_555 1_555
O2B C7B 1_555 1_555
O3B C8B 1_555 1_555
H8B O3B 1_555 1_555
O4B C8B 1_555 1_555
O5B C5B 1_555 1_555
Cu1_2 N3B 1_555 1_555
Cu1_3 N3 1_555 1_555
Cu1A O3B 1_555 1_555
Cu1A_2 O3 1_555 1_555
N3_2 Cu1 1_555 1_555
N3B_2 Cu1 1_555 1_555
O3A Cu1 1_555 1_555
O3C Cu1 1_555 1_555
C5 C6 1_555 1_555
C9 O5 1_555 1_555
C11 N1 1_555 1_555
C11 N3 1_555 1_555
N1 N2 1_555 1_555
C5B C6B 1_555 1_555
C7B O1B 1_555 1_555
C9B O5B 1_555 1_555
C11B N1B 1_555 1_555
C11B N3B 1_555 1_555
N1B N2B 1_555 1_555

#END
