
#######################################################################
#
#                 Cambridge Crystallographic Data Centre
#                                CCDC 
#
#######################################################################
#
# If this CIF has been generated from an entry in the Cambridge 
# Structural Database, then it will include bibliographic, chemical, 
# crystal, experimental, refinement or atomic coordinate data resulting 
# from the CCDC's data processing and validation procedures.
#
#######################################################################

data_SIWSOI
_symmetry_cell_setting           triclinic
_symmetry_space_group_name_H-M   'P -1'
_symmetry_Int_Tables_number      2
_space_group_name_Hall           '-P 1'
loop_
_symmetry_equiv_pos_site_id
_symmetry_equiv_pos_as_xyz
1 x,y,z
2 -x,-y,-z
_cell_length_a                   8.4928(5)
_cell_length_b                   9.6404(6)
_cell_length_c                   12.5967(8)
_cell_angle_alpha                68.102(6)
_cell_angle_beta                 71.434(6)
_cell_angle_gamma                64.579(6)
_cell_volume                     848.718
loop_
_atom_site_label
_atom_site_type_symbol
_atom_site_fract_x
_atom_site_fract_y
_atom_site_fract_z
Cu1 Cu 1.0000 0.0000 1.0000
C1 C 0.9327(3) -0.0804(3) 0.7208(2)
C2 C 1.0256(3) -0.1907(3) 0.6572(2)
H1 H 1.1359 -0.2660 0.6720
C3 C 0.9554(3) -0.1898(3) 0.5717(2)
C4 C 0.7898(3) -0.0790(3) 0.5506(2)
H2 H 0.7410 -0.0794 0.4943
C5 C 0.6976(3) 0.0325(3) 0.6139(2)
C6 C 0.7676(3) 0.0339(3) 0.6982(2)
H3 H 0.7058 0.1100 0.7395
C7 C 1.0055(3) -0.0845(3) 0.8173(2)
C8 C 1.0633(3) -0.3055(3) 0.5006(2)
C9 C 0.4366(3) 0.2636(3) 0.6376(2)
H4 H 0.3490 0.3457 0.5917
H5 H 0.5159 0.3107 0.6394
C10 C 0.2958(3) 0.1287(4) 0.9369(2)
H6 H 0.3008 0.1044 1.0147
C11 C 0.2168(3) 0.1521(3) 0.7883(2)
H7 H 0.1591 0.1501 0.7376
N1 N 0.3474(3) 0.2066(3) 0.75591(18)
N2 N 0.4009(3) 0.1926(3) 0.8519(2)
N3 N 0.1788(3) 0.1004(3) 0.90315(18)
O1 O 0.9176(2) 0.0320(2) 0.86268(15)
O2 O 1.1378(3) -0.1951(3) 0.84848(18)
O3 O 1.2163(2) -0.3898(2) 0.50643(17)
O4 O 0.9769(2) -0.3038(2) 0.42950(16)
H8 H 1.0420 -0.3691 0.3927
O5 O 0.5345(2) 0.1379(2) 0.58462(14)
C1A C 0.0673(3) 0.0804(3) 1.2792(2)
C2A C -0.0256(3) 0.1907(3) 1.3428(2)
H1A H -0.1359 0.2660 1.3280
C3A C 0.0446(3) 0.1898(3) 1.4283(2)
C4A C 0.2102(3) 0.0790(3) 1.4494(2)
H2A H 0.2590 0.0794 1.5057
C5A C 0.3024(3) -0.0325(3) 1.3861(2)
C6A C 0.2324(3) -0.0339(3) 1.3018(2)
H3A H 0.2942 -0.1100 1.2605
C7A C -0.0055(3) 0.0845(3) 1.1827(2)
C8A C -0.0633(3) 0.3055(3) 1.4994(2)
C9A C 0.5634(3) -0.2636(3) 1.3624(2)
H4A H 0.6510 -0.3457 1.4083
H5A H 0.4841 -0.3107 1.3606
C10A C 0.7042(3) -0.1287(4) 1.0631(2)
H6A H 0.6992 -0.1044 0.9853
C11A C 0.7832(3) -0.1521(3) 1.2117(2)
H7A H 0.8409 -0.1501 1.2624
N1A N 0.6526(3) -0.2066(3) 1.24409(18)
N2A N 0.5991(3) -0.1926(3) 1.1481(2)
N3A N 0.8212(3) -0.1004(3) 1.09685(18)
O1A O 0.0824(2) -0.0320(2) 1.13732(15)
O2A O -0.1378(3) 0.1951(3) 1.15152(18)
O3A O -0.2163(2) 0.3898(2) 1.49357(17)
O4A O 0.0231(2) 0.3038(2) 1.57050(16)
H8A H -0.0420 0.3691 1.6073
O5A O 0.4655(2) -0.1379(2) 1.41538(14)
Cu1_2 Cu 0.0000 0.0000 1.0000
N3_2 N 1.1788(3) 0.1004(3) 0.90315(18)
O1A_2 O 1.0824(2) -0.0320(2) 1.13732(15)
C12 C 0.5698(4) -0.3893(5) 0.7026(3)
H9 H 0.6053 -0.4322 0.6376
H10 H 0.5305 -0.2748 0.6757
H11 H 0.4746 -0.4213 0.7569
C13 C 0.7244(4) -0.4511(4) 0.7616(3)
C14 C 0.5380(4) -0.2972(5) 0.9019(3)
H12 H 0.5474 -0.1932 0.8741
H13 H 0.5191 -0.3309 0.9854
H14 H 0.4399 -0.2926 0.8768
C15 C 0.8541(4) -0.4705(4) 0.9121(3)
H15 H 0.9575 -0.5316 0.8676
H16 H 0.8304 -0.5372 0.9894
H17 H 0.8744 -0.3822 0.9161
N4 N 0.7004(3) -0.4099(3) 0.8556(2)
O6 O 0.8745(3) -0.5415(3) 0.72338(19)
loop_
_geom_bond_atom_site_label_1
_geom_bond_atom_site_label_2
_geom_bond_site_symmetry_1
_geom_bond_site_symmetry_2
Cu1 O1 1_555 1_555
C1 C2 1_555 1_555
C2 H1 1_555 1_555
C3 C2 1_555 1_555
C4 C3 1_555 1_555
H2 C4 1_555 1_555
C5 C4 1_555 1_555
C6 C1 1_555 1_555
H3 C6 1_555 1_555
C7 C1 1_555 1_555
C8 C3 1_555 1_555
C9 H4 1_555 1_555
H5 C9 1_555 1_555
C10 H6 1_555 1_555
C11 H7 1_555 1_555
N1 C9 1_555 1_555
N2 C10 1_555 1_555
N3 C10 1_555 1_555
O1 C7 1_555 1_555
O2 C7 1_555 1_555
O3 C8 1_555 1_555
O4 C8 1_555 1_555
H8 O4 1_555 1_555
O5 C5 1_555 1_555
C12 H9 1_555 1_555
H10 C12 1_555 1_555
H11 C12 1_555 1_555
C13 C12 1_555 1_555
C14 H12 1_555 1_555
H13 C14 1_555 1_555
H14 C14 1_555 1_555
C15 H15 1_555 1_555
H16 C15 1_555 1_555
H17 C15 1_555 1_555
N4 C13 1_555 1_555
O6 C13 1_555 1_555
C1A C2A 1_555 1_555
C2A H1A 1_555 1_555
C3A C2A 1_555 1_555
C4A C3A 1_555 1_555
H2A C4A 1_555 1_555
C5A C4A 1_555 1_555
C6A C1A 1_555 1_555
H3A C6A 1_555 1_555
C7A C1A 1_555 1_555
C8A C3A 1_555 1_555
C9A H4A 1_555 1_555
H5A C9A 1_555 1_555
C10A H6A 1_555 1_555
C11A H7A 1_555 1_555
N1A C9A 1_555 1_555
N2A C10A 1_555 1_555
N3A Cu1 1_555 1_555
O1A C7A 1_555 1_555
O2A C7A 1_555 1_555
O3A C8A 1_555 1_555
O4A C8A 1_555 1_555
H8A O4A 1_555 1_555
O5A C5A 1_555 1_555
Cu1_2 N3 1_555 1_555
N3_2 Cu1 1_555 1_555
O1A_2 Cu1 1_555 1_555
C5 C6 1_555 1_555
C9 O5 1_555 1_555
C11 N1 1_555 1_555
C11 N3 1_555 1_555
N1 N2 1_555 1_555
C14 N4 1_555 1_555
C15 N4 1_555 1_555
C5A C6A 1_555 1_555
C9A O5A 1_555 1_555
C10A N3A 1_555 1_555
C11A N1A 1_555 1_555
C11A N3A 1_555 1_555
N1A N2A 1_555 1_555
O1A Cu1_2 1_555 1_555

#END
