
#######################################################################
#
#                 Cambridge Crystallographic Data Centre
#                                CCDC 
#
#######################################################################
#
# If this CIF has been generated from an entry in the Cambridge 
# Structural Database, then it will include bibliographic, chemical, 
# crystal, experimental, refinement or atomic coordinate data resulting 
# from the CCDC's data processing and validation procedures.
#
#######################################################################

data_SIWVAW
_symmetry_cell_setting           monoclinic
_symmetry_space_group_name_H-M   'C 2/c'
_symmetry_Int_Tables_number      15
_space_group_name_Hall           '-C 2yn'
loop_
_symmetry_equiv_pos_site_id
_symmetry_equiv_pos_as_xyz
1 x,y,z
2 1/2+x,1/2+y,z
3 -x,y,1/2-z
4 1/2-x,1/2+y,1/2-z
5 -x,-y,-z
6 1/2-x,1/2-y,-z
7 x,-y,1/2+z
8 1/2+x,1/2-y,1/2+z
_cell_length_a                   18.199(11)
_cell_length_b                   8.896(6)
_cell_length_c                   15.076(9)
_cell_angle_alpha                90
_cell_angle_beta                 104.292(8)
_cell_angle_gamma                90
_cell_volume                     2365.24
loop_
_atom_site_label
_atom_site_type_symbol
_atom_site_fract_x
_atom_site_fract_y
_atom_site_fract_z
Cd1 Cd 0.269811(10) 1.00153(2) 0.151418(13)
O1 O 0.16207(12) 0.9332(3) 0.05465(16)
O2 O 0.21772(11) 0.7132(3) 0.08677(14)
O3 O -0.10881(11) 0.4148(2) -0.23120(14)
O4 O -0.15708(11) 0.6419(2) -0.23824(15)
O5 O 0.19781(15) 1.0431(3) 0.25959(18)
H1 H 0.1580 0.9913 0.2393
H2 H 0.1931 1.1382 0.2601
O6 O 0.24780(13) 1.2529(3) 0.11986(15)
H3 H 0.2246 1.2937 0.1561
H4 H 0.2919 1.2865 0.1218
N1 N 0.16154(13) 0.4855(2) -0.03595(17)
H5 H 0.1608 0.3982 -0.0606
H6 H 0.2027 0.5187 -0.0001
C1 C 0.09589(15) 0.7215(3) -0.01867(19)
C2 C 0.09494(14) 0.5748(3) -0.05440(18)
C3 C 0.02906(15) 0.5200(3) -0.11228(19)
H7 H 0.0286 0.4229 -0.1352
C4 C -0.03583(15) 0.6058(3) -0.13672(19)
C5 C -0.03586(16) 0.7494(3) -0.1009(2)
H8 H -0.0794 0.8082 -0.1161
C6 C 0.02911(16) 0.8040(3) -0.0425(2)
H9 H 0.0283 0.8999 -0.0182
C7 C -0.10424(15) 0.5486(3) -0.2050(2)
C8 C 0.16368(15) 0.7905(3) 0.04505(19)
Cd1G Cd -0.230189(10) 0.49847(2) -0.348582(13)
Cd1E Cd 0.230189(10) 0.49847(2) -0.151418(13)
O3G O 0.39119(11) 1.0852(2) 0.26880(14)
O4G O 0.34292(11) 0.8581(2) 0.26176(15)
N1E N 0.33846(13) 1.0145(2) 0.03595(17)
H5E H 0.3392 1.1018 0.0606
H6E H 0.2973 0.9813 0.0001
O7 O 0.37866(14) 0.3499(3) 0.08048(18)
H10 H 0.3640 0.4225 0.0437
H11 H 0.4199 0.3625 0.1210
O8 O 0.94952(16) 0.1277(3) 0.8064(2)
H12 H 0.9575 0.0900 0.7578
H13 H 0.9284 0.2136 0.8005
loop_
_geom_bond_atom_site_label_1
_geom_bond_atom_site_label_2
_geom_bond_site_symmetry_1
_geom_bond_site_symmetry_2
Cd1 O1 1_555 1_555
O1 C8 1_555 1_555
O2 C8 1_555 1_555
O3 C7 1_555 1_555
O4 C7 1_555 1_555
O5 Cd1 1_555 1_555
H1 O5 1_555 1_555
H2 O5 1_555 1_555
O6 Cd1 1_555 1_555
H3 O6 1_555 1_555
H4 O6 1_555 1_555
N1 H5 1_555 1_555
H6 N1 1_555 1_555
C1 C2 1_555 1_555
C2 N1 1_555 1_555
C3 C2 1_555 1_555
H7 C3 1_555 1_555
C4 C3 1_555 1_555
C5 C4 1_555 1_555
H8 C5 1_555 1_555
C6 C1 1_555 1_555
H9 C6 1_555 1_555
C7 C4 1_555 1_555
C8 C1 1_555 1_555
O7 H10 1_555 1_555
H11 O7 1_555 1_555
O8 H12 1_555 1_555
H13 O8 1_555 1_555
Cd1G O3 1_555 1_555
Cd1E N1 1_555 1_555
O3G Cd1 1_555 1_555
O4G Cd1 1_555 1_555
N1E Cd1 1_555 1_555
H5E N1E 1_555 1_555
H6E N1E 1_555 1_555
O4 Cd1G 1_555 1_555
C5 C6 1_555 1_555

#END
