
#######################################################################
#
#                 Cambridge Crystallographic Data Centre
#                                CCDC 
#
#######################################################################
#
# If this CIF has been generated from an entry in the Cambridge 
# Structural Database, then it will include bibliographic, chemical, 
# crystal, experimental, refinement or atomic coordinate data resulting 
# from the CCDC's data processing and validation procedures.
#
#######################################################################

data_SIWYUS01
_symmetry_cell_setting           orthorhombic
_symmetry_space_group_name_H-M   'P 21 21 21'
_symmetry_Int_Tables_number      19
_space_group_name_Hall           'P 2ac 2ab'
loop_
_symmetry_equiv_pos_site_id
_symmetry_equiv_pos_as_xyz
1 x,y,z
2 1/2-x,-y,1/2+z
3 -x,1/2+y,1/2-z
4 1/2+x,1/2-y,-z
_cell_length_a                   7.348(2)
_cell_length_b                   11.388(2)
_cell_length_c                   24.295(5)
_cell_angle_alpha                90
_cell_angle_beta                 90
_cell_angle_gamma                90
_cell_volume                     2032.98
loop_
_atom_site_label
_atom_site_type_symbol
_atom_site_fract_x
_atom_site_fract_y
_atom_site_fract_z
Cu1 Cu 0.02189(6) 0.52327(4) 0.852260(16)
Cu2 Cu 0.02626(7) 0.38940(4) 0.957331(15)
O1 O 0.1383(3) 0.3841(2) 0.88538(9)
O2 O -0.0064(4) 0.6868(2) 0.83179(10)
O3 O 0.0960(4) 0.8207(2) 0.77278(11)
O4 O -0.2242(4) 0.4110(3) 0.82426(13)
H1 H -0.210(6) 0.364(3) 0.7992(11)
H2 H -0.246(6) 0.366(4) 0.8494(13)
N1 N 0.1586(5) 0.5068(3) 0.78169(14)
H3 H 0.105(4) 0.473(3) 0.7612(12)
C1 C 0.1823(5) 0.2899(3) 0.85361(15)
C2 C 0.1334(5) 0.1758(3) 0.86761(16)
H4 H 0.0695 0.1619 0.9000
C3 C 0.1790(6) 0.0831(4) 0.83365(17)
H5 H 0.1451 0.0071 0.8432
C4 C 0.2738(6) 0.1026(4) 0.78615(17)
H6 H 0.3061 0.0398 0.7638
C5 C 0.3218(6) 0.2154(4) 0.77134(17)
H7 H 0.3846 0.2278 0.7386
C6 C 0.2779(5) 0.3104(4) 0.80449(16)
C7 C 0.3243(6) 0.4335(4) 0.78800(17)
H8 H 0.4028 0.4682 0.8157
H9 H 0.3905 0.4321 0.7535
C8 C 0.1958(6) 0.6259(3) 0.76067(17)
H10 H 0.1677 0.6285 0.7217
H11 H 0.3244 0.6429 0.7650
C9 C 0.0868(6) 0.7189(3) 0.78998(16)
O5 O -0.0695(3) 0.5374(2) 0.92745(9)
O6 O 0.1767(4) 0.2705(2) 0.99261(10)
O7 O 0.2760(4) 0.2124(2) 1.07413(10)
N2 N -0.0639(5) 0.4197(3) 1.03275(13)
H12 H -0.147(4) 0.382(3) 1.0346(17)
C10 C -0.2360(5) 0.5741(3) 0.94572(16)
C11 C -0.3726(6) 0.6086(4) 0.90919(18)
H13 H -0.3499 0.6092 0.8715
C12 C -0.5421(6) 0.6419(4) 0.9289(2)
H14 H -0.6333 0.6639 0.9044
C13 C -0.5748(6) 0.6423(4) 0.9843(2)
H15 H -0.6885 0.6646 0.9974
C14 C -0.4404(6) 0.6099(4) 1.02075(18)
H16 H -0.4648 0.6105 1.0583
C15 C -0.2684(5) 0.5763(3) 1.00236(16)
C16 C -0.1197(6) 0.5430(3) 1.04130(15)
H17 H -0.0158 0.5942 1.0357
H18 H -0.1615 0.5532 1.0789
C17 C 0.0717(5) 0.3736(3) 1.07162(14)
H19 H 0.0104 0.3429 1.1039
H20 H 0.1516 0.4366 1.0833
C18 C 0.1828(5) 0.2774(4) 1.04520(16)
Cu2C Cu 0.52626(7) 0.11060(4) 1.042669(15)
O7C O -0.2240(4) 0.2876(2) 0.92587(10)
O8 O -0.2402(7) -0.1117(5) 0.8589(3)
H21 H -0.333(3) -0.136(4) 0.8411(16)
H22 H -0.171(4) -0.168(3) 0.8487(17)
loop_
_geom_bond_atom_site_label_1
_geom_bond_atom_site_label_2
_geom_bond_site_symmetry_1
_geom_bond_site_symmetry_2
Cu1 O1 1_555 1_555
Cu2 O1 1_555 1_555
O1 C1 1_555 1_555
O2 Cu1 1_555 1_555
O3 C9 1_555 1_555
O4 Cu1 1_555 1_555
H1 O4 1_555 1_555
H2 O4 1_555 1_555
N1 Cu1 1_555 1_555
H3 N1 1_555 1_555
C1 C2 1_555 1_555
C2 H4 1_555 1_555
C3 C2 1_555 1_555
H5 C3 1_555 1_555
C4 C3 1_555 1_555
H6 C4 1_555 1_555
C5 C4 1_555 1_555
H7 C5 1_555 1_555
C6 C1 1_555 1_555
C7 N1 1_555 1_555
H8 C7 1_555 1_555
H9 C7 1_555 1_555
C8 N1 1_555 1_555
H10 C8 1_555 1_555
H11 C8 1_555 1_555
C9 O2 1_555 1_555
O5 Cu1 1_555 1_555
O6 Cu2 1_555 1_555
O7 C18 1_555 1_555
N2 Cu2 1_555 1_555
H12 N2 1_555 1_555
C10 O5 1_555 1_555
C11 C10 1_555 1_555
H13 C11 1_555 1_555
C12 C11 1_555 1_555
H14 C12 1_555 1_555
C13 C12 1_555 1_555
H15 C13 1_555 1_555
C14 C13 1_555 1_555
H16 C14 1_555 1_555
C15 C10 1_555 1_555
C16 N2 1_555 1_555
H17 C16 1_555 1_555
H18 C16 1_555 1_555
C17 N2 1_555 1_555
H19 C17 1_555 1_555
H20 C17 1_555 1_555
C18 O6 1_555 1_555
O8 H21 1_555 1_555
H22 O8 1_555 1_555
Cu2C O7 1_555 1_555
O7C Cu2 1_555 1_555
Cu2 O5 1_555 1_555
C5 C6 1_555 1_555
C6 C7 1_555 1_555
C8 C9 1_555 1_555
C14 C15 1_555 1_555
C15 C16 1_555 1_555
C17 C18 1_555 1_555

#END
