
#######################################################################
#
#                 Cambridge Crystallographic Data Centre
#                                CCDC 
#
#######################################################################
#
# If this CIF has been generated from an entry in the Cambridge 
# Structural Database, then it will include bibliographic, chemical, 
# crystal, experimental, refinement or atomic coordinate data resulting 
# from the CCDC's data processing and validation procedures.
#
#######################################################################

data_SIXDUZ
_symmetry_cell_setting           monoclinic
_symmetry_space_group_name_H-M   'P 21/c'
_symmetry_Int_Tables_number      14
_space_group_name_Hall           '-P 2ybc'
loop_
_symmetry_equiv_pos_site_id
_symmetry_equiv_pos_as_xyz
1 x,y,z
2 -x,1/2+y,1/2-z
3 -x,-y,-z
4 x,1/2-y,1/2+z
_cell_length_a                   7.2691(15)
_cell_length_b                   11.092(2)
_cell_length_c                   8.4619(17)
_cell_angle_alpha                90
_cell_angle_beta                 98.54(3)
_cell_angle_gamma                90
_cell_volume                     674.709
loop_
_atom_site_label
_atom_site_type_symbol
_atom_site_fract_x
_atom_site_fract_y
_atom_site_fract_z
Ag1 Ag -0.18777(3) -0.481100(18) 0.15778(3)
C1 C -0.1704(4) -0.2211(2) -0.0244(3)
C2 C -0.3118(4) -0.1670(2) 0.0593(3)
C3 C -0.4732(4) -0.2279(2) 0.0800(3)
H1 H -0.4967 -0.3062 0.0362
C4 C -0.5993(4) -0.1742(2) 0.1645(3)
H2 H -0.7100 -0.2167 0.1759
C5 C -0.4181(4) -0.0054(2) 0.2084(3)
H3 H -0.3979 0.0729 0.2534
C6 C -0.2859(4) -0.0514(2) 0.1233(3)
H4 H -0.1797 -0.0052 0.1087
N1 N -0.1209(3) -0.33761(19) -0.0134(3)
N2 N 0.0206(3) -0.3469(2) -0.1001(3)
N3 N 0.0525(3) -0.2411(2) -0.1602(3)
N4 N -0.0663(3) -0.15948(19) -0.1152(3)
N5 N -0.5729(3) -0.0641(2) 0.2317(3)
Ag1A Ag -0.81223(3) 0.018900(18) 0.34222(3)
Ag1C Ag -0.18777(3) -0.018900(18) -0.34222(3)
Ag1B Ag 0.18777(3) -0.518900(18) -0.15778(3)
N2B N -0.0206(3) -0.6531(2) 0.1001(3)
N4C N -0.0663(3) -0.34052(19) 0.3848(3)
N5A N -0.4271(3) -0.5641(2) 0.2683(3)
loop_
_geom_bond_atom_site_label_1
_geom_bond_atom_site_label_2
_geom_bond_site_symmetry_1
_geom_bond_site_symmetry_2
Ag1 N1 1_555 1_555
C1 C2 1_555 1_555
C2 C3 1_555 1_555
C3 H1 1_555 1_555
C4 C3 1_555 1_555
H2 C4 1_555 1_555
C5 H3 1_555 1_555
C6 C2 1_555 1_555
H4 C6 1_555 1_555
N1 C1 1_555 1_555
N2 N1 1_555 1_555
N3 N2 1_555 1_555
N4 C1 1_555 1_555
N5 C4 1_555 1_555
Ag1A N5 1_555 1_555
Ag1C N4 1_555 1_555
Ag1B N2 1_555 1_555
N2B Ag1 1_555 1_555
N4C Ag1 1_555 1_555
N5A Ag1 1_555 1_555
C5 C6 1_555 1_555
C5 N5 1_555 1_555
N3 N4 1_555 1_555

#END
