
#######################################################################
#
#                 Cambridge Crystallographic Data Centre
#                                CCDC 
#
#######################################################################
#
# If this CIF has been generated from an entry in the Cambridge 
# Structural Database, then it will include bibliographic, chemical, 
# crystal, experimental, refinement or atomic coordinate data resulting 
# from the CCDC's data processing and validation procedures.
#
#######################################################################

data_SIXREX
_symmetry_cell_setting           monoclinic
_symmetry_space_group_name_H-M   'P 21/c'
_symmetry_Int_Tables_number      14
_space_group_name_Hall           '-P 2ybc'
loop_
_symmetry_equiv_pos_site_id
_symmetry_equiv_pos_as_xyz
1 x,y,z
2 -x,1/2+y,1/2-z
3 -x,-y,-z
4 x,1/2-y,1/2+z
_cell_length_a                   10.192(6)
_cell_length_b                   16.815(9)
_cell_length_c                   16.996(10)
_cell_angle_alpha                90
_cell_angle_beta                 102.488(9)
_cell_angle_gamma                90
_cell_volume                     2843.84
loop_
_atom_site_label
_atom_site_type_symbol
_atom_site_fract_x
_atom_site_fract_y
_atom_site_fract_z
Co1 Co 0.75690(3) 0.510697(19) 0.249531(19)
N1 N 1.17080(19) 0.49337(12) 0.37243(12)
N2 N 0.96335(19) 0.48556(12) 0.30137(13)
N3 N 1.30178(19) 0.48637(12) 0.50887(12)
N4 N 1.28213(19) 0.46768(12) 0.63375(12)
N5 N 0.77466(19) 0.44466(12) 0.00947(12)
N6 N 0.7937(2) 0.49246(12) 0.13174(13)
N7 N 0.45200(19) 0.46980(13) -0.19874(12)
N8 N 0.64280(19) 0.42713(13) -0.12482(12)
O5 O 0.80198(17) 0.63347(10) 0.24027(11)
H1 H 0.8790 0.6522 0.2392
H2 H 0.7439 0.6701 0.2271
O6 O 0.71115(16) 0.38764(10) 0.25854(10)
H3 H 0.6431 0.3626 0.2325
H4 H 0.7452 0.3553 0.2958
C1 C 1.0469(2) 0.52622(15) 0.35590(15)
H13 H 1.0238 0.5721 0.3803
C2 C 1.0368(2) 0.42333(15) 0.28161(16)
H14 H 1.0037 0.3842 0.2439
C3 C 1.1642(2) 0.42728(16) 0.32493(16)
H15 H 1.2337 0.3920 0.3229
C4 C 1.2523(2) 0.51461(15) 0.57093(16)
H16 H 1.2032 0.5614 0.5693
C5 C 1.3543(3) 0.40662(15) 0.61083(16)
H17 H 1.3893 0.3639 0.6434
C6 C 1.3676(2) 0.41710(15) 0.53453(16)
H18 H 1.4124 0.3840 0.5052
C7 C 1.2867(2) 0.52289(17) 0.43027(16)
H19 H 1.2781 0.5800 0.4357
H20 H 1.3670 0.5129 0.4099
C8 C 0.7460(3) 0.43471(16) 0.08233(16)
H21 H 0.6978 0.3918 0.0960
C9 C 0.8567(3) 0.54181(17) 0.08787(18)
H22 H 0.9014 0.5884 0.1073
C10 C 0.8451(3) 0.51381(18) 0.01306(19)
H23 H 0.8785 0.5370 -0.0283
C11 C 0.5089(2) 0.42929(15) -0.13402(16)
H24 H 0.4621 0.4052 -0.0991
C12 C 0.6741(3) 0.4693(2) -0.18730(17)
H25 H 0.7593 0.4786 -0.1967
C13 C 0.5566(3) 0.49461(18) -0.23210(17)
H26 H 0.5472 0.5246 -0.2790
C14 C 0.7385(3) 0.39100(16) -0.05867(15)
H27 H 0.8188 0.3762 -0.0771
H28 H 0.6998 0.3429 -0.0417
Co1B Co 1.24310(3) 0.489303(19) 0.750469(19)
Co1B_2 Co 0.24310(3) 0.489303(19) -0.249531(19)
N4B N 0.71787(19) 0.53232(12) 0.36625(12)
N7B N 0.54800(19) 0.53020(13) 0.19874(12)
O1 O 0.52753(19) 0.19419(15) 0.55254(15)
O2 O 0.47733(18) 0.17981(14) 0.67037(13)
O3 O -0.13343(17) 0.29077(12) 0.37625(12)
O4 O -0.17490(17) 0.30810(12) 0.49731(13)
C15 C 0.2992(2) 0.20782(14) 0.55898(15)
C16 C 0.2641(2) 0.22861(15) 0.47835(16)
H29 H 0.3286 0.2266 0.4471
C17 C 0.1354(2) 0.25225(15) 0.44372(16)
H30 H 0.1138 0.2660 0.3895
C18 C 0.0373(2) 0.25575(14) 0.48907(15)
C19 C 0.0710(2) 0.23212(16) 0.56913(16)
H31 H 0.0061 0.2326 0.6000
C20 C 0.2002(2) 0.20795(16) 0.60329(16)
H32 H 0.2210 0.1915 0.6568
C21 C 0.4450(2) 0.19135(15) 0.59695(18)
C22 C -0.1007(2) 0.28689(14) 0.45104(18)
O7 O 0.55133(17) 0.30299(14) 0.43461(13)
H5 H 0.5374 0.2706 0.4704
H6 H 0.6361 0.3069 0.4411
O8 O 0.3743(2) 0.23990(14) 0.79388(13)
H7 H 0.3998 0.2213 0.7531
H8 H 0.4387 0.2288 0.8332
O9 O 0.9443(2) 0.17866(15) 0.27581(15)
H9 H 0.8816 0.1831 0.2340
H10 H 0.9298 0.2161 0.3064
O10 O 0.7505(3) 0.29147(17) 0.64212(16)
H11 H 0.7839 0.2857 0.6008
H12 H 0.6783 0.2646 0.6337
loop_
_geom_bond_atom_site_label_1
_geom_bond_atom_site_label_2
_geom_bond_site_symmetry_1
_geom_bond_site_symmetry_2
Co1 N2 1_555 1_555
N1 C1 1_555 1_555
N2 C1 1_555 1_555
N3 C4 1_555 1_555
N4 C4 1_555 1_555
N5 C8 1_555 1_555
N6 Co1 1_555 1_555
N7 C11 1_555 1_555
N8 C11 1_555 1_555
O1 C21 1_555 1_555
O2 C21 1_555 1_555
O3 C22 1_555 1_555
O4 C22 1_555 1_555
O5 Co1 1_555 1_555
H1 O5 1_555 1_555
H2 O5 1_555 1_555
O6 Co1 1_555 1_555
H3 O6 1_555 1_555
H4 O6 1_555 1_555
O7 H5 1_555 1_555
H6 O7 1_555 1_555
O8 H7 1_555 1_555
H8 O8 1_555 1_555
O9 H9 1_555 1_555
H10 O9 1_555 1_555
O10 H11 1_555 1_555
H12 O10 1_555 1_555
C1 H13 1_555 1_555
C2 N2 1_555 1_555
H14 C2 1_555 1_555
C3 N1 1_555 1_555
H15 C3 1_555 1_555
C4 H16 1_555 1_555
C5 N4 1_555 1_555
H17 C5 1_555 1_555
C6 N3 1_555 1_555
H18 C6 1_555 1_555
C7 N1 1_555 1_555
H19 C7 1_555 1_555
H20 C7 1_555 1_555
C8 N6 1_555 1_555
H21 C8 1_555 1_555
C9 N6 1_555 1_555
H22 C9 1_555 1_555
C10 N5 1_555 1_555
H23 C10 1_555 1_555
C11 H24 1_555 1_555
C12 N8 1_555 1_555
H25 C12 1_555 1_555
C13 N7 1_555 1_555
H26 C13 1_555 1_555
C14 N5 1_555 1_555
H27 C14 1_555 1_555
H28 C14 1_555 1_555
C15 C16 1_555 1_555
C16 H29 1_555 1_555
C17 C16 1_555 1_555
H30 C17 1_555 1_555
C18 C17 1_555 1_555
C19 C18 1_555 1_555
H31 C19 1_555 1_555
C20 C15 1_555 1_555
H32 C20 1_555 1_555
C21 C15 1_555 1_555
C22 C18 1_555 1_555
Co1B N4 1_555 1_555
Co1B_2 N7 1_555 1_555
N4B Co1 1_555 1_555
N7B Co1 1_555 1_555
N3 C7 1_555 1_555
N8 C14 1_555 1_555
C2 C3 1_555 1_555
C5 C6 1_555 1_555
C9 C10 1_555 1_555
C12 C13 1_555 1_555
C19 C20 1_555 1_555

#END
