
#######################################################################
#
#                 Cambridge Crystallographic Data Centre
#                                CCDC 
#
#######################################################################
#
# If this CIF has been generated from an entry in the Cambridge 
# Structural Database, then it will include bibliographic, chemical, 
# crystal, experimental, refinement or atomic coordinate data resulting 
# from the CCDC's data processing and validation procedures.
#
#######################################################################

data_SIXRUN
_symmetry_cell_setting           monoclinic
_symmetry_space_group_name_H-M   'P 21/c'
_symmetry_Int_Tables_number      14
_space_group_name_Hall           '-P 2ybc'
loop_
_symmetry_equiv_pos_site_id
_symmetry_equiv_pos_as_xyz
1 x,y,z
2 -x,1/2+y,1/2-z
3 -x,-y,-z
4 x,1/2-y,1/2+z
_cell_length_a                   10.917(2)
_cell_length_b                   16.610(3)
_cell_length_c                   16.723(3)
_cell_angle_alpha                90
_cell_angle_beta                 104.498(2)
_cell_angle_gamma                90
_cell_volume                     2935.84
loop_
_atom_site_label
_atom_site_type_symbol
_atom_site_fract_x
_atom_site_fract_y
_atom_site_fract_z
Ni1 Ni 0.72034(6) 0.49052(4) 0.75438(4)
N1 N 1.0930(4) 0.5685(2) 0.8662(3)
N2 N 0.9159(4) 0.5101(3) 0.8015(2)
N3 N 1.2457(4) 0.5834(3) 0.9979(3)
N4 N 1.2944(4) 0.5401(3) 1.1271(3)
N5 N 0.7811(4) 0.5259(3) 0.5178(3)
N6 N 0.7453(4) 0.5296(3) 0.6407(3)
N7 N 0.6660(4) 0.5265(3) 0.3744(3)
N8 N 0.4704(4) 0.5341(3) 0.2991(3)
O5 O 0.6678(3) 0.6095(2) 0.7760(2)
H1 H 0.7145 0.6405 0.8113
H2 H 0.5929 0.6188 0.7799
O6 O 0.7654(3) 0.3731(2) 0.7286(2)
H3 H 0.8017 0.3393 0.7650
H4 H 0.7187 0.3455 0.6900
C9 C 0.9692(5) 0.5585(3) 0.8620(3)
H19 H 0.9269 0.5828 0.8975
C10 C 1.0117(5) 0.4877(3) 0.7661(4)
H20 H 1.0029 0.4521 0.7220
C11 C 1.1189(5) 0.5243(4) 0.8042(4)
H21 H 1.1965 0.5203 0.7909
C12 C 1.2151(5) 0.5834(3) 1.0709(3)
H22 H 1.1459 0.6107 1.0806
C13 C 1.3780(5) 0.5102(4) 1.0865(4)
H23 H 1.4454 0.4765 1.1101
C14 C 1.3500(5) 0.5360(4) 1.0074(4)
H24 H 1.3932 0.5239 0.9676
C15 C 1.1773(5) 0.6232(3) 0.9229(3)
H25 H 1.2374 0.6462 0.8953
H26 H 1.1279 0.6670 0.9371
C16 C 0.7323(5) 0.4881(3) 0.5735(3)
H27 H 0.6935 0.4379 0.5649
C17 C 0.8052(6) 0.5987(3) 0.6282(4)
H28 H 0.8268 0.6406 0.6660
C18 C 0.8288(6) 0.5971(4) 0.5522(4)
H29 H 0.8692 0.6365 0.5286
C19 C 0.5528(5) 0.4898(3) 0.3520(3)
H30 H 0.5351 0.4397 0.3712
C20 C 0.5329(5) 0.6022(4) 0.2886(3)
H31 H 0.4977 0.6454 0.2554
C21 C 0.6533(5) 0.5979(4) 0.3334(4)
H32 H 0.7160 0.6364 0.3359
C22 C 0.7785(5) 0.4983(3) 0.4352(3)
H33 H 0.7803 0.4400 0.4347
H34 H 0.8535 0.5176 0.4200
Ni1B Ni 1.27966(6) 0.50948(4) 1.24562(4)
Ni1B_2 Ni 0.27966(6) 0.50948(4) 0.24562(4)
N4B N 0.7056(4) 0.4599(3) 0.8729(3)
N8B N 0.5296(4) 0.4659(3) 0.7009(3)
O1 O 0.9499(3) 0.7986(2) 0.5089(2)
O2 O 0.8075(3) 0.7881(2) 0.3893(2)
O3 O 0.3685(3) 0.7246(2) 0.3900(2)
O4 O 0.3243(4) 0.6945(3) 0.5098(3)
C1 C 0.7342(5) 0.7960(3) 0.5101(3)
C2 C 0.6158(5) 0.7660(3) 0.4719(3)
H15 H 0.5993 0.7507 0.4168
C3 C 0.5216(5) 0.7580(3) 0.5127(3)
C4 C 0.5448(6) 0.7804(4) 0.5932(4)
H16 H 0.4827 0.7737 0.6219
C5 C 0.6616(6) 0.8136(5) 0.6329(4)
H17 H 0.6768 0.8309 0.6874
C6 C 0.7530(6) 0.8203(4) 0.5909(4)
H18 H 0.8309 0.8421 0.6177
C7 C 0.8354(5) 0.7947(3) 0.4659(4)
C8 C 0.3945(5) 0.7229(3) 0.4680(4)
O7 O 0.4273(3) 0.8619(2) 0.3063(2)
H5 H 0.4089 0.8239 0.3352
H6 H 0.3917 0.8482 0.2569
O8 O 0.0682(4) 0.7674(2) 0.6690(3)
H7 H 0.0239 0.7589 0.7033
H8 H 0.0150 0.7727 0.6225
O9 O 0.0696(4) 0.6623(3) 0.4478(3)
H9 H 0.0412 0.7045 0.4655
H10 H 0.1496 0.6663 0.4645
O10 O 0.2720(4) 0.6757(3) 0.6592(3)
H11 H 0.2879 0.6860 0.6130
H12 H 0.1993 0.6960 0.6554
O11 O 0.9540(5) 0.7275(3) 0.2936(3)
H13 H 0.9059 0.7532 0.3174
H14 H 0.9842 0.6897 0.3270
loop_
_geom_bond_atom_site_label_1
_geom_bond_atom_site_label_2
_geom_bond_site_symmetry_1
_geom_bond_site_symmetry_2
Ni1 N2 1_555 1_555
N1 C9 1_555 1_555
N2 C9 1_555 1_555
N3 C12 1_555 1_555
N4 C12 1_555 1_555
N5 C16 1_555 1_555
N6 Ni1 1_555 1_555
N7 C19 1_555 1_555
N8 C19 1_555 1_555
O1 C7 1_555 1_555
O2 C7 1_555 1_555
O3 C8 1_555 1_555
O4 C8 1_555 1_555
O5 Ni1 1_555 1_555
H1 O5 1_555 1_555
H2 O5 1_555 1_555
O6 Ni1 1_555 1_555
H3 O6 1_555 1_555
H4 O6 1_555 1_555
O7 H5 1_555 1_555
H6 O7 1_555 1_555
O8 H7 1_555 1_555
H8 O8 1_555 1_555
O9 H9 1_555 1_555
H10 O9 1_555 1_555
O10 H11 1_555 1_555
H12 O10 1_555 1_555
O11 H13 1_555 1_555
H14 O11 1_555 1_555
C1 C2 1_555 1_555
C2 H15 1_555 1_555
C3 C2 1_555 1_555
C4 C3 1_555 1_555
H16 C4 1_555 1_555
C5 C4 1_555 1_555
H17 C5 1_555 1_555
C6 C1 1_555 1_555
H18 C6 1_555 1_555
C7 C1 1_555 1_555
C8 C3 1_555 1_555
C9 H19 1_555 1_555
C10 N2 1_555 1_555
H20 C10 1_555 1_555
C11 N1 1_555 1_555
H21 C11 1_555 1_555
C12 H22 1_555 1_555
C13 N4 1_555 1_555
H23 C13 1_555 1_555
C14 N3 1_555 1_555
H24 C14 1_555 1_555
C15 N1 1_555 1_555
H25 C15 1_555 1_555
H26 C15 1_555 1_555
C16 N6 1_555 1_555
H27 C16 1_555 1_555
C17 N6 1_555 1_555
H28 C17 1_555 1_555
C18 N5 1_555 1_555
H29 C18 1_555 1_555
C19 H30 1_555 1_555
C20 N8 1_555 1_555
H31 C20 1_555 1_555
C21 N7 1_555 1_555
H32 C21 1_555 1_555
C22 N5 1_555 1_555
H33 C22 1_555 1_555
H34 C22 1_555 1_555
Ni1B N4 1_555 1_555
Ni1B_2 N8 1_555 1_555
N4B Ni1 1_555 1_555
N8B Ni1 1_555 1_555
N3 C15 1_555 1_555
N7 C22 1_555 1_555
C5 C6 1_555 1_555
C10 C11 1_555 1_555
C13 C14 1_555 1_555
C17 C18 1_555 1_555
C20 C21 1_555 1_555

#END
