
#######################################################################
#
#                 Cambridge Crystallographic Data Centre
#                                CCDC 
#
#######################################################################
#
# If this CIF has been generated from an entry in the Cambridge 
# Structural Database, then it will include bibliographic, chemical, 
# crystal, experimental, refinement or atomic coordinate data resulting 
# from the CCDC's data processing and validation procedures.
#
#######################################################################

data_SIXSIC
_symmetry_cell_setting           monoclinic
_symmetry_space_group_name_H-M   'P 21'
_symmetry_Int_Tables_number      4
_space_group_name_Hall           'P 2yb'
loop_
_symmetry_equiv_pos_site_id
_symmetry_equiv_pos_as_xyz
1 x,y,z
2 -x,1/2+y,-z
_cell_length_a                   6.2541(12)
_cell_length_b                   13.851(3)
_cell_length_c                   11.311(2)
_cell_angle_alpha                90
_cell_angle_beta                 105.202(4)
_cell_angle_gamma                90
_cell_volume                     945.535
loop_
_atom_site_label
_atom_site_type_symbol
_atom_site_fract_x
_atom_site_fract_y
_atom_site_fract_z
C1 C 0.9735(11) 0.5086(6) 0.6791(6)
H1 H 1.1275 0.5096 0.6982
C2 C 0.8593(11) 0.5138(5) 0.5551(6)
H2 H 0.9346 0.5229 0.4952
C3 C 0.6318(10) 0.5050(7) 0.5242(5)
C4 C 0.5296(11) 0.4973(7) 0.6172(6)
H3 H 0.3760 0.4920 0.5967
C5 C 0.6433(9) 0.4970(7) 0.7405(5)
H4 H 0.5687 0.4933 0.8015
C6 C 0.4694(11) 0.5411(4) 0.1858(6)
H5 H 0.5300 0.5656 0.1252
C7 C 0.6012(10) 0.5414(5) 0.3068(6)
H6 H 0.7463 0.5640 0.3270
C8 C 0.5028(9) 0.5057(7) 0.3957(5)
C9 C 0.2918(11) 0.4630(4) 0.3636(6)
H7 H 0.2347 0.4333 0.4225
C10 C 0.1746(13) 0.4661(5) 0.2459(7)
H8 H 0.0322 0.4405 0.2241
C11 C 1.3175(12) 0.7455(5) 0.7084(6)
C12 C 1.4233(10) 0.7194(4) 0.6203(6)
H9 H 1.5712 0.7006 0.6435
C13 C 1.3091(11) 0.7211(5) 0.4966(7)
H10 H 1.3821 0.7031 0.4383
C14 C 1.0933(11) 0.7487(6) 0.4596(6)
C15 C 0.9816(12) 0.7718(6) 0.5491(7)
H11 H 0.8311 0.7862 0.5254
C16 C 1.0984(13) 0.7733(5) 0.6764(7)
H12 H 1.0283 0.7925 0.7356
C17 C 1.4231(10) 0.7430(4) 0.8279(5)
H13 H 1.4901 0.7971 0.8707
C18 C 1.4245(10) 0.6457(5) 0.8875(6)
C19 C 0.9809(11) 0.7477(5) 0.3379(6)
Co1 Co 1.07651(15) 0.50033(9) 0.96136(8)
N1 N 0.8828(9) 0.5026(7) 0.7702(5)
N2 N 0.2631(8) 0.5080(6) 0.1524(5)
O1 O 1.2585(10) 0.6197(4) 0.9119(5)
O2 O 1.5778(7) 0.5910(3) 0.8947(4)
O3 O 1.0691(7) 0.7162(3) 0.2568(4)
O4 O 0.7922(8) 0.7872(3) 0.3007(5)
O5 O 1.2794(9) 0.3973(4) 0.9211(6)
H14 H 1.3013 0.4152 0.8534
H15 H 1.2059 0.3450 0.9068
O6 O 0.8972(10) 0.3959(5) 1.0164(6)
H16 H 0.9500 0.3328 1.0030
H17 H 0.7467 0.4032 0.9684
O7 O 0.8712(8) 0.6034(4) 1.0038(6)
H18 H 0.9174 0.6174 1.0794
H19 H 0.7383 0.5833 0.9887
Co1_2 Co 0.07651(15) 0.50033(9) -0.03864(8)
N2_2 N 1.2631(8) 0.5080(6) 1.1524(5)
O8 O 0.3640(7) 0.7574(3) 0.1224(4)
H20 H 0.4687 0.7637 0.1953
H21 H 0.2772 0.7079 0.1450
loop_
_geom_bond_atom_site_label_1
_geom_bond_atom_site_label_2
_geom_bond_site_symmetry_1
_geom_bond_site_symmetry_2
C1 H1 1_555 1_555
C2 C1 1_555 1_555
H2 C2 1_555 1_555
C3 C2 1_555 1_555
C4 C3 1_555 1_555
H3 C4 1_555 1_555
C5 C4 1_555 1_555
H4 C5 1_555 1_555
C6 H5 1_555 1_555
C7 C6 1_555 1_555
H6 C7 1_555 1_555
C8 C3 1_555 1_555
C9 C8 1_555 1_555
H7 C9 1_555 1_555
C10 C9 1_555 1_555
H8 C10 1_555 1_555
C11 C12 1_555 1_555
C12 H9 1_555 1_555
C13 C12 1_555 1_555
H10 C13 1_555 1_555
C14 C13 1_555 1_555
C15 C14 1_555 1_555
H11 C15 1_555 1_555
C16 C11 1_555 1_555
H12 C16 1_555 1_555
C17 C11 1_555 1_555
H13 C17 1_555 1_555
C18 C17 1_555 1_555
C19 C14 1_555 1_555
Co1 N1 1_555 1_555
N1 C1 1_555 1_555
N2 C6 1_555 1_555
O1 C18 1_555 1_555
O2 C18 1_555 1_555
O3 C19 1_555 1_555
O4 C19 1_555 1_555
O5 Co1 1_555 1_555
H14 O5 1_555 1_555
H15 O5 1_555 1_555
O6 Co1 1_555 1_555
H16 O6 1_555 1_555
H17 O6 1_555 1_555
O7 Co1 1_555 1_555
H18 O7 1_555 1_555
H19 O7 1_555 1_555
O8 H20 1_555 1_555
H21 O8 1_555 1_555
Co1_2 N2 1_555 1_555
N2_2 Co1 1_555 1_555
C5 N1 1_555 1_555
C7 C8 1_555 1_555
C10 N2 1_555 1_555
C15 C16 1_555 1_555
Co1 O1 1_555 1_555

#END
