
#######################################################################
#
#                 Cambridge Crystallographic Data Centre
#                                CCDC 
#
#######################################################################
#
# If this CIF has been generated from an entry in the Cambridge 
# Structural Database, then it will include bibliographic, chemical, 
# crystal, experimental, refinement or atomic coordinate data resulting 
# from the CCDC's data processing and validation procedures.
#
#######################################################################

data_SIXTID
_symmetry_cell_setting           orthorhombic
_symmetry_space_group_name_H-M   'P b c a'
_symmetry_Int_Tables_number      61
_space_group_name_Hall           '-P 2ac 2ab'
loop_
_symmetry_equiv_pos_site_id
_symmetry_equiv_pos_as_xyz
1 x,y,z
2 1/2+x,1/2-y,-z
3 -x,1/2+y,1/2-z
4 1/2-x,-y,1/2+z
5 -x,-y,-z
6 1/2-x,1/2+y,z
7 x,1/2-y,1/2+z
8 1/2+x,y,1/2-z
_cell_length_a                   15.168(3)
_cell_length_b                   16.2911(9)
_cell_length_c                   20.753(2)
_cell_angle_alpha                90
_cell_angle_beta                 90
_cell_angle_gamma                90
_cell_volume                     5128.14
loop_
_atom_site_label
_atom_site_type_symbol
_atom_site_fract_x
_atom_site_fract_y
_atom_site_fract_z
Ag1 Ag 0.11171(2) 0.18806(2) 0.08237(1)
O5 O 0.0829(3) 0.1857(3) -0.0293(2)
O6 O 0.0107(2) 0.2769(2) 0.1265(1)
C1 C 0.2412(2) -0.0619(2) 0.0610(2)
C2 C 0.2563(2) -0.0572(2) 0.1848(2)
C3 C 0.1656(2) -0.0174(2) 0.0935(2)
C4 C 0.0938(3) 0.0185(2) 0.0634(2)
C5 C 0.0294(3) 0.0576(3) 0.1012(3)
C6 C 0.0388(3) 0.0615(2) 0.1668(2)
C7 C 0.1115(2) 0.0258(2) 0.1975(2)
C8 C 0.1738(2) -0.0146(2) 0.1603(2)
C9 C 0.3241(2) -0.0185(2) 0.0832(2)
C10 C 0.3872(2) 0.0181(2) 0.0445(2)
C11 C 0.4589(3) 0.0569(3) 0.0731(2)
C12 C 0.4670(3) 0.0601(3) 0.1393(3)
C13 C 0.4030(2) 0.0238(2) 0.1782(2)
C14 C 0.3325(2) -0.0155(2) 0.1500(2)
C15 C 0.2423(2) -0.1468(2) 0.0912(2)
C16 C 0.2332(3) -0.2204(2) 0.0593(2)
C17 C 0.2332(3) -0.2937(2) 0.0960(3)
C18 C 0.2447(3) -0.2916(2) 0.1617(3)
C19 C 0.2538(2) -0.2159(2) 0.1936(2)
C20 C 0.2518(2) -0.1445(2) 0.1584(2)
C21 C 0.1468(5) 0.1652(6) -0.0779(3)
C22 C 0.0992(6) 0.1627(8) -0.1394(3)
C23 C 0.0100(6) 0.1926(5) -0.1276(3)
C24 C 0.0039(6) 0.2085(5) -0.0575(3)
C25 C -0.0505(5) 0.3275(4) 0.0952(3)
C26 C -0.1116(4) 0.3606(4) 0.1460(3)
C27 C -0.0653(4) 0.3442(5) 0.2066(3)
C28 C -0.0048(6) 0.2816(5) 0.1942(3)
H1 H 0.2367 -0.0634 0.0154
H2 H 0.2628 -0.0563 0.2310
H3 H 0.0887 0.0169 0.0177
H4 H -0.0207 0.0805 0.0804
H5 H -0.0047 0.0892 0.1919
H6 H 0.1190 0.0281 0.2427
H7 H 0.3819 0.0181 -0.0010
H8 H 0.5022 0.0803 0.0460
H9 H 0.5155 0.0887 0.1578
H10 H 0.4092 0.0256 0.2245
H11 H 0.2276 -0.2227 0.0140
H12 H 0.2248 -0.3450 0.0753
H13 H 0.2460 -0.3419 0.1845
H14 H 0.2625 -0.2147 0.2387
H15 H 0.1920 0.2041 -0.0816
H16 H 0.1741 0.1121 -0.0675
H17 H 0.1321 0.1845 -0.1713
H18 H 0.0953 0.0999 -0.1499
H19 H -0.0353 0.1596 -0.1439
H20 H 0.0060 0.2465 -0.1493
H21 H -0.0147 0.2610 -0.0470
H22 H -0.0438 0.1702 -0.0404
H23 H -0.0840 0.2963 0.0638
H24 H -0.0219 0.3712 0.0724
H25 H -0.1675 0.3347 0.1448
H26 H -0.1207 0.4192 0.1398
H27 H -0.0350 0.3932 0.2214
H28 H -0.1058 0.3284 0.2395
H29 H 0.0515 0.2920 0.2159
H30 H -0.0253 0.2297 0.2098
Ag1E Ag 0.38829(2) -0.31194(2) 0.08237(1)
C17E C 0.2668(3) 0.2063(2) 0.0960(3)
H12E H 0.2752 0.1550 0.0753
Cl1 Cl 0.76152(7) 0.10142(7) 0.13803(5)
O1 O 0.736(1) 0.1478(7) 0.1853(4)
O2 O 0.6881(5) 0.0796(8) 0.1076(4)
O3 O 0.8006(6) 0.0412(8) 0.1673(7)
O4 O 0.8185(3) 0.1406(4) 0.0946(2)
loop_
_geom_bond_atom_site_label_1
_geom_bond_atom_site_label_2
_geom_bond_site_symmetry_1
_geom_bond_site_symmetry_2
Ag1 O5 1_555 1_555
Cl1 O1 1_555 1_555
O2 Cl1 1_555 1_555
O3 Cl1 1_555 1_555
O4 Cl1 1_555 1_555
O5 C21 1_555 1_555
O6 Ag1 1_555 1_555
C1 C3 1_555 1_555
C2 C8 1_555 1_555
C3 C4 1_555 1_555
C4 C5 1_555 1_555
C5 Ag1 1_555 1_555
C6 C5 1_555 1_555
C7 C6 1_555 1_555
C8 C3 1_555 1_555
C9 C1 1_555 1_555
C10 C9 1_555 1_555
C11 C10 1_555 1_555
C12 C11 1_555 1_555
C13 C12 1_555 1_555
C14 C2 1_555 1_555
C15 C1 1_555 1_555
C16 C15 1_555 1_555
C17 C16 1_555 1_555
C18 C17 1_555 1_555
C19 C18 1_555 1_555
C20 C2 1_555 1_555
C21 C22 1_555 1_555
C22 C23 1_555 1_555
C23 C24 1_555 1_555
C24 O5 1_555 1_555
C25 O6 1_555 1_555
C26 C25 1_555 1_555
C27 C26 1_555 1_555
C28 O6 1_555 1_555
H1 C1 1_555 1_555
H2 C2 1_555 1_555
H3 C4 1_555 1_555
H4 C5 1_555 1_555
H5 C6 1_555 1_555
H6 C7 1_555 1_555
H7 C10 1_555 1_555
H8 C11 1_555 1_555
H9 C12 1_555 1_555
H10 C13 1_555 1_555
H11 C16 1_555 1_555
H12 C17 1_555 1_555
H13 C18 1_555 1_555
H14 C19 1_555 1_555
H15 C21 1_555 1_555
H16 C21 1_555 1_555
H17 C22 1_555 1_555
H18 C22 1_555 1_555
H19 C23 1_555 1_555
H20 C23 1_555 1_555
H21 C24 1_555 1_555
H22 C24 1_555 1_555
H23 C25 1_555 1_555
H24 C25 1_555 1_555
H25 C26 1_555 1_555
H26 C26 1_555 1_555
H27 C27 1_555 1_555
H28 C27 1_555 1_555
H29 C28 1_555 1_555
H30 C28 1_555 1_555
Ag1E C17 1_555 1_555
C17E Ag1 1_555 1_555
H12E C17E 1_555 1_555
C7 C8 1_555 1_555
C9 C14 1_555 1_555
C13 C14 1_555 1_555
C15 C20 1_555 1_555
C19 C20 1_555 1_555
C27 C28 1_555 1_555

#END
