
#######################################################################
#
#                 Cambridge Crystallographic Data Centre
#                                CCDC 
#
#######################################################################
#
# If this CIF has been generated from an entry in the Cambridge 
# Structural Database, then it will include bibliographic, chemical, 
# crystal, experimental, refinement or atomic coordinate data resulting 
# from the CCDC's data processing and validation procedures.
#
#######################################################################

data_SIXVAX
_symmetry_cell_setting           monoclinic
_symmetry_space_group_name_H-M   'P 21/c'
_symmetry_Int_Tables_number      14
_space_group_name_Hall           '-P 2ybc'
loop_
_symmetry_equiv_pos_site_id
_symmetry_equiv_pos_as_xyz
1 x,y,z
2 -x,1/2+y,1/2-z
3 -x,-y,-z
4 x,1/2-y,1/2+z
_cell_length_a                   8.486(4)
_cell_length_b                   9.551(4)
_cell_length_c                   16.351(6)
_cell_angle_alpha                90
_cell_angle_beta                 97.79(2)
_cell_angle_gamma                90
_cell_volume                     1313.02
loop_
_atom_site_label
_atom_site_type_symbol
_atom_site_fract_x
_atom_site_fract_y
_atom_site_fract_z
Zn1 Zn 1.0000 0.5000 0.0000
N1 N 0.9146(8) 0.7143(7) -0.0243(4)
C1 C 0.8693(10) 0.7896(8) 0.0305(5)
H1 H 0.8812 0.7565 0.0845
C2 C 0.8007(11) 0.9233(9) 0.0137(6)
H2 H 0.7681 0.9733 0.0573
C3 C 0.7798(11) 0.9826(10) -0.0620(6)
H3 H 0.7352 1.0709 -0.0722
C4 C 0.8272(11) 0.9058(10) -0.1192(6)
C5 C 0.8931(10) 0.7762(9) -0.0972(6)
H4 H 0.9271 0.7254 -0.1401
N2 N 0.8051(10) 0.9538(7) -0.2003(5)
H5 H 0.8097 0.8911 -0.2377
C6 C 0.7769(11) 1.0877(11) -0.2286(6)
O1 O 0.7783(7) 1.1845(6) -0.1829(4)
C7 C 0.7417(11) 1.1025(10) -0.3189(6)
C8 C 0.6232(11) 1.1930(10) -0.3628(6)
H6 H 0.5617 1.2439 -0.3304
C9 C 0.5901(11) 1.2134(11) -0.4460(6)
H7 H 0.5101 1.2709 -0.4720
C10 C 0.6866(10) 1.1407(9) -0.4826(6)
H8 H 0.6759 1.1451 -0.5399
N3 N 0.8113(9) 1.0520(7) -0.4408(4)
C11 C 0.8352(11) 1.0325(8) -0.3607(6)
H9 H 0.9137 0.9726 -0.3355
O2 O 1.1759(7) 0.5559(6) 0.1184(4)
H10 H 1.2491 0.4977 0.1576
H11 H 1.1824 0.6377 0.1436
Zn1C Zn 1.0000 1.0000 -0.5000
Zn1C_2 Zn 1.0000 0.0000 0.5000
N1B N 1.0854(8) 0.2857(7) 0.0243(4)
C1B C 1.1307(10) 0.2104(8) -0.0305(5)
H1B H 1.1188 0.2435 -0.0845
C2B C 1.1993(11) 0.0767(9) -0.0137(6)
H2B H 1.2319 0.0267 -0.0573
C3B C 1.2202(11) 0.0174(10) 0.0620(6)
H3B H 1.2648 -0.0709 0.0722
C4B C 1.1728(11) 0.0942(10) 0.1192(6)
C5B C 1.1069(10) 0.2238(9) 0.0972(6)
H4B H 1.0729 0.2746 0.1401
N2B N 1.1949(10) 0.0462(7) 0.2003(5)
H5B H 1.1903 0.1089 0.2377
C6B C 1.2231(11) -0.0877(11) 0.2286(6)
O1B O 1.2217(7) -0.1845(6) 0.1829(4)
C7B C 1.2583(11) -0.1025(10) 0.3189(6)
C8B C 1.3768(11) -0.1930(10) 0.3628(6)
H6B H 1.4383 -0.2439 0.3304
C9B C 1.4099(11) -0.2134(11) 0.4460(6)
H7B H 1.4899 -0.2709 0.4720
C10B C 1.3134(10) -0.1407(9) 0.4826(6)
H8B H 1.3241 -0.1451 0.5399
N3B N 1.1887(9) -0.0520(7) 0.4408(4)
N3C N 0.8113(9) 0.4480(7) 0.0592(4)
N3A N 1.1887(9) 0.5520(7) -0.0592(4)
C11B C 1.1648(11) -0.0325(8) 0.3607(6)
H9B H 1.0863 0.0274 0.3355
O2B O 0.8241(7) 0.4441(6) -0.1184(4)
H10B H 0.7509 0.5023 -0.1576
H11B H 0.8176 0.3623 -0.1436
B1 B 0.3287(15) 0.3713(11) 0.3078(7)
F1 F 0.3763(6) 0.3813(5) 0.2392(3)
F4 F 0.4297(19) 0.4417(19) 0.3787(11)
F6 F 0.333(3) 0.239(3) 0.3370(16)
F10 F 0.166(2) 0.405(3) 0.2857(13)
F2? F 0.1674(8) 0.3098(8) 0.2848(5)
F3? F 0.293(3) 0.5159(18) 0.3240(12)
F5? F 0.432(2) 0.2446(18) 0.3471(11)
F7? F 0.4331(15) 0.3121(17) 0.3728(9)
F8? F 0.197(4) 0.504(3) 0.3005(17)
F9? F 0.375(4) 0.491(3) 0.3489(17)
loop_
_geom_bond_atom_site_label_1
_geom_bond_atom_site_label_2
_geom_bond_site_symmetry_1
_geom_bond_site_symmetry_2
Zn1 N1 1_555 1_555
N1 C1 1_555 1_555
C1 H1 1_555 1_555
C2 C1 1_555 1_555
H2 C2 1_555 1_555
C3 C2 1_555 1_555
H3 C3 1_555 1_555
C4 C3 1_555 1_555
C5 N1 1_555 1_555
H4 C5 1_555 1_555
N2 C4 1_555 1_555
H5 N2 1_555 1_555
C6 N2 1_555 1_555
O1 C6 1_555 1_555
C7 C6 1_555 1_555
C8 C7 1_555 1_555
H6 C8 1_555 1_555
C9 C8 1_555 1_555
H7 C9 1_555 1_555
C10 C9 1_555 1_555
H8 C10 1_555 1_555
N3 C10 1_555 1_555
C11 C7 1_555 1_555
H9 C11 1_555 1_555
O2 Zn1 1_555 1_555
B1 F1 1_555 1_555
F4 B1 1_555 1_555
F6 B1 1_555 1_555
F10 B1 1_555 1_555
H10 O2 1_555 1_555
H11 O2 1_555 1_555
Zn1C N3 1_555 1_555
Zn1C_2 N3B 1_555 1_555
N1B Zn1 1_555 1_555
C1B N1B 1_555 1_555
H1B C1B 1_555 1_555
C2B C1B 1_555 1_555
H2B C2B 1_555 1_555
C3B C2B 1_555 1_555
H3B C3B 1_555 1_555
C4B C3B 1_555 1_555
C5B N1B 1_555 1_555
H4B C5B 1_555 1_555
N2B C4B 1_555 1_555
H5B N2B 1_555 1_555
C6B N2B 1_555 1_555
O1B C6B 1_555 1_555
C7B C6B 1_555 1_555
C8B C7B 1_555 1_555
H6B C8B 1_555 1_555
C9B C8B 1_555 1_555
H7B C9B 1_555 1_555
C10B C9B 1_555 1_555
H8B C10B 1_555 1_555
N3B C10B 1_555 1_555
N3C Zn1 1_555 1_555
N3A Zn1 1_555 1_555
C11B C7B 1_555 1_555
H9B C11B 1_555 1_555
O2B Zn1 1_555 1_555
H10B O2B 1_555 1_555
H11B O2B 1_555 1_555
C4 C5 1_555 1_555
N3 C11 1_555 1_555
C4B C5B 1_555 1_555
N3B C11B 1_555 1_555

#END
