
#######################################################################
#
#                 Cambridge Crystallographic Data Centre
#                                CCDC 
#
#######################################################################
#
# If this CIF has been generated from an entry in the Cambridge 
# Structural Database, then it will include bibliographic, chemical, 
# crystal, experimental, refinement or atomic coordinate data resulting 
# from the CCDC's data processing and validation procedures.
#
#######################################################################

data_SIXWED
_symmetry_cell_setting           tetragonal
_symmetry_space_group_name_H-M   'P 42/n'
_symmetry_Int_Tables_number      86
_space_group_name_Hall           '-P 4bc'
loop_
_symmetry_equiv_pos_site_id
_symmetry_equiv_pos_as_xyz
1 x,y,z
2 1/2-x,1/2-y,z
3 -y,1/2+x,1/2+z
4 1/2+y,-x,1/2+z
5 -x,-y,-z
6 1/2+x,1/2+y,-z
7 y,1/2-x,1/2-z
8 1/2-y,x,1/2-z
_cell_length_a                   13.702(5)
_cell_length_b                   13.702(5)
_cell_length_c                   24.273(12)
_cell_angle_alpha                90
_cell_angle_beta                 90
_cell_angle_gamma                90
_cell_volume                     4557.13
loop_
_atom_site_label
_atom_site_type_symbol
_atom_site_fract_x
_atom_site_fract_y
_atom_site_fract_z
Zn1 Zn 0.86671(7) 0.74984(9) 0.20436(5)
O1 O 0.9502(6) 0.8589(6) 0.2251(4)
O2 O 0.7500 0.7500 0.2500
O3 O 0.9482(6) 0.6395(6) 0.2190(4)
O4 O 0.8316(12) 0.7469(11) 0.1288(5)
C1 C 0.9421(10) 0.9307(10) 0.2643(7)
C2 C 1.0328(7) 0.9910(8) 0.2842(5)
C3 C 1.1262(8) 0.9752(7) 0.2637(4)
C4 C 1.0166(6) 1.0646(9) 0.3226(5)
H1 H 1.1371 0.9260 0.2381
C5 C 1.2034(6) 1.0330(8) 0.2816(4)
C6 C 1.0937(8) 1.1223(7) 0.3405(4)
H2 H 0.9541 1.0752 0.3363
H3 H 1.2659 1.0224 0.2679
C7 C 1.1871(7) 1.1065(7) 0.3200(4)
H4 H 1.0829 1.1715 0.3661
C8 C 1.2611(11) 1.1644(11) 0.3339(6)
N1 N 1.2500 1.2500 0.3673(4)
H5 H 1.2911 1.1855 0.2997
H6 H 1.3086 1.1234 0.3524
C9 C 1.2500 1.2500 0.4278(4)
C10 C 1.2520(10) 1.1628(8) 0.4574(4)
H7 H 1.2561 1.1037 0.4387
C11 C 1.2480(11) 1.1637(7) 0.5150(3)
H8 H 1.2438 1.1046 0.5337
C12 C 1.2500 1.2500 0.5451(5)
Cl1 Cl 1.2546(9) 1.0363(8) 0.5388(6)
C13 C 1.2500 1.2500 0.6069(6)
Zn1A Zn 0.63329(7) 0.75016(9) 0.20436(5)
Zn1G Zn 0.75016(9) 0.86671(7) 0.29564(5)
Zn1F Zn 0.74984(9) 0.63329(7) 0.29564(5)
O3G O 0.8605(6) 0.9482(6) 0.2810(4)
O3A O 0.5518(6) 0.8605(6) 0.2190(4)
O1A O 0.5498(6) 0.6411(6) 0.2251(4)
O4A O 0.6684(12) 0.7531(11) 0.1288(5)
O1G O 0.6411(6) 0.9502(6) 0.2749(4)
O4G O 0.7531(11) 0.8316(12) 0.3712(5)
C1G C 0.5693(10) 0.9421(10) 0.2357(7)
C2G C 0.5090(8) 1.0328(7) 0.2158(5)
C3G C 0.5248(7) 1.1262(8) 0.2363(4)
C4G C 0.4354(9) 1.0166(6) 0.1774(5)
H1G H 0.5740 1.1371 0.2619
C5G C 0.4670(8) 1.2034(6) 0.2184(4)
C6G C 0.3777(7) 1.0937(8) 0.1595(4)
H2G H 0.4248 0.9541 0.1637
H3G H 0.4776 1.2659 0.2321
C7G C 0.3935(7) 1.1871(7) 0.1800(4)
H4G H 0.3285 1.0829 0.1339
C8A C 1.2389(11) 1.3356(11) 0.3339(6)
C8G C 0.3356(11) 1.2611(11) 0.1661(6)
C10A C 1.2480(10) 1.3372(8) 0.4574(4)
C7A C 1.3129(7) 1.3935(7) 0.3200(4)
H5A H 1.2089 1.3145 0.2997
H6A H 1.1914 1.3766 0.3524
N1F N 0.2500 1.2500 0.1327(4)
H5G H 0.3145 1.2911 0.2003
H6G H 0.3766 1.3086 0.1476
H7A H 1.2439 1.3963 0.4387
C11A C 1.2520(11) 1.3363(7) 0.5150(3)
C5A C 1.2966(6) 1.4670(8) 0.2816(4)
C6A C 1.4063(8) 1.3777(7) 0.3405(4)
C8F C 0.1644(11) 1.2389(11) 0.1661(6)
C9F C 0.2500 1.2500 0.0722(4)
H8A H 1.2562 1.3954 0.5337
Cl1A Cl 1.2454(9) 1.4637(8) 0.5388(6)
C3A C 1.3738(8) 1.5248(7) 0.2637(4)
H3A H 1.2341 1.4776 0.2679
H4A H 1.4171 1.3285 0.3661
C4A C 1.4834(6) 1.4354(9) 0.3226(5)
C7F C 0.1065(7) 1.3129(7) 0.1800(4)
H5F H 0.1855 1.2089 0.2003
H6F H 0.1234 1.1914 0.1476
C10F C 0.1628(8) 1.2480(10) 0.0426(4)
C10G C 0.3372(8) 1.2520(10) 0.0426(4)
H1A H 1.3629 1.5740 0.2381
C2A C 1.4672(7) 1.5090(8) 0.2842(5)
H2A H 1.5459 1.4248 0.3363
C5F C 0.0330(8) 1.2966(6) 0.2184(4)
C6F C 0.1223(7) 1.4063(8) 0.1595(4)
H7F H 0.1037 1.2439 0.0613
C11F C 0.1637(7) 1.2520(11) -0.0150(3)
H7G H 0.3963 1.2561 0.0613
C11G C 0.3363(7) 1.2480(11) -0.0150(3)
O4C O 1.2469(11) 1.1684(12) 0.6288(5)
O4B O 1.2531(11) 1.3316(12) 0.6288(5)
C1A C 1.5579(10) 1.5693(10) 0.2643(7)
C3F C -0.0248(7) 1.3738(8) 0.2363(4)
H3F H 0.0224 1.2341 0.2321
H4F H 0.1715 1.4171 0.1339
C4F C 0.0646(9) 1.4834(6) 0.1774(5)
H8F H 0.1046 1.2562 -0.0337
C12F C 0.2500 1.2500 -0.0451(5)
Cl1F Cl 0.0363(8) 1.2454(9) -0.0388(6)
H8G H 0.3954 1.2438 -0.0337
Cl1G Cl 0.4637(8) 1.2546(9) -0.0388(6)
Zn1C Zn 1.24984(9) 1.13329(7) 0.70436(5)
Zn1B Zn 1.25016(9) 1.36671(7) 0.70436(5)
O1A_2 O 1.5498(6) 1.6411(6) 0.2251(4)
O3F O 1.6395(6) 1.5518(6) 0.2810(4)
H1F H -0.0740 1.3629 0.2619
C2F C -0.0090(8) 1.4672(7) 0.2158(5)
H2F H 0.0752 1.5459 0.1637
C13F C 0.2500 1.2500 -0.1069(6)
Zn1E Zn 0.36671(7) 1.24984(9) -0.20436(5)
Zn1A_2 Zn 1.63329(7) 1.75016(9) 0.20436(5)
Zn1F_2 Zn 1.74984(9) 1.63329(7) 0.29564(5)
C1F C -0.0693(10) 1.5579(10) 0.2357(7)
O4D O 0.1684(12) 1.2531(11) -0.1288(5)
O4E O 0.3316(12) 1.2469(11) -0.1288(5)
O1F O -0.1411(6) 1.5498(6) 0.2749(4)
O3_2 O -0.0518(6) 1.6395(6) 0.2190(4)
Zn1D Zn 0.13329(7) 1.25016(9) -0.20436(5)
Zn1F_3 Zn -0.25016(9) 1.63329(7) 0.29564(5)
Zn1_2 Zn -0.13329(7) 1.74984(9) 0.20436(5)
O3F_2 O -0.3605(6) 1.5518(6) 0.2810(4)
O2_2 O -0.2500 1.7500 0.2500
O4F O -0.2531(11) 1.6684(12) 0.3712(5)
loop_
_geom_bond_atom_site_label_1
_geom_bond_atom_site_label_2
_geom_bond_site_symmetry_1
_geom_bond_site_symmetry_2
Zn1 O1 1_555 1_555
O1 C1 1_555 1_555
O2 Zn1 1_555 1_555
O3 Zn1 1_555 1_555
O4 Zn1 1_555 1_555
C1 C2 1_555 1_555
C2 C3 1_555 1_555
C3 H1 1_555 1_555
C4 C2 1_555 1_555
C5 C3 1_555 1_555
C6 C4 1_555 1_555
H2 C4 1_555 1_555
H3 C5 1_555 1_555
C7 C5 1_555 1_555
H4 C6 1_555 1_555
C8 C7 1_555 1_555
N1 C8 1_555 1_555
H5 C8 1_555 1_555
H6 C8 1_555 1_555
C9 N1 1_555 1_555
C10 C9 1_555 1_555
H7 C10 1_555 1_555
C11 C10 1_555 1_555
H8 C11 1_555 1_555
C12 C11 1_555 1_555
Cl1 C11 1_555 1_555
C13 C12 1_555 1_555
Zn1A O2 1_555 1_555
Zn1G O2 1_555 1_555
Zn1F O2 1_555 1_555
O3G C1 1_555 1_555
O3A Zn1A 1_555 1_555
O1A Zn1A 1_555 1_555
O4A Zn1A 1_555 1_555
O1G Zn1G 1_555 1_555
O4G Zn1G 1_555 1_555
C1G O3A 1_555 1_555
C2G C1G 1_555 1_555
C3G C2G 1_555 1_555
C4G C2G 1_555 1_555
H1G C3G 1_555 1_555
C5G C3G 1_555 1_555
C6G C4G 1_555 1_555
H2G C4G 1_555 1_555
H3G C5G 1_555 1_555
C7G C5G 1_555 1_555
H4G C6G 1_555 1_555
C8A N1 1_555 1_555
C8G C7G 1_555 1_555
C10A C9 1_555 1_555
C7A C8A 1_555 1_555
H5A C8A 1_555 1_555
H6A C8A 1_555 1_555
N1F C8G 1_555 1_555
H5G C8G 1_555 1_555
H6G C8G 1_555 1_555
H7A C10A 1_555 1_555
C11A C12 1_555 1_555
C5A C7A 1_555 1_555
C6A C7A 1_555 1_555
C8F N1F 1_555 1_555
C9F N1F 1_555 1_555
H8A C11A 1_555 1_555
Cl1A C11A 1_555 1_555
C3A C5A 1_555 1_555
H3A C5A 1_555 1_555
H4A C6A 1_555 1_555
C4A C6A 1_555 1_555
C7F C8F 1_555 1_555
H5F C8F 1_555 1_555
H6F C8F 1_555 1_555
C10F C9F 1_555 1_555
C10G C9F 1_555 1_555
H1A C3A 1_555 1_555
C2A C3A 1_555 1_555
H2A C4A 1_555 1_555
C5F C7F 1_555 1_555
C6F C7F 1_555 1_555
H7F C10F 1_555 1_555
C11F C10F 1_555 1_555
H7G C10G 1_555 1_555
C11G C10G 1_555 1_555
O4C C13 1_555 1_555
O4B C13 1_555 1_555
C1A C2A 1_555 1_555
C3F C5F 1_555 1_555
H3F C5F 1_555 1_555
H4F C6F 1_555 1_555
C4F C6F 1_555 1_555
H8F C11F 1_555 1_555
C12F C11F 1_555 1_555
Cl1F C11F 1_555 1_555
H8G C11G 1_555 1_555
Cl1G C11G 1_555 1_555
Zn1C O4C 1_555 1_555
Zn1B O4B 1_555 1_555
O1A_2 C1A 1_555 1_555
O3F C1A 1_555 1_555
H1F C3F 1_555 1_555
C2F C3F 1_555 1_555
H2F C4F 1_555 1_555
C13F C12F 1_555 1_555
Zn1E O4E 1_555 1_555
Zn1A_2 O1A_2 1_555 1_555
Zn1F_2 O3F 1_555 1_555
C1F C2F 1_555 1_555
O4D C13F 1_555 1_555
O4E C13F 1_555 1_555
O1F C1F 1_555 1_555
O3_2 C1F 1_555 1_555
Zn1D O4D 1_555 1_555
Zn1F_3 O1F 1_555 1_555
Zn1_2 O3_2 1_555 1_555
O3F_2 Zn1F_3 1_555 1_555
O2_2 Zn1F_3 1_555 1_555
O4F Zn1F_3 1_555 1_555
C6 C7 1_555 1_555
H8 Cl1 1_555 1_555
Zn1G O3G 1_555 1_555
O1G C1G 1_555 1_555
C6G C7G 1_555 1_555
C10A C11A 1_555 1_555
H8A Cl1A 1_555 1_555
C4A C2A 1_555 1_555
C11G C12F 1_555 1_555
C4F C2F 1_555 1_555
H8F Cl1F 1_555 1_555
H8G Cl1G 1_555 1_555
Zn1_2 O2_2 1_555 1_555

#END
