
#######################################################################
#
#                 Cambridge Crystallographic Data Centre
#                                CCDC 
#
#######################################################################
#
# If this CIF has been generated from an entry in the Cambridge 
# Structural Database, then it will include bibliographic, chemical, 
# crystal, experimental, refinement or atomic coordinate data resulting 
# from the CCDC's data processing and validation procedures.
#
#######################################################################

data_SIYHUF
_symmetry_cell_setting           monoclinic
_symmetry_space_group_name_H-M   'P 21/c'
_symmetry_Int_Tables_number      14
_space_group_name_Hall           '-P 2ybc'
loop_
_symmetry_equiv_pos_site_id
_symmetry_equiv_pos_as_xyz
1 x,y,z
2 -x,1/2+y,1/2-z
3 -x,-y,-z
4 x,1/2-y,1/2+z
_cell_length_a                   16.7525(3)
_cell_length_b                   9.50076(17)
_cell_length_c                   12.8590(3)
_cell_angle_alpha                90
_cell_angle_beta                 108.623(2)
_cell_angle_gamma                90
_cell_volume                     1939.5
loop_
_atom_site_label
_atom_site_type_symbol
_atom_site_fract_x
_atom_site_fract_y
_atom_site_fract_z
Ag1 Ag 0.192626(8) 0.345511(14) 0.383888(11)
Ag2 Ag 0.376952(8) 0.734567(14) 0.686356(10)
C1 C 0.22677(10) 0.68996(17) 0.44963(13)
N1 N 0.29228(9) 0.77801(14) 0.48316(11)
C2 C 0.32984(10) 0.80111(17) 0.40857(13)
N2 N 0.31063(9) 0.74097(14) 0.30952(12)
C3 C 0.24518(10) 0.65278(17) 0.28804(14)
N3 N 0.20084(9) 0.62236(15) 0.35414(11)
O1 O 0.22578(8) 0.59337(13) 0.19012(10)
C4 C 0.14825(12) 0.5129(2) 0.15236(15)
H1 H 0.1254 0.5192 0.0731
H2 H 0.1073 0.5531 0.1828
C5 C 0.16212(12) 0.3613(2) 0.18529(15)
H3 H 0.1146 0.3053 0.1747
C6 C 0.23746(13) 0.3000(2) 0.22884(17)
H4 H 0.2864 0.3525 0.2408
H5 H 0.2408 0.2050 0.2472
O2 O 0.39243(7) 0.89349(12) 0.42942(10)
C7 C 0.40843(11) 0.97656(18) 0.52864(14)
H6 H 0.3552 0.9981 0.5400
H7 H 0.4344 1.0649 0.5194
C8 C 0.46457(11) 0.90260(19) 0.62808(14)
H8 H 0.4776 0.9502 0.6946
C9 C 0.49761(11) 0.7738(2) 0.62950(15)
H9 H 0.4862 0.7225 0.5648
H10 H 0.5320 0.7357 0.6952
O3 O 0.18773(7) 0.67122(13) 0.52264(10)
C10 C 0.10720(10) 0.59868(18) 0.48786(15)
H11 H 0.0788 0.6180 0.4108
H12 H 0.0722 0.6345 0.5292
C11 C 0.11742(11) 0.44296(19) 0.50458(15)
H13 H 0.1600 0.4095 0.5653
C12 C 0.06769(11) 0.3500(2) 0.43559(16)
H14 H 0.0247 0.3814 0.3744
H15 H 0.0761 0.2541 0.4489
Cl1 Cl 0.38279(2) 0.39539(4) 0.56321(3)
O4 O 0.38118(9) 0.48338(15) 0.47178(12)
O5 O 0.36438(10) 0.47800(14) 0.64743(12)
O6 O 0.46301(8) 0.32833(16) 0.60761(11)
O7 O 0.31824(9) 0.28720(14) 0.52736(13)
Ag2C Ag 0.376952(8) 0.765433(14) 0.186356(10)
N2C N 0.31063(9) 0.75903(14) 0.80952(12)
Cl2 Cl 0.11006(3) -0.00133(4) 0.32118(3)
O8 O 0.06613(10) -0.09412(18) 0.37222(13)
O9 O 0.14532(12) -0.08000(19) 0.25172(13)
O10 O 0.17694(9) 0.06745(15) 0.40585(13)
O11 O 0.05333(10) 0.10276(15) 0.25666(13)
loop_
_geom_bond_atom_site_label_1
_geom_bond_atom_site_label_2
_geom_bond_site_symmetry_1
_geom_bond_site_symmetry_2
Ag1 C5 1_555 1_555
Ag2 N1 1_555 1_555
C1 N1 1_555 1_555
N1 C2 1_555 1_555
C2 N2 1_555 1_555
N2 C3 1_555 1_555
C3 N3 1_555 1_555
N3 C1 1_555 1_555
O1 C3 1_555 1_555
C4 O1 1_555 1_555
H1 C4 1_555 1_555
H2 C4 1_555 1_555
C5 C4 1_555 1_555
H3 C5 1_555 1_555
C6 Ag1 1_555 1_555
H4 C6 1_555 1_555
H5 C6 1_555 1_555
O2 C2 1_555 1_555
C7 O2 1_555 1_555
H6 C7 1_555 1_555
H7 C7 1_555 1_555
C8 Ag2 1_555 1_555
H8 C8 1_555 1_555
C9 Ag2 1_555 1_555
H9 C9 1_555 1_555
H10 C9 1_555 1_555
O3 C1 1_555 1_555
C10 O3 1_555 1_555
H11 C10 1_555 1_555
H12 C10 1_555 1_555
C11 Ag1 1_555 1_555
H13 C11 1_555 1_555
C12 Ag1 1_555 1_555
H14 C12 1_555 1_555
H15 C12 1_555 1_555
Cl1 O4 1_555 1_555
O5 Ag2 1_555 1_555
O6 Cl1 1_555 1_555
O7 Ag1 1_555 1_555
Cl2 O8 1_555 1_555
O9 Cl2 1_555 1_555
O10 Cl2 1_555 1_555
O11 Cl2 1_555 1_555
Ag2C N2 1_555 1_555
N2C Ag2 1_555 1_555
C5 C6 1_555 1_555
C7 C8 1_555 1_555
C8 C9 1_555 1_555
C10 C11 1_555 1_555
C11 C12 1_555 1_555
Cl1 O5 1_555 1_555
Cl1 O7 1_555 1_555

#END
