
#######################################################################
#
#                 Cambridge Crystallographic Data Centre
#                                CCDC 
#
#######################################################################
#
# If this CIF has been generated from an entry in the Cambridge 
# Structural Database, then it will include bibliographic, chemical, 
# crystal, experimental, refinement or atomic coordinate data resulting 
# from the CCDC's data processing and validation procedures.
#
#######################################################################

data_SIYJAN
_symmetry_cell_setting           monoclinic
_symmetry_space_group_name_H-M   'C c'
_symmetry_Int_Tables_number      9
_space_group_name_Hall           'C -2yc'
loop_
_symmetry_equiv_pos_site_id
_symmetry_equiv_pos_as_xyz
1 x,y,z
2 x,-y,1/2+z
3 1/2+x,1/2+y,z
4 1/2+x,1/2-y,1/2+z
_cell_length_a                   11.8650(4)
_cell_length_b                   11.4570(4)
_cell_length_c                   11.7471(4)
_cell_angle_alpha                90
_cell_angle_beta                 98.587(2)
_cell_angle_gamma                90
_cell_volume                     1578.97
loop_
_atom_site_label
_atom_site_type_symbol
_atom_site_fract_x
_atom_site_fract_y
_atom_site_fract_z
Ag1 Ag 0.500697(15) 0.143465(15) 0.751138(15)
Cl1 Cl 0.70897(6) 0.03848(6) 0.61508(6)
O1 O 0.8213(2) -0.0063(3) 0.6271(3)
C1 C 0.4584(3) -0.3596(2) 0.4297(3)
H1 H 0.3816 -0.3583 0.3833
H2 H 0.4711 -0.4390 0.4624
O2 O 0.7111(3) 0.1629(2) 0.5968(3)
C2 C 0.3061(2) -0.0093(2) 0.5866(2)
H3 H 0.2674 -0.0040 0.6555
H4 H 0.2469 -0.0230 0.5191
O3 O 0.5771(2) -0.3940(2) 0.6467(2)
O4 O 0.3453(2) -0.15337(16) 0.40902(19)
O5 O 0.43754(17) -0.06343(16) 0.78800(15)
O6 O 0.6606(2) 0.0168(2) 0.7189(2)
N1 N 0.46097(19) -0.27524(18) 0.52527(18)
N2 N 0.51510(19) -0.22520(19) 0.71950(17)
O7 O 0.6385(3) -0.0159(3) 0.5208(3)
C3 C 0.4110(3) -0.3538(3) 0.8815(3)
H5 H 0.3720 -0.3417 0.8058
H6 H 0.3748 -0.3951 0.9362
C4 C 0.5151(3) -0.3134(3) 0.9107(3)
H7 H 0.5511 -0.3274 0.9873
C5 C 0.3363(3) 0.2032(3) 0.6222(2)
H8 H 0.2783 0.2023 0.6698
H9 H 0.3748 0.2739 0.6106
C6 C 0.5816(2) -0.2471(3) 0.8331(2)
H10 H 0.6062 -0.1716 0.8696
H11 H 0.6508 -0.2919 0.8235
C7 C 0.3641(2) 0.1042(2) 0.5711(2)
H12 H 0.4223 0.1066 0.5237
C8 C 0.5213(2) -0.3055(2) 0.6310(2)
C9 C 0.3936(2) -0.1771(2) 0.5047(2)
C10 C 0.4453(2) -0.1289(2) 0.7081(2)
N3 N 0.38445(19) -0.10884(18) 0.59990(18)
C11 C 0.6316(3) -0.2645(3) 0.3725(3)
H13 H 0.6437 -0.2212 0.4422
H14 H 0.6822 -0.2557 0.3176
C12 C 0.5449(3) -0.3366(3) 0.3520(3)
H15 H 0.5363 -0.3780 0.2811
Ag1A Ag 0.500697(15) -0.143465(15) 0.251138(15)
C11A C 0.6316(3) 0.2645(3) 0.8725(3)
C12A C 0.5449(3) 0.3366(3) 0.8520(3)
loop_
_geom_bond_atom_site_label_1
_geom_bond_atom_site_label_2
_geom_bond_site_symmetry_1
_geom_bond_site_symmetry_2
Ag1 O5 1_555 1_555
Cl1 O1 1_555 1_555
C1 H1 1_555 1_555
H2 C1 1_555 1_555
O2 Cl1 1_555 1_555
C2 H3 1_555 1_555
H4 C2 1_555 1_555
O3 C8 1_555 1_555
O4 C9 1_555 1_555
O5 C10 1_555 1_555
O6 Ag1 1_555 1_555
N1 C1 1_555 1_555
N2 C6 1_555 1_555
O7 Cl1 1_555 1_555
C3 H5 1_555 1_555
H6 C3 1_555 1_555
C4 C3 1_555 1_555
H7 C4 1_555 1_555
C5 Ag1 1_555 1_555
H8 C5 1_555 1_555
H9 C5 1_555 1_555
C6 C4 1_555 1_555
H10 C6 1_555 1_555
H11 C6 1_555 1_555
C7 Ag1 1_555 1_555
H12 C7 1_555 1_555
C8 N1 1_555 1_555
C9 N1 1_555 1_555
C10 N2 1_555 1_555
N3 C2 1_555 1_555
C11 H13 1_555 1_555
H14 C11 1_555 1_555
C12 C1 1_555 1_555
H15 C12 1_555 1_555
Ag1A C11 1_555 1_555
C11A Ag1 1_555 1_555
C12A Ag1 1_555 1_555
Cl1 O6 1_555 1_555
C2 C7 1_555 1_555
N2 C8 1_555 1_555
C5 C7 1_555 1_555
C9 N3 1_555 1_555
C10 N3 1_555 1_555
C11 C12 1_555 1_555
C12 Ag1A 1_555 1_555
C11A C12A 1_555 1_555

#END
