
#######################################################################
#
#                 Cambridge Crystallographic Data Centre
#                                CCDC 
#
#######################################################################
#
# If this CIF has been generated from an entry in the Cambridge 
# Structural Database, then it will include bibliographic, chemical, 
# crystal, experimental, refinement or atomic coordinate data resulting 
# from the CCDC's data processing and validation procedures.
#
#######################################################################

data_SIYKER
_symmetry_cell_setting           rhombohedral
_symmetry_space_group_name_H-M   'R 3 c'
_symmetry_Int_Tables_number      161
_space_group_name_Hall           'R 3 -2"c'
loop_
_symmetry_equiv_pos_site_id
_symmetry_equiv_pos_as_xyz
1 x,y,z
2 -y,x-y,z
3 -x+y,-x,z
4 -x+y,y,1/2+z
5 x,x-y,1/2+z
6 -y,-x,1/2+z
7 2/3+x,1/3+y,1/3+z
8 2/3-y,1/3+x-y,1/3+z
9 2/3-x+y,1/3-x,1/3+z
10 2/3-x+y,1/3+y,5/6+z
11 2/3+x,1/3+x-y,5/6+z
12 2/3-y,1/3-x,5/6+z
13 1/3+x,2/3+y,2/3+z
14 1/3-y,2/3+x-y,2/3+z
15 1/3-x+y,2/3-x,2/3+z
16 1/3-x+y,2/3+y,1/6+z
17 1/3+x,2/3+x-y,1/6+z
18 1/3-y,2/3-x,1/6+z
_cell_length_a                   33.8468(3)
_cell_length_b                   33.8468(3)
_cell_length_c                   24.3950(4)
_cell_angle_alpha                90
_cell_angle_beta                 90
_cell_angle_gamma                120.0000
_cell_volume                     24202.9
loop_
_atom_site_label
_atom_site_type_symbol
_atom_site_fract_x
_atom_site_fract_y
_atom_site_fract_z
Zn1 Zn 0.412430(10) 0.105290(10) 0.01471(2)
Zn2 Zn 0.329730(10) 0.130090(10) 0.07002(2)
Zn3 Zn 0.501730(10) 0.087480(10) -0.05523(2)
Cl1 Cl 0.36321(2) 0.12892(2) -0.01355(3)
Cl2 Cl 0.30184(2) 0.17711(2) 0.04635(3)
Cl3 Cl 0.43091(3) 0.07998(2) -0.06445(3)
N1 N 0.46858(8) 0.14711(7) 0.05197(10)
N2 N 0.38580(8) 0.05454(7) 0.06630(9)
N3 N 0.37518(8) 0.15128(7) 0.12821(9)
N4 N 0.28456(8) 0.07092(8) 0.10008(10)
N5 N 0.52620(8) 0.08091(8) 0.01498(10)
N6 N 0.55100(8) 0.14816(8) -0.07661(10)
C1 C 0.34880(9) 0.01330(9) 0.06359(11)
C2 C 0.34682(9) -0.01368(9) 0.10909(11)
C3 C 0.38441(9) 0.01330(9) 0.14126(11)
C4 C 0.40965(9) 0.05633(8) 0.11367(10)
C5 C 0.45178(9) 0.09304(9) 0.12846(12)
C6 C 0.47936(9) 0.13407(9) 0.10155(11)
C7 C 0.52319(9) 0.16907(9) 0.11817(13)
C8 C 0.53842(10) 0.20259(10) 0.07797(14)
C9 C 0.50381(10) 0.18786(10) 0.03834(14)
C10 C 0.31522(10) -0.00017(10) 0.01765(12)
C11 C 0.31169(11) -0.06336(10) 0.11657(14)
C12 C 0.32239(18) -0.09371(12) 0.08215(18)
C13 C 0.39749(12) 0.00092(12) 0.19418(14)
C14 C 0.54756(11) 0.16859(12) 0.16901(16)
C15 C 0.58341(11) 0.24614(11) 0.07474(18)
C16 C 0.58511(13) 0.28515(12) 0.1070(2)
C17 C 0.50388(12) 0.21112(11) -0.01417(16)
C18 C 0.24291(10) 0.03878(10) 0.08369(12)
C19 C 0.22435(11) 0.00078(10) 0.12026(14)
C20 C 0.25697(11) 0.01045(10) 0.15990(13)
C21 C 0.29429(10) 0.05455(10) 0.14787(12)
C22 C 0.33320(10) 0.07887(10) 0.17937(12)
C23 C 0.37033(9) 0.12297(9) 0.17282(11)
C24 C 0.40838(10) 0.14639(11) 0.20837(12)
C25 C 0.43619(11) 0.18896(11) 0.18581(13)
C26 C 0.41455(10) 0.19052(10) 0.13650(12)
C27 C 0.22155(11) 0.04477(11) 0.03324(14)
C28 C 0.17786(12) -0.04088(11) 0.11587(17)
C29 C 0.17711(14) -0.08193(12) 0.09015(18)
C30 C 0.25487(13) -0.01925(12) 0.20713(15)
C31 C 0.41751(14) 0.12697(15) 0.25883(14)
C32 C 0.48001(13) 0.22634(14) 0.20785(18)
C33 C 0.4751(2) 0.2593(2) 0.2422(4)
C34 C 0.43096(12) 0.22906(11) 0.09654(15)
C35 C 0.55642(10) 0.17395(11) -0.12058(12)
C36 C 0.59768(10) 0.21625(11) -0.11720(13)
C37 C 0.61821(10) 0.21551(9) -0.06899(12)
C38 C 0.58873(9) 0.17251(9) -0.04340(11)
C39 C 0.59634(10) 0.15593(10) 0.00572(12)
C40 C 0.56939(10) 0.11524(9) 0.03242(11)
C41 C 0.58034(11) 0.09995(11) 0.08195(12)
C42 C 0.54436(11) 0.05775(11) 0.09376(12)
C43 C 0.51131(10) 0.04692(10) 0.05144(11)
C44 C 0.52181(13) 0.15733(14) -0.16600(16)
C45 C 0.61575(13) 0.25260(14) -0.16052(16)
C46 C 0.64437(17) 0.2466(2) -0.20320(19)
C47 C 0.66312(12) 0.25251(11) -0.04759(15)
C48 C 0.62440(15) 0.12705(13) 0.11290(15)
C49 C 0.53997(13) 0.02728(14) 0.14107(14)
C50 C 0.52955(15) 0.04181(16) 0.19596(15)
C51 C 0.46623(10) 0.00487(11) 0.04571(13)
H1 H 0.4636 0.0895 0.1623
H2 H 0.3199 0.0264 -0.0012
H3 H 0.2851 -0.0159 0.0320
H4 H 0.3194 -0.0195 -0.0071
H5 H 0.3111 -0.0713 0.1540
H6 H 0.2826 -0.0678 0.1064
H7 H 0.3112 -0.1224 0.0998
H8 H 0.3081 -0.0981 0.0474
H9 H 0.3545 -0.0799 0.0774
H10 H 0.3730 -0.0086 0.2195
H11 H 0.4239 0.0267 0.2085
H12 H 0.4037 -0.0232 0.1885
H13 H 0.5268 0.1582 0.1989
H14 H 0.5595 0.1487 0.1640
H15 H 0.5718 0.1985 0.1765
H16 H 0.6063 0.2405 0.0890
H17 H 0.5898 0.2549 0.0374
H18 H 0.5651 0.2736 0.1375
H19 H 0.6153 0.3048 0.1195
H20 H 0.5759 0.3017 0.0838
H21 H 0.5059 0.2396 -0.0062
H22 H 0.4765 0.1923 -0.0338
H23 H 0.5293 0.2161 -0.0357
H24 H 0.3350 0.0630 0.2105
H25 H 0.2192 0.0235 0.0062
H26 H 0.2398 0.0749 0.0197
H27 H 0.1920 0.0396 0.0418
H28 H 0.1654 -0.0490 0.1517
H29 H 0.1592 -0.0334 0.0942
H30 H 0.1525 -0.1091 0.1049
H31 H 0.1735 -0.0815 0.0516
H32 H 0.2051 -0.0809 0.0979
H33 H 0.2367 -0.0504 0.1971
H34 H 0.2848 -0.0129 0.2159
H35 H 0.2417 -0.0131 0.2381
H36 H 0.4298 0.1497 0.2866
H37 H 0.4386 0.1171 0.2507
H38 H 0.3897 0.1018 0.2713
H39 H 0.4943 0.2132 0.2286
H40 H 0.4989 0.2427 0.1777
H41 H 0.4587 0.2451 0.2747
H42 H 0.5045 0.2838 0.2515
H43 H 0.4590 0.2707 0.2218
H44 H 0.4140 0.2186 0.0635
H45 H 0.4271 0.2527 0.1118
H46 H 0.4624 0.2404 0.0890
H47 H 0.6244 0.1758 0.0234
H48 H 0.5268 0.1380 -0.1898
H49 H 0.4920 0.1408 -0.1509
H50 H 0.5249 0.1827 -0.1861
H51 H 0.6340 0.2813 -0.1433
H52 H 0.5906 0.2523 -0.1782
H53 H 0.6704 0.2487 -0.1857
H54 H 0.6271 0.2173 -0.2196
H55 H 0.6538 0.2694 -0.2307
H56 H 0.6772 0.2394 -0.0263
H57 H 0.6824 0.2688 -0.0775
H58 H 0.6583 0.2728 -0.0255
H59 H 0.6213 0.1460 0.1390
H60 H 0.6481 0.1453 0.0879
H61 H 0.6318 0.1067 0.1311
H62 H 0.5680 0.0273 0.1446
H63 H 0.5162 -0.0028 0.1331
H64 H 0.5026 0.0436 0.1925
H65 H 0.5543 0.0708 0.2061
H66 H 0.5253 0.0200 0.2233
H67 H 0.4704 -0.0209 0.0445
H68 H 0.4521 0.0063 0.0127
H69 H 0.4475 0.0022 0.0760
Zn3Q Zn 0.245853(10) 0.164937(10) 0.11144(2)
Cl2K Cl 0.48956(2) 0.03149(2) -0.12032(3)
loop_
_geom_bond_atom_site_label_1
_geom_bond_atom_site_label_2
_geom_bond_site_symmetry_1
_geom_bond_site_symmetry_2
Zn1 Cl1 1_555 1_555
Zn2 Cl1 1_555 1_555
Zn3 Cl3 1_555 1_555
Cl2 Zn2 1_555 1_555
Cl3 Zn1 1_555 1_555
N1 Zn1 1_555 1_555
N2 Zn1 1_555 1_555
N3 Zn2 1_555 1_555
N4 Zn2 1_555 1_555
N5 Zn3 1_555 1_555
N6 Zn3 1_555 1_555
C1 N2 1_555 1_555
C2 C1 1_555 1_555
C3 C2 1_555 1_555
C4 N2 1_555 1_555
C5 C4 1_555 1_555
C6 N1 1_555 1_555
C7 C6 1_555 1_555
C8 C7 1_555 1_555
C9 N1 1_555 1_555
C10 C1 1_555 1_555
C11 C2 1_555 1_555
C12 C11 1_555 1_555
C13 C3 1_555 1_555
C14 C7 1_555 1_555
C15 C8 1_555 1_555
C16 C15 1_555 1_555
C17 C9 1_555 1_555
C18 N4 1_555 1_555
C19 C18 1_555 1_555
C20 C19 1_555 1_555
C21 N4 1_555 1_555
C22 C21 1_555 1_555
C23 N3 1_555 1_555
C24 C23 1_555 1_555
C25 C24 1_555 1_555
C26 N3 1_555 1_555
C27 C18 1_555 1_555
C28 C19 1_555 1_555
C29 C28 1_555 1_555
C30 C20 1_555 1_555
C31 C24 1_555 1_555
C32 C25 1_555 1_555
C33 C32 1_555 1_555
C34 C26 1_555 1_555
C35 N6 1_555 1_555
C36 C35 1_555 1_555
C37 C36 1_555 1_555
C38 N6 1_555 1_555
C39 C38 1_555 1_555
C40 N5 1_555 1_555
C41 C40 1_555 1_555
C42 C41 1_555 1_555
C43 N5 1_555 1_555
C44 C35 1_555 1_555
C45 C36 1_555 1_555
C46 C45 1_555 1_555
C47 C37 1_555 1_555
C48 C41 1_555 1_555
C49 C42 1_555 1_555
C50 C49 1_555 1_555
C51 C43 1_555 1_555
H1 C5 1_555 1_555
H2 C10 1_555 1_555
H3 C10 1_555 1_555
H4 C10 1_555 1_555
H5 C11 1_555 1_555
H6 C11 1_555 1_555
H7 C12 1_555 1_555
H8 C12 1_555 1_555
H9 C12 1_555 1_555
H10 C13 1_555 1_555
H11 C13 1_555 1_555
H12 C13 1_555 1_555
H13 C14 1_555 1_555
H14 C14 1_555 1_555
H15 C14 1_555 1_555
H16 C15 1_555 1_555
H17 C15 1_555 1_555
H18 C16 1_555 1_555
H19 C16 1_555 1_555
H20 C16 1_555 1_555
H21 C17 1_555 1_555
H22 C17 1_555 1_555
H23 C17 1_555 1_555
H24 C22 1_555 1_555
H25 C27 1_555 1_555
H26 C27 1_555 1_555
H27 C27 1_555 1_555
H28 C28 1_555 1_555
H29 C28 1_555 1_555
H30 C29 1_555 1_555
H31 C29 1_555 1_555
H32 C29 1_555 1_555
H33 C30 1_555 1_555
H34 C30 1_555 1_555
H35 C30 1_555 1_555
H36 C31 1_555 1_555
H37 C31 1_555 1_555
H38 C31 1_555 1_555
H39 C32 1_555 1_555
H40 C32 1_555 1_555
H41 C33 1_555 1_555
H42 C33 1_555 1_555
H43 C33 1_555 1_555
H44 C34 1_555 1_555
H45 C34 1_555 1_555
H46 C34 1_555 1_555
H47 C39 1_555 1_555
H48 C44 1_555 1_555
H49 C44 1_555 1_555
H50 C44 1_555 1_555
H51 C45 1_555 1_555
H52 C45 1_555 1_555
H53 C46 1_555 1_555
H54 C46 1_555 1_555
H55 C46 1_555 1_555
H56 C47 1_555 1_555
H57 C47 1_555 1_555
H58 C47 1_555 1_555
H59 C48 1_555 1_555
H60 C48 1_555 1_555
H61 C48 1_555 1_555
H62 C49 1_555 1_555
H63 C49 1_555 1_555
H64 C50 1_555 1_555
H65 C50 1_555 1_555
H66 C50 1_555 1_555
H67 C51 1_555 1_555
H68 C51 1_555 1_555
H69 C51 1_555 1_555
Zn3Q Cl2 1_555 1_555
Cl2K Zn3 1_555 1_555
C3 C4 1_555 1_555
C5 C6 1_555 1_555
C8 C9 1_555 1_555
C20 C21 1_555 1_555
C22 C23 1_555 1_555
C25 C26 1_555 1_555
C37 C38 1_555 1_555
C39 C40 1_555 1_555
C42 C43 1_555 1_555

#END
