
#######################################################################
#
#                 Cambridge Crystallographic Data Centre
#                                CCDC 
#
#######################################################################
#
# If this CIF has been generated from an entry in the Cambridge 
# Structural Database, then it will include bibliographic, chemical, 
# crystal, experimental, refinement or atomic coordinate data resulting 
# from the CCDC's data processing and validation procedures.
#
#######################################################################

data_SIYMAP
_symmetry_cell_setting           triclinic
_symmetry_space_group_name_H-M   'P 1'
_symmetry_Int_Tables_number      1
_space_group_name_Hall           'P 1'
loop_
_symmetry_equiv_pos_site_id
_symmetry_equiv_pos_as_xyz
1 x,y,z
_cell_length_a                   8.2566(5)
_cell_length_b                   10.3960(6)
_cell_length_c                   10.4792(6)
_cell_angle_alpha                95.528(1)
_cell_angle_beta                 91.541(1)
_cell_angle_gamma                106.084(1)
_cell_volume                     858.909
loop_
_atom_site_label
_atom_site_type_symbol
_atom_site_fract_x
_atom_site_fract_y
_atom_site_fract_z
Ag1 Ag 0.310424(19) -0.052728(19) 1.008662(19)
C1 C 0.3386(6) 0.1921(5) 0.7961(4)
C2 C 0.2679(8) 0.6890(5) 0.1926(6)
C3 C 0.5526(7) 0.3717(5) 0.9414(5)
H1 H 0.5826 0.4397 0.8850
C4 C 0.6184(7) 0.3783(6) 1.0630(5)
H2 H 0.7020 0.4510 1.1090
C5 C 0.5377(7) 0.2572(6) 1.1045(5)
H3 H 0.5592 0.2326 1.1870
C6 C 0.4592(7) 0.0691(6) 0.6163(5)
H4 H 0.4843 0.1349 0.5573
C7 C 0.4815(7) -0.0564(6) 0.5999(6)
H5 H 0.5257 -0.0957 0.5282
C8 C 0.4259(8) -0.1143(6) 0.7100(6)
H6 H 0.4247 -0.2033 0.7248
C9 C 0.0422(7) 0.0318(5) 0.7598(5)
H7 H 0.0631 -0.0365 0.7010
C10 C -0.1090(7) 0.0394(6) 0.7964(5)
H8 H -0.2162 -0.0221 0.7713
C11 C -0.0741(7) 0.1589(6) 0.8803(5)
H9 H -0.1586 0.1909 0.9218
C12 C 0.1059(7) 0.5286(5) 0.0037(5)
H10 H 0.1313 0.4483 0.0218
C13 C 0.0163(8) 0.5452(6) -0.0999(6)
H11 H -0.0378 0.4782 -0.1676
C14 C 0.0191(7) 0.6801(6) -0.0876(6)
H12 H -0.0327 0.7209 -0.1481
C15 C 0.1114(9) 0.8089(9) 0.3492(7)
H13 H 0.0349 0.7331 0.3792
C16 C 0.1137(11) 0.9369(9) 0.3814(8)
H14 H 0.0395 0.9708 0.4340
C17 C 0.2465(9) 1.0059(8) 0.3214(6)
H15 H 0.2846 1.1014 0.3314
C18 C 0.5773(8) 0.7242(7) 0.2263(7)
H16 H 0.5815 0.6991 0.3109
C19 C 0.7091(11) 0.7674(10) 0.1492(9)
H17 H 0.8252 0.7793 0.1707
C20 C 0.6399(9) 0.7907(7) 0.0328(8)
H18 H 0.7023 0.8220 -0.0384
C21 C 0.3566(7) 0.3071(4) 0.7050(5)
H19 H 0.3214 0.3827 0.7490
H20 H 0.4759 0.3414 0.6838
C22 C 0.1195(7) 0.3147(5) 0.5798(5)
H21 H 0.1643 0.4135 0.5802
H22 H 0.0450 0.2961 0.6522
C23 C 0.0229(8) 0.2544(5) 0.4553(5)
C24 C -0.1348(9) 0.1651(7) 0.4552(7)
H23 H -0.1852 0.1438 0.5338
C25 C -0.2188(9) 0.1070(7) 0.3398(7)
H24 H -0.3277 0.0453 0.3401
C26 C -0.1513(9) 0.1350(7) 0.2255(6)
H25 H -0.2142 0.0946 0.1476
C27 C 0.0073(9) 0.2213(6) 0.2223(5)
H26 H 0.0569 0.2375 0.1425
C28 C 0.0956(8) 0.2850(5) 0.3369(5)
C29 C 0.2745(9) 0.3762(6) 0.3272(6)
H27 H 0.3162 0.4243 0.4131
H28 H 0.3490 0.3191 0.3025
C30 C 0.2257(9) 0.5740(8) 0.2858(6)
H29 H 0.2777 0.6100 0.3728
H30 H 0.1021 0.5399 0.2920
N1 N 0.4259(6) 0.1778(5) 1.0165(4)
N2 N 0.4371(5) 0.2508(5) 0.9154(4)
N3 N 0.3756(6) -0.0322(5) 0.7910(5)
N4 N 0.3940(6) 0.0824(5) 0.7335(4)
N5 N 0.0890(5) 0.2221(4) 0.8954(4)
N6 N 0.1615(5) 0.1399(4) 0.8222(4)
N7 N 0.1028(6) 0.7435(4) 0.0185(4)
N8 N 0.1530(6) 0.6501(4) 0.0775(5)
N9 N 0.3213(6) 0.9308(5) 0.2467(5)
N10 N 0.2368(6) 0.8030(5) 0.2658(5)
N11 N 0.4729(6) 0.7621(6) 0.0382(7)
N12 N 0.4379(7) 0.7257(5) 0.1527(5)
O1 O 0.2551(4) 0.2554(3) 0.5923(3)
O2 O 0.2881(6) 0.4733(4) 0.2373(4)
Ag1_2 Ag 0.310424(19) 0.947272(19) 0.008662(19)
N7_2 N 0.1028(6) -0.2565(4) 1.0185(4)
N9_2 N 0.3213(6) -0.0692(5) 1.2467(5)
S1 S -0.31889(18) 0.64111(14) 0.59270(14)
O3 O -0.4813(6) 0.6197(5) 0.5345(5)
O4 O -0.1956(8) 0.7628(6) 0.5839(7)
O5 O -0.3246(8) 0.5970(7) 0.7208(5)
C31 C -0.2393(7) 0.5131(6) 0.5067(6)
F1 F -0.0805(7) 0.5258(7) 0.5417(6)
F2 F -0.3365(7) 0.3925(4) 0.5034(7)
F3 F -0.2260(6) 0.5346(5) 0.3806(4)
loop_
_geom_bond_atom_site_label_1
_geom_bond_atom_site_label_2
_geom_bond_site_symmetry_1
_geom_bond_site_symmetry_2
Ag1 N1 1_555 1_555
C1 C21 1_555 1_555
C2 C30 1_555 1_555
C3 H1 1_555 1_555
C4 C3 1_555 1_555
H2 C4 1_555 1_555
C5 C4 1_555 1_555
H3 C5 1_555 1_555
C6 H4 1_555 1_555
C7 C6 1_555 1_555
H5 C7 1_555 1_555
C8 C7 1_555 1_555
H6 C8 1_555 1_555
C9 H7 1_555 1_555
C10 C9 1_555 1_555
H8 C10 1_555 1_555
C11 C10 1_555 1_555
H9 C11 1_555 1_555
C12 H10 1_555 1_555
C13 C12 1_555 1_555
H11 C13 1_555 1_555
C14 C13 1_555 1_555
H12 C14 1_555 1_555
C15 H13 1_555 1_555
C16 C15 1_555 1_555
H14 C16 1_555 1_555
C17 C16 1_555 1_555
H15 C17 1_555 1_555
C18 H16 1_555 1_555
C19 C18 1_555 1_555
H17 C19 1_555 1_555
C20 C19 1_555 1_555
H18 C20 1_555 1_555
C21 H19 1_555 1_555
H20 C21 1_555 1_555
C22 H21 1_555 1_555
H22 C22 1_555 1_555
C23 C22 1_555 1_555
C24 C23 1_555 1_555
H23 C24 1_555 1_555
C25 C24 1_555 1_555
H24 C25 1_555 1_555
C26 C25 1_555 1_555
H25 C26 1_555 1_555
C27 C26 1_555 1_555
H26 C27 1_555 1_555
C28 C23 1_555 1_555
C29 C28 1_555 1_555
H27 C29 1_555 1_555
H28 C29 1_555 1_555
C30 H29 1_555 1_555
H30 C30 1_555 1_555
N1 C5 1_555 1_555
N2 C1 1_555 1_555
N3 Ag1 1_555 1_555
N4 C1 1_555 1_555
N5 C11 1_555 1_555
N6 C1 1_555 1_555
N7 C14 1_555 1_555
N8 C2 1_555 1_555
N9 C17 1_555 1_555
N10 C2 1_555 1_555
N11 C20 1_555 1_555
N12 C2 1_555 1_555
O1 C21 1_555 1_555
O2 C29 1_555 1_555
S1 O3 1_555 1_555
O4 S1 1_555 1_555
O5 S1 1_555 1_555
C31 S1 1_555 1_555
F1 C31 1_555 1_555
F2 C31 1_555 1_555
F3 C31 1_555 1_555
Ag1_2 N7 1_555 1_555
N7_2 Ag1 1_555 1_555
N9_2 Ag1 1_555 1_555
C3 N2 1_555 1_555
C6 N4 1_555 1_555
C8 N3 1_555 1_555
C9 N6 1_555 1_555
C12 N8 1_555 1_555
C15 N10 1_555 1_555
C18 N12 1_555 1_555
C22 O1 1_555 1_555
C27 C28 1_555 1_555
C30 O2 1_555 1_555
N1 N2 1_555 1_555
N3 N4 1_555 1_555
N5 N6 1_555 1_555
N7 N8 1_555 1_555
N9 N10 1_555 1_555
N9 Ag1_2 1_555 1_555
N11 N12 1_555 1_555

#END
