
#######################################################################
#
#                 Cambridge Crystallographic Data Centre
#                                CCDC 
#
#######################################################################
#
# If this CIF has been generated from an entry in the Cambridge 
# Structural Database, then it will include bibliographic, chemical, 
# crystal, experimental, refinement or atomic coordinate data resulting 
# from the CCDC's data processing and validation procedures.
#
#######################################################################

data_SIYQUN
_symmetry_cell_setting           triclinic
_symmetry_space_group_name_H-M   'P -1'
_symmetry_Int_Tables_number      2
_space_group_name_Hall           '-P 1'
loop_
_symmetry_equiv_pos_site_id
_symmetry_equiv_pos_as_xyz
1 x,y,z
2 -x,-y,-z
_cell_length_a                   12.4083(8)
_cell_length_b                   16.1136(10)
_cell_length_c                   17.3138(11)
_cell_angle_alpha                72.326(1)
_cell_angle_beta                 83.787(1)
_cell_angle_gamma                85.596(1)
_cell_volume                     3275.46
loop_
_atom_site_label
_atom_site_type_symbol
_atom_site_fract_x
_atom_site_fract_y
_atom_site_fract_z
Zn1 Zn 0.00438(6) 0.83428(6) 0.28257(5)
Zn2 Zn 0.33002(7) 0.58963(6) 0.57397(5)
Zn3 Zn 0.74487(6) 0.46087(6) 0.15865(5)
Zn4 Zn 0.48010(7) 0.75527(6) -0.07521(5)
Zn5 Zn -0.16883(6) 1.01706(6) 0.53057(5)
O1 O 0.1543(4) 0.7838(3) 0.2814(3)
O2 O 0.1387(5) 0.6690(4) 0.3904(4)
O3 O 0.3624(5) 0.6330(4) 0.4563(3)
O4 O 0.3128(5) 0.5009(4) 0.4628(3)
O5 O 0.5742(4) 0.5070(3) 0.3748(3)
O6 O 0.4874(4) 0.4113(4) 0.3392(3)
O7 O 0.6238(4) 0.5341(3) 0.1866(3)
O8 O 0.5053(4) 0.5218(4) 0.1039(3)
O9 O 0.4992(4) 0.7172(4) 0.0460(3)
O10 O 0.3266(5) 0.7124(4) 0.0279(3)
O11 O -0.2299(5) 1.3940(3) 0.2764(3)
O12 O -0.2970(4) 1.3020(3) 0.3913(3)
O13 O -0.0612(4) 1.2698(3) 0.4134(3)
O14 O -0.1114(4) 1.1385(3) 0.4880(3)
O15 O 0.0752(4) 1.0469(3) 0.3812(3)
O16 O -0.0757(4) 0.9787(3) 0.4394(3)
O17 O -0.0133(4) 0.9584(3) 0.2733(3)
O18 O -0.1493(6) 0.9810(4) 0.1957(5)
O19 O -0.3886(4) 1.2280(3) 0.1651(3)
O20 O -0.3191(4) 1.3559(3) 0.1462(3)
O21 O -0.0161(4) 0.8024(4) 0.4112(3)
H1 H 0.0209 0.7612 0.4418
H2 H 0.0046 0.8477 0.4198
O22 O 0.1679(3) 0.5693(3) 0.5798(3)
H3 H 0.1206 0.5903 0.6090
H4 H 0.2092 0.5496 0.5464
O23 O 0.5397(3) 0.6288(3) -0.0676(3)
H5 H 0.5774 0.6415 -0.1203
H6 H 0.4892 0.5935 -0.0593
N1 N -0.1251(5) 0.7632(4) 0.2808(4)
N2 N 0.0050(5) 0.8474(4) 0.1508(4)
N3 N 0.7853(5) 0.5083(4) 0.0328(4)
N4 N 0.8862(5) 0.5295(4) 0.1525(4)
N5 N 0.6195(5) 0.8200(4) -0.1356(4)
N6 N 0.4388(5) 0.8907(4) -0.0754(4)
N7 N -0.2787(5) 0.9196(4) 0.5440(4)
N8 N -0.3146(5) 1.0703(4) 0.5769(4)
C1 C 0.2807(5) 0.6679(4) 0.2870(4)
C2 C 0.3498(5) 0.6021(4) 0.3314(4)
C3 C 0.4311(5) 0.5614(4) 0.2912(4)
C4 C 0.4470(5) 0.5887(5) 0.2056(4)
C5 C 0.3807(5) 0.6574(5) 0.1623(4)
C6 C 0.2983(5) 0.6944(4) 0.2035(4)
H7 H 0.2533 0.7386 0.1737
C7 C 0.1840(6) 0.7096(5) 0.3249(5)
C8 C 0.3395(6) 0.5756(6) 0.4239(5)
C9 C 0.5024(6) 0.4858(5) 0.3381(4)
C10 C 0.5307(5) 0.5438(4) 0.1609(4)
C11 C 0.4025(6) 0.6970(5) 0.0723(4)
C12 C -0.2004(5) 1.2403(4) 0.2963(4)
C13 C -0.1307(5) 1.1803(5) 0.3453(4)
C14 C -0.0920(5) 1.1041(4) 0.3278(4)
C15 C -0.1245(5) 1.0869(5) 0.2593(4)
C16 C -0.1944(6) 1.1459(5) 0.2120(4)
H8 H -0.2173 1.1339 0.1673
C17 C -0.2325(5) 1.2228(4) 0.2281(4)
C18 C -0.2462(5) 1.3188(5) 0.3220(4)
C19 C -0.0990(5) 1.1982(5) 0.4210(4)
C20 C -0.0251(5) 1.0368(5) 0.3876(4)
C21 C -0.0939(6) 1.0030(5) 0.2392(5)
C22 C -0.3187(6) 1.2753(5) 0.1760(4)
C23 C 0.0699(7) 0.8880(5) 0.0871(5)
H9 H 0.1327 0.9101 0.0963
C24 C 0.0495(8) 0.8995(6) 0.0066(6)
H10 H 0.0960 0.9310 -0.0362
C25 C -0.0390(8) 0.8642(6) -0.0086(5)
H11 H -0.0527 0.8699 -0.0617
C26 C -0.1096(7) 0.8191(5) 0.0574(5)
C27 C -0.0840(6) 0.8131(5) 0.1368(5)
C28 C -0.1535(6) 0.7664(5) 0.2056(5)
C29 C -0.1839(7) 0.7171(6) 0.3440(6)
H12 H -0.1638 0.7131 0.3952
C30 C -0.2752(8) 0.6730(6) 0.3402(6)
H13 H -0.3140 0.6409 0.3875
C31 C -0.3058(8) 0.6784(6) 0.2656(7)
H14 H -0.3673 0.6512 0.2611
C32 C -0.2437(7) 0.7255(6) 0.1954(6)
C33 C -0.2675(8) 0.7333(6) 0.1140(7)
H15 H -0.3284 0.7075 0.1064
C34 C -0.2036(8) 0.7770(6) 0.0484(6)
H16 H -0.2206 0.7801 -0.0034
C35 C 0.7365(6) 0.4936(5) -0.0258(5)
H17 H 0.6785 0.4571 -0.0114
C36 C 0.7684(7) 0.5306(6) -0.1081(6)
H18 H 0.7319 0.5194 -0.1478
C37 C 0.8545(8) 0.5838(6) -0.1294(5)
H19 H 0.8765 0.6091 -0.1842
C38 C 0.9101(7) 0.6005(5) -0.0696(5)
C39 C 0.8717(6) 0.5600(5) 0.0108(5)
C40 C 0.9249(6) 0.5717(5) 0.0757(5)
C41 C 0.9351(7) 0.5393(6) 0.2143(6)
H20 H 0.9085 0.5112 0.2674
C42 C 1.0261(7) 0.5913(6) 0.2010(7)
H21 H 1.0585 0.5973 0.2449
C43 C 1.0655(7) 0.6321(6) 0.1241(7)
H22 H 1.1258 0.6658 0.1151
C44 C 1.0160(6) 0.6240(5) 0.0573(6)
C45 C 1.0516(7) 0.6637(6) -0.0253(6)
H23 H 1.1120 0.6977 -0.0375
C46 C 1.0018(7) 0.6541(6) -0.0859(6)
H24 H 1.0266 0.6823 -0.1395
C47 C 0.7077(7) 0.7860(7) -0.1683(5)
H25 H 0.7109 0.7270 -0.1640
C48 C 0.7958(8) 0.8366(9) -0.2090(6)
H26 H 0.8570 0.8112 -0.2305
C49 C 0.7901(9) 0.9228(9) -0.2164(6)
H27 H 0.8476 0.9569 -0.2439
C50 C 0.7017(7) 0.9604(7) -0.1842(5)
C51 C 0.6160(6) 0.9072(5) -0.1445(5)
C52 C 0.5193(7) 0.9445(5) -0.1120(5)
C53 C 0.3505(7) 0.9241(6) -0.0451(6)
H28 H 0.2955 0.8870 -0.0183
C54 C 0.3352(10) 1.0114(7) -0.0511(7)
H29 H 0.2699 1.0328 -0.0310
C55 C 0.4164(10) 1.0656(7) -0.0866(7)
H30 H 0.4085 1.1243 -0.0894
C56 C 0.5126(9) 1.0326(6) -0.1192(6)
C57 C 0.6015(11) 1.0838(7) -0.1595(7)
H31 H 0.5970 1.1429 -0.1638
C58 C 0.6916(10) 1.0510(8) -0.1916(7)
H32 H 0.7474 1.0873 -0.2186
C59 C -0.2596(8) 0.8457(6) 0.5253(6)
H33 H -0.1910 0.8347 0.5020
C60 C -0.3365(9) 0.7842(7) 0.5390(7)
H34 H -0.3196 0.7331 0.5250
C61 C -0.4384(8) 0.7991(6) 0.5734(6)
H35 H -0.4907 0.7578 0.5838
C62 C -0.4624(7) 0.8767(6) 0.5925(5)
C63 C -0.3785(6) 0.9359(6) 0.5772(5)
C64 C -0.3975(6) 1.0160(5) 0.5956(5)
C65 C -0.3323(7) 1.1478(6) 0.5897(5)
H36 H -0.2760 1.1860 0.5765
C66 C -0.4329(8) 1.1739(7) 0.6222(6)
H37 H -0.4433 1.2288 0.6298
C67 C -0.5157(8) 1.1175(7) 0.6428(6)
H38 H -0.5821 1.1334 0.6661
C68 C -0.5006(7) 1.0363(6) 0.6290(6)
C69 C -0.5833(8) 0.9766(8) 0.6446(7)
H39 H -0.6512 0.9899 0.6676
C70 C -0.5660(8) 0.9019(8) 0.6271(7)
H40 H -0.6227 0.8643 0.6375
Zn2A Zn 0.66998(7) 0.41037(6) 0.42603(5)
Zn2A_2 Zn -0.33002(7) 1.41037(6) 0.42603(5)
Zn3_2 Zn -0.25513(6) 1.46087(6) 0.15865(5)
Zn4A Zn -0.48010(7) 1.24473(6) 0.07521(5)
Zn5A Zn 0.16883(6) 0.98294(6) 0.46943(5)
O5A O 0.4258(4) 0.4930(3) 0.6252(3)
O11_2 O 0.7701(5) 0.3940(3) 0.2764(3)
O12A O 0.2970(4) 0.6980(3) 0.6087(3)
O15A O -0.0752(4) 0.9531(3) 0.6188(3)
O19A O 0.3886(4) 0.7720(3) -0.1651(3)
O20_2 O 0.6809(4) 0.3559(3) 0.1462(3)
O24 O 0.1570(13) 0.3975(10) 0.4515(10)
O25 O 0.3597(11) 0.3443(9) 0.2606(7)
O26 O 0.1332(12) 0.3351(11) 0.3243(8)
O27? O -0.0352(17) 0.4825(15) 0.5171(15)
loop_
_geom_bond_atom_site_label_1
_geom_bond_atom_site_label_2
_geom_bond_site_symmetry_1
_geom_bond_site_symmetry_2
Zn1 O1 1_555 1_555
Zn2 O3 1_555 1_555
Zn3 O7 1_555 1_555
Zn4 O9 1_555 1_555
Zn5 O14 1_555 1_555
O1 C7 1_555 1_555
O2 C7 1_555 1_555
O3 C8 1_555 1_555
O4 C8 1_555 1_555
O5 C9 1_555 1_555
O6 C9 1_555 1_555
O7 C10 1_555 1_555
O8 C10 1_555 1_555
O9 C11 1_555 1_555
O10 Zn4 1_555 1_555
O11 C18 1_555 1_555
O12 C18 1_555 1_555
O13 C19 1_555 1_555
O14 C19 1_555 1_555
O15 C20 1_555 1_555
O16 Zn5 1_555 1_555
O17 Zn1 1_555 1_555
O18 C21 1_555 1_555
O19 C22 1_555 1_555
O20 C22 1_555 1_555
O21 Zn1 1_555 1_555
H1 O21 1_555 1_555
H2 O21 1_555 1_555
O22 Zn2 1_555 1_555
H3 O22 1_555 1_555
H4 O22 1_555 1_555
O23 Zn4 1_555 1_555
H5 O23 1_555 1_555
H6 O23 1_555 1_555
N1 Zn1 1_555 1_555
N2 Zn1 1_555 1_555
N3 Zn3 1_555 1_555
N4 Zn3 1_555 1_555
N5 Zn4 1_555 1_555
N6 Zn4 1_555 1_555
N7 Zn5 1_555 1_555
N8 Zn5 1_555 1_555
C1 C2 1_555 1_555
C2 C3 1_555 1_555
C3 C4 1_555 1_555
C4 C5 1_555 1_555
C5 C6 1_555 1_555
C6 C1 1_555 1_555
H7 C6 1_555 1_555
C7 C1 1_555 1_555
C8 C2 1_555 1_555
C9 C3 1_555 1_555
C10 C4 1_555 1_555
C11 O10 1_555 1_555
C12 C13 1_555 1_555
C13 C14 1_555 1_555
C14 C15 1_555 1_555
C15 C16 1_555 1_555
C16 H8 1_555 1_555
C17 C12 1_555 1_555
C18 C12 1_555 1_555
C19 C13 1_555 1_555
C20 O16 1_555 1_555
C21 O17 1_555 1_555
C22 C17 1_555 1_555
C23 N2 1_555 1_555
H9 C23 1_555 1_555
C24 C23 1_555 1_555
H10 C24 1_555 1_555
C25 C24 1_555 1_555
H11 C25 1_555 1_555
C26 C25 1_555 1_555
C27 N2 1_555 1_555
C28 N1 1_555 1_555
C29 N1 1_555 1_555
H12 C29 1_555 1_555
C30 C29 1_555 1_555
H13 C30 1_555 1_555
C31 C30 1_555 1_555
H14 C31 1_555 1_555
C32 C28 1_555 1_555
C33 C32 1_555 1_555
H15 C33 1_555 1_555
C34 C26 1_555 1_555
H16 C34 1_555 1_555
C35 N3 1_555 1_555
H17 C35 1_555 1_555
C36 C35 1_555 1_555
H18 C36 1_555 1_555
C37 C36 1_555 1_555
H19 C37 1_555 1_555
C38 C37 1_555 1_555
C39 N3 1_555 1_555
C40 N4 1_555 1_555
C41 N4 1_555 1_555
H20 C41 1_555 1_555
C42 C41 1_555 1_555
H21 C42 1_555 1_555
C43 C42 1_555 1_555
H22 C43 1_555 1_555
C44 C40 1_555 1_555
C45 C44 1_555 1_555
H23 C45 1_555 1_555
C46 C38 1_555 1_555
H24 C46 1_555 1_555
C47 N5 1_555 1_555
H25 C47 1_555 1_555
C48 C47 1_555 1_555
H26 C48 1_555 1_555
C49 C48 1_555 1_555
H27 C49 1_555 1_555
C50 C49 1_555 1_555
C51 N5 1_555 1_555
C52 N6 1_555 1_555
C53 N6 1_555 1_555
H28 C53 1_555 1_555
C54 C53 1_555 1_555
H29 C54 1_555 1_555
C55 C54 1_555 1_555
H30 C55 1_555 1_555
C56 C52 1_555 1_555
C57 C56 1_555 1_555
H31 C57 1_555 1_555
C58 C50 1_555 1_555
H32 C58 1_555 1_555
C59 N7 1_555 1_555
H33 C59 1_555 1_555
C60 C59 1_555 1_555
H34 C60 1_555 1_555
C61 C60 1_555 1_555
H35 C61 1_555 1_555
C62 C61 1_555 1_555
C63 N7 1_555 1_555
C64 N8 1_555 1_555
C65 N8 1_555 1_555
H36 C65 1_555 1_555
C66 C65 1_555 1_555
H37 C66 1_555 1_555
C67 C66 1_555 1_555
H38 C67 1_555 1_555
C68 C64 1_555 1_555
C69 C68 1_555 1_555
H39 C69 1_555 1_555
C70 C62 1_555 1_555
H40 C70 1_555 1_555
Zn2A O5 1_555 1_555
Zn2A_2 O12 1_555 1_555
Zn3_2 O11 1_555 1_555
Zn4A O19 1_555 1_555
Zn5A O15 1_555 1_555
O5A Zn2 1_555 1_555
O11_2 Zn3 1_555 1_555
O12A Zn2 1_555 1_555
O15A Zn5 1_555 1_555
O19A Zn4 1_555 1_555
O20_2 Zn3 1_555 1_555
O20 Zn3_2 1_555 1_555
C5 C11 1_555 1_555
C14 C20 1_555 1_555
C15 C21 1_555 1_555
C16 C17 1_555 1_555
C26 C27 1_555 1_555
C27 C28 1_555 1_555
C31 C32 1_555 1_555
C33 C34 1_555 1_555
C38 C39 1_555 1_555
C39 C40 1_555 1_555
C43 C44 1_555 1_555
C45 C46 1_555 1_555
C50 C51 1_555 1_555
C51 C52 1_555 1_555
C55 C56 1_555 1_555
C57 C58 1_555 1_555
C62 C63 1_555 1_555
C63 C64 1_555 1_555
C67 C68 1_555 1_555
C69 C70 1_555 1_555

#END
