
#######################################################################
#
#                 Cambridge Crystallographic Data Centre
#                                CCDC 
#
#######################################################################
#
# If this CIF has been generated from an entry in the Cambridge 
# Structural Database, then it will include bibliographic, chemical, 
# crystal, experimental, refinement or atomic coordinate data resulting 
# from the CCDC's data processing and validation procedures.
#
#######################################################################

data_SIZFAK
_symmetry_cell_setting           triclinic
_symmetry_space_group_name_H-M   'P -1'
_symmetry_Int_Tables_number      2
_space_group_name_Hall           '-P 1'
loop_
_symmetry_equiv_pos_site_id
_symmetry_equiv_pos_as_xyz
1 x,y,z
2 -x,-y,-z
_cell_length_a                   11.519(3)
_cell_length_b                   12.626(3)
_cell_length_c                   14.493(4)
_cell_angle_alpha                109.167(3)
_cell_angle_beta                 105.733(3)
_cell_angle_gamma                95.597(3)
_cell_volume                     1875.63
loop_
_atom_site_label
_atom_site_type_symbol
_atom_site_fract_x
_atom_site_fract_y
_atom_site_fract_z
Cl2 Cl 1.2031(2) 0.3126(3) 0.12686(17)
Sr1 Sr 1.46720(3) -0.10421(3) 0.34170(2)
O1 O 1.6265(2) 0.0639(2) 0.49830(19)
O2 O 1.3448(3) -0.3039(2) 0.3087(3)
O3 O 1.5120(3) 0.0579(3) 0.2758(2)
O4 O 1.3621(3) -0.1978(3) 0.1431(2)
C1 C 1.0031(3) -0.3227(3) 0.2623(3)
C2 C 0.7881(3) -0.3815(3) 0.1968(3)
H1 H 0.7489 -0.4598 0.1457
C3 C 0.8295(3) -0.3011(3) 0.1460(3)
H2 H 0.8020 -0.3385 0.0698
C4 C 0.6954(3) -0.2232(3) 0.2315(3)
C5 C 1.0450(3) -0.2152(3) 0.1557(3)
H3 H 1.1257 -0.2357 0.1737
H4 H 1.0128 -0.2405 0.0803
C6 C 0.7631(3) -0.1171(3) 0.1338(3)
H5 H 0.7530 -0.1531 0.0603
H6 H 0.6892 -0.0864 0.1393
C7 C 1.1696(3) -0.0227(3) 0.2645(3)
C8 C 0.9796(3) -0.0299(3) 0.1522(3)
H7 H 0.9607 -0.0591 0.0763
C9 C 1.0526(3) 0.0944(3) 0.2033(3)
H8 H 1.0698 0.1242 0.1520
C10 C 0.8613(3) 0.0867(3) 0.2316(3)
C11 C 1.2676(3) 0.1824(3) 0.3337(3)
H9 H 1.3432 0.1527 0.3484
H10 H 1.2754 0.2285 0.2921
C12 C 0.9931(4) 0.2794(3) 0.2945(3)
H11 H 1.0339 0.3091 0.2542
H12 H 0.9133 0.3026 0.2862
C13 C 1.3253(3) 0.2555(3) 0.5232(3)
C14 C 1.1997(3) 0.3553(3) 0.4399(3)
H13 H 1.2353 0.4069 0.4114
C15 C 1.2295(3) 0.4133(3) 0.5590(3)
H14 H 1.2713 0.4947 0.5848
C16 C 1.0161(3) 0.3618(3) 0.4791(3)
C17 C 1.0882(3) 0.4525(3) 0.6683(3)
H15 H 1.0057 0.4703 0.6547
H16 H 1.1480 0.5248 0.7093
C18 C 0.6308(3) -0.3740(3) 0.2922(3)
H17 H 0.5533 -0.3466 0.2834
H18 H 0.6101 -0.4575 0.2573
N1 N 0.9028(3) -0.3798(3) 0.2717(2)
N2 N 0.9626(3) -0.2761(2) 0.1900(2)
N3 N 0.7026(3) -0.3262(3) 0.2424(2)
N4 N 0.7718(3) -0.2040(2) 0.1794(2)
N5 N 1.0607(3) -0.0924(2) 0.1995(2)
N6 N 1.1646(3) 0.0871(2) 0.2742(2)
N7 N 0.8681(3) -0.0241(2) 0.1811(2)
N8 N 0.9721(3) 0.1554(3) 0.2531(2)
N9 N 1.2569(3) 0.2554(2) 0.4299(2)
N10 N 1.3094(3) 0.3464(2) 0.5994(2)
N11 N 1.0675(3) 0.3310(3) 0.4022(2)
N12 N 1.1098(3) 0.4027(3) 0.5721(2)
O5 O 1.1101(2) -0.3154(2) 0.3115(2)
O6 O 1.2597(2) -0.0548(2) 0.30802(19)
O7 O 1.3906(2) 0.1879(2) 0.5370(2)
O8 O 0.6291(2) -0.1601(2) 0.2620(2)
O9 O 0.7727(2) 0.1176(2) 0.2547(2)
O10 O 0.9066(2) 0.3574(2) 0.4677(2)
C1A C 0.9969(3) 0.3227(3) 0.7377(3)
C2A C 1.2119(3) 0.3815(3) 0.8032(3)
H1A H 1.2511 0.4598 0.8543
C3A C 1.1705(3) 0.3011(3) 0.8540(3)
H2A H 1.1980 0.3385 0.9302
C4A C 1.3046(3) 0.2232(3) 0.7685(3)
C5A C 0.9550(3) 0.2152(3) 0.8443(3)
H3A H 0.8743 0.2357 0.8263
H4A H 0.9872 0.2405 0.9197
C6A C 1.2369(3) 0.1171(3) 0.8662(3)
H5A H 1.2470 0.1531 0.9397
H6A H 1.3108 0.0864 0.8607
C7A C 0.8304(3) 0.0227(3) 0.7355(3)
C8A C 1.0204(3) 0.0299(3) 0.8478(3)
H7A H 1.0393 0.0591 0.9237
C9A C 0.9474(3) -0.0944(3) 0.7967(3)
H8A H 0.9302 -0.1242 0.8480
C10A C 1.1387(3) -0.0867(3) 0.7684(3)
C11A C 0.7324(3) -0.1824(3) 0.6663(3)
H9A H 0.6568 -0.1527 0.6516
H10A H 0.7246 -0.2285 0.7079
C12A C 1.0069(4) -0.2794(3) 0.7055(3)
H11A H 0.9661 -0.3091 0.7458
H12A H 1.0867 -0.3026 0.7138
C13A C 0.6747(3) -0.2555(3) 0.4768(3)
C14A C 0.8003(3) -0.3553(3) 0.5601(3)
H13A H 0.7647 -0.4069 0.5886
C15A C 0.7705(3) -0.4133(3) 0.4410(3)
H14A H 0.7287 -0.4947 0.4152
C16A C 0.9839(3) -0.3618(3) 0.5209(3)
C17A C 0.9118(3) -0.4525(3) 0.3317(3)
H15A H 0.9943 -0.4703 0.3453
H16A H 0.8520 -0.5248 0.2907
C18A C 1.3692(3) 0.3740(3) 0.7078(3)
H17A H 1.4467 0.3466 0.7166
H18A H 1.3899 0.4575 0.7427
N1A N 1.0972(3) 0.3798(3) 0.7283(2)
N2A N 1.0374(3) 0.2761(2) 0.8100(2)
N3A N 1.2974(3) 0.3262(3) 0.7576(2)
N4A N 1.2282(3) 0.2040(2) 0.8206(2)
N5A N 0.9393(3) 0.0924(2) 0.8005(2)
N6A N 0.8354(3) -0.0871(2) 0.7258(2)
N7A N 1.1319(3) 0.0241(2) 0.8189(2)
N8A N 1.0279(3) -0.1554(3) 0.7469(2)
N9A N 0.7431(3) -0.2554(2) 0.5701(2)
N10A N 0.6906(3) -0.3464(2) 0.4006(2)
N11A N 0.9325(3) -0.3310(3) 0.5978(2)
N12A N 0.8902(3) -0.4027(3) 0.4279(2)
O5A O 0.8899(2) 0.3154(2) 0.6885(2)
O6A O 0.7403(2) 0.0548(2) 0.69198(19)
O7A O 0.6094(2) -0.1879(2) 0.4630(2)
O8A O 1.3709(2) 0.1601(2) 0.7380(2)
O9A O 1.2273(2) -0.1176(2) 0.7453(2)
O10A O 1.0934(2) -0.3574(2) 0.5323(2)
Sr1A Sr 0.53280(3) 0.10421(3) 0.65830(2)
O1A O 0.3735(2) -0.0639(2) 0.50170(19)
O2A O 0.6552(3) 0.3039(2) 0.6913(3)
O3A O 0.4880(3) -0.0579(3) 0.7242(2)
O4A O 0.6379(3) 0.1978(3) 0.8569(2)
Sr1_2 Sr 0.46720(3) -0.10421(3) 0.34170(2)
Sr1A_2 Sr 1.53280(3) 0.10421(3) 0.65830(2)
O1_2 O 0.6265(2) 0.0639(2) 0.49830(19)
O1A_2 O 1.3735(2) -0.0639(2) 0.50170(19)
O7_2 O 0.3906(2) 0.1879(2) 0.5370(2)
O7A_2 O 1.6094(2) -0.1879(2) 0.4630(2)
O8_2 O 1.6291(2) -0.1601(2) 0.2620(2)
O8A_2 O 0.3709(2) 0.1601(2) 0.7380(2)
C19 C 1.0717(5) -0.0758(5) 0.5183(5)
H19 H 1.1227 -0.0421 0.5911
H20 H 1.0908 -0.1511 0.4887
C20 C 1.0571(6) 0.0922(5) 0.4872(7)
H21 H 1.0663 0.1261 0.4370
H22 H 1.1062 0.1474 0.5560
O11 O 1.1054(3) -0.0071(3) 0.4685(3)
C19A C 0.9283(5) 0.0758(5) 0.4817(5)
H19A H 0.8773 0.0421 0.4089
H20A H 0.9092 0.1511 0.5113
C20A C 0.9429(6) -0.0922(5) 0.5128(7)
H21A H 0.9337 -0.1261 0.5630
H22A H 0.8938 -0.1474 0.4440
O11A O 0.8946(3) 0.0071(3) 0.5315(3)
Cl1 Cl 1.17355(15) -0.1011(2) 0.00537(14)
C21? C 1.0820(16) 0.1008(14) 0.562(2)
H23? H 1.1310 0.1758 0.5762
H24? H 1.0896 0.0866 0.6255
loop_
_geom_bond_atom_site_label_1
_geom_bond_atom_site_label_2
_geom_bond_site_symmetry_1
_geom_bond_site_symmetry_2
Sr1 O1 1_555 1_555
O1 Sr1A_2 1_555 1_555
O2 Sr1 1_555 1_555
O3 Sr1 1_555 1_555
O4 Sr1 1_555 1_555
C1 N1 1_555 1_555
C2 H1 1_555 1_555
C3 C2 1_555 1_555
H2 C3 1_555 1_555
C4 N3 1_555 1_555
C5 H3 1_555 1_555
H4 C5 1_555 1_555
C6 H5 1_555 1_555
H6 C6 1_555 1_555
C7 N5 1_555 1_555
C8 H7 1_555 1_555
C9 C8 1_555 1_555
H8 C9 1_555 1_555
C10 N7 1_555 1_555
C11 H9 1_555 1_555
H10 C11 1_555 1_555
C12 H11 1_555 1_555
H12 C12 1_555 1_555
C13 N9 1_555 1_555
C14 H13 1_555 1_555
C15 C14 1_555 1_555
H14 C15 1_555 1_555
C16 N11 1_555 1_555
C17 H15 1_555 1_555
H16 C17 1_555 1_555
C18 H17 1_555 1_555
H18 C18 1_555 1_555
N1 C2 1_555 1_555
N2 C1 1_555 1_555
N3 C2 1_555 1_555
N4 C3 1_555 1_555
N5 C5 1_555 1_555
N6 C7 1_555 1_555
N7 C6 1_555 1_555
N8 C9 1_555 1_555
N9 C11 1_555 1_555
N10 C13 1_555 1_555
N11 C12 1_555 1_555
N12 C15 1_555 1_555
O5 C1 1_555 1_555
O6 Sr1 1_555 1_555
O7 C13 1_555 1_555
O8 C4 1_555 1_555
O9 C10 1_555 1_555
O10 C16 1_555 1_555
C19 H19 1_555 1_555
H20 C19 1_555 1_555
C20 H21 1_555 1_555
H22 C20 1_555 1_555
O11 C19 1_555 1_555
C1A N1A 1_555 1_555
C2A H1A 1_555 1_555
C3A C2A 1_555 1_555
H2A C3A 1_555 1_555
C4A N3A 1_555 1_555
C5A H3A 1_555 1_555
H4A C5A 1_555 1_555
C6A H5A 1_555 1_555
H6A C6A 1_555 1_555
C7A N5A 1_555 1_555
C8A H7A 1_555 1_555
C9A C8A 1_555 1_555
H8A C9A 1_555 1_555
C10A N7A 1_555 1_555
C11A H9A 1_555 1_555
H10A C11A 1_555 1_555
C12A H11A 1_555 1_555
H12A C12A 1_555 1_555
C13A N9A 1_555 1_555
C14A H13A 1_555 1_555
C15A C14A 1_555 1_555
H14A C15A 1_555 1_555
C16A N11A 1_555 1_555
C17A N1 1_555 1_555
H15A C17A 1_555 1_555
H16A C17A 1_555 1_555
C18A N10 1_555 1_555
H17A C18A 1_555 1_555
H18A C18A 1_555 1_555
N1A C17 1_555 1_555
N2A C1A 1_555 1_555
N3A C2A 1_555 1_555
N4A C3A 1_555 1_555
N5A C5A 1_555 1_555
N6A C7A 1_555 1_555
N7A C6A 1_555 1_555
N8A C9A 1_555 1_555
N9A C11A 1_555 1_555
N10A C18 1_555 1_555
N11A C12A 1_555 1_555
N12A C15A 1_555 1_555
O5A C1A 1_555 1_555
O6A C7A 1_555 1_555
O7A C13A 1_555 1_555
O8A C4A 1_555 1_555
O9A C10A 1_555 1_555
O10A C16A 1_555 1_555
Sr1A O6A 1_555 1_555
O1A Sr1A 1_555 1_555
O2A Sr1A 1_555 1_555
O3A Sr1A 1_555 1_555
O4A Sr1A 1_555 1_555
Sr1_2 O8 1_555 1_555
Sr1A_2 O7 1_555 1_555
O1_2 Sr1A 1_555 1_555
O1A_2 Sr1 1_555 1_555
O7_2 Sr1A 1_555 1_555
O7A_2 Sr1 1_555 1_555
O8_2 Sr1 1_555 1_555
O8A_2 Sr1A 1_555 1_555
C19A C20 1_555 1_555
H19A C19A 1_555 1_555
H20A C19A 1_555 1_555
C20A C19 1_555 1_555
H21A C20A 1_555 1_555
H22A C20A 1_555 1_555
O11A C19A 1_555 1_555
C3 N2 1_555 1_555
C4 N4 1_555 1_555
C5 N2 1_555 1_555
C6 N4 1_555 1_555
C7 O6 1_555 1_555
C8 N5 1_555 1_555
C8 N7 1_555 1_555
C9 N6 1_555 1_555
C10 N8 1_555 1_555
C11 N6 1_555 1_555
C12 N8 1_555 1_555
C14 N9 1_555 1_555
C14 N11 1_555 1_555
C15 N10 1_555 1_555
C16 N12 1_555 1_555
C17 N12 1_555 1_555
C18 N3 1_555 1_555
C20 O11 1_555 1_555
C2A N1A 1_555 1_555
C3A N2A 1_555 1_555
C4A N4A 1_555 1_555
C5A N2A 1_555 1_555
C6A N4A 1_555 1_555
C8A N5A 1_555 1_555
C8A N7A 1_555 1_555
C9A N6A 1_555 1_555
C10A N8A 1_555 1_555
C11A N6A 1_555 1_555
C12A N8A 1_555 1_555
C13A N10A 1_555 1_555
C14A N9A 1_555 1_555
C14A N11A 1_555 1_555
C15A N10A 1_555 1_555
C16A N12A 1_555 1_555
C17A N12A 1_555 1_555
C18A N3A 1_555 1_555
O7A Sr1_2 1_555 1_555
O8A Sr1A_2 1_555 1_555
O1A Sr1_2 1_555 1_555
Sr1_2 O1_2 1_555 1_555
Sr1A_2 O1A_2 1_555 1_555
C20A O11A 1_555 1_555

#END
