
#######################################################################
#
#                 Cambridge Crystallographic Data Centre
#                                CCDC 
#
#######################################################################
#
# If this CIF has been generated from an entry in the Cambridge 
# Structural Database, then it will include bibliographic, chemical, 
# crystal, experimental, refinement or atomic coordinate data resulting 
# from the CCDC's data processing and validation procedures.
#
#######################################################################

data_SIZGEO
_symmetry_cell_setting           triclinic
_symmetry_space_group_name_H-M   'P -1'
_symmetry_Int_Tables_number      2
_space_group_name_Hall           '-P 1'
loop_
_symmetry_equiv_pos_site_id
_symmetry_equiv_pos_as_xyz
1 x,y,z
2 -x,-y,-z
_cell_length_a                   9.3803(5)
_cell_length_b                   10.1395(5)
_cell_length_c                   10.9816(6)
_cell_angle_alpha                87.6590(10)
_cell_angle_beta                 81.2730(10)
_cell_angle_gamma                63.5990(10)
_cell_volume                     924.293
loop_
_atom_site_label
_atom_site_type_symbol
_atom_site_fract_x
_atom_site_fract_y
_atom_site_fract_z
Cd1 Cd 0.201886(10) 0.376024(10) 0.379990(13)
Cd2 Cd 0.401465(12) 0.100631(13) 0.150324(14)
C1 C -0.02784(14) 0.06691(14) 0.34456(16)
C2 C 0.02899(15) -0.08499(15) 0.34987(17)
H1 H 0.1404 -0.1462 0.3368
C3 C -0.07788(15) -0.14740(15) 0.37436(17)
C4 C -0.24343(15) -0.05647(15) 0.38615(17)
H2 H -0.3161 -0.0980 0.3988
C5 C -0.30069(15) 0.09563(15) 0.37913(17)
C6 C -0.19267(15) 0.15757(15) 0.36346(17)
H3 H -0.2315 0.2605 0.3657
C7 C 0.09148(15) 0.12950(15) 0.31092(17)
C8 C -0.01322(17) -0.31099(16) 0.38585(18)
C9 C -0.47711(15) 0.19233(16) 0.38266(18)
O1 O 0.21803(12) 0.04463(13) 0.24434(14)
O2 O 0.05511(11) 0.25630(11) 0.34903(13)
O3 O -0.10943(12) -0.36727(11) 0.41712(13)
O4 O 0.13660(13) -0.38715(12) 0.36056(15)
O5 O -0.53600(12) 0.32602(13) 0.41155(16)
O6 O -0.56413(11) 0.13482(12) 0.35384(13)
Cl1 Cl 0.29976(5) 0.37051(5) 0.12957(5)
Cl2 Cl 0.68164(5) -0.05437(7) 0.06398(6)
Cd1A Cd -0.201886(10) -0.376024(10) 0.620010(13)
Cd1_2 Cd 0.201886(10) -0.623976(10) 0.379990(13)
Cd1_3 Cd -0.798114(10) 0.376024(10) 0.379990(13)
Cd2_2 Cd -0.598535(12) 0.100631(13) 0.150324(14)
Cd2A Cd 0.598535(12) -0.100631(13) -0.150324(14)
O3A O 0.10943(12) 0.36727(11) 0.58288(13)
O4_2 O 0.13660(13) 0.61285(12) 0.36056(15)
O5_2 O 0.46400(12) 0.32602(13) 0.41155(16)
O6_2 O 0.43587(11) 0.13482(12) 0.35384(13)
Cl2A Cl 0.31836(5) 0.05437(7) -0.06398(6)
C10 C -0.0838(3) 0.3722(3) 0.0769(3)
H4 H 0.0234 0.3398 0.0388
C11 C -0.1603(3) 0.4702(3) 0.1721(3)
H5 H -0.1158 0.5190 0.2133
C12 C -0.3296(3) 0.4019(3) 0.1205(3)
H6 H -0.4253 0.3942 0.1174
C13 C -0.1679(5) 0.2300(3) -0.0575(4)
H7 H -0.2642 0.2172 -0.0586
H8 H -0.0782 0.1351 -0.0484
H9 H -0.1441 0.2724 -0.1340
C14 C -0.4346(4) 0.5785(3) 0.2954(4)
H10 H -0.5274 0.5567 0.3038
H11 H -0.3907 0.5554 0.3733
C15 C -0.4864(4) 0.7296(3) 0.2741(4)
H12 H -0.5687 0.7869 0.3413
H13 H -0.5303 0.7533 0.1972
H14 H -0.3959 0.7527 0.2692
N1 N -0.1940(2) 0.3294(2) 0.0472(2)
N2 N -0.3136(2) 0.4857(2) 0.1978(2)
loop_
_geom_bond_atom_site_label_1
_geom_bond_atom_site_label_2
_geom_bond_site_symmetry_1
_geom_bond_site_symmetry_2
Cd1 O2 1_555 1_555
Cd2 O1 1_555 1_555
C1 C2 1_555 1_555
C2 H1 1_555 1_555
C3 C2 1_555 1_555
C4 C3 1_555 1_555
H2 C4 1_555 1_555
C5 C4 1_555 1_555
C6 C1 1_555 1_555
H3 C6 1_555 1_555
C7 C1 1_555 1_555
C8 C3 1_555 1_555
C9 C5 1_555 1_555
O1 C7 1_555 1_555
O2 C7 1_555 1_555
O3 C8 1_555 1_555
O4 C8 1_555 1_555
O5 C9 1_555 1_555
O6 C9 1_555 1_555
Cl1 Cd1 1_555 1_555
Cl2 Cd2 1_555 1_555
C10 H4 1_555 1_555
C11 C10 1_555 1_555
H5 C11 1_555 1_555
C12 H6 1_555 1_555
C13 H7 1_555 1_555
H8 C13 1_555 1_555
H9 C13 1_555 1_555
C14 H10 1_555 1_555
H11 C14 1_555 1_555
C15 C14 1_555 1_555
H12 C15 1_555 1_555
H13 C15 1_555 1_555
H14 C15 1_555 1_555
N1 C10 1_555 1_555
N2 C11 1_555 1_555
Cd1A O3 1_555 1_555
Cd1_2 O4 1_555 1_555
Cd1_3 O5 1_555 1_555
Cd2_2 O6 1_555 1_555
Cd2A Cl2 1_555 1_555
O3A Cd1 1_555 1_555
O4_2 Cd1 1_555 1_555
O5_2 Cd1 1_555 1_555
O6_2 Cd1 1_555 1_555
Cl2A Cd2 1_555 1_555
Cd2 Cl1 1_555 1_555
Cd2 O6_2 1_555 1_555
C5 C6 1_555 1_555
O6 Cd1_3 1_555 1_555
C12 N1 1_555 1_555
C12 N2 1_555 1_555
C13 N1 1_555 1_555
C14 N2 1_555 1_555
Cd2A Cl2A 1_555 1_555

#END
