
#######################################################################
#
#                 Cambridge Crystallographic Data Centre
#                                CCDC 
#
#######################################################################
#
# If this CIF has been generated from an entry in the Cambridge 
# Structural Database, then it will include bibliographic, chemical, 
# crystal, experimental, refinement or atomic coordinate data resulting 
# from the CCDC's data processing and validation procedures.
#
#######################################################################

data_SIZNIA
_symmetry_cell_setting           monoclinic
_symmetry_space_group_name_H-M   'C 2/c'
_symmetry_Int_Tables_number      15
_space_group_name_Hall           '-C 2yn'
loop_
_symmetry_equiv_pos_site_id
_symmetry_equiv_pos_as_xyz
1 x,y,z
2 -x,y,1/2-z
3 1/2+x,1/2+y,z
4 1/2-x,1/2+y,1/2-z
5 -x,-y,-z
6 x,-y,1/2+z
7 1/2-x,1/2-y,-z
8 1/2+x,1/2-y,1/2+z
_cell_length_a                   26.521(2)
_cell_length_b                   8.8621(7)
_cell_length_c                   16.7474(13)
_cell_angle_alpha                90
_cell_angle_beta                 117.7800(10)
_cell_angle_gamma                90
_cell_volume                     3482.5
loop_
_atom_site_label
_atom_site_type_symbol
_atom_site_fract_x
_atom_site_fract_y
_atom_site_fract_z
Cu1 Cu 1.0000 1.0000 0.5000
Cu2 Cu 1.2500 0.7500 0.5000
O1 O 0.92045(8) 0.9921(2) 0.40504(13)
O2 O 0.92418(10) 1.0396(3) 0.27727(16)
O3 O 1.17139(8) 0.7166(2) 0.47788(14)
O4 O 1.15000(11) 0.4830(3) 0.4244(2)
O5 O 1.02931(11) 1.1393(3) 0.40617(18)
H1 H 1.0436 1.1179 0.3719
H2 H 0.9931 1.1289 0.3821
O6 O 1.26694(11) 0.4922(3) 0.47557(17)
H3 H 1.2341 0.4631 0.4660
H4 H 1.2951 0.4411 0.5134
N1 N 0.77797(10) 0.7895(3) 0.13297(15)
N2 N 1.01534(10) 0.7996(3) 0.45598(16)
C1 C 0.90172(13) 0.9853(3) 0.3207(2)
C2 C 0.84631(12) 0.9006(3) 0.27080(19)
C3 C 0.81344(14) 0.8610(4) 0.3113(2)
H5 H 0.8258 0.8841 0.3717
C4 C 0.76188(16) 0.7868(4) 0.2622(2)
C5 C 0.74657(14) 0.7531(4) 0.1734(2)
H6 H 0.7124 0.7022 0.1398
C6 C 0.82739(12) 0.8622(3) 0.18144(19)
H7 H 0.8497 0.8876 0.1539
C7 C 0.7234(2) 0.7474(6) 0.3028(3)
H8 H 0.7408 0.6695 0.3471
H9 H 0.6874 0.7123 0.2561
H10 H 0.7174 0.8353 0.3308
C8 C 1.13786(13) 0.6061(4) 0.4455(2)
C9 C 1.07863(12) 0.6348(3) 0.43222(19)
C10 C 1.03518(14) 0.5295(3) 0.3924(2)
H11 H 1.0420 0.4388 0.3712
C11 C 0.98167(13) 0.5591(3) 0.3841(2)
C12 C 0.97452(12) 0.6934(3) 0.4193(2)
H12 H 0.9395 0.7116 0.4177
C13 C 1.06641(12) 0.7693(3) 0.46138(19)
H13 H 1.0949 0.8421 0.4858
C14 C 0.93245(15) 0.4499(4) 0.3399(3)
H14 H 0.9036 0.4749 0.3569
H15 H 0.9457 0.3490 0.3592
H16 H 0.9168 0.4564 0.2755
O1A O 1.07955(8) 0.9921(2) 0.09496(13)
O2A O 1.07582(10) 1.0396(3) 0.22273(16)
N1A N 1.22203(10) 0.7895(3) 0.36703(15)
C1A C 1.09828(13) 0.9853(3) 0.1793(2)
C2A C 1.15369(12) 0.9006(3) 0.22920(19)
C3A C 1.18656(14) 0.8610(4) 0.1887(2)
H5A H 1.1742 0.8841 0.1283
C4A C 1.23812(16) 0.7868(4) 0.2378(2)
C5A C 1.25343(14) 0.7531(4) 0.3266(2)
H6A H 1.2876 0.7022 0.3602
C6A C 1.17261(12) 0.8622(3) 0.31856(19)
H7A H 1.1503 0.8876 0.3461
C7A C 1.2766(2) 0.7474(6) 0.1972(3)
H8A H 1.2592 0.6695 0.1529
H9A H 1.3126 0.7123 0.2439
H10A H 1.2826 0.8353 0.1692
O3D O 0.82861(8) 1.2834(2) 0.52212(14)
O4D O 0.85000(11) 1.5170(3) 0.5756(2)
N2D N 0.98466(10) 1.2004(3) 0.54402(16)
C8D C 0.86214(13) 1.3939(4) 0.5545(2)
C9D C 0.92137(12) 1.3652(3) 0.56778(19)
C10D C 0.96482(14) 1.4705(3) 0.6076(2)
H11D H 0.9580 1.5612 0.6288
C11D C 1.01833(13) 1.4409(3) 0.6159(2)
C12D C 1.02548(12) 1.3066(3) 0.5807(2)
H12D H 1.0605 1.2884 0.5823
C13D C 0.93359(12) 1.2307(3) 0.53862(19)
H13D H 0.9051 1.1579 0.5142
C14D C 1.06755(15) 1.5501(4) 0.6601(3)
H14D H 1.0964 1.5251 0.6431
H15D H 1.0543 1.6510 0.6408
H16D H 1.0832 1.5436 0.7245
O5D O 0.97069(11) 0.8607(3) 0.59383(18)
H1D H 0.9564 0.8821 0.6281
H2D H 1.0069 0.8711 0.6179
O6F O 1.23306(11) 1.0078(3) 0.52443(17)
H3F H 1.2659 1.0369 0.5340
H4F H 1.2049 1.0589 0.4866
Cu1A Cu 1.0000 1.0000 0.0000
Cu2A Cu 0.7500 0.7500 0.0000
Cu2B Cu 0.7500 1.2500 0.5000
O1D O 1.07955(8) 1.0079(2) 0.59496(13)
O3F O 1.32861(8) 0.7834(2) 0.52212(14)
N1G N 1.27797(10) 0.7105(3) 0.63297(15)
O7 O 0.13345(11) 0.1709(3) 0.39815(19)
H17 H 0.1429 0.1988 0.4518
H18 H 0.1099 0.2283 0.3556
loop_
_geom_bond_atom_site_label_1
_geom_bond_atom_site_label_2
_geom_bond_site_symmetry_1
_geom_bond_site_symmetry_2
Cu1 O1 1_555 1_555
Cu2 O3 1_555 1_555
O1 C1 1_555 1_555
O2 C1 1_555 1_555
O3 C8 1_555 1_555
O4 C8 1_555 1_555
O5 Cu1 1_555 1_555
H1 O5 1_555 1_555
H2 O5 1_555 1_555
O6 Cu2 1_555 1_555
H3 O6 1_555 1_555
H4 O6 1_555 1_555
N1 C5 1_555 1_555
N2 Cu1 1_555 1_555
C1 C2 1_555 1_555
C2 C3 1_555 1_555
C3 H5 1_555 1_555
C4 C3 1_555 1_555
C5 C4 1_555 1_555
H6 C5 1_555 1_555
C6 N1 1_555 1_555
H7 C6 1_555 1_555
C7 C4 1_555 1_555
H8 C7 1_555 1_555
H9 C7 1_555 1_555
H10 C7 1_555 1_555
C8 C9 1_555 1_555
C9 C10 1_555 1_555
C10 H11 1_555 1_555
C11 C10 1_555 1_555
C12 N2 1_555 1_555
H12 C12 1_555 1_555
C13 N2 1_555 1_555
H13 C13 1_555 1_555
C14 C11 1_555 1_555
H14 C14 1_555 1_555
H15 C14 1_555 1_555
H16 C14 1_555 1_555
O7 H17 1_555 1_555
H18 O7 1_555 1_555
O1A C1A 1_555 1_555
O2A C1A 1_555 1_555
N1A Cu2 1_555 1_555
C1A C2A 1_555 1_555
C2A C3A 1_555 1_555
C3A H5A 1_555 1_555
C4A C3A 1_555 1_555
C5A N1A 1_555 1_555
H6A C5A 1_555 1_555
C6A N1A 1_555 1_555
H7A C6A 1_555 1_555
C7A C4A 1_555 1_555
H8A C7A 1_555 1_555
H9A C7A 1_555 1_555
H10A C7A 1_555 1_555
O3D C8D 1_555 1_555
O4D C8D 1_555 1_555
N2D Cu1 1_555 1_555
C8D C9D 1_555 1_555
C9D C10D 1_555 1_555
C10D H11D 1_555 1_555
C11D C10D 1_555 1_555
C12D N2D 1_555 1_555
H12D C12D 1_555 1_555
C13D N2D 1_555 1_555
H13D C13D 1_555 1_555
C14D C11D 1_555 1_555
H14D C14D 1_555 1_555
H15D C14D 1_555 1_555
H16D C14D 1_555 1_555
O5D Cu1 1_555 1_555
H1D O5D 1_555 1_555
H2D O5D 1_555 1_555
O6F Cu2 1_555 1_555
H3F O6F 1_555 1_555
H4F O6F 1_555 1_555
Cu1A O1A 1_555 1_555
Cu2A N1 1_555 1_555
Cu2B O3D 1_555 1_555
O1D Cu1 1_555 1_555
O3F Cu2 1_555 1_555
N1G Cu2 1_555 1_555
C2 C6 1_555 1_555
C9 C13 1_555 1_555
C11 C12 1_555 1_555
C2A C6A 1_555 1_555
C4A C5A 1_555 1_555
C9D C13D 1_555 1_555
C11D C12D 1_555 1_555

#END
