
#######################################################################
#
#                 Cambridge Crystallographic Data Centre
#                                CCDC 
#
#######################################################################
#
# If this CIF has been generated from an entry in the Cambridge 
# Structural Database, then it will include bibliographic, chemical, 
# crystal, experimental, refinement or atomic coordinate data resulting 
# from the CCDC's data processing and validation procedures.
#
#######################################################################

data_SIZPAU
_symmetry_cell_setting           monoclinic
_symmetry_space_group_name_H-M   'P 21/c'
_symmetry_Int_Tables_number      14
_space_group_name_Hall           '-P 2ybc'
loop_
_symmetry_equiv_pos_site_id
_symmetry_equiv_pos_as_xyz
1 x,y,z
2 -x,1/2+y,1/2-z
3 -x,-y,-z
4 x,1/2-y,1/2+z
_cell_length_a                   12.912(2)
_cell_length_b                   9.1366(16)
_cell_length_c                   14.7843(17)
_cell_angle_alpha                90
_cell_angle_beta                 122.411(9)
_cell_angle_gamma                90
_cell_volume                     1472.44
loop_
_atom_site_label
_atom_site_type_symbol
_atom_site_fract_x
_atom_site_fract_y
_atom_site_fract_z
Pb1 Pb 0.185242(19) 0.56840(2) 0.585282(16)
O1 O 0.3355(5) 0.5805(5) 0.8015(5)
O2 O 0.3449(4) 0.7379(5) 0.6913(4)
O3 O 0.1454(4) 0.7993(5) 0.9277(3)
O4 O -0.0288(6) 0.9118(7) 0.8751(5)
N1 N 0.6398(6) 0.9515(6) 0.9438(5)
N2 N 0.0589(5) 0.7592(6) 0.6157(4)
C1 C 0.3806(6) 0.6900(7) 0.7846(6)
C2 C 0.4810(6) 0.7732(7) 0.8783(5)
C3 C 0.5109(6) 0.7457(7) 0.9822(5)
H1 H 0.4672 0.6760 0.9943
C4 C 0.6052(7) 0.8216(7) 1.0674(5)
C5 C 0.6668(7) 0.9230(7) 1.0433(6)
H2 H 0.7311 0.9747 1.0997
C6 C 0.5479(6) 0.8781(7) 0.8634(5)
H3 H 0.5276 0.8980 0.7940
C7 C 0.6419(8) 0.7970(9) 1.1813(6)
H4 H 0.6751 0.7003 1.2033
H5 H 0.5712 0.8072 1.1865
H6 H 0.7026 0.8678 1.2268
C8 C 0.0429(6) 0.8504(7) 0.8564(5)
C9 C 0.0069(5) 0.8397(6) 0.7410(4)
C10 C 0.0830(6) 0.7685(7) 0.7161(5)
H7 H 0.1542 0.7250 0.7713
C11 C -0.0459(6) 0.8230(7) 0.5372(5)
H8 H -0.0643 0.8168 0.4673
C12 C -0.1261(6) 0.8960(7) 0.5545(5)
C13 C -0.0995(6) 0.9042(6) 0.6584(5)
H9 H -0.1525 0.9526 0.6727
C14 C -0.2404(7) 0.9664(8) 0.4628(6)
H10 H -0.3091 0.9019 0.4390
H11 H -0.2291 0.9847 0.4047
H12 H -0.2557 1.0571 0.4864
Pb1A Pb -0.185242(19) 1.06840(2) 0.914718(16)
Pb1A_2 Pb 0.814758(19) 1.06840(2) 0.914718(16)
Pb1C Pb 0.185242(19) 0.93160(2) 1.085282(16)
O3C O 0.1454(4) 0.7007(5) 0.4277(3)
O4A O 0.0288(6) 0.4118(7) 0.6249(5)
O4C O -0.0288(6) 0.5882(7) 0.3751(5)
N1A N 0.3602(6) 0.4515(6) 0.5562(5)
loop_
_geom_bond_atom_site_label_1
_geom_bond_atom_site_label_2
_geom_bond_site_symmetry_1
_geom_bond_site_symmetry_2
Pb1 O1 1_555 1_555
O1 C1 1_555 1_555
O2 Pb1 1_555 1_555
O3 C8 1_555 1_555
O4 C8 1_555 1_555
N1 C5 1_555 1_555
N2 Pb1 1_555 1_555
C1 O2 1_555 1_555
C2 C1 1_555 1_555
C3 C2 1_555 1_555
H1 C3 1_555 1_555
C4 C3 1_555 1_555
C5 C4 1_555 1_555
H2 C5 1_555 1_555
C6 N1 1_555 1_555
H3 C6 1_555 1_555
C7 C4 1_555 1_555
H4 C7 1_555 1_555
H5 C7 1_555 1_555
H6 C7 1_555 1_555
C8 C9 1_555 1_555
C9 C10 1_555 1_555
C10 N2 1_555 1_555
H7 C10 1_555 1_555
C11 N2 1_555 1_555
H8 C11 1_555 1_555
C12 C11 1_555 1_555
C13 C9 1_555 1_555
H9 C13 1_555 1_555
C14 C12 1_555 1_555
H10 C14 1_555 1_555
H11 C14 1_555 1_555
H12 C14 1_555 1_555
Pb1A O4 1_555 1_555
Pb1A_2 N1 1_555 1_555
Pb1C O3 1_555 1_555
O3C Pb1 1_555 1_555
O4A Pb1 1_555 1_555
O4C Pb1 1_555 1_555
N1A Pb1 1_555 1_555
O4 Pb1C 1_555 1_555
C2 C6 1_555 1_555
C12 C13 1_555 1_555

#END
