
#######################################################################
#
#                 Cambridge Crystallographic Data Centre
#                                CCDC 
#
#######################################################################
#
# If this CIF has been generated from an entry in the Cambridge 
# Structural Database, then it will include bibliographic, chemical, 
# crystal, experimental, refinement or atomic coordinate data resulting 
# from the CCDC's data processing and validation procedures.
#
#######################################################################

data_SIZWAZ
_symmetry_cell_setting           triclinic
_symmetry_space_group_name_H-M   'P -1'
_symmetry_Int_Tables_number      2
_space_group_name_Hall           '-P 1'
loop_
_symmetry_equiv_pos_site_id
_symmetry_equiv_pos_as_xyz
1 x,y,z
2 -x,-y,-z
_cell_length_a                   9.637(2)
_cell_length_b                   9.820(2)
_cell_length_c                   11.505(2)
_cell_angle_alpha                73.40(1)
_cell_angle_beta                 65.41(1)
_cell_angle_gamma                69.29(1)
_cell_volume                     913.697
loop_
_atom_site_label
_atom_site_type_symbol
_atom_site_fract_x
_atom_site_fract_y
_atom_site_fract_z
Cu1 Cu 0.0000 0.0000 0.0000
S1 S 0.3101(2) -0.4964(2) 0.0163(3)
F1 F -0.4720(6) -0.2560(6) 0.2650(8)
F2 F -0.5188(6) -0.0577(7) 0.1431(7)
F3 F -0.4892(8) -0.0626(10) 0.3138(8)
N1 N -0.0009(7) -0.0095(6) 0.1937(6)
O1 O 0.0853(5) -0.2176(4) 0.0174(4)
O2 O -0.2316(5) -0.0223(5) 0.0869(5)
C1 C 0.3399(10) -0.6808(8) 0.0729(9)
C2 C 0.2070(10) -0.7180(8) 0.1474(9)
C3 C 0.0694(9) -0.5978(7) 0.1641(8)
C4 C 0.1090(8) -0.4653(7) 0.0967(7)
C5 C 0.0102(7) -0.3132(7) 0.0860(6)
C6 C -0.1524(8) -0.2842(7) 0.1488(7)
C7 C -0.2575(8) -0.1443(7) 0.1430(7)
C8 C -0.4351(9) -0.1328(8) 0.2185(9)
C9 C 0.1093(9) -0.1055(8) 0.2400(9)
C10 C 0.1134(9) -0.1064(8) 0.3594(8)
C11 C -0.0008(8) -0.0022(7) 0.4372(7)
C12 C -0.1152(9) 0.0976(8) 0.3867(9)
C13 C -0.1118(9) 0.0906(9) 0.2667(9)
H1 H 0.4425 -0.7506 0.0528
H2 H -0.0364 -0.6056 0.2150
H3 H -0.1955 -0.3658 0.1995
H4 H 0.199(11) -0.813(10) 0.1714(86)
H5 H 0.2226(91) -0.1784(85) 0.1663(75)
H6 H 0.2005(84) -0.1763(78) 0.3968(69)
H7 H -0.2156(91) 0.1632(85) 0.4492(75)
H8 H -0.2264(94) 0.1547(88) 0.2283(77)
N1A N 0.0009(7) 0.0095(6) -0.1937(6)
O1A O -0.0853(5) 0.2176(4) -0.0174(4)
O2A O 0.2316(5) 0.0223(5) -0.0869(5)
C11A C 0.0008(8) 0.0022(7) 0.5628(7)
C5A C -0.0102(7) 0.3132(7) -0.0860(6)
C7A C 0.2575(8) 0.1443(7) -0.1430(7)
C10A C -0.1134(9) 0.1064(8) 0.6406(8)
C12A C 0.1152(9) -0.0976(8) 0.6133(9)
C4A C -0.1090(8) 0.4653(7) -0.0967(7)
C6A C 0.1524(8) 0.2842(7) -0.1488(7)
C8A C 0.4351(9) 0.1328(8) -0.2185(9)
C9A C -0.1093(9) 0.1055(8) 0.7600(9)
H6A H -0.2005(84) 0.1763(78) 0.6032(69)
C13A C 0.1118(9) -0.0906(9) 0.7333(9)
H7A H 0.2156(91) -0.1632(85) 0.5508(75)
S1A S -0.3101(2) 0.4964(2) -0.0163(3)
C3A C -0.0694(9) 0.5978(7) -0.1641(8)
H3A H 0.1955 0.3658 -0.1995
F1A F 0.4720(6) 0.2560(6) -0.2650(8)
F2A F 0.5188(6) 0.0577(7) -0.1431(7)
F3A F 0.4892(8) 0.0626(10) -0.3138(8)
C1A C -0.3399(10) 0.6808(8) -0.0729(9)
C2A C -0.2070(10) 0.7180(8) -0.1474(9)
H2A H 0.0364 0.6056 -0.2150
H1A H -0.4425 0.7506 -0.0528
H4A H -0.199(11) 0.813(10) -0.1714(86)
N1A_2 N 0.0009(7) 0.0095(6) 0.8063(6)
H5A H -0.2226(91) 0.1784(85) 0.8337(75)
H8A H 0.2264(94) -0.1547(88) 0.7717(77)
Cu1_2 Cu 0.0000 0.0000 1.0000
N2 N 0.6861(14) 0.6250(10) 0.5519(9)
O3 O 0.7431(11) 0.4308(8) 0.4590(9)
C14 C 0.7003(42) 0.5273(17) 0.4950(20)
C15 C 0.7886(32) 0.7117(35) 0.5229(22)
C16 C 0.5354(25) 0.6590(36) 0.6536(21)
loop_
_geom_bond_atom_site_label_1
_geom_bond_atom_site_label_2
_geom_bond_site_symmetry_1
_geom_bond_site_symmetry_2
Cu1 N1 1_555 1_555
S1 C1 1_555 1_555
F1 C8 1_555 1_555
F2 C8 1_555 1_555
F3 C8 1_555 1_555
N1 C9 1_555 1_555
O1 Cu1 1_555 1_555
O2 Cu1 1_555 1_555
C1 C2 1_555 1_555
C2 C3 1_555 1_555
C3 C4 1_555 1_555
C4 S1 1_555 1_555
C5 O1 1_555 1_555
C6 C5 1_555 1_555
C7 O2 1_555 1_555
C8 C7 1_555 1_555
C9 C10 1_555 1_555
C10 C11 1_555 1_555
C11 C12 1_555 1_555
C12 C13 1_555 1_555
C13 N1 1_555 1_555
H1 C1 1_555 1_555
H2 C3 1_555 1_555
H3 C6 1_555 1_555
H4 C2 1_555 1_555
H5 C9 1_555 1_555
H6 C10 1_555 1_555
H7 C12 1_555 1_555
H8 C13 1_555 1_555
N2 C14 1_555 1_555
O3 C14 1_555 1_555
C15 N2 1_555 1_555
C16 N2 1_555 1_555
N1A Cu1 1_555 1_555
O1A Cu1 1_555 1_555
O2A Cu1 1_555 1_555
C11A C11 1_555 1_555
C5A O1A 1_555 1_555
C7A O2A 1_555 1_555
C10A C11A 1_555 1_555
C12A C11A 1_555 1_555
C4A C5A 1_555 1_555
C6A C5A 1_555 1_555
C8A C7A 1_555 1_555
C9A C10A 1_555 1_555
H6A C10A 1_555 1_555
C13A C12A 1_555 1_555
H7A C12A 1_555 1_555
S1A C4A 1_555 1_555
C3A C4A 1_555 1_555
H3A C6A 1_555 1_555
F1A C8A 1_555 1_555
F2A C8A 1_555 1_555
F3A C8A 1_555 1_555
C1A S1A 1_555 1_555
C2A C3A 1_555 1_555
H2A C3A 1_555 1_555
H1A C1A 1_555 1_555
H4A C2A 1_555 1_555
N1A_2 C9A 1_555 1_555
H5A C9A 1_555 1_555
H8A C13A 1_555 1_555
Cu1_2 N1A_2 1_555 1_555
C4 C5 1_555 1_555
C6 C7 1_555 1_555
C7A C6A 1_555 1_555
C13A N1A_2 1_555 1_555
C1A C2A 1_555 1_555

#END
