
#######################################################################
#
#                 Cambridge Crystallographic Data Centre
#                                CCDC 
#
#######################################################################
#
# If this CIF has been generated from an entry in the Cambridge 
# Structural Database, then it will include bibliographic, chemical, 
# crystal, experimental, refinement or atomic coordinate data resulting 
# from the CCDC's data processing and validation procedures.
#
#######################################################################

data_SOBBOC
_symmetry_cell_setting           orthorhombic
_symmetry_space_group_name_H-M   'P b c a'
_symmetry_Int_Tables_number      61
_space_group_name_Hall           '-P 2ac 2ab'
loop_
_symmetry_equiv_pos_site_id
_symmetry_equiv_pos_as_xyz
1 x,y,z
2 1/2-x,-y,1/2+z
3 -x,1/2+y,1/2-z
4 1/2+x,1/2-y,-z
5 -x,-y,-z
6 1/2+x,y,1/2-z
7 x,1/2-y,1/2+z
8 1/2-x,1/2+y,z
_cell_length_a                   17.3192(14)
_cell_length_b                   14.3739(12)
_cell_length_c                   23.819(2)
_cell_angle_alpha                90
_cell_angle_beta                 90
_cell_angle_gamma                90
_cell_volume                     5929.61
loop_
_atom_site_label
_atom_site_type_symbol
_atom_site_fract_x
_atom_site_fract_y
_atom_site_fract_z
Ni1 Ni 0.36933(2) 0.96077(2) 0.319433(16)
Ni2 Ni 0.37183(2) 0.78070(2) 0.421486(15)
O1 O 0.49008(14) 1.22905(14) 0.17543(10)
O2 O 0.58007(13) 1.16481(14) 0.12049(9)
O3 O 0.17031(12) 1.34345(14) 0.28013(8)
O4 O 0.20985(13) 1.27186(14) 0.35915(9)
O5 O 0.49151(14) 0.99775(15) 0.58563(11)
O6 O 0.58337(13) 0.92605(14) 0.63559(9)
O7 O 0.32664(12) 0.89735(14) 0.46013(8)
O8 O 0.28461(13) 0.96748(14) 0.38169(9)
O9 O 0.43731(12) 0.86911(13) 0.36968(8)
H1 H 0.4631 0.9100 0.3874
H2 H 0.4631 0.8273 0.3528
N1 N 0.45380(15) 0.97837(17) 0.25710(11)
N2 N 0.29562(15) 1.04920(16) 0.27517(10)
N3 N 0.20041(15) 1.19092(17) 0.46686(11)
N4 N 0.45714(15) 0.77436(17) 0.48377(11)
C1 C 0.53184(19) 1.1631(2) 0.16004(13)
C2 C 0.52457(19) 1.0719(2) 0.19174(13)
C3 C 0.46610(19) 1.0591(2) 0.23021(14)
H3 H 0.4335 1.1089 0.2379
C4 C 0.5027(2) 0.9085(2) 0.24598(14)
H4 H 0.4936 0.8513 0.2630
C5 C 0.5658(2) 0.9161(2) 0.21095(15)
C6 C 0.5760(2) 0.9999(2) 0.18306(14)
H5 H 0.6174 1.0075 0.1586
C7 C 0.6208(3) 0.8360(3) 0.20533(19)
H6 H 0.6506 0.8302 0.2392
H7 H 0.6548 0.8469 0.1742
H8 H 0.5923 0.7797 0.1991
C8 C 0.19924(17) 1.2764(2) 0.30739(13)
C9 C 0.22405(18) 1.1923(2) 0.27433(13)
C10 C 0.27263(18) 1.1280(2) 0.29998(13)
H9 H 0.2900 1.1404 0.3362
C11 C 0.2689(2) 1.0319(2) 0.22338(14)
H10 H 0.2836 0.9767 0.2061
C12 C 0.2207(2) 1.0915(2) 0.19410(14)
C13 C 0.1989(2) 1.1737(2) 0.22079(14)
H11 H 0.1673 1.2160 0.2023
C14 C 0.1933(3) 1.0677(3) 0.13555(17)
H12 H 0.2336 1.0356 0.1158
H13 H 0.1804 1.1239 0.1159
H14 H 0.1485 1.0286 0.1379
C15 C 0.5338(2) 0.9296(2) 0.59735(14)
C16 C 0.52447(19) 0.8446(2) 0.56090(14)
C17 C 0.5706(2) 0.7667(2) 0.56534(15)
H15 H 0.6094 0.7649 0.5923
C18 C 0.5598(2) 0.6915(2) 0.53021(16)
C19 C 0.5016(2) 0.6986(2) 0.49059(15)
H16 H 0.4928 0.6478 0.4673
C20 C 0.46922(19) 0.8455(2) 0.51874(13)
H17 H 0.4390 0.8986 0.5146
C21 C 0.6094(3) 0.6053(3) 0.5333(2)
H18 H 0.6264 0.5887 0.4963
H19 H 0.5800 0.5551 0.5490
H20 H 0.6535 0.6173 0.5567
C22 C 0.29685(18) 0.9643(2) 0.43309(13)
C23 C 0.27459(18) 1.0498(2) 0.46618(12)
C24 C 0.22076(18) 1.1102(2) 0.44320(13)
H21 H 0.1975 1.0936 0.4095
C25 C 0.2355(2) 1.2144(2) 0.51512(14)
H22 H 0.2217 1.2704 0.5319
C26 C 0.2912(2) 1.1599(2) 0.54142(14)
C27 C 0.3102(2) 1.0754(2) 0.51595(13)
H23 H 0.3466 1.0364 0.5323
C28 C 0.3302(3) 1.1927(3) 0.59468(16)
H24 H 0.3345 1.2592 0.5941
H25 H 0.3808 1.1657 0.5971
H26 H 0.3001 1.1739 0.6266
Ni1D Ni 0.63067(2) 1.03923(2) 0.680567(16)
Ni1G Ni 0.13067(2) 1.46077(2) 0.319433(16)
Ni2B Ni 0.62817(2) 1.28070(2) 0.078514(15)
Ni2G Ni 0.12817(2) 1.28070(2) 0.421486(15)
O2B O 0.41993(13) 0.66481(14) 0.37951(9)
O3G O 0.32969(12) 0.84345(14) 0.28013(8)
O4G O 0.29015(13) 0.77186(14) 0.35915(9)
O6D O 0.41663(13) 1.07395(14) 0.36441(9)
N3G N 0.29959(15) 0.69092(17) 0.46686(11)
loop_
_geom_bond_atom_site_label_1
_geom_bond_atom_site_label_2
_geom_bond_site_symmetry_1
_geom_bond_site_symmetry_2
Ni1 O8 1_555 1_555
Ni2 O7 1_555 1_555
O1 C1 1_555 1_555
O2 C1 1_555 1_555
O3 C8 1_555 1_555
O4 C8 1_555 1_555
O5 C15 1_555 1_555
O6 C15 1_555 1_555
O7 C22 1_555 1_555
O8 C22 1_555 1_555
O9 Ni1 1_555 1_555
H1 O9 1_555 1_555
H2 O9 1_555 1_555
N1 Ni1 1_555 1_555
N2 Ni1 1_555 1_555
N3 C24 1_555 1_555
N4 Ni2 1_555 1_555
C1 C2 1_555 1_555
C2 C3 1_555 1_555
C3 N1 1_555 1_555
H3 C3 1_555 1_555
C4 N1 1_555 1_555
H4 C4 1_555 1_555
C5 C4 1_555 1_555
C6 C2 1_555 1_555
H5 C6 1_555 1_555
C7 C5 1_555 1_555
H6 C7 1_555 1_555
H7 C7 1_555 1_555
H8 C7 1_555 1_555
C8 C9 1_555 1_555
C9 C10 1_555 1_555
C10 N2 1_555 1_555
H9 C10 1_555 1_555
C11 N2 1_555 1_555
H10 C11 1_555 1_555
C12 C11 1_555 1_555
C13 C9 1_555 1_555
H11 C13 1_555 1_555
C14 C12 1_555 1_555
H12 C14 1_555 1_555
H13 C14 1_555 1_555
H14 C14 1_555 1_555
C15 C16 1_555 1_555
C16 C17 1_555 1_555
C17 H15 1_555 1_555
C18 C17 1_555 1_555
C19 N4 1_555 1_555
H16 C19 1_555 1_555
C20 N4 1_555 1_555
H17 C20 1_555 1_555
C21 C18 1_555 1_555
H18 C21 1_555 1_555
H19 C21 1_555 1_555
H20 C21 1_555 1_555
C22 C23 1_555 1_555
C23 C24 1_555 1_555
C24 H21 1_555 1_555
C25 N3 1_555 1_555
H22 C25 1_555 1_555
C26 C25 1_555 1_555
C27 C23 1_555 1_555
H23 C27 1_555 1_555
C28 C26 1_555 1_555
H24 C28 1_555 1_555
H25 C28 1_555 1_555
H26 C28 1_555 1_555
Ni1D O6 1_555 1_555
Ni1G O3 1_555 1_555
Ni2B O2 1_555 1_555
Ni2G O4 1_555 1_555
O2B Ni2 1_555 1_555
O3G Ni1 1_555 1_555
O4G Ni2 1_555 1_555
O6D Ni1 1_555 1_555
N3G Ni2 1_555 1_555
Ni2 O9 1_555 1_555
N3 Ni2G 1_555 1_555
C5 C6 1_555 1_555
C12 C13 1_555 1_555
C16 C20 1_555 1_555
C18 C19 1_555 1_555
C26 C27 1_555 1_555

#END
