
#######################################################################
#
#                 Cambridge Crystallographic Data Centre
#                                CCDC 
#
#######################################################################
#
# If this CIF has been generated from an entry in the Cambridge 
# Structural Database, then it will include bibliographic, chemical, 
# crystal, experimental, refinement or atomic coordinate data resulting 
# from the CCDC's data processing and validation procedures.
#
#######################################################################

data_SOBREI01
_symmetry_cell_setting           orthorhombic
_symmetry_space_group_name_H-M   'F d d 2'
_symmetry_Int_Tables_number      43
_space_group_name_Hall           'F 2 -2d'
loop_
_symmetry_equiv_pos_site_id
_symmetry_equiv_pos_as_xyz
1 x,y,z
2 -x,-y,z
3 1/4+x,1/4-y,1/4+z
4 1/4-x,1/4+y,1/4+z
5 x,1/2+y,1/2+z
6 -x,1/2-y,1/2+z
7 1/4+x,3/4-y,3/4+z
8 1/4-x,3/4+y,3/4+z
9 1/2+x,y,1/2+z
10 1/2-x,-y,1/2+z
11 3/4+x,1/4-y,3/4+z
12 3/4-x,1/4+y,3/4+z
13 1/2+x,1/2+y,z
14 1/2-x,1/2-y,z
15 3/4+x,3/4-y,1/4+z
16 3/4-x,3/4+y,1/4+z
_cell_length_a                   21.497(4)
_cell_length_b                   36.708(7)
_cell_length_c                   7.2655(14)
_cell_angle_alpha                90
_cell_angle_beta                 90
_cell_angle_gamma                90
_cell_volume                     5733.29
loop_
_atom_site_label
_atom_site_type_symbol
_atom_site_fract_x
_atom_site_fract_y
_atom_site_fract_z
Zn1 Zn 0.5000 0.0000 0.22430(11)
O1 O 0.42757(15) 0.01128(10) -0.0107(6)
O2 O 0.46048(14) 0.05136(8) 0.1878(5)
C1 C 0.05418(18) 0.03496(11) -0.9329(7)
H1 H 0.0126 0.0331 -0.8892
C2 C 0.09806(17) 0.04996(11) -0.8187(6)
H2 H 0.0868 0.0571 -0.6975
C3 C 0.12479(16) 0.02767(9) -1.1628(5)
H3 H 0.1347 0.0198 -1.2839
C4 C 0.17077(15) 0.04353(9) -1.0577(5)
H4 H 0.2111 0.0468 -1.1085
C5 C 0.15902(16) 0.05477(9) -0.8794(6)
C6 C 0.21104(16) 0.06877(9) -0.7586(6)
H5 H 0.2449 0.0775 -0.8420
C7 C 0.23766(18) 0.03776(10) -0.6450(6)
H6 H 0.2539 0.0187 -0.7287
H7 H 0.2040 0.0268 -0.5703
C8 C 0.28948(17) 0.05035(10) -0.5184(6)
H8 H 0.3024 0.0298 -0.4388
H9 H 0.3258 0.0577 -0.5934
C9 C 0.1939(2) 0.09996(10) -0.6343(6)
H10 H 0.1804 0.1209 -0.7104
H11 H 0.1584 0.0926 -0.5559
C10 C 0.2469(2) 0.11159(8) -0.5140(9)
H12 H 0.2810 0.1212 -0.5916
H13 H 0.2329 0.1314 -0.4313
C11 C 0.30643(14) 0.08896(8) -0.2479(5)
C12 C 0.29741(16) 0.12161(9) -0.1467(5)
H14 H 0.2679 0.1390 -0.1890
C13 C 0.33010(17) 0.12855(9) 0.0099(6)
H15 H 0.3229 0.1506 0.0745
C14 C 0.37372(18) 0.10408(10) 0.0772(6)
H16 H 0.3969 0.1095 0.1852
C15 C 0.35028(16) 0.06420(10) -0.1760(6)
H17 H 0.3576 0.0419 -0.2389
C16 C 0.38286(14) 0.07160(9) -0.0159(7)
C17 C 0.42781(19) 0.04252(15) 0.0552(7)
N1 N 0.06659(13) 0.02293(8) -1.1005(5)
N2 N 0.27048(13) 0.08098(8) -0.4027(4)
O1A O 0.57243(15) -0.01128(10) -0.0107(6)
O2A O 0.53952(14) -0.05136(8) 0.1878(5)
C1A C 0.94582(18) -0.03496(11) -0.9329(7)
H1A H 0.9874 -0.0331 -0.8892
C2A C 0.90194(17) -0.04996(11) -0.8187(6)
H2A H 0.9132 -0.0571 -0.6975
C3A C 0.87521(16) -0.02767(9) -1.1628(5)
H3A H 0.8653 -0.0198 -1.2839
C4A C 0.82923(15) -0.04353(9) -1.0577(5)
H4A H 0.7889 -0.0468 -1.1085
C5A C 0.84098(16) -0.05477(9) -0.8794(6)
C6A C 0.78896(16) -0.06877(9) -0.7586(6)
H5A H 0.7551 -0.0775 -0.8420
C7A C 0.76234(18) -0.03776(10) -0.6450(6)
H6A H 0.7461 -0.0187 -0.7287
H7A H 0.7960 -0.0268 -0.5703
C8A C 0.71052(17) -0.05035(10) -0.5184(6)
H8A H 0.6976 -0.0298 -0.4388
H9A H 0.6742 -0.0577 -0.5934
C9A C 0.8061(2) -0.09996(10) -0.6343(6)
H10A H 0.8196 -0.1209 -0.7104
H11A H 0.8416 -0.0926 -0.5559
C10A C 0.7531(2) -0.11159(8) -0.5140(9)
H12A H 0.7190 -0.1212 -0.5916
H13A H 0.7671 -0.1314 -0.4313
C11A C 0.69357(14) -0.08896(8) -0.2479(5)
C12A C 0.70259(16) -0.12161(9) -0.1467(5)
H14A H 0.7321 -0.1390 -0.1890
C13A C 0.66990(17) -0.12855(9) 0.0099(6)
H15A H 0.6771 -0.1506 0.0745
C14A C 0.62628(18) -0.10408(10) 0.0772(6)
H16A H 0.6031 -0.1095 0.1852
C15A C 0.64972(16) -0.06420(10) -0.1760(6)
H17A H 0.6424 -0.0419 -0.2389
C16A C 0.61714(14) -0.07160(9) -0.0159(7)
C17A C 0.57219(19) -0.04252(15) 0.0552(7)
N1A N 0.93341(13) -0.02293(8) -1.1005(5)
N2A N 0.72952(13) -0.08098(8) -0.4027(4)
Zn1H Zn 0.0000 0.0000 -1.27570(11)
Zn1H_2 Zn 1.0000 0.0000 -1.27570(11)
N1H N 0.56659(13) 0.02293(8) 0.3995(5)
N1I N 0.43341(13) -0.02293(8) 0.3995(5)
loop_
_geom_bond_atom_site_label_1
_geom_bond_atom_site_label_2
_geom_bond_site_symmetry_1
_geom_bond_site_symmetry_2
Zn1 O1 1_555 1_555
O1 C17 1_555 1_555
O2 Zn1 1_555 1_555
C1 H1 1_555 1_555
C2 C1 1_555 1_555
H2 C2 1_555 1_555
C3 H3 1_555 1_555
C4 C3 1_555 1_555
H4 C4 1_555 1_555
C5 C2 1_555 1_555
C6 C5 1_555 1_555
H5 C6 1_555 1_555
C7 C6 1_555 1_555
H6 C7 1_555 1_555
H7 C7 1_555 1_555
C8 C7 1_555 1_555
H8 C8 1_555 1_555
H9 C8 1_555 1_555
C9 C6 1_555 1_555
H10 C9 1_555 1_555
H11 C9 1_555 1_555
C10 C9 1_555 1_555
H12 C10 1_555 1_555
H13 C10 1_555 1_555
C11 C12 1_555 1_555
C12 H14 1_555 1_555
C13 C12 1_555 1_555
H15 C13 1_555 1_555
C14 C13 1_555 1_555
H16 C14 1_555 1_555
C15 C11 1_555 1_555
H17 C15 1_555 1_555
C16 C14 1_555 1_555
C17 O2 1_555 1_555
N1 C1 1_555 1_555
N2 C8 1_555 1_555
O1A Zn1 1_555 1_555
O2A Zn1 1_555 1_555
C1A H1A 1_555 1_555
C2A C1A 1_555 1_555
H2A C2A 1_555 1_555
C3A H3A 1_555 1_555
C4A C3A 1_555 1_555
H4A C4A 1_555 1_555
C5A C2A 1_555 1_555
C6A C5A 1_555 1_555
H5A C6A 1_555 1_555
C7A C6A 1_555 1_555
H6A C7A 1_555 1_555
H7A C7A 1_555 1_555
C8A C7A 1_555 1_555
H8A C8A 1_555 1_555
H9A C8A 1_555 1_555
C9A C6A 1_555 1_555
H10A C9A 1_555 1_555
H11A C9A 1_555 1_555
C10A C9A 1_555 1_555
H12A C10A 1_555 1_555
H13A C10A 1_555 1_555
C11A C12A 1_555 1_555
C12A H14A 1_555 1_555
C13A C12A 1_555 1_555
H15A C13A 1_555 1_555
C14A C13A 1_555 1_555
H16A C14A 1_555 1_555
C15A C11A 1_555 1_555
H17A C15A 1_555 1_555
C16A C14A 1_555 1_555
C17A O1A 1_555 1_555
N1A C1A 1_555 1_555
N2A C8A 1_555 1_555
Zn1H N1 1_555 1_555
Zn1H_2 N1A 1_555 1_555
N1H Zn1 1_555 1_555
N1I Zn1 1_555 1_555
C3 N1 1_555 1_555
C4 C5 1_555 1_555
C10 N2 1_555 1_555
C11 N2 1_555 1_555
C15 C16 1_555 1_555
C16 C17 1_555 1_555
O2A C17A 1_555 1_555
C3A N1A 1_555 1_555
C4A C5A 1_555 1_555
C10A N2A 1_555 1_555
C11A N2A 1_555 1_555
C15A C16A 1_555 1_555
C16A C17A 1_555 1_555

#END
