
#######################################################################
#
#                 Cambridge Crystallographic Data Centre
#                                CCDC 
#
#######################################################################
#
# If this CIF has been generated from an entry in the Cambridge 
# Structural Database, then it will include bibliographic, chemical, 
# crystal, experimental, refinement or atomic coordinate data resulting 
# from the CCDC's data processing and validation procedures.
#
#######################################################################

data_SOBVIP
_symmetry_cell_setting           monoclinic
_symmetry_space_group_name_H-M   'P 21/a'
_symmetry_Int_Tables_number      14
_space_group_name_Hall           '-P 2yab'
loop_
_symmetry_equiv_pos_site_id
_symmetry_equiv_pos_as_xyz
1 x,y,z
2 1/2-x,1/2+y,-z
3 -x,-y,-z
4 1/2+x,1/2-y,z
_cell_length_a                   8.0435(8)
_cell_length_b                   11.3910(10)
_cell_length_c                   15.6248(14)
_cell_angle_alpha                90
_cell_angle_beta                 98.099(5)
_cell_angle_gamma                90
_cell_volume                     1417.32
loop_
_atom_site_label
_atom_site_type_symbol
_atom_site_fract_x
_atom_site_fract_y
_atom_site_fract_z
Co1 Co 1.0000 0.0000 1.0000
O1 O 1.0520(6) -0.1368(5) 0.9172(3)
O2 O 1.6155(5) 0.1500(4) 1.0866(3)
O3 O 1.2400(5) 0.0753(4) 1.0106(3)
N1 N 0.9164(7) 0.1029(5) 0.8873(4)
C1 C 0.6967(11) 0.4509(7) 0.6919(5)
C2 C 1.5538(8) 0.0675(6) 1.0395(4)
C3 C 1.3823(8) 0.0319(5) 1.0046(4)
C4 C 0.5896(10) 0.6477(7) 0.6256(5)
C5 C 0.7542(9) 0.1277(6) 0.7491(5)
H1 H 0.6872 0.0935 0.7024
C6 C 0.9534(9) 0.2176(7) 0.8841(5)
H2 H 1.0258 0.2496 0.9298
C7 C 0.7869(9) 0.2452(7) 0.7467(5)
N2 N 0.5584(10) 0.8916(6) 0.6423(5)
C8 C 0.711(2) 0.3219(10) 0.6733(6)
C9 C 0.8161(9) 0.0589(6) 0.8174(5)
H3 H 0.7889 -0.0205 0.8161
C10 C 0.8906(10) 0.2904(7) 0.8175(5)
H4 H 0.9174 0.3699 0.8197
C11 C 0.5490(11) 0.6986(8) 0.6979(5)
H5 H 0.5292 0.6521 0.7443
C12 C 0.6172(11) 0.7224(7) 0.5607(6)
H6 H 0.6482 0.6929 0.5098
C13 C 0.6036(14) 0.5145(9) 0.6148(5)
C14 C 0.5991(12) 0.8412(9) 0.5709(7)
H7 H 0.6164 0.8897 0.5251
C15 C 0.5368(12) 0.8179(8) 0.7032(6)
H8 H 0.5108 0.8490 0.7548
H9 H 0.992(11) -0.220(7) 0.899(5)
H10 H 1.117(12) -0.157(8) 0.895(6)
H11 H 0.662(11) 0.515(8) 0.577(6)
H12 H 0.478(11) 0.498(7) 0.610(5)
H13 H 0.734(16) 0.310(10) 0.642(6)
H14 H 0.653(10) 0.468(7) 0.741(5)
Co1_2 Co 2.0000 0.0000 1.0000
O1B O 0.9480(6) 0.1368(5) 1.0828(3)
O2B O 1.3845(5) -0.1500(4) 0.9134(3)
O3B O 1.7600(5) -0.0753(4) 0.9894(3)
O3B_2 O 0.7600(5) -0.0753(4) 0.9894(3)
N1B N 1.0836(7) -0.1029(5) 1.1127(4)
C1B C 1.3033(11) -0.4509(7) 1.3081(5)
C2B C 1.4462(8) -0.0675(6) 0.9605(4)
C3B C 1.6177(8) -0.0319(5) 0.9954(4)
C4B C 1.4104(10) -0.6477(7) 1.3744(5)
C5B C 1.2458(9) -0.1277(6) 1.2509(5)
H1B H 1.3128 -0.0935 1.2976
C6B C 1.0466(9) -0.2176(7) 1.1159(5)
H2B H 0.9742 -0.2496 1.0702
C7B C 1.2131(9) -0.2452(7) 1.2533(5)
N2B N 1.4416(10) -0.8916(6) 1.3577(5)
C8B C 1.289(2) -0.3219(10) 1.3267(6)
C9B C 1.1839(9) -0.0589(6) 1.1826(5)
H3B H 1.2111 0.0205 1.1839
C10B C 1.1094(10) -0.2904(7) 1.1825(5)
H4B H 1.0826 -0.3699 1.1803
C11B C 1.4510(11) -0.6986(8) 1.3021(5)
H5B H 1.4708 -0.6521 1.2557
C12B C 1.3828(11) -0.7224(7) 1.4393(6)
H6B H 1.3518 -0.6929 1.4902
C13B C 1.3964(14) -0.5145(9) 1.3852(5)
C14B C 1.4009(12) -0.8412(9) 1.4291(7)
H7B H 1.3836 -0.8897 1.4749
C15B C 1.4632(12) -0.8179(8) 1.2968(6)
H8B H 1.4892 -0.8490 1.2452
H9B H 1.008(11) 0.220(7) 1.101(5)
H10B H 0.883(12) 0.157(8) 1.105(6)
H11B H 1.338(11) -0.515(8) 1.423(6)
H12B H 1.522(11) -0.498(7) 1.390(5)
H13B H 1.266(16) -0.310(10) 1.358(6)
H14B H 1.347(10) -0.468(7) 1.259(5)
loop_
_geom_bond_atom_site_label_1
_geom_bond_atom_site_label_2
_geom_bond_site_symmetry_1
_geom_bond_site_symmetry_2
Co1 O1 1_555 1_555
O1 H9 1_555 1_555
O2 C2 1_555 1_555
O3 Co1 1_555 1_555
N1 Co1 1_555 1_555
C1 C8 1_555 1_555
C2 C3 1_555 1_555
C3 O3 1_555 1_555
C4 C11 1_555 1_555
C5 H1 1_555 1_555
C6 N1 1_555 1_555
H2 C6 1_555 1_555
C7 C5 1_555 1_555
N2 C14 1_555 1_555
C8 C7 1_555 1_555
C9 N1 1_555 1_555
H3 C9 1_555 1_555
C10 C6 1_555 1_555
H4 C10 1_555 1_555
C11 H5 1_555 1_555
C12 C4 1_555 1_555
H6 C12 1_555 1_555
C13 C1 1_555 1_555
C14 C12 1_555 1_555
H7 C14 1_555 1_555
C15 N2 1_555 1_555
H8 C15 1_555 1_555
H10 O1 1_555 1_555
H11 C13 1_555 1_555
H12 C13 1_555 1_555
H13 C8 1_555 1_555
H14 C1 1_555 1_555
Co1_2 O3B 1_555 1_555
O1B Co1 1_555 1_555
O2B C2B 1_555 1_555
O3B C3B 1_555 1_555
O3B_2 Co1 1_555 1_555
N1B Co1 1_555 1_555
C1B C8B 1_555 1_555
C2B C3 1_555 1_555
C3B C2 1_555 1_555
C4B C11B 1_555 1_555
C5B H1B 1_555 1_555
C6B N1B 1_555 1_555
H2B C6B 1_555 1_555
C7B C5B 1_555 1_555
N2B C14B 1_555 1_555
C8B C7B 1_555 1_555
C9B N1B 1_555 1_555
H3B C9B 1_555 1_555
C10B C6B 1_555 1_555
H4B C10B 1_555 1_555
C11B H5B 1_555 1_555
C12B C4B 1_555 1_555
H6B C12B 1_555 1_555
C13B C1B 1_555 1_555
C14B C12B 1_555 1_555
H7B C14B 1_555 1_555
C15B N2B 1_555 1_555
H8B C15B 1_555 1_555
H9B O1B 1_555 1_555
H10B O1B 1_555 1_555
H11B C13B 1_555 1_555
H12B C13B 1_555 1_555
H13B C8B 1_555 1_555
H14B C1B 1_555 1_555
C4 C13 1_555 1_555
C5 C9 1_555 1_555
C7 C10 1_555 1_555
C11 C15 1_555 1_555
C2B C3B 1_555 1_555
C4B C13B 1_555 1_555
C5B C9B 1_555 1_555
C7B C10B 1_555 1_555
C11B C15B 1_555 1_555

#END
