
#######################################################################
#
#                 Cambridge Crystallographic Data Centre
#                                CCDC 
#
#######################################################################
#
# If this CIF has been generated from an entry in the Cambridge 
# Structural Database, then it will include bibliographic, chemical, 
# crystal, experimental, refinement or atomic coordinate data resulting 
# from the CCDC's data processing and validation procedures.
#
#######################################################################

data_SOBZEQ
_symmetry_cell_setting           monoclinic
_symmetry_space_group_name_H-M   'P 21/n'
_symmetry_Int_Tables_number      14
_space_group_name_Hall           '-P 2yn'
loop_
_symmetry_equiv_pos_site_id
_symmetry_equiv_pos_as_xyz
1 x,y,z
2 1/2-x,1/2+y,1/2-z
3 -x,-y,-z
4 1/2+x,1/2-y,1/2+z
_cell_length_a                   14.2767(4)
_cell_length_b                   13.9129(3)
_cell_length_c                   18.6230(5)
_cell_angle_alpha                90
_cell_angle_beta                 94.191(2)
_cell_angle_gamma                90
_cell_volume                     3689.2
loop_
_atom_site_label
_atom_site_type_symbol
_atom_site_fract_x
_atom_site_fract_y
_atom_site_fract_z
Cd1 Cd 0.502580(14) 0.543005(14) 0.226420(11)
Ca1 Ca 0.08458(4) 0.79805(4) 0.87205(3)
C1 C 0.3017(2) 0.7040(2) 0.33047(16)
C2 C 0.2376(2) 0.7683(2) 0.29802(16)
H1 H 0.2365 0.7803 0.2488
C3 C 0.1751(2) 0.8143(2) 0.34000(16)
C4 C 0.1732(2) 0.7908(2) 0.41222(17)
H2 H 0.1290 0.8200 0.4393
C5 C 0.2354(2) 0.7248(2) 0.44532(16)
C6 C 0.3014(2) 0.6836(2) 0.40320(16)
H3 H 0.3459 0.6415 0.4243
C7 C 0.2329(2) 0.7010(2) 0.52343(16)
C8 C 0.2828(2) 0.6226(2) 0.55409(16)
H4 H 0.3151 0.5820 0.5248
C9 C 0.2849(2) 0.6046(2) 0.62735(16)
C10 C 0.2349(2) 0.6627(2) 0.67125(16)
H5 H 0.2362 0.6508 0.7204
C11 C 0.1829(2) 0.7388(2) 0.64152(16)
C12 C 0.1833(2) 0.7569(2) 0.56848(16)
H6 H 0.1488 0.8086 0.5491
C13 C 0.3728(2) 0.6562(2) 0.28704(16)
C14 C 0.1115(2) 0.8927(2) 0.30919(17)
C15 C 0.3463(2) 0.5244(2) 0.65947(17)
C16 C 0.1271(2) 0.8025(2) 0.68741(16)
C17 C 0.2933(5) 0.6916(4) 0.9382(5)
C18 C 0.3640(4) 0.6703(7) 0.8769(4)
H7 H 0.4186 0.6377 0.8978
H8 H 0.3823 0.7298 0.8560
H9 H 0.3332 0.6305 0.8402
C19 C 0.4123(5) 0.6107(7) 1.0138(5)
H10 H 0.4526 0.6006 0.9754
H11 H 0.3957 0.5498 1.0335
H12 H 0.4445 0.6489 1.0508
C20 C 0.2544(6) 0.6832(8) 1.0531(3)
H13 H 0.2020 0.7199 1.0328
H14 H 0.2870 0.7192 1.0912
H15 H 0.2322 0.6239 1.0720
C21 C -0.0523(3) 0.5947(3) 0.8357(4)
C22 C -0.0989(4) 0.5462(3) 0.9027(4)
H16 H -0.0725 0.5742 0.9467
H17 H -0.0867 0.4783 0.9030
H18 H -0.1655 0.5570 0.8984
C23 C -0.0436(5) 0.6113(4) 0.7143(3)
H19 H 0.0025 0.6577 0.7316
H20 H -0.0931 0.6432 0.6859
H21 H -0.0146 0.5645 0.6852
C24 C -0.1555(4) 0.4879(4) 0.7640(4)
H22 H -0.1727 0.4630 0.8093
H23 H -0.1313 0.4368 0.7362
H24 H -0.2098 0.5153 0.7383
O1 O 0.44785(14) 0.62474(14) 0.32118(11)
O2 O 0.02729(19) 0.8077(2) 0.98743(13)
H25 H -0.0163 0.8520 0.9965
H26 H 0.0491 0.7672 1.0225
O3 O 0.35836(17) 0.64669(17) 0.22084(12)
O4 O 0.11098(17) 0.91236(17) 0.24362(12)
O5 O 0.06242(17) 0.93607(16) 0.35190(13)
O6 O 0.07936(17) 0.86689(16) 0.65469(12)
O7 O 0.13009(17) 0.78934(16) 0.75380(12)
O8 O 0.37391(17) 0.53466(16) 0.72435(12)
O9 O 0.36592(19) 0.45658(15) 0.62011(13)
O10 O 0.2191(2) 0.7321(2) 0.92178(16)
O11 O 0.0061(2) 0.65677(18) 0.84864(17)
N1 N 0.3302(4) 0.6589(4) 0.9869(4)
N2 N -0.0832(3) 0.5623(3) 0.7769(4)
Cd1A Cd -0.002580(14) 1.043005(14) 0.273580(11)
Cd1B Cd 0.497420(14) 0.456995(14) 0.773580(11)
Cd1C Cd 0.002580(14) 0.956995(14) 0.726420(11)
Ca1A Ca 0.41542(4) 0.29805(4) 0.62795(3)
Ca1C Ca 0.58458(4) 0.70195(4) 0.37205(3)
O1C O -0.05215(14) 0.87526(14) 0.82118(11)
O4A O 0.38902(17) 0.41236(17) 0.25638(12)
O5A O 0.43758(17) 0.43607(16) 0.14810(13)
O6C O 0.57936(17) 0.63311(16) 0.15469(12)
O8B O 0.62609(17) 0.46534(16) 0.27565(12)
O9A O 0.13408(19) 0.95658(15) 0.87989(13)
C25 C 0.4317(4) 0.8409(4) 0.6322(4)
C26 C 0.4813(4) 0.7721(4) 0.6869(4)
H27 H 0.4619 0.7858 0.7340
H28 H 0.5481 0.7804 0.6867
H29 H 0.4652 0.7070 0.6741
C27 C 0.3559(5) 0.9135(5) 0.7316(4)
H30 H 0.3929 0.8689 0.7610
H31 H 0.2905 0.9011 0.7360
H32 H 0.3705 0.9779 0.7472
C28 C 0.3255(5) 0.9680(4) 0.6010(4)
H33 H 0.3462 0.9558 0.5540
H34 H 0.3382 1.0338 0.6140
H35 H 0.2592 0.9561 0.6007
O12 O 0.4466(3) 0.8343(3) 0.5664(2)
N3 N 0.3775(4) 0.9022(4) 0.6554(3)
loop_
_geom_bond_atom_site_label_1
_geom_bond_atom_site_label_2
_geom_bond_site_symmetry_1
_geom_bond_site_symmetry_2
Cd1 O1 1_555 1_555
Ca1 O2 1_555 1_555
C1 C2 1_555 1_555
C2 H1 1_555 1_555
C3 C2 1_555 1_555
C4 C3 1_555 1_555
H2 C4 1_555 1_555
C5 C4 1_555 1_555
C6 C1 1_555 1_555
H3 C6 1_555 1_555
C7 C5 1_555 1_555
C8 C7 1_555 1_555
H4 C8 1_555 1_555
C9 C8 1_555 1_555
C10 C9 1_555 1_555
H5 C10 1_555 1_555
C11 C10 1_555 1_555
C12 C7 1_555 1_555
H6 C12 1_555 1_555
C13 C1 1_555 1_555
C14 C3 1_555 1_555
C15 C9 1_555 1_555
C16 C11 1_555 1_555
C17 C18 1_555 1_555
C18 H7 1_555 1_555
H8 C18 1_555 1_555
H9 C18 1_555 1_555
C19 H10 1_555 1_555
H11 C19 1_555 1_555
H12 C19 1_555 1_555
C20 H13 1_555 1_555
H14 C20 1_555 1_555
H15 C20 1_555 1_555
C21 C22 1_555 1_555
C22 H16 1_555 1_555
H17 C22 1_555 1_555
H18 C22 1_555 1_555
C23 H19 1_555 1_555
H20 C23 1_555 1_555
H21 C23 1_555 1_555
C24 H22 1_555 1_555
H23 C24 1_555 1_555
H24 C24 1_555 1_555
O1 C13 1_555 1_555
O2 H25 1_555 1_555
H26 O2 1_555 1_555
O3 Cd1 1_555 1_555
O4 C14 1_555 1_555
O5 C14 1_555 1_555
O6 C16 1_555 1_555
O7 Ca1 1_555 1_555
O8 C15 1_555 1_555
O9 C15 1_555 1_555
O10 Ca1 1_555 1_555
O11 Ca1 1_555 1_555
N1 C17 1_555 1_555
N2 C21 1_555 1_555
C25 C26 1_555 1_555
C26 H27 1_555 1_555
H28 C26 1_555 1_555
H29 C26 1_555 1_555
C27 H30 1_555 1_555
H31 C27 1_555 1_555
H32 C27 1_555 1_555
C28 H33 1_555 1_555
H34 C28 1_555 1_555
H35 C28 1_555 1_555
O12 C25 1_555 1_555
N3 C25 1_555 1_555
Cd1A O4 1_555 1_555
Cd1B O8 1_555 1_555
Cd1C O6 1_555 1_555
Ca1A O9 1_555 1_555
Ca1C O1 1_555 1_555
O1C Ca1 1_555 1_555
O4A Cd1 1_555 1_555
O5A Cd1 1_555 1_555
O6C Cd1 1_555 1_555
O8B Cd1 1_555 1_555
O9A Ca1 1_555 1_555
C5 C6 1_555 1_555
C11 C12 1_555 1_555
C13 O3 1_555 1_555
C16 O7 1_555 1_555
C17 O10 1_555 1_555
C19 N1 1_555 1_555
C20 N1 1_555 1_555
C21 O11 1_555 1_555
C23 N2 1_555 1_555
C24 N2 1_555 1_555
O5 Cd1A 1_555 1_555
C27 N3 1_555 1_555
C28 N3 1_555 1_555
Cd1C O1C 1_555 1_555

#END
