
#######################################################################
#
#                 Cambridge Crystallographic Data Centre
#                                CCDC 
#
#######################################################################
#
# If this CIF has been generated from an entry in the Cambridge 
# Structural Database, then it will include bibliographic, chemical, 
# crystal, experimental, refinement or atomic coordinate data resulting 
# from the CCDC's data processing and validation procedures.
#
#######################################################################

data_SOCCUK
_symmetry_cell_setting           monoclinic
_symmetry_space_group_name_H-M   'P 21/n'
_symmetry_Int_Tables_number      14
_space_group_name_Hall           '-P 2yn'
loop_
_symmetry_equiv_pos_site_id
_symmetry_equiv_pos_as_xyz
1 x,y,z
2 1/2-x,1/2+y,1/2-z
3 -x,-y,-z
4 1/2+x,1/2-y,1/2+z
_cell_length_a                   13.9448(7)
_cell_length_b                   5.4968(3)
_cell_length_c                   19.9779(9)
_cell_angle_alpha                90
_cell_angle_beta                 96.892(3)
_cell_angle_gamma                90
_cell_volume                     1520.28
loop_
_atom_site_label
_atom_site_type_symbol
_atom_site_fract_x
_atom_site_fract_y
_atom_site_fract_z
Ag1 Ag 0.985903(15) 0.57185(4) 0.100034(10)
Ag2 Ag 1.0000 1.0000 0.0000
Ag3 Ag 0.5000 2.0000 0.0000
O1 O 0.85980(13) 0.7657(4) 0.11438(10)
O2 O 0.87530(13) 1.0967(4) 0.05104(9)
O3 O 0.59609(13) 1.6824(4) 0.02380(9)
O4 O 0.49303(14) 1.6730(4) 0.09958(10)
O5 O 0.50529(16) 1.0168(4) 0.26180(11)
O6 O 0.61409(17) 0.7412(5) 0.26578(12)
N1 N 1.10963(16) 0.3732(4) 0.08415(10)
N2 N 1.25622(17) 0.3170(5) 0.05518(12)
N3 N 0.57731(17) 0.9280(5) 0.24253(11)
C1 C 1.1760(2) 0.4498(5) 0.04683(14)
H1 H 1.1674 0.5826 0.0179
C2 C 1.15104(18) 0.1730(5) 0.12025(12)
C3 C 1.1154(2) 0.0237(5) 0.16739(13)
H2 H 1.0539 0.0456 0.1800
C4 C 1.1761(2) -0.1605(6) 0.19486(14)
H3 H 1.1551 -0.2634 0.2271
C5 C 1.2675(2) -0.1942(6) 0.17526(15)
H4 H 1.3055 -0.3211 0.1944
C6 C 1.3040(2) -0.0474(6) 0.12872(15)
H5 H 1.3655 -0.0706 0.1162
C7 C 1.24372(19) 0.1371(5) 0.10157(13)
C8 C 0.74297(18) 1.0719(5) 0.11507(12)
C9 C 0.69693(18) 1.2759(5) 0.08495(12)
H6 H 0.7231 1.3525 0.0498
C10 C 0.61316(18) 1.3671(5) 0.10614(12)
C11 C 0.57415(18) 1.2549(5) 0.15906(12)
H7 H 0.5184 1.3146 0.1745
C12 C 0.62057(19) 1.0521(5) 0.18793(12)
C13 C 0.70377(18) 0.9577(5) 0.16754(12)
H8 H 0.7330 0.8208 0.1884
C14 C 0.83355(19) 0.9706(5) 0.09157(12)
C15 C 0.56247(19) 1.5908(5) 0.07465(13)
H9 H 1.304(2) 0.336(6) 0.0341(15)
Ag1B Ag 0.014097(15) 3.42815(4) -0.100034(10)
O1B O 0.14020(13) 3.2343(4) -0.11438(10)
O2B O 0.12470(13) 2.9033(4) -0.05104(9)
O3B O 0.40391(13) 2.3176(4) -0.02380(9)
O4B O 0.50697(14) 2.3270(4) -0.09958(10)
O5B O 0.49471(16) 2.9832(4) -0.26180(11)
O6B O 0.38591(17) 3.2588(5) -0.26578(12)
N1B N -0.10963(16) 3.6268(4) -0.08415(10)
N2B N -0.25622(17) 3.6830(5) -0.05518(12)
N3B N 0.42269(17) 3.0720(5) -0.24253(11)
C1B C -0.1760(2) 3.5502(5) -0.04683(14)
H1B H -0.1674 3.4174 -0.0179
C2B C -0.15104(18) 3.8270(5) -0.12025(12)
C3B C -0.1154(2) 3.9763(5) -0.16739(13)
H2B H -0.0539 3.9544 -0.1800
C4B C -0.1761(2) 4.1605(6) -0.19486(14)
H3B H -0.1551 4.2634 -0.2271
C5B C -0.2675(2) 4.1942(6) -0.17526(15)
H4B H -0.3055 4.3211 -0.1944
C6B C -0.3040(2) 4.0474(6) -0.12872(15)
H5B H -0.3655 4.0706 -0.1162
C7B C -0.24372(19) 3.8629(5) -0.10157(13)
C8B C 0.25703(18) 2.9281(5) -0.11507(12)
C9B C 0.30307(18) 2.7241(5) -0.08495(12)
H6B H 0.2769 2.6475 -0.0498
C10B C 0.38684(18) 2.6329(5) -0.10614(12)
C11B C 0.42585(18) 2.7451(5) -0.15906(12)
H7B H 0.4816 2.6854 -0.1745
C12B C 0.37943(19) 2.9479(5) -0.18793(12)
C13B C 0.29623(18) 3.0423(5) -0.16754(12)
H8B H 0.2670 3.1792 -0.1884
C14B C 0.16645(19) 3.0294(5) -0.09157(12)
C15B C 0.43753(19) 2.4092(5) -0.07465(13)
H9B H -0.304(2) 3.664(6) -0.0341(15)
Ag1B_2 Ag 1.014097(15) 1.42815(4) -0.100034(10)
Ag2_2 Ag 0.0000 3.0000 0.0000
O2B_2 O 1.12470(13) 0.9033(4) -0.05104(9)
loop_
_geom_bond_atom_site_label_1
_geom_bond_atom_site_label_2
_geom_bond_site_symmetry_1
_geom_bond_site_symmetry_2
Ag1 Ag2 1_555 1_555
Ag2 O2 1_555 1_555
Ag3 O3 1_555 1_555
O1 Ag1 1_555 1_555
O2 C14 1_555 1_555
O3 C15 1_555 1_555
O4 Ag3 1_555 1_555
O5 N3 1_555 1_555
O6 N3 1_555 1_555
N1 Ag1 1_555 1_555
N2 C1 1_555 1_555
N3 C12 1_555 1_555
C1 N1 1_555 1_555
H1 C1 1_555 1_555
C2 N1 1_555 1_555
C3 C2 1_555 1_555
H2 C3 1_555 1_555
C4 C3 1_555 1_555
H3 C4 1_555 1_555
C5 C4 1_555 1_555
H4 C5 1_555 1_555
C6 C5 1_555 1_555
H5 C6 1_555 1_555
C7 N2 1_555 1_555
C8 C9 1_555 1_555
C9 H6 1_555 1_555
C10 C9 1_555 1_555
C11 C10 1_555 1_555
H7 C11 1_555 1_555
C12 C11 1_555 1_555
C13 C8 1_555 1_555
H8 C13 1_555 1_555
C14 O1 1_555 1_555
C15 O4 1_555 1_555
H9 N2 1_555 1_555
Ag1B O1B 1_555 1_555
O1B C14B 1_555 1_555
O2B C14B 1_555 1_555
O3B Ag3 1_555 1_555
O4B Ag3 1_555 1_555
O5B N3B 1_555 1_555
O6B N3B 1_555 1_555
N1B Ag1B 1_555 1_555
N2B C1B 1_555 1_555
N3B C12B 1_555 1_555
C1B N1B 1_555 1_555
H1B C1B 1_555 1_555
C2B N1B 1_555 1_555
C3B C2B 1_555 1_555
H2B C3B 1_555 1_555
C4B C3B 1_555 1_555
H3B C4B 1_555 1_555
C5B C4B 1_555 1_555
H4B C5B 1_555 1_555
C6B C5B 1_555 1_555
H5B C6B 1_555 1_555
C7B N2B 1_555 1_555
C8B C9B 1_555 1_555
C9B H6B 1_555 1_555
C10B C9B 1_555 1_555
C11B C10B 1_555 1_555
H7B C11B 1_555 1_555
C12B C11B 1_555 1_555
C13B C8B 1_555 1_555
H8B C13B 1_555 1_555
C14B C8B 1_555 1_555
C15B O3B 1_555 1_555
H9B N2B 1_555 1_555
Ag1B_2 Ag2 1_555 1_555
Ag2_2 Ag1B 1_555 1_555
O2B_2 Ag2 1_555 1_555
C2 C7 1_555 1_555
C6 C7 1_555 1_555
C8 C14 1_555 1_555
C10 C15 1_555 1_555
C12 C13 1_555 1_555
O2B Ag2_2 1_555 1_555
O4B C15B 1_555 1_555
C2B C7B 1_555 1_555
C6B C7B 1_555 1_555
C10B C15B 1_555 1_555
C12B C13B 1_555 1_555

#END
