
#######################################################################
#
#                 Cambridge Crystallographic Data Centre
#                                CCDC 
#
#######################################################################
#
# If this CIF has been generated from an entry in the Cambridge 
# Structural Database, then it will include bibliographic, chemical, 
# crystal, experimental, refinement or atomic coordinate data resulting 
# from the CCDC's data processing and validation procedures.
#
#######################################################################

data_SOCCET
_symmetry_cell_setting           monoclinic
_symmetry_space_group_name_H-M   'P 21/c'
_symmetry_Int_Tables_number      14
_space_group_name_Hall           '-P 2ybc'
loop_
_symmetry_equiv_pos_site_id
_symmetry_equiv_pos_as_xyz
1 x,y,z
2 -x,1/2+y,1/2-z
3 -x,-y,-z
4 x,1/2-y,1/2+z
_cell_length_a                   11.221(2)
_cell_length_b                   6.6610(13)
_cell_length_c                   7.2330(14)
_cell_angle_alpha                90
_cell_angle_beta                 94.82(3)
_cell_angle_gamma                90
_cell_volume                     538.705
loop_
_atom_site_label
_atom_site_type_symbol
_atom_site_fract_x
_atom_site_fract_y
_atom_site_fract_z
Cu1 Cu 0.0000 0.0000 0.0000
Cl1 Cl 0.07899(8) -0.22276(12) -0.19576(12)
N1 N 0.1552(3) 0.1414(4) 0.0383(4)
N2 N 0.2582(3) 0.0454(5) 0.0954(5)
N3 N 0.3412(3) 0.1759(5) 0.1366(4)
N4 N 0.2917(3) 0.3588(5) 0.1054(4)
C1 C 0.1778(3) 0.3357(5) 0.0447(5)
H1 H 0.1224 0.4402 0.0117
C2 C 0.3620(3) 0.5429(6) 0.1428(5)
H2 H 0.4048 0.5332 0.2679
H3 H 0.3067 0.6588 0.1431
C3 C 0.4519(3) 0.5806(5) 0.0023(5)
H4 H 0.4912 0.7115 0.0302
H5 H 0.4087 0.5905 -0.1225
Cu1C Cu 0.0000 -0.5000 -0.5000
Cu1_2 Cu 1.0000 1.0000 0.0000
Cu1C_2 Cu 0.0000 -0.5000 0.5000
Cl1C Cl 0.07899(8) -0.27724(12) 0.30424(12)
Cl1B Cl -0.07899(8) 0.22276(12) 0.19576(12)
Cl1A Cl -0.07899(8) 0.27724(12) -0.30424(12)
N1B N 0.8448(3) 0.8586(4) -0.0383(4)
N1B_2 N -0.1552(3) -0.1414(4) -0.0383(4)
N2B N 0.7418(3) 0.9546(5) -0.0954(5)
N3B N 0.6588(3) 0.8241(5) -0.1366(4)
N4B N 0.7083(3) 0.6412(5) -0.1054(4)
C1B C 0.8222(3) 0.6643(5) -0.0447(5)
H1B H 0.8776 0.5598 -0.0117
C2B C 0.6380(3) 0.4571(6) -0.1428(5)
H2B H 0.5952 0.4668 -0.2679
H3B H 0.6933 0.3412 -0.1431
C3B C 0.5481(3) 0.4194(5) -0.0023(5)
H4B H 0.5088 0.2885 -0.0302
H5B H 0.5913 0.4095 0.1225
loop_
_geom_bond_atom_site_label_1
_geom_bond_atom_site_label_2
_geom_bond_site_symmetry_1
_geom_bond_site_symmetry_2
Cu1 Cl1 1_555 1_555
Cl1 Cu1C 1_555 1_555
N1 Cu1 1_555 1_555
N2 N1 1_555 1_555
N3 N2 1_555 1_555
N4 N3 1_555 1_555
C1 N1 1_555 1_555
H1 C1 1_555 1_555
C2 N4 1_555 1_555
H2 C2 1_555 1_555
H3 C2 1_555 1_555
C3 C2 1_555 1_555
H4 C3 1_555 1_555
H5 C3 1_555 1_555
Cu1_2 N1B 1_555 1_555
Cu1C_2 Cl1C 1_555 1_555
Cl1C Cu1 1_555 1_555
Cl1B Cu1 1_555 1_555
Cl1A Cu1 1_555 1_555
N1B N2B 1_555 1_555
N1B_2 Cu1 1_555 1_555
N2B N3B 1_555 1_555
N3B N4B 1_555 1_555
N4B C1B 1_555 1_555
C1B N1B 1_555 1_555
H1B C1B 1_555 1_555
C2B N4B 1_555 1_555
H2B C2B 1_555 1_555
H3B C2B 1_555 1_555
C3B C3 1_555 1_555
H4B C3B 1_555 1_555
H5B C3B 1_555 1_555
N4 C1 1_555 1_555
C2B C3B 1_555 1_555

#END
