
#######################################################################
#
#                 Cambridge Crystallographic Data Centre
#                                CCDC 
#
#######################################################################
#
# If this CIF has been generated from an entry in the Cambridge 
# Structural Database, then it will include bibliographic, chemical, 
# crystal, experimental, refinement or atomic coordinate data resulting 
# from the CCDC's data processing and validation procedures.
#
#######################################################################

data_SOCDAQ
_symmetry_cell_setting           triclinic
_symmetry_space_group_name_H-M   'P -1'
_symmetry_Int_Tables_number      2
_space_group_name_Hall           '-P 1'
loop_
_symmetry_equiv_pos_site_id
_symmetry_equiv_pos_as_xyz
1 x,y,z
2 -x,-y,-z
_cell_length_a                   6.5042(6)
_cell_length_b                   9.1377(8)
_cell_length_c                   10.942(1)
_cell_angle_alpha                66.835(1)
_cell_angle_beta                 82.531(1)
_cell_angle_gamma                78.526(1)
_cell_volume                     584.973
loop_
_atom_site_label
_atom_site_type_symbol
_atom_site_fract_x
_atom_site_fract_y
_atom_site_fract_z
Ni1 Ni 0.0000 1.0000 0.0000
S1 S -0.44209(5) 1.31594(4) -0.35282(3)
C1 C 0.40337(19) 0.89941(15) -0.14697(12)
H1 H 0.480(2) 0.860(2) -0.0737(16)
C2 C 1.0415(2) 0.34896(15) -0.19298(12)
H2 H 0.973(3) 0.340(2) -0.2605(19)
C3 C 0.69581(18) 0.86977(15) -0.31681(12)
H3 H 0.719(3) 0.961(2) -0.3970(17)
H4 H 0.782(3) 0.860(2) -0.2478(16)
C4 C 0.72516(19) 0.71700(15) -0.34595(12)
H5 H 0.628(3) 0.734(2) -0.4094(18)
H6 H 0.693(3) 0.628(2) -0.2633(18)
C5 C 0.9465(2) 0.68077(15) -0.40481(12)
H7 H 0.951(3) 0.598(2) -0.4394(17)
H8 H 0.982(3) 0.770(2) -0.4806(18)
C6 C 1.12298(19) 0.63392(15) -0.31127(13)
H9 H 1.117(3) 0.712(2) -0.2732(16)
H10 H 1.259(3) 0.620(2) -0.3566(18)
C7 C -0.33004(18) 1.18529(14) -0.21821(12)
N1 N 0.20008(16) 0.95615(12) -0.15195(10)
N2 N 0.15273(16) 1.00235(13) -0.28087(10)
N3 N 0.32092(16) 0.97449(13) -0.35155(10)
N4 N 0.47910(15) 0.90978(12) -0.26845(10)
N5 N 1.11163(16) 0.47883(13) -0.19974(11)
N6 N 1.1953(2) 0.44530(14) -0.08384(12)
N7 N 1.1730(2) 0.29828(14) -0.00877(12)
N8 N 1.07629(16) 0.23465(12) -0.07441(10)
N9 N -0.24624(16) 1.09339(13) -0.12349(10)
Ni1_2 Ni 1.0000 0.0000 0.0000
Ni1_3 Ni -1.0000 2.0000 0.0000
S1A S 0.44209(5) 0.68406(4) 0.35282(3)
C1A C -0.40337(19) 1.10059(15) 0.14697(12)
H1A H -0.480(2) 1.140(2) 0.0737(16)
C2A C -1.0415(2) 1.65104(15) 0.19298(12)
H2A H -0.973(3) 1.660(2) 0.2605(19)
C3A C -0.69581(18) 1.13023(15) 0.31681(12)
H3A H -0.719(3) 1.039(2) 0.3970(17)
H4A H -0.782(3) 1.140(2) 0.2478(16)
C4A C -0.72516(19) 1.28300(15) 0.34595(12)
H5A H -0.628(3) 1.266(2) 0.4094(18)
H6A H -0.693(3) 1.372(2) 0.2633(18)
C5A C -0.9465(2) 1.31923(15) 0.40481(12)
H7A H -0.951(3) 1.402(2) 0.4394(17)
H8A H -0.982(3) 1.230(2) 0.4806(18)
C6A C -1.12298(19) 1.36608(15) 0.31127(13)
H9A H -1.117(3) 1.288(2) 0.2732(16)
H10A H -1.259(3) 1.380(2) 0.3566(18)
C7A C 0.33004(18) 0.81471(14) 0.21821(12)
N1A N -0.20008(16) 1.04385(12) 0.15195(10)
N2A N -0.15273(16) 0.99765(13) 0.28087(10)
N3A N -0.32092(16) 1.02551(13) 0.35155(10)
N4A N -0.47910(15) 1.09022(12) 0.26845(10)
N5A N -1.11163(16) 1.52117(13) 0.19974(11)
N6A N -1.1953(2) 1.55470(14) 0.08384(12)
N7A N -1.1730(2) 1.70172(14) 0.00877(12)
N8A N -1.07629(16) 1.76535(12) 0.07441(10)
N8_2 N 0.07629(16) 1.23465(12) -0.07441(10)
N8A_2 N -0.07629(16) 0.76535(12) 0.07441(10)
N9A N 0.24624(16) 0.90661(13) 0.12349(10)
loop_
_geom_bond_atom_site_label_1
_geom_bond_atom_site_label_2
_geom_bond_site_symmetry_1
_geom_bond_site_symmetry_2
Ni1 N1 1_555 1_555
S1 C7 1_555 1_555
C1 H1 1_555 1_555
C2 H2 1_555 1_555
C3 H3 1_555 1_555
H4 C3 1_555 1_555
C4 C3 1_555 1_555
H5 C4 1_555 1_555
H6 C4 1_555 1_555
C5 C4 1_555 1_555
H7 C5 1_555 1_555
H8 C5 1_555 1_555
C6 C5 1_555 1_555
H9 C6 1_555 1_555
H10 C6 1_555 1_555
C7 N9 1_555 1_555
N1 C1 1_555 1_555
N2 N1 1_555 1_555
N3 N2 1_555 1_555
N4 C1 1_555 1_555
N5 C2 1_555 1_555
N6 N5 1_555 1_555
N7 N6 1_555 1_555
N8 C2 1_555 1_555
N9 Ni1 1_555 1_555
Ni1_2 N8 1_555 1_555
Ni1_3 N8A 1_555 1_555
S1A C7A 1_555 1_555
C1A H1A 1_555 1_555
C2A H2A 1_555 1_555
C3A H3A 1_555 1_555
H4A C3A 1_555 1_555
C4A C3A 1_555 1_555
H5A C4A 1_555 1_555
H6A C4A 1_555 1_555
C5A C4A 1_555 1_555
H7A C5A 1_555 1_555
H8A C5A 1_555 1_555
C6A C5A 1_555 1_555
H9A C6A 1_555 1_555
H10A C6A 1_555 1_555
C7A N9A 1_555 1_555
N1A Ni1 1_555 1_555
N2A N1A 1_555 1_555
N3A N2A 1_555 1_555
N4A C1A 1_555 1_555
N5A C2A 1_555 1_555
N6A N5A 1_555 1_555
N7A N6A 1_555 1_555
N8A C2A 1_555 1_555
N8_2 Ni1 1_555 1_555
N8A_2 Ni1 1_555 1_555
N9A Ni1 1_555 1_555
C3 N4 1_555 1_555
C6 N5 1_555 1_555
N3 N4 1_555 1_555
N7 N8 1_555 1_555
C1A N1A 1_555 1_555
C3A N4A 1_555 1_555
C6A N5A 1_555 1_555
N3A N4A 1_555 1_555
N7A N8A 1_555 1_555

#END
