
#######################################################################
#
#                 Cambridge Crystallographic Data Centre
#                                CCDC 
#
#######################################################################
#
# If this CIF has been generated from an entry in the Cambridge 
# Structural Database, then it will include bibliographic, chemical, 
# crystal, experimental, refinement or atomic coordinate data resulting 
# from the CCDC's data processing and validation procedures.
#
#######################################################################

data_SOCJUR
_symmetry_cell_setting           monoclinic
_symmetry_space_group_name_H-M   'P 21/n'
_symmetry_Int_Tables_number      14
_space_group_name_Hall           '-P 2yn'
loop_
_symmetry_equiv_pos_site_id
_symmetry_equiv_pos_as_xyz
1 x,y,z
2 1/2-x,1/2+y,1/2-z
3 -x,-y,-z
4 1/2+x,1/2-y,1/2+z
_cell_length_a                   14.9929(11)
_cell_length_b                   8.4425(6)
_cell_length_c                   19.9004(13)
_cell_angle_alpha                90
_cell_angle_beta                 109.3370(10)
_cell_angle_gamma                90
_cell_volume                     2376.84
loop_
_atom_site_label
_atom_site_type_symbol
_atom_site_fract_x
_atom_site_fract_y
_atom_site_fract_z
O1 O -0.35037(16) 0.2609(3) 0.16006(11)
O2 O -0.29608(17) 0.6236(3) -0.14261(11)
O3 O -0.15338(17) 0.5185(3) -0.10904(12)
C1 C -0.2297(2) 0.5462(4) -0.09905(16)
C2 C -0.2453(2) 0.4901(4) -0.03172(15)
C3 C -0.1736(2) 0.4111(4) 0.02042(16)
H1 H -0.1177 0.3872 0.0120
C4 C -0.3294(2) 0.5222(4) -0.02017(15)
H2 H -0.3778 0.5744 -0.0549
C5 C -0.3419(2) 0.4767(4) 0.04307(16)
H3 H -0.3993 0.4960 0.0500
C6 C -0.2692(2) 0.4025(4) 0.09630(15)
C7 C -0.2883(2) 0.3634(4) 0.16464(16)
O4 O -0.24328(16) 0.4327(3) 0.22123(11)
O5 O 0.28586(16) 0.7282(3) 0.65312(11)
O6 O 0.43091(15) 0.7879(3) 0.66185(12)
C8 C 0.3525(2) 0.7255(4) 0.62835(15)
C9 C 0.3351(2) 0.6509(4) 0.55718(15)
C10 C 0.4008(2) 0.6503(4) 0.52212(16)
H4 H 0.4610 0.6913 0.5441
Cd1 Cd 0.223725(15) 0.29900(3) 0.219641(11)
Cd2 Cd -0.136147(16) 0.62684(3) 0.247625(11)
O7 O 0.28443(15) 0.5260(2) 0.30006(10)
C11 C 0.2641(2) 0.4505(4) 0.34784(15)
C12 C 0.1212(2) 0.4685(3) 0.42325(15)
C13 C -0.1055(2) 0.2834(4) 0.14055(16)
N1 N -0.02771(17) 0.4825(3) 0.32902(13)
C14 C 0.2459(2) 0.5873(4) 0.52370(15)
H5 H 0.2021 0.5873 0.5476
N2 N 0.06182(18) 0.2578(3) 0.20173(13)
C15 C 0.2870(2) 0.5241(3) 0.42043(15)
C16 C 0.0804(2) 0.3706(4) 0.46082(17)
H6 H 0.1160 0.3350 0.5060
C17 C 0.2203(2) 0.5240(3) 0.45574(14)
C18 C 0.0637(2) 0.5233(4) 0.35739(15)
H7 H 0.0895 0.5910 0.3319
C19 C 0.3761(2) 0.5879(4) 0.45385(15)
H8 H 0.4200 0.5889 0.4301
C20 C -0.0119(2) 0.3271(4) 0.15298(16)
H9 H 0.0002 0.4090 0.1259
O8 O 0.37621(19) 0.1898(3) 0.28891(16)
C21 C -0.0646(2) 0.3825(4) 0.36532(18)
H10 H -0.1273 0.3508 0.3451
C22 C -0.0127(2) 0.3258(4) 0.43123(19)
H11 H -0.0401 0.2581 0.4557
C23 C -0.1839(2) 0.3670(3) 0.08528(15)
C24 C -0.1212(2) 0.1600(4) 0.18176(17)
H12 H -0.1824 0.1244 0.1745
C25 C -0.0458(2) 0.0907(4) 0.23340(18)
H13 H -0.0559 0.0103 0.2620
O9 O 0.22714(16) 0.3170(3) 0.33802(11)
C26 C 0.0439(2) 0.1416(4) 0.24198(18)
H14 H 0.0944 0.0943 0.2768
H15 H 0.434(3) 0.234(6) 0.306(2)
H16 H 0.375(4) 0.151(7) 0.329(3)
O1A O -0.14963(16) 0.7609(3) 0.33994(11)
O2B O 0.29608(17) 0.3764(3) 0.14261(11)
O3B O 0.15338(17) 0.4815(3) 0.10904(12)
O5C O -0.21414(16) 0.7718(3) 0.15312(11)
O6C O -0.06909(15) 0.7121(3) 0.16185(12)
Cd1A Cd 0.276275(15) 0.79900(3) 0.280359(11)
Cd1B Cd -0.223725(15) 0.70100(3) -0.219641(11)
Cd2A Cd -0.363853(16) 0.12684(3) 0.252375(11)
Cd2C Cd 0.363853(16) 0.87316(3) 0.747625(11)
O7A O 0.21557(15) 0.0260(2) 0.19994(10)
loop_
_geom_bond_atom_site_label_1
_geom_bond_atom_site_label_2
_geom_bond_site_symmetry_1
_geom_bond_site_symmetry_2
O1 C7 1_555 1_555
O2 C1 1_555 1_555
O3 C1 1_555 1_555
C1 C2 1_555 1_555
C2 C3 1_555 1_555
C3 H1 1_555 1_555
C4 C2 1_555 1_555
H2 C4 1_555 1_555
C5 C4 1_555 1_555
H3 C5 1_555 1_555
C6 C5 1_555 1_555
C7 C6 1_555 1_555
O4 C7 1_555 1_555
O5 C8 1_555 1_555
O6 C8 1_555 1_555
C8 C9 1_555 1_555
C9 C10 1_555 1_555
C10 H4 1_555 1_555
Cd1 O7 1_555 1_555
Cd2 O4 1_555 1_555
O7 C11 1_555 1_555
C11 C15 1_555 1_555
C12 C16 1_555 1_555
C13 C20 1_555 1_555
N1 Cd2 1_555 1_555
C14 C9 1_555 1_555
H5 C14 1_555 1_555
N2 Cd1 1_555 1_555
C15 C17 1_555 1_555
C16 H6 1_555 1_555
C17 C12 1_555 1_555
C18 C12 1_555 1_555
H7 C18 1_555 1_555
C19 C10 1_555 1_555
H8 C19 1_555 1_555
C20 N2 1_555 1_555
H9 C20 1_555 1_555
O8 Cd1 1_555 1_555
C21 N1 1_555 1_555
H10 C21 1_555 1_555
C22 C16 1_555 1_555
H11 C22 1_555 1_555
C23 C3 1_555 1_555
C24 C13 1_555 1_555
H12 C24 1_555 1_555
C25 C24 1_555 1_555
H13 C25 1_555 1_555
O9 Cd1 1_555 1_555
C26 N2 1_555 1_555
H14 C26 1_555 1_555
H15 O8 1_555 1_555
H16 O8 1_555 1_555
O1A Cd2 1_555 1_555
O2B Cd1 1_555 1_555
O3B Cd1 1_555 1_555
O5C Cd2 1_555 1_555
O6C Cd2 1_555 1_555
Cd1A O7 1_555 1_555
Cd1B O2 1_555 1_555
Cd2A O1 1_555 1_555
Cd2C O5 1_555 1_555
O7A Cd1 1_555 1_555
O3 Cd1B 1_555 1_555
C6 C23 1_555 1_555
O6 Cd2C 1_555 1_555
C11 O9 1_555 1_555
C13 C23 1_555 1_555
N1 C18 1_555 1_555
C14 C17 1_555 1_555
C15 C19 1_555 1_555
C21 C22 1_555 1_555
C25 C26 1_555 1_555

#END
