
#######################################################################
#
#                 Cambridge Crystallographic Data Centre
#                                CCDC 
#
#######################################################################
#
# If this CIF has been generated from an entry in the Cambridge 
# Structural Database, then it will include bibliographic, chemical, 
# crystal, experimental, refinement or atomic coordinate data resulting 
# from the CCDC's data processing and validation procedures.
#
#######################################################################

data_SOCKUS
_symmetry_cell_setting           triclinic
_symmetry_space_group_name_H-M   'P -1'
_symmetry_Int_Tables_number      2
_space_group_name_Hall           '-P 1'
loop_
_symmetry_equiv_pos_site_id
_symmetry_equiv_pos_as_xyz
1 x,y,z
2 -x,-y,-z
_cell_length_a                   8.7982(16)
_cell_length_b                   11.695(2)
_cell_length_c                   18.886(3)
_cell_angle_alpha                103.833(3)
_cell_angle_beta                 93.527(3)
_cell_angle_gamma                105.995(3)
_cell_volume                     1796.89
loop_
_atom_site_label
_atom_site_type_symbol
_atom_site_fract_x
_atom_site_fract_y
_atom_site_fract_z
Cd1 Cd 0.28752(6) 0.89890(4) 0.44554(3)
Cd2 Cd -0.77556(6) 0.26277(5) 0.05086(3)
C1 C 0.4470(10) 1.1208(8) 0.7319(4)
H1 H 0.5442 1.1501 0.7156
C2 C 0.4299(11) 1.1579(10) 0.8049(5)
H2 H 0.5170 1.2145 0.8369
C3 C -0.1280(11) 1.0308(11) 0.7884(6)
H3 H -0.1162 1.0853 0.7590
C4 C 0.3284(9) 1.0022(7) 0.6016(4)
C5 C 0.3201(9) 1.0410(6) 0.6841(4)
C6 C 0.1578(10) 1.0321(8) 0.7831(4)
C7 C 0.1744(9) 0.9982(7) 0.7095(4)
H4 H 0.0868 0.9458 0.6760
C8 C -0.2835(11) 0.9115(11) 0.8582(6)
H5 H -0.3799 0.8853 0.8759
C9 C 0.2937(10) 1.1167(8) 0.8327(4)
C10 C -0.0273(9) 0.9082(8) 0.8521(5)
H6 H 0.0537 0.8758 0.8633
C11 C -0.2751(12) 0.9882(13) 0.8127(7)
H7 H -0.3633 1.0110 0.7987
C12 C 0.0047(10) 0.9907(8) 0.8086(4)
N1 N 0.3168(8) 0.7102(6) 0.4543(4)
C13 C 0.3848(17) 0.5310(9) 0.4011(7)
H8 H 0.4384 0.4934 0.3662
C14 C 0.2291(15) 0.5295(9) 0.4956(6)
H9 H 0.1740 0.4911 0.5282
C15 C 0.2999(11) 0.4637(7) 0.4417(5)
C16 C 0.2418(13) 0.6506(9) 0.4997(7)
H10 H 0.1955 0.6929 0.5360
N2 N 0.2772(8) 0.0893(6) 0.4316(4)
C17 C 0.2898(11) 0.3299(7) 0.4360(5)
C18 C 0.3736(12) 0.1529(9) 0.3924(6)
H11 H 0.4403 0.1156 0.3654
C19 C -0.3762(10) 0.5900(8) 0.2446(5)
H12 H -0.4792 0.5856 0.2550
C20 C -0.1987(9) 0.5218(7) 0.1640(4)
C21 C -0.0970(8) 0.6764(7) 0.2810(4)
C22 C -0.0742(9) 0.6032(8) 0.2142(4)
H13 H 0.0294 0.6104 0.2037
C23 C -0.1640(9) 0.4473(8) 0.0951(4)
C24 C -0.2485(11) 0.6695(8) 0.2965(5)
H14 H -0.2659 0.7167 0.3407
O1 O 0.1820(6) 0.7829(6) 0.3185(3)
O2 O 0.0176(7) 0.8037(6) 0.4000(3)
O3 O -0.5027(7) 0.3190(7) 0.0962(4)
C25 C 0.0458(9) 0.7604(7) 0.3369(4)
O4 O -0.6245(8) 0.4598(7) 0.1270(4)
C26 C -0.0504(10) 0.3888(8) 0.0997(4)
H15 H -0.0033 0.3938 0.1463
C27 C -0.2416(10) 0.4332(9) 0.0245(5)
H16 H -0.3231 0.4682 0.0189
C28 C -0.3571(9) 0.5169(8) 0.1777(5)
C29 C -0.5066(10) 0.4239(8) 0.1274(6)
C30 C -0.0745(11) 0.3144(9) -0.0268(5)
H17 H -0.0432 0.2714 -0.0685
C31 C -0.1940(10) 0.3667(9) -0.0358(5)
H18 H -0.2428 0.3571 -0.0829
C32 C 0.3780(13) 0.2688(9) 0.3906(6)
H19 H 0.4390 0.3070 0.3594
O5 O 0.2086(7) 0.9236(5) 0.5606(3)
O6 O 0.4531(6) 1.0507(6) 0.5782(3)
C33 C 0.2776(13) 1.1629(11) 0.9119(5)
N3 N -0.1634(8) 0.8714(8) 0.8791(4)
N4 N -0.0014(8) 0.3225(7) 0.0392(4)
O7 O 0.2592(16) 1.2634(12) 0.9324(5)
O8 O 0.2728(18) 1.1020(10) 0.9536(5)
C34 C 0.3959(16) 0.6523(10) 0.4089(7)
H20 H 0.4614 0.6954 0.3811
C35 C 0.1952(11) 0.2632(8) 0.4758(6)
H21 H 0.1312 0.2992 0.5055
C36 C 0.1926(11) 0.1463(8) 0.4730(6)
H22 H 0.1281 0.1046 0.5017
Cd1_2 Cd 0.28752(6) -0.10110(4) 0.44554(3)
Cd1A Cd 0.71248(6) 1.10110(4) 0.55446(3)
Cd2_2 Cd 0.22444(6) 0.26277(5) 0.05086(3)
Cd2_3 Cd 0.22444(6) 1.26277(5) 1.05086(3)
Cd2A Cd -0.22444(6) 0.73723(5) 0.94914(3)
N2_2 N 0.2772(8) 1.0893(6) 0.4316(4)
O6A O 0.5469(6) 0.9493(6) 0.4218(3)
N3A N -0.8366(8) 0.1286(8) 0.1209(4)
N4_2 N -1.0014(8) 0.3225(7) 0.0392(4)
O7_2 O -0.7408(16) 0.2634(12) -0.0676(5)
O8_2 O -0.7272(18) 0.1020(10) -0.0464(5)
loop_
_geom_bond_atom_site_label_1
_geom_bond_atom_site_label_2
_geom_bond_site_symmetry_1
_geom_bond_site_symmetry_2
Cd1 N1 1_555 1_555
Cd2 O3 1_555 1_555
C1 H1 1_555 1_555
C2 C1 1_555 1_555
H2 C2 1_555 1_555
C3 H3 1_555 1_555
C4 C5 1_555 1_555
C5 C1 1_555 1_555
C6 C7 1_555 1_555
C7 C5 1_555 1_555
H4 C7 1_555 1_555
C8 H5 1_555 1_555
C9 C2 1_555 1_555
C10 H6 1_555 1_555
C11 C3 1_555 1_555
H7 C11 1_555 1_555
C12 C3 1_555 1_555
N1 C16 1_555 1_555
C13 H8 1_555 1_555
C14 H9 1_555 1_555
C15 C13 1_555 1_555
C16 C14 1_555 1_555
H10 C16 1_555 1_555
N2 C18 1_555 1_555
C17 C15 1_555 1_555
C18 H11 1_555 1_555
C19 H12 1_555 1_555
C20 C22 1_555 1_555
C21 C22 1_555 1_555
C22 H13 1_555 1_555
C23 C20 1_555 1_555
C24 C19 1_555 1_555
H14 C24 1_555 1_555
O1 Cd1 1_555 1_555
O2 Cd1 1_555 1_555
O3 C29 1_555 1_555
C25 C21 1_555 1_555
O4 Cd2 1_555 1_555
C26 C23 1_555 1_555
H15 C26 1_555 1_555
C27 C23 1_555 1_555
H16 C27 1_555 1_555
C28 C19 1_555 1_555
C29 O4 1_555 1_555
C30 H17 1_555 1_555
C31 C27 1_555 1_555
H18 C31 1_555 1_555
C32 C17 1_555 1_555
H19 C32 1_555 1_555
O5 Cd1 1_555 1_555
O6 Cd1 1_555 1_555
C33 C9 1_555 1_555
N3 C8 1_555 1_555
N4 C26 1_555 1_555
O7 C33 1_555 1_555
O8 C33 1_555 1_555
C34 N1 1_555 1_555
H20 C34 1_555 1_555
C35 C17 1_555 1_555
H21 C35 1_555 1_555
C36 N2 1_555 1_555
H22 C36 1_555 1_555
Cd1_2 N2 1_555 1_555
Cd1A O6 1_555 1_555
Cd2_2 N4 1_555 1_555
Cd2_3 O7 1_555 1_555
Cd2A N3 1_555 1_555
N2_2 Cd1 1_555 1_555
O6A Cd1 1_555 1_555
N3A Cd2 1_555 1_555
N4_2 Cd2 1_555 1_555
O7_2 Cd2 1_555 1_555
O8_2 Cd2 1_555 1_555
C4 O5 1_555 1_555
C4 O6 1_555 1_555
C6 C9 1_555 1_555
C6 C12 1_555 1_555
C8 C11 1_555 1_555
C10 C12 1_555 1_555
C10 N3 1_555 1_555
C13 C34 1_555 1_555
C14 C15 1_555 1_555
C18 C32 1_555 1_555
C20 C28 1_555 1_555
C21 C24 1_555 1_555
O1 C25 1_555 1_555
O2 C25 1_555 1_555
C28 C29 1_555 1_555
C30 C31 1_555 1_555
C30 N4 1_555 1_555
O8 Cd2_3 1_555 1_555
C35 C36 1_555 1_555
Cd1A O6A 1_555 1_555

#END
