
#######################################################################
#
#                 Cambridge Crystallographic Data Centre
#                                CCDC 
#
#######################################################################
#
# If this CIF has been generated from an entry in the Cambridge 
# Structural Database, then it will include bibliographic, chemical, 
# crystal, experimental, refinement or atomic coordinate data resulting 
# from the CCDC's data processing and validation procedures.
#
#######################################################################

data_SOCKEC
_symmetry_cell_setting           monoclinic
_symmetry_space_group_name_H-M   'C 2/c'
_symmetry_Int_Tables_number      15
_space_group_name_Hall           '-C 2yn'
loop_
_symmetry_equiv_pos_site_id
_symmetry_equiv_pos_as_xyz
1 x,y,z
2 -x,y,1/2-z
3 1/2+x,1/2+y,z
4 1/2-x,1/2+y,1/2-z
5 -x,-y,-z
6 x,-y,1/2+z
7 1/2-x,1/2-y,-z
8 1/2+x,1/2-y,1/2+z
_cell_length_a                   14.4791(9)
_cell_length_b                   12.5483(9)
_cell_length_c                   15.9612(11)
_cell_angle_alpha                90
_cell_angle_beta                 93.1400(10)
_cell_angle_gamma                90
_cell_volume                     2895.61
loop_
_atom_site_label
_atom_site_type_symbol
_atom_site_fract_x
_atom_site_fract_y
_atom_site_fract_z
Cd1 Cd 0.021790(14) 0.327482(16) 0.361548(13)
O1 O 0.09467(13) 0.37886(17) 0.23255(12)
O2 O 0.19784(15) 0.50149(18) 0.27237(14)
O3 O 0.44738(16) 0.31104(18) -0.06840(14)
O4 O 0.44102(19) 0.15470(19) -0.00872(16)
N1 N 0.33873(17) 0.7419(2) 0.10758(15)
C1 C 0.2548(2) 0.7877(3) 0.1046(2)
H1 H 0.2510 0.8617 0.1048
C2 C 0.1740(2) 0.7291(3) 0.1014(2)
H2 H 0.1168 0.7631 0.0994
C3 C 0.1794(2) 0.6194(3) 0.1012(2)
H3 H 0.1257 0.5786 0.0991
C4 C 0.2651(2) 0.5703(2) 0.10421(17)
C5 C 0.3425(2) 0.6365(2) 0.10640(18)
H4 H 0.4005 0.6046 0.1071
C6 C 0.27913(19) 0.4529(2) 0.10543(18)
C7 C 0.3395(2) 0.4067(2) 0.05109(18)
H5 H 0.3695 0.4503 0.0141
C8 C 0.3565(2) 0.2975(2) 0.05024(18)
C9 C 0.3116(2) 0.2335(3) 0.1059(2)
H6 H 0.3225 0.1604 0.1068
C10 C 0.2510(2) 0.2772(3) 0.15999(19)
H7 H 0.2212 0.2330 0.1967
C11 C 0.23365(19) 0.3858(2) 0.16072(17)
C12 C 0.17119(19) 0.4277(2) 0.22589(17)
C13 C 0.4191(2) 0.2511(3) -0.01220(18)
O5 O 0.0000 0.1844(2) 0.2500
O6 O 0.0641(3) 0.4960(2) 0.3927(2)
Cd1A Cd -0.021790(14) 0.327482(16) 0.138452(13)
O1A O -0.09467(13) 0.37886(17) 0.26745(12)
O2A O -0.19784(15) 0.50149(18) 0.22763(14)
O3A O -0.44738(16) 0.31104(18) 0.56840(14)
O4A O -0.44102(19) 0.15470(19) 0.50872(16)
N1A N -0.33873(17) 0.7419(2) 0.39242(15)
C1A C -0.2548(2) 0.7877(3) 0.3954(2)
H1A H -0.2510 0.8617 0.3952
C2A C -0.1740(2) 0.7291(3) 0.3986(2)
H2A H -0.1168 0.7631 0.4006
C3A C -0.1794(2) 0.6194(3) 0.3988(2)
H3A H -0.1257 0.5786 0.4009
C4A C -0.2651(2) 0.5703(2) 0.39579(17)
C5A C -0.3425(2) 0.6365(2) 0.39360(18)
H4A H -0.4005 0.6046 0.3929
C6A C -0.27913(19) 0.4529(2) 0.39457(18)
C7A C -0.3395(2) 0.4067(2) 0.44891(18)
H5A H -0.3695 0.4503 0.4859
C8A C -0.3565(2) 0.2975(2) 0.44976(18)
C9A C -0.3116(2) 0.2335(3) 0.3941(2)
H6A H -0.3225 0.1604 0.3932
C10A C -0.2510(2) 0.2772(3) 0.34001(19)
H7A H -0.2212 0.2330 0.3033
C11A C -0.23365(19) 0.3858(2) 0.33928(17)
C12A C -0.17119(19) 0.4277(2) 0.27411(17)
C13A C -0.4191(2) 0.2511(3) 0.51220(18)
O6A O -0.0641(3) 0.4960(2) 0.1073(2)
Cd1B Cd -0.478210(14) 0.827482(16) 0.361548(13)
Cd1C Cd 0.478210(14) 0.827482(16) 0.138452(13)
Cd1F Cd -0.521790(14) 0.172518(16) 0.638452(13)
Cd1G Cd 0.521790(14) 0.172518(16) -0.138452(13)
O3F O 0.05262(16) 0.18896(18) 0.06840(14)
O3G O -0.05262(16) 0.18896(18) 0.43160(14)
O4F O 0.05898(19) 0.34530(19) 0.00872(16)
O4G O -0.05898(19) 0.34530(19) 0.49128(16)
N1B N -0.16127(17) 0.2419(2) 0.10758(15)
N1C N 0.16127(17) 0.2419(2) 0.39242(15)
O7 O 0.11797(18) 0.0359(2) 0.18599(18)
O8 O 0.0000 0.6497(7) 0.2500
O9 O 1.0000 0.1315(5) 0.7500
loop_
_geom_bond_atom_site_label_1
_geom_bond_atom_site_label_2
_geom_bond_site_symmetry_1
_geom_bond_site_symmetry_2
Cd1 O1 1_555 1_555
O1 C12 1_555 1_555
O2 C12 1_555 1_555
O3 C13 1_555 1_555
O4 C13 1_555 1_555
N1 C1 1_555 1_555
C1 H1 1_555 1_555
C2 C1 1_555 1_555
H2 C2 1_555 1_555
C3 C2 1_555 1_555
H3 C3 1_555 1_555
C4 C3 1_555 1_555
C5 N1 1_555 1_555
H4 C5 1_555 1_555
C6 C4 1_555 1_555
C7 C6 1_555 1_555
H5 C7 1_555 1_555
C8 C7 1_555 1_555
C9 C8 1_555 1_555
H6 C9 1_555 1_555
C10 C9 1_555 1_555
H7 C10 1_555 1_555
C11 C6 1_555 1_555
C12 C11 1_555 1_555
C13 C8 1_555 1_555
O5 Cd1 1_555 1_555
O6 Cd1 1_555 1_555
Cd1A O1 1_555 1_555
O1A Cd1 1_555 1_555
O2A C12A 1_555 1_555
O3A C13A 1_555 1_555
O4A C13A 1_555 1_555
N1A C1A 1_555 1_555
C1A H1A 1_555 1_555
C2A C1A 1_555 1_555
H2A C2A 1_555 1_555
C3A C2A 1_555 1_555
H3A C3A 1_555 1_555
C4A C3A 1_555 1_555
C5A N1A 1_555 1_555
H4A C5A 1_555 1_555
C6A C4A 1_555 1_555
C7A C6A 1_555 1_555
H5A C7A 1_555 1_555
C8A C7A 1_555 1_555
C9A C8A 1_555 1_555
H6A C9A 1_555 1_555
C10A C9A 1_555 1_555
H7A C10A 1_555 1_555
C11A C6A 1_555 1_555
C12A O1A 1_555 1_555
C13A C8A 1_555 1_555
O6A Cd1A 1_555 1_555
Cd1B N1A 1_555 1_555
Cd1C N1 1_555 1_555
Cd1F O3A 1_555 1_555
Cd1G O3 1_555 1_555
O3F Cd1A 1_555 1_555
O3G Cd1 1_555 1_555
O4F Cd1A 1_555 1_555
O4G Cd1 1_555 1_555
N1B Cd1A 1_555 1_555
N1C Cd1 1_555 1_555
O4 Cd1G 1_555 1_555
C4 C5 1_555 1_555
C10 C11 1_555 1_555
O5 Cd1A 1_555 1_555
Cd1A O1A 1_555 1_555
O4A Cd1F 1_555 1_555
C4A C5A 1_555 1_555
C10A C11A 1_555 1_555
C11A C12A 1_555 1_555

#END
