
#######################################################################
#
#                 Cambridge Crystallographic Data Centre
#                                CCDC 
#
#######################################################################
#
# If this CIF has been generated from an entry in the Cambridge 
# Structural Database, then it will include bibliographic, chemical, 
# crystal, experimental, refinement or atomic coordinate data resulting 
# from the CCDC's data processing and validation procedures.
#
#######################################################################

data_SOCLON
_symmetry_cell_setting           orthorhombic
_symmetry_space_group_name_H-M   'F d d 2'
_symmetry_Int_Tables_number      43
_space_group_name_Hall           'F 2 -2d'
loop_
_symmetry_equiv_pos_site_id
_symmetry_equiv_pos_as_xyz
1 x,y,z
2 -x,-y,z
3 1/4+x,1/4-y,1/4+z
4 1/4-x,1/4+y,1/4+z
5 x,1/2+y,1/2+z
6 -x,1/2-y,1/2+z
7 1/4+x,3/4-y,3/4+z
8 1/4-x,3/4+y,3/4+z
9 1/2+x,y,1/2+z
10 1/2-x,-y,1/2+z
11 3/4+x,1/4-y,3/4+z
12 3/4-x,1/4+y,3/4+z
13 1/2+x,1/2+y,z
14 1/2-x,1/2-y,z
15 3/4+x,3/4-y,1/4+z
16 3/4-x,3/4+y,1/4+z
_cell_length_a                   13.0656(10)
_cell_length_b                   20.0395(15)
_cell_length_c                   25.521(2)
_cell_angle_alpha                90
_cell_angle_beta                 90
_cell_angle_gamma                90
_cell_volume                     6682.11
loop_
_atom_site_label
_atom_site_type_symbol
_atom_site_fract_x
_atom_site_fract_y
_atom_site_fract_z
Ni1 Ni 0.79954(3) 0.58256(2) 0.239910(16)
O1 O 0.68068(19) 0.51241(12) 0.25431(10)
O2 O 0.82277(19) 0.50790(14) 0.30083(10)
O3 O 0.5089(2) 0.21794(14) 0.36942(12)
O4 O 0.60570(19) 0.23755(13) 0.43953(10)
O5 O 0.7212(2) 0.63181(18) 0.18113(12)
H1 H 0.735(3) 0.664(2) 0.1675(17)
H2 H 0.725(4) 0.606(3) 0.158(2)
N1 N 0.9300(2) 0.64046(14) 0.23911(14)
N2 N 0.2683(3) 0.36042(17) 0.29809(13)
C1 C 0.7327(3) 0.48616(19) 0.29011(15)
C2 C 0.6889(3) 0.42892(19) 0.32029(15)
C3 C 0.7508(3) 0.3875(2) 0.35014(17)
H3 H 0.8203 0.3967 0.3532
C4 C 0.7100(3) 0.33289(19) 0.37536(16)
H4 H 0.7525 0.3059 0.3955
C5 C 0.6064(3) 0.31717(18) 0.37139(15)
C6 C 0.5415(3) 0.36050(19) 0.34435(15)
C7 C 0.5844(3) 0.41546(19) 0.31816(16)
H5 H 0.5420 0.4435 0.2989
C8 C 0.5691(3) 0.25244(18) 0.39525(16)
C9 C 0.4286(3) 0.35167(19) 0.34490(16)
C10 C 0.3750(3) 0.3351(2) 0.39005(17)
H6 H 0.4100 0.3266 0.4211
C11 C 0.2692(3) 0.3314(2) 0.38872(18)
H7 H 0.2322 0.3204 0.4186
C12 C 0.2196(3) 0.3445(2) 0.34179(18)
H8 H 0.1486 0.3420 0.3410
C13 C 0.3715(3) 0.36299(19) 0.29982(16)
H9 H 0.4064 0.3729 0.2690
C14 C 0.9273(3) 0.70614(19) 0.23030(17)
H10 H 0.8637 0.7266 0.2269
C15 C 1.0137(3) 0.7453(2) 0.2259(2)
H11 H 1.0072 0.7906 0.2188
C16 C 1.1097(3) 0.71780(19) 0.23203(17)
C17 C 1.1124(3) 0.65008(18) 0.24025(19)
H12 H 1.1751 0.6286 0.2434
C18 C 1.0232(3) 0.61351(19) 0.24386(18)
H13 H 1.0281 0.5679 0.2499
C19 C 1.2015(3) 0.7608(2) 0.2309(2)
H14 H 1.1910 0.8067 0.2301
N1M N 1.5700(2) 0.85954(14) 0.23911(14)
C14M C 1.5727(3) 0.79386(19) 0.23030(17)
H10M H 1.6363 0.7734 0.2269
C15M C 1.4863(3) 0.7547(2) 0.2259(2)
H11M H 1.4928 0.7094 0.2188
C16M C 1.3903(3) 0.78220(19) 0.23203(17)
C17M C 1.3876(3) 0.84992(18) 0.24025(19)
H12M H 1.3249 0.8714 0.2434
C18M C 1.4768(3) 0.88649(19) 0.24386(18)
H13M H 1.4719 0.9321 0.2499
C19M C 1.2985(3) 0.7392(2) 0.2309(2)
H14M H 1.3090 0.6933 0.2301
Ni1A Ni 0.20046(3) 0.41744(2) 0.239910(16)
O1A O 0.31932(19) 0.48759(12) 0.25431(10)
O2A O 0.17723(19) 0.49210(14) 0.30083(10)
O3A O 0.4911(2) 0.78206(14) 0.36942(12)
O4A O 0.39430(19) 0.76245(13) 0.43953(10)
O5A O 0.2788(2) 0.36819(18) 0.18113(12)
H1A H 0.265(3) 0.336(2) 0.1675(17)
H2A H 0.275(4) 0.394(3) 0.158(2)
N2A N 0.7317(3) 0.63958(17) 0.29809(13)
C1A C 0.2673(3) 0.51384(19) 0.29011(15)
C2A C 0.3111(3) 0.57108(19) 0.32029(15)
C3A C 0.2492(3) 0.6125(2) 0.35014(17)
H3A H 0.1797 0.6033 0.3532
C4A C 0.2900(3) 0.66711(19) 0.37536(16)
H4A H 0.2475 0.6941 0.3955
C5A C 0.3936(3) 0.68283(18) 0.37139(15)
C6A C 0.4585(3) 0.63950(19) 0.34435(15)
C7A C 0.4156(3) 0.58454(19) 0.31816(16)
H5A H 0.4580 0.5565 0.2989
C8A C 0.4309(3) 0.74756(18) 0.39525(16)
C9A C 0.5714(3) 0.64833(19) 0.34490(16)
C10A C 0.6250(3) 0.6649(2) 0.39005(17)
H6A H 0.5900 0.6734 0.4211
C11A C 0.7308(3) 0.6686(2) 0.38872(18)
H7A H 0.7678 0.6796 0.4186
C12A C 0.7804(3) 0.6555(2) 0.34179(18)
H8A H 0.8514 0.6580 0.3410
C13A C 0.6285(3) 0.63701(19) 0.29982(16)
H9A H 0.5936 0.6271 0.2690
Ni1C Ni 0.45046(3) 0.83256(2) 0.489910(16)
Ni1M Ni 1.70046(3) 0.91744(2) 0.239910(16)
Ni1N Ni 0.54954(3) 0.16744(2) 0.489910(16)
O4F O 0.85570(19) 0.51245(13) 0.18953(10)
O4K O 0.14430(19) 0.48755(13) 0.18953(10)
N1A N 0.0700(2) 0.35954(14) 0.23911(14)
O6 O 0.7500 0.7500 0.11949(19)
H15 H 0.698(3) 0.745(3) 0.100(2)
H15M H 0.802(3) 0.755(3) 0.100(2)
loop_
_geom_bond_atom_site_label_1
_geom_bond_atom_site_label_2
_geom_bond_site_symmetry_1
_geom_bond_site_symmetry_2
Ni1 O1 1_555 1_555
O1 C1 1_555 1_555
O2 Ni1 1_555 1_555
O3 C8 1_555 1_555
O4 C8 1_555 1_555
O5 Ni1 1_555 1_555
H1 O5 1_555 1_555
H2 O5 1_555 1_555
N1 Ni1 1_555 1_555
N2 C12 1_555 1_555
C1 O2 1_555 1_555
C2 C1 1_555 1_555
C3 C2 1_555 1_555
H3 C3 1_555 1_555
C4 C3 1_555 1_555
H4 C4 1_555 1_555
C5 C4 1_555 1_555
C6 C5 1_555 1_555
C7 C2 1_555 1_555
H5 C7 1_555 1_555
C8 C5 1_555 1_555
C9 C6 1_555 1_555
C10 C9 1_555 1_555
H6 C10 1_555 1_555
C11 C10 1_555 1_555
H7 C11 1_555 1_555
C12 C11 1_555 1_555
H8 C12 1_555 1_555
C13 N2 1_555 1_555
H9 C13 1_555 1_555
C14 N1 1_555 1_555
H10 C14 1_555 1_555
C15 C14 1_555 1_555
H11 C15 1_555 1_555
C16 C15 1_555 1_555
C17 C16 1_555 1_555
H12 C17 1_555 1_555
C18 N1 1_555 1_555
H13 C18 1_555 1_555
C19 C16 1_555 1_555
H14 C19 1_555 1_555
O6 H15 1_555 1_555
N1M C14M 1_555 1_555
C14M H10M 1_555 1_555
C15M C14M 1_555 1_555
H11M C15M 1_555 1_555
C16M C15M 1_555 1_555
C17M C16M 1_555 1_555
H12M C17M 1_555 1_555
C18M N1M 1_555 1_555
H13M C18M 1_555 1_555
C19M C19 1_555 1_555
H14M C19M 1_555 1_555
Ni1A N2 1_555 1_555
O1A Ni1A 1_555 1_555
O2A Ni1A 1_555 1_555
O3A C8A 1_555 1_555
O4A C8A 1_555 1_555
O5A Ni1A 1_555 1_555
H1A O5A 1_555 1_555
H2A O5A 1_555 1_555
N2A Ni1 1_555 1_555
C1A O1A 1_555 1_555
C2A C1A 1_555 1_555
C3A C2A 1_555 1_555
H3A C3A 1_555 1_555
C4A C3A 1_555 1_555
H4A C4A 1_555 1_555
C5A C4A 1_555 1_555
C6A C5A 1_555 1_555
C7A C2A 1_555 1_555
H5A C7A 1_555 1_555
C8A C5A 1_555 1_555
C9A C6A 1_555 1_555
C10A C9A 1_555 1_555
H6A C10A 1_555 1_555
C11A C10A 1_555 1_555
H7A C11A 1_555 1_555
C12A N2A 1_555 1_555
H8A C12A 1_555 1_555
C13A N2A 1_555 1_555
H9A C13A 1_555 1_555
Ni1C O4A 1_555 1_555
Ni1M N1M 1_555 1_555
Ni1N O4 1_555 1_555
O4F Ni1 1_555 1_555
O4K Ni1A 1_555 1_555
N1A Ni1A 1_555 1_555
H15M O6 1_555 1_555
C6 C7 1_555 1_555
C9 C13 1_555 1_555
C17 C18 1_555 1_555
C16M C19M 1_555 1_555
C17M C18M 1_555 1_555
O2A C1A 1_555 1_555
C6A C7A 1_555 1_555
C9A C13A 1_555 1_555
C11A C12A 1_555 1_555

#END
