
#######################################################################
#
#                 Cambridge Crystallographic Data Centre
#                                CCDC 
#
#######################################################################
#
# If this CIF has been generated from an entry in the Cambridge 
# Structural Database, then it will include bibliographic, chemical, 
# crystal, experimental, refinement or atomic coordinate data resulting 
# from the CCDC's data processing and validation procedures.
#
#######################################################################

data_SOCNAB
_symmetry_cell_setting           triclinic
_symmetry_space_group_name_H-M   'P -1'
_symmetry_Int_Tables_number      2
_space_group_name_Hall           '-P 1'
loop_
_symmetry_equiv_pos_site_id
_symmetry_equiv_pos_as_xyz
1 x,y,z
2 -x,-y,-z
_cell_length_a                   8.301(3)
_cell_length_b                   11.146(4)
_cell_length_c                   13.363(5)
_cell_angle_alpha                86.427(7)
_cell_angle_beta                 84.122(7)
_cell_angle_gamma                83.573(8)
_cell_volume                     1220.54
loop_
_atom_site_label
_atom_site_type_symbol
_atom_site_fract_x
_atom_site_fract_y
_atom_site_fract_z
Zn1 Zn -0.05618(4) 0.31197(3) 0.79517(2)
C1 C -0.4277(4) 0.5115(3) 0.9798(2)
H1 H -0.4054 0.5916 0.9711
C2 C -0.4071(4) 0.2967(3) 0.7561(2)
H2 H -0.4427 0.3695 0.7858
C3 C -0.5033(4) 0.2240(3) 0.7204(2)
H3 H -0.6159 0.2367 0.7206
C4 C -0.2508(4) 0.1456(3) 0.6973(2)
H4 H -0.1593 0.0933 0.6777
C5 C -0.4530(4) 0.0246(3) 0.6345(3)
H5 H -0.5562 0.0034 0.6677
H6 H -0.3727 -0.0448 0.6419
C6 C -0.4702(4) 0.0531(3) 0.5242(3)
H7 H -0.3658 0.0703 0.4901
H8 H -0.5470 0.1245 0.5164
C7 C 0.0984(4) 0.2879(3) 0.9905(2)
H9 H 0.0690 0.3691 1.0024
C8 C 0.1743(4) 0.2071(3) 1.0536(3)
H10 H 0.2070 0.2217 1.1158
C9 C 0.1302(3) 0.1189(3) 0.9200(2)
H11 H 0.1281 0.0596 0.8743
C10 C 0.2734(4) -0.0164(3) 1.0467(3)
H12 H 0.2553 -0.0800 1.0041
H13 H 0.2241 -0.0351 1.1140
C11 C 0.4549(4) -0.0139(3) 1.0499(3)
H14 H 0.4720 0.0462 1.0961
H15 H 0.5006 -0.0919 1.0765
C12 C 0.1238(5) 0.5324(3) 0.7530(3)
H16 H 0.1067 0.5519 0.8202
C13 C 0.2058(5) 0.5945(3) 0.6795(3)
H17 H 0.2562 0.6635 0.6866
C14 C 0.1191(4) 0.4433(3) 0.6173(2)
H18 H 0.0992 0.3887 0.5713
C15 C 0.2789(4) 0.5729(4) 0.4931(3)
H19 H 0.2401 0.6558 0.4745
H20 H 0.2490 0.5214 0.4436
C16 C 0.4652(6) 0.5605(5) 0.4930(4)
H21 H 0.5121 0.5943 0.4294
H22 H 0.4934 0.6073 0.5462
C17 C -0.2971(4) 0.4149(3) 0.9471(2)
O1 O -0.1932(2) 0.44720(18) 0.87562(16)
O2 O 0.1160(3) 0.1658(2) 0.68242(17)
H23 H 0.1076 0.1732 0.6194
H24 H 0.1460 0.0906 0.6900
O3 O -0.2970(3) 0.3115(2) 0.98539(19)
N1 N -0.2463(3) 0.2470(2) 0.74206(17)
N2 N -0.4031(3) 0.1272(2) 0.68363(18)
N3 N 0.0706(3) 0.2325(2) 0.90574(17)
N4 N 0.1939(3) 0.0992(2) 1.00802(19)
N5 N 0.0693(3) 0.4357(2) 0.71382(18)
N6 N 0.2015(3) 0.5386(2) 0.5934(2)
C1A C -0.5723(4) 0.4885(3) 1.0202(2)
H1A H -0.5946 0.4084 1.0289
C17A C -0.7029(4) 0.5851(3) 1.0529(2)
O1A O -0.8068(2) 0.55280(18) 1.12438(16)
O3A O -0.7030(3) 0.6885(2) 1.01461(19)
C2A C -0.5929(4) -0.2967(3) 0.2439(2)
H2A H -0.5573 -0.3695 0.2142
C3A C -0.4967(4) -0.2240(3) 0.2796(2)
H3A H -0.3841 -0.2367 0.2794
C4A C -0.7492(4) -0.1456(3) 0.3027(2)
H4A H -0.8407 -0.0933 0.3223
C5A C -0.5470(4) -0.0246(3) 0.3655(3)
H5A H -0.4438 -0.0034 0.3323
H6A H -0.6273 0.0448 0.3581
C6A C -0.5298(4) -0.0531(3) 0.4758(3)
H7A H -0.6342 -0.0703 0.5099
H8A H -0.4530 -0.1245 0.4836
N1A N -0.7537(3) -0.2470(2) 0.25794(17)
N2A N -0.5969(3) -0.1272(2) 0.31637(18)
C7A C 0.9016(4) -0.2879(3) 1.0095(2)
H9A H 0.9310 -0.3691 0.9976
C8A C 0.8257(4) -0.2071(3) 0.9464(3)
H10A H 0.7930 -0.2217 0.8842
C9A C 0.8698(3) -0.1189(3) 1.0800(2)
H11A H 0.8719 -0.0596 1.1257
C10A C 0.7266(4) 0.0164(3) 0.9533(3)
H12A H 0.7447 0.0800 0.9959
H13A H 0.7759 0.0351 0.8860
C11A C 0.5451(4) 0.0139(3) 0.9501(3)
H14A H 0.5280 -0.0462 0.9039
H15A H 0.4994 0.0919 0.9235
N3A N 0.9294(3) -0.2325(2) 1.09426(17)
N4A N 0.8061(3) -0.0992(2) 0.99198(19)
C12A C 0.8762(5) 0.4676(3) 0.2470(3)
H16A H 0.8933 0.4481 0.1798
C13A C 0.7942(5) 0.4055(3) 0.3205(3)
H17A H 0.7438 0.3365 0.3134
C14A C 0.8809(4) 0.5567(3) 0.3827(2)
H18A H 0.9008 0.6113 0.4287
C15A C 0.7211(4) 0.4271(4) 0.5069(3)
H19A H 0.7599 0.3442 0.5255
H20A H 0.7510 0.4786 0.5564
C16A C 0.5348(6) 0.4395(5) 0.5070(4)
H21A H 0.4879 0.4057 0.5706
H22A H 0.5066 0.3927 0.4538
N5A N 0.9307(3) 0.5643(2) 0.28618(18)
N6A N 0.7985(3) 0.4614(2) 0.4066(2)
Zn1A Zn -0.94382(4) -0.31197(3) 0.20483(2)
O2A O -1.1160(3) -0.1658(2) 0.31758(17)
H23A H -1.1076 -0.1732 0.3806
H24A H -1.1460 -0.0906 0.3100
Zn1A_2 Zn -0.94382(4) 0.68803(3) 1.20483(2)
Zn1A_3 Zn 1.05618(4) -0.31197(3) 1.20483(2)
Zn1A_4 Zn 1.05618(4) 0.68803(3) 0.20483(2)
O1A_2 O -0.8068(2) -0.44720(18) 0.12438(16)
N3A_2 N -1.0706(3) -0.2325(2) 0.09426(17)
N5A_2 N -1.0693(3) -0.4357(2) 0.28618(18)
O4 O -0.1594(4) 0.0722(2) 0.2536(2)
H25 H -0.2289 0.1288 0.2348
H26 H -0.0897 0.1009 0.2850
O5 O -0.3971(4) 0.2273(3) 1.1775(2)
H27 H -0.3670 0.2605 1.1207
H28 H -0.4855 0.2663 1.2007
O6 O 0.0994(4) 0.1678(3) 0.3281(2)
O7 O 0.1708(6) 0.2439(5) 0.4543(4)
O8 O -0.0344(7) 0.1511(5) 0.4714(3)
N7 N 0.0774(5) 0.1859(3) 0.4182(3)
O9 O 0.6694(4) 0.6310(3) -0.2609(3)
H29 H 0.7220 0.5732 -0.2295
H30 H 0.7456 0.6671 -0.2927
loop_
_geom_bond_atom_site_label_1
_geom_bond_atom_site_label_2
_geom_bond_site_symmetry_1
_geom_bond_site_symmetry_2
Zn1 O1 1_555 1_555
C1 H1 1_555 1_555
C2 H2 1_555 1_555
C3 C2 1_555 1_555
H3 C3 1_555 1_555
C4 H4 1_555 1_555
C5 H5 1_555 1_555
H6 C5 1_555 1_555
C6 C5 1_555 1_555
H7 C6 1_555 1_555
H8 C6 1_555 1_555
C7 H9 1_555 1_555
C8 C7 1_555 1_555
H10 C8 1_555 1_555
C9 H11 1_555 1_555
C10 H12 1_555 1_555
H13 C10 1_555 1_555
C11 C10 1_555 1_555
H14 C11 1_555 1_555
H15 C11 1_555 1_555
C12 H16 1_555 1_555
C13 C12 1_555 1_555
H17 C13 1_555 1_555
C14 H18 1_555 1_555
C15 H19 1_555 1_555
H20 C15 1_555 1_555
C16 C15 1_555 1_555
H21 C16 1_555 1_555
H22 C16 1_555 1_555
C17 C1 1_555 1_555
O1 C17 1_555 1_555
O2 Zn1 1_555 1_555
H23 O2 1_555 1_555
H24 O2 1_555 1_555
O3 C17 1_555 1_555
N1 Zn1 1_555 1_555
N2 C3 1_555 1_555
N3 Zn1 1_555 1_555
N4 C8 1_555 1_555
N5 Zn1 1_555 1_555
N6 C13 1_555 1_555
O4 H25 1_555 1_555
H26 O4 1_555 1_555
O5 H27 1_555 1_555
H28 O5 1_555 1_555
O6 N7 1_555 1_555
O7 N7 1_555 1_555
O8 N7 1_555 1_555
O9 H29 1_555 1_555
H30 O9 1_555 1_555
C1A C1 1_555 1_555
H1A C1A 1_555 1_555
C17A C1A 1_555 1_555
O1A C17A 1_555 1_555
O3A C17A 1_555 1_555
C2A H2A 1_555 1_555
C3A C2A 1_555 1_555
H3A C3A 1_555 1_555
C4A H4A 1_555 1_555
C5A H5A 1_555 1_555
H6A C5A 1_555 1_555
C6A C6 1_555 1_555
H7A C6A 1_555 1_555
H8A C6A 1_555 1_555
N1A C2A 1_555 1_555
N2A C3A 1_555 1_555
C7A H9A 1_555 1_555
C8A C7A 1_555 1_555
H10A C8A 1_555 1_555
C9A H11A 1_555 1_555
C10A H12A 1_555 1_555
H13A C10A 1_555 1_555
C11A C11 1_555 1_555
H14A C11A 1_555 1_555
H15A C11A 1_555 1_555
N3A C7A 1_555 1_555
N4A C8A 1_555 1_555
C12A H16A 1_555 1_555
C13A C12A 1_555 1_555
H17A C13A 1_555 1_555
C14A H18A 1_555 1_555
C15A H19A 1_555 1_555
H20A C15A 1_555 1_555
C16A C16 1_555 1_555
H21A C16A 1_555 1_555
H22A C16A 1_555 1_555
N5A C12A 1_555 1_555
N6A C13A 1_555 1_555
Zn1A N1A 1_555 1_555
O2A Zn1A 1_555 1_555
H23A O2A 1_555 1_555
H24A O2A 1_555 1_555
Zn1A_2 O1A 1_555 1_555
Zn1A_3 N3A 1_555 1_555
Zn1A_4 N5A 1_555 1_555
O1A_2 Zn1A 1_555 1_555
N3A_2 Zn1A 1_555 1_555
N5A_2 Zn1A 1_555 1_555
C2 N1 1_555 1_555
C4 N1 1_555 1_555
C4 N2 1_555 1_555
C5 N2 1_555 1_555
C7 N3 1_555 1_555
C9 N3 1_555 1_555
C9 N4 1_555 1_555
C10 N4 1_555 1_555
C12 N5 1_555 1_555
C14 N5 1_555 1_555
C14 N6 1_555 1_555
C15 N6 1_555 1_555
C4A N1A 1_555 1_555
C4A N2A 1_555 1_555
C5A C6A 1_555 1_555
C5A N2A 1_555 1_555
C9A N3A 1_555 1_555
C9A N4A 1_555 1_555
C10A C11A 1_555 1_555
C10A N4A 1_555 1_555
C14A N5A 1_555 1_555
C14A N6A 1_555 1_555
C15A C16A 1_555 1_555
C15A N6A 1_555 1_555

#END
