
#######################################################################
#
#                 Cambridge Crystallographic Data Centre
#                                CCDC 
#
#######################################################################
#
# If this CIF has been generated from an entry in the Cambridge 
# Structural Database, then it will include bibliographic, chemical, 
# crystal, experimental, refinement or atomic coordinate data resulting 
# from the CCDC's data processing and validation procedures.
#
#######################################################################

data_SOCPOP
_symmetry_cell_setting           triclinic
_symmetry_space_group_name_H-M   'P -1'
_symmetry_Int_Tables_number      2
_space_group_name_Hall           '-P 1'
loop_
_symmetry_equiv_pos_site_id
_symmetry_equiv_pos_as_xyz
1 x,y,z
2 -x,-y,-z
_cell_length_a                   7.595(7)
_cell_length_b                   8.575(6)
_cell_length_c                   12.412(10)
_cell_angle_alpha                98.50(7)
_cell_angle_beta                 99.59(7)
_cell_angle_gamma                114.20(6)
_cell_volume                     705.717
loop_
_atom_site_label
_atom_site_type_symbol
_atom_site_fract_x
_atom_site_fract_y
_atom_site_fract_z
Sr1 Sr 0.0000 0.0000 0.0000
Si1 Si -0.2087(5) -0.2315(4) -0.2761(2)
Si2 Si 0.0140(5) 0.1579(4) -0.2575(3)
O1 O -0.6959(10) -0.0509(10) -0.0073(6)
N1 N -0.0699(11) -0.0215(8) -0.2030(6)
C1 C -0.2529(21) -0.3723(14) -0.1705(10)
C2 C -0.4587(20) -0.2828(17) -0.3626(12)
C3 C -0.0885(21) -0.3190(15) -0.3705(10)
C4 C 0.1303(26) 0.3610(14) -0.1393(11)
C5 C 0.2119(23) 0.1704(17) -0.3312(11)
C6 C -0.1809(22) 0.1825(16) -0.3584(11)
C7 C -0.5650(17) -0.0628(16) 0.0870(11)
C8 C -0.6268(18) -0.0697(18) -0.1059(10)
H1 H -0.331 -0.497 -0.209
H2 H -0.324 -0.344 -0.121
H3 H -0.130 -0.361 -0.127
H4 H -0.528 -0.403 -0.403
H5 H -0.446 -0.212 -0.418
H6 H -0.537 -0.257 -0.317
H7 H -0.168 -0.438 -0.409
H8 H 0.038 -0.312 -0.328
H9 H -0.050 -0.250 -0.425
H10 H 0.188 0.466 -0.168
H11 H 0.248 0.363 -0.089
H12 H 0.046 0.371 -0.097
H13 H 0.253 0.273 -0.362
H14 H 0.160 0.069 -0.395
H15 H 0.324 0.174 -0.284
H16 H -0.127 0.282 -0.387
H17 H -0.283 0.187 -0.323
H18 H -0.249 0.079 -0.422
H19 H -0.567 -0.182 0.074
H20 H -0.624 -0.063 0.153
H21 H -0.721 -0.074 -0.170
H22 H -0.624 -0.187 -0.124
C8A C -0.3732(18) 0.0697(18) 0.1059(10)
O1A O -0.3041(10) 0.0509(10) 0.0073(6)
Sr1_2 Sr -1.0000 0.0000 0.0000
O1_2 O 0.3041(10) -0.0509(10) -0.0073(6)
N1A N 0.0699(11) 0.0215(8) 0.2030(6)
Si1A Si 0.2087(5) 0.2315(4) 0.2761(2)
C1A C 0.2529(21) 0.3723(14) 0.1705(10)
H1A H 0.331 0.497 0.209
H2A H 0.324 0.344 0.121
H3A H 0.130 0.361 0.127
C2A C 0.4587(20) 0.2828(17) 0.3626(12)
H4A H 0.528 0.403 0.403
H5A H 0.446 0.212 0.418
H6A H 0.537 0.257 0.317
C3A C 0.0885(21) 0.3190(15) 0.3705(10)
H7A H 0.168 0.438 0.409
H8A H -0.038 0.312 0.328
H9A H 0.050 0.250 0.425
Si2A Si -0.0140(5) -0.1579(4) 0.2575(3)
C4A C -0.1303(26) -0.3610(14) 0.1393(11)
H10A H -0.188 -0.466 0.168
H11A H -0.248 -0.363 0.089
H12A H -0.046 -0.371 0.097
C5A C -0.2119(23) -0.1704(17) 0.3312(11)
H13A H -0.253 -0.273 0.362
H14A H -0.160 -0.069 0.395
H15A H -0.324 -0.174 0.284
C6A C 0.1809(22) -0.1825(16) 0.3584(11)
H16A H 0.127 -0.282 0.387
H17A H 0.283 -0.187 0.323
H18A H 0.249 -0.079 0.422
C7A C -0.4350(17) 0.0628(16) -0.0870(11)
H19A H -0.433 0.182 -0.074
H20A H -0.376 0.063 -0.153
H21A H -0.279 0.074 0.170
H22A H -0.376 0.187 0.124
loop_
_geom_bond_atom_site_label_1
_geom_bond_atom_site_label_2
_geom_bond_site_symmetry_1
_geom_bond_site_symmetry_2
Sr1 N1 1_555 1_555
Si1 N1 1_555 1_555
Si2 N1 1_555 1_555
O1 C7 1_555 1_555
C1 Si1 1_555 1_555
C2 Si1 1_555 1_555
C3 Si1 1_555 1_555
C4 Si2 1_555 1_555
C5 Si2 1_555 1_555
C6 Si2 1_555 1_555
C7 H19 1_555 1_555
C8 O1 1_555 1_555
H1 C1 1_555 1_555
H2 C1 1_555 1_555
H3 C1 1_555 1_555
H4 C2 1_555 1_555
H5 C2 1_555 1_555
H6 C2 1_555 1_555
H7 C3 1_555 1_555
H8 C3 1_555 1_555
H9 C3 1_555 1_555
H10 C4 1_555 1_555
H11 C4 1_555 1_555
H12 C4 1_555 1_555
H13 C5 1_555 1_555
H14 C5 1_555 1_555
H15 C5 1_555 1_555
H16 C6 1_555 1_555
H17 C6 1_555 1_555
H18 C6 1_555 1_555
H20 C7 1_555 1_555
H21 C8 1_555 1_555
H22 C8 1_555 1_555
C8A C7 1_555 1_555
O1A Sr1 1_555 1_555
Sr1_2 O1 1_555 1_555
O1_2 Sr1 1_555 1_555
N1A Sr1 1_555 1_555
Si1A N1A 1_555 1_555
C1A Si1A 1_555 1_555
H1A C1A 1_555 1_555
H2A C1A 1_555 1_555
H3A C1A 1_555 1_555
C2A Si1A 1_555 1_555
H4A C2A 1_555 1_555
H5A C2A 1_555 1_555
H6A C2A 1_555 1_555
C3A Si1A 1_555 1_555
H7A C3A 1_555 1_555
H8A C3A 1_555 1_555
H9A C3A 1_555 1_555
Si2A N1A 1_555 1_555
C4A Si2A 1_555 1_555
H10A C4A 1_555 1_555
H11A C4A 1_555 1_555
H12A C4A 1_555 1_555
C5A Si2A 1_555 1_555
H13A C5A 1_555 1_555
H14A C5A 1_555 1_555
H15A C5A 1_555 1_555
C6A Si2A 1_555 1_555
H16A C6A 1_555 1_555
H17A C6A 1_555 1_555
H18A C6A 1_555 1_555
C7A C8 1_555 1_555
H19A C7A 1_555 1_555
H20A C7A 1_555 1_555
H21A C8A 1_555 1_555
H22A C8A 1_555 1_555
C8A O1A 1_555 1_555
O1A C7A 1_555 1_555

#END
