
#######################################################################
#
#                 Cambridge Crystallographic Data Centre
#                                CCDC 
#
#######################################################################
#
# If this CIF has been generated from an entry in the Cambridge 
# Structural Database, then it will include bibliographic, chemical, 
# crystal, experimental, refinement or atomic coordinate data resulting 
# from the CCDC's data processing and validation procedures.
#
#######################################################################

data_SOCQAD
_symmetry_cell_setting           hexagonal
_symmetry_space_group_name_H-M   'P 63'
_symmetry_Int_Tables_number      173
_space_group_name_Hall           'P 6c'
loop_
_symmetry_equiv_pos_site_id
_symmetry_equiv_pos_as_xyz
1 x,y,z
2 -y,x-y,z
3 -x+y,-x,z
4 -x,-y,1/2+z
5 y,-x+y,1/2+z
6 x-y,x,1/2+z
_cell_length_a                   14.1457(13)
_cell_length_b                   14.1457(13)
_cell_length_c                   7.6098(6)
_cell_angle_alpha                90
_cell_angle_beta                 90
_cell_angle_gamma                120
_cell_volume                     1318.72
loop_
_atom_site_label
_atom_site_type_symbol
_atom_site_fract_x
_atom_site_fract_y
_atom_site_fract_z
Cu1 Cu 0.3333 0.6667 0.2018(3)
I1 I 0.3333 0.6667 0.54703(7)
O1 O 0.0665(6) 0.2801(5) 0.5647(16)
N1 N 0.1863(6) 0.5343(6) 0.1264(14)
N2 N -0.0709(6) 0.2104(5) 0.378(2)
H1 H -0.1229 0.1494 0.3321
C1 C 0.1616(8) 0.5085(9) -0.0433(16)
H2 H 0.2153 0.5506 -0.1288
C2 C 0.0634(8) 0.4248(7) -0.1003(13)
H3 H 0.0512 0.4097 -0.2225
C3 C -0.0151(8) 0.3645(7) 0.0141(12)
H4 H -0.0843 0.3079 -0.0245
C4 C 0.0074(9) 0.3870(8) 0.1911(17)
C5 C 0.1108(8) 0.4731(9) 0.2417(15)
H5 H 0.1265 0.4875 0.3633
C6 C -0.0712(9) 0.3149(9) 0.3354(15)
H6 H -0.0538 0.3589 0.4443
H7 H -0.1462 0.2954 0.3002
C7 C -0.0017(8) 0.2044(7) 0.4741(17)
C8 C -0.0013(8) 0.0972(7) 0.4682(18)
C9 C 0.0969(8) 0.0989(7) 0.4701(17)
H8 H 0.1635 0.1666 0.4728
Cu1_2 Cu 0.3333 -0.3333 0.2018(3)
Cu1_3 Cu -0.6667 -0.3333 0.2018(3)
O1B O 0.2136(8) -0.0665(6) 0.5647(16)
O1A O -0.2801(5) -0.2136(8) 0.5647(16)
N1B N 0.3480(8) -0.1863(6) 0.1264(14)
N1A N -0.5343(6) -0.3480(8) 0.1264(14)
N1A_2 N 0.4657(6) 0.6520(8) 0.1264(14)
N1B_2 N 0.3480(8) 0.8137(6) 0.1264(14)
N2B N 0.2813(8) 0.0709(6) 0.378(2)
N2A N -0.2104(5) -0.2813(8) 0.378(2)
H1B H 0.2723 0.1229 0.3321
H1A H -0.1494 -0.2723 0.3321
C1B C 0.3469(12) -0.1616(8) -0.0433(16)
C1A C -0.5085(9) -0.3469(12) -0.0433(16)
H2B H 0.3353 -0.2153 -0.1288
H2A H -0.5506 -0.3353 -0.1288
C2B C 0.3614(11) -0.0634(8) -0.1003(13)
C2A C -0.4248(7) -0.3614(11) -0.1003(13)
H3B H 0.3585 -0.0512 -0.2225
H3A H -0.4097 -0.3585 -0.2225
C3B C 0.3796(11) 0.0151(8) 0.0141(12)
C3A C -0.3645(7) -0.3796(11) 0.0141(12)
H4B H 0.3922 0.0843 -0.0245
H4A H -0.3079 -0.3922 -0.0245
C4B C 0.3796(12) -0.0074(9) 0.1911(17)
C4A C -0.3870(8) -0.3796(12) 0.1911(17)
C5B C 0.3623(12) -0.1108(8) 0.2417(15)
C5A C -0.4731(9) -0.3623(12) 0.2417(15)
H5B H 0.3610 -0.1265 0.3633
H5A H -0.4875 -0.3610 0.3633
C6B C 0.3861(13) 0.0712(9) 0.3354(15)
C6A C -0.3149(9) -0.3861(13) 0.3354(15)
H6B H 0.4127 0.0538 0.4443
H6A H -0.3589 -0.4127 0.4443
H7B H 0.4416 0.1462 0.3002
H7A H -0.2954 -0.4416 0.3002
C7B C 0.2061(11) 0.0017(8) 0.4741(17)
C7A C -0.2044(7) -0.2061(11) 0.4741(17)
C8B C 0.0985(11) 0.0013(8) 0.4682(18)
C8A C -0.0972(7) -0.0985(11) 0.4682(18)
C9B C 0.0020(11) -0.0969(8) 0.4701(17)
C9A C -0.0989(7) -0.0020(11) 0.4701(17)
H8A H -0.1666 -0.0031 0.4728
H8B H 0.0031 -0.1635 0.4728
loop_
_geom_bond_atom_site_label_1
_geom_bond_atom_site_label_2
_geom_bond_site_symmetry_1
_geom_bond_site_symmetry_2
Cu1 I1 1_555 1_555
O1 C7 1_555 1_555
N1 Cu1 1_555 1_555
N2 H1 1_555 1_555
C1 N1 1_555 1_555
H2 C1 1_555 1_555
C2 C1 1_555 1_555
H3 C2 1_555 1_555
C3 C2 1_555 1_555
H4 C3 1_555 1_555
C4 C3 1_555 1_555
C5 N1 1_555 1_555
H5 C5 1_555 1_555
C6 N2 1_555 1_555
H6 C6 1_555 1_555
H7 C6 1_555 1_555
C7 N2 1_555 1_555
C8 C7 1_555 1_555
C9 C8 1_555 1_555
H8 C9 1_555 1_555
Cu1_2 N1B 1_555 1_555
Cu1_3 N1A 1_555 1_555
O1B C7B 1_555 1_555
O1A C7A 1_555 1_555
N1B C1B 1_555 1_555
N1A C1A 1_555 1_555
N1A_2 Cu1 1_555 1_555
N1B_2 Cu1 1_555 1_555
N2B H1B 1_555 1_555
N2A H1A 1_555 1_555
C1B H2B 1_555 1_555
C1A H2A 1_555 1_555
C2B C1B 1_555 1_555
C2A C1A 1_555 1_555
H3B C2B 1_555 1_555
H3A C2A 1_555 1_555
C3B C2B 1_555 1_555
C3A C2A 1_555 1_555
H4B C3B 1_555 1_555
H4A C3A 1_555 1_555
C4B C3B 1_555 1_555
C4A C3A 1_555 1_555
C5B N1B 1_555 1_555
C5A N1A 1_555 1_555
H5B C5B 1_555 1_555
H5A C5A 1_555 1_555
C6B N2B 1_555 1_555
C6A N2A 1_555 1_555
H6B C6B 1_555 1_555
H6A C6A 1_555 1_555
H7B C6B 1_555 1_555
H7A C6A 1_555 1_555
C7B N2B 1_555 1_555
C7A N2A 1_555 1_555
C8B C9 1_555 1_555
C8A C7A 1_555 1_555
C9B C8B 1_555 1_555
C9A C8 1_555 1_555
H8A C9A 1_555 1_555
H8B C9B 1_555 1_555
C4 C5 1_555 1_555
C4 C6 1_555 1_555
C4B C5B 1_555 1_555
C4B C6B 1_555 1_555
C4A C5A 1_555 1_555
C4A C6A 1_555 1_555
C7B C8B 1_555 1_555
C8A C9B 1_555 1_555
C8A C9A 1_555 1_555

#END
