
#######################################################################
#
#                 Cambridge Crystallographic Data Centre
#                                CCDC 
#
#######################################################################
#
# If this CIF has been generated from an entry in the Cambridge 
# Structural Database, then it will include bibliographic, chemical, 
# crystal, experimental, refinement or atomic coordinate data resulting 
# from the CCDC's data processing and validation procedures.
#
#######################################################################

data_SOCXIS
_symmetry_cell_setting           monoclinic
_symmetry_space_group_name_H-M   'P 21/c'
_symmetry_Int_Tables_number      14
_space_group_name_Hall           '-P 2ybc'
loop_
_symmetry_equiv_pos_site_id
_symmetry_equiv_pos_as_xyz
1 x,y,z
2 -x,1/2+y,1/2-z
3 -x,-y,-z
4 x,1/2-y,1/2+z
_cell_length_a                   10.758(7)
_cell_length_b                   7.158(4)
_cell_length_c                   16.4000(10)
_cell_angle_alpha                90
_cell_angle_beta                 98.9220(10)
_cell_angle_gamma                90
_cell_volume                     1247.61
loop_
_atom_site_label
_atom_site_type_symbol
_atom_site_fract_x
_atom_site_fract_y
_atom_site_fract_z
Zn1 Zn 0.11113(3) -0.09267(4) 0.698090(19)
C1 C 0.0427(3) -0.3819(4) 0.60575(17)
C2 C -0.0272(3) -0.5125(4) 0.54093(16)
H1 H -0.1162 -0.4772 0.5312
C3 C -0.0166(3) -0.7147(4) 0.57067(16)
H2 H -0.0762 -0.7907 0.5345
H3 H 0.0672 -0.7607 0.5672
C4 C -0.0416(3) -0.7361(4) 0.65795(16)
C5 C 0.3357(3) 0.1355(4) 0.6825(2)
H4 H 0.3040 0.2358 0.7089
C6 C 0.3556(3) -0.1342(5) 0.6272(2)
H5 H 0.3391 -0.2559 0.6087
C7 C 0.4592(3) -0.0352(5) 0.6193(2)
H6 H 0.5266 -0.0748 0.5943
C8 C 0.5309(4) 0.2955(5) 0.6553(2)
H7 H 0.6173 0.2527 0.6679
H8 H 0.5161 0.3816 0.6985
C9 C 0.5129(3) 0.3980(4) 0.5731(2)
C10 C 0.4052(3) 0.3845(5) 0.5154(2)
H9 H 0.3404 0.3058 0.5254
C11 C 0.6075(3) 0.5144(5) 0.5564(2)
H10 H 0.6810 0.5247 0.5943
N1 N 0.2773(2) -0.0254(4) 0.66722(15)
N2 N 0.4466(3) 0.1356(4) 0.65511(17)
O1 O -0.0051(2) -0.2223(3) 0.61248(12)
O2 O 0.1437(2) -0.4316(3) 0.64713(14)
O3 O -0.1222(2) -0.6295(3) 0.68199(12)
O4 O 0.0178(2) -0.8531(3) 0.70497(12)
Zn1B Zn 0.88887(3) 1.09267(4) 0.301910(19)
Zn1A Zn -0.11113(3) -0.59267(4) 0.801910(19)
Zn1_2 Zn 0.11113(3) -1.09267(4) 0.698090(19)
Zn1B_2 Zn -0.11113(3) -0.90733(4) 0.301910(19)
Zn1C Zn 0.11113(3) -0.40733(4) 0.198090(19)
Zn1B_3 Zn -0.11113(3) 0.09267(4) 0.301910(19)
C1B C -0.0427(3) -0.6181(4) 0.39425(17)
C2B C 0.0272(3) -0.4875(4) 0.45907(16)
H1B H 0.1162 -0.5228 0.4688
C3B C 0.0166(3) -0.2853(4) 0.42933(16)
H2B H 0.0762 -0.2093 0.4655
H3B H -0.0672 -0.2393 0.4328
C4B C 0.0416(3) -0.2639(4) 0.34205(16)
C5B C 0.6643(3) 0.8645(4) 0.3175(2)
H4B H 0.6960 0.7642 0.2911
C6B C 0.6444(3) 1.1342(5) 0.3728(2)
H5B H 0.6609 1.2559 0.3913
C7B C 0.5408(3) 1.0352(5) 0.3807(2)
H6B H 0.4734 1.0748 0.4057
C8B C 0.4691(4) 0.7045(5) 0.3447(2)
H7B H 0.3827 0.7473 0.3321
H8B H 0.4839 0.6184 0.3015
C9B C 0.4871(3) 0.6020(4) 0.4269(2)
C10B C 0.5948(3) 0.6155(5) 0.4846(2)
H9B H 0.6596 0.6942 0.4746
C11B C 0.3925(3) 0.4856(5) 0.4436(2)
H10B H 0.3190 0.4753 0.4057
N1B N 0.7227(2) 1.0254(4) 0.33278(15)
N2B N 0.5534(3) 0.8644(4) 0.34489(17)
O1B O 0.0051(2) -0.7777(3) 0.38752(12)
O1B_2 O 1.0051(2) 1.2223(3) 0.38752(12)
O2B O -0.1437(2) -0.5684(3) 0.35287(14)
O3B O 0.1222(2) -0.3705(3) 0.31801(12)
O3A O 0.1222(2) -0.1295(3) 0.81801(12)
O3C O 0.8778(2) 1.1295(3) 0.18199(12)
O4B O -0.0178(2) -0.1469(3) 0.29503(12)
O4_2 O 0.0178(2) 0.1469(3) 0.70497(12)
O4B_2 O 0.9822(2) 0.8531(3) 0.29503(12)
O5 O -0.2374(3) -0.0833(5) 0.6816(2)
H11 H -0.178(5) -0.152(7) 0.662(3)
H12 H -0.214(5) 0.015(6) 0.657(3)
loop_
_geom_bond_atom_site_label_1
_geom_bond_atom_site_label_2
_geom_bond_site_symmetry_1
_geom_bond_site_symmetry_2
Zn1 N1 1_555 1_555
C1 C2 1_555 1_555
C2 H1 1_555 1_555
C3 C2 1_555 1_555
H2 C3 1_555 1_555
H3 C3 1_555 1_555
C4 C3 1_555 1_555
C5 H4 1_555 1_555
C6 H5 1_555 1_555
C7 C6 1_555 1_555
H6 C7 1_555 1_555
C8 H7 1_555 1_555
H8 C8 1_555 1_555
C9 C8 1_555 1_555
C10 C9 1_555 1_555
H9 C10 1_555 1_555
C11 C9 1_555 1_555
H10 C11 1_555 1_555
N1 C5 1_555 1_555
N2 C5 1_555 1_555
O1 Zn1 1_555 1_555
O2 C1 1_555 1_555
O3 C4 1_555 1_555
O4 C4 1_555 1_555
O5 H11 1_555 1_555
H12 O5 1_555 1_555
Zn1B N1B 1_555 1_555
Zn1A O3 1_555 1_555
Zn1_2 O4 1_555 1_555
Zn1B_2 O1B 1_555 1_555
Zn1C O3B 1_555 1_555
Zn1B_3 O4B 1_555 1_555
C1B C2B 1_555 1_555
C2B C2 1_555 1_555
H1B C2B 1_555 1_555
C3B C2B 1_555 1_555
H2B C3B 1_555 1_555
H3B C3B 1_555 1_555
C4B C3B 1_555 1_555
C5B H4B 1_555 1_555
C6B H5B 1_555 1_555
C7B C6B 1_555 1_555
H6B C7B 1_555 1_555
C8B H7B 1_555 1_555
H8B C8B 1_555 1_555
C9B C8B 1_555 1_555
C10B C11 1_555 1_555
H9B C10B 1_555 1_555
C11B C10 1_555 1_555
H10B C11B 1_555 1_555
N1B C5B 1_555 1_555
N2B C5B 1_555 1_555
O1B C1B 1_555 1_555
O1B_2 Zn1B 1_555 1_555
O2B C1B 1_555 1_555
O3B C4B 1_555 1_555
O3A Zn1 1_555 1_555
O3C Zn1B 1_555 1_555
O4B C4B 1_555 1_555
O4_2 Zn1 1_555 1_555
O4B_2 Zn1B 1_555 1_555
C1 O1 1_555 1_555
C6 N1 1_555 1_555
C7 N2 1_555 1_555
C8 N2 1_555 1_555
C6B N1B 1_555 1_555
C7B N2B 1_555 1_555
C8B N2B 1_555 1_555
C9B C10B 1_555 1_555
C9B C11B 1_555 1_555

#END
