
#######################################################################
#
#                 Cambridge Crystallographic Data Centre
#                                CCDC 
#
#######################################################################
#
# If this CIF has been generated from an entry in the Cambridge 
# Structural Database, then it will include bibliographic, chemical, 
# crystal, experimental, refinement or atomic coordinate data resulting 
# from the CCDC's data processing and validation procedures.
#
#######################################################################

data_SOCYEP
_symmetry_cell_setting           orthorhombic
_symmetry_space_group_name_H-M   'F d d d'
_symmetry_Int_Tables_number      70
_space_group_name_Hall           '-F 2uv 2vw'
loop_
_symmetry_equiv_pos_site_id
_symmetry_equiv_pos_as_xyz
1 x,y,z
2 x,1/2+y,1/2+z
3 x,1/4-y,1/4-z
4 1/2+x,y,1/2+z
5 1/4-x,y,1/4-z
6 1/2+x,1/2+y,z
7 1/4-x,1/4-y,z
8 3/4-x,3/4-y,z
9 3/4-x,y,3/4-z
10 x,3/4-y,3/4-z
11 3/4-x,1/4-y,1/2+z
12 3/4-x,1/2+y,1/4-z
13 1/4-x,3/4-y,1/2+z
14 1/2+x,3/4-y,1/4-z
15 1/4-x,1/2+y,3/4-z
16 1/2+x,1/4-y,3/4-z
17 -x,-y,-z
18 -x,1/2-y,1/2-z
19 -x,3/4+y,3/4+z
20 1/2-x,-y,1/2-z
21 3/4+x,-y,3/4+z
22 1/2-x,1/2-y,-z
23 3/4+x,3/4+y,-z
24 1/4+x,1/4+y,-z
25 1/4+x,-y,1/4+z
26 -x,1/4+y,1/4+z
27 1/4+x,3/4+y,1/2-z
28 1/4+x,1/2-y,3/4+z
29 3/4+x,1/4+y,1/2-z
30 1/2-x,1/4+y,3/4+z
31 3/4+x,1/2-y,1/4+z
32 1/2-x,3/4+y,1/4+z
_cell_length_a                   13.979(3)
_cell_length_b                   19.700(5)
_cell_length_c                   36.094(9)
_cell_angle_alpha                90
_cell_angle_beta                 90
_cell_angle_gamma                90
_cell_volume                     9939.79
loop_
_atom_site_label
_atom_site_type_symbol
_atom_site_fract_x
_atom_site_fract_y
_atom_site_fract_z
Co1 Co 0.6250 0.6250 0.41717(4)
O1 O 0.1250 0.6250 0.5321(2)
O2 O 0.4917(4) 0.6681(3) 0.43038(17)
O3 O 0.5356(4) 0.5773(3) 0.46072(16)
N1 N 0.5781(5) 0.5550(3) 0.37786(19)
C1 C 0.2100(5) 0.6245(5) 0.5112(2)
C2 C 0.2268(6) 0.6704(5) 0.4844(3)
H1 H 0.1797 0.7016 0.4779
C3 C 0.3137(6) 0.6712(4) 0.4665(3)
H2 H 0.3255 0.7033 0.4482
C4 C 0.3839(5) 0.6243(4) 0.4756(2)
C5 C 0.3647(5) 0.5769(4) 0.5031(2)
H3 H 0.4107 0.5448 0.5093
C6 C 0.2785(6) 0.5769(5) 0.5212(2)
H4 H 0.2660 0.5456 0.5398
C7 C 0.4751(5) 0.6229(4) 0.4549(2)
C8 C 0.6197(10) 0.5020(8) 0.3670(5)
H5 H 0.6784 0.4910 0.3775
C9 C 0.5826(8) 0.4592(6) 0.3403(4)
H6 H 0.6223 0.4258 0.3305
C10 C 0.4955(8) 0.4631(7) 0.3282(4)
C11 C 0.4509(9) 0.5169(7) 0.3387(5)
H7 H 0.3886 0.5253 0.3309
C12 C 0.4988(13) 0.5626(6) 0.3622(4)
H8 H 0.4678 0.6036 0.3666
C13 C 0.4512(11) 0.4163(6) 0.3000(4)
H9 H 0.4992 0.3864 0.2895
H10 H 0.4221 0.4422 0.2801
C14 C 0.3750 0.3750 0.3209(6)
H11 H 0.3412 0.4064 0.3369
H12 H 0.4088 0.3436 0.3369
Co1_2 Co -0.3750 0.6250 0.41717(4)
Co1E Co 0.1250 0.1250 0.41717(4)
O2F O -0.2417(4) 0.5819(3) 0.43038(17)
O2F_2 O 0.7583(4) 0.5819(3) 0.43038(17)
O3F O -0.2856(4) 0.6727(3) 0.46072(16)
O3F_2 O 0.7144(4) 0.6727(3) 0.46072(16)
N1G N 0.1719(5) 0.1950(3) 0.37786(19)
N1F N 0.6719(5) 0.6950(3) 0.37786(19)
C1F C 0.0400(5) 0.6255(5) 0.5112(2)
C2F C 0.0232(6) 0.5796(5) 0.4844(3)
H1F H 0.0703 0.5484 0.4779
C3F C -0.0637(6) 0.5788(4) 0.4665(3)
H2F H -0.0755 0.5467 0.4482
C4F C -0.1339(5) 0.6257(4) 0.4756(2)
C5F C -0.1147(5) 0.6731(4) 0.5031(2)
H3F H -0.1607 0.7052 0.5093
C6F C -0.0285(6) 0.6731(5) 0.5212(2)
H4F H -0.0160 0.7044 0.5398
C7F C -0.2251(5) 0.6271(4) 0.4549(2)
C8G C 0.1303(10) 0.2480(8) 0.3670(5)
H5G H 0.0716 0.2590 0.3775
C9G C 0.1674(8) 0.2908(6) 0.3403(4)
H6G H 0.1277 0.3242 0.3305
C10G C 0.2545(8) 0.2869(7) 0.3282(4)
C11G C 0.2991(9) 0.2331(7) 0.3387(5)
H7G H 0.3614 0.2247 0.3309
C12G C 0.2512(13) 0.1874(6) 0.3622(4)
H8G H 0.2822 0.1464 0.3666
C13G C 0.2988(11) 0.3337(6) 0.3000(4)
H9G H 0.2508 0.3636 0.2895
H10G H 0.3279 0.3078 0.2801
O4 O 0.3750 0.7426(8) 0.3750
loop_
_geom_bond_atom_site_label_1
_geom_bond_atom_site_label_2
_geom_bond_site_symmetry_1
_geom_bond_site_symmetry_2
Co1 O2 1_555 1_555
O1 C1 1_555 1_555
O2 C7 1_555 1_555
O3 Co1 1_555 1_555
N1 Co1 1_555 1_555
C1 C2 1_555 1_555
C2 H1 1_555 1_555
C3 C2 1_555 1_555
H2 C3 1_555 1_555
C4 C3 1_555 1_555
C5 C4 1_555 1_555
H3 C5 1_555 1_555
C6 C1 1_555 1_555
H4 C6 1_555 1_555
C7 O3 1_555 1_555
C8 N1 1_555 1_555
H5 C8 1_555 1_555
C9 C8 1_555 1_555
H6 C9 1_555 1_555
C10 C9 1_555 1_555
C11 C10 1_555 1_555
H7 C11 1_555 1_555
C12 N1 1_555 1_555
H8 C12 1_555 1_555
C13 C10 1_555 1_555
H9 C13 1_555 1_555
H10 C13 1_555 1_555
C14 C13 1_555 1_555
H11 C14 1_555 1_555
H12 C14 1_555 1_555
Co1_2 O2F 1_555 1_555
Co1E N1G 1_555 1_555
O2F C7F 1_555 1_555
O2F_2 Co1 1_555 1_555
O3F Co1_2 1_555 1_555
O3F_2 Co1 1_555 1_555
N1G C8G 1_555 1_555
N1F Co1 1_555 1_555
C1F O1 1_555 1_555
C2F C1F 1_555 1_555
H1F C2F 1_555 1_555
C3F C2F 1_555 1_555
H2F C3F 1_555 1_555
C4F C3F 1_555 1_555
C5F C4F 1_555 1_555
H3F C5F 1_555 1_555
C6F C1F 1_555 1_555
H4F C6F 1_555 1_555
C7F O3F 1_555 1_555
C8G H5G 1_555 1_555
C9G C8G 1_555 1_555
H6G C9G 1_555 1_555
C10G C9G 1_555 1_555
C11G C10G 1_555 1_555
H7G C11G 1_555 1_555
C12G N1G 1_555 1_555
H8G C12G 1_555 1_555
C13G C14 1_555 1_555
H9G C13G 1_555 1_555
H10G C13G 1_555 1_555
C4 C7 1_555 1_555
C5 C6 1_555 1_555
C11 C12 1_555 1_555
C4F C7F 1_555 1_555
C5F C6F 1_555 1_555
C10G C13G 1_555 1_555
C11G C12G 1_555 1_555

#END
