
#######################################################################
#
#                 Cambridge Crystallographic Data Centre
#                                CCDC 
#
#######################################################################
#
# If this CIF has been generated from an entry in the Cambridge 
# Structural Database, then it will include bibliographic, chemical, 
# crystal, experimental, refinement or atomic coordinate data resulting 
# from the CCDC's data processing and validation procedures.
#
#######################################################################

data_SOCZOZ
_symmetry_cell_setting           monoclinic
_symmetry_space_group_name_H-M   'P 21/c'
_symmetry_Int_Tables_number      14
_space_group_name_Hall           '-P 2ybc'
loop_
_symmetry_equiv_pos_site_id
_symmetry_equiv_pos_as_xyz
1 x,y,z
2 -x,1/2+y,1/2-z
3 -x,-y,-z
4 x,1/2-y,1/2+z
_cell_length_a                   8.982(4)
_cell_length_b                   9.155(4)
_cell_length_c                   16.514(5)
_cell_angle_alpha                90
_cell_angle_beta                 114.18(3)
_cell_angle_gamma                90
_cell_volume                     1238.81
loop_
_atom_site_label
_atom_site_type_symbol
_atom_site_fract_x
_atom_site_fract_y
_atom_site_fract_z
Mn1 Mn 0.0000 -0.5000 -0.5000
Mn2 Mn 0.0049(1) -0.4279(1) -0.2978(1)
O1 O 0.1516(5) -0.3854(5) -0.3764(3)
O2 O 0.3412(6) -0.2431(6) -0.2815(3)
O3 O 0.0632(6) -0.2440(5) -0.7021(3)
O4 O -0.0721(6) -0.6029(5) -0.4016(3)
O5 O -0.1887(6) -0.3368(5) -0.5244(3)
O6 O -0.1770(6) -0.2798(5) -0.3913(3)
O7 O -0.1781(6) -0.4905(6) -0.2484(3)
O8 O 0.2187(5) -0.5507(5) -0.2085(3)
C1 C 0.2958(8) -0.3283(8) -0.3443(4)
C2 C 0.4096(9) -0.3710(9) -0.3860(5)
C3 C 0.0783(8) -0.2656(7) -0.6252(4)
C4 C 0.1053(11) -0.1437(8) -0.5618(5)
C5 C -0.2408(8) -0.2714(7) -0.4744(4)
C6 C -0.3902(10) -0.1783(9) -0.5182(5)
H1 H -0.2436 -0.4335 -0.2328
H2 H -0.2497 -0.5589 -0.2807
H3 H 0.1910 -0.5983 -0.1691
H4 H 0.2356 -0.6253 -0.2392
H5 H 0.5118 -0.3215 -0.3558
H6 H 0.4272 -0.4746 -0.3813
H7 H 0.3629 -0.3431 -0.4474
H8 H 0.1077 -0.0533 -0.5906
H9 H 0.2074 -0.1573 -0.5115
H10 H 0.0183 -0.1412 -0.5423
H11 H -0.4263 -0.1820 -0.5814
H12 H -0.4753 -0.2136 -0.5024
H13 H -0.3641 -0.0794 -0.4982
Mn2C Mn 0.0049(1) -0.0721(1) -0.7978(1)
O3C O 0.0632(6) -0.2560(5) -0.2021(3)
O4B O 0.0721(6) -0.3971(5) -0.5984(3)
O1B O -0.1516(5) -0.6146(5) -0.6236(3)
C3B C -0.0783(8) -0.7344(7) -0.3748(4)
O5B O 0.1887(6) -0.6632(5) -0.4756(3)
C5B C 0.2408(8) -0.7286(7) -0.5256(4)
O6B O 0.1770(6) -0.7202(5) -0.6087(3)
Mn2B Mn -0.0049(1) -0.5721(1) -0.7022(1)
O3A O -0.0632(6) -0.7440(5) -0.7979(3)
O7B O 0.1781(6) -0.5095(6) -0.7516(3)
H1B H 0.2436 -0.5665 -0.7672
H2B H 0.2497 -0.4411 -0.7193
O8B O -0.2187(5) -0.4493(5) -0.7915(3)
H3B H -0.1910 -0.4017 -0.8309
H4B H -0.2356 -0.3747 -0.7608
C6B C 0.3902(10) -0.8217(9) -0.4818(5)
H11B H 0.4263 -0.8180 -0.4186
H12B H 0.4753 -0.7864 -0.4976
H13B H 0.3641 -0.9206 -0.5018
C1B C -0.2958(8) -0.6717(8) -0.6557(4)
O3B O -0.0632(6) -0.7560(5) -0.2979(3)
C4B C -0.1053(11) -0.8563(8) -0.4382(5)
O2B O -0.3412(6) -0.7569(6) -0.7185(3)
C2B C -0.4096(9) -0.6290(9) -0.6140(5)
Mn2A Mn -0.0049(1) -0.9279(1) -0.2022(1)
H8B H -0.1077 -0.9467 -0.4094
H9B H -0.2074 -0.8427 -0.4885
H10B H -0.0183 -0.8588 -0.4577
H5B H -0.5118 -0.6785 -0.6442
H6B H -0.4272 -0.5254 -0.6187
H7B H -0.3629 -0.6569 -0.5526
O9 O 0.3249(6) -0.7433(6) -0.2994(3)
H14 H 0.4332 -0.7449 -0.2842
H15 H 0.2816 -0.7376 -0.3590
loop_
_geom_bond_atom_site_label_1
_geom_bond_atom_site_label_2
_geom_bond_site_symmetry_1
_geom_bond_site_symmetry_2
Mn1 O1 1_555 1_555
Mn2 O1 1_555 1_555
O1 C1 1_555 1_555
O2 C1 1_555 1_555
O3 C3 1_555 1_555
O4 Mn1 1_555 1_555
O5 Mn1 1_555 1_555
O6 Mn2 1_555 1_555
O7 Mn2 1_555 1_555
O8 Mn2 1_555 1_555
C1 C2 1_555 1_555
C2 H5 1_555 1_555
C3 C4 1_555 1_555
C4 H8 1_555 1_555
C5 O5 1_555 1_555
C6 C5 1_555 1_555
H1 O7 1_555 1_555
H2 O7 1_555 1_555
H3 O8 1_555 1_555
H4 O8 1_555 1_555
H6 C2 1_555 1_555
H7 C2 1_555 1_555
H9 C4 1_555 1_555
H10 C4 1_555 1_555
H11 C6 1_555 1_555
H12 C6 1_555 1_555
H13 C6 1_555 1_555
O9 H14 1_555 1_555
H15 O9 1_555 1_555
Mn2C O3 1_555 1_555
O3C Mn2 1_555 1_555
O4B Mn1 1_555 1_555
O1B Mn1 1_555 1_555
C3B O4 1_555 1_555
O5B Mn1 1_555 1_555
C5B O5B 1_555 1_555
O6B C5B 1_555 1_555
Mn2B O4B 1_555 1_555
O3A Mn2B 1_555 1_555
O7B Mn2B 1_555 1_555
H1B O7B 1_555 1_555
H2B O7B 1_555 1_555
O8B Mn2B 1_555 1_555
H3B O8B 1_555 1_555
H4B O8B 1_555 1_555
C6B C5B 1_555 1_555
H11B C6B 1_555 1_555
H12B C6B 1_555 1_555
H13B C6B 1_555 1_555
C1B O1B 1_555 1_555
O3B C3B 1_555 1_555
C4B C3B 1_555 1_555
O2B C1B 1_555 1_555
C2B C1B 1_555 1_555
Mn2A O3B 1_555 1_555
H8B C4B 1_555 1_555
H9B C4B 1_555 1_555
H10B C4B 1_555 1_555
H5B C2B 1_555 1_555
H6B C2B 1_555 1_555
H7B C2B 1_555 1_555
Mn2 O4 1_555 1_555
O6 C5 1_555 1_555
C3 O4B 1_555 1_555
O1B Mn2B 1_555 1_555
O6B Mn2B 1_555 1_555

#END
