
#######################################################################
#
#                 Cambridge Crystallographic Data Centre
#                                CCDC 
#
#######################################################################
#
# If this CIF has been generated from an entry in the Cambridge 
# Structural Database, then it will include bibliographic, chemical, 
# crystal, experimental, refinement or atomic coordinate data resulting 
# from the CCDC's data processing and validation procedures.
#
#######################################################################

data_SODDOE
_symmetry_cell_setting           tetragonal
_symmetry_space_group_name_H-M   'P 41 21 2'
_symmetry_Int_Tables_number      92
_space_group_name_Hall           'P 4abw 2nw'
loop_
_symmetry_equiv_pos_site_id
_symmetry_equiv_pos_as_xyz
1 x,y,z
2 -x,-y,1/2+z
3 1/2+x,1/2-y,3/4-z
4 1/2-x,1/2+y,1/4-z
5 -y,-x,1/2-z
6 y,x,-z
7 1/2+y,1/2-x,3/4+z
8 1/2-y,1/2+x,1/4+z
_cell_length_a                   15.564(3)
_cell_length_b                   15.564(3)
_cell_length_c                   11.166(5)
_cell_angle_alpha                90
_cell_angle_beta                 90
_cell_angle_gamma                90
_cell_volume                     2704.83
loop_
_atom_site_label
_atom_site_type_symbol
_atom_site_fract_x
_atom_site_fract_y
_atom_site_fract_z
B2 B -0.7638(6) -0.2715(6) -0.6553(9)
F5 F -0.7543(10) -0.2092(7) -0.5824(11)
F6 F -0.7805(9) -0.2428(9) -0.7602(9)
F7 F -0.8259(7) -0.3192(8) -0.6201(14)
F8 F -0.6949(5) -0.3160(8) -0.6595(15)
B2D B -0.7285(6) -0.2362(6) -0.8447(9)
F5D F -0.7908(7) -0.2457(10) -0.9176(11)
F6D F -0.7572(9) -0.2195(9) -0.7398(9)
F7D F -0.6808(8) -0.1741(7) -0.8799(14)
F8D F -0.6840(8) -0.3051(5) -0.8405(15)
Ag1 Ag 0.42158(7) 0.00123(8) 0.49999(9)
N1 N 0.3263(7) -0.0023(6) 0.6710(9)
C1 C 0.2407(7) 0.0065(6) 0.6671(11)
H1 H 0.2171 0.0325 0.5997
C2 C 0.1870(6) -0.0190(7) 0.7524(9)
H2 H 0.1277 -0.0139 0.7448
C3 C 0.2245(9) -0.0533(7) 0.8517(12)
H3 H 0.1910 -0.0675 0.9178
C4 C 0.3103(10) -0.0667(7) 0.8545(11)
H4 H 0.3351 -0.0949 0.9192
N2 N 0.3592(6) -0.0394(6) 0.7642(8)
N3 N 0.4559(6) -0.1356(6) 0.4814(8)
C5 C 0.4380(7) -0.1860(6) 0.3887(10)
H5 H 0.4071 -0.1628 0.3252
C6 C 0.4627(5) -0.2703(8) 0.3818(14)
H6 H 0.4469 -0.3025 0.3152
C7 C 0.5097(8) -0.3077(7) 0.4697(9)
H7 H 0.5310 -0.3635 0.4658
C8 C 0.5220(9) -0.2537(7) 0.5648(12)
H8 H 0.5491 -0.2767 0.6318
N4 N 0.4988(8) -0.1704(6) 0.5707(9)
N2F N 0.4606(6) 0.1408(6) 0.5142(8)
N4F N 0.3296(6) 0.0012(8) 0.3207(9)
Ag1G Ag 0.49877(8) -0.07842(7) 0.74999(9)
B1 B -0.4669(6) -0.5120(6) -0.7645(9)
F1 F -0.4200(4) -0.5800(4) -0.7500
F2 F -0.5289(6) -0.5141(10) -0.6881(10)
F3 F -0.5001(9) -0.5163(11) -0.8703(8)
F4 F -0.4189(8) -0.4473(6) -0.737(2)
B1D B -0.4880(6) -0.5331(6) -0.7355(9)
F2D F -0.4859(10) -0.4711(6) -0.8119(10)
F3D F -0.4837(11) -0.4999(9) -0.6297(8)
F4D F -0.5527(6) -0.5811(8) -0.763(2)
loop_
_geom_bond_atom_site_label_1
_geom_bond_atom_site_label_2
_geom_bond_site_symmetry_1
_geom_bond_site_symmetry_2
B1 F1 1_555 1_555
F1 B1D 1_555 1_555
F2 B1 1_555 1_555
F3 B1 1_555 1_555
F4 B1 1_555 1_555
B2 F5 1_555 1_555
F6 B2 1_555 1_555
F7 B2 1_555 1_555
F8 B2 1_555 1_555
Ag1 N1 1_555 1_555
N1 C1 1_555 1_555
C1 H1 1_555 1_555
C2 C1 1_555 1_555
H2 C2 1_555 1_555
C3 C2 1_555 1_555
H3 C3 1_555 1_555
C4 C3 1_555 1_555
H4 C4 1_555 1_555
N2 N1 1_555 1_555
N3 Ag1 1_555 1_555
C5 N3 1_555 1_555
H5 C5 1_555 1_555
C6 C5 1_555 1_555
H6 C6 1_555 1_555
C7 C6 1_555 1_555
H7 C7 1_555 1_555
C8 C7 1_555 1_555
H8 C8 1_555 1_555
N4 N3 1_555 1_555
B1D B1 1_555 1_555
F2D B1 1_555 1_555
F3D B1 1_555 1_555
F4D B1 1_555 1_555
B2D F6 1_555 1_555
F5D B2D 1_555 1_555
F6D B2 1_555 1_555
F7D B2D 1_555 1_555
F8D B2D 1_555 1_555
N2F Ag1 1_555 1_555
N4F Ag1 1_555 1_555
Ag1G N2 1_555 1_555
F2 B1D 1_555 1_555
F2 F2D 1_555 1_555
F2 F3D 1_555 1_555
F2 F4D 1_555 1_555
F3 B1D 1_555 1_555
F3 F2D 1_555 1_555
F4 B1D 1_555 1_555
F4 F2D 1_555 1_555
F6 F6D 1_555 1_555
C4 N2 1_555 1_555
C8 N4 1_555 1_555
N4 Ag1G 1_555 1_555
B1D F2D 1_555 1_555
B1D F3D 1_555 1_555
B1D F4D 1_555 1_555
B2D F6D 1_555 1_555

#END
