
#######################################################################
#
#                 Cambridge Crystallographic Data Centre
#                                CCDC 
#
#######################################################################
#
# If this CIF has been generated from an entry in the Cambridge 
# Structural Database, then it will include bibliographic, chemical, 
# crystal, experimental, refinement or atomic coordinate data resulting 
# from the CCDC's data processing and validation procedures.
#
#######################################################################

data_SODFEX
_symmetry_cell_setting           monoclinic
_symmetry_space_group_name_H-M   'P 21/c'
_symmetry_Int_Tables_number      14
_space_group_name_Hall           '-P 2ybc'
loop_
_symmetry_equiv_pos_site_id
_symmetry_equiv_pos_as_xyz
1 x,y,z
2 -x,1/2+y,1/2-z
3 -x,-y,-z
4 x,1/2-y,1/2+z
_cell_length_a                   10.037(2)
_cell_length_b                   32.631(7)
_cell_length_c                   8.6398(17)
_cell_angle_alpha                90
_cell_angle_beta                 115.30(3)
_cell_angle_gamma                90
_cell_volume                     2558.27
loop_
_atom_site_label
_atom_site_type_symbol
_atom_site_fract_x
_atom_site_fract_y
_atom_site_fract_z
Cu1 Cu 0.07875(9) 0.12612(3) 0.41578(11)
Cl1 Cl 0.08491(19) 0.12560(6) 0.1483(2)
Cl2 Cl -0.16438(18) 0.12057(6) 0.3885(2)
N1 N 0.1067(6) 0.06415(17) 0.4208(8)
N2 N 0.2331(7) 0.04822(19) 0.5330(9)
N3 N 0.2305(7) 0.0080(2) 0.4959(9)
N4 N 0.2554(5) 0.12909(18) 0.6503(7)
N5 N 0.2520(6) 0.13099(18) 0.7998(7)
N6 N 0.3912(6) 0.13020(18) 0.9197(7)
N7 N 0.0763(7) 0.31168(16) 0.9134(8)
N8 N 0.1815(6) 0.29027(19) 1.0358(8)
N9 N 0.1546(7) 0.25034(18) 0.9980(9)
C1 C 0.0247(8) 0.0346(2) 0.3098(10)
C2 C -0.1125(9) 0.0355(2) 0.1730(11)
H1 H -0.1681 0.0594 0.1413
C3 C -0.1635(10) -0.0009(3) 0.0853(11)
H2 H -0.2538 -0.0011 -0.0105
C4 C -0.0815(11) -0.0380(3) 0.1377(12)
H3 H -0.1211 -0.0619 0.0771
C5 C 0.0486(10) -0.0394(2) 0.2694(12)
H4 H 0.1022 -0.0636 0.3041
C6 C 0.1020(9) -0.0016(3) 0.3553(10)
C7 C 0.3612(8) -0.0175(2) 0.5989(11)
H5 H 0.4081 -0.0071 0.7151
H6 H 0.3306 -0.0455 0.6032
C8 C 0.4674(13) -0.0166(3) 0.5211(16)
H7 H 0.5493 -0.0334 0.5961
H8 H 0.4197 -0.0320 0.4156
C9 C 0.3987(7) 0.1271(2) 0.6759(8)
C10 C 0.4600(8) 0.1263(2) 0.5572(9)
H9 H 0.4015 0.1267 0.4398
C11 C 0.6118(8) 0.1248(3) 0.6240(9)
H10 H 0.6561 0.1249 0.5489
C12 C 0.6991(7) 0.1230(3) 0.7947(10)
H11 H 0.8006 0.1207 0.8329
C13 C 0.6405(7) 0.1246(2) 0.9123(9)
H12 H 0.6993 0.1237 1.0296
C14 C 0.4872(7) 0.1277(2) 0.8445(9)
C15 C 0.4253(8) 0.1363(2) 1.1021(9)
H13 H 0.4964 0.1159 1.1704
H14 H 0.3363 0.1325 1.1185
C16 C 0.4869(7) 0.1788(2) 1.1628(9)
H15 H 0.5058 0.1817 1.2822
H16 H 0.5803 0.1815 1.1555
C17 C -0.0126(8) 0.2846(2) 0.7949(10)
C18 C -0.1374(8) 0.2916(2) 0.6419(10)
H17 H -0.1719 0.3179 0.6044
C19 C -0.2060(9) 0.2572(3) 0.5501(11)
H18 H -0.2891 0.2605 0.4471
C20 C -0.1553(9) 0.2174(3) 0.6062(11)
H19 H -0.2067 0.1952 0.5401
C21 C -0.0318(9) 0.2102(2) 0.7561(11)
H20 H 0.0050 0.1841 0.7932
C22 C 0.0319(8) 0.2450(2) 0.8451(10)
C23 C 0.2598(8) 0.2198(2) 1.1094(9)
H21 H 0.2988 0.2291 1.2272
H22 H 0.2088 0.1941 1.1015
C24 C 0.3852(9) 0.2129(2) 1.0606(11)
H23 H 0.454(5) 0.2421(15) 1.097(6)
H24 H 0.354(7) 0.2088(19) 0.928(9)
Cu1B Cu 0.92125(9) -0.12612(3) 0.58422(11)
Cu1C Cu 0.07875(9) 0.37388(3) 0.91578(11)
Cu1C_2 Cu 0.07875(9) 0.37388(3) -0.08422(11)
Cl1B Cl 0.91509(19) -0.12560(6) 0.8517(2)
Cl2B Cl 1.16438(18) -0.12057(6) 0.6115(2)
N1B N 0.8933(6) -0.06415(17) 0.5792(8)
N2B N 0.7669(7) -0.04822(19) 0.4670(9)
N3B N 0.7695(7) -0.0080(2) 0.5041(9)
N4C N 0.2554(5) 0.37091(18) 0.1503(7)
N4B N 0.7446(5) -0.12909(18) 0.3497(7)
N5C N 0.2520(6) 0.36901(18) 0.2998(7)
N6C N 0.3912(6) 0.36980(18) 0.4197(7)
N7C N 0.0763(7) 0.18832(16) 0.4134(8)
N7A N 0.9237(7) -0.18832(16) 0.5866(8)
N8C N 0.1815(6) 0.20973(19) 0.5358(8)
N9C N 0.1546(7) 0.24966(18) 0.4980(9)
C1B C 0.9753(8) -0.0346(2) 0.6902(10)
C2B C 1.1125(9) -0.0355(2) 0.8270(11)
H1B H 1.1681 -0.0594 0.8587
C3B C 1.1635(10) 0.0009(3) 0.9147(11)
H2B H 1.2538 0.0011 1.0105
C4B C 1.0815(11) 0.0380(3) 0.8623(12)
H3B H 1.1211 0.0619 0.9229
C5B C 0.9514(10) 0.0394(2) 0.7306(12)
H4B H 0.8978 0.0636 0.6959
C6B C 0.8980(9) 0.0016(3) 0.6447(10)
C7B C 0.6388(8) 0.0175(2) 0.4011(11)
H5B H 0.5919 0.0071 0.2849
H6B H 0.6694 0.0455 0.3968
C8B C 0.5326(13) 0.0166(3) 0.4789(16)
H7B H 0.4507 0.0334 0.4039
H8B H 0.5803 0.0320 0.5844
C9C C 0.3987(7) 0.3729(2) 0.1759(8)
C10C C 0.4600(8) 0.3737(2) 0.0572(9)
H9C H 0.4015 0.3733 -0.0602
C11C C 0.6118(8) 0.3752(3) 0.1240(9)
H10C H 0.6561 0.3751 0.0489
C12C C 0.6991(7) 0.3770(3) 0.2947(10)
H11C H 0.8006 0.3793 0.3329
C13C C 0.6405(7) 0.3754(2) 0.4123(9)
H12C H 0.6993 0.3763 0.5296
C14C C 0.4872(7) 0.3723(2) 0.3445(9)
C15C C 0.4253(8) 0.3637(2) 0.6021(9)
H13C H 0.4964 0.3841 0.6704
H14C H 0.3363 0.3675 0.6185
C16C C 0.4869(7) 0.3212(2) 0.6628(9)
H15C H 0.5058 0.3183 0.7822
H16C H 0.5803 0.3185 0.6555
C17C C -0.0126(8) 0.2154(2) 0.2949(10)
C18C C -0.1374(8) 0.2084(2) 0.1419(10)
H17C H -0.1719 0.1821 0.1044
C19C C -0.2060(9) 0.2428(3) 0.0501(11)
H18C H -0.2891 0.2395 -0.0529
C20C C -0.1553(9) 0.2826(3) 0.1062(11)
H19C H -0.2067 0.3048 0.0401
C21C C -0.0318(9) 0.2898(2) 0.2561(11)
H20C H 0.0050 0.3159 0.2932
C22C C 0.0319(8) 0.2550(2) 0.3451(10)
C23C C 0.2598(8) 0.2802(2) 0.6094(9)
H21C H 0.2988 0.2709 0.7272
H22C H 0.2088 0.3059 0.6015
C24C C 0.3852(9) 0.2871(2) 0.5606(11)
H23C H 0.454(5) 0.2579(15) 0.597(6)
H24C H 0.354(7) 0.2912(19) 0.428(9)
loop_
_geom_bond_atom_site_label_1
_geom_bond_atom_site_label_2
_geom_bond_site_symmetry_1
_geom_bond_site_symmetry_2
Cu1 Cl1 1_555 1_555
Cl2 Cu1 1_555 1_555
N1 Cu1 1_555 1_555
N2 N1 1_555 1_555
N3 N2 1_555 1_555
N4 Cu1 1_555 1_555
N5 N4 1_555 1_555
N6 N5 1_555 1_555
N7 N8 1_555 1_555
N8 N9 1_555 1_555
N9 C22 1_555 1_555
C1 N1 1_555 1_555
C2 C1 1_555 1_555
H1 C2 1_555 1_555
C3 C2 1_555 1_555
H2 C3 1_555 1_555
C4 C3 1_555 1_555
H3 C4 1_555 1_555
C5 C4 1_555 1_555
H4 C5 1_555 1_555
C6 N3 1_555 1_555
C7 N3 1_555 1_555
H5 C7 1_555 1_555
H6 C7 1_555 1_555
C8 C7 1_555 1_555
H7 C8 1_555 1_555
H8 C8 1_555 1_555
C9 N4 1_555 1_555
C10 C9 1_555 1_555
H9 C10 1_555 1_555
C11 C10 1_555 1_555
H10 C11 1_555 1_555
C12 C11 1_555 1_555
H11 C12 1_555 1_555
C13 C12 1_555 1_555
H12 C13 1_555 1_555
C14 N6 1_555 1_555
C15 N6 1_555 1_555
H13 C15 1_555 1_555
H14 C15 1_555 1_555
C16 C15 1_555 1_555
H15 C16 1_555 1_555
H16 C16 1_555 1_555
C17 N7 1_555 1_555
C18 C17 1_555 1_555
H17 C18 1_555 1_555
C19 C18 1_555 1_555
H18 C19 1_555 1_555
C20 C19 1_555 1_555
H19 C20 1_555 1_555
C21 C20 1_555 1_555
H20 C21 1_555 1_555
C22 C17 1_555 1_555
C23 N9 1_555 1_555
H21 C23 1_555 1_555
H22 C23 1_555 1_555
C24 C16 1_555 1_555
H23 C24 1_555 1_555
H24 C24 1_555 1_555
Cu1B Cl1B 1_555 1_555
Cu1C N7 1_555 1_555
Cu1C_2 N4C 1_555 1_555
Cl2B Cu1B 1_555 1_555
N1B Cu1B 1_555 1_555
N2B N1B 1_555 1_555
N3B N2B 1_555 1_555
N4C N5C 1_555 1_555
N4B Cu1B 1_555 1_555
N5C N6C 1_555 1_555
N6C C14C 1_555 1_555
N7C Cu1 1_555 1_555
N7A Cu1B 1_555 1_555
N8C N7C 1_555 1_555
N9C N8C 1_555 1_555
C1B N1B 1_555 1_555
C2B C1B 1_555 1_555
H1B C2B 1_555 1_555
C3B C2B 1_555 1_555
H2B C3B 1_555 1_555
C4B C3B 1_555 1_555
H3B C4B 1_555 1_555
C5B C4B 1_555 1_555
H4B C5B 1_555 1_555
C6B N3B 1_555 1_555
C7B N3B 1_555 1_555
H5B C7B 1_555 1_555
H6B C7B 1_555 1_555
C8B C8 1_555 1_555
H7B C8B 1_555 1_555
H8B C8B 1_555 1_555
C9C N4C 1_555 1_555
C10C C9C 1_555 1_555
H9C C10C 1_555 1_555
C11C C10C 1_555 1_555
H10C C11C 1_555 1_555
C12C C11C 1_555 1_555
H11C C12C 1_555 1_555
C13C C12C 1_555 1_555
H12C C13C 1_555 1_555
C14C C9C 1_555 1_555
C15C N6C 1_555 1_555
H13C C15C 1_555 1_555
H14C C15C 1_555 1_555
C16C C15C 1_555 1_555
H15C C16C 1_555 1_555
H16C C16C 1_555 1_555
C17C N7C 1_555 1_555
C18C C17C 1_555 1_555
H17C C18C 1_555 1_555
C19C C18C 1_555 1_555
H18C C19C 1_555 1_555
C20C C19C 1_555 1_555
H19C C20C 1_555 1_555
C21C C20C 1_555 1_555
H20C C21C 1_555 1_555
C22C N9C 1_555 1_555
C23C N9C 1_555 1_555
H21C C23C 1_555 1_555
H22C C23C 1_555 1_555
C24C C16C 1_555 1_555
H23C C24C 1_555 1_555
H24C C24C 1_555 1_555
C1 C6 1_555 1_555
C5 C6 1_555 1_555
C9 C14 1_555 1_555
C13 C14 1_555 1_555
C21 C22 1_555 1_555
C23 C24 1_555 1_555
C1B C6B 1_555 1_555
C5B C6B 1_555 1_555
C7B C8B 1_555 1_555
C13C C14C 1_555 1_555
C17C C22C 1_555 1_555
C21C C22C 1_555 1_555
C23C C24C 1_555 1_555

#END
