
#######################################################################
#
#                 Cambridge Crystallographic Data Centre
#                                CCDC 
#
#######################################################################
#
# If this CIF has been generated from an entry in the Cambridge 
# Structural Database, then it will include bibliographic, chemical, 
# crystal, experimental, refinement or atomic coordinate data resulting 
# from the CCDC's data processing and validation procedures.
#
#######################################################################

data_SODLON
_symmetry_cell_setting           orthorhombic
_symmetry_space_group_name_H-M   'C m c a'
_symmetry_Int_Tables_number      64
_space_group_name_Hall           '-C 2ac 2'
loop_
_symmetry_equiv_pos_site_id
_symmetry_equiv_pos_as_xyz
1 x,y,z
2 1/2+x,1/2+y,z
3 -x,1/2-y,1/2+z
4 -x,1/2+y,1/2-z
5 x,-y,-z
6 1/2-x,-y,1/2+z
7 1/2-x,y,1/2-z
8 1/2+x,1/2-y,-z
9 -x,-y,-z
10 1/2-x,1/2-y,-z
11 x,1/2+y,1/2-z
12 x,1/2-y,1/2+z
13 -x,y,z
14 1/2+x,y,1/2-z
15 1/2+x,-y,1/2+z
16 1/2-x,1/2+y,z
_cell_length_a                   11.664(3)
_cell_length_b                   15.697(5)
_cell_length_c                   17.263(5)
_cell_angle_alpha                90
_cell_angle_beta                 90
_cell_angle_gamma                90
_cell_volume                     3160.68
loop_
_atom_site_label
_atom_site_type_symbol
_atom_site_fract_x
_atom_site_fract_y
_atom_site_fract_z
Cu1 Cu 0.5000 0.06328(3) 0.37095(3)
O1 O 0.5000 0.1686(2) 0.3114(2)
O2 O 0.5000 0.2459(2) 0.4191(2)
O3 O 0.5000 0.4767(2) 0.2362(2)
O4 O 0.5000 0.4349(2) 0.11605(19)
N1 N 0.3365(2) 0.07403(17) 0.40457(16)
N2 N 0.0000 0.1180(3) 0.4783(2)
H1 H 0.0000 0.155(3) 0.517(2)
C1 C 0.3105(3) 0.1156(3) 0.4693(2)
H2 H 0.3700 0.1358 0.5001
C2 C 0.1998(3) 0.1300(3) 0.4929(2)
H3 H 0.1862 0.1606 0.5381
C3 C 0.1083(3) 0.0998(2) 0.45019(19)
C4 C 0.1355(3) 0.0535(3) 0.3848(3)
H4 H 0.0778 0.0294 0.3547
C5 C 0.2488(4) 0.0431(3) 0.3645(3)
H5 H 0.2650 0.0124 0.3197
C6 C 0.5000 0.2393(3) 0.3468(3)
C7 C 0.5000 0.3218(3) 0.3011(3)
H6 H 0.4333 0.3537 0.3180
H7 H 0.5667 0.3537 0.3180
C8 C 0.5000 0.3245(3) 0.2145(3)
C9 C 0.5000 0.4182(3) 0.1883(3)
C10 C 0.6033(8) 0.2824(4) 0.1814(4)
H8 H 0.6001 0.2849 0.1258
H9 H 0.6055 0.2239 0.1977
H10 H 0.6710 0.3111 0.1992
Cu1J Cu 0.5000 0.56328(3) 0.12905(3)
Cu1_2 Cu -0.5000 0.06328(3) 0.37095(3)
O3J O 0.5000 -0.0233(2) 0.2638(2)
O4J O 0.5000 -0.0651(2) 0.38395(19)
N1L N -0.3365(2) 0.07403(17) 0.40457(16)
N1L_2 N 0.6635(2) 0.07403(17) 0.40457(16)
C1L C -0.3105(3) 0.1156(3) 0.4693(2)
H2L H -0.3700 0.1358 0.5001
C2L C -0.1998(3) 0.1300(3) 0.4929(2)
H3L H -0.1862 0.1606 0.5381
C3L C -0.1083(3) 0.0998(2) 0.45019(19)
C4L C -0.1355(3) 0.0535(3) 0.3848(3)
H4L H -0.0778 0.0294 0.3547
C5L C -0.2488(4) 0.0431(3) 0.3645(3)
H5L H -0.2650 0.0124 0.3197
C10L C 0.3967(8) 0.2824(4) 0.1814(4)
H8L H 0.3999 0.2849 0.1258
H9L H 0.3945 0.2239 0.1977
H10L H 0.3290 0.3111 0.1992
loop_
_geom_bond_atom_site_label_1
_geom_bond_atom_site_label_2
_geom_bond_site_symmetry_1
_geom_bond_site_symmetry_2
Cu1 O1 1_555 1_555
O1 C6 1_555 1_555
O2 C6 1_555 1_555
O3 C9 1_555 1_555
O4 C9 1_555 1_555
N1 Cu1 1_555 1_555
N2 H1 1_555 1_555
C1 N1 1_555 1_555
H2 C1 1_555 1_555
C2 C1 1_555 1_555
H3 C2 1_555 1_555
C3 N2 1_555 1_555
C4 C3 1_555 1_555
H4 C4 1_555 1_555
C5 N1 1_555 1_555
H5 C5 1_555 1_555
C6 C7 1_555 1_555
C7 H6 1_555 1_555
H7 C7 1_555 1_555
C8 C7 1_555 1_555
C9 C8 1_555 1_555
C10 C8 1_555 1_555
H8 C10 1_555 1_555
H9 C10 1_555 1_555
H10 C10 1_555 1_555
Cu1J O3 1_555 1_555
Cu1_2 N1L 1_555 1_555
O3J Cu1 1_555 1_555
O4J Cu1 1_555 1_555
N1L C1L 1_555 1_555
N1L_2 Cu1 1_555 1_555
C1L H2L 1_555 1_555
C2L C1L 1_555 1_555
H3L C2L 1_555 1_555
C3L N2 1_555 1_555
C4L C3L 1_555 1_555
H4L C4L 1_555 1_555
C5L N1L 1_555 1_555
H5L C5L 1_555 1_555
C10L C8 1_555 1_555
H8L C10L 1_555 1_555
H9L C10L 1_555 1_555
H10L C10L 1_555 1_555
O4 Cu1J 1_555 1_555
C2 C3 1_555 1_555
C4 C5 1_555 1_555
C2L C3L 1_555 1_555
C4L C5L 1_555 1_555

#END
