
#######################################################################
#
#                 Cambridge Crystallographic Data Centre
#                                CCDC 
#
#######################################################################
#
# If this CIF has been generated from an entry in the Cambridge 
# Structural Database, then it will include bibliographic, chemical, 
# crystal, experimental, refinement or atomic coordinate data resulting 
# from the CCDC's data processing and validation procedures.
#
#######################################################################

data_SODLED
_symmetry_cell_setting           orthorhombic
_symmetry_space_group_name_H-M   'A b a 2'
_symmetry_Int_Tables_number      41
_space_group_name_Hall           'A 2 -2ab'
loop_
_symmetry_equiv_pos_site_id
_symmetry_equiv_pos_as_xyz
1 x,y,z
2 -x,-y,z
3 1/2+x,1/2-y,z
4 1/2-x,1/2+y,z
5 x,1/2+y,1/2+z
6 -x,1/2-y,1/2+z
7 1/2+x,-y,1/2+z
8 1/2-x,y,1/2+z
_cell_length_a                   17.076(10)
_cell_length_b                   16.577(9)
_cell_length_c                   11.809(7)
_cell_angle_alpha                90
_cell_angle_beta                 90
_cell_angle_gamma                90
_cell_volume                     3342.76
loop_
_atom_site_label
_atom_site_type_symbol
_atom_site_fract_x
_atom_site_fract_y
_atom_site_fract_z
Cd1 Cd 0.36542(2) 0.922805(19) 0.96425(11)
O1 O 0.3811(3) 0.7593(2) 0.9707(15)
O2 O 0.2739(3) 0.8302(3) 0.9555(17)
O3 O 0.1201(3) 0.5661(3) 0.9599(13)
O4 O 0.2315(3) 0.5156(3) 0.9183(7)
N1 N 0.4226(6) 0.9093(5) 0.7910(9)
N2 N 0.4976(3) 0.8587(3) 0.4607(10)
H1 H 0.541(2) 0.830(3) 0.476(8)
N3 N 0.4140(6) 0.9107(5) 0.1385(9)
C1 C 0.4759(5) 0.8512(5) 0.7719(6)
H2 H 0.4965 0.8224 0.8325
C2 C 0.5007(4) 0.8336(5) 0.6613(6)
H3 H 0.5375 0.7933 0.6482
C3 C 0.4704(6) 0.8761(5) 0.5745(8)
C4 C 0.4137(5) 0.9362(4) 0.5974(7)
H4 H 0.3904 0.9655 0.5393
C5 C 0.3947(5) 0.9492(5) 0.7068(8)
H5 H 0.3589 0.9900 0.7225
C6 C 0.3657(5) 0.9120(6) 0.2295(7)
H6 H 0.3133 0.9248 0.2170
C7 C 0.3882(5) 0.8958(6) 0.3391(7)
H7 H 0.3515 0.8961 0.3973
C8 C 0.4676(7) 0.8787(6) 0.3622(8)
C9 C 0.5178(4) 0.8803(5) 0.2684(6)
H8 H 0.5711 0.8712 0.2778
C10 C 0.4886(5) 0.8951(5) 0.1647(6)
H9 H 0.5240 0.8943 0.1049
C11 C 0.3091(5) 0.7651(4) 0.9931(6)
C12 C 0.2564(5) 0.6894(5) 1.0231(7)
C13 C 0.2268(6) 0.6579(5) 0.9170(7)
H10 H 0.1866 0.6911 0.8825
H11 H 0.2673 0.6440 0.8628
C14 C 0.1896(5) 0.5738(4) 0.9943(6)
C15 C 0.2962(8) 0.6346(7) 1.1073(12)
H12 H 0.3046 0.6633 1.1768
H13 H 0.2636 0.5885 1.1214
H14 H 0.3456 0.6172 1.0772
C16 C 0.1752(8) 0.7164(6) 1.0786(17)
H15 H 0.1843 0.7349 1.1545
H16 H 0.1527 0.7592 1.0346
H17 H 0.1400 0.6713 1.0800
Cd1C Cd 0.13458(2) 0.422805(19) 0.96425(11)
Cd1_2 Cd 0.36542(2) 0.922805(19) -0.03575(11)
O3C O 0.3799(3) 1.0661(3) 0.9599(13)
O4C O 0.2685(3) 1.0156(3) 0.9183(7)
N3_2 N 0.4140(6) 0.9107(5) 1.1385(9)
loop_
_geom_bond_atom_site_label_1
_geom_bond_atom_site_label_2
_geom_bond_site_symmetry_1
_geom_bond_site_symmetry_2
Cd1 O1 1_555 1_555
O1 C11 1_555 1_555
O2 Cd1 1_555 1_555
O3 C14 1_555 1_555
O4 C14 1_555 1_555
N1 Cd1 1_555 1_555
N2 H1 1_555 1_555
N3 C6 1_555 1_555
C1 N1 1_555 1_555
H2 C1 1_555 1_555
C2 C1 1_555 1_555
H3 C2 1_555 1_555
C3 N2 1_555 1_555
C4 C3 1_555 1_555
H4 C4 1_555 1_555
C5 N1 1_555 1_555
H5 C5 1_555 1_555
C6 H6 1_555 1_555
C7 C6 1_555 1_555
H7 C7 1_555 1_555
C8 N2 1_555 1_555
C9 C8 1_555 1_555
H8 C9 1_555 1_555
C10 N3 1_555 1_555
H9 C10 1_555 1_555
C11 O2 1_555 1_555
C12 C11 1_555 1_555
C13 C12 1_555 1_555
H10 C13 1_555 1_555
H11 C13 1_555 1_555
C14 C13 1_555 1_555
C15 C12 1_555 1_555
H12 C15 1_555 1_555
H13 C15 1_555 1_555
H14 C15 1_555 1_555
C16 C12 1_555 1_555
H15 C16 1_555 1_555
H16 C16 1_555 1_555
H17 C16 1_555 1_555
Cd1C O3 1_555 1_555
Cd1_2 N3 1_555 1_555
O3C Cd1 1_555 1_555
O4C Cd1 1_555 1_555
N3_2 Cd1 1_555 1_555
O4 Cd1C 1_555 1_555
C2 C3 1_555 1_555
C4 C5 1_555 1_555
C7 C8 1_555 1_555
C9 C10 1_555 1_555

#END
