
#######################################################################
#
#                 Cambridge Crystallographic Data Centre
#                                CCDC 
#
#######################################################################
#
# If this CIF has been generated from an entry in the Cambridge 
# Structural Database, then it will include bibliographic, chemical, 
# crystal, experimental, refinement or atomic coordinate data resulting 
# from the CCDC's data processing and validation procedures.
#
#######################################################################

data_SODNIJ
_symmetry_cell_setting           monoclinic
_symmetry_space_group_name_H-M   'P 21/n'
_symmetry_Int_Tables_number      14
_space_group_name_Hall           '-P 2yn'
loop_
_symmetry_equiv_pos_site_id
_symmetry_equiv_pos_as_xyz
1 x,y,z
2 1/2-x,1/2+y,1/2-z
3 -x,-y,-z
4 1/2+x,1/2-y,1/2+z
_cell_length_a                   9.1050(10)
_cell_length_b                   12.9480(10)
_cell_length_c                   13.991(2)
_cell_angle_alpha                90
_cell_angle_beta                 91.510(10)
_cell_angle_gamma                90
_cell_volume                     1648.85
loop_
_atom_site_label
_atom_site_type_symbol
_atom_site_fract_x
_atom_site_fract_y
_atom_site_fract_z
Cd1 Cd 0.96905(6) 0.14551(4) 0.97020(3)
O1 O 0.7486(6) 0.0675(5) 0.9551(4)
O2 O 0.7985(6) -0.0853(5) 1.0213(4)
O3 O 1.0726(7) 0.3109(5) 1.0017(5)
O4 O 0.8462(7) 0.3073(5) 0.9454(5)
C1 C 0.7114(8) -0.0163(7) 0.9933(5)
C2 C 0.5518(8) -0.0344(6) 1.0063(5)
H1 H 0.5234 -0.1003 1.0248
C3 C 0.9565(9) 0.3546(7) 0.9743(6)
C4 C 0.9475(9) 0.4700(6) 0.9815(6)
H2 H 0.8621 0.5018 0.9583
N1 N 0.9448(7) 0.1377(6) 1.1352(4)
C5 C 0.8146(9) 0.1452(7) 1.1756(5)
H3 H 0.7300 0.1459 1.1369
C6 C 0.8016(9) 0.1520(7) 1.2746(6)
H4 H 0.7089 0.1576 1.3005
C7 C 0.9232(9) 0.1505(7) 1.3343(5)
C8 C 1.0596(9) 0.1412(8) 1.2916(5)
H5 H 1.1453 0.1388 1.3292
C9 C 1.0663(9) 0.1356(7) 1.1928(5)
H6 H 1.1578 0.1303 1.1651
C10 C 0.9077(9) 0.1537(7) 1.4382(5)
H7 H 0.8147 0.1675 1.4610
C11 C 1.0149(10) 0.1386(8) 1.5022(5)
H8 H 1.1083 0.1275 1.4790
C12 C 1.0006(9) 0.1377(7) 1.6055(5)
C13 C 0.8695(9) 0.1578(7) 1.6514(5)
H9 H 0.7842 0.1731 1.6161
C14 C 0.8680(9) 0.1546(7) 1.7509(6)
H10 H 0.7795 0.1670 1.7805
N2 N 0.9878(7) 0.1344(5) 1.8068(4)
C15 C 1.1137(9) 0.1170(6) 1.7623(5)
H11 H 1.1985 0.1039 1.7988
C16 C 1.1218(9) 0.1180(6) 1.6636(5)
H12 H 1.2115 0.1049 1.6357
Cd1B Cd 0.03095(6) -0.14551(4) 1.02980(3)
Cd1B_2 Cd 1.03095(6) -0.14551(4) 1.02980(3)
Cd1_2 Cd 0.96905(6) 0.14551(4) 1.97020(3)
Cd1_3 Cd -0.03095(6) 0.14551(4) 0.97020(3)
Cd1B_3 Cd 1.03095(6) 0.85449(4) 1.02980(3)
Cd1_4 Cd 0.96905(6) 0.14551(4) -0.02980(3)
O1B O 0.2514(6) -0.0675(5) 1.0449(4)
O2B O 0.2015(6) 0.0853(5) 0.9787(4)
O2B_2 O 1.2015(6) 0.0853(5) 0.9787(4)
O2_2 O -0.2015(6) -0.0853(5) 1.0213(4)
O3B O 0.9274(7) 0.6891(5) 0.9983(5)
O3B_2 O -0.0726(7) -0.3109(5) 0.9983(5)
O4B O 1.1538(7) 0.6927(5) 1.0546(5)
O4B_2 O 0.1538(7) -0.3073(5) 1.0546(5)
C1B C 0.2886(8) 0.0163(7) 1.0067(5)
C2B C 0.4482(8) 0.0344(6) 0.9937(5)
H1B H 0.4766 0.1003 0.9752
C3B C 1.0435(9) 0.6454(7) 1.0257(6)
C4B C 1.0525(9) 0.5300(6) 1.0185(6)
H2B H 1.1379 0.4982 1.0417
N1_2 N 0.9448(7) 0.1377(6) 0.1352(4)
N1B N 0.0552(7) -0.1377(6) 0.8648(4)
C5_2 C 0.8146(9) 0.1452(7) 0.1756(5)
H3_2 H 0.7300 0.1459 0.1369
C6_2 C 0.8016(9) 0.1520(7) 0.2746(6)
H4_2 H 0.7089 0.1576 0.3005
C7_2 C 0.9232(9) 0.1505(7) 0.3343(5)
C8_2 C 1.0596(9) 0.1412(8) 0.2916(5)
H5_2 H 1.1453 0.1388 0.3292
C9_2 C 1.0663(9) 0.1356(7) 0.1928(5)
H6_2 H 1.1578 0.1303 0.1651
C10_2 C 0.9077(9) 0.1537(7) 0.4382(5)
H7_2 H 0.8147 0.1675 0.4610
C11_2 C 1.0149(10) 0.1386(8) 0.5022(5)
H8_2 H 1.1083 0.1275 0.4790
C12_2 C 1.0006(9) 0.1377(7) 0.6055(5)
C13_2 C 0.8695(9) 0.1578(7) 0.6514(5)
H9_2 H 0.7842 0.1731 0.6161
C14_2 C 0.8680(9) 0.1546(7) 0.7509(6)
H10_2 H 0.7795 0.1670 0.7805
N2_2 N 0.9878(7) 0.1344(5) 0.8068(4)
N2B N 0.0122(7) -0.1344(5) 1.1932(4)
C15_2 C 1.1137(9) 0.1170(6) 0.7623(5)
H11_2 H 1.1985 0.1039 0.7988
C16_2 C 1.1218(9) 0.1180(6) 0.6636(5)
H12_2 H 1.2115 0.1049 0.6357
loop_
_geom_bond_atom_site_label_1
_geom_bond_atom_site_label_2
_geom_bond_site_symmetry_1
_geom_bond_site_symmetry_2
Cd1 O1 1_555 1_555
O1 C1 1_555 1_555
O2 C1 1_555 1_555
O3 Cd1 1_555 1_555
O4 Cd1 1_555 1_555
C1 C2 1_555 1_555
C2 H1 1_555 1_555
C3 O3 1_555 1_555
C4 C3 1_555 1_555
H2 C4 1_555 1_555
N1 Cd1 1_555 1_555
C5 N1 1_555 1_555
H3 C5 1_555 1_555
C6 C5 1_555 1_555
H4 C6 1_555 1_555
C7 C6 1_555 1_555
C8 C7 1_555 1_555
H5 C8 1_555 1_555
C9 N1 1_555 1_555
H6 C9 1_555 1_555
C10 C7 1_555 1_555
H7 C10 1_555 1_555
C11 C10 1_555 1_555
H8 C11 1_555 1_555
C12 C11 1_555 1_555
C13 C12 1_555 1_555
H9 C13 1_555 1_555
C14 C13 1_555 1_555
H10 C14 1_555 1_555
N2 C14 1_555 1_555
C15 N2 1_555 1_555
H11 C15 1_555 1_555
C16 C12 1_555 1_555
H12 C16 1_555 1_555
Cd1B O1B 1_555 1_555
Cd1B_2 O2 1_555 1_555
Cd1_2 N2 1_555 1_555
Cd1_3 O2B 1_555 1_555
Cd1B_3 O3B 1_555 1_555
Cd1_4 N1_2 1_555 1_555
O1B C1B 1_555 1_555
O2B C1B 1_555 1_555
O2B_2 Cd1 1_555 1_555
O2_2 Cd1B 1_555 1_555
O3B C3B 1_555 1_555
O3B_2 Cd1B 1_555 1_555
O4B Cd1B_3 1_555 1_555
O4B_2 Cd1B 1_555 1_555
C1B C2B 1_555 1_555
C2B C2 1_555 1_555
H1B C2B 1_555 1_555
C3B O4B 1_555 1_555
C4B C4 1_555 1_555
H2B C4B 1_555 1_555
N1_2 C5_2 1_555 1_555
N1B Cd1B 1_555 1_555
C5_2 H3_2 1_555 1_555
C6_2 C5_2 1_555 1_555
H4_2 C6_2 1_555 1_555
C7_2 C6_2 1_555 1_555
C8_2 C7_2 1_555 1_555
H5_2 C8_2 1_555 1_555
C9_2 N1_2 1_555 1_555
H6_2 C9_2 1_555 1_555
C10_2 C7_2 1_555 1_555
H7_2 C10_2 1_555 1_555
C11_2 C10_2 1_555 1_555
H8_2 C11_2 1_555 1_555
C12_2 C11_2 1_555 1_555
C13_2 C12_2 1_555 1_555
H9_2 C13_2 1_555 1_555
C14_2 C13_2 1_555 1_555
H10_2 C14_2 1_555 1_555
N2_2 Cd1 1_555 1_555
N2B Cd1B 1_555 1_555
C15_2 N2_2 1_555 1_555
H11_2 C15_2 1_555 1_555
C16_2 C12_2 1_555 1_555
H12_2 C16_2 1_555 1_555
O4 C3 1_555 1_555
C8 C9 1_555 1_555
C15 C16 1_555 1_555
C3B C4B 1_555 1_555
C8_2 C9_2 1_555 1_555
C14_2 N2_2 1_555 1_555
C15_2 C16_2 1_555 1_555

#END
