
#######################################################################
#
#                 Cambridge Crystallographic Data Centre
#                                CCDC 
#
#######################################################################
#
# If this CIF has been generated from an entry in the Cambridge 
# Structural Database, then it will include bibliographic, chemical, 
# crystal, experimental, refinement or atomic coordinate data resulting 
# from the CCDC's data processing and validation procedures.
#
#######################################################################

data_SODPUX
_symmetry_cell_setting           orthorhombic
_symmetry_space_group_name_H-M   'P b c n'
_symmetry_Int_Tables_number      60
_space_group_name_Hall           '-P 2n 2ab'
loop_
_symmetry_equiv_pos_site_id
_symmetry_equiv_pos_as_xyz
1 x,y,z
2 1/2-x,1/2-y,1/2+z
3 -x,y,1/2-z
4 1/2+x,1/2-y,-z
5 -x,-y,-z
6 1/2+x,1/2+y,1/2-z
7 x,-y,1/2+z
8 1/2-x,1/2+y,z
_cell_length_a                   14.858(3)
_cell_length_b                   30.492(5)
_cell_length_c                   13.530(2)
_cell_angle_alpha                90
_cell_angle_beta                 90
_cell_angle_gamma                90
_cell_volume                     6129.77
loop_
_atom_site_label
_atom_site_type_symbol
_atom_site_fract_x
_atom_site_fract_y
_atom_site_fract_z
Os1 Os 0.171383(6) 0.122376(3) 0.069484(7)
Os2 Os -0.5000 0.113880(5) -0.2500
Gd1 Gd -0.107569(8) 0.245344(4) 0.055065(9)
C1 C 0.34807(18) 0.06916(9) 0.0418(2)
H1 H 0.3773 0.0967 0.0339
C2 C 0.39902(19) 0.03077(10) 0.0337(2)
H2 H 0.4619 0.0326 0.0216
C3 C 0.35887(19) -0.00933(10) 0.0431(2)
H3 H 0.3931 -0.0355 0.0362
C4 C 0.26568(19) -0.01135(9) 0.0633(2)
C5 C 0.2177(2) -0.05153(9) 0.0775(2)
H4 H 0.2484 -0.0787 0.0707
C6 C 0.1290(2) -0.05136(9) 0.1003(2)
H5 H 0.0989 -0.0784 0.1112
C7 C 0.07950(19) -0.01114(9) 0.1083(2)
C8 C -0.01273(19) -0.00894(10) 0.1304(2)
H6 H -0.0464 -0.0349 0.1421
C9 C -0.05350(19) 0.03149(10) 0.1348(2)
H7 H -0.1156 0.0336 0.1507
C10 C -0.00381(18) 0.06975(9) 0.1157(2)
H8 H -0.0335 0.0973 0.1182
C11 C 0.12499(17) 0.02855(9) 0.09173(19)
C12 C 0.21932(17) 0.02841(9) 0.07104(19)
C13 C 0.07636(18) 0.16808(9) 0.07124(19)
C14 C 0.15033(17) 0.11817(9) -0.0793(2)
C15 C 0.18824(17) 0.12404(9) 0.2187(2)
C16 C 0.26397(17) 0.16804(9) 0.05092(19)
C17 C -0.67104(18) 0.06016(9) -0.1931(2)
H9 H -0.6991 0.0877 -0.1819
C18 C -0.72189(19) 0.02209(10) -0.1820(2)
H10 H -0.7840 0.0243 -0.1659
C19 C -0.6835(2) -0.01846(10) -0.1941(2)
H11 H -0.7179 -0.0444 -0.1852
C20 C -0.59167(19) -0.02070(9) -0.2199(2)
C21 C -0.5437(2) -0.06094(9) -0.2358(2)
H12 H -0.4261 -0.0881 -0.2737
C22 C -0.45435(17) 0.01925(8) -0.26618(19)
C23 C -0.57981(18) 0.16192(9) -0.2037(2)
C24 C -0.55043(17) 0.11537(9) -0.3899(2)
C25 C -0.32472(19) 0.27215(10) 0.1395(2)
H13 H -0.3379 0.2651 0.2087
H14 H -0.3808 0.2721 0.1014
H15 H -0.2968 0.3012 0.1356
N1 N 0.25985(15) 0.06855(7) 0.06011(16)
N2 N 0.08359(15) 0.06861(7) 0.09429(16)
N3 N 0.02016(15) 0.19447(8) 0.06796(18)
N4 N 0.13765(17) 0.11592(8) -0.16357(19)
N5 N 0.19571(16) 0.12286(8) 0.30351(18)
N6 N 0.31758(16) 0.19587(8) 0.04021(17)
N7 N -0.58454(15) 0.05938(7) -0.21890(16)
N8 N -0.61863(15) 0.19149(8) -0.17023(18)
N9 N -0.57779(18) 0.11872(8) -0.46968(19)
O1 O -0.09903(14) 0.21733(7) 0.21872(15)
H16 H -0.1242 0.2312 0.2623
H17 H -0.0836 0.1906 0.2250
O2 O -0.16754(13) 0.17277(6) 0.01994(15)
H18 H -0.1699 0.1549 0.0562
H19 H -0.1814 0.1626 -0.0374
O3 O -0.07939(13) 0.23138(6) -0.11780(14)
H20 H -0.0620 0.2568 -0.1371
H21 H -0.0587 0.2069 -0.1483
O4 O 0.02974(13) 0.28558(7) 0.03198(16)
H22 H 0.0159 0.3129 0.0462
H23 H 0.0573 0.2818 -0.0224
O5 O -0.26443(13) 0.24010(6) 0.09992(16)
H24 H -0.2901 0.2171 0.1042
Os1C Os -0.328617(6) 0.377624(3) -0.069484(7)
Gd1C Gd -0.607569(8) 0.254656(4) -0.055065(9)
Gd1A Gd -0.392431(8) 0.254656(4) -0.444935(9)
Gd1C_2 Gd 0.392431(8) 0.254656(4) -0.055065(9)
C1C C -0.15193(18) 0.43084(9) -0.0418(2)
H1C H -0.1227 0.4033 -0.0339
C2C C -0.10098(19) 0.46923(10) -0.0337(2)
H2C H -0.0381 0.4674 -0.0216
C3C C -0.14113(19) 0.50933(10) -0.0431(2)
H3C H -0.1069 0.5355 -0.0362
C4C C -0.23432(19) 0.51135(9) -0.0633(2)
C5C C -0.2823(2) 0.55153(9) -0.0775(2)
H4C H -0.2516 0.5787 -0.0707
C6C C -0.3710(2) 0.55136(9) -0.1003(2)
H5C H -0.4011 0.5784 -0.1112
C7C C -0.42050(19) 0.51114(9) -0.1083(2)
C8C C -0.51273(19) 0.50894(10) -0.1304(2)
H6C H -0.5464 0.5349 -0.1421
C9C C -0.55350(19) 0.46851(10) -0.1348(2)
H7C H -0.6156 0.4664 -0.1507
C10C C -0.50381(18) 0.43025(9) -0.1157(2)
H8C H -0.5335 0.4027 -0.1182
C11C C -0.37501(17) 0.47145(9) -0.09173(19)
C12C C -0.28068(17) 0.47159(9) -0.07104(19)
C13C C -0.42364(18) 0.33192(9) -0.07124(19)
C14C C -0.34967(17) 0.38183(9) 0.0793(2)
C15C C -0.31176(17) 0.37596(9) -0.2187(2)
C16C C -0.23603(17) 0.33196(9) -0.05092(19)
C17B C -0.32896(18) 0.06016(9) -0.3069(2)
H9B H -0.3009 0.0877 -0.3181
C18B C -0.27811(19) 0.02209(10) -0.3180(2)
H10B H -0.2160 0.0243 -0.3341
C19B C -0.3165(2) -0.01846(10) -0.3059(2)
H11B H -0.2821 -0.0444 -0.3148
C20B C -0.40833(19) -0.02070(9) -0.2801(2)
C21B C -0.4563(2) -0.06094(9) -0.2642(2)
H12B H -0.5739 -0.0881 -0.2263
C22B C -0.54565(17) 0.01925(8) -0.23382(19)
C23B C -0.42019(18) 0.16192(9) -0.2963(2)
C24B C -0.44957(17) 0.11537(9) -0.1101(2)
C25C C -0.82472(19) 0.22785(10) -0.1395(2)
H13C H -0.8379 0.2349 -0.2087
H14C H -0.8808 0.2279 -0.1014
H15C H -0.7968 0.1988 -0.1356
N1C N -0.24015(15) 0.43145(7) -0.06011(16)
N2C N -0.41641(15) 0.43139(7) -0.09429(16)
N3C N -0.47984(15) 0.30553(8) -0.06796(18)
N4C N -0.36235(17) 0.38408(8) 0.16357(19)
N5C N -0.30429(16) 0.37714(8) -0.30351(18)
N6C N -0.18242(16) 0.30413(8) -0.04021(17)
N6_2 N -0.68242(16) 0.19587(8) 0.04021(17)
N7B N -0.41546(15) 0.05938(7) -0.28110(16)
N8C N -0.11863(15) 0.30851(8) 0.17023(18)
N8B N -0.38137(15) 0.19149(8) -0.32977(18)
N9B N -0.42221(18) 0.11872(8) -0.03032(19)
O1C O -0.59903(14) 0.28267(7) -0.21872(15)
H16C H -0.6242 0.2688 -0.2623
H17C H -0.5836 0.3094 -0.2250
O2C O -0.66754(13) 0.32723(6) -0.01994(15)
H18C H -0.6699 0.3451 -0.0562
H19C H -0.6814 0.3374 0.0374
O3C O -0.57939(13) 0.26862(6) 0.11780(14)
H20C H -0.5620 0.2432 0.1371
H21C H -0.5587 0.2931 0.1483
O4C O -0.47026(13) 0.21442(7) -0.03198(16)
H22C H -0.4841 0.1871 -0.0462
H23C H -0.4427 0.2182 0.0224
O5C O -0.76443(13) 0.25990(6) -0.09992(16)
H24C H -0.7901 0.2829 -0.1042
O6 O 0.0000 0.16953(10) -0.2500
H25 H 0.0454 0.1526 -0.2246
H25B H -0.0454 0.1526 -0.2754
O7 O -0.13506(13) 0.33625(7) 0.64324(15)
H26 H -0.1812 0.3475 0.6599
H27 H -0.1180 0.3470 0.5884
O8 O 0.23419(14) 0.15303(7) -0.33568(16)
H28 H 0.2065 0.1395 -0.3027
H29 H 0.2936 0.1420 -0.3294
O9 O 0.0000 0.29151(10) 0.7500
H30 H -0.0374 0.3090 0.7199
H30B H 0.0374 0.3090 0.7801
O10 O -0.31424(14) 0.23914(7) -0.13373(16)
H31 H -0.2874 0.2149 -0.1457
H32 H -0.2891 0.2563 -0.1010
loop_
_geom_bond_atom_site_label_1
_geom_bond_atom_site_label_2
_geom_bond_site_symmetry_1
_geom_bond_site_symmetry_2
Os1 C13 1_555 1_555
Os2 C23 1_555 1_555
Gd1 N3 1_555 1_555
C1 H1 1_555 1_555
C2 C1 1_555 1_555
H2 C2 1_555 1_555
C3 C2 1_555 1_555
H3 C3 1_555 1_555
C4 C3 1_555 1_555
C5 C4 1_555 1_555
H4 C5 1_555 1_555
C6 C5 1_555 1_555
H5 C6 1_555 1_555
C7 C6 1_555 1_555
C8 C7 1_555 1_555
H6 C8 1_555 1_555
C9 C8 1_555 1_555
H7 C9 1_555 1_555
C10 C9 1_555 1_555
H8 C10 1_555 1_555
C11 C7 1_555 1_555
C12 C4 1_555 1_555
C13 N3 1_555 1_555
C14 Os1 1_555 1_555
C15 Os1 1_555 1_555
C16 Os1 1_555 1_555
C17 H9 1_555 1_555
C18 C17 1_555 1_555
H10 C18 1_555 1_555
C19 C18 1_555 1_555
H11 C19 1_555 1_555
C20 C19 1_555 1_555
C21 C20 1_555 1_555
H12 C21B 1_555 1_555
C22 C20B 1_555 1_555
C23 N8 1_555 1_555
C24 Os2 1_555 1_555
C25 H13 1_555 1_555
H14 C25 1_555 1_555
H15 C25 1_555 1_555
N1 Os1 1_555 1_555
N2 Os1 1_555 1_555
N4 C14 1_555 1_555
N5 C15 1_555 1_555
N6 C16 1_555 1_555
N7 Os2 1_555 1_555
N8 Gd1C 1_555 1_555
N9 C24 1_555 1_555
O1 Gd1 1_555 1_555
H16 O1 1_555 1_555
H17 O1 1_555 1_555
O2 Gd1 1_555 1_555
H18 O2 1_555 1_555
H19 O2 1_555 1_555
O3 Gd1 1_555 1_555
H20 O3 1_555 1_555
H21 O3 1_555 1_555
O4 Gd1 1_555 1_555
H22 O4 1_555 1_555
H23 O4 1_555 1_555
O5 Gd1 1_555 1_555
H24 O5 1_555 1_555
O6 H25 1_555 1_555
O7 H26 1_555 1_555
H27 O7 1_555 1_555
O8 H28 1_555 1_555
H29 O8 1_555 1_555
O9 H30 1_555 1_555
O10 H31 1_555 1_555
H32 O10 1_555 1_555
Os1C C13C 1_555 1_555
Gd1C N3C 1_555 1_555
Gd1A N8B 1_555 1_555
Gd1C_2 N6 1_555 1_555
C1C H1C 1_555 1_555
C2C C1C 1_555 1_555
H2C C2C 1_555 1_555
C3C C2C 1_555 1_555
H3C C3C 1_555 1_555
C4C C3C 1_555 1_555
C5C C4C 1_555 1_555
H4C C5C 1_555 1_555
C6C C5C 1_555 1_555
H5C C6C 1_555 1_555
C7C C6C 1_555 1_555
C8C C7C 1_555 1_555
H6C C8C 1_555 1_555
C9C C8C 1_555 1_555
H7C C9C 1_555 1_555
C10C C9C 1_555 1_555
H8C C10C 1_555 1_555
C11C C7C 1_555 1_555
C12C C4C 1_555 1_555
C13C N3C 1_555 1_555
C14C Os1C 1_555 1_555
C15C Os1C 1_555 1_555
C16C Os1C 1_555 1_555
C17B H9B 1_555 1_555
C18B C17B 1_555 1_555
H10B C18B 1_555 1_555
C19B C18B 1_555 1_555
H11B C19B 1_555 1_555
C20B C19B 1_555 1_555
C21B C21 1_555 1_555
H12B C21 1_555 1_555
C22B C20 1_555 1_555
C23B Os2 1_555 1_555
C24B Os2 1_555 1_555
C25C H13C 1_555 1_555
H14C C25C 1_555 1_555
H15C C25C 1_555 1_555
N1C Os1C 1_555 1_555
N2C Os1C 1_555 1_555
N4C C14C 1_555 1_555
N5C C15C 1_555 1_555
N6C Gd1 1_555 1_555
N6_2 Gd1C 1_555 1_555
N7B Os2 1_555 1_555
N8C Gd1 1_555 1_555
N8B C23B 1_555 1_555
N9B C24B 1_555 1_555
O1C Gd1C 1_555 1_555
H16C O1C 1_555 1_555
H17C O1C 1_555 1_555
O2C Gd1C 1_555 1_555
H18C O2C 1_555 1_555
H19C O2C 1_555 1_555
O3C Gd1C 1_555 1_555
H20C O3C 1_555 1_555
H21C O3C 1_555 1_555
O4C Gd1C 1_555 1_555
H22C O4C 1_555 1_555
H23C O4C 1_555 1_555
O5C Gd1C 1_555 1_555
H24C O5C 1_555 1_555
H25B O6 1_555 1_555
H30B O9 1_555 1_555
C1 N1 1_555 1_555
C10 N2 1_555 1_555
C11 C12 1_555 1_555
C11 N2 1_555 1_555
C12 N1 1_555 1_555
C17 N7 1_555 1_555
C22 C22B 1_555 1_555
C22 N7B 1_555 1_555
C25 O5 1_555 1_555
N7 C22B 1_555 1_555
C1C N1C 1_555 1_555
C10C N2C 1_555 1_555
C11C C12C 1_555 1_555
C11C N2C 1_555 1_555
C12C N1C 1_555 1_555
C16C N6C 1_555 1_555
C17B N7B 1_555 1_555
C20B C21B 1_555 1_555
C25C O5C 1_555 1_555

#END
