
#######################################################################
#
#                 Cambridge Crystallographic Data Centre
#                                CCDC 
#
#######################################################################
#
# If this CIF has been generated from an entry in the Cambridge 
# Structural Database, then it will include bibliographic, chemical, 
# crystal, experimental, refinement or atomic coordinate data resulting 
# from the CCDC's data processing and validation procedures.
#
#######################################################################

data_SODRUZ
_symmetry_cell_setting           monoclinic
_symmetry_space_group_name_H-M   'P 21/n'
_symmetry_Int_Tables_number      14
_space_group_name_Hall           '-P 2yn'
loop_
_symmetry_equiv_pos_site_id
_symmetry_equiv_pos_as_xyz
1 x,y,z
2 1/2-x,1/2+y,1/2-z
3 -x,-y,-z
4 1/2+x,1/2-y,1/2+z
_cell_length_a                   20.1983(11)
_cell_length_b                   27.4911(16)
_cell_length_c                   27.6564(16)
_cell_angle_alpha                90
_cell_angle_beta                 90.327(3)
_cell_angle_gamma                90
_cell_volume                     15356.6
loop_
_atom_site_label
_atom_site_type_symbol
_atom_site_fract_x
_atom_site_fract_y
_atom_site_fract_z
C113 C 0.2530(12) 0.7684(7) 0.1188(10)
H61 H 0.2758 0.7446 0.1393
H62 H 0.2472 0.7550 0.0862
H63 H 0.2095 0.7758 0.1326
O36 O 0.2920(7) 0.8126(7) 0.1163(6)
H106 H 0.3319 0.8054 0.1120
O14 O 0.7197(6) 0.9820(4) 0.5802(4)
H90 H 0.7036 0.9593 0.5628
H91 H 0.7338 1.0064 0.5645
O15 O 0.8032(6) 0.7418(7) 0.8509(5)
H92 H 0.8021 0.7601 0.8756
H93 H 0.8309 0.7604 0.8305
O16 O 0.6985(6) 0.7330(5) 0.1612(4)
H94 H 0.7176 0.7329 0.1338
H95 H 0.7268 0.7414 0.1825
O17 O 0.5565(5) 0.6846(4) 0.2636(4)
H96 H 0.5753 0.7122 0.2623
H97 H 0.5256 0.6773 0.2830
O18 O 0.6480(6) 0.8377(5) 0.8666(4)
O19 O 0.3666(6) 0.8366(5) 0.3956(4)
O20 O 0.9263(6) 0.7073(5) 0.7562(4)
H98 H 0.9059 0.6811 0.7496
H99 H 0.9206 0.7301 0.7765
O21 O 0.6187(5) 0.7661(4) 0.3019(4)
O22 O 0.7741(5) 0.8497(4) 0.2852(3)
O23 O 0.9871(11) 0.6028(7) 0.5020(8)
O25 O 0.6721(6) 0.6250(4) 0.2777(4)
H100 H 0.6992 0.6014 0.2797
H101 H 0.6942 0.6513 0.2795
O26 O 0.9885(5) 0.7721(4) 0.8973(4)
O27 O 0.7631(5) 0.6916(4) 0.2371(4)
O28 O 0.6876(7) 0.6852(6) 0.0728(5)
O29 O 0.6194(8) 0.8230(7) 0.2200(5)
H102 H 0.6424 0.8032 0.2036
H103 H 0.6313 0.8489 0.2103
O30 O 0.6693(7) 0.5435(6) 0.2153(8)
O31 O 0.7772(7) 0.2253(8) 0.5141(5)
O32 O 0.8482(7) 0.1783(8) 0.5830(5)
H104 H 0.8089 0.1682 0.5873
H105 H 0.8669 0.1801 0.6105
O33 O 0.3159(7) 0.8471(7) 0.2131(7)
O34 O 0.4465(14) 0.9212(10) 0.1702(9)
O37 O 0.5901(7) 0.6639(8) 0.4121(9)
O38 O 0.7751(16) 0.6006(13) 0.0498(11)
O40 O 0.8127(19) 0.8200(14) 0.9299(14)
O42 O 0.3899(13) 0.9935(9) 0.0850(8)
O44 O 0.743(3) 0.0748(16) 0.545(2)
Os1 Os 0.95953(3) 0.887930(19) 0.372057(19)
Os2 Os 0.58650(3) 0.86894(2) 0.42397(2)
Os3 Os 1.33426(3) 0.64369(2) 0.23363(2)
Os4 Os 0.71698(3) 0.86111(2) 0.07238(2)
Os5 Os 0.95897(3) 0.61816(2) 0.28714(2)
Os6 Os 1.09500(3) 0.88877(2) 0.08464(2)
Pr1 Pr 1.12274(4) 0.77601(3) 0.25375(3)
Pr2 Pr 0.92579(4) 0.73422(3) 0.04996(3)
Pr3 Pr 0.99488(4) 0.75460(3) 0.60561(3)
Pr4 Pr 0.79199(4) 0.73135(3) 0.40371(3)
C1 C 1.0841(7) 0.9545(5) 0.3652(5)
H1 H 1.1035 0.9297 0.3460
C2 C 1.1195(8) 0.9965(6) 0.3754(6)
H2 H 1.1622 1.0003 0.3618
C3 C 1.0957(8) 1.0320(6) 0.4038(7)
H3 H 1.1215 1.0602 0.4106
C4 C 1.0322(8) 1.0267(5) 0.4231(6)
C5 C 1.0028(10) 1.0605(6) 0.4555(6)
H4 H 1.0260 1.0894 0.4635
C6 C 0.9426(8) 1.0524(6) 0.4750(7)
H5 H 0.9247 1.0752 0.4972
C7 C 0.9054(8) 1.0091(5) 0.4623(5)
C8 C 0.8446(8) 0.9972(6) 0.4826(7)
H6 H 0.8252 1.0182 0.5058
C9 C 0.8118(9) 0.9543(7) 0.4687(7)
H7 H 0.7687 0.9471 0.4803
C10 C 0.8437(7) 0.9232(6) 0.4380(5)
H8 H 0.8225 0.8934 0.4300
C11 C 0.9335(7) 0.9751(5) 0.4307(5)
C12 C 0.9968(7) 0.9841(5) 0.4120(5)
C13 C 0.8938(7) 0.8335(5) 0.3714(5)
C14 C 1.0213(7) 0.8538(5) 0.3293(5)
C15 C 0.9097(7) 0.9218(5) 0.3171(5)
C16 C 1.0021(7) 0.8593(5) 0.4310(5)
C17 C 0.6915(7) 0.9189(5) 0.3590(5)
H9 H 0.7121 0.8879 0.3570
C18 C 0.7214(7) 0.9588(5) 0.3363(6)
H10 H 0.7630 0.9553 0.3210
C19 C 0.6904(8) 1.0026(6) 0.3364(6)
H11 H 0.7092 1.0290 0.3192
C20 C 0.6310(9) 1.0093(6) 0.3616(5)
C21 C 0.5941(10) 1.0540(6) 0.3646(6)
H12 H 0.6112 1.0822 0.3492
C22 C 0.5365(9) 1.0572(6) 0.3882(6)
H13 H 0.5130 1.0871 0.3883
C23 C 0.5091(9) 1.0155(6) 0.4138(6)
C24 C 0.4511(8) 1.0152(6) 0.4394(6)
H14 H 0.4260 1.0443 0.4416
C25 C 0.4286(8) 0.9743(6) 0.4617(6)
H15 H 0.3887 0.9746 0.4796
C26 C 0.4659(7) 0.9322(6) 0.4572(5)
H16 H 0.4502 0.9037 0.4729
C27 C 0.5446(7) 0.9704(5) 0.4111(5)
C28 C 0.6048(7) 0.9680(6) 0.3850(5)
C29 C 0.6552(7) 0.8198(5) 0.4116(5)
C30 C 0.5339(7) 0.8273(6) 0.4663(5)
C31 C 0.6336(7) 0.8907(5) 0.4812(5)
C32 C 0.5313(7) 0.8438(5) 0.3676(5)
C33 C 1.2234(7) 0.5946(6) 0.2964(5)
H17 H 1.2032 0.6258 0.2985
C34 C 1.1906(8) 0.5543(6) 0.3161(6)
H18 H 1.1485 0.5582 0.3306
C35 C 1.2196(8) 0.5096(6) 0.3144(6)
H19 H 1.1974 0.4823 0.3278
C36 C 1.2813(8) 0.5034(5) 0.2932(5)
C37 C 1.3143(9) 0.4577(6) 0.2916(6)
H20 H 1.2932 0.4294 0.3037
C38 C 1.3752(9) 0.4551(6) 0.2731(5)
H21 H 1.3978 0.4248 0.2736
C39 C 1.4079(8) 0.4969(6) 0.2522(6)
C40 C 1.4722(9) 0.4969(6) 0.2343(6)
H22 H 1.4981 0.4681 0.2360
C41 C 1.4978(9) 0.5378(7) 0.2144(6)
H23 H 1.5408 0.5374 0.2006
C42 C 1.4601(8) 0.5810(6) 0.2142(6)
H24 H 1.4790 0.6095 0.2007
C43 C 1.3745(8) 0.5414(5) 0.2523(6)
C44 C 1.3120(7) 0.5452(5) 0.2731(6)
C45 C 1.2654(7) 0.6940(5) 0.2398(5)
C46 C 1.3873(6) 0.6834(5) 0.1912(5)
C47 C 1.2882(7) 0.6132(5) 0.1743(5)
C48 C 1.3841(7) 0.6727(5) 0.2887(5)
C49 C 0.8537(7) 0.9038(7) 0.0404(5)
H25 H 0.8667 0.8712 0.0344
C50 C 0.8979(9) 0.9415(7) 0.0318(6)
H26 H 0.9410 0.9344 0.0202
C51 C 0.8805(8) 0.9874(7) 0.0395(6)
H27 H 0.9116 1.0127 0.0337
C52 C 0.8172(8) 0.9991(6) 0.0560(6)
C53 C 0.7947(10) 1.0465(7) 0.0630(7)
H28 H 0.8242 1.0729 0.0579
C54 C 0.7306(11) 1.0560(6) 0.0770(7)
H29 H 0.7172 1.0886 0.0827
C55 C 0.6837(9) 1.0168(5) 0.0832(6)
C56 C 0.6172(9) 1.0224(6) 0.0938(6)
H30 H 0.5991 1.0539 0.0986
C57 C 0.5771(8) 0.9814(6) 0.0975(6)
H31 H 0.5311 0.9849 0.1035
C58 C 0.6042(8) 0.9354(6) 0.0925(6)
H32 H 0.5766 0.9079 0.0973
C59 C 0.7074(8) 0.9676(5) 0.0763(6)
C60 C 0.7735(8) 0.9601(5) 0.0634(6)
C61 C 0.6411(7) 0.8183(6) 0.0850(5)
C62 C 0.7782(7) 0.8059(5) 0.0652(5)
C63 C 0.7392(7) 0.8626(5) 0.1402(5)
C64 C 0.6958(7) 0.8611(5) -0.0003(6)
C65 C 0.8420(8) 0.5436(6) 0.2984(6)
H33 H 0.8174 0.5693 0.3126
C66 C 0.8134(8) 0.4963(6) 0.2952(6)
H34 H 0.7704 0.4904 0.3076
C67 C 0.8481(8) 0.4596(6) 0.2743(6)
H35 H 0.8298 0.4278 0.2728
C68 C 0.9097(8) 0.4685(5) 0.2553(5)
C69 C 0.9469(9) 0.4324(6) 0.2304(6)
H36 H 0.9305 0.4001 0.2281
C70 C 1.0051(9) 0.4440(6) 0.2103(7)
H37 H 1.0279 0.4195 0.1929
C71 C 1.0349(8) 0.4912(6) 0.2135(6)
C72 C 1.0944(8) 0.5051(6) 0.1918(6)
H38 H 1.1204 0.4822 0.1746
C73 C 1.1142(8) 0.5524(6) 0.1961(6)
H39 H 1.1534 0.5630 0.1804
C74 C 1.0771(7) 0.5853(5) 0.2234(6)
H40 H 1.0938 0.6173 0.2275
C75 C 0.9973(7) 0.5266(5) 0.2385(5)
C76 C 0.9367(7) 0.5149(5) 0.2593(5)
C77 C 0.8944(7) 0.6526(5) 0.3282(6)
C78 C 1.0206(7) 0.6740(5) 0.2857(5)
C79 C 0.9129(8) 0.6451(5) 0.2275(6)
C80 C 1.0076(8) 0.5918(5) 0.3475(6)
C81 C 1.1837(9) 0.9819(6) 0.0791(6)
H41 H 1.2171 0.9611 0.0666
C82 C 1.1959(12) 1.0331(8) 0.0822(7)
H42 H 1.2364 1.0465 0.0710
C83 C 1.1481(11) 1.0624(8) 0.1015(8)
H43 H 1.1563 1.0964 0.1042
C84 C 1.0875(11) 1.0441(7) 0.1175(7)
C85 C 1.0368(10) 1.0713(7) 0.1380(7)
H44 H 1.0425 1.1055 0.1415
C86 C 0.9791(11) 1.0505(7) 0.1532(7)
H45 H 0.9453 1.0705 0.1664
C87 C 0.9686(9) 0.9991(6) 0.1497(6)
C88 C 0.9131(8) 0.9738(7) 0.1657(6)
H46 H 0.8777 0.9910 0.1804
C89 C 0.9090(8) 0.9252(7) 0.1606(6)
H47 H 0.8720 0.9081 0.1732
C90 C 0.9583(8) 0.9002(6) 0.1371(6)
H48 H 0.9536 0.8661 0.1327
C91 C 1.0186(8) 0.9715(6) 0.1280(6)
C92 C 1.0784(9) 0.9932(6) 0.1120(6)
C93 C 1.0459(8) 0.8274(6) 0.0720(5)
C94 C 1.1214(7) 0.8586(5) 0.1485(6)
C95 C 1.1776(7) 0.8687(5) 0.0552(5)
C96 C 1.0631(7) 0.9045(5) 0.0161(5)
C97 C 0.9471(8) 0.7950(6) 0.2351(6)
H49 H 0.9530 0.8091 0.2662
C98 C 0.8845(8) 0.7964(6) 0.2127(6)
H50 H 0.8468 0.8092 0.2287
C99 C 0.8805(7) 0.7789(6) 0.1680(5)
H51 H 0.8395 0.7815 0.1513
C100 C 0.9875(7) 0.7547(4) 0.1697(5)
C101 C 1.0413(6) 0.7239(4) 0.1481(5)
C102 C 1.0707(7) 0.6694(5) 0.0903(5)
H52 H 1.0619 0.6525 0.0610
C103 C 1.1293(6) 0.6607(5) 0.1135(5)
H53 H 1.1603 0.6377 0.1017
C104 C 1.1410(7) 0.6869(5) 0.1543(5)
H54 H 1.1818 0.6818 0.1709
C105 C 0.8536(7) 0.8278(5) 0.5692(6)
H55 H 0.8635 0.8428 0.5993
C106 C 0.7963(7) 0.8408(5) 0.5449(5)
H56 H 0.7679 0.8655 0.5569
C107 C 0.7820(7) 0.8163(6) 0.5023(5)
H57 H 0.7417 0.8230 0.4858
C108 C 0.8806(7) 0.7753(5) 0.5082(5)
C109 C 0.9332(6) 0.7469(5) 0.4844(5)
C110 C 0.9743(7) 0.7208(6) 0.4128(6)
H58 H 0.9696 0.7142 0.3793
C111 C 1.0354(7) 0.7142(6) 0.4349(6)
H59 H 1.0731 0.7051 0.4166
C112 C 1.0399(7) 0.7210(6) 0.4825(5)
H60 H 1.0803 0.7135 0.4985
N1 N 1.0230(5) 0.9487(4) 0.3821(4)
N2 N 0.9034(6) 0.9322(4) 0.4184(4)
N3 N 0.8536(6) 0.8037(4) 0.3740(5)
N4 N 1.0596(6) 0.8336(5) 0.3041(4)
N5 N 0.8776(6) 0.9430(5) 0.2887(5)
N6 N 1.0255(6) 0.8416(4) 0.4657(5)
N7 N 0.6351(5) 0.9232(4) 0.3831(4)
N8 N 0.5221(6) 0.9288(4) 0.4325(4)
N9 N 0.5007(6) 0.8053(5) 0.4923(4)
N10 N 0.6993(6) 0.7935(4) 0.4031(4)
N11 N 0.6654(6) 0.9099(4) 0.5150(4)
N12 N 0.4963(6) 0.8286(5) 0.3379(4)
N13 N 1.2829(6) 0.5905(4) 0.2745(4)
N14 N 1.3998(6) 0.5834(4) 0.2322(4)
N15 N 1.2233(6) 0.7232(4) 0.2444(4)
N16 N 1.4198(6) 0.7087(5) 0.1644(5)
N17 N 1.2637(6) 0.5920(4) 0.1426(4)
N18 N 1.4179(7) 0.6911(5) 0.3191(5)
N19 N 0.7924(6) 0.9132(5) 0.0574(4)
N20 N 0.6660(6) 0.9283(4) 0.0814(4)
N21 N 0.5941(6) 0.7932(5) 0.0915(5)
N22 N 0.8186(6) 0.7764(5) 0.0614(4)
N23 N 0.7468(6) 0.8624(5) 0.1851(5)
N24 N 0.6848(8) 0.8612(6) -0.0415(5)
N25 N 0.9028(6) 0.5524(4) 0.2817(4)
N26 N 1.0200(6) 0.5739(4) 0.2438(4)
N27 N 0.8560(6) 0.6733(4) 0.3523(5)
N28 N 1.0587(6) 0.7056(4) 0.2842(4)
N29 N 0.8875(7) 0.6601(5) 0.1934(5)
N30 N 1.0355(7) 0.5767(5) 0.3803(5)
N31 N 1.1270(7) 0.9631(5) 0.0933(5)
N32 N 1.0123(6) 0.9218(4) 0.1202(4)
N33 N 1.0121(6) 0.7961(4) 0.0639(5)
N34 N 1.1296(7) 0.8344(4) 0.1831(5)
N35 N 1.2303(7) 0.8590(5) 0.0387(5)
N36 N 1.0458(8) 0.9076(6) -0.0235(5)
N37 N 0.9989(6) 0.7740(4) 0.2128(4)
N38 N 0.9311(5) 0.7578(4) 0.1455(4)
N39 N 1.0253(5) 0.6999(4) 0.1066(4)
N40 N 1.0977(6) 0.7201(4) 0.1732(4)
N41 N 0.8955(5) 0.7947(4) 0.5514(4)
N42 N 0.8240(6) 0.7833(4) 0.4839(4)
N43 N 0.9225(6) 0.7362(4) 0.4375(4)
N44 N 0.9882(6) 0.7386(5) 0.5092(4)
O1 O 1.2136(5) 0.8333(4) 0.2731(4)
H64 H 1.2268 0.8627 0.2728
H65 H 1.2443 0.8191 0.2889
O2 O 1.1638(5) 0.7566(5) 0.3377(4)
H66 H 1.2043 0.7530 0.3455
H67 H 1.1420 0.7359 0.3562
O3 O 0.8783(5) 0.6680(4) 0.0940(4)
H68 H 0.8449 0.6498 0.0895
H69 H 0.8766 0.6552 0.1200
O4 O 0.8505(6) 0.6905(6) -0.0064(5)
H70 H 0.8544 0.6603 -0.0119
H71 H 0.8617 0.6928 -0.0359
O5 O 0.9174(7) 0.7899(5) -0.0204(4)
H72 H 0.9470 0.7893 -0.0420
H73 H 0.8910 0.8124 -0.0290
O6 O 1.0516(5) 0.8194(4) 0.5625(4)
H74 H 1.0351 0.8414 0.5445
H75 H 1.0882 0.8089 0.5502
O7 O 0.9180(6) 0.6882(5) 0.5916(4)
H76 H 0.8774 0.6878 0.5995
H77 H 0.9404 0.6659 0.5781
O8 O 1.0056(6) 0.7001(5) 0.6759(4)
H78 H 0.9832 0.6741 0.6796
H79 H 1.0281 0.7125 0.6988
O9 O 1.0685(5) 0.7983(5) 0.6639(4)
H80 H 1.0834 0.7760 0.6791
H81 H 1.1043 0.8145 0.6658
O10 O 0.7572(5) 0.7526(4) 0.3170(3)
H82 H 0.7316 0.7431 0.2969
H83 H 0.7767 0.7686 0.2973
O11 O 0.7095(5) 0.6693(4) 0.3753(4)
H84 H 0.7326 0.6438 0.3714
H85 H 0.6774 0.6689 0.3950
O12 O 0.8254(5) 0.6657(3) 0.4649(3)
H86 H 0.8694 0.6490 0.4645
H87 H 0.8056 0.6467 0.4860
O13 O 0.7064(5) 0.7167(4) 0.4700(4)
H88 H 0.7147 0.6902 0.4940
H89 H 0.6749 0.7306 0.4808
Pr2C Pr 0.42579(4) 0.76578(3) 0.54996(3)
Pr3C Pr 1.49488(4) 0.74540(3) 0.10561(3)
Pr3C_2 Pr 0.49488(4) 0.74540(3) 0.10561(3)
C30C C 1.0339(7) 0.6727(6) -0.0337(5)
C46C C 0.8873(6) 0.8166(5) 0.6912(5)
C61C C 1.1411(7) 0.6817(6) 0.5850(5)
N9C N 1.0007(6) 0.6947(5) -0.0077(4)
N16C N 0.9198(6) 0.7913(5) 0.6644(5)
N16_2 N 0.4198(6) 0.7087(5) 0.1644(5)
N21C N 1.0941(6) 0.7068(5) 0.5915(5)
N21_2 N 1.5941(6) 0.7932(5) 0.0915(5)
N22C N 0.3186(6) 0.7236(5) 0.5614(4)
N33C N 0.5121(6) 0.7039(4) 0.5639(5)
N38C N 0.4311(5) 0.7422(4) 0.6455(4)
N39C N 0.5253(5) 0.8001(4) 0.6066(4)
N41C N 1.3955(5) 0.7053(4) 0.0514(4)
N41C_2 N 0.3955(5) 0.7053(4) 0.0514(4)
N44C N 1.4882(6) 0.7614(5) 0.0092(4)
N44C_2 N 0.4882(6) 0.7614(5) 0.0092(4)
O3C O 0.3783(5) 0.8320(4) 0.5940(4)
O4C O 0.3505(6) 0.8095(6) 0.4936(5)
O5C O 0.4174(7) 0.7101(5) 0.4796(4)
O6C O 1.5516(5) 0.6806(4) 0.0625(4)
O6C_2 O 0.5516(5) 0.6806(4) 0.0625(4)
O7C O 1.4180(6) 0.8118(5) 0.0916(4)
O7C_2 O 0.4180(6) 0.8118(5) 0.0916(4)
O8C O 1.5056(6) 0.7999(5) 0.1759(4)
O8C_2 O 0.5056(6) 0.7999(5) 0.1759(4)
O9C O 1.5685(5) 0.7017(5) 0.1639(4)
O9C_2 O 0.5685(5) 0.7017(5) 0.1639(4)
O24? O 0.9497(10) 0.6185(7) 0.4638(7)
O35? O 0.4378(10) 0.9091(6) 0.1204(6)
O39? O 0.7766(16) 0.6116(12) 0.0813(11)
O41? O 0.7843(19) 0.7883(14) 0.9386(14)
O43? O 0.3703(13) 0.9945(10) 0.0382(8)
O45? O 0.730(3) 0.0836(15) 0.5922(19)
loop_
_geom_bond_atom_site_label_1
_geom_bond_atom_site_label_2
_geom_bond_site_symmetry_1
_geom_bond_site_symmetry_2
Os1 C13 1_555 1_555
Os2 C29 1_555 1_555
Os3 C45 1_555 1_555
Os4 C61 1_555 1_555
Os5 C77 1_555 1_555
Os6 C93 1_555 1_555
Pr1 N4 1_555 1_555
Pr2 N22 1_555 1_555
Pr3 N41 1_555 1_555
Pr4 N3 1_555 1_555
C1 H1 1_555 1_555
C2 C1 1_555 1_555
H2 C2 1_555 1_555
C3 C2 1_555 1_555
H3 C3 1_555 1_555
C4 C3 1_555 1_555
C5 C4 1_555 1_555
H4 C5 1_555 1_555
C6 C5 1_555 1_555
H5 C6 1_555 1_555
C7 C6 1_555 1_555
C8 C7 1_555 1_555
H6 C8 1_555 1_555
C9 C8 1_555 1_555
H7 C9 1_555 1_555
C10 C9 1_555 1_555
H8 C10 1_555 1_555
C11 C7 1_555 1_555
C12 C4 1_555 1_555
C13 N3 1_555 1_555
C14 Os1 1_555 1_555
C15 Os1 1_555 1_555
C16 Os1 1_555 1_555
C17 H9 1_555 1_555
C18 C17 1_555 1_555
H10 C18 1_555 1_555
C19 C18 1_555 1_555
H11 C19 1_555 1_555
C20 C19 1_555 1_555
C21 C20 1_555 1_555
H12 C21 1_555 1_555
C22 C21 1_555 1_555
H13 C22 1_555 1_555
C23 C22 1_555 1_555
C24 C23 1_555 1_555
H14 C24 1_555 1_555
C25 C24 1_555 1_555
H15 C25 1_555 1_555
C26 C25 1_555 1_555
H16 C26 1_555 1_555
C27 C23 1_555 1_555
C28 C20 1_555 1_555
C29 N10 1_555 1_555
C30 Os2 1_555 1_555
C31 Os2 1_555 1_555
C32 Os2 1_555 1_555
C33 H17 1_555 1_555
C34 C33 1_555 1_555
H18 C34 1_555 1_555
C35 C34 1_555 1_555
H19 C35 1_555 1_555
C36 C35 1_555 1_555
C37 C36 1_555 1_555
H20 C37 1_555 1_555
C38 C37 1_555 1_555
H21 C38 1_555 1_555
C39 C38 1_555 1_555
C40 C39 1_555 1_555
H22 C40 1_555 1_555
C41 C40 1_555 1_555
H23 C41 1_555 1_555
C42 C41 1_555 1_555
H24 C42 1_555 1_555
C43 C39 1_555 1_555
C44 C36 1_555 1_555
C45 N15 1_555 1_555
C46 Os3 1_555 1_555
C47 Os3 1_555 1_555
C48 Os3 1_555 1_555
C49 H25 1_555 1_555
C50 C49 1_555 1_555
H26 C50 1_555 1_555
C51 C50 1_555 1_555
H27 C51 1_555 1_555
C52 C51 1_555 1_555
C53 C52 1_555 1_555
H28 C53 1_555 1_555
C54 C53 1_555 1_555
H29 C54 1_555 1_555
C55 C54 1_555 1_555
C56 C55 1_555 1_555
H30 C56 1_555 1_555
C57 C56 1_555 1_555
H31 C57 1_555 1_555
C58 C57 1_555 1_555
H32 C58 1_555 1_555
C59 C55 1_555 1_555
C60 C52 1_555 1_555
C61 N21 1_555 1_555
C62 Os4 1_555 1_555
C63 Os4 1_555 1_555
C64 Os4 1_555 1_555
C65 H33 1_555 1_555
C66 C65 1_555 1_555
H34 C66 1_555 1_555
C67 C66 1_555 1_555
H35 C67 1_555 1_555
C68 C67 1_555 1_555
C69 C68 1_555 1_555
H36 C69 1_555 1_555
C70 C69 1_555 1_555
H37 C70 1_555 1_555
C71 C70 1_555 1_555
C72 C71 1_555 1_555
H38 C72 1_555 1_555
C73 C72 1_555 1_555
H39 C73 1_555 1_555
C74 C73 1_555 1_555
H40 C74 1_555 1_555
C75 C71 1_555 1_555
C76 C68 1_555 1_555
C77 N27 1_555 1_555
C78 Os5 1_555 1_555
C79 Os5 1_555 1_555
C80 Os5 1_555 1_555
C81 H41 1_555 1_555
C82 C81 1_555 1_555
H42 C82 1_555 1_555
C83 C82 1_555 1_555
H43 C83 1_555 1_555
C84 C83 1_555 1_555
C85 C84 1_555 1_555
H44 C85 1_555 1_555
C86 C85 1_555 1_555
H45 C86 1_555 1_555
C87 C86 1_555 1_555
C88 C87 1_555 1_555
H46 C88 1_555 1_555
C89 C88 1_555 1_555
H47 C89 1_555 1_555
C90 C89 1_555 1_555
H48 C90 1_555 1_555
C91 C87 1_555 1_555
C92 C84 1_555 1_555
C93 N33 1_555 1_555
C94 Os6 1_555 1_555
C95 Os6 1_555 1_555
C96 Os6 1_555 1_555
C97 H49 1_555 1_555
C98 C97 1_555 1_555
H50 C98 1_555 1_555
C99 C98 1_555 1_555
H51 C99 1_555 1_555
C100 C101 1_555 1_555
C101 N39 1_555 1_555
C102 H52 1_555 1_555
C103 C102 1_555 1_555
H53 C103 1_555 1_555
C104 C103 1_555 1_555
H54 C104 1_555 1_555
C105 H55 1_555 1_555
C106 C105 1_555 1_555
H56 C106 1_555 1_555
C107 C106 1_555 1_555
H57 C107 1_555 1_555
C108 C109 1_555 1_555
C109 N43 1_555 1_555
C110 H58 1_555 1_555
C111 C110 1_555 1_555
H59 C111 1_555 1_555
C112 C111 1_555 1_555
H60 C112 1_555 1_555
C113 H61 1_555 1_555
H62 C113 1_555 1_555
H63 C113 1_555 1_555
N1 Os1 1_555 1_555
N2 Os1 1_555 1_555
N4 C14 1_555 1_555
N5 C15 1_555 1_555
N6 C16 1_555 1_555
N7 Os2 1_555 1_555
N8 Os2 1_555 1_555
N9 C30 1_555 1_555
N10 Pr4 1_555 1_555
N11 C31 1_555 1_555
N12 C32 1_555 1_555
N13 Os3 1_555 1_555
N14 Os3 1_555 1_555
N15 Pr1 1_555 1_555
N16 C46 1_555 1_555
N17 C47 1_555 1_555
N18 C48 1_555 1_555
N19 Os4 1_555 1_555
N20 Os4 1_555 1_555
N21 Pr3C_2 1_555 1_555
N22 C62 1_555 1_555
N23 C63 1_555 1_555
N24 C64 1_555 1_555
N25 Os5 1_555 1_555
N26 Os5 1_555 1_555
N27 Pr4 1_555 1_555
N28 Pr1 1_555 1_555
N29 C79 1_555 1_555
N30 C80 1_555 1_555
N31 Os6 1_555 1_555
N32 Os6 1_555 1_555
N33 Pr2 1_555 1_555
N34 Pr1 1_555 1_555
N35 C95 1_555 1_555
N36 C96 1_555 1_555
N37 Pr1 1_555 1_555
N38 Pr2 1_555 1_555
N39 Pr2 1_555 1_555
N40 Pr1 1_555 1_555
N41 C105 1_555 1_555
N42 Pr4 1_555 1_555
N43 Pr4 1_555 1_555
N44 Pr3 1_555 1_555
O1 Pr1 1_555 1_555
H64 O1 1_555 1_555
H65 O1 1_555 1_555
O2 Pr1 1_555 1_555
H66 O2 1_555 1_555
H67 O2 1_555 1_555
O3 Pr2 1_555 1_555
H68 O3 1_555 1_555
H69 O3 1_555 1_555
O4 Pr2 1_555 1_555
H70 O4 1_555 1_555
H71 O4 1_555 1_555
O5 Pr2 1_555 1_555
H72 O5 1_555 1_555
H73 O5 1_555 1_555
O6 Pr3 1_555 1_555
H74 O6 1_555 1_555
H75 O6 1_555 1_555
O7 Pr3 1_555 1_555
H76 O7 1_555 1_555
H77 O7 1_555 1_555
O8 Pr3 1_555 1_555
H78 O8 1_555 1_555
H79 O8 1_555 1_555
O9 Pr3 1_555 1_555
H80 O9 1_555 1_555
H81 O9 1_555 1_555
O10 Pr4 1_555 1_555
H82 O10 1_555 1_555
H83 O10 1_555 1_555
O11 Pr4 1_555 1_555
H84 O11 1_555 1_555
H85 O11 1_555 1_555
O12 Pr4 1_555 1_555
H86 O12 1_555 1_555
H87 O12 1_555 1_555
O13 Pr4 1_555 1_555
H88 O13 1_555 1_555
H89 O13 1_555 1_555
O14 H90 1_555 1_555
H91 O14 1_555 1_555
O15 H92 1_555 1_555
H93 O15 1_555 1_555
O16 H94 1_555 1_555
H95 O16 1_555 1_555
O17 H96 1_555 1_555
H97 O17 1_555 1_555
O20 H98 1_555 1_555
H99 O20 1_555 1_555
O25 H100 1_555 1_555
H101 O25 1_555 1_555
O29 H102 1_555 1_555
H103 O29 1_555 1_555
O32 H104 1_555 1_555
H105 O32 1_555 1_555
O36 C113 1_555 1_555
H106 O36 1_555 1_555
Pr2C N9 1_555 1_555
Pr3C N16 1_555 1_555
Pr3C_2 N16_2 1_555 1_555
C30C N9C 1_555 1_555
C46C N16C 1_555 1_555
C61C N21C 1_555 1_555
N9C Pr2 1_555 1_555
N16C Pr3 1_555 1_555
N21C Pr3 1_555 1_555
N21_2 Pr3C 1_555 1_555
N22C Pr2C 1_555 1_555
N33C Pr2C 1_555 1_555
N38C Pr2C 1_555 1_555
N39C Pr2C 1_555 1_555
N41C Pr3C 1_555 1_555
N41C_2 Pr3C_2 1_555 1_555
N44C Pr3C 1_555 1_555
N44C_2 Pr3C_2 1_555 1_555
O3C Pr2C 1_555 1_555
O4C Pr2C 1_555 1_555
O5C Pr2C 1_555 1_555
O6C Pr3C 1_555 1_555
O6C_2 Pr3C_2 1_555 1_555
O7C Pr3C 1_555 1_555
O7C_2 Pr3C_2 1_555 1_555
O8C Pr3C 1_555 1_555
O8C_2 Pr3C_2 1_555 1_555
O9C Pr3C 1_555 1_555
O9C_2 Pr3C_2 1_555 1_555
C1 N1 1_555 1_555
C10 N2 1_555 1_555
C11 C12 1_555 1_555
C11 N2 1_555 1_555
C12 N1 1_555 1_555
C17 N7 1_555 1_555
C26 N8 1_555 1_555
C27 C28 1_555 1_555
C27 N8 1_555 1_555
C28 N7 1_555 1_555
C33 N13 1_555 1_555
C42 N14 1_555 1_555
C43 C44 1_555 1_555
C43 N14 1_555 1_555
C44 N13 1_555 1_555
C49 N19 1_555 1_555
C58 N20 1_555 1_555
C59 C60 1_555 1_555
C59 N20 1_555 1_555
C60 N19 1_555 1_555
C65 N25 1_555 1_555
C74 N26 1_555 1_555
C75 C76 1_555 1_555
C75 N26 1_555 1_555
C76 N25 1_555 1_555
C78 N28 1_555 1_555
C81 N31 1_555 1_555
C90 N32 1_555 1_555
C91 C92 1_555 1_555
C91 N32 1_555 1_555
C92 N31 1_555 1_555
C94 N34 1_555 1_555
C97 N37 1_555 1_555
C99 N38 1_555 1_555
C100 N37 1_555 1_555
C100 N38 1_555 1_555
C101 N40 1_555 1_555
C102 N39 1_555 1_555
C104 N40 1_555 1_555
C107 N42 1_555 1_555
C108 N41 1_555 1_555
C108 N42 1_555 1_555
C109 N44 1_555 1_555
C110 N43 1_555 1_555
C112 N44 1_555 1_555

#END
