
#######################################################################
#
#                 Cambridge Crystallographic Data Centre
#                                CCDC 
#
#######################################################################
#
# If this CIF has been generated from an entry in the Cambridge 
# Structural Database, then it will include bibliographic, chemical, 
# crystal, experimental, refinement or atomic coordinate data resulting 
# from the CCDC's data processing and validation procedures.
#
#######################################################################

data_SODXIU
_symmetry_cell_setting           monoclinic
_symmetry_space_group_name_H-M   'C 2/c'
_symmetry_Int_Tables_number      15
_space_group_name_Hall           '-C 2yn'
loop_
_symmetry_equiv_pos_site_id
_symmetry_equiv_pos_as_xyz
1 x,y,z
2 -x,y,1/2-z
3 1/2+x,1/2+y,z
4 1/2-x,1/2+y,1/2-z
5 -x,-y,-z
6 x,-y,1/2+z
7 1/2-x,1/2-y,-z
8 1/2+x,1/2-y,1/2+z
_cell_length_a                   20.8725(17)
_cell_length_b                   8.9411(7)
_cell_length_c                   11.4430(9)
_cell_angle_alpha                90
_cell_angle_beta                 114.0580(10)
_cell_angle_gamma                90
_cell_volume                     1950.02
loop_
_atom_site_label
_atom_site_type_symbol
_atom_site_fract_x
_atom_site_fract_y
_atom_site_fract_z
Co1 Co 0.2500 0.2500 0.0000
N1 N 0.31366(8) 0.45136(16) 0.06892(13)
N2 N 0.47321(10) 0.4833(2) 0.43955(16)
O1 O 0.34038(6) 0.13892(14) 0.01919(11)
O2 O 0.31169(6) 0.06577(15) -0.18203(11)
O3 O 0.27318(7) 0.20143(15) 0.19362(11)
H1 H 0.2729 0.1106 0.2032
H2 H 0.2383 0.2461 0.2172
C1 C 0.36427(9) 0.4605(2) 0.18657(17)
H3 H 0.3743 0.3758 0.2382
C2 C 0.40294(10) 0.5895(2) 0.23653(17)
C3 C 0.38891(13) 0.7141(2) 0.1584(2)
H4 H 0.4136 0.8026 0.1882
C4 C 0.33791(15) 0.7045(3) 0.0362(2)
H5 H 0.3279 0.7862 -0.0186
C5 C 0.30191(12) 0.5729(2) -0.00414(19)
H6 H 0.2674 0.5683 -0.0871
C6 C 0.45714(10) 0.5961(2) 0.36725(19)
H7 H 0.4804 0.6860 0.3978
C7 C 0.35471(8) 0.08318(17) -0.06820(15)
C8 C 0.42990(8) 0.03727(18) -0.03243(15)
C9 C 0.44869(9) -0.0463(2) -0.11615(16)
H8 H 0.4145 -0.0774 -0.1943
C10 C 0.48163(9) 0.0832(2) 0.08298(16)
H9 H 0.4694 0.1396 0.1391
N1D N 0.68634(8) 0.54864(16) 0.93108(13)
N2D N 0.52679(10) 0.5167(2) 0.56045(16)
C1D C 0.63573(9) 0.5395(2) 0.81343(17)
H3D H 0.6257 0.6242 0.7618
C2D C 0.59706(10) 0.4105(2) 0.76347(17)
C3D C 0.61109(13) 0.2859(2) 0.8416(2)
H4D H 0.5864 0.1974 0.8118
C4D C 0.66209(15) 0.2955(3) 0.9638(2)
H5D H 0.6721 0.2138 1.0186
C5D C 0.69809(12) 0.4271(2) 1.00414(19)
H6D H 0.7326 0.4317 1.0871
C6D C 0.54286(10) 0.4039(2) 0.63275(19)
H7D H 0.5196 0.3140 0.6022
O1D O 0.65962(6) -0.13892(14) -0.01919(11)
O2D O 0.68831(6) -0.06577(15) 0.18203(11)
C7D C 0.64529(8) -0.08318(17) 0.06820(15)
C8D C 0.57010(8) -0.03727(18) 0.03243(15)
C9D C 0.55131(9) 0.0463(2) 0.11615(16)
H8D H 0.5855 0.0774 0.1943
C10D C 0.51837(9) -0.0832(2) -0.08298(16)
H9D H 0.5306 -0.1396 -0.1391
O3F O 0.22682(7) 0.29857(15) -0.19362(11)
H1F H 0.2271 0.3894 -0.2032
H2F H 0.2617 0.2539 -0.2172
Co1B Co 0.7500 -0.2500 0.0000
Co1B_2 Co 0.7500 0.7500 1.0000
N1F N 0.18634(8) 0.04864(16) -0.06892(13)
O1F O 0.15962(6) 0.36108(14) -0.01919(11)
loop_
_geom_bond_atom_site_label_1
_geom_bond_atom_site_label_2
_geom_bond_site_symmetry_1
_geom_bond_site_symmetry_2
Co1 N1 1_555 1_555
N1 C1 1_555 1_555
N2 C6 1_555 1_555
O1 Co1 1_555 1_555
O2 C7 1_555 1_555
O3 Co1 1_555 1_555
H1 O3 1_555 1_555
H2 O3 1_555 1_555
C1 H3 1_555 1_555
C2 C1 1_555 1_555
C3 C2 1_555 1_555
H4 C3 1_555 1_555
C4 C3 1_555 1_555
H5 C4 1_555 1_555
C5 N1 1_555 1_555
H6 C5 1_555 1_555
C6 C2 1_555 1_555
H7 C6 1_555 1_555
C7 O1 1_555 1_555
C8 C7 1_555 1_555
C9 C8 1_555 1_555
H8 C9 1_555 1_555
C10 C8 1_555 1_555
H9 C10 1_555 1_555
N1D C1D 1_555 1_555
N2D N2 1_555 1_555
C1D H3D 1_555 1_555
C2D C1D 1_555 1_555
C3D C2D 1_555 1_555
H4D C3D 1_555 1_555
C4D C3D 1_555 1_555
H5D C4D 1_555 1_555
C5D N1D 1_555 1_555
H6D C5D 1_555 1_555
C6D N2D 1_555 1_555
H7D C6D 1_555 1_555
O1D C7D 1_555 1_555
O2D C7D 1_555 1_555
C7D C8D 1_555 1_555
C8D C9D 1_555 1_555
C9D C10 1_555 1_555
H8D C9D 1_555 1_555
C10D C9 1_555 1_555
H9D C10D 1_555 1_555
O3F Co1 1_555 1_555
H1F O3F 1_555 1_555
H2F O3F 1_555 1_555
Co1B O1D 1_555 1_555
Co1B_2 N1D 1_555 1_555
N1F Co1 1_555 1_555
O1F Co1 1_555 1_555
C4 C5 1_555 1_555
C2D C6D 1_555 1_555
C4D C5D 1_555 1_555
C8D C10D 1_555 1_555

#END
