
#######################################################################
#
#                 Cambridge Crystallographic Data Centre
#                                CCDC 
#
#######################################################################
#
# If this CIF has been generated from an entry in the Cambridge 
# Structural Database, then it will include bibliographic, chemical, 
# crystal, experimental, refinement or atomic coordinate data resulting 
# from the CCDC's data processing and validation procedures.
#
#######################################################################

data_SODZER
_symmetry_cell_setting           monoclinic
_symmetry_space_group_name_H-M   'P 21/n'
_symmetry_Int_Tables_number      14
_space_group_name_Hall           '-P 2yn'
loop_
_symmetry_equiv_pos_site_id
_symmetry_equiv_pos_as_xyz
1 x,y,z
2 1/2-x,1/2+y,1/2-z
3 -x,-y,-z
4 1/2+x,1/2-y,1/2+z
_cell_length_a                   13.4099(18)
_cell_length_b                   10.6761(14)
_cell_length_c                   13.991(3)
_cell_angle_alpha                90
_cell_angle_beta                 115.708(2)
_cell_angle_gamma                90
_cell_volume                     1804.76
loop_
_atom_site_label
_atom_site_type_symbol
_atom_site_fract_x
_atom_site_fract_y
_atom_site_fract_z
Cd1 Cd -0.34024(3) 0.50211(4) 0.03069(3)
N1 N -0.3363(4) 0.4777(4) 0.1956(3)
N2 N -0.3581(4) 0.5200(4) -0.1433(3)
O1 O -0.1550(3) 0.5607(4) 0.1004(3)
O2 O -0.1890(3) 0.3631(4) 0.0514(3)
O3 O -0.6158(4) 0.2936(4) -0.0104(3)
O4 O -0.4685(4) 0.3511(4) -0.0327(3)
C1 C -0.0064(5) 0.4409(6) 0.0953(5)
H1 H 0.0367 0.3963 0.1638
C2 C -0.0005(6) 0.3609(6) 0.0041(5)
H2 H 0.0775 0.3395 0.0227
H3 H -0.0419 0.2818 -0.0038
C3 C 0.0494(6) 0.5674(6) 0.1003(5)
H4 H 0.0428 0.6195 0.1558
H5 H 0.1292 0.5533 0.1214
C4 C -0.1247(5) 0.4560(6) 0.0815(4)
C5 C -0.4815(5) 0.1378(5) 0.0075(4)
H6 H -0.3990 0.1403 0.0373
C6 C -0.5276(5) 0.0688(5) -0.0994(4)
H7 H -0.5044 0.1132 -0.1486
H8 H -0.6094 0.0690 -0.1311
C7 C -0.4856(5) -0.0666(5) -0.0851(4)
H9 H -0.5960 0.0667 0.0577
H10 H -0.4828 0.1096 0.1547
C8 C -0.5255(5) 0.2711(6) -0.0128(4)
C9 C -0.3289(5) 0.5811(5) 0.2532(4)
H11 H -0.3202 0.6596 0.2258
C10 C -0.3332(5) 0.5796(5) 0.3496(4)
H12 H -0.3278 0.6549 0.3876
C11 C -0.3457(5) 0.4641(5) 0.3899(4)
C12 C -0.3535(5) 0.3574(5) 0.3315(4)
H13 H -0.3620 0.2776 0.3570
C13 C -0.3486(5) 0.3686(5) 0.2349(4)
H14 H -0.3543 0.2947 0.1949
C14 C -0.3510(5) 0.4531(6) 0.4931(4)
H15 H -0.3687 0.3729 0.5108
C15 C -0.3336(5) 0.5437(6) 0.5632(4)
H16 H -0.3133 0.6233 0.5469
C16 C -0.3427(5) 0.5327(5) 0.6636(4)
C17 C -0.3219(5) 0.6353(6) 0.7291(4)
H17 H -0.3017 0.7129 0.7092
C18 C -0.3305(5) 0.6254(5) -0.1758(4)
H18 H -0.3159 0.6975 -0.1320
C19 C -0.3787(5) 0.4190(6) -0.2061(4)
H19 H -0.3981 0.3427 -0.1836
C20 C -0.3729(5) 0.4213(6) 0.6975(4)
H20 H -0.3891 0.3482 0.6547
Cd1_2 Cd -0.34024(3) 0.50211(4) 1.03069(3)
Cd1B Cd -0.65976(3) 0.49789(4) -0.03069(3)
Cd1_3 Cd -0.34024(3) -0.49789(4) 0.03069(3)
Cd1B_2 Cd -0.65976(3) -0.50211(4) -0.03069(3)
Cd1B_3 Cd 0.34024(3) 0.49789(4) -0.03069(3)
Cd1_4 Cd -0.34024(3) 0.50211(4) -0.96931(3)
N1_2 N -0.3363(4) 0.4777(4) 1.1956(3)
N1_3 N -0.3363(4) 0.4777(4) -0.8044(3)
N2_2 N -0.3581(4) 0.5200(4) 0.8567(3)
O1_2 O -0.1550(3) 0.5607(4) 1.1004(3)
O1B O 0.1550(3) 0.4393(4) -0.1004(3)
O2_2 O -0.1890(3) 0.3631(4) 1.0514(3)
O2B O 0.1890(3) 0.6369(4) -0.0514(3)
O3B O -0.3842(4) 0.7064(4) 1.0104(3)
O3B_2 O -0.3842(4) 0.7064(4) 0.0104(3)
O3B_3 O -0.3842(4) -0.2936(4) 0.0104(3)
O4B O -0.5315(4) -0.3511(4) 0.0327(3)
O4_2 O -0.4685(4) 0.3511(4) 0.9673(3)
C1B C 0.0064(5) 0.5591(6) -0.0953(5)
H1B H -0.0367 0.6037 -0.1638
C2B C 0.0005(6) 0.6391(6) -0.0041(5)
H2B H -0.0775 0.6605 -0.0227
H3B H 0.0419 0.7182 0.0038
C3B C -0.0494(6) 0.4326(6) -0.1003(5)
H4B H -0.0428 0.3805 -0.1558
H5B H -0.1292 0.4467 -0.1214
C4B C 0.1247(5) 0.5440(6) -0.0815(4)
C5B C -0.5185(5) -0.1378(5) -0.0075(4)
H6B H -0.6010 -0.1403 -0.0373
C6B C -0.4724(5) -0.0688(5) 0.0994(4)
H7B H -0.4956 -0.1132 0.1486
H8B H -0.3906 -0.0690 0.1311
C7B C -0.5144(5) 0.0666(5) 0.0851(4)
H9B H -0.4040 -0.0667 -0.0577
H10B H -0.5172 -0.1096 -0.1547
C8B C -0.4745(5) -0.2711(6) 0.0128(4)
C9_2 C -0.3289(5) 0.5811(5) -0.7468(4)
H11_2 H -0.3202 0.6596 -0.7742
C10_2 C -0.3332(5) 0.5796(5) -0.6504(4)
H12_2 H -0.3278 0.6549 -0.6124
C11_2 C -0.3457(5) 0.4641(5) -0.6101(4)
C12_2 C -0.3535(5) 0.3574(5) -0.6685(4)
H13_2 H -0.3620 0.2776 -0.6430
C13_2 C -0.3486(5) 0.3686(5) -0.7651(4)
H14_2 H -0.3543 0.2947 -0.8051
C14_2 C -0.3510(5) 0.4531(6) -0.5069(4)
H15_2 H -0.3687 0.3729 -0.4892
C15_2 C -0.3336(5) 0.5437(6) -0.4368(4)
H16_2 H -0.3133 0.6233 -0.4531
C16_2 C -0.3427(5) 0.5327(5) -0.3364(4)
C17_2 C -0.3219(5) 0.6353(6) -0.2709(4)
H17_2 H -0.3017 0.7129 -0.2908
C18_2 C -0.3305(5) 0.6254(5) 0.8242(4)
H18_2 H -0.3159 0.6975 0.8680
C19_2 C -0.3787(5) 0.4190(6) 0.7939(4)
H19_2 H -0.3981 0.3427 0.8164
C20_2 C -0.3729(5) 0.4213(6) -0.3025(4)
H20_2 H -0.3891 0.3482 -0.3453
loop_
_geom_bond_atom_site_label_1
_geom_bond_atom_site_label_2
_geom_bond_site_symmetry_1
_geom_bond_site_symmetry_2
Cd1 N1 1_555 1_555
N1 C9 1_555 1_555
N2 Cd1 1_555 1_555
O1 Cd1 1_555 1_555
O2 Cd1 1_555 1_555
O3 C8 1_555 1_555
O4 Cd1 1_555 1_555
C1 H1 1_555 1_555
C2 C1 1_555 1_555
H2 C2 1_555 1_555
H3 C2 1_555 1_555
C3 C1 1_555 1_555
H4 C3 1_555 1_555
H5 C3 1_555 1_555
C4 O1 1_555 1_555
C5 H6 1_555 1_555
C6 C5 1_555 1_555
H7 C6 1_555 1_555
H8 C6 1_555 1_555
C7 C6 1_555 1_555
H9 C7B 1_555 1_555
H10 C7B 1_555 1_555
C8 O4 1_555 1_555
C9 H11 1_555 1_555
C10 C9 1_555 1_555
H12 C10 1_555 1_555
C11 C10 1_555 1_555
C12 C11 1_555 1_555
H13 C12 1_555 1_555
C13 N1 1_555 1_555
H14 C13 1_555 1_555
C14 C11 1_555 1_555
H15 C14 1_555 1_555
C15 C14 1_555 1_555
H16 C15 1_555 1_555
C16 C15 1_555 1_555
C17 C16 1_555 1_555
H17 C17 1_555 1_555
C18 N2 1_555 1_555
H18 C18 1_555 1_555
C19 N2 1_555 1_555
H19 C19 1_555 1_555
C20 C16 1_555 1_555
H20 C20 1_555 1_555
Cd1_2 N1_2 1_555 1_555
Cd1B O3 1_555 1_555
Cd1_3 O3B_3 1_555 1_555
Cd1B_2 O4B 1_555 1_555
Cd1B_3 O1B 1_555 1_555
Cd1_4 N1_3 1_555 1_555
N1_3 C9_2 1_555 1_555
N2_2 Cd1_2 1_555 1_555
O1_2 Cd1_2 1_555 1_555
O1B C4B 1_555 1_555
O2_2 Cd1_2 1_555 1_555
O2B Cd1B_3 1_555 1_555
O3B Cd1_2 1_555 1_555
O3B_2 Cd1 1_555 1_555
O3B_3 C8B 1_555 1_555
O4B C8B 1_555 1_555
O4_2 Cd1_2 1_555 1_555
C1B H1B 1_555 1_555
C2B C3 1_555 1_555
H2B C2B 1_555 1_555
H3B C2B 1_555 1_555
C3B C2 1_555 1_555
H4B C3B 1_555 1_555
H5B C3B 1_555 1_555
C4B O2B 1_555 1_555
C5B C7 1_555 1_555
H6B C5B 1_555 1_555
C6B C5B 1_555 1_555
H7B C6B 1_555 1_555
H8B C6B 1_555 1_555
C7B C5 1_555 1_555
H9B C7 1_555 1_555
H10B C7 1_555 1_555
C8B C5B 1_555 1_555
C9_2 H11_2 1_555 1_555
C10_2 C9_2 1_555 1_555
H12_2 C10_2 1_555 1_555
C11_2 C10_2 1_555 1_555
C12_2 C11_2 1_555 1_555
H13_2 C12_2 1_555 1_555
C13_2 N1_3 1_555 1_555
H14_2 C13_2 1_555 1_555
C14_2 C11_2 1_555 1_555
H15_2 C14_2 1_555 1_555
C15_2 C14_2 1_555 1_555
H16_2 C15_2 1_555 1_555
C16_2 C15_2 1_555 1_555
C17_2 C18 1_555 1_555
H17_2 C17_2 1_555 1_555
C18_2 C17 1_555 1_555
H18_2 C18_2 1_555 1_555
C19_2 C20 1_555 1_555
H19_2 C19_2 1_555 1_555
C20_2 C19 1_555 1_555
H20_2 C20_2 1_555 1_555
O2 C4 1_555 1_555
C1 C4 1_555 1_555
C5 C8 1_555 1_555
C12 C13 1_555 1_555
N2_2 C18_2 1_555 1_555
N2_2 C19_2 1_555 1_555
C1B C2B 1_555 1_555
C1B C3B 1_555 1_555
C1B C4B 1_555 1_555
C6B C7B 1_555 1_555
C12_2 C13_2 1_555 1_555
C16_2 C17_2 1_555 1_555
C16_2 C20_2 1_555 1_555

#END
