
#######################################################################
#
#                 Cambridge Crystallographic Data Centre
#                                CCDC 
#
#######################################################################
#
# If this CIF has been generated from an entry in the Cambridge 
# Structural Database, then it will include bibliographic, chemical, 
# crystal, experimental, refinement or atomic coordinate data resulting 
# from the CCDC's data processing and validation procedures.
#
#######################################################################

data_SODZAN
_symmetry_cell_setting           orthorhombic
_symmetry_space_group_name_H-M   'P c c n'
_symmetry_Int_Tables_number      56
_space_group_name_Hall           '-P 2ab 2ac'
loop_
_symmetry_equiv_pos_site_id
_symmetry_equiv_pos_as_xyz
1 x,y,z
2 1/2-x,1/2-y,z
3 -x,1/2+y,1/2-z
4 1/2+x,-y,1/2-z
5 -x,-y,-z
6 1/2+x,1/2+y,-z
7 x,1/2-y,1/2+z
8 1/2-x,y,1/2+z
_cell_length_a                   12.6415(8)
_cell_length_b                   16.9860(10)
_cell_length_c                   23.2415(14)
_cell_angle_alpha                90
_cell_angle_beta                 90
_cell_angle_gamma                90
_cell_volume                     4990.61
loop_
_atom_site_label
_atom_site_type_symbol
_atom_site_fract_x
_atom_site_fract_y
_atom_site_fract_z
Cd1 Cd 0.89355(3) 0.73485(2) 0.088935(16)
N1 N 0.8965(4) 0.7379(3) -0.00926(19)
N2 N 0.8893(4) 0.7404(3) 0.1880(2)
O1 O 0.8732(3) 0.5955(2) 0.09440(18)
O2 O 0.7233(3) 0.6570(2) 0.08540(17)
O3 O 0.9205(4) 0.4540(3) 0.1833(2)
H1 H 0.943(6) 0.470(4) 0.2153(15)
O4 O 0.7651(3) 0.4969(3) 0.21585(18)
O5 O 1.0720(3) 0.7013(2) 0.09201(18)
O6 O 1.0362(3) 0.8261(2) 0.10338(16)
C1 C 0.7141(5) 0.5172(3) 0.0933(3)
H2 H 0.6507 0.5249 0.1184
C2 C 0.7796(5) 0.4517(4) 0.1180(3)
H3 H 0.8427 0.4451 0.0924
C3 C 0.7201(5) 0.3728(4) 0.1185(3)
H4 H 0.7677 0.3308 0.1326
H5 H 0.6590 0.3764 0.1450
C4 C 0.6810(7) 0.3520(4) 0.0582(3)
H6 H 0.7426 0.3409 0.0332
H7 H 0.6375 0.3036 0.0602
C5 C 0.6177(6) 0.4160(4) 0.0325(3)
H8 H 0.5510 0.4217 0.0544
H9 H 0.5992 0.4016 -0.0075
C6 C 0.6755(5) 0.4945(4) 0.0322(3)
H10 H 0.6275 0.5359 0.0176
H11 H 0.7370 0.4912 0.0060
C7 C 0.7756(5) 0.5943(3) 0.0911(2)
C8 C 0.8200(6) 0.4704(3) 0.1771(3)
C9 C 1.2154(5) 0.7876(3) 0.1174(2)
H12 H 1.2425 0.8219 0.0857
C10 C 1.2279(5) 0.8347(4) 0.1735(2)
H13 H 1.2998 0.8577 0.1748
H14 H 1.1764 0.8786 0.1736
C11 C 1.2108(5) 0.7844(3) 0.2269(3)
H15 H 1.1375 0.7640 0.2273
H16 H 1.2213 0.8168 0.2618
C12 C 1.1019(5) 0.7706(4) 0.1039(2)
C13 C 0.9313(5) 0.6773(4) -0.0406(2)
H17 H 0.9544 0.6312 -0.0211
C14 C 0.9354(5) 0.6784(4) -0.0997(2)
H18 H 0.9603 0.6337 -0.1202
C15 C 0.9030(5) 0.7451(3) -0.1295(2)
C16 C 0.8666(4) 0.8088(3) -0.0973(2)
H19 H 0.8440 0.8558 -0.1158
C17 C 0.8639(5) 0.8023(4) -0.0378(2)
H20 H 0.8376 0.8455 -0.0162
C18 C 0.9188(4) 0.6777(3) 0.2195(2)
H21 H 0.9362 0.6300 0.2004
C19 C 0.9246(5) 0.6807(3) 0.2789(2)
H22 H 0.9436 0.6351 0.3003
C20 C 0.9023(4) 0.7492(3) -0.1929(2)
C21 C 0.8735(5) 0.6852(3) -0.2262(2)
H23 H 0.8571 0.6362 -0.2087
C22 C 0.8689(4) 0.8067(3) 0.2156(2)
H24 H 0.8499 0.8515 0.1935
Cd1F Cd 0.89355(3) 0.76515(2) -0.411065(16)
Cd1A Cd 0.60645(3) 0.76515(2) 0.088935(16)
Cd1A_2 Cd 1.60645(3) 0.76515(2) 0.088935(16)
Cd1F_2 Cd 0.89355(3) 0.76515(2) 0.588935(16)
N1F N 0.8965(4) 0.7621(3) -0.50926(19)
N1F_2 N 0.8965(4) 0.7621(3) 0.49074(19)
N2F N 0.8893(4) 0.7596(3) -0.3120(2)
O1F O 0.8732(3) 0.9045(2) -0.40560(18)
O1A O 0.6268(3) 0.9045(2) 0.09440(18)
O2F O 0.7233(3) 0.8430(2) -0.41460(17)
O2G O 0.7767(3) 0.6570(2) -0.41460(17)
O2A O 0.7767(3) 0.8430(2) 0.08540(17)
O3A O 0.5795(4) 1.0460(3) 0.1833(2)
H1A H 0.557(6) 1.030(4) 0.2153(15)
O4A O 0.7349(3) 1.0031(3) 0.21585(18)
O5F O 1.0720(3) 0.7987(2) -0.40799(18)
O5A O 1.4280(3) 0.7987(2) 0.09201(18)
O6F O 1.0362(3) 0.6739(2) -0.39662(16)
O6A O 1.4638(3) 0.6739(2) 0.10338(16)
C1A C 0.7859(5) 0.9828(3) 0.0933(3)
H2A H 0.8493 0.9751 0.1184
C2A C 0.7204(5) 1.0483(4) 0.1180(3)
H3A H 0.6573 1.0549 0.0924
C3A C 0.7799(5) 1.1272(4) 0.1185(3)
H4A H 0.7323 1.1692 0.1326
H5A H 0.8410 1.1236 0.1450
C4A C 0.8190(7) 1.1480(4) 0.0582(3)
H6A H 0.7574 1.1591 0.0332
H7A H 0.8625 1.1964 0.0602
C5A C 0.8823(6) 1.0840(4) 0.0325(3)
H8A H 0.9490 1.0783 0.0544
H9A H 0.9008 1.0984 -0.0075
C6A C 0.8245(5) 1.0055(4) 0.0322(3)
H10A H 0.8725 0.9641 0.0176
H11A H 0.7630 1.0088 0.0060
C7A C 0.7244(5) 0.9057(3) 0.0911(2)
C8A C 0.6800(6) 1.0296(3) 0.1771(3)
C9A C 1.2846(5) 0.7124(3) 0.1174(2)
H12A H 1.2575 0.6781 0.0857
C10A C 1.2721(5) 0.6653(4) 0.1735(2)
H13A H 1.2002 0.6423 0.1748
H14A H 1.3236 0.6214 0.1736
C11A C 1.2892(5) 0.7156(3) 0.2269(3)
H15A H 1.3625 0.7360 0.2273
H16A H 1.2787 0.6832 0.2618
C12A C 1.3981(5) 0.7294(4) 0.1039(2)
C13F C 0.9313(5) 0.8227(4) 0.4594(2)
H17F H 0.9544 0.8688 0.4789
C14F C 0.9354(5) 0.8216(4) 0.4003(2)
H18F H 0.9603 0.8663 0.3798
C15F C 0.9030(5) 0.7549(3) 0.3705(2)
C16F C 0.8666(4) 0.6912(3) 0.4027(2)
H19F H 0.8440 0.6442 0.3842
C17F C 0.8639(5) 0.6977(4) 0.4622(2)
H20F H 0.8376 0.6545 0.4838
C18F C 0.9188(4) 0.8223(3) -0.2805(2)
H21F H 0.9362 0.8700 -0.2996
C19F C 0.9246(5) 0.8193(3) -0.2211(2)
H22F H 0.9436 0.8649 -0.1997
C20F C 0.9023(4) 0.7508(3) 0.3071(2)
C21F C 0.8735(5) 0.8148(3) 0.2738(2)
H23F H 0.8571 0.8638 0.2913
C22F C 0.8689(4) 0.6933(3) -0.2844(2)
H24F H 0.8499 0.6485 -0.3065
O7 O 0.0272(4) 0.4999(3) 0.2732(2)
H25 H 0.0935(6) 0.501(4) 0.276(3)
H26 H -0.010(5) 0.492(4) 0.3025(19)
O8 O 0.7473(4) 0.5333(3) 0.3418(2)
H27 H 0.739(6) 0.517(4) 0.3079(11)
H28 H 0.703(4) 0.507(4) 0.361(3)
O9 O 0.9467(4) 0.4845(3) 0.3786(2)
H29 H 0.8824(15) 0.495(4) 0.373(3)
H30 H 0.942(6) 0.4358(8) 0.384(3)
O10 O 0.5908(4) 0.4611(3) 0.4048(3)
H31 H 0.5251(11) 0.468(5) 0.403(4)
H32 H 0.598(7) 0.4120(7) 0.407(4)
loop_
_geom_bond_atom_site_label_1
_geom_bond_atom_site_label_2
_geom_bond_site_symmetry_1
_geom_bond_site_symmetry_2
Cd1 N1 1_555 1_555
N1 C13 1_555 1_555
N2 Cd1 1_555 1_555
O1 Cd1 1_555 1_555
O2 Cd1 1_555 1_555
O3 H1 1_555 1_555
O4 C8 1_555 1_555
O5 Cd1 1_555 1_555
O6 Cd1 1_555 1_555
C1 H2 1_555 1_555
C2 C1 1_555 1_555
H3 C2 1_555 1_555
C3 C2 1_555 1_555
H4 C3 1_555 1_555
H5 C3 1_555 1_555
C4 C3 1_555 1_555
H6 C4 1_555 1_555
H7 C4 1_555 1_555
C5 C4 1_555 1_555
H8 C5 1_555 1_555
H9 C5 1_555 1_555
C6 C1 1_555 1_555
H10 C6 1_555 1_555
H11 C6 1_555 1_555
C7 O1 1_555 1_555
C8 O3 1_555 1_555
C9 H12 1_555 1_555
C10 C9 1_555 1_555
H13 C10 1_555 1_555
H14 C10 1_555 1_555
C11 C10 1_555 1_555
H15 C11 1_555 1_555
H16 C11 1_555 1_555
C12 O5 1_555 1_555
C13 H17 1_555 1_555
C14 C13 1_555 1_555
H18 C14 1_555 1_555
C15 C14 1_555 1_555
C16 C15 1_555 1_555
H19 C16 1_555 1_555
C17 N1 1_555 1_555
H20 C17 1_555 1_555
C18 N2 1_555 1_555
H21 C18 1_555 1_555
C19 C18 1_555 1_555
H22 C19 1_555 1_555
C20 C15 1_555 1_555
C21 C20 1_555 1_555
H23 C21 1_555 1_555
C22 N2 1_555 1_555
H24 C22 1_555 1_555
O7 H25 1_555 1_555
H26 O7 1_555 1_555
O8 H27 1_555 1_555
H28 O8 1_555 1_555
O9 H29 1_555 1_555
H30 O9 1_555 1_555
O10 H31 1_555 1_555
H32 O10 1_555 1_555
Cd1F N1F 1_555 1_555
Cd1A O2 1_555 1_555
Cd1A_2 O5A 1_555 1_555
Cd1F_2 N1F_2 1_555 1_555
N1F_2 C13F 1_555 1_555
N2F Cd1F 1_555 1_555
O1F Cd1F 1_555 1_555
O1A Cd1A 1_555 1_555
O2F Cd1F 1_555 1_555
O2G Cd1F 1_555 1_555
O2A Cd1 1_555 1_555
O3A H1A 1_555 1_555
O4A C8A 1_555 1_555
O5F Cd1F 1_555 1_555
O5A C12A 1_555 1_555
O6F Cd1F 1_555 1_555
O6A Cd1A_2 1_555 1_555
C1A H2A 1_555 1_555
C2A C1A 1_555 1_555
H3A C2A 1_555 1_555
C3A C2A 1_555 1_555
H4A C3A 1_555 1_555
H5A C3A 1_555 1_555
C4A C3A 1_555 1_555
H6A C4A 1_555 1_555
H7A C4A 1_555 1_555
C5A C4A 1_555 1_555
H8A C5A 1_555 1_555
H9A C5A 1_555 1_555
C6A C1A 1_555 1_555
H10A C6A 1_555 1_555
H11A C6A 1_555 1_555
C7A O1A 1_555 1_555
C8A O3A 1_555 1_555
C9A C9 1_555 1_555
H12A C9A 1_555 1_555
C10A C9A 1_555 1_555
H13A C10A 1_555 1_555
H14A C10A 1_555 1_555
C11A C11 1_555 1_555
H15A C11A 1_555 1_555
H16A C11A 1_555 1_555
C12A O6A 1_555 1_555
C13F H17F 1_555 1_555
C14F C13F 1_555 1_555
H18F C14F 1_555 1_555
C15F C14F 1_555 1_555
C16F C15F 1_555 1_555
H19F C16F 1_555 1_555
C17F N1F_2 1_555 1_555
H20F C17F 1_555 1_555
C18F N2F 1_555 1_555
H21F C18F 1_555 1_555
C19F C20 1_555 1_555
H22F C19F 1_555 1_555
C20F C19 1_555 1_555
C21F C22 1_555 1_555
H23F C21F 1_555 1_555
C22F C21 1_555 1_555
H24F C22F 1_555 1_555
O2 C7 1_555 1_555
O6 C12 1_555 1_555
C1 C7 1_555 1_555
C2 C8 1_555 1_555
C5 C6 1_555 1_555
C9 C12 1_555 1_555
C16 C17 1_555 1_555
Cd1A O2A 1_555 1_555
N2F C22F 1_555 1_555
O2A C7A 1_555 1_555
C1A C7A 1_555 1_555
C2A C8A 1_555 1_555
C5A C6A 1_555 1_555
C9A C12A 1_555 1_555
C10A C11A 1_555 1_555
C15F C20F 1_555 1_555
C16F C17F 1_555 1_555
C18F C19F 1_555 1_555
C20F C21F 1_555 1_555

#END
