
#######################################################################
#
#                 Cambridge Crystallographic Data Centre
#                                CCDC 
#
#######################################################################
#
# If this CIF has been generated from an entry in the Cambridge 
# Structural Database, then it will include bibliographic, chemical, 
# crystal, experimental, refinement or atomic coordinate data resulting 
# from the CCDC's data processing and validation procedures.
#
#######################################################################

data_SOFCEV
_symmetry_cell_setting           monoclinic
_symmetry_space_group_name_H-M   'P 21/c'
_symmetry_Int_Tables_number      14
_space_group_name_Hall           '-P 2ybc'
loop_
_symmetry_equiv_pos_site_id
_symmetry_equiv_pos_as_xyz
1 x,y,z
2 -x,1/2+y,1/2-z
3 -x,-y,-z
4 x,1/2-y,1/2+z
_cell_length_a                   9.568(4)
_cell_length_b                   16.692(7)
_cell_length_c                   14.957(9)
_cell_angle_alpha                90
_cell_angle_beta                 94.05(4)
_cell_angle_gamma                90
_cell_volume                     2382.8
loop_
_atom_site_label
_atom_site_type_symbol
_atom_site_fract_x
_atom_site_fract_y
_atom_site_fract_z
Cu1 Cu 0.0831(1) 0.2311(1) 0.3513(1)
N1 N 0.0712(7) 0.1185(4) 0.2408(4)
N2 N 0.1016(6) 0.3356(4) 0.4590(4)
N3 N 0.2159(7) -0.0763(4) 0.0685(4)
N7 N 0.2674(5) 0.2624(3) 0.3053(4)
N8 N 0.3607(7) 0.3088(3) 0.3525(4)
C1 C 0.4680(9) 0.3269(5) 0.3047(7)
C2 C 0.4484(9) 0.2923(6) 0.2265(7)
C3 C 0.3227(9) 0.2523(5) 0.2271(6)
N9 N 0.1742(6) 0.1570(3) 0.4408(5)
N10 N 0.2645(7) 0.1002(5) 0.4243(5)
C4 C 0.3063(10) 0.0588(5) 0.4968(9)
C5 C 0.2387(12) 0.0893(6) 0.5645(6)
C6 C 0.1614(10) 0.1493(5) 0.5275(7)
N11 N -0.1041(6) 0.1995(4) 0.3918(4)
N12 N -0.1927(7) 0.2508(3) 0.4263(4)
C7 C -0.3160(8) 0.2179(5) 0.4366(5)
C8 C -0.3086(9) 0.1429(5) 0.4063(6)
C9 C -0.1766(10) 0.1335(5) 0.3810(5)
N13 N -0.0181(6) 0.3000(4) 0.2598(4)
N14 N 0.0008(6) 0.3792(4) 0.2530(4)
C10 C -0.0916(10) 0.4098(5) 0.1926(6)
C11 C -0.1717(9) 0.3515(6) 0.1563(5)
C12 C -0.1231(8) 0.2837(5) 0.2002(5)
C13 C 0.0977(7) 0.0938(4) 0.1719(7)
C14 C 0.1139(7) 0.3802(5) 0.5161(6)
C15 C 0.1755(7) -0.0127(5) 0.0771(4)
C16 C 0.1278(7) 0.0666(4) 0.0880(5)
H1 H 0.344(7) 0.325(4) 0.411(4)
H2 H 0.535(6) 0.356(4) 0.336(4)
H3 H 0.503(6) 0.289(4) 0.176(4)
H4 H 0.262(6) 0.221(3) 0.182(4)
H5 H 0.290(7) 0.096(4) 0.370(4)
H6 H 0.354(7) 0.014(4) 0.491(5)
H7 H 0.251(7) 0.069(4) 0.628(4)
H8 H 0.102(7) 0.180(4) 0.545(5)
H9 H -0.170(7) 0.301(4) 0.437(4)
H10 H -0.380(7) 0.250(4) 0.463(4)
H11 H -0.366(8) 0.111(4) 0.405(5)
H12 H -0.137(7) 0.091(4) 0.355(4)
H13 H 0.071(7) 0.402(4) 0.292(4)
H14 H -0.092(7) 0.462(4) 0.184(4)
H15 H -0.236(7) 0.354(4) 0.112(4)
H16 H -0.155(7) 0.231(4) 0.197(4)
C16C C 0.1278(7) 0.4334(4) 0.5880(5)
C14C C 0.1139(7) 0.1198(5) 0.0161(6)
C13C C 0.0977(7) 0.4062(4) 0.6719(7)
C15C C 0.1755(7) 0.5127(5) 0.5771(4)
N2C N 0.1016(6) 0.1644(4) -0.0410(4)
N1C N 0.0712(7) 0.3815(4) 0.7408(4)
N3C N 0.2159(7) 0.5763(4) 0.5685(4)
Cu1C Cu 0.0831(1) 0.2689(1) -0.1487(1)
Cu1C_2 Cu 0.0831(1) 0.2689(1) 0.8513(1)
N1C_2 N 0.0712(7) 0.3815(4) -0.2592(4)
N7C N 0.2674(5) 0.2376(3) -0.1947(4)
N9C N 0.1742(6) 0.3430(3) -0.0592(5)
N11C N -0.1041(6) 0.3005(4) -0.1082(4)
N13C N -0.0181(6) 0.2000(4) -0.2402(4)
N8C N 0.3607(7) 0.1912(3) -0.1475(4)
C3C C 0.3227(9) 0.2477(5) -0.2729(6)
N10C N 0.2645(7) 0.3998(5) -0.0757(5)
C6C C 0.1614(10) 0.3507(5) 0.0275(7)
N12C N -0.1927(7) 0.2492(3) -0.0737(4)
C9C C -0.1766(10) 0.3665(5) -0.1190(5)
N14C N 0.0008(6) 0.1208(4) -0.2470(4)
C12C C -0.1231(8) 0.2163(5) -0.2998(5)
C1C C 0.4680(9) 0.1731(5) -0.1953(7)
H1C H 0.344(7) 0.175(4) -0.089(4)
C2C C 0.4484(9) 0.2077(6) -0.2735(7)
H4C H 0.262(6) 0.279(3) -0.318(4)
C4C C 0.3063(10) 0.4412(5) -0.0032(9)
H5C H 0.290(7) 0.404(4) -0.130(4)
C5C C 0.2387(12) 0.4107(6) 0.0645(6)
H8C H 0.102(7) 0.320(4) 0.045(5)
C7C C -0.3160(8) 0.2821(5) -0.0634(5)
H9C H -0.170(7) 0.199(4) -0.063(4)
C8C C -0.3086(9) 0.3571(5) -0.0937(6)
H12C H -0.137(7) 0.409(4) -0.145(4)
C10C C -0.0916(10) 0.0902(5) -0.3074(6)
H13C H 0.071(7) 0.098(4) -0.208(4)
C11C C -0.1717(9) 0.1485(6) -0.3437(5)
H16C H -0.155(7) 0.269(4) -0.303(4)
H2C H 0.535(6) 0.144(4) -0.164(4)
H3C H 0.503(6) 0.211(4) -0.324(4)
H6C H 0.354(7) 0.486(4) -0.009(5)
H7C H 0.251(7) 0.431(4) 0.128(4)
H10C H -0.380(7) 0.250(4) -0.037(4)
H11C H -0.366(8) 0.389(4) -0.095(5)
H14C H -0.092(7) 0.038(4) -0.316(4)
H15C H -0.236(7) 0.146(4) -0.388(4)
N4 N 0.5365(7) 0.6409(5) 0.4729(5)
N5 N 0.2024(7) 0.4884(4) 0.3279(4)
N6 N 0.5975(8) 0.5304(4) 0.2154(5)
C17 C 0.4913(8) 0.6014(5) 0.4164(6)
C18 C 0.3084(9) 0.5185(4) 0.3368(5)
C19 C 0.5270(9) 0.5402(4) 0.2733(6)
C20 C 0.4418(8) 0.5537(4) 0.3431(6)
loop_
_geom_bond_atom_site_label_1
_geom_bond_atom_site_label_2
_geom_bond_site_symmetry_1
_geom_bond_site_symmetry_2
Cu1 N1 1_555 1_555
N1 C13 1_555 1_555
N2 Cu1 1_555 1_555
N3 C15 1_555 1_555
N4 C17 1_555 1_555
N5 C18 1_555 1_555
N6 C19 1_555 1_555
N7 Cu1 1_555 1_555
N8 N7 1_555 1_555
C1 N8 1_555 1_555
C2 C1 1_555 1_555
C3 N7 1_555 1_555
N9 Cu1 1_555 1_555
N10 N9 1_555 1_555
C4 N10 1_555 1_555
C5 C4 1_555 1_555
C6 N9 1_555 1_555
N11 Cu1 1_555 1_555
N12 N11 1_555 1_555
C7 N12 1_555 1_555
C8 C7 1_555 1_555
C9 N11 1_555 1_555
N13 Cu1 1_555 1_555
N14 N13 1_555 1_555
C10 N14 1_555 1_555
C11 C10 1_555 1_555
C12 N13 1_555 1_555
C13 C16 1_555 1_555
C14 N2 1_555 1_555
C15 C16 1_555 1_555
C16 C14C 1_555 1_555
C17 C20 1_555 1_555
C18 C20 1_555 1_555
C19 C20 1_555 1_555
H1 N8 1_555 1_555
H2 C1 1_555 1_555
H3 C2 1_555 1_555
H4 C3 1_555 1_555
H5 N10 1_555 1_555
H6 C4 1_555 1_555
H7 C5 1_555 1_555
H8 C6 1_555 1_555
H9 N12 1_555 1_555
H10 C7 1_555 1_555
H11 C8 1_555 1_555
H12 C9 1_555 1_555
H13 N14 1_555 1_555
H14 C10 1_555 1_555
H15 C11 1_555 1_555
H16 C12 1_555 1_555
C16C C14 1_555 1_555
C14C N2C 1_555 1_555
C13C C16C 1_555 1_555
C15C C16C 1_555 1_555
N2C Cu1C 1_555 1_555
N1C C13C 1_555 1_555
N3C C15C 1_555 1_555
Cu1C N1C_2 1_555 1_555
Cu1C_2 N1C 1_555 1_555
N7C Cu1C 1_555 1_555
N9C Cu1C 1_555 1_555
N11C Cu1C 1_555 1_555
N13C Cu1C 1_555 1_555
N8C N7C 1_555 1_555
C3C N7C 1_555 1_555
N10C N9C 1_555 1_555
C6C N9C 1_555 1_555
N12C N11C 1_555 1_555
C9C N11C 1_555 1_555
N14C N13C 1_555 1_555
C12C N13C 1_555 1_555
C1C N8C 1_555 1_555
H1C N8C 1_555 1_555
C2C C3C 1_555 1_555
H4C C3C 1_555 1_555
C4C N10C 1_555 1_555
H5C N10C 1_555 1_555
C5C C6C 1_555 1_555
H8C C6C 1_555 1_555
C7C N12C 1_555 1_555
H9C N12C 1_555 1_555
C8C C9C 1_555 1_555
H12C C9C 1_555 1_555
C10C N14C 1_555 1_555
H13C N14C 1_555 1_555
C11C C12C 1_555 1_555
H16C C12C 1_555 1_555
H2C C1C 1_555 1_555
H3C C2C 1_555 1_555
H6C C4C 1_555 1_555
H7C C5C 1_555 1_555
H10C C7C 1_555 1_555
H11C C8C 1_555 1_555
H14C C10C 1_555 1_555
H15C C11C 1_555 1_555
C2 C3 1_555 1_555
C5 C6 1_555 1_555
C8 C9 1_555 1_555
C11 C12 1_555 1_555
C1C C2C 1_555 1_555
C4C C5C 1_555 1_555
C7C C8C 1_555 1_555
C10C C11C 1_555 1_555

#END
