
#######################################################################
#
#                 Cambridge Crystallographic Data Centre
#                                CCDC 
#
#######################################################################
#
# If this CIF has been generated from an entry in the Cambridge 
# Structural Database, then it will include bibliographic, chemical, 
# crystal, experimental, refinement or atomic coordinate data resulting 
# from the CCDC's data processing and validation procedures.
#
#######################################################################

data_SOFNUY
_symmetry_cell_setting           orthorhombic
_symmetry_space_group_name_H-M   'P n a 21'
_symmetry_Int_Tables_number      33
_space_group_name_Hall           'P 2c -2n'
loop_
_symmetry_equiv_pos_site_id
_symmetry_equiv_pos_as_xyz
1 x,y,z
2 -x,-y,1/2+z
3 1/2-x,1/2+y,1/2+z
4 1/2+x,1/2-y,z
_cell_length_a                   14.7659(3)
_cell_length_b                   7.23320(10)
_cell_length_c                   14.7996(3)
_cell_angle_alpha                90
_cell_angle_beta                 90
_cell_angle_gamma                90
_cell_volume                     1580.67
loop_
_atom_site_label
_atom_site_type_symbol
_atom_site_fract_x
_atom_site_fract_y
_atom_site_fract_z
Al1 Al 1.10929(6) 0.21022(13) 0.43535(7)
B1 B 0.9304(3) 0.2539(5) 0.3442(3)
B2 B 0.7680(3) 0.2480(5) 0.3166(3)
B3 B 0.8736(2) 0.2564(4) 0.1849(3)
B4 B 0.8669(3) 0.4823(5) 0.0576(3)
B5 B 0.8773(2) 0.1549(5) 0.0236(3)
O1 O 0.99648(14) 0.2555(4) 0.40640(16)
O2 O 0.84091(17) 0.2738(4) 0.37467(17)
O3 O 0.68243(16) 0.2404(4) 0.34604(17)
O4 O 0.78431(15) 0.2270(3) 0.22637(15)
O5 O 0.94604(15) 0.2353(3) 0.25343(16)
O6 O 0.87665(16) 0.4447(3) 0.14741(16)
O7 O 0.86263(17) 0.6590(3) 0.03078(17)
O8 O 0.86123(19) 0.3370(3) -0.00394(17)
O9 O 0.88110(16) 0.0252(3) -0.04159(16)
O10 O 0.88832(15) 0.1171(3) 0.11384(16)
Al1A Al 0.89071(6) -0.21022(13) -0.06465(7)
Al1A_2 Al 0.89071(6) 0.78978(13) -0.06465(7)
Al1C Al 0.60929(6) 0.28978(13) 0.43535(7)
O3C O 1.18243(16) 0.2596(4) 0.34604(17)
O7A O 1.13737(17) 0.3410(3) 0.53078(17)
O9A O 1.11890(16) -0.0252(3) 0.45841(16)
Zn1 Zn 0.59397(2) 0.67836(5) 0.18537(3)
C1 C 0.6680(3) 1.0029(5) 0.0722(3)
H1 H 0.7100 1.0272 0.0233
H2 H 0.6983 1.0326 0.1285
C2 C 0.5859(2) 1.1264(6) 0.0617(3)
H3 H 0.5418 1.0941 0.1077
H4 H 0.5585 1.1028 0.0032
C3 C 0.6072(3) 1.3332(5) 0.0691(3)
H5 H 0.6651 1.3571 0.0404
H6 H 0.5614 1.4023 0.0366
C4 C 0.4371(2) 0.7508(5) 0.3097(3)
H7 H 0.4499 0.8800 0.3215
H8 H 0.4756 0.6778 0.3490
C5 C 0.3383(3) 0.7126(6) 0.3342(3)
H9 H 0.3316 0.5814 0.3461
H10 H 0.3243 0.7778 0.3898
C6 C 0.2698(2) 0.7676(5) 0.2636(3)
H11 H 0.2767 0.8985 0.2512
H12 H 0.2832 0.7012 0.2082
N1 N 0.6436(2) 0.8026(4) 0.0720(2)
H13 H 0.6506 0.7388 0.0235
N2 N 0.61089(19) 1.4017(4) 0.16474(19)
H14 H 0.6198 1.3272 0.2091
N3 N 0.46166(19) 0.7088(4) 0.2133(2)
H15 H 0.4210 0.6983 0.1720
N4 N 0.1742(2) 0.7320(5) 0.2884(2)
H16 H 0.1558 0.6820 0.3378
Zn1_2 Zn 0.59397(2) 1.67836(5) 0.18537(3)
Zn1C Zn 0.09397(2) 0.82164(5) 0.18537(3)
N2_2 N 0.61089(19) 0.4017(4) 0.16474(19)
N4C N 0.6742(2) 0.7680(5) 0.2884(2)
loop_
_geom_bond_atom_site_label_1
_geom_bond_atom_site_label_2
_geom_bond_site_symmetry_1
_geom_bond_site_symmetry_2
Al1 O1 1_555 1_555
B1 O1 1_555 1_555
B2 O2 1_555 1_555
B3 O4 1_555 1_555
B4 O6 1_555 1_555
B5 O8 1_555 1_555
O2 B1 1_555 1_555
O3 B2 1_555 1_555
O4 B2 1_555 1_555
O5 B1 1_555 1_555
O6 B3 1_555 1_555
O7 B4 1_555 1_555
O8 B4 1_555 1_555
O9 B5 1_555 1_555
O10 B3 1_555 1_555
Zn1 N1 1_555 1_555
C1 H1 1_555 1_555
H2 C1 1_555 1_555
C2 C1 1_555 1_555
H3 C2 1_555 1_555
H4 C2 1_555 1_555
C3 C2 1_555 1_555
H5 C3 1_555 1_555
H6 C3 1_555 1_555
C4 H7 1_555 1_555
H8 C4 1_555 1_555
C5 C4 1_555 1_555
H9 C5 1_555 1_555
H10 C5 1_555 1_555
C6 C5 1_555 1_555
H11 C6 1_555 1_555
H12 C6 1_555 1_555
N1 C1 1_555 1_555
H13 N1 1_555 1_555
N2 C3 1_555 1_555
H14 N2 1_555 1_555
N3 Zn1 1_555 1_555
H15 N3 1_555 1_555
N4 C6 1_555 1_555
H16 N4 1_555 1_555
Al1A O9 1_555 1_555
Al1A_2 O7 1_555 1_555
Al1C O3 1_555 1_555
O3C Al1 1_555 1_555
O7A Al1 1_555 1_555
O9A Al1 1_555 1_555
Zn1_2 N2 1_555 1_555
Zn1C N4 1_555 1_555
N2_2 Zn1 1_555 1_555
N4C Zn1 1_555 1_555
B3 O5 1_555 1_555
B5 O10 1_555 1_555
C4 N3 1_555 1_555

#END
