
#######################################################################
#
#                 Cambridge Crystallographic Data Centre
#                                CCDC 
#
#######################################################################
#
# If this CIF has been generated from an entry in the Cambridge 
# Structural Database, then it will include bibliographic, chemical, 
# crystal, experimental, refinement or atomic coordinate data resulting 
# from the CCDC's data processing and validation procedures.
#
#######################################################################

data_SOFROV
_symmetry_cell_setting           monoclinic
_symmetry_space_group_name_H-M   'P 21/c'
_symmetry_Int_Tables_number      14
_space_group_name_Hall           '-P 2ybc'
loop_
_symmetry_equiv_pos_site_id
_symmetry_equiv_pos_as_xyz
1 x,y,z
2 -x,1/2+y,1/2-z
3 -x,-y,-z
4 x,1/2-y,1/2+z
_cell_length_a                   8.850(8)
_cell_length_b                   5.391(5)
_cell_length_c                   19.733(19)
_cell_angle_alpha                90
_cell_angle_beta                 98.467(13)
_cell_angle_gamma                90
_cell_volume                     931.207
loop_
_atom_site_label
_atom_site_type_symbol
_atom_site_fract_x
_atom_site_fract_y
_atom_site_fract_z
Mn1 Mn 0.48221(6) 0.21869(10) 0.80265(3)
O1 O 0.6224(4) -0.0128(7) 0.85865(17)
O2 O 0.6404(6) 0.2595(8) 0.9424(2)
O3 O 0.4307(4) 0.0310(7) 0.71841(18)
H1 H 0.409(13) 0.145(16) 0.685(4)
N1 N 0.2771(5) 0.2691(8) 0.8378(2)
N2 N 0.3671(6) 0.5706(10) 0.9158(2)
H2 H 0.4580 0.5363 0.9082
H3 H 0.3530 0.6847 0.9447
C1 C 0.2482(6) 0.4473(10) 0.8829(3)
C2 C 0.1003(7) 0.4963(12) 0.8942(3)
H4 H 0.0817 0.6234 0.9237
C3 C -0.0186(7) 0.3573(14) 0.8618(3)
H5 H -0.1180 0.3901 0.8692
C4 C 0.0096(7) 0.1699(15) 0.8185(4)
H6 H -0.0695 0.0709 0.7972
C5 C 0.1581(6) 0.1312(12) 0.8071(3)
H7 H 0.1773 0.0055 0.7773
C6 C 0.6702(6) 0.0571(9) 0.9194(3)
C7 C 0.7721(9) -0.1202(13) 0.9641(3)
H8 H 0.8624 -0.1522 0.9439
H9 H 0.7185 -0.2729 0.9683
H10 H 0.8005 -0.0483 1.0087
Mn1A Mn 0.51779(6) -0.28131(10) 0.69735(3)
O3A O 0.5693(4) 0.5310(7) 0.78159(18)
loop_
_geom_bond_atom_site_label_1
_geom_bond_atom_site_label_2
_geom_bond_site_symmetry_1
_geom_bond_site_symmetry_2
Mn1 O1 1_555 1_555
O1 C6 1_555 1_555
O2 C6 1_555 1_555
O3 Mn1 1_555 1_555
H1 O3 1_555 1_555
N1 Mn1 1_555 1_555
N2 H2 1_555 1_555
H3 N2 1_555 1_555
C1 N1 1_555 1_555
C2 C1 1_555 1_555
H4 C2 1_555 1_555
C3 C2 1_555 1_555
H5 C3 1_555 1_555
C4 C3 1_555 1_555
H6 C4 1_555 1_555
C5 N1 1_555 1_555
H7 C5 1_555 1_555
C6 C7 1_555 1_555
C7 H8 1_555 1_555
H9 C7 1_555 1_555
H10 C7 1_555 1_555
Mn1A O3 1_555 1_555
O3A Mn1 1_555 1_555
N2 C1 1_555 1_555
C4 C5 1_555 1_555

#END
