
#######################################################################
#
#                 Cambridge Crystallographic Data Centre
#                                CCDC 
#
#######################################################################
#
# If this CIF has been generated from an entry in the Cambridge 
# Structural Database, then it will include bibliographic, chemical, 
# crystal, experimental, refinement or atomic coordinate data resulting 
# from the CCDC's data processing and validation procedures.
#
#######################################################################

data_SOGSUE11
_symmetry_cell_setting           triclinic
_symmetry_space_group_name_H-M   'P -1'
_symmetry_Int_Tables_number      2
_space_group_name_Hall           '-P 1'
loop_
_symmetry_equiv_pos_site_id
_symmetry_equiv_pos_as_xyz
1 x,y,z
2 -x,-y,-z
_cell_length_a                   7.6052(6)
_cell_length_b                   14.5260(12)
_cell_length_c                   19.6894(17)
_cell_angle_alpha                83.929(2)
_cell_angle_beta                 86.679(2)
_cell_angle_gamma                79.1340(10)
_cell_volume                     2122.56
loop_
_atom_site_label
_atom_site_type_symbol
_atom_site_fract_x
_atom_site_fract_y
_atom_site_fract_z
N3 N 0.3579(16) 0.3098(8) 0.3443(7)
N4 N -1.0408(15) -0.3272(7) 0.3173(6)
C33 C 0.269(2) 0.2697(10) 0.3920(8)
H25 H 0.2564 0.2950 0.4350
C34 C 0.1871(17) 0.1891(9) 0.3860(7)
H26 H 0.1154 0.1661 0.4226
C35 C 0.2147(13) 0.1467(8) 0.3266(5)
C36 C 0.3852(17) 0.2688(9) 0.2873(7)
H27 H 0.4537 0.2955 0.2512
C37 C 0.3190(14) 0.1877(8) 0.2766(6)
H28 H 0.3463 0.1606 0.2345
C38 C 0.1499(12) 0.0602(8) 0.3132(5)
H29 H 0.099(12) 0.062(6) 0.270(2)
C39 C 0.0374(12) 0.0071(8) 0.3684(5)
H30 H 0.051(12) 0.029(6) 0.411(2)
C40 C -0.1561(12) 0.0017(7) 0.3534(5)
C41 C -0.2041(12) -0.0130(7) 0.2878(5)
H31 H -0.1178 -0.0129 0.2509
C42 C -0.3792(12) -0.0279(8) 0.2755(5)
H32 H -0.4073 -0.0387 0.2309
C43 C -0.5092(12) -0.0267(8) 0.3285(5)
C44 C -0.4603(13) -0.0125(8) 0.3935(5)
H33 H -0.5461 -0.0122 0.4306
C45 C -0.2845(12) 0.0015(8) 0.4052(5)
H34 H -0.2557 0.0110 0.4500
C46 C -0.6984(12) -0.0336(8) 0.3106(5)
H35 H -0.712(13) -0.079(5) 0.281(4)
C47 C -0.8156(12) -0.0873(8) 0.3650(5)
H36 H -0.758(11) -0.105(6) 0.407(2)
C48 C -0.8877(13) -0.1722(8) 0.3465(5)
C49 C -0.8739(17) -0.2049(9) 0.2820(6)
H37 H -0.8114 -0.1753 0.2454
C50 C -0.9516(18) -0.2807(9) 0.2715(7)
H38 H -0.9389 -0.3008 0.2269
C51 C -0.9824(14) -0.2177(8) 0.3942(6)
H39 H -0.9982 -0.1977 0.4389
C52 C -1.0585(16) -0.2940(9) 0.3799(6)
H40 H -1.1250 -0.3235 0.4152
C38_2 C -0.8501(12) 0.0602(8) 0.3132(5)
C39_2 C -0.9626(12) 0.0071(8) 0.3684(5)
C46_2 C 0.3016(12) -0.0336(8) 0.3106(5)
C47_2 C 0.1844(12) -0.0873(8) 0.3650(5)
Mn1 Mn 0.22723(17) 0.39400(9) 0.04126(6)
O1 O 0.470(2) 0.3316(10) 0.0896(8)
O2 O 0.3530(19) 0.2232(15) 0.0450(10)
O3 O 1.268(2) -0.4709(12) 0.0515(11)
O4 O 1.043(2) -0.3937(11) -0.0130(11)
C1 C 0.865(2) 0.0244(11) 0.0884(9)
C2 C 0.883(2) -0.0687(11) 0.0677(10)
H1 H 0.7829 -0.0878 0.0501
C3 C 1.048(3) -0.1323(12) 0.0730(16)
C4 C 1.199(3) -0.0996(14) 0.0942(15)
H2 H 1.3135 -0.1391 0.0935
C5 C 1.179(2) -0.0092(13) 0.1160(13)
H3 H 1.2787 0.0103 0.1335
C6 C 1.018(2) 0.0512(12) 0.1122(9)
H4 H 1.0082 0.1127 0.1258
C7 C 0.647(2) 0.1797(9) 0.0937(8)
H5 H 0.7318 0.2029 0.1178
C8 C 0.691(2) 0.0914(9) 0.0782(8)
H6 H 0.5999 0.0676 0.0582
C9 C 0.475(2) 0.2469(12) 0.0762(13)
C10 C 1.058(3) -0.2261(12) 0.0469(13)
H7 H 0.9713 -0.2288 0.0145
C11 C 1.170(4) -0.3063(12) 0.0628(16)
H8 H 1.2616 -0.3076 0.0940
C12 C 1.156(3) -0.3951(12) 0.0321(13)
N1 N 0.083(3) 0.3916(19) 0.1487(9)
N2 N -0.683(4) 0.4028(16) 0.9319(8)
C13 C 0.085(3) 0.4554(18) 0.1937(10)
H9 H 0.1439 0.5072 0.1816
C14 C -0.002(3) 0.4451(13) 0.2592(10)
H10 H 0.0037 0.4894 0.2909
C15 C -0.093(2) 0.3734(12) 0.2778(7)
C16 C -0.105(4) 0.3098(15) 0.2284(10)
H11 H -0.1777 0.2629 0.2368
C17 C -0.005(6) 0.320(2) 0.1671(13)
H12 H 0.0018 0.2732 0.1364
C18 C -0.181(2) 0.3535(12) 0.3469(7)
H13 H -0.2434 0.3026 0.3555
C19 C -0.168(2) 0.4124(12) 0.3997(7)
H14 H -0.1046 0.4632 0.3913
C20 C -0.259(2) 0.3919(13) 0.4706(8)
C21 C -0.354(2) 0.3205(12) 0.4918(8)
H15 H -0.3583 0.2732 0.4625
C22 C -0.445(3) 0.3172(12) 0.5562(8)
H16 H -0.5196 0.2722 0.5695
C23 C -0.420(2) 0.3848(11) 0.6004(7)
C24 C -0.325(3) 0.4558(15) 0.5789(8)
H17 H -0.3154 0.5021 0.6085
C25 C -0.243(3) 0.4592(12) 0.5136(7)
H18 H -0.1760 0.5073 0.4988
C26 C -0.4943(19) 0.3671(10) 0.6712(6)
H19 H -0.5397 0.3109 0.6843
C27 C -0.4979(17) 0.4351(10) 0.7199(6)
H20 H -0.4572 0.4923 0.7056
C28 C -0.564(2) 0.4178(10) 0.7918(6)
C29 C -0.6121(19) 0.3355(11) 0.8228(7)
H21 H -0.6086 0.2833 0.7972
C30 C -0.667(3) 0.3294(12) 0.8932(7)
H22 H -0.6942 0.2714 0.9140
C31 C -0.576(4) 0.4932(14) 0.8332(8)
H23 H -0.5427 0.5507 0.8143
C32 C -0.635(3) 0.4838(16) 0.9011(8)
H24 H -0.6431 0.5358 0.9273
Mn1_2 Mn -0.77277(17) 0.39400(9) 1.04126(6)
Mn1_3 Mn 1.22723(17) -0.60600(9) 0.04126(6)
Mn1A Mn 0.77277(17) -0.39400(9) -0.04126(6)
O3_2 O 0.268(2) 0.5291(12) 0.0515(11)
O4A O -0.043(2) 0.3937(11) 0.0130(11)
N2_2 N 0.317(4) 0.4028(16) -0.0681(8)
O5? O 0.509(2) 0.3011(12) 0.0788(10)
O6? O 0.303(2) 0.2217(18) 0.0521(12)
O7? O 1.224(3) -0.4558(13) 0.0577(12)
O8? O 1.010(3) -0.3697(13) -0.0102(13)
C53? C 0.917(2) 0.0485(12) 0.0987(10)
C54? C 0.902(3) -0.0422(13) 0.0792(12)
H41? H 0.7900 -0.0526 0.0661
C55? C 1.053(3) -0.1164(14) 0.0793(19)
C56? C 1.217(3) -0.1004(16) 0.1030(18)
H42? H 1.3140 -0.1516 0.1105
C57? C 1.236(3) -0.0099(15) 0.1154(15)
H43? H 1.3511 0.0026 0.1233
C58? C 1.089(3) 0.0609(14) 0.1161(11)
H44? H 1.1019 0.1204 0.1288
C59? C 0.5982(19) 0.1338(12) 0.0750(9)
H45? H 0.5641 0.0772 0.0652
C60? C 0.7642(18) 0.1300(12) 0.0947(9)
H46? H 0.7888 0.1871 0.1080
C61? C 0.461(3) 0.2243(13) 0.0676(15)
C62? C 1.038(4) -0.2082(14) 0.0543(16)
H47? H 0.9314 -0.2103 0.0318
C63? C 1.159(4) -0.2872(14) 0.0610(18)
H48? H 1.2670 -0.2878 0.0833
C64? C 1.129(4) -0.3763(14) 0.0333(15)
N5? N 0.111(5) 0.386(3) 0.1514(15)
N6? N -0.664(6) 0.406(3) 0.9214(12)
C65? C 0.125(4) 0.454(3) 0.1921(17)
H49? H 0.2116 0.4924 0.1811
C66? C 0.010(5) 0.467(2) 0.2510(16)
H50? H 0.0139 0.5188 0.2759
C67? C -0.107(4) 0.4079(18) 0.2734(12)
C68? C -0.102(6) 0.328(2) 0.2355(17)
H51? H -0.1596 0.2771 0.2524
C69? C -0.008(10) 0.330(4) 0.172(2)
H52? H -0.0305 0.2877 0.1413
C70? C -0.270(3) 0.4294(14) 0.3204(9)
H53? H -0.34(3) 0.381(11) 0.337(3)
C71? C -0.252(3) 0.4810(13) 0.3821(9)
H54? H -0.141(15) 0.502(14) 0.375(6)
C72? C -0.282(4) 0.434(2) 0.4558(10)
C73? C -0.363(4) 0.3565(18) 0.4773(11)
H55? H -0.3675 0.3110 0.4465
C74? C -0.441(5) 0.3446(19) 0.5454(11)
H56? H -0.4941 0.2908 0.5585
C75? C -0.442(4) 0.4120(18) 0.5943(11)
C76? C -0.325(5) 0.475(2) 0.5740(13)
H57? H -0.2905 0.5096 0.6076
C77? C -0.257(4) 0.4889(19) 0.5073(11)
H58? H -0.1914 0.5382 0.4962
C78? C -0.598(3) 0.4383(14) 0.6448(9)
H59? H -0.628(7) 0.380(2) 0.6642(18)
C79? C -0.575(3) 0.4919(13) 0.7050(8)
H60? H -0.453(9) 0.492(16) 0.691(11)
C80? C -0.581(4) 0.4493(17) 0.7779(9)
C81? C -0.643(3) 0.3680(16) 0.8033(11)
H61? H -0.6631 0.3256 0.7723
C82? C -0.678(4) 0.346(2) 0.8739(11)
H62? H -0.7123 0.2878 0.8889
C83? C -0.558(6) 0.508(2) 0.8287(12)
H63? H -0.5110 0.5637 0.8155
C84? C -0.603(5) 0.487(2) 0.8968(13)
H64? H -0.5915 0.5302 0.9282
loop_
_geom_bond_atom_site_label_1
_geom_bond_atom_site_label_2
_geom_bond_site_symmetry_1
_geom_bond_site_symmetry_2
Mn1 O1 1_555 1_555
O1 C9 1_555 1_555
O2 C9 1_555 1_555
O3 C12 1_555 1_555
O4 C12 1_555 1_555
C1 C2 1_555 1_555
C2 H1 1_555 1_555
C3 C2 1_555 1_555
C4 C3 1_555 1_555
H2 C4 1_555 1_555
C5 C4 1_555 1_555
H3 C5 1_555 1_555
C6 C1 1_555 1_555
H4 C6 1_555 1_555
C7 H5 1_555 1_555
C8 C1 1_555 1_555
H6 C8 1_555 1_555
C9 C7 1_555 1_555
C10 C3 1_555 1_555
H7 C10 1_555 1_555
C11 C10 1_555 1_555
H8 C11 1_555 1_555
C12 C11 1_555 1_555
N1 Mn1 1_555 1_555
N2 C30 1_555 1_555
C13 N1 1_555 1_555
H9 C13 1_555 1_555
C14 C13 1_555 1_555
H10 C14 1_555 1_555
C15 C14 1_555 1_555
C16 C15 1_555 1_555
H11 C16 1_555 1_555
C17 N1 1_555 1_555
H12 C17 1_555 1_555
C18 C15 1_555 1_555
H13 C18 1_555 1_555
C19 C18 1_555 1_555
H14 C19 1_555 1_555
C20 C19 1_555 1_555
C21 C20 1_555 1_555
H15 C21 1_555 1_555
C22 C21 1_555 1_555
H16 C22 1_555 1_555
C23 C22 1_555 1_555
C24 C23 1_555 1_555
H17 C24 1_555 1_555
C25 C20 1_555 1_555
H18 C25 1_555 1_555
C26 C23 1_555 1_555
H19 C26 1_555 1_555
C27 C26 1_555 1_555
H20 C27 1_555 1_555
C28 C27 1_555 1_555
C29 C28 1_555 1_555
H21 C29 1_555 1_555
C30 C29 1_555 1_555
H22 C30 1_555 1_555
C31 C28 1_555 1_555
H23 C31 1_555 1_555
C32 N2 1_555 1_555
H24 C32 1_555 1_555
N3 C33 1_555 1_555
N4 C50 1_555 1_555
C33 H25 1_555 1_555
C34 C33 1_555 1_555
H26 C34 1_555 1_555
C35 C34 1_555 1_555
C36 N3 1_555 1_555
H27 C36 1_555 1_555
C37 C35 1_555 1_555
H28 C37 1_555 1_555
C38 C35 1_555 1_555
H29 C38 1_555 1_555
C39 C38 1_555 1_555
H30 C39 1_555 1_555
C40 C39 1_555 1_555
C41 C40 1_555 1_555
H31 C41 1_555 1_555
C42 C41 1_555 1_555
H32 C42 1_555 1_555
C43 C42 1_555 1_555
C44 C43 1_555 1_555
H33 C44 1_555 1_555
C45 C40 1_555 1_555
H34 C45 1_555 1_555
C46 C43 1_555 1_555
H35 C46 1_555 1_555
C47 C46 1_555 1_555
H36 C47 1_555 1_555
C48 C47 1_555 1_555
C49 C48 1_555 1_555
H37 C49 1_555 1_555
C50 C49 1_555 1_555
H38 C50 1_555 1_555
C51 C48 1_555 1_555
H39 C51 1_555 1_555
C52 N4 1_555 1_555
H40 C52 1_555 1_555
Mn1_2 N2 1_555 1_555
Mn1_3 O3 1_555 1_555
Mn1A O4 1_555 1_555
O3_2 Mn1 1_555 1_555
O4A Mn1 1_555 1_555
N2_2 Mn1 1_555 1_555
C38_2 C46 1_555 1_555
C39_2 C47 1_555 1_555
C46_2 C38 1_555 1_555
C47_2 C39 1_555 1_555
C5 C6 1_555 1_555
C7 C8 1_555 1_555
C16 C17 1_555 1_555
C24 C25 1_555 1_555
C31 C32 1_555 1_555
C36 C37 1_555 1_555
C44 C45 1_555 1_555
C51 C52 1_555 1_555
C38_2 C39_2 1_555 1_555
C46_2 C47_2 1_555 1_555

#END
