
#######################################################################
#
#                 Cambridge Crystallographic Data Centre
#                                CCDC 
#
#######################################################################
#
# If this CIF has been generated from an entry in the Cambridge 
# Structural Database, then it will include bibliographic, chemical, 
# crystal, experimental, refinement or atomic coordinate data resulting 
# from the CCDC's data processing and validation procedures.
#
#######################################################################

data_SOGSAJ
_symmetry_cell_setting           monoclinic
_symmetry_space_group_name_H-M   'P 21/c'
_symmetry_Int_Tables_number      14
_space_group_name_Hall           '-P 2ybc'
loop_
_symmetry_equiv_pos_site_id
_symmetry_equiv_pos_as_xyz
1 x,y,z
2 -x,1/2+y,1/2-z
3 -x,-y,-z
4 x,1/2-y,1/2+z
_cell_length_a                   6.5889(11)
_cell_length_b                   17.407(3)
_cell_length_c                   6.6768(11)
_cell_angle_alpha                90
_cell_angle_beta                 96.498(3)
_cell_angle_gamma                90
_cell_volume                     760.863
loop_
_atom_site_label
_atom_site_type_symbol
_atom_site_fract_x
_atom_site_fract_y
_atom_site_fract_z
K1 K 0.18701(7) 0.42820(3) 0.18605(8)
N1 N 0.4483(2) 0.24721(9) 0.0691(3)
N2 N 0.4991(2) 0.32103(9) 0.0929(3)
N3 N 0.6887(2) 0.32410(9) 0.1789(3)
O1 O 0.4222(2) 0.08834(8) 0.0561(3)
O2 O 0.7410(3) 0.07833(8) 0.2033(3)
O3 O 1.0144(2) 0.16440(8) 0.3398(2)
O4 O 1.0832(2) 0.28885(8) 0.3568(2)
O5 O -0.2044(3) 0.48993(11) 0.1795(3)
C1 C 0.5828(3) 0.11637(12) 0.1297(3)
C2 C 0.6039(3) 0.20141(11) 0.1384(3)
C3 C 0.7587(3) 0.25116(11) 0.2087(3)
C4 C 0.9681(3) 0.23475(12) 0.3079(3)
H1 H 0.322(4) 0.2344(15) 0.012(4)
H2 H 0.887(6) 0.118(2) 0.272(6)
H3 H -0.253(5) 0.4471(13) 0.191(5)
H4 H -0.265(5) 0.514(2) 0.261(5)
K1C K 0.18701(7) 0.07180(3) -0.31395(8)
K1A K 0.81299(7) -0.07180(3) 0.31395(8)
K1C_2 K 1.18701(7) 0.07180(3) 0.68605(8)
K1_2 K 1.18701(7) 0.42820(3) 0.18605(8)
K1B K -0.18701(7) 0.57180(3) -0.18605(8)
O1C O 0.4222(2) 0.41166(8) 0.5561(3)
O2A O 0.2590(3) 0.57833(8) 0.2967(3)
O3C O 0.0144(2) 0.33560(8) -0.1602(2)
O4_2 O 0.0832(2) 0.28885(8) 0.3568(2)
O5B O 0.2044(3) 0.51007(11) -0.1795(3)
H2C H -0.113(6) 0.382(2) -0.228(6)
H3B H 0.253(5) 0.5529(13) -0.191(5)
H4B H 0.265(5) 0.486(2) -0.261(5)
loop_
_geom_bond_atom_site_label_1
_geom_bond_atom_site_label_2
_geom_bond_site_symmetry_1
_geom_bond_site_symmetry_2
K1 N2 1_555 1_555
N1 N2 1_555 1_555
N2 N3 1_555 1_555
N3 C3 1_555 1_555
O1 C1 1_555 1_555
O2 C1 1_555 1_555
O3 C4 1_555 1_555
O4 C4 1_555 1_555
O5 K1 1_555 1_555
C1 C2 1_555 1_555
C2 N1 1_555 1_555
C3 C2 1_555 1_555
C4 C3 1_555 1_555
H1 N1 1_555 1_555
H2 O3 1_555 1_555
H3 O5 1_555 1_555
H4 O5 1_555 1_555
K1C O1 1_555 1_555
K1A O2 1_555 1_555
K1C_2 O3 1_555 1_555
K1_2 O4 1_555 1_555
K1B O5 1_555 1_555
O1C K1 1_555 1_555
O2A K1 1_555 1_555
O3C K1 1_555 1_555
O4_2 K1 1_555 1_555
O5B K1 1_555 1_555
H2C O3C 1_555 1_555
H3B O5B 1_555 1_555
H4B O5B 1_555 1_555
K1B O5B 1_555 1_555

#END
