
#######################################################################
#
#                 Cambridge Crystallographic Data Centre
#                                CCDC 
#
#######################################################################
#
# If this CIF has been generated from an entry in the Cambridge 
# Structural Database, then it will include bibliographic, chemical, 
# crystal, experimental, refinement or atomic coordinate data resulting 
# from the CCDC's data processing and validation procedures.
#
#######################################################################

data_SOGWIV
_symmetry_cell_setting           monoclinic
_symmetry_space_group_name_H-M   'P 21/n'
_symmetry_Int_Tables_number      14
_space_group_name_Hall           '-P 2yn'
loop_
_symmetry_equiv_pos_site_id
_symmetry_equiv_pos_as_xyz
1 x,y,z
2 1/2-x,1/2+y,1/2-z
3 -x,-y,-z
4 1/2+x,1/2-y,1/2+z
_cell_length_a                   9.6172(5)
_cell_length_b                   11.7826(6)
_cell_length_c                   12.2734(6)
_cell_angle_alpha                90
_cell_angle_beta                 99.2950(10)
_cell_angle_gamma                90
_cell_volume                     1372.51
loop_
_atom_site_label
_atom_site_type_symbol
_atom_site_fract_x
_atom_site_fract_y
_atom_site_fract_z
C1 C 0.2003(6) 0.2515(5) 0.7824(5)
C2 C 0.2996(6) 0.2087(5) 0.7047(5)
C3 C 0.5058(6) -0.0656(5) 1.0012(5)
C4 C -0.0632(7) -0.0007(5) 0.9529(5)
O1 O 0.3131(5) 0.1035(4) 0.6966(4)
O2 O 0.3611(5) 0.2828(4) 0.6564(4)
O3 O 0.1943(5) 0.3562(4) 0.7969(4)
O4 O 0.1319(5) 0.1790(4) 0.8262(3)
O5 O -0.0355(5) -0.0159(4) 0.8572(4)
O6 O -0.1828(5) 0.0130(4) 0.9769(4)
O7 O 0.4187(5) -0.1188(4) 0.9327(4)
O8 O 0.6002(5) -0.1077(4) 1.0688(4)
O10 O 0.0433(5) -0.0251(4) 0.6520(4)
H5 H 0.0540 -0.0680 0.6004
H6 H 0.0070 0.0350 0.6261
Cd1 Cd 0.21337(3) -0.01752(3) 0.82941(2)
C1A C 0.2997(6) -0.2485(5) 0.7176(5)
C2A C 0.2004(6) -0.2913(5) 0.7953(5)
C3B C 0.4942(6) 0.0656(5) 0.9988(5)
C4B C 0.0632(7) 0.0007(5) 1.0471(5)
O1A O 0.1869(5) -0.3965(4) 0.8034(4)
O2A O 0.1389(5) -0.2172(4) 0.8436(4)
O2_2 O 0.3611(5) -0.7172(4) 0.6564(4)
O3A O 0.3057(5) -0.1438(4) 0.7031(4)
O3_2 O 0.1943(5) -0.6438(4) 0.7969(4)
O4A O 0.3681(5) -0.3210(4) 0.6738(3)
O5B O 0.0355(5) 0.0159(4) 1.1428(4)
O5A O 0.5355(5) -0.5159(4) 0.6428(4)
O6B O 0.1828(5) -0.0130(4) 1.0231(4)
O6C O 0.3172(5) -0.5130(4) 0.4769(4)
O7B O 0.5813(5) 0.1188(4) 1.0673(4)
O7A O 0.0813(5) -0.6188(4) 0.5673(4)
O8B O 0.3998(5) 0.1077(4) 0.9312(4)
O8C O 0.1002(5) -0.3923(4) 0.5688(4)
O10A O 0.4567(5) -0.5251(4) 0.8480(4)
H5A H 0.4460 -0.5680 0.8996
H6A H 0.4930 -0.4650 0.8739
Cd1A Cd 0.28663(3) -0.51752(3) 0.67059(2)
Cd1A_2 Cd 0.28663(3) 0.48248(3) 0.67059(2)
Cd1B Cd -0.21337(3) 0.01752(3) 1.17059(2)
Cd1B_2 Cd 0.78663(3) 0.01752(3) 1.17059(2)
C5 C 0.3499(10) 0.1264(11) 0.2410(8)
H1 H 0.3734 0.0474 0.2267
H2 H 0.4323 0.1638 0.2835
H3 H 0.3224 0.1662 0.1707
C6 C 0.2315(6) 0.1290(6) 0.3048(5)
O9 O 0.1938(12) 0.2497(10) 0.3275(9)
H4 H 0.1266 0.2502 0.3636
O11 O 0.9194(7) 0.1582(5) 0.5345(5)
H7 H 0.9127 0.1099 0.4847
H8 H 0.9533 0.2170 0.5129
O12 O 0.9135(8) 0.7191(5) 0.9692(5)
H9 H 0.9944 0.6947 0.9941
H10 H 0.8958 0.7634 1.0179
H11 H 0.9266 0.7639 0.9195
O13 O 0.3299(9) 0.0036(5) 0.4914(5)
H12 H 0.3541 0.0354 0.5512
H13 H 0.3857 0.0245 0.4509
H14 H 0.3551 -0.0619 0.5103
loop_
_geom_bond_atom_site_label_1
_geom_bond_atom_site_label_2
_geom_bond_site_symmetry_1
_geom_bond_site_symmetry_2
C1 C2 1_555 1_555
C2 O1 1_555 1_555
C3 O7 1_555 1_555
C4 O5 1_555 1_555
C5 H1 1_555 1_555
H2 C5 1_555 1_555
H3 C5 1_555 1_555
C6 C5 1_555 1_555
O1 Cd1 1_555 1_555
O2 C2 1_555 1_555
O3 C1 1_555 1_555
O4 C1 1_555 1_555
O5 Cd1 1_555 1_555
O6 C4 1_555 1_555
O7 Cd1 1_555 1_555
O8 C3 1_555 1_555
O9 C6 1_555 1_555
H4 O9 1_555 1_555
O10 H5 1_555 1_555
H6 O10 1_555 1_555
O11 H7 1_555 1_555
H8 O11 1_555 1_555
O12 H9 1_555 1_555
H10 O12 1_555 1_555
H11 O12 1_555 1_555
O13 H12 1_555 1_555
H13 O13 1_555 1_555
H14 O13 1_555 1_555
Cd1 O4 1_555 1_555
C1A C2A 1_555 1_555
C2A O1A 1_555 1_555
C3B C3 1_555 1_555
C4B C4 1_555 1_555
O1A Cd1A 1_555 1_555
O2A Cd1 1_555 1_555
O2_2 Cd1A 1_555 1_555
O3A Cd1 1_555 1_555
O3_2 Cd1A 1_555 1_555
O4A C1A 1_555 1_555
O5B C4B 1_555 1_555
O5A Cd1A 1_555 1_555
O6B Cd1 1_555 1_555
O6C Cd1A 1_555 1_555
O7B C3B 1_555 1_555
O7A Cd1A 1_555 1_555
O8B Cd1 1_555 1_555
O8C Cd1A 1_555 1_555
O10A H5A 1_555 1_555
H6A O10A 1_555 1_555
Cd1A O4A 1_555 1_555
Cd1A_2 O2 1_555 1_555
Cd1B O6 1_555 1_555
Cd1B_2 O8 1_555 1_555
O3 Cd1A_2 1_555 1_555
O10 Cd1 1_555 1_555
C1A O3A 1_555 1_555
C2A O2A 1_555 1_555
C3B O8B 1_555 1_555
C4B O6B 1_555 1_555
O5B Cd1B 1_555 1_555
O7B Cd1B_2 1_555 1_555
O10A Cd1A 1_555 1_555

#END
