
#######################################################################
#
#                 Cambridge Crystallographic Data Centre
#                                CCDC 
#
#######################################################################
#
# If this CIF has been generated from an entry in the Cambridge 
# Structural Database, then it will include bibliographic, chemical, 
# crystal, experimental, refinement or atomic coordinate data resulting 
# from the CCDC's data processing and validation procedures.
#
#######################################################################

data_SOGXET
_symmetry_cell_setting           monoclinic
_symmetry_space_group_name_H-M   'P 21/n'
_symmetry_Int_Tables_number      14
_space_group_name_Hall           '-P 2yn'
loop_
_symmetry_equiv_pos_site_id
_symmetry_equiv_pos_as_xyz
1 x,y,z
2 1/2-x,1/2+y,1/2-z
3 -x,-y,-z
4 1/2+x,1/2-y,1/2+z
_cell_length_a                   5.9517(12)
_cell_length_b                   10.165(2)
_cell_length_c                   15.606(3)
_cell_angle_alpha                90
_cell_angle_beta                 91.83(3)
_cell_angle_gamma                90
_cell_volume                     943.666
loop_
_atom_site_label
_atom_site_type_symbol
_atom_site_fract_x
_atom_site_fract_y
_atom_site_fract_z
Ce1 Ce 0.12576(3) 0.379787(17) 0.178017(10)
O1 O 0.1600(4) 0.5708(2) 0.27111(15)
O2 O 0.1041(4) 0.7036(2) 0.38064(16)
O3 O -0.1503(4) 0.4045(2) 0.30749(15)
H1 H -0.2466 0.4233 0.2708
O4 O -0.3957(4) 0.6658(2) 0.30408(13)
H2 H -0.5235 0.6497 0.2859
C1 C 0.0590(5) 0.6028(3) 0.3384(2)
C2 C -0.1268(5) 0.5109(3) 0.36790(19)
H3 H -0.0805 0.4742 0.4238
C3 C -0.3452(5) 0.5857(3) 0.37801(19)
H4 H -0.4662 0.5210 0.3827
C4 C -0.3448(5) 0.6720(3) 0.45811(19)
O5 O -0.4250(4) 0.7870(2) 0.44951(14)
O6 O -0.2739(5) 0.6217(2) 0.52623(15)
O7 O 0.5187(4) 0.4648(3) 0.17924(14)
O8 O 0.8268(3) 0.5357(2) 0.11780(14)
O9 O 0.2480(3) 0.5362(2) 0.06137(14)
H5 H 0.1694 0.5860 0.0320
C5 C 0.6218(5) 0.5138(3) 0.11685(19)
C6 C 0.4765(5) 0.5478(3) 0.03735(19)
H6 H 0.5068 0.6384 0.0196
O10 O 0.3351(5) 0.3025(3) 0.31478(15)
H7 H 0.3095 0.3224 0.3666
H8 H 0.3636 0.2204 0.3128
O7B O 0.4813(4) 0.5352(3) -0.17924(14)
O8B O 0.1732(3) 0.4643(2) -0.11780(14)
O9B O 0.7520(3) 0.4638(2) -0.06137(14)
H5B H 0.8306 0.4140 -0.0320
C5B C 0.3782(5) 0.4862(3) -0.11685(19)
C6B C 0.5235(5) 0.4522(3) -0.03735(19)
H6B H 0.4932 0.3616 -0.0196
Ce1B Ce -0.12576(3) 0.620213(17) -0.178017(10)
O1B O -0.1600(4) 0.4292(2) -0.27111(15)
O2B O -0.1041(4) 0.2964(2) -0.38064(16)
O3B O 0.1503(4) 0.5955(2) -0.30749(15)
H1B H 0.2466 0.5767 -0.2708
O4B O 0.3957(4) 0.3342(2) -0.30408(13)
H2B H 0.5235 0.3503 -0.2859
C1B C -0.0590(5) 0.3972(3) -0.3384(2)
C2B C 0.1268(5) 0.4891(3) -0.36790(19)
H3B H 0.0805 0.5258 -0.4238
C3B C 0.3452(5) 0.4143(3) -0.37801(19)
H4B H 0.4662 0.4790 -0.3827
C4B C 0.3448(5) 0.3280(3) -0.45811(19)
O5B O 0.4250(4) 0.2130(2) -0.44951(14)
O6B O 0.2739(5) 0.3783(2) -0.52623(15)
O10B O -0.3351(5) 0.6975(3) -0.31478(15)
H7B H -0.3095 0.6776 -0.3666
H8B H -0.3636 0.7796 -0.3128
Ce1_2 Ce 1.12576(3) 0.379787(17) 0.178017(10)
Ce1A Ce -0.62576(3) 0.879787(17) 0.321983(10)
Ce1A_2 Ce 0.37424(3) 0.879787(17) 0.321983(10)
Ce1B_2 Ce 0.87424(3) 0.620213(17) -0.178017(10)
Ce1C Ce -0.37424(3) 0.120213(17) -0.321983(10)
Ce1C_2 Ce 0.62576(3) 0.120213(17) -0.321983(10)
O2A O 0.3959(4) 0.2036(2) 0.11936(16)
O2C O -0.3959(4) 0.7964(2) -0.11936(16)
O4A O -0.1043(4) 0.1658(2) 0.19592(13)
O4C O 0.1043(4) 0.8342(2) -0.19592(13)
O5A O -0.0750(4) 0.2870(2) 0.05049(14)
O5C O 0.0750(4) 0.7130(2) -0.05049(14)
O7B_2 O -0.5187(4) 0.5352(3) -0.17924(14)
O8_2 O -0.1732(3) 0.5357(2) 0.11780(14)
O9B_2 O -0.2480(3) 0.4638(2) -0.06137(14)
loop_
_geom_bond_atom_site_label_1
_geom_bond_atom_site_label_2
_geom_bond_site_symmetry_1
_geom_bond_site_symmetry_2
Ce1 O1 1_555 1_555
O1 C1 1_555 1_555
O2 C1 1_555 1_555
O3 Ce1 1_555 1_555
H1 O3 1_555 1_555
O4 H2 1_555 1_555
C1 C2 1_555 1_555
C2 O3 1_555 1_555
H3 C2 1_555 1_555
C3 O4 1_555 1_555
H4 C3 1_555 1_555
C4 C3 1_555 1_555
O5 C4 1_555 1_555
O6 C4 1_555 1_555
O7 Ce1 1_555 1_555
O8 C5 1_555 1_555
O9 Ce1 1_555 1_555
H5 O9 1_555 1_555
C5 O7 1_555 1_555
C6 O9 1_555 1_555
H6 C6 1_555 1_555
O10 Ce1 1_555 1_555
H7 O10 1_555 1_555
H8 O10 1_555 1_555
O7B C5B 1_555 1_555
O8B C5B 1_555 1_555
O9B H5B 1_555 1_555
C5B C6B 1_555 1_555
C6B C6 1_555 1_555
H6B C6B 1_555 1_555
Ce1B O8B 1_555 1_555
O1B Ce1B 1_555 1_555
O2B C1B 1_555 1_555
O3B Ce1B 1_555 1_555
H1B O3B 1_555 1_555
O4B H2B 1_555 1_555
C1B O1B 1_555 1_555
C2B O3B 1_555 1_555
H3B C2B 1_555 1_555
C3B O4B 1_555 1_555
H4B C3B 1_555 1_555
C4B C3B 1_555 1_555
O5B C4B 1_555 1_555
O6B C4B 1_555 1_555
O10B Ce1B 1_555 1_555
H7B O10B 1_555 1_555
H8B O10B 1_555 1_555
Ce1_2 O8 1_555 1_555
Ce1A O4 1_555 1_555
Ce1A_2 O2 1_555 1_555
Ce1B_2 O7B 1_555 1_555
Ce1C O2B 1_555 1_555
Ce1C_2 O4B 1_555 1_555
O2A Ce1 1_555 1_555
O2C Ce1B 1_555 1_555
O4A Ce1 1_555 1_555
O4C Ce1B 1_555 1_555
O5A Ce1 1_555 1_555
O5C Ce1B 1_555 1_555
O7B_2 Ce1B 1_555 1_555
O8_2 Ce1 1_555 1_555
O9B_2 Ce1B 1_555 1_555
C2 C3 1_555 1_555
O5 Ce1A 1_555 1_555
C5 C6 1_555 1_555
O9B C6B 1_555 1_555
O9B Ce1B_2 1_555 1_555
C1B C2B 1_555 1_555
C2B C3B 1_555 1_555
O5B Ce1C_2 1_555 1_555

#END
