
#######################################################################
#
#                 Cambridge Crystallographic Data Centre
#                                CCDC 
#
#######################################################################
#
# If this CIF has been generated from an entry in the Cambridge 
# Structural Database, then it will include bibliographic, chemical, 
# crystal, experimental, refinement or atomic coordinate data resulting 
# from the CCDC's data processing and validation procedures.
#
#######################################################################

data_SOGYUI
_symmetry_cell_setting           monoclinic
_symmetry_space_group_name_H-M   'P 21/n'
_symmetry_Int_Tables_number      14
_space_group_name_Hall           '-P 2yn'
loop_
_symmetry_equiv_pos_site_id
_symmetry_equiv_pos_as_xyz
1 x,y,z
2 1/2-x,1/2+y,1/2-z
3 -x,-y,-z
4 1/2+x,1/2-y,1/2+z
_cell_length_a                   9.539(4)
_cell_length_b                   10.725(3)
_cell_length_c                   10.892(3)
_cell_angle_alpha                90
_cell_angle_beta                 94.55(3)
_cell_angle_gamma                90
_cell_volume                     1110.8
loop_
_atom_site_label
_atom_site_type_symbol
_atom_site_fract_x
_atom_site_fract_y
_atom_site_fract_z
Tl1 Tl 0.19892(5) 0.25441(5) 0.08454(5)
S1 S -0.2380(4) 0.3990(4) 0.3409(3)
O1 O 0.034(1) 0.455(1) 0.154(1)
O2 O -0.5656(9) 0.1059(8) 0.1249(8)
O3 O -0.051(1) 0.301(1) -0.0702(9)
O4 O -0.206(1) 0.184(1) -0.1866(8)
N1 N -0.406(1) 0.239(1) 0.2146(9)
N2 N -0.215(1) 0.307(1) 0.1171(9)
C1 C 0.083(2) 0.113(2) 0.170(2)
C2 C 0.318(2) 0.399(2) 0.005(2)
C3 C -0.287(1) 0.311(1) 0.220(1)
C4 C -0.456(1) 0.164(1) 0.117(1)
C5 C -0.376(1) 0.165(1) 0.012(1)
C6 C -0.259(1) 0.235(1) 0.016(1)
C7 C -0.164(1) 0.239(1) -0.092(1)
Tl1C Tl -0.30108(5) 0.24559(5) -0.41546(5)
O4C O 0.294(1) 0.316(1) 0.3134(8)
S1C S 0.2620(4) 0.1010(4) -0.1591(3)
O2_2 O 0.4344(9) 0.1059(8) 0.1249(8)
Tl1C_2 Tl -0.30108(5) 0.24559(5) 0.58454(5)
Tl1_2 Tl -0.80108(5) 0.25441(5) 0.08454(5)
loop_
_geom_bond_atom_site_label_1
_geom_bond_atom_site_label_2
_geom_bond_site_symmetry_1
_geom_bond_site_symmetry_2
Tl1 O1 1_555 1_555
S1 C3 1_555 1_555
O2 C4 1_555 1_555
O3 Tl1 1_555 1_555
O4 C7 1_555 1_555
N1 C3 1_555 1_555
N2 C3 1_555 1_555
C1 Tl1 1_555 1_555
C2 Tl1 1_555 1_555
C4 N1 1_555 1_555
C5 C4 1_555 1_555
C6 N2 1_555 1_555
C7 O3 1_555 1_555
Tl1C O4 1_555 1_555
O4C Tl1 1_555 1_555
S1C Tl1 1_555 1_555
O2_2 Tl1 1_555 1_555
Tl1C_2 S1 1_555 1_555
Tl1_2 O2 1_555 1_555
C5 C6 1_555 1_555
C6 C7 1_555 1_555

#END
