
#######################################################################
#
#                 Cambridge Crystallographic Data Centre
#                                CCDC 
#
#######################################################################
#
# If this CIF has been generated from an entry in the Cambridge 
# Structural Database, then it will include bibliographic, chemical, 
# crystal, experimental, refinement or atomic coordinate data resulting 
# from the CCDC's data processing and validation procedures.
#
#######################################################################

data_SOHGAY
_symmetry_cell_setting           orthorhombic
_symmetry_space_group_name_H-M   'P b c a'
_symmetry_Int_Tables_number      61
_space_group_name_Hall           '-P 2ac 2ab'
loop_
_symmetry_equiv_pos_site_id
_symmetry_equiv_pos_as_xyz
1 x,y,z
2 1/2+x,1/2-y,-z
3 -x,1/2+y,1/2-z
4 1/2-x,-y,1/2+z
5 -x,-y,-z
6 1/2-x,1/2+y,z
7 x,1/2-y,1/2+z
8 1/2+x,y,1/2-z
_cell_length_a                   15.531(5)
_cell_length_b                   10.389(5)
_cell_length_c                   15.987(5)
_cell_angle_alpha                90
_cell_angle_beta                 90
_cell_angle_gamma                90
_cell_volume                     2579.53
loop_
_atom_site_label
_atom_site_type_symbol
_atom_site_fract_x
_atom_site_fract_y
_atom_site_fract_z
Cu1 Cu 0.68084(3) 0.14204(5) 0.21851(4)
S1 S 0.54195(8) 0.20685(13) 0.24225(8)
S2 S 0.67974(11) -0.02540(16) 0.36260(9)
O1 O 0.8702(2) -0.3769(4) -0.0446(2)
C1 C 0.4956(3) 0.0891(5) 0.1856(3)
N1 N 0.5424(2) 0.0021(4) 0.1430(2)
C2 C 0.7310(3) -0.1408(5) 0.3165(3)
C3 C 0.7640(3) -0.0804(4) 0.0914(2)
N2 N 0.6316(2) 0.0107(3) 0.1453(2)
N3 N 0.9184(3) -0.2922(4) -0.0192(2)
O2 O 0.79472(19) 0.1061(3) 0.17504(19)
C4 C 0.7969(3) -0.1797(4) 0.0417(3)
C5 C 0.9410(3) -0.0964(5) 0.0628(3)
C6 C 0.9098(3) 0.0011(5) 0.1092(3)
C7 C 0.8842(3) -0.1871(5) 0.0294(3)
O3 O 0.9960(2) -0.2953(4) -0.0331(3)
N4 N 0.4108(3) 0.0769(5) 0.1785(3)
C8 C 0.6721(3) -0.0736(5) 0.1012(3)
C9 C 0.8204(3) 0.0127(4) 0.1268(3)
N5 N 0.7692(3) -0.2208(4) 0.2836(3)
H1 H 0.7608 -0.2399 0.0167
H2 H 1.0004 -0.1054 0.0534
H3 H 0.9463 0.0640 0.1301
H4 H 0.6380 -0.1363 0.0737
H5 H 0.5179 -0.0564 0.1116
H6 H 0.3788 0.1209 0.2116
H7 H 0.3901 0.0266 0.1403
Cu1E Cu 0.81916(3) -0.35796(5) 0.21851(4)
N5E N 0.7308(3) 0.2792(4) 0.2836(3)
loop_
_geom_bond_atom_site_label_1
_geom_bond_atom_site_label_2
_geom_bond_site_symmetry_1
_geom_bond_site_symmetry_2
Cu1 S1 1_555 1_555
S1 C1 1_555 1_555
S2 Cu1 1_555 1_555
O1 N3 1_555 1_555
C1 N1 1_555 1_555
N1 N2 1_555 1_555
C2 S2 1_555 1_555
C3 C4 1_555 1_555
N2 Cu1 1_555 1_555
N3 C7 1_555 1_555
O2 Cu1 1_555 1_555
C4 C7 1_555 1_555
C5 C6 1_555 1_555
C6 C9 1_555 1_555
C7 C5 1_555 1_555
O3 N3 1_555 1_555
N4 C1 1_555 1_555
C8 C3 1_555 1_555
C9 C3 1_555 1_555
N5 C2 1_555 1_555
H1 C4 1_555 1_555
H2 C5 1_555 1_555
H3 C6 1_555 1_555
H4 C8 1_555 1_555
H5 N1 1_555 1_555
H6 N4 1_555 1_555
H7 N4 1_555 1_555
Cu1E N5 1_555 1_555
N5E Cu1 1_555 1_555
N2 C8 1_555 1_555
O2 C9 1_555 1_555

#END
