
#######################################################################
#
#                 Cambridge Crystallographic Data Centre
#                                CCDC 
#
#######################################################################
#
# If this CIF has been generated from an entry in the Cambridge 
# Structural Database, then it will include bibliographic, chemical, 
# crystal, experimental, refinement or atomic coordinate data resulting 
# from the CCDC's data processing and validation procedures.
#
#######################################################################

data_SOHNIN
_symmetry_cell_setting           orthorhombic
_symmetry_space_group_name_H-M   'P b c a'
_symmetry_Int_Tables_number      61
_space_group_name_Hall           '-P 2ac 2ab'
loop_
_symmetry_equiv_pos_site_id
_symmetry_equiv_pos_as_xyz
1 x,y,z
2 1/2-x,-y,1/2+z
3 -x,1/2+y,1/2-z
4 1/2+x,1/2-y,-z
5 -x,-y,-z
6 1/2+x,y,1/2-z
7 x,1/2-y,1/2+z
8 1/2-x,1/2+y,z
_cell_length_a                   27.8060(3)
_cell_length_b                   13.80910(10)
_cell_length_c                   45.1378(6)
_cell_angle_alpha                90
_cell_angle_beta                 90
_cell_angle_gamma                90
_cell_volume                     17331.8
loop_
_atom_site_label
_atom_site_type_symbol
_atom_site_fract_x
_atom_site_fract_y
_atom_site_fract_z
Zn1 Zn 0.47652(3) 1.12844(7) 0.41532(2)
Zn2 Zn 0.73880(4) 0.83092(6) 0.185328(19)
Zn3 Zn 0.95148(3) 1.14518(7) 0.421690(19)
I1 I 0.49452(2) 1.20158(4) 0.466332(14)
I2 I 0.43073(2) 1.21682(5) 0.375277(18)
I3 I 0.69389(2) 0.67095(4) 0.192263(12)
I4 I 0.82676(2) 0.83229(5) 0.170096(14)
I5 I 0.94575(2) 1.32757(4) 0.426944(15)
I6 I 1.01626(2) 1.05227(6) 0.394448(15)
C1 C 0.6766(3) 1.0471(5) 0.35344(15)
C2 C 0.7198(3) 1.0106(5) 0.31267(15)
C3 C 0.7569(3) 1.0502(5) 0.35504(15)
C4 C 0.6293(3) 1.0600(5) 0.36850(17)
C5 C 0.6265(3) 1.0806(6) 0.39786(17)
H1 H 0.6551 1.0842 0.4093
C6 C 0.5833(3) 1.0964(6) 0.41123(17)
H2 H 0.5826 1.1120 0.4317
C7 C 0.5446(3) 1.0677(7) 0.3673(2)
H3 H 0.5155 1.0625 0.3564
C8 C 0.5866(3) 1.0514(6) 0.35276(19)
H4 H 0.5867 1.0346 0.3323
C9 C 0.7236(3) 0.9775(5) 0.28164(15)
C10 C 0.6830(3) 0.9405(6) 0.26716(17)
H5 H 0.6524 0.9400 0.2764
C11 C 0.6896(3) 0.9038(6) 0.23823(18)
H6 H 0.6626 0.8773 0.2283
C12 C 0.7692(3) 0.9424(5) 0.23828(17)
H7 H 0.7991 0.9447 0.2281
C13 C 0.7669(3) 0.9783(5) 0.26678(15)
H8 H 0.7949 1.0034 0.2761
C14 C 0.8024(3) 1.0670(5) 0.37145(16)
C15 C 0.8469(3) 1.0580(6) 0.35748(15)
H9 H 0.8484 1.0399 0.3372
C16 C 0.8882(3) 1.0753(5) 0.37296(15)
H10 H 0.9182 1.0679 0.3632
C17 C 0.8454(3) 1.1103(6) 0.41546(17)
H11 H 0.8451 1.1292 0.4357
C18 C 0.8020(3) 1.0921(5) 0.40169(15)
H12 H 0.7727 1.0965 0.4123
C19 C 0.3943(3) 0.7068(6) 0.43380(16)
C20 C 0.3988(3) 0.5693(6) 0.46020(16)
C21 C 0.3615(3) 0.5717(6) 0.41556(17)
C22 C 0.4085(3) 0.8098(6) 0.43015(17)
C23 C 0.4055(3) 0.8556(6) 0.40305(18)
H13 H 0.3923 0.8230 0.3864
C24 C 0.4217(3) 0.9477(6) 0.40053(18)
H14 H 0.4181 0.9794 0.3820
C25 C 0.4452(3) 0.9529(6) 0.44898(18)
H15 H 0.4589 0.9872 0.4651
C26 C 0.4293(3) 0.8612(6) 0.45412(18)
H16 H 0.4320 0.8326 0.4732
C27 C 0.4150(3) 0.5154(5) 0.48604(16)
C28 C 0.4395(3) 0.5619(6) 0.50894(17)
H17 H 0.4470 0.6288 0.5073
C29 C 0.4526(3) 0.5115(6) 0.53385(17)
H18 H 0.4695 0.5447 0.5491
C30 C 0.4203(3) 0.3708(6) 0.51555(17)
H19 H 0.4140 0.3036 0.5177
C31 C 0.4060(3) 0.4181(6) 0.48932(17)
H20 H 0.3902 0.3830 0.4740
C32 C 0.3380(3) 0.5178(6) 0.39165(16)
C33 C 0.3404(4) 0.4174(6) 0.3907(2)
H21 H 0.3570 0.3829 0.4058
C34 C 0.3192(4) 0.3687(6) 0.3682(2)
H22 H 0.3206 0.3000 0.3683
C35 C 0.2928(3) 0.5088(6) 0.34687(19)
H23 H 0.2755 0.5407 0.3316
C36 C 0.3126(4) 0.5643(6) 0.36838(18)
H24 H 0.3095 0.6328 0.3679
N1 N 0.6760(2) 1.0210(4) 0.32454(13)
N2 N 0.7613(2) 1.0253(4) 0.32704(12)
N3 N 0.7156(2) 1.0631(4) 0.36963(13)
N4 N 0.5416(2) 1.0905(4) 0.39623(14)
N5 N 0.7312(2) 0.9045(4) 0.22441(13)
N6 N 0.8877(2) 1.1026(4) 0.40184(13)
N7 N 0.4093(2) 0.6640(5) 0.45851(14)
N8 N 0.3742(2) 0.5199(5) 0.43948(14)
N9 N 0.3697(2) 0.6663(4) 0.41180(14)
N10 N 0.4428(2) 0.9975(5) 0.42312(14)
N11 N 0.4427(2) 0.4182(5) 0.53760(13)
N12 N 0.2960(3) 0.4133(5) 0.34560(14)
Zn2B Zn 0.26120(4) 0.33092(6) 0.314672(19)
Zn3C Zn 0.45148(3) 0.35482(7) 0.578310(19)
N11C N 0.9427(2) 1.0818(5) 0.46240(13)
N12B N 0.7040(3) 0.9133(5) 0.15440(14)
C37 C 0.7308(4) 0.2732(7) 0.3245(3)
C38 C 0.7553(5) 0.2442(7) 0.2986(3)
H25 H 0.7894 0.2430 0.2984
C39 C 0.7315(4) 0.2188(6) 0.2746(2)
H26 H 0.7493 0.2043 0.2572
C40 C 0.6801(5) 0.2121(8) 0.2734(3)
C41 C 0.6551(5) 0.2407(8) 0.2991(3)
H27 H 0.6210 0.2391 0.2994
C42 C 0.6803(4) 0.2715(7) 0.3241(2)
C43 C 0.6535(4) 0.2984(6) 0.3515(2)
C44 C 0.6019(4) 0.3048(7) 0.3519(3)
H28 H 0.5840 0.2925 0.3344
C45 C 0.5792(4) 0.3281(6) 0.3772(3)
H29 H 0.5453 0.3348 0.3777
C46 C 0.6062(5) 0.3421(7) 0.4024(3)
H30 H 0.5899 0.3543 0.4205
C47 C 0.6534(5) 0.3394(7) 0.4025(2)
H31 H 0.6704 0.3521 0.4204
C48 C 0.6782(4) 0.3182(6) 0.3771(3)
C49 C 0.7315(5) 0.3191(7) 0.3778(3)
C50 C 0.7575(5) 0.3414(7) 0.4032(3)
H32 H 0.7401 0.3539 0.4209
C51 C 0.8084(5) 0.3469(9) 0.4043(3)
H33 H 0.8256 0.3654 0.4216
C52 C 0.8306(5) 0.3228(8) 0.3779(3)
H34 H 0.8648 0.3205 0.3784
C53 C 0.8105(4) 0.3021(7) 0.3515(3)
H35 H 0.8290 0.2902 0.3342
C54 C 0.7555(4) 0.2993(7) 0.3516(3)
C55 C 0.6557(5) 0.1672(11) 0.2504(3)
H36 H 0.6715 0.1653 0.2317
C56 C 0.5939(5) 0.0764(11) 0.2277(3)
C57 C 0.5668(5) -0.0063(12) 0.2340(3)
H37 H 0.5602 -0.0226 0.2540
C58 C 0.5500(5) -0.0634(12) 0.2121(3)
C59 C 0.5565(6) -0.0357(15) 0.1835(3)
H38 H 0.5458 -0.0748 0.1675
C60 C 0.5786(7) 0.0485(18) 0.1789(4)
H39 H 0.5795 0.0725 0.1591
C61 C 0.5987(6) 0.0994(15) 0.1992(3)
H40 H 0.6173 0.1543 0.1938
C62 C 0.5221(10) -0.1596(15) 0.2213(5)
N13 N 0.6138(4) 0.1278(8) 0.2517(2)
O1 O 0.5246(9) -0.1959(12) 0.2477(4)
O2 O 0.4992(4) -0.1991(10) 0.1998(3)
O3 O 0.5356(7) 0.1371(11) 0.2930(3)
C63 C 0.4555(13) -0.179(2) 0.3139(8)
H41 H 0.4727 -0.1812 0.3329
H42 H 0.4699 -0.2256 0.3002
H43 H 0.4216 -0.1958 0.3171
C64 C 0.4588(14) -0.079(3) 0.3012(9)
C65 C 0.4366(16) -0.002(2) 0.2554(9)
H44 H 0.4705 0.0053 0.2490
H45 H 0.4277 0.0575 0.2664
C66 C 0.4068(17) -0.008(2) 0.2294(9)
H46 H 0.4144 0.0456 0.2160
H47 H 0.3729 -0.0045 0.2352
H48 H 0.4129 -0.0698 0.2193
O4 O 0.4953(12) -0.031(2) 0.3031(8)
O5 O 0.4338(13) -0.076(3) 0.2736(8)
C67 C 0.2790(12) 0.466(3) 0.4935(14)
H49 H 0.2495 0.4997 0.4873
H50 H 0.2975 0.4478 0.4759
H51 H 0.2983 0.5096 0.5059
C68 C 0.2680(13) 0.391(3) 0.5081(13)
C69 C 0.2045(15) 0.284(4) 0.5234(9)
H52 H 0.2214 0.2221 0.5204
H53 H 0.2085 0.3030 0.5445
C70 C 0.1615(15) 0.273(4) 0.5182(9)
H54 H 0.1487 0.2211 0.5306
H55 H 0.1572 0.2562 0.4973
H56 H 0.1442 0.3334 0.5224
O6 O 0.3016(12) 0.323(3) 0.5220(8)
O7 O 0.2261(11) 0.357(3) 0.5051(8)
C71 C 0.2264(7) 0.162(2) 0.4475(7)
H57 H 0.2464 0.1041 0.4453
H58 H 0.1935 0.1478 0.4409
H59 H 0.2259 0.1817 0.4684
C72 C 0.2435(10) 0.230(2) 0.4321(8)
C73 C 0.2801(16) 0.134(3) 0.3947(9)
H60 H 0.2476 0.1052 0.3925
H61 H 0.2907 0.1584 0.3752
C74 C 0.3084(13) 0.073(2) 0.4039(8)
H62 H 0.3080 0.0163 0.3908
H63 H 0.2990 0.0529 0.4240
H64 H 0.3409 0.1002 0.4044
O8 O 0.2260(8) 0.3275(15) 0.4268(6)
O9 O 0.2793(8) 0.2105(17) 0.4160(7)
C75? C 0.3908(10) 0.271(3) 0.1983(8)
H65? H 0.4086 0.3243 0.1893
H66? H 0.3777 0.2910 0.2174
H67? H 0.3644 0.2514 0.1851
C76? C 0.4187(11) 0.200(3) 0.2020(9)
C77? C 0.4617(12) 0.300(3) 0.1702(9)
H68? H 0.4384 0.2969 0.1536
H69? H 0.4558 0.3600 0.1816
C78? C 0.5030(12) 0.298(2) 0.1609(6)
H70? H 0.5029 0.3098 0.1394
H71? H 0.5172 0.2345 0.1649
H72? H 0.5220 0.3484 0.1707
O10? O 0.4213(14) 0.113(3) 0.2202(9)
O11? O 0.4576(8) 0.217(2) 0.1887(6)
C79? C 0.3140(15) 0.105(3) 0.4245(8)
H73? H 0.3245 0.0381 0.4223
H74? H 0.3242 0.1429 0.4072
H75? H 0.2789 0.1075 0.4261
C80? C 0.3325(19) 0.141(3) 0.4476(10)
C81? C 0.3552(19) 0.108(3) 0.4985(10)
H76? H 0.3874 0.1381 0.4968
H77? H 0.3334 0.1556 0.5080
C82? C 0.358(2) 0.035(4) 0.5139(9)
H78? H 0.3695 0.0525 0.5337
H79? H 0.3802 -0.0110 0.5048
H80? H 0.3260 0.0053 0.5155
O12? O 0.3234(18) 0.240(3) 0.4592(14)
O13? O 0.3374(16) 0.085(3) 0.4694(8)
loop_
_geom_bond_atom_site_label_1
_geom_bond_atom_site_label_2
_geom_bond_site_symmetry_1
_geom_bond_site_symmetry_2
Zn1 I1 1_555 1_555
Zn2 I3 1_555 1_555
Zn3 I5 1_555 1_555
I2 Zn1 1_555 1_555
I4 Zn2 1_555 1_555
I6 Zn3 1_555 1_555
C1 C4 1_555 1_555
C2 C9 1_555 1_555
C3 C14 1_555 1_555
C4 C5 1_555 1_555
C5 H1 1_555 1_555
C6 C5 1_555 1_555
H2 C6 1_555 1_555
C7 H3 1_555 1_555
C8 C4 1_555 1_555
H4 C8 1_555 1_555
C9 C10 1_555 1_555
C10 H5 1_555 1_555
C11 C10 1_555 1_555
H6 C11 1_555 1_555
C12 H7 1_555 1_555
C13 C9 1_555 1_555
H8 C13 1_555 1_555
C14 C15 1_555 1_555
C15 H9 1_555 1_555
C16 C15 1_555 1_555
H10 C16 1_555 1_555
C17 H11 1_555 1_555
C18 C14 1_555 1_555
H12 C18 1_555 1_555
C19 C22 1_555 1_555
C20 C27 1_555 1_555
C21 C32 1_555 1_555
C22 C23 1_555 1_555
C23 H13 1_555 1_555
C24 C23 1_555 1_555
H14 C24 1_555 1_555
C25 H15 1_555 1_555
C26 C22 1_555 1_555
H16 C26 1_555 1_555
C27 C28 1_555 1_555
C28 H17 1_555 1_555
C29 C28 1_555 1_555
H18 C29 1_555 1_555
C30 H19 1_555 1_555
C31 C27 1_555 1_555
H20 C31 1_555 1_555
C32 C33 1_555 1_555
C33 H21 1_555 1_555
C34 C33 1_555 1_555
H22 C34 1_555 1_555
C35 H23 1_555 1_555
C36 C32 1_555 1_555
H24 C36 1_555 1_555
N1 C1 1_555 1_555
N2 C2 1_555 1_555
N3 C1 1_555 1_555
N4 Zn1 1_555 1_555
N5 Zn2 1_555 1_555
N6 Zn3 1_555 1_555
N7 C19 1_555 1_555
N8 C20 1_555 1_555
N9 C19 1_555 1_555
N10 Zn1 1_555 1_555
N11 C29 1_555 1_555
N12 C34 1_555 1_555
C37 C38 1_555 1_555
C38 H25 1_555 1_555
C39 C38 1_555 1_555
H26 C39 1_555 1_555
C40 C39 1_555 1_555
C41 C40 1_555 1_555
H27 C41 1_555 1_555
C42 C37 1_555 1_555
C43 C42 1_555 1_555
C44 C43 1_555 1_555
H28 C44 1_555 1_555
C45 C44 1_555 1_555
H29 C45 1_555 1_555
C46 C45 1_555 1_555
H30 C46 1_555 1_555
C47 C46 1_555 1_555
H31 C47 1_555 1_555
C48 C43 1_555 1_555
C49 C48 1_555 1_555
C50 C49 1_555 1_555
H32 C50 1_555 1_555
C51 C50 1_555 1_555
H33 C51 1_555 1_555
C52 C51 1_555 1_555
H34 C52 1_555 1_555
C53 C52 1_555 1_555
H35 C53 1_555 1_555
C54 C37 1_555 1_555
C55 C40 1_555 1_555
H36 C55 1_555 1_555
C56 C57 1_555 1_555
C57 H37 1_555 1_555
C58 C57 1_555 1_555
C59 C58 1_555 1_555
H38 C59 1_555 1_555
C60 C59 1_555 1_555
H39 C60 1_555 1_555
C61 C56 1_555 1_555
H40 C61 1_555 1_555
C62 C58 1_555 1_555
N13 C55 1_555 1_555
O1 C62 1_555 1_555
O2 C62 1_555 1_555
C63 H41 1_555 1_555
H42 C63 1_555 1_555
H43 C63 1_555 1_555
C64 C63 1_555 1_555
C65 H44 1_555 1_555
H45 C65 1_555 1_555
C66 C65 1_555 1_555
H46 C66 1_555 1_555
H47 C66 1_555 1_555
H48 C66 1_555 1_555
O4 C64 1_555 1_555
O5 C64 1_555 1_555
C67 H49 1_555 1_555
H50 C67 1_555 1_555
H51 C67 1_555 1_555
C68 C67 1_555 1_555
C69 H52 1_555 1_555
H53 C69 1_555 1_555
C70 C69 1_555 1_555
H54 C70 1_555 1_555
H55 C70 1_555 1_555
H56 C70 1_555 1_555
O6 C68 1_555 1_555
O7 C68 1_555 1_555
C71 H57 1_555 1_555
H58 C71 1_555 1_555
H59 C71 1_555 1_555
C72 C71 1_555 1_555
C73 H60 1_555 1_555
H61 C73 1_555 1_555
C74 C73 1_555 1_555
H62 C74 1_555 1_555
H63 C74 1_555 1_555
H64 C74 1_555 1_555
O8 C72 1_555 1_555
O9 C72 1_555 1_555
Zn2B N12 1_555 1_555
Zn3C N11 1_555 1_555
N11C Zn3 1_555 1_555
N12B Zn2 1_555 1_555
C2 N1 1_555 1_555
C3 N2 1_555 1_555
C3 N3 1_555 1_555
C6 N4 1_555 1_555
C7 C8 1_555 1_555
C7 N4 1_555 1_555
C11 N5 1_555 1_555
C12 C13 1_555 1_555
C12 N5 1_555 1_555
C16 N6 1_555 1_555
C17 C18 1_555 1_555
C17 N6 1_555 1_555
C20 N7 1_555 1_555
C21 N8 1_555 1_555
C21 N9 1_555 1_555
C24 N10 1_555 1_555
C25 C26 1_555 1_555
C25 N10 1_555 1_555
C30 C31 1_555 1_555
C30 N11 1_555 1_555
C35 C36 1_555 1_555
C35 N12 1_555 1_555
C41 C42 1_555 1_555
C47 C48 1_555 1_555
C49 C54 1_555 1_555
C53 C54 1_555 1_555
C56 N13 1_555 1_555
C60 C61 1_555 1_555
C65 O5 1_555 1_555
C69 O7 1_555 1_555
C73 O9 1_555 1_555

#END
