
#######################################################################
#
#                 Cambridge Crystallographic Data Centre
#                                CCDC 
#
#######################################################################
#
# If this CIF has been generated from an entry in the Cambridge 
# Structural Database, then it will include bibliographic, chemical, 
# crystal, experimental, refinement or atomic coordinate data resulting 
# from the CCDC's data processing and validation procedures.
#
#######################################################################

data_SOHSAK
_symmetry_cell_setting           triclinic
_symmetry_space_group_name_H-M   'P -1'
_symmetry_Int_Tables_number      2
_space_group_name_Hall           '-P 1'
loop_
_symmetry_equiv_pos_site_id
_symmetry_equiv_pos_as_xyz
1 x,y,z
2 -x,-y,-z
_cell_length_a                   10.512(4)
_cell_length_b                   13.186(4)
_cell_length_c                   13.521(4)
_cell_angle_alpha                100.038(5)
_cell_angle_beta                 112.164(4)
_cell_angle_gamma                94.671(4)
_cell_volume                     1686.7
loop_
_atom_site_label
_atom_site_type_symbol
_atom_site_fract_x
_atom_site_fract_y
_atom_site_fract_z
Cl1 Cl -0.83530(15) 0.17780(11) 0.21770(12)
C25 C -0.8880(6) 0.0614(5) 0.1549(4)
H26 H -0.8079 0.0234 0.1668
H27 H -0.9509 0.0279 0.1832
C26 C -0.9666(6) 0.0553(4) 0.0310(4)
H28 H -1.0394 0.1004 0.0201
H29 H -0.9007 0.0818 0.0014
Cl1A Cl -1.16470(15) -0.17780(11) -0.21770(12)
C25A C -1.1120(6) -0.0614(5) -0.1549(4)
H26A H -1.1921 -0.0234 -0.1668
H27A H -1.0491 -0.0279 -0.1832
C26A C -1.0334(6) -0.0553(4) -0.0310(4)
H28A H -0.9606 -0.1004 -0.0201
H29A H -1.0993 -0.0818 -0.0014
Cu1 Cu 0.0000 1.0000 0.5000
O1 O 0.1104(2) 0.91093(15) 0.44253(16)
C1 C 0.2611(3) 0.8591(2) 0.3583(2)
F1 F 0.16349(19) 0.82584(14) 0.25491(14)
F2 F 0.27855(19) 0.77563(13) 0.40413(15)
F3 F 0.38180(18) 0.89112(13) 0.35065(15)
C2 C 0.2127(3) 0.9453(2) 0.4227(2)
C3 C 0.2814(3) 1.0482(2) 0.4493(2)
H1 H 0.357(3) 1.059(2) 0.431(2)
C4 C 0.2357(3) 1.1308(2) 0.5023(2)
C5 C 0.3162(3) 1.2434(2) 0.5282(2)
F4 F 0.41861(18) 1.24740(13) 0.49179(14)
F5 F 0.381(3) 1.2768(18) 0.6460(17)
F6 F 0.22805(18) 1.30686(13) 0.48216(15)
O2 O 0.1364(2) 1.12717(15) 0.53271(16)
Cu2 Cu -0.5000 0.5000 0.0000
O3 O -0.6632(2) 0.56813(15) -0.01152(16)
C6 C -0.8403(3) 0.6399(2) 0.0310(2)
F8 F -0.92650(18) 0.60814(14) -0.07621(14)
F9 F -0.796(2) 0.7461(17) 0.043(3)
F10 F -0.91784(18) 0.62849(13) 0.08971(15)
C7 C -0.7162(3) 0.5786(2) 0.0595(2)
C8 C -0.6748(3) 0.5445(2) 0.1576(3)
H2 H -0.719(3) 0.562(3) 0.203(3)
C9 C -0.5644(3) 0.4868(2) 0.1887(2)
C10 C -0.5320(3) 0.4502(2) 0.2982(3)
F12 F -0.5474(2) 0.52248(15) 0.37501(15)
F13 F -0.6204(2) 0.36221(15) 0.28096(17)
F14 F -0.4026(15) 0.4188(13) 0.3410(15)
O4 O -0.4912(2) 0.45656(15) 0.13667(17)
O5 O -0.0875(2) 1.02649(15) 0.31792(16)
N1 N -0.2175(2) 1.03674(18) 0.2658(2)
C11 C -0.2609(3) 1.1417(2) 0.2506(2)
C12 C -0.2194(3) 1.1702(2) 0.1591(3)
H3 H -0.120(4) 1.172(3) 0.176(3)
H4 H -0.247(3) 1.236(3) 0.147(3)
H5 H -0.267(4) 1.121(3) 0.091(3)
C13 C -0.1851(3) 1.2246(2) 0.3581(3)
H6 H -0.092(4) 1.235(3) 0.374(3)
H7 H -0.200(4) 1.203(3) 0.419(3)
H8 H -0.227(4) 1.290(3) 0.348(3)
C14 C -0.4224(3) 1.1129(2) 0.2143(2)
C15 C -0.5115(3) 1.1673(2) 0.1273(3)
H9 H -0.608(4) 1.148(3) 0.116(3)
H10 H -0.498(4) 1.144(3) 0.060(3)
H11 H -0.480(4) 1.242(3) 0.152(3)
C16 C -0.4671(3) 1.1223(2) 0.3115(3)
H12 H -0.568(4) 1.092(3) 0.286(3)
H13 H -0.453(4) 1.193(3) 0.350(3)
H14 H -0.417(4) 1.094(3) 0.369(3)
N2 N -0.4435(3) 0.99682(18) 0.1658(2)
O6 O -0.5647(2) 0.94325(16) 0.10582(17)
C17 C -0.3230(3) 0.9570(2) 0.2050(2)
C18 C -0.3099(3) 0.8471(2) 0.1851(2)
C19 C -0.4151(3) 0.7591(2) 0.1223(2)
H15 H -0.517(3) 0.758(3) 0.083(3)
N3 N -0.3611(3) 0.67018(18) 0.1222(2)
N4 N -0.2205(2) 0.70063(18) 0.1851(2)
C20 C -0.1271(3) 0.6231(2) 0.2151(2)
H16 H -0.037(4) 0.653(3) 0.228(3)
H17 H -0.159(3) 0.568(3) 0.155(3)
C21 C -0.1282(3) 0.5870(2) 0.3168(3)
H18 H -0.225(5) 0.567(3) 0.307(4)
H19 H -0.086(3) 0.646(3) 0.382(3)
C22 C -0.0452(3) 0.4958(2) 0.3404(3)
H20 H -0.057(4) 0.474(3) 0.402(3)
H21 H -0.086(4) 0.437(3) 0.276(3)
C23 C 0.1104(4) 0.5250(3) 0.3692(3)
H22 H 0.159(5) 0.465(4) 0.382(4)
H23 H 0.145(5) 0.591(4) 0.438(4)
H24 H 0.127(4) 0.541(4) 0.310(4)
C24 C -0.1864(3) 0.8051(2) 0.2238(2)
H25 H -0.0961 0.8429 0.2686
O1A O -0.1104(2) 1.08907(15) 0.55747(16)
C1A C -0.2611(3) 1.1409(2) 0.6417(2)
F1A F -0.16349(19) 1.17416(14) 0.74509(14)
F2A F -0.27855(19) 1.22437(13) 0.59587(15)
F3A F -0.38180(18) 1.10888(13) 0.64935(15)
C2A C -0.2127(3) 1.0547(2) 0.5773(2)
C3A C -0.2814(3) 0.9518(2) 0.5507(2)
H1A H -0.357(3) 0.941(2) 0.569(2)
C4A C -0.2357(3) 0.8692(2) 0.4977(2)
C5A C -0.3162(3) 0.7566(2) 0.4718(2)
F4A F -0.41861(18) 0.75260(13) 0.50821(14)
F5A F -0.381(3) 0.7232(18) 0.3540(17)
F6A F -0.22805(18) 0.69314(13) 0.51784(15)
O2A O -0.1364(2) 0.87283(15) 0.46729(16)
Cu2_2 Cu 0.5000 1.5000 1.0000
O3A O -0.3368(2) 0.43187(15) 0.01152(16)
C6A C -0.1597(3) 0.3601(2) -0.0310(2)
F8A F -0.07350(18) 0.39186(14) 0.07621(14)
F9A F -0.204(2) 0.2539(17) -0.043(3)
F10A F -0.08216(18) 0.37151(13) -0.08971(15)
C7A C -0.2838(3) 0.4214(2) -0.0595(2)
C8A C -0.3252(3) 0.4555(2) -0.1576(3)
H2A H -0.281(3) 0.438(3) -0.203(3)
C9A C -0.4356(3) 0.5132(2) -0.1887(2)
C10A C -0.4680(3) 0.5498(2) -0.2982(3)
F12A F -0.4526(2) 0.47752(15) -0.37501(15)
F13A F -0.3796(2) 0.63779(15) -0.28096(17)
F14A F -0.5974(15) 0.5812(13) -0.3410(15)
O4A O -0.5088(2) 0.54344(15) -0.13667(17)
O5A O 0.0875(2) 0.97351(15) 0.68208(16)
N1A N 0.2175(2) 0.96326(18) 0.7342(2)
C11A C 0.2609(3) 0.8583(2) 0.7494(2)
C12A C 0.2194(3) 0.8298(2) 0.8409(3)
H3A H 0.120(4) 0.828(3) 0.824(3)
H4A H 0.247(3) 0.764(3) 0.853(3)
H5A H 0.267(4) 0.879(3) 0.909(3)
C13A C 0.1851(3) 0.7754(2) 0.6419(3)
H6A H 0.092(4) 0.765(3) 0.626(3)
H7A H 0.200(4) 0.797(3) 0.581(3)
H8A H 0.227(4) 0.710(3) 0.652(3)
C14A C 0.4224(3) 0.8871(2) 0.7857(2)
C15A C 0.5115(3) 0.8327(2) 0.8727(3)
H9A H 0.608(4) 0.852(3) 0.884(3)
H10A H 0.498(4) 0.856(3) 0.940(3)
H11A H 0.480(4) 0.758(3) 0.848(3)
C16A C 0.4671(3) 0.8777(2) 0.6885(3)
H12A H 0.568(4) 0.908(3) 0.714(3)
H13A H 0.453(4) 0.807(3) 0.650(3)
H14A H 0.417(4) 0.906(3) 0.631(3)
N2A N 0.4435(3) 1.00318(18) 0.8342(2)
O6A O 0.5647(2) 1.05675(16) 0.89418(17)
C17A C 0.3230(3) 1.0430(2) 0.7950(2)
C18A C 0.3099(3) 1.1529(2) 0.8149(2)
C19A C 0.4151(3) 1.2409(2) 0.8777(2)
H15A H 0.517(3) 1.242(3) 0.917(3)
N3A N 0.3611(3) 1.32982(18) 0.8778(2)
N3A_2 N -0.6389(3) 0.32982(18) -0.1222(2)
N4A N 0.2205(2) 1.29937(18) 0.8149(2)
C20A C 0.1271(3) 1.3769(2) 0.7849(2)
H16A H 0.037(4) 1.347(3) 0.772(3)
H17A H 0.159(3) 1.432(3) 0.845(3)
C21A C 0.1282(3) 1.4130(2) 0.6832(3)
H18A H 0.225(5) 1.433(3) 0.693(4)
H19A H 0.086(3) 1.354(3) 0.618(3)
C22A C 0.0452(3) 1.5042(2) 0.6596(3)
H20A H 0.057(4) 1.526(3) 0.598(3)
H21A H 0.086(4) 1.563(3) 0.724(3)
C23A C -0.1104(4) 1.4750(3) 0.6308(3)
H22A H -0.159(5) 1.535(4) 0.618(4)
H23A H -0.145(5) 1.409(4) 0.562(4)
H24A H -0.127(4) 1.459(4) 0.690(4)
C24A C 0.1864(3) 1.1949(2) 0.7762(2)
H25A H 0.0961 1.1571 0.7314
F7? F 0.366(3) 1.2876(19) 0.6288(18)
F11? F -0.792(2) 0.7394(18) 0.057(3)
F15? F -0.402(2) 0.4414(13) 0.3378(18)
loop_
_geom_bond_atom_site_label_1
_geom_bond_atom_site_label_2
_geom_bond_site_symmetry_1
_geom_bond_site_symmetry_2
Cu1 O1 1_555 1_555
O1 C2 1_555 1_555
C1 F1 1_555 1_555
F2 C1 1_555 1_555
F3 C1 1_555 1_555
C2 C1 1_555 1_555
C3 C2 1_555 1_555
H1 C3 1_555 1_555
C4 C3 1_555 1_555
C5 C4 1_555 1_555
F4 C5 1_555 1_555
F5 C5 1_555 1_555
F6 C5 1_555 1_555
O2 Cu1 1_555 1_555
Cu2 O3 1_555 1_555
O3 C7 1_555 1_555
C6 F8 1_555 1_555
F9 C6 1_555 1_555
F10 C6 1_555 1_555
C7 C6 1_555 1_555
C8 C7 1_555 1_555
H2 C8 1_555 1_555
C9 C8 1_555 1_555
C10 C9 1_555 1_555
F12 C10 1_555 1_555
F13 C10 1_555 1_555
F14 C10 1_555 1_555
O4 Cu2 1_555 1_555
O5 Cu1 1_555 1_555
N1 O5 1_555 1_555
C11 N1 1_555 1_555
C12 C11 1_555 1_555
H3 C12 1_555 1_555
H4 C12 1_555 1_555
H5 C12 1_555 1_555
C13 C11 1_555 1_555
H6 C13 1_555 1_555
H7 C13 1_555 1_555
H8 C13 1_555 1_555
C14 C11 1_555 1_555
C15 C14 1_555 1_555
H9 C15 1_555 1_555
H10 C15 1_555 1_555
H11 C15 1_555 1_555
C16 C14 1_555 1_555
H12 C16 1_555 1_555
H13 C16 1_555 1_555
H14 C16 1_555 1_555
N2 C14 1_555 1_555
O6 N2 1_555 1_555
C17 N1 1_555 1_555
C18 C17 1_555 1_555
C19 C18 1_555 1_555
H15 C19 1_555 1_555
N3 Cu2 1_555 1_555
N4 N3 1_555 1_555
C20 N4 1_555 1_555
H16 C20 1_555 1_555
H17 C20 1_555 1_555
C21 C20 1_555 1_555
H18 C21 1_555 1_555
H19 C21 1_555 1_555
C22 C21 1_555 1_555
H20 C22 1_555 1_555
H21 C22 1_555 1_555
C23 C22 1_555 1_555
H22 C23 1_555 1_555
H23 C23 1_555 1_555
H24 C23 1_555 1_555
C24 C18 1_555 1_555
H25 C24 1_555 1_555
Cl1 C25 1_555 1_555
C25 H26 1_555 1_555
H27 C25 1_555 1_555
C26 C25 1_555 1_555
H28 C26 1_555 1_555
H29 C26 1_555 1_555
O1A Cu1 1_555 1_555
C1A F1A 1_555 1_555
F2A C1A 1_555 1_555
F3A C1A 1_555 1_555
C2A O1A 1_555 1_555
C3A C2A 1_555 1_555
H1A C3A 1_555 1_555
C4A C3A 1_555 1_555
C5A C4A 1_555 1_555
F4A C5A 1_555 1_555
F5A C5A 1_555 1_555
F6A C5A 1_555 1_555
O2A Cu1 1_555 1_555
Cu2_2 N3A 1_555 1_555
O3A Cu2 1_555 1_555
C6A F8A 1_555 1_555
F9A C6A 1_555 1_555
F10A C6A 1_555 1_555
C7A O3A 1_555 1_555
C8A C7A 1_555 1_555
H2A C8A 1_555 1_555
C9A C8A 1_555 1_555
C10A C9A 1_555 1_555
F12A C10A 1_555 1_555
F13A C10A 1_555 1_555
F14A C10A 1_555 1_555
O4A Cu2 1_555 1_555
O5A Cu1 1_555 1_555
N1A O5A 1_555 1_555
C11A N1A 1_555 1_555
C12A C11A 1_555 1_555
H3A C12A 1_555 1_555
H4A C12A 1_555 1_555
H5A C12A 1_555 1_555
C13A C11A 1_555 1_555
H6A C13A 1_555 1_555
H7A C13A 1_555 1_555
H8A C13A 1_555 1_555
C14A C11A 1_555 1_555
C15A C14A 1_555 1_555
H9A C15A 1_555 1_555
H10A C15A 1_555 1_555
H11A C15A 1_555 1_555
C16A C14A 1_555 1_555
H12A C16A 1_555 1_555
H13A C16A 1_555 1_555
H14A C16A 1_555 1_555
N2A C14A 1_555 1_555
O6A N2A 1_555 1_555
C17A N1A 1_555 1_555
C18A C17A 1_555 1_555
C19A C18A 1_555 1_555
H15A C19A 1_555 1_555
N3A C19A 1_555 1_555
N3A_2 Cu2 1_555 1_555
N4A N3A 1_555 1_555
C20A N4A 1_555 1_555
H16A C20A 1_555 1_555
H17A C20A 1_555 1_555
C21A C20A 1_555 1_555
H18A C21A 1_555 1_555
H19A C21A 1_555 1_555
C22A C21A 1_555 1_555
H20A C22A 1_555 1_555
H21A C22A 1_555 1_555
C23A C22A 1_555 1_555
H22A C23A 1_555 1_555
H23A C23A 1_555 1_555
H24A C23A 1_555 1_555
C24A C18A 1_555 1_555
H25A C24A 1_555 1_555
Cl1A C25A 1_555 1_555
C25A H26A 1_555 1_555
H27A C25A 1_555 1_555
C26A C26 1_555 1_555
H28A C26A 1_555 1_555
H29A C26A 1_555 1_555
C4 O2 1_555 1_555
C9 O4 1_555 1_555
N2 C17 1_555 1_555
C19 N3 1_555 1_555
N4 C24 1_555 1_555
C1A C2A 1_555 1_555
C4A O2A 1_555 1_555
C6A C7A 1_555 1_555
C9A O4A 1_555 1_555
N2A C17A 1_555 1_555
N4A C24A 1_555 1_555
C25A C26A 1_555 1_555

#END
