
#######################################################################
#
#                 Cambridge Crystallographic Data Centre
#                                CCDC 
#
#######################################################################
#
# If this CIF has been generated from an entry in the Cambridge 
# Structural Database, then it will include bibliographic, chemical, 
# crystal, experimental, refinement or atomic coordinate data resulting 
# from the CCDC's data processing and validation procedures.
#
#######################################################################

data_SOHSIS
_symmetry_cell_setting           triclinic
_symmetry_space_group_name_H-M   'P -1'
_symmetry_Int_Tables_number      2
_space_group_name_Hall           '-P 1'
loop_
_symmetry_equiv_pos_site_id
_symmetry_equiv_pos_as_xyz
1 x,y,z
2 -x,-y,-z
_cell_length_a                   9.219(5)
_cell_length_b                   13.130(7)
_cell_length_c                   14.279(8)
_cell_angle_alpha                109.140(12)
_cell_angle_beta                 92.435(13)
_cell_angle_gamma                107.299(11)
_cell_volume                     1540.11
loop_
_atom_site_label
_atom_site_type_symbol
_atom_site_fract_x
_atom_site_fract_y
_atom_site_fract_z
Cu1 Cu 0.0000 0.0000 0.0000
O1 O -0.0908(6) 0.1107(4) 0.0797(4)
C1 C -0.2699(11) 0.1892(8) 0.1590(8)
F1 F -0.4208(5) 0.1678(4) 0.1529(4)
F2 F -0.2110(6) 0.2283(5) 0.2528(4)
F3 F -0.2166(7) 0.2740(5) 0.1245(6)
C2 C -0.2268(10) 0.0853(7) 0.0998(6)
C3 C -0.3314(10) -0.0205(7) 0.0811(6)
H1 H -0.4328 -0.0266 0.0951
C4 C -0.2931(10) -0.1203(8) 0.0418(7)
C5 C -0.4149(13) -0.2334(9) 0.0300(8)
F4 F -0.5471(7) -0.2226(4) 0.0579(5)
F5 F -0.4477(6) -0.3052(4) -0.0639(4)
F6 F -0.3658(9) -0.2827(5) 0.0867(5)
O2 O -0.1721(7) -0.1305(5) 0.0162(5)
Cu2 Cu 0.0000 0.5000 0.5000
O3 O -0.1219(6) 0.5211(4) 0.3971(4)
C6 C -0.3359(10) 0.5276(8) 0.3112(7)
F7 F -0.4874(6) 0.4808(5) 0.2872(5)
F8 F -0.2748(7) 0.5175(5) 0.2296(4)
F9 F -0.3083(6) 0.6395(4) 0.3595(4)
C7 C -0.2680(9) 0.4780(7) 0.3766(7)
C8 C -0.3636(10) 0.3996(7) 0.4098(7)
H2 H -0.4716 0.3793 0.3926
C9 C -0.3082(9) 0.3489(7) 0.4675(7)
C10 C -0.4167(10) 0.2500(7) 0.4914(8)
F10 F -0.4057(6) 0.2679(4) 0.5846(4)
F11 F -0.5632(5) 0.2272(4) 0.4539(4)
F12 F -0.3844(6) 0.1527(4) 0.4435(4)
O4 O -0.1709(6) 0.3706(4) 0.5033(5)
O5 O 0.1717(7) 0.0368(4) 0.1290(5)
N1 N 0.1465(8) 0.0174(5) 0.2124(5)
C11 C 0.1640(11) -0.0867(7) 0.2254(7)
C12 C 0.0867(10) -0.1915(6) 0.1339(6)
H3 H 0.1421 -0.1867 0.0775
H4 H -0.0198 -0.1963 0.1168
H5 H 0.0876 -0.2596 0.1478
C13 C 0.3366(10) -0.0641(7) 0.2430(7)
H6 H 0.3778 -0.0663 0.1805
H7 H 0.3563 -0.1228 0.2650
H8 H 0.3867 0.0113 0.2949
C14 C 0.0858(10) -0.0849(7) 0.3191(7)
C15 C -0.0894(9) -0.1397(7) 0.2973(7)
H9 H -0.1295 -0.1353 0.3604
H10 H -0.1169 -0.2198 0.2534
H11 H -0.1339 -0.0989 0.2641
C16 C 0.1535(10) -0.1235(8) 0.3920(7)
H12 H 0.0946 -0.1190 0.4479
H13 H 0.2606 -0.0743 0.4176
H14 H 0.1499 -0.2026 0.3586
N2 N 0.1142(8) 0.0431(6) 0.3681(6)
O6 O 0.1060(7) 0.0916(5) 0.4571(5)
C17 C 0.1330(9) 0.0902(7) 0.2951(7)
C18 C 0.1348(9) 0.2067(7) 0.3157(6)
C19 C 0.0987(9) 0.2789(7) 0.3968(7)
H15 H 0.0737 0.2620 0.4551
N3 N 0.1024(8) 0.3746(6) 0.3849(6)
N4 N 0.1403(8) 0.3630(6) 0.2930(5)
C20 C 0.1472(10) 0.4563(7) 0.2563(7)
H16 H 0.2281 0.5267 0.3009
H17 H 0.0477 0.4707 0.2595
C21 C 0.1812(10) 0.4307(7) 0.1487(7)
H18 H 0.2810 0.4169 0.1451
H19 H 0.1005 0.3606 0.1036
C22 C 0.2210(11) 0.5098(7) 0.0104(7)
H20 H 0.2230 0.5765 -0.0069
H21 H 0.1413 0.4419 -0.0365
H22 H 0.3213 0.4987 0.0060
C23 C 0.1868(11) 0.5285(7) 0.1141(7)
H23 H 0.0866 0.5416 0.1181
H24 H 0.2664 0.5985 0.1605
C24 C 0.1592(9) 0.2647(7) 0.2470(7)
H25 H 0.1840 0.2380 0.1815
O1A O 0.0908(6) -0.1107(4) -0.0797(4)
C1A C 0.2699(11) -0.1892(8) -0.1590(8)
F1A F 0.4208(5) -0.1678(4) -0.1529(4)
F2A F 0.2110(6) -0.2283(5) -0.2528(4)
F3A F 0.2166(7) -0.2740(5) -0.1245(6)
C2A C 0.2268(10) -0.0853(7) -0.0998(6)
C3A C 0.3314(10) 0.0205(7) -0.0811(6)
H1A H 0.4328 0.0266 -0.0951
C4A C 0.2931(10) 0.1203(8) -0.0418(7)
C5A C 0.4149(13) 0.2334(9) -0.0300(8)
F4A F 0.5471(7) 0.2226(4) -0.0579(5)
F5A F 0.4477(6) 0.3052(4) 0.0639(4)
F6A F 0.3658(9) 0.2827(5) -0.0867(5)
O2A O 0.1721(7) 0.1305(5) -0.0162(5)
Cu2_2 Cu 0.0000 -0.5000 -0.5000
O3A O 0.1219(6) 0.4789(4) 0.6029(4)
C6A C 0.3359(10) 0.4724(8) 0.6888(7)
F7A F 0.4874(6) 0.5192(5) 0.7128(5)
F8A F 0.2748(7) 0.4825(5) 0.7704(4)
F9A F 0.3083(6) 0.3605(4) 0.6405(4)
C7A C 0.2680(9) 0.5220(7) 0.6234(7)
C8A C 0.3636(10) 0.6004(7) 0.5902(7)
H2A H 0.4716 0.6207 0.6074
C9A C 0.3082(9) 0.6511(7) 0.5325(7)
C10A C 0.4167(10) 0.7500(7) 0.5086(8)
F10A F 0.4057(6) 0.7321(4) 0.4154(4)
F11A F 0.5632(5) 0.7728(4) 0.5461(4)
F12A F 0.3844(6) 0.8473(4) 0.5565(4)
O4A O 0.1709(6) 0.6294(4) 0.4967(5)
O5A O -0.1717(7) -0.0368(4) -0.1290(5)
N1A N -0.1465(8) -0.0174(5) -0.2124(5)
C11A C -0.1640(11) 0.0867(7) -0.2254(7)
C12A C -0.0867(10) 0.1915(6) -0.1339(6)
H3A H -0.1421 0.1867 -0.0775
H4A H 0.0198 0.1963 -0.1168
H5A H -0.0876 0.2596 -0.1478
C13A C -0.3366(10) 0.0641(7) -0.2430(7)
H6A H -0.3778 0.0663 -0.1805
H7A H -0.3563 0.1228 -0.2650
H8A H -0.3867 -0.0113 -0.2949
C14A C -0.0858(10) 0.0849(7) -0.3191(7)
C15A C 0.0894(9) 0.1397(7) -0.2973(7)
H9A H 0.1295 0.1353 -0.3604
H10A H 0.1169 0.2198 -0.2534
H11A H 0.1339 0.0989 -0.2641
C16A C -0.1535(10) 0.1235(8) -0.3920(7)
H12A H -0.0946 0.1190 -0.4479
H13A H -0.2606 0.0743 -0.4176
H14A H -0.1499 0.2026 -0.3586
N2A N -0.1142(8) -0.0431(6) -0.3681(6)
O6A O -0.1060(7) -0.0916(5) -0.4571(5)
C17A C -0.1330(9) -0.0902(7) -0.2951(7)
C18A C -0.1348(9) -0.2067(7) -0.3157(6)
C19A C -0.0987(9) -0.2789(7) -0.3968(7)
H15A H -0.0737 -0.2620 -0.4551
N3A N -0.1024(8) -0.3746(6) -0.3849(6)
N3A_2 N -0.1024(8) 0.6254(6) 0.6151(6)
N4A N -0.1403(8) -0.3630(6) -0.2930(5)
C20A C -0.1472(10) -0.4563(7) -0.2563(7)
H16A H -0.2281 -0.5267 -0.3009
H17A H -0.0477 -0.4707 -0.2595
C21A C -0.1812(10) -0.4307(7) -0.1487(7)
H18A H -0.2810 -0.4169 -0.1451
H19A H -0.1005 -0.3606 -0.1036
C22A C -0.2210(11) -0.5098(7) -0.0104(7)
H20A H -0.2230 -0.5765 0.0069
H21A H -0.1413 -0.4419 0.0365
H22A H -0.3213 -0.4987 -0.0060
C23A C -0.1868(11) -0.5285(7) -0.1141(7)
H23A H -0.0866 -0.5416 -0.1181
H24A H -0.2664 -0.5985 -0.1605
C24A C -0.1592(9) -0.2647(7) -0.2470(7)
H25A H -0.1840 -0.2380 -0.1815
loop_
_geom_bond_atom_site_label_1
_geom_bond_atom_site_label_2
_geom_bond_site_symmetry_1
_geom_bond_site_symmetry_2
Cu1 O1 1_555 1_555
O1 C2 1_555 1_555
C1 F1 1_555 1_555
F2 C1 1_555 1_555
F3 C1 1_555 1_555
C2 C1 1_555 1_555
C3 C2 1_555 1_555
H1 C3 1_555 1_555
C4 C3 1_555 1_555
C5 C4 1_555 1_555
F4 C5 1_555 1_555
F5 C5 1_555 1_555
F6 C5 1_555 1_555
O2 Cu1 1_555 1_555
Cu2 O3 1_555 1_555
O3 C7 1_555 1_555
C6 F7 1_555 1_555
F8 C6 1_555 1_555
F9 C6 1_555 1_555
C7 C6 1_555 1_555
C8 C7 1_555 1_555
H2 C8 1_555 1_555
C9 C8 1_555 1_555
C10 C9 1_555 1_555
F10 C10 1_555 1_555
F11 C10 1_555 1_555
F12 C10 1_555 1_555
O4 Cu2 1_555 1_555
O5 Cu1 1_555 1_555
N1 O5 1_555 1_555
C11 N1 1_555 1_555
C12 C11 1_555 1_555
H3 C12 1_555 1_555
H4 C12 1_555 1_555
H5 C12 1_555 1_555
C13 C11 1_555 1_555
H6 C13 1_555 1_555
H7 C13 1_555 1_555
H8 C13 1_555 1_555
C14 C11 1_555 1_555
C15 C14 1_555 1_555
H9 C15 1_555 1_555
H10 C15 1_555 1_555
H11 C15 1_555 1_555
C16 C14 1_555 1_555
H12 C16 1_555 1_555
H13 C16 1_555 1_555
H14 C16 1_555 1_555
N2 C14 1_555 1_555
O6 N2 1_555 1_555
C17 N1 1_555 1_555
C18 C17 1_555 1_555
C19 C18 1_555 1_555
H15 C19 1_555 1_555
N3 Cu2 1_555 1_555
N4 N3 1_555 1_555
C20 N4 1_555 1_555
H16 C20 1_555 1_555
H17 C20 1_555 1_555
C21 C20 1_555 1_555
H18 C21 1_555 1_555
H19 C21 1_555 1_555
C22 H20 1_555 1_555
H21 C22 1_555 1_555
H22 C22 1_555 1_555
C23 C21 1_555 1_555
H23 C23 1_555 1_555
H24 C23 1_555 1_555
C24 C18 1_555 1_555
H25 C24 1_555 1_555
O1A Cu1 1_555 1_555
C1A F1A 1_555 1_555
F2A C1A 1_555 1_555
F3A C1A 1_555 1_555
C2A O1A 1_555 1_555
C3A C2A 1_555 1_555
H1A C3A 1_555 1_555
C4A C3A 1_555 1_555
C5A C4A 1_555 1_555
F4A C5A 1_555 1_555
F5A C5A 1_555 1_555
F6A C5A 1_555 1_555
O2A Cu1 1_555 1_555
Cu2_2 N3A 1_555 1_555
O3A Cu2 1_555 1_555
C6A F7A 1_555 1_555
F8A C6A 1_555 1_555
F9A C6A 1_555 1_555
C7A O3A 1_555 1_555
C8A C7A 1_555 1_555
H2A C8A 1_555 1_555
C9A C8A 1_555 1_555
C10A C9A 1_555 1_555
F10A C10A 1_555 1_555
F11A C10A 1_555 1_555
F12A C10A 1_555 1_555
O4A Cu2 1_555 1_555
O5A Cu1 1_555 1_555
N1A O5A 1_555 1_555
C11A N1A 1_555 1_555
C12A C11A 1_555 1_555
H3A C12A 1_555 1_555
H4A C12A 1_555 1_555
H5A C12A 1_555 1_555
C13A C11A 1_555 1_555
H6A C13A 1_555 1_555
H7A C13A 1_555 1_555
H8A C13A 1_555 1_555
C14A C11A 1_555 1_555
C15A C14A 1_555 1_555
H9A C15A 1_555 1_555
H10A C15A 1_555 1_555
H11A C15A 1_555 1_555
C16A C14A 1_555 1_555
H12A C16A 1_555 1_555
H13A C16A 1_555 1_555
H14A C16A 1_555 1_555
N2A C14A 1_555 1_555
O6A N2A 1_555 1_555
C17A N1A 1_555 1_555
C18A C17A 1_555 1_555
C19A C18A 1_555 1_555
H15A C19A 1_555 1_555
N3A C19A 1_555 1_555
N3A_2 Cu2 1_555 1_555
N4A N3A 1_555 1_555
C20A N4A 1_555 1_555
H16A C20A 1_555 1_555
H17A C20A 1_555 1_555
C21A C20A 1_555 1_555
H18A C21A 1_555 1_555
H19A C21A 1_555 1_555
C22A H20A 1_555 1_555
H21A C22A 1_555 1_555
H22A C22A 1_555 1_555
C23A C21A 1_555 1_555
H23A C23A 1_555 1_555
H24A C23A 1_555 1_555
C24A C18A 1_555 1_555
H25A C24A 1_555 1_555
C4 O2 1_555 1_555
C9 O4 1_555 1_555
N2 C17 1_555 1_555
C19 N3 1_555 1_555
N4 C24 1_555 1_555
C22 C23 1_555 1_555
C1A C2A 1_555 1_555
C4A O2A 1_555 1_555
C6A C7A 1_555 1_555
C9A O4A 1_555 1_555
N2A C17A 1_555 1_555
N4A C24A 1_555 1_555
C22A C23A 1_555 1_555

#END
