
#######################################################################
#
#                 Cambridge Crystallographic Data Centre
#                                CCDC 
#
#######################################################################
#
# If this CIF has been generated from an entry in the Cambridge 
# Structural Database, then it will include bibliographic, chemical, 
# crystal, experimental, refinement or atomic coordinate data resulting 
# from the CCDC's data processing and validation procedures.
#
#######################################################################

data_SOHSUE
_symmetry_cell_setting           triclinic
_symmetry_space_group_name_H-M   'P -1'
_symmetry_Int_Tables_number      2
_space_group_name_Hall           '-P 1'
loop_
_symmetry_equiv_pos_site_id
_symmetry_equiv_pos_as_xyz
1 x,y,z
2 -x,-y,-z
_cell_length_a                   21.178(4)
_cell_length_b                   13.130(3)
_cell_length_c                   13.393(3)
_cell_angle_alpha                98.38(3)
_cell_angle_beta                 111.40(3)
_cell_angle_gamma                97.49(3)
_cell_volume                     3361.59
loop_
_atom_site_label
_atom_site_type_symbol
_atom_site_fract_x
_atom_site_fract_y
_atom_site_fract_z
Cu1 Cu 0.5000 0.5000 0.0000
O1 O 0.43155(9) 0.37039(14) -0.03641(15)
C1 C 0.33739(15) 0.2507(2) -0.0441(2)
F1 F 0.37704(11) 0.19101(15) 0.0106(2)
F2 F 0.31635(13) 0.20962(17) -0.14898(17)
F3 F 0.28267(10) 0.24225(14) -0.01908(18)
C2 C 0.37819(13) 0.3635(2) -0.0158(2)
C3 C 0.35354(15) 0.4436(2) 0.0288(2)
H1 H 0.3174(15) 0.428(2) 0.040(2)
C4 C 0.38783(14) 0.5471(2) 0.0585(2)
C5 C 0.35968(15) 0.6297(2) 0.1141(2)
F4 F 0.35744(10) 0.71404(13) 0.07020(16)
F5 F 0.29575(11) 0.59515(14) 0.1059(2)
F6 F 0.40009(12) 0.66129(18) 0.21859(16)
O2 O 0.44224(9) 0.58464(14) 0.04770(15)
Cu2 Cu 0.755318(15) 0.99293(2) 0.52360(3)
O3 O 0.67586(9) 1.05430(13) 0.51887(15)
C6 C 0.59529(14) 1.1259(2) 0.5708(2)
F7 F 0.54568(9) 1.08766(15) 0.47113(15)
F8 F 0.56485(9) 1.12673(14) 0.64209(15)
F9 F 0.62029(9) 1.22494(13) 0.57430(16)
C7 C 0.65260(13) 1.0627(2) 0.5934(2)
C8 C 0.67411(15) 1.0249(2) 0.6888(2)
H2 H 0.6552(14) 1.036(2) 0.736(2)
C9 C 0.72588(14) 0.9659(2) 0.7126(2)
C10 C 0.74278(16) 0.9241(2) 0.8189(3)
F10 F 0.73440(12) 0.98745(15) 0.89726(15)
F11 F 0.70110(11) 0.83126(15) 0.79874(17)
F12 F 0.80632(10) 0.90725(18) 0.85697(16)
O4 O 0.75975(9) 0.93958(14) 0.65705(15)
O5 O 0.74745(9) 1.04576(13) 0.38935(15)
C11 C 0.75393(15) 1.0523(2) 0.2191(2)
F13 F 0.68679(9) 1.05104(18) 0.18044(15)
F14 F 0.78571(11) 1.15109(13) 0.23340(15)
F15 F 0.76715(10) 0.99394(14) 0.14283(14)
C12 C 0.77766(13) 1.0158(2) 0.3286(2)
C13 C 0.82962(15) 0.9572(2) 0.3504(2)
H3 H 0.8477(14) 0.942(2) 0.303(2)
C14 C 0.85464(14) 0.9221(2) 0.4470(2)
C15 C 0.91384(15) 0.8626(2) 0.4668(2)
F16 F 0.89201(10) 0.76252(14) 0.46233(19)
F17 F 0.94264(10) 0.86604(16) 0.39423(17)
F18 F 0.96354(10) 0.90057(18) 0.56476(17)
O6 O 0.83447(9) 0.93139(13) 0.52528(15)
Cu3 Cu 1.0000 1.5000 1.0000
O7 O 1.07370(10) 1.62840(17) 1.02764(16)
C16 C 1.15078(17) 1.7541(3) 1.0004(3)
F19 F 1.20024(11) 1.76677(15) 0.96291(19)
F20 F 1.17829(13) 1.79868(18) 1.10624(18)
F21 F 1.10391(12) 1.80867(17) 0.9527(2)
C17 C 1.11596(14) 1.6398(2) 0.9825(2)
C18 C 1.13327(15) 1.5641(2) 0.9196(3)
H4 H 1.1639(16) 1.586(2) 0.886(3)
C19 C 1.10586(14) 1.4568(2) 0.8992(2)
C20 C 1.12594(16) 1.3823(2) 0.8230(3)
F22 F 1.14036(19) 1.2983(2) 0.8628(3)
F23 F 1.17962(19) 1.4193(2) 0.8092(4)
F24 F 1.07484(16) 1.3445(3) 0.7328(2)
O8 O 1.06535(10) 1.41314(16) 0.93536(17)
O9 O 0.53648(9) 0.48117(14) 0.18272(15)
N1 N 0.59743(11) 0.46574(16) 0.23901(18)
C21 C 0.61047(14) 0.3584(2) 0.2555(2)
C22 C 0.58153(18) 0.3322(3) 0.3398(3)
H5 H 0.5344(18) 0.335(2) 0.311(3)
H6 H 0.6022(16) 0.377(3) 0.402(3)
H7 H 0.5875(15) 0.265(3) 0.351(2)
C23 C 0.57440(17) 0.2783(2) 0.1490(3)
H8 H 0.5894(17) 0.300(3) 0.100(3)
H9 H 0.5265(19) 0.269(3) 0.131(3)
H10 H 0.5865(15) 0.215(3) 0.159(2)
C24 C 0.69071(14) 0.3807(2) 0.3004(2)
C25 C 0.71959(17) 0.3711(2) 0.2112(3)
H11 H 0.7666(18) 0.396(2) 0.244(3)
H12 H 0.6962(16) 0.410(2) 0.154(3)
H13 H 0.7138(16) 0.305(3) 0.181(3)
C26 C 0.72483(17) 0.3204(2) 0.3869(3)
H14 H 0.7148(15) 0.337(2) 0.452(3)
H15 H 0.7735(19) 0.336(3) 0.406(3)
H16 H 0.7086(16) 0.248(3) 0.354(3)
N2 N 0.70643(11) 0.49578(16) 0.34973(18)
O10 O 0.76750(9) 0.54481(15) 0.41432(16)
C27 C 0.65184(13) 0.5415(2) 0.3045(2)
C28 C 0.65190(13) 0.6521(2) 0.3251(2)
C29 C 0.59716(14) 0.7020(2) 0.2804(2)
H17 H 0.5530(14) 0.673(2) 0.233(2)
N3 N 0.62000(11) 0.80446(16) 0.32308(18)
C30 C 0.58290(15) 0.8914(2) 0.3037(2)
H18 H 0.6172(15) 0.950(2) 0.310(2)
H19 H 0.5633(16) 0.903(2) 0.349(3)
C31 C 0.52765(17) 0.8749(2) 0.1911(3)
H20 H 0.490(2) 0.813(3) 0.184(3)
H21 H 0.5468(16) 0.860(2) 0.137(3)
C32 C 0.49633(17) 0.9725(2) 0.1771(3)
H22 H 0.4851(17) 0.996(3) 0.238(3)
H23 H 0.5353(17) 1.032(3) 0.183(3)
C33 C 0.4356(2) 0.9598(3) 0.0694(4)
H24 H 0.418(2) 1.025(3) 0.062(3)
H25 H 0.397(3) 0.906(4) 0.067(4)
H26 H 0.448(3) 0.942(4) 0.007(5)
N4 N 0.68741(11) 0.82652(17) 0.39652(18)
C34 C 0.70652(15) 0.7343(2) 0.3964(2)
H27 H 0.7482(14) 0.7307(19) 0.435(2)
O11 O 0.96106(9) 1.51680(14) 0.84475(14)
N5 N 0.89652(11) 1.52467(16) 0.79392(18)
C35 C 0.87694(14) 1.6279(2) 0.7730(2)
C36 C 0.89863(17) 1.6516(3) 0.6806(3)
H28 H 0.9472(15) 1.652(2) 0.700(2)
H29 H 0.8875(15) 1.715(3) 0.665(2)
H30 H 0.8749(15) 1.604(2) 0.615(3)
C37 C 0.91392(16) 1.7146(2) 0.8752(3)
H31 H 0.9631(19) 1.725(3) 0.896(3)
H32 H 0.9056(16) 1.697(3) 0.933(3)
H33 H 0.8979(15) 1.778(3) 0.860(3)
C38 C 0.79739(14) 1.5969(2) 0.7377(2)
C39 C 0.77376(16) 1.6073(2) 0.8323(3)
H34 H 0.7247(17) 1.577(2) 0.808(3)
H35 H 0.7778(15) 1.675(3) 0.863(3)
H36 H 0.7988(16) 1.575(2) 0.888(3)
C40 C 0.75492(16) 1.6485(2) 0.6480(3)
H37 H 0.7066(18) 1.626(2) 0.635(3)
H38 H 0.7630(14) 1.629(2) 0.583(3)
H39 H 0.7671(15) 1.723(3) 0.669(3)
N6 N 0.78618(11) 1.48102(17) 0.69342(18)
O12 O 0.72630(9) 1.42557(14) 0.63361(16)
C41 C 0.84476(13) 1.4432(2) 0.7341(2)
C42 C 0.85056(13) 1.3350(2) 0.7123(2)
C43 C 0.91058(15) 1.2951(2) 0.7488(2)
H40 H 0.9541(15) 1.327(2) 0.789(2)
N7 N 0.89323(11) 1.19232(17) 0.70765(18)
C44 C 0.94015(16) 1.1175(2) 0.7281(3)
H41 H 0.9868(18) 1.153(3) 0.736(3)
H42 H 0.9253(18) 1.068(3) 0.669(3)
C45 C 0.9469(2) 1.0758(3) 0.8271(4)
H43 H 0.9014 1.0429 0.8204
H44 H 0.9654 1.1336 0.8904
C46 C 0.9946(2) 0.9949(4) 0.8456(4)
H45 H 0.996(3) 0.964(4) 0.911(5)
H46 H 0.979(3) 0.936(5) 0.773(5)
C47 C 1.0682(2) 1.0409(4) 0.8684(5)
H47 H 1.099(2) 0.989(3) 0.886(4)
H48 H 1.087(3) 1.099(5) 0.924(5)
H49 H 1.075(2) 1.066(3) 0.812(4)
N8 N 0.82416(11) 1.16005(17) 0.64462(18)
C48 C 0.79887(15) 1.2470(2) 0.6479(2)
H50 H 0.7542(15) 1.245(2) 0.614(2)
O1A O 0.56845(9) 0.62961(14) 0.03641(15)
C1A C 0.66261(15) 0.7493(2) 0.0441(2)
F1A F 0.62296(11) 0.80899(15) -0.0106(2)
F2A F 0.68365(13) 0.79038(17) 0.14898(17)
F3A F 0.71733(10) 0.75775(14) 0.01908(18)
C2A C 0.62181(13) 0.6365(2) 0.0158(2)
C3A C 0.64646(15) 0.5564(2) -0.0288(2)
H1A H 0.6826(15) 0.572(2) -0.040(2)
C4A C 0.61217(14) 0.4529(2) -0.0585(2)
C5A C 0.64032(15) 0.3703(2) -0.1141(2)
F4A F 0.64256(10) 0.28596(13) -0.07020(16)
F5A F 0.70425(11) 0.40485(14) -0.1059(2)
F6A F 0.59991(12) 0.33871(18) -0.21859(16)
O2A O 0.55776(9) 0.41536(14) -0.04770(15)
Cu2A Cu 0.244682(15) 0.00707(2) -0.52360(3)
Cu2A_2 Cu 1.244682(15) 2.00707(2) 1.47640(3)
O3A O 0.32414(9) -0.05430(13) -0.51887(15)
C6A C 0.40471(14) -0.1259(2) -0.5708(2)
F7A F 0.45432(9) -0.08766(15) -0.47113(15)
F8A F 0.43515(9) -0.12673(14) -0.64209(15)
F9A F 0.37971(9) -0.22494(13) -0.57430(16)
C7A C 0.34740(13) -0.0627(2) -0.5934(2)
C8A C 0.32589(15) -0.0249(2) -0.6888(2)
H2A H 0.3448(14) -0.036(2) -0.736(2)
C9A C 0.27412(14) 0.0341(2) -0.7126(2)
C10A C 0.25722(16) 0.0759(2) -0.8189(3)
F10A F 0.26560(12) 0.01255(15) -0.89726(15)
F11A F 0.29890(11) 0.16874(15) -0.79874(17)
F12A F 0.19368(10) 0.09275(18) -0.85697(16)
O4A O 0.24025(9) 0.06042(14) -0.65705(15)
O5A O 0.25255(9) -0.04576(13) -0.38935(15)
C11A C 0.24607(15) -0.0523(2) -0.2191(2)
F13A F 0.31321(9) -0.05104(18) -0.18044(15)
F14A F 0.21429(11) -0.15109(13) -0.23340(15)
F15A F 0.23285(10) 0.00606(14) -0.14283(14)
C12A C 0.22234(13) -0.0158(2) -0.3286(2)
C13A C 0.17038(15) 0.0428(2) -0.3504(2)
H3A H 0.1523(14) 0.058(2) -0.303(2)
C14A C 0.14536(14) 0.0779(2) -0.4470(2)
C15A C 0.08616(15) 0.1374(2) -0.4668(2)
F16A F 0.10799(10) 0.23748(14) -0.46233(19)
F17A F 0.05736(10) 0.13396(16) -0.39423(17)
F18A F 0.03646(10) 0.09943(18) -0.56476(17)
O6A O 0.16553(9) 0.06861(13) -0.52528(15)
O7A O 0.92630(10) 1.37160(17) 0.97236(16)
C16A C 0.84922(17) 1.2459(3) 0.9996(3)
F19A F 0.79976(11) 1.23323(15) 1.03709(19)
F20A F 0.82171(13) 1.20132(18) 0.89376(18)
F21A F 0.89609(12) 1.19133(17) 1.0473(2)
C17A C 0.88404(14) 1.3602(2) 1.0175(2)
C18A C 0.86673(15) 1.4359(2) 1.0804(3)
H4A H 0.8361(16) 1.414(2) 1.114(3)
C19A C 0.89414(14) 1.5432(2) 1.1008(2)
C20A C 0.87406(16) 1.6177(2) 1.1770(3)
F22A F 0.85964(19) 1.7017(2) 1.1372(3)
F23A F 0.82038(19) 1.5807(2) 1.1908(4)
F24A F 0.92516(16) 1.6555(3) 1.2672(2)
O8A O 0.93465(10) 1.58686(16) 1.06464(17)
O9A O 0.46352(9) 0.51883(14) -0.18272(15)
N1A N 0.40257(11) 0.53426(16) -0.23901(18)
C21A C 0.38953(14) 0.6416(2) -0.2555(2)
C22A C 0.41847(18) 0.6678(3) -0.3398(3)
H5A H 0.4656(18) 0.665(2) -0.311(3)
H6A H 0.3978(16) 0.623(3) -0.402(3)
H7A H 0.4125(15) 0.735(3) -0.351(2)
C23A C 0.42560(17) 0.7217(2) -0.1490(3)
H8A H 0.4106(17) 0.700(3) -0.100(3)
H9A H 0.4735(19) 0.731(3) -0.131(3)
H10A H 0.4135(15) 0.785(3) -0.159(2)
C24A C 0.30929(14) 0.6193(2) -0.3004(2)
C25A C 0.28041(17) 0.6289(2) -0.2112(3)
H11A H 0.2334(18) 0.604(2) -0.244(3)
H12A H 0.3038(16) 0.590(2) -0.154(3)
H13A H 0.2862(16) 0.695(3) -0.181(3)
C26A C 0.27517(17) 0.6796(2) -0.3869(3)
H14A H 0.2852(15) 0.663(2) -0.452(3)
H15A H 0.2265(19) 0.664(3) -0.406(3)
H16A H 0.2914(16) 0.752(3) -0.354(3)
N2A N 0.29357(11) 0.50422(16) -0.34973(18)
O10A O 0.23250(9) 0.45519(15) -0.41432(16)
C27A C 0.34816(13) 0.4585(2) -0.3045(2)
C28A C 0.34810(13) 0.3479(2) -0.3251(2)
C29A C 0.40284(14) 0.2980(2) -0.2804(2)
H17A H 0.4470(14) 0.327(2) -0.233(2)
N3A N 0.38000(11) 0.19554(16) -0.32308(18)
C30A C 0.41710(15) 0.1086(2) -0.3037(2)
H18A H 0.3828(15) 0.050(2) -0.310(2)
H19A H 0.4367(16) 0.097(2) -0.349(3)
C31A C 0.47235(17) 0.1251(2) -0.1911(3)
H20A H 0.510(2) 0.187(3) -0.184(3)
H21A H 0.4532(16) 0.140(2) -0.137(3)
C32A C 0.50367(17) 0.0275(2) -0.1771(3)
H22A H 0.5149(17) 0.004(3) -0.238(3)
H23A H 0.4647(17) -0.032(3) -0.183(3)
C33A C 0.5644(2) 0.0402(3) -0.0694(4)
H24A H 0.582(2) -0.025(3) -0.062(3)
H25A H 0.603(3) 0.094(4) -0.067(4)
H26A H 0.552(3) 0.058(4) -0.007(5)
N4A N 0.31259(11) 0.17348(17) -0.39652(18)
C34A C 0.29348(15) 0.2657(2) -0.3964(2)
H27A H 0.2518(14) 0.2693(19) -0.435(2)
O11A O 1.03894(9) 1.48320(14) 1.15525(14)
N5A N 1.10348(11) 1.47533(16) 1.20608(18)
C35A C 1.12306(14) 1.3721(2) 1.2270(2)
C36A C 1.10137(17) 1.3484(3) 1.3194(3)
H28A H 1.0528(15) 1.348(2) 1.300(2)
H29A H 1.1125(15) 1.285(3) 1.335(2)
H30A H 1.1251(15) 1.396(2) 1.385(3)
C37A C 1.08608(16) 1.2854(2) 1.1248(3)
H31A H 1.0369(19) 1.275(3) 1.104(3)
H32A H 1.0944(16) 1.303(3) 1.067(3)
H33A H 1.1021(15) 1.222(3) 1.140(3)
C38A C 1.20261(14) 1.4031(2) 1.2623(2)
C39A C 1.22624(16) 1.3927(2) 1.1677(3)
H34A H 1.2753(17) 1.423(2) 1.192(3)
H35A H 1.2222(15) 1.325(3) 1.137(3)
H36A H 1.2012(16) 1.425(2) 1.112(3)
C40A C 1.24508(16) 1.3515(2) 1.3520(3)
H37A H 1.2934(18) 1.374(2) 1.365(3)
H38A H 1.2370(14) 1.371(2) 1.417(3)
H39A H 1.2329(15) 1.277(3) 1.331(3)
N6A N 1.21382(11) 1.51898(17) 1.30658(18)
O12A O 1.27370(9) 1.57443(14) 1.36639(16)
C41A C 1.15524(13) 1.5568(2) 1.2659(2)
C42A C 1.14944(13) 1.6650(2) 1.2877(2)
C43A C 1.08942(15) 1.7049(2) 1.2512(2)
H40A H 1.0459(15) 1.673(2) 1.211(2)
N7A N 1.10677(11) 1.80768(17) 1.29235(18)
C44A C 1.05985(16) 1.8825(2) 1.2719(3)
H41A H 1.0132(18) 1.847(3) 1.264(3)
H42A H 1.0747(18) 1.932(3) 1.331(3)
C45A C 1.0531(2) 1.9242(3) 1.1729(4)
H43A H 1.0986 1.9571 1.1796
H44A H 1.0346 1.8664 1.1096
C46A C 1.0054(2) 2.0051(4) 1.1544(4)
H45A H 1.004(3) 2.036(4) 1.089(5)
H46A H 1.021(3) 2.064(5) 1.227(5)
C47A C 0.9318(2) 1.9591(4) 1.1316(5)
H47A H 0.901(2) 2.011(3) 1.114(4)
H48A H 0.913(3) 1.901(5) 1.076(5)
H49A H 0.925(2) 1.934(3) 1.188(4)
N8A N 1.17584(11) 1.83995(17) 1.35538(18)
N8A_2 N 0.17584(11) -0.16005(17) -0.64462(18)
C48A C 1.20113(15) 1.7530(2) 1.3521(2)
H50A H 1.2458(15) 1.755(2) 1.386(2)
C49 C 0.9152(2) 1.2737(3) 0.4808(3)
H51 H 0.879(2) 1.248(3) 0.500(3)
H52 H 0.957(2) 1.242(3) 0.514(3)
H53 H 0.9058(16) 1.251(3) 0.414(3)
C50 C 0.93389(17) 1.3922(3) 0.5160(3)
H54 H 0.9499(16) 1.410(2) 0.594(3)
H55 H 0.8918(19) 1.423(3) 0.485(3)
C51 C 0.98955(17) 1.4409(3) 0.4813(3)
H56 H 1.0308(17) 1.409(2) 0.512(3)
H57 H 0.9738(17) 1.425(3) 0.404(3)
C49A C 1.0848(2) 1.7263(3) 0.5192(3)
H51A H 1.121(2) 1.752(3) 0.500(3)
H52A H 1.043(2) 1.758(3) 0.486(3)
H53A H 1.0942(16) 1.749(3) 0.586(3)
C50A C 1.06611(17) 1.6078(3) 0.4840(3)
H54A H 1.0501(16) 1.590(2) 0.406(3)
H55A H 1.1082(19) 1.577(3) 0.515(3)
C51A C 1.01045(17) 1.5591(3) 0.5187(3)
H56A H 0.9692(17) 1.591(2) 0.488(3)
H57A H 1.0262(17) 1.575(3) 0.596(3)
C52 C 0.5700(2) 0.7404(3) 0.5346(3)
H58 H 0.5612(18) 0.799(3) 0.503(3)
H59 H 0.614(2) 0.730(3) 0.531(3)
H60 H 0.5730(19) 0.760(3) 0.607(4)
C53 C 0.51568(18) 0.6422(3) 0.4747(3)
H61 H 0.4749(19) 0.656(3) 0.475(3)
H62 H 0.5088(18) 0.620(3) 0.394(3)
C54 C 0.52909(16) 0.5477(3) 0.5278(3)
H63 H 0.5708(16) 0.530(2) 0.524(2)
H64 H 0.5360(18) 0.567(3) 0.605(3)
C52A C 0.4300(2) 0.2596(3) 0.4654(3)
H58A H 0.4388(18) 0.201(3) 0.497(3)
H59A H 0.386(2) 0.270(3) 0.469(3)
H60A H 0.4270(19) 0.240(3) 0.393(4)
C53A C 0.48432(18) 0.3578(3) 0.5253(3)
H61A H 0.5251(19) 0.344(3) 0.525(3)
H62A H 0.4912(18) 0.380(3) 0.606(3)
C54A C 0.47091(16) 0.4523(3) 0.4722(3)
H63A H 0.4292(16) 0.470(2) 0.476(2)
H64A H 0.4640(18) 0.433(3) 0.395(3)
loop_
_geom_bond_atom_site_label_1
_geom_bond_atom_site_label_2
_geom_bond_site_symmetry_1
_geom_bond_site_symmetry_2
Cu1 O1 1_555 1_555
O1 C2 1_555 1_555
C1 F1 1_555 1_555
F2 C1 1_555 1_555
F3 C1 1_555 1_555
C2 C1 1_555 1_555
C3 C2 1_555 1_555
H1 C3 1_555 1_555
C4 C3 1_555 1_555
C5 C4 1_555 1_555
F4 C5 1_555 1_555
F5 C5 1_555 1_555
F6 C5 1_555 1_555
O2 Cu1 1_555 1_555
Cu2 O3 1_555 1_555
O3 C7 1_555 1_555
C6 F7 1_555 1_555
F8 C6 1_555 1_555
F9 C6 1_555 1_555
C7 C6 1_555 1_555
C8 C7 1_555 1_555
H2 C8 1_555 1_555
C9 C8 1_555 1_555
C10 C9 1_555 1_555
F10 C10 1_555 1_555
F11 C10 1_555 1_555
F12 C10 1_555 1_555
O4 Cu2 1_555 1_555
O5 Cu2 1_555 1_555
C11 F13 1_555 1_555
F14 C11 1_555 1_555
F15 C11 1_555 1_555
C12 O5 1_555 1_555
C13 C12 1_555 1_555
H3 C13 1_555 1_555
C14 C13 1_555 1_555
C15 C14 1_555 1_555
F16 C15 1_555 1_555
F17 C15 1_555 1_555
F18 C15 1_555 1_555
O6 Cu2 1_555 1_555
Cu3 O7 1_555 1_555
O7 C17 1_555 1_555
C16 F19 1_555 1_555
F20 C16 1_555 1_555
F21 C16 1_555 1_555
C17 C16 1_555 1_555
C18 C17 1_555 1_555
H4 C18 1_555 1_555
C19 C18 1_555 1_555
C20 C19 1_555 1_555
F22 C20 1_555 1_555
F23 C20 1_555 1_555
F24 C20 1_555 1_555
O8 Cu3 1_555 1_555
O9 Cu1 1_555 1_555
N1 O9 1_555 1_555
C21 N1 1_555 1_555
C22 C21 1_555 1_555
H5 C22 1_555 1_555
H6 C22 1_555 1_555
H7 C22 1_555 1_555
C23 C21 1_555 1_555
H8 C23 1_555 1_555
H9 C23 1_555 1_555
H10 C23 1_555 1_555
C24 C21 1_555 1_555
C25 C24 1_555 1_555
H11 C25 1_555 1_555
H12 C25 1_555 1_555
H13 C25 1_555 1_555
C26 C24 1_555 1_555
H14 C26 1_555 1_555
H15 C26 1_555 1_555
H16 C26 1_555 1_555
N2 C24 1_555 1_555
O10 N2 1_555 1_555
C27 N1 1_555 1_555
C28 C27 1_555 1_555
C29 C28 1_555 1_555
H17 C29 1_555 1_555
N3 C29 1_555 1_555
C30 N3 1_555 1_555
H18 C30 1_555 1_555
H19 C30 1_555 1_555
C31 C30 1_555 1_555
H20 C31 1_555 1_555
H21 C31 1_555 1_555
C32 C31 1_555 1_555
H22 C32 1_555 1_555
H23 C32 1_555 1_555
C33 C32 1_555 1_555
H24 C33 1_555 1_555
H25 C33 1_555 1_555
H26 C33 1_555 1_555
N4 Cu2 1_555 1_555
C34 C28 1_555 1_555
H27 C34 1_555 1_555
O11 Cu3 1_555 1_555
N5 O11 1_555 1_555
C35 N5 1_555 1_555
C36 C35 1_555 1_555
H28 C36 1_555 1_555
H29 C36 1_555 1_555
H30 C36 1_555 1_555
C37 C35 1_555 1_555
H31 C37 1_555 1_555
H32 C37 1_555 1_555
H33 C37 1_555 1_555
C38 C35 1_555 1_555
C39 C38 1_555 1_555
H34 C39 1_555 1_555
H35 C39 1_555 1_555
H36 C39 1_555 1_555
C40 C38 1_555 1_555
H37 C40 1_555 1_555
H38 C40 1_555 1_555
H39 C40 1_555 1_555
N6 C38 1_555 1_555
O12 N6 1_555 1_555
C41 N5 1_555 1_555
C42 C41 1_555 1_555
C43 C42 1_555 1_555
H40 C43 1_555 1_555
N7 C43 1_555 1_555
C44 N7 1_555 1_555
H41 C44 1_555 1_555
H42 C44 1_555 1_555
C45 C44 1_555 1_555
H43 C45 1_555 1_555
H44 C45 1_555 1_555
C46 C45 1_555 1_555
H45 C46 1_555 1_555
H46 C46 1_555 1_555
C47 C46 1_555 1_555
H47 C47 1_555 1_555
H48 C47 1_555 1_555
H49 C47 1_555 1_555
N8 Cu2 1_555 1_555
C48 C42 1_555 1_555
H50 C48 1_555 1_555
C49 H51 1_555 1_555
H52 C49 1_555 1_555
H53 C49 1_555 1_555
C50 C49 1_555 1_555
H54 C50 1_555 1_555
H55 C50 1_555 1_555
C51 C50 1_555 1_555
H56 C51 1_555 1_555
H57 C51 1_555 1_555
C52 H58 1_555 1_555
H59 C52 1_555 1_555
H60 C52 1_555 1_555
C53 C52 1_555 1_555
H61 C53 1_555 1_555
H62 C53 1_555 1_555
C54 C53 1_555 1_555
H63 C54 1_555 1_555
H64 C54 1_555 1_555
O1A Cu1 1_555 1_555
C1A F1A 1_555 1_555
F2A C1A 1_555 1_555
F3A C1A 1_555 1_555
C2A O1A 1_555 1_555
C3A C2A 1_555 1_555
H1A C3A 1_555 1_555
C4A C3A 1_555 1_555
C5A C4A 1_555 1_555
F4A C5A 1_555 1_555
F5A C5A 1_555 1_555
F6A C5A 1_555 1_555
O2A Cu1 1_555 1_555
Cu2A O3A 1_555 1_555
Cu2A_2 N8A 1_555 1_555
O3A C7A 1_555 1_555
C6A F7A 1_555 1_555
F8A C6A 1_555 1_555
F9A C6A 1_555 1_555
C7A C6A 1_555 1_555
C8A C7A 1_555 1_555
H2A C8A 1_555 1_555
C9A C8A 1_555 1_555
C10A C9A 1_555 1_555
F10A C10A 1_555 1_555
F11A C10A 1_555 1_555
F12A C10A 1_555 1_555
O4A Cu2A 1_555 1_555
O5A Cu2A 1_555 1_555
C11A F13A 1_555 1_555
F14A C11A 1_555 1_555
F15A C11A 1_555 1_555
C12A O5A 1_555 1_555
C13A C12A 1_555 1_555
H3A C13A 1_555 1_555
C14A C13A 1_555 1_555
C15A C14A 1_555 1_555
F16A C15A 1_555 1_555
F17A C15A 1_555 1_555
F18A C15A 1_555 1_555
O6A Cu2A 1_555 1_555
O7A Cu3 1_555 1_555
C16A F19A 1_555 1_555
F20A C16A 1_555 1_555
F21A C16A 1_555 1_555
C17A O7A 1_555 1_555
C18A C17A 1_555 1_555
H4A C18A 1_555 1_555
C19A C18A 1_555 1_555
C20A C19A 1_555 1_555
F22A C20A 1_555 1_555
F23A C20A 1_555 1_555
F24A C20A 1_555 1_555
O8A Cu3 1_555 1_555
O9A Cu1 1_555 1_555
N1A O9A 1_555 1_555
C21A N1A 1_555 1_555
C22A C21A 1_555 1_555
H5A C22A 1_555 1_555
H6A C22A 1_555 1_555
H7A C22A 1_555 1_555
C23A C21A 1_555 1_555
H8A C23A 1_555 1_555
H9A C23A 1_555 1_555
H10A C23A 1_555 1_555
C24A C21A 1_555 1_555
C25A C24A 1_555 1_555
H11A C25A 1_555 1_555
H12A C25A 1_555 1_555
H13A C25A 1_555 1_555
C26A C24A 1_555 1_555
H14A C26A 1_555 1_555
H15A C26A 1_555 1_555
H16A C26A 1_555 1_555
N2A C24A 1_555 1_555
O10A N2A 1_555 1_555
C27A N1A 1_555 1_555
C28A C27A 1_555 1_555
C29A C28A 1_555 1_555
H17A C29A 1_555 1_555
N3A C29A 1_555 1_555
C30A N3A 1_555 1_555
H18A C30A 1_555 1_555
H19A C30A 1_555 1_555
C31A C30A 1_555 1_555
H20A C31A 1_555 1_555
H21A C31A 1_555 1_555
C32A C31A 1_555 1_555
H22A C32A 1_555 1_555
H23A C32A 1_555 1_555
C33A C32A 1_555 1_555
H24A C33A 1_555 1_555
H25A C33A 1_555 1_555
H26A C33A 1_555 1_555
N4A Cu2A 1_555 1_555
C34A C28A 1_555 1_555
H27A C34A 1_555 1_555
O11A Cu3 1_555 1_555
N5A O11A 1_555 1_555
C35A N5A 1_555 1_555
C36A C35A 1_555 1_555
H28A C36A 1_555 1_555
H29A C36A 1_555 1_555
H30A C36A 1_555 1_555
C37A C35A 1_555 1_555
H31A C37A 1_555 1_555
H32A C37A 1_555 1_555
H33A C37A 1_555 1_555
C38A C35A 1_555 1_555
C39A C38A 1_555 1_555
H34A C39A 1_555 1_555
H35A C39A 1_555 1_555
H36A C39A 1_555 1_555
C40A C38A 1_555 1_555
H37A C40A 1_555 1_555
H38A C40A 1_555 1_555
H39A C40A 1_555 1_555
N6A C38A 1_555 1_555
O12A N6A 1_555 1_555
C41A N5A 1_555 1_555
C42A C41A 1_555 1_555
C43A C42A 1_555 1_555
H40A C43A 1_555 1_555
N7A C43A 1_555 1_555
C44A N7A 1_555 1_555
H41A C44A 1_555 1_555
H42A C44A 1_555 1_555
C45A C44A 1_555 1_555
H43A C45A 1_555 1_555
H44A C45A 1_555 1_555
C46A C45A 1_555 1_555
H45A C46A 1_555 1_555
H46A C46A 1_555 1_555
C47A C46A 1_555 1_555
H47A C47A 1_555 1_555
H48A C47A 1_555 1_555
H49A C47A 1_555 1_555
N8A N7A 1_555 1_555
N8A_2 Cu2A 1_555 1_555
C48A C42A 1_555 1_555
H50A C48A 1_555 1_555
C49A H51A 1_555 1_555
H52A C49A 1_555 1_555
H53A C49A 1_555 1_555
C50A C49A 1_555 1_555
H54A C50A 1_555 1_555
H55A C50A 1_555 1_555
C51A C51 1_555 1_555
H56A C51A 1_555 1_555
H57A C51A 1_555 1_555
C52A H58A 1_555 1_555
H59A C52A 1_555 1_555
H60A C52A 1_555 1_555
C53A C52A 1_555 1_555
H61A C53A 1_555 1_555
H62A C53A 1_555 1_555
C54A C54 1_555 1_555
H63A C54A 1_555 1_555
H64A C54A 1_555 1_555
C4 O2 1_555 1_555
C9 O4 1_555 1_555
C11 C12 1_555 1_555
C14 O6 1_555 1_555
C19 O8 1_555 1_555
N2 C27 1_555 1_555
N3 N4 1_555 1_555
N4 C34 1_555 1_555
N6 C41 1_555 1_555
N7 N8 1_555 1_555
N8 C48 1_555 1_555
C1A C2A 1_555 1_555
C4A O2A 1_555 1_555
C9A O4A 1_555 1_555
C11A C12A 1_555 1_555
C14A O6A 1_555 1_555
C16A C17A 1_555 1_555
C19A O8A 1_555 1_555
N2A C27A 1_555 1_555
N3A N4A 1_555 1_555
N4A C34A 1_555 1_555
N6A C41A 1_555 1_555
N8A C48A 1_555 1_555
C50A C51A 1_555 1_555
C53A C54A 1_555 1_555

#END
