
#######################################################################
#
#                 Cambridge Crystallographic Data Centre
#                                CCDC 
#
#######################################################################
#
# If this CIF has been generated from an entry in the Cambridge 
# Structural Database, then it will include bibliographic, chemical, 
# crystal, experimental, refinement or atomic coordinate data resulting 
# from the CCDC's data processing and validation procedures.
#
#######################################################################

data_SOHTEP01
_symmetry_cell_setting           triclinic
_symmetry_space_group_name_H-M   'P -1'
_symmetry_Int_Tables_number      2
_space_group_name_Hall           '-P 1'
loop_
_symmetry_equiv_pos_site_id
_symmetry_equiv_pos_as_xyz
1 x,y,z
2 -x,-y,-z
_cell_length_a                   10.577(2)
_cell_length_b                   13.217(3)
_cell_length_c                   13.584(3)
_cell_angle_alpha                98.705(3)
_cell_angle_beta                 112.082(3)
_cell_angle_gamma                97.176(3)
_cell_volume                     1704.81
loop_
_atom_site_label
_atom_site_type_symbol
_atom_site_fract_x
_atom_site_fract_y
_atom_site_fract_z
C25 C 0.396(5) 0.313(3) 0.502(2)
H26 H 0.3041 0.2691 0.4619
H27 H 0.4642 0.2806 0.4856
H28 H 0.4131 0.3215 0.5763
C26 C 0.413(3) 0.3929(17) 0.434(3)
H29 H 0.3187 0.4026 0.4100
H30 H 0.4362 0.3729 0.3732
C27 C 0.5000 0.5000 0.5000
H31 H 0.5804 0.4784 0.5472
H32 H 0.4575 0.5336 0.5437
C28 C 0.457(5) 0.4220(19) 0.559(2)
H33 H 0.5385 0.4097 0.6145
H34 H 0.4005 0.4507 0.5918
C29 C 0.398(4) 0.328(2) 0.463(3)
H35 H 0.3959 0.2713 0.5018
H36 H 0.3992 0.3003 0.3945
H37 H 0.3175 0.3565 0.4549
C25A C 0.604(5) 0.687(3) 0.498(2)
H26A H 0.6959 0.7309 0.5381
H27A H 0.5358 0.7194 0.5144
H28A H 0.5869 0.6785 0.4237
C26A C 0.587(3) 0.6071(17) 0.566(3)
H29A H 0.6813 0.5974 0.5900
H30A H 0.5638 0.6271 0.6268
H31A H 0.4196 0.5216 0.4528
H32A H 0.5425 0.4664 0.4563
C28A C 0.543(5) 0.5780(19) 0.441(2)
H33A H 0.4615 0.5903 0.3855
H34A H 0.5995 0.5493 0.4082
C29A C 0.602(4) 0.672(2) 0.537(3)
H35A H 0.6041 0.7287 0.4982
H36A H 0.6008 0.6997 0.6055
H37A H 0.6825 0.6435 0.5451
Cu1 Cu 0.5000 0.5000 0.0000
O1 O 0.3817(2) 0.58456(16) 0.05463(17)
C1 C 0.2370(4) 0.6259(3) 0.1404(3)
F1 F 0.3290(4) 0.6666(4) 0.2345(3)
F2 F 0.2150(4) 0.7057(2) 0.0932(3)
F3 F 0.1203(4) 0.5926(2) 0.1466(4)
C2 C 0.2859(3) 0.5453(2) 0.0781(2)
C3 C 0.2225(3) 0.4413(2) 0.0556(3)
H1 H 0.1489 0.4232 0.0776
C4 C 0.2639(3) 0.3629(2) 0.0019(2)
C5 C 0.1869(4) 0.2503(3) -0.0211(3)
F4 F 0.2736(3) 0.19120(19) 0.0227(3)
F5 F 0.1283(3) 0.21044(19) -0.1271(2)
F6 F 0.0872(3) 0.24021(17) 0.0153(2)
O2 O 0.3595(2) 0.37124(16) -0.03172(16)
Cu2 Cu 1.0000 1.0000 0.5000
O3 O 0.9916(2) 1.05140(14) 0.36865(17)
C6 C 1.0276(4) 1.0672(3) 0.2107(3)
F7 F 1.1087(3) 1.16011(19) 0.2320(2)
F8 F 0.8999(3) 1.0822(3) 0.1697(2)
F9 F 1.0472(3) 1.00558(19) 0.13368(18)
C7 C 1.0609(3) 1.0254(2) 0.3150(2)
C8 C 1.1651(3) 0.9667(2) 0.3400(3)
H2 H 1.2085 0.9524 0.2910
C9 C 1.2070(3) 0.9286(2) 0.4346(2)
C10 C 1.3239(3) 0.8666(2) 0.4584(3)
F10 F 1.4198(2) 0.9016(2) 0.5571(2)
F11 F 1.2749(2) 0.76815(16) 0.4502(2)
F12 F 1.3874(3) 0.8694(2) 0.3903(2)
O4 O 1.1588(2) 0.93656(14) 0.50707(16)
O5 O 0.5819(2) 0.47965(16) 0.17020(19)
N1 N 0.7089(3) 0.47015(18) 0.2246(2)
C11 C 0.7454(3) 0.3662(2) 0.2424(3)
C12 C 0.6739(4) 0.2833(2) 0.1374(3)
H3 H 0.5727 0.2749 0.1132
H4 H 0.7013 0.2167 0.1502
H5 H 0.7015 0.3048 0.0813
C13 C 0.6936(4) 0.3389(3) 0.3283(3)
H6 H 0.5916 0.3253 0.2974
H7 H 0.7299 0.3975 0.3915
H8 H 0.7261 0.2766 0.3509
C14 C 0.9065(3) 0.3956(2) 0.2854(3)
C15 C 0.9867(4) 0.3421(3) 0.3749(3)
H9 H 1.0869 0.3638 0.3952
H10 H 0.9593 0.2661 0.3482
H11 H 0.9655 0.3619 0.4386
C16 C 0.9614(4) 0.3868(3) 0.1960(3)
H12 H 1.0634 0.4008 0.2290
H13 H 0.9295 0.4377 0.1514
H14 H 0.9266 0.3162 0.1502
N2 N 0.9306(3) 0.51062(18) 0.3320(2)
O6 O 1.0511(2) 0.56452(17) 0.39412(19)
C17 C 0.8141(3) 0.5499(2) 0.2880(2)
C18 C 0.8047(3) 0.6576(2) 0.3086(2)
C19 C 0.9090(3) 0.7436(2) 0.3766(2)
H15 H 1.0029 0.7396 0.4170
N3 N 0.8598(2) 0.83150(18) 0.3775(2)
N4 N 0.7230(2) 0.80226(18) 0.30931(19)
C20 C 0.6344(3) 0.8794(3) 0.2854(3)
H16 H 0.5470 0.8541 0.2928
H17 H 0.6821 0.9453 0.3404
C21 C 0.5998(7) 0.9015(5) 0.1781(4)
H18 H 0.5387 0.8387 0.1230
H19 H 0.6863 0.9160 0.1660
C22 C 0.5254(8) 0.9956(5) 0.1610(5)
H20 H 0.5636 1.0494 0.2295
H21 H 0.5423 1.0271 0.1043
C23 C 0.3843(8) 0.9627(5) 0.1297(8)
H22 H 0.3402 1.0235 0.1303
H23 H 0.3686 0.9224 0.1804
H24 H 0.3441 0.9186 0.0562
C24 C 0.6860(3) 0.6995(2) 0.2666(3)
H25 H 0.5959 0.6622 0.2171
O1A O 0.6183(2) 0.41544(16) -0.05463(17)
C1A C 0.7630(4) 0.3741(3) -0.1404(3)
F1A F 0.6710(4) 0.3334(4) -0.2345(3)
F2A F 0.7850(4) 0.2943(2) -0.0932(3)
F3A F 0.8797(4) 0.4074(2) -0.1466(4)
C2A C 0.7141(3) 0.4547(2) -0.0781(2)
C3A C 0.7775(3) 0.5587(2) -0.0556(3)
H1A H 0.8511 0.5768 -0.0776
C4A C 0.7361(3) 0.6371(2) -0.0019(2)
C5A C 0.8131(4) 0.7497(3) 0.0211(3)
F4A F 0.7264(3) 0.80880(19) -0.0227(3)
F5A F 0.8717(3) 0.78956(19) 0.1271(2)
F6A F 0.9128(3) 0.75979(17) -0.0153(2)
O2A O 0.6405(2) 0.62876(16) 0.03172(16)
Cu2_2 Cu 0.0000 0.0000 -0.5000
O3A O 1.0084(2) 0.94860(14) 0.63135(17)
C6A C 0.9724(4) 0.9328(3) 0.7893(3)
F7A F 0.8913(3) 0.83989(19) 0.7680(2)
F8A F 1.1001(3) 0.9178(3) 0.8303(2)
F9A F 0.9528(3) 0.99442(19) 0.86632(18)
C7A C 0.9391(3) 0.9746(2) 0.6850(2)
C8A C 0.8349(3) 1.0333(2) 0.6600(3)
H2A H 0.7915 1.0476 0.7090
C9A C 0.7930(3) 1.0714(2) 0.5654(2)
C10A C 0.6761(3) 1.1334(2) 0.5416(3)
F10A F 0.5802(2) 1.0984(2) 0.4429(2)
F11A F 0.7251(2) 1.23185(16) 0.5498(2)
F12A F 0.6126(3) 1.1306(2) 0.6097(2)
O4A O 0.8412(2) 1.06344(14) 0.49293(16)
O5A O 0.4181(2) 0.52035(16) -0.17020(19)
N1A N 0.2911(3) 0.52985(18) -0.2246(2)
C11A C 0.2546(3) 0.6338(2) -0.2424(3)
C12A C 0.3261(4) 0.7167(2) -0.1374(3)
H3A H 0.4273 0.7251 -0.1132
H4A H 0.2987 0.7833 -0.1502
H5A H 0.2985 0.6952 -0.0813
C13A C 0.3064(4) 0.6611(3) -0.3283(3)
H6A H 0.4084 0.6747 -0.2974
H7A H 0.2701 0.6025 -0.3915
H8A H 0.2739 0.7234 -0.3509
C14A C 0.0935(3) 0.6044(2) -0.2854(3)
C15A C 0.0133(4) 0.6579(3) -0.3749(3)
H9A H -0.0869 0.6362 -0.3952
H10A H 0.0407 0.7339 -0.3482
H11A H 0.0345 0.6381 -0.4386
C16A C 0.0386(4) 0.6132(3) -0.1960(3)
H12A H -0.0634 0.5992 -0.2290
H13A H 0.0705 0.5623 -0.1514
H14A H 0.0734 0.6838 -0.1502
N2A N 0.0694(3) 0.48938(18) -0.3320(2)
O6A O -0.0511(2) 0.43548(17) -0.39412(19)
C17A C 0.1859(3) 0.4501(2) -0.2880(2)
C18A C 0.1953(3) 0.3424(2) -0.3086(2)
C19A C 0.0910(3) 0.2564(2) -0.3766(2)
H15A H -0.0029 0.2604 -0.4170
N3A N 0.1402(2) 0.16850(18) -0.3775(2)
N3A_2 N 1.1402(2) 1.16850(18) 0.6225(2)
N4A N 0.2770(2) 0.19774(18) -0.30931(19)
C20A C 0.3656(3) 0.1206(3) -0.2854(3)
H16A H 0.4530 0.1459 -0.2928
H17A H 0.3179 0.0547 -0.3404
C21A C 0.4002(7) 0.0985(5) -0.1781(4)
H18A H 0.4613 0.1613 -0.1230
H19A H 0.3137 0.0840 -0.1660
C22A C 0.4746(8) 0.0044(5) -0.1610(5)
H20A H 0.4364 -0.0494 -0.2295
H21A H 0.4577 -0.0271 -0.1043
C23A C 0.6157(8) 0.0373(5) -0.1297(8)
H22A H 0.6598 -0.0235 -0.1303
H23A H 0.6314 0.0776 -0.1804
H24A H 0.6559 0.0814 -0.0562
C24A C 0.3140(3) 0.3005(2) -0.2666(3)
H25A H 0.4041 0.3378 -0.2171
loop_
_geom_bond_atom_site_label_1
_geom_bond_atom_site_label_2
_geom_bond_site_symmetry_1
_geom_bond_site_symmetry_2
Cu1 O1 1_555 1_555
O1 C2 1_555 1_555
C1 F1 1_555 1_555
F2 C1 1_555 1_555
F3 C1 1_555 1_555
C2 C1 1_555 1_555
C3 C2 1_555 1_555
H1 C3 1_555 1_555
C4 C3 1_555 1_555
C5 C4 1_555 1_555
F4 C5 1_555 1_555
F5 C5 1_555 1_555
F6 C5 1_555 1_555
O2 Cu1 1_555 1_555
Cu2 O3 1_555 1_555
O3 C7 1_555 1_555
C6 F7 1_555 1_555
F8 C6 1_555 1_555
F9 C6 1_555 1_555
C7 C6 1_555 1_555
C8 C7 1_555 1_555
H2 C8 1_555 1_555
C9 C8 1_555 1_555
C10 C9 1_555 1_555
F10 C10 1_555 1_555
F11 C10 1_555 1_555
F12 C10 1_555 1_555
O4 Cu2 1_555 1_555
O5 Cu1 1_555 1_555
N1 O5 1_555 1_555
C11 N1 1_555 1_555
C12 C11 1_555 1_555
H3 C12 1_555 1_555
H4 C12 1_555 1_555
H5 C12 1_555 1_555
C13 C11 1_555 1_555
H6 C13 1_555 1_555
H7 C13 1_555 1_555
H8 C13 1_555 1_555
C14 C11 1_555 1_555
C15 C14 1_555 1_555
H9 C15 1_555 1_555
H10 C15 1_555 1_555
H11 C15 1_555 1_555
C16 C14 1_555 1_555
H12 C16 1_555 1_555
H13 C16 1_555 1_555
H14 C16 1_555 1_555
N2 C14 1_555 1_555
O6 N2 1_555 1_555
C17 N1 1_555 1_555
C18 C17 1_555 1_555
C19 C18 1_555 1_555
H15 C19 1_555 1_555
N3 Cu2 1_555 1_555
N4 N3 1_555 1_555
C20 N4 1_555 1_555
H16 C20 1_555 1_555
H17 C20 1_555 1_555
C21 C20 1_555 1_555
H18 C21 1_555 1_555
H19 C21 1_555 1_555
C22 C21 1_555 1_555
H20 C22 1_555 1_555
H21 C22 1_555 1_555
C23 C22 1_555 1_555
H22 C23 1_555 1_555
H23 C23 1_555 1_555
H24 C23 1_555 1_555
C24 C18 1_555 1_555
H25 C24 1_555 1_555
C25 H26 1_555 1_555
H26 C29 1_555 1_555
H27 C25 1_555 1_555
H28 C25 1_555 1_555
C26 C25 1_555 1_555
H29 C26 1_555 1_555
H30 C26 1_555 1_555
C27 C26 1_555 1_555
H31 C27 1_555 1_555
H32 C27 1_555 1_555
C28 C25 1_555 1_555
H33 C28 1_555 1_555
H34 C28 1_555 1_555
C29 C25 1_555 1_555
H35 C25 1_555 1_555
H36 C26 1_555 1_555
H37 C25 1_555 1_555
O1A Cu1 1_555 1_555
C1A F1A 1_555 1_555
F2A C1A 1_555 1_555
F3A C1A 1_555 1_555
C2A O1A 1_555 1_555
C3A C2A 1_555 1_555
H1A C3A 1_555 1_555
C4A C3A 1_555 1_555
C5A C4A 1_555 1_555
F4A C5A 1_555 1_555
F5A C5A 1_555 1_555
F6A C5A 1_555 1_555
O2A Cu1 1_555 1_555
Cu2_2 N3A 1_555 1_555
O3A Cu2 1_555 1_555
C6A F7A 1_555 1_555
F8A C6A 1_555 1_555
F9A C6A 1_555 1_555
C7A O3A 1_555 1_555
C8A C7A 1_555 1_555
H2A C8A 1_555 1_555
C9A C8A 1_555 1_555
C10A C9A 1_555 1_555
F10A C10A 1_555 1_555
F11A C10A 1_555 1_555
F12A C10A 1_555 1_555
O4A Cu2 1_555 1_555
O5A Cu1 1_555 1_555
N1A O5A 1_555 1_555
C11A N1A 1_555 1_555
C12A C11A 1_555 1_555
H3A C12A 1_555 1_555
H4A C12A 1_555 1_555
H5A C12A 1_555 1_555
C13A C11A 1_555 1_555
H6A C13A 1_555 1_555
H7A C13A 1_555 1_555
H8A C13A 1_555 1_555
C14A C11A 1_555 1_555
C15A C14A 1_555 1_555
H9A C15A 1_555 1_555
H10A C15A 1_555 1_555
H11A C15A 1_555 1_555
C16A C14A 1_555 1_555
H12A C16A 1_555 1_555
H13A C16A 1_555 1_555
H14A C16A 1_555 1_555
N2A C14A 1_555 1_555
O6A N2A 1_555 1_555
C17A N1A 1_555 1_555
C18A C17A 1_555 1_555
C19A C18A 1_555 1_555
H15A C19A 1_555 1_555
N3A C19A 1_555 1_555
N3A_2 Cu2 1_555 1_555
N4A N3A 1_555 1_555
C20A N4A 1_555 1_555
H16A C20A 1_555 1_555
H17A C20A 1_555 1_555
C21A C20A 1_555 1_555
H18A C21A 1_555 1_555
H19A C21A 1_555 1_555
C22A C21A 1_555 1_555
H20A C22A 1_555 1_555
H21A C22A 1_555 1_555
C23A C22A 1_555 1_555
H22A C23A 1_555 1_555
H23A C23A 1_555 1_555
H24A C23A 1_555 1_555
C24A C18A 1_555 1_555
H25A C24A 1_555 1_555
C25A H26A 1_555 1_555
H26A C29A 1_555 1_555
H27A C25A 1_555 1_555
H28A C25A 1_555 1_555
C26A C27 1_555 1_555
H29A C26A 1_555 1_555
H30A C26A 1_555 1_555
H31A C27 1_555 1_555
H32A C27 1_555 1_555
C28A C27 1_555 1_555
H33A C28A 1_555 1_555
H34A C28A 1_555 1_555
C29A C25A 1_555 1_555
H35A C25A 1_555 1_555
H36A C26A 1_555 1_555
H37A C25A 1_555 1_555
C4 O2 1_555 1_555
C9 O4 1_555 1_555
N2 C17 1_555 1_555
C19 N3 1_555 1_555
N4 C24 1_555 1_555
H27 C29 1_555 1_555
H27 H35 1_555 1_555
C26 C28 1_555 1_555
C26 C29 1_555 1_555
C26 H37 1_555 1_555
C27 C28 1_555 1_555
C28 C29 1_555 1_555
C29 H35 1_555 1_555
C29 H36 1_555 1_555
C29 H37 1_555 1_555
C1A C2A 1_555 1_555
C4A O2A 1_555 1_555
C6A C7A 1_555 1_555
C9A O4A 1_555 1_555
N2A C17A 1_555 1_555
N4A C24A 1_555 1_555
C25A C26A 1_555 1_555
C25A C28A 1_555 1_555
H27A C29A 1_555 1_555
H27A H35A 1_555 1_555
C26A C28A 1_555 1_555
C26A C29A 1_555 1_555
C26A H37A 1_555 1_555
C28A C29A 1_555 1_555
C29A H35A 1_555 1_555
C29A H36A 1_555 1_555
C29A H37A 1_555 1_555

#END
