
#######################################################################
#
#                 Cambridge Crystallographic Data Centre
#                                CCDC 
#
#######################################################################
#
# If this CIF has been generated from an entry in the Cambridge 
# Structural Database, then it will include bibliographic, chemical, 
# crystal, experimental, refinement or atomic coordinate data resulting 
# from the CCDC's data processing and validation procedures.
#
#######################################################################

data_SOJDAX01
_symmetry_cell_setting           monoclinic
_symmetry_space_group_name_H-M   'P 21/c'
_symmetry_Int_Tables_number      14
_space_group_name_Hall           '-P 2ybc'
loop_
_symmetry_equiv_pos_site_id
_symmetry_equiv_pos_as_xyz
1 x,y,z
2 -x,1/2+y,1/2-z
3 -x,-y,-z
4 x,1/2-y,1/2+z
_cell_length_a                   9.1030(5)
_cell_length_b                   18.4793(7)
_cell_length_c                   7.0560(3)
_cell_angle_alpha                90
_cell_angle_beta                 92.287(2)
_cell_angle_gamma                90
_cell_volume                     1185.99
loop_
_atom_site_label
_atom_site_type_symbol
_atom_site_fract_x
_atom_site_fract_y
_atom_site_fract_z
Cu1 Cu 0.51926(4) 0.29435(2) 0.21911(5)
N1 N 0.3842(3) 0.21021(13) 0.1809(3)
N2 N 0.3477(3) 0.36293(13) 0.1586(3)
C1 C 0.2374(3) 0.21101(18) 0.1856(4)
N3 N 0.6259(3) 0.26170(14) -0.0696(3)
N4 N 0.7570(3) 0.26988(13) -0.0754(3)
C2 C 0.2070(3) 0.34643(18) 0.1810(4)
N5 N 0.1646(3) 0.27552(14) 0.2080(4)
H1 H 0.0765 0.2708 0.2458
N6 N 0.7339(3) 0.38862(14) 0.3755(4)
N7 N 0.6629(3) 0.37338(15) 0.2359(4)
C3 C 0.1529(4) 0.14814(19) 0.1703(4)
H2 H 0.0512 0.1504 0.1775
N8 N 0.8823(3) 0.27808(17) -0.0771(4)
C4 C 0.2208(4) 0.08363(19) 0.1448(4)
H3 H 0.1659 0.0414 0.1318
C5 C 0.3771(4) 0.43387(18) 0.1262(4)
H4 H 0.4735 0.4463 0.1018
C6 C 0.0964(4) 0.3992(2) 0.1843(4)
H5 H -0.0006 0.3860 0.2025
C7 C 0.4488(4) 0.14468(17) 0.1575(4)
H6 H 0.5508 0.1430 0.1545
C8 C 0.3731(4) 0.08135(18) 0.1383(4)
H7 H 0.4220 0.0378 0.1214
C9 C 0.1326(4) 0.4696(2) 0.1606(4)
H8 H 0.0611 0.5053 0.1669
C10 C 0.2762(4) 0.48798(19) 0.1270(4)
H9 H 0.3029 0.5358 0.1055
N9 N 0.8057(3) 0.40508(16) 0.5080(4)
Cu1C Cu 0.51926(4) 0.20565(2) -0.28089(5)
N3C N 0.6259(3) 0.23830(14) 0.4304(3)
loop_
_geom_bond_atom_site_label_1
_geom_bond_atom_site_label_2
_geom_bond_site_symmetry_1
_geom_bond_site_symmetry_2
Cu1 N1 1_555 1_555
N1 C1 1_555 1_555
N2 Cu1 1_555 1_555
C1 N5 1_555 1_555
N3 Cu1 1_555 1_555
N4 N3 1_555 1_555
C2 N2 1_555 1_555
N5 C2 1_555 1_555
H1 N5 1_555 1_555
N6 N7 1_555 1_555
N7 Cu1 1_555 1_555
C3 C1 1_555 1_555
H2 C3 1_555 1_555
N8 N4 1_555 1_555
C4 C3 1_555 1_555
H3 C4 1_555 1_555
C5 N2 1_555 1_555
H4 C5 1_555 1_555
C6 C2 1_555 1_555
H5 C6 1_555 1_555
C7 N1 1_555 1_555
H6 C7 1_555 1_555
C8 C4 1_555 1_555
H7 C8 1_555 1_555
C9 C6 1_555 1_555
H8 C9 1_555 1_555
C10 C5 1_555 1_555
H9 C10 1_555 1_555
N9 N6 1_555 1_555
Cu1C N3 1_555 1_555
N3C Cu1 1_555 1_555
C7 C8 1_555 1_555
C9 C10 1_555 1_555

#END
