
#######################################################################
#
#                 Cambridge Crystallographic Data Centre
#                                CCDC 
#
#######################################################################
#
# If this CIF has been generated from an entry in the Cambridge 
# Structural Database, then it will include bibliographic, chemical, 
# crystal, experimental, refinement or atomic coordinate data resulting 
# from the CCDC's data processing and validation procedures.
#
#######################################################################

data_SOJGIJ
_symmetry_cell_setting           triclinic
_symmetry_space_group_name_H-M   'P -1'
_symmetry_Int_Tables_number      2
_space_group_name_Hall           '-P 1'
loop_
_symmetry_equiv_pos_site_id
_symmetry_equiv_pos_as_xyz
1 x,y,z
2 -x,-y,-z
_cell_length_a                   10.3228(5)
_cell_length_b                   12.3644(7)
_cell_length_c                   12.6579(6)
_cell_angle_alpha                72.323(2)
_cell_angle_beta                 75.610(2)
_cell_angle_gamma                82.785(2)
_cell_volume                     1488.82
loop_
_atom_site_label
_atom_site_type_symbol
_atom_site_fract_x
_atom_site_fract_y
_atom_site_fract_z
La1 La 0.58444(4) 0.89821(4) 0.38466(3)
La2 La -0.01867(4) 1.15939(4) 0.37054(3)
S1 S 0.27903(16) 1.02642(15) 0.38914(14)
S2 S 0.94914(18) 0.86858(17) 0.34406(16)
S3 S 0.36203(18) 0.79016(17) 0.67157(16)
O1 O 0.3588(6) 0.9499(5) 0.3257(5)
O2 O 0.3646(6) 1.0454(5) 0.4592(5)
O3 O 0.2379(5) 1.1335(5) 0.3140(5)
O4 O 0.1540(5) 0.9741(5) 0.4625(5)
O5 O 0.8265(6) 0.8523(6) 0.3111(5)
O6 O 1.0658(6) 0.8099(6) 0.2900(6)
O7 O 0.9275(6) 0.8200(5) 0.4711(5)
O8 O 0.9695(6) 0.9915(6) 0.3117(5)
O9 O 0.4061(6) 0.7999(5) 0.5469(5)
O10 O 0.4462(7) 0.7063(6) 0.7334(6)
O11 O 0.3684(6) 0.9016(5) 0.6897(5)
O12 O 0.2200(6) 0.7622(6) 0.7072(5)
O13 O 0.6761(6) 0.7166(5) 0.5293(5)
O14 O -0.1827(6) 1.2750(5) 0.5012(6)
C1 C 0.4963(10) 0.6341(8) 0.3694(9)
H1 H 0.4922 0.6180 0.4468
C2 C 0.4601(8) 0.5516(9) 0.3278(9)
H2 H 0.4268 0.4840 0.3784
C3 C 0.4731(10) 0.5692(9) 0.2172(10)
H3 H 0.4554 0.5120 0.1898
C4 C 0.5140(9) 0.6754(8) 0.1410(8)
C5 C 0.5499(8) 0.7563(7) 0.1860(7)
C6 C 0.6017(8) 0.8607(7) 0.1117(6)
C7 C 0.6230(9) 0.8802(8) -0.0066(7)
C8 C 0.5821(9) 0.8004(8) -0.0505(8)
H4 H 0.5900 0.8164 -0.1285
C9 C 0.5305(9) 0.6991(9) 0.0211(7)
H5 H 0.5067 0.6465 -0.0089
C10 C 0.6876(9) 0.9792(10) -0.0771(8)
H6 H 0.7036 0.9947 -0.1557
C11 C 0.7268(10) 1.0526(9) -0.0304(8)
H7 H 0.7728 1.1165 -0.0761
C12 C 0.6949(9) 1.0280(8) 0.0900(7)
H8 H 0.7165 1.0801 0.1217
C13 C 0.0294(10) 1.1783(10) 0.0745(9)
H9 H -0.0099 1.1089 0.1095
C14 C 0.0654(9) 1.2157(14) -0.0470(9)
H10 H 0.0523 1.1702 -0.0896
C15 C 0.1179(10) 1.3165(13) -0.0986(9)
H11 H 0.1396 1.3426 -0.1776
C16 C 0.1407(9) 1.3840(11) -0.0327(9)
C17 C 0.1012(8) 1.3416(9) 0.0893(8)
C18 C 0.1122(9) 1.4096(9) 0.1602(10)
C19 C 0.1645(11) 1.5198(10) 0.1098(12)
C20 C 0.2102(12) 1.5602(12) -0.0112(14)
H12 H 0.2491 1.6300 -0.0438
C21 C 0.1968(11) 1.4969(13) -0.0786(11)
H13 H 0.2243 1.5263 -0.1571
C22 C 0.1646(12) 1.5865(10) 0.1810(16)
H14 H 0.1970 1.6589 0.1500
C23 C 0.1182(11) 1.5470(9) 0.2939(16)
H15 H 0.1188 1.5907 0.3421
C24 C 0.0683(11) 1.4361(9) 0.3374(11)
H16 H 0.0339 1.4092 0.4153
N1 N 0.6368(6) 0.9361(6) 0.1590(6)
N2 N 0.5364(7) 0.7353(7) 0.3000(6)
N3 N 0.0491(7) 1.2372(7) 0.1384(6)
N4 N 0.0678(8) 1.3690(6) 0.2737(7)
La1A La 0.41556(4) 1.10179(4) 0.61534(3)
La2_2 La 0.98133(4) 1.15939(4) 0.37054(3)
La2A La 0.01867(4) 0.84061(4) 0.62946(3)
La2A_2 La 1.01867(4) 0.84061(4) 0.62946(3)
O2A O 0.6354(6) 0.9546(5) 0.5408(5)
O4A O -0.1540(5) 1.0259(5) 0.5375(5)
O7A O 0.0725(6) 1.1800(5) 0.5289(5)
O8_2 O -0.0305(6) 0.9915(6) 0.3117(5)
O11A O 0.6316(6) 1.0984(5) 0.3103(5)
O12A O -0.2200(6) 1.2378(6) 0.2928(5)
loop_
_geom_bond_atom_site_label_1
_geom_bond_atom_site_label_2
_geom_bond_site_symmetry_1
_geom_bond_site_symmetry_2
La1 O1 1_555 1_555
La2 O3 1_555 1_555
S1 O1 1_555 1_555
S2 O5 1_555 1_555
S3 O9 1_555 1_555
O2 La1 1_555 1_555
O3 S1 1_555 1_555
O4 La2 1_555 1_555
O5 La1 1_555 1_555
O6 S2 1_555 1_555
O7 S2 1_555 1_555
O8 S2 1_555 1_555
O9 La1 1_555 1_555
O10 S3 1_555 1_555
O11 S3 1_555 1_555
O12 S3 1_555 1_555
O13 La1 1_555 1_555
O14 La2 1_555 1_555
C1 H1 1_555 1_555
C2 C1 1_555 1_555
H2 C2 1_555 1_555
C3 C2 1_555 1_555
H3 C3 1_555 1_555
C4 C3 1_555 1_555
C5 C4 1_555 1_555
C6 C5 1_555 1_555
C7 C6 1_555 1_555
C8 C7 1_555 1_555
H4 C8 1_555 1_555
C9 C4 1_555 1_555
H5 C9 1_555 1_555
C10 C7 1_555 1_555
H6 C10 1_555 1_555
C11 C10 1_555 1_555
H7 C11 1_555 1_555
C12 C11 1_555 1_555
H8 C12 1_555 1_555
C13 H9 1_555 1_555
C14 C13 1_555 1_555
H10 C14 1_555 1_555
C15 C14 1_555 1_555
H11 C15 1_555 1_555
C16 C15 1_555 1_555
C17 C16 1_555 1_555
C18 C17 1_555 1_555
C19 C18 1_555 1_555
C20 C19 1_555 1_555
H12 C20 1_555 1_555
C21 C16 1_555 1_555
H13 C21 1_555 1_555
C22 C19 1_555 1_555
H14 C22 1_555 1_555
C23 C22 1_555 1_555
H15 C23 1_555 1_555
C24 C23 1_555 1_555
H16 C24 1_555 1_555
N1 La1 1_555 1_555
N2 La1 1_555 1_555
N3 La2 1_555 1_555
N4 La2 1_555 1_555
La1A O2 1_555 1_555
La2_2 O8 1_555 1_555
La2A O4 1_555 1_555
La2A_2 O7 1_555 1_555
O2A La1 1_555 1_555
O4A La2 1_555 1_555
O7A La2 1_555 1_555
O8_2 La2 1_555 1_555
O11A La1 1_555 1_555
O12A La2 1_555 1_555
S1 O2 1_555 1_555
S1 O4 1_555 1_555
O11 La1A 1_555 1_555
O12 La2A 1_555 1_555
C1 N2 1_555 1_555
C5 N2 1_555 1_555
C6 N1 1_555 1_555
C8 C9 1_555 1_555
C12 N1 1_555 1_555
C13 N3 1_555 1_555
C17 N3 1_555 1_555
C18 N4 1_555 1_555
C20 C21 1_555 1_555
C24 N4 1_555 1_555
La1A O2A 1_555 1_555
La2A O4A 1_555 1_555

#END
