
#######################################################################
#
#                 Cambridge Crystallographic Data Centre
#                                CCDC 
#
#######################################################################
#
# If this CIF has been generated from an entry in the Cambridge 
# Structural Database, then it will include bibliographic, chemical, 
# crystal, experimental, refinement or atomic coordinate data resulting 
# from the CCDC's data processing and validation procedures.
#
#######################################################################

data_SOJGOP
_symmetry_cell_setting           orthorhombic
_symmetry_space_group_name_H-M   'C 2 2 21'
_symmetry_Int_Tables_number      20
_space_group_name_Hall           'C 2n 2'
loop_
_symmetry_equiv_pos_site_id
_symmetry_equiv_pos_as_xyz
1 x,y,z
2 -x,-y,1/2+z
3 -x,y,1/2-z
4 x,-y,-z
5 1/2+x,1/2+y,z
6 1/2-x,1/2-y,1/2+z
7 1/2-x,1/2+y,1/2-z
8 1/2+x,1/2-y,-z
_cell_length_a                   12.8925(7)
_cell_length_b                   17.1837(10)
_cell_length_c                   29.0303(11)
_cell_angle_alpha                90
_cell_angle_beta                 90
_cell_angle_gamma                90
_cell_volume                     6431.4
loop_
_atom_site_label
_atom_site_type_symbol
_atom_site_fract_x
_atom_site_fract_y
_atom_site_fract_z
O10 O 0.2239(8) 0.9837(6) 0.4620(2)
O11 O 0.3402(9) 0.9328(5) 0.5114(4)
Cl2 Cl 0.2858(3) 1.0000 0.5000
O10C O 0.2239(8) 1.0163(6) 0.5380(2)
O11C O 0.3402(9) 1.0672(5) 0.4886(4)
Cl1 Cl 0.9176(4) 0.9156(3) 0.72480(15)
O1 O 0.8932(10) 0.9480(7) 0.7686(3)
O2 O 1.0099(6) 0.8704(6) 0.7261(3)
O3 O 0.9310(9) 0.9793(5) 0.6916(4)
O4 O 0.8311(6) 0.8707(5) 0.7081(3)
Cu1 Cu 0.64703(8) 0.87685(5) 0.70475(2)
Cu2 Cu 0.58966(7) 0.96478(6) 0.82646(2)
C1 C 0.4124(7) 0.9282(4) 0.8888(2)
C2 C 0.3712(6) 0.9376(4) 0.93977(18)
H1 H 0.4200 0.9704 0.9569
C3 C 0.2669(7) 0.9765(6) 0.9397(2)
C4 C 0.2563(8) 1.0550(5) 0.9320(2)
H2 H 0.3156 1.0854 0.9288
C5 C 0.1587(12) 1.0905(7) 0.9289(3)
H3 H 0.1519 1.1434 0.9227
C6 C 0.0744(10) 1.0444(7) 0.9353(3)
H4 H 0.0086 1.0665 0.9336
C7 C 0.0834(8) 0.9651(7) 0.9443(2)
H5 H 0.0247 0.9347 0.9493
C8 C 0.1788(8) 0.9333(6) 0.9458(3)
C9 C 0.2769(7) 0.8202(5) 0.9659(2)
C10 C 0.2734(7) 0.7446(5) 0.9828(2)
H6 H 0.2100 0.7196 0.9865
C11 C 0.3632(8) 0.7073(5) 0.9939(2)
H7 H 0.3609 0.6563 1.0044
C12 C 0.4579(8) 0.7447(6) 0.9896(3)
H8 H 0.5192 0.7201 0.9981
C13 C 0.4589(7) 0.8193(6) 0.9723(2)
H9 H 0.5223 0.8439 0.9680
C14 C 0.3696(6) 0.8587(4) 0.96121(18)
C15 C 0.6610(7) 0.7322(5) 0.6449(2)
H10 H 0.6707 0.7658 0.6201
C16 C 0.6569(8) 0.6540(5) 0.6366(2)
H11 H 0.6657 0.6346 0.6070
C17 C 0.6398(7) 0.6051(5) 0.6729(3)
H12 H 0.6358 0.5517 0.6680
C18 C 0.6285(6) 0.6344(5) 0.7163(2)
H13 H 0.6176 0.6012 0.7411
C19 C 0.6335(6) 0.7139(5) 0.7230(2)
C20 C 0.6239(6) 0.7525(5) 0.7663(2)
C21 C 0.6102(6) 0.7260(5) 0.8113(2)
H14 H 0.6113 0.6751 0.8222
C22 C 0.5943(7) 0.7948(5) 0.8360(2)
H15 H 0.5803 0.7968 0.8674
C23 C 0.5619(7) 1.1083(6) 0.8862(3)
H16 H 0.5511 1.0750 0.9110
C24 C 0.5538(8) 1.1863(7) 0.8932(3)
H17 H 0.5379 1.2053 0.9224
C25 C 0.5688(8) 1.2362(6) 0.8578(4)
H18 H 0.5640 1.2896 0.8627
C26 C 0.5913(7) 1.2084(5) 0.8145(3)
H19 H 0.6022 1.2416 0.7896
C27 C 0.5968(6) 1.1262(5) 0.8098(2)
C28 C 0.6213(6) 1.0891(4) 0.7656(2)
C29 C 0.6478(6) 1.1159(5) 0.7220(2)
H20 H 0.6561 1.1670 0.7122
C30 C 0.6586(6) 1.0495(5) 0.6969(2)
H21 H 0.6750 1.0484 0.6657
C31 C 0.8126(9) 0.8917(6) 0.8735(3)
H22 H 0.8619 0.9019 0.8976
H23 H 0.8475 0.8909 0.8443
H24 H 0.7802 0.8422 0.8789
N1 N 0.6516(5) 0.7626(3) 0.68708(18)
N2 N 0.6196(5) 0.8307(4) 0.76540(17)
N3 N 0.6018(5) 0.8574(3) 0.80891(17)
N4 N 0.5850(5) 1.0772(4) 0.84488(19)
N5 N 0.6212(4) 1.0112(3) 0.76598(17)
N6 N 0.6425(5) 0.9849(3) 0.72317(17)
O5 O 0.3461(4) 0.9054(3) 0.86047(13)
O6 O 0.5063(4) 0.9415(3) 0.88281(14)
O7 O 0.1837(4) 0.8529(4) 0.95450(17)
O8 O 0.7365(5) 0.9506(4) 0.87335(17)
H25 H 0.7126 0.9506 0.9006
Cl1B Cl 1.0824(4) 0.9156(3) 0.77520(15)
O1B O 1.1068(10) 0.9480(7) 0.7314(3)
O2B O 0.9901(6) 0.8704(6) 0.7739(3)
O3B O 1.0690(9) 0.9793(5) 0.8084(4)
O4B O 1.1689(6) 0.8707(5) 0.7919(3)
Cu1B Cu 0.35297(8) 0.87685(5) 0.79525(2)
Cu2B Cu 0.41034(7) 0.96478(6) 0.67354(2)
C1B C 0.5876(7) 0.9282(4) 0.6112(2)
C2B C 0.6288(6) 0.9376(4) 0.56023(18)
H1B H 0.5800 0.9704 0.5431
C3B C 0.7331(7) 0.9765(6) 0.5603(2)
C4B C 0.7437(8) 1.0550(5) 0.5680(2)
H2B H 0.6844 1.0854 0.5712
C5B C 0.8413(12) 1.0905(7) 0.5711(3)
H3B H 0.8481 1.1434 0.5773
C6B C 0.9256(10) 1.0444(7) 0.5647(3)
H4B H 0.9914 1.0665 0.5664
C7B C 0.9166(8) 0.9651(7) 0.5557(2)
H5B H 0.9753 0.9347 0.5507
C8B C 0.8212(8) 0.9333(6) 0.5542(3)
C9B C 0.7231(7) 0.8202(5) 0.5341(2)
C10B C 0.7266(7) 0.7446(5) 0.5172(2)
H6B H 0.7900 0.7196 0.5135
C11B C 0.6368(8) 0.7073(5) 0.5061(2)
H7B H 0.6391 0.6563 0.4956
C12B C 0.5421(8) 0.7447(6) 0.5104(3)
H8B H 0.4808 0.7201 0.5019
C13B C 0.5411(7) 0.8193(6) 0.5277(2)
H9B H 0.4777 0.8439 0.5320
C14B C 0.6304(6) 0.8587(4) 0.53879(18)
C15B C 0.3390(7) 0.7322(5) 0.8551(2)
H10B H 0.3293 0.7658 0.8799
C16B C 0.3431(8) 0.6540(5) 0.8634(2)
H11B H 0.3343 0.6346 0.8930
C17B C 0.3602(7) 0.6051(5) 0.8271(3)
H12B H 0.3642 0.5517 0.8320
C18B C 0.3715(6) 0.6344(5) 0.7837(2)
H13B H 0.3824 0.6012 0.7589
C19B C 0.3665(6) 0.7139(5) 0.7770(2)
C20B C 0.3761(6) 0.7525(5) 0.7337(2)
C21B C 0.3898(6) 0.7260(5) 0.6887(2)
H14B H 0.3887 0.6751 0.6778
C22B C 0.4057(7) 0.7948(5) 0.6640(2)
H15B H 0.4197 0.7968 0.6326
C23B C 0.4381(7) 1.1083(6) 0.6138(3)
H16B H 0.4489 1.0750 0.5890
C24B C 0.4462(8) 1.1863(7) 0.6068(3)
H17B H 0.4621 1.2053 0.5776
C25B C 0.4312(8) 1.2362(6) 0.6422(4)
H18B H 0.4360 1.2896 0.6373
C26B C 0.4087(7) 1.2084(5) 0.6855(3)
H19B H 0.3978 1.2416 0.7104
C27B C 0.4032(6) 1.1262(5) 0.6902(2)
C28B C 0.3787(6) 1.0891(4) 0.7344(2)
C29B C 0.3522(6) 1.1159(5) 0.7780(2)
H20B H 0.3439 1.1670 0.7878
C30B C 0.3414(6) 1.0495(5) 0.8031(2)
H21B H 0.3250 1.0484 0.8343
C31B C 0.1874(9) 0.8917(6) 0.6265(3)
H22B H 0.1381 0.9019 0.6024
H23B H 0.1525 0.8909 0.6557
H24B H 0.2198 0.8422 0.6211
N1B N 0.3484(5) 0.7626(3) 0.81292(18)
N2B N 0.3804(5) 0.8307(4) 0.73460(17)
N3B N 0.3982(5) 0.8574(3) 0.69109(17)
N4B N 0.4150(5) 1.0772(4) 0.65512(19)
N5B N 0.3788(4) 1.0112(3) 0.73402(17)
N6B N 0.3575(5) 0.9849(3) 0.77683(17)
O5B O 0.6539(4) 0.9054(3) 0.63953(13)
O6B O 0.4937(4) 0.9415(3) 0.61719(14)
O7B O 0.8163(4) 0.8529(4) 0.54550(17)
O8B O 0.2635(5) 0.9506(4) 0.62665(17)
H25B H 0.2874 0.9506 0.5994
O4B_2 O 0.1689(6) 0.8707(5) 0.7919(3)
Cu1B_2 Cu 1.35297(8) 0.87685(5) 0.79525(2)
O9? O 0.8451(10) 0.9018(6) 0.6960(4)
H26? H 0.8712 0.9249 0.6727
H27? H 0.8899 0.8999 0.7168
loop_
_geom_bond_atom_site_label_1
_geom_bond_atom_site_label_2
_geom_bond_site_symmetry_1
_geom_bond_site_symmetry_2
Cl1 O1 1_555 1_555
O2 Cl1 1_555 1_555
O3 Cl1 1_555 1_555
O4 Cl1 1_555 1_555
Cu1 O4 1_555 1_555
Cu2 N3 1_555 1_555
C1 C2 1_555 1_555
C2 H1 1_555 1_555
C3 C2 1_555 1_555
C4 C3 1_555 1_555
H2 C4 1_555 1_555
C5 C4 1_555 1_555
H3 C5 1_555 1_555
C6 C5 1_555 1_555
H4 C6 1_555 1_555
C7 C6 1_555 1_555
H5 C7 1_555 1_555
C8 C3 1_555 1_555
C9 C10 1_555 1_555
C10 H6 1_555 1_555
C11 C10 1_555 1_555
H7 C11 1_555 1_555
C12 C11 1_555 1_555
H8 C12 1_555 1_555
C13 C12 1_555 1_555
H9 C13 1_555 1_555
C14 C2 1_555 1_555
C15 H10 1_555 1_555
C16 C15 1_555 1_555
H11 C16 1_555 1_555
C17 C16 1_555 1_555
H12 C17 1_555 1_555
C18 C17 1_555 1_555
H13 C18 1_555 1_555
C19 C18 1_555 1_555
C20 C19 1_555 1_555
C21 C20 1_555 1_555
H14 C21 1_555 1_555
C22 C21 1_555 1_555
H15 C22 1_555 1_555
C23 H16 1_555 1_555
C24 C23 1_555 1_555
H17 C24 1_555 1_555
C25 C24 1_555 1_555
H18 C25 1_555 1_555
C26 C25 1_555 1_555
H19 C26 1_555 1_555
C27 C26 1_555 1_555
C28 C27 1_555 1_555
C29 C28 1_555 1_555
H20 C29 1_555 1_555
C30 C29 1_555 1_555
H21 C30 1_555 1_555
C31 H22 1_555 1_555
H23 C31 1_555 1_555
H24 C31 1_555 1_555
N1 Cu1 1_555 1_555
N2 Cu1 1_555 1_555
N3 C22 1_555 1_555
N4 Cu2 1_555 1_555
N5 Cu2 1_555 1_555
N6 Cu1 1_555 1_555
O5 C1 1_555 1_555
O6 Cu2 1_555 1_555
O7 C8 1_555 1_555
O8 Cu2 1_555 1_555
H25 O8 1_555 1_555
O10 Cl2 1_555 1_555
O11 Cl2 1_555 1_555
Cl2 O10C 1_555 1_555
Cl1B O2 1_555 1_555
O1B Cl1B 1_555 1_555
O2B Cl1 1_555 1_555
O3B Cl1B 1_555 1_555
O4B Cl1B 1_555 1_555
Cu1B O5 1_555 1_555
Cu2B N3B 1_555 1_555
C1B C2B 1_555 1_555
C2B H1B 1_555 1_555
C3B C2B 1_555 1_555
C4B C3B 1_555 1_555
H2B C4B 1_555 1_555
C5B C4B 1_555 1_555
H3B C5B 1_555 1_555
C6B C5B 1_555 1_555
H4B C6B 1_555 1_555
C7B C6B 1_555 1_555
H5B C7B 1_555 1_555
C8B C3B 1_555 1_555
C9B C10B 1_555 1_555
C10B H6B 1_555 1_555
C11B C10B 1_555 1_555
H7B C11B 1_555 1_555
C12B C11B 1_555 1_555
H8B C12B 1_555 1_555
C13B C12B 1_555 1_555
H9B C13B 1_555 1_555
C14B C2B 1_555 1_555
C15B H10B 1_555 1_555
C16B C15B 1_555 1_555
H11B C16B 1_555 1_555
C17B C16B 1_555 1_555
H12B C17B 1_555 1_555
C18B C17B 1_555 1_555
H13B C18B 1_555 1_555
C19B C18B 1_555 1_555
C20B C19B 1_555 1_555
C21B C20B 1_555 1_555
H14B C21B 1_555 1_555
C22B C21B 1_555 1_555
H15B C22B 1_555 1_555
C23B H16B 1_555 1_555
C24B C23B 1_555 1_555
H17B C24B 1_555 1_555
C25B C24B 1_555 1_555
H18B C25B 1_555 1_555
C26B C25B 1_555 1_555
H19B C26B 1_555 1_555
C27B C26B 1_555 1_555
C28B C27B 1_555 1_555
C29B C28B 1_555 1_555
H20B C29B 1_555 1_555
C30B C29B 1_555 1_555
H21B C30B 1_555 1_555
C31B H22B 1_555 1_555
H23B C31B 1_555 1_555
H24B C31B 1_555 1_555
N1B Cu1B 1_555 1_555
N2B Cu1B 1_555 1_555
N3B C22B 1_555 1_555
N4B Cu2B 1_555 1_555
N5B Cu2B 1_555 1_555
N6B Cu1B 1_555 1_555
O5B Cu1 1_555 1_555
O6B Cu2B 1_555 1_555
O7B C8B 1_555 1_555
O8B Cu2B 1_555 1_555
H25B O8B 1_555 1_555
O4B_2 Cu1B 1_555 1_555
Cu1B_2 O4B 1_555 1_555
O11C Cl2 1_555 1_555
O2 O2B 1_555 1_555
C1 O6 1_555 1_555
C7 C8 1_555 1_555
C9 C14 1_555 1_555
C9 O7 1_555 1_555
C13 C14 1_555 1_555
C15 N1 1_555 1_555
C19 N1 1_555 1_555
C20 N2 1_555 1_555
C23 N4 1_555 1_555
C27 N4 1_555 1_555
C28 N5 1_555 1_555
C30 N6 1_555 1_555
C31 O8 1_555 1_555
N2 N3 1_555 1_555
N5 N6 1_555 1_555
Cl1B O2B 1_555 1_555
C1B O5B 1_555 1_555
C1B O6B 1_555 1_555
C7B C8B 1_555 1_555
C9B C14B 1_555 1_555
C9B O7B 1_555 1_555
C13B C14B 1_555 1_555
C15B N1B 1_555 1_555
C19B N1B 1_555 1_555
C20B N2B 1_555 1_555
C23B N4B 1_555 1_555
C27B N4B 1_555 1_555
C28B N5B 1_555 1_555
C30B N6B 1_555 1_555
C31B O8B 1_555 1_555
N2B N3B 1_555 1_555
N5B N6B 1_555 1_555

#END
