
#######################################################################
#
#                 Cambridge Crystallographic Data Centre
#                                CCDC 
#
#######################################################################
#
# If this CIF has been generated from an entry in the Cambridge 
# Structural Database, then it will include bibliographic, chemical, 
# crystal, experimental, refinement or atomic coordinate data resulting 
# from the CCDC's data processing and validation procedures.
#
#######################################################################

data_SOJGUT
_symmetry_cell_setting           monoclinic
_symmetry_space_group_name_H-M   'P 21/c'
_symmetry_Int_Tables_number      14
_space_group_name_Hall           '-P 2ybc'
loop_
_symmetry_equiv_pos_site_id
_symmetry_equiv_pos_as_xyz
1 x,y,z
2 -x,1/2+y,1/2-z
3 -x,-y,-z
4 x,1/2-y,1/2+z
_cell_length_a                   14.112(6)
_cell_length_b                   12.395(4)
_cell_length_c                   14.379(4)
_cell_angle_alpha                90
_cell_angle_beta                 107.46(3)
_cell_angle_gamma                90
_cell_volume                     2399.27
loop_
_atom_site_label
_atom_site_type_symbol
_atom_site_fract_x
_atom_site_fract_y
_atom_site_fract_z
Cu1 Cu 0.8449(1) 0.1317(1) 0.8248(1)
Cu2 Cu 0.7023(1) 0.0502(1) 0.9239(1)
N1 N 0.7573(6) 0.0125(7) 0.7482(7)
N2 N 0.6913(6) -0.0179(7) 0.7925(7)
N3 N 0.5827(6) 0.0177(7) 0.9686(7)
N4 N 0.9843(6) 0.0892(7) 0.8801(8)
N5 N 0.7113(8) 0.2163(7) 0.9129(6)
N6 N 0.7632(6) 0.2453(7) 0.8535(6)
N7 N 0.8288(6) -0.0113(7) 1.0192(6)
C1 C 0.7595(9) -0.029(1) 0.6660(8)
C2 C 0.691(1) -0.108(1) 0.621(1)
C3 C 0.625(1) -0.144(1) 0.664(1)
C4 C 0.627(1) -0.094(1) 0.752(1)
C5 C 0.838(1) 0.008(1) 0.625(1)
C6 C 0.755(1) 0.346(1) 0.818(1)
C7 C 0.694(1) 0.422(1) 0.845(1)
C8 C 0.645(1) 0.392(1) 0.907(1)
C9 C 0.6544(8) 0.285(1) 0.9386(8)
C10 C 0.812(1) 0.370(1) 0.748(1)
C11 C 1.0076(8) -0.0147(9) 0.8801(8)
C12 C 1.0575(8) 0.1566(8) 0.9261(8)
C13 C 0.9011(8) 0.0521(9) 1.0698(8)
C14 C 0.8506(8) -0.114(1) 1.0232(8)
C15 C 0.4911(8) 0.047(1) 0.9158(7)
C16 C 0.5886(7) -0.0285(9) 1.0526(8)
H1 H 0.4871 0.0775 0.8463
H2 H 0.6521 -0.0563 1.0810
H3 H 1.0374 0.2449 0.9336
H4 H 0.8850 0.1295 1.0767
H5 H 0.9548 -0.0653 0.8761
H6 H 0.5725 -0.2048 0.6339
H7 H 0.6917 -0.1273 0.5503
H8 H 0.6189 0.2439 0.9889
H9 H 0.6681 0.4956 0.7944
H10 H 0.8208 0.0720 0.6068
H11 H 0.9059 -0.0180 0.6677
H12 H 0.8254 -0.0142 0.5469
H13 H 0.8807 0.3573 0.7796
H14 H 0.7900 0.3230 0.6933
H15 H 0.8019 0.4423 0.7275
H16 H 0.5801 -0.1173 0.7836
H17 H 0.6046 0.4419 0.9288
H18 H 0.8049 -0.1638 0.9787
C13B C 1.0989(8) -0.0521(9) 0.9302(8)
N7B N 1.1712(6) 0.0113(7) 0.9808(6)
Cu2B Cu 1.2977(1) -0.0502(1) 1.0761(1)
Cu1B Cu 1.1551(1) -0.1317(1) 1.1752(1)
N1B N 1.2427(6) -0.0125(7) 1.2518(7)
N2B N 1.3087(6) 0.0179(7) 1.2075(7)
N3B N 1.4173(6) -0.0177(7) 1.0314(7)
N5B N 1.2887(8) -0.2163(7) 1.0871(6)
C4B C 1.373(1) 0.094(1) 1.248(1)
C3B C 1.375(1) 0.144(1) 1.336(1)
C2B C 1.309(1) 0.108(1) 1.379(1)
C1B C 1.2405(9) 0.029(1) 1.3340(8)
C5B C 1.162(1) -0.008(1) 1.375(1)
H10B H 1.1792 -0.0720 1.3932
H11B H 1.0941 0.0180 1.3323
H12B H 1.1746 0.0142 1.4531
H7B H 1.3083 0.1273 1.4497
H6B H 1.4275 0.2048 1.3661
H16B H 1.4199 0.1173 1.2164
N4B N 1.0157(6) -0.0892(7) 1.1199(8)
N6B N 1.2368(6) -0.2453(7) 1.1465(6)
C14B C 1.1494(8) 0.114(1) 0.9768(8)
H18B H 1.1951 0.1638 1.0213
H4B H 1.1150 -0.1295 0.9233
C11B C 0.9924(8) 0.0147(9) 1.1199(8)
C12B C 0.9425(8) -0.1566(8) 1.0739(8)
C16B C 0.4114(7) 0.0285(9) 0.9474(8)
C15B C 0.5089(8) -0.047(1) 1.0842(7)
C6B C 1.245(1) -0.346(1) 1.182(1)
C9B C 1.3456(8) -0.285(1) 1.0614(8)
H5B H 1.0452 0.0653 1.1239
H3B H 0.9626 -0.2449 1.0664
N3B_2 N 0.4173(6) -0.0177(7) 1.0314(7)
H2B H 0.3479 0.0563 0.9190
H1B H 0.5129 -0.0775 1.1537
C7B C 1.306(1) -0.422(1) 1.155(1)
C10B C 1.188(1) -0.370(1) 1.252(1)
C8B C 1.355(1) -0.392(1) 1.093(1)
H8B H 1.3811 -0.2439 1.0111
Cu2B_2 Cu 0.2977(1) -0.0502(1) 1.0761(1)
H9B H 1.3319 -0.4956 1.2056
H13B H 1.1193 -0.3573 1.2204
H14B H 1.2100 -0.3230 1.3067
H15B H 1.1981 -0.4423 1.2725
H17B H 1.3954 -0.4419 1.0712
Cl1 Cl 0.5012(3) 0.1968(3) 0.6315(2)
O1 O 0.525(1) 0.107(1) 0.5851(9)
O2 O 0.500(1) 0.183(1) 0.721(1)
O3 O 0.419(1) 0.245(1) 0.575(1)
O4 O 0.565(2) 0.275(1) 0.634(1)
Cl2 Cl 0.1177(5) 0.1862(4) 0.6881(4)
O5 O 0.174(2) 0.131(1) 0.767(1)
O6 O 0.090(2) 0.120(2) 0.619(2)
O7 O 0.155(1) 0.273(1) 0.667(1)
O8 O 0.035(2) 0.231(2) 0.694(3)
loop_
_geom_bond_atom_site_label_1
_geom_bond_atom_site_label_2
_geom_bond_site_symmetry_1
_geom_bond_site_symmetry_2
Cu1 N1 1_555 1_555
Cu2 N2 1_555 1_555
N1 N2 1_555 1_555
N2 C4 1_555 1_555
N3 Cu2 1_555 1_555
N4 Cu1 1_555 1_555
N5 Cu2 1_555 1_555
N6 Cu1 1_555 1_555
N7 Cu2 1_555 1_555
C1 N1 1_555 1_555
C2 C1 1_555 1_555
C3 C2 1_555 1_555
C4 C3 1_555 1_555
C5 C1 1_555 1_555
C6 N6 1_555 1_555
C7 C6 1_555 1_555
C8 C7 1_555 1_555
C9 N5 1_555 1_555
C10 C6 1_555 1_555
C11 N4 1_555 1_555
C12 N4 1_555 1_555
C13 N7 1_555 1_555
C14 N7 1_555 1_555
C15 N3 1_555 1_555
C16 N3 1_555 1_555
H1 C15 1_555 1_555
H2 C16 1_555 1_555
H3 C12 1_555 1_555
H4 C13 1_555 1_555
H5 C11 1_555 1_555
H6 C3 1_555 1_555
H7 C2 1_555 1_555
H8 C9 1_555 1_555
H9 C7 1_555 1_555
H10 C5 1_555 1_555
H11 C5 1_555 1_555
H12 C5 1_555 1_555
H13 C10 1_555 1_555
H14 C10 1_555 1_555
H15 C10 1_555 1_555
H16 C4 1_555 1_555
H17 C8 1_555 1_555
H18 C14 1_555 1_555
Cl1 O1 1_555 1_555
O2 Cl1 1_555 1_555
O3 Cl1 1_555 1_555
O4 Cl1 1_555 1_555
Cl2 O5 1_555 1_555
O6 Cl2 1_555 1_555
O7 Cl2 1_555 1_555
O8 Cl2 1_555 1_555
C13B C11 1_555 1_555
N7B C13B 1_555 1_555
Cu2B N7B 1_555 1_555
Cu1B N1B 1_555 1_555
N1B N2B 1_555 1_555
N2B Cu2B 1_555 1_555
N3B Cu2B 1_555 1_555
N5B Cu2B 1_555 1_555
C4B N2B 1_555 1_555
C3B C4B 1_555 1_555
C2B C3B 1_555 1_555
C1B N1B 1_555 1_555
C5B C1B 1_555 1_555
H10B C5B 1_555 1_555
H11B C5B 1_555 1_555
H12B C5B 1_555 1_555
H7B C2B 1_555 1_555
H6B C3B 1_555 1_555
H16B C4B 1_555 1_555
N4B Cu1B 1_555 1_555
N6B Cu1B 1_555 1_555
C14B C12 1_555 1_555
H18B C14B 1_555 1_555
H4B C13B 1_555 1_555
C11B C13 1_555 1_555
C12B C14 1_555 1_555
C16B C15 1_555 1_555
C15B C16 1_555 1_555
C6B N6B 1_555 1_555
C9B N5B 1_555 1_555
H5B C11B 1_555 1_555
H3B C12B 1_555 1_555
N3B_2 C16B 1_555 1_555
H2B C16B 1_555 1_555
H1B C15B 1_555 1_555
C7B C6B 1_555 1_555
C10B C6B 1_555 1_555
C8B C9B 1_555 1_555
H8B C9B 1_555 1_555
Cu2B_2 N3B_2 1_555 1_555
H9B C7B 1_555 1_555
H13B C10B 1_555 1_555
H14B C10B 1_555 1_555
H15B C10B 1_555 1_555
H17B C8B 1_555 1_555
N5 N6 1_555 1_555
C8 C9 1_555 1_555
N7B C14B 1_555 1_555
N5B N6B 1_555 1_555
C2B C1B 1_555 1_555
N4B C11B 1_555 1_555
N4B C12B 1_555 1_555
C15B N3B_2 1_555 1_555
C7B C8B 1_555 1_555

#END
