
#######################################################################
#
#                 Cambridge Crystallographic Data Centre
#                                CCDC 
#
#######################################################################
#
# If this CIF has been generated from an entry in the Cambridge 
# Structural Database, then it will include bibliographic, chemical, 
# crystal, experimental, refinement or atomic coordinate data resulting 
# from the CCDC's data processing and validation procedures.
#
#######################################################################

data_SOJHIK
_symmetry_cell_setting           monoclinic
_symmetry_space_group_name_H-M   'C 2/c'
_symmetry_Int_Tables_number      15
_space_group_name_Hall           '-C 2yn'
loop_
_symmetry_equiv_pos_site_id
_symmetry_equiv_pos_as_xyz
1 x,y,z
2 -x,y,1/2-z
3 1/2+x,1/2+y,z
4 1/2-x,1/2+y,1/2-z
5 -x,-y,-z
6 x,-y,1/2+z
7 1/2-x,1/2-y,-z
8 1/2+x,1/2-y,1/2+z
_cell_length_a                   17.124(5)
_cell_length_b                   6.195(5)
_cell_length_c                   20.278(5)
_cell_angle_alpha                90
_cell_angle_beta                 96.202(5)
_cell_angle_gamma                90
_cell_volume                     2138.56
loop_
_atom_site_label
_atom_site_type_symbol
_atom_site_fract_x
_atom_site_fract_y
_atom_site_fract_z
Zn1 Zn 0.0000 0.34521(4) 0.2500
O1 O -0.00059(8) 0.1436(2) 0.32437(6)
O2 O -0.04547(12) 0.4236(3) 0.37554(8)
N1 N 0.09508(8) 0.5394(2) 0.27633(7)
N2 N 0.25434(8) 0.3472(3) 0.43652(7)
C1 C -0.02058(10) 0.2388(3) 0.37608(8)
C2 C -0.01014(9) 0.1120(3) 0.43995(8)
C3 C -0.02906(10) 0.2081(3) 0.49828(8)
H1 H -0.0486 0.3483 0.4972
C4 C 0.01913(10) -0.0977(3) 0.44233(8)
H2 H 0.0320 -0.1637 0.4038
C5 C 0.15223(10) 0.4737(3) 0.32254(9)
H3 H 0.1479 0.3376 0.3411
C6 C 0.21736(10) 0.5978(3) 0.34406(9)
C7 C 0.28233(11) 0.5089(4) 0.39274(10)
H4 H 0.3223 0.4452 0.3684
H5 H 0.3064 0.6264 0.4192
C8 C 0.31935(10) 0.2193(3) 0.46909(9)
H6 H 0.3558 0.3129 0.4955
H7 H 0.3473 0.1492 0.4359
C9 C 0.21234(11) 0.4479(3) 0.48710(10)
H8 H 0.1693 0.5336 0.4659
H9 H 0.2475 0.5437 0.5139
C10 C 0.16209(12) 0.8736(3) 0.27092(10)
H10 H 0.1638 1.0119 0.2532
C11 C 0.10084(11) 0.7371(3) 0.25043(9)
H11 H 0.0623 0.7833 0.2176
C12 C 0.22096(12) 0.8039(3) 0.31790(10)
H12 H 0.2628 0.8945 0.3319
O1D O 0.00059(8) -0.1436(2) 0.67563(6)
O2D O 0.04547(12) -0.4236(3) 0.62446(8)
C1D C 0.02058(10) -0.2388(3) 0.62392(8)
C2D C 0.01014(9) -0.1120(3) 0.56005(8)
C3D C 0.02906(10) -0.2081(3) 0.50172(8)
H1D H 0.0486 -0.3483 0.5028
C4D C -0.01913(10) 0.0977(3) 0.55767(8)
H2D H -0.0320 0.1637 0.5962
N1F N 0.40492(8) -0.0394(2) 0.72367(7)
N2F N 0.24566(8) 0.1528(3) 0.56348(7)
C5F C 0.34777(10) 0.0263(3) 0.67746(9)
H3F H 0.3521 0.1624 0.6589
C6F C 0.28264(10) -0.0978(3) 0.65594(9)
C7F C 0.21767(11) -0.0089(4) 0.60726(10)
H4F H 0.1777 0.0548 0.6316
H5F H 0.1936 -0.1264 0.5808
C8F C 0.18065(10) 0.2807(3) 0.53091(9)
H6F H 0.1442 0.1871 0.5045
H7F H 0.1527 0.3508 0.5641
C9F C 0.28766(11) 0.0521(3) 0.51290(10)
H8F H 0.3307 -0.0336 0.5341
H9F H 0.2525 -0.0437 0.4861
C10F C 0.33791(12) -0.3736(3) 0.72908(10)
H10F H 0.3362 -0.5119 0.7468
C11F C 0.39916(11) -0.2371(3) 0.74957(9)
H11F H 0.4377 -0.2833 0.7824
C12F C 0.27904(12) -0.3039(3) 0.68210(10)
H12F H 0.2372 -0.3945 0.6681
Zn1D Zn 0.0000 -0.34521(4) 0.7500
Zn1F Zn 0.5000 0.15479(4) 0.7500
O1A O 0.00059(8) 0.1436(2) 0.17563(6)
N1A N -0.09508(8) 0.5394(2) 0.22367(7)
loop_
_geom_bond_atom_site_label_1
_geom_bond_atom_site_label_2
_geom_bond_site_symmetry_1
_geom_bond_site_symmetry_2
Zn1 O1 1_555 1_555
O1 C1 1_555 1_555
O2 C1 1_555 1_555
N1 Zn1 1_555 1_555
N2 C7 1_555 1_555
C1 C2 1_555 1_555
C2 C3 1_555 1_555
C3 H1 1_555 1_555
C4 C2 1_555 1_555
H2 C4 1_555 1_555
C5 N1 1_555 1_555
H3 C5 1_555 1_555
C6 C5 1_555 1_555
C7 C6 1_555 1_555
H4 C7 1_555 1_555
H5 C7 1_555 1_555
C8 N2 1_555 1_555
H6 C8 1_555 1_555
H7 C8 1_555 1_555
C9 N2 1_555 1_555
H8 C9 1_555 1_555
H9 C9 1_555 1_555
C10 H10 1_555 1_555
C11 N1 1_555 1_555
H11 C11 1_555 1_555
C12 C6 1_555 1_555
H12 C12 1_555 1_555
O1D C1D 1_555 1_555
O2D C1D 1_555 1_555
C1D C2D 1_555 1_555
C2D C3D 1_555 1_555
C3D C4 1_555 1_555
H1D C3D 1_555 1_555
C4D C3 1_555 1_555
H2D C4D 1_555 1_555
N1F C5F 1_555 1_555
N2F C7F 1_555 1_555
C5F H3F 1_555 1_555
C6F C5F 1_555 1_555
C7F C6F 1_555 1_555
H4F C7F 1_555 1_555
H5F C7F 1_555 1_555
C8F C9 1_555 1_555
H6F C8F 1_555 1_555
H7F C8F 1_555 1_555
C9F C8 1_555 1_555
H8F C9F 1_555 1_555
H9F C9F 1_555 1_555
C10F H10F 1_555 1_555
C11F N1F 1_555 1_555
H11F C11F 1_555 1_555
C12F C6F 1_555 1_555
H12F C12F 1_555 1_555
Zn1D O1D 1_555 1_555
Zn1F N1F 1_555 1_555
O1A Zn1 1_555 1_555
N1A Zn1 1_555 1_555
C10 C11 1_555 1_555
C10 C12 1_555 1_555
C2D C4D 1_555 1_555
N2F C8F 1_555 1_555
N2F C9F 1_555 1_555
C10F C11F 1_555 1_555
C10F C12F 1_555 1_555

#END
