
#######################################################################
#
#                 Cambridge Crystallographic Data Centre
#                                CCDC 
#
#######################################################################
#
# If this CIF has been generated from an entry in the Cambridge 
# Structural Database, then it will include bibliographic, chemical, 
# crystal, experimental, refinement or atomic coordinate data resulting 
# from the CCDC's data processing and validation procedures.
#
#######################################################################

data_SOJHOP
_symmetry_cell_setting           monoclinic
_symmetry_space_group_name_H-M   'P 21/n'
_symmetry_Int_Tables_number      14
_space_group_name_Hall           '-P 2yn'
loop_
_symmetry_equiv_pos_site_id
_symmetry_equiv_pos_as_xyz
1 x,y,z
2 1/2-x,1/2+y,1/2-z
3 -x,-y,-z
4 1/2+x,1/2-y,1/2+z
_cell_length_a                   7.5787(11)
_cell_length_b                   5.9545(9)
_cell_length_c                   29.619(4)
_cell_angle_alpha                90
_cell_angle_beta                 91.636(3)
_cell_angle_gamma                90
_cell_volume                     1336.08
loop_
_atom_site_label
_atom_site_type_symbol
_atom_site_fract_x
_atom_site_fract_y
_atom_site_fract_z
Pb1 Pb 0.27003(8) 1.19126(9) 0.016047(19)
S1 S 0.6012(5) 1.0038(6) 0.06104(12)
S2 S 0.1113(5) 0.7677(6) 0.03031(14)
O1 O 0.5436(15) 0.5700(19) 0.0511(4)
O2 O 0.136(2) 1.063(2) 0.0981(5)
C1 C 0.0828(17) 0.876(3) 0.0849(5)
C2 C 0.5389(19) 0.731(2) 0.0774(5)
C3 C 0.4763(19) 0.694(2) 0.1241(5)
C4 C 0.404(2) 0.487(3) 0.1353(6)
H1 H 0.3885 0.3769 0.1132
C5 C 0.354(3) 0.443(3) 0.1789(6)
H2 H 0.3065 0.3042 0.1863
C6 C 0.375(3) 0.608(4) 0.2116(6)
H3 H 0.3425 0.5790 0.2411
C7 C 0.443(3) 0.816(4) 0.2007(6)
H4 H 0.4554 0.9271 0.2227
C8 C 0.493(2) 0.859(3) 0.1572(5)
H5 H 0.5375 0.9996 0.1499
C9 C -0.005(2) 0.735(3) 0.1196(5)
C10 C -0.0709(17) 0.522(3) 0.1099(6)
H6 H -0.0634 0.4655 0.0807
C11 C -0.013(3) 0.815(3) 0.1633(6)
H7 H 0.0342 0.9559 0.1701
C12 C -0.087(3) 0.694(4) 0.1964(7)
H8 H -0.0944 0.7522 0.2255
C13 C -0.154(2) 0.478(4) 0.1863(7)
H9 H -0.2024 0.3925 0.2091
C14 C -0.148(2) 0.391(3) 0.1431(7)
H10 H -0.1942 0.2500 0.1363
Pb1B Pb 0.72997(8) 0.80874(9) -0.016047(19)
Pb1B_2 Pb -0.27003(8) 0.80874(9) -0.016047(19)
S1B S 0.3988(5) 0.9962(6) -0.06104(12)
S2B S -0.1113(5) 1.2323(6) -0.03031(14)
loop_
_geom_bond_atom_site_label_1
_geom_bond_atom_site_label_2
_geom_bond_site_symmetry_1
_geom_bond_site_symmetry_2
Pb1 S1 1_555 1_555
S1 C2 1_555 1_555
S2 Pb1 1_555 1_555
O1 C2 1_555 1_555
O2 C1 1_555 1_555
C1 S2 1_555 1_555
C2 C3 1_555 1_555
C3 C4 1_555 1_555
C4 H1 1_555 1_555
C5 C4 1_555 1_555
H2 C5 1_555 1_555
C6 C5 1_555 1_555
H3 C6 1_555 1_555
C7 C6 1_555 1_555
H4 C7 1_555 1_555
C8 C3 1_555 1_555
H5 C8 1_555 1_555
C9 C1 1_555 1_555
C10 C9 1_555 1_555
H6 C10 1_555 1_555
C11 C9 1_555 1_555
H7 C11 1_555 1_555
C12 C11 1_555 1_555
H8 C12 1_555 1_555
C13 C12 1_555 1_555
H9 C13 1_555 1_555
C14 C10 1_555 1_555
H10 C14 1_555 1_555
Pb1B S1 1_555 1_555
Pb1B_2 S2 1_555 1_555
S1B Pb1 1_555 1_555
S2B Pb1 1_555 1_555
C7 C8 1_555 1_555
C13 C14 1_555 1_555
Pb1B S1B 1_555 1_555
Pb1B_2 S2B 1_555 1_555

#END
