
#######################################################################
#
#                 Cambridge Crystallographic Data Centre
#                                CCDC 
#
#######################################################################
#
# If this CIF has been generated from an entry in the Cambridge 
# Structural Database, then it will include bibliographic, chemical, 
# crystal, experimental, refinement or atomic coordinate data resulting 
# from the CCDC's data processing and validation procedures.
#
#######################################################################

data_SOJJUY01
_symmetry_cell_setting           triclinic
_symmetry_space_group_name_H-M   'P -1'
_symmetry_Int_Tables_number      2
_space_group_name_Hall           '-P 1'
loop_
_symmetry_equiv_pos_site_id
_symmetry_equiv_pos_as_xyz
1 x,y,z
2 -x,-y,-z
_cell_length_a                   8.594(3)
_cell_length_b                   10.920(4)
_cell_length_c                   11.464(7)
_cell_angle_alpha                105.994(9)
_cell_angle_beta                 108.043(9)
_cell_angle_gamma                107.775(6)
_cell_volume                     889.027
loop_
_atom_site_label
_atom_site_type_symbol
_atom_site_fract_x
_atom_site_fract_y
_atom_site_fract_z
C1 C 0.6716(5) 0.7462(4) 0.5779(4)
C2 C 0.5532(5) 0.7321(4) 0.6389(4)
C3 C 0.5595(7) 0.6491(5) 0.7120(5)
C4 C 0.6793(9) 0.5869(6) 0.7270(5)
H1 H 0.6825 0.5351 0.7793
C5 C 0.7905(7) 0.6013(5) 0.6662(5)
H2 H 0.8689 0.5581 0.6744
C6 C 0.7869(6) 0.6809(5) 0.5916(5)
H3 H 0.8639 0.6910 0.5494
C7 C 0.6749(5) 0.8316(4) 0.4952(4)
C8 C 0.4117(5) 0.7908(4) 0.6136(4)
C9 C 0.7341(7) 1.0189(7) 0.1234(6)
H4 H 0.6400 1.0460 0.1158
C10 C 0.8137(8) 1.0304(8) 0.0369(6)
H5 H 0.7713 1.0631 -0.0276
C11 C 0.9543(5) 0.9942(4) 0.0452(4)
C12 C 1.0075(7) 0.9486(6) 0.1429(5)
H6 H 1.1042 0.9244 0.1548
C13 C 0.9206(7) 0.9378(6) 0.2247(5)
H7 H 0.9604 0.9049 0.2896
C14 C 0.3979(6) 0.6941(5) 0.0996(4)
H8 H 0.4952 0.7040 0.0776
C15 C 0.2371(7) 0.5805(5) 0.0150(5)
H9 H 0.2268 0.5160 -0.0627
C16 C 0.0875(5) 0.5605(4) 0.0441(4)
C17 C 0.1162(5) 0.6607(4) 0.1629(4)
H10 H 0.0228 0.6512 0.1893
C18 C 0.2819(5) 0.7740(4) 0.2420(4)
H11 H 0.2960 0.8412 0.3196
N1 N 0.4353(10) 0.6231(6) 0.7738(6)
N2 N 0.7838(4) 0.9717(3) 0.2159(3)
N3 N 0.4240(4) 0.7920(3) 0.2124(3)
Ni1 Ni 0.66804(6) 0.96166(5) 0.34994(4)
O1 O 0.7603(4) 0.8226(3) 0.4219(3)
O2 O 0.5965(3) 0.9093(3) 0.4979(2)
O3 O 0.4566(4) 0.9140(3) 0.6918(2)
O4 O 0.2659(4) 0.7092(3) 0.5152(4)
O5 O 0.3553(10) 0.6903(7) 0.7881(8)
O6 O 0.4259(15) 0.5353(9) 0.8178(10)
O7 O 0.8901(4) 1.1287(3) 0.5107(3)
H12 H 0.9836 1.1383 0.4964
H13 H 0.8748 1.2008 0.5211
C9A C 1.2659(7) 0.9811(7) -0.1234(6)
H4A H 1.3600 0.9540 -0.1158
C10A C 1.1863(8) 0.9696(8) -0.0369(6)
H5A H 1.2287 0.9369 0.0276
C11A C 1.0457(5) 1.0058(4) -0.0452(4)
C12A C 0.9925(7) 1.0514(6) -0.1429(5)
H6A H 0.8958 1.0756 -0.1548
C13A C 1.0794(7) 1.0622(6) -0.2247(5)
H7A H 1.0396 1.0951 -0.2896
N2A N 1.2162(4) 1.0283(3) -0.2159(3)
C14A C -0.3979(6) 0.3059(5) -0.0996(4)
H8A H -0.4952 0.2960 -0.0776
C15A C -0.2371(7) 0.4195(5) -0.0150(5)
H9A H -0.2268 0.4840 0.0627
C16A C -0.0875(5) 0.4395(4) -0.0441(4)
C17A C -0.1162(5) 0.3393(4) -0.1629(4)
H10A H -0.0228 0.3488 -0.1893
C18A C -0.2819(5) 0.2260(4) -0.2420(4)
H11A H -0.2960 0.1588 -0.3196
N3A N -0.4240(4) 0.2080(3) -0.2124(3)
C1A C -0.6716(5) 0.2538(4) -0.5779(4)
C2A C -0.5532(5) 0.2679(4) -0.6389(4)
C3A C -0.5595(7) 0.3509(5) -0.7120(5)
C4A C -0.6793(9) 0.4131(6) -0.7270(5)
H1A H -0.6825 0.4649 -0.7793
C5A C -0.7905(7) 0.3987(5) -0.6662(5)
H2A H -0.8689 0.4419 -0.6744
C6A C -0.7869(6) 0.3191(5) -0.5916(5)
H3A H -0.8639 0.3090 -0.5494
C7A C -0.6749(5) 0.1684(4) -0.4952(4)
C8A C -0.4117(5) 0.2092(4) -0.6136(4)
N1A N -0.4353(10) 0.3769(6) -0.7738(6)
Ni1A Ni -0.66804(6) 0.03834(5) -0.34994(4)
O1A O -0.7603(4) 0.1774(3) -0.4219(3)
O2A O -0.5965(3) 0.0907(3) -0.4979(2)
O3A O -0.4566(4) 0.0860(3) -0.6918(2)
O4A O -0.2659(4) 0.2908(3) -0.5152(4)
O5A O -0.3553(10) 0.3097(7) -0.7881(8)
O6A O -0.4259(15) 0.4647(9) -0.8178(10)
O7A O -0.8901(4) -0.1287(3) -0.5107(3)
H12A H -0.9836 -0.1383 -0.4964
H13A H -0.8748 -0.2008 -0.5211
N2A_2 N -0.7838(4) 0.0283(3) -0.2159(3)
Ni1_2 Ni -0.33196(6) -0.03834(5) -0.65006(4)
Ni1A_2 Ni 0.33196(6) 1.03834(5) 0.65006(4)
Ni1A_3 Ni 1.33196(6) 1.03834(5) -0.34994(4)
O3_2 O -0.5434(4) -0.0860(3) -0.3082(2)
O3A_2 O 0.5434(4) 1.0860(3) 0.3082(2)
loop_
_geom_bond_atom_site_label_1
_geom_bond_atom_site_label_2
_geom_bond_site_symmetry_1
_geom_bond_site_symmetry_2
C1 C2 1_555 1_555
C2 C3 1_555 1_555
C3 C4 1_555 1_555
C4 H1 1_555 1_555
C5 C4 1_555 1_555
H2 C5 1_555 1_555
C6 C1 1_555 1_555
H3 C6 1_555 1_555
C7 C1 1_555 1_555
C8 C2 1_555 1_555
C9 H4 1_555 1_555
C10 C9 1_555 1_555
H5 C10 1_555 1_555
C11 C10 1_555 1_555
C12 C11 1_555 1_555
H6 C12 1_555 1_555
C13 C12 1_555 1_555
H7 C13 1_555 1_555
C14 H8 1_555 1_555
C15 C14 1_555 1_555
H9 C15 1_555 1_555
C16 C15 1_555 1_555
C17 C16 1_555 1_555
H10 C17 1_555 1_555
C18 C17 1_555 1_555
H11 C18 1_555 1_555
N1 C3 1_555 1_555
N2 C9 1_555 1_555
N3 C14 1_555 1_555
Ni1 N2 1_555 1_555
O1 C7 1_555 1_555
O2 C7 1_555 1_555
O3 C8 1_555 1_555
O4 C8 1_555 1_555
O5 N1 1_555 1_555
O6 N1 1_555 1_555
O7 Ni1 1_555 1_555
H12 O7 1_555 1_555
H13 O7 1_555 1_555
C9A H4A 1_555 1_555
C10A C9A 1_555 1_555
H5A C10A 1_555 1_555
C11A C11 1_555 1_555
C12A C11A 1_555 1_555
H6A C12A 1_555 1_555
C13A C12A 1_555 1_555
H7A C13A 1_555 1_555
N2A C9A 1_555 1_555
C14A H8A 1_555 1_555
C15A C14A 1_555 1_555
H9A C15A 1_555 1_555
C16A C16 1_555 1_555
C17A C16A 1_555 1_555
H10A C17A 1_555 1_555
C18A C17A 1_555 1_555
H11A C18A 1_555 1_555
N3A C14A 1_555 1_555
C1A C2A 1_555 1_555
C2A C3A 1_555 1_555
C3A C4A 1_555 1_555
C4A H1A 1_555 1_555
C5A C4A 1_555 1_555
H2A C5A 1_555 1_555
C6A C1A 1_555 1_555
H3A C6A 1_555 1_555
C7A C1A 1_555 1_555
C8A C2A 1_555 1_555
N1A C3A 1_555 1_555
Ni1A N3A 1_555 1_555
O1A C7A 1_555 1_555
O2A C7A 1_555 1_555
O3A C8A 1_555 1_555
O4A C8A 1_555 1_555
O5A N1A 1_555 1_555
O6A N1A 1_555 1_555
O7A Ni1A 1_555 1_555
H12A O7A 1_555 1_555
H13A O7A 1_555 1_555
N2A_2 Ni1A 1_555 1_555
Ni1_2 O3A 1_555 1_555
Ni1A_2 O3 1_555 1_555
Ni1A_3 N2A 1_555 1_555
O3_2 Ni1A 1_555 1_555
O3A_2 Ni1 1_555 1_555
C5 C6 1_555 1_555
C13 N2 1_555 1_555
C18 N3 1_555 1_555
N3 Ni1 1_555 1_555
Ni1 O1 1_555 1_555
Ni1 O2 1_555 1_555
C10A C11A 1_555 1_555
C13A N2A 1_555 1_555
C15A C16A 1_555 1_555
C18A N3A 1_555 1_555
C5A C6A 1_555 1_555
Ni1A O1A 1_555 1_555
Ni1A O2A 1_555 1_555

#END
