
#######################################################################
#
#                 Cambridge Crystallographic Data Centre
#                                CCDC 
#
#######################################################################
#
# If this CIF has been generated from an entry in the Cambridge 
# Structural Database, then it will include bibliographic, chemical, 
# crystal, experimental, refinement or atomic coordinate data resulting 
# from the CCDC's data processing and validation procedures.
#
#######################################################################

data_SOJTEQ02
_symmetry_cell_setting           monoclinic
_symmetry_space_group_name_H-M   'C 2/c'
_symmetry_Int_Tables_number      15
_space_group_name_Hall           '-C 2yn'
loop_
_symmetry_equiv_pos_site_id
_symmetry_equiv_pos_as_xyz
1 x,y,z
2 -x,y,1/2-z
3 1/2+x,1/2+y,z
4 1/2-x,1/2+y,1/2-z
5 -x,-y,-z
6 x,-y,1/2+z
7 1/2-x,1/2-y,-z
8 1/2+x,1/2-y,1/2+z
_cell_length_a                   9.90170(10)
_cell_length_b                   11.9793(2)
_cell_length_c                   7.39520(10)
_cell_angle_alpha                90
_cell_angle_beta                 105.1830(10)
_cell_angle_gamma                90
_cell_volume                     846.566
loop_
_atom_site_label
_atom_site_type_symbol
_atom_site_fract_x
_atom_site_fract_y
_atom_site_fract_z
Co1 Co 0.5000 0.33861(2) 0.2500
O1 O 0.24796(12) 0.31945(9) 0.20055(18)
O2 O 0.36231(10) 0.47663(9) 0.25863(17)
O3 O 0.46301(13) 0.32985(10) -0.03969(17)
H1 H 0.405(2) 0.285(2) -0.088(3)
H2 H 0.443(2) 0.3841(19) -0.091(3)
N1 N 0.0000 0.65576(13) 0.2500
C1 C 0.11238(13) 0.59751(12) 0.23370(19)
H3 H 0.1899 0.6366 0.2189
C2 C 0.11804(13) 0.48151(11) 0.23791(19)
C3 C 0.0000 0.42261(16) 0.2500
H4 H 0.0000 0.3450 0.2500
C4 C 0.25039(13) 0.42219(12) 0.23130(19)
Co1B Co 0.0000 0.83861(2) 0.2500
Co1_2 Co -0.5000 0.33861(2) 0.2500
O1A O -0.24796(12) 0.31945(9) 0.29945(18)
O2A O -0.36231(10) 0.47663(9) 0.24137(17)
O2A_2 O 0.63769(10) 0.47663(9) 0.24137(17)
O3A O 0.53699(13) 0.32985(10) 0.53969(17)
H1A H 0.595(2) 0.285(2) 0.588(3)
H2A H 0.557(2) 0.3841(19) 0.591(3)
N1B N 0.5000 0.15576(13) 0.2500
C1A C -0.11238(13) 0.59751(12) 0.26630(19)
H3A H -0.1899 0.6366 0.2811
C2A C -0.11804(13) 0.48151(11) 0.26209(19)
C4A C -0.25039(13) 0.42219(12) 0.26870(19)
loop_
_geom_bond_atom_site_label_1
_geom_bond_atom_site_label_2
_geom_bond_site_symmetry_1
_geom_bond_site_symmetry_2
Co1 O2 1_555 1_555
O1 C4 1_555 1_555
O2 C4 1_555 1_555
O3 Co1 1_555 1_555
H1 O3 1_555 1_555
H2 O3 1_555 1_555
N1 C1 1_555 1_555
C1 H3 1_555 1_555
C2 C1 1_555 1_555
C3 C2 1_555 1_555
H4 C3 1_555 1_555
C4 C2 1_555 1_555
Co1B N1 1_555 1_555
Co1_2 O2A 1_555 1_555
O1A C4A 1_555 1_555
O2A C4A 1_555 1_555
O2A_2 Co1 1_555 1_555
O3A Co1 1_555 1_555
H1A O3A 1_555 1_555
H2A O3A 1_555 1_555
N1B Co1 1_555 1_555
C1A N1 1_555 1_555
H3A C1A 1_555 1_555
C2A C3 1_555 1_555
C4A C2A 1_555 1_555
C1A C2A 1_555 1_555

#END
