
#######################################################################
#
#                 Cambridge Crystallographic Data Centre
#                                CCDC 
#
#######################################################################
#
# If this CIF has been generated from an entry in the Cambridge 
# Structural Database, then it will include bibliographic, chemical, 
# crystal, experimental, refinement or atomic coordinate data resulting 
# from the CCDC's data processing and validation procedures.
#
#######################################################################

data_SOJWAP
_symmetry_cell_setting           monoclinic
_symmetry_space_group_name_H-M   'P 21/m'
_symmetry_Int_Tables_number      11
_space_group_name_Hall           '-P 2yb'
loop_
_symmetry_equiv_pos_site_id
_symmetry_equiv_pos_as_xyz
1 x,y,z
2 -x,1/2+y,-z
3 -x,-y,-z
4 x,1/2-y,z
_cell_length_a                   7.171(1)
_cell_length_b                   16.063(2)
_cell_length_c                   8.399(1)
_cell_angle_alpha                90
_cell_angle_beta                 114.20(1)
_cell_angle_gamma                90
_cell_volume                     882.442
loop_
_atom_site_label
_atom_site_type_symbol
_atom_site_fract_x
_atom_site_fract_y
_atom_site_fract_z
Ce1 Ce 0.15381(2) 0.25000 0.46607(2)
K1 K 0.5227(1) 0.25000 0.20596(9)
O1 O -0.1132(3) 0.25000 0.1303(3)
O2 O 0.2973(2) 0.12172(9) 0.6537(2)
O3 O -0.1406(2) 0.35235(9) 0.3951(2)
O4 O 0.0537(3) 0.25000 0.7191(2)
O5 O 0.5429(3) 0.25000 0.5811(3)
O6 O 0.3090(3) 0.1264(1) -0.0187(2)
O7 O 0.2660(2) 0.14729(9) 0.3053(2)
O8 O 0.2246(3) -0.0188(1) 0.4358(2)
O9 O 0.1862(3) -0.1393(1) 0.1597(2)
C1 C 0.2810(3) 0.0694(1) 0.0678(2)
C2 C 0.2627(3) 0.0786(1) 0.2332(2)
C3 C 0.2372(3) -0.0030(1) 0.2956(2)
C4 C 0.2219(3) -0.0637(1) 0.1597(3)
C5 C 0.2518(3) -0.0191(1) 0.0192(2)
H1 H -0.125 0.215 0.055
H2 H 0.332 0.115 0.777
H3 H 0.291 0.082 0.582
H4 H -0.168 0.385 0.305
H5 H -0.168 0.385 0.471
H6 H 0.041 0.199 0.777
H7 H 0.625 0.199 0.609
O10 O 0.2523 -0.0505 -0.1161
H1C H -0.125 0.285 0.055
H6C H 0.041 0.301 0.777
H7C H 0.625 0.301 0.609
O2C O 0.2973(2) 0.37828(9) 0.6537(2)
H2C H 0.332 0.385 0.777
H3C H 0.291 0.418 0.582
O3C O -0.1406(2) 0.14765(9) 0.3951(2)
H4C H -0.168 0.115 0.305
H5C H -0.168 0.115 0.471
O6C O 0.3090(3) 0.3736(1) -0.0187(2)
O7C O 0.2660(2) 0.35271(9) 0.3053(2)
O8C O 0.2246(3) 0.5188(1) 0.4358(2)
O9C O 0.1862(3) 0.6393(1) 0.1597(2)
C1C C 0.2810(3) 0.4306(1) 0.0678(2)
C2C C 0.2627(3) 0.4214(1) 0.2332(2)
C3C C 0.2372(3) 0.5030(1) 0.2956(2)
C4C C 0.2219(3) 0.5637(1) 0.1597(3)
C5C C 0.2518(3) 0.5191(1) 0.0192(2)
O10C O 0.2523 0.5505 -0.1161
K1_2 K -0.4773(1) 0.25000 0.20596(9)
O1_2 O 0.8868(3) 0.25000 0.1303(3)
O3_2 O 0.8594(2) 0.35235(9) 0.3951(2)
O3C_2 O 0.8594(2) 0.14765(9) 0.3951(2)
H4C_2 H 0.832 0.115 0.305
H5C_2 H 0.832 0.115 0.471
H4_2 H 0.832 0.385 0.305
H5_2 H 0.832 0.385 0.471
H1_2 H 0.875 0.215 0.055
H1C_2 H 0.875 0.285 0.055
loop_
_geom_bond_atom_site_label_1
_geom_bond_atom_site_label_2
_geom_bond_site_symmetry_1
_geom_bond_site_symmetry_2
Ce1 O1 1_555 1_555
K1 O5 1_555 1_555
O1 H1 1_555 1_555
O2 Ce1 1_555 1_555
O3 Ce1 1_555 1_555
O4 Ce1 1_555 1_555
O5 Ce1 1_555 1_555
O6 K1 1_555 1_555
O7 Ce1 1_555 1_555
O8 C3 1_555 1_555
O9 C4 1_555 1_555
C1 O6 1_555 1_555
C2 O7 1_555 1_555
C3 C2 1_555 1_555
C4 C3 1_555 1_555
C5 C1 1_555 1_555
H2 O2 1_555 1_555
H3 O2 1_555 1_555
H4 O3 1_555 1_555
H5 O3 1_555 1_555
H6 O4 1_555 1_555
H7 O5 1_555 1_555
O10 C5 1_555 1_555
H1C O1 1_555 1_555
H6C O4 1_555 1_555
H7C O5 1_555 1_555
O2C Ce1 1_555 1_555
H2C O2C 1_555 1_555
H3C O2C 1_555 1_555
O3C Ce1 1_555 1_555
H4C O3C 1_555 1_555
H5C O3C 1_555 1_555
O6C K1 1_555 1_555
O7C Ce1 1_555 1_555
O8C C3C 1_555 1_555
O9C C4C 1_555 1_555
C1C O6C 1_555 1_555
C2C O7C 1_555 1_555
C3C C2C 1_555 1_555
C4C C3C 1_555 1_555
C5C C1C 1_555 1_555
O10C C5C 1_555 1_555
K1_2 O1 1_555 1_555
O1_2 K1 1_555 1_555
O3_2 K1 1_555 1_555
O3C_2 K1 1_555 1_555
H4C_2 O3C_2 1_555 1_555
H5C_2 O3C_2 1_555 1_555
H4_2 O3_2 1_555 1_555
H5_2 O3_2 1_555 1_555
H1_2 O1_2 1_555 1_555
H1C_2 O1_2 1_555 1_555
K1 O7 1_555 1_555
K1 O7C 1_555 1_555
O3 K1_2 1_555 1_555
C1 C2 1_555 1_555
C4 C5 1_555 1_555
O3C K1_2 1_555 1_555
C1C C2C 1_555 1_555
C4C C5C 1_555 1_555

#END
