
#######################################################################
#
#                 Cambridge Crystallographic Data Centre
#                                CCDC 
#
#######################################################################
#
# If this CIF has been generated from an entry in the Cambridge 
# Structural Database, then it will include bibliographic, chemical, 
# crystal, experimental, refinement or atomic coordinate data resulting 
# from the CCDC's data processing and validation procedures.
#
#######################################################################

data_SOKBAX
_symmetry_cell_setting           orthorhombic
_symmetry_space_group_name_H-M   'P n a 21'
_symmetry_Int_Tables_number      33
_space_group_name_Hall           'P 2c -2n'
loop_
_symmetry_equiv_pos_site_id
_symmetry_equiv_pos_as_xyz
1 x,y,z
2 -x,-y,1/2+z
3 1/2+x,1/2-y,z
4 1/2-x,1/2+y,1/2+z
_cell_length_a                   15.1122(2)
_cell_length_b                   16.7251(2)
_cell_length_c                   13.2575(2)
_cell_angle_alpha                90
_cell_angle_beta                 90
_cell_angle_gamma                90
_cell_volume                     3350.87
loop_
_atom_site_label
_atom_site_type_symbol
_atom_site_fract_x
_atom_site_fract_y
_atom_site_fract_z
Ce1 Ce 0.51138(2) 0.17553(2) 0.37391(5)
N1 N 0.2445(4) 0.0471(3) 0.0550(4)
N2 N -0.1901(4) -0.0032(3) 0.0453(4)
N3 N -0.0270(4) 0.3104(3) -0.1535(4)
N4 N 0.6054(4) 0.1963(3) 0.5727(4)
N5 N 0.4288(5) 0.3375(4) 0.3411(5)
N6 N 0.6478(5) 0.1925(3) 0.2067(5)
O1 O 0.4431(4) 0.0990(3) 0.2495(5)
O2 O -0.3636(3) -0.1703(3) -0.0601(4)
O3 O -0.0390(3) 0.5434(3) -0.0615(3)
O4 O 0.6485(3) 0.1966(3) 0.4905(4)
O5 O 0.5233(3) 0.1942(3) 0.5684(4)
O6 O 0.6453(4) 0.1963(3) 0.6548(4)
O7 O 0.4801(4) 0.3235(3) 0.4169(4)
O8 O 0.4239(4) 0.2849(3) 0.2744(4)
O9 O 0.3882(5) 0.3999(3) 0.3350(4)
O10 O 0.6156(4) 0.2523(3) 0.2506(4)
O11 O 0.6387(4) 0.1269(3) 0.2537(4)
O12 O 0.6887(5) 0.1964(3) 0.1293(5)
C1 C 0.0698(6) 0.0189(5) 0.2137(5)
H1 H 0.0813 -0.0242 0.2622
H2 H 0.0199 0.0512 0.2372
H3 H 0.1225 0.0527 0.2077
C2 C 0.0477(5) -0.0173(4) 0.1108(5)
H4 H 0.0976 -0.0513 0.0886
H5 H -0.0051 -0.0519 0.1177
C3 C 0.1744(5) 0.1251(4) -0.2628(5)
H6 H 0.2242 0.1493 -0.2990
H7 H 0.1206 0.1298 -0.3036
H8 H 0.1870 0.0685 -0.2502
C4 C 0.1611(5) 0.1682(4) -0.1625(5)
H9 H 0.2162 0.1641 -0.1223
H10 H 0.1499 0.2255 -0.1757
C5 C -0.2193(5) 0.1257(4) -0.1462(5)
H11 H -0.2780 0.1502 -0.1518
H12 H -0.2255 0.0698 -0.1254
H13 H -0.1895 0.1282 -0.2118
C6 C -0.1642(4) 0.1713(4) -0.0673(5)
H14 H -0.1597 0.2280 -0.0882
H15 H -0.1959 0.1698 -0.0019
C7 C 0.0299(5) 0.0451(4) 0.0313(5)
C8 C 0.0990(4) 0.0715(3) -0.0324(5)
C9 C 0.0847(4) 0.1345(3) -0.1011(4)
C10 C -0.0013(3) 0.1651(3) -0.1129(8)
C11 C -0.0716(4) 0.1384(3) -0.0522(4)
C12 C -0.0544(4) 0.0799(3) 0.0221(5)
C13 C 0.1873(4) 0.0282(4) -0.0321(5)
H16 H 0.1762 -0.0301 -0.0331
H17 H 0.2196 0.0420 -0.0948
C14 C 0.2964(5) -0.0124(4) 0.0938(5)
H18 H 0.2873 -0.0660 0.0721
C15 C 0.3594(5) 0.0031(4) 0.1615(6)
H19 H 0.3933 -0.0397 0.1885
C16 C 0.3769(5) 0.0828(4) 0.1943(6)
C17 C 0.3180(5) 0.1418(4) 0.1583(5)
H20 H 0.3226 0.1952 0.1820
C18 C 0.2550(5) 0.1224(4) 0.0899(5)
H21 H 0.2168 0.1631 0.0656
C19 C -0.1275(5) 0.0540(4) 0.0921(5)
H22 H -0.1009 0.0289 0.1526
H23 H -0.1606 0.1019 0.1146
C20 C -0.1624(5) -0.0622(4) -0.0180(5)
H24 H -0.1018 -0.0642 -0.0370
C21 C -0.2186(4) -0.1183(4) -0.0548(5)
H25 H -0.1968 -0.1586 -0.0987
C22 C -0.3099(4) -0.1173(4) -0.0284(5)
C23 C -0.3368(5) -0.0553(4) 0.0374(5)
H26 H -0.3969 -0.0518 0.0577
C24 C -0.2774(5) -0.0005(4) 0.0718(5)
H27 H -0.2973 0.0408 0.1156
C25 C -0.0188(4) 0.2269(3) -0.1942(5)
H28 H 0.0301 0.2254 -0.2439
H29 H -0.0741 0.2128 -0.2299
C26 C 0.0065(5) 0.3326(4) -0.0629(6)
H30 H 0.0339 0.2934 -0.0216
C27 C 0.0021(5) 0.4092(4) -0.0294(5)
H31 H 0.0251 0.4225 0.0352
C28 C -0.0371(5) 0.4701(4) -0.0909(5)
C29 C -0.0730(5) 0.4439(4) -0.1836(5)
H32 H -0.1017 0.4814 -0.2263
C30 C -0.0673(5) 0.3658(4) -0.2131(5)
H33 H -0.0918 0.3500 -0.2760
Ce1A Ce -0.51138(2) -0.17553(2) -0.12609(5)
Ce1C Ce -0.01138(2) 0.67553(2) -0.12609(5)
O2A O 0.3636(3) 0.1703(3) 0.4399(4)
O3C O 0.5390(3) 0.0434(3) 0.4385(3)
O13 O 0.8377(4) 0.2156(5) 0.6181(5)
H34 H 0.779(3) 0.204(7) 0.614(7)
H35 H 0.863(6) 0.227(9) 0.556(4)
loop_
_geom_bond_atom_site_label_1
_geom_bond_atom_site_label_2
_geom_bond_site_symmetry_1
_geom_bond_site_symmetry_2
Ce1 O1 1_555 1_555
N1 C13 1_555 1_555
N2 C19 1_555 1_555
N3 C25 1_555 1_555
N4 O4 1_555 1_555
N5 O7 1_555 1_555
N6 O10 1_555 1_555
O1 C16 1_555 1_555
O2 C22 1_555 1_555
O3 C28 1_555 1_555
O4 Ce1 1_555 1_555
O5 Ce1 1_555 1_555
O6 N4 1_555 1_555
O7 Ce1 1_555 1_555
O8 Ce1 1_555 1_555
O9 N5 1_555 1_555
O10 Ce1 1_555 1_555
O11 Ce1 1_555 1_555
O12 N6 1_555 1_555
C1 H1 1_555 1_555
H2 C1 1_555 1_555
H3 C1 1_555 1_555
C2 C1 1_555 1_555
H4 C2 1_555 1_555
H5 C2 1_555 1_555
C3 H6 1_555 1_555
H7 C3 1_555 1_555
H8 C3 1_555 1_555
C4 C3 1_555 1_555
H9 C4 1_555 1_555
H10 C4 1_555 1_555
C5 H11 1_555 1_555
H12 C5 1_555 1_555
H13 C5 1_555 1_555
C6 C5 1_555 1_555
H14 C6 1_555 1_555
H15 C6 1_555 1_555
C7 C2 1_555 1_555
C8 C7 1_555 1_555
C9 C4 1_555 1_555
C10 C9 1_555 1_555
C11 C6 1_555 1_555
C12 C7 1_555 1_555
C13 C8 1_555 1_555
H16 C13 1_555 1_555
H17 C13 1_555 1_555
C14 N1 1_555 1_555
H18 C14 1_555 1_555
C15 C14 1_555 1_555
H19 C15 1_555 1_555
C16 C15 1_555 1_555
C17 C16 1_555 1_555
H20 C17 1_555 1_555
C18 N1 1_555 1_555
H21 C18 1_555 1_555
C19 C12 1_555 1_555
H22 C19 1_555 1_555
H23 C19 1_555 1_555
C20 N2 1_555 1_555
H24 C20 1_555 1_555
C21 C20 1_555 1_555
H25 C21 1_555 1_555
C22 C21 1_555 1_555
C23 C22 1_555 1_555
H26 C23 1_555 1_555
C24 N2 1_555 1_555
H27 C24 1_555 1_555
C25 C10 1_555 1_555
H28 C25 1_555 1_555
H29 C25 1_555 1_555
C26 N3 1_555 1_555
H30 C26 1_555 1_555
C27 C26 1_555 1_555
H31 C27 1_555 1_555
C28 C27 1_555 1_555
C29 C28 1_555 1_555
H32 C29 1_555 1_555
C30 N3 1_555 1_555
H33 C30 1_555 1_555
O13 H34 1_555 1_555
H35 O13 1_555 1_555
Ce1A O2 1_555 1_555
Ce1C O3 1_555 1_555
O2A Ce1 1_555 1_555
O3C Ce1 1_555 1_555
N4 O5 1_555 1_555
N5 O8 1_555 1_555
N6 O11 1_555 1_555
C8 C9 1_555 1_555
C10 C11 1_555 1_555
C11 C12 1_555 1_555
C17 C18 1_555 1_555
C23 C24 1_555 1_555
C29 C30 1_555 1_555

#END
