
#######################################################################
#
#                 Cambridge Crystallographic Data Centre
#                                CCDC 
#
#######################################################################
#
# If this CIF has been generated from an entry in the Cambridge 
# Structural Database, then it will include bibliographic, chemical, 
# crystal, experimental, refinement or atomic coordinate data resulting 
# from the CCDC's data processing and validation procedures.
#
#######################################################################

data_SOKDAZ
_symmetry_cell_setting           triclinic
_symmetry_space_group_name_H-M   'P -1'
_symmetry_Int_Tables_number      2
_space_group_name_Hall           '-P 1'
loop_
_symmetry_equiv_pos_site_id
_symmetry_equiv_pos_as_xyz
1 x,y,z
2 -x,-y,-z
_cell_length_a                   5.7401(6)
_cell_length_b                   5.7729(6)
_cell_length_c                   13.5096(14)
_cell_angle_alpha                84.588(3)
_cell_angle_beta                 87.188(3)
_cell_angle_gamma                67.755(4)
_cell_volume                     412.459
loop_
_atom_site_label
_atom_site_type_symbol
_atom_site_fract_x
_atom_site_fract_y
_atom_site_fract_z
Cu1 Cu 0.82762(6) 1.36778(6) 0.52545(2)
Cu2 Cu 0.5000 1.0000 0.5000
S1 S 1.29660(12) 0.49020(13) 0.84776(5)
N1 N 0.7881(4) 1.1475(4) 0.63960(16)
N2 N 0.6613(4) 0.9896(4) 0.62934(16)
N3 N 0.7809(4) 0.9421(4) 0.78298(16)
O1 O 0.6135(4) 1.2622(4) 0.45091(14)
H1 H 0.6676 1.2647 0.4050
O2 O 0.8743(4) 1.6042(4) 0.42490(14)
H2 H 0.8475 1.5866 0.3737
O3 O 1.2050(4) 0.2886(4) 0.87251(15)
O4 O 1.5512(4) 0.4353(4) 0.87948(15)
O5 O 1.2647(4) 0.5766(4) 0.74112(14)
C1 C 0.8598(5) 1.1132(5) 0.7331(2)
H3 H 0.9527 1.1963 0.7609
C2 C 0.6614(5) 0.8682(5) 0.71645(19)
H4 H 0.5880 0.7462 0.7306
C3 C 0.8238(5) 0.8452(5) 0.88816(19)
H5 H 0.7620 0.7066 0.9019
H6 H 0.7273 0.9804 0.9311
C4 C 1.1034(5) 0.7495(5) 0.91315(19)
H7 H 1.1225 0.7003 0.9854
H8 H 1.1638 0.8887 0.8982
Cu1A Cu 0.17238(6) 0.63222(6) 0.47455(2)
S1A S -0.29660(12) 1.50980(13) 0.15224(5)
N1A N 0.2119(4) 0.8525(4) 0.36040(16)
N2A N 0.3387(4) 1.0104(4) 0.37066(16)
N3A N 0.2191(4) 1.0579(4) 0.21702(16)
O1A O 0.3865(4) 0.7378(4) 0.54909(14)
H1A H 0.3324 0.7353 0.5950
O2A O 0.1257(4) 0.3958(4) 0.57510(14)
H2A H 0.1525 0.4134 0.6263
O3A O -0.2050(4) 1.7114(4) 0.12749(15)
O4A O -0.5512(4) 1.5647(4) 0.12052(15)
O5A O -0.2647(4) 1.4234(4) 0.25888(14)
C1A C 0.1402(5) 0.8868(5) 0.2669(2)
H3A H 0.0473 0.8037 0.2391
C2A C 0.3386(5) 1.1318(5) 0.28355(19)
H4A H 0.4120 1.2538 0.2694
C3A C 0.1762(5) 1.1548(5) 0.11184(19)
H5A H 0.2380 1.2934 0.0981
H6A H 0.2727 1.0196 0.0689
C4A C -0.1034(5) 1.2505(5) 0.08685(19)
H7A H -0.1225 1.2997 0.0146
H8A H -0.1638 1.1113 0.1018
Cu1_2 Cu -0.17238(6) 0.36778(6) 0.52545(2)
Cu1_3 Cu 0.82762(6) 0.36778(6) 0.52545(2)
Cu1A_2 Cu 0.17238(6) 1.63222(6) 0.47455(2)
Cu1A_3 Cu 1.17238(6) 1.63222(6) 0.47455(2)
Cu2_2 Cu 0.5000 0.0000 0.5000
Cu2_3 Cu 0.5000 2.0000 0.5000
O1_2 O 0.6135(4) 0.2622(4) 0.45091(14)
O1A_2 O 0.3865(4) 1.7378(4) 0.54909(14)
O2_2 O -0.1257(4) 0.6042(4) 0.42490(14)
O2_3 O 0.8743(4) 0.6042(4) 0.42490(14)
O2A_2 O 0.1257(4) 1.3958(4) 0.57510(14)
O2A_3 O 1.1257(4) 1.3958(4) 0.57510(14)
loop_
_geom_bond_atom_site_label_1
_geom_bond_atom_site_label_2
_geom_bond_site_symmetry_1
_geom_bond_site_symmetry_2
Cu1 N1 1_555 1_555
Cu2 N2 1_555 1_555
S1 O3 1_555 1_555
N1 N2 1_555 1_555
N2 C2 1_555 1_555
N3 C1 1_555 1_555
O1 Cu1 1_555 1_555
H1 O1 1_555 1_555
O2 Cu1 1_555 1_555
H2 O2 1_555 1_555
O4 S1 1_555 1_555
O5 S1 1_555 1_555
C1 N1 1_555 1_555
H3 C1 1_555 1_555
C2 N3 1_555 1_555
H4 C2 1_555 1_555
C3 N3 1_555 1_555
H5 C3 1_555 1_555
H6 C3 1_555 1_555
C4 S1 1_555 1_555
H7 C4 1_555 1_555
H8 C4 1_555 1_555
Cu1A N1A 1_555 1_555
S1A O3A 1_555 1_555
N1A N2A 1_555 1_555
N2A Cu2 1_555 1_555
N3A C1A 1_555 1_555
O1A Cu2 1_555 1_555
H1A O1A 1_555 1_555
O2A Cu1A 1_555 1_555
H2A O2A 1_555 1_555
O4A S1A 1_555 1_555
O5A S1A 1_555 1_555
C1A N1A 1_555 1_555
H3A C1A 1_555 1_555
C2A N2A 1_555 1_555
H4A C2A 1_555 1_555
C3A N3A 1_555 1_555
H5A C3A 1_555 1_555
H6A C3A 1_555 1_555
C4A S1A 1_555 1_555
H7A C4A 1_555 1_555
H8A C4A 1_555 1_555
Cu1_2 O2A 1_555 1_555
Cu1_3 O1A 1_555 1_555
Cu1A_2 O1 1_555 1_555
Cu1A_3 O2 1_555 1_555
Cu2_2 O2A 1_555 1_555
Cu2_3 O2 1_555 1_555
O1_2 Cu1A 1_555 1_555
O1A_2 Cu1 1_555 1_555
O2_2 Cu1A 1_555 1_555
O2_3 Cu2 1_555 1_555
O2A_2 Cu2 1_555 1_555
O2A_3 Cu1 1_555 1_555
Cu2 O1 1_555 1_555
C3 C4 1_555 1_555
Cu1A O1A 1_555 1_555
N3A C2A 1_555 1_555
C3A C4A 1_555 1_555
Cu1_2 O2_2 1_555 1_555
Cu1_3 O1_2 1_555 1_555
Cu1_3 O2_3 1_555 1_555
Cu1A_2 O1A_2 1_555 1_555
Cu1A_2 O2A_2 1_555 1_555
Cu1A_3 O2A_3 1_555 1_555
Cu2_2 O1_2 1_555 1_555
Cu2_3 O1A_2 1_555 1_555

#END
