
#######################################################################
#
#                 Cambridge Crystallographic Data Centre
#                                CCDC 
#
#######################################################################
#
# If this CIF has been generated from an entry in the Cambridge 
# Structural Database, then it will include bibliographic, chemical, 
# crystal, experimental, refinement or atomic coordinate data resulting 
# from the CCDC's data processing and validation procedures.
#
#######################################################################

data_SOKGOO01
_symmetry_cell_setting           monoclinic
_symmetry_space_group_name_H-M   'P 21/c'
_symmetry_Int_Tables_number      14
_space_group_name_Hall           '-P 2ybc'
loop_
_symmetry_equiv_pos_site_id
_symmetry_equiv_pos_as_xyz
1 x,y,z
2 -x,1/2+y,1/2-z
3 -x,-y,-z
4 x,1/2-y,1/2+z
_cell_length_a                   8.399(2)
_cell_length_b                   7.923(4)
_cell_length_c                   14.988(2)
_cell_angle_alpha                90
_cell_angle_beta                 93.90(2)
_cell_angle_gamma                90
_cell_volume                     995.071
loop_
_atom_site_label
_atom_site_type_symbol
_atom_site_fract_x
_atom_site_fract_y
_atom_site_fract_z
Nd1 Nd 0.54851(4) -1.37687(4) 0.21506(2)
O1 O 0.6559(6) -1.6615(6) 0.2836(3)
O2 O 0.8206(7) -1.4474(7) 0.2799(4)
C1 C 0.7980(9) -1.6016(9) 0.2929(5)
C2 C 0.936(1) -1.715(1) 0.3183(8)
O3 O 0.3525(6) -1.6227(7) 0.1933(3)
O4 O 0.3450(7) -1.4419(7) 0.0833(3)
C3 C 0.288(1) -1.5672(9) 0.1200(5)
C4 C 0.138(1) -1.647(1) 0.0806(6)
O5 O 0.6378(8) -1.1728(6) 0.1117(4)
O6 O 0.5787(7) -0.9085(6) 0.1434(4)
C5 C 0.6458(9) -1.0166(9) 0.0991(5)
C6 C 0.745(1) -0.958(1) 0.0244(7)
O7 O 0.6694(7) -1.5690(7) 0.1031(4)
H1 H 0.9022 -1.8268 0.3002
H2 H 0.9479 -1.7134 0.3823
H3 H 1.0563 -1.7039 0.2969
H4 H 0.1493 -1.6592 0.0191
H5 H 0.0541 -1.5664 0.0895
H6 H 0.0923 -1.7492 0.0980
H7 H 0.8113 -0.8696 0.0461
H8 H 0.6700 -0.9132 -0.0220
H9 H 0.7963 -1.0200 0.0000
H10 H 0.6317 -1.5600 0.0524
H11 H 0.7338 -1.5598 0.1121
Nd1A Nd 0.45149(4) -0.87687(4) 0.28494(2)
O1A O 0.3441(6) -1.1615(6) 0.2164(3)
O3A O 0.6475(6) -1.1227(7) 0.3067(3)
Nd1A_2 Nd 0.45149(4) -1.87687(4) 0.28494(2)
O6A O 0.4213(7) -1.4085(6) 0.3566(4)
loop_
_geom_bond_atom_site_label_1
_geom_bond_atom_site_label_2
_geom_bond_site_symmetry_1
_geom_bond_site_symmetry_2
Nd1 O1 1_555 1_555
O1 C1 1_555 1_555
O2 Nd1 1_555 1_555
C1 O2 1_555 1_555
C2 C1 1_555 1_555
O3 Nd1 1_555 1_555
O4 Nd1 1_555 1_555
C3 O3 1_555 1_555
C4 C3 1_555 1_555
O5 Nd1 1_555 1_555
O6 C5 1_555 1_555
C5 O5 1_555 1_555
C6 C5 1_555 1_555
O7 Nd1 1_555 1_555
H1 C2 1_555 1_555
H2 C2 1_555 1_555
H3 C2 1_555 1_555
H4 C4 1_555 1_555
H5 C4 1_555 1_555
H6 C4 1_555 1_555
H7 C6 1_555 1_555
H8 C6 1_555 1_555
H9 C6 1_555 1_555
H10 O7 1_555 1_555
H11 O7 1_555 1_555
Nd1A O6 1_555 1_555
O1A Nd1 1_555 1_555
O3A Nd1 1_555 1_555
Nd1A_2 O1 1_555 1_555
O6A Nd1 1_555 1_555
O3 Nd1A_2 1_555 1_555
O4 C3 1_555 1_555
Nd1A O1A 1_555 1_555
Nd1A O3A 1_555 1_555

#END
