
#######################################################################
#
#                 Cambridge Crystallographic Data Centre
#                                CCDC 
#
#######################################################################
#
# If this CIF has been generated from an entry in the Cambridge 
# Structural Database, then it will include bibliographic, chemical, 
# crystal, experimental, refinement or atomic coordinate data resulting 
# from the CCDC's data processing and validation procedures.
#
#######################################################################

data_SOKKIO
_symmetry_cell_setting           monoclinic
_symmetry_space_group_name_H-M   'C 2/c'
_symmetry_Int_Tables_number      15
_space_group_name_Hall           '-C 2yn'
loop_
_symmetry_equiv_pos_site_id
_symmetry_equiv_pos_as_xyz
1 x,y,z
2 -x,y,1/2-z
3 1/2+x,1/2+y,z
4 1/2-x,1/2+y,1/2-z
5 -x,-y,-z
6 x,-y,1/2+z
7 1/2-x,1/2-y,-z
8 1/2+x,1/2-y,1/2+z
_cell_length_a                   20.658(3)
_cell_length_b                   10.2720(7)
_cell_length_c                   20.690(3)
_cell_angle_alpha                90
_cell_angle_beta                 122.443(15)
_cell_angle_gamma                90
_cell_volume                     3705.17
loop_
_atom_site_label
_atom_site_type_symbol
_atom_site_fract_x
_atom_site_fract_y
_atom_site_fract_z
Mn1 Mn 0.45873(3) 0.34989(4) 0.07924(3)
O1 O 0.50202(15) 0.1821(2) 0.15163(14)
O2 O 0.44505(16) 0.0688(2) 0.04356(15)
O3 O 0.45626(14) -0.4236(2) 0.06435(13)
O4 O 0.53128(14) -0.5114(2) 0.17721(14)
O5 O 0.7098(2) -0.2246(3) 0.39371(19)
O6 O 0.66740(17) -0.0364(3) 0.39486(16)
O7 O 0.55094(15) 0.3218(3) 0.05911(15)
H1 H 0.5807(19) 0.257(3) 0.073(2)
H2 H 0.542(2) 0.353(4) 0.0174(15)
N1 N 0.32845(16) 0.3624(3) 0.18688(16)
N2 N 0.28311(18) 0.4519(3) 0.13338(18)
N3 N 0.36956(17) 0.3727(3) 0.10980(16)
N4 N 0.20100(16) 0.2179(3) 0.16254(15)
N5 N 0.22211(18) 0.0921(3) 0.16455(17)
N6 N 0.12708(16) 0.1493(3) 0.04565(16)
N7 N 0.66455(19) -0.1362(3) 0.36266(18)
C1 C 0.3220(2) 0.3284(4) 0.25179(19)
H3 H 0.3430 0.3986 0.2890
H4 H 0.3521 0.2508 0.2763
C2 C 0.2405(2) 0.3045(4) 0.2279(2)
H5 H 0.2397 0.2669 0.2705
H6 H 0.2134 0.3870 0.2152
C3 C 0.3101(2) 0.4547(4) 0.0886(2)
H7 H 0.2901 0.5086 0.0459
C4 C 0.3794(2) 0.3186(3) 0.1725(2)
H8 H 0.4172 0.2577 0.2023
C5 C 0.1755(2) 0.0558(4) 0.0929(2)
H9 H 0.1759 -0.0279 0.0760
C6 C 0.1453(2) 0.2494(3) 0.09204(19)
H10 H 0.1222 0.3309 0.0774
C7 C 0.52092(18) -0.0460(3) 0.16080(19)
C8 C 0.49850(19) -0.1678(3) 0.12740(19)
H11 H 0.4619 -0.1745 0.0753
C9 C 0.53021(18) -0.2810(3) 0.17096(18)
C10 C 0.58515(18) -0.2709(3) 0.24838(18)
H12 H 0.6074 -0.3450 0.2780
C11 C 0.60621(19) -0.1491(3) 0.28049(19)
C12 C 0.5746(2) -0.0365(3) 0.23837(19)
H13 H 0.5894 0.0445 0.2620
C13 C 0.4861(2) 0.0765(3) 0.1143(2)
C14 C 0.50437(18) -0.4135(3) 0.13509(19)
Mn1_2 Mn 0.45873(3) -0.65011(4) 0.07924(3)
Mn1F Mn 0.04127(3) 0.15011(4) -0.07924(3)
O3_2 O 0.45626(14) 0.5764(2) 0.06435(13)
O4_2 O 0.53128(14) 0.4886(2) 0.17721(14)
N6F N 0.37292(16) 0.3507(3) -0.04565(16)
O8 O 0.63018(18) 0.0913(3) 0.08456(19)
H14 H 0.6759(14) 0.074(5) 0.099(3)
H15 H 0.606(3) 0.054(5) 0.0414(17)
loop_
_geom_bond_atom_site_label_1
_geom_bond_atom_site_label_2
_geom_bond_site_symmetry_1
_geom_bond_site_symmetry_2
Mn1 O1 1_555 1_555
O1 C13 1_555 1_555
O2 C13 1_555 1_555
O3 C14 1_555 1_555
O4 C14 1_555 1_555
O5 N7 1_555 1_555
O6 N7 1_555 1_555
O7 Mn1 1_555 1_555
H1 O7 1_555 1_555
H2 O7 1_555 1_555
N1 N2 1_555 1_555
N2 C3 1_555 1_555
N3 Mn1 1_555 1_555
N4 N5 1_555 1_555
N5 C5 1_555 1_555
N6 C5 1_555 1_555
N7 C11 1_555 1_555
C1 N1 1_555 1_555
H3 C1 1_555 1_555
H4 C1 1_555 1_555
C2 N4 1_555 1_555
H5 C2 1_555 1_555
H6 C2 1_555 1_555
C3 N3 1_555 1_555
H7 C3 1_555 1_555
C4 N1 1_555 1_555
H8 C4 1_555 1_555
C5 H9 1_555 1_555
C6 N4 1_555 1_555
H10 C6 1_555 1_555
C7 C8 1_555 1_555
C8 H11 1_555 1_555
C9 C8 1_555 1_555
C10 C9 1_555 1_555
H12 C10 1_555 1_555
C11 C10 1_555 1_555
C12 C7 1_555 1_555
H13 C12 1_555 1_555
C13 C7 1_555 1_555
C14 C9 1_555 1_555
O8 H14 1_555 1_555
H15 O8 1_555 1_555
Mn1_2 O3 1_555 1_555
Mn1F N6 1_555 1_555
O3_2 Mn1 1_555 1_555
O4_2 Mn1 1_555 1_555
N6F Mn1 1_555 1_555
O4 Mn1_2 1_555 1_555
N3 C4 1_555 1_555
N6 C6 1_555 1_555
C1 C2 1_555 1_555
C11 C12 1_555 1_555

#END
