
#######################################################################
#
#                 Cambridge Crystallographic Data Centre
#                                CCDC 
#
#######################################################################
#
# If this CIF has been generated from an entry in the Cambridge 
# Structural Database, then it will include bibliographic, chemical, 
# crystal, experimental, refinement or atomic coordinate data resulting 
# from the CCDC's data processing and validation procedures.
#
#######################################################################

data_SOKLOV
_symmetry_cell_setting           orthorhombic
_symmetry_space_group_name_H-M   'P b c n'
_symmetry_Int_Tables_number      60
_space_group_name_Hall           '-P 2n 2ab'
loop_
_symmetry_equiv_pos_site_id
_symmetry_equiv_pos_as_xyz
1 x,y,z
2 1/2-x,1/2-y,1/2+z
3 -x,y,1/2-z
4 1/2+x,1/2-y,-z
5 -x,-y,-z
6 1/2+x,1/2+y,1/2-z
7 x,-y,1/2+z
8 1/2-x,1/2+y,z
_cell_length_a                   24.0666(7)
_cell_length_b                   8.7167(4)
_cell_length_c                   17.2610(7)
_cell_angle_alpha                90
_cell_angle_beta                 90
_cell_angle_gamma                90
_cell_volume                     3621.04
loop_
_atom_site_label
_atom_site_type_symbol
_atom_site_fract_x
_atom_site_fract_y
_atom_site_fract_z
Cd1 Cd 0.665183(18) 0.40683(6) 0.15769(3)
S1 S 0.58692(7) 0.6667(2) 0.10137(10)
S2 S 0.65438(7) 0.7004(2) 0.29185(11)
O1 O 0.6876(2) 0.1733(7) 0.2256(4)
O2 O 0.7504(3) 0.2082(9) 0.1394(4)
O3 O 0.7507(2) 0.0021(7) 0.2116(4)
O4 O 0.5899(3) 0.2767(8) 0.1038(4)
O5 O 0.5644(4) 0.1435(8) 0.0085(4)
O6 O 0.6500(4) 0.1837(10) 0.0281(6)
N1 N 0.7301(2) 0.1267(7) 0.1918(4)
N2 N 0.6016(3) 0.2012(7) 0.0457(4)
N3 N 0.6747(2) 0.5349(8) 0.0432(4)
N4 N 0.6113(2) 0.4273(6) 0.2675(3)
C1 C 0.4901(3) 0.8778(7) 0.1726(4)
H1 H 0.4832 0.8833 0.1196
C2 C 0.5450(3) 0.8743(7) 0.1972(4)
C3 C 0.5553(3) 0.8737(7) 0.2775(4)
C4 C 0.5901(3) 0.8630(7) 0.1375(4)
H2 H 0.6261 0.8838 0.1605
H3 H 0.5838 0.9357 0.0959
C5 C 0.6427(3) 0.6591(8) 0.0336(4)
C6 C 0.6493(3) 0.7594(11) -0.0271(4)
H4 H 0.6265 0.8449 -0.0324
C7 C 0.6911(4) 0.7289(10) -0.0802(5)
H5 H 0.6968 0.7944 -0.1220
C8 C 0.7235(4) 0.6043(11) -0.0711(6)
H6 H 0.7514 0.5828 -0.1067
C9 C 0.7150(3) 0.5084(12) -0.0083(5)
H7 H 0.7378 0.4234 -0.0018
C10 C 0.6133(3) 0.8706(8) 0.3116(5)
H8 H 0.6102 0.8821 0.3673
H9 H 0.6334 0.9590 0.2922
C11 C 0.6085(3) 0.5495(8) 0.3149(4)
C12 C 0.5722(3) 0.5536(8) 0.3785(4)
H10 H 0.5711 0.6383 0.4112
C13 C 0.5380(3) 0.4277(8) 0.3914(4)
H11 H 0.5129 0.4282 0.4324
C14 C 0.5412(3) 0.3029(9) 0.3432(4)
H12 H 0.5185 0.2181 0.3512
C15 C 0.5783(3) 0.3048(8) 0.2834(4)
H13 H 0.5812 0.2183 0.2522
S1B S 0.41308(7) 0.6667(2) 0.39863(10)
S2B S 0.34562(7) 0.7004(2) 0.20815(11)
N3B N 0.3253(2) 0.5349(8) 0.4568(4)
N4B N 0.3887(2) 0.4273(6) 0.2325(3)
C1B C 0.5099(3) 0.8778(7) 0.3274(4)
H1B H 0.5168 0.8833 0.3804
C2B C 0.4550(3) 0.8743(7) 0.3028(4)
C3B C 0.4447(3) 0.8737(7) 0.2225(4)
C4B C 0.4099(3) 0.8630(7) 0.3625(4)
H2B H 0.3739 0.8838 0.3395
H3B H 0.4162 0.9357 0.4041
C5B C 0.3573(3) 0.6591(8) 0.4664(4)
C6B C 0.3507(3) 0.7594(11) 0.5271(4)
H4B H 0.3735 0.8449 0.5324
C7B C 0.3089(4) 0.7289(10) 0.5802(5)
H5B H 0.3032 0.7944 0.6220
C8B C 0.2765(4) 0.6043(11) 0.5711(6)
H6B H 0.2486 0.5828 0.6067
C9B C 0.2850(3) 0.5084(12) 0.5083(5)
H7B H 0.2622 0.4234 0.5018
C10B C 0.3867(3) 0.8706(8) 0.1884(5)
H8B H 0.3898 0.8821 0.1327
H9B H 0.3666 0.9590 0.2078
C11B C 0.3915(3) 0.5495(8) 0.1851(4)
C12B C 0.4278(3) 0.5536(8) 0.1215(4)
H10B H 0.4289 0.6383 0.0888
C13B C 0.4620(3) 0.4277(8) 0.1086(4)
H11B H 0.4871 0.4282 0.0676
C14B C 0.4588(3) 0.3029(9) 0.1568(4)
H12B H 0.4815 0.2181 0.1488
C15B C 0.4217(3) 0.3048(8) 0.2166(4)
H13B H 0.4188 0.2183 0.2478
Cd1B Cd 0.334817(18) 0.40683(6) 0.34231(3)
O1B O 0.3124(2) 0.1733(7) 0.2744(4)
O2B O 0.2496(3) 0.2082(9) 0.3606(4)
O3B O 0.2493(2) 0.0021(7) 0.2884(4)
O4B O 0.4101(3) 0.2767(8) 0.3962(4)
O5B O 0.4356(4) 0.1435(8) 0.4915(4)
O6B O 0.3500(4) 0.1837(10) 0.4719(6)
N1B N 0.2699(2) 0.1267(7) 0.3082(4)
N2B N 0.3984(3) 0.2012(7) 0.4543(4)
Cd1E Cd 0.165183(18) -0.09317(6) 0.34231(3)
Cd1G Cd 0.834817(18) -0.09317(6) 0.15769(3)
O3E O 0.2507(2) 0.5021(7) 0.2884(4)
O3G O 0.7493(2) 0.5021(7) 0.2116(4)
loop_
_geom_bond_atom_site_label_1
_geom_bond_atom_site_label_2
_geom_bond_site_symmetry_1
_geom_bond_site_symmetry_2
Cd1 S1 1_555 1_555
S1 C4 1_555 1_555
S2 C10 1_555 1_555
O1 Cd1 1_555 1_555
O2 Cd1 1_555 1_555
O3 N1 1_555 1_555
O4 Cd1 1_555 1_555
O5 N2 1_555 1_555
O6 N2 1_555 1_555
N1 O1 1_555 1_555
N2 O4 1_555 1_555
N3 Cd1 1_555 1_555
N4 Cd1 1_555 1_555
C1 H1 1_555 1_555
C2 C1 1_555 1_555
C3 C2 1_555 1_555
C4 C2 1_555 1_555
H2 C4 1_555 1_555
H3 C4 1_555 1_555
C5 S1 1_555 1_555
C6 C5 1_555 1_555
H4 C6 1_555 1_555
C7 C6 1_555 1_555
H5 C7 1_555 1_555
C8 C7 1_555 1_555
H6 C8 1_555 1_555
C9 N3 1_555 1_555
H7 C9 1_555 1_555
C10 C3 1_555 1_555
H8 C10 1_555 1_555
H9 C10 1_555 1_555
C11 S2 1_555 1_555
C12 C11 1_555 1_555
H10 C12 1_555 1_555
C13 C12 1_555 1_555
H11 C13 1_555 1_555
C14 C13 1_555 1_555
H12 C14 1_555 1_555
C15 N4 1_555 1_555
H13 C15 1_555 1_555
S1B C4B 1_555 1_555
S2B C10B 1_555 1_555
N3B C5B 1_555 1_555
N4B C11B 1_555 1_555
C1B C3 1_555 1_555
H1B C1B 1_555 1_555
C2B C1B 1_555 1_555
C3B C1 1_555 1_555
C4B C2B 1_555 1_555
H2B C4B 1_555 1_555
H3B C4B 1_555 1_555
C5B S1B 1_555 1_555
C6B C5B 1_555 1_555
H4B C6B 1_555 1_555
C7B C6B 1_555 1_555
H5B C7B 1_555 1_555
C8B C7B 1_555 1_555
H6B C8B 1_555 1_555
C9B N3B 1_555 1_555
H7B C9B 1_555 1_555
C10B C3B 1_555 1_555
H8B C10B 1_555 1_555
H9B C10B 1_555 1_555
C11B S2B 1_555 1_555
C12B C11B 1_555 1_555
H10B C12B 1_555 1_555
C13B C12B 1_555 1_555
H11B C13B 1_555 1_555
C14B C13B 1_555 1_555
H12B C14B 1_555 1_555
C15B N4B 1_555 1_555
H13B C15B 1_555 1_555
Cd1B S1B 1_555 1_555
O1B Cd1B 1_555 1_555
O2B Cd1B 1_555 1_555
O3B N1B 1_555 1_555
O4B Cd1B 1_555 1_555
O5B N2B 1_555 1_555
O6B N2B 1_555 1_555
N1B O1B 1_555 1_555
N2B O4B 1_555 1_555
Cd1E O3B 1_555 1_555
Cd1G O3 1_555 1_555
O3E Cd1B 1_555 1_555
O3G Cd1 1_555 1_555
O2 N1 1_555 1_555
N3 C5 1_555 1_555
N4 C11 1_555 1_555
C8 C9 1_555 1_555
C14 C15 1_555 1_555
N3B Cd1B 1_555 1_555
N4B Cd1B 1_555 1_555
C2B C3B 1_555 1_555
C8B C9B 1_555 1_555
C14B C15B 1_555 1_555
O2B N1B 1_555 1_555

#END
