
#######################################################################
#
#                 Cambridge Crystallographic Data Centre
#                                CCDC 
#
#######################################################################
#
# If this CIF has been generated from an entry in the Cambridge 
# Structural Database, then it will include bibliographic, chemical, 
# crystal, experimental, refinement or atomic coordinate data resulting 
# from the CCDC's data processing and validation procedures.
#
#######################################################################

data_SOKVAQ
_symmetry_cell_setting           monoclinic
_symmetry_space_group_name_H-M   'P 21/c'
_symmetry_Int_Tables_number      14
_space_group_name_Hall           '-P 2ybc'
loop_
_symmetry_equiv_pos_site_id
_symmetry_equiv_pos_as_xyz
1 x,y,z
2 -x,1/2+y,1/2-z
3 -x,-y,-z
4 x,1/2-y,1/2+z
_cell_length_a                   12.4389(2)
_cell_length_b                   11.4169(2)
_cell_length_c                   28.1167(5)
_cell_angle_alpha                90
_cell_angle_beta                 113.1159(6)
_cell_angle_gamma                90
_cell_volume                     3672.37
loop_
_atom_site_label
_atom_site_type_symbol
_atom_site_fract_x
_atom_site_fract_y
_atom_site_fract_z
Cu1 Cu 0.5000 0.0000 0.0000
Cu2 Cu 0.0000 0.0000 0.0000
Na1 Na 0.24513(12) -0.00584(14) -0.00474(6)
O1 O 0.4304(2) 0.0440(2) 0.04725(10)
O2 O 0.6403(2) 0.0731(2) 0.04627(10)
C1 C 0.5028(3) 0.1184(3) 0.08184(14)
C2 C 0.6147(3) 0.1356(3) 0.08130(14)
C3 C 0.6914(3) 0.2138(4) 0.11542(15)
H1 H 0.7662 0.2263 0.1147
C4 C 0.6597(4) 0.2742(4) 0.15087(16)
H2 H 0.7131 0.3275 0.1743
C5 C 0.5509(4) 0.2572(4) 0.15215(16)
H3 H 0.5301 0.2978 0.1768
C6 C 0.4716(3) 0.1805(4) 0.11717(15)
H4 H 0.3960 0.1705 0.1174
O3 O 0.1171(2) 0.1174(3) 0.01019(10)
O4 O -0.0872(2) 0.1155(3) 0.01855(10)
C7 C 0.0856(3) 0.2149(4) 0.02764(15)
C8 C -0.0237(3) 0.2147(4) 0.03243(14)
C9 C -0.0609(3) 0.3126(4) 0.05051(16)
H5 H -0.1333 0.3112 0.0544
C10 C 0.0079(3) 0.4134(4) 0.06300(16)
H6 H -0.0188 0.4816 0.0744
C11 C 0.1136(4) 0.4142(4) 0.05881(17)
H7 H 0.1603 0.4829 0.0675
C12 C 0.1533(4) 0.3151(4) 0.04187(16)
H8 H 0.2279 0.3163 0.0400
Na1B Na 0.75487(12) 0.00584(14) 0.00474(6)
Na1B_2 Na -0.24513(12) 0.00584(14) 0.00474(6)
O1B O 0.5696(2) -0.0440(2) -0.04725(10)
O2B O 0.3597(2) -0.0731(2) -0.04627(10)
C1B C 0.4972(3) -0.1184(3) -0.08184(14)
C2B C 0.3853(3) -0.1356(3) -0.08130(14)
C3B C 0.3086(3) -0.2138(4) -0.11542(15)
H1B H 0.2338 -0.2263 -0.1147
C4B C 0.3403(4) -0.2742(4) -0.15087(16)
H2B H 0.2869 -0.3275 -0.1743
C5B C 0.4491(4) -0.2572(4) -0.15215(16)
H3B H 0.4699 -0.2978 -0.1768
C6B C 0.5284(3) -0.1805(4) -0.11717(15)
H4B H 0.6040 -0.1705 -0.1174
O3B O -0.1171(2) -0.1174(3) -0.01019(10)
O3B_2 O 0.8829(2) -0.1174(3) -0.01019(10)
O4B O 0.0872(2) -0.1155(3) -0.01855(10)
O4_2 O 0.9128(2) 0.1155(3) 0.01855(10)
C7B C -0.0856(3) -0.2149(4) -0.02764(15)
C8B C 0.0237(3) -0.2147(4) -0.03243(14)
C9B C 0.0609(3) -0.3126(4) -0.05051(16)
H5B H 0.1333 -0.3112 -0.0544
C10B C -0.0079(3) -0.4134(4) -0.06300(16)
H6B H 0.0188 -0.4816 -0.0744
C11B C -0.1136(4) -0.4142(4) -0.05881(17)
H7B H -0.1603 -0.4829 -0.0675
C12B C -0.1533(4) -0.3151(4) -0.04187(16)
H8B H -0.2279 -0.3163 -0.0400
Cu3 Cu 0.30176(4) 0.11004(4) 0.293867(18)
P1 P 0.19577(9) 0.06379(9) 0.21241(4)
P2 P 0.39035(9) 0.17658(9) 0.37360(4)
N1 N 0.2995(3) 0.2822(3) 0.26857(12)
C13 C 0.2434(3) 0.3060(4) 0.21807(15)
C14 C 0.2169(4) 0.4201(4) 0.20084(16)
H9 H 0.1758 0.4368 0.1651
C15 C 0.2520(4) 0.5091(4) 0.23709(17)
H10 H 0.2358 0.5882 0.2261
C16 C 0.3101(3) 0.4844(4) 0.28897(16)
H11 H 0.3341 0.5455 0.3139
C17 C 0.3326(3) 0.3693(3) 0.30377(14)
C18 C 0.2121(4) 0.2028(4) 0.18150(15)
H12 H 0.2736 0.1926 0.1678
H13 H 0.1378 0.2199 0.1519
C19 C 0.0363(3) 0.0506(4) 0.19770(15)
C20 C -0.0401(4) 0.0268(4) 0.14107(16)
H14 H -0.1225 0.0272 0.1362
H15 H -0.0201 -0.0499 0.1311
H16 H -0.0267 0.0877 0.1195
C21 C 0.0010(4) 0.1680(4) 0.21385(18)
H17 H 0.0018 0.2291 0.1895
H18 H 0.0564 0.1884 0.2487
H19 H -0.0778 0.1614 0.2136
C22 C 0.0197(4) -0.0471(4) 0.23218(17)
H20 H -0.0621 -0.0490 0.2282
H21 H 0.0701 -0.0316 0.2684
H22 H 0.0407 -0.1228 0.2218
C23 C 0.2527(3) -0.0495(4) 0.18062(15)
C24 C 0.3857(4) -0.0348(4) 0.20501(18)
H23 H 0.4136 -0.0437 0.2426
H24 H 0.4065 0.0433 0.1969
H25 H 0.4222 -0.0944 0.1912
C25 C 0.2220(4) -0.1721(4) 0.19372(18)
H26 H 0.2628 -0.2311 0.1817
H27 H 0.1375 -0.1844 0.1766
H28 H 0.2462 -0.1792 0.2312
C26 C 0.2089(4) -0.0377(4) 0.12165(16)
H29 H 0.2433 -0.0997 0.1081
H30 H 0.2319 0.0389 0.1130
H31 H 0.1235 -0.0446 0.1063
C27 C 0.3979(4) 0.3347(3) 0.35968(15)
H32 H 0.3662 0.3803 0.3812
H33 H 0.4810 0.3568 0.3703
C28 C 0.3036(4) 0.1700(4) 0.41451(17)
C29 C 0.1882(5) 0.2336(6) 0.3836(2)
H34 H 0.1500 0.1963 0.3496
H35 H 0.2043 0.3159 0.3789
H36 H 0.1366 0.2292 0.4024
C30 C 0.3660(6) 0.2274(5) 0.4675(2)
H37 H 0.3103 0.2390 0.4839
H38 H 0.3978 0.3033 0.4632
H39 H 0.4298 0.1767 0.4893
C31 C 0.2738(4) 0.0432(4) 0.42091(17)
H40 H 0.2250 0.0404 0.4411
H41 H 0.3461 -0.0009 0.4390
H42 H 0.2312 0.0083 0.3868
C32 C 0.5471(3) 0.1358(4) 0.40821(16)
C33 C 0.5933(4) 0.1261(5) 0.36504(19)
H43 H 0.6775 0.1101 0.3803
H44 H 0.5791 0.2000 0.3457
H45 H 0.5529 0.0623 0.3415
C34 C 0.5571(4) 0.0148(4) 0.43263(17)
H46 H 0.6383 -0.0122 0.4448
H47 H 0.5063 -0.0403 0.4069
H48 H 0.5331 0.0193 0.4619
C35 C 0.6229(4) 0.2226(4) 0.4490(2)
H49 H 0.5948 0.2280 0.4770
H50 H 0.6183 0.2999 0.4331
H51 H 0.7042 0.1956 0.4630
loop_
_geom_bond_atom_site_label_1
_geom_bond_atom_site_label_2
_geom_bond_site_symmetry_1
_geom_bond_site_symmetry_2
Cu1 O1 1_555 1_555
Cu2 O3 1_555 1_555
Na1 O1 1_555 1_555
O1 C1 1_555 1_555
O2 Cu1 1_555 1_555
C1 C2 1_555 1_555
C2 O2 1_555 1_555
C3 C2 1_555 1_555
H1 C3 1_555 1_555
C4 C3 1_555 1_555
H2 C4 1_555 1_555
C5 C4 1_555 1_555
H3 C5 1_555 1_555
C6 C1 1_555 1_555
H4 C6 1_555 1_555
O3 Na1 1_555 1_555
O4 Cu2 1_555 1_555
C7 O3 1_555 1_555
C8 O4 1_555 1_555
C9 C8 1_555 1_555
H5 C9 1_555 1_555
C10 C9 1_555 1_555
H6 C10 1_555 1_555
C11 C10 1_555 1_555
H7 C11 1_555 1_555
C12 C7 1_555 1_555
H8 C12 1_555 1_555
Cu3 P1 1_555 1_555
P1 C18 1_555 1_555
P2 Cu3 1_555 1_555
N1 Cu3 1_555 1_555
C13 N1 1_555 1_555
C14 C13 1_555 1_555
H9 C14 1_555 1_555
C15 C14 1_555 1_555
H10 C15 1_555 1_555
C16 C15 1_555 1_555
H11 C16 1_555 1_555
C17 N1 1_555 1_555
C18 C13 1_555 1_555
H12 C18 1_555 1_555
H13 C18 1_555 1_555
C19 P1 1_555 1_555
C20 C19 1_555 1_555
H14 C20 1_555 1_555
H15 C20 1_555 1_555
H16 C20 1_555 1_555
C21 C19 1_555 1_555
H17 C21 1_555 1_555
H18 C21 1_555 1_555
H19 C21 1_555 1_555
C22 C19 1_555 1_555
H20 C22 1_555 1_555
H21 C22 1_555 1_555
H22 C22 1_555 1_555
C23 P1 1_555 1_555
C24 C23 1_555 1_555
H23 C24 1_555 1_555
H24 C24 1_555 1_555
H25 C24 1_555 1_555
C25 C23 1_555 1_555
H26 C25 1_555 1_555
H27 C25 1_555 1_555
H28 C25 1_555 1_555
C26 C23 1_555 1_555
H29 C26 1_555 1_555
H30 C26 1_555 1_555
H31 C26 1_555 1_555
C27 P2 1_555 1_555
H32 C27 1_555 1_555
H33 C27 1_555 1_555
C28 P2 1_555 1_555
C29 C28 1_555 1_555
H34 C29 1_555 1_555
H35 C29 1_555 1_555
H36 C29 1_555 1_555
C30 C28 1_555 1_555
H37 C30 1_555 1_555
H38 C30 1_555 1_555
H39 C30 1_555 1_555
C31 C28 1_555 1_555
H40 C31 1_555 1_555
H41 C31 1_555 1_555
H42 C31 1_555 1_555
C32 P2 1_555 1_555
C33 C32 1_555 1_555
H43 C33 1_555 1_555
H44 C33 1_555 1_555
H45 C33 1_555 1_555
C34 C32 1_555 1_555
H46 C34 1_555 1_555
H47 C34 1_555 1_555
H48 C34 1_555 1_555
C35 C32 1_555 1_555
H49 C35 1_555 1_555
H50 C35 1_555 1_555
H51 C35 1_555 1_555
Na1B O2 1_555 1_555
Na1B_2 O4 1_555 1_555
O1B Cu1 1_555 1_555
O2B Cu1 1_555 1_555
C1B O1B 1_555 1_555
C2B O2B 1_555 1_555
C3B C2B 1_555 1_555
H1B C3B 1_555 1_555
C4B C3B 1_555 1_555
H2B C4B 1_555 1_555
C5B C4B 1_555 1_555
H3B C5B 1_555 1_555
C6B C1B 1_555 1_555
H4B C6B 1_555 1_555
O3B Cu2 1_555 1_555
O3B_2 Na1B 1_555 1_555
O4B Cu2 1_555 1_555
O4_2 Na1B 1_555 1_555
C7B O3B 1_555 1_555
C8B O4B 1_555 1_555
C9B C8B 1_555 1_555
H5B C9B 1_555 1_555
C10B C9B 1_555 1_555
H6B C10B 1_555 1_555
C11B C10B 1_555 1_555
H7B C11B 1_555 1_555
C12B C7B 1_555 1_555
H8B C12B 1_555 1_555
Na1 O2B 1_555 1_555
Na1 O4B 1_555 1_555
C5 C6 1_555 1_555
C7 C8 1_555 1_555
C11 C12 1_555 1_555
C16 C17 1_555 1_555
C17 C27 1_555 1_555
Na1B O1B 1_555 1_555
Na1B_2 O3B 1_555 1_555
C1B C2B 1_555 1_555
C5B C6B 1_555 1_555
C7B C8B 1_555 1_555
C11B C12B 1_555 1_555

#END
