
#######################################################################
#
#                 Cambridge Crystallographic Data Centre
#                                CCDC 
#
#######################################################################
#
# If this CIF has been generated from an entry in the Cambridge 
# Structural Database, then it will include bibliographic, chemical, 
# crystal, experimental, refinement or atomic coordinate data resulting 
# from the CCDC's data processing and validation procedures.
#
#######################################################################

data_SOKWIA
_symmetry_cell_setting           monoclinic
_symmetry_space_group_name_H-M   'P 21/n'
_symmetry_Int_Tables_number      14
_space_group_name_Hall           '-P 2yn'
loop_
_symmetry_equiv_pos_site_id
_symmetry_equiv_pos_as_xyz
1 x,y,z
2 1/2-x,1/2+y,1/2-z
3 -x,-y,-z
4 1/2+x,1/2-y,1/2+z
_cell_length_a                   13.6318(6)
_cell_length_b                   20.8012(5)
_cell_length_c                   17.6809(7)
_cell_angle_alpha                90
_cell_angle_beta                 112.339(2)
_cell_angle_gamma                90
_cell_volume                     4637.3
loop_
_atom_site_label
_atom_site_type_symbol
_atom_site_fract_x
_atom_site_fract_y
_atom_site_fract_z
U1 U 0.908719(17) 0.597522(13) -0.105012(12)
U2 U 0.457469(16) 0.595845(12) -0.212043(11)
U3 U 0.746413(17) 0.093798(12) 0.085575(11)
O1 O 1.0284(3) 0.5864(2) -0.1196(2)
O2 O 0.7892(3) 0.6086(3) -0.0884(2)
O3 O 0.5782(3) 0.5906(2) -0.2267(2)
O4 O 0.3335(3) 0.5996(2) -0.2015(2)
O5 O 0.8771(3) 0.0908(2) 0.0862(2)
O6 O 0.6169(3) 0.0981(2) 0.0858(2)
O7 O 0.8876(4) 0.7024(2) -0.1717(2)
O8 O 0.9658(3) 0.7022(2) -0.0382(2)
O9 O 0.4992(3) 0.7020(2) -0.1523(2)
O10 O 0.4324(3) 0.7007(2) -0.2856(2)
O11 O 0.8627(3) 0.9313(2) 0.15043(19)
O12 O 0.7171(3) 0.9812(2) 0.0697(2)
O13 O 0.8722(4) 0.4872(3) -0.1146(2)
O14 O 1.0006(3) 0.4265(3) -0.0325(2)
O15 O 0.4682(3) 0.4817(2) -0.1950(2)
O16 O 0.3192(3) 0.4347(2) -0.27709(19)
O17 O 0.7217(4) 0.1980(2) 0.0218(2)
O18 O 0.7764(3) 0.1994(2) 0.1547(2)
O19 O 0.8202(3) 0.5817(3) -0.2457(2)
O20 O 0.5440(3) 0.5853(2) -0.0712(2)
O21 O 0.6726(3) 0.0784(2) -0.0565(2)
N1 N 0.6694(5) 0.5957(4) -0.3561(3)
N2 N 0.6913(5) 0.6056(4) 0.0379(3)
N3 N 0.5175(5) 0.1016(3) -0.1602(3)
C1 C 0.8040(5) 0.8182(3) -0.0946(3)
C2 C 0.7077(5) 0.8073(3) -0.1594(3)
H1 H 0.7073 0.7936 -0.2108
C3 C 0.6139(5) 0.8160(3) -0.1493(3)
C4 C 0.6129(5) 0.8359(3) -0.0746(3)
H2 H 0.5476 0.8423 -0.0682
C5 C 0.7099(5) 0.8465(3) -0.0085(3)
C6 C 0.8042(5) 0.8366(3) -0.0193(3)
H3 H 0.8698 0.8426 0.0254
C7 C 0.9092(5) 0.8040(4) -0.1051(4)
H4 H 0.9073 0.8223 -0.1574
H5 H 0.9692 0.8238 -0.0599
C8 C 0.9230(5) 0.7339(4) -0.1047(3)
C9 C 0.5074(5) 0.7997(3) -0.2201(3)
H6 H 0.4508 0.8273 -0.2156
H7 H 0.5136 0.8093 -0.2729
C10 C 0.4776(5) 0.7322(4) -0.2191(3)
C11 C 0.7103(5) 0.8676(3) 0.0748(3)
H8 H 0.6364 0.8719 0.0714
H9 H 0.7462 0.8346 0.1164
C12 C 0.7676(4) 0.9315(3) 0.1000(3)
C13 C 0.7565(5) 0.3625(3) -0.1057(3)
C14 C 0.6518(5) 0.3733(3) -0.1581(3)
H10 H 0.6371 0.3892 -0.2117
C15 C 0.5691(5) 0.3611(3) -0.1332(3)
C16 C 0.5934(5) 0.3389(3) -0.0535(3)
H11 H 0.5373 0.3310 -0.0353
C17 C 0.6961(5) 0.3283(3) -0.0007(3)
C18 C 0.7761(5) 0.3389(3) -0.0272(3)
H12 H 0.8470 0.3301 0.0085
C19 C 0.8497(5) 0.3750(4) -0.1321(3)
H13 H 0.8969 0.3370 -0.1189
H14 H 0.8223 0.3815 -0.1920
C20 C 0.9130(5) 0.4340(4) -0.0896(3)
C21 C 0.4539(5) 0.3663(4) -0.1921(4)
H15 H 0.4443 0.3387 -0.2400
H16 H 0.4087 0.3485 -0.1647
C22 C 0.4140(5) 0.4326(3) -0.2227(3)
C23 C 0.7229(5) 0.2987(3) 0.0846(3)
H17 H 0.7875 0.3197 0.1237
H18 H 0.6641 0.3076 0.1029
C24 C 0.7406(5) 0.2298(4) 0.0865(3)
C25 C 0.7353(5) 0.5666(4) -0.3016(4)
C26 C 0.6941(6) 0.4967(4) -0.3192(4)
H19 H 0.7508 0.4672 -0.3197
H20 H 0.6665 0.4816 -0.2780
C27 C 0.6088(6) 0.5014(5) -0.4007(4)
H21 H 0.5477 0.4745 -0.4034
H22 H 0.6344 0.4865 -0.4432
C28 C 0.5760(6) 0.5726(4) -0.4143(4)
H23 H 0.5642 0.5876 -0.4702
H24 H 0.5132 0.5823 -0.4010
C29 C 0.6789(7) 0.6692(4) -0.3522(5)
H25 H 0.6124 0.6883 -0.3896
H26 H 0.7371 0.6825 -0.3683
H27 H 0.6931 0.6837 -0.2963
C30 C 0.6266(6) 0.5731(4) -0.0124(4)
C31 C 0.6645(5) 0.5035(4) 0.0131(4)
H28 H 0.6082 0.4774 0.0207
H29 H 0.6869 0.4824 -0.0280
C32 C 0.7557(6) 0.5127(4) 0.0916(4)
H30 H 0.8171 0.4870 0.0920
H31 H 0.7367 0.4982 0.1377
C33 C 0.7844(6) 0.5843(3) 0.1010(4)
H32 H 0.7918 0.6015 0.1552
H33 H 0.8489 0.5939 0.0902
C34 C 0.6829(6) 0.6774(4) 0.0202(4)
H34 H 0.7360 0.6899 -0.0019
H35 H 0.6953 0.7012 0.0708
H36 H 0.6118 0.6874 -0.0199
C35 C 0.5839(5) 0.0648(4) -0.1109(3)
C36 C 0.5413(6) -0.0029(5) -0.1305(4)
H37 H 0.5958 -0.0322 -0.1351
H38 H 0.5174 -0.0194 -0.0878
C37 C 0.4516(7) 0.0035(5) -0.2092(4)
H39 H 0.3911 -0.0232 -0.2100
H40 H 0.4723 -0.0103 -0.2547
C38 C 0.4214(5) 0.0750(5) -0.2176(3)
H41 H 0.4056 0.0911 -0.2737
H42 H 0.3604 0.0837 -0.2018
C39 C 0.5319(7) 0.1728(4) -0.1583(4)
H43 H 0.5831 0.1857 -0.1045
H44 H 0.4637 0.1939 -0.1687
H45 H 0.5584 0.1855 -0.2005
U1B U 1.091281(17) 0.402478(13) 0.105012(12)
U2C U 0.957469(16) 0.904155(12) 0.287957(11)
U3_2 U 0.746413(17) 1.093798(12) 0.085575(11)
U3C U 0.246413(17) 0.406202(12) -0.414425(11)
O11C O 0.3627(3) 0.5687(2) -0.34957(19)
O12_2 O 0.7171(3) -0.0188(2) 0.0697(2)
O14B O 0.9994(3) 0.5735(3) 0.0325(2)
O16C O 0.8192(3) 0.0653(2) 0.22291(19)
O22 O 0.7802(13) 0.2510(11) 0.2940(10)
loop_
_geom_bond_atom_site_label_1
_geom_bond_atom_site_label_2
_geom_bond_site_symmetry_1
_geom_bond_site_symmetry_2
U1 O1 1_555 1_555
U2 O3 1_555 1_555
U3 O5 1_555 1_555
O2 U1 1_555 1_555
O4 U2 1_555 1_555
O6 U3 1_555 1_555
O7 U1 1_555 1_555
O8 U1 1_555 1_555
O9 U2 1_555 1_555
O10 U2 1_555 1_555
O11 C12 1_555 1_555
O12 C12 1_555 1_555
O13 U1 1_555 1_555
O14 C20 1_555 1_555
O15 U2 1_555 1_555
O16 C22 1_555 1_555
O17 U3 1_555 1_555
O18 U3 1_555 1_555
O19 U1 1_555 1_555
O20 U2 1_555 1_555
O21 U3 1_555 1_555
N1 C25 1_555 1_555
N2 C30 1_555 1_555
N3 C35 1_555 1_555
C1 C2 1_555 1_555
C2 H1 1_555 1_555
C3 C2 1_555 1_555
C4 C3 1_555 1_555
H2 C4 1_555 1_555
C5 C4 1_555 1_555
C6 C1 1_555 1_555
H3 C6 1_555 1_555
C7 C1 1_555 1_555
H4 C7 1_555 1_555
H5 C7 1_555 1_555
C8 O7 1_555 1_555
C9 C3 1_555 1_555
H6 C9 1_555 1_555
H7 C9 1_555 1_555
C10 O9 1_555 1_555
C11 C5 1_555 1_555
H8 C11 1_555 1_555
H9 C11 1_555 1_555
C12 C11 1_555 1_555
C13 C14 1_555 1_555
C14 H10 1_555 1_555
C15 C14 1_555 1_555
C16 C15 1_555 1_555
H11 C16 1_555 1_555
C17 C16 1_555 1_555
C18 C13 1_555 1_555
H12 C18 1_555 1_555
C19 C13 1_555 1_555
H13 C19 1_555 1_555
H14 C19 1_555 1_555
C20 O13 1_555 1_555
C21 C15 1_555 1_555
H15 C21 1_555 1_555
H16 C21 1_555 1_555
C22 O15 1_555 1_555
C23 C17 1_555 1_555
H17 C23 1_555 1_555
H18 C23 1_555 1_555
C24 O17 1_555 1_555
C25 O19 1_555 1_555
C26 C25 1_555 1_555
H19 C26 1_555 1_555
H20 C26 1_555 1_555
C27 C26 1_555 1_555
H21 C27 1_555 1_555
H22 C27 1_555 1_555
C28 N1 1_555 1_555
H23 C28 1_555 1_555
H24 C28 1_555 1_555
C29 N1 1_555 1_555
H25 C29 1_555 1_555
H26 C29 1_555 1_555
H27 C29 1_555 1_555
C30 O20 1_555 1_555
C31 C30 1_555 1_555
H28 C31 1_555 1_555
H29 C31 1_555 1_555
C32 C31 1_555 1_555
H30 C32 1_555 1_555
H31 C32 1_555 1_555
C33 N2 1_555 1_555
H32 C33 1_555 1_555
H33 C33 1_555 1_555
C34 N2 1_555 1_555
H34 C34 1_555 1_555
H35 C34 1_555 1_555
H36 C34 1_555 1_555
C35 O21 1_555 1_555
C36 C35 1_555 1_555
H37 C36 1_555 1_555
H38 C36 1_555 1_555
C37 C36 1_555 1_555
H39 C37 1_555 1_555
H40 C37 1_555 1_555
C38 N3 1_555 1_555
H41 C38 1_555 1_555
H42 C38 1_555 1_555
C39 N3 1_555 1_555
H43 C39 1_555 1_555
H44 C39 1_555 1_555
H45 C39 1_555 1_555
U1B O14 1_555 1_555
U2C O11 1_555 1_555
U3_2 O12 1_555 1_555
U3C O16 1_555 1_555
O11C U2 1_555 1_555
O12_2 U3 1_555 1_555
O14B U1 1_555 1_555
O16C U3 1_555 1_555
O8 C8 1_555 1_555
O10 C10 1_555 1_555
O18 C24 1_555 1_555
C5 C6 1_555 1_555
C7 C8 1_555 1_555
C9 C10 1_555 1_555
C17 C18 1_555 1_555
C19 C20 1_555 1_555
C21 C22 1_555 1_555
C23 C24 1_555 1_555
C27 C28 1_555 1_555
C32 C33 1_555 1_555
C37 C38 1_555 1_555

#END
