
#######################################################################
#
#                 Cambridge Crystallographic Data Centre
#                                CCDC 
#
#######################################################################
#
# If this CIF has been generated from an entry in the Cambridge 
# Structural Database, then it will include bibliographic, chemical, 
# crystal, experimental, refinement or atomic coordinate data resulting 
# from the CCDC's data processing and validation procedures.
#
#######################################################################

data_SOLBAY
_symmetry_cell_setting           triclinic
_symmetry_space_group_name_H-M   'P -1'
_symmetry_Int_Tables_number      2
_space_group_name_Hall           '-P 1'
loop_
_symmetry_equiv_pos_site_id
_symmetry_equiv_pos_as_xyz
1 x,y,z
2 -x,-y,-z
_cell_length_a                   9.5793(5)
_cell_length_b                   11.5325(6)
_cell_length_c                   14.0533(8)
_cell_angle_alpha                84.9710(10)
_cell_angle_beta                 72.1400(10)
_cell_angle_gamma                78.8080(10)
_cell_volume                     1448.94
loop_
_atom_site_label
_atom_site_type_symbol
_atom_site_fract_x
_atom_site_fract_y
_atom_site_fract_z
U1 U 0.0000 0.0000 0.5000
U2 U 0.28376(3) 0.46385(2) 0.035316(18)
Zn1 Zn 0.51337(9) 0.16375(7) 0.29962(6)
P1 P 0.1661(2) 0.26357(17) 0.44806(13)
P2 P 0.10042(19) 0.59768(17) 0.84972(13)
P3 P 0.46097(19) 0.41601(16) 0.19419(12)
P4 P 0.3651(2) 0.83473(17) 0.50874(14)
O1 O -0.0412(6) 0.0460(5) 0.6237(4)
O2 O 0.3683(5) 0.3203(4) -0.0070(3)
O3 O 0.2023(5) 0.6076(4) 0.0787(4)
O4 O 0.0657(6) 0.1791(4) 0.4418(4)
O5 O 0.3285(5) 0.2106(5) 0.4160(4)
O6 O 0.1332(5) 0.3796(4) 0.3872(4)
H1 H 0.1932 0.3759 0.3311
O7 O 0.1949(5) 0.5053(4) 0.8978(3)
O8 O -0.0657(5) 0.6057(5) 0.8964(4)
O9 O 0.1357(5) 0.7235(4) 0.8574(4)
H2 H 0.2261 0.7210 0.8382
O10 O 0.5619(5) 0.3030(4) 0.2093(3)
O11 O 0.3004(5) 0.4009(4) 0.2054(3)
O12 O 0.5123(5) 0.4685(4) 0.0877(3)
O13 O 0.5160(6) 0.8746(5) 0.4480(4)
H3 H 0.5768 0.8552 0.4793
O14 O 0.3650(6) 0.8014(5) 0.6136(4)
O15 O 0.2410(6) 0.9328(5) 0.4974(4)
N1 N 0.6733(7) 0.0190(5) 0.2355(4)
N2 N 0.4034(7) 0.0865(5) 0.2143(4)
C1 C 0.1137(8) 0.3105(7) 0.5728(5)
H4 H 0.0058 0.3281 0.5971
H5 H 0.1466 0.2450 0.6136
C2 C 0.1743(8) 0.4188(7) 0.5892(5)
H6 H 0.2822 0.4036 0.5637
H7 H 0.1373 0.4866 0.5522
C3 C 0.1276(9) 0.4473(7) 0.6997(5)
H8 H 0.0232 0.4419 0.7288
H9 H 0.1843 0.3881 0.7333
C4 C 0.1499(8) 0.5691(6) 0.7195(5)
H10 H 0.0900 0.6287 0.6883
H11 H 0.2535 0.5759 0.6885
C5 C 0.4574(8) 0.5218(6) 0.2807(5)
H12 H 0.4320 0.4862 0.3476
H13 H 0.5566 0.5401 0.2659
C6 C 0.3479(9) 0.6368(7) 0.2797(6)
H14 H 0.2472 0.6218 0.3101
H15 H 0.3572 0.6629 0.2109
C7 C 0.3722(10) 0.7363(7) 0.3353(5)
H16 H 0.4720 0.7524 0.3032
H17 H 0.3027 0.8073 0.3278
C8 C 0.3536(9) 0.7121(7) 0.4460(5)
H18 H 0.4301 0.6464 0.4537
H19 H 0.2577 0.6885 0.4774
C9 C 0.2672(9) 0.1275(7) 0.2037(6)
H20 H 0.2117 0.1962 0.2357
C10 C 0.2073(9) 0.0713(7) 0.1474(6)
H21 H 0.1129 0.1018 0.1414
C11 C 0.2874(9) -0.0290(7) 0.1005(6)
H22 H 0.2476 -0.0689 0.0632
C12 C 0.4291(9) -0.0718(7) 0.1086(6)
H23 H 0.4856 -0.1399 0.0761
C13 C 0.4858(8) -0.0119(7) 0.1657(5)
C14 C 0.6369(8) -0.0475(6) 0.1762(5)
C15 C 0.7380(9) -0.1421(7) 0.1271(6)
H24 H 0.7114 -0.1869 0.0858
C16 C 0.8773(9) -0.1698(7) 0.1393(6)
H25 H 0.9460 -0.2331 0.1065
C17 C 0.9134(9) -0.1023(7) 0.2006(6)
H26 H 1.0072 -0.1198 0.2102
C18 C 0.8090(8) -0.0072(7) 0.2488(5)
H27 H 0.8337 0.0385 0.2905
U2A U -0.28376(3) -0.46385(2) 0.964684(18)
Zn1A Zn -0.51337(9) -0.16375(7) 0.70038(6)
P1A P -0.1661(2) -0.26357(17) 0.55194(13)
P2A P -0.10042(19) -0.59768(17) 0.15028(13)
P3A P -0.46097(19) -0.41601(16) 0.80581(12)
P4A P -0.3651(2) -0.83473(17) 0.49126(14)
O1A O 0.0412(6) -0.0460(5) 0.3763(4)
O2A O -0.3683(5) -0.3203(4) 1.0070(3)
O3A O -0.2023(5) -0.6076(4) 0.9213(4)
O4A O -0.0657(6) -0.1791(4) 0.5582(4)
O5A O -0.3285(5) -0.2106(5) 0.5840(4)
O6A O -0.1332(5) -0.3796(4) 0.6128(4)
H1A H -0.1932 -0.3759 0.6689
O7A O -0.1949(5) -0.5053(4) 0.1022(3)
O8A O 0.0657(5) -0.6057(5) 0.1036(4)
O9A O -0.1357(5) -0.7235(4) 0.1426(4)
H2A H -0.2261 -0.7210 0.1618
O10A O -0.5619(5) -0.3030(4) 0.7907(3)
O11A O -0.3004(5) -0.4009(4) 0.7946(3)
O12A O -0.5123(5) -0.4685(4) 0.9123(3)
O13A O -0.5160(6) -0.8746(5) 0.5520(4)
H3A H -0.5768 -0.8552 0.5207
O14A O -0.3650(6) -0.8014(5) 0.3864(4)
O15A O -0.2410(6) -0.9328(5) 0.5026(4)
N1A N -0.6733(7) -0.0190(5) 0.7645(4)
N2A N -0.4034(7) -0.0865(5) 0.7857(4)
C1A C -0.1137(8) -0.3105(7) 0.4272(5)
H4A H -0.0058 -0.3281 0.4029
H5A H -0.1466 -0.2450 0.3864
C2A C -0.1743(8) -0.4188(7) 0.4108(5)
H6A H -0.2822 -0.4036 0.4363
H7A H -0.1373 -0.4866 0.4478
C3A C -0.1276(9) -0.4473(7) 0.3003(5)
H8A H -0.0232 -0.4419 0.2712
H9A H -0.1843 -0.3881 0.2667
C4A C -0.1499(8) -0.5691(6) 0.2805(5)
H10A H -0.0900 -0.6287 0.3117
H11A H -0.2535 -0.5759 0.3115
C5A C -0.4574(8) -0.5218(6) 0.7193(5)
H12A H -0.4320 -0.4862 0.6524
H13A H -0.5566 -0.5401 0.7341
C6A C -0.3479(9) -0.6368(7) 0.7203(6)
H14A H -0.2472 -0.6218 0.6899
H15A H -0.3572 -0.6629 0.7891
C7A C -0.3722(10) -0.7363(7) 0.6647(5)
H16A H -0.4720 -0.7524 0.6968
H17A H -0.3027 -0.8073 0.6722
C8A C -0.3536(9) -0.7121(7) 0.5540(5)
H18A H -0.4301 -0.6464 0.5463
H19A H -0.2577 -0.6885 0.5226
C9A C -0.2672(9) -0.1275(7) 0.7963(6)
H20A H -0.2117 -0.1962 0.7643
C10A C -0.2073(9) -0.0713(7) 0.8526(6)
H21A H -0.1129 -0.1018 0.8586
C11A C -0.2874(9) 0.0290(7) 0.8995(6)
H22A H -0.2476 0.0689 0.9368
C12A C -0.4291(9) 0.0718(7) 0.8914(6)
H23A H -0.4856 0.1399 0.9239
C13A C -0.4858(8) 0.0119(7) 0.8343(5)
C14A C -0.6369(8) 0.0475(6) 0.8238(5)
C15A C -0.7380(9) 0.1421(7) 0.8729(6)
H24A H -0.7114 0.1869 0.9142
C16A C -0.8773(9) 0.1698(7) 0.8607(6)
H25A H -0.9460 0.2331 0.8935
C17A C -0.9134(9) 0.1023(7) 0.7994(6)
H26A H -1.0072 0.1198 0.7898
C18A C -0.8090(8) 0.0072(7) 0.7512(5)
H27A H -0.8337 -0.0385 0.7095
U1_2 U 0.0000 -1.0000 0.5000
U1_3 U 0.0000 1.0000 0.5000
U2_2 U -0.71624(3) -0.53615(2) 1.035316(18)
U2_3 U 0.28376(3) -0.53615(2) 0.035316(18)
U2_4 U 0.28376(3) 0.46385(2) 1.035316(18)
U2A_2 U -0.28376(3) -0.46385(2) -0.035316(18)
U2A_3 U -0.28376(3) 0.53615(2) 0.964684(18)
U2A_4 U 0.71624(3) 0.53615(2) -0.035316(18)
Zn1_2 Zn -0.48663(9) -0.83625(7) 0.29962(6)
Zn1A_2 Zn 0.48663(9) 0.83625(7) 0.70038(6)
O7_2 O 0.1949(5) 0.5053(4) -0.1022(3)
O7A_2 O -0.1949(5) -0.5053(4) 1.1022(3)
O8_2 O -0.0657(5) -0.3943(5) 0.8964(4)
O8A_2 O 0.0657(5) 0.3943(5) 0.1036(4)
O12_2 O -0.4877(5) -0.5315(4) 1.0877(3)
O12A_2 O 0.4877(5) 0.5315(4) -0.0877(3)
O14_2 O -0.6350(6) -0.1986(5) 0.6136(4)
O14A_2 O 0.6350(6) 0.1986(5) 0.3864(4)
O15_2 O 0.2410(6) -0.0672(5) 0.4974(4)
O15A_2 O -0.2410(6) 0.0672(5) 0.5026(4)
loop_
_geom_bond_atom_site_label_1
_geom_bond_atom_site_label_2
_geom_bond_site_symmetry_1
_geom_bond_site_symmetry_2
U1 O1 1_555 1_555
U2 O2 1_555 1_555
Zn1 O5 1_555 1_555
P1 O4 1_555 1_555
P2 O7 1_555 1_555
P3 O10 1_555 1_555
P4 O13 1_555 1_555
O3 U2 1_555 1_555
O4 U1 1_555 1_555
O5 P1 1_555 1_555
O6 P1 1_555 1_555
H1 O6 1_555 1_555
O7 U2_4 1_555 1_555
O8 P2 1_555 1_555
O9 P2 1_555 1_555
H2 O9 1_555 1_555
O10 Zn1 1_555 1_555
O11 U2 1_555 1_555
O12 U2 1_555 1_555
O13 H3 1_555 1_555
O14 P4 1_555 1_555
O15 P4 1_555 1_555
N1 Zn1 1_555 1_555
N2 Zn1 1_555 1_555
C1 P1 1_555 1_555
H4 C1 1_555 1_555
H5 C1 1_555 1_555
C2 C1 1_555 1_555
H6 C2 1_555 1_555
H7 C2 1_555 1_555
C3 C2 1_555 1_555
H8 C3 1_555 1_555
H9 C3 1_555 1_555
C4 P2 1_555 1_555
H10 C4 1_555 1_555
H11 C4 1_555 1_555
C5 P3 1_555 1_555
H12 C5 1_555 1_555
H13 C5 1_555 1_555
C6 C5 1_555 1_555
H14 C6 1_555 1_555
H15 C6 1_555 1_555
C7 C6 1_555 1_555
H16 C7 1_555 1_555
H17 C7 1_555 1_555
C8 P4 1_555 1_555
H18 C8 1_555 1_555
H19 C8 1_555 1_555
C9 N2 1_555 1_555
H20 C9 1_555 1_555
C10 C9 1_555 1_555
H21 C10 1_555 1_555
C11 C10 1_555 1_555
H22 C11 1_555 1_555
C12 C11 1_555 1_555
H23 C12 1_555 1_555
C13 N2 1_555 1_555
C14 N1 1_555 1_555
C15 C14 1_555 1_555
H24 C15 1_555 1_555
C16 C15 1_555 1_555
H25 C16 1_555 1_555
C17 C16 1_555 1_555
H26 C17 1_555 1_555
C18 N1 1_555 1_555
H27 C18 1_555 1_555
U2A O2A 1_555 1_555
Zn1A O5A 1_555 1_555
P1A O4A 1_555 1_555
P2A O7A 1_555 1_555
P3A O10A 1_555 1_555
P4A O13A 1_555 1_555
O1A U1 1_555 1_555
O3A U2A 1_555 1_555
O4A U1 1_555 1_555
O5A P1A 1_555 1_555
O6A P1A 1_555 1_555
H1A O6A 1_555 1_555
O7A U2A_2 1_555 1_555
O8A P2A 1_555 1_555
O9A P2A 1_555 1_555
H2A O9A 1_555 1_555
O10A Zn1A 1_555 1_555
O11A U2A 1_555 1_555
O12A U2A 1_555 1_555
O13A H3A 1_555 1_555
O14A P4A 1_555 1_555
O15A P4A 1_555 1_555
N1A Zn1A 1_555 1_555
N2A Zn1A 1_555 1_555
C1A P1A 1_555 1_555
H4A C1A 1_555 1_555
H5A C1A 1_555 1_555
C2A C1A 1_555 1_555
H6A C2A 1_555 1_555
H7A C2A 1_555 1_555
C3A C2A 1_555 1_555
H8A C3A 1_555 1_555
H9A C3A 1_555 1_555
C4A P2A 1_555 1_555
H10A C4A 1_555 1_555
H11A C4A 1_555 1_555
C5A P3A 1_555 1_555
H12A C5A 1_555 1_555
H13A C5A 1_555 1_555
C6A C5A 1_555 1_555
H14A C6A 1_555 1_555
H15A C6A 1_555 1_555
C7A C6A 1_555 1_555
H16A C7A 1_555 1_555
H17A C7A 1_555 1_555
C8A P4A 1_555 1_555
H18A C8A 1_555 1_555
H19A C8A 1_555 1_555
C9A N2A 1_555 1_555
H20A C9A 1_555 1_555
C10A C9A 1_555 1_555
H21A C10A 1_555 1_555
C11A C10A 1_555 1_555
H22A C11A 1_555 1_555
C12A C11A 1_555 1_555
H23A C12A 1_555 1_555
C13A N2A 1_555 1_555
C14A N1A 1_555 1_555
C15A C14A 1_555 1_555
H24A C15A 1_555 1_555
C16A C15A 1_555 1_555
H25A C16A 1_555 1_555
C17A C16A 1_555 1_555
H26A C17A 1_555 1_555
C18A N1A 1_555 1_555
H27A C18A 1_555 1_555
U1_2 O15A 1_555 1_555
U1_3 O15 1_555 1_555
U2_2 O12A 1_555 1_555
U2_3 O8A 1_555 1_555
U2A_3 O8 1_555 1_555
U2A_4 O12 1_555 1_555
Zn1_2 O14A 1_555 1_555
Zn1A_2 O14 1_555 1_555
O7_2 U2 1_555 1_555
O7A_2 U2A 1_555 1_555
O8_2 U2A 1_555 1_555
O8A_2 U2 1_555 1_555
O12_2 U2A 1_555 1_555
O12A_2 U2 1_555 1_555
O14_2 Zn1A 1_555 1_555
O14A_2 Zn1 1_555 1_555
O15_2 U1 1_555 1_555
O15A_2 U1 1_555 1_555
P3 O11 1_555 1_555
P3 O12 1_555 1_555
C3 C4 1_555 1_555
C7 C8 1_555 1_555
C12 C13 1_555 1_555
C13 C14 1_555 1_555
C17 C18 1_555 1_555
P3A O11A 1_555 1_555
P3A O12A 1_555 1_555
C3A C4A 1_555 1_555
C7A C8A 1_555 1_555
C12A C13A 1_555 1_555
C13A C14A 1_555 1_555
C17A C18A 1_555 1_555
U2_2 O12_2 1_555 1_555
U2A_4 O12A_2 1_555 1_555

#END
