
#######################################################################
#
#                 Cambridge Crystallographic Data Centre
#                                CCDC 
#
#######################################################################
#
# If this CIF has been generated from an entry in the Cambridge 
# Structural Database, then it will include bibliographic, chemical, 
# crystal, experimental, refinement or atomic coordinate data resulting 
# from the CCDC's data processing and validation procedures.
#
#######################################################################

data_SOLCIH
_symmetry_cell_setting           monoclinic
_symmetry_space_group_name_H-M   'C 2/c'
_symmetry_Int_Tables_number      15
_space_group_name_Hall           '-C 2yn'
loop_
_symmetry_equiv_pos_site_id
_symmetry_equiv_pos_as_xyz
1 x,y,z
2 -x,y,1/2-z
3 1/2+x,1/2+y,z
4 1/2-x,1/2+y,1/2-z
5 -x,-y,-z
6 x,-y,1/2+z
7 1/2-x,1/2-y,-z
8 1/2+x,1/2-y,1/2+z
_cell_length_a                   44.582(5)
_cell_length_b                   14.441(5)
_cell_length_c                   29.792(5)
_cell_angle_alpha                90
_cell_angle_beta                 120.920(5)
_cell_angle_gamma                90
_cell_volume                     16454.5
loop_
_atom_site_label
_atom_site_type_symbol
_atom_site_fract_x
_atom_site_fract_y
_atom_site_fract_z
Pb1 Pb 0.889961(10) 0.12835(2) 0.654939(13)
Pb2 Pb 0.946423(10) 0.24909(2) 0.608434(13)
Pb3 Pb 0.873268(10) 0.36329(2) 0.603340(13)
Pb4 Pb 0.804321(10) 0.17447(2) 0.521222(14)
Pb5 Pb 0.815212(11) 0.24530(2) 0.647622(15)
Pb6 Pb 0.953837(10) 0.31533(2) 0.737848(13)
F1 F 0.9580(3) 0.7189(5) 0.5246(4)
F2 F 0.9154(3) 0.7509(6) 0.5278(4)
F3 F 0.9593(2) 0.8407(4) 0.5618(3)
F4 F 0.9364(2) 0.7790(5) 0.6801(3)
F5 F 0.9124(2) 0.8497(6) 0.6061(4)
F6 F 0.9187(2) 0.9198(5) 0.6751(4)
F7 F 0.8917(3) 0.5692(5) 0.4675(4)
F8 F 0.8599(3) 0.5873(6) 0.3860(4)
F9 F 0.9137(2) 0.5582(5) 0.4177(3)
F10 F 0.9641(6) 0.4064(16) 0.3672(9)
F11 F 0.9471(4) 0.4074(15) 0.4185(5)
F12 F 0.9300(6) 0.2766(13) 0.3565(7)
F13 F 0.7906(2) -0.1287(6) 0.4039(3)
F14 F 0.8034(2) -0.1096(7) 0.3439(3)
F15 F 0.8233(2) -0.2284(5) 0.3935(4)
F16 F 0.8392(3) 0.0536(6) 0.3369(4)
F17 F 0.8912(4) 0.0803(5) 0.3588(4)
F18 F 0.8530(3) 0.0583(5) 0.2786(3)
F19 F 0.8755(4) -0.2252(6) 0.7248(3)
F20 F 0.8652(2) -0.3353(5) 0.6712(3)
F21 F 0.8302(4) -0.3138(7) 0.7013(4)
F22 F 0.8596(3) -0.2714(6) 0.5685(4)
F23 F 0.8174(3) -0.2656(6) 0.4920(4)
F24 F 0.8536(3) -0.3763(5) 0.5138(5)
O1 O 0.9791(2) 0.3910(4) 0.6734(3)
O2 O 0.9348(2) 0.4201(4) 0.5936(3)
O3 O 1.04825(19) 1.1495(4) 0.7419(3)
O4 O 0.99179(18) 1.1802(4) 0.6954(2)
O5 O 0.8359(2) 0.1966(5) 0.4731(3)
O6 O 0.88082(19) 0.2725(4) 0.5367(2)
O7 O 0.90541(19) 0.5588(4) 0.1985(2)
O8 O 0.84921(19) 0.5917(4) 0.1625(3)
O9 O 0.90947(18) 0.0879(4) 0.5905(3)
O10 O 0.85459(18) 0.0482(4) 0.5621(2)
O11 O 0.88030(19) -0.2303(4) 0.2194(2)
O12 O 0.9241(2) -0.3031(4) 0.2871(3)
O13 O 0.7856(2) 0.1022(4) 0.5857(3)
O14 O 0.8312(2) 0.0798(4) 0.6656(3)
O15 O 0.77312(19) -0.6827(4) 0.5511(3)
O16 O 0.80232(18) -0.6598(4) 0.5096(3)
O17 O 0.84424(17) 0.2281(4) 0.6042(2)
O18 O 0.91796(17) 0.2630(4) 0.6531(2)
C1 C 0.9611(3) 0.4471(6) 0.6358(4)
C2 C 0.9713(3) 0.5462(6) 0.6423(4)
C3 C 0.9976(3) 0.5801(6) 0.6906(4)
H1 H 1.0099 0.5394 0.7183
C4 C 1.0054(3) 0.6741(6) 0.6976(4)
H2 H 1.0226 0.6955 0.7303
C5 C 0.9880(3) 0.7376(6) 0.6561(4)
C6 C 0.9638(3) 0.7019(6) 0.6064(4)
C7 C 0.9549(3) 0.6071(6) 0.6007(4)
H3 H 0.9375 0.5851 0.5683
C8 C 0.9505(4) 0.7571(7) 0.5595(5)
C9 C 0.9948(3) 0.8384(6) 0.6689(4)
C10 C 0.9704(3) 0.8969(6) 0.6704(4)
C11 C 0.9772(3) 0.9893(6) 0.6814(4)
H4 H 0.9596 1.0282 0.6783
C12 C 1.0099(3) 1.0255(6) 0.6970(4)
C13 C 1.0351(3) 0.9676(6) 0.6976(4)
H5 H 1.0572 0.9905 0.7077
C14 C 1.0272(3) 0.8771(6) 0.6834(4)
H6 H 1.0441 0.8396 0.6833
C15 C 0.9366(4) 0.8610(8) 0.6606(6)
C16 C 1.0169(3) 1.1248(6) 0.7121(4)
C17 C 0.8609(3) 0.2510(6) 0.4895(4)
C18 C 0.8666(3) 0.2950(6) 0.4487(4)
C19 C 0.8786(4) 0.3870(8) 0.4557(5)
H7 H 0.8857 0.4168 0.4873
C20 C 0.8799(4) 0.4332(8) 0.4168(5)
C21 C 0.8881(5) 0.5329(10) 0.4239(6)
C22 C 0.8730(3) 0.3879(7) 0.3717(4)
C23 C 0.8610(4) 0.2975(7) 0.3650(4)
H8 H 0.8554 0.2664 0.3343
C24 C 0.8570(3) 0.2523(7) 0.4020(4)
H9 H 0.8478 0.1927 0.3956
C25 C 0.8749(3) 0.4345(6) 0.3284(4)
C26 C 0.8461(4) 0.4797(9) 0.2885(5)
H10 H 0.8258 0.4833 0.2900
C27 C 0.8465(3) 0.5190(7) 0.2472(4)
H11 H 0.8266 0.5480 0.2208
C28 C 0.8768(3) 0.5156(6) 0.2444(4)
C29 C 0.9055(3) 0.4712(7) 0.2837(4)
H12 H 0.9257 0.4672 0.2818
C30 C 0.9053(4) 0.4321(8) 0.3262(5)
C31 C 0.9317 0.3733 0.3614
C32 C 0.8771(3) 0.5581(6) 0.1988(4)
C33 C 0.8815(3) 0.0502(6) 0.5570(4)
C34 C 0.8793(3) 0.0071(6) 0.5108(4)
C35 C 0.9085(3) 0.0138(6) 0.5039(4)
H13 H 0.9286 0.0444 0.5286
C36 C 0.9069(3) -0.0255(8) 0.4602(5)
H14 H 0.9260 -0.0208 0.4557
C37 C 0.8768(3) -0.0720(7) 0.4230(4)
C38 C 0.8481(3) -0.0811(7) 0.4311(4)
C39 C 0.8163(4) -0.1382(10) 0.3932(5)
C40 C 0.8780(3) -0.1195(7) 0.3785(4)
C41 C 0.8502(3) -0.0413(7) 0.4743(4)
H15 H 0.8313 -0.0471 0.4793
C42 C 0.8728(4) -0.0714(6) 0.3340(4)
C43 C 0.8886(3) -0.2111(7) 0.3849(4)
H16 H 0.8917 -0.2438 0.4139
C44 C 0.8945(3) -0.2554(6) 0.3483(4)
H17 H 0.9024 -0.3163 0.3535
C45 C 0.8885(3) -0.2066(7) 0.3037(4)
C46 C 0.8769(3) -0.1174(7) 0.2967(4)
H18 H 0.8715 -0.0866 0.2660
C47 C 0.8635(6) 0.0302(9) 0.3266(6)
C48 C 0.8987(4) -0.2506(7) 0.2680(4)
C49 C 0.8076(3) 0.0477(7) 0.6211(5)
C50 C 0.8066(3) -0.0514(7) 0.6109(4)
C51 C 0.8272(4) -0.1132(7) 0.6491(5)
H19 H 0.8418 -0.0910 0.6829
C52 C 0.7858(4) -0.0854(8) 0.5602(5)
H20 H 0.7715 -0.0453 0.5330
C53 C 0.7866(4) -0.1778(7) 0.5503(5)
H21 H 0.7736 -0.1982 0.5159
C54 C 0.8054(3) -0.2414(7) 0.5885(4)
C55 C 0.8276(4) -0.2068(7) 0.6403(5)
C56 C 0.8507(6) -0.2694(10) 0.6840(6)
C57 C 0.8020(3) -0.3416(7) 0.5753(4)
C58 C 0.8150(3) -0.3794(7) 0.5460(5)
C59 C 0.8360(4) -0.3231(8) 0.5292(7)
C60 C 0.8087(3) -0.4725(6) 0.5299(4)
H22 H 0.8168 -0.4965 0.5090
C61 C 0.7904(3) -0.5279(6) 0.5457(4)
C62 C 0.7768(3) -0.4925(6) 0.5738(4)
H23 H 0.7641 -0.5299 0.5835
C63 C 0.7824(3) -0.3980(6) 0.5883(5)
H24 H 0.7728 -0.3732 0.6069
C64 C 0.7876(3) -0.6309(6) 0.5344(4)
Pb1A Pb 1.110039(10) 1.12835(2) 0.845061(13)
Pb1E Pb 0.889961(10) -0.12835(2) 0.154939(13)
Pb2_2 Pb 0.946423(10) 1.24909(2) 0.608434(13)
Pb3E Pb 0.873268(10) 0.63671(2) 0.103340(13)
Pb4_2 Pb 0.804321(10) -0.82553(2) 0.521222(14)
Pb5_2 Pb 0.815212(11) -0.75470(2) 0.647622(15)
Pb5E Pb 0.815212(11) -0.24530(2) 0.147622(15)
Pb5E_2 Pb 0.815212(11) 0.75470(2) 0.147622(15)
Pb6A Pb 1.046163(10) 1.31533(2) 0.762152(13)
Pb6E Pb 0.953837(10) -0.31533(2) 0.237848(13)
Pb6E_2 Pb 0.953837(10) 0.68467(2) 0.237848(13)
O3A O 0.95175(19) 0.1495(4) 0.7581(3)
O4_2 O 0.99179(18) 0.1802(4) 0.6954(2)
O7E O 0.90541(19) 0.4412(4) 0.6985(2)
O8E O 0.84921(19) 0.4083(4) 0.6625(3)
O11E O 0.88030(19) 0.2303(4) 0.7194(2)
O12E O 0.9241(2) 0.3031(4) 0.7871(3)
O15_2 O 0.77312(19) 0.3173(4) 0.5511(3)
O16_2 O 0.80232(18) 0.3402(4) 0.5096(3)
O19 O 0.7173(6) 0.4024(13) 0.5993(8)
C65 C 0.7472(6) 0.3080(15) 0.6666(9)
C66 C 0.7731(8) 0.313(2) 0.7222(11)
C67 C 0.7400(8) 0.408(2) 0.6576(10)
C68 C 0.7371 0.2231 0.6365
C69 C 0.7443 0.1279 0.6526
C70 C 0.7741(7) 0.143(2) 0.7057(8)
C71 C 0.7896 0.2211 0.7423
O20 O 0.9594(15) 0.473(2) 0.5107(15)
O21? O 1.0121 0.3279 0.6164
C72? C 1.0148(6) 0.1566(13) 0.5900(8)
C73? C 1.0109(7) 0.0588(15) 0.5732(9)
C74? C 1.0032 0.2097 0.5518
C75? C 0.9852 0.1908 0.4966
C76? C 0.9837 0.0920 0.4820
C77? C 1.0009(5) 0.3142(9) 0.5570(7)
C78? C 0.9997(8) 0.0141(19) 0.5240(9)
loop_
_geom_bond_atom_site_label_1
_geom_bond_atom_site_label_2
_geom_bond_site_symmetry_1
_geom_bond_site_symmetry_2
Pb1 O9 1_555 1_555
Pb2 O1 1_555 1_555
Pb3 O6 1_555 1_555
Pb4 O5 1_555 1_555
Pb5 O13 1_555 1_555
Pb6 O1 1_555 1_555
F1 C8 1_555 1_555
F2 C8 1_555 1_555
F3 C8 1_555 1_555
F4 C15 1_555 1_555
F5 C15 1_555 1_555
F6 C15 1_555 1_555
F7 C21 1_555 1_555
F8 C21 1_555 1_555
F9 C21 1_555 1_555
F10 C31 1_555 1_555
F11 C31 1_555 1_555
F12 C31 1_555 1_555
F13 C39 1_555 1_555
F14 C39 1_555 1_555
F15 C39 1_555 1_555
F16 C47 1_555 1_555
F17 C47 1_555 1_555
F18 C47 1_555 1_555
F19 C56 1_555 1_555
F20 C56 1_555 1_555
F21 C56 1_555 1_555
F22 C59 1_555 1_555
F23 C59 1_555 1_555
F24 C59 1_555 1_555
O1 C1 1_555 1_555
O2 Pb2 1_555 1_555
O3 C16 1_555 1_555
O4 C16 1_555 1_555
O5 C17 1_555 1_555
O6 Pb2 1_555 1_555
O7 C32 1_555 1_555
O8 C32 1_555 1_555
O9 Pb2 1_555 1_555
O10 Pb1 1_555 1_555
O11 C48 1_555 1_555
O12 C48 1_555 1_555
O13 Pb4 1_555 1_555
O14 Pb1 1_555 1_555
O15 C64 1_555 1_555
O16 C64 1_555 1_555
O17 Pb1 1_555 1_555
O18 Pb1 1_555 1_555
C1 O2 1_555 1_555
C2 C1 1_555 1_555
C3 C2 1_555 1_555
H1 C3 1_555 1_555
C4 C3 1_555 1_555
H2 C4 1_555 1_555
C5 C4 1_555 1_555
C6 C5 1_555 1_555
C7 C2 1_555 1_555
H3 C7 1_555 1_555
C8 C6 1_555 1_555
C9 C5 1_555 1_555
C10 C9 1_555 1_555
C11 C10 1_555 1_555
H4 C11 1_555 1_555
C12 C11 1_555 1_555
C13 C12 1_555 1_555
H5 C13 1_555 1_555
C14 C9 1_555 1_555
H6 C14 1_555 1_555
C15 C10 1_555 1_555
C16 C12 1_555 1_555
C17 O6 1_555 1_555
C18 C17 1_555 1_555
C19 C18 1_555 1_555
H7 C19 1_555 1_555
C20 C19 1_555 1_555
C21 C20 1_555 1_555
C22 C20 1_555 1_555
C23 C22 1_555 1_555
H8 C23 1_555 1_555
C24 C18 1_555 1_555
H9 C24 1_555 1_555
C25 C22 1_555 1_555
C26 C25 1_555 1_555
H10 C26 1_555 1_555
C27 C26 1_555 1_555
H11 C27 1_555 1_555
C28 C27 1_555 1_555
C29 C28 1_555 1_555
H12 C29 1_555 1_555
C30 C25 1_555 1_555
C31 C30 1_555 1_555
C32 C28 1_555 1_555
C33 O9 1_555 1_555
C34 C33 1_555 1_555
C35 C34 1_555 1_555
H13 C35 1_555 1_555
C36 C35 1_555 1_555
H14 C36 1_555 1_555
C37 C36 1_555 1_555
C38 C37 1_555 1_555
C39 C38 1_555 1_555
C40 C37 1_555 1_555
C41 C34 1_555 1_555
H15 C41 1_555 1_555
C42 C40 1_555 1_555
C43 C40 1_555 1_555
H16 C43 1_555 1_555
C44 C43 1_555 1_555
H17 C44 1_555 1_555
C45 C44 1_555 1_555
C46 C42 1_555 1_555
H18 C46 1_555 1_555
C47 C42 1_555 1_555
C48 C45 1_555 1_555
C49 O13 1_555 1_555
C50 C49 1_555 1_555
C51 C50 1_555 1_555
H19 C51 1_555 1_555
C52 C50 1_555 1_555
H20 C52 1_555 1_555
C53 C52 1_555 1_555
H21 C53 1_555 1_555
C54 C53 1_555 1_555
C55 C51 1_555 1_555
C56 C55 1_555 1_555
C57 C54 1_555 1_555
C58 C57 1_555 1_555
C59 C58 1_555 1_555
C60 C58 1_555 1_555
H22 C60 1_555 1_555
C61 C60 1_555 1_555
C62 C61 1_555 1_555
H23 C62 1_555 1_555
C63 C57 1_555 1_555
H24 C63 1_555 1_555
C64 C61 1_555 1_555
O19 C67 1_555 1_555
C65 C66 1_555 1_555
C66 C71 1_555 1_555
C67 C65 1_555 1_555
C68 C65 1_555 1_555
C69 C68 1_555 1_555
C70 C69 1_555 1_555
C71 C70 1_555 1_555
Pb1A O3 1_555 1_555
Pb1E O11 1_555 1_555
Pb2_2 O4 1_555 1_555
Pb3E O7 1_555 1_555
Pb4_2 O15 1_555 1_555
Pb5_2 O15 1_555 1_555
Pb5E O11 1_555 1_555
Pb5E_2 O8 1_555 1_555
Pb6A O3 1_555 1_555
Pb6E O12 1_555 1_555
Pb6E_2 O7 1_555 1_555
O3A Pb1 1_555 1_555
O4_2 Pb2 1_555 1_555
O7E Pb3 1_555 1_555
O8E Pb3 1_555 1_555
O11E Pb1 1_555 1_555
O12E Pb6 1_555 1_555
O15_2 Pb4 1_555 1_555
O16_2 Pb4 1_555 1_555
Pb2 O18 1_555 1_555
Pb3 O17 1_555 1_555
Pb3 O18 1_555 1_555
Pb4 O10 1_555 1_555
Pb4 O17 1_555 1_555
Pb5 O14 1_555 1_555
Pb5 O17 1_555 1_555
Pb5 O8E 1_555 1_555
Pb5 O11E 1_555 1_555
Pb5 O15_2 1_555 1_555
Pb6 O18 1_555 1_555
Pb6 O3A 1_555 1_555
Pb6 O7E 1_555 1_555
O8 Pb3E 1_555 1_555
O10 C33 1_555 1_555
O14 C49 1_555 1_555
O16 Pb4_2 1_555 1_555
C6 C7 1_555 1_555
C13 C14 1_555 1_555
C23 C24 1_555 1_555
C29 C30 1_555 1_555
C38 C41 1_555 1_555
C45 C46 1_555 1_555
C54 C55 1_555 1_555
C62 C63 1_555 1_555

#END
