
#######################################################################
#
#                 Cambridge Crystallographic Data Centre
#                                CCDC 
#
#######################################################################
#
# If this CIF has been generated from an entry in the Cambridge 
# Structural Database, then it will include bibliographic, chemical, 
# crystal, experimental, refinement or atomic coordinate data resulting 
# from the CCDC's data processing and validation procedures.
#
#######################################################################

data_SOLCED
_symmetry_cell_setting           monoclinic
_symmetry_space_group_name_H-M   'C 2/c'
_symmetry_Int_Tables_number      15
_space_group_name_Hall           '-C 2yn'
loop_
_symmetry_equiv_pos_site_id
_symmetry_equiv_pos_as_xyz
1 x,y,z
2 -x,y,1/2-z
3 1/2+x,1/2+y,z
4 1/2-x,1/2+y,1/2-z
5 -x,-y,-z
6 x,-y,1/2+z
7 1/2-x,1/2-y,-z
8 1/2+x,1/2-y,1/2+z
_cell_length_a                   32.434(5)
_cell_length_b                   14.341(5)
_cell_length_c                   18.581(5)
_cell_angle_alpha                90
_cell_angle_beta                 114.342(5)
_cell_angle_gamma                90
_cell_volume                     7874.37
loop_
_atom_site_label
_atom_site_type_symbol
_atom_site_fract_x
_atom_site_fract_y
_atom_site_fract_z
Pb1 Pb 0.466681(11) 0.43173(2) 0.31178(2)
Pb2 Pb -0.017819(11) 0.88196(2) -0.03608(2)
Pb3 Pb -0.086171(11) 1.00121(2) 0.04911(2)
F1 F 0.2369(4) 0.6600(9) 0.0656(7)
F2 F 0.2683(3) 0.7728(9) 0.1424(8)
F3 F 0.2143(4) 0.8003(12) 0.0318(9)
F4 F 0.2660(4) 0.8321(6) 0.2873(10)
F5 F 0.3190(4) 0.7920(9) 0.3950(10)
F6 F 0.2501(4) 0.7568(14) 0.3717(9)
F7 F 0.3464(5) 0.9783(10) 0.1910(15)
F8 F 0.3522(6) 0.8689(8) 0.2736(15)
F9 F 0.4018(6) 0.9835(9) 0.3111(11)
F10 F 0.4123(10) 0.9308(11) -0.0173(10)
F11 F 0.3567(4) 0.9108(6) 0.0183(7)
F12 F 0.3475(8) 1.0201(8) -0.0584(11)
O1 O 0.3863(2) 0.4469(4) 0.2845(4)
O2 O 0.4085(2) 0.5168(5) 0.4021(4)
O3 O 0.0443(2) 0.8025(4) 0.1016(4)
O4 O 0.0642(2) 0.8381(4) 0.0039(4)
O5 O 0.4424(2) 1.3608(5) 0.1456(4)
O6 O 0.4105(2) 1.3273(4) 0.0195(4)
O7 O 0.4468(2) 0.5975(5) 0.2953(4)
O8 O 0.4547(2) 0.5662(4) 0.1846(4)
O9 O -0.1474 0.9754 0.1188
O10 O -0.0130(2) 0.9844(4) 0.0633(4)
C1 C 0.3793(3) 0.4987(6) 0.3321(6)
C2 C 0.3333(3) 0.5433(6) 0.3049(6)
C3 C 0.3279(4) 0.6265(8) 0.3366(7)
H1 H 0.3519 0.6517 0.3798
C4 C 0.2868(4) 0.6731(8) 0.3045(8)
C5 C 0.2497(3) 0.6380(7) 0.2401(6)
C6 C 0.2556(3) 0.5506(7) 0.2120(7)
H2 H 0.2313 0.5224 0.1715
C7 C 0.2968(3) 0.5058(6) 0.2433(7)
H3 H 0.3000 0.4488 0.2222
C8 C 0.2052(3) 0.6862(7) 0.1993(6)
C9 C 0.1948(3) 0.7328(8) 0.1284(7)
C10 C 0.1519(3) 0.7712(7) 0.0880(7)
H4 H 0.1451 0.8028 0.0408
C11 C 0.1192(3) 0.7629(6) 0.1175(6)
C12 C 0.1296(3) 0.7178(7) 0.1881(6)
H5 H 0.1081 0.7134 0.2090
C13 C 0.1730(3) 0.6780(8) 0.2290(7)
H6 H 0.1797 0.6463 0.2761
C14 C 0.0725(3) 0.8041(6) 0.0717(6)
C15 C 0.2279(5) 0.7433(14) 0.0921(12)
C16 C 0.4254(3) 1.3047(7) 0.0912(7)
C17 C 0.4458(3) 0.6221(6) 0.2308(6)
C18 C 0.4360(3) 0.7213(7) 0.2058(6)
C19 C 0.4569(4) 0.7598(8) 0.1594(8)
H7 H 0.4740 0.7229 0.1407
C20 C 0.4513(5) 0.8555(7) 0.1423(7)
H8 H 0.4658 0.8829 0.1138
C21 C 0.4239(4) 0.9108(7) 0.1679(8)
C22 C 0.4040(5) 0.8695(8) 0.2161(10)
C23 C 0.4122(4) 0.7767(8) 0.2346(9)
H9 H 0.4009 0.7502 0.2685
C24 C 0.4204(4) 1.0137(7) 0.1470(8)
C25 C 0.4412(4) 1.0785(7) 0.2064(8)
H10 H 0.4545 1.0591 0.2588
C26 C 0.4423(4) 1.1723(7) 0.1881(7)
H11 H 0.4563 1.2152 0.2284
C27 C 0.4228(3) 1.2024(7) 0.1109(6)
C28 C 0.3995(5) 1.0466(8) 0.0677(8)
C29 C 0.4030(4) 1.1385(8) 0.0519(8)
H12 H 0.3916 1.1582 -0.0004
C30 C 0.3716(15) 0.9821(14) 0.0032(13)
C31 C 0.3776(10) 0.9253(13) 0.247(3)
C32 C 0.2819(5) 0.7662(15) 0.3390(16)
C33 C -0.2063 0.9387 0.0329
H13 H -0.1841 0.9518 0.0112
C34 C -0.2094 0.8212 0.0208
H14 H -0.2256 0.8067 -0.0342
H15 H -0.2248 0.7947 0.0502
H16 H -0.1793 0.7959 0.0396
C35 C -0.1928 1.0202 0.0974
H17 H -0.1958 1.0830 0.0765
H18 H -0.2052 1.0142 0.1366
C36 C -0.2529 0.9600 -0.0473
H19 H -0.2621 0.9043 -0.0785
H20 H -0.2470 1.0083 -0.0776
H21 H -0.2765 0.9797 -0.0322
H22 H -0.1390 0.9516 0.1679
Pb1A Pb 0.533319(11) 1.43173(2) 0.18822(2)
Pb1C Pb 0.033319(11) 0.93173(2) 0.18822(2)
Pb2D Pb 0.017819(11) 1.11804(2) 0.03608(2)
Pb2G Pb 0.482181(11) 0.61804(2) 0.46392(2)
Pb3B Pb 0.413829(11) 0.50121(2) 0.04911(2)
Pb3B_2 Pb 0.413829(11) 1.50121(2) 0.04911(2)
Pb3D Pb 0.086171(11) 0.99879(2) -0.04911(2)
Pb3G Pb 0.413829(11) 0.49879(2) 0.54911(2)
O2G O -0.0915(2) 0.9832(5) -0.0979(4)
O3C O 0.4557(2) 0.3025(4) 0.3984(4)
O4D O -0.0642(2) 1.1619(4) -0.0039(4)
O5A O 0.5576(2) 0.3608(5) 0.3544(4)
O5B O -0.0576(2) 0.8608(5) 0.1456(4)
O6B O -0.0895(2) 0.8273(4) 0.0195(4)
O7G O -0.0532(2) 0.9025(5) -0.2047(4)
O8B O -0.0453(2) 1.0662(4) 0.1846(4)
O10C O 0.5130(2) 0.4844(4) 0.4367(4)
O10D O 0.0130(2) 1.0156(4) -0.0633(4)
loop_
_geom_bond_atom_site_label_1
_geom_bond_atom_site_label_2
_geom_bond_site_symmetry_1
_geom_bond_site_symmetry_2
Pb1 O1 1_555 1_555
Pb2 O3 1_555 1_555
Pb3 O9 1_555 1_555
F1 C15 1_555 1_555
F2 C15 1_555 1_555
F3 C15 1_555 1_555
F4 C32 1_555 1_555
F5 C32 1_555 1_555
F6 C32 1_555 1_555
F7 C31 1_555 1_555
F8 C31 1_555 1_555
F9 C31 1_555 1_555
F10 C30 1_555 1_555
F11 C30 1_555 1_555
F12 C30 1_555 1_555
O1 C1 1_555 1_555
O2 C1 1_555 1_555
O3 C14 1_555 1_555
O4 Pb2 1_555 1_555
O5 C16 1_555 1_555
O6 C16 1_555 1_555
O7 Pb1 1_555 1_555
O8 C17 1_555 1_555
O9 C35 1_555 1_555
O10 Pb2 1_555 1_555
C1 C2 1_555 1_555
C2 C3 1_555 1_555
C3 H1 1_555 1_555
C4 C3 1_555 1_555
C5 C4 1_555 1_555
C6 C5 1_555 1_555
H2 C6 1_555 1_555
C7 C2 1_555 1_555
H3 C7 1_555 1_555
C8 C5 1_555 1_555
C9 C8 1_555 1_555
C10 C9 1_555 1_555
H4 C10 1_555 1_555
C11 C10 1_555 1_555
C12 C11 1_555 1_555
H5 C12 1_555 1_555
C13 C8 1_555 1_555
H6 C13 1_555 1_555
C14 O4 1_555 1_555
C15 C9 1_555 1_555
C16 C27 1_555 1_555
C17 O7 1_555 1_555
C18 C17 1_555 1_555
C19 C18 1_555 1_555
H7 C19 1_555 1_555
C20 C19 1_555 1_555
H8 C20 1_555 1_555
C21 C20 1_555 1_555
C22 C21 1_555 1_555
C23 C18 1_555 1_555
H9 C23 1_555 1_555
C24 C21 1_555 1_555
C25 C24 1_555 1_555
H10 C25 1_555 1_555
C26 C25 1_555 1_555
H11 C26 1_555 1_555
C27 C26 1_555 1_555
C28 C24 1_555 1_555
C29 C27 1_555 1_555
H12 C29 1_555 1_555
C30 C28 1_555 1_555
C31 C22 1_555 1_555
C32 C4 1_555 1_555
C33 H13 1_555 1_555
C34 C33 1_555 1_555
H14 C34 1_555 1_555
H15 C34 1_555 1_555
H16 C34 1_555 1_555
C35 C33 1_555 1_555
H17 C35 1_555 1_555
H18 C35 1_555 1_555
C36 C33 1_555 1_555
H19 C36 1_555 1_555
H20 C36 1_555 1_555
H21 C36 1_555 1_555
H22 O9 1_555 1_555
Pb1A O5 1_555 1_555
Pb1C O3 1_555 1_555
Pb2D O10 1_555 1_555
Pb2G O2 1_555 1_555
Pb3B O8 1_555 1_555
Pb3B_2 O5 1_555 1_555
Pb3D O4 1_555 1_555
Pb3G O2 1_555 1_555
O2G Pb2 1_555 1_555
O3C Pb1 1_555 1_555
O4D Pb3 1_555 1_555
O5A Pb1 1_555 1_555
O5B Pb3 1_555 1_555
O6B Pb3 1_555 1_555
O7G Pb2 1_555 1_555
O8B Pb3 1_555 1_555
O10C Pb1 1_555 1_555
O10D Pb2 1_555 1_555
Pb3 O10 1_555 1_555
Pb3 O2G 1_555 1_555
O6 Pb3B_2 1_555 1_555
O7 Pb2G 1_555 1_555
O10 Pb1C 1_555 1_555
C6 C7 1_555 1_555
C11 C14 1_555 1_555
C12 C13 1_555 1_555
C22 C23 1_555 1_555
C28 C29 1_555 1_555
Pb1C O5B 1_555 1_555
Pb2D O4D 1_555 1_555
Pb2D O10D 1_555 1_555
Pb2G O10C 1_555 1_555
Pb3D O10D 1_555 1_555

#END
