
#######################################################################
#
#                 Cambridge Crystallographic Data Centre
#                                CCDC 
#
#######################################################################
#
# If this CIF has been generated from an entry in the Cambridge 
# Structural Database, then it will include bibliographic, chemical, 
# crystal, experimental, refinement or atomic coordinate data resulting 
# from the CCDC's data processing and validation procedures.
#
#######################################################################

data_SOLKEL
_symmetry_cell_setting           orthorhombic
_symmetry_space_group_name_H-M   'P 21 21 2'
_symmetry_Int_Tables_number      18
_space_group_name_Hall           'P 2 2ab'
loop_
_symmetry_equiv_pos_site_id
_symmetry_equiv_pos_as_xyz
1 x,y,z
2 -x,-y,z
3 1/2-x,1/2+y,-z
4 1/2+x,1/2-y,-z
_cell_length_a                   8.3985(3)
_cell_length_b                   15.0933(5)
_cell_length_c                   7.8538(2)
_cell_angle_alpha                90
_cell_angle_beta                 90
_cell_angle_gamma                90
_cell_volume                     995.556
loop_
_atom_site_label
_atom_site_type_symbol
_atom_site_fract_x
_atom_site_fract_y
_atom_site_fract_z
Ag1 Ag 0.109723(16) 0.126138(9) 0.089338(16)
C1 C 0.1433(2) 0.21463(12) 0.3422(2)
H1 H 0.0455 0.2012 0.3972
H2 H 0.1554 0.2690 0.2827
C2 C 0.2643(2) 0.15677(13) 0.3485(2)
H3 H 0.3597 0.1731 0.2916
C3 C 0.2630(2) 0.06790(12) 0.4378(2)
H4 H 0.2870 0.0214 0.3526
H5 H 0.3502 0.0674 0.5226
N1 N 0.11546(18) 0.04408(9) 0.52424(17)
C4 C 0.0000 0.0000 0.4336(3)
O1 O 0.0000 0.0000 0.2747(2)
C5 C 0.0853(2) 0.09059(11) 0.6863(2)
H6 H -0.0280 0.0832 0.7184
H7 H 0.1059 0.1547 0.6712
C6 C 0.1898(2) 0.05529(11) 0.8275(2)
H8 H 0.1644 -0.0004 0.8768
C7 C 0.3175(2) 0.09982(11) 0.8862(2)
H9 H 0.3447 0.1557 0.8386
H10 H 0.3802 0.0754 0.9752
Cl1 Cl -0.29678(5) 0.15296(3) 0.13528(5)
O2 O -0.16383(16) 0.15539(10) 0.01546(18)
O3 O -0.36597(17) 0.06596(8) 0.13348(19)
O4 O -0.24129(18) 0.17462(11) 0.30320(19)
O5 O -0.41503(16) 0.21675(8) 0.0808(2)
C1A C -0.1433(2) -0.21463(12) 0.3422(2)
H1A H -0.0455 -0.2012 0.3972
H2A H -0.1554 -0.2690 0.2827
C2A C -0.2643(2) -0.15677(13) 0.3485(2)
H3A H -0.3597 -0.1731 0.2916
C3A C -0.2630(2) -0.06790(12) 0.4378(2)
H4A H -0.2870 -0.0214 0.3526
H5A H -0.3502 -0.0674 0.5226
N1A N -0.11546(18) -0.04408(9) 0.52424(17)
C5A C -0.0853(2) -0.09059(11) 0.6863(2)
H6A H 0.0280 -0.0832 0.7184
H7A H -0.1059 -0.1547 0.6712
C6A C -0.1898(2) -0.05529(11) 0.8275(2)
H8A H -0.1644 0.0004 0.8768
C7A C -0.3175(2) -0.09982(11) 0.8862(2)
H9A H -0.3447 -0.1557 0.8386
H10A H -0.3802 -0.0754 0.9752
Ag1A Ag -0.109723(16) -0.126138(9) 0.089338(16)
Cl1A Cl 0.29678(5) -0.15296(3) 0.13528(5)
O2A O 0.16383(16) -0.15539(10) 0.01546(18)
O3A O 0.36597(17) -0.06596(8) 0.13348(19)
O4A O 0.24129(18) -0.17462(11) 0.30320(19)
O5A O 0.41503(16) -0.21675(8) 0.0808(2)
Ag1_2 Ag 0.109723(16) 0.126138(9) 1.089338(16)
Ag1A_2 Ag -0.109723(16) -0.126138(9) 1.089338(16)
C6_2 C 0.1898(2) 0.05529(11) -0.1725(2)
C6A_2 C -0.1898(2) -0.05529(11) -0.1725(2)
C7_2 C 0.3175(2) 0.09982(11) -0.1138(2)
C7A_2 C -0.3175(2) -0.09982(11) -0.1138(2)
loop_
_geom_bond_atom_site_label_1
_geom_bond_atom_site_label_2
_geom_bond_site_symmetry_1
_geom_bond_site_symmetry_2
Ag1 C1 1_555 1_555
C1 H1 1_555 1_555
H2 C1 1_555 1_555
C2 Ag1 1_555 1_555
H3 C2 1_555 1_555
C3 C2 1_555 1_555
H4 C3 1_555 1_555
H5 C3 1_555 1_555
N1 C3 1_555 1_555
C4 N1 1_555 1_555
O1 Ag1 1_555 1_555
C5 N1 1_555 1_555
H6 C5 1_555 1_555
H7 C5 1_555 1_555
C6 C5 1_555 1_555
H8 C6 1_555 1_555
C7 C6 1_555 1_555
H9 C7 1_555 1_555
H10 C7 1_555 1_555
Cl1 O2 1_555 1_555
O2 Ag1 1_555 1_555
O3 Cl1 1_555 1_555
O4 Cl1 1_555 1_555
O5 Cl1 1_555 1_555
C1A H1A 1_555 1_555
H2A C1A 1_555 1_555
C2A C1A 1_555 1_555
H3A C2A 1_555 1_555
C3A C2A 1_555 1_555
H4A C3A 1_555 1_555
H5A C3A 1_555 1_555
N1A C4 1_555 1_555
C5A N1A 1_555 1_555
H6A C5A 1_555 1_555
H7A C5A 1_555 1_555
C6A C5A 1_555 1_555
H8A C6A 1_555 1_555
C7A C6A 1_555 1_555
H9A C7A 1_555 1_555
H10A C7A 1_555 1_555
Ag1A O1 1_555 1_555
Cl1A O2A 1_555 1_555
O2A Ag1A 1_555 1_555
O3A Cl1A 1_555 1_555
O4A Cl1A 1_555 1_555
O5A Cl1A 1_555 1_555
Ag1_2 C6 1_555 1_555
Ag1A_2 C6A 1_555 1_555
C6_2 Ag1 1_555 1_555
C6A_2 Ag1A 1_555 1_555
C7_2 Ag1 1_555 1_555
C7A_2 Ag1A 1_555 1_555
C1 C2 1_555 1_555
C4 O1 1_555 1_555
C7 Ag1_2 1_555 1_555
C1A Ag1A 1_555 1_555
C2A Ag1A 1_555 1_555
C3A N1A 1_555 1_555
C7A Ag1A_2 1_555 1_555
C6_2 C7_2 1_555 1_555
C6A_2 C7A_2 1_555 1_555

#END
