
#######################################################################
#
#                 Cambridge Crystallographic Data Centre
#                                CCDC 
#
#######################################################################
#
# If this CIF has been generated from an entry in the Cambridge 
# Structural Database, then it will include bibliographic, chemical, 
# crystal, experimental, refinement or atomic coordinate data resulting 
# from the CCDC's data processing and validation procedures.
#
#######################################################################

data_SOLPAM
_symmetry_cell_setting           monoclinic
_symmetry_space_group_name_H-M   'P 21'
_symmetry_Int_Tables_number      4
_space_group_name_Hall           'P 2yb'
loop_
_symmetry_equiv_pos_site_id
_symmetry_equiv_pos_as_xyz
1 x,y,z
2 -x,1/2+y,-z
_cell_length_a                   8.4008(9)
_cell_length_b                   10.3355(11)
_cell_length_c                   13.6770(15)
_cell_angle_alpha                90
_cell_angle_beta                 103.716(8)
_cell_angle_gamma                90
_cell_volume                     1153.66
loop_
_atom_site_label
_atom_site_type_symbol
_atom_site_fract_x
_atom_site_fract_y
_atom_site_fract_z
Co1 Co 1.11899(13) 0.31988(11) 0.50533(8)
C1 C 1.2146(11) 0.2124(9) 0.7186(6)
H1 H 1.2587 0.1447 0.6860
C2 C 1.2218(11) 0.2034(9) 0.8219(6)
H2 H 1.2711 0.1292 0.8576
C3 C 1.1616(10) 0.2960(8) 0.8726(6)
C4 C 1.0934(11) 0.4038(9) 0.8167(6)
H3 H 1.0488 0.4724 0.8481
C5 C 1.0912(11) 0.4102(9) 0.7157(6)
H4 H 1.0483 0.4861 0.6798
C6 C 1.1673(11) 0.2806(8) 0.9796(7)
H5 H 1.2345 0.2131 1.0142
C7 C 1.0874(10) 0.3520(8) 1.0327(6)
H6 H 1.0171 0.4176 0.9977
C8 C 1.0977(10) 0.3390(9) 1.1406(6)
C9 C 1.1558(11) 0.2306(9) 1.1977(6)
H7 H 1.1917 0.1571 1.1672
C10 C 1.1611(11) 0.2305(9) 1.2987(6)
H8 H 1.2024 0.1552 1.3360
C11 C 1.0580(11) 0.4332(9) 1.2930(6)
H9 H 1.0253 0.5057 1.3264
C12 C 1.0459(11) 0.4438(9) 1.1922(6)
H10 H 1.0033 0.5203 1.1570
C13 C 0.8733(10) 0.1197(8) 0.4759(6)
C14 C 0.7625(10) 0.2342(8) 0.4398(6)
H11 H 0.6629 0.2301 0.4677
C15 C 0.7134(10) 0.2316(8) 0.3242(6)
H12 H 0.8144 0.2291 0.2989
H13 H 0.6523 0.1506 0.3025
C16 C 0.6098(9) 0.3443(8) 0.2753(6)
C17 C 0.5184(10) 0.4230(8) 0.3200(6)
H14 H 0.5134 0.4189 0.3886
C18 C 0.4722(11) 0.4875(8) 0.1604(6)
C19 C 0.4220(11) 0.5509(8) 0.0663(7)
H15 H 0.3462 0.6207 0.0574
C20 C 0.4859(12) 0.5085(8) -0.0120(7)
H16 H 0.4541 0.5497 -0.0758
C21 C 0.5977(11) 0.4052(8) 0.0014(6)
H17 H 0.6414 0.3775 -0.0531
C22 C 0.6439(10) 0.3441(9) 0.0924(5)
H18 H 0.7185 0.2737 0.0998
C23 C 0.5858(10) 0.3816(8) 0.1725(6)
N1 N 1.1459(7) 0.3159(8) 0.6650(4)
N2 N 1.1123(7) 0.3285(8) 1.3488(5)
N3 N 0.8611(7) 0.3529(6) 0.4774(4)
H19 H 0.8359 0.3803 0.5360
H20 H 0.8326 0.4179 0.4306
N4 N 0.4335(8) 0.5107(7) 0.2494(5)
H21 H 0.3660 0.5710 0.2607
O1 O 1.0245(6) 0.1289(5) 0.4955(4)
O2 O 0.7958(6) 0.0121(5) 0.4759(4)
O3 O 1.3575(7) 0.2454(6) 0.5293(5)
H22 H 1.379(9) 0.180(6) 0.502(6)
H23 H 1.439(7) 0.261(8) 0.573(5)
Co1_2 Co 1.11899(13) 0.31988(11) 1.50533(8)
Co1A Co 0.88101(13) -0.18012(11) 0.49467(8)
N2_2 N 1.1123(7) 0.3285(8) 0.3488(5)
O2A O 1.2042(6) 0.5121(5) 0.5241(4)
N5 N 0.7147(9) 0.3160(9) 0.7408(5)
O4 O 0.6765(8) 0.2609(6) 0.6586(5)
O5 O 0.7698(8) 0.2569(6) 0.8195(5)
O6 O 0.6938(9) 0.4373(6) 0.7431(5)
O7 O 0.5453(7) 0.5288(6) 0.5520(5)
H24 H 0.444(3) 0.530(10) 0.548(6)
H25 H 0.581(9) 0.515(10) 0.613(2)
loop_
_geom_bond_atom_site_label_1
_geom_bond_atom_site_label_2
_geom_bond_site_symmetry_1
_geom_bond_site_symmetry_2
Co1 N1 1_555 1_555
C1 H1 1_555 1_555
C2 C1 1_555 1_555
H2 C2 1_555 1_555
C3 C2 1_555 1_555
C4 C3 1_555 1_555
H3 C4 1_555 1_555
C5 C4 1_555 1_555
H4 C5 1_555 1_555
C6 C3 1_555 1_555
H5 C6 1_555 1_555
C7 C6 1_555 1_555
H6 C7 1_555 1_555
C8 C7 1_555 1_555
C9 C8 1_555 1_555
H7 C9 1_555 1_555
C10 C9 1_555 1_555
H8 C10 1_555 1_555
C11 H9 1_555 1_555
C12 C8 1_555 1_555
H10 C12 1_555 1_555
C13 C14 1_555 1_555
C14 H11 1_555 1_555
C15 C14 1_555 1_555
H12 C15 1_555 1_555
H13 C15 1_555 1_555
C16 C15 1_555 1_555
C17 C16 1_555 1_555
H14 C17 1_555 1_555
C18 C19 1_555 1_555
C19 H15 1_555 1_555
C20 C19 1_555 1_555
H16 C20 1_555 1_555
C21 C20 1_555 1_555
H17 C21 1_555 1_555
C22 C21 1_555 1_555
H18 C22 1_555 1_555
C23 C16 1_555 1_555
N1 C1 1_555 1_555
N2 C10 1_555 1_555
N3 Co1 1_555 1_555
H19 N3 1_555 1_555
H20 N3 1_555 1_555
N4 C17 1_555 1_555
H21 N4 1_555 1_555
O1 Co1 1_555 1_555
O2 C13 1_555 1_555
O3 Co1 1_555 1_555
H22 O3 1_555 1_555
H23 O3 1_555 1_555
N5 O4 1_555 1_555
O5 N5 1_555 1_555
O6 N5 1_555 1_555
O7 H24 1_555 1_555
H25 O7 1_555 1_555
Co1_2 N2 1_555 1_555
Co1A O2 1_555 1_555
N2_2 Co1 1_555 1_555
O2A Co1 1_555 1_555
C5 N1 1_555 1_555
C11 C12 1_555 1_555
C11 N2 1_555 1_555
C13 O1 1_555 1_555
C14 N3 1_555 1_555
C18 C23 1_555 1_555
C18 N4 1_555 1_555
C22 C23 1_555 1_555

#END
