
#######################################################################
#
#                 Cambridge Crystallographic Data Centre
#                                CCDC 
#
#######################################################################
#
# If this CIF has been generated from an entry in the Cambridge 
# Structural Database, then it will include bibliographic, chemical, 
# crystal, experimental, refinement or atomic coordinate data resulting 
# from the CCDC's data processing and validation procedures.
#
#######################################################################

data_SOLQEP
_symmetry_cell_setting           hexagonal
_symmetry_space_group_name_H-M   'P 65 2 2'
_symmetry_Int_Tables_number      179
_space_group_name_Hall           "P 65 2' (0,0,1)"
loop_
_symmetry_equiv_pos_site_id
_symmetry_equiv_pos_as_xyz
1 x,y,z
2 x-y,x,5/6+z
3 -y,-x,1/6-z
4 -y,x-y,2/3+z
5 x-y,-y,-z
6 -x,-y,1/2+z
7 x,x-y,5/6-z
8 -x+y,-x,1/3+z
9 y,x,2/3-z
10 y,-x+y,1/6+z
11 -x+y,y,1/2-z
12 -x,-x+y,1/3-z
_cell_length_a                   10.876(4)
_cell_length_b                   10.876(4)
_cell_length_c                   63.522(8)
_cell_angle_alpha                90
_cell_angle_beta                 90
_cell_angle_gamma                120
_cell_volume                     6507.19
loop_
_atom_site_label
_atom_site_type_symbol
_atom_site_fract_x
_atom_site_fract_y
_atom_site_fract_z
Ag1 Ag 0.5290(2) 0.0581(3) 0.2500
Ag2 Ag 0.0405(1) 0.0810(3) 0.2500
N1 N 0.5728(10) 0.2180(10) 0.2788(1)
C1 C 0.6941(20) 0.3296(17) 0.2854(2)
C2 C 0.7056(24) 0.4150(17) 0.3022(3)
C3 C 0.5813(18) 0.3792(17) 0.3126(2)
C4 C 0.4551(21) 0.2645(19) 0.3061(2)
C5 C 0.4590(19) 0.1909(15) 0.2895(2)
C6 C 0.3272(17) 0.0665(16) 0.2817(2)
N2 N 0.3236(13) -0.0082(14) 0.2660(2)
C7 C 0.1868(19) -0.1314(18) 0.2601(3)
C8 C 0.1872(23) -0.2678(23) 0.2656(4)
C9 C 0.0526(26) -0.3972(25) 0.2589(4)
C10 C 0.0212(57) -0.3888(25) 0.2358(4)
C11 C 0.0266(23) -0.2534(23) 0.2296(3)
C12 C 0.1664(21) -0.1248(18) 0.2365(3)
N3 N 0.1589(14) 0.0026(14) 0.2312(2)
C13 C 0.2337(14) 0.0818(16) 0.2160(2)
C14 C 0.2383(13) 0.2157(16) 0.2101(2)
C15 C 0.3191(16) 0.2936(20) 0.1941(2)
C16 C 0.3189(17) 0.4172(17) 0.1894(2)
C17 C 0.2377(18) 0.4570(17) 0.2009(3)
C18 C 0.1593(16) 0.3664(18) 0.2171(2)
N4 N 0.1580(10) 0.2461(11) 0.2219(1)
H1 H 0.7828 0.3531 0.2775
H2 H 0.7987 0.4976 0.3066
H3 H 0.5824 0.4368 0.3249
H4 H 0.3639 0.2373 0.3135
H5 H 0.2362 0.0396 0.2892
H6 H 0.1083 -0.1283 0.2678
H7 H 0.1979 -0.2713 0.2812
H8 H 0.2692 -0.2672 0.2584
H9 H -0.0278 -0.4054 0.2676
H10 H 0.0624 -0.4829 0.2611
H11 H -0.0761 -0.4693 0.2327
H12 H 0.0926 -0.3989 0.2272
H13 H -0.0541 -0.2492 0.2364
H14 H 0.0178 -0.2513 0.2139
H15 H 0.2471 -0.1235 0.2288
H16 H 0.2924 0.0519 0.2077
H17 H 0.3777 0.2634 0.1858
H18 H 0.3782 0.4782 0.1775
H19 H 0.2354 0.5460 0.1979
H20 H 0.0992 0.3926 0.2258
N1J N 0.6452(14) 0.2180(10) 0.2212(1)
N2J N 0.6682(19) -0.0082(14) 0.2340(2)
N5 N 0.4855(26) -0.1375(22) 0.3159(3)
O1 O 0.5731(44) -0.0114(33) 0.3201(9)
O2 O 0.3563(36) -0.1832(46) 0.3186(8)
O3 O 0.5271(43) -0.2178(37) 0.3091(6)
O4 O -0.2266(41) -0.2266(41) 0.3333
O5 O 0.0662(46) -0.2209(50) 0.3162(7)
O6? O 0.0716(54) 0.0448(62) 0.3272(9)
loop_
_geom_bond_atom_site_label_1
_geom_bond_atom_site_label_2
_geom_bond_site_symmetry_1
_geom_bond_site_symmetry_2
Ag1 N1 1_555 1_555
Ag2 N3 1_555 1_555
N1 C1 1_555 1_555
C1 C2 1_555 1_555
C2 C3 1_555 1_555
C3 C4 1_555 1_555
C4 C5 1_555 1_555
C5 N1 1_555 1_555
C6 C5 1_555 1_555
N2 Ag1 1_555 1_555
C7 N2 1_555 1_555
C8 C7 1_555 1_555
C9 C8 1_555 1_555
C10 C9 1_555 1_555
C11 C10 1_555 1_555
C12 C7 1_555 1_555
N3 C12 1_555 1_555
C13 N3 1_555 1_555
C14 C13 1_555 1_555
C15 C14 1_555 1_555
C16 C15 1_555 1_555
C17 C16 1_555 1_555
C18 C17 1_555 1_555
N4 Ag2 1_555 1_555
H1 C1 1_555 1_555
H2 C2 1_555 1_555
H3 C3 1_555 1_555
H4 C4 1_555 1_555
H5 C6 1_555 1_555
H6 C7 1_555 1_555
H7 C8 1_555 1_555
H8 C8 1_555 1_555
H9 C9 1_555 1_555
H10 C9 1_555 1_555
H11 C10 1_555 1_555
H12 C10 1_555 1_555
H13 C11 1_555 1_555
H14 C11 1_555 1_555
H15 C12 1_555 1_555
H16 C13 1_555 1_555
H17 C15 1_555 1_555
H18 C16 1_555 1_555
H19 C17 1_555 1_555
H20 C18 1_555 1_555
N5 O1 1_555 1_555
O2 N5 1_555 1_555
O3 N5 1_555 1_555
N1J Ag1 1_555 1_555
N2J Ag1 1_555 1_555
C6 N2 1_555 1_555
C11 C12 1_555 1_555
C14 N4 1_555 1_555
C18 N4 1_555 1_555

#END
