
#######################################################################
#
#                 Cambridge Crystallographic Data Centre
#                                CCDC 
#
#######################################################################
#
# If this CIF has been generated from an entry in the Cambridge 
# Structural Database, then it will include bibliographic, chemical, 
# crystal, experimental, refinement or atomic coordinate data resulting 
# from the CCDC's data processing and validation procedures.
#
#######################################################################

data_SOLZUQ
_symmetry_cell_setting           monoclinic
_symmetry_space_group_name_H-M   'C 2/c'
_symmetry_Int_Tables_number      15
_space_group_name_Hall           '-C 2yn'
loop_
_symmetry_equiv_pos_site_id
_symmetry_equiv_pos_as_xyz
1 x,y,z
2 -x,y,1/2-z
3 1/2+x,1/2+y,z
4 1/2-x,1/2+y,1/2-z
5 -x,-y,-z
6 x,-y,1/2+z
7 1/2-x,1/2-y,-z
8 1/2+x,1/2-y,1/2+z
_cell_length_a                   28.561(2)
_cell_length_b                   13.4161(5)
_cell_length_c                   18.0696(8)
_cell_angle_alpha                90
_cell_angle_beta                 106.976(4)
_cell_angle_gamma                90
_cell_volume                     6622.17
loop_
_atom_site_label
_atom_site_type_symbol
_atom_site_fract_x
_atom_site_fract_y
_atom_site_fract_z
I1 I 0.54376(4) 0.42252(8) 0.37158(8)
C1 C 0.5246(2) 0.5710(4) 0.3279(4)
C2 C 0.4930(3) 0.5772(5) 0.2532(4)
H1 H 0.4815 0.5174 0.2243
C3 C 0.4779(3) 0.6698(5) 0.2203(4)
H2 H 0.4561 0.6740 0.1687
C4 C 0.4945(3) 0.7562(5) 0.2621(4)
H3 H 0.4841 0.8202 0.2394
C5 C 0.5261(3) 0.7501(4) 0.3368(4)
H4 H 0.5375 0.8098 0.3657
C6 C 0.5412(2) 0.6575(4) 0.3697(4)
H5 H 0.5630 0.6533 0.4213
O1 O 0.5000 0.3159(8) 0.2500
Cd1 Cd 0.7500 0.2500 0.5000
N1 N 0.72533(13) 0.4133(3) 0.5084(2)
N2 N 0.33169(13) 1.2029(3) 0.0277(2)
O2 O 0.63883(13) 0.9276(2) 0.36487(19)
O3 O 0.57477(12) 0.9801(3) 0.21508(19)
O4 O 0.74149(13) 0.2749(3) 0.37175(19)
O5 O 0.70444(13) 0.1722(2) 0.26050(19)
O6 O 0.77447(13) 0.2779(3) 0.2635(2)
S1 S 0.73118(4) 0.26318(8) 0.28791(6)
C7 C 0.63712(18) 0.8777(4) 0.2938(3)
H6 H 0.6122 0.8263 0.2829
H7 H 0.6684 0.8467 0.2977
C8 C 0.62542(17) 0.9544(4) 0.2310(3)
H8 H 0.6457 1.0130 0.2474
H9 H 0.6317 0.9279 0.1848
C9 C 0.6974(2) 0.4578(4) 0.4442(3)
H10 H 0.6861 0.4195 0.3996
C10 C 0.6848(2) 0.5561(4) 0.4408(3)
H11 H 0.6650 0.5826 0.3947
C11 C 0.70117(16) 0.6175(3) 0.5057(3)
C12 C 0.72837(17) 0.5697(3) 0.5730(3)
H12 H 0.7392 0.6055 0.6189
C13 C 0.73934(17) 0.4696(3) 0.5720(3)
H13 H 0.7574 0.4399 0.6180
C14 C 0.65859(15) 0.8748(3) 0.4318(3)
C15 C 0.66801(16) 0.7736(3) 0.4338(3)
H14 H 0.6596 0.7371 0.3880
C16 C 0.69003(15) 0.7258(3) 0.5039(3)
C17 C 0.70234(17) 0.7819(3) 0.5716(3)
H15 H 0.7171 0.7512 0.6188
C18 C 0.69271(17) 0.8836(3) 0.5690(3)
H16 H 0.7013 0.9206 0.6145
C19 C 0.67042(16) 0.9302(3) 0.4992(3)
H17 H 0.6635 0.9981 0.4978
C20 C 0.35848(16) 1.1772(3) 0.0991(3)
H18 H 0.3435 1.1765 0.1384
C21 C 0.40743(16) 1.1516(3) 0.1173(3)
H19 H 0.4247 1.1348 0.1679
C22 C 0.43078(17) 1.1509(4) 0.0596(3)
C23 C 0.40215(18) 1.1762(4) -0.0150(3)
H20 H 0.4158 1.1756 -0.0559
C24 C 0.35391(17) 1.2020(3) -0.0279(3)
H21 H 0.3358 1.2197 -0.0778
C25 C 0.55578(17) 1.0446(4) 0.1547(3)
C26 C 0.50615(17) 1.0639(4) 0.1369(3)
H22 H 0.4877 1.0339 0.1656
C27 C 0.48359(17) 1.1278(4) 0.0765(3)
C28 C 0.5116(2) 1.1706(5) 0.0337(4)
H23 H 0.4966 1.2116 -0.0079
C29 C 0.5610(2) 1.1534(6) 0.0519(4)
H24 H 0.5793 1.1840 0.0234
C30 C 0.58390(19) 1.0900(5) 0.1133(3)
H25 H 0.6174 1.0785 0.1261
C31 C 0.69161(18) 0.3643(4) 0.2485(3)
C32 C 0.6421(7) 0.3560(12) 0.2267(9)
H26 H 0.6284 0.2930 0.2261
C33 C 0.6141(5) 0.4426(9) 0.2049(9)
H27 H 0.5802 0.4366 0.1896
C34 C 0.6355(6) 0.5363(9) 0.2077(9)
C35 C 0.6864(6) 0.5410(12) 0.2351(8)
H28 H 0.7020 0.6023 0.2378
C36 C 0.7132(11) 0.456(2) 0.2567(18)
H29 H 0.7468 0.4606 0.2794
C37 C 0.6033(7) 0.6269(12) 0.1827(13)
H30 H 0.5872 0.6421 0.2211
H31 H 0.5792 0.6134 0.1342
H32 H 0.6230 0.6826 0.1768
N1F N 0.77467(13) 0.0867(3) 0.4916(2)
N2F N 1.16831(13) -0.7029(3) 0.9723(2)
O2F O 0.86117(13) -0.4276(2) 0.63513(19)
O3F O 0.92523(12) -0.4801(3) 0.78492(19)
O4F O 0.75851(13) 0.2251(3) 0.62825(19)
O5F O 0.79556(13) 0.3278(2) 0.73950(19)
O6F O 0.72553(13) 0.2221(3) 0.7365(2)
S1F S 0.76882(4) 0.23682(8) 0.71209(6)
C7F C 0.86288(18) -0.3777(4) 0.7062(3)
H6F H 0.8878 -0.3263 0.7171
H7F H 0.8316 -0.3467 0.7023
C8F C 0.87458(17) -0.4544(4) 0.7690(3)
H8F H 0.8543 -0.5130 0.7526
H9F H 0.8683 -0.4279 0.8152
C9F C 0.8026(2) 0.0422(4) 0.5558(3)
H10F H 0.8139 0.0805 0.6004
C10F C 0.8152(2) -0.0561(4) 0.5592(3)
H11F H 0.8350 -0.0826 0.6053
C11F C 0.79883(16) -0.1175(3) 0.4943(3)
C12F C 0.77163(17) -0.0697(3) 0.4270(3)
H12F H 0.7608 -0.1055 0.3811
C13F C 0.76066(17) 0.0304(3) 0.4280(3)
H13F H 0.7426 0.0601 0.3820
C14F C 0.84141(15) -0.3748(3) 0.5682(3)
C15F C 0.83199(16) -0.2736(3) 0.5662(3)
H14F H 0.8404 -0.2371 0.6120
C16F C 0.80997(15) -0.2258(3) 0.4961(3)
C17F C 0.79766(17) -0.2819(3) 0.4284(3)
H15F H 0.7829 -0.2512 0.3812
C18F C 0.80729(17) -0.3836(3) 0.4310(3)
H16F H 0.7987 -0.4206 0.3855
C19F C 0.82958(16) -0.4302(3) 0.5008(3)
H17F H 0.8365 -0.4981 0.5022
C20F C 1.14152(16) -0.6772(3) 0.9009(3)
H18F H 1.1565 -0.6765 0.8616
C21F C 1.09257(16) -0.6516(3) 0.8827(3)
H19F H 1.0753 -0.6348 0.8321
C22F C 1.06922(17) -0.6509(4) 0.9404(3)
C23F C 1.09785(18) -0.6762(4) 1.0150(3)
H20F H 1.0842 -0.6756 1.0559
C24F C 1.14609(17) -0.7020(3) 1.0279(3)
H21F H 1.1642 -0.7197 1.0778
C25F C 0.94422(17) -0.5446(4) 0.8453(3)
C26F C 0.99385(17) -0.5639(4) 0.8631(3)
H22F H 1.0123 -0.5339 0.8344
C27F C 1.01641(17) -0.6278(4) 0.9235(3)
C28F C 0.9884(2) -0.6706(5) 0.9663(4)
H23F H 1.0034 -0.7116 1.0079
C29F C 0.9390(2) -0.6534(6) 0.9481(4)
H24F H 0.9207 -0.6840 0.9766
C30F C 0.91610(19) -0.5900(5) 0.8867(3)
H25F H 0.8826 -0.5785 0.8739
C31F C 0.80839(18) 0.1357(4) 0.7515(3)
C32F C 0.8579(7) 0.1440(12) 0.7733(9)
H26F H 0.8716 0.2070 0.7739
C33F C 0.8859(5) 0.0574(9) 0.7951(9)
H27F H 0.9198 0.0634 0.8104
C34F C 0.8645(6) -0.0363(9) 0.7923(9)
C35F C 0.8136(6) -0.0410(12) 0.7649(8)
H28F H 0.7980 -0.1023 0.7622
C36F C 0.7868(11) 0.044(2) 0.7433(18)
H29F H 0.7532 0.0394 0.7206
C37F C 0.8967(7) -0.1269(12) 0.8173(13)
H30F H 0.9128 -0.1421 0.7789
H31F H 0.9208 -0.1134 0.8658
H32F H 0.8770 -0.1826 0.8232
Cd1A Cd 0.2500 1.2500 0.0000
Cd1A_2 Cd 1.2500 -0.7500 1.0000
N2A N 0.66831(13) 0.2029(3) 0.4723(2)
N2G N 0.83169(13) 0.2971(3) 0.5277(2)
I1A I 0.45624(4) 0.42252(8) 0.12842(8)
C1A C 0.4754(2) 0.5710(4) 0.1721(4)
C2A C 0.5070(3) 0.5772(5) 0.2468(4)
H1A H 0.5185 0.5174 0.2757
C3A C 0.5221(3) 0.6698(5) 0.2797(4)
H2A H 0.5439 0.6740 0.3313
C4A C 0.5055(3) 0.7562(5) 0.2379(4)
H3A H 0.5159 0.8202 0.2606
C5A C 0.4739(3) 0.7501(4) 0.1632(4)
H4A H 0.4625 0.8098 0.1343
C6A C 0.4588(2) 0.6575(4) 0.1303(4)
H5A H 0.4370 0.6533 0.0787
I2? I 0.57370(11) 0.4799(3) 0.47042(19)
C38? C 0.5113(5) 0.5027(7) 0.4985(5)
C39? C 0.5073(5) 0.5873(9) 0.5407(4)
H33? H 0.5326 0.6370 0.5514
C40? C 0.4667(6) 0.5999(11) 0.5673(6)
H34? H 0.4639 0.6582 0.5965
C41? C 0.4301(6) 0.5279(13) 0.5518(8)
H35? H 0.4021 0.5366 0.5702
C42? C 0.4341(6) 0.4434(12) 0.5096(8)
H36? H 0.4088 0.3937 0.4988
C43? C 0.4747(5) 0.4308(8) 0.4829(6)
H37? H 0.4775 0.3724 0.4538
H38? H 0.5098 0.3627 0.2837
H39? H 0.4959 0.2583 0.2690
C44? C 0.6434(7) 0.3395(15) 0.2008(12)
H40? H 0.6314 0.2746 0.1943
C45? C 0.6119(5) 0.4162(12) 0.1661(12)
H41? H 0.5801 0.4024 0.1360
C46? C 0.6264(6) 0.5128(12) 0.1723(13)
C47? C 0.6727(8) 0.5379(14) 0.2152(11)
H42? H 0.6831 0.6038 0.2212
C48? C 0.7070(14) 0.465(3) 0.251(2)
H43? H 0.7398 0.4803 0.2736
C49? C 0.5954(8) 0.5981(19) 0.1314(17)
H44? H 0.6030 0.6120 0.0840
H45? H 0.6020 0.6561 0.1639
H46? H 0.5615 0.5807 0.1200
loop_
_geom_bond_atom_site_label_1
_geom_bond_atom_site_label_2
_geom_bond_site_symmetry_1
_geom_bond_site_symmetry_2
I1 C1 1_555 1_555
C1 C2 1_555 1_555
C2 H1 1_555 1_555
C3 C2 1_555 1_555
H2 C3 1_555 1_555
C4 C3 1_555 1_555
H3 C4 1_555 1_555
C5 C4 1_555 1_555
H4 C5 1_555 1_555
C6 C1 1_555 1_555
H5 C6 1_555 1_555
Cd1 N1 1_555 1_555
N1 C9 1_555 1_555
N2 C20 1_555 1_555
O2 C7 1_555 1_555
O3 C8 1_555 1_555
O4 Cd1 1_555 1_555
O5 S1 1_555 1_555
O6 S1 1_555 1_555
S1 O4 1_555 1_555
C7 H6 1_555 1_555
H7 C7 1_555 1_555
C8 C7 1_555 1_555
H8 C8 1_555 1_555
H9 C8 1_555 1_555
C9 H10 1_555 1_555
C10 C9 1_555 1_555
H11 C10 1_555 1_555
C11 C10 1_555 1_555
C12 C11 1_555 1_555
H12 C12 1_555 1_555
C13 N1 1_555 1_555
H13 C13 1_555 1_555
C14 O2 1_555 1_555
C15 C14 1_555 1_555
H14 C15 1_555 1_555
C16 C11 1_555 1_555
C17 C16 1_555 1_555
H15 C17 1_555 1_555
C18 C17 1_555 1_555
H16 C18 1_555 1_555
C19 C14 1_555 1_555
H17 C19 1_555 1_555
C20 H18 1_555 1_555
C21 C20 1_555 1_555
H19 C21 1_555 1_555
C22 C21 1_555 1_555
C23 C22 1_555 1_555
H20 C23 1_555 1_555
C24 N2 1_555 1_555
H21 C24 1_555 1_555
C25 O3 1_555 1_555
C26 C25 1_555 1_555
H22 C26 1_555 1_555
C27 C22 1_555 1_555
C28 C27 1_555 1_555
H23 C28 1_555 1_555
C29 C28 1_555 1_555
H24 C29 1_555 1_555
C30 C25 1_555 1_555
H25 C30 1_555 1_555
C31 S1 1_555 1_555
C32 C31 1_555 1_555
H26 C32 1_555 1_555
C33 C32 1_555 1_555
H27 C33 1_555 1_555
C34 C33 1_555 1_555
C35 C34 1_555 1_555
H28 C35 1_555 1_555
C36 C31 1_555 1_555
H29 C36 1_555 1_555
C37 C34 1_555 1_555
H30 C37 1_555 1_555
H31 C37 1_555 1_555
H32 C37 1_555 1_555
I1A C1A 1_555 1_555
C1A C2A 1_555 1_555
C2A H1A 1_555 1_555
C3A C2A 1_555 1_555
H2A C3A 1_555 1_555
C4A C3A 1_555 1_555
H3A C4A 1_555 1_555
C5A C4A 1_555 1_555
H4A C5A 1_555 1_555
C6A C1A 1_555 1_555
H5A C6A 1_555 1_555
N1F Cd1 1_555 1_555
N2F C20F 1_555 1_555
O2F C7F 1_555 1_555
O3F C8F 1_555 1_555
O4F Cd1 1_555 1_555
O5F S1F 1_555 1_555
O6F S1F 1_555 1_555
S1F O4F 1_555 1_555
C7F H6F 1_555 1_555
H7F C7F 1_555 1_555
C8F C7F 1_555 1_555
H8F C8F 1_555 1_555
H9F C8F 1_555 1_555
C9F N1F 1_555 1_555
H10F C9F 1_555 1_555
C10F C9F 1_555 1_555
H11F C10F 1_555 1_555
C11F C10F 1_555 1_555
C12F C11F 1_555 1_555
H12F C12F 1_555 1_555
C13F N1F 1_555 1_555
H13F C13F 1_555 1_555
C14F O2F 1_555 1_555
C15F C14F 1_555 1_555
H14F C15F 1_555 1_555
C16F C11F 1_555 1_555
C17F C16F 1_555 1_555
H15F C17F 1_555 1_555
C18F C17F 1_555 1_555
H16F C18F 1_555 1_555
C19F C14F 1_555 1_555
H17F C19F 1_555 1_555
C20F H18F 1_555 1_555
C21F C20F 1_555 1_555
H19F C21F 1_555 1_555
C22F C21F 1_555 1_555
C23F C22F 1_555 1_555
H20F C23F 1_555 1_555
C24F N2F 1_555 1_555
H21F C24F 1_555 1_555
C25F O3F 1_555 1_555
C26F C25F 1_555 1_555
H22F C26F 1_555 1_555
C27F C22F 1_555 1_555
C28F C27F 1_555 1_555
H23F C28F 1_555 1_555
C29F C28F 1_555 1_555
H24F C29F 1_555 1_555
C30F C25F 1_555 1_555
H25F C30F 1_555 1_555
C31F S1F 1_555 1_555
C32F C31F 1_555 1_555
H26F C32F 1_555 1_555
C33F C32F 1_555 1_555
H27F C33F 1_555 1_555
C34F C33F 1_555 1_555
C35F C34F 1_555 1_555
H28F C35F 1_555 1_555
C36F C31F 1_555 1_555
H29F C36F 1_555 1_555
C37F C34F 1_555 1_555
H30F C37F 1_555 1_555
H31F C37F 1_555 1_555
H32F C37F 1_555 1_555
Cd1A N2 1_555 1_555
Cd1A_2 N2F 1_555 1_555
N2A Cd1 1_555 1_555
N2G Cd1 1_555 1_555
C5 C6 1_555 1_555
C12 C13 1_555 1_555
C15 C16 1_555 1_555
C18 C19 1_555 1_555
C23 C24 1_555 1_555
C26 C27 1_555 1_555
C29 C30 1_555 1_555
C35 C36 1_555 1_555
C5A C6A 1_555 1_555
C12F C13F 1_555 1_555
C15F C16F 1_555 1_555
C18F C19F 1_555 1_555
C23F C24F 1_555 1_555
C26F C27F 1_555 1_555
C29F C30F 1_555 1_555
C35F C36F 1_555 1_555

#END
