
#######################################################################
#
#                 Cambridge Crystallographic Data Centre
#                                CCDC 
#
#######################################################################
#
# If this CIF has been generated from an entry in the Cambridge 
# Structural Database, then it will include bibliographic, chemical, 
# crystal, experimental, refinement or atomic coordinate data resulting 
# from the CCDC's data processing and validation procedures.
#
#######################################################################

data_SOMHIN
_symmetry_cell_setting           triclinic
_symmetry_space_group_name_H-M   'P -1'
_symmetry_Int_Tables_number      2
_space_group_name_Hall           '-P 1'
loop_
_symmetry_equiv_pos_site_id
_symmetry_equiv_pos_as_xyz
1 x,y,z
2 -x,-y,-z
_cell_length_a                   11.3141(10)
_cell_length_b                   12.8177(11)
_cell_length_c                   16.7339(15)
_cell_angle_alpha                89.929(4)
_cell_angle_beta                 73.205(4)
_cell_angle_gamma                85.968(4)
_cell_volume                     2317.04
loop_
_atom_site_label
_atom_site_type_symbol
_atom_site_fract_x
_atom_site_fract_y
_atom_site_fract_z
U1 U 0.988158(15) 0.336481(12) 0.263841(10)
N1 N 1.1679(3) 0.4249(3) 0.2235(2)
N2 N 0.9978(4) 0.2209(3) 0.1582(2)
N3 N 0.7951(3) 0.4190(3) 0.3247(2)
N4 N 1.0114(4) 0.2303(3) 0.3492(2)
C1 C 1.2528(4) 0.4156(3) 0.1439(3)
Si1 Si 1.20669(11) 0.49265(10) 0.30093(7)
C2 C 1.0167(5) 0.1128(4) 0.1631(3)
Si2 Si 0.96657(13) 0.27116(10) 0.06941(8)
C3 C 0.7111(4) 0.3489(3) 0.3681(3)
Si3 Si 0.74636(12) 0.55022(10) 0.32400(9)
C4 C 0.9766(4) 0.1819(3) 0.4255(3)
K1 K 1.26193(10) 0.13791(9) 0.31195(7)
C5 C 1.3413(5) 0.3317(4) 0.1199(3)
C6 C 1.2552(4) 0.4892(4) 0.0816(3)
C7 C 1.0667(5) 0.4997(4) 0.3935(3)
C8 C 1.3349(5) 0.4182(5) 0.3311(3)
C9 C 1.2510(5) 0.6268(4) 0.2710(3)
C10 C 1.1335(5) 0.0593(4) 0.1334(3)
C11 C 0.9204(5) 0.0498(4) 0.1966(3)
C12 C 0.8336(5) 0.2115(4) 0.0485(3)
C13 C 1.1032(6) 0.2543(5) -0.0241(3)
C14 C 0.9283(5) 0.4142(4) 0.0941(3)
C15 C 0.6402(4) 0.2926(4) 0.3298(3)
C16 C 0.6932(4) 0.3271(4) 0.4526(3)
C17 C 0.6954(6) 0.6072(4) 0.4316(4)
C18 C 0.6162(6) 0.5701(5) 0.2773(5)
C19 C 0.8801(5) 0.6181(4) 0.2589(4)
C20 C 1.0320(5) 0.1992(4) 0.4893(3)
C21 C 0.8824(4) 0.1126(4) 0.4478(3)
O1 O 1.4259(4) 0.0010(3) 0.2193(3)
F1 F 1.4946(3) 0.1696(3) 0.3315(3)
F2 F 1.1371(3) -0.0476(3) 0.33812(18)
F3 F 1.2476(3) -0.0035(3) 0.45596(19)
C22 C 1.4247(5) 0.3197(4) 0.0414(3)
F4 F 1.3480(3) 0.2572(2) 0.17646(18)
C23 C 1.3378(4) 0.4786(4) 0.0028(3)
F5 F 1.1738(3) 0.5730(2) 0.09890(19)
H1 H 1.0024 0.5446 0.3818
H2 H 1.0870 0.5272 0.4408
H3 H 1.0386 0.4309 0.4055
H4 H 1.3065 0.3536 0.3560
H5 H 1.3601 0.4591 0.3705
H6 H 1.4039 0.4037 0.2823
H7 H 1.3257 0.6232 0.2253
H8 H 1.2645 0.6623 0.3177
H9 H 1.1859 0.6645 0.2544
C24 C 1.1516(5) -0.0483(4) 0.1377(3)
F6 F 1.2325(3) 0.1137(3) 0.1005(3)
C25 C 0.9370(5) -0.0576(4) 0.2012(3)
F7 F 0.8041(3) 0.0945(2) 0.2268(2)
H10 H 0.8533 0.1378 0.0379
H11 H 0.8166 0.2433 0.0006
H12 H 0.7621 0.2225 0.0961
H13 H 1.1710 0.2879 -0.0141
H14 H 1.0831 0.2852 -0.0712
H15 H 1.1262 0.1811 -0.0353
H16 H 0.8543 0.4237 0.1401
H17 H 0.9155 0.4490 0.0461
H18 H 0.9954 0.4431 0.1087
C26 C 0.5602(5) 0.2211(4) 0.3714(4)
F8 F 0.6505(3) 0.3081(3) 0.2488(2)
C27 C 0.6143(5) 0.2558(4) 0.4947(3)
F9 F 0.7589(3) 0.3756(2) 0.49465(18)
H19 H 0.6220 0.5760 0.4633
H20 H 0.6779 0.6814 0.4292
H21 H 0.7598 0.5937 0.4578
H22 H 0.6424 0.5440 0.2207
H23 H 0.5913 0.6433 0.2782
H24 H 0.5476 0.5330 0.3090
H25 H 0.9548 0.5899 0.2697
H26 H 0.8679 0.6915 0.2726
H27 H 0.8866 0.6079 0.2010
C28 C 0.9946(5) 0.1567(4) 0.5671(3)
F10 F 1.1292(3) 0.2597(3) 0.47210(19)
C29 C 0.8448(4) 0.0695(4) 0.5255(3)
F11 F 0.8256(3) 0.0870(2) 0.39114(18)
C30 C 1.4633(10) -0.1001(7) 0.2414(6)
C31 C 1.5140(7) 0.0266(6) 0.1434(5)
C32 C 1.4216(5) 0.3933(4) -0.0173(3)
F12 F 1.5081(3) 0.2376(3) 0.0229(2)
F13 F 1.3373(3) 0.5529(3) -0.05381(18)
C33 C 1.0531(6) -0.1061(4) 0.1714(3)
F14 F 1.2659(3) -0.0955(3) 0.1073(3)
F15 F 0.8400(3) -0.1137(2) 0.2346(2)
C34 C 0.5470(5) 0.2026(4) 0.4545(4)
F16 F 0.6021(4) 0.2382(3) 0.5763(2)
C35 C 0.8994(5) 0.0918(4) 0.5858(3)
F17 F 1.0525(4) 0.1769(3) 0.6248(2)
H28 H 1.3950 -0.1448 0.2514
H29 H 1.4878 -0.0957 0.2922
C36 C 1.5643(9) -0.1427(7) 0.1754(8)
C37 C 1.6085(9) -0.0585(7) 0.1199(6)
H30 H 1.5509 0.0906 0.1511
H31 H 1.4737 0.0375 0.0999
F18 F 1.5034(3) 0.3838(3) -0.09414(18)
F19 F 1.0705(4) -0.2108(2) 0.1749(2)
F20 F 0.4684(3) 0.1331(3) 0.4954(3)
H32 H 1.5378 -0.1974 0.1459
H33 H 1.6296 -0.1726 0.1972
H34 H 1.6210 -0.0801 0.0623
H35 H 1.6862 -0.0376 0.1259
F1_2 F 0.4946(3) 0.1696(3) 0.3315(3)
F3A F 0.7524(3) 0.0035(3) 0.54404(19)
K1_2 K 0.26193(10) 0.13791(9) 0.31195(7)
F2A F 0.8629(3) 0.0476(3) 0.66188(18)
K1A K 0.73807(10) -0.13791(9) 0.68805(7)
loop_
_geom_bond_atom_site_label_1
_geom_bond_atom_site_label_2
_geom_bond_site_symmetry_1
_geom_bond_site_symmetry_2
U1 N1 1_555 1_555
N1 C1 1_555 1_555
N2 U1 1_555 1_555
N3 U1 1_555 1_555
N4 U1 1_555 1_555
C1 C5 1_555 1_555
Si1 N1 1_555 1_555
C2 N2 1_555 1_555
Si2 N2 1_555 1_555
C3 N3 1_555 1_555
Si3 N3 1_555 1_555
C4 N4 1_555 1_555
K1 N4 1_555 1_555
C5 C22 1_555 1_555
C6 C1 1_555 1_555
C7 Si1 1_555 1_555
C8 Si1 1_555 1_555
C9 Si1 1_555 1_555
C10 C2 1_555 1_555
C11 C2 1_555 1_555
C12 Si2 1_555 1_555
C13 Si2 1_555 1_555
C14 Si2 1_555 1_555
C15 C3 1_555 1_555
C16 C3 1_555 1_555
C17 Si3 1_555 1_555
C18 Si3 1_555 1_555
C19 Si3 1_555 1_555
C20 C4 1_555 1_555
C21 C4 1_555 1_555
O1 K1 1_555 1_555
F1 K1 1_555 1_555
F2 K1 1_555 1_555
F3 K1 1_555 1_555
C22 C32 1_555 1_555
F4 C5 1_555 1_555
C23 C6 1_555 1_555
F5 C6 1_555 1_555
H1 C7 1_555 1_555
H2 C7 1_555 1_555
H3 C7 1_555 1_555
H4 C8 1_555 1_555
H5 C8 1_555 1_555
H6 C8 1_555 1_555
H7 C9 1_555 1_555
H8 C9 1_555 1_555
H9 C9 1_555 1_555
C24 C10 1_555 1_555
F6 C10 1_555 1_555
C25 C11 1_555 1_555
F7 C11 1_555 1_555
H10 C12 1_555 1_555
H11 C12 1_555 1_555
H12 C12 1_555 1_555
H13 C13 1_555 1_555
H14 C13 1_555 1_555
H15 C13 1_555 1_555
H16 C14 1_555 1_555
H17 C14 1_555 1_555
H18 C14 1_555 1_555
C26 C15 1_555 1_555
F8 C15 1_555 1_555
C27 C16 1_555 1_555
F9 C16 1_555 1_555
H19 C17 1_555 1_555
H20 C17 1_555 1_555
H21 C17 1_555 1_555
H22 C18 1_555 1_555
H23 C18 1_555 1_555
H24 C18 1_555 1_555
H25 C19 1_555 1_555
H26 C19 1_555 1_555
H27 C19 1_555 1_555
C28 C20 1_555 1_555
F10 C20 1_555 1_555
C29 C21 1_555 1_555
F11 C21 1_555 1_555
C30 O1 1_555 1_555
C31 O1 1_555 1_555
C32 C23 1_555 1_555
F12 C22 1_555 1_555
F13 C23 1_555 1_555
C33 C24 1_555 1_555
F14 C24 1_555 1_555
F15 C25 1_555 1_555
C34 C26 1_555 1_555
F16 C27 1_555 1_555
C35 C28 1_555 1_555
F17 C28 1_555 1_555
H28 C30 1_555 1_555
H29 C30 1_555 1_555
C36 C30 1_555 1_555
C37 C31 1_555 1_555
H30 C31 1_555 1_555
H31 C31 1_555 1_555
F18 C32 1_555 1_555
F19 C33 1_555 1_555
F20 C34 1_555 1_555
H32 C36 1_555 1_555
H33 C36 1_555 1_555
H34 C37 1_555 1_555
H35 C37 1_555 1_555
F1_2 C26 1_555 1_555
F3A C29 1_555 1_555
K1_2 F1_2 1_555 1_555
F2A C35 1_555 1_555
K1A F3A 1_555 1_555
C25 C33 1_555 1_555
C27 C34 1_555 1_555
C29 C35 1_555 1_555
C36 C37 1_555 1_555
F2A K1A 1_555 1_555

#END
