
#######################################################################
#
#                 Cambridge Crystallographic Data Centre
#                                CCDC 
#
#######################################################################
#
# If this CIF has been generated from an entry in the Cambridge 
# Structural Database, then it will include bibliographic, chemical, 
# crystal, experimental, refinement or atomic coordinate data resulting 
# from the CCDC's data processing and validation procedures.
#
#######################################################################

data_SOMMIS
_symmetry_cell_setting           monoclinic
_symmetry_space_group_name_H-M   'P 21/c'
_symmetry_Int_Tables_number      14
_space_group_name_Hall           '-P 2ybc'
loop_
_symmetry_equiv_pos_site_id
_symmetry_equiv_pos_as_xyz
1 x,y,z
2 -x,1/2+y,1/2-z
3 -x,-y,-z
4 x,1/2-y,1/2+z
_cell_length_a                   6.1101(5)
_cell_length_b                   22.7075(19)
_cell_length_c                   16.1587(12)
_cell_angle_alpha                90
_cell_angle_beta                 94.626(7)
_cell_angle_gamma                90
_cell_volume                     2234.64
loop_
_atom_site_label
_atom_site_type_symbol
_atom_site_fract_x
_atom_site_fract_y
_atom_site_fract_z
Na1 Na 0.2478(2) 0.54062(6) -0.00310(8)
O1 O -0.1234(3) 0.52831(10) -0.20085(13)
O2 O 0.3382(4) 0.59685(10) 0.13640(13)
O3 O -0.0960(4) 0.56211(12) 0.03523(14)
O4 O -0.2754(4) 0.64243(11) -0.24306(15)
Na2 Na -0.49458(19) 0.54983(5) -0.18100(7)
Na3 Na -0.00319(19) 0.56515(5) 0.17420(7)
C1 C -0.2548(5) 0.58759(14) -0.00364(19)
O5 O -0.8389(3) 0.58346(10) -0.14860(13)
N1 N -0.7506(4) 0.56492(12) -0.33221(16)
O6 O -0.6225(4) 0.45560(10) -0.19491(14)
O7 O -0.4067(4) 0.55990(11) -0.04300(14)
N2 N 0.2460(5) 0.59015(12) 0.32073(16)
C2 C 0.0893(6) 0.56634(17) 0.3616(2)
O8 O -0.2230(4) 0.66025(11) 0.22217(15)
C3 C -0.2669(9) 0.65337(18) -0.0025(3)
C4 C -1.0049(5) 0.57333(13) -0.19636(19)
C5 C -0.5960(6) 0.53700(16) -0.3695(2)
C6 C -0.7770(5) 0.62401(14) -0.34723(18)
H1 H 0.0647 0.5261 0.3557
C7 C -0.4951(5) 0.58940(13) 0.18503(18)
C8 C -0.4088(5) 0.64329(14) 0.23363(19)
H2 H -0.4116 0.6654 0.0096
H3 H -0.1613 0.6684 0.0395
H4 H -0.2356 0.6685 -0.0557
C9 C -1.0895(5) 0.62462(13) -0.25169(18)
C10 C -0.4599(7) 0.56398(17) -0.4235(2)
H5 H -0.5768 0.4970 -0.3590
C11 C -0.9456(5) 0.65465(14) -0.30924(18)
C12 C -0.6411(6) 0.65517(15) -0.3995(2)
C13 C -0.5477(5) 0.67691(13) 0.28926(18)
H6 H -0.3546 0.5422 -0.4487
C14 C -0.4839(7) 0.62277(17) -0.4390(2)
C15 C -0.9751(5) 0.71412(14) -0.32455(19)
C16 C -0.6729(6) 0.71665(16) -0.4110(2)
C17 C -0.7208(5) 0.65001(14) 0.33027(19)
C18 C -0.5101(6) 0.73642(14) 0.3001(2)
H7 H -0.3963 0.6413 -0.4755
C19 C -0.8354(6) 0.74553(16) -0.3741(2)
H8 H -1.0893 0.7338 -0.3017
H9 H -0.5821 0.7375 -0.4440
C20 C -0.8497(5) 0.68536(16) 0.3801(2)
H10 H -0.3942 0.7538 0.2752
C21 C -0.6415(6) 0.77153(15) 0.3477(2)
C22 C -1.0423(7) 0.59804(19) 0.4134(2)
H11 H -0.8539 0.7859 -0.3816
C23 C -1.0117(7) 0.65702(19) 0.4222(2)
C24 C -0.8061(6) 0.74641(16) 0.3868(2)
H12 H -0.6159 0.8118 0.3524
H13 H -1.1491 0.5789 0.4413
H14 H -1.0980 0.6786 0.4561
H15 H -0.8920 0.7698 0.4186
Na1B Na -0.2478(2) 0.45938(6) 0.00310(8)
O1B O 0.1234(3) 0.47169(10) 0.20085(13)
O6B O -0.3775(4) 0.54440(10) 0.19491(14)
O7B O -0.5933(4) 0.44010(11) 0.04300(14)
Na1_2 Na -0.7522(2) 0.54062(6) -0.00310(8)
Na3B Na -0.99681(19) 0.43485(5) -0.17420(7)
Na2B Na -0.50542(19) 0.45017(5) 0.18100(7)
O1_2 O -1.1234(3) 0.52831(10) -0.20085(13)
O2_2 O -0.6618(4) 0.59685(10) 0.13640(13)
O3B O -0.9040(4) 0.43789(12) -0.03523(14)
O3_2 O -1.0960(4) 0.56211(12) 0.03523(14)
Na2_2 Na -1.49458(19) 0.54983(5) -0.18100(7)
O4_2 O -1.2754(4) 0.64243(11) -0.24306(15)
Na3_2 Na -1.00319(19) 0.56515(5) 0.17420(7)
C2_2 C -0.9107(6) 0.56634(17) 0.3616(2)
N2_2 N -0.7540(5) 0.59015(12) 0.32073(16)
H1_2 H -0.9353 0.5261 0.3557
loop_
_geom_bond_atom_site_label_1
_geom_bond_atom_site_label_2
_geom_bond_site_symmetry_1
_geom_bond_site_symmetry_2
Na1 O2 1_555 1_555
O1 Na2 1_555 1_555
O2 Na3 1_555 1_555
O3 Na1 1_555 1_555
O4 Na2 1_555 1_555
Na2 O5 1_555 1_555
Na3 O3 1_555 1_555
C1 O3 1_555 1_555
O5 C4 1_555 1_555
N1 Na2 1_555 1_555
O6 Na2 1_555 1_555
O7 Na2 1_555 1_555
N2 Na3 1_555 1_555
C2 Na3 1_555 1_555
O8 Na3 1_555 1_555
C3 C1 1_555 1_555
C4 C9 1_555 1_555
C5 N1 1_555 1_555
C6 N1 1_555 1_555
H1 C2 1_555 1_555
C7 C8 1_555 1_555
C8 O8 1_555 1_555
H2 C3 1_555 1_555
H3 C3 1_555 1_555
H4 C3 1_555 1_555
C9 C11 1_555 1_555
C10 C5 1_555 1_555
H5 C5 1_555 1_555
C11 C6 1_555 1_555
C12 C6 1_555 1_555
C13 C8 1_555 1_555
H6 C10 1_555 1_555
C14 C10 1_555 1_555
C15 C11 1_555 1_555
C16 C12 1_555 1_555
C17 C13 1_555 1_555
C18 C13 1_555 1_555
H7 C14 1_555 1_555
C19 C15 1_555 1_555
H8 C15 1_555 1_555
H9 C16 1_555 1_555
C20 C17 1_555 1_555
H10 C18 1_555 1_555
C21 C18 1_555 1_555
C22 C23 1_555 1_555
H11 C19 1_555 1_555
C23 C20 1_555 1_555
C24 C20 1_555 1_555
H12 C21 1_555 1_555
H13 C22 1_555 1_555
H14 C23 1_555 1_555
H15 C24 1_555 1_555
Na1B O3 1_555 1_555
O1B Na3 1_555 1_555
O6B Na3 1_555 1_555
O7B Na1B 1_555 1_555
Na1_2 O5 1_555 1_555
Na3B O6 1_555 1_555
Na2B O6B 1_555 1_555
O1_2 C4 1_555 1_555
O2_2 C7 1_555 1_555
O3B Na1_2 1_555 1_555
O3_2 Na1_2 1_555 1_555
Na2_2 O1_2 1_555 1_555
O4_2 C9 1_555 1_555
Na3_2 O2_2 1_555 1_555
C2_2 C22 1_555 1_555
N2_2 C17 1_555 1_555
H1_2 C2_2 1_555 1_555
C1 O7 1_555 1_555
O7 Na1B 1_555 1_555
O7 Na1_2 1_555 1_555
N2 C2 1_555 1_555
C7 O6B 1_555 1_555
C12 C14 1_555 1_555
C16 C19 1_555 1_555
C21 C24 1_555 1_555
O7B Na1_2 1_555 1_555
O7B Na2B 1_555 1_555
Na1_2 O2_2 1_555 1_555
Na3B O1_2 1_555 1_555
Na3B O3B 1_555 1_555
O3_2 Na3_2 1_555 1_555
Na2_2 O4_2 1_555 1_555
Na3_2 C2_2 1_555 1_555
Na3_2 N2_2 1_555 1_555
C2_2 N2_2 1_555 1_555

#END
