
#######################################################################
#
#                 Cambridge Crystallographic Data Centre
#                                CCDC 
#
#######################################################################
#
# If this CIF has been generated from an entry in the Cambridge 
# Structural Database, then it will include bibliographic, chemical, 
# crystal, experimental, refinement or atomic coordinate data resulting 
# from the CCDC's data processing and validation procedures.
#
#######################################################################

data_SONFOR
_symmetry_cell_setting           monoclinic
_symmetry_space_group_name_H-M   'P 21/c'
_symmetry_Int_Tables_number      14
_space_group_name_Hall           '-P 2ybc'
loop_
_symmetry_equiv_pos_site_id
_symmetry_equiv_pos_as_xyz
1 x,y,z
2 -x,1/2+y,1/2-z
3 -x,-y,-z
4 x,1/2-y,1/2+z
_cell_length_a                   12.732(10)
_cell_length_b                   15.832(13)
_cell_length_c                   11.304(9)
_cell_angle_alpha                90
_cell_angle_beta                 94.529(10)
_cell_angle_gamma                90
_cell_volume                     2271.47
loop_
_atom_site_label
_atom_site_type_symbol
_atom_site_fract_x
_atom_site_fract_y
_atom_site_fract_z
Cd1 Cd 0.37946(8) 0.04623(8) 0.71070(11)
O1 O 0.2406(10) 0.1323(7) 0.6244(12)
O2 O 0.2550(9) 0.0004(8) 0.5600(10)
O3 O -0.0919(9) 0.1423(10) 0.1695(10)
O4 O -0.4939(8) 0.3555(7) 0.2999(9)
O5 O -0.4848(8) 0.3932(8) 0.1110(10)
N1 N 0.2982(8) 0.0220(8) 0.8823(12)
N2 N 0.4169(9) -0.0857(8) 0.9653(11)
H1 H 0.4309 -0.1130 1.0304
N3 N 0.4810(10) -0.0676(8) 0.7701(12)
C1 C 0.2139(12) 0.0718(12) 0.5528(14)
C2 C 0.1285(10) 0.0899(11) 0.4570(13)
C3 C 0.0827(13) 0.0251(11) 0.3885(15)
H2 H 0.1039 -0.0304 0.4030
C4 C 0.0034(12) 0.0429(14) 0.2963(17)
H3 H -0.0301 -0.0006 0.2528
C5 C -0.0230(12) 0.1267(14) 0.2726(15)
C6 C 0.0209(16) 0.1933(16) 0.340(2)
H4 H 0.0015 0.2490 0.3234
C7 C 0.0955(14) 0.1728(11) 0.4327(19)
H5 H 0.1243 0.2161 0.4804
C8 C -0.1759(12) 0.1974(12) 0.1827(15)
C9 C -0.1976(13) 0.2570(13) 0.0985(16)
H6 H -0.1534 0.2635 0.0374
C10 C -0.2879(13) 0.3097(11) 0.1028(15)
H7 H -0.3025 0.3513 0.0458
C11 C -0.3536(10) 0.2978(9) 0.1940(12)
C12 C -0.3294(11) 0.2381(10) 0.2806(14)
H8 H -0.3723 0.2323 0.3430
C13 C -0.2403(13) 0.1855(10) 0.2758(15)
H9 H -0.2249 0.1442 0.3330
C14 C -0.4503(11) 0.3517(10) 0.2033(13)
C15 C 0.2117(14) 0.0698(13) 0.8985(16)
H10 H 0.1898 0.1085 0.8398
C16 C 0.1575(15) 0.0646(16) 0.992(2)
H11 H 0.0982 0.0983 0.9966
C17 C 0.1869(16) 0.0099(19) 1.085(2)
H12 H 0.1491 0.0058 1.1515
C18 C 0.2785(16) -0.0397(14) 1.0712(18)
H13 H 0.3035 -0.0762 1.1314
C19 C 0.3299(12) -0.0336(11) 0.9689(15)
C20 C 0.4870(11) -0.1040(10) 0.8800(13)
C21 C 0.5657(14) -0.1663(10) 0.9128(16)
H14 H 0.5717 -0.1900 0.9884
C22 C 0.6319(14) -0.1896(12) 0.8285(18)
H15 H 0.6835 -0.2301 0.8472
C23 C 0.6234(14) -0.1537(12) 0.7147(19)
H16 H 0.6672 -0.1713 0.6574
C24 C 0.5484(13) -0.0914(12) 0.6891(17)
H17 H 0.5443 -0.0655 0.6150
Cd1C Cd -0.62054(8) 0.45377(8) 0.21070(11)
O4C O 0.5061(8) 0.1445(7) 0.7999(9)
O5C O 0.5152(8) 0.1068(8) 0.6110(10)
loop_
_geom_bond_atom_site_label_1
_geom_bond_atom_site_label_2
_geom_bond_site_symmetry_1
_geom_bond_site_symmetry_2
Cd1 O1 1_555 1_555
O1 C1 1_555 1_555
O2 Cd1 1_555 1_555
O3 C5 1_555 1_555
O4 C14 1_555 1_555
O5 C14 1_555 1_555
N1 Cd1 1_555 1_555
N2 H1 1_555 1_555
N3 Cd1 1_555 1_555
C1 O2 1_555 1_555
C2 C1 1_555 1_555
C3 C2 1_555 1_555
H2 C3 1_555 1_555
C4 C3 1_555 1_555
H3 C4 1_555 1_555
C5 C4 1_555 1_555
C6 C5 1_555 1_555
H4 C6 1_555 1_555
C7 C2 1_555 1_555
H5 C7 1_555 1_555
C8 O3 1_555 1_555
C9 C8 1_555 1_555
H6 C9 1_555 1_555
C10 C9 1_555 1_555
H7 C10 1_555 1_555
C11 C10 1_555 1_555
C12 C11 1_555 1_555
H8 C12 1_555 1_555
C13 C8 1_555 1_555
H9 C13 1_555 1_555
C14 C11 1_555 1_555
C15 N1 1_555 1_555
H10 C15 1_555 1_555
C16 C15 1_555 1_555
H11 C16 1_555 1_555
C17 C16 1_555 1_555
H12 C17 1_555 1_555
C18 C17 1_555 1_555
H13 C18 1_555 1_555
C19 N1 1_555 1_555
C20 N2 1_555 1_555
C21 C20 1_555 1_555
H14 C21 1_555 1_555
C22 C21 1_555 1_555
H15 C22 1_555 1_555
C23 C22 1_555 1_555
H16 C23 1_555 1_555
C24 N3 1_555 1_555
H17 C24 1_555 1_555
Cd1C O4 1_555 1_555
O4C Cd1 1_555 1_555
O5C Cd1 1_555 1_555
O5 Cd1C 1_555 1_555
N2 C19 1_555 1_555
N3 C20 1_555 1_555
C6 C7 1_555 1_555
C12 C13 1_555 1_555
C18 C19 1_555 1_555
C23 C24 1_555 1_555

#END
