
#######################################################################
#
#                 Cambridge Crystallographic Data Centre
#                                CCDC 
#
#######################################################################
#
# If this CIF has been generated from an entry in the Cambridge 
# Structural Database, then it will include bibliographic, chemical, 
# crystal, experimental, refinement or atomic coordinate data resulting 
# from the CCDC's data processing and validation procedures.
#
#######################################################################

data_SONFEG02
_symmetry_cell_setting           monoclinic
_symmetry_space_group_name_H-M   'P 21'
_symmetry_Int_Tables_number      4
_space_group_name_Hall           'P 2yb'
loop_
_symmetry_equiv_pos_site_id
_symmetry_equiv_pos_as_xyz
1 x,y,z
2 -x,1/2+y,-z
_cell_length_a                   15.536(3)
_cell_length_b                   11.719(4)
_cell_length_c                   19.120(6)
_cell_angle_alpha                90
_cell_angle_beta                 95.39(2)
_cell_angle_gamma                90
_cell_volume                     3465.72
loop_
_atom_site_label
_atom_site_type_symbol
_atom_site_fract_x
_atom_site_fract_y
_atom_site_fract_z
Sn1 Sn 0.97598(5) 0.97482(6) 0.01773(3)
S1 S 0.8561(2) 0.8030(3) 0.06212(17)
N1 N 0.9323(7) 0.6172(10) 0.0039(6)
C1 C 0.9023(7) 0.6966(12) 0.0281(6)
C2 C 0.9344(8) 0.9575(11) -0.0909(5)
C3 C 0.8697(8) 0.8842(15) -0.1133(7)
H1 H 0.8410 0.8427 -0.0812
C4 C 0.8472(10) 0.8721(18) -0.1852(8)
H2 H 0.8031 0.8218 -0.2004
C5 C 0.8882(10) 0.9327(16) -0.2348(7)
H3 H 0.8714 0.9245 -0.2825
C6 C 0.9512(12) 1.0018(18) -0.2126(7)
H4 H 0.9796 1.0433 -0.2449
C7 C 0.9757(12) 1.014(2) -0.1414(6)
H5 H 1.0218 1.0614 -0.1272
C8 C 0.9069(7) 1.0843(11) 0.0859(5)
C9 C 0.9519(8) 1.1545(13) 0.1337(6)
H6 H 1.0120 1.1530 0.1373
C10 C 0.9110(10) 1.2275(14) 0.1768(7)
H7 H 0.9434 1.2760 0.2075
C11 C 0.8274(11) 1.2280(17) 0.1741(9)
H8 H 0.7993 1.2724 0.2053
C12 C 0.7824(10) 1.1639(15) 0.1261(9)
H9 H 0.7225 1.1703 0.1216
C13 C 0.8206(8) 1.0880(13) 0.0823(7)
H10 H 0.7870 1.0412 0.0514
C14 C 1.0762(8) 0.8813(12) 0.0680(6)
C15 C 1.1344(9) 0.8224(15) 0.0340(8)
H11 H 1.1323 0.8257 -0.0148
C16 C 1.1965(12) 0.758(2) 0.0713(9)
H12 H 1.2355 0.7183 0.0464
C17 C 1.2040(10) 0.7491(17) 0.1374(12)
H13 H 1.2472 0.7037 0.1597
C18 C 1.1460(13) 0.809(2) 0.1774(11)
H14 H 1.1509 0.8042 0.2262
C19 C 1.0805(10) 0.8756(18) 0.1407(7)
H15 H 1.0409 0.9151 0.1651
N1A N 1.0677(7) 1.1172(10) -0.0039(6)
Sn1A Sn 1.02402(5) 0.47482(6) -0.01773(3)
Sn2 Sn 0.97295(5) 0.84520(6) 0.52003(3)
S2 S 0.8591(2) 1.0250(3) 0.56394(16)
N2 N 0.9386(6) 1.2072(9) 0.5028(5)
C20 C 0.9059(7) 1.1342(11) 0.5280(5)
C21 C 0.9313(9) 0.8729(12) 0.4114(6)
C22 C 0.8663(9) 0.9487(14) 0.3852(7)
H16 H 0.8396 0.9934 0.4170
C23 C 0.8405(11) 0.9603(16) 0.3160(8)
H17 H 0.7966 1.0115 0.3017
C24 C 0.8777(10) 0.8983(19) 0.2676(7)
H18 H 0.8614 0.9087 0.2200
C25 C 0.9403(11) 0.8193(17) 0.2896(7)
H19 H 0.9636 0.7736 0.2564
C26 C 0.9690(10) 0.8065(13) 0.3590(7)
H20 H 1.0130 0.7548 0.3722
C27 C 0.9090(7) 0.7468(10) 0.5896(5)
C28 C 0.9609(9) 0.6722(12) 0.6340(6)
H21 H 1.0203 0.6686 0.6310
C29 C 0.9225(11) 0.6044(15) 0.6820(7)
H22 H 0.9557 0.5587 0.7139
C30 C 0.8320(12) 0.6070(16) 0.6807(8)
H23 H 0.8055 0.5570 0.7097
C31 C 0.7789(9) 0.6821(16) 0.6374(9)
H24 H 0.7196 0.6860 0.6404
C32 C 0.8185(8) 0.7491(13) 0.5907(6)
H25 H 0.7852 0.7962 0.5598
C33 C 1.0749(8) 0.9493(10) 0.5725(6)
C34 C 1.1274(8) 1.0161(11) 0.5346(6)
H26 H 1.1202 1.0166 0.4858
C35 C 1.1920(9) 1.0834(15) 0.5714(9)
H27 H 1.2263 1.1318 0.5473
C36 C 1.2035(11) 1.0760(17) 0.6457(8)
H28 H 1.2460 1.1192 0.6709
C37 C 1.1537(10) 1.0076(17) 0.6788(7)
H29 H 1.1620 1.0037 0.7276
C38 C 1.0915(9) 0.9434(14) 0.6452(7)
H30 H 1.0591 0.8945 0.6707
N2A N 1.0614(6) 0.7072(9) 0.4972(5)
Sn2A Sn 1.02705(5) 1.34520(6) 0.47997(3)
Sn3 Sn 0.51984(5) 0.78162(8) -0.02022(4)
S3 S 0.6410(2) 0.9571(4) -0.06303(17)
N3 N 0.5696(7) 1.1458(12) -0.0024(7)
C39 C 0.5988(7) 1.0678(13) -0.0279(6)
C40 C 0.5869(7) 0.6831(13) -0.0879(6)
C41 C 0.5358(9) 0.6113(15) -0.1341(8)
H31 H 0.4759 0.6113 -0.1345
C42 C 0.5770(11) 0.5402(16) -0.1792(7)
H32 H 0.5446 0.4961 -0.2125
C43 C 0.6702(11) 0.5358(17) -0.1738(9)
H33 H 0.6983 0.4858 -0.2019
C44 C 0.7156(10) 0.6037(18) -0.1285(11)
H34 H 0.7756 0.6023 -0.1265
C45 C 0.6770(8) 0.6747(14) -0.0852(7)
H35 H 0.7111 0.7188 -0.0530
C46 C 0.4184(8) 0.8869(11) -0.0667(6)
C47 C 0.3527(9) 0.9305(16) -0.0275(9)
H36 H 0.3531 0.9139 0.0201
C48 C 0.2888(10) 0.997(2) -0.0600(11)
H37 H 0.2480 1.0278 -0.0328
C49 C 0.2811(12) 1.021(2) -0.1312(12)
H38 H 0.2346 1.0625 -0.1524
C50 C 0.3402(11) 0.984(2) -0.1656(10)
H39 H 0.3399 1.0054 -0.2125
C51 C 0.4078(11) 0.912(2) -0.1360(11)
H40 H 0.4460 0.8808 -0.1655
C52 C 0.5626(11) 0.8045(13) 0.0886(7)
C53 C 0.6318(9) 0.8718(19) 0.1136(7)
H41 H 0.6615 0.9108 0.0810
C54 C 0.6587(13) 0.884(3) 0.1815(8)
H42 H 0.7061 0.9317 0.1926
C55 C 0.6261(14) 0.838(2) 0.2310(9)
H43 H 0.6438 0.8556 0.2777
C56 C 0.5644(17) 0.764(2) 0.2133(8)
H44 H 0.5448 0.7191 0.2488
C57 C 0.5239(14) 0.7456(19) 0.1401(8)
H45 H 0.4762 0.6984 0.1299
N3A N 0.4304(7) 0.6458(12) 0.0024(7)
Sn3A Sn 0.48016(5) 1.28162(8) 0.02022(4)
Sn4 Sn 0.48547(5) 0.50441(8) 0.52767(4)
S4 S 0.3588(2) 0.3357(4) 0.56138(19)
N4 N 0.4290(8) 0.1556(12) 0.4949(6)
C58 C 0.4009(8) 0.2288(13) 0.5241(7)
C59 C 0.4504(9) 0.4793(15) 0.4196(6)
C60 C 0.3686(11) 0.481(3) 0.3923(8)
H46 H 0.3254 0.4965 0.4214
C61 C 0.3461(16) 0.460(3) 0.3224(12)
H47 H 0.2903 0.4686 0.3008
C62 C 0.4186(17) 0.423(3) 0.2857(12)
H48 H 0.4101 0.3780 0.2455
C63 C 0.4997(18) 0.456(3) 0.3118(15)
H49 H 0.5433 0.4732 0.2833
C64 C 0.5099(14) 0.460(3) 0.3766(10)
H50 H 0.5659 0.4489 0.3973
C65 C 0.4063(9) 0.6123(12) 0.5894(6)
C66 C 0.4202(11) 0.6132(18) 0.6595(8)
H51 H 0.4638 0.5690 0.6825
C67 C 0.3667(18) 0.684(2) 0.6985(9)
H52 H 0.3756 0.6863 0.7472
C68 C 0.3056(18) 0.7438(19) 0.6656(11)
H53 H 0.2741 0.7943 0.6907
C69 C 0.2880(10) 0.7346(18) 0.5991(11)
H54 H 0.2399 0.7727 0.5778
C70 C 0.3385(9) 0.6696(16) 0.5573(8)
H55 H 0.3257 0.6659 0.5088
C71 C 0.5901(8) 0.4132(13) 0.5792(7)
C72 C 0.6718(10) 0.4207(18) 0.5567(11)
H56 H 0.6824 0.4722 0.5215
C73 C 0.7400(11) 0.3498(19) 0.5875(12)
H57 H 0.7931 0.3490 0.5687
C74 C 0.7288(11) 0.289(2) 0.6390(10)
H58 H 0.7758 0.2510 0.6617
C75 C 0.6431(12) 0.276(3) 0.6655(11)
H59 H 0.6331 0.2240 0.7005
C76 C 0.5778(9) 0.3471(19) 0.6344(7)
H60 H 0.5244 0.3483 0.6527
N4A N 0.5710(8) 0.6556(12) 0.5051(6)
Sn4A Sn 0.51453(5) 0.00441(8) 0.47233(4)
loop_
_geom_bond_atom_site_label_1
_geom_bond_atom_site_label_2
_geom_bond_site_symmetry_1
_geom_bond_site_symmetry_2
Sn1 S1 1_555 1_555
Sn2 S2 1_555 1_555
Sn3 S3 1_555 1_555
Sn4 S4 1_555 1_555
S1 C1 1_555 1_555
S2 C20 1_555 1_555
S3 C39 1_555 1_555
S4 C58 1_555 1_555
N1 C1 1_555 1_555
N2 C20 1_555 1_555
N3 C39 1_555 1_555
N4 C58 1_555 1_555
C2 Sn1 1_555 1_555
C3 C2 1_555 1_555
H1 C3 1_555 1_555
C4 C3 1_555 1_555
H2 C4 1_555 1_555
C5 C4 1_555 1_555
H3 C5 1_555 1_555
C6 C5 1_555 1_555
H4 C6 1_555 1_555
C7 C2 1_555 1_555
H5 C7 1_555 1_555
C8 Sn1 1_555 1_555
C9 C8 1_555 1_555
H6 C9 1_555 1_555
C10 C9 1_555 1_555
H7 C10 1_555 1_555
C11 C10 1_555 1_555
H8 C11 1_555 1_555
C12 C11 1_555 1_555
H9 C12 1_555 1_555
C13 C8 1_555 1_555
H10 C13 1_555 1_555
C14 Sn1 1_555 1_555
C15 C14 1_555 1_555
H11 C15 1_555 1_555
C16 C15 1_555 1_555
H12 C16 1_555 1_555
C17 C16 1_555 1_555
H13 C17 1_555 1_555
C18 C17 1_555 1_555
H14 C18 1_555 1_555
C19 C14 1_555 1_555
H15 C19 1_555 1_555
C21 Sn2 1_555 1_555
C22 C21 1_555 1_555
H16 C22 1_555 1_555
C23 C22 1_555 1_555
H17 C23 1_555 1_555
C24 C23 1_555 1_555
H18 C24 1_555 1_555
C25 C24 1_555 1_555
H19 C25 1_555 1_555
C26 C21 1_555 1_555
H20 C26 1_555 1_555
C27 Sn2 1_555 1_555
C28 C27 1_555 1_555
H21 C28 1_555 1_555
C29 C28 1_555 1_555
H22 C29 1_555 1_555
C30 C29 1_555 1_555
H23 C30 1_555 1_555
C31 C30 1_555 1_555
H24 C31 1_555 1_555
C32 C27 1_555 1_555
H25 C32 1_555 1_555
C33 Sn2 1_555 1_555
C34 C33 1_555 1_555
H26 C34 1_555 1_555
C35 C34 1_555 1_555
H27 C35 1_555 1_555
C36 C35 1_555 1_555
H28 C36 1_555 1_555
C37 C36 1_555 1_555
H29 C37 1_555 1_555
C38 C33 1_555 1_555
H30 C38 1_555 1_555
C40 Sn3 1_555 1_555
C41 C40 1_555 1_555
H31 C41 1_555 1_555
C42 C41 1_555 1_555
H32 C42 1_555 1_555
C43 C42 1_555 1_555
H33 C43 1_555 1_555
C44 C43 1_555 1_555
H34 C44 1_555 1_555
C45 C40 1_555 1_555
H35 C45 1_555 1_555
C46 Sn3 1_555 1_555
C47 C46 1_555 1_555
H36 C47 1_555 1_555
C48 C47 1_555 1_555
H37 C48 1_555 1_555
C49 C48 1_555 1_555
H38 C49 1_555 1_555
C50 C49 1_555 1_555
H39 C50 1_555 1_555
C51 C46 1_555 1_555
H40 C51 1_555 1_555
C52 Sn3 1_555 1_555
C53 C52 1_555 1_555
H41 C53 1_555 1_555
C54 C53 1_555 1_555
H42 C54 1_555 1_555
C55 C54 1_555 1_555
H43 C55 1_555 1_555
C56 C55 1_555 1_555
H44 C56 1_555 1_555
C57 C52 1_555 1_555
H45 C57 1_555 1_555
C59 Sn4 1_555 1_555
C60 C59 1_555 1_555
H46 C60 1_555 1_555
C61 C60 1_555 1_555
H47 C61 1_555 1_555
C62 C61 1_555 1_555
H48 C62 1_555 1_555
C63 C62 1_555 1_555
H49 C63 1_555 1_555
C64 C59 1_555 1_555
H50 C64 1_555 1_555
C65 Sn4 1_555 1_555
C66 C65 1_555 1_555
H51 C66 1_555 1_555
C67 C66 1_555 1_555
H52 C67 1_555 1_555
C68 C67 1_555 1_555
H53 C68 1_555 1_555
C69 C68 1_555 1_555
H54 C69 1_555 1_555
C70 C65 1_555 1_555
H55 C70 1_555 1_555
C71 Sn4 1_555 1_555
C72 C71 1_555 1_555
H56 C72 1_555 1_555
C73 C72 1_555 1_555
H57 C73 1_555 1_555
C74 C73 1_555 1_555
H58 C74 1_555 1_555
C75 C74 1_555 1_555
H59 C75 1_555 1_555
C76 C71 1_555 1_555
H60 C76 1_555 1_555
N1A Sn1 1_555 1_555
N2A Sn2 1_555 1_555
N3A Sn3 1_555 1_555
N4A Sn4 1_555 1_555
Sn1A N1 1_555 1_555
Sn2A N2 1_555 1_555
Sn3A N3 1_555 1_555
Sn4A N4 1_555 1_555
C6 C7 1_555 1_555
C12 C13 1_555 1_555
C18 C19 1_555 1_555
C25 C26 1_555 1_555
C31 C32 1_555 1_555
C37 C38 1_555 1_555
C44 C45 1_555 1_555
C50 C51 1_555 1_555
C56 C57 1_555 1_555
C63 C64 1_555 1_555
C69 C70 1_555 1_555
C75 C76 1_555 1_555

#END
