
#######################################################################
#
#                 Cambridge Crystallographic Data Centre
#                                CCDC 
#
#######################################################################
#
# If this CIF has been generated from an entry in the Cambridge 
# Structural Database, then it will include bibliographic, chemical, 
# crystal, experimental, refinement or atomic coordinate data resulting 
# from the CCDC's data processing and validation procedures.
#
#######################################################################

data_SONJUA
_symmetry_cell_setting           monoclinic
_symmetry_space_group_name_H-M   'P 21/c'
_symmetry_Int_Tables_number      14
_space_group_name_Hall           '-P 2ybc'
loop_
_symmetry_equiv_pos_site_id
_symmetry_equiv_pos_as_xyz
1 x,y,z
2 -x,1/2+y,1/2-z
3 -x,-y,-z
4 x,1/2-y,1/2+z
_cell_length_a                   9.842(2)
_cell_length_b                   9.522(2)
_cell_length_c                   8.144(2)
_cell_angle_alpha                90
_cell_angle_beta                 96.74(2)
_cell_angle_gamma                90
_cell_volume                     757.945
loop_
_atom_site_label
_atom_site_type_symbol
_atom_site_fract_x
_atom_site_fract_y
_atom_site_fract_z
Fe1 Fe 0.0000 0.0000 0.0000
O1 O -0.0653(1) -0.1398(1) 0.1890(1)
O2 O -0.0696(1) -0.3354(1) 0.3336(1)
N1 N 0.1983(1) -0.0913(1) 0.0651(2)
N2 N 0.4144(2) -0.1193(2) 0.1647(2)
C1 C 0.3211(2) -0.0324(2) 0.0854(2)
C2 C 0.3471(2) -0.2404(2) 0.1996(2)
C3 C 0.2137(2) -0.2225(2) 0.1370(2)
C4 C 0.0973(2) -0.3212(2) 0.1439(2)
C5 C -0.0199(1) -0.2609(2) 0.2286(2)
H1 H 0.3407(2) 0.0593(2) 0.0487(2)
H2 H 0.5092(2) -0.1007(2) 0.1916(2)
H3 H 0.3860(2) -0.3207(2) 0.2562(2)
H4 H 0.0740(2) -0.3710(2) 0.0435(2)
H5 H 0.1118(2) -0.3859(2) 0.2330(2)
O2A O 0.0696(1) 0.1646(1) 0.1664(1)
Fe1A Fe 0.0000 -0.5000 0.5000
O2C O -0.0696(1) -0.1646(1) -0.1664(1)
O1B O 0.0653(1) 0.1398(1) -0.1890(1)
N1B N -0.1983(1) 0.0913(1) -0.0651(2)
C1B C -0.3211(2) 0.0324(2) -0.0854(2)
N2B N -0.4144(2) 0.1193(2) -0.1647(2)
C2B C -0.3471(2) 0.2404(2) -0.1996(2)
C3B C -0.2137(2) 0.2225(2) -0.1370(2)
C4B C -0.0973(2) 0.3212(2) -0.1439(2)
C5B C 0.0199(1) 0.2609(2) -0.2286(2)
O2B O 0.0696(1) 0.3354(1) -0.3336(1)
H4B H -0.0740(2) 0.3710(2) -0.0435(2)
H5B H -0.1118(2) 0.3859(2) -0.2330(2)
H3B H -0.3860(2) 0.3207(2) -0.2562(2)
H2B H -0.5092(2) 0.1007(2) -0.1916(2)
H1B H -0.3407(2) -0.0593(2) -0.0487(2)
Fe1A_2 Fe 0.0000 0.5000 -0.5000
O3 O -0.3188(1) -0.1064(2) 0.3060(2)
C6 C -0.3118(2) -0.1061(2) 0.4807(2)
H6 H -0.232(2) -0.119(3) 0.273(4)
H7 H -0.4010(2) -0.0941(3) 0.5120(3)
H8 H -0.2749(2) -0.1928(3) 0.5230(3)
H9 H -0.2548(2) -0.0312(3) 0.5243(3)
loop_
_geom_bond_atom_site_label_1
_geom_bond_atom_site_label_2
_geom_bond_site_symmetry_1
_geom_bond_site_symmetry_2
Fe1 O1 1_555 1_555
O1 C5 1_555 1_555
O2 C5 1_555 1_555
O3 C6 1_555 1_555
N1 Fe1 1_555 1_555
N2 C1 1_555 1_555
C1 N1 1_555 1_555
C2 N2 1_555 1_555
C3 N1 1_555 1_555
C4 C3 1_555 1_555
C5 C4 1_555 1_555
C6 H7 1_555 1_555
H1 C1 1_555 1_555
H2 N2 1_555 1_555
H3 C2 1_555 1_555
H4 C4 1_555 1_555
H5 C4 1_555 1_555
H6 O3 1_555 1_555
H8 C6 1_555 1_555
H9 C6 1_555 1_555
O2A Fe1 1_555 1_555
Fe1A O2 1_555 1_555
O2C Fe1 1_555 1_555
O1B Fe1 1_555 1_555
N1B Fe1 1_555 1_555
C1B N1B 1_555 1_555
N2B C1B 1_555 1_555
C2B N2B 1_555 1_555
C3B N1B 1_555 1_555
C4B C3B 1_555 1_555
C5B O1B 1_555 1_555
O2B C5B 1_555 1_555
H4B C4B 1_555 1_555
H5B C4B 1_555 1_555
H3B C2B 1_555 1_555
H2B N2B 1_555 1_555
H1B C1B 1_555 1_555
Fe1A_2 O2B 1_555 1_555
C2 C3 1_555 1_555
C2B C3B 1_555 1_555
C4B C5B 1_555 1_555

#END
