
#######################################################################
#
#                 Cambridge Crystallographic Data Centre
#                                CCDC 
#
#######################################################################
#
# If this CIF has been generated from an entry in the Cambridge 
# Structural Database, then it will include bibliographic, chemical, 
# crystal, experimental, refinement or atomic coordinate data resulting 
# from the CCDC's data processing and validation procedures.
#
#######################################################################

data_SONPAM
_symmetry_cell_setting           triclinic
_symmetry_space_group_name_H-M   'P -1'
_symmetry_Int_Tables_number      2
_space_group_name_Hall           '-P 1'
loop_
_symmetry_equiv_pos_site_id
_symmetry_equiv_pos_as_xyz
1 x,y,z
2 -x,-y,-z
_cell_length_a                   8.2377(5)
_cell_length_b                   10.0088(6)
_cell_length_c                   9.8980(6)
_cell_angle_alpha                106.492(2)
_cell_angle_beta                 72.951(2)
_cell_angle_gamma                113.542(2)
_cell_volume                     702.214
loop_
_atom_site_label
_atom_site_type_symbol
_atom_site_fract_x
_atom_site_fract_y
_atom_site_fract_z
Mg1 Mg 0.0000 0.0000 0.0000
O1 O 0.2264(2) 0.1236(2) 0.0806(2)
O2 O 0.4707(2) 0.1237(2) -0.0918(2)
O3 O 0.7276(2) 0.3284(2) 0.3894(2)
O4 O 0.8060(2) 0.1929(2) 0.4850(2)
O5 O -0.0205(3) 0.1893(2) -0.0280(2)
O6 O -0.1563(2) 0.0201(2) 0.2066(2)
N1 N 0.4247(3) 0.2806(2) 0.2941(2)
N2 N 0.4064(2) 0.2985(2) 0.5889(2)
C1 C 0.2424(3) 0.2130(3) 0.5309(3)
C2 C 0.2875(3) 0.1568(3) 0.3704(2)
C3 C 0.3437(3) 0.3942(2) 0.3044(3)
C4 C 0.4630(4) 0.5112(3) 0.2126(3)
C5 C 0.3662(4) 0.3807(3) 0.7352(3)
C6 C 0.5123(3) 0.2221(3) 0.1459(2)
C7 C 0.3921(3) 0.1513(2) 0.0363(2)
C8 C 0.5138(3) 0.2075(3) 0.5785(2)
C9 C 0.6995(3) 0.2496(3) 0.4775(2)
H1 H 0.1647 0.1195 0.5839
H2 H 0.1634 0.2832 0.5511
H3 H 0.3426 0.0701 0.3513
H4 H 0.1655 0.1127 0.3283
H5 H 0.2162 0.3378 0.2697
H6 H 0.3205 0.4495 0.4154
H7 H 0.3795 0.5754 0.2216
H8 H 0.4897 0.4697 0.1101
H9 H 0.2914 0.4281 0.7319
H10 H 0.2954 0.3205 0.8104
H11 H 0.6253 0.3135 0.1063
H12 H 0.5609 0.1399 0.1542
H13 H 0.5338 0.2188 0.6848
H14 H 0.4382 0.0931 0.5397
H15 H 0.5206(37) 0.3217(30) 0.3538(29)
H16 H -0.0514(40) 0.1915(32) -0.0955(31)
H17 H -0.0034(38) 0.2708(33) 0.0295(32)
H18 H -0.1436(36) 0.0981(30) 0.2790(29)
H19 H -0.2571(42) -0.0134(33) 0.1997(30)
O1A O -0.2264(2) -0.1236(2) -0.0806(2)
O5A O 0.0205(3) -0.1893(2) 0.0280(2)
O6A O 0.1563(2) -0.0201(2) -0.2066(2)
C5A C 0.6338(4) 0.6193(3) 0.2648(3)
C4A C 0.5370(4) 0.4888(3) 0.7874(3)
H16A H 0.0514(40) -0.1915(32) 0.0955(31)
H17A H 0.0034(38) -0.2708(33) -0.0295(32)
H18A H 0.1436(36) -0.0981(30) -0.2790(29)
H19A H 0.2571(42) 0.0134(33) -0.1997(30)
N2A N 0.5936(2) 0.7015(2) 0.4111(2)
H9A H 0.7086 0.5719 0.2681
H10A H 0.7046 0.6795 0.1896
C3A C 0.6563(3) 0.6058(2) 0.6956(3)
H7A H 0.6205 0.4246 0.7784
H8A H 0.5103 0.5303 0.8899
C1A C 0.7576(3) 0.7870(3) 0.4691(3)
C8A C 0.4862(3) 0.7925(3) 0.4215(2)
N1A N 0.5753(3) 0.7194(2) 0.7059(2)
H5A H 0.7838 0.6622 0.7303
H6A H 0.6795 0.5505 0.5846
C2A C 0.7125(3) 0.8432(3) 0.6296(2)
H1A H 0.8353 0.8805 0.4161
H2A H 0.8366 0.7168 0.4489
C9A C 0.3005(3) 0.7504(3) 0.5225(2)
H13A H 0.4662 0.7812 0.3152
H14A H 0.5618 0.9069 0.4603
C6A C 0.4877(3) 0.7779(3) 0.8541(2)
H15A H 0.4794(37) 0.6783(30) 0.6462(29)
H3A H 0.6574 0.9299 0.6487
H4A H 0.8345 0.8873 0.6717
O3A O 0.2724(2) 0.6716(2) 0.6106(2)
O4A O 0.1940(2) 0.8071(2) 0.5150(2)
C7A C 0.6079(3) 0.8487(2) 0.9637(2)
H11A H 0.3747 0.6865 0.8937
H12A H 0.4391 0.8601 0.8458
O1A_2 O 0.7736(2) 0.8764(2) 0.9194(2)
O2A O 0.5293(2) 0.8763(2) 1.0918(2)
Mg1_2 Mg 1.0000 1.0000 1.0000
O7 O 0.8319(3) 0.2403(2) 0.7756(2)
H20 H 0.8309(36) 0.2065(30) 0.6806(29)
H21 H 0.7294(42) 0.2027(33) 0.8118(31)
O8 O 0.0091(4) 0.4363(3) 0.1756(3)
H22 H -0.0751(42) 0.4124(32) 0.2436(31)
H23 H 0.0441(39) 0.5259(33) 0.1847(30)
loop_
_geom_bond_atom_site_label_1
_geom_bond_atom_site_label_2
_geom_bond_site_symmetry_1
_geom_bond_site_symmetry_2
Mg1 O1 1_555 1_555
O1 C7 1_555 1_555
O2 C7 1_555 1_555
O3 C9 1_555 1_555
O4 C9 1_555 1_555
O5 Mg1 1_555 1_555
O6 Mg1 1_555 1_555
O7 H20 1_555 1_555
O8 H22 1_555 1_555
N1 C2 1_555 1_555
N2 C1 1_555 1_555
C1 C2 1_555 1_555
C2 H3 1_555 1_555
C3 N1 1_555 1_555
C4 C3 1_555 1_555
C5 N2 1_555 1_555
C6 N1 1_555 1_555
C7 C6 1_555 1_555
C8 N2 1_555 1_555
C9 C8 1_555 1_555
H1 C1 1_555 1_555
H2 C1 1_555 1_555
H4 C2 1_555 1_555
H5 C3 1_555 1_555
H6 C3 1_555 1_555
H7 C4 1_555 1_555
H8 C4 1_555 1_555
H9 C5 1_555 1_555
H10 C5 1_555 1_555
H11 C6 1_555 1_555
H12 C6 1_555 1_555
H13 C8 1_555 1_555
H14 C8 1_555 1_555
H15 N1 1_555 1_555
H16 O5 1_555 1_555
H17 O5 1_555 1_555
H18 O6 1_555 1_555
H19 O6 1_555 1_555
H21 O7 1_555 1_555
H23 O8 1_555 1_555
O1A Mg1 1_555 1_555
O5A Mg1 1_555 1_555
O6A Mg1 1_555 1_555
C5A C4 1_555 1_555
C4A C5 1_555 1_555
H16A O5A 1_555 1_555
H17A O5A 1_555 1_555
H18A O6A 1_555 1_555
H19A O6A 1_555 1_555
N2A C5A 1_555 1_555
H9A C5A 1_555 1_555
H10A C5A 1_555 1_555
C3A C4A 1_555 1_555
H7A C4A 1_555 1_555
H8A C4A 1_555 1_555
C1A N2A 1_555 1_555
C8A N2A 1_555 1_555
N1A C3A 1_555 1_555
H5A C3A 1_555 1_555
H6A C3A 1_555 1_555
C2A C1A 1_555 1_555
H1A C1A 1_555 1_555
H2A C1A 1_555 1_555
C9A C8A 1_555 1_555
H13A C8A 1_555 1_555
H14A C8A 1_555 1_555
C6A N1A 1_555 1_555
H15A N1A 1_555 1_555
H3A C2A 1_555 1_555
H4A C2A 1_555 1_555
O3A C9A 1_555 1_555
O4A C9A 1_555 1_555
C7A C6A 1_555 1_555
H11A C6A 1_555 1_555
H12A C6A 1_555 1_555
O1A_2 C7A 1_555 1_555
O2A C7A 1_555 1_555
Mg1_2 O1A_2 1_555 1_555
N1A C2A 1_555 1_555

#END
