
#######################################################################
#
#                 Cambridge Crystallographic Data Centre
#                                CCDC 
#
#######################################################################
#
# If this CIF has been generated from an entry in the Cambridge 
# Structural Database, then it will include bibliographic, chemical, 
# crystal, experimental, refinement or atomic coordinate data resulting 
# from the CCDC's data processing and validation procedures.
#
#######################################################################

data_SONSIZ
_symmetry_cell_setting           rhombohedral
_symmetry_space_group_name_H-M   'R 3 c'
_symmetry_Int_Tables_number      161
_space_group_name_Hall           'R 3 -2"c'
loop_
_symmetry_equiv_pos_site_id
_symmetry_equiv_pos_as_xyz
1 x,y,z
2 -y,x-y,z
3 -x+y,-x,z
4 -y,-x,1/2+z
5 -x+y,y,1/2+z
6 x,x-y,1/2+z
7 2/3+x,1/3+y,1/3+z
8 2/3-y,1/3+x-y,1/3+z
9 2/3-x+y,1/3-x,1/3+z
10 2/3-y,1/3-x,5/6+z
11 2/3-x+y,1/3+y,5/6+z
12 2/3+x,1/3+x-y,5/6+z
13 1/3+x,2/3+y,2/3+z
14 1/3-y,2/3+x-y,2/3+z
15 1/3-x+y,2/3-x,2/3+z
16 1/3-y,2/3-x,1/6+z
17 1/3-x+y,2/3+y,1/6+z
18 1/3+x,2/3+x-y,1/6+z
_cell_length_a                   26.902(4)
_cell_length_b                   26.902(4)
_cell_length_c                   30.673(6)
_cell_angle_alpha                90
_cell_angle_beta                 90
_cell_angle_gamma                120
_cell_volume                     19224.5
loop_
_atom_site_label
_atom_site_type_symbol
_atom_site_fract_x
_atom_site_fract_y
_atom_site_fract_z
Sn1 Sn 0.39061(5) 0.20938(5) 0.31701(4)
Sn2 Sn 0.50054(5) 0.19426(5) 0.25812(4)
Sn3 Sn 0.66641(5) 0.17713(5) 0.26199(3)
Sn4 Sn 0.52832(5) 0.08208(5) 0.20430(4)
Se1 Se 0.42873(11) 0.22989(11) 0.23296(9)
Se2 Se 0.44281(10) 0.15448(11) 0.32591(8)
Se3 Se 0.55645(7) 0.13802(7) 0.28612(6)
Se4 Se 0.48097(9) 0.14126(8) 0.18655(6)
Se5 Se 0.58228(7) 0.29770(7) 0.26310(7)
Se6 Se 0.63307(11) 0.12302(12) 0.19310(9)
Se7 Se 0.68266(7) 0.13649(8) 0.33169(5)
Se8 Se 0.50455(8) 0.04378(8) 0.12219(6)
Se9 Se 0.47354(8) -0.01858(7) 0.23297(6)
Sn1A Sn 0.79062(5) 0.18123(7) 0.31701(4)
Sn1I Sn 0.45729(5) -0.05728(5) 0.15034(4)
Sn3B Sn 0.51072(7) 0.33359(5) 0.26199(3)
Se1A Se 0.77011(11) 0.19884(16) 0.23296(9)
Se5A Se 0.70230(7) 0.28458(10) 0.26310(7)
Se7B Se 0.45383(11) 0.31734(7) 0.33169(5)
Se8O Se 0.28955(8) 0.16212(8) 0.28886(6)
Se9O Se 0.35191(7) 0.19313(8) 0.39964(6)
Fe1 Fe 0.66701(11) 0.13045(10) 0.00833(8)
N1 N 0.6524(6) 0.0686(5) 0.0501(4)
N2 N 0.6749(6) 0.0783(5) -0.0334(4)
N3 N 0.6625(8) 0.1787(7) 0.0544(5)
N4 N 0.7476(7) 0.1688(7) 0.0278(5)
N5 N 0.6798(7) 0.1863(6) -0.0372(5)
N6 N 0.5852(7) 0.0962(6) -0.0105(5)
C1 C 0.6479(8) 0.0714(9) 0.0930(6)
H1 H 0.6475 0.1027 0.1056
C2 C 0.6437(10) 0.0256(8) 0.1199(6)
H2 H 0.6374 0.0256 0.1497
C3 C 0.6488(9) -0.0166(8) 0.1023(6)
H3 H 0.6469 -0.0454 0.1203
C4 C 0.6569(9) -0.0194(8) 0.0581(6)
H4 H 0.6620 -0.0482 0.0460
C5 C 0.6570(8) 0.0246(8) 0.0324(7)
C6 C 0.6632(7) 0.0257(7) -0.0147(5)
C7 C 0.6574(8) -0.0179(8) -0.0398(8)
H5 H 0.6454 -0.0539 -0.0279
C8 C 0.6700(11) -0.0077(12) -0.0846(8)
H6 H 0.6675 -0.0363 -0.1030
C9 C 0.6854(12) 0.0436(11) -0.0993(7)
H7 H 0.6972 0.0523 -0.1281
C10 C 0.6849(9) 0.0838(9) -0.0746(5)
H8 H 0.6922 0.1179 -0.0879
C11 C 0.6162(10) 0.1819(9) 0.0663(7)
H9 H 0.5825 0.1626 0.0502
C12 C 0.6182(13) 0.2137(11) 0.1023(9)
H10 H 0.5852 0.2144 0.1105
C13 C 0.6656(17) 0.2433(10) 0.1257(8)
H11 H 0.6666 0.2657 0.1492
C14 C 0.7106(13) 0.2401(10) 0.1146(8)
H12 H 0.7432 0.2587 0.1320
C15 C 0.7125(10) 0.2094(8) 0.0769(6)
C16 C 0.7593(9) 0.2055(7) 0.0627(6)
C17 C 0.8141(12) 0.2315(12) 0.0818(11)
H13 H 0.8220 0.2536 0.1069
C18 C 0.8577(12) 0.2232(13) 0.0619(11)
H14 H 0.8949 0.2423 0.0730
C19 C 0.8460(11) 0.1895(16) 0.0289(10)
H15 H 0.8743 0.1836 0.0169
C20 C 0.7897(8) 0.1615(11) 0.0106(7)
H16 H 0.7819 0.1378 -0.0136
C21 C 0.7289(11) 0.2301(10) -0.0511(8)
H17 H 0.7630 0.2384 -0.0373
C22 C 0.7304(15) 0.2636(11) -0.0858(9)
H18 H 0.7653 0.2957 -0.0928
C23 C 0.6877(15) 0.2535(11) -0.1081(10)
H19 H 0.6918 0.2765 -0.1321
C24 C 0.6331(15) 0.2073(12) -0.0973(8)
H20 H 0.6004 0.1995 -0.1129
C25 C 0.6311(11) 0.1739(9) -0.0615(7)
C26 C 0.5773(9) 0.1224(12) -0.0454(8)
C27 C 0.5240(14) 0.1034(14) -0.0620(9)
H21 H 0.5192 0.1250 -0.0835
C28 C 0.4779(14) 0.0546(15) -0.0484(10)
H22 H 0.4421 0.0396 -0.0616
C29 C 0.4878(11) 0.0283(12) -0.0133(9)
H23 H 0.4572 -0.0050 -0.0018
C30 C 0.5401(8) 0.0493(9) 0.0048(7)
H24 H 0.5447 0.0305 0.0286
O1 O 0.667(4) 0.934(5) 0.852(3)
O2 O 0.566(4) 0.901(3) 0.896(3)
loop_
_geom_bond_atom_site_label_1
_geom_bond_atom_site_label_2
_geom_bond_site_symmetry_1
_geom_bond_site_symmetry_2
Sn1 Se1 1_555 1_555
Sn2 Se1 1_555 1_555
Sn3 Se3 1_555 1_555
Sn4 Se3 1_555 1_555
Se1 Sn3B 1_555 1_555
Se2 Sn1 1_555 1_555
Se3 Sn2 1_555 1_555
Se4 Sn2 1_555 1_555
Se5 Sn2 1_555 1_555
Se6 Sn3 1_555 1_555
Se7 Sn3 1_555 1_555
Se8 Sn4 1_555 1_555
Se9 Sn4 1_555 1_555
Fe1 N1 1_555 1_555
N1 C1 1_555 1_555
N2 Fe1 1_555 1_555
N3 Fe1 1_555 1_555
N4 Fe1 1_555 1_555
N5 Fe1 1_555 1_555
N6 Fe1 1_555 1_555
C1 H1 1_555 1_555
C2 C1 1_555 1_555
H2 C2 1_555 1_555
C3 C2 1_555 1_555
H3 C3 1_555 1_555
C4 C3 1_555 1_555
H4 C4 1_555 1_555
C5 N1 1_555 1_555
C6 N2 1_555 1_555
C7 C6 1_555 1_555
H5 C7 1_555 1_555
C8 C7 1_555 1_555
H6 C8 1_555 1_555
C9 C8 1_555 1_555
H7 C9 1_555 1_555
C10 N2 1_555 1_555
H8 C10 1_555 1_555
C11 N3 1_555 1_555
H9 C11 1_555 1_555
C12 C11 1_555 1_555
H10 C12 1_555 1_555
C13 C12 1_555 1_555
H11 C13 1_555 1_555
C14 C13 1_555 1_555
H12 C14 1_555 1_555
C15 N3 1_555 1_555
C16 N4 1_555 1_555
C17 C16 1_555 1_555
H13 C17 1_555 1_555
C18 C17 1_555 1_555
H14 C18 1_555 1_555
C19 C18 1_555 1_555
H15 C19 1_555 1_555
C20 N4 1_555 1_555
H16 C20 1_555 1_555
C21 N5 1_555 1_555
H17 C21 1_555 1_555
C22 C21 1_555 1_555
H18 C22 1_555 1_555
C23 C22 1_555 1_555
H19 C23 1_555 1_555
C24 C23 1_555 1_555
H20 C24 1_555 1_555
C25 N5 1_555 1_555
C26 N6 1_555 1_555
C27 C26 1_555 1_555
H21 C27 1_555 1_555
C28 C27 1_555 1_555
H22 C28 1_555 1_555
C29 C28 1_555 1_555
H23 C29 1_555 1_555
C30 N6 1_555 1_555
H24 C30 1_555 1_555
Sn1A Se7 1_555 1_555
Sn1I Se8 1_555 1_555
Sn3B Se5 1_555 1_555
Se1A Sn3 1_555 1_555
Se5A Sn3 1_555 1_555
Se7B Sn1 1_555 1_555
Se8O Sn1 1_555 1_555
Se9O Sn1 1_555 1_555
Sn2 Se2 1_555 1_555
Sn4 Se4 1_555 1_555
Sn4 Se6 1_555 1_555
Se9 Sn1I 1_555 1_555
C4 C5 1_555 1_555
C5 C6 1_555 1_555
C9 C10 1_555 1_555
C14 C15 1_555 1_555
C15 C16 1_555 1_555
C19 C20 1_555 1_555
C24 C25 1_555 1_555
C25 C26 1_555 1_555
C29 C30 1_555 1_555
Sn1A Se1A 1_555 1_555
Sn3B Se7B 1_555 1_555

#END
