
#######################################################################
#
#                 Cambridge Crystallographic Data Centre
#                                CCDC 
#
#######################################################################
#
# If this CIF has been generated from an entry in the Cambridge 
# Structural Database, then it will include bibliographic, chemical, 
# crystal, experimental, refinement or atomic coordinate data resulting 
# from the CCDC's data processing and validation procedures.
#
#######################################################################

data_SOPBEF
_symmetry_cell_setting           triclinic
_symmetry_space_group_name_H-M   'P -1'
_symmetry_Int_Tables_number      2
_space_group_name_Hall           '-P 1'
loop_
_symmetry_equiv_pos_site_id
_symmetry_equiv_pos_as_xyz
1 x,y,z
2 -x,-y,-z
_cell_length_a                   6.267(2)
_cell_length_b                   7.6810(12)
_cell_length_c                   16.879(7)
_cell_angle_alpha                86.36(3)
_cell_angle_beta                 83.74(2)
_cell_angle_gamma                66.44(2)
_cell_volume                     740.156
loop_
_atom_site_label
_atom_site_type_symbol
_atom_site_fract_x
_atom_site_fract_y
_atom_site_fract_z
Cu1 Cu 0.5000 0.0000 0.5000
C1 C 0.3461(5) -0.0968(3) 0.25422(16)
C2 C 0.4047(4) 0.1876(3) 0.19382(14)
H1 H 0.4891 0.1210 0.1458
H2 H 0.5173 0.1648 0.2325
C3 C 0.0513(4) 0.1264(3) 0.16959(13)
H3 H -0.0417 0.2606 0.1612
H4 H -0.0526 0.0694 0.1948
C4 C 0.1509(4) 0.0369(4) 0.08889(14)
H5 H 0.2600 -0.0934 0.0964
H6 H 0.2353 0.1059 0.0595
C5 C -0.0443(4) 0.0406(4) 0.04135(14)
H7 H -0.1249 -0.0318 0.0704
H8 H -0.1564 0.1707 0.0363
N1 N 0.2327(3) 0.1059(3) 0.22622(11)
O1 O 0.5967(3) -0.3474(2) 0.35844(9)
O2 O 0.7907(3) -0.1552(2) 0.27594(11)
H9 H 0.8810 -0.2653 0.2671
O3 O 0.4795(3) 0.0046(2) 0.38386(9)
O4 O 0.1009(3) 0.5251(2) 0.24028(11)
O5 O 0.1854(3) 0.4837(3) 0.08996(10)
O6 O 0.4931(3) 0.4911(3) 0.17466(11)
H10 H 0.5293 0.5283 0.1307
O7 O 0.5022(4) 0.2556(3) 0.48647(13)
P1 P 0.56482(10) -0.15352(8) 0.32511(3)
P2 P 0.27579(10) 0.44208(8) 0.17028(3)
H11 H 0.410(5) -0.172(4) 0.2116(17)
H12 H 0.160(5) 0.163(4) 0.2644(17)
H13 H 0.228(5) -0.122(4) 0.2799(18)
O11 O 0.9249(4) -0.1524(4) 0.49059(17)
H18 H 0.471(6) 0.302(4) 0.526(2)
H19 H 0.420(6) 0.320(5) 0.455(2)
H20 H 1.005(8) -0.248(7) 0.455(3)
H22 H 0.913(6) -0.087(5) 0.455(2)
Cu1_2 Cu -0.5000 0.0000 -0.5000
C1A C -0.3461(5) 0.0968(3) -0.25422(16)
C2A C -0.4047(4) -0.1876(3) -0.19382(14)
H1A H -0.4891 -0.1210 -0.1458
H2A H -0.5173 -0.1648 -0.2325
C3A C -0.0513(4) -0.1264(3) -0.16959(13)
H3A H 0.0417 -0.2606 -0.1612
H4A H 0.0526 -0.0694 -0.1948
C4A C -0.1509(4) -0.0369(4) -0.08889(14)
H5A H -0.2600 0.0934 -0.0964
H6A H -0.2353 -0.1059 -0.0595
C5A C 0.0443(4) -0.0406(4) -0.04135(14)
H7A H 0.1249 0.0318 -0.0704
H8A H 0.1564 -0.1707 -0.0363
N1A N -0.2327(3) -0.1059(3) -0.22622(11)
O1A O -0.5967(3) 0.3474(2) -0.35844(9)
O2A O -0.7907(3) 0.1552(2) -0.27594(11)
H9A H -0.8810 0.2653 -0.2671
O3A O -0.4795(3) -0.0046(2) -0.38386(9)
O3A_2 O 0.5205(3) -0.0046(2) 0.61614(9)
O4A O -0.1009(3) -0.5251(2) -0.24028(11)
O5A O -0.1854(3) -0.4837(3) -0.08996(10)
O6A O -0.4931(3) -0.4911(3) -0.17466(11)
H10A H -0.5293 -0.5283 -0.1307
O7A O 0.4978(4) -0.2556(3) 0.51353(13)
P1A P -0.56482(10) 0.15352(8) -0.32511(3)
P2A P -0.27579(10) -0.44208(8) -0.17028(3)
H11A H -0.410(5) 0.172(4) -0.2116(17)
H12A H -0.160(5) -0.163(4) -0.2644(17)
H13A H -0.228(5) 0.122(4) -0.2799(18)
O11A O 0.0751(4) 0.1524(4) 0.50941(17)
H18A H 0.529(6) -0.302(4) 0.474(2)
H19A H 0.580(6) -0.320(5) 0.545(2)
H20A H -0.005(8) 0.248(7) 0.545(3)
H22A H 0.087(6) 0.087(5) 0.545(2)
O8 O 0.2356(4) 0.5361(3) 0.39169(13)
H16 H 0.191(7) 0.506(6) 0.362(3)
H23 H 0.391(15) 0.582(12) 0.368(5)
O9 O 0.7137(4) 0.6150(4) 0.06581(14)
H14 H 0.856(9) 0.572(6) 0.083(3)
H15 H 0.718(6) 0.586(5) 0.025(2)
O10 O 0.8978(7) 0.2649(4) 0.35123(16)
H17 H 0.991(5) 0.299(5) 0.3543(19)
H21 H 0.825(12) 0.368(10) 0.350(4)
loop_
_geom_bond_atom_site_label_1
_geom_bond_atom_site_label_2
_geom_bond_site_symmetry_1
_geom_bond_site_symmetry_2
Cu1 O3 1_555 1_555
C1 N1 1_555 1_555
C2 H1 1_555 1_555
H2 C2 1_555 1_555
C3 H3 1_555 1_555
H4 C3 1_555 1_555
C4 C3 1_555 1_555
H5 C4 1_555 1_555
H6 C4 1_555 1_555
C5 C4 1_555 1_555
H7 C5 1_555 1_555
H8 C5 1_555 1_555
N1 C2 1_555 1_555
O1 P1 1_555 1_555
O2 H9 1_555 1_555
O3 P1 1_555 1_555
O4 P2 1_555 1_555
O5 P2 1_555 1_555
O6 H10 1_555 1_555
O7 Cu1 1_555 1_555
O8 H16 1_555 1_555
O9 H14 1_555 1_555
O10 H17 1_555 1_555
P1 C1 1_555 1_555
P2 C2 1_555 1_555
H11 C1 1_555 1_555
H12 N1 1_555 1_555
H13 C1 1_555 1_555
H15 O9 1_555 1_555
O11 Cu1 1_555 1_555
H18 O7 1_555 1_555
H19 O7 1_555 1_555
H20 O11 1_555 1_555
H21 O10 1_555 1_555
H22 O11 1_555 1_555
H23 O8 1_555 1_555
Cu1_2 O3A 1_555 1_555
C1A N1A 1_555 1_555
C2A H1A 1_555 1_555
H2A C2A 1_555 1_555
C3A H3A 1_555 1_555
H4A C3A 1_555 1_555
C4A C3A 1_555 1_555
H5A C4A 1_555 1_555
H6A C4A 1_555 1_555
C5A C5 1_555 1_555
H7A C5A 1_555 1_555
H8A C5A 1_555 1_555
N1A C2A 1_555 1_555
O1A P1A 1_555 1_555
O2A H9A 1_555 1_555
O3A P1A 1_555 1_555
O3A_2 Cu1 1_555 1_555
O4A P2A 1_555 1_555
O5A P2A 1_555 1_555
O6A H10A 1_555 1_555
O7A Cu1 1_555 1_555
P1A C1A 1_555 1_555
P2A C2A 1_555 1_555
H11A C1A 1_555 1_555
H12A N1A 1_555 1_555
H13A C1A 1_555 1_555
O11A Cu1 1_555 1_555
H18A O7A 1_555 1_555
H19A O7A 1_555 1_555
H20A O11A 1_555 1_555
H22A O11A 1_555 1_555
C3 N1 1_555 1_555
O2 P1 1_555 1_555
O6 P2 1_555 1_555
C3A N1A 1_555 1_555
C4A C5A 1_555 1_555
O2A P1A 1_555 1_555
O6A P2A 1_555 1_555

#END
