
#######################################################################
#
#                 Cambridge Crystallographic Data Centre
#                                CCDC 
#
#######################################################################
#
# If this CIF has been generated from an entry in the Cambridge 
# Structural Database, then it will include bibliographic, chemical, 
# crystal, experimental, refinement or atomic coordinate data resulting 
# from the CCDC's data processing and validation procedures.
#
#######################################################################

data_SOPBAB
_symmetry_cell_setting           monoclinic
_symmetry_space_group_name_H-M   'C 2/c'
_symmetry_Int_Tables_number      15
_space_group_name_Hall           '-C 2yn'
loop_
_symmetry_equiv_pos_site_id
_symmetry_equiv_pos_as_xyz
1 x,y,z
2 -x,y,1/2-z
3 1/2+x,1/2+y,z
4 1/2-x,1/2+y,1/2-z
5 -x,-y,-z
6 x,-y,1/2+z
7 1/2-x,1/2-y,-z
8 1/2+x,1/2-y,1/2+z
_cell_length_a                   13.999(4)
_cell_length_b                   5.9939(13)
_cell_length_c                   33.447(12)
_cell_angle_alpha                90
_cell_angle_beta                 101.52(2)
_cell_angle_gamma                90
_cell_volume                     2749.95
loop_
_atom_site_label
_atom_site_type_symbol
_atom_site_fract_x
_atom_site_fract_y
_atom_site_fract_z
Sr1 Sr 1.0000 0.12171(9) 0.7500
P1 P 1.02756(7) 0.29361(16) 0.58901(3)
P2 P 0.78278(7) 0.32759(17) 0.67274(3)
C1 C 0.8644(3) -0.0986(6) 0.58680(11)
H1 H 0.8418 -0.2296 0.5992
H2 H 0.9286 -0.1322 0.5816
C2 C 0.7962(3) -0.0551(7) 0.54641(11)
H3 H 0.8231 0.0607 0.5317
H4 H 0.7337 -0.0040 0.5512
C3 C 0.7822(3) -0.2676(7) 0.52106(12)
H5 H 0.7529 -0.3806 0.5355
H6 H 0.8454 -0.3223 0.5178
C4 C 0.9062(3) 0.3061(6) 0.60075(11)
H7 H 0.9052 0.4230 0.6207
H8 H 0.8600 0.3467 0.5762
C5 C 0.7826(3) 0.1148(7) 0.63411(12)
H9 H 0.7698 -0.0279 0.6457
H10 H 0.7287 0.1451 0.6116
N1 N 0.8736(2) 0.0920(5) 0.61699(10)
O1 O 1.0264(2) 0.1988(5) 0.54772(9)
O2 O 1.08686(19) 0.1728(5) 0.62500(9)
O3 O 1.0554(2) 0.5457(5) 0.59099(10)
O4 O 0.6994(2) 0.2667(5) 0.69232(9)
O5 O 0.7633(2) 0.5541(5) 0.64894(10)
O6 O 0.8834(2) 0.3457(5) 0.69813(8)
O7 O 0.9980(2) -0.1552(5) 0.68190(9)
O8 O 0.8536(3) -0.1641(6) 0.73537(10)
O9 O 1.1074(2) 0.3195(6) 0.70550(10)
H11 H 0.915(3) 0.059(7) 0.6333(13)
H12 H 1.058(4) 0.599(9) 0.5714(16)
H13 H 0.708(5) 0.576(12) 0.636(2)
Sr1F Sr 0.5000 -0.62171(9) 0.2500
P1F P 0.47244(7) -0.79361(16) 0.41099(3)
P2F P 0.71722(7) -0.82759(17) 0.32726(3)
C1F C 0.6356(3) -0.4014(6) 0.41320(11)
H1F H 0.6582 -0.2704 0.4008
H2F H 0.5714 -0.3678 0.4184
C2F C 0.7038(3) -0.4449(7) 0.45359(11)
H3F H 0.6769 -0.5607 0.4683
H4F H 0.7663 -0.4960 0.4488
C3F C 0.7178(3) -0.2324(7) 0.47894(12)
H5F H 0.7471 -0.1194 0.4645
H6F H 0.6546 -0.1777 0.4822
C4F C 0.5938(3) -0.8061(6) 0.39925(11)
H7F H 0.5948 -0.9230 0.3793
H8F H 0.6400 -0.8467 0.4238
C5F C 0.7174(3) -0.6148(7) 0.36589(12)
H9F H 0.7302 -0.4721 0.3543
H10F H 0.7713 -0.6451 0.3884
N1F N 0.6264(2) -0.5920(5) 0.38301(10)
O1F O 0.4736(2) -0.6988(5) 0.45228(9)
O2F O 0.41314(19) -0.6728(5) 0.37500(9)
O3F O 0.4446(2) -1.0457(5) 0.40901(10)
O4F O 0.8006(2) -0.7667(5) 0.30768(9)
O5F O 0.7367(2) -1.0541(5) 0.35106(10)
O6F O 0.6166(2) -0.8457(5) 0.30187(8)
O6A O 1.1166(2) 0.3457(5) 0.80187(8)
O7A O 1.0020(2) -0.1552(5) 0.81810(9)
O8A O 1.1464(3) -0.1641(6) 0.76463(10)
O9A O 0.8926(2) 0.3195(6) 0.79450(10)
H11F H 0.585(3) -0.559(7) 0.3667(13)
H12F H 0.442(4) -1.099(9) 0.4286(16)
H13F H 0.792(5) -1.076(12) 0.364(2)
O10 O 0.0772(2) 0.7809(5) 0.53046(9)
loop_
_geom_bond_atom_site_label_1
_geom_bond_atom_site_label_2
_geom_bond_site_symmetry_1
_geom_bond_site_symmetry_2
Sr1 O6 1_555 1_555
P1 C4 1_555 1_555
P2 C5 1_555 1_555
C1 H1 1_555 1_555
H2 C1 1_555 1_555
C2 C1 1_555 1_555
H3 C2 1_555 1_555
H4 C2 1_555 1_555
C3 C2 1_555 1_555
H5 C3 1_555 1_555
H6 C3 1_555 1_555
C4 H7 1_555 1_555
H8 C4 1_555 1_555
C5 H9 1_555 1_555
H10 C5 1_555 1_555
N1 C1 1_555 1_555
O1 P1 1_555 1_555
O2 P1 1_555 1_555
O3 P1 1_555 1_555
O4 P2 1_555 1_555
O5 P2 1_555 1_555
O6 P2 1_555 1_555
O7 Sr1 1_555 1_555
O8 Sr1 1_555 1_555
O9 Sr1 1_555 1_555
H11 N1 1_555 1_555
H12 O3 1_555 1_555
H13 O5 1_555 1_555
Sr1F O6F 1_555 1_555
P1F C4F 1_555 1_555
P2F C5F 1_555 1_555
C1F H1F 1_555 1_555
H2F C1F 1_555 1_555
C2F C1F 1_555 1_555
H3F C2F 1_555 1_555
H4F C2F 1_555 1_555
C3F C3 1_555 1_555
H5F C3F 1_555 1_555
H6F C3F 1_555 1_555
C4F H7F 1_555 1_555
H8F C4F 1_555 1_555
C5F H9F 1_555 1_555
H10F C5F 1_555 1_555
N1F C1F 1_555 1_555
O1F P1F 1_555 1_555
O2F P1F 1_555 1_555
O3F P1F 1_555 1_555
O4F P2F 1_555 1_555
O5F P2F 1_555 1_555
O6F P2F 1_555 1_555
O6A Sr1 1_555 1_555
O7A Sr1 1_555 1_555
O8A Sr1 1_555 1_555
O9A Sr1 1_555 1_555
H11F N1F 1_555 1_555
H12F O3F 1_555 1_555
H13F O5F 1_555 1_555
C4 N1 1_555 1_555
C5 N1 1_555 1_555
C2F C3F 1_555 1_555
C4F N1F 1_555 1_555
C5F N1F 1_555 1_555

#END
