
#######################################################################
#
#                 Cambridge Crystallographic Data Centre
#                                CCDC 
#
#######################################################################
#
# If this CIF has been generated from an entry in the Cambridge 
# Structural Database, then it will include bibliographic, chemical, 
# crystal, experimental, refinement or atomic coordinate data resulting 
# from the CCDC's data processing and validation procedures.
#
#######################################################################

data_SOPDAD
_symmetry_cell_setting           triclinic
_symmetry_space_group_name_H-M   'P -1'
_symmetry_Int_Tables_number      2
_space_group_name_Hall           '-P 1'
loop_
_symmetry_equiv_pos_site_id
_symmetry_equiv_pos_as_xyz
1 x,y,z
2 -x,-y,-z
_cell_length_a                   9.1552(6)
_cell_length_b                   10.7244(7)
_cell_length_c                   12.2586(8)
_cell_angle_alpha                93.3430(10)
_cell_angle_beta                 100.8220(10)
_cell_angle_gamma                105.4800(10)
_cell_volume                     1131.81
loop_
_atom_site_label
_atom_site_type_symbol
_atom_site_fract_x
_atom_site_fract_y
_atom_site_fract_z
Cu1 Cu 0.64164(9) 0.05829(7) 0.53769(6)
I1 I 0.58783(4) -0.16041(3) 0.41586(3)
Cu2 Cu 0.49553(9) 0.36792(7) 0.47394(6)
I2 I 0.74205(4) 0.53924(3) 0.59711(4)
S1 S 0.7984(2) 0.06859(19) 0.71081(14)
N1 N 0.7958(5) 0.2245(4) 0.5016(4)
H1 H 0.763(7) 0.285(5) 0.535(5)
C1 C 0.9451(8) 0.2444(7) 0.5800(7)
H2 H 1.0105 0.3316 0.5787
H3 H 0.9971 0.1831 0.5561
C2 C 0.9249(9) 0.2265(7) 0.6963(6)
H4 H 0.8828 0.2939 0.7224
H5 H 1.0258 0.2380 0.7441
C3 C 0.9162(9) -0.0406(7) 0.6920(5)
H6 H 0.8482 -0.1262 0.6611
H7 H 0.9790 -0.0089 0.6385
C4 C 1.0204(7) -0.0525(6) 0.7984(5)
C5 C 1.1708(9) 0.0228(7) 0.8267(6)
H8 H 1.2079 0.0850 0.7812
C6 C 1.2702(10) 0.0069(10) 0.9240(7)
H9 H 1.3731 0.0573 0.9423
C7 C 1.2158(13) -0.0810(11) 0.9900(7)
H10 H 1.2816 -0.0911 1.0544
C8 C 1.0656(14) -0.1560(11) 0.9647(8)
H11 H 1.0294 -0.2161 1.0121
C9 C 0.9660(10) -0.1428(8) 0.8675(7)
H12 H 0.8637 -0.1946 0.8496
S2 S 0.5324(2) 0.29283(16) 0.30161(13)
C10 C 0.6669(8) 0.1964(6) 0.3009(5)
H13 H 0.6139 0.1079 0.3106
H14 H 0.6919 0.1943 0.2275
C11 C 0.6271(11) 0.4364(7) 0.2463(6)
H15 H 0.5710 0.5006 0.2523
H16 H 0.7309 0.4725 0.2917
C12 C 0.8151(8) 0.2386(7) 0.3855(6)
H17 H 0.8826 0.1879 0.3680
H18 H 0.8658 0.3293 0.3804
C13 C 0.6386(10) 0.4129(7) 0.1251(6)
C14 C 0.5098(11) 0.3454(8) 0.0424(7)
H19 H 0.4151 0.3093 0.0616
C15 C 0.5227(13) 0.3322(9) -0.0685(7)
H20 H 0.4370 0.2873 -0.1235
C16 C 0.6615(16) 0.3852(12) -0.0961(9)
H21 H 0.6713 0.3752 -0.1701
C17 C 0.7813(13) 0.4501(14) -0.0188(10)
H22 H 0.8739 0.4907 -0.0391
C18 C 0.7726(11) 0.4594(11) 0.0925(8)
H23 H 0.8621 0.4990 0.1462
Cu1A Cu 0.35836(9) -0.05829(7) 0.46231(6)
I1A I 0.41217(4) 0.16041(3) 0.58414(3)
Cu2A Cu 0.50447(9) -0.36792(7) 0.52606(6)
Cu2A_2 Cu 0.50447(9) 0.63208(7) 0.52606(6)
I2A I 0.25795(4) 0.46076(3) 0.40289(4)
loop_
_geom_bond_atom_site_label_1
_geom_bond_atom_site_label_2
_geom_bond_site_symmetry_1
_geom_bond_site_symmetry_2
Cu1 I1 1_555 1_555
I1 Cu1A 1_555 1_555
Cu2 I2 1_555 1_555
I2 Cu2A_2 1_555 1_555
S1 Cu1 1_555 1_555
N1 Cu1 1_555 1_555
H1 N1 1_555 1_555
C1 N1 1_555 1_555
H2 C1 1_555 1_555
H3 C1 1_555 1_555
C2 S1 1_555 1_555
H4 C2 1_555 1_555
H5 C2 1_555 1_555
C3 S1 1_555 1_555
H6 C3 1_555 1_555
H7 C3 1_555 1_555
C4 C3 1_555 1_555
C5 C4 1_555 1_555
H8 C5 1_555 1_555
C6 C5 1_555 1_555
H9 C6 1_555 1_555
C7 C6 1_555 1_555
H10 C7 1_555 1_555
C8 C7 1_555 1_555
H11 C8 1_555 1_555
C9 C4 1_555 1_555
H12 C9 1_555 1_555
S2 Cu2 1_555 1_555
C10 S2 1_555 1_555
H13 C10 1_555 1_555
H14 C10 1_555 1_555
C11 S2 1_555 1_555
H15 C11 1_555 1_555
H16 C11 1_555 1_555
C12 N1 1_555 1_555
H17 C12 1_555 1_555
H18 C12 1_555 1_555
C13 C11 1_555 1_555
C14 C13 1_555 1_555
H19 C14 1_555 1_555
C15 C14 1_555 1_555
H20 C15 1_555 1_555
C16 C15 1_555 1_555
H21 C16 1_555 1_555
C17 C16 1_555 1_555
H22 C17 1_555 1_555
C18 C13 1_555 1_555
H23 C18 1_555 1_555
Cu1A Cu1 1_555 1_555
I1A Cu1 1_555 1_555
Cu2A I1 1_555 1_555
Cu2A_2 Cu2 1_555 1_555
I2A Cu2 1_555 1_555
Cu2 I1A 1_555 1_555
C1 C2 1_555 1_555
C8 C9 1_555 1_555
C10 C12 1_555 1_555
C17 C18 1_555 1_555
Cu1A I1A 1_555 1_555
Cu2A_2 I2A 1_555 1_555

#END
