
#######################################################################
#
#                 Cambridge Crystallographic Data Centre
#                                CCDC 
#
#######################################################################
#
# If this CIF has been generated from an entry in the Cambridge 
# Structural Database, then it will include bibliographic, chemical, 
# crystal, experimental, refinement or atomic coordinate data resulting 
# from the CCDC's data processing and validation procedures.
#
#######################################################################

data_SOPQUK
_symmetry_cell_setting           monoclinic
_symmetry_space_group_name_H-M   'P 21/n'
_symmetry_Int_Tables_number      14
_space_group_name_Hall           '-P 2yn'
loop_
_symmetry_equiv_pos_site_id
_symmetry_equiv_pos_as_xyz
1 x,y,z
2 1/2-x,1/2+y,1/2-z
3 -x,-y,-z
4 1/2+x,1/2-y,1/2+z
_cell_length_a                   12.9190(12)
_cell_length_b                   24.929(2)
_cell_length_c                   22.618(2)
_cell_angle_alpha                90
_cell_angle_beta                 95.488(2)
_cell_angle_gamma                90
_cell_volume                     7250.91
loop_
_atom_site_label
_atom_site_type_symbol
_atom_site_fract_x
_atom_site_fract_y
_atom_site_fract_z
Cu1 Cu 0.52866(8) 0.05785(4) 0.50690(5)
Cu2 Cu 0.81491(9) 0.23089(4) 0.46274(6)
Cu3 Cu 1.03107(7) 0.44295(4) 0.49431(4)
Cu4 Cu 0.66463(7) -0.26961(4) 0.43984(4)
Mo1 Mo 0.55523(6) 0.25551(3) 0.36634(3)
Mo2 Mo 0.38821(6) 0.13410(4) 0.35348(3)
Mo3 Mo 0.83766(7) 0.16552(4) 0.83583(4)
Mo4 Mo 0.17792(8) 0.21212(5) 0.32186(4)
Mo5 Mo 0.66345(6) 0.19166(4) 0.70000(4)
Mo6 Mo 0.22587(6) 0.11498(4) 0.22880(4)
Mo7 Mo 1.04786(7) 0.15281(3) 0.75523(4)
Mo8 Mo 1.11452(6) 0.35167(3) 0.76442(3)
Mo9 Mo 1.10524(5) 0.26203(3) 0.65151(3)
Mo10 Mo 0.95376(6) 0.37533(3) 0.64188(3)
Mo11 Mo 0.87294(7) 0.17583(4) 0.61997(4)
Mo12 Mo 0.72530(6) 0.28967(3) 0.60303(3)
P1 P 0.88942(15) 0.27101(8) 0.73667(8)
F1 F 0.4778(5) 0.4222(4) 0.5490(4)
F2 F 0.6263(5) 0.4540(3) 0.3728(3)
F3 F 1.0241(7) -0.0782(6) 0.5551(6)
F4 F 0.8353(6) -0.0350(5) 0.3746(3)
C1 C 0.7179(6) 0.6170(3) 0.4062(4)
H1 H 0.6714 0.6159 0.3722
C2 C 0.8030(6) 0.6412(3) 0.4852(4)
H2 H 0.8267 0.6614 0.5184
C3 C 0.8079(6) 0.5305(3) 0.3901(3)
H3 H 0.7501 0.5232 0.3606
H4 H 0.8692 0.5366 0.3693
C4 C 0.9410(6) 0.3288(3) 0.4821(4)
H5 H 0.9859 0.3128 0.5116
C5 C 0.8168(7) 0.3396(3) 0.4153(4)
H6 H 0.7578 0.3336 0.3893
C6 C 0.8533(6) 0.4353(3) 0.3892(3)
H7 H 0.7972 0.4309 0.3580
H8 H 0.9156 0.4446 0.3708
C7 C 0.8261(5) 0.4816(3) 0.4305(3)
C8 C 0.7307(6) 0.4671(3) 0.4636(3)
C9 C 0.6374(7) 0.4530(4) 0.4328(4)
C10 C 0.5479(8) 0.4373(4) 0.4609(6)
H9 H 0.4855 0.4283 0.4392
C11 C 0.5591(9) 0.4365(5) 0.5204(6)
C12 C 0.6497(8) 0.4503(5) 0.5526(5)
H10 H 0.6530 0.4499 0.5939
C13 C 0.7364(7) 0.4649(4) 0.5254(4)
H11 H 0.7982 0.4733 0.5481
C14 C 0.6434(7) -0.1558(4) 0.3976(4)
H12 H 0.6868 -0.1604 0.3674
C15 C 0.5566(7) -0.1682(3) 0.4693(4)
H13 H 0.5272 -0.1853 0.5002
C16 C 0.6076(7) -0.0571(3) 0.3816(4)
H14 H 0.6549 -0.0592 0.3509
H15 H 0.5398 -0.0465 0.3632
C17 C 0.7607(7) 0.1199(3) 0.4196(4)
H16 H 0.8049 0.1184 0.3895
C18 C 0.6845(7) 0.1452(3) 0.4922(4)
H17 H 0.6645 0.1655 0.5237
C19 C 0.6565(7) 0.0371(3) 0.3921(3)
H18 H 0.7059 0.0312 0.3631
H19 H 0.5894 0.0448 0.3707
C20 C 0.6480(6) -0.0140(3) 0.4289(3)
C21 C 0.7479(7) -0.0302(4) 0.4629(4)
C22 C 0.8394(8) -0.0407(6) 0.4345(6)
C23 C 0.9316(10) -0.0573(8) 0.4656(8)
H20 H 0.9898 -0.0652 0.4460
C24 C 0.9341(11) -0.0617(7) 0.5261(8)
C25 C 0.8508(11) -0.0547(6) 0.5546(7)
H21 H 0.8533 -0.0612 0.5952
C26 C 0.7588(8) -0.0374(5) 0.5230(5)
H22 H 0.7018 -0.0304 0.5441
N1 N 0.7855(5) 0.5789(2) 0.4230(3)
N2 N 0.8413(5) 0.5945(3) 0.4734(3)
N3 N 0.7263(5) 0.6575(3) 0.4452(3)
N4 N 0.9501(5) 0.3789(3) 0.4642(3)
N5 N 0.8699(5) 0.3855(2) 0.4203(3)
N6 N 0.8608(6) 0.3039(3) 0.4532(3)
N7 N 0.7598(5) 0.1594(3) 0.4599(3)
N8 N 0.6407(5) 0.0996(3) 0.4756(3)
N9 N 0.6894(5) 0.0830(3) 0.4287(3)
N10 N 0.5424(6) -0.1178(3) 0.4567(3)
N11 N 0.5997(5) -0.1104(3) 0.4098(3)
N12 N 0.6184(5) -0.1937(3) 0.4330(3)
O1 O 0.4206(5) 0.0928(3) 0.4105(2)
O2 O 0.6346(5) 0.2560(3) 0.4306(3)
O3 O 0.7615(5) -0.2463(3) 0.5196(3)
O4 O 0.4624(5) 0.1988(2) 0.3807(2)
O5 O 0.5472(5) -0.2887(3) 0.4947(3)
O6 O 0.2660(5) 0.1678(3) 0.3767(3)
O7 O 0.5710(5) -0.2886(3) 0.3615(4)
O8 O 0.3083(5) 0.0894(3) 0.3007(3)
O9 O 1.1042(6) 0.4452(3) 0.3944(4)
O10 O 0.5077(4) 0.1222(2) 0.3093(2)
O12 O 0.6236(4) 0.2088(2) 0.3185(2)
O14 O 1.2214(5) 0.3903(3) 0.7910(3)
O16 O 1.0653(4) 0.3963(2) 0.6987(2)
O18 O 1.1792(4) 0.3075(2) 0.7088(2)
O20 O 0.4494(5) 0.3066(3) 0.3878(3)
O22 O 0.0644(9) 0.2170(5) 0.3645(4)
O23 O 0.6420(7) 0.0537(4) 0.6025(4)
O24 O 0.7572(5) 0.2252(3) 0.8507(3)
O25 O 0.7906(6) 0.1183(3) 0.8787(3)
O26 O 0.1331(6) 0.2572(3) 0.2531(3)
O27 O 0.7519(5) 0.1580(3) 0.7618(3)
O28 O 0.5567(5) 0.1522(3) 0.6951(3)
O29 O 0.6295(5) 0.2399(3) 0.6330(3)
O30 O 0.7449(5) 0.1522(3) 0.6437(3)
O31 O 0.9435(5) 0.1243(3) 0.8000(3)
O32 O 0.6530(4) 0.3157(3) 0.5443(3)
O33 O 0.7910(5) 0.2312(2) 0.5686(3)
O34 O 0.8912(5) 0.1319(3) 0.5664(3)
O35 O 0.9897(4) 0.2237(2) 0.6131(3)
O36 O 1.2032(4) 0.2445(3) 0.6091(3)
O37 O 1.0556(4) 0.3262(2) 0.6121(2)
O38 O 0.9610(4) 0.4247(2) 0.5910(3)
O39 O 0.8540(4) 0.3991(3) 0.6894(2)
O40 O 0.8494(4) 0.3292(2) 0.6033(2)
O41 O 0.1585(6) 0.0572(3) 0.2078(3)
O42 O 0.6912(4) 0.3387(2) 0.6639(3)
O43 O 0.9766(4) 0.3007(2) 0.7087(2)
O44 O 1.1108(4) 0.2066(2) 0.7105(3)
O45 O 0.9492(5) 0.1460(3) 0.6859(3)
O46 O 1.1277(6) 0.0981(3) 0.7483(3)
O47 O 0.6121(5) 0.3155(2) 0.3268(3)
O48 O 0.9357(4) 0.2280(2) 0.7793(2)
O49 O 0.8179(4) 0.2438(2) 0.6860(2)
O50 O 0.8271(4) 0.3108(2) 0.7699(2)
O51 O 0.1358(5) 0.1477(3) 0.2765(3)
O52 O 0.9153(4) 0.4900(2) 0.4719(2)
O53 O 0.5700(4) -0.0067(2) 0.4683(2)
Cu1B Cu 0.47134(8) -0.05785(4) 0.49310(5)
N10B N 0.4576(6) 0.1178(3) 0.5433(3)
O53B O 0.4300(4) 0.0067(2) 0.5317(2)
Cu3B Cu 0.96893(7) 0.55705(4) 0.50569(4)
N2B N 1.1587(5) 0.4055(3) 0.5266(3)
O52B O 1.0847(4) 0.5100(2) 0.5281(2)
N3_2 N 0.7263(5) -0.3425(3) 0.4452(3)
O36B O 0.7968(4) -0.2445(3) 0.3909(3)
O48C O 0.4357(4) 0.2720(2) 0.2793(2)
O50C O 0.3271(4) 0.1892(2) 0.2699(2)
O20C O 0.9494(5) 0.1934(3) 0.8878(3)
O24C O 0.2572(5) 0.2748(3) 0.3507(3)
O26C O 0.6331(6) 0.2428(3) 0.7531(3)
O39C O 0.3540(4) 0.1009(3) 0.1894(2)
O42C O 0.1912(4) 0.1613(2) 0.1639(3)
O47C O 1.1121(5) 0.1845(2) 0.8268(3)
O10C O 1.0077(4) 0.3778(2) 0.8093(2)
O12C O 1.1236(4) 0.2912(2) 0.8185(2)
Cu4_2 Cu 0.66463(7) 0.73039(4) 0.43984(4)
Mo8C Mo 0.61452(6) 0.14833(3) 0.26442(3)
Mo3C Mo 0.33766(7) 0.33448(4) 0.33583(4)
Mo4C Mo 0.67792(8) 0.28788(5) 0.82186(4)
Mo5C Mo 0.16345(6) 0.30834(4) 0.20000(4)
Cu4B Cu 1.33537(7) 0.26961(4) 0.56016(4)
Mo6C Mo 0.72587(6) 0.38502(4) 0.72880(4)
Mo7C Mo 0.54786(7) 0.34719(3) 0.25523(4)
Mo1C Mo 1.05523(6) 0.24449(3) 0.86634(3)
Mo2C Mo 0.88821(6) 0.36590(4) 0.85348(3)
O11 O 0.0421(19) 0.4912(7) 0.2733(9)
O13 O 0.3542(16) 0.1335(8) 0.7515(8)
O15 O 0.314(2) 0.0136(7) 0.7503(6)
O17 O 0.751(2) 0.0441(9) 0.7285(12)
O19 O 0.4153(12) 0.3510(18) 0.7330(9)
O21 O 0.0394(12) 0.2071(5) 0.4925(5)
loop_
_geom_bond_atom_site_label_1
_geom_bond_atom_site_label_2
_geom_bond_site_symmetry_1
_geom_bond_site_symmetry_2
Cu1 N8 1_555 1_555
Cu2 N6 1_555 1_555
Cu3 N4 1_555 1_555
Cu4 N12 1_555 1_555
Mo1 O2 1_555 1_555
Mo2 O1 1_555 1_555
Mo3 O24 1_555 1_555
Mo4 O6 1_555 1_555
Mo5 O27 1_555 1_555
Mo6 O8 1_555 1_555
Mo7 O31 1_555 1_555
Mo8 O14 1_555 1_555
Mo9 O18 1_555 1_555
Mo10 O16 1_555 1_555
Mo11 O30 1_555 1_555
Mo12 O29 1_555 1_555
P1 O43 1_555 1_555
F1 C11 1_555 1_555
F2 C9 1_555 1_555
F3 C24 1_555 1_555
F4 C22 1_555 1_555
C1 H1 1_555 1_555
C2 H2 1_555 1_555
C3 H3 1_555 1_555
H4 C3 1_555 1_555
C4 H5 1_555 1_555
C5 H6 1_555 1_555
C6 H7 1_555 1_555
H8 C6 1_555 1_555
C7 C3 1_555 1_555
C8 C7 1_555 1_555
C9 C8 1_555 1_555
C10 C9 1_555 1_555
H9 C10 1_555 1_555
C11 C10 1_555 1_555
C12 C11 1_555 1_555
H10 C12 1_555 1_555
C13 C8 1_555 1_555
H11 C13 1_555 1_555
C14 H12 1_555 1_555
C15 H13 1_555 1_555
C16 H14 1_555 1_555
H15 C16 1_555 1_555
C17 H16 1_555 1_555
C18 H17 1_555 1_555
C19 H18 1_555 1_555
H19 C19 1_555 1_555
C20 C16 1_555 1_555
C21 C20 1_555 1_555
C22 C21 1_555 1_555
C23 C22 1_555 1_555
H20 C23 1_555 1_555
C24 C23 1_555 1_555
C25 C24 1_555 1_555
H21 C25 1_555 1_555
C26 C21 1_555 1_555
H22 C26 1_555 1_555
N1 C1 1_555 1_555
N2 C2 1_555 1_555
N3 C1 1_555 1_555
N4 C4 1_555 1_555
N5 C5 1_555 1_555
N6 C4 1_555 1_555
N7 Cu2 1_555 1_555
N8 C18 1_555 1_555
N9 C17 1_555 1_555
N10 C15 1_555 1_555
N11 C14 1_555 1_555
N12 C14 1_555 1_555
O1 Cu1 1_555 1_555
O2 Cu2 1_555 1_555
O3 Cu4 1_555 1_555
O4 Mo1 1_555 1_555
O5 Cu4 1_555 1_555
O6 Mo2 1_555 1_555
O7 Cu4 1_555 1_555
O8 Mo2 1_555 1_555
O9 Cu3 1_555 1_555
O10 Mo2 1_555 1_555
O12 Mo1 1_555 1_555
O16 Mo8 1_555 1_555
O18 Mo8 1_555 1_555
O20 Mo1 1_555 1_555
O22 Mo4 1_555 1_555
O23 Cu1 1_555 1_555
O24 Mo4C 1_555 1_555
O25 Mo3 1_555 1_555
O26 Mo4 1_555 1_555
O27 Mo3 1_555 1_555
O28 Mo5 1_555 1_555
O29 Mo5 1_555 1_555
O30 Mo5 1_555 1_555
O31 Mo3 1_555 1_555
O32 Mo12 1_555 1_555
O33 Cu2 1_555 1_555
O34 Mo11 1_555 1_555
O35 Mo9 1_555 1_555
O36 Mo9 1_555 1_555
O37 Mo9 1_555 1_555
O38 Cu3 1_555 1_555
O39 Mo10 1_555 1_555
O40 Mo10 1_555 1_555
O41 Mo6 1_555 1_555
O42 Mo12 1_555 1_555
O43 Mo8 1_555 1_555
O44 Mo7 1_555 1_555
O45 Mo7 1_555 1_555
O46 Mo7 1_555 1_555
O47 Mo1 1_555 1_555
O48 Mo3 1_555 1_555
O49 Mo5 1_555 1_555
O50 P1 1_555 1_555
O51 Mo4 1_555 1_555
O52 Cu3 1_555 1_555
O53 Cu1 1_555 1_555
Cu1B Cu1 1_555 1_555
N10B Cu1 1_555 1_555
O53B Cu1 1_555 1_555
Cu3B Cu3 1_555 1_555
N2B Cu3 1_555 1_555
O52B Cu3 1_555 1_555
N3_2 Cu4 1_555 1_555
O36B Cu4 1_555 1_555
O48C Mo1 1_555 1_555
O50C Mo2 1_555 1_555
O20C Mo3 1_555 1_555
O24C Mo4 1_555 1_555
O26C Mo5 1_555 1_555
O39C Mo6 1_555 1_555
O42C Mo6 1_555 1_555
O47C Mo7 1_555 1_555
O10C Mo8 1_555 1_555
O12C Mo8 1_555 1_555
Cu4_2 N3 1_555 1_555
Mo8C O10 1_555 1_555
Mo3C O20 1_555 1_555
Mo4C O50 1_555 1_555
Mo5C O26 1_555 1_555
Cu4B O36 1_555 1_555
Mo6C O39 1_555 1_555
Mo7C O47 1_555 1_555
Mo1C O48 1_555 1_555
Mo2C O50 1_555 1_555
Mo2 O4 1_555 1_555
Mo4 O50C 1_555 1_555
Mo6 O51 1_555 1_555
Mo6 O50C 1_555 1_555
Mo7 O48 1_555 1_555
Mo9 O43 1_555 1_555
Mo9 O44 1_555 1_555
Mo10 O37 1_555 1_555
Mo10 O38 1_555 1_555
Mo10 O43 1_555 1_555
Mo11 O35 1_555 1_555
Mo11 O33 1_555 1_555
Mo11 O45 1_555 1_555
Mo11 O49 1_555 1_555
Mo12 O33 1_555 1_555
Mo12 O40 1_555 1_555
Mo12 O49 1_555 1_555
P1 O48 1_555 1_555
P1 O49 1_555 1_555
C2 N3 1_555 1_555
C3 N1 1_555 1_555
C5 N6 1_555 1_555
C6 C7 1_555 1_555
C6 N5 1_555 1_555
C7 O52 1_555 1_555
C12 C13 1_555 1_555
C15 N12 1_555 1_555
C16 N11 1_555 1_555
C17 N7 1_555 1_555
C18 N7 1_555 1_555
C19 C20 1_555 1_555
C19 N9 1_555 1_555
C20 O53 1_555 1_555
C25 C26 1_555 1_555
N1 N2 1_555 1_555
N2 Cu3B 1_555 1_555
N4 N5 1_555 1_555
N8 N9 1_555 1_555
N10 N11 1_555 1_555
N10 Cu1B 1_555 1_555
O12 Mo8C 1_555 1_555
O42 Mo6C 1_555 1_555
O50 Mo6C 1_555 1_555
O52 Cu3B 1_555 1_555
O53 Cu1B 1_555 1_555
Cu1B O53B 1_555 1_555
Cu3B O52B 1_555 1_555
O48C Mo3C 1_555 1_555
O48C Mo7C 1_555 1_555
O20C Mo1C 1_555 1_555
O24C Mo3C 1_555 1_555
O26C Mo4C 1_555 1_555
O47C Mo1C 1_555 1_555
O10C Mo2C 1_555 1_555
O12C Mo1C 1_555 1_555

#END
