
#######################################################################
#
#                 Cambridge Crystallographic Data Centre
#                                CCDC 
#
#######################################################################
#
# If this CIF has been generated from an entry in the Cambridge 
# Structural Database, then it will include bibliographic, chemical, 
# crystal, experimental, refinement or atomic coordinate data resulting 
# from the CCDC's data processing and validation procedures.
#
#######################################################################

data_SOPTUN
_symmetry_cell_setting           triclinic
_symmetry_space_group_name_H-M   'P -1'
_symmetry_Int_Tables_number      2
_space_group_name_Hall           '-P 1'
loop_
_symmetry_equiv_pos_site_id
_symmetry_equiv_pos_as_xyz
1 x,y,z
2 -x,-y,-z
_cell_length_a                   6.962(2)
_cell_length_b                   13.757(3)
_cell_length_c                   15.871(4)
_cell_angle_alpha                108.171(3)
_cell_angle_beta                 92.343(2)
_cell_angle_gamma                98.838(2)
_cell_volume                     1420.71
loop_
_atom_site_label
_atom_site_type_symbol
_atom_site_fract_x
_atom_site_fract_y
_atom_site_fract_z
Sb1 Sb 0.44078(2) 0.042345(13) 0.207752(11)
Sb2 Sb 0.01695(2) 0.512604(13) 0.315559(11)
Cu1 Cu 0.20729(5) -0.21455(3) 0.12440(2)
Cu2 Cu 0.06642(5) 0.25313(3) 0.23478(2)
Cu3 Cu 0.47310(6) 0.28186(3) 0.56922(2)
S1 S 0.52620(10) -0.24694(6) 0.14173(5)
S2 S 0.16627(10) -0.07297(5) 0.24121(4)
S3 S 0.19271(10) 0.11426(5) 0.13854(4)
S4 S 0.46014(11) 0.18346(5) 0.35130(4)
S5 S 0.26560(10) -0.23503(5) -0.17770(4)
S6 S 0.21548(10) 0.40545(5) 0.21154(4)
S7 S 0.30484(10) 0.56757(5) 0.42787(4)
S8 S 0.09984(10) -0.33560(5) 0.26413(4)
S9 S 0.14065(11) 0.29017(6) 0.53876(4)
N1 N 0.5692(4) -0.26671(19) 0.31184(16)
N2 N 0.6434(3) 0.03245(16) 0.36372(15)
N3 N 0.6027(3) 0.16059(16) 0.49935(14)
N4 N 0.2232(4) -0.1971(2) 0.00419(16)
N5 N -0.1577(3) -0.48317(17) 0.14867(15)
N6 N -0.0137(3) -0.34095(16) 0.10249(13)
N7 N 0.0415(4) 0.2706(2) 0.36060(16)
C1 C 0.5528(4) -0.2588(2) 0.24207(18)
C2 C -0.0377(4) -0.0200(2) 0.2067(2)
H1 H -0.1568 -0.0704 0.1978
H2 H -0.0530 0.0422 0.2540
C3 C -0.0092(4) 0.0062(2) 0.12259(19)
H3 H -0.1283 0.0245 0.1029
H4 H 0.0168 -0.0543 0.0764
C4 C 0.5829(3) 0.11948(18) 0.41084(17)
C5 C 0.7351(4) -0.0155(2) 0.4100(2)
H5 H 0.7804 -0.0758 0.3795
C6 C 0.7649(4) 0.0211(2) 0.5012(2)
H6 H 0.8286 -0.0132 0.5328
C7 C 0.6967(4) 0.1105(2) 0.54392(18)
H7 H 0.7161 0.1373 0.6057
C8 C 0.2416(4) -0.2116(2) -0.07010(18)
C9 C 0.4542(4) 0.4536(2) 0.2757(2)
H8 H 0.5414 0.4053 0.2517
H9 H 0.5086 0.5199 0.2691
C10 C 0.4440(4) 0.4672(2) 0.3733(2)
H10 H 0.5755 0.4853 0.4027
H11 H 0.3841 0.4017 0.3797
C11 C -0.0400(3) -0.39270(18) 0.16199(16)
C12 C -0.2614(4) -0.5259(2) 0.06874(19)
H12 H -0.3439 -0.5896 0.0565
C13 C -0.2484(4) -0.4777(2) 0.00439(18)
H13 H -0.3224 -0.5071 -0.0504
C14 C -0.1232(4) -0.3857(2) 0.02407(17)
H14 H -0.1129 -0.3522 -0.0186
C15 C 0.0808(4) 0.2802(2) 0.43417(18)
Sb2_2 Sb 0.01695(2) -0.487396(13) 0.315559(11)
Cu2A Cu -0.06642(5) -0.25313(3) -0.23478(2)
Cu3A Cu 0.52690(6) -0.28186(3) 0.43078(2)
Cu3A_2 Cu 0.52690(6) 0.71814(3) 0.43078(2)
S5A S -0.26560(10) 0.23503(5) 0.17770(4)
S7A S 0.69516(10) 0.43243(5) 0.57213(4)
S8_2 S 0.09984(10) 0.66440(5) 0.26413(4)
N1A N 0.4308(4) 0.26671(19) 0.68816(16)
loop_
_geom_bond_atom_site_label_1
_geom_bond_atom_site_label_2
_geom_bond_site_symmetry_1
_geom_bond_site_symmetry_2
Sb1 S2 1_555 1_555
Sb2 S6 1_555 1_555
Cu1 S1 1_555 1_555
Cu2 S3 1_555 1_555
Cu3 S9 1_555 1_555
S1 C1 1_555 1_555
S2 Cu1 1_555 1_555
S3 Sb1 1_555 1_555
S4 Sb1 1_555 1_555
S5 C8 1_555 1_555
S6 Cu2 1_555 1_555
S7 Sb2 1_555 1_555
S8 C11 1_555 1_555
S9 C15 1_555 1_555
N1 C1 1_555 1_555
N2 C4 1_555 1_555
N3 Cu3 1_555 1_555
N4 Cu1 1_555 1_555
N5 C11 1_555 1_555
N6 Cu1 1_555 1_555
N7 Cu2 1_555 1_555
C2 S2 1_555 1_555
H1 C2 1_555 1_555
H2 C2 1_555 1_555
C3 S3 1_555 1_555
H3 C3 1_555 1_555
H4 C3 1_555 1_555
C4 S4 1_555 1_555
C5 N2 1_555 1_555
H5 C5 1_555 1_555
C6 C5 1_555 1_555
H6 C6 1_555 1_555
C7 N3 1_555 1_555
H7 C7 1_555 1_555
C8 N4 1_555 1_555
C9 S6 1_555 1_555
H8 C9 1_555 1_555
H9 C9 1_555 1_555
C10 S7 1_555 1_555
H10 C10 1_555 1_555
H11 C10 1_555 1_555
C11 N6 1_555 1_555
C12 N5 1_555 1_555
H12 C12 1_555 1_555
C13 C12 1_555 1_555
H13 C13 1_555 1_555
C14 N6 1_555 1_555
H14 C14 1_555 1_555
C15 N7 1_555 1_555
Sb2_2 S8 1_555 1_555
Cu2A S5 1_555 1_555
Cu3A N1 1_555 1_555
Cu3A_2 S7 1_555 1_555
S5A Cu2 1_555 1_555
S7A Cu3 1_555 1_555
S8_2 Sb2 1_555 1_555
N1A Cu3 1_555 1_555
N3 C4 1_555 1_555
C2 C3 1_555 1_555
C6 C7 1_555 1_555
C9 C10 1_555 1_555
C13 C14 1_555 1_555

#END
