
#######################################################################
#
#                 Cambridge Crystallographic Data Centre
#                                CCDC 
#
#######################################################################
#
# If this CIF has been generated from an entry in the Cambridge 
# Structural Database, then it will include bibliographic, chemical, 
# crystal, experimental, refinement or atomic coordinate data resulting 
# from the CCDC's data processing and validation procedures.
#
#######################################################################

data_SOPWUR
_symmetry_cell_setting           triclinic
_symmetry_space_group_name_H-M   'P -1'
_symmetry_Int_Tables_number      2
_space_group_name_Hall           '-P 1'
loop_
_symmetry_equiv_pos_site_id
_symmetry_equiv_pos_as_xyz
1 x,y,z
2 -x,-y,-z
_cell_length_a                   13.623(3)
_cell_length_b                   15.411(3)
_cell_length_c                   15.489(3)
_cell_angle_alpha                75.88(3)
_cell_angle_beta                 67.98(3)
_cell_angle_gamma                81.67(3)
_cell_volume                     2918.37
loop_
_atom_site_label
_atom_site_type_symbol
_atom_site_fract_x
_atom_site_fract_y
_atom_site_fract_z
I1 I -0.28857(8) 0.08076(7) 0.75757(7)
I2 I -0.59900(9) 0.12185(8) 0.96993(8)
I3 I 0.38982(11) 0.48746(8) -0.07085(10)
I4 I 0.28576(14) -0.00369(11) 0.45110(13)
Cu1 Cu -0.10139(13) 0.05401(11) 0.75719(12)
Cu2 Cu 0.71185(14) -0.06009(11) 0.20216(13)
Cu3 Cu 0.04484(15) -0.46061(11) 0.73881(14)
Cu4 Cu 0.49665(15) 0.41242(11) 0.03562(13)
Cu5 Cu -0.42486(15) 0.02558(13) 0.91902(14)
O1 O 0.0786(10) 0.3963(7) 0.5057(8)
O2 O 0.5476(12) -0.3699(9) 0.5626(10)
O3 O 0.1510(11) -0.3213(8) 0.8907(10)
N1 N 0.4175(8) 0.0288(7) 0.3536(8)
N2 N -0.0126(9) 0.1053(7) 0.8089(8)
N3 N -0.0001(9) -0.0206(7) 0.6667(8)
N4 N 0.5832(10) 0.2899(8) 0.0301(8)
N5 N 0.5750(9) -0.0059(7) 0.2486(8)
N6 N 0.3987(10) 0.3332(8) 0.1573(9)
N7 N -0.0303(9) -0.3482(7) 0.7818(8)
N8 N 0.1444(9) -0.3691(8) 0.6338(9)
N9 N 0.1582(8) -0.0401(7) 0.5514(8)
N10 N -0.0351(9) 0.4420(7) 0.7309(9)
N11 N 0.1333(10) 0.4333(7) 0.7844(9)
N12 N 0.1469(9) 0.1041(8) 0.8238(9)
C1 C 0.5897(10) 0.1384(8) 0.1257(9)
C2 C 0.4365(10) 0.2475(8) 0.1792(10)
C3 C 0.5383(11) 0.0789(9) 0.2106(11)
C4 C 0.1118(11) -0.2840(9) 0.6430(11)
C5 C 0.0858(11) 0.0171(9) 0.5956(10)
C6 C 0.0041(13) 0.2625(10) 0.5292(10)
H1 H -0.0519 0.2970 0.5149
C7 C 0.7290(11) 0.1857(11) -0.0254(11)
H2 H 0.7933 0.1751 -0.0726
C8 C 0.3028(12) 0.3563(10) 0.2201(12)
H3 H 0.2743 0.4146 0.2079
C9 C 0.5401(12) 0.2227(9) 0.1107(9)
C10 C 0.1662(11) -0.2095(8) 0.5807(11)
C11 C -0.1288(12) -0.1803(10) 0.8129(12)
H4 H -0.1629 -0.1249 0.8231
C12 C 0.4983(10) -0.0318(9) 0.3355(9)
C13 C 0.0873(12) 0.3041(9) 0.5293(10)
C14 C 0.0234(11) -0.1122(9) 0.6675(11)
C15 C 0.4956(14) -0.2115(12) 0.5529(11)
H5 H 0.4774 -0.2169 0.6181
C16 C 0.4411(10) 0.0976(9) 0.2788(10)
C17 C 0.5353(13) -0.2867(11) 0.5096(14)
C18 C -0.0309(10) -0.1865(8) 0.7334(9)
C19 C -0.1203(12) -0.3413(9) 0.8579(11)
H6 H -0.1491 -0.3929 0.9007
C20 C 0.2859(11) 0.2117(9) 0.3215(9)
H7 H 0.2472 0.1711 0.3747
C21 C 0.1715(14) 0.2538(10) 0.5503(11)
H8 H 0.2272 0.2821 0.5506
C22 C 0.6866(11) 0.1181(9) 0.0524(10)
H9 H 0.7199 0.0609 0.0570
C23 C 0.3874(11) 0.1868(8) 0.2600(10)
C24 C 0.1200(11) -0.1213(9) 0.5973(9)
C25 C 0.1719(12) 0.1585(9) 0.5713(10)
H10 H 0.2284 0.1242 0.5847
C26 C 0.2467(13) 0.2983(11) 0.2997(12)
H11 H 0.1812 0.3175 0.3396
C27 C 0.0847(13) -0.0441(10) 0.8429(12)
C28 C 0.5485(13) -0.1961(10) 0.3563(14)
H12 H 0.5656 -0.1925 0.2915
C29 C -0.1698(11) -0.2579(9) 0.8725(11)
H13 H -0.2324 -0.2549 0.9242
C30 C 0.2944(11) -0.3151(10) 0.4929(11)
H14 H 0.3551 -0.3274 0.4429
C31 C 0.0890(10) 0.1172(9) 0.5718(9)
C32 C 0.4845(13) -0.1277(11) 0.4932(11)
H15 H 0.4598 -0.0774 0.5200
C33 C 0.1922(14) -0.1781(11) 0.7973(13)
H16 H 0.2490 -0.2050 0.7545
C34 C 0.5091(11) -0.1183(9) 0.3966(10)
C35 C 0.0358(15) -0.1896(11) 0.9393(13)
H17 H -0.0100 -0.2249 0.9929
C36 C 0.1560(13) 0.4453(11) 0.5070(11)
H18 H 0.1388 0.5082 0.4894
H19 H 0.2236 0.4295 0.4628
H20 H 0.1590 0.4320 0.5699
C37 C 0.2364(12) -0.3815(10) 0.5596(11)
H21 H 0.2611 -0.4403 0.5546
C38 C 0.6755(11) 0.2694(11) -0.0330(10)
H22 H 0.7064 0.3139 -0.0856
C39 C 0.1238(16) -0.2282(12) 0.8785(14)
C40 C 0.1727(14) -0.0875(10) 0.7829(12)
H23 H 0.2202 -0.0523 0.7304
C41 C 0.5606(16) -0.2774(11) 0.4159(14)
H24 H 0.5875 -0.3276 0.3892
C42 C 0.0121(10) -0.2727(9) 0.7228(9)
C43 C 0.0034(12) 0.1681(9) 0.5506(9)
H25 H -0.0527 0.1401 0.5507
C44 C 0.0165(16) -0.0963(11) 0.9191(12)
H26 H -0.0440 -0.0699 0.9586
C45 C 0.2578(12) -0.2270(10) 0.5035(10)
H27 H 0.2944 -0.1793 0.4590
C46 C 0.0117(10) 0.1949(8) 0.7960(9)
C47 C 0.0049(10) 0.3560(8) 0.7623(9)
C48 C -0.0420(10) 0.2792(9) 0.7681(9)
C49 C 0.0705(12) 0.0559(9) 0.8243(10)
C50 C -0.1214(11) 0.4477(9) 0.7056(9)
H28 H -0.1473 0.5038 0.6815
C51 C 0.0974(11) 0.3529(9) 0.7848(10)
C52 C 0.2757(13) 0.3518(11) 0.8277(14)
H29 H 0.3353 0.3537 0.8427
C53 C -0.1720(12) 0.3731(9) 0.7142(11)
H30 H -0.2334 0.3801 0.6997
C54 C -0.1331(11) 0.2893(9) 0.7436(10)
H31 H -0.1664 0.2392 0.7474
C55 C 0.2178(12) 0.4293(11) 0.8045(13)
H32 H 0.2418 0.4833 0.8031
C56 C 0.1060(12) 0.1906(9) 0.8080(11)
C57 C 0.1533(11) 0.2712(9) 0.8063(11)
C58 C 0.2428(13) 0.2735(11) 0.8280(13)
H33 H 0.2805 0.2202 0.8429
C59 C 0.512(2) -0.3863(14) 0.6628(16)
H34 H 0.5274 -0.4482 0.6871
H35 H 0.4364 -0.3731 0.6874
H36 H 0.5466 -0.3490 0.6823
C60 C 0.093(2) -0.3771(12) 0.9740(17)
H37 H 0.1201 -0.4381 0.9722
H38 H 0.0201 -0.3714 0.9804
H39 H 0.1004 -0.3606 1.0273
I2A I -0.40100(9) -0.12185(8) 1.03007(8)
I3A I 0.61018(11) 0.51254(8) 0.07085(10)
Cu2A Cu 0.28815(14) 0.06009(11) 0.79784(13)
Cu3_2 Cu 0.04484(15) 0.53939(11) 0.73881(14)
Cu4A Cu 0.50335(15) 0.58758(11) -0.03562(13)
Cu5A Cu -0.57514(15) -0.02558(13) 1.08098(14)
N10_2 N -0.0351(9) -0.5580(7) 0.7309(9)
N11_2 N 0.1333(10) -0.5667(7) 0.7844(9)
N12A N 0.8531(9) -0.1041(8) 0.1762(9)
O4 O -0.4351(13) 0.3308(14) 0.7678(14)
loop_
_geom_bond_atom_site_label_1
_geom_bond_atom_site_label_2
_geom_bond_site_symmetry_1
_geom_bond_site_symmetry_2
I1 Cu1 1_555 1_555
I2 Cu5 1_555 1_555
I3 Cu4 1_555 1_555
I4 N1 1_555 1_555
Cu1 N2 1_555 1_555
Cu2 N5 1_555 1_555
Cu3 N7 1_555 1_555
Cu4 N4 1_555 1_555
Cu5 I1 1_555 1_555
O1 C13 1_555 1_555
O2 C17 1_555 1_555
O3 C39 1_555 1_555
N1 C12 1_555 1_555
N2 C46 1_555 1_555
N3 Cu1 1_555 1_555
N4 C9 1_555 1_555
N5 C3 1_555 1_555
N6 Cu4 1_555 1_555
N7 C19 1_555 1_555
N8 Cu3 1_555 1_555
N9 I4 1_555 1_555
N10 C47 1_555 1_555
N11 C51 1_555 1_555
N12 C49 1_555 1_555
C1 C3 1_555 1_555
C2 N6 1_555 1_555
C3 C16 1_555 1_555
C4 N8 1_555 1_555
C5 N3 1_555 1_555
C6 H1 1_555 1_555
C7 H2 1_555 1_555
C8 N6 1_555 1_555
H3 C8 1_555 1_555
C9 C1 1_555 1_555
C10 C4 1_555 1_555
C11 H4 1_555 1_555
C12 N5 1_555 1_555
C13 C6 1_555 1_555
C14 N3 1_555 1_555
C15 H5 1_555 1_555
C16 N1 1_555 1_555
C17 C15 1_555 1_555
C18 C11 1_555 1_555
C19 H6 1_555 1_555
C20 H7 1_555 1_555
C21 C13 1_555 1_555
H8 C21 1_555 1_555
C22 C1 1_555 1_555
H9 C22 1_555 1_555
C23 C2 1_555 1_555
C24 N9 1_555 1_555
C25 C21 1_555 1_555
H10 C25 1_555 1_555
C26 C8 1_555 1_555
H11 C26 1_555 1_555
C27 C40 1_555 1_555
C28 H12 1_555 1_555
C29 C11 1_555 1_555
H13 C29 1_555 1_555
C30 H14 1_555 1_555
C31 C5 1_555 1_555
C32 C15 1_555 1_555
H15 C32 1_555 1_555
C33 H16 1_555 1_555
C34 C12 1_555 1_555
C35 H17 1_555 1_555
C36 O1 1_555 1_555
H18 C36 1_555 1_555
H19 C36 1_555 1_555
H20 C36 1_555 1_555
C37 N8 1_555 1_555
H21 C37 1_555 1_555
C38 N4 1_555 1_555
H22 C38 1_555 1_555
C39 C33 1_555 1_555
C40 C33 1_555 1_555
H23 C40 1_555 1_555
C41 C17 1_555 1_555
H24 C41 1_555 1_555
C42 N7 1_555 1_555
C43 C6 1_555 1_555
H25 C43 1_555 1_555
C44 C27 1_555 1_555
H26 C44 1_555 1_555
C45 C10 1_555 1_555
H27 C45 1_555 1_555
C46 C48 1_555 1_555
C47 C48 1_555 1_555
C48 C54 1_555 1_555
C49 N2 1_555 1_555
C50 N10 1_555 1_555
H28 C50 1_555 1_555
C51 C47 1_555 1_555
C52 H29 1_555 1_555
C53 C50 1_555 1_555
H30 C53 1_555 1_555
C54 C53 1_555 1_555
H31 C54 1_555 1_555
C55 N11 1_555 1_555
H32 C55 1_555 1_555
C56 N12 1_555 1_555
C57 C51 1_555 1_555
C58 C52 1_555 1_555
H33 C58 1_555 1_555
C59 O2 1_555 1_555
H34 C59 1_555 1_555
H35 C59 1_555 1_555
H36 C59 1_555 1_555
C60 O3 1_555 1_555
H37 C60 1_555 1_555
H38 C60 1_555 1_555
H39 C60 1_555 1_555
I2A Cu5 1_555 1_555
I3A Cu4 1_555 1_555
Cu2A N12 1_555 1_555
Cu3_2 N10 1_555 1_555
Cu4A I3 1_555 1_555
Cu5A I2 1_555 1_555
N10_2 Cu3 1_555 1_555
N11_2 Cu3 1_555 1_555
N12A Cu2 1_555 1_555
N9 C5 1_555 1_555
N11 Cu3_2 1_555 1_555
C2 C9 1_555 1_555
C4 C42 1_555 1_555
C7 C22 1_555 1_555
C7 C38 1_555 1_555
C10 C24 1_555 1_555
C14 C18 1_555 1_555
C14 C24 1_555 1_555
C16 C23 1_555 1_555
C18 C42 1_555 1_555
C19 C29 1_555 1_555
C20 C23 1_555 1_555
C20 C26 1_555 1_555
C25 C31 1_555 1_555
C27 C49 1_555 1_555
C28 C34 1_555 1_555
C28 C41 1_555 1_555
C30 C37 1_555 1_555
C30 C45 1_555 1_555
C31 C43 1_555 1_555
C32 C34 1_555 1_555
C35 C39 1_555 1_555
C35 C44 1_555 1_555
C46 C56 1_555 1_555
C52 C55 1_555 1_555
C56 C57 1_555 1_555
C57 C58 1_555 1_555
I2A Cu5A 1_555 1_555
I3A Cu4A 1_555 1_555

#END
