
#######################################################################
#
#                 Cambridge Crystallographic Data Centre
#                                CCDC 
#
#######################################################################
#
# If this CIF has been generated from an entry in the Cambridge 
# Structural Database, then it will include bibliographic, chemical, 
# crystal, experimental, refinement or atomic coordinate data resulting 
# from the CCDC's data processing and validation procedures.
#
#######################################################################

data_SOPXIF
_symmetry_cell_setting           monoclinic
_symmetry_space_group_name_H-M   'C 2/c'
_symmetry_Int_Tables_number      15
_space_group_name_Hall           '-C 2yn'
loop_
_symmetry_equiv_pos_site_id
_symmetry_equiv_pos_as_xyz
1 x,y,z
2 -x,y,1/2-z
3 1/2+x,1/2+y,z
4 1/2-x,1/2+y,1/2-z
5 -x,-y,-z
6 x,-y,1/2+z
7 1/2-x,1/2-y,-z
8 1/2+x,1/2-y,1/2+z
_cell_length_a                   14.997(3)
_cell_length_b                   18.108(4)
_cell_length_c                   17.237(3)
_cell_angle_alpha                90
_cell_angle_beta                 96.61(3)
_cell_angle_gamma                90
_cell_volume                     4649.86
loop_
_atom_site_label
_atom_site_type_symbol
_atom_site_fract_x
_atom_site_fract_y
_atom_site_fract_z
Zn1 Zn 1.0000 0.47330(2) 0.2500
Zn2 Zn 0.906877(19) 0.415497(16) -0.001644(17)
P1 P 0.85296(4) 0.54711(4) 0.12560(4)
P2 P 1.09151(4) 0.43473(4) 0.10262(4)
O1 O 0.90199(13) 0.53500(12) 0.20567(11)
O2 O 0.85437(13) 0.48409(10) 0.06931(11)
O3 O 0.88537(13) 0.62062(11) 0.09103(11)
H1 H 0.907(2) 0.615(2) 0.0492(14)
O4 O 1.10030(13) 0.51738(10) 0.09460(11)
O5 O 1.03741(12) 0.39922(10) 0.03041(11)
O6 O 1.05374(13) 0.41137(10) 0.17668(11)
N1 N 0.88594(15) 0.32657(12) -0.08339(13)
N2 N 0.86988(15) 0.32281(13) 0.06952(13)
C1 C 0.73731(17) 0.56377(15) 0.13901(15)
C2 C 0.68182(19) 0.60679(17) 0.08651(17)
H2 H 0.7061 0.6310 0.0448
C3 C 0.5918(2) 0.6145(2) 0.0947(2)
H3 H 0.5546 0.6443 0.0590
C4 C 0.5555(2) 0.57879(18) 0.15513(19)
H4 H 0.4936 0.5843 0.1609
C5 C 0.6098(2) 0.53516(16) 0.20697(18)
H5 H 0.5848 0.5100 0.2478
C6 C 0.70045(19) 0.52808(16) 0.19947(16)
H6 H 0.7376 0.4988 0.2357
C7 C 1.20230(17) 0.39452(14) 0.10569(15)
C8 C 1.21308(19) 0.31842(15) 0.09817(16)
H7 H 1.1617 0.2874 0.0918
C9 C 1.2980(2) 0.28744(17) 0.09993(17)
H8 H 1.3045 0.2355 0.0950
C10 C 1.3733(2) 0.33252(19) 0.10886(17)
H9 H 1.4314 0.3115 0.1094
C11 C 1.3640(2) 0.40776(19) 0.11699(18)
H10 H 1.4158 0.4384 0.1236
C12 C 1.27932(19) 0.43896(16) 0.11556(16)
H11 H 1.2735 0.4909 0.1213
C13 C 0.89366(18) 0.33084(16) -0.15884(16)
H12 H 0.9028 0.3778 -0.1811
C14 C 0.8889(2) 0.26830(17) -0.20709(17)
H13 H 0.8947 0.2731 -0.2612
C15 C 0.8757(2) 0.19999(16) -0.17566(18)
H14 H 0.8721 0.1572 -0.2078
C16 C 0.86749(18) 0.19395(15) -0.09505(18)
C17 C 0.8535(2) 0.12533(16) -0.05656(19)
H15 H 0.8500 0.0807 -0.0857
C18 C 0.8454(2) 0.12370(16) 0.0209(2)
H16 H 0.8353 0.0777 0.0449
C19 C 0.85152(18) 0.18927(15) 0.06728(18)
C20 C 0.84407(19) 0.19137(17) 0.14806(18)
H17 H 0.8341 0.1471 0.1754
C21 C 0.8513(2) 0.25708(17) 0.18679(18)
H18 H 0.8477 0.2587 0.2414
C22 C 0.86390(18) 0.32210(16) 0.14562(16)
H19 H 0.8684 0.3676 0.1733
C23 C 0.86457(17) 0.25731(14) 0.03108(16)
C24 C 0.87282(17) 0.25980(15) -0.05162(16)
Zn2A Zn 1.093123(19) 0.415497(16) 0.501644(17)
Zn2D Zn 1.093123(19) 0.584503(16) 0.001644(17)
Zn2E Zn 0.906877(19) 0.584503(16) 0.498356(17)
P1A P 1.14704(4) 0.54711(4) 0.37440(4)
P2A P 0.90849(4) 0.43473(4) 0.39738(4)
O1A O 1.09801(13) 0.53500(12) 0.29433(11)
O2A O 1.14563(13) 0.48409(10) 0.43069(11)
O3A O 1.11463(13) 0.62062(11) 0.40897(11)
H1A H 1.093(2) 0.615(2) 0.4508(14)
O4A O 0.89970(13) 0.51738(10) 0.40540(11)
O4D O 0.89970(13) 0.48262(10) -0.09460(11)
O4E O 1.10030(13) 0.48262(10) 0.59460(11)
O5A O 0.96259(12) 0.39922(10) 0.46959(11)
O6A O 0.94626(13) 0.41137(10) 0.32332(11)
N1A N 1.11406(15) 0.32657(12) 0.58339(13)
N2A N 1.13012(15) 0.32281(13) 0.43048(13)
C1A C 1.26269(17) 0.56377(15) 0.36099(15)
C2A C 1.31818(19) 0.60679(17) 0.41349(17)
H2A H 1.2939 0.6310 0.4552
C3A C 1.4082(2) 0.6145(2) 0.4053(2)
H3A H 1.4454 0.6443 0.4410
C4A C 1.4445(2) 0.57879(18) 0.34487(19)
H4A H 1.5064 0.5843 0.3391
C5A C 1.3902(2) 0.53516(16) 0.29303(18)
H5A H 1.4152 0.5100 0.2522
C6A C 1.29955(19) 0.52808(16) 0.30053(16)
H6A H 1.2624 0.4988 0.2643
C7A C 0.79770(17) 0.39452(14) 0.39431(15)
C8A C 0.78692(19) 0.31842(15) 0.40183(16)
H7A H 0.8383 0.2874 0.4082
C9A C 0.7020(2) 0.28744(17) 0.40007(17)
H8A H 0.6955 0.2355 0.4050
C10A C 0.6267(2) 0.33252(19) 0.39114(17)
H9A H 0.5686 0.3115 0.3906
C11A C 0.6360(2) 0.40776(19) 0.38301(18)
H10A H 0.5842 0.4384 0.3764
C12A C 0.72068(19) 0.43896(16) 0.38444(16)
H11A H 0.7265 0.4909 0.3787
C13A C 1.10634(18) 0.33084(16) 0.65884(16)
H12A H 1.0972 0.3778 0.6811
C14A C 1.1111(2) 0.26830(17) 0.70709(17)
H13A H 1.1053 0.2731 0.7612
C15A C 1.1243(2) 0.19999(16) 0.67566(18)
H14A H 1.1279 0.1572 0.7078
C16A C 1.13251(18) 0.19395(15) 0.59505(18)
C17A C 1.1465(2) 0.12533(16) 0.55656(19)
H15A H 1.1500 0.0807 0.5857
C18A C 1.1546(2) 0.12370(16) 0.4791(2)
H16A H 1.1647 0.0777 0.4551
C19A C 1.14848(18) 0.18927(15) 0.43272(18)
C20A C 1.15593(19) 0.19137(17) 0.35194(18)
H17A H 1.1659 0.1471 0.3246
C21A C 1.1487(2) 0.25708(17) 0.31321(18)
H18A H 1.1523 0.2587 0.2586
C22A C 1.13610(18) 0.32210(16) 0.35438(16)
H19A H 1.1316 0.3676 0.3267
C23A C 1.13543(17) 0.25731(14) 0.46892(16)
C24A C 1.12718(17) 0.25980(15) 0.55162(16)
loop_
_geom_bond_atom_site_label_1
_geom_bond_atom_site_label_2
_geom_bond_site_symmetry_1
_geom_bond_site_symmetry_2
Zn1 O1 1_555 1_555
Zn2 O2 1_555 1_555
P1 O1 1_555 1_555
P2 O4 1_555 1_555
O2 P1 1_555 1_555
O3 P1 1_555 1_555
H1 O3 1_555 1_555
O4 Zn2D 1_555 1_555
O5 Zn2 1_555 1_555
O6 Zn1 1_555 1_555
N1 Zn2 1_555 1_555
N2 Zn2 1_555 1_555
C1 P1 1_555 1_555
C2 C1 1_555 1_555
H2 C2 1_555 1_555
C3 C2 1_555 1_555
H3 C3 1_555 1_555
C4 C3 1_555 1_555
H4 C4 1_555 1_555
C5 C4 1_555 1_555
H5 C5 1_555 1_555
C6 C1 1_555 1_555
H6 C6 1_555 1_555
C7 P2 1_555 1_555
C8 C7 1_555 1_555
H7 C8 1_555 1_555
C9 C8 1_555 1_555
H8 C9 1_555 1_555
C10 C9 1_555 1_555
H9 C10 1_555 1_555
C11 C10 1_555 1_555
H10 C11 1_555 1_555
C12 C7 1_555 1_555
H11 C12 1_555 1_555
C13 N1 1_555 1_555
H12 C13 1_555 1_555
C14 C13 1_555 1_555
H13 C14 1_555 1_555
C15 C14 1_555 1_555
H14 C15 1_555 1_555
C16 C15 1_555 1_555
C17 C16 1_555 1_555
H15 C17 1_555 1_555
C18 C17 1_555 1_555
H16 C18 1_555 1_555
C19 C18 1_555 1_555
C20 C19 1_555 1_555
H17 C20 1_555 1_555
C21 C20 1_555 1_555
H18 C21 1_555 1_555
C22 N2 1_555 1_555
H19 C22 1_555 1_555
C23 N2 1_555 1_555
C24 N1 1_555 1_555
Zn2A O2A 1_555 1_555
Zn2E O4A 1_555 1_555
P1A O1A 1_555 1_555
P2A O4A 1_555 1_555
O1A Zn1 1_555 1_555
O2A P1A 1_555 1_555
O3A P1A 1_555 1_555
H1A O3A 1_555 1_555
O4D Zn2 1_555 1_555
O4E Zn2A 1_555 1_555
O5A Zn2A 1_555 1_555
O6A Zn1 1_555 1_555
N1A Zn2A 1_555 1_555
N2A Zn2A 1_555 1_555
C1A P1A 1_555 1_555
C2A C1A 1_555 1_555
H2A C2A 1_555 1_555
C3A C2A 1_555 1_555
H3A C3A 1_555 1_555
C4A C3A 1_555 1_555
H4A C4A 1_555 1_555
C5A C4A 1_555 1_555
H5A C5A 1_555 1_555
C6A C1A 1_555 1_555
H6A C6A 1_555 1_555
C7A P2A 1_555 1_555
C8A C7A 1_555 1_555
H7A C8A 1_555 1_555
C9A C8A 1_555 1_555
H8A C9A 1_555 1_555
C10A C9A 1_555 1_555
H9A C10A 1_555 1_555
C11A C10A 1_555 1_555
H10A C11A 1_555 1_555
C12A C7A 1_555 1_555
H11A C12A 1_555 1_555
C13A N1A 1_555 1_555
H12A C13A 1_555 1_555
C14A C13A 1_555 1_555
H13A C14A 1_555 1_555
C15A C14A 1_555 1_555
H14A C15A 1_555 1_555
C16A C15A 1_555 1_555
C17A C16A 1_555 1_555
H15A C17A 1_555 1_555
C18A C17A 1_555 1_555
H16A C18A 1_555 1_555
C19A C18A 1_555 1_555
C20A C19A 1_555 1_555
H17A C20A 1_555 1_555
C21A C20A 1_555 1_555
H18A C21A 1_555 1_555
C22A N2A 1_555 1_555
H19A C22A 1_555 1_555
C23A N2A 1_555 1_555
C24A N1A 1_555 1_555
P2 O5 1_555 1_555
P2 O6 1_555 1_555
C5 C6 1_555 1_555
C11 C12 1_555 1_555
C16 C24 1_555 1_555
C19 C23 1_555 1_555
C21 C22 1_555 1_555
C23 C24 1_555 1_555
P2A O5A 1_555 1_555
P2A O6A 1_555 1_555
C5A C6A 1_555 1_555
C11A C12A 1_555 1_555
C16A C24A 1_555 1_555
C19A C23A 1_555 1_555
C21A C22A 1_555 1_555
C23A C24A 1_555 1_555

#END
