
#######################################################################
#
#                 Cambridge Crystallographic Data Centre
#                                CCDC 
#
#######################################################################
#
# If this CIF has been generated from an entry in the Cambridge 
# Structural Database, then it will include bibliographic, chemical, 
# crystal, experimental, refinement or atomic coordinate data resulting 
# from the CCDC's data processing and validation procedures.
#
#######################################################################

data_SOQCIL
_symmetry_cell_setting           triclinic
_symmetry_space_group_name_H-M   'P -1'
_symmetry_Int_Tables_number      2
_space_group_name_Hall           '-P 1'
loop_
_symmetry_equiv_pos_site_id
_symmetry_equiv_pos_as_xyz
1 x,y,z
2 -x,-y,-z
_cell_length_a                   8.9658(15)
_cell_length_b                   10.0273(16)
_cell_length_c                   12.921(2)
_cell_angle_alpha                109.895(3)
_cell_angle_beta                 94.288(3)
_cell_angle_gamma                111.612(3)
_cell_volume                     988.553
loop_
_atom_site_label
_atom_site_type_symbol
_atom_site_fract_x
_atom_site_fract_y
_atom_site_fract_z
C1 C 0.4168(9) 0.0926(9) 0.3680(6)
H1 H 0.3324 0.0448 0.3034
C2 C 0.3743(11) 0.1163(10) 0.4721(7)
H2 H 0.2647 0.0834 0.4773
C3 C 0.4960(12) 0.1875(10) 0.5636(7)
H3 H 0.4704 0.2044 0.6341
C4 C 0.6642(11) 0.2388(9) 0.5577(6)
C5 C 0.8096(14) 0.3167(10) 0.6484(6)
H4 H 0.7939 0.3376 0.7216
C6 C 0.9617(12) 0.3606(10) 0.6364(6)
H5 H 1.0497 0.4130 0.6991
C7 C 0.9889(10) 0.3269(9) 0.5271(7)
C8 C 1.1461(10) 0.3703(9) 0.5038(8)
H6 H 1.2394 0.4253 0.5630
C9 C 1.1628(10) 0.3317(10) 0.3939(7)
H7 H 1.2664 0.3580 0.3775
C10 C 1.0232(10) 0.2539(9) 0.3094(6)
H8 H 1.0366 0.2285 0.2355
C11 C 0.8550(9) 0.2495(7) 0.4320(6)
C12 C 0.6911(9) 0.2062(7) 0.4489(5)
C13 C 0.5459(9) 0.2954(8) 0.1734(5)
C14 C 0.4785(7) 0.3954(7) 0.1470(5)
C15 C 0.3256(7) 0.3568(7) 0.0894(5)
C16 C 0.0741(8) 0.1938(8) -0.0369(6)
H9 H -0.0221 0.0975 -0.0534
H10 H 0.1120 0.1880 -0.1060
C17 C 0.0298(8) 0.3300(8) 0.0051(7)
H11 H -0.0627 0.3133 -0.0494
H12 H -0.0039 0.3375 0.0758
C18 C 0.3079(8) 0.4863(7) 0.0759(5)
C19 C 0.4498(8) 0.6202(7) 0.1231(5)
C20 C 0.4825(9) 0.7796(8) 0.1301(5)
Co1 Co 0.64817(10) 0.10294(10) 0.20273(7)
N1 N 0.5691(7) 0.1337(6) 0.3555(4)
N2 N 0.8741(7) 0.2124(6) 0.3234(4)
O1 O 0.4534(5) 0.1532(5) 0.1456(3)
O2 O 0.6940(6) 0.3518(5) 0.2224(4)
O3 O 0.2015(5) 0.2125(5) 0.0478(4)
O4 O 0.1659(5) 0.4733(5) 0.0224(4)
O5 O 0.3698(6) 0.8002(6) 0.0858(4)
O6 O 0.6250(6) 0.8847(5) 0.1829(4)
O7 O 0.7315(5) 0.0840(4) 0.0550(3)
H13 H 0.7287 -0.0066 0.0238
H14 H 0.6695 0.0977 0.0104
S1 S 0.60463(19) 0.58937(18) 0.18390(13)
Co1_2 Co 0.64817(10) 1.10294(10) 0.20273(7)
O6_2 O 0.6250(6) -0.1153(5) 0.1829(4)
O8 O 0.9383(19) 0.9293(19) 0.3598(8)
H15 H 0.8448 0.8681 0.3149
H16 H 0.9530 1.0235 0.3761
loop_
_geom_bond_atom_site_label_1
_geom_bond_atom_site_label_2
_geom_bond_site_symmetry_1
_geom_bond_site_symmetry_2
C1 H1 1_555 1_555
C2 C1 1_555 1_555
H2 C2 1_555 1_555
C3 C2 1_555 1_555
H3 C3 1_555 1_555
C4 C3 1_555 1_555
C5 C4 1_555 1_555
H4 C5 1_555 1_555
C6 C5 1_555 1_555
H5 C6 1_555 1_555
C7 C6 1_555 1_555
C8 C7 1_555 1_555
H6 C8 1_555 1_555
C9 C8 1_555 1_555
H7 C9 1_555 1_555
C10 C9 1_555 1_555
H8 C10 1_555 1_555
C11 C7 1_555 1_555
C12 C4 1_555 1_555
C13 C14 1_555 1_555
C14 C15 1_555 1_555
C15 C18 1_555 1_555
C16 H9 1_555 1_555
H10 C16 1_555 1_555
C17 C16 1_555 1_555
H11 C17 1_555 1_555
H12 C17 1_555 1_555
C18 C19 1_555 1_555
C19 C20 1_555 1_555
C20 O5 1_555 1_555
Co1 N1 1_555 1_555
N1 C1 1_555 1_555
N2 C10 1_555 1_555
O1 C13 1_555 1_555
O2 C13 1_555 1_555
O3 C15 1_555 1_555
O4 C17 1_555 1_555
O6 C20 1_555 1_555
O7 Co1 1_555 1_555
H13 O7 1_555 1_555
H14 O7 1_555 1_555
O8 H15 1_555 1_555
H16 O8 1_555 1_555
S1 C14 1_555 1_555
Co1_2 O6 1_555 1_555
O6_2 Co1 1_555 1_555
C11 C12 1_555 1_555
C11 N2 1_555 1_555
C12 N1 1_555 1_555
C16 O3 1_555 1_555
C18 O4 1_555 1_555
C19 S1 1_555 1_555
Co1 N2 1_555 1_555
Co1 O1 1_555 1_555
Co1 O2 1_555 1_555

#END
