
#######################################################################
#
#                 Cambridge Crystallographic Data Centre
#                                CCDC 
#
#######################################################################
#
# If this CIF has been generated from an entry in the Cambridge 
# Structural Database, then it will include bibliographic, chemical, 
# crystal, experimental, refinement or atomic coordinate data resulting 
# from the CCDC's data processing and validation procedures.
#
#######################################################################

data_SOQDAE
_symmetry_cell_setting           triclinic
_symmetry_space_group_name_H-M   'P -1'
_symmetry_Int_Tables_number      2
_space_group_name_Hall           '-P 1'
loop_
_symmetry_equiv_pos_site_id
_symmetry_equiv_pos_as_xyz
1 x,y,z
2 -x,-y,-z
_cell_length_a                   7.692(3)
_cell_length_b                   8.220(3)
_cell_length_c                   10.057(4)
_cell_angle_alpha                104.707(6)
_cell_angle_beta                 110.001(7)
_cell_angle_gamma                91.661(7)
_cell_volume                     573.245
loop_
_atom_site_label
_atom_site_type_symbol
_atom_site_fract_x
_atom_site_fract_y
_atom_site_fract_z
C1 C 0.7460(5) 0.8416(5) -0.7628(4)
C2 C 0.7530(5) 0.9341(4) -0.6132(4)
C3 C 0.7677(5) 1.1037(4) -0.5482(4)
C4 C 0.7660(5) 1.1409(4) -0.4024(4)
C5 C 0.7424(5) 0.9995(4) -0.3608(4)
C6 C 0.7234(5) 0.9805(5) -0.2234(4)
C7 C 0.8418(6) 1.4291(5) -0.3757(4)
H1 H 0.9750 1.4338 -0.3545
H2 H 0.8169 1.5398 -0.3290
C8 C 0.7398(7) 1.3857(5) -0.5393(4)
H3 H 0.6065 1.3791 -0.5603
H4 H 0.7747 1.4747 -0.5764
O1 O 0.7492(4) 0.9267(4) -0.8495(3)
O2 O 0.7332(4) 0.6840(3) -0.7964(3)
O3 O 0.6947(4) 0.8312(3) -0.2188(3)
O4 O 0.7353(4) 1.1126(4) -0.1245(3)
O5 O 0.7833(4) 1.3036(3) -0.3165(3)
O6 O 0.7826(4) 1.2265(3) -0.6130(3)
O7 O 0.3984(4) 0.7740(3) -0.0918(3)
H5 H 0.3711 0.8818 -0.1087
H6 H 0.3703 0.7645 -0.0079
O8 O 0.5878(4) 0.5017(3) -0.1519(3)
H7 H 0.6320 0.4675 -0.2195
H8 H 0.4540 0.4848 -0.1937
O9 O 0.9445(4) 0.6678(3) -0.0041(3)
H9 H 1.0337 0.7530 -0.0025
H10 H 0.9822 0.6459 0.0905
S1 S 0.73035(13) 0.81927(11) -0.49806(10)
Zn1 Zn 0.67847(6) 0.75549(5) -0.05150(4)
O1_2 O 0.7492(4) 0.9267(4) 0.1505(3)
Zn1_2 Zn 0.67847(6) 0.75549(5) -1.05150(4)
loop_
_geom_bond_atom_site_label_1
_geom_bond_atom_site_label_2
_geom_bond_site_symmetry_1
_geom_bond_site_symmetry_2
C1 C2 1_555 1_555
C2 C3 1_555 1_555
C3 C4 1_555 1_555
C4 C5 1_555 1_555
C5 C6 1_555 1_555
C6 O3 1_555 1_555
C7 H1 1_555 1_555
H2 C7 1_555 1_555
C8 C7 1_555 1_555
H3 C8 1_555 1_555
H4 C8 1_555 1_555
O1 C1 1_555 1_555
O2 C1 1_555 1_555
O3 Zn1 1_555 1_555
O4 C6 1_555 1_555
O5 C4 1_555 1_555
O6 C3 1_555 1_555
O7 H5 1_555 1_555
H6 O7 1_555 1_555
O8 H7 1_555 1_555
H8 O8 1_555 1_555
O9 H9 1_555 1_555
H10 O9 1_555 1_555
S1 C2 1_555 1_555
Zn1 O7 1_555 1_555
O1_2 Zn1 1_555 1_555
Zn1_2 O1 1_555 1_555
C5 S1 1_555 1_555
C7 O5 1_555 1_555
C8 O6 1_555 1_555
O8 Zn1 1_555 1_555
O9 Zn1 1_555 1_555

#END
