
#######################################################################
#
#                 Cambridge Crystallographic Data Centre
#                                CCDC 
#
#######################################################################
#
# If this CIF has been generated from an entry in the Cambridge 
# Structural Database, then it will include bibliographic, chemical, 
# crystal, experimental, refinement or atomic coordinate data resulting 
# from the CCDC's data processing and validation procedures.
#
#######################################################################

data_SOQJEO
_symmetry_cell_setting           monoclinic
_symmetry_space_group_name_H-M   'P 21/n'
_symmetry_Int_Tables_number      14
_space_group_name_Hall           '-P 2yn'
loop_
_symmetry_equiv_pos_site_id
_symmetry_equiv_pos_as_xyz
1 x,y,z
2 1/2-x,1/2+y,1/2-z
3 -x,-y,-z
4 1/2+x,1/2-y,1/2+z
_cell_length_a                   8.4110(14)
_cell_length_b                   13.038(2)
_cell_length_c                   14.312(2)
_cell_angle_alpha                90
_cell_angle_beta                 99.798(3)
_cell_angle_gamma                90
_cell_volume                     1546.6
loop_
_atom_site_label
_atom_site_type_symbol
_atom_site_fract_x
_atom_site_fract_y
_atom_site_fract_z
Zn1 Zn 0.10855(6) 0.09966(4) 0.13983(3)
O1 O -0.4391(4) 0.4224(3) -0.1533(3)
O2 O -0.2771(4) 0.3501(3) -0.2419(2)
O3 O -0.7114(4) 0.0596(3) 0.0794(2)
O4 O -0.6649(4) -0.0582(3) 0.1939(2)
N1 N -0.1163(4) 0.0383(3) 0.1237(2)
N2 N -0.0110(4) 0.2146(3) 0.0583(2)
C1 C -0.2273(5) 0.1049(3) 0.0834(3)
C2 C -0.3919(5) 0.0898(3) 0.0854(3)
H1 H -0.4686 0.1393 0.0578
C3 C -0.4420(5) 0.0046(4) 0.1269(3)
C4 C -0.3279(5) -0.0723(3) 0.1629(3)
C5 C -0.1625(5) -0.0514(3) 0.1607(3)
C6 C -0.0426(5) -0.1238(4) 0.1963(3)
H2 H 0.0681 -0.1080 0.1981
C7 C -0.0860(5) -0.2158(4) 0.2277(3)
H3 H -0.0049 -0.2647 0.2507
C8 C -0.2497(6) -0.2404(4) 0.2268(3)
H4 H -0.2782 -0.3067 0.2461
C9 C -0.3672(5) -0.1692(4) 0.1984(3)
H5 H -0.4762 -0.1846 0.2023
C10 C -0.1688(5) 0.1958(4) 0.0379(3)
C11 C 0.0524(5) 0.2949(4) 0.0158(3)
C12 C 0.2188(5) 0.3172(4) 0.0414(3)
H6 H 0.2838 0.2789 0.0900
C13 C -0.3202(6) 0.3737(3) -0.1638(3)
C14 C -0.2111(5) 0.3278(3) -0.0792(3)
C15 C -0.2719(5) 0.2535(4) -0.0294(3)
H7 H -0.3846 0.2405 -0.0401
C16 C -0.0434(5) 0.3532(4) -0.0570(3)
C17 C 0.0288(6) 0.4329(4) -0.1020(3)
H8 H -0.0344 0.4731 -0.1498
C18 C 0.1903(6) 0.4518(4) -0.0762(3)
H9 H 0.2394 0.5046 -0.1072
C19 C 0.2849(6) 0.3934(4) -0.0038(4)
H10 H 0.3968 0.4079 0.0134
C20 C -0.6196(5) -0.0019(4) 0.1359(3)
Zn1_2 Zn -0.89145(6) 0.09966(4) 0.13983(3)
Zn1C Zn -0.39145(6) 0.40034(4) -0.36017(3)
O2C O 0.2229(4) 0.1499(3) 0.2581(2)
O3_2 O 0.2886(4) 0.0596(3) 0.0794(2)
loop_
_geom_bond_atom_site_label_1
_geom_bond_atom_site_label_2
_geom_bond_site_symmetry_1
_geom_bond_site_symmetry_2
Zn1 N1 1_555 1_555
O1 C13 1_555 1_555
O2 C13 1_555 1_555
O3 C20 1_555 1_555
O4 C20 1_555 1_555
N1 C1 1_555 1_555
N2 Zn1 1_555 1_555
C1 C2 1_555 1_555
C2 H1 1_555 1_555
C3 C2 1_555 1_555
C4 C3 1_555 1_555
C5 N1 1_555 1_555
C6 C5 1_555 1_555
H2 C6 1_555 1_555
C7 C6 1_555 1_555
H3 C7 1_555 1_555
C8 C7 1_555 1_555
H4 C8 1_555 1_555
C9 C4 1_555 1_555
H5 C9 1_555 1_555
C10 N2 1_555 1_555
C11 N2 1_555 1_555
C12 C11 1_555 1_555
H6 C12 1_555 1_555
C13 C14 1_555 1_555
C14 C15 1_555 1_555
C15 C10 1_555 1_555
H7 C15 1_555 1_555
C16 C11 1_555 1_555
C17 C16 1_555 1_555
H8 C17 1_555 1_555
C18 C17 1_555 1_555
H9 C18 1_555 1_555
C19 C12 1_555 1_555
H10 C19 1_555 1_555
C20 C3 1_555 1_555
Zn1_2 O3 1_555 1_555
Zn1C O2 1_555 1_555
O2C Zn1 1_555 1_555
O3_2 Zn1 1_555 1_555
C1 C10 1_555 1_555
C4 C5 1_555 1_555
C8 C9 1_555 1_555
C14 C16 1_555 1_555
C18 C19 1_555 1_555

#END
