
#######################################################################
#
#                 Cambridge Crystallographic Data Centre
#                                CCDC 
#
#######################################################################
#
# If this CIF has been generated from an entry in the Cambridge 
# Structural Database, then it will include bibliographic, chemical, 
# crystal, experimental, refinement or atomic coordinate data resulting 
# from the CCDC's data processing and validation procedures.
#
#######################################################################

data_SOQSEY
_symmetry_cell_setting           cubic
_symmetry_space_group_name_H-M   'P a -3'
_symmetry_Int_Tables_number      205
_space_group_name_Hall           '-P 2ac 2ab 3'
loop_
_symmetry_equiv_pos_site_id
_symmetry_equiv_pos_as_xyz
1 x,y,z
2 z,x,y
3 y,z,x
4 1/2-y,-z,1/2+x
5 1/2+z,1/2-x,-y
6 -y,1/2+z,1/2-x
7 1/2-z,-x,1/2+y
8 -z,1/2+x,1/2-y
9 1/2+y,1/2-z,-x
10 1/2-x,-y,1/2+z
11 1/2+x,1/2-y,-z
12 -x,1/2+y,1/2-z
13 -x,-y,-z
14 -z,-x,-y
15 -y,-z,-x
16 1/2+y,z,1/2-x
17 1/2-z,1/2+x,y
18 y,1/2-z,1/2+x
19 1/2+z,x,1/2-y
20 z,1/2-x,1/2+y
21 1/2-y,1/2+z,x
22 1/2+x,y,1/2-z
23 1/2-x,1/2+y,z
24 x,1/2-y,1/2+z
_cell_length_a                   26.3478(1)
_cell_length_b                   26.3478(1)
_cell_length_c                   26.3478(1)
_cell_angle_alpha                90
_cell_angle_beta                 90
_cell_angle_gamma                90
_cell_volume                     18290.8
loop_
_atom_site_label
_atom_site_type_symbol
_atom_site_fract_x
_atom_site_fract_y
_atom_site_fract_z
Zr1 Zr 0.011640(10) 0.907694(10) 0.986586(10)
O1 O -0.04588(18) 0.95412(18) 0.95412(18)
O2 O -0.35687(11) 0.55182(10) 1.02505(11)
O3 O -0.12302(11) 0.90877(11) 1.00807(12)
O4 O -0.41012(12) 0.62203(12) 1.02603(11)
O5 O -0.05500(11) 0.85651(10) 0.98847(12)
O6 O -0.03332(13) 0.94214(16) 1.04451(13)
C1 C -0.36713(15) 0.59912(16) 1.02486(17)
C2 C -0.10152(16) 0.86570(15) 0.99929(18)
C3 C -0.21567(17) 0.7833(2) 1.0125(3)
C4 C -0.32122(18) 0.63319(19) 1.0226(2)
O7 O -0.30857(19) 0.8016(2) 0.9741(4)
C5 C -0.18762(19) 0.82642(19) 1.0081(3)
H1 H -0.2027 0.8592 1.0084
C6 C -0.2304(2) 0.6453(2) 1.0154(4)
H2 H -0.1973 0.6310 1.0130
C7 C -0.27269(19) 0.6129(2) 1.0184(3)
H3 H -0.2681 0.5771 1.0175
C8 C -0.1153(2) 0.7716(2) 1.0011(3)
H4 H -0.0798 0.7672 0.9967
C9 C -0.1969(2) 0.7346(2) 1.0106(3)
C10 C -0.13482(19) 0.81962(18) 1.0029(2)
C11 C -0.3278(2) 0.68544(19) 1.0224(2)
H5 H -0.3607 0.7002 1.0244
C12 C -0.2851(2) 0.7149(2) 1.0193(3)
C13 C -0.2359(2) 0.6958(2) 1.0158(3)
C14 C -0.1460(2) 0.7289(2) 1.0055(3)
H6 H -0.1314 0.6959 1.0050
S1 S -0.28336(6) 0.78192(6) 1.01861(12)
O8 O -0.2987(2) 0.8029(2) 1.0687(4)
Zr1A Zr -0.013414(10) 1.011640(10) 0.907694(10)
O2A O 0.02505(11) 0.64313(11) 0.55182(10)
O3A O 0.00807(12) 0.87698(11) 0.90877(11)
O4A O 0.02603(11) 0.58988(12) 0.62203(12)
O5A O -0.01153(12) 0.94500(11) 0.85651(10)
O6A O 0.04451(13) 0.96668(13) 0.94214(16)
C1A C 0.02486(17) 0.63287(15) 0.59912(16)
C2A C -0.00071(18) 0.89848(16) 0.86570(15)
C3A C 0.0125(3) 0.78433(17) 0.7833(2)
C4A C 0.0226(2) 0.67878(18) 0.63319(19)
O7A O -0.0259(4) 0.69143(19) 0.8016(2)
C5A C 0.0081(3) 0.81238(19) 0.82642(19)
H1A H 0.0084 0.7973 0.8592
C6A C 0.0154(4) 0.7696(2) 0.6453(2)
H2A H 0.0130 0.8027 0.6310
C7A C 0.0184(3) 0.72731(19) 0.6129(2)
H3A H 0.0175 0.7319 0.5771
C8A C 0.0011(3) 0.8847(2) 0.7716(2)
H4A H -0.0033 0.9202 0.7672
C9A C 0.0106(3) 0.8031(2) 0.7346(2)
C10A C 0.0029(2) 0.86518(19) 0.81962(18)
C11A C 0.0224(2) 0.6722(2) 0.68544(19)
H5A H 0.0244 0.6393 0.7002
C12A C 0.0193(3) 0.7149(2) 0.7149(2)
C13A C 0.0158(3) 0.7641(2) 0.6958(2)
C14A C 0.0055(3) 0.8540(2) 0.7289(2)
H6A H 0.0050 0.8686 0.6959
S1A S 0.01861(12) 0.71664(6) 0.78192(6)
O8A O 0.0687(4) 0.7013(2) 0.8029(2)
Zr1B Zr -0.092306(10) 0.986586(10) 1.011640(10)
O2B O -0.44818(10) 1.02505(11) 0.64313(11)
O3B O -0.09123(11) 1.00807(12) 0.87698(11)
O4B O -0.37797(12) 1.02603(11) 0.58988(12)
O5B O -0.14349(10) 0.98847(12) 0.94500(11)
O6B O -0.05786(16) 1.04451(13) 0.96668(13)
C1B C -0.40088(16) 1.02486(17) 0.63287(15)
C2B C -0.13430(15) 0.99929(18) 0.89848(16)
C3B C -0.2167(2) 1.0125(3) 0.78433(17)
C4B C -0.36681(19) 1.0226(2) 0.67878(18)
O7B O -0.1984(2) 0.9741(4) 0.69143(19)
C5B C -0.17358(19) 1.0081(3) 0.81238(19)
H1B H -0.1408 1.0084 0.7973
C6B C -0.3547(2) 1.0154(4) 0.7696(2)
H2B H -0.3690 1.0130 0.8027
C7B C -0.3871(2) 1.0184(3) 0.72731(19)
H3B H -0.4229 1.0175 0.7319
C8B C -0.2284(2) 1.0011(3) 0.8847(2)
H4B H -0.2328 0.9967 0.9202
C9B C -0.2654(2) 1.0106(3) 0.8031(2)
C10B C -0.18038(18) 1.0029(2) 0.86518(19)
C11B C -0.31456(19) 1.0224(2) 0.6722(2)
H5B H -0.2998 1.0244 0.6393
C12B C -0.2851(2) 1.0193(3) 0.7149(2)
C13B C -0.3042(2) 1.0158(3) 0.7641(2)
C14B C -0.2711(2) 1.0055(3) 0.8540(2)
H6B H -0.3041 1.0050 0.8686
S1B S -0.21808(6) 1.01861(12) 0.71664(6)
O8B O -0.1971(2) 1.0687(4) 0.7013(2)
Zr1C Zr -0.407694(10) 1.013414(10) 0.511640(10)
Zr1G Zr 0.013414(10) 0.511640(10) 0.592306(10)
Zr1J Zr -0.488360(10) 0.592306(10) 1.013414(10)
Zr1L Zr -0.011640(10) 1.092306(10) 1.013414(10)
Zr1M Zr 0.013414(10) 0.988360(10) 1.092306(10)
Zr1N Zr 0.092306(10) 1.013414(10) 0.988360(10)
Zr1R Zr -0.513414(10) 1.011640(10) 0.592306(10)
Zr1T Zr -0.407694(10) 0.486586(10) 1.011640(10)
Zr1W Zr 0.011640(10) 0.592306(10) 0.486586(10)
O2O O 0.05182(10) 1.02505(11) 0.85687(11)
O2S O 0.02505(11) 0.85687(11) 1.05182(10)
O2V O -0.14313(11) 1.05182(10) 1.02505(11)
O4C O -0.12203(12) 0.97397(11) 1.08988(12)
O4G O -0.02603(11) 1.08988(12) 0.87797(12)
O4J O 0.08988(12) 0.87797(12) 0.97397(11)
O6L O 0.03332(13) 1.05786(16) 0.95549(13)
O6M O -0.04451(13) 1.03332(13) 1.05786(16)
O6N O 0.05786(16) 0.95549(13) 1.03332(13)
loop_
_geom_bond_atom_site_label_1
_geom_bond_atom_site_label_2
_geom_bond_site_symmetry_1
_geom_bond_site_symmetry_2
Zr1 O1 1_555 1_555
O1 Zr1A 1_555 1_555
O2 C1 1_555 1_555
O3 C2 1_555 1_555
O4 C1 1_555 1_555
O5 Zr1 1_555 1_555
O6 Zr1 1_555 1_555
C1 C4 1_555 1_555
C2 O5 1_555 1_555
C3 C5 1_555 1_555
C4 C7 1_555 1_555
O7 S1 1_555 1_555
C5 H1 1_555 1_555
C6 H2 1_555 1_555
C7 C6 1_555 1_555
H3 C7 1_555 1_555
C8 H4 1_555 1_555
C9 C3 1_555 1_555
C10 C2 1_555 1_555
C11 C4 1_555 1_555
H5 C11 1_555 1_555
C12 C11 1_555 1_555
C13 C6 1_555 1_555
C14 C8 1_555 1_555
H6 C14 1_555 1_555
S1 C3 1_555 1_555
O8 S1 1_555 1_555
Zr1A O5A 1_555 1_555
O2A C1A 1_555 1_555
O3A Zr1 1_555 1_555
O4A C1A 1_555 1_555
O5A C2A 1_555 1_555
O6A Zr1 1_555 1_555
C1A C4A 1_555 1_555
C2A O3A 1_555 1_555
C3A C5A 1_555 1_555
C4A C7A 1_555 1_555
O7A S1A 1_555 1_555
C5A H1A 1_555 1_555
C6A H2A 1_555 1_555
C7A C6A 1_555 1_555
H3A C7A 1_555 1_555
C8A H4A 1_555 1_555
C9A C3A 1_555 1_555
C10A C2A 1_555 1_555
C11A C4A 1_555 1_555
H5A C11A 1_555 1_555
C12A C11A 1_555 1_555
C13A C6A 1_555 1_555
C14A C8A 1_555 1_555
H6A C14A 1_555 1_555
S1A C3A 1_555 1_555
O8A S1A 1_555 1_555
Zr1B O1 1_555 1_555
O2B C1B 1_555 1_555
O3B Zr1A 1_555 1_555
O4B C1B 1_555 1_555
O5B Zr1B 1_555 1_555
O6B Zr1A 1_555 1_555
C1B C4B 1_555 1_555
C2B O3B 1_555 1_555
C3B C5B 1_555 1_555
C4B C7B 1_555 1_555
O7B S1B 1_555 1_555
C5B H1B 1_555 1_555
C6B H2B 1_555 1_555
C7B C6B 1_555 1_555
H3B C7B 1_555 1_555
C8B H4B 1_555 1_555
C9B C3B 1_555 1_555
C10B C2B 1_555 1_555
C11B C4B 1_555 1_555
H5B C11B 1_555 1_555
C12B C11B 1_555 1_555
C13B C6B 1_555 1_555
C14B C8B 1_555 1_555
H6B C14B 1_555 1_555
S1B C3B 1_555 1_555
O8B S1B 1_555 1_555
Zr1C O4B 1_555 1_555
Zr1G O4A 1_555 1_555
Zr1J O4 1_555 1_555
Zr1L O6B 1_555 1_555
Zr1M O6 1_555 1_555
Zr1N O6A 1_555 1_555
Zr1R O2B 1_555 1_555
Zr1T O2 1_555 1_555
Zr1W O2A 1_555 1_555
O2O Zr1A 1_555 1_555
O2S Zr1 1_555 1_555
O2V Zr1B 1_555 1_555
O4C Zr1B 1_555 1_555
O4G Zr1A 1_555 1_555
O4J Zr1 1_555 1_555
O6L Zr1A 1_555 1_555
O6M Zr1B 1_555 1_555
O6N Zr1 1_555 1_555
O3 Zr1B 1_555 1_555
O6 Zr1B 1_555 1_555
C5 C10 1_555 1_555
C8 C10 1_555 1_555
C9 C13 1_555 1_555
C9 C14 1_555 1_555
C12 C13 1_555 1_555
C12 S1 1_555 1_555
Zr1A O6A 1_555 1_555
C5A C10A 1_555 1_555
C8A C10A 1_555 1_555
C9A C13A 1_555 1_555
C9A C14A 1_555 1_555
C12A C13A 1_555 1_555
C12A S1A 1_555 1_555
Zr1B O6B 1_555 1_555
O5B C2B 1_555 1_555
C5B C10B 1_555 1_555
C8B C10B 1_555 1_555
C9B C13B 1_555 1_555
C9B C14B 1_555 1_555
C12B C13B 1_555 1_555
C12B S1B 1_555 1_555
Zr1L O6L 1_555 1_555
Zr1L O6M 1_555 1_555
Zr1M O6M 1_555 1_555
Zr1M O6N 1_555 1_555
Zr1N O6L 1_555 1_555
Zr1N O6N 1_555 1_555

#END
