
#######################################################################
#
#                 Cambridge Crystallographic Data Centre
#                                CCDC 
#
#######################################################################
#
# If this CIF has been generated from an entry in the Cambridge 
# Structural Database, then it will include bibliographic, chemical, 
# crystal, experimental, refinement or atomic coordinate data resulting 
# from the CCDC's data processing and validation procedures.
#
#######################################################################

data_SOQTEY
_symmetry_cell_setting           monoclinic
_symmetry_space_group_name_H-M   'P n'
_symmetry_Int_Tables_number      7
_space_group_name_Hall           'P -2yac'
loop_
_symmetry_equiv_pos_site_id
_symmetry_equiv_pos_as_xyz
1 x,y,z
2 1/2+x,-y,1/2+z
_cell_length_a                   11.284(2)
_cell_length_b                   13.548(3)
_cell_length_c                   14.243(3)
_cell_angle_alpha                90
_cell_angle_beta                 102.41(3)
_cell_angle_gamma                90
_cell_volume                     2126.53
loop_
_atom_site_label
_atom_site_type_symbol
_atom_site_fract_x
_atom_site_fract_y
_atom_site_fract_z
Hg1 Hg 0.408087(15) 0.575247(15) 0.413293(13)
S1 S 0.48665(18) 0.52783(14) 0.58983(13)
N1 N 0.3320(5) 0.3754(4) 0.6162(4)
C1 C 0.3934(7) 0.4378(4) 0.6030(6)
S2 S 0.5763(2) 0.48528(11) 0.34513(16)
C2 C 0.6326(7) 0.5731(4) 0.2888(5)
N2 N 0.6771(5) 0.6313(4) 0.2486(4)
S3 S 0.20876(18) 0.51014(15) 0.33300(17)
C3 C 0.2563(7) 0.4094(6) 0.2865(6)
N3 N 0.2888(6) 0.3414(5) 0.2528(6)
S4 S 0.45074(17) 0.75746(11) 0.41505(15)
C4 C 0.5808(6) 0.7501(4) 0.4937(6)
N4 N 0.6704(6) 0.7433(4) 0.5487(5)
Hg2 Hg 0.182921(15) -0.063510(15) 0.416642(13)
S5 S 0.13506(16) -0.03781(12) 0.23204(13)
C5 C 0.2147(7) 0.0615(4) 0.2194(6)
N5 N 0.2719(5) 0.1274(3) 0.2064(4)
S6 S 0.5034(2) -0.01855(12) -0.03243(16)
C6 C 0.4439(7) 0.0761(4) 0.0138(5)
N6 N 0.4010(5) 0.1396(4) 0.0469(4)
S7 S 0.38250(18) 0.00726(14) 0.49479(16)
C7 C 0.3371(6) 0.1007(5) 0.5542(5)
N7 N 0.3123(6) 0.1649(4) 0.5973(5)
S8 S 0.65140(16) 0.24750(10) 0.92320(15)
C8 C 0.5158(7) 0.2510(4) 0.8489(5)
N8 N 0.4238(6) 0.2541(4) 0.7981(5)
Cu1 Cu 0.25382(8) 0.26850(5) 0.67736(6)
N9 N 0.1579(5) 0.1635(3) 0.7284(4)
C9 C 0.2092(6) 0.1032(5) 0.7985(5)
H1 H 0.2907 0.1128 0.8269
C10 C 0.1482(6) 0.0264(4) 0.8321(5)
H2 H 0.1870 -0.0142 0.8820
C11 C 0.0304(6) 0.0129(4) 0.7895(5)
H3 H -0.0130 -0.0391 0.8083
C12 C -0.0249(7) 0.0755(4) 0.7191(5)
H4 H -0.1065 0.0667 0.6908
C13 C 0.0387(5) 0.1520(4) 0.6891(4)
C14 C -0.0134(6) 0.2184(4) 0.6084(4)
O1 O 0.0534(4) 0.2625(3) 0.5662(3)
C15 C -0.1484(6) 0.2319(5) 0.5807(5)
C16 C -0.2150(5) 0.2553(4) 0.6482(4)
H5 H -0.1763 0.2586 0.7127
C17 C -0.3363(6) 0.2739(5) 0.6222(5)
H6 H -0.3791 0.2937 0.6680
C18 C -0.3951(6) 0.2627(5) 0.5270(5)
H7 H -0.4785 0.2718 0.5088
C19 C -0.3300(5) 0.2383(4) 0.4598(4)
H8 H -0.3698 0.2312 0.3958
C20 C -0.2060(4) 0.2240(4) 0.4855(4)
H9 H -0.1620 0.2092 0.4391
Cu2 Cu 0.33396(8) 0.24210(5) 0.14842(6)
N10 N 0.4137(5) 0.3570(3) 0.0963(4)
C21 C 0.3520(7) 0.4268(4) 0.0419(6)
H10 H 0.2677 0.4238 0.0272
C22 C 0.4080(7) 0.5032(5) 0.0066(5)
H11 H 0.3621 0.5524 -0.0297
C23 C 0.5336(7) 0.5072(4) 0.0250(5)
H12 H 0.5734 0.5576 0.0000
C24 C 0.5973(8) 0.4348(4) 0.0812(5)
H13 H 0.6816 0.4342 0.0941
C25 C 0.5339(6) 0.3621(4) 0.1187(4)
C26 C 0.5916(6) 0.2821(4) 0.1865(4)
O2 O 0.5247(4) 0.2259(3) 0.2175(3)
C27 C 0.7249(7) 0.2674(5) 0.2138(5)
C28 C 0.7661(6) 0.1744(5) 0.2014(4)
H14 H 0.7115 0.1254 0.1748
C29 C 0.8883(8) 0.1529(6) 0.2280(6)
H15 H 0.9165 0.0892 0.2218
C30 C 0.9673(8) 0.2278(7) 0.2639(6)
H16 H 1.0501 0.2146 0.2801
C31 C 0.9274(5) 0.3211(5) 0.2765(5)
H17 H 0.9818 0.3704 0.3030
C32 C 0.8047(5) 0.3408(4) 0.2491(4)
H18 H 0.7764 0.4046 0.2546
N2A N 0.1771(5) 0.3687(4) 0.7486(4)
N4A N 0.1704(6) 0.2567(4) 0.0487(5)
Hg2A Hg 0.682921(15) 0.063510(15) -0.083358(13)
Hg2A_2 Hg 0.682921(15) 0.063510(15) 0.916642(13)
S6A S 0.0034(2) 0.01855(12) 0.46757(16)
S8A S 0.15140(16) -0.24750(10) 0.42320(15)
Cu1A Cu 0.75382(8) 0.73150(5) 0.17736(6)
Cu2A Cu 0.83396(8) 0.75790(5) 0.64842(6)
loop_
_geom_bond_atom_site_label_1
_geom_bond_atom_site_label_2
_geom_bond_site_symmetry_1
_geom_bond_site_symmetry_2
Hg1 S1 1_555 1_555
S1 C1 1_555 1_555
N1 C1 1_555 1_555
S2 Hg1 1_555 1_555
C2 S2 1_555 1_555
N2 C2 1_555 1_555
S3 Hg1 1_555 1_555
C3 S3 1_555 1_555
N3 C3 1_555 1_555
S4 Hg1 1_555 1_555
C4 S4 1_555 1_555
N4 C4 1_555 1_555
Hg2 S5 1_555 1_555
S5 C5 1_555 1_555
C5 N5 1_555 1_555
N5 Cu2 1_555 1_555
S6 C6 1_555 1_555
C6 N6 1_555 1_555
N6 Cu2 1_555 1_555
S7 Hg2 1_555 1_555
C7 S7 1_555 1_555
N7 C7 1_555 1_555
S8 C8 1_555 1_555
C8 N8 1_555 1_555
N8 Cu1 1_555 1_555
Cu1 N1 1_555 1_555
N9 Cu1 1_555 1_555
C9 N9 1_555 1_555
H1 C9 1_555 1_555
C10 C9 1_555 1_555
H2 C10 1_555 1_555
C11 C10 1_555 1_555
H3 C11 1_555 1_555
C12 C11 1_555 1_555
H4 C12 1_555 1_555
C13 N9 1_555 1_555
C14 C13 1_555 1_555
O1 Cu1 1_555 1_555
C15 C14 1_555 1_555
C16 C15 1_555 1_555
H5 C16 1_555 1_555
C17 C16 1_555 1_555
H6 C17 1_555 1_555
C18 C17 1_555 1_555
H7 C18 1_555 1_555
C19 C18 1_555 1_555
H8 C19 1_555 1_555
C20 C15 1_555 1_555
H9 C20 1_555 1_555
Cu2 N3 1_555 1_555
N10 Cu2 1_555 1_555
C21 N10 1_555 1_555
H10 C21 1_555 1_555
C22 C21 1_555 1_555
H11 C22 1_555 1_555
C23 C22 1_555 1_555
H12 C23 1_555 1_555
C24 C23 1_555 1_555
H13 C24 1_555 1_555
C25 N10 1_555 1_555
C26 C25 1_555 1_555
O2 Cu2 1_555 1_555
C27 C26 1_555 1_555
C28 C27 1_555 1_555
H14 C28 1_555 1_555
C29 C28 1_555 1_555
H15 C29 1_555 1_555
C30 C29 1_555 1_555
H16 C30 1_555 1_555
C31 C30 1_555 1_555
H17 C31 1_555 1_555
C32 C27 1_555 1_555
H18 C32 1_555 1_555
N2A Cu1 1_555 1_555
N4A Cu2 1_555 1_555
Hg2A S6 1_555 1_555
Hg2A_2 S8 1_555 1_555
S6A Hg2 1_555 1_555
S8A Hg2 1_555 1_555
Cu1A N2 1_555 1_555
Cu2A N4 1_555 1_555
N7 Cu1 1_555 1_555
C12 C13 1_555 1_555
C14 O1 1_555 1_555
C19 C20 1_555 1_555
C24 C25 1_555 1_555
C26 O2 1_555 1_555
C31 C32 1_555 1_555

#END
