
#######################################################################
#
#                 Cambridge Crystallographic Data Centre
#                                CCDC 
#
#######################################################################
#
# If this CIF has been generated from an entry in the Cambridge 
# Structural Database, then it will include bibliographic, chemical, 
# crystal, experimental, refinement or atomic coordinate data resulting 
# from the CCDC's data processing and validation procedures.
#
#######################################################################

data_SOQWIF
_symmetry_cell_setting           monoclinic
_symmetry_space_group_name_H-M   'P 21/n'
_symmetry_Int_Tables_number      14
_space_group_name_Hall           '-P 2yn'
loop_
_symmetry_equiv_pos_site_id
_symmetry_equiv_pos_as_xyz
1 x,y,z
2 1/2-x,1/2+y,1/2-z
3 -x,-y,-z
4 1/2+x,1/2-y,1/2+z
_cell_length_a                   10.3228(2)
_cell_length_b                   29.6019(4)
_cell_length_c                   14.7554(2)
_cell_angle_alpha                90
_cell_angle_beta                 107.8130(10)
_cell_angle_gamma                90
_cell_volume                     4292.72
loop_
_atom_site_label
_atom_site_type_symbol
_atom_site_fract_x
_atom_site_fract_y
_atom_site_fract_z
O7 O 0.2596(5) 0.01774(16) 1.0116(3)
H25 H 0.187(5) -0.0009(17) 0.998(5)
H26 H 0.233(6) 0.0447(11) 0.985(5)
O8 O -0.0197(5) 0.1345(2) 0.4079(4)
H27 H 0.067(3) 0.139(3) 0.408(5)
H28 H -0.014(7) 0.118(3) 0.460(4)
O9 O 1.0191(6) 0.0540(2) 0.1583(4)
H29 H 0.984(7) 0.0827(11) 0.149(6)
H30 H 0.953(6) 0.0348(18) 0.158(7)
O10 O 0.6051(7) 0.1199(2) 1.0178(4)
H31 H 0.604(10) 0.107(3) 0.963(4)
H32 H 0.580(11) 0.147(2) 1.011(7)
O11 O 0.3880(6) 0.15213(18) 0.1846(4)
H33 H 0.377(8) 0.147(3) 0.123(2)
H34 H 0.316(6) 0.140(3) 0.199(5)
O12 O 0.7954(7) 0.1596(2) 0.1727(5)
H35 H 0.739(6) 0.147(3) 0.118(4)
H36 H 0.880(3) 0.151(3) 0.174(6)
O13 O 0.8685(8) 0.8626(2) 0.7755(4)
O14 O 0.0415(5) 0.9289(2) 0.4517(4)
H37 H 0.107(6) 0.945(3) 0.493(4)
H38 H 0.057(7) 0.928(3) 0.395(3)
O15 O 0.3519(6) 0.9182(2) 0.1360(4)
H39 H 0.398(6) 0.933(3) 0.189(4)
H40 H 0.267(4) 0.930(3) 0.118(5)
O16 O 0.2142(6) 0.99551(17) 0.2592(4)
O17 O 0.3017(9) 0.0264(3) 0.4369(6)
Ru1 Ru 1.04186(5) 1.115551(14) 0.82757(3)
C1 C 0.7517(5) 1.11022(18) 0.6676(4)
N1 N 1.1910(7) 1.0359(2) 0.7611(4)
N2 N 0.6097(6) 1.05477(18) 0.4217(4)
N3 N 0.8564(6) 1.10794(18) 0.7215(4)
C2 C 1.1302(7) 1.0651(2) 0.7828(4)
C3 C 0.9786(6) 1.0732(2) 0.9111(4)
N4 N 0.9330(6) 1.04983(19) 0.9558(4)
C4 C 1.2200(7) 1.1258(2) 0.9282(4)
N5 N 1.3244(7) 1.1321(2) 0.9850(5)
N6 N 1.0820(5) 1.16632(17) 0.7381(3)
C5 C 1.1435(6) 1.1604(2) 0.6709(5)
H1 H 1.1783 1.1313 0.6644
C6 C 1.1587(7) 1.1942(2) 0.6110(5)
H2 H 1.2018 1.1884 0.5638
C7 C 1.1098(7) 1.2367(2) 0.6212(5)
H3 H 1.1206 1.2609 0.5819
C8 C 1.0446(7) 1.2435(2) 0.6896(5)
H4 H 1.0092 1.2724 0.6969
C9 C 1.0317(6) 1.2082(2) 0.7465(4)
C10 C 0.9615(6) 1.2122(2) 0.8197(4)
C11 C 0.9040(6) 1.2520(2) 0.8387(4)
H5 H 0.9065 1.2783 0.8026
C12 C 0.8435(7) 1.2536(2) 0.9095(5)
H6 H 0.8038 1.2807 0.9230
C13 C 0.8417(7) 1.2143(2) 0.9610(5)
H7 H 0.8014 1.2143 1.0109
C14 C 0.8986(7) 1.1757(2) 0.9392(4)
H8 H 0.8964 1.1491 0.9745
N7 N 0.9576(5) 1.17404(16) 0.8694(4)
Ru2 Ru 0.55938(4) 1.120354(13) 0.57427(3)
C15 C 0.3721(6) 1.13041(19) 0.4832(4)
N8 N 0.2648(5) 1.13476(17) 0.4295(4)
C16 C 0.5912(6) 1.0776(2) 0.4803(4)
C17 C 0.4864(6) 1.0713(2) 0.6354(4)
N9 N 0.4449(6) 1.04315(19) 0.6728(4)
N10 N 0.6390(5) 1.17717(16) 0.5238(3)
C18 C 0.6944(6) 1.1768(2) 0.4521(4)
H9 H 0.6937 1.1494 0.4182
C19 C 0.7524(7) 1.2148(2) 0.4263(5)
H10 H 0.7904 1.2135 0.3752
C20 C 0.7547(7) 1.2546(2) 0.4748(6)
H11 H 0.7947 1.2810 0.4583
C21 C 0.6972(7) 1.2553(2) 0.5484(5)
H12 H 0.6982 1.2823 0.5833
C22 C 0.6386(6) 1.2166(2) 0.5707(4)
C23 C 0.5763(6) 1.2142(2) 0.6486(4)
C24 C 0.5598(7) 1.2521(2) 0.7002(5)
H13 H 0.5860 1.2812 0.6851
C25 C 0.5045(7) 1.2464(2) 0.7737(5)
H14 H 0.4929 1.2717 0.8100
C26 C 0.4665(7) 1.2040(3) 0.7943(5)
H15 H 0.4298 1.1995 0.8453
C27 C 0.4829(6) 1.1680(2) 0.7386(4)
H16 H 0.4561 1.1388 0.7523
N11 N 0.5351(5) 1.17271(16) 0.6665(3)
Nd1 Nd 1.33338(3) 0.975983(10) 0.72127(2)
O1 O 1.5778(5) 0.96730(19) 0.8006(3)
H17 H 1.615(6) 0.962(3) 0.8625(19)
H18 H 1.639(6) 0.981(3) 0.778(4)
O2 O 1.3521(8) 0.9641(2) 0.8888(4)
H20 H 1.356(9) 0.982(3) 0.939(5)
O3 O 1.3677(5) 0.89335(15) 0.7468(3)
H21 H 1.306(5) 0.876(2) 0.762(5)
H22 H 1.450(3) 0.882(2) 0.775(5)
O4 O 1.1149(6) 0.93815(17) 0.7024(4)
O5 O 1.1668(5) 1.00402(17) 0.5699(3)
O6 O 1.446(2) 1.0325(8) 0.8605(15)
H23 H 1.225(13) 1.013(4) 0.539(10)
H24 H 1.126(14) 1.029(3) 0.584(11)
Ru1B Ru 0.95814(5) 0.884449(14) 0.17243(3)
C1B C 1.2483(5) 0.88978(18) 0.3324(4)
N1B N 0.8090(7) 0.9641(2) 0.2389(4)
N2B N 1.3903(6) 0.94523(18) 0.5783(4)
N3B N 1.1436(6) 0.89206(18) 0.2785(4)
C2B C 0.8698(7) 0.9349(2) 0.2172(4)
C3B C 1.0214(6) 0.9268(2) 0.0889(4)
N4B N 1.0670(6) 0.95017(19) 0.0442(4)
C4B C 0.7800(7) 0.8742(2) 0.0718(4)
N5B N 0.6756(7) 0.8679(2) 0.0150(5)
N6B N 0.9180(5) 0.83368(17) 0.2619(3)
C5B C 0.8565(6) 0.8396(2) 0.3291(5)
H1B H 0.8217 0.8687 0.3356
C6B C 0.8413(7) 0.8058(2) 0.3890(5)
H2B H 0.7982 0.8116 0.4362
C7B C 0.8902(7) 0.7633(2) 0.3788(5)
H3B H 0.8794 0.7391 0.4181
C8B C 0.9554(7) 0.7565(2) 0.3104(5)
H4B H 0.9908 0.7276 0.3031
C9B C 0.9683(6) 0.7918(2) 0.2535(4)
C10B C 1.0385(6) 0.7878(2) 0.1803(4)
C11B C 1.0960(6) 0.7480(2) 0.1613(4)
H5B H 1.0935 0.7217 0.1974
C12B C 1.1565(7) 0.7464(2) 0.0905(5)
H6B H 1.1962 0.7193 0.0770
C13B C 1.1583(7) 0.7857(2) 0.0390(5)
H7B H 1.1986 0.7857 -0.0109
C14B C 1.1014(7) 0.8243(2) 0.0608(4)
H8B H 1.1036 0.8509 0.0255
N7B N 1.0424(5) 0.82596(16) 0.1306(4)
Ru2B Ru 1.44062(4) 0.879646(13) 0.42573(3)
C15B C 1.6279(6) 0.86959(19) 0.5168(4)
N8B N 1.7352(5) 0.86524(17) 0.5705(4)
C16B C 1.4088(6) 0.9224(2) 0.5197(4)
C17B C 1.5136(6) 0.9287(2) 0.3646(4)
N9_2 N 1.4449(6) 1.04315(19) 0.6728(4)
N9B N 0.5551(6) 0.95685(19) 0.3272(4)
N9B_2 N 1.5551(6) 0.95685(19) 0.3272(4)
N10B N 1.3610(5) 0.82283(16) 0.4762(3)
C18B C 1.3056(6) 0.8232(2) 0.5479(4)
H9B H 1.3063 0.8506 0.5818
C19B C 1.2476(7) 0.7852(2) 0.5737(5)
H10B H 1.2096 0.7865 0.6248
C20B C 1.2453(7) 0.7454(2) 0.5252(6)
H11B H 1.2053 0.7190 0.5417
C21B C 1.3028(7) 0.7447(2) 0.4516(5)
H12B H 1.3018 0.7177 0.4167
C22B C 1.3614(6) 0.7834(2) 0.4293(4)
C23B C 1.4237(6) 0.7858(2) 0.3514(4)
C24B C 1.4402(7) 0.7479(2) 0.2998(5)
H13B H 1.4140 0.7188 0.3149
C25B C 1.4955(7) 0.7536(2) 0.2263(5)
H14B H 1.5071 0.7283 0.1900
C26B C 1.5335(7) 0.7960(3) 0.2057(5)
H15B H 1.5702 0.8005 0.1547
C27B C 1.5171(6) 0.8320(2) 0.2614(4)
H16B H 1.5439 0.8612 0.2477
N11B N 1.4649(5) 0.82729(16) 0.3335(3)
Nd1B Nd 0.66662(3) 1.024017(10) 0.27873(2)
Nd1_2 Nd 0.33338(3) 0.975983(10) 0.72127(2)
Nd1B_2 Nd 1.66662(3) 1.024017(10) 0.27873(2)
O1B O 0.4222(5) 1.03270(19) 0.1994(3)
O2B O 0.6479(8) 1.0359(2) 0.1112(4)
O3B O 0.6323(5) 1.10665(15) 0.2532(3)
O4B O 0.8851(6) 1.06185(17) 0.2976(4)
O5B O 0.8332(5) 0.99598(17) 0.4301(3)
O6B O 0.554(2) 0.9675(8) 0.1395(15)
H19? H 1.267(5) 0.952(4) 0.872(7)
O18? O 0.1742(13) 0.0406(4) 0.4089(9)
loop_
_geom_bond_atom_site_label_1
_geom_bond_atom_site_label_2
_geom_bond_site_symmetry_1
_geom_bond_site_symmetry_2
Ru1 N3 1_555 1_555
C1 N3 1_555 1_555
N1 C2 1_555 1_555
N2 C16 1_555 1_555
C2 Ru1 1_555 1_555
C3 Ru1 1_555 1_555
N4 C3 1_555 1_555
C4 Ru1 1_555 1_555
N5 C4 1_555 1_555
N6 Ru1 1_555 1_555
C5 N6 1_555 1_555
H1 C5 1_555 1_555
C6 C5 1_555 1_555
H2 C6 1_555 1_555
C7 C6 1_555 1_555
H3 C7 1_555 1_555
C8 C7 1_555 1_555
H4 C8 1_555 1_555
C9 N6 1_555 1_555
C10 C9 1_555 1_555
C11 C10 1_555 1_555
H5 C11 1_555 1_555
C12 C11 1_555 1_555
H6 C12 1_555 1_555
C13 C12 1_555 1_555
H7 C13 1_555 1_555
C14 C13 1_555 1_555
H8 C14 1_555 1_555
N7 Ru1 1_555 1_555
Ru2 C1 1_555 1_555
C15 Ru2 1_555 1_555
N8 C15 1_555 1_555
C16 Ru2 1_555 1_555
C17 Ru2 1_555 1_555
N9 C17 1_555 1_555
N10 Ru2 1_555 1_555
C18 N10 1_555 1_555
H9 C18 1_555 1_555
C19 C18 1_555 1_555
H10 C19 1_555 1_555
C20 C19 1_555 1_555
H11 C20 1_555 1_555
C21 C20 1_555 1_555
H12 C21 1_555 1_555
C22 N10 1_555 1_555
C23 C22 1_555 1_555
C24 C23 1_555 1_555
H13 C24 1_555 1_555
C25 C24 1_555 1_555
H14 C25 1_555 1_555
C26 C25 1_555 1_555
H15 C26 1_555 1_555
C27 C26 1_555 1_555
H16 C27 1_555 1_555
N11 Ru2 1_555 1_555
Nd1 N1 1_555 1_555
O1 Nd1 1_555 1_555
H17 O1 1_555 1_555
H18 O1 1_555 1_555
O2 Nd1 1_555 1_555
H20 O2 1_555 1_555
O3 Nd1 1_555 1_555
H21 O3 1_555 1_555
H22 O3 1_555 1_555
O4 Nd1 1_555 1_555
O5 Nd1 1_555 1_555
O6 Nd1 1_555 1_555
H23 O5 1_555 1_555
H24 O5 1_555 1_555
O7 H25 1_555 1_555
H26 O7 1_555 1_555
O8 H27 1_555 1_555
H28 O8 1_555 1_555
O9 H29 1_555 1_555
H30 O9 1_555 1_555
O10 H31 1_555 1_555
H32 O10 1_555 1_555
O11 H33 1_555 1_555
H34 O11 1_555 1_555
O12 H35 1_555 1_555
H36 O12 1_555 1_555
O14 H37 1_555 1_555
H38 O14 1_555 1_555
O15 H39 1_555 1_555
H40 O15 1_555 1_555
Ru1B N3B 1_555 1_555
C1B N3B 1_555 1_555
N1B C2B 1_555 1_555
N2B Nd1 1_555 1_555
C2B Ru1B 1_555 1_555
C3B Ru1B 1_555 1_555
N4B C3B 1_555 1_555
C4B Ru1B 1_555 1_555
N5B C4B 1_555 1_555
N6B Ru1B 1_555 1_555
C5B N6B 1_555 1_555
H1B C5B 1_555 1_555
C6B C5B 1_555 1_555
H2B C6B 1_555 1_555
C7B C6B 1_555 1_555
H3B C7B 1_555 1_555
C8B C7B 1_555 1_555
H4B C8B 1_555 1_555
C9B N6B 1_555 1_555
C10B C9B 1_555 1_555
C11B C10B 1_555 1_555
H5B C11B 1_555 1_555
C12B C11B 1_555 1_555
H6B C12B 1_555 1_555
C13B C12B 1_555 1_555
H7B C13B 1_555 1_555
C14B C13B 1_555 1_555
H8B C14B 1_555 1_555
N7B Ru1B 1_555 1_555
Ru2B C1B 1_555 1_555
C15B Ru2B 1_555 1_555
N8B C15B 1_555 1_555
C16B N2B 1_555 1_555
C17B Ru2B 1_555 1_555
N9_2 Nd1 1_555 1_555
N9B Nd1B 1_555 1_555
N9B_2 C17B 1_555 1_555
N10B Ru2B 1_555 1_555
C18B N10B 1_555 1_555
H9B C18B 1_555 1_555
C19B C18B 1_555 1_555
H10B C19B 1_555 1_555
C20B C19B 1_555 1_555
H11B C20B 1_555 1_555
C21B C20B 1_555 1_555
H12B C21B 1_555 1_555
C22B N10B 1_555 1_555
C23B C22B 1_555 1_555
C24B C23B 1_555 1_555
H13B C24B 1_555 1_555
C25B C24B 1_555 1_555
H14B C25B 1_555 1_555
C26B C25B 1_555 1_555
H15B C26B 1_555 1_555
C27B C26B 1_555 1_555
H16B C27B 1_555 1_555
N11B Ru2B 1_555 1_555
Nd1B N2 1_555 1_555
Nd1_2 N9 1_555 1_555
Nd1B_2 N9B_2 1_555 1_555
O1B Nd1B 1_555 1_555
O2B Nd1B 1_555 1_555
O3B Nd1B 1_555 1_555
O4B Nd1B 1_555 1_555
O5B Nd1B 1_555 1_555
O6B Nd1B 1_555 1_555
C8 C9 1_555 1_555
C10 N7 1_555 1_555
C14 N7 1_555 1_555
C21 C22 1_555 1_555
C23 N11 1_555 1_555
C27 N11 1_555 1_555
N1B Nd1B 1_555 1_555
C8B C9B 1_555 1_555
C10B N7B 1_555 1_555
C14B N7B 1_555 1_555
Ru2B C16B 1_555 1_555
C21B C22B 1_555 1_555
C23B N11B 1_555 1_555
C27B N11B 1_555 1_555

#END
