
#######################################################################
#
#                 Cambridge Crystallographic Data Centre
#                                CCDC 
#
#######################################################################
#
# If this CIF has been generated from an entry in the Cambridge 
# Structural Database, then it will include bibliographic, chemical, 
# crystal, experimental, refinement or atomic coordinate data resulting 
# from the CCDC's data processing and validation procedures.
#
#######################################################################

data_SORCOS
_symmetry_cell_setting           monoclinic
_symmetry_space_group_name_H-M   'P 21/c'
_symmetry_Int_Tables_number      14
_space_group_name_Hall           '-P 2ybc'
loop_
_symmetry_equiv_pos_site_id
_symmetry_equiv_pos_as_xyz
1 x,y,z
2 -x,1/2+y,1/2-z
3 -x,-y,-z
4 x,1/2-y,1/2+z
_cell_length_a                   11.9669(17)
_cell_length_b                   8.9445(13)
_cell_length_c                   10.9849(16)
_cell_angle_alpha                90
_cell_angle_beta                 115.702(3)
_cell_angle_gamma                90
_cell_volume                     1059.47
loop_
_atom_site_label
_atom_site_type_symbol
_atom_site_fract_x
_atom_site_fract_y
_atom_site_fract_z
Zn1 Zn 0.56160(9) 0.14164(11) 0.63172(10)
O1 O 0.3803(5) 0.1305(7) 0.5682(6)
O2 O 0.3511(5) 0.0445(6) 0.3688(6)
N1 N -0.2052(6) 0.1068(8) 0.2860(7)
H1 H -0.2322 0.1617 0.3318
N2 N -0.4054(6) 0.2192(8) 0.0141(6)
N3 N -0.3944(6) 0.1472(8) -0.1734(6)
C1 C 0.3098(7) 0.0924(9) 0.4487(9)
C2 C 0.1745(7) 0.1051(9) 0.4027(9)
C3 C 0.1242(7) 0.1737(8) 0.4806(8)
H2 H 0.1768 0.2181 0.5619
C4 C -0.0016(7) 0.1774(9) 0.4405(9)
H3 H -0.0335 0.2247 0.4940
C5 C -0.0813(7) 0.1101(9) 0.3190(8)
C6 C -0.0316(8) 0.0429(11) 0.2397(8)
H4 H -0.0834 -0.0021 0.1583
C7 C 0.0939(8) 0.0431(10) 0.2818(9)
H5 H 0.1259 -0.0004 0.2268
C8 C -0.2947(8) 0.0148(10) 0.1766(8)
H6 H -0.3646 -0.0069 0.1963
H7 H -0.2558 -0.0795 0.1739
C9 C -0.3412(6) 0.0873(9) 0.0412(8)
C10 C -0.4361(8) 0.2477(10) -0.1167(9)
H8 H -0.4823 0.3305 -0.1623
C11 C -0.3359(7) 0.0435(10) -0.0752(8)
H9 H -0.2983 -0.0433 -0.0858
Zn1B Zn 0.43840(9) -0.14164(11) 0.36828(10)
Zn1_2 Zn -0.43840(9) 0.14164(11) -0.36828(10)
Zn1A Zn 1.43840(9) -0.35836(11) 0.86828(10)
Zn1B_2 Zn 1.43840(9) -0.14164(11) 1.36828(10)
Zn1C Zn -0.43840(9) 0.35836(11) 0.13172(10)
O1B O 0.6197(5) -0.1305(7) 0.4318(6)
O2B O 0.6489(5) -0.0445(6) 0.6312(6)
N1B N 1.2052(6) -0.1068(8) 0.7140(7)
H1B H 1.2322 -0.1617 0.6682
N2B N 1.4054(6) -0.2192(8) 0.9859(6)
N2A N 0.4054(6) -0.2808(8) 0.4859(6)
N2C N 0.5946(6) 0.2808(8) 0.5141(6)
N3B N 1.3944(6) -0.1472(8) 1.1734(6)
N3_2 N 0.6056(6) 0.1472(8) 0.8266(6)
N3B_2 N 0.3944(6) -0.1472(8) 0.1734(6)
C1B C 0.6902(7) -0.0924(9) 0.5513(9)
C2B C 0.8255(7) -0.1051(9) 0.5973(9)
C3B C 0.8758(7) -0.1737(8) 0.5194(8)
H2B H 0.8232 -0.2181 0.4381
C4B C 1.0016(7) -0.1774(9) 0.5595(9)
H3B H 1.0335 -0.2247 0.5060
C5B C 1.0813(7) -0.1101(9) 0.6810(8)
C6B C 1.0316(8) -0.0429(11) 0.7603(8)
H4B H 1.0834 0.0021 0.8417
C7B C 0.9061(8) -0.0431(10) 0.7182(9)
H5B H 0.8741 0.0004 0.7732
C8B C 1.2947(8) -0.0148(10) 0.8234(8)
H6B H 1.3646 0.0069 0.8037
H7B H 1.2558 0.0795 0.8261
C9B C 1.3412(6) -0.0873(9) 0.9588(8)
C10B C 1.4361(8) -0.2477(10) 1.1167(9)
H8B H 1.4823 -0.3305 1.1623
C11B C 1.3359(7) -0.0435(10) 1.0752(8)
H9B H 1.2983 0.0433 1.0858
loop_
_geom_bond_atom_site_label_1
_geom_bond_atom_site_label_2
_geom_bond_site_symmetry_1
_geom_bond_site_symmetry_2
Zn1 O1 1_555 1_555
O1 C1 1_555 1_555
O2 C1 1_555 1_555
N1 H1 1_555 1_555
N2 C9 1_555 1_555
N3 C10 1_555 1_555
C1 C2 1_555 1_555
C2 C3 1_555 1_555
C3 H2 1_555 1_555
C4 C3 1_555 1_555
H3 C4 1_555 1_555
C5 N1 1_555 1_555
C6 C5 1_555 1_555
H4 C6 1_555 1_555
C7 C2 1_555 1_555
H5 C7 1_555 1_555
C8 N1 1_555 1_555
H6 C8 1_555 1_555
H7 C8 1_555 1_555
C9 C8 1_555 1_555
C10 N2 1_555 1_555
H8 C10 1_555 1_555
C11 N3 1_555 1_555
H9 C11 1_555 1_555
Zn1B O2 1_555 1_555
Zn1_2 N3 1_555 1_555
Zn1A N2B 1_555 1_555
Zn1B_2 N3B 1_555 1_555
Zn1C N2 1_555 1_555
O1B Zn1B 1_555 1_555
O2B Zn1 1_555 1_555
N1B H1B 1_555 1_555
N2B C9B 1_555 1_555
N2A Zn1B 1_555 1_555
N2C Zn1 1_555 1_555
N3B C10B 1_555 1_555
N3_2 Zn1 1_555 1_555
N3B_2 Zn1B 1_555 1_555
C1B O1B 1_555 1_555
C2B C1B 1_555 1_555
C3B C2B 1_555 1_555
H2B C3B 1_555 1_555
C4B C3B 1_555 1_555
H3B C4B 1_555 1_555
C5B N1B 1_555 1_555
C6B C5B 1_555 1_555
H4B C6B 1_555 1_555
C7B C2B 1_555 1_555
H5B C7B 1_555 1_555
C8B N1B 1_555 1_555
H6B C8B 1_555 1_555
H7B C8B 1_555 1_555
C9B C8B 1_555 1_555
C10B N2B 1_555 1_555
H8B C10B 1_555 1_555
C11B N3B 1_555 1_555
H9B C11B 1_555 1_555
C4 C5 1_555 1_555
C6 C7 1_555 1_555
C9 C11 1_555 1_555
O2B C1B 1_555 1_555
C4B C5B 1_555 1_555
C6B C7B 1_555 1_555
C9B C11B 1_555 1_555

#END
