
#######################################################################
#
#                 Cambridge Crystallographic Data Centre
#                                CCDC 
#
#######################################################################
#
# If this CIF has been generated from an entry in the Cambridge 
# Structural Database, then it will include bibliographic, chemical, 
# crystal, experimental, refinement or atomic coordinate data resulting 
# from the CCDC's data processing and validation procedures.
#
#######################################################################

data_SOSQIC01
_symmetry_cell_setting           orthorhombic
_symmetry_space_group_name_H-M   'P b c n'
_symmetry_Int_Tables_number      60
_space_group_name_Hall           '-P 2n 2ab'
loop_
_symmetry_equiv_pos_site_id
_symmetry_equiv_pos_as_xyz
1 x,y,z
2 1/2-x,1/2-y,1/2+z
3 -x,y,1/2-z
4 1/2+x,1/2-y,-z
5 -x,-y,-z
6 1/2+x,1/2+y,1/2-z
7 x,-y,1/2+z
8 1/2-x,1/2+y,z
_cell_length_a                   15.147(3)
_cell_length_b                   8.8340(18)
_cell_length_c                   9.0620(18)
_cell_angle_alpha                90
_cell_angle_beta                 90
_cell_angle_gamma                90
_cell_volume                     1212.57
loop_
_atom_site_label
_atom_site_type_symbol
_atom_site_fract_x
_atom_site_fract_y
_atom_site_fract_z
Zn1 Zn 0.5000 0.04721(6) -0.2500
O1 O 0.46804(17) 0.2018(3) -0.1023(3)
O2 O 0.52542(16) 0.1107(3) 0.0959(3)
O3 O 0.17303(18) 0.3594(3) 0.0027(3)
H1 H 0.118(4) 0.380(6) -0.036(6)
O4 O 0.13639(17) 0.4579(3) 0.2122(3)
C1 C 0.4740(2) 0.1942(4) 0.0294(4)
C2 C 0.42169(12) 0.2895(2) 0.1147(2)
C3 C 0.33238(13) 0.3007(2) 0.0812(2)
H2 H 0.3090 0.2479 -0.0014
C4 C 0.27727(10) 0.3891(3) 0.1685(2)
C5 C 0.31147(13) 0.4663(3) 0.2892(2)
H3 H 0.2738 0.5267 0.3489
C6 C 0.40079(14) 0.4552(3) 0.3227(2)
H4 H 0.4242 0.5079 0.4053
C7 C 0.45590(10) 0.3668(3) 0.2355(2)
C8 C 0.1887(2) 0.4044(4) 0.1309(4)
O1B O 0.53196(17) 0.2018(3) 0.6023(3)
O2B O 0.47458(16) 0.1107(3) 0.4041(3)
O3B O 0.82697(18) 0.3594(3) 0.4973(3)
H1B H 0.882(4) 0.380(6) 0.536(6)
O4B O 0.86361(17) 0.4579(3) 0.2878(3)
C1B C 0.5260(2) 0.1942(4) 0.4706(4)
C2B C 0.57831(12) 0.2895(2) 0.3853(2)
C3B C 0.66762(13) 0.3007(2) 0.4188(2)
H2B H 0.6910 0.2479 0.5014
C4B C 0.72273(10) 0.3891(3) 0.3315(2)
C5B C 0.68853(13) 0.4663(3) 0.2108(2)
H3B H 0.7262 0.5267 0.1511
C6B C 0.59921(14) 0.4552(3) 0.1773(2)
H4B H 0.5758 0.5079 0.0947
C7B C 0.54410(10) 0.3668(3) 0.2645(2)
C8B C 0.8113(2) 0.4044(4) 0.3691(4)
Zn1_2 Zn 0.5000 0.04721(6) 0.7500
Zn1A Zn 0.0000 0.45279(6) 0.2500
Zn1A_2 Zn 1.0000 0.45279(6) 0.2500
Zn1D Zn 0.5000 -0.04721(6) 0.2500
O1B_2 O 0.53196(17) 0.2018(3) -0.3977(3)
O2D O 0.47458(16) -0.1107(3) -0.0959(3)
O2F O 0.52542(16) -0.1107(3) -0.4041(3)
O4A O 0.36361(17) 0.0421(3) -0.2878(3)
O4C O 0.63639(17) 0.0421(3) -0.2122(3)
loop_
_geom_bond_atom_site_label_1
_geom_bond_atom_site_label_2
_geom_bond_site_symmetry_1
_geom_bond_site_symmetry_2
Zn1 O1 1_555 1_555
O1 C1 1_555 1_555
O2 C1 1_555 1_555
O3 H1 1_555 1_555
O4 C8 1_555 1_555
C1 C2 1_555 1_555
C2 C3 1_555 1_555
C3 H2 1_555 1_555
C4 C3 1_555 1_555
C5 C4 1_555 1_555
H3 C5 1_555 1_555
C6 C5 1_555 1_555
H4 C6 1_555 1_555
C7 C2 1_555 1_555
C8 O3 1_555 1_555
O1B C1B 1_555 1_555
O2B C1B 1_555 1_555
O3B H1B 1_555 1_555
O4B C8B 1_555 1_555
C1B C2B 1_555 1_555
C2B C3B 1_555 1_555
C3B H2B 1_555 1_555
C4B C3B 1_555 1_555
C5B C4B 1_555 1_555
H3B C5B 1_555 1_555
C6B C5B 1_555 1_555
H4B C6B 1_555 1_555
C7B C7 1_555 1_555
C8B O3B 1_555 1_555
Zn1_2 O1B 1_555 1_555
Zn1A O4 1_555 1_555
Zn1A_2 O4B 1_555 1_555
Zn1D O2 1_555 1_555
O1B_2 Zn1 1_555 1_555
O2D Zn1 1_555 1_555
O2F Zn1 1_555 1_555
O4A Zn1 1_555 1_555
O4C Zn1 1_555 1_555
C4 C8 1_555 1_555
C6 C7 1_555 1_555
O2B Zn1D 1_555 1_555
C2B C7B 1_555 1_555
C4B C8B 1_555 1_555
C6B C7B 1_555 1_555

#END
