
#######################################################################
#
#                 Cambridge Crystallographic Data Centre
#                                CCDC 
#
#######################################################################
#
# If this CIF has been generated from an entry in the Cambridge 
# Structural Database, then it will include bibliographic, chemical, 
# crystal, experimental, refinement or atomic coordinate data resulting 
# from the CCDC's data processing and validation procedures.
#
#######################################################################

data_SOSWED01
_symmetry_cell_setting           triclinic
_symmetry_space_group_name_H-M   'P -1'
_symmetry_Int_Tables_number      2
_space_group_name_Hall           '-P 1'
loop_
_symmetry_equiv_pos_site_id
_symmetry_equiv_pos_as_xyz
1 x,y,z
2 -x,-y,-z
_cell_length_a                   15.967(5)
_cell_length_b                   16.186(4)
_cell_length_c                   16.882(5)
_cell_angle_alpha                88.210(11)
_cell_angle_beta                 87.179(12)
_cell_angle_gamma                89.957(11)
_cell_volume                     4355.6
loop_
_atom_site_label
_atom_site_type_symbol
_atom_site_fract_x
_atom_site_fract_y
_atom_site_fract_z
Fe1 Fe 0.51648(3) 0.26973(2) 0.20600(2)
Fe2 Fe 0.99792(2) 0.27501(2) 0.69577(2)
O1 O 0.57924(12) 0.36433(12) 0.23127(12)
O2 O 0.60713(14) 0.23196(16) 0.14099(13)
O3 O 1.09061(11) 0.32249(11) 0.63496(11)
O4 O 1.05250(11) 0.17112(12) 0.71137(11)
N1 N 0.42138(14) 0.30244(13) 0.27477(13)
N2 N 0.44521(15) 0.17629(14) 0.18137(14)
N3 N 0.56009(14) 0.20434(13) 0.30007(13)
N4 N 0.60866(13) 0.10404(13) 0.37502(13)
N5 N 0.90079(14) 0.15864(13) 0.50086(14)
N6 N 0.95030(13) 0.23497(13) 0.59246(13)
N7 N 0.93097(14) 0.37712(13) 0.68299(13)
N8 N 0.89879(13) 0.23748(13) 0.76359(13)
N9 N 0.05173(15) 0.31932(14) -0.20495(14)
N10 N 0.12119(15) 0.32392(16) -0.09625(14)
N11 N 0.42446(16) 0.3640(2) -0.00514(15)
N12 N 0.47179(14) 0.33522(15) 0.11191(15)
C1 C 0.6152(2) 0.4960(2) 0.2754(2)
C2 C 0.5526(2) 0.42707(19) 0.27238(19)
C3 C 0.4758(2) 0.43182(18) 0.31099(19)
C4 C 0.41285(19) 0.36938(18) 0.31678(18)
C5 C 0.3395(2) 0.3829(2) 0.3727(2)
C6 C 0.36117(18) 0.23516(18) 0.28846(18)
C7 C 0.35935(19) 0.18687(19) 0.21246(18)
C8 C 0.4052(2) 0.0442(2) 0.1264(2)
C9 C 0.4665(2) 0.1121(2) 0.13966(18)
C10 C 0.5489(2) 0.1045(2) 0.1055(2)
C11 C 0.6131(2) 0.1624(3) 0.1076(2)
C12 C 0.6977(2) 0.1428(3) 0.0685(2)
C13 C 0.58866(17) 0.12769(17) 0.30147(16)
C14 C 0.56246(17) 0.23042(18) 0.37601(17)
C15 C 0.59233(17) 0.16961(17) 0.42303(17)
C16 C 0.64762(18) 0.02533(16) 0.39818(17)
C17 C 0.74071(17) 0.03140(16) 0.40050(17)
C18 C 0.77377(17) 0.09565(16) 0.45279(16)
C19 C 0.8664(2) 0.09009(17) 0.4598(2)
C20 C 0.92058(18) 0.16246(17) 0.57566(18)
C21 C 0.91900(18) 0.23398(17) 0.46653(18)
C22 C 0.94853(18) 0.28071(17) 0.52347(17)
C23 C 1.1861(2) 0.4182(2) 0.5727(2)
C24 C 1.0985(2) 0.3984(2) 0.60935(19)
C25 C 1.0366(2) 0.45670(19) 0.6111(2)
C26 C 0.9543(2) 0.44515(18) 0.64353(19)
C27 C 0.8939(2) 0.51369(18) 0.6313(2)
C28 C 0.84313(19) 0.36676(18) 0.71324(19)
C29 C 0.83975(19) 0.30509(18) 0.78169(18)
C30 C 0.8170(2) 0.1502(2) 0.8606(2)
C31 C 0.89047(18) 0.16639(18) 0.80272(17)
C32 C 0.94947(19) 0.10248(18) 0.79484(18)
C33 C 1.0254(2) 0.10745(18) 0.75302(19)
C34 C 1.0848(2) 0.03574(18) 0.7563(2)
C35 C 0.08943(19) 0.27668(18) -0.14993(18)
C36 C 0.0612(2) 0.3989(2) -0.1856(2)
C37 C 0.1033(2) 0.4014(2) -0.1187(2)
C38 C 0.1673(2) 0.2968(2) -0.02824(18)
C39 C 0.2589(2) 0.2852(2) -0.0463(2)
C40 C 0.3042(2) 0.3535(2) -0.0886(2)
C41 C 0.3964(2) 0.3539(2) -0.08424(19)
C42 C 0.45434(19) 0.3060(2) 0.04361(19)
C43 C 0.4238(2) 0.4369(2) 0.0347(2)
C44 C 0.45273(19) 0.41886(19) 0.1075(2)
H1 H 0.6488 0.4869 0.3198
H2 H 0.5860 0.5468 0.2807
H3 H 0.6501 0.4981 0.2282
H4 H 0.4629 0.4818 0.3370
H5 H 0.2960 0.4099 0.3455
H6 H 0.3559 0.4163 0.4146
H7 H 0.3198 0.3311 0.3940
H8 H 0.3785 0.1994 0.3303
H9 H 0.3071 0.2566 0.3020
H10 H 0.3284 0.2173 0.1747
H11 H 0.3339 0.1344 0.2228
H12 H 0.4073 0.0030 0.1676
H13 H 0.4188 0.0201 0.0768
H14 H 0.3503 0.0669 0.1260
H15 H 0.5608 0.0551 0.0782
H16 H 0.7000 0.1627 0.0149
H17 H 0.7074 0.0849 0.0700
H18 H 0.7394 0.1697 0.0966
H19 H 0.5944 0.0937 0.2567
H20 H 0.5455 0.2836 0.3930
H21 H 0.6006 0.1712 0.4783
H22 H 0.6267 0.0100 0.4502
H23 H 0.6326 -0.0156 0.3624
H24 H 0.7622 -0.0206 0.4175
H25 H 0.7616 0.0443 0.3479
H26 H 0.7602 0.1489 0.4318
H27 H 0.7473 0.0879 0.5041
H28 H 0.8917 0.0893 0.4077
H29 H 0.8789 0.0401 0.4877
H30 H 0.9137 0.1177 0.6132
H31 H 0.9120 0.2503 0.4127
H32 H 0.9665 0.3365 0.5166
H33 H 1.2204 0.4366 0.6130
H34 H 1.1824 0.4604 0.5326
H35 H 1.2099 0.3700 0.5501
H36 H 1.0501 0.5099 0.5887
H37 H 0.8665 0.5062 0.5833
H38 H 0.9229 0.5650 0.6283
H39 H 0.8534 0.5137 0.6745
H40 H 0.8208 0.4183 0.7295
H41 H 0.8112 0.3463 0.6721
H42 H 0.7846 0.2834 0.7899
H43 H 0.8552 0.3318 0.8281
H44 H 0.8317 0.1663 0.9117
H45 H 0.8037 0.0929 0.8623
H46 H 0.7697 0.1811 0.8448
H47 H 0.9357 0.0510 0.8209
H48 H 1.0754 0.0000 0.7140
H49 H 1.0756 0.0063 0.8055
H50 H 1.1409 0.0555 0.7517
H51 H 0.0941 0.2182 -0.1491
H52 H 0.0417 0.4453 -0.2152
H53 H 0.1171 0.4496 -0.0914
H54 H 0.1610 0.3375 0.0110
H55 H 0.1441 0.2460 -0.0079
H56 H 0.2858 0.2737 0.0017
H57 H 0.2649 0.2391 -0.0796
H58 H 0.2894 0.3552 -0.1424
H59 H 0.2851 0.4024 -0.0637
H60 H 0.4197 0.3966 -0.1183
H61 H 0.4156 0.3018 -0.1021
H62 H 0.4613 0.2497 0.0302
H63 H 0.4059 0.4895 0.0153
H64 H 0.4596 0.4569 0.1484
Fe2_2 Fe -0.00208(2) 0.27501(2) -0.30423(2)
N9_2 N 1.05173(15) 0.31932(14) 0.79505(14)
O5 O 0.6880(2) 0.4123(2) 0.0814(2)
C93 C 0.7724(4) 0.3837(3) 0.0828(3)
H105 H 0.7879 0.3718 0.1355
H106 H 0.8088 0.4248 0.0590
H107 H 0.7767 0.3349 0.0530
C45 C 1.05346(19) 0.18671(16) 0.14095(17)
C46 C 0.9976(2) 0.1840(2) 0.08095(19)
C47 C 1.0096(3) 0.1326(2) 0.0169(2)
C48 C 1.0796(3) 0.0848(2) 0.0095(2)
C49 C 1.1375(3) 0.0864(2) 0.0663(2)
C50 C 1.1227(2) 0.13628(17) 0.13176(19)
C51 C 1.09455(17) 0.33479(15) 0.18121(16)
C52 C 1.05775(19) 0.39993(16) 0.14026(17)
C53 C 1.1046(2) 0.46774(18) 0.1086(2)
C54 C 1.1890(2) 0.4719(2) 0.1181(2)
C55 C 1.2270(2) 0.4094(2) 0.1577(2)
C56 C 1.18133(18) 0.34135(18) 0.18727(17)
C57 C 1.08019(16) 0.21081(15) 0.29514(16)
C58 C 1.11765(18) 0.25606(17) 0.35239(17)
C59 C 1.1378(2) 0.2222(2) 0.42641(19)
C60 C 1.1225(2) 0.1406(2) 0.4440(2)
C61 C 1.0878(2) 0.09342(18) 0.3887(2)
C62 C 1.06750(19) 0.12741(16) 0.31693(18)
C63 C 0.94533(17) 0.27131(16) 0.23987(15)
C64 C 0.92114(17) 0.34632(17) 0.27374(16)
C65 C 0.8400(2) 0.3625(2) 0.30058(19)
C66 C 0.77818(19) 0.3027(2) 0.2961(2)
C67 C 0.80014(19) 0.2288(2) 0.26372(19)
C68 C 0.88074(18) 0.21421(17) 0.23783(17)
B1 B 1.04300(19) 0.25080(18) 0.21440(19)
H65 H 0.9489 0.2178 0.0842
H66 H 0.9699 0.1322 -0.0232
H67 H 1.0877 0.0498 -0.0344
H68 H 1.1865 0.0531 0.0618
H69 H 1.1630 0.1364 0.1714
H70 H 0.9991 0.3979 0.1334
H71 H 1.0771 0.5108 0.0804
H72 H 1.2203 0.5184 0.0975
H73 H 1.2857 0.4116 0.1645
H74 H 1.2094 0.2972 0.2131
H75 H 1.1290 0.3129 0.3409
H76 H 1.1622 0.2560 0.4640
H77 H 1.1364 0.1176 0.4942
H78 H 1.0769 0.0366 0.4006
H79 H 1.0438 0.0931 0.2793
H80 H 0.9630 0.3874 0.2779
H81 H 0.8268 0.4145 0.3227
H82 H 0.7222 0.3131 0.3148
H83 H 0.7583 0.1877 0.2596
H84 H 0.8938 0.1617 0.2169
C69 C 0.59558(17) 0.28651(15) 0.59577(15)
C70 C 0.5497(2) 0.35063(17) 0.56403(18)
C71 C 0.5825(2) 0.40963(18) 0.50928(19)
C72 C 0.6643(2) 0.4055(2) 0.4844(2)
C73 C 0.7135(2) 0.3422(2) 0.51274(19)
C74 C 0.67908(19) 0.28538(17) 0.56765(17)
C75 C 0.60295(17) 0.13057(15) 0.65614(15)
C76 C 0.56692(18) 0.06146(17) 0.62413(17)
C77 C 0.6090(2) -0.01332(17) 0.61671(19)
C78 C 0.6891(2) -0.02281(18) 0.64078(19)
C79 C 0.72625(19) 0.04345(19) 0.67395(18)
C80 C 0.68401(18) 0.11684(17) 0.68207(17)
C81 C 0.57757(17) 0.25710(17) 0.75170(16)
C82 C 0.5737(2) 0.2061(2) 0.81866(19)
C83 C 0.5922(2) 0.2341(3) 0.8928(2)
C84 C 0.6169(2) 0.3138(3) 0.9023(2)
C85 C 0.6223(2) 0.3654(2) 0.8374(2)
C86 C 0.60209(18) 0.33840(19) 0.76345(18)
C87 C 0.45455(18) 0.21323(16) 0.65573(18)
C88 C 0.3961(2) 0.2190(2) 0.7172(2)
C89 C 0.3093(2) 0.2150(3) 0.7081(3)
C90 C 0.2797(2) 0.2030(2) 0.6377(2)
C91 C 0.3347(2) 0.19546(19) 0.5746(2)
C92 C 0.41888(19) 0.20087(18) 0.58447(19)
B2 B 0.5571(2) 0.22095(19) 0.66406(19)
H85 H 0.4923 0.3547 0.5811
H86 H 0.5479 0.4524 0.4893
H87 H 0.6875 0.4453 0.4470
H88 H 0.7710 0.3388 0.4959
H89 H 0.7140 0.2425 0.5870
H90 H 0.5115 0.0664 0.6066
H91 H 0.5813 -0.0584 0.5946
H92 H 0.7178 -0.0738 0.6346
H93 H 0.7815 0.0381 0.6919
H94 H 0.7112 0.1616 0.7054
H95 H 0.5566 0.1504 0.8138
H96 H 0.5891 0.1972 0.9377
H97 H 0.6300 0.3328 0.9529
H98 H 0.6394 0.4210 0.8427
H99 H 0.6056 0.3759 0.7190
H100 H 0.4153 0.2270 0.7688
H101 H 0.2714 0.2201 0.7528
H102 H 0.2211 0.2005 0.6310
H103 H 0.3149 0.1859 0.5235
H104 H 0.4559 0.1955 0.5392
loop_
_geom_bond_atom_site_label_1
_geom_bond_atom_site_label_2
_geom_bond_site_symmetry_1
_geom_bond_site_symmetry_2
Fe1 O1 1_555 1_555
Fe2 O3 1_555 1_555
O1 C2 1_555 1_555
O2 Fe1 1_555 1_555
O3 C24 1_555 1_555
O4 Fe2 1_555 1_555
O5 C93 1_555 1_555
N1 Fe1 1_555 1_555
N2 Fe1 1_555 1_555
N3 Fe1 1_555 1_555
N4 C13 1_555 1_555
N5 C19 1_555 1_555
N6 Fe2 1_555 1_555
N7 Fe2 1_555 1_555
N8 Fe2 1_555 1_555
N9 C35 1_555 1_555
N10 C35 1_555 1_555
N11 C41 1_555 1_555
N12 Fe1 1_555 1_555
C1 C2 1_555 1_555
C2 C3 1_555 1_555
C3 C4 1_555 1_555
C4 N1 1_555 1_555
C5 C4 1_555 1_555
C6 N1 1_555 1_555
C7 N2 1_555 1_555
C8 C9 1_555 1_555
C9 N2 1_555 1_555
C10 C9 1_555 1_555
C11 O2 1_555 1_555
C12 C11 1_555 1_555
C13 N3 1_555 1_555
C14 N3 1_555 1_555
C15 N4 1_555 1_555
C16 N4 1_555 1_555
C17 C16 1_555 1_555
C18 C17 1_555 1_555
C19 C18 1_555 1_555
C20 N5 1_555 1_555
C21 N5 1_555 1_555
C22 N6 1_555 1_555
C23 C24 1_555 1_555
C24 C25 1_555 1_555
C25 C26 1_555 1_555
C26 N7 1_555 1_555
C27 C26 1_555 1_555
C28 N7 1_555 1_555
C29 N8 1_555 1_555
C30 C31 1_555 1_555
C31 N8 1_555 1_555
C32 C31 1_555 1_555
C33 O4 1_555 1_555
C34 C33 1_555 1_555
C35 H51 1_555 1_555
C36 N9 1_555 1_555
C37 N10 1_555 1_555
C38 N10 1_555 1_555
C39 C38 1_555 1_555
C40 C39 1_555 1_555
C41 C40 1_555 1_555
C42 N11 1_555 1_555
C43 N11 1_555 1_555
C44 N12 1_555 1_555
C45 C46 1_555 1_555
C46 C47 1_555 1_555
C47 C48 1_555 1_555
C48 C49 1_555 1_555
C49 C50 1_555 1_555
C50 C45 1_555 1_555
C51 C52 1_555 1_555
C52 C53 1_555 1_555
C53 C54 1_555 1_555
C54 C55 1_555 1_555
C55 C56 1_555 1_555
C56 C51 1_555 1_555
C57 C58 1_555 1_555
C58 C59 1_555 1_555
C59 C60 1_555 1_555
C60 C61 1_555 1_555
C61 C62 1_555 1_555
C62 C57 1_555 1_555
C63 C64 1_555 1_555
C64 C65 1_555 1_555
C65 C66 1_555 1_555
C66 C67 1_555 1_555
C67 C68 1_555 1_555
C68 C63 1_555 1_555
C69 C70 1_555 1_555
C70 C71 1_555 1_555
C71 C72 1_555 1_555
C72 C73 1_555 1_555
C73 C74 1_555 1_555
C74 C69 1_555 1_555
C75 C76 1_555 1_555
C76 C77 1_555 1_555
C77 C78 1_555 1_555
C78 C79 1_555 1_555
C79 C80 1_555 1_555
C80 C75 1_555 1_555
C81 C82 1_555 1_555
C82 C83 1_555 1_555
C83 C84 1_555 1_555
C84 C85 1_555 1_555
C85 C86 1_555 1_555
C86 C81 1_555 1_555
C87 C88 1_555 1_555
C88 C89 1_555 1_555
C89 C90 1_555 1_555
C90 C91 1_555 1_555
C91 C92 1_555 1_555
C92 C87 1_555 1_555
C93 H105 1_555 1_555
B1 C45 1_555 1_555
B2 C69 1_555 1_555
H1 C1 1_555 1_555
H2 C1 1_555 1_555
H3 C1 1_555 1_555
H4 C3 1_555 1_555
H5 C5 1_555 1_555
H6 C5 1_555 1_555
H7 C5 1_555 1_555
H8 C6 1_555 1_555
H9 C6 1_555 1_555
H10 C7 1_555 1_555
H11 C7 1_555 1_555
H12 C8 1_555 1_555
H13 C8 1_555 1_555
H14 C8 1_555 1_555
H15 C10 1_555 1_555
H16 C12 1_555 1_555
H17 C12 1_555 1_555
H18 C12 1_555 1_555
H19 C13 1_555 1_555
H20 C14 1_555 1_555
H21 C15 1_555 1_555
H22 C16 1_555 1_555
H23 C16 1_555 1_555
H24 C17 1_555 1_555
H25 C17 1_555 1_555
H26 C18 1_555 1_555
H27 C18 1_555 1_555
H28 C19 1_555 1_555
H29 C19 1_555 1_555
H30 C20 1_555 1_555
H31 C21 1_555 1_555
H32 C22 1_555 1_555
H33 C23 1_555 1_555
H34 C23 1_555 1_555
H35 C23 1_555 1_555
H36 C25 1_555 1_555
H37 C27 1_555 1_555
H38 C27 1_555 1_555
H39 C27 1_555 1_555
H40 C28 1_555 1_555
H41 C28 1_555 1_555
H42 C29 1_555 1_555
H43 C29 1_555 1_555
H44 C30 1_555 1_555
H45 C30 1_555 1_555
H46 C30 1_555 1_555
H47 C32 1_555 1_555
H48 C34 1_555 1_555
H49 C34 1_555 1_555
H50 C34 1_555 1_555
H52 C36 1_555 1_555
H53 C37 1_555 1_555
H54 C38 1_555 1_555
H55 C38 1_555 1_555
H56 C39 1_555 1_555
H57 C39 1_555 1_555
H58 C40 1_555 1_555
H59 C40 1_555 1_555
H60 C41 1_555 1_555
H61 C41 1_555 1_555
H62 C42 1_555 1_555
H63 C43 1_555 1_555
H64 C44 1_555 1_555
H65 C46 1_555 1_555
H66 C47 1_555 1_555
H67 C48 1_555 1_555
H68 C49 1_555 1_555
H69 C50 1_555 1_555
H70 C52 1_555 1_555
H71 C53 1_555 1_555
H72 C54 1_555 1_555
H73 C55 1_555 1_555
H74 C56 1_555 1_555
H75 C58 1_555 1_555
H76 C59 1_555 1_555
H77 C60 1_555 1_555
H78 C61 1_555 1_555
H79 C62 1_555 1_555
H80 C64 1_555 1_555
H81 C65 1_555 1_555
H82 C66 1_555 1_555
H83 C67 1_555 1_555
H84 C68 1_555 1_555
H85 C70 1_555 1_555
H86 C71 1_555 1_555
H87 C72 1_555 1_555
H88 C73 1_555 1_555
H89 C74 1_555 1_555
H90 C76 1_555 1_555
H91 C77 1_555 1_555
H92 C78 1_555 1_555
H93 C79 1_555 1_555
H94 C80 1_555 1_555
H95 C82 1_555 1_555
H96 C83 1_555 1_555
H97 C84 1_555 1_555
H98 C85 1_555 1_555
H99 C86 1_555 1_555
H100 C88 1_555 1_555
H101 C89 1_555 1_555
H102 C90 1_555 1_555
H103 C91 1_555 1_555
H104 C92 1_555 1_555
H106 C93 1_555 1_555
H107 C93 1_555 1_555
Fe2_2 N9 1_555 1_555
N9_2 Fe2 1_555 1_555
N6 C20 1_555 1_555
N12 C42 1_555 1_555
C6 C7 1_555 1_555
C10 C11 1_555 1_555
C14 C15 1_555 1_555
C21 C22 1_555 1_555
C28 C29 1_555 1_555
C32 C33 1_555 1_555
C36 C37 1_555 1_555
C43 C44 1_555 1_555
C51 B1 1_555 1_555
C57 B1 1_555 1_555
C63 B1 1_555 1_555
C75 B2 1_555 1_555
C81 B2 1_555 1_555
C87 B2 1_555 1_555

#END
