
#######################################################################
#
#                 Cambridge Crystallographic Data Centre
#                                CCDC 
#
#######################################################################
#
# If this CIF has been generated from an entry in the Cambridge 
# Structural Database, then it will include bibliographic, chemical, 
# crystal, experimental, refinement or atomic coordinate data resulting 
# from the CCDC's data processing and validation procedures.
#
#######################################################################

data_SOSZUX
_symmetry_cell_setting           orthorhombic
_symmetry_space_group_name_H-M   'P b c a'
_symmetry_Int_Tables_number      61
_space_group_name_Hall           '-P 2ac 2ab'
loop_
_symmetry_equiv_pos_site_id
_symmetry_equiv_pos_as_xyz
1 x,y,z
2 1/2-x,-y,1/2+z
3 1/2+x,1/2-y,-z
4 -x,1/2+y,1/2-z
5 -x,-y,-z
6 1/2+x,y,1/2-z
7 1/2-x,1/2+y,z
8 x,1/2-y,1/2+z
_cell_length_a                   9.168(3)
_cell_length_b                   17.701(7)
_cell_length_c                   19.845(8)
_cell_angle_alpha                90
_cell_angle_beta                 90
_cell_angle_gamma                90
_cell_volume                     3220.5
loop_
_atom_site_label
_atom_site_type_symbol
_atom_site_fract_x
_atom_site_fract_y
_atom_site_fract_z
Zn1 Zn 0.5000 0.0000 0.5000
O1 O 0.59063(14) 0.07370(7) 0.56391(8)
N1 N 0.3237(2) 0.08745(10) 0.50808(9)
C1 C 0.1420(3) 0.03160(15) 0.43413(16)
H1 H 0.1892 0.0408 0.3906
H2 H 0.0358 0.0340 0.4286
H3 H 0.1695 -0.0185 0.4508
N2 N 0.9400(3) 0.25761(16) 0.67562(13)
C2 C 0.1898(2) 0.09048(12) 0.48358(12)
N3 N 0.1120(2) 0.43905(10) 0.58811(10)
C3 C 0.0926(3) 0.14857(13) 0.50240(12)
H4 H -0.0053 0.1476 0.4868
C4 C 0.1382(2) 0.20586(12) 0.54272(12)
H5 H 0.0728 0.2454 0.5543
C5 C 0.2831(2) 0.20682(11) 0.56752(10)
C6 C 0.3709(2) 0.14370(11) 0.55133(10)
C7 C 0.5147(2) 0.13373(11) 0.57921(10)
C8 C 0.5684(2) 0.19092(11) 0.62084(11)
C9 C 0.4803(2) 0.25386(12) 0.63533(11)
H6 H 0.5191 0.2916 0.6643
C10 C 0.3413(2) 0.26447(11) 0.61034(11)
C11 C 0.7182(2) 0.18817(12) 0.64832(11)
C12 C 0.7819(3) 0.12315(14) 0.67403(13)
H7 H 0.7295 0.0769 0.6741
C13 C 0.9221(3) 0.12623(19) 0.69956(15)
H8 H 0.9672 0.0821 0.7170
C14 C 0.9950(3) 0.1933(2) 0.69935(16)
H9 H 1.0910 0.1943 0.7173
C15 C 0.8042(3) 0.25284(15) 0.65028(13)
H10 H 0.7634 0.2977 0.6321
C16 C 0.2609(2) 0.33509(11) 0.62653(11)
C17 C 0.2592(3) 0.36497(13) 0.69096(13)
H11 H 0.3100 0.3404 0.7264
C18 C 0.1831(3) 0.43076(15) 0.70326(14)
H12 H 0.1813 0.4520 0.7472
C19 C 0.1098(3) 0.46545(14) 0.65116(13)
H13 H 0.0556 0.5100 0.6605
C20 C 0.1879(2) 0.37548(11) 0.57700(11)
H14 H 0.1920 0.3568 0.5322
O1D O 0.40937(14) -0.07370(7) 0.43609(8)
N1D N 0.6763(2) -0.08745(10) 0.49192(9)
C1D C 0.8580(3) -0.03160(15) 0.56587(16)
H1D H 0.8108 -0.0408 0.6094
H2D H 0.9642 -0.0340 0.5714
H3D H 0.8305 0.0185 0.5492
N2D N 0.0600(3) -0.25761(16) 0.32438(13)
C2D C 0.8102(2) -0.09048(12) 0.51642(12)
N3D N 0.8880(2) -0.43905(10) 0.41189(10)
C3D C 0.9074(3) -0.14857(13) 0.49760(12)
H4D H 1.0053 -0.1476 0.5132
C4D C 0.8618(2) -0.20586(12) 0.45728(12)
H5D H 0.9272 -0.2454 0.4457
C5D C 0.7169(2) -0.20682(11) 0.43248(10)
C6D C 0.6291(2) -0.14370(11) 0.44867(10)
C7D C 0.4853(2) -0.13373(11) 0.42079(10)
C8D C 0.4316(2) -0.19092(11) 0.37916(11)
C9D C 0.5197(2) -0.25386(12) 0.36467(11)
H6D H 0.4809 -0.2916 0.3357
C10D C 0.6587(2) -0.26447(11) 0.38966(11)
C11D C 0.2818(2) -0.18817(12) 0.35168(11)
C12D C 0.2181(3) -0.12315(14) 0.32597(13)
H7D H 0.2705 -0.0769 0.3259
C13D C 0.0779(3) -0.12623(19) 0.30044(15)
H8D H 0.0328 -0.0821 0.2830
C14D C 0.0050(3) -0.1933(2) 0.30065(16)
H9D H -0.0910 -0.1943 0.2827
C15D C 0.1958(3) -0.25284(15) 0.34972(13)
H10D H 0.2366 -0.2977 0.3679
C16D C 0.7391(2) -0.33509(11) 0.37347(11)
C17D C 0.7408(3) -0.36497(13) 0.30904(13)
H11D H 0.6900 -0.3404 0.2736
C18D C 0.8169(3) -0.43076(15) 0.29674(14)
H12D H 0.8187 -0.4520 0.2528
C19D C 0.8902(3) -0.46545(14) 0.34884(13)
H13D H 0.9444 -0.5100 0.3395
C20D C 0.8121(2) -0.37548(11) 0.42300(11)
H14D H 0.8080 -0.3568 0.4678
Zn1B Zn 0.0000 0.5000 0.5000
Zn1B_2 Zn 1.0000 -0.5000 0.5000
N3B N 0.6120(2) 0.06095(10) 0.41189(10)
N3F N 0.3880(2) -0.06095(10) 0.58811(10)
loop_
_geom_bond_atom_site_label_1
_geom_bond_atom_site_label_2
_geom_bond_site_symmetry_1
_geom_bond_site_symmetry_2
Zn1 O1 1_555 1_555
O1 C7 1_555 1_555
N1 Zn1 1_555 1_555
C1 H1 1_555 1_555
H2 C1 1_555 1_555
H3 C1 1_555 1_555
N2 C14 1_555 1_555
C2 N1 1_555 1_555
N3 C19 1_555 1_555
C3 C2 1_555 1_555
H4 C3 1_555 1_555
C4 C3 1_555 1_555
H5 C4 1_555 1_555
C5 C4 1_555 1_555
C6 N1 1_555 1_555
C7 C6 1_555 1_555
C8 C7 1_555 1_555
C9 C8 1_555 1_555
H6 C9 1_555 1_555
C10 C5 1_555 1_555
C11 C8 1_555 1_555
C12 C11 1_555 1_555
H7 C12 1_555 1_555
C13 C12 1_555 1_555
H8 C13 1_555 1_555
C14 C13 1_555 1_555
H9 C14 1_555 1_555
C15 N2 1_555 1_555
H10 C15 1_555 1_555
C16 C10 1_555 1_555
C17 C16 1_555 1_555
H11 C17 1_555 1_555
C18 C17 1_555 1_555
H12 C18 1_555 1_555
C19 C18 1_555 1_555
H13 C19 1_555 1_555
C20 N3 1_555 1_555
H14 C20 1_555 1_555
O1D Zn1 1_555 1_555
N1D Zn1 1_555 1_555
C1D H1D 1_555 1_555
H2D C1D 1_555 1_555
H3D C1D 1_555 1_555
N2D C14D 1_555 1_555
C2D N1D 1_555 1_555
N3D C19D 1_555 1_555
C3D C2D 1_555 1_555
H4D C3D 1_555 1_555
C4D C3D 1_555 1_555
H5D C4D 1_555 1_555
C5D C4D 1_555 1_555
C6D N1D 1_555 1_555
C7D O1D 1_555 1_555
C8D C7D 1_555 1_555
C9D C8D 1_555 1_555
H6D C9D 1_555 1_555
C10D C5D 1_555 1_555
C11D C8D 1_555 1_555
C12D C11D 1_555 1_555
H7D C12D 1_555 1_555
C13D C12D 1_555 1_555
H8D C13D 1_555 1_555
C14D C13D 1_555 1_555
H9D C14D 1_555 1_555
C15D N2D 1_555 1_555
H10D C15D 1_555 1_555
C16D C10D 1_555 1_555
C17D C16D 1_555 1_555
H11D C17D 1_555 1_555
C18D C17D 1_555 1_555
H12D C18D 1_555 1_555
C19D C18D 1_555 1_555
H13D C19D 1_555 1_555
C20D N3D 1_555 1_555
H14D C20D 1_555 1_555
Zn1B N3 1_555 1_555
Zn1B_2 N3D 1_555 1_555
N3B Zn1 1_555 1_555
N3F Zn1 1_555 1_555
C1 C2 1_555 1_555
C5 C6 1_555 1_555
C9 C10 1_555 1_555
C11 C15 1_555 1_555
C16 C20 1_555 1_555
C1D C2D 1_555 1_555
C5D C6D 1_555 1_555
C6D C7D 1_555 1_555
C9D C10D 1_555 1_555
C11D C15D 1_555 1_555
C16D C20D 1_555 1_555

#END
