
#######################################################################
#
#                 Cambridge Crystallographic Data Centre
#                                CCDC 
#
#######################################################################
#
# If this CIF has been generated from an entry in the Cambridge 
# Structural Database, then it will include bibliographic, chemical, 
# crystal, experimental, refinement or atomic coordinate data resulting 
# from the CCDC's data processing and validation procedures.
#
#######################################################################

data_SOTMUK02
_symmetry_cell_setting           orthorhombic
_symmetry_space_group_name_H-M   'I b a 2'
_symmetry_Int_Tables_number      45
_space_group_name_Hall           'I 2 -2c'
loop_
_symmetry_equiv_pos_site_id
_symmetry_equiv_pos_as_xyz
1 x,y,z
2 -x,-y,z
3 -x,y,1/2+z
4 x,-y,1/2+z
5 1/2+x,1/2+y,1/2+z
6 1/2-x,1/2-y,1/2+z
7 1/2-x,1/2+y,z
8 1/2+x,1/2-y,z
_cell_length_a                   12.5026(10)
_cell_length_b                   7.6026(6)
_cell_length_c                   18.8981(17)
_cell_angle_alpha                90
_cell_angle_beta                 90
_cell_angle_gamma                90
_cell_volume                     1796.31
loop_
_atom_site_label
_atom_site_type_symbol
_atom_site_fract_x
_atom_site_fract_y
_atom_site_fract_z
N1 N 1.0000 0.0000 0.3046(5)
C1 C 1.0486(6) 0.1133(9) 0.2568(4)
N2 N 1.0327(4) 0.0737(8) 0.1915(3)
Ag1 Ag 1.08035(3) 0.18681(6) 0.08183(3)
Ag2 Ag 1.0000 0.0000 -0.08147(5)
N3 N 0.7381(4) 0.2428(7) 0.0460(3)
N4 N 0.9129(4) 0.2149(8) 0.0443(4)
N5 N 0.8747(4) 0.1392(7) -0.0168(3)
C2 C 1.1095(9) 0.2677(11) 0.2827(5)
H1 H 1.1018 0.3630 0.2498
H2 H 1.1837 0.2372 0.2870
H3 H 1.0823 0.3028 0.3280
C3 C 0.6942(5) 0.0958(9) -0.0690(5)
H4 H 0.7336 0.0331 -0.1045
H5 H 0.6585 0.1944 -0.0902
H6 H 0.6421 0.0189 -0.0481
C4 C 0.8387(6) 0.3685(9) 0.1486(4)
H7 H 0.8379 0.2836 0.1861
H8 H 0.7796 0.4479 0.1541
H9 H 0.9045 0.4335 0.1501
C5 C 0.8299(5) 0.2772(6) 0.0798(5)
C6 C 0.7686(5) 0.1592(8) -0.0135(4)
N1B N 1.0000 0.0000 -0.1954(5)
C1A C 0.9514(6) -0.1133(9) 0.2568(4)
N2A N 0.9673(4) -0.0737(8) 0.1915(3)
Ag1A Ag 0.91965(3) -0.18681(6) 0.08183(3)
Ag1F Ag 1.41965(3) -0.31319(6) 0.08183(3)
Ag1G Ag 0.58035(3) 0.31319(6) 0.08183(3)
Ag2B Ag 1.0000 0.0000 0.41853(5)
N3A N 1.2619(4) -0.2428(7) 0.0460(3)
N3F N 0.7619(4) -0.2572(7) 0.0460(3)
N3G N 1.2381(4) 0.2572(7) 0.0460(3)
N4A N 1.0871(4) -0.2149(8) 0.0443(4)
N5A N 1.1253(4) -0.1392(7) -0.0168(3)
C2A C 0.8905(9) -0.2677(11) 0.2827(5)
H1A H 0.8982 -0.3630 0.2498
H2A H 0.8163 -0.2372 0.2870
H3A H 0.9177 -0.3028 0.3280
C3A C 1.3058(5) -0.0958(9) -0.0690(5)
H4A H 1.2664 -0.0331 -0.1045
H5A H 1.3415 -0.1944 -0.0902
H6A H 1.3579 -0.0189 -0.0481
C4A C 1.1613(6) -0.3685(9) 0.1486(4)
H7A H 1.1621 -0.2836 0.1861
H8A H 1.2204 -0.4479 0.1541
H9A H 1.0955 -0.4335 0.1501
C5A C 1.1701(5) -0.2772(6) 0.0798(5)
C6A C 1.2314(5) -0.1592(8) -0.0135(4)
loop_
_geom_bond_atom_site_label_1
_geom_bond_atom_site_label_2
_geom_bond_site_symmetry_1
_geom_bond_site_symmetry_2
N1 C1 1_555 1_555
C1 N2 1_555 1_555
N2 Ag1 1_555 1_555
Ag1 N4 1_555 1_555
Ag2 N5 1_555 1_555
N3 C5 1_555 1_555
N4 N5 1_555 1_555
N5 C6 1_555 1_555
C2 C1 1_555 1_555
H1 C2 1_555 1_555
H2 C2 1_555 1_555
H3 C2 1_555 1_555
C3 H4 1_555 1_555
H5 C3 1_555 1_555
H6 C3 1_555 1_555
C4 H7 1_555 1_555
H8 C4 1_555 1_555
H9 C4 1_555 1_555
C5 N4 1_555 1_555
C6 N3 1_555 1_555
N1B Ag2 1_555 1_555
C1A N1 1_555 1_555
N2A N2 1_555 1_555
Ag1A N2A 1_555 1_555
Ag1F N3A 1_555 1_555
Ag1G N3 1_555 1_555
Ag2B N1 1_555 1_555
N3A C5A 1_555 1_555
N3F Ag1A 1_555 1_555
N3G Ag1 1_555 1_555
N4A Ag1A 1_555 1_555
N5A Ag2 1_555 1_555
C2A C1A 1_555 1_555
H1A C2A 1_555 1_555
H2A C2A 1_555 1_555
H3A C2A 1_555 1_555
C3A H4A 1_555 1_555
H5A C3A 1_555 1_555
H6A C3A 1_555 1_555
C4A H7A 1_555 1_555
H8A C4A 1_555 1_555
H9A C4A 1_555 1_555
C5A N4A 1_555 1_555
C6A N3A 1_555 1_555
C3 C6 1_555 1_555
C4 C5 1_555 1_555
C1A N2A 1_555 1_555
N4A N5A 1_555 1_555
N5A C6A 1_555 1_555
C3A C6A 1_555 1_555
C4A C5A 1_555 1_555

#END
