
#######################################################################
#
#                 Cambridge Crystallographic Data Centre
#                                CCDC 
#
#######################################################################
#
# If this CIF has been generated from an entry in the Cambridge 
# Structural Database, then it will include bibliographic, chemical, 
# crystal, experimental, refinement or atomic coordinate data resulting 
# from the CCDC's data processing and validation procedures.
#
#######################################################################

data_SOTNAR
_symmetry_cell_setting           monoclinic
_symmetry_space_group_name_H-M   'P 21/c'
_symmetry_Int_Tables_number      14
_space_group_name_Hall           '-P 2ybc'
loop_
_symmetry_equiv_pos_site_id
_symmetry_equiv_pos_as_xyz
1 x,y,z
2 -x,1/2+y,1/2-z
3 -x,-y,-z
4 x,1/2-y,1/2+z
_cell_length_a                   7.1761(8)
_cell_length_b                   26.677(3)
_cell_length_c                   8.8436(10)
_cell_angle_alpha                90
_cell_angle_beta                 108.922(1)
_cell_angle_gamma                90
_cell_volume                     1601.5
loop_
_atom_site_label
_atom_site_type_symbol
_atom_site_fract_x
_atom_site_fract_y
_atom_site_fract_z
Cd1 Cd 0.39361(3) 0.370680(8) 0.94172(3)
O1 O 0.1879(4) 0.30247(8) 0.8335(3)
O2 O -0.1499(4) 0.44865(9) 0.6379(3)
N1 N -0.3758(4) 0.19475(11) 0.5352(4)
N2 N -0.0474(4) 0.36009(10) 0.7401(4)
H1 H -0.1667 0.3664 0.6819
N3 N 0.0756(4) 0.39926(9) 0.8188(3)
N4 N 0.3671(4) 0.56920(10) 0.9586(3)
N5 N 0.4312(6) 0.38189(12) 0.6914(4)
N6 N 0.2257(8) 0.3743(2) 0.4128(5)
N7 N 0.3259(6) 0.36572(12) 0.1808(4)
C1 C -0.3234(6) 0.27802(15) 0.6376(6)
H2 H -0.3775 0.3078 0.6586
C2 C -0.4434(7) 0.23816(16) 0.5701(6)
H3 H -0.5785 0.2418 0.5477
C3 C -0.1838(6) 0.19031(13) 0.5735(5)
H4 H -0.1331 0.1598 0.5536
C4 C -0.0533(6) 0.22814(13) 0.6412(5)
H5 H 0.0814 0.2231 0.6649
C5 C -0.1234(5) 0.27335(12) 0.6735(4)
C6 C 0.0178(5) 0.31360(11) 0.7543(4)
C7 C 0.0052(5) 0.44282(11) 0.7529(4)
C8 C 0.1299(5) 0.48712(11) 0.8271(4)
C9 C 0.2220(5) 0.49157(11) 0.9913(4)
H6 H 0.2065 0.4667 1.0600
C10 C 0.3360(5) 0.53294(11) 1.0511(4)
H7 H 0.3942 0.5357 1.1612
C11 C 0.2767(5) 0.56493(13) 0.8001(4)
H8 H 0.2975 0.5898 0.7337
C12 C 0.1555(6) 0.52568(13) 0.7317(4)
H9 H 0.0910 0.5250 0.6219
C13 C 0.3438(7) 0.37958(17) 0.5595(5)
C14 C 0.2909(7) 0.37147(16) 0.2947(5)
Cd1C Cd -0.60639(3) 0.129320(8) 0.44172(3)
Cd1B Cd 0.60639(3) 0.629320(8) 1.05828(3)
Cd1_2 Cd 0.39361(3) 0.370680(8) -0.05828(3)
N1C N 0.6242(4) 0.30525(11) 1.0352(4)
N4B N 0.6329(4) 0.43080(10) 1.0414(3)
N7_2 N 0.3259(6) 0.36572(12) 1.1808(4)
O3 O 0.5456(12) 0.5230(3) 0.5797(9)
loop_
_geom_bond_atom_site_label_1
_geom_bond_atom_site_label_2
_geom_bond_site_symmetry_1
_geom_bond_site_symmetry_2
Cd1 O1 1_555 1_555
O1 C6 1_555 1_555
O2 C7 1_555 1_555
N1 C2 1_555 1_555
N2 H1 1_555 1_555
N3 Cd1 1_555 1_555
N4 C10 1_555 1_555
N5 Cd1 1_555 1_555
N6 C13 1_555 1_555
N7 C14 1_555 1_555
C1 H2 1_555 1_555
C2 C1 1_555 1_555
H3 C2 1_555 1_555
C3 N1 1_555 1_555
H4 C3 1_555 1_555
C4 C3 1_555 1_555
H5 C4 1_555 1_555
C5 C1 1_555 1_555
C6 N2 1_555 1_555
C7 N3 1_555 1_555
C8 C7 1_555 1_555
C9 C8 1_555 1_555
H6 C9 1_555 1_555
C10 C9 1_555 1_555
H7 C10 1_555 1_555
C11 N4 1_555 1_555
H8 C11 1_555 1_555
C12 C8 1_555 1_555
H9 C12 1_555 1_555
C13 N5 1_555 1_555
C14 N6 1_555 1_555
Cd1C N1 1_555 1_555
Cd1B N4 1_555 1_555
Cd1_2 N7 1_555 1_555
N1C Cd1 1_555 1_555
N4B Cd1 1_555 1_555
N7_2 Cd1 1_555 1_555
N2 N3 1_555 1_555
C4 C5 1_555 1_555
C5 C6 1_555 1_555
C11 C12 1_555 1_555

#END
