
#######################################################################
#
#                 Cambridge Crystallographic Data Centre
#                                CCDC 
#
#######################################################################
#
# If this CIF has been generated from an entry in the Cambridge 
# Structural Database, then it will include bibliographic, chemical, 
# crystal, experimental, refinement or atomic coordinate data resulting 
# from the CCDC's data processing and validation procedures.
#
#######################################################################

data_SOTPAT
_symmetry_cell_setting           monoclinic
_symmetry_space_group_name_H-M   'P 21/c'
_symmetry_Int_Tables_number      14
_space_group_name_Hall           '-P 2ybc'
loop_
_symmetry_equiv_pos_site_id
_symmetry_equiv_pos_as_xyz
1 x,y,z
2 -x,1/2+y,1/2-z
3 -x,-y,-z
4 x,1/2-y,1/2+z
_cell_length_a                   10.849(2)
_cell_length_b                   11.440(2)
_cell_length_c                   13.868(3)
_cell_angle_alpha                90
_cell_angle_beta                 94.28(3)
_cell_angle_gamma                90
_cell_volume                     1716.39
loop_
_atom_site_label
_atom_site_type_symbol
_atom_site_fract_x
_atom_site_fract_y
_atom_site_fract_z
Cu1 Cu 0.44662(3) -0.00129(3) 0.20270(3)
Cu2 Cu 0.44116(3) 0.25219(3) 0.20258(3)
C1 C 0.2568(3) -0.1530(3) 0.0954(3)
H1 H 0.3226 -0.2014 0.0827
C2 C 0.1393(4) -0.1831(3) 0.0597(3)
H2 H 0.1257 -0.2504 0.0228
C3 C 0.0422(4) -0.1115(3) 0.0797(3)
H3 H -0.0380 -0.1303 0.0566
C4 C 0.0649(3) -0.0113(3) 0.1344(3)
H4 H 0.0002 0.0373 0.1490
C5 C 0.1852(3) 0.0153(2) 0.1669(2)
C6 C 0.2221(2) 0.1217(2) 0.2317(2)
C7 C 0.1800(2) 0.2409(2) 0.1886(2)
C8 C 0.0569(3) 0.2756(3) 0.1774(2)
H5 H -0.0057 0.2246 0.1922
C9 C 0.0289(3) 0.3879(3) 0.1438(3)
H6 H -0.0528 0.4126 0.1355
C10 C 0.1225(3) 0.4612(3) 0.1231(3)
H7 H 0.1050 0.5366 0.1011
C11 C 0.2433(3) 0.4227(3) 0.1350(2)
H8 H 0.3069 0.4728 0.1205
C12 C 0.2013(3) 0.1728(3) 0.3961(2)
H9 H 0.1550 0.1557 0.4508
H10 H 0.1906 0.2536 0.3788
H11 H 0.2873 0.1573 0.4124
N1 N 0.2790(2) -0.0552(2) 0.14836(18)
N2 N 0.2709(2) 0.3135(2) 0.16741(16)
N3 N 0.5735(2) 0.1307(2) 0.2213(2)
N4 N 0.6772(2) 0.1318(3) 0.1948(2)
N5 N 0.7752(3) 0.1316(4) 0.1738(4)
N6 N 0.5482(3) -0.1207(2) 0.1475(2)
N7 N 0.5692(3) -0.1268(2) 0.0647(2)
N8 N 0.5912(4) -0.1377(4) -0.0146(3)
N9 N 0.4668(3) -0.1132(2) 0.3397(2)
N10 N 0.3967(3) -0.1141(2) 0.4022(2)
N11 N 0.3282(4) -0.1095(4) 0.4610(3)
O1 O 0.34823(16) 0.12345(15) 0.25253(14)
O2 O 0.15800(19) 0.10103(19) 0.31634(15)
Cu2A Cu 0.55884(3) -0.24781(3) 0.29742(3)
N6A N 0.4518(3) 0.3793(2) 0.3525(2)
N9A N 0.5332(3) 0.3868(2) 0.1603(2)
loop_
_geom_bond_atom_site_label_1
_geom_bond_atom_site_label_2
_geom_bond_site_symmetry_1
_geom_bond_site_symmetry_2
Cu1 N1 1_555 1_555
Cu2 N2 1_555 1_555
C1 H1 1_555 1_555
C2 C1 1_555 1_555
H2 C2 1_555 1_555
C3 C2 1_555 1_555
H3 C3 1_555 1_555
C4 C3 1_555 1_555
H4 C4 1_555 1_555
C5 C4 1_555 1_555
C6 C5 1_555 1_555
C7 C6 1_555 1_555
C8 C7 1_555 1_555
H5 C8 1_555 1_555
C9 C8 1_555 1_555
H6 C9 1_555 1_555
C10 C9 1_555 1_555
H7 C10 1_555 1_555
C11 C10 1_555 1_555
H8 C11 1_555 1_555
C12 H9 1_555 1_555
H10 C12 1_555 1_555
H11 C12 1_555 1_555
N1 C1 1_555 1_555
N2 C7 1_555 1_555
N3 Cu1 1_555 1_555
N4 N3 1_555 1_555
N5 N4 1_555 1_555
N6 Cu1 1_555 1_555
N7 N6 1_555 1_555
N8 N7 1_555 1_555
N9 Cu1 1_555 1_555
N10 N9 1_555 1_555
N11 N10 1_555 1_555
O1 Cu1 1_555 1_555
O2 C6 1_555 1_555
Cu2A N6 1_555 1_555
N6A Cu2 1_555 1_555
N9A Cu2 1_555 1_555
Cu2 N3 1_555 1_555
Cu2 O1 1_555 1_555
C5 N1 1_555 1_555
C6 O1 1_555 1_555
C11 N2 1_555 1_555
C12 O2 1_555 1_555
N9 Cu2A 1_555 1_555

#END
