
#######################################################################
#
#                 Cambridge Crystallographic Data Centre
#                                CCDC 
#
#######################################################################
#
# If this CIF has been generated from an entry in the Cambridge 
# Structural Database, then it will include bibliographic, chemical, 
# crystal, experimental, refinement or atomic coordinate data resulting 
# from the CCDC's data processing and validation procedures.
#
#######################################################################

data_SOTRIE
_symmetry_cell_setting           monoclinic
_symmetry_space_group_name_H-M   'P 21'
_symmetry_Int_Tables_number      4
_space_group_name_Hall           'P 2yb'
loop_
_symmetry_equiv_pos_site_id
_symmetry_equiv_pos_as_xyz
1 x,y,z
2 -x,1/2+y,-z
_cell_length_a                   8.6750(10)
_cell_length_b                   14.879(2)
_cell_length_c                   8.956(2)
_cell_angle_alpha                90
_cell_angle_beta                 107.730(10)
_cell_angle_gamma                90
_cell_volume                     1101.09
loop_
_atom_site_label
_atom_site_type_symbol
_atom_site_fract_x
_atom_site_fract_y
_atom_site_fract_z
Te1 Te 0.66462(4) 0.46123(2) 0.90255(3)
K1 K 0.40806(10) 0.33524(6) 0.59445(10)
O1 O 0.0964(4) 0.3745(2) 0.6194(4)
O2 O 0.3248(4) 0.2741(2) 0.8541(4)
O3 O 0.5757(4) 0.1834(2) 0.7759(4)
O4 O 0.6717(4) 0.2597(3) 0.5251(4)
O5 O 0.4380(4) 0.3543(2) 0.2924(4)
O6 O 0.1914(4) 0.4478(3) 0.3669(3)
C1 C 0.7562(5) 0.5575(3) 0.7777(5)
C2 C 0.8924(5) 0.6091(3) 0.8512(5)
H1 H 0.9448 0.6008 0.9601
C3 C 0.9538(6) 0.6721(4) 0.7702(6)
H2 H 1.0460 0.7066 0.8240
C4 C 0.8810(7) 0.6847(4) 0.6115(6)
H3 H 0.9226 0.7276 0.5552
C5 C 0.7482(6) 0.6343(4) 0.5369(5)
H4 H 0.6977 0.6426 0.4277
C6 C 0.6853(5) 0.5712(3) 0.6169(5)
H5 H 0.5931 0.5370 0.5617
C7 C 0.0968(6) 0.3728(4) 0.7779(6)
H6 H -0.0143 0.3820 0.7835
H7 H 0.1666 0.4214 0.8377
C8 C 0.1601(6) 0.2828(4) 0.8465(6)
H8 H 0.1491 0.2772 0.9530
H9 H 0.0960 0.2342 0.7806
C9 C 0.3931(6) 0.1925(4) 0.9277(5)
H10 H 0.3335 0.1406 0.8684
H11 H 0.3851 0.1901 1.0356
C10 C 0.5664(6) 0.1887(4) 0.9322(5)
H12 H 0.6237 0.2431 0.9844
H13 H 0.6192 0.1355 0.9928
C11 C 0.7378(5) 0.1861(4) 0.7726(6)
H14 H 0.7999 0.1356 0.8343
H15 H 0.7896 0.2431 0.8193
C12 C 0.7377(6) 0.1794(4) 0.6048(6)
H16 H 0.8496 0.1708 0.6009
H17 H 0.6720 0.1271 0.5535
C13 C 0.6640(7) 0.2574(5) 0.3650(6)
H18 H 0.5910 0.2086 0.3105
H19 H 0.7730 0.2460 0.3552
C14 C 0.6022(6) 0.3454(4) 0.2937(6)
H20 H 0.6683 0.3948 0.3554
H21 H 0.6088 0.3486 0.1854
C15 C 0.3632(6) 0.4313(4) 0.2081(5)
H22 H 0.3668 0.4286 0.0987
H23 H 0.4198 0.4865 0.2579
C16 C 0.1915(6) 0.4320(4) 0.2106(5)
H24 H 0.1299 0.4798 0.1407
H25 H 0.1395 0.3735 0.1732
C17 C 0.0302(5) 0.4515(5) 0.3773(5)
H26 H -0.0298 0.3965 0.3310
H27 H -0.0274 0.5041 0.3187
C18 C 0.0387(6) 0.4587(5) 0.5468(5)
H28 H 0.1133 0.5077 0.5981
H29 H -0.0697 0.4719 0.5563
K1A K 0.59194(10) 0.83524(6) 0.40555(10)
C5A C 0.2518(6) 0.1343(4) 0.4631(5)
loop_
_geom_bond_atom_site_label_1
_geom_bond_atom_site_label_2
_geom_bond_site_symmetry_1
_geom_bond_site_symmetry_2
Te1 K1 1_555 1_555
K1 O1 1_555 1_555
O1 C7 1_555 1_555
O2 K1 1_555 1_555
O3 K1 1_555 1_555
O4 K1 1_555 1_555
O5 K1 1_555 1_555
O6 K1 1_555 1_555
C1 Te1 1_555 1_555
C2 C1 1_555 1_555
H1 C2 1_555 1_555
C3 C2 1_555 1_555
H2 C3 1_555 1_555
C4 C3 1_555 1_555
H3 C4 1_555 1_555
C5 C4 1_555 1_555
H4 C5 1_555 1_555
C6 C1 1_555 1_555
H5 C6 1_555 1_555
C7 H6 1_555 1_555
H7 C7 1_555 1_555
C8 O2 1_555 1_555
H8 C8 1_555 1_555
H9 C8 1_555 1_555
C9 O2 1_555 1_555
H10 C9 1_555 1_555
H11 C9 1_555 1_555
C10 O3 1_555 1_555
H12 C10 1_555 1_555
H13 C10 1_555 1_555
C11 O3 1_555 1_555
H14 C11 1_555 1_555
H15 C11 1_555 1_555
C12 O4 1_555 1_555
H16 C12 1_555 1_555
H17 C12 1_555 1_555
C13 O4 1_555 1_555
H18 C13 1_555 1_555
H19 C13 1_555 1_555
C14 O5 1_555 1_555
H20 C14 1_555 1_555
H21 C14 1_555 1_555
C15 O5 1_555 1_555
H22 C15 1_555 1_555
H23 C15 1_555 1_555
C16 O6 1_555 1_555
H24 C16 1_555 1_555
H25 C16 1_555 1_555
C17 O6 1_555 1_555
H26 C17 1_555 1_555
H27 C17 1_555 1_555
C18 O1 1_555 1_555
H28 C18 1_555 1_555
H29 C18 1_555 1_555
K1A C5 1_555 1_555
C5A K1 1_555 1_555
C5 C6 1_555 1_555
C7 C8 1_555 1_555
C9 C10 1_555 1_555
C11 C12 1_555 1_555
C13 C14 1_555 1_555
C15 C16 1_555 1_555
C17 C18 1_555 1_555

#END
