
#######################################################################
#
#                 Cambridge Crystallographic Data Centre
#                                CCDC 
#
#######################################################################
#
# If this CIF has been generated from an entry in the Cambridge 
# Structural Database, then it will include bibliographic, chemical, 
# crystal, experimental, refinement or atomic coordinate data resulting 
# from the CCDC's data processing and validation procedures.
#
#######################################################################

data_SOVDUD
_symmetry_cell_setting           orthorhombic
_symmetry_space_group_name_H-M   'P b c a'
_symmetry_Int_Tables_number      61
_space_group_name_Hall           '-P 2ac 2ab'
loop_
_symmetry_equiv_pos_site_id
_symmetry_equiv_pos_as_xyz
1 x,y,z
2 1/2-x,-y,1/2+z
3 1/2+x,1/2-y,-z
4 -x,1/2+y,1/2-z
5 -x,-y,-z
6 1/2+x,y,1/2-z
7 1/2-x,1/2+y,z
8 x,1/2-y,1/2+z
_cell_length_a                   13.0362(7)
_cell_length_b                   13.0775(7)
_cell_length_c                   14.9822(8)
_cell_angle_alpha                90
_cell_angle_beta                 90
_cell_angle_gamma                90
_cell_volume                     2554.18
loop_
_atom_site_label
_atom_site_type_symbol
_atom_site_fract_x
_atom_site_fract_y
_atom_site_fract_z
C1 C 0.1086(2) 0.1117(2) 0.65772(16)
H1 H 0.1766 0.0927 0.6494
C2 C -0.0105(2) 0.19730(18) 0.73343(17)
C3 C -0.08765(19) 0.16483(19) 0.67790(16)
C4 C -0.05965(19) 0.09905(18) 0.60700(15)
C5 C -0.15678(19) 0.2596(2) 0.77826(17)
H2 H -0.2048 0.2953 0.8120
C6 C -0.0041(2) 0.3117(2) 0.87083(18)
H3 H -0.0557 0.3383 0.9113
H4 H 0.0341 0.3693 0.8471
C7 C 0.0679(2) 0.2432(2) 0.92186(16)
H5 H 0.0481 0.1763 0.9341
C8 C 0.1616(2) 0.2766(2) 0.95077(18)
H6 H 0.1823 0.3433 0.9390
H7 H 0.2045 0.2327 0.9822
N1 N 0.04148(16) 0.07522(16) 0.59871(13)
N2 N 0.08952(16) 0.17218(16) 0.72727(14)
N3 N -0.12506(16) 0.05965(17) 0.54737(14)
H8 H -0.1027 0.0206 0.5055
H9 H -0.1894 0.0734 0.5509
N4 N -0.18050(16) 0.20476(16) 0.70660(15)
N5 N -0.05494(16) 0.25785(16) 0.79706(14)
O5 O 0.17738(17) 0.01556(17) 0.86315(16)
Cu1 Cu 0.17777(2) 0.19586(2) 0.83564(2)
H10 H 0.126(4) -0.014(4) 0.887(3)
H11 H 0.206(3) -0.012(3) 0.817(3)
N4E N 0.31950(16) 0.20476(16) 0.79340(15)
Cu1E Cu -0.32223(2) 0.19586(2) 0.66436(2)
O1 O -0.02612(19) -0.0882(2) 0.8585(2)
O2 O -0.16170(18) -0.05449(18) 0.75903(15)
O3 O -0.12306(18) 0.06174(16) 0.87546(16)
O4 O -0.1976(2) -0.09626(19) 0.90755(15)
Cl1 Cl -0.12644(5) -0.04377(5) 0.84999(4)
loop_
_geom_bond_atom_site_label_1
_geom_bond_atom_site_label_2
_geom_bond_site_symmetry_1
_geom_bond_site_symmetry_2
C1 H1 1_555 1_555
C2 C3 1_555 1_555
C3 C4 1_555 1_555
C4 N1 1_555 1_555
C5 H2 1_555 1_555
C6 H3 1_555 1_555
H4 C6 1_555 1_555
C7 C6 1_555 1_555
H5 C7 1_555 1_555
C8 C7 1_555 1_555
H6 C8 1_555 1_555
H7 C8 1_555 1_555
N1 C1 1_555 1_555
N2 C1 1_555 1_555
N3 C4 1_555 1_555
H8 N3 1_555 1_555
H9 N3 1_555 1_555
N4 C3 1_555 1_555
N5 C2 1_555 1_555
O1 Cl1 1_555 1_555
O2 Cl1 1_555 1_555
O3 Cl1 1_555 1_555
O4 Cl1 1_555 1_555
O5 Cu1 1_555 1_555
Cu1 C7 1_555 1_555
H10 O5 1_555 1_555
H11 O5 1_555 1_555
N4E Cu1 1_555 1_555
Cu1E N4 1_555 1_555
C2 N2 1_555 1_555
C5 N4 1_555 1_555
C5 N5 1_555 1_555
C6 N5 1_555 1_555
C8 Cu1 1_555 1_555
N2 Cu1 1_555 1_555

#END
