
#######################################################################
#
#                 Cambridge Crystallographic Data Centre
#                                CCDC 
#
#######################################################################
#
# If this CIF has been generated from an entry in the Cambridge 
# Structural Database, then it will include bibliographic, chemical, 
# crystal, experimental, refinement or atomic coordinate data resulting 
# from the CCDC's data processing and validation procedures.
#
#######################################################################

data_SOVKIY
_symmetry_cell_setting           monoclinic
_symmetry_space_group_name_H-M   'C 2/m'
_symmetry_Int_Tables_number      12
_space_group_name_Hall           '-C 2y'
loop_
_symmetry_equiv_pos_site_id
_symmetry_equiv_pos_as_xyz
1 x,y,z
2 -x,y,-z
3 1/2+x,1/2+y,z
4 1/2-x,1/2+y,-z
5 -x,-y,-z
6 x,-y,z
7 1/2-x,1/2-y,-z
8 1/2+x,1/2-y,z
_cell_length_a                   14.934(5)
_cell_length_b                   17.375(6)
_cell_length_c                   10.669(4)
_cell_angle_alpha                90
_cell_angle_beta                 119.154(3)
_cell_angle_gamma                90
_cell_volume                     2417.66
loop_
_atom_site_label
_atom_site_type_symbol
_atom_site_fract_x
_atom_site_fract_y
_atom_site_fract_z
Cd1 Cd 0.5000 -0.5000 0.0000
Cd2 Cd 0.104539(17) -0.5000 -0.03867(2)
C1 C -0.2210(2) -0.69168(17) -0.6905(3)
H1 H -0.2512 -0.6470 -0.7419
C2 C -0.2046(2) -0.82389(16) -0.6875(3)
H2 H -0.2221 -0.8706 -0.7364
C3 C -0.1513(2) -0.68631(15) -0.5472(3)
H3 H -0.1343 -0.6386 -0.5021
C4 C -0.1355(2) -0.82198(14) -0.5426(3)
H4 H -0.1082 -0.8677 -0.4932
C5 C -0.10654(19) -0.75264(15) -0.4704(3)
C6 C -0.03063(18) -0.75122(14) -0.3178(2)
H5 H -0.0034 -0.7983 -0.2744
C7 C 0.0028(2) -0.68951(15) -0.2362(3)
H6 H -0.0253 -0.6421 -0.2766
C8 C 0.08416(19) -0.69198(15) -0.0811(3)
C9 C -0.1376(2) -0.5000 -0.2849(3)
C10 C 0.3621(3) -0.5000 0.1721(3)
C11 C 0.2383(3) -0.5000 -0.2022(4)
N1 N -0.0740(2) -0.5000 -0.1646(3)
N2 N 0.3254(2) -0.5000 -0.1494(4)
N3 N 0.2749(2) -0.5000 0.1220(3)
N4 N -0.24627(17) -0.75863(12) -0.7572(2)
H7 H -0.2903 -0.7602 -0.8471
O1 O 0.11686(14) -0.75725(10) -0.02877(19)
O2 O 0.11503(15) -0.63137(10) -0.0154(2)
O3 O 0.5000 -0.36917(18) 0.0000
H8 H 0.538(3) -0.343(2) -0.016(4)
S1 S -0.22563(8) -0.5000 -0.45016(10)
S2 S 0.11163(7) -0.5000 -0.28341(9)
S3 S 0.48811(7) -0.5000 0.24711(11)
Cd1_2 Cd -0.5000 -0.5000 0.0000
Cd2A Cd -0.104539(17) -0.5000 0.03867(2)
C1E C -0.2210(2) -0.30832(17) -0.6905(3)
C1A C 0.2210(2) -0.69168(17) 0.6905(3)
C1D C 0.2210(2) -0.30832(17) 0.6905(3)
H1E H -0.2512 -0.3530 -0.7419
H1A H 0.2512 -0.6470 0.7419
H1D H 0.2512 -0.3530 0.7419
C2E C -0.2046(2) -0.17611(16) -0.6875(3)
C2A C 0.2046(2) -0.82389(16) 0.6875(3)
C2D C 0.2046(2) -0.17611(16) 0.6875(3)
H2E H -0.2221 -0.1294 -0.7364
H2A H 0.2221 -0.8706 0.7364
H2D H 0.2221 -0.1294 0.7364
C3E C -0.1513(2) -0.31369(15) -0.5472(3)
C3A C 0.1513(2) -0.68631(15) 0.5472(3)
C3D C 0.1513(2) -0.31369(15) 0.5472(3)
H3E H -0.1343 -0.3614 -0.5021
H3A H 0.1343 -0.6386 0.5021
H3D H 0.1343 -0.3614 0.5021
C4E C -0.1355(2) -0.17802(14) -0.5426(3)
C4A C 0.1355(2) -0.82198(14) 0.5426(3)
C4D C 0.1355(2) -0.17802(14) 0.5426(3)
H4E H -0.1082 -0.1323 -0.4932
H4A H 0.1082 -0.8677 0.4932
H4D H 0.1082 -0.1323 0.4932
C5E C -0.10654(19) -0.24736(15) -0.4704(3)
C5A C 0.10654(19) -0.75264(15) 0.4704(3)
C5D C 0.10654(19) -0.24736(15) 0.4704(3)
C6E C -0.03063(18) -0.24878(14) -0.3178(2)
C6A C 0.03063(18) -0.75122(14) 0.3178(2)
C6D C 0.03063(18) -0.24878(14) 0.3178(2)
H5E H -0.0034 -0.2017 -0.2744
H5A H 0.0034 -0.7983 0.2744
H5D H 0.0034 -0.2017 0.2744
C7E C 0.0028(2) -0.31049(15) -0.2362(3)
C7A C -0.0028(2) -0.68951(15) 0.2362(3)
C7D C -0.0028(2) -0.31049(15) 0.2362(3)
H6E H -0.0253 -0.3579 -0.2766
H6A H 0.0253 -0.6421 0.2766
H6D H 0.0253 -0.3579 0.2766
C8E C 0.08416(19) -0.30802(15) -0.0811(3)
C8A C -0.08416(19) -0.69198(15) 0.0811(3)
C8D C -0.08416(19) -0.30802(15) 0.0811(3)
C9A C 0.1376(2) -0.5000 0.2849(3)
C10A C -0.3621(3) -0.5000 -0.1721(3)
C11A C -0.2383(3) -0.5000 0.2022(4)
N1A N 0.0740(2) -0.5000 0.1646(3)
N2A N 0.6746(2) -0.5000 0.1494(4)
N2A_2 N -0.3254(2) -0.5000 0.1494(4)
N3A N -0.2749(2) -0.5000 -0.1220(3)
N4E N -0.24627(17) -0.24137(12) -0.7572(2)
N4A N 0.24627(17) -0.75863(12) 0.7572(2)
N4D N 0.24627(17) -0.24137(12) 0.7572(2)
H7E H -0.2903 -0.2398 -0.8471
H7A H 0.2903 -0.7602 0.8471
H7D H 0.2903 -0.2398 0.8471
O1E O 0.11686(14) -0.24275(10) -0.02877(19)
O1A O -0.11686(14) -0.75725(10) 0.02877(19)
O1D O -0.11686(14) -0.24275(10) 0.02877(19)
O2E O 0.11503(15) -0.36863(10) -0.0154(2)
O2A O -0.11503(15) -0.63137(10) 0.0154(2)
O2D O -0.11503(15) -0.36863(10) 0.0154(2)
O3D O 0.5000 -0.63083(18) 0.0000
H8A H 0.462(3) -0.343(2) 0.016(4)
H8D H 0.462(3) -0.657(2) 0.016(4)
H8E H 0.538(3) -0.657(2) -0.016(4)
S1A S 0.22563(8) -0.5000 0.45016(10)
S2A S -0.11163(7) -0.5000 0.28341(9)
S3A S 0.51189(7) -0.5000 -0.24711(11)
S3A_2 S -0.48811(7) -0.5000 -0.24711(11)
loop_
_geom_bond_atom_site_label_1
_geom_bond_atom_site_label_2
_geom_bond_site_symmetry_1
_geom_bond_site_symmetry_2
Cd1 N2 1_555 1_555
Cd2 N1 1_555 1_555
C1 H1 1_555 1_555
C2 H2 1_555 1_555
C3 C1 1_555 1_555
H3 C3 1_555 1_555
C4 C2 1_555 1_555
H4 C4 1_555 1_555
C5 C3 1_555 1_555
C6 C5 1_555 1_555
H5 C6 1_555 1_555
C7 C6 1_555 1_555
H6 C7 1_555 1_555
C8 C7 1_555 1_555
C9 N1 1_555 1_555
C10 N3 1_555 1_555
C11 N2 1_555 1_555
N1 Cd2A 1_555 1_555
N3 Cd2 1_555 1_555
N4 C1 1_555 1_555
H7 N4 1_555 1_555
O1 C8 1_555 1_555
O2 Cd2 1_555 1_555
O3 Cd1 1_555 1_555
H8 O3 1_555 1_555
S1 C9 1_555 1_555
S2 Cd2 1_555 1_555
S3 Cd1 1_555 1_555
Cd1_2 N2A_2 1_555 1_555
Cd2A N1A 1_555 1_555
C1E H1E 1_555 1_555
C1A H1A 1_555 1_555
C1D H1D 1_555 1_555
C2E H2E 1_555 1_555
C2A H2A 1_555 1_555
C2D H2D 1_555 1_555
C3E C1E 1_555 1_555
C3A C1A 1_555 1_555
C3D C1D 1_555 1_555
H3E C3E 1_555 1_555
H3A C3A 1_555 1_555
H3D C3D 1_555 1_555
C4E C2E 1_555 1_555
C4A C2A 1_555 1_555
C4D C2D 1_555 1_555
H4E C4E 1_555 1_555
H4A C4A 1_555 1_555
H4D C4D 1_555 1_555
C5E C3E 1_555 1_555
C5A C3A 1_555 1_555
C5D C3D 1_555 1_555
C6E C5E 1_555 1_555
C6A C5A 1_555 1_555
C6D C5D 1_555 1_555
H5E C6E 1_555 1_555
H5A C6A 1_555 1_555
H5D C6D 1_555 1_555
C7E C6E 1_555 1_555
C7A C6A 1_555 1_555
C7D C6D 1_555 1_555
H6E C7E 1_555 1_555
H6A C7A 1_555 1_555
H6D C7D 1_555 1_555
C8E C7E 1_555 1_555
C8A C7A 1_555 1_555
C8D C7D 1_555 1_555
C9A N1A 1_555 1_555
C10A N3A 1_555 1_555
C11A N2A_2 1_555 1_555
N1A Cd2 1_555 1_555
N2A Cd1 1_555 1_555
N3A Cd2A 1_555 1_555
N4E C1E 1_555 1_555
N4A C1A 1_555 1_555
N4D C1D 1_555 1_555
H7E N4E 1_555 1_555
H7A N4A 1_555 1_555
H7D N4D 1_555 1_555
O1E C8E 1_555 1_555
O1A C8A 1_555 1_555
O1D C8D 1_555 1_555
O2E Cd2 1_555 1_555
O2A Cd2A 1_555 1_555
O2D Cd2A 1_555 1_555
O3D Cd1 1_555 1_555
H8A O3 1_555 1_555
H8D O3D 1_555 1_555
H8E O3D 1_555 1_555
S1A C9A 1_555 1_555
S2A Cd2A 1_555 1_555
S3A Cd1 1_555 1_555
S3A_2 Cd1_2 1_555 1_555
C2 N4 1_555 1_555
C4 C5 1_555 1_555
C8 O2 1_555 1_555
C10 S3 1_555 1_555
C11 S2 1_555 1_555
C2E N4E 1_555 1_555
C2A N4A 1_555 1_555
C2D N4D 1_555 1_555
C4E C5E 1_555 1_555
C4A C5A 1_555 1_555
C4D C5D 1_555 1_555
C8E O2E 1_555 1_555
C8A O2A 1_555 1_555
C8D O2D 1_555 1_555
C10A S3A_2 1_555 1_555
C11A S2A 1_555 1_555

#END
