
#######################################################################
#
#                 Cambridge Crystallographic Data Centre
#                                CCDC 
#
#######################################################################
#
# If this CIF has been generated from an entry in the Cambridge 
# Structural Database, then it will include bibliographic, chemical, 
# crystal, experimental, refinement or atomic coordinate data resulting 
# from the CCDC's data processing and validation procedures.
#
#######################################################################

data_SOVMOG
_symmetry_cell_setting           triclinic
_symmetry_space_group_name_H-M   'P -1'
_symmetry_Int_Tables_number      2
_space_group_name_Hall           '-P 1'
loop_
_symmetry_equiv_pos_site_id
_symmetry_equiv_pos_as_xyz
1 x,y,z
2 -x,-y,-z
_cell_length_a                   9.636(3)
_cell_length_b                   10.002(3)
_cell_length_c                   12.571(4)
_cell_angle_alpha                102.087(6)
_cell_angle_beta                 90.381(7)
_cell_angle_gamma                98.204(6)
_cell_volume                     1171.76
loop_
_atom_site_label
_atom_site_type_symbol
_atom_site_fract_x
_atom_site_fract_y
_atom_site_fract_z
C1 C 0.2155(10) 0.0233(10) -1.2092(7)
H1 H 0.1951 -0.0720 -1.2076
C2 C 0.2037(11) 0.0594(10) -1.3077(8)
C3 C 0.2272(11) 0.2098(9) -1.3093(8)
C4 C 0.2729(11) 0.3051(11) -1.2092(7)
H2 H 0.2961 0.4008 -1.2087
C5 C 0.3875(11) 0.4371(11) -0.8355(8)
H3 H 0.4082 0.5284 -0.8476
C6 C 0.4053(11) 0.4136(10) -0.7304(8)
C7 C 0.3806(11) 0.2691(10) -0.7132(7)
C8 C 0.3283(11) 0.1637(10) -0.8049(8)
H4 H 0.3047 0.0718 -0.7948
C9 C 0.2645(11) 0.0855(10) -1.0053(8)
C10 C 0.2569(11) 0.1200(10) -1.1071(8)
C11 C 0.2836(11) 0.2596(9) -1.1137(7)
C12 C 0.3393(12) 0.3270(11) -0.9231(8)
C13 C 0.3096(11) 0.1888(11) -0.9105(8)
C14 C 0.2356(11) -0.0620(9) -0.9932(8)
C15 C 0.1169(12) -0.1055(11) -0.9404(8)
H5 H 0.0528 -0.0429 -0.9155
C16 C 0.0906(11) -0.2408(10) -0.9234(8)
H6 H 0.0079 -0.2700 -0.8887
C17 C 0.1874(10) -0.3348(10) -0.9581(8)
H7 H 0.1726 -0.4256 -0.9445
C18 C 0.3044(12) -0.2894(11) -1.0124(8)
H8 H 0.3680 -0.3522 -1.0378
C19 C 0.3323(12) -0.1558(10) -1.0311(8)
H9 H 0.4134 -0.1278 -1.0681
C20 C -0.0066(13) 0.3982(12) -0.7931(9)
H10 H -0.0652 0.3073 -0.8094
H11 H -0.0409 0.4580 -0.8367
H12 H 0.0907 0.3875 -0.8106
C21 C 0.0991(12) 0.6311(11) -0.6518(9)
H13 H 0.1076 0.6886 -0.5780
H14 H 0.1919 0.6104 -0.6753
H15 H 0.0602 0.6807 -0.7017
O1 O 0.3241(7) 0.3605(7) -1.0225(5)
O2 O 0.0651(8) 0.3889(7) -0.5948(6)
O3 O 0.1748(7) -0.0301(7) -1.4026(5)
O4 O -0.3330(8) 0.0156(7) -1.4200(6)
O5 O 0.2195(7) 0.2485(6) -1.4003(5)
O6 O 0.3088(8) 0.7512(7) -0.4132(6)
O7 O 0.4492(7) 0.5139(7) -0.6502(5)
O8 O 0.3995(8) 0.2454(7) -0.6167(5)
S1 S -0.0145(3) 0.4737(3) -0.6526(2)
K1 K 0.3123(2) 0.4745(2) -0.47044(18)
K2 K -0.0949(3) -0.1328(2) -1.40638(18)
K3 K 0.5100(3) 0.2149(2) -1.41252(19)
O2A O -0.0651(8) -0.3889(7) -1.4052(6)
O4A O 0.3330(8) -0.0156(7) -1.5800(6)
O4_2 O 0.6670(8) 0.0156(7) -1.4200(6)
O5_2 O 0.2195(7) 0.2485(6) -0.4003(5)
O5A O -0.2195(7) -0.2485(6) -1.5997(5)
O6A O 0.6912(8) 0.2488(7) -1.5868(6)
O7A O 0.5508(7) 0.4861(7) -0.3498(5)
O7A_2 O 0.5508(7) 0.4861(7) -1.3498(5)
O8A O -0.3995(8) -0.2454(7) -1.3833(5)
O8_2 O 0.3995(8) 0.2454(7) -1.6167(5)
K1_2 K 0.3123(2) 0.4745(2) -1.47044(18)
K1A K 0.6877(2) 0.5255(2) -0.52956(18)
K2A K 0.0949(3) 0.1328(2) -0.59362(18)
K2A_2 K 0.0949(3) 0.1328(2) -1.59362(18)
K3A K -0.5100(3) -0.2149(2) -1.58748(19)
K3_2 K -0.4900(3) 0.2149(2) -1.41252(19)
K3A_2 K 0.4900(3) 0.7851(2) -0.58748(19)
K3_3 K 0.5100(3) 0.2149(2) -0.41252(19)
loop_
_geom_bond_atom_site_label_1
_geom_bond_atom_site_label_2
_geom_bond_site_symmetry_1
_geom_bond_site_symmetry_2
C1 H1 1_555 1_555
C2 C1 1_555 1_555
C3 C2 1_555 1_555
C4 C3 1_555 1_555
H2 C4 1_555 1_555
C5 H3 1_555 1_555
C6 C5 1_555 1_555
C7 C6 1_555 1_555
C8 C7 1_555 1_555
H4 C8 1_555 1_555
C9 C10 1_555 1_555
C10 C1 1_555 1_555
C11 C4 1_555 1_555
C12 C5 1_555 1_555
C13 C8 1_555 1_555
C14 C9 1_555 1_555
C15 C14 1_555 1_555
H5 C15 1_555 1_555
C16 C15 1_555 1_555
H6 C16 1_555 1_555
C17 C16 1_555 1_555
H7 C17 1_555 1_555
C18 C17 1_555 1_555
H8 C18 1_555 1_555
C19 C14 1_555 1_555
H9 C19 1_555 1_555
C20 H10 1_555 1_555
H11 C20 1_555 1_555
H12 C20 1_555 1_555
C21 H13 1_555 1_555
H14 C21 1_555 1_555
H15 C21 1_555 1_555
O1 C11 1_555 1_555
O2 S1 1_555 1_555
O3 C2 1_555 1_555
O4 K2 1_555 1_555
O5 C3 1_555 1_555
O6 K1 1_555 1_555
O7 C6 1_555 1_555
O8 C7 1_555 1_555
S1 C20 1_555 1_555
K1 O2 1_555 1_555
K2 O3 1_555 1_555
K3 O5 1_555 1_555
O2A K2 1_555 1_555
O4A K3 1_555 1_555
O4_2 K3 1_555 1_555
O5_2 K1 1_555 1_555
O5A K2 1_555 1_555
O6A K3 1_555 1_555
O7A K1 1_555 1_555
O7A_2 K3 1_555 1_555
O8A K2 1_555 1_555
O8_2 K3 1_555 1_555
K1_2 O5 1_555 1_555
K1A O7 1_555 1_555
K2A O2 1_555 1_555
K2A_2 O5 1_555 1_555
K3A O4 1_555 1_555
K3_2 O4 1_555 1_555
K3A_2 O6 1_555 1_555
K3_3 O8 1_555 1_555
C9 C13 1_555 1_555
C10 C11 1_555 1_555
C12 C13 1_555 1_555
C12 O1 1_555 1_555
C18 C19 1_555 1_555
C21 S1 1_555 1_555
O7 K1 1_555 1_555
O7 K3A_2 1_555 1_555
O8 K1 1_555 1_555
O8 K2A 1_555 1_555
O4A K2A_2 1_555 1_555
O5_2 K2A 1_555 1_555
O5_2 K3_3 1_555 1_555
O5A K3A 1_555 1_555
O7A K1A 1_555 1_555
O7A K3_3 1_555 1_555
O7A_2 K1_2 1_555 1_555
O8A K3A 1_555 1_555
O8_2 K1_2 1_555 1_555
O8_2 K2A_2 1_555 1_555

#END
