
#######################################################################
#
#                 Cambridge Crystallographic Data Centre
#                                CCDC 
#
#######################################################################
#
# If this CIF has been generated from an entry in the Cambridge 
# Structural Database, then it will include bibliographic, chemical, 
# crystal, experimental, refinement or atomic coordinate data resulting 
# from the CCDC's data processing and validation procedures.
#
#######################################################################

data_SOVPAV01
_symmetry_cell_setting           triclinic
_symmetry_space_group_name_H-M   'P -1'
_symmetry_Int_Tables_number      2
_space_group_name_Hall           '-P 1'
loop_
_symmetry_equiv_pos_site_id
_symmetry_equiv_pos_as_xyz
1 x,y,z
2 -x,-y,-z
_cell_length_a                   7.0728(11)
_cell_length_b                   7.6433(11)
_cell_length_c                   8.0169(12)
_cell_angle_alpha                80.232(2)
_cell_angle_beta                 77.939(2)
_cell_angle_gamma                71.039(2)
_cell_volume                     398.393
loop_
_atom_site_label
_atom_site_type_symbol
_atom_site_fract_x
_atom_site_fract_y
_atom_site_fract_z
Pb1 Pb 0.33858(3) 0.32176(3) 0.43923(3)
O1 O 0.3119(8) 0.3136(7) 0.7568(6)
O2 O 0.4497(9) 0.0255(7) 0.6893(7)
O3 O -0.0398(8) 0.3114(7) 0.5986(7)
O4 O -0.3259(7) 0.3570(6) 0.5050(7)
O5 O 0.5741(8) 0.4161(8) 0.1461(7)
H1 H 0.6702 0.3423 0.0854
H2 H 0.5976 0.5096 0.1718
C1 C 0.4031(10) 0.1417(9) 0.7943(9)
C2 C 0.4557(11) 0.0846(10) 0.9704(9)
H7 H 0.4226 0.1769 1.0428
C3 C -0.1517(10) 0.2552(9) 0.5321(9)
C4 C -0.0845(10) 0.0639(9) 0.4802(10)
H8 H -0.1632 0.0322 0.4178
Pb1A Pb 0.66142(3) -0.32176(3) 1.56077(3)
Pb1_2 Pb -0.66142(3) 0.32176(3) 0.43923(3)
Pb1A_2 Pb -0.33858(3) 0.67824(3) 0.56077(3)
Pb1A_3 Pb -0.33858(3) -0.32176(3) 0.56077(3)
Pb1A_4 Pb 0.66142(3) -0.32176(3) 0.56077(3)
Pb1_3 Pb 0.33858(3) -0.67824(3) 0.43923(3)
O1A O 0.6881(8) -0.3136(7) 1.2432(6)
O2A O 0.5503(9) -0.0255(7) 1.3107(7)
O3A O 0.0398(8) -0.3114(7) 0.4014(7)
O3A_2 O 1.0398(8) -0.3114(7) 1.4014(7)
O4A O 0.3259(7) -0.3570(6) 0.4950(7)
O4_2 O 0.6741(7) 0.3570(6) 0.5050(7)
O4A_2 O 0.3259(7) 0.6430(6) 0.4950(7)
O4A_3 O 0.3259(7) -0.3570(6) 1.4950(7)
O4_3 O 0.6741(7) -0.6430(6) 1.5050(7)
O5A O 0.4259(8) -0.4161(8) 1.8539(7)
H1A H 0.3298 -0.3423 1.9146
H2A H 0.4024 -0.5096 1.8282
C1A C 0.5969(10) -0.1417(9) 1.2057(9)
C2A C 0.5443(11) -0.0846(10) 1.0296(9)
H7A H 0.5774 -0.1769 0.9572
C3A C 0.1517(10) -0.2552(9) 0.4679(9)
C4A C 0.0845(10) -0.0639(9) 0.5198(10)
H8A H 0.1632 -0.0322 0.5822
O6 O 0.0790(9) 0.3837(9) 0.1887(8)
H3 H 0.0711 0.3023 0.1323
H4 H -0.0092 0.4899 0.1810
O7 O 0.0642(9) 0.8134(8) 0.0216(9)
H5 H 0.1828 0.7552 -0.0260
H6 H 0.0275 0.7755 0.1256
loop_
_geom_bond_atom_site_label_1
_geom_bond_atom_site_label_2
_geom_bond_site_symmetry_1
_geom_bond_site_symmetry_2
Pb1 O1 1_555 1_555
O1 C1 1_555 1_555
O2 C1 1_555 1_555
O3 Pb1 1_555 1_555
O4 C3 1_555 1_555
O5 Pb1 1_555 1_555
H1 O5 1_555 1_555
H2 O5 1_555 1_555
O6 H3 1_555 1_555
H4 O6 1_555 1_555
O7 H5 1_555 1_555
H6 O7 1_555 1_555
C1 C2 1_555 1_555
C2 H7 1_555 1_555
C3 O3 1_555 1_555
C4 C3 1_555 1_555
H8 C4 1_555 1_555
Pb1A O1A 1_555 1_555
Pb1_2 O4 1_555 1_555
Pb1A_2 O4 1_555 1_555
Pb1A_3 O3A 1_555 1_555
Pb1A_4 O4A 1_555 1_555
Pb1_3 O4A 1_555 1_555
O1A C1A 1_555 1_555
O2A C1A 1_555 1_555
O3A C3A 1_555 1_555
O3A_2 Pb1A 1_555 1_555
O4A C3A 1_555 1_555
O4_2 Pb1 1_555 1_555
O4A_2 Pb1 1_555 1_555
O4A_3 Pb1A 1_555 1_555
O4_3 Pb1A 1_555 1_555
O5A Pb1A 1_555 1_555
H1A O5A 1_555 1_555
H2A O5A 1_555 1_555
C1A C2A 1_555 1_555
C2A C2 1_555 1_555
H7A C2A 1_555 1_555
C3A C4A 1_555 1_555
C4A C4 1_555 1_555
H8A C4A 1_555 1_555

#END
