
#######################################################################
#
#                 Cambridge Crystallographic Data Centre
#                                CCDC 
#
#######################################################################
#
# If this CIF has been generated from an entry in the Cambridge 
# Structural Database, then it will include bibliographic, chemical, 
# crystal, experimental, refinement or atomic coordinate data resulting 
# from the CCDC's data processing and validation procedures.
#
#######################################################################

data_SOVQOK01
_symmetry_cell_setting           triclinic
_symmetry_space_group_name_H-M   'P -1'
_symmetry_Int_Tables_number      2
_space_group_name_Hall           '-P 1'
loop_
_symmetry_equiv_pos_site_id
_symmetry_equiv_pos_as_xyz
1 x,y,z
2 -x,-y,-z
_cell_length_a                   8.0530(16)
_cell_length_b                   10.533(2)
_cell_length_c                   13.076(3)
_cell_angle_alpha                66.93(3)
_cell_angle_beta                 80.25(3)
_cell_angle_gamma                68.36(3)
_cell_volume                     948.113
loop_
_atom_site_label
_atom_site_type_symbol
_atom_site_fract_x
_atom_site_fract_y
_atom_site_fract_z
N1 N -0.3039(3) 0.5859(2) 0.88111(16)
C1 C -0.1732(3) 0.6078(3) 0.9165(2)
C2 C -0.3103(4) 0.6239(3) 0.7705(2)
C3 C -0.1906(4) 0.6825(3) 0.6950(2)
Co1 Co 0.5000 0.5000 0.0000
Co2 Co 0.5000 1.0000 0.0000
O1 O 0.6909(3) 0.27856(19) 0.06716(15)
O2 O 0.5723(2) 0.54058(17) 0.12607(13)
O3 O 0.5244(2) 0.77945(17) 0.04117(13)
O4 O 0.7578(2) 0.9402(2) 0.04553(15)
N2 N 0.0771(3) 0.8069(2) 0.54550(16)
C4 C 0.2811(3) 0.9031(3) 0.3949(2)
N3 N 0.2135(3) 0.7822(3) 0.68694(18)
C5 C 0.5811(3) 0.6605(3) 0.12163(19)
N4 N 0.3906(3) 0.9856(2) 0.16899(16)
N5 N 0.3128(3) 0.8374(3) 0.59608(18)
C6 C 0.2236(3) 0.8509(3) 0.5130(2)
C7 C 0.0752(3) 0.7640(3) 0.65554(19)
C8 C -0.0486(3) 0.6653(3) 0.8469(2)
C9 C 0.6691(3) 0.6526(2) 0.21807(19)
O5 O 1.0039(3) 0.7496(3) 0.0515(2)
C10 C 0.8574(3) 0.8096(3) 0.0895(2)
C11 C 0.7986(3) 0.7188(3) 0.2023(2)
C12 C -0.0551(3) 0.7032(3) 0.73290(19)
C13 C 0.4299(4) 0.9488(3) 0.3590(2)
C14 C 0.4789(4) 0.9877(3) 0.2466(2)
C15 C 0.1841(4) 0.9066(3) 0.3142(2)
C16 C 0.2429(4) 0.9468(3) 0.2043(2)
C17 C 0.8809(4) 0.6998(3) 0.2954(3)
C18 C 0.8309(5) 0.6248(4) 0.4018(3)
C19 C 0.6247(4) 0.5716(3) 0.3262(2)
C20 C 0.7031(5) 0.5602(3) 0.4175(2)
H1 H -0.167(3) 0.582(3) 0.994(2)
H2 H 0.578(4) 1.017(3) 0.222(2)
H3 H 0.254(4) 0.753(3) 0.752(3)
H4 H 0.076(4) 0.877(3) 0.334(2)
H5 H -0.203(4) 0.708(3) 0.621(3)
H6 H 0.045(4) 0.680(3) 0.875(2)
H7 H 0.495(4) 0.955(3) 0.409(2)
H8 H -0.405(4) 0.612(3) 0.748(2)
H9 H 0.630(5) 0.237(3) 0.050(3)
H10 H 0.889(4) 0.614(3) 0.465(3)
H11 H 0.968(4) 0.739(3) 0.287(3)
H12 H 0.179(4) 0.951(3) 0.148(2)
H13 H 0.537(4) 0.520(3) 0.337(2)
H14 H 0.673(4) 0.502(3) 0.493(3)
H15 H 0.781(5) 0.269(3) 0.033(3)
N1A N 0.3039(3) 0.4141(2) 0.11889(16)
N1_2 N 0.6961(3) 0.5859(2) -0.11889(16)
C1A C 0.1732(3) 0.3922(3) 0.0835(2)
C2A C 0.3103(4) 0.3761(3) 0.2295(2)
C3A C 0.1906(4) 0.3175(3) 0.3050(2)
Co1_2 Co -0.5000 0.5000 1.0000
Co2_2 Co -0.5000 0.0000 1.0000
Co2_3 Co 0.5000 0.0000 0.0000
O1A O 0.3091(3) 0.72144(19) -0.06716(15)
O2A O 0.4277(2) 0.45942(17) -0.12607(13)
O3A O 0.4756(2) 0.22055(17) -0.04117(13)
O3A_2 O 0.4756(2) 1.22055(17) -0.04117(13)
O4A O 0.2422(2) 0.0598(2) -0.04553(15)
O4A_2 O 0.2422(2) 1.0598(2) -0.04553(15)
N2A N -0.0771(3) 0.1931(2) 0.45450(16)
C4A C -0.2811(3) 0.0969(3) 0.6051(2)
N3A N -0.2135(3) 0.2178(3) 0.31306(18)
C5A C 0.4189(3) 0.3395(3) -0.12163(19)
N4A N -0.3906(3) 0.0144(2) 0.83101(16)
N4A_2 N 0.6094(3) 1.0144(2) -0.16899(16)
N5A N -0.3128(3) 0.1626(3) 0.40392(18)
C6A C -0.2236(3) 0.1491(3) 0.4870(2)
C7A C -0.0752(3) 0.2360(3) 0.34446(19)
C8A C 0.0486(3) 0.3347(3) 0.1531(2)
C9A C 0.3309(3) 0.3474(2) -0.21807(19)
O5A O -0.0039(3) 0.2504(3) -0.0515(2)
C10A C 0.1426(3) 0.1904(3) -0.0895(2)
C11A C 0.2014(3) 0.2812(3) -0.2023(2)
C12A C 0.0551(3) 0.2968(3) 0.26710(19)
C13A C -0.4299(4) 0.0512(3) 0.6410(2)
C14A C -0.4789(4) 0.0123(3) 0.7534(2)
C15A C -0.1841(4) 0.0934(3) 0.6858(2)
C16A C -0.2429(4) 0.0532(3) 0.7957(2)
C17A C 0.1191(4) 0.3002(3) -0.2954(3)
C18A C 0.1691(5) 0.3752(4) -0.4018(3)
C19A C 0.3753(4) 0.4284(3) -0.3262(2)
C20A C 0.2969(5) 0.4398(3) -0.4175(2)
H1A H 0.167(3) 0.418(3) 0.006(2)
H2A H -0.578(4) -0.017(3) 0.778(2)
H3A H -0.254(4) 0.247(3) 0.248(3)
H4A H -0.076(4) 0.123(3) 0.666(2)
H5A H 0.203(4) 0.292(3) 0.379(3)
H6A H -0.045(4) 0.320(3) 0.125(2)
H7A H -0.495(4) 0.045(3) 0.591(2)
H8A H 0.405(4) 0.388(3) 0.252(2)
H9A H 0.370(5) 0.763(3) -0.050(3)
H10A H 0.111(4) 0.386(3) -0.465(3)
H11A H 0.032(4) 0.261(3) -0.287(3)
H12A H -0.179(4) 0.049(3) 0.852(2)
H13A H 0.463(4) 0.480(3) -0.337(2)
H14A H 0.327(4) 0.498(3) -0.493(3)
H15A H 0.219(5) 0.731(3) -0.033(3)
loop_
_geom_bond_atom_site_label_1
_geom_bond_atom_site_label_2
_geom_bond_site_symmetry_1
_geom_bond_site_symmetry_2
N1 C1 1_555 1_555
C1 C8 1_555 1_555
C2 N1 1_555 1_555
C3 C2 1_555 1_555
Co1 O1 1_555 1_555
Co2 O3 1_555 1_555
O1 H9 1_555 1_555
O2 Co1 1_555 1_555
O3 C5 1_555 1_555
O4 Co2 1_555 1_555
N2 C6 1_555 1_555
C4 C6 1_555 1_555
N3 N5 1_555 1_555
C5 O2 1_555 1_555
N4 Co2 1_555 1_555
N5 C6 1_555 1_555
C7 N2 1_555 1_555
C8 C12 1_555 1_555
C9 C5 1_555 1_555
O5 C10 1_555 1_555
C10 O4 1_555 1_555
C11 C9 1_555 1_555
C12 C3 1_555 1_555
C13 C4 1_555 1_555
C14 N4 1_555 1_555
C15 C4 1_555 1_555
C16 N4 1_555 1_555
C17 C11 1_555 1_555
C18 C17 1_555 1_555
C19 C9 1_555 1_555
C20 C18 1_555 1_555
H1 C1 1_555 1_555
H2 C14 1_555 1_555
H3 N3 1_555 1_555
H4 C15 1_555 1_555
H5 C3 1_555 1_555
H6 C8 1_555 1_555
H7 C13 1_555 1_555
H8 C2 1_555 1_555
H10 C18 1_555 1_555
H11 C17 1_555 1_555
H12 C16 1_555 1_555
H13 C19 1_555 1_555
H14 C20 1_555 1_555
H15 O1 1_555 1_555
N1A Co1 1_555 1_555
N1_2 Co1 1_555 1_555
C1A N1A 1_555 1_555
C2A N1A 1_555 1_555
C3A C2A 1_555 1_555
Co1_2 N1 1_555 1_555
Co2_2 N4A 1_555 1_555
Co2_3 O3A 1_555 1_555
O1A Co1 1_555 1_555
O2A Co1 1_555 1_555
O3A C5A 1_555 1_555
O3A_2 Co2 1_555 1_555
O4A Co2_3 1_555 1_555
O4A_2 Co2 1_555 1_555
N2A C6A 1_555 1_555
C4A C6A 1_555 1_555
N3A N5A 1_555 1_555
C5A O2A 1_555 1_555
N4A C14A 1_555 1_555
N4A_2 Co2 1_555 1_555
N5A C6A 1_555 1_555
C7A N2A 1_555 1_555
C8A C1A 1_555 1_555
C9A C5A 1_555 1_555
O5A C10A 1_555 1_555
C10A O4A 1_555 1_555
C11A C9A 1_555 1_555
C12A C3A 1_555 1_555
C13A C4A 1_555 1_555
C14A C13A 1_555 1_555
C15A C4A 1_555 1_555
C16A N4A 1_555 1_555
C17A C11A 1_555 1_555
C18A C17A 1_555 1_555
C19A C9A 1_555 1_555
C20A C18A 1_555 1_555
H1A C1A 1_555 1_555
H2A C14A 1_555 1_555
H3A N3A 1_555 1_555
H4A C15A 1_555 1_555
H5A C3A 1_555 1_555
H6A C8A 1_555 1_555
H7A C13A 1_555 1_555
H8A C2A 1_555 1_555
H9A O1A 1_555 1_555
H10A C18A 1_555 1_555
H11A C17A 1_555 1_555
H12A C16A 1_555 1_555
H13A C19A 1_555 1_555
H14A C20A 1_555 1_555
H15A O1A 1_555 1_555
N3 C7 1_555 1_555
C7 C12 1_555 1_555
C10 C11 1_555 1_555
C13 C14 1_555 1_555
C15 C16 1_555 1_555
C19 C20 1_555 1_555
N3A C7A 1_555 1_555
C7A C12A 1_555 1_555
C8A C12A 1_555 1_555
C10A C11A 1_555 1_555
C15A C16A 1_555 1_555
C19A C20A 1_555 1_555

#END
