
#######################################################################
#
#                 Cambridge Crystallographic Data Centre
#                                CCDC 
#
#######################################################################
#
# If this CIF has been generated from an entry in the Cambridge 
# Structural Database, then it will include bibliographic, chemical, 
# crystal, experimental, refinement or atomic coordinate data resulting 
# from the CCDC's data processing and validation procedures.
#
#######################################################################

data_SOVQIE01
_symmetry_cell_setting           monoclinic
_symmetry_space_group_name_H-M   'P 21/c'
_symmetry_Int_Tables_number      14
_space_group_name_Hall           '-P 2ybc'
loop_
_symmetry_equiv_pos_site_id
_symmetry_equiv_pos_as_xyz
1 x,y,z
2 -x,1/2+y,1/2-z
3 -x,-y,-z
4 x,1/2-y,1/2+z
_cell_length_a                   7.5364(13)
_cell_length_b                   11.3555(18)
_cell_length_c                   12.917(2)
_cell_angle_alpha                90
_cell_angle_beta                 104.015(4)
_cell_angle_gamma                90
_cell_volume                     1072.53
loop_
_atom_site_label
_atom_site_type_symbol
_atom_site_fract_x
_atom_site_fract_y
_atom_site_fract_z
Ag1 Ag -0.69734(3) 0.501650(14) 0.395880(17)
N1 N 0.0616(3) 0.06323(19) 0.76627(16)
N2 N -0.7982(3) 0.1649(2) 0.03950(17)
N3 N -0.3652(3) 0.34198(18) 0.50028(15)
N4 N -0.4808(3) 0.35611(18) 0.40080(16)
N5 N -0.3841(3) 0.16794(18) 0.41555(17)
C1 C 0.0087(5) 0.0138(2) 0.6695(3)
H1 H 0.0581 -0.0599 0.6587
C2 C -0.1136(4) 0.0648(2) 0.5856(2)
H2 H -0.1471 0.0255 0.5197
C3 C -0.1881(3) 0.1742(2) 0.59768(19)
C4 C -0.1388(4) 0.2243(2) 0.6988(2)
H3 H -0.1888 0.2969 0.7123
C5 C -0.0158(4) 0.1664(2) 0.7791(2)
H4 H 0.0156 0.2016 0.8470
C6 C -0.7256(4) 0.2718(3) 0.0632(2)
H5 H -0.7423 0.3274 0.0078
C7 C -0.6279(4) 0.3062(2) 0.1630(2)
H6 H -0.5835 0.3836 0.1752
C8 C -0.5964(3) 0.2242(2) 0.24534(19)
C9 C -0.6684(4) 0.1119(2) 0.2215(2)
H7 H -0.6485 0.0531 0.2742
C10 C -0.7690(4) 0.0878(3) 0.1198(2)
H8 H -0.8204 0.0123 0.1060
C11 C -0.3124(3) 0.2292(2) 0.50524(19)
C12 C -0.4870(3) 0.2507(2) 0.35378(19)
Ag1B Ag -0.30266(3) 0.498350(14) 0.604120(17)
Ag1C Ag 0.30266(3) -0.001650(14) 0.895880(17)
N1C N -0.9384(3) 0.43677(19) 0.26627(16)
N3B N -0.6348(3) 0.65802(18) 0.49972(15)
loop_
_geom_bond_atom_site_label_1
_geom_bond_atom_site_label_2
_geom_bond_site_symmetry_1
_geom_bond_site_symmetry_2
Ag1 N4 1_555 1_555
N1 C1 1_555 1_555
N2 C6 1_555 1_555
N3 N4 1_555 1_555
N4 C12 1_555 1_555
N5 C11 1_555 1_555
C1 H1 1_555 1_555
C2 C1 1_555 1_555
H2 C2 1_555 1_555
C3 C2 1_555 1_555
C4 C3 1_555 1_555
H3 C4 1_555 1_555
C5 N1 1_555 1_555
H4 C5 1_555 1_555
C6 H5 1_555 1_555
C7 C6 1_555 1_555
H6 C7 1_555 1_555
C8 C7 1_555 1_555
C9 C8 1_555 1_555
H7 C9 1_555 1_555
C10 N2 1_555 1_555
H8 C10 1_555 1_555
C11 N3 1_555 1_555
C12 N5 1_555 1_555
Ag1B N3 1_555 1_555
Ag1C N1 1_555 1_555
N1C Ag1 1_555 1_555
N3B Ag1 1_555 1_555
C3 C11 1_555 1_555
C4 C5 1_555 1_555
C8 C12 1_555 1_555
C9 C10 1_555 1_555

#END
