
#######################################################################
#
#                 Cambridge Crystallographic Data Centre
#                                CCDC 
#
#######################################################################
#
# If this CIF has been generated from an entry in the Cambridge 
# Structural Database, then it will include bibliographic, chemical, 
# crystal, experimental, refinement or atomic coordinate data resulting 
# from the CCDC's data processing and validation procedures.
#
#######################################################################

data_SOVSIF10
_symmetry_cell_setting           monoclinic
_symmetry_space_group_name_H-M   'P 21/c'
_symmetry_Int_Tables_number      14
_space_group_name_Hall           '-P 2ybc'
loop_
_symmetry_equiv_pos_site_id
_symmetry_equiv_pos_as_xyz
1 x,y,z
2 -x,1/2+y,1/2-z
3 -x,-y,-z
4 x,1/2-y,1/2+z
_cell_length_a                   14.375(3)
_cell_length_b                   18.770(3)
_cell_length_c                   8.115(3)
_cell_angle_alpha                90
_cell_angle_beta                 93.50(2)
_cell_angle_gamma                90
_cell_volume                     2185.5
loop_
_atom_site_label
_atom_site_type_symbol
_atom_site_fract_x
_atom_site_fract_y
_atom_site_fract_z
K1 K 0.47579(6) 0.50657(5) 0.7358(1)
S1 S 0.37358(7) 0.60314(5) 0.4277(1)
S2 S 0.37649(7) 0.40142(5) 0.4576(1)
P1 P 0.26395(7) 0.55392(5) 0.4973(1)
O1 O 0.1754(2) 0.6036(1) 0.4977(3)
O2 O 0.2783(2) 0.5361(1) 0.6873(3)
N1 N 0.2257(2) 0.4855(2) 0.3918(4)
C1 C 0.2700(3) 0.4253(2) 0.3719(4)
C2 C 0.2180(3) 0.3725(2) 0.2640(4)
C3 C 0.2608(3) 0.3143(2) 0.1998(5)
C4 C 0.2119(4) 0.2673(2) 0.0973(6)
C5 C 0.1197(3) 0.2763(2) 0.0589(6)
C6 C 0.0752(3) 0.3332(2) 0.1243(6)
C7 C 0.1232(3) 0.3815(2) 0.2254(5)
C8 C 0.1282(3) 0.6274(2) 0.3461(8)
C9 C 0.0288(4) 0.6017(3) 0.3461(8)
C10 C 0.2052(3) 0.4986(2) 0.7729(5)
C11 C 0.2439(4) 0.4336(3) 0.8439(7)
C12 C 0.1366(4) 0.7059(3) 0.3372(8)
C13 C 0.1676(4) 0.5475(4) 0.8922(7)
O3 O 0.4876(2) 0.5917(2) 1.0104(3)
C14 C 0.4683(3) 0.6533(2) 1.0263(5)
C15 C 0.5304(4) 0.7011(3) 1.1277(7)
C16 C 0.3821(4) 0.6834(3) 0.9501(9)
H1 H 0.326(2) 0.310(2) 0.226(4)
H2 H 0.245(2) 0.232(2) 0.059(5)
H3 H 0.086(3) 0.243(2) -0.009(5)
H4 H 0.012(3) 0.344(2) 0.103(5)
H5 H 0.091(2) 0.418(2) 0.273(4)
H6 H 0.159(3) 0.606(2) 0.257(5)
H7 H 0.152(2) 0.491(2) 0.693(5)
H8 H 0.006(3) 0.625(3) 0.452(6)
H9 H 0.005(3) 0.618(3) 0.243(6)
H10 H 0.027(3) 0.545(3) 0.349(6)
H11 H 0.297 0.445 0.925
H12 H 0.198(4) 0.409(3) 0.902(6)
H13 H 0.281(3) 0.410(3) 0.791(6)
H14 H 0.108(3) 0.718(3) 0.436(6)
H15 H 0.194(3) 0.722(3) 0.318(6)
H16 H 0.101(3) 0.723(3) 0.259(6)
H17 H 0.230(4) 0.529(3) 0.977(7)
H18 H 0.116(4) 0.528(3) 0.942(7)
H19 H 0.137(4) 0.588(3) 0.840(7)
H20 H 0.590(3) 0.681(2) 1.154(5)
H21 H 0.554(3) 0.731(2) 1.074(6)
H22 H 0.494(3) 0.734(2) 1.159(6)
H23 H 0.389(3) 0.730(3) 0.911(6)
H24 H 0.343(3) 0.661(3) 0.903(6)
H25 H 0.346 0.683 1.051
K1B K 0.52421(6) 0.49343(5) 0.2642(1)
S1B S 0.62642(7) 0.39686(5) 0.5723(1)
S2B S 0.62351(7) 0.59858(5) 0.5424(1)
K1B_2 K 0.52421(6) 0.49343(5) 1.2642(1)
O3B O 0.5124(2) 0.4083(2) 0.9896(3)
loop_
_geom_bond_atom_site_label_1
_geom_bond_atom_site_label_2
_geom_bond_site_symmetry_1
_geom_bond_site_symmetry_2
K1 S1 1_555 1_555
S1 P1 1_555 1_555
S2 K1 1_555 1_555
P1 O1 1_555 1_555
O1 C8 1_555 1_555
O2 K1 1_555 1_555
N1 P1 1_555 1_555
C1 S2 1_555 1_555
C2 C1 1_555 1_555
C3 C2 1_555 1_555
C4 C3 1_555 1_555
C5 C4 1_555 1_555
C6 C5 1_555 1_555
C7 C2 1_555 1_555
C8 C9 1_555 1_555
C9 H8 1_555 1_555
C10 O2 1_555 1_555
C11 C10 1_555 1_555
C12 C8 1_555 1_555
C13 C10 1_555 1_555
O3 K1 1_555 1_555
C14 O3 1_555 1_555
C15 C14 1_555 1_555
C16 C14 1_555 1_555
H1 C3 1_555 1_555
H2 C4 1_555 1_555
H3 C5 1_555 1_555
H4 C6 1_555 1_555
H5 C7 1_555 1_555
H6 C8 1_555 1_555
H7 C10 1_555 1_555
H9 C9 1_555 1_555
H10 C9 1_555 1_555
H11 C11 1_555 1_555
H12 C11 1_555 1_555
H13 C11 1_555 1_555
H14 C12 1_555 1_555
H15 C12 1_555 1_555
H16 C12 1_555 1_555
H17 C13 1_555 1_555
H18 C13 1_555 1_555
H19 C13 1_555 1_555
H20 C15 1_555 1_555
H21 C15 1_555 1_555
H22 C15 1_555 1_555
H23 C16 1_555 1_555
H24 C16 1_555 1_555
H25 C16 1_555 1_555
K1B S1 1_555 1_555
S1B K1 1_555 1_555
S2B K1 1_555 1_555
K1B_2 O3 1_555 1_555
O3B K1 1_555 1_555
S2 K1B 1_555 1_555
P1 O2 1_555 1_555
N1 C1 1_555 1_555
C6 C7 1_555 1_555
K1B S1B 1_555 1_555
K1B S2B 1_555 1_555
K1B_2 O3B 1_555 1_555

#END
