
#######################################################################
#
#                 Cambridge Crystallographic Data Centre
#                                CCDC 
#
#######################################################################
#
# If this CIF has been generated from an entry in the Cambridge 
# Structural Database, then it will include bibliographic, chemical, 
# crystal, experimental, refinement or atomic coordinate data resulting 
# from the CCDC's data processing and validation procedures.
#
#######################################################################

data_SOWHET
_symmetry_cell_setting           monoclinic
_symmetry_space_group_name_H-M   'P 21/n'
_symmetry_Int_Tables_number      14
_space_group_name_Hall           '-P 2yn'
loop_
_symmetry_equiv_pos_site_id
_symmetry_equiv_pos_as_xyz
1 x,y,z
2 1/2-x,1/2+y,1/2-z
3 -x,-y,-z
4 1/2+x,1/2-y,1/2+z
_cell_length_a                   13.6048(6)
_cell_length_b                   6.5235(3)
_cell_length_c                   19.0029(12)
_cell_angle_alpha                90
_cell_angle_beta                 110.595(6)
_cell_angle_gamma                90
_cell_volume                     1578.74
loop_
_atom_site_label
_atom_site_type_symbol
_atom_site_fract_x
_atom_site_fract_y
_atom_site_fract_z
Zn1 Zn 0.77748(2) 0.27131(4) 0.150051(16)
N1 N 0.63620(14) 0.2308(3) 0.06732(11)
N2 N 0.91618(14) 0.3980(3) 0.15764(11)
C1 C 0.62736(18) 0.2166(4) -0.00764(14)
N3 N 1.07899(15) 0.4665(4) 0.17030(12)
H1 H 1.1475 0.4524 0.1839
O1 O 0.73943(12) 0.6257(3) 0.07963(10)
C2 C 1.01406(19) 0.3327(4) 0.18606(15)
H2 H 1.0357 0.2091 0.2137
C3 C 0.53947(18) 0.2568(3) 0.06592(15)
H3 H 0.5208 0.2727 0.1093
O2 O 0.75611(12) -0.0710(3) 0.27059(9)
O3 O 0.80761(13) 0.1748(3) 0.02142(10)
N4 N 0.47044(15) 0.2579(3) -0.00533(12)
H4 H 0.4020 0.2723 -0.0187
C4 C 0.52436(18) 0.2332(4) -0.05332(14)
C5 C 0.72067(19) 0.1892(4) -0.02703(15)
H5 H 0.7139 0.1822 -0.0785
C6 C 0.81777(17) -0.1143(4) 0.23687(14)
H6 H 0.8534 -0.2420 0.2483
C7 C 0.4730(2) 0.2306(4) -0.13669(15)
H7 H 0.4969 0.3489 -0.1581
H8 H 0.3967 0.2373 -0.1501
H9 H 0.4918 0.1039 -0.1567
O4 O 0.83622(12) -0.0025(3) 0.18927(9)
C8 C 0.92025(18) 0.5805(4) 0.12172(14)
C9 C 1.02278(19) 0.6260(4) 0.13032(15)
C10 C 1.0696(2) 0.8049(5) 0.10535(18)
H10 H 1.1270 0.8608 0.1482
H11 H 1.0157 0.9104 0.0850
H12 H 1.0968 0.7615 0.0663
C11 C 0.82489(19) 0.6893(4) 0.08125(14)
H13 H 0.8284 0.8122 0.0554
Zn1A Zn 0.72252(2) -0.22869(4) 0.349949(16)
O2A O 0.74389(12) 0.4290(3) 0.22941(9)
Cl1 Cl 0.66698(4) 0.69283(10) -0.16118(3)
O5 O 0.68342(17) 0.6922(4) -0.08308(12)
O6 O 0.73086(16) 0.8432(4) -0.17833(14)
O7 O 0.69537(17) 0.4971(4) -0.18264(16)
O8 O 0.55772(15) 0.7285(4) -0.20289(12)
loop_
_geom_bond_atom_site_label_1
_geom_bond_atom_site_label_2
_geom_bond_site_symmetry_1
_geom_bond_site_symmetry_2
Zn1 N1 1_555 1_555
N1 C1 1_555 1_555
N2 Zn1 1_555 1_555
C1 C4 1_555 1_555
N3 H1 1_555 1_555
O1 C11 1_555 1_555
C2 N2 1_555 1_555
H2 C2 1_555 1_555
C3 N1 1_555 1_555
H3 C3 1_555 1_555
O2 C6 1_555 1_555
O3 C5 1_555 1_555
N4 C3 1_555 1_555
H4 N4 1_555 1_555
C4 N4 1_555 1_555
C5 C1 1_555 1_555
H5 C5 1_555 1_555
C6 H6 1_555 1_555
C7 C4 1_555 1_555
H7 C7 1_555 1_555
H8 C7 1_555 1_555
H9 C7 1_555 1_555
O4 Zn1 1_555 1_555
C8 N2 1_555 1_555
C9 N3 1_555 1_555
C10 C9 1_555 1_555
H10 C10 1_555 1_555
H11 C10 1_555 1_555
H12 C10 1_555 1_555
C11 C8 1_555 1_555
H13 C11 1_555 1_555
Cl1 O5 1_555 1_555
O6 Cl1 1_555 1_555
O7 Cl1 1_555 1_555
O8 Cl1 1_555 1_555
Zn1A O2 1_555 1_555
O2A Zn1 1_555 1_555
N3 C2 1_555 1_555
C6 O4 1_555 1_555
C8 C9 1_555 1_555

#END
