
#######################################################################
#
#                 Cambridge Crystallographic Data Centre
#                                CCDC 
#
#######################################################################
#
# If this CIF has been generated from an entry in the Cambridge 
# Structural Database, then it will include bibliographic, chemical, 
# crystal, experimental, refinement or atomic coordinate data resulting 
# from the CCDC's data processing and validation procedures.
#
#######################################################################

data_SOWHES
_symmetry_cell_setting           triclinic
_symmetry_space_group_name_H-M   'P -1'
_symmetry_Int_Tables_number      2
_space_group_name_Hall           '-P 1'
loop_
_symmetry_equiv_pos_site_id
_symmetry_equiv_pos_as_xyz
1 x,y,z
2 -x,-y,-z
_cell_length_a                   9.1024(18)
_cell_length_b                   9.5071(19)
_cell_length_c                   10.351(2)
_cell_angle_alpha                72.08(3)
_cell_angle_beta                 72.00(3)
_cell_angle_gamma                68.92(3)
_cell_volume                     775.156
loop_
_atom_site_label
_atom_site_type_symbol
_atom_site_fract_x
_atom_site_fract_y
_atom_site_fract_z
N1 N 0.3886(5) 0.8543(5) 0.8394(4)
C1 C 0.2215(7) 0.6864(7) 0.9114(5)
H1 H 0.1738 0.6181 0.9827
C2 C 0.1979(6) 0.7207(7) 0.7776(5)
H2 H 0.1326 0.6776 0.7578
C3 C 0.2743(5) 0.8211(6) 0.6737(5)
C4 C 0.3659(6) 0.8871(6) 0.7106(5)
H3 H 0.4135 0.9574 0.6420
I1 I 0.69558(4) 0.77218(4) 1.05802(3)
Cu1 Cu 0.52512(8) 0.96363(9) 0.87909(6)
N2 N 0.1611(4) 0.8454(5) 0.4686(4)
C5 C 0.1100(6) 0.9031(6) 0.2435(5)
H4 H 0.1290 0.9474 0.1486
C6 C 0.2008(5) 0.9087(5) 0.3293(4)
N3 N 0.3252(5) 0.9605(5) 0.3040(4)
N4 N 0.0434(4) 0.7737(5) 0.5356(4)
N5 N 0.3649(5) 0.9335(5) 0.4277(4)
C7 C -0.1578(5) 0.6804(6) 0.5239(5)
C8 C 0.2665(5) 0.8649(6) 0.5283(5)
C9 C 0.3171(6) 0.7553(6) 0.9376(4)
H5 H 0.3322 0.7315 1.0276
C10 C -0.0053(6) 0.8308(6) 0.3051(5)
H6 H -0.0661 0.8231 0.2514
C11 C -0.0361(5) 0.7653(5) 0.4528(5)
C12 C -0.2206(6) 0.6289(7) 0.4455(6)
H7 H -0.1914 0.6530 0.3487
C13 C -0.2061(6) 0.6460(7) 0.6678(6)
H8 H -0.1666 0.6816 0.7205
C14 C -0.3731(6) 0.5056(7) 0.6576(7)
H9 H -0.4438 0.4462 0.7028
C15 C -0.3123(6) 0.5594(7) 0.7332(6)
H10 H -0.3434 0.5369 0.8300
C16 C -0.3282(6) 0.5407(8) 0.5147(7)
H11 H -0.3698 0.5055 0.4632
I1A I 0.30442(4) 1.22782(4) 0.94198(3)
Cu1A Cu 0.47488(8) 1.03637(9) 1.12091(6)
Cu1A_2 Cu 0.47488(8) 1.03637(9) 0.12091(6)
N3A N 0.6748(5) 1.0395(5) 0.6960(4)
loop_
_geom_bond_atom_site_label_1
_geom_bond_atom_site_label_2
_geom_bond_site_symmetry_1
_geom_bond_site_symmetry_2
N1 C4 1_555 1_555
C1 H1 1_555 1_555
C2 C1 1_555 1_555
H2 C2 1_555 1_555
C3 C2 1_555 1_555
C4 C3 1_555 1_555
H3 C4 1_555 1_555
I1 Cu1 1_555 1_555
Cu1 N1 1_555 1_555
N2 C6 1_555 1_555
C5 H4 1_555 1_555
C6 C5 1_555 1_555
N3 C6 1_555 1_555
N4 N2 1_555 1_555
N5 N3 1_555 1_555
C7 C11 1_555 1_555
C8 C3 1_555 1_555
C9 N1 1_555 1_555
H5 C9 1_555 1_555
C10 C5 1_555 1_555
H6 C10 1_555 1_555
C11 N4 1_555 1_555
C12 C7 1_555 1_555
H7 C12 1_555 1_555
C13 C7 1_555 1_555
H8 C13 1_555 1_555
C14 H9 1_555 1_555
C15 C13 1_555 1_555
H10 C15 1_555 1_555
C16 C12 1_555 1_555
H11 C16 1_555 1_555
I1A Cu1 1_555 1_555
Cu1A I1 1_555 1_555
Cu1A_2 N3 1_555 1_555
N3A Cu1 1_555 1_555
C1 C9 1_555 1_555
N2 C8 1_555 1_555
N5 C8 1_555 1_555
C10 C11 1_555 1_555
C14 C15 1_555 1_555
C14 C16 1_555 1_555
I1A Cu1A 1_555 1_555

#END
