
#######################################################################
#
#                 Cambridge Crystallographic Data Centre
#                                CCDC 
#
#######################################################################
#
# If this CIF has been generated from an entry in the Cambridge 
# Structural Database, then it will include bibliographic, chemical, 
# crystal, experimental, refinement or atomic coordinate data resulting 
# from the CCDC's data processing and validation procedures.
#
#######################################################################

data_SOWSUU
_symmetry_cell_setting           triclinic
_symmetry_space_group_name_H-M   'P -1'
_symmetry_Int_Tables_number      2
_space_group_name_Hall           '-P 1'
loop_
_symmetry_equiv_pos_site_id
_symmetry_equiv_pos_as_xyz
1 x,y,z
2 -x,-y,-z
_cell_length_a                   7.8863(11)
_cell_length_b                   9.8198(14)
_cell_length_c                   11.7585(15)
_cell_angle_alpha                104.791(11)
_cell_angle_beta                 97.625(11)
_cell_angle_gamma                90.357(11)
_cell_volume                     871.877
loop_
_atom_site_label
_atom_site_type_symbol
_atom_site_fract_x
_atom_site_fract_y
_atom_site_fract_z
Ag1 Ag 0.76040(9) 0.07289(8) 1.06397(7)
C1 C 0.3576(9) 0.4137(8) 0.8375(7)
O1 O 0.2346(6) 0.3717(6) 0.8712(5)
O2 O 0.3495(7) 0.4932(7) 0.7615(6)
C2 C 0.1817(10) 0.5404(10) 0.7236(9)
H1 H 0.1239 0.5827 0.7934
H2 H 0.1089 0.4600 0.6717
C3 C 0.2103(12) 0.6465(10) 0.6579(9)
H3 H 0.2836 0.7256 0.7112
H4 H 0.0990 0.6845 0.6342
C4 C 0.2948(14) 0.5863(13) 0.5473(10)
H5 H 0.2191 0.5102 0.4921
H6 H 0.4039 0.5446 0.5703
C5 C 0.3307(11) 0.6997(13) 0.4833(9)
H7 H 0.4024 0.7789 0.5379
H8 H 0.3907 0.6596 0.4142
O3 O 0.1631(7) 0.7476(7) 0.4447(6)
C6 C 0.1598(10) 0.8403(9) 0.3795(7)
O4 O 0.2852(7) 0.8853(7) 0.3504(5)
C7 C 0.5377(9) 0.3808(8) 0.8732(7)
C8 C 0.5646(9) 0.2820(8) 0.9386(7)
H9 H 0.4681 0.2403 0.9593
N1 N 0.7222(8) 0.2428(7) 0.9741(6)
C9 C 0.8555(9) 0.3035(9) 0.9437(7)
H10 H 0.9674 0.2757 0.9664
C10 C 0.8379(10) 0.4041(9) 0.8812(8)
H11 H 0.9361 0.4466 0.8633
C11 C 0.6755(10) 0.4433(9) 0.8443(7)
H12 H 0.6602 0.5120 0.8001
C12 C -0.0173(10) 0.8810(8) 0.3474(7)
C13 C -0.0487(10) 0.9458(8) 0.2553(7)
H13 H 0.0439 0.9632 0.2162
N2 N -0.2043(8) 0.9846(7) 0.2196(6)
C14 C -0.3336(10) 0.9626(9) 0.2774(8)
H14 H -0.4444 0.9911 0.2529
C15 C -0.3123(10) 0.9002(9) 0.3710(8)
H15 H -0.4063 0.8871 0.4105
C16 C -0.1513(10) 0.8570(9) 0.4060(7)
H16 H -0.1331 0.8120 0.4689
N3 N 0.7490(13) -0.1749(9) 0.8418(8)
O5 O 0.8781(9) -0.1256(9) 0.9077(8)
O6 O 0.6080(9) -0.1332(10) 0.8696(8)
O7 O 0.7584(19) -0.2663(11) 0.7484(10)
Ag1_2 Ag -0.23960(9) 1.07289(8) 0.06397(7)
N2_2 N 0.7957(8) -0.0154(7) 1.2196(6)
loop_
_geom_bond_atom_site_label_1
_geom_bond_atom_site_label_2
_geom_bond_site_symmetry_1
_geom_bond_site_symmetry_2
Ag1 N1 1_555 1_555
C1 O1 1_555 1_555
O2 C1 1_555 1_555
C2 O2 1_555 1_555
H1 C2 1_555 1_555
H2 C2 1_555 1_555
C3 C2 1_555 1_555
H3 C3 1_555 1_555
H4 C3 1_555 1_555
C4 C3 1_555 1_555
H5 C4 1_555 1_555
H6 C4 1_555 1_555
C5 C4 1_555 1_555
H7 C5 1_555 1_555
H8 C5 1_555 1_555
O3 C5 1_555 1_555
C6 O3 1_555 1_555
O4 C6 1_555 1_555
C7 C1 1_555 1_555
C8 C7 1_555 1_555
H9 C8 1_555 1_555
N1 C8 1_555 1_555
C9 N1 1_555 1_555
H10 C9 1_555 1_555
C10 C9 1_555 1_555
H11 C10 1_555 1_555
C11 C7 1_555 1_555
H12 C11 1_555 1_555
C12 C6 1_555 1_555
C13 C12 1_555 1_555
H13 C13 1_555 1_555
N2 C13 1_555 1_555
C14 N2 1_555 1_555
H14 C14 1_555 1_555
C15 C14 1_555 1_555
H15 C15 1_555 1_555
C16 C12 1_555 1_555
H16 C16 1_555 1_555
N3 O5 1_555 1_555
O5 Ag1 1_555 1_555
O6 N3 1_555 1_555
O7 N3 1_555 1_555
Ag1_2 N2 1_555 1_555
N2_2 Ag1 1_555 1_555
C10 C11 1_555 1_555
C15 C16 1_555 1_555

#END
