
#######################################################################
#
#                 Cambridge Crystallographic Data Centre
#                                CCDC 
#
#######################################################################
#
# If this CIF has been generated from an entry in the Cambridge 
# Structural Database, then it will include bibliographic, chemical, 
# crystal, experimental, refinement or atomic coordinate data resulting 
# from the CCDC's data processing and validation procedures.
#
#######################################################################

data_SOWTEF
_symmetry_cell_setting           monoclinic
_symmetry_space_group_name_H-M   'P 21/c'
_symmetry_Int_Tables_number      14
_space_group_name_Hall           '-P 2ybc'
loop_
_symmetry_equiv_pos_site_id
_symmetry_equiv_pos_as_xyz
1 x,y,z
2 -x,1/2+y,1/2-z
3 -x,-y,-z
4 x,1/2-y,1/2+z
_cell_length_a                   7.8979(12)
_cell_length_b                   19.091(3)
_cell_length_c                   23.674(3)
_cell_angle_alpha                90
_cell_angle_beta                 91.897(2)
_cell_angle_gamma                90
_cell_volume                     3567.58
loop_
_atom_site_label
_atom_site_type_symbol
_atom_site_fract_x
_atom_site_fract_y
_atom_site_fract_z
Co1 Co 0.35318(9) 0.63446(4) 0.21921(3)
C1 C 0.2467(7) 0.3601(3) 0.2718(2)
C2 C 0.1132(7) 0.4045(3) 0.2438(2)
H1 H 0.1039 0.4479 0.2648
H2 H 0.0054 0.3804 0.2455
C3 C 0.1461(8) 0.4220(3) 0.1821(2)
H3 H 0.2310 0.3900 0.1686
H4 H 0.0426 0.4140 0.1598
C4 C 0.2045(7) 0.4956(3) 0.1716(2)
C5 C 0.3711(8) 0.5953(3) -0.0079(2)
C6 C 0.3814(8) 0.5649(3) -0.0672(2)
H5 H 0.3097 0.5238 -0.0710
H6 H 0.4970 0.5512 -0.0744
C7 C 0.4008(8) 0.6623(3) 0.4851(2)
C8 C 0.7361(7) 0.6035(3) 0.2422(2)
C9 C 0.8703(7) 0.5613(3) 0.2733(3)
H7 H 0.9750 0.5879 0.2738
H8 H 0.8892 0.5187 0.2521
C10 C 0.8319(8) 0.5412(3) 0.3340(2)
H9 H 0.9313 0.5511 0.3578
H10 H 0.7409 0.5708 0.3467
C11 C 0.7822(7) 0.4658(3) 0.3429(2)
C12 C 0.3072(7) 0.5782(3) 0.3395(2)
C13 C 0.2718(8) 0.5972(3) 0.4000(2)
H11 H 0.1738 0.6277 0.4011
H12 H 0.2476 0.5551 0.4213
C14 C 0.4226(9) 0.6333(5) 0.4257(3)
H13 H 0.4529 0.6717 0.4012
H14 H 0.5166 0.6006 0.4270
C15 C 0.3435(7) 0.6037(3) -0.1707(2)
C16 C 0.3224(8) 0.6210(3) -0.1093(2)
H15 H 0.3843 0.6638 -0.1007
H16 H 0.2035 0.6304 -0.1035
O1 O 0.4551(4) 0.73237(17) 0.23320(14)
H17 H 0.5139 0.7340 0.2703
O2 O 0.4387(4) 0.64496(18) 0.13506(14)
O3 O 0.4476(4) 0.80500(18) 0.12871(14)
O4 O 0.1270(4) 0.66705(18) 0.17964(14)
H18 H 0.1147 0.7176 0.1797
H19 H 0.0286 0.6454 0.1958
O5 O 0.1349(4) 0.79586(18) 0.17390(14)
H20 H 0.0373 0.8205 0.1878
H21 H 0.1191 0.7457 0.1772
O6 O 0.2086(4) 0.72437(17) 0.06252(15)
H22 H 0.1667 0.7229 0.0231
O7 O 0.7169(4) 0.71940(19) 0.09289(14)
H23 H 0.7774 0.6762 0.0860
H24 H 0.7811 0.7599 0.0812
O8 O 0.2881(5) 0.52747(18) 0.21118(14)
O9 O 0.5827(4) 0.58585(18) 0.24802(15)
O10 O 0.2740(5) 0.62389(19) 0.30205(15)
O11 O 0.7839(5) 0.65292(19) 0.21192(15)
O12 O 0.2072(5) 0.30633(19) 0.29816(15)
O13 O 0.4970(5) 0.7118(2) 0.49872(17)
O14 O 0.4899(5) 0.6364(2) 0.00792(16)
O15 O 0.8422(6) 0.4341(2) 0.38471(16)
O16 O -0.0526(6) 0.8360(2) 0.0560(2)
H25 H -0.1156 0.7999 0.0535
H26 H -0.0897 0.8754 0.0445
O17 O 0.2910(6) 0.6350(2) 0.51563(17)
O18 O 0.1704(6) 0.5226(2) 0.12466(16)
O19 O -0.0773(5) 0.6140(2) 0.07566(18)
H27 H -0.1522 0.6204 0.1001
H28 H -0.1067 0.6023 0.0421
O20 O 0.2430(5) 0.5813(2) 0.02018(16)
O21 O 0.4111(5) 0.5463(2) -0.18347(15)
O22 O 0.4007(4) 0.38084(18) 0.26754(15)
O23 O 0.6834(5) 0.43787(18) 0.30596(15)
O24 O 0.3738(5) 0.5194(2) 0.33029(15)
O25 O 0.2905(5) 0.64953(19) -0.20625(15)
Co2 Co 0.62661(9) 0.72700(4) 0.17066(3)
Co3 Co 0.47130(9) 0.71893(4) 0.06424(3)
Co4 Co 0.19766(9) 0.82724(4) 0.09131(3)
Co5 Co 0.17694(9) 0.62699(4) 0.09818(3)
Co6 Co 0.48857(9) 0.48383(4) 0.25826(3)
Co7 Co 0.36431(9) 0.83039(4) 0.21146(3)
O12A O 0.7928(5) 0.80633(19) 0.20184(15)
O13C O 0.4970(5) 0.7882(2) -0.00128(17)
O15A O 0.1578(6) 0.9341(2) 0.11529(16)
O17C O 0.2910(6) 0.8650(2) 0.01563(17)
O21B O 0.5889(5) 0.4537(2) 0.18347(15)
O22A O 0.5993(4) 0.88084(18) 0.23246(15)
O23A O 0.3166(5) 0.93787(18) 0.19404(15)
O25C O 0.2905(5) 0.85047(19) 0.29375(15)
Co2A Co 0.37339(9) 0.22700(4) 0.32934(3)
Co3C Co 0.47130(9) 0.78107(4) 0.56424(3)
Co4A Co 0.80234(9) 0.32724(4) 0.40869(3)
Co4C Co 0.19766(9) 0.67276(4) 0.59131(3)
Co6B Co 0.51143(9) 0.51617(4) -0.25826(3)
Co7A Co 0.63569(9) 0.33039(4) 0.28854(3)
Co7C Co 0.36431(9) 0.66961(4) -0.28854(3)
O26 O 0.2987(7) 0.2386(3) 0.1738(2)
H29 H 0.305(6) 0.270(2) 0.1488(18)
H30 H 0.196(3) 0.226(3) 0.174(2)
O27 O 0.3378(7) 0.4140(2) 0.4119(2)
H31 H 0.321(7) 0.443(2) 0.3847(14)
H32 H 0.400(6) 0.435(2) 0.4364(15)
O28 O 0.0833(6) 0.7412(2) 0.3307(2)
H33 H 0.0422 0.7810 0.3219
H34 H 0.0673 0.7240 0.3633
O29 O 0.0222(10) 0.7532(4) 0.9538(3)
H35 H 0.075(7) 0.760(2) 0.9230(14)
H36 H -0.014(7) 0.7106(12) 0.951(2)
O30 O 0.9175(10) 0.5695(4) 0.9659(3)
H37 H 0.822(4) 0.592(3) 0.964(3)
H38 H 0.910(6) 0.5358(19) 0.9425(18)
O31 O 0.2757(8) 0.3117(4) 0.0673(3)
H39 H 0.3058 0.3094 0.0332
H40 H 0.2364 0.2757 0.0834
O32 O 0.232(2) 0.4819(5) 0.5123(3)
H41 H 0.2796 0.4434 0.5216
H42 H 0.1713 0.5033 0.5357
O33 O 0.813(7) 0.837(3) 0.955(2)
H43 H 0.9034 0.8590 0.9638
H44 H 0.7451 0.8247 0.9798
loop_
_geom_bond_atom_site_label_1
_geom_bond_atom_site_label_2
_geom_bond_site_symmetry_1
_geom_bond_site_symmetry_2
Co1 O1 1_555 1_555
C1 C2 1_555 1_555
C2 H1 1_555 1_555
H2 C2 1_555 1_555
C3 C2 1_555 1_555
H3 C3 1_555 1_555
H4 C3 1_555 1_555
C4 C3 1_555 1_555
C5 C6 1_555 1_555
C6 H5 1_555 1_555
H6 C6 1_555 1_555
C7 C14 1_555 1_555
C8 C9 1_555 1_555
C9 H7 1_555 1_555
H8 C9 1_555 1_555
C10 C9 1_555 1_555
H9 C10 1_555 1_555
H10 C10 1_555 1_555
C11 C10 1_555 1_555
C12 C13 1_555 1_555
C13 H11 1_555 1_555
H12 C13 1_555 1_555
C14 C13 1_555 1_555
H13 C14 1_555 1_555
H14 C14 1_555 1_555
C15 C16 1_555 1_555
C16 C6 1_555 1_555
H15 C16 1_555 1_555
H16 C16 1_555 1_555
O1 H17 1_555 1_555
O2 Co1 1_555 1_555
O3 Co2 1_555 1_555
O4 Co1 1_555 1_555
H18 O4 1_555 1_555
H19 O4 1_555 1_555
O5 H20 1_555 1_555
H21 O5 1_555 1_555
O6 H22 1_555 1_555
O7 H23 1_555 1_555
H24 O7 1_555 1_555
O8 Co1 1_555 1_555
O9 Co1 1_555 1_555
O10 Co1 1_555 1_555
O11 C8 1_555 1_555
O12 C1 1_555 1_555
O13 C7 1_555 1_555
O14 C5 1_555 1_555
O15 C11 1_555 1_555
O16 H25 1_555 1_555
H26 O16 1_555 1_555
O17 C7 1_555 1_555
O18 C4 1_555 1_555
O19 H27 1_555 1_555
H28 O19 1_555 1_555
O20 C5 1_555 1_555
O21 C15 1_555 1_555
O22 C1 1_555 1_555
O23 C11 1_555 1_555
O24 C12 1_555 1_555
O25 C15 1_555 1_555
Co2 O1 1_555 1_555
Co3 O2 1_555 1_555
Co4 O3 1_555 1_555
Co5 O2 1_555 1_555
Co6 O8 1_555 1_555
Co7 O1 1_555 1_555
O26 H29 1_555 1_555
H30 O26 1_555 1_555
O27 H31 1_555 1_555
H32 O27 1_555 1_555
O28 H33 1_555 1_555
H34 O28 1_555 1_555
O29 H35 1_555 1_555
H36 O29 1_555 1_555
O30 H37 1_555 1_555
H38 O30 1_555 1_555
O31 H39 1_555 1_555
H40 O31 1_555 1_555
O32 H41 1_555 1_555
H42 O32 1_555 1_555
O33 H43 1_555 1_555
H44 O33 1_555 1_555
O12A Co2 1_555 1_555
O13C Co3 1_555 1_555
O15A Co4 1_555 1_555
O17C Co4 1_555 1_555
O21B Co6 1_555 1_555
O22A Co7 1_555 1_555
O23A Co7 1_555 1_555
O25C Co7 1_555 1_555
Co2A O12 1_555 1_555
Co3C O13 1_555 1_555
Co4A O15 1_555 1_555
Co4C O17 1_555 1_555
Co6B O21 1_555 1_555
Co7A O22 1_555 1_555
Co7C O25 1_555 1_555
C4 O8 1_555 1_555
C8 O9 1_555 1_555
C12 O10 1_555 1_555
O2 Co2 1_555 1_555
O3 Co3 1_555 1_555
O3 Co7 1_555 1_555
O4 Co5 1_555 1_555
O5 Co4 1_555 1_555
O5 Co7 1_555 1_555
O6 Co3 1_555 1_555
O6 Co4 1_555 1_555
O6 Co5 1_555 1_555
O7 Co2 1_555 1_555
O7 Co3 1_555 1_555
O9 Co6 1_555 1_555
O11 Co2 1_555 1_555
O14 Co3 1_555 1_555
O16 Co4 1_555 1_555
O18 Co5 1_555 1_555
O19 Co5 1_555 1_555
O20 Co5 1_555 1_555
O22 Co6 1_555 1_555
O23 Co6 1_555 1_555
O23 Co7A 1_555 1_555
O24 Co6 1_555 1_555

#END
