
#######################################################################
#
#                 Cambridge Crystallographic Data Centre
#                                CCDC 
#
#######################################################################
#
# If this CIF has been generated from an entry in the Cambridge 
# Structural Database, then it will include bibliographic, chemical, 
# crystal, experimental, refinement or atomic coordinate data resulting 
# from the CCDC's data processing and validation procedures.
#
#######################################################################

data_SOWTIJ
_symmetry_cell_setting           orthorhombic
_symmetry_space_group_name_H-M   'P n a 21'
_symmetry_Int_Tables_number      33
_space_group_name_Hall           'P 2c -2n'
loop_
_symmetry_equiv_pos_site_id
_symmetry_equiv_pos_as_xyz
1 x,y,z
2 -x,-y,1/2+z
3 1/2+x,1/2-y,z
4 1/2-x,1/2+y,1/2+z
_cell_length_a                   8.4207(14)
_cell_length_b                   6.5836(11)
_cell_length_c                   12.911(2)
_cell_angle_alpha                90
_cell_angle_beta                 90
_cell_angle_gamma                90
_cell_volume                     715.767
loop_
_atom_site_label
_atom_site_type_symbol
_atom_site_fract_x
_atom_site_fract_y
_atom_site_fract_z
Co1 Co 0.33296(4) 0.05677(5) 0.51815(5)
N1 N 0.3450(3) 0.1395(5) 0.6696(3)
O1 O 0.4111(3) -0.1225(4) 1.0078(3)
O2 O 0.2073(3) -0.2324(4) 0.9125(2)
O3 O 0.5971(3) 0.2334(3) 1.0144(3)
O4 O 0.3909(3) 0.4331(3) 1.0306(3)
C1 C 0.3215(4) 0.0081(6) 0.7464(3)
H1 H 0.2802 -0.1188 0.7297
C2 C 0.3543(4) 0.0477(5) 0.8492(3)
C3 C 0.4138(4) 0.2388(5) 0.8756(3)
C4 C 0.4302(5) 0.3825(5) 0.7964(3)
H2 H 0.4633 0.5139 0.8117
C5 C 0.3971(4) 0.3283(6) 0.6960(3)
H3 H 0.4107 0.4244 0.6440
C6 C 0.3238(4) -0.1139(5) 0.9295(3)
C7 C 0.4662(4) 0.3022(5) 0.9829(3)
Co1A Co 0.66704(4) -0.05677(5) 1.01815(5)
Co1C Co 0.16704(4) -0.44323(5) 1.01815(5)
Co1C_2 Co 0.16704(4) 0.55677(5) 1.01815(5)
O1A O 0.5889(3) 0.1225(4) 0.5078(3)
O2C O 0.2927(3) 0.2676(4) 0.4125(2)
O3A O 0.4029(3) -0.2334(3) 0.5144(3)
O4C O 0.1091(3) -0.0669(3) 0.5306(3)
loop_
_geom_bond_atom_site_label_1
_geom_bond_atom_site_label_2
_geom_bond_site_symmetry_1
_geom_bond_site_symmetry_2
Co1 N1 1_555 1_555
N1 C1 1_555 1_555
O1 C6 1_555 1_555
O2 C6 1_555 1_555
O3 C7 1_555 1_555
O4 C7 1_555 1_555
C1 H1 1_555 1_555
C2 C1 1_555 1_555
C3 C2 1_555 1_555
C4 C3 1_555 1_555
H2 C4 1_555 1_555
C5 N1 1_555 1_555
H3 C5 1_555 1_555
C6 C2 1_555 1_555
C7 C3 1_555 1_555
Co1A O1 1_555 1_555
Co1C O2 1_555 1_555
Co1C_2 O4 1_555 1_555
O1A Co1 1_555 1_555
O2C Co1 1_555 1_555
O3A Co1 1_555 1_555
O4C Co1 1_555 1_555
O3 Co1A 1_555 1_555
C4 C5 1_555 1_555

#END
