
#######################################################################
#
#                 Cambridge Crystallographic Data Centre
#                                CCDC 
#
#######################################################################
#
# If this CIF has been generated from an entry in the Cambridge 
# Structural Database, then it will include bibliographic, chemical, 
# crystal, experimental, refinement or atomic coordinate data resulting 
# from the CCDC's data processing and validation procedures.
#
#######################################################################

data_SOWXIN
_symmetry_cell_setting           monoclinic
_symmetry_space_group_name_H-M   'P 2/c'
_symmetry_Int_Tables_number      13
_space_group_name_Hall           '-P 2yc'
loop_
_symmetry_equiv_pos_site_id
_symmetry_equiv_pos_as_xyz
1 x,y,z
2 -x,y,1/2-z
3 -x,-y,-z
4 x,-y,1/2+z
_cell_length_a                   13.7429(7)
_cell_length_b                   15.6636(6)
_cell_length_c                   12.5212(8)
_cell_angle_alpha                90
_cell_angle_beta                 117.031(2)
_cell_angle_gamma                90
_cell_volume                     2400.92
loop_
_atom_site_label
_atom_site_type_symbol
_atom_site_fract_x
_atom_site_fract_y
_atom_site_fract_z
C1 C 0.6297(5) 0.6327(4) 0.3906(5)
C2 C 0.5875(5) 0.7152(4) 0.4154(6)
H1 H 0.5965 0.7133 0.4984
H2 H 0.5083 0.7190 0.3608
C3 C 0.6419(7) 0.7957(4) 0.4013(7)
H3 H 0.6344 0.7977 0.3188
H4 H 0.7208 0.7933 0.4575
C4 C 0.5944(6) 0.8771(4) 0.4245(6)
H5 H 0.6035 0.8760 0.5075
H6 H 0.5152 0.8792 0.3693
C5 C 0.6490(6) 0.9581(4) 0.4071(7)
H7 H 0.7278 0.9565 0.4641
H8 H 0.6424 0.9577 0.3250
C6 C 0.6008(6) 1.0410(4) 0.4256(7)
H9 H 0.6112 1.0431 0.5091
H10 H 0.5212 1.0415 0.3716
C7 C 0.6521(6) 1.1203(4) 0.4013(7)
H11 H 0.7314 1.1201 0.4563
H12 H 0.6431 1.1173 0.3183
C8 C 0.6034(6) 1.2037(4) 0.4169(6)
H13 H 0.6181 1.2098 0.5016
H14 H 0.5232 1.2028 0.3665
C9 C 0.6518(6) 1.2801(3) 0.3814(7)
H15 H 0.7319 1.2796 0.4319
H16 H 0.6379 1.2722 0.2973
C10 C 0.6095(5) 1.3666(4) 0.3923(6)
C11 C 0.8738(6) 0.6329(3) 0.2584(7)
C12 C 0.9100(6) 0.7157(4) 0.3269(6)
H17 H 0.9902 0.7207 0.3591
H18 H 0.8935 0.7133 0.3960
C13 C 0.8577(5) 0.7956(3) 0.2549(8)
H19 H 0.7776 0.7923 0.2248
H20 H 0.8725 0.7981 0.1846
C14 C 0.9004(6) 0.8767(4) 0.3287(7)
H21 H 0.8811 0.8759 0.3959
H22 H 0.9810 0.8779 0.3634
C15 C 0.8542(6) 0.9576(4) 0.2552(8)
H23 H 0.8712 0.9571 0.1864
H24 H 0.7737 0.9569 0.2226
C16 C 0.8978(7) 1.0402(4) 0.3251(7)
H25 H 0.8787 1.0420 0.3924
H26 H 0.9785 1.0405 0.3596
C17 C 0.8526(6) 1.1196(4) 0.2481(8)
H27 H 0.8711 1.1167 0.1805
H28 H 0.7720 1.1185 0.2138
C18 C 0.8929(6) 1.2040(4) 0.3115(7)
H29 H 0.9737 1.2052 0.3482
H30 H 0.8716 1.2088 0.3770
C19 C 0.8479(6) 1.2802(4) 0.2286(7)
H31 H 0.7671 1.2786 0.1925
H32 H 0.8682 1.2743 0.1626
C20 C 0.8865(5) 1.3670(3) 0.2869(7)
O1 O 0.5854(4) 0.5651(3) 0.4088(4)
O2 O 0.6984(4) 0.6308(3) 0.3550(5)
O3 O 0.6524(3) 1.4310(3) 0.3659(4)
O4 O 0.5352(4) 1.3740(2) 0.4211(5)
O5 O 0.9167(4) 0.5651(3) 0.3226(4)
O6 O 0.8076(4) 0.6294(3) 0.1509(5)
O7 O 0.9520(4) 1.3741(3) 0.3915(5)
O8 O 0.8423(4) 1.4302(3) 0.2128(4)
Rb1 Rb 0.63115(6) 0.51264(3) 0.14350(7)
Rb2 Rb 0.86950(6) 0.50116(9) 0.51410(7)
O1A O 0.4146(4) 0.5651(3) 0.0912(4)
O1C O 0.5854(4) 0.4349(3) -0.0912(4)
O3_2 O 0.6524(3) 0.4310(3) 0.3659(4)
O4A O 0.4648(4) 0.3740(2) 0.0789(5)
O4C O 0.5352(4) 0.6260(2) -0.0789(5)
O5B O 1.0833(4) 0.4349(3) 0.6774(4)
O6C O 0.8076(4) 0.3706(3) 0.6509(5)
O7_2 O 0.9520(4) 0.3741(3) 0.3915(5)
O7B O 1.0480(4) 0.6259(3) 0.6085(5)
O8_2 O 0.8423(4) 0.4302(3) 0.2128(4)
O8C O 0.8423(4) 0.5698(3) 0.7128(4)
Rb1_2 Rb 0.63115(6) 1.51264(3) 0.14350(7)
Rb1A Rb 0.36885(6) 0.51264(3) 0.35650(7)
Rb1A_2 Rb 0.36885(6) 1.51264(3) 0.35650(7)
Rb1C Rb 0.63115(6) 0.48736(3) 0.64350(7)
Rb1C_2 Rb 0.63115(6) 1.48736(3) 0.64350(7)
Rb2_2 Rb 0.86950(6) 1.50116(9) 0.51410(7)
Rb2B Rb 1.13050(6) 0.49884(9) 0.48590(7)
Rb2B_2 Rb 1.13050(6) 1.49884(9) 0.48590(7)
Rb2C Rb 0.86950(6) 0.49884(9) 0.01410(7)
Rb2C_2 Rb 0.86950(6) 1.49884(9) 0.01410(7)
loop_
_geom_bond_atom_site_label_1
_geom_bond_atom_site_label_2
_geom_bond_site_symmetry_1
_geom_bond_site_symmetry_2
C1 C2 1_555 1_555
C2 H1 1_555 1_555
H2 C2 1_555 1_555
C3 C2 1_555 1_555
H3 C3 1_555 1_555
H4 C3 1_555 1_555
C4 C3 1_555 1_555
H5 C4 1_555 1_555
H6 C4 1_555 1_555
C5 C4 1_555 1_555
H7 C5 1_555 1_555
H8 C5 1_555 1_555
C6 C5 1_555 1_555
H9 C6 1_555 1_555
H10 C6 1_555 1_555
C7 C6 1_555 1_555
H11 C7 1_555 1_555
H12 C7 1_555 1_555
C8 C7 1_555 1_555
H13 C8 1_555 1_555
H14 C8 1_555 1_555
C9 C8 1_555 1_555
H15 C9 1_555 1_555
H16 C9 1_555 1_555
C10 C9 1_555 1_555
C11 C12 1_555 1_555
C12 H17 1_555 1_555
H18 C12 1_555 1_555
C13 C12 1_555 1_555
H19 C13 1_555 1_555
H20 C13 1_555 1_555
C14 C13 1_555 1_555
H21 C14 1_555 1_555
H22 C14 1_555 1_555
C15 C14 1_555 1_555
H23 C15 1_555 1_555
H24 C15 1_555 1_555
C16 C15 1_555 1_555
H25 C16 1_555 1_555
H26 C16 1_555 1_555
C17 C16 1_555 1_555
H27 C17 1_555 1_555
H28 C17 1_555 1_555
C18 C17 1_555 1_555
H29 C18 1_555 1_555
H30 C18 1_555 1_555
C19 C18 1_555 1_555
H31 C19 1_555 1_555
H32 C19 1_555 1_555
C20 C19 1_555 1_555
O1 C1 1_555 1_555
O2 C1 1_555 1_555
O3 C10 1_555 1_555
O4 C10 1_555 1_555
O5 C11 1_555 1_555
O6 C11 1_555 1_555
O7 C20 1_555 1_555
O8 C20 1_555 1_555
Rb1 O2 1_555 1_555
Rb2 O2 1_555 1_555
O1A Rb1 1_555 1_555
O1C Rb1 1_555 1_555
O3_2 Rb1 1_555 1_555
O4A Rb1 1_555 1_555
O4C Rb1 1_555 1_555
O5B Rb2 1_555 1_555
O6C Rb2 1_555 1_555
O7_2 Rb2 1_555 1_555
O7B Rb2 1_555 1_555
O8_2 Rb1 1_555 1_555
O8C Rb2 1_555 1_555
Rb1_2 O3 1_555 1_555
Rb1A O1 1_555 1_555
Rb1A_2 O4 1_555 1_555
Rb1C O1 1_555 1_555
Rb1C_2 O4 1_555 1_555
Rb2_2 O3 1_555 1_555
Rb2B O5 1_555 1_555
Rb2B_2 O7 1_555 1_555
Rb2C O6 1_555 1_555
Rb2C_2 O8 1_555 1_555
O5 Rb2 1_555 1_555
O6 Rb1 1_555 1_555
O7 Rb2_2 1_555 1_555
O8 Rb1_2 1_555 1_555
Rb2 O3_2 1_555 1_555
O5B Rb2B 1_555 1_555
O6C Rb1C 1_555 1_555
O7_2 Rb2B 1_555 1_555
O7B Rb2B 1_555 1_555
O8_2 Rb2C 1_555 1_555
O8C Rb1C 1_555 1_555

#END
