
#######################################################################
#
#                 Cambridge Crystallographic Data Centre
#                                CCDC 
#
#######################################################################
#
# If this CIF has been generated from an entry in the Cambridge 
# Structural Database, then it will include bibliographic, chemical, 
# crystal, experimental, refinement or atomic coordinate data resulting 
# from the CCDC's data processing and validation procedures.
#
#######################################################################

data_SOWXUZ
_symmetry_cell_setting           monoclinic
_symmetry_space_group_name_H-M   'P 21/c'
_symmetry_Int_Tables_number      14
_space_group_name_Hall           '-P 2ybc'
loop_
_symmetry_equiv_pos_site_id
_symmetry_equiv_pos_as_xyz
1 x,y,z
2 -x,1/2+y,1/2-z
3 -x,-y,-z
4 x,1/2-y,1/2+z
_cell_length_a                   12.8551(13)
_cell_length_b                   7.8218(7)
_cell_length_c                   9.2928(9)
_cell_angle_alpha                90
_cell_angle_beta                 94.653(7)
_cell_angle_gamma                90
_cell_volume                     931.312
loop_
_atom_site_label
_atom_site_type_symbol
_atom_site_fract_x
_atom_site_fract_y
_atom_site_fract_z
C1 C 0.68926(17) 0.1602(3) 0.0353(2)
C2 C 0.79321(18) 0.1890(3) -0.0266(2)
H1 H 0.7866 0.2908 -0.0900
H2 H 0.8073 0.0898 -0.0882
C3 C 0.88788(17) 0.2147(3) 0.0815(2)
H3 H 0.8754 0.3135 0.1444
H4 H 0.8977 0.1120 0.1434
C4 C 0.98616(18) 0.2461(3) 0.0045(2)
H5 H 0.9955 0.1489 -0.0614
H6 H 0.9753 0.3500 -0.0558
C5 C 1.08635(17) 0.2683(3) 0.1014(2)
H7 H 1.1006 0.1628 0.1584
H8 H 1.0779 0.3636 0.1696
C6 C 1.17810(17) 0.3059(3) 0.0123(2)
H9 H 1.1827 0.2118 -0.0582
H10 H 1.1618 0.4116 -0.0437
C7 C 1.28475(17) 0.3278(3) 0.0916(2)
Na1 Na 0.65026(7) 0.51075(11) 0.22072(9)
Na2 Na 0.44743(7) 0.33967(11) 0.39749(9)
O1 O 0.67188(12) 0.23665(19) 0.14980(17)
O2 O 0.62418(12) 0.06241(19) -0.03405(16)
O3 O 0.47602(12) 0.5829(2) 0.20364(17)
O4 O 1.29861(12) 0.28928(19) 0.22316(16)
O5 O 1.35666(12) 0.38379(19) 0.01742(16)
H11 H 0.4319(15) 0.634(3) 0.250(2)
H12 H 0.4414(16) 0.522(3) 0.142(2)
Na1A Na 1.34974(7) 0.01075(11) 0.27928(9)
Na1B Na 1.34974(7) 0.48925(11) -0.22072(9)
Na1C Na 0.65026(7) -0.01075(11) -0.27928(9)
Na2_2 Na 1.44743(7) 0.33967(11) 0.39749(9)
Na2A Na 0.55257(7) -0.16033(11) 0.10251(9)
Na2A_2 Na 0.55257(7) 0.83967(11) 0.10251(9)
Na2C Na 0.44743(7) 0.16033(11) -0.10251(9)
Na2C_2 Na 1.44743(7) 0.16033(11) -0.10251(9)
O2A O 0.37582(12) 0.56241(19) 0.53405(16)
O2C O 0.62418(12) 0.43759(19) 0.46595(16)
O3A O 0.52398(12) 0.0829(2) 0.29636(17)
O4_2 O 0.29861(12) 0.28928(19) 0.22316(16)
O4A O 0.70139(12) 0.78928(19) 0.27684(16)
O5B O 0.64334(12) 0.61621(19) -0.01742(16)
O5C O 0.35666(12) 0.11621(19) 0.51742(16)
loop_
_geom_bond_atom_site_label_1
_geom_bond_atom_site_label_2
_geom_bond_site_symmetry_1
_geom_bond_site_symmetry_2
C1 C2 1_555 1_555
C2 H1 1_555 1_555
H2 C2 1_555 1_555
C3 C2 1_555 1_555
H3 C3 1_555 1_555
H4 C3 1_555 1_555
C4 C3 1_555 1_555
H5 C4 1_555 1_555
H6 C4 1_555 1_555
C5 C4 1_555 1_555
H7 C5 1_555 1_555
H8 C5 1_555 1_555
C6 C5 1_555 1_555
H9 C6 1_555 1_555
H10 C6 1_555 1_555
C7 C6 1_555 1_555
Na1 O1 1_555 1_555
Na2 O3 1_555 1_555
O1 C1 1_555 1_555
O2 C1 1_555 1_555
O3 Na1 1_555 1_555
O4 C7 1_555 1_555
O5 C7 1_555 1_555
H11 O3 1_555 1_555
H12 O3 1_555 1_555
Na1A O4 1_555 1_555
Na1B O5 1_555 1_555
Na1C O2 1_555 1_555
Na2_2 O4 1_555 1_555
Na2A O2 1_555 1_555
Na2A_2 O3 1_555 1_555
Na2C O2 1_555 1_555
Na2C_2 O5 1_555 1_555
O2A Na2 1_555 1_555
O2C Na1 1_555 1_555
O3A Na2 1_555 1_555
O4_2 Na2 1_555 1_555
O4A Na1 1_555 1_555
O5B Na1 1_555 1_555
O5C Na2 1_555 1_555
Na2 O2C 1_555 1_555
Na2A O3A 1_555 1_555
Na2A_2 O4A 1_555 1_555
Na2A_2 O5B 1_555 1_555

#END
