
#######################################################################
#
#                 Cambridge Crystallographic Data Centre
#                                CCDC 
#
#######################################################################
#
# If this CIF has been generated from an entry in the Cambridge 
# Structural Database, then it will include bibliographic, chemical, 
# crystal, experimental, refinement or atomic coordinate data resulting 
# from the CCDC's data processing and validation procedures.
#
#######################################################################

data_SOWYOU
_symmetry_cell_setting           monoclinic
_symmetry_space_group_name_H-M   'C 2/m'
_symmetry_Int_Tables_number      12
_space_group_name_Hall           '-C 2y'
loop_
_symmetry_equiv_pos_site_id
_symmetry_equiv_pos_as_xyz
1 x,y,z
2 -x,y,-z
3 1/2+x,1/2+y,z
4 1/2-x,1/2+y,-z
5 -x,-y,-z
6 x,-y,z
7 1/2-x,1/2-y,-z
8 1/2+x,1/2-y,z
_cell_length_a                   12.9361(7)
_cell_length_b                   28.9650(15)
_cell_length_c                   9.9463(7)
_cell_angle_alpha                90
_cell_angle_beta                 103.090(7)
_cell_angle_gamma                90
_cell_volume                     3629.98
loop_
_atom_site_label
_atom_site_type_symbol
_atom_site_fract_x
_atom_site_fract_y
_atom_site_fract_z
C1 C 0.4516(6) 0.1771(3) 0.6778(7)
C2 C 0.3988(6) 0.1317(2) 0.6202(8)
H1 H 0.3239 0.1324 0.6282
H2 H 0.3985 0.1301 0.5207
C3 C 0.4498(6) 0.0880(2) 0.6890(8)
H3 H 0.4475 0.0885 0.7878
H4 H 0.5253 0.0873 0.6836
C4 C 0.3954(6) 0.0442(2) 0.6230(8)
H5 H 0.3970 0.0438 0.5240
H6 H 0.3201 0.0447 0.6294
C5 C 0.4480(10) 0.0000 0.6917(12)
H7 H 0.5238 0.0000 0.6878
H8 H 0.4446 0.0000 0.7902
C6 C 0.7642(6) 0.1763(3) 0.9905(8)
C7 C 0.7244(6) 0.1310(3) 1.0343(9)
H9 H 0.6458 0.1312 1.0087
H10 H 0.7462 0.1286 1.1361
C8 C 0.7639(7) 0.0885(3) 0.9714(8)
H11 H 0.8425 0.0878 0.9970
H12 H 0.7416 0.0903 0.8695
C9 C 0.7615(10) 0.0000 0.9669(12)
H13 H 0.7403 0.0000 0.8648
H14 H 0.8401 0.0000 0.9936
C10 C 0.7204(7) 0.0438(2) 1.0210(10)
H15 H 0.7395 0.0432 1.1231
H16 H 0.6420 0.0442 0.9916
C11 C 0.4395(6) 0.3237(3) 0.6448(8)
C12 C 0.4828(6) 0.3693(2) 0.7038(8)
H17 H 0.5558 0.3728 0.6896
H18 H 0.4878 0.3689 0.8046
C13 C 0.4189(7) 0.4114(3) 0.6436(8)
H19 H 0.3466 0.4091 0.6606
H20 H 0.4123 0.4121 0.5425
C14 C 0.4713(7) 0.4565(3) 0.7076(9)
H21 H 0.4742 0.4561 0.8079
H22 H 0.5452 0.4574 0.6958
C15 C 0.4143(10) 0.5000 0.6455(13)
H23 H 0.4089 0.5000 0.5447
H24 H 0.3414 0.5000 0.6611
Cs1 Cs 0.5000 0.24694(2) 1.0000
Cs2 Cs 0.69763(4) 0.239624(17) 0.67056(5)
O1 O 0.4063(4) 0.21351(17) 0.6231(5)
O2 O 0.5341(4) 0.17677(17) 0.7708(6)
O3 O 0.7287(4) 0.21269(17) 1.0453(5)
O4 O 0.8231(4) 0.17878(17) 0.9090(5)
O5 O 0.3610(4) 0.32033(16) 0.5476(5)
O6 O 0.4899(4) 0.28780(17) 0.7077(5)
C1E C 0.4516(6) -0.1771(3) 0.6778(7)
C2E C 0.3988(6) -0.1317(2) 0.6202(8)
H1E H 0.3239 -0.1324 0.6282
H2E H 0.3985 -0.1301 0.5207
C3E C 0.4498(6) -0.0880(2) 0.6890(8)
H3E H 0.4475 -0.0885 0.7878
H4E H 0.5253 -0.0873 0.6836
C4E C 0.3954(6) -0.0442(2) 0.6230(8)
H5E H 0.3970 -0.0438 0.5240
H6E H 0.3201 -0.0447 0.6294
O1E O 0.4063(4) -0.21351(17) 0.6231(5)
O2E O 0.5341(4) -0.17677(17) 0.7708(6)
C6E C 0.7642(6) -0.1763(3) 0.9905(8)
C7E C 0.7244(6) -0.1310(3) 1.0343(9)
H9E H 0.6458 -0.1312 1.0087
H10E H 0.7462 -0.1286 1.1361
C8E C 0.7639(7) -0.0885(3) 0.9714(8)
H11E H 0.8425 -0.0878 0.9970
H12E H 0.7416 -0.0903 0.8695
C10E C 0.7204(7) -0.0438(2) 1.0210(10)
H15E H 0.7395 -0.0432 1.1231
H16E H 0.6420 -0.0442 0.9916
O3E O 0.7287(4) -0.21269(17) 1.0453(5)
O4E O 0.8231(4) -0.17878(17) 0.9090(5)
C11E C 0.4395(6) 0.6763(3) 0.6448(8)
C12E C 0.4828(6) 0.6307(2) 0.7038(8)
H17E H 0.5558 0.6272 0.6896
H18E H 0.4878 0.6311 0.8046
C13E C 0.4189(7) 0.5886(3) 0.6436(8)
H19E H 0.3466 0.5909 0.6606
H20E H 0.4123 0.5879 0.5425
C14E C 0.4713(7) 0.5435(3) 0.7076(9)
H21E H 0.4742 0.5439 0.8079
H22E H 0.5452 0.5426 0.6958
O5E O 0.3610(4) 0.67967(16) 0.5476(5)
O6E O 0.4899(4) 0.71220(17) 0.7077(5)
Cs2A Cs 0.30237(4) 0.239624(17) 0.32944(5)
Cs1B Cs 1.0000 -0.25306(2) 1.0000
Cs1D Cs 0.5000 -0.24694(2) 1.0000
Cs1D_2 Cs 0.5000 0.75306(2) 1.0000
Cs1F Cs 1.0000 0.25306(2) 1.0000
Cs2B Cs 0.19763(4) -0.260376(17) 0.67056(5)
Cs2B_2 Cs 0.19763(4) 0.739624(17) 0.67056(5)
Cs2C Cs 0.80237(4) -0.260376(17) 1.32944(5)
Cs2D Cs 0.30237(4) -0.239624(17) 0.32944(5)
Cs2D_2 Cs 0.30237(4) 0.760376(17) 0.32944(5)
Cs2E Cs 0.69763(4) -0.239624(17) 0.67056(5)
Cs2E_2 Cs 0.69763(4) 0.760376(17) 0.67056(5)
Cs2F Cs 0.80237(4) 0.260376(17) 1.32944(5)
Cs2G Cs 0.19763(4) 0.260376(17) 0.67056(5)
O1A O 0.5937(4) 0.21351(17) 0.3769(5)
O1F O 0.0937(4) 0.28649(17) 0.3769(5)
O1G O 0.9063(4) 0.28649(17) 0.6231(5)
O2A O 0.4659(4) 0.17677(17) 0.2292(6)
O2A_2 O 0.4659(4) 0.17677(17) 1.2292(6)
O3A O 0.2713(4) 0.21269(17) 0.9547(5)
O3F O 0.7713(4) 0.28731(17) 0.9547(5)
O3G O 0.2287(4) 0.28731(17) 0.0453(5)
O4A O 0.1769(4) 0.17878(17) 0.0910(5)
O4F O 0.6769(4) 0.32122(17) 1.0910(5)
O4G O 0.3231(4) 0.32122(17) 0.9090(5)
O5A O 0.6390(4) 0.32033(16) 0.4524(5)
O5F O 0.1390(4) 0.17967(16) 0.4524(5)
O5G O 0.8610(4) 0.17967(16) 0.5476(5)
O6A O 0.5101(4) 0.28780(17) 0.2923(5)
O6A_2 O 0.5101(4) 0.28780(17) 1.2923(5)
loop_
_geom_bond_atom_site_label_1
_geom_bond_atom_site_label_2
_geom_bond_site_symmetry_1
_geom_bond_site_symmetry_2
C1 C2 1_555 1_555
C2 H1 1_555 1_555
H2 C2 1_555 1_555
C3 C2 1_555 1_555
H3 C3 1_555 1_555
H4 C3 1_555 1_555
C4 C3 1_555 1_555
H5 C4 1_555 1_555
H6 C4 1_555 1_555
C5 C4 1_555 1_555
H7 C5 1_555 1_555
H8 C5 1_555 1_555
C6 C7 1_555 1_555
C7 H9 1_555 1_555
H10 C7 1_555 1_555
C8 C7 1_555 1_555
H11 C8 1_555 1_555
H12 C8 1_555 1_555
C9 H13 1_555 1_555
H14 C9 1_555 1_555
C10 C8 1_555 1_555
H15 C10 1_555 1_555
H16 C10 1_555 1_555
C11 C12 1_555 1_555
C12 H17 1_555 1_555
H18 C12 1_555 1_555
C13 C12 1_555 1_555
H19 C13 1_555 1_555
H20 C13 1_555 1_555
C14 C13 1_555 1_555
H21 C14 1_555 1_555
H22 C14 1_555 1_555
C15 C14 1_555 1_555
H23 C15 1_555 1_555
H24 C15 1_555 1_555
Cs1 O2 1_555 1_555
Cs2 O2 1_555 1_555
O1 C1 1_555 1_555
O2 C1 1_555 1_555
O3 C6 1_555 1_555
O4 C6 1_555 1_555
O5 C11 1_555 1_555
O6 C11 1_555 1_555
C1E C2E 1_555 1_555
C2E H1E 1_555 1_555
H2E C2E 1_555 1_555
C3E C2E 1_555 1_555
H3E C3E 1_555 1_555
H4E C3E 1_555 1_555
C4E C5 1_555 1_555
H5E C4E 1_555 1_555
H6E C4E 1_555 1_555
O1E C1E 1_555 1_555
O2E C1E 1_555 1_555
C6E C7E 1_555 1_555
C7E H9E 1_555 1_555
H10E C7E 1_555 1_555
C8E C7E 1_555 1_555
H11E C8E 1_555 1_555
H12E C8E 1_555 1_555
C10E C9 1_555 1_555
H15E C10E 1_555 1_555
H16E C10E 1_555 1_555
O3E C6E 1_555 1_555
O4E C6E 1_555 1_555
C11E C12E 1_555 1_555
C12E H17E 1_555 1_555
H18E C12E 1_555 1_555
C13E C12E 1_555 1_555
H19E C13E 1_555 1_555
H20E C13E 1_555 1_555
C14E C15 1_555 1_555
H21E C14E 1_555 1_555
H22E C14E 1_555 1_555
O5E C11E 1_555 1_555
O6E C11E 1_555 1_555
Cs2A O1 1_555 1_555
Cs1B O4E 1_555 1_555
Cs1D O2E 1_555 1_555
Cs1D_2 O6E 1_555 1_555
Cs1F O4 1_555 1_555
Cs2B O1E 1_555 1_555
Cs2B_2 O5E 1_555 1_555
Cs2C O3E 1_555 1_555
Cs2D O1E 1_555 1_555
Cs2D_2 O5E 1_555 1_555
Cs2E O2E 1_555 1_555
Cs2E_2 O6E 1_555 1_555
Cs2F O3 1_555 1_555
Cs2G O1 1_555 1_555
O1A Cs2 1_555 1_555
O1F Cs2A 1_555 1_555
O1G Cs2 1_555 1_555
O2A Cs2A 1_555 1_555
O2A_2 Cs1 1_555 1_555
O3A Cs1 1_555 1_555
O3F Cs2 1_555 1_555
O3G Cs2A 1_555 1_555
O4A Cs2A 1_555 1_555
O4F Cs1 1_555 1_555
O4G Cs1 1_555 1_555
O5A Cs2 1_555 1_555
O5F Cs2A 1_555 1_555
O5G Cs2 1_555 1_555
O6A Cs2A 1_555 1_555
O6A_2 Cs1 1_555 1_555
C9 C10 1_555 1_555
Cs1 O3 1_555 1_555
Cs1 O6 1_555 1_555
Cs2 O4 1_555 1_555
Cs2 O6 1_555 1_555
O5 Cs2A 1_555 1_555
O5 Cs2G 1_555 1_555
C3E C4E 1_555 1_555
C8E C10E 1_555 1_555
O3E Cs1D 1_555 1_555
O4E Cs2E 1_555 1_555
C13E C14E 1_555 1_555
Cs1F O3F 1_555 1_555
Cs2F O4F 1_555 1_555
Cs2G O1F 1_555 1_555
Cs2G O3A 1_555 1_555
Cs2G O4G 1_555 1_555
Cs2G O5F 1_555 1_555

#END
