
#######################################################################
#
#                 Cambridge Crystallographic Data Centre
#                                CCDC 
#
#######################################################################
#
# If this CIF has been generated from an entry in the Cambridge 
# Structural Database, then it will include bibliographic, chemical, 
# crystal, experimental, refinement or atomic coordinate data resulting 
# from the CCDC's data processing and validation procedures.
#
#######################################################################

data_SOWYOS
_symmetry_cell_setting           monoclinic
_symmetry_space_group_name_H-M   'P 21/n'
_symmetry_Int_Tables_number      14
_space_group_name_Hall           '-P 2yn'
loop_
_symmetry_equiv_pos_site_id
_symmetry_equiv_pos_as_xyz
1 x,y,z
2 1/2-x,1/2+y,1/2-z
3 -x,-y,-z
4 1/2+x,1/2-y,1/2+z
_cell_length_a                   11.759(2)
_cell_length_b                   11.231(3)
_cell_length_c                   16.927(3)
_cell_angle_alpha                90
_cell_angle_beta                 93.91(1)
_cell_angle_gamma                90
_cell_volume                     2230.27
loop_
_atom_site_label
_atom_site_type_symbol
_atom_site_fract_x
_atom_site_fract_y
_atom_site_fract_z
Rb1 Rb -0.1401(1) 0.4811(1) 0.5692(1)
N1 N 0.0657(5) 0.6305(5) 0.5894(3)
Si1 Si 0.1575(2) 0.5739(2) 0.6575(1)
C1 C 0.1084(9) 0.5773(13) 0.7613(5)
C2 C 0.3041(7) 0.6443(8) 0.6650(6)
C3 C 0.1860(9) 0.4124(8) 0.6382(6)
Si2 Si 0.0351(2) 0.7734(2) 0.5684(1)
C4 C -0.1225(7) 0.7984(8) 0.5435(6)
C5 C 0.0750(8) 0.8851(8) 0.6488(6)
C6 C 0.1079(11) 0.8288(9) 0.4795(6)
O1 O -0.2607(5) 0.6276(5) 0.7078(3)
O2 O -0.3354(6) 0.8226(5) 0.7950(4)
C7 C -0.3669(8) 0.6268(8) 0.7406(6)
C8 C -0.4142(8) 0.7508(8) 0.7464(6)
C9 C -0.2285(8) 0.8237(9) 0.7623(7)
C10 C -0.1824(9) 0.6987(9) 0.7555(7)
O3 O -0.3926(5) 0.4860(5) 0.5417(4)
C11 C -0.4827(7) 0.4042(8) 0.5514(6)
C12 C -0.4396(7) 0.6017(8) 0.5224(6)
H1 H 0.0924 0.6615 0.7738
H2 H 0.0344 0.5350 0.7546
H3 H 0.1521 0.5423 0.8076
H4 H 0.3625 0.5960 0.6953
H5 H 0.2909 0.7214 0.6912
H6 H 0.3229 0.6552 0.6093
H7 H 0.2467 0.3774 0.6744
H8 H 0.2229 0.4064 0.5876
H9 H 0.1342 0.3430 0.6324
H10 H -0.1337 0.8838 0.5307
H11 H -0.1481 0.7428 0.5005
H12 H -0.1419 0.7747 0.5972
H13 H 0.0420 0.9632 0.6329
H14 H 0.1578 0.8993 0.6578
H15 H 0.0482 0.8698 0.7020
H16 H 0.0820 0.9098 0.4924
H17 H 0.0692 0.7936 0.4310
H18 H 0.1913 0.8164 0.4852
H19 H -0.3579 0.5837 0.7963
H20 H -0.4251 0.5661 0.7117
H21 H -0.4121 0.7701 0.6852
H22 H -0.4972 0.7449 0.7666
H23 H -0.1712 0.8661 0.8045
H24 H -0.2648 0.8482 0.7056
H25 H -0.0979 0.6830 0.7397
H26 H -0.1866 0.6853 0.8172
H27 H -0.5268 0.4172 0.6033
H28 H -0.4397 0.3219 0.5604
H29 H -0.3730 0.6644 0.5182
H30 H -0.4853 0.6171 0.5733
C12B C -0.5604(7) 0.3983(8) 0.4776(6)
O3B O -0.6074(5) 0.5140(5) 0.4583(4)
C11B C -0.5173(7) 0.5958(8) 0.4486(6)
H27B H -0.4732 0.5828 0.3967
H28B H -0.5603 0.6781 0.4396
H29B H -0.6270 0.3356 0.4818
H30B H -0.5147 0.3829 0.4267
N1B N -0.0657(5) 0.3695(5) 0.4106(3)
Si1B Si -0.1575(2) 0.4261(2) 0.3425(1)
C1B C -0.1084(9) 0.4227(13) 0.2387(5)
C2B C -0.3041(7) 0.3557(8) 0.3350(6)
C3B C -0.1860(9) 0.5876(8) 0.3618(6)
Si2B Si -0.0351(2) 0.2266(2) 0.4316(1)
C4B C 0.1225(7) 0.2016(8) 0.4565(6)
C5B C -0.0750(8) 0.1149(8) 0.3512(6)
C6B C -0.1079(11) 0.1712(9) 0.5205(6)
H1B H -0.0924 0.3385 0.2262
H2B H -0.0344 0.4650 0.2454
H3B H -0.1521 0.4577 0.1924
H4B H -0.3625 0.4040 0.3047
H5B H -0.2909 0.2786 0.3088
H6B H -0.3229 0.3448 0.3907
H7B H -0.2467 0.6226 0.3256
H8B H -0.2229 0.5936 0.4124
H9B H -0.1342 0.6570 0.3676
H10B H 0.1337 0.1162 0.4693
H11B H 0.1481 0.2572 0.4995
H12B H 0.1419 0.2253 0.4028
H13B H -0.0420 0.0368 0.3671
H14B H -0.1578 0.1007 0.3422
H15B H -0.0482 0.1302 0.2980
H16B H -0.0820 0.0902 0.5076
H17B H -0.0692 0.2064 0.5690
H18B H -0.1913 0.1836 0.5148
O1A O -0.2393(5) 0.1276(5) 0.7922(3)
O2A O -0.1646(6) 0.3226(5) 0.7050(4)
C7A C -0.1331(8) 0.1268(8) 0.7594(6)
C8A C -0.0858(8) 0.2508(8) 0.7536(6)
C9A C -0.2715(8) 0.3237(9) 0.7377(7)
C10A C -0.3176(9) 0.1987(9) 0.7445(7)
H19A H -0.1421 0.0837 0.7037
H20A H -0.0749 0.0661 0.7883
H21A H -0.0879 0.2701 0.8148
H22A H -0.0028 0.2449 0.7334
H23A H -0.3288 0.3661 0.6955
H24A H -0.2352 0.3482 0.7944
H25A H -0.4021 0.1830 0.7603
H26A H -0.3134 0.1853 0.6828
Rb1B Rb 0.1401(1) 0.5189(1) 0.4308(1)
Rb1A Rb -0.3599(1) 0.9811(1) 0.9308(1)
Rb1B_2 Rb -0.8599(1) 0.5189(1) 0.4308(1)
Rb1A_2 Rb -0.3599(1) -0.0189(1) 0.9308(1)
O1B O 0.2607(5) 0.3724(5) 0.2922(3)
O2C O 0.1646(6) 0.6774(5) 0.2950(4)
O3B_2 O 0.3926(5) 0.5140(5) 0.4583(4)
O4 O 0.0906(16) 0.5634(19) -0.0167(10)
C13 C -0.0011(15) 0.6164(11) -0.0004(11)
C14 C 0.0624(17) 0.4370(15) -0.0463(10)
H31 H -0.0495 0.6236 -0.0481
H32 H 0.0167 0.6955 0.0181
H33 H 0.1304 0.3932 -0.0553
H34 H 0.0169 0.4426 -0.0954
C14B C -0.0624(17) 0.5630(15) 0.0463(10)
O4B O -0.0906(16) 0.4366(19) 0.0167(10)
C13B C 0.0011(15) 0.3836(11) 0.0004(11)
H31B H 0.0495 0.3764 0.0481
H32B H -0.0167 0.3045 -0.0181
H33B H -0.1304 0.6068 0.0553
H34B H -0.0169 0.5574 0.0954
loop_
_geom_bond_atom_site_label_1
_geom_bond_atom_site_label_2
_geom_bond_site_symmetry_1
_geom_bond_site_symmetry_2
Rb1 N1 1_555 1_555
N1 Si1 1_555 1_555
Si1 C1 1_555 1_555
C1 H1 1_555 1_555
C2 Si1 1_555 1_555
C3 Si1 1_555 1_555
Si2 N1 1_555 1_555
C4 Si2 1_555 1_555
C5 Si2 1_555 1_555
C6 Si2 1_555 1_555
O1 Rb1 1_555 1_555
O2 C8 1_555 1_555
C7 O1 1_555 1_555
C8 C7 1_555 1_555
C9 O2 1_555 1_555
C10 O1 1_555 1_555
O3 Rb1 1_555 1_555
C11 O3 1_555 1_555
C12 O3 1_555 1_555
O4 C13 1_555 1_555
C13 H31 1_555 1_555
C14 O4 1_555 1_555
H2 C1 1_555 1_555
H3 C1 1_555 1_555
H4 C2 1_555 1_555
H5 C2 1_555 1_555
H6 C2 1_555 1_555
H7 C3 1_555 1_555
H8 C3 1_555 1_555
H9 C3 1_555 1_555
H10 C4 1_555 1_555
H11 C4 1_555 1_555
H12 C4 1_555 1_555
H13 C5 1_555 1_555
H14 C5 1_555 1_555
H15 C5 1_555 1_555
H16 C6 1_555 1_555
H17 C6 1_555 1_555
H18 C6 1_555 1_555
H19 C7 1_555 1_555
H20 C7 1_555 1_555
H21 C8 1_555 1_555
H22 C8 1_555 1_555
H23 C9 1_555 1_555
H24 C9 1_555 1_555
H25 C10 1_555 1_555
H26 C10 1_555 1_555
H27 C11 1_555 1_555
H28 C11 1_555 1_555
H29 C12 1_555 1_555
H30 C12 1_555 1_555
H32 C13 1_555 1_555
H33 C14 1_555 1_555
H34 C14 1_555 1_555
C12B C11 1_555 1_555
O3B C12B 1_555 1_555
C11B C12 1_555 1_555
H27B C11B 1_555 1_555
H28B C11B 1_555 1_555
H29B C12B 1_555 1_555
H30B C12B 1_555 1_555
C14B C13 1_555 1_555
O4B C14B 1_555 1_555
C13B C14 1_555 1_555
H31B C13B 1_555 1_555
H32B C13B 1_555 1_555
H33B C14B 1_555 1_555
H34B C14B 1_555 1_555
N1B Rb1 1_555 1_555
Si1B N1B 1_555 1_555
C1B Si1B 1_555 1_555
C2B Si1B 1_555 1_555
C3B Si1B 1_555 1_555
Si2B N1B 1_555 1_555
C4B Si2B 1_555 1_555
C5B Si2B 1_555 1_555
C6B Si2B 1_555 1_555
H1B C1B 1_555 1_555
H2B C1B 1_555 1_555
H3B C1B 1_555 1_555
H4B C2B 1_555 1_555
H5B C2B 1_555 1_555
H6B C2B 1_555 1_555
H7B C3B 1_555 1_555
H8B C3B 1_555 1_555
H9B C3B 1_555 1_555
H10B C4B 1_555 1_555
H11B C4B 1_555 1_555
H12B C4B 1_555 1_555
H13B C5B 1_555 1_555
H14B C5B 1_555 1_555
H15B C5B 1_555 1_555
H16B C6B 1_555 1_555
H17B C6B 1_555 1_555
H18B C6B 1_555 1_555
O1A C7A 1_555 1_555
O2A Rb1 1_555 1_555
C7A C8A 1_555 1_555
C8A O2A 1_555 1_555
C9A O2A 1_555 1_555
C10A O1A 1_555 1_555
H19A C7A 1_555 1_555
H20A C7A 1_555 1_555
H21A C8A 1_555 1_555
H22A C8A 1_555 1_555
H23A C9A 1_555 1_555
H24A C9A 1_555 1_555
H25A C10A 1_555 1_555
H26A C10A 1_555 1_555
Rb1B N1 1_555 1_555
Rb1A O2 1_555 1_555
Rb1B_2 O3B 1_555 1_555
Rb1A_2 O1A 1_555 1_555
O1B Rb1B 1_555 1_555
O2C Rb1B 1_555 1_555
O3B_2 Rb1B 1_555 1_555
C9 C10 1_555 1_555
O3B C11B 1_555 1_555
O4B C13B 1_555 1_555
N1B Rb1B 1_555 1_555
C9A C10A 1_555 1_555

#END
