
#######################################################################
#
#                 Cambridge Crystallographic Data Centre
#                                CCDC 
#
#######################################################################
#
# If this CIF has been generated from an entry in the Cambridge 
# Structural Database, then it will include bibliographic, chemical, 
# crystal, experimental, refinement or atomic coordinate data resulting 
# from the CCDC's data processing and validation procedures.
#
#######################################################################

data_SOWYEI
_symmetry_cell_setting           monoclinic
_symmetry_space_group_name_H-M   'P 21/n'
_symmetry_Int_Tables_number      14
_space_group_name_Hall           '-P 2yn'
loop_
_symmetry_equiv_pos_site_id
_symmetry_equiv_pos_as_xyz
1 x,y,z
2 1/2-x,1/2+y,1/2-z
3 -x,-y,-z
4 1/2+x,1/2-y,1/2+z
_cell_length_a                   12.587(2)
_cell_length_b                   11.666(3)
_cell_length_c                   15.200(3)
_cell_angle_alpha                90
_cell_angle_beta                 98.40(2)
_cell_angle_gamma                90
_cell_volume                     2208.02
loop_
_atom_site_label
_atom_site_type_symbol
_atom_site_fract_x
_atom_site_fract_y
_atom_site_fract_z
Cs1 Cs -0.1367(1) 0.4839(1) 0.5644(1)
N1 N 0.0508(1) 0.6519(1) 0.6091(1)
Si1 Si 0.1428(1) 0.6088(1) 0.6932(1)
C1 C 0.1392(2) 0.6793(2) 0.8043(2)
C2 C 0.2862(2) 0.6283(2) 0.6737(2)
C3 C 0.1276(2) 0.4503(2) 0.7134(2)
Si2 Si 0.0270(1) 0.7847(1) 0.5695(1)
C4 C -0.1108(2) 0.7948(2) 0.5024(2)
C5 C 0.0338(2) 0.9030(2) 0.6547(2)
C6 C 0.1241(3) 0.8334(2) 0.4932(2)
O1 O -0.2522(1) 0.6242(1) 0.7012(1)
O2 O -0.3341(1) 0.8174(1) 0.7826(1)
C7 C -0.3525(2) 0.6200(2) 0.7344(2)
C8 C -0.4033(2) 0.7367(2) 0.7313(2)
C9 C -0.2332(2) 0.8210(2) 0.7501(2)
C10 C -0.1824(2) 0.7041(2) 0.7522(2)
O3 O -0.3900(1) 0.4822(1) 0.5307(1)
C11 C -0.4610(2) 0.3879(2) 0.5082(2)
C12 C -0.4264(2) 0.5801(2) 0.4787(2)
H1 H 0.1949(14) 0.6407(19) 0.8478(15)
H2 H 0.0669(10) 0.6660(21) 0.8216(18)
H3 H 0.1545(19) 0.7630(9) 0.8031(19)
H4 H 0.3060(22) 0.7096(9) 0.6657(16)
H5 H 0.3409(18) 0.5986(19) 0.7220(12)
H6 H 0.3003(22) 0.5886(19) 0.6187(10)
H7 H 0.0556(10) 0.4310(25) 0.7285(16)
H8 H 0.1404(19) 0.4044(22) 0.6613(11)
H9 H 0.1806(15) 0.4225(24) 0.7649(11)
H10 H -0.1243(22) 0.8740(10) 0.4789(16)
H11 H -0.1095(22) 0.7416(16) 0.4513(12)
H12 H -0.1685(18) 0.7719(20) 0.5364(16)
H13 H 0.1095(9) 0.9131(23) 0.6830(16)
H14 H -0.0089(17) 0.8868(23) 0.7035(13)
H15 H 0.0088(20) 0.9773(14) 0.6275(17)
H16 H 0.1155(21) 0.9160(9) 0.4754(17)
H17 H 0.1124(21) 0.7855(18) 0.4386(12)
H18 H 0.1978(12) 0.8223(20) 0.5250(16)
H19 H -0.3354(20) 0.5940(19) 0.7955(7)
H20 H -0.3962(19) 0.5686(18) 0.6931(12)
H21 H -0.4703(12) 0.7409(24) 0.7554(13)
H22 H -0.4219(18) 0.7603(22) 0.6697(8)
H23 H -0.2408(20) 0.8551(19) 0.6878(8)
H24 H -0.1921(18) 0.8702(17) 0.7896(11)
H25 H -0.1665(18) 0.6726(21) 0.8138(8)
H26 H -0.1146(12) 0.7023(22) 0.7257(13)
H27 H -0.4561(20) 0.3677(19) 0.4426(7)
H28 H -0.4340(20) 0.3216(15) 0.5496(11)
H29 H -0.4217(20) 0.5672(21) 0.4170(8)
H30 H -0.3790(17) 0.6398(16) 0.5037(13)
C12B C -0.5736(2) 0.4199(2) 0.5213(2)
O3B O -0.6100(1) 0.5178(1) 0.4693(1)
C11B C -0.5390(2) 0.6121(2) 0.4918(2)
H27B H -0.5439(20) 0.6323(19) 0.5574(7)
H28B H -0.5660(20) 0.6784(15) 0.4504(11)
H29B H -0.5783(20) 0.4328(21) 0.5830(8)
H30B H -0.6210(17) 0.3602(16) 0.4963(13)
N1B N -0.0508(1) 0.3481(1) 0.3909(1)
Si1B Si -0.1428(1) 0.3912(1) 0.3068(1)
C1B C -0.1392(2) 0.3207(2) 0.1957(2)
C2B C -0.2862(2) 0.3717(2) 0.3263(2)
C3B C -0.1276(2) 0.5497(2) 0.2866(2)
Si2B Si -0.0270(1) 0.2153(1) 0.4305(1)
C4B C 0.1108(2) 0.2052(2) 0.4976(2)
C5B C -0.0338(2) 0.0970(2) 0.3453(2)
C6B C -0.1241(3) 0.1666(2) 0.5068(2)
H1B H -0.1949(14) 0.3593(19) 0.1522(15)
H2B H -0.0669(10) 0.3340(21) 0.1784(18)
H3B H -0.1545(19) 0.2370(9) 0.1969(19)
H4B H -0.3060(22) 0.2904(9) 0.3343(16)
H5B H -0.3409(18) 0.4014(19) 0.2780(12)
H6B H -0.3003(22) 0.4114(19) 0.3813(10)
H7B H -0.0556(10) 0.5690(25) 0.2715(16)
H8B H -0.1404(19) 0.5956(22) 0.3387(11)
H9B H -0.1806(15) 0.5775(24) 0.2351(11)
H10B H 0.1243(22) 0.1260(10) 0.5211(16)
H11B H 0.1095(22) 0.2584(16) 0.5487(12)
H12B H 0.1685(18) 0.2281(20) 0.4636(16)
H13B H -0.1095(9) 0.0869(23) 0.3170(16)
H14B H 0.0089(17) 0.1132(23) 0.2965(13)
H15B H -0.0088(20) 0.0227(14) 0.3725(17)
H16B H -0.1155(21) 0.0840(9) 0.5246(17)
H17B H -0.1124(21) 0.2145(18) 0.5614(12)
H18B H -0.1978(12) 0.1777(20) 0.4750(16)
O1A O -0.2478(1) 0.1242(1) 0.7988(1)
O2A O -0.1659(1) 0.3174(1) 0.7174(1)
C7A C -0.1475(2) 0.1200(2) 0.7656(2)
C8A C -0.0967(2) 0.2367(2) 0.7687(2)
C9A C -0.2668(2) 0.3210(2) 0.7499(2)
C10A C -0.3176(2) 0.2041(2) 0.7478(2)
H19A H -0.1646(20) 0.0940(19) 0.7045(7)
H20A H -0.1038(19) 0.0686(18) 0.8069(12)
H21A H -0.0297(12) 0.2409(24) 0.7446(13)
H22A H -0.0781(18) 0.2603(22) 0.8303(8)
H23A H -0.2592(20) 0.3551(19) 0.8122(8)
H24A H -0.3079(18) 0.3702(17) 0.7104(11)
H25A H -0.3335(18) 0.1726(21) 0.6862(8)
H26A H -0.3854(12) 0.2023(22) 0.7743(13)
Cs1B Cs 0.1367(1) 0.5161(1) 0.4356(1)
Cs1A Cs -0.3633(1) 0.9839(1) 0.9356(1)
Cs1B_2 Cs -0.8633(1) 0.5161(1) 0.4356(1)
Cs1A_2 Cs -0.3633(1) -0.0161(1) 0.9356(1)
O1B O 0.2522(1) 0.3758(1) 0.2988(1)
O2C O 0.1659(1) 0.6826(1) 0.2826(1)
O3B_2 O 0.3900(1) 0.5178(1) 0.4693(1)
O4 O -0.0291(2) 0.3843(1) 0.9837(1)
C13 C -0.1067(2) 0.4713(3) 0.9796(2)
C14 C 0.0676(3) 0.4314(3) 0.9607(3)
H31 H -0.1222(20) 0.4874(21) 0.9180(7)
H32 H -0.1699(14) 0.4349(22) 0.9921(15)
H33 H 0.0511(22) 0.4561(21) 0.8991(9)
H34 H 0.1086(18) 0.3751(16) 0.9672(14)
C14B C -0.0676(3) 0.5686(3) 1.0393(3)
O4B O 0.0291(2) 0.6157(1) 1.0163(1)
C13B C 0.1067(2) 0.5287(3) 1.0204(2)
H31B H 0.1222(20) 0.5126(21) 1.0820(7)
H32B H 0.1699(14) 0.5651(22) 1.0079(15)
H33B H -0.0511(22) 0.5439(21) 1.1009(9)
H34B H -0.1086(18) 0.6249(16) 1.0328(14)
loop_
_geom_bond_atom_site_label_1
_geom_bond_atom_site_label_2
_geom_bond_site_symmetry_1
_geom_bond_site_symmetry_2
Cs1 N1 1_555 1_555
N1 Si1 1_555 1_555
Si1 C1 1_555 1_555
C1 H1 1_555 1_555
C2 Si1 1_555 1_555
C3 Si1 1_555 1_555
Si2 N1 1_555 1_555
C4 Si2 1_555 1_555
C5 Si2 1_555 1_555
C6 Si2 1_555 1_555
O1 Cs1 1_555 1_555
O2 C8 1_555 1_555
C7 O1 1_555 1_555
C8 C7 1_555 1_555
C9 O2 1_555 1_555
C10 O1 1_555 1_555
O3 Cs1 1_555 1_555
C11 O3 1_555 1_555
C12 O3 1_555 1_555
O4 C13 1_555 1_555
C13 H31 1_555 1_555
C14 O4 1_555 1_555
H2 C1 1_555 1_555
H3 C1 1_555 1_555
H4 C2 1_555 1_555
H5 C2 1_555 1_555
H6 C2 1_555 1_555
H7 C3 1_555 1_555
H8 C3 1_555 1_555
H9 C3 1_555 1_555
H10 C4 1_555 1_555
H11 C4 1_555 1_555
H12 C4 1_555 1_555
H13 C5 1_555 1_555
H14 C5 1_555 1_555
H15 C5 1_555 1_555
H16 C6 1_555 1_555
H17 C6 1_555 1_555
H18 C6 1_555 1_555
H19 C7 1_555 1_555
H20 C7 1_555 1_555
H21 C8 1_555 1_555
H22 C8 1_555 1_555
H23 C9 1_555 1_555
H24 C9 1_555 1_555
H25 C10 1_555 1_555
H26 C10 1_555 1_555
H27 C11 1_555 1_555
H28 C11 1_555 1_555
H29 C12 1_555 1_555
H30 C12 1_555 1_555
H32 C13 1_555 1_555
H33 C14 1_555 1_555
H34 C14 1_555 1_555
C12B C11 1_555 1_555
O3B C12B 1_555 1_555
C11B C12 1_555 1_555
H27B C11B 1_555 1_555
H28B C11B 1_555 1_555
H29B C12B 1_555 1_555
H30B C12B 1_555 1_555
C14B C13 1_555 1_555
O4B C14B 1_555 1_555
C13B C14 1_555 1_555
H31B C13B 1_555 1_555
H32B C13B 1_555 1_555
H33B C14B 1_555 1_555
H34B C14B 1_555 1_555
N1B Cs1 1_555 1_555
Si1B N1B 1_555 1_555
C1B Si1B 1_555 1_555
C2B Si1B 1_555 1_555
C3B Si1B 1_555 1_555
Si2B N1B 1_555 1_555
C4B Si2B 1_555 1_555
C5B Si2B 1_555 1_555
C6B Si2B 1_555 1_555
H1B C1B 1_555 1_555
H2B C1B 1_555 1_555
H3B C1B 1_555 1_555
H4B C2B 1_555 1_555
H5B C2B 1_555 1_555
H6B C2B 1_555 1_555
H7B C3B 1_555 1_555
H8B C3B 1_555 1_555
H9B C3B 1_555 1_555
H10B C4B 1_555 1_555
H11B C4B 1_555 1_555
H12B C4B 1_555 1_555
H13B C5B 1_555 1_555
H14B C5B 1_555 1_555
H15B C5B 1_555 1_555
H16B C6B 1_555 1_555
H17B C6B 1_555 1_555
H18B C6B 1_555 1_555
O1A C7A 1_555 1_555
O2A Cs1 1_555 1_555
C7A C8A 1_555 1_555
C8A O2A 1_555 1_555
C9A O2A 1_555 1_555
C10A O1A 1_555 1_555
H19A C7A 1_555 1_555
H20A C7A 1_555 1_555
H21A C8A 1_555 1_555
H22A C8A 1_555 1_555
H23A C9A 1_555 1_555
H24A C9A 1_555 1_555
H25A C10A 1_555 1_555
H26A C10A 1_555 1_555
Cs1B N1 1_555 1_555
Cs1A O2 1_555 1_555
Cs1B_2 O3B 1_555 1_555
Cs1A_2 O1A 1_555 1_555
O1B Cs1B 1_555 1_555
O2C Cs1B 1_555 1_555
O3B_2 Cs1B 1_555 1_555
C9 C10 1_555 1_555
O3B C11B 1_555 1_555
O4B C13B 1_555 1_555
N1B Cs1B 1_555 1_555
C9A C10A 1_555 1_555

#END
