
#######################################################################
#
#                 Cambridge Crystallographic Data Centre
#                                CCDC 
#
#######################################################################
#
# If this CIF has been generated from an entry in the Cambridge 
# Structural Database, then it will include bibliographic, chemical, 
# crystal, experimental, refinement or atomic coordinate data resulting 
# from the CCDC's data processing and validation procedures.
#
#######################################################################

data_SOXBEO
_symmetry_cell_setting           triclinic
_symmetry_space_group_name_H-M   'P -1'
_symmetry_Int_Tables_number      2
_space_group_name_Hall           '-P 1'
loop_
_symmetry_equiv_pos_site_id
_symmetry_equiv_pos_as_xyz
1 x,y,z
2 -x,-y,-z
_cell_length_a                   10.293(2)
_cell_length_b                   13.662(3)
_cell_length_c                   16.976(3)
_cell_angle_alpha                84.12(3)
_cell_angle_beta                 78.31(3)
_cell_angle_gamma                84.81(3)
_cell_volume                     2319.44
loop_
_atom_site_label
_atom_site_type_symbol
_atom_site_fract_x
_atom_site_fract_y
_atom_site_fract_z
Cd1 Cd 0.12360(3) 0.42171(3) 0.83682(2)
Cd2 Cd 0.89462(3) 0.41808(3) 0.67445(2)
C1 C 0.1524(6) 0.6456(5) 0.7696(4)
H1 H 0.2129 0.6135 0.7304
C2 C 0.1376(6) 0.7462(5) 0.7622(4)
H2 H 0.1906 0.7817 0.7200
C3 C 0.0445(7) 0.7949(5) 0.8172(4)
H3 H 0.0318 0.8634 0.8118
C4 C -0.0293(6) 0.7408(4) 0.8803(4)
C5 C -0.0068(5) 0.6394(4) 0.8848(3)
H4 H -0.0568 0.6026 0.9276
C6 C -0.1389(8) 0.7885(5) 0.9410(4)
H5 H -0.2248 0.7782 0.9293
H6 H -0.1355 0.7584 0.9949
C7 C -0.2111(6) 0.9460(4) 0.9893(4)
C8 C -0.3309(6) 0.9142(5) 1.0335(4)
H7 H -0.3571 0.8517 1.0301
C9 C -0.4110(6) 0.9814(5) 1.0836(4)
C10 C -0.3721(7) 1.0746(5) 1.0864(5)
H8 H -0.4269 1.1188 1.1186
C11 C -0.2526(7) 1.1024(5) 1.0416(5)
H9 H -0.2261 1.1649 1.0449
C12 C -0.1709(7) 1.0386(5) 0.9917(4)
H10 H -0.0908 1.0580 0.9605
C13 C -0.5765(6) 0.8659(5) 1.1329(4)
H11 H -0.5100 0.8146 1.1450
H12 H -0.5951 0.8573 1.0804
C14 C -0.7009(6) 0.8585(4) 1.1960(4)
C15 C -0.7777(7) 0.9389(5) 1.2276(5)
H13 H -0.7526 1.0026 1.2105
C16 C -0.8902(7) 0.9242(5) 1.2839(5)
H14 H -0.9422 0.9780 1.3055
C17 C -0.9278(6) 0.8290(5) 1.3093(4)
H15 H -1.0067 0.8202 1.3463
C18 C -0.7419(6) 0.7681(5) 1.2266(4)
H16 H -0.6879 0.7137 1.2078
C19 C 0.1823(5) 0.4042(4) 0.6315(3)
C20 C 0.3227(5) 0.3929(4) 0.5834(3)
C21 C 0.4285(5) 0.4121(4) 0.6169(3)
H17 H 0.4139 0.4332 0.6686
C22 C 0.5583(5) 0.3991(4) 0.5718(3)
C23 C 0.5781(5) 0.3714(4) 0.4944(3)
H18 H 0.6643 0.3646 0.4645
C24 C 0.4721(5) 0.3533(4) 0.4600(3)
C25 C 0.3448(5) 0.3637(4) 0.5054(3)
H19 H 0.2729 0.3510 0.4834
C26 C 0.6758(5) 0.4139(4) 0.6090(3)
C27 C 0.4970(6) 0.3273(5) 0.3738(3)
H20 H 0.4235 0.2939 0.3653
H21 H 0.5771 0.2850 0.3631
H22 H 0.5063 0.3866 0.3381
C28 C 0.3425(5) 0.4131(4) 0.9039(3)
C29 C 0.4629(5) 0.3984(4) 0.9425(3)
C30 C 0.4493(5) 0.3704(4) 1.0243(3)
H23 H 0.3648 0.3613 1.0549
C31 C 0.5589(5) 0.3554(4) 1.0625(3)
C32 C 0.6841(5) 0.3675(4) 1.0146(3)
H24 H 0.7586 0.3574 1.0384
C33 C 0.7004(5) 0.3940(4) 0.9326(3)
C34 C 0.5900(5) 0.4113(3) 0.8963(3)
H25 H 0.6006 0.4312 0.8414
C35 C 0.8386(5) 0.4045(4) 0.8836(3)
C36 C 0.5406(6) 0.3310(5) 1.1521(3)
H26 H 0.6153 0.2892 1.1643
H27 H 0.4606 0.2976 1.1710
H28 H 0.5343 0.3908 1.1783
C37 C 0.8092(6) 0.6396(5) 0.7089(4)
H29 H 0.7514 0.6053 0.7495
C38 C 0.7998(6) 0.7409(5) 0.7039(4)
H30 H 0.7361 0.7745 0.7404
C39 C 0.8850(7) 0.7921(5) 0.6444(4)
H31 H 0.8785 0.8607 0.6399
C40 C 0.9802(6) 0.7414(4) 0.5916(4)
C41 C 0.9825(5) 0.6401(4) 0.6000(3)
H32 H 1.0454 0.6050 0.5641
C42 C 1.0801(7) 0.7935(5) 0.5285(4)
H33 H 1.1540 0.7477 0.5082
H34 H 1.0396 0.8216 0.4837
C43 C 1.2126(7) 0.9325(5) 0.5191(4)
C44 C 1.2079(8) 1.0245(5) 0.5458(5)
H35 H 1.1465 1.0414 0.5914
C45 C 1.2945(8) 1.0912(6) 0.5048(5)
H36 H 1.2896 1.1542 0.5218
C46 C 1.3885(7) 1.0663(5) 0.4388(5)
H37 H 1.4478 1.1116 0.4115
C47 C 1.3935(6) 0.9732(5) 0.4137(4)
C48 C 1.3065(7) 0.9040(5) 0.4522(4)
H38 H 1.3104 0.8415 0.4345
C49 C 1.5294(7) 0.8558(5) 0.3317(4)
H39 H 1.4596 0.8300 0.3108
H40 H 1.5406 0.8159 0.3809
C50 C 1.6567(6) 0.8515(4) 0.2708(4)
C51 C 1.7353(7) 0.9282(5) 0.2447(4)
H41 H 1.7091 0.9899 0.2635
C52 C 1.8555(7) 0.9144(5) 0.1896(4)
C53 C 1.8912(6) 0.8206(5) 0.1645(4)
H42 H 1.9718 0.8099 0.1291
C54 C 1.7000(6) 0.7628(4) 0.2399(3)
H43 H 1.6452 0.7109 0.2556
N1 N 0.0822(4) 0.5915(3) 0.8316(3)
N2 N -0.8534(5) 0.7499(4) 1.2816(3)
N3 N 0.8992(4) 0.5891(4) 0.6572(3)
N4 N 1.8156(5) 0.7451(3) 0.1887(3)
O1 O -0.1236(5) 0.8884(3) 0.9375(3)
O2 O -0.5293(4) 0.9590(3) 1.1325(3)
O3 O 0.1601(4) 0.4450(3) 0.6955(2)
O4 O 0.0927(4) 0.3711(3) 0.6025(3)
O5 O 0.6581(4) 0.4381(3) 0.6791(2)
O6 O 0.7907(4) 0.3987(3) 0.5664(2)
O7 O 0.2312(3) 0.4018(3) 0.9483(2)
O8 O 0.3570(4) 0.4351(3) 0.8296(2)
O9 O 0.9341(4) 0.3796(3) 0.9192(3)
O10 O 0.8537(4) 0.4387(3) 0.8115(2)
O11 O 1.1246(6) 0.8679(4) 0.5648(3)
O12 O 1.4940(5) 0.9547(3) 0.3483(3)
Cd1_2 Cd 1.12360(3) 0.42171(3) 0.83682(2)
Cd1A Cd 1.87640(3) 0.57829(3) 0.16318(2)
Cd2_2 Cd -0.10538(3) 0.41808(3) 0.67445(2)
Cd2A Cd -0.89462(3) 0.58192(3) 1.32555(2)
N2A N 0.8534(5) 0.2501(4) 0.7184(3)
N4A N 0.1844(5) 0.2549(3) 0.8113(3)
O4_2 O 1.0927(4) 0.3711(3) 0.6025(3)
O9_2 O -0.0659(4) 0.3796(3) 0.9192(3)
loop_
_geom_bond_atom_site_label_1
_geom_bond_atom_site_label_2
_geom_bond_site_symmetry_1
_geom_bond_site_symmetry_2
Cd1 N1 1_555 1_555
Cd2 N3 1_555 1_555
C1 H1 1_555 1_555
C2 C1 1_555 1_555
H2 C2 1_555 1_555
C3 C2 1_555 1_555
H3 C3 1_555 1_555
C4 C3 1_555 1_555
C5 C4 1_555 1_555
H4 C5 1_555 1_555
C6 C4 1_555 1_555
H5 C6 1_555 1_555
H6 C6 1_555 1_555
C7 C8 1_555 1_555
C8 H7 1_555 1_555
C9 C8 1_555 1_555
C10 C9 1_555 1_555
H8 C10 1_555 1_555
C11 C10 1_555 1_555
H9 C11 1_555 1_555
C12 C7 1_555 1_555
H10 C12 1_555 1_555
C13 H11 1_555 1_555
H12 C13 1_555 1_555
C14 C13 1_555 1_555
C15 C14 1_555 1_555
H13 C15 1_555 1_555
C16 C15 1_555 1_555
H14 C16 1_555 1_555
C17 C16 1_555 1_555
H15 C17 1_555 1_555
C18 C14 1_555 1_555
H16 C18 1_555 1_555
C19 C20 1_555 1_555
C20 C21 1_555 1_555
C21 H17 1_555 1_555
C22 C21 1_555 1_555
C23 C22 1_555 1_555
H18 C23 1_555 1_555
C24 C23 1_555 1_555
C25 C20 1_555 1_555
H19 C25 1_555 1_555
C26 C22 1_555 1_555
C27 C24 1_555 1_555
H20 C27 1_555 1_555
H21 C27 1_555 1_555
H22 C27 1_555 1_555
C28 C29 1_555 1_555
C29 C30 1_555 1_555
C30 H23 1_555 1_555
C31 C30 1_555 1_555
C32 C31 1_555 1_555
H24 C32 1_555 1_555
C33 C32 1_555 1_555
C34 C29 1_555 1_555
H25 C34 1_555 1_555
C35 C33 1_555 1_555
C36 C31 1_555 1_555
H26 C36 1_555 1_555
H27 C36 1_555 1_555
H28 C36 1_555 1_555
C37 H29 1_555 1_555
C38 C37 1_555 1_555
H30 C38 1_555 1_555
C39 C38 1_555 1_555
H31 C39 1_555 1_555
C40 C39 1_555 1_555
C41 C40 1_555 1_555
H32 C41 1_555 1_555
C42 C40 1_555 1_555
H33 C42 1_555 1_555
H34 C42 1_555 1_555
C43 C44 1_555 1_555
C44 H35 1_555 1_555
C45 C44 1_555 1_555
H36 C45 1_555 1_555
C46 C45 1_555 1_555
H37 C46 1_555 1_555
C47 C46 1_555 1_555
C48 C43 1_555 1_555
H38 C48 1_555 1_555
C49 H39 1_555 1_555
H40 C49 1_555 1_555
C50 C49 1_555 1_555
C51 C50 1_555 1_555
H41 C51 1_555 1_555
C52 C51 1_555 1_555
C53 C52 1_555 1_555
H42 C53 1_555 1_555
C54 C50 1_555 1_555
H43 C54 1_555 1_555
N1 C1 1_555 1_555
N2 C17 1_555 1_555
N3 C37 1_555 1_555
N4 C53 1_555 1_555
O1 C6 1_555 1_555
O2 C9 1_555 1_555
O3 Cd1 1_555 1_555
O4 C19 1_555 1_555
O5 Cd2 1_555 1_555
O6 Cd2 1_555 1_555
O7 Cd1 1_555 1_555
O8 Cd1 1_555 1_555
O9 C35 1_555 1_555
O10 Cd2 1_555 1_555
O11 C42 1_555 1_555
O12 C47 1_555 1_555
Cd1_2 O9 1_555 1_555
Cd1A N4 1_555 1_555
Cd2_2 O4 1_555 1_555
Cd2A N2 1_555 1_555
N2A Cd2 1_555 1_555
N4A Cd1 1_555 1_555
O4_2 Cd2 1_555 1_555
O9_2 Cd1 1_555 1_555
C5 N1 1_555 1_555
C7 O1 1_555 1_555
C11 C12 1_555 1_555
C13 O2 1_555 1_555
C18 N2 1_555 1_555
C19 O3 1_555 1_555
C24 C25 1_555 1_555
C26 O5 1_555 1_555
C26 O6 1_555 1_555
C28 O7 1_555 1_555
C28 O8 1_555 1_555
C33 C34 1_555 1_555
C35 O10 1_555 1_555
C41 N3 1_555 1_555
C43 O11 1_555 1_555
C47 C48 1_555 1_555
C49 O12 1_555 1_555
C54 N4 1_555 1_555

#END
