
#######################################################################
#
#                 Cambridge Crystallographic Data Centre
#                                CCDC 
#
#######################################################################
#
# If this CIF has been generated from an entry in the Cambridge 
# Structural Database, then it will include bibliographic, chemical, 
# crystal, experimental, refinement or atomic coordinate data resulting 
# from the CCDC's data processing and validation procedures.
#
#######################################################################

data_SOXGIX
_symmetry_cell_setting           monoclinic
_symmetry_space_group_name_H-M   'P 21/c'
_symmetry_Int_Tables_number      14
_space_group_name_Hall           '-P 2ybc'
loop_
_symmetry_equiv_pos_site_id
_symmetry_equiv_pos_as_xyz
1 x,y,z
2 -x,1/2+y,1/2-z
3 -x,-y,-z
4 x,1/2-y,1/2+z
_cell_length_a                   8.0908(9)
_cell_length_b                   29.735(3)
_cell_length_c                   16.6368(18)
_cell_angle_alpha                90
_cell_angle_beta                 99.076(9)
_cell_angle_gamma                90
_cell_volume                     3952.37
loop_
_atom_site_label
_atom_site_type_symbol
_atom_site_fract_x
_atom_site_fract_y
_atom_site_fract_z
Zn1 Zn -0.00772(17) 0.66964(4) 0.79107(8)
Zn2 Zn 0.08266(17) 0.75031(4) 0.70651(8)
N1 N -0.0778(10) 0.6169(2) 0.8547(5)
N2 N -0.1976(9) 0.4629(2) 0.9443(5)
N3 N -0.1420(10) 0.3059(2) 0.8532(5)
C1 C -0.1490(11) 0.6215(3) 0.9226(6)
H1 H -0.1662 0.6512 0.9410
C2 C -0.1979(12) 0.5864(3) 0.9663(6)
H2 H -0.2470 0.5915 1.0137
C3 C -0.1732(12) 0.5423(3) 0.9390(6)
C4 C -0.1032(12) 0.5373(3) 0.8683(6)
H3 H -0.0880 0.5082 0.8473
C5 C -0.0558(12) 0.5749(3) 0.8290(6)
H4 H -0.0055 0.5709 0.7816
C6 C -0.2274(10) 0.5021(3) 0.9821(6)
C7 C -0.2930(12) 0.5047(3) 1.0530(6)
H5 H -0.3036 0.5331 1.0781
C8 C -0.3444(12) 0.4654(3) 1.0882(6)
C9 C -0.3245(12) 0.4250(3) 1.0481(6)
H6 H -0.3628 0.3975 1.0678
C10 C -0.2474(11) 0.4255(3) 0.9785(6)
C11 C -0.1494(14) 0.3466(3) 0.8169(7)
H7 H -0.1301 0.3485 0.7622
C12 C -0.1834(14) 0.3849(3) 0.8559(6)
H8 H -0.1832 0.4130 0.8288
C13 C -0.2177(12) 0.3833(3) 0.9332(6)
C14 C -0.2164(13) 0.3411(3) 0.9727(6)
H9 H -0.2415 0.3381 1.0263
C15 C -0.1768(12) 0.3046(3) 0.9289(6)
H10 H -0.1739 0.2761 0.9546
C16 C -0.4209(12) 0.4651(3) 1.1632(6)
C17 C -0.4390(12) 0.4260(3) 1.2060(6)
H11 H -0.3940 0.3989 1.1883
C18 C -0.5192(13) 0.4244(3) 1.2732(6)
H12 H -0.5291 0.3968 1.3006
C19 C -0.5857(14) 0.4638(3) 1.3005(6)
C20 C -0.5674(13) 0.5035(3) 1.2602(6)
H13 H -0.6110 0.5304 1.2792
C21 C -0.4873(12) 0.5051(3) 1.1927(6)
H14 H -0.4765 0.5329 1.1660
O1 O -0.6729(10) 0.4654(2) 1.3647(5)
C22 C -0.6859(14) 0.4245(3) 1.4093(6)
H15 H -0.5729 0.4133 1.4321
H16 H -0.7437 0.4011 1.3729
C23 C -0.7841(14) 0.4347(3) 1.4770(6)
H17 H -0.8983 0.4441 1.4523
H18 H -0.7948 0.4066 1.5077
C24 C -0.7119(16) 0.4705(4) 1.5365(7)
H19 H -0.6993 0.4986 1.5062
H20 H -0.5989 0.4610 1.5627
C25 C -0.8179(15) 0.4802(4) 1.6025(7)
H21 H -0.7686 0.5062 1.6350
H22 H -0.9314 0.4891 1.5760
C26 C -0.8345(16) 0.4413(4) 1.6602(7)
H23 H -0.7214 0.4310 1.6847
H24 H -0.8919 0.4160 1.6289
C27 C -0.9319(16) 0.4544(5) 1.7278(9)
H25 H -0.8798 0.4807 1.7567
H26 H -0.9310 0.4292 1.7660
H27 H -1.0477 0.4615 1.7043
C28 C 0.1233(13) 0.6576(3) 0.6384(7)
C29 C 0.1835(14) 0.6301(4) 0.5734(7)
H28 H 0.0990 0.6305 0.5242
H29 H 0.2027 0.5991 0.5924
H30 H 0.2884 0.6429 0.5609
O2 O 0.0684(10) 0.6377(2) 0.6954(5)
O3 O 0.1295(10) 0.7002(2) 0.6320(5)
C30 C 0.3421(12) 0.7073(3) 0.8243(6)
C31 C 0.5178(14) 0.7050(4) 0.8706(8)
H31 H 0.5182 0.6873 0.9203
H32 H 0.5579 0.7355 0.8851
H33 H 0.5913 0.6907 0.8366
O4 O 0.2429(9) 0.6773(2) 0.8367(5)
O5 O 0.3102(10) 0.7393(2) 0.7753(5)
C32 C -0.0473(13) 0.7601(3) 0.8619(6)
C33 C -0.0994(15) 0.7892(3) 0.9296(7)
H34 H -0.1195 0.7699 0.9749
H35 H -0.2021 0.8056 0.9085
H36 H -0.0099 0.8106 0.9489
O6 O -0.0610(9) 0.7189(2) 0.8685(5)
O7 O 0.0011(10) 0.7803(2) 0.8039(5)
C34 C -0.2674(13) 0.7148(3) 0.6629(7)
C35 C -0.4363(15) 0.7130(4) 0.6133(8)
H37 H -0.4558 0.6830 0.5895
H38 H -0.4439 0.7354 0.5696
H39 H -0.5208 0.7195 0.6479
O8 O -0.2258(9) 0.6838(2) 0.7142(5)
O9 O -0.1664(9) 0.7466(2) 0.6521(5)
Zn2A Zn -0.08266(17) 0.25031(4) 0.79349(8)
N3A N 0.1420(10) 0.8059(2) 0.6468(5)
C36 C -0.6508(13) 0.3522(4) 0.8557(8)
C37 C -0.6183(16) 0.3300(4) 0.7769(8)
H40 H -0.5739 0.3524 0.7428
H41 H -0.7233 0.3178 0.7477
H42 H -0.5369 0.3057 0.7897
O10 O -0.7205(11) 0.3267(3) 0.9076(5)
H43 H -0.7470 0.3016 0.8861
O11 O -0.6145(11) 0.3904(2) 0.8731(6)
loop_
_geom_bond_atom_site_label_1
_geom_bond_atom_site_label_2
_geom_bond_site_symmetry_1
_geom_bond_site_symmetry_2
Zn1 N1 1_555 1_555
Zn2 O3 1_555 1_555
N1 C1 1_555 1_555
N2 C6 1_555 1_555
N3 C11 1_555 1_555
C1 H1 1_555 1_555
C2 C1 1_555 1_555
H2 C2 1_555 1_555
C3 C2 1_555 1_555
C4 C3 1_555 1_555
H3 C4 1_555 1_555
C5 N1 1_555 1_555
H4 C5 1_555 1_555
C6 C3 1_555 1_555
C7 C6 1_555 1_555
H5 C7 1_555 1_555
C8 C7 1_555 1_555
C9 C8 1_555 1_555
H6 C9 1_555 1_555
C10 N2 1_555 1_555
C11 H7 1_555 1_555
C12 C11 1_555 1_555
H8 C12 1_555 1_555
C13 C10 1_555 1_555
C14 C13 1_555 1_555
H9 C14 1_555 1_555
C15 N3 1_555 1_555
H10 C15 1_555 1_555
C16 C8 1_555 1_555
C17 C16 1_555 1_555
H11 C17 1_555 1_555
C18 C17 1_555 1_555
H12 C18 1_555 1_555
C19 C18 1_555 1_555
C20 C19 1_555 1_555
H13 C20 1_555 1_555
C21 C16 1_555 1_555
H14 C21 1_555 1_555
O1 C19 1_555 1_555
C22 O1 1_555 1_555
H15 C22 1_555 1_555
H16 C22 1_555 1_555
C23 C22 1_555 1_555
H17 C23 1_555 1_555
H18 C23 1_555 1_555
C24 C23 1_555 1_555
H19 C24 1_555 1_555
H20 C24 1_555 1_555
C25 C24 1_555 1_555
H21 C25 1_555 1_555
H22 C25 1_555 1_555
C26 C25 1_555 1_555
H23 C26 1_555 1_555
H24 C26 1_555 1_555
C27 C26 1_555 1_555
H25 C27 1_555 1_555
H26 C27 1_555 1_555
H27 C27 1_555 1_555
C28 C29 1_555 1_555
C29 H28 1_555 1_555
H29 C29 1_555 1_555
H30 C29 1_555 1_555
O2 Zn1 1_555 1_555
O3 C28 1_555 1_555
C30 C31 1_555 1_555
C31 H31 1_555 1_555
H32 C31 1_555 1_555
H33 C31 1_555 1_555
O4 Zn1 1_555 1_555
O5 Zn2 1_555 1_555
C32 C33 1_555 1_555
C33 H34 1_555 1_555
H35 C33 1_555 1_555
H36 C33 1_555 1_555
O6 Zn1 1_555 1_555
O7 Zn2 1_555 1_555
C34 C35 1_555 1_555
C35 H37 1_555 1_555
H38 C35 1_555 1_555
H39 C35 1_555 1_555
O8 Zn1 1_555 1_555
O9 Zn2 1_555 1_555
C36 C37 1_555 1_555
C37 H40 1_555 1_555
H41 C37 1_555 1_555
H42 C37 1_555 1_555
O10 C36 1_555 1_555
H43 O10 1_555 1_555
O11 C36 1_555 1_555
Zn2A N3 1_555 1_555
N3A Zn2 1_555 1_555
C4 C5 1_555 1_555
C9 C10 1_555 1_555
C12 C13 1_555 1_555
C14 C15 1_555 1_555
C20 C21 1_555 1_555
C28 O2 1_555 1_555
C30 O4 1_555 1_555
C30 O5 1_555 1_555
C32 O6 1_555 1_555
C32 O7 1_555 1_555
C34 O8 1_555 1_555
C34 O9 1_555 1_555

#END
