
#######################################################################
#
#                 Cambridge Crystallographic Data Centre
#                                CCDC 
#
#######################################################################
#
# If this CIF has been generated from an entry in the Cambridge 
# Structural Database, then it will include bibliographic, chemical, 
# crystal, experimental, refinement or atomic coordinate data resulting 
# from the CCDC's data processing and validation procedures.
#
#######################################################################

data_SOXMOH
_symmetry_cell_setting           monoclinic
_symmetry_space_group_name_H-M   'P 21/a'
_symmetry_Int_Tables_number      14
_space_group_name_Hall           '-P 2yab'
loop_
_symmetry_equiv_pos_site_id
_symmetry_equiv_pos_as_xyz
1 x,y,z
2 1/2-x,1/2+y,-z
3 -x,-y,-z
4 1/2+x,1/2-y,z
_cell_length_a                   9.850(1)
_cell_length_b                   15.437(2)
_cell_length_c                   11.780(2)
_cell_angle_alpha                90
_cell_angle_beta                 93.08(1)
_cell_angle_gamma                90
_cell_volume                     1788.61
loop_
_atom_site_label
_atom_site_type_symbol
_atom_site_fract_x
_atom_site_fract_y
_atom_site_fract_z
Cl2 Cl 0.1922(2) 0.3608(1) 0.0790(2)
O5 O 0.1139(6) 0.2852(3) 0.0934(5)
O6 O 0.1233(7) 0.4108(4) -0.0095(5)
O7 O 0.3219(6) 0.3427(5) 0.0426(7)
O8 O 0.1946(7) 0.4129(5) 0.1773(5)
O9 O 0.1892(5) 0.0435(3) 0.1095(3)
O10 O 0.1611(5) -0.0640(3) 0.4178(3)
N1 N -0.0017(6) 0.0882(4) -0.1899(4)
N2 N 0.0220(7) 0.1742(4) -0.2074(5)
N3 N 0.1306(7) 0.1981(4) -0.1491(5)
N4 N 0.1788(6) 0.1276(4) -0.0939(4)
N5 N 0.3725(6) 0.1195(4) 0.1752(4)
N6 N 0.3697(6) 0.0785(4) 0.2826(4)
N7 N 0.0533(5) 0.0836(3) 0.3153(4)
N8 N 0.0803(6) 0.1688(4) 0.3179(5)
N9 N -0.0126(7) 0.2111(4) 0.3640(5)
N10 N -0.1058(5) 0.1522(3) 0.3925(4)
N11 N 0.2861(5) -0.1704(3) 0.3508(4)
N12 N 0.2919(6) -0.1237(4) 0.2466(4)
C1 C 0.2819(6) 0.0956(4) 0.0949(5)
C2 C 0.3035(7) 0.1318(5) -0.0217(5)
C3 C 0.0969(6) 0.0618(4) -0.1199(4)
C4 C 0.2210(6) -0.1335(4) 0.4316(5)
C5 C -0.2253(7) 0.1770(4) 0.4527(5)
C6 C -0.0637(6) 0.0748(4) 0.3616(5)
H1 H 0.363(4) 0.098(5) -0.054(3)
H2 H 0.333(4) 0.195(4) -0.020(4)
H3 H 0.114(5) 0.004(4) -0.095(4)
H4 H -0.231(4) 0.243(5) 0.460(5)
H5 H -0.306(5) 0.132(5) 0.404(5)
H6 H -0.116(5) 0.028(4) 0.374(4)
H7 H 0.435(5) 0.161(5) 0.164(4)
H8 H 0.452(5) 0.048(4) 0.293(4)
H9 H 0.351(5) 0.117(4) 0.329(4)
H10 H 0.316(5) -0.215(4) 0.370(5)
H11 H 0.368(4) -0.118(3) 0.235(5)
H12 H 0.263(5) -0.160(5) 0.192(5)
Cu1 Cu 0.1778(1) -0.0118(1) 0.2634(1)
Cu1B Cu -0.1778(1) 0.0118(1) -0.2634(1)
C5B C 0.2253(7) -0.1770(4) 0.5473(5)
C4B C -0.2210(6) 0.1335(4) 0.5684(5)
N1B N 0.0017(6) -0.0882(4) 0.1899(4)
Cl1 Cl 0.1452(2) 0.5984(1) 0.3867(1)
O1 O 0.2864(5) 0.6208(4) 0.3983(5)
O2 O 0.1296(6) 0.5085(3) 0.4034(6)
O3 O 0.0908(6) 0.6196(5) 0.2759(4)
O4 O 0.0730(6) 0.6440(4) 0.4685(5)
loop_
_geom_bond_atom_site_label_1
_geom_bond_atom_site_label_2
_geom_bond_site_symmetry_1
_geom_bond_site_symmetry_2
Cl1 O1 1_555 1_555
Cl2 O5 1_555 1_555
O2 Cl1 1_555 1_555
O3 Cl1 1_555 1_555
O4 Cl1 1_555 1_555
O6 Cl2 1_555 1_555
O7 Cl2 1_555 1_555
O8 Cl2 1_555 1_555
O9 C1 1_555 1_555
O10 C4 1_555 1_555
N1 N2 1_555 1_555
N2 N3 1_555 1_555
N3 N4 1_555 1_555
N4 C2 1_555 1_555
N5 N6 1_555 1_555
N6 H8 1_555 1_555
N7 N8 1_555 1_555
N8 N9 1_555 1_555
N9 N10 1_555 1_555
N10 C5 1_555 1_555
N11 N12 1_555 1_555
N12 H11 1_555 1_555
C1 N5 1_555 1_555
C2 C1 1_555 1_555
C3 N1 1_555 1_555
C4 N11 1_555 1_555
C5 H4 1_555 1_555
C6 N7 1_555 1_555
H1 C2 1_555 1_555
H2 C2 1_555 1_555
H3 C3 1_555 1_555
H5 C5 1_555 1_555
H6 C6 1_555 1_555
H7 N5 1_555 1_555
H9 N6 1_555 1_555
H10 N11 1_555 1_555
H12 N12 1_555 1_555
Cu1 O9 1_555 1_555
Cu1B N1 1_555 1_555
C5B C4 1_555 1_555
C4B C5 1_555 1_555
N1B Cu1 1_555 1_555
O10 Cu1 1_555 1_555
N4 C3 1_555 1_555
N6 Cu1 1_555 1_555
N7 Cu1 1_555 1_555
N10 C6 1_555 1_555
N12 Cu1 1_555 1_555

#END
