
#######################################################################
#
#                 Cambridge Crystallographic Data Centre
#                                CCDC 
#
#######################################################################
#
# If this CIF has been generated from an entry in the Cambridge 
# Structural Database, then it will include bibliographic, chemical, 
# crystal, experimental, refinement or atomic coordinate data resulting 
# from the CCDC's data processing and validation procedures.
#
#######################################################################

data_SOXXEJ
_symmetry_cell_setting           triclinic
_symmetry_space_group_name_H-M   'P -1'
_symmetry_Int_Tables_number      2
_space_group_name_Hall           '-P 1'
loop_
_symmetry_equiv_pos_site_id
_symmetry_equiv_pos_as_xyz
1 x,y,z
2 -x,-y,-z
_cell_length_a                   8.7300(17)
_cell_length_b                   9.1200(18)
_cell_length_c                   15.110(3)
_cell_angle_alpha                95.52(3)
_cell_angle_beta                 96.59(3)
_cell_angle_gamma                99.63(3)
_cell_volume                     1170.03
loop_
_atom_site_label
_atom_site_type_symbol
_atom_site_fract_x
_atom_site_fract_y
_atom_site_fract_z
Cd1 Cd 0.75359(5) 0.94077(5) 0.73316(3)
O1 O 0.7403(6) 1.1511(6) 0.6701(3)
O2 O 0.6110(6) 1.3393(6) 0.6611(4)
O3 O 0.8316(7) 1.4095(6) 1.0078(4)
O4 O 0.5775(6) 1.3431(6) 0.9596(4)
O5 O 0.4989(7) 0.8618(6) 0.6329(4)
O6 O 0.3829(8) 0.6331(7) 0.5698(4)
O7 O 0.8144(8) 0.7902(8) 0.6214(4)
O8 O 0.9521(7) 0.6181(6) 0.5817(4)
O9 O 1.0109(6) 1.0707(6) 0.7940(4)
O10 O 1.1752(7) 1.0952(7) 0.9207(4)
N1 N 0.6407(6) 1.1044(6) 0.8355(4)
N2 N 0.5683(6) 0.7706(6) 0.7969(4)
N3 N 0.9053(6) 0.7746(6) 0.8029(4)
C1 C 0.5445(8) 1.0088(8) 0.8886(5)
H1 H 0.4666 1.0625 0.9102
H2 H 0.6109 0.9892 0.9405
C2 C 0.4615(8) 0.8602(8) 0.8369(5)
H3 H 0.4046 0.8018 0.8771
H4 H 0.3854 0.8795 0.7895
C3 C 0.6559(8) 0.6984(8) 0.8639(4)
H5 H 0.5874 0.6120 0.8792
H6 H 0.6901 0.7680 0.9180
C4 C 0.7987(8) 0.6486(7) 0.8287(5)
H7 H 0.8545 0.6031 0.8748
H8 H 0.7638 0.5736 0.7772
C5 C 0.5474(8) 1.1764(8) 0.7702(4)
H9 H 0.5152 1.2619 0.8013
H10 H 0.4536 1.1059 0.7441
C6 C 0.6404(7) 1.2285(7) 0.6948(4)
C7 C 0.7623(8) 1.2130(7) 0.8911(4)
H11 H 0.8258 1.2667 0.8518
H12 H 0.8294 1.1586 0.9258
C8 C 0.7115(9) 1.3285(7) 0.9560(4)
C9 C 0.4788(8) 0.6601(8) 0.7233(5)
H13 H 0.3782 0.6201 0.7409
H14 H 0.5351 0.5778 0.7147
C10 C 0.4513(8) 0.7229(8) 0.6353(5)
C11 C 0.9977(8) 0.7230(8) 0.7348(5)
H15 H 1.0225 0.6266 0.7471
H16 H 1.0957 0.7931 0.7392
C12 C 0.9134(9) 0.7083(8) 0.6399(5)
C13 C 1.0076(8) 0.8616(8) 0.8804(5)
H17 H 1.0952 0.8118 0.8955
H18 H 0.9496 0.8650 0.9314
C14 C 1.0705(8) 1.0222(7) 0.8628(4)
K1 K 0.86556(19) 1.32122(18) 0.54854(11)
K2 K 0.3464(2) 1.3269(2) 0.54487(12)
K3 K 0.7331(6) 1.6176(6) 1.1034(4)
O4A O 0.4225(6) 1.6569(6) 1.0404(4)
O6A O 0.6171(8) 1.3669(7) 0.4302(4)
O6_2 O 0.3829(8) 1.6331(7) 0.5698(4)
O7A O 0.1856(8) 1.2098(8) 0.3786(4)
O8A O 1.0479(7) 1.3819(6) 0.4183(4)
O8_2 O 0.9521(7) 1.6181(6) 0.5817(4)
O8A_2 O 0.0479(7) 1.3819(6) 0.4183(4)
O9A O 0.9891(6) 1.9293(6) 1.2060(4)
O10A O 0.8248(7) 1.9048(7) 1.0793(4)
K1A K 0.13444(19) 0.67878(18) 0.45146(11)
K1A_2 K 1.13444(19) 0.67878(18) 0.45146(11)
K1_2 K 0.86556(19) 0.32122(18) 0.54854(11)
K1A_3 K 1.13444(19) 1.67878(18) 0.45146(11)
K1_3 K -0.13444(19) 1.32122(18) 0.54854(11)
K1A_4 K 0.13444(19) 1.67878(18) 0.45146(11)
K2A K 0.6536(2) 0.6731(2) 0.45513(12)
K2_2 K 0.3464(2) 0.3269(2) 0.54487(12)
K2_3 K 1.3464(2) 1.3269(2) 0.54487(12)
K2A_2 K 0.6536(2) 1.6731(2) 0.45513(12)
K3A K 0.2669(6) 1.3824(6) 0.8966(4)
K3A_2 K 1.2669(6) 1.3824(6) 0.8966(4)
loop_
_geom_bond_atom_site_label_1
_geom_bond_atom_site_label_2
_geom_bond_site_symmetry_1
_geom_bond_site_symmetry_2
Cd1 O1 1_555 1_555
O1 C6 1_555 1_555
O2 C6 1_555 1_555
O3 C8 1_555 1_555
O4 C8 1_555 1_555
O5 Cd1 1_555 1_555
O6 C10 1_555 1_555
O7 Cd1 1_555 1_555
O8 C12 1_555 1_555
O9 Cd1 1_555 1_555
O10 C14 1_555 1_555
N1 Cd1 1_555 1_555
N2 Cd1 1_555 1_555
N3 Cd1 1_555 1_555
C1 N1 1_555 1_555
H1 C1 1_555 1_555
H2 C1 1_555 1_555
C2 N2 1_555 1_555
H3 C2 1_555 1_555
H4 C2 1_555 1_555
C3 N2 1_555 1_555
H5 C3 1_555 1_555
H6 C3 1_555 1_555
C4 N3 1_555 1_555
H7 C4 1_555 1_555
H8 C4 1_555 1_555
C5 N1 1_555 1_555
H9 C5 1_555 1_555
H10 C5 1_555 1_555
C6 C5 1_555 1_555
C7 N1 1_555 1_555
H11 C7 1_555 1_555
H12 C7 1_555 1_555
C8 C7 1_555 1_555
C9 N2 1_555 1_555
H13 C9 1_555 1_555
H14 C9 1_555 1_555
C10 O5 1_555 1_555
C11 N3 1_555 1_555
H15 C11 1_555 1_555
H16 C11 1_555 1_555
C12 O7 1_555 1_555
C13 N3 1_555 1_555
H17 C13 1_555 1_555
H18 C13 1_555 1_555
C14 O9 1_555 1_555
K1 O1 1_555 1_555
K2 O2 1_555 1_555
K3 O3 1_555 1_555
O4A K3 1_555 1_555
O6A K1 1_555 1_555
O6_2 K2 1_555 1_555
O7A K2 1_555 1_555
O8A K1 1_555 1_555
O8_2 K1 1_555 1_555
O8A_2 K2 1_555 1_555
O9A K3 1_555 1_555
O10A K3 1_555 1_555
K1A O6 1_555 1_555
K1A_2 O8 1_555 1_555
K1_2 O8 1_555 1_555
K1A_3 O8A 1_555 1_555
K1_3 O8A_2 1_555 1_555
K1A_4 O6_2 1_555 1_555
K2A O6 1_555 1_555
K2_2 O6 1_555 1_555
K2_3 O8A 1_555 1_555
K2A_2 O6A 1_555 1_555
K3A O4 1_555 1_555
K3A_2 O9 1_555 1_555
O2 K1 1_555 1_555
O4 K3 1_555 1_555
O7 K2A 1_555 1_555
O8 K2A 1_555 1_555
O10 K3A_2 1_555 1_555
C1 C2 1_555 1_555
C3 C4 1_555 1_555
C9 C10 1_555 1_555
C11 C12 1_555 1_555
C13 C14 1_555 1_555
K2 O6A 1_555 1_555
O4A K3A 1_555 1_555
O6_2 K2A_2 1_555 1_555
O8_2 K1A_3 1_555 1_555
O8_2 K2A_2 1_555 1_555
O8A_2 K1A_4 1_555 1_555

#END
