
#######################################################################
#
#                 Cambridge Crystallographic Data Centre
#                                CCDC 
#
#######################################################################
#
# If this CIF has been generated from an entry in the Cambridge 
# Structural Database, then it will include bibliographic, chemical, 
# crystal, experimental, refinement or atomic coordinate data resulting 
# from the CCDC's data processing and validation procedures.
#
#######################################################################

data_SOYHIZ
_symmetry_cell_setting           monoclinic
_symmetry_space_group_name_H-M   'P 21/c'
_symmetry_Int_Tables_number      14
_space_group_name_Hall           '-P 2ybc'
loop_
_symmetry_equiv_pos_site_id
_symmetry_equiv_pos_as_xyz
1 x,y,z
2 -x,1/2+y,1/2-z
3 -x,-y,-z
4 x,1/2-y,1/2+z
_cell_length_a                   14.5935(17)
_cell_length_b                   11.2895(13)
_cell_length_c                   8.5771(10)
_cell_angle_alpha                90
_cell_angle_beta                 101.9120(10)
_cell_angle_gamma                90
_cell_volume                     1382.68
loop_
_atom_site_label
_atom_site_type_symbol
_atom_site_fract_x
_atom_site_fract_y
_atom_site_fract_z
O1 O 0.91885(14) 0.35677(18) -0.0091(3)
O2 O 0.95707(17) 0.5701(2) 0.1902(3)
C1 C 0.7712(2) 0.2546(3) -0.0588(4)
H1 H 0.7284 0.2613 -0.1612
H2 H 0.7636 0.1765 -0.0159
C2 C 0.8711(2) 0.2697(3) -0.0802(4)
C3 C 0.9155(3) 0.6763(3) 0.2425(5)
H3 H 0.8823 0.7210 0.1517
H4 H 0.9634 0.7265 0.3046
O3 O 0.90079(17) 0.1994(2) -0.1668(3)
Cl1 Cl 0.74507(7) 0.54796(8) -0.28389(11)
O4 O 0.7707(3) 0.5774(3) -0.1180(3)
O5 O 0.6714(3) 0.4637(3) -0.3038(6)
O6 O 0.7140(2) 0.6517(3) -0.3750(4)
O7 O 0.8218(3) 0.4981(4) -0.3371(5)
H5 H 1.000(3) 0.593(4) 0.116(5)
Cu1 Cu 0.85954(3) 0.44826(3) 0.12848(5)
N1 N 0.79035(19) 0.5420(2) 0.2498(3)
O8 O 0.74941(15) 0.34404(19) 0.0483(3)
C4 C 0.6384(2) 0.4452(3) 0.1696(4)
C5 C 0.7037(2) 0.5342(3) 0.2522(4)
H6 H 0.6796 0.5903 0.3122
C6 C 0.5461(3) 0.4507(4) 0.1973(5)
H7 H 0.5308 0.5094 0.2636
C7 C 0.5906(2) 0.2739(3) 0.0039(5)
H8 H 0.6046 0.2139 -0.0618
C8 C 0.4790(3) 0.3712(4) 0.1283(5)
H9 H 0.4184 0.3774 0.1460
C9 C 0.8500(3) 0.6343(3) 0.3412(5)
H10 H 0.8846 0.6020 0.4409
H11 H 0.8117 0.6994 0.3649
C10 C 0.6589(2) 0.3538(3) 0.0718(4)
C11 C 0.5008(3) 0.2834(4) 0.0341(5)
H12 H 0.4551 0.2289 -0.0108
O3C O 0.90079(17) 0.3006(2) 0.3332(3)
Cu1C Cu 0.85954(3) 0.05174(3) -0.37152(5)
loop_
_geom_bond_atom_site_label_1
_geom_bond_atom_site_label_2
_geom_bond_site_symmetry_1
_geom_bond_site_symmetry_2
O1 C2 1_555 1_555
O2 C3 1_555 1_555
C1 H1 1_555 1_555
H2 C1 1_555 1_555
C2 C1 1_555 1_555
C3 H3 1_555 1_555
H4 C3 1_555 1_555
O3 C2 1_555 1_555
Cl1 O4 1_555 1_555
O4 Cu1 1_555 1_555
O5 Cl1 1_555 1_555
O6 Cl1 1_555 1_555
O7 Cl1 1_555 1_555
H5 O2 1_555 1_555
Cu1 O1 1_555 1_555
N1 Cu1 1_555 1_555
O8 C1 1_555 1_555
C4 C5 1_555 1_555
C5 N1 1_555 1_555
H6 C5 1_555 1_555
C6 C4 1_555 1_555
H7 C6 1_555 1_555
C7 H8 1_555 1_555
C8 C6 1_555 1_555
H9 C8 1_555 1_555
C9 C3 1_555 1_555
H10 C9 1_555 1_555
H11 C9 1_555 1_555
C10 O8 1_555 1_555
C11 C7 1_555 1_555
H12 C11 1_555 1_555
O3C Cu1 1_555 1_555
Cu1C O3 1_555 1_555
O2 Cu1 1_555 1_555
Cu1 O8 1_555 1_555
N1 C9 1_555 1_555
C4 C10 1_555 1_555
C7 C10 1_555 1_555
C8 C11 1_555 1_555

#END
