
#######################################################################
#
#                 Cambridge Crystallographic Data Centre
#                                CCDC 
#
#######################################################################
#
# If this CIF has been generated from an entry in the Cambridge 
# Structural Database, then it will include bibliographic, chemical, 
# crystal, experimental, refinement or atomic coordinate data resulting 
# from the CCDC's data processing and validation procedures.
#
#######################################################################

data_SOYTAD
_symmetry_cell_setting           monoclinic
_symmetry_space_group_name_H-M   'C 2/c'
_symmetry_Int_Tables_number      15
_space_group_name_Hall           '-C 2yn'
loop_
_symmetry_equiv_pos_site_id
_symmetry_equiv_pos_as_xyz
1 x,y,z
2 -x,y,1/2-z
3 1/2+x,1/2+y,z
4 1/2-x,1/2+y,1/2-z
5 -x,-y,-z
6 x,-y,1/2+z
7 1/2-x,1/2-y,-z
8 1/2+x,1/2-y,1/2+z
_cell_length_a                   18.229(4)
_cell_length_b                   15.995(4)
_cell_length_c                   9.182(3)
_cell_angle_alpha                90
_cell_angle_beta                 107.438(8)
_cell_angle_gamma                90
_cell_volume                     2554.18
loop_
_atom_site_label
_atom_site_type_symbol
_atom_site_fract_x
_atom_site_fract_y
_atom_site_fract_z
Ni1 Ni 0.0000 0.24540(8) 0.2500
Cl1 Cl 0.14958(17) 0.09143(18) -0.0864(5)
Cl2 Cl 0.25544(12) 0.14647(18) -0.2822(3)
O1 O 0.0836(3) 0.2423(3) 0.1384(7)
O2 O 0.1692(4) 0.1525(5) 0.2743(10)
O3 O -0.0626(4) 0.1587(4) 0.0976(9)
H1 H -0.1112 0.1565 0.0776
C1 C 0.1467(5) 0.2041(6) 0.1732(11)
C2 C 0.2003(4) 0.2279(5) 0.0867(11)
C3 C 0.2043(4) 0.1806(5) -0.0372(11)
C4 C 0.2539(4) 0.2041(5) -0.1271(9)
N1 N -0.0550(2) 0.3438(3) 0.1218(5)
C5 C -0.0286(4) 0.4215(3) 0.1832(6)
C6 C -0.0644(6) 0.4939(3) 0.1130(9)
H2 H -0.0468 0.5459 0.1541
C7 C -0.1267(6) 0.4886(5) -0.0185(10)
H3 H -0.1507 0.5371 -0.0654
C8 C -0.1531(4) 0.4109(7) -0.0799(7)
H4 H -0.1947 0.4074 -0.1679
C9 C -0.1172(3) 0.3385(5) -0.0098(6)
H5 H -0.1349 0.2865 -0.0508
C10 C -0.0384(7) 0.0915(7) 0.0352(17)
H6 H -0.0072 0.1097 -0.0265
H7 H -0.0821 0.0613 -0.0271
H8 H -0.0086 0.0556 0.1150
Cl1F Cl 0.35042(17) 0.40857(18) 0.0864(5)
Cl2F Cl 0.24456(12) 0.35353(18) 0.2822(3)
O1F O 0.4164(3) 0.2577(3) -0.1384(7)
O2F O 0.3308(4) 0.3475(5) -0.2743(10)
C1F C 0.3533(5) 0.2959(6) -0.1732(11)
C2F C 0.2997(4) 0.2721(5) -0.0867(11)
C3F C 0.2957(4) 0.3194(5) 0.0372(11)
C4F C 0.2461(4) 0.2959(5) 0.1271(9)
N1A N 0.0550(2) 0.3438(3) 0.3782(5)
C5A C 0.0286(4) 0.4215(3) 0.3168(6)
C6A C 0.0644(6) 0.4939(3) 0.3870(9)
H2A H 0.0468 0.5459 0.3459
C7A C 0.1267(6) 0.4886(5) 0.5185(10)
H3A H 0.1507 0.5371 0.5654
C8A C 0.1531(4) 0.4109(7) 0.5799(7)
H4A H 0.1947 0.4074 0.6679
C9A C 0.1172(3) 0.3385(5) 0.5098(6)
H5A H 0.1349 0.2865 0.5508
O3A O 0.0626(4) 0.1587(4) 0.4024(9)
H1A H 0.1112 0.1565 0.4224
C10A C 0.0384(7) 0.0915(7) 0.4648(17)
H6A H 0.0072 0.1097 0.5265
H7A H 0.0821 0.0613 0.5271
H8A H 0.0086 0.0556 0.3850
Ni1F Ni 0.5000 0.25460(8) -0.2500
O1A O -0.0836(3) 0.2423(3) 0.3616(7)
O4 O 1.0000 0.7311(17) 0.2500
O5? O 0.9660(9) 0.6804(10) 0.1617(17)
loop_
_geom_bond_atom_site_label_1
_geom_bond_atom_site_label_2
_geom_bond_site_symmetry_1
_geom_bond_site_symmetry_2
Ni1 O1 1_555 1_555
Cl1 C3 1_555 1_555
Cl2 C4 1_555 1_555
O1 C1 1_555 1_555
O2 C1 1_555 1_555
O3 Ni1 1_555 1_555
H1 O3 1_555 1_555
C1 C2 1_555 1_555
C2 C3 1_555 1_555
C3 C4 1_555 1_555
C4 C2F 1_555 1_555
N1 Ni1 1_555 1_555
C5 N1 1_555 1_555
C6 C5 1_555 1_555
H2 C6 1_555 1_555
C7 C6 1_555 1_555
H3 C7 1_555 1_555
C8 C7 1_555 1_555
H4 C8 1_555 1_555
C9 N1 1_555 1_555
H5 C9 1_555 1_555
C10 O3 1_555 1_555
H6 C10 1_555 1_555
H7 C10 1_555 1_555
H8 C10 1_555 1_555
Cl1F C3F 1_555 1_555
Cl2F C4F 1_555 1_555
O1F C1F 1_555 1_555
O2F C1F 1_555 1_555
C1F C2F 1_555 1_555
C2F C3F 1_555 1_555
C3F C4F 1_555 1_555
C4F C2 1_555 1_555
N1A Ni1 1_555 1_555
C5A C5 1_555 1_555
C6A C5A 1_555 1_555
H2A C6A 1_555 1_555
C7A C6A 1_555 1_555
H3A C7A 1_555 1_555
C8A C7A 1_555 1_555
H4A C8A 1_555 1_555
C9A N1A 1_555 1_555
H5A C9A 1_555 1_555
O3A Ni1 1_555 1_555
H1A O3A 1_555 1_555
C10A O3A 1_555 1_555
H6A C10A 1_555 1_555
H7A C10A 1_555 1_555
H8A C10A 1_555 1_555
Ni1F O1F 1_555 1_555
O1A Ni1 1_555 1_555
C8 C9 1_555 1_555
N1A C5A 1_555 1_555
C8A C9A 1_555 1_555

#END
