
#######################################################################
#
#                 Cambridge Crystallographic Data Centre
#                                CCDC 
#
#######################################################################
#
# If this CIF has been generated from an entry in the Cambridge 
# Structural Database, then it will include bibliographic, chemical, 
# crystal, experimental, refinement or atomic coordinate data resulting 
# from the CCDC's data processing and validation procedures.
#
#######################################################################

data_SOZGUL
_symmetry_cell_setting           monoclinic
_symmetry_space_group_name_H-M   'P 21/c'
_symmetry_Int_Tables_number      14
_space_group_name_Hall           '-P 2ybc'
loop_
_symmetry_equiv_pos_site_id
_symmetry_equiv_pos_as_xyz
1 x,y,z
2 -x,1/2+y,1/2-z
3 -x,-y,-z
4 x,1/2-y,1/2+z
_cell_length_a                   14.0178(7)
_cell_length_b                   17.2502(12)
_cell_length_c                   14.1635(6)
_cell_angle_alpha                90
_cell_angle_beta                 92.653(4)
_cell_angle_gamma                90
_cell_volume                     3421.2
loop_
_atom_site_label
_atom_site_type_symbol
_atom_site_fract_x
_atom_site_fract_y
_atom_site_fract_z
Cd1 Cd 0.06481(6) 0.64526(5) 0.33828(6)
Cd2 Cd 0.56923(6) 0.64197(5) -0.14983(6)
C1 C 0.2258(8) 0.6928(8) 0.2444(9)
C2 C 0.3197(8) 0.7207(7) 0.2113(8)
C3 C 0.3760(8) 0.7684(7) 0.2653(8)
H1 H 0.3541 0.7840 0.3233
C4 C 0.4904(8) 0.7731(7) 0.1578(8)
H2 H 0.5479 0.7928 0.1382
C5 C 0.4399(8) 0.7223(7) 0.0975(8)
C6 C 0.3534(8) 0.6949(7) 0.1260(8)
H3 H 0.3182 0.6597 0.0888
C7 C 0.4788(8) 0.6958(7) 0.0062(8)
C8 C -0.0368(9) 0.6945(7) 0.4903(8)
C9 C -0.0729(7) 0.7188(7) 0.5843(7)
C10 C -0.1581(8) 0.6924(7) 0.6168(7)
H4 H -0.1950 0.6578 0.5805
C11 C -0.1891(8) 0.7171(6) 0.7028(8)
C12 C -0.2819(8) 0.6899(8) 0.7401(9)
C13 C -0.1291(8) 0.7653(7) 0.7552(8)
H5 H -0.1495 0.7827 0.8131
C14 C -0.0184(8) 0.7668(7) 0.6451(8)
H6 H 0.0399 0.7844 0.6247
C15 C 0.0641(11) 0.4689(9) 0.2438(10)
H7 H 0.1302 0.4639 0.2470
C16 C 0.0024(11) 0.4177(8) 0.2027(10)
H8 H 0.0179 0.3713 0.1737
C17 C -0.0731(10) 0.5144(9) 0.2585(11)
H9 H -0.1226 0.5474 0.2737
C18 C -0.1770(11) 0.4164(8) 0.1741(11)
H10 H -0.2254 0.4565 0.1757
H11 H -0.1965 0.3743 0.2142
C19 C -0.1724(12) 0.3873(8) 0.0753(10)
H12 H -0.1340 0.3405 0.0764
H13 H -0.2365 0.3730 0.0529
C20 C -0.1328(10) 0.4419(9) 0.0060(11)
H14 H -0.1291 0.4160 -0.0546
H15 H -0.0686 0.4565 0.0273
C21 C -0.1783(12) 0.5821(9) 0.0359(12)
H16 H -0.1262 0.5941 0.0762
C22 C -0.2677(10) 0.5204(7) -0.0632(10)
H17 H -0.2917 0.4809 -0.1023
N1 N -0.3060(8) 0.5898(7) -0.0593(9)
C23 C 0.3908(12) 0.4251(10) 0.5572(11)
H18 H 0.4255 0.4713 0.5401
H19 H 0.3809 0.3939 0.5006
C24 C 0.2974(12) 0.4482(9) 0.5908(11)
H20 H 0.2529 0.4055 0.5812
H21 H 0.3038 0.4585 0.6581
C25 C 0.2922(14) 0.5894(11) 0.5539(13)
H22 H 0.3468 0.6018 0.5906
C26 C 0.2403(9) 0.6394(6) 0.5082(9)
H23 H 0.2449 0.6931 0.5110
C27 C 0.1847(11) 0.5203(9) 0.4796(11)
H24 H 0.1481 0.4778 0.4598
C28 C 0.4519(11) 0.3789(8) 0.6304(11)
H25 H 0.4196 0.3311 0.6455
H26 H 0.5127 0.3658 0.6045
C29 C 0.4207(11) 0.4176(7) 0.7947(10)
H27 H 0.3774 0.3787 0.8082
C30 C 0.4480(9) 0.4777(8) 0.8511(11)
H28 H 0.4251 0.4873 0.9106
C31 C 0.5246(10) 0.4880(8) 0.7277(9)
H29 H 0.5666 0.5050 0.6831
N2 N 0.0143(8) 0.5291(6) 0.2801(8)
N3 N -0.0879(8) 0.4473(7) 0.2119(8)
N4 N -0.1924(8) 0.5129(6) -0.0061(8)
C32 C -0.2529(7) 0.6340(6) 0.0109(7)
H30 H -0.2645 0.6835 0.0337
N5 N -0.0437(7) 0.7887(6) 0.7286(7)
N6 N 0.1709(9) 0.5919(7) 0.4494(9)
N7 N 0.2582(9) 0.5172(7) 0.5424(9)
N8 N 0.5137(7) 0.5218(6) 0.8083(8)
N9 N 0.4681(8) 0.4253(6) 0.7163(8)
N10 N 0.4614(7) 0.7946(6) 0.2406(6)
O1 O 0.1880(7) 0.6346(6) 0.2072(7)
O2 O 0.1881(6) 0.7305(5) 0.3085(7)
O3 O 0.4383(7) 0.6425(6) -0.0383(6)
O4 O 0.5549(7) 0.7274(5) -0.0196(6)
O5 O -0.0758(7) 0.6370(6) 0.4499(6)
O6 O 0.0286(7) 0.7323(6) 0.4568(6)
O7 O -0.3171(6) 0.6292(5) 0.7098(7)
O8 O -0.3160(7) 0.7302(6) 0.8029(7)
Cd1C Cd 0.06481(6) 0.85474(5) 0.83828(6)
Cd2_2 Cd -0.43077(6) 0.64197(5) -0.14983(6)
Cd2_3 Cd -0.43077(6) 0.64197(5) 0.85017(6)
Cd2_4 Cd 0.56923(6) 0.64197(5) 0.85017(6)
Cd2C Cd 0.56923(6) 0.85803(5) 0.35017(6)
N1_2 N 0.6940(8) 0.5898(7) -0.0593(9)
N5C N -0.0437(7) 0.7113(6) 0.2286(7)
N8_2 N 0.5137(7) 0.5218(6) -0.1917(8)
N10C N 0.4614(7) 0.7054(6) -0.2594(6)
O7_2 O 0.6829(6) 0.6292(5) -0.2902(7)
O8_2 O 0.6840(7) 0.7302(6) -0.1971(7)
loop_
_geom_bond_atom_site_label_1
_geom_bond_atom_site_label_2
_geom_bond_site_symmetry_1
_geom_bond_site_symmetry_2
Cd1 N2 1_555 1_555
Cd2 O3 1_555 1_555
C1 C2 1_555 1_555
C2 C3 1_555 1_555
C3 H1 1_555 1_555
C4 H2 1_555 1_555
C5 C4 1_555 1_555
C6 C2 1_555 1_555
H3 C6 1_555 1_555
C7 C5 1_555 1_555
C8 C9 1_555 1_555
C9 C10 1_555 1_555
C10 H4 1_555 1_555
C11 C10 1_555 1_555
C12 C11 1_555 1_555
C13 C11 1_555 1_555
H5 C13 1_555 1_555
C14 C9 1_555 1_555
H6 C14 1_555 1_555
C15 H7 1_555 1_555
C16 C15 1_555 1_555
H8 C16 1_555 1_555
C17 H9 1_555 1_555
C18 H10 1_555 1_555
H11 C18 1_555 1_555
C19 C18 1_555 1_555
H12 C19 1_555 1_555
H13 C19 1_555 1_555
C20 C19 1_555 1_555
H14 C20 1_555 1_555
H15 C20 1_555 1_555
C21 H16 1_555 1_555
C22 H17 1_555 1_555
N1 C22 1_555 1_555
C23 H18 1_555 1_555
H19 C23 1_555 1_555
C24 C23 1_555 1_555
H20 C24 1_555 1_555
H21 C24 1_555 1_555
C25 H22 1_555 1_555
C26 C25 1_555 1_555
H23 C26 1_555 1_555
C27 H24 1_555 1_555
C28 C23 1_555 1_555
H25 C28 1_555 1_555
H26 C28 1_555 1_555
C29 H27 1_555 1_555
C30 C29 1_555 1_555
H28 C30 1_555 1_555
C31 H29 1_555 1_555
N2 C15 1_555 1_555
N3 C16 1_555 1_555
N4 C20 1_555 1_555
C32 C21 1_555 1_555
H30 C32 1_555 1_555
N5 C13 1_555 1_555
N6 Cd1 1_555 1_555
N7 C24 1_555 1_555
N8 C30 1_555 1_555
N9 C28 1_555 1_555
N10 C3 1_555 1_555
O1 Cd1 1_555 1_555
O2 Cd1 1_555 1_555
O3 C7 1_555 1_555
O4 Cd2 1_555 1_555
O5 Cd1 1_555 1_555
O6 Cd1 1_555 1_555
O7 C12 1_555 1_555
O8 C12 1_555 1_555
Cd1C N5 1_555 1_555
Cd2_2 N1 1_555 1_555
Cd2_3 O7 1_555 1_555
Cd2_4 N8 1_555 1_555
Cd2C N10 1_555 1_555
N1_2 Cd2 1_555 1_555
N5C Cd1 1_555 1_555
N8_2 Cd2 1_555 1_555
N10C Cd2 1_555 1_555
O7_2 Cd2 1_555 1_555
O8_2 Cd2 1_555 1_555
C1 O1 1_555 1_555
C1 O2 1_555 1_555
C4 N10 1_555 1_555
C5 C6 1_555 1_555
C7 O4 1_555 1_555
C8 O5 1_555 1_555
C8 O6 1_555 1_555
C14 N5 1_555 1_555
C17 N2 1_555 1_555
C17 N3 1_555 1_555
C18 N3 1_555 1_555
C21 N4 1_555 1_555
C22 N4 1_555 1_555
N1 C32 1_555 1_555
C25 N7 1_555 1_555
C26 N6 1_555 1_555
C27 N6 1_555 1_555
C27 N7 1_555 1_555
C29 N9 1_555 1_555
C31 N8 1_555 1_555
C31 N9 1_555 1_555
O8 Cd2_3 1_555 1_555

#END
