
#######################################################################
#
#                 Cambridge Crystallographic Data Centre
#                                CCDC 
#
#######################################################################
#
# If this CIF has been generated from an entry in the Cambridge 
# Structural Database, then it will include bibliographic, chemical, 
# crystal, experimental, refinement or atomic coordinate data resulting 
# from the CCDC's data processing and validation procedures.
#
#######################################################################

data_SOZGIZ
_symmetry_cell_setting           cubic
_symmetry_space_group_name_H-M   'P 21 3'
_symmetry_Int_Tables_number      198
_space_group_name_Hall           'P 2ac 2ab 3'
loop_
_symmetry_equiv_pos_site_id
_symmetry_equiv_pos_as_xyz
1 x,y,z
2 1/2-x,-y,1/2+z
3 -x,1/2+y,1/2-z
4 1/2+x,1/2-y,-z
5 z,x,y
6 1/2+z,1/2-x,-y
7 1/2-z,-x,1/2+y
8 -z,1/2+x,1/2-y
9 y,z,x
10 -y,1/2+z,1/2-x
11 1/2+y,1/2-z,-x
12 1/2-y,-z,1/2+x
_cell_length_a                   20.3587(10)
_cell_length_b                   20.3587(10)
_cell_length_c                   20.3587(10)
_cell_angle_alpha                90
_cell_angle_beta                 90
_cell_angle_gamma                90
_cell_volume                     8438.21
loop_
_atom_site_label
_atom_site_type_symbol
_atom_site_fract_x
_atom_site_fract_y
_atom_site_fract_z
Tm1 Tm 0.156189(17) 0.843811(17) 0.343811(17)
O1 O 0.1306(3) 0.8152(3) 0.2427(3)
O2 O 0.0538(4) 0.8845(3) 0.2122(3)
O3 O 0.1701(3) 0.8655(4) 0.4499(3)
N1 N -0.0041(3) 0.6545(4) 0.0113(3)
H1 H -0.0405 0.6686 -0.0073
N2 N -0.0110(3) 0.5746(3) -0.0689(3)
N3 N 0.1936(5) 0.9138(5) 0.5441(5)
C1 C 0.0823(4) 0.8315(4) 0.2074(4)
C2 C 0.0602(4) 0.7830(4) 0.1569(4)
C3 C 0.0097(4) 0.7981(4) 0.1156(4)
H2 H -0.0111 0.8397 0.1188
C4 C -0.0113(5) 0.7537(4) 0.0694(4)
H3 H -0.0473 0.7649 0.0420
C5 C 0.0192(4) 0.6911(4) 0.0613(4)
C6 C 0.0706(4) 0.6776(4) 0.1044(4)
H4 H 0.0920 0.6362 0.1021
C7 C 0.0912(4) 0.7230(4) 0.1501(4)
H5 H 0.1276 0.7129 0.1776
C8 C 0.0229(4) 0.5958(4) -0.0149(4)
C9 C 0.2076(6) 0.8750(6) 0.4965(5)
C10 C 0.2722(6) 0.8372(7) 0.4993(6)
H6 H 0.2668 0.7946 0.4776
H7 H 0.2848 0.8303 0.5452
H8 H 0.3065 0.8624 0.4768
C11 C 0.1289(6) 0.9497(7) 0.5419(7)
H9 H 0.1176 0.9596 0.4962
H10 H 0.1325 0.9908 0.5668
H11 H 0.0946 0.9221 0.5613
C12 C 0.2330(7) 0.9273(8) 0.6013(6)
H12 H 0.2049 0.9277 0.6404
H13 H 0.2543 0.9702 0.5964
H14 H 0.2666 0.8932 0.6061
O1G O -0.2427(3) 0.6306(3) -0.3152(3)
O2G O -0.2122(3) 0.5538(4) -0.3845(3)
N1G N -0.0113(3) 0.4959(3) -0.1545(4)
H1G H 0.0073 0.4595 -0.1686
N2G N 0.0689(3) 0.4890(3) -0.0746(3)
C1G C -0.2074(4) 0.5823(4) -0.3315(4)
C2G C -0.1569(4) 0.5602(4) -0.2830(4)
C3G C -0.1156(4) 0.5097(4) -0.2981(4)
H2G H -0.1188 0.4889 -0.3397
C4G C -0.0694(4) 0.4887(5) -0.2537(4)
H3G H -0.0420 0.4527 -0.2649
C5G C -0.0613(4) 0.5192(4) -0.1911(4)
C6G C -0.1044(4) 0.5706(4) -0.1776(4)
H4G H -0.1021 0.5920 -0.1362
C7G C -0.1501(4) 0.5912(4) -0.2230(4)
H5G H -0.1776 0.6276 -0.2129
C8G C 0.0149(4) 0.5229(4) -0.0958(4)
O1J O 0.3152(3) 0.2573(3) -0.1306(3)
O2J O 0.3845(3) 0.2878(3) -0.0538(4)
N1J N 0.1545(4) 0.4887(3) 0.0041(3)
H1J H 0.1686 0.5073 0.0405
N2J N 0.0746(3) 0.5689(3) 0.0110(3)
C1J C 0.3315(4) 0.2926(4) -0.0823(4)
C2J C 0.2830(4) 0.3431(4) -0.0602(4)
C3J C 0.2981(4) 0.3844(4) -0.0097(4)
H2J H 0.3397 0.3812 0.0111
C4J C 0.2537(4) 0.4306(4) 0.0113(5)
H3J H 0.2649 0.4580 0.0473
C5J C 0.1911(4) 0.4387(4) -0.0192(4)
C6J C 0.1776(4) 0.3956(4) -0.0706(4)
H4J H 0.1362 0.3979 -0.0920
C7J C 0.2230(4) 0.3499(4) -0.0912(4)
H5J H 0.2129 0.3224 -0.1276
C8J C 0.0958(4) 0.5149(4) -0.0229(4)
O3F O 0.0501(3) 0.8299(3) 0.3655(4)
N3F N -0.0441(5) 0.8064(5) 0.4138(5)
C9F C 0.0035(5) 0.7924(6) 0.3750(6)
C10F C 0.0007(6) 0.7278(6) 0.3372(7)
H6F H 0.0224 0.7332 0.2946
H7F H -0.0452 0.7152 0.3303
H8F H 0.0232 0.6935 0.3624
C11F C -0.0419(7) 0.8711(6) 0.4497(7)
H9F H 0.0038 0.8824 0.4596
H10F H -0.0668 0.8675 0.4908
H11F H -0.0613 0.9054 0.4221
C12F C -0.1013(6) 0.7670(7) 0.4273(8)
H12F H -0.1404 0.7951 0.4277
H13F H -0.0964 0.7457 0.4702
H14F H -0.1061 0.7334 0.3932
O3I O 0.1345(4) 0.9499(3) 0.3299(3)
N3I N 0.0862(5) 1.0441(5) 0.3064(5)
C9I C 0.1250(6) 0.9965(5) 0.2924(6)
C10I C 0.1628(7) 0.9993(6) 0.2278(6)
H6I H 0.2054 0.9776 0.2332
H7I H 0.1697 1.0452 0.2152
H8I H 0.1376 0.9768 0.1935
C11I C 0.0503(7) 1.0419(7) 0.3711(6)
H9I H 0.0404 0.9962 0.3824
H10I H 0.0092 1.0668 0.3675
H11I H 0.0779 1.0613 0.4054
C12I C 0.0727(8) 1.1013(6) 0.2670(7)
H12I H 0.0723 1.1404 0.2951
H13I H 0.0298 1.0964 0.2457
H14I H 0.1068 1.1061 0.2334
Tm1A Tm 0.343811(17) 0.156189(17) -0.156189(17)
Tm1C Tm -0.343811(17) 0.656189(17) -0.343811(17)
O1F O 0.2573(3) 0.8694(3) 0.3152(3)
O1I O 0.1848(3) 0.7427(3) 0.3694(3)
Tm2 Tm 0.33830(2) 0.66170(2) 0.16170(2)
O4 O 0.2402(3) 0.6248(3) 0.1829(3)
O5 O 0.2133(3) 0.5424(4) 0.1157(3)
O6 O 0.2634(5) 0.7366(5) 0.2366(5)
H15 H 0.2544 0.7143 0.2780
O7 O 0.3288(4) 0.6322(3) 0.0533(3)
N4 N 0.0102(3) 0.4938(3) 0.3522(4)
H16 H -0.0061 0.4549 0.3425
N5 N 0.0119(3) 0.5733(4) 0.4302(3)
N6 N 0.3082(7) 0.5886(7) -0.0440(6)
C13 C 0.2063(4) 0.5737(4) 0.1672(4)
C14 C 0.1558(5) 0.5544(4) 0.2162(4)
C15 C 0.1503(5) 0.5853(4) 0.2761(4)
H17 H 0.1800 0.6198 0.2864
C16 C 0.1032(4) 0.5678(4) 0.3216(4)
H18 H 0.0997 0.5903 0.3623
C17 C 0.0607(4) 0.5159(4) 0.3063(4)
C18 C 0.0667(4) 0.4827(5) 0.2486(4)
H19 H 0.0383 0.4469 0.2393
C19 C 0.1138(5) 0.5008(4) 0.2038(5)
H20 H 0.1180 0.4770 0.1639
C20 C -0.0149(4) 0.5194(4) 0.4035(4)
C21 C 0.2908(7) 0.6277(6) 0.0064(6)
C22 C 0.2269(6) 0.6609(7) 0.0048(6)
H21 H 0.1933 0.6302 -0.0110
H22 H 0.2292 0.6987 -0.0249
H23 H 0.2154 0.6759 0.0490
C23 C 0.2682(8) 0.5746(8) -0.1013(7)
H24 H 0.2800 0.5314 -0.1190
H25 H 0.2759 0.6083 -0.1348
H26 H 0.2217 0.5747 -0.0889
C24 C 0.3702(7) 0.5602(8) -0.0422(8)
H27 H 0.3676 0.5174 -0.0203
H28 H 0.4003 0.5888 -0.0178
H29 H 0.3865 0.5542 -0.0871
H15F H 0.2220 0.7456 0.2143
O4E O -0.3171(3) 0.2598(3) 0.3752(3)
O5E O -0.3843(3) 0.2867(3) 0.4576(4)
N4E N -0.1478(4) 0.4898(3) 0.5062(3)
H16E H -0.1575 0.5061 0.5451
N5E N -0.0698(3) 0.4881(3) 0.4267(4)
C13E C -0.3328(4) 0.2937(4) 0.4263(4)
C14E C -0.2838(4) 0.3442(5) 0.4456(4)
C15E C -0.2239(4) 0.3497(5) 0.4147(4)
H17E H -0.2136 0.3200 0.3802
C16E C -0.1784(4) 0.3968(4) 0.4322(4)
H18E H -0.1377 0.4003 0.4097
C17E C -0.1937(4) 0.4393(4) 0.4841(4)
C18E C -0.2514(4) 0.4333(4) 0.5173(5)
H19E H -0.2607 0.4617 0.5531
C19E C -0.2962(5) 0.3862(5) 0.4992(4)
H20E H -0.3361 0.3820 0.5230
C20E C -0.0965(4) 0.5149(4) 0.4806(4)
O4K O -0.1248(3) 0.8171(3) 0.7402(3)
O5K O -0.0424(4) 0.8843(3) 0.7133(3)
N4K N 0.0062(3) 0.6478(4) 0.5102(3)
H16K H 0.0451 0.6575 0.4939
N5K N -0.0733(4) 0.5698(3) 0.5119(3)
C13K C -0.0737(4) 0.8328(4) 0.7063(4)
C14K C -0.0544(4) 0.7838(4) 0.6558(5)
C15K C -0.0853(4) 0.7239(4) 0.6503(5)
H17K H -0.1198 0.7136 0.6800
C16K C -0.0678(4) 0.6784(4) 0.6032(4)
H18K H -0.0903 0.6377 0.5997
C17K C -0.0159(4) 0.6937(4) 0.5607(4)
C18K C 0.0173(5) 0.7514(4) 0.5667(4)
H19K H 0.0531 0.7607 0.5383
C19K C -0.0008(4) 0.7962(5) 0.6138(5)
H20K H 0.0230 0.8361 0.6180
C20K C -0.0194(4) 0.5965(4) 0.4851(4)
O7F O 0.4467(3) 0.6712(4) 0.1322(3)
N6F N 0.5440(6) 0.6918(7) 0.0886(7)
C21F C 0.4936(6) 0.7092(7) 0.1277(6)
C22F C 0.4952(6) 0.7731(6) 0.1609(7)
H21F H 0.5110 0.8067 0.1302
H22F H 0.5249 0.7708 0.1987
H23F H 0.4510 0.7846 0.1759
C23F C 0.6013(7) 0.7318(8) 0.0746(8)
H24F H 0.6190 0.7200 0.0314
H25F H 0.6348 0.7241 0.1083
H26F H 0.5889 0.7783 0.0747
C24F C 0.5422(8) 0.6298(7) 0.0602(8)
H27F H 0.5203 0.6324 0.0174
H28F H 0.5178 0.5997 0.0888
H29F H 0.5871 0.6135 0.0542
O7I O 0.3678(3) 0.5533(3) 0.1712(4)
N6I N 0.4114(7) 0.4560(6) 0.1918(7)
C21I C 0.3723(6) 0.5064(6) 0.2092(7)
C22I C 0.3391(7) 0.5048(6) 0.2731(6)
H21I H 0.3698 0.4890 0.3067
H22I H 0.3013 0.4751 0.2708
H23I H 0.3241 0.5490 0.2846
C23I C 0.4254(8) 0.3987(7) 0.2318(8)
H24I H 0.4686 0.3810 0.2200
H25I H 0.3917 0.3652 0.2241
H26I H 0.4253 0.4111 0.2783
C24I C 0.4398(8) 0.4578(8) 0.1298(7)
H27I H 0.4826 0.4797 0.1324
H28I H 0.4112 0.4822 0.0997
H29I H 0.4458 0.4129 0.1135
Tm2B Tm -0.33830(2) 0.16170(2) 0.33830(2)
Tm2C Tm -0.16170(2) 0.83830(2) 0.83830(2)
O4F O 0.3171(3) 0.7598(3) 0.1248(3)
O4I O 0.3752(3) 0.6829(3) 0.2598(3)
O8 O 0.1965(8) 0.6965(8) 0.8035(8)
O9 O 0.2991(8) 0.7991(8) 0.7009(8)
O10 O 0.1921(17) 0.7364(18) 0.6305(18)
O11 O 0.223(2) 0.342(2) 0.189(2)
H30? H 0.2544 0.7143 0.2780
loop_
_geom_bond_atom_site_label_1
_geom_bond_atom_site_label_2
_geom_bond_site_symmetry_1
_geom_bond_site_symmetry_2
Tm1 O1 1_555 1_555
O1 C1 1_555 1_555
O2 C1 1_555 1_555
O3 Tm1 1_555 1_555
N1 H1 1_555 1_555
N2 C8 1_555 1_555
N3 C9 1_555 1_555
C1 C2 1_555 1_555
C2 C3 1_555 1_555
C3 H2 1_555 1_555
C4 C3 1_555 1_555
H3 C4 1_555 1_555
C5 N1 1_555 1_555
C6 C5 1_555 1_555
H4 C6 1_555 1_555
C7 C2 1_555 1_555
H5 C7 1_555 1_555
C8 N1 1_555 1_555
C9 O3 1_555 1_555
C10 C9 1_555 1_555
H6 C10 1_555 1_555
H7 C10 1_555 1_555
H8 C10 1_555 1_555
C11 N3 1_555 1_555
H9 C11 1_555 1_555
H10 C11 1_555 1_555
H11 C11 1_555 1_555
C12 N3 1_555 1_555
H12 C12 1_555 1_555
H13 C12 1_555 1_555
H14 C12 1_555 1_555
Tm2 O4 1_555 1_555
O4 C13 1_555 1_555
O5 C13 1_555 1_555
O6 Tm2 1_555 1_555
H15 O6 1_555 1_555
O7 Tm2 1_555 1_555
N4 H16 1_555 1_555
N5 C20 1_555 1_555
N6 C21 1_555 1_555
C13 C14 1_555 1_555
C14 C15 1_555 1_555
C15 H17 1_555 1_555
C16 C15 1_555 1_555
H18 C16 1_555 1_555
C17 N4 1_555 1_555
C18 C17 1_555 1_555
H19 C18 1_555 1_555
C19 C14 1_555 1_555
H20 C19 1_555 1_555
C20 N4 1_555 1_555
C21 O7 1_555 1_555
C22 C21 1_555 1_555
H21 C22 1_555 1_555
H22 C22 1_555 1_555
H23 C22 1_555 1_555
C23 N6 1_555 1_555
H24 C23 1_555 1_555
H25 C23 1_555 1_555
H26 C23 1_555 1_555
C24 N6 1_555 1_555
H27 C24 1_555 1_555
H28 C24 1_555 1_555
H29 C24 1_555 1_555
O1G C1G 1_555 1_555
O2G C1G 1_555 1_555
N1G H1G 1_555 1_555
N2G C8G 1_555 1_555
C1G C2G 1_555 1_555
C2G C3G 1_555 1_555
C3G H2G 1_555 1_555
C4G C3G 1_555 1_555
H3G C4G 1_555 1_555
C5G N1G 1_555 1_555
C6G C5G 1_555 1_555
H4G C6G 1_555 1_555
C7G C2G 1_555 1_555
H5G C7G 1_555 1_555
C8G N2 1_555 1_555
O1J C1J 1_555 1_555
O2J C1J 1_555 1_555
N1J H1J 1_555 1_555
N2J C8 1_555 1_555
C1J C2J 1_555 1_555
C2J C3J 1_555 1_555
C3J H2J 1_555 1_555
C4J C3J 1_555 1_555
H3J C4J 1_555 1_555
C5J N1J 1_555 1_555
C6J C5J 1_555 1_555
H4J C6J 1_555 1_555
C7J C2J 1_555 1_555
H5J C7J 1_555 1_555
C8J N2G 1_555 1_555
O3F Tm1 1_555 1_555
N3F C9F 1_555 1_555
C9F O3F 1_555 1_555
C10F C9F 1_555 1_555
H6F C10F 1_555 1_555
H7F C10F 1_555 1_555
H8F C10F 1_555 1_555
C11F N3F 1_555 1_555
H9F C11F 1_555 1_555
H10F C11F 1_555 1_555
H11F C11F 1_555 1_555
C12F N3F 1_555 1_555
H12F C12F 1_555 1_555
H13F C12F 1_555 1_555
H14F C12F 1_555 1_555
O3I Tm1 1_555 1_555
N3I C9I 1_555 1_555
C9I O3I 1_555 1_555
C10I C9I 1_555 1_555
H6I C10I 1_555 1_555
H7I C10I 1_555 1_555
H8I C10I 1_555 1_555
C11I N3I 1_555 1_555
H9I C11I 1_555 1_555
H10I C11I 1_555 1_555
H11I C11I 1_555 1_555
C12I N3I 1_555 1_555
H12I C12I 1_555 1_555
H13I C12I 1_555 1_555
H14I C12I 1_555 1_555
Tm1A O1J 1_555 1_555
Tm1C O1G 1_555 1_555
O1F Tm1 1_555 1_555
O1I Tm1 1_555 1_555
H15F O6 1_555 1_555
O4E C13E 1_555 1_555
O5E C13E 1_555 1_555
N4E H16E 1_555 1_555
N5E C20 1_555 1_555
C13E C14E 1_555 1_555
C14E C15E 1_555 1_555
C15E H17E 1_555 1_555
C16E C15E 1_555 1_555
H18E C16E 1_555 1_555
C17E N4E 1_555 1_555
C18E C17E 1_555 1_555
H19E C18E 1_555 1_555
C19E C14E 1_555 1_555
H20E C19E 1_555 1_555
C20E N4E 1_555 1_555
O4K C13K 1_555 1_555
O5K C13K 1_555 1_555
N4K H16K 1_555 1_555
N5K C20E 1_555 1_555
C13K C14K 1_555 1_555
C14K C15K 1_555 1_555
C15K H17K 1_555 1_555
C16K C15K 1_555 1_555
H18K C16K 1_555 1_555
C17K N4K 1_555 1_555
C18K C17K 1_555 1_555
H19K C18K 1_555 1_555
C19K C14K 1_555 1_555
H20K C19K 1_555 1_555
C20K N5 1_555 1_555
O7F Tm2 1_555 1_555
N6F C21F 1_555 1_555
C21F O7F 1_555 1_555
C22F C21F 1_555 1_555
H21F C22F 1_555 1_555
H22F C22F 1_555 1_555
H23F C22F 1_555 1_555
C23F N6F 1_555 1_555
H24F C23F 1_555 1_555
H25F C23F 1_555 1_555
H26F C23F 1_555 1_555
C24F N6F 1_555 1_555
H27F C24F 1_555 1_555
H28F C24F 1_555 1_555
H29F C24F 1_555 1_555
O7I Tm2 1_555 1_555
N6I C21I 1_555 1_555
C21I O7I 1_555 1_555
C22I C21I 1_555 1_555
H21I C22I 1_555 1_555
H22I C22I 1_555 1_555
H23I C22I 1_555 1_555
C23I N6I 1_555 1_555
H24I C23I 1_555 1_555
H25I C23I 1_555 1_555
H26I C23I 1_555 1_555
C24I N6I 1_555 1_555
H27I C24I 1_555 1_555
H28I C24I 1_555 1_555
H29I C24I 1_555 1_555
Tm2B O4E 1_555 1_555
Tm2C O4K 1_555 1_555
O4F Tm2 1_555 1_555
O4I Tm2 1_555 1_555
C4 C5 1_555 1_555
C6 C7 1_555 1_555
C16 C17 1_555 1_555
C18 C19 1_555 1_555
N1G C8G 1_555 1_555
C4G C5G 1_555 1_555
C6G C7G 1_555 1_555
N1J C8J 1_555 1_555
N2J C8J 1_555 1_555
C4J C5J 1_555 1_555
C6J C7J 1_555 1_555
N5E C20E 1_555 1_555
C16E C17E 1_555 1_555
C18E C19E 1_555 1_555
N4K C20K 1_555 1_555
N5K C20K 1_555 1_555
C16K C17K 1_555 1_555
C18K C19K 1_555 1_555

#END
