
#######################################################################
#
#                 Cambridge Crystallographic Data Centre
#                                CCDC 
#
#######################################################################
#
# If this CIF has been generated from an entry in the Cambridge 
# Structural Database, then it will include bibliographic, chemical, 
# crystal, experimental, refinement or atomic coordinate data resulting 
# from the CCDC's data processing and validation procedures.
#
#######################################################################

data_SOZQAB
_symmetry_cell_setting           orthorhombic
_symmetry_space_group_name_H-M   'P n m a'
_symmetry_Int_Tables_number      62
_space_group_name_Hall           '-P 2ac 2n'
loop_
_symmetry_equiv_pos_site_id
_symmetry_equiv_pos_as_xyz
1 x,y,z
2 1/2-x,-y,1/2+z
3 1/2+x,1/2-y,1/2-z
4 -x,1/2+y,-z
5 -x,-y,-z
6 1/2+x,y,1/2-z
7 1/2-x,1/2+y,1/2+z
8 x,1/2-y,z
_cell_length_a                   6.9011(3)
_cell_length_b                   17.0505(7)
_cell_length_c                   17.5113(7)
_cell_angle_alpha                90
_cell_angle_beta                 90
_cell_angle_gamma                90
_cell_volume                     2060.51
loop_
_atom_site_label
_atom_site_type_symbol
_atom_site_fract_x
_atom_site_fract_y
_atom_site_fract_z
C1 C 1.0073(3) 0.89593(11) 0.86023(11)
H1 H 0.9738 0.8539 0.8914
C2 C 1.0820(3) 0.96543(11) 0.75881(11)
H2 H 1.1087 0.9808 0.7090
C3 C 1.0805(3) 1.01117(11) 0.82114(11)
H3 H 1.1076 1.0646 0.8213
C4 C 1.0394(4) 0.7500 0.77946(14)
H4 H 1.0603 0.7500 0.8319
C5 C 1.0239(2) 0.82019(11) 0.74051(10)
C6 C 0.9980(3) 0.82114(15) 0.66186(12)
H5 H 0.9870 0.8682 0.6354
C7 C 0.9892(4) 0.7500 0.62404(17)
H6 H 0.9767 0.7500 0.5712
C8 C 0.7004(3) 1.10189(9) 0.92264(9)
C9 C 0.7052(3) 1.2500 0.91734(12)
H7 H 0.8018 1.2500 0.9544
C10 C 0.6337(2) 1.17913(9) 0.88989(9)
C11 C 0.4948(3) 1.17959(14) 0.83203(13)
H8 H 0.4470 1.1325 0.8131
C12 C 0.4279(5) 1.2500 0.80262(17)
H9 H 0.3379 1.2500 0.7631
Co1 Co 1.0000 1.0000 1.0000
N1 N 1.0332(2) 0.96795(9) 0.88447(9)
N2 N 1.0358(2) 0.89082(9) 0.78364(8)
O1 O 0.85341(19) 1.10169(7) 0.96197(8)
O2 O 0.59697(19) 1.04286(7) 0.90897(7)
O3 O 0.7376(2) 0.93271(8) 0.99979(6)
H10 H 0.6563 0.9535 1.0301
H11 H 0.6907 0.9319 0.9549
C1G C 1.0073(3) 0.60407(11) 0.86023(11)
H1G H 0.9738 0.6461 0.8914
C2G C 1.0820(3) 0.53457(11) 0.75881(11)
H2G H 1.1087 0.5192 0.7090
C3G C 1.0805(3) 0.48883(11) 0.82114(11)
H3G H 1.1076 0.4354 0.8213
C5G C 1.0239(2) 0.67981(11) 0.74051(10)
C6G C 0.9980(3) 0.67886(15) 0.66186(12)
H5G H 0.9870 0.6318 0.6354
N1G N 1.0332(2) 0.53205(9) 0.88447(9)
N2G N 1.0358(2) 0.60918(9) 0.78364(8)
C8G C 0.7004(3) 1.39811(9) 0.92264(9)
C10G C 0.6337(2) 1.32087(9) 0.88989(9)
C11G C 0.4948(3) 1.32041(14) 0.83203(13)
H8G H 0.4470 1.3675 0.8131
O1G O 0.85341(19) 1.39831(7) 0.96197(8)
O2G O 0.59697(19) 1.45714(7) 0.90897(7)
O3D O 1.2624(2) 1.06729(8) 1.00021(6)
H10D H 1.3437 1.0465 0.9699
H11D H 1.3093 1.0681 1.0451
Co1C Co 1.0000 0.5000 1.0000
Co1C_2 Co 1.0000 1.5000 1.0000
N1D N 0.9668(2) 1.03205(9) 1.11553(9)
O1D O 1.14659(19) 0.89831(7) 1.03803(8)
O4 O 0.6288(5) 0.2500 0.48059(16)
H12 H 0.6534 0.2918 0.5051
H12G H 0.6534 0.2082 0.5051
H13? H 0.5869 0.2153 0.5112
loop_
_geom_bond_atom_site_label_1
_geom_bond_atom_site_label_2
_geom_bond_site_symmetry_1
_geom_bond_site_symmetry_2
C1 H1 1_555 1_555
C2 H2 1_555 1_555
C3 C2 1_555 1_555
H3 C3 1_555 1_555
C4 H4 1_555 1_555
C5 C4 1_555 1_555
C6 C5 1_555 1_555
H5 C6 1_555 1_555
C7 C6 1_555 1_555
H6 C7 1_555 1_555
C8 C10 1_555 1_555
C9 H7 1_555 1_555
C10 C9 1_555 1_555
C11 C10 1_555 1_555
H8 C11 1_555 1_555
C12 C11 1_555 1_555
H9 C12 1_555 1_555
Co1 N1 1_555 1_555
N1 C1 1_555 1_555
N2 C1 1_555 1_555
O1 C8 1_555 1_555
O2 C8 1_555 1_555
O3 Co1 1_555 1_555
H10 O3 1_555 1_555
H11 O3 1_555 1_555
O4 H12 1_555 1_555
C1G H1G 1_555 1_555
C2G H2G 1_555 1_555
C3G C2G 1_555 1_555
H3G C3G 1_555 1_555
C5G C4 1_555 1_555
C6G C7 1_555 1_555
H5G C6G 1_555 1_555
N1G C1G 1_555 1_555
N2G C1G 1_555 1_555
C8G C10G 1_555 1_555
C10G C9 1_555 1_555
C11G C12 1_555 1_555
H8G C11G 1_555 1_555
O1G C8G 1_555 1_555
O2G C8G 1_555 1_555
O3D Co1 1_555 1_555
H10D O3D 1_555 1_555
H11D O3D 1_555 1_555
Co1C N1G 1_555 1_555
Co1C_2 O1G 1_555 1_555
N1D Co1 1_555 1_555
O1D Co1 1_555 1_555
H12G O4 1_555 1_555
C2 N2 1_555 1_555
C3 N1 1_555 1_555
C5 N2 1_555 1_555
Co1 O1 1_555 1_555
C2G N2G 1_555 1_555
C3G N1G 1_555 1_555
C5G C6G 1_555 1_555
C5G N2G 1_555 1_555
C10G C11G 1_555 1_555

#END
