
#######################################################################
#
#                 Cambridge Crystallographic Data Centre
#                                CCDC 
#
#######################################################################
#
# If this CIF has been generated from an entry in the Cambridge 
# Structural Database, then it will include bibliographic, chemical, 
# crystal, experimental, refinement or atomic coordinate data resulting 
# from the CCDC's data processing and validation procedures.
#
#######################################################################

data_SSULAN04
_symmetry_cell_setting           orthorhombic
_symmetry_space_group_name_H-M   'P b c a'
_symmetry_Int_Tables_number      61
_space_group_name_Hall           '-P 2ac 2ab'
loop_
_symmetry_equiv_pos_site_id
_symmetry_equiv_pos_as_xyz
1 x,y,z
2 1/2-x,-y,1/2+z
3 -x,1/2+y,1/2-z
4 1/2+x,1/2-y,-z
5 -x,-y,-z
6 1/2+x,y,1/2-z
7 x,1/2-y,1/2+z
8 1/2-x,1/2+y,z
_cell_length_a                   10.091(5)
_cell_length_b                   7.948(4)
_cell_length_c                   24.004(12)
_cell_angle_alpha                90
_cell_angle_beta                 90
_cell_angle_gamma                90
_cell_volume                     1925.2
loop_
_atom_site_label
_atom_site_type_symbol
_atom_site_fract_x
_atom_site_fract_y
_atom_site_fract_z
Na1 Na 0.66496(10) -0.09238(12) 0.51997(4)
S1 S 0.53922(6) -0.44798(8) 0.59761(3)
O1 O 0.40811(18) -0.5256(2) 0.60338(8)
O2 O 0.53029(19) -0.2861(2) 0.56963(8)
O3 O 0.63472(19) -0.5630(2) 0.57287(8)
O4 O 0.5117(2) 0.1030(2) 0.55830(8)
H1 H 0.4694 0.0810 0.5885
H2 H 0.5562 0.1930 0.5641
O5 O 0.72662(18) 0.1769(2) 0.47159(8)
H3 H 0.6538 0.1903 0.4542
H4 H 0.7847 0.1406 0.4486
N1 N 0.6642(2) -0.3601(3) 0.83743(9)
H5 H 0.7496 -0.3929 0.8479
H6 H 0.6421 -0.2536 0.8515
C1 C 0.5908(2) -0.4095(3) 0.66665(11)
C2 C 0.6962(2) -0.4944(3) 0.69046(11)
H7 H 0.7493 -0.5641 0.6688
C3 C 0.7224(2) -0.4753(3) 0.74665(11)
H8 H 0.7940 -0.5318 0.7623
C4 C 0.6438(2) -0.3734(3) 0.78029(11)
C5 C 0.5391(2) -0.2859(3) 0.75519(11)
H9 H 0.4860 -0.2158 0.7767
C6 C 0.5139(2) -0.3024(3) 0.69928(11)
H10 H 0.4451 -0.2418 0.6831
Na1G Na 0.83504(10) -0.59238(12) 0.51997(4)
Na1D Na 0.33504(10) 0.09238(12) 0.48003(4)
Na1G_2 Na 0.83504(10) 0.40762(12) 0.51997(4)
O3G O 0.86528(19) -0.0630(2) 0.57287(8)
O4D O 0.4883(2) -0.1030(2) 0.44170(8)
H1D H 0.5306 -0.0810 0.4115
H2D H 0.4438 -0.1930 0.4359
O5G O 0.77338(18) -0.3231(2) 0.47159(8)
H3G H 0.8462 -0.3097 0.4542
H4G H 0.7153 -0.3594 0.4486
loop_
_geom_bond_atom_site_label_1
_geom_bond_atom_site_label_2
_geom_bond_site_symmetry_1
_geom_bond_site_symmetry_2
Na1 O2 1_555 1_555
S1 O1 1_555 1_555
O2 S1 1_555 1_555
O3 S1 1_555 1_555
O4 Na1 1_555 1_555
H1 O4 1_555 1_555
H2 O4 1_555 1_555
O5 Na1 1_555 1_555
H3 O5 1_555 1_555
H4 O5 1_555 1_555
N1 H5 1_555 1_555
H6 N1 1_555 1_555
C1 S1 1_555 1_555
C2 C1 1_555 1_555
H7 C2 1_555 1_555
C3 C2 1_555 1_555
H8 C3 1_555 1_555
C4 N1 1_555 1_555
C5 C4 1_555 1_555
H9 C5 1_555 1_555
C6 C1 1_555 1_555
H10 C6 1_555 1_555
Na1G O3 1_555 1_555
Na1D O4 1_555 1_555
Na1G_2 O5 1_555 1_555
O3G Na1 1_555 1_555
O4D Na1 1_555 1_555
H1D O4D 1_555 1_555
H2D O4D 1_555 1_555
O5G Na1 1_555 1_555
H3G O5G 1_555 1_555
H4G O5G 1_555 1_555
C3 C4 1_555 1_555
C5 C6 1_555 1_555
Na1G O5G 1_555 1_555
Na1D O4D 1_555 1_555

#END
