
#######################################################################
#
#                 Cambridge Crystallographic Data Centre
#                                CCDC 
#
#######################################################################
#
# If this CIF has been generated from an entry in the Cambridge 
# Structural Database, then it will include bibliographic, chemical, 
# crystal, experimental, refinement or atomic coordinate data resulting 
# from the CCDC's data processing and validation procedures.
#
#######################################################################

data_SUCBOJ
_symmetry_cell_setting           orthorhombic
_symmetry_space_group_name_H-M   'P m c 21'
_symmetry_Int_Tables_number      26
_space_group_name_Hall           'P 2c -2'
loop_
_symmetry_equiv_pos_site_id
_symmetry_equiv_pos_as_xyz
1 x,y,z
2 -x,-y,1/2+z
3 -x,y,z
4 x,-y,1/2+z
_cell_length_a                   14.4931(4)
_cell_length_b                   14.4538(6)
_cell_length_c                   22.7590(11)
_cell_angle_alpha                90
_cell_angle_beta                 90
_cell_angle_gamma                90
_cell_volume                     4767.56
loop_
_atom_site_label
_atom_site_type_symbol
_atom_site_fract_x
_atom_site_fract_y
_atom_site_fract_z
K4 K 0.000 0.1269(3) 0.53887(18)
O9 O 0.1640(9) 0.0384(7) 0.5120(4)
O10 O 0.000 -0.0603(9) 0.4999(7)
O11 O 0.000 0.3007(8) 0.5836(5)
O12 O 0.1699(8) 0.2053(7) 0.5786(5)
C13 C 0.0824(16) 0.3338(10) 0.6106(8)
H13 H 0.0863 0.3105 0.6505
H14 H 0.081 0.4008 0.6124
C14 C 0.2447(13) 0.1712(14) 0.5436(8)
H15 H 0.3032 0.1917 0.5597
H16 H 0.2396 0.1943 0.5037
C15 C 0.1677(14) 0.3022(12) 0.5757(7)
C16 C 0.0765(17) -0.0915(11) 0.4711(7)
C17 C 0.1603(18) -0.0600(13) 0.5058(9)
H17 H 0.1587 -0.0881 0.5445
H18 H 0.2158 -0.0811 0.4861
C18 C 0.2397(16) 0.0680(13) 0.5440(11)
H19 H 0.2957 0.0425 0.5271
H20 H 0.2348 0.046 0.5841
C19 C -0.045(2) 0.020(2) 0.6826(13)
C20 C -0.050(3) -0.075(2) 0.6536(15)
N1 N -0.043(3) -0.125(2) 0.6638(13)
N2 N -0.030(2) 0.0823(17) 0.6636(10)
N3 N 0.000 0.2178(12) 0.2907(7)
C21 C 0.000 0.1251(13) 0.3231(12)
C22 C 0.033(3) 0.1388(18) 0.3907(12)
N4 N 0.069(3) 0.172(3) 0.4233(18)
O9B O -0.1640(9) 0.0384(7) 0.5120(4)
O12B O -0.1699(8) 0.2053(7) 0.5786(5)
C13B C -0.0824(16) 0.3338(10) 0.6106(8)
H13B H -0.0863 0.3105 0.6505
H14B H -0.081 0.4008 0.6124
C14B C -0.2447(13) 0.1712(14) 0.5436(8)
H15B H -0.3032 0.1917 0.5597
H16B H -0.2396 0.1943 0.5037
C15B C -0.1677(14) 0.3022(12) 0.5757(7)
C16B C -0.0765(17) -0.0915(11) 0.4711(7)
C17B C -0.1603(18) -0.0600(13) 0.5058(9)
H17B H -0.1587 -0.0881 0.5445
H18B H -0.2158 -0.0811 0.4861
C18B C -0.2397(16) 0.0680(13) 0.5440(11)
H19B H -0.2957 0.0425 0.5271
H20B H -0.2348 0.046 0.5841
C19B C 0.045(2) 0.020(2) 0.6826(13)
C20B C 0.050(3) -0.075(2) 0.6536(15)
N1B N 0.043(3) -0.125(2) 0.6638(13)
N2B N 0.030(2) 0.0823(17) 0.6636(10)
C22B C -0.033(3) 0.1388(18) 0.3907(12)
N4B N -0.069(3) 0.172(3) 0.4233(18)
K5 K 0.500 0.9136(3) 0.76400(19)
O13 O 0.500 1.0698(9) 0.6955(6)
O14 O 0.3292(8) 0.9819(10) 0.7129(5)
O15 O 0.3179(19) 0.8353(14) 0.7747(9)
C23 C 0.4176(15) 1.0992(10) 0.6666(8)
C24 C 0.353(3) 1.096(2) 0.6979(16)
C25 C 0.258(3) 0.985(2) 0.7489(16)
C26 C 0.244(3) 0.876(3) 0.7524(15)
O16 O 0.4714(15) 0.7174(11) 0.7788(8)
C27 C 0.310(3) 0.742(3) 0.7747(18)
C28 C 0.359(3) 0.704(2) 0.7774(16)
C29 C 0.448(3) 0.679(3) 0.8091(17)
N5 N 0.500 0.9967(13) 1.0120(8)
C30 C 0.500 0.8986(14) 0.9919(9)
N6 N 0.5271(17) 0.9406(13) 0.8831(10)
C31 C 0.5332(19) 0.8949(15) 0.9259(13)
C32 C 0.385(3) 0.696(2) 0.8060(15)
O14B O 0.6708(8) 0.9819(10) 0.7129(5)
O15B O 0.6821(19) 0.8353(14) 0.7747(9)
C23B C 0.5824(15) 1.0992(10) 0.6666(8)
C24B C 0.647(3) 1.096(2) 0.6979(16)
C25B C 0.742(3) 0.985(2) 0.7489(16)
C26B C 0.756(3) 0.876(3) 0.7524(15)
O16B O 0.5286(15) 0.7174(11) 0.7788(8)
C27B C 0.690(3) 0.742(3) 0.7747(18)
C28B C 0.641(3) 0.704(2) 0.7774(16)
C29B C 0.552(3) 0.679(3) 0.8091(17)
C32B C 0.615(3) 0.696(2) 0.8060(15)
N6B N 0.4729(17) 0.9406(13) 0.8831(10)
C31B C 0.4668(19) 0.8949(15) 0.9259(13)
C33 C 0.500 0.5011(16) 0.1559(13)
N7 N 0.4482(18) 0.6574(13) 0.1707(10)
N8 N 0.4357(18) 0.4650(16) 0.1297(10)
C34 C 0.468(2) 0.612(2) 0.1422(13)
N7B N 0.5518(18) 0.6574(13) 0.1707(10)
N8B N 0.5643(18) 0.4650(16) 0.1297(10)
C34B C 0.532(2) 0.612(2) 0.1422(13)
Bi1 Bi 0.500 0.78997(5) 0.33146(3)
Bi2 Bi 0.000 0.44460(5) 0.45132(3)
Te1 Te 0.500 0.59327(9) 0.33845(7)
Te2 Te 0.000 0.64155(8) 0.44655(7)
Te3 Te 0.15251(8) 0.39843(6) 0.37747(4)
Te4 Te 0.34684(8) 0.83842(6) 0.40405(4)
K1 K 0.500 0.6718(3) 0.4951(2)
K2 K 0.000 0.5544(3) 0.2842(2)
K3 K 0.2492(3) 0.6171(2) 0.39069(15)
O1 O 0.000 0.7693(10) 0.2773(7)
O2 O 0.1704(7) 0.5117(7) 0.2030(4)
O3 O 0.1735(8) 0.6729(6) 0.2749(4)
O4 O 0.000 0.4153(9) 0.1911(6)
C1 C 0.2509(14) 0.5368(10) 0.2345(8)
C2 C 0.2517(13) 0.6440(11) 0.2419(7)
C3 C 0.1629(12) 0.4134(9) 0.1978(7)
H1 H 0.1562 0.3863 0.2366
H2 H 0.2187 0.3888 0.1802
C4 C 0.0815(13) 0.3879(10) 0.1608(7)
C5 C 0.0806(11) 0.7988(9) 0.3057(6)
H3 H 0.0818 0.7733 0.3451
H4 H 0.0795 0.8657 0.3091
C6 C 0.1656(13) 0.7707(9) 0.2744(6)
O5 O 0.500 0.7987(9) 0.5895(6)
O6 O 0.3306(8) 0.7043(6) 0.5788(4)
O7 O 0.500 0.4597(9) 0.4949(6)
O8 O 0.3260(7) 0.5510(6) 0.5025(4)
C7 C 0.4177(10) 0.4264(9) 0.4666(5)
H5 H 0.4203 0.3597 0.4627
H6 H 0.4124 0.4532 0.4277
C8 C 0.2504(11) 0.6780(11) 0.5456(7)
C9 C 0.4207(12) 0.8258(10) 0.6218(7)
H7 H 0.4199 0.7944 0.6595
H8 H 0.4223 0.8919 0.6289
C10 C 0.2472(13) 0.5741(11) 0.5405(8)
C11 C 0.3380(12) 0.4530(9) 0.5025(6)
H9 H 0.2828 0.4237 0.4871
H10 H 0.3469 0.4315 0.5425
C12 C 0.3344(12) 0.8007(10) 0.5869(6)
H11 H 0.3357 0.8315 0.549
H12 H 0.2799 0.8214 0.6079
O2B O -0.1704(7) 0.5117(7) 0.2030(4)
O3B O -0.1735(8) 0.6729(6) 0.2749(4)
C1B C -0.2509(14) 0.5368(10) 0.2345(8)
C2B C -0.2517(13) 0.6440(11) 0.2419(7)
C3B C -0.1629(12) 0.4134(9) 0.1978(7)
H1B H -0.1562 0.3863 0.2366
H2B H -0.2187 0.3888 0.1802
C4B C -0.0815(13) 0.3879(10) 0.1608(7)
C5B C -0.0806(11) 0.7988(9) 0.3057(6)
H3B H -0.0818 0.7733 0.3451
H4B H -0.0795 0.8657 0.3091
C6B C -0.1656(13) 0.7707(9) 0.2744(6)
O6B O 0.6694(8) 0.7043(6) 0.5788(4)
O8B O 0.6740(7) 0.5510(6) 0.5025(4)
C7B C 0.5823(10) 0.4264(9) 0.4666(5)
H5B H 0.5797 0.3597 0.4627
H6B H 0.5876 0.4532 0.4277
C8B C 0.7496(11) 0.6780(11) 0.5456(7)
C9B C 0.5793(12) 0.8258(10) 0.6218(7)
H7B H 0.5801 0.7944 0.6595
H8B H 0.5777 0.8919 0.6289
C10B C 0.7528(13) 0.5741(11) 0.5405(8)
C11B C 0.6620(12) 0.4530(9) 0.5025(6)
H9B H 0.7172 0.4237 0.4871
H10B H 0.6531 0.4315 0.5425
C12B C 0.6656(12) 0.8007(10) 0.5869(6)
H11B H 0.6643 0.8315 0.549
H12B H 0.7201 0.8214 0.6079
Te3B Te -0.15251(8) 0.39843(6) 0.37747(4)
Te4B Te -0.34684(8) 0.83842(6) 0.40405(4)
K3B K -0.2492(3) 0.6171(2) 0.39069(15)
Bi1_2 Bi -0.500 0.78997(5) 0.33146(3)
Te1_2 Te -0.500 0.59327(9) 0.33845(7)
Te4B_2 Te 0.65316(8) 0.83842(6) 0.40405(4)
K1_2 K -0.500 0.6718(3) 0.4951(2)
K3B_2 K 0.7508(3) 0.6171(2) 0.39069(15)
O8B_2 O -0.3260(7) 0.5510(6) 0.5025(4)
C35? C 0.330(3) 1.069(3) 0.7130(18)
O17? O 0.3569(16) 0.8026(15) 0.7822(8)
C36? C 0.261(2) 0.935(2) 0.7644(11)
C37? C 0.262(4) 0.830(3) 0.7578(18)
N9? N 0.022(5) 0.173(3) 0.424(2)
loop_
_geom_bond_atom_site_label_1
_geom_bond_atom_site_label_2
_geom_bond_site_symmetry_1
_geom_bond_site_symmetry_2
Bi1 Te1 1_555 1_555
Bi2 Te2 1_555 1_555
Te1 K1 1_555 1_555
Te2 K2 1_555 1_555
Te3 Bi2 1_555 1_555
Te4 Bi1 1_555 1_555
K1 Bi1 1_555 1_555
K2 Bi2 1_555 1_555
K3 Te1 1_555 1_555
O1 K2 1_555 1_555
O2 K2 1_555 1_555
O3 K2 1_555 1_555
O4 K2 1_555 1_555
C1 O2 1_555 1_555
C2 O3 1_555 1_555
C3 O2 1_555 1_555
H1 C3 1_555 1_555
H2 C3 1_555 1_555
C4 O4 1_555 1_555
C5 O1 1_555 1_555
H3 C5 1_555 1_555
H4 C5 1_555 1_555
C6 O3 1_555 1_555
O5 K1 1_555 1_555
O6 K1 1_555 1_555
O7 K1 1_555 1_555
O8 K1 1_555 1_555
C7 O7 1_555 1_555
H5 C7 1_555 1_555
H6 C7 1_555 1_555
C8 O6 1_555 1_555
C9 O5 1_555 1_555
H7 C9 1_555 1_555
H8 C9 1_555 1_555
C10 O8 1_555 1_555
C11 O8 1_555 1_555
H9 C11 1_555 1_555
H10 C11 1_555 1_555
C12 O6 1_555 1_555
H11 C12 1_555 1_555
H12 C12 1_555 1_555
K4 O9 1_555 1_555
O9 C17 1_555 1_555
O10 K4 1_555 1_555
O11 K4 1_555 1_555
O12 K4 1_555 1_555
C13 O11 1_555 1_555
H13 C13 1_555 1_555
H14 C13 1_555 1_555
C14 O12 1_555 1_555
H15 C14 1_555 1_555
H16 C14 1_555 1_555
C15 O12 1_555 1_555
C16 O10 1_555 1_555
C17 C16 1_555 1_555
H17 C17 1_555 1_555
H18 C17 1_555 1_555
C18 O9 1_555 1_555
H19 C18 1_555 1_555
H20 C18 1_555 1_555
C19 C20 1_555 1_555
C20 N1B 1_555 1_555
N1 C20B 1_555 1_555
N2 K4 1_555 1_555
N3 C21 1_555 1_555
C21 C22 1_555 1_555
C22 N4B 1_555 1_555
N4 K4 1_555 1_555
K5 O13 1_555 1_555
O13 C23 1_555 1_555
O14 K5 1_555 1_555
O15 K5 1_555 1_555
C23 C24 1_555 1_555
C24 O14 1_555 1_555
C25 O14 1_555 1_555
C26 O15 1_555 1_555
O16 K5 1_555 1_555
C27 O15 1_555 1_555
C28 O16 1_555 1_555
C29 C28 1_555 1_555
N5 C30 1_555 1_555
C30 C31 1_555 1_555
N6 K5 1_555 1_555
C31 N6B 1_555 1_555
C32 O16 1_555 1_555
C33 N8 1_555 1_555
N7 C34B 1_555 1_555
C34 C33 1_555 1_555
O2B K2 1_555 1_555
O3B K2 1_555 1_555
C1B O2B 1_555 1_555
C2B O3B 1_555 1_555
C3B O2B 1_555 1_555
H1B C3B 1_555 1_555
H2B C3B 1_555 1_555
C4B O4 1_555 1_555
C5B O1 1_555 1_555
H3B C5B 1_555 1_555
H4B C5B 1_555 1_555
C6B O3B 1_555 1_555
O6B K1 1_555 1_555
O8B K1 1_555 1_555
C7B O7 1_555 1_555
H5B C7B 1_555 1_555
H6B C7B 1_555 1_555
C8B O6B 1_555 1_555
C9B O5 1_555 1_555
H7B C9B 1_555 1_555
H8B C9B 1_555 1_555
C10B O8B 1_555 1_555
C11B O8B 1_555 1_555
H9B C11B 1_555 1_555
H10B C11B 1_555 1_555
C12B O6B 1_555 1_555
H11B C12B 1_555 1_555
H12B C12B 1_555 1_555
Te3B Bi2 1_555 1_555
Te4B K3B 1_555 1_555
K3B Te2 1_555 1_555
Bi1_2 Te4B 1_555 1_555
Te1_2 K3B 1_555 1_555
Te4B_2 Bi1 1_555 1_555
K1_2 Te4B 1_555 1_555
K3B_2 Te1 1_555 1_555
O8B_2 K3B 1_555 1_555
O9B K4 1_555 1_555
O12B K4 1_555 1_555
C13B O11 1_555 1_555
H13B C13B 1_555 1_555
H14B C13B 1_555 1_555
C14B O12B 1_555 1_555
H15B C14B 1_555 1_555
H16B C14B 1_555 1_555
C15B O12B 1_555 1_555
C16B O10 1_555 1_555
C17B O9B 1_555 1_555
H17B C17B 1_555 1_555
H18B C17B 1_555 1_555
C18B O9B 1_555 1_555
H19B C18B 1_555 1_555
H20B C18B 1_555 1_555
C19B N2 1_555 1_555
C20B C19B 1_555 1_555
N2B K4 1_555 1_555
C22B C21 1_555 1_555
N4B K4 1_555 1_555
O14B K5 1_555 1_555
O15B K5 1_555 1_555
C23B O13 1_555 1_555
C24B O14B 1_555 1_555
C25B O14B 1_555 1_555
C26B O15B 1_555 1_555
O16B K5 1_555 1_555
C27B O15B 1_555 1_555
C28B O16B 1_555 1_555
C29B C29 1_555 1_555
C32B O16B 1_555 1_555
N6B K5 1_555 1_555
C31B C30 1_555 1_555
N7B C34 1_555 1_555
N8B C33 1_555 1_555
C34B C33 1_555 1_555
Te2 K3 1_555 1_555
Te3 K2 1_555 1_555
Te3 K3 1_555 1_555
Te4 K1 1_555 1_555
Te4 K3 1_555 1_555
K1 Te4B_2 1_555 1_555
K2 Te3B 1_555 1_555
K3 O3 1_555 1_555
K3 O8 1_555 1_555
C1 C2 1_555 1_555
C3 C4 1_555 1_555
C5 C6 1_555 1_555
C7 C11 1_555 1_555
C8 C10 1_555 1_555
C9 C12 1_555 1_555
C13 C15 1_555 1_555
C14 C18 1_555 1_555
C19 N2B 1_555 1_555
N4 C22B 1_555 1_555
C25 C26 1_555 1_555
O16 O16B 1_555 1_555
C27 C28 1_555 1_555
C27 C32 1_555 1_555
C28 C32 1_555 1_555
C29 C32 1_555 1_555
N6 C31B 1_555 1_555
O3B K3B 1_555 1_555
C1B C2B 1_555 1_555
C3B C4B 1_555 1_555
C5B C6B 1_555 1_555
O8B K3B_2 1_555 1_555
C7B C11B 1_555 1_555
C8B C10B 1_555 1_555
C9B C12B 1_555 1_555
Te3B K3B 1_555 1_555
Bi1_2 Te1_2 1_555 1_555
Bi1_2 K1_2 1_555 1_555
Te1_2 K1_2 1_555 1_555
Te4B_2 K3B_2 1_555 1_555
K1_2 O8B_2 1_555 1_555
C13B C15B 1_555 1_555
C14B C18B 1_555 1_555
C16B C17B 1_555 1_555
C23B C24B 1_555 1_555
C25B C26B 1_555 1_555
C27B C28B 1_555 1_555
C27B C32B 1_555 1_555
C28B C29B 1_555 1_555
C28B C32B 1_555 1_555
C29B C32B 1_555 1_555

#END
