
#######################################################################
#
#                 Cambridge Crystallographic Data Centre
#                                CCDC 
#
#######################################################################
#
# If this CIF has been generated from an entry in the Cambridge 
# Structural Database, then it will include bibliographic, chemical, 
# crystal, experimental, refinement or atomic coordinate data resulting 
# from the CCDC's data processing and validation procedures.
#
#######################################################################

data_SUCXAP
_symmetry_cell_setting           monoclinic
_symmetry_space_group_name_H-M   'I 2/a'
_symmetry_Int_Tables_number      15
_space_group_name_Hall           '-I 2ya'
loop_
_symmetry_equiv_pos_site_id
_symmetry_equiv_pos_as_xyz
1 x,y,z
2 1/2+x,1/2+y,1/2+z
3 1/2-x,y,-z
4 -x,1/2+y,1/2-z
5 -x,-y,-z
6 1/2-x,1/2-y,1/2-z
7 1/2+x,-y,z
8 x,1/2-y,1/2+z
_cell_length_a                   8.164(2)
_cell_length_b                   11.171(3)
_cell_length_c                   20.980(5)
_cell_angle_alpha                90
_cell_angle_beta                 91.42(3)
_cell_angle_gamma                90
_cell_volume                     1912.79
loop_
_atom_site_label
_atom_site_type_symbol
_atom_site_fract_x
_atom_site_fract_y
_atom_site_fract_z
Co1 Co 0.0000 0.0000 0.0000
O1 O 0.0660(2) 0.0814(2) -0.0824(1)
O2 O -0.1589(2) 0.1803(2) -0.1136(1)
O3 O -0.0411(2) 0.2726(2) -0.3485(1)
O4 O 0.2029(2) 0.1368(2) -0.3771(1)
O5 O 0.1135(2) 0.1347(2) 0.0495(1)
O6 O 0.2500 -0.0890(2) 0.0000
C1 C -0.0231(2) 0.1342(2) -0.1249(1)
C2 C 0.0421(2) 0.1363(2) -0.1909(1)
C3 C -0.0318(2) 0.2078(2) -0.2382(1)
C4 C 0.0236(3) 0.2043(2) -0.2999(1)
C5 C 0.1565(3) 0.1314(2) -0.3150(1)
C6 C 0.2314(3) 0.0623(2) -0.2681(1)
C7 C 0.1725(3) 0.0644(2) -0.2062(1)
C8 C 0.3384(4) 0.0656(4) -0.3952(1)
H1 H -0.118(3) 0.262(2) -0.228(1)
H2 H 0.321(3) 0.010(2) -0.279(1)
H3 H 0.234(3) 0.010(2) -0.173(1)
H4 H -0.138(3) 0.287(3) -0.347(1)
H5 H 0.305(4) -0.030(3) -0.391(1)
H6 H 0.441(4) 0.087(3) -0.372(1)
H7 H 0.355(3) 0.083(3) -0.433(1)
H8 H 0.214(3) 0.125(2) 0.064(1)
H9 H 0.080(2) 0.168(2) 0.074(1)
H10 H 0.261(3) -0.133(2) -0.030(1)
O1D O -0.0660(2) -0.0814(2) 0.0824(1)
O5D O -0.1135(2) -0.1347(2) -0.0495(1)
O6D O -0.2500 0.0890(2) 0.0000
Co1B Co 0.5000 0.0000 0.0000
H10B H 0.239(3) -0.133(2) 0.030(1)
C1D C 0.0231(2) -0.1342(2) 0.1249(1)
H8D H -0.214(3) -0.125(2) -0.064(1)
H9D H -0.080(2) -0.168(2) -0.074(1)
Co1B_2 Co -0.5000 0.0000 0.0000
H10D H -0.261(3) 0.133(2) 0.030(1)
H10F H -0.239(3) 0.133(2) -0.030(1)
O1B O 0.4340(2) 0.0814(2) 0.0824(1)
O1F O 0.5660(2) -0.0814(2) -0.0824(1)
O5B O 0.3865(2) 0.1347(2) -0.0495(1)
O5F O 0.6135(2) -0.1347(2) 0.0495(1)
O6D_2 O 0.7500 0.0890(2) 0.0000
O2D O 0.1589(2) -0.1803(2) 0.1136(1)
C2D C -0.0421(2) -0.1363(2) 0.1909(1)
C1B C 0.5231(2) 0.1342(2) 0.1249(1)
C1F C 0.4769(2) -0.1342(2) -0.1249(1)
H8B H 0.286(3) 0.125(2) -0.064(1)
H9B H 0.420(2) 0.168(2) -0.074(1)
H8F H 0.714(3) -0.125(2) 0.064(1)
H9F H 0.580(2) -0.168(2) 0.074(1)
C3D C 0.0318(2) -0.2078(2) 0.2382(1)
C7D C -0.1725(3) -0.0644(2) 0.2062(1)
O2B O 0.6589(2) 0.1803(2) 0.1136(1)
C2B C 0.4579(2) 0.1363(2) 0.1909(1)
O2F O 0.3411(2) -0.1803(2) -0.1136(1)
C2F C 0.5421(2) -0.1363(2) -0.1909(1)
C4D C -0.0236(3) -0.2043(2) 0.2999(1)
H1D H 0.118(3) -0.262(2) 0.228(1)
C6D C -0.2314(3) -0.0623(2) 0.2681(1)
H3D H -0.234(3) -0.010(2) 0.173(1)
C3B C 0.5318(2) 0.2078(2) 0.2382(1)
C7B C 0.3275(3) 0.0644(2) 0.2062(1)
C3F C 0.4682(2) -0.2078(2) -0.2382(1)
C7F C 0.6725(3) -0.0644(2) -0.2062(1)
O3D O 0.0411(2) -0.2726(2) 0.3485(1)
C5D C -0.1565(3) -0.1314(2) 0.3150(1)
H2D H -0.321(3) -0.010(2) 0.279(1)
C4B C 0.4764(3) 0.2043(2) 0.2999(1)
H1B H 0.618(3) 0.262(2) 0.228(1)
C6B C 0.2686(3) 0.0623(2) 0.2681(1)
H3B H 0.266(3) 0.010(2) 0.173(1)
C4F C 0.5236(3) -0.2043(2) -0.2999(1)
H1F H 0.382(3) -0.262(2) -0.228(1)
C6F C 0.7314(3) -0.0623(2) -0.2681(1)
H3F H 0.734(3) -0.010(2) -0.173(1)
H4D H 0.138(3) -0.287(3) 0.347(1)
O4D O -0.2029(2) -0.1368(2) 0.3771(1)
O3B O 0.5411(2) 0.2726(2) 0.3485(1)
C5B C 0.3435(3) 0.1314(2) 0.3150(1)
H2B H 0.179(3) 0.010(2) 0.279(1)
O3F O 0.4589(2) -0.2726(2) -0.3485(1)
C5F C 0.6565(3) -0.1314(2) -0.3150(1)
H2F H 0.821(3) -0.010(2) -0.279(1)
C8D C -0.3384(4) -0.0656(4) 0.3952(1)
H4B H 0.638(3) 0.287(3) 0.347(1)
O4B O 0.2971(2) 0.1368(2) 0.3771(1)
H4F H 0.362(3) -0.287(3) -0.347(1)
O4F O 0.7029(2) -0.1368(2) -0.3771(1)
H5D H -0.305(4) 0.030(3) 0.391(1)
H6D H -0.441(4) -0.087(3) 0.372(1)
H7D H -0.355(3) -0.083(3) 0.433(1)
C8B C 0.1616(4) 0.0656(4) 0.3952(1)
C8F C 0.8384(4) -0.0656(4) -0.3952(1)
H5B H 0.195(4) -0.030(3) 0.391(1)
H6B H 0.059(4) 0.087(3) 0.372(1)
H7B H 0.145(3) 0.083(3) 0.433(1)
H5F H 0.805(4) 0.030(3) -0.391(1)
H6F H 0.941(4) -0.087(3) -0.372(1)
H7F H 0.855(3) -0.083(3) -0.433(1)
loop_
_geom_bond_atom_site_label_1
_geom_bond_atom_site_label_2
_geom_bond_site_symmetry_1
_geom_bond_site_symmetry_2
Co1 O1 1_555 1_555
O1 C1 1_555 1_555
O2 C1 1_555 1_555
O3 C4 1_555 1_555
O4 C5 1_555 1_555
O5 Co1 1_555 1_555
O6 Co1 1_555 1_555
C1 C2 1_555 1_555
C2 C3 1_555 1_555
C3 C4 1_555 1_555
C4 C5 1_555 1_555
C5 C6 1_555 1_555
C6 C7 1_555 1_555
C7 C2 1_555 1_555
C8 O4 1_555 1_555
H1 C3 1_555 1_555
H2 C6 1_555 1_555
H3 C7 1_555 1_555
H4 O3 1_555 1_555
H5 C8 1_555 1_555
H6 C8 1_555 1_555
H7 C8 1_555 1_555
H8 O5 1_555 1_555
H9 O5 1_555 1_555
H10 O6 1_555 1_555
O1D Co1 1_555 1_555
O5D Co1 1_555 1_555
O6D Co1 1_555 1_555
Co1B O6 1_555 1_555
H10B O6 1_555 1_555
C1D O1D 1_555 1_555
H8D O5D 1_555 1_555
H9D O5D 1_555 1_555
Co1B_2 O6D 1_555 1_555
H10D O6D 1_555 1_555
H10F O6D 1_555 1_555
O1B Co1B 1_555 1_555
O1F Co1B 1_555 1_555
O5B Co1B 1_555 1_555
O5F Co1B 1_555 1_555
O6D_2 Co1B 1_555 1_555
O2D C1D 1_555 1_555
C2D C1D 1_555 1_555
C1B O1B 1_555 1_555
C1F O1F 1_555 1_555
H8B O5B 1_555 1_555
H9B O5B 1_555 1_555
H8F O5F 1_555 1_555
H9F O5F 1_555 1_555
C3D C2D 1_555 1_555
C7D C2D 1_555 1_555
O2B C1B 1_555 1_555
C2B C1B 1_555 1_555
O2F C1F 1_555 1_555
C2F C1F 1_555 1_555
C4D C3D 1_555 1_555
H1D C3D 1_555 1_555
C6D C7D 1_555 1_555
H3D C7D 1_555 1_555
C3B C2B 1_555 1_555
C7B C2B 1_555 1_555
C3F C2F 1_555 1_555
C7F C2F 1_555 1_555
O3D C4D 1_555 1_555
C5D C4D 1_555 1_555
H2D C6D 1_555 1_555
C4B C3B 1_555 1_555
H1B C3B 1_555 1_555
C6B C7B 1_555 1_555
H3B C7B 1_555 1_555
C4F C3F 1_555 1_555
H1F C3F 1_555 1_555
C6F C7F 1_555 1_555
H3F C7F 1_555 1_555
H4D O3D 1_555 1_555
O4D C5D 1_555 1_555
O3B C4B 1_555 1_555
C5B C4B 1_555 1_555
H2B C6B 1_555 1_555
O3F C4F 1_555 1_555
C5F C4F 1_555 1_555
H2F C6F 1_555 1_555
C8D O4D 1_555 1_555
H4B O3B 1_555 1_555
O4B C5B 1_555 1_555
H4F O3F 1_555 1_555
O4F C5F 1_555 1_555
H5D C8D 1_555 1_555
H6D C8D 1_555 1_555
H7D C8D 1_555 1_555
C8B O4B 1_555 1_555
C8F O4F 1_555 1_555
H5B C8B 1_555 1_555
H6B C8B 1_555 1_555
H7B C8B 1_555 1_555
H5F C8F 1_555 1_555
H6F C8F 1_555 1_555
H7F C8F 1_555 1_555
C6D C5D 1_555 1_555
C6B C5B 1_555 1_555
C6F C5F 1_555 1_555

#END
