
#######################################################################
#
#                 Cambridge Crystallographic Data Centre
#                                CCDC 
#
#######################################################################
#
# If this CIF has been generated from an entry in the Cambridge 
# Structural Database, then it will include bibliographic, chemical, 
# crystal, experimental, refinement or atomic coordinate data resulting 
# from the CCDC's data processing and validation procedures.
#
#######################################################################

data_SUCYAS
_symmetry_cell_setting           triclinic
_symmetry_space_group_name_H-M   'P -1'
_symmetry_Int_Tables_number      2
_space_group_name_Hall           '-P 1'
loop_
_symmetry_equiv_pos_site_id
_symmetry_equiv_pos_as_xyz
1 x,y,z
2 -x,-y,-z
_cell_length_a                   12.2703(9)
_cell_length_b                   14.3748(11)
_cell_length_c                   15.4849(12)
_cell_angle_alpha                69.0820(10)
_cell_angle_beta                 89.7050(10)
_cell_angle_gamma                89.8320(10)
_cell_volume                     2551.23
loop_
_atom_site_label
_atom_site_type_symbol
_atom_site_fract_x
_atom_site_fract_y
_atom_site_fract_z
Pb1 Pb 0.45827(3) 1.01162(2) 0.11665(2)
Pb2 Pb 0.96114(3) 0.50025(2) 0.38330(2)
Ni1 Ni 0.04584(9) 1.20520(9) 0.00363(8)
Ni2 Ni 0.55233(9) 0.30200(8) 0.50766(8)
O1 O 0.8196(5) 0.4520(4) 0.5078(4)
O2 O 0.8391(5) 0.3580(5) 0.3863(4)
O3 O 0.3147(5) 1.0570(5) -0.0034(4)
O4 O 0.3374(5) 1.1549(5) 0.1142(4)
O5 O 0.5305(5) 0.8344(5) 0.1997(4)
O6 O 0.4520(5) 0.8681(5) 0.0626(4)
O7 O 0.8071(5) 0.5772(5) 0.3069(4)
O8 O 0.8988(5) 0.5333(5) 0.2026(4)
O9 O 0.6676(7) 0.5387(7) -0.0631(5)
O10 O 0.5065(7) 0.6062(6) -0.0809(5)
O11 O 1.0323(5) 0.6783(5) 0.3049(4)
O12 O 0.9533(5) 0.6405(5) 0.4435(4)
O13 O 1.0121(7) 0.8996(6) 0.5903(5)
O14 O 1.1714(7) 0.9696(7) 0.5700(6)
O15 O 1.3971(5) 0.9776(5) 0.2978(4)
O16 O 1.3055(5) 0.9339(5) 0.1950(4)
N1 N 0.6483(6) 0.3805(5) 0.5476(5)
N2 N 0.4267(6) 0.3424(6) 0.5551(5)
N3 N 0.4769(6) 0.1939(6) 0.4954(6)
N4 N 0.6649(6) 0.2961(5) 0.4257(5)
N5 N 0.1420(6) 1.1266(6) -0.0395(5)
N6 N -0.0798(6) 1.1664(6) -0.0449(5)
N7 N -0.0299(6) 1.3136(6) 0.0197(6)
N8 N 0.1585(6) 1.2084(5) 0.0850(5)
N9 N 1.1004(8) 0.9205(7) 0.5507(6)
N10 N 0.5960(8) 0.5862(7) -0.0418(6)
C1 C 0.7431(7) 0.3985(6) 0.5016(6)
C2 C 0.6275(8) 0.4212(6) 0.6159(6)
C3 C 0.7075(8) 0.4463(7) 0.6660(6)
H1 H 0.7812 0.4300 0.6586
C4 C 0.6825(8) 0.4953(7) 0.7276(6)
H2 H 0.7388 0.5106 0.7623
C5 C 0.5746(9) 0.5215(8) 0.7377(7)
H3 H 0.5574 0.5589 0.7757
C6 C 0.4951(8) 0.4926(7) 0.6925(6)
H4 H 0.4216 0.5089 0.7007
C7 C 0.5175(8) 0.4396(7) 0.6341(6)
C8 C 0.4254(8) 0.4033(7) 0.5990(6)
H5 H 0.3558 0.4267 0.6094
C9 C 0.3215(8) 0.3165(7) 0.5244(6)
H6 H 0.3220 0.3361 0.4563
H7 H 0.2623 0.3539 0.5414
C10 C 0.2995(8) 0.2053(8) 0.5687(7)
H8 H 0.2714 0.1905 0.6322
H9 H 0.2425 0.1865 0.5330
C11 C 0.4011(8) 0.1427(8) 0.5726(8)
H10 H 0.4386 0.1297 0.6322
H11 H 0.3795 0.0778 0.5692
C12 C 0.4933(8) 0.1545(7) 0.4336(8)
H12 H 0.4530 0.0963 0.4391
C13 C 0.5679(8) 0.1917(7) 0.3569(8)
C14 C 0.6533(8) 0.2599(7) 0.3521(7)
C15 C 0.7172(9) 0.2915(8) 0.2724(7)
H13 H 0.7734 0.3386 0.2671
C16 C 0.7020(10) 0.2573(10) 0.2012(8)
H14 H 0.7472 0.2809 0.1478
C17 C 0.6218(10) 0.1892(10) 0.2067(9)
H15 H 0.6121 0.1647 0.1578
C18 C 0.5554(9) 0.1564(9) 0.2836(9)
H16 H 0.5000 0.1091 0.2873
C19 C 0.7538(7) 0.3469(6) 0.4315(6)
C20 C 0.2373(7) 1.1100(6) 0.0045(6)
C21 C 0.1190(8) 1.0860(7) -0.1074(6)
C22 C 0.0100(8) 1.0696(7) -0.1255(6)
C23 C -0.0133(9) 1.0167(8) -0.1835(7)
H17 H -0.0869 1.0007 -0.1908
C24 C 0.0668(9) 0.9877(8) -0.2297(7)
H18 H 0.0493 0.9523 -0.2692
C25 C 0.1736(9) 1.0105(7) -0.2184(6)
H19 H 0.2293 0.9930 -0.2526
C26 C 0.2014(8) 1.0580(6) -0.1583(6)
H20 H 0.2756 1.0721 -0.1510
C27 C -0.0835(8) 1.1075(7) -0.0892(6)
H21 H -0.1536 1.0859 -0.0998
C28 C -0.1858(7) 1.1936(7) -0.0140(7)
H22 H -0.1863 1.1732 0.0542
H23 H -0.2453 1.1577 -0.0318
C29 C -0.2054(8) 1.3059(8) -0.0576(7)
H24 H -0.2643 1.3248 -0.0231
H25 H -0.2302 1.3221 -0.1221
C30 C -0.1038(8) 1.3669(8) -0.0576(8)
H26 H -0.0643 1.3817 -0.1170
H27 H -0.1258 1.4310 -0.0525
C31 C -0.0114(8) 1.3495(7) 0.0821(8)
H28 H -0.0507 1.4079 0.0783
C32 C 0.0635(8) 1.3104(7) 0.1584(7)
C33 C 0.1477(8) 1.2438(7) 0.1589(7)
C34 C 0.2149(8) 1.2100(7) 0.2372(7)
H29 H 0.2717 1.1639 0.2403
C35 C 0.1991(9) 1.2434(8) 0.3105(8)
H30 H 0.2455 1.2199 0.3628
C36 C 0.1174(9) 1.3099(8) 0.3081(8)
H31 H 0.1068 1.3314 0.3588
C37 C 0.0512(9) 1.3449(8) 0.2321(8)
H32 H -0.0033 1.3930 0.2292
C38 C 0.2488(8) 1.1614(7) 0.0742(6)
C39 C 0.7279(7) 0.6175(7) 0.1603(6)
C40 C 0.6619(7) 0.6897(6) 0.1732(6)
H33 H 0.6769 0.7129 0.2222
C41 C 0.5741(7) 0.7287(7) 0.1152(6)
C42 C 0.5502(8) 0.6936(7) 0.0452(6)
H34 H 0.4892 0.7181 0.0061
C43 C 0.6175(8) 0.6219(7) 0.0338(6)
C44 C 0.7064(8) 0.5832(7) 0.0883(6)
H35 H 0.7517 0.5348 0.0774
C45 C 0.8196(8) 0.5738(7) 0.2258(6)
C46 C 0.5138(7) 0.8159(7) 0.1279(6)
C47 C 1.0770(7) 0.7789(7) 0.3907(6)
C48 C 1.1632(7) 0.8196(6) 0.3319(6)
H36 H 1.1775 0.7974 0.2821
C49 C 1.2297(7) 0.8925(6) 0.3439(6)
C50 C 1.2092(8) 0.9239(7) 0.4163(6)
H37 H 1.2548 0.9720 0.4270
C51 C 1.1206(8) 0.8843(7) 0.4736(6)
C52 C 1.0536(8) 0.8137(7) 0.4632(6)
H38 H 0.9932 0.7888 0.5034
C53 C 1.0157(7) 0.6956(7) 0.3780(6)
C54 C 1.3179(7) 0.9375(7) 0.2758(6)
Pb1_2 Pb 1.45827(3) 1.01162(2) 0.11665(2)
Pb1A Pb 0.54173(3) 0.98838(2) -0.11665(2)
Pb2A Pb 1.03886(3) 0.49975(2) 0.61670(2)
O6A O 0.5480(5) 1.1319(5) -0.0626(4)
O12A O 1.0467(5) 0.3595(5) 0.5565(4)
O15_2 O 0.3971(5) 0.9776(5) 0.2978(4)
O16_2 O 0.3055(5) 0.9339(5) 0.1950(4)
loop_
_geom_bond_atom_site_label_1
_geom_bond_atom_site_label_2
_geom_bond_site_symmetry_1
_geom_bond_site_symmetry_2
Pb1 O3 1_555 1_555
Pb2 O1 1_555 1_555
Ni1 N5 1_555 1_555
Ni2 N1 1_555 1_555
O1 C1 1_555 1_555
O2 Pb2 1_555 1_555
O3 C20 1_555 1_555
O4 Pb1 1_555 1_555
O5 Pb1 1_555 1_555
O6 Pb1 1_555 1_555
O7 Pb2 1_555 1_555
O8 Pb2 1_555 1_555
O9 N10 1_555 1_555
O10 N10 1_555 1_555
O11 Pb2 1_555 1_555
O12 Pb2 1_555 1_555
O13 N9 1_555 1_555
O14 N9 1_555 1_555
O15 C54 1_555 1_555
O16 C54 1_555 1_555
N1 C1 1_555 1_555
N2 Ni2 1_555 1_555
N3 Ni2 1_555 1_555
N4 Ni2 1_555 1_555
N5 C20 1_555 1_555
N6 Ni1 1_555 1_555
N7 Ni1 1_555 1_555
N8 Ni1 1_555 1_555
N9 C51 1_555 1_555
N10 C43 1_555 1_555
C1 C19 1_555 1_555
C2 N1 1_555 1_555
C3 C2 1_555 1_555
H1 C3 1_555 1_555
C4 C3 1_555 1_555
H2 C4 1_555 1_555
C5 C4 1_555 1_555
H3 C5 1_555 1_555
C6 C5 1_555 1_555
H4 C6 1_555 1_555
C7 C2 1_555 1_555
C8 N2 1_555 1_555
H5 C8 1_555 1_555
C9 N2 1_555 1_555
H6 C9 1_555 1_555
H7 C9 1_555 1_555
C10 C9 1_555 1_555
H8 C10 1_555 1_555
H9 C10 1_555 1_555
C11 N3 1_555 1_555
H10 C11 1_555 1_555
H11 C11 1_555 1_555
C12 N3 1_555 1_555
H12 C12 1_555 1_555
C13 C12 1_555 1_555
C14 N4 1_555 1_555
C15 C14 1_555 1_555
H13 C15 1_555 1_555
C16 C15 1_555 1_555
H14 C16 1_555 1_555
C17 C16 1_555 1_555
H15 C17 1_555 1_555
C18 C13 1_555 1_555
H16 C18 1_555 1_555
C19 O2 1_555 1_555
C20 C38 1_555 1_555
C21 N5 1_555 1_555
C22 C21 1_555 1_555
C23 C22 1_555 1_555
H17 C23 1_555 1_555
C24 C23 1_555 1_555
H18 C24 1_555 1_555
C25 C24 1_555 1_555
H19 C25 1_555 1_555
C26 C21 1_555 1_555
H20 C26 1_555 1_555
C27 N6 1_555 1_555
H21 C27 1_555 1_555
C28 N6 1_555 1_555
H22 C28 1_555 1_555
H23 C28 1_555 1_555
C29 C28 1_555 1_555
H24 C29 1_555 1_555
H25 C29 1_555 1_555
C30 N7 1_555 1_555
H26 C30 1_555 1_555
H27 C30 1_555 1_555
C31 N7 1_555 1_555
H28 C31 1_555 1_555
C32 C31 1_555 1_555
C33 N8 1_555 1_555
C34 C33 1_555 1_555
H29 C34 1_555 1_555
C35 C34 1_555 1_555
H30 C35 1_555 1_555
C36 C35 1_555 1_555
H31 C36 1_555 1_555
C37 C32 1_555 1_555
H32 C37 1_555 1_555
C38 O4 1_555 1_555
C39 C40 1_555 1_555
C40 H33 1_555 1_555
C41 C40 1_555 1_555
C42 C41 1_555 1_555
H34 C42 1_555 1_555
C43 C42 1_555 1_555
C44 C39 1_555 1_555
H35 C44 1_555 1_555
C45 O7 1_555 1_555
C46 O5 1_555 1_555
C47 C48 1_555 1_555
C48 H36 1_555 1_555
C49 C48 1_555 1_555
C50 C49 1_555 1_555
H37 C50 1_555 1_555
C51 C50 1_555 1_555
C52 C47 1_555 1_555
H38 C52 1_555 1_555
C53 O11 1_555 1_555
C54 C49 1_555 1_555
Pb1_2 O15 1_555 1_555
Pb1A O6 1_555 1_555
Pb2A O12 1_555 1_555
O6A Pb1 1_555 1_555
O12A Pb2 1_555 1_555
O15_2 Pb1 1_555 1_555
O16_2 Pb1 1_555 1_555
O6 C46 1_555 1_555
O8 C45 1_555 1_555
O12 C53 1_555 1_555
O16 Pb1_2 1_555 1_555
N4 C19 1_555 1_555
N8 C38 1_555 1_555
C6 C7 1_555 1_555
C7 C8 1_555 1_555
C10 C11 1_555 1_555
C13 C14 1_555 1_555
C17 C18 1_555 1_555
C22 C27 1_555 1_555
C25 C26 1_555 1_555
C29 C30 1_555 1_555
C32 C33 1_555 1_555
C36 C37 1_555 1_555
C39 C45 1_555 1_555
C41 C46 1_555 1_555
C43 C44 1_555 1_555
C47 C53 1_555 1_555
C51 C52 1_555 1_555
Pb1A O6A 1_555 1_555
Pb2A O12A 1_555 1_555

#END
