
#######################################################################
#
#                 Cambridge Crystallographic Data Centre
#                                CCDC 
#
#######################################################################
#
# If this CIF has been generated from an entry in the Cambridge 
# Structural Database, then it will include bibliographic, chemical, 
# crystal, experimental, refinement or atomic coordinate data resulting 
# from the CCDC's data processing and validation procedures.
#
#######################################################################

data_SUFBAY
_symmetry_cell_setting           tetragonal
_symmetry_space_group_name_H-M   'P 42/n'
_symmetry_Int_Tables_number      86
_space_group_name_Hall           '-P 4bc'
loop_
_symmetry_equiv_pos_site_id
_symmetry_equiv_pos_as_xyz
1 x,y,z
2 1/2-x,1/2-y,z
3 -y,1/2+x,1/2+z
4 1/2+y,-x,1/2+z
5 -x,-y,-z
6 1/2+x,1/2+y,-z
7 y,1/2-x,1/2-z
8 1/2-y,x,1/2-z
_cell_length_a                   12.78320(10)
_cell_length_b                   12.78320(10)
_cell_length_c                   32.5345(7)
_cell_angle_alpha                90
_cell_angle_beta                 90
_cell_angle_gamma                90
_cell_volume                     5316.47
loop_
_atom_site_label
_atom_site_type_symbol
_atom_site_fract_x
_atom_site_fract_y
_atom_site_fract_z
C1 C 1.5697(5) 0.6750(6) 0.7910(2)
C2 C 0.9581(4) 0.2539(3) 0.95121(14)
C3 C 0.9442(6) 0.1472(4) 0.9308(2)
C4 C 0.9605(10) 0.1480(6) 0.8869(2)
H1 H 0.9731 0.0780 0.8775
H2 H 1.0198 0.1911 0.8805
H3 H 0.8995 0.1756 0.8735
C5 C 1.0408(9) 0.0835(6) 0.9453(4)
H4 H 1.0220 0.0416 0.9687
H5 H 1.0960 0.1307 0.9528
H6 H 1.0642 0.0389 0.9234
C6 C 0.8587(7) 0.0874(5) 0.9464(2)
H7 H 0.7941 0.1178 0.9373
H8 H 0.8610 0.0873 0.9759
H9 H 0.8637 0.0168 0.9365
Cd1 Cd 1.7500 0.7500 0.7500
C7 C 1.4835(4) 0.6499(4) 0.82062(16)
C8 C 1.4014(5) 0.5845(6) 0.80989(17)
H10 H 1.3983 0.5556 0.7837
C9 C 1.3241(4) 0.5626(5) 0.83854(15)
H11 H 1.2696 0.5180 0.8314
C10 C 1.3262(3) 0.6044(3) 0.87645(13)
C11 C 1.4090(3) 0.6678(3) 0.88759(14)
H12 H 1.4128 0.6958 0.9139
C12 C 1.4860(4) 0.6888(4) 0.85901(17)
H13 H 1.5417 0.7314 0.8666
C13 C 1.2442(3) 0.5789(3) 0.90672(12)
C14 C 1.1408(3) 0.5890(3) 0.95985(11)
C15 C 1.1231(3) 0.4961(3) 0.93972(11)
C16 C 1.0477(3) 0.4223(3) 0.95430(11)
C17 C 1.0306(3) 0.3261(3) 0.93538(13)
H14 H 1.0680 0.3092 0.9118
C18 C 0.9004(3) 0.2840(3) 0.98532(13)
H15 H 0.8495 0.2388 0.9954
C19 C 0.9159(3) 0.3789(3) 1.00487(11)
C20 C 0.9913(3) 0.4505(3) 0.98981(11)
N1 N 1.2202(2) 0.6407(2) 0.93874(9)
H16 H 1.2481 0.6998 0.9449
N2 N 1.1889(3) 0.4904(3) 0.90642(10)
O1 O 1.6382(3) 0.7313(4) 0.80116(14)
O2 O 1.5679(5) 0.6376(7) 0.75644(18)
C1D C 0.4303(5) 0.3250(6) 1.2090(2)
C2D C 1.0419(4) 0.7461(3) 1.04879(14)
C3D C 1.0558(6) 0.8528(4) 1.0692(2)
C4D C 1.0395(10) 0.8520(6) 1.1131(2)
H1D H 1.0269 0.9220 1.1225
H2D H 0.9802 0.8089 1.1195
H3D H 1.1005 0.8244 1.1265
C5D C 0.9592(9) 0.9165(6) 1.0547(4)
H4D H 0.9780 0.9584 1.0313
H5D H 0.9040 0.8693 1.0472
H6D H 0.9358 0.9611 1.0766
C6D C 1.1413(7) 0.9126(5) 1.0536(2)
H7D H 1.2059 0.8822 1.0627
H8D H 1.1390 0.9127 1.0241
H9D H 1.1363 0.9832 1.0635
C7D C 0.5165(4) 0.3501(4) 1.17938(16)
C8D C 0.5986(5) 0.4155(6) 1.19011(17)
H10D H 0.6017 0.4444 1.2163
C9D C 0.6759(4) 0.4374(5) 1.16146(15)
H11D H 0.7304 0.4820 1.1686
C10D C 0.6738(3) 0.3956(3) 1.12355(13)
C11D C 0.5910(3) 0.3322(3) 1.11241(14)
H12D H 0.5872 0.3042 1.0861
C12D C 0.5140(4) 0.3112(4) 1.14099(17)
H13D H 0.4583 0.2686 1.1334
C13D C 0.7558(3) 0.4211(3) 1.09328(12)
C14D C 0.8592(3) 0.4110(3) 1.04015(11)
C15D C 0.8769(3) 0.5039(3) 1.06028(11)
C16D C 0.9523(3) 0.5777(3) 1.04570(11)
C17D C 0.9694(3) 0.6739(3) 1.06462(13)
H14D H 0.9320 0.6908 1.0882
C18D C 1.0996(3) 0.7160(3) 1.01468(13)
H15D H 1.1505 0.7612 1.0046
C19D C 1.0841(3) 0.6211(3) 0.99513(11)
C20D C 1.0087(3) 0.5495(3) 1.01019(11)
N1D N 0.7798(2) 0.3593(2) 1.06126(9)
H16D H 0.7519 0.3002 1.0551
N2D N 0.8111(3) 0.5096(3) 1.09358(10)
O1D O 0.3618(3) 0.2687(4) 1.19884(14)
O2D O 0.4321(5) 0.3624(7) 1.24356(18)
C1A C 1.9303(5) 0.8250(6) 0.7910(2)
C2A C 2.5419(4) 1.2461(3) 0.95121(14)
C3A C 2.5558(6) 1.3528(4) 0.9308(2)
C4A C 2.5395(10) 1.3520(6) 0.8869(2)
H1A H 2.5269 1.4220 0.8775
H2A H 2.4802 1.3089 0.8805
H3A H 2.6005 1.3244 0.8735
C5A C 2.4592(9) 1.4165(6) 0.9453(4)
H4A H 2.4780 1.4584 0.9687
H5A H 2.4040 1.3693 0.9528
H6A H 2.4358 1.4611 0.9234
C6A C 2.6413(7) 1.4126(5) 0.9464(2)
H7A H 2.7059 1.3822 0.9373
H8A H 2.6390 1.4127 0.9759
H9A H 2.6363 1.4832 0.9365
C7A C 2.0165(4) 0.8501(4) 0.82062(16)
C8A C 2.0986(5) 0.9155(6) 0.80989(17)
H10A H 2.1017 0.9444 0.7837
C9A C 2.1759(4) 0.9374(5) 0.83854(15)
H11A H 2.2304 0.9820 0.8314
C10A C 2.1738(3) 0.8956(3) 0.87645(13)
C11A C 2.0910(3) 0.8322(3) 0.88759(14)
H12A H 2.0872 0.8042 0.9139
C12A C 2.0140(4) 0.8112(4) 0.85901(17)
H13A H 1.9583 0.7686 0.8666
C13A C 2.2558(3) 0.9211(3) 0.90672(12)
C14A C 2.3592(3) 0.9110(3) 0.95985(11)
C15A C 2.3769(3) 1.0039(3) 0.93972(11)
C16A C 2.4523(3) 1.0777(3) 0.95430(11)
C17A C 2.4694(3) 1.1739(3) 0.93538(13)
H14A H 2.4320 1.1908 0.9118
C18A C 2.5996(3) 1.2160(3) 0.98532(13)
H15A H 2.6505 1.2612 0.9954
C19A C 2.5841(3) 1.1211(3) 1.00487(11)
C20A C 2.5087(3) 1.0495(3) 0.98981(11)
N1A N 2.2798(2) 0.8593(2) 0.93874(9)
H16A H 2.2519 0.8002 0.9449
N2A N 2.3111(3) 1.0096(3) 0.90642(10)
O1A O 1.8618(3) 0.7687(4) 0.80116(14)
O2A O 1.9321(5) 0.8624(7) 0.75644(18)
C1E C 3.0697(5) 1.1750(6) 1.2090(2)
C2E C 2.4581(4) 0.7539(3) 1.04879(14)
C3E C 2.4442(6) 0.6472(4) 1.0692(2)
C4E C 2.4605(10) 0.6480(6) 1.1131(2)
H1E H 2.4731 0.5780 1.1225
H2E H 2.5198 0.6911 1.1195
H3E H 2.3995 0.6756 1.1265
C5E C 2.5408(9) 0.5835(6) 1.0547(4)
H4E H 2.5220 0.5416 1.0313
H5E H 2.5960 0.6307 1.0472
H6E H 2.5642 0.5389 1.0766
C6E C 2.3587(7) 0.5874(5) 1.0536(2)
H7E H 2.2941 0.6178 1.0627
H8E H 2.3610 0.5873 1.0241
H9E H 2.3637 0.5168 1.0635
C7E C 2.9835(4) 1.1499(4) 1.17938(16)
C8E C 2.9014(5) 1.0845(6) 1.19011(17)
H10E H 2.8983 1.0556 1.2163
C9E C 2.8241(4) 1.0626(5) 1.16146(15)
H11E H 2.7696 1.0180 1.1686
C10E C 2.8262(3) 1.1044(3) 1.12355(13)
C11E C 2.9090(3) 1.1678(3) 1.11241(14)
H12E H 2.9128 1.1958 1.0861
C12E C 2.9860(4) 1.1888(4) 1.14099(17)
H13E H 3.0417 1.2314 1.1334
C13E C 2.7442(3) 1.0789(3) 1.09328(12)
C14E C 2.6408(3) 1.0890(3) 1.04015(11)
C15E C 2.6231(3) 0.9961(3) 1.06028(11)
C16E C 2.5477(3) 0.9223(3) 1.04570(11)
C17E C 2.5306(3) 0.8261(3) 1.06462(13)
H14E H 2.5680 0.8092 1.0882
C18E C 2.4004(3) 0.7840(3) 1.01468(13)
H15E H 2.3495 0.7388 1.0046
C19E C 2.4159(3) 0.8789(3) 0.99513(11)
C20E C 2.4913(3) 0.9505(3) 1.01019(11)
N1E N 2.7202(2) 1.1407(2) 1.06126(9)
H16E H 2.7481 1.1998 1.0551
N2E N 2.6889(3) 0.9904(3) 1.09358(10)
O1E O 3.1382(3) 1.2313(4) 1.19884(14)
O2E O 3.0679(5) 1.1376(7) 1.24356(18)
Cd1B Cd 0.2500 0.2500 1.2500
Cd1B_2 Cd 3.2500 1.2500 1.2500
O1F O 1.7313(4) 0.8618(3) 0.69884(14)
O1G O 1.7687(4) 0.6382(3) 0.69884(14)
O2F O 1.6376(7) 0.9321(5) 0.74356(18)
O2G O 1.8624(7) 0.5679(5) 0.74356(18)
O3 O 1.1860(4) 0.3302(4) 0.84705(15)
H17? H 1.1935 0.4401 0.8890
loop_
_geom_bond_atom_site_label_1
_geom_bond_atom_site_label_2
_geom_bond_site_symmetry_1
_geom_bond_site_symmetry_2
C1 C7 1_555 1_555
C2 C3 1_555 1_555
C3 C4 1_555 1_555
C4 H1 1_555 1_555
H2 C4 1_555 1_555
H3 C4 1_555 1_555
C5 C3 1_555 1_555
H4 C5 1_555 1_555
H5 C5 1_555 1_555
H6 C5 1_555 1_555
C6 C3 1_555 1_555
H7 C6 1_555 1_555
H8 C6 1_555 1_555
H9 C6 1_555 1_555
Cd1 O1 1_555 1_555
C7 C8 1_555 1_555
C8 H10 1_555 1_555
C9 C8 1_555 1_555
H11 C9 1_555 1_555
C10 C9 1_555 1_555
C11 C10 1_555 1_555
H12 C11 1_555 1_555
C12 C7 1_555 1_555
H13 C12 1_555 1_555
C13 C10 1_555 1_555
C14 C15 1_555 1_555
C15 C16 1_555 1_555
C16 C17 1_555 1_555
C17 C2 1_555 1_555
H14 C17 1_555 1_555
C18 C2 1_555 1_555
H15 C18 1_555 1_555
C19 C18 1_555 1_555
C20 C16 1_555 1_555
N1 C13 1_555 1_555
H16 N1 1_555 1_555
N2 C13 1_555 1_555
O1 C1 1_555 1_555
O2 C1 1_555 1_555
C1D C7D 1_555 1_555
C2D C3D 1_555 1_555
C3D C4D 1_555 1_555
C4D H1D 1_555 1_555
H2D C4D 1_555 1_555
H3D C4D 1_555 1_555
C5D C3D 1_555 1_555
H4D C5D 1_555 1_555
H5D C5D 1_555 1_555
H6D C5D 1_555 1_555
C6D C3D 1_555 1_555
H7D C6D 1_555 1_555
H8D C6D 1_555 1_555
H9D C6D 1_555 1_555
C7D C8D 1_555 1_555
C8D H10D 1_555 1_555
C9D C8D 1_555 1_555
H11D C9D 1_555 1_555
C10D C9D 1_555 1_555
C11D C10D 1_555 1_555
H12D C11D 1_555 1_555
C12D C7D 1_555 1_555
H13D C12D 1_555 1_555
C13D C10D 1_555 1_555
C14D C19 1_555 1_555
C15D C14D 1_555 1_555
C16D C15D 1_555 1_555
C17D C2D 1_555 1_555
H14D C17D 1_555 1_555
C18D C2D 1_555 1_555
H15D C18D 1_555 1_555
C19D C14 1_555 1_555
C20D C20 1_555 1_555
N1D C13D 1_555 1_555
H16D N1D 1_555 1_555
N2D C13D 1_555 1_555
O1D C1D 1_555 1_555
O2D C1D 1_555 1_555
C1A C7A 1_555 1_555
C2A C3A 1_555 1_555
C3A C4A 1_555 1_555
C4A H1A 1_555 1_555
H2A C4A 1_555 1_555
H3A C4A 1_555 1_555
C5A C3A 1_555 1_555
H4A C5A 1_555 1_555
H5A C5A 1_555 1_555
H6A C5A 1_555 1_555
C6A C3A 1_555 1_555
H7A C6A 1_555 1_555
H8A C6A 1_555 1_555
H9A C6A 1_555 1_555
C7A C8A 1_555 1_555
C8A H10A 1_555 1_555
C9A C8A 1_555 1_555
H11A C9A 1_555 1_555
C10A C9A 1_555 1_555
C11A C10A 1_555 1_555
H12A C11A 1_555 1_555
C12A C7A 1_555 1_555
H13A C12A 1_555 1_555
C13A C10A 1_555 1_555
C14A C15A 1_555 1_555
C15A C16A 1_555 1_555
C16A C17A 1_555 1_555
C17A C2A 1_555 1_555
H14A C17A 1_555 1_555
C18A C2A 1_555 1_555
H15A C18A 1_555 1_555
C19A C18A 1_555 1_555
C20A C16A 1_555 1_555
N1A C13A 1_555 1_555
H16A N1A 1_555 1_555
N2A C13A 1_555 1_555
O1A Cd1 1_555 1_555
O2A Cd1 1_555 1_555
C1E C7E 1_555 1_555
C2E C3E 1_555 1_555
C3E C4E 1_555 1_555
C4E H1E 1_555 1_555
H2E C4E 1_555 1_555
H3E C4E 1_555 1_555
C5E C3E 1_555 1_555
H4E C5E 1_555 1_555
H5E C5E 1_555 1_555
H6E C5E 1_555 1_555
C6E C3E 1_555 1_555
H7E C6E 1_555 1_555
H8E C6E 1_555 1_555
H9E C6E 1_555 1_555
C7E C8E 1_555 1_555
C8E H10E 1_555 1_555
C9E C8E 1_555 1_555
H11E C9E 1_555 1_555
C10E C9E 1_555 1_555
C11E C10E 1_555 1_555
H12E C11E 1_555 1_555
C12E C7E 1_555 1_555
H13E C12E 1_555 1_555
C13E C10E 1_555 1_555
C14E C19A 1_555 1_555
C15E C14E 1_555 1_555
C16E C15E 1_555 1_555
C17E C2E 1_555 1_555
H14E C17E 1_555 1_555
C18E C2E 1_555 1_555
H15E C18E 1_555 1_555
C19E C14A 1_555 1_555
C20E C20A 1_555 1_555
N1E C13E 1_555 1_555
H16E N1E 1_555 1_555
N2E C13E 1_555 1_555
O1E C1E 1_555 1_555
O2E C1E 1_555 1_555
Cd1B O1D 1_555 1_555
Cd1B_2 O1E 1_555 1_555
O1F Cd1 1_555 1_555
O1G Cd1 1_555 1_555
O2F Cd1 1_555 1_555
O2G Cd1 1_555 1_555
Cd1 O2 1_555 1_555
C11 C12 1_555 1_555
C14 N1 1_555 1_555
C15 N2 1_555 1_555
C19 C20 1_555 1_555
C11D C12D 1_555 1_555
C14D N1D 1_555 1_555
C15D N2D 1_555 1_555
C16D C17D 1_555 1_555
C16D C20D 1_555 1_555
C18D C19D 1_555 1_555
C19D C20D 1_555 1_555
O2D Cd1B 1_555 1_555
C1A O1A 1_555 1_555
C1A O2A 1_555 1_555
C11A C12A 1_555 1_555
C14A N1A 1_555 1_555
C15A N2A 1_555 1_555
C19A C20A 1_555 1_555
C11E C12E 1_555 1_555
C14E N1E 1_555 1_555
C15E N2E 1_555 1_555
C16E C17E 1_555 1_555
C16E C20E 1_555 1_555
C18E C19E 1_555 1_555
C19E C20E 1_555 1_555
O2E Cd1B_2 1_555 1_555

#END
