
#######################################################################
#
#                 Cambridge Crystallographic Data Centre
#                                CCDC 
#
#######################################################################
#
# If this CIF has been generated from an entry in the Cambridge 
# Structural Database, then it will include bibliographic, chemical, 
# crystal, experimental, refinement or atomic coordinate data resulting 
# from the CCDC's data processing and validation procedures.
#
#######################################################################

data_SUFJEK
_symmetry_cell_setting           tetragonal
_symmetry_space_group_name_H-M   'P 4/n c c'
_symmetry_Int_Tables_number      130
_space_group_name_Hall           '-P 4a 2ac'
loop_
_symmetry_equiv_pos_site_id
_symmetry_equiv_pos_as_xyz
1 x,y,z
2 1/2-x,1/2-y,z
3 1/2+x,-y,1/2-z
4 -x,1/2+y,1/2-z
5 -y,-x,1/2-z
6 1/2+y,1/2+x,1/2-z
7 y,1/2-x,z
8 1/2-y,x,z
9 -x,-y,-z
10 1/2+x,1/2+y,-z
11 1/2-x,y,1/2+z
12 x,1/2-y,1/2+z
13 y,x,1/2+z
14 1/2-y,1/2-x,1/2+z
15 -y,1/2+x,-z
16 1/2+y,-x,-z
_cell_length_a                   13.556(5)
_cell_length_b                   13.556(5)
_cell_length_c                   27.228(5)
_cell_angle_alpha                90
_cell_angle_beta                 90
_cell_angle_gamma                90
_cell_volume                     5003.56
loop_
_atom_site_label
_atom_site_type_symbol
_atom_site_fract_x
_atom_site_fract_y
_atom_site_fract_z
Zn1 Zn 0.90843(3) 0.02184(3) 0.947262(15)
N1 N 0.9860(2) 0.2651(2) 1.03385(12)
N2 N 1.0275(2) 0.1075(2) 1.03368(12)
N3 N 0.9611(2) 0.1229(2) 0.99625(11)
O1 O 0.9517(3) 0.0728(3) 0.88355(12)
O2 O 0.8590(3) -0.0552(3) 0.86671(11)
C1 C 0.9292(4) 0.0333(3) 0.80000(17)
C2 C 0.9979(4) 0.1014(4) 0.78534(19)
H1 H 1.0317 0.1367 0.8093
C3 C 1.0195(4) 0.1202(4) 0.73628(18)
H2 H 1.0685 0.1652 0.7278
C4 C 0.9110(3) 0.0140(4) 0.85269(16)
C5 C 0.9381(3) 0.2171(2) 0.99806(14)
H3 H 0.8935 0.2471 0.9768
C6 C 1.0406(3) 0.1938(3) 1.05487(13)
H4 H 1.0827 0.2042 1.0813
O1D O 0.9272(3) 0.0483(3) 0.61645(12)
O2D O 1.0552(3) 0.1410(3) 0.63329(11)
C1D C 0.9667(3) 0.0708(4) 0.70000(17)
C2D C 0.8986(4) 0.0021(4) 0.71466(19)
H1D H 0.8633 -0.0317 0.6907
C3D C 0.8798(4) -0.0195(4) 0.76372(18)
H2D H 0.8348 -0.0685 0.7722
C4D C 0.9860(4) 0.0890(3) 0.64731(16)
Zn1D Zn 0.97816(3) 0.09157(3) 0.552738(15)
N1D N 0.7349(2) 0.0140(2) 0.46615(12)
N2D N 0.8925(2) -0.0275(2) 0.46632(12)
N3D N 0.8771(2) 0.0389(2) 0.50375(11)
C5D C 0.7829(2) 0.0619(3) 0.50194(14)
H3D H 0.7529 0.1065 0.5232
C6D C 0.8062(3) -0.0406(3) 0.44513(13)
H4D H 0.7958 -0.0827 0.4187
Zn1H Zn 1.09157(3) -0.02184(3) 1.052738(15)
Zn1J Zn 0.59157(3) 0.02184(3) 0.447262(15)
Zn1L Zn 1.02184(3) -0.09157(3) 0.447262(15)
Zn1N Zn 0.97816(3) 0.40843(3) 1.052738(15)
N1K N 0.9860(2) 0.2349(2) 0.53385(12)
N1O N 0.7651(2) 0.0140(2) 0.96615(12)
N2H N 0.9725(2) -0.1075(2) 0.96632(12)
N2L N 1.1075(2) 0.0275(2) 0.53368(12)
loop_
_geom_bond_atom_site_label_1
_geom_bond_atom_site_label_2
_geom_bond_site_symmetry_1
_geom_bond_site_symmetry_2
Zn1 N3 1_555 1_555
N1 C5 1_555 1_555
N2 N3 1_555 1_555
N3 C5 1_555 1_555
O1 Zn1 1_555 1_555
O2 Zn1 1_555 1_555
C1 C2 1_555 1_555
C2 H1 1_555 1_555
C3 C2 1_555 1_555
H2 C3 1_555 1_555
C4 O1 1_555 1_555
C5 H3 1_555 1_555
C6 N1 1_555 1_555
H4 C6 1_555 1_555
O1D C4D 1_555 1_555
O2D C4D 1_555 1_555
C1D C3 1_555 1_555
C2D C1D 1_555 1_555
H1D C2D 1_555 1_555
C3D C1 1_555 1_555
H2D C3D 1_555 1_555
C4D C1D 1_555 1_555
Zn1D O1D 1_555 1_555
N1D C5D 1_555 1_555
N2D N3D 1_555 1_555
N3D Zn1D 1_555 1_555
C5D N3D 1_555 1_555
H3D C5D 1_555 1_555
C6D N1D 1_555 1_555
H4D C6D 1_555 1_555
Zn1H N2 1_555 1_555
Zn1J N1D 1_555 1_555
Zn1L N2D 1_555 1_555
Zn1N N1 1_555 1_555
N1K Zn1D 1_555 1_555
N1O Zn1 1_555 1_555
N2H Zn1 1_555 1_555
N2L Zn1D 1_555 1_555
N2 C6 1_555 1_555
O2 C4 1_555 1_555
C1 C4 1_555 1_555
O2D Zn1D 1_555 1_555
C2D C3D 1_555 1_555
N2D C6D 1_555 1_555

#END
