
#######################################################################
#
#                 Cambridge Crystallographic Data Centre
#                                CCDC 
#
#######################################################################
#
# If this CIF has been generated from an entry in the Cambridge 
# Structural Database, then it will include bibliographic, chemical, 
# crystal, experimental, refinement or atomic coordinate data resulting 
# from the CCDC's data processing and validation procedures.
#
#######################################################################

data_SUFJIO
_symmetry_cell_setting           tetragonal
_symmetry_space_group_name_H-M   'P 4/n c c'
_symmetry_Int_Tables_number      130
_space_group_name_Hall           '-P 4a 2ac'
loop_
_symmetry_equiv_pos_site_id
_symmetry_equiv_pos_as_xyz
1 x,y,z
2 1/2-x,1/2-y,z
3 1/2+x,-y,1/2-z
4 -x,1/2+y,1/2-z
5 -y,-x,1/2-z
6 1/2+y,1/2+x,1/2-z
7 y,1/2-x,z
8 1/2-y,x,z
9 -x,-y,-z
10 1/2+x,1/2+y,-z
11 1/2-x,y,1/2+z
12 x,1/2-y,1/2+z
13 y,x,1/2+z
14 1/2-y,1/2-x,1/2+z
15 -y,1/2+x,-z
16 1/2+y,-x,-z
_cell_length_a                   13.365(5)
_cell_length_b                   13.365(5)
_cell_length_c                   27.429(5)
_cell_angle_alpha                90
_cell_angle_beta                 90
_cell_angle_gamma                90
_cell_volume                     4899.46
loop_
_atom_site_label
_atom_site_type_symbol
_atom_site_fract_x
_atom_site_fract_y
_atom_site_fract_z
O3 O 0.2500 0.2500 0.38734(19)
C7 C 0.2500 0.2500 0.3449(3)
O4 O 0.2500 0.2500 0.30343(19)
O5 O 0.7500 0.2500 0.0730(2)
C8 C 0.7500 0.2500 0.1156(3)
O6 O 0.7500 0.2500 0.1593(3)
O7 O 0.8392(19) 0.1537(19) 0.1808(10)
Zn1 Zn 0.58775(3) 0.02348(3) 0.053316(13)
C1 C 0.4817(3) 0.1221(3) 0.26446(13)
H1 H 0.4333 0.1681 0.2741
C2 C 0.4998(3) 0.1063(3) 0.21505(14)
H2 H 0.4653 0.1432 0.1917
C3 C 0.5700(3) 0.0351(3) 0.20079(14)
C4 C 0.5885(2) 0.0153(3) 0.14754(14)
C5 C 0.5595(2) 0.2210(2) 0.00260(11)
H3 H 0.6002 0.2529 0.0253
C6 C 0.4669(2) 0.1937(2) -0.05819(11)
H4 H 0.4297 0.2025 -0.0866
N1 N 0.51610(19) 0.2676(2) -0.03546(10)
N2 N 0.4772(2) 0.1068(2) -0.03556(10)
N3 N 0.53740(19) 0.1245(2) 0.00404(10)
O1 O 0.5493(2) 0.07607(18) 0.11678(9)
O2 O 0.64022(19) -0.0576(2) 0.13467(9)
C1E C 0.6221(3) -0.0183(3) 0.23554(13)
H1E H 0.6681 -0.0667 0.2259
C2E C 0.6063(3) -0.0002(3) 0.28495(14)
H2E H 0.6432 -0.0347 0.3083
C3E C 0.5351(3) 0.0700(3) 0.29921(14)
C4E C 0.5153(3) 0.0885(2) 0.35246(14)
O1E O 0.57607(18) 0.0493(2) 0.38322(9)
O2E O 0.4424(2) 0.14022(19) 0.36533(9)
Zn1E Zn 0.52348(3) 0.08775(3) 0.446684(13)
C5E C 0.7210(2) 0.0595(2) 0.49740(11)
H3E H 0.7529 0.1002 0.4747
C6E C 0.6937(2) -0.0331(2) 0.55819(11)
H4E H 0.7025 -0.0703 0.5866
N1E N 0.7676(2) 0.01610(19) 0.53546(10)
N2E N 0.6068(2) -0.0228(2) 0.53556(10)
N3E N 0.6245(2) 0.03740(19) 0.49596(10)
Zn1H Zn 0.41225(3) -0.02348(3) -0.053316(13)
Zn1J Zn 0.91225(3) 0.02348(3) 0.553316(13)
Zn1M Zn 0.47652(3) -0.08775(3) 0.553316(13)
Zn1O Zn 0.52348(3) 0.41225(3) -0.053316(13)
N1K N 0.51610(19) 0.2324(2) 0.46454(10)
N1N N 0.7324(2) 0.01610(19) 0.03546(10)
N2H N 0.5228(2) -0.1068(2) 0.03556(10)
N2M N 0.3932(2) 0.0228(2) 0.46444(10)
O8? O 0.7500 0.2500 0.112(4)
C9? C 0.7500 0.2500 0.155(3)
O9? O 0.7500 0.2500 0.199(3)
O10? O 0.8627(17) 0.1687(18) 0.1545(8)
O11? O 0.770(2) 0.229(2) 0.2011(11)
O12? O 0.8637(13) 0.1824(11) 0.1293(5)
loop_
_geom_bond_atom_site_label_1
_geom_bond_atom_site_label_2
_geom_bond_site_symmetry_1
_geom_bond_site_symmetry_2
Zn1 N3 1_555 1_555
C1 H1 1_555 1_555
C2 C1 1_555 1_555
H2 C2 1_555 1_555
C3 C2 1_555 1_555
C4 C3 1_555 1_555
C5 H3 1_555 1_555
C6 H4 1_555 1_555
N1 C5 1_555 1_555
N2 C6 1_555 1_555
N3 C5 1_555 1_555
O1 Zn1 1_555 1_555
O2 Zn1 1_555 1_555
O3 C7 1_555 1_555
C7 O4 1_555 1_555
O5 C8 1_555 1_555
C8 O6 1_555 1_555
C1E C3 1_555 1_555
H1E C1E 1_555 1_555
C2E C1E 1_555 1_555
H2E C2E 1_555 1_555
C3E C1 1_555 1_555
C4E C3E 1_555 1_555
O1E C4E 1_555 1_555
O2E C4E 1_555 1_555
Zn1E O1E 1_555 1_555
C5E H3E 1_555 1_555
C6E H4E 1_555 1_555
N1E C5E 1_555 1_555
N2E C6E 1_555 1_555
N3E Zn1E 1_555 1_555
Zn1H N2 1_555 1_555
Zn1J N1E 1_555 1_555
Zn1M N2E 1_555 1_555
Zn1O N1 1_555 1_555
N1K Zn1E 1_555 1_555
N1N Zn1 1_555 1_555
N2H Zn1 1_555 1_555
N2M Zn1E 1_555 1_555
C4 O1 1_555 1_555
C4 O2 1_555 1_555
C6 N1 1_555 1_555
N2 N3 1_555 1_555
C2E C3E 1_555 1_555
O2E Zn1E 1_555 1_555
C5E N3E 1_555 1_555
C6E N1E 1_555 1_555
N2E N3E 1_555 1_555

#END
