
#######################################################################
#
#                 Cambridge Crystallographic Data Centre
#                                CCDC 
#
#######################################################################
#
# If this CIF has been generated from an entry in the Cambridge 
# Structural Database, then it will include bibliographic, chemical, 
# crystal, experimental, refinement or atomic coordinate data resulting 
# from the CCDC's data processing and validation procedures.
#
#######################################################################

data_SUFROA
_symmetry_cell_setting           orthorhombic
_symmetry_space_group_name_H-M   'C m c m'
_symmetry_Int_Tables_number      63
_space_group_name_Hall           '-C 2n 2'
loop_
_symmetry_equiv_pos_site_id
_symmetry_equiv_pos_as_xyz
1 x,y,z
2 x,y,1/2-z
3 x,-y,1/2+z
4 -x,y,z
5 1/2+x,1/2+y,z
6 1/2+x,1/2+y,1/2-z
7 1/2+x,1/2-y,1/2+z
8 1/2-x,1/2+y,z
9 -x,-y,-z
10 -x,-y,1/2+z
11 -x,y,1/2-z
12 x,-y,-z
13 1/2-x,1/2-y,-z
14 1/2-x,1/2-y,1/2+z
15 1/2-x,1/2+y,1/2-z
16 1/2+x,1/2-y,-z
_cell_length_a                   28.282(3)
_cell_length_b                   10.337(3)
_cell_length_c                   16.285(4)
_cell_angle_alpha                90
_cell_angle_beta                 90
_cell_angle_gamma                90
_cell_volume                     4760.94
loop_
_atom_site_label
_atom_site_type_symbol
_atom_site_fract_x
_atom_site_fract_y
_atom_site_fract_z
Cu1 Cu 0.39914(3) 0.18229(7) -0.2500
N1 N 0.3562(2) 0.1943(5) -0.3460(3)
N2 N 0.4357(2) 0.3443(5) -0.2500
N3 N 0.4338(2) 1.0199(5) -0.2500
N4 N 0.3734(3) 0.134(1) -0.5889(5)
C1 C 0.4748(2) 0.7982(5) -0.2500
C2 C 0.4498(2) 0.6830(6) -0.2500
C3 C 0.4752(2) 0.5677(5) -0.2500
C4 C 0.2876(2) 0.2333(5) -0.4472(3)
C5 C 0.2452(2) 0.2778(5) -0.4162(3)
C6 C 0.2930(2) 0.2053(5) -0.5314(3)
C7 C 0.4511(2) 0.9209(6) -0.2500
C8 C 0.4513(2) 0.4458(6) -0.2500
C9 C 0.3263(2) 0.2127(5) -0.3915(3)
C10 C 0.3375(2) 0.1631(8) -0.5635(4)
C6L C 0.2070(2) 0.2947(5) -0.4686(3)
C4L C 0.2124(2) 0.2667(5) -0.5528(3)
C5L C 0.2548(2) 0.2222(5) -0.5838(3)
C9L C 0.1737(2) 0.2873(5) -0.6085(3)
N1L N 0.1438(2) 0.3057(5) -0.6540(3)
C10L C 0.1625(2) 0.3369(8) -0.4365(4)
N4L N 0.1266(3) 0.366(1) -0.4111(5)
C1C C 0.5252(2) 0.7982(5) -0.2500
C2C C 0.5502(2) 0.6830(6) -0.2500
C3C C 0.5248(2) 0.5677(5) -0.2500
C8C C 0.5487(2) 0.4458(6) -0.2500
N2C N 0.5643(2) 0.3443(5) -0.2500
C7C C 0.5489(2) 0.9209(6) -0.2500
N3C N 0.5662(2) 1.0199(5) -0.2500
N1A N 0.3562(2) 0.1943(5) -0.1540(3)
N4A N 0.3734(3) 0.134(1) 0.0889(5)
C4A C 0.2876(2) 0.2333(5) -0.0528(3)
C5A C 0.2452(2) 0.2778(5) -0.0838(3)
C6A C 0.2930(2) 0.2053(5) 0.0314(3)
C9A C 0.3263(2) 0.2127(5) -0.1085(3)
C10A C 0.3375(2) 0.1631(8) 0.0635(4)
C6M C 0.2070(2) 0.2947(5) -0.0314(3)
C4M C 0.2124(2) 0.2667(5) 0.0528(3)
C5M C 0.2548(2) 0.2222(5) 0.0838(3)
C9M C 0.1737(2) 0.2873(5) 0.1085(3)
N1M N 0.1438(2) 0.3057(5) 0.1540(3)
C10M C 0.1625(2) 0.3369(8) -0.0635(4)
N4M N 0.1266(3) 0.366(1) -0.0889(5)
N3_2 N 0.4338(2) 0.0199(5) -0.2500
N3C_2 N 0.5662(2) 0.0199(5) -0.2500
Cu1L Cu 0.10086(3) 0.31771(7) -0.7500
Cu1M Cu 0.10086(3) 0.31771(7) 0.2500
Cu1C Cu 0.60086(3) 0.18229(7) -0.2500
Cu1_2 Cu 0.39914(3) 1.18229(7) -0.2500
Cu1C_2 Cu 0.60086(3) 1.18229(7) -0.2500
N1C N 0.6438(2) 0.1943(5) -0.3460(3)
N1J N 0.6438(2) 0.1943(5) -0.1540(3)
P1 P 0.19935(7) 0.0405(2) -0.2500
F1 F 0.1908(3) 0.1901(6) -0.2500
F2 F 0.2515(4) 0.074(2) -0.2500
F3 F 0.2089(3) -0.1096(5) -0.2500
F4 F 0.1466(3) 0.013(1) -0.2500
F5 F 0.2073(7) 0.0389(6) -0.3438(5)
F5A F 0.2073(7) 0.0389(6) -0.1562(5)
loop_
_geom_bond_atom_site_label_1
_geom_bond_atom_site_label_2
_geom_bond_site_symmetry_1
_geom_bond_site_symmetry_2
Cu1 N1 1_555 1_555
P1 F1 1_555 1_555
F2 P1 1_555 1_555
F3 P1 1_555 1_555
F4 P1 1_555 1_555
F5 P1 1_555 1_555
N1 C9 1_555 1_555
N2 Cu1 1_555 1_555
N3 C7 1_555 1_555
N4 C10 1_555 1_555
C1 C2 1_555 1_555
C2 C3 1_555 1_555
C3 C8 1_555 1_555
C4 C5 1_555 1_555
C5 C6L 1_555 1_555
C6 C4 1_555 1_555
C7 C1 1_555 1_555
C8 N2 1_555 1_555
C9 C4 1_555 1_555
C10 C6 1_555 1_555
F5A P1 1_555 1_555
C6L C4L 1_555 1_555
C4L C5L 1_555 1_555
C5L C6 1_555 1_555
C9L C4L 1_555 1_555
N1L C9L 1_555 1_555
C10L C6L 1_555 1_555
N4L C10L 1_555 1_555
C1C C1 1_555 1_555
C2C C1C 1_555 1_555
C3C C3 1_555 1_555
C8C C3C 1_555 1_555
N2C C8C 1_555 1_555
C7C C1C 1_555 1_555
N3C C7C 1_555 1_555
N1A Cu1 1_555 1_555
N4A C10A 1_555 1_555
C4A C5A 1_555 1_555
C5A C6M 1_555 1_555
C6A C4A 1_555 1_555
C9A N1A 1_555 1_555
C10A C6A 1_555 1_555
C6M C4M 1_555 1_555
C4M C5M 1_555 1_555
C5M C6A 1_555 1_555
C9M C4M 1_555 1_555
N1M C9M 1_555 1_555
C10M C6M 1_555 1_555
N4M C10M 1_555 1_555
N3_2 Cu1 1_555 1_555
N3C_2 Cu1C 1_555 1_555
Cu1L N1L 1_555 1_555
Cu1M N1M 1_555 1_555
Cu1C N2C 1_555 1_555
Cu1_2 N3 1_555 1_555
Cu1C_2 N3C 1_555 1_555
N1C Cu1C 1_555 1_555
N1J Cu1C 1_555 1_555
C2C C3C 1_555 1_555
C4A C9A 1_555 1_555

#END
