
#######################################################################
#
#                 Cambridge Crystallographic Data Centre
#                                CCDC 
#
#######################################################################
#
# If this CIF has been generated from an entry in the Cambridge 
# Structural Database, then it will include bibliographic, chemical, 
# crystal, experimental, refinement or atomic coordinate data resulting 
# from the CCDC's data processing and validation procedures.
#
#######################################################################

data_SUFREQ
_symmetry_cell_setting           monoclinic
_symmetry_space_group_name_H-M   'P 21/a'
_symmetry_Int_Tables_number      14
_space_group_name_Hall           '-P 2yab'
loop_
_symmetry_equiv_pos_site_id
_symmetry_equiv_pos_as_xyz
1 x,y,z
2 1/2+x,1/2-y,z
3 -x,-y,-z
4 1/2-x,1/2+y,-z
_cell_length_a                   11.553(4)
_cell_length_b                   16.135(7)
_cell_length_c                   15.046(3)
_cell_angle_alpha                90
_cell_angle_beta                 108.08(2)
_cell_angle_gamma                90
_cell_volume                     2666.21
loop_
_atom_site_label
_atom_site_type_symbol
_atom_site_fract_x
_atom_site_fract_y
_atom_site_fract_z
Cu1 Cu -0.34575(8) 0.25221(7) -0.22433(6)
N1 N 0.0240(6) 0.1863(5) -0.3220(5)
N2 N -0.2954(7) 0.1825(5) -0.3157(5)
N3 N -0.4951(9) 0.0150(8) -0.7585(7)
N4 N -0.1618(9) 0.0263(6) -0.7716(7)
N5 N -0.1080(6) 0.6773(4) 0.1384(5)
N6 N 0.2266(6) 0.6664(4) 0.1556(5)
C1 C -0.0434(8) 0.1620(5) -0.3868(6)
C2 C -0.2835(8) 0.1579(5) -0.3807(6)
C3 C -0.421(1) 0.0417(8) -0.6970(7)
C4 C -0.1794(9) 0.0468(7) -0.7048(7)
C5 C -0.3522(8) 0.1007(5) -0.5411(6)
C6 C -0.2588(7) 0.1286(5) -0.4658(6)
C7 C -0.1387(8) 0.1297(5) -0.4686(6)
C8 C -0.1123(7) 0.1041(5) -0.5466(6)
C9 C -0.2065(8) 0.0759(5) -0.6231(5)
C10 C -0.3267(8) 0.0736(6) -0.6193(6)
C11 C -0.0823(7) 0.6275(5) 0.0954(5)
C12 C 0.1632(7) 0.6176(5) 0.1105(5)
C13 C 0.0819(7) 0.5568(5) 0.0554(5)
C14 C -0.0436(7) 0.5628(5) 0.0442(5)
C15 C -0.1273(7) 0.5064(5) -0.0111(5)
Cu1A Cu 0.15425(8) 0.24779(7) -0.22433(6)
N1A N -0.4760(6) 0.3137(5) -0.3220(5)
N5C N -0.3920(6) 0.1773(4) -0.1384(5)
N2C N -0.2046(7) 0.6825(5) 0.3157(5)
Cu1C Cu -0.15425(8) 0.75221(7) 0.22433(6)
N1B N -0.0240(6) 0.8137(5) 0.3220(5)
C1B C 0.0434(8) 0.8380(5) 0.3868(6)
C7B C 0.1387(8) 0.8703(5) 0.4686(6)
C6B C 0.2588(7) 0.8714(5) 0.4658(6)
C8B C 0.1123(7) 0.8959(5) 0.5466(6)
C9B C 0.2065(8) 0.9241(5) 0.6231(5)
C4B C 0.1794(9) 0.9532(7) 0.7048(7)
N4B N 0.1618(9) 0.9737(6) 0.7716(7)
C10B C 0.3267(8) 0.9264(6) 0.6193(6)
C3B C 0.421(1) 0.9583(8) 0.6970(7)
N3B N 0.4951(9) 0.9850(8) 0.7585(7)
C5B C 0.3522(8) 0.8993(5) 0.5411(6)
C2B C 0.2835(8) 0.8421(5) 0.3807(6)
N2B N 0.2954(7) 0.8175(5) 0.3157(5)
Cu1B Cu 0.34575(8) 0.74779(7) 0.22433(6)
N6A N -0.2734(6) 0.8336(4) 0.1556(5)
C13B C -0.0819(7) 0.4432(5) -0.0554(5)
C15B C 0.1273(7) 0.4936(5) 0.0111(5)
C14B C 0.0436(7) 0.4372(5) -0.0442(5)
C11B C 0.0823(7) 0.3725(5) -0.0954(5)
N5B N 0.1080(6) 0.3227(4) -0.1384(5)
N6B N -0.2266(6) 0.3336(4) -0.1556(5)
C12B C -0.1632(7) 0.3824(5) -0.1105(5)
loop_
_geom_bond_atom_site_label_1
_geom_bond_atom_site_label_2
_geom_bond_site_symmetry_1
_geom_bond_site_symmetry_2
Cu1 N2 1_555 1_555
N1 C1 1_555 1_555
N2 C2 1_555 1_555
N3 C3 1_555 1_555
N4 C4 1_555 1_555
N5 C11 1_555 1_555
N6 C12 1_555 1_555
C1 C7 1_555 1_555
C2 C6 1_555 1_555
C3 C10 1_555 1_555
C4 C9 1_555 1_555
C5 C6 1_555 1_555
C6 C7 1_555 1_555
C7 C8 1_555 1_555
C8 C9 1_555 1_555
C9 C10 1_555 1_555
C10 C5 1_555 1_555
C11 C14 1_555 1_555
C12 C13 1_555 1_555
C13 C14 1_555 1_555
C14 C15 1_555 1_555
C15 C13B 1_555 1_555
Cu1A N1 1_555 1_555
N1A Cu1 1_555 1_555
N5C Cu1 1_555 1_555
N2C Cu1C 1_555 1_555
Cu1C N5 1_555 1_555
N1B Cu1C 1_555 1_555
C1B N1B 1_555 1_555
C7B C1B 1_555 1_555
C6B C7B 1_555 1_555
C8B C7B 1_555 1_555
C9B C8B 1_555 1_555
C4B C9B 1_555 1_555
N4B C4B 1_555 1_555
C10B C9B 1_555 1_555
C3B C10B 1_555 1_555
N3B C3B 1_555 1_555
C5B C6B 1_555 1_555
C2B C6B 1_555 1_555
N2B C2B 1_555 1_555
Cu1B N6 1_555 1_555
N6A Cu1C 1_555 1_555
C13B C14B 1_555 1_555
C15B C13 1_555 1_555
C14B C15B 1_555 1_555
C11B C14B 1_555 1_555
N5B Cu1A 1_555 1_555
N6B Cu1 1_555 1_555
C12B C13B 1_555 1_555
C10B C5B 1_555 1_555
N2B Cu1B 1_555 1_555
C11B N5B 1_555 1_555
N6B C12B 1_555 1_555

#END
