
#######################################################################
#
#                 Cambridge Crystallographic Data Centre
#                                CCDC 
#
#######################################################################
#
# If this CIF has been generated from an entry in the Cambridge 
# Structural Database, then it will include bibliographic, chemical, 
# crystal, experimental, refinement or atomic coordinate data resulting 
# from the CCDC's data processing and validation procedures.
#
#######################################################################

data_SUFSUH01
_symmetry_cell_setting           monoclinic
_symmetry_space_group_name_H-M   'P 21'
_symmetry_Int_Tables_number      4
_space_group_name_Hall           'P 2yb'
loop_
_symmetry_equiv_pos_site_id
_symmetry_equiv_pos_as_xyz
1 x,y,z
2 -x,1/2+y,-z
_cell_length_a                   19.987(3)
_cell_length_b                   16.505(3)
_cell_length_c                   11.084(2)
_cell_angle_alpha                90
_cell_angle_beta                 104.69(1)
_cell_angle_gamma                90
_cell_volume                     3536.93
loop_
_atom_site_label
_atom_site_type_symbol
_atom_site_fract_x
_atom_site_fract_y
_atom_site_fract_z
Er3 Er 0.5903(1) 0.5124(1) 0.8193(1)
Er4 Er 0.3938(1) 0.5224(1) 0.6747(1)
O9 O 0.5526(4) 0.4049(7) 0.6792(8)
O10 O 0.4346(5) 0.4053(7) 0.6110(9)
O11 O 0.5718(5) 0.1483(6) 0.4403(9)
O12 O 0.4950(5) 0.062(6) 0.3504(8)
N3 N 0.5721(7) 0.3099(8) 0.5018(13)
C11 C 0.4988(7) 0.3810(10) 0.6109(13)
C12 C 0.4988(7) 0.3194(9) 0.5134(13)
C13 C 0.4729(8) 0.2338(11) 0.5540(14)
C14 C 0.4530(9) 0.1731(12) 0.4519(15)
C15 C 0.5097(7) 0.1259(9) 0.4119(12)
O13 O 0.5404(5) 0.6354(7) 0.8797(10)
O14 O 0.4258(5) 0.6255(6) 0.8131(9)
O15 O 0.4373(5) 0.8930(7) 1.10684(10)
O16 O 0.5220(5) 0.9725(6) 1.11532(7)
N4 N 0.4012(6) 0.7503(8) 0.9440(10)
C16 C 0.4821(8) 0.6603(10) 0.8713(13)
C17 C 0.4725(7) 0.7433(10) 0.9305(13)
C18 C 0.5242(8) 0.7546(11) 1.0608(15)
C19 C 0.5506(7) 0.8434(10) 1.0762(13)
C20 C 0.5002(7) 0.9057(9) 1.10992(12)
O25 O 0.6990(6) 0.4443(9) 0.8717(12)
O26 O 0.6318(6) 0.5276(8) 1.0399(9)
O27 O 0.6669(5) 0.6245(7) 0.8443(11)
O28 O 0.6437(5) 0.5150(7) 0.6423(10)
O29 O 0.3025(6) 0.4270(7) 0.6065(10)
O30 O 0.3611(6) 0.5152(7) 0.4482(9)
O31 O 0.2968(4) 0.6131(6) 0.6157(9)
O32 O 0.3304(5) 0.5050(8) 0.8312(9)
O12A O 0.5050(5) 0.562(6) 0.6496(8)
O16A O 0.4780(5) 0.4725(6) 0.88468(7)
O15A O 0.5627(5) 0.3930(7) 0.89316(10)
O11A O 0.4282(5) 0.6483(6) 0.5597(9)
Er4A Er 0.6062(1) 0.0224(1) 0.3253(1)
Er3A Er 0.4097(1) 0.0124(1) 0.1807(1)
Er3A_2 Er 0.4097(1) 1.0124(1) 1.1807(1)
Er4A_2 Er 0.6062(1) 1.0224(1) 1.3253(1)
O33 O 0.1938(7) 0.1617(9) 0.1519(12)
O34 O 0.3045(8) 0.1737(10) 0.8461(15)
O35 O 0.6303(7) 0.0911(8) 0.9542(10)
O36 O 0.9349(11) 0.521(14) 0.590(13)
O37 O 0.8486(9) 1.27047(17) 0.6552(12)
O38 O 0.7822(11) 0.4410(18) 0.6834(21)
Er1 Er 0.9013(1) 1.0000 0.6689(1)
Er2 Er 1.0975(1) 0.9952(1) 0.8222(1)
O1 O 0.9522(5) 0.8901(7) 0.5943(10)
O2 O 1.0670(5) 0.8837(5) 0.6817(8)
O3 O 1.0680(5) 0.6106(7) 0.4617(9)
O4 O 0.9841(5) 0.5407(6) 0.3540(8)
N1 N 1.0929(6) 0.7644(9) 0.5472(8)
C1 C 1.0130(6) 0.8608(8) 0.6090(11)
C2 C 1.0169(7) 0.7864(9) 0.5333(11)
C3 C 0.9782(7) 0.7112(10) 0.5658(12)
C4 C 0.9520(9) 0.6522(12) 0.4629(15)
C5 C 1.0046(7) 0.6012(1) 0.4250(13)
O5 O 0.9299(5) 1.1117(6) 0.7979(9)
O6 O 1.0448(5) 1.1142(8) 0.8800(10)
O7 O 0.9320(5) 1.3742 1.0593(9)
O8 O 1.0164(5) 1.4522(6) 1.1592(8)
N2 N 0.9015(6) 1.2392(11) 0.9087(13)
C6 C 0.9863(7) 1.1409(10) 0.8595(13)
C7 C 0.9790(7) 1.2258(10) 0.9173(12)
C8 C 1.0224(8) 1.2386(11) 1.0528(14)
C9 C 1.0469(8) 1.3246(11) 1.0812(14)
C10 C 0.9956(7) 1.3845(8) 1.0996(11)
O17 O 0.7986(5) 1.10756(7) 0.6165(9)
O18 O 0.8454(5) 0.9932(7) 0.8422(10)
O19 O 0.8507(5) 0.9809(6) 0.4417(9)
O20 O 0.8250(5) 0.8875(7) 0.6442(10)
O21 O 1.1752(6) 1.1085(7) 0.8504(11)
O22 O 1.1368(6) 1.0110(9) 1.0416(9)
O23 O 1.1616(5) 0.9997(8) 0.6584(9)
O24 O 1.1976(5) 0.9071(7) 0.8833(10)
O4A O 1.0159(5) 1.0407(6) 0.6460(8)
O3A O 0.9320(5) 1.1106(7) 0.5383(9)
O8A O 0.9836(5) 0.9522(6) 0.8408(8)
O7A O 1.0680(5) 0.8742 0.9407(9)
Er1A Er 1.0987(1) 0.5000 0.3311(1)
Er2A Er 0.9025(1) 0.4952(1) 0.1778(1)
Er2A_2 Er 0.9025(1) 1.4952(1) 1.1778(1)
Er1A_2 Er 1.0987(1) 1.5000 1.3311(1)
loop_
_geom_bond_atom_site_label_1
_geom_bond_atom_site_label_2
_geom_bond_site_symmetry_1
_geom_bond_site_symmetry_2
Er1 O1 1_555 1_555
Er2 O2 1_555 1_555
Er3 O9 1_555 1_555
Er4 O10 1_555 1_555
O1 C1 1_555 1_555
O2 C1 1_555 1_555
O3 C5 1_555 1_555
O4 C5 1_555 1_555
N1 C2 1_555 1_555
C1 C2 1_555 1_555
C2 C3 1_555 1_555
C3 C4 1_555 1_555
C4 C5 1_555 1_555
O5 Er1 1_555 1_555
O6 Er2 1_555 1_555
O7 C10 1_555 1_555
O8 C10 1_555 1_555
N2 C7 1_555 1_555
C6 O5 1_555 1_555
C7 C6 1_555 1_555
C8 C7 1_555 1_555
C9 C8 1_555 1_555
C10 C9 1_555 1_555
O9 C11 1_555 1_555
O10 C11 1_555 1_555
O11 C15 1_555 1_555
O12 C15 1_555 1_555
N3 C12 1_555 1_555
C11 C12 1_555 1_555
C12 C13 1_555 1_555
C13 C14 1_555 1_555
C14 C15 1_555 1_555
O13 Er3 1_555 1_555
O14 Er4 1_555 1_555
O15 C20 1_555 1_555
O16 C20 1_555 1_555
N4 C17 1_555 1_555
C16 O13 1_555 1_555
C17 C16 1_555 1_555
C18 C17 1_555 1_555
C19 C18 1_555 1_555
C20 C19 1_555 1_555
O17 Er1 1_555 1_555
O18 Er1 1_555 1_555
O19 Er1 1_555 1_555
O20 Er1 1_555 1_555
O21 Er2 1_555 1_555
O22 Er2 1_555 1_555
O23 Er2 1_555 1_555
O24 Er2 1_555 1_555
O25 Er3 1_555 1_555
O26 Er3 1_555 1_555
O27 Er3 1_555 1_555
O28 Er3 1_555 1_555
O29 Er4 1_555 1_555
O30 Er4 1_555 1_555
O31 Er4 1_555 1_555
O32 Er4 1_555 1_555
O4A Er1 1_555 1_555
O3A Er1 1_555 1_555
O8A Er1 1_555 1_555
O7A Er2 1_555 1_555
O12A Er3 1_555 1_555
O16A Er3 1_555 1_555
O15A Er3 1_555 1_555
O11A Er4 1_555 1_555
Er1A O3 1_555 1_555
Er2A O4 1_555 1_555
Er2A_2 O7 1_555 1_555
Er1A_2 O8 1_555 1_555
Er4A O11 1_555 1_555
Er3A O12 1_555 1_555
Er3A_2 O15 1_555 1_555
Er4A_2 O16 1_555 1_555
Er2 O4A 1_555 1_555
Er2 O8A 1_555 1_555
Er4 O12A 1_555 1_555
Er4 O16A 1_555 1_555
O4 Er1A 1_555 1_555
O6 C6 1_555 1_555
O8 Er2A_2 1_555 1_555
O12 Er4A 1_555 1_555
O14 C16 1_555 1_555
O16 Er3A_2 1_555 1_555

#END
