
#######################################################################
#
#                 Cambridge Crystallographic Data Centre
#                                CCDC 
#
#######################################################################
#
# If this CIF has been generated from an entry in the Cambridge 
# Structural Database, then it will include bibliographic, chemical, 
# crystal, experimental, refinement or atomic coordinate data resulting 
# from the CCDC's data processing and validation procedures.
#
#######################################################################

data_SUGGAC
_symmetry_cell_setting           monoclinic
_symmetry_space_group_name_H-M   'P 21/a'
_symmetry_Int_Tables_number      14
_space_group_name_Hall           '-P 2yab'
loop_
_symmetry_equiv_pos_site_id
_symmetry_equiv_pos_as_xyz
1 x,y,z
2 1/2-x,1/2+y,-z
3 -x,-y,-z
4 1/2+x,1/2-y,z
_cell_length_a                   14.713(3)
_cell_length_b                   18.247(3)
_cell_length_c                   8.814(2)
_cell_angle_alpha                90
_cell_angle_beta                 78.51(2)
_cell_angle_gamma                90
_cell_volume                     2318.86
loop_
_atom_site_label
_atom_site_type_symbol
_atom_site_fract_x
_atom_site_fract_y
_atom_site_fract_z
I1 I 0.3420(1) 0.3188(1) 0.7448(2)
I2 I 0.0650(1) 0.3515(1) 0.6244(2)
I3 I 0.0912(1) 0.1748(1) 0.9385(2)
I4 I 0.3713(1) 0.1512(1) 1.0606(2)
Cu1 Cu 0.1788(2) 0.2606(2) 0.7115(4)
Cu2 Cu 0.4699(3) 0.2309(2) 0.8440(4)
Cu3 Cu 0.2491(2) 0.2346(2) 0.9695(3)
S1 S 0.0628(4) 0.1671(3) 0.4251(6)
S2 S 0.0900(4) 0.0157(3) 0.3225(7)
S3 S 0.2469(4) 0.1826(3) 0.5063(7)
S4 S 0.2711(4) -0.0034(3) 0.4028(7)
S5 S -0.1302(4) 0.1710(3) 0.3049(6)
S6 S -0.0989(4) 0.0208(3) 0.1965(7)
S7 S -0.3024(4) 0.1926(3) 0.1910(6)
S8 S -0.2643(4) 0.0096(3) 0.0622(8)
C1 C 0.021(1) 0.092(1) 0.344(3)
C2 C -0.062(2) 0.095(1) 0.290(2)
C3 C 0.166(1) 0.126(1) 0.442(2)
C4 C 0.180(1) 0.056(1) 0.394(2)
C5 C -0.210(1) 0.134(1) 0.206(2)
C6 C -0.196(1) 0.064(1) 0.158(2)
C7 C 0.307(2) 0.111(1) 0.597(3)
C8 C 0.352(2) 0.057(1) 0.476(3)
C9 C -0.389(2) 0.122(2) 0.162(3)
C10 C -0.356(2) 0.072(2) 0.030(3)
Cu2C Cu -0.0301(3) 0.2691(2) 0.8440(4)
I2C I 0.5650(1) 0.1485(1) 0.6244(2)
I3C I 0.5912(1) 0.3252(1) 0.9385(2)
S7C S 0.1976(4) 0.3074(3) 1.1910(6)
Cu3C Cu -0.2509(2) 0.2654(2) -0.0305(3)
loop_
_geom_bond_atom_site_label_1
_geom_bond_atom_site_label_2
_geom_bond_site_symmetry_1
_geom_bond_site_symmetry_2
I1 Cu1 1_555 1_555
I2 Cu1 1_555 1_555
I3 Cu1 1_555 1_555
I4 Cu2 1_555 1_555
Cu1 S3 1_555 1_555
Cu2 I1 1_555 1_555
Cu3 I1 1_555 1_555
S1 C1 1_555 1_555
S2 C1 1_555 1_555
S3 C3 1_555 1_555
S4 C4 1_555 1_555
S5 C2 1_555 1_555
S6 C2 1_555 1_555
S7 C5 1_555 1_555
S8 C6 1_555 1_555
C1 C2 1_555 1_555
C3 S1 1_555 1_555
C4 S2 1_555 1_555
C5 S5 1_555 1_555
C6 S6 1_555 1_555
C7 S3 1_555 1_555
C8 S4 1_555 1_555
C9 S7 1_555 1_555
C10 S8 1_555 1_555
Cu2C I2 1_555 1_555
I2C Cu2 1_555 1_555
I3C Cu2 1_555 1_555
S7C Cu3 1_555 1_555
Cu3C S7 1_555 1_555
I3 Cu3 1_555 1_555
I3 Cu2C 1_555 1_555
I4 Cu3 1_555 1_555
C3 C4 1_555 1_555
C5 C6 1_555 1_555
C7 C8 1_555 1_555
C9 C10 1_555 1_555

#END
