
#######################################################################
#
#                 Cambridge Crystallographic Data Centre
#                                CCDC 
#
#######################################################################
#
# If this CIF has been generated from an entry in the Cambridge 
# Structural Database, then it will include bibliographic, chemical, 
# crystal, experimental, refinement or atomic coordinate data resulting 
# from the CCDC's data processing and validation procedures.
#
#######################################################################

data_SUGRAN
_symmetry_cell_setting           orthorhombic
_symmetry_space_group_name_H-M   'P b c a'
_symmetry_Int_Tables_number      61
_space_group_name_Hall           '-P 2ac 2ab'
loop_
_symmetry_equiv_pos_site_id
_symmetry_equiv_pos_as_xyz
1 x,y,z
2 1/2-x,1/2+y,z
3 x,1/2-y,1/2+z
4 1/2-x,-y,1/2+z
5 -x,-y,-z
6 1/2+x,1/2-y,-z
7 -x,1/2+y,1/2-z
8 1/2+x,y,1/2-z
_cell_length_a                   22.659(4)
_cell_length_b                   7.5048(9)
_cell_length_c                   15.156(3)
_cell_angle_alpha                90
_cell_angle_beta                 90
_cell_angle_gamma                90
_cell_volume                     2577.3
loop_
_atom_site_label
_atom_site_type_symbol
_atom_site_fract_x
_atom_site_fract_y
_atom_site_fract_z
Cu1 Cu 0.05935(3) 0.17496(9) -0.30116(4)
O1 O 0.1405(2) 0.4518(5) -0.5101(3)
O2 O 0.0748(2) 0.2766(6) -0.4421(2)
O3 O 0.0919(2) -0.0512(5) -0.3363(3)
O4 O 0.1771(2) -0.1978(5) -0.3423(3)
O5 O 0.0303(2) 0.3976(6) -0.2583(3)
O6 O 0.0232(2) 0.6230(3) -0.1666(3)
O7 O 0.0651(2) 0.0370(6) -0.1409(3)
N1 N 0.1448(2) 0.2634(6) -0.2877(3)
C1 C 0.1569(3) 0.3626(7) -0.2045(3)
C2 C 0.2127(3) 0.3546(8) -0.1669(4)
C3 C 0.2266(3) 0.4468(8) -0.0918(4)
C4 C 0.1847(3) 0.5517(8) -0.0517(3)
C5 C 0.1300(3) 0.5648(8) -0.0898(3)
C6 C 0.1138(3) 0.4709(7) -0.1657(3)
C7 C 0.1597(3) 0.3831(8) -0.3635(3)
C8 C 0.1204(2) 0.3600(7) -0.4417(2)
C9 C 0.1800(3) 0.0947(8) -0.2898(4)
C10 C 0.1473(3) -0.0657(7) -0.3267(3)
C11 C 0.0534(3) 0.4981(8) -0.1994(3)
H1 H 0.116(3) 0.446(8) -0.540(5)
H2 H 0.097(4) 0.036(8) -0.130(6)
H5 H 0.241(3) 0.295(10) -0.178(5)
H6 H 0.264(2) 0.441(7) -0.066(3)
H7 H 0.194(2) 0.616(7) -0.001(3)
H8 H 0.101(2) 0.626(8) -0.068(4)
H9 H 0.154(2) 0.483(6) -0.347(3)
H10 H 0.200(3) 0.383(9) -0.375(4)
H11 H 0.213(2) 0.107(7) -0.324(3)
H12 H 0.196(3) 0.052(9) -0.227(5)
O6F O -0.0232(2) 0.1230(3) -0.3334(3)
Cu1F Cu -0.05935(3) 0.67496(9) -0.19884(4)
O8 O -0.0255(2) 0.2149(6) -0.0649(3)
H3 H -0.013(4) 0.264(11) -0.030(6)
H4 H -0.043(4) 0.242(12) -0.091(6)
loop_
_geom_bond_atom_site_label_1
_geom_bond_atom_site_label_2
_geom_bond_site_symmetry_1
_geom_bond_site_symmetry_2
Cu1 O2 1_555 1_555
O1 C8 1_555 1_555
O2 C8 1_555 1_555
O3 Cu1 1_555 1_555
O4 C10 1_555 1_555
O5 Cu1 1_555 1_555
O6 C11 1_555 1_555
O7 Cu1 1_555 1_555
O8 H3 1_555 1_555
N1 Cu1 1_555 1_555
C1 N1 1_555 1_555
C2 C1 1_555 1_555
C3 C2 1_555 1_555
C4 C3 1_555 1_555
C5 C4 1_555 1_555
C6 C1 1_555 1_555
C7 N1 1_555 1_555
C8 C7 1_555 1_555
C9 N1 1_555 1_555
C10 O3 1_555 1_555
C11 O5 1_555 1_555
H1 O1 1_555 1_555
H2 O7 1_555 1_555
H4 O8 1_555 1_555
H5 C2 1_555 1_555
H6 C3 1_555 1_555
H7 C4 1_555 1_555
H8 C5 1_555 1_555
H9 C7 1_555 1_555
H10 C7 1_555 1_555
H11 C9 1_555 1_555
H12 C9 1_555 1_555
O6F Cu1 1_555 1_555
Cu1F O6 1_555 1_555
C5 C6 1_555 1_555
C6 C11 1_555 1_555
C9 C10 1_555 1_555

#END
