
#######################################################################
#
#                 Cambridge Crystallographic Data Centre
#                                CCDC 
#
#######################################################################
#
# If this CIF has been generated from an entry in the Cambridge 
# Structural Database, then it will include bibliographic, chemical, 
# crystal, experimental, refinement or atomic coordinate data resulting 
# from the CCDC's data processing and validation procedures.
#
#######################################################################

data_SUHNAL
_symmetry_cell_setting           rhombohedral
_symmetry_space_group_name_H-M   'R -3'
_symmetry_Int_Tables_number      148
_space_group_name_Hall           '-R 3'
loop_
_symmetry_equiv_pos_site_id
_symmetry_equiv_pos_as_xyz
1 x,y,z
2 -y,x-y,z
3 -x+y,-x,z
4 2/3+x,1/3+y,1/3+z
5 2/3-y,1/3+x-y,1/3+z
6 2/3-x+y,1/3-x,1/3+z
7 1/3+x,2/3+y,2/3+z
8 1/3-y,2/3+x-y,2/3+z
9 1/3-x+y,2/3-x,2/3+z
10 -x,-y,-z
11 y,-x+y,-z
12 x-y,x,-z
13 1/3-x,2/3-y,2/3-z
14 1/3+y,2/3-x+y,2/3-z
15 1/3+x-y,2/3+x,2/3-z
16 2/3-x,1/3-y,1/3-z
17 2/3+y,1/3-x+y,1/3-z
18 2/3+x-y,1/3+x,1/3-z
_cell_length_a                   19.6307(14)
_cell_length_b                   19.6307(14)
_cell_length_c                   14.2594(11)
_cell_angle_alpha                90
_cell_angle_beta                 90
_cell_angle_gamma                120
_cell_volume                     4758.87
loop_
_atom_site_label
_atom_site_type_symbol
_atom_site_fract_x
_atom_site_fract_y
_atom_site_fract_z
Cu1 Cu 0.415121(17) 0.451764(17) 0.56183(2)
N1 N 0.50564(12) 0.54753(12) 0.61246(14)
N2 N 0.57447(11) 0.58574(12) 0.56113(14)
N3 N 0.58865(12) 0.65529(11) 0.68979(14)
C1 C 0.51699(15) 0.59089(15) 0.68880(18)
C2 C 0.45817(19) 0.57006(19) 0.7660(2)
H1 H 0.4099 0.5205 0.7490
H2 H 0.4797 0.5599 0.8237
C3 C 0.4364(3) 0.6302(3) 0.7869(4)
H3 H 0.3996 0.6127 0.8398
H4 H 0.4114 0.6380 0.7317
H5 H 0.4837 0.6798 0.8031
C4 C 0.62205(14) 0.64940(14) 0.60966(17)
C5 C 0.70294(16) 0.70796(17) 0.5792(2)
H6 H 0.7069 0.7601 0.5729
H7 H 0.7131 0.6927 0.5169
C6 C 0.7646(2) 0.7142(3) 0.6474(3)
H8 H 0.8168 0.7537 0.6249
H9 H 0.7619 0.6632 0.6524
H10 H 0.7551 0.7299 0.7091
Cu1I Cu 0.584879(17) 0.548236(17) 0.43817(2)
Cu1Q Cu 0.630024(24) 0.748454(17) 0.77150(2)
N2I N 0.42553(11) 0.41426(12) 0.43887(14)
N3P N 0.32196(11) 0.39997(16) 0.64354(14)
C7 C 0.615(5) 0.460(4) 0.704(6)
H11 H 0.5831 0.4665 0.6589
C8 C 0.655(7) 0.452(6) 0.760(8)
H12 H 0.6865 0.4448 0.8048
loop_
_geom_bond_atom_site_label_1
_geom_bond_atom_site_label_2
_geom_bond_site_symmetry_1
_geom_bond_site_symmetry_2
Cu1 N1 1_555 1_555
N1 N2 1_555 1_555
N2 C4 1_555 1_555
N3 C1 1_555 1_555
C1 N1 1_555 1_555
C2 C1 1_555 1_555
H1 C2 1_555 1_555
H2 C2 1_555 1_555
C3 C2 1_555 1_555
H3 C3 1_555 1_555
H4 C3 1_555 1_555
H5 C3 1_555 1_555
C4 N3 1_555 1_555
C5 C4 1_555 1_555
H6 C5 1_555 1_555
H7 C5 1_555 1_555
C6 C5 1_555 1_555
H8 C6 1_555 1_555
H9 C6 1_555 1_555
H10 C6 1_555 1_555
C7 H11 1_555 1_555
C8 C7 1_555 1_555
H12 C8 1_555 1_555
Cu1I N2 1_555 1_555
Cu1Q N3 1_555 1_555
N2I Cu1 1_555 1_555
N3P Cu1 1_555 1_555

#END
