
#######################################################################
#
#                 Cambridge Crystallographic Data Centre
#                                CCDC 
#
#######################################################################
#
# If this CIF has been generated from an entry in the Cambridge 
# Structural Database, then it will include bibliographic, chemical, 
# crystal, experimental, refinement or atomic coordinate data resulting 
# from the CCDC's data processing and validation procedures.
#
#######################################################################

data_SUHPAN
_symmetry_cell_setting           rhombohedral
_symmetry_space_group_name_H-M   'R -3'
_symmetry_Int_Tables_number      148
_space_group_name_Hall           '-R 3'
loop_
_symmetry_equiv_pos_site_id
_symmetry_equiv_pos_as_xyz
1 x,y,z
2 -y,x-y,z
3 -x+y,-x,z
4 2/3+x,1/3+y,1/3+z
5 2/3-y,1/3+x-y,1/3+z
6 2/3-x+y,1/3-x,1/3+z
7 1/3+x,2/3+y,2/3+z
8 1/3-y,2/3+x-y,2/3+z
9 1/3-x+y,2/3-x,2/3+z
10 -x,-y,-z
11 y,-x+y,-z
12 x-y,x,-z
13 1/3-x,2/3-y,2/3-z
14 1/3+y,2/3-x+y,2/3-z
15 1/3+x-y,2/3+x,2/3-z
16 2/3-x,1/3-y,1/3-z
17 2/3+y,1/3-x+y,1/3-z
18 2/3+x-y,1/3+x,1/3-z
_cell_length_a                   19.5947(14)
_cell_length_b                   19.5947(14)
_cell_length_c                   14.2851(10)
_cell_angle_alpha                90
_cell_angle_beta                 90
_cell_angle_gamma                120
_cell_volume                     4749.97
loop_
_atom_site_label
_atom_site_type_symbol
_atom_site_fract_x
_atom_site_fract_y
_atom_site_fract_z
Cu1 Cu 0.41502(2) 0.45137(2) 0.56200(3)
N1 N 0.50579(15) 0.54703(16) 0.61274(18)
N2 N 0.57459(15) 0.58569(15) 0.56101(18)
N3 N 0.58929(16) 0.65520(15) 0.68959(17)
C1 C 0.5174(2) 0.59032(19) 0.6888(2)
C2 C 0.4588(2) 0.5695(2) 0.7663(3)
H1 H 0.4111 0.5189 0.7507
H2 H 0.4815 0.5614 0.8243
C3 C 0.4354(4) 0.6290(3) 0.7847(5)
H3 H 0.3985 0.6118 0.8376
H4 H 0.4097 0.6351 0.7290
H5 H 0.4822 0.6795 0.7999
C4 C 0.62275(19) 0.64964(19) 0.6096(2)
C5 C 0.7036(2) 0.7084(2) 0.5797(3)
H6 H 0.7074 0.7606 0.5738
H7 H 0.7139 0.6935 0.5172
C6 C 0.7654(3) 0.7148(3) 0.6470(4)
H8 H 0.8176 0.7544 0.6243
H9 H 0.7628 0.6637 0.6519
H10 H 0.7561 0.7305 0.7087
Cu1I Cu 0.58498(2) 0.54863(2) 0.43800(3)
Cu1Q Cu 0.63032(3) 0.74835(2) 0.77133(3)
N2I N 0.42541(15) 0.41431(15) 0.43899(18)
N3P N 0.32187(15) 0.39924(22) 0.64374(17)
C7 C 0.6174(12) 0.4627(11) 0.6978(14)
H11 H 0.5806 0.4674 0.6590
C8 C 0.6591(19) 0.4573(17) 0.742(2)
H12 H 0.6960 0.4526 0.7805
loop_
_geom_bond_atom_site_label_1
_geom_bond_atom_site_label_2
_geom_bond_site_symmetry_1
_geom_bond_site_symmetry_2
Cu1 N1 1_555 1_555
N1 N2 1_555 1_555
N2 C4 1_555 1_555
N3 C1 1_555 1_555
C1 N1 1_555 1_555
C2 C1 1_555 1_555
H1 C2 1_555 1_555
H2 C2 1_555 1_555
C3 C2 1_555 1_555
H3 C3 1_555 1_555
H4 C3 1_555 1_555
H5 C3 1_555 1_555
C4 N3 1_555 1_555
C5 C4 1_555 1_555
H6 C5 1_555 1_555
H7 C5 1_555 1_555
C6 C5 1_555 1_555
H8 C6 1_555 1_555
H9 C6 1_555 1_555
H10 C6 1_555 1_555
C7 H11 1_555 1_555
C8 C7 1_555 1_555
H12 C8 1_555 1_555
Cu1I N2 1_555 1_555
Cu1Q N3 1_555 1_555
N2I Cu1 1_555 1_555
N3P Cu1 1_555 1_555

#END
