
#######################################################################
#
#                 Cambridge Crystallographic Data Centre
#                                CCDC 
#
#######################################################################
#
# If this CIF has been generated from an entry in the Cambridge 
# Structural Database, then it will include bibliographic, chemical, 
# crystal, experimental, refinement or atomic coordinate data resulting 
# from the CCDC's data processing and validation procedures.
#
#######################################################################

data_SUJTOH
_symmetry_cell_setting           monoclinic
_symmetry_space_group_name_H-M   'P 21/c'
_symmetry_Int_Tables_number      14
_space_group_name_Hall           '-P 2ybc'
loop_
_symmetry_equiv_pos_site_id
_symmetry_equiv_pos_as_xyz
1 x,y,z
2 -x,1/2+y,1/2-z
3 -x,-y,-z
4 x,1/2-y,1/2+z
_cell_length_a                   11.0202(8)
_cell_length_b                   9.6895(7)
_cell_length_c                   15.9370(10)
_cell_angle_alpha                90
_cell_angle_beta                 105.164(5)
_cell_angle_gamma                90
_cell_volume                     1642.5
loop_
_atom_site_label
_atom_site_type_symbol
_atom_site_fract_x
_atom_site_fract_y
_atom_site_fract_z
O1 O 0.9589(10) 0.5562(12) 0.1524(7)
O2 O 0.0945(8) 0.4200(10) 0.0491(5)
I1 I 0.32613(8) 0.56216(9) 0.23932(5)
I2 I 0.54246(8) 0.17290(9) -0.06098(5)
I3 I 0.65539(8) 0.55122(10) 0.24886(5)
I4 I 0.22351(8) 0.14381(10) -0.04861(6)
Cu1 Cu 0.91797(17) 0.4183(2) 0.05630(11)
C1 C 0.4788(11) 0.2764(13) 0.0337(7)
C2 C 0.3938(12) 0.4354(13) 0.1551(7)
C3 C 0.5213(12) 0.4347(13) 0.1564(7)
C4 C 0.3550(11) 0.2707(14) 0.0364(7)
C5 C 0.5678(12) 0.3541(14) 0.0989(9)
C6 C 0.3096(11) 0.3509(14) 0.0968(7)
C7 C 0.7046(12) 0.3504(15) 0.1027(7)
O3 O 0.7425(8) 0.4310(10) 0.0542(6)
O4 O 0.7728(9) 0.2619(10) 0.1542(6)
O5 O 0.8799(10) 0.2481(12) -0.0193(7)
C8 C 0.1698(12) 0.3361(14) 0.0986(7)
O6 O 0.1459(8) 0.2527(12) 0.1487(6)
O2B O 0.9055(8) 0.5800(10) -0.0491(5)
O2_2 O 1.0945(8) 0.4200(10) 0.0491(5)
Cu1B Cu 0.08203(17) 0.5817(2) -0.05630(11)
Cu1_2 Cu -0.08203(17) 0.4183(2) 0.05630(11)
O7 O 0.9284(12) 0.1916(13) 0.8319(8)
O8 O 0.9705(11) 0.0709(12) 0.1717(8)
loop_
_geom_bond_atom_site_label_1
_geom_bond_atom_site_label_2
_geom_bond_site_symmetry_1
_geom_bond_site_symmetry_2
O1 Cu1 1_555 1_555
O2 C8 1_555 1_555
I1 C2 1_555 1_555
I2 C1 1_555 1_555
I3 C3 1_555 1_555
I4 C4 1_555 1_555
Cu1 O3 1_555 1_555
C1 C4 1_555 1_555
C2 C3 1_555 1_555
C3 C5 1_555 1_555
C4 C6 1_555 1_555
C5 C1 1_555 1_555
C6 C2 1_555 1_555
C7 C5 1_555 1_555
O3 C7 1_555 1_555
O4 C7 1_555 1_555
O5 Cu1 1_555 1_555
C8 C6 1_555 1_555
O6 C8 1_555 1_555
O2B Cu1 1_555 1_555
O2_2 Cu1 1_555 1_555
Cu1B O2 1_555 1_555
Cu1_2 O2 1_555 1_555

#END
