
#######################################################################
#
#                 Cambridge Crystallographic Data Centre
#                                CCDC 
#
#######################################################################
#
# If this CIF has been generated from an entry in the Cambridge 
# Structural Database, then it will include bibliographic, chemical, 
# crystal, experimental, refinement or atomic coordinate data resulting 
# from the CCDC's data processing and validation procedures.
#
#######################################################################

data_SUJWAX
_symmetry_cell_setting           monoclinic
_symmetry_space_group_name_H-M   'P 21/c'
_symmetry_Int_Tables_number      14
_space_group_name_Hall           '-P 2ybc'
loop_
_symmetry_equiv_pos_site_id
_symmetry_equiv_pos_as_xyz
1 x,y,z
2 -x,1/2+y,1/2-z
3 -x,-y,-z
4 x,1/2-y,1/2+z
_cell_length_a                   17.468(3)
_cell_length_b                   8.9920(18)
_cell_length_c                   13.802(3)
_cell_angle_alpha                90
_cell_angle_beta                 109.97(3)
_cell_angle_gamma                90
_cell_volume                     2037.56
loop_
_atom_site_label
_atom_site_type_symbol
_atom_site_fract_x
_atom_site_fract_y
_atom_site_fract_z
Cu1 Cu 0.03442(5) 0.58958(7) 0.18430(6)
Cu2 Cu 0.06508(5) 0.96087(7) 0.13088(6)
C1 C 0.3987(5) 1.4289(7) 0.3706(6)
H1 H 0.3599 1.5087 0.3556
H2 H 0.4304 1.4357 0.3260
H3 H 0.4341 1.4358 0.4411
C2 C 0.3971(4) 1.1547(7) 0.3711(6)
H4 H 0.4538 1.1572 0.3952
C3 C 0.3576(4) 1.0212(7) 0.3537(5)
H5 H 0.3875 0.9334 0.3655
C4 C 0.2738(4) 1.0159(6) 0.3186(5)
C5 C 0.2316(4) 1.1494(6) 0.3050(5)
H6 H 0.1750 1.1494 0.2838
C6 C 0.2734(4) 1.2807(6) 0.3228(5)
H7 H 0.2448 1.3700 0.3133
C7 C 0.2309(4) 0.8721(6) 0.2964(5)
C8 C -0.2982(4) 0.1161(7) -0.0772(5)
H8 H -0.2610 0.0357 -0.0495
H9 H -0.3246 0.1018 -0.1499
H10 H -0.3384 0.1186 -0.0441
C9 C -0.2920(4) 0.3891(7) -0.0908(5)
H11 H -0.3478 0.3865 -0.1267
C10 C -0.2519(4) 0.5250(7) -0.0720(5)
H12 H -0.2806 0.6128 -0.0941
C11 C -0.1685(3) 0.5285(6) -0.0198(4)
C12 C -0.1279(4) 0.3944(6) 0.0144(5)
H13 H -0.0722 0.3935 0.0510
C13 C -0.1719(4) 0.2621(6) -0.0072(5)
H14 H -0.1451 0.1723 0.0145
C14 C -0.1237(3) 0.6709(6) -0.0018(4)
N1 N 0.3546(3) 1.2828(5) 0.3536(4)
N2 N 0.2678(3) 0.7439(5) 0.3380(4)
N3 N 0.2107(3) 0.6390(5) 0.3010(4)
N4 N 0.1434(3) 0.6995(5) 0.2400(4)
N5 N 0.1540(3) 0.8491(5) 0.2355(4)
N6 N -0.0484(3) 0.6943(5) 0.0644(4)
N7 N -0.0321(3) 0.8365(5) 0.0473(4)
N8 N -0.0949(3) 0.8936(5) -0.0258(4)
N9 N -0.1542(3) 0.7919(5) -0.0583(4)
N10 N -0.2517(3) 0.2620(5) -0.0582(4)
N11 N -0.0154(3) 0.6336(5) 0.3048(4)
N12 N -0.0384(3) 0.7585(5) 0.3037(4)
N13 N -0.0634(4) 0.8794(5) 0.2991(5)
Cu1A Cu -0.03442(5) 1.08958(7) 0.31570(6)
Cu2A Cu -0.06508(5) 0.46087(7) 0.36912(6)
Cu2B Cu -0.06508(5) 1.03913(7) -0.13088(6)
N8B N 0.0949(3) 1.1064(5) 0.0258(4)
N11A N 0.0154(3) 1.1336(5) 0.1952(4)
N13A N 0.0634(4) 0.3794(5) 0.2009(5)
O1 O 0.5125(4) 0.2200(7) 0.0841(6)
O2 O 0.3968(4) 0.1813(9) 0.1320(7)
O3 O 0.5230(4) 0.2466(8) 0.2535(5)
O4 O 0.4482(4) 0.4159(6) 0.1287(6)
Cl1 Cl 0.46912(11) 0.26256(19) 0.15082(17)
loop_
_geom_bond_atom_site_label_1
_geom_bond_atom_site_label_2
_geom_bond_site_symmetry_1
_geom_bond_site_symmetry_2
Cu1 N4 1_555 1_555
Cu2 N5 1_555 1_555
C1 H1 1_555 1_555
H2 C1 1_555 1_555
H3 C1 1_555 1_555
C2 H4 1_555 1_555
C3 C2 1_555 1_555
H5 C3 1_555 1_555
C4 C3 1_555 1_555
C5 C4 1_555 1_555
H6 C5 1_555 1_555
C6 C5 1_555 1_555
H7 C6 1_555 1_555
C7 C4 1_555 1_555
C8 H8 1_555 1_555
H9 C8 1_555 1_555
H10 C8 1_555 1_555
C9 H11 1_555 1_555
C10 C9 1_555 1_555
H12 C10 1_555 1_555
C11 C10 1_555 1_555
C12 C11 1_555 1_555
H13 C12 1_555 1_555
C13 C12 1_555 1_555
H14 C13 1_555 1_555
C14 C11 1_555 1_555
N1 C1 1_555 1_555
N2 C7 1_555 1_555
N3 N2 1_555 1_555
N4 N3 1_555 1_555
N5 C7 1_555 1_555
N6 Cu1 1_555 1_555
N7 Cu2 1_555 1_555
N8 N7 1_555 1_555
N9 C14 1_555 1_555
N10 C8 1_555 1_555
N11 Cu1 1_555 1_555
N12 N11 1_555 1_555
N13 N12 1_555 1_555
O1 Cl1 1_555 1_555
O2 Cl1 1_555 1_555
O3 Cl1 1_555 1_555
O4 Cl1 1_555 1_555
Cu1A N13 1_555 1_555
Cu2A N11 1_555 1_555
Cu2B N8 1_555 1_555
N8B Cu2 1_555 1_555
N11A Cu2 1_555 1_555
N13A Cu1 1_555 1_555
C2 N1 1_555 1_555
C6 N1 1_555 1_555
C9 N10 1_555 1_555
C13 N10 1_555 1_555
C14 N6 1_555 1_555
N4 N5 1_555 1_555
N6 N7 1_555 1_555
N8 N9 1_555 1_555
Cu1A N11A 1_555 1_555

#END
