
#######################################################################
#
#                 Cambridge Crystallographic Data Centre
#                                CCDC 
#
#######################################################################
#
# If this CIF has been generated from an entry in the Cambridge 
# Structural Database, then it will include bibliographic, chemical, 
# crystal, experimental, refinement or atomic coordinate data resulting 
# from the CCDC's data processing and validation procedures.
#
#######################################################################

data_SUJXEB01
_symmetry_cell_setting           monoclinic
_symmetry_space_group_name_H-M   'P 21/c'
_symmetry_Int_Tables_number      14
_space_group_name_Hall           '-P 2ybc'
loop_
_symmetry_equiv_pos_site_id
_symmetry_equiv_pos_as_xyz
1 x,y,z
2 -x,1/2+y,1/2-z
3 -x,-y,-z
4 x,1/2-y,1/2+z
_cell_length_a                   15.1908(11)
_cell_length_b                   10.2298(8)
_cell_length_c                   15.6092(12)
_cell_angle_alpha                90
_cell_angle_beta                 109.9490(10)
_cell_angle_gamma                90
_cell_volume                     2280.1
loop_
_atom_site_label
_atom_site_type_symbol
_atom_site_fract_x
_atom_site_fract_y
_atom_site_fract_z
Ni1 Ni 0.34314(3) 0.42083(4) 0.51073(3)
O1 O 0.46748(17) 0.4080(3) 0.61634(16)
H1 H 0.4718 0.4701 0.6527
H2 H 0.5176 0.4065 0.6052
O2 O 0.37447(16) 0.5677(2) 0.42762(16)
O3 O 0.23486(16) 0.4814(2) 0.39192(16)
O4 O 0.29331(17) 0.9483(3) 0.07997(17)
O5 O 0.42150(17) 0.8867(3) 0.19414(17)
N1 N 0.3805(2) 0.2668(3) 0.4437(2)
N2 N 0.2865(2) 0.2671(3) 0.5599(2)
C1 C 0.2518(2) 0.6575(3) 0.2996(2)
C2 C 0.3109(2) 0.7268(3) 0.2649(2)
H3 H 0.3768 0.7165 0.2910
C3 C 0.2731(2) 0.8109(3) 0.1922(2)
C4 C 0.1762(2) 0.8263(4) 0.1557(2)
H4 H 0.1505 0.8834 0.1053
C5 C 0.1163(2) 0.7606(4) 0.1908(2)
C6 C 0.1554(2) 0.6743(4) 0.2624(2)
H5 H 0.1156 0.6260 0.2863
C7 C 0.2887(2) 0.5632(3) 0.3771(2)
C8 C 0.3354(2) 0.8870(3) 0.1530(2)
C9 C 0.0093(3) 0.7783(5) 0.1510(3)
C10 C -0.0196(3) 0.8915(7) 0.0868(4)
H6 H 0.0101 0.9715 0.1180
H7 H -0.0879 0.9012 0.0664
H8 H -0.0001 0.8759 0.0340
C11 C -0.0303(4) 0.7976(9) 0.2256(4)
H9 H 0.0027 0.8693 0.2652
H10 H -0.0227 0.7172 0.2615
H11 H -0.0971 0.8191 0.1991
C12 C -0.0325(4) 0.6544(7) 0.1002(6)
H12 H -0.1009 0.6621 0.0761
H13 H -0.0148 0.5797 0.1420
H14 H -0.0088 0.6411 0.0498
C13 C 0.4264(3) 0.2683(4) 0.3845(3)
H15 H 0.4444 0.3503 0.3672
C14 C 0.4491(3) 0.1560(4) 0.3473(3)
H16 H 0.4815 0.1616 0.3050
C15 C 0.4242(3) 0.0369(4) 0.3719(3)
H17 H 0.4399 -0.0411 0.3473
C16 C 0.3756(3) 0.0307(4) 0.4335(3)
C17 C 0.3455(3) -0.0882(4) 0.4622(3)
H18 H 0.3607 -0.1691 0.4408
C18 C 0.2958(3) -0.0882(4) 0.5190(3)
H19 H 0.2754 -0.1688 0.5359
C19 C 0.2734(3) 0.0314(4) 0.5542(3)
C20 C 0.2239(3) 0.0390(5) 0.6149(3)
H20 H 0.2005 -0.0384 0.6330
C21 C 0.2091(3) 0.1563(5) 0.6481(3)
H21 H 0.1776 0.1613 0.6912
C22 C 0.2407(3) 0.2695(4) 0.6184(3)
H22 H 0.2290 0.3515 0.6409
C23 C 0.3037(2) 0.1491(4) 0.5290(2)
C24 C 0.3546(3) 0.1496(4) 0.4669(2)
Ni1C Ni 0.34314(3) 1.07917(4) 0.01073(3)
O4C O 0.29331(17) 0.5517(3) 0.57997(17)
loop_
_geom_bond_atom_site_label_1
_geom_bond_atom_site_label_2
_geom_bond_site_symmetry_1
_geom_bond_site_symmetry_2
Ni1 O1 1_555 1_555
O1 H1 1_555 1_555
H2 O1 1_555 1_555
O2 Ni1 1_555 1_555
O3 Ni1 1_555 1_555
O4 C8 1_555 1_555
O5 C8 1_555 1_555
N1 Ni1 1_555 1_555
N2 Ni1 1_555 1_555
C1 C2 1_555 1_555
C2 H3 1_555 1_555
C3 C2 1_555 1_555
C4 C3 1_555 1_555
H4 C4 1_555 1_555
C5 C4 1_555 1_555
C6 C1 1_555 1_555
H5 C6 1_555 1_555
C7 O2 1_555 1_555
C8 C3 1_555 1_555
C9 C5 1_555 1_555
C10 C9 1_555 1_555
H6 C10 1_555 1_555
H7 C10 1_555 1_555
H8 C10 1_555 1_555
C11 C9 1_555 1_555
H9 C11 1_555 1_555
H10 C11 1_555 1_555
H11 C11 1_555 1_555
C12 C9 1_555 1_555
H12 C12 1_555 1_555
H13 C12 1_555 1_555
H14 C12 1_555 1_555
C13 N1 1_555 1_555
H15 C13 1_555 1_555
C14 C13 1_555 1_555
H16 C14 1_555 1_555
C15 C14 1_555 1_555
H17 C15 1_555 1_555
C16 C15 1_555 1_555
C17 C16 1_555 1_555
H18 C17 1_555 1_555
C18 C17 1_555 1_555
H19 C18 1_555 1_555
C19 C18 1_555 1_555
C20 C19 1_555 1_555
H20 C20 1_555 1_555
C21 C20 1_555 1_555
H21 C21 1_555 1_555
C22 N2 1_555 1_555
H22 C22 1_555 1_555
C23 N2 1_555 1_555
C24 N1 1_555 1_555
Ni1C O4 1_555 1_555
O4C Ni1 1_555 1_555
O3 C7 1_555 1_555
C1 C7 1_555 1_555
C5 C6 1_555 1_555
C16 C24 1_555 1_555
C19 C23 1_555 1_555
C21 C22 1_555 1_555
C23 C24 1_555 1_555

#END
