
#######################################################################
#
#                 Cambridge Crystallographic Data Centre
#                                CCDC 
#
#######################################################################
#
# If this CIF has been generated from an entry in the Cambridge 
# Structural Database, then it will include bibliographic, chemical, 
# crystal, experimental, refinement or atomic coordinate data resulting 
# from the CCDC's data processing and validation procedures.
#
#######################################################################

data_SUKFEK
_symmetry_cell_setting           monoclinic
_symmetry_space_group_name_H-M   'C 2/c'
_symmetry_Int_Tables_number      15
_space_group_name_Hall           '-C 2yn'
loop_
_symmetry_equiv_pos_site_id
_symmetry_equiv_pos_as_xyz
1 x,y,z
2 -x,y,1/2-z
3 1/2+x,1/2+y,z
4 1/2-x,1/2+y,1/2-z
5 -x,-y,-z
6 x,-y,1/2+z
7 1/2-x,1/2-y,-z
8 1/2+x,1/2-y,1/2+z
_cell_length_a                   16.546(3)
_cell_length_b                   16.091(3)
_cell_length_c                   19.478(3)
_cell_angle_alpha                90
_cell_angle_beta                 111.944(5)
_cell_angle_gamma                90
_cell_volume                     4810.14
loop_
_atom_site_label
_atom_site_type_symbol
_atom_site_fract_x
_atom_site_fract_y
_atom_site_fract_z
Sn1 Sn 0.25682(3) -0.40737(3) 0.30396(3)
N1 N 0.3072(8) -0.0861(6) 0.3419(6)
C1 C 0.3262(8) -0.1841(6) 0.4454(5)
H1 H 0.3158 -0.1703 0.4899
H2 H 0.3876 -0.1753 0.4558
C2 C 0.3052(6) -0.2772(5) 0.4279(5)
C3 C 0.3953(5) -0.4185(4) 0.3283(5)
H3 H 0.4015 -0.4357 0.2822
C4 C 0.4479(6) -0.3380(6) 0.3532(6)
H4 H 0.4430 -0.3180 0.3985
H5 H 0.4250 -0.2957 0.3155
C5 C 0.5449(7) -0.3550(7) 0.3667(7)
H6 H 0.5501 -0.3674 0.3198
H7 H 0.5787 -0.3052 0.3867
C6 C 0.5818(7) -0.4256(8) 0.4189(7)
H8 H 0.5839 -0.4101 0.4677
H9 H 0.6410 -0.4361 0.4226
C7 C 0.5293(7) -0.5039(7) 0.3947(7)
H10 H 0.5533 -0.5469 0.4317
H11 H 0.5321 -0.5232 0.3485
C8 C 0.4352(6) -0.4874(6) 0.3846(6)
H12 H 0.4325 -0.4717 0.4317
H13 H 0.4016 -0.5380 0.3680
C9 C 0.1720(9) -0.3577(9) 0.2014(8)
H14 H 0.1469 -0.4067 0.1710
C10 C 0.2147(10) -0.3132(9) 0.1600(8)
H15 H 0.2553 -0.3501 0.1500
H16 H 0.2478 -0.2674 0.1898
C11 C 0.1480(9) -0.2780(9) 0.0845(8)
H17 H 0.1794 -0.2432 0.0622
H18 H 0.1236 -0.3242 0.0512
C12 C 0.0788(10) -0.2312(9) 0.0913(8)
H19 H 0.1022 -0.1802 0.1177
H20 H 0.0383 -0.2163 0.0422
C13 C 0.0338(9) -0.2736(9) 0.1282(8)
H21 H 0.0009 -0.3185 0.0969
H22 H -0.0074 -0.2359 0.1363
C14 C 0.0936(9) -0.3102(9) 0.2035(8)
H23 H 0.1142 -0.2652 0.2389
H24 H 0.0594 -0.3472 0.2212
C15 C 0.1974(11) -0.4896(10) 0.3604(9)
H25 H 0.2408 -0.4925 0.4110
C16 C 0.0759(11) -0.5911(9) 0.3977(10)
H26 H 0.0255 -0.5955 0.3519
H27 H 0.0640 -0.6228 0.4352
C17 C 0.1522(11) -0.6274(10) 0.3868(9)
H28 H 0.1367 -0.6823 0.3653
H29 H 0.1988 -0.6340 0.4347
C18 C 0.1220(10) -0.4515(10) 0.3695(9)
H30 H 0.0761 -0.4433 0.3214
H31 H 0.1381 -0.3977 0.3931
C19 C 0.0882(11) -0.5099(10) 0.4187(9)
H32 H 0.1297 -0.5074 0.4694
H33 H 0.0334 -0.4878 0.4181
C20 C 0.1869(12) -0.5751(9) 0.3362(10)
H34 H 0.2424 -0.5972 0.3386
H35 H 0.1462 -0.5784 0.2853
C21 C 0.1924(9) -0.1098(8) 0.3639(9)
H36 H 0.1543 -0.1302 0.3850
N2 N 0.1708(7) -0.0600(7) 0.3079(7)
N3 N 0.2447(6) -0.0445(5) 0.2950(5)
N4 N 0.2762(5) -0.1274(4) 0.3870(4)
O1 O 0.2606(4) -0.2915(3) 0.3588(3)
O2 O 0.3321(5) -0.3249(4) 0.4780(4)
Sn1C Sn 0.24318(3) 0.09263(3) 0.19604(3)
N3C N 0.2553(6) -0.5445(5) 0.2050(5)
loop_
_geom_bond_atom_site_label_1
_geom_bond_atom_site_label_2
_geom_bond_site_symmetry_1
_geom_bond_site_symmetry_2
Sn1 C3 1_555 1_555
N1 N3 1_555 1_555
C1 H1 1_555 1_555
H2 C1 1_555 1_555
C2 C1 1_555 1_555
C3 H3 1_555 1_555
C4 C3 1_555 1_555
H4 C4 1_555 1_555
H5 C4 1_555 1_555
C5 C4 1_555 1_555
H6 C5 1_555 1_555
H7 C5 1_555 1_555
C6 C5 1_555 1_555
H8 C6 1_555 1_555
H9 C6 1_555 1_555
C7 C6 1_555 1_555
H10 C7 1_555 1_555
H11 C7 1_555 1_555
C8 C3 1_555 1_555
H12 C8 1_555 1_555
H13 C8 1_555 1_555
C9 Sn1 1_555 1_555
H14 C9 1_555 1_555
C10 C9 1_555 1_555
H15 C10 1_555 1_555
H16 C10 1_555 1_555
C11 C10 1_555 1_555
H17 C11 1_555 1_555
H18 C11 1_555 1_555
C12 C11 1_555 1_555
H19 C12 1_555 1_555
H20 C12 1_555 1_555
C13 C12 1_555 1_555
H21 C13 1_555 1_555
H22 C13 1_555 1_555
C14 C9 1_555 1_555
H23 C14 1_555 1_555
H24 C14 1_555 1_555
C15 Sn1 1_555 1_555
H25 C15 1_555 1_555
C16 H26 1_555 1_555
H27 C16 1_555 1_555
C17 C16 1_555 1_555
H28 C17 1_555 1_555
H29 C17 1_555 1_555
C18 C15 1_555 1_555
H30 C18 1_555 1_555
H31 C18 1_555 1_555
C19 C16 1_555 1_555
H32 C19 1_555 1_555
H33 C19 1_555 1_555
C20 C15 1_555 1_555
H34 C20 1_555 1_555
H35 C20 1_555 1_555
C21 H36 1_555 1_555
N2 C21 1_555 1_555
N3 N2 1_555 1_555
N4 N1 1_555 1_555
O1 Sn1 1_555 1_555
O2 C2 1_555 1_555
Sn1C N3 1_555 1_555
N3C Sn1 1_555 1_555
C1 N4 1_555 1_555
C2 O1 1_555 1_555
C7 C8 1_555 1_555
C13 C14 1_555 1_555
C17 C20 1_555 1_555
C18 C19 1_555 1_555
C21 N4 1_555 1_555

#END
