
#######################################################################
#
#                 Cambridge Crystallographic Data Centre
#                                CCDC 
#
#######################################################################
#
# If this CIF has been generated from an entry in the Cambridge 
# Structural Database, then it will include bibliographic, chemical, 
# crystal, experimental, refinement or atomic coordinate data resulting 
# from the CCDC's data processing and validation procedures.
#
#######################################################################

data_SUKNOC
_symmetry_cell_setting           trigonal
_symmetry_space_group_name_H-M   'P -3 1 c'
_symmetry_Int_Tables_number      163
_space_group_name_Hall           "-P 3 2'c"
loop_
_symmetry_equiv_pos_site_id
_symmetry_equiv_pos_as_xyz
1 x,y,z
2 -y,x-y,z
3 -x+y,-x,z
4 -y,-x,1/2-z
5 x,x-y,1/2-z
6 -x+y,y,1/2-z
7 -x,-y,-z
8 y,-x+y,-z
9 x-y,x,-z
10 y,x,1/2+z
11 -x,-x+y,1/2+z
12 x-y,-y,1/2+z
_cell_length_a                   21.3676(4)
_cell_length_b                   21.3676(4)
_cell_length_c                   21.0560(10)
_cell_angle_alpha                90
_cell_angle_beta                 90
_cell_angle_gamma                120
_cell_volume                     8325.65
loop_
_atom_site_label
_atom_site_type_symbol
_atom_site_fract_x
_atom_site_fract_y
_atom_site_fract_z
C1 C 0.51150(14) 0.18847(12) -0.14875(11)
C2 C 0.54747(14) 0.17728(13) -0.09377(11)
C3 C 0.50581(15) 0.12647(14) -0.04751(11)
H1 H 0.4557 0.1018 -0.0509
C4 C 0.53799(16) 0.11207(16) 0.00364(15)
C5 C 0.61329(19) 0.1479(2) 0.00779(18)
C6 C 0.65441(18) 0.1994(2) -0.03885(16)
H2 H 0.7046 0.2237 -0.0365
C7 C 0.62148(15) 0.21394(15) -0.08747(13)
H3 H 0.6496 0.2494 -0.1170
C8 C 0.4328(2) 0.0241(3) 0.0487(2)
H4 H 0.4097 0.0294 0.0134
C9 C 0.37301(14) -0.09671(14) 0.19056(11)
H5 H 0.3936 -0.1073 0.2248
C10 C 0.41822(15) -0.04427(15) 0.14927(13)
H6 H 0.4679 -0.0194 0.1557
C11 C 0.38804(18) -0.0291(2) 0.09768(18)
C12 C 0.31438(19) -0.0654(2) 0.09236(19)
H7 H 0.2925 -0.0551 0.0590
C13 C 0.27274(18) -0.1171(2) 0.13620(17)
H8 H 0.2228 -0.1413 0.1317
N1 N 0.49969(14) 0.06211(14) 0.05222(11)
N2 N 0.30117(12) -0.13379(12) 0.18498(10)
N3 N 0.64519(19) 0.1357(3) 0.0578(2)
O1 O 0.54992(9) 0.23367(8) -0.19099(8)
O2 O 0.44278(10) 0.15399(9) -0.15375(8)
O3 O 0.32241(16) 0.16120(8) -0.2500
K1 K 0.6667 0.3333 -0.2500
Cd1 Cd 0.452370(13) 0.226180(7) -0.2500
H9 H 0.2972(4) 0.1196(6) -0.2371(14)
H10 H 0.6315(14) 0.0943(6) 0.0725(13)
H11 H 0.6904(2) 0.1616(12) 0.0572(14)
C1B C 0.67697(18) 0.48850(14) -0.14875(11)
C1A C 0.81153(12) 0.32303(18) -0.14875(11)
C1C C 0.81153(12) 0.48850(14) -0.35125(11)
C1D C 0.51150(14) 0.32303(18) -0.35125(11)
C1E C 0.67697(18) 0.18847(12) -0.35125(11)
C2B C 0.62981(19) 0.45253(14) -0.09377(11)
C2A C 0.82272(13) 0.37019(19) -0.09377(11)
C2C C 0.82272(13) 0.45253(14) -0.40623(11)
C2D C 0.54747(14) 0.37019(19) -0.40623(11)
C2E C 0.62981(19) 0.17728(13) -0.40623(11)
C3B C 0.62066(21) 0.49419(15) -0.04751(11)
C3A C 0.87353(14) 0.37934(21) -0.04751(11)
C3C C 0.87353(14) 0.49419(15) -0.45249(11)
C3D C 0.50581(15) 0.37934(21) -0.45249(11)
C3E C 0.62066(21) 0.12647(14) -0.45249(11)
H1B H 0.6461 0.5443 -0.0509
H1A H 0.8982 0.3539 -0.0509
H1C H 0.8982 0.5443 -0.4491
H1D H 0.4557 0.3539 -0.4491
H1E H 0.6461 0.1018 -0.4491
C4B C 0.57408(23) 0.46201(16) 0.00364(15)
C4A C 0.88793(16) 0.42592(23) 0.00364(15)
C4C C 0.88793(16) 0.46201(16) -0.50364(15)
C4D C 0.53799(16) 0.42592(23) -0.50364(15)
C4E C 0.57408(23) 0.11207(16) -0.50364(15)
C5B C 0.53461(28) 0.38671(19) 0.00779(18)
C5A C 0.8521(2) 0.46539(28) 0.00779(18)
C5C C 0.8521(2) 0.38671(19) -0.50779(18)
C5D C 0.61329(19) 0.46539(28) -0.50779(18)
C5E C 0.53461(28) 0.1479(2) -0.50779(18)
C6B C 0.54499(27) 0.34559(18) -0.03885(16)
C6A C 0.8006(2) 0.45501(27) -0.03885(16)
C6C C 0.8006(2) 0.34559(18) -0.46115(16)
C6D C 0.65441(18) 0.45501(27) -0.46115(16)
C6E C 0.54499(27) 0.1994(2) -0.46115(16)
H2B H 0.5191 0.2954 -0.0365
H2A H 0.7763 0.4809 -0.0365
H2C H 0.7763 0.2954 -0.4635
H2D H 0.7046 0.4809 -0.4635
H2E H 0.5191 0.2237 -0.4635
C7B C 0.59246(21) 0.37852(15) -0.08747(13)
C7A C 0.78606(15) 0.40754(21) -0.08747(13)
C7C C 0.78606(15) 0.37852(15) -0.41253(13)
C7D C 0.62148(15) 0.40754(21) -0.41253(13)
C7E C 0.59246(21) 0.21394(15) -0.41253(13)
H3B H 0.5998 0.3504 -0.1170
H3A H 0.7506 0.4002 -0.1170
H3C H 0.7506 0.3504 -0.3830
H3D H 0.6496 0.4002 -0.3830
H3E H 0.5998 0.2494 -0.3830
C8B C 0.5913(4) 0.5672(2) 0.0487(2)
C8A C 0.9759(3) 0.4087(4) 0.0487(2)
C8C C 0.9759(3) 0.5672(2) -0.5487(2)
C8D C 0.4328(2) 0.4087(4) -0.5487(2)
C8E C 0.5913(4) 0.0241(3) -0.5487(2)
H4B H 0.6197 0.5903 0.0134
H4A H 0.9706 0.3803 0.0134
H4C H 0.9706 0.5903 -0.5134
H4D H 0.4097 0.3803 -0.5134
H4E H 0.6197 0.0294 -0.5134
C9B C 0.53028(20) 0.62699(14) 0.19056(11)
C9A C 1.09671(14) 0.46972(20) 0.19056(11)
C9C C 1.09671(14) 0.62699(14) -0.69056(11)
C9D C 0.37301(14) 0.46972(20) -0.69056(11)
C9E C 0.53028(20) -0.09671(14) -0.69056(11)
H5B H 0.4991 0.6064 0.2248
H5A H 1.1073 0.5009 0.2248
H5C H 1.1073 0.6064 -0.7248
H5D H 0.3936 0.5009 -0.7248
H5E H 0.4991 -0.1073 -0.7248
C10B C 0.53751(21) 0.58178(15) 0.14927(13)
C10A C 1.04427(15) 0.46249(21) 0.14927(13)
C10C C 1.04427(15) 0.58178(15) -0.64927(13)
C10D C 0.41822(15) 0.46249(21) -0.64927(13)
C10E C 0.53751(21) -0.04427(15) -0.64927(13)
H6B H 0.5127 0.5321 0.1557
H6A H 1.0194 0.4873 0.1557
H6C H 1.0194 0.5321 -0.6557
H6D H 0.4679 0.4873 -0.6557
H6E H 0.5127 -0.0194 -0.6557
C11B C 0.58286(27) 0.61196(18) 0.09768(18)
C11A C 1.0291(2) 0.41714(27) 0.09768(18)
C11C C 1.0291(2) 0.61196(18) -0.59768(18)
C11D C 0.38804(18) 0.41714(27) -0.59768(18)
C11E C 0.58286(27) -0.0291(2) -0.59768(18)
C12B C 0.62022(28) 0.68562(19) 0.09236(19)
C12A C 1.0654(2) 0.37978(28) 0.09236(19)
C12C C 1.0654(2) 0.68562(19) -0.59236(19)
C12D C 0.31438(19) 0.37978(28) -0.59236(19)
C12E C 0.62022(28) -0.0654(2) -0.59236(19)
H7B H 0.6524 0.7075 0.0590
H7A H 1.0551 0.3476 0.0590
H7C H 1.0551 0.7075 -0.5590
H7D H 0.2925 0.3476 -0.5590
H7E H 0.6524 -0.0551 -0.5590
C13B C 0.61016(27) 0.72726(18) 0.13620(17)
C13A C 1.1171(2) 0.38984(27) 0.13620(17)
C13C C 1.1171(2) 0.72726(18) -0.63620(17)
C13D C 0.27274(18) 0.38984(27) -0.63620(17)
C13E C 0.61016(27) -0.1171(2) -0.63620(17)
H8B H 0.6359 0.7772 0.1317
H8A H 1.1413 0.3641 0.1317
H8C H 1.1413 0.7772 -0.6317
H8D H 0.2228 0.3641 -0.6317
H8E H 0.6359 -0.1413 -0.6317
N1B N 0.56242(20) 0.50031(14) 0.05222(11)
N1A N 0.93789(14) 0.43758(20) 0.05222(11)
N1C N 0.93789(14) 0.50031(14) -0.55222(11)
N1D N 0.49969(14) 0.43758(20) -0.55222(11)
N1E N 0.56242(20) 0.06211(14) -0.55222(11)
N2H N 0.43496(17) 0.30117(12) -0.18498(10)
N2K N 0.43496(17) 0.13379(12) -0.31502(10)
N2G N 0.86621(12) 0.56504(17) -0.18498(10)
N2J N 0.69883(12) 0.56504(17) -0.31502(10)
N2F N 0.69883(12) 0.13379(12) -0.18498(10)
N2I N 0.86621(12) 0.30117(12) -0.31502(10)
N2B N 0.56504(17) 0.69883(12) 0.18498(10)
N2A N 1.13379(12) 0.43496(17) 0.18498(10)
N2C N 1.13379(12) 0.69883(12) -0.68498(10)
N2D N 0.30117(12) 0.43496(17) -0.68498(10)
N2E N 0.56504(17) -0.13379(12) -0.68498(10)
N3B N 0.49051(36) 0.35481(19) 0.0578(2)
N3A N 0.8643(3) 0.50949(36) 0.0578(2)
N3C N 0.8643(3) 0.35481(19) -0.5578(2)
N3D N 0.64519(19) 0.50949(36) -0.5578(2)
N3E N 0.49051(36) 0.1357(3) -0.5578(2)
O1B O 0.68375(12) 0.45008(9) -0.19099(8)
O1A O 0.76633(8) 0.31625(12) -0.19099(8)
O1C O 0.76633(8) 0.45008(9) -0.30901(8)
O1D O 0.54992(9) 0.31625(12) -0.30901(8)
O1E O 0.68375(12) 0.23367(8) -0.30901(8)
O2D O 0.44278(10) 0.28879(13) -0.34625(8)
O2B O 0.71121(13) 0.55722(10) -0.15375(8)
O2C O 0.84601(9) 0.55722(10) -0.34625(8)
O2A O 0.84601(9) 0.28879(13) -0.15375(8)
O2E O 0.71121(13) 0.15399(9) -0.34625(8)
O3B O 0.83879(18) 0.67759(16) -0.2500
O3A O 0.83880(8) 0.16121(18) -0.2500
Cd1G Cd 0.226180(7) -0.226190(15) 0.2500
Cd1B Cd 0.773810(15) 0.547630(13) -0.2500
Cd1A Cd 0.773820(7) 0.226190(15) -0.2500
Cd1F Cd 0.547630(13) 0.773820(7) 0.2500
Cd1H Cd 1.226190(15) 0.452370(13) 0.2500
Cd1G_2 Cd 1.226180(7) 0.773810(15) -0.7500
Cd1H_2 Cd 0.226190(15) 0.452370(13) -0.7500
Cd1F_2 Cd 0.547630(13) -0.226180(7) -0.7500
H9D H 0.2972(4) 0.1776(7) -0.2629(14)
H9B H 0.8224(7) 0.7028(4) -0.2371(14)
H9C H 0.8804(6) 0.7028(4) -0.2629(14)
H9A H 0.8804(6) 0.1776(7) -0.2371(14)
H9E H 0.8224(7) 0.1196(6) -0.2629(14)
H10B H 0.4628(15) 0.3685(14) 0.0725(13)
H10A H 0.9057(6) 0.5372(15) 0.0725(13)
H10C H 0.9057(6) 0.3685(14) -0.5725(13)
H10D H 0.6315(14) 0.5372(15) -0.5725(13)
H10E H 0.4628(15) 0.0943(6) -0.5725(13)
H11B H 0.4712(12) 0.3096(2) 0.0572(14)
H11A H 0.8384(12) 0.5288(12) 0.0572(14)
H11C H 0.8384(12) 0.3096(2) -0.5572(14)
H11D H 0.6904(2) 0.5288(12) -0.5572(14)
H11E H 0.4712(12) 0.1616(12) -0.5572(14)
loop_
_geom_bond_atom_site_label_1
_geom_bond_atom_site_label_2
_geom_bond_site_symmetry_1
_geom_bond_site_symmetry_2
C1 C2 1_555 1_555
C2 C3 1_555 1_555
C3 H1 1_555 1_555
C4 C3 1_555 1_555
C5 C4 1_555 1_555
C6 C5 1_555 1_555
H2 C6 1_555 1_555
C7 C2 1_555 1_555
H3 C7 1_555 1_555
C8 H4 1_555 1_555
C9 H5 1_555 1_555
C10 C9 1_555 1_555
H6 C10 1_555 1_555
C11 C8 1_555 1_555
C12 C11 1_555 1_555
H7 C12 1_555 1_555
C13 C12 1_555 1_555
H8 C13 1_555 1_555
N1 C4 1_555 1_555
N2 C9 1_555 1_555
N3 C5 1_555 1_555
O1 C1 1_555 1_555
O2 C1 1_555 1_555
O3 Cd1 1_555 1_555
K1 O1 1_555 1_555
Cd1 O1 1_555 1_555
H9 O3 1_555 1_555
H10 N3 1_555 1_555
H11 N3 1_555 1_555
C1B C2B 1_555 1_555
C1A C2A 1_555 1_555
C1C C2C 1_555 1_555
C1D C2D 1_555 1_555
C1E C2E 1_555 1_555
C2B C3B 1_555 1_555
C2A C3A 1_555 1_555
C2C C3C 1_555 1_555
C2D C3D 1_555 1_555
C2E C3E 1_555 1_555
C3B H1B 1_555 1_555
C3A H1A 1_555 1_555
C3C H1C 1_555 1_555
C3D H1D 1_555 1_555
C3E H1E 1_555 1_555
C4B C3B 1_555 1_555
C4A C3A 1_555 1_555
C4C C3C 1_555 1_555
C4D C3D 1_555 1_555
C4E C3E 1_555 1_555
C5B C4B 1_555 1_555
C5A C4A 1_555 1_555
C5C C4C 1_555 1_555
C5D C4D 1_555 1_555
C5E C4E 1_555 1_555
C6B C5B 1_555 1_555
C6A C5A 1_555 1_555
C6C C5C 1_555 1_555
C6D C5D 1_555 1_555
C6E C5E 1_555 1_555
H2B C6B 1_555 1_555
H2A C6A 1_555 1_555
H2C C6C 1_555 1_555
H2D C6D 1_555 1_555
H2E C6E 1_555 1_555
C7B C2B 1_555 1_555
C7A C2A 1_555 1_555
C7C C2C 1_555 1_555
C7D C2D 1_555 1_555
C7E C2E 1_555 1_555
H3B C7B 1_555 1_555
H3A C7A 1_555 1_555
H3C C7C 1_555 1_555
H3D C7D 1_555 1_555
H3E C7E 1_555 1_555
C8B H4B 1_555 1_555
C8A H4A 1_555 1_555
C8C H4C 1_555 1_555
C8D H4D 1_555 1_555
C8E H4E 1_555 1_555
C9B H5B 1_555 1_555
C9A H5A 1_555 1_555
C9C H5C 1_555 1_555
C9D H5D 1_555 1_555
C9E H5E 1_555 1_555
C10B C9B 1_555 1_555
C10A C9A 1_555 1_555
C10C C9C 1_555 1_555
C10D C9D 1_555 1_555
C10E C9E 1_555 1_555
H6B C10B 1_555 1_555
H6A C10A 1_555 1_555
H6C C10C 1_555 1_555
H6D C10D 1_555 1_555
H6E C10E 1_555 1_555
C11B C8B 1_555 1_555
C11A C8A 1_555 1_555
C11C C8C 1_555 1_555
C11D C8D 1_555 1_555
C11E C8E 1_555 1_555
C12B C11B 1_555 1_555
C12A C11A 1_555 1_555
C12C C11C 1_555 1_555
C12D C11D 1_555 1_555
C12E C11E 1_555 1_555
H7B C12B 1_555 1_555
H7A C12A 1_555 1_555
H7C C12C 1_555 1_555
H7D C12D 1_555 1_555
H7E C12E 1_555 1_555
C13B C12B 1_555 1_555
C13A C12A 1_555 1_555
C13C C12C 1_555 1_555
C13D C12D 1_555 1_555
C13E C12E 1_555 1_555
H8B C13B 1_555 1_555
H8A C13A 1_555 1_555
H8C C13C 1_555 1_555
H8D C13D 1_555 1_555
H8E C13E 1_555 1_555
N1B C4B 1_555 1_555
N1A C4A 1_555 1_555
N1C C4C 1_555 1_555
N1D C4D 1_555 1_555
N1E C4E 1_555 1_555
N2H Cd1 1_555 1_555
N2K Cd1 1_555 1_555
N2G Cd1B 1_555 1_555
N2J Cd1B 1_555 1_555
N2F Cd1A 1_555 1_555
N2I Cd1A 1_555 1_555
N2B C9B 1_555 1_555
N2A C9A 1_555 1_555
N2C C9C 1_555 1_555
N2D C9D 1_555 1_555
N2E C9E 1_555 1_555
N3B C5B 1_555 1_555
N3A C5A 1_555 1_555
N3C C5C 1_555 1_555
N3D C5D 1_555 1_555
N3E C5E 1_555 1_555
O1B K1 1_555 1_555
O1A K1 1_555 1_555
O1C K1 1_555 1_555
O1D K1 1_555 1_555
O1E K1 1_555 1_555
O2D Cd1 1_555 1_555
O2B C1B 1_555 1_555
O2C C1C 1_555 1_555
O2A C1A 1_555 1_555
O2E C1E 1_555 1_555
O3B Cd1B 1_555 1_555
O3A Cd1A 1_555 1_555
Cd1G N2 1_555 1_555
Cd1B O1B 1_555 1_555
Cd1A O1A 1_555 1_555
Cd1F N2B 1_555 1_555
Cd1H N2A 1_555 1_555
Cd1G_2 N2C 1_555 1_555
Cd1H_2 N2D 1_555 1_555
Cd1F_2 N2E 1_555 1_555
H9D O3 1_555 1_555
H9B O3B 1_555 1_555
H9C O3B 1_555 1_555
H9A O3A 1_555 1_555
H9E O3A 1_555 1_555
H10B N3B 1_555 1_555
H10A N3A 1_555 1_555
H10C N3C 1_555 1_555
H10D N3D 1_555 1_555
H10E N3E 1_555 1_555
H11B N3B 1_555 1_555
H11A N3A 1_555 1_555
H11C N3C 1_555 1_555
H11D N3D 1_555 1_555
H11E N3E 1_555 1_555
C6 C7 1_555 1_555
C8 N1 1_555 1_555
C10 C11 1_555 1_555
C13 N2 1_555 1_555
O2 Cd1 1_555 1_555
Cd1 O1D 1_555 1_555
C1B O1B 1_555 1_555
C1A O1A 1_555 1_555
C1C O1C 1_555 1_555
C1D O1D 1_555 1_555
C1D O2D 1_555 1_555
C1E O1E 1_555 1_555
C6B C7B 1_555 1_555
C6A C7A 1_555 1_555
C6C C7C 1_555 1_555
C6D C7D 1_555 1_555
C6E C7E 1_555 1_555
C8B N1B 1_555 1_555
C8A N1A 1_555 1_555
C8C N1C 1_555 1_555
C8D N1D 1_555 1_555
C8E N1E 1_555 1_555
C10B C11B 1_555 1_555
C10A C11A 1_555 1_555
C10C C11C 1_555 1_555
C10D C11D 1_555 1_555
C10E C11E 1_555 1_555
C13B N2B 1_555 1_555
C13A N2A 1_555 1_555
C13C N2C 1_555 1_555
C13D N2D 1_555 1_555
C13E N2E 1_555 1_555
O1C Cd1B 1_555 1_555
O1E Cd1A 1_555 1_555
O2B Cd1B 1_555 1_555
O2C Cd1B 1_555 1_555
O2A Cd1A 1_555 1_555
O2E Cd1A 1_555 1_555

#END
