
#######################################################################
#
#                 Cambridge Crystallographic Data Centre
#                                CCDC 
#
#######################################################################
#
# If this CIF has been generated from an entry in the Cambridge 
# Structural Database, then it will include bibliographic, chemical, 
# crystal, experimental, refinement or atomic coordinate data resulting 
# from the CCDC's data processing and validation procedures.
#
#######################################################################

data_SUKSUO
_symmetry_cell_setting           monoclinic
_symmetry_space_group_name_H-M   'P 21/c'
_symmetry_Int_Tables_number      14
_space_group_name_Hall           '-P 2ybc'
loop_
_symmetry_equiv_pos_site_id
_symmetry_equiv_pos_as_xyz
1 x,y,z
2 -x,1/2+y,1/2-z
3 -x,-y,-z
4 x,1/2-y,1/2+z
_cell_length_a                   16.6107(5)
_cell_length_b                   7.1716(2)
_cell_length_c                   17.4233(6)
_cell_angle_alpha                90
_cell_angle_beta                 117.0150(10)
_cell_angle_gamma                90
_cell_volume                     1849.09
loop_
_atom_site_label
_atom_site_type_symbol
_atom_site_fract_x
_atom_site_fract_y
_atom_site_fract_z
Co1 Co 0.69100(3) 0.68990(6) 0.21459(3)
Cl1 Cl 0.76445(7) 0.47369(16) 0.17880(8)
Cl2 Cl 0.58370(6) 0.83431(13) 0.09714(6)
N1 N 0.65749(17) 0.5555(4) 0.30003(17)
N2 N 0.5869(2) 0.4533(4) 0.37314(19)
N3 N 0.22845(17) 0.3967(4) 0.20879(17)
N4 N 0.1706(2) 0.5936(4) 0.0989(2)
C1 C 0.6771(2) 0.4591(5) 0.4319(2)
C2 C 0.7222(3) 0.4098(5) 0.5183(2)
H1 H 0.6917 0.3679 0.5484
C3 C 0.8143(3) 0.4265(6) 0.5564(3)
H2 H 0.8474 0.3939 0.6140
C4 C 0.8598(3) 0.4907(5) 0.5116(3)
H3 H 0.9224 0.4997 0.5405
C5 C 0.8154(2) 0.5418(5) 0.4256(2)
H4 H 0.8465 0.5854 0.3963
C6 C 0.7212(2) 0.5241(4) 0.3854(2)
C7 C 0.5785(2) 0.5085(4) 0.2956(2)
C8 C 0.4921(2) 0.4996(4) 0.2171(2)
C9 C 0.4911(2) 0.4597(5) 0.1389(2)
H5 H 0.5452 0.4408 0.1362
C10 C 0.4099(3) 0.4481(6) 0.0648(2)
H6 H 0.4097 0.4281 0.0120
C11 C 0.3296(3) 0.4657(5) 0.0687(2)
H7 H 0.2752 0.4569 0.0187
C12 C 0.3295(2) 0.4967(4) 0.1473(2)
C13 C 0.4109(2) 0.5190(4) 0.2210(2)
H8 H 0.4110 0.5470 0.2732
C14 C 0.2449(2) 0.4970(4) 0.1537(2)
C15 C 0.1026(2) 0.5584(5) 0.1213(2)
C16 C 0.0135(3) 0.6213(6) 0.0877(3)
H9 H -0.0106 0.7049 0.0420
C17 C -0.0362(3) 0.5528(7) 0.1260(3)
H10 H -0.0959 0.5911 0.1052
C18 C -0.0014(3) 0.4288(7) 0.1944(3)
H11 H -0.0380 0.3865 0.2184
C19 C 0.0865(2) 0.3674(6) 0.2273(3)
H12 H 0.1100 0.2833 0.2729
C20 C 0.1386(2) 0.4356(5) 0.1902(2)
H13 H 0.5449(16) 0.410(4) 0.384(2)
H14 H 0.170(3) 0.675(5) 0.062(2)
Co1A Co 0.30900(3) 0.18990(6) 0.28541(3)
N3A N 0.77155(17) 0.8967(4) 0.29121(17)
loop_
_geom_bond_atom_site_label_1
_geom_bond_atom_site_label_2
_geom_bond_site_symmetry_1
_geom_bond_site_symmetry_2
Co1 Cl1 1_555 1_555
Cl2 Co1 1_555 1_555
N1 Co1 1_555 1_555
N2 C1 1_555 1_555
N3 C14 1_555 1_555
N4 C14 1_555 1_555
C1 C2 1_555 1_555
C2 H1 1_555 1_555
C3 C2 1_555 1_555
H2 C3 1_555 1_555
C4 C3 1_555 1_555
H3 C4 1_555 1_555
C5 C4 1_555 1_555
H4 C5 1_555 1_555
C6 N1 1_555 1_555
C7 N1 1_555 1_555
C8 C7 1_555 1_555
C9 C8 1_555 1_555
H5 C9 1_555 1_555
C10 C9 1_555 1_555
H6 C10 1_555 1_555
C11 C10 1_555 1_555
H7 C11 1_555 1_555
C12 C11 1_555 1_555
C13 C8 1_555 1_555
H8 C13 1_555 1_555
C14 C12 1_555 1_555
C15 N4 1_555 1_555
C16 C15 1_555 1_555
H9 C16 1_555 1_555
C17 C16 1_555 1_555
H10 C17 1_555 1_555
C18 C17 1_555 1_555
H11 C18 1_555 1_555
C19 C18 1_555 1_555
H12 C19 1_555 1_555
C20 N3 1_555 1_555
H13 N2 1_555 1_555
H14 N4 1_555 1_555
Co1A N3 1_555 1_555
N3A Co1 1_555 1_555
N2 C7 1_555 1_555
C1 C6 1_555 1_555
C5 C6 1_555 1_555
C12 C13 1_555 1_555
C15 C20 1_555 1_555
C19 C20 1_555 1_555

#END
