
#######################################################################
#
#                 Cambridge Crystallographic Data Centre
#                                CCDC 
#
#######################################################################
#
# If this CIF has been generated from an entry in the Cambridge 
# Structural Database, then it will include bibliographic, chemical, 
# crystal, experimental, refinement or atomic coordinate data resulting 
# from the CCDC's data processing and validation procedures.
#
#######################################################################

data_SUKWEA
_symmetry_cell_setting           monoclinic
_symmetry_space_group_name_H-M   'P 21/c'
_symmetry_Int_Tables_number      14
_space_group_name_Hall           '-P 2ybc'
loop_
_symmetry_equiv_pos_site_id
_symmetry_equiv_pos_as_xyz
1 x,y,z
2 -x,1/2+y,1/2-z
3 -x,-y,-z
4 x,1/2-y,1/2+z
_cell_length_a                   7.911(2)
_cell_length_b                   15.525(5)
_cell_length_c                   23.135(9)
_cell_angle_alpha                90
_cell_angle_beta                 92.38(3)
_cell_angle_gamma                90
_cell_volume                     2838.95
loop_
_atom_site_label
_atom_site_type_symbol
_atom_site_fract_x
_atom_site_fract_y
_atom_site_fract_z
Er1 Er 0.2483(1) 0.1758(1) 0.1584(1)
N1 N 0.5798(11) 0.1116(5) 0.0111(4)
C1 C 0.5326(12) 0.1621(5) 0.0528(4)
O1 O 0.4121(9) 0.1458(4) 0.0835(3)
C2 C 0.6457(14) 0.2370(7) 0.0551(5)
C3 C 0.7480(14) 0.2308(8) 0.0016(5)
C4 C 0.7276(13) 0.1400(8) -0.0195(5)
C5 C 0.4588(15) 0.0278(11) -0.0153(5)
N2 N 0.6240(9) 0.3910(4) 0.1960(3)
C6 C 0.5627(12) 0.3135(6) 0.2040(4)
O2 O 0.4403(8) 0.2826(4) 0.1755(3)
C7 C 0.6620(13) 0.2704(6) 0.2523(5)
C8 C 0.7738(15) 0.3422(7) 0.2772(5)
C9 C 0.7703(11) 0.4112(7) 0.2322(5)
C10 C 0.5551(13) 0.4480(6) 0.1517(4)
N3 N 0.6061(9) 0.0195(4) 0.2747(3)
C11 C 0.5623(11) 0.0505(5) 0.2220(4)
O3 O 0.4317(7) 0.0957(4) 0.2121(3)
C12 C 0.6894(12) 0.0241(7) 0.1813(4)
C13 C 0.7924(12) -0.0422(7) 0.2139(5)
C14 C 0.7646(11) -0.0274(7) 0.2770(5)
C15 C 0.4935(13) 0.5335(6) 0.1748(4)
N4 N 0.0989(11) 0.1676(5) 0.2679(4)
O4 O 0.2111(8) 0.2238(4) 0.2597(3)
O5 O 0.0521(8) 0.1204(4) 0.2254(3)
O6 O 0.0373(12) 0.1591(6) 0.3150(4)
N5 N 0.0592(12) 0.3172(5) 0.1118(4)
O7 O 0.1784(9) 0.2864(5) 0.0846(3)
O8 O 0.0303(9) 0.2849(4) 0.1599(3)
O9 O -0.0269(12) 0.3772(5) 0.0929(4)
N6 N 0.0532(10) 0.0435(5) 0.1010(3)
O10 O 0.1822(8) 0.0237(4) 0.1322(3)
O11 O 0.0187(8) 0.1228(4) 0.0955(3)
O12 O -0.0329(9) -0.0102(5) 0.0765(3)
H1 H 0.7158 0.2367 0.0899
H2 H 0.5798 0.2889 0.0537
H3 H 0.8646 0.2431 0.0116
H4 H 0.7091 0.2706 -0.0278
H5 H 0.7068 0.1378 -0.0606
H6 H 0.8255 0.1059 -0.0091
H7 H 0.4642 0.0181 -0.0562
H8 H 0.3439 0.0304 -0.0036
H9 H 0.7301 0.2244 0.2382
H10 H 0.5877 0.2481 0.2805
H11 H 0.8870 0.3223 0.2858
H12 H 0.7280 0.3636 0.3122
H13 H 0.7601 0.4671 0.2494
H14 H 0.8719 0.4093 0.2109
H15 H 0.4609 0.4195 0.1324
H16 H 0.6387 0.4584 0.1236
H17 H 0.7584 0.0725 0.1717
H18 H 0.6380 0.0008 0.1464
H19 H 0.9100 -0.0368 0.2058
H20 H 0.7548 -0.0990 0.2030
H21 H 0.7577 -0.0804 0.2981
H22 H 0.8536 0.0074 0.2941
H23 H 0.5896 0.5689 0.1850
H24 H 0.4251 0.5631 0.1459
C5B C 0.5412(15) -0.0278(11) 0.0153(5)
C15A C 0.5065(13) 0.0335(6) 0.3252(4)
N3A N 0.3939(9) 0.5195(4) 0.2253(3)
N1B N 0.4202(11) -0.1116(5) -0.0111(4)
H7B H 0.5358 -0.0181 0.0562
H8B H 0.6561 -0.0304 0.0036
C10A C 0.4449(13) -0.0520(6) 0.3483(4)
H23A H 0.4104 0.0689 0.3150
H24A H 0.5749 0.0631 0.3541
C11A C 0.4377(11) 0.5505(5) 0.2780(4)
C14A C 0.2354(11) 0.4726(7) 0.2230(5)
C1B C 0.4674(12) -0.1621(5) -0.0528(4)
C4B C 0.2724(13) -0.1400(8) 0.0195(5)
N2A N 0.3760(9) -0.1090(4) 0.3040(3)
H15A H 0.5391 -0.0805 0.3676
H16A H 0.3613 -0.0416 0.3764
O3A O 0.5683(7) 0.5957(4) 0.2879(3)
C12A C 0.3106(12) 0.5241(7) 0.3187(4)
C13A C 0.2076(12) 0.4578(7) 0.2861(5)
H21A H 0.2423 0.4196 0.2019
H22A H 0.1464 0.5074 0.2059
O1B O 0.5879(9) -0.1458(4) -0.0835(3)
C2B C 0.3543(14) -0.2370(7) -0.0551(5)
C3B C 0.2520(14) -0.2308(8) -0.0016(5)
H5B H 0.2932 -0.1378 0.0606
H6B H 0.1745 -0.1059 0.0091
C6A C 0.4373(12) -0.1865(6) 0.2960(4)
C9A C 0.2297(11) -0.0888(7) 0.2678(5)
Er1A Er 0.7517(1) 0.6758(1) 0.3416(1)
H17A H 0.2416 0.5725 0.3283
H18A H 0.3620 0.5008 0.3536
H19A H 0.0900 0.4632 0.2942
H20A H 0.2452 0.4010 0.2970
Er1B Er 0.7517(1) -0.1758(1) -0.1584(1)
H1B H 0.2842 -0.2367 -0.0899
H2B H 0.4202 -0.2889 -0.0537
H3B H 0.1354 -0.2431 -0.0116
H4B H 0.2909 -0.2706 0.0278
O2A O 0.5597(8) -0.2174(4) 0.3245(3)
C7A C 0.3380(13) -0.2296(6) 0.2477(5)
C8A C 0.2262(15) -0.1578(7) 0.2228(5)
H13A H 0.2399 -0.0329 0.2506
H14A H 0.1281 -0.0907 0.2891
O2B O 0.5597(8) -0.2826(4) -0.1755(3)
O3B O 0.5683(7) -0.0957(4) -0.2121(3)
O4B O 0.7889(8) -0.2238(4) -0.2597(3)
O5B O 0.9479(8) -0.1204(4) -0.2254(3)
O7B O 0.8216(9) -0.2864(5) -0.0846(3)
O8B O 0.9697(9) -0.2849(4) -0.1599(3)
O10B O 0.8178(8) -0.0237(4) -0.1322(3)
O11B O 0.9813(8) -0.1228(4) -0.0955(3)
Er1A_2 Er 0.7517(1) -0.3242(1) 0.3416(1)
H9A H 0.2699 -0.2756 0.2618
H10A H 0.4123 -0.2519 0.2195
H11A H 0.1130 -0.1777 0.2142
H12A H 0.2720 -0.1364 0.1878
N4B N 0.9011(11) -0.1676(5) -0.2679(4)
N5B N 0.9408(12) -0.3172(5) -0.1118(4)
N6B N 0.9468(10) -0.0435(5) -0.1010(3)
O6B O 0.9627(12) -0.1591(6) -0.3150(4)
O9B O 1.0269(12) -0.3772(5) -0.0929(4)
O12B O 1.0329(9) 0.0102(5) -0.0765(3)
C16 C 0.1731(42) 0.4387(22) -0.0278(16)
C17 C 0.2410(37) 0.4992(19) 0.0066(12)
N7 N 0.3440(40) 0.5309(21) 0.0261(13)
C18 C 0.8478(20) 0.7800(12) 0.0691(8)
C19 C 0.6898(23) 0.7791(15) 0.0916(7)
N8 N 0.5621(21) 0.7769(14) 0.1130(8)
C20? C 0.1883(51) 0.5464(38) 0.0474(29)
N9? N 0.3471(47) 0.4444(33) -0.0157(24)
loop_
_geom_bond_atom_site_label_1
_geom_bond_atom_site_label_2
_geom_bond_site_symmetry_1
_geom_bond_site_symmetry_2
Er1 O1 1_555 1_555
N1 C1 1_555 1_555
C1 O1 1_555 1_555
C2 C1 1_555 1_555
C3 C2 1_555 1_555
C4 N1 1_555 1_555
C5 N1 1_555 1_555
N2 C6 1_555 1_555
C6 O2 1_555 1_555
O2 Er1 1_555 1_555
C7 C6 1_555 1_555
C8 C7 1_555 1_555
C9 N2 1_555 1_555
C10 N2 1_555 1_555
N3 C11 1_555 1_555
C11 O3 1_555 1_555
O3 Er1 1_555 1_555
C12 C11 1_555 1_555
C13 C12 1_555 1_555
C14 N3 1_555 1_555
C15 C10 1_555 1_555
N4 O4 1_555 1_555
O4 Er1 1_555 1_555
O5 Er1 1_555 1_555
O6 N4 1_555 1_555
N5 O7 1_555 1_555
O7 Er1 1_555 1_555
O8 Er1 1_555 1_555
O9 N5 1_555 1_555
N6 O10 1_555 1_555
O10 Er1 1_555 1_555
O11 Er1 1_555 1_555
O12 N6 1_555 1_555
H1 C2 1_555 1_555
H2 C2 1_555 1_555
H3 C3 1_555 1_555
H4 C3 1_555 1_555
H5 C4 1_555 1_555
H6 C4 1_555 1_555
H7 C5 1_555 1_555
H8 C5 1_555 1_555
H9 C7 1_555 1_555
H10 C7 1_555 1_555
H11 C8 1_555 1_555
H12 C8 1_555 1_555
H13 C9 1_555 1_555
H14 C9 1_555 1_555
H15 C10 1_555 1_555
H16 C10 1_555 1_555
H17 C12 1_555 1_555
H18 C12 1_555 1_555
H19 C13 1_555 1_555
H20 C13 1_555 1_555
H21 C14 1_555 1_555
H22 C14 1_555 1_555
H23 C15 1_555 1_555
H24 C15 1_555 1_555
C16 C17 1_555 1_555
C17 N7 1_555 1_555
C18 C19 1_555 1_555
C19 N8 1_555 1_555
C5B C5 1_555 1_555
C15A N3 1_555 1_555
N3A C15 1_555 1_555
N1B C5B 1_555 1_555
H7B C5B 1_555 1_555
H8B C5B 1_555 1_555
C10A C15A 1_555 1_555
H23A C15A 1_555 1_555
H24A C15A 1_555 1_555
C11A N3A 1_555 1_555
C14A N3A 1_555 1_555
C1B N1B 1_555 1_555
C4B N1B 1_555 1_555
N2A C10A 1_555 1_555
H15A C10A 1_555 1_555
H16A C10A 1_555 1_555
O3A C11A 1_555 1_555
C12A C11A 1_555 1_555
C13A C14A 1_555 1_555
H21A C14A 1_555 1_555
H22A C14A 1_555 1_555
O1B C1B 1_555 1_555
C2B C1B 1_555 1_555
C3B C4B 1_555 1_555
H5B C4B 1_555 1_555
H6B C4B 1_555 1_555
C6A N2A 1_555 1_555
C9A N2A 1_555 1_555
Er1A O3A 1_555 1_555
H17A C12A 1_555 1_555
H18A C12A 1_555 1_555
H19A C13A 1_555 1_555
H20A C13A 1_555 1_555
Er1B O1B 1_555 1_555
H1B C2B 1_555 1_555
H2B C2B 1_555 1_555
H3B C3B 1_555 1_555
H4B C3B 1_555 1_555
O2A C6A 1_555 1_555
C7A C6A 1_555 1_555
C8A C9A 1_555 1_555
H13A C9A 1_555 1_555
H14A C9A 1_555 1_555
O2B Er1B 1_555 1_555
O3B Er1B 1_555 1_555
O4B Er1B 1_555 1_555
O5B Er1B 1_555 1_555
O7B Er1B 1_555 1_555
O8B Er1B 1_555 1_555
O10B Er1B 1_555 1_555
O11B Er1B 1_555 1_555
Er1A_2 O2A 1_555 1_555
H9A C7A 1_555 1_555
H10A C7A 1_555 1_555
H11A C8A 1_555 1_555
H12A C8A 1_555 1_555
N4B O4B 1_555 1_555
N5B O7B 1_555 1_555
N6B O10B 1_555 1_555
O6B N4B 1_555 1_555
O9B N5B 1_555 1_555
O12B N6B 1_555 1_555
C3 C4 1_555 1_555
C8 C9 1_555 1_555
C13 C14 1_555 1_555
N4 O5 1_555 1_555
N5 O8 1_555 1_555
N6 O11 1_555 1_555
C12A C13A 1_555 1_555
C2B C3B 1_555 1_555
C7A C8A 1_555 1_555
O5B N4B 1_555 1_555
O8B N5B 1_555 1_555
O11B N6B 1_555 1_555

#END
