
#######################################################################
#
#                 Cambridge Crystallographic Data Centre
#                                CCDC 
#
#######################################################################
#
# If this CIF has been generated from an entry in the Cambridge 
# Structural Database, then it will include bibliographic, chemical, 
# crystal, experimental, refinement or atomic coordinate data resulting 
# from the CCDC's data processing and validation procedures.
#
#######################################################################

data_SUKYAA
_symmetry_cell_setting           triclinic
_symmetry_space_group_name_H-M   'P -1'
_symmetry_Int_Tables_number      2
_space_group_name_Hall           '-P 1'
loop_
_symmetry_equiv_pos_site_id
_symmetry_equiv_pos_as_xyz
1 x,y,z
2 -x,-y,-z
_cell_length_a                   11.144
_cell_length_b                   11.599
_cell_length_c                   13.529
_cell_angle_alpha                104.05
_cell_angle_beta                 97.18
_cell_angle_gamma                108.05
_cell_volume                     1574.49
loop_
_atom_site_label
_atom_site_type_symbol
_atom_site_fract_x
_atom_site_fract_y
_atom_site_fract_z
Cd1 Cd 0.17676(9) 0.74890(8) 0.57963(7)
Cd2 Cd -0.32999(9) 0.40072(8) 1.07387(7)
O1 O 0.0531(9) 0.6701(8) 0.6975(7)
O2 O 0.0628(9) 0.8611(8) 0.6910(7)
O3 O -0.2154(9) 0.4730(8) 0.9333(7)
O4 O -0.2811(9) 0.5978(8) 1.0465(7)
O5 O 0.2172(9) 0.5631(7) 0.5468(7)
O6 O 0.3052(9) 0.6722(8) 0.4458(7)
O7 O 0.5395(9) 0.4799(8) 0.1864(7)
O8 O 0.5500(8) 0.2921(8) 0.1834(7)
O9 O 0.3618(9) 0.8525(8) 0.7080(7)
H1 H 0.3949 0.8154 0.7447
H2 H 0.4066 0.9313 0.7291
O10 O -0.0155(8) 0.6610(9) 0.4538(7)
H3 H -0.0694 0.5985 0.4692
H4 H 0.0004 0.6319 0.3928
O11 O -0.1434(9) 0.4759(8) 1.1984(8)
H5 H -0.1155 0.4317 1.2306
H6 H -0.0907 0.5521 1.2210
O12 O -0.5138(9) 0.3169(10) 0.9411(9)
H7 H -0.5816 0.3360 0.9369
H8 H -0.5233 0.2482 0.8951
N1 N -0.2719(10) 1.2253(9) 1.0137(8)
N2 N 0.2287(10) -0.0752(9) 0.5166(9)
C1 C 0.0253(12) 0.7690(12) 0.7248(10)
C2 C -0.2270(12) 0.5778(11) 0.9699(10)
C3 C -0.0615(12) 0.7739(11) 0.8045(9)
C4 C -0.1051(12) 0.6743(11) 0.8458(9)
H9 H -0.0849 0.5998 0.8228
C5 C -0.1796(12) 0.6840(11) 0.9222(9)
C6 C -0.2094(12) 0.7935(11) 0.9524(9)
H10 H -0.2603 0.7999 1.0034
C7 C -0.1682(12) 0.8933(11) 0.9113(9)
C8 C -0.0940(12) 0.8819(12) 0.8363(10)
H11 H -0.0650 0.9489 0.8063
C9 C -0.2044(12) 1.0078(11) 0.9459(9)
C10 C -0.3061(13) 1.0063(12) 0.9941(11)
H12 H -0.3561 0.9296 1.0051
C11 C -0.3371(15) 1.1131(13) 1.0266(13)
H13 H -0.4081 1.1074 1.0597
C12 C -0.1766(14) 1.2281(12) 0.9665(10)
H14 H -0.1296 1.3060 0.9557
C13 C -0.1388(14) 1.1224(12) 0.9305(10)
H15 H -0.0689 1.1301 0.8959
C14 C 0.2831(13) 0.5727(12) 0.4747(10)
C15 C 0.5116(13) 0.3819(12) 0.2204(11)
C16 C 0.3298(13) 0.4717(11) 0.4272(9)
C17 C 0.3960(11) 0.4774(11) 0.3487(9)
H16 H 0.4144 0.5501 0.3247
C18 C 0.4370(11) 0.3788(10) 0.3033(9)
C19 C 0.3977(12) 0.2687(11) 0.3327(10)
H17 H 0.4190 0.1985 0.2979
C20 C 0.3293(11) 0.2563(11) 0.4098(9)
C21 C 0.2926(12) 0.3577(11) 0.4571(10)
H18 H 0.2431 0.3508 0.5090
C22 C 0.2928(13) 0.1409(12) 0.4465(10)
C23 C 0.3606(15) 0.0591(13) 0.4320(12)
H19 H 0.4313 0.0756 0.3983
C24 C 0.3253(14) -0.0477(12) 0.4666(12)
H20 H 0.3721 -0.1038 0.4542
C25 C 0.1603(16) -0.0001(14) 0.5272(14)
H21 H 0.0885 -0.0202 0.5592
C26 C 0.1894(16) 0.1071(14) 0.4933(14)
H22 H 0.1371 0.1582 0.5025
Cd1_2 Cd 0.17676(9) -0.25110(8) 0.57963(7)
Cd2_2 Cd -0.32999(9) 1.40072(8) 1.07387(7)
Cd2_3 Cd 0.67001(9) 0.40072(8) 0.07387(7)
O7_2 O -0.4605(9) 0.4799(8) 1.1864(7)
O8_2 O -0.4500(8) 0.2921(8) 1.1834(7)
N1_2 N -0.2719(10) 0.2253(9) 1.0137(8)
N2_2 N 0.2287(10) 0.9248(9) 0.5166(9)
O13 O 0.1128(12) 0.1285(11) 0.7709(9)
H23 H 0.0982 0.0486 0.7471
H24 H 0.1656 0.1673 0.7394
O14 O 0.4910(12) 0.1130(11) 0.7637(10)
H25 H 0.4481 0.1575 0.7478
H26 H 0.5617 0.1638 0.7580
O15 O 0.9758(10) 0.2805(9) 0.7308(8)
H27 H 0.8992 0.2671 0.7401
H28 H 0.9917 0.2120 0.7202
O16 O 0.7259(10) 0.2846(9) 0.7441(7)
H29 H 0.7188 0.3081 0.6896
H30 H 0.7443 0.3488 0.7973
O17 O 0.3456(18) 0.2668(15) 0.7100(13)
H31 H 0.3812 0.3459 0.7426
H32 H 0.3290 0.2250 0.6458
loop_
_geom_bond_atom_site_label_1
_geom_bond_atom_site_label_2
_geom_bond_site_symmetry_1
_geom_bond_site_symmetry_2
Cd1 O1 1_555 1_555
Cd2 O3 1_555 1_555
O1 C1 1_555 1_555
O2 Cd1 1_555 1_555
O3 C2 1_555 1_555
O4 Cd2 1_555 1_555
O5 Cd1 1_555 1_555
O6 Cd1 1_555 1_555
O7 C15 1_555 1_555
O8 C15 1_555 1_555
O9 Cd1 1_555 1_555
H1 O9 1_555 1_555
H2 O9 1_555 1_555
O10 Cd1 1_555 1_555
H3 O10 1_555 1_555
H4 O10 1_555 1_555
O11 Cd2 1_555 1_555
H5 O11 1_555 1_555
H6 O11 1_555 1_555
O12 Cd2 1_555 1_555
H7 O12 1_555 1_555
H8 O12 1_555 1_555
N1 C11 1_555 1_555
N2 C24 1_555 1_555
C1 O2 1_555 1_555
C2 O4 1_555 1_555
C3 C1 1_555 1_555
C4 C3 1_555 1_555
H9 C4 1_555 1_555
C5 C2 1_555 1_555
C6 C5 1_555 1_555
H10 C6 1_555 1_555
C7 C6 1_555 1_555
C8 C3 1_555 1_555
H11 C8 1_555 1_555
C9 C7 1_555 1_555
C10 C9 1_555 1_555
H12 C10 1_555 1_555
C11 C10 1_555 1_555
H13 C11 1_555 1_555
C12 N1 1_555 1_555
H14 C12 1_555 1_555
C13 C9 1_555 1_555
H15 C13 1_555 1_555
C14 O5 1_555 1_555
C15 C18 1_555 1_555
C16 C14 1_555 1_555
C17 C16 1_555 1_555
H16 C17 1_555 1_555
C18 C17 1_555 1_555
C19 C18 1_555 1_555
H17 C19 1_555 1_555
C20 C19 1_555 1_555
C21 C16 1_555 1_555
H18 C21 1_555 1_555
C22 C20 1_555 1_555
C23 C22 1_555 1_555
H19 C23 1_555 1_555
C24 C23 1_555 1_555
H20 C24 1_555 1_555
C25 N2 1_555 1_555
H21 C25 1_555 1_555
C26 C22 1_555 1_555
H22 C26 1_555 1_555
O13 H23 1_555 1_555
H24 O13 1_555 1_555
O14 H25 1_555 1_555
H26 O14 1_555 1_555
O15 H27 1_555 1_555
H28 O15 1_555 1_555
O16 H29 1_555 1_555
H30 O16 1_555 1_555
O17 H31 1_555 1_555
H32 O17 1_555 1_555
Cd1_2 N2 1_555 1_555
Cd2_2 N1 1_555 1_555
Cd2_3 O7 1_555 1_555
O7_2 Cd2 1_555 1_555
O8_2 Cd2 1_555 1_555
N1_2 Cd2 1_555 1_555
N2_2 Cd1 1_555 1_555
O6 C14 1_555 1_555
O8 Cd2_3 1_555 1_555
C4 C5 1_555 1_555
C7 C8 1_555 1_555
C12 C13 1_555 1_555
C20 C21 1_555 1_555
C25 C26 1_555 1_555

#END
