
#######################################################################
#
#                 Cambridge Crystallographic Data Centre
#                                CCDC 
#
#######################################################################
#
# If this CIF has been generated from an entry in the Cambridge 
# Structural Database, then it will include bibliographic, chemical, 
# crystal, experimental, refinement or atomic coordinate data resulting 
# from the CCDC's data processing and validation procedures.
#
#######################################################################

data_SULFOV
_symmetry_cell_setting           triclinic
_symmetry_space_group_name_H-M   'P -1'
_symmetry_Int_Tables_number      2
_space_group_name_Hall           '-P 1'
loop_
_symmetry_equiv_pos_site_id
_symmetry_equiv_pos_as_xyz
1 x,y,z
2 -x,-y,-z
_cell_length_a                   8.5628(13)
_cell_length_b                   12.8916(19)
_cell_length_c                   13.562(2)
_cell_angle_alpha                82.494(1)
_cell_angle_beta                 78.601(2)
_cell_angle_gamma                84.033(2)
_cell_volume                     1450.27
loop_
_atom_site_label
_atom_site_type_symbol
_atom_site_fract_x
_atom_site_fract_y
_atom_site_fract_z
Na1 Na 0.96774(7) 0.66276(4) 0.44477(4)
Na2 Na 1.56589(7) 0.55114(5) 0.32782(4)
S1 S 1.36069(5) 0.69896(3) 0.49870(3)
S2 S 1.17369(5) 0.49431(3) 0.29864(3)
O1 O 1.44172(12) 0.70927(7) 0.39417(7)
O2 O 1.19375(12) 0.67883(7) 0.51051(7)
O3 O 1.44573(12) 0.61903(7) 0.56090(7)
O4 O 1.51402(13) 0.74135(7) 0.68204(7)
H1 H 1.5125 0.6890 0.6539
O5 O 1.35617(13) 1.09642(7) 0.67535(7)
H2 H 1.3127 1.1451 0.6427
O6 O 1.19712(13) 1.18638(7) 0.53626(7)
O7 O 1.22917(12) 0.90485(7) 0.42643(7)
O8 O 1.11072(12) 0.60225(7) 0.29321(7)
O9 O 1.08153(13) 0.42968(8) 0.38421(7)
O10 O 1.34348(11) 0.48046(8) 0.29854(7)
O11 O 1.29962(11) 0.57197(7) 0.09116(7)
O12 O 1.27174(13) 0.46645(8) -0.17462(7)
O13 O 1.08243(13) 0.32739(8) -0.07171(7)
H3 H 1.1281 0.3622 -0.1221
O14 O 0.97005(13) 0.30965(7) 0.27795(7)
H4 H 0.9874 0.3345 0.3270
O15 O 0.75826(13) 0.56642(7) 0.42795(8)
C1 C 1.36654(17) 0.81797(10) 0.55053(9)
C2 C 1.43729(17) 0.82374(11) 0.63532(10)
C3 C 1.43033(18) 0.91755(11) 0.67522(10)
H5 H 1.4759 0.9197 0.7317
C4 C 1.35781(17) 1.00738(11) 0.63337(10)
C5 C 1.28750(17) 1.00590(10) 0.54834(10)
C6 C 1.29423(16) 0.91080(10) 0.50901(10)
C7 C 1.20953(17) 1.09898(11) 0.50170(11)
C8 C 1.14567(17) 1.08598(11) 0.41399(10)
H6 H 1.0948 1.1436 0.3810
C9 C 1.15819(17) 0.99133(11) 0.37837(11)
C10 C 1.09878(17) 0.96663(11) 0.29123(10)
C11 C 1.01152(19) 1.04228(12) 0.23741(11)
H7 H 0.9915 1.1099 0.2563
C12 C 0.9544(2) 1.01771(12) 0.15619(12)
H8 H 0.8959 1.0687 0.1202
C13 C 0.9837(2) 0.91791(13) 0.12806(12)
H9 H 0.9447 0.9019 0.0730
C14 C 1.0688(2) 0.84231(13) 0.17960(12)
H10 H 1.0874 0.7748 0.1604
C15 C 1.12724(19) 0.86673(12) 0.26058(11)
H11 H 1.1869 0.8154 0.2953
C16 C 1.21527(17) 0.48726(10) 0.09340(10)
C17 C 1.14371(17) 0.44303(10) 0.19002(10)
C18 C 1.05088(18) 0.35964(11) 0.19194(10)
C19 C 1.03290(18) 0.32156(11) 0.10430(11)
H12 H 0.9701 0.2659 0.1086
C20 C 1.10612(18) 0.36469(11) 0.01186(10)
C21 C 1.20006(17) 0.45070(10) 0.00324(10)
C22 C 1.27926(18) 0.49890(11) -0.09204(10)
C23 C 1.36718(18) 0.58751(11) -0.08734(11)
H13 H 1.4207 0.6218 -0.1471
C24 C 1.37350(17) 0.62128(11) 0.00075(10)
C25 C 1.45323(17) 0.71139(11) 0.01632(11)
C26 C 1.5309(2) 0.77407(12) -0.06738(12)
H14 H 1.5317 0.7586 -0.1326
C27 C 1.6059(2) 0.85835(13) -0.05317(14)
H15 H 1.6583 0.8992 -0.1091
C28 C 1.6049(2) 0.88375(13) 0.04314(14)
H16 H 1.6535 0.9422 0.0520
C29 C 1.5300(2) 0.82035(13) 0.12626(14)
H17 H 1.5311 0.8351 0.1914
C30 C 1.45428(19) 0.73597(12) 0.11236(11)
H18 H 1.4030 0.6947 0.1684
H19 H 0.7125(9) 0.5849(3) 0.4847(2)
H20 H 0.7777(12) 0.5005(2) 0.4383(5)
Na1A Na 1.03226(7) 1.33724(4) 0.55523(4)
Na1A_2 Na 1.03226(7) 0.33724(4) 0.55523(4)
Na2A Na 1.43411(7) 0.44886(5) 0.67218(4)
Na2A_2 Na 1.43411(7) 0.44886(5) -0.32782(4)
Na2_2 Na 0.56589(7) 0.55114(5) 0.32782(4)
O3A O 1.55427(12) 0.38097(7) 0.43910(7)
O6A O 0.80288(13) 0.81362(7) 0.46374(7)
O9A O 0.91847(13) 0.57032(8) 0.61579(7)
O12A O 1.72826(13) 0.53355(8) 0.17462(7)
O15_2 O 1.75826(13) 0.56642(7) 0.42795(8)
H19_2 H 1.7125(9) 0.5849(3) 0.4847(2)
H20_2 H 1.7777(12) 0.5005(2) 0.4383(5)
loop_
_geom_bond_atom_site_label_1
_geom_bond_atom_site_label_2
_geom_bond_site_symmetry_1
_geom_bond_site_symmetry_2
Na1 O2 1_555 1_555
Na2 O1 1_555 1_555
S1 O1 1_555 1_555
S2 O8 1_555 1_555
O2 S1 1_555 1_555
O3 S1 1_555 1_555
O4 H1 1_555 1_555
O5 H2 1_555 1_555
O6 C7 1_555 1_555
O7 C6 1_555 1_555
O8 Na1 1_555 1_555
O9 S2 1_555 1_555
O10 Na2 1_555 1_555
O11 C16 1_555 1_555
O12 C22 1_555 1_555
O13 H3 1_555 1_555
O14 H4 1_555 1_555
O15 Na1 1_555 1_555
C1 S1 1_555 1_555
C2 O4 1_555 1_555
C3 C2 1_555 1_555
H5 C3 1_555 1_555
C4 O5 1_555 1_555
C5 C4 1_555 1_555
C6 C1 1_555 1_555
C7 C5 1_555 1_555
C8 C7 1_555 1_555
H6 C8 1_555 1_555
C9 O7 1_555 1_555
C10 C9 1_555 1_555
C11 C10 1_555 1_555
H7 C11 1_555 1_555
C12 C11 1_555 1_555
H8 C12 1_555 1_555
C13 C12 1_555 1_555
H9 C13 1_555 1_555
C14 C13 1_555 1_555
H10 C14 1_555 1_555
C15 C10 1_555 1_555
H11 C15 1_555 1_555
C16 C17 1_555 1_555
C17 S2 1_555 1_555
C18 O14 1_555 1_555
C19 C18 1_555 1_555
H12 C19 1_555 1_555
C20 O13 1_555 1_555
C21 C16 1_555 1_555
C22 C21 1_555 1_555
C23 C22 1_555 1_555
H13 C23 1_555 1_555
C24 O11 1_555 1_555
C25 C24 1_555 1_555
C26 C25 1_555 1_555
H14 C26 1_555 1_555
C27 C26 1_555 1_555
H15 C27 1_555 1_555
C28 C27 1_555 1_555
H16 C28 1_555 1_555
C29 C28 1_555 1_555
H17 C29 1_555 1_555
C30 C25 1_555 1_555
H18 C30 1_555 1_555
H19 O15 1_555 1_555
H20 O15 1_555 1_555
Na1A O6 1_555 1_555
Na1A_2 O9 1_555 1_555
Na2A O3 1_555 1_555
Na2A_2 O12 1_555 1_555
Na2_2 O15 1_555 1_555
O3A Na2 1_555 1_555
O6A Na1 1_555 1_555
O9A Na1 1_555 1_555
O12A Na2 1_555 1_555
O15_2 Na2 1_555 1_555
H19_2 O15_2 1_555 1_555
H20_2 O15_2 1_555 1_555
S2 O10 1_555 1_555
C1 C2 1_555 1_555
C3 C4 1_555 1_555
C5 C6 1_555 1_555
C8 C9 1_555 1_555
C14 C15 1_555 1_555
C17 C18 1_555 1_555
C19 C20 1_555 1_555
C20 C21 1_555 1_555
C23 C24 1_555 1_555
C29 C30 1_555 1_555

#END
