
#######################################################################
#
#                 Cambridge Crystallographic Data Centre
#                                CCDC 
#
#######################################################################
#
# If this CIF has been generated from an entry in the Cambridge 
# Structural Database, then it will include bibliographic, chemical, 
# crystal, experimental, refinement or atomic coordinate data resulting 
# from the CCDC's data processing and validation procedures.
#
#######################################################################

data_SULGIQ
_symmetry_cell_setting           hexagonal
_symmetry_space_group_name_H-M   'P 65 2 2'
_symmetry_Int_Tables_number      179
_space_group_name_Hall           "P 65 2' (0,0,1)"
loop_
_symmetry_equiv_pos_site_id
_symmetry_equiv_pos_as_xyz
1 x,y,z
2 -y,x-y,2/3+z
3 -x+y,-x,1/3+z
4 -x,-y,1/2+z
5 y,-x+y,1/6+z
6 x-y,x,5/6+z
7 y,x,2/3-z
8 x-y,-y,-z
9 -x,-x+y,1/3-z
10 -y,-x,1/6-z
11 -x+y,y,1/2-z
12 x,x-y,5/6-z
_cell_length_a                   11.5572(19)
_cell_length_b                   11.5572(19)
_cell_length_c                   47.911(9)
_cell_angle_alpha                90
_cell_angle_beta                 90
_cell_angle_gamma                120
_cell_volume                     5542.06
loop_
_atom_site_label
_atom_site_type_symbol
_atom_site_fract_x
_atom_site_fract_y
_atom_site_fract_z
Co1 Co 0.52261(9) 0.0000 0.0000
N1 N 0.7124(6) 0.0000 0.0000
N2 N 1.3329(6) 0.0000 0.0000
O5 O 0.4584(4) -0.1264(4) 0.03430(7)
H2 H 0.3771 -0.1540 0.0417
H3 H 0.5119 -0.1542 0.0417
O6 O 0.6060(4) 0.1556(4) 0.02763(7)
H4 H 0.5576 0.1915 0.0340
H5 H 0.6907 0.1880 0.0334
C1 C 0.9513(6) 0.1153(7) 0.00125(15)
H10 H 1.0289 0.1982 0.0020
C2 C 1.0867(7) 0.0000 0.0000
C4 C 1.3286(6) 0.1119(6) -0.00244(13)
H11 H 1.4086 0.1923 -0.0041
C5 C 0.8277(6) 0.1073(6) 0.00135(16)
H12 H 0.8278 0.1877 0.0025
C6 C 1.2058(6) 0.1143(6) -0.00261(13)
H13 H 1.2078 0.1954 -0.0045
C9 C 0.9592(7) 0.0000 0.0000
Co1_2 Co 1.52261(9) 0.0000 0.0000
N2_2 N 0.3329(6) 0.0000 0.0000
O5G O 0.5848(6) 0.1264(4) -0.03430(7)
H2G H 0.5311 0.1540 -0.0417
H3G H 0.6661 0.1542 -0.0417
O6G O 0.4504(6) -0.1556(4) -0.02763(7)
H4G H 0.3661 -0.1915 -0.0340
H5G H 0.5027 -0.1880 -0.0334
C1G C 0.8360(9) -0.1153(7) -0.00125(15)
H10G H 0.8307 -0.1982 -0.0020
C4G C 1.2167(8) -0.1119(6) 0.00244(13)
H11G H 1.2163 -0.1923 0.0041
C5G C 0.7204(8) -0.1073(6) -0.00135(16)
H12G H 0.6401 -0.1877 -0.0025
C6G C 1.0915(8) -0.1143(6) 0.00261(13)
H13G H 1.0124 -0.1954 0.0045
Co2 Co 0.52387(5) 0.47613(5) 0.0833
N3 N 0.7161(5) 0.6685(5) 0.08450(10)
O8 O 0.5273(4) 0.4919(4) 0.04127(7)
H6 H 0.5952 0.5629 0.0328
H7 H 0.4607 0.4281 0.0310
O9 O 0.4186(2) 0.5814(2) 0.0833
H8 H 0.4635 0.6730 0.0837
O10 O 0.6276(2) 0.3724(2) 0.0833
H9 H 0.7175 0.4168 0.0837
C10 C 0.9559(6) 0.9127(6) 0.08340(13)
C11 C 0.8256(7) 0.6785(7) 0.09421(13)
H18 H 0.8212 0.6029 0.1021
C12 C 0.7297(7) 0.7860(7) 0.07459(13)
H19 H 0.6543 0.7834 0.0671
C13 C 0.8450(7) 0.9061(8) 0.07490(13)
H20 H 0.8450 0.9829 0.0691
C14 C 0.9491(7) 0.7955(7) 0.09358(13)
H21 H 1.0257 0.7961 0.0998
Co2I Co 1.52387(5) 1.47613(5) 0.0834
N3I N 1.3315(5) 1.2839(5) 0.08217(10)
N3I_2 N 0.3315(5) 0.2839(5) 0.08217(10)
O8I O 0.5081(4) 0.4727(4) 0.12540(7)
H6I H 0.4371 0.4048 0.1339
H7I H 0.5719 0.5393 0.1357
H8I H 0.3270 0.5365 0.0830
H9I H 0.5832 0.2825 0.0830
C10I C 1.0873(6) 1.0441(6) 0.08327(13)
C11I C 1.3215(7) 1.1744(7) 0.07246(13)
H18I H 1.3971 1.1788 0.0646
C12I C 1.2140(7) 1.2703(7) 0.09208(13)
H19I H 1.2166 1.3457 0.0996
C13I C 1.0939(8) 1.1550(7) 0.09177(13)
H20I H 1.0171 1.1550 0.0976
C14I C 1.2045(7) 1.0509(7) 0.07309(13)
H21I H 1.2039 0.9743 0.0669
P1 P 0.45903(18) -0.26114(17) 0.15554(3)
O1 O 0.5603(6) 0.0407(5) 0.07806(9)
O2 O 0.3685(4) -0.2421(4) 0.17552(7)
O3 O 0.5288(5) 0.1438(4) 0.11423(9)
O4 O 0.5697(4) -0.2732(4) 0.17188(8)
H1 H 0.5402 -0.3087 0.1870
O7 O 0.3854(4) -0.3791(4) 0.13598(7)
C3 C 0.5178(8) 0.0410(7) 0.10192(14)
C7 C 0.4475(6) -0.0908(6) 0.11812(12)
H14 H 0.3818 -0.0898 0.1306
H15 H 0.4008 -0.1640 0.1051
C8 C 0.5431(6) -0.1134(6) 0.13469(11)
H16 H 0.5947 -0.0370 0.1467
H17 H 0.6047 -0.1212 0.1222
H22? H 0.5826 0.2820 0.0830
H23? H 0.3287 0.5382 0.0830
loop_
_geom_bond_atom_site_label_1
_geom_bond_atom_site_label_2
_geom_bond_site_symmetry_1
_geom_bond_site_symmetry_2
Co1 N1 1_555 1_555
Co2 N3 1_555 1_555
P1 O2 1_555 1_555
N1 C5 1_555 1_555
N2 C4 1_555 1_555
N3 C11 1_555 1_555
O1 C3 1_555 1_555
O3 C3 1_555 1_555
O4 P1 1_555 1_555
H1 O4 1_555 1_555
O5 Co1 1_555 1_555
H2 O5 1_555 1_555
H3 O5 1_555 1_555
O6 Co1 1_555 1_555
H4 O6 1_555 1_555
H5 O6 1_555 1_555
O7 P1 1_555 1_555
O8 Co2 1_555 1_555
H6 O8 1_555 1_555
H7 O8 1_555 1_555
O9 Co2 1_555 1_555
H8 O9 1_555 1_555
O10 Co2 1_555 1_555
H9 O10 1_555 1_555
C1 H10 1_555 1_555
C2 C6 1_555 1_555
C3 C7 1_555 1_555
C4 H11 1_555 1_555
C5 C1 1_555 1_555
H12 C5 1_555 1_555
C6 C4 1_555 1_555
H13 C6 1_555 1_555
C7 H14 1_555 1_555
H15 C7 1_555 1_555
C8 P1 1_555 1_555
H16 C8 1_555 1_555
H17 C8 1_555 1_555
C9 C1 1_555 1_555
C10 C13 1_555 1_555
C11 H18 1_555 1_555
C12 N3 1_555 1_555
H19 C12 1_555 1_555
C13 C12 1_555 1_555
H20 C13 1_555 1_555
C14 C10 1_555 1_555
H21 C14 1_555 1_555
Co1_2 N2 1_555 1_555
Co2I N3I 1_555 1_555
N2_2 Co1 1_555 1_555
N3I C11I 1_555 1_555
N3I_2 Co2 1_555 1_555
O5G Co1 1_555 1_555
H2G O5G 1_555 1_555
H3G O5G 1_555 1_555
O6G Co1 1_555 1_555
H4G O6G 1_555 1_555
H5G O6G 1_555 1_555
O8I Co2 1_555 1_555
H6I O8I 1_555 1_555
H7I O8I 1_555 1_555
H8I O9 1_555 1_555
H9I O10 1_555 1_555
C1G C9 1_555 1_555
H10G C1G 1_555 1_555
C4G N2 1_555 1_555
H11G C4G 1_555 1_555
C5G N1 1_555 1_555
H12G C5G 1_555 1_555
C6G C2 1_555 1_555
H13G C6G 1_555 1_555
C10I C10 1_555 1_555
C11I H18I 1_555 1_555
C12I N3I 1_555 1_555
H19I C12I 1_555 1_555
C13I C10I 1_555 1_555
H20I C13I 1_555 1_555
C14I C10I 1_555 1_555
H21I C14I 1_555 1_555
C2 C9 1_555 1_555
C7 C8 1_555 1_555
C11 C14 1_555 1_555
C1G C5G 1_555 1_555
C4G C6G 1_555 1_555
C11I C14I 1_555 1_555
C12I C13I 1_555 1_555

#END
