
#######################################################################
#
#                 Cambridge Crystallographic Data Centre
#                                CCDC 
#
#######################################################################
#
# If this CIF has been generated from an entry in the Cambridge 
# Structural Database, then it will include bibliographic, chemical, 
# crystal, experimental, refinement or atomic coordinate data resulting 
# from the CCDC's data processing and validation procedures.
#
#######################################################################

data_SULHAJ
_symmetry_cell_setting           triclinic
_symmetry_space_group_name_H-M   'P -1'
_symmetry_Int_Tables_number      2
_space_group_name_Hall           '-P 1'
loop_
_symmetry_equiv_pos_site_id
_symmetry_equiv_pos_as_xyz
1 x,y,z
2 -x,-y,-z
_cell_length_a                   6.9423(19)
_cell_length_b                   9.805(3)
_cell_length_c                   12.211(3)
_cell_angle_alpha                106.512(3)
_cell_angle_beta                 92.199(3)
_cell_angle_gamma                99.945(3)
_cell_volume                     781.568
loop_
_atom_site_label
_atom_site_type_symbol
_atom_site_fract_x
_atom_site_fract_y
_atom_site_fract_z
Co1 Co 0.5000 1.0000 1.0000
Co2 Co 0.15745(10) 0.41086(8) 0.22569(6)
S1 S -0.0202(2) 0.29127(15) 0.79037(12)
O1 O 0.2775(6) 0.2550(5) 0.2996(3)
O2 O 0.0478(6) 0.3686(4) 0.3765(3)
O3 O 0.0674(6) 0.2437(4) 0.8801(3)
O4 O -0.2303(5) 0.2334(4) 0.7624(3)
O5 O 0.0895(5) 0.7459(4) 0.8681(3)
O6 O 0.4008(5) 0.7729(4) 0.9363(3)
O7 O 0.4074(7) 1.0027(4) 1.1607(4)
H1 H 0.3119 0.9361 1.1400
H2 H 0.3804 1.0763 1.2047
O8 O 0.2187(6) 1.0299(5) 0.9525(4)
H3 H 0.1727 0.9417 0.9262
H4 H 0.1564 1.0781 0.9240
O9 O 0.3036(6) 0.3749(4) 0.0828(3)
H5 H 0.2246 0.3414 0.0254
H6 H 0.3867 0.3236 0.0829
O10 O 0.3899(6) 0.5717(4) 0.3252(4)
H7 H 0.3742 0.6438 0.3051
H8 H 0.3845 0.5881 0.3955
N1 N 0.0168(6) 0.4587(5) 0.8162(4)
C1 C 0.1648(8) 0.2835(6) 0.3793(5)
C2 C 0.1712(8) 0.2183(6) 0.4753(5)
C3 C 0.2627(8) 0.1021(7) 0.4672(5)
H11 H 0.3206 0.0638 0.4007
C4 C 0.2697(9) 0.0416(7) 0.5568(6)
H12 H 0.3287 -0.0384 0.5494
C5 C 0.1883(9) 0.1007(6) 0.6574(5)
H13 H 0.1951 0.0621 0.7184
C6 C 0.0971(8) 0.2177(6) 0.6659(5)
C7 C 0.0880(8) 0.2761(6) 0.5754(5)
H14 H 0.0258 0.3544 0.5818
C8 C 0.2194(8) 0.5328(6) 0.8563(6)
H15 H 0.3042 0.5028 0.7963
H16 H 0.2627 0.5058 0.9224
C9 C 0.2357(8) 0.6942(6) 0.8886(5)
Co2A Co 0.84255(10) 1.58914(8) 1.77431(6)
Co2A_2 Co -0.15745(10) 0.58914(8) 0.77431(6)
Co2_2 Co 1.15745(10) 1.41086(8) 1.22569(6)
S1A S 1.0202(2) 1.70873(15) 1.20963(12)
O1A O 0.7225(6) 1.7450(5) 1.7004(3)
O2A O 0.9522(6) 1.6314(4) 1.6235(3)
O3A O 0.9326(6) 1.7563(4) 1.1199(3)
O4A O 1.2303(5) 1.7666(4) 1.2376(3)
O5A O 0.9105(5) 1.2541(4) 1.1319(3)
O5A_2 O -0.0895(5) 0.2541(4) 0.1319(3)
O5_2 O 1.0895(5) 1.7459(4) 1.8681(3)
O6A O 0.5992(5) 1.2271(4) 1.0637(3)
O7A O 0.5926(7) 0.9973(4) 0.8393(4)
H1A H 0.6881 1.0639 0.8600
H2A H 0.6196 0.9237 0.7953
O8A O 0.7813(6) 0.9701(5) 1.0475(4)
H3A H 0.8273 1.0583 1.0738
H4A H 0.8436 0.9219 1.0760
O9A O 0.6964(6) 1.6251(4) 1.9172(3)
H5A H 0.7754 1.6586 1.9746
H6A H 0.6133 1.6764 1.9171
O10A O 0.6101(6) 1.4283(4) 1.6748(4)
H7A H 0.6258 1.3562 1.6949
H8A H 0.6155 1.4119 1.6045
N1A N 0.9832(6) 1.5413(5) 1.1838(4)
N1A_2 N -0.0168(6) 0.5413(5) 0.1838(4)
N1_2 N 1.0168(6) 1.4587(5) 1.8162(4)
C1A C 0.8352(8) 1.7165(6) 1.6207(5)
C2A C 0.8288(8) 1.7817(6) 1.5247(5)
C3A C 0.7373(8) 1.8979(7) 1.5328(5)
H11A H 0.6794 1.9362 1.5993
C4A C 0.7303(9) 1.9584(7) 1.4432(6)
H12A H 0.6713 2.0384 1.4506
C5A C 0.8117(9) 1.8993(6) 1.3426(5)
H13A H 0.8049 1.9379 1.2816
C6A C 0.9029(8) 1.7823(6) 1.3341(5)
C7A C 0.9120(8) 1.7239(6) 1.4246(5)
H14A H 0.9742 1.6456 1.4182
C8A C 0.7806(8) 1.4672(6) 1.1437(6)
H15A H 0.6958 1.4972 1.2037
H16A H 0.7373 1.4942 1.0776
C9A C 0.7643(8) 1.3058(6) 1.1114(5)
O11 O 0.6577(7) 0.3501(7) 0.4451(4)
H9 H 0.5603 0.3314 0.3976
H10 H 0.7561 0.3303 0.4121
loop_
_geom_bond_atom_site_label_1
_geom_bond_atom_site_label_2
_geom_bond_site_symmetry_1
_geom_bond_site_symmetry_2
Co1 O6 1_555 1_555
Co2 O1 1_555 1_555
S1 O3 1_555 1_555
O1 C1 1_555 1_555
O2 Co2 1_555 1_555
O4 S1 1_555 1_555
O5 C9 1_555 1_555
O6 C9 1_555 1_555
O7 Co1 1_555 1_555
H1 O7 1_555 1_555
H2 O7 1_555 1_555
O8 Co1 1_555 1_555
H3 O8 1_555 1_555
H4 O8 1_555 1_555
O9 Co2 1_555 1_555
H5 O9 1_555 1_555
H6 O9 1_555 1_555
O10 Co2 1_555 1_555
H7 O10 1_555 1_555
H8 O10 1_555 1_555
O11 H9 1_555 1_555
H10 O11 1_555 1_555
N1 S1 1_555 1_555
C1 O2 1_555 1_555
C2 C1 1_555 1_555
C3 C2 1_555 1_555
H11 C3 1_555 1_555
C4 C3 1_555 1_555
H12 C4 1_555 1_555
C5 C4 1_555 1_555
H13 C5 1_555 1_555
C6 S1 1_555 1_555
C7 C2 1_555 1_555
H14 C7 1_555 1_555
C8 N1 1_555 1_555
H15 C8 1_555 1_555
H16 C8 1_555 1_555
C9 C8 1_555 1_555
Co2A O1A 1_555 1_555
Co2A_2 O5 1_555 1_555
Co2_2 O5A 1_555 1_555
S1A O3A 1_555 1_555
O1A C1A 1_555 1_555
O2A Co2A 1_555 1_555
O4A S1A 1_555 1_555
O5A C9A 1_555 1_555
O5A_2 Co2 1_555 1_555
O5_2 Co2A 1_555 1_555
O6A Co1 1_555 1_555
O7A Co1 1_555 1_555
H1A O7A 1_555 1_555
H2A O7A 1_555 1_555
O8A Co1 1_555 1_555
H3A O8A 1_555 1_555
H4A O8A 1_555 1_555
O9A Co2A 1_555 1_555
H5A O9A 1_555 1_555
H6A O9A 1_555 1_555
O10A Co2A 1_555 1_555
H7A O10A 1_555 1_555
H8A O10A 1_555 1_555
N1A Co2_2 1_555 1_555
N1A_2 Co2 1_555 1_555
N1_2 Co2A 1_555 1_555
C1A O2A 1_555 1_555
C2A C1A 1_555 1_555
C3A C2A 1_555 1_555
H11A C3A 1_555 1_555
C4A C3A 1_555 1_555
H12A C4A 1_555 1_555
C5A C4A 1_555 1_555
H13A C5A 1_555 1_555
C6A S1A 1_555 1_555
C7A C2A 1_555 1_555
H14A C7A 1_555 1_555
C8A N1A 1_555 1_555
H15A C8A 1_555 1_555
H16A C8A 1_555 1_555
C9A O6A 1_555 1_555
N1 Co2A_2 1_555 1_555
C5 C6 1_555 1_555
C6 C7 1_555 1_555
S1A N1A 1_555 1_555
C5A C6A 1_555 1_555
C6A C7A 1_555 1_555
C8A C9A 1_555 1_555

#END
