
#######################################################################
#
#                 Cambridge Crystallographic Data Centre
#                                CCDC 
#
#######################################################################
#
# If this CIF has been generated from an entry in the Cambridge 
# Structural Database, then it will include bibliographic, chemical, 
# crystal, experimental, refinement or atomic coordinate data resulting 
# from the CCDC's data processing and validation procedures.
#
#######################################################################

data_SUMKER
_symmetry_cell_setting           triclinic
_symmetry_space_group_name_H-M   'P -1'
_symmetry_Int_Tables_number      2
_space_group_name_Hall           '-P 1'
loop_
_symmetry_equiv_pos_site_id
_symmetry_equiv_pos_as_xyz
1 x,y,z
2 -x,-y,-z
_cell_length_a                   9.8348(9)
_cell_length_b                   11.7287(11)
_cell_length_c                   12.2839(12)
_cell_angle_alpha                97.935(1)
_cell_angle_beta                 111.943(1)
_cell_angle_gamma                102.394(1)
_cell_volume                     1245.85
loop_
_atom_site_label
_atom_site_type_symbol
_atom_site_fract_x
_atom_site_fract_y
_atom_site_fract_z
Mn1 Mn 0.0000 1.0000 1.0000
Mn2 Mn 0.15363(5) 1.22433(4) 1.26393(4)
N1 N 0.2665(3) 1.3376(2) 1.4531(2)
N2 N 0.2196(3) 1.4161(2) 1.2513(2)
O1 O 0.0330(3) 0.93370(19) 1.15705(19)
O2 O -0.1373(3) 1.1050(2) 1.0352(2)
O3 O -0.0858(2) 1.22677(18) 1.2091(2)
O4 O 0.1229(3) 1.07061(19) 1.3308(2)
O5 O -0.8024(2) 1.16372(17) 1.10674(19)
O6 O -0.5878(2) 1.2104(2) 1.2695(2)
O7 O -0.1389(4) 0.5008(2) 1.1436(2)
O8 O -0.0683(3) 0.44640(19) 1.3176(2)
H1 H -0.0753 0.3824 1.2763
C1 C 0.0706(3) 0.9642(3) 1.2680(3)
C2 C 0.0540(3) 0.8653(3) 1.3324(3)
C3 C 0.1023(4) 0.8908(3) 1.4571(3)
H6 H 0.1410 0.9703 1.5015
C4 C 0.0932(4) 0.7987(3) 1.5154(3)
H7 H 0.1260 0.8167 1.5989
C5 C 0.0359(4) 0.6807(3) 1.4510(3)
H8 H 0.0327 0.6190 1.4909
C6 C -0.0170(3) 0.6540(3) 1.3259(3)
C7 C -0.0084(3) 0.7460(3) 1.2666(3)
H9 H -0.0443 0.7279 1.1828
C8 C -0.0817(4) 0.5277(3) 1.2516(3)
C9 C -0.6565(3) 1.1828(2) 1.1579(3)
C10 C -0.5722(3) 1.1731(2) 1.0792(3)
C11 C -0.6508(3) 1.1517(3) 0.9547(3)
H10 H -0.7537 1.1489 0.9212
C12 C -0.5770(4) 1.1347(3) 0.8801(3)
H11 H -0.6298 1.1213 0.7968
C13 C -0.4242(3) 1.1378(3) 0.9300(3)
H12 H -0.3760 1.1222 0.8797
C14 C -0.3424(3) 1.1639(2) 1.0544(3)
C15 C -0.4170(3) 1.1821(2) 1.1290(3)
H13 H -0.3626 1.2004 1.2125
C16 C -0.1776(3) 1.1652(2) 1.1029(3)
C17 C 0.1975(4) 1.4506(3) 1.1486(3)
H14 H 0.1566 1.3915 1.0769
C18 C 0.2326(5) 1.5704(4) 1.1436(4)
H15 H 0.2158 1.5913 1.0703
C19 C 0.2920(5) 1.6561(3) 1.2487(4)
H16 H 0.3156 1.7370 1.2479
C20 C 0.3173(4) 1.6232(3) 1.3564(4)
H17 H 0.3592 1.6816 1.4288
C21 C 0.2795(3) 1.5019(3) 1.3558(3)
C22 C 0.3030(3) 1.4579(3) 1.4676(3)
C23 C 0.3627(4) 1.5357(3) 1.5813(3)
H18 H 0.3868 1.6184 1.5896
C24 C 0.3859(4) 1.4894(3) 1.6815(3)
H19 H 0.4254 1.5404 1.7580
C25 C 0.3500(4) 1.3665(3) 1.6673(3)
H20 H 0.3654 1.3331 1.7338
C26 C 0.2904(4) 1.2939(3) 1.5516(3)
H21 H 0.2659 1.2110 1.5418
Mn1_2 Mn -1.0000 1.0000 1.0000
Mn1_3 Mn 1.0000 1.0000 1.0000
Mn2_2 Mn 1.15363(5) 1.22433(4) 1.26393(4)
Mn2_3 Mn -0.84637(5) 1.22433(4) 1.26393(4)
Mn2A Mn -0.15363(5) 0.77567(4) 0.73607(4)
N1_2 N 1.2665(3) 1.3376(2) 1.4531(2)
N2_2 N 1.2196(3) 1.4161(2) 1.2513(2)
O1A O -0.0330(3) 1.06630(19) 0.84295(19)
O2_2 O 0.8627(3) 1.1050(2) 1.0352(2)
O2A O 0.1373(3) 0.8950(2) 0.9648(2)
O3_2 O 0.9142(2) 1.22677(18) 1.2091(2)
O4A O -0.1229(3) 0.92939(19) 0.6692(2)
O4_2 O 1.1229(3) 1.07061(19) 1.3308(2)
O5_2 O 0.1976(2) 1.16372(17) 1.10674(19)
O5A O -0.1976(2) 0.83628(17) 0.89326(19)
O5_3 O 1.1976(2) 1.16372(17) 1.10674(19)
O6_2 O 0.4122(2) 1.2104(2) 1.2695(2)
O6_3 O 1.4122(2) 1.2104(2) 1.2695(2)
O7A O 0.1389(4) 1.4992(2) 0.8564(2)
O8A O 0.0683(3) 1.55360(19) 0.6824(2)
H1A H 0.0753 1.6176 0.7237
C1A C -0.0706(3) 1.0358(3) 0.7320(3)
C2A C -0.0540(3) 1.1347(3) 0.6676(3)
C3A C -0.1023(4) 1.1092(3) 0.5429(3)
H6A H -0.1410 1.0297 0.4985
C4A C -0.0932(4) 1.2013(3) 0.4846(3)
H7A H -0.1260 1.1833 0.4011
C5A C -0.0359(4) 1.3193(3) 0.5490(3)
H8A H -0.0327 1.3810 0.5091
C6A C 0.0170(3) 1.3460(3) 0.6741(3)
C7A C 0.0084(3) 1.2540(3) 0.7334(3)
H9A H 0.0443 1.2721 0.8172
C8A C 0.0817(4) 1.4723(3) 0.7484(3)
C9_2 C 0.3435(3) 1.1828(2) 1.1579(3)
C10_2 C 0.4278(3) 1.1731(2) 1.0792(3)
C11_2 C 0.3492(3) 1.1517(3) 0.9547(3)
H10_2 H 0.2463 1.1489 0.9212
C12_2 C 0.4230(4) 1.1347(3) 0.8801(3)
H11_2 H 0.3702 1.1213 0.7968
C13_2 C 0.5758(3) 1.1378(3) 0.9300(3)
H12_2 H 0.6240 1.1222 0.8797
C14_2 C 0.6576(3) 1.1639(2) 1.0544(3)
C15_2 C 0.5830(3) 1.1821(2) 1.1290(3)
H13_2 H 0.6374 1.2004 1.2125
C16_2 C 0.8224(3) 1.1652(2) 1.1029(3)
C17_2 C 1.1975(4) 1.4506(3) 1.1486(3)
H14_2 H 1.1566 1.3915 1.0769
C18_2 C 1.2326(5) 1.5704(4) 1.1436(4)
H15_2 H 1.2158 1.5913 1.0703
C19_2 C 1.2920(5) 1.6561(3) 1.2487(4)
H16_2 H 1.3156 1.7370 1.2479
C20_2 C 1.3173(4) 1.6232(3) 1.3564(4)
H17_2 H 1.3592 1.6816 1.4288
C21_2 C 1.2795(3) 1.5019(3) 1.3558(3)
C22_2 C 1.3030(3) 1.4579(3) 1.4676(3)
C23_2 C 1.3627(4) 1.5357(3) 1.5813(3)
H18_2 H 1.3868 1.6184 1.5896
C24_2 C 1.3859(4) 1.4894(3) 1.6815(3)
H19_2 H 1.4254 1.5404 1.7580
C25_2 C 1.3500(4) 1.3665(3) 1.6673(3)
H20_2 H 1.3654 1.3331 1.7338
C26_2 C 1.2904(4) 1.2939(3) 1.5516(3)
H21_2 H 1.2659 1.2110 1.5418
O9 O 0.5219(7) 1.0058(7) 0.6075(8)
H2 H 0.4260 0.9746 0.5667
H3 H 0.5815 0.9615 0.6184
O10 O 0.5000 0.5000 1.0000
H4 H 0.4231 0.4378 0.9720
H4A H 0.5769 0.5622 1.0280
H5? H 0.5400 0.5252 0.9541
loop_
_geom_bond_atom_site_label_1
_geom_bond_atom_site_label_2
_geom_bond_site_symmetry_1
_geom_bond_site_symmetry_2
Mn1 O1 1_555 1_555
Mn2 N1 1_555 1_555
N1 C22 1_555 1_555
N2 Mn2 1_555 1_555
O1 C1 1_555 1_555
O2 Mn1 1_555 1_555
O3 Mn2 1_555 1_555
O4 Mn2 1_555 1_555
O5 C9 1_555 1_555
O6 C9 1_555 1_555
O7 C8 1_555 1_555
O8 H1 1_555 1_555
O9 H2 1_555 1_555
H3 O9 1_555 1_555
O10 H4 1_555 1_555
C1 O4 1_555 1_555
C2 C1 1_555 1_555
C3 C2 1_555 1_555
H6 C3 1_555 1_555
C4 C3 1_555 1_555
H7 C4 1_555 1_555
C5 C4 1_555 1_555
H8 C5 1_555 1_555
C6 C5 1_555 1_555
C7 C2 1_555 1_555
H9 C7 1_555 1_555
C8 O8 1_555 1_555
C9 C10 1_555 1_555
C10 C11 1_555 1_555
C11 H10 1_555 1_555
C12 C11 1_555 1_555
H11 C12 1_555 1_555
C13 C12 1_555 1_555
H12 C13 1_555 1_555
C14 C13 1_555 1_555
C15 C10 1_555 1_555
H13 C15 1_555 1_555
C16 O2 1_555 1_555
C17 N2 1_555 1_555
H14 C17 1_555 1_555
C18 C17 1_555 1_555
H15 C18 1_555 1_555
C19 C18 1_555 1_555
H16 C19 1_555 1_555
C20 C19 1_555 1_555
H17 C20 1_555 1_555
C21 N2 1_555 1_555
C22 C21 1_555 1_555
C23 C22 1_555 1_555
H18 C23 1_555 1_555
C24 C23 1_555 1_555
H19 C24 1_555 1_555
C25 C24 1_555 1_555
H20 C25 1_555 1_555
C26 N1 1_555 1_555
H21 C26 1_555 1_555
Mn1_2 O5 1_555 1_555
Mn1_3 O2_2 1_555 1_555
Mn2_2 N1_2 1_555 1_555
Mn2_3 O5 1_555 1_555
Mn2A O4A 1_555 1_555
N1_2 C22_2 1_555 1_555
N2_2 Mn2_2 1_555 1_555
O1A Mn1 1_555 1_555
O2_2 C16_2 1_555 1_555
O2A Mn1 1_555 1_555
O3_2 Mn2_2 1_555 1_555
O4A C1A 1_555 1_555
O4_2 Mn2_2 1_555 1_555
O5_2 Mn1 1_555 1_555
O5A Mn1 1_555 1_555
O5_3 Mn1_3 1_555 1_555
O6_2 Mn2 1_555 1_555
O6_3 Mn2_2 1_555 1_555
O7A C8A 1_555 1_555
O8A H1A 1_555 1_555
H4A O10 1_555 1_555
C1A O1A 1_555 1_555
C2A C1A 1_555 1_555
C3A C2A 1_555 1_555
H6A C3A 1_555 1_555
C4A C3A 1_555 1_555
H7A C4A 1_555 1_555
C5A C4A 1_555 1_555
H8A C5A 1_555 1_555
C6A C5A 1_555 1_555
C7A C2A 1_555 1_555
H9A C7A 1_555 1_555
C8A O8A 1_555 1_555
C9_2 O5_2 1_555 1_555
C10_2 C9_2 1_555 1_555
C11_2 C10_2 1_555 1_555
H10_2 C11_2 1_555 1_555
C12_2 C11_2 1_555 1_555
H11_2 C12_2 1_555 1_555
C13_2 C12_2 1_555 1_555
H12_2 C13_2 1_555 1_555
C14_2 C13_2 1_555 1_555
C15_2 C10_2 1_555 1_555
H13_2 C15_2 1_555 1_555
C16_2 O3_2 1_555 1_555
C17_2 N2_2 1_555 1_555
H14_2 C17_2 1_555 1_555
C18_2 C17_2 1_555 1_555
H15_2 C18_2 1_555 1_555
C19_2 C18_2 1_555 1_555
H16_2 C19_2 1_555 1_555
C20_2 C19_2 1_555 1_555
H17_2 C20_2 1_555 1_555
C21_2 N2_2 1_555 1_555
C22_2 C21_2 1_555 1_555
C23_2 C22_2 1_555 1_555
H18_2 C23_2 1_555 1_555
C24_2 C23_2 1_555 1_555
H19_2 C24_2 1_555 1_555
C25_2 C24_2 1_555 1_555
H20_2 C25_2 1_555 1_555
C26_2 N1_2 1_555 1_555
H21_2 C26_2 1_555 1_555
Mn2 O5_2 1_555 1_555
O3 C16 1_555 1_555
O6 Mn2_3 1_555 1_555
C6 C7 1_555 1_555
C6 C8 1_555 1_555
C14 C15 1_555 1_555
C14 C16 1_555 1_555
C20 C21 1_555 1_555
C25 C26 1_555 1_555
Mn2_2 O5_3 1_555 1_555
Mn2A O5A 1_555 1_555
O6_2 C9_2 1_555 1_555
C6A C7A 1_555 1_555
C6A C8A 1_555 1_555
C14_2 C15_2 1_555 1_555
C14_2 C16_2 1_555 1_555
C20_2 C21_2 1_555 1_555
C25_2 C26_2 1_555 1_555

#END
