
#######################################################################
#
#                 Cambridge Crystallographic Data Centre
#                                CCDC 
#
#######################################################################
#
# If this CIF has been generated from an entry in the Cambridge 
# Structural Database, then it will include bibliographic, chemical, 
# crystal, experimental, refinement or atomic coordinate data resulting 
# from the CCDC's data processing and validation procedures.
#
#######################################################################

data_SUMLIW
_symmetry_cell_setting           triclinic
_symmetry_space_group_name_H-M   'P -1'
_symmetry_Int_Tables_number      2
_space_group_name_Hall           '-P 1'
loop_
_symmetry_equiv_pos_site_id
_symmetry_equiv_pos_as_xyz
1 x,y,z
2 -x,-y,-z
_cell_length_a                   10.1354(10)
_cell_length_b                   11.0484(11)
_cell_length_c                   12.1005(12)
_cell_angle_alpha                76.812(1)
_cell_angle_beta                 74.814(1)
_cell_angle_gamma                86.030(1)
_cell_volume                     1273.14
loop_
_atom_site_label
_atom_site_type_symbol
_atom_site_fract_x
_atom_site_fract_y
_atom_site_fract_z
Pb1 Pb -0.056340(18) 0.816640(16) 0.140547(15)
C1 C 0.0140(5) 0.5001(5) 0.2504(4)
H1 H -0.0349 0.4918 0.1974
C2 C 0.0684(6) 0.3932(5) 0.3092(5)
H2 H 0.0565 0.3160 0.2949
C3 C 0.1391(5) 0.4031(4) 0.3877(4)
H3 H 0.1752 0.3324 0.4284
C4 C 0.1573(5) 0.5206(4) 0.4073(4)
C5 C 0.2286(5) 0.5457(4) 0.4865(4)
C6 C 0.3463(5) 0.5405(5) 0.6176(4)
C7 C 0.4281(5) 0.4960(5) 0.7011(4)
C8 C 0.4785(5) 0.3740(5) 0.7240(4)
H4 H 0.4560 0.3161 0.6871
C9 C 0.5609(5) 0.3384(5) 0.8005(4)
H5 H 0.5937 0.2571 0.8144
C10 C 0.5947(5) 0.4229(5) 0.8561(4)
C11 C 0.5458(6) 0.5452(5) 0.8355(5)
H6 H 0.5689 0.6027 0.8725
C12 C 0.4629(6) 0.5793(5) 0.7595(5)
H7 H 0.4291 0.6603 0.7467
C13 C 0.2407(5) 0.6626(4) 0.5031(4)
C14 C 0.1841(5) 0.7687(4) 0.4383(4)
C15 C 0.1970(6) 0.8907(5) 0.4508(5)
H8 H 0.2436 0.9054 0.5032
C16 C 0.1403(6) 0.9867(5) 0.3851(5)
H9 H 0.1487 1.0683 0.3907
C17 C 0.0700(6) 0.9602(5) 0.3100(4)
H10 H 0.0299 1.0261 0.2669
C18 C 0.1128(5) 0.7503(4) 0.3596(4)
C19 C 0.0981(5) 0.6253(4) 0.3440(4)
C20 C 0.2185(5) 0.9326(5) 0.0342(4)
C21 C 0.3650(5) 0.9704(5) 0.0119(4)
C22 C 0.4725(5) 0.9015(5) -0.0420(5)
H11 H 0.4542 0.8345 -0.0701
C23 C 0.3940(5) 1.0683(5) 0.0543(5)
H12 H 0.3230 1.1145 0.0915
C24 C -0.2854(5) 0.8992(4) 0.3321(4)
C25 C -0.3993(5) 0.9499(4) 0.4195(4)
C26 C -0.4605(5) 1.0644(4) 0.3854(4)
H13 H -0.4341 1.1078 0.3077
C27 C -0.4404(5) 0.8860(4) 0.5349(4)
H14 H -0.4010 0.8091 0.5588
N1 N 0.0561(4) 0.8471(3) 0.2953(3)
N2 N 0.0281(4) 0.6130(4) 0.2659(3)
N3 N 0.3130(4) 0.6601(4) 0.5855(3)
N4 N 0.2971(4) 0.4674(4) 0.5598(3)
H15 H 0.3070 0.3882 0.5678
O1 O 0.6771(4) 0.3963(4) 0.9307(3)
H16 H 0.7025 0.3235 0.9367
O2 O 0.1967(4) 0.8187(3) 0.0435(3)
O3 O 0.1242(3) 1.0103(3) 0.0491(3)
O4 O -0.2253(4) 0.9740(3) 0.2402(3)
O5 O -0.2533(4) 0.7861(3) 0.3564(3)
Pb1A Pb 1.056340(18) 1.183360(16) -0.140547(15)
Pb1A_2 Pb -0.943660(18) 1.183360(16) 0.859453(15)
C1A C 0.9860(5) 1.4999(5) -0.2504(4)
H1A H 1.0349 1.5082 -0.1974
C2A C 0.9316(6) 1.6068(5) -0.3092(5)
H2A H 0.9435 1.6840 -0.2949
C3A C 0.8609(5) 1.5969(4) -0.3877(4)
H3A H 0.8248 1.6676 -0.4284
C4A C 0.8427(5) 1.4794(4) -0.4073(4)
C5A C 0.7714(5) 1.4543(4) -0.4865(4)
C6A C 0.6537(5) 1.4595(5) -0.6176(4)
C7A C 0.5719(5) 1.5040(5) -0.7011(4)
C8A C 0.5215(5) 1.6260(5) -0.7240(4)
H4A H 0.5440 1.6839 -0.6871
C9A C 0.4391(5) 1.6616(5) -0.8005(4)
H5A H 0.4063 1.7429 -0.8144
C10A C 0.4053(5) 1.5771(5) -0.8561(4)
C11A C 0.4542(6) 1.4548(5) -0.8355(5)
H6A H 0.4311 1.3973 -0.8725
C12A C 0.5371(6) 1.4207(5) -0.7595(5)
H7A H 0.5709 1.3397 -0.7467
C13A C 0.7593(5) 1.3374(4) -0.5031(4)
C14A C 0.8159(5) 1.2313(4) -0.4383(4)
C15A C 0.8030(6) 1.1093(5) -0.4508(5)
H8A H 0.7564 1.0946 -0.5032
C16A C 0.8597(6) 1.0133(5) -0.3851(5)
H9A H 0.8513 0.9317 -0.3907
C17A C 0.9300(6) 1.0398(5) -0.3100(4)
H10A H 0.9701 0.9739 -0.2669
C18A C 0.8872(5) 1.2497(4) -0.3596(4)
C19A C 0.9019(5) 1.3747(4) -0.3440(4)
C20A C 0.7815(5) 1.0674(5) -0.0342(4)
C21A C 0.6350(5) 1.0296(5) -0.0119(4)
C22A C 0.5275(5) 1.0985(5) 0.0420(5)
H11A H 0.5458 1.1655 0.0701
C23A C 0.6060(5) 0.9317(5) -0.0543(5)
H12A H 0.6770 0.8855 -0.0915
C24A C -0.7146(5) 1.1008(4) 0.6679(4)
C25A C -0.6007(5) 1.0501(4) 0.5805(4)
C26A C -0.5395(5) 0.9356(4) 0.6146(4)
H13A H -0.5659 0.8922 0.6923
C27A C -0.5596(5) 1.1140(4) 0.4651(4)
H14A H -0.5990 1.1909 0.4412
N1A N 0.9439(4) 1.1529(3) -0.2953(3)
N2A N 0.9719(4) 1.3870(4) -0.2659(3)
N3A N 0.6870(4) 1.3399(4) -0.5855(3)
N4A N 0.7029(4) 1.5326(4) -0.5598(3)
H15A H 0.6930 1.6118 -0.5678
O1A O 0.3229(4) 1.6037(4) -0.9307(3)
H16A H 0.2975 1.6765 -0.9367
O2A O 0.8033(4) 1.1813(3) -0.0435(3)
O3A O 0.8758(3) 0.9897(3) -0.0491(3)
O4A O -0.7747(4) 1.0260(3) 0.7598(3)
O4A_2 O 1.2253(4) 1.0260(3) -0.2402(3)
O5A O -0.7467(4) 1.2139(3) 0.6436(3)
O6 O -0.1462(4) 1.2176(4) -0.7694(4)
H17 H -0.2236 1.2512 -0.7723
H18 H -0.1622 1.1544 -0.7927
O7 O 0.0066(10) 0.6538(8) -0.0145(7)
H19 H 0.0787 0.6099 -0.0292
H20 H -0.0740 0.6749 -0.0202
O8 O 0.229(2) 1.3919(18) -1.0078(17)
H21 H 0.3052 1.3684 -1.0460
H22 H 0.2415 1.4523 -0.9793
loop_
_geom_bond_atom_site_label_1
_geom_bond_atom_site_label_2
_geom_bond_site_symmetry_1
_geom_bond_site_symmetry_2
Pb1 N1 1_555 1_555
C1 H1 1_555 1_555
C2 C1 1_555 1_555
H2 C2 1_555 1_555
C3 C2 1_555 1_555
H3 C3 1_555 1_555
C4 C3 1_555 1_555
C5 C4 1_555 1_555
C6 C7 1_555 1_555
C7 C8 1_555 1_555
C8 H4 1_555 1_555
C9 C8 1_555 1_555
H5 C9 1_555 1_555
C10 C9 1_555 1_555
C11 C10 1_555 1_555
H6 C11 1_555 1_555
C12 C7 1_555 1_555
H7 C12 1_555 1_555
C13 C5 1_555 1_555
C14 C13 1_555 1_555
C15 C14 1_555 1_555
H8 C15 1_555 1_555
C16 C15 1_555 1_555
H9 C16 1_555 1_555
C17 C16 1_555 1_555
H10 C17 1_555 1_555
C18 C14 1_555 1_555
C19 C4 1_555 1_555
C20 C21 1_555 1_555
C21 C22 1_555 1_555
C22 H11 1_555 1_555
C23 C21 1_555 1_555
H12 C23 1_555 1_555
C24 C25 1_555 1_555
C25 C26 1_555 1_555
C26 H13 1_555 1_555
C27 C25 1_555 1_555
H14 C27 1_555 1_555
N1 C17 1_555 1_555
N2 Pb1 1_555 1_555
N3 C6 1_555 1_555
N4 C5 1_555 1_555
H15 N4 1_555 1_555
O1 C10 1_555 1_555
H16 O1 1_555 1_555
O2 Pb1 1_555 1_555
O3 Pb1 1_555 1_555
O4 Pb1 1_555 1_555
O5 C24 1_555 1_555
O6 H17 1_555 1_555
H18 O6 1_555 1_555
O7 H19 1_555 1_555
H20 O7 1_555 1_555
O8 H21 1_555 1_555
H22 O8 1_555 1_555
Pb1A N1A 1_555 1_555
Pb1A_2 O4A 1_555 1_555
C1A H1A 1_555 1_555
C2A C1A 1_555 1_555
H2A C2A 1_555 1_555
C3A C2A 1_555 1_555
H3A C3A 1_555 1_555
C4A C3A 1_555 1_555
C5A C4A 1_555 1_555
C6A C7A 1_555 1_555
C7A C8A 1_555 1_555
C8A H4A 1_555 1_555
C9A C8A 1_555 1_555
H5A C9A 1_555 1_555
C10A C9A 1_555 1_555
C11A C10A 1_555 1_555
H6A C11A 1_555 1_555
C12A C7A 1_555 1_555
H7A C12A 1_555 1_555
C13A C5A 1_555 1_555
C14A C13A 1_555 1_555
C15A C14A 1_555 1_555
H8A C15A 1_555 1_555
C16A C15A 1_555 1_555
H9A C16A 1_555 1_555
C17A C16A 1_555 1_555
H10A C17A 1_555 1_555
C18A C14A 1_555 1_555
C19A C4A 1_555 1_555
C20A C21A 1_555 1_555
C21A C22A 1_555 1_555
C22A C23 1_555 1_555
H11A C22A 1_555 1_555
C23A C22 1_555 1_555
H12A C23A 1_555 1_555
C24A C25A 1_555 1_555
C25A C26A 1_555 1_555
C26A C27 1_555 1_555
H13A C26A 1_555 1_555
C27A C26 1_555 1_555
H14A C27A 1_555 1_555
N1A C17A 1_555 1_555
N2A Pb1A 1_555 1_555
N3A C6A 1_555 1_555
N4A C5A 1_555 1_555
H15A N4A 1_555 1_555
O1A C10A 1_555 1_555
H16A O1A 1_555 1_555
O2A Pb1A 1_555 1_555
O3A Pb1A 1_555 1_555
O4A C24A 1_555 1_555
O4A_2 Pb1A 1_555 1_555
O5A C24A 1_555 1_555
C1 N2 1_555 1_555
C6 N4 1_555 1_555
C11 C12 1_555 1_555
C13 N3 1_555 1_555
C18 C19 1_555 1_555
C18 N1 1_555 1_555
C19 N2 1_555 1_555
C20 O2 1_555 1_555
C20 O3 1_555 1_555
C24 O4 1_555 1_555
C1A N2A 1_555 1_555
C6A N4A 1_555 1_555
C11A C12A 1_555 1_555
C13A N3A 1_555 1_555
C18A C19A 1_555 1_555
C18A N1A 1_555 1_555
C19A N2A 1_555 1_555
C20A O2A 1_555 1_555
C20A O3A 1_555 1_555
C21A C23A 1_555 1_555
C25A C27A 1_555 1_555

#END
