
#######################################################################
#
#                 Cambridge Crystallographic Data Centre
#                                CCDC 
#
#######################################################################
#
# If this CIF has been generated from an entry in the Cambridge 
# Structural Database, then it will include bibliographic, chemical, 
# crystal, experimental, refinement or atomic coordinate data resulting 
# from the CCDC's data processing and validation procedures.
#
#######################################################################

data_SUMLUI
_symmetry_cell_setting           monoclinic
_symmetry_space_group_name_H-M   'P 21/c'
_symmetry_Int_Tables_number      14
_space_group_name_Hall           '-P 2ybc'
loop_
_symmetry_equiv_pos_site_id
_symmetry_equiv_pos_as_xyz
1 x,y,z
2 -x,1/2+y,1/2-z
3 -x,-y,-z
4 x,1/2-y,1/2+z
_cell_length_a                   14.6072(12)
_cell_length_b                   8.9741(11)
_cell_length_c                   28.9694(14)
_cell_angle_alpha                90
_cell_angle_beta                 107.629(4)
_cell_angle_gamma                90
_cell_volume                     3619.16
loop_
_atom_site_label
_atom_site_type_symbol
_atom_site_fract_x
_atom_site_fract_y
_atom_site_fract_z
C1 C -0.0969(4) 0.8536(7) 0.3328(2)
C2 C -0.1861(5) 0.8155(8) 0.3371(3)
H1 H -0.2354 0.7860 0.3100
C3 C -0.2017(5) 0.8215(9) 0.3821(3)
H2 H -0.2614 0.7960 0.3850
C4 C -0.1280(5) 0.8657(7) 0.4227(2)
C5 C -0.0388(5) 0.9038(8) 0.4184(3)
H3 H 0.0105 0.9333 0.4455
C6 C -0.0232(5) 0.8977(8) 0.3734(3)
H4 H 0.0365 0.9232 0.3705
C7 C 0.5897(5) 0.8869(8) 0.1673(2)
C8 C 0.6814(5) 0.9125(9) 0.1613(3)
H5 H 0.7348 0.9288 0.1881
C9 C 0.6903(6) 0.9129(9) 0.1155(3)
H6 H 0.7496 0.9342 0.1114
C10 C 0.6120(6) 0.8818(9) 0.0750(3)
C11 C 0.5199(6) 0.8599(9) 0.0808(3)
H7 H 0.4667 0.8443 0.0538
C12 C 0.5099(5) 0.8617(9) 0.1267(3)
H8 H 0.4498 0.8462 0.1307
C13 C 0.1970(5) 1.0150(8) 0.3341(2)
H9 H 0.2487 1.0871 0.3399
H10 H 0.1435 1.0635 0.3412
C14 C 0.2305(5) 0.8868(8) 0.3692(2)
H11 H 0.2859 0.8399 0.3635
H12 H 0.1798 0.8129 0.3636
C15 C 0.2574(5) 0.9402(8) 0.4224(2)
H13 H 0.3088 1.0131 0.4284
H14 H 0.2023 0.9877 0.4283
C16 C 0.2897(5) 0.8088(8) 0.4567(2)
H15 H 0.2393 0.7359 0.4502
H16 H 0.3040 0.8426 0.4896
H17 H 0.3461 0.7650 0.4519
C17 C 0.0523(4) 0.9664(7) 0.1899(2)
H18 H -0.0046 1.0169 0.1925
H19 H 0.0789 1.0270 0.1693
C18 C 0.0209(6) 0.8164(8) 0.1642(3)
H20 H 0.0770 0.7692 0.1593
H21 H -0.0012 0.7530 0.1857
C19 C -0.0582(5) 0.8219(8) 0.1150(3)
H22 H -0.0460 0.7467 0.0935
H23 H -0.1202 0.8013 0.1195
C20 C -0.0591(6) 0.9749(10) 0.0930(3)
H24 H -0.1053 0.9769 0.0613
H25 H 0.0035 0.9971 0.0905
H26 H -0.0761 1.0480 0.1132
C21 C 0.4473(5) 0.7681(8) 0.3129(2)
H27 H 0.4196 0.7043 0.3322
H28 H 0.5041 0.7181 0.3099
C22 C 0.4795(5) 0.9099(9) 0.3410(3)
H29 H 0.4239 0.9703 0.3402
H30 H 0.5198 0.9667 0.3262
C23 C 0.5371(5) 0.8717(9) 0.3948(3)
H31 H 0.5056 0.7878 0.4047
H32 H 0.6006 0.8385 0.3953
C24 C 0.5498(5) 0.9929(9) 0.4329(3)
H33 H 0.6146 1.0292 0.4419
H34 H 0.5365 0.9525 0.4609
H35 H 0.5062 1.0733 0.4200
C25 C 0.2990(5) 0.7235(8) 0.1695(2)
H36 H 0.3507 0.6742 0.1609
H37 H 0.2468 0.6528 0.1646
C26 C 0.2643(5) 0.8559(9) 0.1354(2)
H38 H 0.3158 0.9280 0.1404
H39 H 0.2112 0.9040 0.1431
C27 C 0.2316(5) 0.8070(8) 0.0821(2)
H40 H 0.1775 0.7396 0.0767
H41 H 0.2835 0.7538 0.0750
C28 C 0.2024(6) 0.9416(10) 0.0480(3)
H42 H 0.1569 1.0015 0.0576
H43 H 0.1738 0.9072 0.0154
H44 H 0.2582 1.0002 0.0495
Cl1 Cl -0.14796(14) 0.8722(2) 0.47788(6)
Cl2 Cl 0.62432(15) 0.8802(2) 0.01833(6)
O1 O 0.0218(3) 0.8226(5) 0.28383(16)
O2 O -0.1061(3) 0.9987(6) 0.25411(17)
O3 O -0.1400(3) 0.7345(5) 0.24848(16)
O4 O 0.4740(3) 0.9209(5) 0.21850(17)
O5 O 0.6379(3) 1.0026(5) 0.25102(16)
O6 O 0.6014(3) 0.7423(5) 0.24460(17)
O7 O 0.2840(3) 0.9915(5) 0.24351(15)
H45 H 0.3066 1.0747 0.2381
O8 O 0.2179(3) 0.7495(5) 0.26056(16)
H46 H 0.1960 0.6667 0.2668
S1 S -0.07941(12) 0.85222(19) 0.27531(6)
S2 S 0.57532(12) 0.88755(18) 0.22488(6)
Sn1 Sn 0.15346(3) 0.95855(5) 0.259352(15)
Sn2 Sn 0.34827(3) 0.78211(5) 0.243360(15)
O3A O 0.1400(3) 1.2345(5) 0.25152(16)
O5A O 0.3621(3) 0.5026(5) 0.24898(16)
Sn1A Sn -0.15346(3) 0.45855(5) 0.240648(15)
Sn2A Sn 0.65173(3) 1.28211(5) 0.256640(15)
loop_
_geom_bond_atom_site_label_1
_geom_bond_atom_site_label_2
_geom_bond_site_symmetry_1
_geom_bond_site_symmetry_2
C1 C2 1_555 1_555
C2 H1 1_555 1_555
C3 C2 1_555 1_555
H2 C3 1_555 1_555
C4 C3 1_555 1_555
C5 C4 1_555 1_555
H3 C5 1_555 1_555
C6 C1 1_555 1_555
H4 C6 1_555 1_555
C7 C8 1_555 1_555
C8 H5 1_555 1_555
C9 C8 1_555 1_555
H6 C9 1_555 1_555
C10 C9 1_555 1_555
C11 C10 1_555 1_555
H7 C11 1_555 1_555
C12 C7 1_555 1_555
H8 C12 1_555 1_555
C13 H9 1_555 1_555
H10 C13 1_555 1_555
C14 C13 1_555 1_555
H11 C14 1_555 1_555
H12 C14 1_555 1_555
C15 C14 1_555 1_555
H13 C15 1_555 1_555
H14 C15 1_555 1_555
C16 C15 1_555 1_555
H15 C16 1_555 1_555
H16 C16 1_555 1_555
H17 C16 1_555 1_555
C17 H18 1_555 1_555
H19 C17 1_555 1_555
C18 C17 1_555 1_555
H20 C18 1_555 1_555
H21 C18 1_555 1_555
C19 C18 1_555 1_555
H22 C19 1_555 1_555
H23 C19 1_555 1_555
C20 C19 1_555 1_555
H24 C20 1_555 1_555
H25 C20 1_555 1_555
H26 C20 1_555 1_555
C21 H27 1_555 1_555
H28 C21 1_555 1_555
C22 C21 1_555 1_555
H29 C22 1_555 1_555
H30 C22 1_555 1_555
C23 C22 1_555 1_555
H31 C23 1_555 1_555
H32 C23 1_555 1_555
C24 C23 1_555 1_555
H33 C24 1_555 1_555
H34 C24 1_555 1_555
H35 C24 1_555 1_555
C25 H36 1_555 1_555
H37 C25 1_555 1_555
C26 C25 1_555 1_555
H38 C26 1_555 1_555
H39 C26 1_555 1_555
C27 C26 1_555 1_555
H40 C27 1_555 1_555
H41 C27 1_555 1_555
C28 C27 1_555 1_555
H42 C28 1_555 1_555
H43 C28 1_555 1_555
H44 C28 1_555 1_555
Cl1 C4 1_555 1_555
Cl2 C10 1_555 1_555
O1 S1 1_555 1_555
O2 S1 1_555 1_555
O3 S1 1_555 1_555
O4 S2 1_555 1_555
O5 S2 1_555 1_555
O6 S2 1_555 1_555
O7 H45 1_555 1_555
O8 H46 1_555 1_555
S1 C1 1_555 1_555
S2 C7 1_555 1_555
Sn1 C13 1_555 1_555
Sn2 C21 1_555 1_555
O3A Sn1 1_555 1_555
O5A Sn2 1_555 1_555
Sn1A O3 1_555 1_555
Sn2A O5 1_555 1_555
C5 C6 1_555 1_555
C11 C12 1_555 1_555
C17 Sn1 1_555 1_555
C25 Sn2 1_555 1_555
O1 Sn1 1_555 1_555
O4 Sn2 1_555 1_555
O7 Sn1 1_555 1_555
O7 Sn2 1_555 1_555
O8 Sn1 1_555 1_555
O8 Sn2 1_555 1_555

#END
