
#######################################################################
#
#                 Cambridge Crystallographic Data Centre
#                                CCDC 
#
#######################################################################
#
# If this CIF has been generated from an entry in the Cambridge 
# Structural Database, then it will include bibliographic, chemical, 
# crystal, experimental, refinement or atomic coordinate data resulting 
# from the CCDC's data processing and validation procedures.
#
#######################################################################

data_SUMNIY
_symmetry_cell_setting           orthorhombic
_symmetry_space_group_name_H-M   'P 21 21 21'
_symmetry_Int_Tables_number      19
_space_group_name_Hall           'P 2ac 2ab'
loop_
_symmetry_equiv_pos_site_id
_symmetry_equiv_pos_as_xyz
1 x,y,z
2 1/2-x,-y,1/2+z
3 -x,1/2+y,1/2-z
4 1/2+x,1/2-y,-z
_cell_length_a                   8.8966(18)
_cell_length_b                   17.030(3)
_cell_length_c                   28.270(6)
_cell_angle_alpha                90
_cell_angle_beta                 90
_cell_angle_gamma                90
_cell_volume                     4283.16
loop_
_atom_site_label
_atom_site_type_symbol
_atom_site_fract_x
_atom_site_fract_y
_atom_site_fract_z
Co1 Co 0.41034(11) 0.16498(6) 0.22057(4)
N1 N 0.4890(6) 0.2603(3) 0.2582(2)
N2 N 0.6290(6) 0.3650(3) 0.2724(3)
N3 N 1.2938(6) 0.4753(3) 0.2597(2)
N4 N 1.4632(6) 0.5713(3) 0.2560(2)
O1 O 0.3901(9) 0.1137(7) 0.1464(3)
O2 O 0.5358(13) 0.2026(4) 0.1611(3)
O3 O 0.2131(5) 0.1361(3) 0.2486(2)
O4 O 0.1413(7) 0.2393(4) 0.2087(3)
C1 C 0.4781(11) 0.1651(6) 0.1318(3)
C2 C 0.5000(10) 0.1749(6) 0.0794(3)
H2 H 0.5979 0.1537 0.0712
H3 H 0.5024 0.2307 0.0724
C3 C 0.3836(10) 0.1369(6) 0.0472(3)
H4 H 0.3645 0.0838 0.0581
H5 H 0.4237 0.1338 0.0154
C4 C 0.2335(9) 0.1831(5) 0.0462(3)
H6 H 0.2051 0.1956 0.0785
H7 H 0.2498 0.2323 0.0297
C5 C 0.1044(10) 0.1406(5) 0.0229(3)
C6 C -0.0456(10) 0.1654(5) 0.0236(3)
H8 H -0.0834 0.2132 0.0387
C7 C -0.1335(11) 0.1095(5) -0.0014(3)
H9 H -0.2423 0.1120 -0.0066
C8 C -0.0371(11) 0.0510(6) -0.0174(3)
H10 H -0.0666 0.0045 -0.0355
C9 C 0.1117(10) 0.0696(6) -0.0024(3)
H11 H 0.2024 0.0385 -0.0084
C10 C 0.0507(12) 0.0436(8) 0.1203(3)
H12 H 0.1391 0.0702 0.1335
C11 C -0.0944(13) 0.0711(6) 0.1229(3)
H13 H -0.1287 0.1194 0.1384
C12 C -0.1844(11) 0.0152(6) 0.0987(3)
H14 H -0.2934 0.0188 0.0942
C13 C -0.0937(13) -0.0461(5) 0.0828(3)
H15 H -0.1269 -0.0927 0.0653
C14 C 0.0534(12) -0.0281(8) 0.0957(4)
H16 H 0.1426 -0.0601 0.0891
C15 C 0.1138(9) 0.1852(5) 0.2360(3)
C16 C -0.0411(8) 0.1746(5) 0.2572(3)
H17 H -0.0782 0.1224 0.2499
H18 H -0.1098 0.2125 0.2434
C17 C -0.0350(8) 0.1858(5) 0.3108(3)
H19 H 0.0337 0.1476 0.3242
H20 H 0.0043 0.2377 0.3177
C18 C -0.1857(9) 0.1769(5) 0.3338(4)
H21 H -0.2228 0.1243 0.3277
H22 H -0.2551 0.2136 0.3193
C19 C -0.1861(11) 0.1909(5) 0.3877(4)
C20 C -0.2917(11) 0.1584(7) 0.4196(5)
H23 H -0.3721 0.1213 0.4116
C21 C -0.2614(14) 0.1893(8) 0.4649(4)
H24 H -0.3153 0.1761 0.4941
C22 C -0.1342(15) 0.2384(7) 0.4616(5)
H25 H -0.0863 0.2669 0.4877
C23 C -0.0933(12) 0.2424(5) 0.4128(4)
H26 H -0.0107 0.2735 0.3995
C24 C 0.0477(13) 0.0445(6) 0.4069(4)
H27 H 0.0549 0.0350 0.3727
C25 C -0.0581(12) 0.0106(5) 0.4371(4)
H28 H -0.1364 -0.0271 0.4282
C26 C -0.0306(12) 0.0401(6) 0.4822(4)
H29 H -0.0881 0.0267 0.5106
C27 C 0.0919(13) 0.0908(6) 0.4808(4)
H30 H 0.1350 0.1190 0.5078
C28 C 0.1414(12) 0.0954(6) 0.4331(5)
H31 H 0.2257 0.1265 0.4210
C29 C 0.5884(8) 0.3097(4) 0.2407(3)
H32 H 0.6262 0.3067 0.2101
C30 C 0.4601(8) 0.2845(4) 0.3044(3)
C31 C 0.3670(9) 0.2548(5) 0.3393(3)
H33 H 0.3064 0.2113 0.3337
C32 C 0.3670(11) 0.2921(6) 0.3830(4)
H34 H 0.3053 0.2731 0.4070
C33 C 0.4575(11) 0.3575(6) 0.3918(4)
H35 H 0.4549 0.3803 0.4217
C34 C 0.5496(10) 0.3892(5) 0.3583(4)
H36 H 0.6081 0.4334 0.3643
C35 C 0.5508(8) 0.3509(5) 0.3138(3)
C36 C 0.7462(7) 0.4245(4) 0.2638(3)
H37 H 0.7198 0.4724 0.2804
H38 H 0.7501 0.4363 0.2303
C37 C 0.8996(7) 0.3974(4) 0.2801(3)
H39 H 0.9005 0.3934 0.3143
H40 H 0.9198 0.3456 0.2673
C38 C 1.0210(7) 0.4534(4) 0.2644(3)
H41 H 1.0028 0.5046 0.2782
H42 H 1.0176 0.4588 0.2302
C39 C 1.1748(7) 0.4249(4) 0.2790(3)
H43 H 1.1815 0.4244 0.3132
H44 H 1.1892 0.3715 0.2678
C40 C 1.3618(8) 0.4689(4) 0.2157(3)
C41 C 1.3432(10) 0.4146(5) 0.1789(3)
H45 H 1.2712 0.3750 0.1801
C42 C 1.4370(10) 0.4233(5) 0.1411(3)
H46 H 1.4282 0.3884 0.1160
C43 C 1.5448(10) 0.4818(5) 0.1386(3)
H47 H 1.6077 0.4845 0.1123
C44 C 1.5601(9) 0.5362(4) 0.1745(3)
H48 H 1.6301 0.5766 0.1725
C45 C 1.4662(8) 0.5282(4) 0.2138(3)
C46 C 1.3610(8) 0.5361(4) 0.2810(3)
H49 H 1.3363 0.5519 0.3116
Fe1 Fe -0.02871(13) 0.05883(7) 0.05439(4)
Fe2 Fe -0.07776(15) 0.12997(7) 0.43791(5)
Co1B Co 1.58966(11) 0.66498(6) 0.27943(4)
N4B N 0.5368(6) 0.0713(3) 0.2440(2)
O5 O 0.9167(14) 0.3360(8) 0.1695(4)
H1 H 0.9860 0.3084 0.1790
C47 C 0.8932(18) 0.3220(7) 0.1235(4)
H50 H 0.8074 0.3514 0.1130
H51 H 0.8751 0.2669 0.1189
H52 H 0.9801 0.3376 0.1057
loop_
_geom_bond_atom_site_label_1
_geom_bond_atom_site_label_2
_geom_bond_site_symmetry_1
_geom_bond_site_symmetry_2
Co1 N1 1_555 1_555
N1 C29 1_555 1_555
N2 C29 1_555 1_555
N3 C39 1_555 1_555
N4 C45 1_555 1_555
O1 Co1 1_555 1_555
O2 Co1 1_555 1_555
O3 Co1 1_555 1_555
O4 C15 1_555 1_555
O5 H1 1_555 1_555
C1 O1 1_555 1_555
C2 C1 1_555 1_555
H2 C2 1_555 1_555
H3 C2 1_555 1_555
C3 C2 1_555 1_555
H4 C3 1_555 1_555
H5 C3 1_555 1_555
C4 C3 1_555 1_555
H6 C4 1_555 1_555
H7 C4 1_555 1_555
C5 C4 1_555 1_555
C6 C5 1_555 1_555
H8 C6 1_555 1_555
C7 C6 1_555 1_555
H9 C7 1_555 1_555
C8 C7 1_555 1_555
H10 C8 1_555 1_555
C9 C5 1_555 1_555
H11 C9 1_555 1_555
C10 H12 1_555 1_555
C11 C10 1_555 1_555
H13 C11 1_555 1_555
C12 C11 1_555 1_555
H14 C12 1_555 1_555
C13 C12 1_555 1_555
H15 C13 1_555 1_555
C14 C10 1_555 1_555
H16 C14 1_555 1_555
C15 O3 1_555 1_555
C16 C15 1_555 1_555
H17 C16 1_555 1_555
H18 C16 1_555 1_555
C17 C16 1_555 1_555
H19 C17 1_555 1_555
H20 C17 1_555 1_555
C18 C17 1_555 1_555
H21 C18 1_555 1_555
H22 C18 1_555 1_555
C19 C18 1_555 1_555
C20 C19 1_555 1_555
H23 C20 1_555 1_555
C21 C20 1_555 1_555
H24 C21 1_555 1_555
C22 C21 1_555 1_555
H25 C22 1_555 1_555
C23 C19 1_555 1_555
H26 C23 1_555 1_555
C24 H27 1_555 1_555
C25 C24 1_555 1_555
H28 C25 1_555 1_555
C26 C25 1_555 1_555
H29 C26 1_555 1_555
C27 C26 1_555 1_555
H30 C27 1_555 1_555
C28 C24 1_555 1_555
H31 C28 1_555 1_555
C29 H32 1_555 1_555
C30 N1 1_555 1_555
C31 C30 1_555 1_555
H33 C31 1_555 1_555
C32 C31 1_555 1_555
H34 C32 1_555 1_555
C33 C32 1_555 1_555
H35 C33 1_555 1_555
C34 C33 1_555 1_555
H36 C34 1_555 1_555
C35 N2 1_555 1_555
C36 N2 1_555 1_555
H37 C36 1_555 1_555
H38 C36 1_555 1_555
C37 C36 1_555 1_555
H39 C37 1_555 1_555
H40 C37 1_555 1_555
C38 C37 1_555 1_555
H41 C38 1_555 1_555
H42 C38 1_555 1_555
C39 C38 1_555 1_555
H43 C39 1_555 1_555
H44 C39 1_555 1_555
C40 N3 1_555 1_555
C41 C40 1_555 1_555
H45 C41 1_555 1_555
C42 C41 1_555 1_555
H46 C42 1_555 1_555
C43 C42 1_555 1_555
H47 C43 1_555 1_555
C44 C43 1_555 1_555
H48 C44 1_555 1_555
C45 C40 1_555 1_555
C46 N3 1_555 1_555
H49 C46 1_555 1_555
C47 O5 1_555 1_555
H50 C47 1_555 1_555
H51 C47 1_555 1_555
H52 C47 1_555 1_555
Fe1 C5 1_555 1_555
Fe2 C19 1_555 1_555
Co1B N4 1_555 1_555
N4B Co1 1_555 1_555
N4 C46 1_555 1_555
O2 C1 1_555 1_555
C6 Fe1 1_555 1_555
C7 Fe1 1_555 1_555
C8 C9 1_555 1_555
C8 Fe1 1_555 1_555
C9 Fe1 1_555 1_555
C10 Fe1 1_555 1_555
C11 Fe1 1_555 1_555
C12 Fe1 1_555 1_555
C13 C14 1_555 1_555
C13 Fe1 1_555 1_555
C14 Fe1 1_555 1_555
C20 Fe2 1_555 1_555
C21 Fe2 1_555 1_555
C22 C23 1_555 1_555
C22 Fe2 1_555 1_555
C23 Fe2 1_555 1_555
C24 Fe2 1_555 1_555
C25 Fe2 1_555 1_555
C26 Fe2 1_555 1_555
C27 C28 1_555 1_555
C27 Fe2 1_555 1_555
C28 Fe2 1_555 1_555
C30 C35 1_555 1_555
C34 C35 1_555 1_555
C44 C45 1_555 1_555

#END
