
#######################################################################
#
#                 Cambridge Crystallographic Data Centre
#                                CCDC 
#
#######################################################################
#
# If this CIF has been generated from an entry in the Cambridge 
# Structural Database, then it will include bibliographic, chemical, 
# crystal, experimental, refinement or atomic coordinate data resulting 
# from the CCDC's data processing and validation procedures.
#
#######################################################################

data_SUMNOE
_symmetry_cell_setting           orthorhombic
_symmetry_space_group_name_H-M   'P 21 21 21'
_symmetry_Int_Tables_number      19
_space_group_name_Hall           'P 2ac 2ab'
loop_
_symmetry_equiv_pos_site_id
_symmetry_equiv_pos_as_xyz
1 x,y,z
2 1/2-x,-y,1/2+z
3 -x,1/2+y,1/2-z
4 1/2+x,1/2-y,-z
_cell_length_a                   8.9090(18)
_cell_length_b                   17.101(3)
_cell_length_c                   28.547(6)
_cell_angle_alpha                90
_cell_angle_beta                 90
_cell_angle_gamma                90
_cell_volume                     4349.22
loop_
_atom_site_label
_atom_site_type_symbol
_atom_site_fract_x
_atom_site_fract_y
_atom_site_fract_z
Mn1 Mn 0.10602(9) 0.83106(5) 0.78234(3)
N1 N -0.0320(5) 0.9287(3) 0.75565(15)
N2 N -0.2040(4) 1.0242(2) 0.75901(15)
N3 N -0.8702(5) 1.1293(3) 0.77256(18)
N4 N -1.0156(5) 1.2339(3) 0.75883(17)
O1 O 0.1128(6) 0.8859(3) 0.85411(14)
O2 O -0.0134(7) 0.7808(3) 0.84390(17)
O3 O 0.3561(5) 0.7741(3) 0.78960(18)
O4 O 0.2979(4) 0.8689(2) 0.74268(17)
C1 C 0.0388(7) 0.8304(4) 0.8704(2)
C2 C 0.0106(7) 0.8241(4) 0.9228(2)
H2 H -0.0863 0.8471 0.9298
H3 H 0.0059 0.7692 0.9313
C3 C 0.1292(7) 0.8638(4) 0.9528(2)
H4 H 0.1478 0.9159 0.9407
H5 H 0.0912 0.8692 0.9845
C4 C 0.2749(7) 0.8192(3) 0.9541(2)
H6 H 0.2580 0.7704 0.9707
H7 H 0.3026 0.8060 0.9222
C5 C 0.4053(7) 0.8606(4) 0.97666(18)
C6 C 0.5559(8) 0.8356(4) 0.97623(19)
H8 H 0.5929 0.7879 0.9611
C7 C 0.6456(8) 0.8904(4) 1.0003(2)
H9 H 0.7544 0.8871 1.0051
C8 C 0.5521(9) 0.9505(4) 1.0155(2)
H10 H 0.5834 0.9969 1.0331
C9 C 0.4024(8) 0.9314(4) 1.00212(18)
H11 H 0.3131 0.9633 1.0083
C10 C 0.4556(10) 0.9570(5) 0.8804(2)
H12 H 0.3655 0.9321 0.8675
C11 C 0.6055(10) 0.9272(5) 0.8782(2)
H13 H 0.6364 0.8778 0.8637
C12 C 0.7005(8) 0.9810(4) 0.9002(2)
H14 H 0.8094 0.9764 0.9041
C13 C 0.6097(9) 1.0427(4) 0.9155(2)
H15 H 0.6456 1.0885 0.9328
C14 C 0.4618(10) 1.0290(5) 0.9035(3)
H16 H 0.3764 1.0633 0.9103
C15 C 0.3924(6) 0.8219(3) 0.7593(2)
C16 C 0.5493(6) 0.8235(3) 0.7401(2)
H17 H 0.6089 0.7830 0.7548
H18 H 0.5955 0.8736 0.7468
C17 C 0.5451(8) 0.8099(4) 0.6855(3)
H19 H 0.5058 0.7580 0.6795
H20 H 0.4762 0.8473 0.6717
C18 C 0.6873(9) 0.8172(5) 0.6628(3)
H21 H 0.7561 0.7794 0.6762
H22 H 0.7273 0.8690 0.6690
C19 C 0.6812(9) 0.8048(4) 0.6099(3)
C20 C 0.7841(8) 0.8374(5) 0.5792(4)
H23 H 0.8645 0.8738 0.5877
C21 C 0.7503(11) 0.8112(6) 0.5334(4)
H24 H 0.8040 0.8265 0.5049
C22 C 0.6270(12) 0.7614(5) 0.5353(4)
H25 H 0.5802 0.7340 0.5089
C23 C 0.5866(9) 0.7551(4) 0.5834(3)
H26 H 0.5042 0.7234 0.5959
C24 C 0.4427(10) 0.9508(4) 0.5936(3)
H27 H 0.4343 0.9589 0.6275
C25 C 0.5488(10) 0.9873(4) 0.5631(3)
H28 H 0.6272 1.0244 0.5723
C26 C 0.5225(10) 0.9606(4) 0.5187(3)
H29 H 0.5792 0.9756 0.4907
C27 C 0.3993(10) 0.9083(5) 0.5196(3)
H30 H 0.3541 0.8816 0.4926
C28 C 0.3526(9) 0.9034(5) 0.5666(4)
H31 H 0.2693 0.8714 0.5782
C29 C -0.1354(5) 0.9646(3) 0.78101(18)
H32 H -0.1587 0.9499 0.8115
C30 C -0.0346(6) 0.9689(3) 0.71331(18)
C31 C 0.0560(6) 0.9611(3) 0.67299(18)
H33 H 0.1290 0.9223 0.6710
C32 C 0.0329(8) 1.0123(4) 0.6370(2)
H34 H 0.0922 1.0084 0.6104
C33 C -0.0780(8) 1.0706(4) 0.6391(2)
H35 H -0.0924 1.1035 0.6136
C34 C -0.1646(7) 1.0797(3) 0.6779(2)
H36 H -0.2368 1.1188 0.6798
C35 C -0.1407(5) 1.0278(3) 0.71482(17)
C36 C -0.3234(5) 1.0732(3) 0.77831(19)
H37 H -0.3108 1.1263 0.7672
H38 H -0.3154 1.0738 0.8122
C37 C -0.4777(5) 1.0439(3) 0.76452(19)
H39 H -0.4814 1.0370 0.7308
H40 H -0.4951 0.9934 0.7790
C38 C -0.5992(5) 1.0992(3) 0.7791(2)
H41 H -0.5797 1.1503 0.7656
H42 H -0.5981 1.1045 0.8129
C39 C -0.7532(6) 1.0713(3) 0.7636(3)
H43 H -0.7506 1.0597 0.7303
H44 H -0.7777 1.0233 0.7800
C40 C -0.9150(6) 1.1844(3) 0.7413(2)
H45 H -0.8791 1.1872 0.7107
C41 C -1.0339(6) 1.2092(3) 0.80550(19)
C42 C -1.1250(7) 1.2398(4) 0.8403(2)
H46 H -1.1873 1.2824 0.8346
C43 C -1.1195(9) 1.2043(4) 0.8840(2)
H47 H -1.1771 1.2243 0.9084
C44 C -1.0295(10) 1.1395(5) 0.8918(3)
H48 H -1.0289 1.1169 0.9215
C45 C -0.9417(8) 1.1076(4) 0.8576(3)
H49 H -0.8835 1.0634 0.8631
C46 C -0.9433(6) 1.1441(3) 0.8141(2)
Fe1 Fe 0.54010(10) 0.94147(5) 0.94522(3)
Fe2 Fe 0.56979(10) 0.86764(5) 0.56083(3)
Mn1B Mn -1.10602(9) 1.33106(5) 0.71766(3)
N4B N 0.0156(5) 0.7339(3) 0.74117(17)
O5 O 0.4283(14) 0.1721(6) 0.6712(3)
H1 H 0.3732 0.1375 0.6812
C47 C 0.4042(19) 0.1819(7) 0.6266(3)
H50 H 0.3657 0.2335 0.6212
H51 H 0.3325 0.1439 0.6160
H52 H 0.4966 0.1753 0.6098
loop_
_geom_bond_atom_site_label_1
_geom_bond_atom_site_label_2
_geom_bond_site_symmetry_1
_geom_bond_site_symmetry_2
Mn1 N1 1_555 1_555
N1 C29 1_555 1_555
N2 C29 1_555 1_555
N3 C39 1_555 1_555
N4 C40 1_555 1_555
O1 Mn1 1_555 1_555
O2 Mn1 1_555 1_555
O3 Mn1 1_555 1_555
O4 Mn1 1_555 1_555
O5 H1 1_555 1_555
C1 O1 1_555 1_555
C2 C1 1_555 1_555
H2 C2 1_555 1_555
H3 C2 1_555 1_555
C3 C2 1_555 1_555
H4 C3 1_555 1_555
H5 C3 1_555 1_555
C4 C3 1_555 1_555
H6 C4 1_555 1_555
H7 C4 1_555 1_555
C5 C4 1_555 1_555
C6 C5 1_555 1_555
H8 C6 1_555 1_555
C7 C6 1_555 1_555
H9 C7 1_555 1_555
C8 C7 1_555 1_555
H10 C8 1_555 1_555
C9 C5 1_555 1_555
H11 C9 1_555 1_555
C10 H12 1_555 1_555
C11 C10 1_555 1_555
H13 C11 1_555 1_555
C12 C11 1_555 1_555
H14 C12 1_555 1_555
C13 C12 1_555 1_555
H15 C13 1_555 1_555
C14 C10 1_555 1_555
H16 C14 1_555 1_555
C15 O3 1_555 1_555
C16 C15 1_555 1_555
H17 C16 1_555 1_555
H18 C16 1_555 1_555
C17 C16 1_555 1_555
H19 C17 1_555 1_555
H20 C17 1_555 1_555
C18 C17 1_555 1_555
H21 C18 1_555 1_555
H22 C18 1_555 1_555
C19 C18 1_555 1_555
C20 C19 1_555 1_555
H23 C20 1_555 1_555
C21 C20 1_555 1_555
H24 C21 1_555 1_555
C22 C21 1_555 1_555
H25 C22 1_555 1_555
C23 C19 1_555 1_555
H26 C23 1_555 1_555
C24 H27 1_555 1_555
C25 C24 1_555 1_555
H28 C25 1_555 1_555
C26 C25 1_555 1_555
H29 C26 1_555 1_555
C27 C26 1_555 1_555
H30 C27 1_555 1_555
C28 C24 1_555 1_555
H31 C28 1_555 1_555
C29 H32 1_555 1_555
C30 N1 1_555 1_555
C31 C30 1_555 1_555
H33 C31 1_555 1_555
C32 C31 1_555 1_555
H34 C32 1_555 1_555
C33 C32 1_555 1_555
H35 C33 1_555 1_555
C34 C33 1_555 1_555
H36 C34 1_555 1_555
C35 N2 1_555 1_555
C36 N2 1_555 1_555
H37 C36 1_555 1_555
H38 C36 1_555 1_555
C37 C36 1_555 1_555
H39 C37 1_555 1_555
H40 C37 1_555 1_555
C38 C37 1_555 1_555
H41 C38 1_555 1_555
H42 C38 1_555 1_555
C39 C38 1_555 1_555
H43 C39 1_555 1_555
H44 C39 1_555 1_555
C40 N3 1_555 1_555
H45 C40 1_555 1_555
C41 N4 1_555 1_555
C42 C41 1_555 1_555
H46 C42 1_555 1_555
C43 C42 1_555 1_555
H47 C43 1_555 1_555
C44 C43 1_555 1_555
H48 C44 1_555 1_555
C45 C44 1_555 1_555
H49 C45 1_555 1_555
C46 N3 1_555 1_555
C47 O5 1_555 1_555
H50 C47 1_555 1_555
H51 C47 1_555 1_555
H52 C47 1_555 1_555
Fe1 C5 1_555 1_555
Fe2 C19 1_555 1_555
Mn1B N4 1_555 1_555
N4B Mn1 1_555 1_555
O2 C1 1_555 1_555
O4 C15 1_555 1_555
C6 Fe1 1_555 1_555
C7 Fe1 1_555 1_555
C8 C9 1_555 1_555
C8 Fe1 1_555 1_555
C9 Fe1 1_555 1_555
C10 Fe1 1_555 1_555
C11 Fe1 1_555 1_555
C12 Fe1 1_555 1_555
C13 C14 1_555 1_555
C13 Fe1 1_555 1_555
C14 Fe1 1_555 1_555
C20 Fe2 1_555 1_555
C21 Fe2 1_555 1_555
C22 C23 1_555 1_555
C22 Fe2 1_555 1_555
C23 Fe2 1_555 1_555
C24 Fe2 1_555 1_555
C25 Fe2 1_555 1_555
C26 Fe2 1_555 1_555
C27 C28 1_555 1_555
C27 Fe2 1_555 1_555
C28 Fe2 1_555 1_555
C30 C35 1_555 1_555
C34 C35 1_555 1_555
C41 C46 1_555 1_555
C45 C46 1_555 1_555

#END
