
#######################################################################
#
#                 Cambridge Crystallographic Data Centre
#                                CCDC 
#
#######################################################################
#
# If this CIF has been generated from an entry in the Cambridge 
# Structural Database, then it will include bibliographic, chemical, 
# crystal, experimental, refinement or atomic coordinate data resulting 
# from the CCDC's data processing and validation procedures.
#
#######################################################################

data_SUMQOI
_symmetry_cell_setting           monoclinic
_symmetry_space_group_name_H-M   'P 21/n'
_symmetry_Int_Tables_number      14
_space_group_name_Hall           '-P 2yn'
loop_
_symmetry_equiv_pos_site_id
_symmetry_equiv_pos_as_xyz
1 x,y,z
2 1/2-x,1/2+y,1/2-z
3 -x,-y,-z
4 1/2+x,1/2-y,1/2+z
_cell_length_a                   4.1634(2)
_cell_length_b                   27.9683(15)
_cell_length_c                   9.0781(6)
_cell_angle_alpha                90
_cell_angle_beta                 100.791(6)
_cell_angle_gamma                90
_cell_volume                     1038.39
loop_
_atom_site_label
_atom_site_type_symbol
_atom_site_fract_x
_atom_site_fract_y
_atom_site_fract_z
I1 I 0.16324(10) 0.043553(13) -0.17752(4)
Cu1 Cu 0.2922(2) 0.01055(3) 0.10070(9)
N1 N 0.4135(13) 0.06816(16) 0.2387(5)
C1 C 0.5629(18) 0.1059(2) 0.1911(7)
H1 H 0.5830 0.1069 0.0908
C2 C 0.6889(18) 0.1435(2) 0.2831(7)
H2 H 0.7839 0.1696 0.2443
C3 C 0.6715(16) 0.14166(19) 0.4340(6)
C4 C 0.5199(17) 0.10263(19) 0.4841(6)
H3 H 0.5019 0.1002 0.5844
C5 C 0.3960(17) 0.0674(2) 0.3841(7)
H4 H 0.2937 0.0414 0.4198
C6 C 0.8218(17) 0.1811(2) 0.5347(7)
C7 C 0.917(2) 0.1896(2) 0.9346(7)
H5 H 1.0161 0.2113 1.0120
H6 H 1.0334 0.1598 0.9459
H7 H 0.6934 0.1843 0.9424
C8 C 0.932(2) 0.2106(2) 0.7846(7)
H8 H 0.8157 0.2408 0.7712
H9 H 1.1570 0.2160 0.7745
O1 O 0.7753(12) 0.17531(15) 0.6734(4)
O2 O 0.9710(14) 0.21401(15) 0.4924(5)
I1B I -0.16324(10) -0.043553(13) 0.17752(4)
I1B_2 I 0.83676(10) -0.043553(13) 0.17752(4)
Cu1B Cu -0.2922(2) -0.01055(3) -0.10070(9)
Cu1B_2 Cu 0.7078(2) -0.01055(3) -0.10070(9)
loop_
_geom_bond_atom_site_label_1
_geom_bond_atom_site_label_2
_geom_bond_site_symmetry_1
_geom_bond_site_symmetry_2
I1 Cu1 1_555 1_555
Cu1 N1 1_555 1_555
N1 C1 1_555 1_555
C1 H1 1_555 1_555
C2 C1 1_555 1_555
H2 C2 1_555 1_555
C3 C2 1_555 1_555
C4 C3 1_555 1_555
H3 C4 1_555 1_555
C5 N1 1_555 1_555
H4 C5 1_555 1_555
C6 C3 1_555 1_555
C7 H5 1_555 1_555
H6 C7 1_555 1_555
H7 C7 1_555 1_555
C8 C7 1_555 1_555
H8 C8 1_555 1_555
H9 C8 1_555 1_555
O1 C6 1_555 1_555
O2 C6 1_555 1_555
I1B Cu1 1_555 1_555
I1B_2 Cu1 1_555 1_555
Cu1B I1 1_555 1_555
Cu1B_2 I1 1_555 1_555
C4 C5 1_555 1_555
C8 O1 1_555 1_555
I1B Cu1B 1_555 1_555
I1B_2 Cu1B_2 1_555 1_555

#END
