
#######################################################################
#
#                 Cambridge Crystallographic Data Centre
#                                CCDC 
#
#######################################################################
#
# If this CIF has been generated from an entry in the Cambridge 
# Structural Database, then it will include bibliographic, chemical, 
# crystal, experimental, refinement or atomic coordinate data resulting 
# from the CCDC's data processing and validation procedures.
#
#######################################################################

data_SUMTUR
_symmetry_cell_setting           monoclinic
_symmetry_space_group_name_H-M   'P 21/n'
_symmetry_Int_Tables_number      14
_space_group_name_Hall           '-P 2yn'
loop_
_symmetry_equiv_pos_site_id
_symmetry_equiv_pos_as_xyz
1 x,y,z
2 1/2-x,1/2+y,1/2-z
3 -x,-y,-z
4 1/2+x,1/2-y,1/2+z
_cell_length_a                   10.8594(5)
_cell_length_b                   12.7519(7)
_cell_length_c                   17.8012(7)
_cell_angle_alpha                90
_cell_angle_beta                 107.037(5)
_cell_angle_gamma                90
_cell_volume                     2356.9
loop_
_atom_site_label
_atom_site_type_symbol
_atom_site_fract_x
_atom_site_fract_y
_atom_site_fract_z
N1 N 0.3990(9) 0.8248(7) 0.1084(5)
C1 C 0.2905(11) 0.7465(9) 0.0951(10)
H1 H 0.2972 0.6955 0.0553
H2 H 0.2078 0.7832 0.0768
H3 H 0.2960 0.7100 0.1444
O1 O 0.5729(13) 0.8840(10) 0.1999(7)
C2 C 0.4258(14) 0.8949(12) 0.0486(7)
H4 H 0.4982 0.9412 0.0737
H5 H 0.3493 0.9374 0.0241
H6 H 0.4475 0.8526 0.0083
C3 C 0.4788(15) 0.8174(16) 0.1858(9)
H7 H 0.4655 0.7694 0.2235
Cd1 Cd 0.49022(3) 0.25437(3) 0.191811(14)
C4 C 0.7831(5) 0.3186(4) 0.5163(2)
N2 N 0.6809(4) 0.2055(3) 0.1680(2)
N3 N 0.6108(5) 0.2877(4) 0.3189(2)
C5 C 0.6721(5) 0.3531(4) 0.4603(2)
C6 C 0.7329(6) 0.1086(5) 0.1847(3)
H8 H 0.6864 0.0570 0.2038
C7 C 0.2601(5) -0.0855(5) 0.3088(3)
N4 N 0.5758(4) 0.3997(3) 0.1410(2)
C8 C 0.6195(5) 0.4803(4) 0.5527(3)
H9 H 0.7007 0.4666 0.5899
C9 C 0.4301(4) -0.0899(4) 0.4706(3)
H10 H 0.3824 -0.1517 0.4514
C10 C 0.6440(5) 0.3147(4) 0.3840(3)
N5 N 0.4280(6) 0.1013(4) 0.2372(3)
C11 C 0.5009(5) 0.0823(4) 0.4497(3)
H11 H 0.5019 0.1396 0.4158
C12 C 0.3945(5) 0.0478(5) 0.2797(3)
C13 C 0.4309(4) -0.0073(4) 0.4190(3)
N6 N 0.8722(5) 0.2922(4) 0.5661(2)
C14 C 0.5859(5) 0.4274(4) 0.4809(2)
C15 C 0.4629(5) 0.4477(4) 0.4290(3)
H12 H 0.4357 0.4113 0.3804
C16 C 0.6838(5) 0.3828(4) 0.1218(3)
C17 C 0.7383(6) 0.4611(5) 0.0864(4)
H13 H 0.8152 0.4475 0.0730
C18 C 0.3596(5) -0.0146(4) 0.3349(3)
C19 C 0.5685(7) 0.5758(5) 0.0918(4)
H14 H 0.5270 0.6422 0.0833
C20 C 0.8491(7) 0.0817(5) 0.1753(4)
H15 H 0.8833 0.0132 0.1878
C21 C 0.5190(6) 0.4947(5) 0.1251(3)
H16 H 0.4408 0.5061 0.1376
C22 C 0.7446(5) 0.2785(4) 0.1407(3)
C23 C 0.6792(7) 0.5585(5) 0.0712(4)
H17 H 0.7147 0.6122 0.0469
N7 N 0.1772(5) -0.1472(5) 0.2921(3)
C24 C 0.8650(7) 0.2549(5) 0.1294(5)
H18 H 0.9106 0.3065 0.1097
C25 C 0.9149(8) 0.1561(6) 0.1474(6)
H19 H 0.9960 0.1393 0.1404
N3B N 0.3892(5) 0.7123(4) 0.6811(2)
C5B C 0.3279(5) 0.6469(4) 0.5397(2)
C8B C 0.3805(5) 0.5197(4) 0.4473(3)
H9B H 0.2993 0.5334 0.4101
C10B C 0.3560(5) 0.6853(4) 0.6160(3)
C14B C 0.4141(5) 0.5726(4) 0.5191(2)
C15B C 0.5371(5) 0.5523(4) 0.5710(3)
H12B H 0.5643 0.5887 0.6196
C4B C 0.2169(5) 0.6814(4) 0.4837(2)
N6B N 0.1278(5) 0.7078(4) 0.4339(2)
C7B C 0.7399(5) 0.0855(5) 0.6912(3)
C9B C 0.5699(4) 0.0899(4) 0.5294(3)
H10B H 0.6176 0.1517 0.5486
N5B N 0.5720(6) -0.1013(4) 0.7628(3)
C11B C 0.4991(5) -0.0823(4) 0.5503(3)
H11B H 0.4981 -0.1396 0.5842
C12B C 0.6055(5) -0.0478(5) 0.7203(3)
C13B C 0.5691(4) 0.0073(4) 0.5810(3)
C18B C 0.6404(5) 0.0146(4) 0.6651(3)
N7B N 0.8228(5) 0.1472(5) 0.7079(3)
Cd1B Cd 0.50978(3) -0.25437(3) 0.808189(14)
N2B N 0.3191(4) -0.2055(3) 0.8320(2)
C6B C 0.2671(6) -0.1086(5) 0.8153(3)
H8B H 0.3136 -0.0570 0.7962
N4B N 0.4242(4) -0.3997(3) 0.8590(2)
C16B C 0.3162(5) -0.3828(4) 0.8782(3)
C17B C 0.2617(6) -0.4611(5) 0.9136(4)
H13B H 0.1848 -0.4475 0.9270
C19B C 0.4315(7) -0.5758(5) 0.9082(4)
H14B H 0.4730 -0.6422 0.9167
C20B C 0.1509(7) -0.0817(5) 0.8247(4)
H15B H 0.1167 -0.0132 0.8122
C21B C 0.4810(6) -0.4947(5) 0.8749(3)
H16B H 0.5592 -0.5061 0.8624
C22B C 0.2554(5) -0.2785(4) 0.8593(3)
C23B C 0.3208(7) -0.5585(5) 0.9288(4)
H17B H 0.2853 -0.6122 0.9531
C24B C 0.1350(7) -0.2549(5) 0.8706(5)
H18B H 0.0894 -0.3065 0.8903
C25B C 0.0851(8) -0.1561(6) 0.8526(6)
H19B H 0.0040 -0.1393 0.8596
Cd1A Cd 0.00978(3) -0.24563(3) 0.308189(14)
Cd1A_2 Cd 0.00978(3) 0.75437(3) 0.308189(14)
Cd1B_2 Cd 0.50978(3) 0.74563(3) 0.808189(14)
Cd1C Cd 0.99022(3) 0.24563(3) 0.691811(14)
N3B_2 N 0.3892(5) -0.2877(4) 0.6811(2)
N6A N 0.6278(5) -0.2078(4) 0.9339(2)
N6C N 0.3722(5) 0.2078(4) 0.0661(2)
N7A N 0.3228(5) 0.3528(5) 0.2079(3)
N7C N 0.6772(5) -0.3528(5) 0.7921(3)
loop_
_geom_bond_atom_site_label_1
_geom_bond_atom_site_label_2
_geom_bond_site_symmetry_1
_geom_bond_site_symmetry_2
N1 C1 1_555 1_555
C1 H1 1_555 1_555
H2 C1 1_555 1_555
H3 C1 1_555 1_555
O1 C3 1_555 1_555
C2 N1 1_555 1_555
H4 C2 1_555 1_555
H5 C2 1_555 1_555
H6 C2 1_555 1_555
C3 N1 1_555 1_555
H7 C3 1_555 1_555
Cd1 N2 1_555 1_555
C4 C5 1_555 1_555
N2 C6 1_555 1_555
N3 Cd1 1_555 1_555
C5 C10 1_555 1_555
C6 H8 1_555 1_555
C7 C18 1_555 1_555
N4 Cd1 1_555 1_555
C8 H9 1_555 1_555
C9 H10 1_555 1_555
C10 N3 1_555 1_555
N5 Cd1 1_555 1_555
C11 H11 1_555 1_555
C12 N5 1_555 1_555
C13 C9 1_555 1_555
N6 C4 1_555 1_555
C14 C5 1_555 1_555
C15 C14 1_555 1_555
H12 C15 1_555 1_555
C16 N4 1_555 1_555
C17 C16 1_555 1_555
H13 C17 1_555 1_555
C18 C12 1_555 1_555
C19 H14 1_555 1_555
C20 C6 1_555 1_555
H15 C20 1_555 1_555
C21 N4 1_555 1_555
H16 C21 1_555 1_555
C22 N2 1_555 1_555
C23 C17 1_555 1_555
H17 C23 1_555 1_555
N7 C7 1_555 1_555
C24 C22 1_555 1_555
H18 C24 1_555 1_555
C25 C20 1_555 1_555
H19 C25 1_555 1_555
N3B C10B 1_555 1_555
C5B C10B 1_555 1_555
C8B C15 1_555 1_555
H9B C8B 1_555 1_555
C14B C5B 1_555 1_555
C15B C8 1_555 1_555
H12B C15B 1_555 1_555
C4B C5B 1_555 1_555
N6B C4B 1_555 1_555
C7B C18B 1_555 1_555
C9B C11 1_555 1_555
H10B C9B 1_555 1_555
N5B C12B 1_555 1_555
C11B C9 1_555 1_555
H11B C11B 1_555 1_555
C12B C18B 1_555 1_555
C13B C9B 1_555 1_555
C18B C13B 1_555 1_555
N7B C7B 1_555 1_555
Cd1B N5B 1_555 1_555
N2B Cd1B 1_555 1_555
C6B N2B 1_555 1_555
H8B C6B 1_555 1_555
N4B Cd1B 1_555 1_555
C16B N4B 1_555 1_555
C17B C16B 1_555 1_555
H13B C17B 1_555 1_555
C19B H14B 1_555 1_555
C20B C6B 1_555 1_555
H15B C20B 1_555 1_555
C21B N4B 1_555 1_555
H16B C21B 1_555 1_555
C22B N2B 1_555 1_555
C23B C17B 1_555 1_555
H17B C23B 1_555 1_555
C24B C22B 1_555 1_555
H18B C24B 1_555 1_555
C25B C20B 1_555 1_555
H19B C25B 1_555 1_555
Cd1A N7 1_555 1_555
Cd1A_2 N6B 1_555 1_555
Cd1B_2 N3B 1_555 1_555
Cd1C N6 1_555 1_555
N3B_2 Cd1B 1_555 1_555
N6A Cd1B 1_555 1_555
N6C Cd1 1_555 1_555
N7A Cd1 1_555 1_555
N7C Cd1B 1_555 1_555
C8 C14 1_555 1_555
C11 C13 1_555 1_555
C13 C18 1_555 1_555
C16 C22 1_555 1_555
C19 C21 1_555 1_555
C19 C23 1_555 1_555
C24 C25 1_555 1_555
C8B C14B 1_555 1_555
C14B C15B 1_555 1_555
C11B C13B 1_555 1_555
N7B Cd1C 1_555 1_555
C16B C22B 1_555 1_555
C19B C21B 1_555 1_555
C19B C23B 1_555 1_555
C24B C25B 1_555 1_555

#END
