
#######################################################################
#
#                 Cambridge Crystallographic Data Centre
#                                CCDC 
#
#######################################################################
#
# If this CIF has been generated from an entry in the Cambridge 
# Structural Database, then it will include bibliographic, chemical, 
# crystal, experimental, refinement or atomic coordinate data resulting 
# from the CCDC's data processing and validation procedures.
#
#######################################################################

data_SUMYUV
_symmetry_cell_setting           tetragonal
_symmetry_space_group_name_H-M   'P -4 21 c'
_symmetry_Int_Tables_number      114
_space_group_name_Hall           'P -4 2n'
loop_
_symmetry_equiv_pos_site_id
_symmetry_equiv_pos_as_xyz
1 x,y,z
2 -x,-y,z
3 y,-x,-z
4 -y,x,-z
5 1/2-x,1/2+y,1/2-z
6 1/2+x,1/2-y,1/2-z
7 1/2-y,1/2-x,1/2+z
8 1/2+y,1/2+x,1/2+z
_cell_length_a                   20.0166(8)
_cell_length_b                   20.0166(8)
_cell_length_c                   8.4195(9)
_cell_angle_alpha                90
_cell_angle_beta                 90
_cell_angle_gamma                90
_cell_volume                     3373.39
loop_
_atom_site_label
_atom_site_type_symbol
_atom_site_fract_x
_atom_site_fract_y
_atom_site_fract_z
Tb1 Tb 0.077459(8) -0.053230(9) 0.33732(3)
C1 C 0.1991(2) 0.0356(3) 0.4790(5)
C2 C 0.2661(2) 0.0618(3) 0.4330(5)
C3 C 0.3079(3) 0.0256(3) 0.3349(10)
H1 H 0.2944 -0.0160 0.2976
C4 C 0.3699(3) 0.0507(4) 0.2913(10)
H2 H 0.3969 0.0258 0.2234
C5 C 0.2868(3) 0.1241(3) 0.4811(9)
H3 H 0.2581 0.1506 0.5408
C6 C 0.3497(3) 0.1479(3) 0.4422(9)
H4 H 0.3635 0.1891 0.4814
C7 C 0.3926(2) 0.1116(3) 0.3462(8)
C8 C 0.4604(3) 0.1379(3) 0.3059(8)
C9 C 0.5066(4) 0.1012(4) 0.2213(14)
H5 H 0.4966 0.0579 0.1889
C10 C 0.5680(4) 0.1293(4) 0.1852(15)
H6 H 0.5980 0.1028 0.1290
C11 C 0.4798(3) 0.2026(4) 0.3389(12)
H7 H 0.4504 0.2317 0.3894
C12 C 0.5435(3) 0.2242(4) 0.2961(10)
H8 H 0.5555 0.2676 0.3230
C13 C 0.2132(2) -0.1428(3) 0.1752(7)
H9 H 0.2334 -0.1309 0.2706
C14 C 0.2500(3) -0.1790(3) 0.0662(7)
H10 H 0.2937 -0.1916 0.0881
C15 C 0.2204(3) -0.1959(3) -0.0746(7)
H11 H 0.2438 -0.2210 -0.1491
C16 C 0.1548(3) -0.1752(3) -0.1064(6)
H12 H 0.1343 -0.1849 -0.2027
C17 C 0.1217(2) -0.1398(2) 0.0113(6)
C18 C 0.0498(2) -0.1176(2) -0.0103(5)
O1 O 0.05601(16) -0.03899(15) 0.6130(3)
H13 H 0.0268 -0.0086 0.6256
O2 O 0.18338(17) -0.02214(18) 0.4346(4)
O3 O 0.16279(17) 0.0740(2) 0.5604(4)
O4 O 0.02139(16) -0.09376(19) 0.1110(4)
O5 O 0.02412(17) -0.12509(17) -0.1439(4)
N1 N 0.5874(3) 0.1882(3) 0.2215(9)
N2 N 0.14984(18) -0.12378(18) 0.1504(5)
Tb1C Tb 0.053230(9) 0.077459(8) 0.66268(3)
Tb1B Tb -0.053230(9) -0.077459(8) 0.66268(3)
Tb1B_2 Tb -0.053230(9) -0.077459(8) -0.33732(3)
O1B O -0.03899(15) -0.05601(16) 0.3870(3)
O1C O 0.03899(15) 0.05601(16) 0.3870(3)
H13B H -0.0086 -0.0268 0.3744
H13C H 0.0086 0.0268 0.3744
O3B O 0.0740(2) -0.16279(17) 0.4396(4)
O5C O 0.12509(17) 0.02412(17) 0.1439(4)
loop_
_geom_bond_atom_site_label_1
_geom_bond_atom_site_label_2
_geom_bond_site_symmetry_1
_geom_bond_site_symmetry_2
Tb1 O1 1_555 1_555
C1 C2 1_555 1_555
C2 C3 1_555 1_555
C3 H1 1_555 1_555
C4 C3 1_555 1_555
H2 C4 1_555 1_555
C5 C2 1_555 1_555
H3 C5 1_555 1_555
C6 C5 1_555 1_555
H4 C6 1_555 1_555
C7 C4 1_555 1_555
C8 C7 1_555 1_555
C9 C8 1_555 1_555
H5 C9 1_555 1_555
C10 C9 1_555 1_555
H6 C10 1_555 1_555
C11 C8 1_555 1_555
H7 C11 1_555 1_555
C12 C11 1_555 1_555
H8 C12 1_555 1_555
C13 H9 1_555 1_555
C14 C13 1_555 1_555
H10 C14 1_555 1_555
C15 C14 1_555 1_555
H11 C15 1_555 1_555
C16 C15 1_555 1_555
H12 C16 1_555 1_555
C17 C16 1_555 1_555
C18 C17 1_555 1_555
O1 H13 1_555 1_555
O2 Tb1 1_555 1_555
O3 C1 1_555 1_555
O4 Tb1 1_555 1_555
O5 C18 1_555 1_555
N1 C10 1_555 1_555
N2 Tb1 1_555 1_555
Tb1C O1 1_555 1_555
Tb1B O1 1_555 1_555
Tb1B_2 O5 1_555 1_555
O1B Tb1 1_555 1_555
O1C Tb1 1_555 1_555
H13B O1B 1_555 1_555
H13C O1C 1_555 1_555
O3B Tb1 1_555 1_555
O5C Tb1 1_555 1_555
C1 O2 1_555 1_555
C6 C7 1_555 1_555
C12 N1 1_555 1_555
C13 N2 1_555 1_555
C17 N2 1_555 1_555
C18 O4 1_555 1_555
O3 Tb1C 1_555 1_555
Tb1C O1C 1_555 1_555
Tb1B O1B 1_555 1_555

#END
