
#######################################################################
#
#                 Cambridge Crystallographic Data Centre
#                                CCDC 
#
#######################################################################
#
# If this CIF has been generated from an entry in the Cambridge 
# Structural Database, then it will include bibliographic, chemical, 
# crystal, experimental, refinement or atomic coordinate data resulting 
# from the CCDC's data processing and validation procedures.
#
#######################################################################

data_SUNJOB01
_symmetry_cell_setting           triclinic
_symmetry_space_group_name_H-M   'P -1'
_symmetry_Int_Tables_number      2
_space_group_name_Hall           '-P 1'
loop_
_symmetry_equiv_pos_site_id
_symmetry_equiv_pos_as_xyz
1 x,y,z
2 -x,-y,-z
_cell_length_a                   9.8135(4)
_cell_length_b                   10.4310(5)
_cell_length_c                   11.0671(5)
_cell_angle_alpha                76.8430(10)
_cell_angle_beta                 76.2760(10)
_cell_angle_gamma                65.9400(10)
_cell_volume                     993.919
loop_
_atom_site_label
_atom_site_type_symbol
_atom_site_fract_x
_atom_site_fract_y
_atom_site_fract_z
Ho1 Ho 0.05514(5) 0.77196(5) 0.17682(4)
O1 O 0.1424(8) 0.9523(7) 0.1275(7)
O2 O 0.1149(8) 1.1019(8) -0.0523(8)
O3 O 0.1413(8) 0.6250(9) 0.3757(7)
O4 O -0.1719(8) 0.7521(8) 0.3174(7)
O5 O -0.1157(7) 0.9349(8) 0.3194(7)
O6 O 0.2001(8) 0.7347(8) -0.0233(7)
O7 O 0.0426(8) 0.5684(8) 0.1352(7)
C1 C 0.3484(11) 1.0128(11) 0.0168(11)
C2 C 0.4103(11) 1.0850(12) -0.0896(11)
H1 H 0.3500 1.1438 -0.1491
C3 C 0.4408(12) 0.9296(11) 0.1077(11)
H2 H 0.4007 0.8838 0.1809
C4 C 0.1903(11) 1.0238(10) 0.0316(10)
C5 C 0.3911(11) 0.5522(10) 0.4196(10)
C6 C 0.5378(11) 0.5517(11) 0.3758(9)
H3 H 0.5639 0.5862 0.2920
C7 C 0.3563(12) 0.4989(12) 0.5452(11)
H4 H 0.2601 0.4974 0.5763
C8 C -0.3562(11) 0.9349(11) 0.4325(10)
C9 C -0.3852(11) 1.0455(11) 0.4954(10)
H5 H -0.3083 1.0769 0.4928
C10 C -0.4731(11) 0.8896(11) 0.4377(10)
H6 H -0.4558 0.8151 0.3958
C11 C -0.2050(11) 0.8678(11) 0.3529(10)
C12 C 0.3308(13) 0.7262(11) -0.0779(11)
C13 C 0.5223(14) 0.7560(14) -0.2344(13)
H7 H 0.5365 0.8456 -0.2616
H8 H 0.5677 0.6990 -0.3021
C14 C 0.5909(13) 0.6756(14) -0.1122(10)
H9 H 0.6683 0.5830 -0.1244
H10 H 0.6320 0.7301 -0.0816
C15 C 0.0455(15) 0.2648(13) 0.3511(12)
H11 H -0.0114 0.2542 0.4348
H12 H 0.1465 0.1921 0.3480
C16 C -0.0344(16) 0.2592(13) 0.2518(12)
H13 H 0.0100 0.1667 0.2243
H14 H -0.1414 0.2813 0.2826
C17 C 0.0278(12) 0.4579(11) 0.1963(10)
N1 N 0.4560(10) 0.6647(11) -0.0295(9)
H15 H 0.4579 0.6208 0.0463
N2 N 0.3668(11) 0.7781(12) -0.1973(8)
H16 H 0.3015 0.8213 -0.2473
N3 N 0.0501(12) 0.4066(10) 0.3145(10)
H17 H 0.0654 0.4513 0.3632
N4 N -0.0095(13) 0.3675(10) 0.1517(10)
H18 H -0.0172 0.3739 0.0745
O8 O 0.3115(8) 0.6490(9) 0.2191(7)
C18 C 0.2766(11) 0.6117(10) 0.3356(10)
Ho1A Ho -1.05514(5) 1.22804(5) 0.82318(4)
Ho1_2 Ho 1.05514(5) 0.77196(5) 0.17682(4)
Ho1A_2 Ho -0.05514(5) 1.22804(5) -0.17682(4)
Ho1A_3 Ho 0.94486(5) 0.22804(5) 0.82318(4)
Ho1A_4 Ho 0.94486(5) 1.22804(5) -0.17682(4)
O1A O 0.8576(8) 1.0477(7) -0.1275(7)
O1A_2 O -1.1424(8) 1.0477(7) 0.8725(7)
O2A O 0.8851(8) 0.8981(8) 0.0523(8)
O2_2 O -0.8851(8) 1.1019(8) 0.9477(8)
O2A_2 O -0.1149(8) 0.8981(8) 0.0523(8)
O3A O 0.8587(8) 0.3750(9) 0.6243(7)
O3A_2 O -1.1413(8) 1.3750(9) 0.6243(7)
O4A O -0.8281(8) 1.2479(8) 0.6826(7)
O5A O -0.8843(7) 1.0651(8) 0.6806(7)
O6A O -1.2001(8) 1.2653(8) 1.0233(7)
O7A O -1.0426(8) 1.4316(8) 0.8648(7)
C1A C 0.6516(11) 0.9872(11) -0.0168(11)
C2A C 0.5897(11) 0.9150(12) 0.0896(11)
H1A H 0.6500 0.8562 0.1491
C3A C 0.5592(12) 1.0704(11) -0.1077(11)
H2A H 0.5993 1.1162 -0.1809
C4A C 0.8097(11) 0.9762(10) -0.0316(10)
C5A C 0.6089(11) 0.4478(10) 0.5804(10)
C6A C 0.4622(11) 0.4483(11) 0.6242(9)
H3A H 0.4361 0.4138 0.7080
C7A C 0.6437(12) 0.5011(12) 0.4548(11)
H4A H 0.7399 0.5026 0.4237
C8A C -0.6438(11) 1.0651(11) 0.5675(10)
C9A C -0.6148(11) 0.9545(11) 0.5046(10)
H5A H -0.6917 0.9231 0.5072
C10A C -0.5269(11) 1.1104(11) 0.5623(10)
H6A H -0.5442 1.1849 0.6042
C11A C -0.7950(11) 1.1322(11) 0.6471(10)
C12A C -1.3308(13) 1.2738(11) 1.0779(11)
C13A C -1.5223(14) 1.2440(14) 1.2344(13)
H7A H -1.5365 1.1544 1.2616
H8A H -1.5677 1.3010 1.3021
C14A C -1.5909(13) 1.3244(14) 1.1122(10)
H9A H -1.6683 1.4170 1.1244
H10A H -1.6320 1.2699 1.0816
C15A C -1.0455(15) 1.7352(13) 0.6489(12)
H11A H -0.9886 1.7458 0.5652
H12A H -1.1465 1.8079 0.6520
C16A C -0.9656(16) 1.7408(13) 0.7482(12)
H13A H -1.0100 1.8333 0.7757
H14A H -0.8586 1.7187 0.7174
C17A C -1.0278(12) 1.5421(11) 0.8037(10)
N1A N -1.4560(10) 1.3353(11) 1.0295(9)
H15A H -1.4579 1.3792 0.9537
N2A N -1.3668(11) 1.2219(12) 1.1973(8)
H16A H -1.3015 1.1787 1.2473
N3A N -1.0501(12) 1.5934(10) 0.6855(10)
H17A H -1.0654 1.5487 0.6368
N4A N -0.9905(13) 1.6325(10) 0.8483(10)
H18A H -0.9828 1.6261 0.9255
O8A O 0.6885(8) 0.3510(9) 0.7809(7)
O8A_2 O -1.3115(8) 1.3510(9) 0.7809(7)
C18A C 0.7234(11) 0.3883(10) 0.6644(10)
C18A_2 C -1.2766(11) 1.3883(10) 0.6644(10)
loop_
_geom_bond_atom_site_label_1
_geom_bond_atom_site_label_2
_geom_bond_site_symmetry_1
_geom_bond_site_symmetry_2
Ho1 O1 1_555 1_555
O1 C4 1_555 1_555
O2 C4 1_555 1_555
O3 Ho1 1_555 1_555
O4 Ho1 1_555 1_555
O5 Ho1 1_555 1_555
O6 Ho1 1_555 1_555
O7 Ho1 1_555 1_555
C1 C2 1_555 1_555
C2 H1 1_555 1_555
C3 C1 1_555 1_555
H2 C3 1_555 1_555
C4 C1 1_555 1_555
C5 C6 1_555 1_555
C6 H3 1_555 1_555
C7 C5 1_555 1_555
H4 C7 1_555 1_555
C8 C9 1_555 1_555
C9 H5 1_555 1_555
C10 C8 1_555 1_555
H6 C10 1_555 1_555
C11 O4 1_555 1_555
C12 O6 1_555 1_555
C13 H7 1_555 1_555
H8 C13 1_555 1_555
C14 C13 1_555 1_555
H9 C14 1_555 1_555
H10 C14 1_555 1_555
C15 H11 1_555 1_555
H12 C15 1_555 1_555
C16 C15 1_555 1_555
H13 C16 1_555 1_555
H14 C16 1_555 1_555
C17 O7 1_555 1_555
N1 C12 1_555 1_555
H15 N1 1_555 1_555
N2 C12 1_555 1_555
H16 N2 1_555 1_555
N3 C15 1_555 1_555
H17 N3 1_555 1_555
N4 C16 1_555 1_555
H18 N4 1_555 1_555
O8 Ho1 1_555 1_555
C18 O3 1_555 1_555
Ho1A O1A_2 1_555 1_555
Ho1_2 O2A 1_555 1_555
Ho1A_2 O2 1_555 1_555
Ho1A_3 O3A 1_555 1_555
Ho1A_4 O1A 1_555 1_555
O1A C4A 1_555 1_555
O2A C4A 1_555 1_555
O2_2 Ho1A 1_555 1_555
O2A_2 Ho1 1_555 1_555
O3A C18A 1_555 1_555
O3A_2 Ho1A 1_555 1_555
O4A Ho1A 1_555 1_555
O5A Ho1A 1_555 1_555
O6A Ho1A 1_555 1_555
O7A Ho1A 1_555 1_555
C1A C2A 1_555 1_555
C2A C3 1_555 1_555
H1A C2A 1_555 1_555
C3A C2 1_555 1_555
H2A C3A 1_555 1_555
C4A C1A 1_555 1_555
C5A C6A 1_555 1_555
C6A C7 1_555 1_555
H3A C6A 1_555 1_555
C7A C6 1_555 1_555
H4A C7A 1_555 1_555
C8A C9A 1_555 1_555
C9A C10 1_555 1_555
H5A C9A 1_555 1_555
C10A C9 1_555 1_555
H6A C10A 1_555 1_555
C11A O4A 1_555 1_555
C12A O6A 1_555 1_555
C13A H7A 1_555 1_555
H8A C13A 1_555 1_555
C14A C13A 1_555 1_555
H9A C14A 1_555 1_555
H10A C14A 1_555 1_555
C15A H11A 1_555 1_555
H12A C15A 1_555 1_555
C16A C15A 1_555 1_555
H13A C16A 1_555 1_555
H14A C16A 1_555 1_555
C17A O7A 1_555 1_555
N1A C12A 1_555 1_555
H15A N1A 1_555 1_555
N2A C12A 1_555 1_555
H16A N2A 1_555 1_555
N3A C15A 1_555 1_555
H17A N3A 1_555 1_555
N4A C16A 1_555 1_555
H18A N4A 1_555 1_555
O8A Ho1A_3 1_555 1_555
O8A_2 Ho1A 1_555 1_555
C18A C5A 1_555 1_555
C18A_2 O3A_2 1_555 1_555
O5 C11 1_555 1_555
C5 C18 1_555 1_555
C8 C11 1_555 1_555
C13 N2 1_555 1_555
C14 N1 1_555 1_555
C17 N3 1_555 1_555
C17 N4 1_555 1_555
O8 C18 1_555 1_555
O5A C11A 1_555 1_555
C1A C3A 1_555 1_555
C5A C7A 1_555 1_555
C8A C10A 1_555 1_555
C8A C11A 1_555 1_555
C13A N2A 1_555 1_555
C14A N1A 1_555 1_555
C17A N3A 1_555 1_555
C17A N4A 1_555 1_555
O8A C18A 1_555 1_555
O8A_2 C18A_2 1_555 1_555

#END
