
#######################################################################
#
#                 Cambridge Crystallographic Data Centre
#                                CCDC 
#
#######################################################################
#
# If this CIF has been generated from an entry in the Cambridge 
# Structural Database, then it will include bibliographic, chemical, 
# crystal, experimental, refinement or atomic coordinate data resulting 
# from the CCDC's data processing and validation procedures.
#
#######################################################################

data_SUNJOB
_symmetry_cell_setting           triclinic
_symmetry_space_group_name_H-M   'P -1'
_symmetry_Int_Tables_number      2
_space_group_name_Hall           '-P 1'
loop_
_symmetry_equiv_pos_site_id
_symmetry_equiv_pos_as_xyz
1 x,y,z
2 -x,-y,-z
_cell_length_a                   9.8113(2)
_cell_length_b                   10.4188(2)
_cell_length_c                   11.0768(2)
_cell_angle_alpha                76.7210(10)
_cell_angle_beta                 76.2420(10)
_cell_angle_gamma                65.9320(10)
_cell_volume                     992.885
loop_
_atom_site_label
_atom_site_type_symbol
_atom_site_fract_x
_atom_site_fract_y
_atom_site_fract_z
Ho1 Ho 0.054779(12) 0.771751(12) 0.677076(9)
O1 O -0.1157(2) 0.9343(2) 0.82118(18)
O2 O -0.1728(2) 0.7519(2) 0.81788(17)
O3 O 0.3138(2) 0.6495(2) 0.72058(18)
O4 O 0.1409(2) 0.6242(2) 0.87733(18)
O5 O -0.1419(2) 1.0480(2) 0.37223(16)
O6 O -0.1155(2) 0.8974(2) 0.55136(18)
O7 O 0.1999(2) 0.7355(2) 0.47648(17)
O8 O 0.0425(2) 0.5683(2) 0.63468(17)
N1 N 0.0503(3) 0.4048(3) 0.8148(2)
H1 H 0.0661 0.4494 0.8632
N2 N -0.0083(4) 0.3672(3) 0.6539(2)
H2 H -0.0148 0.3735 0.5766
N3 N 0.3640(3) 0.7781(3) 0.3005(2)
H3 H 0.2993 0.8197 0.2498
N4 N 0.4549(3) 0.6651(3) 0.4716(2)
H4 H 0.4575 0.6230 0.5480
C1 C -0.3565(3) 0.9341(3) 0.9328(2)
C2 C -0.4730(3) 0.8892(3) 0.9373(3)
H5 H -0.4553 0.8150 0.8951
C3 C -0.3845(3) 1.0463(3) 0.9959(2)
H6 H -0.3075 1.0778 0.9932
C4 C -0.2052(3) 0.8677(3) 0.8536(2)
C5 C 0.3921(3) 0.5517(3) 0.9207(2)
C6 C 0.5385(3) 0.5509(3) 0.8751(3)
H7 H 0.5642 0.5844 0.7910
C7 C 0.3554(3) 0.4990(3) 1.0459(3)
H8 H 0.2592 0.4975 1.0766
C8 C 0.2758(3) 0.6105(3) 0.8346(2)
C9 C -0.3507(3) 0.9867(3) 0.4832(2)
C10 C -0.4402(3) 1.0707(3) 0.3926(3)
H9 H -0.3995 1.1176 0.3204
C11 C -0.4099(3) 0.9152(3) 0.5903(3)
H10 H -0.3496 0.8582 0.6503
C12 C -0.1903(3) 0.9770(3) 0.4672(2)
C13 C 0.0275(3) 0.4566(3) 0.6969(2)
C14 C -0.0353(4) 0.2576(4) 0.7533(3)
H11 H 0.0087 0.1652 0.7256
H12 H -0.1425 0.2803 0.7839
C15 C 0.0451(4) 0.2630(4) 0.8520(3)
H13 H -0.0117 0.2527 0.9358
H14 H 0.1459 0.1900 0.8488
C16 C 0.3294(3) 0.7261(3) 0.4222(3)
C17 C 0.5225(4) 0.7557(4) 0.2657(3)
H15 H 0.5367 0.8455 0.2403
H16 H 0.5695 0.6998 0.1975
C18 C 0.5877(4) 0.6754(4) 0.3853(3)
H17 H 0.6635 0.5821 0.3725
H18 H 0.6319 0.7281 0.4149
Ho1A Ho -1.054779(12) 1.228249(12) 1.322924(9)
Ho1A_2 Ho -0.054779(12) 1.228249(12) 0.322924(9)
Ho1A_3 Ho 0.945221(12) 0.228249(12) 1.322924(9)
Ho1_2 Ho -0.945221(12) 0.771751(12) 0.677076(9)
Ho1A_4 Ho -1.054779(12) 1.228249(12) 0.322924(9)
O1A O -0.8843(2) 1.0657(2) 1.17882(18)
O2A O -0.8272(2) 1.2481(2) 1.18212(17)
O3A O 0.6862(2) 0.3505(2) 1.27942(18)
O3A_2 O -1.3138(2) 1.3505(2) 1.27942(18)
O4A O 0.8591(2) 0.3758(2) 1.12267(18)
O4A_2 O -1.1409(2) 1.3758(2) 1.12267(18)
O5A O -0.8581(2) 0.9520(2) 0.62777(16)
O5A_2 O 0.1419(2) 0.9520(2) 0.62777(16)
O5_2 O -1.1419(2) 1.0480(2) 1.37223(16)
O6A O -0.8845(2) 1.1026(2) 0.44864(18)
O6A_2 O -0.8845(2) 1.1026(2) 1.44864(18)
O7A O -1.1999(2) 1.2645(2) 1.52352(17)
O8A O -1.0425(2) 1.4317(2) 1.36532(17)
N1A N -1.0503(3) 1.5952(3) 1.1852(2)
H1A H -1.0661 1.5506 1.1368
N2A N -0.9917(4) 1.6328(3) 1.3461(2)
H2A H -0.9852 1.6265 1.4234
N3A N -1.3640(3) 1.2219(3) 1.6995(2)
H3A H -1.2993 1.1803 1.7502
N4A N -1.4549(3) 1.3349(3) 1.5284(2)
H4A H -1.4575 1.3770 1.4520
C1A C -0.6435(3) 1.0659(3) 1.0672(2)
C2A C -0.5270(3) 1.1108(3) 1.0627(3)
H5A H -0.5447 1.1850 1.1049
C3A C -0.6155(3) 0.9537(3) 1.0041(2)
H6A H -0.6925 0.9222 1.0068
C4A C -0.7948(3) 1.1323(3) 1.1464(2)
C5A C 0.6079(3) 0.4483(3) 1.0793(2)
C6A C 0.4615(3) 0.4491(3) 1.1249(3)
H7A H 0.4358 0.4156 1.2090
C7A C 0.6446(3) 0.5010(3) 0.9541(3)
H8A H 0.7408 0.5025 0.9234
C8A C 0.7242(3) 0.3895(3) 1.1654(2)
C9A C -0.6493(3) 1.0133(3) 0.5168(2)
C10A C -0.5598(3) 0.9293(3) 0.6074(3)
H9A H -0.6005 0.8824 0.6796
C11A C -0.5901(3) 1.0848(3) 0.4097(3)
H10A H -0.6504 1.1418 0.3497
C12A C -0.8097(3) 1.0230(3) 0.5328(2)
C13A C -1.0275(3) 1.5434(3) 1.3031(2)
C14A C -0.9647(4) 1.7424(4) 1.2467(3)
H11A H -1.0087 1.8348 1.2744
H12A H -0.8575 1.7197 1.2161
C15A C -1.0451(4) 1.7370(4) 1.1480(3)
H13A H -0.9883 1.7473 1.0642
H14A H -1.1459 1.8100 1.1512
C16A C -1.3294(3) 1.2739(3) 1.5778(3)
C17A C -1.5225(4) 1.2443(4) 1.7343(3)
H15A H -1.5367 1.1545 1.7597
H16A H -1.5695 1.3002 1.8025
C18A C -1.5877(4) 1.3246(4) 1.6147(3)
H17A H -1.6635 1.4179 1.6275
H18A H -1.6319 1.2719 1.5851
loop_
_geom_bond_atom_site_label_1
_geom_bond_atom_site_label_2
_geom_bond_site_symmetry_1
_geom_bond_site_symmetry_2
Ho1 O1 1_555 1_555
O1 C4 1_555 1_555
O2 Ho1 1_555 1_555
O3 Ho1 1_555 1_555
O4 Ho1 1_555 1_555
O5 C12 1_555 1_555
O6 Ho1 1_555 1_555
O7 Ho1 1_555 1_555
O8 Ho1 1_555 1_555
N1 H1 1_555 1_555
N2 H2 1_555 1_555
N3 H3 1_555 1_555
N4 H4 1_555 1_555
C1 C2 1_555 1_555
C2 H5 1_555 1_555
C3 C1 1_555 1_555
H6 C3 1_555 1_555
C4 O2 1_555 1_555
C5 C6 1_555 1_555
C6 H7 1_555 1_555
C7 C5 1_555 1_555
H8 C7 1_555 1_555
C8 O3 1_555 1_555
C9 C10 1_555 1_555
C10 H9 1_555 1_555
C11 C9 1_555 1_555
H10 C11 1_555 1_555
C12 O6 1_555 1_555
C13 O8 1_555 1_555
C14 N2 1_555 1_555
H11 C14 1_555 1_555
H12 C14 1_555 1_555
C15 N1 1_555 1_555
H13 C15 1_555 1_555
H14 C15 1_555 1_555
C16 O7 1_555 1_555
C17 N3 1_555 1_555
H15 C17 1_555 1_555
H16 C17 1_555 1_555
C18 N4 1_555 1_555
H17 C18 1_555 1_555
H18 C18 1_555 1_555
Ho1A O1A 1_555 1_555
Ho1A_2 O5 1_555 1_555
Ho1A_3 O3A 1_555 1_555
Ho1_2 O5A 1_555 1_555
Ho1A_4 O6A 1_555 1_555
O1A C4A 1_555 1_555
O2A Ho1A 1_555 1_555
O3A C8A 1_555 1_555
O3A_2 Ho1A 1_555 1_555
O4A Ho1A_3 1_555 1_555
O4A_2 Ho1A 1_555 1_555
O5A C12A 1_555 1_555
O5A_2 Ho1 1_555 1_555
O5_2 Ho1A 1_555 1_555
O6A C12A 1_555 1_555
O6A_2 Ho1A 1_555 1_555
O7A Ho1A 1_555 1_555
O8A Ho1A 1_555 1_555
N1A H1A 1_555 1_555
N2A H2A 1_555 1_555
N3A H3A 1_555 1_555
N4A H4A 1_555 1_555
C1A C2A 1_555 1_555
C2A C3 1_555 1_555
H5A C2A 1_555 1_555
C3A C2 1_555 1_555
H6A C3A 1_555 1_555
C4A O2A 1_555 1_555
C5A C6A 1_555 1_555
C6A C7 1_555 1_555
H7A C6A 1_555 1_555
C7A C6 1_555 1_555
H8A C7A 1_555 1_555
C8A O4A 1_555 1_555
C9A C10A 1_555 1_555
C10A C11 1_555 1_555
H9A C10A 1_555 1_555
C11A C10 1_555 1_555
H10A C11A 1_555 1_555
C12A C9A 1_555 1_555
C13A O8A 1_555 1_555
C14A N2A 1_555 1_555
H11A C14A 1_555 1_555
H12A C14A 1_555 1_555
C15A N1A 1_555 1_555
H13A C15A 1_555 1_555
H14A C15A 1_555 1_555
C16A O7A 1_555 1_555
C17A N3A 1_555 1_555
H15A C17A 1_555 1_555
H16A C17A 1_555 1_555
C18A N4A 1_555 1_555
H17A C18A 1_555 1_555
H18A C18A 1_555 1_555
O4 C8 1_555 1_555
N1 C13 1_555 1_555
N2 C13 1_555 1_555
N3 C16 1_555 1_555
N4 C16 1_555 1_555
C1 C4 1_555 1_555
C5 C8 1_555 1_555
C9 C12 1_555 1_555
C14 C15 1_555 1_555
C17 C18 1_555 1_555
N1A C13A 1_555 1_555
N2A C13A 1_555 1_555
N3A C16A 1_555 1_555
N4A C16A 1_555 1_555
C1A C3A 1_555 1_555
C1A C4A 1_555 1_555
C5A C7A 1_555 1_555
C5A C8A 1_555 1_555
C9A C11A 1_555 1_555
C14A C15A 1_555 1_555
C17A C18A 1_555 1_555

#END
