
#######################################################################
#
#                 Cambridge Crystallographic Data Centre
#                                CCDC 
#
#######################################################################
#
# If this CIF has been generated from an entry in the Cambridge 
# Structural Database, then it will include bibliographic, chemical, 
# crystal, experimental, refinement or atomic coordinate data resulting 
# from the CCDC's data processing and validation procedures.
#
#######################################################################

data_SUNQAU
_symmetry_cell_setting           monoclinic
_symmetry_space_group_name_H-M   'P 21/c'
_symmetry_Int_Tables_number      14
_space_group_name_Hall           '-P 2ybc'
loop_
_symmetry_equiv_pos_site_id
_symmetry_equiv_pos_as_xyz
1 x,y,z
2 -x,1/2+y,1/2-z
3 -x,-y,-z
4 x,1/2-y,1/2+z
_cell_length_a                   28.907(2)
_cell_length_b                   7.3537(6)
_cell_length_c                   12.4744(10)
_cell_angle_alpha                90
_cell_angle_beta                 94.8380(10)
_cell_angle_gamma                90
_cell_volume                     2642.28
loop_
_atom_site_label
_atom_site_type_symbol
_atom_site_fract_x
_atom_site_fract_y
_atom_site_fract_z
Mn1 Mn 0.0000 0.0000 0.0000
Mn2 Mn 0.5000 0.0000 0.5000
S1 S 0.24687(2) 0.10754(13) 0.27616(6)
O1 O -0.22924(6) 0.1125(3) 0.25870(14)
O2 O -0.44936(6) 0.1128(3) 0.18944(14)
O3 O -0.43161(7) 0.0271(3) 0.02629(15)
O4 O -0.03807(6) 0.2277(3) 0.05433(13)
O5 O -0.08431(6) 0.4030(3) -0.05456(16)
O6 O -0.00940(6) -0.1429(3) 0.14641(14)
H1 H -0.0112 -0.0979 0.2092
H2 H -0.0036 -0.2572 0.1517
O7 O 0.46455(7) -0.1793(3) 0.60441(14)
H3 H 0.4561 -0.1675 0.6682
H4 H 0.4580 -0.2859 0.5806
O8 O 0.47771(6) 0.2409(3) 0.58115(13)
H5 H 0.4634 0.3248 0.5436
H6 H 0.5023 0.2869 0.6146
N1 N 0.29438(8) 0.2019(4) 0.12338(17)
N2 N 0.24886(7) 0.2123(4) 0.08303(17)
N3 N 0.07379(7) 0.1142(3) 0.06917(18)
N4 N 0.42978(8) 0.0403(3) 0.39790(17)
C1 C -0.11874(8) 0.2411(4) 0.08004(19)
C2 C -0.07775(9) 0.2944(4) 0.0212(2)
C3 C 0.16932(9) 0.1535(4) 0.1269(2)
C4 C -0.36985(9) 0.0844(4) 0.1585(2)
C5 C -0.42071(9) 0.0728(4) 0.1226(2)
C6 C -0.30717(9) 0.1608(4) 0.2905(2)
H7 H -0.2970 0.2061 0.3580
C7 C 0.10261(10) 0.1883(4) 0.0032(2)
H8 H 0.0900 0.2278 -0.0639
C8 C -0.16349(9) 0.2916(4) 0.0414(2)
H9 H -0.1678 0.3563 -0.0227
C9 C 0.34410(9) 0.1156(4) 0.2849(2)
C10 C -0.27556(9) 0.1070(4) 0.2206(2)
C11 C -0.20145(9) 0.2481(4) 0.0959(2)
H10 H -0.2311 0.2827 0.0691
C12 C 0.34727(9) 0.0742(4) 0.3932(2)
H11 H 0.3207 0.0706 0.4304
C13 C 0.38510(9) 0.1214(4) 0.2345(2)
H12 H 0.3846 0.1505 0.1619
C14 C -0.11310(9) 0.1444(4) 0.1757(2)
H13 H -0.0834 0.1101 0.2029
C15 C 0.21996(9) 0.1647(4) 0.1527(2)
C16 C -0.15055(9) 0.0983(4) 0.2313(2)
H14 H -0.1462 0.0320 0.2948
C17 C 0.29906(9) 0.1477(4) 0.2234(2)
C18 C -0.29036(10) 0.0381(4) 0.1199(2)
H15 H -0.2690 -0.0019 0.0735
C19 C -0.19458(9) 0.1513(4) 0.1920(2)
C20 C 0.14954(9) 0.2102(4) 0.0273(2)
H16 H 0.1678 0.2622 -0.0224
C21 C -0.35400(9) 0.1474(4) 0.2603(2)
H17 H -0.3753 0.1809 0.3085
C22 C 0.39005(10) 0.0384(4) 0.4453(2)
H18 H 0.3914 0.0111 0.5183
C23 C 0.09341(10) 0.0633(5) 0.1660(2)
H19 H 0.0744 0.0127 0.2147
C24 C -0.33729(10) 0.0298(4) 0.0899(2)
H20 H -0.3473 -0.0134 0.0218
C25 C 0.13987(10) 0.0815(5) 0.1971(2)
H21 H 0.1515 0.0453 0.2656
C26 C 0.42632(9) 0.0840(5) 0.2928(2)
H22 H 0.4534 0.0892 0.2577
Mn2_2 Mn -0.5000 0.0000 -0.5000
S1B S -0.24687(2) -0.10754(13) -0.27616(6)
O1B O 0.22924(6) -0.1125(3) -0.25870(14)
O2B O 0.44936(6) -0.1128(3) -0.18944(14)
O3B O 0.43161(7) -0.0271(3) -0.02629(15)
O4B O 0.03807(6) -0.2277(3) -0.05433(13)
O5B O 0.08431(6) -0.4030(3) 0.05456(16)
O6B O 0.00940(6) 0.1429(3) -0.14641(14)
H1B H 0.0112 0.0979 -0.2092
H2B H 0.0036 0.2572 -0.1517
O7B O 0.53545(7) 0.1793(3) 0.39559(14)
H3B H 0.5439 0.1675 0.3318
H4B H 0.5420 0.2859 0.4194
O8B O 0.52229(6) -0.2409(3) 0.41885(13)
H5B H 0.5366 -0.3248 0.4564
H6B H 0.4977 -0.2869 0.3854
N1B N -0.29438(8) -0.2019(4) -0.12338(17)
N2B N -0.24886(7) -0.2123(4) -0.08303(17)
N3B N -0.07379(7) -0.1142(3) -0.06917(18)
N4B N -0.42978(8) -0.0403(3) -0.39790(17)
N4B_2 N 0.57022(8) -0.0403(3) 0.60210(17)
C1B C 0.11874(8) -0.2411(4) -0.08004(19)
C2B C 0.07775(9) -0.2944(4) -0.0212(2)
C3B C -0.16932(9) -0.1535(4) -0.1269(2)
C4B C 0.36985(9) -0.0844(4) -0.1585(2)
C5B C 0.42071(9) -0.0728(4) -0.1226(2)
C6B C 0.30717(9) -0.1608(4) -0.2905(2)
H7B H 0.2970 -0.2061 -0.3580
C7B C -0.10261(10) -0.1883(4) -0.0032(2)
H8B H -0.0900 -0.2278 0.0639
C8B C 0.16349(9) -0.2916(4) -0.0414(2)
H9B H 0.1678 -0.3563 0.0227
C9B C -0.34410(9) -0.1156(4) -0.2849(2)
C10B C 0.27556(9) -0.1070(4) -0.2206(2)
C11B C 0.20145(9) -0.2481(4) -0.0959(2)
H10B H 0.2311 -0.2827 -0.0691
C12B C -0.34727(9) -0.0742(4) -0.3932(2)
H11B H -0.3207 -0.0706 -0.4304
C13B C -0.38510(9) -0.1214(4) -0.2345(2)
H12B H -0.3846 -0.1505 -0.1619
C14B C 0.11310(9) -0.1444(4) -0.1757(2)
H13B H 0.0834 -0.1101 -0.2029
C15B C -0.21996(9) -0.1647(4) -0.1527(2)
C16B C 0.15055(9) -0.0983(4) -0.2313(2)
H14B H 0.1462 -0.0320 -0.2948
C17B C -0.29906(9) -0.1477(4) -0.2234(2)
C18B C 0.29036(10) -0.0381(4) -0.1199(2)
H15B H 0.2690 0.0019 -0.0735
C19B C 0.19458(9) -0.1513(4) -0.1920(2)
C20B C -0.14954(9) -0.2102(4) -0.0273(2)
H16B H -0.1678 -0.2622 0.0224
C21B C 0.35400(9) -0.1474(4) -0.2603(2)
H17B H 0.3753 -0.1809 -0.3085
C22B C -0.39005(10) -0.0384(4) -0.4453(2)
H18B H -0.3914 -0.0111 -0.5183
C23B C -0.09341(10) -0.0633(5) -0.1660(2)
H19B H -0.0744 -0.0127 -0.2147
C24B C 0.33729(10) -0.0298(4) -0.0899(2)
H20B H 0.3473 0.0134 -0.0218
C25B C -0.13987(10) -0.0815(5) -0.1971(2)
H21B H -0.1515 -0.0453 -0.2656
C26B C -0.42632(9) -0.0840(5) -0.2928(2)
H22B H -0.4534 -0.0892 -0.2577
O9 O 0.01290(6) 0.4969(2) 0.15572(14)
H23 H 0.0383 0.5164 0.1258
H24 H -0.0026 0.4140 0.1200
loop_
_geom_bond_atom_site_label_1
_geom_bond_atom_site_label_2
_geom_bond_site_symmetry_1
_geom_bond_site_symmetry_2
Mn1 O4 1_555 1_555
Mn2 O7 1_555 1_555
S1 C15 1_555 1_555
O1 C10 1_555 1_555
O2 C5 1_555 1_555
O3 C5 1_555 1_555
O4 C2 1_555 1_555
O5 C2 1_555 1_555
O6 Mn1 1_555 1_555
H1 O6 1_555 1_555
H2 O6 1_555 1_555
O7 H3 1_555 1_555
H4 O7 1_555 1_555
O8 Mn2 1_555 1_555
H5 O8 1_555 1_555
H6 O8 1_555 1_555
N1 N2 1_555 1_555
N2 C15 1_555 1_555
N3 Mn1 1_555 1_555
N4 Mn2 1_555 1_555
C1 C2 1_555 1_555
C3 C15 1_555 1_555
C4 C5 1_555 1_555
C6 H7 1_555 1_555
C7 N3 1_555 1_555
H8 C7 1_555 1_555
C8 C1 1_555 1_555
H9 C8 1_555 1_555
C9 C12 1_555 1_555
C10 C6 1_555 1_555
C11 C8 1_555 1_555
H10 C11 1_555 1_555
C12 H11 1_555 1_555
C13 C9 1_555 1_555
H12 C13 1_555 1_555
C14 C1 1_555 1_555
H13 C14 1_555 1_555
C16 C14 1_555 1_555
H14 C16 1_555 1_555
C17 S1 1_555 1_555
C18 C10 1_555 1_555
H15 C18 1_555 1_555
C19 O1 1_555 1_555
C20 C3 1_555 1_555
H16 C20 1_555 1_555
C21 C4 1_555 1_555
H17 C21 1_555 1_555
C22 N4 1_555 1_555
H18 C22 1_555 1_555
C23 N3 1_555 1_555
H19 C23 1_555 1_555
C24 C4 1_555 1_555
H20 C24 1_555 1_555
C25 C3 1_555 1_555
H21 C25 1_555 1_555
C26 N4 1_555 1_555
H22 C26 1_555 1_555
O9 H23 1_555 1_555
H24 O9 1_555 1_555
Mn2_2 N4B 1_555 1_555
S1B C15B 1_555 1_555
O1B C10B 1_555 1_555
O2B C5B 1_555 1_555
O3B C5B 1_555 1_555
O4B Mn1 1_555 1_555
O5B C2B 1_555 1_555
O6B Mn1 1_555 1_555
H1B O6B 1_555 1_555
H2B O6B 1_555 1_555
O7B Mn2 1_555 1_555
H3B O7B 1_555 1_555
H4B O7B 1_555 1_555
O8B Mn2 1_555 1_555
H5B O8B 1_555 1_555
H6B O8B 1_555 1_555
N1B N2B 1_555 1_555
N2B C15B 1_555 1_555
N3B Mn1 1_555 1_555
N4B C22B 1_555 1_555
N4B_2 Mn2 1_555 1_555
C1B C2B 1_555 1_555
C2B O4B 1_555 1_555
C3B C15B 1_555 1_555
C4B C5B 1_555 1_555
C6B H7B 1_555 1_555
C7B N3B 1_555 1_555
H8B C7B 1_555 1_555
C8B C1B 1_555 1_555
H9B C8B 1_555 1_555
C9B C12B 1_555 1_555
C10B C6B 1_555 1_555
C11B C8B 1_555 1_555
H10B C11B 1_555 1_555
C12B H11B 1_555 1_555
C13B C9B 1_555 1_555
H12B C13B 1_555 1_555
C14B C1B 1_555 1_555
H13B C14B 1_555 1_555
C16B C14B 1_555 1_555
H14B C16B 1_555 1_555
C17B S1B 1_555 1_555
C18B C10B 1_555 1_555
H15B C18B 1_555 1_555
C19B O1B 1_555 1_555
C20B C3B 1_555 1_555
H16B C20B 1_555 1_555
C21B C4B 1_555 1_555
H17B C21B 1_555 1_555
C22B C12B 1_555 1_555
H18B C22B 1_555 1_555
C23B N3B 1_555 1_555
H19B C23B 1_555 1_555
C24B C4B 1_555 1_555
H20B C24B 1_555 1_555
C25B C3B 1_555 1_555
H21B C25B 1_555 1_555
C26B N4B 1_555 1_555
H22B C26B 1_555 1_555
N1 C17 1_555 1_555
C6 C21 1_555 1_555
C7 C20 1_555 1_555
C9 C17 1_555 1_555
C11 C19 1_555 1_555
C12 C22 1_555 1_555
C13 C26 1_555 1_555
C16 C19 1_555 1_555
C18 C24 1_555 1_555
C23 C25 1_555 1_555
N1B C17B 1_555 1_555
C6B C21B 1_555 1_555
C7B C20B 1_555 1_555
C9B C17B 1_555 1_555
C11B C19B 1_555 1_555
C13B C26B 1_555 1_555
C16B C19B 1_555 1_555
C18B C24B 1_555 1_555
C23B C25B 1_555 1_555

#END
