
#######################################################################
#
#                 Cambridge Crystallographic Data Centre
#                                CCDC 
#
#######################################################################
#
# If this CIF has been generated from an entry in the Cambridge 
# Structural Database, then it will include bibliographic, chemical, 
# crystal, experimental, refinement or atomic coordinate data resulting 
# from the CCDC's data processing and validation procedures.
#
#######################################################################

data_SUNQIC
_symmetry_cell_setting           orthorhombic
_symmetry_space_group_name_H-M   'P b c m'
_symmetry_Int_Tables_number      57
_space_group_name_Hall           '-P 2c 2b'
loop_
_symmetry_equiv_pos_site_id
_symmetry_equiv_pos_as_xyz
1 x,y,z
2 -x,-y,1/2+z
3 -x,1/2+y,1/2-z
4 x,1/2-y,-z
5 -x,-y,-z
6 x,y,1/2-z
7 x,1/2-y,1/2+z
8 -x,1/2+y,z
_cell_length_a                   5.9529(9)
_cell_length_b                   14.742(2)
_cell_length_c                   30.393(5)
_cell_angle_alpha                90
_cell_angle_beta                 90
_cell_angle_gamma                90
_cell_volume                     2667.22
loop_
_atom_site_label
_atom_site_type_symbol
_atom_site_fract_x
_atom_site_fract_y
_atom_site_fract_z
N1 N 1.2984(14) 0.5052(6) 0.6689(2)
C8 C 1.1485(18) 0.5033(5) 0.5824(3)
C9 C 1.0205(16) 0.4701(6) 0.6159(3)
H5 H 0.8786 0.4463 0.6103
C10 C 1.1034(18) 0.4721(7) 0.6579(3)
H6 H 1.0142 0.4482 0.6802
C11 C 1.4208(17) 0.5391(7) 0.6363(3)
H7 H 1.5597 0.5641 0.6432
C12 C 1.3554(19) 0.5396(6) 0.5929(3)
H8 H 1.4480 0.5638 0.5712
N2 N 1.287(3) 0.5323(10) 0.5040(5)
N3 N 1.210(3) 0.5281(10) 0.4609(5)
C13 C 1.128(3) 0.5057(9) 0.5318(5)
S1 S 1.1213(8) 0.5204(3) 0.49176(14)
C14 C 1.002(3) 0.4983(10) 0.5417(5)
N1D N 0.7016(14) 0.4948(6) 0.3311(2)
C8D C 0.8515(18) 0.4967(5) 0.4176(3)
C9D C 0.9795(16) 0.5299(6) 0.3841(3)
H5D H 1.1214 0.5537 0.3897
C10D C 0.8966(18) 0.5279(7) 0.3421(3)
H6D H 0.9858 0.5518 0.3198
C11D C 0.5792(17) 0.4609(7) 0.3637(3)
H7D H 0.4403 0.4359 0.3568
C12D C 0.6446(19) 0.4604(6) 0.4071(3)
H8D H 0.5520 0.4362 0.4288
N2D N 0.713(3) 0.4677(10) 0.4960(5)
N3D N 0.790(3) 0.4719(10) 0.5391(5)
C13D C 0.872(3) 0.4943(9) 0.4682(5)
S1D S 0.8787(8) 0.4796(3) 0.50824(14)
C14D C 0.998(3) 0.5017(10) 0.4583(5)
O7 O 0.844(2) 0.9040(8) 0.2243(4)
H14 H 0.7589 0.9436 0.2313
H15 H 0.7881 0.8569 0.2172
Cd1 Cd 0.36056(13) 0.79835(5) 0.7500
O1 O 0.9342(13) 0.7500 0.5000
O2 O 0.3349(10) 0.8130(4) 0.67094(17)
O3 O 0.6481(10) 0.7612(4) 0.69969(15)
C1 C 0.5304(13) 0.7828(5) 0.6669(2)
C2 C 0.6313(13) 0.7734(5) 0.6222(2)
C3 C 0.5183(13) 0.8050(5) 0.5858(2)
H1 H 0.3777 0.8316 0.5891
C4 C 0.6127(13) 0.7975(6) 0.5442(2)
H2 H 0.5364 0.8197 0.5198
C5 C 0.8207(13) 0.7570(6) 0.5393(2)
C6 C 0.9347(13) 0.7262(5) 0.5757(2)
H3 H 1.0750 0.6993 0.5724
C7 C 0.8421(13) 0.7350(5) 0.6171(2)
H4 H 0.9214 0.7152 0.6417
O4 O 0.2525(15) 0.6479(5) 0.7500
H9 H 0.3486 0.6100 0.7500
H10 H 0.1219 0.6322 0.7500
H11 H 0.5352 0.9670 0.7722
O5 O 0.4696(14) 0.9520(5) 0.7500
O6 O -0.0112(13) 0.8326(5) 0.7500
H12 H -0.0917 0.8761 0.7500
H13 H -0.0843 0.7871 0.7500
Cd1C Cd 0.36056(13) 0.70165(5) 0.2500
O2C O 0.3349(10) 0.6870(4) 0.32906(17)
O2E O 0.3349(10) 0.8130(4) 0.82906(17)
O3C O 0.6481(10) 0.7388(4) 0.30031(15)
O3E O 0.6481(10) 0.7612(4) 0.80031(15)
C1C C 0.5304(13) 0.7172(5) 0.3331(2)
C2C C 0.6313(13) 0.7266(5) 0.3778(2)
C3C C 0.5183(13) 0.6950(5) 0.4142(2)
H1C H 0.3777 0.6684 0.4109
C4C C 0.6127(13) 0.7025(6) 0.4558(2)
H2C H 0.5364 0.6803 0.4802
C5C C 0.8207(13) 0.7430(6) 0.4607(2)
C6C C 0.9347(13) 0.7738(5) 0.4243(2)
H3C H 1.0750 0.8007 0.4276
C7C C 0.8421(13) 0.7650(5) 0.3829(2)
H4C H 0.9214 0.7848 0.3583
H11E H 0.5352 0.9670 0.7278
loop_
_geom_bond_atom_site_label_1
_geom_bond_atom_site_label_2
_geom_bond_site_symmetry_1
_geom_bond_site_symmetry_2
Cd1 O2 1_555 1_555
O1 C5 1_555 1_555
O2 C1 1_555 1_555
O3 Cd1 1_555 1_555
C1 O3 1_555 1_555
C2 C1 1_555 1_555
C3 C2 1_555 1_555
H1 C3 1_555 1_555
C4 C3 1_555 1_555
H2 C4 1_555 1_555
C5 C4 1_555 1_555
C6 C5 1_555 1_555
H3 C6 1_555 1_555
C7 C2 1_555 1_555
H4 C7 1_555 1_555
N1 C10 1_555 1_555
C8 C9 1_555 1_555
C9 H5 1_555 1_555
C10 C9 1_555 1_555
H6 C10 1_555 1_555
C11 N1 1_555 1_555
H7 C11 1_555 1_555
C12 C8 1_555 1_555
H8 C12 1_555 1_555
N2 N3 1_555 1_555
N3 S1 1_555 1_555
C13 C8 1_555 1_555
S1 N2 1_555 1_555
C14 C8 1_555 1_555
O4 Cd1 1_555 1_555
H9 O4 1_555 1_555
H10 O4 1_555 1_555
H11 O5 1_555 1_555
O5 Cd1 1_555 1_555
O6 Cd1 1_555 1_555
H12 O6 1_555 1_555
H13 O6 1_555 1_555
O7 H14 1_555 1_555
H15 O7 1_555 1_555
Cd1C O2C 1_555 1_555
O2C C1C 1_555 1_555
O2E Cd1 1_555 1_555
O3C Cd1C 1_555 1_555
O3E Cd1 1_555 1_555
C1C O3C 1_555 1_555
C2C C1C 1_555 1_555
C3C C2C 1_555 1_555
H1C C3C 1_555 1_555
C4C C3C 1_555 1_555
H2C C4C 1_555 1_555
C5C O1 1_555 1_555
C6C C5C 1_555 1_555
H3C C6C 1_555 1_555
C7C C2C 1_555 1_555
H4C C7C 1_555 1_555
N1D C10D 1_555 1_555
C8D C9D 1_555 1_555
C9D H5D 1_555 1_555
C10D C9D 1_555 1_555
H6D C10D 1_555 1_555
C11D N1D 1_555 1_555
H7D C11D 1_555 1_555
C12D C8D 1_555 1_555
H8D C12D 1_555 1_555
N2D N3D 1_555 1_555
N3D C14 1_555 1_555
C13D S1 1_555 1_555
S1D C13 1_555 1_555
C14D N3 1_555 1_555
H11E O5 1_555 1_555
C6 C7 1_555 1_555
C11 C12 1_555 1_555
N2 C13 1_555 1_555
C13 S1 1_555 1_555
C13 C14 1_555 1_555
S1 C14 1_555 1_555
S1 S1D 1_555 1_555
S1 C14D 1_555 1_555
C14 S1D 1_555 1_555
C4C C5C 1_555 1_555
C6C C7C 1_555 1_555
C8D C13D 1_555 1_555
C8D C14D 1_555 1_555
C11D C12D 1_555 1_555
N2D C13D 1_555 1_555
N2D S1D 1_555 1_555
N3D S1D 1_555 1_555
C13D S1D 1_555 1_555
C13D C14D 1_555 1_555
S1D C14D 1_555 1_555

#END
