
#######################################################################
#
#                 Cambridge Crystallographic Data Centre
#                                CCDC 
#
#######################################################################
#
# If this CIF has been generated from an entry in the Cambridge 
# Structural Database, then it will include bibliographic, chemical, 
# crystal, experimental, refinement or atomic coordinate data resulting 
# from the CCDC's data processing and validation procedures.
#
#######################################################################

data_SUNTUS
_symmetry_cell_setting           monoclinic
_symmetry_space_group_name_H-M   'P 21/n'
_symmetry_Int_Tables_number      14
_space_group_name_Hall           '-P 2yn'
loop_
_symmetry_equiv_pos_site_id
_symmetry_equiv_pos_as_xyz
1 x,y,z
2 1/2-x,1/2+y,1/2-z
3 -x,-y,-z
4 1/2+x,1/2-y,1/2+z
_cell_length_a                   9.6178(6)
_cell_length_b                   14.0395(5)
_cell_length_c                   14.4328(8)
_cell_angle_alpha                90
_cell_angle_beta                 103.813(4)
_cell_angle_gamma                90
_cell_volume                     1892.49
loop_
_atom_site_label
_atom_site_type_symbol
_atom_site_fract_x
_atom_site_fract_y
_atom_site_fract_z
U1 U 0.48929(2) 0.45789(2) 0.31670(2)
O1 O 0.3130(4) 0.4865(3) 0.2564(2)
O2 O 0.6635(4) 0.4295(3) 0.3784(3)
O3 O 0.5387(5) 0.3714(4) 0.1791(3)
O4 O 0.4323(4) 0.2913(3) 0.2716(3)
O5 O 0.4043(3) 0.4010(2) 0.4434(2)
O6 O 0.5095(4) 0.3978(2) 0.5992(2)
O7 O 0.5748(7) 0.5701(4) 0.2269(4)
N1 N 0.6604(6) 0.6808(4) 0.1481(4)
C1 C 0.4890(6) 0.2940(5) 0.2010(4)
C2 C 0.4949(6) 0.2053(4) 0.1434(4)
C3 C 0.5837(7) 0.2008(5) 0.0822(5)
H1 H 0.6431 0.2536 0.0769
C4 C 0.5879(7) 0.1198(5) 0.0277(5)
H2 H 0.6531 0.1173 -0.0124
C5 C 0.5006(5) 0.0436(4) 0.0302(4)
C6 C 0.4115(6) 0.0491(4) 0.0941(4)
H3 H 0.3506 -0.0030 0.0989
C7 C 0.4103(6) 0.1285(4) 0.1499(4)
H4 H 0.3501 0.1299 0.1934
C8 C 0.4570(5) 0.3567(4) 0.5214(4)
C9 C 0.4615(5) 0.2513(4) 0.5192(3)
C10 C 0.3760(5) 0.2005(4) 0.4435(4)
H5 H 0.3081 0.2336 0.3957
C11 C 0.3885(5) 0.1022(4) 0.4368(3)
H6 H 0.3278 0.0688 0.3855
C12 C 0.4895(5) 0.0526(3) 0.5047(4)
C13 C 0.5715(6) 0.1036(4) 0.5819(4)
H7 H 0.6387 0.0708 0.6303
C14 C 0.5563(6) 0.2005(4) 0.5888(4)
H8 H 0.6121 0.2333 0.6425
C15 C 0.6540(10) 0.5956(6) 0.1730(6)
C16 C 0.7481(16) 0.5244(7) 0.1378(12)
H9 H 0.6995 0.5026 0.0737
H10 H 0.7668 0.4698 0.1813
H11 H 0.8390 0.5548 0.1355
C17 C 0.7392(6) 0.7109(5) 0.0786(5)
H12 H 0.8423 0.7071 0.1073
H13 H 0.7135 0.7767 0.0591
H14 H 0.7150 0.6691 0.0227
C18 C 0.5905(10) 0.7510(6) 0.1961(7)
H15 H 0.5255 0.7186 0.2288
H16 H 0.5358 0.7956 0.1489
H17 H 0.6630 0.7861 0.2429
O3B O 0.4613(5) -0.3714(4) -0.1791(3)
O4B O 0.5677(4) -0.2913(3) -0.2716(3)
C1B C 0.5110(6) -0.2940(5) -0.2010(4)
C2B C 0.5051(6) -0.2053(4) -0.1434(4)
C3B C 0.4163(7) -0.2008(5) -0.0822(5)
H1B H 0.3569 -0.2536 -0.0769
C4B C 0.4121(7) -0.1198(5) -0.0277(5)
H2B H 0.3469 -0.1173 0.0124
C5B C 0.4994(5) -0.0436(4) -0.0302(4)
C6B C 0.5885(6) -0.0491(4) -0.0941(4)
H3B H 0.6494 0.0030 -0.0989
C7B C 0.5897(6) -0.1285(4) -0.1499(4)
H4B H 0.6499 -0.1299 -0.1934
O5B O 0.5957(3) -0.4010(2) 0.5566(2)
O6B O 0.4905(4) -0.3978(2) 0.4008(2)
C8B C 0.5430(5) -0.3567(4) 0.4786(4)
C9B C 0.5385(5) -0.2513(4) 0.4808(3)
C10B C 0.6240(5) -0.2005(4) 0.5565(4)
H5B H 0.6919 -0.2336 0.6043
C11B C 0.6115(5) -0.1022(4) 0.5632(3)
H6B H 0.6722 -0.0688 0.6145
C12B C 0.5105(5) -0.0526(3) 0.4953(4)
C13B C 0.4285(6) -0.1036(4) 0.4181(4)
H7B H 0.3613 -0.0708 0.3697
C14B C 0.4437(6) -0.2005(4) 0.4112(4)
H8B H 0.3879 -0.2333 0.3575
U1B U 0.51071(2) -0.45789(2) -0.31670(2)
O1B O 0.6870(4) -0.4865(3) -0.2564(2)
O2B O 0.3365(4) -0.4295(3) -0.3784(3)
O7B O 0.4252(7) -0.5701(4) -0.2269(4)
N1B N 0.3396(6) -0.6808(4) -0.1481(4)
C15B C 0.3460(10) -0.5956(6) -0.1730(6)
C16B C 0.2519(16) -0.5244(7) -0.1378(12)
H9B H 0.3005 -0.5026 -0.0737
H10B H 0.2332 -0.4698 -0.1813
H11B H 0.1610 -0.5548 -0.1355
C17B C 0.2608(6) -0.7109(5) -0.0786(5)
H12B H 0.1577 -0.7071 -0.1073
H13B H 0.2865 -0.7767 -0.0591
H14B H 0.2850 -0.6691 -0.0227
C18B C 0.4095(10) -0.7510(6) -0.1961(7)
H15B H 0.4745 -0.7186 -0.2288
H16B H 0.4642 -0.7956 -0.1489
H17B H 0.3370 -0.7861 -0.2429
U1_2 U 0.48929(2) -0.54211(2) 0.31670(2)
U1B_2 U 0.51071(2) -0.45789(2) 0.68330(2)
U1B_3 U 0.51071(2) 0.54211(2) 0.68330(2)
O5B_2 O 0.5957(3) -0.4010(2) -0.4434(2)
O6_2 O 0.5095(4) -0.6022(2) -0.4008(2)
O6B_2 O 0.4905(4) 0.6022(2) 0.4008(2)
loop_
_geom_bond_atom_site_label_1
_geom_bond_atom_site_label_2
_geom_bond_site_symmetry_1
_geom_bond_site_symmetry_2
U1 O1 1_555 1_555
O2 U1 1_555 1_555
O3 U1 1_555 1_555
O4 U1 1_555 1_555
O5 U1 1_555 1_555
O6 C8 1_555 1_555
O7 U1 1_555 1_555
N1 C15 1_555 1_555
C1 O3 1_555 1_555
C2 C1 1_555 1_555
C3 C2 1_555 1_555
H1 C3 1_555 1_555
C4 C3 1_555 1_555
H2 C4 1_555 1_555
C5 C4 1_555 1_555
C6 C5 1_555 1_555
H3 C6 1_555 1_555
C7 C2 1_555 1_555
H4 C7 1_555 1_555
C8 O5 1_555 1_555
C9 C8 1_555 1_555
C10 C9 1_555 1_555
H5 C10 1_555 1_555
C11 C10 1_555 1_555
H6 C11 1_555 1_555
C12 C11 1_555 1_555
C13 C12 1_555 1_555
H7 C13 1_555 1_555
C14 C9 1_555 1_555
H8 C14 1_555 1_555
C15 O7 1_555 1_555
C16 C15 1_555 1_555
H9 C16 1_555 1_555
H10 C16 1_555 1_555
H11 C16 1_555 1_555
C17 N1 1_555 1_555
H12 C17 1_555 1_555
H13 C17 1_555 1_555
H14 C17 1_555 1_555
C18 N1 1_555 1_555
H15 C18 1_555 1_555
H16 C18 1_555 1_555
H17 C18 1_555 1_555
O3B C1B 1_555 1_555
O4B C1B 1_555 1_555
C1B C2B 1_555 1_555
C2B C3B 1_555 1_555
C3B H1B 1_555 1_555
C4B C3B 1_555 1_555
H2B C4B 1_555 1_555
C5B C5 1_555 1_555
C6B C5B 1_555 1_555
H3B C6B 1_555 1_555
C7B C2B 1_555 1_555
H4B C7B 1_555 1_555
O5B C8B 1_555 1_555
O6B C8B 1_555 1_555
C8B C9B 1_555 1_555
C9B C10B 1_555 1_555
C10B H5B 1_555 1_555
C11B C10B 1_555 1_555
H6B C11B 1_555 1_555
C12B C12 1_555 1_555
C13B C12B 1_555 1_555
H7B C13B 1_555 1_555
C14B C9B 1_555 1_555
H8B C14B 1_555 1_555
U1B O3B 1_555 1_555
O1B U1B 1_555 1_555
O2B U1B 1_555 1_555
O7B U1B 1_555 1_555
N1B C15B 1_555 1_555
C15B O7B 1_555 1_555
C16B C15B 1_555 1_555
H9B C16B 1_555 1_555
H10B C16B 1_555 1_555
H11B C16B 1_555 1_555
C17B N1B 1_555 1_555
H12B C17B 1_555 1_555
H13B C17B 1_555 1_555
H14B C17B 1_555 1_555
C18B N1B 1_555 1_555
H15B C18B 1_555 1_555
H16B C18B 1_555 1_555
H17B C18B 1_555 1_555
U1_2 O6B 1_555 1_555
U1B_2 O5B 1_555 1_555
U1B_3 O6 1_555 1_555
O5B_2 U1B 1_555 1_555
O6_2 U1B 1_555 1_555
O6B_2 U1 1_555 1_555
O4 C1 1_555 1_555
C6 C7 1_555 1_555
C13 C14 1_555 1_555
O4B U1B 1_555 1_555
C4B C5B 1_555 1_555
C6B C7B 1_555 1_555
C11B C12B 1_555 1_555
C13B C14B 1_555 1_555

#END
