
#######################################################################
#
#                 Cambridge Crystallographic Data Centre
#                                CCDC 
#
#######################################################################
#
# If this CIF has been generated from an entry in the Cambridge 
# Structural Database, then it will include bibliographic, chemical, 
# crystal, experimental, refinement or atomic coordinate data resulting 
# from the CCDC's data processing and validation procedures.
#
#######################################################################

data_SUNVAA
_symmetry_cell_setting           monoclinic
_symmetry_space_group_name_H-M   'P 21/n'
_symmetry_Int_Tables_number      14
_space_group_name_Hall           '-P 2yn'
loop_
_symmetry_equiv_pos_site_id
_symmetry_equiv_pos_as_xyz
1 x,y,z
2 1/2-x,1/2+y,1/2-z
3 -x,-y,-z
4 1/2+x,1/2-y,1/2+z
_cell_length_a                   9.9581(5)
_cell_length_b                   11.8537(4)
_cell_length_c                   16.0919(9)
_cell_angle_alpha                90
_cell_angle_beta                 100.471(3)
_cell_angle_gamma                90
_cell_volume                     1867.86
loop_
_atom_site_label
_atom_site_type_symbol
_atom_site_fract_x
_atom_site_fract_y
_atom_site_fract_z
U1 U 0.08897(2) 0.66199(2) 0.59794(2)
O1 O 0.0450(4) 0.6337(3) 0.6975(2)
O2 O 0.1332(4) 0.6877(3) 0.4986(2)
O3 O 0.2573(3) 0.8009(3) 0.6665(2)
O4 O 0.3278(4) 0.6285(3) 0.6499(3)
O5 O 1.3803(3) 0.9712(3) 0.9201(2)
O6 O 1.3577(3) 0.8802(3) 1.0380(2)
O7 O -0.0317(4) 0.8386(3) 0.5787(2)
N1 N -0.2320(7) 0.9192(6) 0.5050(5)
C1 C 0.3523(5) 0.7291(4) 0.6767(3)
C2 C 0.4925(5) 0.7585(4) 0.7205(3)
C3 C 0.5199(5) 0.8608(4) 0.7638(3)
H1 H 0.4489 0.9144 0.7634
C4 C 0.6498(5) 0.8840(4) 0.8070(3)
H2 H 0.6665 0.9527 0.8375
C5 C 0.7574(5) 0.8080(5) 0.8068(3)
C6 C 0.7300(5) 0.7070(5) 0.7628(3)
H3 H 0.8023 0.6552 0.7614
C7 C 0.5990(5) 0.6806(4) 0.7209(3)
H4 H 0.5816 0.6102 0.6927
C8 C 0.8990(5) 0.8349(4) 0.8487(3)
C9 C 0.9364(6) 0.8410(5) 0.9364(4)
H5 H 0.8691 0.8301 0.9706
C10 C 1.0706(6) 0.8629(5) 0.9744(4)
H6 H 1.0957 0.8634 1.0343
C11 C 1.1674(5) 0.8840(4) 0.9248(3)
C12 C 1.1302(5) 0.8809(4) 0.8374(3)
H7 H 1.1958 0.8977 0.8030
C13 C 0.9982(5) 0.8535(4) 0.8002(3)
H8 H 0.9752 0.8473 0.7405
C14 C 1.3093(4) 0.9146(4) 0.9633(3)
C15 C -0.1035(7) 0.8684(6) 0.5120(4)
C16 C -0.0802(7) 0.8638(6) 0.4202(4)
H9 H 0.0088 0.8981 0.4156
H10 H -0.0812 0.7848 0.4002
C17 C -0.1953(8) 0.9295(8) 0.3691(5)
H11 H -0.2356 0.8872 0.3176
H12 H -0.1621 1.0032 0.3521
C18 C -0.3018(6) 0.9467(6) 0.4261(4)
H13 H -0.3336 1.0260 0.4242
H14 H -0.3815 0.8965 0.4090
C19 C -0.2821(9) 0.9328(7) 0.5839(5)
H15 H -0.2049 0.9459 0.6301
H16 H -0.3306 0.8642 0.5955
H17 H -0.3445 0.9973 0.5792
U1A U 1.41103(2) 1.16199(2) 0.90206(2)
U1C U 1.58897(2) 0.83801(2) 1.09794(2)
O5A O 0.1197(3) 0.4712(3) 0.5799(2)
O6C O -0.1423(3) 0.6198(3) 0.5380(2)
loop_
_geom_bond_atom_site_label_1
_geom_bond_atom_site_label_2
_geom_bond_site_symmetry_1
_geom_bond_site_symmetry_2
U1 O1 1_555 1_555
O2 U1 1_555 1_555
O3 U1 1_555 1_555
O4 U1 1_555 1_555
O5 C14 1_555 1_555
O6 C14 1_555 1_555
O7 U1 1_555 1_555
N1 C15 1_555 1_555
C1 O3 1_555 1_555
C2 C1 1_555 1_555
C3 C2 1_555 1_555
H1 C3 1_555 1_555
C4 C3 1_555 1_555
H2 C4 1_555 1_555
C5 C4 1_555 1_555
C6 C5 1_555 1_555
H3 C6 1_555 1_555
C7 C2 1_555 1_555
H4 C7 1_555 1_555
C8 C5 1_555 1_555
C9 C8 1_555 1_555
H5 C9 1_555 1_555
C10 C9 1_555 1_555
H6 C10 1_555 1_555
C11 C10 1_555 1_555
C12 C11 1_555 1_555
H7 C12 1_555 1_555
C13 C8 1_555 1_555
H8 C13 1_555 1_555
C14 C11 1_555 1_555
C15 O7 1_555 1_555
C16 C15 1_555 1_555
H9 C16 1_555 1_555
H10 C16 1_555 1_555
C17 C16 1_555 1_555
H11 C17 1_555 1_555
H12 C17 1_555 1_555
C18 N1 1_555 1_555
H13 C18 1_555 1_555
H14 C18 1_555 1_555
C19 N1 1_555 1_555
H15 C19 1_555 1_555
H16 C19 1_555 1_555
H17 C19 1_555 1_555
U1A O5 1_555 1_555
U1C O6 1_555 1_555
O5A U1 1_555 1_555
O6C U1 1_555 1_555
O4 C1 1_555 1_555
C6 C7 1_555 1_555
C12 C13 1_555 1_555
C17 C18 1_555 1_555

#END
