
#######################################################################
#
#                 Cambridge Crystallographic Data Centre
#                                CCDC 
#
#######################################################################
#
# If this CIF has been generated from an entry in the Cambridge 
# Structural Database, then it will include bibliographic, chemical, 
# crystal, experimental, refinement or atomic coordinate data resulting 
# from the CCDC's data processing and validation procedures.
#
#######################################################################

data_SUNVOO
_symmetry_cell_setting           tetragonal
_symmetry_space_group_name_H-M   'I -4 c 2'
_symmetry_Int_Tables_number      120
_space_group_name_Hall           'I -4 -2c'
loop_
_symmetry_equiv_pos_site_id
_symmetry_equiv_pos_as_xyz
1 x,y,z
2 y,-x,-z
3 -x,-y,z
4 -y,x,-z
5 -x,y,1/2+z
6 y,x,1/2-z
7 x,-y,1/2+z
8 -y,-x,1/2-z
9 1/2+x,1/2+y,1/2+z
10 1/2+y,1/2-x,1/2-z
11 1/2-x,1/2-y,1/2+z
12 1/2-y,1/2+x,1/2-z
13 1/2-x,1/2+y,z
14 1/2+y,1/2+x,-z
15 1/2+x,1/2-y,z
16 1/2-y,1/2-x,-z
_cell_length_a                   26.3865(6)
_cell_length_b                   26.3865(6)
_cell_length_c                   47.5157(17)
_cell_angle_alpha                90
_cell_angle_beta                 90
_cell_angle_gamma                90
_cell_volume                     33082.7
loop_
_atom_site_label
_atom_site_type_symbol
_atom_site_fract_x
_atom_site_fract_y
_atom_site_fract_z
U1 U 0.04662(2) 0.21158(2) 0.47642(2)
U2 U 0.07353(2) 0.29162(2) 0.80242(2)
O1 O -0.0186(4) 0.2000(4) 0.4791(3)
O2 O 0.1129(4) 0.2234(3) 0.4746(2)
O3 O 0.0069(4) 0.3007(4) 0.8059(2)
O4 O 0.1394(4) 0.2822(3) 0.7986(2)
O5 O 0.0414(4) 0.2640(4) 0.5189(2)
O6 O 0.0586(4) 0.1829(3) 0.5250(2)
O7 O 0.0722(4) 0.3254(4) 0.7543(2)
O8 O 0.0575(4) 0.2440(4) 0.7596(2)
O9 O 0.0611(3) 0.1179(3) 0.4783(2)
O10 O 0.0549(5) 0.1547(4) 0.4371(2)
O11 O 0.0629(5) -0.2011(4) 0.3104(2)
O12 O 0.0743(4) -0.2475(4) 0.3478(2)
O13 O 0.0351(5) 0.2539(4) 0.4304(2)
O14 O 0.0308(5) 0.3013(4) 0.4677(2)
O15 O 0.0921(5) 0.6527(4) 0.3415(2)
O16 O 0.0814(4) 0.6152(3) 0.3014(2)
C1 C 0.0539(6) 0.2279(6) 0.5353(3)
C2 C 0.0599(6) 0.2368(5) 0.5654(3)
C3 C 0.0490(5) 0.2836(5) 0.5769(3)
H1 H 0.0381 0.3102 0.5649
C4 C 0.0535(5) 0.2930(5) 0.6055(3)
H2 H 0.0470 0.3260 0.6128
C5 C 0.0674(5) 0.2542(4) 0.6233(3)
C6 C 0.0796(6) 0.2066(5) 0.6125(3)
H3 H 0.0899 0.1801 0.6248
C7 C 0.0763(6) 0.1983(5) 0.5837(3)
H4 H 0.0853 0.1661 0.5763
C8 C 0.0666(5) 0.2609(5) 0.6540(3)
C9 C 0.0771(5) 0.3088(5) 0.6661(3)
H5 H 0.0851 0.3366 0.6542
C10 C 0.0758(5) 0.3159(5) 0.6951(3)
H6 H 0.0827 0.3485 0.7027
C11 C 0.0645(5) 0.2763(5) 0.7129(3)
C12 C 0.0538(5) 0.2278(5) 0.7011(3)
H7 H 0.0464 0.1998 0.7130
C13 C 0.0544(5) 0.2220(5) 0.6723(3)
H8 H 0.0461 0.1898 0.6647
C14 C 0.0652(5) 0.2818(5) 0.7435(3)
C15 C 0.0595(5) 0.1164(6) 0.4513(3)
C16 C 0.0643(5) 0.0665(5) 0.4362(3)
C17 C 0.0633(7) 0.0690(6) 0.4073(3)
H9 H 0.0600 0.1007 0.3980
C18 C 0.0671(7) 0.0232(7) 0.3913(4)
H10 H 0.0688 0.0245 0.3714
C19 C 0.0683(5) -0.0243(5) 0.4056(3)
C20 C 0.0686(6) -0.0233(6) 0.4340(3)
H11 H 0.0696 -0.0548 0.4438
C21 C 0.0677(6) 0.0216(6) 0.4501(3)
H12 H 0.0694 0.0206 0.4701
C22 C 0.0680(6) -0.0705(6) 0.3879(3)
C23 C 0.0694(10) -0.0690(8) 0.3588(5)
H13 H 0.0698 -0.0366 0.3501
C24 C 0.0702(8) -0.1099(7) 0.3420(4)
H14 H 0.0724 -0.1064 0.3222
C25 C 0.0678(6) -0.1564(6) 0.3543(3)
C26 C 0.0670(6) -0.1597(6) 0.3827(4)
H15 H 0.0667 -0.1922 0.3913
C27 C 0.0666(7) -0.1179(7) 0.3993(4)
H16 H 0.0653 -0.1217 0.4192
C28 C 0.0678(6) -0.2039(6) 0.3370(4)
C29 C 0.0332(6) 0.2969(6) 0.4415(3)
C30 C 0.0396(5) 0.3413(5) 0.4226(3)
C31 C 0.0407(10) 0.3870(8) 0.4344(4)
H17 H 0.0347 0.3898 0.4540
C32 C 0.0507(9) 0.4331(7) 0.4184(4)
H18 H 0.0536 0.4652 0.4273
C33 C 0.0555(5) 0.4275(5) 0.3901(3)
C34 C 0.0528(8) 0.3808(7) 0.3785(4)
H19 H 0.0558 0.3769 0.3587
C35 C 0.0457(8) 0.3394(6) 0.3952(4)
H20 H 0.0451 0.3071 0.3864
C36 C 0.0665(5) 0.4746(6) 0.3737(3)
C37 C 0.0795(7) 0.5189(6) 0.3866(3)
H21 H 0.0837 0.5195 0.4065
C38 C 0.0863(7) 0.5620(6) 0.3717(4)
H22 H 0.0950 0.5924 0.3812
C39 C 0.0807(6) 0.5626(6) 0.3421(3)
C40 C 0.0711(6) 0.5186(5) 0.3287(3)
H23 H 0.0704 0.5180 0.3087
C41 C 0.0620(6) 0.4737(6) 0.3436(3)
H24 H 0.0531 0.4434 0.3340
C42 C 0.0851(5) 0.6126(5) 0.3277(3)
U2F U 0.07353(2) -0.29162(2) 0.30242(2)
U2F_2 U 0.07353(2) 0.70838(2) 0.30242(2)
O11F O 0.0629(5) 0.2011(4) 0.8104(2)
O12F O 0.0743(4) 0.2475(4) 0.8478(2)
O15F O 0.0921(5) 0.3473(4) 0.8415(2)
O16F O 0.0814(4) 0.3848(3) 0.8014(2)
Ni1 Ni 0.72016(6) 0.73624(7) 0.61056(4)
N1 N 0.7742(5) 0.7256(4) 0.5797(3)
N2 N 0.7255(4) 0.8089(4) 0.5943(2)
N3 N 0.6592(4) 0.7196(4) 0.5842(2)
N4 N 0.6590(4) 0.7531(4) 0.6371(2)
N5 N 0.7235(4) 0.6634(4) 0.6270(3)
N6 N 0.7716(4) 0.7466(4) 0.6434(2)
C43 C 0.7967(5) 0.6802(6) 0.5729(3)
H25 H 0.7913 0.6512 0.5844
C44 C 0.8273(5) 0.6769(6) 0.5492(3)
H26 H 0.8439 0.6459 0.5449
C45 C 0.8339(7) 0.7188(6) 0.5318(4)
H27 H 0.8545 0.7162 0.5154
C46 C 0.8113(5) 0.7628(7) 0.5381(3)
H28 H 0.8155 0.7912 0.5261
C47 C 0.7817(5) 0.7671(6) 0.5623(3)
C48 C 0.7540(7) 0.8136(6) 0.5715(4)
C49 C 0.7604(9) 0.8596(7) 0.5571(4)
H29 H 0.7805 0.8619 0.5406
C50 C 0.7366(9) 0.9004(7) 0.5679(4)
H30 H 0.7411 0.9326 0.5593
C51 C 0.7062(7) 0.8964(7) 0.5909(4)
H31 H 0.6879 0.9248 0.5978
C52 C 0.7029(5) 0.8507(6) 0.6037(3)
H32 H 0.6831 0.8484 0.6203
C53 C 0.6612(6) 0.7022(5) 0.5578(3)
H33 H 0.6935 0.6994 0.5492
C54 C 0.6208(7) 0.6885(6) 0.5426(3)
H34 H 0.6246 0.6764 0.5239
C55 C 0.5728(6) 0.6924(7) 0.5548(4)
H35 H 0.5436 0.6823 0.5446
C56 C 0.5682(6) 0.7110(6) 0.5819(4)
H36 H 0.5359 0.7156 0.5903
C57 C 0.6129(5) 0.7229(6) 0.5966(3)
C58 C 0.6129(5) 0.7450(5) 0.6259(3)
C59 C 0.5675(6) 0.7559(8) 0.6399(4)
H37 H 0.5356 0.7503 0.6312
C60 C 0.5708(6) 0.7753(8) 0.6673(4)
H38 H 0.5411 0.7829 0.6779
C61 C 0.6176(6) 0.7830(6) 0.6783(3)
H39 H 0.6213 0.7954 0.6970
C62 C 0.6596(5) 0.7728(6) 0.6624(3)
H40 H 0.6917 0.7806 0.6704
C63 C 0.7026(6) 0.6215(5) 0.6154(3)
H41 H 0.6853 0.6233 0.5979
C64 C 0.7070(7) 0.5756(5) 0.6297(4)
H42 H 0.6930 0.5457 0.6217
C65 C 0.7321(8) 0.5731(7) 0.6558(4)
H43 H 0.7332 0.5421 0.6660
C66 C 0.7541(6) 0.6143(6) 0.6662(4)
H44 H 0.7727 0.6125 0.6833
C67 C 0.7497(6) 0.6598(7) 0.6519(3)
C68 C 0.7720(5) 0.7077(6) 0.6612(3)
C69 C 0.7941(6) 0.7127(7) 0.6889(3)
H45 H 0.7947 0.6849 0.7016
C70 C 0.8141(6) 0.7592(7) 0.6963(4)
H46 H 0.8278 0.7639 0.7146
C71 C 0.8146(5) 0.7990(6) 0.6774(3)
H47 H 0.8285 0.8311 0.6821
C72 C 0.7929(5) 0.7890(6) 0.6508(3)
H48 H 0.7939 0.8154 0.6372
O17 O -0.1064(5) 0.1347(5) 0.4728(3)
H49 H -0.0708 0.1418 0.4766
H50 H -0.1159 0.1240 0.4904
O18 O -0.0706(6) 0.3687(7) 0.7876(5)
H51 H -0.0424 0.3527 0.7918
H52 H -0.0870 0.3634 0.8061
O19 O 0.2266(7) 0.2923(6) 0.7611(4)
H53 H 0.1909 0.2825 0.7566
H54 H 0.2220 0.3247 0.7605
O20 O 0.0526(7) 0.5533(6) 0.2525(4)
H55 H 0.0819 0.5703 0.2595
H56 H 0.0195 0.5615 0.2546
O21 O -0.1133(7) 0.2891(9) 0.7590(5)
O22 O -0.0505(10) 0.2040(13) 0.7606(8)
H57 H -0.0825 0.2187 0.7622
H58 H -0.0307 0.2020 0.7747
O23 O 0.0661(13) 0.3733(10) 0.5145(6)
loop_
_geom_bond_atom_site_label_1
_geom_bond_atom_site_label_2
_geom_bond_site_symmetry_1
_geom_bond_site_symmetry_2
U1 O1 1_555 1_555
U2 O3 1_555 1_555
O2 U1 1_555 1_555
O4 U2 1_555 1_555
O5 U1 1_555 1_555
O6 U1 1_555 1_555
O7 U2 1_555 1_555
O8 U2 1_555 1_555
O9 U1 1_555 1_555
O10 U1 1_555 1_555
O11 C28 1_555 1_555
O12 C28 1_555 1_555
O13 U1 1_555 1_555
O14 U1 1_555 1_555
O15 C42 1_555 1_555
O16 C42 1_555 1_555
C1 O5 1_555 1_555
C2 C1 1_555 1_555
C3 C2 1_555 1_555
H1 C3 1_555 1_555
C4 C3 1_555 1_555
H2 C4 1_555 1_555
C5 C4 1_555 1_555
C6 C5 1_555 1_555
H3 C6 1_555 1_555
C7 C2 1_555 1_555
H4 C7 1_555 1_555
C8 C5 1_555 1_555
C9 C8 1_555 1_555
H5 C9 1_555 1_555
C10 C9 1_555 1_555
H6 C10 1_555 1_555
C11 C10 1_555 1_555
C12 C11 1_555 1_555
H7 C12 1_555 1_555
C13 C8 1_555 1_555
H8 C13 1_555 1_555
C14 O7 1_555 1_555
C15 O9 1_555 1_555
C16 C15 1_555 1_555
C17 C16 1_555 1_555
H9 C17 1_555 1_555
C18 C17 1_555 1_555
H10 C18 1_555 1_555
C19 C18 1_555 1_555
C20 C19 1_555 1_555
H11 C20 1_555 1_555
C21 C16 1_555 1_555
H12 C21 1_555 1_555
C22 C19 1_555 1_555
C23 C22 1_555 1_555
H13 C23 1_555 1_555
C24 C23 1_555 1_555
H14 C24 1_555 1_555
C25 C24 1_555 1_555
C26 C25 1_555 1_555
H15 C26 1_555 1_555
C27 C22 1_555 1_555
H16 C27 1_555 1_555
C28 C25 1_555 1_555
C29 O13 1_555 1_555
C30 C29 1_555 1_555
C31 C30 1_555 1_555
H17 C31 1_555 1_555
C32 C31 1_555 1_555
H18 C32 1_555 1_555
C33 C32 1_555 1_555
C34 C33 1_555 1_555
H19 C34 1_555 1_555
C35 C30 1_555 1_555
H20 C35 1_555 1_555
C36 C33 1_555 1_555
C37 C36 1_555 1_555
H21 C37 1_555 1_555
C38 C37 1_555 1_555
H22 C38 1_555 1_555
C39 C38 1_555 1_555
C40 C39 1_555 1_555
H23 C40 1_555 1_555
C41 C36 1_555 1_555
H24 C41 1_555 1_555
C42 C39 1_555 1_555
Ni1 N1 1_555 1_555
N1 C43 1_555 1_555
N2 Ni1 1_555 1_555
N3 Ni1 1_555 1_555
N4 Ni1 1_555 1_555
N5 Ni1 1_555 1_555
N6 Ni1 1_555 1_555
C43 H25 1_555 1_555
C44 C43 1_555 1_555
H26 C44 1_555 1_555
C45 C44 1_555 1_555
H27 C45 1_555 1_555
C46 C45 1_555 1_555
H28 C46 1_555 1_555
C47 N1 1_555 1_555
C48 N2 1_555 1_555
C49 C48 1_555 1_555
H29 C49 1_555 1_555
C50 C49 1_555 1_555
H30 C50 1_555 1_555
C51 C50 1_555 1_555
H31 C51 1_555 1_555
C52 N2 1_555 1_555
H32 C52 1_555 1_555
C53 N3 1_555 1_555
H33 C53 1_555 1_555
C54 C53 1_555 1_555
H34 C54 1_555 1_555
C55 C54 1_555 1_555
H35 C55 1_555 1_555
C56 C55 1_555 1_555
H36 C56 1_555 1_555
C57 N3 1_555 1_555
C58 N4 1_555 1_555
C59 C58 1_555 1_555
H37 C59 1_555 1_555
C60 C59 1_555 1_555
H38 C60 1_555 1_555
C61 C60 1_555 1_555
H39 C61 1_555 1_555
C62 N4 1_555 1_555
H40 C62 1_555 1_555
C63 N5 1_555 1_555
H41 C63 1_555 1_555
C64 C63 1_555 1_555
H42 C64 1_555 1_555
C65 C64 1_555 1_555
H43 C65 1_555 1_555
C66 C65 1_555 1_555
H44 C66 1_555 1_555
C67 N5 1_555 1_555
C68 N6 1_555 1_555
C69 C68 1_555 1_555
H45 C69 1_555 1_555
C70 C69 1_555 1_555
H46 C70 1_555 1_555
C71 C70 1_555 1_555
H47 C71 1_555 1_555
C72 N6 1_555 1_555
H48 C72 1_555 1_555
O17 H49 1_555 1_555
H50 O17 1_555 1_555
O18 H51 1_555 1_555
H52 O18 1_555 1_555
O19 H53 1_555 1_555
H54 O19 1_555 1_555
O20 H55 1_555 1_555
H56 O20 1_555 1_555
O22 H57 1_555 1_555
H58 O22 1_555 1_555
U2F O11 1_555 1_555
U2F_2 O15 1_555 1_555
O11F U2 1_555 1_555
O12F U2 1_555 1_555
O15F U2 1_555 1_555
O16F U2 1_555 1_555
O6 C1 1_555 1_555
O8 C14 1_555 1_555
O10 C15 1_555 1_555
O12 U2F 1_555 1_555
O14 C29 1_555 1_555
O16 U2F_2 1_555 1_555
C6 C7 1_555 1_555
C11 C14 1_555 1_555
C12 C13 1_555 1_555
C20 C21 1_555 1_555
C26 C27 1_555 1_555
C34 C35 1_555 1_555
C40 C41 1_555 1_555
C46 C47 1_555 1_555
C47 C48 1_555 1_555
C51 C52 1_555 1_555
C56 C57 1_555 1_555
C57 C58 1_555 1_555
C61 C62 1_555 1_555
C66 C67 1_555 1_555
C67 C68 1_555 1_555
C71 C72 1_555 1_555

#END
