
#######################################################################
#
#                 Cambridge Crystallographic Data Centre
#                                CCDC 
#
#######################################################################
#
# If this CIF has been generated from an entry in the Cambridge 
# Structural Database, then it will include bibliographic, chemical, 
# crystal, experimental, refinement or atomic coordinate data resulting 
# from the CCDC's data processing and validation procedures.
#
#######################################################################

data_SUPLOF
_symmetry_cell_setting           tetragonal
_symmetry_space_group_name_H-M   'P -4 21 c'
_symmetry_Int_Tables_number      114
_space_group_name_Hall           'P -4 2n'
loop_
_symmetry_equiv_pos_site_id
_symmetry_equiv_pos_as_xyz
1 x,y,z
2 -x,-y,z
3 1/2+x,1/2-y,1/2-z
4 1/2-x,1/2+y,1/2-z
5 1/2+y,1/2+x,1/2+z
6 1/2-y,1/2-x,1/2+z
7 -y,x,-z
8 y,-x,-z
_cell_length_a                   17.48(2)
_cell_length_b                   17.48(2)
_cell_length_c                   22.69(2)
_cell_angle_alpha                90
_cell_angle_beta                 90
_cell_angle_gamma                90
_cell_volume                     6932.94
loop_
_atom_site_label
_atom_site_type_symbol
_atom_site_fract_x
_atom_site_fract_y
_atom_site_fract_z
Zn1 Zn 0.43167(3) 0.91705(3) 0.20296(3)
N1 N 0.4330(2) 0.9214(2) 0.2991(2)
N2 N 0.4169(3) 0.9322(3) 0.6097(2)
C1 C 0.4184(4) 0.9242(3) 0.4864(2)
C2 C 0.4225(4) 0.9227(4) 0.4214(3)
O1 O 0.3779(2) 1.0186(2) 0.2027(2)
C3 C 0.3931(3) 1.0875(3) 0.2097(2)
C4 C 0.3841(4) 0.9850(4) 0.5165(3)
H1 H 0.3601 1.0251 0.4950
O2 O 0.4116(2) 1.2531(2) 0.2363(2)
H2 H 0.4455 1.2209 0.2280
C5 C 0.3300(3) 1.1404(3) 0.2268(2)
C6 C 0.2819(4) 1.2628(4) 0.2564(3)
H3 H 0.2904 1.3152 0.2654
C7 C 0.3432(3) 1.2180(3) 0.2392(3)
C8 C 0.2082(3) 1.2333(4) 0.2611(3)
C9 C 0.4887(3) 0.8935(4) 0.3329(3)
H4 H 0.5326 0.8728 0.3141
O3 O 0.1240(2) 1.1236(3) 0.2508(3)
H5 H 0.0914 1.1581 0.2572
C10 C 0.4471(4) 0.8722(4) 0.5813(3)
H6 H 0.4680 0.8314 0.6038
C11 C 0.3713(4) 0.9494(4) 0.3264(3)
H7 H 0.3307 0.9690 0.3030
C12 C 0.3851(4) 0.9870(4) 0.5762(3)
H8 H 0.3620 1.0295 0.5954
C13 C 0.4490(4) 0.8674(4) 0.5212(3)
H9 H 0.4719 0.8240 0.5031
C14 C 0.1958(3) 1.1555(4) 0.2486(3)
C15 C 0.4862(4) 0.8930(4) 0.3930(3)
H10 H 0.5276 0.8726 0.4151
C16 C 0.2560(3) 1.1104(3) 0.2320(3)
H11 H 0.2474 1.0578 0.2239
C17 C 0.3640(4) 0.9513(4) 0.3868(3)
H12 H 0.3193 0.9721 0.4045
O4 O 0.4589(2) 1.1170(2) 0.2051(2)
O5 O 0.1615(2) 1.3521(3) 0.2918(2)
O6 O 0.0773(3) 1.2596(3) 0.2789(2)
C19 C 0.1451(4) 1.2847(5) 0.2787(3)
Zn1D Zn 0.41705(3) 0.93167(3) 0.70296(3)
Zn1A Zn 0.56833(3) 1.08295(3) 0.20296(3)
Zn1C Zn 0.06833(3) 1.41705(3) 0.29704(3)
N2D N 0.4322(3) 0.9169(3) 0.1097(2)
O4A O 0.5411(2) 0.8830(2) 0.2051(2)
O5C O 0.3385(2) 0.8521(3) 0.2082(2)
N3 N 0.7358(4) 0.2885(5) 0.0766(3)
C18 C 0.7724(8) 0.2174(8) 0.0781(5)
H13 H 0.8278 0.2251 0.0817
H14 H 0.7613 0.1894 0.0417
H15 H 0.7538 0.1880 0.1120
C20 C 0.6550(6) 0.2846(8) 0.0688(5)
H16 H 0.6338 0.3365 0.0680
H17 H 0.6322 0.2560 0.1016
H18 H 0.6434 0.2587 0.0316
O7 O 0.8406(6) 0.3538(7) 0.0874(8)
C21 C 0.7723(7) 0.3562(7) 0.0822(7)
H19 H 0.7453 0.4033 0.0820
N4 N 0.9097(7) 0.0812(6) 0.1124(5)
O8 O 0.8375(7) 0.0280(6) 0.0372(5)
C22 C 0.8955(9) 0.0674(9) 0.0567(6)
H20 H 0.9301 0.0876 0.0284
C24 C 0.8667(10) 0.0455(9) 0.1585(6)
H22 H 0.8439 0.0849 0.1837
H23 H 0.9007 0.0132 0.1821
H24 H 0.8261 0.0140 0.1412
C27 C 0.9688(8) 0.1347(11) 0.1275(8)
H31 H 0.9934 0.1533 0.0915
H32 H 1.0068 0.1093 0.1525
H33 H 0.9463 0.1779 0.1489
N5 N 0.4141(5) 0.4211(5) 0.1120(4)
C23 C 0.3876(8) 0.4399(8) 0.0591(6)
H21 H 0.4147 0.4241 0.0249
O9 O 0.3263(6) 0.4787(7) 0.0536(4)
C25 C 0.3780(10) 0.4432(9) 0.1650(6)
H25 H 0.3456 0.4880 0.1577
H26 H 0.4169 0.4560 0.1944
H27 H 0.3464 0.4010 0.1795
C26 C 0.4794(8) 0.3724(9) 0.1153(7)
H28 H 0.5253 0.4034 0.1219
H29 H 0.4847 0.3440 0.0783
H30 H 0.4730 0.3363 0.1480
N6 N 0.2394(6) 0.2056(5) 0.0819(3)
C28 C 0.1613(9) 0.2123(12) 0.0948(6)
H34 H 0.1534 0.2056 0.1373
H35 H 0.1328 0.1729 0.0733
H36 H 0.1432 0.2630 0.0829
C29 C 0.2895(19) 0.2634(9) 0.0870(6)
H37 H 0.2827 0.3155 0.0979
C30 C 0.2764(15) 0.1377(10) 0.0675(6)
H38 H 0.2406 0.1035 0.0472
H39 H 0.2948 0.1129 0.1036
H40 H 0.3199 0.1487 0.0416
O10 O 0.3656(9) 0.216(2) 0.0686(8)
loop_
_geom_bond_atom_site_label_1
_geom_bond_atom_site_label_2
_geom_bond_site_symmetry_1
_geom_bond_site_symmetry_2
Zn1 N1 1_555 1_555
N1 C9 1_555 1_555
N2 C10 1_555 1_555
C1 C2 1_555 1_555
C2 C15 1_555 1_555
O1 Zn1 1_555 1_555
C3 O1 1_555 1_555
C4 C1 1_555 1_555
H1 C4 1_555 1_555
O2 H2 1_555 1_555
C5 C3 1_555 1_555
C6 H3 1_555 1_555
C7 O2 1_555 1_555
C8 C6 1_555 1_555
C9 H4 1_555 1_555
O3 H5 1_555 1_555
C10 H6 1_555 1_555
C11 N1 1_555 1_555
H7 C11 1_555 1_555
C12 N2 1_555 1_555
H8 C12 1_555 1_555
C13 C1 1_555 1_555
H9 C13 1_555 1_555
C14 C8 1_555 1_555
C15 C9 1_555 1_555
H10 C15 1_555 1_555
C16 C5 1_555 1_555
H11 C16 1_555 1_555
C17 C2 1_555 1_555
H12 C17 1_555 1_555
O4 C3 1_555 1_555
O5 C19 1_555 1_555
O6 C19 1_555 1_555
N3 C18 1_555 1_555
C18 H13 1_555 1_555
H14 C18 1_555 1_555
H15 C18 1_555 1_555
C19 C8 1_555 1_555
C20 N3 1_555 1_555
H16 C20 1_555 1_555
H17 C20 1_555 1_555
H18 C20 1_555 1_555
O7 C21 1_555 1_555
C21 N3 1_555 1_555
H19 C21 1_555 1_555
N4 C22 1_555 1_555
N5 C23 1_555 1_555
O8 C22 1_555 1_555
C22 H20 1_555 1_555
C23 H21 1_555 1_555
O9 C23 1_555 1_555
C24 N4 1_555 1_555
H22 C24 1_555 1_555
H23 C24 1_555 1_555
H24 C24 1_555 1_555
C25 N5 1_555 1_555
H25 C25 1_555 1_555
H26 C25 1_555 1_555
H27 C25 1_555 1_555
C26 N5 1_555 1_555
H28 C26 1_555 1_555
H29 C26 1_555 1_555
H30 C26 1_555 1_555
C27 N4 1_555 1_555
H31 C27 1_555 1_555
H32 C27 1_555 1_555
H33 C27 1_555 1_555
N6 C28 1_555 1_555
C28 H34 1_555 1_555
H35 C28 1_555 1_555
H36 C28 1_555 1_555
C29 N6 1_555 1_555
H37 C29 1_555 1_555
C30 N6 1_555 1_555
H38 C30 1_555 1_555
H39 C30 1_555 1_555
H40 C30 1_555 1_555
O10 C29 1_555 1_555
Zn1D N2 1_555 1_555
Zn1A O4 1_555 1_555
Zn1C O5 1_555 1_555
N2D Zn1 1_555 1_555
O4A Zn1 1_555 1_555
O5C Zn1 1_555 1_555
C4 C12 1_555 1_555
C5 C7 1_555 1_555
C6 C7 1_555 1_555
O3 C14 1_555 1_555
C10 C13 1_555 1_555
C11 C17 1_555 1_555
C14 C16 1_555 1_555

#END
