
#######################################################################
#
#                 Cambridge Crystallographic Data Centre
#                                CCDC 
#
#######################################################################
#
# If this CIF has been generated from an entry in the Cambridge 
# Structural Database, then it will include bibliographic, chemical, 
# crystal, experimental, refinement or atomic coordinate data resulting 
# from the CCDC's data processing and validation procedures.
#
#######################################################################

data_SUPSIG
_symmetry_cell_setting           tetragonal
_symmetry_space_group_name_H-M   'P 4/n m m'
_symmetry_Int_Tables_number      129
_space_group_name_Hall           '-P 4a 2a'
loop_
_symmetry_equiv_pos_site_id
_symmetry_equiv_pos_as_xyz
1 x,y,z
2 1/2-x,1/2-y,z
3 1/2-y,x,z
4 y,1/2-x,z
5 -x,1/2+y,-z
6 1/2+x,-y,-z
7 1/2+y,1/2+x,-z
8 -y,-x,-z
9 -x,-y,-z
10 1/2+x,1/2+y,-z
11 1/2+y,-x,-z
12 -y,1/2+x,-z
13 x,1/2-y,z
14 1/2-x,y,z
15 1/2-y,1/2-x,z
16 y,x,z
_cell_length_a                   9.7044(2)
_cell_length_b                   9.7044(2)
_cell_length_c                   6.8538(3)
_cell_angle_alpha                90
_cell_angle_beta                 90
_cell_angle_gamma                90
_cell_volume                     645.459
loop_
_atom_site_label
_atom_site_type_symbol
_atom_site_fract_x
_atom_site_fract_y
_atom_site_fract_z
Cu1 Cu 0.7500 0.2500 0.0000
F1 F 0.7500 0.2500 -0.3333(3)
H1 H 0.7500 0.2500 -0.5000
N1 N 0.60128(17) 0.10128(17) 0.0000
C1 C 0.5345(2) 0.0660(2) 0.1639(3)
H2 H 0.5570 0.1113 0.2826
Cu1_2 Cu 0.7500 0.2500 -1.0000
Cu1B Cu 0.2500 -0.2500 0.0000
Cu1B_2 Cu 1.2500 -0.2500 0.0000
F1F F 0.7500 0.2500 -0.6667(3)
F1F_2 F 0.7500 0.2500 0.3333(3)
N1H N 0.39872(17) -0.10128(17) 0.0000
N1K N 0.89872(17) 0.10128(17) 0.0000
N1C N 1.10128(17) -0.10128(17) 0.0000
N1J N 0.60128(17) 0.39872(17) 0.0000
N1A N 0.89872(17) 0.39872(17) 0.0000
C1N C 0.4340(2) -0.0345(2) 0.1639(3)
C1H C 0.4655(2) -0.0660(2) -0.1639(3)
C1F C 0.5660(2) 0.0345(2) -0.1639(3)
C1K C 0.9340(2) 0.0345(2) -0.1639(3)
C1E C 1.0345(2) -0.0660(2) -0.1639(3)
C1C C 1.0660(2) -0.0345(2) 0.1639(3)
C1M C 0.9655(2) 0.0660(2) 0.1639(3)
H2H H 0.4430 -0.1113 -0.2826
H2F H 0.6113 0.0570 -0.2826
H2N H 0.3887 -0.0570 0.2826
H2K H 0.8887 0.0570 -0.2826
H2C H 1.1113 -0.0570 0.2826
H2M H 0.9430 0.1113 0.2826
H2E H 1.0570 -0.1113 -0.2826
Sb1 Sb 0.2500 0.2500 0.55385(5)
F2 F 0.2500 0.2500 0.2803(5)
F3 F 0.2500 0.2500 0.8269(5)
F4 F 0.44391(18) 0.2500 0.5514(2)
F4A F 0.05609(18) 0.2500 0.5514(2)
F4B F 0.2500 0.44391(18) 0.5514(2)
F4C F 0.2500 0.05609(18) 0.5514(2)
loop_
_geom_bond_atom_site_label_1
_geom_bond_atom_site_label_2
_geom_bond_site_symmetry_1
_geom_bond_site_symmetry_2
Cu1 F1 1_555 1_555
F1 H1 1_555 1_555
H1 F1F 1_555 1_555
N1 Cu1 1_555 1_555
C1 N1 1_555 1_555
H2 C1 1_555 1_555
Sb1 F2 1_555 1_555
F3 Sb1 1_555 1_555
F4 Sb1 1_555 1_555
Cu1_2 F1F 1_555 1_555
Cu1B N1H 1_555 1_555
Cu1B_2 N1C 1_555 1_555
F1F_2 Cu1 1_555 1_555
N1H C1N 1_555 1_555
N1K Cu1 1_555 1_555
N1C C1E 1_555 1_555
N1J Cu1 1_555 1_555
N1A Cu1 1_555 1_555
C1N C1 1_555 1_555
C1H N1H 1_555 1_555
C1F N1 1_555 1_555
C1K N1K 1_555 1_555
C1E C1K 1_555 1_555
C1C N1C 1_555 1_555
C1M N1K 1_555 1_555
H2H C1H 1_555 1_555
H2F C1F 1_555 1_555
H2N C1N 1_555 1_555
H2K C1K 1_555 1_555
H2C C1C 1_555 1_555
H2M C1M 1_555 1_555
H2E C1E 1_555 1_555
F4A Sb1 1_555 1_555
F4B Sb1 1_555 1_555
F4C Sb1 1_555 1_555
C1H C1F 1_555 1_555
C1C C1M 1_555 1_555

#END
