
#######################################################################
#
#                 Cambridge Crystallographic Data Centre
#                                CCDC 
#
#######################################################################
#
# If this CIF has been generated from an entry in the Cambridge 
# Structural Database, then it will include bibliographic, chemical, 
# crystal, experimental, refinement or atomic coordinate data resulting 
# from the CCDC's data processing and validation procedures.
#
#######################################################################

data_SUPZOU
_symmetry_cell_setting           monoclinic
_symmetry_space_group_name_H-M   'P 21/m'
_symmetry_Int_Tables_number      11
_space_group_name_Hall           '-P 2yb'
loop_
_symmetry_equiv_pos_site_id
_symmetry_equiv_pos_as_xyz
1 x,y,z
2 -x,1/2+y,-z
3 -x,-y,-z
4 x,1/2-y,z
_cell_length_a                   7.399(3)
_cell_length_b                   18.503(6)
_cell_length_c                   12.632(5)
_cell_angle_alpha                90
_cell_angle_beta                 98.79(2)
_cell_angle_gamma                90
_cell_volume                     1709.06
loop_
_atom_site_label
_atom_site_type_symbol
_atom_site_fract_x
_atom_site_fract_y
_atom_site_fract_z
Ag1 Ag -0.83045(15) 0.01437(6) -0.57387(8)
N1 N -0.9804(14) 0.0217(6) -0.7317(8)
C1 C -1.1772(18) 0.0324(7) -0.9347(11)
C2 C -1.1598(15) -0.0320(7) -0.8853(9)
H1 H -1.2150 -0.0729 -0.9187
C3 C -1.0571(17) -0.0366(7) -0.7827(11)
H2 H -1.0419 -0.0814 -0.7491
C4 C -1.359(2) -0.0070(9) -1.1073(13)
H3 H -1.3548 -0.0534 -1.0789
C5 C -1.280(2) 0.0451(9) -1.0471(14)
H4 H -1.2861 0.0919 -1.0742
C6 C -0.9954(18) 0.0843(7) -0.7869(10)
H5 H -0.9370 0.1251 -0.7552
C7 C -1.0921(19) 0.0903(7) -0.8866(11)
H6 H -1.0994 0.1346 -0.9217
C8 C -1.4545(16) 0.0037(7) -1.2175(10)
C9 C -1.5299(18) -0.0575(7) -1.2728(11)
H7 H -1.5116 -0.1029 -1.2411
C10 C -1.485(2) 0.0705(8) -1.2697(12)
H8 H -1.4386 0.1130 -1.2369
C11 C -1.6301(17) -0.0514(7) -1.3727(9)
H9 H -1.6774 -0.0929 -1.4081
C12 C -1.5866(18) 0.0715(7) -1.3709(11)
H10 H -1.6030 0.1157 -1.4061
N2 N -1.6624(14) 0.0134(6) -1.4214(8)
Ag1_2 Ag -1.83045(15) 0.01437(6) -1.57387(8)
N2_2 N -0.6624(14) 0.0134(6) -0.4214(8)
S1 S -0.7233(7) 0.2500 -0.5594(4)
S2 S -0.6600(12) 0.2500 -0.9843(5)
O1 O -0.6014(19) 0.2500 -0.4576(10)
O2 O -0.8330(14) 0.1851(5) -0.5765(8)
C13 C -0.583(3) 0.2500 -0.6580(15)
C14 C -0.555(4) 0.2500 -0.8465(17)
C15 C -0.400(3) 0.2500 -0.6346(15)
H11 H -0.3469 0.2500 -0.5629
C16 C -0.365(4) 0.2500 -0.819(2)
H12 H -0.2907 0.2500 -0.8717
C17 C -0.671(3) 0.2500 -0.7648(15)
H13 H -0.7975 0.2500 -0.7818
C18 C -0.288(3) 0.2500 -0.711(2)
H14 H -0.1614 0.2500 -0.6911
O3 O -0.606(3) 0.3128(7) -1.0280(11)
O4 O -0.871(4) 0.2500 -0.9836(17)
O2C O -0.8330(14) 0.3149(5) -0.5765(8)
O3C O -0.606(3) 0.1872(7) -1.0280(11)
O5 O -0.9142(15) -0.1345(5) -0.5577(8)
O6 O -0.239(3) 0.2500 -0.3356(13)
O7 O -0.793(4) -0.2500 -0.883(2)
loop_
_geom_bond_atom_site_label_1
_geom_bond_atom_site_label_2
_geom_bond_site_symmetry_1
_geom_bond_site_symmetry_2
Ag1 N1 1_555 1_555
N1 C3 1_555 1_555
C1 C2 1_555 1_555
C2 H1 1_555 1_555
C3 C2 1_555 1_555
H2 C3 1_555 1_555
C4 H3 1_555 1_555
C5 C1 1_555 1_555
H4 C5 1_555 1_555
C6 N1 1_555 1_555
H5 C6 1_555 1_555
C7 C1 1_555 1_555
H6 C7 1_555 1_555
C8 C4 1_555 1_555
C9 C8 1_555 1_555
H7 C9 1_555 1_555
C10 C8 1_555 1_555
H8 C10 1_555 1_555
C11 C9 1_555 1_555
H9 C11 1_555 1_555
C12 C10 1_555 1_555
H10 C12 1_555 1_555
N2 C11 1_555 1_555
S1 O1 1_555 1_555
S2 C14 1_555 1_555
O2 S1 1_555 1_555
C13 S1 1_555 1_555
C14 C16 1_555 1_555
C15 C13 1_555 1_555
H11 C15 1_555 1_555
C16 H12 1_555 1_555
C17 C13 1_555 1_555
H13 C17 1_555 1_555
C18 C15 1_555 1_555
H14 C18 1_555 1_555
O3 S2 1_555 1_555
O4 S2 1_555 1_555
Ag1_2 N2 1_555 1_555
N2_2 Ag1 1_555 1_555
O2C S1 1_555 1_555
O3C S2 1_555 1_555
C4 C5 1_555 1_555
C6 C7 1_555 1_555
C12 N2 1_555 1_555
C14 C17 1_555 1_555
C16 C18 1_555 1_555

#END
