
#######################################################################
#
#                 Cambridge Crystallographic Data Centre
#                                CCDC 
#
#######################################################################
#
# If this CIF has been generated from an entry in the Cambridge 
# Structural Database, then it will include bibliographic, chemical, 
# crystal, experimental, refinement or atomic coordinate data resulting 
# from the CCDC's data processing and validation procedures.
#
#######################################################################

data_SUPZUY
_symmetry_cell_setting           orthorhombic
_symmetry_space_group_name_H-M   'F m m m'
_symmetry_Int_Tables_number      69
_space_group_name_Hall           '-F 2 2'
loop_
_symmetry_equiv_pos_site_id
_symmetry_equiv_pos_as_xyz
1 x,y,z
2 -x,-y,z
3 x,-y,-z
4 -x,y,-z
5 x,1/2+y,1/2+z
6 -x,1/2-y,1/2+z
7 x,1/2-y,1/2-z
8 -x,1/2+y,1/2-z
9 1/2+x,y,1/2+z
10 1/2-x,-y,1/2+z
11 1/2+x,-y,1/2-z
12 1/2-x,y,1/2-z
13 1/2+x,1/2+y,z
14 1/2-x,1/2-y,z
15 1/2+x,1/2-y,-z
16 1/2-x,1/2+y,-z
17 -x,-y,-z
18 x,y,-z
19 -x,y,z
20 x,-y,z
21 -x,1/2-y,1/2-z
22 x,1/2+y,1/2-z
23 -x,1/2+y,1/2+z
24 x,1/2-y,1/2+z
25 1/2-x,-y,1/2-z
26 1/2+x,y,1/2-z
27 1/2-x,y,1/2+z
28 1/2+x,-y,1/2+z
29 1/2-x,1/2-y,-z
30 1/2+x,1/2+y,-z
31 1/2-x,1/2+y,z
32 1/2+x,1/2-y,z
_cell_length_a                   15.442(2)
_cell_length_b                   15.495(3)
_cell_length_c                   15.630(3)
_cell_angle_alpha                90
_cell_angle_beta                 90
_cell_angle_gamma                90
_cell_volume                     3739.85
loop_
_atom_site_label
_atom_site_type_symbol
_atom_site_fract_x
_atom_site_fract_y
_atom_site_fract_z
Ag1 Ag 0.2500 0.2500 0.2500
N1 N 0.2500 0.0885(5) 0.2500
C1 C 0.1822(5) 0.0443(4) 0.2722(5)
H1 H 0.1322(5) 0.0734(4) 0.2886(5)
N2 N 0.0893(5) 0.2500 0.2500
C2 C 0.0438(4) 0.2697(5) 0.3162(5)
H2 H 0.0726(4) 0.2847(5) 0.3664(5)
N3 N 0.2500 0.2500 0.0889(5)
C3 C 0.2465(9) 0.1803(5) 0.0434(4)
H3 H 0.2438(9) 0.1275(5) 0.0716(4)
C1S C 0.1822(5) -0.0443(4) 0.2722(5)
N1S N 0.2500 -0.0885(5) 0.2500
C1X C 0.3178(5) -0.0443(4) 0.2278(5)
C1K C 0.3178(5) 0.0443(4) 0.2278(5)
H1K H 0.3678(5) 0.0734(4) 0.2114(5)
H1X H 0.3678(5) -0.0734(4) 0.2114(5)
H1S H 0.1322(5) -0.0734(4) 0.2886(5)
C2R C -0.0438(4) 0.2697(5) 0.3162(5)
N2R N -0.0893(5) 0.2500 0.2500
C2T C -0.0438(4) 0.2303(5) 0.1838(5)
C2F C 0.0438(4) 0.2303(5) 0.1838(5)
H2F H 0.0726(4) 0.2153(5) 0.1336(5)
H2T H -0.0726(4) 0.2153(5) 0.1336(5)
H2R H -0.0726(4) 0.2847(5) 0.3664(5)
C3Q C 0.2465(9) 0.1803(5) -0.0434(4)
N3Q N 0.2500 0.2500 -0.0889(5)
C3BA C 0.2535(9) 0.3197(5) -0.0434(4)
C3M C 0.2535(9) 0.3197(5) 0.0434(4)
H3M H 0.2562(9) 0.3725(5) 0.0716(4)
H3BA H 0.2562(9) 0.3725(5) -0.0716(4)
H3Q H 0.2438(9) 0.1275(5) -0.0716(4)
N1F N 0.2500 0.4115(5) 0.2500
C1F C 0.1822(5) 0.4557(4) 0.2278(5)
H1F H 0.1322(5) 0.4266(4) 0.2114(5)
C1U C 0.1822(5) 0.5443(4) 0.2278(5)
N1U N 0.2500 0.5885(5) 0.2500
C1DA C 0.3178(5) 0.5443(4) 0.2722(5)
C1M C 0.3178(5) 0.4557(4) 0.2722(5)
H1M H 0.3678(5) 0.4266(4) 0.2886(5)
H1DA H 0.3678(5) 0.5734(4) 0.2886(5)
H1U H 0.1322(5) 0.5734(4) 0.2114(5)
N2K N 0.4107(5) 0.2500 0.2500
C2K C 0.4562(4) 0.2697(5) 0.1838(5)
H2K H 0.4274(4) 0.2847(5) 0.1336(5)
C2Y C 0.5438(4) 0.2697(5) 0.1838(5)
N2Y N 0.5893(5) 0.2500 0.2500
C2EA C 0.5438(4) 0.2303(5) 0.3162(5)
C2M C 0.4562(4) 0.2303(5) 0.3162(5)
H2M H 0.4274(4) 0.2153(5) 0.3664(5)
H2EA H 0.5726(4) 0.2153(5) 0.3664(5)
H2Y H 0.5726(4) 0.2847(5) 0.1336(5)
N3F N 0.2500 0.2500 0.4111(5)
C3F C 0.2465(9) 0.3197(5) 0.4566(4)
H3F H 0.2438(9) 0.3725(5) 0.4284(4)
C3W C 0.2465(9) 0.3197(5) 0.5434(4)
N3W N 0.2500 0.2500 0.5889(5)
C3Z C 0.2535(9) 0.1803(5) 0.5434(4)
C3K C 0.2535(9) 0.1803(5) 0.4566(4)
H3K H 0.2562(9) 0.1275(5) 0.4284(4)
H3Z H 0.2562(9) 0.1275(5) 0.5716(4)
H3W H 0.2438(9) 0.3725(5) 0.5716(4)
Ag1S Ag 0.2500 -0.2500 0.2500
Ag1R Ag -0.2500 0.2500 0.2500
Ag1Q Ag 0.2500 0.2500 -0.2500
Ag1S_2 Ag 0.2500 0.7500 0.2500
Ag1R_2 Ag 0.7500 0.2500 0.2500
Ag1Q_2 Ag 0.2500 0.2500 0.7500
N1U_2 N 0.2500 -0.4115(5) 0.2500
N2S N 0.0893(5) -0.2500 0.2500
N2X N 0.4107(5) -0.2500 0.2500
N3S N 0.2500 -0.2500 0.0889(5)
N3U N 0.2500 -0.2500 0.4111(5)
Sb1 Sb 0.0000 0.0000 0.0000
F1 F 0.0000 0.1180(8) 0.0000
F2 F 0.0872(12) 0.0000 -0.0847(10)
F1A F 0.0000 -0.1180(8) 0.0000
F2A F -0.0872(12) 0.0000 -0.0847(10)
F2B F 0.0872(12) 0.0000 0.0847(10)
F2C F -0.0872(12) 0.0000 0.0847(10)
Sb2 Sb 0.0000 0.0000 0.5000
F6 F 0.1185(10) 0.0000 0.5000
F7 F 0.0000 -0.0806(11) 0.5874(12)
F6A F -0.1185(10) 0.0000 0.5000
F7A F 0.0000 0.0806(11) 0.5874(12)
F7B F 0.0000 0.0806(11) 0.4126(12)
F7C F 0.0000 -0.0806(11) 0.4126(12)
F3? F 0.1132(52) 0.0000 0.0000
F4? F 0.0000 0.0000 -0.1144(26)
F5? F 0.0874(58) 0.0794(60) 0.0000
F8? F 0.0000 0.1168(48) 0.5000
F9? F 0.0000 0.0000 0.6149(22)
F10? F 0.0859(44) 0.0882(40) 0.5000
loop_
_geom_bond_atom_site_label_1
_geom_bond_atom_site_label_2
_geom_bond_site_symmetry_1
_geom_bond_site_symmetry_2
Ag1 N1 1_555 1_555
N1 C1 1_555 1_555
C1 H1 1_555 1_555
N2 Ag1 1_555 1_555
C2 N2 1_555 1_555
H2 C2 1_555 1_555
N3 Ag1 1_555 1_555
C3 N3 1_555 1_555
H3 C3 1_555 1_555
Sb1 F1 1_555 1_555
F2 Sb1 1_555 1_555
Sb2 F6 1_555 1_555
F7 Sb2 1_555 1_555
C1S C1 1_555 1_555
N1S C1S 1_555 1_555
C1X N1S 1_555 1_555
C1K N1 1_555 1_555
H1K C1K 1_555 1_555
H1X C1X 1_555 1_555
H1S C1S 1_555 1_555
C2R C2 1_555 1_555
N2R C2R 1_555 1_555
C2T N2R 1_555 1_555
C2F N2 1_555 1_555
H2F C2F 1_555 1_555
H2T C2T 1_555 1_555
H2R C2R 1_555 1_555
C3Q C3 1_555 1_555
N3Q C3Q 1_555 1_555
C3BA N3Q 1_555 1_555
C3M N3 1_555 1_555
H3M C3M 1_555 1_555
H3BA C3BA 1_555 1_555
H3Q C3Q 1_555 1_555
F1A Sb1 1_555 1_555
F2A Sb1 1_555 1_555
F2B Sb1 1_555 1_555
F2C Sb1 1_555 1_555
F6A Sb2 1_555 1_555
F7A Sb2 1_555 1_555
F7B Sb2 1_555 1_555
F7C Sb2 1_555 1_555
N1F Ag1 1_555 1_555
C1F N1F 1_555 1_555
H1F C1F 1_555 1_555
C1U C1F 1_555 1_555
N1U C1U 1_555 1_555
C1DA N1U 1_555 1_555
C1M N1F 1_555 1_555
H1M C1M 1_555 1_555
H1DA C1DA 1_555 1_555
H1U C1U 1_555 1_555
N2K Ag1 1_555 1_555
C2K N2K 1_555 1_555
H2K C2K 1_555 1_555
C2Y C2K 1_555 1_555
N2Y C2Y 1_555 1_555
C2EA N2Y 1_555 1_555
C2M N2K 1_555 1_555
H2M C2M 1_555 1_555
H2EA C2EA 1_555 1_555
H2Y C2Y 1_555 1_555
N3F Ag1 1_555 1_555
C3F N3F 1_555 1_555
H3F C3F 1_555 1_555
C3W C3F 1_555 1_555
N3W C3W 1_555 1_555
C3Z N3W 1_555 1_555
C3K N3F 1_555 1_555
H3K C3K 1_555 1_555
H3Z C3Z 1_555 1_555
H3W C3W 1_555 1_555
Ag1S N1S 1_555 1_555
Ag1R N2R 1_555 1_555
Ag1Q N3Q 1_555 1_555
Ag1S_2 N1U 1_555 1_555
Ag1R_2 N2Y 1_555 1_555
Ag1Q_2 N3W 1_555 1_555
N1U_2 Ag1S 1_555 1_555
N2S Ag1S 1_555 1_555
N2X Ag1S 1_555 1_555
N3S Ag1S 1_555 1_555
N3U Ag1S 1_555 1_555
C1X C1K 1_555 1_555
C2T C2F 1_555 1_555
C3BA C3M 1_555 1_555
C1DA C1M 1_555 1_555
C2EA C2M 1_555 1_555
C3Z C3K 1_555 1_555

#END
