
#######################################################################
#
#                 Cambridge Crystallographic Data Centre
#                                CCDC 
#
#######################################################################
#
# If this CIF has been generated from an entry in the Cambridge 
# Structural Database, then it will include bibliographic, chemical, 
# crystal, experimental, refinement or atomic coordinate data resulting 
# from the CCDC's data processing and validation procedures.
#
#######################################################################

data_SUPZEK
_symmetry_cell_setting           triclinic
_symmetry_space_group_name_H-M   'P -1'
_symmetry_Int_Tables_number      2
_space_group_name_Hall           '-P 1'
loop_
_symmetry_equiv_pos_site_id
_symmetry_equiv_pos_as_xyz
1 x,y,z
2 -x,-y,-z
_cell_length_a                   10.645(2)
_cell_length_b                   15.367(3)
_cell_length_c                   19.590(4)
_cell_angle_alpha                80.844(10)
_cell_angle_beta                 83.690(11)
_cell_angle_gamma                85.182(10)
_cell_volume                     3137.34
loop_
_atom_site_label
_atom_site_type_symbol
_atom_site_fract_x
_atom_site_fract_y
_atom_site_fract_z
Cu1 Cu 0.04761(6) 0.39667(4) 0.21165(3)
Cu2 Cu 0.60045(5) -0.07701(4) 0.70618(3)
S1 S 0.89817(10) 0.04572(7) 0.65463(6)
S2 S 0.71156(11) 0.37470(7) 0.54200(6)
S3 S -0.22990(14) 0.25870(9) 0.23254(7)
S4 S -0.22718(12) 0.13590(9) -0.01465(6)
C1 C -0.0859(4) 0.6037(3) 0.0271(2)
O1 O 0.7858(3) 0.0024(2) 0.6780(2)
C2 C -0.2584(4) 0.7283(3) -0.1046(2)
C3 C 0.4903(4) 0.1005(3) 0.5380(2)
H1 H 0.5309 0.1429 0.5058
C4 C 0.2687(4) 0.2358(3) 0.3903(2)
C5 C 0.1490(4) 0.2151(3) 0.3804(2)
H2 H 0.1109 0.1685 0.4091
O2 O 0.8240(3) 0.42400(19) 0.52759(17)
O3 O -0.1239(4) 0.3098(2) 0.2292(2)
N1 N 0.5022(3) -0.0129(2) 0.63636(16)
O4 O -0.3451(3) 0.0967(3) -0.00172(17)
C6 C -0.2261(4) 0.8484(3) -0.1949(2)
H3 H -0.1741 0.8913 -0.2186
N2 N 0.1373(4) 0.3314(2) 0.28499(17)
C7 C 0.5548(4) 0.0490(3) 0.5880(2)
H4 H 0.6402 0.0574 0.5886
C8 C 0.7682(3) 0.2649(3) 0.5327(2)
O5 O 0.6563(3) 0.3724(2) 0.61293(18)
C9 C 0.8584(4) 0.1240(3) 0.5809(2)
C10 C 0.8735(4) 0.0991(3) 0.5162(2)
H5 H 0.9092 0.0432 0.5102
N3 N 0.3445(3) 0.1897(2) 0.44250(17)
O6 O 0.9329(5) 0.0962(2) 0.7048(2)
C11 C -0.1213(4) 0.4815(3) 0.1155(2)
H6 H -0.1757 0.4400 0.1391
N4 N -0.2252(4) 0.6642(2) -0.04643(19)
N5 N -0.3424(3) 0.8445(2) -0.21631(16)
C12 C 0.8064(3) 0.2071(3) 0.5904(2)
H7 H 0.7969 0.2242 0.6342
N6 N -0.1171(3) 0.6693(2) -0.03061(17)
C13 C -0.1642(4) 0.5411(3) 0.0615(2)
H8 H -0.2452 0.5389 0.0486
O7 O 0.6215(4) 0.4014(2) 0.4912(2)
C14 C -0.1819(4) 0.7918(3) -0.1397(2)
H9 H -0.1018 0.7964 -0.1265
C15 C 0.7827(4) 0.2389(3) 0.4674(2)
H10 H 0.7564 0.2773 0.4292
C16 C 0.0870(4) 0.2638(3) 0.3281(2)
H11 H 0.0062 0.2493 0.3221
O8 O 1.0008(3) -0.0113(2) 0.63004(19)
N7 N -0.0049(4) 0.4804(2) 0.13564(17)
C17 C 0.2526(5) 0.3522(3) 0.2950(2)
H12 H 0.2879 0.3999 0.2662
C18 C 0.8352(4) 0.1576(3) 0.4597(2)
H13 H 0.8458 0.1405 0.4159
C19 C 0.3216(5) 0.3056(3) 0.3467(2)
H14 H 0.4021 0.3212 0.3520
C20 C -0.1064(4) 0.1030(3) 0.2043(2)
H15 H -0.0883 0.0939 0.2503
N8 N 0.2861(3) 0.1359(2) 0.48577(16)
C21 C 0.0347(4) 0.6049(3) 0.0476(2)
H16 H 0.0896 0.6469 0.0255
C22 C -0.3779(4) 0.7242(3) -0.1254(2)
H17 H -0.4322 0.6827 -0.1018
C23 C -0.1699(4) 0.1274(3) 0.0685(2)
C24 C -0.1801(4) 0.1773(3) 0.1784(2)
C25 C -0.2126(4) 0.1888(3) 0.1110(2)
H18 H -0.2634 0.2382 0.0944
C26 C -0.0607(4) 0.0433(4) 0.1611(3)
H19 H -0.0083 -0.0054 0.1773
C27 C -0.0926(4) 0.0553(3) 0.0931(2)
H20 H -0.0614 0.0145 0.0640
C28 C 0.3062(4) 0.0262(3) 0.5868(2)
H21 H 0.2201 0.0186 0.5882
C29 C -0.4142(4) 0.7822(3) -0.1812(2)
H22 H -0.4936 0.7780 -0.1956
C30 C 0.0709(4) 0.5418(3) 0.1020(2)
H23 H 0.1518 0.5421 0.1156
C31 C 0.3644(4) 0.0885(3) 0.53620(19)
C32 C 0.3789(4) -0.0240(3) 0.6349(2)
H24 H 0.3408 -0.0671 0.6676
O9 O -0.335(2) 0.2988(11) 0.2081(9)
O10 O -0.2153(12) 0.2248(13) -0.0457(10)
O11 O -0.1334(18) 0.0993(15) -0.0588(12)
O12 O -0.2328(11) 0.2097(7) 0.3018(5)
Cu3 Cu 0.89414(5) 0.55537(4) 0.55107(3)
Cu4 Cu 1.41885(7) 0.06342(4) 1.04631(3)
N9 N 0.5774(3) 0.8149(2) 0.30285(17)
N10 N 1.3407(4) 0.1420(2) 0.97630(17)
N11 N 0.4666(4) 0.9894(2) 0.12771(17)
C33 C 0.6518(4) 0.6896(3) 0.4093(2)
H25 H 0.5686 0.6865 0.4001
C34 C 0.6253(4) 0.9360(3) 0.2051(2)
H26 H 0.7067 0.9389 0.2173
C35 C 1.2191(5) 0.2501(3) 0.8731(2)
C36 C 0.7020(4) 0.6336(3) 0.4636(2)
H27 H 0.6507 0.5925 0.4906
N12 N 0.9779(3) 0.4995(2) 0.62971(16)
C37 C 0.8514(4) 0.7533(3) 0.3844(2)
H28 H 0.9044 0.7935 0.3576
C38 C 0.9826(6) 0.3888(3) 0.7294(2)
H29 H 0.9411 0.3461 0.7607
C39 C 0.8940(4) 0.6964(3) 0.4394(2)
H30 H 0.9764 0.6996 0.4499
C40 C 0.5446(4) 0.8769(3) 0.24315(19)
C41 C 1.2207(5) 0.1342(3) 0.9666(2)
H31 H 1.1774 0.0905 0.9960
C42 C 0.5824(5) 0.9908(3) 0.1485(2)
H32 H 0.6369 1.0310 0.1231
C43 C 0.7282(4) 0.7499(3) 0.36924(19)
C44 C 0.3894(4) 0.9336(3) 0.1663(2)
H33 H 0.3078 0.9328 0.1537
C45 C 1.1565(5) 0.1862(3) 0.9164(2)
H34 H 1.0723 0.1780 0.9120
N13 N 0.8218(3) 0.6359(2) 0.47913(16)
C46 C 0.9205(5) 0.4377(3) 0.6754(2)
H35 H 0.8372 0.4270 0.6710
C47 C 1.3441(5) 0.2615(3) 0.8823(2)
H36 H 1.3884 0.3057 0.8542
C48 C 1.4004(5) 0.2059(3) 0.9339(2)
H37 H 1.4843 0.2131 0.9396
C49 C 0.4237(4) 0.8767(3) 0.2241(2)
H38 H 0.3662 0.8389 0.2498
N14 N 0.6910(3) 0.8117(2) 0.30998(17)
C50 C 1.1623(5) 0.4688(4) 0.6910(3)
H39 H 1.2443 0.4819 0.6957
C51 C 1.0974(5) 0.5146(3) 0.6384(2)
H40 H 1.1377 0.5582 0.6074
N15 N 1.1358(5) 0.3012(3) 0.8213(2)
N16 N 1.1926(5) 0.3545(3) 0.7880(3)
C52 C 1.1055(6) 0.4041(4) 0.7360(2)
Cu2_2 Cu -0.39955(5) 0.92299(4) -0.29382(3)
O4_2 O 1.6549(3) 0.0967(3) 0.99828(17)
N5_2 N 0.6576(3) -0.1555(2) 0.78369(16)
Cu4_2 Cu -0.58115(7) 0.06342(4) 0.04631(3)
Cu4_3 Cu 0.41885(7) 1.06342(4) 0.04631(3)
N11_2 N 1.4666(4) -0.0106(2) 1.12771(17)
O17 O 0.1635(5) 0.7882(4) 0.2035(2)
O18 O 0.3594(11) 0.5248(9) 0.1628(6)
O20 O 0.5165(5) 0.4758(4) 0.3697(3)
O21 O 0.5414(10) 0.4596(6) 0.2299(5)
O22 O 0.6294(13) 0.3375(8) 0.7716(6)
O23 O -0.3909(10) 0.3848(7) -0.0159(7)
O13? O -0.332(3) 0.3259(17) 0.1911(14)
O14? O -0.2739(17) 0.2275(19) -0.0362(16)
O15? O -0.148(4) 0.068(2) -0.049(2)
O16? O -0.3097(13) 0.2159(11) 0.2958(8)
O19? O 0.5477(18) 0.4660(14) 0.0858(10)
loop_
_geom_bond_atom_site_label_1
_geom_bond_atom_site_label_2
_geom_bond_site_symmetry_1
_geom_bond_site_symmetry_2
Cu1 O3 1_555 1_555
Cu2 O1 1_555 1_555
S1 O1 1_555 1_555
S2 O2 1_555 1_555
S3 O3 1_555 1_555
S4 O4 1_555 1_555
C1 N6 1_555 1_555
C2 N4 1_555 1_555
C3 H1 1_555 1_555
C4 C5 1_555 1_555
C5 H2 1_555 1_555
O2 Cu3 1_555 1_555
N1 Cu2 1_555 1_555
O4 Cu4_2 1_555 1_555
C6 H3 1_555 1_555
N2 Cu1 1_555 1_555
C7 C3 1_555 1_555
H4 C7 1_555 1_555
C8 S2 1_555 1_555
O5 S2 1_555 1_555
C9 S1 1_555 1_555
C10 C9 1_555 1_555
H5 C10 1_555 1_555
N3 C4 1_555 1_555
O6 S1 1_555 1_555
C11 H6 1_555 1_555
N4 N6 1_555 1_555
N5 C6 1_555 1_555
C12 C8 1_555 1_555
H7 C12 1_555 1_555
C13 C1 1_555 1_555
H8 C13 1_555 1_555
O7 S2 1_555 1_555
C14 C2 1_555 1_555
H9 C14 1_555 1_555
C15 C8 1_555 1_555
H10 C15 1_555 1_555
C16 C5 1_555 1_555
H11 C16 1_555 1_555
O8 S1 1_555 1_555
N7 Cu1 1_555 1_555
C17 N2 1_555 1_555
H12 C17 1_555 1_555
C18 C10 1_555 1_555
H13 C18 1_555 1_555
C19 C4 1_555 1_555
H14 C19 1_555 1_555
C20 H15 1_555 1_555
N8 N3 1_555 1_555
C21 C1 1_555 1_555
H16 C21 1_555 1_555
C22 C2 1_555 1_555
H17 C22 1_555 1_555
C23 S4 1_555 1_555
C24 S3 1_555 1_555
C25 C23 1_555 1_555
H18 C25 1_555 1_555
C26 C20 1_555 1_555
H19 C26 1_555 1_555
C27 C23 1_555 1_555
H20 C27 1_555 1_555
C28 H21 1_555 1_555
C29 N5 1_555 1_555
H22 C29 1_555 1_555
C30 N7 1_555 1_555
H23 C30 1_555 1_555
C31 C3 1_555 1_555
C32 N1 1_555 1_555
H24 C32 1_555 1_555
O9 S3 1_555 1_555
O10 S4 1_555 1_555
O11 S4 1_555 1_555
O12 S3 1_555 1_555
Cu3 N12 1_555 1_555
Cu4 N10 1_555 1_555
N9 C40 1_555 1_555
N10 C41 1_555 1_555
N11 C42 1_555 1_555
C33 H25 1_555 1_555
C34 H26 1_555 1_555
C35 C45 1_555 1_555
C36 C33 1_555 1_555
H27 C36 1_555 1_555
N12 C46 1_555 1_555
C37 H28 1_555 1_555
C38 H29 1_555 1_555
C39 C37 1_555 1_555
H30 C39 1_555 1_555
C40 C34 1_555 1_555
C41 H31 1_555 1_555
C42 C34 1_555 1_555
H32 C42 1_555 1_555
C43 C33 1_555 1_555
C44 N11 1_555 1_555
H33 C44 1_555 1_555
C45 C41 1_555 1_555
H34 C45 1_555 1_555
N13 Cu3 1_555 1_555
C46 C38 1_555 1_555
H35 C46 1_555 1_555
C47 C35 1_555 1_555
H36 C47 1_555 1_555
C48 N10 1_555 1_555
H37 C48 1_555 1_555
C49 C40 1_555 1_555
H38 C49 1_555 1_555
N14 N9 1_555 1_555
C50 H39 1_555 1_555
C51 N12 1_555 1_555
H40 C51 1_555 1_555
N15 C35 1_555 1_555
N16 N15 1_555 1_555
C52 C38 1_555 1_555
Cu2_2 N5 1_555 1_555
O4_2 Cu4 1_555 1_555
N5_2 Cu2 1_555 1_555
Cu4_3 N11 1_555 1_555
N11_2 Cu4 1_555 1_555
N1 C7 1_555 1_555
C6 C14 1_555 1_555
N2 C16 1_555 1_555
C9 C12 1_555 1_555
C11 C13 1_555 1_555
C11 N7 1_555 1_555
C15 C18 1_555 1_555
C17 C19 1_555 1_555
C20 C24 1_555 1_555
N8 C31 1_555 1_555
C21 C30 1_555 1_555
C22 C29 1_555 1_555
C24 C25 1_555 1_555
C26 C27 1_555 1_555
C28 C31 1_555 1_555
C28 C32 1_555 1_555
C36 N13 1_555 1_555
C37 C43 1_555 1_555
C39 N13 1_555 1_555
C43 N14 1_555 1_555
C44 C49 1_555 1_555
C47 C48 1_555 1_555
C50 C51 1_555 1_555
C50 C52 1_555 1_555
N16 C52 1_555 1_555

#END
