
#######################################################################
#
#                 Cambridge Crystallographic Data Centre
#                                CCDC 
#
#######################################################################
#
# If this CIF has been generated from an entry in the Cambridge 
# Structural Database, then it will include bibliographic, chemical, 
# crystal, experimental, refinement or atomic coordinate data resulting 
# from the CCDC's data processing and validation procedures.
#
#######################################################################

data_SUPZUA
_symmetry_cell_setting           triclinic
_symmetry_space_group_name_H-M   'P -1'
_symmetry_Int_Tables_number      2
_space_group_name_Hall           '-P 1'
loop_
_symmetry_equiv_pos_site_id
_symmetry_equiv_pos_as_xyz
1 x,y,z
2 -x,-y,-z
_cell_length_a                   14.5639(6)
_cell_length_b                   14.7235(6)
_cell_length_c                   19.5511(8)
_cell_angle_alpha                72.143(2)
_cell_angle_beta                 70.919(2)
_cell_angle_gamma                77.780(2)
_cell_volume                     3742.12
loop_
_atom_site_label
_atom_site_type_symbol
_atom_site_fract_x
_atom_site_fract_y
_atom_site_fract_z
Ag1 Ag 0.01530(4) 0.41510(4) 0.07146(3)
Ag2 Ag 0.63599(4) 0.73846(4) -0.48044(3)
S1 S 0.05629(12) 0.64667(13) 0.10693(10)
S2 S -0.27419(13) 0.66448(13) 0.34129(10)
C1 C 0.2791(4) 0.3387(4) -0.0951(3)
H1 H 0.2911 0.3039 -0.1302
C2 C -0.3982(4) -0.0753(5) 0.4005(3)
H2 H -0.4093 -0.1180 0.3783
N1 N 0.1651(3) 0.3976(4) 0.0052(3)
O1 O -0.2536(4) 0.5627(4) 0.3495(3)
N2 N -0.1340(3) 0.3958(3) 0.1332(3)
O2 O 0.1020(4) 0.5920(4) 0.1634(3)
C3 C 0.1879(5) 0.3484(4) -0.0460(4)
H3 H 0.1391 0.3189 -0.0487
O3 O -0.3727(4) 0.7027(4) 0.3409(3)
N3 N -0.3779(3) -0.1092(3) 0.4661(3)
C4 C 0.4752(5) 0.3176(4) -0.2007(4)
H4 H 0.4294 0.3433 -0.2305
H5 H 0.4639 0.2517 -0.1740
C5 C 0.6562(4) 0.5670(5) -0.3461(4)
H6 H 0.6882 0.6085 -0.3369
C6 C 0.3538(4) 0.3812(4) -0.0920(3)
N4 N 0.6240(4) 0.5964(4) -0.4064(3)
C7 C -0.3869(4) 0.1929(4) 0.3568(3)
H7 H -0.3192 0.2054 0.3352
H8 H -0.4167 0.2285 0.3946
C8 C 0.5969(5) 0.4148(4) -0.3078(4)
C9 C -0.3873(4) 0.0867(4) 0.3959(3)
C10 C -0.4381(4) 0.2334(4) 0.2955(3)
H9 H -0.4102 0.1975 0.2578
H10 H -0.5069 0.2248 0.3168
O4 O 0.0237(3) 0.5914(3) 0.0728(3)
C11 C -0.3698(4) 0.0512(4) 0.4640(3)
H11 H -0.3610 0.0927 0.4882
O5 O -0.2446(3) 0.6945(3) 0.3934(2)
C12 C 0.6446(4) 0.4785(5) -0.2968(3)
H12 H 0.6690 0.4611 -0.2555
C13 C -0.4294(4) 0.3389(4) 0.2585(3)
H13 H -0.4704 0.3624 0.2248
H14 H -0.4539 0.3742 0.2968
C14 C -0.3261(4) 0.3592(4) 0.2151(3)
C15 C -0.2749(5) 0.4114(4) 0.2346(3)
H15 H -0.3045 0.4357 0.2764
C16 C -0.3650(4) -0.0469(5) 0.4973(3)
H16 H -0.3522 -0.0697 0.5436
C17 C -0.1823(5) 0.4278(4) 0.1939(4)
H17 H -0.1505 0.4634 0.2091
C18 C 0.5787(5) 0.5337(5) -0.4182(4)
H18 H 0.5575 0.5516 -0.4610
C19 C 0.5796(5) 0.3178(4) -0.2531(4)
H19 H 0.6256 0.3001 -0.2234
H20 H 0.5918 0.2698 -0.2807
O6 O 0.1188(4) 0.7172(4) 0.0515(3)
C20 C 0.2375(5) 0.4379(5) 0.0093(4)
H21 H 0.2239 0.4717 0.0454
C21 C 0.4554(4) 0.3750(4) -0.1452(3)
H22 H 0.4695 0.4399 -0.1727
H23 H 0.5014 0.3481 -0.1156
C22 C 0.3303(4) 0.4305(5) -0.0378(4)
H24 H 0.3782 0.4593 -0.0331
C23 C -0.4032(4) 0.0212(4) 0.3647(3)
H25 H -0.4175 0.0425 0.3189
C24 C -0.1992(4) 0.7184(4) 0.2520(3)
C25 C -0.1122(4) 0.6677(4) 0.2195(3)
H26 H -0.0951 0.6037 0.2425
C26 C -0.2770(5) 0.3260(5) 0.1523(3)
H27 H -0.3075 0.2903 0.1362
C27 C -0.1831(5) 0.3458(5) 0.1138(3)
H28 H -0.1518 0.3227 0.0716
C28 C 0.5625(5) 0.4458(5) -0.3704(4)
H29 H 0.5283 0.4064 -0.3798
C29 C -0.0517(4) 0.7136(4) 0.1527(3)
C30 C -0.1618(5) 0.8565(5) 0.1508(4)
H30 H -0.1784 0.9205 0.1278
C31 C -0.0755(5) 0.8075(5) 0.1181(4)
H31 H -0.0340 0.8377 0.0730
C32 C -0.2245(5) 0.8125(5) 0.2173(3)
H32 H -0.2833 0.8462 0.2385
Ag1A Ag -0.01530(4) 0.58490(4) -0.07146(3)
Ag2_2 Ag -0.36401(4) -0.26154(4) 0.51956(3)
Ag2_3 Ag -0.36401(4) 0.73846(4) 0.51956(3)
N3_2 N 0.6221(3) 0.8908(3) -0.5339(3)
O5_2 O 0.7554(3) 0.6945(3) -0.6066(2)
Ag3 Ag 0.12947(4) 0.26661(4) 0.51967(3)
Ag4 Ag 0.51886(4) 0.88693(4) 0.02931(3)
N5 N 0.1193(3) 0.4163(4) 0.4645(3)
C33 C 0.1416(5) 0.4816(5) 0.4887(3)
H33 H 0.1578 0.4619 0.5337
N6 N -0.3301(4) -0.1303(4) 0.9706(3)
N7 N 0.3708(4) 0.8833(4) 0.0967(3)
C34 C -0.2629(5) -0.0924(5) 0.9838(3)
H34 H -0.2829 -0.0625 1.0227
C35 C 0.0929(5) 0.4483(5) 0.4013(4)
H35 H 0.0738 0.4049 0.3842
C36 C 0.0924(4) 0.5430(4) 0.3600(3)
H36 H 0.0746 0.5614 0.3157
N8 N 0.1218(4) 0.1216(4) 0.5874(3)
C37 C 0.1178(4) 0.6105(4) 0.3837(3)
C38 C 0.1798(4) 0.8670(4) 0.1907(3)
C39 C -0.1336(4) -0.1386(4) 0.8835(3)
C40 C 0.1509(4) -0.0036(5) 0.6919(3)
H37 H 0.1756 -0.0233 0.7331
C41 C -0.2014(5) -0.1800(4) 0.8709(4)
H38 H -0.1825 -0.2114 0.8329
C42 C -0.0290(4) -0.1377(5) 0.8355(4)
H39 H -0.0155 -0.0714 0.8155
H40 H 0.0134 -0.1706 0.8673
C43 C 0.2440(5) 0.9124(4) 0.2031(3)
H41 H 0.2241 0.9386 0.2441
C44 C 0.3088(5) 0.8409(5) 0.0839(4)
H42 H 0.3302 0.8161 0.0421
C45 C 0.1224(5) 0.7145(4) 0.3413(3)
H43 H 0.0978 0.7534 0.3771
H44 H 0.1905 0.7238 0.3162
C46 C 0.0663(4) 0.7510(4) 0.2842(3)
H45 H -0.0026 0.7458 0.3092
H46 H 0.0883 0.7108 0.2494
C47 C 0.1016(5) -0.1690(4) 0.7221(4)
H47 H 0.1456 -0.1864 0.7534
H48 H 0.1214 -0.2122 0.6896
C48 C 0.2152(5) 0.8312(5) 0.1283(4)
H49 H 0.1752 0.8003 0.1165
C49 C 0.0786(4) 0.8553(4) 0.2406(3)
H50 H 0.0329 0.8784 0.2106
H51 H 0.0627 0.8946 0.2757
C50 C 0.3376(5) 0.9195(4) 0.1556(3)
H52 H 0.3790 0.9511 0.1653
C51 C 0.1417(4) 0.5772(5) 0.4502(4)
H53 H 0.1581 0.6198 0.4697
C52 C 0.1114(4) -0.0681(5) 0.6749(3)
C53 C -0.2977(5) -0.1743(5) 0.9152(4)
H54 H -0.3421 -0.2027 0.9058
C54 C 0.1542(4) 0.0904(4) 0.6484(3)
H55 H 0.1796 0.1331 0.6619
C55 C 0.0776(5) -0.0343(5) 0.6132(4)
H56 H 0.0492 -0.0745 0.5996
C56 C -0.0021(4) -0.1826(4) 0.7717(4)
H57 H -0.0476 -0.1543 0.7419
H58 H -0.0078 -0.2508 0.7912
C57 C -0.1666(5) -0.0960(4) 0.9426(4)
H59 H -0.1230 -0.0695 0.9544
C58 C 0.0850(5) 0.0579(5) 0.5716(4)
H60 H 0.0629 0.0777 0.5291
Ag4_2 Ag -0.48114(4) -0.11307(4) 1.02931(3)
Ag4A Ag 0.48114(4) 1.11307(4) -0.02931(3)
N6_2 N 0.6699(4) 0.8697(4) -0.0294(3)
S3 S 0.22744(12) 0.19901(12) 0.33236(9)
S4 S 0.56363(13) 0.05495(15) 0.14735(10)
O7 O 0.2569(3) 0.2238(3) 0.3869(2)
C59 C 0.3950(4) 0.1165(4) 0.2453(3)
H61 H 0.4035 0.1782 0.2146
C60 C 0.3143(4) 0.1016(4) 0.3075(3)
O8 O 0.5361(5) 0.1385(6) 0.0975(3)
O9 O 0.2341(4) 0.2743(3) 0.2636(3)
O10 O 0.6444(4) 0.0567(5) 0.1680(3)
O11 O 0.1337(3) 0.1634(4) 0.3631(3)
C61 C 0.3027(5) 0.0095(5) 0.3535(4)
H62 H 0.2477 -0.0005 0.3945
C62 C 0.4619(4) 0.0400(5) 0.2292(3)
C63 C 0.4511(5) -0.0512(5) 0.2768(4)
H63 H 0.4983 -0.1024 0.2665
C64 C 0.3717(6) -0.0673(5) 0.3391(4)
H64 H 0.3648 -0.1287 0.3707
O12 O 0.5715(5) -0.0250(7) 0.1183(4)
O13 O 0.05766(18) 0.39967(16) 0.23426(15)
H65 H 0.1143 0.3725 0.2375
H66 H 0.0616 0.4572 0.2075
O14 O -0.0318(2) 0.2338(2) 0.45533(18)
H67 H -0.0779 0.1995 0.4682
H68 H -0.0408 0.2833 0.4206
O15 O 0.37902(17) 0.3972(2) 0.15055(18)
H69 H 0.3350 0.4451 0.1539
H70 H 0.4334 0.4130 0.1473
O16 O -0.5294(2) 0.7283(3) 0.4633(2)
H71 H -0.5637 0.7830 0.4593
H72 H -0.5666 0.6846 0.4778
O17 O 0.32663(17) 0.5933(2) 0.09383(17)
H73 H 0.3488 0.5401 0.0822
H74 H 0.2922 0.6280 0.0653
O18 O -0.10884(19) 0.39187(18) 0.35534(15)
H75 H -0.1385 0.4234 0.3878
H76 H -0.0661 0.3489 0.3712
O19 O 0.1623(2) 0.8933(2) -0.0680(2)
H77 H 0.1846 0.9082 -0.1154
H78 H 0.1800 0.8341 -0.0507
O20 O 0.45206(19) 0.6688(2) -0.0453(2)
H79 H 0.4798 0.6163 -0.0567
H80 H 0.4936 0.6959 -0.0389
O21 O -0.6740(2) 0.6096(3) 0.5564(3)
H81 H -0.6979 0.6403 0.5899
H82 H -0.6177 0.5808 0.5591
loop_
_geom_bond_atom_site_label_1
_geom_bond_atom_site_label_2
_geom_bond_site_symmetry_1
_geom_bond_site_symmetry_2
Ag1 N1 1_555 1_555
Ag2 N4 1_555 1_555
S1 O2 1_555 1_555
S2 O1 1_555 1_555
C1 H1 1_555 1_555
C2 H2 1_555 1_555
N1 C3 1_555 1_555
N2 Ag1 1_555 1_555
C3 C1 1_555 1_555
H3 C3 1_555 1_555
O3 S2 1_555 1_555
N3 C2 1_555 1_555
C4 H4 1_555 1_555
H5 C4 1_555 1_555
C5 H6 1_555 1_555
C6 C1 1_555 1_555
N4 C5 1_555 1_555
C7 H7 1_555 1_555
H8 C7 1_555 1_555
C8 C12 1_555 1_555
C9 C7 1_555 1_555
C10 C7 1_555 1_555
H9 C10 1_555 1_555
H10 C10 1_555 1_555
O4 Ag1 1_555 1_555
C11 C9 1_555 1_555
H11 C11 1_555 1_555
O5 S2 1_555 1_555
C12 C5 1_555 1_555
H12 C12 1_555 1_555
C13 C10 1_555 1_555
H13 C13 1_555 1_555
H14 C13 1_555 1_555
C14 C13 1_555 1_555
C15 C14 1_555 1_555
H15 C15 1_555 1_555
C16 N3 1_555 1_555
H16 C16 1_555 1_555
C17 N2 1_555 1_555
H17 C17 1_555 1_555
C18 N4 1_555 1_555
H18 C18 1_555 1_555
C19 C4 1_555 1_555
H19 C19 1_555 1_555
H20 C19 1_555 1_555
O6 S1 1_555 1_555
C20 N1 1_555 1_555
H21 C20 1_555 1_555
C21 C4 1_555 1_555
H22 C21 1_555 1_555
H23 C21 1_555 1_555
C22 C6 1_555 1_555
H24 C22 1_555 1_555
C23 C2 1_555 1_555
H25 C23 1_555 1_555
C24 S2 1_555 1_555
C25 C24 1_555 1_555
H26 C25 1_555 1_555
C26 C14 1_555 1_555
H27 C26 1_555 1_555
C27 N2 1_555 1_555
H28 C27 1_555 1_555
C28 C8 1_555 1_555
H29 C28 1_555 1_555
C29 S1 1_555 1_555
C30 H30 1_555 1_555
C31 C29 1_555 1_555
H31 C31 1_555 1_555
C32 C24 1_555 1_555
H32 C32 1_555 1_555
Ag3 N5 1_555 1_555
Ag4 N7 1_555 1_555
N5 C33 1_555 1_555
C33 H33 1_555 1_555
N6 C34 1_555 1_555
N7 C44 1_555 1_555
C34 H34 1_555 1_555
C35 N5 1_555 1_555
H35 C35 1_555 1_555
C36 C35 1_555 1_555
H36 C36 1_555 1_555
N8 Ag3 1_555 1_555
C37 C36 1_555 1_555
C38 C43 1_555 1_555
C39 C41 1_555 1_555
C40 H37 1_555 1_555
C41 H38 1_555 1_555
C42 C39 1_555 1_555
H39 C42 1_555 1_555
H40 C42 1_555 1_555
C43 H41 1_555 1_555
C44 H42 1_555 1_555
C45 C37 1_555 1_555
H43 C45 1_555 1_555
H44 C45 1_555 1_555
C46 C45 1_555 1_555
H45 C46 1_555 1_555
H46 C46 1_555 1_555
C47 H47 1_555 1_555
H48 C47 1_555 1_555
C48 C38 1_555 1_555
H49 C48 1_555 1_555
C49 C38 1_555 1_555
H50 C49 1_555 1_555
H51 C49 1_555 1_555
C50 N7 1_555 1_555
H52 C50 1_555 1_555
C51 C33 1_555 1_555
H53 C51 1_555 1_555
C52 C40 1_555 1_555
C53 N6 1_555 1_555
H54 C53 1_555 1_555
C54 N8 1_555 1_555
H55 C54 1_555 1_555
C55 C52 1_555 1_555
H56 C55 1_555 1_555
C56 C42 1_555 1_555
H57 C56 1_555 1_555
H58 C56 1_555 1_555
C57 C34 1_555 1_555
H59 C57 1_555 1_555
C58 N8 1_555 1_555
H60 C58 1_555 1_555
S3 O7 1_555 1_555
S4 O8 1_555 1_555
C59 H61 1_555 1_555
C60 S3 1_555 1_555
O9 S3 1_555 1_555
O10 S4 1_555 1_555
O11 S3 1_555 1_555
C61 C60 1_555 1_555
H62 C61 1_555 1_555
C62 S4 1_555 1_555
C63 C62 1_555 1_555
H63 C63 1_555 1_555
C64 C61 1_555 1_555
H64 C64 1_555 1_555
O12 S4 1_555 1_555
O13 H65 1_555 1_555
H66 O13 1_555 1_555
O14 H67 1_555 1_555
H68 O14 1_555 1_555
O15 H69 1_555 1_555
H70 O15 1_555 1_555
O16 H71 1_555 1_555
H72 O16 1_555 1_555
O17 H73 1_555 1_555
H74 O17 1_555 1_555
O18 H75 1_555 1_555
H76 O18 1_555 1_555
O19 H77 1_555 1_555
H78 O19 1_555 1_555
O20 H79 1_555 1_555
H80 O20 1_555 1_555
O21 H81 1_555 1_555
H82 O21 1_555 1_555
Ag1A Ag1 1_555 1_555
Ag2_2 N3 1_555 1_555
Ag2_3 O5 1_555 1_555
N3_2 Ag2 1_555 1_555
O5_2 Ag2 1_555 1_555
Ag4_2 N6 1_555 1_555
Ag4A Ag4 1_555 1_555
N6_2 Ag4 1_555 1_555
S1 O4 1_555 1_555
C6 C21 1_555 1_555
C8 C19 1_555 1_555
C9 C23 1_555 1_555
C11 C16 1_555 1_555
C15 C17 1_555 1_555
C18 C28 1_555 1_555
C20 C22 1_555 1_555
C25 C29 1_555 1_555
C26 C27 1_555 1_555
C30 C31 1_555 1_555
C30 C32 1_555 1_555
C37 C51 1_555 1_555
C39 C57 1_555 1_555
C40 C54 1_555 1_555
C41 C53 1_555 1_555
C43 C50 1_555 1_555
C44 C48 1_555 1_555
C46 C49 1_555 1_555
C47 C52 1_555 1_555
C47 C56 1_555 1_555
C55 C58 1_555 1_555
C59 C60 1_555 1_555
C59 C62 1_555 1_555
C63 C64 1_555 1_555

#END
