
#######################################################################
#
#                 Cambridge Crystallographic Data Centre
#                                CCDC 
#
#######################################################################
#
# If this CIF has been generated from an entry in the Cambridge 
# Structural Database, then it will include bibliographic, chemical, 
# crystal, experimental, refinement or atomic coordinate data resulting 
# from the CCDC's data processing and validation procedures.
#
#######################################################################

data_SUQFIV
_symmetry_cell_setting           monoclinic
_symmetry_space_group_name_H-M   'C 2/c'
_symmetry_Int_Tables_number      15
_space_group_name_Hall           '-C 2yn'
loop_
_symmetry_equiv_pos_site_id
_symmetry_equiv_pos_as_xyz
1 x,y,z
2 -x,y,1/2-z
3 1/2+x,1/2+y,z
4 1/2-x,1/2+y,1/2-z
5 -x,-y,-z
6 x,-y,1/2+z
7 1/2-x,1/2-y,-z
8 1/2+x,1/2-y,1/2+z
_cell_length_a                   17.2033(7)
_cell_length_b                   17.7719(7)
_cell_length_c                   14.9470(6)
_cell_angle_alpha                90
_cell_angle_beta                 122.467(2)
_cell_angle_gamma                90
_cell_volume                     3855.57
loop_
_atom_site_label
_atom_site_type_symbol
_atom_site_fract_x
_atom_site_fract_y
_atom_site_fract_z
I1 I 0.52543(2) 0.60887(2) 0.44720(2)
Cu1 Cu 0.42256(2) 0.48540(2) 0.39031(2)
C1 C 0.5000 0.46343(7) 0.2500
H1 H 0.5000 0.5169 0.2500
N1 N 0.46892(5) 0.42891(4) 0.30451(6)
C2 C 0.46874(6) 0.35347(5) 0.30413(8)
H2 H 0.4468 0.3270 0.3415
C3 C 0.5000 0.31377(7) 0.2500
Br1 Br 0.5000 0.20824(2) 0.2500
P1 P 0.27409(2) 0.51679(2) 0.31031(2)
C4 C 0.18775(6) 0.44252(5) 0.24643(7)
C5 C 0.09678(6) 0.45759(5) 0.16492(8)
H3 H 0.0795 0.5072 0.1378
C6 C 0.03157(7) 0.40032(6) 0.12348(8)
H4 H -0.0301 0.4110 0.0684
C7 C 0.05642(7) 0.32740(6) 0.16243(9)
H5 H 0.0116 0.2884 0.1342
C8 C 0.14688(7) 0.31153(6) 0.24282(8)
H6 H 0.1639 0.2617 0.2692
C9 C 0.21242(6) 0.36885(5) 0.28460(7)
H7 H 0.2742 0.3579 0.3393
C10 C 0.24198(6) 0.56066(5) 0.39671(7)
C11 C 0.16580(7) 0.53796(6) 0.39987(8)
H8 H 0.1286 0.4974 0.3566
C12 C 0.14389(8) 0.57431(7) 0.46601(9)
H9 H 0.0919 0.5584 0.4676
C13 C 0.19728(8) 0.63349(7) 0.52944(9)
H10 H 0.1818 0.6586 0.5739
C14 C 0.27404(7) 0.65595(7) 0.52761(9)
H11 H 0.3112 0.6963 0.5714
C15 C 0.29644(7) 0.61975(6) 0.46216(8)
H12 H 0.3491 0.6352 0.4618
C16 C 0.23762(6) 0.58640(5) 0.20495(7)
C17 C 0.17543(7) 0.64431(6) 0.18555(8)
H13 H 0.1511 0.6493 0.2293
C18 C 0.14887(7) 0.69463(6) 0.10265(8)
H14 H 0.1060 0.7334 0.0895
C19 C 0.18472(6) 0.68847(6) 0.03897(8)
H15 H 0.1668 0.7231 -0.0172
C20 C 0.24698(7) 0.63122(6) 0.05793(8)
H16 H 0.2716 0.6266 0.0145
C21 C 0.27327(7) 0.58064(6) 0.14061(8)
H17 H 0.3160 0.5418 0.1533
N1A N 0.53108(5) 0.42891(4) 0.19549(6)
C2A C 0.53126(6) 0.35347(5) 0.19587(8)
H2A H 0.5532 0.3270 0.1585
I1A I 0.47457(2) 0.60887(2) 0.05280(2)
Cu1A Cu 0.57744(2) 0.48540(2) 0.10969(2)
P1A P 0.72591(2) 0.51679(2) 0.18969(2)
C4A C 0.81225(6) 0.44252(5) 0.25357(7)
C5A C 0.90322(6) 0.45759(5) 0.33508(8)
H3A H 0.9205 0.5072 0.3622
C6A C 0.96843(7) 0.40032(6) 0.37652(8)
H4A H 1.0301 0.4110 0.4316
C7A C 0.94358(7) 0.32740(6) 0.33757(9)
H5A H 0.9884 0.2884 0.3658
C8A C 0.85312(7) 0.31153(6) 0.25718(8)
H6A H 0.8361 0.2617 0.2308
C9A C 0.78758(6) 0.36885(5) 0.21540(7)
H7A H 0.7258 0.3579 0.1607
C10A C 0.75802(6) 0.56066(5) 0.10329(7)
C11A C 0.83420(7) 0.53796(6) 0.10013(8)
H8A H 0.8714 0.4974 0.1434
C12A C 0.85611(8) 0.57431(7) 0.03399(9)
H9A H 0.9081 0.5584 0.0324
C13A C 0.80272(8) 0.63349(7) -0.02944(9)
H10A H 0.8182 0.6586 -0.0739
C14A C 0.72596(7) 0.65595(7) -0.02761(9)
H11A H 0.6888 0.6963 -0.0714
C15A C 0.70356(7) 0.61975(6) 0.03784(8)
H12A H 0.6509 0.6352 0.0382
C16A C 0.76238(6) 0.58640(5) 0.29505(7)
C17A C 0.82457(7) 0.64431(6) 0.31445(8)
H13A H 0.8489 0.6493 0.2707
C18A C 0.85113(7) 0.69463(6) 0.39735(8)
H14A H 0.8940 0.7334 0.4105
C19A C 0.81528(6) 0.68847(6) 0.46103(8)
H15A H 0.8332 0.7231 0.5172
C20A C 0.75302(7) 0.63122(6) 0.44207(8)
H16A H 0.7284 0.6266 0.4855
C21A C 0.72673(7) 0.58064(6) 0.35939(8)
H17A H 0.6840 0.5418 0.3467
I1D I 0.47457(2) 0.39113(2) 0.55280(2)
I1E I 0.52543(2) 0.39113(2) -0.05280(2)
Cu1D Cu 0.57744(2) 0.51460(2) 0.60969(2)
Cu1E Cu 0.42256(2) 0.51460(2) -0.10969(2)
loop_
_geom_bond_atom_site_label_1
_geom_bond_atom_site_label_2
_geom_bond_site_symmetry_1
_geom_bond_site_symmetry_2
I1 Cu1 1_555 1_555
Cu1 N1 1_555 1_555
C1 H1 1_555 1_555
N1 C1 1_555 1_555
C2 N1 1_555 1_555
H2 C2 1_555 1_555
C3 C2 1_555 1_555
Br1 C3 1_555 1_555
P1 Cu1 1_555 1_555
C4 P1 1_555 1_555
C5 C4 1_555 1_555
H3 C5 1_555 1_555
C6 C5 1_555 1_555
H4 C6 1_555 1_555
C7 C6 1_555 1_555
H5 C7 1_555 1_555
C8 C7 1_555 1_555
H6 C8 1_555 1_555
C9 C4 1_555 1_555
H7 C9 1_555 1_555
C10 P1 1_555 1_555
C11 C10 1_555 1_555
H8 C11 1_555 1_555
C12 C11 1_555 1_555
H9 C12 1_555 1_555
C13 C12 1_555 1_555
H10 C13 1_555 1_555
C14 C13 1_555 1_555
H11 C14 1_555 1_555
C15 C10 1_555 1_555
H12 C15 1_555 1_555
C16 P1 1_555 1_555
C17 C16 1_555 1_555
H13 C17 1_555 1_555
C18 C17 1_555 1_555
H14 C18 1_555 1_555
C19 C18 1_555 1_555
H15 C19 1_555 1_555
C20 C19 1_555 1_555
H16 C20 1_555 1_555
C21 C16 1_555 1_555
H17 C21 1_555 1_555
N1A C1 1_555 1_555
C2A C3 1_555 1_555
H2A C2A 1_555 1_555
I1A Cu1A 1_555 1_555
Cu1A N1A 1_555 1_555
P1A Cu1A 1_555 1_555
C4A P1A 1_555 1_555
C5A C4A 1_555 1_555
H3A C5A 1_555 1_555
C6A C5A 1_555 1_555
H4A C6A 1_555 1_555
C7A C6A 1_555 1_555
H5A C7A 1_555 1_555
C8A C7A 1_555 1_555
H6A C8A 1_555 1_555
C9A C4A 1_555 1_555
H7A C9A 1_555 1_555
C10A P1A 1_555 1_555
C11A C10A 1_555 1_555
H8A C11A 1_555 1_555
C12A C11A 1_555 1_555
H9A C12A 1_555 1_555
C13A C12A 1_555 1_555
H10A C13A 1_555 1_555
C14A C13A 1_555 1_555
H11A C14A 1_555 1_555
C15A C10A 1_555 1_555
H12A C15A 1_555 1_555
C16A P1A 1_555 1_555
C17A C16A 1_555 1_555
H13A C17A 1_555 1_555
C18A C17A 1_555 1_555
H14A C18A 1_555 1_555
C19A C18A 1_555 1_555
H15A C19A 1_555 1_555
C20A C19A 1_555 1_555
H16A C20A 1_555 1_555
C21A C16A 1_555 1_555
H17A C21A 1_555 1_555
I1D Cu1 1_555 1_555
I1E Cu1A 1_555 1_555
Cu1D I1 1_555 1_555
Cu1E I1A 1_555 1_555
C8 C9 1_555 1_555
C14 C15 1_555 1_555
C20 C21 1_555 1_555
N1A C2A 1_555 1_555
C8A C9A 1_555 1_555
C14A C15A 1_555 1_555
C20A C21A 1_555 1_555
I1D Cu1D 1_555 1_555
I1E Cu1E 1_555 1_555

#END
