
#######################################################################
#
#                 Cambridge Crystallographic Data Centre
#                                CCDC 
#
#######################################################################
#
# If this CIF has been generated from an entry in the Cambridge 
# Structural Database, then it will include bibliographic, chemical, 
# crystal, experimental, refinement or atomic coordinate data resulting 
# from the CCDC's data processing and validation procedures.
#
#######################################################################

data_SUQFUH
_symmetry_cell_setting           monoclinic
_symmetry_space_group_name_H-M   'P 21/n'
_symmetry_Int_Tables_number      14
_space_group_name_Hall           '-P 2yn'
loop_
_symmetry_equiv_pos_site_id
_symmetry_equiv_pos_as_xyz
1 x,y,z
2 1/2-x,1/2+y,1/2-z
3 -x,-y,-z
4 1/2+x,1/2-y,1/2+z
_cell_length_a                   9.4898(13)
_cell_length_b                   9.7370(18)
_cell_length_c                   12.2051(18)
_cell_angle_alpha                90
_cell_angle_beta                 111.784(2)
_cell_angle_gamma                90
_cell_volume                     1047.24
loop_
_atom_site_label
_atom_site_type_symbol
_atom_site_fract_x
_atom_site_fract_y
_atom_site_fract_z
Cu1 Cu 0.43774(4) 0.12788(4) 0.98318(3)
I1 I 0.34835(2) -0.06110(2) 0.80914(2)
N1 N 0.5397(3) 0.2801(2) 0.9248(2)
N2 N 0.7426(3) 0.3501(2) 0.5148(2)
C1 C 0.6238(3) 0.3783(3) 0.9970(3)
H1 H 0.6276 0.3815 1.0759
C2 C 0.7050(4) 0.4747(3) 0.9618(3)
H2 H 0.7625 0.5430 1.0155
C3 C 0.7016(3) 0.4708(3) 0.8475(3)
H3 H 0.7574 0.5358 0.8218
C4 C 0.6153(3) 0.3706(3) 0.7706(2)
C5 C 0.5352(3) 0.2787(3) 0.8136(2)
H4 H 0.4740 0.2113 0.7611
C6 C 0.6074(3) 0.3552(3) 0.6477(2)
C7 C 0.4726(3) 0.3272(3) 0.5541(3)
H5 H 0.3801 0.3184 0.5669
C8 C 0.4748(3) 0.3125(3) 0.4426(3)
H6 H 0.3837 0.2936 0.3775
C9 C 0.6106(3) 0.3254(3) 0.4259(3)
H7 H 0.6103 0.3165 0.3483
C10 C 0.7397(3) 0.3647(3) 0.6233(2)
H8 H 0.8327 0.3825 0.6869
Cu1B Cu 0.56226(4) -0.12788(4) 1.01682(3)
Cu1C Cu 0.93774(4) 0.37212(4) 0.48318(3)
I1B I 0.65165(2) 0.06110(2) 1.19086(2)
N2C N 0.2426(3) 0.1499(2) 1.0148(2)
loop_
_geom_bond_atom_site_label_1
_geom_bond_atom_site_label_2
_geom_bond_site_symmetry_1
_geom_bond_site_symmetry_2
Cu1 I1 1_555 1_555
I1 Cu1B 1_555 1_555
N1 Cu1 1_555 1_555
N2 C9 1_555 1_555
C1 N1 1_555 1_555
H1 C1 1_555 1_555
C2 C1 1_555 1_555
H2 C2 1_555 1_555
C3 C2 1_555 1_555
H3 C3 1_555 1_555
C4 C3 1_555 1_555
C5 N1 1_555 1_555
H4 C5 1_555 1_555
C6 C4 1_555 1_555
C7 C6 1_555 1_555
H5 C7 1_555 1_555
C8 C7 1_555 1_555
H6 C8 1_555 1_555
C9 C8 1_555 1_555
H7 C9 1_555 1_555
C10 N2 1_555 1_555
H8 C10 1_555 1_555
Cu1B I1B 1_555 1_555
Cu1C N2 1_555 1_555
I1B Cu1 1_555 1_555
N2C Cu1 1_555 1_555
C4 C5 1_555 1_555
C6 C10 1_555 1_555

#END
