
#######################################################################
#
#                 Cambridge Crystallographic Data Centre
#                                CCDC 
#
#######################################################################
#
# If this CIF has been generated from an entry in the Cambridge 
# Structural Database, then it will include bibliographic, chemical, 
# crystal, experimental, refinement or atomic coordinate data resulting 
# from the CCDC's data processing and validation procedures.
#
#######################################################################

data_SUQTOP
_symmetry_cell_setting           monoclinic
_symmetry_space_group_name_H-M   'P 21/a'
_symmetry_Int_Tables_number      14
_space_group_name_Hall           '-P 2yab'
loop_
_symmetry_equiv_pos_site_id
_symmetry_equiv_pos_as_xyz
1 x,y,z
2 1/2-x,1/2+y,-z
3 -x,-y,-z
4 1/2+x,1/2-y,z
_cell_length_a                   7.2518(2)
_cell_length_b                   8.9414(4)
_cell_length_c                   10.5929(4)
_cell_angle_alpha                90
_cell_angle_beta                 99.951(3)
_cell_angle_gamma                90
_cell_volume                     676.524
loop_
_atom_site_label
_atom_site_type_symbol
_atom_site_fract_x
_atom_site_fract_y
_atom_site_fract_z
C1 C 0.3806(2) 0.26044(19) -0.16502(19)
C2 C 0.3358(3) 0.2767(2) -0.30423(18)
H1 H 0.3565 0.3691 -0.3395
C3 C 0.2678(3) 0.1677(2) -0.38277(18)
C4 C 0.2041(4) 0.1759(3) -0.5234(2)
H2 H 0.2010 0.2785 -0.5504
H3 H 0.0810 0.1336 -0.5448
H4 H 0.2890 0.1209 -0.5661
N1 N 0.3672(2) 0.12315(17) -0.11209(15)
O1 O 0.2630(3) -0.13686(17) -0.15572(17)
O2 O 0.5472(2) -0.05567(18) -0.22566(15)
O3 O 0.2430(2) 0.02463(14) -0.33778(13)
O4 O 0.4216(2) 0.37113(15) -0.09564(15)
S1 S 0.36577(7) -0.01789(5) -0.19858(4)
Na1 Na 0.17941(12) 0.11721(8) 0.07258(7)
O1A O 0.2370(3) 0.36314(17) 0.15572(17)
O2B O 0.4528(2) 0.05567(18) 0.22566(15)
O4A O 0.0784(2) -0.12887(15) 0.09564(15)
O4C O -0.0784(2) 0.12887(15) -0.09564(15)
Na1A Na 0.32059(12) -0.38279(8) -0.07258(7)
Na1A_2 Na 0.32059(12) 0.61721(8) -0.07258(7)
Na1B Na 0.82059(12) -0.11721(8) -0.07258(7)
Na1C Na 0.67941(12) 0.38279(8) 0.07258(7)
loop_
_geom_bond_atom_site_label_1
_geom_bond_atom_site_label_2
_geom_bond_site_symmetry_1
_geom_bond_site_symmetry_2
C1 C2 1_555 1_555
C2 H1 1_555 1_555
C3 C2 1_555 1_555
C4 C3 1_555 1_555
H2 C4 1_555 1_555
H3 C4 1_555 1_555
H4 C4 1_555 1_555
N1 C1 1_555 1_555
O1 S1 1_555 1_555
O2 S1 1_555 1_555
O3 C3 1_555 1_555
O4 C1 1_555 1_555
S1 N1 1_555 1_555
Na1 N1 1_555 1_555
O1A Na1 1_555 1_555
O2B Na1 1_555 1_555
O4A Na1 1_555 1_555
O4C Na1 1_555 1_555
Na1A O1 1_555 1_555
Na1A_2 O4 1_555 1_555
Na1B O2 1_555 1_555
Na1C O4 1_555 1_555
O3 S1 1_555 1_555

#END
