
#######################################################################
#
#                 Cambridge Crystallographic Data Centre
#                                CCDC 
#
#######################################################################
#
# If this CIF has been generated from an entry in the Cambridge 
# Structural Database, then it will include bibliographic, chemical, 
# crystal, experimental, refinement or atomic coordinate data resulting 
# from the CCDC's data processing and validation procedures.
#
#######################################################################

data_SUQTEF
_symmetry_cell_setting           monoclinic
_symmetry_space_group_name_H-M   'P 21/c'
_symmetry_Int_Tables_number      14
_space_group_name_Hall           '-P 2ybc'
loop_
_symmetry_equiv_pos_site_id
_symmetry_equiv_pos_as_xyz
1 x,y,z
2 -x,1/2+y,1/2-z
3 -x,-y,-z
4 x,1/2-y,1/2+z
_cell_length_a                   8.8197(5)
_cell_length_b                   20.4165(7)
_cell_length_c                   17.7820(10)
_cell_angle_alpha                90
_cell_angle_beta                 95.495(5)
_cell_angle_gamma                90
_cell_volume                     3187.24
loop_
_atom_site_label
_atom_site_type_symbol
_atom_site_fract_x
_atom_site_fract_y
_atom_site_fract_z
Ag2 Ag 0.50879(9) 0.44682(4) 0.84420(6)
N5 N 0.6342(9) 0.8651(3) 0.6453(4)
N6 N 0.6629(8) 0.5246(3) 0.8704(4)
N7 N 0.8240(8) 0.6028(4) 0.8514(4)
N8 N 0.7951(8) 0.7874(4) 0.6792(5)
C10 C 0.7462(10) 0.5522(4) 0.8219(5)
H13 H 0.7500 0.5378 0.7724
C11 C 0.6914(11) 0.5611(4) 0.9363(5)
H14 H 0.6498 0.5529 0.9815
C12 C 0.7868(11) 0.6090(5) 0.9247(6)
H15 H 0.8222 0.6410 0.9593
C13 C 0.9153(11) 0.6478(5) 0.8111(6)
H16 H 0.9683 0.6239 0.7744
H17 H 0.9908 0.6688 0.8464
C14 C 0.8135(10) 0.6987(4) 0.7716(6)
H18 H 0.7625 0.7229 0.8088
H19 H 0.7361 0.6772 0.7379
C15 C 0.9008(11) 0.7459(5) 0.7269(7)
H20 H 0.9656 0.7732 0.7612
H21 H 0.9653 0.7217 0.6955
C16 C 0.7312(10) 0.8419(4) 0.7004(5)
H22 H 0.7515 0.8614 0.7475
C17 C 0.7372(12) 0.7746(5) 0.6076(6)
H23 H 0.7618 0.7394 0.5780
C18 C 0.6374(12) 0.8226(5) 0.5874(6)
H24 H 0.5797 0.8259 0.5410
C19 C 0.435(2) 0.4777(9) 0.6532(8)
C20 C 0.4732(11) 0.4882(5) 0.5744(5)
C21 C 0.3685(14) 0.5025(15) 0.5188(7)
H25 H 0.2692 0.5067 0.5316
C22 C 0.6104(12) 0.4880(10) 0.5552(6)
C23 C 0.730(2) 0.4400(10) 0.6061(10)
O2 O 0.4754(19) 0.4477(8) 0.6912(8)
O3 O 0.3596(19) 0.5371(9) 0.6798(9)
O4 O 0.7657(16) 0.3781(8) 0.5991(8)
O5 O 0.8067(11) 0.4755(5) 0.6456(6)
C19B C 0.565(2) 0.5223(9) 0.3468(8)
C20B C 0.5268(11) 0.5118(5) 0.4256(5)
C21B C 0.6315(14) 0.4975(15) 0.4812(7)
H25B H 0.7308 0.4933 0.4684
C22B C 0.3896(12) 0.5120(10) 0.4448(6)
C23B C 0.270(2) 0.5600(10) 0.3939(10)
O2B O 0.5246(19) 0.5523(8) 0.3088(8)
O3B O 0.6404(19) 0.4629(9) 0.3202(9)
O4B O 0.2343(16) 0.6219(8) 0.4009(8)
O5B O 0.1933(11) 0.5245(5) 0.3544(6)
Ag2B Ag 0.49121(9) 0.55318(4) 0.15580(6)
N5B N 0.3658(9) 0.1349(3) 0.3547(4)
N6B N 0.3371(8) 0.4754(3) 0.1296(4)
N7B N 0.1760(8) 0.3972(4) 0.1486(4)
N8B N 0.2049(8) 0.2126(4) 0.3208(5)
C10B C 0.2538(10) 0.4478(4) 0.1781(5)
H13B H 0.2500 0.4622 0.2276
C11B C 0.3086(11) 0.4389(4) 0.0637(5)
H14B H 0.3502 0.4471 0.0185
C12B C 0.2132(11) 0.3910(5) 0.0753(6)
H15B H 0.1778 0.3590 0.0407
C13B C 0.0847(11) 0.3522(5) 0.1889(6)
H16B H 0.0317 0.3761 0.2256
H17B H 0.0092 0.3312 0.1536
C14B C 0.1865(10) 0.3013(4) 0.2284(6)
H18B H 0.2375 0.2771 0.1912
H19B H 0.2639 0.3228 0.2621
C15B C 0.0992(11) 0.2541(5) 0.2731(7)
H20B H 0.0344 0.2268 0.2388
H21B H 0.0347 0.2783 0.3045
C16B C 0.2688(10) 0.1581(4) 0.2996(5)
H22B H 0.2485 0.1386 0.2525
C17B C 0.2628(12) 0.2254(5) 0.3924(6)
H23B H 0.2382 0.2606 0.4220
C18B C 0.3626(12) 0.1774(5) 0.4126(6)
H24B H 0.4203 0.1741 0.4590
Ag2A Ag 0.49121(9) 0.94682(4) 0.65580(6)
Ag2C Ag 0.50879(9) 0.05318(4) 0.34420(6)
N5A N 0.3658(9) 0.3651(3) 0.8547(4)
N5C N 0.6342(9) 0.6349(3) 0.1453(4)
O7 O 0.127(3) 0.6148(7) 0.6383(10)
O8 O 0.3164(16) 0.3174(7) 0.5908(8)
O9 O 0.4339(11) 0.7046(4) 0.4883(5)
O10 O 0.4871(11) 0.6509(4) 0.6372(5)
Ag1 Ag 0.93865(8) 0.54139(3) 0.13860(4)
N1 N 0.7959(8) 0.4592(3) 0.1097(4)
N2 N 0.9049(8) 0.1207(3) 0.3505(4)
N3 N 0.6646(8) 0.3707(3) 0.1273(4)
N4 N 0.7279(8) 0.1871(3) 0.3033(4)
C1 C 0.7200(10) 0.4263(4) 0.1577(5)
H1 H 0.7069 0.4401 0.2065
C2 C 0.7907(10) 0.4210(4) 0.0462(5)
H2 H 0.8358 0.4314 0.0026
C3 C 0.7110(10) 0.3664(4) 0.0562(5)
H3 H 0.6912 0.3325 0.0218
C4 C 0.5837(9) 0.3203(4) 0.1664(5)
H4 H 0.5180 0.2955 0.1299
H5 H 0.5203 0.3410 0.2013
C5 C 0.6949(10) 0.2748(4) 0.2090(6)
H6 H 0.7583 0.2998 0.2463
H7 H 0.7608 0.2559 0.1742
C6 C 0.6171(10) 0.2200(5) 0.2487(6)
H8 H 0.5346 0.2378 0.2747
H9 H 0.5744 0.1885 0.2116
C7 C 0.8052(10) 0.1324(4) 0.2920(6)
H10 H 0.7909 0.1063 0.2491
C8 C 0.7822(11) 0.2116(5) 0.3713(5)
H11 H 0.7508 0.2499 0.3934
C9 C 0.8886(10) 0.1707(4) 0.4002(5)
H12 H 0.9438 0.1753 0.4472
O1 O 0.9117(9) 0.5211(6) 0.2838(5)
Ag1A Ag 1.06135(8) 0.04139(3) 0.36140(4)
N2A N 1.0951(8) 0.6207(3) 0.1495(4)
O6? O 0.7760(15) 0.5883(8) 0.6288(9)
C24? C 0.742(2) 0.5168(11) 0.6145(12)
loop_
_geom_bond_atom_site_label_1
_geom_bond_atom_site_label_2
_geom_bond_site_symmetry_1
_geom_bond_site_symmetry_2
Ag1 N1 1_555 1_555
N1 C1 1_555 1_555
N2 C7 1_555 1_555
N3 C1 1_555 1_555
N4 C6 1_555 1_555
C1 H1 1_555 1_555
C2 N1 1_555 1_555
H2 C2 1_555 1_555
C3 N3 1_555 1_555
H3 C3 1_555 1_555
C4 N3 1_555 1_555
H4 C4 1_555 1_555
H5 C4 1_555 1_555
C5 C4 1_555 1_555
H6 C5 1_555 1_555
H7 C5 1_555 1_555
C6 C5 1_555 1_555
H8 C6 1_555 1_555
H9 C6 1_555 1_555
C7 N4 1_555 1_555
H10 C7 1_555 1_555
C8 N4 1_555 1_555
H11 C8 1_555 1_555
C9 N2 1_555 1_555
H12 C9 1_555 1_555
O1 Ag1 1_555 1_555
Ag2 N6 1_555 1_555
N5 C16 1_555 1_555
N6 C10 1_555 1_555
N7 C10 1_555 1_555
N8 C15 1_555 1_555
C10 H13 1_555 1_555
C11 N6 1_555 1_555
H14 C11 1_555 1_555
C12 N7 1_555 1_555
H15 C12 1_555 1_555
C13 N7 1_555 1_555
H16 C13 1_555 1_555
H17 C13 1_555 1_555
C14 C13 1_555 1_555
H18 C14 1_555 1_555
H19 C14 1_555 1_555
C15 C14 1_555 1_555
H20 C15 1_555 1_555
H21 C15 1_555 1_555
C16 N8 1_555 1_555
H22 C16 1_555 1_555
C17 N8 1_555 1_555
H23 C17 1_555 1_555
C18 N5 1_555 1_555
H24 C18 1_555 1_555
C19 C20 1_555 1_555
C20 C21 1_555 1_555
C21 H25 1_555 1_555
C22 C20 1_555 1_555
C23 C22 1_555 1_555
O2 Ag2 1_555 1_555
O3 C19 1_555 1_555
O4 C23 1_555 1_555
O5 C23 1_555 1_555
Ag1A N2 1_555 1_555
N2A Ag1 1_555 1_555
C19B C20B 1_555 1_555
C20B C21B 1_555 1_555
C21B C22 1_555 1_555
H25B C21B 1_555 1_555
C22B C21 1_555 1_555
C23B C22B 1_555 1_555
O2B C19B 1_555 1_555
O3B C19B 1_555 1_555
O4B C23B 1_555 1_555
O5B C23B 1_555 1_555
Ag2B O2B 1_555 1_555
N5B C16B 1_555 1_555
N6B Ag2B 1_555 1_555
N7B C10B 1_555 1_555
N8B C15B 1_555 1_555
C10B N6B 1_555 1_555
H13B C10B 1_555 1_555
C11B N6B 1_555 1_555
H14B C11B 1_555 1_555
C12B N7B 1_555 1_555
H15B C12B 1_555 1_555
C13B N7B 1_555 1_555
H16B C13B 1_555 1_555
H17B C13B 1_555 1_555
C14B C13B 1_555 1_555
H18B C14B 1_555 1_555
H19B C14B 1_555 1_555
C15B C14B 1_555 1_555
H20B C15B 1_555 1_555
H21B C15B 1_555 1_555
C16B N8B 1_555 1_555
H22B C16B 1_555 1_555
C17B N8B 1_555 1_555
H23B C17B 1_555 1_555
C18B N5B 1_555 1_555
H24B C18B 1_555 1_555
Ag2A N5 1_555 1_555
Ag2C N5B 1_555 1_555
N5A Ag2 1_555 1_555
N5C Ag2B 1_555 1_555
C2 C3 1_555 1_555
C8 C9 1_555 1_555
C11 C12 1_555 1_555
C17 C18 1_555 1_555
C19 O2 1_555 1_555
C20B C22B 1_555 1_555
C11B C12B 1_555 1_555
C17B C18B 1_555 1_555

#END
