
#######################################################################
#
#                 Cambridge Crystallographic Data Centre
#                                CCDC 
#
#######################################################################
#
# If this CIF has been generated from an entry in the Cambridge 
# Structural Database, then it will include bibliographic, chemical, 
# crystal, experimental, refinement or atomic coordinate data resulting 
# from the CCDC's data processing and validation procedures.
#
#######################################################################

data_SUQZAH
_symmetry_cell_setting           triclinic
_symmetry_space_group_name_H-M   'P -1'
_symmetry_Int_Tables_number      2
_space_group_name_Hall           '-P 1'
loop_
_symmetry_equiv_pos_site_id
_symmetry_equiv_pos_as_xyz
1 x,y,z
2 -x,-y,-z
_cell_length_a                   10.2521(6)
_cell_length_b                   11.0974(7)
_cell_length_c                   16.1113(9)
_cell_angle_alpha                95.094(5)
_cell_angle_beta                 92.130(5)
_cell_angle_gamma                113.468(6)
_cell_volume                     1669.46
loop_
_atom_site_label
_atom_site_type_symbol
_atom_site_fract_x
_atom_site_fract_y
_atom_site_fract_z
Mg1 Mg 1.0000 1.0000 0.0000
Mg2 Mg 0.71665(6) 0.71634(6) 0.05868(3)
O1 O 0.67145(13) 0.62171(12) -0.06932(7)
O2 O 0.60897(15) 0.55311(14) 0.11567(9)
H1 H 0.5278 0.5151 0.0932
H2 H 0.638(3) 0.537(3) 0.1616(17)
O3 O 0.80570(12) 0.83370(12) -0.04339(7)
O4 O 0.09103(14) 0.95543(13) -0.10372(7)
O5 O 0.22496(15) 1.14172(13) -0.15553(8)
O6 O 0.06556(13) 0.88004(12) -0.93734(7)
O7 O -0.10343(13) 0.68419(13) -0.91711(8)
O8 O 0.53540(16) 0.74943(18) 0.03446(10)
O9 O 0.68396(14) 0.78515(17) -0.43939(8)
O10 O 0.43060(13) 0.68914(15) -0.69983(7)
O11 O 0.18601(14) 0.72121(15) -0.45859(8)
N1 N 0.3443(2) 0.73846(19) -0.04452(12)
C1 C 0.73662(18) 0.73323(18) -0.09520(10)
C2 C 0.72362(18) 0.74596(18) -0.18633(10)
C3 C 0.7778(2) 0.8692(2) -0.21478(11)
H3 H 0.8262 0.9442 -0.1772
C4 C 0.7603(2) 0.8817(2) -0.29911(12)
H4 H 0.7956 0.9648 -0.3180
C5 C 0.6906(2) 0.7707(2) -0.35410(11)
C6 C 0.6361(2) 0.6472(2) -0.32761(12)
H5 H 0.5888 0.5727 -0.3657
C7 C 0.6522(2) 0.6348(2) -0.24349(11)
H6 H 0.6149 0.5515 -0.2251
C8 C 0.55354(19) 0.75621(19) -0.48108(11)
C9 C 0.54897(19) 0.73229(19) -0.56715(10)
H7 H 0.6280 0.7300 -0.5927
C10 C 0.42579(19) 0.71197(18) -0.61449(10)
C11 C 0.3067(2) 0.7129(2) -0.57738(11)
H8 H 0.2239 0.6997 -0.6096
C12 C 0.31383(19) 0.7342(2) -0.49119(11)
C13 C 0.4357(2) 0.7565(2) -0.44139(11)
H9 H 0.4387 0.7711 -0.3835
C14 C 0.02232(18) 0.77147(18) -0.90822(10)
C15 C 0.13070(18) 0.74458(18) -0.85576(10)
C16 C 0.2700(2) 0.8371(2) -0.84299(12)
H10 H 0.2977 0.9132 -0.8699
C17 C 0.3686(2) 0.8186(2) -0.79095(13)
H11 H 0.4618 0.8821 -0.7823
C18 C 0.32793(19) 0.7056(2) -0.75221(10)
C19 C 0.1922(2) 0.6086(2) -0.76701(12)
H12 H 0.1671 0.5299 -0.7431
C20 C 0.0935(2) 0.6296(2) -0.81794(12)
H13 H 0.0007 0.5655 -0.8269
C21 C 0.16016(19) 1.01810(19) -0.15956(11)
C22 C 0.16773(18) 0.93952(18) -0.23942(10)
C23 C 0.0880(2) 0.8044(2) -0.25378(12)
H14 H 0.0274 0.7616 -0.2143
C24 C 0.0975(2) 0.7324(2) -0.32627(13)
H15 H 0.0439 0.6416 -0.3355
C25 C 0.1873(2) 0.7968(2) -0.38447(11)
C26 C 0.2657(2) 0.9311(2) -0.37242(12)
H16 H 0.3248 0.9736 -0.4126
C27 C 0.2556(2) 1.0025(2) -0.29958(11)
H17 H 0.3082 1.0935 -0.2910
C28 C 0.4087(2) 0.6953(2) 0.01066(14)
H18 H 0.3538 0.6182 0.0331
C29 C 0.4221(4) 0.8529(4) -0.0856(3)
H19 H 0.5194 0.8926 -0.0624
H20 H 0.3795 0.9156 -0.0775
H21 H 0.4193 0.8270 -0.1443
C30 C 0.1942(3) 0.6668(3) -0.07136(18)
H22 H 0.1535 0.5934 -0.0394
H23 H 0.1840 0.6348 -0.1296
H24 H 0.1458 0.7247 -0.0628
Mg2A Mg 0.28335(6) 1.28366(6) -1.05868(3)
O1A O 0.32855(13) 1.37829(12) -0.93068(7)
O2A O 0.39103(15) 1.44689(14) -1.11567(9)
H1A H 0.4722 1.4849 -1.0932
H2A H 0.362(3) 1.463(3) -1.1616(17)
O3A O 0.19430(12) 1.16630(12) -0.95661(7)
O4A O 0.90897(14) 1.04457(13) -0.89628(7)
O5A O 0.77504(15) 0.85828(13) -0.84447(8)
O6A O 0.93444(13) 1.11996(12) -0.06266(7)
O7A O 1.10343(13) 1.31581(13) -0.08289(8)
O8A O 0.46460(16) 1.25057(18) -1.03446(10)
O9A O 0.31604(14) 1.21485(17) -0.56061(8)
O10A O 0.56940(13) 1.31086(15) -0.30017(7)
O11A O 0.81399(14) 1.27879(15) -0.54141(8)
N1A N 0.6557(2) 1.26154(19) -0.95548(12)
C1A C 0.26338(18) 1.26677(18) -0.90480(10)
C2A C 0.27638(18) 1.25404(18) -0.81367(10)
C3A C 0.2222(2) 1.1308(2) -0.78522(11)
H3A H 0.1738 1.0558 -0.8228
C4A C 0.2397(2) 1.1183(2) -0.70089(12)
H4A H 0.2044 1.0352 -0.6820
C5A C 0.3094(2) 1.2293(2) -0.64590(11)
C6A C 0.3639(2) 1.3528(2) -0.67239(12)
H5A H 0.4112 1.4273 -0.6343
C7A C 0.3478(2) 1.3652(2) -0.75651(11)
H6A H 0.3851 1.4485 -0.7749
C8A C 0.44646(19) 1.24379(19) -0.51892(11)
C9A C 0.45103(19) 1.26771(19) -0.43285(10)
H7A H 0.3720 1.2700 -0.4073
C10A C 0.57421(19) 1.28803(18) -0.38551(10)
C11A C 0.6933(2) 1.2871(2) -0.42262(11)
H8A H 0.7761 1.3003 -0.3904
C12A C 0.68617(19) 1.2658(2) -0.50881(11)
C13A C 0.5643(2) 1.2435(2) -0.55861(11)
H9A H 0.5613 1.2289 -0.6165
C14A C 0.97768(18) 1.22853(18) -0.09178(10)
C15A C 0.86930(18) 1.25542(18) -0.14424(10)
C16A C 0.7300(2) 1.1629(2) -0.15701(12)
H10A H 0.7023 1.0868 -0.1301
C17A C 0.6314(2) 1.1814(2) -0.20905(13)
H11A H 0.5382 1.1179 -0.2177
C18A C 0.67207(19) 1.2944(2) -0.24779(10)
C19A C 0.8078(2) 1.3914(2) -0.23299(12)
H12A H 0.8329 1.4701 -0.2569
C20A C 0.9065(2) 1.3704(2) -0.18206(12)
H13A H 0.9993 1.4345 -0.1731
C21A C 0.83984(19) 0.98190(19) -0.84044(11)
C22A C 0.83227(18) 1.06048(18) -0.76058(10)
C23A C 0.9120(2) 1.1956(2) -0.74622(12)
H14A H 0.9726 1.2384 -0.7857
C24A C 0.9025(2) 1.2676(2) -0.67373(13)
H15A H 0.9561 1.3584 -0.6645
C25A C 0.8127(2) 1.2032(2) -0.61553(11)
C26A C 0.7343(2) 1.0689(2) -0.62758(12)
H16A H 0.6752 1.0264 -0.5874
C27A C 0.7444(2) 0.9975(2) -0.70042(11)
H17A H 0.6918 0.9065 -0.7090
C28A C 0.5913(2) 1.3047(2) -1.01066(14)
H18A H 0.6462 1.3818 -1.0331
C29A C 0.5779(4) 1.1471(4) -0.9144(3)
H19A H 0.4806 1.1074 -0.9376
H20A H 0.6205 1.0844 -0.9225
H21A H 0.5807 1.1730 -0.8557
C30A C 0.8058(3) 1.3332(3) -0.92864(18)
H22A H 0.8465 1.4066 -0.9606
H23A H 0.8160 1.3652 -0.8704
H24A H 0.8542 1.2753 -0.9372
Mg1_2 Mg 0.0000 1.0000 -1.0000
Mg1_3 Mg 0.0000 1.0000 0.0000
Mg1_4 Mg 1.0000 1.0000 -1.0000
Mg2_2 Mg -0.28335(6) 0.71634(6) -0.94132(3)
Mg2_3 Mg 0.71665(6) 0.71634(6) -0.94132(3)
Mg2A_2 Mg 0.28335(6) 1.28366(6) -0.05868(3)
Mg2A_3 Mg 1.28335(6) 1.28366(6) -0.05868(3)
O3A_2 O 1.19430(12) 1.16630(12) 0.04339(7)
O4_2 O 1.09103(14) 0.95543(13) -0.10372(7)
O4A_2 O 0.90897(14) 1.04457(13) 0.10372(7)
O5_2 O 0.22496(15) 1.14172(13) -1.15553(8)
O5A_2 O 0.77504(15) 0.85828(13) 0.15553(8)
O6_2 O 1.06556(13) 0.88004(12) 0.06266(7)
O7_2 O 0.89657(13) 0.68419(13) 0.08289(8)
O7A_2 O 0.10343(13) 1.31581(13) -1.08289(8)
O12 O 0.7305(2) 0.5400(2) 0.26651(11)
N2 N 0.8682(2) 0.6889(2) 0.37323(12)
C31 C 0.8415(3) 0.5931(3) 0.43209(17)
H25 H 0.7776 0.5077 0.4057
H26 H 0.7993 0.6181 0.4792
H27 H 0.9298 0.5895 0.4507
C32 C 0.9589(3) 0.8252(3) 0.4035(2)
H28 H 0.9689 0.8795 0.3589
H29 H 1.0511 0.8312 0.4230
H30 H 0.9167 0.8553 0.4486
C33 C 0.8090(3) 0.6533(3) 0.29517(17)
H31 H 0.837(3) 0.732(3) 0.2646(17)
loop_
_geom_bond_atom_site_label_1
_geom_bond_atom_site_label_2
_geom_bond_site_symmetry_1
_geom_bond_site_symmetry_2
Mg1 O3 1_555 1_555
Mg2 O1 1_555 1_555
O1 C1 1_555 1_555
O2 Mg2 1_555 1_555
H1 O2 1_555 1_555
H2 O2 1_555 1_555
O3 Mg2 1_555 1_555
O4 C21 1_555 1_555
O5 C21 1_555 1_555
O6 C14 1_555 1_555
O7 C14 1_555 1_555
O8 Mg2 1_555 1_555
O9 C5 1_555 1_555
O10 C10 1_555 1_555
O11 C12 1_555 1_555
N1 C28 1_555 1_555
C1 O3 1_555 1_555
C2 C1 1_555 1_555
C3 C2 1_555 1_555
H3 C3 1_555 1_555
C4 C3 1_555 1_555
H4 C4 1_555 1_555
C5 C4 1_555 1_555
C6 C5 1_555 1_555
H5 C6 1_555 1_555
C7 C2 1_555 1_555
H6 C7 1_555 1_555
C8 O9 1_555 1_555
C9 C8 1_555 1_555
H7 C9 1_555 1_555
C10 C9 1_555 1_555
C11 C10 1_555 1_555
H8 C11 1_555 1_555
C12 C11 1_555 1_555
C13 C8 1_555 1_555
H9 C13 1_555 1_555
C14 C15 1_555 1_555
C15 C16 1_555 1_555
C16 H10 1_555 1_555
C17 C16 1_555 1_555
H11 C17 1_555 1_555
C18 O10 1_555 1_555
C19 C18 1_555 1_555
H12 C19 1_555 1_555
C20 C15 1_555 1_555
H13 C20 1_555 1_555
C21 C22 1_555 1_555
C22 C23 1_555 1_555
C23 H14 1_555 1_555
C24 C23 1_555 1_555
H15 C24 1_555 1_555
C25 O11 1_555 1_555
C26 C25 1_555 1_555
H16 C26 1_555 1_555
C27 C22 1_555 1_555
H17 C27 1_555 1_555
C28 O8 1_555 1_555
H18 C28 1_555 1_555
C29 N1 1_555 1_555
H19 C29 1_555 1_555
H20 C29 1_555 1_555
H21 C29 1_555 1_555
C30 N1 1_555 1_555
H22 C30 1_555 1_555
H23 C30 1_555 1_555
H24 C30 1_555 1_555
O12 C33 1_555 1_555
N2 C31 1_555 1_555
C31 H25 1_555 1_555
H26 C31 1_555 1_555
H27 C31 1_555 1_555
C32 N2 1_555 1_555
H28 C32 1_555 1_555
H29 C32 1_555 1_555
H30 C32 1_555 1_555
C33 N2 1_555 1_555
H31 C33 1_555 1_555
Mg2A O1A 1_555 1_555
O1A C1A 1_555 1_555
O2A Mg2A 1_555 1_555
H1A O2A 1_555 1_555
H2A O2A 1_555 1_555
O3A Mg2A 1_555 1_555
O4A C21A 1_555 1_555
O5A C21A 1_555 1_555
O6A Mg1 1_555 1_555
O7A C14A 1_555 1_555
O8A Mg2A 1_555 1_555
O9A C5A 1_555 1_555
O10A C10A 1_555 1_555
O11A C12A 1_555 1_555
N1A C28A 1_555 1_555
C1A O3A 1_555 1_555
C2A C1A 1_555 1_555
C3A C2A 1_555 1_555
H3A C3A 1_555 1_555
C4A C3A 1_555 1_555
H4A C4A 1_555 1_555
C5A C4A 1_555 1_555
C6A C5A 1_555 1_555
H5A C6A 1_555 1_555
C7A C2A 1_555 1_555
H6A C7A 1_555 1_555
C8A O9A 1_555 1_555
C9A C8A 1_555 1_555
H7A C9A 1_555 1_555
C10A C9A 1_555 1_555
C11A C10A 1_555 1_555
H8A C11A 1_555 1_555
C12A C11A 1_555 1_555
C13A C8A 1_555 1_555
H9A C13A 1_555 1_555
C14A O6A 1_555 1_555
C15A C14A 1_555 1_555
C16A C15A 1_555 1_555
H10A C16A 1_555 1_555
C17A C16A 1_555 1_555
H11A C17A 1_555 1_555
C18A O10A 1_555 1_555
C19A C18A 1_555 1_555
H12A C19A 1_555 1_555
C20A C15A 1_555 1_555
H13A C20A 1_555 1_555
C21A C22A 1_555 1_555
C22A C23A 1_555 1_555
C23A H14A 1_555 1_555
C24A C23A 1_555 1_555
H15A C24A 1_555 1_555
C25A O11A 1_555 1_555
C26A C25A 1_555 1_555
H16A C26A 1_555 1_555
C27A C22A 1_555 1_555
H17A C27A 1_555 1_555
C28A O8A 1_555 1_555
H18A C28A 1_555 1_555
C29A N1A 1_555 1_555
H19A C29A 1_555 1_555
H20A C29A 1_555 1_555
H21A C29A 1_555 1_555
C30A N1A 1_555 1_555
H22A C30A 1_555 1_555
H23A C30A 1_555 1_555
H24A C30A 1_555 1_555
Mg1_2 O6 1_555 1_555
Mg1_3 O4 1_555 1_555
Mg1_4 O4A 1_555 1_555
Mg2_2 O7 1_555 1_555
Mg2_3 O5A 1_555 1_555
Mg2A_2 O5 1_555 1_555
Mg2A_3 O7A 1_555 1_555
O3A_2 Mg1 1_555 1_555
O4_2 Mg1 1_555 1_555
O4A_2 Mg1 1_555 1_555
O5_2 Mg2A 1_555 1_555
O5A_2 Mg2 1_555 1_555
O6_2 Mg1 1_555 1_555
O7_2 Mg2 1_555 1_555
O7A_2 Mg2A 1_555 1_555
C6 C7 1_555 1_555
C12 C13 1_555 1_555
C17 C18 1_555 1_555
C19 C20 1_555 1_555
C24 C25 1_555 1_555
C26 C27 1_555 1_555
O3A Mg1_2 1_555 1_555
C6A C7A 1_555 1_555
C12A C13A 1_555 1_555
C17A C18A 1_555 1_555
C19A C20A 1_555 1_555
C24A C25A 1_555 1_555
C26A C27A 1_555 1_555
Mg2A_3 O3A_2 1_555 1_555

#END
