
#######################################################################
#
#                 Cambridge Crystallographic Data Centre
#                                CCDC 
#
#######################################################################
#
# If this CIF has been generated from an entry in the Cambridge 
# Structural Database, then it will include bibliographic, chemical, 
# crystal, experimental, refinement or atomic coordinate data resulting 
# from the CCDC's data processing and validation procedures.
#
#######################################################################

data_SURDOA
_symmetry_cell_setting           monoclinic
_symmetry_space_group_name_H-M   'C 2/c'
_symmetry_Int_Tables_number      15
_space_group_name_Hall           '-C 2yn'
loop_
_symmetry_equiv_pos_site_id
_symmetry_equiv_pos_as_xyz
1 x,y,z
2 -x,y,1/2-z
3 1/2+x,1/2+y,z
4 1/2-x,1/2+y,1/2-z
5 -x,-y,-z
6 x,-y,1/2+z
7 1/2-x,1/2-y,-z
8 1/2+x,1/2-y,1/2+z
_cell_length_a                   26.323(4)
_cell_length_b                   14.696(2)
_cell_length_c                   26.630(4)
_cell_angle_alpha                90
_cell_angle_beta                 157.747(4)
_cell_angle_gamma                90
_cell_volume                     3901.19
loop_
_atom_site_label
_atom_site_type_symbol
_atom_site_fract_x
_atom_site_fract_y
_atom_site_fract_z
Co1 Co 0.40553(6) 0.45311(6) 0.47665(6)
O1 O 0.2813(3) 0.4031(3) 0.3118(3)
O2 O 0.1373(3) 0.4517(3) 0.2378(3)
O3 O -0.4162(3) 0.4219(3) -0.3878(3)
O4 O -0.3509(3) 0.4618(3) -0.2516(3)
N1 N 0.3729(4) 0.3714(4) 0.5072(4)
N2 N 0.0695(4) 0.2265(4) -0.0379(4)
N3 N 0.1096(4) 0.0805(3) 0.0115(4)
C1 C 0.1622(5) 0.4182(4) 0.2190(5)
C2 C 0.0499(5) 0.3956(4) 0.0804(4)
C3 C -0.0815(5) 0.4170(4) -0.0267(4)
H1 H -0.0996 0.4413 -0.0117
C4 C -0.1856(5) 0.4023(4) -0.1555(4)
C5 C -0.3267(5) 0.4318(4) -0.2717(5)
C6 C -0.1569(5) 0.3666(4) -0.1758(5)
H2 H -0.2268 0.3565 -0.2622
C7 C -0.0271(5) 0.3452(4) -0.0717(5)
C8 C 0.0753(5) 0.3612(4) 0.0569(5)
H3 H 0.1634 0.3479 0.1285
C9 C 0.0041(5) 0.3156(4) -0.0956(5)
H4 H -0.0785 0.3132 -0.1904
H5 H 0.0622 0.3604 -0.0581
C10 C 0.1758(5) 0.2036(5) 0.0293(5)
H6 H 0.2221 0.2417 0.0499
C11 C 0.1995(5) 0.1148(4) 0.0596(5)
H7 H 0.2676 0.0812 0.1067
C12 C 0.0328(5) 0.1518(4) -0.0471(5)
H8 H -0.0381 0.1494 -0.0892
C13 C 0.3160(7) 0.2900(5) 0.4504(6)
H9 H 0.3089 0.2649 0.4119
C14 C 0.2670(7) 0.2411(5) 0.4458(7)
H10 H 0.2273 0.1847 0.4040
C15 C 0.2766(6) 0.2752(5) 0.5026(6)
C16 C 0.3395(6) 0.3572(5) 0.5649(5)
H11 H 0.3511 0.3825 0.6072
C17 C 0.3858(5) 0.4027(5) 0.5658(5)
H12 H 0.4285 0.4584 0.6095
N1F N 0.1271(4) 0.1286(4) 0.4928(4)
C13F C 0.1840(7) 0.2100(5) 0.5496(6)
H9F H 0.1911 0.2351 0.5881
C14F C 0.2330(7) 0.2589(5) 0.5542(7)
H10F H 0.2727 0.3153 0.5960
C15F C 0.2234(6) 0.2248(5) 0.4974(6)
C16F C 0.1605(6) 0.1428(5) 0.4351(5)
H11F H 0.1489 0.1175 0.3928
C17F C 0.1142(5) 0.0973(5) 0.4342(5)
H12F H 0.0715 0.0416 0.3905
Co1F Co 0.09447(6) 0.04689(6) 0.52335(6)
O1F O 0.2187(3) 0.0969(3) 0.6882(3)
O2F O 0.3627(3) 0.0483(3) 0.7622(3)
O3F O 0.9162(3) 0.0781(3) 1.3878(3)
O4F O 0.8509(3) 0.0382(3) 1.2516(3)
N2F N 0.4305(4) 0.2735(4) 1.0379(4)
N3F N 0.3904(4) 0.4195(3) 0.9885(4)
C1F C 0.3378(5) 0.0818(4) 0.7810(5)
C2F C 0.4501(5) 0.1044(4) 0.9196(4)
C3F C 0.5815(5) 0.0830(4) 1.0267(4)
H1F H 0.5996 0.0587 1.0117
C4F C 0.6856(5) 0.0977(4) 1.1555(4)
C5F C 0.8267(5) 0.0682(4) 1.2717(5)
C6F C 0.6569(5) 0.1334(4) 1.1758(5)
H2F H 0.7268 0.1435 1.2622
C7F C 0.5271(5) 0.1548(4) 1.0717(5)
C8F C 0.4247(5) 0.1388(4) 0.9431(5)
H3F H 0.3366 0.1521 0.8715
C9F C 0.4959(5) 0.1844(4) 1.0956(5)
H4F H 0.5785 0.1868 1.1904
H5F H 0.4378 0.1396 1.0581
C10F C 0.3242(5) 0.2964(5) 0.9707(5)
H6F H 0.2779 0.2583 0.9501
C11F C 0.3005(5) 0.3852(4) 0.9404(5)
H7F H 0.2324 0.4188 0.8933
C12F C 0.4672(5) 0.3482(4) 1.0471(5)
H8F H 0.5381 0.3506 1.0892
Co1_2 Co -0.59447(6) 0.45311(6) -0.52335(6)
Co1C Co 0.09447(6) -0.04689(6) 0.02335(6)
Co1E Co 0.40553(6) 0.54689(6) 0.97665(6)
Co1F_2 Co 1.09447(6) 0.04689(6) 1.52335(6)
O3_2 O 0.5838(3) 0.4219(3) 0.6122(3)
O3F_2 O -0.0838(3) 0.0781(3) 0.3878(3)
N3C N 0.3904(4) 0.5805(3) 0.4885(4)
N3E N 0.1096(4) -0.0805(3) 0.5115(4)
O5 O 0.7159(4) 0.5494(4) 0.8976(4)
H13 H 0.7912 0.5317 0.9778
H14 H 0.7017 0.5164 0.8589
O6 O 0.0345(4) 0.4852(4) 0.3351(4)
H15 H -0.0165 0.4751 0.3134
H16 H 0.0136 0.5400 0.3093
O7 O 0.5000 0.6312(8) 0.7500
H17 H 0.4336 0.6065 0.7040
H17A H 0.5664 0.6065 0.7960
O8 O 0.5000 0.8333(12) 0.7500
H18 H 0.4668 0.7870 0.7337
H18A H 0.5332 0.7870 0.7663
loop_
_geom_bond_atom_site_label_1
_geom_bond_atom_site_label_2
_geom_bond_site_symmetry_1
_geom_bond_site_symmetry_2
Co1 O1 1_555 1_555
O1 C1 1_555 1_555
O2 C1 1_555 1_555
O3 C5 1_555 1_555
O4 C5 1_555 1_555
N1 Co1 1_555 1_555
N2 C9 1_555 1_555
N3 C11 1_555 1_555
C1 C2 1_555 1_555
C2 C3 1_555 1_555
C3 H1 1_555 1_555
C4 C3 1_555 1_555
C5 C4 1_555 1_555
C6 C4 1_555 1_555
H2 C6 1_555 1_555
C7 C6 1_555 1_555
C8 C2 1_555 1_555
H3 C8 1_555 1_555
C9 C7 1_555 1_555
H4 C9 1_555 1_555
H5 C9 1_555 1_555
C10 N2 1_555 1_555
H6 C10 1_555 1_555
C11 C10 1_555 1_555
H7 C11 1_555 1_555
C12 N2 1_555 1_555
H8 C12 1_555 1_555
C13 N1 1_555 1_555
H9 C13 1_555 1_555
C14 C13 1_555 1_555
H10 C14 1_555 1_555
C15 C14 1_555 1_555
C16 C15 1_555 1_555
H11 C16 1_555 1_555
C17 N1 1_555 1_555
H12 C17 1_555 1_555
O5 H13 1_555 1_555
H14 O5 1_555 1_555
O6 H15 1_555 1_555
H16 O6 1_555 1_555
O7 H17 1_555 1_555
O8 H18 1_555 1_555
N1F C13F 1_555 1_555
C13F H9F 1_555 1_555
C14F C13F 1_555 1_555
H10F C14F 1_555 1_555
C15F C15 1_555 1_555
C16F C15F 1_555 1_555
H11F C16F 1_555 1_555
C17F N1F 1_555 1_555
H12F C17F 1_555 1_555
Co1F N1F 1_555 1_555
O1F Co1F 1_555 1_555
O2F C1F 1_555 1_555
O3F C5F 1_555 1_555
O4F C5F 1_555 1_555
N2F C9F 1_555 1_555
N3F C11F 1_555 1_555
C1F O1F 1_555 1_555
C2F C1F 1_555 1_555
C3F C2F 1_555 1_555
H1F C3F 1_555 1_555
C4F C3F 1_555 1_555
C5F C4F 1_555 1_555
C6F C4F 1_555 1_555
H2F C6F 1_555 1_555
C7F C6F 1_555 1_555
C8F C2F 1_555 1_555
H3F C8F 1_555 1_555
C9F C7F 1_555 1_555
H4F C9F 1_555 1_555
H5F C9F 1_555 1_555
C10F N2F 1_555 1_555
H6F C10F 1_555 1_555
C11F C10F 1_555 1_555
H7F C11F 1_555 1_555
C12F N2F 1_555 1_555
H8F C12F 1_555 1_555
Co1_2 O3 1_555 1_555
Co1C N3 1_555 1_555
Co1E N3F 1_555 1_555
Co1F_2 O3F 1_555 1_555
O3_2 Co1 1_555 1_555
O3F_2 Co1F 1_555 1_555
N3C Co1 1_555 1_555
N3E Co1F 1_555 1_555
H17A O7 1_555 1_555
H18A O8 1_555 1_555
N3 C12 1_555 1_555
C7 C8 1_555 1_555
C16 C17 1_555 1_555
C14F C15F 1_555 1_555
C16F C17F 1_555 1_555
N3F C12F 1_555 1_555
C7F C8F 1_555 1_555

#END
