
#######################################################################
#
#                 Cambridge Crystallographic Data Centre
#                                CCDC 
#
#######################################################################
#
# If this CIF has been generated from an entry in the Cambridge 
# Structural Database, then it will include bibliographic, chemical, 
# crystal, experimental, refinement or atomic coordinate data resulting 
# from the CCDC's data processing and validation procedures.
#
#######################################################################

data_SUSGUJ
_symmetry_cell_setting           orthorhombic
_symmetry_space_group_name_H-M   'P b c a'
_symmetry_Int_Tables_number      61
_space_group_name_Hall           '-P 2ac 2ab'
loop_
_symmetry_equiv_pos_site_id
_symmetry_equiv_pos_as_xyz
1 x,y,z
2 1/2-x,-y,1/2+z
3 1/2+x,1/2-y,-z
4 -x,1/2+y,1/2-z
5 -x,-y,-z
6 1/2+x,y,1/2-z
7 1/2-x,1/2+y,z
8 x,1/2-y,1/2+z
_cell_length_a                   9.664(2)
_cell_length_b                   12.797(3)
_cell_length_c                   20.029(4)
_cell_angle_alpha                90
_cell_angle_beta                 90
_cell_angle_gamma                90
_cell_volume                     2476.99
loop_
_atom_site_label
_atom_site_type_symbol
_atom_site_fract_x
_atom_site_fract_y
_atom_site_fract_z
Ni1 Ni 0.5000 0.0000 0.5000
O1 O 0.3970(3) 0.0772(3) 0.57352(15)
N1 N 0.3806(4) 0.0772(3) 0.43274(17)
N2 N 0.1419(4) 0.3750(3) 0.5033(2)
C1 C 0.3728(6) 0.0474(4) 0.3617(2)
H1 H 0.3258 -0.0191 0.3567
H2 H 0.4650 0.0413 0.3429
C2 C 0.2924(7) 0.1333(5) 0.3266(3)
H3 H 0.2215 0.1039 0.2979
H4 H 0.3536 0.1763 0.2998
C3 C 0.2279(6) 0.1970(4) 0.3825(2)
H5 H 0.2440 0.2712 0.3761
H6 H 0.1292 0.1845 0.3856
C4 C 0.3022(5) 0.1572(3) 0.4436(2)
C5 C 0.2812(5) 0.2039(3) 0.5087(2)
C6 C 0.3253(5) 0.1581(4) 0.5676(2)
C7 C 0.2833(6) 0.2003(4) 0.6371(3)
C8 C 0.1915(10) 0.1230(7) 0.6771(4)
C9 C 0.0808(11) 0.0749(7) 0.6502(5)
C10 C 0.2031(5) 0.2989(4) 0.5081(2)
F1 F 0.2329(8) 0.2950(3) 0.63614(19)
F2 F 0.3920(4) 0.2041(4) 0.67679(18)
F3 F 0.2616(8) 0.0281(5) 0.6979(3)
F4 F 0.1461(6) 0.1790(4) 0.7321(2)
F5 F 0.1075(5) 0.0122(4) 0.5985(3)
F6 F 0.0118(8) 0.1687(7) 0.6248(4)
F7 F 0.0031(7) 0.0236(6) 0.6948(3)
Ni1B Ni 0.0000 0.5000 0.5000
Ni1B_2 Ni 1.0000 -0.5000 0.5000
O1D O 0.6030(3) -0.0772(3) 0.42648(15)
N1D N 0.6194(4) -0.0772(3) 0.56726(17)
N2D N 0.8581(4) -0.3750(3) 0.4967(2)
N2B N 0.6419(4) 0.1250(3) 0.4967(2)
N2F N 0.3581(4) -0.1250(3) 0.5033(2)
C1D C 0.6272(6) -0.0474(4) 0.6383(2)
H1D H 0.6742 0.0191 0.6433
H2D H 0.5350 -0.0413 0.6571
C2D C 0.7076(7) -0.1333(5) 0.6734(3)
H3D H 0.7785 -0.1039 0.7021
H4D H 0.6464 -0.1763 0.7002
C3D C 0.7721(6) -0.1970(4) 0.6175(2)
H5D H 0.7560 -0.2712 0.6239
H6D H 0.8708 -0.1845 0.6144
C4D C 0.6978(5) -0.1572(3) 0.5564(2)
C5D C 0.7188(5) -0.2039(3) 0.4913(2)
C6D C 0.6747(5) -0.1581(4) 0.4324(2)
C7D C 0.7167(6) -0.2003(4) 0.3629(3)
C8D C 0.8085(10) -0.1230(7) 0.3229(4)
C9D C 0.9192(11) -0.0749(7) 0.3498(5)
C10D C 0.7969(5) -0.2989(4) 0.4919(2)
F1D F 0.7671(8) -0.2950(3) 0.36386(19)
F2D F 0.6080(4) -0.2041(4) 0.32321(18)
F3D F 0.7384(8) -0.0281(5) 0.3021(3)
F4D F 0.8539(6) -0.1790(4) 0.2679(2)
F5D F 0.8925(5) -0.0122(4) 0.4015(3)
F6D F 0.9882(8) -0.1687(7) 0.3752(4)
F7D F 0.9969(7) -0.0236(6) 0.3052(3)
loop_
_geom_bond_atom_site_label_1
_geom_bond_atom_site_label_2
_geom_bond_site_symmetry_1
_geom_bond_site_symmetry_2
Ni1 O1 1_555 1_555
O1 C6 1_555 1_555
N1 Ni1 1_555 1_555
N2 C10 1_555 1_555
C1 N1 1_555 1_555
H1 C1 1_555 1_555
H2 C1 1_555 1_555
C2 C1 1_555 1_555
H3 C2 1_555 1_555
H4 C2 1_555 1_555
C3 C2 1_555 1_555
H5 C3 1_555 1_555
H6 C3 1_555 1_555
C4 N1 1_555 1_555
C5 C4 1_555 1_555
C6 C5 1_555 1_555
C7 C6 1_555 1_555
C8 C7 1_555 1_555
C9 C8 1_555 1_555
C10 C5 1_555 1_555
F1 C7 1_555 1_555
F2 C7 1_555 1_555
F3 C8 1_555 1_555
F4 C8 1_555 1_555
F5 C9 1_555 1_555
F6 C9 1_555 1_555
F7 C9 1_555 1_555
Ni1B N2 1_555 1_555
Ni1B_2 N2D 1_555 1_555
O1D Ni1 1_555 1_555
N1D Ni1 1_555 1_555
N2D C10D 1_555 1_555
N2B Ni1 1_555 1_555
N2F Ni1 1_555 1_555
C1D N1D 1_555 1_555
H1D C1D 1_555 1_555
H2D C1D 1_555 1_555
C2D C1D 1_555 1_555
H3D C2D 1_555 1_555
H4D C2D 1_555 1_555
C3D C2D 1_555 1_555
H5D C3D 1_555 1_555
H6D C3D 1_555 1_555
C4D N1D 1_555 1_555
C5D C4D 1_555 1_555
C6D O1D 1_555 1_555
C7D C6D 1_555 1_555
C8D C7D 1_555 1_555
C9D C8D 1_555 1_555
C10D C5D 1_555 1_555
F1D C7D 1_555 1_555
F2D C7D 1_555 1_555
F3D C8D 1_555 1_555
F4D C8D 1_555 1_555
F5D C9D 1_555 1_555
F6D C9D 1_555 1_555
F7D C9D 1_555 1_555
C3 C4 1_555 1_555
C3D C4D 1_555 1_555
C5D C6D 1_555 1_555

#END
