
#######################################################################
#
#                 Cambridge Crystallographic Data Centre
#                                CCDC 
#
#######################################################################
#
# If this CIF has been generated from an entry in the Cambridge 
# Structural Database, then it will include bibliographic, chemical, 
# crystal, experimental, refinement or atomic coordinate data resulting 
# from the CCDC's data processing and validation procedures.
#
#######################################################################

data_SUSKEY
_symmetry_cell_setting           triclinic
_symmetry_space_group_name_H-M   'P -1'
_symmetry_Int_Tables_number      2
_space_group_name_Hall           '-P 1'
loop_
_symmetry_equiv_pos_site_id
_symmetry_equiv_pos_as_xyz
1 x,y,z
2 -x,-y,-z
_cell_length_a                   11.153(2)
_cell_length_b                   15.300(3)
_cell_length_c                   18.942(4)
_cell_angle_alpha                97.296(2)
_cell_angle_beta                 92.280(2)
_cell_angle_gamma                101.374(2)
_cell_volume                     3136.15
loop_
_atom_site_label
_atom_site_type_symbol
_atom_site_fract_x
_atom_site_fract_y
_atom_site_fract_z
Co1 Co 0.42134(5) 0.24702(4) 0.50561(3)
Co2 Co 0.63871(5) -0.00214(3) 0.50367(3)
Co3 Co 0.55555(5) 0.17276(4) 0.62184(3)
Co4 Co 0.26655(5) 0.10868(4) 0.36855(3)
O1 O 0.3955(3) 0.0504(2) 0.3021(2)
H1 H 0.4521 0.0905 0.2945
H2 H 0.360(4) 0.025(3) 0.2615(15)
O2 O 0.7614(2) -0.04757(18) 0.43808(15)
O3 O 0.4993(4) 0.1235(2) 0.71831(17)
H3 H 0.4291(19) 0.093(3) 0.718(2)
H4 H 0.552(3) 0.095(3) 0.730(3)
O4 O 0.6337(2) -0.17950(18) 0.40195(14)
O5 O 1.2155(2) -0.0433(2) 0.41556(16)
O6 O 1.2635(2) -0.16458(19) 0.35361(15)
O7 O 0.8790(3) -0.3509(2) 0.23887(16)
O8 O 0.4973(4) -0.5728(3) -0.0673(2)
O9 O 0.4306(3) -0.7205(2) -0.0657(2)
O10 O 0.1596(3) 0.0525(2) 0.27726(15)
O11 O -0.0329(3) 0.0624(3) 0.3052(2)
O12 O 0.3328(3) 0.4235(2) 0.14112(15)
O13 O 0.4247(3) 0.69627(18) 0.33248(15)
O14 O 0.5164(3) 0.64277(18) 0.42071(15)
O15 O 0.3375(3) 0.22949(19) 0.33590(16)
O16 O 0.4693(3) 0.31671(19) 0.42140(15)
O17 O 0.6083(2) 0.22472(18) 0.52279(14)
O18 O 0.6644(3) 0.11803(19) 0.44804(16)
O19 O 1.1271(3) 0.1521(2) 0.42241(16)
O20 O 1.2455(2) 0.2675(2) 0.49353(15)
O21 O 0.9811(3) 0.4602(2) 0.5969(2)
O22 O 1.4034(4) 0.8534(3) 0.7405(3)
O23 O 1.3377(5) 0.7057(5) 0.7224(3)
H5 H 1.292(6) 0.657(3) 0.733(4)
O24 O 0.5155(2) 0.04554(18) 0.56875(14)
H6 H 0.523(5) 0.015(3) 0.6020(19)
O25 O 0.6092(2) -0.12093(18) 0.55099(15)
H7 H 0.543(2) -0.120(3) 0.569(2)
C1 C 0.7390(3) -0.1262(3) 0.4067(2)
C2 C 0.8404(4) -0.1629(3) 0.3718(2)
C3 C 0.9622(3) -0.1200(3) 0.3876(2)
H8 H 0.9821 -0.0660 0.4182
C4 C 1.0539(4) -0.1588(3) 0.3569(2)
C5 C 1.0224(4) -0.2374(3) 0.3093(2)
H9 H 1.0838 -0.2638 0.2893
C6 C 0.8998(4) -0.2774(3) 0.2910(2)
C7 C 0.8085(4) -0.2420(3) 0.3243(2)
H10 H 0.7268 -0.2708 0.3150
C8 C 1.1892(4) -0.1187(3) 0.3762(2)
C9 C 0.7547(4) -0.3877(3) 0.2139(2)
H11 H 0.7127 -0.3399 0.2054
H12 H 0.7125 -0.4207 0.2491
C10 C 0.7555(4) -0.4500(3) 0.1453(2)
C11 C 0.6891(4) -0.5373(3) 0.1360(2)
H13 H 0.6470 -0.5594 0.1735
C12 C 0.6842(4) -0.5924(3) 0.0718(2)
H14 H 0.6388 -0.6510 0.0667
C13 C 0.7464(4) -0.5611(3) 0.0149(2)
C14 C 0.8115(4) -0.4725(3) 0.0238(3)
H15 H 0.8524 -0.4499 -0.0139
C15 C 0.8157(4) -0.4180(3) 0.0882(3)
H16 H 0.8595 -0.3589 0.0933
C16 C 0.7463(4) -0.6209(3) -0.0535(2)
C17 C 0.8566(5) -0.6325(4) -0.0798(3)
H17 H 0.9290 -0.6000 -0.0555
C18 C 0.8635(5) -0.6906(5) -0.1407(3)
H18 H 0.9391 -0.6968 -0.1574
C19 C 0.7556(5) -0.7396(4) -0.1768(3)
H19 H 0.7585 -0.7798 -0.2176
C20 C 0.6450(5) -0.7287(4) -0.1522(3)
H20 H 0.5731 -0.7611 -0.1771
C21 C 0.6385(4) -0.6705(3) -0.0912(2)
C22 C 0.5140(4) -0.6582(4) -0.0730(2)
C23 C 0.0468(4) 0.0351(3) 0.2606(3)
C24 C -0.0005(4) -0.0200(3) 0.1913(2)
C25 C -0.0931(5) -0.0962(3) 0.1922(3)
H21 H -0.1309 -0.1063 0.2341
C26 C -0.1284(5) -0.1564(3) 0.1306(3)
H22 H -0.1903 -0.2069 0.1312
C27 C -0.0726(5) -0.1421(4) 0.0686(3)
H23 H -0.0952 -0.1836 0.0276
C28 C 0.0177(5) -0.0656(3) 0.0671(3)
H24 H 0.0556 -0.0569 0.0249
C29 C 0.0524(4) -0.0022(3) 0.1270(2)
C30 C 0.1325(4) 0.0866(3) 0.1205(2)
C31 C 0.0958(4) 0.1651(3) 0.1465(2)
H25 H 0.0229 0.1616 0.1692
C32 C 0.1652(4) 0.2492(3) 0.1395(2)
H26 H 0.1389 0.3010 0.1579
C33 C 0.2736(4) 0.2563(3) 0.1053(2)
C34 C 0.3099(5) 0.1774(3) 0.0774(3)
H27 H 0.3825 0.1808 0.0544
C35 C 0.2388(5) 0.0945(3) 0.0837(3)
H28 H 0.2624 0.0427 0.0629
C36 C 0.3574(5) 0.3444(3) 0.0992(2)
H29 H 0.4404 0.3393 0.1124
H30 H 0.3547 0.3536 0.0495
C37 C 0.3679(4) 0.4354(3) 0.2133(2)
C38 C 0.3911(4) 0.5239(3) 0.2482(2)
H31 H 0.3832 0.5712 0.2232
C39 C 0.4262(4) 0.5401(3) 0.3208(2)
C40 C 0.4325(4) 0.4681(3) 0.3578(2)
H32 H 0.4544 0.4786 0.4065
C41 C 0.4066(4) 0.3817(3) 0.3230(2)
C42 C 0.3759(4) 0.3649(3) 0.2502(2)
H33 H 0.3609 0.3063 0.2266
C43 C 0.4581(4) 0.6343(3) 0.3609(2)
C44 C 0.4036(4) 0.3023(3) 0.3631(2)
C45 C 0.6869(4) 0.1926(3) 0.4874(2)
C46 C 0.8161(4) 0.2466(3) 0.4964(2)
C47 C 0.8353(4) 0.3315(3) 0.5365(2)
H34 H 0.7689 0.3556 0.5517
C48 C 0.9523(4) 0.3794(3) 0.5534(2)
C49 C 1.0521(4) 0.3443(3) 0.5296(2)
H35 H 1.1314 0.3770 0.5413
C50 C 1.0330(4) 0.2605(3) 0.4883(2)
C51 C 0.9135(4) 0.2113(3) 0.4723(2)
H36 H 0.8998 0.1547 0.4453
C52 C 1.1429(4) 0.2237(3) 0.4662(2)
C53 C 0.8822(5) 0.4896(4) 0.6342(3)
H37 H 0.8309 0.4399 0.6526
H38 H 0.8318 0.5152 0.6028
C54 C 0.9451(4) 0.5595(3) 0.6939(3)
C55 C 0.9894(5) 0.6467(3) 0.6816(3)
H39 H 0.9682 0.6649 0.6386
C56 C 1.0654(4) 0.7071(3) 0.7328(3)
H40 H 1.0960 0.7654 0.7237
C57 C 1.0960(4) 0.6819(3) 0.7973(3)
C58 C 1.0447(4) 0.5968(3) 0.8109(3)
H41 H 1.0598 0.5802 0.8555
C59 C 0.9712(4) 0.5361(3) 0.7595(3)
H42 H 0.9389 0.4784 0.7693
C60 C 1.1850(5) 0.7449(3) 0.8512(3)
C61 C 1.2975(5) 0.7922(3) 0.8340(3)
C62 C 1.3735(6) 0.8521(4) 0.8863(5)
H43 H 1.4469 0.8853 0.8740
C63 C 1.3424(8) 0.8632(5) 0.9554(5)
H44 H 1.3951 0.9023 0.9901
C64 C 1.2326(7) 0.8158(5) 0.9732(4)
H45 H 1.2108 0.8226 1.0202
C65 C 1.1547(5) 0.7584(4) 0.9218(3)
H46 H 1.0798 0.7278 0.9345
C66 C 1.3476(5) 0.7849(4) 0.7621(4)
H47 H 0.5454 -0.5317 -0.0873
H48 H -0.1196 0.0416 0.2848
Co1_2 Co 1.42134(5) 0.24702(4) 0.50561(3)
Co1A Co 0.57866(5) -0.24702(4) 0.49439(3)
Co1A_2 Co 0.57866(5) 0.75298(4) 0.49439(3)
Co2A Co 0.36129(5) 0.00214(3) 0.49633(3)
Co2A_2 Co 1.36129(5) 0.00214(3) 0.49633(3)
Co3A Co 0.44445(5) -0.17276(4) 0.37816(3)
Co3A_2 Co 0.44445(5) 0.82724(4) 0.37816(3)
Co3A_3 Co 1.44445(5) -0.17276(4) 0.37816(3)
Co4_2 Co 1.26655(5) 0.10868(4) 0.36855(3)
Co4A Co 0.73345(5) -0.10868(4) 0.63145(3)
O4A O 0.3663(2) 0.17950(18) 0.59805(14)
O5A O 0.7845(2) 0.0433(2) 0.58444(16)
O6A O 0.7365(2) 0.16458(19) 0.64639(15)
O13A O 0.5753(3) 0.30373(18) 0.66752(15)
O14A O 0.4836(3) 0.35723(18) 0.57929(15)
O19_2 O 0.1271(3) 0.1521(2) 0.42241(16)
O20_2 O 0.2455(2) 0.2675(2) 0.49353(15)
O24A O 0.4845(2) -0.04554(18) 0.43125(14)
O25A O 0.3908(2) 0.12093(18) 0.44901(15)
O26 O 0.3731(8) -0.0508(5) 0.1695(4)
O27 O 1.5740(7) 0.9063(4) 1.0960(3)
O28 O 0.6684(5) 0.4919(4) 0.4686(3)
O29 O 1.2363(4) 0.5245(3) 0.6688(3)
O30 O 1.2964(3) 0.9771(3) 0.6937(2)
loop_
_geom_bond_atom_site_label_1
_geom_bond_atom_site_label_2
_geom_bond_site_symmetry_1
_geom_bond_site_symmetry_2
Co1 Co3 1_555 1_555
Co2 O2 1_555 1_555
Co3 O3 1_555 1_555
Co4 O1 1_555 1_555
O1 H1 1_555 1_555
H2 O1 1_555 1_555
O2 C1 1_555 1_555
O3 H3 1_555 1_555
H4 O3 1_555 1_555
O4 C1 1_555 1_555
O5 C8 1_555 1_555
O6 C8 1_555 1_555
O7 C6 1_555 1_555
O8 C22 1_555 1_555
O9 C22 1_555 1_555
O10 Co4 1_555 1_555
O11 C23 1_555 1_555
O12 C36 1_555 1_555
O13 C43 1_555 1_555
O14 C43 1_555 1_555
O15 Co4 1_555 1_555
O16 Co1 1_555 1_555
O17 Co1 1_555 1_555
O18 Co2 1_555 1_555
O19 C52 1_555 1_555
O20 C52 1_555 1_555
O21 C48 1_555 1_555
O22 C66 1_555 1_555
O23 H5 1_555 1_555
O24 Co2 1_555 1_555
H6 O24 1_555 1_555
O25 Co2 1_555 1_555
H7 O25 1_555 1_555
C1 C2 1_555 1_555
C2 C3 1_555 1_555
C3 H8 1_555 1_555
C4 C3 1_555 1_555
C5 C4 1_555 1_555
H9 C5 1_555 1_555
C6 C5 1_555 1_555
C7 C2 1_555 1_555
H10 C7 1_555 1_555
C8 C4 1_555 1_555
C9 O7 1_555 1_555
H11 C9 1_555 1_555
H12 C9 1_555 1_555
C10 C9 1_555 1_555
C11 C10 1_555 1_555
H13 C11 1_555 1_555
C12 C11 1_555 1_555
H14 C12 1_555 1_555
C13 C12 1_555 1_555
C14 C13 1_555 1_555
H15 C14 1_555 1_555
C15 C10 1_555 1_555
H16 C15 1_555 1_555
C16 C13 1_555 1_555
C17 C16 1_555 1_555
H17 C17 1_555 1_555
C18 C17 1_555 1_555
H18 C18 1_555 1_555
C19 C18 1_555 1_555
H19 C19 1_555 1_555
C20 C19 1_555 1_555
H20 C20 1_555 1_555
C21 C16 1_555 1_555
C22 C21 1_555 1_555
C23 O10 1_555 1_555
C24 C23 1_555 1_555
C25 C24 1_555 1_555
H21 C25 1_555 1_555
C26 C25 1_555 1_555
H22 C26 1_555 1_555
C27 C26 1_555 1_555
H23 C27 1_555 1_555
C28 C27 1_555 1_555
H24 C28 1_555 1_555
C29 C24 1_555 1_555
C30 C29 1_555 1_555
C31 C30 1_555 1_555
H25 C31 1_555 1_555
C32 C31 1_555 1_555
H26 C32 1_555 1_555
C33 C32 1_555 1_555
C34 C33 1_555 1_555
H27 C34 1_555 1_555
C35 C30 1_555 1_555
H28 C35 1_555 1_555
C36 C33 1_555 1_555
H29 C36 1_555 1_555
H30 C36 1_555 1_555
C37 O12 1_555 1_555
C38 C37 1_555 1_555
H31 C38 1_555 1_555
C39 C38 1_555 1_555
C40 C39 1_555 1_555
H32 C40 1_555 1_555
C41 C40 1_555 1_555
C42 C37 1_555 1_555
H33 C42 1_555 1_555
C43 C39 1_555 1_555
C44 O15 1_555 1_555
C45 O17 1_555 1_555
C46 C45 1_555 1_555
C47 C46 1_555 1_555
H34 C47 1_555 1_555
C48 C47 1_555 1_555
C49 C48 1_555 1_555
H35 C49 1_555 1_555
C50 C49 1_555 1_555
C51 C46 1_555 1_555
H36 C51 1_555 1_555
C52 C50 1_555 1_555
C53 O21 1_555 1_555
H37 C53 1_555 1_555
H38 C53 1_555 1_555
C54 C53 1_555 1_555
C55 C54 1_555 1_555
H39 C55 1_555 1_555
C56 C55 1_555 1_555
H40 C56 1_555 1_555
C57 C56 1_555 1_555
C58 C57 1_555 1_555
H41 C58 1_555 1_555
C59 C54 1_555 1_555
H42 C59 1_555 1_555
C60 C57 1_555 1_555
C61 C60 1_555 1_555
C62 C61 1_555 1_555
H43 C62 1_555 1_555
C63 C62 1_555 1_555
H44 C63 1_555 1_555
C64 C63 1_555 1_555
H45 C64 1_555 1_555
C65 C60 1_555 1_555
H46 C65 1_555 1_555
C66 O23 1_555 1_555
H47 O8 1_555 1_555
H48 O11 1_555 1_555
Co1_2 O20 1_555 1_555
Co1A O4 1_555 1_555
Co1A_2 O14 1_555 1_555
Co2A Co2 1_555 1_555
Co2A_2 O5 1_555 1_555
Co3A O4 1_555 1_555
Co3A_2 O13 1_555 1_555
Co3A_3 O6 1_555 1_555
Co4_2 O19 1_555 1_555
Co4A O25 1_555 1_555
O4A Co1 1_555 1_555
O5A Co2 1_555 1_555
O6A Co3 1_555 1_555
O13A Co3 1_555 1_555
O14A Co1 1_555 1_555
O19_2 Co4 1_555 1_555
O20_2 Co1 1_555 1_555
O24A Co2 1_555 1_555
O25A Co1 1_555 1_555
Co3 O17 1_555 1_555
Co3 O24 1_555 1_555
Co3 O4A 1_555 1_555
Co4 O25A 1_555 1_555
O16 C44 1_555 1_555
O18 C45 1_555 1_555
O24 Co2A 1_555 1_555
O25 Co1A 1_555 1_555
C6 C7 1_555 1_555
C14 C15 1_555 1_555
C20 C21 1_555 1_555
C28 C29 1_555 1_555
C34 C35 1_555 1_555
C41 C42 1_555 1_555
C41 C44 1_555 1_555
C50 C51 1_555 1_555
C58 C59 1_555 1_555
C61 C66 1_555 1_555
C64 C65 1_555 1_555
Co1A Co3A 1_555 1_555
Co1A_2 Co3A_2 1_555 1_555
Co2A O24A 1_555 1_555
Co2A O25A 1_555 1_555
Co3A O24A 1_555 1_555

#END
