
#######################################################################
#
#                 Cambridge Crystallographic Data Centre
#                                CCDC 
#
#######################################################################
#
# If this CIF has been generated from an entry in the Cambridge 
# Structural Database, then it will include bibliographic, chemical, 
# crystal, experimental, refinement or atomic coordinate data resulting 
# from the CCDC's data processing and validation procedures.
#
#######################################################################

data_SUSNUR
_symmetry_cell_setting           triclinic
_symmetry_space_group_name_H-M   'P -1'
_symmetry_Int_Tables_number      2
_space_group_name_Hall           '-P 1'
loop_
_symmetry_equiv_pos_site_id
_symmetry_equiv_pos_as_xyz
1 x,y,z
2 -x,-y,-z
_cell_length_a                   12.6315(10)
_cell_length_b                   13.3343(11)
_cell_length_c                   16.1671(13)
_cell_angle_alpha                73.647(7)
_cell_angle_beta                 69.400(8)
_cell_angle_gamma                87.385(7)
_cell_volume                     2441.5
loop_
_atom_site_label
_atom_site_type_symbol
_atom_site_fract_x
_atom_site_fract_y
_atom_site_fract_z
Co1 Co 0.14072(6) 0.68933(5) 0.78792(5)
N1 N 0.2216(4) 0.7491(4) 0.6401(4)
O1 O 0.0542(3) 0.6532(2) 0.9376(2)
O2 O -0.0149(3) 0.6562(2) 0.7806(2)
O3 O 0.2929(3) 0.7188(3) 0.8036(2)
O4 O 0.1007(3) 0.8487(2) 0.7902(2)
O5 O 0.1934(3) 0.5358(2) 0.7783(2)
N2 N 0.2190(3) 0.7317(3) 0.5848(3)
Co2 Co 0.0000 0.5000 1.0000
H1 H 0.007(5) 0.703(5) 0.936(4)
H2 H 0.105(6) 0.681(5) 0.949(5)
C1 C -0.0801(4) 0.5773(3) 0.8341(3)
C2 C 0.3035(4) 0.7405(3) 0.8713(3)
C3 C 0.0148(4) 0.8738(3) 0.8486(3)
C4 C 0.1954(3) 0.4628(4) 0.8469(3)
N3 N 0.2271(6) 0.7151(5) 0.5097(4)
O6 O -0.0580(3) 0.5046(2) 0.8938(2)
O7 O 0.1628(3) 0.4654(3) 0.9285(2)
C5 C -0.1928(4) 0.5651(3) 0.8255(3)
O8 O 0.2285(3) 0.7316(3) 0.9483(2)
C6 C 0.4199(4) 0.7824(3) 0.8583(3)
O9 O -0.0611(3) 0.8122(3) 0.9122(3)
C7 C -0.0012(4) 0.9884(3) 0.8410(3)
C8 C 0.2435(4) 0.3604(4) 0.8309(3)
C9 C -0.2781(4) 0.5009(4) 0.8993(3)
C10 C -0.2133(4) 0.6125(4) 0.7449(3)
C11 C 0.5071(4) 0.8048(4) 0.7730(3)
C12 C 0.4395(4) 0.8016(4) 0.9322(4)
C13 C 0.0473(4) 1.0656(4) 0.7591(4)
C14 C -0.0713(5) 1.0172(4) 0.9177(4)
C15 C 0.2620(4) 0.2858(4) 0.9040(4)
C16 C 0.2659(4) 0.3367(4) 0.7485(3)
H3 H -0.2654 0.4688 0.9537
C17 C -0.3816(4) 0.4841(4) 0.8932(3)
H4 H -0.1566 0.6557 0.6949
C18 C -0.3168(4) 0.5965(4) 0.7378(3)
H5 H 0.4951 0.7908 0.7237
C19 C 0.6109(4) 0.8473(4) 0.7606(4)
H6 H 0.3824 0.7858 0.9899
C20 C 0.5430(4) 0.8439(5) 0.9203(4)
H7 H 0.0957 1.0479 0.7075
C21 C 0.0240(5) 1.1703(4) 0.7535(4)
H8 H -0.1031 0.9659 0.9735
C22 C -0.0945(5) 1.1202(4) 0.9126(4)
H9 H 0.2480 0.3007 0.9596
C23 C 0.3009(4) 0.1903(4) 0.8937(4)
H10 H 0.2562 0.3867 0.6988
C24 C 0.3023(4) 0.2398(4) 0.7390(4)
H11 H -0.4381 0.4405 0.9430
C25 C -0.4014(4) 0.5326(4) 0.8120(3)
H12 H -0.3295 0.6286 0.6833
H13 H 0.6681 0.8628 0.7030
C26 C 0.6297(4) 0.8668(4) 0.8340(4)
H14 H 0.5553 0.8573 0.9698
H15 H 0.0561 1.2219 0.6980
C27 C -0.0468(5) 1.1972(4) 0.8303(3)
H16 H -0.1422 1.1379 0.9645
C28 C 0.3208(4) 0.1654(4) 0.8125(4)
H17 H 0.3141 0.1417 0.9425
H18 H 0.3145 0.2241 0.6840
C29 C -0.5177(4) 0.5152(4) 0.8085(4)
C30 C 0.7406(4) 0.9153(5) 0.8272(4)
C31 C -0.0769(6) 1.3091(4) 0.8288(4)
C32 C 0.3571(6) 0.0565(4) 0.8107(4)
N4 N -0.5119(3) 0.5121(3) 0.7167(3)
H19 H -0.5532 0.4497 0.8535
H20 H -0.5647 0.5711 0.8252
N5 N 0.8230(3) 0.9426(3) 0.7312(3)
H21 H 0.7256 0.9780 0.8477
H22 H 0.7730 0.8663 0.8674
N6 N -0.0595(4) 1.3741(3) 0.7337(3)
H23 H -0.1555 1.3095 0.8675
H24 H -0.0301 1.3385 0.8535
N7 N 0.3978(4) 0.0409(3) 0.7183(3)
H25 H 0.4170 0.0411 0.8362
H26 H 0.2935 0.0069 0.8502
C33 C -0.4586(4) 0.4342(4) 0.6838(4)
C34 C -0.5590(4) 0.5849(4) 0.6675(4)
C35 C 0.8182(5) 1.0350(4) 0.6724(4)
C36 C 0.8977(4) 0.8740(4) 0.7032(4)
C37 C 0.0262(5) 1.4461(4) 0.6885(4)
C38 C -0.1268(5) 1.3542(4) 0.6918(4)
C39 C 0.3365(5) -0.0195(4) 0.6963(4)
C40 C 0.4983(5) 0.0854(4) 0.6573(4)
H27 H -0.4261 0.3840 0.7189
C41 C -0.4521(5) 0.4286(4) 0.5991(4)
H28 H -0.5952 0.6383 0.6913
C42 C -0.5547(4) 0.5821(4) 0.5826(4)
H29 H 0.7670 1.0827 0.6932
C43 C 0.8881(5) 1.0595(4) 0.5824(5)
C44 C 0.9677(4) 0.8953(4) 0.6140(4)
H30 H 0.9017 0.8112 0.7452
H31 H 0.0704 1.4617 0.7192
C45 C 0.0496(4) 1.4973(4) 0.5976(4)
H32 H -0.1885 1.3061 0.7250
C46 C -0.1064(5) 1.4038(4) 0.6003(4)
H33 H 0.2673 -0.0508 0.7394
C47 C 0.3747(4) -0.0356(4) 0.6108(4)
C48 C 0.5397(5) 0.0706(5) 0.5720(4)
H34 H 0.5404 0.1270 0.6735
H35 H -0.4141 0.3751 0.5765
C49 C -0.5021(4) 0.5026(4) 0.5460(3)
H36 H -0.5875 0.6339 0.5490
H37 H 0.8849 1.1241 0.5423
C50 C 0.9639(4) 0.9884(4) 0.5501(4)
H38 H 1.0191 0.8467 0.5954
C51 C -0.0140(4) 1.4756(4) 0.5498(3)
H39 H 0.1095 1.5478 0.5672
H40 H -0.1543 1.3893 0.5721
H41 H 0.3305 -0.0769 0.5962
C52 C 0.4778(4) 0.0085(4) 0.5462(4)
H42 H 0.6097 0.1019 0.5305
O1A O -0.0542(3) 0.3468(2) 1.0624(2)
O6A O 0.0580(3) 0.4954(2) 1.1062(2)
O7A O -0.1628(3) 0.5346(3) 1.0715(2)
C49A C -0.4979(4) 0.4974(4) 0.4540(3)
C50A C 1.0361(4) 1.0116(4) 0.4499(4)
C51A C 0.0140(4) 1.5244(4) 0.4502(3)
C52A C 0.5222(4) -0.0085(4) 0.4538(4)
C41A C -0.5479(5) 0.5714(4) 0.4009(4)
C42A C -0.4453(4) 0.4179(4) 0.4174(4)
C43A C 1.1119(5) 0.9405(4) 0.4176(5)
C44A C 1.0323(4) 1.1047(4) 0.3860(4)
C46A C 0.1064(5) 1.5962(4) 0.3997(4)
C45A C -0.0496(4) 1.5027(4) 0.4024(4)
C47A C 0.6253(4) 0.0356(4) 0.3892(4)
C48A C 0.4603(5) -0.0706(5) 0.4280(4)
C33A C -0.5414(4) 0.5658(4) 0.3162(4)
H35A H -0.5859 0.6249 0.4235
C34A C -0.4410(4) 0.4151(4) 0.3325(4)
H36A H -0.4125 0.3661 0.4510
C35A C 1.1818(5) 0.9650(4) 0.3276(4)
H37A H 1.1151 0.8759 0.4577
H38A H 0.9809 1.1533 0.4046
C36A C 1.1023(4) 1.1260(4) 0.2968(4)
C38A C 0.1268(5) 1.6458(4) 0.3082(4)
H40A H 0.1543 1.6107 0.4279
C37A C -0.0262(5) 1.5539(4) 0.3115(4)
H39A H -0.1095 1.4522 0.4328
C39A C 0.6635(5) 0.0195(4) 0.3037(4)
H41A H 0.6695 0.0769 0.4038
H42A H 0.3903 -0.1019 0.4695
C40A C 0.5017(5) -0.0854(4) 0.3427(4)
N4A N -0.4881(3) 0.4879(3) 0.2833(3)
H27A H -0.5739 0.6160 0.2811
H28A H -0.4048 0.3617 0.3087
N5A N 1.1770(3) 1.0574(3) 0.2688(3)
H29A H 1.2330 0.9173 0.3068
H30A H 1.0983 1.1888 0.2548
N6A N 0.0595(4) 1.6259(3) 0.2663(3)
H32A H 0.1885 1.6939 0.2750
H31A H -0.0704 1.5383 0.2808
N7A N 0.6022(4) -0.0409(3) 0.2817(3)
H33A H 0.7327 0.0508 0.2606
H34A H 0.4596 -0.1270 0.3265
C29A C -0.4823(4) 0.4848(4) 0.1915(4)
C30A C 1.2594(4) 1.0847(5) 0.1728(4)
C31A C 0.0769(6) 1.6909(4) 0.1712(4)
C32A C 0.6429(6) -0.0565(4) 0.1893(4)
C25A C -0.5986(4) 0.4674(4) 0.1880(3)
H19A H -0.4468 0.5503 0.1465
H20A H -0.4353 0.4289 0.1748
C26A C 1.3703(4) 1.1332(4) 0.1660(4)
H21A H 1.2744 1.0220 0.1523
H22A H 1.2270 1.1337 0.1326
C27A C 0.0468(5) 1.8028(4) 0.1697(3)
H23A H 0.1555 1.6905 0.1325
H24A H 0.0301 1.6615 0.1465
C28A C 0.6792(4) -0.1654(4) 0.1875(4)
H25A H 0.5830 -0.0411 0.1638
H26A H 0.7065 -0.0069 0.1498
C17A C -0.6184(4) 0.5159(4) 0.1068(3)
C18A C -0.6832(4) 0.4035(4) 0.2622(3)
C19A C 1.3891(4) 1.1527(4) 0.2394(4)
C20A C 1.4570(4) 1.1561(5) 0.0797(4)
C21A C -0.0240(5) 1.8297(4) 0.2465(4)
C22A C 0.0945(5) 1.8798(4) 0.0874(4)
C24A C 0.6977(4) -0.2398(4) 0.2610(4)
C23A C 0.6991(4) -0.1903(4) 0.1063(4)
C9A C -0.7219(4) 0.4991(4) 0.1007(3)
H11A H -0.5619 0.5595 0.0570
C10A C -0.7867(4) 0.3875(4) 0.2551(3)
H12A H -0.6705 0.3714 0.3167
C11A C 1.4929(4) 1.1952(4) 0.2270(3)
H13A H 1.3319 1.1372 0.2970
C12A C 1.5605(4) 1.1984(4) 0.0678(4)
H14A H 1.4447 1.1427 0.0302
C13A C -0.0473(4) 1.9344(4) 0.2409(4)
H15A H -0.0561 1.7781 0.3020
C14A C 0.0713(5) 1.9828(4) 0.0823(4)
H16A H 0.1422 1.8621 0.0355
C16A C 0.7341(4) -0.3367(4) 0.2515(3)
H18A H 0.6855 -0.2241 0.3160
C15A C 0.7380(4) -0.2858(4) 0.0960(4)
H17A H 0.6859 -0.1417 0.0575
C5A C -0.8072(4) 0.4349(3) 0.1745(3)
H3A H -0.7346 0.5312 0.0463
H4A H -0.8434 0.3443 0.3051
C6A C 1.5801(4) 1.2176(3) 0.1417(3)
H5A H 1.5049 1.2092 0.2763
H6A H 1.6176 1.2142 0.0101
C7A C 0.0012(4) 2.0116(3) 0.1590(3)
H7A H -0.0957 1.9521 0.2925
H8A H 0.1031 2.0341 0.0265
C8A C 0.7565(4) -0.3604(4) 0.1691(3)
H10A H 0.7438 -0.3867 0.3012
H9A H 0.7520 -0.3007 0.0404
C1A C -0.9199(4) 0.4227(3) 0.1659(3)
C2A C 1.6965(4) 1.2595(3) 0.1287(3)
C3A C -0.0148(4) 2.1262(3) 0.1514(3)
C4A C 0.8046(3) -0.4628(4) 0.1531(3)
O2A O -0.9851(3) 0.3438(2) 0.2194(2)
O6A_2 O -0.9420(3) 0.4954(2) 0.1062(2)
O3A O 1.7071(3) 1.2812(3) 0.1964(2)
O8A O 1.7715(3) 1.2684(3) 0.0517(2)
O4A O -0.1007(3) 2.1513(2) 0.2098(2)
O9A O 0.0611(3) 2.1878(3) 0.0878(3)
O5A O 0.8066(3) -0.5358(2) 0.2217(2)
O7A_2 O 0.8372(3) -0.4654(3) 0.0715(2)
Co1A Co -1.14072(6) 0.31067(5) 0.21208(5)
Co2_2 Co -1.0000 0.5000 0.0000
Co1A_2 Co 1.85928(6) 1.31067(5) 0.21208(5)
Co1A_3 Co -0.14072(6) 2.31067(5) 0.21208(5)
Co1A_4 Co 0.85928(6) -0.68933(5) 0.21208(5)
Co2_3 Co 1.0000 -0.5000 0.0000
N1A N -1.2216(4) 0.2509(4) 0.3599(4)
O1A_2 O -1.0542(3) 0.3468(2) 0.0624(2)
O3A_2 O -1.2929(3) 0.2812(3) 0.1964(2)
O4A_2 O -1.1007(3) 0.1513(2) 0.2098(2)
O5A_2 O -1.1934(3) 0.4642(2) 0.2217(2)
N2A N -1.2190(3) 0.2683(3) 0.4152(3)
H1A H -1.007(5) 0.297(5) 0.064(4)
H2A H -1.105(6) 0.319(5) 0.051(5)
N3A N -1.2271(6) 0.2849(5) 0.4903(4)
N8 N 0.6171(4) 0.1900(4) 0.8098(3)
O10 O 0.5770(7) 0.1039(6) 0.8611(7)
O11 O 0.6423(5) 0.2068(5) 0.7392(6)
O12 O 0.6101(7) 0.2647(6) 0.8441(5)
N9 N 0.2544(13) 0.2592(17) 0.5195(19)
O13 O 0.1625(12) 0.232(2) 0.518(3)
O14 O 0.2644(15) 0.3520(14) 0.5172(14)
O15 O 0.3383(10) 0.2170(9) 0.4778(10)
N10? N 0.238(2) 0.1658(18) 0.506(2)
O16? O 0.1664(13) 0.2267(17) 0.490(3)
O17? O 0.2449(13) 0.0863(12) 0.4832(13)
loop_
_geom_bond_atom_site_label_1
_geom_bond_atom_site_label_2
_geom_bond_site_symmetry_1
_geom_bond_site_symmetry_2
Co1 N1 1_555 1_555
N1 N2 1_555 1_555
O1 Co1 1_555 1_555
O2 Co1 1_555 1_555
O3 Co1 1_555 1_555
O4 Co1 1_555 1_555
O5 Co1 1_555 1_555
N2 N3 1_555 1_555
Co2 O1 1_555 1_555
H1 O1 1_555 1_555
H2 O1 1_555 1_555
C1 O2 1_555 1_555
C2 O3 1_555 1_555
C3 O4 1_555 1_555
C4 O5 1_555 1_555
O6 Co2 1_555 1_555
O7 Co2 1_555 1_555
C5 C1 1_555 1_555
O8 C2 1_555 1_555
C6 C2 1_555 1_555
O9 C3 1_555 1_555
C7 C3 1_555 1_555
C8 C4 1_555 1_555
C9 C5 1_555 1_555
C10 C5 1_555 1_555
C11 C6 1_555 1_555
C12 C6 1_555 1_555
C13 C7 1_555 1_555
C14 C7 1_555 1_555
C15 C8 1_555 1_555
C16 C8 1_555 1_555
H3 C9 1_555 1_555
C17 C9 1_555 1_555
H4 C10 1_555 1_555
C18 C10 1_555 1_555
H5 C11 1_555 1_555
C19 C11 1_555 1_555
H6 C12 1_555 1_555
C20 C12 1_555 1_555
H7 C13 1_555 1_555
C21 C13 1_555 1_555
H8 C14 1_555 1_555
C22 C14 1_555 1_555
H9 C15 1_555 1_555
C23 C15 1_555 1_555
H10 C16 1_555 1_555
C24 C16 1_555 1_555
H11 C17 1_555 1_555
C25 C17 1_555 1_555
H12 C18 1_555 1_555
H13 C19 1_555 1_555
C26 C19 1_555 1_555
H14 C20 1_555 1_555
H15 C21 1_555 1_555
C27 C21 1_555 1_555
H16 C22 1_555 1_555
C28 C23 1_555 1_555
H17 C23 1_555 1_555
H18 C24 1_555 1_555
C29 C25 1_555 1_555
C30 C26 1_555 1_555
C31 C27 1_555 1_555
C32 C28 1_555 1_555
N4 C29 1_555 1_555
H19 C29 1_555 1_555
H20 C29 1_555 1_555
N5 C30 1_555 1_555
H21 C30 1_555 1_555
H22 C30 1_555 1_555
N6 C31 1_555 1_555
H23 C31 1_555 1_555
H24 C31 1_555 1_555
N7 C32 1_555 1_555
H25 C32 1_555 1_555
H26 C32 1_555 1_555
C33 N4 1_555 1_555
C34 N4 1_555 1_555
C35 N5 1_555 1_555
C36 N5 1_555 1_555
C37 N6 1_555 1_555
C38 N6 1_555 1_555
C39 N7 1_555 1_555
C40 N7 1_555 1_555
H27 C33 1_555 1_555
C41 C33 1_555 1_555
H28 C34 1_555 1_555
C42 C34 1_555 1_555
H29 C35 1_555 1_555
C43 C35 1_555 1_555
C44 C36 1_555 1_555
H30 C36 1_555 1_555
H31 C37 1_555 1_555
C45 C37 1_555 1_555
H32 C38 1_555 1_555
C46 C38 1_555 1_555
H33 C39 1_555 1_555
C47 C39 1_555 1_555
C48 C40 1_555 1_555
H34 C40 1_555 1_555
H35 C41 1_555 1_555
C49 C41 1_555 1_555
H36 C42 1_555 1_555
H37 C43 1_555 1_555
C50 C43 1_555 1_555
H38 C44 1_555 1_555
C51 C45 1_555 1_555
H39 C45 1_555 1_555
H40 C46 1_555 1_555
H41 C47 1_555 1_555
C52 C47 1_555 1_555
H42 C48 1_555 1_555
N8 O10 1_555 1_555
O11 N8 1_555 1_555
O12 N8 1_555 1_555
N9 O13 1_555 1_555
O14 N9 1_555 1_555
O15 N9 1_555 1_555
O1A Co2 1_555 1_555
O6A Co2 1_555 1_555
O7A Co2 1_555 1_555
C49A C49 1_555 1_555
C50A C50 1_555 1_555
C51A C51 1_555 1_555
C52A C52 1_555 1_555
C41A C49A 1_555 1_555
C42A C49A 1_555 1_555
C43A C50A 1_555 1_555
C44A C50A 1_555 1_555
C46A C51A 1_555 1_555
C45A C51A 1_555 1_555
C47A C52A 1_555 1_555
C48A C52A 1_555 1_555
C33A C41A 1_555 1_555
H35A C41A 1_555 1_555
C34A C42A 1_555 1_555
H36A C42A 1_555 1_555
C35A C43A 1_555 1_555
H37A C43A 1_555 1_555
H38A C44A 1_555 1_555
C36A C44A 1_555 1_555
C38A C46A 1_555 1_555
H40A C46A 1_555 1_555
C37A C45A 1_555 1_555
H39A C45A 1_555 1_555
C39A C47A 1_555 1_555
H41A C47A 1_555 1_555
H42A C48A 1_555 1_555
C40A C48A 1_555 1_555
N4A C33A 1_555 1_555
H27A C33A 1_555 1_555
H28A C34A 1_555 1_555
N5A C35A 1_555 1_555
H29A C35A 1_555 1_555
H30A C36A 1_555 1_555
N6A C38A 1_555 1_555
H32A C38A 1_555 1_555
H31A C37A 1_555 1_555
N7A C39A 1_555 1_555
H33A C39A 1_555 1_555
H34A C40A 1_555 1_555
C29A N4A 1_555 1_555
C30A N5A 1_555 1_555
C31A N6A 1_555 1_555
C32A N7A 1_555 1_555
C25A C29A 1_555 1_555
H19A C29A 1_555 1_555
H20A C29A 1_555 1_555
C26A C30A 1_555 1_555
H21A C30A 1_555 1_555
H22A C30A 1_555 1_555
C27A C31A 1_555 1_555
H23A C31A 1_555 1_555
H24A C31A 1_555 1_555
C28A C32A 1_555 1_555
H25A C32A 1_555 1_555
H26A C32A 1_555 1_555
C17A C25A 1_555 1_555
C18A C25A 1_555 1_555
C19A C26A 1_555 1_555
C20A C26A 1_555 1_555
C21A C27A 1_555 1_555
C22A C27A 1_555 1_555
C24A C28A 1_555 1_555
C23A C28A 1_555 1_555
C9A C17A 1_555 1_555
H11A C17A 1_555 1_555
C10A C18A 1_555 1_555
H12A C18A 1_555 1_555
C11A C19A 1_555 1_555
H13A C19A 1_555 1_555
C12A C20A 1_555 1_555
H14A C20A 1_555 1_555
C13A C21A 1_555 1_555
H15A C21A 1_555 1_555
C14A C22A 1_555 1_555
H16A C22A 1_555 1_555
C16A C24A 1_555 1_555
H18A C24A 1_555 1_555
C15A C23A 1_555 1_555
H17A C23A 1_555 1_555
C5A C9A 1_555 1_555
H3A C9A 1_555 1_555
H4A C10A 1_555 1_555
C6A C11A 1_555 1_555
H5A C11A 1_555 1_555
H6A C12A 1_555 1_555
C7A C13A 1_555 1_555
H7A C13A 1_555 1_555
H8A C14A 1_555 1_555
C8A C16A 1_555 1_555
H10A C16A 1_555 1_555
H9A C15A 1_555 1_555
C1A C5A 1_555 1_555
C2A C6A 1_555 1_555
C3A C7A 1_555 1_555
C4A C8A 1_555 1_555
O2A C1A 1_555 1_555
O6A_2 C1A 1_555 1_555
O3A C2A 1_555 1_555
O8A C2A 1_555 1_555
O4A C3A 1_555 1_555
O9A C3A 1_555 1_555
O5A C4A 1_555 1_555
O7A_2 C4A 1_555 1_555
Co1A O2A 1_555 1_555
Co2_2 O6A_2 1_555 1_555
Co1A_2 O3A 1_555 1_555
Co1A_3 O4A 1_555 1_555
Co1A_4 O5A 1_555 1_555
Co2_3 O7A_2 1_555 1_555
N1A Co1A 1_555 1_555
O1A_2 Co1A 1_555 1_555
O3A_2 Co1A 1_555 1_555
O4A_2 Co1A 1_555 1_555
O5A_2 Co1A 1_555 1_555
N2A N1A 1_555 1_555
H1A O1A_2 1_555 1_555
H2A O1A_2 1_555 1_555
N3A N2A 1_555 1_555
C1 O6 1_555 1_555
C4 O7 1_555 1_555
C18 C25 1_555 1_555
C20 C26 1_555 1_555
C22 C27 1_555 1_555
C24 C28 1_555 1_555
C42 C49 1_555 1_555
C44 C50 1_555 1_555
C46 C51 1_555 1_555
C48 C52 1_555 1_555
C34A N4A 1_555 1_555
C36A N5A 1_555 1_555
C37A N6A 1_555 1_555
C40A N7A 1_555 1_555
C10A C5A 1_555 1_555
C12A C6A 1_555 1_555
C14A C7A 1_555 1_555
C15A C8A 1_555 1_555
Co2_2 O1A_2 1_555 1_555

#END
