
#######################################################################
#
#                 Cambridge Crystallographic Data Centre
#                                CCDC 
#
#######################################################################
#
# If this CIF has been generated from an entry in the Cambridge 
# Structural Database, then it will include bibliographic, chemical, 
# crystal, experimental, refinement or atomic coordinate data resulting 
# from the CCDC's data processing and validation procedures.
#
#######################################################################

data_SUSPIH
_symmetry_cell_setting           monoclinic
_symmetry_space_group_name_H-M   'C 2/c'
_symmetry_Int_Tables_number      15
_space_group_name_Hall           '-C 2yn'
loop_
_symmetry_equiv_pos_site_id
_symmetry_equiv_pos_as_xyz
1 x,y,z
2 -x,y,1/2-z
3 1/2+x,1/2+y,z
4 1/2-x,1/2+y,1/2-z
5 -x,-y,-z
6 x,-y,1/2+z
7 1/2-x,1/2-y,-z
8 1/2+x,1/2-y,1/2+z
_cell_length_a                   30.785(8)
_cell_length_b                   10.639(2)
_cell_length_c                   7.2224(15)
_cell_angle_alpha                90
_cell_angle_beta                 95.451(4)
_cell_angle_gamma                90
_cell_volume                     2354.79
loop_
_atom_site_label
_atom_site_type_symbol
_atom_site_fract_x
_atom_site_fract_y
_atom_site_fract_z
Cd1 Cd 0.0000 0.06598(7) 0.7500
C1 C 0.0822(3) 0.2491(8) 0.9187(11)
H1 H 0.0951 0.1724 0.9521
C2 C 0.1067(2) 0.3587(8) 0.9584(10)
C3 C 0.0864(3) 0.4724(8) 0.9117(10)
H2 H 0.1016 0.5472 0.9346
C4 C 0.0436(3) 0.4754(7) 0.8312(10)
C5 C 0.0220(2) 0.3600(7) 0.7933(9)
C6 C 0.0208(3) 0.5906(8) 0.7891(12)
H3 H 0.0348 0.6668 0.8163
C7 C 0.1523(3) 0.3530(7) 1.0439(11)
C8 C 0.1646(3) 0.2690(8) 1.1884(11)
H4 H 0.1441 0.2146 1.2307
C9 C 0.2065(3) 0.2664(8) 1.2671(12)
H5 H 0.2142 0.2115 1.3650
C10 C 0.2384(3) 0.3453(8) 1.2029(11)
C11 C 0.2268(3) 0.4276(8) 1.0612(12)
H6 H 0.2475 0.4808 1.0176
C12 C 0.1842(3) 0.4307(8) 0.9840(12)
H7 H 0.1766 0.4871 0.8880
C13 C 0.3128(3) 0.4118(11) 1.2369(15)
H8 H 0.3154 0.3985 1.1070
H9 H 0.3398 0.3902 1.3074
H10 H 0.3061 0.4985 1.2577
N1 N 0.0418(2) 0.2478(6) 0.8368(9)
N2 N 0.0705(4) 0.0964(11) 0.4285(17)
O1 O 0.2789(2) 0.3353(7) 1.2940(9)
O2 O 0.0321(2) 0.0761(6) 0.4543(9)
O3 O 0.0911(4) 0.0487(12) 0.3085(19)
O4 O 0.0921(4) 0.1722(11) 0.5170(17)
C1A C -0.0822(3) 0.2491(8) 0.5813(11)
H1A H -0.0951 0.1724 0.5479
C2A C -0.1067(2) 0.3587(8) 0.5416(10)
C3A C -0.0864(3) 0.4724(8) 0.5883(10)
H2A H -0.1016 0.5472 0.5654
C4A C -0.0436(3) 0.4754(7) 0.6688(10)
C5A C -0.0220(2) 0.3600(7) 0.7067(9)
C6A C -0.0208(3) 0.5906(8) 0.7109(12)
H3A H -0.0348 0.6668 0.6837
C7A C -0.1523(3) 0.3530(7) 0.4561(11)
C8A C -0.1646(3) 0.2690(8) 0.3116(11)
H4A H -0.1441 0.2146 0.2693
C9A C -0.2065(3) 0.2664(8) 0.2329(12)
H5A H -0.2142 0.2115 0.1350
C10A C -0.2384(3) 0.3453(8) 0.2971(11)
C11A C -0.2268(3) 0.4276(8) 0.4388(12)
H6A H -0.2475 0.4808 0.4824
C12A C -0.1842(3) 0.4307(8) 0.5160(12)
H7A H -0.1766 0.4871 0.6120
C13A C -0.3128(3) 0.4118(11) 0.2631(15)
H8A H -0.3154 0.3985 0.3930
H9A H -0.3398 0.3902 0.1926
H10A H -0.3061 0.4985 0.2423
N1A N -0.0418(2) 0.2478(6) 0.6632(9)
O1A O -0.2789(2) 0.3353(7) 0.2060(9)
N2A N -0.0705(4) 0.0964(11) 1.0715(17)
O2A O -0.0321(2) 0.0761(6) 1.0457(9)
O3A O -0.0911(4) 0.0487(12) 1.1915(19)
O4A O -0.0921(4) 0.1722(11) 0.9830(17)
Cd1D Cd 0.0000 -0.06598(7) 0.2500
Cd1D_2 Cd 0.0000 -0.06598(7) 1.2500
O2D O -0.0321(2) -0.0761(6) 0.5457(9)
O2E O 0.0321(2) -0.0761(6) 0.9543(9)
loop_
_geom_bond_atom_site_label_1
_geom_bond_atom_site_label_2
_geom_bond_site_symmetry_1
_geom_bond_site_symmetry_2
Cd1 N1 1_555 1_555
C1 H1 1_555 1_555
C2 C1 1_555 1_555
C3 C2 1_555 1_555
H2 C3 1_555 1_555
C4 C3 1_555 1_555
C5 C4 1_555 1_555
C6 C4 1_555 1_555
H3 C6 1_555 1_555
C7 C2 1_555 1_555
C8 C7 1_555 1_555
H4 C8 1_555 1_555
C9 C8 1_555 1_555
H5 C9 1_555 1_555
C10 C9 1_555 1_555
C11 C10 1_555 1_555
H6 C11 1_555 1_555
C12 C7 1_555 1_555
H7 C12 1_555 1_555
C13 H8 1_555 1_555
H9 C13 1_555 1_555
H10 C13 1_555 1_555
N1 C1 1_555 1_555
N2 O2 1_555 1_555
O1 C10 1_555 1_555
O2 Cd1 1_555 1_555
O3 N2 1_555 1_555
O4 N2 1_555 1_555
C1A H1A 1_555 1_555
C2A C1A 1_555 1_555
C3A C2A 1_555 1_555
H2A C3A 1_555 1_555
C4A C3A 1_555 1_555
C5A C5 1_555 1_555
C6A C6 1_555 1_555
H3A C6A 1_555 1_555
C7A C2A 1_555 1_555
C8A C7A 1_555 1_555
H4A C8A 1_555 1_555
C9A C8A 1_555 1_555
H5A C9A 1_555 1_555
C10A C9A 1_555 1_555
C11A C10A 1_555 1_555
H6A C11A 1_555 1_555
C12A C7A 1_555 1_555
H7A C12A 1_555 1_555
C13A H8A 1_555 1_555
H9A C13A 1_555 1_555
H10A C13A 1_555 1_555
N1A Cd1 1_555 1_555
O1A C10A 1_555 1_555
N2A O2A 1_555 1_555
O2A Cd1 1_555 1_555
O3A N2A 1_555 1_555
O4A N2A 1_555 1_555
Cd1D O2 1_555 1_555
Cd1D_2 O2A 1_555 1_555
O2D Cd1 1_555 1_555
O2E Cd1 1_555 1_555
C5 N1 1_555 1_555
C11 C12 1_555 1_555
C13 O1 1_555 1_555
C1A N1A 1_555 1_555
C4A C5A 1_555 1_555
C4A C6A 1_555 1_555
C5A N1A 1_555 1_555
C11A C12A 1_555 1_555
C13A O1A 1_555 1_555
Cd1D O2D 1_555 1_555
Cd1D_2 O2E 1_555 1_555

#END
