
#######################################################################
#
#                 Cambridge Crystallographic Data Centre
#                                CCDC 
#
#######################################################################
#
# If this CIF has been generated from an entry in the Cambridge 
# Structural Database, then it will include bibliographic, chemical, 
# crystal, experimental, refinement or atomic coordinate data resulting 
# from the CCDC's data processing and validation procedures.
#
#######################################################################

data_SUSQII
_symmetry_cell_setting           monoclinic
_symmetry_space_group_name_H-M   'P 21/n'
_symmetry_Int_Tables_number      14
_space_group_name_Hall           '-P 2yn'
loop_
_symmetry_equiv_pos_site_id
_symmetry_equiv_pos_as_xyz
1 x,y,z
2 1/2-x,1/2+y,1/2-z
3 -x,-y,-z
4 1/2+x,1/2-y,1/2+z
_cell_length_a                   13.2222(15)
_cell_length_b                   11.0566(12)
_cell_length_c                   16.2224(18)
_cell_angle_alpha                90
_cell_angle_beta                 92.1770(10)
_cell_angle_gamma                90
_cell_volume                     2369.88
loop_
_atom_site_label
_atom_site_type_symbol
_atom_site_fract_x
_atom_site_fract_y
_atom_site_fract_z
C1 C 1.2294(4) -0.0502(4) 0.2011(3)
H1 H 1.1927 -0.1166 0.2186
C2 C 1.3301(4) -0.0378(5) 0.2282(3)
H2 H 1.3592 -0.0954 0.2636
C3 C 1.3859(4) 0.0573(6) 0.2036(3)
H3 H 1.4535 0.0643 0.2211
C4 C 1.3410(4) 0.1455(5) 0.1515(3)
C5 C 1.2384(3) 0.1259(4) 0.1262(3)
C6 C 1.3921(4) 0.2463(5) 0.1212(3)
H4 H 1.4592 0.2605 0.1375
C7 C 1.3432(4) 0.3228(5) 0.0680(3)
H5 H 1.3781 0.3885 0.0473
C8 C 1.2414(3) 0.3058(4) 0.0434(3)
H6 H 1.2099 0.3613 0.0078
C9 C 1.1873(3) 0.2087(4) 0.0707(3)
C10 C 0.9425(4) 0.1822(5) 0.2295(3)
H7 H 0.9706 0.2489 0.2040
C11 C 0.8845(4) 0.2001(6) 0.2989(4)
H8 H 0.8745 0.2777 0.3192
C12 C 0.8429(4) 0.1034(7) 0.3362(3)
H9 H 0.8048 0.1149 0.3826
C13 C 0.8569(4) -0.0141(6) 0.3053(3)
C14 C 0.8128(4) -0.1202(6) 0.3373(3)
H10 H 0.7737 -0.1157 0.3837
C15 C 0.8277(4) -0.2272(5) 0.3005(3)
H11 H 0.7982 -0.2961 0.3221
C16 C 0.8865(3) -0.2391(4) 0.2302(3)
H12 H 0.8942 -0.3144 0.2058
C17 C 0.9321(3) -0.1397(4) 0.1980(3)
C18 C 0.9172(3) -0.0248(4) 0.2354(3)
C19 C 0.7753(4) 0.3552(4) -0.0990(3)
H13 H 0.8140 0.4129 -0.1252
C20 C 0.6697(4) 0.3646(5) -0.1066(3)
H14 H 0.6397 0.4257 -0.1384
C21 C 0.6120(4) 0.2841(5) -0.0673(3)
H15 H 0.5419 0.2909 -0.0706
C22 C 0.6581(3) 0.1896(4) -0.0212(3)
C23 C 0.6043(3) 0.1008(4) 0.0203(3)
H16 H 0.5341 0.1037 0.0208
C24 C 0.6557(3) 0.0105(4) 0.0598(3)
H17 H 0.6197 -0.0480 0.0876
C25 C 0.7623(3) 0.0025(4) 0.0600(2)
H18 H 0.7951 -0.0611 0.0874
C26 C 0.8177(3) 0.0875(4) 0.0204(2)
C27 C 0.7655(3) 0.1851(4) -0.0192(2)
C28 C 0.9799(3) 0.4918(4) 0.0441(3)
N1 N 1.1847(3) 0.0293(3) 0.1515(2)
N2 N 0.9582(3) 0.0742(3) 0.1997(2)
N3 N 0.8227(3) 0.2694(3) -0.0571(2)
O1 O 1.0925(2) 0.1838(2) 0.04745(17)
O2 O 0.9893(2) -0.1422(2) 0.13133(16)
O3 O 0.91827(19) 0.0816(2) 0.01231(15)
O4 O 0.9580(2) 0.3888(3) 0.06681(17)
O5 O 0.9713(2) 0.5879(3) 0.08599(17)
Zn1 Zn 1.03675(4) 0.02597(4) 0.09553(3)
Zn2 Zn 0.98217(4) 0.25461(4) -0.03156(3)
C28B C 1.0201(3) 0.5082(4) -0.0441(3)
O4B O 1.0420(2) 0.6112(3) -0.06681(17)
O5B O 1.0287(2) 0.4121(3) -0.08599(17)
C1B C 0.7706(4) 0.0502(4) -0.2011(3)
H1B H 0.8073 0.1166 -0.2186
C2B C 0.6699(4) 0.0378(5) -0.2282(3)
H2B H 0.6408 0.0954 -0.2636
C3B C 0.6141(4) -0.0573(6) -0.2036(3)
H3B H 0.5465 -0.0643 -0.2211
C4B C 0.6590(4) -0.1455(5) -0.1515(3)
C5B C 0.7616(3) -0.1259(4) -0.1262(3)
C6B C 0.6079(4) -0.2463(5) -0.1212(3)
H4B H 0.5408 -0.2605 -0.1375
C7B C 0.6568(4) -0.3228(5) -0.0680(3)
H5B H 0.6219 -0.3885 -0.0473
C8B C 0.7586(3) -0.3058(4) -0.0434(3)
H6B H 0.7901 -0.3613 -0.0078
C9B C 0.8127(3) -0.2087(4) -0.0707(3)
C10B C 1.0575(4) -0.1822(5) -0.2295(3)
H7B H 1.0294 -0.2489 -0.2040
C11B C 1.1155(4) -0.2001(6) -0.2989(4)
H8B H 1.1255 -0.2777 -0.3192
C12B C 1.1571(4) -0.1034(7) -0.3362(3)
H9B H 1.1952 -0.1149 -0.3826
C13B C 1.1431(4) 0.0141(6) -0.3053(3)
C14B C 1.1872(4) 0.1202(6) -0.3373(3)
H10B H 1.2263 0.1157 -0.3837
C15B C 1.1723(4) 0.2272(5) -0.3005(3)
H11B H 1.2018 0.2961 -0.3221
C16B C 1.1135(3) 0.2391(4) -0.2302(3)
H12B H 1.1058 0.3144 -0.2058
C17B C 1.0679(3) 0.1397(4) -0.1980(3)
C18B C 1.0828(3) 0.0248(4) -0.2354(3)
C19B C 1.2247(4) -0.3552(4) 0.0990(3)
H13B H 1.1860 -0.4129 0.1252
C20B C 1.3303(4) -0.3646(5) 0.1066(3)
H14B H 1.3603 -0.4257 0.1384
C21B C 1.3880(4) -0.2841(5) 0.0673(3)
H15B H 1.4581 -0.2909 0.0706
C22B C 1.3419(3) -0.1896(4) 0.0212(3)
C23B C 1.3957(3) -0.1008(4) -0.0203(3)
H16B H 1.4659 -0.1037 -0.0208
C24B C 1.3443(3) -0.0105(4) -0.0598(3)
H17B H 1.3803 0.0480 -0.0876
C25B C 1.2377(3) -0.0025(4) -0.0600(2)
H18B H 1.2049 0.0611 -0.0874
C26B C 1.1823(3) -0.0875(4) -0.0204(2)
C27B C 1.2345(3) -0.1851(4) 0.0192(2)
N1B N 0.8153(3) -0.0293(3) -0.1515(2)
N2B N 1.0418(3) -0.0742(3) -0.1997(2)
N3B N 1.1773(3) -0.2694(3) 0.0571(2)
O1B O 0.9075(2) -0.1838(2) -0.04745(17)
O2B O 1.0107(2) 0.1422(2) -0.13133(16)
O3B O 1.08173(19) -0.0816(2) -0.01231(15)
Zn1B Zn 0.96325(4) -0.02597(4) -0.09553(3)
Zn2B Zn 1.01783(4) -0.25461(4) 0.03156(3)
O4B_2 O 1.0420(2) -0.3888(3) -0.06681(17)
O5_2 O 0.9713(2) -0.4121(3) 0.08599(17)
Zn2B_2 Zn 1.01783(4) 0.74539(4) 0.03156(3)
loop_
_geom_bond_atom_site_label_1
_geom_bond_atom_site_label_2
_geom_bond_site_symmetry_1
_geom_bond_site_symmetry_2
C1 H1 1_555 1_555
C2 C1 1_555 1_555
H2 C2 1_555 1_555
C3 C2 1_555 1_555
H3 C3 1_555 1_555
C4 C3 1_555 1_555
C5 C4 1_555 1_555
C6 C4 1_555 1_555
H4 C6 1_555 1_555
C7 C6 1_555 1_555
H5 C7 1_555 1_555
C8 C7 1_555 1_555
H6 C8 1_555 1_555
C9 C5 1_555 1_555
C10 H7 1_555 1_555
C11 C10 1_555 1_555
H8 C11 1_555 1_555
C12 C11 1_555 1_555
H9 C12 1_555 1_555
C13 C12 1_555 1_555
C14 C13 1_555 1_555
H10 C14 1_555 1_555
C15 C14 1_555 1_555
H11 C15 1_555 1_555
C16 C15 1_555 1_555
H12 C16 1_555 1_555
C17 C16 1_555 1_555
C18 C13 1_555 1_555
C19 H13 1_555 1_555
C20 C19 1_555 1_555
H14 C20 1_555 1_555
C21 C20 1_555 1_555
H15 C21 1_555 1_555
C22 C21 1_555 1_555
C23 C22 1_555 1_555
H16 C23 1_555 1_555
C24 C23 1_555 1_555
H17 C24 1_555 1_555
C25 C24 1_555 1_555
H18 C25 1_555 1_555
C26 C25 1_555 1_555
C27 C22 1_555 1_555
C28 O4 1_555 1_555
N1 C1 1_555 1_555
N2 C10 1_555 1_555
N3 C19 1_555 1_555
O1 C9 1_555 1_555
O2 C17 1_555 1_555
O3 C26 1_555 1_555
O4 Zn2 1_555 1_555
O5 C28 1_555 1_555
Zn1 N1 1_555 1_555
Zn2 N3 1_555 1_555
C28B C28 1_555 1_555
O4B C28B 1_555 1_555
O5B Zn2 1_555 1_555
C1B H1B 1_555 1_555
C2B C1B 1_555 1_555
H2B C2B 1_555 1_555
C3B C2B 1_555 1_555
H3B C3B 1_555 1_555
C4B C3B 1_555 1_555
C5B C4B 1_555 1_555
C6B C4B 1_555 1_555
H4B C6B 1_555 1_555
C7B C6B 1_555 1_555
H5B C7B 1_555 1_555
C8B C7B 1_555 1_555
H6B C8B 1_555 1_555
C9B C5B 1_555 1_555
C10B H7B 1_555 1_555
C11B C10B 1_555 1_555
H8B C11B 1_555 1_555
C12B C11B 1_555 1_555
H9B C12B 1_555 1_555
C13B C12B 1_555 1_555
C14B C13B 1_555 1_555
H10B C14B 1_555 1_555
C15B C14B 1_555 1_555
H11B C15B 1_555 1_555
C16B C15B 1_555 1_555
H12B C16B 1_555 1_555
C17B C16B 1_555 1_555
C18B C13B 1_555 1_555
C19B H13B 1_555 1_555
C20B C19B 1_555 1_555
H14B C20B 1_555 1_555
C21B C20B 1_555 1_555
H15B C21B 1_555 1_555
C22B C21B 1_555 1_555
C23B C22B 1_555 1_555
H16B C23B 1_555 1_555
C24B C23B 1_555 1_555
H17B C24B 1_555 1_555
C25B C24B 1_555 1_555
H18B C25B 1_555 1_555
C26B C25B 1_555 1_555
C27B C22B 1_555 1_555
N1B C1B 1_555 1_555
N2B C10B 1_555 1_555
N3B C19B 1_555 1_555
O1B C9B 1_555 1_555
O2B Zn2 1_555 1_555
O3B Zn1 1_555 1_555
Zn1B O3 1_555 1_555
Zn2B O2 1_555 1_555
O4B_2 Zn2B 1_555 1_555
O5_2 Zn2B 1_555 1_555
Zn2B_2 O5 1_555 1_555
C5 N1 1_555 1_555
C8 C9 1_555 1_555
C17 C18 1_555 1_555
C18 N2 1_555 1_555
C26 C27 1_555 1_555
C27 N3 1_555 1_555
N2 Zn1 1_555 1_555
O1 Zn1 1_555 1_555
O1 Zn2 1_555 1_555
O2 Zn1 1_555 1_555
O3 Zn1 1_555 1_555
O3 Zn2 1_555 1_555
C28B O5B 1_555 1_555
O4B Zn2B_2 1_555 1_555
C5B N1B 1_555 1_555
C8B C9B 1_555 1_555
C17B C18B 1_555 1_555
C17B O2B 1_555 1_555
C18B N2B 1_555 1_555
C26B C27B 1_555 1_555
C26B O3B 1_555 1_555
C27B N3B 1_555 1_555
N1B Zn1B 1_555 1_555
N2B Zn1B 1_555 1_555
N3B Zn2B 1_555 1_555
O1B Zn1B 1_555 1_555
O1B Zn2B 1_555 1_555
O2B Zn1B 1_555 1_555
O3B Zn1B 1_555 1_555
O3B Zn2B 1_555 1_555

#END
