
#######################################################################
#
#                 Cambridge Crystallographic Data Centre
#                                CCDC 
#
#######################################################################
#
# If this CIF has been generated from an entry in the Cambridge 
# Structural Database, then it will include bibliographic, chemical, 
# crystal, experimental, refinement or atomic coordinate data resulting 
# from the CCDC's data processing and validation procedures.
#
#######################################################################

data_SUSTEG
_symmetry_cell_setting           monoclinic
_symmetry_space_group_name_H-M   'P 21/c'
_symmetry_Int_Tables_number      14
_space_group_name_Hall           '-P 2ybc'
loop_
_symmetry_equiv_pos_site_id
_symmetry_equiv_pos_as_xyz
1 x,y,z
2 -x,1/2+y,1/2-z
3 -x,-y,-z
4 x,1/2-y,1/2+z
_cell_length_a                   20.245(3)
_cell_length_b                   7.2905(9)
_cell_length_c                   7.5458(10)
_cell_angle_alpha                90
_cell_angle_beta                 94.1920(10)
_cell_angle_gamma                90
_cell_volume                     1110.75
loop_
_atom_site_label
_atom_site_type_symbol
_atom_site_fract_x
_atom_site_fract_y
_atom_site_fract_z
K1 K 0.44487(2) 0.62574(6) 0.34847(6)
S1 S 0.40752(2) 0.41425(7) -0.14194(6)
O1 O 0.25165(9) 0.5969(2) 0.2266(2)
H1 H 0.2648 0.5632 0.1317
O2 O 0.39302(7) 0.5272(2) 0.00973(17)
O3 O 0.45635(7) 0.2721(2) -0.10017(19)
O4 O 0.42352(7) 0.52567(19) -0.29350(17)
N1 N 0.24316(9) 0.4649(3) -0.0907(2)
C1 C 0.18744(13) 0.5534(3) 0.2320(3)
C2 C 0.15555(15) 0.5932(4) 0.3851(4)
H2 H 0.1791 0.6475 0.4818
C3 C 0.08978(17) 0.5527(4) 0.3938(4)
H3 H 0.0691 0.5808 0.4965
C4 C 0.05363(16) 0.4710(5) 0.2533(4)
H4 H 0.0091 0.4438 0.2612
C5 C 0.08419(13) 0.4301(4) 0.1014(4)
H5 H 0.0599 0.3745 0.0067
C6 C 0.15108(11) 0.4706(3) 0.0865(3)
C7 C 0.18237(11) 0.4277(3) -0.0756(3)
H6 H 0.1577 0.3724 -0.1697
C8 C 0.27423(11) 0.4168(3) -0.2526(3)
H7 H 0.2880 0.5278 -0.3105
H8 H 0.2424 0.3541 -0.3336
C9 C 0.33390(10) 0.2940(3) -0.2114(2)
H9 H 0.3417 0.2231 -0.3166
H10 H 0.3238 0.2084 -0.1187
K1B K 0.55513(2) 0.37426(6) 0.65153(6)
K1C K 0.44487(2) 0.87426(6) -0.15153(6)
K1A K 0.55513(2) 0.12574(6) 0.15153(6)
K1B_2 K 0.55513(2) 0.37426(6) -0.34847(6)
K1C_2 K 0.44487(2) -0.12574(6) -0.15153(6)
K1_2 K 0.44487(2) 0.62574(6) -0.65153(6)
O2C O 0.39302(7) 0.9728(2) 0.50973(17)
O3A O 0.54365(7) 0.7721(2) 0.60017(19)
O3B O 0.54365(7) 0.7279(2) 0.10017(19)
O3C O 0.45635(7) 0.2279(2) 0.39983(19)
O4_2 O 0.42352(7) 0.52567(19) 0.70650(17)
O4B O 0.57648(7) 0.47433(19) 0.29350(17)
O4C O 0.42352(7) 0.97433(19) 0.20650(17)
loop_
_geom_bond_atom_site_label_1
_geom_bond_atom_site_label_2
_geom_bond_site_symmetry_1
_geom_bond_site_symmetry_2
K1 O2 1_555 1_555
S1 O2 1_555 1_555
O1 H1 1_555 1_555
O2 K1C 1_555 1_555
O3 S1 1_555 1_555
O4 S1 1_555 1_555
N1 C7 1_555 1_555
C1 O1 1_555 1_555
C2 C1 1_555 1_555
H2 C2 1_555 1_555
C3 C2 1_555 1_555
H3 C3 1_555 1_555
C4 C3 1_555 1_555
H4 C4 1_555 1_555
C5 C4 1_555 1_555
H5 C5 1_555 1_555
C6 C1 1_555 1_555
C7 C6 1_555 1_555
H6 C7 1_555 1_555
C8 N1 1_555 1_555
H7 C8 1_555 1_555
H8 C8 1_555 1_555
C9 S1 1_555 1_555
H9 C9 1_555 1_555
H10 C9 1_555 1_555
K1B O3A 1_555 1_555
K1C O4 1_555 1_555
K1A O3 1_555 1_555
K1B_2 O3 1_555 1_555
K1C_2 O3 1_555 1_555
K1_2 O4 1_555 1_555
O2C K1 1_555 1_555
O3A K1 1_555 1_555
O3B K1 1_555 1_555
O3C K1 1_555 1_555
O4_2 K1 1_555 1_555
O4B K1 1_555 1_555
O4C K1 1_555 1_555
O4 K1B_2 1_555 1_555
C5 C6 1_555 1_555
C8 C9 1_555 1_555
K1B O3C 1_555 1_555
K1B O4_2 1_555 1_555
K1B O4B 1_555 1_555
K1C O3B 1_555 1_555
K1C O4C 1_555 1_555
K1A O3C 1_555 1_555
K1A O4B 1_555 1_555

#END
