
#######################################################################
#
#                 Cambridge Crystallographic Data Centre
#                                CCDC 
#
#######################################################################
#
# If this CIF has been generated from an entry in the Cambridge 
# Structural Database, then it will include bibliographic, chemical, 
# crystal, experimental, refinement or atomic coordinate data resulting 
# from the CCDC's data processing and validation procedures.
#
#######################################################################

data_SUSTEF
_symmetry_cell_setting           monoclinic
_symmetry_space_group_name_H-M   'P 21/c'
_symmetry_Int_Tables_number      14
_space_group_name_Hall           '-P 2ybc'
loop_
_symmetry_equiv_pos_site_id
_symmetry_equiv_pos_as_xyz
1 x,y,z
2 -x,1/2+y,1/2-z
3 -x,-y,-z
4 x,1/2-y,1/2+z
_cell_length_a                   8.673(1)
_cell_length_b                   17.572(2)
_cell_length_c                   8.535(1)
_cell_angle_alpha                90
_cell_angle_beta                 97.34(2)
_cell_angle_gamma                90
_cell_volume                     1290.09
loop_
_atom_site_label
_atom_site_type_symbol
_atom_site_fract_x
_atom_site_fract_y
_atom_site_fract_z
Cu1 Cu 1.0000 0.0000 0.0000
Cl1 Cl 1.2889(1) 0.0615(1) 0.1194(1)
N1 N 0.7344(4) 0.0672(2) 0.1324(4)
N2 N 0.8892(4) 0.0666(2) 0.1445(2)
C1 C 0.9358(4) 0.1101(2) 0.2694(4)
C2 C 0.8104(4) 0.1381(2) 0.3374(4)
C3 C 0.6826(5) 0.1092(3) 0.2459(5)
N3 N 1.0677 0.1439 -0.1574
N4 N 0.9802(4) 0.0810(2) -0.1671(3)
C4 C 0.8831(4) 0.0881(2) -0.2997(4)
C5 C 0.9014(4) 0.1579(2) -0.3727(4)
C6 C 1.0176(5) 0.1928(2) -0.2758(5)
C7 C 0.8119(5) 0.1890(2) 0.4792(5)
H1 H 0.668 0.041 0.053
H2 H 1.041 0.120 0.308
H3 H 0.577 0.117 0.261
H4 H 1.140 0.157 -0.070
H5 H 0.811 0.050 -0.341
H6 H 1.051 0.243 -0.292
H7 H 0.856 0.236 0.456
H8 H 0.707 0.196 0.498
Cl1B Cl 0.7111(1) -0.0615(1) -0.1194(1)
C5_2 C 0.9014(4) 0.1579(2) 0.6273(4)
C4_2 C 0.8831(4) 0.0881(2) 0.7003(4)
N4_2 N 0.9802(4) 0.0810(2) 0.8329(3)
Cu1_2 Cu 1.0000 0.0000 1.0000
N4B N 1.0198(4) -0.0810(2) 0.1671(3)
N2B N 1.1108(4) -0.0666(2) -0.1445(2)
C7_2 C 0.8119(5) 0.1890(2) -0.5208(5)
C2_2 C 0.8104(4) 0.1381(2) -0.6626(4)
C1_2 C 0.9358(4) 0.1101(2) -0.7306(4)
N2_2 N 0.8892(4) 0.0666(2) -0.8555(2)
Cu1_3 Cu 1.0000 0.0000 -1.0000
N1_2 N 0.7344(4) 0.0672(2) -0.8676(4)
C3_2 C 0.6826(5) 0.1092(3) -0.7541(5)
H3_2 H 0.577 0.117 -0.739
H1_2 H 0.668 0.041 -0.947
H2_2 H 1.041 0.120 -0.692
H7_2 H 0.856 0.236 -0.544
H8_2 H 0.707 0.196 -0.502
N3_2 N 1.0677 0.1439 0.8426
C6_2 C 1.0176(5) 0.1928(2) 0.7242(5)
H6_2 H 1.051 0.243 0.708
H4_2 H 1.140 0.157 0.930
H5_2 H 0.811 0.050 0.659
O1 O 0.2656(4) 0.2307(2) 0.4643(4)
N5 N 0.4062(4) 0.1565(2) 0.6459(4)
C8 C 0.3554(6) 0.2220(3) 0.5849(6)
C9 C 0.5042(6) 0.1521(3) 0.7967(6)
C10 C 0.3501(8) 0.0867(3) 0.5749(7)
H9 H 0.392 0.266 0.641
H10 H 0.582 0.112 0.799
H11 H 0.557 0.201 0.818
H12 H 0.441 0.145 0.881
H13 H 0.332 0.093 0.454
H14 H 0.422 0.045 0.605
H15 H 0.253 0.072 0.614
loop_
_geom_bond_atom_site_label_1
_geom_bond_atom_site_label_2
_geom_bond_site_symmetry_1
_geom_bond_site_symmetry_2
Cu1 Cl1 1_555 1_555
N1 N2 1_555 1_555
N2 Cu1 1_555 1_555
C1 N2 1_555 1_555
C2 C1 1_555 1_555
C3 N1 1_555 1_555
N3 N4 1_555 1_555
N4 Cu1 1_555 1_555
C4 N4 1_555 1_555
C5 C4 1_555 1_555
C6 N3 1_555 1_555
C7 C2 1_555 1_555
H1 N1 1_555 1_555
H2 C1 1_555 1_555
H3 C3 1_555 1_555
H4 N3 1_555 1_555
H5 C4 1_555 1_555
H6 C6 1_555 1_555
H7 C7 1_555 1_555
H8 C7 1_555 1_555
O1 C8 1_555 1_555
N5 C8 1_555 1_555
C8 H9 1_555 1_555
C9 N5 1_555 1_555
C10 N5 1_555 1_555
H10 C9 1_555 1_555
H11 C9 1_555 1_555
H12 C9 1_555 1_555
H13 C10 1_555 1_555
H14 C10 1_555 1_555
H15 C10 1_555 1_555
Cl1B Cu1 1_555 1_555
C5_2 C7 1_555 1_555
C4_2 C5_2 1_555 1_555
N4_2 C4_2 1_555 1_555
Cu1_2 N4_2 1_555 1_555
N4B Cu1 1_555 1_555
N2B Cu1 1_555 1_555
C7_2 C5 1_555 1_555
C2_2 C7_2 1_555 1_555
C1_2 C2_2 1_555 1_555
N2_2 C1_2 1_555 1_555
Cu1_3 N2_2 1_555 1_555
N1_2 N2_2 1_555 1_555
C3_2 C2_2 1_555 1_555
H3_2 C3_2 1_555 1_555
H1_2 N1_2 1_555 1_555
H2_2 C1_2 1_555 1_555
H7_2 C7_2 1_555 1_555
H8_2 C7_2 1_555 1_555
N3_2 N4_2 1_555 1_555
C6_2 C5_2 1_555 1_555
H6_2 C6_2 1_555 1_555
H4_2 N3_2 1_555 1_555
H5_2 C4_2 1_555 1_555
C2 C3 1_555 1_555
C5 C6 1_555 1_555
N1_2 C3_2 1_555 1_555
N3_2 C6_2 1_555 1_555

#END
