
#######################################################################
#
#                 Cambridge Crystallographic Data Centre
#                                CCDC 
#
#######################################################################
#
# If this CIF has been generated from an entry in the Cambridge 
# Structural Database, then it will include bibliographic, chemical, 
# crystal, experimental, refinement or atomic coordinate data resulting 
# from the CCDC's data processing and validation procedures.
#
#######################################################################

data_SUTBUF
_symmetry_cell_setting           triclinic
_symmetry_space_group_name_H-M   'P -1'
_symmetry_Int_Tables_number      2
_space_group_name_Hall           '-P 1'
loop_
_symmetry_equiv_pos_site_id
_symmetry_equiv_pos_as_xyz
1 x,y,z
2 -x,-y,-z
_cell_length_a                   8.578(2)
_cell_length_b                   11.836(3)
_cell_length_c                   15.626(4)
_cell_angle_alpha                72.437(4)
_cell_angle_beta                 78.722(5)
_cell_angle_gamma                85.437(4)
_cell_volume                     1482.98
loop_
_atom_site_label
_atom_site_type_symbol
_atom_site_fract_x
_atom_site_fract_y
_atom_site_fract_z
Sr1 Sr 0.75784(6) 0.59240(4) -0.01243(4)
Sr2 Sr 0.48891(6) 0.83117(4) 0.08721(3)
C1 C 0.1211(6) 0.3919(5) 0.6996(4)
H1 H 0.1436 0.4058 0.7514
C2 C 0.2095(7) 0.4485(5) 0.6150(4)
H2 H 0.2861 0.5032 0.6087
C3 C 0.1789(6) 0.4200(4) 0.5403(4)
C4 C 0.2536(6) 0.4628(4) 0.4439(4)
C5 C 0.3745(6) 0.5416(5) 0.4007(4)
H3 H 0.4203 0.5799 0.4333
C6 C 0.4265(7) 0.5626(5) 0.3074(4)
H4 H 0.5066 0.6167 0.2774
C7 C 0.3619(6) 0.5049(4) 0.2580(4)
C8 C 0.2383(7) 0.4257(4) 0.3017(4)
H5 H 0.1922 0.3877 0.2690
C9 C 0.1865(6) 0.4054(4) 0.3936(4)
C10 C 0.0600(7) 0.3275(5) 0.4581(4)
C11 C 0.0603(7) 0.3403(5) 0.5499(4)
C12 C -0.0306(7) 0.2890(5) 0.6336(4)
H6 H -0.1111 0.2376 0.6394
C13 C -0.0003(6) 0.3151(4) 0.7094(4)
C14 C -0.1008(7) 0.2645(4) 0.8017(4)
C15 C 0.4250(6) 0.5275(4) 0.1579(4)
C16 C 0.6212(7) 0.8983(4) -0.2241(4)
C17 C 0.7188(7) 0.9908(5) -0.2790(4)
H7 H 0.7583 1.0403 -0.2524
C18 C 0.7584(7) 1.0109(5) -0.3729(4)
H8 H 0.8270 1.0710 -0.4091
C19 C 0.6930(7) 0.9390(4) -0.4106(4)
C20 C 0.7095(7) 0.9399(4) -0.5078(4)
C21 C 0.7996(7) 1.0100(5) -0.5859(4)
H9 H 0.8635 1.0683 -0.5833
C22 C 0.7927(7) 0.9912(5) -0.6688(4)
H10 H 0.8563 1.0357 -0.7217
C23 C 0.6918(7) 0.9066(5) -0.6747(4)
C24 C 0.6001(7) 0.8386(4) -0.5949(4)
H11 H 0.5314 0.7830 -0.5972
C25 C 0.6115(6) 0.8540(4) -0.5125(4)
C26 C 0.5269(7) 0.7940(5) -0.4177(4)
C27 C 0.5874(6) 0.8510(5) -0.3569(4)
C28 C 0.5541(7) 0.8267(5) -0.2640(4)
H12 H 0.4887 0.7644 -0.2281
C29 C 0.5912(6) 0.8732(4) -0.1213(4)
C30 C 0.6782(7) 0.8955(5) -0.7654(4)
O1 O -0.0293(5) 0.2656(4) 0.4400(3)
O2 O 0.5306(5) 0.6046(3) 0.1200(3)
O3 O 0.3705(5) 0.4685(4) 0.1163(3)
O4 O -0.2202(5) 0.2075(3) 0.8066(3)
O5 O -0.0573(5) 0.2799(3) 0.8704(3)
O6 O 0.4268(5) 0.7191(4) -0.3952(3)
O7 O 0.5885(5) 0.9586(3) -0.0884(2)
O8 O 0.5714(5) 0.7677(3) -0.0724(3)
O9 O 0.5839(5) 0.8223(3) -0.7682(3)
O10 O 0.7677(5) 0.9579(4) -0.8357(3)
O11 O 0.7957(5) 0.7800(3) 0.0457(3)
H13 H 0.860(6) 0.763(5) 0.084(3)
H14 H 0.850(7) 0.842(4) 0.008(3)
O12 O 0.9834(5) 0.5210(3) 0.0950(3)
H15 H 0.933(7) 0.475(4) 0.146(3)
H16 H 0.984(8) 0.584(4) 0.118(4)
O13 O 0.7147(6) 0.3694(4) 0.0725(3)
H17 H 0.790(5) 0.319(5) 0.064(5)
H18 H 0.644(5) 0.345(6) 0.051(5)
O14 O 0.9617(6) 0.7378(4) -0.1303(3)
H19 H 0.958(7) 0.811(3) -0.133(4)
H20 H 1.043(6) 0.737(5) -0.173(4)
O15 O 0.2626(6) 0.8699(6) -0.0063(4)
H21 H 0.252(7) 0.923(4) -0.055(3)
H22 H 0.178(5) 0.833(5) 0.011(4)
Sr1A Sr 0.24216(6) 0.40760(4) 0.01243(4)
Sr1A_2 Sr 1.24216(6) 0.40760(4) 0.01243(4)
Sr2A Sr -0.48891(6) 0.16883(4) 0.91279(3)
Sr2A_2 Sr 0.51109(6) 1.16883(4) -0.08721(3)
Sr2_2 Sr 0.48891(6) 0.83117(4) -0.91279(3)
O3A O 0.6295(5) 0.5315(4) -0.1163(3)
O4A O 0.2202(5) 0.7925(3) 0.1934(3)
O7A O 0.4115(5) 1.0414(3) 0.0884(2)
O9_2 O 0.5839(5) 0.8223(3) 0.2318(3)
O12A O 1.0166(5) 0.4790(3) -0.0950(3)
H15A H 1.067(7) 0.525(4) -0.146(3)
H16A H 1.016(8) 0.416(4) -0.118(4)
O16 O 0.0604(5) 0.0409(3) 0.1069(3)
H23 H -0.029(4) 0.009(6) 0.136(5)
H24 H 0.126(6) -0.016(5) 0.128(5)
O17 O 0.8637(6) 0.3363(4) 0.2697(3)
H25 H 0.857(8) 0.266(3) 0.306(4)
H26 H 0.770(5) 0.343(6) 0.256(5)
loop_
_geom_bond_atom_site_label_1
_geom_bond_atom_site_label_2
_geom_bond_site_symmetry_1
_geom_bond_site_symmetry_2
Sr1 O2 1_555 1_555
Sr2 O2 1_555 1_555
C1 H1 1_555 1_555
C2 C1 1_555 1_555
H2 C2 1_555 1_555
C3 C2 1_555 1_555
C4 C3 1_555 1_555
C5 C4 1_555 1_555
H3 C5 1_555 1_555
C6 C5 1_555 1_555
H4 C6 1_555 1_555
C7 C6 1_555 1_555
C8 C7 1_555 1_555
H5 C8 1_555 1_555
C9 C4 1_555 1_555
C10 C9 1_555 1_555
C11 C3 1_555 1_555
C12 C11 1_555 1_555
H6 C12 1_555 1_555
C13 C1 1_555 1_555
C14 C13 1_555 1_555
C15 C7 1_555 1_555
C16 C17 1_555 1_555
C17 H7 1_555 1_555
C18 C17 1_555 1_555
H8 C18 1_555 1_555
C19 C18 1_555 1_555
C20 C19 1_555 1_555
C21 C20 1_555 1_555
H9 C21 1_555 1_555
C22 C21 1_555 1_555
H10 C22 1_555 1_555
C23 C22 1_555 1_555
C24 C23 1_555 1_555
H11 C24 1_555 1_555
C25 C20 1_555 1_555
C26 C25 1_555 1_555
C27 C19 1_555 1_555
C28 C16 1_555 1_555
H12 C28 1_555 1_555
C29 C16 1_555 1_555
C30 C23 1_555 1_555
O1 C10 1_555 1_555
O2 C15 1_555 1_555
O3 C15 1_555 1_555
O4 C14 1_555 1_555
O5 C14 1_555 1_555
O6 C26 1_555 1_555
O7 Sr2 1_555 1_555
O8 Sr1 1_555 1_555
O9 C30 1_555 1_555
O10 C30 1_555 1_555
O11 Sr1 1_555 1_555
H13 O11 1_555 1_555
H14 O11 1_555 1_555
O12 Sr1 1_555 1_555
H15 O12 1_555 1_555
H16 O12 1_555 1_555
O13 Sr1 1_555 1_555
H17 O13 1_555 1_555
H18 O13 1_555 1_555
O14 Sr1 1_555 1_555
H19 O14 1_555 1_555
H20 O14 1_555 1_555
O15 Sr2 1_555 1_555
H21 O15 1_555 1_555
H22 O15 1_555 1_555
O16 H23 1_555 1_555
H24 O16 1_555 1_555
O17 H25 1_555 1_555
H26 O17 1_555 1_555
Sr1A O3 1_555 1_555
Sr1A_2 O12 1_555 1_555
Sr2A O4 1_555 1_555
Sr2A_2 O7 1_555 1_555
Sr2_2 O9 1_555 1_555
O3A Sr1 1_555 1_555
O4A Sr2 1_555 1_555
O7A Sr2 1_555 1_555
O9_2 Sr2 1_555 1_555
O12A Sr1 1_555 1_555
H15A O12A 1_555 1_555
H16A O12A 1_555 1_555
Sr2 O8 1_555 1_555
Sr2 O11 1_555 1_555
C8 C9 1_555 1_555
C10 C11 1_555 1_555
C12 C13 1_555 1_555
C24 C25 1_555 1_555
C26 C27 1_555 1_555
C27 C28 1_555 1_555
C29 O7 1_555 1_555
C29 O8 1_555 1_555
Sr1A_2 O12A 1_555 1_555
Sr2A_2 O7A 1_555 1_555

#END
