
#######################################################################
#
#                 Cambridge Crystallographic Data Centre
#                                CCDC 
#
#######################################################################
#
# If this CIF has been generated from an entry in the Cambridge 
# Structural Database, then it will include bibliographic, chemical, 
# crystal, experimental, refinement or atomic coordinate data resulting 
# from the CCDC's data processing and validation procedures.
#
#######################################################################

data_SUTBOZ
_symmetry_cell_setting           monoclinic
_symmetry_space_group_name_H-M   'P 21'
_symmetry_Int_Tables_number      4
_space_group_name_Hall           'P 2yb'
loop_
_symmetry_equiv_pos_site_id
_symmetry_equiv_pos_as_xyz
1 x,y,z
2 -x,1/2+y,-z
_cell_length_a                   7.5411(16)
_cell_length_b                   6.6118(14)
_cell_length_c                   27.999(6)
_cell_angle_alpha                90
_cell_angle_beta                 97.065(3)
_cell_angle_gamma                90
_cell_volume                     1385.44
loop_
_atom_site_label
_atom_site_type_symbol
_atom_site_fract_x
_atom_site_fract_y
_atom_site_fract_z
Ca1 Ca 0.2290(2) 0.3608(3) 0.99531(6)
Ca2 Ca -0.2537(2) 0.2541(3) 0.50212(6)
C1 C 0.4551(15) 0.5012(14) 1.4238(3)
C2 C 0.0423(11) 0.0077(13) 0.5755(3)
C3 C 0.0462(12) 0.6166(14) 1.0753(3)
C4 C 0.4567(14) 0.1064(16) 0.9242(3)
C5 C 0.3242(10) 0.7477(12) 1.2488(3)
C6 C 0.1248(10) -0.0172(12) 0.6277(3)
C7 C 0.3768(11) 0.4753(13) 1.3712(3)
C8 C 0.4531(9) -0.1419(13) 0.8563(3)
H1 H 0.5152 -0.2343 0.8784
C9 C 0.3214(12) -0.0590(14) 0.7762(3)
C10 C 0.3149(11) 0.1900(12) 0.8410(3)
H2 H 0.2829 0.3192 0.8520
C11 C 0.0566(10) 0.3594(13) 1.1420(3)
H3 H -0.0018 0.2664 1.1194
C12 C 0.1818(11) 0.4397(14) 1.2227(3)
C13 C 0.0977(10) 0.5551(13) 1.1267(3)
C14 C 0.1725(10) 0.2452(12) 0.7517(3)
C15 C 0.1012(13) 0.3000(12) 1.1903(3)
H4 H 0.0764 0.1669 1.2004
C16 C 0.1837(11) 0.6988(12) 1.1592(3)
H5 H 0.2107 0.8312 1.1491
C17 C 0.3864(10) 0.6368(12) 1.3392(3)
H6 H 0.4356 0.7631 1.3502
C18 C 0.1055(10) 0.1379(12) 0.6608(3)
H7 H 0.0461 0.2600 0.6506
C19 C 0.2281(10) 0.2646(13) 1.3065(3)
H8 H 0.1721 0.1410 1.2960
C20 C 0.2607(11) -0.0736(13) 0.7241(3)
C21 C 0.2407(11) 0.4240(13) 1.2749(3)
C22 C 0.3020(11) 0.2929(12) 1.3551(3)
H9 H 0.3001 0.1839 1.3771
C23 C 0.4077(12) -0.2000(11) 0.8078(3)
H10 H 0.4353 -0.3313 0.7971
C24 C 0.1739(11) 0.1112(13) 0.7087(3)
C25 C 0.2762(10) -0.2315(13) 0.6918(3)
H11 H 0.3319 -0.3556 0.7022
C26 C 0.2712(11) 0.1333(13) 0.7931(3)
C27 C 0.2064(10) -0.2005(12) 0.6432(3)
H12 H 0.2147 -0.3060 0.6206
C28 C 0.2269(11) 0.6367(13) 1.2069(3)
C29 C 0.3227(10) 0.6085(12) 1.2911(3)
C30 C 0.4081(10) 0.0493(13) 0.8724(3)
H13 H -0.342(10) -0.143(10) 0.445(3)
H14 H -0.302(8) 0.687(7) 0.531(3)
H15 H 0.219(6) 0.796(3) 0.9798(12)
H16 H 0.191(7) -0.022(10) 1.044(3)
H17 H -0.240(11) -0.143(10) 0.481(2)
H18 H -0.143(8) 0.664(10) 0.543(3)
H19 H 0.347(4) 0.737(5) 0.959(2)
H20 H 0.333(7) -0.046(8) 1.031(2)
O1 O -0.2619(10) -0.0495(10) 0.4567(2)
O2 O 0.0449(9) -0.1465(11) 0.54797(18)
O3 O -0.2323(9) 0.5764(10) 0.5352(2)
O4 O -0.0197(8) 0.1760(9) 0.5621(2)
O5 O 0.4979(9) 0.3461(11) 1.4486(2)
O6 O 0.5252(7) -0.0320(9) 0.9534(2)
O7 O 0.2398(8) 0.6886(9) 0.9618(2)
O8 O 0.4244(7) 0.2815(9) 0.93834(19)
O9 O 0.2850(8) 0.0640(9) 1.0438(2)
O10 O 0.4564(9) 0.6791(10) 1.4408(2)
O11 O 0.0130(8) 0.8079(9) 1.0661(2)
O12 O 0.0180(9) 0.4852(9) 1.0431(2)
O13 O 0.1032(8) 0.4144(8) 0.7525(2)
O14 O 0.3917(8) 0.9164(9) 1.2483(2)
Ca1A Ca -0.2290(2) 0.8608(3) 1.00469(6)
Ca1A_2 Ca 0.7710(2) -0.1392(3) 1.00469(6)
Ca2_2 Ca 0.7463(2) 0.2541(3) 1.50212(6)
Ca2A Ca 0.2537(2) -0.2459(3) 0.49788(6)
Ca2A_2 Ca 0.2537(2) 0.7541(3) 1.49788(6)
O2A O -0.0449(9) 0.3535(11) 0.45203(18)
O5_2 O -0.5021(9) 0.3461(11) 0.4486(2)
O6A O 0.4748(7) 0.4680(9) 1.0466(2)
O10A O -0.4564(9) 0.1791(10) 0.5592(2)
O11A O -0.0130(8) 0.3079(9) 0.9339(2)
loop_
_geom_bond_atom_site_label_1
_geom_bond_atom_site_label_2
_geom_bond_site_symmetry_1
_geom_bond_site_symmetry_2
Ca1 O7 1_555 1_555
Ca2 O1 1_555 1_555
C1 C7 1_555 1_555
C2 C6 1_555 1_555
C3 C13 1_555 1_555
C4 C30 1_555 1_555
C5 C28 1_555 1_555
C6 C18 1_555 1_555
C7 C17 1_555 1_555
C8 H1 1_555 1_555
C9 C20 1_555 1_555
C10 H2 1_555 1_555
C11 H3 1_555 1_555
C12 C15 1_555 1_555
C13 C11 1_555 1_555
C14 C24 1_555 1_555
C15 C11 1_555 1_555
H4 C15 1_555 1_555
C16 C13 1_555 1_555
H5 C16 1_555 1_555
C17 H6 1_555 1_555
C18 H7 1_555 1_555
C19 H8 1_555 1_555
C20 C24 1_555 1_555
C21 C12 1_555 1_555
C22 C7 1_555 1_555
H9 C22 1_555 1_555
C23 C8 1_555 1_555
H10 C23 1_555 1_555
C24 C18 1_555 1_555
C25 C20 1_555 1_555
H11 C25 1_555 1_555
C26 C9 1_555 1_555
C27 C6 1_555 1_555
H12 C27 1_555 1_555
C28 C12 1_555 1_555
C29 C5 1_555 1_555
C30 C8 1_555 1_555
H13 O1 1_555 1_555
H14 O3 1_555 1_555
H15 O7 1_555 1_555
H16 O9 1_555 1_555
H17 O1 1_555 1_555
H18 O3 1_555 1_555
H19 O7 1_555 1_555
H20 O9 1_555 1_555
O2 C2 1_555 1_555
O3 Ca2 1_555 1_555
O4 Ca2 1_555 1_555
O5 C1 1_555 1_555
O6 C4 1_555 1_555
O8 Ca1 1_555 1_555
O9 Ca1 1_555 1_555
O10 C1 1_555 1_555
O11 C3 1_555 1_555
O12 Ca1 1_555 1_555
O13 C14 1_555 1_555
O14 C5 1_555 1_555
Ca1A O11 1_555 1_555
Ca1A_2 O6 1_555 1_555
Ca2_2 O5 1_555 1_555
Ca2A O2 1_555 1_555
Ca2A_2 O10 1_555 1_555
O2A Ca2 1_555 1_555
O5_2 Ca2 1_555 1_555
O6A Ca1 1_555 1_555
O10A Ca2 1_555 1_555
O11A Ca1 1_555 1_555
C2 O4 1_555 1_555
C3 O12 1_555 1_555
C4 O8 1_555 1_555
C9 C23 1_555 1_555
C10 C26 1_555 1_555
C10 C30 1_555 1_555
C14 C26 1_555 1_555
C16 C28 1_555 1_555
C17 C29 1_555 1_555
C19 C21 1_555 1_555
C19 C22 1_555 1_555
C21 C29 1_555 1_555
C25 C27 1_555 1_555

#END
