
#######################################################################
#
#                 Cambridge Crystallographic Data Centre
#                                CCDC 
#
#######################################################################
#
# If this CIF has been generated from an entry in the Cambridge 
# Structural Database, then it will include bibliographic, chemical, 
# crystal, experimental, refinement or atomic coordinate data resulting 
# from the CCDC's data processing and validation procedures.
#
#######################################################################

data_SUTJEY
_symmetry_cell_setting           triclinic
_symmetry_space_group_name_H-M   'P -1'
_symmetry_Int_Tables_number      2
_space_group_name_Hall           '-P 1'
loop_
_symmetry_equiv_pos_site_id
_symmetry_equiv_pos_as_xyz
1 x,y,z
2 -x,-y,-z
_cell_length_a                   9.1604(18)
_cell_length_b                   11.941(2)
_cell_length_c                   13.582(3)
_cell_angle_alpha                85.54(3)
_cell_angle_beta                 80.32(3)
_cell_angle_gamma                76.61(3)
_cell_volume                     1423.53
loop_
_atom_site_label
_atom_site_type_symbol
_atom_site_fract_x
_atom_site_fract_y
_atom_site_fract_z
Ni1 Ni 0.49875(5) 0.75875(4) 0.21846(3)
O1 O 0.4050(3) 0.6425(3) 0.0340(2)
O2 O 0.3182(3) 0.7032(2) 0.18820(18)
O3 O -0.3452(3) 0.5998(2) 0.19683(19)
O4 O -0.2636(3) 0.7515(2) 0.22148(19)
O5 O 0.1363(3) 0.3078(2) 0.0585(2)
O6 O 0.5550(3) 0.7950(2) 0.05967(19)
H1 H 0.6475 0.7785 0.0433
N1 N 0.4536(3) 0.7257(2) 0.3746(2)
N2 N 0.4480(4) 0.7428(3) 0.5376(2)
N3 N 0.6152(3) 1.0718(2) 0.7643(2)
N4 N 0.6646(4) 0.8820(2) 0.7520(2)
C1 C 0.3147(4) 0.6476(3) 0.1137(3)
C2 C 0.1889(4) 0.5837(3) 0.1238(3)
C3 C 0.0423(4) 0.6371(3) 0.1678(3)
H2 H 0.0249 0.7087 0.1954
C4 C -0.0765(4) 0.5830(3) 0.1702(3)
C5 C -0.0472(4) 0.4705(3) 0.1359(3)
H3 H -0.1257 0.4319 0.1415
C6 C 0.0979(4) 0.4174(3) 0.0941(3)
C7 C 0.2154(4) 0.4754(3) 0.0849(3)
H4 H 0.3117 0.4415 0.0528
C8 C -0.2360(4) 0.6474(3) 0.1995(3)
C9 C 0.0187(4) 0.2434(3) 0.0705(3)
H5 H -0.0667 0.2858 0.0394
H6 H -0.0168 0.2302 0.1409
C10 C 0.0861(4) 0.1301(3) 0.0212(3)
H7 H 0.1707 0.0885 0.0534
H8 H 0.1248 0.1447 -0.0484
C11 C -0.0305(5) 0.0559(3) 0.0275(4)
H9 H -0.0642 0.0377 0.0972
H10 H -0.1181 0.1000 -0.0004
C12 C 0.5992(5) 0.8606(4) 0.4218(3)
H11 H 0.6653 0.8443 0.3594
H12 H 0.6589 0.8549 0.4744
H13 H 0.5373 0.9371 0.4180
C13 C 0.5000(4) 0.7760(3) 0.4429(3)
C14 C 0.3642(4) 0.6543(3) 0.4289(3)
C15 C 0.2810(5) 0.5838(3) 0.3972(3)
H14 H 0.2816 0.5757 0.3296
C16 C 0.1981(5) 0.5267(4) 0.4690(3)
H15 H 0.1395 0.4811 0.4490
C17 C 0.1985(5) 0.5346(4) 0.5707(3)
H16 H 0.1434 0.4925 0.6170
C18 C 0.2798(5) 0.6043(4) 0.6034(3)
H17 H 0.2801 0.6109 0.6711
C19 C 0.3609(4) 0.6640(3) 0.5311(3)
C20 C 0.4716(5) 0.7843(3) 0.6314(3)
H18 H 0.3884 0.7747 0.6835
H19 H 0.4703 0.8659 0.6229
C21 C 0.6200(5) 0.7211(3) 0.6639(3)
H20 H 0.7030 0.7313 0.6119
H21 H 0.6214 0.6394 0.6716
C22 C 0.4087(5) 0.9748(3) 0.8428(3)
H22 H 0.3439 1.0504 0.8405
H23 H 0.3663 0.9217 0.8132
H24 H 0.4171 0.9506 0.9111
C23 C 0.5612(4) 0.9775(3) 0.7868(3)
C24 C 0.7628(4) 1.0357(3) 0.7137(3)
C25 C 0.8737(5) 1.0965(4) 0.6768(3)
H25 H 0.8555 1.1758 0.6827
C26 C 1.0113(5) 1.0353(4) 0.6312(4)
H26 H 1.0869 1.0744 0.6049
C27 C 1.0403(5) 0.9168(4) 0.6235(4)
H27 H 1.1352 0.8783 0.5926
C28 C 0.9333(5) 0.8553(4) 0.6601(4)
H28 H 0.9530 0.7759 0.6543
C29 C 0.7946(4) 0.9158(3) 0.7061(3)
C30 C 0.6454(5) 0.7625(3) 0.7616(3)
H29 H 0.7352 0.7125 0.7827
H30 H 0.5594 0.7571 0.8128
H31 H 0.505(4) 0.750(3) 0.043(4)
O1A O -0.4050(3) -0.6425(3) -0.0340(2)
O2A O -0.3182(3) -0.7032(2) -0.18820(18)
O3A O 0.3452(3) -0.5998(2) -0.19683(19)
O4A O 0.2636(3) -0.7515(2) -0.22148(19)
O5A O -0.1363(3) -0.3078(2) -0.0585(2)
C1A C -0.3147(4) -0.6476(3) -0.1137(3)
C2A C -0.1889(4) -0.5837(3) -0.1238(3)
C3A C -0.0423(4) -0.6371(3) -0.1678(3)
H2A H -0.0249 -0.7087 -0.1954
C4A C 0.0765(4) -0.5830(3) -0.1702(3)
C5A C 0.0472(4) -0.4705(3) -0.1359(3)
H3A H 0.1257 -0.4319 -0.1415
C6A C -0.0979(4) -0.4174(3) -0.0941(3)
C7A C -0.2154(4) -0.4754(3) -0.0849(3)
H4A H -0.3117 -0.4415 -0.0528
C8A C 0.2360(4) -0.6474(3) -0.1995(3)
C9A C -0.0187(4) -0.2434(3) -0.0705(3)
H5A H 0.0667 -0.2858 -0.0394
H6A H 0.0168 -0.2302 -0.1409
C10A C -0.0861(4) -0.1301(3) -0.0212(3)
H7A H -0.1707 -0.0885 -0.0534
H8A H -0.1248 -0.1447 0.0484
C11A C 0.0305(5) -0.0559(3) -0.0275(4)
H9A H 0.0642 -0.0377 -0.0972
H10A H 0.1181 -0.1000 0.0004
Ni1A Ni -0.49875(5) -0.75875(4) -0.21846(3)
O6A O -0.5550(3) -0.7950(2) -0.05967(19)
H1A H -0.6475 -0.7785 -0.0433
N1A N -0.4536(3) -0.7257(2) -0.3746(2)
N2A N -0.4480(4) -0.7428(3) -0.5376(2)
N3A N -0.6152(3) -1.0718(2) -0.7643(2)
N4A N -0.6646(4) -0.8820(2) -0.7520(2)
C12A C -0.5992(5) -0.8606(4) -0.4218(3)
H11A H -0.6653 -0.8443 -0.3594
H12A H -0.6589 -0.8549 -0.4744
H13A H -0.5373 -0.9371 -0.4180
C13A C -0.5000(4) -0.7760(3) -0.4429(3)
C14A C -0.3642(4) -0.6543(3) -0.4289(3)
C15A C -0.2810(5) -0.5838(3) -0.3972(3)
H14A H -0.2816 -0.5757 -0.3296
C16A C -0.1981(5) -0.5267(4) -0.4690(3)
H15A H -0.1395 -0.4811 -0.4490
C17A C -0.1985(5) -0.5346(4) -0.5707(3)
H16A H -0.1434 -0.4925 -0.6170
C18A C -0.2798(5) -0.6043(4) -0.6034(3)
H17A H -0.2801 -0.6109 -0.6711
C19A C -0.3609(4) -0.6640(3) -0.5311(3)
C20A C -0.4716(5) -0.7843(3) -0.6314(3)
H18A H -0.3884 -0.7747 -0.6835
H19A H -0.4703 -0.8659 -0.6229
C21A C -0.6200(5) -0.7211(3) -0.6639(3)
H20A H -0.7030 -0.7313 -0.6119
H21A H -0.6214 -0.6394 -0.6716
C22A C -0.4087(5) -0.9748(3) -0.8428(3)
H22A H -0.3439 -1.0504 -0.8405
H23A H -0.3663 -0.9217 -0.8132
H24A H -0.4171 -0.9506 -0.9111
C23A C -0.5612(4) -0.9775(3) -0.7868(3)
C24A C -0.7628(4) -1.0357(3) -0.7137(3)
C25A C -0.8737(5) -1.0965(4) -0.6768(3)
H25A H -0.8555 -1.1758 -0.6827
C26A C -1.0113(5) -1.0353(4) -0.6312(4)
H26A H -1.0869 -1.0744 -0.6049
C27A C -1.0403(5) -0.9168(4) -0.6235(4)
H27A H -1.1352 -0.8783 -0.5926
C28A C -0.9333(5) -0.8553(4) -0.6601(4)
H28A H -0.9530 -0.7759 -0.6543
C29A C -0.7946(4) -0.9158(3) -0.7061(3)
C30A C -0.6454(5) -0.7625(3) -0.7616(3)
H29A H -0.7352 -0.7125 -0.7827
H30A H -0.5594 -0.7571 -0.8128
H31A H -0.505(4) -0.750(3) -0.043(4)
Ni1_2 Ni -0.50125(5) -1.24125(4) -0.78154(3)
Ni1_3 Ni -0.50125(5) 0.75875(4) 0.21846(3)
Ni1A_2 Ni 0.50125(5) -0.75875(4) -0.21846(3)
Ni1A_3 Ni 0.50125(5) 1.24125(4) 0.78154(3)
O3_2 O 0.6548(3) 0.5998(2) 0.19683(19)
O3A_2 O -0.6548(3) -0.5998(2) -0.19683(19)
O4_2 O 0.7364(3) 0.7515(2) 0.22148(19)
O4A_2 O -0.7364(3) -0.7515(2) -0.22148(19)
N3_2 N -0.3848(3) -0.9282(2) -0.2357(2)
N3A_2 N 0.3848(3) 0.9282(2) 0.2357(2)
O7 O 0.6106(5) 0.3821(3) 0.1635(2)
H32 H 0.617(6) 0.370(4) 0.1017(12)
H33 H 0.622(7) 0.449(2) 0.172(3)
loop_
_geom_bond_atom_site_label_1
_geom_bond_atom_site_label_2
_geom_bond_site_symmetry_1
_geom_bond_site_symmetry_2
Ni1 O2 1_555 1_555
O1 C1 1_555 1_555
O2 C1 1_555 1_555
O3 C8 1_555 1_555
O4 C8 1_555 1_555
O5 C6 1_555 1_555
O6 Ni1 1_555 1_555
H1 O6 1_555 1_555
N1 Ni1 1_555 1_555
N2 C13 1_555 1_555
N3 C23 1_555 1_555
N4 C23 1_555 1_555
C1 C2 1_555 1_555
C2 C3 1_555 1_555
C3 H2 1_555 1_555
C4 C3 1_555 1_555
C5 C4 1_555 1_555
H3 C5 1_555 1_555
C6 C5 1_555 1_555
C7 C2 1_555 1_555
H4 C7 1_555 1_555
C8 C4 1_555 1_555
C9 O5 1_555 1_555
H5 C9 1_555 1_555
H6 C9 1_555 1_555
C10 C9 1_555 1_555
H7 C10 1_555 1_555
H8 C10 1_555 1_555
C11 C10 1_555 1_555
H9 C11 1_555 1_555
H10 C11 1_555 1_555
C12 H11 1_555 1_555
H12 C12 1_555 1_555
H13 C12 1_555 1_555
C13 N1 1_555 1_555
C14 N1 1_555 1_555
C15 C14 1_555 1_555
H14 C15 1_555 1_555
C16 C15 1_555 1_555
H15 C16 1_555 1_555
C17 C16 1_555 1_555
H16 C17 1_555 1_555
C18 C17 1_555 1_555
H17 C18 1_555 1_555
C19 N2 1_555 1_555
C20 N2 1_555 1_555
H18 C20 1_555 1_555
H19 C20 1_555 1_555
C21 C20 1_555 1_555
H20 C21 1_555 1_555
H21 C21 1_555 1_555
C22 H22 1_555 1_555
H23 C22 1_555 1_555
H24 C22 1_555 1_555
C23 C22 1_555 1_555
C24 N3 1_555 1_555
C25 C24 1_555 1_555
H25 C25 1_555 1_555
C26 C25 1_555 1_555
H26 C26 1_555 1_555
C27 C26 1_555 1_555
H27 C27 1_555 1_555
C28 C27 1_555 1_555
H28 C28 1_555 1_555
C29 N4 1_555 1_555
C30 N4 1_555 1_555
H29 C30 1_555 1_555
H30 C30 1_555 1_555
H31 O6 1_555 1_555
O7 H32 1_555 1_555
H33 O7 1_555 1_555
O1A C1A 1_555 1_555
O2A C1A 1_555 1_555
O3A C8A 1_555 1_555
O4A C8A 1_555 1_555
O5A C6A 1_555 1_555
C1A C2A 1_555 1_555
C2A C3A 1_555 1_555
C3A H2A 1_555 1_555
C4A C3A 1_555 1_555
C5A C4A 1_555 1_555
H3A C5A 1_555 1_555
C6A C5A 1_555 1_555
C7A C2A 1_555 1_555
H4A C7A 1_555 1_555
C8A C4A 1_555 1_555
C9A O5A 1_555 1_555
H5A C9A 1_555 1_555
H6A C9A 1_555 1_555
C10A C9A 1_555 1_555
H7A C10A 1_555 1_555
H8A C10A 1_555 1_555
C11A C11 1_555 1_555
H9A C11A 1_555 1_555
H10A C11A 1_555 1_555
Ni1A O2A 1_555 1_555
O6A Ni1A 1_555 1_555
H1A O6A 1_555 1_555
N1A Ni1A 1_555 1_555
N2A C13A 1_555 1_555
N3A C23A 1_555 1_555
N4A C23A 1_555 1_555
C12A H11A 1_555 1_555
H12A C12A 1_555 1_555
H13A C12A 1_555 1_555
C13A N1A 1_555 1_555
C14A N1A 1_555 1_555
C15A C14A 1_555 1_555
H14A C15A 1_555 1_555
C16A C15A 1_555 1_555
H15A C16A 1_555 1_555
C17A C16A 1_555 1_555
H16A C17A 1_555 1_555
C18A C17A 1_555 1_555
H17A C18A 1_555 1_555
C19A N2A 1_555 1_555
C20A N2A 1_555 1_555
H18A C20A 1_555 1_555
H19A C20A 1_555 1_555
C21A C20A 1_555 1_555
H20A C21A 1_555 1_555
H21A C21A 1_555 1_555
C22A H22A 1_555 1_555
H23A C22A 1_555 1_555
H24A C22A 1_555 1_555
C23A C22A 1_555 1_555
C24A N3A 1_555 1_555
C25A C24A 1_555 1_555
H25A C25A 1_555 1_555
C26A C25A 1_555 1_555
H26A C26A 1_555 1_555
C27A C26A 1_555 1_555
H27A C27A 1_555 1_555
C28A C27A 1_555 1_555
H28A C28A 1_555 1_555
C29A N4A 1_555 1_555
C30A N4A 1_555 1_555
H29A C30A 1_555 1_555
H30A C30A 1_555 1_555
H31A O6A 1_555 1_555
Ni1_2 N3A 1_555 1_555
Ni1_3 O3 1_555 1_555
Ni1A_2 O3A 1_555 1_555
Ni1A_3 N3 1_555 1_555
O3_2 Ni1 1_555 1_555
O3A_2 Ni1A 1_555 1_555
O4_2 Ni1 1_555 1_555
O4A_2 Ni1A 1_555 1_555
N3_2 Ni1A 1_555 1_555
N3A_2 Ni1 1_555 1_555
O4 Ni1_3 1_555 1_555
C6 C7 1_555 1_555
C12 C13 1_555 1_555
C14 C19 1_555 1_555
C18 C19 1_555 1_555
C21 C30 1_555 1_555
C24 C29 1_555 1_555
C28 C29 1_555 1_555
O4A Ni1A_2 1_555 1_555
C6A C7A 1_555 1_555
C10A C11A 1_555 1_555
C12A C13A 1_555 1_555
C14A C19A 1_555 1_555
C18A C19A 1_555 1_555
C21A C30A 1_555 1_555
C24A C29A 1_555 1_555
C28A C29A 1_555 1_555

#END
