
#######################################################################
#
#                 Cambridge Crystallographic Data Centre
#                                CCDC 
#
#######################################################################
#
# If this CIF has been generated from an entry in the Cambridge 
# Structural Database, then it will include bibliographic, chemical, 
# crystal, experimental, refinement or atomic coordinate data resulting 
# from the CCDC's data processing and validation procedures.
#
#######################################################################

data_SUTJIC
_symmetry_cell_setting           triclinic
_symmetry_space_group_name_H-M   'P -1'
_symmetry_Int_Tables_number      2
_space_group_name_Hall           '-P 1'
loop_
_symmetry_equiv_pos_site_id
_symmetry_equiv_pos_as_xyz
1 x,y,z
2 -x,-y,-z
_cell_length_a                   13.890(3)
_cell_length_b                   14.330(3)
_cell_length_c                   19.017(4)
_cell_angle_alpha                68.31(3)
_cell_angle_beta                 75.83(3)
_cell_angle_gamma                84.36(3)
_cell_volume                     3410.07
loop_
_atom_site_label
_atom_site_type_symbol
_atom_site_fract_x
_atom_site_fract_y
_atom_site_fract_z
Ni1 Ni 0.42223(3) 0.62370(3) 0.21767(2)
Ni2 Ni 0.17112(3) 0.86447(3) 0.61185(2)
O1 O -0.27975(16) 1.42460(16) -0.22532(13)
O2 O -0.2950(2) 1.5853(2) -0.2709(3)
O3 O 0.36221(17) 0.77089(16) 0.18956(12)
O4 O 0.36136(17) 0.67571(16) 0.31043(13)
O5 O 0.45418(16) 0.47784(17) 0.28299(14)
H1 H 0.4103 0.4403 0.2876
H2 H 0.4758 0.4867 0.3155
O6 O 0.14110(15) 1.72463(16) -0.30298(12)
O7 O 0.02526(16) 1.79244(16) -0.36669(13)
O8 O 0.21985(16) 0.80999(15) 0.52025(12)
O9 O 0.18047(16) 0.96775(16) 0.49519(11)
O10 O 0.02605(18) 1.3797(2) -0.11941(15)
O11 O 0.22812(19) 1.10168(17) 0.19544(12)
N1 N 0.47471(19) 0.6080(2) 0.11171(15)
N2 N 0.5023(2) 0.6421(2) -0.01531(15)
N3 N 0.46991(18) 0.8680(2) -0.37615(15)
N4 N 0.31412(17) 0.89114(18) -0.39085(14)
N5 N 0.5586(2) 0.6918(2) 0.20500(16)
N6 N 0.6817(3) 0.7496(3) 0.2309(2)
N7 N 0.9741(2) 0.9565(2) 0.25845(19)
N8 N 0.88572(19) 1.0591(2) 0.31471(15)
C1 C 0.6275(2) 0.5012(2) 0.1310(2)
H3 H 0.6166 0.4878 0.1840
C2 C 0.5628(2) 0.5609(2) 0.08836(18)
C3 C 0.5796(3) 0.5825(3) 0.0091(2)
C4 C 0.6627(3) 0.5438(3) -0.0302(2)
H4 H 0.6743 0.5585 -0.0835
C5 C 0.7262(3) 0.4833(3) 0.0129(3)
H5 H 0.7819 0.4561 -0.0116
C6 C 0.7092(3) 0.4616(3) 0.0927(2)
H6 H 0.7534 0.4201 0.1205
C7 C 0.4399(3) 0.6565(2) 0.04794(18)
C8 C 0.3486(3) 0.7181(3) 0.0442(2)
H7 H 0.3164 0.7170 0.0953
H8 H 0.3048 0.6914 0.0245
H9 H 0.3652 0.7860 0.0104
C9 C 0.4893(3) 0.6847(3) -0.09559(19)
H10 H 0.4189 0.6899 -0.0948
H11 H 0.5191 0.6396 -0.1226
C10 C 0.5362(3) 0.7889(3) -0.1403(2)
H12 H 0.5081 0.8334 -0.1123
H13 H 0.6070 0.7833 -0.1426
C11 C 0.5198(3) 0.8350(3) -0.2226(2)
H14 H 0.4494 0.8486 -0.2199
H15 H 0.5541 0.8987 -0.2486
C12 C 0.5550(3) 0.7702(3) -0.2702(2)
H16 H 0.5105 0.7135 -0.2499
H17 H 0.6199 0.7437 -0.2619
C13 C 0.5630(2) 0.8178(3) -0.35799(19)
H18 H 0.6162 0.8664 -0.3810
H19 H 0.5794 0.7662 -0.3807
C14 C 0.4518(2) 0.9696(3) -0.39725(17)
C15 C 0.5110(3) 1.0510(3) -0.4104(2)
H20 H 0.5758 1.0412 -0.4038
C16 C 0.4704(3) 1.1445(3) -0.4333(2)
H21 H 0.5079 1.1994 -0.4414
C17 C 0.3732(3) 1.1605(3) -0.4451(2)
H22 H 0.3485 1.2256 -0.4630
C18 C 0.3146(3) 1.0810(2) -0.4304(2)
H23 H 0.2495 1.0914 -0.4365
C19 C 0.3540(2) 0.9847(2) -0.40646(17)
C20 C 0.3860(2) 0.8240(2) -0.37420(17)
C21 C 0.3782(3) 0.7160(3) -0.3564(2)
H24 H 0.3263 0.7044 -0.3775
H25 H 0.3632 0.6816 -0.3011
H26 H 0.4401 0.6912 -0.3790
C22 C 0.5749(4) 0.8266(4) 0.0703(3)
H27 H 0.5196 0.8080 0.0592
C23 C 0.6315(4) 0.9056(4) 0.0169(3)
H28 H 0.6157 0.9390 -0.0311
C24 C 0.7095(5) 0.9356(5) 0.0328(4)
H29 H 0.7479 0.9883 -0.0053
C25 C 0.7344(4) 0.8918(5) 0.1024(4)
H30 H 0.7856 0.9162 0.1142
C26 C 0.6793(3) 0.8078(4) 0.1559(3)
C27 C 0.5998(3) 0.7746(3) 0.1404(2)
C28 C 0.6115(3) 0.6784(4) 0.2553(2)
C29 C 0.5977(4) 0.5952(5) 0.3342(3)
H31 H 0.5298 0.5739 0.3518
H32 H 0.6144 0.6194 0.3705
H33 H 0.6402 0.5394 0.3303
C30 C 0.7465(4) 0.7703(4) 0.2759(3)
H34 H 0.7718 0.8381 0.2495
H35 H 0.7076 0.7650 0.3271
C31 C 0.8279(4) 0.7004(5) 0.2835(4)
H36 H 0.8560 0.6924 0.2340
H37 H 0.8044 0.6355 0.3213
C32 C 0.9114(3) 0.7392(4) 0.3104(3)
H38 H 0.8825 0.7837 0.3381
H39 H 0.9425 0.6829 0.3446
C33 C 0.9877(4) 0.7949(4) 0.2372(3)
H40 H 1.0363 0.7472 0.2239
H41 H 0.9547 0.8257 0.1946
C34 C 1.0408(3) 0.8757(3) 0.2471(3)
H42 H 1.0709 0.8454 0.2915
H43 H 1.0936 0.9034 0.2014
C35 C 0.9831(3) 0.9268(3) 0.3960(2)
H44 H 0.9756 0.9691 0.4262
H45 H 1.0519 0.9089 0.3829
H46 H 0.9448 0.8670 0.4257
C36 C 0.9476(2) 0.9815(3) 0.3236(2)
C37 C 0.9251(3) 1.0241(3) 0.2038(2)
C38 C 0.9274(4) 1.0367(4) 0.1268(2)
H47 H 0.9652 0.9948 0.1029
C39 C 0.8716(4) 1.1127(4) 0.0888(3)
H48 H 0.8726 1.1250 0.0371
C40 C 0.8139(4) 1.1717(4) 0.1254(2)
H49 H 0.7742 1.2209 0.0981
C41 C 0.8115(3) 1.1621(3) 0.2017(2)
H50 H 0.7729 1.2039 0.2251
C42 C 0.8705(3) 1.0857(3) 0.24004(19)
C43 C -0.2480(2) 1.5095(2) -0.2447(2)
C44 C -0.1451(2) 1.5231(2) -0.23720(18)
C45 C -0.1019(2) 1.4460(2) -0.18554(18)
H51 H -0.1350 1.3855 -0.1576
C46 C -0.0100(3) 1.4582(3) -0.17503(19)
C47 C 0.0414(2) 1.5473(2) -0.21870(18)
H52 H 0.1040 1.5550 -0.2123
C48 C -0.0008(2) 1.6246(2) -0.27186(17)
C49 C -0.0946(2) 1.6129(2) -0.28105(17)
H53 H -0.1235 1.6647 -0.3162
C50 C 0.0574(2) 1.7195(2) -0.31732(18)
C51 C 0.1166(3) 1.3960(4) -0.1030(2)
H54 H 0.1722 1.3952 -0.1452
H55 H 0.1146 1.4609 -0.0975
C52 C 0.1292(3) 1.3133(3) -0.0282(2)
H56 H 0.1961 1.3155 -0.0221
H57 H 0.1210 1.2489 -0.0318
C53 C 0.3442(2) 0.7593(2) 0.26041(19)
C54 C 0.3034(2) 0.8457(2) 0.28540(18)
C55 C 0.2866(2) 0.9375(2) 0.23080(18)
H58 H 0.3028 0.9462 0.1783
C56 C 0.2460(2) 1.0160(2) 0.25380(18)
C57 C 0.2247(2) 1.0048(2) 0.33208(18)
H59 H 0.1995 1.0586 0.3475
C58 C 0.2415(2) 0.9124(2) 0.38675(18)
C59 C 0.2806(2) 0.8331(2) 0.36399(18)
H60 H 0.2917 0.7714 0.4009
C60 C 0.2121(2) 0.8967(2) 0.47157(17)
C61 C 0.1837(3) 1.1855(2) 0.21616(18)
H61 H 0.2283 1.2111 0.2368
H62 H 0.1220 1.1660 0.2550
C62 C 0.1645(2) 1.2642(3) 0.14179(19)
H63 H 0.2226 1.2688 0.1002
H64 H 0.1550 1.3288 0.1481
C63 C 0.0748(3) 1.2426(3) 0.1184(2)
H65 H 0.0165 1.2389 0.1596
H66 H 0.0839 1.1775 0.1128
C64 C 0.0564(3) 1.3217(4) 0.0422(2)
H67 H -0.0104 1.3140 0.0380
H68 H 0.0609 1.3881 0.0435
Ni1A Ni -0.42223(3) 1.37630(3) -0.21767(2)
Ni2_2 Ni 0.17112(3) 0.86447(3) -0.38815(2)
Ni2_3 Ni 0.17112(3) 1.86447(3) -0.38815(2)
Ni2A Ni 0.82888(3) 1.13553(3) 0.38815(2)
O1A O 0.27975(16) 0.57540(16) 0.22532(13)
O6_2 O 0.14110(15) 0.72463(16) 0.69702(12)
O7_2 O 0.02526(16) 0.79244(16) 0.63331(13)
N4_2 N 0.31412(17) 0.89114(18) 0.60915(14)
N8A N 0.11428(19) 0.9409(2) 0.68529(15)
O12 O 0.1473(2) 0.1746(2) 0.42316(18)
H69 H 0.1765 0.1340 0.4570
H70 H 0.1952 0.1982 0.3843
O13 O 0.1898(3) 0.3329(3) 0.4629(2)
H71 H 0.1617 0.2768 0.4769
H72 H 0.2272 0.3489 0.4177
O14 O 0.0238(4) 0.4663(4) 0.4425(3)
H73 H -0.0166 0.4952 0.4137
H74 H 0.0293 0.4039 0.4502
O15 O 0.1417(3) 0.6330(4) 0.3599(3)
H75 H 0.1523 0.5730 0.3884
H76 H 0.1160 0.6327 0.3238
O16 O 0.1685(5) 0.6136(3) 0.5384(4)
H77 H 0.1751 0.6283 0.4899
H78 H 0.2177 0.6252 0.5530
O17 O 0.4230(5) 0.4147(3) 0.4455(2)
H79 H 0.3950 0.4128 0.4110
H80 H 0.4838 0.4314 0.4299
O18 O 0.3779(5) 0.5841(5) 0.4737(4)
H81 H 0.3270 0.5472 0.4891
H82 H 0.3629 0.6192 0.5025
loop_
_geom_bond_atom_site_label_1
_geom_bond_atom_site_label_2
_geom_bond_site_symmetry_1
_geom_bond_site_symmetry_2
Ni1 O3 1_555 1_555
Ni2 O8 1_555 1_555
O1 C43 1_555 1_555
O2 C43 1_555 1_555
O3 C53 1_555 1_555
O4 Ni1 1_555 1_555
O5 Ni1 1_555 1_555
H1 O5 1_555 1_555
H2 O5 1_555 1_555
O6 C50 1_555 1_555
O7 C50 1_555 1_555
O8 C60 1_555 1_555
O9 Ni2 1_555 1_555
O10 C46 1_555 1_555
O11 C56 1_555 1_555
N1 Ni1 1_555 1_555
N2 C3 1_555 1_555
N3 C13 1_555 1_555
N4 C19 1_555 1_555
N5 Ni1 1_555 1_555
N6 C26 1_555 1_555
N7 C34 1_555 1_555
N8 C36 1_555 1_555
C1 H3 1_555 1_555
C2 N1 1_555 1_555
C3 C2 1_555 1_555
C4 C3 1_555 1_555
H4 C4 1_555 1_555
C5 C4 1_555 1_555
H5 C5 1_555 1_555
C6 C1 1_555 1_555
H6 C6 1_555 1_555
C7 N1 1_555 1_555
C8 C7 1_555 1_555
H7 C8 1_555 1_555
H8 C8 1_555 1_555
H9 C8 1_555 1_555
C9 N2 1_555 1_555
H10 C9 1_555 1_555
H11 C9 1_555 1_555
C10 C9 1_555 1_555
H12 C10 1_555 1_555
H13 C10 1_555 1_555
C11 C10 1_555 1_555
H14 C11 1_555 1_555
H15 C11 1_555 1_555
C12 C11 1_555 1_555
H16 C12 1_555 1_555
H17 C12 1_555 1_555
C13 C12 1_555 1_555
H18 C13 1_555 1_555
H19 C13 1_555 1_555
C14 N3 1_555 1_555
C15 C14 1_555 1_555
H20 C15 1_555 1_555
C16 C15 1_555 1_555
H21 C16 1_555 1_555
C17 C16 1_555 1_555
H22 C17 1_555 1_555
C18 C17 1_555 1_555
H23 C18 1_555 1_555
C19 C14 1_555 1_555
C20 N3 1_555 1_555
C21 C20 1_555 1_555
H24 C21 1_555 1_555
H25 C21 1_555 1_555
H26 C21 1_555 1_555
C22 H27 1_555 1_555
C23 C22 1_555 1_555
H28 C23 1_555 1_555
C24 C23 1_555 1_555
H29 C24 1_555 1_555
C25 C24 1_555 1_555
H30 C25 1_555 1_555
C26 C25 1_555 1_555
C27 N5 1_555 1_555
C28 N5 1_555 1_555
C29 C28 1_555 1_555
H31 C29 1_555 1_555
H32 C29 1_555 1_555
H33 C29 1_555 1_555
C30 N6 1_555 1_555
H34 C30 1_555 1_555
H35 C30 1_555 1_555
C31 C30 1_555 1_555
H36 C31 1_555 1_555
H37 C31 1_555 1_555
C32 C31 1_555 1_555
H38 C32 1_555 1_555
H39 C32 1_555 1_555
C33 C32 1_555 1_555
H40 C33 1_555 1_555
H41 C33 1_555 1_555
C34 C33 1_555 1_555
H42 C34 1_555 1_555
H43 C34 1_555 1_555
C35 H44 1_555 1_555
H45 C35 1_555 1_555
H46 C35 1_555 1_555
C36 N7 1_555 1_555
C37 N7 1_555 1_555
C38 C37 1_555 1_555
H47 C38 1_555 1_555
C39 C38 1_555 1_555
H48 C39 1_555 1_555
C40 C39 1_555 1_555
H49 C40 1_555 1_555
C41 C40 1_555 1_555
H50 C41 1_555 1_555
C42 N8 1_555 1_555
C43 C44 1_555 1_555
C44 C45 1_555 1_555
C45 H51 1_555 1_555
C46 C45 1_555 1_555
C47 C46 1_555 1_555
H52 C47 1_555 1_555
C48 C47 1_555 1_555
C49 C44 1_555 1_555
H53 C49 1_555 1_555
C50 C48 1_555 1_555
C51 O10 1_555 1_555
H54 C51 1_555 1_555
H55 C51 1_555 1_555
C52 C51 1_555 1_555
H56 C52 1_555 1_555
H57 C52 1_555 1_555
C53 O4 1_555 1_555
C54 C53 1_555 1_555
C55 C54 1_555 1_555
H58 C55 1_555 1_555
C56 C55 1_555 1_555
C57 C56 1_555 1_555
H59 C57 1_555 1_555
C58 C57 1_555 1_555
C59 C54 1_555 1_555
H60 C59 1_555 1_555
C60 O9 1_555 1_555
C61 O11 1_555 1_555
H61 C61 1_555 1_555
H62 C61 1_555 1_555
C62 C61 1_555 1_555
H63 C62 1_555 1_555
H64 C62 1_555 1_555
C63 C62 1_555 1_555
H65 C63 1_555 1_555
H66 C63 1_555 1_555
C64 C52 1_555 1_555
H67 C64 1_555 1_555
H68 C64 1_555 1_555
O12 H69 1_555 1_555
H70 O12 1_555 1_555
O13 H71 1_555 1_555
H72 O13 1_555 1_555
O14 H73 1_555 1_555
H74 O14 1_555 1_555
O15 H75 1_555 1_555
H76 O15 1_555 1_555
O16 H77 1_555 1_555
H78 O16 1_555 1_555
O17 H79 1_555 1_555
H80 O17 1_555 1_555
O18 H81 1_555 1_555
H82 O18 1_555 1_555
Ni1A O1 1_555 1_555
Ni2_2 N4 1_555 1_555
Ni2_3 O6 1_555 1_555
Ni2A N8 1_555 1_555
O1A Ni1 1_555 1_555
O6_2 Ni2 1_555 1_555
O7_2 Ni2 1_555 1_555
N4_2 Ni2 1_555 1_555
N8A Ni2 1_555 1_555
O7 Ni2_3 1_555 1_555
N2 C7 1_555 1_555
N4 C20 1_555 1_555
N6 C28 1_555 1_555
C1 C2 1_555 1_555
C5 C6 1_555 1_555
C18 C19 1_555 1_555
C22 C27 1_555 1_555
C26 C27 1_555 1_555
C35 C36 1_555 1_555
C37 C42 1_555 1_555
C41 C42 1_555 1_555
C48 C49 1_555 1_555
C58 C59 1_555 1_555
C58 C60 1_555 1_555
C63 C64 1_555 1_555

#END
