
#######################################################################
#
#                 Cambridge Crystallographic Data Centre
#                                CCDC 
#
#######################################################################
#
# If this CIF has been generated from an entry in the Cambridge 
# Structural Database, then it will include bibliographic, chemical, 
# crystal, experimental, refinement or atomic coordinate data resulting 
# from the CCDC's data processing and validation procedures.
#
#######################################################################

data_SUTPEC02
_symmetry_cell_setting           monoclinic
_symmetry_space_group_name_H-M   'P 21/c'
_symmetry_Int_Tables_number      14
_space_group_name_Hall           '-P 2ybc'
loop_
_symmetry_equiv_pos_site_id
_symmetry_equiv_pos_as_xyz
1 x,y,z
2 x,1/2-y,1/2+z
3 -x,-y,-z
4 -x,1/2+y,1/2-z
_cell_length_a                   8.2750(3)
_cell_length_b                   11.5104(3)
_cell_length_c                   16.9113(6)
_cell_angle_alpha                90
_cell_angle_beta                 95.2727(16)
_cell_angle_gamma                90
_cell_volume                     1603.96
loop_
_atom_site_label
_atom_site_type_symbol
_atom_site_fract_x
_atom_site_fract_y
_atom_site_fract_z
Mn1 Mn 0.19759(3) 0.22371(2) 0.158274(15)
O1 O -0.03875(18) 0.14338(12) 0.18244(8)
H1 H 0.002(3) 0.101(2) 0.2157(15)
H2 H -0.128(4) 0.166(2) 0.1963(15)
O2 O 0.1052(2) 0.39338(12) 0.17799(11)
H3 H 0.187(3) 0.441(2) 0.1732(16)
H4 H 0.011(3) 0.428(2) 0.1859(15)
O4 O 0.42172(15) 0.31108(10) 0.13545(7)
O5 O 0.37940(16) 0.49972(11) 0.15569(9)
O6 O 0.70362(15) 0.67744(10) 0.22373(7)
O7 O 0.85510(15) 0.51946(10) 0.21352(8)
C1 C 0.4599(2) 0.41762(14) 0.13094(10)
C2 C 0.6125(2) 0.44395(15) 0.09131(10)
H7 H 0.5923 0.4281 0.0349
H8 H 0.6980 0.3921 0.1126
C3 C 0.6714(2) 0.56932(15) 0.10236(10)
H9 H 0.7497 0.5859 0.0646
H10 H 0.5802 0.6217 0.0915
C4 C 0.7486(2) 0.59079(14) 0.18561(10)
N1 N 0.09542(18) 0.21994(12) 0.02961(9)
C5 C -0.0077(2) 0.30016(16) -0.00333(12)
H11 H -0.0337 0.3631 0.0275
C6 C -0.0769(2) 0.29406(17) -0.08026(12)
H12 H -0.1493 0.3508 -0.1005
C7 C -0.0369(2) 0.20204(17) -0.12678(12)
H13 H -0.0807 0.1961 -0.1793
C8 C 0.0701(2) 0.11838(17) -0.09401(11)
H14 H 0.0996 0.0560 -0.1245
C9 C 0.1328(2) 0.12879(14) -0.01509(10)
N2 N 0.29046(17) 0.05915(12) 0.10239(8)
C10 C 0.2425(2) 0.03936(14) 0.02484(10)
C11 C 0.2940(2) -0.05800(15) -0.01439(11)
H15 H 0.2583 -0.0708 -0.0674
C12 C 0.3988(2) -0.13564(15) 0.02599(11)
H16 H 0.4354 -0.2006 0.0002
C13 C 0.4489(2) -0.11604(15) 0.10514(11)
H17 H 0.5192 -0.1672 0.1336
C14 C 0.3914(2) -0.01837(15) 0.14068(11)
H18 H 0.4241 -0.0054 0.1940
O6C O 0.29638(15) 0.17744(10) 0.27627(7)
Mn1C Mn 0.80241(3) 0.72371(2) 0.341726(15)
O3 O -0.33194(18) 0.19223(14) 0.23451(10)
H5 H -0.406(3) 0.225(2) 0.2080(15)
H6 H -0.374(3) 0.149(2) 0.2652(16)
loop_
_geom_bond_atom_site_label_1
_geom_bond_atom_site_label_2
_geom_bond_site_symmetry_1
_geom_bond_site_symmetry_2
Mn1 O1 1_555 1_555
O1 H1 1_555 1_555
H2 O1 1_555 1_555
O2 Mn1 1_555 1_555
H3 O2 1_555 1_555
H4 O2 1_555 1_555
O3 H5 1_555 1_555
H6 O3 1_555 1_555
O4 Mn1 1_555 1_555
O5 C1 1_555 1_555
O6 C4 1_555 1_555
O7 C4 1_555 1_555
C1 O4 1_555 1_555
C2 C1 1_555 1_555
H7 C2 1_555 1_555
H8 C2 1_555 1_555
C3 C2 1_555 1_555
H9 C3 1_555 1_555
H10 C3 1_555 1_555
C4 C3 1_555 1_555
N1 Mn1 1_555 1_555
C5 N1 1_555 1_555
H11 C5 1_555 1_555
C6 C5 1_555 1_555
H12 C6 1_555 1_555
C7 C6 1_555 1_555
H13 C7 1_555 1_555
C8 C7 1_555 1_555
H14 C8 1_555 1_555
C9 N1 1_555 1_555
N2 Mn1 1_555 1_555
C10 C9 1_555 1_555
C11 C10 1_555 1_555
H15 C11 1_555 1_555
C12 C11 1_555 1_555
H16 C12 1_555 1_555
C13 C12 1_555 1_555
H17 C13 1_555 1_555
C14 N2 1_555 1_555
H18 C14 1_555 1_555
O6C Mn1 1_555 1_555
Mn1C O6 1_555 1_555
C8 C9 1_555 1_555
N2 C10 1_555 1_555
C13 C14 1_555 1_555

#END
