
#######################################################################
#
#                 Cambridge Crystallographic Data Centre
#                                CCDC 
#
#######################################################################
#
# If this CIF has been generated from an entry in the Cambridge 
# Structural Database, then it will include bibliographic, chemical, 
# crystal, experimental, refinement or atomic coordinate data resulting 
# from the CCDC's data processing and validation procedures.
#
#######################################################################

data_SUTPEC01
_symmetry_cell_setting           monoclinic
_symmetry_space_group_name_H-M   'P 21/c'
_symmetry_Int_Tables_number      14
_space_group_name_Hall           '-P 2ybc'
loop_
_symmetry_equiv_pos_site_id
_symmetry_equiv_pos_as_xyz
1 x,y,z
2 x,1/2-y,1/2+z
3 -x,-y,-z
4 -x,1/2+y,1/2-z
_cell_length_a                   8.2940(10)
_cell_length_b                   11.5560(10)
_cell_length_c                   17.0640(10)
_cell_angle_alpha                90
_cell_angle_beta                 95.181(6)
_cell_angle_gamma                90
_cell_volume                     1628.82
loop_
_atom_site_label
_atom_site_type_symbol
_atom_site_fract_x
_atom_site_fract_y
_atom_site_fract_z
Mn1 Mn 0.30051(4) 0.21963(3) 0.839255(19)
N1 N 0.4020(2) 0.22087(17) 0.96722(11)
N2 N 0.2113(2) 0.05692(16) 0.89744(11)
O1 O 0.07881(19) 0.30738(14) 0.86245(11)
O2 O 0.1253(2) 0.49383(16) 0.84456(16)
O3 O -0.20105(19) 0.67082(14) 0.77655(9)
O4 O -0.3545(2) 0.51682(16) 0.78916(12)
O5 O 0.3918(2) 0.38737(16) 0.81403(16)
O6 O 0.5360(2) 0.13796(16) 0.81591(10)
C1 C 0.5031(3) 0.3027(2) 0.99843(16)
H1 H 0.5294 0.3642 0.9669
C2 C 0.5698(3) 0.2992(3) 1.07554(18)
H2 H 0.6406 0.3566 1.0954
C3 C 0.5293(4) 0.2092(3) 1.12206(17)
H3 H 0.5711 0.2054 1.1744
C4 C 0.4268(4) 0.1245(3) 1.09089(16)
H4 H 0.3983 0.0630 1.1220
C5 C 0.3658(3) 0.1316(2) 1.01242(13)
C6 C 0.2584(3) 0.0408(2) 0.97443(13)
C7 C 0.2083(3) -0.0552(2) 1.01433(15)
H5 H 0.2440 -0.0661 1.0671
C8 C 0.1056(3) -0.1345(2) 0.97583(17)
H6 H 0.0695 -0.1984 1.0024
C9 C 0.0570(3) -0.1178(2) 0.89737(17)
H7 H -0.0117 -0.1702 0.8698
C10 C 0.1129(3) -0.0213(2) 0.86064(15)
H8 H 0.0804 -0.0102 0.8076
C11 C 0.0442(3) 0.41299(19) 0.86817(14)
C12 C -0.1071(3) 0.4406(2) 0.90771(14)
H9 H -0.0864 0.4253 0.9636
H10 H -0.1929 0.3889 0.8871
C13 C -0.1659(3) 0.5650(2) 0.89671(14)
H11 H -0.2422 0.5819 0.9350
H12 H -0.0746 0.6171 0.9064
C14 C -0.2462(3) 0.58623(19) 0.81495(14)
H13 H 0.3196 0.4262 0.8117
H14 H 0.4935 0.0910 0.7837
H17 H 0.4842 0.4188 0.8109
H18 H 0.6223 0.1614 0.8037
O3C O 0.20105(19) 0.17082(14) 0.72345(9)
Mn1C Mn -0.30051(4) 0.71963(3) 0.660745(19)
O7 O 0.8301(2) 0.1857(2) 0.76635(15)
H15 H 0.9026 0.2207 0.7869
H16 H 0.8614 0.1472 0.7343
loop_
_geom_bond_atom_site_label_1
_geom_bond_atom_site_label_2
_geom_bond_site_symmetry_1
_geom_bond_site_symmetry_2
Mn1 N1 1_555 1_555
N1 C1 1_555 1_555
N2 Mn1 1_555 1_555
O1 Mn1 1_555 1_555
O2 C11 1_555 1_555
O3 C14 1_555 1_555
O4 C14 1_555 1_555
O5 Mn1 1_555 1_555
O6 Mn1 1_555 1_555
O7 H15 1_555 1_555
C1 H1 1_555 1_555
C2 C1 1_555 1_555
H2 C2 1_555 1_555
C3 C2 1_555 1_555
H3 C3 1_555 1_555
C4 C3 1_555 1_555
H4 C4 1_555 1_555
C5 N1 1_555 1_555
C6 N2 1_555 1_555
C7 C6 1_555 1_555
H5 C7 1_555 1_555
C8 C7 1_555 1_555
H6 C8 1_555 1_555
C9 C8 1_555 1_555
H7 C9 1_555 1_555
C10 N2 1_555 1_555
H8 C10 1_555 1_555
C11 O1 1_555 1_555
C12 C11 1_555 1_555
H9 C12 1_555 1_555
H10 C12 1_555 1_555
C13 C12 1_555 1_555
H11 C13 1_555 1_555
H12 C13 1_555 1_555
C14 C13 1_555 1_555
H13 O5 1_555 1_555
H14 O6 1_555 1_555
H16 O7 1_555 1_555
H17 O5 1_555 1_555
H18 O6 1_555 1_555
O3C Mn1 1_555 1_555
Mn1C O3 1_555 1_555
C4 C5 1_555 1_555
C5 C6 1_555 1_555
C9 C10 1_555 1_555

#END
