
#######################################################################
#
#                 Cambridge Crystallographic Data Centre
#                                CCDC 
#
#######################################################################
#
# If this CIF has been generated from an entry in the Cambridge 
# Structural Database, then it will include bibliographic, chemical, 
# crystal, experimental, refinement or atomic coordinate data resulting 
# from the CCDC's data processing and validation procedures.
#
#######################################################################

data_SUTTEH
_symmetry_cell_setting           triclinic
_symmetry_space_group_name_H-M   'P -1'
_symmetry_Int_Tables_number      2
_space_group_name_Hall           '-P 1'
loop_
_symmetry_equiv_pos_site_id
_symmetry_equiv_pos_as_xyz
1 x,y,z
2 -x,-y,-z
_cell_length_a                   8.2413(13)
_cell_length_b                   9.3611(14)
_cell_length_c                   10.9645(16)
_cell_angle_alpha                92.529(3)
_cell_angle_beta                 97.745(3)
_cell_angle_gamma                102.845(3)
_cell_volume                     814.787
loop_
_atom_site_label
_atom_site_type_symbol
_atom_site_fract_x
_atom_site_fract_y
_atom_site_fract_z
C1 C -0.2613(5) -0.4209(5) -0.0947(5)
C2 C 0.1470(5) -0.2294(5) 0.0385(5)
C3 C 0.2240(5) -0.3683(5) -0.3209(4)
H1 H 0.2419 -0.2879 -0.2638
C4 C 0.2679(5) -0.4611(5) -0.5047(4)
H2 H 0.3147 -0.4499 -0.5773
C5 C 0.1103(5) -0.6096(5) -0.3740(4)
H3 H 0.0475 -0.7002 -0.3573
C6 C 0.1764(6) -0.5968(5) -0.4831(5)
H4 H 0.1597 -0.6772 -0.5400
C7 C 0.2184(5) 0.0280(5) -0.6143(4)
C8 C 0.4421(5) 0.1239(5) -0.3056(4)
C9 C 0.0512(5) 0.0430(5) -0.6809(5)
H5 H 0.0014 -0.0431 -0.7356
H6 H 0.0680 0.1280 -0.7277
H7 H -0.0221 0.0537 -0.6218
C10 C 0.4109(6) 0.2047(6) -0.1912(4)
H8 H 0.3285 0.2605 -0.2141
H9 H 0.5140 0.2697 -0.1528
H10 H 0.3704 0.1349 -0.1344
C11 C -0.4124(6) -0.3687(6) -0.1485(5)
H11 H -0.4026 -0.2694 -0.1168
H12 H -0.4198 -0.3725 -0.2368
H13 H -0.5119 -0.4306 -0.1265
C12 C 0.2303(7) -0.0681(5) 0.0524(5)
H14 H 0.2827 -0.0407 0.1363
H15 H 0.3140 -0.0484 -0.0015
H16 H 0.1474 -0.0122 0.0311
Cu1 Cu 0.42640(6) -0.12589(5) -0.46407(5)
Cu2 Cu 0.04544(6) -0.50792(6) -0.10925(5)
N1 N 0.1346(4) -0.4940(4) -0.2917(3)
N2 N 0.2910(4) -0.3454(4) -0.4241(3)
O1 O -0.2396(4) -0.4328(4) 0.0195(3)
O2 O 0.0756(4) -0.2830(4) 0.1252(3)
O3 O -0.1644(4) -0.4486(4) -0.1674(3)
O4 O 0.1538(4) -0.2990(4) -0.0600(3)
O5 O 0.3461(3) 0.1280(3) -0.6197(3)
O6 O 0.5148(4) 0.2022(3) -0.3814(3)
O7 O 0.2184(3) -0.0844(3) -0.5569(3)
O8 O 0.3926(4) -0.0129(3) -0.3176(3)
Cu1A Cu 0.57360(6) 0.12589(5) -0.53593(5)
Cu2A Cu -0.04544(6) -0.49208(6) 0.10925(5)
O1A O 0.2396(4) -0.5672(4) -0.0195(3)
O2A O -0.0756(4) -0.7170(4) -0.1252(3)
O5A O 0.6539(3) -0.1280(3) -0.3803(3)
O6A O 0.4852(4) -0.2022(3) -0.6186(3)
loop_
_geom_bond_atom_site_label_1
_geom_bond_atom_site_label_2
_geom_bond_site_symmetry_1
_geom_bond_site_symmetry_2
C1 C11 1_555 1_555
C2 C12 1_555 1_555
C3 H1 1_555 1_555
C4 H2 1_555 1_555
C5 H3 1_555 1_555
C6 C4 1_555 1_555
H4 C6 1_555 1_555
C7 C9 1_555 1_555
C8 C10 1_555 1_555
C9 H5 1_555 1_555
H6 C9 1_555 1_555
H7 C9 1_555 1_555
C10 H8 1_555 1_555
H9 C10 1_555 1_555
H10 C10 1_555 1_555
C11 H11 1_555 1_555
H12 C11 1_555 1_555
H13 C11 1_555 1_555
C12 H14 1_555 1_555
H15 C12 1_555 1_555
H16 C12 1_555 1_555
Cu1 N2 1_555 1_555
Cu2 N1 1_555 1_555
N1 C3 1_555 1_555
N2 C3 1_555 1_555
O1 C1 1_555 1_555
O2 C2 1_555 1_555
O3 C1 1_555 1_555
O4 C2 1_555 1_555
O5 C7 1_555 1_555
O6 C8 1_555 1_555
O7 C7 1_555 1_555
O8 C8 1_555 1_555
Cu1A O5 1_555 1_555
Cu2A O1 1_555 1_555
O1A Cu2 1_555 1_555
O2A Cu2 1_555 1_555
O5A Cu1 1_555 1_555
O6A Cu1 1_555 1_555
C4 N2 1_555 1_555
C5 C6 1_555 1_555
C5 N1 1_555 1_555
Cu1 O7 1_555 1_555
Cu1 O8 1_555 1_555
Cu2 O3 1_555 1_555
Cu2 O4 1_555 1_555
O2 Cu2A 1_555 1_555
O6 Cu1A 1_555 1_555

#END
