
#######################################################################
#
#                 Cambridge Crystallographic Data Centre
#                                CCDC 
#
#######################################################################
#
# If this CIF has been generated from an entry in the Cambridge 
# Structural Database, then it will include bibliographic, chemical, 
# crystal, experimental, refinement or atomic coordinate data resulting 
# from the CCDC's data processing and validation procedures.
#
#######################################################################

data_SUTWOT
_symmetry_cell_setting           monoclinic
_symmetry_space_group_name_H-M   'C 2/c'
_symmetry_Int_Tables_number      15
_space_group_name_Hall           '-C 2yn'
loop_
_symmetry_equiv_pos_site_id
_symmetry_equiv_pos_as_xyz
1 x,y,z
2 -x,y,1/2-z
3 1/2+x,1/2+y,z
4 1/2-x,1/2+y,1/2-z
5 -x,-y,-z
6 x,-y,1/2+z
7 1/2-x,1/2-y,-z
8 1/2+x,1/2-y,1/2+z
_cell_length_a                   13.69(2)
_cell_length_b                   13.669(3)
_cell_length_c                   20.864(5)
_cell_angle_alpha                90
_cell_angle_beta                 96.184(4)
_cell_angle_gamma                90
_cell_volume                     3881.53
loop_
_atom_site_label
_atom_site_type_symbol
_atom_site_fract_x
_atom_site_fract_y
_atom_site_fract_z
Mn1 Mn 0.2500 0.2500 0.5000
F1 F 0.5856(4) 0.2808(5) 0.4666(3)
F2 F 0.5248(4) 0.2954(5) 0.3701(3)
F3 F 0.5922(4) 0.1640(5) 0.4008(3)
F5 F 0.273(2) -0.091(2) 0.478(1)
F6 F 0.213(2) -0.063(2) 0.399(2)
F7 F 0.387(2) -0.098(2) 0.424(2)
O1 O 0.3860(3) 0.2688(4) 0.4574(2)
O2 O 0.2478(4) 0.1065(4) 0.4556(2)
N1 N 0.3341(4) 0.1858(4) 0.5877(2)
N2 N 0.5000 -0.0437(8) 0.7500
N3 N 0.5000 -0.1254(9) 0.7500
C1 C 0.4102(5) 0.2309(5) 0.6207(3)
C2 C 0.4648(5) 0.1909(5) 0.6737(3)
C3 C 0.4407(4) 0.0984(5) 0.6956(3)
C4 C 0.3617(5) 0.0508(5) 0.6620(3)
C5 C 0.3111(5) 0.0964(6) 0.6088(3)
C6 C 0.5000 0.0500(7) 0.7500
C7 C 0.5359(7) 0.2342(8) 0.4195(4)
C8 C 0.4353(5) 0.2013(6) 0.4366(3)
C9 C 0.4115(6) 0.1028(6) 0.4259(4)
C10 C 0.3195(7) 0.0648(6) 0.4367(3)
C11 C 0.302(1) -0.0445(10) 0.4203(9)
H1 H 0.4262 0.2942 0.6065
H2 H 0.5186 0.2252 0.6946
H3 H 0.3430 -0.0135 0.6724
H4 H 0.2594 0.0621 0.5864
H5 H 0.4571 0.0624 0.4104
O1F O 0.1140(3) 0.2312(4) 0.5426(2)
C8F C 0.0647(5) 0.2987(6) 0.5634(3)
C7F C -0.0359(7) 0.2658(8) 0.5805(4)
F1F F -0.0856(4) 0.2192(5) 0.5334(3)
F2F F -0.0248(4) 0.2046(5) 0.6299(3)
F3F F -0.0922(4) 0.3360(5) 0.5992(3)
C9F C 0.0885(6) 0.3972(6) 0.5741(4)
C10F C 0.1805(7) 0.4352(6) 0.5633(3)
O2F O 0.2522(4) 0.3935(4) 0.5444(2)
C3A C 0.5593(4) 0.0984(5) 0.8044(3)
C2A C 0.5352(5) 0.1909(5) 0.8263(3)
C1A C 0.5898(5) 0.2309(5) 0.8793(3)
N1A N 0.6659(4) 0.1858(4) 0.9123(2)
Mn1A Mn 0.7500 0.2500 1.0000
C5A C 0.6889(5) 0.0964(6) 0.8912(3)
C4A C 0.6383(5) 0.0508(5) 0.8380(3)
H3A H 0.6570 -0.0135 0.8276
H4A H 0.7406 0.0621 0.9136
H1A H 0.5738 0.2942 0.8935
H2A H 0.4814 0.2252 0.8054
N1F N 0.1659(4) 0.3142(4) 0.4123(2)
C11F C 0.198(1) 0.5445(10) 0.5797(9)
F5F F 0.227(2) 0.591(2) 0.522(1)
F6F F 0.287(2) 0.563(2) 0.601(2)
F7F F 0.113(2) 0.598(2) 0.576(2)
H5F H 0.0429 0.4376 0.5896
C12 C 0.866(2) 0.100(2) 0.366(1)
C13 C 0.811(1) 0.170(1) 0.352(1)
C15 C 0.811(2) 0.112(3) 0.242(1)
C19 C 0.722(2) 0.253(2) 0.257(1)
C20 C 0.778(1) 0.184(2) 0.288(2)
C21 C 0.851(2) 0.051(2) 0.250(1)
C22 C 0.893(2) 0.049(2) 0.326(2)
F4? F 0.333(7) -0.092(3) 0.455(2)
F8? F 0.342(2) -0.068(2) 0.365(2)
F9? F 0.249(5) -0.060(2) 0.375(2)
C14? C 0.775(1) 0.200(1) 0.322(1)
C16? C 0.878(2) 0.043(2) 0.281(2)
C17? C 0.911(3) 0.012(3) 0.313(2)
C18? C 0.942(1) 0.035(1) 0.4265(8)
C23? C 0.831(2) 0.152(2) 0.3792(9)
C24? C 0.897(2) 0.066(2) 0.373(1)
C25? C 0.784(1) 0.161(2) 0.253(1)
loop_
_geom_bond_atom_site_label_1
_geom_bond_atom_site_label_2
_geom_bond_site_symmetry_1
_geom_bond_site_symmetry_2
Mn1 O1 1_555 1_555
F1 C7 1_555 1_555
F2 C7 1_555 1_555
F3 C7 1_555 1_555
F5 C11 1_555 1_555
F6 C11 1_555 1_555
F7 C11 1_555 1_555
O1 C8 1_555 1_555
O2 Mn1 1_555 1_555
N1 Mn1 1_555 1_555
N2 N3 1_555 1_555
C1 N1 1_555 1_555
C2 C1 1_555 1_555
C3 C2 1_555 1_555
C4 C3 1_555 1_555
C5 N1 1_555 1_555
C6 N2 1_555 1_555
C7 C8 1_555 1_555
C8 C9 1_555 1_555
C9 C10 1_555 1_555
C10 O2 1_555 1_555
C11 C10 1_555 1_555
C12 C13 1_555 1_555
C13 C20 1_555 1_555
C15 C20 1_555 1_555
C19 C20 1_555 1_555
C21 C15 1_555 1_555
C22 C12 1_555 1_555
H1 C1 1_555 1_555
H2 C2 1_555 1_555
H3 C4 1_555 1_555
H4 C5 1_555 1_555
H5 C9 1_555 1_555
O1F Mn1 1_555 1_555
C8F O1F 1_555 1_555
C7F C8F 1_555 1_555
F1F C7F 1_555 1_555
F2F C7F 1_555 1_555
F3F C7F 1_555 1_555
C9F C8F 1_555 1_555
C10F C9F 1_555 1_555
O2F Mn1 1_555 1_555
C3A C6 1_555 1_555
C2A C3A 1_555 1_555
C1A C2A 1_555 1_555
N1A C1A 1_555 1_555
Mn1A N1A 1_555 1_555
C5A N1A 1_555 1_555
C4A C3A 1_555 1_555
H3A C4A 1_555 1_555
H4A C5A 1_555 1_555
H1A C1A 1_555 1_555
H2A C2A 1_555 1_555
N1F Mn1 1_555 1_555
C11F C10F 1_555 1_555
F5F C11F 1_555 1_555
F6F C11F 1_555 1_555
F7F C11F 1_555 1_555
H5F C9F 1_555 1_555
C3 C6 1_555 1_555
C4 C5 1_555 1_555
C21 C22 1_555 1_555
C10F O2F 1_555 1_555
C5A C4A 1_555 1_555

#END
