
#######################################################################
#
#                 Cambridge Crystallographic Data Centre
#                                CCDC 
#
#######################################################################
#
# If this CIF has been generated from an entry in the Cambridge 
# Structural Database, then it will include bibliographic, chemical, 
# crystal, experimental, refinement or atomic coordinate data resulting 
# from the CCDC's data processing and validation procedures.
#
#######################################################################

data_SUTWUZ
_symmetry_cell_setting           orthorhombic
_symmetry_space_group_name_H-M   'P b c a'
_symmetry_Int_Tables_number      61
_space_group_name_Hall           '-P 2ac 2ab'
loop_
_symmetry_equiv_pos_site_id
_symmetry_equiv_pos_as_xyz
1 x,y,z
2 1/2-x,-y,1/2+z
3 1/2+x,1/2-y,-z
4 -x,1/2+y,1/2-z
5 -x,-y,-z
6 1/2+x,y,1/2-z
7 1/2-x,1/2+y,z
8 x,1/2-y,1/2+z
_cell_length_a                   21.792(2)
_cell_length_b                   18.511(5)
_cell_length_c                   13.358(4)
_cell_angle_alpha                90
_cell_angle_beta                 90
_cell_angle_gamma                90
_cell_volume                     5388.51
loop_
_atom_site_label
_atom_site_type_symbol
_atom_site_fract_x
_atom_site_fract_y
_atom_site_fract_z
Mn1 Mn -0.25234(7) -0.23702(5) -0.36435(9)
F1 F -0.3388(4) -0.0096(4) -0.4720(6)
F2 F -0.3741(4) -0.0823(4) -0.5732(5)
F3 F -0.4283(4) -0.0364(5) -0.4570(7)
F4 F -0.4619(3) -0.1685(3) -0.1594(5)
F5 F -0.4021(3) -0.2478(3) -0.1049(4)
F6 F -0.4588(3) -0.2758(4) -0.2236(5)
F7 F -0.1449(7) -0.0115(4) -0.2530(7)
F8 F -0.1411(3) -0.0876(4) -0.1400(5)
F9 F -0.0653(4) -0.0716(6) -0.2256(7)
F10 F -0.0387(2) -0.1638(3) -0.5567(4)
F11 F -0.0437(2) -0.2725(3) -0.5033(4)
F12 F -0.1033(2) -0.2372(3) -0.6240(4)
O1 O -0.3042(3) -0.1510(3) -0.4346(5)
O2 O -0.3283(2) -0.2366(3) -0.2611(4)
O3 O -0.1996(3) -0.1550(3) -0.2854(5)
O4 O -0.1758(2) -0.2313(3) -0.4668(4)
N1 N -0.2936(3) -0.3252(4) -0.4575(6)
N2 N -0.2920(3) -0.6747(4) -0.7745(6)
N3 N -0.4372(3) -0.5010(4) -0.6169(6)
N4 N -0.4890(3) -0.5018(4) -0.6130(7)
C1 C -0.3495(4) -0.3551(6) -0.4271(8)
C2 C -0.3732(4) -0.4120(5) -0.4757(7)
C3 C -0.3474(4) -0.4415(5) -0.5601(7)
C4 C -0.2926(4) -0.4097(4) -0.5939(7)
C5 C -0.2688(3) -0.3522(4) -0.5400(7)
C6 C -0.3769(3) -0.5008(4) -0.6144(7)
C7 C -0.3419(5) -0.6450(5) -0.8042(7)
C8 C -0.3755(5) -0.5881(5) -0.7577(8)
C9 C -0.3464(4) -0.5578(4) -0.6729(7)
C10 C -0.2903(4) -0.5853(4) -0.6429(7)
C11 C -0.2647(4) -0.6434(5) -0.6934(7)
C12 C -0.3786(7) -0.0652(8) -0.479(1)
C13 C -0.3567(5) -0.1260(5) -0.4122(8)
C14 C -0.3919(5) -0.1469(5) -0.3321(8)
C15 C -0.3774(5) -0.2003(4) -0.2657(7)
C16 C -0.4258(4) -0.2236(6) -0.1885(8)
C17 C -0.1277(7) -0.0712(8) -0.231(1)
C18 C -0.1504(4) -0.1300(5) -0.3075(8)
C19 C -0.1102(4) -0.1458(5) -0.3885(7)
C20 C -0.1259(4) -0.1966(4) -0.4599(6)
C21 C -0.0789(4) -0.2170(5) -0.5372(8)
H1 H -0.3709 -0.3349 -0.3716
H2 H -0.4097 -0.4331 -0.4502
H3 H -0.2724 -0.4271 -0.6522
H4 H -0.2321 -0.3306 -0.5640
H5 H -0.3586 -0.6631 -0.8650
H6 H -0.4142 -0.5719 -0.7816
H7 H -0.2693 -0.5644 -0.5876
H8 H -0.2266 -0.6622 -0.6705
H9 H -0.4296 -0.1221 -0.3223
H10 H -0.0720 -0.1212 -0.3934
N2A N -0.2080(3) -0.3253(4) -0.2745(6)
Mn1A Mn -0.24766(7) -0.76298(5) -0.86435(9)
loop_
_geom_bond_atom_site_label_1
_geom_bond_atom_site_label_2
_geom_bond_site_symmetry_1
_geom_bond_site_symmetry_2
Mn1 O1 1_555 1_555
F1 C12 1_555 1_555
F2 C12 1_555 1_555
F3 C12 1_555 1_555
F4 C16 1_555 1_555
F5 C16 1_555 1_555
F6 C16 1_555 1_555
F7 C17 1_555 1_555
F8 C17 1_555 1_555
F9 C17 1_555 1_555
F10 C21 1_555 1_555
F11 C21 1_555 1_555
F12 C21 1_555 1_555
O1 C13 1_555 1_555
O2 Mn1 1_555 1_555
O3 Mn1 1_555 1_555
O4 Mn1 1_555 1_555
N1 Mn1 1_555 1_555
N2 C7 1_555 1_555
N3 N4 1_555 1_555
C1 N1 1_555 1_555
C2 C1 1_555 1_555
C3 C2 1_555 1_555
C4 C3 1_555 1_555
C5 N1 1_555 1_555
C6 N3 1_555 1_555
C7 C8 1_555 1_555
C8 C9 1_555 1_555
C9 C6 1_555 1_555
C10 C9 1_555 1_555
C11 N2 1_555 1_555
C12 C13 1_555 1_555
C13 C14 1_555 1_555
C14 C15 1_555 1_555
C15 O2 1_555 1_555
C16 C15 1_555 1_555
C17 C18 1_555 1_555
C18 O3 1_555 1_555
C19 C18 1_555 1_555
C20 O4 1_555 1_555
C21 C20 1_555 1_555
H1 C1 1_555 1_555
H2 C2 1_555 1_555
H3 C4 1_555 1_555
H4 C5 1_555 1_555
H5 C7 1_555 1_555
H6 C8 1_555 1_555
H7 C10 1_555 1_555
H8 C11 1_555 1_555
H9 C14 1_555 1_555
H10 C19 1_555 1_555
N2A Mn1 1_555 1_555
Mn1A N2 1_555 1_555
C3 C6 1_555 1_555
C4 C5 1_555 1_555
C10 C11 1_555 1_555
C19 C20 1_555 1_555

#END
