
#######################################################################
#
#                 Cambridge Crystallographic Data Centre
#                                CCDC 
#
#######################################################################
#
# If this CIF has been generated from an entry in the Cambridge 
# Structural Database, then it will include bibliographic, chemical, 
# crystal, experimental, refinement or atomic coordinate data resulting 
# from the CCDC's data processing and validation procedures.
#
#######################################################################

data_SUVVIO
_symmetry_cell_setting           monoclinic
_symmetry_space_group_name_H-M   'C 2/c'
_symmetry_Int_Tables_number      15
_space_group_name_Hall           '-C 2yn'
loop_
_symmetry_equiv_pos_site_id
_symmetry_equiv_pos_as_xyz
1 x,y,z
2 1/2+x,1/2+y,z
3 -x,y,1/2-z
4 1/2-x,1/2+y,1/2-z
5 -x,-y,-z
6 1/2-x,1/2-y,-z
7 x,-y,1/2+z
8 1/2+x,1/2-y,1/2+z
_cell_length_a                   14.348(6)
_cell_length_b                   11.493(6)
_cell_length_c                   13.936(6)
_cell_angle_alpha                90
_cell_angle_beta                 95.43(4)
_cell_angle_gamma                90
_cell_volume                     2287.76
loop_
_atom_site_label
_atom_site_type_symbol
_atom_site_fract_x
_atom_site_fract_y
_atom_site_fract_z
Ni1 Ni 0.00000 0.22794(3) 0.25000
N1 N 0.00000 0.4198(2) 0.25000
N2 N 0.00000 1.0395(2) 0.25000
C1 C 0.0709(2) 0.4813(2) 0.2948(2)
H1 H 0.1216(2) 0.4388(2) 0.3254(2)
C2 C 0.0735(2) 0.6016(2) 0.2968(2)
H2 H 0.1230(2) 0.6368(2) 0.3337(2)
C3 C 0.00000 0.6650(2) 0.25000
C4 C 0.00000 0.7944(2) 0.25000
C5 C -0.0828(2) 0.8575(2) 0.2369(2)
H3 H -0.1415(2) 0.8175(2) 0.2332(2)
C6 C -0.0794(2) 0.9782(2) 0.2358(2)
H4 H 0.1353(2) 1.0211(2) 0.2715(2)
N3 N 0.13429(14) 0.2369(2) 0.19467(14)
H5 H 0.14477(14) 0.3157(2) 0.18393(14)
H6 H 0.17777(14) 0.2120(2) 0.24213(14)
N4 N -0.06264(14) 0.2286(2) 0.10513(13)
H7 H -0.12602(14) 0.2135(2) 0.10162(13)
H8 H -0.06062(14) 0.3058(2) 0.08172(13)
C7 C 0.1539(2) 0.1753(2) 0.1048(2)
H9 H 0.1431(2) 0.0905(2) 0.1173(2)
H10 H 0.2211(2) 0.1945(2) 0.0811(2)
C8 C 0.0814(2) 0.2036(3) 0.0214(2)
H11 H 0.1046(2) 0.1629(3) -0.0367(2)
H12 H 0.0848(2) 0.2866(3) 0.0068(2)
C9 C -0.0168(2) 0.1595(2) 0.0323(2)
H13 H -0.0159(2) 0.0745(2) 0.0557(2)
H14 H -0.0510(2) 0.1649(2) -0.0257(2)
C2B C -0.0735(2) 0.6016(2) 0.2032(2)
C1B C -0.0709(2) 0.4813(2) 0.2052(2)
H1B H -0.1216(2) 0.4388(2) 0.1746(2)
H2B H -0.1230(2) 0.6368(2) 0.1663(2)
N2_2 N 0.00000 0.0395(2) 0.25000
Ni1_2 Ni 0.00000 1.22794(3) 0.25000
C6B C 0.0794(2) 0.9782(2) 0.2642(2)
C5B C 0.0828(2) 0.8575(2) 0.2631(2)
H3B H 0.1415(2) 0.8175(2) 0.2668(2)
H4B H -0.1353(2) 1.0211(2) 0.2285(2)
N3B N -0.13429(14) 0.2369(2) 0.30533(14)
H5B H -0.14477(14) 0.3157(2) 0.31607(14)
H6B H -0.17777(14) 0.2120(2) 0.25787(14)
C7B C -0.1539(2) 0.1753(2) 0.3952(2)
H9B H -0.1431(2) 0.0905(2) 0.3827(2)
H10B H -0.2211(2) 0.1945(2) 0.4189(2)
C8B C -0.0814(2) 0.2036(3) 0.4786(2)
H11B H -0.1046(2) 0.1629(3) 0.5367(2)
H12B H -0.0848(2) 0.2866(3) 0.4932(2)
C9B C 0.0168(2) 0.1595(2) 0.4677(2)
N4B N 0.06264(14) 0.2286(2) 0.39487(13)
H7B H 0.12602(14) 0.2135(2) 0.39838(13)
H8B H 0.06062(14) 0.3058(2) 0.41828(13)
H13B H 0.0159(2) 0.0745(2) 0.4443(2)
H14B H 0.0510(2) 0.1649(2) 0.5257(2)
Cl1 Cl 0.30158(4) -0.05766(5) -0.06716(4)
O1 O 0.2729(2) -0.1459(2) -0.1360(2)
O2 O 0.40058(15) -0.0623(2) -0.0436(2)
O3 O 0.2552(2) -0.0769(3) 0.0175(2)
O4 O 0.2762(2) 0.0530(2) -0.1075(2)
loop_
_geom_bond_atom_site_label_1
_geom_bond_atom_site_label_2
_geom_bond_site_symmetry_1
_geom_bond_site_symmetry_2
Ni1 N1 1_555 1_555
N1 C1 1_555 1_555
N2 C6 1_555 1_555
C1 H1 1_555 1_555
C2 C1 1_555 1_555
H2 C2 1_555 1_555
C3 C2 1_555 1_555
C4 C3 1_555 1_555
C5 C4 1_555 1_555
H3 C5 1_555 1_555
C6 C5 1_555 1_555
H4 C6B 1_555 1_555
N3 Ni1 1_555 1_555
H5 N3 1_555 1_555
H6 N3 1_555 1_555
N4 Ni1 1_555 1_555
H7 N4 1_555 1_555
H8 N4 1_555 1_555
C7 N3 1_555 1_555
H9 C7 1_555 1_555
H10 C7 1_555 1_555
C8 C7 1_555 1_555
H11 C8 1_555 1_555
H12 C8 1_555 1_555
C9 N4 1_555 1_555
H13 C9 1_555 1_555
H14 C9 1_555 1_555
Cl1 O1 1_555 1_555
O2 Cl1 1_555 1_555
O3 Cl1 1_555 1_555
O4 Cl1 1_555 1_555
C2B C3 1_555 1_555
C1B N1 1_555 1_555
H1B C1B 1_555 1_555
H2B C2B 1_555 1_555
N2_2 Ni1 1_555 1_555
Ni1_2 N2 1_555 1_555
C6B N2 1_555 1_555
C5B C4 1_555 1_555
H3B C5B 1_555 1_555
H4B C6 1_555 1_555
N3B Ni1 1_555 1_555
H5B N3B 1_555 1_555
H6B N3B 1_555 1_555
C7B N3B 1_555 1_555
H9B C7B 1_555 1_555
H10B C7B 1_555 1_555
C8B C7B 1_555 1_555
H11B C8B 1_555 1_555
H12B C8B 1_555 1_555
C9B C8B 1_555 1_555
N4B Ni1 1_555 1_555
H7B N4B 1_555 1_555
H8B N4B 1_555 1_555
H13B C9B 1_555 1_555
H14B C9B 1_555 1_555
C8 C9 1_555 1_555
C2B C1B 1_555 1_555
C6B C5B 1_555 1_555
C9B N4B 1_555 1_555

#END
