
#######################################################################
#
#                 Cambridge Crystallographic Data Centre
#                                CCDC 
#
#######################################################################
#
# If this CIF has been generated from an entry in the Cambridge 
# Structural Database, then it will include bibliographic, chemical, 
# crystal, experimental, refinement or atomic coordinate data resulting 
# from the CCDC's data processing and validation procedures.
#
#######################################################################

data_SUVYIS
_symmetry_cell_setting           orthorhombic
_symmetry_space_group_name_H-M   'A m a 2'
_symmetry_Int_Tables_number      40
_space_group_name_Hall           'A 2 -2a'
loop_
_symmetry_equiv_pos_site_id
_symmetry_equiv_pos_as_xyz
1 x,y,z
2 -x,-y,z
3 1/2-x,y,z
4 1/2+x,-y,z
5 x,1/2+y,1/2+z
6 -x,1/2-y,1/2+z
7 1/2-x,1/2+y,1/2+z
8 1/2+x,1/2-y,1/2+z
_cell_length_a                   26.990(3)
_cell_length_b                   33.060(3)
_cell_length_c                   6.925(1)
_cell_angle_alpha                90
_cell_angle_beta                 90
_cell_angle_gamma                90
_cell_volume                     6179.1
loop_
_atom_site_label
_atom_site_type_symbol
_atom_site_fract_x
_atom_site_fract_y
_atom_site_fract_z
Ce1 Ce -0.2500 -0.07948(8) 0.1582(5)
Ce2 Ce -0.38381(7) 0.00254(6) -0.3188(4)
Ce3 Ce -0.2500 0.10889(8) 0.0434(4)
Ag1 Ag -0.48558(12) -0.26293(9) -0.1525(8)
N1 N -0.4348(12) -0.2054(9) -0.208(5)
N2 N -0.5303(12) -0.2063(9) -0.116(5)
N3 N -0.4406(12) -0.3196(8) -0.110(5)
N4 N -0.5344(12) -0.3204(9) -0.211(5)
O1 O -0.3059(10) -0.1044(7) -0.074(4)
O2 O -0.3634(10) -0.0676(8) -0.243(4)
O3 O -0.3969(10) 0.0717(8) -0.202(4)
O4 O -0.3339(10) 0.1072(7) -0.065(4)
O5 O -0.3646(9) -0.4581(7) -0.132(4)
O6 O -0.3011(10) -0.4157(7) -0.183(5)
O7 O -0.6689(10) -0.4261(8) -0.215(4)
O8 O -0.6066(10) -0.4603(8) -0.078(4)
O9 O -0.2500 -0.0316(10) -0.133(6)
O10 O -0.2936(10) 0.0118(7) -0.286(4)
O11 O -0.2500 0.0410(10) -0.055(6)
O12 O -0.4672(10) -0.0228(8) -0.216(4)
O13 O -0.4683(10) 0.0183(8) -0.504(4)
O14 O -0.2500 0.1813(11) -0.059(6)
O15 O -0.2500 0.1709(11) 0.251(6)
O16 O -0.2023(11) 0.2255(8) 0.124(4)
O17 O -0.2500 -0.1437(11) 0.242(5)
H1 H -0.2500 -0.1687 0.2130
H2 H -0.2500 -0.1417 0.3645
O18 O -0.2500 -0.0943(12) 0.516(7)
H3 H -0.2759 -0.0859 0.5734
O19 O -0.2500 -0.0109(10) 0.320(6)
H4 H -0.2246 -0.0090 0.3920
O20 O -0.3800(11) 0.0020(8) 0.050(5)
H5 H -0.3985 -0.0153 0.1048
H6 H -0.3843 0.0253 0.0994
O21 O -0.2500 0.1047(10) -0.316(8)
H7 H -0.2758 0.0932 -0.3607
S1 S -0.2500 0.0076(4) -0.191(2)
S2 S -0.5000 0.0000 -0.313(3)
S3 S -0.2500 0.2026(4) 0.118(2)
C1 C -0.3839(15) -0.2069(11) -0.239(6)
H9 H -0.3685 -0.2316 -0.2609
C2 C -0.3562(15) -0.1715(11) -0.237(6)
H10 H -0.3222 -0.1725 -0.2580
C3 C -0.3793(15) -0.1345(11) -0.204(7)
C4 C -0.4302(14) -0.1330(11) -0.173(6)
H11 H -0.4456 -0.1083 -0.1514
C5 C -0.4579(15) -0.1684(11) -0.175(6)
C6 C -0.5111(14) -0.1685(10) -0.161(6)
C7 C -0.5420(14) -0.1349(10) -0.166(6)
H12 H -0.5291 -0.1096 -0.1963
C8 C -0.5921(14) -0.1391(10) -0.124(7)
C9 C -0.6114(16) -0.1769(11) -0.079(6)
H13 H -0.6449 -0.1797 -0.0508
C10 C -0.5804(15) -0.2105(11) -0.074(6)
H14 H -0.5933 -0.2358 -0.0436
C11 C -0.3440(15) -0.0990(11) -0.161(7)
C12 C -0.3776(14) 0.1045(11) -0.136(7)
C13 C -0.3896(15) -0.3152(11) -0.093(6)
H15 H -0.3760 -0.2898 -0.0705
C14 C -0.3589(15) -0.3488(10) -0.110(6)
H16 H -0.3248 -0.3459 -0.0984
C15 C -0.3793(14) -0.3868(10) -0.144(7)
C16 C -0.4303(14) -0.3911(11) -0.161(6)
H17 H -0.4440 -0.4165 -0.1837
C17 C -0.4610(14) -0.3575(11) -0.144(7)
C18 C -0.5132(14) -0.3577(11) -0.170(6)
C19 C -0.5429(14) -0.3919(10) -0.154(6)
H18 H -0.5286 -0.4169 -0.1264
C20 C -0.5938(14) -0.3888(10) -0.179(6)
C21 C -0.6151(15) -0.3514(10) -0.220(6)
H19 H -0.6492 -0.3494 -0.2368
C22 C -0.5854(15) -0.3173(11) -0.236(6)
H20 H -0.5996 -0.2923 -0.2634
C23 C -0.3428(15) -0.4213(11) -0.122(7)
C24 C -0.6262(14) -0.4280(11) -0.150(7)
Ce1E Ce -0.7500 -0.42052(8) -0.3418(5)
Ce1A Ce -0.7500 0.07948(8) 0.1582(5)
Ce1D Ce -0.2500 0.42052(8) -0.3418(5)
Ce2A Ce -0.61619(7) -0.00254(6) -0.3188(4)
Ce2E Ce -0.61619(7) -0.50254(6) 0.1812(4)
Ce2D Ce -0.38381(7) -0.49746(6) 0.1812(4)
Ce2E_2 Ce -0.61619(7) 0.49746(6) 0.1812(4)
Ce2D_2 Ce -0.38381(7) 0.50254(6) 0.1812(4)
Ce2B Ce -0.11619(7) 0.00254(6) -0.3188(4)
Ce3A Ce -0.7500 -0.10889(8) 0.0434(4)
Ce3D Ce -0.2500 -0.39111(8) -0.4566(4)
Ce3E Ce -0.7500 0.39111(8) -0.4566(4)
Ag1A Ag -0.51442(12) 0.26293(9) -0.1525(8)
N1A N -0.5652(12) 0.2054(9) -0.208(5)
N2A N -0.4697(12) 0.2063(9) -0.116(5)
N3A N -0.5594(12) 0.3196(8) -0.110(5)
N4A N -0.4656(12) 0.3204(9) -0.211(5)
O1B O -0.1941(10) -0.1044(7) -0.074(4)
O1A O -0.6941(10) 0.1044(7) -0.074(4)
O2A O -0.6366(10) 0.0676(8) -0.243(4)
O3A O -0.6031(10) -0.0717(8) -0.202(4)
O4B O -0.1661(10) 0.1072(7) -0.065(4)
O4A O -0.6661(10) -0.1072(7) -0.065(4)
O5D O -0.3646(9) 0.0419(7) -0.632(4)
O5A O -0.6354(9) 0.4581(7) -0.132(4)
O5E O -0.6354(9) -0.0419(7) -0.632(4)
O6F O -0.1989(10) 0.0843(7) 0.317(5)
O6D O -0.3011(10) 0.0843(7) 0.317(5)
O6A O -0.6989(10) 0.4157(7) -0.183(5)
O7G O -0.1689(10) -0.0739(8) 0.285(4)
O7E O -0.3311(10) -0.0739(8) 0.285(4)
O7A O -0.3311(10) 0.4261(8) -0.215(4)
O8E O -0.3934(10) -0.0397(8) -0.578(4)
O8A O -0.3934(10) 0.4603(8) -0.078(4)
O8D O -0.6066(10) 0.0397(8) -0.578(4)
O10B O -0.2064(10) 0.0118(7) -0.286(4)
O10A O -0.7064(10) -0.0118(7) -0.286(4)
O12A O -0.5328(10) 0.0228(8) -0.216(4)
O13A O -0.5317(10) -0.0183(8) -0.504(4)
O16B O -0.2977(11) 0.2255(8) 0.124(4)
H3B H -0.2241 -0.0859 0.5734
H4B H -0.2754 -0.0090 0.3920
O20A O -0.6200(11) -0.0020(8) 0.050(5)
H5A H -0.6015 0.0153 0.1048
H6A H -0.6157 -0.0253 0.0994
H7B H -0.2242 0.0932 -0.3607
C1A C -0.6161(15) 0.2069(11) -0.239(6)
H9A H -0.6315 0.2316 -0.2609
C2A C -0.6438(15) 0.1715(11) -0.237(6)
H10A H -0.6778 0.1725 -0.2580
C3A C -0.6207(15) 0.1345(11) -0.204(7)
C4A C -0.5698(14) 0.1330(11) -0.173(6)
H11A H -0.5544 0.1083 -0.1514
C5A C -0.5421(15) 0.1684(11) -0.175(6)
C6A C -0.4889(14) 0.1685(10) -0.161(6)
C7A C -0.4580(14) 0.1349(10) -0.166(6)
H12A H -0.4709 0.1096 -0.1963
C8A C -0.4079(14) 0.1391(10) -0.124(7)
C9A C -0.3886(16) 0.1769(11) -0.079(6)
H13A H -0.3551 0.1797 -0.0508
C10A C -0.4196(15) 0.2105(11) -0.074(6)
H14A H -0.4067 0.2358 -0.0436
C11A C -0.6560(15) 0.0990(11) -0.161(7)
C12A C -0.6224(14) -0.1045(11) -0.136(7)
C13A C -0.6104(15) 0.3152(11) -0.093(6)
H15A H -0.6240 0.2898 -0.0705
C14A C -0.6411(15) 0.3488(10) -0.110(6)
H16A H -0.6752 0.3459 -0.0984
C15A C -0.6207(14) 0.3868(10) -0.144(7)
C16A C -0.5697(14) 0.3911(11) -0.161(6)
H17A H -0.5560 0.4165 -0.1837
C17A C -0.5390(14) 0.3575(11) -0.144(7)
C18A C -0.4868(14) 0.3577(11) -0.170(6)
C19A C -0.4571(14) 0.3919(10) -0.154(6)
H18A H -0.4714 0.4169 -0.1264
C20A C -0.4062(14) 0.3888(10) -0.179(6)
C21A C -0.3849(15) 0.3514(10) -0.220(6)
H19A H -0.3508 0.3494 -0.2368
C22A C -0.4146(15) 0.3173(11) -0.236(6)
H20A H -0.4004 0.2923 -0.2634
C23A C -0.6572(15) 0.4213(11) -0.122(7)
C24A C -0.3738(14) 0.4280(11) -0.150(7)
O22 O -0.2500 -0.1958(14) -0.543(7)
H8 H -0.2246 -0.2099 -0.5154
H8B H -0.2754 -0.2099 -0.5154
loop_
_geom_bond_atom_site_label_1
_geom_bond_atom_site_label_2
_geom_bond_site_symmetry_1
_geom_bond_site_symmetry_2
Ce1 O1 1_555 1_555
Ce2 O2 1_555 1_555
Ce3 O4 1_555 1_555
Ag1 N1 1_555 1_555
N1 C1 1_555 1_555
N2 Ag1 1_555 1_555
N3 Ag1 1_555 1_555
N4 Ag1 1_555 1_555
O1 C11 1_555 1_555
O2 C11 1_555 1_555
O3 Ce2 1_555 1_555
O4 C12 1_555 1_555
O5 C23 1_555 1_555
O6 C23 1_555 1_555
O7 C24 1_555 1_555
O8 C24 1_555 1_555
O9 Ce1 1_555 1_555
O10 Ce2 1_555 1_555
O11 Ce3 1_555 1_555
O12 Ce2 1_555 1_555
O13 Ce2 1_555 1_555
O14 Ce3 1_555 1_555
O15 Ce3 1_555 1_555
O16 S3 1_555 1_555
O17 Ce1 1_555 1_555
H1 O17 1_555 1_555
H2 O17 1_555 1_555
O18 Ce1 1_555 1_555
H3 O18 1_555 1_555
O19 Ce1 1_555 1_555
H4 O19 1_555 1_555
O20 Ce2 1_555 1_555
H5 O20 1_555 1_555
H6 O20 1_555 1_555
O21 Ce3 1_555 1_555
H7 O21 1_555 1_555
O22 H8 1_555 1_555
S1 O9 1_555 1_555
S2 O12 1_555 1_555
S3 O14 1_555 1_555
C1 H9 1_555 1_555
C2 C1 1_555 1_555
H10 C2 1_555 1_555
C3 C2 1_555 1_555
C4 C3 1_555 1_555
H11 C4 1_555 1_555
C5 N1 1_555 1_555
C6 N2 1_555 1_555
C7 C6 1_555 1_555
H12 C7 1_555 1_555
C8 C7 1_555 1_555
C9 C8 1_555 1_555
H13 C9 1_555 1_555
C10 N2 1_555 1_555
H14 C10 1_555 1_555
C11 C3 1_555 1_555
C12 O3 1_555 1_555
C13 N3 1_555 1_555
H15 C13 1_555 1_555
C14 C13 1_555 1_555
H16 C14 1_555 1_555
C15 C14 1_555 1_555
C16 C15 1_555 1_555
H17 C16 1_555 1_555
C17 N3 1_555 1_555
C18 N4 1_555 1_555
C19 C18 1_555 1_555
H18 C19 1_555 1_555
C20 C19 1_555 1_555
C21 C20 1_555 1_555
H19 C21 1_555 1_555
C22 N4 1_555 1_555
H20 C22 1_555 1_555
C23 C15 1_555 1_555
C24 C20 1_555 1_555
Ce1E O7 1_555 1_555
Ce1A O1A 1_555 1_555
Ce1D O7A 1_555 1_555
Ce2A O2A 1_555 1_555
Ce2E O8 1_555 1_555
Ce2D O5 1_555 1_555
Ce2E_2 O5A 1_555 1_555
Ce2D_2 O8A 1_555 1_555
Ce2B O10B 1_555 1_555
Ce3A O4A 1_555 1_555
Ce3D O6 1_555 1_555
Ce3E O6A 1_555 1_555
Ag1A N1A 1_555 1_555
N1A C1A 1_555 1_555
N2A Ag1A 1_555 1_555
N3A Ag1A 1_555 1_555
N4A Ag1A 1_555 1_555
O1B Ce1 1_555 1_555
O1A C11A 1_555 1_555
O2A C11A 1_555 1_555
O3A Ce2A 1_555 1_555
O4B Ce3 1_555 1_555
O4A C12A 1_555 1_555
O5D Ce2 1_555 1_555
O5A C23A 1_555 1_555
O5E Ce2A 1_555 1_555
O6F Ce3 1_555 1_555
O6D Ce3 1_555 1_555
O6A C23A 1_555 1_555
O7G Ce1 1_555 1_555
O7E Ce1 1_555 1_555
O7A C24A 1_555 1_555
O8E Ce2 1_555 1_555
O8A C24A 1_555 1_555
O8D Ce2A 1_555 1_555
O10B S1 1_555 1_555
O10A Ce2A 1_555 1_555
O12A S2 1_555 1_555
O13A S2 1_555 1_555
O16B S3 1_555 1_555
H3B O18 1_555 1_555
H4B O19 1_555 1_555
O20A Ce2A 1_555 1_555
H5A O20A 1_555 1_555
H6A O20A 1_555 1_555
H7B O21 1_555 1_555
H8B O22 1_555 1_555
C1A H9A 1_555 1_555
C2A C1A 1_555 1_555
H10A C2A 1_555 1_555
C3A C2A 1_555 1_555
C4A C3A 1_555 1_555
H11A C4A 1_555 1_555
C5A N1A 1_555 1_555
C6A N2A 1_555 1_555
C7A C6A 1_555 1_555
H12A C7A 1_555 1_555
C8A C12 1_555 1_555
C9A C8A 1_555 1_555
H13A C9A 1_555 1_555
C10A N2A 1_555 1_555
H14A C10A 1_555 1_555
C11A C3A 1_555 1_555
C12A C8 1_555 1_555
C13A N3A 1_555 1_555
H15A C13A 1_555 1_555
C14A C13A 1_555 1_555
H16A C14A 1_555 1_555
C15A C14A 1_555 1_555
C16A C15A 1_555 1_555
H17A C16A 1_555 1_555
C17A N3A 1_555 1_555
C18A N4A 1_555 1_555
C19A C18A 1_555 1_555
H18A C19A 1_555 1_555
C20A C19A 1_555 1_555
C21A C20A 1_555 1_555
H19A C21A 1_555 1_555
C22A N4A 1_555 1_555
H20A C22A 1_555 1_555
C23A C15A 1_555 1_555
C24A C20A 1_555 1_555
O10 S1 1_555 1_555
O11 S1 1_555 1_555
O13 S2 1_555 1_555
O15 S3 1_555 1_555
C4 C5 1_555 1_555
C5 C6 1_555 1_555
C9 C10 1_555 1_555
C16 C17 1_555 1_555
C17 C18 1_555 1_555
C21 C22 1_555 1_555
Ce2A O12A 1_555 1_555
Ce2A O13A 1_555 1_555
O3A C12A 1_555 1_555
C4A C5A 1_555 1_555
C5A C6A 1_555 1_555
C7A C8A 1_555 1_555
C9A C10A 1_555 1_555
C16A C17A 1_555 1_555
C17A C18A 1_555 1_555
C21A C22A 1_555 1_555

#END
