
#######################################################################
#
#                 Cambridge Crystallographic Data Centre
#                                CCDC 
#
#######################################################################
#
# If this CIF has been generated from an entry in the Cambridge 
# Structural Database, then it will include bibliographic, chemical, 
# crystal, experimental, refinement or atomic coordinate data resulting 
# from the CCDC's data processing and validation procedures.
#
#######################################################################

data_SUYDEV
_symmetry_cell_setting           triclinic
_symmetry_space_group_name_H-M   'P -1'
_symmetry_Int_Tables_number      2
_space_group_name_Hall           '-P 1'
loop_
_symmetry_equiv_pos_site_id
_symmetry_equiv_pos_as_xyz
1 x,y,z
2 -x,-y,-z
_cell_length_a                   7.846(3)
_cell_length_b                   9.048(3)
_cell_length_c                   14.539(6)
_cell_angle_alpha                76.400(12)
_cell_angle_beta                 88.062(10)
_cell_angle_gamma                88.520(8)
_cell_volume                     1002.45
loop_
_atom_site_label
_atom_site_type_symbol
_atom_site_fract_x
_atom_site_fract_y
_atom_site_fract_z
Cu1 Cu 0.2145(1) 0.3799(1) 0.6178(1)
Cu2 Cu 0.4606(1) 0.8895(1) 0.5706(1)
Cu3 Cu -0.8109(1) -0.4039(1) 0.8076(1)
Cu4 Cu -0.5617(1) 0.0932(1) 0.7986(1)
N1 N 0.3146(9) 0.1937(8) 0.5939(5)
N2 N 0.3433(9) 0.7021(8) 0.5767(5)
N3 N -0.7116(9) -0.2185(8) 0.8253(5)
N4 N -0.6618(9) 0.2809(8) 0.8209(5)
N5 N -0.3276(9) 0.1696(7) 0.7445(5)
N6 N -0.0185(8) 0.2982(7) 0.6728(5)
N7 N 0.6759(8) 0.8063(7) 0.6464(5)
N8 N 0.9636(8) 0.6817(7) 0.7482(5)
C1 C 0.3735(11) 0.0844(9) 0.5780(6)
C2 C 0.2866(10) 0.5811(9) 0.5900(5)
C3 C -0.6508(10) -0.1037(9) 0.8207(6)
C4 C -0.7236(10) 0.3973(9) 0.8204(6)
C5 C -0.3188(12) 0.2917(9) 0.6725(6)
C6 C -0.1682(11) 0.3575(9) 0.6378(6)
C7 C -0.0266(11) 0.1726(9) 0.7431(6)
C8 C -0.1786(10) 0.1086(9) 0.7808(6)
C9 C -0.1851(11) -0.0242(9) 0.8639(6)
C10 C -0.2343(13) 0.0216(10) 0.9550(6)
C11 C 0.6670(11) 0.6835(9) 0.7189(6)
C12 C 0.8071(10) 0.6187(9) 0.7693(6)
C13 C 0.7901(11) 0.4850(9) 0.8524(6)
C14 C 0.7628(17) 0.5339(12) 0.9438(7)
C15 C 0.8317(11) 0.8683(9) 0.6285(6)
C16 C 0.9708(10) 0.8062(9) 0.6759(6)
H1 H -0.4194 0.3337 0.6448
H2 H -0.1691 0.4449 0.5891
H3 H 0.0748 0.1265 0.7675
H4 H -0.0742 -0.0749 0.8705
H5 H -0.2671 -0.0960 0.8528
H6 H -0.2365 -0.0672 1.0064
H7 H -0.3452 0.0697 0.9494
H8 H -0.1524 0.0913 0.9670
H9 H 0.5612 0.6398 0.7360
H10 H 0.8925 0.4217 0.8560
H11 H 0.6946 0.4245 0.8432
H12 H 0.7522 0.4457 0.9953
H13 H 0.6605 0.5952 0.9409
H14 H 0.8582 0.5921 0.9537
H15 H 0.8436 0.9575 0.5817
H16 H 1.0759 0.8509 0.6580
Cu2A Cu 0.5394(1) 1.1105(1) 0.4294(1)
C1_2 C 0.3735(11) 1.0844(9) 0.5780(6)
C1A C 0.6265(11) 0.9156(9) 0.4220(6)
N8_2 N -1.0364(8) -0.3183(7) 0.7482(5)
C4_2 C -0.7236(10) -0.6027(9) 0.8204(6)
Cu3_2 Cu 1.1891(1) 0.5961(1) 0.8076(1)
Cu2_2 Cu 0.4606(1) -0.1105(1) 0.5706(1)
Cu2A_2 Cu 0.5394(1) 0.1105(1) 0.4294(1)
Cu3_3 Cu -0.8109(1) 0.5961(1) 0.8076(1)
loop_
_geom_bond_atom_site_label_1
_geom_bond_atom_site_label_2
_geom_bond_site_symmetry_1
_geom_bond_site_symmetry_2
Cu1 N1 1_555 1_555
Cu2 N2 1_555 1_555
Cu3 N3 1_555 1_555
Cu4 N4 1_555 1_555
N1 C1 1_555 1_555
N2 C2 1_555 1_555
N3 C3 1_555 1_555
N4 C4 1_555 1_555
N5 Cu4 1_555 1_555
N6 Cu1 1_555 1_555
N7 Cu2 1_555 1_555
N8 C12 1_555 1_555
C1 Cu2_2 1_555 1_555
C2 Cu1 1_555 1_555
C3 Cu4 1_555 1_555
C4 Cu3_3 1_555 1_555
C5 N5 1_555 1_555
C6 N6 1_555 1_555
C7 N6 1_555 1_555
C8 N5 1_555 1_555
C9 C8 1_555 1_555
C10 C9 1_555 1_555
C11 N7 1_555 1_555
C12 C11 1_555 1_555
C13 C12 1_555 1_555
C14 C13 1_555 1_555
C15 N7 1_555 1_555
C16 N8 1_555 1_555
H1 C5 1_555 1_555
H2 C6 1_555 1_555
H3 C7 1_555 1_555
H4 C9 1_555 1_555
H5 C9 1_555 1_555
H6 C10 1_555 1_555
H7 C10 1_555 1_555
H8 C10 1_555 1_555
H9 C11 1_555 1_555
H10 C13 1_555 1_555
H11 C13 1_555 1_555
H12 C14 1_555 1_555
H13 C14 1_555 1_555
H14 C14 1_555 1_555
H15 C15 1_555 1_555
H16 C16 1_555 1_555
Cu2A C1_2 1_555 1_555
C1_2 Cu2 1_555 1_555
C1A Cu2 1_555 1_555
N8_2 Cu3 1_555 1_555
C4_2 Cu3 1_555 1_555
Cu3_2 N8 1_555 1_555
Cu2A_2 C1 1_555 1_555
C5 C6 1_555 1_555
C7 C8 1_555 1_555
C15 C16 1_555 1_555
Cu2A C1A 1_555 1_555

#END
