
#######################################################################
#
#                 Cambridge Crystallographic Data Centre
#                                CCDC 
#
#######################################################################
#
# If this CIF has been generated from an entry in the Cambridge 
# Structural Database, then it will include bibliographic, chemical, 
# crystal, experimental, refinement or atomic coordinate data resulting 
# from the CCDC's data processing and validation procedures.
#
#######################################################################

data_SUYGOI
_symmetry_cell_setting           monoclinic
_symmetry_space_group_name_H-M   'P 21/n'
_symmetry_Int_Tables_number      14
_space_group_name_Hall           '-P 2yn'
loop_
_symmetry_equiv_pos_site_id
_symmetry_equiv_pos_as_xyz
1 x,y,z
2 1/2-x,1/2+y,1/2-z
3 -x,-y,-z
4 1/2+x,1/2-y,1/2+z
_cell_length_a                   10.128(2)
_cell_length_b                   13.659(3)
_cell_length_c                   11.012(2)
_cell_angle_alpha                90
_cell_angle_beta                 109.663(5)
_cell_angle_gamma                90
_cell_volume                     1434.55
loop_
_atom_site_label
_atom_site_type_symbol
_atom_site_fract_x
_atom_site_fract_y
_atom_site_fract_z
Cu1 Cu 0.2703(1) -0.2349(1) 0.4998(1)
Cu2 Cu 0.0269(1) -0.4211(1) 0.7418(1)
Cu3 Cu -0.0232(1) -0.7759(1) 0.7890(1)
C1 C 0.1256(2) -0.3478(1) 0.6522(2)
C3 C 0.3595(2) -0.1739(2) 0.3990(2)
C5 C 0.0283(2) -0.5634(1) 0.7498(2)
C7 C -0.1909(3) -0.7781(2) 0.9752(2)
C8 C -0.2733(2) -0.8207(2) 1.0382(2)
C9 C -0.2945(2) -0.9215(2) 1.0276(2)
C10 C -0.2329(2) -0.9752(2) 0.9552(2)
C11 C -0.1521(2) -0.9272(1) 0.8930(2)
C12 C -0.0849(2) -0.9777(1) 0.8100(2)
C13 C -0.0930(2) -1.0789(2) 0.7891(2)
C14 C -0.0221(3) -1.1209(2) 0.7142(2)
C15 C 0.0550(3) -1.0610(2) 0.6606(2)
C16 C 0.0565(3) -0.9609(2) 0.6830(2)
N2 N 0.1790(2) -0.3027(1) 0.5934(2)
N4 N 0.4221(2) -0.1380(1) 0.3399(2)
N6 N 0.0113(2) -0.6462(2) 0.7594(2)
N7 N -0.1306(2) -0.8292(1) 0.9040(2)
N8 N -0.0118(2) -0.9195(1) 0.7554(2)
H1 H -0.1729(34) -0.7183(24) 0.9752(31)
H2 H -0.3173(27) -0.7753(18) 1.0908(25)
H3 H -0.3428(31) -0.9450(22) 1.0627(26)
H4 H -0.2523(28) -1.0414(21) 0.9464(24)
H5 H -0.1500(33) -1.1256(24) 0.8350(29)
H6 H -0.0177(29) -1.1855(23) 0.7049(26)
H7 H 0.1107(27) -1.0852(19) 0.6044(25)
H8 H 0.1027(28) -0.9216(19) 0.6463(24)
N4C N -0.0779(2) -0.3620(1) 0.8399(2)
Cu2C Cu 0.5269(1) -0.0789(1) 0.2418(1)
O1 O 0.7227(17) -0.0199(11) 0.4960(15)
C2? C 0.1790(2) -0.3027(1) 0.5934(2)
C4? C 0.4221(2) -0.1380(1) 0.3399(2)
C6? C 0.5113(2) 0.1462(2) 0.2594(2)
N1? N 0.1256(2) -0.3478(1) 0.6522(2)
N3? N 0.3595(2) -0.1739(2) 0.3990(2)
N5? N 0.5283(2) 0.0634(1) 0.2498(2)
loop_
_geom_bond_atom_site_label_1
_geom_bond_atom_site_label_2
_geom_bond_site_symmetry_1
_geom_bond_site_symmetry_2
Cu1 C3 1_555 1_555
Cu2 C1 1_555 1_555
Cu3 N6 1_555 1_555
C1 N2 1_555 1_555
C3 N4 1_555 1_555
C5 Cu2 1_555 1_555
C7 C8 1_555 1_555
C8 C9 1_555 1_555
C9 C10 1_555 1_555
C10 C11 1_555 1_555
C11 C12 1_555 1_555
C12 C13 1_555 1_555
C13 C14 1_555 1_555
C14 C15 1_555 1_555
C15 C16 1_555 1_555
C16 N8 1_555 1_555
N2 Cu1 1_555 1_555
N4 Cu2C 1_555 1_555
N6 C5 1_555 1_555
N7 Cu3 1_555 1_555
N8 Cu3 1_555 1_555
H1 C7 1_555 1_555
H2 C8 1_555 1_555
H3 C9 1_555 1_555
H4 C10 1_555 1_555
H5 C13 1_555 1_555
H6 C14 1_555 1_555
H7 C15 1_555 1_555
H8 C16 1_555 1_555
N4C Cu2 1_555 1_555
C7 N7 1_555 1_555
C11 N7 1_555 1_555
C12 N8 1_555 1_555

#END
