
#######################################################################
#
#                 Cambridge Crystallographic Data Centre
#                                CCDC 
#
#######################################################################
#
# If this CIF has been generated from an entry in the Cambridge 
# Structural Database, then it will include bibliographic, chemical, 
# crystal, experimental, refinement or atomic coordinate data resulting 
# from the CCDC's data processing and validation procedures.
#
#######################################################################

data_SUZCEV
_symmetry_cell_setting           orthorhombic
_symmetry_space_group_name_H-M   'P n a 21'
_symmetry_Int_Tables_number      33
_space_group_name_Hall           'P 2c -2n'
loop_
_symmetry_equiv_pos_site_id
_symmetry_equiv_pos_as_xyz
1 x,y,z
2 -x,-y,1/2+z
3 1/2-x,1/2+y,1/2+z
4 1/2+x,1/2-y,z
_cell_length_a                   10.9754(6)
_cell_length_b                   16.0289(9)
_cell_length_c                   13.3326(8)
_cell_angle_alpha                90
_cell_angle_beta                 90
_cell_angle_gamma                90
_cell_volume                     2345.52
loop_
_atom_site_label
_atom_site_type_symbol
_atom_site_fract_x
_atom_site_fract_y
_atom_site_fract_z
Ag1 Ag -0.1785(1) -0.0335(1) 0.3480(1)
C1 C -0.2761(6) 0.1469(4) 0.3224(4)
C2 C -0.3555(6) 0.2150(4) 0.3199(5)
C3 C -0.4792(6) 0.1992(4) 0.3313(4)
C4 C -0.5193(6) 0.1192(4) 0.3418(5)
C5 C -0.4362(6) 0.0537(4) 0.3428(5)
C6 C -0.4734(6) -0.0346(4) 0.3537(6)
C7 C -0.5842(6) -0.0641(5) 0.3412(5)
C8 C -0.6079(5) -0.1561(4) 0.3478(5)
C9 C -0.5255(7) -0.2121(4) 0.3896(5)
C10 C -0.5489(6) -0.2968(4) 0.3848(5)
C11 C -0.7323(6) -0.2731(4) 0.3050(4)
C12 C -0.7143(6) -0.1886(4) 0.3063(5)
N1 N -0.3152(5) 0.0675(3) 0.3355(5)
N2 N -0.6505(5) -0.3295(3) 0.3416(5)
N5 N 0.0755(5) 0.0446(3) 0.3391(4)
O1 O 0.1776(5) 0.0776(3) 0.3188(4)
O2 O -0.0039(5) 0.0844(3) 0.3845(4)
O3 O 0.0541(5) -0.0293(3) 0.3122(4)
H1 H -0.1931 0.1565 0.3149
H2 H -0.3266 0.2690 0.3108
H3 H -0.5346 0.2431 0.3318
H4 H -0.6022 0.1084 0.3483
H5 H -0.4129 -0.0726 0.3710
H6 H -0.6482 -0.0277 0.3282
H7 H -0.4551 -0.1927 0.4207
H8 H -0.4922 -0.3333 0.4125
H9 H -0.8045 -0.2932 0.2777
H10 H -0.7729 -0.1530 0.2796
N2C N -0.1505(5) -0.1705(3) 0.3416(5)
Ag1C Ag -0.6785(1) -0.4665(1) 0.3480(1)
Ag2 Ag 0.5739(1) -0.4629(1) 0.1090(1)
C13 C 0.1991(6) -0.2064(4) 0.0490(5)
C14 C 0.2220(6) -0.2893(4) 0.0373(5)
C15 C 0.1403(6) -0.3492(4) 0.0732(4)
C16 C 0.0316(5) -0.3186(4) 0.1150(6)
C17 C 0.0158(6) -0.2325(4) 0.1227(5)
C18 C 0.1686(6) -0.4387(4) 0.0762(5)
C19 C 0.2824(6) -0.4678(4) 0.0745(5)
C20 C 0.3187(6) -0.5550(4) 0.0845(5)
C21 C 0.2384(6) -0.6225(4) 0.0722(5)
C22 C 0.2796(6) -0.7036(4) 0.0840(4)
C23 C 0.3998(5) -0.7164(3) 0.1114(5)
C24 C 0.4756(6) -0.6475(4) 0.1215(5)
N3 N 0.0968(4) -0.1762(3) 0.0931(4)
N4 N 0.4394(5) -0.5684(3) 0.1084(6)
N6 N 0.8259(5) -0.5427(4) 0.0856(5)
O4 O 0.9277(5) -0.5739(3) 0.0944(5)
O5 O 0.8075(4) -0.4688(3) 0.1125(5)
O6 O 0.7397(4) -0.5845(3) 0.0474(4)
H11 H 0.2566 -0.1685 0.0255
H12 H 0.2929 -0.3063 0.0051
H13 H -0.0286 -0.3550 0.1371
H14 H -0.0566 -0.2132 0.1505
H15 H 0.1045 -0.4766 0.0794
H16 H 0.3444 -0.4289 0.0662
H17 H 0.1573 -0.6127 0.0560
H18 H 0.2275 -0.7486 0.0738
H19 H 0.4292 -0.7700 0.1229
H20 H 0.5566 -0.6568 0.1384
Ag2C Ag 0.0739(1) -0.0371(1) 0.1090(1)
N3C N 0.5968(4) -0.3238(3) 0.0931(4)
loop_
_geom_bond_atom_site_label_1
_geom_bond_atom_site_label_2
_geom_bond_site_symmetry_1
_geom_bond_site_symmetry_2
Ag1 N1 1_555 1_555
Ag2 N4 1_555 1_555
C1 C2 1_555 1_555
C2 C3 1_555 1_555
C3 C4 1_555 1_555
C4 C5 1_555 1_555
C5 C6 1_555 1_555
C6 C7 1_555 1_555
C7 C8 1_555 1_555
C8 C9 1_555 1_555
C9 C10 1_555 1_555
C10 N2 1_555 1_555
C11 C12 1_555 1_555
C12 C8 1_555 1_555
C13 C14 1_555 1_555
C14 C15 1_555 1_555
C15 C16 1_555 1_555
C16 C17 1_555 1_555
C17 N3 1_555 1_555
C18 C15 1_555 1_555
C19 C18 1_555 1_555
C20 C19 1_555 1_555
C21 C20 1_555 1_555
C22 C21 1_555 1_555
C23 C22 1_555 1_555
C24 C23 1_555 1_555
N1 C1 1_555 1_555
N2 C11 1_555 1_555
N3 C13 1_555 1_555
N4 C20 1_555 1_555
N5 O1 1_555 1_555
N6 O4 1_555 1_555
O2 N5 1_555 1_555
O3 Ag1 1_555 1_555
O5 Ag2 1_555 1_555
O6 N6 1_555 1_555
H1 C1 1_555 1_555
H2 C2 1_555 1_555
H3 C3 1_555 1_555
H4 C4 1_555 1_555
H5 C6 1_555 1_555
H6 C7 1_555 1_555
H7 C9 1_555 1_555
H8 C10 1_555 1_555
H9 C11 1_555 1_555
H10 C12 1_555 1_555
H11 C13 1_555 1_555
H12 C14 1_555 1_555
H13 C16 1_555 1_555
H14 C17 1_555 1_555
H15 C18 1_555 1_555
H16 C19 1_555 1_555
H17 C21 1_555 1_555
H18 C22 1_555 1_555
H19 C23 1_555 1_555
H20 C24 1_555 1_555
N2C Ag1 1_555 1_555
Ag1C N2 1_555 1_555
Ag2C N3 1_555 1_555
N3C Ag2 1_555 1_555
C5 N1 1_555 1_555
C24 N4 1_555 1_555
N5 O3 1_555 1_555
N6 O5 1_555 1_555

#END
