
#######################################################################
#
#                 Cambridge Crystallographic Data Centre
#                                CCDC 
#
#######################################################################
#
# If this CIF has been generated from an entry in the Cambridge 
# Structural Database, then it will include bibliographic, chemical, 
# crystal, experimental, refinement or atomic coordinate data resulting 
# from the CCDC's data processing and validation procedures.
#
#######################################################################

data_TABGIO
_symmetry_cell_setting           monoclinic
_symmetry_space_group_name_H-M   'P 21/n'
_symmetry_Int_Tables_number      14
_space_group_name_Hall           '-P 2yn'
loop_
_symmetry_equiv_pos_site_id
_symmetry_equiv_pos_as_xyz
1 x,y,z
2 1/2-x,1/2+y,1/2-z
3 -x,-y,-z
4 1/2+x,1/2-y,1/2+z
_cell_length_a                   6.9973(14)
_cell_length_b                   10.231(2)
_cell_length_c                   24.861(5)
_cell_angle_alpha                90
_cell_angle_beta                 93.06(3)
_cell_angle_gamma                90
_cell_volume                     1777.25
loop_
_atom_site_label
_atom_site_type_symbol
_atom_site_fract_x
_atom_site_fract_y
_atom_site_fract_z
Pb1 Pb 0.03050(3) 0.370335(19) 0.165635(9)
O1 O -0.1972(6) 0.5501(4) 0.1955(2)
O2 O 0.0322(8) 0.5573(5) 0.1041(2)
N1 N 0.2621(8) 0.5396(5) 0.0442(2)
H1 H 0.2993 0.5645 0.0134
N2 N 0.5508(9) 0.4215(6) 0.0599(2)
N3 N 0.6168(9) 0.3356(7) 0.0987(2)
N4 N 0.4885(9) 0.3160(6) 0.1331(2)
N5 N 0.3295(8) 0.3878(5) 0.1186(2)
N6 N -0.0070(7) 0.7148(5) 0.2271(2)
H2 H -0.0004 0.7974 0.2332
N7 N 0.2852(8) 0.6868(5) 0.2772(2)
N8 N 0.4162(8) 0.5896(5) 0.2832(2)
N9 N 0.3582(7) 0.4888(5) 0.2542(2)
N10 N 0.1884(7) 0.5184(5) 0.2281(2)
C1 C -0.1875(12) 0.7232(8) 0.0428(3)
H3 H -0.2393 0.6782 0.0710
C2 C -0.2942(15) 0.8204(10) 0.0158(4)
H4 H -0.4173 0.8403 0.0256
C3 C -0.2142(19) 0.8862(10) -0.0255(4)
H5 H -0.2812 0.9543 -0.0426
C4 C -0.037(2) 0.8528(9) -0.0420(4)
H6 H 0.0108 0.8936 -0.0719
C5 C 0.0728(13) 0.7574(8) -0.0140(3)
H7 H 0.1963 0.7383 -0.0238
C6 C -0.0047(10) 0.6930(7) 0.0277(3)
C7 C 0.0974(10) 0.5897(7) 0.0611(3)
C8 C 0.3763(9) 0.4498(6) 0.0736(3)
C9 C -0.2757(12) 0.8988(7) 0.1794(4)
H8 H -0.1559 0.9303 0.1910
C10 C -0.4151(14) 0.9846(8) 0.1595(3)
H9 H -0.3876 1.0734 0.1577
C11 C -0.5905(12) 0.9412(9) 0.1427(3)
H10 H -0.6839 0.9996 0.1297
C12 C -0.6298(10) 0.8088(9) 0.1449(3)
H11 H -0.7506 0.7787 0.1335
C13 C -0.4933(9) 0.7212(8) 0.1637(3)
H12 H -0.5210 0.6324 0.1642
C14 C -0.3137(9) 0.7657(6) 0.1821(3)
C15 C -0.1696(8) 0.6686(6) 0.2016(2)
C16 C 0.1494(9) 0.6391(5) 0.2442(3)
Pb1A Pb 0.46950(3) 0.870335(19) 0.334365(9)
N7A N 0.2148(8) 0.1868(5) 0.2228(2)
loop_
_geom_bond_atom_site_label_1
_geom_bond_atom_site_label_2
_geom_bond_site_symmetry_1
_geom_bond_site_symmetry_2
Pb1 O1 1_555 1_555
O1 C15 1_555 1_555
O2 Pb1 1_555 1_555
N1 H1 1_555 1_555
N2 N3 1_555 1_555
N3 N4 1_555 1_555
N4 N5 1_555 1_555
N5 Pb1 1_555 1_555
N6 H2 1_555 1_555
N7 N8 1_555 1_555
N8 N9 1_555 1_555
N9 N10 1_555 1_555
N10 Pb1 1_555 1_555
C1 H3 1_555 1_555
C2 C1 1_555 1_555
H4 C2 1_555 1_555
C3 C2 1_555 1_555
H5 C3 1_555 1_555
C4 C3 1_555 1_555
H6 C4 1_555 1_555
C5 C4 1_555 1_555
H7 C5 1_555 1_555
C6 C1 1_555 1_555
C7 O2 1_555 1_555
C8 N1 1_555 1_555
C9 H8 1_555 1_555
C10 C9 1_555 1_555
H9 C10 1_555 1_555
C11 C10 1_555 1_555
H10 C11 1_555 1_555
C12 C11 1_555 1_555
H11 C12 1_555 1_555
C13 C12 1_555 1_555
H12 C13 1_555 1_555
C14 C9 1_555 1_555
C15 N6 1_555 1_555
C16 N6 1_555 1_555
Pb1A N7 1_555 1_555
N7A Pb1 1_555 1_555
N1 C7 1_555 1_555
N2 C8 1_555 1_555
N5 C8 1_555 1_555
N7 C16 1_555 1_555
N10 C16 1_555 1_555
C5 C6 1_555 1_555
C6 C7 1_555 1_555
C13 C14 1_555 1_555
C14 C15 1_555 1_555

#END
