
#######################################################################
#
#                 Cambridge Crystallographic Data Centre
#                                CCDC 
#
#######################################################################
#
# If this CIF has been generated from an entry in the Cambridge 
# Structural Database, then it will include bibliographic, chemical, 
# crystal, experimental, refinement or atomic coordinate data resulting 
# from the CCDC's data processing and validation procedures.
#
#######################################################################

data_TABLUF
_symmetry_cell_setting           monoclinic
_symmetry_space_group_name_H-M   'C 2/c'
_symmetry_Int_Tables_number      15
_space_group_name_Hall           '-C 2yn'
loop_
_symmetry_equiv_pos_site_id
_symmetry_equiv_pos_as_xyz
1 x,y,z
2 -x,y,1/2-z
3 1/2+x,1/2+y,z
4 1/2-x,1/2+y,1/2-z
5 -x,-y,-z
6 x,-y,1/2+z
7 1/2-x,1/2-y,-z
8 1/2+x,1/2-y,1/2+z
_cell_length_a                   18.016(6)
_cell_length_b                   14.677(5)
_cell_length_c                   19.305(7)
_cell_angle_alpha                90
_cell_angle_beta                 96.312(6)
_cell_angle_gamma                90
_cell_volume                     5073.7
loop_
_atom_site_label
_atom_site_type_symbol
_atom_site_fract_x
_atom_site_fract_y
_atom_site_fract_z
Ni1 Ni 0.20688(5) 0.31118(6) 0.26678(4)
N1 N 0.1507(3) 0.4241(4) 0.2972(2)
N2 N 0.1490(3) 0.5754(4) 0.2987(3)
H1 H 0.1634 0.6307 0.2938
N3 N 0.2951(3) 0.4084(5) 0.2803(3)
H2 H 0.3302 0.3940 0.2516
N4 N 0.2590(4) 0.2648(5) 0.3591(3)
N5 N 0.3536(4) 0.2820(7) 0.4418(4)
H3 H 0.3915 0.3063 0.4659
C1 C 0.0839(3) 0.4511(5) 0.3214(3)
C2 C 0.0250(4) 0.4037(5) 0.3420(3)
H4 H 0.0243 0.3403 0.3409
C3 C -0.0340(4) 0.4523(7) 0.3648(4)
H5 H -0.0737 0.4208 0.3805
C4 C -0.0348(4) 0.5452(7) 0.3648(4)
H6 H -0.0760 0.5754 0.3787
C5 C 0.0241(5) 0.5959(6) 0.3445(4)
H7 H 0.0243 0.6592 0.3458
C6 C 0.0824(4) 0.5465(5) 0.3223(3)
C7 C 0.1859(4) 0.4992(5) 0.2853(3)
C8 C 0.2610(4) 0.4979(6) 0.2588(4)
H8 H 0.2558 0.5038 0.2084
H9 H 0.2917 0.5475 0.2789
C9 C 0.3293(4) 0.4054(7) 0.3534(4)
H10 H 0.3827 0.4154 0.3551
H11 H 0.3085 0.4533 0.3799
C10 C 0.3152(5) 0.3167(8) 0.3839(4)
C11 C 0.3211(6) 0.2019(9) 0.4546(4)
C12 C 0.3380(8) 0.1369(11) 0.5067(5)
H12 H 0.3774 0.1441 0.5417
C13 C 0.2927(11) 0.0620(12) 0.5028(6)
H13 H 0.3033 0.0170 0.5363
C14 C 0.2309(7) 0.0470(8) 0.4521(5)
H14 H 0.2018 -0.0052 0.4526
C15 C 0.2158(6) 0.1143(8) 0.4014(4)
H15 H 0.1756 0.1084 0.3671
C16 C 0.2621(5) 0.1905(7) 0.4032(3)
N6 N 0.1203(4) 0.2215(4) 0.2585(3)
C17 C 0.0648(5) 0.1933(6) 0.2531(5)
N7 N 0.0000 0.1492(7) 0.2500
O1 O 0.1904(3) 0.3434(3) 0.1600(2)
O2 O 0.2664(3) 0.2325(4) 0.1928(2)
C18 C 0.2333(4) 0.2825(5) 0.1457(3)
C19 C 0.2434(4) 0.2660(5) 0.0695(3)
C20 C 0.2938(4) 0.2041(6) 0.0502(3)
H16 H 0.3234 0.1715 0.0841
C21 C 0.1991(5) 0.3102(6) 0.0199(3)
H17 H 0.1634 0.3508 0.0326
Ni1A Ni -0.20688(5) 0.31118(6) 0.23322(4)
Ni1F Ni 0.29312(5) 0.18882(6) -0.26678(4)
N1A N -0.1507(3) 0.4241(4) 0.2028(2)
N2A N -0.1490(3) 0.5754(4) 0.2013(3)
H1A H -0.1634 0.6307 0.2062
N3A N -0.2951(3) 0.4084(5) 0.2197(3)
H2A H -0.3302 0.3940 0.2484
N4A N -0.2590(4) 0.2648(5) 0.1409(3)
N5A N -0.3536(4) 0.2820(7) 0.0582(4)
H3A H -0.3915 0.3063 0.0341
C1A C -0.0839(3) 0.4511(5) 0.1786(3)
C2A C -0.0250(4) 0.4037(5) 0.1580(3)
H4A H -0.0243 0.3403 0.1591
C3A C 0.0340(4) 0.4523(7) 0.1352(4)
H5A H 0.0737 0.4208 0.1195
C4A C 0.0348(4) 0.5452(7) 0.1352(4)
H6A H 0.0760 0.5754 0.1213
C5A C -0.0241(5) 0.5959(6) 0.1555(4)
H7A H -0.0243 0.6592 0.1542
C6A C -0.0824(4) 0.5465(5) 0.1777(3)
C7A C -0.1859(4) 0.4992(5) 0.2147(3)
C8A C -0.2610(4) 0.4979(6) 0.2412(4)
H8A H -0.2558 0.5038 0.2916
H9A H -0.2917 0.5475 0.2211
C9A C -0.3293(4) 0.4054(7) 0.1466(4)
H10A H -0.3827 0.4154 0.1449
H11A H -0.3085 0.4533 0.1201
C10A C -0.3152(5) 0.3167(8) 0.1161(4)
C11A C -0.3211(6) 0.2019(9) 0.0454(4)
C12A C -0.3380(8) 0.1369(11) -0.0067(5)
H12A H -0.3774 0.1441 -0.0417
C13A C -0.2927(11) 0.0620(12) -0.0028(6)
H13A H -0.3033 0.0170 -0.0363
C14A C -0.2309(7) 0.0470(8) 0.0479(5)
H14A H -0.2018 -0.0052 0.0474
C15A C -0.2158(6) 0.1143(8) 0.0986(4)
H15A H -0.1756 0.1084 0.1329
C16A C -0.2621(5) 0.1905(7) 0.0968(3)
N6A N -0.1203(4) 0.2215(4) 0.2415(3)
C17A C -0.0648(5) 0.1933(6) 0.2469(5)
O1F O 0.3096(3) 0.1566(3) -0.1600(2)
O1A O -0.1904(3) 0.3434(3) 0.3400(2)
O2F O 0.2336(3) 0.2675(4) -0.1928(2)
O2A O -0.2664(3) 0.2325(4) 0.3072(2)
C18F C 0.2667(4) 0.2175(5) -0.1457(3)
C19F C 0.2566(4) 0.2340(5) -0.0695(3)
C20F C 0.2062(4) 0.2959(6) -0.0502(3)
H16F H 0.1766 0.3285 -0.0841
C21F C 0.3009(5) 0.1898(6) -0.0199(3)
H17F H 0.3366 0.1492 -0.0326
O3 O 0.4754(7) 0.6292(12) 0.0201(9)
H18 H 0.4866 0.5750 0.0227
C22 C 0.5412(11) 0.6836(18) 0.0374(16)
H19 H 0.5736 0.6777 0.0014
H20 H 0.5668 0.6632 0.0809
H21 H 0.5271 0.7463 0.0415
O4 O 0.4718(13) 0.5073(14) 0.1135(12)
H22 H 0.5122 0.5421 0.1112
H23 H 0.4673 0.4492 0.0846
Cl1 Cl 0.5000 0.3498(6) 0.2500
O5 O 0.4559(7) 0.4078(7) 0.2015(5)
O6 O 0.4521(6) 0.2952(7) 0.2858(7)
O5A O 0.5441(7) 0.4078(7) 0.2985(5)
O6A O 0.5479(6) 0.2952(7) 0.2142(7)
loop_
_geom_bond_atom_site_label_1
_geom_bond_atom_site_label_2
_geom_bond_site_symmetry_1
_geom_bond_site_symmetry_2
Ni1 N1 1_555 1_555
N1 C1 1_555 1_555
N2 H1 1_555 1_555
N3 Ni1 1_555 1_555
H2 N3 1_555 1_555
N4 Ni1 1_555 1_555
N5 H3 1_555 1_555
C1 C2 1_555 1_555
C2 H4 1_555 1_555
C3 C2 1_555 1_555
H5 C3 1_555 1_555
C4 C3 1_555 1_555
H6 C4 1_555 1_555
C5 C4 1_555 1_555
H7 C5 1_555 1_555
C6 N2 1_555 1_555
C7 N1 1_555 1_555
C8 N3 1_555 1_555
H8 C8 1_555 1_555
H9 C8 1_555 1_555
C9 N3 1_555 1_555
H10 C9 1_555 1_555
H11 C9 1_555 1_555
C10 N4 1_555 1_555
C11 N5 1_555 1_555
C12 C11 1_555 1_555
H12 C12 1_555 1_555
C13 C12 1_555 1_555
H13 C13 1_555 1_555
C14 C13 1_555 1_555
H14 C14 1_555 1_555
C15 C14 1_555 1_555
H15 C15 1_555 1_555
C16 N4 1_555 1_555
N6 Ni1 1_555 1_555
C17 N6 1_555 1_555
N7 C17 1_555 1_555
O1 Ni1 1_555 1_555
O2 Ni1 1_555 1_555
C18 O1 1_555 1_555
C19 C18 1_555 1_555
C20 C19 1_555 1_555
H16 C20 1_555 1_555
C21 C19 1_555 1_555
H17 C21 1_555 1_555
O3 H18 1_555 1_555
C22 O3 1_555 1_555
H19 C22 1_555 1_555
H20 C22 1_555 1_555
H21 C22 1_555 1_555
O4 H22 1_555 1_555
H23 O4 1_555 1_555
Cl1 O5 1_555 1_555
O6 Cl1 1_555 1_555
Ni1A N1A 1_555 1_555
Ni1F O1F 1_555 1_555
N1A C1A 1_555 1_555
N2A H1A 1_555 1_555
N3A Ni1A 1_555 1_555
H2A N3A 1_555 1_555
N4A Ni1A 1_555 1_555
N5A H3A 1_555 1_555
C1A C2A 1_555 1_555
C2A H4A 1_555 1_555
C3A C2A 1_555 1_555
H5A C3A 1_555 1_555
C4A C3A 1_555 1_555
H6A C4A 1_555 1_555
C5A C4A 1_555 1_555
H7A C5A 1_555 1_555
C6A N2A 1_555 1_555
C7A N1A 1_555 1_555
C8A N3A 1_555 1_555
H8A C8A 1_555 1_555
H9A C8A 1_555 1_555
C9A N3A 1_555 1_555
H10A C9A 1_555 1_555
H11A C9A 1_555 1_555
C10A N4A 1_555 1_555
C11A N5A 1_555 1_555
C12A C11A 1_555 1_555
H12A C12A 1_555 1_555
C13A C12A 1_555 1_555
H13A C13A 1_555 1_555
C14A C13A 1_555 1_555
H14A C14A 1_555 1_555
C15A C14A 1_555 1_555
H15A C15A 1_555 1_555
C16A N4A 1_555 1_555
N6A Ni1A 1_555 1_555
C17A N7 1_555 1_555
O1F C18F 1_555 1_555
O1A Ni1A 1_555 1_555
O2F Ni1F 1_555 1_555
O2A Ni1A 1_555 1_555
C18F O2F 1_555 1_555
C19F C18F 1_555 1_555
C20F C21 1_555 1_555
H16F C20F 1_555 1_555
C21F C20 1_555 1_555
H17F C21F 1_555 1_555
O5A Cl1 1_555 1_555
O6A Cl1 1_555 1_555
N2 C7 1_555 1_555
N5 C10 1_555 1_555
C1 C6 1_555 1_555
C5 C6 1_555 1_555
C7 C8 1_555 1_555
C9 C10 1_555 1_555
C11 C16 1_555 1_555
C15 C16 1_555 1_555
O2 C18 1_555 1_555
N2A C7A 1_555 1_555
N5A C10A 1_555 1_555
C1A C6A 1_555 1_555
C5A C6A 1_555 1_555
C7A C8A 1_555 1_555
C9A C10A 1_555 1_555
C11A C16A 1_555 1_555
C15A C16A 1_555 1_555
N6A C17A 1_555 1_555
C19F C20F 1_555 1_555
C19F C21F 1_555 1_555

#END
