
#######################################################################
#
#                 Cambridge Crystallographic Data Centre
#                                CCDC 
#
#######################################################################
#
# If this CIF has been generated from an entry in the Cambridge 
# Structural Database, then it will include bibliographic, chemical, 
# crystal, experimental, refinement or atomic coordinate data resulting 
# from the CCDC's data processing and validation procedures.
#
#######################################################################

data_TABRAQ
_symmetry_cell_setting           monoclinic
_symmetry_space_group_name_H-M   'P 21/n'
_symmetry_Int_Tables_number      14
_space_group_name_Hall           '-P 2yn'
loop_
_symmetry_equiv_pos_site_id
_symmetry_equiv_pos_as_xyz
1 x,y,z
2 1/2+x,1/2-y,1/2+z
3 -x,-y,-z
4 1/2-x,1/2+y,1/2-z
_cell_length_a                   5.8700(1)
_cell_length_b                   21.7690(5)
_cell_length_c                   10.1300(2)
_cell_angle_alpha                90
_cell_angle_beta                 90.949(1)
_cell_angle_gamma                90
_cell_volume                     1294.27
loop_
_atom_site_label
_atom_site_type_symbol
_atom_site_fract_x
_atom_site_fract_y
_atom_site_fract_z
Na1 Na 1.13627(9) 0.06018(3) 0.42348(5)
O1 O 0.87696(16) 0.11115(4) 0.55888(10)
O2 O 0.46608(17) 0.11348(4) 0.49175(9)
O3 O 1.19489(18) 0.10590(5) 0.21957(10)
N1 N 0.1881(2) -0.00134(6) 0.66534(12)
S1 S 0.63892(5) 0.106535(14) 0.59527(3)
C1 C 0.5957(2) 0.03973(6) 0.67468(14)
C2 C 0.3727(2) 0.01744(6) 0.67342(13)
C3 C 0.5974(2) 0.16947(6) 0.70444(13)
C4 C 0.7747(2) 0.18771(7) 0.78824(14)
H1 H 0.9186 0.1678 0.7846
C5 C 0.7405(3) 0.23510(8) 0.87721(16)
H2 H 0.8606 0.2475 0.9353
C6 C 0.5306(3) 0.26441(7) 0.88149(16)
H3 H 0.5073 0.2969 0.9425
C7 C 0.3556(3) 0.24643(7) 0.79713(16)
H4 H 0.2129 0.2670 0.7998
C8 C 0.3867(2) 0.19836(7) 0.70816(15)
H5 H 0.2657 0.1856 0.6511
C9 C 1.4075(3) 0.12680(8) 0.16799(15)
H6 H 1.5352 0.1168 0.2294
H7 H 1.4046 0.1717 0.1532
C10 C 1.4318(3) 0.09254(9) 0.03823(17)
H8 H 1.5069 0.1186 -0.0282
H9 H 1.5220 0.0545 0.0509
C11 C 1.1895(3) 0.07769(12) -0.00427(19)
H10 H 1.1694 0.0329 -0.0164
H11 H 1.1492 0.0987 -0.0881
C12 C 1.0436(3) 0.10108(8) 0.10770(15)
H12 H 0.9771 0.1416 0.0853
H13 H 0.9184 0.0720 0.1258
H14 H 0.694(3) 0.0299(9) 0.7394(19)
Na1B Na 0.86373(9) -0.06018(3) 0.57652(5)
O2_2 O 1.46608(17) 0.11348(4) 0.49175(9)
N1_2 N 1.1881(2) -0.00134(6) 0.66534(12)
N1B N 0.8119(2) 0.00134(6) 0.33466(12)
C1B C 1.4043(2) -0.03973(6) 0.32532(14)
Na1_2 Na 0.13627(9) 0.06018(3) 0.42348(5)
Na1B_2 Na -0.13627(9) -0.06018(3) 0.57652(5)
H14B H 1.306(3) -0.0299(9) 0.2606(19)
loop_
_geom_bond_atom_site_label_1
_geom_bond_atom_site_label_2
_geom_bond_site_symmetry_1
_geom_bond_site_symmetry_2
Na1 O1 1_555 1_555
O1 S1 1_555 1_555
O2 S1 1_555 1_555
O3 Na1 1_555 1_555
N1 C2 1_555 1_555
S1 C1 1_555 1_555
C1 C2 1_555 1_555
C3 S1 1_555 1_555
C4 C3 1_555 1_555
H1 C4 1_555 1_555
C5 C4 1_555 1_555
H2 C5 1_555 1_555
C6 C5 1_555 1_555
H3 C6 1_555 1_555
C7 C6 1_555 1_555
H4 C7 1_555 1_555
C8 C3 1_555 1_555
H5 C8 1_555 1_555
C9 O3 1_555 1_555
H6 C9 1_555 1_555
H7 C9 1_555 1_555
C10 C9 1_555 1_555
H8 C10 1_555 1_555
H9 C10 1_555 1_555
C11 C10 1_555 1_555
H10 C11 1_555 1_555
H11 C11 1_555 1_555
C12 O3 1_555 1_555
H12 C12 1_555 1_555
H13 C12 1_555 1_555
H14 C1 1_555 1_555
Na1B C1 1_555 1_555
O2_2 Na1 1_555 1_555
N1_2 Na1 1_555 1_555
N1B Na1 1_555 1_555
C1B Na1 1_555 1_555
Na1_2 O2 1_555 1_555
Na1B_2 N1 1_555 1_555
H14B C1B 1_555 1_555
N1 Na1_2 1_555 1_555
C7 C8 1_555 1_555
C11 C12 1_555 1_555
Na1B N1_2 1_555 1_555
Na1B N1B 1_555 1_555

#END
