
#######################################################################
#
#                 Cambridge Crystallographic Data Centre
#                                CCDC 
#
#######################################################################
#
# If this CIF has been generated from an entry in the Cambridge 
# Structural Database, then it will include bibliographic, chemical, 
# crystal, experimental, refinement or atomic coordinate data resulting 
# from the CCDC's data processing and validation procedures.
#
#######################################################################

data_TABZIG
_symmetry_cell_setting           orthorhombic
_symmetry_space_group_name_H-M   'P 21 21 21'
_symmetry_Int_Tables_number      19
_space_group_name_Hall           'P 2ac 2ab'
loop_
_symmetry_equiv_pos_site_id
_symmetry_equiv_pos_as_xyz
1 x,y,z
2 1/2-x,-y,1/2+z
3 -x,1/2+y,1/2-z
4 1/2+x,1/2-y,-z
_cell_length_a                   6.8813(12)
_cell_length_b                   9.9224(17)
_cell_length_c                   16.656(3)
_cell_angle_alpha                90
_cell_angle_beta                 90
_cell_angle_gamma                90
_cell_volume                     1137.26
loop_
_atom_site_label
_atom_site_type_symbol
_atom_site_fract_x
_atom_site_fract_y
_atom_site_fract_z
Mn1 Mn 0.22079(8) 0.84873(6) 0.63125(3)
N1 N 0.3658(5) 1.0123(3) 0.71050(19)
N2 N 0.5909(5) 1.1979(3) 0.79403(19)
N3 N -0.0179(5) 0.8515(4) 0.7138(2)
O1 O 0.4944(4) 0.9076(2) 0.57276(16)
O2 O 0.7248(4) 1.0647(3) 0.56283(16)
O3 O 0.0908(5) 0.9628(4) 0.5357(2)
O4 O 0.1430(6) 0.6648(4) 0.5718(2)
S1 S -0.23619(17) 0.85813(12) 0.85486(6)
C1 C 0.5895(5) 1.0080(4) 0.5979(2)
C2 C 0.5296(5) 1.0610(4) 0.6797(2)
C3 C 0.6420(6) 1.1545(4) 0.7210(2)
C4 C 0.4270(6) 1.1489(5) 0.8243(2)
C5 C 0.3135(6) 1.0569(4) 0.7830(3)
C6 C -0.1087(5) 0.8552(4) 0.7721(2)
H1 H 0.755(6) 1.185(4) 0.698(2)
H2 H 0.392(7) 1.180(4) 0.876(3)
H3 H 0.198(7) 1.022(4) 0.806(3)
H4 H 0.152(10) 1.021(7) 0.519(4)
H5 H -0.028(9) 0.991(5) 0.544(3)
H6 H 0.114(9) 0.650(6) 0.530(4)
H7 H 0.159(9) 0.595(6) 0.590(3)
N2B N 0.4091(5) 0.6979(3) 0.70597(19)
Mn1B Mn 0.77921(8) 1.34873(6) 0.86875(3)
O5 O 0.3014(7) 0.1526(5) 0.4555(3)
H8 H 0.254(10) 0.232(7) 0.452(3)
H9 H 0.401(11) 0.146(8) 0.441(4)
loop_
_geom_bond_atom_site_label_1
_geom_bond_atom_site_label_2
_geom_bond_site_symmetry_1
_geom_bond_site_symmetry_2
Mn1 N1 1_555 1_555
N1 C2 1_555 1_555
N2 C3 1_555 1_555
N3 Mn1 1_555 1_555
O1 Mn1 1_555 1_555
O2 C1 1_555 1_555
O3 Mn1 1_555 1_555
O4 Mn1 1_555 1_555
O5 H8 1_555 1_555
S1 C6 1_555 1_555
C1 O1 1_555 1_555
C2 C1 1_555 1_555
C3 C2 1_555 1_555
C4 N2 1_555 1_555
C5 N1 1_555 1_555
C6 N3 1_555 1_555
H1 C3 1_555 1_555
H2 C4 1_555 1_555
H3 C5 1_555 1_555
H4 O3 1_555 1_555
H5 O3 1_555 1_555
H6 O4 1_555 1_555
H7 O4 1_555 1_555
H9 O5 1_555 1_555
N2B Mn1 1_555 1_555
Mn1B N2 1_555 1_555
C4 C5 1_555 1_555

#END
