
#######################################################################
#
#                 Cambridge Crystallographic Data Centre
#                                CCDC 
#
#######################################################################
#
# If this CIF has been generated from an entry in the Cambridge 
# Structural Database, then it will include bibliographic, chemical, 
# crystal, experimental, refinement or atomic coordinate data resulting 
# from the CCDC's data processing and validation procedures.
#
#######################################################################

data_TABZUT
_symmetry_cell_setting           monoclinic
_symmetry_space_group_name_H-M   'C 2/c'
_symmetry_Int_Tables_number      15
_space_group_name_Hall           '-C 2yn'
loop_
_symmetry_equiv_pos_site_id
_symmetry_equiv_pos_as_xyz
1 x,y,z
2 -x,y,1/2-z
3 1/2+x,1/2+y,z
4 1/2-x,1/2+y,1/2-z
5 -x,-y,-z
6 x,-y,1/2+z
7 1/2-x,1/2-y,-z
8 1/2+x,1/2-y,1/2+z
_cell_length_a                   10.252(2)
_cell_length_b                   13.494(3)
_cell_length_c                   27.698(6)
_cell_angle_alpha                90
_cell_angle_beta                 97.34(3)
_cell_angle_gamma                90
_cell_volume                     3800.36
loop_
_atom_site_label
_atom_site_type_symbol
_atom_site_fract_x
_atom_site_fract_y
_atom_site_fract_z
N1 N -0.0541(5) 0.7899(4) 0.37739(19)
N2 N -0.1457(5) 1.2845(4) 0.4332(2)
C1 C -0.4358(6) 0.6463(4) 0.2662(2)
N3 N -0.1031(5) 1.1384(4) 0.4606(2)
C2 C -0.0534(6) 1.2241(5) 0.4523(3)
H1 H 0.0352 1.2404 0.4590
N4 N -0.0316(5) 0.9118(4) 0.4277(2)
C3 C -0.3121(7) 0.6860(6) 0.3439(3)
H2 H -0.3113 0.7046 0.3763
N5 N 0.2834(6) 1.0970(5) 0.4867(2)
C4 C -0.0206(7) 1.4117(4) 0.2745(3)
C5 C -0.0522(7) 0.8153(5) 0.4225(3)
H3 H -0.0638 0.7720 0.4478
C6 C -0.1943(6) 0.6707(4) 0.3255(3)
C7 C -0.0648(6) 0.6882(5) 0.3569(3)
H4 H -0.0555 0.6407 0.3834
H5 H 0.0066 0.6773 0.3377
C8 C 0.0677(6) 1.4343(5) 0.3149(3)
H6 H 0.1528 1.4535 0.3110
C9 C -0.1988(6) 0.6420(5) 0.2773(3)
H7 H -0.1208 0.6310 0.2643
N6 N -0.0345(7) 0.8677(5) 0.3496(2)
C10 C -0.3179(7) 0.6294(6) 0.2483(3)
H8 H -0.3187 0.6092 0.2162
C11 C -0.0242(8) 0.9400(6) 0.3820(3)
H9 H -0.0126 1.0058 0.3735
C12 C -0.0972(7) 1.3992(5) 0.3679(3)
C13 C -0.1483(7) 1.3827(5) 0.2814(3)
H10 H -0.2084 1.3657 0.2547
C14 C -0.4305(6) 0.6738(5) 0.3148(3)
H11 H -0.5085 0.6843 0.3279
C15 C -0.1365(8) 1.3900(5) 0.4188(3)
H12 H -0.0720 1.4236 0.4418
H13 H -0.2208 1.4220 0.4198
C16 C 0.0304(7) 1.4285(5) 0.3612(3)
H14 H 0.0907 1.4443 0.3881
N7 N -0.2622(6) 1.2376(6) 0.4283(3)
C17 C -0.1849(7) 1.3792(5) 0.3268(3)
H15 H -0.2714 1.3629 0.3303
C18 C -0.2318(7) 1.1503(7) 0.4448(4)
H16 H -0.2934 1.1000 0.4457
O1 O 0.3879(5) 1.1084(4) 0.4713(3)
Cd1 Cd 0.0000 1.0000 0.5000
O3 O 0.1877(5) 1.0596(5) 0.4659(3)
O4 O 0.3021(12) 1.0683(13) 0.5313(3)
N1A N -0.9459(5) 0.7899(4) 0.12261(19)
N2A N 0.1457(5) 1.2845(4) 0.0668(2)
C1A C -0.5642(6) 0.6463(4) 0.2338(2)
N3A N 0.1031(5) 1.1384(4) 0.0394(2)
N3D N 0.1031(5) 0.8616(4) 0.5394(2)
C2A C 0.0534(6) 1.2241(5) 0.0477(3)
H1A H -0.0352 1.2404 0.0410
N4A N -0.9684(5) 0.9118(4) 0.0723(2)
N4D N 0.0316(5) 1.0882(4) 0.5723(2)
C3A C -0.6879(7) 0.6860(6) 0.1561(3)
H2A H -0.6887 0.7046 0.1237
N5D N -0.2834(6) 0.9030(5) 0.5133(2)
C4A C 0.0206(7) 1.4117(4) 0.2255(3)
C5A C -0.9478(7) 0.8153(5) 0.0775(3)
H3A H -0.9362 0.7720 0.0522
C6A C -0.8057(6) 0.6707(4) 0.1745(3)
C7A C -0.9352(6) 0.6882(5) 0.1431(3)
H4A H -0.9445 0.6407 0.1166
H5A H -1.0066 0.6773 0.1623
C8A C -0.0677(6) 1.4343(5) 0.1851(3)
H6A H -0.1528 1.4535 0.1890
C9A C -0.8012(6) 0.6420(5) 0.2227(3)
H7A H -0.8792 0.6310 0.2357
N6A N -0.9655(7) 0.8677(5) 0.1504(2)
C10A C -0.6821(7) 0.6294(6) 0.2517(3)
H8A H -0.6813 0.6092 0.2838
C11A C -0.9758(8) 0.9400(6) 0.1180(3)
H9A H -0.9874 1.0058 0.1265
C12A C 0.0972(7) 1.3992(5) 0.1321(3)
C13A C 0.1483(7) 1.3827(5) 0.2186(3)
H10A H 0.2084 1.3657 0.2453
C14A C -0.5695(6) 0.6738(5) 0.1852(3)
H11A H -0.4915 0.6843 0.1721
C15A C 0.1365(8) 1.3900(5) 0.0812(3)
H12A H 0.0720 1.4236 0.0582
H13A H 0.2208 1.4220 0.0802
C16A C -0.0304(7) 1.4285(5) 0.1388(3)
H14A H -0.0907 1.4443 0.1119
N7A N 0.2622(6) 1.2376(6) 0.0717(3)
C17A C 0.1849(7) 1.3792(5) 0.1732(3)
H15A H 0.2714 1.3629 0.1697
C18A C 0.2318(7) 1.1503(7) 0.0552(4)
H16A H 0.2934 1.1000 0.0543
O1D O -0.3879(5) 0.8916(4) 0.5287(3)
Cd1A Cd -1.0000 1.0000 0.0000
Cd1A_2 Cd 0.0000 1.0000 0.0000
O3D O -0.1877(5) 0.9404(5) 0.5341(3)
O4D O -0.3021(12) 0.9317(13) 0.4687(3)
O2 O 0.0000 0.822(3) 0.2500
O5? O 0.2491(11) 1.1888(9) 0.5011(6)
loop_
_geom_bond_atom_site_label_1
_geom_bond_atom_site_label_2
_geom_bond_site_symmetry_1
_geom_bond_site_symmetry_2
N1 C5 1_555 1_555
N2 C2 1_555 1_555
C1 C10 1_555 1_555
N3 C2 1_555 1_555
C2 H1 1_555 1_555
N4 C5 1_555 1_555
C3 H2 1_555 1_555
N5 O1 1_555 1_555
C4 C8 1_555 1_555
C5 H3 1_555 1_555
C6 C3 1_555 1_555
C7 N1 1_555 1_555
H4 C7 1_555 1_555
H5 C7 1_555 1_555
C8 H6 1_555 1_555
C9 C6 1_555 1_555
H7 C9 1_555 1_555
N6 N1 1_555 1_555
C10 C9 1_555 1_555
H8 C10 1_555 1_555
C11 N4 1_555 1_555
H9 C11 1_555 1_555
C12 C15 1_555 1_555
C13 C4 1_555 1_555
H10 C13 1_555 1_555
C14 C1 1_555 1_555
H11 C14 1_555 1_555
C15 N2 1_555 1_555
H12 C15 1_555 1_555
H13 C15 1_555 1_555
C16 C8 1_555 1_555
H14 C16 1_555 1_555
N7 N2 1_555 1_555
C17 C12 1_555 1_555
H15 C17 1_555 1_555
C18 N3 1_555 1_555
H16 C18 1_555 1_555
Cd1 N3 1_555 1_555
O3 N5 1_555 1_555
O4 N5 1_555 1_555
N1A C5A 1_555 1_555
N2A C2A 1_555 1_555
C1A C1 1_555 1_555
N3A C2A 1_555 1_555
N3D Cd1 1_555 1_555
C2A H1A 1_555 1_555
N4A C5A 1_555 1_555
N4D Cd1 1_555 1_555
C3A H2A 1_555 1_555
N5D O1D 1_555 1_555
C4A C4 1_555 1_555
C5A H3A 1_555 1_555
C6A C3A 1_555 1_555
C7A N1A 1_555 1_555
H4A C7A 1_555 1_555
H5A C7A 1_555 1_555
C8A C4A 1_555 1_555
H6A C8A 1_555 1_555
C9A C6A 1_555 1_555
H7A C9A 1_555 1_555
N6A N1A 1_555 1_555
C10A C1A 1_555 1_555
H8A C10A 1_555 1_555
C11A N4A 1_555 1_555
H9A C11A 1_555 1_555
C12A C15A 1_555 1_555
C13A C4A 1_555 1_555
H10A C13A 1_555 1_555
C14A C1A 1_555 1_555
H11A C14A 1_555 1_555
C15A N2A 1_555 1_555
H12A C15A 1_555 1_555
H13A C15A 1_555 1_555
C16A C8A 1_555 1_555
H14A C16A 1_555 1_555
N7A N2A 1_555 1_555
C17A C12A 1_555 1_555
H15A C17A 1_555 1_555
C18A N3A 1_555 1_555
H16A C18A 1_555 1_555
Cd1A N4A 1_555 1_555
Cd1A_2 N3A 1_555 1_555
O3D Cd1 1_555 1_555
O4D N5D 1_555 1_555
N4 Cd1 1_555 1_555
C3 C14 1_555 1_555
C6 C7 1_555 1_555
N6 C11 1_555 1_555
C12 C16 1_555 1_555
C13 C17 1_555 1_555
N7 C18 1_555 1_555
Cd1 O3 1_555 1_555
C3A C14A 1_555 1_555
N5D O3D 1_555 1_555
C6A C7A 1_555 1_555
C9A C10A 1_555 1_555
N6A C11A 1_555 1_555
C12A C16A 1_555 1_555
C13A C17A 1_555 1_555
N7A C18A 1_555 1_555

#END
