
#######################################################################
#
#                 Cambridge Crystallographic Data Centre
#                                CCDC 
#
#######################################################################
#
# If this CIF has been generated from an entry in the Cambridge 
# Structural Database, then it will include bibliographic, chemical, 
# crystal, experimental, refinement or atomic coordinate data resulting 
# from the CCDC's data processing and validation procedures.
#
#######################################################################

data_TABZON
_symmetry_cell_setting           monoclinic
_symmetry_space_group_name_H-M   'C 2/m'
_symmetry_Int_Tables_number      12
_space_group_name_Hall           '-C 2y'
loop_
_symmetry_equiv_pos_site_id
_symmetry_equiv_pos_as_xyz
1 x,y,z
2 -x,y,-z
3 1/2+x,1/2+y,z
4 1/2-x,1/2+y,-z
5 -x,-y,-z
6 x,-y,z
7 1/2-x,1/2-y,-z
8 1/2+x,1/2-y,z
_cell_length_a                   22.443(19)
_cell_length_b                   12.176(11)
_cell_length_c                   7.998(7)
_cell_angle_alpha                90
_cell_angle_beta                 107.921(19)
_cell_angle_gamma                90
_cell_volume                     2079.54
loop_
_atom_site_label
_atom_site_type_symbol
_atom_site_fract_x
_atom_site_fract_y
_atom_site_fract_z
Cd1 Cd 0.0000 1.0000 0.0000
O1 O 0.1167(4) 1.0000 -0.3500(13)
N1 N -0.1385(2) 0.7915(3) -0.3820(5)
C1 C -0.1671(2) 0.6166(4) -0.5537(6)
N2 N -0.0756(2) 0.8726(3) -0.1538(6)
C2 C -0.1492(3) 0.5578(4) -0.4002(6)
H1 H -0.1368 0.5954 -0.2935
N3 N -0.1714(2) 0.7992(4) -0.2646(6)
C3 C -0.1870(2) 0.5586(4) -0.7190(6)
C4 C -0.1663(3) 0.7423(4) -0.5566(6)
H2 H -0.2089 0.7690 -0.6054
H3 H -0.1428 0.7660 -0.6333
C5 C -0.0824(2) 0.8356(4) -0.3158(7)
H4 H -0.0522 0.8402 -0.3733
C6 C -0.2261(3) 0.5585(5) -1.0397(6)
H5 H -0.2391 0.5966 -1.1452
C7 C -0.2069(3) 0.6141(4) -0.8841(7)
H6 H -0.2068 0.6905 -0.8853
C8 C -0.1314(3) 0.8487(5) -0.1307(8)
H7 H -0.1407 0.8660 -0.0280
N4 N 0.0741(4) 1.0000 -0.2880(10)
O5 O 0.0468(5) 0.9484(9) -0.2253(15)
Cd1_2 Cd 0.0000 0.0000 0.0000
O1A O -0.1167(4) 1.0000 0.3500(13)
N1E N -0.1385(2) 0.2085(3) -0.3820(5)
N1A N 0.1385(2) 0.7915(3) 0.3820(5)
N1D N 0.1385(2) 0.2085(3) 0.3820(5)
C1E C -0.1671(2) 0.3834(4) -0.5537(6)
C1A C 0.1671(2) 0.6166(4) 0.5537(6)
C1D C 0.1671(2) 0.3834(4) 0.5537(6)
N2E N -0.0756(2) 0.1274(3) -0.1538(6)
N2A N 0.0756(2) 0.8726(3) 0.1538(6)
N2D N 0.0756(2) 0.1274(3) 0.1538(6)
N2D_2 N 0.0756(2) 1.1274(3) 0.1538(6)
N2E_2 N -0.0756(2) 1.1274(3) -0.1538(6)
C2E C -0.1492(3) 0.4422(4) -0.4002(6)
C2A C 0.1492(3) 0.5578(4) 0.4002(6)
C2D C 0.1492(3) 0.4422(4) 0.4002(6)
H1E H -0.1368 0.4046 -0.2935
H1A H 0.1368 0.5954 0.2935
H1D H 0.1368 0.4046 0.2935
N3E N -0.1714(2) 0.2008(4) -0.2646(6)
N3A N 0.1714(2) 0.7992(4) 0.2646(6)
N3D N 0.1714(2) 0.2008(4) 0.2646(6)
C3E C -0.1870(2) 0.4414(4) -0.7190(6)
C3A C 0.1870(2) 0.5586(4) 0.7190(6)
C3D C 0.1870(2) 0.4414(4) 0.7190(6)
C4E C -0.1663(3) 0.2577(4) -0.5566(6)
C4A C 0.1663(3) 0.7423(4) 0.5566(6)
C4D C 0.1663(3) 0.2577(4) 0.5566(6)
H2E H -0.2089 0.2310 -0.6054
H2A H 0.2089 0.7690 0.6054
H2D H 0.2089 0.2310 0.6054
H3E H -0.1428 0.2340 -0.6333
H3A H 0.1428 0.7660 0.6333
H3D H 0.1428 0.2340 0.6333
C5E C -0.0824(2) 0.1644(4) -0.3158(7)
C5A C 0.0824(2) 0.8356(4) 0.3158(7)
C5D C 0.0824(2) 0.1644(4) 0.3158(7)
H4E H -0.0522 0.1598 -0.3733
H4A H 0.0522 0.8402 0.3733
H4D H 0.0522 0.1598 0.3733
C6E C -0.2261(3) 0.4415(5) -1.0397(6)
C6A C 0.2261(3) 0.5585(5) 1.0397(6)
C6D C 0.2261(3) 0.4415(5) 1.0397(6)
H5E H -0.2391 0.4034 -1.1452
H5A H 0.2391 0.5966 1.1452
H5D H 0.2391 0.4034 1.1452
C7E C -0.2069(3) 0.3859(4) -0.8841(7)
C7A C 0.2069(3) 0.6141(4) 0.8841(7)
C7D C 0.2069(3) 0.3859(4) 0.8841(7)
H6E H -0.2068 0.3095 -0.8853
H6A H 0.2068 0.6905 0.8853
H6D H 0.2068 0.3095 0.8853
C8E C -0.1314(3) 0.1513(5) -0.1307(8)
C8A C 0.1314(3) 0.8487(5) 0.1307(8)
C8D C 0.1314(3) 0.1513(5) 0.1307(8)
H7E H -0.1407 0.1340 -0.0280
H7A H 0.1407 0.8660 0.0280
H7D H 0.1407 0.1340 0.0280
N4A N -0.0741(4) 1.0000 0.2880(10)
O5E O 0.0468(5) 1.0516(9) -0.2253(15)
O5A O -0.0468(5) 0.9484(9) 0.2253(15)
O5D O -0.0468(5) 1.0516(9) 0.2253(15)
O2 O 0.0323(11) 0.3954(13) 0.920(3)
C9 C 0.0286(10) 0.3821(16) 0.756(9)
O3 O 0.0000 0.436(3) 0.5000
O4? O 0.0596(5) 1.1213(7) -0.2888(14)
loop_
_geom_bond_atom_site_label_1
_geom_bond_atom_site_label_2
_geom_bond_site_symmetry_1
_geom_bond_site_symmetry_2
Cd1 N2 1_555 1_555
O1 N4 1_555 1_555
N1 N3 1_555 1_555
C1 C2 1_555 1_555
N2 C5 1_555 1_555
C2 H1 1_555 1_555
N3 C8 1_555 1_555
C3 C1 1_555 1_555
C4 N1 1_555 1_555
H2 C4 1_555 1_555
H3 C4 1_555 1_555
C5 N1 1_555 1_555
H4 C5 1_555 1_555
C6 H5 1_555 1_555
C7 C3 1_555 1_555
H6 C7 1_555 1_555
C8 N2 1_555 1_555
H7 C8 1_555 1_555
N4 O5 1_555 1_555
O2 C9 1_555 1_555
O5 Cd1 1_555 1_555
Cd1_2 N2E 1_555 1_555
O1A N4A 1_555 1_555
N1E N3E 1_555 1_555
N1A N3A 1_555 1_555
N1D N3D 1_555 1_555
C1E C2E 1_555 1_555
C1A C2A 1_555 1_555
C1D C2D 1_555 1_555
N2E C5E 1_555 1_555
N2A Cd1 1_555 1_555
N2D Cd1_2 1_555 1_555
N2D_2 Cd1 1_555 1_555
N2E_2 Cd1 1_555 1_555
C2E C2 1_555 1_555
C2A C2D 1_555 1_555
C2D H1D 1_555 1_555
H1E C2E 1_555 1_555
H1A C2A 1_555 1_555
N3E C8E 1_555 1_555
N3A C8A 1_555 1_555
N3D C8D 1_555 1_555
C3E C3 1_555 1_555
C3A C1A 1_555 1_555
C3D C1D 1_555 1_555
C4E N1E 1_555 1_555
C4A N1A 1_555 1_555
C4D N1D 1_555 1_555
H2E C4E 1_555 1_555
H2A C4A 1_555 1_555
H2D C4D 1_555 1_555
H3E C4E 1_555 1_555
H3A C4A 1_555 1_555
H3D C4D 1_555 1_555
C5E N1E 1_555 1_555
C5A N1A 1_555 1_555
C5D N1D 1_555 1_555
H4E C5E 1_555 1_555
H4A C5A 1_555 1_555
H4D C5D 1_555 1_555
C6E C6 1_555 1_555
C6A C6D 1_555 1_555
C6D H5D 1_555 1_555
H5E C6E 1_555 1_555
H5A C6A 1_555 1_555
C7E C3E 1_555 1_555
C7A C3A 1_555 1_555
C7D C3D 1_555 1_555
H6E C7E 1_555 1_555
H6A C7A 1_555 1_555
H6D C7D 1_555 1_555
C8E N2E 1_555 1_555
C8A N2A 1_555 1_555
C8D N2D 1_555 1_555
H7E C8E 1_555 1_555
H7A C8A 1_555 1_555
H7D C8D 1_555 1_555
N4A O5A 1_555 1_555
O5E Cd1 1_555 1_555
O5A Cd1 1_555 1_555
O5D Cd1 1_555 1_555
C1 C4 1_555 1_555
C6 C7 1_555 1_555
N4 O5E 1_555 1_555
C1E C3E 1_555 1_555
C1E C4E 1_555 1_555
C1A C4A 1_555 1_555
C1D C4D 1_555 1_555
N2A C5A 1_555 1_555
N2D C5D 1_555 1_555
C3A C3D 1_555 1_555
C6E C7E 1_555 1_555
C6A C7A 1_555 1_555
C6D C7D 1_555 1_555
N4A O5D 1_555 1_555

#END
