
#######################################################################
#
#                 Cambridge Crystallographic Data Centre
#                                CCDC 
#
#######################################################################
#
# If this CIF has been generated from an entry in the Cambridge 
# Structural Database, then it will include bibliographic, chemical, 
# crystal, experimental, refinement or atomic coordinate data resulting 
# from the CCDC's data processing and validation procedures.
#
#######################################################################

data_TACBEF
_symmetry_cell_setting           monoclinic
_symmetry_space_group_name_H-M   'P 21/n'
_symmetry_Int_Tables_number      14
_space_group_name_Hall           '-P 2yn'
loop_
_symmetry_equiv_pos_site_id
_symmetry_equiv_pos_as_xyz
1 x,y,z
2 1/2-x,1/2+y,1/2-z
3 -x,-y,-z
4 1/2+x,1/2-y,1/2+z
_cell_length_a                   7.9600(10)
_cell_length_b                   11.225(2)
_cell_length_c                   8.7030(10)
_cell_angle_alpha                90
_cell_angle_beta                 107.570(10)
_cell_angle_gamma                90
_cell_volume                     741.345
loop_
_atom_site_label
_atom_site_type_symbol
_atom_site_fract_x
_atom_site_fract_y
_atom_site_fract_z
Ni1 Ni 1.0000 0.5000 1.0000
N1 N 1.1185(3) 0.2900(2) 0.6457(3)
H1 H 1.1607 0.2268 0.6155
N2 N 1.0247(3) 0.4129(2) 0.8008(3)
C1 C 1.0656(4) 0.3930(2) 0.5560(3)
C2 C 1.0030(4) 0.4694(3) 0.6535(4)
C3 C 1.0630(4) 0.4195(3) 0.4001(3)
H2 H 1.1026 0.3666 0.3364
C4 C 1.0905(4) 0.3083(3) 0.7911(3)
C5 C 1.1253(5) 0.2143(3) 0.9170(4)
H3 H 1.1744 0.2499 1.0213
H4 H 1.2070 0.1573 0.8985
H5 H 1.0169 0.1749 0.9128
O1 O 1.2130(3) 0.61621(18) 0.9975(2)
O2 O 1.2560(3) 0.4523(2) 1.1375(3)
C6 C 1.5017(5) 0.5834(4) 1.1790(5)
H6 H 1.5086 0.6340 1.2697
H7 H 1.5438 0.6259 1.1022
H8 H 1.5730 0.5138 1.2147
C7 C 1.3133(4) 0.5466(3) 1.1014(4)
C3B C 0.9370(4) 0.5805(3) 0.5999(3)
C1B C 0.9344(4) 0.6070(2) 0.4440(3)
N1B N 0.8815(3) 0.7100(2) 0.3543(3)
H1B H 0.8393 0.7732 0.3845
C4B C 0.9095(4) 0.6917(3) 0.2089(3)
N2B N 0.9753(3) 0.5871(2) 0.1992(3)
C2B C 0.9970(4) 0.5306(3) 0.3465(4)
C5B C 0.8747(5) 0.7857(3) 0.0830(4)
H3B H 0.8256 0.7501 -0.0213
H4B H 0.7930 0.8427 0.1015
H5B H 0.9831 0.8251 0.0872
H2B H 0.8974 0.6334 0.6636
O1B O 0.7870(3) 0.38379(18) 1.0025(2)
O2B O 0.7440(3) 0.5477(2) 0.8625(3)
C6B C 0.4983(5) 0.4166(4) 0.8210(5)
H6B H 0.4914 0.3660 0.7303
H7B H 0.4562 0.3741 0.8978
H8B H 0.4270 0.4862 0.7853
C7B C 0.6867(4) 0.4534(3) 0.8986(4)
N2B_2 N 0.9753(3) 0.5871(2) 1.1992(3)
Ni1_2 Ni 1.0000 0.5000 0.0000
loop_
_geom_bond_atom_site_label_1
_geom_bond_atom_site_label_2
_geom_bond_site_symmetry_1
_geom_bond_site_symmetry_2
Ni1 N2 1_555 1_555
N1 H1 1_555 1_555
N2 C2 1_555 1_555
C1 N1 1_555 1_555
C2 C1 1_555 1_555
C3 C1 1_555 1_555
H2 C3 1_555 1_555
C4 N1 1_555 1_555
C5 C4 1_555 1_555
H3 C5 1_555 1_555
H4 C5 1_555 1_555
H5 C5 1_555 1_555
O1 Ni1 1_555 1_555
O2 Ni1 1_555 1_555
C6 H6 1_555 1_555
H7 C6 1_555 1_555
H8 C6 1_555 1_555
C7 O1 1_555 1_555
C3B C2 1_555 1_555
C1B C3B 1_555 1_555
N1B C1B 1_555 1_555
H1B N1B 1_555 1_555
C4B N1B 1_555 1_555
N2B C4B 1_555 1_555
C2B C3 1_555 1_555
C5B C4B 1_555 1_555
H3B C5B 1_555 1_555
H4B C5B 1_555 1_555
H5B C5B 1_555 1_555
H2B C3B 1_555 1_555
O1B Ni1 1_555 1_555
O2B Ni1 1_555 1_555
C6B H6B 1_555 1_555
H7B C6B 1_555 1_555
H8B C6B 1_555 1_555
C7B O1B 1_555 1_555
N2B_2 Ni1 1_555 1_555
Ni1_2 N2B 1_555 1_555
N2 C4 1_555 1_555
O2 C7 1_555 1_555
C6 C7 1_555 1_555
C1B C2B 1_555 1_555
N2B C2B 1_555 1_555
O2B C7B 1_555 1_555
C6B C7B 1_555 1_555

#END
