
#######################################################################
#
#                 Cambridge Crystallographic Data Centre
#                                CCDC 
#
#######################################################################
#
# If this CIF has been generated from an entry in the Cambridge 
# Structural Database, then it will include bibliographic, chemical, 
# crystal, experimental, refinement or atomic coordinate data resulting 
# from the CCDC's data processing and validation procedures.
#
#######################################################################

data_TACDAD
_symmetry_cell_setting           tetragonal
_symmetry_space_group_name_H-M   'P 4/n c c'
_symmetry_Int_Tables_number      130
_space_group_name_Hall           '-P 4a 2ac'
loop_
_symmetry_equiv_pos_site_id
_symmetry_equiv_pos_as_xyz
1 x,y,z
2 1/2-y,x,z
3 y,1/2-x,z
4 1/2+y,1/2+x,1/2-z
5 1/2+x,1/2+y,-z
6 x,1/2-y,1/2+z
7 1/2-x,y,1/2+z
8 y,x,1/2+z
9 -x,-y,-z
10 1/2+y,-x,-z
11 -y,1/2+x,-z
12 1/2-y,1/2-x,1/2+z
13 1/2-x,1/2-y,z
14 -x,1/2+y,1/2-z
15 1/2+x,-y,1/2-z
16 -y,-x,1/2-z
_cell_length_a                   14.356(2)
_cell_length_b                   14.356(2)
_cell_length_c                   17.673(3)
_cell_angle_alpha                90
_cell_angle_beta                 90
_cell_angle_gamma                90
_cell_volume                     3642.31
loop_
_atom_site_label
_atom_site_type_symbol
_atom_site_fract_x
_atom_site_fract_y
_atom_site_fract_z
Fe1 Fe 0.55304(6) 0.05304(6) 0.2500
Fe2 Fe 0.2500 0.2500 0.26313(17)
O1 O 0.6243(3) 0.0935(3) 0.3342(3)
O2 O 0.2500 0.2500 0.1030(10)
N1 N 0.4842(4) -0.0415(4) 0.3222(4)
N2 N 0.4398(4) 0.1502(4) 0.2706(4)
N3 N 0.2500 0.2500 0.1704(6)
N4 N 0.2500 0.2500 0.4324(10)
C1 C 0.6417(5) 0.0529(5) 0.3992(4)
C2 C 0.7099(5) 0.0915(6) 0.4484(4)
H1 H 0.7415 0.1451 0.4339
C3 C 0.7298(5) 0.0516(6) 0.5159(5)
H2 H 0.7757 0.0784 0.5459
C4 C 0.6847(6) -0.0277(6) 0.5423(5)
H3 H 0.6990 -0.0538 0.5891
C5 C 0.6174(6) -0.0657(6) 0.4957(5)
H4 H 0.5864 -0.1192 0.5116
C6 C 0.5940(5) -0.0267(5) 0.4254(5)
C7 C 0.5152(6) -0.0678(6) 0.3866(5)
H5 H 0.4849 -0.1171 0.4104
C8 C 0.4008(7) -0.0855(8) 0.2904(5)
H6 H 0.3898 -0.1450 0.3149
H7 H 0.3469 -0.0461 0.2990
C9 C 0.3704(5) 0.1886(5) 0.2681(5)
C10 C 0.2500 0.2500 0.3707(8)
C8C C 0.4145(8) -0.0992(7) 0.2096(5)
N1C N 0.4585(4) -0.0158(4) 0.1778(4)
C7C C 0.4322(6) 0.0152(6) 0.1134(5)
C6C C 0.4733(5) 0.0940(5) 0.0746(5)
C1C C 0.5529(5) 0.1417(5) 0.1008(4)
O1C O 0.5935(3) 0.1243(3) 0.1658(3)
C2C C 0.5915(6) 0.2099(5) 0.0516(4)
H1C H 0.6451 0.2415 0.0661
C3C C 0.5516(6) 0.2298(5) -0.0159(5)
H2C H 0.5784 0.2757 -0.0459
C4C C 0.4723(6) 0.1847(6) -0.0423(5)
H3C H 0.4462 0.1990 -0.0891
C5C C 0.4343(6) 0.1174(6) 0.0043(5)
H4C H 0.3808 0.0864 -0.0116
H5C H 0.3829 -0.0151 0.0896
H6C H 0.3550 -0.1102 0.1851
H7C H 0.4539 -0.1531 0.2010
N2A N 0.3498(4) 0.4398(4) 0.2706(4)
C9A C 0.3114(5) 0.3704(5) 0.2681(5)
N2B N 0.1502(4) 0.0602(4) 0.2706(4)
C9B C 0.1886(5) 0.1296(5) 0.2681(5)
N2L N 0.0602(4) 0.3498(4) 0.2706(4)
C9L C 0.1296(5) 0.3114(5) 0.2681(5)
Fe1A Fe 0.44696(6) 0.55304(6) 0.2500
O1A O 0.4065(3) 0.6243(3) 0.3342(3)
N1A N 0.5415(4) 0.4842(4) 0.3222(4)
C1A C 0.4471(5) 0.6417(5) 0.3992(4)
C2A C 0.4085(6) 0.7099(5) 0.4484(4)
H1A H 0.3549 0.7415 0.4339
C3A C 0.4484(6) 0.7298(5) 0.5159(5)
H2A H 0.4216 0.7757 0.5459
C4A C 0.5277(6) 0.6847(6) 0.5423(5)
H3A H 0.5538 0.6990 0.5891
C5A C 0.5657(6) 0.6174(6) 0.4957(5)
H4A H 0.6192 0.5864 0.5116
C6A C 0.5267(5) 0.5940(5) 0.4254(5)
C7A C 0.5678(6) 0.5152(6) 0.3866(5)
H5A H 0.6171 0.4849 0.4104
C8A C 0.5855(8) 0.4008(7) 0.2904(5)
H6A H 0.6450 0.3898 0.3149
H7A H 0.5461 0.3469 0.2990
C8M C 0.5992(7) 0.4145(8) 0.2096(5)
N1M N 0.5158(4) 0.4585(4) 0.1778(4)
C7M C 0.4848(6) 0.4322(6) 0.1134(5)
C6M C 0.4060(5) 0.4733(5) 0.0746(5)
C1M C 0.3583(5) 0.5529(5) 0.1008(4)
O1M O 0.3757(3) 0.5935(3) 0.1658(3)
C2M C 0.2901(5) 0.5915(6) 0.0516(4)
H1M H 0.2585 0.6451 0.0661
C3M C 0.2702(5) 0.5516(6) -0.0159(5)
H2M H 0.2243 0.5784 -0.0459
C4M C 0.3153(6) 0.4723(6) -0.0423(5)
H3M H 0.3010 0.4462 -0.0891
C5M C 0.3826(6) 0.4343(6) 0.0043(5)
H4M H 0.4136 0.3808 -0.0116
H5M H 0.5151 0.3829 0.0896
H6M H 0.6102 0.3550 0.1851
H7M H 0.6531 0.4539 0.2010
N2C N 0.6502(4) -0.0602(4) 0.2294(4)
Fe1B Fe 0.05304(6) -0.05304(6) 0.2500
Fe1L Fe -0.05304(6) 0.44696(6) 0.2500
N2M N 0.5602(4) 0.6502(4) 0.2294(4)
loop_
_geom_bond_atom_site_label_1
_geom_bond_atom_site_label_2
_geom_bond_site_symmetry_1
_geom_bond_site_symmetry_2
Fe1 O1 1_555 1_555
Fe2 N3 1_555 1_555
O1 C1 1_555 1_555
O2 N3 1_555 1_555
N1 Fe1 1_555 1_555
N2 Fe1 1_555 1_555
N4 C10 1_555 1_555
C1 C2 1_555 1_555
C2 H1 1_555 1_555
C3 C2 1_555 1_555
H2 C3 1_555 1_555
C4 C3 1_555 1_555
H3 C4 1_555 1_555
C5 C4 1_555 1_555
H4 C5 1_555 1_555
C6 C1 1_555 1_555
C7 N1 1_555 1_555
H5 C7 1_555 1_555
C8 N1 1_555 1_555
H6 C8 1_555 1_555
H7 C8 1_555 1_555
C9 Fe2 1_555 1_555
C10 Fe2 1_555 1_555
C8C C8 1_555 1_555
N1C Fe1 1_555 1_555
C7C N1C 1_555 1_555
C6C C7C 1_555 1_555
C1C C6C 1_555 1_555
O1C Fe1 1_555 1_555
C2C C1C 1_555 1_555
H1C C2C 1_555 1_555
C3C C2C 1_555 1_555
H2C C3C 1_555 1_555
C4C C3C 1_555 1_555
H3C C4C 1_555 1_555
C5C C6C 1_555 1_555
H4C C5C 1_555 1_555
H5C C7C 1_555 1_555
H6C C8C 1_555 1_555
H7C C8C 1_555 1_555
N2A C9A 1_555 1_555
C9A Fe2 1_555 1_555
N2B C9B 1_555 1_555
C9B Fe2 1_555 1_555
N2L C9L 1_555 1_555
C9L Fe2 1_555 1_555
Fe1A N2A 1_555 1_555
O1A Fe1A 1_555 1_555
N1A Fe1A 1_555 1_555
C1A O1A 1_555 1_555
C2A C1A 1_555 1_555
H1A C2A 1_555 1_555
C3A C2A 1_555 1_555
H2A C3A 1_555 1_555
C4A C3A 1_555 1_555
H3A C4A 1_555 1_555
C5A C4A 1_555 1_555
H4A C5A 1_555 1_555
C6A C1A 1_555 1_555
C7A N1A 1_555 1_555
H5A C7A 1_555 1_555
C8A N1A 1_555 1_555
H6A C8A 1_555 1_555
H7A C8A 1_555 1_555
C8M C8A 1_555 1_555
N1M Fe1A 1_555 1_555
C7M N1M 1_555 1_555
C6M C7M 1_555 1_555
C1M C6M 1_555 1_555
O1M Fe1A 1_555 1_555
C2M C1M 1_555 1_555
H1M C2M 1_555 1_555
C3M C2M 1_555 1_555
H2M C3M 1_555 1_555
C4M C3M 1_555 1_555
H3M C4M 1_555 1_555
C5M C6M 1_555 1_555
H4M C5M 1_555 1_555
H5M C7M 1_555 1_555
H6M C8M 1_555 1_555
H7M C8M 1_555 1_555
N2C Fe1 1_555 1_555
Fe1B N2B 1_555 1_555
Fe1L N2L 1_555 1_555
N2M Fe1A 1_555 1_555
N2 C9 1_555 1_555
C5 C6 1_555 1_555
C6 C7 1_555 1_555
C8C N1C 1_555 1_555
C1C O1C 1_555 1_555
C4C C5C 1_555 1_555
C5A C6A 1_555 1_555
C6A C7A 1_555 1_555
C8M N1M 1_555 1_555
C1M O1M 1_555 1_555
C4M C5M 1_555 1_555

#END
