
#######################################################################
#
#                 Cambridge Crystallographic Data Centre
#                                CCDC 
#
#######################################################################
#
# If this CIF has been generated from an entry in the Cambridge 
# Structural Database, then it will include bibliographic, chemical, 
# crystal, experimental, refinement or atomic coordinate data resulting 
# from the CCDC's data processing and validation procedures.
#
#######################################################################

data_TACGIP
_symmetry_cell_setting           triclinic
_symmetry_space_group_name_H-M   'P -1'
_symmetry_Int_Tables_number      2
_space_group_name_Hall           '-P 1'
loop_
_symmetry_equiv_pos_site_id
_symmetry_equiv_pos_as_xyz
1 x,y,z
2 -x,-y,-z
_cell_length_a                   8.2653(3)
_cell_length_b                   11.4037(4)
_cell_length_c                   13.7104(4)
_cell_angle_alpha                78.3440(10)
_cell_angle_beta                 73.3940(10)
_cell_angle_gamma                71.7290(10)
_cell_volume                     1166.93
loop_
_atom_site_label
_atom_site_type_symbol
_atom_site_fract_x
_atom_site_fract_y
_atom_site_fract_z
Mn1 Mn -0.01334(5) 0.82667(4) 0.21658(3)
Mn2 Mn 0.17944(5) 1.04378(4) -0.01049(3)
C1 C 0.3731(4) 0.7801(2) 0.0816(2)
C2 C 0.5443(4) 0.6757(3) 0.0643(2)
H1 H 0.5492 0.6329 0.0087
H2 H 0.6425 0.7119 0.0437
C3 C 0.6921(4) 0.5696(3) 0.2017(2)
H3 H 0.7729 0.6159 0.1741
C4 C 0.4434(4) 0.5194(3) 0.1954(2)
H4 H 0.3536 0.5312 0.1632
C5 C 0.4529(4) 0.4354(3) 0.2827(2)
H5 H 0.3699 0.3906 0.3093
C6 C 0.7069(4) 0.4862(3) 0.2887(2)
H6 H 0.7983 0.4759 0.3192
C7 C 0.5865(4) 0.4179(3) 0.3307(2)
C8 C 0.5968(4) 0.3280(3) 0.4251(2)
C9 C 0.6716(4) 0.3450(3) 0.4993(2)
H7 H 0.7197 0.4115 0.4887
C10 C 0.5260(4) 0.2282(3) 0.4444(2)
H8 H 0.4752 0.2147 0.3968
C11 C 0.5308(4) 0.1494(3) 0.5339(2)
H9 H 0.4826 0.0827 0.5467
C12 C 0.6733(4) 0.2628(3) 0.5875(2)
H10 H 0.7231 0.2737 0.6367
C13 C 0.6026(3) 0.0808(3) 0.6996(2)
H11 H 0.6807 0.0938 0.7350
H12 H 0.6458 -0.0043 0.6837
C14 C 0.4181(3) 0.1007(2) 0.7700(2)
O1 O 0.3543(3) 0.85829(19) 0.00558(16)
O2 O 0.2703(3) 0.77709(19) 0.16777(15)
O3 O 0.4113(3) 0.0618(2) 0.86292(15)
O4 O 0.2925(3) 0.1506(2) 0.72993(16)
O5 O 0.2755(3) 1.1057(2) 0.09404(17)
H13 H 0.379(3) 1.069(3) 0.102(3)
H14 H 0.239(5) 1.174(2) 0.122(3)
N1 N -0.0192(4) 0.9231(4) 0.3402(2)
N2 N -0.0986(4) 0.9175(3) 0.4251(2)
N3 N -0.1779(5) 0.9134(4) 0.5099(3)
N4 N -0.0526(3) 1.0087(2) 0.11196(17)
N5 N -0.1505(6) 1.0999(4) 0.1642(3)
N6 N -0.2175(12) 1.1812(5) 0.2147(5)
N7 N -0.0316(3) 0.7630(2) 0.0686(2)
N8 N 0.0747(4) 0.6736(3) 0.0385(2)
N9 N 0.1798(7) 0.5852(4) 0.0131(4)
N10 N 0.0219(4) 0.6406(3) 0.3040(3)
N11 N -0.0707(4) 0.6184(3) 0.3830(2)
N12 N -0.1622(5) 0.5921(3) 0.4610(3)
N13 N 0.5621(3) 0.5843(2) 0.15646(18)
N14 N 0.6040(3) 0.1669(2) 0.60339(16)
Mn1A Mn 0.01334(5) 0.17333(4) 0.78342(3)
Mn2_2 Mn 0.17944(5) 0.04378(4) 0.98951(3)
Mn2A Mn -0.17944(5) 0.95622(4) 0.01049(3)
O3_2 O 0.4113(3) 1.0618(2) -0.13708(15)
O4A O -0.2925(3) 0.8494(2) 0.27007(16)
N4A N 0.0526(3) 0.9913(2) -0.11196(17)
N7A N 0.0316(3) 1.2370(2) -0.0686(2)
O6 O 0.1558(7) 1.3323(4) 0.1617(3)
H15 H 0.070(7) 1.376(4) 0.138(5)
H16 H 0.123(9) 1.315(6) 0.2283(12)
O7 O 0.0909(5) 1.3219(3) 0.3701(2)
H17 H 0.092(8) 1.366(4) 0.414(3)
H18 H 0.118(8) 1.245(2) 0.397(4)
loop_
_geom_bond_atom_site_label_1
_geom_bond_atom_site_label_2
_geom_bond_site_symmetry_1
_geom_bond_site_symmetry_2
Mn1 O2 1_555 1_555
Mn2 O1 1_555 1_555
C1 C2 1_555 1_555
C2 H1 1_555 1_555
H2 C2 1_555 1_555
C3 H3 1_555 1_555
C4 H4 1_555 1_555
C5 C4 1_555 1_555
H5 C5 1_555 1_555
C6 C3 1_555 1_555
H6 C6 1_555 1_555
C7 C5 1_555 1_555
C8 C7 1_555 1_555
C9 C8 1_555 1_555
H7 C9 1_555 1_555
C10 C8 1_555 1_555
H8 C10 1_555 1_555
C11 C10 1_555 1_555
H9 C11 1_555 1_555
C12 C9 1_555 1_555
H10 C12 1_555 1_555
C13 H11 1_555 1_555
H12 C13 1_555 1_555
C14 C13 1_555 1_555
O1 C1 1_555 1_555
O2 C1 1_555 1_555
O3 C14 1_555 1_555
O4 C14 1_555 1_555
O5 Mn2 1_555 1_555
H13 O5 1_555 1_555
H14 O5 1_555 1_555
N1 Mn1 1_555 1_555
N2 N1 1_555 1_555
N3 N2 1_555 1_555
N4 Mn1 1_555 1_555
N5 N4 1_555 1_555
N6 N5 1_555 1_555
N7 Mn1 1_555 1_555
N8 N7 1_555 1_555
N9 N8 1_555 1_555
N10 Mn1 1_555 1_555
N11 N10 1_555 1_555
N12 N11 1_555 1_555
N13 C2 1_555 1_555
N14 C11 1_555 1_555
O6 H15 1_555 1_555
H16 O6 1_555 1_555
O7 H17 1_555 1_555
H18 O7 1_555 1_555
Mn1A O4 1_555 1_555
Mn2_2 O3 1_555 1_555
Mn2A N4 1_555 1_555
O3_2 Mn2 1_555 1_555
O4A Mn1 1_555 1_555
N4A Mn2 1_555 1_555
N7A Mn2 1_555 1_555
Mn2 N4 1_555 1_555
C3 N13 1_555 1_555
C4 N13 1_555 1_555
C6 C7 1_555 1_555
C12 N14 1_555 1_555
C13 N14 1_555 1_555
N7 Mn2A 1_555 1_555
Mn2A N4A 1_555 1_555

#END
