
#######################################################################
#
#                 Cambridge Crystallographic Data Centre
#                                CCDC 
#
#######################################################################
#
# If this CIF has been generated from an entry in the Cambridge 
# Structural Database, then it will include bibliographic, chemical, 
# crystal, experimental, refinement or atomic coordinate data resulting 
# from the CCDC's data processing and validation procedures.
#
#######################################################################

data_TACKUE
_symmetry_cell_setting           monoclinic
_symmetry_space_group_name_H-M   'C 2/c'
_symmetry_Int_Tables_number      15
_space_group_name_Hall           '-C 2yn'
loop_
_symmetry_equiv_pos_site_id
_symmetry_equiv_pos_as_xyz
1 x,y,z
2 1/2+x,1/2+y,z
3 x,-y,1/2+z
4 1/2+x,1/2-y,1/2+z
5 -x,-y,-z
6 1/2-x,1/2-y,-z
7 -x,y,1/2-z
8 1/2-x,1/2+y,1/2-z
_cell_length_a                   35.1566(2)
_cell_length_b                   18.0237(1)
_cell_length_c                   16.1465(1)
_cell_angle_alpha                90
_cell_angle_beta                 114.9287(3)
_cell_angle_gamma                90
_cell_volume                     9278.05
loop_
_atom_site_label
_atom_site_type_symbol
_atom_site_fract_x
_atom_site_fract_y
_atom_site_fract_z
Ni1 Ni 0.039839(13) 0.29646(3) 0.41332(3)
Ni2 Ni 0.0000 0.29656(3) 0.2500
Mn1 Mn 0.2500 0.2500 1.0000
O1 O 0.07877(8) 0.29544(16) 0.54818(18)
O2 O 0.04102(10) 0.2895(2) 0.6290(2)
N1 N 0.08542(9) 0.24841(17) 0.3789(2)
N2 N 0.04972(9) 0.29679(16) 0.23335(19)
N3 N 0.01383(9) 0.34815(18) 0.09040(19)
N4 N 0.01145(10) 0.19282(18) 0.4017(2)
N5 N 0.0000 0.1919(2) 0.2500
N6 N 0.05967(9) 0.39961(17) 0.38604(19)
N7 N 0.0000 0.4013(2) 0.2500
N8 N 0.18915(9) 0.27513(18) 0.8660(2)
N9 N 0.28483(9) 0.25835(16) 0.92862(18)
N10 N 0.23879(9) 0.14276(16) 0.96255(19)
C1 C 0.11682(12) 0.2067(2) 0.4397(3)
H1 H 0.1175 0.1995 0.4986
C2 C 0.14761(13) 0.1744(3) 0.4213(3)
H2 H 0.1695 0.1466 0.4666
C3 C 0.14602(13) 0.1833(3) 0.3343(3)
H3 H 0.1667 0.1612 0.3189
C4 C 0.11404(11) 0.2248(2) 0.2709(3)
H4 H 0.1125 0.2308 0.2111
C5 C 0.08391(11) 0.2579(2) 0.2940(2)
C6 C 0.05113(10) 0.3392(2) 0.1640(2)
C7 C 0.08721(11) 0.3772(2) 0.1696(3)
H5 H 0.1133 0.3706 0.2211
C8 C 0.08439(12) 0.4237(3) 0.1003(3)
H6 H 0.1086 0.4489 0.1028
C9 C 0.04601(13) 0.4337(3) 0.0265(3)
H7 H 0.0434 0.4661 -0.0220
C10 C 0.01202(12) 0.3959(2) 0.0248(3)
H8 H -0.0143 0.4038 -0.0253
C11 C 0.00474(13) 0.1633(3) 0.4716(3)
H9 H 0.0144 0.1901 0.5274
C12 C -0.01516(17) 0.0974(3) 0.4661(4)
H10 H -0.0190 0.0785 0.5170
C13 C -0.02956(18) 0.0586(3) 0.3847(4)
H11 H -0.0432 0.0122 0.3796
C14 C -0.02424(15) 0.0868(2) 0.3111(3)
H12 H -0.0343 0.0606 0.2548
C15 C -0.00347(11) 0.1557(2) 0.3211(3)
C16 C 0.09824(11) 0.4270(2) 0.4406(3)
H13 H 0.1156 0.3995 0.4932
C17 C 0.11305(13) 0.4924(3) 0.4226(3)
H14 H 0.1401 0.5101 0.4622
C18 C 0.08806(14) 0.5323(3) 0.3462(3)
H15 H 0.0978 0.5781 0.3332
C19 C 0.04908(13) 0.5060(2) 0.2885(3)
H16 H 0.0316 0.5334 0.2359
C20 C 0.03554(11) 0.4377(2) 0.3088(2)
C21 C 0.07436(13) 0.2895(2) 0.6198(3)
C22 C 0.11519(12) 0.2834(2) 0.7060(3)
C23 C 0.15341(12) 0.2765(2) 0.7023(3)
H17 H 0.1552 0.2747 0.6452
C24 C 0.18940(12) 0.2721(2) 0.7837(3)
H18 H 0.2156 0.2667 0.7806
C25 C 0.11422(13) 0.2842(2) 0.7910(3)
H19 H 0.0883 0.2873 0.7959
C26 C 0.15167(12) 0.2805(2) 0.8683(3)
H20 H 0.1507 0.2819 0.9262
C27 C 0.30700(11) 0.3199(2) 0.9238(2)
C28 C 0.33023(13) 0.3025(2) 0.8716(3)
H21 H 0.3482 0.3351 0.8583
C29 C 0.32185(13) 0.2310(2) 0.8449(3)
H22 H 0.3330 0.2039 0.8098
C30 C 0.29307(11) 0.2036(2) 0.8791(2)
C31 C 0.27660(11) 0.1318(2) 0.8637(2)
C32 C 0.25102(11) 0.1041(2) 0.9033(2)
C33 C 0.23254(13) 0.0310(2) 0.8870(3)
H23 H 0.2357 -0.0061 0.8486
C34 C 0.20980(13) 0.0251(2) 0.9367(3)
H24 H 0.1945 -0.0172 0.9405
C35 C 0.21310(11) 0.0949(2) 0.9827(2)
C36 C 0.30802(11) 0.3888(2) 0.9633(3)
C37 C 0.28568(12) 0.0831(2) 0.7990(3)
C38 C 0.27538(17) 0.1064(3) 0.7099(3)
H25 H 0.2620 0.1530 0.6899
C39 C 0.2843(2) 0.0625(3) 0.6502(4)
H26 H 0.2778 0.0799 0.5901
C40 C 0.30254(19) -0.0059(3) 0.6763(4)
H27 H 0.3081 -0.0363 0.6345
C41 C 0.31266(15) -0.0298(3) 0.7641(4)
H28 H 0.3255 -0.0770 0.7831
C42 C 0.30439(13) 0.0138(2) 0.8252(3)
H29 H 0.3115 -0.0036 0.8854
C43 C 0.33432(13) 0.4490(2) 0.9484(3)
C44 C 0.31790(18) 0.4918(3) 0.8704(3)
H30 H 0.2899 0.4840 0.8265
C45 C 0.3426(2) 0.5466(4) 0.8561(4)
H31 H 0.3311 0.5757 0.8021
C46 C 0.38233(19) 0.5589(3) 0.9175(4)
H32 H 0.3986 0.5966 0.9068
C47 C 0.39913(17) 0.5168(3) 0.9952(5)
H33 H 0.4272 0.5253 1.0384
C48 C 0.37530(15) 0.4616(3) 1.0116(4)
H34 H 0.3871 0.4327 1.0657
C15F C 0.00347(11) 0.1557(2) 0.1789(3)
N4F N -0.01145(10) 0.19282(18) 0.0983(2)
C11F C -0.00474(13) 0.1633(3) 0.0284(3)
H9F H -0.0144 0.1901 -0.0274
C12F C 0.01516(17) 0.0974(3) 0.0339(4)
H10F H 0.0190 0.0785 -0.0170
C13F C 0.02956(18) 0.0586(3) 0.1153(4)
H11F H 0.0432 0.0122 0.1204
C14F C 0.02424(15) 0.0868(2) 0.1889(3)
H12F H 0.0343 0.0606 0.2452
C20F C -0.03554(11) 0.4377(2) 0.1912(2)
N6F N -0.05967(9) 0.39961(17) 0.11396(19)
C16F C -0.09824(11) 0.4270(2) 0.0594(3)
H13F H -0.1156 0.3995 0.0068
C17F C -0.11305(13) 0.4924(3) 0.0774(3)
H14F H -0.1401 0.5101 0.0378
C18F C -0.08806(14) 0.5323(3) 0.1538(3)
H15F H -0.0978 0.5781 0.1668
C19F C -0.04908(13) 0.5060(2) 0.2115(3)
H16F H -0.0316 0.5334 0.2641
C36E C 0.19198(11) 0.1112(2) 1.0367(3)
C27E C 0.19300(11) 0.1801(2) 1.0762(2)
N9E N 0.21517(9) 0.24165(16) 1.07138(18)
C30E C 0.20693(11) 0.2964(2) 1.1209(2)
C29E C 0.17815(13) 0.2690(2) 1.1551(3)
C28E C 0.16977(13) 0.1975(2) 1.1284(3)
H21E H 0.1518 0.1649 1.1417
H22E H 0.1670 0.2961 1.1902
C31E C 0.22340(11) 0.3682(2) 1.1363(2)
C32E C 0.24898(11) 0.3959(2) 1.0967(2)
N10E N 0.26121(9) 0.35724(16) 1.03745(19)
C35E C 0.28690(11) 0.4051(2) 1.0173(2)
C34E C 0.29020(13) 0.4749(2) 1.0633(3)
C33E C 0.26746(13) 0.4690(2) 1.1130(3)
H23E H 0.2643 0.5061 1.1514
H24E H 0.3055 0.5172 1.0595
C37E C 0.21432(12) 0.4169(2) 1.2010(3)
C38E C 0.22462(17) 0.3936(3) 1.2901(3)
H25E H 0.2380 0.3470 1.3101
C39E C 0.2157(2) 0.4375(3) 1.3498(4)
H26E H 0.2222 0.4201 1.4099
C40E C 0.19746(19) 0.5059(3) 1.3237(4)
H27E H 0.1919 0.5363 1.3655
C41E C 0.18734(15) 0.5298(3) 1.2359(4)
H28E H 0.1745 0.5770 1.2169
C42E C 0.19561(13) 0.4862(2) 1.1748(3)
H29E H 0.1885 0.5036 1.1146
C43E C 0.16568(13) 0.0510(2) 1.0516(3)
C44E C 0.18210(18) 0.0082(3) 1.1296(3)
H30E H 0.2101 0.0160 1.1735
C45E C 0.1574(2) -0.0466(4) 1.1439(4)
H31E H 0.1689 -0.0757 1.1979
C46E C 0.11767(19) -0.0589(3) 1.0825(4)
H32E H 0.1014 -0.0966 1.0932
C47E C 0.10087(17) -0.0168(3) 1.0048(5)
H33E H 0.0728 -0.0253 0.9616
C48E C 0.12470(15) 0.0384(3) 0.9884(4)
H34E H 0.1129 0.0673 0.9343
N1F N -0.08542(9) 0.24841(17) 0.1211(2)
N2F N -0.04972(9) 0.29679(16) 0.26665(19)
N3F N -0.01383(9) 0.34815(18) 0.40960(19)
C1F C -0.11682(12) 0.2067(2) 0.0603(3)
H1F H -0.1175 0.1995 0.0014
C2F C -0.14761(13) 0.1744(3) 0.0787(3)
H2F H -0.1695 0.1466 0.0334
C3F C -0.14602(13) 0.1833(3) 0.1657(3)
H3F H -0.1667 0.1612 0.1811
C4F C -0.11404(11) 0.2248(2) 0.2291(3)
H4F H -0.1125 0.2308 0.2889
C5F C -0.08391(11) 0.2579(2) 0.2060(2)
C6F C -0.05113(10) 0.3392(2) 0.3360(2)
C7F C -0.08721(11) 0.3772(2) 0.3304(3)
H5F H -0.1133 0.3706 0.2789
C8F C -0.08439(12) 0.4237(3) 0.3997(3)
H6F H -0.1086 0.4489 0.3972
C9F C -0.04601(13) 0.4337(3) 0.4735(3)
H7F H -0.0434 0.4661 0.5220
C10F C -0.01202(12) 0.3959(2) 0.4752(3)
H8F H 0.0143 0.4038 0.5253
Ni1F Ni -0.039839(13) 0.29646(3) 0.08668(3)
O1F O -0.07877(8) 0.29544(16) -0.04818(18)
O2F O -0.04102(10) 0.2895(2) -0.1290(2)
N8F N -0.18915(9) 0.27513(18) -0.3660(2)
C21F C -0.07436(13) 0.2895(2) -0.1198(3)
C22F C -0.11519(12) 0.2834(2) -0.2060(3)
C23F C -0.15341(12) 0.2765(2) -0.2023(3)
H17F H -0.1552 0.2747 -0.1452
C24F C -0.18940(12) 0.2721(2) -0.2837(3)
H18F H -0.2156 0.2667 -0.2806
C25F C -0.11422(13) 0.2842(2) -0.2910(3)
H19F H -0.0883 0.2873 -0.2959
C26F C -0.15167(12) 0.2805(2) -0.3683(3)
H20F H -0.1507 0.2819 -0.4262
N8E N 0.31085(9) 0.22487(18) 1.1340(2)
Mn1C Mn -0.2500 0.2500 -0.5000
Cl1 Cl 0.26934(6) 0.17500(11) 0.40889(14)
O3 O 0.2439(2) 0.1484(5) 0.3263(5)
O4 O 0.2773(3) 0.2457(4) 0.3925(6)
O5 O 0.30696(19) 0.1343(4) 0.4570(6)
O6 O 0.24719(18) 0.1733(4) 0.4592(5)
O7 O 0.0255(5) 0.1037(10) 0.7705(13)
H35 H 0.0414 0.1231 0.8210
C49 C 0.0619(5) 0.1104(9) 0.7491(11)
H36 H 0.0787 0.0642 0.7666
H37 H 0.0800 0.1517 0.7841
H38 H 0.0531 0.1192 0.6840
O8 O -0.0356(3) 0.2697(6) 0.6344(7)
H39 H -0.0273 0.3124 0.6406
C50 C -0.0683(2) 0.2570(4) 0.5424(5)
H40 H -0.0903 0.2943 0.5292
H41 H -0.0803 0.2073 0.5374
H42 H -0.0560 0.2620 0.4980
loop_
_geom_bond_atom_site_label_1
_geom_bond_atom_site_label_2
_geom_bond_site_symmetry_1
_geom_bond_site_symmetry_2
Ni1 Ni2 1_555 1_555
Ni2 N2 1_555 1_555
Mn1 N8 1_555 1_555
O1 Ni1 1_555 1_555
O2 C21 1_555 1_555
N1 Ni1 1_555 1_555
N2 C5 1_555 1_555
N3 C6 1_555 1_555
N4 Ni1 1_555 1_555
N5 Ni2 1_555 1_555
N6 Ni1 1_555 1_555
N7 Ni2 1_555 1_555
N8 C24 1_555 1_555
N9 Mn1 1_555 1_555
N10 Mn1 1_555 1_555
C1 N1 1_555 1_555
H1 C1 1_555 1_555
C2 C1 1_555 1_555
H2 C2 1_555 1_555
C3 C2 1_555 1_555
H3 C3 1_555 1_555
C4 C3 1_555 1_555
H4 C4 1_555 1_555
C5 N1 1_555 1_555
C6 N2 1_555 1_555
C7 C6 1_555 1_555
H5 C7 1_555 1_555
C8 C7 1_555 1_555
H6 C8 1_555 1_555
C9 C8 1_555 1_555
H7 C9 1_555 1_555
C10 N3 1_555 1_555
H8 C10 1_555 1_555
C11 N4 1_555 1_555
H9 C11 1_555 1_555
C12 C11 1_555 1_555
H10 C12 1_555 1_555
C13 C12 1_555 1_555
H11 C13 1_555 1_555
C14 C13 1_555 1_555
H12 C14 1_555 1_555
C15 N4 1_555 1_555
C16 N6 1_555 1_555
H13 C16 1_555 1_555
C17 C16 1_555 1_555
H14 C17 1_555 1_555
C18 C17 1_555 1_555
H15 C18 1_555 1_555
C19 C18 1_555 1_555
H16 C19 1_555 1_555
C20 N6 1_555 1_555
C21 O1 1_555 1_555
C22 C21 1_555 1_555
C23 C22 1_555 1_555
H17 C23 1_555 1_555
C24 C23 1_555 1_555
H18 C24 1_555 1_555
C25 C22 1_555 1_555
H19 C25 1_555 1_555
C26 N8 1_555 1_555
H20 C26 1_555 1_555
C27 N9 1_555 1_555
C28 C27 1_555 1_555
H21 C28 1_555 1_555
C29 C28 1_555 1_555
H22 C29 1_555 1_555
C30 N9 1_555 1_555
C31 C30 1_555 1_555
C32 N10 1_555 1_555
C33 C32 1_555 1_555
H23 C33 1_555 1_555
C34 C33 1_555 1_555
H24 C34 1_555 1_555
C35 N10 1_555 1_555
C36 C27 1_555 1_555
C37 C31 1_555 1_555
C38 C37 1_555 1_555
H25 C38 1_555 1_555
C39 C38 1_555 1_555
H26 C39 1_555 1_555
C40 C39 1_555 1_555
H27 C40 1_555 1_555
C41 C40 1_555 1_555
H28 C41 1_555 1_555
C42 C37 1_555 1_555
H29 C42 1_555 1_555
C43 C36 1_555 1_555
C44 C43 1_555 1_555
H30 C44 1_555 1_555
C45 C44 1_555 1_555
H31 C45 1_555 1_555
C46 C45 1_555 1_555
H32 C46 1_555 1_555
C47 C46 1_555 1_555
H33 C47 1_555 1_555
C48 C43 1_555 1_555
H34 C48 1_555 1_555
Cl1 O3 1_555 1_555
O4 Cl1 1_555 1_555
O5 Cl1 1_555 1_555
O6 Cl1 1_555 1_555
O7 H35 1_555 1_555
C49 O7 1_555 1_555
H36 C49 1_555 1_555
H37 C49 1_555 1_555
H38 C49 1_555 1_555
O8 H39 1_555 1_555
C50 O8 1_555 1_555
H40 C50 1_555 1_555
H41 C50 1_555 1_555
H42 C50 1_555 1_555
C15F N5 1_555 1_555
N4F C15F 1_555 1_555
C11F N4F 1_555 1_555
H9F C11F 1_555 1_555
C12F C11F 1_555 1_555
H10F C12F 1_555 1_555
C13F C12F 1_555 1_555
H11F C13F 1_555 1_555
C14F C15F 1_555 1_555
H12F C14F 1_555 1_555
C20F N7 1_555 1_555
N6F C20F 1_555 1_555
C16F N6F 1_555 1_555
H13F C16F 1_555 1_555
C17F C16F 1_555 1_555
H14F C17F 1_555 1_555
C18F C17F 1_555 1_555
H15F C18F 1_555 1_555
C19F C20F 1_555 1_555
H16F C19F 1_555 1_555
C36E C35 1_555 1_555
C27E C36E 1_555 1_555
N9E Mn1 1_555 1_555
C30E N9E 1_555 1_555
C29E C30E 1_555 1_555
C28E C27E 1_555 1_555
H21E C28E 1_555 1_555
H22E C29E 1_555 1_555
C31E C30E 1_555 1_555
C32E C31E 1_555 1_555
N10E Mn1 1_555 1_555
C35E C36 1_555 1_555
C34E C35E 1_555 1_555
C33E C32E 1_555 1_555
H23E C33E 1_555 1_555
H24E C34E 1_555 1_555
C37E C31E 1_555 1_555
C38E C37E 1_555 1_555
H25E C38E 1_555 1_555
C39E C38E 1_555 1_555
H26E C39E 1_555 1_555
C40E C39E 1_555 1_555
H27E C40E 1_555 1_555
C41E C40E 1_555 1_555
H28E C41E 1_555 1_555
C42E C37E 1_555 1_555
H29E C42E 1_555 1_555
C43E C36E 1_555 1_555
C44E C43E 1_555 1_555
H30E C44E 1_555 1_555
C45E C44E 1_555 1_555
H31E C45E 1_555 1_555
C46E C45E 1_555 1_555
H32E C46E 1_555 1_555
C47E C46E 1_555 1_555
H33E C47E 1_555 1_555
C48E C43E 1_555 1_555
H34E C48E 1_555 1_555
N1F C1F 1_555 1_555
N2F Ni2 1_555 1_555
N3F Ni1 1_555 1_555
C1F H1F 1_555 1_555
C2F C1F 1_555 1_555
H2F C2F 1_555 1_555
C3F C2F 1_555 1_555
H3F C3F 1_555 1_555
C4F C3F 1_555 1_555
H4F C4F 1_555 1_555
C5F N1F 1_555 1_555
C6F N2F 1_555 1_555
C7F C6F 1_555 1_555
H5F C7F 1_555 1_555
C8F C7F 1_555 1_555
H6F C8F 1_555 1_555
C9F C8F 1_555 1_555
H7F C9F 1_555 1_555
C10F N3F 1_555 1_555
H8F C10F 1_555 1_555
Ni1F Ni2 1_555 1_555
O1F Ni1F 1_555 1_555
O2F C21F 1_555 1_555
N8F C24F 1_555 1_555
C21F O1F 1_555 1_555
C22F C21F 1_555 1_555
C23F C22F 1_555 1_555
H17F C23F 1_555 1_555
C24F C23F 1_555 1_555
H18F C24F 1_555 1_555
C25F C22F 1_555 1_555
H19F C25F 1_555 1_555
C26F N8F 1_555 1_555
H20F C26F 1_555 1_555
N8E Mn1 1_555 1_555
Mn1C N8F 1_555 1_555
N3 Ni1F 1_555 1_555
N5 C15 1_555 1_555
N7 C20 1_555 1_555
C4 C5 1_555 1_555
C9 C10 1_555 1_555
C14 C15 1_555 1_555
C19 C20 1_555 1_555
C25 C26 1_555 1_555
C29 C30 1_555 1_555
C31 C32 1_555 1_555
C34 C35 1_555 1_555
C41 C42 1_555 1_555
C47 C48 1_555 1_555
N4F Ni1F 1_555 1_555
C13F C14F 1_555 1_555
N6F Ni1F 1_555 1_555
C18F C19F 1_555 1_555
C27E N9E 1_555 1_555
C29E C28E 1_555 1_555
C32E N10E 1_555 1_555
N10E C35E 1_555 1_555
C34E C33E 1_555 1_555
C41E C42E 1_555 1_555
C47E C48E 1_555 1_555
N1F Ni1F 1_555 1_555
N2F C5F 1_555 1_555
N3F C6F 1_555 1_555
C4F C5F 1_555 1_555
C9F C10F 1_555 1_555
C25F C26F 1_555 1_555

#END
