
#######################################################################
#
#                 Cambridge Crystallographic Data Centre
#                                CCDC 
#
#######################################################################
#
# If this CIF has been generated from an entry in the Cambridge 
# Structural Database, then it will include bibliographic, chemical, 
# crystal, experimental, refinement or atomic coordinate data resulting 
# from the CCDC's data processing and validation procedures.
#
#######################################################################

data_TACRAS01
_symmetry_cell_setting           triclinic
_symmetry_space_group_name_H-M   'P -1'
_symmetry_Int_Tables_number      2
_space_group_name_Hall           '-P 1'
loop_
_symmetry_equiv_pos_site_id
_symmetry_equiv_pos_as_xyz
1 x,y,z
2 -x,-y,-z
_cell_length_a                   10.1872(15)
_cell_length_b                   11.8862(17)
_cell_length_c                   15.811(2)
_cell_angle_alpha                83.433(3)
_cell_angle_beta                 86.957(3)
_cell_angle_gamma                80.850(3)
_cell_volume                     1876.56
loop_
_atom_site_label
_atom_site_type_symbol
_atom_site_fract_x
_atom_site_fract_y
_atom_site_fract_z
Cl6 Cl 0.7118(19) 0.3758(14) -0.0498(11)
Ru1 Ru 0.44338(3) 0.07891(3) -0.03706(2)
Ru2 Ru 0.04238(3) 0.48201(3) -0.43362(2)
Cl1 Cl 1.00418(13) -0.12466(13) -0.06142(10)
Cl2 Cl 0.5932(2) -0.1036(2) -0.29301(14)
Cl3 Cl 0.3280(2) 0.5314(2) -0.75155(14)
Cl4 Cl 0.0522(2) 0.8310(2) -0.33615(17)
O1 O 0.6140(3) 0.1089(2) -0.1004(2)
O2 O 0.7270(3) -0.0462(2) -0.0284(2)
O3 O 0.4082(3) -0.0198(2) -0.1279(2)
O4 O 0.5193(3) -0.1756(2) -0.0553(2)
O5 O 0.2189(3) 0.5262(3) -0.4821(2)
O6 O 0.1363(3) 0.5613(3) -0.6124(2)
O7 O -0.0226(3) 0.6490(3) -0.4148(2)
O8 O -0.1036(3) 0.6854(3) -0.5453(2)
O9 O -0.0591(3) 0.5833(3) -0.1653(2)
N1 N 0.3251(4) 0.2314(3) -0.1054(2)
N2 N 0.1098(3) 0.4482(3) -0.2996(2)
C1 C 0.7227(4) 0.0402(4) -0.0839(3)
C2 C 0.8434(4) 0.0680(4) -0.1318(3)
C3 C 0.8308(5) 0.1707(5) -0.1872(3)
C4 C 0.9370(5) 0.2087(5) -0.2337(4)
C5 C 1.0610(6) 0.1422(5) -0.2260(4)
C6 C 1.0792(5) 0.0391(5) -0.1727(4)
C7 C 0.9701(5) 0.0038(4) -0.1260(3)
C8 C 0.4526(4) -0.1266(4) -0.1174(3)
C9 C 0.4170(5) -0.1983(4) -0.1821(3)
C10 C 0.4694(8) -0.1909(6) -0.2634(4)
C11 C 0.4368(12) -0.2603(8) -0.3228(5)
C12 C 0.3421(10) -0.3312(7) -0.2980(6)
C13 C 0.2882(9) -0.3385(8) -0.2169(7)
C14 C 0.3291(7) -0.2729(6) -0.1590(5)
C15 C 0.2283(4) 0.5582(4) -0.5608(3)
C16 C 0.3524(4) 0.5987(4) -0.5951(3)
C17 C 0.4279(7) 0.6421(8) -0.5377(5)
C18 C 0.5408(7) 0.6894(8) -0.5671(6)
C19 C 0.5836(6) 0.6904(6) -0.6485(5)
C20 C 0.5157(7) 0.6417(7) -0.7042(6)
C21 C 0.4025(6) 0.5948(5) -0.6774(4)
C22 C -0.0787(4) 0.7173(4) -0.4744(3)
C23 C -0.1180(6) 0.8386(4) -0.4591(3)
C24 C -0.0653(8) 0.8859(6) -0.3956(5)
C25 C -0.1139(16) 1.0039(11) -0.3851(9)
C26 C -0.2137(19) 1.0669(9) -0.4394(15)
C27 C -0.2613(19) 1.0132(12) -0.4954(12)
C28 C -0.2138(8) 0.9095(7) -0.5089(5)
C29 C 0.2393(4) 0.3057(4) -0.1224(2)
C30 C 0.1366(4) 0.3966(3) -0.1403(2)
C31 C 0.1166(4) 0.4282(3) -0.2277(3)
C32 C 0.0649(4) 0.4497(3) -0.0695(2)
C33 C -0.0981(4) 0.5955(4) -0.0140(2)
C34 C -0.0344(4) 0.5452(4) -0.0832(3)
C35 C -0.1617(5) 0.6784(4) -0.1851(3)
H1 H 0.7460 0.2164 -0.1926
H2 H 0.9256 0.2793 -0.2702
H3 H 1.1345 0.1683 -0.2575
H4 H 1.1654 -0.0077 -0.1682
H5 H 0.4768 -0.2577 -0.3783
H6 H 0.3138 -0.3754 -0.3383
H7 H 0.2234 -0.3894 -0.1994
H8 H 0.2966 -0.2796 -0.1030
H9 H 0.4033 0.6392 -0.4778
H10 H 0.5886 0.7214 -0.5282
H11 H 0.6602 0.7248 -0.6673
H12 H 0.5459 0.6407 -0.7628
H13 H -0.0793 1.0419 -0.3445
H14 H -0.2459 1.1445 -0.4338
H15 H -0.3291 1.0561 -0.5301
H16 H -0.1656 0.6607 -0.0232
H17 H -0.2381 0.6700 -0.1493
H18 H -0.1852 0.6808 -0.2432
H19 H -0.1313 0.7476 -0.1774
Ru1A Ru 0.55662(3) -0.07891(3) 0.03706(2)
Ru1A_2 Ru -0.44338(3) 0.92109(3) 0.03706(2)
Ru2A Ru -0.04238(3) 0.51799(3) 0.43362(2)
Ru2A_2 Ru -0.04238(3) 0.51799(3) -0.56638(2)
Ru2_2 Ru 0.04238(3) 0.48201(3) 0.56638(2)
Cl1A Cl -0.00418(13) 0.12466(13) 0.06142(10)
Cl2A Cl 0.4068(2) 0.1036(2) 0.29301(14)
Cl3A Cl -0.3280(2) 0.4686(2) -0.24845(14)
Cl4A Cl -0.0522(2) 0.1690(2) -0.66385(17)
O1A O 0.3860(3) -0.1089(2) 0.1004(2)
O2A O 0.2730(3) 0.0462(2) 0.0284(2)
O3A O 0.5918(3) 0.0198(2) 0.1279(2)
O4A O 0.4807(3) 0.1756(2) 0.0553(2)
O5A O -0.2189(3) 0.4738(3) -0.5179(2)
O5A_2 O -0.2189(3) 0.4738(3) 0.4821(2)
O6A O -0.1363(3) 0.4387(3) -0.3876(2)
O6_2 O 0.1363(3) 0.5613(3) 0.3876(2)
O7A O 0.0226(3) 0.3510(3) -0.5852(2)
O7A_2 O 0.0226(3) 0.3510(3) 0.4148(2)
O8A O 0.1036(3) 0.3146(3) -0.4547(2)
O8_2 O -0.1036(3) 0.6854(3) 0.4547(2)
O9A O 0.0591(3) 0.4167(3) 0.1653(2)
N1A N -0.3251(4) 0.7686(3) 0.1054(2)
N1A_2 N 0.6749(4) -0.2314(3) 0.1054(2)
N2A N -0.1098(3) 0.5518(3) 0.2996(2)
C1A C 0.2773(4) -0.0402(4) 0.0839(3)
C2A C 0.1566(4) -0.0680(4) 0.1318(3)
C3A C 0.1692(5) -0.1707(5) 0.1872(3)
C4A C 0.0630(5) -0.2087(5) 0.2337(4)
C5A C -0.0610(6) -0.1422(5) 0.2260(4)
C6A C -0.0792(5) -0.0391(5) 0.1727(4)
C7A C 0.0299(5) -0.0038(4) 0.1260(3)
C8A C 0.5474(4) 0.1266(4) 0.1174(3)
C9A C 0.5830(5) 0.1983(4) 0.1821(3)
C10A C 0.5306(8) 0.1909(6) 0.2634(4)
C11A C 0.5632(12) 0.2603(8) 0.3228(5)
C12A C 0.6579(10) 0.3312(7) 0.2980(6)
C13A C 0.7118(9) 0.3385(8) 0.2169(7)
C14A C 0.6709(7) 0.2729(6) 0.1590(5)
C15A C -0.2283(4) 0.4418(4) -0.4392(3)
C16A C -0.3524(4) 0.4013(4) -0.4049(3)
C17A C -0.4279(7) 0.3579(8) -0.4623(5)
C18A C -0.5408(7) 0.3106(8) -0.4329(6)
C19A C -0.5836(6) 0.3096(6) -0.3515(5)
C20A C -0.5157(7) 0.3583(7) -0.2958(6)
C21A C -0.4025(6) 0.4052(5) -0.3226(4)
C22A C 0.0787(4) 0.2827(4) -0.5256(3)
C23A C 0.1180(6) 0.1614(4) -0.5409(3)
C24A C 0.0653(8) 0.1141(6) -0.6044(5)
C25A C 0.1139(16) -0.0039(11) -0.6149(9)
C26A C 0.2137(19) -0.0669(9) -0.5606(15)
C27A C 0.2613(19) -0.0132(12) -0.5046(12)
C28A C 0.2138(8) 0.0905(7) -0.4911(5)
C29A C -0.2393(4) 0.6943(4) 0.1224(2)
C30A C -0.1366(4) 0.6034(3) 0.1403(2)
C31A C -0.1166(4) 0.5718(3) 0.2277(3)
C32A C -0.0649(4) 0.5503(3) 0.0695(2)
C33A C 0.0981(4) 0.4045(4) 0.0140(2)
C34A C 0.0344(4) 0.4548(4) 0.0832(3)
C35A C 0.1617(5) 0.3216(4) 0.1851(3)
H1A H 0.2540 -0.2164 0.1926
H2A H 0.0744 -0.2793 0.2702
H3A H -0.1345 -0.1683 0.2575
H4A H -0.1654 0.0077 0.1682
H5A H 0.5232 0.2577 0.3783
H6A H 0.6862 0.3754 0.3383
H7A H 0.7766 0.3894 0.1994
H8A H 0.7034 0.2796 0.1030
H9A H -0.4033 0.3608 -0.5222
H10A H -0.5886 0.2786 -0.4718
H11A H -0.6602 0.2752 -0.3327
H12A H -0.5459 0.3593 -0.2372
H13A H 0.0793 -0.0419 -0.6555
H14A H 0.2459 -0.1445 -0.5662
H15A H 0.3291 -0.0561 -0.4699
H16A H 0.1656 0.3393 0.0232
H17A H 0.2381 0.3300 0.1493
H18A H 0.1852 0.3192 0.2432
H19A H 0.1313 0.2524 0.1774
Cl5? Cl 0.4999(5) 0.5445(5) 0.0405(5)
Cl7? Cl 0.6376(11) 0.4809(10) -0.0295(4)
C36? C 0.4999(5) 0.5445(5) 0.0405(5)
Cl8? Cl 0.2787(5) 0.0932(4) 0.5858(3)
loop_
_geom_bond_atom_site_label_1
_geom_bond_atom_site_label_2
_geom_bond_site_symmetry_1
_geom_bond_site_symmetry_2
Ru1 O1 1_555 1_555
Ru2 O5 1_555 1_555
Cl1 C7 1_555 1_555
Cl2 C10 1_555 1_555
Cl3 C21 1_555 1_555
Cl4 C24 1_555 1_555
O1 C1 1_555 1_555
O2 C1 1_555 1_555
O3 Ru1 1_555 1_555
O4 C8 1_555 1_555
O5 C15 1_555 1_555
O6 C15 1_555 1_555
O7 Ru2 1_555 1_555
O8 C22 1_555 1_555
O9 C34 1_555 1_555
N1 Ru1 1_555 1_555
N2 Ru2 1_555 1_555
C1 C2 1_555 1_555
C2 C3 1_555 1_555
C3 C4 1_555 1_555
C4 C5 1_555 1_555
C5 C6 1_555 1_555
C6 C7 1_555 1_555
C7 C2 1_555 1_555
C8 O3 1_555 1_555
C9 C8 1_555 1_555
C10 C9 1_555 1_555
C11 C10 1_555 1_555
C12 C11 1_555 1_555
C13 C12 1_555 1_555
C14 C9 1_555 1_555
C15 C16 1_555 1_555
C16 C17 1_555 1_555
C17 C18 1_555 1_555
C18 C19 1_555 1_555
C19 C20 1_555 1_555
C20 C21 1_555 1_555
C21 C16 1_555 1_555
C22 O7 1_555 1_555
C23 C22 1_555 1_555
C24 C23 1_555 1_555
C25 C24 1_555 1_555
C26 C25 1_555 1_555
C27 C26 1_555 1_555
C28 C23 1_555 1_555
C29 N1 1_555 1_555
C30 C29 1_555 1_555
C31 N2 1_555 1_555
C32 C30 1_555 1_555
C33 C34 1_555 1_555
C34 C32 1_555 1_555
C35 O9 1_555 1_555
H1 C3 1_555 1_555
H2 C4 1_555 1_555
H3 C5 1_555 1_555
H4 C6 1_555 1_555
H5 C11 1_555 1_555
H6 C12 1_555 1_555
H7 C13 1_555 1_555
H8 C14 1_555 1_555
H9 C17 1_555 1_555
H10 C18 1_555 1_555
H11 C19 1_555 1_555
H12 C20 1_555 1_555
H13 C25 1_555 1_555
H14 C26 1_555 1_555
H15 C27 1_555 1_555
H16 C33 1_555 1_555
H17 C35 1_555 1_555
H18 C35 1_555 1_555
H19 C35 1_555 1_555
Ru1A Ru1 1_555 1_555
Ru1A_2 N1A 1_555 1_555
Ru2A Ru2_2 1_555 1_555
Ru2A_2 Ru2 1_555 1_555
Cl1A C7A 1_555 1_555
Cl2A C10A 1_555 1_555
Cl3A C21A 1_555 1_555
Cl4A C24A 1_555 1_555
O1A Ru1A 1_555 1_555
O2A Ru1 1_555 1_555
O3A Ru1A 1_555 1_555
O4A Ru1 1_555 1_555
O5A Ru2A_2 1_555 1_555
O5A_2 Ru2A 1_555 1_555
O6A Ru2 1_555 1_555
O6_2 Ru2A 1_555 1_555
O7A Ru2A_2 1_555 1_555
O7A_2 Ru2A 1_555 1_555
O8A Ru2 1_555 1_555
O8_2 Ru2A 1_555 1_555
O9A C34A 1_555 1_555
N1A C29A 1_555 1_555
N1A_2 Ru1A 1_555 1_555
N2A Ru2A 1_555 1_555
C1A O1A 1_555 1_555
C2A C1A 1_555 1_555
C3A C2A 1_555 1_555
C4A C3A 1_555 1_555
C5A C4A 1_555 1_555
C6A C5A 1_555 1_555
C7A C2A 1_555 1_555
C8A O3A 1_555 1_555
C9A C8A 1_555 1_555
C10A C9A 1_555 1_555
C11A C10A 1_555 1_555
C12A C11A 1_555 1_555
C13A C12A 1_555 1_555
C14A C9A 1_555 1_555
C15A O5A 1_555 1_555
C16A C15A 1_555 1_555
C17A C16A 1_555 1_555
C18A C17A 1_555 1_555
C19A C18A 1_555 1_555
C20A C19A 1_555 1_555
C21A C16A 1_555 1_555
C22A O7A 1_555 1_555
C23A C22A 1_555 1_555
C24A C23A 1_555 1_555
C25A C24A 1_555 1_555
C26A C25A 1_555 1_555
C27A C26A 1_555 1_555
C28A C23A 1_555 1_555
C29A C30A 1_555 1_555
C30A C31A 1_555 1_555
C31A N2A 1_555 1_555
C32A C33 1_555 1_555
C33A C32 1_555 1_555
C34A C32A 1_555 1_555
C35A O9A 1_555 1_555
H1A C3A 1_555 1_555
H2A C4A 1_555 1_555
H3A C5A 1_555 1_555
H4A C6A 1_555 1_555
H5A C11A 1_555 1_555
H6A C12A 1_555 1_555
H7A C13A 1_555 1_555
H8A C14A 1_555 1_555
H9A C17A 1_555 1_555
H10A C18A 1_555 1_555
H11A C19A 1_555 1_555
H12A C20A 1_555 1_555
H13A C25A 1_555 1_555
H14A C26A 1_555 1_555
H15A C27A 1_555 1_555
H16A C33A 1_555 1_555
H17A C35A 1_555 1_555
H18A C35A 1_555 1_555
H19A C35A 1_555 1_555
O2 Ru1A 1_555 1_555
O4 Ru1A 1_555 1_555
O6 Ru2A_2 1_555 1_555
O8 Ru2A_2 1_555 1_555
C13 C14 1_555 1_555
C27 C28 1_555 1_555
C30 C31 1_555 1_555
O2A C1A 1_555 1_555
O4A C8A 1_555 1_555
O6A C15A 1_555 1_555
O8A C22A 1_555 1_555
C6A C7A 1_555 1_555
C13A C14A 1_555 1_555
C20A C21A 1_555 1_555
C27A C28A 1_555 1_555
C30A C32A 1_555 1_555
C33A C34A 1_555 1_555

#END
