
#######################################################################
#
#                 Cambridge Crystallographic Data Centre
#                                CCDC 
#
#######################################################################
#
# If this CIF has been generated from an entry in the Cambridge 
# Structural Database, then it will include bibliographic, chemical, 
# crystal, experimental, refinement or atomic coordinate data resulting 
# from the CCDC's data processing and validation procedures.
#
#######################################################################

data_TACYIH
_symmetry_cell_setting           monoclinic
_symmetry_space_group_name_H-M   'C 2/c'
_symmetry_Int_Tables_number      15
_space_group_name_Hall           '-C 2yn'
loop_
_symmetry_equiv_pos_site_id
_symmetry_equiv_pos_as_xyz
1 x,y,z
2 -x,y,1/2-z
3 1/2+x,1/2+y,z
4 1/2-x,1/2+y,1/2-z
5 -x,-y,-z
6 x,-y,1/2+z
7 1/2-x,1/2-y,-z
8 1/2+x,1/2-y,1/2+z
_cell_length_a                   15.8618(4)
_cell_length_b                   6.4886(2)
_cell_length_c                   16.1829(5)
_cell_angle_alpha                90
_cell_angle_beta                 109.0290(10)
_cell_angle_gamma                90
_cell_volume                     1574.54
loop_
_atom_site_label
_atom_site_type_symbol
_atom_site_fract_x
_atom_site_fract_y
_atom_site_fract_z
Ag1 Ag 0.2500 1.2500 0.0000
N1 N 0.22429(15) 0.9840(4) 0.06558(15)
N2 N 0.19907(16) 0.6172(4) 0.14199(15)
N3 N 0.09336(14) 0.5102(4) 0.01345(14)
C1 C 0.16270(18) 0.8488(4) 0.02143(18)
H1 H 0.1271 0.8794 -0.0354
C2 C 0.15062(17) 0.6601(4) 0.05955(16)
C3 C 0.2595(2) 0.7561(5) 0.1842(2)
H2 H 0.2942 0.7279 0.2416
C4 C 0.2735(2) 0.9382(5) 0.14801(19)
H3 H 0.3169 1.0296 0.1804
C5 C 0.02780(18) 0.5566(5) -0.07180(16)
H4 H 0.0147 0.4324 -0.1070
H5 H 0.0524 0.6574 -0.1019
C6 C 0.05762(18) 0.3596(4) 0.06149(19)
H6 H 0.1011 0.3342 0.1186
H7 H 0.0456 0.2302 0.0298
Ag1B Ag -0.2500 -0.2500 0.0000
N1D N -0.22429(15) 0.0160(4) -0.06558(15)
N1F N 0.27571(15) 1.5160(4) -0.06558(15)
N2D N -0.19907(16) 0.3828(4) -0.14199(15)
N3D N -0.09336(14) 0.4898(4) -0.01345(14)
C1D C -0.16270(18) 0.1512(4) -0.02143(18)
H1D H -0.1271 0.1206 0.0354
C2D C -0.15062(17) 0.3399(4) -0.05955(16)
C3D C -0.2595(2) 0.2439(5) -0.1842(2)
H2D H -0.2942 0.2721 -0.2416
C4D C -0.2735(2) 0.0618(5) -0.14801(19)
H3D H -0.3169 -0.0296 -0.1804
C5D C -0.02780(18) 0.4434(5) 0.07180(16)
H4D H -0.0147 0.5676 0.1070
H5D H -0.0524 0.3426 0.1019
C6D C -0.05762(18) 0.6404(4) -0.06149(19)
H6D H -0.1011 0.6658 -0.1186
H7D H -0.0456 0.7698 -0.0298
P1 P 0.0000 0.93188(17) 0.2500
F1 F 0.09234(18) 0.9290(5) 0.32596(16)
F2 F 0.0462(2) 0.9331(4) 0.17705(15)
F3 F 0.0000 0.6883(5) 0.2500
F4 F 0.0000 1.1741(5) 0.2500
F1A F -0.09234(18) 0.9290(5) 0.17404(16)
F2A F -0.0462(2) 0.9331(4) 0.32295(15)
loop_
_geom_bond_atom_site_label_1
_geom_bond_atom_site_label_2
_geom_bond_site_symmetry_1
_geom_bond_site_symmetry_2
Ag1 N1 1_555 1_555
N1 C1 1_555 1_555
N2 C2 1_555 1_555
N3 C2 1_555 1_555
C1 H1 1_555 1_555
C2 C1 1_555 1_555
C3 N2 1_555 1_555
H2 C3 1_555 1_555
C4 N1 1_555 1_555
H3 C4 1_555 1_555
C5 N3 1_555 1_555
H4 C5 1_555 1_555
H5 C5 1_555 1_555
C6 N3 1_555 1_555
H6 C6 1_555 1_555
H7 C6 1_555 1_555
P1 F1 1_555 1_555
F2 P1 1_555 1_555
F3 P1 1_555 1_555
F4 P1 1_555 1_555
Ag1B N1D 1_555 1_555
N1D C1D 1_555 1_555
N1F Ag1 1_555 1_555
N2D C2D 1_555 1_555
N3D C2D 1_555 1_555
C1D H1D 1_555 1_555
C2D C1D 1_555 1_555
C3D N2D 1_555 1_555
H2D C3D 1_555 1_555
C4D N1D 1_555 1_555
H3D C4D 1_555 1_555
C5D C6 1_555 1_555
H4D C5D 1_555 1_555
H5D C5D 1_555 1_555
C6D C5 1_555 1_555
H6D C6D 1_555 1_555
H7D C6D 1_555 1_555
F1A P1 1_555 1_555
F2A P1 1_555 1_555
C3 C4 1_555 1_555
N3D C5D 1_555 1_555
N3D C6D 1_555 1_555
C3D C4D 1_555 1_555

#END
