
#######################################################################
#
#                 Cambridge Crystallographic Data Centre
#                                CCDC 
#
#######################################################################
#
# If this CIF has been generated from an entry in the Cambridge 
# Structural Database, then it will include bibliographic, chemical, 
# crystal, experimental, refinement or atomic coordinate data resulting 
# from the CCDC's data processing and validation procedures.
#
#######################################################################

data_TACZAA
_symmetry_cell_setting           monoclinic
_symmetry_space_group_name_H-M   'C 2/c'
_symmetry_Int_Tables_number      15
_space_group_name_Hall           '-C 2yn'
loop_
_symmetry_equiv_pos_site_id
_symmetry_equiv_pos_as_xyz
1 x,y,z
2 -x,y,1/2-z
3 1/2+x,1/2+y,z
4 1/2-x,1/2+y,1/2-z
5 -x,-y,-z
6 x,-y,1/2+z
7 1/2-x,1/2-y,-z
8 1/2+x,1/2-y,1/2+z
_cell_length_a                   12.595(3)
_cell_length_b                   10.732(2)
_cell_length_c                   10.892(2)
_cell_angle_alpha                90
_cell_angle_beta                 108.52(3)
_cell_angle_gamma                90
_cell_volume                     1396.02
loop_
_atom_site_label
_atom_site_type_symbol
_atom_site_fract_x
_atom_site_fract_y
_atom_site_fract_z
Ag1 Ag 0.0000 0.199807(16) 0.7500
N1 N 0.19890(12) -0.13113(13) 0.49599(13)
N2 N 0.09001(12) 0.14600(13) 0.61172(13)
N3 N 0.16829(12) 0.06946(14) 0.41214(14)
C1 C 0.29339(14) -0.14857(16) 0.44567(16)
H1 H 0.3629 -0.1296 0.5133
H2 H 0.2859 -0.0914 0.3744
C2 C 0.20277(14) -0.21895(15) 0.60059(16)
H3 H 0.1371 -0.2079 0.6277
H4 H 0.2686 -0.2026 0.6744
C3 C 0.16618(13) -0.00973(15) 0.50661(15)
C4 C 0.12797(14) 0.03021(15) 0.60854(15)
H5 H 0.1292 -0.0250 0.6748
C5 C 0.09132(14) 0.22487(16) 0.51654(17)
H6 H 0.0653 0.3060 0.5163
C6 C 0.13151(16) 0.18493(16) 0.41888(17)
H7 H 0.1329 0.2415 0.3547
Ag1F Ag 0.5000 -0.699807(16) 0.2500
N1F N 0.30110(12) -0.36887(13) 0.50401(13)
N2F N 0.40999(12) -0.64600(13) 0.38828(13)
N2A N -0.09001(12) 0.14600(13) 0.88828(13)
N3F N 0.33171(12) -0.56946(14) 0.58786(14)
C1F C 0.20661(14) -0.35143(16) 0.55433(16)
H1F H 0.1371 -0.3704 0.4867
H2F H 0.2141 -0.4086 0.6256
C2F C 0.29723(14) -0.28105(15) 0.39941(16)
H3F H 0.3629 -0.2921 0.3723
H4F H 0.2314 -0.2974 0.3256
C3F C 0.33382(13) -0.49027(15) 0.49339(15)
C4F C 0.37203(14) -0.53021(15) 0.39146(15)
H5F H 0.3708 -0.4750 0.3252
C5F C 0.40868(14) -0.72487(16) 0.48346(17)
H6F H 0.4347 -0.8060 0.4837
C6F C 0.36849(16) -0.68493(16) 0.58112(17)
H7F H 0.3671 -0.7415 0.6453
O1 O -0.06574(16) 0.4297(2) 0.78885(19)
O2 O 0.0000 0.6033(2) 0.7500
N4 N 0.0000 0.49077(19) 0.7500
O1A O 0.06574(16) 0.4297(2) 0.71115(19)
loop_
_geom_bond_atom_site_label_1
_geom_bond_atom_site_label_2
_geom_bond_site_symmetry_1
_geom_bond_site_symmetry_2
Ag1 N2 1_555 1_555
N1 C1 1_555 1_555
N2 C4 1_555 1_555
N3 C3 1_555 1_555
C1 H1 1_555 1_555
H2 C1 1_555 1_555
C2 N1 1_555 1_555
H3 C2 1_555 1_555
H4 C2 1_555 1_555
C3 N1 1_555 1_555
C4 C3 1_555 1_555
H5 C4 1_555 1_555
C5 N2 1_555 1_555
H6 C5 1_555 1_555
C6 N3 1_555 1_555
H7 C6 1_555 1_555
O1 N4 1_555 1_555
O2 N4 1_555 1_555
N4 O1A 1_555 1_555
Ag1F N2F 1_555 1_555
N1F C1F 1_555 1_555
N2F C4F 1_555 1_555
N2A Ag1 1_555 1_555
N3F C3F 1_555 1_555
C1F C2 1_555 1_555
H1F C1F 1_555 1_555
H2F C1F 1_555 1_555
C2F C1 1_555 1_555
H3F C2F 1_555 1_555
H4F C2F 1_555 1_555
C3F N1F 1_555 1_555
C4F C3F 1_555 1_555
H5F C4F 1_555 1_555
C5F N2F 1_555 1_555
H6F C5F 1_555 1_555
C6F N3F 1_555 1_555
H7F C6F 1_555 1_555
C5 C6 1_555 1_555
N1F C2F 1_555 1_555
C5F C6F 1_555 1_555

#END
