
#######################################################################
#
#                 Cambridge Crystallographic Data Centre
#                                CCDC 
#
#######################################################################
#
# If this CIF has been generated from an entry in the Cambridge 
# Structural Database, then it will include bibliographic, chemical, 
# crystal, experimental, refinement or atomic coordinate data resulting 
# from the CCDC's data processing and validation procedures.
#
#######################################################################

data_TADCAE
_symmetry_cell_setting           monoclinic
_symmetry_space_group_name_H-M   'P 21/c'
_symmetry_Int_Tables_number      14
_space_group_name_Hall           '-P 2ybc'
loop_
_symmetry_equiv_pos_site_id
_symmetry_equiv_pos_as_xyz
1 x,y,z
2 -x,1/2+y,1/2-z
3 -x,-y,-z
4 x,1/2-y,1/2+z
_cell_length_a                   14.4711(3)
_cell_length_b                   14.6161(3)
_cell_length_c                   17.8745(5)
_cell_angle_alpha                90
_cell_angle_beta                 90.238(2)
_cell_angle_gamma                90
_cell_volume                     3780.62
loop_
_atom_site_label
_atom_site_type_symbol
_atom_site_fract_x
_atom_site_fract_y
_atom_site_fract_z
Zn1 Zn 0.84279(2) 1.40143(2) 0.03104(2)
Zn2 Zn 0.38712(2) 1.15404(2) 0.31469(2)
Zn3 Zn 0.35165(2) 1.10723(2) 0.03138(2)
Zn4 Zn 1.11157(2) 1.63407(2) -0.32189(2)
O1 O 1.02446(15) 1.42733(13) -0.14359(13)
O2 O 0.93891(14) 1.36667(12) -0.05218(12)
O3 O 1.11178(14) 1.61053(13) -0.13511(12)
O4 O 1.01446(14) 1.63152(13) -0.22952(12)
O5 O 0.84341(15) 1.83323(14) 0.02738(14)
O6 O 0.71612(14) 1.77949(13) -0.02810(13)
O7 O 0.71879(13) 1.64967(12) 0.09790(12)
O8 O 0.74003(14) 1.49938(12) 0.08062(13)
O9 O 0.54088(13) 0.86634(12) 0.04666(12)
O10 O 0.46097(15) 0.93278(13) 0.13858(14)
O11 O 0.49231(14) 1.13363(13) 0.23185(12)
O12 O 0.40435(14) 1.13116(13) 0.13072(12)
O13 O 0.85201(14) 1.21013(14) 0.05660(14)
O14 O 0.74471(13) 1.31075(12) 0.02285(13)
O15 O 0.75552(13) 0.97952(12) -0.08391(12)
O16 O 0.80034(14) 1.12654(12) -0.08610(12)
O17 O 0.27826(14) 1.10549(13) 0.24189(13)
H1 H 0.3015 1.1121 0.2003
H2 H 0.2366 1.1428 0.2474
O18 O 0.48814(15) 1.20265(13) 0.38429(13)
H3 H 0.4789 1.2501 0.4079
H4 H 0.5106 1.1678 0.4156
O19 O 0.42330(15) 1.02003(13) 0.34804(14)
H5 H 0.3753 1.0052 0.3701
H6 H 0.4292 0.9837 0.3133
O20 O 1.00956(14) 1.69893(13) -0.38671(13)
H7 H 0.9633 1.6868 -0.4120
H8 H 1.0281 1.7448 -0.4077
O21 O 1.06758(17) 1.50018(15) -0.34511(15)
H9 H 1.0435 1.4990 -0.3867
H10 H 1.0246 1.5034 -0.3157
O22 O 1.21879(14) 1.57573(13) -0.25283(13)
H11 H 1.1908 1.5796 -0.2134
H12 H 1.2372 1.5227 -0.2567
N1 N 0.86503(15) 1.52437(14) -0.02056(14)
N2 N 0.63889(15) 1.01204(14) 0.02429(14)
N3 N 0.16812(17) 1.73494(15) 0.20528(15)
N4 N 0.34506(17) 1.29103(16) 0.28564(15)
C1 C 0.9682(2) 1.43227(18) -0.09314(18)
C2 C 0.92809(19) 1.52596(18) -0.07458(16)
C3 C 0.95369(19) 1.60786(18) -0.10811(17)
C4 C 1.0316(2) 1.61550(17) -0.16256(18)
C5 C 0.9103(2) 1.68728(19) -0.08323(18)
H23 H 0.9257 1.7431 -0.1049
C6 C 0.8452(2) 1.68517(18) -0.02755(18)
C7 C 0.7993(2) 1.77389(19) -0.00574(18)
C8 C 0.82350(19) 1.60052(18) 0.00432(17)
C9 C 0.75494(19) 1.58247(18) 0.06654(18)
C10 C 0.5195(2) 0.93282(18) 0.08972(18)
C11 C 0.57437(19) 1.02006(17) 0.07694(17)
C12 C 0.56337(19) 1.10202(18) 0.11539(17)
C13 C 0.4808(2) 1.12202(17) 0.16425(18)
C14 C 0.6280(2) 1.17137(18) 0.10273(18)
H24 H 0.6248 1.2255 0.1299
C15 C 0.69728(19) 1.15986(17) 0.04956(17)
C16 C 0.7724(2) 1.23086(19) 0.04160(17)
C17 C 0.69760(19) 1.07943(17) 0.00811(17)
C18 C 0.75688(19) 1.05993(18) -0.05980(17)
C19 C 0.2489(2) 1.7069(2) 0.1785(2)
H25 H 0.2818 1.7471 0.1483
C20 C 0.2869(3) 1.6222(2) 0.1926(2)
H26 H 0.3440 1.6068 0.1726
C21 C 0.2394(2) 1.55980(19) 0.23680(18)
C22 C 0.1563(2) 1.5890(2) 0.2644(2)
H27 H 0.1212 1.5500 0.2939
C23 C 0.1244(2) 1.6754(2) 0.2487(2)
H28 H 0.0686 1.6934 0.2698
C24 C 0.3749(2) 1.3395(2) 0.2287(2)
H29 H 0.4201 1.3140 0.1984
C25 C 0.3431(3) 1.4258(2) 0.2114(2)
H30 H 0.3675 1.4564 0.1704
C26 C 0.2764(2) 1.4672(2) 0.25325(19)
C27 C 0.2480(3) 1.4182(2) 0.3144(2)
H31 H 0.2044 1.4429 0.3467
C28 C 0.2839(3) 1.3327(2) 0.3283(2)
H32 H 0.2635 1.3021 0.3707
Zn1B Zn 1.15721(2) 1.59857(2) -0.03104(2)
Zn2A Zn 0.61288(2) 1.65404(2) 0.18531(2)
Zn3B Zn 0.64835(2) 1.89277(2) -0.03138(2)
Zn3B_2 Zn 0.64835(2) 0.89277(2) -0.03138(2)
Zn4A Zn 0.88843(2) 1.13407(2) -0.17811(2)
Zn4C Zn 0.11157(2) 1.86593(2) 0.17811(2)
O3B O 0.88822(14) 1.38947(13) 0.13511(12)
O6B O 0.28388(14) 1.22051(13) 0.02810(13)
O7A O 0.28121(13) 1.14967(12) 0.40210(12)
O9B O 0.45912(13) 1.13366(12) -0.04666(12)
O15B O 0.24448(13) 1.02048(12) 0.08391(12)
O16A O 1.19966(14) 1.62654(12) -0.41390(12)
N2B N 0.36111(15) 0.98796(14) -0.02429(14)
N3C N 1.16812(17) 1.76506(15) -0.29472(15)
O23 O 0.4084(2) 1.3979(2) 0.0457(2)
H13 H 0.4569 1.3766 0.0289
H14 H 0.3790 1.3498 0.0467
O24 O 1.0735(2) 0.9671(2) -0.0608(2)
H15 H 1.0870 1.0018 -0.0265
H16 H 1.0885 0.9133 -0.0546
O25 O 0.5842(2) 1.40625(19) -0.02148(19)
H17 H 0.5828 1.4626 -0.0206
H18 H 0.6275 1.3767 -0.0043
O26 O 0.88602(18) 0.80780(18) -0.25840(18)
H19 H 0.9145 0.8563 -0.2566
H20 H 0.9010 0.7549 -0.2674
O27 O 0.40044(19) 0.85226(19) 0.27164(17)
H21 H 0.4149 0.8413 0.2283
H22 H 0.3460 0.8611 0.2604
loop_
_geom_bond_atom_site_label_1
_geom_bond_atom_site_label_2
_geom_bond_site_symmetry_1
_geom_bond_site_symmetry_2
Zn1 O2 1_555 1_555
Zn2 O11 1_555 1_555
Zn3 O12 1_555 1_555
Zn4 O4 1_555 1_555
O1 C1 1_555 1_555
O2 C1 1_555 1_555
O3 C4 1_555 1_555
O4 C4 1_555 1_555
O5 C7 1_555 1_555
O6 C7 1_555 1_555
O7 C9 1_555 1_555
O8 Zn1 1_555 1_555
O9 C10 1_555 1_555
O10 C10 1_555 1_555
O11 C13 1_555 1_555
O12 C13 1_555 1_555
O13 C16 1_555 1_555
O14 Zn1 1_555 1_555
O15 C18 1_555 1_555
O16 C18 1_555 1_555
O17 Zn2 1_555 1_555
H1 O17 1_555 1_555
H2 O17 1_555 1_555
O18 Zn2 1_555 1_555
H3 O18 1_555 1_555
H4 O18 1_555 1_555
O19 Zn2 1_555 1_555
H5 O19 1_555 1_555
H6 O19 1_555 1_555
O20 Zn4 1_555 1_555
H7 O20 1_555 1_555
H8 O20 1_555 1_555
O21 Zn4 1_555 1_555
H9 O21 1_555 1_555
H10 O21 1_555 1_555
O22 Zn4 1_555 1_555
H11 O22 1_555 1_555
H12 O22 1_555 1_555
O23 H13 1_555 1_555
H14 O23 1_555 1_555
O24 H15 1_555 1_555
H16 O24 1_555 1_555
O25 H17 1_555 1_555
H18 O25 1_555 1_555
O26 H19 1_555 1_555
H20 O26 1_555 1_555
O27 H21 1_555 1_555
H22 O27 1_555 1_555
N1 Zn1 1_555 1_555
N2 C11 1_555 1_555
N3 C19 1_555 1_555
N4 Zn2 1_555 1_555
C1 C2 1_555 1_555
C2 N1 1_555 1_555
C3 C2 1_555 1_555
C4 C3 1_555 1_555
C5 C3 1_555 1_555
H23 C5 1_555 1_555
C6 C5 1_555 1_555
C7 C6 1_555 1_555
C8 N1 1_555 1_555
C9 O8 1_555 1_555
C10 C11 1_555 1_555
C11 C12 1_555 1_555
C12 C13 1_555 1_555
C14 C12 1_555 1_555
H24 C14 1_555 1_555
C15 C14 1_555 1_555
C16 O14 1_555 1_555
C17 N2 1_555 1_555
C18 C17 1_555 1_555
C19 H25 1_555 1_555
C20 C19 1_555 1_555
H26 C20 1_555 1_555
C21 C20 1_555 1_555
C22 C21 1_555 1_555
H27 C22 1_555 1_555
C23 N3 1_555 1_555
H28 C23 1_555 1_555
C24 N4 1_555 1_555
H29 C24 1_555 1_555
C25 C24 1_555 1_555
H30 C25 1_555 1_555
C26 C21 1_555 1_555
C27 C26 1_555 1_555
H31 C27 1_555 1_555
C28 N4 1_555 1_555
H32 C28 1_555 1_555
Zn1B O3 1_555 1_555
Zn2A O7 1_555 1_555
Zn3B O6 1_555 1_555
Zn3B_2 O9 1_555 1_555
Zn4A O16 1_555 1_555
Zn4C N3 1_555 1_555
O3B Zn1 1_555 1_555
O6B Zn3 1_555 1_555
O7A Zn2 1_555 1_555
O9B Zn3 1_555 1_555
O15B Zn3 1_555 1_555
O16A Zn4 1_555 1_555
N2B Zn3 1_555 1_555
N3C Zn4 1_555 1_555
O15 Zn3B_2 1_555 1_555
N2 Zn3B_2 1_555 1_555
C6 C8 1_555 1_555
C8 C9 1_555 1_555
C15 C16 1_555 1_555
C15 C17 1_555 1_555
C22 C23 1_555 1_555
C25 C26 1_555 1_555
C27 C28 1_555 1_555

#END
