
#######################################################################
#
#                 Cambridge Crystallographic Data Centre
#                                CCDC 
#
#######################################################################
#
# If this CIF has been generated from an entry in the Cambridge 
# Structural Database, then it will include bibliographic, chemical, 
# crystal, experimental, refinement or atomic coordinate data resulting 
# from the CCDC's data processing and validation procedures.
#
#######################################################################

data_TADHUC
_symmetry_cell_setting           monoclinic
_symmetry_space_group_name_H-M   'P 21/c'
_symmetry_Int_Tables_number      14
_space_group_name_Hall           '-P 2ybc'
loop_
_symmetry_equiv_pos_site_id
_symmetry_equiv_pos_as_xyz
1 x,y,z
2 x,1/2-y,1/2+z
3 -x,-y,-z
4 -x,1/2+y,1/2-z
_cell_length_a                   9.6970(19)
_cell_length_b                   14.113(3)
_cell_length_c                   11.451(2)
_cell_angle_alpha                90
_cell_angle_beta                 114.54(3)
_cell_angle_gamma                90
_cell_volume                     1425.56
loop_
_atom_site_label
_atom_site_type_symbol
_atom_site_fract_x
_atom_site_fract_y
_atom_site_fract_z
Mg1 Mg 1.0000 0.0000 1.0000
O1 O 1.2091(4) 0.0306(2) 0.9997(3)
N1 N 0.8955(4) 0.0053(3) 0.7901(3)
N2 N 0.7785(4) 0.0636(2) 0.5910(3)
N3 N 0.9601(4) 0.3478(2) 0.5095(3)
N4 N 0.8435(4) 0.2099(2) 0.5042(3)
N5 N 0.5748(4) 0.1879(2) 0.4792(3)
N6 N 0.4210(4) 0.2638(3) 0.5509(4)
N7 N 0.6760(4) 0.0878(2) 0.3511(3)
N8 N 0.6988(4) 0.0230(3) 0.1817(4)
B1 B 0.7167(6) 0.1379(4) 0.4816(5)
C1 C 0.8360(5) -0.0681(3) 0.7032(4)
H1 H 0.850(5) -0.132(3) 0.736(4)
C2 C 0.7650(5) -0.0334(3) 0.5834(4)
H2 H 0.713(4) -0.067(2) 0.503(4)
C3 C 0.8584(6) 0.0822(4) 0.7187(4)
H3 H 0.894(5) 0.145(3) 0.751(4)
C4 C 1.0637(5) 0.2747(3) 0.5370(4)
H4 H 1.169(4) 0.276(2) 0.551(3)
C5 C 0.9957(5) 0.1914(3) 0.5350(4)
H5 H 1.031(4) 0.125(3) 0.557(3)
C6 C 0.8318(5) 0.3060(3) 0.4919(4)
H6 H 0.731(5) 0.337(2) 0.474(3)
C7 C 0.4646(5) 0.2321(3) 0.3750(5)
H7 H 0.460(5) 0.227(3) 0.287(4)
C8 C 0.3721(6) 0.2776(3) 0.4199(5)
H8 H 0.284(5) 0.312(3) 0.368(4)
C9 C 0.5426(6) 0.2104(4) 0.5818(5)
H9 H 0.606(7) 0.190(4) 0.668(6)
C10 C 0.5501(5) 0.0309(3) 0.2879(4)
H10 H 0.472(5) 0.029(2) 0.314(4)
C11 C 0.5659(5) -0.0069(3) 0.1855(4)
H11 H 0.502(5) -0.046(3) 0.123(4)
C12 C 0.7603(6) 0.0799(3) 0.2829(4)
H12 H 0.850(5) 0.113(3) 0.297(4)
H13 H 1.253(8) -0.003(5) 0.935(7)
H14 H 1.281(7) 0.060(4) 1.054(6)
O1B O 0.7909(4) -0.0306(2) 1.0003(3)
H13B H 0.747(8) 0.003(5) 1.065(7)
H14B H 0.719(7) -0.060(4) 0.946(6)
N1B N 1.1045(4) -0.0053(3) 1.2099(3)
N2B N 1.2215(4) -0.0636(2) 1.4090(3)
N3B N 1.0399(4) -0.3478(2) 1.4905(3)
N4B N 1.1565(4) -0.2099(2) 1.4958(3)
N5B N 1.4252(4) -0.1879(2) 1.5208(3)
N6B N 1.5790(4) -0.2638(3) 1.4491(4)
N7B N 1.3240(4) -0.0878(2) 1.6489(3)
N8B N 1.3012(4) -0.0230(3) 1.8183(4)
B1B B 1.2833(6) -0.1379(4) 1.5184(5)
C1B C 1.1640(5) 0.0681(3) 1.2968(4)
H1B H 1.150(5) 0.132(3) 1.264(4)
C2B C 1.2350(5) 0.0334(3) 1.4166(4)
H2B H 1.287(4) 0.067(2) 1.497(4)
C3B C 1.1416(6) -0.0822(4) 1.2813(4)
H3B H 1.106(5) -0.145(3) 1.249(4)
C4B C 0.9363(5) -0.2747(3) 1.4630(4)
H4B H 0.831(4) -0.276(2) 1.449(3)
C5B C 1.0043(5) -0.1914(3) 1.4650(4)
H5B H 0.969(4) -0.125(3) 1.443(3)
C6B C 1.1682(5) -0.3060(3) 1.5081(4)
H6B H 1.269(5) -0.337(2) 1.526(3)
C7B C 1.5354(5) -0.2321(3) 1.6250(5)
H7B H 1.540(5) -0.227(3) 1.713(4)
C8B C 1.6279(6) -0.2776(3) 1.5801(5)
H8B H 1.716(5) -0.312(3) 1.632(4)
C9B C 1.4574(6) -0.2104(4) 1.4182(5)
H9B H 1.394(7) -0.190(4) 1.332(6)
C10B C 1.4499(5) -0.0309(3) 1.7121(4)
H10B H 1.528(5) -0.029(2) 1.686(4)
C11B C 1.4341(5) 0.0069(3) 1.8145(4)
H11B H 1.498(5) 0.046(3) 1.877(4)
C12B C 1.2397(6) -0.0799(3) 1.7171(4)
H12B H 1.150(5) -0.113(3) 1.703(4)
N3A N 0.9601(4) 0.1522(2) 1.0095(3)
N3C N 1.0399(4) -0.1522(2) 0.9905(3)
Mg1A Mg 1.0000 0.5000 0.5000
Mg1A_2 Mg 1.0000 -0.5000 1.5000
loop_
_geom_bond_atom_site_label_1
_geom_bond_atom_site_label_2
_geom_bond_site_symmetry_1
_geom_bond_site_symmetry_2
Mg1 O1 1_555 1_555
O1 H13 1_555 1_555
N1 Mg1 1_555 1_555
N2 B1 1_555 1_555
N3 C4 1_555 1_555
N4 B1 1_555 1_555
N5 B1 1_555 1_555
N6 C8 1_555 1_555
N7 B1 1_555 1_555
N8 C11 1_555 1_555
C1 N1 1_555 1_555
H1 C1 1_555 1_555
C2 N2 1_555 1_555
H2 C2 1_555 1_555
C3 N1 1_555 1_555
H3 C3 1_555 1_555
C4 H4 1_555 1_555
C5 N4 1_555 1_555
H5 C5 1_555 1_555
C6 N3 1_555 1_555
H6 C6 1_555 1_555
C7 N5 1_555 1_555
H7 C7 1_555 1_555
C8 C7 1_555 1_555
H8 C8 1_555 1_555
C9 N5 1_555 1_555
H9 C9 1_555 1_555
C10 N7 1_555 1_555
H10 C10 1_555 1_555
C11 C10 1_555 1_555
H11 C11 1_555 1_555
C12 N7 1_555 1_555
H12 C12 1_555 1_555
H14 O1 1_555 1_555
O1B Mg1 1_555 1_555
H13B O1B 1_555 1_555
H14B O1B 1_555 1_555
N1B Mg1 1_555 1_555
N2B B1B 1_555 1_555
N3B C4B 1_555 1_555
N4B B1B 1_555 1_555
N5B B1B 1_555 1_555
N6B C8B 1_555 1_555
N7B B1B 1_555 1_555
N8B C11B 1_555 1_555
C1B N1B 1_555 1_555
H1B C1B 1_555 1_555
C2B N2B 1_555 1_555
H2B C2B 1_555 1_555
C3B N1B 1_555 1_555
H3B C3B 1_555 1_555
C4B H4B 1_555 1_555
C5B N4B 1_555 1_555
H5B C5B 1_555 1_555
C6B N3B 1_555 1_555
H6B C6B 1_555 1_555
C7B N5B 1_555 1_555
H7B C7B 1_555 1_555
C8B C7B 1_555 1_555
H8B C8B 1_555 1_555
C9B N5B 1_555 1_555
H9B C9B 1_555 1_555
C10B N7B 1_555 1_555
H10B C10B 1_555 1_555
C11B C10B 1_555 1_555
H11B C11B 1_555 1_555
C12B N7B 1_555 1_555
H12B C12B 1_555 1_555
N3A Mg1 1_555 1_555
N3C Mg1 1_555 1_555
Mg1A N3 1_555 1_555
Mg1A_2 N3B 1_555 1_555
N2 C3 1_555 1_555
N4 C6 1_555 1_555
N6 C9 1_555 1_555
N8 C12 1_555 1_555
C1 C2 1_555 1_555
C4 C5 1_555 1_555
N2B C3B 1_555 1_555
N4B C6B 1_555 1_555
N6B C9B 1_555 1_555
N8B C12B 1_555 1_555
C1B C2B 1_555 1_555
C4B C5B 1_555 1_555

#END
