
#######################################################################
#
#                 Cambridge Crystallographic Data Centre
#                                CCDC 
#
#######################################################################
#
# If this CIF has been generated from an entry in the Cambridge 
# Structural Database, then it will include bibliographic, chemical, 
# crystal, experimental, refinement or atomic coordinate data resulting 
# from the CCDC's data processing and validation procedures.
#
#######################################################################

data_TADHEN
_symmetry_cell_setting           monoclinic
_symmetry_space_group_name_H-M   'P 21/c'
_symmetry_Int_Tables_number      14
_space_group_name_Hall           '-P 2ybc'
loop_
_symmetry_equiv_pos_site_id
_symmetry_equiv_pos_as_xyz
1 x,y,z
2 -x,1/2+y,1/2-z
3 -x,-y,-z
4 x,1/2-y,1/2+z
_cell_length_a                   8.32500(10)
_cell_length_b                   9.36240(10)
_cell_length_c                   15.39170(10)
_cell_angle_alpha                90
_cell_angle_beta                 105.24
_cell_angle_gamma                90
_cell_volume                     1157.47
loop_
_atom_site_label
_atom_site_type_symbol
_atom_site_fract_x
_atom_site_fract_y
_atom_site_fract_z
Cu1 Cu -0.5000 0.0000 0.0000
Cu2 Cu -0.08337(4) -0.02783(3) 0.07978(2)
C1 C -0.2712(3) 0.2237(3) 0.09609(17)
C2 C -0.2700(3) 0.3650(3) 0.14351(17)
C3 C -0.2481(3) 0.4912(3) 0.09987(18)
C4 C -0.2418(5) 0.4878(3) 0.0026(2)
H1 H -0.2255 0.5828 -0.0168
H2 H -0.3446 0.4502 -0.0341
H3 H -0.1513 0.4281 -0.0029
C5 C -0.2383(3) 0.6194(3) 0.14800(17)
C6 C -0.1913(3) 0.7542(3) 0.10922(17)
C7 C -0.2519(3) 0.6239(3) 0.23692(17)
C8 C -0.2416(4) 0.7632(3) 0.28838(19)
H4 H -0.2536 0.7444 0.3477
H5 H -0.3291 0.8259 0.2572
H6 H -0.1357 0.8074 0.2929
C9 C -0.2733(3) 0.4941(3) 0.27748(17)
C10 C -0.2805(3) 0.4974(2) 0.37393(17)
C11 C -0.2833(3) 0.3633(3) 0.23220(17)
C12 C -0.3062(4) 0.2238(3) 0.27737(19)
H7 H -0.3107 0.1464 0.2359
H8 H -0.4080 0.2271 0.2955
H9 H -0.2143 0.2096 0.3294
O1 O -0.4060(3) 0.1842(2) 0.04421(14)
O2 O -0.1339(3) 0.1593(2) 0.11341(15)
O3 O -0.2751(2) 0.8682(2) 0.10474(14)
O4 O -0.0559(3) 0.7602(2) 0.08715(16)
O5 O -0.1424(2) 0.5072(2) 0.43411(12)
O6 O -0.4184(2) 0.4941(2) 0.39056(13)
Cu1A Cu -0.5000 0.5000 0.5000
Cu1A_2 Cu -0.5000 -0.5000 -0.5000
Cu2_2 Cu -0.08337(4) 0.97217(3) 0.07978(2)
Cu2A Cu 0.08337(4) 0.47217(3) 0.42022(2)
Cu2C Cu -0.08337(4) 0.52783(3) 0.57978(2)
Cu2B Cu -0.91663(4) 0.02783(3) -0.07978(2)
Cu2B_2 Cu -0.91663(4) -0.97217(3) -0.07978(2)
Cu2A_2 Cu -0.91663(4) -0.52783(3) -0.57978(2)
Cu2C_2 Cu -1.08337(4) -0.47217(3) -0.42022(2)
C1B C -0.7288(3) -0.2237(3) -0.09609(17)
C2B C -0.7300(3) -0.3650(3) -0.14351(17)
C3B C -0.7519(3) -0.4912(3) -0.09987(18)
C4B C -0.7582(5) -0.4878(3) -0.0026(2)
H1B H -0.7745 -0.5828 0.0168
H2B H -0.6554 -0.4502 0.0341
H3B H -0.8487 -0.4281 0.0029
C5B C -0.7617(3) -0.6194(3) -0.14800(17)
C6B C -0.8087(3) -0.7542(3) -0.10922(17)
C7B C -0.7481(3) -0.6239(3) -0.23692(17)
C8B C -0.7584(4) -0.7632(3) -0.28838(19)
H4B H -0.7464 -0.7444 -0.3477
H5B H -0.6709 -0.8259 -0.2572
H6B H -0.8643 -0.8074 -0.2929
C9B C -0.7267(3) -0.4941(3) -0.27748(17)
C10B C -0.7195(3) -0.4974(2) -0.37393(17)
C11B C -0.7167(3) -0.3633(3) -0.23220(17)
C12B C -0.6938(4) -0.2238(3) -0.27737(19)
H7B H -0.6893 -0.1464 -0.2359
H8B H -0.5920 -0.2271 -0.2955
H9B H -0.7857 -0.2096 -0.3294
O1B O -0.5940(3) -0.1842(2) -0.04421(14)
O2B O -0.8661(3) -0.1593(2) -0.11341(15)
O3_2 O -0.2751(2) -0.1318(2) 0.10474(14)
O3B O -0.7249(2) 0.1318(2) -0.10474(14)
O3B_2 O -0.7249(2) -0.8682(2) -0.10474(14)
O4_2 O -0.0559(3) -0.2398(2) 0.08715(16)
O4B O -0.9441(3) 0.2398(2) -0.08715(16)
O4B_2 O -0.9441(3) -0.7602(2) -0.08715(16)
O5A O 0.1424(2) 0.0072(2) 0.06589(12)
O5C O -0.1424(2) -0.0072(2) -0.06589(12)
O5A_2 O -0.8576(2) 0.0072(2) 0.06589(12)
O5C_2 O -1.1424(2) -0.0072(2) -0.06589(12)
O5B O -0.8576(2) -0.5072(2) -0.43411(12)
O6C O -0.4184(2) 0.0059(2) -0.10944(13)
O6A O -0.5816(2) -0.0059(2) 0.10944(13)
O6B O -0.5816(2) -0.4941(2) -0.39056(13)
loop_
_geom_bond_atom_site_label_1
_geom_bond_atom_site_label_2
_geom_bond_site_symmetry_1
_geom_bond_site_symmetry_2
Cu1 O1 1_555 1_555
Cu2 O2 1_555 1_555
C1 C2 1_555 1_555
C2 C3 1_555 1_555
C3 C4 1_555 1_555
C4 H1 1_555 1_555
H2 C4 1_555 1_555
H3 C4 1_555 1_555
C5 C3 1_555 1_555
C6 C5 1_555 1_555
C7 C5 1_555 1_555
C8 C7 1_555 1_555
H4 C8 1_555 1_555
H5 C8 1_555 1_555
H6 C8 1_555 1_555
C9 C7 1_555 1_555
C10 C9 1_555 1_555
C11 C2 1_555 1_555
C12 C11 1_555 1_555
H7 C12 1_555 1_555
H8 C12 1_555 1_555
H9 C12 1_555 1_555
O1 C1 1_555 1_555
O2 C1 1_555 1_555
O3 C6 1_555 1_555
O4 C6 1_555 1_555
O5 C10 1_555 1_555
O6 C10 1_555 1_555
Cu1A O6 1_555 1_555
Cu1A_2 O6B 1_555 1_555
Cu2_2 O3 1_555 1_555
Cu2A O5 1_555 1_555
Cu2C O5 1_555 1_555
Cu2B O2B 1_555 1_555
Cu2B_2 O3B_2 1_555 1_555
Cu2A_2 O5B 1_555 1_555
Cu2C_2 O5B 1_555 1_555
C1B C2B 1_555 1_555
C2B C3B 1_555 1_555
C3B C4B 1_555 1_555
C4B H1B 1_555 1_555
H2B C4B 1_555 1_555
H3B C4B 1_555 1_555
C5B C3B 1_555 1_555
C6B C5B 1_555 1_555
C7B C5B 1_555 1_555
C8B C7B 1_555 1_555
H4B C8B 1_555 1_555
H5B C8B 1_555 1_555
H6B C8B 1_555 1_555
C9B C7B 1_555 1_555
C10B C9B 1_555 1_555
C11B C2B 1_555 1_555
C12B C11B 1_555 1_555
H7B C12B 1_555 1_555
H8B C12B 1_555 1_555
H9B C12B 1_555 1_555
O1B Cu1 1_555 1_555
O2B C1B 1_555 1_555
O3_2 Cu2 1_555 1_555
O3B Cu2B 1_555 1_555
O3B_2 C6B 1_555 1_555
O4_2 Cu2 1_555 1_555
O4B Cu2B 1_555 1_555
O4B_2 Cu2B_2 1_555 1_555
O5A Cu2 1_555 1_555
O5C Cu2 1_555 1_555
O5A_2 Cu2B 1_555 1_555
O5C_2 Cu2B 1_555 1_555
O5B C10B 1_555 1_555
O6C Cu1 1_555 1_555
O6A Cu1 1_555 1_555
O6B C10B 1_555 1_555
C9 C11 1_555 1_555
O4 Cu2_2 1_555 1_555
C1B O1B 1_555 1_555
C6B O4B_2 1_555 1_555
C9B C11B 1_555 1_555

#END
