
#######################################################################
#
#                 Cambridge Crystallographic Data Centre
#                                CCDC 
#
#######################################################################
#
# If this CIF has been generated from an entry in the Cambridge 
# Structural Database, then it will include bibliographic, chemical, 
# crystal, experimental, refinement or atomic coordinate data resulting 
# from the CCDC's data processing and validation procedures.
#
#######################################################################

data_TADZEF
_symmetry_cell_setting           monoclinic
_symmetry_space_group_name_H-M   'C 2/c'
_symmetry_Int_Tables_number      15
_space_group_name_Hall           '-C 2yn'
loop_
_symmetry_equiv_pos_site_id
_symmetry_equiv_pos_as_xyz
1 x,y,z
2 -x,y,1/2-z
3 1/2+x,1/2+y,z
4 1/2-x,1/2+y,1/2-z
5 -x,-y,-z
6 x,-y,1/2+z
7 1/2-x,1/2-y,-z
8 1/2+x,1/2-y,1/2+z
_cell_length_a                   15.2062(9)
_cell_length_b                   15.8226(9)
_cell_length_c                   18.8195(11)
_cell_angle_alpha                90
_cell_angle_beta                 109.9910(10)
_cell_angle_gamma                90
_cell_volume                     4255.17
loop_
_atom_site_label
_atom_site_type_symbol
_atom_site_fract_x
_atom_site_fract_y
_atom_site_fract_z
Mn1 Mn 0.416543(18) 0.132895(16) 0.314153(13)
O1 O 0.42363(9) 0.06829(9) 0.42214(7)
O2 O 0.28961(9) 0.12595(9) 0.35710(7)
O3 O 0.44514(9) -0.08996(9) 0.66097(7)
O4 O 0.34820(9) -0.05343(8) 0.72075(7)
N1 N 0.36020(10) 0.25048(9) 0.23892(8)
N2 N 0.48254(11) 0.25063(9) 0.38080(8)
N3 N 0.48443(11) 0.56197(9) 0.36806(8)
N4 N 0.37602(10) 0.56287(9) 0.25212(8)
H1 H 0.3373 0.5820 0.2103
N5 N 0.49613(19) 0.82778(14) 0.38449(14)
C1 C 0.29957(14) 0.24890(12) 0.16851(10)
H2 H 0.2785 0.1967 0.1465
C2 C 0.26609(16) 0.32148(13) 0.12609(11)
H3 H 0.2247 0.3173 0.0767
C3 C 0.29460(15) 0.39915(12) 0.15777(10)
H4 H 0.2723 0.4482 0.1304
C4 C 0.35771(12) 0.40360(11) 0.23190(9)
C5 C 0.39425(12) 0.47981(11) 0.27187(9)
C6 C 0.46102(12) 0.48048(11) 0.34343(9)
C7 C 0.49478(12) 0.40339(11) 0.38339(9)
C8 C 0.56024(14) 0.39930(13) 0.45708(11)
H5 H 0.5864 0.4483 0.4830
C9 C 0.58463(16) 0.32173(13) 0.48985(11)
H6 H 0.6281 0.3176 0.5385
C10 C 0.54471(15) 0.24901(13) 0.45072(10)
H7 H 0.5621 0.1970 0.4743
C11 C 0.38979(11) 0.32700(10) 0.27072(9)
C12 C 0.45780(11) 0.32707(10) 0.34705(9)
C13 C 0.43135(12) 0.60941(12) 0.31173(10)
C14 C 0.43252(13) 0.70235(12) 0.31300(10)
C15 C 0.37686(16) 0.75176(13) 0.25435(12)
H8 H 0.3372 0.7262 0.2106
C16 C 0.3796(2) 0.83690(14) 0.25999(14)
H9 H 0.3421 0.8704 0.2207
C17 C 0.4384(3) 0.87245(15) 0.32436(18)
H10 H 0.4396 0.9311 0.3278
C18 C 0.49175(16) 0.74317(13) 0.37658(12)
H11 H 0.5305 0.7104 0.4158
C19 C 0.30702(11) 0.07239(11) 0.48016(9)
C20 C 0.22734(14) 0.11349(14) 0.48164(11)
H12 H 0.1950 0.1494 0.4423
C21 C 0.19566(15) 0.10112(17) 0.54176(12)
H13 H 0.1419 0.1285 0.5426
C22 C 0.24402(13) 0.04818(14) 0.60046(11)
H14 H 0.2229 0.0406 0.6409
C23 C 0.32365(11) 0.00627(10) 0.59978(9)
C24 C 0.35523(12) 0.01841(10) 0.53914(9)
H15 H 0.4085 -0.0096 0.5381
C25 C 0.34240(12) 0.08928(11) 0.41625(9)
C26 C 0.37681(12) -0.04921(10) 0.66535(9)
Mn1D Mn 0.583457(18) -0.132895(16) 0.685847(13)
Mn1E Mn 0.416543(18) -0.132895(16) 0.814153(13)
O3D O 0.55486(9) 0.08996(9) 0.33903(7)
O4E O 0.34820(9) 0.05343(8) 0.22075(7)
loop_
_geom_bond_atom_site_label_1
_geom_bond_atom_site_label_2
_geom_bond_site_symmetry_1
_geom_bond_site_symmetry_2
Mn1 O1 1_555 1_555
O1 C25 1_555 1_555
O2 Mn1 1_555 1_555
O3 C26 1_555 1_555
O4 C26 1_555 1_555
N1 Mn1 1_555 1_555
N2 Mn1 1_555 1_555
N3 C6 1_555 1_555
N4 H1 1_555 1_555
N5 C17 1_555 1_555
C1 N1 1_555 1_555
H2 C1 1_555 1_555
C2 C1 1_555 1_555
H3 C2 1_555 1_555
C3 C2 1_555 1_555
H4 C3 1_555 1_555
C4 C3 1_555 1_555
C5 N4 1_555 1_555
C6 C5 1_555 1_555
C7 C6 1_555 1_555
C8 C7 1_555 1_555
H5 C8 1_555 1_555
C9 C8 1_555 1_555
H6 C9 1_555 1_555
C10 N2 1_555 1_555
H7 C10 1_555 1_555
C11 N1 1_555 1_555
C12 N2 1_555 1_555
C13 N3 1_555 1_555
C14 C13 1_555 1_555
C15 C14 1_555 1_555
H8 C15 1_555 1_555
C16 C15 1_555 1_555
H9 C16 1_555 1_555
C17 C16 1_555 1_555
H10 C17 1_555 1_555
C18 N5 1_555 1_555
H11 C18 1_555 1_555
C19 C20 1_555 1_555
C20 H12 1_555 1_555
C21 C20 1_555 1_555
H13 C21 1_555 1_555
C22 C21 1_555 1_555
H14 C22 1_555 1_555
C23 C22 1_555 1_555
C24 C19 1_555 1_555
H15 C24 1_555 1_555
C25 O2 1_555 1_555
C26 C23 1_555 1_555
Mn1D O3 1_555 1_555
Mn1E O4 1_555 1_555
O3D Mn1 1_555 1_555
O4E Mn1 1_555 1_555
N4 C13 1_555 1_555
C4 C5 1_555 1_555
C4 C11 1_555 1_555
C7 C12 1_555 1_555
C9 C10 1_555 1_555
C11 C12 1_555 1_555
C14 C18 1_555 1_555
C19 C25 1_555 1_555
C23 C24 1_555 1_555

#END
