
#######################################################################
#
#                 Cambridge Crystallographic Data Centre
#                                CCDC 
#
#######################################################################
#
# If this CIF has been generated from an entry in the Cambridge 
# Structural Database, then it will include bibliographic, chemical, 
# crystal, experimental, refinement or atomic coordinate data resulting 
# from the CCDC's data processing and validation procedures.
#
#######################################################################

data_TADZEE
_symmetry_cell_setting           triclinic
_symmetry_space_group_name_H-M   'P -1'
_symmetry_Int_Tables_number      2
_space_group_name_Hall           '-P 1'
loop_
_symmetry_equiv_pos_site_id
_symmetry_equiv_pos_as_xyz
1 x,y,z
2 -x,-y,-z
_cell_length_a                   12.905(3)
_cell_length_b                   13.619(3)
_cell_length_c                   11.845(2)
_cell_angle_alpha                90.09(3)
_cell_angle_beta                 109.15(3)
_cell_angle_gamma                71.34(3)
_cell_volume                     1850.75
loop_
_atom_site_label
_atom_site_type_symbol
_atom_site_fract_x
_atom_site_fract_y
_atom_site_fract_z
S1 S 0.44340(12) -0.30746(11) 0.39065(15)
Zn1 Zn 0.07442(5) 0.29894(4) 0.13126(5)
Fe1 Fe -0.35698(6) 0.32647(6) 0.18313(7)
Fe2 Fe 0.17834(6) 0.25582(5) -0.29449(6)
O1 O -0.0888(3) 0.3485(3) 0.1177(3)
O2 O -0.0223(3) 0.2552(3) 0.2927(4)
O3 O 0.0913(3) 0.3415(3) -0.0194(3)
O4 O 0.0088(3) 0.2258(2) -0.0964(3)
N1 N 0.2047(3) 0.1592(3) 0.1955(4)
N2 N 0.2376(4) -0.1573(3) 0.3374(5)
H1 H 0.1629 -0.1404 0.3092
N3 N 0.2387(4) -0.2950(3) 0.2283(4)
N4 N 0.1558(3) -0.6071(3) 0.2375(3)
C1 C -0.3283(8) 0.1874(6) 0.1103(9)
H2 H -0.2560 0.1460 0.0982
C2 C -0.3523(8) 0.1827(5) 0.2099(11)
H3 H -0.3030 0.1338 0.2826
C3 C -0.4635(7) 0.2511(6) 0.1899(10)
H4 H -0.5041 0.2596 0.2480
C4 C -0.5060(7) 0.3086(8) 0.0818(10)
H5 H -0.5827 0.3616 0.0418
C5 C -0.4140(9) 0.2595(6) 0.0342(9)
H6 H -0.4152 0.2812 -0.0452
C6 C -0.3067(5) 0.4464(4) 0.1452(7)
H7 H -0.3085 0.4671 0.0652
C7 C -0.4049(6) 0.4834(5) 0.1855(8)
H8 H -0.4812 0.5362 0.1437
C8 C -0.3609(5) 0.4308(6) 0.3060(6)
H9 H -0.4053 0.4391 0.3607
C9 C -0.2486(5) 0.3589(6) 0.3282(6)
H10 H -0.2016 0.3109 0.4020
C10 C -0.2122(4) 0.3682(4) 0.2295(5)
C11 C -0.1019(4) 0.3192(4) 0.2103(5)
C12 C 0.2844(7) 0.1627(6) -0.3734(6)
H11 H 0.2748 0.1672 -0.4590
C13 C 0.3446(6) 0.2119(5) -0.2852(8)
H12 H 0.3846 0.2586 -0.2984
C14 C 0.3420(5) 0.1807(5) -0.1739(6)
H13 H 0.3785 0.2019 -0.0959
C15 C 0.2786(5) 0.1147(4) -0.1954(6)
H14 H 0.2604 0.0817 -0.1344
C16 C 0.2465(6) 0.1010(4) -0.3135(6)
H15 H 0.2010 0.0568 -0.3515
C17 C 0.0026(4) 0.2940(4) -0.3411(4)
H16 H -0.0415 0.2458 -0.3557
C18 C 0.0267(5) 0.3462(4) -0.4286(5)
H17 H 0.0049 0.3376 -0.5145
C19 C 0.0923(5) 0.4093(4) -0.3692(5)
H18 H 0.1230 0.4517 -0.4074
C20 C 0.1047(4) 0.4014(3) -0.2474(5)
H19 H 0.1455 0.4373 -0.1857
C21 C 0.0511(4) 0.3301(3) -0.2278(4)
C22 C 0.0498(4) 0.2945(4) -0.1081(4)
C23 C 0.2051(4) 0.0871(3) 0.2737(4)
H20 H 0.1399 0.1010 0.2966
C24 C 0.2953(5) -0.0060(4) 0.3223(5)
C25 C 0.3892(6) -0.0256(5) 0.2866(8)
H21 H 0.4509 -0.0881 0.3156
C26 C 0.3942(6) 0.0471(5) 0.2067(8)
H22 H 0.4585 0.0346 0.1826
C27 C 0.2997(5) 0.1382(5) 0.1653(6)
H23 H 0.3025 0.1876 0.1134
C28 C 0.2852(5) -0.0843(4) 0.4037(6)
H24 H 0.3617 -0.1218 0.4617
H25 H 0.2356 -0.0480 0.4476
C29 C 0.3010(4) -0.2504(3) 0.3160(5)
C30 C 0.2829(5) -0.3988(4) 0.1971(5)
H26 H 0.3671 -0.4200 0.2217
H27 H 0.2523 -0.3975 0.1104
C31 C 0.1912(4) -0.6216(4) 0.3571(4)
H28 H 0.1704 -0.6696 0.3926
C32 C 0.2571(5) -0.5692(4) 0.4308(5)
H29 H 0.2804 -0.5822 0.5140
C33 C 0.2883(4) -0.4972(4) 0.3798(5)
H30 H 0.3334 -0.4615 0.4282
C34 C 0.2512(4) -0.4785(3) 0.2548(4)
C35 C 0.1867(4) -0.5357(3) 0.1873(4)
H31 H 0.1633 -0.5251 0.1038
H32 H 0.170(4) -0.264(3) 0.189(4)
N4_2 N 0.1558(3) 0.3929(3) 0.2375(3)
Zn1_2 Zn 0.07442(5) -0.70106(4) 0.13126(5)
O5 O -0.0570(17) 0.0591(19) 0.0188(16)
O6 O -0.0271(6) 0.0564(5) 0.3935(6)
O7 O -0.0161(5) -0.0387(4) 0.1917(7)
loop_
_geom_bond_atom_site_label_1
_geom_bond_atom_site_label_2
_geom_bond_site_symmetry_1
_geom_bond_site_symmetry_2
S1 C29 1_555 1_555
Zn1 O1 1_555 1_555
Fe1 C1 1_555 1_555
Fe2 C12 1_555 1_555
O1 C11 1_555 1_555
O2 C11 1_555 1_555
O3 Zn1 1_555 1_555
O4 C22 1_555 1_555
N1 Zn1 1_555 1_555
N2 H1 1_555 1_555
N3 C29 1_555 1_555
N4 C31 1_555 1_555
C1 H2 1_555 1_555
C2 Fe1 1_555 1_555
H3 C2 1_555 1_555
C3 Fe1 1_555 1_555
H4 C3 1_555 1_555
C4 Fe1 1_555 1_555
H5 C4 1_555 1_555
C5 Fe1 1_555 1_555
H6 C5 1_555 1_555
C6 Fe1 1_555 1_555
H7 C6 1_555 1_555
C7 Fe1 1_555 1_555
H8 C7 1_555 1_555
C8 Fe1 1_555 1_555
H9 C8 1_555 1_555
C9 Fe1 1_555 1_555
H10 C9 1_555 1_555
C10 Fe1 1_555 1_555
C11 C10 1_555 1_555
C12 H11 1_555 1_555
C13 Fe2 1_555 1_555
H12 C13 1_555 1_555
C14 Fe2 1_555 1_555
H13 C14 1_555 1_555
C15 Fe2 1_555 1_555
H14 C15 1_555 1_555
C16 Fe2 1_555 1_555
H15 C16 1_555 1_555
C17 Fe2 1_555 1_555
H16 C17 1_555 1_555
C18 Fe2 1_555 1_555
H17 C18 1_555 1_555
C19 Fe2 1_555 1_555
H18 C19 1_555 1_555
C20 Fe2 1_555 1_555
H19 C20 1_555 1_555
C21 Fe2 1_555 1_555
C22 O3 1_555 1_555
C23 N1 1_555 1_555
H20 C23 1_555 1_555
C24 C23 1_555 1_555
C25 C24 1_555 1_555
H21 C25 1_555 1_555
C26 C25 1_555 1_555
H22 C26 1_555 1_555
C27 N1 1_555 1_555
H23 C27 1_555 1_555
C28 N2 1_555 1_555
H24 C28 1_555 1_555
H25 C28 1_555 1_555
C29 N2 1_555 1_555
C30 N3 1_555 1_555
H26 C30 1_555 1_555
H27 C30 1_555 1_555
C31 H28 1_555 1_555
C32 C31 1_555 1_555
H29 C32 1_555 1_555
C33 C32 1_555 1_555
H30 C33 1_555 1_555
C34 C30 1_555 1_555
C35 N4 1_555 1_555
H31 C35 1_555 1_555
H32 N3 1_555 1_555
N4_2 Zn1 1_555 1_555
Zn1_2 N4 1_555 1_555
C1 C2 1_555 1_555
C1 C5 1_555 1_555
C2 C3 1_555 1_555
C3 C4 1_555 1_555
C4 C5 1_555 1_555
C6 C10 1_555 1_555
C6 C7 1_555 1_555
C7 C8 1_555 1_555
C8 C9 1_555 1_555
C9 C10 1_555 1_555
C12 C13 1_555 1_555
C12 C16 1_555 1_555
C13 C14 1_555 1_555
C14 C15 1_555 1_555
C15 C16 1_555 1_555
C17 C21 1_555 1_555
C17 C18 1_555 1_555
C18 C19 1_555 1_555
C19 C20 1_555 1_555
C20 C21 1_555 1_555
C21 C22 1_555 1_555
C24 C28 1_555 1_555
C26 C27 1_555 1_555
C33 C34 1_555 1_555
C34 C35 1_555 1_555

#END
