
#######################################################################
#
#                 Cambridge Crystallographic Data Centre
#                                CCDC 
#
#######################################################################
#
# If this CIF has been generated from an entry in the Cambridge 
# Structural Database, then it will include bibliographic, chemical, 
# crystal, experimental, refinement or atomic coordinate data resulting 
# from the CCDC's data processing and validation procedures.
#
#######################################################################

data_TAFBIN
_symmetry_cell_setting           tetragonal
_symmetry_space_group_name_H-M   'I -4 2 d'
_symmetry_Int_Tables_number      122
_space_group_name_Hall           'I -4 2bw'
loop_
_symmetry_equiv_pos_site_id
_symmetry_equiv_pos_as_xyz
1 x,y,z
2 -x,-y,z
3 y,-x,-z
4 -y,x,-z
5 1/2-x,y,3/4-z
6 1/2+x,-y,3/4-z
7 1/2-y,-x,3/4+z
8 1/2+y,x,3/4+z
9 1/2+x,1/2+y,1/2+z
10 1/2-x,1/2-y,1/2+z
11 1/2+y,1/2-x,1/2-z
12 1/2-y,1/2+x,1/2-z
13 -x,1/2+y,1/4-z
14 x,1/2-y,1/4-z
15 -y,1/2-x,1/4+z
16 y,1/2+x,1/4+z
_cell_length_a                   16.0070(4)
_cell_length_b                   16.0070(4)
_cell_length_c                   24.1560(10)
_cell_angle_alpha                90
_cell_angle_beta                 90
_cell_angle_gamma                90
_cell_volume                     6189.35
loop_
_atom_site_label
_atom_site_type_symbol
_atom_site_fract_x
_atom_site_fract_y
_atom_site_fract_z
Cd1 Cd 0.175745(17) 0.374124(17) 0.090540(10)
N1 N 0.1601(2) 0.6333(2) 0.32132(12)
N2 N 0.1746(2) 0.63387(18) 0.23028(12)
O1 O 0.2776(2) 0.4743(2) 0.10947(17)
O2 O 0.1486(2) 0.5162(2) 0.11763(14)
O3 O -0.0431(2) 0.8488(2) 0.18452(14)
O4 O -0.1110(2) 0.9088(3) 0.25136(14)
C1 C 0.1829(2) 0.6783(2) 0.27777(14)
C2 C 0.1361(3) 0.5566(2) 0.30062(16)
H1 H 0.1176 0.5118 0.3218
C3 C 0.1435(3) 0.5567(2) 0.24500(16)
H2 H 0.1303 0.5131 0.2212
C4 C 0.1936(3) 0.6645(2) 0.17420(15)
H3 H 0.2146 0.7212 0.1768
H4 H 0.1423 0.6661 0.1529
C5 C 0.2568(3) 0.6117(2) 0.14357(16)
H5 H 0.3037 0.6012 0.1680
H6 H 0.2776 0.6436 0.1123
C6 C 0.2245(3) 0.5284(3) 0.12241(16)
N3 N 0.2885(2) 0.7772(2) 0.30974(13)
N4 N 0.1828(2) 0.8334(2) 0.26461(13)
C7 C 0.2182(2) 0.7619(2) 0.28289(15)
C8 C 0.2987(3) 0.8621(3) 0.3082(2)
H7 H 0.3430 0.8913 0.3239
C9 C 0.2340(3) 0.8971(3) 0.2802(2)
H8 H 0.2262 0.9536 0.2731
C10 C 0.1044(3) 0.8403(3) 0.23355(17)
H9 H 0.0855 0.7846 0.2239
H10 H 0.1152 0.8701 0.1993
C11 C 0.0359(3) 0.8842(3) 0.26425(18)
H11 H 0.0516 0.9419 0.2705
H12 H 0.0280 0.8579 0.3000
C12 C -0.0459(3) 0.8810(3) 0.23157(18)
Cd1K Cd 0.125876(17) 0.675745(17) 0.409460(10)
Cd1L Cd -0.175745(17) 0.874124(17) 0.159460(10)
Cd1O Cd 0.374124(17) 0.675745(17) 0.340540(10)
N1J N 0.1333(2) 0.3399(2) 0.17868(12)
O3L O 0.0431(2) 0.3488(2) 0.06548(14)
O4L O 0.1110(2) 0.4088(3) -0.00136(14)
N3G N 0.2772(2) 0.2885(2) 0.05974(13)
O5 O 0.7335(4) 0.8879(4) 0.3170(2)
H13 H 0.7670 0.9078 0.2884
H14 H 0.7325 0.9247 0.3455
O6 O 0.5584(8) 0.9338(7) 0.3126(5)
H15 H 0.5211 0.9735 0.3146
H16 H 0.6059 0.9196 0.3152
loop_
_geom_bond_atom_site_label_1
_geom_bond_atom_site_label_2
_geom_bond_site_symmetry_1
_geom_bond_site_symmetry_2
Cd1 O1 1_555 1_555
N1 C1 1_555 1_555
N2 C1 1_555 1_555
O1 C6 1_555 1_555
O2 Cd1 1_555 1_555
O3 C12 1_555 1_555
O4 C12 1_555 1_555
C1 C7 1_555 1_555
C2 N1 1_555 1_555
H1 C2 1_555 1_555
C3 N2 1_555 1_555
H2 C3 1_555 1_555
C4 N2 1_555 1_555
H3 C4 1_555 1_555
H4 C4 1_555 1_555
C5 C4 1_555 1_555
H5 C5 1_555 1_555
H6 C5 1_555 1_555
C6 O2 1_555 1_555
N3 C7 1_555 1_555
N4 C7 1_555 1_555
C8 N3 1_555 1_555
H7 C8 1_555 1_555
C9 N4 1_555 1_555
H8 C9 1_555 1_555
C10 N4 1_555 1_555
H9 C10 1_555 1_555
H10 C10 1_555 1_555
C11 C10 1_555 1_555
H11 C11 1_555 1_555
H12 C11 1_555 1_555
C12 C11 1_555 1_555
O5 H13 1_555 1_555
H14 O5 1_555 1_555
O6 H15 1_555 1_555
H16 O6 1_555 1_555
Cd1K N1 1_555 1_555
Cd1L O3 1_555 1_555
Cd1O N3 1_555 1_555
N1J Cd1 1_555 1_555
O3L Cd1 1_555 1_555
O4L Cd1 1_555 1_555
N3G Cd1 1_555 1_555
O4 Cd1L 1_555 1_555
C2 C3 1_555 1_555
C5 C6 1_555 1_555
C8 C9 1_555 1_555

#END
