
#######################################################################
#
#                 Cambridge Crystallographic Data Centre
#                                CCDC 
#
#######################################################################
#
# If this CIF has been generated from an entry in the Cambridge 
# Structural Database, then it will include bibliographic, chemical, 
# crystal, experimental, refinement or atomic coordinate data resulting 
# from the CCDC's data processing and validation procedures.
#
#######################################################################

data_TAFCIO01
_symmetry_cell_setting           monoclinic
_symmetry_space_group_name_H-M   'P 2/n'
_symmetry_Int_Tables_number      13
_space_group_name_Hall           '-P 2yac'
loop_
_symmetry_equiv_pos_site_id
_symmetry_equiv_pos_as_xyz
1 x,y,z
2 1/2-x,y,1/2-z
3 -x,-y,-z
4 1/2+x,-y,1/2+z
_cell_length_a                   19.0301(14)
_cell_length_b                   7.2336(5)
_cell_length_c                   20.5002(15)
_cell_angle_alpha                90
_cell_angle_beta                 106.6290(10)
_cell_angle_gamma                90
_cell_volume                     2703.96
loop_
_atom_site_label
_atom_site_type_symbol
_atom_site_fract_x
_atom_site_fract_y
_atom_site_fract_z
Co1 Co 0.473833(18) 0.66838(5) 0.024447(17)
F1 F 0.48700(11) 1.1855(3) -0.43186(11)
F2 F 0.54455(10) 1.0289(3) -0.34453(11)
F3 F 0.47455(10) 1.2508(3) -0.33438(11)
F4 F 0.37155(12) 0.7002(3) -0.44869(10)
F5 F 0.40030(12) 0.9255(3) -0.50370(9)
F6 F 0.48465(10) 0.7658(3) -0.43522(9)
F7 F 0.21109(14) 1.5258(3) 0.15449(14)
F8 F 0.16988(13) 1.5877(3) 0.23939(15)
F9 F 0.12905(12) 1.3526(3) 0.17498(12)
H1 H 0.338(3) 0.591(7) 0.035(3)
O1 O 0.44582(12) 0.7344(3) -0.07299(10)
O2 O 0.49474(12) 0.4862(3) -0.10804(10)
O3 O 0.07505(11) 1.2263(3) -0.45634(12)
O4 O 0.11791(11) 1.4745(3) -0.49580(11)
O5 O 0.41368(11) 0.8470(2) 0.06412(10)
O6 O 0.31336(14) 0.6816(3) 0.05672(15)
C1 C 0.46332(15) 0.6409(4) -0.11749(15)
C2 C 0.44732(15) 0.7211(4) -0.18767(14)
C3 C 0.46243(16) 0.6204(4) -0.23957(14)
H2 H 0.4795 0.4997 -0.2314
C4 C 0.45239(16) 0.6974(4) -0.30324(15)
H3 H 0.4636 0.6289 -0.3373
C5 C 0.42574(14) 0.8759(4) -0.31670(14)
C6 C 0.40979(16) 0.9751(4) -0.26459(14)
H4 H 0.3913 1.0945 -0.2730
C7 C 0.42076(16) 0.9000(4) -0.20108(14)
H5 H 0.4104 0.9693 -0.1668
C8 C 0.41587(15) 0.9742(4) -0.38553(14)
C9 C 0.34042(14) 1.0698(4) -0.40869(14)
C10 C 0.41871(19) 0.8403(5) -0.44338(16)
C11 C 0.48076(16) 1.1111(5) -0.37441(17)
C12 C 0.33015(17) 1.2437(5) -0.43769(19)
H6 H 0.3700 1.3085 -0.4438
C13 C 0.12577(16) 1.3150(4) -0.46889(14)
C14 C 0.26093(17) 1.3221(4) -0.4577(2)
H7 H 0.2550 1.4393 -0.4771
C15 C 0.35436(15) 0.8269(4) 0.07645(15)
C16 C 0.32591(15) 0.9627(4) 0.11594(15)
C17 C 0.36658(17) 1.1164(4) 0.14298(17)
H8 H 0.4104 1.1398 0.1330
C18 C 0.34314(17) 1.2356(4) 0.18460(18)
H9 H 0.3710 1.3395 0.2020
C19 C 0.27834(16) 1.2026(4) 0.20098(16)
C20 C 0.23604(16) 1.0534(4) 0.17128(16)
H10 H 0.1913 1.0327 0.1800
C21 C 0.25896(16) 0.9342(4) 0.12879(16)
H11 H 0.2296 0.8349 0.1088
C22 C 0.2500 1.3249(5) 0.2500
C23 C 0.1891(2) 1.4485(5) 0.2049(2)
C24 C 0.27953(15) 0.9761(4) -0.40132(15)
H12 H 0.2855 0.8586 -0.3821
C25 C 0.20069(15) 1.2304(4) -0.44933(14)
C26 C 0.21042(16) 1.0534(4) -0.42180(14)
H13 H 0.1703 0.9869 -0.4172
Co1B Co 0.526167(18) 0.33162(5) -0.024447(17)
Co1C Co -0.026167(18) 1.33162(5) -0.475553(17)
Co1A Co 0.026167(18) 1.66838(5) -0.524447(17)
Co1A_2 Co 0.026167(18) 0.66838(5) 0.475553(17)
Co1A_3 Co 1.026167(18) -0.33162(5) 0.475553(17)
Co1C_2 Co 0.973833(18) -0.66838(5) 0.524447(17)
F1B F 0.51300(11) -0.1855(3) 0.43186(11)
F2B F 0.45545(10) -0.0289(3) 0.34453(11)
F3B F 0.52545(10) -0.2508(3) 0.33438(11)
F4B F 0.62845(12) 0.2998(3) 0.44869(10)
F5B F 0.59970(12) 0.0745(3) 0.50370(9)
F6B F 0.51535(10) 0.2342(3) 0.43522(9)
F7A F 0.28891(14) 1.5258(3) 0.34551(14)
F8A F 0.33012(13) 1.5877(3) 0.26061(15)
F9A F 0.37095(12) 1.3526(3) 0.32502(12)
H1A H 0.162(3) 0.591(7) 0.465(3)
O1B O 0.55418(12) 0.2656(3) 0.07299(10)
O2B O 0.50526(12) 0.5138(3) 0.10804(10)
O3B O 0.92495(11) -0.2263(3) 0.45634(12)
O3C O 0.57505(11) 0.7737(3) 0.04366(12)
O3A O 0.42495(11) 0.2263(3) -0.04366(12)
O4B O 0.88209(11) -0.4745(3) 0.49580(11)
O4A O 0.38209(11) 0.4745(3) -0.00420(11)
O4C O 0.61791(11) 0.5255(3) 0.00420(11)
O5A O 0.08632(11) 0.8470(2) 0.43588(10)
O5B O 0.58632(11) 0.1530(2) -0.06412(10)
O6A O 0.18664(14) 0.6816(3) 0.44328(15)
C1B C 0.53668(15) 0.3591(4) 0.11749(15)
C2B C 0.55268(15) 0.2789(4) 0.18767(14)
C3B C 0.53757(16) 0.3796(4) 0.23957(14)
H2B H 0.5205 0.5003 0.2314
C4B C 0.54761(16) 0.3026(4) 0.30324(15)
H3B H 0.5364 0.3711 0.3373
C5B C 0.57426(14) 0.1241(4) 0.31670(14)
C6B C 0.59021(16) 0.0249(4) 0.26459(14)
H4B H 0.6087 -0.0945 0.2730
C7B C 0.57924(16) 0.1000(4) 0.20108(14)
H5B H 0.5896 0.0307 0.1668
C8B C 0.58413(15) 0.0258(4) 0.38553(14)
C9B C 0.65958(14) -0.0698(4) 0.40869(14)
C10B C 0.58129(19) 0.1597(5) 0.44338(16)
C11B C 0.51924(16) -0.1111(5) 0.37441(17)
C12B C 0.66985(17) -0.2437(5) 0.43769(19)
H6B H 0.6300 -0.3085 0.4438
C13B C 0.87423(16) -0.3150(4) 0.46889(14)
C14B C 0.73907(17) -0.3221(4) 0.4577(2)
H7B H 0.7450 -0.4393 0.4771
C15A C 0.14564(15) 0.8269(4) 0.42355(15)
C16A C 0.17409(15) 0.9627(4) 0.38406(15)
C17A C 0.13342(17) 1.1164(4) 0.35702(17)
H8A H 0.0896 1.1398 0.3670
C18A C 0.15686(17) 1.2356(4) 0.31540(18)
H9A H 0.1290 1.3395 0.2980
C19A C 0.22166(16) 1.2026(4) 0.29902(16)
C20A C 0.26396(16) 1.0534(4) 0.32872(16)
H10A H 0.3087 1.0327 0.3200
C21A C 0.24104(16) 0.9342(4) 0.37121(16)
H11A H 0.2704 0.8349 0.3912
C23A C 0.3109(2) 1.4485(5) 0.2951(2)
C24B C 0.72047(15) 0.0239(4) 0.40132(15)
H12B H 0.7145 0.1414 0.3821
C25B C 0.79931(15) -0.2304(4) 0.44933(14)
C26B C 0.78958(16) -0.0534(4) 0.42180(14)
H13B H 0.8297 0.0131 0.4172
loop_
_geom_bond_atom_site_label_1
_geom_bond_atom_site_label_2
_geom_bond_site_symmetry_1
_geom_bond_site_symmetry_2
Co1 O1 1_555 1_555
F1 C11 1_555 1_555
F2 C11 1_555 1_555
F3 C11 1_555 1_555
F4 C10 1_555 1_555
F5 C10 1_555 1_555
F6 C10 1_555 1_555
F7 C23 1_555 1_555
F8 C23 1_555 1_555
F9 C23 1_555 1_555
H1 O6 1_555 1_555
O1 C1 1_555 1_555
O2 C1 1_555 1_555
O3 C13 1_555 1_555
O4 C13 1_555 1_555
O5 Co1 1_555 1_555
O6 C15 1_555 1_555
C1 C2 1_555 1_555
C2 C3 1_555 1_555
C3 H2 1_555 1_555
C4 C3 1_555 1_555
H3 C4 1_555 1_555
C5 C4 1_555 1_555
C6 C5 1_555 1_555
H4 C6 1_555 1_555
C7 C2 1_555 1_555
H5 C7 1_555 1_555
C8 C5 1_555 1_555
C9 C8 1_555 1_555
C10 C8 1_555 1_555
C11 C8 1_555 1_555
C12 C9 1_555 1_555
H6 C12 1_555 1_555
C13 C25 1_555 1_555
C14 C12 1_555 1_555
H7 C14 1_555 1_555
C15 O5 1_555 1_555
C16 C15 1_555 1_555
C17 C16 1_555 1_555
H8 C17 1_555 1_555
C18 C17 1_555 1_555
H9 C18 1_555 1_555
C19 C18 1_555 1_555
C20 C19 1_555 1_555
H10 C20 1_555 1_555
C21 C16 1_555 1_555
H11 C21 1_555 1_555
C22 C19 1_555 1_555
C23 C22 1_555 1_555
C24 C9 1_555 1_555
H12 C24 1_555 1_555
C25 C14 1_555 1_555
C26 C24 1_555 1_555
H13 C26 1_555 1_555
Co1B O2 1_555 1_555
Co1C O3 1_555 1_555
Co1A O4 1_555 1_555
Co1A_2 O5A 1_555 1_555
Co1A_3 O3B 1_555 1_555
Co1C_2 O4B 1_555 1_555
F1B C11B 1_555 1_555
F2B C11B 1_555 1_555
F3B C11B 1_555 1_555
F4B C10B 1_555 1_555
F5B C10B 1_555 1_555
F6B C10B 1_555 1_555
F7A C23A 1_555 1_555
F8A C23A 1_555 1_555
F9A C23A 1_555 1_555
H1A O6A 1_555 1_555
O1B Co1B 1_555 1_555
O2B Co1 1_555 1_555
O3B C13B 1_555 1_555
O3C Co1 1_555 1_555
O3A Co1B 1_555 1_555
O4B C13B 1_555 1_555
O4A Co1 1_555 1_555
O4C Co1B 1_555 1_555
O5A C15A 1_555 1_555
O5B Co1B 1_555 1_555
O6A C15A 1_555 1_555
C1B O1B 1_555 1_555
C2B C1B 1_555 1_555
C3B C2B 1_555 1_555
H2B C3B 1_555 1_555
C4B C3B 1_555 1_555
H3B C4B 1_555 1_555
C5B C4B 1_555 1_555
C6B C5B 1_555 1_555
H4B C6B 1_555 1_555
C7B C2B 1_555 1_555
H5B C7B 1_555 1_555
C8B C5B 1_555 1_555
C9B C8B 1_555 1_555
C10B C8B 1_555 1_555
C11B C8B 1_555 1_555
C12B C9B 1_555 1_555
H6B C12B 1_555 1_555
C13B C25B 1_555 1_555
C14B C12B 1_555 1_555
H7B C14B 1_555 1_555
C15A C16A 1_555 1_555
C16A C17A 1_555 1_555
C17A H8A 1_555 1_555
C18A C17A 1_555 1_555
H9A C18A 1_555 1_555
C19A C22 1_555 1_555
C20A C19A 1_555 1_555
H10A C20A 1_555 1_555
C21A C16A 1_555 1_555
H11A C21A 1_555 1_555
C23A C22 1_555 1_555
C24B C9B 1_555 1_555
H12B C24B 1_555 1_555
C25B C14B 1_555 1_555
C26B C24B 1_555 1_555
H13B C26B 1_555 1_555
C6 C7 1_555 1_555
C20 C21 1_555 1_555
C25 C26 1_555 1_555
O2B C1B 1_555 1_555
C6B C7B 1_555 1_555
C18A C19A 1_555 1_555
C20A C21A 1_555 1_555
C25B C26B 1_555 1_555

#END
