
#######################################################################
#
#                 Cambridge Crystallographic Data Centre
#                                CCDC 
#
#######################################################################
#
# If this CIF has been generated from an entry in the Cambridge 
# Structural Database, then it will include bibliographic, chemical, 
# crystal, experimental, refinement or atomic coordinate data resulting 
# from the CCDC's data processing and validation procedures.
#
#######################################################################

data_TAFKOB
_symmetry_cell_setting           monoclinic
_symmetry_space_group_name_H-M   'P 21/n'
_symmetry_Int_Tables_number      14
_space_group_name_Hall           '-P 2yn'
loop_
_symmetry_equiv_pos_site_id
_symmetry_equiv_pos_as_xyz
1 x,y,z
2 1/2+x,1/2-y,1/2+z
3 -x,-y,-z
4 1/2-x,1/2+y,1/2-z
_cell_length_a                   6.894(1)
_cell_length_b                   16.400(2)
_cell_length_c                   19.401(3)
_cell_angle_alpha                90
_cell_angle_beta                 96.39(1)
_cell_angle_gamma                90
_cell_volume                     2179.88
loop_
_atom_site_label
_atom_site_type_symbol
_atom_site_fract_x
_atom_site_fract_y
_atom_site_fract_z
Sn1 Sn 0.23108(6) 0.22548(3) 0.29825(2)
S1 S -0.2621(2) 0.19117(10) 0.32759(9)
O1 O -0.1005(6) 0.2270(3) 0.2941(2)
O2 O -0.4402(6) 0.2311(3) 0.2959(3)
O3 O -0.2336(10) 0.1963(4) 0.4013(3)
C1 C 0.2456(9) 0.3342(4) 0.3588(4)
C2 C 0.3808(13) 0.3950(5) 0.3470(5)
H1 H 0.4652 0.3879 0.3113
C3 C 0.3916(16) 0.4653(6) 0.3878(6)
H2 H 0.4818 0.5076 0.3790
C4 C 0.2738(16) 0.4749(6) 0.4394(6)
H3 H 0.2814 0.5239 0.4666
C5 C 0.1450(15) 0.4152(6) 0.4521(5)
H4 H 0.0669 0.4211 0.4897
C6 C 0.1270(11) 0.3453(5) 0.4113(4)
H5 H 0.0327 0.3044 0.4194
C7 C 0.2455(9) 0.1135(4) 0.3522(4)
C8 C 0.2383(11) 0.0395(4) 0.3179(5)
H6 H 0.2260 0.0392 0.2681
C9 C 0.2501(15) -0.0331(6) 0.3538(8)
H7 H 0.2452 -0.0839 0.3292
C10 C 0.2659(18) -0.0328(7) 0.4233(10)
H8 H 0.2720 -0.0834 0.4483
C11 C 0.2728(21) 0.0411(9) 0.4595(7)
H9 H 0.2874 0.0412 0.5093
C12 C 0.2636(16) 0.1147(6) 0.4239(5)
H10 H 0.2685 0.1658 0.4482
C13 C 0.2002(10) 0.2263(5) 0.1870(3)
C14 C 0.0226(16) 0.2065(7) 0.1505(4)
H11 H -0.0878 0.1956 0.1752
C15 C 0.0053(23) 0.2030(9) 0.0781(5)
H12 H -0.1179 0.1871 0.0539
C16 C 0.1492(23) 0.2212(8) 0.0420(5)
H13 H 0.1293 0.2218 -0.0078
C17 C 0.3314(21) 0.2402(8) 0.0766(6)
H14 H 0.4392 0.2510 0.0506
C18 C 0.3568(14) 0.2434(6) 0.1498(5)
H15 H 0.4816 0.2572 0.1740
C19 C -0.2798(10) 0.0884(4) 0.3022(4)
C20 C -0.3373(12) 0.0682(6) 0.2342(5)
H16 H -0.3676 0.1102 0.2003
C21 C -0.3531(16) -0.0119(7) 0.2142(7)
H17 H -0.3900 -0.0270 0.1668
C22 C -0.3121(16) -0.0721(7) 0.2625(9)
H18 H -0.3253 -0.1284 0.2495
C23 C -0.2534(16) -0.0539(6) 0.3304(9)
H19 H -0.2211 -0.0958 0.3644
C24 C -0.2392(12) 0.0291(5) 0.3515(6)
H20 H -0.2020 0.0445 0.3989
O2_2 O 0.5598(6) 0.2311(3) 0.2959(3)
Sn1_2 Sn -0.76892(6) 0.22548(3) 0.29825(2)
loop_
_geom_bond_atom_site_label_1
_geom_bond_atom_site_label_2
_geom_bond_site_symmetry_1
_geom_bond_site_symmetry_2
Sn1 O1 1_555 1_555
S1 O1 1_555 1_555
O2 S1 1_555 1_555
O3 S1 1_555 1_555
C1 Sn1 1_555 1_555
C2 C1 1_555 1_555
H1 C2 1_555 1_555
C3 C2 1_555 1_555
H2 C3 1_555 1_555
C4 C3 1_555 1_555
H3 C4 1_555 1_555
C5 C4 1_555 1_555
H4 C5 1_555 1_555
C6 C1 1_555 1_555
H5 C6 1_555 1_555
C7 Sn1 1_555 1_555
C8 C7 1_555 1_555
H6 C8 1_555 1_555
C9 C8 1_555 1_555
H7 C9 1_555 1_555
C10 C9 1_555 1_555
H8 C10 1_555 1_555
C11 C10 1_555 1_555
H9 C11 1_555 1_555
C12 C7 1_555 1_555
H10 C12 1_555 1_555
C13 Sn1 1_555 1_555
C14 C13 1_555 1_555
H11 C14 1_555 1_555
C15 C14 1_555 1_555
H12 C15 1_555 1_555
C16 C15 1_555 1_555
H13 C16 1_555 1_555
C17 C16 1_555 1_555
H14 C17 1_555 1_555
C18 C13 1_555 1_555
H15 C18 1_555 1_555
C19 S1 1_555 1_555
C20 C19 1_555 1_555
H16 C20 1_555 1_555
C21 C20 1_555 1_555
H17 C21 1_555 1_555
C22 C21 1_555 1_555
H18 C22 1_555 1_555
C23 C22 1_555 1_555
H19 C23 1_555 1_555
C24 C19 1_555 1_555
H20 C24 1_555 1_555
O2_2 Sn1 1_555 1_555
Sn1_2 O2 1_555 1_555
C5 C6 1_555 1_555
C11 C12 1_555 1_555
C17 C18 1_555 1_555
C23 C24 1_555 1_555

#END
