
#######################################################################
#
#                 Cambridge Crystallographic Data Centre
#                                CCDC 
#
#######################################################################
#
# If this CIF has been generated from an entry in the Cambridge 
# Structural Database, then it will include bibliographic, chemical, 
# crystal, experimental, refinement or atomic coordinate data resulting 
# from the CCDC's data processing and validation procedures.
#
#######################################################################

data_TAFQOH
_symmetry_cell_setting           monoclinic
_symmetry_space_group_name_H-M   'C 2/c'
_symmetry_Int_Tables_number      15
_space_group_name_Hall           '-C 2yn'
loop_
_symmetry_equiv_pos_site_id
_symmetry_equiv_pos_as_xyz
1 x,y,z
2 1/2+x,1/2+y,z
3 x,-y,1/2+z
4 1/2+x,1/2-y,1/2+z
5 -x,-y,-z
6 1/2-x,1/2-y,-z
7 -x,y,1/2-z
8 1/2-x,1/2+y,1/2-z
_cell_length_a                   28.606(2)
_cell_length_b                   14.9439(11)
_cell_length_c                   17.2648(13)
_cell_angle_alpha                90
_cell_angle_beta                 109.778(2)
_cell_angle_gamma                90
_cell_volume                     6945.08
loop_
_atom_site_label
_atom_site_type_symbol
_atom_site_fract_x
_atom_site_fract_y
_atom_site_fract_z
Ag1 Ag 0.122383(9) 0.749104(14) 0.272400(14)
C1 C 0.13600(11) 0.52046(19) 0.26864(16)
C2 C 0.11816(10) -0.02396(18) 0.28900(16)
C3 C 0.22961(11) 0.5261(2) 0.31187(17)
H1 H 0.2362 0.4646 0.3061
C4 C 0.26370(12) 0.5923(2) 0.33473(19)
H2 H 0.2987 0.5869 0.3484
C5 C 0.23674(11) 0.6701(2) 0.33395(17)
H3 H 0.2512 0.7278 0.3475
C6 C 0.09280(12) 0.5087(2) 0.11318(17)
H4 H 0.1020 0.4496 0.1040
C7 C 0.06280(12) 0.5651(2) 0.05582(18)
H5 H 0.0472 0.5540 -0.0013
C8 C 0.05993(12) 0.6423(2) 0.09873(17)
H6 H 0.0412 0.6938 0.0743
C9 C 0.11971(12) 0.58722(19) 0.39429(17)
H7 H 0.1510 0.6132 0.4240
C10 C 0.07791(12) 0.5885(2) 0.41542(18)
H8 H 0.0738 0.6159 0.4623
C11 C 0.04244(12) 0.5407(2) 0.35312(18)
H9 H 0.0094 0.5305 0.3516
C12 C 0.10030(10) 0.0104(2) 0.13726(17)
H10 H 0.0961 0.0734 0.1378
C13 C 0.09802(11) -0.0399(2) 0.07092(17)
H11 H 0.0917 -0.0200 0.0160
C14 C 0.10701(11) -0.1274(2) 0.10066(17)
H12 H 0.1078 -0.1779 0.0678
C15 C 0.04640(10) -0.0240(2) 0.34386(16)
H13 H 0.0414 0.0386 0.3464
C16 C 0.02071(11) -0.0894(2) 0.36585(17)
H14 H -0.0060 -0.0822 0.3864
C17 C 0.04133(11) -0.1691(2) 0.35221(17)
H15 H 0.0306 -0.2265 0.3627
C18 C 0.18115(11) -0.0958(2) 0.41500(16)
H16 H 0.1605 -0.1115 0.4459
C19 C 0.23135(11) -0.1055(2) 0.43853(18)
H17 H 0.2529 -0.1304 0.4885
C20 C 0.24442(11) -0.0714(2) 0.37401(19)
H18 H 0.2776 -0.0691 0.3740
C21 C 0.14153(12) 0.41796(18) 0.26568(17)
H19 H 0.1084 0.3895 0.2425
H20 H 0.1613 0.4021 0.2305
C22 C 0.14543(18) 0.3156(3) 0.3693(2)
H21 H 0.1478 0.2644 0.3344
H22 H 0.1098 0.3273 0.3590
C23 C 0.16984(12) 0.2906(2) 0.45780(18)
C24 C 0.17544(12) 0.3521(2) 0.5190(2)
H23 H 0.1632 0.4111 0.5046
C25 C 0.19833(12) 0.3309(2) 0.60082(19)
H24 H 0.2017 0.3746 0.6423
C26 C 0.21610(13) 0.2462(2) 0.62161(19)
H25 H 0.2324 0.2308 0.6777
C27 C 0.21026(11) 0.1833(2) 0.5609(2)
H26 H 0.2223 0.1243 0.5759
C28 C 0.18736(10) 0.2039(2) 0.47881(18)
C29 C 0.18291(12) 0.1329(3) 0.4158(2)
H27 H 0.1952 0.1560 0.3724
H28 H 0.2033 0.0805 0.4418
C30 C 0.11748(11) 0.07928(18) 0.29717(17)
H29 H 0.1406 0.1059 0.2719
H30 H 0.0837 0.1017 0.2667
N1 N 0.18864(9) 0.65378(15) 0.31197(13)
N2 N 0.18403(9) 0.56315(15) 0.29858(13)
N3 N 0.08640(10) 0.63536(15) 0.17780(14)
N4 N 0.10710(9) 0.55295(15) 0.18578(13)
N5 N 0.06042(9) 0.51142(18) 0.29677(15)
N6 N 0.10777(9) 0.54151(16) 0.32227(13)
N7 N 0.11423(9) -0.13094(15) 0.18044(14)
N8 N 0.10958(8) -0.04511(15) 0.20257(13)
N9 N 0.07793(8) -0.15546(15) 0.32278(13)
N10 N 0.08078(8) -0.06454(15) 0.31742(13)
N11 N 0.20553(9) -0.04228(16) 0.31226(15)
N12 N 0.16657(8) -0.05906(14) 0.33845(13)
O1 O 0.16571(8) 0.38806(14) 0.34703(12)
O2 O 0.13129(7) 0.10670(13) 0.37958(12)
N7_2 N 0.11423(9) 0.86906(15) 0.18044(14)
N9_2 N 0.07793(8) 0.84454(15) 0.32278(13)
Ag1_2 Ag 0.122383(9) -0.250896(14) 0.272400(14)
B1 B 0.12649(15) 0.2527(2) 0.0963(2)
F1 F 0.14002(12) 0.22257(14) 0.17628(13)
F2 F 0.07906(9) 0.28841(17) 0.07441(17)
F3 F 0.15675(8) 0.32051(14) 0.09037(13)
F4 F 0.12696(9) 0.18290(13) 0.04582(12)
C31 C 0.99980(18) 0.2582(3) 0.1828(3)
H31 H 0.9779 0.3104 0.1799
H32 H 1.0338 0.2809 0.1925
C32 C 0.98303(19) 0.2118(4) 0.1067(3)
H33 H 1.0044 0.1599 0.1094
H34 H 0.9842 0.2518 0.0625
H35 H 0.9488 0.1916 0.0957
O3 O 1.0000 0.2024(3) 0.2500
C31F C 1.00020(18) 0.2582(3) 0.3172(3)
H31F H 1.0221 0.3104 0.3201
H32F H 0.9662 0.2809 0.3075
C32F C 1.01697(19) 0.2118(4) 0.3933(3)
H33F H 0.9956 0.1599 0.3906
H34F H 1.0158 0.2518 0.4375
H35F H 1.0512 0.1916 0.4043
loop_
_geom_bond_atom_site_label_1
_geom_bond_atom_site_label_2
_geom_bond_site_symmetry_1
_geom_bond_site_symmetry_2
Ag1 N1 1_555 1_555
C1 C21 1_555 1_555
C2 C30 1_555 1_555
C3 H1 1_555 1_555
C4 C3 1_555 1_555
H2 C4 1_555 1_555
C5 C4 1_555 1_555
H3 C5 1_555 1_555
C6 H4 1_555 1_555
C7 C6 1_555 1_555
H5 C7 1_555 1_555
C8 C7 1_555 1_555
H6 C8 1_555 1_555
C9 H7 1_555 1_555
C10 C9 1_555 1_555
H8 C10 1_555 1_555
C11 C10 1_555 1_555
H9 C11 1_555 1_555
C12 H10 1_555 1_555
C13 C12 1_555 1_555
H11 C13 1_555 1_555
C14 C13 1_555 1_555
H12 C14 1_555 1_555
C15 H13 1_555 1_555
C16 C15 1_555 1_555
H14 C16 1_555 1_555
C17 C16 1_555 1_555
H15 C17 1_555 1_555
C18 H16 1_555 1_555
C19 C18 1_555 1_555
H17 C19 1_555 1_555
C20 C19 1_555 1_555
H18 C20 1_555 1_555
C21 H19 1_555 1_555
H20 C21 1_555 1_555
C22 H21 1_555 1_555
H22 C22 1_555 1_555
C23 C22 1_555 1_555
C24 C23 1_555 1_555
H23 C24 1_555 1_555
C25 C24 1_555 1_555
H24 C25 1_555 1_555
C26 C25 1_555 1_555
H25 C26 1_555 1_555
C27 C26 1_555 1_555
H26 C27 1_555 1_555
C28 C23 1_555 1_555
C29 C28 1_555 1_555
H27 C29 1_555 1_555
H28 C29 1_555 1_555
C30 H29 1_555 1_555
H30 C30 1_555 1_555
N1 C5 1_555 1_555
N2 C1 1_555 1_555
N3 Ag1 1_555 1_555
N4 C1 1_555 1_555
N5 C11 1_555 1_555
N6 C1 1_555 1_555
N7 C14 1_555 1_555
N8 C2 1_555 1_555
N9 C17 1_555 1_555
N10 C2 1_555 1_555
N11 C20 1_555 1_555
N12 C2 1_555 1_555
O1 C21 1_555 1_555
O2 C29 1_555 1_555
B1 F1 1_555 1_555
F2 B1 1_555 1_555
F3 B1 1_555 1_555
F4 B1 1_555 1_555
C31 H31 1_555 1_555
H32 C31 1_555 1_555
C32 C31 1_555 1_555
H33 C32 1_555 1_555
H34 C32 1_555 1_555
H35 C32 1_555 1_555
O3 C31 1_555 1_555
C31F O3 1_555 1_555
H31F C31F 1_555 1_555
H32F C31F 1_555 1_555
C32F C31F 1_555 1_555
H33F C32F 1_555 1_555
H34F C32F 1_555 1_555
H35F C32F 1_555 1_555
N7_2 Ag1 1_555 1_555
N9_2 Ag1 1_555 1_555
Ag1_2 N7 1_555 1_555
C3 N2 1_555 1_555
C6 N4 1_555 1_555
C8 N3 1_555 1_555
C9 N6 1_555 1_555
C12 N8 1_555 1_555
C15 N10 1_555 1_555
C18 N12 1_555 1_555
C22 O1 1_555 1_555
C27 C28 1_555 1_555
C30 O2 1_555 1_555
N1 N2 1_555 1_555
N3 N4 1_555 1_555
N5 N6 1_555 1_555
N7 N8 1_555 1_555
N9 N10 1_555 1_555
N9 Ag1_2 1_555 1_555
N11 N12 1_555 1_555

#END
