
#######################################################################
#
#                 Cambridge Crystallographic Data Centre
#                                CCDC 
#
#######################################################################
#
# If this CIF has been generated from an entry in the Cambridge 
# Structural Database, then it will include bibliographic, chemical, 
# crystal, experimental, refinement or atomic coordinate data resulting 
# from the CCDC's data processing and validation procedures.
#
#######################################################################

data_TAFYIK
_symmetry_cell_setting           triclinic
_symmetry_space_group_name_H-M   'P -1'
_symmetry_Int_Tables_number      2
_space_group_name_Hall           '-P 1'
loop_
_symmetry_equiv_pos_site_id
_symmetry_equiv_pos_as_xyz
1 x,y,z
2 -x,-y,-z
_cell_length_a                   10.0611(13)
_cell_length_b                   12.0763(16)
_cell_length_c                   15.1854(20)
_cell_angle_alpha                85.0225(18)
_cell_angle_beta                 87.2600(17)
_cell_angle_gamma                67.4954(15)
_cell_volume                     1697.9
loop_
_atom_site_label
_atom_site_type_symbol
_atom_site_fract_x
_atom_site_fract_y
_atom_site_fract_z
Cu1 Cu 0.41653(18) 0.23782(15) 0.18380(13)
Cu2 Cu -0.00479(16) 0.04844(16) 0.33154(11)
Cu3 Cu 0.79408(19) 0.5102(2) 0.19199(15)
Mo1 Mo -0.05617(17) 0.34262(13) 0.45632(10)
Mo2 Mo 0.22595(15) 0.41987(13) 0.43044(10)
Mo3 Mo 0.09398(16) 0.38787(12) 0.62779(9)
Mo4 Mo 0.24483(10) 0.16162(8) 0.00057(6)
Mo5 Mo 0.69131(9) 0.12598(8) -0.00275(6)
Mo6 Mo -0.00419(9) 0.08345(8) -0.10380(6)
Mo7 Mo -0.06220(10) 0.19640(8) 0.10419(6)
O1 O 0.3861(14) 0.3655(12) 0.3795(10)
O2 O 0.1399(13) 0.3088(9) 0.4089(8)
O3 O 0.2600(12) 0.3517(11) 0.5447(9)
O4 O -0.2217(13) 0.4296(10) 0.5239(8)
O5 O 0.0430(13) 0.2787(9) 0.5683(8)
O6 O -0.0931(15) 0.2301(12) 0.4242(9)
O7 O 0.0000 0.5000 0.5000
O8 O -0.1227(12) 0.4636(10) 0.3630(7)
O9 O 0.0990(12) 0.5298(10) 0.3394(7)
O10 O 0.1724(15) 0.3073(11) 0.7207(8)
O11 O 0.1049(8) 0.1666(7) -0.1149(5)
O12 O 0.3030(9) 0.2606(8) -0.0587(6)
O13 O 0.3250(8) 0.1365(7) 0.1014(6)
O14 O 0.0554(8) 0.2653(7) 0.0384(5)
O15 O 0.3468(8) 0.0094(7) -0.0454(5)
O16 O 0.6258(9) 0.1455(8) -0.1056(6)
O17 O 0.8440(8) 0.1928(6) -0.0332(5)
O18 O 0.8504(8) 0.0733(6) 0.1152(5)
O19 O 0.0810(8) -0.1058(7) 0.2041(5)
O20 O 0.0975(7) 0.0353(6) 0.0398(5)
O21 O 0.0173(9) 0.1602(7) 0.2053(5)
O22 O 0.5707(8) 0.2387(7) 0.0552(6)
O23 O 0.7904(9) 0.3226(7) 0.1198(6)
N1 N 0.1955(10) -0.0094(10) 0.3637(7)
N2 N 0.6337(10) 0.0136(8) 0.2640(6)
N3 N 0.5797(10) 0.1356(8) 0.2537(6)
N4 N 0.7999(10) 0.0647(9) 0.3131(6)
N5 N 0.5917(12) 0.5586(11) 0.2104(9)
N6 N 0.1962(11) 0.4750(9) 0.1198(7)
N7 N 0.2318(10) 0.3729(8) 0.1746(7)
N8 N -0.0068(11) 0.4694(9) 0.1684(8)
C1 C 0.4845(15) -0.0987(14) 0.4029(10)
H1 H 0.5818 -0.1285 0.4162
C2 C 0.3850(16) -0.0990(17) 0.4683(10)
H2 H 0.4136 -0.1296 0.5257
C3 C 0.2400(15) -0.0519(15) 0.4458(9)
H3 H 0.1716 -0.0501 0.4897
C4 C 0.2952(12) -0.0126(11) 0.3016(8)
H4 H 0.2647 0.0150 0.2441
C5 C 0.4408(12) -0.0543(11) 0.3175(8)
C6 C 0.5461(12) -0.0558(11) 0.2438(8)
H5 H 0.6091 -0.1382 0.2352
H6 H 0.4944 -0.0214 0.1895
C7 C 0.6855(13) 0.1618(11) 0.2856(9)
H7 H 0.6800 0.2401 0.2884
C8 C 0.7631(12) -0.0270(11) 0.2988(8)
H8 H 0.8201 -0.1077 0.3114
C9 C 0.5216(13) 0.5256(12) 0.1501(10)
H9 H 0.5744 0.4800 0.1049
C10 C 0.5171(16) 0.6229(13) 0.2753(12)
H10 H 0.5649 0.6458 0.3167
C11 C 0.3684(15) 0.6570(13) 0.2827(11)
H11 H 0.3181 0.7006 0.3295
C12 C 0.2965(13) 0.6262(11) 0.2208(9)
H12 H 0.1968 0.6510 0.2240
C13 C 0.3743(13) 0.5575(10) 0.1536(8)
C14 C 0.3073(13) 0.5163(11) 0.0827(9)
H13 H 0.2653 0.5822 0.0385
H14 H 0.3813 0.4514 0.0540
C15 C 0.0536(13) 0.5305(12) 0.1187(9)
H15 H 0.0042 0.6029 0.0867
C16 C 0.1062(13) 0.3741(11) 0.2033(10)
H16 H 0.0955 0.3154 0.2436
Cu1_2 Cu -0.58347(18) 0.23782(15) 0.18380(13)
Cu1_3 Cu 1.41653(18) 0.23782(15) 0.18380(13)
Cu2_2 Cu 0.99521(16) 0.04844(16) 0.33154(11)
Cu2_3 Cu -1.00479(16) 0.04844(16) 0.33154(11)
Cu3_2 Cu -0.20592(19) 0.5102(2) 0.19199(15)
Cu3_3 Cu 1.79408(19) 0.5102(2) 0.19199(15)
Mo1_2 Mo 0.94383(17) 0.34262(13) 0.45632(10)
Mo1A Mo 0.05617(17) 0.65738(13) 0.54368(10)
Mo2_2 Mo 1.22595(15) 0.41987(13) 0.43044(10)
Mo2A Mo -0.22595(15) 0.58013(13) 0.56956(10)
Mo2A_2 Mo 0.77405(15) 0.58013(13) 0.56956(10)
Mo3_2 Mo 1.09398(16) 0.38787(12) 0.62779(9)
Mo3A Mo -0.09398(16) 0.61213(12) 0.37221(9)
Mo3A_2 Mo 0.90602(16) 0.61213(12) 0.37221(9)
Mo4A Mo 0.75517(10) -0.16162(8) -0.00057(6)
Mo4_2 Mo -0.75517(10) 0.16162(8) 0.00057(6)
Mo5A Mo 0.30869(9) -0.12598(8) 0.00275(6)
Mo5_2 Mo -0.30869(9) 0.12598(8) -0.00275(6)
Mo6_2 Mo 0.99581(9) 0.08345(8) -0.10380(6)
Mo6A Mo 1.00419(9) -0.08345(8) 0.10380(6)
Mo6A_2 Mo 0.00419(9) -0.08345(8) 0.10380(6)
Mo7_2 Mo 0.93780(10) 0.19640(8) 0.10419(6)
Mo7A Mo 1.06220(10) -0.19640(8) -0.10419(6)
Mo7A_2 Mo 0.06220(10) -0.19640(8) -0.10419(6)
O1_2 O 1.3861(14) 0.3655(12) 0.3795(10)
O2_2 O 1.1399(13) 0.3088(9) 0.4089(8)
O3_2 O 1.2600(12) 0.3517(11) 0.5447(9)
O4_2 O 0.7783(13) 0.4296(10) 0.5239(8)
O4A O 0.2217(13) 0.5704(10) 0.4761(8)
O4A_2 O 1.2217(13) 0.5704(10) 0.4761(8)
O5_2 O 1.0430(13) 0.2787(9) 0.5683(8)
O6_2 O 0.9069(15) 0.2301(12) 0.4242(9)
O7_2 O 1.0000 0.5000 0.5000
O8_2 O 0.8773(12) 0.4636(10) 0.3630(7)
O8A O 0.1227(12) 0.5364(10) 0.6370(7)
O8A_2 O 1.1227(12) 0.5364(10) 0.6370(7)
O9A O -0.0990(12) 0.4702(10) 0.6606(7)
O9_2 O 1.0990(12) 0.5298(10) 0.3394(7)
O9A_2 O 0.9010(12) 0.4702(10) 0.6606(7)
O10_2 O 1.1724(15) 0.3073(11) 0.7207(8)
O11A O 0.8951(8) -0.1666(7) 0.1149(5)
O11_2 O 1.1049(8) 0.1666(7) -0.1149(5)
O12A O 0.6970(9) -0.2606(8) 0.0587(6)
O13_2 O -0.6750(8) 0.1365(7) 0.1014(6)
O13A O 0.6750(8) -0.1365(7) -0.1014(6)
O14A O 0.9446(8) -0.2653(7) -0.0384(5)
O14_2 O 1.0554(8) 0.2653(7) 0.0384(5)
O15A O 0.6532(8) -0.0094(7) 0.0454(5)
O16A O 0.3742(9) -0.1455(8) 0.1056(6)
O17_2 O -0.1560(8) 0.1928(6) -0.0332(5)
O17A O 0.1560(8) -0.1928(6) 0.0332(5)
O18A O 0.1496(8) -0.0733(6) -0.1152(5)
O18_2 O -0.1496(8) 0.0733(6) 0.1152(5)
O18A_2 O 1.1496(8) -0.0733(6) -0.1152(5)
O19_2 O 1.0810(8) -0.1058(7) 0.2041(5)
O19A O -0.0810(8) 0.1058(7) -0.2041(5)
O19A_2 O 0.9190(8) 0.1058(7) -0.2041(5)
O20A O 0.9025(7) -0.0353(6) -0.0398(5)
O20A_2 O -0.0975(7) -0.0353(6) -0.0398(5)
O20_2 O 1.0975(7) 0.0353(6) 0.0398(5)
O21_2 O 1.0173(9) 0.1602(7) 0.2053(5)
O22_2 O -0.4293(8) 0.2387(7) 0.0552(6)
O22A O 0.4293(8) -0.2387(7) -0.0552(6)
O23_2 O -0.2096(9) 0.3226(7) 0.1198(6)
N1_2 N -0.8045(10) -0.0094(10) 0.3637(7)
N1_3 N 1.1955(10) -0.0094(10) 0.3637(7)
N2_2 N -0.3663(10) 0.0136(8) 0.2640(6)
N3_2 N -0.4203(10) 0.1356(8) 0.2537(6)
N4_2 N -0.2001(10) 0.0647(9) 0.3131(6)
N5_2 N 1.5917(12) 0.5586(11) 0.2104(9)
N5_3 N -0.4083(12) 0.5586(11) 0.2104(9)
N6_2 N 1.1962(11) 0.4750(9) 0.1198(7)
N7_2 N 1.2318(10) 0.3729(8) 0.1746(7)
N7_3 N -0.7682(10) 0.3729(8) 0.1746(7)
N8_2 N 0.9932(11) 0.4694(9) 0.1684(8)
C1_2 C -0.5155(15) -0.0987(14) 0.4029(10)
H1_2 H -0.4182 -0.1285 0.4162
C2_2 C -0.6150(16) -0.0990(17) 0.4683(10)
H2_2 H -0.5864 -0.1296 0.5257
C3_2 C -0.7600(15) -0.0519(15) 0.4458(9)
H3_2 H -0.8284 -0.0501 0.4897
C4_2 C -0.7048(12) -0.0126(11) 0.3016(8)
H4_2 H -0.7353 0.0150 0.2441
C5_2 C -0.5592(12) -0.0543(11) 0.3175(8)
C6_2 C -0.4539(12) -0.0558(11) 0.2438(8)
H5_2 H -0.3909 -0.1382 0.2352
H6_2 H -0.5056 -0.0214 0.1895
C7_2 C -0.3145(13) 0.1618(11) 0.2856(9)
H7_2 H -0.3200 0.2401 0.2884
C8_2 C -0.2369(12) -0.0270(11) 0.2988(8)
H8_2 H -0.1799 -0.1077 0.3114
C9_2 C 1.5216(13) 0.5256(12) 0.1501(10)
H9_2 H 1.5744 0.4800 0.1049
C10_2 C 1.5171(16) 0.6229(13) 0.2753(12)
H10_2 H 1.5649 0.6458 0.3167
C11_2 C 1.3684(15) 0.6570(13) 0.2827(11)
H11_2 H 1.3181 0.7006 0.3295
C12_2 C 1.2965(13) 0.6262(11) 0.2208(9)
H12_2 H 1.1968 0.6510 0.2240
C13_2 C 1.3743(13) 0.5575(10) 0.1536(8)
C14_2 C 1.3073(13) 0.5163(11) 0.0827(9)
H13_2 H 1.2653 0.5822 0.0385
H14_2 H 1.3813 0.4514 0.0540
C15_2 C 1.0536(13) 0.5305(12) 0.1187(9)
H15_2 H 1.0042 0.6029 0.0867
C16_2 C 1.1062(13) 0.3741(11) 0.2033(10)
H16_2 H 1.0955 0.3154 0.2436
loop_
_geom_bond_atom_site_label_1
_geom_bond_atom_site_label_2
_geom_bond_site_symmetry_1
_geom_bond_site_symmetry_2
Cu1 O13 1_555 1_555
Cu2 O6 1_555 1_555
Cu3 O23 1_555 1_555
Mo1 O2 1_555 1_555
Mo2 O1 1_555 1_555
Mo3 O3 1_555 1_555
Mo4 O11 1_555 1_555
Mo5 O16 1_555 1_555
Mo6 O11 1_555 1_555
Mo7 O14 1_555 1_555
O2 Mo2 1_555 1_555
O3 Mo2 1_555 1_555
O4 Mo1 1_555 1_555
O5 Mo1 1_555 1_555
O6 Mo1 1_555 1_555
O7 Mo1 1_555 1_555
O8 Mo1 1_555 1_555
O9 Mo2 1_555 1_555
O10 Mo3 1_555 1_555
O12 Mo4 1_555 1_555
O13 Mo4 1_555 1_555
O14 Mo4 1_555 1_555
O15 Mo4 1_555 1_555
O17 Mo5 1_555 1_555
O18 Mo5 1_555 1_555
O19 Cu2 1_555 1_555
O20 Mo4 1_555 1_555
O21 Cu2 1_555 1_555
O22 Cu1 1_555 1_555
O23 Mo7_2 1_555 1_555
N1 Cu2 1_555 1_555
N2 N3 1_555 1_555
N3 Cu1 1_555 1_555
N4 C7 1_555 1_555
N5 Cu3 1_555 1_555
N6 N7 1_555 1_555
N7 Cu1 1_555 1_555
N8 C15 1_555 1_555
C1 H1 1_555 1_555
C2 C1 1_555 1_555
H2 C2 1_555 1_555
C3 N1 1_555 1_555
H3 C3 1_555 1_555
C4 N1 1_555 1_555
H4 C4 1_555 1_555
C5 C1 1_555 1_555
C6 N2 1_555 1_555
H5 C6 1_555 1_555
H6 C6 1_555 1_555
C7 N3 1_555 1_555
H7 C7 1_555 1_555
C8 N2 1_555 1_555
H8 C8 1_555 1_555
C9 N5 1_555 1_555
H9 C9 1_555 1_555
C10 N5 1_555 1_555
H10 C10 1_555 1_555
C11 C10 1_555 1_555
H11 C11 1_555 1_555
C12 C11 1_555 1_555
H12 C12 1_555 1_555
C13 C9 1_555 1_555
C14 N6 1_555 1_555
H13 C14 1_555 1_555
H14 C14 1_555 1_555
C15 N6 1_555 1_555
H15 C15 1_555 1_555
C16 N7 1_555 1_555
H16 C16 1_555 1_555
Cu1_2 O13_2 1_555 1_555
Cu1_3 N7_2 1_555 1_555
Cu2_2 N4 1_555 1_555
Cu2_3 N1_2 1_555 1_555
Cu3_2 N8 1_555 1_555
Cu3_3 N5_2 1_555 1_555
Mo1_2 O2_2 1_555 1_555
Mo1A O7 1_555 1_555
Mo2_2 O1_2 1_555 1_555
Mo2A O4 1_555 1_555
Mo2A_2 O4_2 1_555 1_555
Mo3_2 O3_2 1_555 1_555
Mo3A O7 1_555 1_555
Mo3A_2 O7_2 1_555 1_555
Mo4A O11A 1_555 1_555
Mo4_2 O13_2 1_555 1_555
Mo5A O15 1_555 1_555
Mo5_2 O17_2 1_555 1_555
Mo6_2 O17 1_555 1_555
Mo6A O18 1_555 1_555
Mo6A_2 O19 1_555 1_555
Mo7_2 O17 1_555 1_555
Mo7A O14A 1_555 1_555
Mo7A_2 O17A 1_555 1_555
O2_2 Mo2_2 1_555 1_555
O3_2 Mo2_2 1_555 1_555
O4_2 Mo1_2 1_555 1_555
O4A Mo2 1_555 1_555
O4A_2 Mo2_2 1_555 1_555
O5_2 Mo1_2 1_555 1_555
O6_2 Cu2_2 1_555 1_555
O7_2 Mo1_2 1_555 1_555
O8_2 Mo1_2 1_555 1_555
O8A Mo3 1_555 1_555
O8A_2 Mo3_2 1_555 1_555
O9A Mo3 1_555 1_555
O9_2 Mo2_2 1_555 1_555
O9A_2 Mo2A_2 1_555 1_555
O10_2 Mo3_2 1_555 1_555
O11A Mo6A 1_555 1_555
O11_2 Mo6_2 1_555 1_555
O12A Mo4A 1_555 1_555
O13A Mo4A 1_555 1_555
O14A Mo4A 1_555 1_555
O14_2 Mo7_2 1_555 1_555
O15A Mo5 1_555 1_555
O16A Mo5A 1_555 1_555
O17_2 Mo6 1_555 1_555
O17A Mo5A 1_555 1_555
O18A Mo6 1_555 1_555
O18_2 Mo7 1_555 1_555
O18A_2 Mo6_2 1_555 1_555
O19_2 Cu2_2 1_555 1_555
O19A Mo6 1_555 1_555
O19A_2 Mo6_2 1_555 1_555
O20A Mo5 1_555 1_555
O20A_2 Mo6 1_555 1_555
O20_2 Mo6_2 1_555 1_555
O21_2 Cu2_2 1_555 1_555
O22_2 Cu1_2 1_555 1_555
O22A Mo5A 1_555 1_555
O23_2 Mo7 1_555 1_555
N1_2 C3_2 1_555 1_555
N1_3 Cu2_2 1_555 1_555
N2_2 N3_2 1_555 1_555
N3_2 Cu1_2 1_555 1_555
N4_2 Cu2 1_555 1_555
N5_2 C9_2 1_555 1_555
N5_3 Cu3_2 1_555 1_555
N6_2 N7_2 1_555 1_555
N7_2 C16_2 1_555 1_555
N7_3 Cu1_2 1_555 1_555
N8_2 Cu3 1_555 1_555
C1_2 H1_2 1_555 1_555
C2_2 C1_2 1_555 1_555
H2_2 C2_2 1_555 1_555
C3_2 C2_2 1_555 1_555
H3_2 C3_2 1_555 1_555
C4_2 N1_2 1_555 1_555
H4_2 C4_2 1_555 1_555
C5_2 C1_2 1_555 1_555
C6_2 N2_2 1_555 1_555
H5_2 C6_2 1_555 1_555
H6_2 C6_2 1_555 1_555
C7_2 N3_2 1_555 1_555
H7_2 C7_2 1_555 1_555
C8_2 N2_2 1_555 1_555
H8_2 C8_2 1_555 1_555
C9_2 H9_2 1_555 1_555
C10_2 N5_2 1_555 1_555
H10_2 C10_2 1_555 1_555
C11_2 C10_2 1_555 1_555
H11_2 C11_2 1_555 1_555
C12_2 C11_2 1_555 1_555
H12_2 C12_2 1_555 1_555
C13_2 C9_2 1_555 1_555
C14_2 N6_2 1_555 1_555
H13_2 C14_2 1_555 1_555
H14_2 C14_2 1_555 1_555
C15_2 N6_2 1_555 1_555
H15_2 C15_2 1_555 1_555
C16_2 N8_2 1_555 1_555
H16_2 C16_2 1_555 1_555
Mo2 O7 1_555 1_555
Mo3 O5 1_555 1_555
Mo3 O7 1_555 1_555
Mo5 O22 1_555 1_555
Mo6 O20 1_555 1_555
Mo7 O20 1_555 1_555
Mo7 O21 1_555 1_555
Mo7 O17_2 1_555 1_555
O7 Mo2A 1_555 1_555
O8 Mo3A 1_555 1_555
O9 Mo3A 1_555 1_555
O18 Mo7_2 1_555 1_555
O20 Mo5A 1_555 1_555
O20 Mo6A_2 1_555 1_555
N4 C8 1_555 1_555
N8 C16 1_555 1_555
C2 C3 1_555 1_555
C4 C5 1_555 1_555
C5 C6 1_555 1_555
C12 C13 1_555 1_555
C13 C14 1_555 1_555
Cu3_2 O23_2 1_555 1_555
Mo1_2 O6_2 1_555 1_555
Mo1A O4A 1_555 1_555
Mo1A O8A 1_555 1_555
Mo2_2 O7_2 1_555 1_555
Mo2A O9A 1_555 1_555
Mo2A_2 O7_2 1_555 1_555
Mo3_2 O5_2 1_555 1_555
Mo3_2 O7_2 1_555 1_555
Mo3_2 O9A_2 1_555 1_555
Mo3A_2 O8_2 1_555 1_555
Mo3A_2 O9_2 1_555 1_555
Mo4A O15A 1_555 1_555
Mo4A O20A 1_555 1_555
Mo5A O18A 1_555 1_555
Mo5_2 O18_2 1_555 1_555
Mo5_2 O20A_2 1_555 1_555
Mo5_2 O22_2 1_555 1_555
Mo6_2 O20A 1_555 1_555
Mo6A O19_2 1_555 1_555
Mo6A O20A 1_555 1_555
Mo6A O20_2 1_555 1_555
Mo6A_2 O17A 1_555 1_555
Mo6A_2 O18_2 1_555 1_555
Mo6A_2 O20A_2 1_555 1_555
Mo7_2 O20_2 1_555 1_555
Mo7_2 O21_2 1_555 1_555
Mo7A O18A_2 1_555 1_555
Mo7A O20A 1_555 1_555
Mo7A_2 O18A 1_555 1_555
Mo7A_2 O20A_2 1_555 1_555
N4_2 C7_2 1_555 1_555
N4_2 C8_2 1_555 1_555
N8_2 C15_2 1_555 1_555
C4_2 C5_2 1_555 1_555
C5_2 C6_2 1_555 1_555
C12_2 C13_2 1_555 1_555
C13_2 C14_2 1_555 1_555

#END
