
#######################################################################
#
#                 Cambridge Crystallographic Data Centre
#                                CCDC 
#
#######################################################################
#
# If this CIF has been generated from an entry in the Cambridge 
# Structural Database, then it will include bibliographic, chemical, 
# crystal, experimental, refinement or atomic coordinate data resulting 
# from the CCDC's data processing and validation procedures.
#
#######################################################################

data_TAGDEM
_symmetry_cell_setting           rhombohedral
_symmetry_space_group_name_H-M   'R -3'
_symmetry_Int_Tables_number      148
_space_group_name_Hall           '-R 3'
loop_
_symmetry_equiv_pos_site_id
_symmetry_equiv_pos_as_xyz
1 x,y,z
2 -y,x-y,z
3 -x+y,-x,z
4 2/3+x,1/3+y,1/3+z
5 2/3-y,1/3+x-y,1/3+z
6 2/3-x+y,1/3-x,1/3+z
7 1/3+x,2/3+y,2/3+z
8 1/3-y,2/3+x-y,2/3+z
9 1/3-x+y,2/3-x,2/3+z
10 -x,-y,-z
11 y,-x+y,-z
12 x-y,x,-z
13 1/3-x,2/3-y,2/3-z
14 1/3+y,2/3-x+y,2/3-z
15 1/3+x-y,2/3+x,2/3-z
16 2/3-x,1/3-y,1/3-z
17 2/3+y,1/3-x+y,1/3-z
18 2/3+x-y,1/3+x,1/3-z
_cell_length_a                   27.5892(10)
_cell_length_b                   27.5892(10)
_cell_length_c                   35.5762(17)
_cell_angle_alpha                90
_cell_angle_beta                 90
_cell_angle_gamma                120
_cell_volume                     23451.4
loop_
_atom_site_label
_atom_site_type_symbol
_atom_site_fract_x
_atom_site_fract_y
_atom_site_fract_z
Ag1 Ag 1.050991(16) 0.258716(16) 1.005659(11)
Ag2 Ag 0.97475(2) 0.297208(18) 0.934038(12)
N1 N 1.0277(2) 0.35717(19) 0.97820(14)
N2 N 1.0538(2) 0.34292(19) 1.00353(14)
N3 N 1.0813(2) 0.3843(2) 1.02739(14)
N4 N 1.0739(2) 0.4274(2) 1.01775(15)
N5 N 1.12630(18) 0.25107(18) 1.01405(12)
N6 N 1.16760(19) 0.28556(19) 1.03789(13)
N7 N 1.20914(19) 0.27579(19) 1.03481(12)
N8 N 1.19628(18) 0.23502(18) 1.00892(12)
N9 N 1.36434(19) 0.36927(19) 0.85720(13)
N10 N 1.3631(2) 0.37987(19) 0.79460(13)
O1 O 1.35656(19) 0.44395(18) 0.87933(11)
C1 C 1.0405(3) 0.4092(2) 0.98751(17)
C2 C 1.0214(3) 0.4431(3) 0.96692(18)
C3 C 1.0605(4) 0.4960(3) 0.9542(2)
H1 H 1.0989 0.5103 0.9601
C4 C 1.0453(4) 0.5286(3) 0.9333(2)
H2 H 1.0728 0.5644 0.9243
C5 C 0.9901(5) 0.5081(4) 0.9259(3)
H3 H 0.9791 0.5303 0.9118
C6 C 0.9492(4) 0.4552(4) 0.9384(3)
H4 H 0.9109 0.4419 0.9330
C7 C 0.9646(3) 0.4218(3) 0.9588(2)
C8 C 0.9200(3) 0.3648(3) 0.9707(2)
C9 C 0.8848(3) 0.3267(4) 0.9442(2)
H5 H 0.8890 0.3376 0.9185
C10 C 0.8438(3) 0.2734(4) 0.9540(2)
H6 H 0.8205 0.2480 0.9352
C11 C 0.8366(3) 0.2570(3) 0.9914(2)
C12 C 0.8704(3) 0.2945(3) 1.01796(19)
H7 H 0.8651 0.2839 1.0437
C13 C 0.9124(3) 0.3478(3) 1.00802(19)
H8 H 0.9360 0.3729 1.0269
C14 C 0.7933(4) 0.1968(4) 1.0002(2)
H9 H 0.7661 0.1817 0.9792
H10 H 0.8122 0.1744 1.0018
N11 N 0.7631(2) 0.1904(2) 1.03514(13)
O2 O 0.7994(4) 0.1390(4) 1.0591(3)
N12 N 0.7178(5) 0.2043(5) 1.0828(3)
C15 C 0.7740(8) 0.1642(8) 1.0643(3)
C16 C 0.7441(5) 0.1714(4) 1.0971(2)
C17 C 0.7359(4) 0.2191(4) 1.0490(3)
C18 C 0.7888(5) 0.2009(5) 1.1287(3)
H11 H 0.8198 0.1928 1.1257
H12 H 0.8045 0.2419 1.1277
C19 C 0.7580(6) 0.1771(6) 1.1662(3)
H13 H 0.7473 0.2030 1.1776
H14 H 0.7826 0.1718 1.1840
C20 C 0.7054(6) 0.1203(5) 1.1574(3)
H15 H 0.7089 0.0893 1.1686
H16 H 0.6717 0.1192 1.1680
C21 C 0.7001(5) 0.1138(4) 1.1144(3)
H17 H 0.6619 0.1037 1.1063
H18 H 0.7077 0.0840 1.1061
C22 C 0.7287(11) 0.2635(9) 1.0263(7)
H19 H 0.7650 0.2987 1.0244
H20 H 0.7152 0.2495 1.0006
C23 C 0.6860(12) 0.2740(11) 1.0470(11)
H21 H 0.6824 0.3036 1.0338
H22 H 0.6995 0.2873 1.0728
C24 C 0.6289(10) 0.220(2) 1.0487(12)
H23 H 0.6330 0.1877 1.0424
H24 H 0.6032 0.2225 1.0301
C25 C 0.6048(19) 0.214(2) 1.0888(13)
H25 H 0.5672 0.1811 1.0898
H26 H 0.6027 0.2475 1.0953
H27 H 0.6292 0.2096 1.1068
C37 C 1.1451(2) 0.2207(2) 0.99668(14)
C38 C 1.1124(2) 0.1766(2) 0.96878(14)
C39 C 1.0567(2) 0.1378(2) 0.97678(15)
H45 H 1.0404 0.1409 0.9995
C40 C 1.0248(2) 0.0947(2) 0.95206(16)
H46 H 0.9868 0.0686 0.9578
C41 C 1.0485(2) 0.0897(2) 0.91899(16)
H47 H 1.0267 0.0601 0.9021
C42 C 1.1037(2) 0.1277(2) 0.91056(15)
H48 H 1.1197 0.1236 0.8881
C43 C 1.1363(2) 0.1724(2) 0.93498(14)
C44 C 1.1943(2) 0.2153(2) 0.92355(14)
C45 C 1.2084(2) 0.2716(2) 0.92085(15)
H49 H 1.1811 0.2821 0.9261
C46 C 1.2619(3) 0.3117(2) 0.91058(16)
H50 H 1.2711 0.3497 0.9086
C47 C 1.3025(2) 0.2975(2) 0.90318(14)
C48 C 1.2885(2) 0.2419(2) 0.90577(14)
H51 H 1.3161 0.2316 0.9011
C49 C 1.2345(2) 0.2009(2) 0.91518(14)
H52 H 1.2250 0.1628 0.9159
C50 C 1.3613(2) 0.3429(3) 0.89374(16)
H53 H 1.3862 0.3267 0.8933
H54 H 1.3749 0.3719 0.9137
C51 C 1.3598(2) 0.4168(2) 0.85341(16)
C52 C 1.3578(2) 0.4259(2) 0.81169(15)
C53 C 1.3654(2) 0.3494(2) 0.82130(16)
C54 C 1.3010(3) 0.4209(3) 0.80145(17)
H55 H 1.2738 0.3825 0.7967
H56 H 1.2879 0.4338 0.8221
C55 C 1.3079(4) 0.4553(4) 0.7669(2)
H59 H 1.3086 0.4362 0.7435
H60 H 1.2793 0.4667 0.7650
C56 C 1.3661(5) 0.5043(4) 0.7774(4)
H61 H 1.3857 0.5246 0.7543
H62 H 1.3615 0.5307 0.7938
C59 C 1.4026(3) 0.4844(2) 0.79810(19)
H67 H 1.4225 0.5085 0.8189
H68 H 1.4288 0.4823 0.7814
C60 C 1.3707(3) 0.2985(3) 0.81681(19)
H71 H 1.3422 0.2682 0.8327
H72 H 1.3628 0.2859 0.7904
C61 C 1.4295(4) 0.3082(4) 0.8277(2)
H73 H 1.4570 0.3374 0.8120
H74 H 1.4374 0.3205 0.8533
C62 C 1.4341(6) 0.2552(5) 0.8226(5)
H77 H 1.4725 0.2641 0.8294
H78 H 1.4283 0.2444 0.7957
C63 C 1.3920(8) 0.2051(8) 0.8462(6)
H79 H 1.3973 0.1730 0.8416
H80 H 1.3981 0.2150 0.8729
H81 H 1.3538 0.1953 0.8393
Ag1J Ag 1.258716(16) 0.207725(23) 0.994341(11)
Ag2J Ag 1.297208(18) 0.322458(27) 1.065962(12)
Ag2L Ag 1.35858(2) 0.369459(18) 0.732629(12)
N7K N 0.93335(27) 0.20914(19) 0.96519(12)
N8K N 0.96126(25) 0.19628(18) 0.99108(12)
N10L N 0.9702(2) 0.28680(19) 0.87207(13)
C66 C 0.6815(11) 0.1807(9) 0.9128(6)
O4 O 0.6353(5) 0.1311(5) 0.9165(3)
O6 O 0.6667 0.3333 0.1706(11)
O3? O 0.7988(5) 0.1557(6) 1.0811(5)
N13? N 0.6862(5) 0.1823(5) 1.0646(3)
C26? C 0.7648(8) 0.1696(10) 1.0704(4)
C27? C 0.7200(5) 0.1732(5) 1.0920(2)
C28? C 0.7150(4) 0.1946(4) 1.0337(3)
C29? C 0.7468(7) 0.2193(4) 1.1226(3)
H28? H 0.7272 0.2411 1.1241
H29? H 0.7868 0.2452 1.1171
C30? C 0.7400(6) 0.1872(5) 1.1601(3)
H30? H 0.7369 0.2081 1.1817
H31? H 0.7722 0.1815 1.1642
C31? C 0.6849(7) 0.1301(5) 1.1550(3)
H32? H 0.6870 0.1003 1.1691
H33? H 0.6524 0.1326 1.1641
C32? C 0.6795(6) 0.1175(5) 1.1124(3)
H34? H 0.6405 0.1036 1.1040
H35? H 0.6897 0.0886 1.1067
C33? C 0.7029(10) 0.2129(13) 0.9959(5)
H36? H 0.7343 0.2504 0.9892
H37? H 0.6995 0.1863 0.9761
C34? C 0.6488(13) 0.2150(18) 0.9982(7)
H38? H 0.6543 0.2464 1.0147
H39? H 0.6188 0.1798 1.0093
C35? C 0.6314(16) 0.2231(18) 0.9586(9)
H40? H 0.5907 0.2095 0.9580
H41? H 0.6515 0.2633 0.9519
C36? C 0.646(2) 0.190(2) 0.9304(9)
H42? H 0.6362 0.1957 0.9049
H43? H 0.6247 0.1501 0.9366
H44? H 0.6861 0.2031 0.9316
H57? H 1.0459 0.2627 0.8894
H58? H 1.0603 0.2651 0.8463
C57? C 1.0101(7) 0.1819(5) 0.8651(6)
H63? H 1.0087 0.1699 0.8388
H64? H 1.0377 0.1751 0.8785
C58? C 0.9523(9) 0.1441(10) 0.8829(11)
H65? H 0.9323 0.1060 0.8721
H66? H 0.9534 0.1424 0.9107
H69? H 0.9056 0.1633 0.8481
H70? H 0.9093 0.1868 0.8881
H75? H 0.8804 0.3456 0.8609
H76? H 0.8879 0.3290 0.8207
C64? C 0.9006(15) 0.4090(11) 0.8235(13)
H82? H 0.9219 0.4411 0.8406
H83? H 0.9200 0.4192 0.7989
C65? C 0.8421(16) 0.402(2) 0.8181(16)
H84? H 0.8457 0.4368 0.8085
H85? H 0.8224 0.3926 0.8422
H86? H 0.8208 0.3716 0.8001
O5? O 0.6362(17) 0.2575(17) 1.1626(11)
C67? C 0.6555(9) 0.2297(9) 1.1371(6)
loop_
_geom_bond_atom_site_label_1
_geom_bond_atom_site_label_2
_geom_bond_site_symmetry_1
_geom_bond_site_symmetry_2
Ag1 N2 1_555 1_555
Ag2 N1 1_555 1_555
N1 N2 1_555 1_555
N2 N3 1_555 1_555
N3 N4 1_555 1_555
N4 C1 1_555 1_555
N5 Ag1 1_555 1_555
N6 N5 1_555 1_555
N7 N6 1_555 1_555
N8 N7 1_555 1_555
N9 C50 1_555 1_555
N10 C52 1_555 1_555
O1 C51 1_555 1_555
C1 N1 1_555 1_555
C2 C1 1_555 1_555
C3 C2 1_555 1_555
H1 C3 1_555 1_555
C4 C3 1_555 1_555
H2 C4 1_555 1_555
C5 C4 1_555 1_555
H3 C5 1_555 1_555
C6 C5 1_555 1_555
H4 C6 1_555 1_555
C7 C2 1_555 1_555
C8 C7 1_555 1_555
C9 C8 1_555 1_555
H5 C9 1_555 1_555
C10 C9 1_555 1_555
H6 C10 1_555 1_555
C11 C10 1_555 1_555
C12 C11 1_555 1_555
H7 C12 1_555 1_555
C13 C8 1_555 1_555
H8 C13 1_555 1_555
C14 C11 1_555 1_555
H9 C14 1_555 1_555
H10 C14 1_555 1_555
N11 C14 1_555 1_555
O2 C15 1_555 1_555
N12 C16 1_555 1_555
C15 N11 1_555 1_555
C16 C15 1_555 1_555
C17 N11 1_555 1_555
C18 C16 1_555 1_555
H11 C18 1_555 1_555
H12 C18 1_555 1_555
C19 C18 1_555 1_555
H13 C19 1_555 1_555
H14 C19 1_555 1_555
C20 C19 1_555 1_555
H15 C20 1_555 1_555
H16 C20 1_555 1_555
C21 C16 1_555 1_555
H17 C21 1_555 1_555
H18 C21 1_555 1_555
C22 C17 1_555 1_555
H19 C22 1_555 1_555
H20 C22 1_555 1_555
C23 C22 1_555 1_555
H21 C23 1_555 1_555
H22 C23 1_555 1_555
C24 C23 1_555 1_555
H23 C24 1_555 1_555
H24 C24 1_555 1_555
C25 C24 1_555 1_555
H25 C25 1_555 1_555
H26 C25 1_555 1_555
H27 C25 1_555 1_555
C37 N5 1_555 1_555
C38 C37 1_555 1_555
C39 C38 1_555 1_555
H45 C39 1_555 1_555
C40 C39 1_555 1_555
H46 C40 1_555 1_555
C41 C40 1_555 1_555
H47 C41 1_555 1_555
C42 C41 1_555 1_555
H48 C42 1_555 1_555
C43 C38 1_555 1_555
C44 C43 1_555 1_555
C45 C44 1_555 1_555
H49 C45 1_555 1_555
C46 C45 1_555 1_555
H50 C46 1_555 1_555
C47 C46 1_555 1_555
C48 C47 1_555 1_555
H51 C48 1_555 1_555
C49 C44 1_555 1_555
H52 C49 1_555 1_555
C50 C47 1_555 1_555
H53 C50 1_555 1_555
H54 C50 1_555 1_555
C51 N9 1_555 1_555
C52 C51 1_555 1_555
C53 N9 1_555 1_555
C54 C52 1_555 1_555
H55 C54 1_555 1_555
H56 C54 1_555 1_555
C55 C54 1_555 1_555
H59 C55 1_555 1_555
H60 C55 1_555 1_555
C56 C55 1_555 1_555
H61 C56 1_555 1_555
H62 C56 1_555 1_555
C59 C52 1_555 1_555
H67 C59 1_555 1_555
H68 C59 1_555 1_555
C60 C53 1_555 1_555
H71 C60 1_555 1_555
H72 C60 1_555 1_555
C61 C60 1_555 1_555
H73 C61 1_555 1_555
H74 C61 1_555 1_555
C62 C61 1_555 1_555
H77 C62 1_555 1_555
H78 C62 1_555 1_555
C63 C62 1_555 1_555
H79 C63 1_555 1_555
H80 C63 1_555 1_555
H81 C63 1_555 1_555
C66 O4 1_555 1_555
Ag1J N8 1_555 1_555
Ag2J N7 1_555 1_555
Ag2L N10 1_555 1_555
N7K Ag2 1_555 1_555
N8K Ag1 1_555 1_555
N10L Ag2 1_555 1_555
N8 C37 1_555 1_555
N10 C53 1_555 1_555
C6 C7 1_555 1_555
C12 C13 1_555 1_555
N12 C17 1_555 1_555
C20 C21 1_555 1_555
C42 C43 1_555 1_555
C48 C49 1_555 1_555
C56 C59 1_555 1_555
N7K N8K 1_555 1_555

#END
