
#######################################################################
#
#                 Cambridge Crystallographic Data Centre
#                                CCDC 
#
#######################################################################
#
# If this CIF has been generated from an entry in the Cambridge 
# Structural Database, then it will include bibliographic, chemical, 
# crystal, experimental, refinement or atomic coordinate data resulting 
# from the CCDC's data processing and validation procedures.
#
#######################################################################

data_TAGNOG
_symmetry_cell_setting           monoclinic
_symmetry_space_group_name_H-M   'P 2/c'
_symmetry_Int_Tables_number      13
_space_group_name_Hall           '-P 2yc'
loop_
_symmetry_equiv_pos_site_id
_symmetry_equiv_pos_as_xyz
1 x,y,z
2 -x,y,1/2-z
3 -x,-y,-z
4 x,-y,1/2+z
_cell_length_a                   14.044(4)
_cell_length_b                   7.158(2)
_cell_length_c                   16.645(5)
_cell_angle_alpha                90
_cell_angle_beta                 107.247(4)
_cell_angle_gamma                90
_cell_volume                     1598.03
loop_
_atom_site_label
_atom_site_type_symbol
_atom_site_fract_x
_atom_site_fract_y
_atom_site_fract_z
Ag1 Ag 0.0000 0.51954(8) -0.2500
Ag2 Ag 1.0000 0.0000 0.5000
C1 C 0.2363(4) 0.4654(9) -0.1967(4)
H1 H 0.2327 0.4874 -0.1426
C2 C 0.3237(4) 0.4014(9) -0.2066(4)
C3 C 0.3315(4) 0.3832(8) -0.2872(4)
H2 H 0.3904 0.3407 -0.2957
C4 C 0.2457(5) 0.4317(9) -0.3591(4)
C5 C 0.1642(5) 0.4814(8) -0.3397(4)
H3 H 0.1075 0.5076 -0.3841
C6 C 0.4079(5) 0.3472(9) -0.1322(4)
C7 C 0.2524(4) 0.4307(8) -0.4473(4)
C8 C 0.7607(5) 0.0282(9) 0.4340(4)
H4 H 0.7613 -0.0071 0.4879
C9 C 0.6721(4) 0.1042(8) 0.3804(3)
C10 C 0.6656(4) 0.1051(8) 0.2963(4)
H5 H 0.6058 0.1355 0.2563
C11 C 0.7548(5) 0.0570(10) 0.2700(4)
C12 C 0.8383(4) 0.0147(8) 0.3257(4)
H6 H 0.8946 -0.0086 0.3087
C13 C 0.7494(4) 0.0662(8) 0.1829(4)
C14 C 0.5902(4) 0.1455(9) 0.4157(4)
N1 N 0.1566(3) 0.4972(7) -0.2611(3)
N2 N 0.8449(4) 0.0037(8) 0.4116(3)
O1 O 0.4200(3) 0.4452(6) -0.0607(2)
O2 O 0.4653(3) 0.2302(6) -0.1364(3)
O3 O 0.3241(3) 0.3376(6) -0.4573(3)
O4 O 0.1822(3) 0.4948(6) -0.5012(3)
O5 O 0.8157(3) 0.0001(6) 0.1578(3)
O6 O 0.6751(3) 0.1641(6) 0.1291(3)
O7 O 0.5343(3) 0.2726(6) 0.3829(3)
O8 O 0.5827(3) 0.0619(6) 0.4785(3)
Tb1 Tb 0.560509(17) 0.24999(3) 0.014962(15)
Ag2A Ag 0.0000 0.0000 0.0000
C1A C -0.2363(4) 0.4654(9) -0.3033(4)
H1A H -0.2327 0.4874 -0.3574
C2A C -0.3237(4) 0.4014(9) -0.2934(4)
C3A C -0.3315(4) 0.3832(8) -0.2128(4)
H2A H -0.3904 0.3407 -0.2043
C4A C -0.2457(5) 0.4317(9) -0.1409(4)
C5A C -0.1642(5) 0.4814(8) -0.1603(4)
H3A H -0.1075 0.5076 -0.1159
C6A C -0.4079(5) 0.3472(9) -0.3678(4)
C7A C -0.2524(4) 0.4307(8) -0.0527(4)
C8A C 0.2393(5) 0.0282(9) 0.0660(4)
H4A H 0.2387 -0.0071 0.0121
C9A C 0.3279(4) 0.1042(8) 0.1196(3)
C10A C 0.3344(4) 0.1051(8) 0.2037(4)
H5A H 0.3942 0.1355 0.2437
C11A C 0.2452(5) 0.0570(10) 0.2300(4)
C12A C 0.1617(4) 0.0147(8) 0.1743(4)
H6A H 0.1054 -0.0086 0.1913
C13A C 0.2506(4) 0.0662(8) 0.3171(4)
C14A C 0.4098(4) 0.1455(9) 0.0843(4)
N1A N -0.1566(3) 0.4972(7) -0.2389(3)
N2A N 0.1551(4) 0.0037(8) 0.0884(3)
N2B N 1.1551(4) -0.0037(8) 0.5884(3)
O1A O -0.4200(3) 0.4452(6) -0.4393(2)
O1B O 0.5800(3) 0.5548(6) 0.0607(2)
O1C O -0.5800(3) 0.5548(6) -0.5607(2)
O2A O -0.4653(3) 0.2302(6) -0.3636(3)
O3A O -0.3241(3) 0.3376(6) -0.0427(3)
O3A_2 O 0.6759(3) 0.3376(6) -0.0427(3)
O3_2 O -0.6759(3) 0.3376(6) -0.4573(3)
O4A O -0.1822(3) 0.4948(6) 0.0012(3)
O5A O 0.1843(3) 0.0001(6) 0.3422(3)
O6A O 0.3249(3) 0.1641(6) 0.3709(3)
O6A_2 O -0.6751(3) 0.1641(6) -0.6291(3)
O7A O 0.4657(3) 0.2726(6) 0.1171(3)
O7_2 O -0.4657(3) 0.2726(6) -0.6171(3)
O8A O 0.4173(3) 0.0619(6) 0.0215(3)
O8C O 0.5827(3) -0.0619(6) -0.0215(3)
O8_2 O -0.4173(3) 0.0619(6) -0.5215(3)
O8B O -0.5827(3) -0.0619(6) -0.4785(3)
Tb1A Tb -0.560509(17) 0.24999(3) -0.514962(15)
Tb1B Tb 0.439491(17) 0.75001(3) -0.014962(15)
Tb1A_2 Tb 0.439491(17) 0.24999(3) -0.514962(15)
Tb1A_3 Tb 0.439491(17) 0.24999(3) 0.485038(15)
Tb1C Tb 0.560509(17) -0.24999(3) 0.514962(15)
Tb1C_2 Tb -0.439491(17) 0.75001(3) -0.485038(15)
Tb1_2 Tb -0.439491(17) 0.24999(3) 0.014962(15)
Tb1B_2 Tb 0.439491(17) -0.24999(3) -0.014962(15)
loop_
_geom_bond_atom_site_label_1
_geom_bond_atom_site_label_2
_geom_bond_site_symmetry_1
_geom_bond_site_symmetry_2
Ag1 N1 1_555 1_555
Ag2 N2 1_555 1_555
C1 H1 1_555 1_555
C2 C1 1_555 1_555
C3 C2 1_555 1_555
H2 C3 1_555 1_555
C4 C3 1_555 1_555
C5 C4 1_555 1_555
H3 C5 1_555 1_555
C6 C2 1_555 1_555
C7 C4 1_555 1_555
C8 H4 1_555 1_555
C9 C8 1_555 1_555
C10 C9 1_555 1_555
H5 C10 1_555 1_555
C11 C10 1_555 1_555
C12 C11 1_555 1_555
H6 C12 1_555 1_555
C13 C11 1_555 1_555
C14 C9 1_555 1_555
N1 C1 1_555 1_555
N2 C8 1_555 1_555
O1 C6 1_555 1_555
O2 C6 1_555 1_555
O3 C7 1_555 1_555
O4 C7 1_555 1_555
O5 C13 1_555 1_555
O6 C13 1_555 1_555
O7 C14 1_555 1_555
O8 C14 1_555 1_555
Tb1 O1 1_555 1_555
Ag2A N2A 1_555 1_555
C1A H1A 1_555 1_555
C2A C1A 1_555 1_555
C3A C2A 1_555 1_555
H2A C3A 1_555 1_555
C4A C3A 1_555 1_555
C5A C4A 1_555 1_555
H3A C5A 1_555 1_555
C6A C2A 1_555 1_555
C7A C4A 1_555 1_555
C8A H4A 1_555 1_555
C9A C8A 1_555 1_555
C10A C9A 1_555 1_555
H5A C10A 1_555 1_555
C11A C10A 1_555 1_555
C12A C11A 1_555 1_555
H6A C12A 1_555 1_555
C13A C11A 1_555 1_555
C14A C9A 1_555 1_555
N1A Ag1 1_555 1_555
N2A C8A 1_555 1_555
N2B Ag2 1_555 1_555
O1A C6A 1_555 1_555
O1B Tb1 1_555 1_555
O1C Tb1A 1_555 1_555
O2A C6A 1_555 1_555
O3A C7A 1_555 1_555
O3A_2 Tb1 1_555 1_555
O3_2 Tb1A 1_555 1_555
O4A C7A 1_555 1_555
O5A C13A 1_555 1_555
O6A C13A 1_555 1_555
O6A_2 Tb1A 1_555 1_555
O7A Tb1 1_555 1_555
O7_2 Tb1A 1_555 1_555
O8A Tb1 1_555 1_555
O8C Tb1 1_555 1_555
O8_2 Tb1A 1_555 1_555
O8B Tb1A 1_555 1_555
Tb1A O1A 1_555 1_555
Tb1B O1 1_555 1_555
Tb1A_2 O3 1_555 1_555
Tb1A_3 O7 1_555 1_555
Tb1C O8 1_555 1_555
Tb1C_2 O1A 1_555 1_555
Tb1_2 O3A 1_555 1_555
Tb1B_2 O8A 1_555 1_555
C5 N1 1_555 1_555
C12 N2 1_555 1_555
O2 Tb1 1_555 1_555
O6 Tb1 1_555 1_555
O8 Tb1A_3 1_555 1_555
C1A N1A 1_555 1_555
C5A N1A 1_555 1_555
C12A N2A 1_555 1_555
C14A O7A 1_555 1_555
C14A O8A 1_555 1_555
O1B Tb1B 1_555 1_555
O1C Tb1C_2 1_555 1_555
O2A Tb1A 1_555 1_555
O6A Tb1A_3 1_555 1_555
O8C Tb1B_2 1_555 1_555

#END
