
#######################################################################
#
#                 Cambridge Crystallographic Data Centre
#                                CCDC 
#
#######################################################################
#
# If this CIF has been generated from an entry in the Cambridge 
# Structural Database, then it will include bibliographic, chemical, 
# crystal, experimental, refinement or atomic coordinate data resulting 
# from the CCDC's data processing and validation procedures.
#
#######################################################################

data_TAGNIA
_symmetry_cell_setting           monoclinic
_symmetry_space_group_name_H-M   'P 2/c'
_symmetry_Int_Tables_number      13
_space_group_name_Hall           '-P 2yc'
loop_
_symmetry_equiv_pos_site_id
_symmetry_equiv_pos_as_xyz
1 x,y,z
2 -x,y,1/2-z
3 -x,-y,-z
4 x,-y,1/2+z
_cell_length_a                   14.058(10)
_cell_length_b                   7.193(5)
_cell_length_c                   16.697(12)
_cell_angle_alpha                90
_cell_angle_beta                 107.326(9)
_cell_angle_gamma                90
_cell_volume                     1611.78
loop_
_atom_site_label
_atom_site_type_symbol
_atom_site_fract_x
_atom_site_fract_y
_atom_site_fract_z
Ag1 Ag 0.0000 0.51879(13) -0.2500
Ag2 Ag 1.0000 0.0000 0.5000
C1 C 0.2362(7) 0.4714(13) -0.1976(5)
H1 H 0.2341 0.5035 -0.1442
C2 C 0.3231(7) 0.3993(12) -0.2062(6)
C3 C 0.3307(7) 0.3847(12) -0.2866(5)
H2 H 0.3900 0.3443 -0.2947
C4 C 0.2450(7) 0.4330(13) -0.3600(6)
C5 C 0.1643(8) 0.4820(13) -0.3382(6)
H3 H 0.1070 0.5089 -0.3817
C6 C 0.4076(8) 0.3452(13) -0.1328(5)
C7 C 0.2520(7) 0.4371(12) -0.4471(5)
C8 C 0.2400(7) 0.0313(13) 0.0661(6)
H4 H 0.2391 -0.0012 0.0120
C9 C 0.3283(7) 0.1046(12) 0.1191(5)
C10 C 0.3332(7) 0.1076(11) 0.2036(5)
H5 H 0.3924 0.1419 0.2433
C11 C 0.2467(8) 0.0577(13) 0.2312(6)
C12 C 0.1607(7) 0.0144(12) 0.1729(6)
H6 H 0.1041 -0.0090 0.1893
C13 C 0.2498(7) 0.0670(11) 0.3171(6)
C14 C 0.4098(8) 0.1466(13) 0.0863(6)
N1 N 0.1578(5) 0.4963(10) -0.2597(4)
N2 N 0.1548(6) 0.0038(12) 0.0878(4)
O1 O 0.4201(4) 0.4412(8) -0.0612(4)
O2 O 0.4656(4) 0.2305(9) -0.1375(4)
O3 O 0.3252(4) 0.3408(8) -0.4568(4)
O4 O 0.1811(5) 0.4962(9) -0.5004(4)
O5 O 0.1843(5) 0.0019(9) 0.3421(4)
O6 O 0.3245(5) 0.1629(9) 0.3705(4)
O7 O 0.4653(5) 0.2723(9) 0.1176(4)
O8 O 0.4168(5) 0.0601(8) 0.0209(4)
Eu1 Eu 0.56056(3) 0.25019(6) 0.01492(2)
Ag2A Ag 0.0000 0.0000 0.0000
C1A C -0.2362(7) 0.4714(13) -0.3024(5)
H1A H -0.2341 0.5035 -0.3558
C2A C -0.3231(7) 0.3993(12) -0.2938(6)
C3A C -0.3307(7) 0.3847(12) -0.2134(5)
H2A H -0.3900 0.3443 -0.2053
C4A C -0.2450(7) 0.4330(13) -0.1400(6)
C5A C -0.1643(8) 0.4820(13) -0.1618(6)
H3A H -0.1070 0.5089 -0.1183
C6A C -0.4076(8) 0.3452(13) -0.3672(5)
C7A C -0.2520(7) 0.4371(12) -0.0529(5)
C8A C 0.7600(7) 0.0313(13) 0.4339(6)
H4A H 0.7609 -0.0012 0.4880
C9A C 0.6717(7) 0.1046(12) 0.3809(5)
C10A C 0.6668(7) 0.1076(11) 0.2964(5)
H5A H 0.6076 0.1419 0.2567
C11A C 0.7533(8) 0.0577(13) 0.2688(6)
C12A C 0.8393(7) 0.0144(12) 0.3271(6)
H6A H 0.8959 -0.0090 0.3107
C13A C 0.7502(7) 0.0670(11) 0.1829(6)
C14A C 0.5902(8) 0.1466(13) 0.4137(6)
N1A N -0.1578(5) 0.4963(10) -0.2403(4)
N2A N 0.8452(6) 0.0038(12) 0.4122(4)
N2C N 1.1548(6) -0.0038(12) 0.5878(4)
O1A O -0.4201(4) 0.4412(8) -0.4388(4)
O1B O 0.5799(4) 0.5588(8) 0.0612(4)
O1C O -0.5799(4) 0.5588(8) -0.5612(4)
O2A O -0.4656(4) 0.2305(9) -0.3625(4)
O3A O -0.3252(4) 0.3408(8) -0.0432(4)
O3A_2 O 0.6748(4) 0.3408(8) -0.0432(4)
O3_2 O -0.6748(4) 0.3408(8) -0.4568(4)
O4A O -0.1811(5) 0.4962(9) 0.0004(4)
O5A O 0.8157(5) 0.0019(9) 0.1579(4)
O6A O 0.6755(5) 0.1629(9) 0.1295(4)
O6_2 O -0.6755(5) 0.1629(9) -0.6295(4)
O7A O -0.4653(5) 0.2723(9) -0.6176(4)
O7A_2 O 0.5347(5) 0.2723(9) 0.3824(4)
O8B O 0.5832(5) -0.0601(8) -0.0209(4)
O8A O -0.4168(5) 0.0601(8) -0.5209(4)
O8C O -0.5832(5) -0.0601(8) -0.4791(4)
O8A_2 O 0.5832(5) 0.0601(8) 0.4791(4)
Eu1A Eu -0.56056(3) 0.25019(6) -0.51492(2)
Eu1B Eu 0.43944(3) 0.74981(6) -0.01492(2)
Eu1A_2 Eu 0.43944(3) 0.25019(6) -0.51492(2)
Eu1A_3 Eu 0.43944(3) 0.25019(6) 0.48508(2)
Eu1B_2 Eu 0.43944(3) -0.25019(6) -0.01492(2)
Eu1C Eu -0.43944(3) 0.74981(6) -0.48508(2)
Eu1_2 Eu -0.43944(3) 0.25019(6) 0.01492(2)
Eu1C_2 Eu 0.56056(3) -0.25019(6) 0.51492(2)
loop_
_geom_bond_atom_site_label_1
_geom_bond_atom_site_label_2
_geom_bond_site_symmetry_1
_geom_bond_site_symmetry_2
Ag1 N1 1_555 1_555
Ag2 N2A 1_555 1_555
C1 H1 1_555 1_555
C2 C1 1_555 1_555
C3 C2 1_555 1_555
H2 C3 1_555 1_555
C4 C3 1_555 1_555
C5 C4 1_555 1_555
H3 C5 1_555 1_555
C6 C2 1_555 1_555
C7 C4 1_555 1_555
C8 H4 1_555 1_555
C9 C8 1_555 1_555
C10 C9 1_555 1_555
H5 C10 1_555 1_555
C11 C10 1_555 1_555
C12 C11 1_555 1_555
H6 C12 1_555 1_555
C13 C11 1_555 1_555
C14 C9 1_555 1_555
N1 C1 1_555 1_555
N2 C8 1_555 1_555
O1 C6 1_555 1_555
O2 C6 1_555 1_555
O3 C7 1_555 1_555
O4 C7 1_555 1_555
O5 C13 1_555 1_555
O6 C13 1_555 1_555
O7 C14 1_555 1_555
O8 C14 1_555 1_555
Eu1 O1 1_555 1_555
Ag2A N2 1_555 1_555
C1A H1A 1_555 1_555
C2A C1A 1_555 1_555
C3A C2A 1_555 1_555
H2A C3A 1_555 1_555
C4A C3A 1_555 1_555
C5A C4A 1_555 1_555
H3A C5A 1_555 1_555
C6A C2A 1_555 1_555
C7A C4A 1_555 1_555
C8A H4A 1_555 1_555
C9A C8A 1_555 1_555
C10A C9A 1_555 1_555
H5A C10A 1_555 1_555
C11A C10A 1_555 1_555
C12A C11A 1_555 1_555
H6A C12A 1_555 1_555
C13A C11A 1_555 1_555
C14A C9A 1_555 1_555
N1A Ag1 1_555 1_555
N2A C8A 1_555 1_555
N2C Ag2 1_555 1_555
O1A C6A 1_555 1_555
O1B Eu1 1_555 1_555
O1C Eu1A 1_555 1_555
O2A C6A 1_555 1_555
O3A C7A 1_555 1_555
O3A_2 Eu1 1_555 1_555
O3_2 Eu1A 1_555 1_555
O4A C7A 1_555 1_555
O5A C13A 1_555 1_555
O6A Eu1 1_555 1_555
O6_2 Eu1A 1_555 1_555
O7A Eu1A 1_555 1_555
O7A_2 C14A 1_555 1_555
O8B Eu1 1_555 1_555
O8A Eu1A 1_555 1_555
O8C Eu1A 1_555 1_555
O8A_2 C14A 1_555 1_555
Eu1A O1A 1_555 1_555
Eu1B O1 1_555 1_555
Eu1A_2 O3 1_555 1_555
Eu1A_3 O6 1_555 1_555
Eu1B_2 O8 1_555 1_555
Eu1C O1A 1_555 1_555
Eu1_2 O3A 1_555 1_555
Eu1C_2 O8A_2 1_555 1_555
C5 N1 1_555 1_555
C12 N2 1_555 1_555
O2 Eu1 1_555 1_555
O7 Eu1 1_555 1_555
O8 Eu1 1_555 1_555
C1A N1A 1_555 1_555
C5A N1A 1_555 1_555
C12A N2A 1_555 1_555
C13A O6A 1_555 1_555
O1B Eu1B 1_555 1_555
O1C Eu1C 1_555 1_555
O2A Eu1A 1_555 1_555
O7A_2 Eu1A_3 1_555 1_555
O8B Eu1B_2 1_555 1_555
O8A_2 Eu1A_3 1_555 1_555

#END
