
#######################################################################
#
#                 Cambridge Crystallographic Data Centre
#                                CCDC 
#
#######################################################################
#
# If this CIF has been generated from an entry in the Cambridge 
# Structural Database, then it will include bibliographic, chemical, 
# crystal, experimental, refinement or atomic coordinate data resulting 
# from the CCDC's data processing and validation procedures.
#
#######################################################################

data_TAGSUR
_symmetry_cell_setting           monoclinic
_symmetry_space_group_name_H-M   'C 2/c'
_symmetry_Int_Tables_number      15
_space_group_name_Hall           '-C 2yn'
loop_
_symmetry_equiv_pos_site_id
_symmetry_equiv_pos_as_xyz
1 x,y,z
2 -x,y,1/2-z
3 1/2+x,1/2+y,z
4 1/2-x,1/2+y,1/2-z
5 -x,-y,-z
6 x,-y,1/2+z
7 1/2-x,1/2-y,-z
8 1/2+x,1/2-y,1/2+z
_cell_length_a                   26.749(5)
_cell_length_b                   7.1165(14)
_cell_length_c                   20.542(4)
_cell_angle_alpha                90
_cell_angle_beta                 92.70(3)
_cell_angle_gamma                90
_cell_volume                     3906.02
loop_
_atom_site_label
_atom_site_type_symbol
_atom_site_fract_x
_atom_site_fract_y
_atom_site_fract_z
La1 La 0.055732(3) 0.680664(13) 0.041797(4)
O1 O 0.12678(6) 0.5072(2) -0.01878(7)
O2 O 0.09657(7) 0.3499(2) 0.06253(10)
O3 O 0.08138(5) -0.06520(19) -0.02927(7)
O4 O 0.02436(7) 0.1590(2) -0.04619(10)
O5 O -0.01470(5) 0.4204(2) 0.06630(6)
O6 O 0.02588(5) 0.55273(19) 0.15025(6)
O7 O 0.06754(7) 0.9969(2) 0.10888(8)
H1 H 0.0596 1.0480 0.1443
H2 H 0.0673 1.0814 0.0796
O8 O 0.13857(7) 0.7260(3) 0.10907(10)
H3 H 0.1656 0.6714 0.1215
H4 H 0.1428 0.8438 0.1137
N1 N 0.21370(6) 0.0211(2) -0.06030(9)
N2 N 0.16796(7) 0.2348(3) -0.16499(9)
N3 N -0.05953(7) 0.2093(2) 0.27704(8)
C1 C 0.24250(8) -0.0232(3) -0.00742(12)
H9 H 0.2705 -0.0978 -0.0130
C2 C 0.23296(8) 0.0352(3) 0.05471(12)
H10 H 0.2528 -0.0047 0.0904
C3 C 0.19306(9) 0.1549(3) 0.06236(11)
H11 H 0.1855 0.1965 0.1037
C4 C 0.16417(7) 0.2130(3) 0.00796(9)
C5 C 0.17481(7) 0.1370(3) -0.05290(9)
C6 C 0.14335(8) 0.1754(2) -0.11330(10)
C7 C 0.09139(7) 0.1476(3) -0.11593(9)
C8 C 0.06486(9) 0.1833(2) -0.17470(11)
H12 H 0.0304 0.1665 -0.1780
C9 C 0.09008(9) 0.2438(3) -0.22790(10)
H13 H 0.0731 0.2683 -0.2676
C10 C 0.14112(10) 0.2669(4) -0.22049(10)
H14 H 0.1581 0.3075 -0.2564
C11 C 0.12607(7) 0.3647(3) 0.01701(9)
C12 C 0.06354(6) 0.0749(2) -0.05920(9)
C13 C -0.02642(7) 0.2818(3) 0.23693(8)
C14 C -0.04094(7) 0.3435(2) 0.17343(8)
C15 C -0.09124(8) 0.3284(2) 0.15368(10)
H15 H -0.1020 0.3639 0.1118
C16 C -0.12535(7) 0.2603(3) 0.19670(10)
H16 H -0.1592 0.2534 0.1846
C17 C -0.10803(8) 0.2030(3) 0.25772(11)
H17 H -0.1309 0.1582 0.2867
C18 C -0.00696(6) 0.4426(2) 0.12798(8)
La1_2 La 0.055732(3) 1.680664(13) 0.041797(4)
La1_3 La 0.055732(3) -0.319336(13) 0.041797(4)
La1D La -0.055732(3) 0.319336(13) -0.041797(4)
La1A La -0.055732(3) 0.680664(13) 0.458203(4)
La1E La 0.055732(3) 0.319336(13) 0.541797(4)
La1D_2 La -0.055732(3) 1.319336(13) -0.041797(4)
O1_2 O 0.12678(6) 1.5072(2) -0.01878(7)
O2_2 O 0.09657(7) 1.3499(2) 0.06253(10)
O3_2 O 0.08138(5) 0.93480(19) -0.02927(7)
O3_3 O 0.08138(5) 1.93480(19) -0.02927(7)
O4_2 O 0.02436(7) 1.1590(2) -0.04619(10)
O4D O -0.02436(7) 0.8410(2) 0.04619(10)
O4D_2 O -0.02436(7) 1.8410(2) 0.04619(10)
O5A O 0.01470(5) 0.4204(2) 0.43370(6)
O5D O 0.01470(5) 0.5796(2) -0.06630(6)
O5_2 O -0.01470(5) 1.4204(2) 0.06630(6)
O5D_2 O 0.01470(5) 1.5796(2) -0.06630(6)
O6A O -0.02588(5) 0.55273(19) 0.34975(6)
O6_2 O 0.02588(5) 1.55273(19) 0.15025(6)
O7_2 O 0.06754(7) 1.9969(2) 0.10888(8)
H1_2 H 0.0596 2.0480 0.1443
H2_2 H 0.0673 2.0814 0.0796
O8_2 O 0.13857(7) 1.7260(3) 0.10907(10)
H3_2 H 0.1656 1.6714 0.1215
H4_2 H 0.1428 1.8438 0.1137
N1_2 N 0.21370(6) 1.0211(2) -0.06030(9)
N2_2 N 0.16796(7) 1.2348(3) -0.16499(9)
N3A N 0.05953(7) 0.2093(2) 0.22296(8)
C1_2 C 0.24250(8) 0.9768(3) -0.00742(12)
H9_2 H 0.2705 0.9022 -0.0130
C2_2 C 0.23296(8) 1.0352(3) 0.05471(12)
H10_2 H 0.2528 0.9953 0.0904
C3_2 C 0.19306(9) 1.1549(3) 0.06236(11)
H11_2 H 0.1855 1.1965 0.1037
C4_2 C 0.16417(7) 1.2130(3) 0.00796(9)
C5_2 C 0.17481(7) 1.1370(3) -0.05290(9)
C6_2 C 0.14335(8) 1.1754(2) -0.11330(10)
C7_2 C 0.09139(7) 1.1476(3) -0.11593(9)
C8_2 C 0.06486(9) 1.1833(2) -0.17470(11)
H12_2 H 0.0304 1.1665 -0.1780
C9_2 C 0.09008(9) 1.2438(3) -0.22790(10)
H13_2 H 0.0731 1.2683 -0.2676
C10_2 C 0.14112(10) 1.2669(4) -0.22049(10)
H14_2 H 0.1581 1.3075 -0.2564
C11_2 C 0.12607(7) 1.3647(3) 0.01701(9)
C12_2 C 0.06354(6) 1.0749(2) -0.05920(9)
C13A C 0.02642(7) 0.2818(3) 0.26307(8)
C14A C 0.04094(7) 0.3435(2) 0.32657(8)
C15A C 0.09124(8) 0.3284(2) 0.34632(10)
H15A H 0.1020 0.3639 0.3882
C16A C 0.12535(7) 0.2603(3) 0.30330(10)
H16A H 0.1592 0.2534 0.3154
C17A C 0.10803(8) 0.2030(3) 0.24228(11)
H17A H 0.1309 0.1582 0.2133
C18A C 0.00696(6) 0.4426(2) 0.37202(8)
O9 O 0.27330(8) -0.0817(4) -0.16221(11)
H5 H 0.2509 -0.0540 -0.1358
H6 H 0.2773 0.0126 -0.1868
O10 O 0.26612(10) 0.2891(5) -0.21151(14)
H7 H 0.2634 0.2513 -0.2508
H8 H 0.2391 0.2551 -0.1948
loop_
_geom_bond_atom_site_label_1
_geom_bond_atom_site_label_2
_geom_bond_site_symmetry_1
_geom_bond_site_symmetry_2
La1 O1 1_555 1_555
O1 C11 1_555 1_555
O2 La1 1_555 1_555
O3 C12 1_555 1_555
O4 C12 1_555 1_555
O5 La1 1_555 1_555
O6 La1 1_555 1_555
O7 La1 1_555 1_555
H1 O7 1_555 1_555
H2 O7 1_555 1_555
O8 La1 1_555 1_555
H3 O8 1_555 1_555
H4 O8 1_555 1_555
O9 H5 1_555 1_555
H6 O9 1_555 1_555
O10 H7 1_555 1_555
H8 O10 1_555 1_555
N1 C1 1_555 1_555
N2 C6 1_555 1_555
N3 C13 1_555 1_555
C1 H9 1_555 1_555
C2 C1 1_555 1_555
H10 C2 1_555 1_555
C3 C2 1_555 1_555
H11 C3 1_555 1_555
C4 C3 1_555 1_555
C5 N1 1_555 1_555
C6 C5 1_555 1_555
C7 C6 1_555 1_555
C8 C7 1_555 1_555
H12 C8 1_555 1_555
C9 C8 1_555 1_555
H13 C9 1_555 1_555
C10 N2 1_555 1_555
H14 C10 1_555 1_555
C11 O2 1_555 1_555
C12 C7 1_555 1_555
C13 C14 1_555 1_555
C14 C15 1_555 1_555
C15 H15 1_555 1_555
C16 C15 1_555 1_555
H16 C16 1_555 1_555
C17 N3 1_555 1_555
H17 C17 1_555 1_555
C18 O5 1_555 1_555
La1_2 O1_2 1_555 1_555
La1_3 O3 1_555 1_555
La1D O4 1_555 1_555
La1A O5A 1_555 1_555
La1E O5A 1_555 1_555
La1D_2 O4_2 1_555 1_555
O1_2 C11_2 1_555 1_555
O2_2 La1_2 1_555 1_555
O3_2 La1 1_555 1_555
O3_3 La1_2 1_555 1_555
O4_2 C12_2 1_555 1_555
O4D La1 1_555 1_555
O4D_2 La1_2 1_555 1_555
O5A C18A 1_555 1_555
O5D La1 1_555 1_555
O5_2 La1_2 1_555 1_555
O5D_2 La1_2 1_555 1_555
O6A La1A 1_555 1_555
O6_2 La1_2 1_555 1_555
O7_2 La1_2 1_555 1_555
H1_2 O7_2 1_555 1_555
H2_2 O7_2 1_555 1_555
O8_2 La1_2 1_555 1_555
H3_2 O8_2 1_555 1_555
H4_2 O8_2 1_555 1_555
N1_2 C1_2 1_555 1_555
N2_2 C6_2 1_555 1_555
N3A C13A 1_555 1_555
C1_2 H9_2 1_555 1_555
C2_2 C1_2 1_555 1_555
H10_2 C2_2 1_555 1_555
C3_2 C2_2 1_555 1_555
H11_2 C3_2 1_555 1_555
C4_2 C3_2 1_555 1_555
C5_2 N1_2 1_555 1_555
C6_2 C5_2 1_555 1_555
C7_2 C6_2 1_555 1_555
C8_2 C7_2 1_555 1_555
H12_2 C8_2 1_555 1_555
C9_2 C8_2 1_555 1_555
H13_2 C9_2 1_555 1_555
C10_2 N2_2 1_555 1_555
H14_2 C10_2 1_555 1_555
C11_2 O2_2 1_555 1_555
C12_2 O3_2 1_555 1_555
C13A C13 1_555 1_555
C14A C13A 1_555 1_555
C15A C14A 1_555 1_555
H15A C15A 1_555 1_555
C16A C15A 1_555 1_555
H16A C16A 1_555 1_555
C17A N3A 1_555 1_555
H17A C17A 1_555 1_555
C18A O6A 1_555 1_555
O5 La1D 1_555 1_555
O6 C18 1_555 1_555
C4 C5 1_555 1_555
C4 C11 1_555 1_555
C9 C10 1_555 1_555
C14 C18 1_555 1_555
C16 C17 1_555 1_555
La1D O5D 1_555 1_555
La1D_2 O5_2 1_555 1_555
La1D_2 O5D_2 1_555 1_555
C4_2 C5_2 1_555 1_555
C4_2 C11_2 1_555 1_555
C7_2 C12_2 1_555 1_555
C9_2 C10_2 1_555 1_555
C14A C18A 1_555 1_555
C16A C17A 1_555 1_555

#END
