
#######################################################################
#
#                 Cambridge Crystallographic Data Centre
#                                CCDC 
#
#######################################################################
#
# If this CIF has been generated from an entry in the Cambridge 
# Structural Database, then it will include bibliographic, chemical, 
# crystal, experimental, refinement or atomic coordinate data resulting 
# from the CCDC's data processing and validation procedures.
#
#######################################################################

data_TAGVII
_symmetry_cell_setting           triclinic
_symmetry_space_group_name_H-M   'P -1'
_symmetry_Int_Tables_number      2
_space_group_name_Hall           '-P 1'
loop_
_symmetry_equiv_pos_site_id
_symmetry_equiv_pos_as_xyz
1 x,y,z
2 -x,-y,-z
_cell_length_a                   9.0096(12)
_cell_length_b                   10.9884(14)
_cell_length_c                   11.2571(15)
_cell_angle_alpha                115.907(2)
_cell_angle_beta                 92.307(2)
_cell_angle_gamma                105.383(2)
_cell_volume                     950.756
loop_
_atom_site_label
_atom_site_type_symbol
_atom_site_fract_x
_atom_site_fract_y
_atom_site_fract_z
Cd1 Cd 0.5000 0.5000 1.0000
N1 N 0.3965(2) 0.33116(18) 0.77967(18)
N2 N 0.2878(2) -0.41192(19) 0.02491(18)
O1 O 0.2461(3) 0.11019(19) 1.0622(2)
O2 O 0.3665(2) 0.33701(18) 1.07104(18)
O3 O 0.4802(2) 0.2752(2) 1.2242(2)
S1 S 0.33826(7) 0.25662(6) 1.14628(6)
C1 C 0.0677(3) 0.2683(3) 1.2476(3)
H2 H 0.0201 0.1791 1.1745
C2 C 0.2929(3) 0.4676(3) 1.3730(3)
H3 H 0.3992 0.5137 1.3849
C3 C 0.2056(4) 0.5315(3) 1.4646(3)
H4 H 0.2540 0.6204 1.5378
C4 C 0.0468(3) 0.4658(3) 1.4497(2)
C5 C -0.0197(3) 0.3329(3) 1.3401(3)
H5 H -0.1256 0.2857 1.3282
C6 C 0.2236(3) 0.3356(2) 1.2637(2)
C7 C 0.3315(3) 0.3625(2) 0.6933(2)
H6 H 0.3223 0.4533 0.7249
C8 C 0.2774(3) 0.2685(3) 0.5600(2)
H7 H 0.2316 0.2957 0.5041
C9 C 0.2904(3) 0.1340(3) 0.5090(2)
C10 C 0.3538(3) 0.1001(3) 0.5994(3)
H8 H 0.3621 0.0092 0.5702
C11 C 0.4049(3) 0.1992(2) 0.7322(2)
H9 H 0.4469 0.1733 0.7911
C12 C 0.2344(3) 0.0311(3) 0.3622(2)
H10 H 0.2918 -0.0370 0.3351
H11 H 0.2555 0.0828 0.3103
C13 C 0.0620(3) -0.0474(3) 0.3321(2)
H12 H 0.0057 0.0214 0.3648
H13 H 0.0424 -0.1029 0.3806
C14 C -0.0018(3) -0.1468(3) 0.1830(2)
H14 H -0.1097 -0.2022 0.1716
H15 H 0.0001 -0.0904 0.1363
C15 C 0.0919(2) -0.2457(2) 0.1223(2)
C16 C 0.1856(3) -0.2312(2) 0.0323(2)
H16 H 0.1846 -0.1644 0.0028
C17 C 0.2797(3) -0.3147(3) -0.0136(2)
H17 H 0.3412 -0.3032 -0.0747
C18 C 0.1947(3) -0.4286(2) 0.1092(2)
H18 H 0.1959 -0.4978 0.1354
C19 C 0.0973(3) -0.3492(2) 0.1591(2)
H19 H 0.0346 -0.3648 0.2179
Cd1_2 Cd -0.5000 0.5000 2.0000
Cd1_3 Cd 0.5000 -0.5000 0.0000
Cd1_4 Cd 0.5000 1.5000 2.0000
N1A N 0.6035(2) 0.66884(18) 1.22033(18)
N2A N 0.7122(2) 1.41192(19) 1.97509(18)
N2_2 N 0.2878(2) 0.58808(19) 1.02491(18)
N2A_2 N 0.7122(2) 0.41192(19) 0.97509(18)
O1A O -0.2461(3) 0.88981(19) 1.9378(2)
O2A O -0.3665(2) 0.66299(18) 1.92896(18)
O2A_2 O 0.6335(2) 0.66299(18) 0.92896(18)
O3A O -0.4802(2) 0.7248(2) 1.7758(2)
S1A S -0.33826(7) 0.74338(6) 1.85372(6)
C1A C -0.0677(3) 0.7317(3) 1.7524(3)
H2A H -0.0201 0.8209 1.8255
C2A C -0.2929(3) 0.5324(3) 1.6270(3)
H3A H -0.3992 0.4863 1.6151
C3A C -0.2056(4) 0.4685(3) 1.5354(3)
H4A H -0.2540 0.3796 1.4622
C4A C -0.0468(3) 0.5342(3) 1.5503(2)
C5A C 0.0197(3) 0.6671(3) 1.6599(3)
H5A H 0.1256 0.7143 1.6718
C6A C -0.2236(3) 0.6644(2) 1.7363(2)
C7A C 0.6685(3) 0.6375(2) 1.3067(2)
H6A H 0.6777 0.5467 1.2751
C8A C 0.7226(3) 0.7315(3) 1.4400(2)
H7A H 0.7684 0.7043 1.4959
C9A C 0.7096(3) 0.8660(3) 1.4910(2)
C10A C 0.6462(3) 0.8999(3) 1.4006(3)
H8A H 0.6379 0.9908 1.4298
C11A C 0.5951(3) 0.8008(2) 1.2678(2)
H9A H 0.5531 0.8267 1.2089
C12A C 0.7656(3) 0.9689(3) 1.6378(2)
H10A H 0.7082 1.0370 1.6649
H11A H 0.7445 0.9172 1.6897
C13A C 0.9380(3) 1.0474(3) 1.6679(2)
H12A H 0.9943 0.9786 1.6352
H13A H 0.9576 1.1029 1.6194
C14A C 1.0018(3) 1.1468(3) 1.8170(2)
H14A H 1.1097 1.2022 1.8284
H15A H 0.9999 1.0904 1.8637
C15A C 0.9081(2) 1.2457(2) 1.8777(2)
C16A C 0.8144(3) 1.2312(2) 1.9677(2)
H16A H 0.8154 1.1644 1.9972
C17A C 0.7203(3) 1.3147(3) 2.0136(2)
H17A H 0.6588 1.3032 2.0747
C18A C 0.8053(3) 1.4286(2) 1.8908(2)
H18A H 0.8041 1.4978 1.8646
C19A C 0.9027(3) 1.3492(2) 1.8409(2)
H19A H 0.9654 1.3648 1.7821
O4 O 0.6305(4) 0.0566(4) 0.1874(4)
H1 H 0.5754 0.0947 0.2382
H20 H 0.615(11) -0.002(8) 0.105(3)
loop_
_geom_bond_atom_site_label_1
_geom_bond_atom_site_label_2
_geom_bond_site_symmetry_1
_geom_bond_site_symmetry_2
Cd1 N1 1_555 1_555
N1 C7 1_555 1_555
N2 C17 1_555 1_555
O1 S1 1_555 1_555
O2 Cd1 1_555 1_555
O3 S1 1_555 1_555
O4 H1 1_555 1_555
S1 O2 1_555 1_555
C1 H2 1_555 1_555
C2 H3 1_555 1_555
C3 C2 1_555 1_555
H4 C3 1_555 1_555
C4 C3 1_555 1_555
C5 C1 1_555 1_555
H5 C5 1_555 1_555
C6 S1 1_555 1_555
C7 H6 1_555 1_555
C8 C7 1_555 1_555
H7 C8 1_555 1_555
C9 C8 1_555 1_555
C10 C9 1_555 1_555
H8 C10 1_555 1_555
C11 N1 1_555 1_555
H9 C11 1_555 1_555
C12 C9 1_555 1_555
H10 C12 1_555 1_555
H11 C12 1_555 1_555
C13 C12 1_555 1_555
H12 C13 1_555 1_555
H13 C13 1_555 1_555
C14 C13 1_555 1_555
H14 C14 1_555 1_555
H15 C14 1_555 1_555
C15 C14 1_555 1_555
C16 C15 1_555 1_555
H16 C16 1_555 1_555
C17 C16 1_555 1_555
H17 C17 1_555 1_555
C18 N2 1_555 1_555
H18 C18 1_555 1_555
C19 C15 1_555 1_555
H19 C19 1_555 1_555
H20 O4 1_555 1_555
Cd1_2 O2A 1_555 1_555
Cd1_3 N2 1_555 1_555
Cd1_4 N2A 1_555 1_555
N1A Cd1 1_555 1_555
N2A C17A 1_555 1_555
N2_2 Cd1 1_555 1_555
N2A_2 Cd1 1_555 1_555
O1A S1A 1_555 1_555
O2A S1A 1_555 1_555
O2A_2 Cd1 1_555 1_555
O3A S1A 1_555 1_555
S1A C6A 1_555 1_555
C1A H2A 1_555 1_555
C2A H3A 1_555 1_555
C3A C2A 1_555 1_555
H4A C3A 1_555 1_555
C4A C4 1_555 1_555
C5A C1A 1_555 1_555
H5A C5A 1_555 1_555
C6A C1A 1_555 1_555
C7A N1A 1_555 1_555
H6A C7A 1_555 1_555
C8A C7A 1_555 1_555
H7A C8A 1_555 1_555
C9A C8A 1_555 1_555
C10A C9A 1_555 1_555
H8A C10A 1_555 1_555
C11A N1A 1_555 1_555
H9A C11A 1_555 1_555
C12A C9A 1_555 1_555
H10A C12A 1_555 1_555
H11A C12A 1_555 1_555
C13A C12A 1_555 1_555
H12A C13A 1_555 1_555
H13A C13A 1_555 1_555
C14A C13A 1_555 1_555
H14A C14A 1_555 1_555
H15A C14A 1_555 1_555
C15A C14A 1_555 1_555
C16A C15A 1_555 1_555
H16A C16A 1_555 1_555
C17A C16A 1_555 1_555
H17A C17A 1_555 1_555
C18A N2A 1_555 1_555
H18A C18A 1_555 1_555
C19A C15A 1_555 1_555
H19A C19A 1_555 1_555
C1 C6 1_555 1_555
C2 C6 1_555 1_555
C4 C5 1_555 1_555
C10 C11 1_555 1_555
C18 C19 1_555 1_555
C2A C6A 1_555 1_555
C3A C4A 1_555 1_555
C4A C5A 1_555 1_555
C10A C11A 1_555 1_555
C18A C19A 1_555 1_555

#END
