
#######################################################################
#
#                 Cambridge Crystallographic Data Centre
#                                CCDC 
#
#######################################################################
#
# If this CIF has been generated from an entry in the Cambridge 
# Structural Database, then it will include bibliographic, chemical, 
# crystal, experimental, refinement or atomic coordinate data resulting 
# from the CCDC's data processing and validation procedures.
#
#######################################################################

data_TAGYIJ
_symmetry_cell_setting           monoclinic
_symmetry_space_group_name_H-M   'P 21/c'
_symmetry_Int_Tables_number      14
_space_group_name_Hall           '-P 2ybc'
loop_
_symmetry_equiv_pos_site_id
_symmetry_equiv_pos_as_xyz
1 x,y,z
2 -x,1/2+y,1/2-z
3 -x,-y,-z
4 x,1/2-y,1/2+z
_cell_length_a                   8.234(2)
_cell_length_b                   19.657(3)
_cell_length_c                   7.703(1)
_cell_angle_alpha                90
_cell_angle_beta                 91.55(2)
_cell_angle_gamma                90
_cell_volume                     1246.32
loop_
_atom_site_label
_atom_site_type_symbol
_atom_site_fract_x
_atom_site_fract_y
_atom_site_fract_z
In1 In 0.44586(5) 0.45780(2) 0.25446(5)
I1 I 0.38902(4) 0.58338(2) 0.10070(4)
I2 I 0.74039(4) 0.48490(2) 0.41968(4)
C1 C 0.3087(6) 0.3656(3) 0.2415(7)
C2 C 0.1533(6) 0.3677(3) 0.1639(7)
C3 C 0.0651(7) 0.3071(3) 0.1445(8)
C4 C 0.1293(8) 0.2445(3) 0.1993(8)
C5 C 0.2839(8) 0.2444(3) 0.2756(8)
C6 C 0.3755(7) 0.3037(3) 0.2999(8)
C7 C 0.0818(7) 0.4322(3) 0.0933(8)
C8 C 0.0390(10) 0.1788(3) 0.1672(10)
C9 C 0.5431(8) 0.3000(3) 0.3863(10)
H1 H -0.0419 0.3085 0.0919
H2 H 0.3299 0.2020 0.3144
H3 H 0.1509 0.4508 0.0069
H4 H 0.0699 0.4641 0.1863
H5 H -0.0241 0.4232 0.0433
H6 H 0.1073 0.1399 0.1890
H7 H -0.0026 0.1788 0.0496
H8 H -0.0526 0.1786 0.2417
H9 H 0.5864 0.3446 0.4096
H10 H 0.6114 0.2747 0.3106
H11 H 0.5342 0.2740 0.4910
I1B I 0.61098(4) 0.41662(2) -0.10070(4)
I2B I 0.25961(4) 0.51510(2) 0.58032(4)
In1B In 0.55414(5) 0.54220(2) -0.25446(5)
In1B_2 In 0.55414(5) 0.54220(2) 0.74554(5)
I2_2 I 0.74039(4) 0.48490(2) -0.58032(4)
I2B_2 I 0.25961(4) 0.51510(2) -0.41968(4)
C1B C 0.6913(6) 0.6344(3) -0.2415(7)
C2B C 0.8467(6) 0.6323(3) -0.1639(7)
C6B C 0.6245(7) 0.6963(3) -0.2999(8)
C3B C 0.9349(7) 0.6929(3) -0.1445(8)
C7B C 0.9182(7) 0.5678(3) -0.0933(8)
C5B C 0.7161(8) 0.7556(3) -0.2756(8)
C9B C 0.4569(8) 0.7000(3) -0.3863(10)
C4B C 0.8707(8) 0.7555(3) -0.1993(8)
H1B H 1.0419 0.6915 -0.0919
H3B H 0.8491 0.5492 -0.0069
H4B H 0.9301 0.5359 -0.1863
H5B H 1.0241 0.5768 -0.0433
H2B H 0.6701 0.7980 -0.3144
H9B H 0.4136 0.6554 -0.4096
H10B H 0.3886 0.7253 -0.3106
H11B H 0.4658 0.7260 -0.4910
C8B C 0.9610(10) 0.8212(3) -0.1672(10)
H6B H 0.8927 0.8601 -0.1890
H7B H 1.0026 0.8212 -0.0496
H8B H 1.0526 0.8214 -0.2417
loop_
_geom_bond_atom_site_label_1
_geom_bond_atom_site_label_2
_geom_bond_site_symmetry_1
_geom_bond_site_symmetry_2
In1 I1 1_555 1_555
I1 In1B 1_555 1_555
I2 In1 1_555 1_555
C1 In1 1_555 1_555
C2 C1 1_555 1_555
C3 C2 1_555 1_555
C4 C3 1_555 1_555
C5 C4 1_555 1_555
C6 C1 1_555 1_555
C7 C2 1_555 1_555
C8 C4 1_555 1_555
C9 C6 1_555 1_555
H1 C3 1_555 1_555
H2 C5 1_555 1_555
H3 C7 1_555 1_555
H4 C7 1_555 1_555
H5 C7 1_555 1_555
H6 C8 1_555 1_555
H7 C8 1_555 1_555
H8 C8 1_555 1_555
H9 C9 1_555 1_555
H10 C9 1_555 1_555
H11 C9 1_555 1_555
I1B In1 1_555 1_555
I2B In1 1_555 1_555
In1B I1B 1_555 1_555
In1B_2 I2 1_555 1_555
I2_2 In1B 1_555 1_555
I2B_2 In1B 1_555 1_555
C1B In1B 1_555 1_555
C2B C1B 1_555 1_555
C6B C1B 1_555 1_555
C3B C2B 1_555 1_555
C7B C2B 1_555 1_555
C5B C6B 1_555 1_555
C9B C6B 1_555 1_555
C4B C3B 1_555 1_555
H1B C3B 1_555 1_555
H3B C7B 1_555 1_555
H4B C7B 1_555 1_555
H5B C7B 1_555 1_555
H2B C5B 1_555 1_555
H9B C9B 1_555 1_555
H10B C9B 1_555 1_555
H11B C9B 1_555 1_555
C8B C4B 1_555 1_555
H6B C8B 1_555 1_555
H7B C8B 1_555 1_555
H8B C8B 1_555 1_555
C5 C6 1_555 1_555
I2B In1B_2 1_555 1_555
C5B C4B 1_555 1_555

#END
