
#######################################################################
#
#                 Cambridge Crystallographic Data Centre
#                                CCDC 
#
#######################################################################
#
# If this CIF has been generated from an entry in the Cambridge 
# Structural Database, then it will include bibliographic, chemical, 
# crystal, experimental, refinement or atomic coordinate data resulting 
# from the CCDC's data processing and validation procedures.
#
#######################################################################

data_TAHFAL
_symmetry_cell_setting           orthorhombic
_symmetry_space_group_name_H-M   'P n m a'
_symmetry_Int_Tables_number      62
_space_group_name_Hall           '-P 2ac 2n'
loop_
_symmetry_equiv_pos_site_id
_symmetry_equiv_pos_as_xyz
1 x,y,z
2 1/2-x,-y,1/2+z
3 1/2+x,1/2-y,1/2-z
4 -x,1/2+y,-z
5 -x,-y,-z
6 1/2+x,y,1/2-z
7 1/2-x,1/2+y,1/2+z
8 x,1/2-y,z
_cell_length_a                   17.115(3)
_cell_length_b                   6.2802(13)
_cell_length_c                   7.5309(15)
_cell_angle_alpha                90
_cell_angle_beta                 90
_cell_angle_gamma                90
_cell_volume                     809.463
loop_
_atom_site_label
_atom_site_type_symbol
_atom_site_fract_x
_atom_site_fract_y
_atom_site_fract_z
Co1 Co 0.0000 1.0000 0.5000
O1 O 0.11290(13) 1.0709(4) 0.4100(4)
O2 O 0.45890(17) 1.2500 0.1890(5)
O3 O -0.00828(17) 0.7500 0.3332(4)
N1 N 0.3848(2) 1.2500 0.2464(6)
C1 C 0.1438(3) 1.2500 0.3922(7)
C2 C 0.2299(3) 1.2500 0.3449(7)
C3 C 0.2706(2) 1.0628(6) 0.3252(6)
H1 H 0.2454 0.9338 0.3454
C4 C 0.3482(2) 1.0634(6) 0.2761(6)
H2 H 0.3752 0.9357 0.2635
C5 C 0.0291(3) 0.7500 0.1663(8)
H3 H 0.0142 0.6259 0.1013
H4 H 0.0844 0.7500 0.1828
Co1A Co 0.5000 1.0000 0.0000
Co1B Co 0.5000 1.5000 0.0000
Co1C Co 0.0000 0.5000 0.5000
Co1C_2 Co 0.0000 1.5000 0.5000
O1G O 0.11290(13) 1.4291(4) 0.4100(4)
O1D O -0.11290(13) 0.9291(4) 0.5900(4)
O2A O 0.04110(17) 0.7500 0.6890(5)
O2B O -0.04110(17) 1.2500 0.3110(5)
O3C O 0.00828(17) 1.2500 0.6668(4)
C3G C 0.2706(2) 1.4372(6) 0.3252(6)
H1G H 0.2454 1.5662 0.3454
C4G C 0.3482(2) 1.4366(6) 0.2761(6)
H2G H 0.3752 1.5643 0.2635
H3G H 0.0142 0.8741 0.1013
loop_
_geom_bond_atom_site_label_1
_geom_bond_atom_site_label_2
_geom_bond_site_symmetry_1
_geom_bond_site_symmetry_2
Co1 O1 1_555 1_555
O1 C1 1_555 1_555
O2 N1 1_555 1_555
O3 Co1 1_555 1_555
N1 C4 1_555 1_555
C1 C2 1_555 1_555
C2 C3 1_555 1_555
C3 H1 1_555 1_555
C4 C3 1_555 1_555
H2 C4 1_555 1_555
C5 O3 1_555 1_555
H3 C5 1_555 1_555
H4 C5 1_555 1_555
Co1A O2 1_555 1_555
Co1B O2 1_555 1_555
Co1C O3 1_555 1_555
Co1C_2 O1G 1_555 1_555
O1G C1 1_555 1_555
O1D Co1 1_555 1_555
O2A Co1 1_555 1_555
O2B Co1 1_555 1_555
O3C Co1 1_555 1_555
C3G C2 1_555 1_555
H1G C3G 1_555 1_555
C4G N1 1_555 1_555
H2G C4G 1_555 1_555
H3G C5 1_555 1_555
Co1C O2A 1_555 1_555
Co1C_2 O2B 1_555 1_555
Co1C_2 O3C 1_555 1_555
C3G C4G 1_555 1_555

#END
