
#######################################################################
#
#                 Cambridge Crystallographic Data Centre
#                                CCDC 
#
#######################################################################
#
# If this CIF has been generated from an entry in the Cambridge 
# Structural Database, then it will include bibliographic, chemical, 
# crystal, experimental, refinement or atomic coordinate data resulting 
# from the CCDC's data processing and validation procedures.
#
#######################################################################

data_TAHFUF
_symmetry_cell_setting           monoclinic
_symmetry_space_group_name_H-M   'P 21/c'
_symmetry_Int_Tables_number      14
_space_group_name_Hall           '-P 2ybc'
loop_
_symmetry_equiv_pos_site_id
_symmetry_equiv_pos_as_xyz
1 x,y,z
2 -x,1/2+y,1/2-z
3 -x,-y,-z
4 x,1/2-y,1/2+z
_cell_length_a                   9.7651(10)
_cell_length_b                   8.0870(6)
_cell_length_c                   10.3313(11)
_cell_angle_alpha                90
_cell_angle_beta                 118.024(4)
_cell_angle_gamma                90
_cell_volume                     720.207
loop_
_atom_site_label
_atom_site_type_symbol
_atom_site_fract_x
_atom_site_fract_y
_atom_site_fract_z
Ba1 Ba 0.05114(2) 0.46568(2) -0.271457(18)
O1 O 0.0652(3) 0.6782(3) -0.0604(2)
O2 O 0.1307(3) 0.7177(3) 0.1751(2)
O3 O 0.1988(3) 0.0548(3) 0.0618(3)
O4 O 0.2056(3) 0.1849(3) -0.1239(2)
N1 N 0.3288(3) 0.4719(3) 0.0378(3)
C1 C 0.4853(4) 0.4437(4) 0.0509(4)
H1 H 0.579(5) 0.459(5) 0.159(4)
H2 H 0.485(4) 0.321(4) 0.024(4)
C2 C 0.3262(4) 0.6233(4) 0.1164(4)
H3 H 0.403(4) 0.613(5) 0.229(4)
H4 H 0.378(4) 0.718(4) 0.089(4)
C3 C 0.1608(4) 0.6760(3) 0.0735(3)
C4 C 0.2880(4) 0.3316(4) 0.1030(3)
H5 H 0.195(4) 0.365(5) 0.110(4)
H6 H 0.378(5) 0.298(5) 0.201(4)
C5 C 0.2298(3) 0.1794(4) 0.0072(3)
Ba1B Ba 0.94886(2) 0.53432(2) 0.271457(18)
Ba1A Ba -0.05114(2) 0.96568(2) -0.228543(18)
Ba1B_2 Ba -0.05114(2) 0.53432(2) 0.271457(18)
Ba1C Ba 0.05114(2) 1.03432(2) 0.228543(18)
Ba1A_2 Ba -0.05114(2) -0.03432(2) -0.228543(18)
Ba1C_2 Ba 0.05114(2) 0.03432(2) 0.228543(18)
Ba1C_3 Ba 1.05114(2) 0.03432(2) 0.228543(18)
Ba1_2 Ba 1.05114(2) 0.46568(2) -0.271457(18)
Ba1A_3 Ba 0.94886(2) -0.03432(2) -0.228543(18)
Ba1C_4 Ba 1.05114(2) 1.03432(2) 0.228543(18)
Ba1A_4 Ba 0.94886(2) 0.96568(2) -0.228543(18)
O1B O 0.9348(3) 0.3218(3) 0.0604(2)
O1A O -0.0652(3) 0.1782(3) -0.4396(2)
O1C O 1.0652(3) 0.8218(3) 0.4396(2)
O2B O 0.8693(3) 0.2823(3) -0.1751(2)
O2B_2 O -0.1307(3) 0.2823(3) -0.1751(2)
O2C O 0.1307(3) 0.7823(3) -0.3249(2)
O2_2 O 1.1307(3) 0.7177(3) 0.1751(2)
O2A O 0.8693(3) 0.2177(3) 0.3249(2)
O3B O 0.8012(3) 0.9452(3) -0.0618(3)
O3A O -0.1988(3) 0.5548(3) -0.5618(3)
O3C O 0.1988(3) 0.4452(3) -0.4382(3)
O3C_2 O 1.1988(3) 0.4452(3) 0.5618(3)
O3A_2 O 0.8012(3) 0.5548(3) 0.4382(3)
O4B O 0.7944(3) 0.8151(3) 0.1239(2)
O4A O -0.2056(3) 0.6849(3) -0.3761(2)
O4C O 1.2056(3) 0.3151(3) 0.3761(2)
N1B N 0.6712(3) 0.5281(3) -0.0378(3)
C1B C 0.5147(4) 0.5563(4) -0.0509(4)
H1B H 0.421(5) 0.541(5) -0.159(4)
H2B H 0.515(4) 0.679(4) -0.024(4)
C2B C 0.6738(4) 0.3767(4) -0.1164(4)
H3B H 0.597(4) 0.387(5) -0.229(4)
H4B H 0.622(4) 0.282(4) -0.089(4)
C3B C 0.8392(4) 0.3240(3) -0.0735(3)
C4B C 0.7120(4) 0.6684(4) -0.1030(3)
H5B H 0.805(4) 0.635(5) -0.110(4)
H6B H 0.622(5) 0.702(5) -0.201(4)
C5B C 0.7702(3) 0.8206(4) -0.0072(3)
loop_
_geom_bond_atom_site_label_1
_geom_bond_atom_site_label_2
_geom_bond_site_symmetry_1
_geom_bond_site_symmetry_2
Ba1 O1 1_555 1_555
O1 C3 1_555 1_555
O2 C3 1_555 1_555
O3 C5 1_555 1_555
O4 Ba1 1_555 1_555
N1 Ba1 1_555 1_555
C1 N1 1_555 1_555
H1 C1 1_555 1_555
H2 C1 1_555 1_555
C2 N1 1_555 1_555
H3 C2 1_555 1_555
H4 C2 1_555 1_555
C3 C2 1_555 1_555
C4 N1 1_555 1_555
H5 C4 1_555 1_555
H6 C4 1_555 1_555
C5 O4 1_555 1_555
Ba1B O1B 1_555 1_555
Ba1A O1 1_555 1_555
Ba1B_2 O2 1_555 1_555
Ba1C O2 1_555 1_555
Ba1A_2 O3 1_555 1_555
Ba1C_2 O3 1_555 1_555
Ba1C_3 O1B 1_555 1_555
Ba1_2 O2B 1_555 1_555
Ba1A_3 O2B 1_555 1_555
Ba1C_4 O1C 1_555 1_555
Ba1A_4 O3B 1_555 1_555
O1B C3B 1_555 1_555
O1A Ba1 1_555 1_555
O1C Ba1B 1_555 1_555
O2B C3B 1_555 1_555
O2B_2 Ba1 1_555 1_555
O2C Ba1 1_555 1_555
O2_2 Ba1B 1_555 1_555
O2A Ba1B 1_555 1_555
O3B Ba1C_4 1_555 1_555
O3A Ba1 1_555 1_555
O3C Ba1 1_555 1_555
O3C_2 Ba1B 1_555 1_555
O3A_2 Ba1B 1_555 1_555
O4B Ba1B 1_555 1_555
O4A Ba1 1_555 1_555
O4C Ba1B 1_555 1_555
N1B Ba1B 1_555 1_555
C1B C1 1_555 1_555
H1B C1B 1_555 1_555
H2B C1B 1_555 1_555
C2B N1B 1_555 1_555
H3B C2B 1_555 1_555
H4B C2B 1_555 1_555
C3B C2B 1_555 1_555
C4B N1B 1_555 1_555
H5B C4B 1_555 1_555
H6B C4B 1_555 1_555
C5B O3B 1_555 1_555
O4 Ba1A_2 1_555 1_555
C4 C5 1_555 1_555
Ba1A O2C 1_555 1_555
Ba1A O4A 1_555 1_555
Ba1A_2 O1A 1_555 1_555
Ba1A_2 O2B_2 1_555 1_555
Ba1C_3 O2A 1_555 1_555
Ba1C_3 O4C 1_555 1_555
Ba1C_4 O2_2 1_555 1_555
Ba1C_4 O4B 1_555 1_555
O4B C5B 1_555 1_555
N1B C1B 1_555 1_555
C4B C5B 1_555 1_555

#END
