
#######################################################################
#
#                 Cambridge Crystallographic Data Centre
#                                CCDC 
#
#######################################################################
#
# If this CIF has been generated from an entry in the Cambridge 
# Structural Database, then it will include bibliographic, chemical, 
# crystal, experimental, refinement or atomic coordinate data resulting 
# from the CCDC's data processing and validation procedures.
#
#######################################################################

data_TAHNAT
_symmetry_cell_setting           triclinic
_symmetry_space_group_name_H-M   'P -1'
_symmetry_Int_Tables_number      2
_space_group_name_Hall           '-P 1'
loop_
_symmetry_equiv_pos_site_id
_symmetry_equiv_pos_as_xyz
1 x,y,z
2 -x,-y,-z
_cell_length_a                   8.6450(14)
_cell_length_b                   9.1215(14)
_cell_length_c                   11.4093(18)
_cell_angle_alpha                86.310(3)
_cell_angle_beta                 73.376(3)
_cell_angle_gamma                70.253(2)
_cell_volume                     810.864
loop_
_atom_site_label
_atom_site_type_symbol
_atom_site_fract_x
_atom_site_fract_y
_atom_site_fract_z
Zn1 Zn 0.52744(4) 0.08566(3) -0.14075(3)
N1 N 0.4718(3) -0.0722(2) -0.22163(19)
N2 N 0.6567(3) 0.1011(2) -0.3339(2)
N3 N 0.5490(2) -0.2428(2) -0.37206(18)
O1 O 0.1483(3) 0.1552(3) 0.22032(18)
O2 O 0.3109(2) 0.0263(2) 0.04537(16)
O3 O -0.4162(2) 0.7051(2) 0.07112(16)
O4 O -0.3299(3) 0.6266(3) 0.23592(19)
C1 C 0.1746(3) 0.1309(3) 0.1118(2)
C2 C 0.0435(3) 0.2267(3) 0.0497(2)
C3 C 0.0350(3) 0.1853(3) -0.0624(2)
H1 H 0.1152 0.0951 -0.1048
C4 C -0.0930(4) 0.2782(3) -0.1113(2)
H2 H -0.1001 0.2484 -0.1855
C5 C -0.2110(3) 0.4153(3) -0.0512(2)
H3 H -0.2949 0.4782 -0.0858
C6 C -0.2031(3) 0.4581(3) 0.0607(2)
C7 C -0.0776(3) 0.3615(3) 0.1107(2)
H4 H -0.0747 0.3880 0.1872
C8 C -0.3247(3) 0.6069(3) 0.1297(2)
C9 C 0.3980(3) -0.1838(3) -0.1814(2)
H5 H 0.3274 -0.1867 -0.1032
C10 C 0.4446(3) -0.2896(3) -0.2740(2)
H6 H 0.4118 -0.3772 -0.2714
C11 C 0.5636(3) -0.1104(3) -0.3367(2)
C12 C 0.6621(3) -0.0142(3) -0.4052(2)
C13 C 0.7497(3) -0.0319(3) -0.5279(2)
H7 H 0.7525 -0.1122 -0.5755
C14 C 0.8337(3) 0.0723(4) -0.5790(3)
H8 H 0.8942 0.0624 -0.6615
C15 C 0.8267(4) 0.1899(4) -0.5067(3)
H9 H 0.8825 0.2608 -0.5391
C16 C 0.7357(4) 0.2010(3) -0.3855(3)
H10 H 0.7289 0.2825 -0.3372
C17 C 0.6422(3) -0.3389(3) -0.4840(2)
H11 H 0.5901 -0.4170 -0.4873
H12 H 0.6335 -0.2741 -0.5542
C18 C 0.9489(3) -0.4566(3) -0.6045(2)
H13 H 0.9149 -0.4267 -0.6753
C19 C 0.8284(3) -0.4188(3) -0.4909(2)
C20 C 1.1180(3) -0.5380(3) -0.6133(2)
H14 H 0.8028 -0.4359 -0.3100
Zn1A Zn 0.47256(4) -0.08566(3) 0.14075(3)
Zn1A_2 Zn 1.47256(4) -1.08566(3) -0.85925(3)
Zn1A_3 Zn -0.52744(4) 0.91434(3) 0.14075(3)
Zn1_2 Zn 1.52744(4) -0.91434(3) -1.14075(3)
Zn1A_4 Zn 0.47256(4) -0.08566(3) -0.85925(3)
N1A N 1.5282(3) -0.9278(2) -0.77837(19)
N2A N 1.3433(3) -1.1011(2) -0.6661(2)
N3A N 1.4510(2) -0.7572(2) -0.62794(18)
O1_2 O 1.1483(3) -0.8448(3) -0.77968(18)
O2A O 0.6891(2) -0.0263(2) -0.04537(16)
O2_2 O 1.3109(2) -0.9737(2) -0.95463(16)
O2A_2 O 1.6891(2) -1.0263(2) -1.04537(16)
O3A O 0.4162(2) 0.2949(2) -0.07112(16)
O3_2 O 1.5838(2) -1.2949(2) -0.92888(16)
O3_3 O 0.5838(2) -0.2949(2) -0.92888(16)
O4_2 O 0.6701(3) -0.3734(3) -0.76408(19)
C1_2 C 1.1746(3) -0.8691(3) -0.8882(2)
C2_2 C 1.0435(3) -0.7733(3) -0.9503(2)
C3_2 C 1.0350(3) -0.8147(3) -1.0624(2)
H1_2 H 1.1152 -0.9049 -1.1048
C4_2 C 0.9070(4) -0.7218(3) -1.1113(2)
H2_2 H 0.8999 -0.7516 -1.1855
C5_2 C 0.7890(3) -0.5847(3) -1.0512(2)
H3_2 H 0.7051 -0.5218 -1.0858
C6_2 C 0.7969(3) -0.5419(3) -0.9393(2)
C7_2 C 0.9224(3) -0.6385(3) -0.8893(2)
H4_2 H 0.9253 -0.6120 -0.8128
C8_2 C 0.6753(3) -0.3931(3) -0.8703(2)
C9A C 1.6020(3) -0.8162(3) -0.8186(2)
H5A H 1.6726 -0.8133 -0.8968
C10A C 1.5554(3) -0.7104(3) -0.7260(2)
H6A H 1.5882 -0.6228 -0.7286
C11A C 1.4364(3) -0.8896(3) -0.6633(2)
C12A C 1.3379(3) -0.9858(3) -0.5948(2)
C13A C 1.2503(3) -0.9681(3) -0.4721(2)
H7A H 1.2475 -0.8878 -0.4245
C14A C 1.1663(3) -1.0723(4) -0.4210(3)
H8A H 1.1058 -1.0624 -0.3385
C15A C 1.1733(4) -1.1899(4) -0.4933(3)
H9A H 1.1175 -1.2608 -0.4609
C16A C 1.2643(4) -1.2010(3) -0.6145(3)
H10A H 1.2711 -1.2825 -0.6628
C17A C 1.3578(3) -0.6611(3) -0.5160(2)
H11A H 1.4099 -0.5830 -0.5127
H12A H 1.3665 -0.7259 -0.4458
C18A C 1.0511(3) -0.5434(3) -0.3955(2)
H13A H 1.0851 -0.5733 -0.3247
C19A C 1.1716(3) -0.5812(3) -0.5091(2)
C20A C 0.8820(3) -0.4620(3) -0.3867(2)
H14A H 1.1972 -0.5641 -0.6900
loop_
_geom_bond_atom_site_label_1
_geom_bond_atom_site_label_2
_geom_bond_site_symmetry_1
_geom_bond_site_symmetry_2
Zn1 N1 1_555 1_555
N1 C9 1_555 1_555
N2 Zn1 1_555 1_555
N3 C10 1_555 1_555
O1 C1 1_555 1_555
O2 Zn1 1_555 1_555
O3 C8 1_555 1_555
O4 C8 1_555 1_555
C1 O2 1_555 1_555
C2 C1 1_555 1_555
C3 C2 1_555 1_555
H1 C3 1_555 1_555
C4 C3 1_555 1_555
H2 C4 1_555 1_555
C5 C4 1_555 1_555
H3 C5 1_555 1_555
C6 C5 1_555 1_555
C7 C2 1_555 1_555
H4 C7 1_555 1_555
C8 C6 1_555 1_555
C9 H5 1_555 1_555
C10 C9 1_555 1_555
H6 C10 1_555 1_555
C11 N1 1_555 1_555
C12 N2 1_555 1_555
C13 C12 1_555 1_555
H7 C13 1_555 1_555
C14 C13 1_555 1_555
H8 C14 1_555 1_555
C15 C14 1_555 1_555
H9 C15 1_555 1_555
C16 N2 1_555 1_555
H10 C16 1_555 1_555
C17 N3 1_555 1_555
H11 C17 1_555 1_555
H12 C17 1_555 1_555
C18 H13 1_555 1_555
C19 C17 1_555 1_555
C20 C18 1_555 1_555
H14 C20A 1_555 1_555
Zn1A O2 1_555 1_555
Zn1A_2 N1A 1_555 1_555
Zn1A_3 O3 1_555 1_555
Zn1_2 O2_2 1_555 1_555
Zn1A_4 O3_3 1_555 1_555
N1A C9A 1_555 1_555
N2A Zn1A_2 1_555 1_555
N3A C10A 1_555 1_555
O1_2 C1_2 1_555 1_555
O2A Zn1 1_555 1_555
O2_2 Zn1A_2 1_555 1_555
O2A_2 Zn1A_2 1_555 1_555
O3A Zn1 1_555 1_555
O3_2 Zn1A_2 1_555 1_555
O3_3 C8_2 1_555 1_555
O4_2 C8_2 1_555 1_555
C1_2 O2_2 1_555 1_555
C2_2 C1_2 1_555 1_555
C3_2 C2_2 1_555 1_555
H1_2 C3_2 1_555 1_555
C4_2 C3_2 1_555 1_555
H2_2 C4_2 1_555 1_555
C5_2 C4_2 1_555 1_555
H3_2 C5_2 1_555 1_555
C6_2 C5_2 1_555 1_555
C7_2 C2_2 1_555 1_555
H4_2 C7_2 1_555 1_555
C8_2 C6_2 1_555 1_555
C9A H5A 1_555 1_555
C10A C9A 1_555 1_555
H6A C10A 1_555 1_555
C11A N1A 1_555 1_555
C12A N2A 1_555 1_555
C13A C12A 1_555 1_555
H7A C13A 1_555 1_555
C14A C13A 1_555 1_555
H8A C14A 1_555 1_555
C15A C14A 1_555 1_555
H9A C15A 1_555 1_555
C16A N2A 1_555 1_555
H10A C16A 1_555 1_555
C17A N3A 1_555 1_555
H11A C17A 1_555 1_555
H12A C17A 1_555 1_555
C18A H13A 1_555 1_555
C19A C20 1_555 1_555
C20A C19 1_555 1_555
H14A C20 1_555 1_555
N3 C11 1_555 1_555
C6 C7 1_555 1_555
C11 C12 1_555 1_555
C15 C16 1_555 1_555
C18 C19 1_555 1_555
Zn1A O2A 1_555 1_555
Zn1_2 O2A_2 1_555 1_555
N3A C11A 1_555 1_555
C6_2 C7_2 1_555 1_555
C11A C12A 1_555 1_555
C15A C16A 1_555 1_555
C17A C19A 1_555 1_555
C18A C19A 1_555 1_555
C18A C20A 1_555 1_555

#END
