
#######################################################################
#
#                 Cambridge Crystallographic Data Centre
#                                CCDC 
#
#######################################################################
#
# If this CIF has been generated from an entry in the Cambridge 
# Structural Database, then it will include bibliographic, chemical, 
# crystal, experimental, refinement or atomic coordinate data resulting 
# from the CCDC's data processing and validation procedures.
#
#######################################################################

data_TAHNEX
_symmetry_cell_setting           monoclinic
_symmetry_space_group_name_H-M   'P 21/c'
_symmetry_Int_Tables_number      14
_space_group_name_Hall           '-P 2ybc'
loop_
_symmetry_equiv_pos_site_id
_symmetry_equiv_pos_as_xyz
1 x,y,z
2 -x,1/2+y,1/2-z
3 -x,-y,-z
4 x,1/2-y,1/2+z
_cell_length_a                   10.992(3)
_cell_length_b                   11.812(4)
_cell_length_c                   18.358(6)
_cell_angle_alpha                90
_cell_angle_beta                 102.142(5)
_cell_angle_gamma                90
_cell_volume                     2330.24
loop_
_atom_site_label
_atom_site_type_symbol
_atom_site_fract_x
_atom_site_fract_y
_atom_site_fract_z
Zn1 Zn 0.68489(3) -0.08769(3) 0.536959(18)
N1 N 0.8020(3) -0.1993(2) 0.62466(14)
N2 N 0.8470(2) -0.1032(2) 0.50277(14)
N3 N 1.0248(2) -0.1882(2) 0.50301(17)
O1 O 0.6116(2) -0.02001(17) 0.61788(11)
O2 O 0.7708(3) 0.0971(2) 0.63263(15)
O3 O 0.3888(3) 0.2158(3) 0.60943(15)
O4 O 0.4560(2) 0.18960(18) 0.50493(11)
O5 O 0.6331(2) 0.0503(2) 0.46041(14)
C1 C 0.6772(3) 0.0619(3) 0.65090(17)
C2 C 0.6337(3) 0.1121(3) 0.71661(16)
C3 C 0.6059(3) 0.0398(3) 0.77041(18)
H1 H 0.6105 -0.0381 0.7638
C4 C 0.5714(4) 0.0813(3) 0.83372(19)
H2 H 0.5521 0.0319 0.8691
C5 C 0.5661(4) 0.1960(3) 0.84352(19)
H3 H 0.5453 0.2249 0.8864
C6 C 0.5916(3) 0.2690(3) 0.78981(17)
H4 H 0.5869 0.3467 0.7970
C7 C 0.6241(3) 0.2292(3) 0.72542(16)
C8 C 0.6445(3) 0.3115(3) 0.66785(17)
C9 C 0.7381(3) 0.3923(3) 0.6865(2)
H5 H 0.7870 0.3928 0.7345
C10 C 0.7602(4) 0.4716(3) 0.6356(2)
H6 H 0.8236 0.5245 0.6492
C11 C 0.6883(4) 0.4720(3) 0.5647(2)
H7 H 0.7016 0.5261 0.5304
C12 C 0.5961(3) 0.3914(3) 0.54465(18)
H8 H 0.5491 0.3908 0.4962
C13 C 0.5721(3) 0.3118(2) 0.59498(17)
C14 C 0.4626(3) 0.2336(3) 0.56986(17)
C15 C 0.7786(4) -0.2287(3) 0.69063(19)
H9 H 0.6987 -0.2177 0.6987
C16 C 0.8672(4) -0.2744(3) 0.7473(2)
H10 H 0.8475 -0.2944 0.7925
C17 C 0.9856(4) -0.2897(4) 0.7354(2)
H11 H 1.0476 -0.3194 0.7730
C18 C 1.0118(3) -0.2609(3) 0.6679(2)
H12 H 1.0912 -0.2720 0.6591
C19 C 0.9184(3) -0.2151(3) 0.61302(17)
C20 C 0.9322(3) -0.1718(3) 0.54034(17)
C21 C 0.8853(3) -0.0744(3) 0.43939(18)
H13 H 0.8426 -0.0266 0.4024
C22 C 0.9955(3) -0.1258(3) 0.4382(2)
H14 H 1.0415 -0.1201 0.4013
C23 C 1.1186(3) -0.2787(3) 0.5135(2)
H15 H 1.1731 -0.2712 0.5622
H16 H 1.1688 -0.2719 0.4761
C24 C 1.1002(4) -0.4785(3) 0.5568(2)
H17 H 1.1676 -0.4648 0.5957
C25 C 1.0561(3) -0.3934(3) 0.5071(2)
C26 C 0.9549(4) -0.4156(3) 0.4508(2)
H18 H 0.9230 -0.3586 0.4173
H19 H 0.600(4) 0.103(3) 0.479(2)
H20 H 0.576(3) 0.030(4) 0.4254(19)
Zn1B Zn 0.31511(3) 0.08769(3) 0.463041(18)
Zn1B_2 Zn 1.31511(3) -0.91231(3) 0.463041(18)
N1B N 1.1980(3) -0.8007(2) 0.37534(14)
N1B_2 N 0.1980(3) 0.1993(2) 0.37534(14)
N2B N 1.1530(2) -0.8968(2) 0.49723(14)
N2B_2 N 0.1530(2) 0.1032(2) 0.49723(14)
N3B N 0.9752(2) -0.8118(2) 0.49699(17)
O1B O 0.3884(2) 0.02001(17) 0.38212(11)
O2B O 0.2292(3) -0.0971(2) 0.36737(15)
O3B O 0.6112(3) -0.2158(3) 0.39057(15)
O4B O 0.5440(2) -0.18960(18) 0.49507(11)
O5B O 0.3669(2) -0.0503(2) 0.53959(14)
C1B C 0.3228(3) -0.0619(3) 0.34910(17)
C2B C 0.3663(3) -0.1121(3) 0.28339(16)
C3B C 0.3941(3) -0.0398(3) 0.22959(18)
H1B H 0.3895 0.0381 0.2362
C4B C 0.4286(4) -0.0813(3) 0.16628(19)
H2B H 0.4479 -0.0319 0.1309
C5B C 0.4339(4) -0.1960(3) 0.15648(19)
H3B H 0.4547 -0.2249 0.1136
C6B C 0.4084(3) -0.2690(3) 0.21019(17)
H4B H 0.4131 -0.3467 0.2030
C7B C 0.3759(3) -0.2292(3) 0.27458(16)
C8B C 0.3555(3) -0.3115(3) 0.33215(17)
C9B C 0.2619(3) -0.3923(3) 0.3135(2)
H5B H 0.2130 -0.3928 0.2655
C10B C 0.2398(4) -0.4716(3) 0.3644(2)
H6B H 0.1764 -0.5245 0.3508
C11B C 0.3117(4) -0.4720(3) 0.4353(2)
H7B H 0.2984 -0.5261 0.4696
C12B C 0.4039(3) -0.3914(3) 0.45535(18)
H8B H 0.4509 -0.3908 0.5038
C13B C 0.4279(3) -0.3118(2) 0.40502(17)
C14B C 0.5374(3) -0.2336(3) 0.43014(17)
C15B C 1.2214(4) -0.7713(3) 0.30937(19)
H9B H 1.3013 -0.7823 0.3013
C16B C 1.1328(4) -0.7256(3) 0.2527(2)
H10B H 1.1525 -0.7056 0.2075
C17B C 1.0144(4) -0.7103(4) 0.2646(2)
H11B H 0.9524 -0.6806 0.2270
C18B C 0.9882(3) -0.7391(3) 0.3321(2)
H12B H 0.9088 -0.7280 0.3409
C19B C 1.0816(3) -0.7849(3) 0.38698(17)
C20B C 1.0678(3) -0.8282(3) 0.45966(17)
C21B C 1.1147(3) -0.9256(3) 0.56061(18)
H13B H 1.1574 -0.9734 0.5976
C22B C 1.0045(3) -0.8742(3) 0.5618(2)
H14B H 0.9585 -0.8799 0.5987
C23B C 0.8814(3) -0.7213(3) 0.4865(2)
H15B H 0.8269 -0.7288 0.4378
H16B H 0.8312 -0.7281 0.5239
C24B C 0.8998(4) -0.5215(3) 0.4432(2)
H17B H 0.8324 -0.5352 0.4043
C25B C 0.9439(3) -0.6066(3) 0.4929(2)
C26B C 1.0451(4) -0.5844(3) 0.5492(2)
H18B H 1.0770 -0.6414 0.5827
H19B H 0.400(4) -0.103(3) 0.521(2)
H20B H 0.424(3) -0.030(4) 0.5746(19)
loop_
_geom_bond_atom_site_label_1
_geom_bond_atom_site_label_2
_geom_bond_site_symmetry_1
_geom_bond_site_symmetry_2
Zn1 N1 1_555 1_555
N1 C15 1_555 1_555
N2 Zn1 1_555 1_555
N3 C20 1_555 1_555
O1 Zn1 1_555 1_555
O2 C1 1_555 1_555
O3 C14 1_555 1_555
O4 C14 1_555 1_555
O5 Zn1 1_555 1_555
C1 O1 1_555 1_555
C2 C1 1_555 1_555
C3 C2 1_555 1_555
H1 C3 1_555 1_555
C4 C3 1_555 1_555
H2 C4 1_555 1_555
C5 C4 1_555 1_555
H3 C5 1_555 1_555
C6 C5 1_555 1_555
H4 C6 1_555 1_555
C7 C2 1_555 1_555
C8 C7 1_555 1_555
C9 C8 1_555 1_555
H5 C9 1_555 1_555
C10 C9 1_555 1_555
H6 C10 1_555 1_555
C11 C10 1_555 1_555
H7 C11 1_555 1_555
C12 C11 1_555 1_555
H8 C12 1_555 1_555
C13 C8 1_555 1_555
C14 C13 1_555 1_555
C15 H9 1_555 1_555
C16 C15 1_555 1_555
H10 C16 1_555 1_555
C17 C16 1_555 1_555
H11 C17 1_555 1_555
C18 C17 1_555 1_555
H12 C18 1_555 1_555
C19 N1 1_555 1_555
C20 N2 1_555 1_555
C21 N2 1_555 1_555
H13 C21 1_555 1_555
C22 N3 1_555 1_555
H14 C22 1_555 1_555
C23 N3 1_555 1_555
H15 C23 1_555 1_555
H16 C23 1_555 1_555
C24 H17 1_555 1_555
C25 C23 1_555 1_555
C26 C25 1_555 1_555
H18 C26 1_555 1_555
H19 O5 1_555 1_555
H20 O5 1_555 1_555
Zn1B O4 1_555 1_555
Zn1B_2 N1B 1_555 1_555
N1B C15B 1_555 1_555
N1B_2 Zn1B 1_555 1_555
N2B Zn1B_2 1_555 1_555
N2B_2 Zn1B 1_555 1_555
N3B C20B 1_555 1_555
O1B Zn1B 1_555 1_555
O2B C1B 1_555 1_555
O3B C14B 1_555 1_555
O4B Zn1 1_555 1_555
O5B Zn1B 1_555 1_555
C1B O1B 1_555 1_555
C2B C1B 1_555 1_555
C3B C2B 1_555 1_555
H1B C3B 1_555 1_555
C4B C3B 1_555 1_555
H2B C4B 1_555 1_555
C5B C4B 1_555 1_555
H3B C5B 1_555 1_555
C6B C5B 1_555 1_555
H4B C6B 1_555 1_555
C7B C2B 1_555 1_555
C8B C7B 1_555 1_555
C9B C8B 1_555 1_555
H5B C9B 1_555 1_555
C10B C9B 1_555 1_555
H6B C10B 1_555 1_555
C11B C10B 1_555 1_555
H7B C11B 1_555 1_555
C12B C11B 1_555 1_555
H8B C12B 1_555 1_555
C13B C8B 1_555 1_555
C14B O4B 1_555 1_555
C15B H9B 1_555 1_555
C16B C15B 1_555 1_555
H10B C16B 1_555 1_555
C17B C16B 1_555 1_555
H11B C17B 1_555 1_555
C18B C17B 1_555 1_555
H12B C18B 1_555 1_555
C19B N1B 1_555 1_555
C20B N2B 1_555 1_555
C21B N2B 1_555 1_555
H13B C21B 1_555 1_555
C22B N3B 1_555 1_555
H14B C22B 1_555 1_555
C23B N3B 1_555 1_555
H15B C23B 1_555 1_555
H16B C23B 1_555 1_555
C24B C26 1_555 1_555
H17B C24B 1_555 1_555
C25B C23B 1_555 1_555
C26B C24 1_555 1_555
H18B C26B 1_555 1_555
H19B O5B 1_555 1_555
H20B O5B 1_555 1_555
C6 C7 1_555 1_555
C12 C13 1_555 1_555
C18 C19 1_555 1_555
C19 C20 1_555 1_555
C21 C22 1_555 1_555
C24 C25 1_555 1_555
C6B C7B 1_555 1_555
C12B C13B 1_555 1_555
C13B C14B 1_555 1_555
C18B C19B 1_555 1_555
C19B C20B 1_555 1_555
C21B C22B 1_555 1_555
C24B C25B 1_555 1_555
C25B C26B 1_555 1_555

#END
