
#######################################################################
#
#                 Cambridge Crystallographic Data Centre
#                                CCDC 
#
#######################################################################
#
# If this CIF has been generated from an entry in the Cambridge 
# Structural Database, then it will include bibliographic, chemical, 
# crystal, experimental, refinement or atomic coordinate data resulting 
# from the CCDC's data processing and validation procedures.
#
#######################################################################

data_TAHPUP
_symmetry_cell_setting           monoclinic
_symmetry_space_group_name_H-M   'P 21/n'
_symmetry_Int_Tables_number      14
_space_group_name_Hall           '-P 2yn'
loop_
_symmetry_equiv_pos_site_id
_symmetry_equiv_pos_as_xyz
1 x,y,z
2 1/2-x,1/2+y,1/2-z
3 -x,-y,-z
4 1/2+x,1/2-y,1/2+z
_cell_length_a                   6.87630(10)
_cell_length_b                   17.2608(2)
_cell_length_c                   15.1520(2)
_cell_angle_alpha                90
_cell_angle_beta                 95.5140(10)
_cell_angle_gamma                90
_cell_volume                     1790.08
loop_
_atom_site_label
_atom_site_type_symbol
_atom_site_fract_x
_atom_site_fract_y
_atom_site_fract_z
Cu1 Cu 0.69363(3) 0.032956(13) 0.458581(14)
O1 O 0.40860(19) 0.07110(8) 0.52413(9)
O2 O 0.1587(2) 0.12420(8) 0.58529(9)
O3 O 0.2729(2) 0.36076(8) 0.94759(9)
O4 O 0.5216(2) 0.38641(9) 0.86767(10)
O5 O 0.8547(2) 0.02458(8) 0.57251(10)
H1 H 0.892(4) -0.0194(10) 0.5886(18)
H2 H 0.955(3) 0.0519(13) 0.5831(17)
O6 O 0.4357(3) 0.09307(10) 0.01330(10)
N1 N 0.5657(3) 0.03666(9) 0.33311(12)
N2 N 0.1325(3) 0.05419(13) 0.04081(13)
C1 C 0.6021(3) -0.01417(13) 0.26962(14)
H3 H 0.6864 -0.0566 0.2850
C2 C 0.5222(3) -0.00727(13) 0.18313(14)
H4 H 0.5520 -0.0442 0.1399
C3 C 0.3981(3) 0.05396(13) 0.15984(14)
C4 C 0.3543(3) 0.10512(13) 0.22584(15)
H5 H 0.2651 0.1465 0.2127
C5 C 0.4424(3) 0.09491(12) 0.31064(14)
H6 H 0.4143 0.1309 0.3552
C6 C 0.3233(3) 0.06799(13) 0.06430(15)
C7 C 0.0498(4) 0.06579(16) -0.05063(16)
H7 H 0.1453 0.0934 -0.0841
H8 H -0.0693 0.0982 -0.0514
C8 C 0.0013(4) 0.01135(17) 0.09472(16)
H9 H -0.1192 0.0417 0.0999
H10 H 0.0665 0.0027 0.1551
C9 C 0.5349(3) 0.23171(11) 0.80893(14)
C10 C 0.4404(3) 0.23180(11) 0.72365(14)
H11 H 0.3063 0.2459 0.7151
C11 C 0.5376(3) 0.21177(11) 0.65048(13)
C12 C 0.7347(3) 0.19179(12) 0.66307(14)
H12 H 0.8032 0.1785 0.6137
C13 C 0.8305(3) 0.19139(13) 0.74787(15)
H13 H 0.9647 0.1775 0.7564
C14 C 0.7313(3) 0.21118(12) 0.82051(14)
H14 H 0.7981 0.2106 0.8784
C15 C 0.4252(3) 0.20633(11) 0.55914(13)
H15 H 0.5162 0.2092 0.5124
H16 H 0.3305 0.2495 0.5503
C16 C 0.3182(3) 0.12870(12) 0.55452(12)
C17 C 0.4246(3) 0.25432(12) 0.88643(14)
H17 H 0.4905 0.2309 0.9410
H18 H 0.2912 0.2323 0.8774
C18 C 0.4086(3) 0.34146(11) 0.90024(12)
Cu1B Cu -0.69363(3) -0.032956(13) -0.458581(14)
Cu1_2 Cu -0.30637(3) 0.032956(13) -0.541419(14)
Cu1A Cu -0.19363(3) -0.467044(13) -0.958581(14)
Cu1B_2 Cu 0.30637(3) -0.032956(13) 0.541419(14)
Cu1C Cu 0.19363(3) 0.467044(13) 0.958581(14)
O1B O -0.40860(19) -0.07110(8) -0.52413(9)
O1_2 O -0.59140(19) 0.07110(8) -0.47587(9)
O1B_2 O 0.59140(19) -0.07110(8) 0.47587(9)
O2B O -0.1587(2) -0.12420(8) -0.58529(9)
O3B O -0.2729(2) -0.36076(8) -0.94759(9)
O3A O -0.7729(2) -0.13924(8) -0.44759(9)
O3C O 0.7729(2) 0.13924(8) 0.44759(9)
O4B O -0.5216(2) -0.38641(9) -0.86767(10)
O5B O -0.8547(2) -0.02458(8) -0.57251(10)
H1B H -0.892(4) 0.0194(10) -0.5886(18)
H2B H -0.955(3) -0.0519(13) -0.5831(17)
O6B O -0.4357(3) -0.09307(10) -0.01330(10)
N1B N -0.5657(3) -0.03666(9) -0.33311(12)
N2B N -0.1325(3) -0.05419(13) -0.04081(13)
C1B C -0.6021(3) 0.01417(13) -0.26962(14)
H3B H -0.6864 0.0566 -0.2850
C2B C -0.5222(3) 0.00727(13) -0.18313(14)
H4B H -0.5520 0.0442 -0.1399
C3B C -0.3981(3) -0.05396(13) -0.15984(14)
C4B C -0.3543(3) -0.10512(13) -0.22584(15)
H5B H -0.2651 -0.1465 -0.2127
C5B C -0.4424(3) -0.09491(12) -0.31064(14)
H6B H -0.4143 -0.1309 -0.3552
C6B C -0.3233(3) -0.06799(13) -0.06430(15)
C7B C -0.0498(4) -0.06579(16) 0.05063(16)
H7B H -0.1453 -0.0934 0.0841
H8B H 0.0693 -0.0982 0.0514
C8B C -0.0013(4) -0.01135(17) -0.09472(16)
H9B H 0.1192 -0.0417 -0.0999
H10B H -0.0665 -0.0027 -0.1551
C9B C -0.5349(3) -0.23171(11) -0.80893(14)
C10B C -0.4404(3) -0.23180(11) -0.72365(14)
H11B H -0.3063 -0.2459 -0.7151
C11B C -0.5376(3) -0.21177(11) -0.65048(13)
C12B C -0.7347(3) -0.19179(12) -0.66307(14)
H12B H -0.8032 -0.1785 -0.6137
C13B C -0.8305(3) -0.19139(13) -0.74787(15)
H13B H -0.9647 -0.1775 -0.7564
C14B C -0.7313(3) -0.21118(12) -0.82051(14)
H14B H -0.7981 -0.2106 -0.8784
C15B C -0.4252(3) -0.20633(11) -0.55914(13)
H15B H -0.5162 -0.2092 -0.5124
H16B H -0.3305 -0.2495 -0.5503
C16B C -0.3182(3) -0.12870(12) -0.55452(12)
C17B C -0.4246(3) -0.25432(12) -0.88643(14)
H17B H -0.4905 -0.2309 -0.9410
H18B H -0.2912 -0.2323 -0.8774
C18B C -0.4086(3) -0.34146(11) -0.90024(12)
loop_
_geom_bond_atom_site_label_1
_geom_bond_atom_site_label_2
_geom_bond_site_symmetry_1
_geom_bond_site_symmetry_2
Cu1 O1 1_555 1_555
O1 C16 1_555 1_555
O2 C16 1_555 1_555
O3 C18 1_555 1_555
O4 C18 1_555 1_555
O5 Cu1 1_555 1_555
H1 O5 1_555 1_555
H2 O5 1_555 1_555
O6 C6 1_555 1_555
N1 Cu1 1_555 1_555
N2 C6 1_555 1_555
C1 N1 1_555 1_555
H3 C1 1_555 1_555
C2 C1 1_555 1_555
H4 C2 1_555 1_555
C3 C2 1_555 1_555
C4 C3 1_555 1_555
H5 C4 1_555 1_555
C5 N1 1_555 1_555
H6 C5 1_555 1_555
C6 C3 1_555 1_555
C7 N2 1_555 1_555
H7 C7 1_555 1_555
H8 C7 1_555 1_555
C8 N2 1_555 1_555
H9 C8 1_555 1_555
H10 C8 1_555 1_555
C9 C10 1_555 1_555
C10 H11 1_555 1_555
C11 C10 1_555 1_555
C12 C11 1_555 1_555
H12 C12 1_555 1_555
C13 C12 1_555 1_555
H13 C13 1_555 1_555
C14 C9 1_555 1_555
H14 C14 1_555 1_555
C15 C11 1_555 1_555
H15 C15 1_555 1_555
H16 C15 1_555 1_555
C16 C15 1_555 1_555
C17 C9 1_555 1_555
H17 C17 1_555 1_555
H18 C17 1_555 1_555
C18 C17 1_555 1_555
Cu1B O1B 1_555 1_555
Cu1_2 O1B 1_555 1_555
Cu1A O3B 1_555 1_555
Cu1B_2 O1 1_555 1_555
Cu1C O3 1_555 1_555
O1B C16B 1_555 1_555
O1_2 Cu1B 1_555 1_555
O1B_2 Cu1 1_555 1_555
O2B C16B 1_555 1_555
O3B C18B 1_555 1_555
O3A Cu1B 1_555 1_555
O3C Cu1 1_555 1_555
O4B C18B 1_555 1_555
O5B Cu1B 1_555 1_555
H1B O5B 1_555 1_555
H2B O5B 1_555 1_555
O6B C6B 1_555 1_555
N1B Cu1B 1_555 1_555
N2B C6B 1_555 1_555
C1B N1B 1_555 1_555
H3B C1B 1_555 1_555
C2B C1B 1_555 1_555
H4B C2B 1_555 1_555
C3B C2B 1_555 1_555
C4B C3B 1_555 1_555
H5B C4B 1_555 1_555
C5B N1B 1_555 1_555
H6B C5B 1_555 1_555
C6B C3B 1_555 1_555
C7B C8 1_555 1_555
H7B C7B 1_555 1_555
H8B C7B 1_555 1_555
C8B C7 1_555 1_555
H9B C8B 1_555 1_555
H10B C8B 1_555 1_555
C9B C10B 1_555 1_555
C10B H11B 1_555 1_555
C11B C10B 1_555 1_555
C12B C11B 1_555 1_555
H12B C12B 1_555 1_555
C13B C12B 1_555 1_555
H13B C13B 1_555 1_555
C14B C9B 1_555 1_555
H14B C14B 1_555 1_555
C15B C11B 1_555 1_555
H15B C15B 1_555 1_555
H16B C15B 1_555 1_555
C16B C15B 1_555 1_555
C17B C9B 1_555 1_555
H17B C17B 1_555 1_555
H18B C17B 1_555 1_555
C18B C17B 1_555 1_555
C4 C5 1_555 1_555
C13 C14 1_555 1_555
Cu1_2 O1_2 1_555 1_555
Cu1B_2 O1B_2 1_555 1_555
N2B C7B 1_555 1_555
N2B C8B 1_555 1_555
C4B C5B 1_555 1_555
C13B C14B 1_555 1_555

#END
