
#######################################################################
#
#                 Cambridge Crystallographic Data Centre
#                                CCDC 
#
#######################################################################
#
# If this CIF has been generated from an entry in the Cambridge 
# Structural Database, then it will include bibliographic, chemical, 
# crystal, experimental, refinement or atomic coordinate data resulting 
# from the CCDC's data processing and validation procedures.
#
#######################################################################

data_TAHQOK
_symmetry_cell_setting           monoclinic
_symmetry_space_group_name_H-M   'P 21/n'
_symmetry_Int_Tables_number      14
_space_group_name_Hall           '-P 2yn'
loop_
_symmetry_equiv_pos_site_id
_symmetry_equiv_pos_as_xyz
1 x,y,z
2 1/2-x,1/2+y,1/2-z
3 -x,-y,-z
4 1/2+x,1/2-y,1/2+z
_cell_length_a                   10.502(3)
_cell_length_b                   18.649(6)
_cell_length_c                   15.385(5)
_cell_angle_alpha                90
_cell_angle_beta                 101.837(4)
_cell_angle_gamma                90
_cell_volume                     2949.11
loop_
_atom_site_label
_atom_site_type_symbol
_atom_site_fract_x
_atom_site_fract_y
_atom_site_fract_z
Cl1 Cl 0.5571(7) 0.4498(5) 0.5230(3)
O7 O 0.4954(16) 0.5284(8) 0.5590(8)
O8 O 0.669(3) 0.4340(19) 0.5715(16)
O9 O 0.532(3) 0.3657(17) 0.5972(16)
Cl1B Cl 0.4429(7) 0.5502(5) 0.4770(3)
O7B O 0.5046(16) 0.4716(8) 0.4410(8)
O8B O 0.331(3) 0.5660(19) 0.4285(16)
O9B O 0.468(3) 0.6343(17) 0.4028(16)
O2 O -0.2572(8) 0.2976(5) 0.5166(5)
O10 O -0.4879(16) 0.2617(6) 0.0664(8)
O11 O -0.1918(15) 0.2370(9) 0.1000(7)
Cd1 Cd -0.17908(3) -1.024930(19) 0.58953(2)
O1 O -0.3249(5) -1.0342(3) 0.4470(4)
O3 O -0.1959(4) -0.9423(3) 0.4634(3)
O4 O -0.0123(4) -1.0677(2) 0.7165(3)
O5 O 0.0341(4) -0.9770(2) 0.6393(3)
O6 O -0.0591(4) -1.1011(2) 0.5068(3)
H1 H 0.020(3) -1.103(4) 0.540(3)
H2 H -0.047(6) -1.080(3) 0.459(2)
N1 N -1.2062(4) -0.6220(2) 0.8724(3)
N2 N -0.8471(4) -0.7930(2) 0.8285(4)
N3 N -0.5944(4) -0.7876(2) 0.7841(3)
N4 N -0.2706(4) -0.9411(2) 0.6688(3)
C1 C -0.2737(5) -0.9840(3) 0.4152(4)
C2 C 0.3052(4) -1.0289(2) 0.6829(3)
C3 C -0.4357(5) -0.9644(3) 0.2753(4)
H4 H -0.5018 -0.9719 0.3082
C4 C -0.4698(5) -0.9467(3) 0.1850(4)
H5 H -0.5587 -0.9403 0.1577
C5 C -0.3760(5) -0.9385(3) 0.1358(4)
C6 C -0.2462(5) -0.9466(3) 0.1776(3)
H6 H -0.1807 -0.9408 0.1439
C7 C 0.2100(4) -1.0372(2) 0.7332(3)
C8 C 0.0674(5) -1.0270(2) 0.6936(3)
C9 C -0.4102(8) -0.9189(5) 0.0385(5)
H7 H -0.5009 -0.9321 0.0141
H8 H -0.3529 -0.9447 0.0064
H9 H -0.3992 -0.8671 0.0318
C10 C -1.1277(7) -0.6598(4) 0.9337(4)
H10 H -1.1196 -0.6466 0.9942
C11 C -1.0570(8) -0.7177(4) 0.9134(5)
H11 H -1.0030 -0.7439 0.9598
C12 C -1.0642(5) -0.7373(3) 0.8275(4)
C13 C -1.1451(5) -0.6990(3) 0.7649(4)
H12 H -1.1541 -0.7115 0.7041
C14 C -1.2148(5) -0.6419(3) 0.7883(4)
H13 H -1.2709 -0.6160 0.7428
C15 C -0.9899(5) -0.8008(3) 0.8020(5)
H14 H -1.0138 -0.8074 0.7369
H15 H -1.0167 -0.8445 0.8301
C16 C -0.7976(5) -0.7277(3) 0.7936(4)
H16 H -0.8252 -0.7268 0.7281
H17 H -0.8348 -0.6851 0.8176
C17 C -0.6525(5) -0.7250(3) 0.8189(4)
H18 H -0.6252 -0.7238 0.8845
H19 H -0.6209 -0.6806 0.7951
C18 C -0.6399(5) -0.8522(3) 0.8219(4)
H20 H -0.6012 -0.8950 0.7994
H21 H -0.6114 -0.8512 0.8873
C19 C -0.7860(5) -0.8571(3) 0.7976(5)
H22 H -0.8152 -0.9006 0.8248
H23 H -0.8140 -0.8614 0.7323
C20 C -0.4515(5) -0.7834(3) 0.8077(5)
H24 H -0.4233 -0.7351 0.7927
H25 H -0.4224 -0.7903 0.8725
C21 C -0.3576(7) -0.8940(4) 0.6263(4)
H26 H 1.1194 -0.6038 0.0634
C22 C -0.4145(7) -0.8433(4) 0.6682(4)
H27 H 1.0266 -0.6899 0.1345
C23 C -0.3877(5) -0.8396(3) 0.7593(4)
C24 C -0.2997(5) -0.8872(3) 0.8026(4)
H28 H -0.2772 -0.8864 0.8656
C25 C 1.2574(5) -0.5633(3) 0.2564(4)
H29 H 1.3195 -0.5311 0.2888
Cd1A Cd -1.32092(3) -0.524930(19) 0.91047(2)
Cd1B Cd 0.17908(3) -0.975070(19) 0.41047(2)
Cd1C Cd 1.32092(3) -0.475070(19) 0.08953(2)
O1B O 0.3249(5) -0.9658(3) 0.5530(4)
O3B O 0.1959(4) -1.0577(3) 0.5366(3)
O4B O 0.0123(4) -0.9323(2) 0.2835(3)
O5B O -0.0341(4) -1.0230(2) 0.3607(3)
O6B O 0.0591(4) -0.8989(2) 0.4932(3)
H1B H -0.020(3) -0.897(4) 0.460(3)
H2B H 0.047(6) -0.920(3) 0.541(2)
N1A N -0.2938(4) -1.1220(2) 0.6276(3)
N1C N 0.2938(4) -0.8780(2) 0.3724(3)
N2C N 0.6529(4) -0.7070(2) 0.3285(4)
N3C N 0.9056(4) -0.7124(2) 0.2841(3)
N4C N 1.2294(4) -0.5589(2) 0.1688(3)
N4B N 0.2706(4) -1.0589(2) 0.3312(3)
C1B C 0.2737(5) -1.0160(3) 0.5848(4)
C2B C -0.3052(4) -0.9711(2) 0.3171(3)
C3B C 0.4357(5) -1.0356(3) 0.7247(4)
H4B H 0.5018 -1.0281 0.6918
C4B C 0.4698(5) -1.0533(3) 0.8150(4)
H5B H 0.5587 -1.0597 0.8423
C5B C 0.3760(5) -1.0615(3) 0.8642(4)
C6B C 0.2462(5) -1.0534(3) 0.8224(3)
H6B H 0.1807 -1.0592 0.8561
C7B C -0.2100(4) -0.9628(2) 0.2668(3)
C8B C -0.0674(5) -0.9730(2) 0.3064(3)
C9B C 0.4102(8) -1.0811(5) 0.9615(5)
H7B H 0.5009 -1.0679 0.9859
H8B H 0.3529 -1.0553 0.9936
H9B H 0.3992 -1.1329 0.9682
C10C C 0.3723(7) -0.8402(4) 0.4337(4)
H10C H 0.3804 -0.8534 0.4942
C11C C 0.4430(8) -0.7823(4) 0.4134(5)
H11C H 0.4970 -0.7561 0.4598
C12C C 0.4358(5) -0.7627(3) 0.3275(4)
C13C C 0.3549(5) -0.8010(3) 0.2649(4)
H12C H 0.3459 -0.7885 0.2041
C14C C 0.2852(5) -0.8581(3) 0.2883(4)
H13C H 0.2291 -0.8840 0.2428
C15C C 0.5101(5) -0.6992(3) 0.3020(5)
H14C H 0.4862 -0.6926 0.2369
H15C H 0.4833 -0.6555 0.3301
C16C C 0.7024(5) -0.7723(3) 0.2936(4)
H16C H 0.6748 -0.7732 0.2281
H17C H 0.6652 -0.8149 0.3176
C17C C 0.8475(5) -0.7750(3) 0.3189(4)
H18C H 0.8748 -0.7762 0.3845
H19C H 0.8791 -0.8194 0.2951
C18C C 0.8601(5) -0.6478(3) 0.3219(4)
H20C H 0.8988 -0.6050 0.2994
H21C H 0.8886 -0.6488 0.3873
C19C C 0.7140(5) -0.6429(3) 0.2976(5)
H22C H 0.6848 -0.5994 0.3248
H23C H 0.6860 -0.6386 0.2323
C20C C 1.0485(5) -0.7166(3) 0.3077(5)
H24C H 1.0767 -0.7649 0.2927
H25C H 1.0776 -0.7097 0.3725
C21C C 1.1424(7) -0.6060(4) 0.1263(4)
H26C H -0.3806 -0.8962 0.5634
C22C C 1.0855(7) -0.6567(4) 0.1682(4)
H27C H -0.4734 -0.8101 0.6345
C23C C 1.1123(5) -0.6604(3) 0.2593(4)
C24C C 1.2003(5) -0.6128(3) 0.3026(4)
H28C H 1.2228 -0.6136 0.3656
C25C C -0.2426(5) -0.9367(3) 0.7564(4)
H29C H -0.1805 -0.9689 0.7888
H3? H -0.677(12) -0.296(7) 0.620(9)
loop_
_geom_bond_atom_site_label_1
_geom_bond_atom_site_label_2
_geom_bond_site_symmetry_1
_geom_bond_site_symmetry_2
Cd1 O1 1_555 1_555
Cl1 O7 1_555 1_555
O1 C1 1_555 1_555
O3 Cd1 1_555 1_555
O4 Cd1 1_555 1_555
O5 Cd1 1_555 1_555
O6 Cd1 1_555 1_555
H1 O6 1_555 1_555
H2 O6 1_555 1_555
O7 Cl1B 1_555 1_555
O8 Cl1 1_555 1_555
O9 Cl1 1_555 1_555
N1 C10 1_555 1_555
N2 C15 1_555 1_555
N3 C17 1_555 1_555
N4 Cd1 1_555 1_555
C1 O3 1_555 1_555
C2 C7 1_555 1_555
C3 H4 1_555 1_555
C4 C3 1_555 1_555
H5 C4 1_555 1_555
C5 C4 1_555 1_555
C6 C5 1_555 1_555
H6 C6 1_555 1_555
C7 C8 1_555 1_555
C8 O4 1_555 1_555
C9 C5 1_555 1_555
H7 C9 1_555 1_555
H8 C9 1_555 1_555
H9 C9 1_555 1_555
C10 H10 1_555 1_555
C11 C10 1_555 1_555
H11 C11 1_555 1_555
C12 C11 1_555 1_555
C13 C12 1_555 1_555
H12 C13 1_555 1_555
C14 N1 1_555 1_555
H13 C14 1_555 1_555
C15 C12 1_555 1_555
H14 C15 1_555 1_555
H15 C15 1_555 1_555
C16 N2 1_555 1_555
H16 C16 1_555 1_555
H17 C16 1_555 1_555
C17 C16 1_555 1_555
H18 C17 1_555 1_555
H19 C17 1_555 1_555
C18 N3 1_555 1_555
H20 C18 1_555 1_555
H21 C18 1_555 1_555
C19 N2 1_555 1_555
H22 C19 1_555 1_555
H23 C19 1_555 1_555
C20 N3 1_555 1_555
H24 C20 1_555 1_555
H25 C20 1_555 1_555
C21 N4 1_555 1_555
H26 C21C 1_555 1_555
C22 C21 1_555 1_555
H27 C22C 1_555 1_555
C23 C20 1_555 1_555
C24 C23 1_555 1_555
H28 C24 1_555 1_555
C25 H29 1_555 1_555
Cd1A N1 1_555 1_555
Cd1B O1B 1_555 1_555
Cd1C N4C 1_555 1_555
Cl1B Cl1 1_555 1_555
O1B C1B 1_555 1_555
O3B Cd1B 1_555 1_555
O4B Cd1B 1_555 1_555
O5B Cd1B 1_555 1_555
O6B Cd1B 1_555 1_555
H1B O6B 1_555 1_555
H2B O6B 1_555 1_555
O7B Cl1 1_555 1_555
O8B Cl1B 1_555 1_555
O9B Cl1B 1_555 1_555
N1A Cd1 1_555 1_555
N1C Cd1B 1_555 1_555
N2C C15C 1_555 1_555
N3C C17C 1_555 1_555
N4C C25 1_555 1_555
N4B Cd1B 1_555 1_555
C1B C2 1_555 1_555
C2B C1 1_555 1_555
C3B C2 1_555 1_555
H4B C3B 1_555 1_555
C4B C3B 1_555 1_555
H5B C4B 1_555 1_555
C5B C4B 1_555 1_555
C6B C7 1_555 1_555
H6B C6B 1_555 1_555
C7B C6 1_555 1_555
C8B O4B 1_555 1_555
C9B C5B 1_555 1_555
H7B C9B 1_555 1_555
H8B C9B 1_555 1_555
H9B C9B 1_555 1_555
C10C N1C 1_555 1_555
H10C C10C 1_555 1_555
C11C C10C 1_555 1_555
H11C C11C 1_555 1_555
C12C C11C 1_555 1_555
C13C C12C 1_555 1_555
H12C C13C 1_555 1_555
C14C N1C 1_555 1_555
H13C C14C 1_555 1_555
C15C C12C 1_555 1_555
H14C C15C 1_555 1_555
H15C C15C 1_555 1_555
C16C N2C 1_555 1_555
H16C C16C 1_555 1_555
H17C C16C 1_555 1_555
C17C C16C 1_555 1_555
H18C C17C 1_555 1_555
H19C C17C 1_555 1_555
C18C N3C 1_555 1_555
H20C C18C 1_555 1_555
H21C C18C 1_555 1_555
C19C N2C 1_555 1_555
H22C C19C 1_555 1_555
H23C C19C 1_555 1_555
C20C N3C 1_555 1_555
H24C C20C 1_555 1_555
H25C C20C 1_555 1_555
C21C N4C 1_555 1_555
H26C C21 1_555 1_555
C22C C21C 1_555 1_555
H27C C22 1_555 1_555
C23C C20C 1_555 1_555
C24C C25 1_555 1_555
H28C C24C 1_555 1_555
C25C N4 1_555 1_555
H29C C25C 1_555 1_555
O5 C8 1_555 1_555
C3 C2B 1_555 1_555
C13 C14 1_555 1_555
C18 C19 1_555 1_555
C22 C23 1_555 1_555
C24 C25C 1_555 1_555
Cl1B O7B 1_555 1_555
O3B C1B 1_555 1_555
O5B C8B 1_555 1_555
C2B C7B 1_555 1_555
C5B C6B 1_555 1_555
C7B C8B 1_555 1_555
C13C C14C 1_555 1_555
C18C C19C 1_555 1_555
C22C C23C 1_555 1_555
C23C C24C 1_555 1_555

#END
