
#######################################################################
#
#                 Cambridge Crystallographic Data Centre
#                                CCDC 
#
#######################################################################
#
# If this CIF has been generated from an entry in the Cambridge 
# Structural Database, then it will include bibliographic, chemical, 
# crystal, experimental, refinement or atomic coordinate data resulting 
# from the CCDC's data processing and validation procedures.
#
#######################################################################

data_TAHQAW
_symmetry_cell_setting           tetragonal
_symmetry_space_group_name_H-M   'I 41/a'
_symmetry_Int_Tables_number      88
_space_group_name_Hall           '-I 4ad'
loop_
_symmetry_equiv_pos_site_id
_symmetry_equiv_pos_as_xyz
1 x,y,z
2 1/4-y,3/4+x,3/4+z
3 1/4+y,1/4-x,1/4+z
4 -x,1/2-y,z
5 1/2+x,1/2+y,1/2+z
6 3/4-y,1/4+x,1/4+z
7 3/4+y,3/4-x,3/4+z
8 1/2-x,-y,1/2+z
9 -x,-y,-z
10 3/4+y,1/4-x,1/4-z
11 3/4-y,3/4+x,3/4-z
12 x,1/2+y,-z
13 1/2-x,1/2-y,1/2-z
14 1/4+y,3/4-x,3/4-z
15 1/4-y,1/4+x,1/4-z
16 1/2+x,y,1/2-z
_cell_length_a                   16.224(3)
_cell_length_b                   16.224(3)
_cell_length_c                   18.724(3)
_cell_angle_alpha                90
_cell_angle_beta                 90
_cell_angle_gamma                90
_cell_volume                     4928.5
loop_
_atom_site_label
_atom_site_type_symbol
_atom_site_fract_x
_atom_site_fract_y
_atom_site_fract_z
Cu1 Cu 1.0000 1.0000 0.0000
O1 O 1.0168(2) 0.9005(3) 0.0548(3)
O2 O 1.0038(3) 0.9688(3) 0.1575(4)
O3 O 0.6220(2) 0.9439(3) 0.1448(2)
N1 N 0.8788(3) 0.9877(3) 0.0126(3)
N2 N 0.5654(2) 0.9631(3) 0.0369(2)
C1 C 1.0093(3) 0.9038(3) 0.1209(5)
C2 C 1.0059(3) 0.8234(3) 0.1603(3)
C3 C 1.0000 0.7500 0.1237(4)
H3 H 1.0000 0.7500 0.0729
C4 C 1.0071(4) 0.8221(5) 0.2353(4)
H4 H 1.0129 0.8722 0.2611
C5 C 1.0000 0.7500 0.2709(6)
H5 H 1.0000 0.7500 0.3217
C6 C 0.8414(3) 0.9147(3) 0.0082(3)
H6 H 0.8726 0.8685 -0.0074
C7 C 0.7603(3) 0.9033(3) 0.0251(3)
H7 H 0.7355 0.8508 0.0188
C8 C 0.7145(3) 0.9681(3) 0.0511(3)
C9 C 0.7526(3) 1.0436(3) 0.0535(4)
H8 H 0.7229 1.0909 0.0687
C10 C 0.8335(4) 1.0505(3) 0.0337(4)
H9 H 0.8584 1.1035 0.0353
C11 C 0.6294(3) 0.9571(3) 0.0807(3)
C12 C 0.5193(3) 1.0433(3) -0.0648(3)
H10 H 0.5448 1.0950 -0.0476
H11 H 0.5178 1.0450 -0.1177
C13 C 0.5698(3) 0.9714(3) -0.0409(3)
H12 H 0.5491 0.9204 -0.0638
H13 H 0.6279 0.9794 -0.0557
Cu1_2 Cu 0.0000 1.0000 0.0000
Cu1C Cu 1.0000 0.5000 0.0000
O1C O 0.9832(2) 0.5995(3) 0.0548(3)
O1H O 0.9832(2) 1.0995(3) -0.0548(3)
O2C O 0.9962(3) 0.5312(3) 0.1575(4)
O3H O 0.3780(2) 1.0561(3) -0.1448(2)
N1H N 0.1212(3) 1.0123(3) -0.0126(3)
N1H_2 N 1.1212(3) 1.0123(3) -0.0126(3)
N2H N 0.4346(2) 1.0369(3) -0.0369(2)
C1C C 0.9907(3) 0.5962(3) 0.1209(5)
C2C C 0.9941(3) 0.6766(3) 0.1603(3)
C4C C 0.9929(4) 0.6779(5) 0.2353(4)
H4C H 0.9871 0.6278 0.2611
C6H C 0.1586(3) 1.0853(3) -0.0082(3)
H6H H 0.1274 1.1315 0.0074
C7H C 0.2397(3) 1.0967(3) -0.0251(3)
H7H H 0.2645 1.1492 -0.0188
C8H C 0.2855(3) 1.0319(3) -0.0511(3)
C9H C 0.2474(3) 0.9564(3) -0.0535(4)
H8H H 0.2771 0.9091 -0.0687
C10H C 0.1665(4) 0.9495(3) -0.0337(4)
H9H H 0.1416 0.8965 -0.0353
C11H C 0.3706(3) 1.0429(3) -0.0807(3)
C12H C 0.4807(3) 0.9567(3) 0.0648(3)
H10H H 0.4552 0.9050 0.0476
H11H H 0.4822 0.9550 0.1177
C13H C 0.4302(3) 1.0286(3) 0.0409(3)
H12H H 0.4509 1.0796 0.0638
H13H H 0.3721 1.0206 0.0557
O4 O 1.0096(3) 1.1261(3) 0.1170(3)
H1 H 0.989(5) 1.155(3) 0.152(3)
H2 H 1.004(5) 1.0769(17) 0.133(3)
loop_
_geom_bond_atom_site_label_1
_geom_bond_atom_site_label_2
_geom_bond_site_symmetry_1
_geom_bond_site_symmetry_2
Cu1 O1 1_555 1_555
O1 C1 1_555 1_555
O2 C1 1_555 1_555
O3 C11 1_555 1_555
O4 H1 1_555 1_555
H2 O4 1_555 1_555
N1 Cu1 1_555 1_555
N2 C11 1_555 1_555
C1 C2 1_555 1_555
C2 C3 1_555 1_555
C3 H3 1_555 1_555
C4 C2 1_555 1_555
H4 C4 1_555 1_555
C5 C4 1_555 1_555
H5 C5 1_555 1_555
C6 N1 1_555 1_555
H6 C6 1_555 1_555
C7 C6 1_555 1_555
H7 C7 1_555 1_555
C8 C7 1_555 1_555
C9 C8 1_555 1_555
H8 C9 1_555 1_555
C10 N1 1_555 1_555
H9 C10 1_555 1_555
C11 C8 1_555 1_555
C12 H10 1_555 1_555
H11 C12 1_555 1_555
C13 N2 1_555 1_555
H12 C13 1_555 1_555
H13 C13 1_555 1_555
Cu1_2 N1H 1_555 1_555
Cu1C O1C 1_555 1_555
O1C C1C 1_555 1_555
O1H Cu1 1_555 1_555
O2C C1C 1_555 1_555
O3H C11H 1_555 1_555
N1H C6H 1_555 1_555
N1H_2 Cu1 1_555 1_555
N2H C12 1_555 1_555
C1C C2C 1_555 1_555
C2C C3 1_555 1_555
C4C C5 1_555 1_555
H4C C4C 1_555 1_555
C6H H6H 1_555 1_555
C7H C6H 1_555 1_555
H7H C7H 1_555 1_555
C8H C7H 1_555 1_555
C9H C8H 1_555 1_555
H8H C9H 1_555 1_555
C10H N1H 1_555 1_555
H9H C10H 1_555 1_555
C11H N2H 1_555 1_555
C12H N2 1_555 1_555
H10H C12H 1_555 1_555
H11H C12H 1_555 1_555
C13H N2H 1_555 1_555
H12H C13H 1_555 1_555
H13H C13H 1_555 1_555
C9 C10 1_555 1_555
C12 C13 1_555 1_555
C2C C4C 1_555 1_555
C8H C11H 1_555 1_555
C9H C10H 1_555 1_555
C12H C13H 1_555 1_555

#END
