
#######################################################################
#
#                 Cambridge Crystallographic Data Centre
#                                CCDC 
#
#######################################################################
#
# If this CIF has been generated from an entry in the Cambridge 
# Structural Database, then it will include bibliographic, chemical, 
# crystal, experimental, refinement or atomic coordinate data resulting 
# from the CCDC's data processing and validation procedures.
#
#######################################################################

data_TAHVIJ
_symmetry_cell_setting           monoclinic
_symmetry_space_group_name_H-M   'C 2/c'
_symmetry_Int_Tables_number      15
_space_group_name_Hall           '-C 2yn'
loop_
_symmetry_equiv_pos_site_id
_symmetry_equiv_pos_as_xyz
1 x,y,z
2 -x,y,1/2-z
3 1/2+x,1/2+y,z
4 1/2-x,1/2+y,1/2-z
5 -x,-y,-z
6 x,-y,1/2+z
7 1/2-x,1/2-y,-z
8 1/2+x,1/2-y,1/2+z
_cell_length_a                   22.8880(11)
_cell_length_b                   6.1072(2)
_cell_length_c                   13.4816(7)
_cell_angle_alpha                90
_cell_angle_beta                 92.934(3)
_cell_angle_gamma                90
_cell_volume                     1882.01
loop_
_atom_site_label
_atom_site_type_symbol
_atom_site_fract_x
_atom_site_fract_y
_atom_site_fract_z
C1 C 0.10063(7) 0.1804(3) 0.85682(11)
C2 C 0.14314(7) 0.3537(3) 0.89942(11)
H1 H 0.1784 0.3524 0.8625
H2 H 0.1254 0.4974 0.8919
C3 C 0.15895(6) 0.3117(2) 1.00846(11)
H3 H 0.1832 0.1795 1.0143
C4 C 0.09339(7) 0.1182(3) 1.12488(12)
H4 H 0.1183 0.0032 1.1434
C5 C 0.02184(8) 0.3343(3) 1.11065(15)
H5 H -0.0146 0.3972 1.1193
C6 C 0.24239(7) 0.6554(3) 1.16296(13)
H6 H 0.2684 0.6832 1.2167
C7 C 0.18290(7) 0.7098(3) 1.04265(12)
H7 H 0.1581 0.774 0.9942
N1 N 0.06068(7) 0.4199(3) 1.05354(13)
N2 N 0.10597(5) 0.2782(2) 1.06397(9)
N3 N 0.03970(5) 0.1463(2) 1.15569(9)
N4 N 0.22969(6) 0.4549(2) 1.13238(10)
N5 N 0.19125(5) 0.4933(2) 1.05351(9)
N6 N 0.21475(6) 0.8183(2) 1.11038(11)
O1 O 0.06081(5) 0.25530(18) 0.79660(9)
O2 O 0.10621(6) -0.01277(19) 0.88111(9)
Zn1 Zn 0.00000 -0.05110(4) 1.25000
C1A C -0.10063(7) 0.1804(3) 1.64318(11)
C2A C -0.14314(7) 0.3537(3) 1.60058(11)
H1A H -0.1784 0.3524 1.6375
H2A H -0.1254 0.4974 1.6081
C3A C -0.15895(6) 0.3117(2) 1.49154(11)
H3A H -0.1832 0.1795 1.4857
C4A C -0.09339(7) 0.1182(3) 1.37512(12)
H4A H -0.1183 0.0032 1.3566
C5A C -0.02184(8) 0.3343(3) 1.38935(15)
H5A H 0.0146 0.3972 1.3807
C6A C -0.24239(7) 0.6554(3) 1.33704(13)
H6A H -0.2684 0.6832 1.2833
C7A C -0.18290(7) 0.7098(3) 1.45735(12)
H7A H -0.1581 0.774 1.5058
N1A N -0.06068(7) 0.4199(3) 1.44646(13)
N2A N -0.10597(5) 0.2782(2) 1.43603(9)
N3A N -0.03970(5) 0.1463(2) 1.34431(9)
N4A N -0.22969(6) 0.4549(2) 1.36762(10)
N5A N -0.19125(5) 0.4933(2) 1.44649(9)
N6A N -0.21475(6) 0.8183(2) 1.38962(11)
O1A O -0.06081(5) 0.25530(18) 1.70340(9)
O1D O -0.06081(5) -0.25530(18) 1.20340(9)
O1E O 0.06081(5) -0.25530(18) 1.29660(9)
O2A O -0.10621(6) -0.01277(19) 1.61889(9)
Zn1D Zn 0.00000 0.05110(4) 0.75000
Zn1D_2 Zn 0.00000 0.05110(4) 1.75000
loop_
_geom_bond_atom_site_label_1
_geom_bond_atom_site_label_2
_geom_bond_site_symmetry_1
_geom_bond_site_symmetry_2
C1 C2 1_555 1_555
C2 H1 1_555 1_555
H2 C2 1_555 1_555
C3 C2 1_555 1_555
H3 C3 1_555 1_555
C4 H4 1_555 1_555
C5 H5 1_555 1_555
C6 H6 1_555 1_555
C7 H7 1_555 1_555
N1 C5 1_555 1_555
N2 C3 1_555 1_555
N3 C4 1_555 1_555
N4 C6 1_555 1_555
N5 C3 1_555 1_555
N6 C6 1_555 1_555
O1 C1 1_555 1_555
O2 C1 1_555 1_555
Zn1 N3 1_555 1_555
C1A C2A 1_555 1_555
C2A H1A 1_555 1_555
H2A C2A 1_555 1_555
C3A C2A 1_555 1_555
H3A C3A 1_555 1_555
C4A H4A 1_555 1_555
C5A H5A 1_555 1_555
C6A H6A 1_555 1_555
C7A H7A 1_555 1_555
N1A C5A 1_555 1_555
N2A C3A 1_555 1_555
N3A Zn1 1_555 1_555
N4A C6A 1_555 1_555
N5A C3A 1_555 1_555
N6A C6A 1_555 1_555
O1A C1A 1_555 1_555
O1D Zn1 1_555 1_555
O1E Zn1 1_555 1_555
O2A C1A 1_555 1_555
Zn1D O1 1_555 1_555
Zn1D_2 O1A 1_555 1_555
C4 N2 1_555 1_555
C5 N3 1_555 1_555
C7 N5 1_555 1_555
C7 N6 1_555 1_555
N1 N2 1_555 1_555
N4 N5 1_555 1_555
C4A N2A 1_555 1_555
C4A N3A 1_555 1_555
C5A N3A 1_555 1_555
C7A N5A 1_555 1_555
C7A N6A 1_555 1_555
N1A N2A 1_555 1_555
N4A N5A 1_555 1_555

#END
