
#######################################################################
#
#                 Cambridge Crystallographic Data Centre
#                                CCDC 
#
#######################################################################
#
# If this CIF has been generated from an entry in the Cambridge 
# Structural Database, then it will include bibliographic, chemical, 
# crystal, experimental, refinement or atomic coordinate data resulting 
# from the CCDC's data processing and validation procedures.
#
#######################################################################

data_TAHVOP
_symmetry_cell_setting           triclinic
_symmetry_space_group_name_H-M   'P -1'
_symmetry_Int_Tables_number      2
_space_group_name_Hall           '-P 1'
loop_
_symmetry_equiv_pos_site_id
_symmetry_equiv_pos_as_xyz
1 x,y,z
2 -x,-y,-z
_cell_length_a                   7.7640(4)
_cell_length_b                   8.0636(4)
_cell_length_c                   8.2794(5)
_cell_angle_alpha                108.605(3)
_cell_angle_beta                 104.916(5)
_cell_angle_gamma                92.918(4)
_cell_volume                     469.662
loop_
_atom_site_label
_atom_site_type_symbol
_atom_site_fract_x
_atom_site_fract_y
_atom_site_fract_z
C1 C 0.2882(2) 0.74482(19) 0.8908(2)
C2 C 0.3028(2) 0.62258(19) 0.71137(19)
H1 H 0.1937 0.6155 0.6188
H2 H 0.4029 0.6732 0.6838
C3 C 0.3305(2) 0.43739(19) 0.71107(19)
H3 H 0.4486 0.4432 0.7934
C4 C 0.3628(2) 0.0915(2) 0.3445(2)
H4 H 0.4076 -0.0101 0.2909
C5 C 0.2039(2) 0.2981(2) 0.37605(19)
H5 H 0.1187 0.3721 0.357
C6 C -0.0638(2) 0.2938(2) 0.7883(2)
H6 H -0.1862 0.2873 0.7783
C7 C 0.2070(2) 0.2503(2) 0.8585(2)
H7 H 0.3133 0.2108 0.9031
Mn1 Mn 0.00000 0.00000 0.00000
N1 N 0.42738(18) 0.18637(17) 0.51435(17)
N2 N 0.32481(17) 0.32064(16) 0.53244(16)
N3 N 0.22395(17) 0.15462(17) 0.25289(17)
N4 N 0.01678(19) 0.38940(19) 0.7190(2)
N5 N 0.19135(17) 0.36102(16) 0.76720(16)
N6 N 0.04773(18) 0.20502(17) 0.87592(17)
O1 O 0.18579(16) 0.86059(15) 0.87918(15)
O2 O 0.37619(15) 0.72396(16) 1.02867(15)
C1A C -0.2882(2) -0.74482(19) -0.8908(2)
C2A C -0.3028(2) -0.62258(19) -0.71137(19)
H1A H -0.1937 -0.6155 -0.6188
H2A H -0.4029 -0.6732 -0.6838
C3A C -0.3305(2) -0.43739(19) -0.71107(19)
H3A H -0.4486 -0.4432 -0.7934
C4A C -0.3628(2) -0.0915(2) -0.3445(2)
H4A H -0.4076 0.0101 -0.2909
C5A C -0.2039(2) -0.2981(2) -0.37605(19)
H5A H -0.1187 -0.3721 -0.357
C6A C 0.0638(2) -0.2938(2) -0.7883(2)
H6A H 0.1862 -0.2873 -0.7783
C7A C -0.2070(2) -0.2503(2) -0.8585(2)
H7A H -0.3133 -0.2108 -0.9031
Mn1_2 Mn 0.00000 0.00000 1.00000
Mn1_3 Mn 0.00000 1.00000 1.00000
Mn1_4 Mn 0.00000 0.00000 -1.00000
Mn1_5 Mn 0.00000 -1.00000 -1.00000
N1A N -0.42738(18) -0.18637(17) -0.51435(17)
N2A N -0.32481(17) -0.32064(16) -0.53244(16)
N3A N -0.22395(17) -0.15462(17) -0.25289(17)
N4A N -0.01678(19) -0.38940(19) -0.7190(2)
N5A N -0.19135(17) -0.36102(16) -0.76720(16)
N6A N -0.04773(18) -0.20502(17) -0.87592(17)
N6_2 N 0.04773(18) 0.20502(17) -0.12408(17)
N6A_2 N -0.04773(18) -0.20502(17) 0.12408(17)
O1A O -0.18579(16) -0.86059(15) -0.87918(15)
O1_2 O 0.18579(16) -0.13941(15) -0.12082(15)
O1A_2 O -0.18579(16) 0.13941(15) 0.12082(15)
O2A O -0.37619(15) -0.72396(16) -1.02867(15)
loop_
_geom_bond_atom_site_label_1
_geom_bond_atom_site_label_2
_geom_bond_site_symmetry_1
_geom_bond_site_symmetry_2
C1 C2 1_555 1_555
C2 H1 1_555 1_555
H2 C2 1_555 1_555
C3 C2 1_555 1_555
H3 C3 1_555 1_555
C4 H4 1_555 1_555
C5 H5 1_555 1_555
C6 H6 1_555 1_555
C7 H7 1_555 1_555
Mn1 N3 1_555 1_555
N1 C4 1_555 1_555
N2 C3 1_555 1_555
N3 C4 1_555 1_555
N4 C6 1_555 1_555
N5 C3 1_555 1_555
N6 C6 1_555 1_555
O1 C1 1_555 1_555
O2 C1 1_555 1_555
C1A C2A 1_555 1_555
C2A H1A 1_555 1_555
H2A C2A 1_555 1_555
C3A C2A 1_555 1_555
H3A C3A 1_555 1_555
C4A H4A 1_555 1_555
C5A H5A 1_555 1_555
C6A H6A 1_555 1_555
C7A H7A 1_555 1_555
Mn1_2 N6 1_555 1_555
Mn1_3 O1 1_555 1_555
Mn1_4 N6A 1_555 1_555
Mn1_5 O1A 1_555 1_555
N1A C4A 1_555 1_555
N2A C3A 1_555 1_555
N3A Mn1 1_555 1_555
N4A C6A 1_555 1_555
N5A C3A 1_555 1_555
N6A C6A 1_555 1_555
N6_2 Mn1 1_555 1_555
N6A_2 Mn1 1_555 1_555
O1A C1A 1_555 1_555
O1_2 Mn1 1_555 1_555
O1A_2 Mn1 1_555 1_555
O2A C1A 1_555 1_555
C5 N2 1_555 1_555
C5 N3 1_555 1_555
C7 N5 1_555 1_555
C7 N6 1_555 1_555
N1 N2 1_555 1_555
N4 N5 1_555 1_555
C4A N3A 1_555 1_555
C5A N2A 1_555 1_555
C5A N3A 1_555 1_555
C7A N5A 1_555 1_555
C7A N6A 1_555 1_555
N1A N2A 1_555 1_555
N4A N5A 1_555 1_555

#END
