
#######################################################################
#
#                 Cambridge Crystallographic Data Centre
#                                CCDC 
#
#######################################################################
#
# If this CIF has been generated from an entry in the Cambridge 
# Structural Database, then it will include bibliographic, chemical, 
# crystal, experimental, refinement or atomic coordinate data resulting 
# from the CCDC's data processing and validation procedures.
#
#######################################################################

data_TAJLEX
_symmetry_cell_setting           monoclinic
_symmetry_space_group_name_H-M   'P 21/c'
_symmetry_Int_Tables_number      14
_space_group_name_Hall           '-P 2ybc'
loop_
_symmetry_equiv_pos_site_id
_symmetry_equiv_pos_as_xyz
1 x,y,z
2 -x,1/2+y,1/2-z
3 -x,-y,-z
4 x,1/2-y,1/2+z
_cell_length_a                   15.8679(2)
_cell_length_b                   15.0535(2)
_cell_length_c                   14.7390(2)
_cell_angle_alpha                90
_cell_angle_beta                 96.4010(10)
_cell_angle_gamma                90
_cell_volume                     3498.72
loop_
_atom_site_label
_atom_site_type_symbol
_atom_site_fract_x
_atom_site_fract_y
_atom_site_fract_z
Co1 Co 0.922148(10) 0.342871(11) 0.199639(13)
Co2 Co 0.417715(11) 0.202101(14) 0.184954(14)
Na1 Na 1.01491(5) -0.00009(4) 0.12815(5)
Na2 Na 0.58155(10) 0.53872(6) 0.14101(8)
O1 O 1.06604(8) 0.14476(8) 0.12589(12)
O2 O 0.91880(7) 0.07807(8) 0.20551(9)
O3 O 0.44503(15) 0.46527(11) 0.19814(16)
O4 O 0.58991(11) 0.38116(12) 0.13201(15)
O5 O 1.09791(8) -0.02582(10) 0.00507(10)
O6 O 0.5000 0.5000 0.0000
N1 N 1.02084(7) 0.37333(8) 0.14002(9)
N2 N 0.95842(7) 0.22510(7) 0.18304(8)
N3 N 0.83021(7) 0.28624(8) 0.25277(9)
N4 N 0.99066(9) 0.34772(8) 0.32130(10)
N5 N 0.99950(8) 0.27837(10) 0.36167(10)
N6 N 1.00858(15) 0.21214(13) 0.40012(15)
N7 N 0.85322(9) 0.34536(8) 0.07965(10)
N8 N 0.84954(8) 0.27812(9) 0.03701(9)
N9 N 0.84291(13) 0.21361(13) -0.00553(14)
N10 N 0.88961(9) 0.46550(8) 0.22249(12)
N11 N 0.82532(10) 0.49528(9) 0.18237(12)
N12 N 0.76304(14) 0.52480(15) 0.14685(17)
N13 N 0.33257(8) 0.26828(10) 0.23893(10)
N14 N 0.46820(9) 0.31444(9) 0.17520(10)
N15 N 0.51504(8) 0.16067(10) 0.12937(9)
N16 N 0.51942(9) 0.68313(11) 0.19293(10)
N17 N 0.50972(8) 0.74895(11) 0.14598(10)
N18 N 0.50031(13) 0.81121(16) 0.10058(14)
N19 N 0.64838(10) 0.78768(12) -0.06440(11)
N20 N 0.63989(9) 0.72292(12) -0.02056(10)
N21 N 0.63478(15) 0.66115(14) 0.02452(15)
N22 N 0.63158(10) 0.58471(10) 0.30037(12)
N23 N 0.68538(9) 0.55604(10) 0.35587(13)
N24 N 0.73639(15) 0.52584(18) 0.4068(2)
C1 C 1.04435(11) 0.45471(10) 0.11493(12)
H1 H 1.0126 0.5039 0.1285
C2 C 1.11531(12) 0.46650(13) 0.06907(13)
H2 H 1.1303 0.5232 0.0517
C3 C 1.16379(11) 0.39424(14) 0.04914(13)
H3 H 1.2115 0.4017 0.0186
C4 C 1.13965(10) 0.31001(13) 0.07587(12)
H4 H 1.1715 0.2602 0.0647
C5 C 1.06733(9) 0.30243(9) 0.11923(10)
C6 C 1.03179(9) 0.21415(9) 0.14282(11)
C7 C 0.90931(9) 0.15863(9) 0.21181(10)
C8 C 0.83543(9) 0.19662(9) 0.25377(10)
C9 C 0.77619(10) 0.14379(12) 0.28893(13)
H5 H 0.7822 0.0823 0.2897
C10 C 0.70735(10) 0.18344(15) 0.32322(15)
H6 H 0.6663 0.1491 0.3469
C11 C 0.70117(10) 0.27545(14) 0.32138(13)
H7 H 0.6553 0.3036 0.3433
C12 C 0.76410(9) 0.32513(12) 0.28651(12)
H8 H 0.7603 0.3868 0.2866
C13 C 0.26572(10) 0.23569(15) 0.27681(14)
H9 H 0.2561 0.1747 0.2768
C14 C 0.21076(13) 0.2925(2) 0.31602(19)
H10 H 0.1648 0.2693 0.3422
C15 C 0.22416(15) 0.3831(2) 0.3162(2)
H11 H 0.1872 0.4213 0.3417
C16 C 0.29338(15) 0.41608(17) 0.2779(2)
H12 H 0.3038 0.4768 0.2771
C17 C 0.34666(12) 0.35723(12) 0.24078(14)
C18 C 0.42581(13) 0.38633(13) 0.20152(15)
C19 C 0.54535(12) 0.31666(15) 0.14070(14)
C20 C 0.57029(10) 0.22625(15) 0.11401(12)
C21 C 0.64476(12) 0.20865(19) 0.07585(15)
H13 H 0.6825 0.2543 0.0671
C22 C 0.66178(13) 0.1236(2) 0.05141(16)
H14 H 0.7110 0.1107 0.0252
C23 C 0.60461(13) 0.05675(18) 0.06615(14)
H15 H 0.6150 -0.0014 0.0494
C24 C 0.53197(12) 0.07727(14) 0.10604(13)
H16 H 0.4943 0.0322 0.1168
Co1A Co 1.077852(10) 0.842871(11) 0.300361(13)
Co1A_2 Co 1.077852(10) -0.157129(11) 0.300361(13)
Co2A Co 0.582285(11) 0.702101(14) 0.315046(14)
Co2B Co 0.582285(11) 0.797899(14) -0.184954(14)
Na1A Na 0.98509(5) 0.49991(4) 0.37185(5)
Na1B Na 0.98509(5) 0.00009(4) -0.12815(5)
Na1C Na 1.01491(5) 0.50009(4) 0.62815(5)
Na2A Na 1.41845(10) 0.03872(6) 0.35899(8)
Na2B Na 0.41845(10) 0.46128(6) -0.14101(8)
Na2A_2 Na 0.41845(10) 0.03872(6) 0.35899(8)
Na2A_3 Na 0.41845(10) 1.03872(6) 0.35899(8)
O1A O 0.93396(8) 0.64476(8) 0.37411(12)
O2A O 1.08120(7) 0.57807(8) 0.29449(9)
O3A O 0.55497(15) 0.96527(11) 0.30186(16)
O3A_2 O 1.55497(15) -0.03473(11) 0.30186(16)
O4A O 0.41009(11) 0.88116(12) 0.36799(15)
O4A_2 O 1.41009(11) -0.11884(12) 0.36799(15)
O5B O 0.90209(8) 0.02582(10) -0.00507(10)
O5A O 0.90209(8) 0.47418(10) 0.49493(10)
O5C O 1.09791(8) 0.52582(10) 0.50507(10)
O6A O 1.5000 0.0000 0.5000
N1A N 0.97916(7) 0.87333(8) 0.35998(9)
N2A N 1.04158(7) 0.72510(7) 0.31696(8)
N3A N 1.16979(7) 0.78624(8) 0.24723(9)
N4A N 1.00934(9) -0.15228(8) 0.17870(10)
N4A_2 N 1.00934(9) 0.84772(8) 0.17870(10)
N5A N 1.00050(8) -0.22163(10) 0.13833(10)
N6A N 0.99142(15) -0.28786(13) 0.09988(15)
N7A N 1.14678(9) 0.84536(8) 0.42035(10)
N8A N 1.15046(8) 0.77812(9) 0.46299(9)
N9A N 1.15709(13) 0.71361(13) 0.50553(14)
N10A N 1.11039(9) -0.03450(8) 0.27751(12)
N10A_2 N 1.11039(9) 0.96550(8) 0.27751(12)
N11A N 1.17468(10) -0.00472(9) 0.31763(12)
N12A N 1.23696(14) 0.02480(15) 0.35315(17)
N13A N 0.66743(8) 0.76828(10) 0.26107(10)
N14A N 0.53180(9) 0.81444(9) 0.32480(10)
N15A N 0.48496(8) 0.66067(10) 0.37063(9)
N16A N 0.48058(9) 0.18313(11) 0.30707(10)
N16A_2 N 1.48058(9) 0.18313(11) 0.30707(10)
N17A N 0.49028(8) 0.24895(11) 0.35402(10)
N18A N 0.49969(13) 0.31121(16) 0.39942(14)
N19B N 0.35162(10) 0.21232(12) 0.06440(11)
N19C N 0.64838(10) 0.71232(12) 0.43560(11)
N20B N 0.36011(9) 0.27708(12) 0.02056(10)
N21B N 0.36522(15) 0.33885(14) -0.02452(15)
N21A N 1.36522(15) 0.16115(14) 0.47548(15)
N22A N 0.36842(10) 0.08471(10) 0.19963(12)
N22A_2 N 1.36842(10) 0.08471(10) 0.19963(12)
N23A N 0.31462(9) 0.05604(10) 0.14413(13)
N24A N 0.26361(15) 0.02584(18) 0.0932(2)
C1A C 0.95565(11) 0.95471(10) 0.38507(12)
H1A H 0.9874 1.0039 0.3715
C2A C 0.88469(12) 0.96650(13) 0.43093(13)
H2A H 0.8697 1.0232 0.4483
C3A C 0.83621(11) 0.89424(14) 0.45086(13)
H3A H 0.7885 0.9017 0.4814
C4A C 0.86035(10) 0.81001(13) 0.42413(12)
H4A H 0.8285 0.7602 0.4353
C5A C 0.93267(9) 0.80243(9) 0.38077(10)
C6A C 0.96821(9) 0.71415(9) 0.35718(11)
C7A C 1.09069(9) 0.65863(9) 0.28819(10)
C8A C 1.16457(9) 0.69662(9) 0.24623(10)
C9A C 1.22381(10) 0.64379(12) 0.21107(13)
H5A H 1.2178 0.5823 0.2103
C10A C 1.29265(10) 0.68344(15) 0.17678(15)
H6A H 1.3337 0.6491 0.1531
C11A C 1.29883(10) 0.77545(14) 0.17862(13)
H7A H 1.3447 0.8036 0.1567
C12A C 1.23590(9) 0.82513(12) 0.21349(12)
H8A H 1.2397 0.8868 0.2134
C13A C 0.73428(10) 0.73569(15) 0.22319(14)
H9A H 0.7439 0.6747 0.2232
C14A C 0.78924(13) 0.7925(2) 0.18398(19)
H10A H 0.8352 0.7693 0.1578
C15A C 0.77584(15) 0.8831(2) 0.1838(2)
H11A H 0.8128 0.9213 0.1583
C16A C 0.70662(15) 0.91608(17) 0.2221(2)
H12A H 0.6962 0.9768 0.2229
C17A C 0.65334(12) 0.85723(12) 0.25922(14)
C18A C 0.57419(13) 0.88633(13) 0.29848(15)
C19A C 0.45465(12) 0.81666(15) 0.35930(14)
C20A C 0.42971(10) 0.72625(15) 0.38599(12)
C21A C 0.35524(12) 0.70865(19) 0.42415(15)
H13A H 0.3175 0.7543 0.4329
C22A C 0.33822(13) 0.6236(2) 0.44859(16)
H14A H 0.2890 0.6107 0.4748
C23A C 0.39539(13) 0.55675(18) 0.43385(14)
H15A H 0.3850 0.4986 0.4506
C24A C 0.46803(12) 0.57727(14) 0.39396(13)
H16A H 0.5057 0.5322 0.3832
loop_
_geom_bond_atom_site_label_1
_geom_bond_atom_site_label_2
_geom_bond_site_symmetry_1
_geom_bond_site_symmetry_2
Co1 N1 1_555 1_555
Co2 N13 1_555 1_555
Na1 O1 1_555 1_555
Na2 O3 1_555 1_555
O1 C6 1_555 1_555
O2 Na1 1_555 1_555
O3 C18 1_555 1_555
O4 Na2 1_555 1_555
O5 Na1 1_555 1_555
O6 Na2 1_555 1_555
N1 C1 1_555 1_555
N2 Co1 1_555 1_555
N3 Co1 1_555 1_555
N4 Co1 1_555 1_555
N5 N4 1_555 1_555
N6 N5 1_555 1_555
N7 Co1 1_555 1_555
N8 N7 1_555 1_555
N9 N8 1_555 1_555
N10 Co1 1_555 1_555
N11 N10 1_555 1_555
N12 Na2 1_555 1_555
N13 C13 1_555 1_555
N14 Co2 1_555 1_555
N15 Co2 1_555 1_555
N16 Na2 1_555 1_555
N17 N16 1_555 1_555
N18 N17 1_555 1_555
N19 N20 1_555 1_555
N20 N21 1_555 1_555
N21 Na2 1_555 1_555
N22 Na2 1_555 1_555
N23 N22 1_555 1_555
N24 N23 1_555 1_555
C1 H1 1_555 1_555
C2 C1 1_555 1_555
H2 C2 1_555 1_555
C3 C2 1_555 1_555
H3 C3 1_555 1_555
C4 C3 1_555 1_555
H4 C4 1_555 1_555
C5 N1 1_555 1_555
C6 N2 1_555 1_555
C7 O2 1_555 1_555
C8 N3 1_555 1_555
C9 C8 1_555 1_555
H5 C9 1_555 1_555
C10 C9 1_555 1_555
H6 C10 1_555 1_555
C11 C10 1_555 1_555
H7 C11 1_555 1_555
C12 N3 1_555 1_555
H8 C12 1_555 1_555
C13 H9 1_555 1_555
C14 C13 1_555 1_555
H10 C14 1_555 1_555
C15 C14 1_555 1_555
H11 C15 1_555 1_555
C16 C15 1_555 1_555
H12 C16 1_555 1_555
C17 N13 1_555 1_555
C18 N14 1_555 1_555
C19 O4 1_555 1_555
C20 N15 1_555 1_555
C21 C20 1_555 1_555
H13 C21 1_555 1_555
C22 C21 1_555 1_555
H14 C22 1_555 1_555
C23 C22 1_555 1_555
H15 C23 1_555 1_555
C24 N15 1_555 1_555
H16 C24 1_555 1_555
Co1A N1A 1_555 1_555
Co1A_2 N4A 1_555 1_555
Co2A N16 1_555 1_555
Co2B N19 1_555 1_555
Na1A N4 1_555 1_555
Na1B O5 1_555 1_555
Na1C O5A 1_555 1_555
Na2A O3A_2 1_555 1_555
Na2B O6 1_555 1_555
Na2A_2 N16A 1_555 1_555
Na2A_3 O3A 1_555 1_555
O1A Na1A 1_555 1_555
O2A Na1A 1_555 1_555
O3A C18A 1_555 1_555
O4A Na2A_3 1_555 1_555
O4A_2 Na2A 1_555 1_555
O5B Na1 1_555 1_555
O5A Na1A 1_555 1_555
O5C Na1A 1_555 1_555
O6A Na2A 1_555 1_555
N1A C1A 1_555 1_555
N2A Co1A 1_555 1_555
N3A Co1A 1_555 1_555
N4A Na1 1_555 1_555
N4A_2 Co1A 1_555 1_555
N5A N4A 1_555 1_555
N6A N5A 1_555 1_555
N7A Co1A 1_555 1_555
N8A N7A 1_555 1_555
N9A N8A 1_555 1_555
N10A Na1 1_555 1_555
N10A_2 Co1A 1_555 1_555
N11A N10A 1_555 1_555
N12A Na2A 1_555 1_555
N13A Co2A 1_555 1_555
N14A Co2A 1_555 1_555
N15A Co2A 1_555 1_555
N16A Co2 1_555 1_555
N16A_2 Na2A 1_555 1_555
N17A N16A 1_555 1_555
N18A N17A 1_555 1_555
N19B Co2 1_555 1_555
N19C Co2A 1_555 1_555
N20B N19B 1_555 1_555
N21B Na2B 1_555 1_555
N21A Na2A 1_555 1_555
N22A Co2 1_555 1_555
N22A_2 Na2A 1_555 1_555
N23A N22A 1_555 1_555
N24A N23A 1_555 1_555
C1A H1A 1_555 1_555
C2A C1A 1_555 1_555
H2A C2A 1_555 1_555
C3A C2A 1_555 1_555
H3A C3A 1_555 1_555
C4A C3A 1_555 1_555
H4A C4A 1_555 1_555
C5A N1A 1_555 1_555
C6A O1A 1_555 1_555
C7A O2A 1_555 1_555
C8A N3A 1_555 1_555
C9A C8A 1_555 1_555
H5A C9A 1_555 1_555
C10A C9A 1_555 1_555
H6A C10A 1_555 1_555
C11A C10A 1_555 1_555
H7A C11A 1_555 1_555
C12A N3A 1_555 1_555
H8A C12A 1_555 1_555
C13A N13A 1_555 1_555
H9A C13A 1_555 1_555
C14A C13A 1_555 1_555
H10A C14A 1_555 1_555
C15A C14A 1_555 1_555
H11A C15A 1_555 1_555
C16A C15A 1_555 1_555
H12A C16A 1_555 1_555
C17A N13A 1_555 1_555
C18A N14A 1_555 1_555
C19A O4A 1_555 1_555
C20A N15A 1_555 1_555
C21A C20A 1_555 1_555
H13A C21A 1_555 1_555
C22A C21A 1_555 1_555
H14A C22A 1_555 1_555
C23A C22A 1_555 1_555
H15A C23A 1_555 1_555
C24A N15A 1_555 1_555
H16A C24A 1_555 1_555
N2 C7 1_555 1_555
N10 Na1A 1_555 1_555
N11 N12 1_555 1_555
N14 C19 1_555 1_555
N22 Co2A 1_555 1_555
C4 C5 1_555 1_555
C5 C6 1_555 1_555
C7 C8 1_555 1_555
C11 C12 1_555 1_555
C16 C17 1_555 1_555
C17 C18 1_555 1_555
C19 C20 1_555 1_555
C23 C24 1_555 1_555
Co1A_2 N10A 1_555 1_555
Na1B O5B 1_555 1_555
Na1C O5C 1_555 1_555
Na2A_2 N22A 1_555 1_555
N2A C6A 1_555 1_555
N2A C7A 1_555 1_555
N11A N12A 1_555 1_555
N14A C19A 1_555 1_555
N20B N21B 1_555 1_555
C4A C5A 1_555 1_555
C5A C6A 1_555 1_555
C7A C8A 1_555 1_555
C11A C12A 1_555 1_555
C16A C17A 1_555 1_555
C17A C18A 1_555 1_555
C19A C20A 1_555 1_555
C23A C24A 1_555 1_555

#END
