
#######################################################################
#
#                 Cambridge Crystallographic Data Centre
#                                CCDC 
#
#######################################################################
#
# If this CIF has been generated from an entry in the Cambridge 
# Structural Database, then it will include bibliographic, chemical, 
# crystal, experimental, refinement or atomic coordinate data resulting 
# from the CCDC's data processing and validation procedures.
#
#######################################################################

data_TAJLUN
_symmetry_cell_setting           monoclinic
_symmetry_space_group_name_H-M   'P 21/n'
_symmetry_Int_Tables_number      14
_space_group_name_Hall           '-P 2yn'
loop_
_symmetry_equiv_pos_site_id
_symmetry_equiv_pos_as_xyz
1 x,y,z
2 1/2-x,1/2+y,1/2-z
3 -x,-y,-z
4 1/2+x,1/2-y,1/2+z
_cell_length_a                   12.8579(2)
_cell_length_b                   16.6994(3)
_cell_length_c                   16.3316(3)
_cell_angle_alpha                90
_cell_angle_beta                 98.7260(10)
_cell_angle_gamma                90
_cell_volume                     3466.12
loop_
_atom_site_label
_atom_site_type_symbol
_atom_site_fract_x
_atom_site_fract_y
_atom_site_fract_z
Co1 Co 0.90964(5) 0.24686(3) 0.25389(4)
Co2 Co 0.23352(6) 0.46636(5) 0.15747(5)
K1 K 0.68979(13) 0.42660(13) 0.49445(10)
S1 S 0.08240(16) 0.28021(11) -0.04311(13)
S2 S 0.33644(14) 0.66734(9) -0.01129(11)
S3 S 0.5604(3) 0.4102(2) 0.3076(2)
S4 S 0.90792(15) 0.49758(12) 0.59719(11)
O1 O 0.8462(4) 0.3084(3) 0.4778(3)
O2 O 0.8131(3) 0.4394(2) 0.3680(3)
O3 O 1.0823(5) 0.1203(3) 0.1165(4)
O4 O 0.8611(5) 0.0988(3) 0.0594(3)
O5 O 0.5000 0.5000 0.5000
N1 N 0.9015(3) 0.3485(2) 0.1953(2)
N2 N 0.8741(3) 0.3121(2) 0.3415(2)
N3 N 0.9079(3) 0.1628(2) 0.3353(3)
N4 N 0.7653(3) 0.2204(2) 0.2065(3)
N5 N 1.0616(3) 0.2553(2) 0.2800(3)
N6 N 0.9412(4) 0.1799(3) 0.1668(3)
N7 N 0.1696(4) 0.3843(4) 0.0803(4)
N8 N 0.2588(5) 0.5618(3) 0.0953(3)
N9 N 0.3727(5) 0.4293(4) 0.2114(4)
N10 N 0.8466(4) 0.5114(4) 0.7521(4)
C1 C 0.9215(4) 0.3618(3) 0.1193(3)
H1 H 0.9398 0.3192 0.0877
C2 C 0.9154(4) 0.4396(4) 0.0858(4)
H2 H 0.9310 0.4485 0.0328
C3 C 0.8867(5) 0.5012(4) 0.1310(5)
H3 H 0.8824 0.5528 0.1094
C4 C 0.8642(4) 0.4872(3) 0.2084(4)
H4 H 0.8436 0.5291 0.2398
C5 C 0.8720(3) 0.4111(3) 0.2399(3)
C6 C 0.8502(4) 0.3910(3) 0.3242(3)
C7 C 0.8661(4) 0.2767(4) 0.4147(3)
C8 C 0.8847(4) 0.1895(3) 0.4092(3)
C9 C 0.8778(5) 0.1380(5) 0.4737(4)
H5 H 0.8643 0.1575 0.5244
C10 C 0.8909(5) 0.0576(5) 0.4624(5)
H6 H 0.8853 0.0219 0.5052
C11 C 0.9122(5) 0.0304(4) 0.3887(5)
H7 H 0.9199 -0.0241 0.3802
C12 C 0.9225(4) 0.0853(3) 0.3253(4)
H8 H 0.9399 0.0667 0.2755
C13 C 1.1153(4) 0.2985(4) 0.3402(4)
H9 H 1.0792 0.3289 0.3745
C14 C 1.2260(5) 0.2991(4) 0.3531(5)
H10 H 1.2638 0.3301 0.3947
C15 C 1.2763(5) 0.2522(5) 0.3019(7)
H11 H 1.3494 0.2506 0.3096
C16 C 1.2201(6) 0.2079(5) 0.2399(6)
H12 H 1.2546 0.1764 0.2055
C17 C 1.1135(4) 0.2105(4) 0.2292(4)
C18 C 1.0454(5) 0.1649(4) 0.1639(4)
C19 C 0.8572(6) 0.1457(3) 0.1162(3)
C20 C 0.7571(5) 0.1700(3) 0.1411(3)
C21 C 0.6579(7) 0.1459(3) 0.1005(4)
H13 H 0.6528 0.1106 0.0560
C22 C 0.5694(6) 0.1743(4) 0.1265(5)
H14 H 0.5033 0.1595 0.0994
C23 C 0.5783(5) 0.2236(5) 0.1914(5)
H15 H 0.5183 0.2435 0.2096
C24 C 0.6782(4) 0.2456(3) 0.2323(4)
H16 H 0.6833 0.2786 0.2786
C25 C 0.1337(5) 0.3395(4) 0.0285(4)
C26 C 0.2920(5) 0.6073(3) 0.0517(4)
C27 C 0.4475(6) 0.4197(4) 0.2533(5)
C28 C 0.8709(4) 0.5046(3) 0.6881(4)
Co1A Co 0.59036(5) -0.25314(3) 0.24611(4)
Co1A_2 Co 0.59036(5) 0.74686(3) 0.24611(4)
Co2A Co 1.26648(6) -0.03364(5) 0.34253(5)
Co2B Co 0.76648(6) 0.53364(5) 0.84253(5)
Co2C Co 0.73352(6) 0.03364(5) -0.34253(5)
K1A K 0.81021(13) -0.07340(13) 0.00555(10)
K1C K 1.18979(13) 0.07340(13) -0.00555(10)
K1B K 0.31021(13) 0.57340(13) 0.50555(10)
S1A S 1.41760(16) -0.21979(11) 0.54311(13)
S2A S 1.16356(14) 0.16734(9) 0.51129(11)
S3A S 0.9396(3) -0.0898(2) 0.1924(2)
S4A S 0.59208(15) -0.00242(12) -0.09719(11)
O1A O 0.6538(4) -0.1916(3) 0.0222(3)
O2A O 0.6869(3) -0.0606(2) 0.1320(3)
O3A O 0.4177(5) 0.6203(3) 0.3835(4)
O3C O 0.5823(5) 0.3797(3) 0.6165(4)
O3B O 0.9177(5) -0.1203(3) -0.1165(4)
O4A O 0.6389(5) 0.5988(3) 0.4406(3)
O5A O 1.0000 0.0000 0.0000
N1A N 0.5985(3) -0.1515(2) 0.3047(2)
N2A N 0.6259(3) -0.1879(2) 0.1585(2)
N3A N 0.5921(3) -0.3372(2) 0.1647(3)
N4A N 0.7347(3) 0.7204(2) 0.2935(3)
N4A_2 N 0.7347(3) -0.2796(2) 0.2935(3)
N5A N 0.4384(3) 0.7553(2) 0.2200(3)
N5A_2 N 0.4384(3) -0.2447(2) 0.2200(3)
N6A N 0.5588(4) 0.6799(3) 0.3332(3)
N6A_2 N 0.5588(4) -0.3201(3) 0.3332(3)
N7A N 1.3304(4) -0.1157(4) 0.4197(4)
N8A N 1.2412(5) 0.0618(3) 0.4047(3)
N9A N 1.1273(5) -0.0707(4) 0.2886(4)
N10A N 0.6534(4) 0.0114(4) -0.2521(4)
N10B N 0.1534(4) 0.4886(4) 0.2479(4)
N10C N 1.3466(4) -0.0114(4) 0.2521(4)
C1A C 0.5785(4) -0.1382(3) 0.3807(3)
H1A H 0.5602 -0.1808 0.4123
C2A C 0.5846(4) -0.0604(4) 0.4142(4)
H2A H 0.5690 -0.0515 0.4672
C3A C 0.6133(5) 0.0012(4) 0.3690(5)
H3A H 0.6176 0.0528 0.3906
C4A C 0.6358(4) -0.0128(3) 0.2916(4)
H4A H 0.6564 0.0291 0.2602
C5A C 0.6280(3) -0.0889(3) 0.2601(3)
C6A C 0.6498(4) -0.1090(3) 0.1758(3)
C7A C 0.6339(4) -0.2233(4) 0.0853(3)
C8A C 0.6153(4) -0.3105(3) 0.0908(3)
C9A C 0.6222(5) -0.3620(5) 0.0263(4)
H5A H 0.6357 -0.3425 -0.0244
C10A C 0.6091(5) -0.4424(5) 0.0376(5)
H6A H 0.6147 -0.4781 -0.0052
C11A C 0.5878(5) -0.4696(4) 0.1113(5)
H7A H 0.5801 -0.5241 0.1198
C12A C 0.5775(4) -0.4147(3) 0.1747(4)
H8A H 0.5601 -0.4333 0.2245
C13A C 0.3847(4) 0.7985(4) 0.1598(4)
H9A H 0.4208 0.8289 0.1255
C14A C 0.2740(5) 0.7991(4) 0.1469(5)
H10A H 0.2362 0.8301 0.1053
C15A C 0.2237(5) 0.7522(5) 0.1981(7)
H11A H 0.1506 0.7506 0.1904
C16A C 0.2799(6) 0.7079(5) 0.2601(6)
H12A H 0.2454 0.6764 0.2945
C17A C 0.3865(4) 0.7105(4) 0.2708(4)
C18A C 0.4546(5) 0.6649(4) 0.3361(4)
C19A C 0.6428(6) 0.6457(3) 0.3838(3)
C20A C 0.7429(5) 0.6700(3) 0.3589(3)
C21A C 0.8421(7) 0.6459(3) 0.3995(4)
H13A H 0.8472 0.6106 0.4440
C22A C 0.9306(6) 0.6743(4) 0.3735(5)
H14A H 0.9967 0.6595 0.4006
C23A C 0.9217(5) 0.7236(5) 0.3086(5)
H15A H 0.9817 0.7435 0.2904
C24A C 0.8218(4) 0.7456(3) 0.2677(4)
H16A H 0.8167 0.7786 0.2214
C25A C 1.3663(5) -0.1605(4) 0.4715(4)
C26A C 1.2080(5) 0.1073(3) 0.4483(4)
C27A C 1.0525(6) -0.0803(4) 0.2467(5)
C28A C 0.6291(4) 0.0046(3) -0.1881(4)
loop_
_geom_bond_atom_site_label_1
_geom_bond_atom_site_label_2
_geom_bond_site_symmetry_1
_geom_bond_site_symmetry_2
Co1 N1 1_555 1_555
Co2 N7 1_555 1_555
K1 S3 1_555 1_555
S1 C25 1_555 1_555
S2 C26 1_555 1_555
S3 C27 1_555 1_555
S4 K1 1_555 1_555
O1 K1 1_555 1_555
O2 K1 1_555 1_555
O3 C18 1_555 1_555
O4 C19 1_555 1_555
O5 K1 1_555 1_555
N1 C1 1_555 1_555
N2 Co1 1_555 1_555
N3 Co1 1_555 1_555
N4 Co1 1_555 1_555
N5 Co1 1_555 1_555
N6 Co1 1_555 1_555
N7 C25 1_555 1_555
N8 Co2 1_555 1_555
N9 Co2 1_555 1_555
N10 C28 1_555 1_555
C1 H1 1_555 1_555
C2 C1 1_555 1_555
H2 C2 1_555 1_555
C3 C2 1_555 1_555
H3 C3 1_555 1_555
C4 C3 1_555 1_555
H4 C4 1_555 1_555
C5 N1 1_555 1_555
C6 O2 1_555 1_555
C7 O1 1_555 1_555
C8 N3 1_555 1_555
C9 C8 1_555 1_555
H5 C9 1_555 1_555
C10 C9 1_555 1_555
H6 C10 1_555 1_555
C11 C10 1_555 1_555
H7 C11 1_555 1_555
C12 N3 1_555 1_555
H8 C12 1_555 1_555
C13 N5 1_555 1_555
H9 C13 1_555 1_555
C14 C13 1_555 1_555
H10 C14 1_555 1_555
C15 C14 1_555 1_555
H11 C15 1_555 1_555
C16 C15 1_555 1_555
H12 C16 1_555 1_555
C17 N5 1_555 1_555
C18 N6 1_555 1_555
C19 N6 1_555 1_555
C20 N4 1_555 1_555
C21 C20 1_555 1_555
H13 C21 1_555 1_555
C22 C21 1_555 1_555
H14 C22 1_555 1_555
C23 C22 1_555 1_555
H15 C23 1_555 1_555
C24 N4 1_555 1_555
H16 C24 1_555 1_555
C26 N8 1_555 1_555
C27 N9 1_555 1_555
C28 S4 1_555 1_555
Co1A N1A 1_555 1_555
Co1A_2 N4A 1_555 1_555
Co2A N7A 1_555 1_555
Co2B N10 1_555 1_555
Co2C N10A 1_555 1_555
K1A O4 1_555 1_555
K1C O3 1_555 1_555
K1B O5 1_555 1_555
S1A C25A 1_555 1_555
S2A C26A 1_555 1_555
S3A K1A 1_555 1_555
S4A K1A 1_555 1_555
O1A K1A 1_555 1_555
O2A K1A 1_555 1_555
O3A K1B 1_555 1_555
O3C K1 1_555 1_555
O3B K1A 1_555 1_555
O4A K1 1_555 1_555
O5A K1A 1_555 1_555
N1A C1A 1_555 1_555
N2A Co1A 1_555 1_555
N3A Co1A 1_555 1_555
N4A C20A 1_555 1_555
N4A_2 Co1A 1_555 1_555
N5A Co1A_2 1_555 1_555
N5A_2 Co1A 1_555 1_555
N6A Co1A_2 1_555 1_555
N6A_2 Co1A 1_555 1_555
N7A C25A 1_555 1_555
N8A Co2A 1_555 1_555
N9A Co2A 1_555 1_555
N10A C28A 1_555 1_555
N10B Co2 1_555 1_555
N10C Co2A 1_555 1_555
C1A H1A 1_555 1_555
C2A C1A 1_555 1_555
H2A C2A 1_555 1_555
C3A C2A 1_555 1_555
H3A C3A 1_555 1_555
C4A C3A 1_555 1_555
H4A C4A 1_555 1_555
C5A N1A 1_555 1_555
C6A O2A 1_555 1_555
C7A O1A 1_555 1_555
C8A N3A 1_555 1_555
C9A C8A 1_555 1_555
H5A C9A 1_555 1_555
C10A C9A 1_555 1_555
H6A C10A 1_555 1_555
C11A C10A 1_555 1_555
H7A C11A 1_555 1_555
C12A N3A 1_555 1_555
H8A C12A 1_555 1_555
C13A N5A 1_555 1_555
H9A C13A 1_555 1_555
C14A C13A 1_555 1_555
H10A C14A 1_555 1_555
C15A C14A 1_555 1_555
H11A C15A 1_555 1_555
C16A C15A 1_555 1_555
H12A C16A 1_555 1_555
C17A N5A 1_555 1_555
C18A O3A 1_555 1_555
C19A O4A 1_555 1_555
C20A C19A 1_555 1_555
C21A C20A 1_555 1_555
H13A C21A 1_555 1_555
C22A C21A 1_555 1_555
H14A C22A 1_555 1_555
C23A C22A 1_555 1_555
H15A C23A 1_555 1_555
C24A N4A 1_555 1_555
H16A C24A 1_555 1_555
C26A N8A 1_555 1_555
C27A S3A 1_555 1_555
C28A S4A 1_555 1_555
N2 C6 1_555 1_555
N2 C7 1_555 1_555
C4 C5 1_555 1_555
C5 C6 1_555 1_555
C7 C8 1_555 1_555
C11 C12 1_555 1_555
C16 C17 1_555 1_555
C17 C18 1_555 1_555
C19 C20 1_555 1_555
C23 C24 1_555 1_555
K1C O5A 1_555 1_555
N2A C6A 1_555 1_555
N2A C7A 1_555 1_555
N6A C18A 1_555 1_555
N6A C19A 1_555 1_555
N9A C27A 1_555 1_555
C4A C5A 1_555 1_555
C5A C6A 1_555 1_555
C7A C8A 1_555 1_555
C11A C12A 1_555 1_555
C16A C17A 1_555 1_555
C17A C18A 1_555 1_555
C23A C24A 1_555 1_555

#END
