
#######################################################################
#
#                 Cambridge Crystallographic Data Centre
#                                CCDC 
#
#######################################################################
#
# If this CIF has been generated from an entry in the Cambridge 
# Structural Database, then it will include bibliographic, chemical, 
# crystal, experimental, refinement or atomic coordinate data resulting 
# from the CCDC's data processing and validation procedures.
#
#######################################################################

data_TAJNOJ
_symmetry_cell_setting           orthorhombic
_symmetry_space_group_name_H-M   'P b c a'
_symmetry_Int_Tables_number      61
_space_group_name_Hall           '-P 2ac 2ab'
loop_
_symmetry_equiv_pos_site_id
_symmetry_equiv_pos_as_xyz
1 x,y,z
2 1/2-x,-y,1/2+z
3 -x,1/2+y,1/2-z
4 1/2+x,1/2-y,-z
5 -x,-y,-z
6 1/2+x,y,1/2-z
7 x,1/2-y,1/2+z
8 1/2-x,1/2+y,z
_cell_length_a                   7.4486(4)
_cell_length_b                   15.3574(8)
_cell_length_c                   23.2966(11)
_cell_angle_alpha                90
_cell_angle_beta                 90
_cell_angle_gamma                90
_cell_volume                     2664.92
loop_
_atom_site_label
_atom_site_type_symbol
_atom_site_fract_x
_atom_site_fract_y
_atom_site_fract_z
Cd1 Cd 0.49704(2) 0.190538(11) 0.276114(7)
O1 O 0.6937(2) 0.24958(13) 0.33582(8)
O2 O 0.9808(2) 0.25380(14) 0.31018(9)
O3 O 0.0989(2) 0.58395(13) 0.34001(9)
O4 O 0.2836(2) 0.61449(11) 0.26996(7)
O5 O 0.3266(3) 0.30141(13) 0.31154(10)
H1 H 0.2206 0.2999 0.3177
H2 H 0.3694 0.3417 0.3325
C1 C 0.8541(3) 0.26718(15) 0.34455(11)
C2 C 0.9031(3) 0.30524(14) 0.40175(10)
C3 C 1.0453(3) 0.26844(18) 0.43212(12)
H3 H 1.1118 0.2240 0.4153
C4 C 1.0897(4) 0.29651(19) 0.48661(13)
H4 H 1.1845 0.2709 0.5063
C5 C 0.9922(4) 0.3630(2) 0.51157(13)
H5 H 1.0205 0.3821 0.5483
C6 C 0.8526(4) 0.40081(18) 0.48169(12)
H6 H 0.7889 0.4461 0.4986
C7 C 0.8046(3) 0.37300(15) 0.42694(11)
C8 C 0.6577(3) 0.42021(15) 0.39719(11)
C9 C 0.6846(4) 0.45635(18) 0.34349(13)
H7 H 0.7936 0.4481 0.3248
C10 C 0.5511(4) 0.5047(2) 0.31727(14)
H8 H 0.5716 0.5283 0.2811
C11 C 0.3882(3) 0.51858(15) 0.34380(11)
C12 C 0.3562(4) 0.47905(17) 0.39618(12)
H9 H 0.2448 0.4852 0.4137
C13 C 0.4897(3) 0.43023(19) 0.42270(12)
H10 H 0.4666 0.4039 0.4579
C14 C 0.2487(3) 0.57502(15) 0.31698(11)
Cd1E Cd 0.99704(2) 0.190538(11) 0.223886(7)
Cd1G Cd 0.00296(2) 0.690538(11) 0.276114(7)
Cd1B Cd 0.50296(2) 0.690538(11) 0.223886(7)
O2E O 0.4808(2) 0.25380(14) 0.18982(9)
O3G O 0.4011(2) 0.08395(13) 0.34001(9)
O4B O 0.7164(2) 0.11449(11) 0.23004(7)
O4G O 0.2164(2) 0.11449(11) 0.26996(7)
C14G C 0.2513(3) 0.07502(15) 0.31698(11)
loop_
_geom_bond_atom_site_label_1
_geom_bond_atom_site_label_2
_geom_bond_site_symmetry_1
_geom_bond_site_symmetry_2
Cd1 O1 1_555 1_555
O1 C1 1_555 1_555
O2 C1 1_555 1_555
O3 C14 1_555 1_555
O4 C14 1_555 1_555
O5 Cd1 1_555 1_555
H1 O5 1_555 1_555
H2 O5 1_555 1_555
C1 C2 1_555 1_555
C2 C3 1_555 1_555
C3 H3 1_555 1_555
C4 C3 1_555 1_555
H4 C4 1_555 1_555
C5 C4 1_555 1_555
H5 C5 1_555 1_555
C6 C5 1_555 1_555
H6 C6 1_555 1_555
C7 C2 1_555 1_555
C8 C7 1_555 1_555
C9 C8 1_555 1_555
H7 C9 1_555 1_555
C10 C9 1_555 1_555
H8 C10 1_555 1_555
C11 C10 1_555 1_555
C12 C11 1_555 1_555
H9 C12 1_555 1_555
C13 C8 1_555 1_555
H10 C13 1_555 1_555
C14 C11 1_555 1_555
Cd1E O2 1_555 1_555
Cd1G O3 1_555 1_555
Cd1B O4 1_555 1_555
O2E Cd1 1_555 1_555
O3G Cd1 1_555 1_555
O4B Cd1 1_555 1_555
O4G Cd1 1_555 1_555
C14G O3G 1_555 1_555
O4 Cd1G 1_555 1_555
C6 C7 1_555 1_555
C12 C13 1_555 1_555
Cd1E O4B 1_555 1_555
O4G C14G 1_555 1_555

#END
