
#######################################################################
#
#                 Cambridge Crystallographic Data Centre
#                                CCDC 
#
#######################################################################
#
# If this CIF has been generated from an entry in the Cambridge 
# Structural Database, then it will include bibliographic, chemical, 
# crystal, experimental, refinement or atomic coordinate data resulting 
# from the CCDC's data processing and validation procedures.
#
#######################################################################

data_TAJPOL
_symmetry_cell_setting           orthorhombic
_symmetry_space_group_name_H-M   'P b c a'
_symmetry_Int_Tables_number      61
_space_group_name_Hall           '-P 2ac 2ab'
loop_
_symmetry_equiv_pos_site_id
_symmetry_equiv_pos_as_xyz
1 x,y,z
2 1/2+x,1/2-y,-z
3 -x,1/2+y,1/2-z
4 1/2-x,-y,1/2+z
5 -x,-y,-z
6 1/2-x,1/2+y,z
7 x,1/2-y,1/2+z
8 1/2+x,y,1/2-z
_cell_length_a                   13.9612(4)
_cell_length_b                   6.01220(10)
_cell_length_c                   25.7806(7)
_cell_angle_alpha                90
_cell_angle_beta                 90
_cell_angle_gamma                90
_cell_volume                     2163.96
loop_
_atom_site_label
_atom_site_type_symbol
_atom_site_fract_x
_atom_site_fract_y
_atom_site_fract_z
V1 V 0.87117(3) 0.05918(6) 0.104179(14)
P1 P 0.84923(4) 0.55771(8) 0.15388(2)
P2 P 0.88991(4) 0.53864(9) 0.40046(2)
O1 O 0.89769(11) 0.3524(3) 0.13114(6)
O2 O 0.74104(11) 0.5566(2) 0.14978(6)
O3 O 0.89543(11) 0.7601(2) 0.12806(6)
O4 O 0.99202(11) 0.5634(2) 0.41879(6)
O5 O 0.85732(11) 0.2972(3) 0.41605(7)
O6 O 0.82260(11) 0.7118(3) 0.42215(6)
O7 O 0.82204(11) 0.0683(3) 0.04788(6)
C1 C 0.87267(15) 0.5610(3) 0.22246(8)
C2 C 0.84431(16) 0.7448(4) 0.25179(9)
H4 H 0.8207 0.8742 0.2349
C3 C 0.85037(16) 0.7395(4) 0.30548(9)
H5 H 0.8312 0.8653 0.3252
C4 C 0.88470(15) 0.5494(3) 0.33067(9)
C5 C 0.91475(16) 0.3671(4) 0.30110(9)
H6 H 0.9392 0.2383 0.3179
C6 C 0.90909(16) 0.3732(4) 0.24753(9)
H7 H 0.9301 0.2492 0.2277
V1E V 0.62883(3) 0.55918(6) 0.104179(14)
V1_2 V 0.87117(3) 1.05918(6) 0.104179(14)
V1B V 1.12883(3) 0.55918(6) 0.395821(14)
O2E O 0.75896(11) 0.0566(2) 0.14978(6)
O3_2 O 0.89543(11) -0.2399(2) 0.12806(6)
O4B O 1.00798(11) 0.0634(2) 0.08121(6)
N1 N 0.36713(14) 0.5290(3) 0.49492(8)
H1 H 0.3558 0.3816 0.5002
H2 H 0.3291 0.5793 0.4688
H3 H 0.3539 0.6057 0.5245
C7 C 0.46936(16) 0.5620(4) 0.48067(9)
H8 H 0.4853 0.7224 0.4813
H9 H 0.4813 0.5049 0.4452
N1D N 0.63287(14) 0.4710(3) 0.50508(8)
H1D H 0.6442 0.6184 0.4998
H2D H 0.6709 0.4207 0.5312
H3D H 0.6461 0.3943 0.4755
C7D C 0.53064(16) 0.4380(4) 0.51933(9)
H8D H 0.5147 0.2776 0.5187
H9D H 0.5187 0.4951 0.5548
loop_
_geom_bond_atom_site_label_1
_geom_bond_atom_site_label_2
_geom_bond_site_symmetry_1
_geom_bond_site_symmetry_2
V1 O1 1_555 1_555
P1 O1 1_555 1_555
P2 O4 1_555 1_555
O2 P1 1_555 1_555
O3 P1 1_555 1_555
O4 V1B 1_555 1_555
O5 P2 1_555 1_555
O6 P2 1_555 1_555
O7 V1 1_555 1_555
N1 H1 1_555 1_555
H2 N1 1_555 1_555
H3 N1 1_555 1_555
C1 P1 1_555 1_555
C2 C1 1_555 1_555
H4 C2 1_555 1_555
C3 C2 1_555 1_555
H5 C3 1_555 1_555
C4 P2 1_555 1_555
C5 C4 1_555 1_555
H6 C5 1_555 1_555
C6 C1 1_555 1_555
H7 C6 1_555 1_555
C7 N1 1_555 1_555
H8 C7 1_555 1_555
H9 C7 1_555 1_555
V1E O2 1_555 1_555
V1_2 O3 1_555 1_555
O2E V1 1_555 1_555
O3_2 V1 1_555 1_555
O4B V1 1_555 1_555
N1D H1D 1_555 1_555
H2D N1D 1_555 1_555
H3D N1D 1_555 1_555
C7D C7 1_555 1_555
H8D C7D 1_555 1_555
H9D C7D 1_555 1_555
C3 C4 1_555 1_555
C5 C6 1_555 1_555
N1D C7D 1_555 1_555

#END
