
#######################################################################
#
#                 Cambridge Crystallographic Data Centre
#                                CCDC 
#
#######################################################################
#
# If this CIF has been generated from an entry in the Cambridge 
# Structural Database, then it will include bibliographic, chemical, 
# crystal, experimental, refinement or atomic coordinate data resulting 
# from the CCDC's data processing and validation procedures.
#
#######################################################################

data_TAKHEU
_symmetry_cell_setting           triclinic
_symmetry_space_group_name_H-M   'P -1'
_symmetry_Int_Tables_number      2
_space_group_name_Hall           '-P 1'
loop_
_symmetry_equiv_pos_site_id
_symmetry_equiv_pos_as_xyz
1 x,y,z
2 -x,-y,-z
_cell_length_a                   15.9340(16)
_cell_length_b                   18.0410(19)
_cell_length_c                   21.159(2)
_cell_angle_alpha                113.860(1)
_cell_angle_beta                 90.783(2)
_cell_angle_gamma                94.323(2)
_cell_volume                     5540.32
loop_
_atom_site_label
_atom_site_type_symbol
_atom_site_fract_x
_atom_site_fract_y
_atom_site_fract_z
O5 O 0.347(2) 0.816(3) 0.280(2)
Cu5 Cu 0.2548(5) 0.6879(6) 0.2348(5)
N11 N 0.3519(19) 0.633(3) 0.1812(18)
H21 H 0.4005 0.6572 0.2052
H22 H 0.3480 0.5804 0.1762
N12 N 0.230(3) 0.695(3) 0.1442(15)
H23 H 0.1887 0.6554 0.1214
H24 H 0.2081 0.7426 0.1538
N13 N 0.271(2) 0.648(3) 0.3096(17)
H25 H 0.2651 0.5929 0.2896
H26 H 0.3250 0.6623 0.3263
N14 N 0.1658(18) 0.751(2) 0.2947(16)
H27 H 0.1705 0.8028 0.2990
H28 H 0.1139 0.7280 0.2770
C11 C 0.354(3) 0.635(3) 0.112(2)
H41 H 0.3404 0.5795 0.0775
H42 H 0.4114 0.6509 0.1051
C12 C 0.298(4) 0.688(5) 0.095(4)
H43 H 0.3266 0.7411 0.1044
H44 H 0.2759 0.6632 0.0477
C13 C 0.216(4) 0.675(4) 0.369(3)
H45 H 0.2480 0.6903 0.4130
H46 H 0.1714 0.6330 0.3651
C14 C 0.182(4) 0.747(4) 0.362(2)
H47 H 0.1299 0.7554 0.3858
H48 H 0.2215 0.7936 0.3888
O11 O 0.411(2) 0.771(2) 0.863(2)
O13 O 0.826(2) 0.562(2) 0.712(3)
O17 O 0.4870(19) 0.792(2) 0.2026(17)
O19 O 0.626(2) 0.3133(19) 0.0555(15)
O21 O 0.7570(19) 1.2134(18) 1.0061(15)
O23 O 0.622(3) 0.500(3) 0.696(2)
O25 O 0.524(3) 0.913(3) 0.945(2)
O27 O 0.820(3) 1.145(3) 1.094(3)
Cu1 Cu 0.0000 0.0000 0.5000
N1 N -0.0066(14) 0.0959(16) 0.4751(13)
H1 H 0.0087 0.1424 0.5122
H2 H 0.0285 0.0922 0.4412
N2 N -0.1074(14) -0.0437(15) 0.4454(12)
H3 H -0.1029 -0.0948 0.4140
H4 H -0.1488 -0.0454 0.4735
C1 C -0.0949(19) 0.096(2) 0.4516(19)
H29 H -0.1290 0.1198 0.4913
H30 H -0.0966 0.1278 0.4242
C2 C -0.129(2) 0.010(2) 0.4091(17)
H31 H -0.1042 -0.0091 0.3641
H32 H -0.1892 0.0074 0.4021
N1A N 0.0066(14) -0.0959(16) 0.5249(13)
N2A N 0.1074(14) 0.0437(15) 0.5546(12)
H1A H -0.0087 -0.1424 0.4878
H2A H -0.0285 -0.0922 0.5588
C1A C 0.0949(19) -0.096(2) 0.5484(19)
H3A H 0.1029 0.0948 0.5860
H4A H 0.1488 0.0454 0.5265
C2A C 0.129(2) -0.010(2) 0.5909(17)
H29A H 0.1290 -0.1198 0.5087
H30A H 0.0966 -0.1278 0.5758
H31A H 0.1042 0.0091 0.6359
H32A H 0.1892 -0.0074 0.5979
O1 O 0.5500(12) 0.7206(12) 0.6569(9)
O2 O 0.6671(11) 0.7212(12) 0.5659(10)
O3 O 1.0000 0.5000 0.5000
O4 O 0.8357(11) 0.7637(12) 0.5656(10)
O6 O 0.6253(10) 0.8764(11) 0.5525(9)
O7 O 1.143(4) 0.677(4) 0.541(3)
O8 O 0.8075(11) 0.9151(13) 0.5495(10)
O9 O 0.984(2) 0.523(3) 0.648(3)
O10 O 0.7117(11) 0.8513(11) 0.4134(8)
O12 O 0.8568(10) 0.7547(11) 0.4221(9)
O14 O 0.7398(10) 0.6276(11) 0.4250(9)
O15 O 1.1714(15) 1.2548(17) 1.0378(13)
O16 O 0.5942(11) 0.7200(12) 0.4148(9)
O18 O 0.6851(9) 0.8121(10) 0.7204(8)
O20 O 0.8389(10) 0.8473(11) 0.7193(9)
O22 O 0.7359(10) 0.9027(10) 0.6647(9)
O24 O 0.7294(10) 0.6103(10) 0.1828(8)
O26 O 0.7480(10) 0.5522(11) 0.2714(9)
O28 O 0.7050(11) 0.6933(10) 0.3092(8)
O29 O 0.8507(11) 0.6618(10) 0.2702(8)
O30 O 1.0724(10) 0.9601(12) 0.7248(9)
O31 O 0.9753(12) 0.8160(11) 0.6516(9)
O32 O 0.9142(10) 0.9513(10) 0.6628(8)
O33 O 0.9859(11) 0.8713(12) 0.7885(9)
O34 O 0.8694(12) 1.0710(11) 0.6121(9)
O35 O 0.8929(12) 1.1729(11) 0.8654(9)
O36 O 0.8322(9) 1.0475(11) 0.9069(8)
O37 O 0.6982(11) 0.8557(11) 0.8699(8)
O38 O 0.6535(12) 0.6962(13) 0.8580(11)
O39 O 0.5650(11) 0.7773(11) 0.7930(10)
O40 O 0.4282(11) 0.8149(14) 0.7281(11)
O41 O 0.6286(11) 0.5777(12) 0.5737(9)
O42 O 0.6619(12) 0.6654(13) 0.7177(9)
O43 O 0.9170(12) 0.7214(11) 0.7128(10)
O44 O 0.9379(11) 0.6487(12) 0.5697(10)
O45 O 0.7800(11) 0.6770(10) 0.6335(8)
O46 O 0.9606(11) 0.7651(11) 0.8531(9)
O47 O 0.8578(12) 0.8913(12) 0.8686(10)
O48 O 0.7950(12) 0.7459(11) 0.8009(9)
O49 O 0.9264(10) 1.0096(11) 0.7977(9)
O50 O 0.7778(12) 0.9759(13) 0.9940(11)
O51 O 0.6720(11) 1.0124(13) 0.9095(9)
O52 O 0.5514(13) 1.0960(12) 0.8694(11)
O53 O 0.6195(11) 1.0201(12) 0.7419(10)
O54 O 0.5311(11) 0.9992(13) 0.6199(10)
O55 O 0.5539(11) 0.8755(12) 0.6686(9)
O56 O 0.7050(11) 1.0243(12) 0.6322(9)
O57 O 0.5672(10) 0.9280(11) 0.8011(9)
O58 O 0.8180(11) 1.0663(12) 0.7394(9)
O59 O 1.0195(11) 0.7237(12) 0.4416(9)
O60 O 0.9647(9) 0.7800(11) 0.3387(9)
O61 O 0.9671(11) 0.8628(12) 0.2565(10)
O62 O 0.9813(10) 0.6984(11) 0.2068(9)
O63 O 1.0603(12) 0.5523(13) 0.1616(10)
O64 O 0.7484(10) 0.9523(10) 0.7927(8)
O65 O 0.7244(12) 1.1052(12) 0.8491(10)
O66 O 0.4524(11) 0.6824(12) 0.3334(9)
O67 O 0.5751(11) 0.5689(12) 0.3077(10)
O68 O 1.0048(10) 0.6333(12) 0.2964(9)
O69 O 0.8909(9) 0.5621(12) 0.1266(9)
O70 O 0.8383(10) 0.7454(10) 0.1788(8)
O71 O 0.7832(11) 0.4484(11) 0.1278(10)
O72 O 0.7241(11) 0.7693(13) 0.0884(9)
O73 O 0.8113(13) 0.4531(12) -0.0025(10)
O74 O 0.6211(11) 0.6437(12) 0.1059(9)
O75 O 0.4931(13) 0.5237(14) 0.0917(11)
O76 O 0.5559(11) 0.6297(11) 0.2175(9)
O77 O 0.6788(11) 0.4786(11) 0.3431(9)
O78 O 0.8097(14) 0.5019(13) 0.4424(11)
O79 O 0.9120(10) 0.4948(11) 0.2119(9)
O80 O 0.8301(11) 0.4457(11) 0.2974(10)
O81 O 0.8558(12) 0.3318(13) 0.1668(10)
O82 O 0.6780(11) 0.9247(12) 0.3283(10)
O83 O 0.8152(11) 0.8283(11) 0.3088(9)
O84 O 0.7751(12) 0.6164(12) 0.0682(9)
O85 O 0.6673(12) 0.4970(12) 0.0693(9)
O86 O 0.5989(12) 0.4875(13) 0.1770(10)
O87 O 0.5345(13) 0.4013(12) 0.2562(10)
O88 O 0.6995(11) 0.3945(12) 0.2106(10)
O89 O 0.6870(10) 0.7764(11) 0.2188(8)
O90 O 0.5842(10) 0.7815(11) 0.3180(9)
O91 O 0.8896(12) 0.5965(11) 0.3741(8)
P1 P 0.7519(4) 0.8789(4) 0.7235(3)
P2 P 0.7577(4) 0.6300(4) 0.2598(3)
W1 W 0.55967(7) 0.68145(7) 0.32726(6)
W2 W 0.81751(8) 0.42484(7) 0.20480(6)
W3 W 0.78495(8) 0.51709(8) 0.07869(6)
W4 W 0.62696(7) 1.03132(8) 0.82998(6)
W5 W 0.97058(7) 0.58872(7) 0.20258(6)
W6 W 0.83842(7) 1.07956(7) 0.82702(6)
W7 W 0.69748(7) 0.83129(7) 0.32553(6)
W8 W 0.93803(7) 0.69797(7) 0.37809(6)
W9 W 0.72834(7) 0.71266(7) 0.13652(6)
W10 W 0.76889(7) 0.95706(8) 0.90828(6)
W11 W 0.90349(7) 0.79728(7) 0.80216(6)
W12 W 0.91277(7) 0.78252(7) 0.26070(6)
W13 W 0.78528(7) 0.53929(7) 0.38078(6)
W14 W 0.97258(7) 0.92091(7) 0.72369(6)
W15 W 0.66066(7) 0.67606(7) 0.62456(6)
W16 W 0.88404(7) 0.72906(7) 0.62166(6)
W17 W 0.58702(7) 0.56075(8) 0.13608(6)
W18 W 0.61212(7) 0.95048(7) 0.63502(6)
W19 W 0.82064(7) 0.99668(7) 0.63222(6)
W20 W 0.67341(7) 0.74628(8) 0.80489(6)
W21 W 0.53547(7) 0.82176(8) 0.72655(6)
W22 W 0.61957(7) 0.46784(7) 0.25950(6)
Ce1 Ce 0.72840(9) 0.77754(10) 0.48838(8)
Cu2 Cu 0.5000 0.5000 0.5000
Cu3 Cu 0.5000 1.0000 0.5000
Cu4 Cu 1.0263(2) 1.2099(2) 0.96187(18)
N3 N 0.5026(16) 0.5756(18) 0.4510(13)
H5 H 0.5563 0.5921 0.4471
H6 H 0.4783 0.5495 0.4082
N4 N 0.4281(15) 0.5810(17) 0.5668(14)
H7 H 0.4600 0.6145 0.6043
H8 H 0.3873 0.5544 0.5806
N5 N 0.5132(17) 1.1226(15) 0.5453(12)
H9 H 0.4669 1.1414 0.5345
H10 H 0.5160 1.1384 0.5915
N6 N 0.6242(15) 1.0118(16) 0.4795(14)
H11 H 0.6293 0.9946 0.4336
H12 H 0.6536 0.9806 0.4942
N7 N 1.0085(14) 1.1156(15) 0.9895(12)
H13 H 0.9530 1.1051 0.9930
H14 H 1.0344 1.1286 1.0311
N8 N 1.0876(14) 1.1308(15) 0.8827(12)
H15 H 1.1329 1.1573 0.8738
H16 H 1.0532 1.1092 0.8444
N9 N 0.9565(16) 1.2809(17) 1.0371(13)
H17 H 0.9741 1.2808 1.0777
H18 H 0.9024 1.2598 1.0285
N10 N 1.0442(18) 1.3085(17) 0.9401(14)
H19 H 1.0279 1.2957 0.8958
H20 H 1.0991 1.3267 0.9463
N15 N 1.105(2) 0.6841(17) 0.6670(12)
N16 N 1.288(3) 0.825(4) 0.801(3)
C3 C 0.4565(18) 0.647(2) 0.4911(16)
C4 C 0.388(2) 0.631(2) 0.532(2)
C5 C 0.587(3) 1.160(3) 0.526(3)
C6 C 0.659(2) 1.098(2) 0.5148(19)
C7 C 1.0424(16) 1.0422(17) 0.9376(14)
H33 H 1.0612 1.0089 0.9603
H34 H 0.9979 1.0104 0.9035
C8 C 1.1150(18) 1.0646(18) 0.9016(16)
H35 H 1.1273 1.0179 0.8605
H36 H 1.1652 1.0836 0.9322
C9 C 0.961(3) 1.362(3) 1.043(2)
H37 H 0.9047 1.3800 1.0480
H38 H 0.9950 1.3964 1.0842
C10 C 0.996(2) 1.369(2) 0.9847(18)
H39 H 1.0314 1.4201 1.0014
H40 H 0.9500 1.3744 0.9568
C15 C 1.166(6) 0.757(6) 0.686(7)
C16 C 1.235(6) 0.770(5) 0.739(4)
Na1 Na 1.0527(8) 0.5980(7) 0.5795(6)
Na1A Na 0.9473(8) 0.4020(7) 0.4205(6)
N3A N 0.4974(16) 0.4244(18) 0.5490(13)
N4A N 0.5719(15) 0.4190(17) 0.4332(14)
O41A O 0.3714(11) 0.4223(12) 0.4263(9)
N5A N 0.4868(17) 0.8774(15) 0.4547(12)
N6A N 0.3758(15) 0.9882(16) 0.5205(14)
O54A O 0.4689(11) 1.0008(13) 0.3801(10)
O78A O 1.1903(14) 0.4981(13) 0.5576(11)
O7A O 0.857(4) 0.323(4) 0.459(3)
O9A O 1.016(2) 0.477(3) 0.352(3)
O44A O 1.0621(11) 0.3513(12) 0.4303(10)
N15A N 0.895(2) 0.3159(17) 0.3330(12)
H5A H 0.4437 0.4079 0.5529
H6A H 0.5217 0.4505 0.5918
C3A C 0.5435(18) 0.353(2) 0.5089(16)
H7A H 0.5400 0.3855 0.3957
H8A H 0.6127 0.4456 0.4194
C4A C 0.612(2) 0.369(2) 0.468(2)
W15A W 0.33934(7) 0.32394(7) 0.37544(6)
H9A H 0.5331 0.8586 0.4655
H10A H 0.4840 0.8616 0.4085
C5A C 0.413(3) 0.840(3) 0.474(3)
H11A H 0.3707 1.0054 0.5664
H12A H 0.3464 1.0194 0.5058
C6A C 0.341(2) 0.902(2) 0.4852(19)
W18A W 0.38788(7) 1.04952(7) 0.36498(6)
W13A W 1.21472(7) 0.46071(7) 0.61922(6)
loop_
_geom_bond_atom_site_label_1
_geom_bond_atom_site_label_2
_geom_bond_site_symmetry_1
_geom_bond_site_symmetry_2
O1 W15 1_555 1_555
O2 W15 1_555 1_555
O3 Na1 1_555 1_555
O4 W16 1_555 1_555
O5 Cu5 1_555 1_555
O6 W18 1_555 1_555
O7 Na1 1_555 1_555
O8 W19 1_555 1_555
O9 Na1 1_555 1_555
O10 W7 1_555 1_555
O12 W8 1_555 1_555
O14 W13 1_555 1_555
O15 Cu4 1_555 1_555
O16 W1 1_555 1_555
O18 P1 1_555 1_555
O20 P1 1_555 1_555
O22 P1 1_555 1_555
O24 P2 1_555 1_555
O26 P2 1_555 1_555
O28 P2 1_555 1_555
O29 P2 1_555 1_555
O30 W14 1_555 1_555
O31 W14 1_555 1_555
O32 W14 1_555 1_555
O33 W11 1_555 1_555
O34 W19 1_555 1_555
O35 W6 1_555 1_555
O36 W6 1_555 1_555
O37 W10 1_555 1_555
O38 W20 1_555 1_555
O39 W20 1_555 1_555
O40 W21 1_555 1_555
O41 W15 1_555 1_555
O42 W15 1_555 1_555
O43 W11 1_555 1_555
O44 W16 1_555 1_555
O45 W15 1_555 1_555
O46 W11 1_555 1_555
O47 W10 1_555 1_555
O48 W11 1_555 1_555
O49 W6 1_555 1_555
O50 W10 1_555 1_555
O51 W4 1_555 1_555
O52 W4 1_555 1_555
O53 W4 1_555 1_555
O54 W18 1_555 1_555
O55 W18 1_555 1_555
O56 W18 1_555 1_555
O57 W4 1_555 1_555
O58 W6 1_555 1_555
O59 W8 1_555 1_555
O60 W8 1_555 1_555
O61 W12 1_555 1_555
O62 W5 1_555 1_555
O63 W5 1_555 1_555
O64 P1 1_555 1_555
O65 W4 1_555 1_555
O66 W1 1_555 1_555
O67 W1 1_555 1_555
O68 W5 1_555 1_555
O69 W3 1_555 1_555
O70 W9 1_555 1_555
O71 W2 1_555 1_555
O72 W9 1_555 1_555
O73 W3 1_555 1_555
O74 W9 1_555 1_555
O75 W17 1_555 1_555
O76 W1 1_555 1_555
O77 W13 1_555 1_555
O78 W13 1_555 1_555
O79 W2 1_555 1_555
O80 W2 1_555 1_555
O81 W2 1_555 1_555
O82 W7 1_555 1_555
O83 W7 1_555 1_555
O84 W3 1_555 1_555
O85 W3 1_555 1_555
O86 W17 1_555 1_555
O87 W22 1_555 1_555
O88 W2 1_555 1_555
O89 W7 1_555 1_555
O90 W1 1_555 1_555
O91 W8 1_555 1_555
W1 O28 1_555 1_555
W2 O26 1_555 1_555
W3 O24 1_555 1_555
W4 O64 1_555 1_555
W5 O29 1_555 1_555
W6 O64 1_555 1_555
W7 O28 1_555 1_555
W8 O29 1_555 1_555
W9 O24 1_555 1_555
W10 O36 1_555 1_555
W11 O20 1_555 1_555
W12 O29 1_555 1_555
W13 O26 1_555 1_555
W14 O20 1_555 1_555
W15 O18 1_555 1_555
W16 O20 1_555 1_555
W17 O24 1_555 1_555
W18 O22 1_555 1_555
W19 O22 1_555 1_555
W20 O18 1_555 1_555
W21 O1 1_555 1_555
W22 O26 1_555 1_555
Ce1 O2 1_555 1_555
Cu1 N1 1_555 1_555
Cu2 O41 1_555 1_555
Cu3 O54 1_555 1_555
Cu4 O35 1_555 1_555
Cu5 N11 1_555 1_555
N1 H1 1_555 1_555
H2 N1 1_555 1_555
N2 Cu1 1_555 1_555
H3 N2 1_555 1_555
H4 N2 1_555 1_555
N3 Cu2 1_555 1_555
H5 N3 1_555 1_555
H6 N3 1_555 1_555
N4 Cu2 1_555 1_555
H7 N4 1_555 1_555
H8 N4 1_555 1_555
N5 Cu3 1_555 1_555
H9 N5 1_555 1_555
H10 N5 1_555 1_555
N6 Cu3 1_555 1_555
H11 N6 1_555 1_555
H12 N6 1_555 1_555
N7 Cu4 1_555 1_555
H13 N7 1_555 1_555
H14 N7 1_555 1_555
N8 Cu4 1_555 1_555
H15 N8 1_555 1_555
H16 N8 1_555 1_555
N9 Cu4 1_555 1_555
H17 N9 1_555 1_555
H18 N9 1_555 1_555
N10 Cu4 1_555 1_555
H19 N10 1_555 1_555
H20 N10 1_555 1_555
N11 H21 1_555 1_555
H22 N11 1_555 1_555
N12 Cu5 1_555 1_555
H23 N12 1_555 1_555
H24 N12 1_555 1_555
N13 Cu5 1_555 1_555
H25 N13 1_555 1_555
H26 N13 1_555 1_555
N14 Cu5 1_555 1_555
H27 N14 1_555 1_555
H28 N14 1_555 1_555
N15 C15 1_555 1_555
N16 C16 1_555 1_555
C1 N1 1_555 1_555
H29 C1 1_555 1_555
H30 C1 1_555 1_555
C2 N2 1_555 1_555
H31 C2 1_555 1_555
H32 C2 1_555 1_555
C3 N3 1_555 1_555
C4 N4 1_555 1_555
C5 N5 1_555 1_555
C6 N6 1_555 1_555
C7 N7 1_555 1_555
H33 C7 1_555 1_555
H34 C7 1_555 1_555
C8 N8 1_555 1_555
H35 C8 1_555 1_555
H36 C8 1_555 1_555
C9 N9 1_555 1_555
H37 C9 1_555 1_555
H38 C9 1_555 1_555
C10 N10 1_555 1_555
H39 C10 1_555 1_555
H40 C10 1_555 1_555
C11 N11 1_555 1_555
H41 C11 1_555 1_555
H42 C11 1_555 1_555
C12 N12 1_555 1_555
H43 C12 1_555 1_555
H44 C12 1_555 1_555
C13 N13 1_555 1_555
H45 C13 1_555 1_555
H46 C13 1_555 1_555
C14 N14 1_555 1_555
H47 C14 1_555 1_555
H48 C14 1_555 1_555
C15 C16 1_555 1_555
Na1 O44 1_555 1_555
Na1A O3 1_555 1_555
N1A Cu1 1_555 1_555
N2A Cu1 1_555 1_555
N3A Cu2 1_555 1_555
N4A Cu2 1_555 1_555
O41A Cu2 1_555 1_555
N5A Cu3 1_555 1_555
N6A Cu3 1_555 1_555
O54A Cu3 1_555 1_555
O78A Na1 1_555 1_555
O7A Na1A 1_555 1_555
O9A Na1A 1_555 1_555
O44A Na1A 1_555 1_555
N15A Na1A 1_555 1_555
H1A N1A 1_555 1_555
H2A N1A 1_555 1_555
C1A N1A 1_555 1_555
H3A N2A 1_555 1_555
H4A N2A 1_555 1_555
C2A N2A 1_555 1_555
H5A N3A 1_555 1_555
H6A N3A 1_555 1_555
C3A N3A 1_555 1_555
H7A N4A 1_555 1_555
H8A N4A 1_555 1_555
C4A N4A 1_555 1_555
W15A O41A 1_555 1_555
H9A N5A 1_555 1_555
H10A N5A 1_555 1_555
C5A N5A 1_555 1_555
H11A N6A 1_555 1_555
H12A N6A 1_555 1_555
C6A N6A 1_555 1_555
W18A O54A 1_555 1_555
W13A O78A 1_555 1_555
H29A C1A 1_555 1_555
H30A C1A 1_555 1_555
H31A C2A 1_555 1_555
H32A C2A 1_555 1_555
O4 Ce1 1_555 1_555
O6 Ce1 1_555 1_555
O8 Ce1 1_555 1_555
O10 Ce1 1_555 1_555
O12 Ce1 1_555 1_555
O14 Ce1 1_555 1_555
O16 Ce1 1_555 1_555
O18 W21 1_555 1_555
O31 W16 1_555 1_555
O32 W19 1_555 1_555
O33 W14 1_555 1_555
O37 W20 1_555 1_555
O39 W21 1_555 1_555
O42 W20 1_555 1_555
O43 W16 1_555 1_555
O45 W16 1_555 1_555
O47 W11 1_555 1_555
O48 W20 1_555 1_555
O49 W14 1_555 1_555
O51 W10 1_555 1_555
O53 W18 1_555 1_555
O55 W21 1_555 1_555
O56 W19 1_555 1_555
O57 W21 1_555 1_555
O58 W19 1_555 1_555
O60 W12 1_555 1_555
O62 W12 1_555 1_555
O64 W10 1_555 1_555
O65 W6 1_555 1_555
O67 W22 1_555 1_555
O68 W8 1_555 1_555
O69 W5 1_555 1_555
O70 W12 1_555 1_555
O71 W3 1_555 1_555
O74 W17 1_555 1_555
O76 W17 1_555 1_555
O77 W22 1_555 1_555
O78 Na1A 1_555 1_555
O79 W5 1_555 1_555
O80 W13 1_555 1_555
O83 W12 1_555 1_555
O84 W9 1_555 1_555
O85 W17 1_555 1_555
O86 W22 1_555 1_555
O88 W22 1_555 1_555
O89 W9 1_555 1_555
O90 W7 1_555 1_555
O91 W13 1_555 1_555
N15 Na1 1_555 1_555
C1 C2 1_555 1_555
C3 C4 1_555 1_555
C5 C6 1_555 1_555
C7 C8 1_555 1_555
C9 C10 1_555 1_555
C11 C12 1_555 1_555
C13 C14 1_555 1_555
C1A C2A 1_555 1_555
C3A C4A 1_555 1_555
C5A C6A 1_555 1_555

#END
