
#######################################################################
#
#                 Cambridge Crystallographic Data Centre
#                                CCDC 
#
#######################################################################
#
# If this CIF has been generated from an entry in the Cambridge 
# Structural Database, then it will include bibliographic, chemical, 
# crystal, experimental, refinement or atomic coordinate data resulting 
# from the CCDC's data processing and validation procedures.
#
#######################################################################

data_TAKQAZ
_symmetry_cell_setting           monoclinic
_symmetry_space_group_name_H-M   'P 21/c'
_symmetry_Int_Tables_number      14
_space_group_name_Hall           '-P 2ybc'
loop_
_symmetry_equiv_pos_site_id
_symmetry_equiv_pos_as_xyz
1 x,y,z
2 -x,1/2+y,1/2-z
3 -x,-y,-z
4 x,1/2-y,1/2+z
_cell_length_a                   9.6649(5)
_cell_length_b                   19.3404(10)
_cell_length_c                   11.2354(6)
_cell_angle_alpha                90
_cell_angle_beta                 111.3480(10)
_cell_angle_gamma                90
_cell_volume                     1956.06
loop_
_atom_site_label
_atom_site_type_symbol
_atom_site_fract_x
_atom_site_fract_y
_atom_site_fract_z
C1 C 0.6697(5) 1.1212(2) 0.3736(4)
C2 C 0.6306(5) 1.1880(2) 0.3078(5)
C3 C 0.6676(5) 1.2080(3) 0.2172(4)
H1 H 0.7262 1.1840 0.1813
C4 C 0.6041(8) 1.2735(4) 0.1804(6)
H2 H 0.6148 1.2999 0.1151
C5 C 0.5332(9) 1.2912(3) 0.2448(7)
H3 H 0.4811 1.3323 0.2387
C6 C 0.3582(4) 0.9799(2) 0.2817(4)
C7 C 0.3160(4) 0.9715(2) 0.1471(4)
C8 C 0.4001(6) 0.9564(3) 0.0860(4)
H4 H 0.5024 0.9498 0.1164
C9 C 0.2935(6) 0.9524(3) -0.0436(4)
H5 H 0.3209 0.9416 -0.1127
C10 C 0.1517(6) 0.9654(3) -0.0568(4)
H6 H 0.0676 0.9660 -0.1312
C11 C 0.8921(5) 0.9181(2) 0.3311(4)
C12 C 0.8794(5) 0.8820(2) 0.2166(4)
C13 C 0.9889(6) 0.8680(3) 0.1801(5)
H7 H 1.0903 0.8756 0.2207
C14 C 0.9071(9) 0.8373(3) 0.0582(6)
H8 H 0.9526 0.8212 0.0035
C15 C 0.7586(9) 0.8337(4) 0.0293(6)
H9 H 0.6875 0.8161 -0.0448
C16 C 0.7743(6) 0.8432(3) 0.6596(5)
H10 H 0.7799 0.8651 0.7389
H11 H 0.7409 0.7960 0.6607
C17 C 0.9237(6) 0.8425(3) 0.6520(6)
H12 H 0.9949 0.8214 0.7280
H13 H 0.9226 0.8163 0.5780
Tb1 Tb 0.75396(2) 0.990862(10) 0.500333(17)
O1 O 0.7447(3) 1.07748(15) 0.3452(3)
O2 O 0.6310(3) 1.10914(15) 0.4601(3)
O3 O 0.4976(3) 0.97577(18) 0.3620(3)
O4 O 0.2474(3) 0.99020(16) 0.3074(3)
O5 O 0.7721(3) 0.92035(17) 0.3461(3)
O6 O 1.0193(3) 0.94591(17) 0.4029(3)
O7 O 0.6635(3) 0.88099(15) 0.5496(3)
H14 H 0.5863 0.8885 0.5671
O8 O 0.9626(3) 0.91217(15) 0.6417(3)
H15 H 1.0321 0.9126 0.6122
O9 O 0.5462(5) 1.2372(2) 0.3297(4)
O10 O 0.1617(3) 0.97708(18) 0.0606(3)
O11 O 0.7364(4) 0.8603(2) 0.1279(3)
Tb1B Tb 0.24604(2) 1.009138(10) 0.499667(17)
Tb1B_2 Tb 1.24604(2) 1.009138(10) 0.499667(17)
O4B O 0.7526(3) 1.00980(16) 0.6926(3)
O6B O 0.9807(3) 1.05409(17) 0.5971(3)
loop_
_geom_bond_atom_site_label_1
_geom_bond_atom_site_label_2
_geom_bond_site_symmetry_1
_geom_bond_site_symmetry_2
C1 C2 1_555 1_555
C2 C3 1_555 1_555
C3 H1 1_555 1_555
C4 C3 1_555 1_555
H2 C4 1_555 1_555
C5 C4 1_555 1_555
H3 C5 1_555 1_555
C6 C7 1_555 1_555
C7 C8 1_555 1_555
C8 H4 1_555 1_555
C9 C8 1_555 1_555
H5 C9 1_555 1_555
C10 C9 1_555 1_555
H6 C10 1_555 1_555
C11 C12 1_555 1_555
C12 C13 1_555 1_555
C13 H7 1_555 1_555
C14 C13 1_555 1_555
H8 C14 1_555 1_555
C15 C14 1_555 1_555
H9 C15 1_555 1_555
C16 H10 1_555 1_555
H11 C16 1_555 1_555
C17 C16 1_555 1_555
H12 C17 1_555 1_555
H13 C17 1_555 1_555
Tb1 O1 1_555 1_555
O1 C1 1_555 1_555
O2 C1 1_555 1_555
O3 C6 1_555 1_555
O4 C6 1_555 1_555
O5 C11 1_555 1_555
O6 C11 1_555 1_555
O7 C16 1_555 1_555
H14 O7 1_555 1_555
O8 C17 1_555 1_555
H15 O8 1_555 1_555
O9 C2 1_555 1_555
O10 C7 1_555 1_555
O11 C12 1_555 1_555
Tb1B O4 1_555 1_555
Tb1B_2 O6 1_555 1_555
O4B Tb1 1_555 1_555
O6B Tb1 1_555 1_555
C5 O9 1_555 1_555
C10 O10 1_555 1_555
C15 O11 1_555 1_555
Tb1 O2 1_555 1_555
Tb1 O3 1_555 1_555
Tb1 O5 1_555 1_555
Tb1 O7 1_555 1_555
Tb1 O8 1_555 1_555

#END
