
#######################################################################
#
#                 Cambridge Crystallographic Data Centre
#                                CCDC 
#
#######################################################################
#
# If this CIF has been generated from an entry in the Cambridge 
# Structural Database, then it will include bibliographic, chemical, 
# crystal, experimental, refinement or atomic coordinate data resulting 
# from the CCDC's data processing and validation procedures.
#
#######################################################################

data_TAKRUU
_symmetry_cell_setting           triclinic
_symmetry_space_group_name_H-M   'P -1'
_symmetry_Int_Tables_number      2
_space_group_name_Hall           '-P 1'
loop_
_symmetry_equiv_pos_site_id
_symmetry_equiv_pos_as_xyz
1 x,y,z
2 -x,-y,-z
_cell_length_a                   8.1983(14)
_cell_length_b                   10.5672(18)
_cell_length_c                   13.057(2)
_cell_angle_alpha                94.034(2)
_cell_angle_beta                 103.297(2)
_cell_angle_gamma                107.688(2)
_cell_volume                     1036.74
loop_
_atom_site_label
_atom_site_type_symbol
_atom_site_fract_x
_atom_site_fract_y
_atom_site_fract_z
Yb1 Yb 0.32825(4) 1.02855(3) 0.18850(2)
Yb2 Yb 0.77741(4) 0.67889(3) 0.39521(2)
O1 O 0.0441(7) 0.8575(5) 0.1457(4)
O2 O -0.0479(7) 0.8188(5) 0.2925(4)
O3 O -0.4206(7) 0.4480(5) 0.3394(4)
O4 O -0.5370(8) 0.2576(5) 0.2264(4)
O5 O 0.5687(6) 1.0271(4) 0.3385(4)
O6 O 0.7366(6) 0.9071(5) 0.4085(4)
O7 O 0.5130(6) 0.6890(5) 0.2713(4)
O8 O 0.3689(7) 0.8164(5) 0.1894(4)
O9 O 0.3965(7) 0.9309(5) -0.1321(4)
O10 O 0.2800(6) 0.9737(5) -0.0005(4)
O11 O 0.8352(6) 0.5474(5) 0.5386(4)
O12 O 0.9804(6) 0.4113(5) 0.6064(4)
N1 N -0.2510(7) 0.5734(5) 0.2085(4)
C1 C -0.1591(9) 0.6448(7) 0.1467(5)
C2 C -0.1710(12) 0.5874(8) 0.0451(6)
H1 H -0.1068 0.6369 0.0027
C3 C -0.2796(13) 0.4556(8) 0.0075(6)
H2 H -0.2894 0.4157 -0.0604
C4 C -0.3724(12) 0.3850(7) 0.0719(6)
H3 H -0.4466 0.2967 0.0479
C5 C -0.3544(9) 0.4465(7) 0.1729(5)
C6 C -0.0451(9) 0.7851(7) 0.1980(6)
C7 C -0.4454(9) 0.3777(6) 0.2529(5)
C8 C 0.6097(9) 0.9230(6) 0.3441(5)
C9 C 0.4856(9) 0.7975(7) 0.2607(5)
C10 C 0.4053(9) 0.9722(7) -0.0383(5)
C11 C 0.9459(8) 0.4880(6) 0.5422(5)
O13 O 0.1100(8) 1.1350(6) 0.1106(5)
H4 H 0.0332 1.0758 0.0631
H5 H 0.0587 1.1618 0.1541
O14 O 0.2193(7) 1.0604(6) 0.3371(4)
H6 H 0.1459 0.9893 0.3426
H7 H 0.2572 1.1148 0.3936
O15 O 1.0142(7) 0.8291(5) 0.5381(4)
H8 H 1.0681 0.8963 0.5156
H9 H 1.0552 0.8315 0.6031
O16 O 0.5907(7) 0.6853(5) 0.5128(4)
H10 H 0.4879 0.6715 0.4773
H11 H 0.5940 0.6532 0.5696
Yb1_2 Yb 1.32825(4) 2.02855(3) 0.18850(2)
Yb1_3 Yb -0.67175(4) 0.02855(3) 0.18850(2)
Yb1A Yb 0.67175(4) 0.97145(3) -0.18850(2)
Yb2_2 Yb -0.22259(4) 0.67889(3) 0.39521(2)
Yb2A Yb 1.22259(4) 0.32111(3) 0.60479(2)
Yb2_3 Yb 0.77741(4) 1.67889(3) 0.39521(2)
Yb2_4 Yb 1.77741(4) 1.67889(3) 0.39521(2)
O1_2 O 1.0441(7) 1.8575(5) 0.1457(4)
O2_2 O 0.9521(7) 1.8188(5) 0.2925(4)
O2_3 O 0.9521(7) 0.8188(5) 0.2925(4)
O3_2 O 0.5794(7) 1.4480(5) 0.3394(4)
O3_3 O 0.5794(7) 0.4480(5) 0.3394(4)
O4_2 O 0.4630(8) 1.2576(5) 0.2264(4)
O4_3 O 1.4630(8) 2.2576(5) 0.2264(4)
O5_2 O 1.5687(6) 2.0271(4) 0.3385(4)
O6_2 O 1.7366(6) 1.9071(5) 0.4085(4)
O6_3 O -0.2634(6) 0.9071(5) 0.4085(4)
O7_2 O 1.5130(6) 1.6890(5) 0.2713(4)
O7_3 O -0.4870(6) 0.6890(5) 0.2713(4)
O8_2 O 1.3689(7) 1.8164(5) 0.1894(4)
O9A O 0.6035(7) 1.0691(5) 0.1321(4)
O9A_2 O 1.6035(7) 2.0691(5) 0.1321(4)
O10A O 0.7200(6) 1.0263(5) 0.0005(4)
O10_2 O 1.2800(6) 1.9737(5) -0.0005(4)
O11A O 1.1648(6) 0.4526(5) 0.4614(4)
O11_2 O -0.1648(6) 0.5474(5) 0.5386(4)
O12A O 1.0196(6) 0.5887(5) 0.3936(4)
O12A_2 O 0.0196(6) 0.5887(5) 0.3936(4)
N1_2 N 0.7490(7) 1.5734(5) 0.2085(4)
N1_3 N 0.7490(7) 0.5734(5) 0.2085(4)
C1_2 C 0.8409(9) 1.6448(7) 0.1467(5)
C2_2 C 0.8290(12) 1.5874(8) 0.0451(6)
H1_2 H 0.8932 1.6369 0.0027
C3_2 C 0.7204(13) 1.4556(8) 0.0075(6)
H2_2 H 0.7106 1.4157 -0.0604
C4_2 C 0.6276(12) 1.3850(7) 0.0719(6)
H3_2 H 0.5534 1.2967 0.0479
C5_2 C 0.6456(9) 1.4465(7) 0.1729(5)
C6_2 C 0.9549(9) 1.7851(7) 0.1980(6)
C7_2 C 0.5546(9) 1.3777(6) 0.2529(5)
C8_2 C 1.6097(9) 1.9230(6) 0.3441(5)
C9_2 C 1.4856(9) 1.7975(7) 0.2607(5)
C10A C 0.5947(9) 1.0278(7) 0.0383(5)
C11A C 1.0541(8) 0.5120(6) 0.4578(5)
O13_2 O 1.1100(8) 2.1350(6) 0.1106(5)
H4_2 H 1.0332 2.0758 0.0631
H5_2 H 1.0587 2.1618 0.1541
O14_2 O 1.2193(7) 2.0604(6) 0.3371(4)
H6_2 H 1.1459 1.9893 0.3426
H7_2 H 1.2572 2.1148 0.3936
O15_2 O 0.0142(7) 0.8291(5) 0.5381(4)
H8_2 H 0.0681 0.8963 0.5156
H9_2 H 0.0552 0.8315 0.6031
O16_2 O -0.4093(7) 0.6853(5) 0.5128(4)
H10_2 H -0.5121 0.6715 0.4773
H11_2 H -0.4060 0.6532 0.5696
O17 O 0.3537(7) 0.8073(5) 0.4608(4)
H12 H 0.3645 0.8667 0.4213
H13 H 0.2479 0.7606 0.4515
O18 O 0.0840(16) 0.7581(10) 0.7320(8)
H14 H 0.1723 0.8108 0.7790
H15 H 0.0152 0.7007 0.7581
O19 O 0.8443(14) 0.5401(12) 0.7772(7)
H16 H 0.7378 0.4917 0.7649
H17 H 0.9067 0.4961 0.7608
loop_
_geom_bond_atom_site_label_1
_geom_bond_atom_site_label_2
_geom_bond_site_symmetry_1
_geom_bond_site_symmetry_2
Yb1 O1 1_555 1_555
Yb2 O6 1_555 1_555
O1 C6 1_555 1_555
O2 C6 1_555 1_555
O3 C7 1_555 1_555
O4 C7 1_555 1_555
O5 Yb1 1_555 1_555
O6 C8 1_555 1_555
O7 Yb2 1_555 1_555
O8 Yb1 1_555 1_555
O9 C10 1_555 1_555
O10 Yb1 1_555 1_555
O11 Yb2 1_555 1_555
O12 C11 1_555 1_555
N1 C1 1_555 1_555
C1 C2 1_555 1_555
C2 H1 1_555 1_555
C3 C2 1_555 1_555
H2 C3 1_555 1_555
C4 C3 1_555 1_555
H3 C4 1_555 1_555
C5 N1 1_555 1_555
C6 C1 1_555 1_555
C7 C5 1_555 1_555
C8 O5 1_555 1_555
C9 O7 1_555 1_555
C10 O10 1_555 1_555
C11 O11 1_555 1_555
O13 Yb1 1_555 1_555
H4 O13 1_555 1_555
H5 O13 1_555 1_555
O14 Yb1 1_555 1_555
H6 O14 1_555 1_555
H7 O14 1_555 1_555
O15 Yb2 1_555 1_555
H8 O15 1_555 1_555
H9 O15 1_555 1_555
O16 Yb2 1_555 1_555
H10 O16 1_555 1_555
H11 O16 1_555 1_555
O17 H12 1_555 1_555
H13 O17 1_555 1_555
O18 H14 1_555 1_555
H15 O18 1_555 1_555
O19 H16 1_555 1_555
H17 O19 1_555 1_555
Yb1_2 O1_2 1_555 1_555
Yb1_3 O4 1_555 1_555
Yb1A O9 1_555 1_555
Yb2_2 O2 1_555 1_555
Yb2A O12 1_555 1_555
Yb2_3 O2_2 1_555 1_555
Yb2_4 O6_2 1_555 1_555
O1_2 C6_2 1_555 1_555
O2_2 C6_2 1_555 1_555
O2_3 Yb2 1_555 1_555
O3_2 Yb2_3 1_555 1_555
O3_3 Yb2 1_555 1_555
O4_2 Yb1 1_555 1_555
O4_3 Yb1_2 1_555 1_555
O5_2 Yb1_2 1_555 1_555
O6_2 C8_2 1_555 1_555
O6_3 Yb2_2 1_555 1_555
O7_2 Yb2_4 1_555 1_555
O7_3 Yb2_2 1_555 1_555
O8_2 Yb1_2 1_555 1_555
O9A Yb1 1_555 1_555
O9A_2 Yb1_2 1_555 1_555
O10A Yb1A 1_555 1_555
O10_2 Yb1_2 1_555 1_555
O11A Yb2A 1_555 1_555
O11_2 Yb2_2 1_555 1_555
O12A Yb2 1_555 1_555
O12A_2 Yb2_2 1_555 1_555
N1_2 Yb2_3 1_555 1_555
N1_3 Yb2 1_555 1_555
C1_2 N1_2 1_555 1_555
C2_2 C1_2 1_555 1_555
H1_2 C2_2 1_555 1_555
C3_2 C2_2 1_555 1_555
H2_2 C3_2 1_555 1_555
C4_2 C3_2 1_555 1_555
H3_2 C4_2 1_555 1_555
C5_2 N1_2 1_555 1_555
C6_2 C1_2 1_555 1_555
C7_2 O3_2 1_555 1_555
C8_2 O5_2 1_555 1_555
C9_2 O7_2 1_555 1_555
C10A C10 1_555 1_555
C11A C11 1_555 1_555
O13_2 Yb1_2 1_555 1_555
H4_2 O13_2 1_555 1_555
H5_2 O13_2 1_555 1_555
O14_2 Yb1_2 1_555 1_555
H6_2 O14_2 1_555 1_555
H7_2 O14_2 1_555 1_555
O15_2 Yb2_2 1_555 1_555
H8_2 O15_2 1_555 1_555
H9_2 O15_2 1_555 1_555
O16_2 Yb2_2 1_555 1_555
H10_2 O16_2 1_555 1_555
H11_2 O16_2 1_555 1_555
O3 Yb2_2 1_555 1_555
O8 C9 1_555 1_555
N1 Yb2_2 1_555 1_555
C4 C5 1_555 1_555
C8 C9 1_555 1_555
O4_2 C7_2 1_555 1_555
O8_2 C9_2 1_555 1_555
O9A C10A 1_555 1_555
O10A C10A 1_555 1_555
O11A C11A 1_555 1_555
O12A C11A 1_555 1_555
C4_2 C5_2 1_555 1_555
C5_2 C7_2 1_555 1_555
C8_2 C9_2 1_555 1_555

#END
