
#######################################################################
#
#                 Cambridge Crystallographic Data Centre
#                                CCDC 
#
#######################################################################
#
# If this CIF has been generated from an entry in the Cambridge 
# Structural Database, then it will include bibliographic, chemical, 
# crystal, experimental, refinement or atomic coordinate data resulting 
# from the CCDC's data processing and validation procedures.
#
#######################################################################

data_TAKYIP
_symmetry_cell_setting           triclinic
_symmetry_space_group_name_H-M   'P -1'
_symmetry_Int_Tables_number      2
_space_group_name_Hall           '-P 1'
loop_
_symmetry_equiv_pos_site_id
_symmetry_equiv_pos_as_xyz
1 x,y,z
2 -x,-y,-z
_cell_length_a                   7.3956(12)
_cell_length_b                   13.575(2)
_cell_length_c                   15.158(2)
_cell_angle_alpha                72.663(2)
_cell_angle_beta                 76.157(2)
_cell_angle_gamma                80.251(2)
_cell_volume                     1402.55
loop_
_atom_site_label
_atom_site_type_symbol
_atom_site_fract_x
_atom_site_fract_y
_atom_site_fract_z
C1 C 0.2809(7) 0.0150(4) 0.3334(3)
C2 C 0.1702(6) 0.1200(3) 0.3110(3)
C3 C 0.0166(6) 0.1552(4) 0.3699(3)
H1 H -0.0237 0.1147 0.4308
C4 C -0.0762(7) 0.2516(4) 0.3369(3)
H2 H -0.1831 0.2751 0.3748
C5 C -0.0110(6) 0.3135(3) 0.2474(3)
C6 C -0.1040(7) 0.4175(4) 0.2031(3)
C7 C 0.1489(6) 0.2735(4) 0.1936(3)
H3 H 0.1972 0.3141 0.1339
C8 C 0.9508(6) -0.2110(3) 0.0658(3)
C9 C 0.8438(6) -0.1057(3) 0.0316(3)
C10 C 0.7220(6) -0.0610(3) 0.0975(3)
H4 H 0.7020 -0.0981 0.1608
C11 C 0.6646(6) 0.0888(3) -0.0191(3)
C12 C 0.5599(6) 0.1964(3) -0.0377(3)
C13 C 0.7817(6) 0.0488(3) -0.0884(3)
H5 H 0.7998 0.0872 -0.1513
C14 C 0.8719(6) -0.0503(3) -0.0617(3)
H6 H 0.9517 -0.0794 -0.1070
C15 C 0.2096(8) 0.4084(4) 0.3898(4)
C16 C 0.2180(7) 0.3075(4) 0.4648(3)
C17 C 0.3469(6) 0.2239(4) 0.4485(3)
H7 H 0.4352 0.2334 0.3923
C18 C 0.2234(7) 0.1179(3) 0.5927(3)
C19 C 0.2329(7) 0.0096(4) 0.6571(3)
C20 C 0.0940(8) 0.1970(4) 0.6156(4)
H8 H 0.0125 0.1862 0.6739
C21 C 0.0881(8) 0.2932(4) 0.5494(4)
H9 H -0.0013 0.3471 0.5616
O1 O 0.6788(5) 0.1985(3) 0.1728(2)
Cu1 Cu 0.44816(8) 0.11034(4) 0.15340(4)
Cu2 Cu 0.5000 0.0000 0.5000
Eu1 Eu -0.53579(3) 0.554870(16) 0.192140(15)
N1 N 0.2343(5) 0.1799(3) 0.2245(3)
N2 N 0.6327(5) 0.0339(3) 0.0724(2)
N3 N 0.3476(5) 0.1311(3) 0.5107(3)
O2 O 0.4083(5) -0.0048(2) 0.2651(2)
O3 O 0.2483(5) -0.0440(3) 0.4133(2)
O4 O -0.0161(5) 0.4693(3) 0.1262(3)
O5 O -0.2671(5) 0.4448(3) 0.2433(2)
O6 O 0.4434(5) 0.2172(2) 0.0333(2)
O7 O 0.5904(5) 0.2553(2) -0.1172(2)
O8 O 0.9117(5) -0.2558(3) 0.1511(2)
O9 O 1.0704(5) -0.2448(3) 0.0042(2)
O10 O 0.3531(5) -0.0567(2) 0.6234(2)
O11 O 0.1290(5) -0.0103(3) 0.7349(2)
O12 O 0.0586(6) 0.4672(3) 0.3960(3)
O13 O 0.3457(5) 0.4237(3) 0.3241(3)
O14 O -0.8404(5) 0.6227(3) 0.2541(2)
O15 O -0.2888(5) 0.5921(2) 0.0588(2)
O16 O -0.7095(4) 0.5810(2) 0.0637(2)
O17 O -0.4933(5) 0.4035(2) 0.1292(2)
H10 H -0.2843 0.6546 0.0250
H11 H -0.2063 0.5413 0.0542
H12 H 0.7551 0.1504 0.1984
H13 H 0.7736 0.2044 0.1274
H14 H -0.7907 0.5412 0.0672
H15 H -0.9078 0.5758 0.2906
H16 H -0.7700 0.6403 0.0476
H17 H -0.9122 0.6587 0.2174
H18 H -0.4672 0.4167 0.0694
H19 H -0.4679 0.3409 0.1593
H20 H -0.3191 0.6770 0.2368
H22 H -0.4673 0.6782 0.3138
O18 O -0.4097(5) 0.6450(3) 0.2731(3)
C1A C 0.7191(7) -0.0150(4) 0.6666(3)
C2A C 0.8298(6) -0.1200(3) 0.6890(3)
C3A C 0.9834(6) -0.1552(4) 0.6301(3)
H1A H 1.0237 -0.1147 0.5692
C4A C 1.0762(7) -0.2516(4) 0.6631(3)
H2A H 1.1831 -0.2751 0.6252
C5A C 1.0110(6) -0.3135(3) 0.7526(3)
C6A C 1.1040(7) -0.4175(4) 0.7969(3)
C7A C 0.8511(6) -0.2735(4) 0.8064(3)
H3A H 0.8028 -0.3141 0.8661
C8A C -0.9508(6) 1.2110(3) -0.0658(3)
C9A C -0.8438(6) 1.1057(3) -0.0316(3)
C10A C -0.7220(6) 1.0610(3) -0.0975(3)
H4A H -0.7020 1.0981 -0.1608
C11A C -0.6646(6) 0.9112(3) 0.0191(3)
C12A C -0.5599(6) 0.8036(3) 0.0377(3)
C13A C -0.7817(6) 0.9512(3) 0.0884(3)
H5A H -0.7998 0.9128 0.1513
C14A C -0.8719(6) 1.0503(3) 0.0617(3)
H6A H -0.9517 1.0794 0.1070
C15A C 0.7904(8) -0.4084(4) 0.6102(4)
C16A C 0.7820(7) -0.3075(4) 0.5352(3)
C17A C 0.6531(6) -0.2239(4) 0.5515(3)
H7A H 0.5648 -0.2334 0.6077
C18A C 0.7766(7) -0.1179(3) 0.4073(3)
C19A C 0.7671(7) -0.0096(4) 0.3429(3)
C20A C 0.9060(8) -0.1970(4) 0.3844(4)
H8A H 0.9875 -0.1862 0.3261
C21A C 0.9119(8) -0.2932(4) 0.4506(4)
H9A H 1.0013 -0.3471 0.4384
O1A O 0.3212(5) -0.1985(3) 0.8272(2)
Cu1A Cu 0.55184(8) -0.11034(4) 0.84660(4)
Cu1A_2 Cu -0.44816(8) 0.88966(4) -0.15340(4)
Eu1A Eu 1.53579(3) -0.554870(16) 0.807860(15)
Eu1A_2 Eu 0.53579(3) 0.445130(16) -0.192140(15)
Eu1_2 Eu 0.46421(3) 0.554870(16) 0.192140(15)
Eu1A_3 Eu 0.53579(3) -0.554870(16) 0.807860(15)
N1A N 0.7657(5) -0.1799(3) 0.7755(3)
N2A N -0.6327(5) 0.9661(3) -0.0724(2)
N2A_2 N 0.3673(5) -0.0339(3) 0.9276(2)
N3A N 0.6524(5) -0.1311(3) 0.4893(3)
O2A O 0.5917(5) 0.0048(2) 0.7349(2)
O3A O 0.7517(5) 0.0440(3) 0.5867(2)
O4A O 1.0161(5) -0.4693(3) 0.8738(3)
O5A O 1.2671(5) -0.4448(3) 0.7567(2)
O6A O -0.4434(5) 0.7828(2) -0.0333(2)
O6A_2 O 0.5566(5) -0.2172(2) 0.9667(2)
O7A O -0.5904(5) 0.7447(2) 0.1172(2)
O7_2 O 1.5904(5) -0.7447(2) 0.8828(2)
O8A O -0.9117(5) 1.2558(3) -0.1511(2)
O9A O -1.0704(5) 1.2448(3) -0.0042(2)
O10A O 0.6469(5) 0.0567(2) 0.3766(2)
O11A O 0.8710(5) 0.0103(3) 0.2651(2)
O12A O 0.9414(6) -0.4672(3) 0.6040(3)
O13A O 0.6543(5) -0.4237(3) 0.6759(3)
O13_2 O -0.6543(5) 0.4237(3) 0.3241(3)
O13A_2 O 1.6543(5) -0.4237(3) 0.6759(3)
O14A O 1.8404(5) -0.6227(3) 0.7459(2)
O15A O 1.2888(5) -0.5921(2) 0.9412(2)
O16A O 1.7095(4) -0.5810(2) 0.9363(2)
O17A O 1.4933(5) -0.4035(2) 0.8708(2)
H10A H 1.2843 -0.6546 0.9750
H11A H 1.2063 -0.5413 0.9458
H12A H 0.2449 -0.1504 0.8016
H13A H 0.2264 -0.2044 0.8726
H14A H 1.7907 -0.5412 0.9328
H15A H 1.9078 -0.5758 0.7094
H16A H 1.7700 -0.6403 0.9524
H17A H 1.9122 -0.6587 0.7826
H18A H 1.4672 -0.4167 0.9306
H19A H 1.4679 -0.3409 0.8407
H20A H 1.3191 -0.6770 0.7632
H22A H 1.4673 -0.6782 0.6862
O18A O 1.4097(5) -0.6450(3) 0.7269(3)
H21 H 0.3738 0.8058 0.4081
H23 H 0.3531 0.7070 0.4476
O19 O 0.4033(8) 0.7484(3) 0.3934(3)
O20 O 0.3368(8) 0.5684(4) 0.5371(4)
H24 H 0.2220 0.5640 0.5403
H25 H 0.3547 0.5532 0.5931
loop_
_geom_bond_atom_site_label_1
_geom_bond_atom_site_label_2
_geom_bond_site_symmetry_1
_geom_bond_site_symmetry_2
C1 C2 1_555 1_555
C2 C3 1_555 1_555
C3 H1 1_555 1_555
C4 C3 1_555 1_555
H2 C4 1_555 1_555
C5 C4 1_555 1_555
C6 C5 1_555 1_555
C7 C5 1_555 1_555
H3 C7 1_555 1_555
C8 C9 1_555 1_555
C9 C10 1_555 1_555
C10 H4 1_555 1_555
C11 C12 1_555 1_555
C12 O6 1_555 1_555
C13 C11 1_555 1_555
H5 C13 1_555 1_555
C14 C9 1_555 1_555
H6 C14 1_555 1_555
C15 C16 1_555 1_555
C16 C17 1_555 1_555
C17 H7 1_555 1_555
C18 C19 1_555 1_555
C19 O10 1_555 1_555
C20 C18 1_555 1_555
H8 C20 1_555 1_555
C21 C16 1_555 1_555
H9 C21 1_555 1_555
O1 Cu1 1_555 1_555
Cu1 N1 1_555 1_555
Cu2 N3 1_555 1_555
Eu1 O5 1_555 1_555
N1 C2 1_555 1_555
N2 C10 1_555 1_555
N3 C17 1_555 1_555
O2 C1 1_555 1_555
O3 C1 1_555 1_555
O4 C6 1_555 1_555
O5 C6 1_555 1_555
O6 Cu1 1_555 1_555
O7 C12 1_555 1_555
O8 C8 1_555 1_555
O9 C8 1_555 1_555
O10 Cu2 1_555 1_555
O11 C19 1_555 1_555
O12 C15 1_555 1_555
O13 C15 1_555 1_555
O14 Eu1 1_555 1_555
O15 Eu1 1_555 1_555
O16 Eu1 1_555 1_555
O17 Eu1 1_555 1_555
H10 O15 1_555 1_555
H11 O15 1_555 1_555
H12 O1 1_555 1_555
H13 O1 1_555 1_555
H14 O16 1_555 1_555
H15 O14 1_555 1_555
H16 O16 1_555 1_555
H17 O14 1_555 1_555
H18 O17 1_555 1_555
H19 O17 1_555 1_555
H20 O18 1_555 1_555
H21 O19 1_555 1_555
H22 O18 1_555 1_555
H23 O19 1_555 1_555
O18 Eu1 1_555 1_555
O20 H24 1_555 1_555
H25 O20 1_555 1_555
C1A C2A 1_555 1_555
C2A C3A 1_555 1_555
C3A H1A 1_555 1_555
C4A C3A 1_555 1_555
H2A C4A 1_555 1_555
C5A C4A 1_555 1_555
C6A C5A 1_555 1_555
C7A C5A 1_555 1_555
H3A C7A 1_555 1_555
C8A C9A 1_555 1_555
C9A C10A 1_555 1_555
C10A H4A 1_555 1_555
C11A C12A 1_555 1_555
C12A O6A 1_555 1_555
C13A C11A 1_555 1_555
H5A C13A 1_555 1_555
C14A C9A 1_555 1_555
H6A C14A 1_555 1_555
C15A C16A 1_555 1_555
C16A C17A 1_555 1_555
C17A H7A 1_555 1_555
C18A C19A 1_555 1_555
C19A O10A 1_555 1_555
C20A C18A 1_555 1_555
H8A C20A 1_555 1_555
C21A C16A 1_555 1_555
H9A C21A 1_555 1_555
O1A Cu1A 1_555 1_555
Cu1A N1A 1_555 1_555
Cu1A_2 N2A 1_555 1_555
Eu1A O5A 1_555 1_555
Eu1A_2 O7 1_555 1_555
Eu1_2 O13 1_555 1_555
Eu1A_3 O13A 1_555 1_555
N1A C2A 1_555 1_555
N2A C10A 1_555 1_555
N2A_2 Cu1A 1_555 1_555
N3A Cu2 1_555 1_555
O2A C1A 1_555 1_555
O3A Cu2 1_555 1_555
O4A C6A 1_555 1_555
O5A C6A 1_555 1_555
O6A Cu1A_2 1_555 1_555
O6A_2 Cu1A 1_555 1_555
O7A Eu1 1_555 1_555
O7_2 Eu1A 1_555 1_555
O8A C8A 1_555 1_555
O9A C8A 1_555 1_555
O10A Cu2 1_555 1_555
O11A C19A 1_555 1_555
O12A C15A 1_555 1_555
O13A C15A 1_555 1_555
O13_2 Eu1 1_555 1_555
O13A_2 Eu1A 1_555 1_555
O14A Eu1A 1_555 1_555
O15A Eu1A 1_555 1_555
O16A Eu1A 1_555 1_555
O17A Eu1A 1_555 1_555
H10A O15A 1_555 1_555
H11A O15A 1_555 1_555
H12A O1A 1_555 1_555
H13A O1A 1_555 1_555
H14A O16A 1_555 1_555
H15A O14A 1_555 1_555
H16A O16A 1_555 1_555
H17A O14A 1_555 1_555
H18A O17A 1_555 1_555
H19A O17A 1_555 1_555
H20A O18A 1_555 1_555
H22A O18A 1_555 1_555
O18A Eu1A 1_555 1_555
C7 N1 1_555 1_555
C11 N2 1_555 1_555
C13 C14 1_555 1_555
C18 N3 1_555 1_555
C20 C21 1_555 1_555
Cu1 N2 1_555 1_555
Cu1 O2 1_555 1_555
Cu2 O3 1_555 1_555
C1A O3A 1_555 1_555
C7A N1A 1_555 1_555
C11A N2A 1_555 1_555
C12A O7A 1_555 1_555
C13A C14A 1_555 1_555
C17A N3A 1_555 1_555
C18A N3A 1_555 1_555
C20A C21A 1_555 1_555
Cu1A O2A 1_555 1_555

#END
