
#######################################################################
#
#                 Cambridge Crystallographic Data Centre
#                                CCDC 
#
#######################################################################
#
# If this CIF has been generated from an entry in the Cambridge 
# Structural Database, then it will include bibliographic, chemical, 
# crystal, experimental, refinement or atomic coordinate data resulting 
# from the CCDC's data processing and validation procedures.
#
#######################################################################

data_TAKYIP01
_symmetry_cell_setting           triclinic
_symmetry_space_group_name_H-M   'P -1'
_symmetry_Int_Tables_number      2
_space_group_name_Hall           '-P 1'
loop_
_symmetry_equiv_pos_site_id
_symmetry_equiv_pos_as_xyz
1 x,y,z
2 -x,-y,-z
_cell_length_a                   7.4140(7)
_cell_length_b                   13.6088(12)
_cell_length_c                   15.1961(14)
_cell_angle_alpha                72.6560(10)
_cell_angle_beta                 76.1240(10)
_cell_angle_gamma                80.1680(10)
_cell_volume                     1412.62
loop_
_atom_site_label
_atom_site_type_symbol
_atom_site_fract_x
_atom_site_fract_y
_atom_site_fract_z
Eu1 Eu 1.03592(3) 0.445211(18) 0.307804(17)
Cu1 Cu 0.94821(9) 0.11027(5) 0.65341(4)
Cu2 Cu 1.0000 1.0000 0.0000
O1 O 0.9929(6) 0.5955(3) 0.3710(3)
H1 H 0.9455 0.6573 0.3483
H2 H 0.9741 0.5833 0.4389
O2 O 1.2100(5) 0.4198(3) 0.4363(3)
H3 H 1.2356 0.3640 0.4771
H4 H 1.3087 0.4502 0.4142
O3 O 0.7883(5) 0.4089(3) 0.4411(3)
H5 H 0.6699 0.4165 0.4575
H6 H 0.8253 0.3457 0.4638
O4 O 1.3417(6) 0.3773(3) 0.2468(3)
H7 H 1.4080 0.4189 0.2026
H8 H 1.4143 0.3250 0.2689
O5 O 0.9085(7) 0.3546(4) 0.2267(3)
H9 H 1.0027 0.3093 0.2243
H10 H 0.8116 0.3228 0.2506
O6 O 1.1799(6) 0.1988(3) 0.6722(3)
H11 H 1.2457 0.1567 0.7090
H12 H 1.2406 0.2046 0.6162
O7 O 1.1549(6) 0.5766(3) 0.1757(3)
O8 O 1.4423(7) 0.5324(4) 0.1044(4)
O9 O 1.1473(5) 1.0567(3) -0.1235(3)
O10 O 1.3712(6) 1.0106(3) -0.2351(3)
O11 O 1.0902(5) 0.2551(3) 0.3826(3)
O12 O 0.9435(5) 0.2167(3) 0.5329(3)
O13 O 1.5704(5) -0.2442(3) 0.5042(3)
O14 O 1.4113(6) -0.2560(3) 0.6506(3)
O15 O 0.0909(5) 1.0044(3) 0.2348(3)
O16 O 0.2512(6) 1.0438(3) 0.0866(3)
O17 O 0.5156(6) 0.5315(3) 0.3738(3)
O18 O 0.7657(5) 0.5561(3) 0.2563(3)
N1 N 1.1536(6) 0.8685(3) -0.0112(3)
N2 N 0.2649(6) 0.8199(3) 0.2756(3)
N3 N 1.1324(6) 0.0344(3) 0.5724(3)
C1 C 0.4839(7) 0.8455(4) 0.1303(4)
H13 H 0.5243 0.8865 0.0698
C2 C 0.5769(7) 0.7494(4) 0.1625(4)
H14 H 0.6837 0.7259 0.1247
C3 C 0.5102(7) 0.6876(4) 0.2522(4)
C4 C 0.3515(7) 0.7256(4) 0.3063(4)
H15 H 0.3037 0.6844 0.3656
C5 C 0.3299(7) 0.8796(4) 0.1892(4)
C6 C 0.6048(7) 0.5822(4) 0.2974(4)
C7 C 0.2189(8) 0.9847(4) 0.1669(4)
C8 C 1.2215(7) -0.0610(4) 0.5980(4)
H16 H 1.2012 -0.0981 0.6611
C9 C 1.3435(7) -0.1055(4) 0.5318(4)
C10 C 1.3717(7) -0.0499(4) 0.4386(4)
H17 H 1.4515 -0.0789 0.3934
C11 C 1.2818(7) 0.0490(4) 0.4118(4)
H18 H 1.3005 0.0876 0.3492
C12 C 1.1640(7) 0.0882(4) 0.4811(4)
C13 C 1.4499(7) -0.2113(4) 0.5651(4)
C14 C 1.0598(7) 0.1953(4) 0.4625(4)
C15 C 1.4124(9) 0.7075(5) -0.0499(4)
H19 H 1.4996 0.6533 -0.0628
C16 C 1.4087(9) 0.8030(5) -0.1153(4)
H20 H 1.4920 0.8140 -0.1730
C17 C 1.2793(8) 0.8811(4) -0.0932(4)
C18 C 1.1527(8) 0.7765(4) 0.0509(4)
H21 H 1.0621 0.7671 0.1060
C19 C 1.2842(8) 0.6929(4) 0.0359(4)
C20 C 1.2666(8) 0.9909(4) -0.1571(4)
C21 C 1.2911(9) 0.5930(4) 0.1101(4)
Eu1A Eu 0.96408(3) 1.554789(18) -0.307804(17)
Cu1A Cu 1.05179(9) 1.88973(5) -0.65341(4)
Cu1A_2 Cu 0.05179(9) 0.88973(5) 0.34659(4)
Cu1_2 Cu 1.94821(9) 1.11027(5) -0.34659(4)
O1A O 1.0071(6) 1.4045(3) -0.3710(3)
H1A H 1.0545 1.3427 -0.3483
H2A H 1.0259 1.4167 -0.4389
O2A O 0.7900(5) 1.5802(3) -0.4363(3)
H3A H 0.7644 1.6360 -0.4771
H4A H 0.6913 1.5498 -0.4142
O3A O 1.2117(5) 1.5911(3) -0.4411(3)
H5A H 1.3301 1.5835 -0.4575
H6A H 1.1747 1.6543 -0.4638
O4A O 0.6583(6) 1.6227(3) -0.2468(3)
H7A H 0.5920 1.5811 -0.2026
H8A H 0.5857 1.6750 -0.2689
O5A O 1.0915(7) 1.6454(4) -0.2267(3)
H9A H 0.9973 1.6907 -0.2243
H10A H 1.1884 1.6772 -0.2506
O6A O 0.8201(6) 1.8012(3) -0.6722(3)
H11A H 0.7543 1.8433 -0.7090
H12A H 0.7594 1.7954 -0.6162
O7A O 0.8451(6) 1.4234(3) -0.1757(3)
O8A O 0.5577(7) 1.4676(4) -0.1044(4)
O9A O 0.8527(5) 0.9433(3) 0.1235(3)
O10A O 0.6288(6) 0.9894(3) 0.2351(3)
O11A O 0.9098(5) 1.7449(3) -0.3826(3)
O12A O 1.0565(5) 1.7833(3) -0.5329(3)
O13A O 0.4296(5) 2.2442(3) -0.5042(3)
O14A O 0.5887(6) 2.2560(3) -0.6506(3)
O15A O 1.9091(5) 0.9956(3) -0.2348(3)
O15A_2 O 0.9091(5) -0.0044(3) 0.7652(3)
O15_2 O 1.0909(5) 2.0044(3) -0.7652(3)
O16A O 1.7488(6) 0.9562(3) -0.0866(3)
O17A O 1.4844(6) 1.4685(3) -0.3738(3)
O18A O 1.2343(5) 1.4439(3) -0.2563(3)
N1A N 0.8464(6) 1.1315(3) 0.0112(3)
N2A N 1.7351(6) 1.1801(3) -0.2756(3)
N2A_2 N 0.7351(6) 0.1801(3) 0.7244(3)
N2_2 N 1.2649(6) 1.8199(3) -0.7244(3)
N3A N 0.8676(6) 1.9656(3) -0.5724(3)
C1A C 1.5161(7) 1.1545(4) -0.1303(4)
H13A H 1.4757 1.1135 -0.0698
C2A C 1.4231(7) 1.2506(4) -0.1625(4)
H14A H 1.3163 1.2741 -0.1247
C3A C 1.4898(7) 1.3124(4) -0.2522(4)
C4A C 1.6485(7) 1.2744(4) -0.3063(4)
H15A H 1.6963 1.3156 -0.3656
C5A C 1.6701(7) 1.1204(4) -0.1892(4)
C6A C 1.3952(7) 1.4178(4) -0.2974(4)
C7A C 1.7811(8) 1.0153(4) -0.1669(4)
C8A C 0.7785(7) 2.0610(4) -0.5980(4)
H16A H 0.7988 2.0981 -0.6611
C9A C 0.6565(7) 2.1055(4) -0.5318(4)
C10A C 0.6283(7) 2.0499(4) -0.4386(4)
H17A H 0.5485 2.0789 -0.3934
C11A C 0.7182(7) 1.9510(4) -0.4118(4)
H18A H 0.6995 1.9124 -0.3492
C12A C 0.8360(7) 1.9118(4) -0.4811(4)
C13A C 0.5501(7) 2.2113(4) -0.5651(4)
C14A C 0.9402(7) 1.8047(4) -0.4625(4)
C15A C 0.5876(9) 1.2925(5) 0.0499(4)
H19A H 0.5004 1.3467 0.0628
C16A C 0.5913(9) 1.1970(5) 0.1153(4)
H20A H 0.5080 1.1860 0.1730
C17A C 0.7207(8) 1.1189(4) 0.0932(4)
C18A C 0.8473(8) 1.2235(4) -0.0509(4)
H21A H 0.9379 1.2329 -0.1060
C19A C 0.7158(8) 1.3071(4) -0.0359(4)
C20A C 0.7334(8) 1.0091(4) 0.1571(4)
C21A C 0.7089(9) 1.4070(4) -0.1101(4)
O19 O 0.8338(10) 0.5689(5) 0.0420(5)
H22 H 0.8155 0.5089 0.0442
H23 H 0.8126 0.6117 -0.0082
O20 O 0.1006(10) 0.2525(4) 0.1050(4)
H24 H 0.1614 0.1934 0.1216
H25 H 0.0088 0.2443 0.0844
loop_
_geom_bond_atom_site_label_1
_geom_bond_atom_site_label_2
_geom_bond_site_symmetry_1
_geom_bond_site_symmetry_2
Eu1 O1 1_555 1_555
Cu1 O6 1_555 1_555
Cu2 O9 1_555 1_555
O1 H1 1_555 1_555
H2 O1 1_555 1_555
O2 Eu1 1_555 1_555
H3 O2 1_555 1_555
H4 O2 1_555 1_555
O3 Eu1 1_555 1_555
H5 O3 1_555 1_555
H6 O3 1_555 1_555
O4 Eu1 1_555 1_555
H7 O4 1_555 1_555
H8 O4 1_555 1_555
O5 Eu1 1_555 1_555
H9 O5 1_555 1_555
H10 O5 1_555 1_555
O6 H11 1_555 1_555
H12 O6 1_555 1_555
O7 Eu1 1_555 1_555
O8 C21 1_555 1_555
O9 C20 1_555 1_555
O10 C20 1_555 1_555
O11 Eu1 1_555 1_555
O12 Cu1 1_555 1_555
O13 C13 1_555 1_555
O14 C13 1_555 1_555
O15 C7 1_555 1_555
O16 C7 1_555 1_555
O17 C6 1_555 1_555
O18 Eu1 1_555 1_555
N1 Cu2 1_555 1_555
N2 C4 1_555 1_555
N3 Cu1 1_555 1_555
C1 H13 1_555 1_555
C2 C1 1_555 1_555
H14 C2 1_555 1_555
C3 C2 1_555 1_555
C4 C3 1_555 1_555
H15 C4 1_555 1_555
C5 N2 1_555 1_555
C6 O18 1_555 1_555
C7 C5 1_555 1_555
C8 N3 1_555 1_555
H16 C8 1_555 1_555
C9 C8 1_555 1_555
C10 C9 1_555 1_555
H17 C10 1_555 1_555
C11 C10 1_555 1_555
H18 C11 1_555 1_555
C12 N3 1_555 1_555
C13 C9 1_555 1_555
C14 O11 1_555 1_555
C15 H19 1_555 1_555
C16 C15 1_555 1_555
H20 C16 1_555 1_555
C17 N1 1_555 1_555
C18 N1 1_555 1_555
H21 C18 1_555 1_555
C19 C15 1_555 1_555
C20 C17 1_555 1_555
C21 O7 1_555 1_555
O19 H22 1_555 1_555
H23 O19 1_555 1_555
O20 H24 1_555 1_555
H25 O20 1_555 1_555
Eu1A O1A 1_555 1_555
Cu1A O6A 1_555 1_555
Cu1A_2 O15 1_555 1_555
Cu1_2 O15A 1_555 1_555
O1A H1A 1_555 1_555
H2A O1A 1_555 1_555
O2A Eu1A 1_555 1_555
H3A O2A 1_555 1_555
H4A O2A 1_555 1_555
O3A Eu1A 1_555 1_555
H5A O3A 1_555 1_555
H6A O3A 1_555 1_555
O4A Eu1A 1_555 1_555
H7A O4A 1_555 1_555
H8A O4A 1_555 1_555
O5A Eu1A 1_555 1_555
H9A O5A 1_555 1_555
H10A O5A 1_555 1_555
O6A H11A 1_555 1_555
H12A O6A 1_555 1_555
O7A Eu1A 1_555 1_555
O8A C21A 1_555 1_555
O9A Cu2 1_555 1_555
O10A C20A 1_555 1_555
O11A Eu1A 1_555 1_555
O12A Cu1A 1_555 1_555
O13A C13A 1_555 1_555
O14A C13A 1_555 1_555
O15A C7A 1_555 1_555
O15A_2 Cu1 1_555 1_555
O15_2 Cu1A 1_555 1_555
O16A C7A 1_555 1_555
O17A C6A 1_555 1_555
O18A Eu1A 1_555 1_555
N1A Cu2 1_555 1_555
N2A Cu1_2 1_555 1_555
N2A_2 Cu1 1_555 1_555
N2_2 Cu1A 1_555 1_555
N3A Cu1A 1_555 1_555
C1A H13A 1_555 1_555
C2A C1A 1_555 1_555
H14A C2A 1_555 1_555
C3A C2A 1_555 1_555
C4A N2A 1_555 1_555
H15A C4A 1_555 1_555
C5A N2A 1_555 1_555
C6A O18A 1_555 1_555
C7A C5A 1_555 1_555
C8A N3A 1_555 1_555
H16A C8A 1_555 1_555
C9A C8A 1_555 1_555
C10A C9A 1_555 1_555
H17A C10A 1_555 1_555
C11A C10A 1_555 1_555
H18A C11A 1_555 1_555
C12A N3A 1_555 1_555
C13A C9A 1_555 1_555
C14A O11A 1_555 1_555
C15A H19A 1_555 1_555
C16A C15A 1_555 1_555
H20A C16A 1_555 1_555
C17A N1A 1_555 1_555
C18A N1A 1_555 1_555
H21A C18A 1_555 1_555
C19A C15A 1_555 1_555
C20A O9A 1_555 1_555
C21A O7A 1_555 1_555
O12 C14 1_555 1_555
N2 Cu1A_2 1_555 1_555
C1 C5 1_555 1_555
C3 C6 1_555 1_555
C11 C12 1_555 1_555
C12 C14 1_555 1_555
C16 C17 1_555 1_555
C18 C19 1_555 1_555
C19 C21 1_555 1_555
O12A C14A 1_555 1_555
C1A C5A 1_555 1_555
C3A C4A 1_555 1_555
C3A C6A 1_555 1_555
C11A C12A 1_555 1_555
C12A C14A 1_555 1_555
C16A C17A 1_555 1_555
C17A C20A 1_555 1_555
C18A C19A 1_555 1_555
C19A C21A 1_555 1_555

#END
