
#######################################################################
#
#                 Cambridge Crystallographic Data Centre
#                                CCDC 
#
#######################################################################
#
# If this CIF has been generated from an entry in the Cambridge 
# Structural Database, then it will include bibliographic, chemical, 
# crystal, experimental, refinement or atomic coordinate data resulting 
# from the CCDC's data processing and validation procedures.
#
#######################################################################

data_TALBOY
_symmetry_cell_setting           monoclinic
_symmetry_space_group_name_H-M   'P 21/n'
_symmetry_Int_Tables_number      14
_space_group_name_Hall           '-P 2yn'
loop_
_symmetry_equiv_pos_site_id
_symmetry_equiv_pos_as_xyz
1 x,y,z
2 1/2+x,1/2-y,1/2+z
3 -x,-y,-z
4 1/2-x,1/2+y,1/2-z
_cell_length_a                   8.9936(4)
_cell_length_b                   16.2164(7)
_cell_length_c                   12.4217(5)
_cell_angle_alpha                90
_cell_angle_beta                 101.9990(10)
_cell_angle_gamma                90
_cell_volume                     1772.05
loop_
_atom_site_label
_atom_site_type_symbol
_atom_site_fract_x
_atom_site_fract_y
_atom_site_fract_z
Cd1 Cd 0.57627(2) 0.263460(10) 0.368440(10)
S1 S 1.28061(7) 0.32047(4) 0.10897(5)
Na1 Na 0.91300(10) 0.12856(6) 0.35857(9)
O1 O 0.8393(3) 0.26310(10) 0.3260(2)
O2 O 0.7039(2) 0.37590(10) 0.3188(2)
O3 O 0.8921(2) 0.63410(10) 0.1917(2)
O4 O 1.0869(2) 0.63690(10) 0.1119(2)
O5 O 1.1992(2) 0.24910(10) 0.0534(2)
O6 O 1.3938(2) 0.29550(10) 0.2033(2)
O7 O 1.3389(2) 0.37470(10) 0.0351(2)
O8 O 1.1045(3) 0.1284(2) 0.2201(2)
O9 O 1.1562(3) 0.1145(2) 0.4778(2)
O10 O 0.9322(3) -0.01540(10) 0.3457(2)
N1 N 0.4110(2) 0.34110(10) 0.4429(2)
C1 C 0.8188(3) 0.3373(2) 0.3024(2)
C2 C 0.9310(3) 0.38170(10) 0.2497(2)
C3 C 0.9181(3) 0.46600(10) 0.2310(2)
C4 C 1.0161(3) 0.50710(10) 0.1766(2)
C5 C 1.1273(3) 0.46260(10) 0.1390(2)
C6 C 1.1410(3) 0.37840(10) 0.1583(2)
C7 C 1.0445(3) 0.33820(10) 0.2143(2)
C8 C 0.9976(3) 0.59850(10) 0.1580(2)
C9 C 0.3838(3) 0.4207(2) 0.4162(2)
C10 C 0.2649(3) 0.4637(2) 0.4419(2)
C11 C 0.1642(3) 0.4246(2) 0.4961(2)
C12 C 0.1959(3) 0.3433(2) 0.5272(2)
C13 C 0.3183(3) 0.3048(2) 0.4994(2)
C14 C 0.0258(3) 0.4633(2) 0.5174(2)
H1 H 1.126 0.154 0.165
H2 H 1.183 0.130 0.272
H3 H 1.149 0.085 0.533
H4 H 1.247 0.114 0.468
H5 H 0.903 -0.044 0.287
H6 H 1.018 -0.034 0.379
H7 H 0.8426 0.4954 0.2553
H8 H 1.1923 0.4892 0.1010
H9 H 1.0559 0.2820 0.2282
H10 H 0.4487 0.4478 0.3786
H11 H 0.2515 0.5191 0.4230
H12 H 0.1346 0.3150 0.5666
H13 H 0.3378 0.2503 0.5211
H14 H -0.0303 0.4335 0.5590
C14B C -0.0258(3) 0.5367(2) 0.4826(2)
C11B C -0.1642(3) 0.5754(2) 0.5039(2)
C10B C -0.2649(3) 0.5363(2) 0.5581(2)
C9B C -0.3838(3) 0.5793(2) 0.5838(2)
N1B N -0.4110(2) 0.65890(10) 0.5571(2)
C13B C -0.3183(3) 0.6952(2) 0.5006(2)
C12B C -0.1959(3) 0.6567(2) 0.4728(2)
H12B H -0.1346 0.6850 0.4334
H13B H -0.3378 0.7497 0.4789
H10B H -0.4487 0.5522 0.6214
H11B H -0.2515 0.4809 0.5770
H14B H 0.0303 0.5665 0.4410
S1C S 0.21939(7) -0.17953(4) 0.39103(5)
O1C O 0.6607(3) -0.23690(10) 0.1740(2)
O2C O 0.7961(2) -0.12410(10) 0.1812(2)
O3C O 0.6079(2) 0.13410(10) 0.3083(2)
O4C O 0.4131(2) 0.13690(10) 0.3881(2)
O5C O 0.3008(2) -0.25090(10) 0.4466(2)
O6C O 0.1062(2) -0.20450(10) 0.2967(2)
O7C O 0.1611(2) -0.12530(10) 0.4649(2)
C1C C 0.6812(3) -0.1627(2) 0.1976(2)
C2C C 0.5690(3) -0.11830(10) 0.2503(2)
C3C C 0.5819(3) -0.03400(10) 0.2690(2)
C4C C 0.4839(3) 0.00710(10) 0.3234(2)
C5C C 0.3727(3) -0.03740(10) 0.3610(2)
C6C C 0.3590(3) -0.12160(10) 0.3417(2)
C7C C 0.4555(3) -0.16180(10) 0.2857(2)
C8C C 0.5024(3) 0.09850(10) 0.3420(2)
H7C H 0.6574 -0.0046 0.2447
H8C H 0.3077 -0.0108 0.3990
H9C H 0.4441 -0.2180 0.2718
Cd1C Cd 0.92373(2) -0.236540(10) 0.131560(10)
Na1C Na 0.58700(10) -0.37144(6) 0.14143(9)
O8C O 0.3955(3) -0.3716(2) 0.2799(2)
H1C H 0.374 -0.346 0.335
H2C H 0.317 -0.370 0.228
O9C O 0.3438(3) -0.3855(2) 0.0222(2)
H3C H 0.351 -0.415 -0.033
H4C H 0.253 -0.386 0.032
O10C O 0.5678(3) -0.51540(10) 0.1543(2)
H5C H 0.597 -0.544 0.213
H6C H 0.482 -0.534 0.121
O5A O 0.6992(2) 0.25090(10) 0.5534(2)
O6_2 O 0.3938(2) 0.29550(10) 0.2033(2)
O7A O 0.8389(2) 0.12530(10) 0.5351(2)
Cd1C_2 Cd 0.92373(2) 0.763460(10) 0.131560(10)
Na1C_2 Na 0.58700(10) 0.62856(6) 0.14143(9)
Cd1A Cd 1.07627(2) 0.236540(10) -0.131560(10)
Cd1_2 Cd 1.57627(2) 0.263460(10) 0.368440(10)
Na1A Na 1.41300(10) 0.37144(6) -0.14143(9)
Cd1B Cd -0.57627(2) 0.736540(10) 0.631560(10)
Cd1B_2 Cd 0.42373(2) -0.263460(10) 0.631560(10)
Cd1C_3 Cd -0.07627(2) -0.236540(10) 0.131560(10)
Na1B Na 0.08700(10) -0.12856(6) 0.64143(9)
O3_2 O 0.8921(2) -0.36590(10) 0.1917(2)
O4_2 O 1.0869(2) -0.36310(10) 0.1119(2)
O5B O 0.8008(2) -0.24910(10) -0.0534(2)
O6C_2 O 1.1062(2) -0.20450(10) 0.2967(2)
N1C N 1.0890(2) -0.15890(10) 0.0571(2)
O7B O 0.6611(2) -0.37470(10) -0.0351(2)
loop_
_geom_bond_atom_site_label_1
_geom_bond_atom_site_label_2
_geom_bond_site_symmetry_1
_geom_bond_site_symmetry_2
Cd1 O1 1_555 1_555
S1 O5 1_555 1_555
Na1 O1 1_555 1_555
O1 C1 1_555 1_555
O2 Cd1 1_555 1_555
O3 C8 1_555 1_555
O4 C8 1_555 1_555
O5 Cd1A 1_555 1_555
O6 S1 1_555 1_555
O7 S1 1_555 1_555
O8 Na1 1_555 1_555
O9 Na1 1_555 1_555
O10 Na1 1_555 1_555
N1 Cd1 1_555 1_555
C1 O2 1_555 1_555
C2 C1 1_555 1_555
C3 C2 1_555 1_555
C4 C3 1_555 1_555
C5 C4 1_555 1_555
C6 S1 1_555 1_555
C7 C2 1_555 1_555
C8 C4 1_555 1_555
C9 N1 1_555 1_555
C10 C9 1_555 1_555
C11 C10 1_555 1_555
C12 C11 1_555 1_555
C13 N1 1_555 1_555
C14 C11 1_555 1_555
H1 O8 1_555 1_555
H2 O8 1_555 1_555
H3 O9 1_555 1_555
H4 O9 1_555 1_555
H5 O10 1_555 1_555
H6 O10 1_555 1_555
H7 C3 1_555 1_555
H8 C5 1_555 1_555
H9 C7 1_555 1_555
H10 C9 1_555 1_555
H11 C10 1_555 1_555
H12 C12 1_555 1_555
H13 C13 1_555 1_555
H14 C14 1_555 1_555
C14B C14 1_555 1_555
C11B C14B 1_555 1_555
C10B C11B 1_555 1_555
C9B C10B 1_555 1_555
N1B C9B 1_555 1_555
C13B N1B 1_555 1_555
C12B C11B 1_555 1_555
H12B C12B 1_555 1_555
H13B C13B 1_555 1_555
H10B C9B 1_555 1_555
H11B C10B 1_555 1_555
H14B C14B 1_555 1_555
S1C O5C 1_555 1_555
O1C C1C 1_555 1_555
O2C C1C 1_555 1_555
O3C Cd1 1_555 1_555
O4C Cd1 1_555 1_555
O5C Cd1B_2 1_555 1_555
O6C S1C 1_555 1_555
O7C S1C 1_555 1_555
C1C C2C 1_555 1_555
C2C C3C 1_555 1_555
C3C C4C 1_555 1_555
C4C C5C 1_555 1_555
C5C C6C 1_555 1_555
C6C S1C 1_555 1_555
C7C C2C 1_555 1_555
C8C O3C 1_555 1_555
H7C C3C 1_555 1_555
H8C C5C 1_555 1_555
H9C C7C 1_555 1_555
Cd1C O1C 1_555 1_555
Na1C O1C 1_555 1_555
O8C Na1C 1_555 1_555
H1C O8C 1_555 1_555
H2C O8C 1_555 1_555
O9C Na1C 1_555 1_555
H3C O9C 1_555 1_555
H4C O9C 1_555 1_555
O10C Na1C 1_555 1_555
H5C O10C 1_555 1_555
H6C O10C 1_555 1_555
O5A Cd1 1_555 1_555
O6_2 Cd1 1_555 1_555
O7A Na1 1_555 1_555
Cd1C_2 O3 1_555 1_555
Na1C_2 O3 1_555 1_555
Cd1_2 O6 1_555 1_555
Na1A O7 1_555 1_555
Cd1B N1B 1_555 1_555
Cd1C_3 O6C 1_555 1_555
Na1B O7C 1_555 1_555
O3_2 Cd1C 1_555 1_555
O4_2 Cd1C 1_555 1_555
O5B Cd1C 1_555 1_555
O6C_2 Cd1C 1_555 1_555
N1C Cd1C 1_555 1_555
O7B Na1C 1_555 1_555
Na1 O3C 1_555 1_555
O4 Cd1C_2 1_555 1_555
C5 C6 1_555 1_555
C6 C7 1_555 1_555
C12 C13 1_555 1_555
C13B C12B 1_555 1_555
O2C Cd1C 1_555 1_555
O4C C8C 1_555 1_555
C4C C8C 1_555 1_555
C6C C7C 1_555 1_555
Na1C O3_2 1_555 1_555

#END
