
#######################################################################
#
#                 Cambridge Crystallographic Data Centre
#                                CCDC 
#
#######################################################################
#
# If this CIF has been generated from an entry in the Cambridge 
# Structural Database, then it will include bibliographic, chemical, 
# crystal, experimental, refinement or atomic coordinate data resulting 
# from the CCDC's data processing and validation procedures.
#
#######################################################################

data_TALTUX
_symmetry_cell_setting           monoclinic
_symmetry_space_group_name_H-M   'P 21/n'
_symmetry_Int_Tables_number      14
_space_group_name_Hall           '-P 2yn'
loop_
_symmetry_equiv_pos_site_id
_symmetry_equiv_pos_as_xyz
1 x,y,z
2 1/2-x,1/2+y,1/2-z
3 -x,-y,-z
4 1/2+x,1/2-y,1/2+z
_cell_length_a                   8.960(2)
_cell_length_b                   14.703(4)
_cell_length_c                   16.911(5)
_cell_angle_alpha                90
_cell_angle_beta                 90.232(6)
_cell_angle_gamma                90
_cell_volume                     2227.82
loop_
_atom_site_label
_atom_site_type_symbol
_atom_site_fract_x
_atom_site_fract_y
_atom_site_fract_z
Zn1 Zn 0.52210(2) 0.116526(15) 0.366066(13)
N1 N 0.73976(17) 0.15304(11) 0.35367(9)
N2 N 0.51457(16) 0.17145(11) 0.47601(9)
N3 N 0.36829(17) 0.03208(10) 0.41524(9)
N4 N 0.58320(17) 0.02030(11) 0.28701(9)
N5 N 0.9895(2) 0.46426(14) 0.59150(11)
N6 N 0.11196(17) -0.29012(11) 0.19447(9)
C1 C 0.8082(2) 0.21261(13) 0.39898(12)
H1 H 0.9072 0.2289 0.3848
C2 C 0.7482(2) 0.25441(14) 0.46657(12)
C3 C 0.6121(2) 0.22988(13) 0.50358(12)
H2 H 0.5898 0.2583 0.5526
C4 C 0.3891(2) 0.14243(13) 0.51942(11)
C5 C 0.3364(2) 0.18338(14) 0.58805(12)
H3 H 0.3872 0.2347 0.6092
C6 C 0.2108(2) 0.15024(14) 0.62593(12)
H4 H 0.1753 0.1790 0.6725
C7 C 0.1370(2) 0.07493(15) 0.59557(12)
H5 H 0.0519 0.0516 0.6221
C8 C 0.1864(2) 0.03353(14) 0.52694(12)
H6 H 0.1346 -0.0179 0.5067
C9 C 0.3116(2) 0.06650(13) 0.48702(11)
C10 C 0.3125(2) -0.03855(13) 0.37847(11)
H7 H 0.2273 -0.0664 0.4014
C11 C 0.3675(2) -0.07742(13) 0.30743(11)
C12 C 0.5045(2) -0.05171(13) 0.27071(11)
H8 H 0.5416 -0.0909 0.2307
C13 C 0.7272(2) 0.03556(13) 0.25507(12)
C14 C 0.7912(2) -0.01449(15) 0.19419(12)
H9 H 0.7351 -0.0611 0.1689
C15 C 0.9360(2) 0.00296(16) 0.17006(14)
H10 H 0.9793 -0.0322 0.1290
C16 C 1.0174(2) 0.07163(18) 0.20572(15)
H11 H 1.1168 0.0832 0.1893
C17 C 0.9553(2) 0.12328(16) 0.26478(13)
H12 H 1.0119 0.1709 0.2881
C18 C 0.8100(2) 0.10675(14) 0.29101(12)
C19 C 0.8351(2) 0.32680(14) 0.50630(12)
C20 C 0.7626(2) 0.40225(15) 0.53767(13)
H13 H 0.6581 0.4093 0.5304
C21 C 0.8422(3) 0.46694(16) 0.57935(14)
H14 H 0.7884 0.5168 0.6009
C22 C 1.0594(3) 0.39283(17) 0.55991(13)
H15 H 1.1645 0.3892 0.5665
C23 C 0.9894(2) 0.32365(15) 0.51816(12)
H16 H 1.0461 0.2744 0.4977
C24 C 0.2834(2) -0.15175(13) 0.27072(11)
C25 C 0.3006(2) -0.17427(13) 0.19033(11)
H17 H 0.3726 -0.1429 0.1596
C26 C 0.2149(2) -0.24089(13) 0.15564(12)
H18 H 0.2291 -0.2529 0.1010
C27 C 0.0977(2) -0.27174(13) 0.27197(12)
H19 H 0.0283 -0.3065 0.3016
C28 C 0.1779(2) -0.20551(13) 0.31076(12)
H20 H 0.1617 -0.1958 0.3656
Zn1A Zn -0.02210(2) -0.383474(15) 0.133934(13)
N6A N 0.38804(17) 0.20988(11) 0.30553(9)
loop_
_geom_bond_atom_site_label_1
_geom_bond_atom_site_label_2
_geom_bond_site_symmetry_1
_geom_bond_site_symmetry_2
Zn1 N1 1_555 1_555
N1 C1 1_555 1_555
N2 Zn1 1_555 1_555
N3 Zn1 1_555 1_555
N4 Zn1 1_555 1_555
N5 C21 1_555 1_555
N6 C26 1_555 1_555
C1 H1 1_555 1_555
C2 C1 1_555 1_555
C3 N2 1_555 1_555
H2 C3 1_555 1_555
C4 N2 1_555 1_555
C5 C4 1_555 1_555
H3 C5 1_555 1_555
C6 C5 1_555 1_555
H4 C6 1_555 1_555
C7 C6 1_555 1_555
H5 C7 1_555 1_555
C8 C7 1_555 1_555
H6 C8 1_555 1_555
C9 N3 1_555 1_555
C10 N3 1_555 1_555
H7 C10 1_555 1_555
C11 C10 1_555 1_555
C12 N4 1_555 1_555
H8 C12 1_555 1_555
C13 N4 1_555 1_555
C14 C13 1_555 1_555
H9 C14 1_555 1_555
C15 C14 1_555 1_555
H10 C15 1_555 1_555
C16 C15 1_555 1_555
H11 C16 1_555 1_555
C17 C16 1_555 1_555
H12 C17 1_555 1_555
C18 N1 1_555 1_555
C19 C2 1_555 1_555
C20 C19 1_555 1_555
H13 C20 1_555 1_555
C21 C20 1_555 1_555
H14 C21 1_555 1_555
C22 N5 1_555 1_555
H15 C22 1_555 1_555
C23 C19 1_555 1_555
H16 C23 1_555 1_555
C24 C11 1_555 1_555
C25 C24 1_555 1_555
H17 C25 1_555 1_555
C26 C25 1_555 1_555
H18 C26 1_555 1_555
C27 N6 1_555 1_555
H19 C27 1_555 1_555
C28 C24 1_555 1_555
H20 C28 1_555 1_555
Zn1A N6 1_555 1_555
N6A Zn1 1_555 1_555
C2 C3 1_555 1_555
C4 C9 1_555 1_555
C8 C9 1_555 1_555
C11 C12 1_555 1_555
C13 C18 1_555 1_555
C17 C18 1_555 1_555
C22 C23 1_555 1_555
C27 C28 1_555 1_555

#END
