
#######################################################################
#
#                 Cambridge Crystallographic Data Centre
#                                CCDC 
#
#######################################################################
#
# If this CIF has been generated from an entry in the Cambridge 
# Structural Database, then it will include bibliographic, chemical, 
# crystal, experimental, refinement or atomic coordinate data resulting 
# from the CCDC's data processing and validation procedures.
#
#######################################################################

data_TALVEJ
_symmetry_cell_setting           monoclinic
_symmetry_space_group_name_H-M   'P 21/c'
_symmetry_Int_Tables_number      14
_space_group_name_Hall           '-P 2ybc'
loop_
_symmetry_equiv_pos_site_id
_symmetry_equiv_pos_as_xyz
1 x,y,z
2 -x,1/2+y,1/2-z
3 -x,-y,-z
4 x,1/2-y,1/2+z
_cell_length_a                   21.018(16)
_cell_length_b                   10.165(8)
_cell_length_c                   18.029(14)
_cell_angle_alpha                90
_cell_angle_beta                 112.799(12)
_cell_angle_gamma                90
_cell_volume                     3550.91
loop_
_atom_site_label
_atom_site_type_symbol
_atom_site_fract_x
_atom_site_fract_y
_atom_site_fract_z
Cd1 Cd 0.142830(8) 0.224846(18) 0.406074(10)
C1 C -0.22148(11) 0.0388(2) 0.22609(14)
H1 H -0.1950 -0.0102 0.2727
C2 C -0.18808(10) 0.1327(2) 0.19925(13)
C3 C -0.22296(11) 0.2100(2) 0.12787(14)
H2 H -0.1972 0.2745 0.1133
C4 C -0.31646(11) 0.2708(2) 0.01132(14)
C5 C -0.27935(12) 0.3209(2) -0.03224(14)
H3 H -0.2315 0.3023 -0.0151
C6 C -0.31175(13) 0.3973(2) -0.10021(15)
H4 H -0.2860 0.4311 -0.1292
C7 C -0.38135(13) 0.4245(2) -0.12588(15)
H5 H -0.4028 0.4801 -0.1711
C8 C -0.42011(12) 0.3713(2) -0.08631(14)
H6 H -0.4682 0.3885 -0.1052
C9 C -0.38823(11) 0.2924(2) -0.01860(14)
C10 C -0.49149(11) 0.2441(2) 0.00919(14)
H7 H -0.5169 0.3113 -0.0267
C11 C -0.52543(11) 0.1664(2) 0.04509(13)
C12 C -0.49199(11) 0.0625(2) 0.10039(13)
H8 H -0.5190 0.0135 0.1225
C13 C -0.39920(11) -0.0725(2) 0.17867(13)
C14 C -0.43754(11) -0.1659(2) 0.20020(14)
H9 H -0.4864 -0.1656 0.1742
C15 C -0.40556(13) -0.2592(2) 0.25896(15)
H10 H -0.4326 -0.3208 0.2736
C16 C -0.33435(13) -0.2628(2) 0.29634(16)
H11 H -0.3126 -0.3253 0.3376
C17 C -0.29467(12) -0.1748(2) 0.27338(14)
H12 H -0.2457 -0.1792 0.2978
C18 C -0.32636(11) -0.0805(2) 0.21492(13)
C19 C -0.11381(10) 0.1548(2) 0.24535(13)
C20 C -0.07090(11) 0.0540(2) 0.29094(14)
H13 H -0.0895 -0.0307 0.2924
C21 C -0.00170(11) 0.0776(2) 0.33358(15)
H14 H 0.0262 0.0075 0.3639
C22 C -0.01244(11) 0.2917(2) 0.29079(14)
H15 H 0.0079 0.3748 0.2901
C23 C -0.08256(11) 0.2768(2) 0.24672(14)
H16 H -0.1093 0.3490 0.2176
C24 C -0.59995(11) 0.1888(2) 0.02205(13)
C25 C -0.62869(11) 0.3137(2) 0.00060(15)
H17 H -0.5997 0.3871 0.0042
C26 C -0.69877(12) 0.3309(3) -0.02570(15)
H18 H -0.7168 0.4172 -0.0394
C27 C -0.71587(11) 0.1115(2) -0.01094(14)
H19 H -0.7461 0.0401 -0.0149
C28 C -0.64603(11) 0.0867(2) 0.01730(14)
H20 H -0.6292 0.0003 0.0335
C29 C 0.11006(13) 0.4829(3) 0.48953(17)
H21 H 0.1300 0.4327 0.5375
C30 C 0.0466(2) 0.6770(3) 0.4229(2)
H22 H 0.0494 0.6335 0.3757
H23 H 0.0704 0.7621 0.4312
H24 H -0.0019 0.6909 0.4141
C31 C 0.0779(2) 0.6418(3) 0.56895(19)
H25 H 0.0997 0.5764 0.6112
H26 H 0.0300 0.6554 0.5629
H27 H 0.1032 0.7251 0.5838
N1 N -0.28903(9) 0.01246(19) 0.19036(11)
N2 N -0.28776(9) 0.19560(18) 0.08261(11)
N3 N -0.42482(9) 0.22956(19) 0.02233(12)
N4 N -0.42725(9) 0.03063(18) 0.12235(11)
N5 N 0.02838(9) 0.19420(19) 0.33460(12)
N6 N -0.74334(9) 0.23162(19) -0.03314(12)
N7 N 0.14244(11) 0.0491(3) 0.52867(14)
N8 N 0.15653(10) 0.1522(2) 0.25919(13)
N9 N 0.07924(12) 0.5950(2) 0.49333(14)
O1 O 0.14752(9) 0.01102(19) 0.46434(11)
O2 O 0.14497(12) -0.0323(3) 0.58113(13)
O3 O 0.13533(12) 0.1698(2) 0.53736(12)
O4 O 0.14605(10) 0.27018(17) 0.27378(11)
O5 O 0.15567(12) 0.1195(2) 0.19276(12)
O6 O 0.16789(9) 0.06872(17) 0.31495(11)
O7 O 0.11452(9) 0.43945(18) 0.42751(11)
H28 H -0.3148(13) 0.058(3) 0.1468(12)
H29 H -0.4042(14) 0.167(2) 0.0590(14)
Cd1C Cd -0.857170(8) 0.275154(18) -0.093926(10)
N6C N 0.25666(9) 0.26838(19) 0.46686(12)
C32 C -0.36876(15) 0.4817(3) 0.15670(17)
H30 H -0.3316 0.5169 0.1454
C33 C -0.40674(16) 0.3511(3) 0.2438(2)
H31 H -0.4518 0.3804 0.2051
H32 H -0.4008 0.3798 0.2980
H33 H -0.4041 0.2550 0.2425
C34 C -0.28183(15) 0.3793(3) 0.27480(18)
H34 H -0.2506 0.4201 0.2529
H35 H -0.2747 0.2838 0.2782
H36 H -0.2724 0.4146 0.3286
N10 N -0.35259(11) 0.4079(2) 0.22262(14)
O8 O -0.42718(10) 0.50823(19) 0.10945(12)
loop_
_geom_bond_atom_site_label_1
_geom_bond_atom_site_label_2
_geom_bond_site_symmetry_1
_geom_bond_site_symmetry_2
Cd1 N5 1_555 1_555
C1 H1 1_555 1_555
C2 C1 1_555 1_555
C3 C2 1_555 1_555
H2 C3 1_555 1_555
C4 C5 1_555 1_555
C5 H3 1_555 1_555
C6 C5 1_555 1_555
H4 C6 1_555 1_555
C7 C6 1_555 1_555
H5 C7 1_555 1_555
C8 C7 1_555 1_555
H6 C8 1_555 1_555
C9 C4 1_555 1_555
C10 H7 1_555 1_555
C11 C10 1_555 1_555
C12 C11 1_555 1_555
H8 C12 1_555 1_555
C13 C14 1_555 1_555
C14 H9 1_555 1_555
C15 C14 1_555 1_555
H10 C15 1_555 1_555
C16 C15 1_555 1_555
H11 C16 1_555 1_555
C17 C16 1_555 1_555
H12 C17 1_555 1_555
C18 C13 1_555 1_555
C19 C2 1_555 1_555
C20 C19 1_555 1_555
H13 C20 1_555 1_555
C21 C20 1_555 1_555
H14 C21 1_555 1_555
C22 H15 1_555 1_555
C23 C19 1_555 1_555
H16 C23 1_555 1_555
C24 C11 1_555 1_555
C25 C24 1_555 1_555
H17 C25 1_555 1_555
C26 C25 1_555 1_555
H18 C26 1_555 1_555
C27 H19 1_555 1_555
C28 C24 1_555 1_555
H20 C28 1_555 1_555
C29 H21 1_555 1_555
C30 H22 1_555 1_555
H23 C30 1_555 1_555
H24 C30 1_555 1_555
C31 H25 1_555 1_555
H26 C31 1_555 1_555
H27 C31 1_555 1_555
N1 C1 1_555 1_555
N2 C3 1_555 1_555
N3 C9 1_555 1_555
N4 C12 1_555 1_555
N5 C21 1_555 1_555
N6 C26 1_555 1_555
N7 O1 1_555 1_555
N8 O4 1_555 1_555
N9 C29 1_555 1_555
O1 Cd1 1_555 1_555
O2 N7 1_555 1_555
O3 Cd1 1_555 1_555
O4 Cd1 1_555 1_555
O5 N8 1_555 1_555
O6 Cd1 1_555 1_555
O7 Cd1 1_555 1_555
H28 N1 1_555 1_555
H29 N3 1_555 1_555
C32 H30 1_555 1_555
C33 H31 1_555 1_555
H32 C33 1_555 1_555
H33 C33 1_555 1_555
C34 H34 1_555 1_555
H35 C34 1_555 1_555
H36 C34 1_555 1_555
N10 C32 1_555 1_555
O8 C32 1_555 1_555
Cd1C N6 1_555 1_555
N6C Cd1 1_555 1_555
C4 N2 1_555 1_555
C8 C9 1_555 1_555
C10 N3 1_555 1_555
C13 N4 1_555 1_555
C17 C18 1_555 1_555
C18 N1 1_555 1_555
C22 C23 1_555 1_555
C22 N5 1_555 1_555
C27 C28 1_555 1_555
C27 N6 1_555 1_555
C29 O7 1_555 1_555
C30 N9 1_555 1_555
C31 N9 1_555 1_555
N7 O3 1_555 1_555
N8 O6 1_555 1_555
C33 N10 1_555 1_555
C34 N10 1_555 1_555

#END
