
#######################################################################
#
#                 Cambridge Crystallographic Data Centre
#                                CCDC 
#
#######################################################################
#
# If this CIF has been generated from an entry in the Cambridge 
# Structural Database, then it will include bibliographic, chemical, 
# crystal, experimental, refinement or atomic coordinate data resulting 
# from the CCDC's data processing and validation procedures.
#
#######################################################################

data_TALXUB
_symmetry_cell_setting           monoclinic
_symmetry_space_group_name_H-M   'P 21/n'
_symmetry_Int_Tables_number      14
_space_group_name_Hall           '-P 2yn'
loop_
_symmetry_equiv_pos_site_id
_symmetry_equiv_pos_as_xyz
1 x,y,z
2 1/2-x,1/2+y,1/2-z
3 -x,-y,-z
4 1/2+x,1/2-y,1/2+z
_cell_length_a                   13.2480(17)
_cell_length_b                   6.6691(9)
_cell_length_c                   20.339(3)
_cell_angle_alpha                90
_cell_angle_beta                 96.461(3)
_cell_angle_gamma                90
_cell_volume                     1785.58
loop_
_atom_site_label
_atom_site_type_symbol
_atom_site_fract_x
_atom_site_fract_y
_atom_site_fract_z
Cu1 Cu 0.92045(2) 0.75736(5) 0.667491(18)
S1 S 0.91448(5) 0.27312(10) 0.71507(4)
O1 O 0.86606(16) 0.4261(3) 0.67082(10)
O2 O 0.84423(16) 0.1911(3) 0.75886(11)
O3 O 0.96381(15) 0.1158(3) 0.68093(10)
O4 O 0.86093(17) 0.7855(3) 0.75452(11)
H1 H 0.7975(15) 0.748(4) 0.7540(18)
H2 H 0.853(3) 0.910(3) 0.7624(16)
O5 O 0.79159(15) 0.8392(3) 0.61823(11)
N1 N 0.9924(2) 0.7538(3) 0.58686(13)
N2 N 1.06107(19) 0.7094(4) 0.71348(13)
H3 H 1.059(3) 0.778(4) 0.7517(12)
N3 N 0.6254(2) 0.8153(4) 0.58343(14)
C1 C 0.9493(3) 0.7408(4) 0.52392(17)
H4 H 0.8785 0.7249 0.5154
C2 C 1.0066(3) 0.7503(4) 0.47196(18)
H5 H 0.9755 0.7412 0.4282
C3 C 1.1102(3) 0.7732(5) 0.48450(18)
H6 H 1.1505 0.7802 0.4494
C4 C 1.1543(3) 0.7858(5) 0.54914(18)
H7 H 1.2250 0.8007 0.5587
C5 C 1.0928(2) 0.7762(4) 0.59945(16)
C6 C 1.1325(2) 0.8017(5) 0.67134(16)
H8 H 1.1993 0.7379 0.6801
H9 H 1.1403 0.9447 0.6818
C7 C 1.0894(2) 0.4979(4) 0.72908(16)
H10 H 1.1563 0.4948 0.7551
H11 H 1.0946 0.4252 0.6877
C8 C 1.0128(2) 0.3916(4) 0.76761(15)
H12 H 0.9827 0.4895 0.7956
H13 H 1.0483 0.2907 0.7967
C9 C 0.7128(2) 0.7387(5) 0.60867(17)
H14 H 0.7155 0.6019 0.6199
C10 C 0.6200(3) 1.0253(6) 0.5648(2)
H15 H 0.6721 1.0996 0.5920
H16 H 0.5537 1.0781 0.5715
H17 H 0.6306 1.0388 0.5186
C11 C 0.5361(3) 0.6902(6) 0.5683(2)
H18 H 0.5223 0.6738 0.5208
H19 H 0.4782 0.7533 0.5852
H20 H 0.5481 0.5599 0.5889
Cu1_2 Cu 0.92045(2) -0.24264(5) 0.667491(18)
O3_2 O 0.96381(15) 1.1158(3) 0.68093(10)
Cl1 Cl 1.17758(6) 0.81667(14) 0.88910(4)
O6 O 1.2767(3) 0.7572(5) 0.8792(2)
O7 O 1.1435(3) 0.9548(6) 0.83800(16)
O8 O 1.1797(3) 0.9132(5) 0.95158(14)
O9 O 1.1166(3) 0.6466(7) 0.8873(2)
loop_
_geom_bond_atom_site_label_1
_geom_bond_atom_site_label_2
_geom_bond_site_symmetry_1
_geom_bond_site_symmetry_2
Cu1 O1 1_555 1_555
S1 O1 1_555 1_555
O2 S1 1_555 1_555
O3 S1 1_555 1_555
O4 Cu1 1_555 1_555
H1 O4 1_555 1_555
H2 O4 1_555 1_555
O5 Cu1 1_555 1_555
N1 Cu1 1_555 1_555
N2 Cu1 1_555 1_555
H3 N2 1_555 1_555
N3 C9 1_555 1_555
C1 N1 1_555 1_555
H4 C1 1_555 1_555
C2 C1 1_555 1_555
H5 C2 1_555 1_555
C3 C2 1_555 1_555
H6 C3 1_555 1_555
C4 C3 1_555 1_555
H7 C4 1_555 1_555
C5 N1 1_555 1_555
C6 N2 1_555 1_555
H8 C6 1_555 1_555
H9 C6 1_555 1_555
C7 N2 1_555 1_555
H10 C7 1_555 1_555
H11 C7 1_555 1_555
C8 S1 1_555 1_555
H12 C8 1_555 1_555
H13 C8 1_555 1_555
C9 O5 1_555 1_555
H14 C9 1_555 1_555
C10 N3 1_555 1_555
H15 C10 1_555 1_555
H16 C10 1_555 1_555
H17 C10 1_555 1_555
C11 N3 1_555 1_555
H18 C11 1_555 1_555
H19 C11 1_555 1_555
H20 C11 1_555 1_555
Cl1 O6 1_555 1_555
O7 Cl1 1_555 1_555
O8 Cl1 1_555 1_555
O9 Cl1 1_555 1_555
Cu1_2 O3 1_555 1_555
O3_2 Cu1 1_555 1_555
C4 C5 1_555 1_555
C5 C6 1_555 1_555
C7 C8 1_555 1_555

#END
