
#######################################################################
#
#                 Cambridge Crystallographic Data Centre
#                                CCDC 
#
#######################################################################
#
# If this CIF has been generated from an entry in the Cambridge 
# Structural Database, then it will include bibliographic, chemical, 
# crystal, experimental, refinement or atomic coordinate data resulting 
# from the CCDC's data processing and validation procedures.
#
#######################################################################

data_TAMJIC01
_symmetry_cell_setting           monoclinic
_symmetry_space_group_name_H-M   'P 21/c'
_symmetry_Int_Tables_number      14
_space_group_name_Hall           '-P 2ybc'
loop_
_symmetry_equiv_pos_site_id
_symmetry_equiv_pos_as_xyz
1 x,y,z
2 -x,1/2+y,1/2-z
3 -x,-y,-z
4 x,1/2-y,1/2+z
_cell_length_a                   7.1312(2)
_cell_length_b                   18.2962(4)
_cell_length_c                   10.5785(3)
_cell_angle_alpha                90
_cell_angle_beta                 108.561(3)
_cell_angle_gamma                90
_cell_volume                     1308.43
loop_
_atom_site_label
_atom_site_type_symbol
_atom_site_fract_x
_atom_site_fract_y
_atom_site_fract_z
Ag1 Ag 0.98765(3) 0.400459(13) 0.35731(3)
N1 N 1.0083(4) 0.30568(15) 0.5247(3)
C1 C 0.6497(4) 0.40831(15) 0.4930(3)
C2 C 0.4539(5) 0.40526(15) 0.4897(3)
H1 H 0.4234 0.3859 0.5641
C3 C 1.0712(5) 0.18357(19) 0.6018(4)
H2 H 1.1341 0.1383 0.5971
N2 N 0.6974(4) 0.43162(13) 0.3865(3)
C4 C 1.0913(5) 0.24049(19) 0.5223(3)
H3 H 1.1667 0.2332 0.4637
C5 C 0.9025(4) 0.31294(16) 0.6082(3)
C6 C 0.8803(5) 0.25500(17) 0.6875(3)
H4 H 0.8024 0.2618 0.7446
N3 N 0.3066(4) 0.42900(13) 0.3840(3)
C7 C 0.8157(5) 0.38709(16) 0.6168(3)
H5 H 0.9220 0.4242 0.6335
H6 H 0.7655 0.3876 0.6939
C8 C 0.5496(4) 0.45507(17) 0.2812(3)
H7 H 0.5787 0.4718 0.2045
C9 C 0.3560(4) 0.45561(16) 0.2809(3)
H8 H 0.2559 0.4752 0.2062
N4 N 0.9656(4) 0.19002(15) 0.6856(3)
Ag1_2 Ag -0.01235(3) 0.400459(13) 0.35731(3)
Ag1C Ag 0.98765(3) 0.099541(13) 0.85731(3)
N3_2 N 1.3066(4) 0.42900(13) 0.3840(3)
N4C N 0.9656(4) 0.30998(15) 0.1856(3)
Cl1 Cl 0.51222(13) 0.64466(5) 0.10460(9)
O1 O 0.3394(4) 0.60439(17) 0.1049(3)
O2 O 0.5605(7) 0.6236(3) -0.0077(5)
O3 O 0.4783(6) 0.71939(18) 0.1022(5)
O4 O 0.6713(5) 0.6267(2) 0.2179(4)
O5 O 0.8884(4) 0.49071(16) 0.1230(3)
H9 H 0.835(6) 0.5331(15) 0.119(5)
H10 H 0.827(6) 0.461(2) 0.060(4)
loop_
_geom_bond_atom_site_label_1
_geom_bond_atom_site_label_2
_geom_bond_site_symmetry_1
_geom_bond_site_symmetry_2
Ag1 N1 1_555 1_555
Cl1 O1 1_555 1_555
N1 C4 1_555 1_555
C1 C2 1_555 1_555
C2 H1 1_555 1_555
C3 H2 1_555 1_555
N2 Ag1 1_555 1_555
C4 C3 1_555 1_555
H3 C4 1_555 1_555
C5 N1 1_555 1_555
C6 C5 1_555 1_555
H4 C6 1_555 1_555
N3 C2 1_555 1_555
C7 C1 1_555 1_555
H5 C7 1_555 1_555
H6 C7 1_555 1_555
C8 N2 1_555 1_555
H7 C8 1_555 1_555
C9 N3 1_555 1_555
H8 C9 1_555 1_555
N4 C3 1_555 1_555
O2 Cl1 1_555 1_555
O3 Cl1 1_555 1_555
O4 Cl1 1_555 1_555
O5 H9 1_555 1_555
H10 O5 1_555 1_555
Ag1_2 N3 1_555 1_555
Ag1C N4 1_555 1_555
N3_2 Ag1 1_555 1_555
N4C Ag1 1_555 1_555
C1 N2 1_555 1_555
C5 C7 1_555 1_555
C6 N4 1_555 1_555
C8 C9 1_555 1_555

#END
