
#######################################################################
#
#                 Cambridge Crystallographic Data Centre
#                                CCDC 
#
#######################################################################
#
# If this CIF has been generated from an entry in the Cambridge 
# Structural Database, then it will include bibliographic, chemical, 
# crystal, experimental, refinement or atomic coordinate data resulting 
# from the CCDC's data processing and validation procedures.
#
#######################################################################

data_TAMJEY
_symmetry_cell_setting           rhombohedral
_symmetry_space_group_name_H-M   'R -3'
_symmetry_Int_Tables_number      148
_space_group_name_Hall           '-R 3'
loop_
_symmetry_equiv_pos_site_id
_symmetry_equiv_pos_as_xyz
1 x,y,z
2 -y,x-y,z
3 -x+y,-x,z
4 2/3+x,1/3+y,1/3+z
5 2/3-y,1/3+x-y,1/3+z
6 2/3-x+y,1/3-x,1/3+z
7 1/3+x,2/3+y,2/3+z
8 1/3-y,2/3+x-y,2/3+z
9 1/3-x+y,2/3-x,2/3+z
10 -x,-y,-z
11 y,-x+y,-z
12 x-y,x,-z
13 1/3-x,2/3-y,2/3-z
14 1/3+y,2/3-x+y,2/3-z
15 1/3+x-y,2/3+x,2/3-z
16 2/3-x,1/3-y,1/3-z
17 2/3+y,1/3-x+y,1/3-z
18 2/3+x-y,1/3+x,1/3-z
_cell_length_a                   28.3534(15)
_cell_length_b                   28.3534(15)
_cell_length_c                   13.9544(19)
_cell_angle_alpha                90
_cell_angle_beta                 90
_cell_angle_gamma                120
_cell_volume                     9715.21
loop_
_atom_site_label
_atom_site_type_symbol
_atom_site_fract_x
_atom_site_fract_y
_atom_site_fract_z
Ag1 Ag 0.26961(4) 0.19888(3) 0.39475(8)
N1 N 0.2560(3) 0.1186(3) 0.4485(8)
C1 C 0.2259(4) 0.0575(4) 0.5799(9)
C2 C 0.2510(4) 0.0345(4) 0.7364(8)
C3 C 0.2903(4) 0.0734(4) 0.7936(8)
H1 H 0.2932 0.1082 0.7965
N2 N 0.2498(4) -0.0137(3) 0.7262(7)
N3 N 0.2240(3) 0.0171(4) 0.5226(8)
C4 C 0.2425(4) 0.1080(4) 0.5400(11)
H2 H 0.2442 0.1360 0.5796
C5 C 0.2103(4) 0.0436(4) 0.6812(9)
H3 H 0.2071 0.0733 0.7118
H4 H 0.1741 0.0101 0.6843
C6 C 0.2847(4) -0.0221(5) 0.7714(9)
H5 H 0.2839 -0.0559 0.7653
C7 C 0.2537(5) 0.0804(5) 0.3948(10)
H6 H 0.2620 0.0873 0.3285
C8 C 0.2397(5) 0.0298(6) 0.4318(11)
H7 H 0.2412 0.0035 0.3917
N4 N 0.3246(3) 0.0651(4) 0.8451(8)
C9 C 0.3240(4) 0.0198(5) 0.8303(9)
H8 H 0.3510 0.0143 0.8601
Ag1J Ag 0.19888(3) -0.07073(5) 0.60525(8)
Ag1O Ag 0.39706(4) 0.13445(3) 0.93858(8)
N2K N 0.2635(5) 0.2498(4) 0.2738(7)
N3K N 0.2069(5) 0.2240(3) 0.4774(8)
N4O N 0.3421(3) 0.2682(4) 0.4882(8)
Cl1 Cl 0.46000(12) 0.38874(12) 0.1349(3)
O1 O 0.4300(4) 0.3310(4) 0.1309(9)
O2 O 0.4453(8) 0.4071(6) 0.0545(12)
O3 O 0.4405(9) 0.3983(9) 0.2204(13)
O4 O 0.5148(5) 0.4069(6) 0.1514(16)
O5 O 0.3514(7) 0.2033(9) 0.2856(13)
C10 C 0.3979(9) 0.2109(9) 0.2822(15)
C11 C 0.4076(13) 0.1723(17) 0.226(2)
H9 H 0.3739 0.1460 0.1941
H10 H 0.4194 0.1529 0.2696
H11 H 0.4360 0.1923 0.1785
C12 C 0.4475(11) 0.249(2) 0.340(2)
H12 H 0.4403 0.2744 0.3755
H13 H 0.4785 0.2692 0.2967
H14 H 0.4560 0.2276 0.3850
loop_
_geom_bond_atom_site_label_1
_geom_bond_atom_site_label_2
_geom_bond_site_symmetry_1
_geom_bond_site_symmetry_2
Ag1 N1 1_555 1_555
N1 C4 1_555 1_555
C1 N3 1_555 1_555
C2 C3 1_555 1_555
C3 H1 1_555 1_555
N2 C2 1_555 1_555
N3 C8 1_555 1_555
C4 C1 1_555 1_555
H2 C4 1_555 1_555
C5 C1 1_555 1_555
H3 C5 1_555 1_555
H4 C5 1_555 1_555
C6 N2 1_555 1_555
H5 C6 1_555 1_555
C7 N1 1_555 1_555
H6 C7 1_555 1_555
C8 C7 1_555 1_555
H7 C8 1_555 1_555
N4 C3 1_555 1_555
C9 C6 1_555 1_555
H8 C9 1_555 1_555
Cl1 O1 1_555 1_555
O2 Cl1 1_555 1_555
O3 Cl1 1_555 1_555
O4 Cl1 1_555 1_555
O5 C10 1_555 1_555
C10 C11 1_555 1_555
C11 H9 1_555 1_555
H10 C11 1_555 1_555
H11 C11 1_555 1_555
C12 C10 1_555 1_555
H12 C12 1_555 1_555
H13 C12 1_555 1_555
H14 C12 1_555 1_555
Ag1J N2 1_555 1_555
Ag1O N4 1_555 1_555
N2K Ag1 1_555 1_555
N3K Ag1 1_555 1_555
N4O Ag1 1_555 1_555
C2 C5 1_555 1_555
N3 Ag1J 1_555 1_555
N4 C9 1_555 1_555

#END
