
#######################################################################
#
#                 Cambridge Crystallographic Data Centre
#                                CCDC 
#
#######################################################################
#
# If this CIF has been generated from an entry in the Cambridge 
# Structural Database, then it will include bibliographic, chemical, 
# crystal, experimental, refinement or atomic coordinate data resulting 
# from the CCDC's data processing and validation procedures.
#
#######################################################################

data_TAMJIC
_symmetry_cell_setting           monoclinic
_symmetry_space_group_name_H-M   'P 21/c'
_symmetry_Int_Tables_number      14
_space_group_name_Hall           '-P 2ybc'
loop_
_symmetry_equiv_pos_site_id
_symmetry_equiv_pos_as_xyz
1 x,y,z
2 -x,1/2+y,1/2-z
3 -x,-y,-z
4 x,1/2-y,1/2+z
_cell_length_a                   7.1340(6)
_cell_length_b                   18.3483(17)
_cell_length_c                   10.5892(12)
_cell_angle_alpha                90
_cell_angle_beta                 108.596(10)
_cell_angle_gamma                90
_cell_volume                     1313.73
loop_
_atom_site_label
_atom_site_type_symbol
_atom_site_fract_x
_atom_site_fract_y
_atom_site_fract_z
Ag1 Ag 0.01236(4) 0.400120(17) 0.14259(3)
N1 N 0.0347(5) 0.19057(19) -0.1858(4)
C1 C 0.1843(6) 0.3871(2) -0.1168(4)
H1 H 0.0783 0.4242 -0.1330
H2 H 0.2346 0.3879 -0.1938
N2 N -0.0082(5) 0.30560(18) -0.0254(3)
C2 C -0.0921(6) 0.2410(2) -0.0227(4)
H3 H -0.1680 0.2340 0.0355
C3 C 0.1201(6) 0.2554(2) -0.1872(4)
H4 H 0.1986 0.2621 -0.2438
N3 N 0.3022(4) 0.43155(17) 0.1133(3)
C4 C 0.0974(5) 0.3130(2) -0.1085(4)
C5 C 0.3493(5) 0.4075(2) 0.0067(4)
N4 N 0.6934(4) 0.42919(17) 0.1156(3)
C6 C -0.0715(7) 0.1839(3) -0.1022(5)
H5 H -0.1341 0.1388 -0.0977
C7 C 0.5459(5) 0.4054(2) 0.0105(4)
H6 H 0.5765 0.3865 -0.0641
C8 C 0.6445(5) 0.4553(2) 0.2187(4)
H7 H 0.7449 0.4745 0.2936
C9 C 0.4510(5) 0.4550(2) 0.2187(4)
H8 H 0.4223 0.4718 0.2954
Ag1C Ag 0.01236(4) 0.099880(17) -0.35741(3)
Ag1_2 Ag 1.01236(4) 0.400120(17) 0.14259(3)
N1C N 0.0347(5) 0.30943(19) 0.3142(4)
N4_2 N -0.3066(4) 0.42919(17) 0.1156(3)
O1 O 0.1106(5) 0.0098(2) -0.1244(4)
H9 H 0.168(6) -0.0312(15) -0.109(5)
H10 H 0.184(6) 0.037(2) -0.066(4)
Cl1 Cl 0.51316(16) 0.35581(7) -0.39507(11)
O2 O 0.5630(8) 0.3773(3) -0.5061(5)
O3 O 0.3400(5) 0.3953(2) -0.3948(4)
O4 O 0.6703(6) 0.3736(3) -0.2798(5)
O5 O 0.4796(7) 0.2810(2) -0.3986(6)
loop_
_geom_bond_atom_site_label_1
_geom_bond_atom_site_label_2
_geom_bond_site_symmetry_1
_geom_bond_site_symmetry_2
Ag1 N2 1_555 1_555
O1 H9 1_555 1_555
N1 C3 1_555 1_555
C1 H1 1_555 1_555
H2 C1 1_555 1_555
Cl1 O2 1_555 1_555
N2 C2 1_555 1_555
C2 H3 1_555 1_555
C3 H4 1_555 1_555
O3 Cl1 1_555 1_555
N3 Ag1 1_555 1_555
C4 C1 1_555 1_555
C5 C1 1_555 1_555
N4 C7 1_555 1_555
C6 N1 1_555 1_555
H5 C6 1_555 1_555
C7 C5 1_555 1_555
H6 C7 1_555 1_555
O4 Cl1 1_555 1_555
O5 Cl1 1_555 1_555
C8 N4 1_555 1_555
H7 C8 1_555 1_555
C9 N3 1_555 1_555
H8 C9 1_555 1_555
H10 O1 1_555 1_555
Ag1C N1 1_555 1_555
Ag1_2 N4 1_555 1_555
N1C Ag1 1_555 1_555
N4_2 Ag1 1_555 1_555
N2 C4 1_555 1_555
C2 C6 1_555 1_555
C3 C4 1_555 1_555
N3 C5 1_555 1_555
C8 C9 1_555 1_555

#END
