
#######################################################################
#
#                 Cambridge Crystallographic Data Centre
#                                CCDC 
#
#######################################################################
#
# If this CIF has been generated from an entry in the Cambridge 
# Structural Database, then it will include bibliographic, chemical, 
# crystal, experimental, refinement or atomic coordinate data resulting 
# from the CCDC's data processing and validation procedures.
#
#######################################################################

data_TAMREF
_symmetry_cell_setting           orthorhombic
_symmetry_space_group_name_H-M   'P 21 21 21'
_symmetry_Int_Tables_number      19
_space_group_name_Hall           'P 2ac 2ab'
loop_
_symmetry_equiv_pos_site_id
_symmetry_equiv_pos_as_xyz
1 x,y,z
2 1/2-x,-y,1/2+z
3 -x,1/2+y,1/2-z
4 1/2+x,1/2-y,-z
_cell_length_a                   11.0925(19)
_cell_length_b                   14.177(3)
_cell_length_c                   16.388(3)
_cell_angle_alpha                90
_cell_angle_beta                 90
_cell_angle_gamma                90
_cell_volume                     2577.15
loop_
_atom_site_label
_atom_site_type_symbol
_atom_site_fract_x
_atom_site_fract_y
_atom_site_fract_z
P1 P 0.52602(9) 0.48002(7) 0.31684(6)
K1 K 0.54634(9) 0.22405(7) 0.28072(6)
Si1 Si 0.38822(11) 0.63449(8) 0.42631(7)
Si2 Si 0.26354(10) 0.50392(8) 0.29070(7)
O1 O 0.7517(2) 0.34179(19) 0.27622(18)
O2 O 0.5729(3) 0.5961(2) 0.13117(18)
C1 C 0.3982(4) 0.5474(3) 0.3440(2)
C2 C 0.4474(4) 0.6004(3) 0.5305(2)
H1 H 0.3958 0.5512 0.5539
H2 H 0.4471 0.6558 0.5662
H3 H 0.5299 0.5764 0.5252
C3 C 0.4674(4) 0.7506(3) 0.4050(2)
H4 H 0.5456 0.7383 0.3794
H5 H 0.4797 0.7846 0.4564
H6 H 0.4177 0.7889 0.3683
C4 C 0.2273(4) 0.6698(3) 0.4480(3)
H7 H 0.1852 0.6816 0.3965
H8 H 0.2266 0.7272 0.4813
H9 H 0.1867 0.6188 0.4776
C5 C 0.1320(4) 0.4723(3) 0.3591(3)
H10 H 0.1619 0.4400 0.4079
H11 H 0.0766 0.4307 0.3296
H12 H 0.0895 0.5300 0.3752
C6 C 0.1977(4) 0.5880(3) 0.2137(3)
H13 H 0.1902 0.6508 0.2382
H14 H 0.1178 0.5656 0.1970
H15 H 0.2506 0.5914 0.1660
C7 C 0.2900(4) 0.3915(3) 0.2326(3)
H16 H 0.3534 0.4016 0.1919
H17 H 0.2154 0.3725 0.2051
H18 H 0.3151 0.3418 0.2705
C8 C 0.5705(4) 0.4045(3) 0.4062(2)
C9 C 0.4822(4) 0.3853(3) 0.4639(2)
H19 H 0.4058 0.4149 0.4583
C10 C 0.5003(4) 0.3251(3) 0.5292(3)
H20 H 0.4381 0.3151 0.5682
C11 C 0.6097(5) 0.2796(3) 0.5371(3)
H21 H 0.6243 0.2385 0.5817
C12 C 0.6964(4) 0.2947(3) 0.4797(3)
H22 H 0.7703 0.2613 0.4844
C13 C 0.6824(4) 0.3564(3) 0.4146(3)
C14 C 0.7862(4) 0.3682(3) 0.3570(3)
H23 H 0.8130 0.4348 0.3573
H24 H 0.8545 0.3285 0.3752
C15 C 0.8486(4) 0.3550(3) 0.2203(3)
H25 H 0.8721 0.4217 0.2198
H26 H 0.8228 0.3361 0.1655
H27 H 0.9175 0.3164 0.2371
C16 C 0.6593(3) 0.5580(3) 0.3144(2)
C17 C 0.7125(4) 0.5935(3) 0.3851(3)
H28 H 0.6747 0.5816 0.4361
C18 C 0.8176(4) 0.6451(3) 0.3840(3)
H29 H 0.8508 0.6690 0.4333
C19 C 0.8742(4) 0.6618(3) 0.3106(3)
H30 H 0.9475 0.6964 0.3093
C20 C 0.8254(4) 0.6289(3) 0.2401(3)
H31 H 0.8654 0.6410 0.1899
C21 C 0.7176(4) 0.5777(3) 0.2398(2)
C22 C 0.6711(4) 0.5402(3) 0.1602(3)
H32 H 0.7369 0.5405 0.1194
H33 H 0.6441 0.4742 0.1676
C23 C 0.5205(5) 0.5566(4) 0.0592(3)
H34 H 0.5821 0.5516 0.0166
H35 H 0.4549 0.5974 0.0402
H36 H 0.4885 0.4938 0.0715
K1B K 0.45366(9) 0.72405(7) 0.21928(6)
O2B O 0.4271(3) 0.0961(2) 0.36883(18)
loop_
_geom_bond_atom_site_label_1
_geom_bond_atom_site_label_2
_geom_bond_site_symmetry_1
_geom_bond_site_symmetry_2
P1 K1 1_555 1_555
K1 O1 1_555 1_555
Si1 C1 1_555 1_555
Si2 C1 1_555 1_555
O1 C14 1_555 1_555
O2 C22 1_555 1_555
C1 P1 1_555 1_555
C2 Si1 1_555 1_555
H1 C2 1_555 1_555
H2 C2 1_555 1_555
H3 C2 1_555 1_555
C3 Si1 1_555 1_555
H4 C3 1_555 1_555
H5 C3 1_555 1_555
H6 C3 1_555 1_555
C4 Si1 1_555 1_555
H7 C4 1_555 1_555
H8 C4 1_555 1_555
H9 C4 1_555 1_555
C5 Si2 1_555 1_555
H10 C5 1_555 1_555
H11 C5 1_555 1_555
H12 C5 1_555 1_555
C6 Si2 1_555 1_555
H13 C6 1_555 1_555
H14 C6 1_555 1_555
H15 C6 1_555 1_555
C7 Si2 1_555 1_555
H16 C7 1_555 1_555
H17 C7 1_555 1_555
H18 C7 1_555 1_555
C8 P1 1_555 1_555
C9 C8 1_555 1_555
H19 C9 1_555 1_555
C10 C9 1_555 1_555
H20 C10 1_555 1_555
C11 C10 1_555 1_555
H21 C11 1_555 1_555
C12 C11 1_555 1_555
H22 C12 1_555 1_555
C13 C8 1_555 1_555
C14 C13 1_555 1_555
H23 C14 1_555 1_555
H24 C14 1_555 1_555
C15 O1 1_555 1_555
H25 C15 1_555 1_555
H26 C15 1_555 1_555
H27 C15 1_555 1_555
C16 P1 1_555 1_555
C17 C16 1_555 1_555
H28 C17 1_555 1_555
C18 C17 1_555 1_555
H29 C18 1_555 1_555
C19 C18 1_555 1_555
H30 C19 1_555 1_555
C20 C19 1_555 1_555
H31 C20 1_555 1_555
C21 C16 1_555 1_555
C22 C21 1_555 1_555
H32 C22 1_555 1_555
H33 C22 1_555 1_555
C23 O2 1_555 1_555
H34 C23 1_555 1_555
H35 C23 1_555 1_555
H36 C23 1_555 1_555
K1B O2 1_555 1_555
O2B K1 1_555 1_555
C12 C13 1_555 1_555
C20 C21 1_555 1_555

#END
