
#######################################################################
#
#                 Cambridge Crystallographic Data Centre
#                                CCDC 
#
#######################################################################
#
# If this CIF has been generated from an entry in the Cambridge 
# Structural Database, then it will include bibliographic, chemical, 
# crystal, experimental, refinement or atomic coordinate data resulting 
# from the CCDC's data processing and validation procedures.
#
#######################################################################

data_TANDOD
_symmetry_cell_setting           tetragonal
_symmetry_space_group_name_H-M   'I 41/a'
_symmetry_Int_Tables_number      88
_space_group_name_Hall           '-I 4ad'
loop_
_symmetry_equiv_pos_site_id
_symmetry_equiv_pos_as_xyz
1 x,y,z
2 1/2-x,-y,1/2+z
3 3/4-y,1/4+x,1/4+z
4 3/4+y,3/4-x,3/4+z
5 1/2+x,1/2+y,1/2+z
6 -x,1/2-y,z
7 1/4-y,3/4+x,3/4+z
8 1/4+y,1/4-x,1/4+z
9 -x,-y,-z
10 1/2+x,y,1/2-z
11 1/4+y,3/4-x,3/4-z
12 1/4-y,1/4+x,1/4-z
13 1/2-x,1/2-y,1/2-z
14 x,1/2+y,-z
15 3/4+y,1/4-x,1/4-z
16 3/4-y,3/4+x,3/4-z
_cell_length_a                   22.841(3)
_cell_length_b                   22.841(3)
_cell_length_c                   15.503(3)
_cell_angle_alpha                90
_cell_angle_beta                 90
_cell_angle_gamma                90
_cell_volume                     8088.09
loop_
_atom_site_label
_atom_site_type_symbol
_atom_site_fract_x
_atom_site_fract_y
_atom_site_fract_z
O1 O 0.52322(12) 0.91027(11) 0.22263(17)
O2 O 0.5000 0.7500 0.4881(2)
O3 O 0.62316(11) 0.85465(12) 0.22394(17)
O4 O 0.44828(13) 0.90681(13) 0.35812(18)
O5 O 0.53997(11) 0.82167(11) 0.34454(17)
O6 O 0.66037(13) 0.78876(13) 0.35803(18)
O7 O 0.43767(11) 0.78463(11) 0.32081(17)
O8 O 0.64181(12) 0.73756(12) 0.19922(17)
O9 O 0.41462(12) 0.86308(11) 0.20021(17)
O10 O 0.52663(11) 0.79791(11) 0.18183(16)
O11 O 0.61060(13) 0.94826(13) 0.11512(18)
N1 N 0.59228(16) 0.76175(16) 0.6253(2)
N2 N 0.67720(15) 0.79836(16) 0.5863(2)
N3 N 0.70862(17) 1.11599(16) 0.6488(3)
N4 N 0.7606(2) 1.1910(2) 0.6219(4)
C1 C 0.62246(19) 0.78543(19) 0.5620(3)
H1 H 0.6076 0.7923 0.5071
C2 C 0.6297(2) 0.7589(2) 0.6939(3)
H2 H 0.6206 0.7434 0.7477
C3 C 0.6825(2) 0.7823(2) 0.6716(3)
H3 H 0.7153 0.7865 0.7067
C4 C 0.7181(2) 0.8361(2) 0.5396(3)
H4 H 0.7096 0.8347 0.4784
H5 H 0.7578 0.8222 0.5483
C5 C 0.71275(19) 0.89828(19) 0.5717(3)
C6 C 0.7599(2) 0.9277(2) 0.6059(3)
H6 H 0.7969 0.9108 0.6041
C7 C 0.7527(2) 0.9827(2) 0.6432(3)
H7 H 0.7848 1.0023 0.6662
C8 C 0.6980(2) 1.0081(2) 0.6461(3)
C9 C 0.6512(2) 0.9800(2) 0.6077(3)
H8 H 0.6146 0.9978 0.6069
C10 C 0.6587(2) 0.9260(2) 0.5707(3)
H9 H 0.6270 0.9076 0.5444
C11 C 0.6874(2) 1.0644(2) 0.6957(3)
H10 H 0.6458 1.0686 0.7066
H11 H 0.7071 1.0621 0.7510
C12 C 0.6898(3) 1.1355(2) 0.5710(4)
H12 H 0.6602 1.1203 0.5366
C13 C 0.7257(4) 1.1839(3) 0.5548(4)
H13 H 0.7250 1.2071 0.5055
C14 C 0.7504(2) 1.1505(3) 0.6778(5)
H14 H 0.7696 1.1463 0.7304
Mo1 Mo 0.472920(15) 0.862251(15) 0.27913(2)
Mo2 Mo 0.609800(15) 0.786201(15) 0.27913(2)
P1 P 0.5000 0.7500 0.1250
V1 V 0.57682(3) 0.88748(3) 0.13118(4)
V2 V 0.5000 0.7500 0.38308(6)
Co1 Co 0.5000 0.7500 0.6250
O1N O 0.66027(11) 0.72678(12) 0.02737(17)
O1K O 0.33973(11) 0.77322(12) 0.02737(17)
O1E O 0.47678(12) 0.58973(11) 0.22263(17)
O2K O 0.5000 0.7500 0.7619(2)
O2K_2 O 0.5000 0.7500 -0.2381(2)
O3E O 0.37684(11) 0.64535(12) 0.22394(17)
O3N O 0.60465(12) 0.62684(11) 0.02606(17)
O3K O 0.39535(12) 0.87316(11) 0.02606(17)
O4E O 0.55172(13) 0.59319(13) 0.35812(18)
O4N O 0.65681(13) 0.80172(13) -0.10812(18)
O4K O 0.34319(13) 0.69828(13) -0.10812(18)
O5E O 0.46003(11) 0.67833(11) 0.34454(17)
O5N O 0.57167(11) 0.71003(11) -0.09454(17)
O5K O 0.42833(11) 0.78997(11) -0.09454(17)
O6E O 0.33963(13) 0.71124(13) 0.35803(18)
O6N O 0.53876(13) 0.58963(13) -0.10803(18)
O6K O 0.46124(13) 0.91037(13) -0.10803(18)
O7E O 0.56233(11) 0.71537(11) 0.32081(17)
O7N O 0.53463(11) 0.81233(11) -0.07081(17)
O7K O 0.46537(11) 0.68767(11) -0.07081(17)
O8K O 0.51244(12) 0.89181(12) 0.05078(17)
O8E O 0.35819(12) 0.76244(12) 0.19922(17)
O8N O 0.48756(12) 0.60819(12) 0.05078(17)
O9N O 0.61308(11) 0.83538(12) 0.04979(17)
O9E O 0.58538(12) 0.63692(11) 0.20021(17)
O9K O 0.38692(11) 0.66462(12) 0.04979(17)
O10E O 0.47337(11) 0.70209(11) 0.18183(16)
O10N O 0.54791(11) 0.72337(11) 0.06817(16)
O10K O 0.45209(11) 0.77663(11) 0.06817(16)
O11N O 0.69826(13) 0.63940(13) 0.13488(18)
O11K O 0.30174(13) 0.86060(13) 0.13488(18)
O11E O 0.38940(13) 0.55174(13) 0.11512(18)
N1E N 0.40772(16) 0.73825(16) 0.6253(2)
N1N N 0.51175(16) 0.65772(16) 0.6247(2)
N1K N 0.48825(16) 0.84228(16) 0.6247(2)
N2E N 0.32280(15) 0.70164(16) 0.5863(2)
N2N N 0.54836(16) 0.57280(15) 0.6637(2)
N2K N 0.45164(16) 0.92720(15) 0.6637(2)
N3E N 0.29138(17) 0.38401(16) 0.6488(3)
N3N N 0.86599(16) 0.54138(17) 0.6012(3)
N3K N 0.13401(16) 0.95862(17) 0.6012(3)
N4E N 0.2394(2) 0.3090(2) 0.6219(4)
N4N N 0.9410(2) 0.4894(2) 0.6281(4)
N4K N 0.0590(2) 1.0106(2) 0.6281(4)
C1E C 0.37754(19) 0.71457(19) 0.5620(3)
C1N C 0.53543(19) 0.62754(19) 0.6880(3)
C1K C 0.46457(19) 0.87246(19) 0.6880(3)
H1E H 0.3924 0.7077 0.5071
H1N H 0.5423 0.6424 0.7429
H1K H 0.4577 0.8576 0.7429
C2E C 0.3703(2) 0.7411(2) 0.6939(3)
C2N C 0.5089(2) 0.6203(2) 0.5561(3)
C2K C 0.4911(2) 0.8797(2) 0.5561(3)
H2E H 0.3794 0.7566 0.7477
H2N H 0.4934 0.6294 0.5023
H2K H 0.5066 0.8706 0.5023
C3E C 0.3175(2) 0.7177(2) 0.6716(3)
C3N C 0.5323(2) 0.5675(2) 0.5784(3)
C3K C 0.4677(2) 0.9325(2) 0.5784(3)
H3E H 0.2847 0.7135 0.7067
H3N H 0.5365 0.5347 0.5433
H3K H 0.4635 0.9653 0.5433
C4E C 0.2819(2) 0.6639(2) 0.5396(3)
C4N C 0.5861(2) 0.5319(2) 0.7104(3)
C4K C 0.4139(2) 0.9681(2) 0.7104(3)
H4E H 0.2904 0.6653 0.4784
H4N H 0.5847 0.5404 0.7716
H4K H 0.4153 0.9596 0.7716
H5E H 0.2422 0.6778 0.5483
H5N H 0.5722 0.4922 0.7017
H5K H 0.4278 1.0078 0.7017
C5E C 0.28725(19) 0.60172(19) 0.5717(3)
C5N C 0.64828(19) 0.53725(19) 0.6783(3)
C5K C 0.35172(19) 0.96275(19) 0.6783(3)
C6E C 0.2401(2) 0.5723(2) 0.6059(3)
C6N C 0.6777(2) 0.4901(2) 0.6441(3)
C6K C 0.3223(2) 1.0099(2) 0.6441(3)
H6E H 0.2031 0.5892 0.6041
H6N H 0.6608 0.4531 0.6459
H6K H 0.3392 1.0469 0.6459
C7E C 0.2473(2) 0.5173(2) 0.6432(3)
C7N C 0.7327(2) 0.4973(2) 0.6068(3)
C7K C 0.2673(2) 1.0027(2) 0.6068(3)
H7E H 0.2152 0.4977 0.6662
H7N H 0.7523 0.4652 0.5838
H7K H 0.2477 1.0348 0.5838
C8E C 0.3020(2) 0.4919(2) 0.6461(3)
C8N C 0.7581(2) 0.5520(2) 0.6039(3)
C8K C 0.2419(2) 0.9480(2) 0.6039(3)
C9E C 0.3488(2) 0.5200(2) 0.6077(3)
C9N C 0.7300(2) 0.5988(2) 0.6423(3)
C9K C 0.2700(2) 0.9012(2) 0.6423(3)
H8E H 0.3854 0.5022 0.6069
H8N H 0.7478 0.6354 0.6431
H8K H 0.2522 0.8646 0.6431
C10E C 0.3413(2) 0.5740(2) 0.5707(3)
C10N C 0.6760(2) 0.5913(2) 0.6793(3)
C10K C 0.3240(2) 0.9087(2) 0.6793(3)
H9E H 0.3730 0.5924 0.5444
H9N H 0.6576 0.6230 0.7056
H9K H 0.3424 0.8770 0.7056
C11E C 0.3126(2) 0.4356(2) 0.6957(3)
C11N C 0.8144(2) 0.5626(2) 0.5543(3)
C11K C 0.1856(2) 0.9374(2) 0.5543(3)
H10E H 0.3542 0.4314 0.7066
H10N H 0.8186 0.6042 0.5434
H10K H 0.1814 0.8958 0.5434
H11E H 0.2929 0.4379 0.7510
H11N H 0.8121 0.5429 0.4990
H11K H 0.1879 0.9571 0.4990
C12E C 0.3102(3) 0.3645(2) 0.5710(4)
C12N C 0.8855(2) 0.5602(3) 0.6790(4)
C12K C 0.1145(2) 0.9398(3) 0.6790(4)
H12E H 0.3398 0.3797 0.5366
H12N H 0.8703 0.5898 0.7134
H12K H 0.1297 0.9102 0.7134
C13E C 0.2743(4) 0.3161(3) 0.5548(4)
C13N C 0.9339(3) 0.5243(4) 0.6952(4)
C13K C 0.0661(3) 0.9757(4) 0.6952(4)
H13E H 0.2750 0.2929 0.5055
H13N H 0.9571 0.5250 0.7445
H13K H 0.0429 0.9750 0.7445
C14E C 0.2496(2) 0.3495(3) 0.6778(5)
C14N C 0.9005(3) 0.4996(2) 0.5722(5)
C14K C 0.0995(3) 1.0004(2) 0.5722(5)
H14E H 0.2304 0.3537 0.7304
H14N H 0.8963 0.4804 0.5196
H14K H 0.1037 1.0196 0.5196
Mo1E Mo 0.527080(15) 0.637749(15) 0.27913(2)
Mo1N Mo 0.612251(15) 0.777080(15) -0.02913(2)
Mo1K Mo 0.387749(15) 0.722920(15) -0.02913(2)
Mo2E Mo 0.390200(15) 0.713799(15) 0.27913(2)
Mo2N Mo 0.536201(15) 0.640200(15) -0.02913(2)
Mo2K Mo 0.463799(15) 0.859800(15) -0.02913(2)
V1N V 0.63748(3) 0.67318(3) 0.11882(4)
V1K V 0.36252(3) 0.82682(3) 0.11882(4)
V1E V 0.42318(3) 0.61252(3) 0.13118(4)
V2K V 0.5000 0.7500 -0.13308(6)
Co1_2 Co 0.5000 0.7500 -0.3750
loop_
_geom_bond_atom_site_label_1
_geom_bond_atom_site_label_2
_geom_bond_site_symmetry_1
_geom_bond_site_symmetry_2
O1 Mo1 1_555 1_555
O2 V2 1_555 1_555
O3 Mo2 1_555 1_555
O4 Mo1 1_555 1_555
O5 Mo1 1_555 1_555
O6 Mo2 1_555 1_555
O7 Mo1 1_555 1_555
O8 Mo2 1_555 1_555
O9 Mo1 1_555 1_555
O10 Mo1 1_555 1_555
O11 V1 1_555 1_555
N1 C1 1_555 1_555
N2 C1 1_555 1_555
N3 C11 1_555 1_555
N4 C13 1_555 1_555
C1 H1 1_555 1_555
C2 N1 1_555 1_555
H2 C2 1_555 1_555
C3 N2 1_555 1_555
H3 C3 1_555 1_555
C4 N2 1_555 1_555
H4 C4 1_555 1_555
H5 C4 1_555 1_555
C5 C4 1_555 1_555
C6 C5 1_555 1_555
H6 C6 1_555 1_555
C7 C6 1_555 1_555
H7 C7 1_555 1_555
C8 C7 1_555 1_555
C9 C8 1_555 1_555
H8 C9 1_555 1_555
C10 C5 1_555 1_555
H9 C10 1_555 1_555
C11 C8 1_555 1_555
H10 C11 1_555 1_555
H11 C11 1_555 1_555
C12 N3 1_555 1_555
H12 C12 1_555 1_555
C13 C12 1_555 1_555
H13 C13 1_555 1_555
C14 N3 1_555 1_555
H14 C14 1_555 1_555
Mo2 O5 1_555 1_555
P1 O10 1_555 1_555
V1 O1 1_555 1_555
V2 O5 1_555 1_555
Co1 O2 1_555 1_555
O1N Mo1N 1_555 1_555
O1K Mo1K 1_555 1_555
O1E Mo1E 1_555 1_555
O2K Co1 1_555 1_555
O2K_2 V2K 1_555 1_555
O3E Mo2E 1_555 1_555
O3N Mo2N 1_555 1_555
O3K Mo2K 1_555 1_555
O4E Mo1E 1_555 1_555
O4N Mo1N 1_555 1_555
O4K Mo1K 1_555 1_555
O5E V2 1_555 1_555
O5N Mo1N 1_555 1_555
O5K Mo1K 1_555 1_555
O6E Mo2E 1_555 1_555
O6N Mo2N 1_555 1_555
O6K Mo2K 1_555 1_555
O7E Mo2 1_555 1_555
O7N Mo1N 1_555 1_555
O7K Mo1K 1_555 1_555
O8K V1 1_555 1_555
O8E Mo2E 1_555 1_555
O8N Mo2N 1_555 1_555
O9N V1 1_555 1_555
O9E Mo1E 1_555 1_555
O9K Mo1K 1_555 1_555
O10E P1 1_555 1_555
O10N P1 1_555 1_555
O10K P1 1_555 1_555
O11N V1N 1_555 1_555
O11K V1K 1_555 1_555
O11E V1E 1_555 1_555
N1E Co1 1_555 1_555
N1N Co1 1_555 1_555
N1K Co1 1_555 1_555
N2E C1E 1_555 1_555
N2N C1N 1_555 1_555
N2K C1K 1_555 1_555
N3E C11E 1_555 1_555
N3N C11N 1_555 1_555
N3K C11K 1_555 1_555
N4E C13E 1_555 1_555
N4N C13N 1_555 1_555
N4K C13K 1_555 1_555
C1E N1E 1_555 1_555
C1N N1N 1_555 1_555
C1K N1K 1_555 1_555
H1E C1E 1_555 1_555
H1N C1N 1_555 1_555
H1K C1K 1_555 1_555
C2E N1E 1_555 1_555
C2N N1N 1_555 1_555
C2K N1K 1_555 1_555
H2E C2E 1_555 1_555
H2N C2N 1_555 1_555
H2K C2K 1_555 1_555
C3E N2E 1_555 1_555
C3N N2N 1_555 1_555
C3K N2K 1_555 1_555
H3E C3E 1_555 1_555
H3N C3N 1_555 1_555
H3K C3K 1_555 1_555
C4E N2E 1_555 1_555
C4N N2N 1_555 1_555
C4K N2K 1_555 1_555
H4E C4E 1_555 1_555
H4N C4N 1_555 1_555
H4K C4K 1_555 1_555
H5E C4E 1_555 1_555
H5N C4N 1_555 1_555
H5K C4K 1_555 1_555
C5E C4E 1_555 1_555
C5N C4N 1_555 1_555
C5K C4K 1_555 1_555
C6E C5E 1_555 1_555
C6N C5N 1_555 1_555
C6K C5K 1_555 1_555
H6E C6E 1_555 1_555
H6N C6N 1_555 1_555
H6K C6K 1_555 1_555
C7E C6E 1_555 1_555
C7N C6N 1_555 1_555
C7K C6K 1_555 1_555
H7E C7E 1_555 1_555
H7N C7N 1_555 1_555
H7K C7K 1_555 1_555
C8E C7E 1_555 1_555
C8N C7N 1_555 1_555
C8K C7K 1_555 1_555
C9E C8E 1_555 1_555
C9N C8N 1_555 1_555
C9K C8K 1_555 1_555
H8E C9E 1_555 1_555
H8N C9N 1_555 1_555
H8K C9K 1_555 1_555
C10E C5E 1_555 1_555
C10N C5N 1_555 1_555
C10K C5K 1_555 1_555
H9E C10E 1_555 1_555
H9N C10N 1_555 1_555
H9K C10K 1_555 1_555
C11E C8E 1_555 1_555
C11N C8N 1_555 1_555
C11K C8K 1_555 1_555
H10E C11E 1_555 1_555
H10N C11N 1_555 1_555
H10K C11K 1_555 1_555
H11E C11E 1_555 1_555
H11N C11N 1_555 1_555
H11K C11K 1_555 1_555
C12E N3E 1_555 1_555
C12N N3N 1_555 1_555
C12K N3K 1_555 1_555
H12E C12E 1_555 1_555
H12N C12N 1_555 1_555
H12K C12K 1_555 1_555
C13E C12E 1_555 1_555
C13N C12N 1_555 1_555
C13K C12K 1_555 1_555
H13E C13E 1_555 1_555
H13N C13N 1_555 1_555
H13K C13K 1_555 1_555
C14E N3E 1_555 1_555
C14N N3N 1_555 1_555
C14K N3K 1_555 1_555
H14E C14E 1_555 1_555
H14N C14N 1_555 1_555
H14K C14K 1_555 1_555
Mo1E O5E 1_555 1_555
Mo1N O9N 1_555 1_555
Mo1K O10K 1_555 1_555
Mo2E O7 1_555 1_555
Mo2N O5N 1_555 1_555
Mo2K O5K 1_555 1_555
V1N O8 1_555 1_555
V1K O9 1_555 1_555
V1E O1E 1_555 1_555
V2K O5N 1_555 1_555
Co1_2 O2K_2 1_555 1_555
O3 V1 1_555 1_555
O7 V2 1_555 1_555
O10 Mo2 1_555 1_555
N1 Co1 1_555 1_555
N4 C14 1_555 1_555
C2 C3 1_555 1_555
C9 C10 1_555 1_555
V2 O7E 1_555 1_555
O1N V1N 1_555 1_555
O1K V1K 1_555 1_555
O3E V1E 1_555 1_555
O3N V1N 1_555 1_555
O3K V1K 1_555 1_555
O5E Mo2E 1_555 1_555
O5K V2K 1_555 1_555
O7E Mo1E 1_555 1_555
O7N Mo2K 1_555 1_555
O7N V2K 1_555 1_555
O7K Mo2N 1_555 1_555
O7K V2K 1_555 1_555
O8K Mo2K 1_555 1_555
O8E V1K 1_555 1_555
O8N V1E 1_555 1_555
O9E V1N 1_555 1_555
O9K V1E 1_555 1_555
O10E Mo1E 1_555 1_555
O10E Mo2E 1_555 1_555
O10N Mo1N 1_555 1_555
O10N Mo2N 1_555 1_555
O10K Mo2K 1_555 1_555
N4E C14E 1_555 1_555
N4N C14N 1_555 1_555
N4K C14K 1_555 1_555
C2E C3E 1_555 1_555
C2N C3N 1_555 1_555
C2K C3K 1_555 1_555
C9E C10E 1_555 1_555
C9N C10N 1_555 1_555
C9K C10K 1_555 1_555

#END
