
#######################################################################
#
#                 Cambridge Crystallographic Data Centre
#                                CCDC 
#
#######################################################################
#
# If this CIF has been generated from an entry in the Cambridge 
# Structural Database, then it will include bibliographic, chemical, 
# crystal, experimental, refinement or atomic coordinate data resulting 
# from the CCDC's data processing and validation procedures.
#
#######################################################################

data_TANJID
_symmetry_cell_setting           rhombohedral
_symmetry_space_group_name_H-M   'R -3 c'
_symmetry_Int_Tables_number      167
_space_group_name_Hall           '-R 3 2"c'
loop_
_symmetry_equiv_pos_site_id
_symmetry_equiv_pos_as_xyz
1 x,y,z
2 -y,x-y,z
3 -x+y,-x,z
4 y,x,1/2-z
5 x-y,-y,1/2-z
6 -x,-x+y,1/2-z
7 2/3+x,1/3+y,1/3+z
8 2/3-y,1/3+x-y,1/3+z
9 2/3-x+y,1/3-x,1/3+z
10 2/3+y,1/3+x,5/6-z
11 2/3+x-y,1/3-y,5/6-z
12 2/3-x,1/3-x+y,5/6-z
13 1/3+x,2/3+y,2/3+z
14 1/3-y,2/3+x-y,2/3+z
15 1/3-x+y,2/3-x,2/3+z
16 1/3+y,2/3+x,1/6-z
17 1/3+x-y,2/3-y,1/6-z
18 1/3-x,2/3-x+y,1/6-z
19 -x,-y,-z
20 y,-x+y,-z
21 x-y,x,-z
22 -y,-x,1/2+z
23 -x+y,y,1/2+z
24 x,x-y,1/2+z
25 1/3-x,2/3-y,2/3-z
26 1/3+y,2/3-x+y,2/3-z
27 1/3+x-y,2/3+x,2/3-z
28 1/3-y,2/3-x,1/6+z
29 1/3-x+y,2/3+y,1/6+z
30 1/3+x,2/3+x-y,1/6+z
31 2/3-x,1/3-y,1/3-z
32 2/3+y,1/3-x+y,1/3-z
33 2/3+x-y,1/3+x,1/3-z
34 2/3-y,1/3-x,5/6+z
35 2/3-x+y,1/3+y,5/6+z
36 2/3+x,1/3+x-y,5/6+z
_cell_length_a                   16.4547(4)
_cell_length_b                   16.4547(4)
_cell_length_c                   27.7701(14)
_cell_angle_alpha                90
_cell_angle_beta                 90
_cell_angle_gamma                120
_cell_volume                     6511.6
loop_
_atom_site_label
_atom_site_type_symbol
_atom_site_fract_x
_atom_site_fract_y
_atom_site_fract_z
I1 I 0.73806(2) 0.51227(2) -0.039970(11)
I2 I 0.6667 0.3333 0.0833
I3 I 0.6667 0.3333 -0.1667
Cu1 Cu 0.58898(6) 0.38147(6) 0.00780(3)
Cu2 Cu 0.6667 0.3333 -0.06991(4)
N1 N 0.4378(3) 0.4440(3) 0.10635(13)
N2 N 0.5229(3) 0.4311(3) 0.04876(14)
C1 C 0.4536(3) 0.3839(3) 0.08025(15)
C2 C 0.5518(4) 0.5238(4) 0.05610(17)
H1 H 0.6004 0.5737 0.0397
C3 C 0.4987(4) 0.5317(4) 0.09104(17)
H2 H 0.5034 0.5871 0.1023
C4 C 0.3688(4) 0.4188(4) 0.14473(17)
H3 H 0.3116 0.3633 0.1357
H4 H 0.3565 0.4694 0.1499
H5 H 0.3927 0.4071 0.1739
I1B I 0.77421(3) 0.26194(2) -0.039970(11)
I1A I 0.48773(2) 0.22579(3) -0.039970(11)
I1X I 0.59527(2) 0.15440(2) -0.293363(11)
I1Z I 0.55912(3) 0.40473(2) -0.293363(11)
I1Y I 0.84560(2) 0.44088(3) -0.293363(11)
I2X I 0.6666 0.3334 -0.4166
Cu1B Cu 0.79249(8) 0.41102(6) 0.00780(3)
Cu1A Cu 0.61853(6) 0.20751(8) 0.00780(3)
Cu1X Cu 0.74435(6) 0.28520(6) -0.34113(3)
Cu1Z Cu 0.54084(8) 0.25565(6) -0.34113(3)
Cu1Y Cu 0.71480(6) 0.45916(8) -0.34113(3)
Cu1O Cu 0.71480(6) 0.25565(6) 0.15887(3)
Cu1P Cu 0.54084(8) 0.28520(6) 0.15887(3)
Cu1Q Cu 0.74435(6) 0.45916(8) 0.15887(3)
Cu2X Cu 0.6666 0.3334 -0.26342(4)
N1P N 0.3271(4) 0.2227(3) 0.06032(13)
N1B N 1.0062(4) 0.5622(3) 0.10635(13)
N1Q N 0.8955(3) 0.6729(4) 0.06032(13)
N1A N 0.5560(3) -0.0062(4) 0.10635(13)
N1O N 0.7773(3) 0.1045(3) 0.06032(13)
N2P N 0.4251(4) 0.2356(3) 0.11791(14)
N2B N 0.9082(4) 0.4771(3) 0.04876(14)
N2Q N 0.8104(3) 0.5749(4) 0.11791(14)
N2A N 0.5689(3) 0.0918(4) 0.04876(14)
N2O N 0.7644(3) 0.1896(3) 0.11791(14)
N2X N 0.8104(3) 0.2356(3) -0.38209(14)
N2Z N 0.4251(4) 0.1896(3) -0.38209(14)
N2Y N 0.7644(3) 0.5749(4) -0.38209(14)
C1P C 0.4030(4) 0.2828(3) 0.08642(15)
C1B C 0.9303(4) 0.5464(3) 0.08025(15)
C1Q C 0.8797(3) 0.5970(4) 0.08642(15)
C1A C 0.6161(3) 0.0697(4) 0.08025(15)
C1O C 0.7172(3) 0.1203(3) 0.08642(15)
C2P C 0.3613(6) 0.1429(4) 0.11057(17)
C2B C 0.9720(6) 0.4482(4) 0.05610(17)
C2Q C 0.7815(4) 0.6387(6) 0.11057(17)
C2A C 0.4762(4) 0.0280(6) 0.05610(17)
C2O C 0.8571(4) 0.2185(4) 0.11057(17)
H1P H 0.3600 0.0930 0.1270
H1B H 0.9733 0.3996 0.0397
H1Q H 0.7329 0.6400 0.1270
H1A H 0.4263 0.0267 0.0397
H1O H 0.9070 0.2671 0.1270
C3P C 0.3003(6) 0.1350(4) 0.07563(17)
C3B C 1.0330(6) 0.5013(4) 0.09104(17)
C3Q C 0.8346(4) 0.6997(6) 0.07563(17)
C3A C 0.4683(4) -0.0330(6) 0.09104(17)
C3O C 0.8650(4) 0.1654(4) 0.07563(17)
H2P H 0.2496 0.0796 0.0644
H2B H 1.0837 0.4966 0.1023
H2Q H 0.8299 0.7504 0.0644
H2A H 0.4129 -0.0837 0.1023
H2O H 0.9204 0.1701 0.0644
C4P C 0.2833(6) 0.2479(4) 0.02194(17)
C4B C 1.0500(6) 0.6312(4) 0.14473(17)
C4Q C 0.9645(4) 0.7167(6) 0.02194(17)
C4A C 0.5812(4) -0.0500(6) 0.14473(17)
C4O C 0.7521(4) 0.0355(4) 0.02194(17)
H3P H 0.2816 0.3034 0.0310
H3B H 1.0517 0.6884 0.1357
H3Q H 1.0217 0.7184 0.0310
H3A H 0.6367 -0.0517 0.1357
H3O H 0.6966 -0.0217 0.0310
H4P H 0.2204 0.1973 0.0168
H4B H 1.1129 0.6435 0.1499
H4Q H 0.9768 0.7796 0.0168
H4A H 0.5306 -0.1129 0.1499
H4O H 0.8027 0.0232 0.0168
H5P H 0.3189 0.2596 -0.0072
H5B H 1.0144 0.6073 0.1739
H5Q H 0.9406 0.6811 -0.0072
H5A H 0.5929 -0.0144 0.1739
H5O H 0.7404 0.0594 -0.0072
loop_
_geom_bond_atom_site_label_1
_geom_bond_atom_site_label_2
_geom_bond_site_symmetry_1
_geom_bond_site_symmetry_2
I1 Cu1 1_555 1_555
I2 Cu1 1_555 1_555
I3 Cu2 1_555 1_555
Cu1 Cu2 1_555 1_555
Cu2 I1 1_555 1_555
N1 C1 1_555 1_555
N2 Cu1 1_555 1_555
C1 N2 1_555 1_555
C2 N2 1_555 1_555
H1 C2 1_555 1_555
C3 N1 1_555 1_555
H2 C3 1_555 1_555
C4 N1 1_555 1_555
H3 C4 1_555 1_555
H4 C4 1_555 1_555
H5 C4 1_555 1_555
I1B Cu2 1_555 1_555
I1A Cu1 1_555 1_555
I1X Cu1X 1_555 1_555
I1Z Cu1Z 1_555 1_555
I1Y Cu1X 1_555 1_555
I2X Cu1X 1_555 1_555
Cu1B I1 1_555 1_555
Cu1A I2 1_555 1_555
Cu1X Cu2X 1_555 1_555
Cu1Z I1X 1_555 1_555
Cu1Y I1Z 1_555 1_555
Cu1O I2 1_555 1_555
Cu1P I2 1_555 1_555
Cu1Q I2 1_555 1_555
Cu2X I3 1_555 1_555
N1P C1P 1_555 1_555
N1B C1B 1_555 1_555
N1Q C1Q 1_555 1_555
N1A C1A 1_555 1_555
N1O C1O 1_555 1_555
N2P Cu1P 1_555 1_555
N2B Cu1B 1_555 1_555
N2Q Cu1Q 1_555 1_555
N2A Cu1A 1_555 1_555
N2O Cu1O 1_555 1_555
N2X Cu1X 1_555 1_555
N2Z Cu1Z 1_555 1_555
N2Y Cu1Y 1_555 1_555
C1P C1 1_555 1_555
C1B N2B 1_555 1_555
C1Q N2Q 1_555 1_555
C1A N2A 1_555 1_555
C1O N2O 1_555 1_555
C2P N2P 1_555 1_555
C2B N2B 1_555 1_555
C2Q N2Q 1_555 1_555
C2A N2A 1_555 1_555
C2O N2O 1_555 1_555
H1P C2P 1_555 1_555
H1B C2B 1_555 1_555
H1Q C2Q 1_555 1_555
H1A C2A 1_555 1_555
H1O C2O 1_555 1_555
C3P N1P 1_555 1_555
C3B N1B 1_555 1_555
C3Q N1Q 1_555 1_555
C3A N1A 1_555 1_555
C3O N1O 1_555 1_555
H2P C3P 1_555 1_555
H2B C3B 1_555 1_555
H2Q C3Q 1_555 1_555
H2A C3A 1_555 1_555
H2O C3O 1_555 1_555
C4P N1P 1_555 1_555
C4B N1B 1_555 1_555
C4Q N1Q 1_555 1_555
C4A N1A 1_555 1_555
C4O N1O 1_555 1_555
H3P C4P 1_555 1_555
H3B C4B 1_555 1_555
H3Q C4Q 1_555 1_555
H3A C4A 1_555 1_555
H3O C4O 1_555 1_555
H4P C4P 1_555 1_555
H4B C4B 1_555 1_555
H4Q C4Q 1_555 1_555
H4A C4A 1_555 1_555
H4O C4O 1_555 1_555
H5P C4P 1_555 1_555
H5B C4B 1_555 1_555
H5Q C4Q 1_555 1_555
H5A C4A 1_555 1_555
H5O C4O 1_555 1_555
I2 Cu1B 1_555 1_555
Cu2 I1A 1_555 1_555
Cu2 Cu1B 1_555 1_555
Cu2 Cu1A 1_555 1_555
C2 C3 1_555 1_555
I1B Cu1B 1_555 1_555
I1B Cu1A 1_555 1_555
I1A Cu1A 1_555 1_555
I1X Cu2X 1_555 1_555
I1Z Cu2X 1_555 1_555
I1Y Cu1Y 1_555 1_555
I1Y Cu2X 1_555 1_555
I2X Cu1Z 1_555 1_555
I2X Cu1Y 1_555 1_555
Cu1Z Cu2X 1_555 1_555
Cu1Y Cu2X 1_555 1_555
N2P C1P 1_555 1_555
C1B C1Q 1_555 1_555
C1A C1O 1_555 1_555
C2P C3P 1_555 1_555
C2B C3B 1_555 1_555
C2Q C3Q 1_555 1_555
C2A C3A 1_555 1_555
C2O C3O 1_555 1_555

#END
