
#######################################################################
#
#                 Cambridge Crystallographic Data Centre
#                                CCDC 
#
#######################################################################
#
# If this CIF has been generated from an entry in the Cambridge 
# Structural Database, then it will include bibliographic, chemical, 
# crystal, experimental, refinement or atomic coordinate data resulting 
# from the CCDC's data processing and validation procedures.
#
#######################################################################

data_TANKEA
_symmetry_cell_setting           monoclinic
_symmetry_space_group_name_H-M   'C c'
_symmetry_Int_Tables_number      9
_space_group_name_Hall           'C -2yc'
loop_
_symmetry_equiv_pos_site_id
_symmetry_equiv_pos_as_xyz
1 x,y,z
2 x,-y,1/2+z
3 1/2+x,1/2+y,z
4 1/2+x,1/2-y,1/2+z
_cell_length_a                   19.824(4)
_cell_length_b                   6.8479(14)
_cell_length_c                   19.765(4)
_cell_angle_alpha                90
_cell_angle_beta                 117.16(3)
_cell_angle_gamma                90
_cell_volume                     2387.3
loop_
_atom_site_label
_atom_site_type_symbol
_atom_site_fract_x
_atom_site_fract_y
_atom_site_fract_z
Mn1 Mn 0.82821(2) 0.24006(7) 0.90210(3)
Mn2 Mn 0.59382(3) 0.21191(7) 0.57817(3)
Mn3 Mn 0.36469(3) 0.14914(7) 0.69368(3)
N1 N 0.71151(13) 0.2478(4) 0.88987(15)
C1 C 0.65220(16) 0.2063(4) 0.82295(17)
C2 C 0.57880(16) 0.1983(4) 0.81443(17)
H1 H 0.5383 0.1701 0.7674
C3 C 0.56677(17) 0.2335(4) 0.87782(17)
C4 C 0.62864(16) 0.2781(4) 0.94654(17)
H2 H 0.6224 0.3012 0.9897
C5 C 0.70068(17) 0.2879(4) 0.94999(17)
C6 C 0.67425(18) 0.1639(5) 0.76043(18)
O1 O 0.74408(13) 0.1422(4) 0.78203(14)
O2 O 0.62166(14) 0.1543(4) 0.69441(13)
C7 C 0.48835(16) 0.2200(4) 0.87365(17)
O3 O 0.43525(12) 0.1529(4) 0.81297(13)
O4 O 0.48123(12) 0.2693(4) 0.93056(13)
C8 C 0.77268(17) 0.3369(4) 1.02027(17)
O5 O 0.76852(11) 0.3751(4) 1.08019(12)
O6 O 0.83293(12) 0.3375(4) 1.01334(13)
N2 N 1.09854(15) 0.2685(4) 0.96429(15)
C9 C 1.16594(17) 0.2847(4) 0.96357(17)
C10 C 1.17296(16) 0.2546(4) 0.89730(17)
H3 H 1.2203 0.2621 0.8984
C11 C 1.10892(16) 0.2135(4) 0.82977(17)
C12 C 1.03905(18) 0.2026(5) 0.83098(18)
H4 H 0.9948 0.1777 0.7866
C13 C 1.03685(16) 0.2294(4) 0.89897(18)
C14 C 1.23087(18) 0.3450(5) 1.03914(17)
O7 O 1.21414(13) 0.3679(4) 1.09311(13)
O8 O 1.29424(13) 0.3706(4) 1.04289(13)
C15 C 1.11233(17) 0.1830(5) 0.75576(17)
O9 O 1.17325(13) 0.1262(4) 0.75847(14)
O10 O 1.05224(13) 0.2138(4) 0.69506(13)
C16 C 0.96408(19) 0.2274(5) 0.9054(2)
O11 O 0.90372(13) 0.1805(4) 0.84862(14)
O12 O 0.96691(15) 0.2751(4) 0.96691(17)
O13 O 0.86371(15) -0.0505(4) 0.95614(16)
H5 H 0.8392 -0.1091 0.9756
H6 H 0.8849 -0.1162 0.9427
O14 O 0.82025(13) 0.5462(4) 0.86417(14)
H7 H 0.7786 0.5810 0.8317
H8 H 0.8420 0.5797 0.8428
O15 O 0.64981(13) 0.5015(4) 0.61465(13)
H9 H 0.6610 0.5514 0.6557
H10 H 0.6713 0.5534 0.5896
O16 O 0.50339(17) 0.4042(5) 0.59515(17)
H11 H 0.4775 0.4383 0.5507
H12 H 0.5118 0.5093 0.6202
O17 O 0.55587(18) -0.0844(4) 0.56895(14)
H13 H 0.5702 -0.1555 0.6093
H14 H 0.5289 -0.1637 0.5374
O18 O 0.28185(15) 0.3402(4) 0.70663(15)
H15 H 0.2769 0.3932 0.7384
H16 H 0.2645 0.4063 0.6688
O19 O 0.32834(15) -0.1318(4) 0.71174(14)
H17 H 0.3432 -0.1925 0.7496
H18 H 0.2905 -0.1977 0.6801
O20 O 0.43951(13) 0.0090(4) 0.65365(14)
H19 H 0.4252 0.0127 0.6104
H20 H 0.4677 -0.0788 0.6696
O21 O 0.40611(13) 0.4220(4) 0.66773(14)
H21 H 0.4320 0.4388 0.6477
H22 H 0.3690 0.4540 0.6355
Mn2C Mn 1.09382(3) 0.28809(7) 1.07817(3)
Mn3C Mn 0.86469(3) 0.35086(7) 1.19368(3)
O5C O 0.26852(11) 0.1249(4) 0.58019(12)
N2C N 0.59854(15) 0.2315(4) 0.46429(15)
O7C O 0.71414(13) 0.1321(4) 0.59311(13)
O12C O 0.46691(15) 0.2249(4) 0.46691(17)
loop_
_geom_bond_atom_site_label_1
_geom_bond_atom_site_label_2
_geom_bond_site_symmetry_1
_geom_bond_site_symmetry_2
Mn1 N1 1_555 1_555
Mn2 O2 1_555 1_555
Mn3 O3 1_555 1_555
N1 C1 1_555 1_555
C1 C2 1_555 1_555
C2 H1 1_555 1_555
C3 C2 1_555 1_555
C4 C3 1_555 1_555
H2 C4 1_555 1_555
C5 N1 1_555 1_555
C6 C1 1_555 1_555
O1 Mn1 1_555 1_555
O2 C6 1_555 1_555
C7 C3 1_555 1_555
O3 C7 1_555 1_555
O4 C7 1_555 1_555
C8 C5 1_555 1_555
O5 C8 1_555 1_555
O6 Mn1 1_555 1_555
N2 C9 1_555 1_555
C9 C10 1_555 1_555
C10 H3 1_555 1_555
C11 C10 1_555 1_555
C12 C11 1_555 1_555
H4 C12 1_555 1_555
C13 N2 1_555 1_555
C14 C9 1_555 1_555
O7 C14 1_555 1_555
O8 C14 1_555 1_555
C15 C11 1_555 1_555
O9 C15 1_555 1_555
O10 C15 1_555 1_555
C16 C13 1_555 1_555
O11 Mn1 1_555 1_555
O12 Mn1 1_555 1_555
O13 Mn1 1_555 1_555
H5 O13 1_555 1_555
H6 O13 1_555 1_555
O14 Mn1 1_555 1_555
H7 O14 1_555 1_555
H8 O14 1_555 1_555
O15 Mn2 1_555 1_555
H9 O15 1_555 1_555
H10 O15 1_555 1_555
O16 Mn2 1_555 1_555
H11 O16 1_555 1_555
H12 O16 1_555 1_555
O17 Mn2 1_555 1_555
H13 O17 1_555 1_555
H14 O17 1_555 1_555
O18 Mn3 1_555 1_555
H15 O18 1_555 1_555
H16 O18 1_555 1_555
O19 Mn3 1_555 1_555
H17 O19 1_555 1_555
H18 O19 1_555 1_555
O20 Mn3 1_555 1_555
H19 O20 1_555 1_555
H20 O20 1_555 1_555
O21 Mn3 1_555 1_555
H21 O21 1_555 1_555
H22 O21 1_555 1_555
Mn2C N2 1_555 1_555
Mn3C O5 1_555 1_555
O5C Mn3 1_555 1_555
N2C Mn2 1_555 1_555
O7C Mn2 1_555 1_555
O12C Mn2 1_555 1_555
C4 C5 1_555 1_555
C6 O1 1_555 1_555
C8 O6 1_555 1_555
C12 C13 1_555 1_555
O7 Mn2C 1_555 1_555
C16 O11 1_555 1_555
C16 O12 1_555 1_555
O12 Mn2C 1_555 1_555

#END
