
#######################################################################
#
#                 Cambridge Crystallographic Data Centre
#                                CCDC 
#
#######################################################################
#
# If this CIF has been generated from an entry in the Cambridge 
# Structural Database, then it will include bibliographic, chemical, 
# crystal, experimental, refinement or atomic coordinate data resulting 
# from the CCDC's data processing and validation procedures.
#
#######################################################################

data_TANNON
_symmetry_cell_setting           triclinic
_symmetry_space_group_name_H-M   'P -1'
_symmetry_Int_Tables_number      2
_space_group_name_Hall           '-P 1'
loop_
_symmetry_equiv_pos_site_id
_symmetry_equiv_pos_as_xyz
1 x,y,z
2 -x,-y,-z
_cell_length_a                   7.785(2)
_cell_length_b                   9.037(2)
_cell_length_c                   17.055(4)
_cell_angle_alpha                102.021(3)
_cell_angle_beta                 96.298(3)
_cell_angle_gamma                100.567(3)
_cell_volume                     1139.93
loop_
_atom_site_label
_atom_site_type_symbol
_atom_site_fract_x
_atom_site_fract_y
_atom_site_fract_z
Zn1 Zn -0.09963(4) 0.74167(4) 0.25196(2)
C1 C -0.4142(4) 1.0638(3) 0.24733(17)
C2 C -0.3305(4) 1.2106(3) 0.23944(17)
C3 C -0.4303(4) 1.3081(3) 0.21073(18)
C4 C -0.6118(4) 1.2564(4) 0.1886(2)
H1 H -0.6779 1.3183 0.1669
C5 C -0.6959(4) 1.1141(4) 0.1983(2)
H2 H -0.8181 1.0824 0.1851
C6 C -0.5973(4) 1.0189(4) 0.2277(2)
H3 H -0.6544 0.9236 0.2344
C7 C -0.3147(4) 0.9490(3) 0.27220(19)
C8 C -0.1330(4) 1.2617(3) 0.25962(18)
C9 C -0.3472(4) 1.4703(4) 0.2062(2)
C10 C 0.1082(5) 1.3288(7) 0.3658(3)
H4 H 0.1701 1.2516 0.3430
H5 H 0.1309 1.3491 0.4239
H6 H 0.1481 1.4223 0.3487
C11 C 0.2410(4) 0.7954(4) 0.3752(2)
H7 H 0.3157 0.7817 0.3365
C12 C 0.0132(5) 0.8191(6) 0.4313(2)
H8 H -0.1020 0.8251 0.4389
C13 C 0.1478(5) 0.8318(6) 0.4908(2)
H9 H 0.1427 0.8478 0.5461
C14 C 0.4689(4) 0.8116(4) 0.4942(2)
H10 H 0.4912 0.8761 0.5489
H11 H 0.5578 0.8539 0.4646
C15 C 0.4857(4) 0.6512(3) 0.49769(19)
C16 C 0.4336(4) 0.5885(4) 0.56121(19)
H12 H 0.3890 0.6474 0.6025
C17 C 0.5522(4) 0.5624(4) 0.4365(2)
H13 H 0.5875 0.6035 0.3938
C18 C 0.0484(5) 0.7464(4) 0.0958(2)
H14 H -0.0194 0.8142 0.0817
C19 C 0.1610(5) 0.5986(4) 0.1587(2)
H15 H 0.1845 0.5436 0.1976
C20 C 0.2385(5) 0.5979(5) 0.0924(3)
H16 H 0.3250 0.5438 0.0773
C21 C 0.2142(7) 0.7286(6) -0.0237(2)
H17 H 0.1106 0.7448 -0.0551
H18 H 0.2509 0.6407 -0.0553
C22 C 0.3624(6) 0.8718(5) -0.0101(2)
C23 C 0.5244(7) 0.8805(6) 0.0355(3)
H19 H 0.5412 0.7997 0.0595
C24 C 0.3375(7) 0.9911(6) -0.0459(3)
H20 H 0.2295 0.9860 -0.0768
N1 N 0.0720(3) 0.7959(3) 0.35803(16)
N2 N 0.2919(3) 0.8168(3) 0.45459(16)
N3 N 0.0408(3) 0.6935(3) 0.16028(17)
N4 N 0.1665(4) 0.6920(3) 0.05120(17)
O1 O -0.1878(3) 0.9228(2) 0.23353(14)
O2 O -0.3621(3) 0.8835(3) 0.32557(16)
O3 O -0.0792(3) 1.2736(3) 0.33819(13)
O4 O -0.0361(3) 1.2873(3) 0.21170(14)
O5 O -0.2266(3) 0.5443(2) 0.26565(14)
O6 O -0.3963(4) 1.5222(3) 0.14884(18)
Zn1A Zn 1.09963(4) 0.25833(4) 0.74804(2)
Zn1_2 Zn -0.09963(4) 1.74167(4) 0.25196(2)
Zn1A_2 Zn 1.09963(4) 1.25833(4) -0.25196(2)
Zn1_3 Zn -0.09963(4) -0.25833(4) 0.25196(2)
C1_2 C -0.4142(4) 0.0638(3) 0.24733(17)
C2_2 C -0.3305(4) 0.2106(3) 0.23944(17)
C3_2 C -0.4303(4) 0.3081(3) 0.21073(18)
C4_2 C -0.6118(4) 0.2564(4) 0.1886(2)
H1_2 H -0.6779 0.3183 0.1669
C5_2 C -0.6959(4) 0.1141(4) 0.1983(2)
H2_2 H -0.8181 0.0824 0.1851
C6_2 C -0.5973(4) 0.0189(4) 0.2277(2)
H3_2 H -0.6544 -0.0764 0.2344
C7_2 C -0.3147(4) -0.0510(3) 0.27220(19)
C8_2 C -0.1330(4) 0.2617(3) 0.25962(18)
C9_2 C -0.3472(4) 0.4703(4) 0.2062(2)
C10_2 C 0.1082(5) 0.3288(7) 0.3658(3)
H4_2 H 0.1701 0.2516 0.3430
H5_2 H 0.1309 0.3491 0.4239
H6_2 H 0.1481 0.4223 0.3487
C11A C 0.7590(4) 0.2046(4) 0.6248(2)
H7A H 0.6843 0.2183 0.6635
C12A C 0.9868(5) 0.1809(6) 0.5687(2)
H8A H 1.1020 0.1749 0.5611
C13A C 0.8522(5) 0.1682(6) 0.5092(2)
H9A H 0.8573 0.1522 0.4539
C14A C 0.5311(4) 0.1884(4) 0.5058(2)
H10A H 0.5088 0.1239 0.4511
H11A H 0.4422 0.1461 0.5354
C15A C 0.5143(4) 0.3488(3) 0.50231(19)
C16A C 0.5664(4) 0.4115(4) 0.43879(19)
H12A H 0.6110 0.3526 0.3975
C17A C 0.4478(4) 0.4376(4) 0.5635(2)
H13A H 0.4125 0.3965 0.6062
C18A C 0.9516(5) 1.2536(4) -0.0958(2)
H14A H 1.0194 1.1858 -0.0817
C19A C 0.8390(5) 1.4014(4) -0.1587(2)
H15A H 0.8155 1.4564 -0.1976
C20A C 0.7615(5) 1.4021(5) -0.0924(3)
H16A H 0.6750 1.4562 -0.0773
C21A C 0.7858(7) 1.2714(6) 0.0237(2)
H17A H 0.8894 1.2552 0.0551
H18A H 0.7491 1.3593 0.0553
C22A C 0.6376(6) 1.1282(5) 0.0101(2)
C23A C 0.4756(7) 1.1195(6) -0.0355(3)
H19A H 0.4588 1.2003 -0.0595
C24A C 0.6625(7) 1.0089(6) 0.0459(3)
H20A H 0.7705 1.0140 0.0768
N1A N 0.9280(3) 0.2041(3) 0.64197(16)
N1A_2 N 0.9280(3) 1.2041(3) -0.35803(16)
N2A N 0.7081(3) 0.1832(3) 0.54541(16)
N3A N 0.9592(3) 1.3065(3) -0.16028(17)
N4A N 0.8335(4) 1.3080(3) -0.05120(17)
O1_2 O -0.1878(3) -0.0772(2) 0.23353(14)
O1A O 1.1878(3) 1.0772(2) -0.23353(14)
O2_2 O -0.3621(3) -0.1165(3) 0.32557(16)
O3_2 O -0.0792(3) 0.2736(3) 0.33819(13)
O4_2 O -0.0361(3) 0.2873(3) 0.21170(14)
O5_2 O -0.2266(3) 1.5443(2) 0.26565(14)
O5A O 1.2266(3) 1.4557(2) -0.26565(14)
O6_2 O -0.3963(4) 0.5222(3) 0.14884(18)
loop_
_geom_bond_atom_site_label_1
_geom_bond_atom_site_label_2
_geom_bond_site_symmetry_1
_geom_bond_site_symmetry_2
Zn1 N1 1_555 1_555
C1 C2 1_555 1_555
C2 C3 1_555 1_555
C3 C4 1_555 1_555
C4 H1 1_555 1_555
C5 C4 1_555 1_555
H2 C5 1_555 1_555
C6 C1 1_555 1_555
H3 C6 1_555 1_555
C7 C1 1_555 1_555
C8 C2 1_555 1_555
C9 C3 1_555 1_555
C10 H4 1_555 1_555
H5 C10 1_555 1_555
H6 C10 1_555 1_555
C11 H7 1_555 1_555
C12 H8 1_555 1_555
C13 C12 1_555 1_555
H9 C13 1_555 1_555
C14 H10 1_555 1_555
H11 C14 1_555 1_555
C15 C14 1_555 1_555
C16 C15 1_555 1_555
H12 C16 1_555 1_555
C17 C15 1_555 1_555
H13 C17 1_555 1_555
C18 H14 1_555 1_555
C19 H15 1_555 1_555
C20 C19 1_555 1_555
H16 C20 1_555 1_555
C21 H17 1_555 1_555
H18 C21 1_555 1_555
C22 C21 1_555 1_555
C23 C22 1_555 1_555
H19 C23 1_555 1_555
C24 C22 1_555 1_555
H20 C24 1_555 1_555
N1 C11 1_555 1_555
N2 C11 1_555 1_555
N3 Zn1 1_555 1_555
N4 C18 1_555 1_555
O1 Zn1 1_555 1_555
O2 C7 1_555 1_555
O3 C8 1_555 1_555
O4 C8 1_555 1_555
O5 Zn1 1_555 1_555
O6 C9 1_555 1_555
Zn1A N1A 1_555 1_555
Zn1_2 O5_2 1_555 1_555
Zn1A_2 N1A_2 1_555 1_555
Zn1_3 O1_2 1_555 1_555
C1_2 C2_2 1_555 1_555
C2_2 C3_2 1_555 1_555
C3_2 C4_2 1_555 1_555
C4_2 H1_2 1_555 1_555
C5_2 C4_2 1_555 1_555
H2_2 C5_2 1_555 1_555
C6_2 C1_2 1_555 1_555
H3_2 C6_2 1_555 1_555
C7_2 C1_2 1_555 1_555
C8_2 C2_2 1_555 1_555
C9_2 O5 1_555 1_555
C10_2 H4_2 1_555 1_555
H5_2 C10_2 1_555 1_555
H6_2 C10_2 1_555 1_555
C11A H7A 1_555 1_555
C12A H8A 1_555 1_555
C13A C12A 1_555 1_555
H9A C13A 1_555 1_555
C14A H10A 1_555 1_555
H11A C14A 1_555 1_555
C15A C14A 1_555 1_555
C16A C17 1_555 1_555
H12A C16A 1_555 1_555
C17A C16 1_555 1_555
H13A C17A 1_555 1_555
C18A H14A 1_555 1_555
C19A H15A 1_555 1_555
C20A C19A 1_555 1_555
H16A C20A 1_555 1_555
C21A H17A 1_555 1_555
H18A C21A 1_555 1_555
C22A C21A 1_555 1_555
C23A C24 1_555 1_555
H19A C23A 1_555 1_555
C24A C23 1_555 1_555
H20A C24A 1_555 1_555
N1A C11A 1_555 1_555
N2A C11A 1_555 1_555
N3A Zn1A_2 1_555 1_555
N4A C18A 1_555 1_555
O1_2 C7_2 1_555 1_555
O1A Zn1A_2 1_555 1_555
O2_2 C7_2 1_555 1_555
O3_2 C8_2 1_555 1_555
O4_2 C8_2 1_555 1_555
O5_2 C9 1_555 1_555
O5A Zn1A_2 1_555 1_555
O6_2 C9_2 1_555 1_555
C5 C6 1_555 1_555
C7 O1 1_555 1_555
C10 O3 1_555 1_555
C12 N1 1_555 1_555
C13 N2 1_555 1_555
C14 N2 1_555 1_555
C18 N3 1_555 1_555
C19 N3 1_555 1_555
C20 N4 1_555 1_555
C21 N4 1_555 1_555
C3_2 C9_2 1_555 1_555
C5_2 C6_2 1_555 1_555
C10_2 O3_2 1_555 1_555
C12A N1A 1_555 1_555
C13A N2A 1_555 1_555
C14A N2A 1_555 1_555
C15A C16A 1_555 1_555
C15A C17A 1_555 1_555
C18A N3A 1_555 1_555
C19A N3A 1_555 1_555
C20A N4A 1_555 1_555
C21A N4A 1_555 1_555
C22A C23A 1_555 1_555
C22A C24A 1_555 1_555

#END
