
#######################################################################
#
#                 Cambridge Crystallographic Data Centre
#                                CCDC 
#
#######################################################################
#
# If this CIF has been generated from an entry in the Cambridge 
# Structural Database, then it will include bibliographic, chemical, 
# crystal, experimental, refinement or atomic coordinate data resulting 
# from the CCDC's data processing and validation procedures.
#
#######################################################################

data_TAPGAT
_symmetry_cell_setting           monoclinic
_symmetry_space_group_name_H-M   'C 2/m'
_symmetry_Int_Tables_number      12
_space_group_name_Hall           '-C 2y'
loop_
_symmetry_equiv_pos_site_id
_symmetry_equiv_pos_as_xyz
1 x,y,z
2 1/2+x,1/2+y,z
3 -x,y,-z
4 1/2-x,1/2+y,-z
5 -x,-y,-z
6 1/2-x,1/2-y,-z
7 x,-y,z
8 1/2+x,1/2-y,z
_cell_length_a                   9.4062(19)
_cell_length_b                   22.477(5)
_cell_length_c                   7.9097(16)
_cell_angle_alpha                90
_cell_angle_beta                 105.30(3)
_cell_angle_gamma                90
_cell_volume                     1613.02
loop_
_atom_site_label
_atom_site_type_symbol
_atom_site_fract_x
_atom_site_fract_y
_atom_site_fract_z
Mn1 Mn 0.5000 0.5000 1.5000
Cl1 Cl 0.65300(12) 0.5000 1.81662(13)
S1 S 1.0000 0.72823(6) 1.0000
N1 N 0.6417(3) 0.57686(12) 1.4300(3)
N2 N 0.8847(3) 0.62056(14) 1.0188(4)
C1 C 0.6566(3) 0.58772(13) 1.2684(4)
H1 H 0.6123 0.5614 1.1794
C2 C 0.7332(3) 0.63525(14) 1.2255(4)
C3 C 0.7983(4) 0.67486(15) 1.3576(4)
H2 H 0.8506 0.7075 1.3340
C4 C 0.7842(4) 0.66510(16) 1.5253(4)
H3 H 0.8268 0.6910 1.6162
C5 C 0.7056(3) 0.61611(15) 1.5547(4)
H4 H 0.6963 0.6099 1.6676
C6 C 0.7463(3) 0.64369(15) 1.0398(4)
H5 H 0.6652 0.6235 0.9587
H6 H 0.7393 0.6857 1.0111
C7 C 1.0000 0.6535(2) 1.0000
H7 H 0.894(4) 0.5832(17) 1.024(4)
Mn1_2 Mn 1.5000 0.5000 0.5000
Cl1D Cl 0.34700(12) 0.5000 1.18338(13)
S1F S 1.0000 0.27177(6) 1.0000
N1B N 1.3583(3) 0.57686(12) 0.5700(3)
N1F N 0.6417(3) 0.42314(12) 1.4300(3)
N1D N 1.3583(3) 0.42314(12) 0.5700(3)
N1D_2 N 0.3583(3) 0.42314(12) 1.5700(3)
N1B_2 N 0.3583(3) 0.57686(12) 1.5700(3)
N2B N 1.1153(3) 0.62056(14) 0.9812(4)
N2F N 0.8847(3) 0.37944(14) 1.0188(4)
N2D N 1.1153(3) 0.37944(14) 0.9812(4)
C1B C 1.3434(3) 0.58772(13) 0.7316(4)
C1F C 0.6566(3) 0.41228(13) 1.2684(4)
C1D C 1.3434(3) 0.41228(13) 0.7316(4)
H1B H 1.3877 0.5614 0.8206
H1F H 0.6123 0.4386 1.1794
H1D H 1.3877 0.4386 0.8206
C2B C 1.2668(3) 0.63525(14) 0.7745(4)
C2F C 0.7332(3) 0.36475(14) 1.2255(4)
C2D C 1.2668(3) 0.36475(14) 0.7745(4)
C3B C 1.2017(4) 0.67486(15) 0.6424(4)
C3F C 0.7983(4) 0.32514(15) 1.3576(4)
C3D C 1.2017(4) 0.32514(15) 0.6424(4)
H2B H 1.1494 0.7075 0.6660
H2F H 0.8506 0.2925 1.3340
H2D H 1.1494 0.2925 0.6660
C4B C 1.2158(4) 0.66510(16) 0.4747(4)
C4F C 0.7842(4) 0.33490(16) 1.5253(4)
C4D C 1.2158(4) 0.33490(16) 0.4747(4)
H3B H 1.1732 0.6910 0.3838
H3F H 0.8268 0.3090 1.6162
H3D H 1.1732 0.3090 0.3838
C5B C 1.2944(3) 0.61611(15) 0.4453(4)
C5F C 0.7056(3) 0.38389(15) 1.5547(4)
C5D C 1.2944(3) 0.38389(15) 0.4453(4)
H4B H 1.3037 0.6099 0.3324
H4F H 0.6963 0.3901 1.6676
H4D H 1.3037 0.3901 0.3324
C6B C 1.2537(3) 0.64369(15) 0.9602(4)
C6F C 0.7463(3) 0.35631(15) 1.0398(4)
C6D C 1.2537(3) 0.35631(15) 0.9602(4)
H5B H 1.3348 0.6235 1.0413
H5F H 0.6652 0.3765 0.9587
H5D H 1.3348 0.3765 1.0413
H6B H 1.2607 0.6857 0.9889
H6F H 0.7393 0.3143 1.0111
H6D H 1.2607 0.3143 0.9889
C7F C 1.0000 0.3465(2) 1.0000
H7B H 1.106(4) 0.5832(17) 0.976(4)
H7F H 0.894(4) 0.4168(17) 1.024(4)
H7D H 1.106(4) 0.4168(17) 0.976(4)
O1 O 0.9877(7) 0.5000 1.8247(13)
C8 C 0.9981(18) 0.5000 1.639(2)
loop_
_geom_bond_atom_site_label_1
_geom_bond_atom_site_label_2
_geom_bond_site_symmetry_1
_geom_bond_site_symmetry_2
Mn1 Cl1 1_555 1_555
S1 C7 1_555 1_555
N1 Mn1 1_555 1_555
N2 C6 1_555 1_555
C1 N1 1_555 1_555
H1 C1 1_555 1_555
C2 C1 1_555 1_555
C3 C2 1_555 1_555
H2 C3 1_555 1_555
C4 C3 1_555 1_555
H3 C4 1_555 1_555
C5 N1 1_555 1_555
H4 C5 1_555 1_555
C6 C2 1_555 1_555
H5 C6 1_555 1_555
H6 C6 1_555 1_555
C7 N2 1_555 1_555
H7 N2 1_555 1_555
O1 C8 1_555 1_555
Mn1_2 N1B 1_555 1_555
Cl1D Mn1 1_555 1_555
S1F C7F 1_555 1_555
N1B C1B 1_555 1_555
N1F Mn1 1_555 1_555
N1D Mn1_2 1_555 1_555
N1D_2 Mn1 1_555 1_555
N1B_2 Mn1 1_555 1_555
N2B C7 1_555 1_555
N2F C6F 1_555 1_555
N2D C6D 1_555 1_555
C1B H1B 1_555 1_555
C1F N1F 1_555 1_555
C1D N1D 1_555 1_555
H1F C1F 1_555 1_555
H1D C1D 1_555 1_555
C2B C1B 1_555 1_555
C2F C1F 1_555 1_555
C2D C1D 1_555 1_555
C3B C2B 1_555 1_555
C3F C2F 1_555 1_555
C3D C2D 1_555 1_555
H2B C3B 1_555 1_555
H2F C3F 1_555 1_555
H2D C3D 1_555 1_555
C4B C3B 1_555 1_555
C4F C3F 1_555 1_555
C4D C3D 1_555 1_555
H3B C4B 1_555 1_555
H3F C4F 1_555 1_555
H3D C4D 1_555 1_555
C5B N1B 1_555 1_555
C5F N1F 1_555 1_555
C5D N1D 1_555 1_555
H4B C5B 1_555 1_555
H4F C5F 1_555 1_555
H4D C5D 1_555 1_555
C6B N2B 1_555 1_555
C6F C2F 1_555 1_555
C6D C2D 1_555 1_555
H5B C6B 1_555 1_555
H5F C6F 1_555 1_555
H5D C6D 1_555 1_555
H6B C6B 1_555 1_555
H6F C6F 1_555 1_555
H6D C6D 1_555 1_555
C7F N2F 1_555 1_555
H7B N2B 1_555 1_555
H7F N2F 1_555 1_555
H7D N2D 1_555 1_555
C4 C5 1_555 1_555
N2D C7F 1_555 1_555
C2B C6B 1_555 1_555
C4B C5B 1_555 1_555
C4F C5F 1_555 1_555
C4D C5D 1_555 1_555

#END
