
#######################################################################
#
#                 Cambridge Crystallographic Data Centre
#                                CCDC 
#
#######################################################################
#
# If this CIF has been generated from an entry in the Cambridge 
# Structural Database, then it will include bibliographic, chemical, 
# crystal, experimental, refinement or atomic coordinate data resulting 
# from the CCDC's data processing and validation procedures.
#
#######################################################################

data_TAPJUR
_symmetry_cell_setting           monoclinic
_symmetry_space_group_name_H-M   'P 21/n'
_symmetry_Int_Tables_number      14
_space_group_name_Hall           '-P 2yn'
loop_
_symmetry_equiv_pos_site_id
_symmetry_equiv_pos_as_xyz
1 x,y,z
2 1/2-x,1/2+y,1/2-z
3 -x,-y,-z
4 1/2+x,1/2-y,1/2+z
_cell_length_a                   5.579(3)
_cell_length_b                   12.653(6)
_cell_length_c                   16.384(9)
_cell_angle_alpha                90
_cell_angle_beta                 95.977(10)
_cell_angle_gamma                90
_cell_volume                     1150.28
loop_
_atom_site_label
_atom_site_type_symbol
_atom_site_fract_x
_atom_site_fract_y
_atom_site_fract_z
Zn1 Zn 0.08082(11) 0.17342(5) 0.21725(4)
Zn2 Zn 0.23142(11) -0.08335(5) 0.44331(4)
P1 P 0.0109(2) 0.15106(11) 0.40361(9)
P2 P 0.2697(2) 0.20927(11) 0.57283(9)
O1 O -0.0575(7) 0.1943(3) 0.3178(2)
O2 O 0.1742(7) 0.0559(3) 0.4020(3)
O3 O -0.2179(6) 0.1299(3) 0.4438(2)
O4 O 0.0329(6) 0.1772(3) 0.6060(2)
O5 O 0.4419(6) 0.1182(3) 0.5731(3)
O6 O 0.3791(7) 0.3056(3) 0.6177(3)
O7 O 0.4068(6) 0.2718(3) 0.4252(2)
H1 H 0.5023 0.2233 0.4361
O8 O 0.3256(9) 0.2902(4) 0.2404(3)
H2 H 0.436(15) 0.281(7) 0.214(5)
H3 H 0.40(2) 0.287(11) 0.295(9)
N1 N 0.1979(8) 0.5505(4) 0.3007(3)
C1 C 0.1906(9) 0.2533(4) 0.4650(3)
C2 C 0.0605(10) 0.3606(4) 0.4685(3)
H4 H -0.0994 0.3479 0.4847
H5 H 0.1472 0.4032 0.5111
C3 C 0.0351(10) 0.4239(4) 0.3897(4)
C4 C 0.2134(9) 0.4940(4) 0.3707(4)
H6 H 0.3494 0.5023 0.4081
C5 C -0.1700(10) 0.4175(4) 0.3337(4)
H7 H -0.2982 0.3751 0.3454
C6 C -0.1852(11) 0.4733(5) 0.2612(4)
H8 H -0.3203 0.4674 0.2231
C7 C 0.0027(10) 0.5377(5) 0.2463(4)
H9 H -0.0052 0.5739 0.1967
Zn1C Zn 0.58082(11) 0.32658(5) 0.71725(4)
Zn1A Zn 0.41918(11) 0.67342(5) 0.28275(4)
Zn2B Zn -0.23142(11) 0.08335(5) 0.55669(4)
Zn2B_2 Zn 0.76858(11) 0.08335(5) 0.55669(4)
O3B O 0.2179(6) -0.1299(3) 0.5562(2)
O4B O -0.0329(6) -0.1772(3) 0.3940(2)
O5B O 0.5581(6) -0.1182(3) 0.4269(3)
O6C O -0.1209(7) 0.1944(3) 0.1177(3)
N1A N 0.3021(8) 0.0505(4) 0.1993(3)
loop_
_geom_bond_atom_site_label_1
_geom_bond_atom_site_label_2
_geom_bond_site_symmetry_1
_geom_bond_site_symmetry_2
Zn1 O1 1_555 1_555
Zn2 O2 1_555 1_555
P1 O1 1_555 1_555
P2 O4 1_555 1_555
O2 P1 1_555 1_555
O3 P1 1_555 1_555
O4 Zn2B 1_555 1_555
O5 P2 1_555 1_555
O6 P2 1_555 1_555
O7 H1 1_555 1_555
O8 Zn1 1_555 1_555
H2 O8 1_555 1_555
H3 O8 1_555 1_555
N1 C4 1_555 1_555
C1 P1 1_555 1_555
C2 C1 1_555 1_555
H4 C2 1_555 1_555
H5 C2 1_555 1_555
C3 C2 1_555 1_555
C4 C3 1_555 1_555
H6 C4 1_555 1_555
C5 C3 1_555 1_555
H7 C5 1_555 1_555
C6 C5 1_555 1_555
H8 C6 1_555 1_555
C7 N1 1_555 1_555
H9 C7 1_555 1_555
Zn1C O6 1_555 1_555
Zn1A N1 1_555 1_555
Zn2B O3 1_555 1_555
Zn2B_2 O5 1_555 1_555
O3B Zn2 1_555 1_555
O4B Zn2 1_555 1_555
O5B Zn2 1_555 1_555
O6C Zn1 1_555 1_555
N1A Zn1 1_555 1_555
P2 C1 1_555 1_555
O7 C1 1_555 1_555
C6 C7 1_555 1_555

#END
