
#######################################################################
#
#                 Cambridge Crystallographic Data Centre
#                                CCDC 
#
#######################################################################
#
# If this CIF has been generated from an entry in the Cambridge 
# Structural Database, then it will include bibliographic, chemical, 
# crystal, experimental, refinement or atomic coordinate data resulting 
# from the CCDC's data processing and validation procedures.
#
#######################################################################

data_TAPKUS
_symmetry_cell_setting           triclinic
_symmetry_space_group_name_H-M   'P -1'
_symmetry_Int_Tables_number      2
_space_group_name_Hall           '-P 1'
loop_
_symmetry_equiv_pos_site_id
_symmetry_equiv_pos_as_xyz
1 x,y,z
2 -x,-y,-z
_cell_length_a                   11.6327(19)
_cell_length_b                   11.6594(19)
_cell_length_c                   11.861(2)
_cell_angle_alpha                71.091(3)
_cell_angle_beta                 77.130(3)
_cell_angle_gamma                85.864(3)
_cell_volume                     1483.66
loop_
_atom_site_label
_atom_site_type_symbol
_atom_site_fract_x
_atom_site_fract_y
_atom_site_fract_z
Cu1 Cu 0.74632(12) 0.20697(12) 0.61788(14)
Mo1 Mo 0.79756(9) 0.30829(9) 0.24917(9)
Mo2 Mo 1.03930(8) 0.49543(9) 0.13773(9)
Mo3 Mo 1.00046(9) 0.23952(9) 0.04622(9)
Mo4 Mo 0.75964(8) 0.57512(9) 0.06420(9)
C1 C 0.9677(10) 0.3524(11) 0.5486(12)
H1 H 0.9381 0.4159 0.4917
C2 C 0.9801(9) 0.1868(11) 0.6817(11)
H2 H 0.9639 0.1100 0.7380
C3 C 1.1845(9) 0.2127(11) 0.7053(11)
H3 H 1.1891 0.2566 0.7610
H4 H 1.2527 0.2344 0.6384
C4 C 1.1861(9) 0.0779(11) 0.7710(11)
H5 H 1.1163 0.0554 0.8357
H6 H 1.1851 0.0338 0.7144
C5 C 1.2946(10) 0.0441(11) 0.8239(11)
H7 H 1.2897 0.0807 0.8875
H8 H 1.2960 -0.0431 0.8613
C6 C 1.5397(10) 0.0869(12) 0.5844(13)
H9 H 1.5828 0.0761 0.5125
C7 C 1.4912(9) 0.1428(10) 0.7392(10)
H10 H 1.4913 0.1772 0.7998
C8 C 0.8580(10) 0.0097(11) 0.5152(13)
H11 H 0.9013 0.0645 0.4454
C9 C 0.7567(10) -0.0636(10) 0.6931(12)
H12 H 0.7134 -0.0739 0.7717
C10 C 0.7361(10) -0.2738(10) 0.6896(12)
H13 H 0.7423 -0.3110 0.7739
H14 H 0.7815 -0.3220 0.6422
C11 C 0.6084(11) -0.2701(11) 0.6799(12)
H15 H 0.5642 -0.2184 0.7240
H16 H 0.6030 -0.2357 0.5950
C12 C 0.5556(11) -0.3945(11) 0.7309(14)
H17 H 0.5652 -0.4301 0.8144
H18 H 0.4718 -0.3881 0.7322
C13 C 0.6522(10) -0.5834(11) 0.7002(11)
H19 H 0.6577 -0.6241 0.7804
H20 H 0.6754 -0.5372 0.4310
C14 C 0.6613(13) -0.5333(12) 0.5097(13)
N1 N 0.9073(8) 0.2518(9) 0.6129(10)
N2 N 1.0723(9) 0.3558(9) 0.5712(11)
N3 N 1.0780(7) 0.2472(8) 0.6583(8)
N4 N 1.5804(8) 0.1491(9) 0.6446(9)
N5 N 1.4340(9) 0.0430(10) 0.6362(10)
N6 N 1.4045(8) 0.0821(9) 0.7345(8)
N7 N 0.8008(8) 0.0412(8) 0.6149(10)
N8 N 0.8462(9) -0.1033(10) 0.5270(11)
N9 N 0.7828(8) -0.1509(9) 0.6441(9)
N10 N 0.6870(8) -0.6266(9) 0.6079(10)
N11 N 0.6147(10) -0.4409(10) 0.5387(11)
N12 N 0.6090(9) -0.4744(8) 0.6610(10)
O1 O 0.7563(8) 0.2490(8) 0.4029(8)
O2 O 0.6963(8) 0.2561(8) 0.1952(9)
O3 O 1.1428(7) 0.5517(8) 0.1840(8)
O4 O 0.8970(8) 0.1931(8) -0.0087(9)
O5 O 1.1054(8) 0.1312(8) 0.0547(8)
O6 O 0.6612(7) 0.5190(9) 0.0090(9)
O7 O 0.6963(7) 0.7040(8) 0.0852(8)
O8 O 0.9498(7) 0.4049(7) 0.2698(7)
O9 O 0.9277(7) 0.2068(7) 0.2120(8)
O10 O 0.7369(6) 0.4701(7) 0.2253(7)
O11 O 0.9312(7) 0.6323(7) 0.1051(7)
O12 O 1.1246(6) 0.3608(6) 0.0906(6)
O13 O 0.9012(6) 0.4241(7) 0.0546(6)
O14 O 0.7258(10) 0.1300(11) 0.8552(10)
H21 H 0.7471 0.1860 0.8776
H22 H 0.6542 0.1116 0.8895
Cu1_2 Cu -0.25368(12) 0.20697(12) 0.61788(14)
Cu1_3 Cu 1.74632(12) 0.20697(12) 0.61788(14)
Cu1_4 Cu 0.74632(12) -0.79303(12) 0.61788(14)
Cu1A Cu 1.25368(12) 0.79303(12) -0.61788(14)
Cu1_5 Cu 0.74632(12) 1.20697(12) 0.61788(14)
Mo1A Mo 1.20244(9) 0.69171(9) -0.24917(9)
Mo2A Mo 0.96070(8) 0.50457(9) -0.13773(9)
Mo3A Mo 0.99954(9) 0.76048(9) -0.04622(9)
Mo4A Mo 1.24036(8) 0.42488(9) -0.06420(9)
C1_2 C -0.0323(10) 0.3524(11) 0.5486(12)
H1_2 H -0.0619 0.4159 0.4917
C2_2 C -0.0199(9) 0.1868(11) 0.6817(11)
H2_2 H -0.0361 0.1100 0.7380
C3_2 C 0.1845(9) 0.2127(11) 0.7053(11)
H3_2 H 0.1891 0.2566 0.7610
H4_2 H 0.2527 0.2344 0.6384
C4_2 C 0.1861(9) 0.0779(11) 0.7710(11)
H5_2 H 0.1163 0.0554 0.8357
H6_2 H 0.1851 0.0338 0.7144
C5_2 C 0.2946(10) 0.0441(11) 0.8239(11)
H7_2 H 0.2897 0.0807 0.8875
H8_2 H 0.2960 -0.0431 0.8613
C6_2 C 0.5397(10) 0.0869(12) 0.5844(13)
H9_2 H 0.5828 0.0761 0.5125
C7_2 C 0.4912(9) 0.1428(10) 0.7392(10)
H10_2 H 0.4913 0.1772 0.7998
C8_2 C 0.8580(10) 1.0097(11) 0.5152(13)
H11_2 H 0.9013 1.0645 0.4454
C9_2 C 0.7567(10) 0.9364(10) 0.6931(12)
H12_2 H 0.7134 0.9261 0.7717
C10_2 C 0.7361(10) 0.7262(10) 0.6896(12)
H13_2 H 0.7423 0.6890 0.7739
H14_2 H 0.7815 0.6780 0.6422
C11_2 C 0.6084(11) 0.7299(11) 0.6799(12)
H15_2 H 0.5642 0.7816 0.7240
H16_2 H 0.6030 0.7643 0.5950
C12_2 C 0.5556(11) 0.6055(11) 0.7309(14)
H17_2 H 0.5652 0.5699 0.8144
H18_2 H 0.4718 0.6119 0.7322
C13_2 C 0.6522(10) 0.4166(11) 0.7002(11)
H19_2 H 0.6577 0.3759 0.7804
H20_2 H 0.6754 0.4628 0.4310
C14_2 C 0.6613(13) 0.4667(12) 0.5097(13)
N1_2 N -0.0927(8) 0.2518(9) 0.6129(10)
N2_2 N 0.0723(9) 0.3558(9) 0.5712(11)
N3_2 N 0.0780(7) 0.2472(8) 0.6583(8)
N4_2 N 0.5804(8) 0.1491(9) 0.6446(9)
N4_3 N -0.4196(8) 0.1491(9) 0.6446(9)
N5_2 N 0.4340(9) 0.0430(10) 0.6362(10)
N6_2 N 0.4045(8) 0.0821(9) 0.7345(8)
N7_2 N 0.8008(8) 1.0412(8) 0.6149(10)
N7_3 N -0.1992(8) 0.0412(8) 0.6149(10)
N8_2 N 0.8462(9) 0.8967(10) 0.5270(11)
N9_2 N 0.7828(8) 0.8491(9) 0.6441(9)
N10_2 N 0.6870(8) 0.3734(9) 0.6079(10)
N10_3 N -0.3130(8) 0.3734(9) 0.6079(10)
N11_2 N 0.6147(10) 0.5591(10) 0.5387(11)
N12_2 N 0.6090(9) 0.5256(8) 0.6610(10)
O1A O 1.2437(8) 0.7510(8) -0.4029(8)
O1_2 O -0.2437(8) 0.2490(8) 0.4029(8)
O2A O 1.3037(8) 0.7439(8) -0.1952(9)
O3A O 0.8572(7) 0.4483(8) -0.1840(8)
O4A O 1.1030(8) 0.8069(8) 0.0087(9)
O5A O 0.8946(8) 0.8688(8) -0.0547(8)
O6A O 1.3388(7) 0.4810(9) -0.0090(9)
O7A O 1.3037(7) 0.2960(8) -0.0852(8)
O8A O 1.0502(7) 0.5951(7) -0.2698(7)
O9A O 1.0723(7) 0.7932(7) -0.2120(8)
O10A O 1.2631(6) 0.5299(7) -0.2253(7)
O11A O 1.0688(7) 0.3677(7) -0.1051(7)
O12A O 0.8754(6) 0.6392(6) -0.0906(6)
O13A O 1.0988(6) 0.5759(7) -0.0546(6)
O14_2 O -0.2742(10) 0.1300(11) 0.8552(10)
H21_2 H -0.2529 0.1860 0.8776
H22_2 H -0.3458 0.1116 0.8895
O15 O 0.5521(16) 0.2913(14) 0.0064(14)
H23 H 0.5734 0.2822 0.0729
H24 H 0.4787 0.2770 0.0212
O16 O 0.4307(16) 0.0911(18) 0.0503(18)
H25 H 0.4610 0.1021 0.1049
H26 H 0.4104 0.1590 0.0053
loop_
_geom_bond_atom_site_label_1
_geom_bond_atom_site_label_2
_geom_bond_site_symmetry_1
_geom_bond_site_symmetry_2
Cu1 N1 1_555 1_555
Mo1 O1 1_555 1_555
Mo2 O3 1_555 1_555
Mo3 O4 1_555 1_555
Mo4 O6 1_555 1_555
C1 H1 1_555 1_555
C2 H2 1_555 1_555
C3 H3 1_555 1_555
H4 C3 1_555 1_555
C4 C3 1_555 1_555
H5 C4 1_555 1_555
H6 C4 1_555 1_555
C5 C4 1_555 1_555
H7 C5 1_555 1_555
H8 C5 1_555 1_555
C6 H9 1_555 1_555
C7 H10 1_555 1_555
C8 H11 1_555 1_555
C9 H12 1_555 1_555
C10 H13 1_555 1_555
H14 C10 1_555 1_555
C11 C10 1_555 1_555
H15 C11 1_555 1_555
H16 C11 1_555 1_555
C12 C11 1_555 1_555
H17 C12 1_555 1_555
H18 C12 1_555 1_555
C13 H19 1_555 1_555
H20 C14 1_555 1_555
C14 N10 1_555 1_555
N1 C1 1_555 1_555
N2 C1 1_555 1_555
N3 C2 1_555 1_555
N4 C6 1_555 1_555
N5 C6 1_555 1_555
N6 C5 1_555 1_555
N7 Cu1 1_555 1_555
N8 C8 1_555 1_555
N9 C9 1_555 1_555
N10 C13 1_555 1_555
N11 C14 1_555 1_555
N12 C12 1_555 1_555
O1 Cu1 1_555 1_555
O2 Mo1 1_555 1_555
O5 Mo3 1_555 1_555
O7 Mo4 1_555 1_555
O8 Mo1 1_555 1_555
O9 Mo1 1_555 1_555
O10 Mo1 1_555 1_555
O11 Mo2 1_555 1_555
O12 Mo2 1_555 1_555
O13 Mo1 1_555 1_555
O14 Cu1 1_555 1_555
H21 O14 1_555 1_555
H22 O14 1_555 1_555
O15 H23 1_555 1_555
H24 O15 1_555 1_555
O16 H25 1_555 1_555
H26 O16 1_555 1_555
Cu1_2 N1_2 1_555 1_555
Cu1_3 N4 1_555 1_555
Cu1_4 N10 1_555 1_555
Cu1A O1A 1_555 1_555
Cu1_5 N7_2 1_555 1_555
Mo1A O1A 1_555 1_555
Mo2A O13 1_555 1_555
Mo3A O11 1_555 1_555
Mo4A O12 1_555 1_555
C1_2 H1_2 1_555 1_555
C2_2 H2_2 1_555 1_555
C3_2 H3_2 1_555 1_555
H4_2 C3_2 1_555 1_555
C4_2 C3_2 1_555 1_555
H5_2 C4_2 1_555 1_555
H6_2 C4_2 1_555 1_555
C5_2 C4_2 1_555 1_555
H7_2 C5_2 1_555 1_555
H8_2 C5_2 1_555 1_555
C6_2 H9_2 1_555 1_555
C7_2 H10_2 1_555 1_555
C8_2 H11_2 1_555 1_555
C9_2 H12_2 1_555 1_555
C10_2 H13_2 1_555 1_555
H14_2 C10_2 1_555 1_555
C11_2 C10_2 1_555 1_555
H15_2 C11_2 1_555 1_555
H16_2 C11_2 1_555 1_555
C12_2 C11_2 1_555 1_555
H17_2 C12_2 1_555 1_555
H18_2 C12_2 1_555 1_555
C13_2 H19_2 1_555 1_555
H20_2 C14_2 1_555 1_555
C14_2 N10_2 1_555 1_555
N1_2 C1_2 1_555 1_555
N2_2 C1_2 1_555 1_555
N3_2 C2_2 1_555 1_555
N4_2 Cu1 1_555 1_555
N4_3 Cu1_2 1_555 1_555
N5_2 C6_2 1_555 1_555
N6_2 C5_2 1_555 1_555
N7_2 C8_2 1_555 1_555
N7_3 Cu1_2 1_555 1_555
N8_2 C8_2 1_555 1_555
N9_2 C9_2 1_555 1_555
N10_2 Cu1 1_555 1_555
N10_3 Cu1_2 1_555 1_555
N11_2 C14_2 1_555 1_555
N12_2 C12_2 1_555 1_555
O1_2 Cu1_2 1_555 1_555
O2A Mo1A 1_555 1_555
O3A Mo2A 1_555 1_555
O4A Mo3A 1_555 1_555
O5A Mo3A 1_555 1_555
O6A Mo4A 1_555 1_555
O7A Mo4A 1_555 1_555
O8A Mo1A 1_555 1_555
O9A Mo1A 1_555 1_555
O10A Mo1A 1_555 1_555
O11A Mo3 1_555 1_555
O12A Mo4 1_555 1_555
O13A Mo2 1_555 1_555
O14_2 Cu1_2 1_555 1_555
H21_2 O14_2 1_555 1_555
H22_2 O14_2 1_555 1_555
Mo2 O8 1_555 1_555
Mo2 O13 1_555 1_555
Mo3 O9 1_555 1_555
Mo3 O12 1_555 1_555
Mo3 O13 1_555 1_555
Mo4 O10 1_555 1_555
Mo4 O11 1_555 1_555
Mo4 O13 1_555 1_555
C2 N1 1_555 1_555
C3 N3 1_555 1_555
C7 N4 1_555 1_555
C7 N6 1_555 1_555
C8 N7 1_555 1_555
C9 N7 1_555 1_555
C10 N9 1_555 1_555
C13 N12 1_555 1_555
N2 N3 1_555 1_555
N5 N6 1_555 1_555
N8 N9 1_555 1_555
N11 N12 1_555 1_555
Mo1A O13A 1_555 1_555
Mo2A O8A 1_555 1_555
Mo2A O11A 1_555 1_555
Mo2A O12A 1_555 1_555
Mo2A O13A 1_555 1_555
Mo3A O9A 1_555 1_555
Mo3A O12A 1_555 1_555
Mo3A O13A 1_555 1_555
Mo4A O10A 1_555 1_555
Mo4A O11A 1_555 1_555
Mo4A O13A 1_555 1_555
C2_2 N1_2 1_555 1_555
C3_2 N3_2 1_555 1_555
C6_2 N4_2 1_555 1_555
C7_2 N4_2 1_555 1_555
C7_2 N6_2 1_555 1_555
C9_2 N7_2 1_555 1_555
C10_2 N9_2 1_555 1_555
C13_2 N10_2 1_555 1_555
C13_2 N12_2 1_555 1_555
N2_2 N3_2 1_555 1_555
N5_2 N6_2 1_555 1_555
N8_2 N9_2 1_555 1_555
N11_2 N12_2 1_555 1_555

#END
