
#######################################################################
#
#                 Cambridge Crystallographic Data Centre
#                                CCDC 
#
#######################################################################
#
# If this CIF has been generated from an entry in the Cambridge 
# Structural Database, then it will include bibliographic, chemical, 
# crystal, experimental, refinement or atomic coordinate data resulting 
# from the CCDC's data processing and validation procedures.
#
#######################################################################

data_TAPVAI
_symmetry_cell_setting           monoclinic
_symmetry_space_group_name_H-M   'P 21/n'
_symmetry_Int_Tables_number      14
_space_group_name_Hall           '-P 2yn'
loop_
_symmetry_equiv_pos_site_id
_symmetry_equiv_pos_as_xyz
1 x,y,z
2 1/2-x,1/2+y,1/2-z
3 -x,-y,-z
4 1/2+x,1/2-y,1/2+z
_cell_length_a                   12.076(2)
_cell_length_b                   6.757(2)
_cell_length_c                   17.875(2)
_cell_angle_alpha                90
_cell_angle_beta                 101.880(10)
_cell_angle_gamma                90
_cell_volume                     1427.31
loop_
_atom_site_label
_atom_site_type_symbol
_atom_site_fract_x
_atom_site_fract_y
_atom_site_fract_z
Cu1 Cu 0.79396(2) 0.04323(4) 0.819384(15)
Br1 Br 1.36883(2) 0.45925(5) 0.928613(16)
O1 O 0.93630(14) 0.0421(3) 0.78870(10)
N1 N 0.86110(15) 0.1375(3) 0.92178(10)
N2 N 0.64354(17) 0.0441(3) 0.85784(11)
N3 N 0.72361(18) -0.0774(3) 0.71995(11)
N4 N 0.68144(18) 0.0313(3) 0.66898(12)
N5 N 0.6395(2) 0.1303(4) 0.61845(14)
C1 C 1.02788(19) 0.1317(3) 0.82277(13)
C2 C 1.1189(2) 0.1445(4) 0.78440(14)
H1 H 1.1114 0.0849 0.7367
C3 C 1.2175(2) 0.2408(4) 0.81447(14)
H2 H 1.2753 0.2481 0.7873
C4 C 1.23024(19) 0.3282(4) 0.88650(14)
C5 C 1.14586(19) 0.3188(4) 0.92653(13)
H3 H 1.1558 0.3780 0.9744
C6 C 1.04384(18) 0.2204(3) 0.89620(12)
C7 C 0.95973(19) 0.2130(3) 0.94272(12)
H4 H 0.9785 0.2671 0.9915
C8 C 0.7812(2) 0.1421(4) 0.97296(13)
H5 H 0.8014 0.2462 1.0107
H6 H 0.7819 0.0168 0.9995
C9 C 0.6653(2) 0.1806(4) 0.92434(14)
H7 H 0.6082 0.1613 0.9547
H8 H 0.6607 0.3165 0.9065
C10 C 0.6163(2) -0.1569(4) 0.88077(17)
H9 H 0.5496 -0.1523 0.9020
H10 H 0.6784 -0.2071 0.9184
H11 H 0.6033 -0.2421 0.8368
C11 C 0.5461(2) 0.1180(4) 0.80069(16)
H12 H 0.5300 0.0276 0.7584
H13 H 0.5639 0.2458 0.7828
H14 H 0.4812 0.1287 0.8237
Cu1A Cu 0.70604(2) -0.45677(4) 0.680616(15)
N3A N 0.77639(18) 0.4226(3) 0.78005(11)
loop_
_geom_bond_atom_site_label_1
_geom_bond_atom_site_label_2
_geom_bond_site_symmetry_1
_geom_bond_site_symmetry_2
Cu1 O1 1_555 1_555
Br1 C4 1_555 1_555
O1 C1 1_555 1_555
N1 Cu1 1_555 1_555
N2 Cu1 1_555 1_555
N3 Cu1 1_555 1_555
N4 N3 1_555 1_555
N5 N4 1_555 1_555
C1 C2 1_555 1_555
C2 H1 1_555 1_555
C3 C2 1_555 1_555
H2 C3 1_555 1_555
C4 C3 1_555 1_555
C5 C4 1_555 1_555
H3 C5 1_555 1_555
C6 C1 1_555 1_555
C7 N1 1_555 1_555
H4 C7 1_555 1_555
C8 N1 1_555 1_555
H5 C8 1_555 1_555
H6 C8 1_555 1_555
C9 N2 1_555 1_555
H7 C9 1_555 1_555
H8 C9 1_555 1_555
C10 N2 1_555 1_555
H9 C10 1_555 1_555
H10 C10 1_555 1_555
H11 C10 1_555 1_555
C11 N2 1_555 1_555
H12 C11 1_555 1_555
H13 C11 1_555 1_555
H14 C11 1_555 1_555
Cu1A N3 1_555 1_555
N3A Cu1 1_555 1_555
C5 C6 1_555 1_555
C6 C7 1_555 1_555
C8 C9 1_555 1_555

#END
