
#######################################################################
#
#                 Cambridge Crystallographic Data Centre
#                                CCDC 
#
#######################################################################
#
# If this CIF has been generated from an entry in the Cambridge 
# Structural Database, then it will include bibliographic, chemical, 
# crystal, experimental, refinement or atomic coordinate data resulting 
# from the CCDC's data processing and validation procedures.
#
#######################################################################

data_TAPVUC
_symmetry_cell_setting           monoclinic
_symmetry_space_group_name_H-M   'P 21/c'
_symmetry_Int_Tables_number      14
_space_group_name_Hall           '-P 2ybc'
loop_
_symmetry_equiv_pos_site_id
_symmetry_equiv_pos_as_xyz
1 x,y,z
2 -x,1/2+y,1/2-z
3 -x,-y,-z
4 x,1/2-y,1/2+z
_cell_length_a                   13.476(3)
_cell_length_b                   7.3396(15)
_cell_length_c                   13.166(3)
_cell_angle_alpha                90
_cell_angle_beta                 110.00(3)
_cell_angle_gamma                90
_cell_volume                     1223.69
loop_
_atom_site_label
_atom_site_type_symbol
_atom_site_fract_x
_atom_site_fract_y
_atom_site_fract_z
Ba1 Ba 0.120172(12) 0.65340(2) 0.302207(13)
O1 O 0.15957(18) 0.8953(3) 0.47376(19)
O2 O 0.22264(19) 0.8979(4) 0.6535(2)
O3 O 0.34616(17) 0.7914(3) 0.46229(17)
O4 O 0.72382(18) 0.6765(3) 0.6157(2)
O5 O 0.91956(17) 0.7007(3) 0.7640(2)
O6 O 0.89359(19) 0.9954(3) 0.78365(19)
O7 O 0.1167(2) 0.4928(3) 0.4933(2)
O8 O -0.0107(2) 0.6677(3) 0.0780(2)
C1 C 0.2321(2) 0.8814(4) 0.5630(3)
C2 C 0.3444(2) 0.8428(4) 0.5663(3)
C3 C 0.4437(2) 0.7466(4) 0.4565(2)
C4 C 0.4441(3) 0.6965(5) 0.3556(3)
C5 C 0.5379(3) 0.6398(5) 0.3441(3)
C6 C 0.6321(3) 0.6377(5) 0.4315(3)
C7 C 0.6297(2) 0.6901(4) 0.5309(3)
C8 C 0.5367(2) 0.7454(5) 0.5447(2)
C9 C 0.7427(2) 0.8128(4) 0.6972(3)
C10 C 0.8613(2) 0.8368(4) 0.7515(3)
H1 H 0.111(3) 0.525(5) 0.553(2)
H2 H 0.082(3) 0.395(4) 0.472(3)
H3 H -0.055(2) 0.583(4) 0.054(3)
H4 H 0.039(2) 0.658(5) 0.053(4)
H5 H 0.3874 0.9507 0.5909
H6 H 0.3745 0.7455 0.6175
H7 H 0.3822 0.7007 0.2960
H8 H 0.5378 0.6023 0.2766
H9 H 0.6950 0.6020 0.4228
H10 H 0.5367 0.7813 0.6124
H11 H 0.7113 0.7766 0.7503
H12 H 0.7110 0.9270 0.6652
Ba1C Ba 0.120172(12) 0.84660(2) 0.802207(13)
Ba1B Ba 0.879828(12) 0.34660(2) 0.697793(13)
Ba1C_2 Ba 1.120172(12) 0.84660(2) 0.802207(13)
Ba1B_2 Ba 0.879828(12) 1.34660(2) 0.697793(13)
O2C O 0.22264(19) 0.6021(4) 0.1535(2)
O4B O 0.27618(18) 0.3235(3) 0.3843(2)
O5C O -0.08044(17) 0.7993(3) 0.2640(2)
O5B O 0.08044(17) 0.2993(3) 0.2360(2)
O6C O -0.10641(19) 0.5046(3) 0.28365(19)
O6B O 0.10641(19) 1.0046(3) 0.21635(19)
loop_
_geom_bond_atom_site_label_1
_geom_bond_atom_site_label_2
_geom_bond_site_symmetry_1
_geom_bond_site_symmetry_2
Ba1 O1 1_555 1_555
O1 C1 1_555 1_555
O2 C1 1_555 1_555
O3 Ba1 1_555 1_555
O4 C7 1_555 1_555
O5 C10 1_555 1_555
O6 C10 1_555 1_555
O7 Ba1 1_555 1_555
O8 Ba1 1_555 1_555
C1 C2 1_555 1_555
C2 O3 1_555 1_555
C3 O3 1_555 1_555
C4 C3 1_555 1_555
C5 C4 1_555 1_555
C6 C5 1_555 1_555
C7 C6 1_555 1_555
C8 C3 1_555 1_555
C9 O4 1_555 1_555
C10 C9 1_555 1_555
H1 O7 1_555 1_555
H2 O7 1_555 1_555
H3 O8 1_555 1_555
H4 O8 1_555 1_555
H5 C2 1_555 1_555
H6 C2 1_555 1_555
H7 C4 1_555 1_555
H8 C5 1_555 1_555
H9 C6 1_555 1_555
H10 C8 1_555 1_555
H11 C9 1_555 1_555
H12 C9 1_555 1_555
Ba1C O2 1_555 1_555
Ba1B O4 1_555 1_555
Ba1C_2 O5 1_555 1_555
Ba1B_2 O6 1_555 1_555
O2C Ba1 1_555 1_555
O4B Ba1 1_555 1_555
O5C Ba1 1_555 1_555
O5B Ba1 1_555 1_555
O6C Ba1 1_555 1_555
O6B Ba1 1_555 1_555
O5 Ba1B 1_555 1_555
O6 Ba1C_2 1_555 1_555
C7 C8 1_555 1_555

#END
