
#######################################################################
#
#                 Cambridge Crystallographic Data Centre
#                                CCDC 
#
#######################################################################
#
# If this CIF has been generated from an entry in the Cambridge 
# Structural Database, then it will include bibliographic, chemical, 
# crystal, experimental, refinement or atomic coordinate data resulting 
# from the CCDC's data processing and validation procedures.
#
#######################################################################

data_TAPWUD
_symmetry_cell_setting           monoclinic
_symmetry_space_group_name_H-M   'P 21/c'
_symmetry_Int_Tables_number      14
_space_group_name_Hall           '-P 2ybc'
loop_
_symmetry_equiv_pos_site_id
_symmetry_equiv_pos_as_xyz
1 x,y,z
2 -x,1/2+y,1/2-z
3 -x,-y,-z
4 x,1/2-y,1/2+z
_cell_length_a                   17.2616(17)
_cell_length_b                   7.3476(5)
_cell_length_c                   15.5360(15)
_cell_angle_alpha                90
_cell_angle_beta                 101.815(8)
_cell_angle_gamma                90
_cell_volume                     1928.71
loop_
_atom_site_label
_atom_site_type_symbol
_atom_site_fract_x
_atom_site_fract_y
_atom_site_fract_z
Mn1 Mn 0.51716(8) 0.57041(16) 0.36795(9)
O1 O 0.5828(4) 0.8207(9) 0.3530(4)
H1 H 0.5776 0.9190 0.3247
H2 H 0.6253 0.7941 0.3375
O2 O 0.4604(4) 0.3071(8) 0.3562(5)
H3 H 0.4914 0.2616 0.3268
H4 H 0.4409 0.2237 0.3820
C1 C 0.7360(5) 0.2761(13) 0.4748(6)
H5 H 0.7401 0.4016 0.4618
C2 C 0.6716(5) 0.2165(11) 0.5058(5)
C3 C 0.6079(5) 0.3488(12) 0.5182(6)
O3 O 0.6062(4) 0.5034(9) 0.4831(4)
O4 O 0.5581(4) 0.2933(9) 0.5621(4)
C4 C 0.6655(5) 0.0289(12) 0.5264(6)
O5 O 0.6034(4) -0.0341(9) 0.5590(5)
H6 H 0.5761 0.0541 0.5699
C5 C 0.7217(5) -0.0924(13) 0.5109(6)
H7 H 0.7158 -0.2181 0.5225
C6 C 0.7884(5) -0.0333(14) 0.4778(6)
C7 C 0.8452(6) -0.1569(17) 0.4592(7)
H8 H 0.8393 -0.2835 0.4685
C8 C 0.9092(7) -0.094(2) 0.4277(8)
H9 H 0.9469 -0.1780 0.4143
C9 C 0.9193(6) 0.093(2) 0.4150(8)
H10 H 0.9648 0.1356 0.3956
C10 C 0.8635(6) 0.2153(18) 0.4308(7)
H11 H 0.8701 0.3414 0.4207
C11 C 0.7966(5) 0.1548(15) 0.4617(6)
C12 C 0.2826(5) 0.6092(13) 0.2772(6)
H12 H 0.3161 0.5062 0.2784
C13 C 0.3089(5) 0.7748(12) 0.2562(5)
C14 C 0.3899(5) 0.7946(11) 0.2377(5)
O6 O 0.4349(4) 0.6537(8) 0.2427(4)
O7 O 0.4129(4) 0.9514(8) 0.2189(4)
C15 C 0.2585(5) 0.9301(13) 0.2533(7)
O8 O 0.2797(4) 1.0989(10) 0.2304(6)
H13 H 0.3262 1.0956 0.2216
C16 C 0.1847(5) 0.9118(13) 0.2743(7)
H14 H 0.1518 1.0159 0.2732
C17 C 0.1578(5) 0.7426(13) 0.2970(6)
C18 C 0.0817(6) 0.7196(15) 0.3179(7)
H15 H 0.0482 0.8220 0.3187
C19 C 0.0565(6) 0.5488(17) 0.3370(8)
H16 H 0.0054 0.5345 0.3498
C20 C 0.1050(6) 0.3975(15) 0.3379(8)
H17 H 0.0870 0.2814 0.3523
C21 C 0.1781(6) 0.4140(14) 0.3182(7)
H18 H 0.2103 0.3090 0.3184
C22 C 0.2066(5) 0.5861(12) 0.2973(7)
Mn1B Mn 0.48284(8) 0.42959(16) 0.63205(9)
Mn1A Mn 0.48284(8) 1.07041(16) 0.13205(9)
O4B O 0.4419(4) 0.7067(9) 0.4379(4)
O7A O 0.5871(4) 0.4514(8) 0.2811(4)
loop_
_geom_bond_atom_site_label_1
_geom_bond_atom_site_label_2
_geom_bond_site_symmetry_1
_geom_bond_site_symmetry_2
Mn1 O1 1_555 1_555
O1 H1 1_555 1_555
H2 O1 1_555 1_555
O2 Mn1 1_555 1_555
H3 O2 1_555 1_555
H4 O2 1_555 1_555
C1 H5 1_555 1_555
C2 C1 1_555 1_555
C3 C2 1_555 1_555
O3 Mn1 1_555 1_555
O4 C3 1_555 1_555
C4 C2 1_555 1_555
O5 C4 1_555 1_555
H6 O5 1_555 1_555
C5 C4 1_555 1_555
H7 C5 1_555 1_555
C6 C5 1_555 1_555
C7 C6 1_555 1_555
H8 C7 1_555 1_555
C8 C7 1_555 1_555
H9 C8 1_555 1_555
C9 C8 1_555 1_555
H10 C9 1_555 1_555
C10 C9 1_555 1_555
H11 C10 1_555 1_555
C11 C1 1_555 1_555
C12 H12 1_555 1_555
C13 C12 1_555 1_555
C14 C13 1_555 1_555
O6 Mn1 1_555 1_555
O7 C14 1_555 1_555
C15 C13 1_555 1_555
O8 C15 1_555 1_555
H13 O8 1_555 1_555
C16 C15 1_555 1_555
H14 C16 1_555 1_555
C17 C16 1_555 1_555
C18 C17 1_555 1_555
H15 C18 1_555 1_555
C19 C18 1_555 1_555
H16 C19 1_555 1_555
C20 C19 1_555 1_555
H17 C20 1_555 1_555
C21 C20 1_555 1_555
H18 C21 1_555 1_555
C22 C12 1_555 1_555
Mn1B O4 1_555 1_555
Mn1A O7 1_555 1_555
O4B Mn1 1_555 1_555
O7A Mn1 1_555 1_555
C3 O3 1_555 1_555
C6 C11 1_555 1_555
C10 C11 1_555 1_555
C14 O6 1_555 1_555
C17 C22 1_555 1_555
C21 C22 1_555 1_555

#END
