
#######################################################################
#
#                 Cambridge Crystallographic Data Centre
#                                CCDC 
#
#######################################################################
#
# If this CIF has been generated from an entry in the Cambridge 
# Structural Database, then it will include bibliographic, chemical, 
# crystal, experimental, refinement or atomic coordinate data resulting 
# from the CCDC's data processing and validation procedures.
#
#######################################################################

data_TAPYAM
_symmetry_cell_setting           triclinic
_symmetry_space_group_name_H-M   'P -1'
_symmetry_Int_Tables_number      2
_space_group_name_Hall           '-P 1'
loop_
_symmetry_equiv_pos_site_id
_symmetry_equiv_pos_as_xyz
1 x,y,z
2 -x,-y,-z
_cell_length_a                   9.6132(19)
_cell_length_b                   12.664(3)
_cell_length_c                   16.763(3)
_cell_angle_alpha                74.32(3)
_cell_angle_beta                 87.31(3)
_cell_angle_gamma                73.91(3)
_cell_volume                     1886.98
loop_
_atom_site_label
_atom_site_type_symbol
_atom_site_fract_x
_atom_site_fract_y
_atom_site_fract_z
Ag1 Ag 0.42469(5) 0.19043(3) -0.46741(2)
O1 O 0.1568(3) 0.0029(3) -0.77065(19)
O2 O 0.3879(4) -0.0330(3) -0.8115(2)
O3 O -0.2085(4) 0.3279(3) -1.17310(19)
O4 O -0.4282(4) 0.4431(3) -1.1606(2)
O7 O 0.2246(5) 0.0894(5) -0.3756(3)
O8 O 0.0105(7) 0.1770(8) -0.3570(6)
O9 O 0.1517(5) 0.2686(5) -0.4337(4)
N1 N 0.3823(4) 0.1301(3) -0.5696(2)
N2 N -0.4929(4) 0.2563(3) -1.3793(2)
N4 N 0.1271(6) 0.1799(7) -0.3857(4)
C1 C 0.2456(6) 0.1332(5) -0.5868(3)
H1 H 0.1698 0.1632 -0.5538
C2 C 0.2123(6) 0.0944(5) -0.6508(3)
H2 H 0.1148 0.0980 -0.6619
C3 C 0.3218(5) 0.0501(4) -0.6986(3)
C4 C 0.4617(5) 0.0480(4) -0.6818(3)
H3 H 0.5391 0.0193 -0.7144
C5 C 0.4870(5) 0.0885(4) -0.6168(3)
H4 H 0.5835 0.0865 -0.6052
C6 C 0.2964(5) 0.0022(4) -0.7675(3)
C7 C 0.1119(6) -0.0383(4) -0.8362(3)
H5 H 0.0404 -0.0816 -0.8148
H6 H 0.1967 -0.0899 -0.8549
C8 C 0.0453(5) 0.0625(4) -0.9078(3)
C9 C -0.0880(5) 0.1377(4) -0.8967(3)
C10 C -0.1598(5) 0.1206(4) -0.8191(3)
H7 H -0.1187 0.0555 -0.7748
C11 C -0.2852(6) 0.1959(5) -0.8080(3)
H8 H -0.3293 0.1844 -0.7556
C12 C -0.3514(6) 0.2917(5) -0.8738(3)
H9 H -0.4400 0.3433 -0.8654
C13 C -0.2893(5) 0.3103(4) -0.9485(3)
H10 H -0.3363 0.3740 -0.9922
C14 C -0.1538(5) 0.2358(4) -0.9632(3)
C15 C -0.0843(5) 0.2551(4) -1.0392(3)
C16 C 0.0502(5) 0.1787(4) -1.0508(3)
C17 C 0.1225(6) 0.1950(4) -1.1283(3)
H11 H 0.0781 0.2570 -1.1738
C18 C 0.2528(6) 0.1238(5) -1.1378(3)
H12 H 0.2983 0.1358 -1.1897
C19 C 0.3204(6) 0.0320(5) -1.0708(3)
H13 H 0.4133 -0.0158 -1.0772
C20 C 0.2550(5) 0.0110(4) -0.9973(3)
H14 H 0.3020 -0.0526 -0.9535
C21 C 0.1159(5) 0.0826(4) -0.9839(3)
C22 C -0.1446(6) 0.3596(4) -1.1081(3)
H15 H -0.2194 0.4157 -1.0869
H16 H -0.0665 0.3950 -1.1314
C23 C -0.3492(5) 0.3754(4) -1.1919(3)
C24 C -0.3961(5) 0.3325(4) -1.2581(3)
C25 C -0.2990(5) 0.2751(4) -1.3055(3)
H17 H -0.1978 0.2605 -1.2967
C26 C -0.3507(5) 0.2390(4) -1.3659(3)
H18 H -0.2834 0.2006 -1.3991
C27 C -0.5866(5) 0.3131(4) -1.3336(3)
H19 H -0.6874 0.3265 -1.3433
C28 C -0.5431(5) 0.3528(4) -1.2732(3)
H20 H -0.6125 0.3936 -1.2423
Ag1_2 Ag 1.42469(5) 0.19043(3) 0.53259(2)
Ag1_3 Ag -0.57531(5) 0.19043(3) -1.46741(2)
O1_2 O 1.1568(3) 0.0029(3) 0.22935(19)
O2_2 O 1.3879(4) -0.0330(3) 0.1885(2)
O3_2 O 0.7915(4) 0.3279(3) -0.17310(19)
O4_2 O 0.5718(4) 0.4431(3) -0.1606(2)
O7_2 O 1.2246(5) 0.0894(5) 0.6244(3)
O8_2 O 1.0105(7) 0.1770(8) 0.6430(6)
O9_2 O 1.1517(5) 0.2686(5) 0.5663(4)
N1_2 N 1.3823(4) 0.1301(3) 0.4304(2)
N2_2 N 0.5071(4) 0.2563(3) -0.3793(2)
N2_3 N 1.5071(4) 0.2563(3) 0.6207(2)
N4_2 N 1.1271(6) 0.1799(7) 0.6143(4)
C1_2 C 1.2456(6) 0.1332(5) 0.4132(3)
H1_2 H 1.1698 0.1632 0.4462
C2_2 C 1.2123(6) 0.0944(5) 0.3492(3)
H2_2 H 1.1148 0.0980 0.3381
C3_2 C 1.3218(5) 0.0501(4) 0.3014(3)
C4_2 C 1.4617(5) 0.0480(4) 0.3182(3)
H3_2 H 1.5391 0.0193 0.2856
C5_2 C 1.4870(5) 0.0885(4) 0.3832(3)
H4_2 H 1.5835 0.0865 0.3948
C6_2 C 1.2964(5) 0.0022(4) 0.2325(3)
C7_2 C 1.1119(6) -0.0383(4) 0.1638(3)
H5_2 H 1.0404 -0.0816 0.1852
H6_2 H 1.1967 -0.0899 0.1451
C8_2 C 1.0453(5) 0.0625(4) 0.0922(3)
C9_2 C 0.9120(5) 0.1377(4) 0.1033(3)
C10_2 C 0.8402(5) 0.1206(4) 0.1809(3)
H7_2 H 0.8813 0.0555 0.2252
C11_2 C 0.7148(6) 0.1959(5) 0.1920(3)
H8_2 H 0.6707 0.1844 0.2444
C12_2 C 0.6486(6) 0.2917(5) 0.1262(3)
H9_2 H 0.5600 0.3433 0.1346
C13_2 C 0.7107(5) 0.3103(4) 0.0515(3)
H10_2 H 0.6637 0.3740 0.0078
C14_2 C 0.8462(5) 0.2358(4) 0.0368(3)
C15_2 C 0.9157(5) 0.2551(4) -0.0392(3)
C16_2 C 1.0502(5) 0.1787(4) -0.0508(3)
C17_2 C 1.1225(6) 0.1950(4) -0.1283(3)
H11_2 H 1.0781 0.2570 -0.1738
C18_2 C 1.2528(6) 0.1238(5) -0.1378(3)
H12_2 H 1.2983 0.1358 -0.1897
C19_2 C 1.3204(6) 0.0320(5) -0.0708(3)
H13_2 H 1.4133 -0.0158 -0.0772
C20_2 C 1.2550(5) 0.0110(4) 0.0027(3)
H14_2 H 1.3020 -0.0526 0.0465
C21_2 C 1.1159(5) 0.0826(4) 0.0161(3)
C22_2 C 0.8554(6) 0.3596(4) -0.1081(3)
H15_2 H 0.7806 0.4157 -0.0869
H16_2 H 0.9335 0.3950 -0.1314
C23_2 C 0.6508(5) 0.3754(4) -0.1919(3)
C24_2 C 0.6039(5) 0.3325(4) -0.2581(3)
C25_2 C 0.7010(5) 0.2751(4) -0.3055(3)
H17_2 H 0.8022 0.2605 -0.2967
C26_2 C 0.6493(5) 0.2390(4) -0.3659(3)
H18_2 H 0.7166 0.2006 -0.3991
C27_2 C 0.4134(5) 0.3131(4) -0.3336(3)
H19_2 H 0.3126 0.3265 -0.3433
C28_2 C 0.4569(5) 0.3528(4) -0.2732(3)
H20_2 H 0.3875 0.3936 -0.2423
Ag2 Ag -0.5000 0.5000 -0.5000
O5 O -0.0438(3) 0.6059(3) -0.22839(19)
O6 O 0.1201(5) 0.4773(6) -0.2740(4)
O10 O -0.2910(9) 0.2280(9) -0.5685(5)
O11 O -0.2963(8) 0.3922(9) -0.5900(5)
O12 O -0.0977(10) 0.2750(10) -0.5951(10)
N3 N -0.3317(5) 0.5286(3) -0.4327(2)
N5 N -0.2303(11) 0.2942(8) -0.5844(5)
C29 C -0.1915(6) 0.4787(4) -0.4421(3)
H21 H -0.1665 0.4400 -0.4842
C30 C -0.0816(6) 0.4817(4) -0.3927(3)
H22 H 0.0164 0.4441 -0.4001
C31 C -0.2617(5) 0.5932(4) -0.3235(3)
H23 H -0.2891 0.6343 -0.2829
C32 C -0.3655(5) 0.5852(4) -0.3745(3)
H24 H -0.4644 0.6214 -0.3679
C33 C -0.1169(5) 0.5401(4) -0.3325(3)
C34 C 0.0014(5) 0.5387(4) -0.2772(3)
C35 C 0.0627(5) 0.6119(4) -0.1701(3)
H25 H 0.1619 0.5746 -0.1845
H26 H 0.0563 0.6927 -0.1745
C36 C 0.0326(5) 0.5531(4) -0.0828(3)
C37 C -0.0989(5) 0.5993(4) -0.0479(3)
C38 C 0.1327(5) 0.4536(4) -0.0353(3)
C39 C -0.2022(5) 0.7008(4) -0.0938(3)
H27 H -0.1813 0.7373 -0.1486
C40 C -0.3293(6) 0.7459(4) -0.0606(3)
H28 H -0.3956 0.8135 -0.0921
C41 C -0.3627(6) 0.6931(4) 0.0198(3)
H29 H -0.4521 0.7249 0.0423
C42 C 0.2687(5) 0.4032(4) -0.0661(3)
H30 H 0.2943 0.4378 -0.1204
Ag2_2 Ag 0.5000 0.5000 0.5000
O5A O 0.0438(3) 0.3941(3) 0.22839(19)
O6A O -0.1201(5) 0.5227(6) 0.2740(4)
O10A O -0.7090(9) 0.7720(9) -0.4315(5)
O11A O -0.7037(8) 0.6078(9) -0.4100(5)
O12A O -0.9023(10) 0.7250(10) -0.4049(10)
N3A N 0.3317(5) 0.4714(3) 0.4327(2)
N3A_2 N -0.6683(5) 0.4714(3) -0.5673(2)
N5A N -0.7697(11) 0.7058(8) -0.4156(5)
C29A C 0.1915(6) 0.5213(4) 0.4421(3)
H21A H 0.1665 0.5600 0.4842
C30A C 0.0816(6) 0.5183(4) 0.3927(3)
H22A H -0.0164 0.5559 0.4001
C31A C 0.2617(5) 0.4068(4) 0.3235(3)
H23A H 0.2891 0.3657 0.2829
C32A C 0.3655(5) 0.4148(4) 0.3745(3)
H24A H 0.4644 0.3786 0.3679
C33A C 0.1169(5) 0.4599(4) 0.3325(3)
C34A C -0.0014(5) 0.4613(4) 0.2772(3)
C35A C -0.0627(5) 0.3881(4) 0.1701(3)
H25A H -0.1619 0.4254 0.1845
H26A H -0.0563 0.3073 0.1745
C36A C -0.0326(5) 0.4469(4) 0.0828(3)
C37A C 0.0989(5) 0.4007(4) 0.0479(3)
C38A C -0.1327(5) 0.5464(4) 0.0353(3)
C39A C 0.2022(5) 0.2992(4) 0.0938(3)
H27A H 0.1813 0.2627 0.1486
C40A C 0.3293(6) 0.2541(4) 0.0606(3)
H28A H 0.3956 0.1865 0.0921
C41A C 0.3627(6) 0.3069(4) -0.0198(3)
H29A H 0.4521 0.2751 -0.0423
C42A C -0.2687(5) 0.5968(4) 0.0661(3)
H30A H -0.2943 0.5622 0.1204
O13 O 0.9354(11) 0.0166(8) 0.4380(7)
O14? O 0.8574(18) 0.1000(14) 0.4389(9)
loop_
_geom_bond_atom_site_label_1
_geom_bond_atom_site_label_2
_geom_bond_site_symmetry_1
_geom_bond_site_symmetry_2
Ag1 O7 1_555 1_555
Ag2 O11 1_555 1_555
O1 C6 1_555 1_555
O2 C6 1_555 1_555
O3 C22 1_555 1_555
O4 C23 1_555 1_555
O5 C34 1_555 1_555
O6 C34 1_555 1_555
O7 N4 1_555 1_555
O8 N4 1_555 1_555
O9 Ag1 1_555 1_555
O10 N5 1_555 1_555
O11 N5 1_555 1_555
O12 N5 1_555 1_555
N1 Ag1 1_555 1_555
N2 C26 1_555 1_555
N3 Ag2 1_555 1_555
N4 O9 1_555 1_555
C1 N1 1_555 1_555
H1 C1 1_555 1_555
C2 C1 1_555 1_555
H2 C2 1_555 1_555
C3 C2 1_555 1_555
C4 C3 1_555 1_555
H3 C4 1_555 1_555
C5 N1 1_555 1_555
H4 C5 1_555 1_555
C6 C3 1_555 1_555
C7 O1 1_555 1_555
H5 C7 1_555 1_555
H6 C7 1_555 1_555
C8 C7 1_555 1_555
C9 C8 1_555 1_555
C10 C9 1_555 1_555
H7 C10 1_555 1_555
C11 C10 1_555 1_555
H8 C11 1_555 1_555
C12 C11 1_555 1_555
H9 C12 1_555 1_555
C13 C12 1_555 1_555
H10 C13 1_555 1_555
C14 C9 1_555 1_555
C15 C14 1_555 1_555
C16 C15 1_555 1_555
C17 C16 1_555 1_555
H11 C17 1_555 1_555
C18 C17 1_555 1_555
H12 C18 1_555 1_555
C19 C18 1_555 1_555
H13 C19 1_555 1_555
C20 C19 1_555 1_555
H14 C20 1_555 1_555
C21 C8 1_555 1_555
C22 C15 1_555 1_555
H15 C22 1_555 1_555
H16 C22 1_555 1_555
C23 O3 1_555 1_555
C24 C23 1_555 1_555
C25 C24 1_555 1_555
H17 C25 1_555 1_555
C26 C25 1_555 1_555
H18 C26 1_555 1_555
C27 N2 1_555 1_555
H19 C27 1_555 1_555
C28 C24 1_555 1_555
H20 C28 1_555 1_555
C29 N3 1_555 1_555
H21 C29 1_555 1_555
C30 C29 1_555 1_555
H22 C30 1_555 1_555
C31 H23 1_555 1_555
C32 N3 1_555 1_555
H24 C32 1_555 1_555
C33 C30 1_555 1_555
C34 C33 1_555 1_555
C35 O5 1_555 1_555
H25 C35 1_555 1_555
H26 C35 1_555 1_555
C36 C35 1_555 1_555
C37 C36 1_555 1_555
C38 C36 1_555 1_555
C39 C37 1_555 1_555
H27 C39 1_555 1_555
C40 C39 1_555 1_555
H28 C40 1_555 1_555
C41 C40 1_555 1_555
H29 C41 1_555 1_555
C42 C38 1_555 1_555
H30 C42 1_555 1_555
Ag1_2 O7_2 1_555 1_555
Ag1_3 N2 1_555 1_555
Ag2_2 N3A 1_555 1_555
O1_2 C6_2 1_555 1_555
O2_2 C6_2 1_555 1_555
O3_2 C22_2 1_555 1_555
O4_2 C23_2 1_555 1_555
O5A C34A 1_555 1_555
O6A C34A 1_555 1_555
O7_2 N4_2 1_555 1_555
O8_2 N4_2 1_555 1_555
O9_2 Ag1_2 1_555 1_555
O10A N5A 1_555 1_555
O11A Ag2 1_555 1_555
O12A N5A 1_555 1_555
N1_2 Ag1_2 1_555 1_555
N2_2 Ag1 1_555 1_555
N2_3 Ag1_2 1_555 1_555
N3A C29A 1_555 1_555
N3A_2 Ag2 1_555 1_555
N4_2 O9_2 1_555 1_555
N5A O11A 1_555 1_555
C1_2 N1_2 1_555 1_555
H1_2 C1_2 1_555 1_555
C2_2 C1_2 1_555 1_555
H2_2 C2_2 1_555 1_555
C3_2 C2_2 1_555 1_555
C4_2 C3_2 1_555 1_555
H3_2 C4_2 1_555 1_555
C5_2 N1_2 1_555 1_555
H4_2 C5_2 1_555 1_555
C6_2 C3_2 1_555 1_555
C7_2 O1_2 1_555 1_555
H5_2 C7_2 1_555 1_555
H6_2 C7_2 1_555 1_555
C8_2 C7_2 1_555 1_555
C9_2 C8_2 1_555 1_555
C10_2 C9_2 1_555 1_555
H7_2 C10_2 1_555 1_555
C11_2 C10_2 1_555 1_555
H8_2 C11_2 1_555 1_555
C12_2 C11_2 1_555 1_555
H9_2 C12_2 1_555 1_555
C13_2 C12_2 1_555 1_555
H10_2 C13_2 1_555 1_555
C14_2 C9_2 1_555 1_555
C15_2 C14_2 1_555 1_555
C16_2 C15_2 1_555 1_555
C17_2 C16_2 1_555 1_555
H11_2 C17_2 1_555 1_555
C18_2 C17_2 1_555 1_555
H12_2 C18_2 1_555 1_555
C19_2 C18_2 1_555 1_555
H13_2 C19_2 1_555 1_555
C20_2 C19_2 1_555 1_555
H14_2 C20_2 1_555 1_555
C21_2 C8_2 1_555 1_555
C22_2 C15_2 1_555 1_555
H15_2 C22_2 1_555 1_555
H16_2 C22_2 1_555 1_555
C23_2 O3_2 1_555 1_555
C24_2 C23_2 1_555 1_555
C25_2 C24_2 1_555 1_555
H17_2 C25_2 1_555 1_555
C26_2 N2_2 1_555 1_555
H18_2 C26_2 1_555 1_555
C27_2 N2_2 1_555 1_555
H19_2 C27_2 1_555 1_555
C28_2 C24_2 1_555 1_555
H20_2 C28_2 1_555 1_555
C29A H21A 1_555 1_555
C30A C29A 1_555 1_555
H22A C30A 1_555 1_555
C31A H23A 1_555 1_555
C32A N3A 1_555 1_555
H24A C32A 1_555 1_555
C33A C30A 1_555 1_555
C34A C33A 1_555 1_555
C35A O5A 1_555 1_555
H25A C35A 1_555 1_555
H26A C35A 1_555 1_555
C36A C35A 1_555 1_555
C37A C38 1_555 1_555
C38A C37 1_555 1_555
C39A C37A 1_555 1_555
H27A C39A 1_555 1_555
C40A C39A 1_555 1_555
H28A C40A 1_555 1_555
C41A C42 1_555 1_555
H29A C41A 1_555 1_555
C42A C41 1_555 1_555
H30A C42A 1_555 1_555
C4 C5 1_555 1_555
C13 C14 1_555 1_555
C16 C21 1_555 1_555
C20 C21 1_555 1_555
C27 C28 1_555 1_555
C31 C32 1_555 1_555
C31 C33 1_555 1_555
C4_2 C5_2 1_555 1_555
C13_2 C14_2 1_555 1_555
C16_2 C21_2 1_555 1_555
C20_2 C21_2 1_555 1_555
C25_2 C26_2 1_555 1_555
C27_2 C28_2 1_555 1_555
C31A C32A 1_555 1_555
C31A C33A 1_555 1_555
C36A C37A 1_555 1_555
C36A C38A 1_555 1_555
C38A C42A 1_555 1_555
C40A C41A 1_555 1_555

#END
