
#######################################################################
#
#                 Cambridge Crystallographic Data Centre
#                                CCDC 
#
#######################################################################
#
# If this CIF has been generated from an entry in the Cambridge 
# Structural Database, then it will include bibliographic, chemical, 
# crystal, experimental, refinement or atomic coordinate data resulting 
# from the CCDC's data processing and validation procedures.
#
#######################################################################

data_TAQFUN
_symmetry_cell_setting           triclinic
_symmetry_space_group_name_H-M   'P -1'
_symmetry_Int_Tables_number      2
_space_group_name_Hall           '-P 1'
loop_
_symmetry_equiv_pos_site_id
_symmetry_equiv_pos_as_xyz
1 x,y,z
2 -x,-y,-z
_cell_length_a                   4.195(3)
_cell_length_b                   9.228(6)
_cell_length_c                   9.751(6)
_cell_angle_alpha                107.28(4)
_cell_angle_beta                 101.76(5)
_cell_angle_gamma                90.66(5)
_cell_volume                     351.822
loop_
_atom_site_label
_atom_site_type_symbol
_atom_site_fract_x
_atom_site_fract_y
_atom_site_fract_z
Tl1 Tl 0.19047(13) 0.35351(6) 0.32710(5)
O1 O -0.283(3) 0.5477(12) 0.3853(11)
C1 C -0.257(4) 0.6503(16) 0.3177(16)
F1 F 0.194(2) 0.7872(11) 0.5021(10)
C2 C -0.024(4) 0.7729(18) 0.3743(15)
F2 F 0.243(2) 0.9975(11) 0.3656(11)
C3 C -0.001(4) 0.8824(19) 0.3034(18)
F3 F -0.184(3) 0.9804(12) 0.1076(11)
C4 C -0.203(4) 0.8727(19) 0.1734(18)
F4 F -0.650(3) 0.7434(12) -0.0152(11)
C5 C -0.443(4) 0.7536(18) 0.1128(15)
F5 F -0.707(2) 0.5323(11) 0.1213(10)
C6 C -0.467(4) 0.6463(18) 0.1846(15)
Tl1_2 Tl -0.80953(13) 0.35351(6) 0.32710(5)
Tl1A Tl -0.19047(13) 0.64649(6) 0.67290(5)
O1_2 O 0.717(3) 0.5477(12) 0.3853(11)
O1A O 0.283(3) 0.4523(12) 0.6147(11)
loop_
_geom_bond_atom_site_label_1
_geom_bond_atom_site_label_2
_geom_bond_site_symmetry_1
_geom_bond_site_symmetry_2
Tl1 O1 1_555 1_555
O1 C1 1_555 1_555
C1 C2 1_555 1_555
F1 C2 1_555 1_555
C2 C3 1_555 1_555
F2 C3 1_555 1_555
C3 C4 1_555 1_555
F3 C4 1_555 1_555
C4 C5 1_555 1_555
F4 C5 1_555 1_555
C5 C6 1_555 1_555
F5 C6 1_555 1_555
C6 C1 1_555 1_555
Tl1_2 O1 1_555 1_555
Tl1A O1 1_555 1_555
O1_2 Tl1 1_555 1_555
O1A Tl1 1_555 1_555
Tl1A O1A 1_555 1_555

#END
