
#######################################################################
#
#                 Cambridge Crystallographic Data Centre
#                                CCDC 
#
#######################################################################
#
# If this CIF has been generated from an entry in the Cambridge 
# Structural Database, then it will include bibliographic, chemical, 
# crystal, experimental, refinement or atomic coordinate data resulting 
# from the CCDC's data processing and validation procedures.
#
#######################################################################

data_TAQJEA
_symmetry_cell_setting           monoclinic
_symmetry_space_group_name_H-M   'C 2/c'
_symmetry_Int_Tables_number      15
_space_group_name_Hall           '-C 2yn'
loop_
_symmetry_equiv_pos_site_id
_symmetry_equiv_pos_as_xyz
1 x,y,z
2 -x,y,1/2-z
3 1/2+x,1/2+y,z
4 1/2-x,1/2+y,1/2-z
5 -x,-y,-z
6 x,-y,1/2+z
7 1/2-x,1/2-y,-z
8 1/2+x,1/2-y,1/2+z
_cell_length_a                   17.119(2)
_cell_length_b                   13.844(1)
_cell_length_c                   7.489(1)
_cell_angle_alpha                90
_cell_angle_beta                 111.21(1)
_cell_angle_gamma                90
_cell_volume                     1654.63
loop_
_atom_site_label
_atom_site_type_symbol
_atom_site_fract_x
_atom_site_fract_y
_atom_site_fract_z
Ba1 Ba 1.00000 0.12099(4) 0.2500
Br1 Br 0.88591(5) -0.06130(5) 0.3134(1)
N1 N 0.9250(4) 0.3079(4) 0.0982(8)
C1 C 0.9558(5) 0.3915(5) 0.184(1)
C2 C 0.9059(5) 0.4745(5) 0.156(1)
C3 C 0.8243(5) 0.4713(6) 0.033(1)
C4 C 0.7935(5) 0.3868(6) -0.062(1)
C5 C 0.8450(5) 0.3065(6) -0.024(1)
O1 O 0.8951(4) 0.1814(4) 0.4384(8)
C6 C 0.8769(9) 0.2700(7) 0.500(2)
H1 H 0.9294 0.5335 0.2221
H2 H 0.7892 0.5276 0.0145
H3 H 0.7370 0.3833 -0.1549
H4 H 0.8227 0.2467 -0.0884
H5 H 0.8937 0.1260 0.4707
H6 H 0.8779 0.2695 0.6324
H7 H 0.9170 0.3171 0.4934
H8 H 0.8224 0.2910 0.4179
Ba1D Ba 1.00000 -0.12099(4) 0.7500
Br1D Br 1.11409(5) 0.06130(5) 0.6866(1)
Br1A Br 1.11409(5) -0.06130(5) 0.1866(1)
Ba1E Ba 1.00000 -0.12099(4) -0.2500
Br1E Br 0.88591(5) 0.06130(5) -0.1866(1)
C1A C 1.0442(5) 0.3915(5) 0.316(1)
N1A N 1.0750(4) 0.3079(4) 0.4018(8)
O1A O 1.1049(4) 0.1814(4) 0.0616(8)
C6A C 1.1231(9) 0.2700(7) 0.000(2)
H6A H 1.1221 0.2695 -0.1324
H7A H 1.0830 0.3171 0.0066
H8A H 1.1776 0.2910 0.0821
H5A H 1.1063 0.1260 0.0293
C5A C 1.1550(5) 0.3065(6) 0.524(1)
C4A C 1.2065(5) 0.3868(6) 0.562(1)
C3A C 1.1757(5) 0.4713(6) 0.467(1)
C2A C 1.0941(5) 0.4745(5) 0.344(1)
H1A H 1.0706 0.5335 0.2779
H2A H 1.2108 0.5276 0.4855
H3A H 1.2630 0.3833 0.6549
H4A H 1.1773 0.2467 0.5884
loop_
_geom_bond_atom_site_label_1
_geom_bond_atom_site_label_2
_geom_bond_site_symmetry_1
_geom_bond_site_symmetry_2
Ba1 Br1 1_555 1_555
Br1 Ba1D 1_555 1_555
N1 Ba1 1_555 1_555
C1 N1 1_555 1_555
C2 C1 1_555 1_555
C3 C2 1_555 1_555
C4 C3 1_555 1_555
C5 N1 1_555 1_555
O1 Ba1 1_555 1_555
C6 O1 1_555 1_555
H1 C2 1_555 1_555
H2 C3 1_555 1_555
H3 C4 1_555 1_555
H4 C5 1_555 1_555
H5 O1 1_555 1_555
H6 C6 1_555 1_555
H7 C6 1_555 1_555
H8 C6 1_555 1_555
Ba1D Br1D 1_555 1_555
Br1D Ba1 1_555 1_555
Br1A Ba1 1_555 1_555
Ba1E Br1A 1_555 1_555
Br1E Ba1 1_555 1_555
C1A C1 1_555 1_555
N1A Ba1 1_555 1_555
O1A Ba1 1_555 1_555
C6A O1A 1_555 1_555
H6A C6A 1_555 1_555
H7A C6A 1_555 1_555
H8A C6A 1_555 1_555
H5A O1A 1_555 1_555
C5A N1A 1_555 1_555
C4A C5A 1_555 1_555
C3A C4A 1_555 1_555
C2A C1A 1_555 1_555
H1A C2A 1_555 1_555
H2A C3A 1_555 1_555
H3A C4A 1_555 1_555
H4A C5A 1_555 1_555
C4 C5 1_555 1_555
Ba1E Br1E 1_555 1_555
C1A N1A 1_555 1_555
C3A C2A 1_555 1_555

#END
