
#######################################################################
#
#                 Cambridge Crystallographic Data Centre
#                                CCDC 
#
#######################################################################
#
# If this CIF has been generated from an entry in the Cambridge 
# Structural Database, then it will include bibliographic, chemical, 
# crystal, experimental, refinement or atomic coordinate data resulting 
# from the CCDC's data processing and validation procedures.
#
#######################################################################

data_TAQQOR
_symmetry_cell_setting           monoclinic
_symmetry_space_group_name_H-M   'P 21/c'
_symmetry_Int_Tables_number      14
_space_group_name_Hall           '-P 2ybc'
loop_
_symmetry_equiv_pos_site_id
_symmetry_equiv_pos_as_xyz
1 x,y,z
2 -x,1/2+y,1/2-z
3 -x,-y,-z
4 x,1/2-y,1/2+z
_cell_length_a                   6.606(4)
_cell_length_b                   18.661(7)
_cell_length_c                   19.440(8)
_cell_angle_alpha                90
_cell_angle_beta                 109.45(4)
_cell_angle_gamma                90
_cell_volume                     2259.7
loop_
_atom_site_label
_atom_site_type_symbol
_atom_site_fract_x
_atom_site_fract_y
_atom_site_fract_z
Ba1 Ba 0.51493(5) 0.73398(2) 0.36918(2)
Cl1 Cl 0.0140(2) 0.84475(7) 0.38706(6)
O1 O 0.1579(7) 0.8341(3) 0.3488(3)
O2 O 0.7992(6) 0.8424(2) 0.3378(2)
O3 O 0.028(1) 0.7855(3) 0.4349(2)
O4 O 0.0567(7) 0.9094(2) 0.4279(2)
Cl2 Cl -0.0209(2) 0.62635(7) 0.34769(7)
O5 O 0.1993(6) 0.6332(3) 0.3899(2)
O6 O 0.8539(8) 0.6240(3) 0.3944(3)
O7 O -0.090(1) 0.6874(3) 0.3025(2)
O8 O -0.0540(7) 0.5637(2) 0.3035(2)
N1 N 0.6284(7) 0.8160(2) 0.5002(2)
C1 C 0.6985(7) 0.7890(3) 0.5684(3)
C2 C 0.7623(8) 0.8330(4) 0.6291(3)
C3 C 0.7570(9) 0.9071(4) 0.6194(3)
C4 C 0.6896(9) 0.9345(3) 0.5501(4)
C5 C 0.6250(9) 0.8871(3) 0.4925(3)
N2 N 0.6462(6) 0.6720(2) 0.5136(2)
C6 C 0.7051(7) 0.7099(3) 0.5761(3)
C7 C 0.7721(8) 0.6776(4) 0.6442(3)
C8 C 0.7793(9) 0.6041(4) 0.6482(3)
C9 C 0.7190(9) 0.5642(3) 0.5843(4)
C10 C 0.6535(8) 0.6006(3) 0.5192(3)
N3 N 0.3706(7) 0.6509(2) 0.2382(2)
C11 C 0.3032(7) 0.6774(3) 0.1701(3)
C12 C 0.2425(8) 0.6332(3) 0.1097(3)
C13 C 0.2475(9) 0.5612(3) 0.1183(3)
C14 C 0.3145(9) 0.5336(3) 0.1873(4)
C15 C 0.3749(9) 0.5800(3) 0.2456(3)
N4 N 0.3501(6) 0.7955(2) 0.2253(2)
C16 C 0.2959(7) 0.7574(3) 0.1630(3)
C17 C 0.2290(8) 0.7925(3) 0.0949(3)
C18 C 0.2220(8) 0.8657(3) 0.0915(3)
C19 C 0.2765(8) 0.9032(3) 0.1553(3)
C20 C 0.3372(8) 0.8667(3) 0.2195(3)
H1 H 0.8111 0.8121 0.6778
H2 H 0.8014 0.9386 0.6611
H3 H 0.6855 0.9858 0.5411
H4 H 0.5738 0.9057 0.4435
H5 H 0.8131 0.7068 0.6881
H6 H 0.8243 0.5798 0.6947
H7 H 0.7243 0.5120 0.5858
H8 H 0.6094 0.5730 0.4742
H9 H 0.1966 0.6541 0.0610
H10 H 0.2039 0.5301 0.0764
H11 H 0.3197 0.4820 0.1951
H12 H 0.4232 0.5599 0.2945
H13 H 0.1880 0.7643 0.0506
H14 H 0.1793 0.8899 0.0452
H15 H 0.2710 0.9554 0.1545
H16 H 0.3755 0.8946 0.2645
O2_2 O -0.2008(6) 0.8424(2) 0.3378(2)
Cl1_2 Cl 1.0140(2) 0.84475(7) 0.38706(6)
O6_2 O -0.1461(8) 0.6240(3) 0.3944(3)
Cl2_2 Cl 0.9791(2) 0.62635(7) 0.34769(7)
loop_
_geom_bond_atom_site_label_1
_geom_bond_atom_site_label_2
_geom_bond_site_symmetry_1
_geom_bond_site_symmetry_2
Ba1 O1 1_555 1_555
Cl1 O1 1_555 1_555
O2 Ba1 1_555 1_555
O3 Cl1 1_555 1_555
O4 Cl1 1_555 1_555
Cl2 O5 1_555 1_555
O5 Ba1 1_555 1_555
O6 Ba1 1_555 1_555
O7 Cl2 1_555 1_555
O8 Cl2 1_555 1_555
N1 Ba1 1_555 1_555
C1 N1 1_555 1_555
C2 C1 1_555 1_555
C3 C2 1_555 1_555
C4 C3 1_555 1_555
C5 N1 1_555 1_555
N2 Ba1 1_555 1_555
C6 C1 1_555 1_555
C7 C6 1_555 1_555
C8 C7 1_555 1_555
C9 C8 1_555 1_555
C10 N2 1_555 1_555
N3 Ba1 1_555 1_555
C11 N3 1_555 1_555
C12 C11 1_555 1_555
C13 C12 1_555 1_555
C14 C13 1_555 1_555
C15 N3 1_555 1_555
N4 Ba1 1_555 1_555
C16 C11 1_555 1_555
C17 C16 1_555 1_555
C18 C17 1_555 1_555
C19 C18 1_555 1_555
C20 N4 1_555 1_555
H1 C2 1_555 1_555
H2 C3 1_555 1_555
H3 C4 1_555 1_555
H4 C5 1_555 1_555
H5 C7 1_555 1_555
H6 C8 1_555 1_555
H7 C9 1_555 1_555
H8 C10 1_555 1_555
H9 C12 1_555 1_555
H10 C13 1_555 1_555
H11 C14 1_555 1_555
H12 C15 1_555 1_555
H13 C17 1_555 1_555
H14 C18 1_555 1_555
H15 C19 1_555 1_555
H16 C20 1_555 1_555
O2_2 Cl1 1_555 1_555
Cl1_2 O2 1_555 1_555
O6_2 Cl2 1_555 1_555
Cl2_2 O6 1_555 1_555
C4 C5 1_555 1_555
N2 C6 1_555 1_555
C9 C10 1_555 1_555
C14 C15 1_555 1_555
N4 C16 1_555 1_555
C19 C20 1_555 1_555

#END
