
#######################################################################
#
#                 Cambridge Crystallographic Data Centre
#                                CCDC 
#
#######################################################################
#
# If this CIF has been generated from an entry in the Cambridge 
# Structural Database, then it will include bibliographic, chemical, 
# crystal, experimental, refinement or atomic coordinate data resulting 
# from the CCDC's data processing and validation procedures.
#
#######################################################################

data_TAQVAK
_symmetry_cell_setting           monoclinic
_symmetry_space_group_name_H-M   'P 21/n'
_symmetry_Int_Tables_number      14
_space_group_name_Hall           '-P 2yn'
loop_
_symmetry_equiv_pos_site_id
_symmetry_equiv_pos_as_xyz
1 x,y,z
2 1/2-x,1/2+y,1/2-z
3 -x,-y,-z
4 1/2+x,1/2-y,1/2+z
_cell_length_a                   7.7316(9)
_cell_length_b                   11.6883(12)
_cell_length_c                   17.2033(18)
_cell_angle_alpha                90
_cell_angle_beta                 101.228(4)
_cell_angle_gamma                90
_cell_volume                     1524.89
loop_
_atom_site_label
_atom_site_type_symbol
_atom_site_fract_x
_atom_site_fract_y
_atom_site_fract_z
Zn1 Zn 0.06457(8) 0.13934(5) 0.05156(4)
O1 O 0.0149(5) 0.1415(3) 0.1575(2)
O2 O 0.2540(5) 0.5190(3) 0.4383(3)
O3 O 0.3802(6) 0.3511(3) 0.4582(2)
O4 O -0.0841(5) 0.3115(4) 0.1154(2)
N1 N 0.2246(6) 0.2689(4) 0.0309(3)
C1 C 0.1590(7) 0.3646(5) -0.0068(3)
H1 H 0.0376 0.3698 -0.0243
C2 C 0.2538(7) 0.4138(6) 0.4278(3)
C3 C -0.0426(7) 0.2422(5) 0.1693(3)
C4 C 0.2611(7) 0.4549(5) -0.0207(3)
H2 H 0.2094 0.5183 -0.0486
C5 C 0.4426(7) 0.4517(5) 0.0069(3)
C6 C 0.0975(8) 0.3575(5) 0.3772(4)
H3 H 0.0488 0.3022 0.4100
C7 C 0.2462(8) 0.3641(5) 0.2601(4)
H4 H 0.1885 0.4353 0.2439
H5 H 0.2634 0.3223 0.2141
H6 H 0.3585 0.3789 0.2937
C8 C -0.0520(7) 0.2719(5) 0.2540(3)
C9 C 0.5100(8) 0.3533(5) 0.0460(4)
H7 H 0.6304 0.3471 0.0658
C10 C 0.4003(7) 0.2652(6) 0.0556(4)
H8 H 0.4498 0.1991 0.0806
C11 C 0.1345(9) 0.2951(7) 0.3046(4)
C12 C 0.2291(15) 0.1805(7) 0.3318(6)
H9 H 0.3449 0.1960 0.3617
H10 H 0.2383 0.1353 0.2861
H11 H 0.1624 0.1392 0.3642
C13 C -0.1483(12) 0.3871(9) 0.2618(5)
H12 H -0.1416 0.4367 0.2172
H13 H -0.2715 0.3735 0.2630
C14 C -0.0539(11) 0.4424(9) 0.3400(6)
H14 H -0.1356 0.4532 0.3756
H15 H -0.0053 0.5161 0.3298
C15 C -0.1483(17) 0.1760(11) 0.2892(6)
H16 H -0.2631 0.1650 0.2569
H17 H -0.1603 0.1966 0.3420
H18 H -0.0819 0.1064 0.2909
Zn1B Zn 0.93543(8) 0.86066(5) -0.05156(4)
Zn1A Zn 0.43543(8) 0.63934(5) -0.55156(4)
Zn1A_2 Zn 0.43543(8) 0.63934(5) 0.44844(4)
Zn1C Zn 0.56457(8) 0.36066(5) -0.44844(4)
Zn1C_2 Zn 0.56457(8) 0.36066(5) 0.55156(4)
O1B O 0.9851(5) 0.8585(3) -0.1575(2)
O2B O 0.7460(5) 0.4810(3) -0.4383(3)
O2A O 0.2460(5) 0.0190(3) 0.0617(3)
O2C O 0.7540(5) 0.9810(3) -0.0617(3)
O3B O 0.6198(6) 0.6489(3) -0.4582(2)
O3A O 1.1198(6) 0.8511(3) 0.0418(2)
O3C O -0.1198(6) 0.1489(3) -0.0418(2)
O4B O 1.0841(5) 0.6885(4) -0.1154(2)
N1B N 0.7754(6) 0.7311(4) -0.0309(3)
C1B C 0.8410(7) 0.6354(5) 0.0068(3)
H1B H 0.9624 0.6302 0.0243
C2B C 0.7462(7) 0.5862(6) -0.4278(3)
C3B C 1.0426(7) 0.7578(5) -0.1693(3)
C4B C 0.7389(7) 0.5451(5) 0.0207(3)
H2B H 0.7906 0.4817 0.0486
C5B C 0.5574(7) 0.5483(5) -0.0069(3)
C6B C 0.9025(8) 0.6425(5) -0.3772(4)
H3B H 0.9512 0.6978 -0.4100
C7B C 0.7538(8) 0.6359(5) -0.2601(4)
H4B H 0.8115 0.5647 -0.2439
H5B H 0.7366 0.6777 -0.2141
H6B H 0.6415 0.6211 -0.2937
C8B C 1.0520(7) 0.7281(5) -0.2540(3)
C9B C 0.4900(8) 0.6467(5) -0.0460(4)
H7B H 0.3696 0.6529 -0.0658
C10B C 0.5997(7) 0.7348(6) -0.0556(4)
H8B H 0.5502 0.8009 -0.0806
C11B C 0.8655(9) 0.7049(7) -0.3046(4)
C12B C 0.7709(15) 0.8195(7) -0.3318(6)
H9B H 0.6551 0.8040 -0.3617
H10B H 0.7617 0.8647 -0.2861
H11B H 0.8376 0.8608 -0.3642
C13B C 1.1483(12) 0.6129(9) -0.2618(5)
H12B H 1.1416 0.5633 -0.2172
H13B H 1.2715 0.6265 -0.2630
C14B C 1.0539(11) 0.5576(9) -0.3400(6)
H14B H 1.1356 0.5468 -0.3756
H15B H 1.0053 0.4839 -0.3298
C15B C 1.1483(17) 0.8240(11) -0.2892(6)
H16B H 1.2631 0.8350 -0.2569
H17B H 1.1603 0.8034 -0.3420
H18B H 1.0819 0.8936 -0.2909
loop_
_geom_bond_atom_site_label_1
_geom_bond_atom_site_label_2
_geom_bond_site_symmetry_1
_geom_bond_site_symmetry_2
Zn1 O1 1_555 1_555
O1 C3 1_555 1_555
O2 C2 1_555 1_555
O3 C2 1_555 1_555
O4 C3 1_555 1_555
N1 Zn1 1_555 1_555
C1 N1 1_555 1_555
H1 C1 1_555 1_555
C2 C6 1_555 1_555
C3 C8 1_555 1_555
C4 C1 1_555 1_555
H2 C4 1_555 1_555
C5 C4 1_555 1_555
C6 H3 1_555 1_555
C7 H4 1_555 1_555
H5 C7 1_555 1_555
H6 C7 1_555 1_555
C8 C11 1_555 1_555
C9 C5 1_555 1_555
H7 C9 1_555 1_555
C10 N1 1_555 1_555
H8 C10 1_555 1_555
C11 C6 1_555 1_555
C12 C11 1_555 1_555
H9 C12 1_555 1_555
H10 C12 1_555 1_555
H11 C12 1_555 1_555
C13 C8 1_555 1_555
H12 C13 1_555 1_555
H13 C13 1_555 1_555
C14 C6 1_555 1_555
H14 C14 1_555 1_555
H15 C14 1_555 1_555
C15 C8 1_555 1_555
H16 C15 1_555 1_555
H17 C15 1_555 1_555
H18 C15 1_555 1_555
Zn1B O1B 1_555 1_555
Zn1A O3B 1_555 1_555
Zn1A_2 O2 1_555 1_555
Zn1C O2B 1_555 1_555
Zn1C_2 O3 1_555 1_555
O1B C3B 1_555 1_555
O2B C2B 1_555 1_555
O2A Zn1 1_555 1_555
O2C Zn1B 1_555 1_555
O3B C2B 1_555 1_555
O3A Zn1B 1_555 1_555
O3C Zn1 1_555 1_555
O4B C3B 1_555 1_555
N1B Zn1B 1_555 1_555
C1B N1B 1_555 1_555
H1B C1B 1_555 1_555
C2B C6B 1_555 1_555
C3B C8B 1_555 1_555
C4B C1B 1_555 1_555
H2B C4B 1_555 1_555
C5B C5 1_555 1_555
C6B H3B 1_555 1_555
C7B H4B 1_555 1_555
H5B C7B 1_555 1_555
H6B C7B 1_555 1_555
C8B C11B 1_555 1_555
C9B C5B 1_555 1_555
H7B C9B 1_555 1_555
C10B N1B 1_555 1_555
H8B C10B 1_555 1_555
C11B C6B 1_555 1_555
C12B C11B 1_555 1_555
H9B C12B 1_555 1_555
H10B C12B 1_555 1_555
H11B C12B 1_555 1_555
C13B C8B 1_555 1_555
H12B C13B 1_555 1_555
H13B C13B 1_555 1_555
C14B C6B 1_555 1_555
H14B C14B 1_555 1_555
H15B C14B 1_555 1_555
C15B C8B 1_555 1_555
H16B C15B 1_555 1_555
H17B C15B 1_555 1_555
H18B C15B 1_555 1_555
C7 C11 1_555 1_555
C9 C10 1_555 1_555
C13 C14 1_555 1_555
C4B C5B 1_555 1_555
C7B C11B 1_555 1_555
C9B C10B 1_555 1_555
C13B C14B 1_555 1_555

#END
