
#######################################################################
#
#                 Cambridge Crystallographic Data Centre
#                                CCDC 
#
#######################################################################
#
# If this CIF has been generated from an entry in the Cambridge 
# Structural Database, then it will include bibliographic, chemical, 
# crystal, experimental, refinement or atomic coordinate data resulting 
# from the CCDC's data processing and validation procedures.
#
#######################################################################

data_TARDOF
_symmetry_cell_setting           orthorhombic
_symmetry_space_group_name_H-M   'I m a 2'
_symmetry_Int_Tables_number      46
_space_group_name_Hall           'I 2 -2a'
loop_
_symmetry_equiv_pos_site_id
_symmetry_equiv_pos_as_xyz
1 x,y,z
2 1/2+x,1/2+y,1/2+z
3 1/2-x,y,z
4 -x,1/2+y,1/2+z
5 1/2+x,-y,z
6 x,1/2-y,1/2+z
7 -x,-y,z
8 1/2-x,1/2-y,1/2+z
_cell_length_a                   6.892(1)
_cell_length_b                   19.692(2)
_cell_length_c                   6.439(1)
_cell_angle_alpha                90
_cell_angle_beta                 90
_cell_angle_gamma                90
_cell_volume                     873.883
loop_
_atom_site_label
_atom_site_type_symbol
_atom_site_fract_x
_atom_site_fract_y
_atom_site_fract_z
Na1 Na 0.2500 -0.27178(8) 0.4188(5)
O1 O 0.2500 0.17835(14) 0.3812(8)
O2 O 0.2500 -0.11597(26) 0.0281(14)
O3 O 0.2500 -0.13794(18) 0.3585(12)
N1 N 0.2500 -0.0967(3) 0.2135(13)
C1 C 0.2500 0.1138(3) 0.3430(11)
C2 C 0.2500 0.0894(4) 0.1343(12)
C3 C 0.2500 0.0184(3) 0.0985(12)
C4 C 0.2500 -0.0253(3) 0.2544(10)
C5 C 0.2500 -0.0027(3) 0.4635(13)
C6 C 0.2500 0.0651(4) 0.5033(13)
O4 O 0.4936(4) -0.26254(14) 0.1633(6)
H1 H 0.250 0.125(5) 0.017(21)
H2 H 0.2500 -0.001(5) -0.044(22)
H3 H 0.2500 -0.032(6) 0.574(18)
H4 H 0.2500 0.083(5) 0.652(19)
H5 H 0.589(10) -0.288(4) 0.067(12)
H6 H 0.583(11) -0.232(3) 0.242(16)
Na1E Na 0.2500 -0.22822(8) -0.0812(5)
O2E O 0.2500 -0.38403(26) 0.5281(14)
O4E O 0.4936(4) -0.23746(14) 0.6633(6)
Na1E_2 Na 0.2500 -0.22822(8) 0.9188(5)
O4G O 0.0064(4) -0.23746(14) 0.6633(6)
H5G H -0.089(10) -0.212(4) 0.567(12)
H6G H -0.083(11) -0.268(3) 0.742(16)
H5E H 0.589(10) -0.212(4) 0.567(12)
H6E H 0.583(11) -0.268(3) 0.742(16)
O4B O 0.0064(4) -0.26254(14) 0.1633(6)
H5B H -0.089(10) -0.288(4) 0.067(12)
H6B H -0.083(11) -0.232(3) 0.242(16)
loop_
_geom_bond_atom_site_label_1
_geom_bond_atom_site_label_2
_geom_bond_site_symmetry_1
_geom_bond_site_symmetry_2
Na1 O3 1_555 1_555
O1 C1 1_555 1_555
O2 N1 1_555 1_555
O3 N1 1_555 1_555
N1 C4 1_555 1_555
C1 C2 1_555 1_555
C2 C3 1_555 1_555
C3 C4 1_555 1_555
C4 C5 1_555 1_555
C5 C6 1_555 1_555
C6 C1 1_555 1_555
O4 Na1 1_555 1_555
H1 C2 1_555 1_555
H2 C3 1_555 1_555
H3 C5 1_555 1_555
H4 C6 1_555 1_555
H5 O4 1_555 1_555
H6 O4 1_555 1_555
Na1E O2 1_555 1_555
O2E Na1 1_555 1_555
O4E Na1 1_555 1_555
Na1E_2 O4E 1_555 1_555
O4G Na1 1_555 1_555
H5G O4G 1_555 1_555
H6G O4G 1_555 1_555
H5E O4E 1_555 1_555
H6E O4E 1_555 1_555
O4B Na1 1_555 1_555
H5B O4B 1_555 1_555
H6B O4B 1_555 1_555
O4 Na1E 1_555 1_555
Na1E O4B 1_555 1_555
Na1E_2 O4G 1_555 1_555

#END
