
#######################################################################
#
#                 Cambridge Crystallographic Data Centre
#                                CCDC 
#
#######################################################################
#
# If this CIF has been generated from an entry in the Cambridge 
# Structural Database, then it will include bibliographic, chemical, 
# crystal, experimental, refinement or atomic coordinate data resulting 
# from the CCDC's data processing and validation procedures.
#
#######################################################################

data_TARFEZ
_symmetry_cell_setting           monoclinic
_symmetry_space_group_name_H-M   'P 21/c'
_symmetry_Int_Tables_number      14
_space_group_name_Hall           '-P 2ybc'
loop_
_symmetry_equiv_pos_site_id
_symmetry_equiv_pos_as_xyz
1 x,y,z
2 -x,1/2+y,1/2-z
3 -x,-y,-z
4 x,1/2-y,1/2+z
_cell_length_a                   7.623(3)
_cell_length_b                   17.710(6)
_cell_length_c                   8.791(3)
_cell_angle_alpha                90
_cell_angle_beta                 111.214(6)
_cell_angle_gamma                90
_cell_volume                     1106.39
loop_
_atom_site_label
_atom_site_type_symbol
_atom_site_fract_x
_atom_site_fract_y
_atom_site_fract_z
Ni1 Ni 0.5000 0.5000 0.0000
O1 O 1.0374(4) 0.42590(19) 0.3089(3)
N1 N 0.3700(3) 0.29953(12) 0.1964(3)
N2 N 0.5299(3) 0.27258(13) 0.1831(3)
N3 N 0.4755(3) 0.39219(11) 0.0923(2)
N4 N -0.3286(3) 0.10111(12) 0.1378(2)
N5 N -0.5127(3) 0.09451(14) 0.0432(3)
N6 N -0.4590(3) 0.04867(11) 0.2946(2)
N7 N 0.7912(3) 0.49737(12) 0.1249(3)
C1 C 0.2539(4) 0.25350(17) 0.2622(3)
H1 H 0.2116 0.2846 0.3331
H2 H 0.3302 0.2130 0.3276
C2 C 0.0852(4) 0.22000(15) 0.1310(3)
H3 H 0.1269 0.1874 0.0620
H4 H 0.0100 0.2602 0.0636
C3 C -0.0352(4) 0.17451(15) 0.2037(3)
H5 H 0.0423 0.1366 0.2772
H6 H -0.0840 0.2078 0.2666
C4 C -0.1968(4) 0.13643(17) 0.0731(3)
H7 H -0.2635 0.1735 -0.0087
H8 H -0.1476 0.0982 0.0201
C5 C 0.5878(4) 0.33066(15) 0.1208(3)
H9 H 0.6979 0.3295 0.0981
C6 C 0.3412(4) 0.37017(15) 0.1436(3)
H10 H 0.2405 0.4000 0.1429
C7 C -0.5841(4) 0.06244(15) 0.1432(3)
H11 H -0.7109 0.0502 0.1119
C8 C -0.2989(4) 0.07359(15) 0.2850(3)
H12 H -0.1825 0.0719 0.3697
C9 C 0.9105(4) 0.46242(17) 0.2158(3)
Ni1A Ni -0.5000 0.0000 0.5000
Ni1A_2 Ni 1.5000 1.0000 -0.5000
O1B O -0.0374(4) 0.57410(19) -0.3089(3)
N1B N 0.6300(3) 0.70047(12) -0.1964(3)
N2B N 0.4701(3) 0.72742(13) -0.1831(3)
N3B N 0.5245(3) 0.60781(11) -0.0923(2)
N4B N 1.3286(3) 0.89889(12) -0.1378(2)
N5B N 1.5127(3) 0.90549(14) -0.0432(3)
N6B N 1.4590(3) 0.95133(11) -0.2946(2)
N6A N 0.4590(3) 0.54867(11) 0.2054(2)
N6C N 0.5410(3) 0.45133(11) -0.2054(2)
N7B N 0.2088(3) 0.50263(12) -0.1249(3)
C1B C 0.7461(4) 0.74650(17) -0.2622(3)
H1B H 0.7884 0.7154 -0.3331
H2B H 0.6698 0.7870 -0.3276
C2B C 0.9148(4) 0.78000(15) -0.1310(3)
H3B H 0.8731 0.8126 -0.0620
H4B H 0.9900 0.7398 -0.0636
C3B C 1.0352(4) 0.82549(15) -0.2037(3)
H5B H 0.9577 0.8634 -0.2772
H6B H 1.0840 0.7922 -0.2666
C4B C 1.1968(4) 0.86357(17) -0.0731(3)
H7B H 1.2635 0.8265 0.0087
H8B H 1.1476 0.9018 -0.0201
C5B C 0.4122(4) 0.66934(15) -0.1208(3)
H9B H 0.3021 0.6705 -0.0981
C6B C 0.6588(4) 0.62983(15) -0.1436(3)
H10B H 0.7595 0.6000 -0.1429
C7B C 1.5841(4) 0.93756(15) -0.1432(3)
H11B H 1.7109 0.9498 -0.1119
C8B C 1.2989(4) 0.92641(15) -0.2850(3)
H12B H 1.1825 0.9281 -0.3697
C9B C 0.0895(4) 0.53758(17) -0.2158(3)
loop_
_geom_bond_atom_site_label_1
_geom_bond_atom_site_label_2
_geom_bond_site_symmetry_1
_geom_bond_site_symmetry_2
Ni1 N3 1_555 1_555
O1 C9 1_555 1_555
N1 N2 1_555 1_555
N2 C5 1_555 1_555
N3 C5 1_555 1_555
N4 N5 1_555 1_555
N5 C7 1_555 1_555
N6 C7 1_555 1_555
N7 Ni1 1_555 1_555
C1 N1 1_555 1_555
H1 C1 1_555 1_555
H2 C1 1_555 1_555
C2 C1 1_555 1_555
H3 C2 1_555 1_555
H4 C2 1_555 1_555
C3 C2 1_555 1_555
H5 C3 1_555 1_555
H6 C3 1_555 1_555
C4 N4 1_555 1_555
H7 C4 1_555 1_555
H8 C4 1_555 1_555
C5 H9 1_555 1_555
C6 N1 1_555 1_555
H10 C6 1_555 1_555
C7 H11 1_555 1_555
C8 N4 1_555 1_555
H12 C8 1_555 1_555
C9 N7 1_555 1_555
Ni1A N6 1_555 1_555
Ni1A_2 N6B 1_555 1_555
O1B C9B 1_555 1_555
N1B N2B 1_555 1_555
N2B C5B 1_555 1_555
N3B Ni1 1_555 1_555
N4B N5B 1_555 1_555
N5B C7B 1_555 1_555
N6B C7B 1_555 1_555
N6A Ni1 1_555 1_555
N6C Ni1 1_555 1_555
N7B Ni1 1_555 1_555
C1B N1B 1_555 1_555
H1B C1B 1_555 1_555
H2B C1B 1_555 1_555
C2B C1B 1_555 1_555
H3B C2B 1_555 1_555
H4B C2B 1_555 1_555
C3B C2B 1_555 1_555
H5B C3B 1_555 1_555
H6B C3B 1_555 1_555
C4B N4B 1_555 1_555
H7B C4B 1_555 1_555
H8B C4B 1_555 1_555
C5B N3B 1_555 1_555
H9B C5B 1_555 1_555
C6B N1B 1_555 1_555
H10B C6B 1_555 1_555
C7B H11B 1_555 1_555
C8B N4B 1_555 1_555
H12B C8B 1_555 1_555
C9B N7B 1_555 1_555
N3 C6 1_555 1_555
N6 C8 1_555 1_555
C3 C4 1_555 1_555
N3B C6B 1_555 1_555
N6B C8B 1_555 1_555
C3B C4B 1_555 1_555

#END
