
#######################################################################
#
#                 Cambridge Crystallographic Data Centre
#                                CCDC 
#
#######################################################################
#
# If this CIF has been generated from an entry in the Cambridge 
# Structural Database, then it will include bibliographic, chemical, 
# crystal, experimental, refinement or atomic coordinate data resulting 
# from the CCDC's data processing and validation procedures.
#
#######################################################################

data_TARLAB
_symmetry_cell_setting           orthorhombic
_symmetry_space_group_name_H-M   'P 21 21 21'
_symmetry_Int_Tables_number      19
_space_group_name_Hall           'P 2ac 2ab'
loop_
_symmetry_equiv_pos_site_id
_symmetry_equiv_pos_as_xyz
1 x,y,z
2 1/2-x,-y,1/2+z
3 -x,1/2+y,1/2-z
4 1/2+x,1/2-y,-z
_cell_length_a                   10.6502(13)
_cell_length_b                   18.794(2)
_cell_length_c                   22.921(3)
_cell_angle_alpha                90
_cell_angle_beta                 90
_cell_angle_gamma                90
_cell_volume                     4587.86
loop_
_atom_site_label
_atom_site_type_symbol
_atom_site_fract_x
_atom_site_fract_y
_atom_site_fract_z
Sn1 Sn 0.26052(5) 1.06292(2) 1.056029(19)
Sn2 Sn 0.24999(6) 0.85949(2) 0.82757(2)
Se1 Se 0.32441(7) 1.15954(4) 1.18170(3)
Se2 Se 0.28632(8) 0.89892(4) 0.98337(3)
O1 O 0.2328(5) 1.1449(2) 1.1229(2)
O2 O 0.2176(5) 1.1720(3) 1.2354(2)
O3 O 0.2897(5) 0.9888(3) 0.9834(2)
O4 O 0.2092(5) 0.8801(3) 0.9213(2)
C1 C 0.3672(8) 1.2579(4) 1.1660(3)
C2 C 0.4774(9) 1.2719(6) 1.1372(4)
C3 C 0.4925(13) 1.3490(8) 1.1261(5)
H1 H 0.5640 1.3644 1.1065
C4 C 0.4086(16) 1.3977(6) 1.1429(6)
H2 H 0.4210 1.4453 1.1335
C5 C 0.3066(12) 1.3785(5) 1.1733(5)
H3 H 0.2521 1.4130 1.1875
C6 C 0.2831(9) 1.3095(4) 1.1831(4)
H4 H 0.2091 1.2963 1.2016
C7 C 0.5686(10) 1.2190(7) 1.1188(5)
H5 H 0.5913 1.1898 1.1515
H6 H 0.6421 1.2424 1.1040
H7 H 0.5327 1.1898 1.0888
C8 C 0.4589(8) 0.8806(4) 0.9633(4)
C9 C 0.5193(8) 0.8208(5) 0.9848(4)
C10 C 0.6422(10) 0.8116(6) 0.9648(5)
H8 H 0.6839 0.7707 0.9768
C11 C 0.7035(10) 0.8548(7) 0.9311(4)
H9 H 0.7867 0.8461 0.9210
C12 C 0.6392(10) 0.9159(7) 0.9101(5)
H10 H 0.6799 0.9477 0.8854
C13 C 0.5200(9) 0.9276(5) 0.9258(3)
H11 H 0.4777 0.9672 0.9116
C14 C 0.4612(10) 0.7701(6) 1.0256(5)
H12 H 0.4093 0.7954 1.0528
H13 H 0.5257 0.7449 1.0464
H14 H 0.4108 0.7368 1.0041
C15 C 0.3609(7) 0.9950(4) 1.1159(3)
C16 C 0.3055(9) 0.9685(4) 1.1637(3)
H15 H 0.2218 0.9797 1.1708
C17 C 0.3688(11) 0.9243(5) 1.2038(4)
H16 H 0.3281 0.9066 1.2367
C18 C 0.4893(12) 0.9086(5) 1.1931(5)
H17 H 0.5348 0.8812 1.2195
C19 C 0.5443(10) 0.9324(7) 1.1442(6)
H18 H 0.6265 0.9190 1.1360
C20 C 0.4818(9) 0.9764(6) 1.1056(4)
H19 H 0.5228 0.9933 1.0726
C21 C 0.0620(7) 1.0516(4) 1.0520(4)
C22 C 0.0055(10) 1.0240(6) 1.0030(5)
H20 H 0.0544 1.0112 0.9710
C23 C -0.1264(14) 1.0149(9) 1.0008(8)
H21 H -0.1649 0.9960 0.9678
C24 C -0.1946(13) 1.0341(8) 1.0475(10)
H22 H -0.2813 1.0289 1.0456
C25 C -0.1422(13) 1.0617(7) 1.0988(8)
H23 H -0.1930 1.0745 1.1301
C26 C -0.0113(9) 1.0695(5) 1.1019(5)
H24 H 0.0267 1.0859 1.1358
C27 C 0.3654(6) 1.1360(4) 1.0052(3)
C28 C 0.4740(8) 1.1161(5) 0.9774(4)
H25 H 0.5008 1.0690 0.9791
C29 C 0.5454(9) 1.1669(6) 0.9462(4)
H26 H 0.6217 1.1540 0.9295
C30 C 0.5025(11) 1.2344(7) 0.9405(5)
H27 H 0.5460 1.2664 0.9170
C31 C 0.3958(11) 1.2562(6) 0.9690(5)
H28 H 0.3701 1.3035 0.9678
C32 C 0.3278(9) 1.2061(5) 0.9994(4)
H29 H 0.2530 1.2201 1.0169
C33 C 0.3544(8) 0.7670(4) 0.8494(3)
C34 C 0.3024(9) 0.7171(5) 0.8880(4)
H30 H 0.2232 0.7250 0.9039
C35 C 0.3654(12) 0.6591(7) 0.9019(5)
H31 H 0.3282 0.6262 0.9268
C36 C 0.4821(13) 0.6456(6) 0.8813(5)
H32 H 0.5238 0.6040 0.8918
C37 C 0.5375(11) 0.6937(7) 0.8450(5)
H33 H 0.6192 0.6871 0.8318
C38 C 0.4680(9) 0.7529(5) 0.8284(4)
H34 H 0.5026 0.7842 0.8014
C39 C 0.3350(9) 0.9595(4) 0.8124(4)
C40 C 0.2991(10) 1.0205(4) 0.8411(4)
H35 H 0.2330 1.0163 0.8673
C41 C 0.3502(12) 1.0858(5) 0.8350(5)
H36 H 0.3233 1.1250 0.8564
C42 C 0.4455(14) 1.0897(7) 0.7945(6)
H37 H 0.4827 1.1339 0.7883
C43 C 0.4901(13) 1.0323(8) 0.7624(6)
H38 H 0.5562 1.0376 0.7362
C44 C 0.4298(9) 0.9638(6) 0.7710(4)
H39 H 0.4540 0.9241 0.7496
C45 C 0.0517(7) 0.8561(4) 0.8109(4)
C46 C -0.0098(9) 0.9142(5) 0.7967(4)
H40 H 0.0308 0.9579 0.7987
C47 C -0.1376(10) 0.9113(7) 0.7783(5)
H41 H -0.1798 0.9530 0.7688
C48 C -0.1959(10) 0.8498(7) 0.7748(5)
H42 H -0.2782 0.8472 0.7613
C49 C -0.1332(11) 0.7900(7) 0.7913(6)
H43 H -0.1754 0.7467 0.7900
C50 C -0.0121(9) 0.7905(5) 0.8096(4)
H44 H 0.0277 0.7487 0.8210
Sn2A Sn 0.25001(6) 1.14051(2) 1.32757(2)
O2A O 0.2824(5) 0.8280(3) 0.7354(2)
loop_
_geom_bond_atom_site_label_1
_geom_bond_atom_site_label_2
_geom_bond_site_symmetry_1
_geom_bond_site_symmetry_2
Sn1 O1 1_555 1_555
Sn2 O4 1_555 1_555
Se1 O1 1_555 1_555
Se2 O3 1_555 1_555
O2 Se1 1_555 1_555
O3 Sn1 1_555 1_555
O4 Se2 1_555 1_555
C1 Se1 1_555 1_555
C2 C1 1_555 1_555
C3 C2 1_555 1_555
H1 C3 1_555 1_555
C4 C3 1_555 1_555
H2 C4 1_555 1_555
C5 C4 1_555 1_555
H3 C5 1_555 1_555
C6 C1 1_555 1_555
H4 C6 1_555 1_555
C7 C2 1_555 1_555
H5 C7 1_555 1_555
H6 C7 1_555 1_555
H7 C7 1_555 1_555
C8 Se2 1_555 1_555
C9 C8 1_555 1_555
C10 C9 1_555 1_555
H8 C10 1_555 1_555
C11 C10 1_555 1_555
H9 C11 1_555 1_555
C12 C11 1_555 1_555
H10 C12 1_555 1_555
C13 C8 1_555 1_555
H11 C13 1_555 1_555
C14 C9 1_555 1_555
H12 C14 1_555 1_555
H13 C14 1_555 1_555
H14 C14 1_555 1_555
C15 Sn1 1_555 1_555
C16 C15 1_555 1_555
H15 C16 1_555 1_555
C17 C16 1_555 1_555
H16 C17 1_555 1_555
C18 C17 1_555 1_555
H17 C18 1_555 1_555
C19 C18 1_555 1_555
H18 C19 1_555 1_555
C20 C15 1_555 1_555
H19 C20 1_555 1_555
C21 Sn1 1_555 1_555
C22 C21 1_555 1_555
H20 C22 1_555 1_555
C23 C22 1_555 1_555
H21 C23 1_555 1_555
C24 C23 1_555 1_555
H22 C24 1_555 1_555
C25 C24 1_555 1_555
H23 C25 1_555 1_555
C26 C21 1_555 1_555
H24 C26 1_555 1_555
C27 Sn1 1_555 1_555
C28 C27 1_555 1_555
H25 C28 1_555 1_555
C29 C28 1_555 1_555
H26 C29 1_555 1_555
C30 C29 1_555 1_555
H27 C30 1_555 1_555
C31 C30 1_555 1_555
H28 C31 1_555 1_555
C32 C27 1_555 1_555
H29 C32 1_555 1_555
C33 Sn2 1_555 1_555
C34 C33 1_555 1_555
H30 C34 1_555 1_555
C35 C34 1_555 1_555
H31 C35 1_555 1_555
C36 C35 1_555 1_555
H32 C36 1_555 1_555
C37 C36 1_555 1_555
H33 C37 1_555 1_555
C38 C33 1_555 1_555
H34 C38 1_555 1_555
C39 Sn2 1_555 1_555
C40 C39 1_555 1_555
H35 C40 1_555 1_555
C41 C40 1_555 1_555
H36 C41 1_555 1_555
C42 C41 1_555 1_555
H37 C42 1_555 1_555
C43 C42 1_555 1_555
H38 C43 1_555 1_555
C44 C39 1_555 1_555
H39 C44 1_555 1_555
C45 Sn2 1_555 1_555
C46 C45 1_555 1_555
H40 C46 1_555 1_555
C47 C46 1_555 1_555
H41 C47 1_555 1_555
C48 C47 1_555 1_555
H42 C48 1_555 1_555
C49 C48 1_555 1_555
H43 C49 1_555 1_555
C50 C45 1_555 1_555
H44 C50 1_555 1_555
Sn2A O2 1_555 1_555
O2A Sn2 1_555 1_555
C5 C6 1_555 1_555
C12 C13 1_555 1_555
C19 C20 1_555 1_555
C25 C26 1_555 1_555
C31 C32 1_555 1_555
C37 C38 1_555 1_555
C43 C44 1_555 1_555
C49 C50 1_555 1_555

#END
