
#######################################################################
#
#                 Cambridge Crystallographic Data Centre
#                                CCDC 
#
#######################################################################
#
# If this CIF has been generated from an entry in the Cambridge 
# Structural Database, then it will include bibliographic, chemical, 
# crystal, experimental, refinement or atomic coordinate data resulting 
# from the CCDC's data processing and validation procedures.
#
#######################################################################

data_TARLEF
_symmetry_cell_setting           monoclinic
_symmetry_space_group_name_H-M   'P 21/n'
_symmetry_Int_Tables_number      14
_space_group_name_Hall           '-P 2yn'
loop_
_symmetry_equiv_pos_site_id
_symmetry_equiv_pos_as_xyz
1 x,y,z
2 1/2-x,1/2+y,1/2-z
3 -x,-y,-z
4 1/2+x,1/2-y,1/2+z
_cell_length_a                   12.5854(12)
_cell_length_b                   12.5680(11)
_cell_length_c                   15.8206(16)
_cell_angle_alpha                90
_cell_angle_beta                 101.3820(10)
_cell_angle_gamma                90
_cell_volume                     2453.18
loop_
_atom_site_label
_atom_site_type_symbol
_atom_site_fract_x
_atom_site_fract_y
_atom_site_fract_z
Sn1 Sn 0.26569(2) 0.363466(19) 0.210750(15)
Se1 Se 0.32697(3) 0.59995(3) 0.34409(2)
O1 O 0.2398(2) 0.70070(18) 0.34559(16)
O2 O 0.2718(2) 0.53154(18) 0.25426(15)
C1 C 0.1314(3) 0.3328(3) 0.2707(2)
C2 C 0.0399(4) 0.3954(4) 0.2568(3)
H1 H 0.0343 0.4523 0.2186
C3 C -0.0449(4) 0.3739(5) 0.2997(4)
H2 H -0.1073 0.4155 0.2892
C4 C -0.0359(5) 0.2918(5) 0.3571(4)
H3 H -0.0920 0.2781 0.3860
C5 C 0.0535(5) 0.2304(4) 0.3722(3)
H4 H 0.0592 0.1745 0.4114
C6 C 0.1361(4) 0.2509(3) 0.3294(3)
H5 H 0.1975 0.2081 0.3404
C7 C 0.2523(4) 0.4302(3) 0.0853(2)
C8 C 0.1741(4) 0.5032(3) 0.0521(3)
H6 H 0.1227 0.5227 0.0840
C9 C 0.1706(5) 0.5486(4) -0.0286(3)
H7 H 0.1161 0.5968 -0.0509
C10 C 0.2469(6) 0.5223(4) -0.0749(3)
H8 H 0.2455 0.5533 -0.1285
C11 C 0.3244(6) 0.4516(5) -0.0431(3)
H9 H 0.3763 0.4335 -0.0752
C12 C 0.3281(4) 0.4050(4) 0.0371(3)
H10 H 0.3825 0.3563 0.0583
C13 C 0.4231(3) 0.3288(3) 0.2823(2)
C14 C 0.4436(4) 0.2324(3) 0.3259(3)
H11 H 0.3906 0.1798 0.3176
C15 C 0.5408(4) 0.2134(4) 0.3811(3)
H12 H 0.5518 0.1497 0.4115
C16 C 0.6213(4) 0.2881(4) 0.3913(3)
H13 H 0.6871 0.2752 0.4284
C17 C 0.6051(4) 0.3816(4) 0.3471(3)
H14 H 0.6605 0.4317 0.3535
C18 C 0.5067(3) 0.4028(3) 0.2926(3)
H15 H 0.4967 0.4669 0.2627
C19 C 0.2871(3) 0.5120(3) 0.4331(2)
C20 C 0.3579(3) 0.4339(3) 0.4710(2)
H16 H 0.4241 0.4247 0.4542
C21 C 0.3301(4) 0.3699(3) 0.5335(2)
H17 H 0.3782 0.3172 0.5585
C22 C 0.2331(4) 0.3813(3) 0.5603(2)
C23 C 0.1632(3) 0.4611(3) 0.5208(3)
H18 H 0.0969 0.4706 0.5373
C24 C 0.1899(3) 0.5263(3) 0.4580(2)
H19 H 0.1424 0.5793 0.4328
C25 C 0.2066(4) 0.3128(4) 0.6322(3)
H20 H 0.2445 0.2451 0.6295
C26 C 0.2522(5) 0.3595(5) 0.7194(3)
H21 H 0.2156 0.4251 0.7262
H22 H 0.3282 0.3730 0.7241
H23 H 0.2418 0.3104 0.7635
C27 C 0.0902(5) 0.2859(6) 0.6230(4)
H24 H 0.0504 0.3485 0.6324
H25 H 0.0817 0.2326 0.6646
H26 H 0.0631 0.2591 0.5660
Sn1A Sn 0.23431(2) 0.863466(19) 0.289250(15)
O1A O 0.2602(2) 0.20070(18) 0.15441(16)
loop_
_geom_bond_atom_site_label_1
_geom_bond_atom_site_label_2
_geom_bond_site_symmetry_1
_geom_bond_site_symmetry_2
Sn1 O2 1_555 1_555
Se1 O1 1_555 1_555
O1 Sn1A 1_555 1_555
O2 Se1 1_555 1_555
C1 Sn1 1_555 1_555
C2 C1 1_555 1_555
H1 C2 1_555 1_555
C3 C2 1_555 1_555
H2 C3 1_555 1_555
C4 C3 1_555 1_555
H3 C4 1_555 1_555
C5 C4 1_555 1_555
H4 C5 1_555 1_555
C6 C1 1_555 1_555
H5 C6 1_555 1_555
C7 Sn1 1_555 1_555
C8 C7 1_555 1_555
H6 C8 1_555 1_555
C9 C8 1_555 1_555
H7 C9 1_555 1_555
C10 C9 1_555 1_555
H8 C10 1_555 1_555
C11 C10 1_555 1_555
H9 C11 1_555 1_555
C12 C7 1_555 1_555
H10 C12 1_555 1_555
C13 Sn1 1_555 1_555
C14 C13 1_555 1_555
H11 C14 1_555 1_555
C15 C14 1_555 1_555
H12 C15 1_555 1_555
C16 C15 1_555 1_555
H13 C16 1_555 1_555
C17 C16 1_555 1_555
H14 C17 1_555 1_555
C18 C13 1_555 1_555
H15 C18 1_555 1_555
C19 Se1 1_555 1_555
C20 C19 1_555 1_555
H16 C20 1_555 1_555
C21 C20 1_555 1_555
H17 C21 1_555 1_555
C22 C21 1_555 1_555
C23 C22 1_555 1_555
H18 C23 1_555 1_555
C24 C19 1_555 1_555
H19 C24 1_555 1_555
C25 C22 1_555 1_555
H20 C25 1_555 1_555
C26 C25 1_555 1_555
H21 C26 1_555 1_555
H22 C26 1_555 1_555
H23 C26 1_555 1_555
C27 C25 1_555 1_555
H24 C27 1_555 1_555
H25 C27 1_555 1_555
H26 C27 1_555 1_555
O1A Sn1 1_555 1_555
C5 C6 1_555 1_555
C11 C12 1_555 1_555
C17 C18 1_555 1_555
C23 C24 1_555 1_555

#END
