
#######################################################################
#
#                 Cambridge Crystallographic Data Centre
#                                CCDC 
#
#######################################################################
#
# If this CIF has been generated from an entry in the Cambridge 
# Structural Database, then it will include bibliographic, chemical, 
# crystal, experimental, refinement or atomic coordinate data resulting 
# from the CCDC's data processing and validation procedures.
#
#######################################################################

data_TARLII
_symmetry_cell_setting           triclinic
_symmetry_space_group_name_H-M   'P -1'
_symmetry_Int_Tables_number      2
_space_group_name_Hall           '-P 1'
loop_
_symmetry_equiv_pos_site_id
_symmetry_equiv_pos_as_xyz
1 x,y,z
2 -x,-y,-z
_cell_length_a                   7.974(4)
_cell_length_b                   14.343(7)
_cell_length_c                   15.559(8)
_cell_angle_alpha                96.230(8)
_cell_angle_beta                 100.361(8)
_cell_angle_gamma                93.849(9)
_cell_volume                     1733.3
loop_
_atom_site_label
_atom_site_type_symbol
_atom_site_fract_x
_atom_site_fract_y
_atom_site_fract_z
Ni1 Ni 1.0000 1.0000 1.0000
Na1 Na 0.5000 0.5000 1.0000
S1 S 0.8707(2) 0.86803(11) 0.93641(11)
S2 S 0.9953(3) 0.96035(12) 1.12744(12)
N1 N 0.6777(8) 0.6437(4) 0.9896(4)
N2 N 0.8384(11) 0.7704(5) 1.2405(4)
O1 O 0.6796(6) 0.3948(3) 0.9048(3)
O2 O 0.3896(6) 0.4635(3) 0.8082(3)
O3 O 0.2489(5) 0.5850(3) 0.9129(3)
C1 C 0.6022(10) 0.3570(5) 0.8187(5)
H1 H 0.5120 0.3086 0.8201
H2 H 0.6861 0.3287 0.7885
C2 C 0.5298(10) 0.4337(6) 0.7714(5)
H3 H 0.6163 0.4860 0.7771
H4 H 0.4921 0.4113 0.7094
C3 C 0.3137(9) 0.5413(4) 0.7732(4)
H5 H 0.3996 0.5955 0.7836
C4 C 0.2407(9) 0.5211(4) 0.6748(4)
H6 H 0.1947 0.5772 0.6539
H7 H 0.3316 0.5052 0.6434
C5 C 0.1002(10) 0.4405(5) 0.6555(5)
H8 H 0.0505 0.4321 0.5933
H9 H 0.1488 0.3827 0.6701
C6 C -0.0375(10) 0.4604(6) 0.7083(5)
H10 H -0.1212 0.4062 0.6985
H11 H -0.0957 0.5135 0.6882
C7 C 0.0358(9) 0.4820(5) 0.8061(4)
H12 H -0.0548 0.4980 0.8377
H13 H 0.0835 0.4267 0.8278
C8 C 0.1742(9) 0.5633(4) 0.8232(5)
H14 H 0.1229 0.6190 0.8027
C9 C 0.1404(9) 0.6290(5) 0.9644(5)
H15 H 0.0551 0.5826 0.9754
H16 H 0.0816 0.6759 0.9331
C10 C 0.7561(10) 0.3262(5) 0.9521(5)
H17 H 0.6684 0.2814 0.9634
H18 H 0.8280 0.2923 0.9178
C11 C 0.7462(8) 0.7168(4) 1.0046(4)
C12 C 0.8360(8) 0.8092(4) 1.0240(5)
C13 C 0.8906(8) 0.8503(4) 1.1076(5)
C14 C 0.8605(10) 0.8044(5) 1.1808(5)
Na1_2 Na 1.5000 1.5000 1.0000
S1A S 1.1293(2) 1.13197(11) 1.06359(11)
S2A S 1.0047(3) 1.03965(12) 0.87256(12)
N1A N 1.3223(8) 1.3563(4) 1.0104(4)
N1A_2 N 0.3223(8) 0.3563(4) 1.0104(4)
N2A N 1.1616(11) 1.2296(5) 0.7595(4)
O1A O 0.3204(6) 0.6052(3) 1.0952(3)
O2A O 0.6104(6) 0.5365(3) 1.1918(3)
O3A O 0.7511(5) 0.4150(3) 1.0871(3)
C1A C 0.3978(10) 0.6430(5) 1.1813(5)
H1A H 0.4880 0.6914 1.1799
H2A H 0.3139 0.6713 1.2115
C2A C 0.4702(10) 0.5663(6) 1.2286(5)
H3A H 0.3837 0.5140 1.2229
H4A H 0.5079 0.5887 1.2906
C3A C 0.6863(9) 0.4587(4) 1.2268(4)
H5A H 0.6004 0.4045 1.2164
C4A C 0.7593(9) 0.4789(4) 1.3252(4)
H6A H 0.8053 0.4228 1.3461
H7A H 0.6684 0.4948 1.3566
C5A C 0.8998(10) 0.5595(5) 1.3445(5)
H8A H 0.9495 0.5679 1.4067
H9A H 0.8512 0.6173 1.3299
C6A C 1.0375(10) 0.5396(6) 1.2917(5)
H10A H 1.1212 0.5938 1.3015
H11A H 1.0957 0.4865 1.3118
C7A C 0.9642(9) 0.5180(5) 1.1939(4)
H12A H 1.0548 0.5020 1.1623
H13A H 0.9165 0.5733 1.1722
C8A C 0.8258(9) 0.4367(4) 1.1768(5)
H14A H 0.8771 0.3810 1.1973
C9A C 0.8596(9) 0.3710(5) 1.0356(5)
H15A H 0.9449 0.4174 1.0246
H16A H 0.9184 0.3241 1.0669
C10A C 0.2439(10) 0.6738(5) 1.0479(5)
H17A H 0.3316 0.7186 1.0366
H18A H 0.1720 0.7077 1.0822
C11A C 1.2538(8) 1.2832(4) 0.9954(4)
C12A C 1.1640(8) 1.1908(4) 0.9760(5)
C13A C 1.1094(8) 1.1497(4) 0.8924(5)
C14A C 1.1395(10) 1.1956(5) 0.8192(5)
Ni2 Ni 0.5000 0.0000 0.0000
Na2 Na 0.5000 0.0000 0.5000
S3 S 0.4820(2) -0.06706(11) 0.11477(10)
S4 S 0.6231(2) 0.12736(11) 0.07624(11)
N3 N 0.5921(9) -0.0203(4) 0.3580(4)
N4 N 0.7809(9) 0.2296(4) 0.3070(4)
O4 O 0.2427(7) -0.1200(3) 0.4222(3)
O5 O 0.2196(6) 0.0716(3) 0.4291(3)
O6 O 0.4845(7) 0.2018(3) 0.4884(3)
C15 C 0.0854(12) -0.0807(6) 0.4175(6)
H19 H 0.0615 -0.0658 0.4761
H20 H -0.0061 -0.1251 0.3837
C16 C 0.0960(11) 0.0045(6) 0.3751(5)
H21 H 0.1281 -0.0099 0.3182
H22 H -0.0146 0.0300 0.3659
C17 C 0.2094(10) 0.1644(5) 0.4070(4)
H23 H 0.0902 0.1795 0.4017
C18 C 0.2668(10) 0.1762(5) 0.3207(4)
H24 H 0.1920 0.1357 0.2732
H25 H 0.3821 0.1575 0.3236
C19 C 0.2627(12) 0.2786(6) 0.3016(6)
H26 H 0.3097 0.2856 0.2491
H27 H 0.1450 0.2944 0.2904
C20 C 0.3627(12) 0.3447(6) 0.3766(6)
H28 H 0.3496 0.4090 0.3644
H29 H 0.4831 0.3346 0.3827
C21 C 0.3041(12) 0.3310(5) 0.4615(6)
H30 H 0.1867 0.3467 0.4575
H31 H 0.3748 0.3729 0.5094
C22 C 0.3157(12) 0.2289(5) 0.4809(5)
H32 H 0.2742 0.2210 0.5355
C23 C 0.6027(13) 0.2502(6) 0.5600(6)
H33 H 0.5659 0.2412 0.6149
H34 H 0.6118 0.3171 0.5549
C24 C 0.2311(12) -0.2120(6) 0.4417(6)
H35 H 0.2019 -0.2135 0.4994
H36 H 0.1423 -0.2497 0.3987
C25 C 0.5865(9) -0.0050(5) 0.2881(5)
C26 C 0.5755(8) 0.0166(4) 0.1994(4)
C27 C 0.6369(8) 0.1024(4) 0.1829(4)
C28 C 0.7187(10) 0.1740(5) 0.2525(5)
Na2_2 Na 0.5000 0.0000 -0.5000
S3A S 0.5180(2) 0.06706(11) -0.11477(10)
S4A S 0.3769(2) -0.12736(11) -0.07624(11)
N3A N 0.4079(9) 0.0203(4) -0.3580(4)
N3A_2 N 0.4079(9) 0.0203(4) 0.6420(4)
N4A N 0.2191(9) -0.2296(4) -0.3070(4)
O4A O 0.7573(7) 0.1200(3) 0.5778(3)
O5A O 0.7804(6) -0.0716(3) 0.5709(3)
O6A O 0.5155(7) -0.2018(3) 0.5116(3)
C15A C 0.9146(12) 0.0807(6) 0.5825(6)
H19A H 0.9385 0.0658 0.5239
H20A H 1.0061 0.1251 0.6163
C16A C 0.9040(11) -0.0045(6) 0.6249(5)
H21A H 0.8719 0.0099 0.6818
H22A H 1.0146 -0.0300 0.6341
C17A C 0.7906(10) -0.1644(5) 0.5930(4)
H23A H 0.9098 -0.1795 0.5983
C18A C 0.7332(10) -0.1762(5) 0.6793(4)
H24A H 0.8080 -0.1357 0.7268
H25A H 0.6179 -0.1575 0.6764
C19A C 0.7373(12) -0.2786(6) 0.6984(6)
H26A H 0.6903 -0.2856 0.7509
H27A H 0.8550 -0.2944 0.7096
C20A C 0.6373(12) -0.3447(6) 0.6234(6)
H28A H 0.6504 -0.4090 0.6356
H29A H 0.5169 -0.3346 0.6173
C21A C 0.6959(12) -0.3310(5) 0.5385(6)
H30A H 0.8133 -0.3467 0.5425
H31A H 0.6252 -0.3729 0.4906
C22A C 0.6843(12) -0.2289(5) 0.5191(5)
H32A H 0.7258 -0.2210 0.4645
C23A C 0.3973(13) -0.2502(6) 0.4400(6)
H33A H 0.4341 -0.2412 0.3851
H34A H 0.3882 -0.3171 0.4451
C24A C 0.7689(12) 0.2120(6) 0.5583(6)
H35A H 0.7981 0.2135 0.5006
H36A H 0.8577 0.2497 0.6013
C25A C 0.4135(9) 0.0050(5) -0.2881(5)
C26A C 0.4245(8) -0.0166(4) -0.1994(4)
C27A C 0.3631(8) -0.1024(4) -0.1829(4)
C28A C 0.2813(10) -0.1740(5) -0.2525(5)
loop_
_geom_bond_atom_site_label_1
_geom_bond_atom_site_label_2
_geom_bond_site_symmetry_1
_geom_bond_site_symmetry_2
Ni1 S1 1_555 1_555
Ni2 S3 1_555 1_555
Na1 N1 1_555 1_555
Na2 N3 1_555 1_555
S1 C12 1_555 1_555
S2 Ni1 1_555 1_555
S3 C26 1_555 1_555
S4 Ni2 1_555 1_555
N1 C11 1_555 1_555
N2 C14 1_555 1_555
N3 C25 1_555 1_555
N4 C28 1_555 1_555
O1 Na1 1_555 1_555
O2 Na1 1_555 1_555
O3 Na1 1_555 1_555
O4 Na2 1_555 1_555
O5 Na2 1_555 1_555
O6 Na2 1_555 1_555
C1 O1 1_555 1_555
H1 C1 1_555 1_555
H2 C1 1_555 1_555
C2 O2 1_555 1_555
H3 C2 1_555 1_555
H4 C2 1_555 1_555
C3 O2 1_555 1_555
H5 C3 1_555 1_555
C4 C3 1_555 1_555
H6 C4 1_555 1_555
H7 C4 1_555 1_555
C5 C4 1_555 1_555
H8 C5 1_555 1_555
H9 C5 1_555 1_555
C6 C5 1_555 1_555
H10 C6 1_555 1_555
H11 C6 1_555 1_555
C7 C6 1_555 1_555
H12 C7 1_555 1_555
H13 C7 1_555 1_555
C8 O3 1_555 1_555
H14 C8 1_555 1_555
C9 O3 1_555 1_555
H15 C9 1_555 1_555
H16 C9 1_555 1_555
C10 O1 1_555 1_555
H17 C10 1_555 1_555
H18 C10 1_555 1_555
C11 C12 1_555 1_555
C12 C13 1_555 1_555
C13 S2 1_555 1_555
C14 C13 1_555 1_555
C15 O4 1_555 1_555
H19 C15 1_555 1_555
H20 C15 1_555 1_555
C16 O5 1_555 1_555
H21 C16 1_555 1_555
H22 C16 1_555 1_555
C17 O5 1_555 1_555
H23 C17 1_555 1_555
C18 C17 1_555 1_555
H24 C18 1_555 1_555
H25 C18 1_555 1_555
C19 C18 1_555 1_555
H26 C19 1_555 1_555
H27 C19 1_555 1_555
C20 C19 1_555 1_555
H28 C20 1_555 1_555
H29 C20 1_555 1_555
C21 C20 1_555 1_555
H30 C21 1_555 1_555
H31 C21 1_555 1_555
C22 O6 1_555 1_555
H32 C22 1_555 1_555
C23 O6 1_555 1_555
H33 C23 1_555 1_555
H34 C23 1_555 1_555
C24 O4 1_555 1_555
H35 C24 1_555 1_555
H36 C24 1_555 1_555
C25 C26 1_555 1_555
C26 C27 1_555 1_555
C27 S4 1_555 1_555
C28 C27 1_555 1_555
Na1_2 N1A 1_555 1_555
Na2_2 N3A 1_555 1_555
S1A Ni1 1_555 1_555
S2A Ni1 1_555 1_555
S3A Ni2 1_555 1_555
S4A Ni2 1_555 1_555
N1A C11A 1_555 1_555
N1A_2 Na1 1_555 1_555
N2A C14A 1_555 1_555
N3A C25A 1_555 1_555
N3A_2 Na2 1_555 1_555
N4A C28A 1_555 1_555
O1A Na1 1_555 1_555
O2A Na1 1_555 1_555
O3A Na1 1_555 1_555
O4A Na2 1_555 1_555
O5A Na2 1_555 1_555
O6A Na2 1_555 1_555
C1A O1A 1_555 1_555
H1A C1A 1_555 1_555
H2A C1A 1_555 1_555
C2A O2A 1_555 1_555
H3A C2A 1_555 1_555
H4A C2A 1_555 1_555
C3A O2A 1_555 1_555
H5A C3A 1_555 1_555
C4A C3A 1_555 1_555
H6A C4A 1_555 1_555
H7A C4A 1_555 1_555
C5A C4A 1_555 1_555
H8A C5A 1_555 1_555
H9A C5A 1_555 1_555
C6A C5A 1_555 1_555
H10A C6A 1_555 1_555
H11A C6A 1_555 1_555
C7A C6A 1_555 1_555
H12A C7A 1_555 1_555
H13A C7A 1_555 1_555
C8A O3A 1_555 1_555
H14A C8A 1_555 1_555
C9A C10 1_555 1_555
H15A C9A 1_555 1_555
H16A C9A 1_555 1_555
C10A C9 1_555 1_555
H17A C10A 1_555 1_555
H18A C10A 1_555 1_555
C11A C12A 1_555 1_555
C12A S1A 1_555 1_555
C13A S2A 1_555 1_555
C14A C13A 1_555 1_555
C15A O4A 1_555 1_555
H19A C15A 1_555 1_555
H20A C15A 1_555 1_555
C16A O5A 1_555 1_555
H21A C16A 1_555 1_555
H22A C16A 1_555 1_555
C17A O5A 1_555 1_555
H23A C17A 1_555 1_555
C18A C17A 1_555 1_555
H24A C18A 1_555 1_555
H25A C18A 1_555 1_555
C19A C18A 1_555 1_555
H26A C19A 1_555 1_555
H27A C19A 1_555 1_555
C20A C19A 1_555 1_555
H28A C20A 1_555 1_555
H29A C20A 1_555 1_555
C21A C20A 1_555 1_555
H30A C21A 1_555 1_555
H31A C21A 1_555 1_555
C22A O6A 1_555 1_555
H32A C22A 1_555 1_555
C23A C24 1_555 1_555
H33A C23A 1_555 1_555
H34A C23A 1_555 1_555
C24A C23 1_555 1_555
H35A C24A 1_555 1_555
H36A C24A 1_555 1_555
C25A C26A 1_555 1_555
C26A S3A 1_555 1_555
C27A S4A 1_555 1_555
C28A C27A 1_555 1_555
C1 C2 1_555 1_555
C3 C8 1_555 1_555
C7 C8 1_555 1_555
C15 C16 1_555 1_555
C17 C22 1_555 1_555
C21 C22 1_555 1_555
O1A C10A 1_555 1_555
O3A C9A 1_555 1_555
O4A C24A 1_555 1_555
O6A C23A 1_555 1_555
C1A C2A 1_555 1_555
C3A C8A 1_555 1_555
C7A C8A 1_555 1_555
C12A C13A 1_555 1_555
C15A C16A 1_555 1_555
C17A C22A 1_555 1_555
C21A C22A 1_555 1_555
C26A C27A 1_555 1_555

#END
