
#######################################################################
#
#                 Cambridge Crystallographic Data Centre
#                                CCDC 
#
#######################################################################
#
# If this CIF has been generated from an entry in the Cambridge 
# Structural Database, then it will include bibliographic, chemical, 
# crystal, experimental, refinement or atomic coordinate data resulting 
# from the CCDC's data processing and validation procedures.
#
#######################################################################

data_TARQIM
_symmetry_cell_setting           triclinic
_symmetry_space_group_name_H-M   'P -1'
_symmetry_Int_Tables_number      2
_space_group_name_Hall           '-P 1'
loop_
_symmetry_equiv_pos_site_id
_symmetry_equiv_pos_as_xyz
1 x,y,z
2 -x,-y,-z
_cell_length_a                   8.947(3)
_cell_length_b                   9.270(4)
_cell_length_c                   9.967(4)
_cell_angle_alpha                80.07(2)
_cell_angle_beta                 65.44(2)
_cell_angle_gamma                64.41(1)
_cell_volume                     678.083
loop_
_atom_site_label
_atom_site_type_symbol
_atom_site_fract_x
_atom_site_fract_y
_atom_site_fract_z
Li1 Li 0.2538(6) -0.0677(6) 0.3714(5)
Li2 Li 0.6495(6) 0.3301(5) 0.3428(5)
B1 B -0.0786(4) 0.0822(4) 0.3290(4)
N1 N 0.1195(3) -0.0170(3) 0.2349(2)
C1 C 0.1922(4) 0.0770(4) 0.1122(3)
C2 C 0.1385(4) -0.1602(4) 0.1748(4)
B2 B 0.5143(4) 0.6721(4) 0.3490(3)
N2 N 0.6697(3) 0.5349(2) 0.2431(2)
C3 C 0.6533(4) 0.5473(4) 0.1006(3)
C4 C 0.8423(4) 0.5370(3) 0.2171(3)
O1 O 0.4847(2) 0.2772(2) 0.2812(2)
C5 C 0.2077(4) 0.2727(3) 0.4199(4)
C6 C 0.2956(4) 0.3798(3) 0.3258(3)
O2 O 0.3308(2) 0.1177(2) 0.3509(2)
C7 C 0.4994(4) 0.1176(4) 0.2939(5)
H1 H 0.1787 0.1779 0.1520
H2 H 0.3257 0.0129 0.0521
H3 H 0.1259 0.1082 0.0429
H4 H 0.0977 -0.2314 0.2564
H5 H 0.0663 -0.1331 0.1154
H6 H 0.2721 -0.2218 0.1033
H7 H -0.0946 0.1866 0.3957
H8 H -0.1433 0.0153 0.4180
H9 H -0.1700 0.1302 0.2624
H10 H 0.3838 0.6682 0.3778
H11 H 0.5009 0.8029 0.2949
H12 H 0.5379 0.6622 0.4543
H13 H 0.6529 0.6545 0.0516
H14 H 0.7589 0.4585 0.0344
H15 H 0.5331 0.5392 0.1160
H16 H 0.9516 0.4535 0.1408
H17 H 0.8556 0.5271 0.3179
H18 H 0.0851 0.2853 0.4249
H19 H 0.2657 0.4784 0.3820
H20 H 0.8633 0.6378 0.1596
H21 H 0.1971 0.2701 0.5217
H22 H 0.2756 0.4002 0.2212
H23 H 0.5704 0.0526 0.2177
H24 H 0.5995 0.0658 0.3217
H8A H 0.1433 -0.0153 0.5820
Li1A Li -0.2538(6) 0.0677(6) 0.6286(5)
Li2_2 Li -0.3505(6) 0.3301(5) 0.3428(5)
H9_2 H 0.8300 0.1302 0.2624
H12A H 0.4621 0.3378 0.5457
H11_2 H 0.5009 -0.1971 0.2949
Li2A Li 0.3505(6) 0.6699(5) 0.6572(5)
Li1_2 Li 0.2538(6) 0.9323(6) 0.3714(5)
loop_
_geom_bond_atom_site_label_1
_geom_bond_atom_site_label_2
_geom_bond_site_symmetry_1
_geom_bond_site_symmetry_2
Li1 N1 1_555 1_555
Li2 N2 1_555 1_555
B1 N1 1_555 1_555
N1 C1 1_555 1_555
C1 H1 1_555 1_555
C2 N1 1_555 1_555
B2 N2 1_555 1_555
N2 C3 1_555 1_555
C3 H13 1_555 1_555
C4 N2 1_555 1_555
O1 Li2 1_555 1_555
C5 C6 1_555 1_555
C6 O1 1_555 1_555
O2 Li1 1_555 1_555
C7 O1 1_555 1_555
H2 C1 1_555 1_555
H3 C1 1_555 1_555
H4 C2 1_555 1_555
H5 C2 1_555 1_555
H6 C2 1_555 1_555
H7 B1 1_555 1_555
H8 B1 1_555 1_555
H9 B1 1_555 1_555
H10 B2 1_555 1_555
H11 B2 1_555 1_555
H12 B2 1_555 1_555
H14 C3 1_555 1_555
H15 C3 1_555 1_555
H16 C4 1_555 1_555
H17 C4 1_555 1_555
H18 C5 1_555 1_555
H19 C6 1_555 1_555
H20 C4 1_555 1_555
H21 C5 1_555 1_555
H22 C6 1_555 1_555
H23 C7 1_555 1_555
H24 C7 1_555 1_555
H8A Li1 1_555 1_555
Li1A H8 1_555 1_555
Li2_2 H9 1_555 1_555
H9_2 Li2 1_555 1_555
H12A Li2 1_555 1_555
H11_2 Li1 1_555 1_555
Li2A H12 1_555 1_555
Li1_2 H11 1_555 1_555
C5 O2 1_555 1_555
O2 C7 1_555 1_555

#END
