
#######################################################################
#
#                 Cambridge Crystallographic Data Centre
#                                CCDC 
#
#######################################################################
#
# If this CIF has been generated from an entry in the Cambridge 
# Structural Database, then it will include bibliographic, chemical, 
# crystal, experimental, refinement or atomic coordinate data resulting 
# from the CCDC's data processing and validation procedures.
#
#######################################################################

data_TARQIO
_symmetry_cell_setting           monoclinic
_symmetry_space_group_name_H-M   'C 2/c'
_symmetry_Int_Tables_number      15
_space_group_name_Hall           '-C 2yn'
loop_
_symmetry_equiv_pos_site_id
_symmetry_equiv_pos_as_xyz
1 x,y,z
2 -x,y,1/2-z
3 1/2+x,1/2+y,z
4 1/2-x,1/2+y,1/2-z
5 -x,-y,-z
6 x,-y,1/2+z
7 1/2-x,1/2-y,-z
8 1/2+x,1/2-y,1/2+z
_cell_length_a                   21.6736(11)
_cell_length_b                   9.4185(5)
_cell_length_c                   17.5251(9)
_cell_angle_alpha                90
_cell_angle_beta                 109.379(1)
_cell_angle_gamma                90
_cell_volume                     3374.77
loop_
_atom_site_label
_atom_site_type_symbol
_atom_site_fract_x
_atom_site_fract_y
_atom_site_fract_z
La1 La 0.986054(17) 0.31571(4) 0.426334(19)
Ag1 Ag 0.82607(3) -0.06855(8) 0.35733(4)
O1 O 0.9620(2) 0.2797(5) 0.5565(3)
O2 O 0.9821(2) 0.4730(5) 0.6345(3)
O3 O 0.9289(2) 0.2683(4) 0.2750(2)
O4 O 0.9359(2) 0.0716(4) 0.4202(2)
N1 N 0.8603(3) 0.1636(6) 0.7654(3)
C1 C 0.9593(3) 0.3504(7) 0.6152(4)
C2 C 0.9243(3) 0.2846(6) 0.6679(3)
C3 C 0.9179(4) 0.1390(7) 0.6720(4)
H1 H 0.9349 0.0792 0.6416
C4 C 0.8863(4) 0.0841(8) 0.7215(5)
H2 H 0.8829 -0.0141 0.7243
C5 C 0.8970(3) 0.3680(7) 0.7122(4)
H3 H 0.8999 0.4664 0.7106
C6 C 0.8650(4) 0.3036(8) 0.7596(4)
H4 H 0.8459 0.3611 0.7886
C7 C 0.9626(3) 0.2517(6) 0.2295(4)
C8 C 0.9638(3) -0.0155(6) 0.4749(4)
N2 N 0.7320(3) 0.5469(7) 0.5636(3)
C9 C 0.7836(3) 0.6320(8) 0.5746(4)
H5 H 0.7908 0.7037 0.6130
C10 C 0.7225(4) 0.4498(9) 0.5066(5)
H6 H 0.6854 0.3931 0.4951
C11 C 0.8267(3) 0.6195(8) 0.5322(4)
H7 H 0.8608 0.6837 0.5404
C12 C 0.7641(4) 0.4274(9) 0.4632(5)
H8 H 0.7554 0.3561 0.4244
C13 C 0.8184(3) 0.5110(7) 0.4778(4)
O5 O 0.9417(2) 0.2309(5) 0.1550(2)
O6 O 0.9387(2) -0.1246(4) 0.4923(3)
C14 C 0.8709(3) 0.4776(7) 0.4412(4)
O7 O 0.8627(2) 0.3779(5) 0.3926(3)
O8 O 0.9242(2) 0.5470(4) 0.4659(2)
La1D La 1.013946(17) 0.68429(4) 0.573666(19)
La1A La 1.013946(17) 0.31571(4) 0.073666(19)
La1D_2 La 1.013946(17) -0.31571(4) 0.573666(19)
Ag1D Ag 1.17393(3) 0.06855(8) 0.64267(4)
Ag1E Ag 0.82607(3) 0.06855(8) 0.85733(4)
Ag1F Ag 0.67393(3) 0.56855(8) 0.64267(4)
Ag1A Ag 1.17393(3) 0.93145(8) 0.14267(4)
Ag1B Ag 1.32607(3) 0.43145(8) 0.35733(4)
O1D O 1.0380(2) 0.7203(5) 0.4435(3)
O2D O 1.0179(2) 0.5270(5) 0.3655(3)
O3A O 1.0711(2) 0.2683(4) 0.2250(2)
O3D O 1.0711(2) 0.7317(4) 0.7250(2)
O4D O 1.0641(2) -0.0716(4) 0.5798(2)
O4D_2 O 1.0641(2) 0.9284(4) 0.5798(2)
N1D N 1.1397(3) 0.8364(6) 0.2346(3)
N1E N 0.8603(3) -0.1636(6) 0.2654(3)
N1A N 1.1397(3) 0.1636(6) 0.7346(3)
C1D C 1.0407(3) 0.6496(7) 0.3848(4)
C2D C 1.0757(3) 0.7154(6) 0.3321(3)
C3D C 1.0821(4) 0.8610(7) 0.3280(4)
H1D H 1.0651 0.9208 0.3584
C4D C 1.1137(4) 0.9159(8) 0.2785(5)
H2D H 1.1171 1.0141 0.2757
C5D C 1.1030(3) 0.6320(7) 0.2878(4)
H3D H 1.1001 0.5336 0.2894
C6D C 1.1350(4) 0.6964(8) 0.2404(4)
H4D H 1.1541 0.6389 0.2114
C7A C 1.0374(3) 0.2517(6) 0.2705(4)
C8D C 1.0362(3) 0.0155(6) 0.5251(4)
N2D N 1.2680(3) 0.4531(7) 0.4364(3)
N2F N 0.7680(3) -0.0469(7) 0.4364(3)
N2B N 1.2320(3) 0.0469(7) 0.5636(3)
C9D C 1.2164(3) 0.3680(8) 0.4254(4)
H5D H 1.2092 0.2963 0.3870
C10D C 1.2775(4) 0.5502(9) 0.4934(5)
H6D H 1.3146 0.6069 0.5049
C11D C 1.1733(3) 0.3805(8) 0.4678(4)
H7D H 1.1392 0.3163 0.4596
C12D C 1.2359(4) 0.5726(9) 0.5368(5)
H8D H 1.2446 0.6439 0.5756
C13D C 1.1816(3) 0.4890(7) 0.5222(4)
O5A O 1.0583(2) 0.2309(5) 0.3450(2)
O5E O 0.9417(2) 0.7691(5) 0.6550(2)
O6D O 1.0613(2) 0.1246(4) 0.5077(3)
O6_2 O 0.9387(2) 0.8754(4) 0.4923(3)
C14D C 1.1291(3) 0.5224(7) 0.5588(4)
O7D O 1.1373(2) 0.6221(5) 0.6074(3)
O8D O 1.0758(2) 0.4530(4) 0.5341(2)
O9 O 0.7962(3) 0.1933(7) 0.2574(4)
H9 H 0.7949 0.2412 0.2422
H10 H 0.7762 0.2241 0.2663
loop_
_geom_bond_atom_site_label_1
_geom_bond_atom_site_label_2
_geom_bond_site_symmetry_1
_geom_bond_site_symmetry_2
La1 O1 1_555 1_555
Ag1 O4 1_555 1_555
O1 C1 1_555 1_555
O2 C1 1_555 1_555
O3 La1 1_555 1_555
O4 La1 1_555 1_555
N1 C4 1_555 1_555
C1 C2 1_555 1_555
C2 C3 1_555 1_555
C3 H1 1_555 1_555
C4 C3 1_555 1_555
H2 C4 1_555 1_555
C5 C2 1_555 1_555
H3 C5 1_555 1_555
C6 N1 1_555 1_555
H4 C6 1_555 1_555
C7 O3 1_555 1_555
C8 O4 1_555 1_555
N2 C9 1_555 1_555
C9 H5 1_555 1_555
C10 N2 1_555 1_555
H6 C10 1_555 1_555
C11 C9 1_555 1_555
H7 C11 1_555 1_555
C12 C10 1_555 1_555
H8 C12 1_555 1_555
C13 C11 1_555 1_555
O5 C7 1_555 1_555
O6 C8 1_555 1_555
C14 C13 1_555 1_555
O7 La1 1_555 1_555
O8 La1 1_555 1_555
O9 H9 1_555 1_555
H10 O9 1_555 1_555
La1D O2 1_555 1_555
La1A O5 1_555 1_555
La1D_2 O6 1_555 1_555
Ag1D O4D 1_555 1_555
Ag1E N1 1_555 1_555
Ag1F N2 1_555 1_555
Ag1A N1D 1_555 1_555
Ag1B N2D 1_555 1_555
O1D La1D 1_555 1_555
O2D La1 1_555 1_555
O3A La1A 1_555 1_555
O3D La1D 1_555 1_555
O4D La1D_2 1_555 1_555
O4D_2 La1D 1_555 1_555
N1D C4D 1_555 1_555
N1E Ag1 1_555 1_555
N1A Ag1D 1_555 1_555
C1D O1D 1_555 1_555
C2D C1D 1_555 1_555
C3D C2D 1_555 1_555
H1D C3D 1_555 1_555
C4D C3D 1_555 1_555
H2D C4D 1_555 1_555
C5D C2D 1_555 1_555
H3D C5D 1_555 1_555
C6D N1D 1_555 1_555
H4D C6D 1_555 1_555
C7A C7 1_555 1_555
C8D C8 1_555 1_555
N2D C9D 1_555 1_555
N2F Ag1 1_555 1_555
N2B Ag1D 1_555 1_555
C9D H5D 1_555 1_555
C10D N2D 1_555 1_555
H6D C10D 1_555 1_555
C11D C9D 1_555 1_555
H7D C11D 1_555 1_555
C12D C10D 1_555 1_555
H8D C12D 1_555 1_555
C13D C11D 1_555 1_555
O5A La1 1_555 1_555
O5E La1D 1_555 1_555
O6D La1 1_555 1_555
O6_2 La1D 1_555 1_555
C14D C13D 1_555 1_555
O7D La1D 1_555 1_555
O8D La1 1_555 1_555
C5 C6 1_555 1_555
C12 C13 1_555 1_555
C14 O7 1_555 1_555
C14 O8 1_555 1_555
O8 La1D 1_555 1_555
La1D O8D 1_555 1_555
O2D C1D 1_555 1_555
O3A C7A 1_555 1_555
O4D C8D 1_555 1_555
C5D C6D 1_555 1_555
C7A O5A 1_555 1_555
C8D O6D 1_555 1_555
C12D C13D 1_555 1_555
C14D O7D 1_555 1_555
C14D O8D 1_555 1_555

#END
