
#######################################################################
#
#                 Cambridge Crystallographic Data Centre
#                                CCDC 
#
#######################################################################
#
# If this CIF has been generated from an entry in the Cambridge 
# Structural Database, then it will include bibliographic, chemical, 
# crystal, experimental, refinement or atomic coordinate data resulting 
# from the CCDC's data processing and validation procedures.
#
#######################################################################

data_TARREL
_symmetry_cell_setting           monoclinic
_symmetry_space_group_name_H-M   'C 2/c'
_symmetry_Int_Tables_number      15
_space_group_name_Hall           '-C 2yn'
loop_
_symmetry_equiv_pos_site_id
_symmetry_equiv_pos_as_xyz
1 x,y,z
2 -x,y,1/2-z
3 1/2+x,1/2+y,z
4 1/2-x,1/2+y,1/2-z
5 -x,-y,-z
6 x,-y,1/2+z
7 1/2-x,1/2-y,-z
8 1/2+x,1/2-y,1/2+z
_cell_length_a                   21.814(2)
_cell_length_b                   9.3193(8)
_cell_length_c                   17.3133(16)
_cell_angle_alpha                90
_cell_angle_beta                 108.900(1)
_cell_angle_gamma                90
_cell_volume                     3329.88
loop_
_atom_site_label
_atom_site_type_symbol
_atom_site_fract_x
_atom_site_fract_y
_atom_site_fract_z
Pr1 Pr 0.013330(12) -0.31499(3) 0.073500(15)
Ag1 Ag -0.17288(2) -0.06661(6) -0.14002(3)
O1 O 0.03654(17) -0.2801(3) -0.0562(2)
N1 N 0.2670(2) -0.5466(5) -0.0616(3)
C1 C 0.0391(2) -0.3526(5) -0.1158(3)
C2 C 0.0750(2) -0.2850(5) -0.1679(3)
C3 C 0.1028(3) -0.3689(6) -0.2133(3)
H1 H 0.0995 -0.4683 -0.2125
C4 C 0.0814(3) -0.1387(5) -0.1723(4)
H2 H 0.0640 -0.0778 -0.1422
C5 C 0.1726(3) -0.6183(6) -0.0324(4)
H3 H 0.1383 -0.6825 -0.0421
C6 C 0.2339(3) -0.4286(8) 0.0398(4)
H4 H 0.2421 -0.3588 0.0803
C7 C 0.2165(3) -0.6323(7) -0.0740(4)
H5 H 0.2104 -0.7053 -0.1124
C8 C 0.2769(3) -0.4493(8) -0.0032(4)
H6 H 0.3140 -0.3927 0.0094
N2 N 0.1400(2) -0.1628(5) -0.2658(3)
C9 C 0.1353(3) -0.3045(6) -0.2592(3)
H7 H 0.1552 -0.3628 -0.2876
C10 C 0.1135(3) -0.0838(6) -0.2215(4)
H8 H 0.1170 0.0154 -0.2240
C11 C 0.1261(2) -0.4780(5) 0.0571(3)
C12 C 0.1794(2) -0.5113(5) 0.0224(3)
O2 O 0.01644(16) -0.4752(3) -0.1354(2)
O3 O 0.07405(14) -0.5487(3) 0.03225(19)
O4 O 0.13321(16) -0.3764(4) 0.1064(2)
O5 O -0.05787(15) -0.2321(3) 0.15447(19)
C13 C -0.0364(2) -0.2510(5) 0.2303(3)
O6 O -0.07005(15) -0.2683(3) 0.27666(19)
O7 O -0.06059(15) -0.1262(3) -0.0072(2)
C14 C -0.0356(2) -0.0156(5) -0.0248(3)
O9 O -0.06326(15) 0.0736(3) -0.07977(19)
Pr1D Pr -0.013330(12) -0.68501(3) -0.073500(15)
Pr1A Pr -0.013330(12) -0.31499(3) 0.426500(15)
Pr1D_2 Pr -0.013330(12) 0.31499(3) -0.073500(15)
Ag1F Ag -0.32712(2) -0.43339(6) 0.14002(3)
Ag1A Ag 0.17288(2) -0.06661(6) -0.35998(3)
Ag1B Ag 0.32712(2) -0.56661(6) -0.14002(3)
Ag1D Ag 0.17288(2) 0.06661(6) 0.14002(3)
Ag1E Ag -0.17288(2) -0.93339(6) 0.35998(3)
O1D O -0.03654(17) -0.7199(3) 0.0562(2)
N1D N -0.2670(2) -0.4534(5) 0.0616(3)
N1B N -0.2330(2) -0.0466(5) -0.0616(3)
N1F N 0.2330(2) 0.0466(5) 0.0616(3)
C1D C -0.0391(2) -0.6474(5) 0.1158(3)
C2D C -0.0750(2) -0.7150(5) 0.1679(3)
C3D C -0.1028(3) -0.6311(6) 0.2133(3)
H1D H -0.0995 -0.5317 0.2125
C4D C -0.0814(3) -0.8613(5) 0.1723(4)
H2D H -0.0640 -0.9222 0.1422
C5D C -0.1726(3) -0.3817(6) 0.0324(4)
H3D H -0.1383 -0.3175 0.0421
C6D C -0.2339(3) -0.5714(8) -0.0398(4)
H4D H -0.2421 -0.6412 -0.0803
C7D C -0.2165(3) -0.3677(7) 0.0740(4)
H5D H -0.2104 -0.2947 0.1124
C8D C -0.2769(3) -0.5507(8) 0.0032(4)
H6D H -0.3140 -0.6073 -0.0094
N2D N -0.1400(2) -0.8372(5) 0.2658(3)
N2A N -0.1400(2) -0.1628(5) -0.2342(3)
N2E N 0.1400(2) 0.1628(5) 0.2342(3)
C9D C -0.1353(3) -0.6955(6) 0.2592(3)
H7D H -0.1552 -0.6372 0.2876
C10D C -0.1135(3) -0.9162(6) 0.2215(4)
H8D H -0.1170 -1.0154 0.2240
C11D C -0.1261(2) -0.5220(5) -0.0571(3)
C12D C -0.1794(2) -0.4887(5) -0.0224(3)
O2D O -0.01644(16) -0.5248(3) 0.1354(2)
O3D O -0.07405(14) -0.4513(3) -0.03225(19)
O4D O -0.13321(16) -0.6236(4) -0.1064(2)
O5A O 0.05787(15) -0.2321(3) 0.34553(19)
O5D O 0.05787(15) -0.7679(3) -0.15447(19)
C13A C 0.0364(2) -0.2510(5) 0.2697(3)
O6A O 0.07005(15) -0.2683(3) 0.22334(19)
O6E O -0.07005(15) -0.7317(3) -0.22334(19)
O7D O 0.06059(15) 0.1262(3) 0.0072(2)
O7D_2 O 0.06059(15) -0.8738(3) 0.0072(2)
C14D C 0.0356(2) 0.0156(5) 0.0248(3)
O9D O 0.06326(15) -0.0736(3) 0.07977(19)
O9_2 O -0.06326(15) -0.9264(3) -0.07977(19)
O8 O 0.7963(2) -0.1965(6) -0.7432(3)
H9 H 0.826(6) -0.249(13) -0.748(8)
H10 H 0.788(4) -0.225(9) -0.702(3)
loop_
_geom_bond_atom_site_label_1
_geom_bond_atom_site_label_2
_geom_bond_site_symmetry_1
_geom_bond_site_symmetry_2
Pr1 O1 1_555 1_555
Ag1 O9 1_555 1_555
O1 C1 1_555 1_555
N1 C7 1_555 1_555
C1 C2 1_555 1_555
C2 C3 1_555 1_555
C3 H1 1_555 1_555
C4 C2 1_555 1_555
H2 C4 1_555 1_555
C5 H3 1_555 1_555
C6 H4 1_555 1_555
C7 C5 1_555 1_555
H5 C7 1_555 1_555
C8 N1 1_555 1_555
H6 C8 1_555 1_555
N2 C9 1_555 1_555
C9 C3 1_555 1_555
H7 C9 1_555 1_555
C10 C4 1_555 1_555
H8 C10 1_555 1_555
C11 C12 1_555 1_555
C12 C5 1_555 1_555
O2 C1 1_555 1_555
O3 Pr1 1_555 1_555
O4 Pr1 1_555 1_555
O5 Pr1 1_555 1_555
C13 O5 1_555 1_555
O6 C13 1_555 1_555
O7 Pr1 1_555 1_555
O8 H9 1_555 1_555
C14 O7 1_555 1_555
O9 C14 1_555 1_555
H10 O8 1_555 1_555
Pr1D O2 1_555 1_555
Pr1A O6 1_555 1_555
Pr1D_2 O9 1_555 1_555
Ag1F N1D 1_555 1_555
Ag1A N2 1_555 1_555
Ag1B N1 1_555 1_555
Ag1D N1F 1_555 1_555
Ag1E N2D 1_555 1_555
O1D Pr1D 1_555 1_555
N1D C7D 1_555 1_555
N1B Ag1 1_555 1_555
C1D O1D 1_555 1_555
C2D C1D 1_555 1_555
C3D C2D 1_555 1_555
H1D C3D 1_555 1_555
C4D C2D 1_555 1_555
H2D C4D 1_555 1_555
C5D H3D 1_555 1_555
C6D H4D 1_555 1_555
C7D C5D 1_555 1_555
H5D C7D 1_555 1_555
C8D N1D 1_555 1_555
H6D C8D 1_555 1_555
N2D C9D 1_555 1_555
N2A Ag1 1_555 1_555
N2E Ag1D 1_555 1_555
C9D C3D 1_555 1_555
H7D C9D 1_555 1_555
C10D C4D 1_555 1_555
H8D C10D 1_555 1_555
C11D C12D 1_555 1_555
C12D C5D 1_555 1_555
O2D Pr1 1_555 1_555
O3D Pr1 1_555 1_555
O4D Pr1D 1_555 1_555
O5A Pr1A 1_555 1_555
O5D Pr1D 1_555 1_555
C13A C13 1_555 1_555
O6A Pr1 1_555 1_555
O6E Pr1D 1_555 1_555
O7D Pr1D_2 1_555 1_555
O7D_2 Pr1D 1_555 1_555
C14D C14 1_555 1_555
O9D Pr1 1_555 1_555
O9_2 Pr1D 1_555 1_555
C6 C8 1_555 1_555
C6 C12 1_555 1_555
N2 C10 1_555 1_555
C11 O3 1_555 1_555
C11 O4 1_555 1_555
O3 Pr1D 1_555 1_555
Pr1D O3D 1_555 1_555
Ag1D O9D 1_555 1_555
C1D O2D 1_555 1_555
C6D C8D 1_555 1_555
C6D C12D 1_555 1_555
N2D C10D 1_555 1_555
C11D O3D 1_555 1_555
C11D O4D 1_555 1_555
O5A C13A 1_555 1_555
C13A O6A 1_555 1_555
O7D C14D 1_555 1_555
C14D O9D 1_555 1_555

#END
