
#######################################################################
#
#                 Cambridge Crystallographic Data Centre
#                                CCDC 
#
#######################################################################
#
# If this CIF has been generated from an entry in the Cambridge 
# Structural Database, then it will include bibliographic, chemical, 
# crystal, experimental, refinement or atomic coordinate data resulting 
# from the CCDC's data processing and validation procedures.
#
#######################################################################

data_TARTUD
_symmetry_cell_setting           monoclinic
_symmetry_space_group_name_H-M   'C 2/c'
_symmetry_Int_Tables_number      15
_space_group_name_Hall           '-C 2yn'
loop_
_symmetry_equiv_pos_site_id
_symmetry_equiv_pos_as_xyz
1 x,y,z
2 -x,y,1/2-z
3 1/2+x,1/2+y,z
4 1/2-x,1/2+y,1/2-z
5 -x,-y,-z
6 x,-y,1/2+z
7 1/2-x,1/2-y,-z
8 1/2+x,1/2-y,1/2+z
_cell_length_a                   18.886(4)
_cell_length_b                   7.8133(16)
_cell_length_c                   14.793(3)
_cell_angle_alpha                90
_cell_angle_beta                 113.604(2)
_cell_angle_gamma                90
_cell_volume                     2000.25
loop_
_atom_site_label
_atom_site_type_symbol
_atom_site_fract_x
_atom_site_fract_y
_atom_site_fract_z
Eu1 Eu 0.253987(8) 0.36653(2) 0.383820(10)
O1 O 0.11486(13) 0.4501(4) 0.35243(17)
O2 O 0.19188(13) 0.3799(3) 0.50359(16)
O3 O 0.34900(13) 0.5430(3) 0.35081(17)
H1 H 0.3493 0.5325 0.2958
H2 H 0.3907 0.4988 0.3843
O4 O 0.23745(16) 0.6880(4) 0.4017(2)
H3 H 0.2301 0.7262 0.4488
H4 H 0.2165 0.7472 0.3523
O6 O 0.17747(13) 0.3090(3) 0.68295(17)
O7 O 0.18483(13) 0.5909(3) 0.70782(16)
O8 O 0.17058(13) 0.1145(3) 0.33521(17)
O9 O 0.14712(14) 0.0360(4) 0.46572(17)
C1 C 0.06186(18) 0.4637(5) 0.4741(2)
C2 C 0.07482(18) 0.4822(4) 0.5739(2)
C3 C -0.01269(18) 0.4810(5) 0.4019(2)
H5 H -0.0210 0.4676 0.3359
C4 C 0.12574(18) 0.4291(5) 0.4402(2)
C5 C 0.15264(17) 0.4597(5) 0.6597(2)
C6 C 0.13427(18) 0.0292(5) 0.3755(2)
C7 C 0.06959(19) -0.0860(5) 0.3103(2)
H6 H 0.0556 -0.1660 0.3505
H7 H 0.0863 -0.1510 0.2665
C8 C 0.0000 0.0250(7) 0.2500
H8 H -0.0130 0.0984 0.2943
Eu1D Eu -0.253987(8) 0.63347(2) 0.616180(10)
Eu1F Eu 0.246013(8) 0.13347(2) 0.616180(10)
Eu1E Eu 0.253987(8) 0.63347(2) 0.883820(10)
Eu1B Eu -0.246013(8) 0.86653(2) 0.383820(10)
Eu1A Eu -0.253987(8) 0.36653(2) 0.116180(10)
Eu1G Eu -0.246013(8) 0.13347(2) -0.116180(10)
O1D O -0.11486(13) 0.5499(4) 0.64757(17)
O2D O -0.19188(13) 0.6201(3) 0.49641(16)
O2F O 0.30812(13) 0.1201(3) 0.49641(16)
O2B O -0.30812(13) 0.8799(3) 0.50359(16)
O3D O -0.34900(13) 0.4570(3) 0.64919(17)
H1D H -0.3493 0.4675 0.7042
H2D H -0.3907 0.5012 0.6157
O4D O -0.23745(16) 0.3120(4) 0.5983(2)
H3D H -0.2301 0.2738 0.5512
H4D H -0.2165 0.2528 0.6477
O6D O -0.17747(13) 0.6910(3) 0.31705(17)
O6F O 0.32253(13) 0.1910(3) 0.31705(17)
O6B O -0.32253(13) 0.8090(3) 0.68295(17)
O7D O -0.18483(13) 0.4091(3) 0.29218(16)
O7E O 0.18483(13) 0.4091(3) 0.20782(16)
O7A O -0.18483(13) 0.5909(3) 0.79218(16)
O8A O -0.17058(13) 0.1145(3) 0.16479(17)
O8D O -0.17058(13) 0.8855(3) 0.66479(17)
O9A O -0.14712(14) 0.0360(4) 0.03428(17)
O9F O 0.35288(14) 0.4640(4) 0.53428(17)
O9B O -0.35288(14) 0.5360(4) 0.46572(17)
C1D C -0.06186(18) 0.5363(5) 0.5259(2)
C2D C -0.07482(18) 0.5178(4) 0.4261(2)
C3D C 0.01269(18) 0.5190(5) 0.5981(2)
H5D H 0.0210 0.5324 0.6641
C4D C -0.12574(18) 0.5709(5) 0.5598(2)
C5D C -0.15264(17) 0.5403(5) 0.3403(2)
C6A C -0.13427(18) 0.0292(5) 0.1245(2)
C7A C -0.06959(19) -0.0860(5) 0.1897(2)
H6A H -0.0556 -0.1660 0.1495
H7A H -0.0863 -0.1510 0.2335
H8A H 0.0130 0.0984 0.2057
O5 O 0.5000 0.5000 0.5000
H9? H 0.2716 0.7189 0.3843
H10? H 0.2014 0.6656 0.3493
loop_
_geom_bond_atom_site_label_1
_geom_bond_atom_site_label_2
_geom_bond_site_symmetry_1
_geom_bond_site_symmetry_2
Eu1 O1 1_555 1_555
O1 C4 1_555 1_555
O2 Eu1 1_555 1_555
O3 Eu1 1_555 1_555
H1 O3 1_555 1_555
H2 O3 1_555 1_555
O4 Eu1 1_555 1_555
H3 O4 1_555 1_555
H4 O4 1_555 1_555
O6 C5 1_555 1_555
O7 C5 1_555 1_555
O8 Eu1 1_555 1_555
O9 C6 1_555 1_555
C1 C2 1_555 1_555
C2 C5 1_555 1_555
C3 C1 1_555 1_555
H5 C3 1_555 1_555
C4 O2 1_555 1_555
C6 O8 1_555 1_555
C7 C6 1_555 1_555
H6 C7 1_555 1_555
H7 C7 1_555 1_555
C8 C7 1_555 1_555
H8 C8 1_555 1_555
Eu1D O1D 1_555 1_555
Eu1F O2 1_555 1_555
Eu1E O7 1_555 1_555
Eu1B O2D 1_555 1_555
Eu1A O7D 1_555 1_555
Eu1G O9A 1_555 1_555
O1D C4D 1_555 1_555
O2D Eu1D 1_555 1_555
O2F Eu1 1_555 1_555
O2B Eu1D 1_555 1_555
O3D Eu1D 1_555 1_555
H1D O3D 1_555 1_555
H2D O3D 1_555 1_555
O4D Eu1D 1_555 1_555
H3D O4D 1_555 1_555
H4D O4D 1_555 1_555
O6D Eu1B 1_555 1_555
O6F Eu1 1_555 1_555
O6B Eu1D 1_555 1_555
O7D C5D 1_555 1_555
O7E Eu1 1_555 1_555
O7A Eu1D 1_555 1_555
O8A Eu1A 1_555 1_555
O8D Eu1D 1_555 1_555
O9A C6A 1_555 1_555
O9F Eu1 1_555 1_555
O9B Eu1D 1_555 1_555
C1D C2D 1_555 1_555
C2D C3 1_555 1_555
C3D C2 1_555 1_555
H5D C3D 1_555 1_555
C4D O2D 1_555 1_555
C5D O6D 1_555 1_555
C6A O8A 1_555 1_555
C7A C8 1_555 1_555
H6A C7A 1_555 1_555
H7A C7A 1_555 1_555
H8A C8 1_555 1_555
O6 Eu1F 1_555 1_555
O9 Eu1F 1_555 1_555
C1 C4 1_555 1_555
Eu1F O2F 1_555 1_555
Eu1B O2B 1_555 1_555
C1D C3D 1_555 1_555
C1D C4D 1_555 1_555
C2D C5D 1_555 1_555
C6A C7A 1_555 1_555

#END
