
#######################################################################
#
#                 Cambridge Crystallographic Data Centre
#                                CCDC 
#
#######################################################################
#
# If this CIF has been generated from an entry in the Cambridge 
# Structural Database, then it will include bibliographic, chemical, 
# crystal, experimental, refinement or atomic coordinate data resulting 
# from the CCDC's data processing and validation procedures.
#
#######################################################################

data_TARTAJ
_symmetry_cell_setting           monoclinic
_symmetry_space_group_name_H-M   'P 21/n'
_symmetry_Int_Tables_number      14
_space_group_name_Hall           '-P 2yn'
loop_
_symmetry_equiv_pos_site_id
_symmetry_equiv_pos_as_xyz
1 x,y,z
2 1/2-x,1/2+y,1/2-z
3 -x,-y,-z
4 1/2+x,1/2-y,1/2+z
_cell_length_a                   7.774(1)
_cell_length_b                   7.2219(10)
_cell_length_c                   17.336(2)
_cell_angle_alpha                90
_cell_angle_beta                 91.540(2)
_cell_angle_gamma                90
_cell_volume                     972.944
loop_
_atom_site_label
_atom_site_type_symbol
_atom_site_fract_x
_atom_site_fract_y
_atom_site_fract_z
Tb1 Tb 0.85033(2) 0.51185(2) 0.244809(9)
C1 C 0.9074(5) 0.2449(5) 0.12401(19)
C2 C 0.9513(5) 0.1136(5) 0.06117(19)
C3 C 0.9705(5) -0.0770(5) 0.0728(2)
C4 C 0.9814(5) 0.1871(5) -0.01144(19)
H1 H 0.9688 0.3139 -0.0191
C5 C 0.9418(5) -0.1806(5) 0.14657(19)
C6 C 0.4913(5) 0.3490(5) 0.1455(2)
C7 C 0.3614(5) 0.4102(6) 0.0843(2)
H2 H 0.2655 0.4693 0.1091
H3 H 0.3175 0.3019 0.0572
C8 C 0.4356(6) 0.5449(7) 0.0255(3)
H4 H 0.3422 0.5949 -0.0064
H5 H 0.4902 0.6473 0.0528
H6 H 1.175(8) 0.335(8) 0.308(3)
H7 H 1.056(8) 0.219(8) 0.295(3)
O1 O 0.9222(4) 0.4149(3) 0.11433(14)
O2 O 1.0853(5) 0.3234(5) 0.2889(2)
O3 O 0.8583(3) 0.1826(3) 0.18905(13)
O4 O 1.0639(3) -0.2646(4) 0.17804(14)
O5 O 0.7880(3) -0.1982(3) 0.17149(13)
O6 O 0.5775(4) 0.4724(3) 0.18107(15)
O7 O 0.5065(4) 0.1785(4) 0.15874(15)
Tb1B Tb 1.14967(2) -0.51185(2) -0.244809(9)
Tb1A Tb 0.64967(2) 0.01185(2) 0.255191(9)
Tb1_2 Tb 0.85033(2) -0.48815(2) 0.244809(9)
Tb1C Tb 1.35033(2) -0.01185(2) -0.255191(9)
Tb1B_2 Tb 1.14967(2) 0.48815(2) -0.244809(9)
Tb1C_2 Tb 0.35033(2) 0.98815(2) -0.255191(9)
Tb1B_3 Tb 0.14967(2) 0.48815(2) -0.244809(9)
C1B C 1.0926(5) -0.2449(5) -0.12401(19)
C2B C 1.0487(5) -0.1136(5) -0.06117(19)
C3B C 1.0295(5) 0.0770(5) -0.0728(2)
C4B C 1.0186(5) -0.1871(5) 0.01144(19)
H1B H 1.0312 -0.3139 0.0191
C5B C 1.0582(5) 0.1806(5) -0.14657(19)
C6B C 0.5087(5) 0.6510(5) -0.1455(2)
C7B C 0.6386(5) 0.5898(6) -0.0843(2)
H2B H 0.7345 0.5307 -0.1091
H3B H 0.6825 0.6981 -0.0572
C8B C 0.5644(6) 0.4551(7) -0.0255(3)
H4B H 0.6578 0.4051 0.0064
H5B H 0.5098 0.3527 -0.0528
H6B H 0.825(8) -0.335(8) -0.308(3)
H7B H 0.944(8) -0.219(8) -0.295(3)
O1B O 1.0778(4) -0.4149(3) -0.11433(14)
O2B O 0.9147(5) -0.3234(5) -0.2889(2)
O3B O 1.1417(3) -0.1826(3) -0.18905(13)
O3A O 0.6417(3) 0.6826(3) 0.31095(13)
O3C O 1.3583(3) -0.6826(3) -0.31095(13)
O4B O 0.9361(3) 0.2646(4) -0.17804(14)
O4_2 O 1.0639(3) 0.7354(4) 0.17804(14)
O4B_2 O 0.9361(3) -0.7354(4) -0.17804(14)
O5B O 1.2120(3) 0.1982(3) -0.17149(13)
O5_2 O 0.7880(3) 0.8018(3) 0.17149(13)
O5A O 0.7120(3) 0.3018(3) 0.32851(13)
O5B_2 O 1.2120(3) -0.8018(3) -0.17149(13)
O5C O 1.2880(3) -0.3018(3) -0.32851(13)
O6B O 0.4225(4) 0.5276(3) -0.18107(15)
O6B_2 O 1.4225(4) -0.4724(3) -0.18107(15)
O7B O 0.4935(4) 0.8215(4) -0.15874(15)
O7A O 0.9935(4) 0.6785(4) 0.34126(15)
O7C O 1.0065(4) -0.6785(4) -0.34126(15)
loop_
_geom_bond_atom_site_label_1
_geom_bond_atom_site_label_2
_geom_bond_site_symmetry_1
_geom_bond_site_symmetry_2
Tb1 O1 1_555 1_555
C1 C2 1_555 1_555
C2 C3 1_555 1_555
C3 C5 1_555 1_555
C4 C2 1_555 1_555
H1 C4 1_555 1_555
C5 O4 1_555 1_555
C6 C7 1_555 1_555
C7 H2 1_555 1_555
H3 C7 1_555 1_555
C8 C7 1_555 1_555
H4 C8 1_555 1_555
H5 C8 1_555 1_555
H6 O2 1_555 1_555
H7 O2 1_555 1_555
O1 C1 1_555 1_555
O2 Tb1 1_555 1_555
O3 Tb1 1_555 1_555
O4 Tb1_2 1_555 1_555
O5 C5 1_555 1_555
O6 Tb1 1_555 1_555
O7 C6 1_555 1_555
Tb1B O1B 1_555 1_555
Tb1A O3 1_555 1_555
Tb1_2 O5 1_555 1_555
Tb1C O3B 1_555 1_555
Tb1B_2 O4B 1_555 1_555
Tb1C_2 O7B 1_555 1_555
Tb1B_3 O6B 1_555 1_555
C1B C2B 1_555 1_555
C2B C3B 1_555 1_555
C3B C4 1_555 1_555
C4B C3 1_555 1_555
H1B C4B 1_555 1_555
C5B C3B 1_555 1_555
C6B C7B 1_555 1_555
C7B H2B 1_555 1_555
H3B C7B 1_555 1_555
C8B C8 1_555 1_555
H4B C8B 1_555 1_555
H5B C8B 1_555 1_555
H6B O2B 1_555 1_555
H7B O2B 1_555 1_555
O1B C1B 1_555 1_555
O2B Tb1B 1_555 1_555
O3B Tb1B 1_555 1_555
O3A Tb1 1_555 1_555
O3C Tb1B 1_555 1_555
O4B C5B 1_555 1_555
O4_2 Tb1 1_555 1_555
O4B_2 Tb1B 1_555 1_555
O5B Tb1C 1_555 1_555
O5_2 Tb1 1_555 1_555
O5A Tb1 1_555 1_555
O5B_2 Tb1B 1_555 1_555
O5C Tb1B 1_555 1_555
O6B C6B 1_555 1_555
O6B_2 Tb1B 1_555 1_555
O7B C6B 1_555 1_555
O7A Tb1 1_555 1_555
O7C Tb1B 1_555 1_555
C1 O3 1_555 1_555
C6 O6 1_555 1_555
O5 Tb1A 1_555 1_555
O7 Tb1A 1_555 1_555
Tb1A O5A 1_555 1_555
Tb1C O5C 1_555 1_555
Tb1B_2 O5B 1_555 1_555
C1B O3B 1_555 1_555
C2B C4B 1_555 1_555
C5B O5B 1_555 1_555
C7B C8B 1_555 1_555

#END
