
#######################################################################
#
#                 Cambridge Crystallographic Data Centre
#                                CCDC 
#
#######################################################################
#
# If this CIF has been generated from an entry in the Cambridge 
# Structural Database, then it will include bibliographic, chemical, 
# crystal, experimental, refinement or atomic coordinate data resulting 
# from the CCDC's data processing and validation procedures.
#
#######################################################################

data_TARTIR
_symmetry_cell_setting           monoclinic
_symmetry_space_group_name_H-M   'P 21/n'
_symmetry_Int_Tables_number      14
_space_group_name_Hall           '-P 2yn'
loop_
_symmetry_equiv_pos_site_id
_symmetry_equiv_pos_as_xyz
1 x,y,z
2 1/2-x,1/2+y,1/2-z
3 -x,-y,-z
4 1/2+x,1/2-y,1/2+z
_cell_length_a                   7.7869(19)
_cell_length_b                   7.2672(18)
_cell_length_c                   17.370(4)
_cell_angle_alpha                90
_cell_angle_beta                 91.799(3)
_cell_angle_gamma                90
_cell_volume                     982.466
loop_
_atom_site_label
_atom_site_type_symbol
_atom_site_fract_x
_atom_site_fract_y
_atom_site_fract_z
H1 H 0.561(7) 0.788(7) 0.300(3)
H2 H 0.674(7) 0.664(8) 0.301(4)
C1 C -0.1391(6) 0.5881(6) 0.0837(3)
H3 H -0.1834 0.6955 0.0566
H4 H -0.2348 0.5289 0.1082
Eu1 Eu 0.35278(2) 0.48817(2) 0.245026(11)
O1 O 0.0760(4) 0.5282(3) 0.18119(18)
O2 O 0.3583(4) 0.8182(3) 0.18849(16)
C2 C 0.4076(5) 0.7559(5) 0.1239(2)
O3 O 0.2870(3) 1.1979(3) 0.17024(15)
O4 O 0.5630(3) 1.2634(3) 0.17750(16)
C3 C -0.0109(5) 0.6495(5) 0.1450(2)
C4 C 0.4702(5) 1.0767(5) 0.0725(2)
O5 O 0.4238(4) 0.5880(3) 0.11381(16)
C5 C 0.4422(5) 1.1799(5) 0.1461(2)
C6 C 0.4506(5) 0.8871(5) 0.0610(2)
O6 O 0.5870(5) 0.6807(5) 0.2903(2)
C7 C 0.4814(5) 0.8131(5) -0.0114(2)
H5 H 0.4693 0.6870 -0.0190
C8 C -0.0645(7) 0.4551(7) 0.0254(3)
H6 H -0.0097 0.3536 0.0528
H7 H -0.1574 0.4049 -0.0067
O7 O 0.0033(4) 0.8187(4) 0.15835(17)
H1B H 0.439(7) 1.212(7) -0.300(3)
H2B H 0.326(7) 1.336(8) -0.301(4)
C1B C 0.1391(6) 0.4119(6) -0.0837(3)
H3B H 0.1834 0.3045 -0.0566
H4B H 0.2348 0.4711 -0.1082
Eu1B Eu -0.35278(2) 0.51183(2) -0.245026(11)
Eu1A Eu 0.14722(2) 0.98817(2) 0.254974(11)
Eu1_2 Eu 0.35278(2) 1.48817(2) 0.245026(11)
Eu1C Eu -0.14722(2) 0.01183(2) -0.254974(11)
Eu1B_2 Eu 0.64722(2) 1.51183(2) -0.245026(11)
Eu1C_2 Eu 0.85278(2) 1.01183(2) -0.254974(11)
Eu1B_3 Eu 0.64722(2) 0.51183(2) -0.245026(11)
O1B O -0.0760(4) 0.4718(3) -0.18119(18)
O1B_2 O 0.9240(4) 1.4718(3) -0.18119(18)
O2B O 0.6417(4) 1.1818(3) -0.18849(16)
O2A O 0.1417(4) 0.3182(3) 0.31151(16)
O2C O 0.8583(4) 1.6818(3) -0.31151(16)
C2B C 0.5924(5) 1.2441(5) -0.1239(2)
O3B O 0.7130(3) 0.8021(3) -0.17024(15)
O3_2 O 0.2870(3) 0.1979(3) 0.17024(15)
O3A O 0.2130(3) 0.6979(3) 0.32976(15)
O3B_2 O 0.7130(3) 1.8021(3) -0.17024(15)
O3C O 0.7870(3) 1.3021(3) -0.32976(15)
O4B O 0.4370(3) 0.7366(3) -0.17750(16)
O4_2 O 0.5630(3) 0.2634(3) 0.17750(16)
O4B_2 O 0.4370(3) 1.7366(3) -0.17750(16)
C3B C 0.0109(5) 0.3505(5) -0.1450(2)
C4B C 0.5298(5) 0.9233(5) -0.0725(2)
O5B O 0.5762(4) 1.4120(3) -0.11381(16)
C5B C 0.5578(5) 0.8201(5) -0.1461(2)
C6B C 0.5494(5) 1.1129(5) -0.0610(2)
O6B O 0.4130(5) 1.3193(5) -0.2903(2)
C7B C 0.5186(5) 1.1869(5) 0.0114(2)
H5B H 0.5307 1.3130 0.0190
C8B C 0.0645(7) 0.5449(7) -0.0254(3)
H6B H 0.0097 0.6464 -0.0528
H7B H 0.1574 0.5951 0.0067
O7B O -0.0033(4) 0.1813(4) -0.15835(17)
O7A O 0.4967(4) 0.3187(4) 0.34165(17)
O7C O 0.5033(4) 1.6813(4) -0.34165(17)
loop_
_geom_bond_atom_site_label_1
_geom_bond_atom_site_label_2
_geom_bond_site_symmetry_1
_geom_bond_site_symmetry_2
H1 O6 1_555 1_555
H2 O6 1_555 1_555
C1 H3 1_555 1_555
H4 C1 1_555 1_555
Eu1 O1 1_555 1_555
O1 C3 1_555 1_555
O2 Eu1 1_555 1_555
C2 O2 1_555 1_555
O3 C5 1_555 1_555
O4 C5 1_555 1_555
C3 C1 1_555 1_555
C4 C5 1_555 1_555
O5 Eu1 1_555 1_555
C6 C2 1_555 1_555
O6 Eu1 1_555 1_555
C7 C6 1_555 1_555
H5 C7 1_555 1_555
C8 C1 1_555 1_555
H6 C8 1_555 1_555
H7 C8 1_555 1_555
O7 C3 1_555 1_555
H1B O6B 1_555 1_555
H2B O6B 1_555 1_555
C1B H3B 1_555 1_555
H4B C1B 1_555 1_555
Eu1B O1B 1_555 1_555
Eu1A O2 1_555 1_555
Eu1_2 O3 1_555 1_555
Eu1C O7B 1_555 1_555
Eu1B_2 O1B_2 1_555 1_555
Eu1C_2 O2B 1_555 1_555
Eu1B_3 O3B 1_555 1_555
O1B C3B 1_555 1_555
O2B Eu1B_2 1_555 1_555
O2A Eu1 1_555 1_555
O2C Eu1B_2 1_555 1_555
C2B O2B 1_555 1_555
O3B Eu1C_2 1_555 1_555
O3_2 Eu1 1_555 1_555
O3A Eu1 1_555 1_555
O3B_2 Eu1B_2 1_555 1_555
O3C Eu1B_2 1_555 1_555
O4B Eu1B_3 1_555 1_555
O4_2 Eu1 1_555 1_555
O4B_2 Eu1B_2 1_555 1_555
C3B C1B 1_555 1_555
C4B C7 1_555 1_555
O5B Eu1B_2 1_555 1_555
C5B O3B 1_555 1_555
C6B C2B 1_555 1_555
O6B Eu1B_2 1_555 1_555
C7B C4 1_555 1_555
H5B C7B 1_555 1_555
C8B C8 1_555 1_555
H6B C8B 1_555 1_555
H7B C8B 1_555 1_555
O7B C3B 1_555 1_555
O7A Eu1 1_555 1_555
O7C Eu1B_2 1_555 1_555
C2 O5 1_555 1_555
O3 Eu1A 1_555 1_555
O4 Eu1_2 1_555 1_555
C4 C6 1_555 1_555
O7 Eu1A 1_555 1_555
C1B C8B 1_555 1_555
Eu1A O3A 1_555 1_555
Eu1C_2 O3C 1_555 1_555
C2B O5B 1_555 1_555
O4B C5B 1_555 1_555
C4B C5B 1_555 1_555
C4B C6B 1_555 1_555
C6B C7B 1_555 1_555

#END
