
#######################################################################
#
#                 Cambridge Crystallographic Data Centre
#                                CCDC 
#
#######################################################################
#
# If this CIF has been generated from an entry in the Cambridge 
# Structural Database, then it will include bibliographic, chemical, 
# crystal, experimental, refinement or atomic coordinate data resulting 
# from the CCDC's data processing and validation procedures.
#
#######################################################################

data_TARVAL
_symmetry_cell_setting           monoclinic
_symmetry_space_group_name_H-M   'P 21/n'
_symmetry_Int_Tables_number      14
_space_group_name_Hall           '-P 2yn'
loop_
_symmetry_equiv_pos_site_id
_symmetry_equiv_pos_as_xyz
1 x,y,z
2 1/2-x,1/2+y,1/2-z
3 -x,-y,-z
4 1/2+x,1/2-y,1/2+z
_cell_length_a                   7.7659(7)
_cell_length_b                   7.2009(6)
_cell_length_c                   17.3199(15)
_cell_angle_alpha                90
_cell_angle_beta                 91.452(1)
_cell_angle_gamma                90
_cell_volume                     968.243
loop_
_atom_site_label
_atom_site_type_symbol
_atom_site_fract_x
_atom_site_fract_y
_atom_site_fract_z
H1 H 0.442(8) 0.734(9) 0.205(4)
H2 H 0.318(9) 0.833(11) 0.202(4)
O1 O 0.5071(4) 1.1777(4) 0.15934(15)
Dy1 Dy 0.65051(2) 1.01178(2) 0.255224(10)
C1 C 0.5492(5) 1.6144(5) 0.4388(2)
C2 C 0.5302(5) 1.4227(5) 0.4270(2)
C3 C 0.5196(5) 1.6880(6) 0.5116(2)
H3 H 0.5335 1.8149 0.5194
C4 C 0.5937(5) 1.7457(5) 0.3757(2)
C5 C 0.5575(5) 1.3189(5) 0.3530(2)
C6 C 0.4914(5) 1.3477(5) 0.1455(2)
C7 C 0.3619(5) 1.4085(6) 0.0850(2)
H4 H 0.2660 1.4674 0.1101
H5 H 0.3179 1.2997 0.0580
C8 C 0.4353(7) 1.5441(7) 0.0257(3)
H6 H 0.3413 1.5936 -0.0060
H7 H 0.4895 1.6472 0.0530
O2 O 0.6417(3) 1.6824(3) 0.31069(14)
O3 O 0.4150(5) 0.8239(6) 0.2118(2)
O4 O 0.5778(4) 1.9155(4) 0.38510(14)
O5 O 0.4354(3) 1.2349(4) 0.32171(14)
O6 O 0.7124(3) 1.3007(3) 0.32808(14)
O7 O 0.5780(4) 1.4728(3) 0.18145(17)
H1B H 0.558(8) 2.266(9) 0.795(4)
H2B H 0.682(9) 2.167(11) 0.798(4)
O1B O 0.4929(4) 1.8223(4) -0.15934(15)
O1B_2 O 0.4929(4) 1.8223(4) 0.84066(15)
Dy1B Dy 0.34949(2) 1.98822(2) -0.255224(10)
Dy1A Dy 0.84949(2) 1.51178(2) 0.244776(10)
Dy1_2 Dy 0.65051(2) 2.01178(2) 0.255224(10)
Dy1C Dy 0.15051(2) 1.48822(2) -0.244776(10)
Dy1B_2 Dy 0.34949(2) 1.98822(2) 0.744776(10)
Dy1C_2 Dy 0.15051(2) 1.48822(2) 0.755224(10)
Dy1B_3 Dy 0.34949(2) 0.98822(2) 0.744776(10)
C1B C 0.4508(5) 1.3856(5) 0.5612(2)
C2B C 0.4698(5) 1.5773(5) 0.5730(2)
C3B C 0.4804(5) 1.3120(6) 0.4884(2)
H3B H 0.4665 1.1851 0.4806
C4B C 0.4063(5) 1.2543(5) 0.6243(2)
C5B C 0.4425(5) 1.6811(5) 0.6470(2)
C6B C 0.5086(5) 1.6523(5) -0.1455(2)
C7B C 0.6381(5) 1.5915(6) -0.0850(2)
H4B H 0.7340 1.5326 -0.1101
H5B H 0.6821 1.7003 -0.0580
C8B C 0.5647(7) 1.4559(7) -0.0257(3)
H6B H 0.6587 1.4064 0.0060
H7B H 0.5105 1.3528 -0.0530
O2B O 0.3583(3) 1.3176(3) 0.68931(14)
O2A O 0.8583(3) 1.1824(3) 0.18931(14)
O2_2 O 0.6417(3) 0.6824(3) 0.31069(14)
O2B_2 O 0.3583(3) 2.3176(3) 0.68931(14)
O2C O 0.1417(3) 1.8176(3) 0.81069(14)
O3B O 0.5850(5) 2.1761(6) 0.7882(2)
O4B O 0.4222(4) 1.0845(4) 0.61490(14)
O4_2 O 0.5778(4) 0.9155(4) 0.38510(14)
O4B_2 O 0.4222(4) 2.0845(4) 0.61490(14)
O5B O 0.5646(3) 1.7651(4) 0.67829(14)
O6B O 0.2876(3) 1.6993(3) 0.67192(14)
O6A O 0.7876(3) 0.8007(3) 0.17192(14)
O6C O 0.2124(3) 2.1993(3) 0.82808(14)
O7B O 0.4220(4) 1.5272(3) -0.18145(17)
O7A O 0.9220(4) 0.9728(3) 0.31855(17)
O7C O 0.0780(4) 2.0272(3) 0.68145(17)
loop_
_geom_bond_atom_site_label_1
_geom_bond_atom_site_label_2
_geom_bond_site_symmetry_1
_geom_bond_site_symmetry_2
H1 O3 1_555 1_555
H2 O3 1_555 1_555
O1 Dy1 1_555 1_555
Dy1 O3 1_555 1_555
C1 C2 1_555 1_555
C2 C5 1_555 1_555
C3 C1 1_555 1_555
H3 C3 1_555 1_555
C4 C1 1_555 1_555
C5 O5 1_555 1_555
C6 O1 1_555 1_555
C7 C6 1_555 1_555
H4 C7 1_555 1_555
H5 C7 1_555 1_555
C8 C7 1_555 1_555
H6 C8 1_555 1_555
H7 C8 1_555 1_555
O2 C4 1_555 1_555
O4 C4 1_555 1_555
O5 Dy1 1_555 1_555
O6 Dy1 1_555 1_555
O7 C6 1_555 1_555
H1B O3B 1_555 1_555
H2B O3B 1_555 1_555
O1B Dy1B 1_555 1_555
O1B_2 Dy1B_2 1_555 1_555
Dy1A O2 1_555 1_555
Dy1_2 O2 1_555 1_555
Dy1C O7B 1_555 1_555
Dy1B_2 O2B_2 1_555 1_555
Dy1C_2 O2B 1_555 1_555
Dy1B_3 O2B 1_555 1_555
C1B C2B 1_555 1_555
C2B C3 1_555 1_555
C3B C2 1_555 1_555
H3B C3B 1_555 1_555
C4B C1B 1_555 1_555
C5B C2B 1_555 1_555
C6B O1B 1_555 1_555
C7B C6B 1_555 1_555
H4B C7B 1_555 1_555
H5B C7B 1_555 1_555
C8B C8 1_555 1_555
H6B C8B 1_555 1_555
H7B C8B 1_555 1_555
O2B C4B 1_555 1_555
O2A Dy1 1_555 1_555
O2_2 Dy1 1_555 1_555
O2C Dy1B_2 1_555 1_555
O3B Dy1B_2 1_555 1_555
O4B Dy1B_3 1_555 1_555
O4_2 Dy1 1_555 1_555
O4B_2 Dy1B_2 1_555 1_555
O5B Dy1B_2 1_555 1_555
O6B Dy1B_2 1_555 1_555
O6A Dy1 1_555 1_555
O6C Dy1B_2 1_555 1_555
O7B C6B 1_555 1_555
O7A Dy1 1_555 1_555
O7C Dy1B_2 1_555 1_555
C5 O6 1_555 1_555
O4 Dy1_2 1_555 1_555
O6 Dy1A 1_555 1_555
O7 Dy1A 1_555 1_555
Dy1A O2A 1_555 1_555
Dy1C_2 O2C 1_555 1_555
Dy1C_2 O6B 1_555 1_555
C1B C3B 1_555 1_555
C4B O4B 1_555 1_555
C5B O5B 1_555 1_555
C5B O6B 1_555 1_555
C7B C8B 1_555 1_555

#END
