
#######################################################################
#
#                 Cambridge Crystallographic Data Centre
#                                CCDC 
#
#######################################################################
#
# If this CIF has been generated from an entry in the Cambridge 
# Structural Database, then it will include bibliographic, chemical, 
# crystal, experimental, refinement or atomic coordinate data resulting 
# from the CCDC's data processing and validation procedures.
#
#######################################################################

data_TARVOX
_symmetry_cell_setting           monoclinic
_symmetry_space_group_name_H-M   'C 2/c'
_symmetry_Int_Tables_number      15
_space_group_name_Hall           '-C 2yn'
loop_
_symmetry_equiv_pos_site_id
_symmetry_equiv_pos_as_xyz
1 x,y,z
2 -x,y,1/2-z
3 1/2+x,1/2+y,z
4 1/2-x,1/2+y,1/2-z
5 -x,-y,-z
6 x,-y,1/2+z
7 1/2-x,1/2-y,-z
8 1/2+x,1/2-y,1/2+z
_cell_length_a                   19.084(3)
_cell_length_b                   16.756(2)
_cell_length_c                   6.940(1)
_cell_angle_alpha                90
_cell_angle_beta                 98.40(1)
_cell_angle_gamma                90
_cell_volume                     2195.41
loop_
_atom_site_label
_atom_site_type_symbol
_atom_site_fract_x
_atom_site_fract_y
_atom_site_fract_z
Co1 Co 0.63357(4) -0.31311(4) 0.0913(2)
N1 N 0.9109(2) -0.4738(2) -0.4155(7)
N2 N 0.8060(2) -0.4235(2) -0.3244(7)
N3 N 0.8983(2) -0.3358(2) -0.3981(7)
N4 N 0.9969(2) -0.3951(2) -0.5093(7)
N5 N 1.0560(2) -0.2655(3) -0.5285(7)
N6 N 0.8284(2) -0.5621(3) -0.3508(8)
N7 N 0.7112(2) -0.6074(3) -0.2854(9)
N8 N 0.8062(2) -0.2861(2) -0.2594(7)
N9 N 0.6904(2) -0.2974(3) -0.1449(9)
C1 C 0.9353(2) -0.3990(3) -0.4438(8)
C2 C 0.8453(2) -0.4856(3) -0.3641(9)
C3 C 0.8372(2) -0.3509(3) -0.3312(8)
C4 C 1.0259(2) -0.3243(4) -0.5184(9)
C5 C 0.7654(3) -0.5814(3) -0.3141(10)
C6 C 0.7439(3) -0.2961(3) -0.2017(10)
O1 O 0.5737(2) -0.6742(2) -0.1730(7)
O2 O 0.5770(2) -0.5887(2) -0.5580(8)
H1 H 0.9373(2) -0.5143(2) -0.4301(7)
Co1F Co 0.86643(4) -0.18689(4) -0.0913(2)
Co1G Co 1.13357(4) -0.18689(4) -0.4087(2)
Co1E Co 0.63357(4) -0.68689(4) -0.4087(2)
N5B N 0.5560(2) -0.7655(3) -0.5285(7)
N8C N 0.6938(2) -0.7861(2) -0.2406(7)
N9E N 0.6904(2) -0.7026(3) -0.6449(9)
O3 O 0.6331(3) 0.5589(3) 0.5936(8)
loop_
_geom_bond_atom_site_label_1
_geom_bond_atom_site_label_2
_geom_bond_site_symmetry_1
_geom_bond_site_symmetry_2
Co1 N9 1_555 1_555
N1 C1 1_555 1_555
N2 C2 1_555 1_555
N3 C1 1_555 1_555
N4 C1 1_555 1_555
N5 C4 1_555 1_555
N6 C2 1_555 1_555
N7 C5 1_555 1_555
N8 C3 1_555 1_555
N9 C6 1_555 1_555
C2 N1 1_555 1_555
C3 N2 1_555 1_555
C4 N4 1_555 1_555
C5 N6 1_555 1_555
C6 N8 1_555 1_555
O1 Co1E 1_555 1_555
O2 Co1E 1_555 1_555
H1 N1 1_555 1_555
Co1F N8 1_555 1_555
Co1G N5 1_555 1_555
Co1E N7 1_555 1_555
N5B Co1E 1_555 1_555
N8C Co1E 1_555 1_555
N9E Co1E 1_555 1_555
N3 C3 1_555 1_555

#END
