
#######################################################################
#
#                 Cambridge Crystallographic Data Centre
#                                CCDC 
#
#######################################################################
#
# If this CIF has been generated from an entry in the Cambridge 
# Structural Database, then it will include bibliographic, chemical, 
# crystal, experimental, refinement or atomic coordinate data resulting 
# from the CCDC's data processing and validation procedures.
#
#######################################################################

data_TARVUD
_symmetry_cell_setting           monoclinic
_symmetry_space_group_name_H-M   'C 2/c'
_symmetry_Int_Tables_number      15
_space_group_name_Hall           '-C 2yn'
loop_
_symmetry_equiv_pos_site_id
_symmetry_equiv_pos_as_xyz
1 x,y,z
2 -x,y,1/2-z
3 1/2+x,1/2+y,z
4 1/2-x,1/2+y,1/2-z
5 -x,-y,-z
6 x,-y,1/2+z
7 1/2-x,1/2-y,-z
8 1/2+x,1/2-y,1/2+z
_cell_length_a                   18.971(5)
_cell_length_b                   16.667(4)
_cell_length_c                   6.946(1)
_cell_angle_alpha                90
_cell_angle_beta                 98.14(2)
_cell_angle_gamma                90
_cell_volume                     2174.13
loop_
_atom_site_label
_atom_site_type_symbol
_atom_site_fract_x
_atom_site_fract_y
_atom_site_fract_z
Ni1 Ni 0.63403(4) -0.31302(4) 0.09394(11)
N1 N 0.9109(2) -0.4735(2) -0.4167(7)
N2 N 0.8955 -0.3353(2) -0.3980(7)
N3 N 0.8118 -0.4233 -0.3122
N4 N 0.9974(2) -0.3941(2) -0.5102(7)
N5 N 1.0578(2) -0.2640(3) -0.5287(7)
N6 N 0.8285(2) -0.5625(3) -0.3498(7)
N7 N 0.7112(3) -0.6095(3) -0.2839(9)
N8 N 0.8063(2) -0.2851(3) -0.2562(7)
N9 N 0.6906(2) -0.2971(3) -0.1376(8)
C1 C 0.9350(2) -0.3981(3) -0.4425(7)
C2 C 0.8454(3) -0.4848(3) -0.3624(8)
C3 C 0.8362(3) -0.3503(3) -0.3263(8)
C4 C 1.0264(3) -0.3231(3) -0.5186(7)
C5 C 0.7645(3) -0.5823(3) -0.3140(9)
C6 C 0.7437(3) -0.2964(3) -0.1976(9)
O1 O 0.5749(2) -0.6732(2) -0.1747(6)
O2 O 0.5784(2) -0.5908(2) -0.5531(8)
H1 H 0.9371(2) -0.5142(2) -0.4345(7)
Ni1F Ni 0.86597(4) -0.18698(4) -0.09394(11)
Ni1G Ni 1.13403(4) -0.18698(4) -0.40606(11)
Ni1E Ni 0.63403(4) -0.68698(4) -0.40606(11)
N5B N 0.5578(2) -0.7640(3) -0.5287(7)
N8C N 0.6937(2) -0.7851(3) -0.2438(7)
N9E N 0.6906(2) -0.7029(3) -0.6376(8)
O3 O 0.6330(3) 0.5590(3) 0.5959(8)
loop_
_geom_bond_atom_site_label_1
_geom_bond_atom_site_label_2
_geom_bond_site_symmetry_1
_geom_bond_site_symmetry_2
Ni1 N9 1_555 1_555
N1 C1 1_555 1_555
N2 C1 1_555 1_555
N3 C2 1_555 1_555
N4 C1 1_555 1_555
N5 C4 1_555 1_555
N6 C2 1_555 1_555
N7 C5 1_555 1_555
N8 C3 1_555 1_555
N9 C6 1_555 1_555
C2 N1 1_555 1_555
C3 N2 1_555 1_555
C4 N4 1_555 1_555
C5 N6 1_555 1_555
C6 N8 1_555 1_555
O1 Ni1E 1_555 1_555
O2 Ni1E 1_555 1_555
H1 N1 1_555 1_555
Ni1F N8 1_555 1_555
Ni1G N5 1_555 1_555
Ni1E N7 1_555 1_555
N5B Ni1E 1_555 1_555
N8C Ni1E 1_555 1_555
N9E Ni1E 1_555 1_555
N3 C3 1_555 1_555

#END
