
#######################################################################
#
#                 Cambridge Crystallographic Data Centre
#                                CCDC 
#
#######################################################################
#
# If this CIF has been generated from an entry in the Cambridge 
# Structural Database, then it will include bibliographic, chemical, 
# crystal, experimental, refinement or atomic coordinate data resulting 
# from the CCDC's data processing and validation procedures.
#
#######################################################################

data_TARVIT
_symmetry_cell_setting           monoclinic
_symmetry_space_group_name_H-M   'P 21/c'
_symmetry_Int_Tables_number      14
_space_group_name_Hall           '-P 2ybc'
loop_
_symmetry_equiv_pos_site_id
_symmetry_equiv_pos_as_xyz
1 x,y,z
2 -x,1/2+y,1/2-z
3 -x,-y,-z
4 x,1/2-y,1/2+z
_cell_length_a                   13.665(3)
_cell_length_b                   8.1204(17)
_cell_length_c                   18.765(4)
_cell_angle_alpha                90
_cell_angle_beta                 110.234(2)
_cell_angle_gamma                90
_cell_volume                     1953.76
loop_
_atom_site_label
_atom_site_type_symbol
_atom_site_fract_x
_atom_site_fract_y
_atom_site_fract_z
Pb1 Pb 0.56725(4) 1.04471(6) 0.10742(3)
Pb2 Pb 0.5000 0.5000 0.0000
Pb3 Pb 0.30700(4) 1.17786(6) 0.03790(3)
Pb4 Pb 0.51406(4) 0.95759(6) 0.30814(3)
O1 O 0.3745(7) 0.9798(10) 0.1552(4)
O2 O 0.3745(7) 0.7563(10) 0.2251(5)
O3 O 0.3771(6) 0.6511(10) 0.0676(5)
O4 O 0.2561(7) 0.4880(10) -0.0097(5)
O5 O 0.7119(7) 0.8605(10) 0.3509(5)
O6 O 0.6100(6) 0.7989(11) 0.2334(5)
O7 O 0.6460(7) 0.5095(10) 0.1429(5)
O8 O 0.6395(7) 0.7453(10) 0.0824(4)
O9 O 0.5879(6) 1.0493(9) -0.0120(5)
H1 H 0.5916 1.1177 -0.0436
O10 O 0.4627(6) 0.2783(9) 0.0896(4)
O11 O 0.7508(8) 1.2152(17) 0.1638(10)
H2 H 0.7621 1.3153 0.1919
H3 H 0.7903 1.2061 0.1341
C1 C 0.2249(9) 0.8073(14) 0.1157(7)
C2 C 0.2000(9) 0.6940(14) 0.0554(7)
C3 C 0.0963(10) 0.6679(15) 0.0130(7)
H4 H 0.0796 0.5914 -0.0263
C4 C 0.0166(11) 0.7505(18) 0.0267(8)
H5 H -0.0524 0.7311 -0.0034
C5 C 0.0401(11) 0.8615(19) 0.0850(8)
H6 H -0.0132 0.9182 0.0945
C6 C 0.1426(11) 0.8898(17) 0.1296(7)
H7 H 0.1576 0.9644 0.1696
C7 C 0.3328(11) 0.8491(15) 0.1672(7)
C8 C 0.2832(10) 0.6043(15) 0.0349(6)
C9 C 0.7934(9) 0.7764(15) 0.2639(7)
C10 C 0.7838(9) 0.7027(14) 0.1961(6)
C11 C 0.8762(10) 0.6616(16) 0.1809(8)
H8 H 0.8715 0.6093 0.1358
C12 C 0.9704(11) 0.6987(17) 0.2324(8)
H9 H 1.0306 0.6756 0.2217
C13 C 0.9782(11) 0.7700(17) 0.3000(9)
H10 H 1.0439 0.7914 0.3354
C14 C 0.8925(11) 0.8100(15) 0.3166(7)
H11 H 0.8994 0.8595 0.3627
C15 C 0.6995(10) 0.8136(14) 0.2848(7)
C16 C 0.6807(9) 0.6509(14) 0.1369(6)
Pb1B Pb 0.43275(4) -0.04471(6) -0.10742(3)
Pb1B_2 Pb 0.43275(4) 0.95529(6) -0.10742(3)
Pb1_2 Pb 0.56725(4) 0.04471(6) 0.10742(3)
Pb3B Pb 0.69300(4) -0.17786(6) -0.03790(3)
Pb3_2 Pb 0.30700(4) 0.17786(6) 0.03790(3)
Pb3A Pb 0.69300(4) 0.67786(6) 0.46210(3)
Pb3B_2 Pb 0.69300(4) 0.82214(6) -0.03790(3)
Pb3C Pb 0.30700(4) 0.32214(6) -0.46210(3)
Pb4B Pb 0.48594(4) 0.04241(6) -0.30814(3)
Pb4A Pb 0.48594(4) 0.45759(6) 0.19186(3)
Pb4C Pb 0.51406(4) 0.54241(6) -0.19186(3)
O1B O 0.6255(7) 0.0202(10) -0.1552(4)
O2B O 0.6255(7) 0.2437(10) -0.2251(5)
O2A O 0.6255(7) 1.2563(10) 0.2749(5)
O2C O 0.3745(7) -0.2563(10) -0.2749(5)
O3B O 0.6229(6) 0.3489(10) -0.0676(5)
O3A O 0.6229(6) 1.1511(10) 0.4324(5)
O3C O 0.3771(6) -0.1511(10) -0.4324(5)
O4B O 0.7439(7) 0.5120(10) 0.0097(5)
O4_2 O 0.2561(7) 1.4880(10) -0.0097(5)
O4B_2 O 0.7439(7) -0.4880(10) 0.0097(5)
O5B O 0.2881(7) 0.1395(10) -0.3509(5)
O5A O 0.2881(7) 1.3605(10) 0.1491(5)
O5C O 0.7119(7) -0.3605(10) -0.1491(5)
O6B O 0.3900(6) 0.2011(11) -0.2334(5)
O7B O 0.3540(7) 0.4905(10) -0.1429(5)
O7A O 0.3540(7) 1.0095(10) 0.3571(5)
O7C O 0.6460(7) -0.0095(10) -0.3571(5)
O8B O 0.3605(7) 0.2547(10) -0.0824(4)
O8B_2 O 0.3605(7) 1.2547(10) -0.0824(4)
O8_2 O 0.6395(7) -0.2547(10) 0.0824(4)
O9B O 0.4121(6) 0.9507(9) 0.0120(5)
O9B_2 O 0.4121(6) -0.0493(9) 0.0120(5)
O9_2 O 0.5879(6) 0.0493(9) -0.0120(5)
H1B H 0.4084 0.8823 0.0436
H1B_2 H 0.4084 -0.1177 0.0436
H1_2 H 0.5916 0.1177 -0.0436
O10B O 0.5373(6) 0.7217(9) -0.0896(4)
O10_2 O 0.4627(6) 1.2783(9) 0.0896(4)
O10A O 0.5373(6) 0.7783(9) 0.4104(4)
O10B_2 O 0.5373(6) -0.2783(9) -0.0896(4)
O10C O 0.4627(6) 0.2217(9) -0.4104(4)
O11B O 0.2492(8) -0.2152(17) -0.1638(10)
H2B H 0.2379 -0.3153 -0.1919
H3B H 0.2097 -0.2061 -0.1341
C1B C 0.7751(9) 0.1927(14) -0.1157(7)
C2B C 0.8000(9) 0.3060(14) -0.0554(7)
C3B C 0.9037(10) 0.3321(15) -0.0130(7)
H4B H 0.9204 0.4086 0.0263
C4B C 0.9834(11) 0.2495(18) -0.0267(8)
H5B H 1.0524 0.2689 0.0034
C5B C 0.9599(11) 0.1385(19) -0.0850(8)
H6B H 1.0132 0.0818 -0.0945
C6B C 0.8574(11) 0.1102(17) -0.1296(7)
H7B H 0.8424 0.0356 -0.1696
C7B C 0.6672(11) 0.1509(15) -0.1672(7)
C8B C 0.7168(10) 0.3957(15) -0.0349(6)
C9B C 0.2066(9) 0.2236(15) -0.2639(7)
C10B C 0.2162(9) 0.2973(14) -0.1961(6)
C11B C 0.1238(10) 0.3384(16) -0.1809(8)
H8B H 0.1285 0.3907 -0.1358
C12B C 0.0296(11) 0.3013(17) -0.2324(8)
H9B H -0.0306 0.3244 -0.2217
C13B C 0.0218(11) 0.2300(17) -0.3000(9)
H10B H -0.0439 0.2086 -0.3354
C14B C 0.1075(11) 0.1900(15) -0.3166(7)
H11B H 0.1006 0.1405 -0.3627
C15B C 0.3005(10) 0.1864(14) -0.2848(7)
C16B C 0.3193(9) 0.3491(14) -0.1369(6)
loop_
_geom_bond_atom_site_label_1
_geom_bond_atom_site_label_2
_geom_bond_site_symmetry_1
_geom_bond_site_symmetry_2
Pb1 O6 1_555 1_555
Pb2 O3 1_555 1_555
Pb3 O1 1_555 1_555
Pb4 O1 1_555 1_555
O1 C7 1_555 1_555
O2 Pb4 1_555 1_555
O3 C8 1_555 1_555
O4 C8 1_555 1_555
O5 Pb4 1_555 1_555
O6 Pb4 1_555 1_555
O7 Pb2 1_555 1_555
O8 Pb1 1_555 1_555
O9 Pb1 1_555 1_555
H1 O9 1_555 1_555
O10 Pb2 1_555 1_555
O11 Pb1 1_555 1_555
H2 O11 1_555 1_555
H3 O11 1_555 1_555
C1 C2 1_555 1_555
C2 C3 1_555 1_555
C3 H4 1_555 1_555
C4 C3 1_555 1_555
H5 C4 1_555 1_555
C5 C4 1_555 1_555
H6 C5 1_555 1_555
C6 C1 1_555 1_555
H7 C6 1_555 1_555
C7 O2 1_555 1_555
C8 C2 1_555 1_555
C9 C10 1_555 1_555
C10 C11 1_555 1_555
C11 H8 1_555 1_555
C12 C11 1_555 1_555
H9 C12 1_555 1_555
C13 C12 1_555 1_555
H10 C13 1_555 1_555
C14 C9 1_555 1_555
H11 C14 1_555 1_555
C15 O5 1_555 1_555
C16 O7 1_555 1_555
Pb1B O6B 1_555 1_555
Pb1B_2 O9 1_555 1_555
Pb1_2 O10 1_555 1_555
Pb3B O1B 1_555 1_555
Pb3_2 O4 1_555 1_555
Pb3A O5 1_555 1_555
Pb3B_2 O8 1_555 1_555
Pb3C O5B 1_555 1_555
Pb4B O1B 1_555 1_555
Pb4A O2 1_555 1_555
Pb4C O2B 1_555 1_555
O1B C7B 1_555 1_555
O2B Pb4B 1_555 1_555
O2A Pb4 1_555 1_555
O2C Pb4B 1_555 1_555
O3B Pb2 1_555 1_555
O3A Pb4 1_555 1_555
O3C Pb4B 1_555 1_555
O4B Pb3B_2 1_555 1_555
O4_2 Pb3 1_555 1_555
O4B_2 Pb3B 1_555 1_555
O5B Pb4B 1_555 1_555
O5A Pb3 1_555 1_555
O5C Pb3B 1_555 1_555
O6B Pb4B 1_555 1_555
O7B Pb2 1_555 1_555
O7A Pb4 1_555 1_555
O7C Pb4B 1_555 1_555
O8B Pb2 1_555 1_555
O8B_2 Pb3 1_555 1_555
O8_2 Pb1_2 1_555 1_555
O9B Pb1 1_555 1_555
O9B_2 Pb1B 1_555 1_555
O9_2 Pb1B 1_555 1_555
H1B O9B 1_555 1_555
H1B_2 O9B_2 1_555 1_555
H1_2 O9_2 1_555 1_555
O10B Pb2 1_555 1_555
O10_2 Pb1 1_555 1_555
O10A Pb4 1_555 1_555
O10B_2 Pb1B 1_555 1_555
O10C Pb3C 1_555 1_555
O11B Pb1B 1_555 1_555
H2B O11B 1_555 1_555
H3B O11B 1_555 1_555
C1B C2B 1_555 1_555
C2B C3B 1_555 1_555
C3B H4B 1_555 1_555
C4B C3B 1_555 1_555
H5B C4B 1_555 1_555
C5B C4B 1_555 1_555
H6B C5B 1_555 1_555
C6B C1B 1_555 1_555
H7B C6B 1_555 1_555
C7B O2B 1_555 1_555
C8B O3B 1_555 1_555
C9B C10B 1_555 1_555
C10B C11B 1_555 1_555
C11B H8B 1_555 1_555
C12B C11B 1_555 1_555
H9B C12B 1_555 1_555
C13B C12B 1_555 1_555
H10B C13B 1_555 1_555
C14B C9B 1_555 1_555
H11B C14B 1_555 1_555
C15B O5B 1_555 1_555
C16B O7B 1_555 1_555
Pb2 O8 1_555 1_555
Pb3 O9B 1_555 1_555
Pb3 O10_2 1_555 1_555
O3 Pb4A 1_555 1_555
O6 C15 1_555 1_555
O7 Pb4A 1_555 1_555
O8 C16 1_555 1_555
O9 Pb3B_2 1_555 1_555
O10 Pb3_2 1_555 1_555
O10 Pb4A 1_555 1_555
C1 C7 1_555 1_555
C5 C6 1_555 1_555
C9 C15 1_555 1_555
C10 C16 1_555 1_555
C13 C14 1_555 1_555
Pb1B O8B 1_555 1_555
Pb1B_2 O8B_2 1_555 1_555
Pb1B_2 O9B 1_555 1_555
Pb1B_2 O10B 1_555 1_555
Pb1_2 O9B_2 1_555 1_555
Pb1_2 O9_2 1_555 1_555
Pb3B O8_2 1_555 1_555
Pb3B O9_2 1_555 1_555
Pb3B O10B_2 1_555 1_555
Pb3_2 O8B 1_555 1_555
Pb3_2 O9B_2 1_555 1_555
Pb3A O10A 1_555 1_555
Pb3B_2 O10B 1_555 1_555
Pb4B O10C 1_555 1_555
Pb4C O3B 1_555 1_555
Pb4C O7B 1_555 1_555
Pb4C O10B 1_555 1_555
O4B C8B 1_555 1_555
O6B C15B 1_555 1_555
O8B C16B 1_555 1_555
C1B C7B 1_555 1_555
C2B C8B 1_555 1_555
C5B C6B 1_555 1_555
C9B C15B 1_555 1_555
C10B C16B 1_555 1_555
C13B C14B 1_555 1_555

#END
