
#######################################################################
#
#                 Cambridge Crystallographic Data Centre
#                                CCDC 
#
#######################################################################
#
# If this CIF has been generated from an entry in the Cambridge 
# Structural Database, then it will include bibliographic, chemical, 
# crystal, experimental, refinement or atomic coordinate data resulting 
# from the CCDC's data processing and validation procedures.
#
#######################################################################

data_TARXUG
_symmetry_cell_setting           monoclinic
_symmetry_space_group_name_H-M   'P 21/n'
_symmetry_Int_Tables_number      14
_space_group_name_Hall           '-P 2yn'
loop_
_symmetry_equiv_pos_site_id
_symmetry_equiv_pos_as_xyz
1 x,y,z
2 1/2-x,1/2+y,1/2-z
3 -x,-y,-z
4 1/2+x,1/2-y,1/2+z
_cell_length_a                   12.1123(6)
_cell_length_b                   11.2738(3)
_cell_length_c                   20.3994(9)
_cell_angle_alpha                90
_cell_angle_beta                 104.319(4)
_cell_angle_gamma                90
_cell_volume                     2699.03
loop_
_atom_site_label
_atom_site_type_symbol
_atom_site_fract_x
_atom_site_fract_y
_atom_site_fract_z
C1 C 0.9117(4) 0.9751(4) 0.59145(18)
C2 C 0.9759(3) 1.0714(5) 0.57775(19)
C3 C 0.9023(5) 1.1658(4) 0.5554(2)
C4 C 0.7919(4) 1.1288(5) 0.55429(19)
C5 C 0.7965(4) 1.0112(4) 0.5753(2)
C6 C 0.9595(11) 0.8581(6) 0.6172(3)
H1 H 1.0323 0.8695 0.6506
H2 H 0.9716 0.8101 0.5796
H3 H 0.9061 0.8172 0.6386
C7 C 1.1012(4) 1.0711(11) 0.5859(3)
H4 H 1.1290 1.1530 0.5880
H5 H 1.1190 1.0305 0.5473
H6 H 1.1382 1.0297 0.6278
C8 C 0.9354(12) 1.2868(7) 0.5368(3)
H7 H 0.9273 1.2907 0.4878
H8 H 1.0148 1.3027 0.5605
H9 H 0.8858 1.3463 0.5498
C9 C 0.6882(8) 1.2060(10) 0.5356(4)
H10 H 0.6832 1.2422 0.4913
H11 H 0.6934 1.2684 0.5696
H12 H 0.6201 1.1578 0.5336
C10 C 0.6971(7) 0.9364(9) 0.5794(3)
H13 H 0.6543 0.9146 0.5336
H14 H 0.6475 0.9810 0.6018
H15 H 0.7241 0.8644 0.6053
C11 C 0.7653(3) 1.0129(3) 0.86498(16)
C12 C 0.8765(3) 1.0431(3) 0.89915(18)
C13 C 0.8928(4) 1.1009(4) 0.9616(2)
H16 H 0.9674 1.1239 0.9853
C14 C 0.8025(5) 1.1249(4) 0.9893(2)
H17 H 0.8158 1.1634 1.0319
C15 C 0.6942(4) 1.0939(4) 0.9563(2)
H18 H 0.6325 1.1097 0.9761
C16 C 0.6745(4) 1.0391(4) 0.89336(19)
H19 H 0.5990 1.0194 0.8696
C17 C 0.9773(3) 1.0110(4) 0.87208(19)
H20 H 0.9650 1.0400 0.8256
H21 H 0.9863 0.9246 0.8727
H22 H 1.0462 1.0474 0.9004
C18 C 0.5691(3) 1.0027(3) 0.72104(16)
C19 C 0.4812(3) 0.9482(3) 0.67296(16)
C20 C 0.3923(3) 1.0188(3) 0.63689(19)
H23 H 0.3326 0.9833 0.6036
C21 C 0.3894(3) 1.1396(4) 0.6487(2)
H24 H 0.3280 1.1860 0.6234
C22 C 0.4755(3) 1.1930(3) 0.6971(2)
H25 H 0.4731 1.2755 0.7060
C23 C 0.5649(3) 1.1241(3) 0.73210(19)
H26 H 0.6252 1.1606 0.7646
C24 C 0.4788(3) 0.8165(3) 0.66003(18)
H27 H 0.4617 0.7746 0.6985
H28 H 0.5531 0.7907 0.6544
H29 H 0.4198 0.7984 0.6188
Bi1 Bi 0.728566(10) 0.904336(11) 0.770073(6)
Mo1 Mo 0.90204(2) 1.12632(2) 0.671900(13)
O1 O 0.8133(2) 1.0559(2) 0.71706(12)
O2 O 1.0390(2) 1.1036(2) 0.71930(12)
O3 O 0.6245(2) 0.7814(2) 0.82272(12)
Mo1A Mo 0.59796(2) 0.62632(2) 0.828100(13)
O3A O 0.8755(2) 1.2814(2) 0.67728(12)
C25 C 0.2047(4) 0.5133(4) 0.7078(2)
H30 H 0.2788 0.5478 0.7319
H31 H 0.1455 0.5445 0.7291
Cl1 Cl 0.21108(17) 0.35916(15) 0.71629(11)
Cl2 Cl 0.17291(15) 0.5577(2) 0.62220(7)
loop_
_geom_bond_atom_site_label_1
_geom_bond_atom_site_label_2
_geom_bond_site_symmetry_1
_geom_bond_site_symmetry_2
C1 C2 1_555 1_555
C2 C3 1_555 1_555
C3 C4 1_555 1_555
C4 C5 1_555 1_555
C5 C1 1_555 1_555
C6 C1 1_555 1_555
H1 C6 1_555 1_555
H2 C6 1_555 1_555
H3 C6 1_555 1_555
C7 C2 1_555 1_555
H4 C7 1_555 1_555
H5 C7 1_555 1_555
H6 C7 1_555 1_555
C8 C3 1_555 1_555
H7 C8 1_555 1_555
H8 C8 1_555 1_555
H9 C8 1_555 1_555
C9 C4 1_555 1_555
H10 C9 1_555 1_555
H11 C9 1_555 1_555
H12 C9 1_555 1_555
C10 C5 1_555 1_555
H13 C10 1_555 1_555
H14 C10 1_555 1_555
H15 C10 1_555 1_555
C11 C12 1_555 1_555
C12 C13 1_555 1_555
C13 H16 1_555 1_555
C14 C13 1_555 1_555
H17 C14 1_555 1_555
C15 C14 1_555 1_555
H18 C15 1_555 1_555
C16 C11 1_555 1_555
H19 C16 1_555 1_555
C17 C12 1_555 1_555
H20 C17 1_555 1_555
H21 C17 1_555 1_555
H22 C17 1_555 1_555
C18 C19 1_555 1_555
C19 C20 1_555 1_555
C20 H23 1_555 1_555
C21 C20 1_555 1_555
H24 C21 1_555 1_555
C22 C21 1_555 1_555
H25 C22 1_555 1_555
C23 C18 1_555 1_555
H26 C23 1_555 1_555
C24 C19 1_555 1_555
H27 C24 1_555 1_555
H28 C24 1_555 1_555
H29 C24 1_555 1_555
C25 H30 1_555 1_555
H31 C25 1_555 1_555
Bi1 C11 1_555 1_555
Cl1 C25 1_555 1_555
Cl2 C25 1_555 1_555
Mo1 C1 1_555 1_555
O1 Bi1 1_555 1_555
O2 Mo1 1_555 1_555
O3 Bi1 1_555 1_555
Mo1A O3 1_555 1_555
O3A Mo1 1_555 1_555
C2 Mo1 1_555 1_555
C3 Mo1 1_555 1_555
C4 Mo1 1_555 1_555
C5 Mo1 1_555 1_555
C15 C16 1_555 1_555
C18 Bi1 1_555 1_555
C22 C23 1_555 1_555
Mo1 O1 1_555 1_555

#END
