
#######################################################################
#
#                 Cambridge Crystallographic Data Centre
#                                CCDC 
#
#######################################################################
#
# If this CIF has been generated from an entry in the Cambridge 
# Structural Database, then it will include bibliographic, chemical, 
# crystal, experimental, refinement or atomic coordinate data resulting 
# from the CCDC's data processing and validation procedures.
#
#######################################################################

data_TASDAU
_symmetry_cell_setting           triclinic
_symmetry_space_group_name_H-M   'P -1'
_symmetry_Int_Tables_number      2
_space_group_name_Hall           '-P 1'
loop_
_symmetry_equiv_pos_site_id
_symmetry_equiv_pos_as_xyz
1 x,y,z
2 -x,-y,-z
_cell_length_a                   8.9424(4)
_cell_length_b                   10.1776(5)
_cell_length_c                   10.3602(3)
_cell_angle_alpha                62.502(9)
_cell_angle_beta                 87.309(7)
_cell_angle_gamma                66.037(5)
_cell_volume                     752.71
loop_
_atom_site_label
_atom_site_type_symbol
_atom_site_fract_x
_atom_site_fract_y
_atom_site_fract_z
Ni1 Ni 0.5000 0.0000 0.5000
N1 N 0.3893(4) 0.1555(4) 0.5871(4)
H1 H 0.454(5) 0.092(6) 0.693(5)
N2 N 0.3219(5) -0.0846(4) 0.5819(4)
H2 H 0.262(7) -0.028(8) 0.509(7)
O1 O 0.6903(4) -0.1685(4) 0.6872(3)
O2 O 0.6270(5) -0.0920(5) 0.8593(4)
C1 C 0.3878(6) 0.3198(6) 0.5006(6)
H3 H 0.3392 0.3833 0.5509
H4 H 0.3189 0.3773 0.4044
C2 C 0.2240(5) 0.1597(5) 0.6109(5)
H5 H 0.1508 0.2253 0.5146
C3 C 0.1441(7) 0.2341(7) 0.7097(6)
H6 H 0.2179 0.1737 0.8038
H7 H 0.1284 0.3473 0.6635
C4 C -0.0219(7) 0.2289(8) 0.7360(8)
H8 H -0.0667 0.2719 0.8026
H9 H -0.0992 0.2980 0.6431
C5 C -0.0044(8) 0.0553(8) 0.8015(7)
H10 H -0.1131 0.0561 0.8117
H11 H 0.0635 -0.0114 0.8990
C6 C 0.0747(7) -0.0193(7) 0.7043(7)
H12 H 0.0016 0.0416 0.6097
H13 H 0.0889 -0.1320 0.7503
C7 C 0.2419(6) -0.0164(6) 0.6796(5)
H14 H 0.3155 -0.0819 0.7756
C8 C 0.3599(6) -0.2604(6) 0.6352(6)
H15 H 0.2539 -0.2682 0.6402
C9 C 0.4401(7) -0.3082(6) 0.5198(6)
H16 H 0.4436 -0.4139 0.5451
H17 H 0.3672 -0.2287 0.4251
C10 C 0.4626(8) -0.3733(6) 0.7856(6)
H18 H 0.4078 -0.3383 0.8536
H19 H 0.5692 -0.3715 0.7835
H20 H 0.4771 -0.4831 0.8167
C11 C 0.7202(6) -0.1838(5) 0.8119(5)
C12 C 0.8817(5) -0.3245(5) 0.9127(4)
H21 H 0.9420 -0.2774 0.9411
C13 C 0.9942(6) -0.4185(5) 0.8405(5)
H22 H 1.0210 -0.3437 0.7538
H23 H 0.9362 -0.4637 0.8087
C14 C 0.8459(6) -0.4428(6) 1.0540(5)
H24 H 0.7787 -0.3829 1.1024
H25 H 0.7831 -0.4888 1.0288
Ni1_2 Ni 1.5000 -1.0000 1.5000
N1A N 0.6107(4) -0.1555(4) 0.4129(4)
H1A H 0.546(5) -0.092(6) 0.307(5)
N2A N 0.6781(5) 0.0846(4) 0.4181(4)
H2A H 0.738(7) 0.028(8) 0.491(7)
O1A O 1.3097(4) -0.8315(4) 1.3128(3)
O1A_2 O 0.3097(4) 0.1685(4) 0.3128(3)
O2A O 1.3730(5) -0.9080(5) 1.1407(4)
C1A C 0.6122(6) -0.3198(6) 0.4994(6)
H3A H 0.6608 -0.3833 0.4491
H4A H 0.6811 -0.3773 0.5956
C2A C 0.7760(5) -0.1597(5) 0.3891(5)
H5A H 0.8492 -0.2253 0.4854
C3A C 0.8559(7) -0.2341(7) 0.2903(6)
H6A H 0.7821 -0.1737 0.1962
H7A H 0.8716 -0.3473 0.3365
C4A C 1.0219(7) -0.2289(8) 0.2640(8)
H8A H 1.0667 -0.2719 0.1974
H9A H 1.0992 -0.2980 0.3569
C5A C 1.0044(8) -0.0553(8) 0.1985(7)
H10A H 1.1131 -0.0561 0.1883
H11A H 0.9365 0.0114 0.1010
C6A C 0.9253(7) 0.0193(7) 0.2957(7)
H12A H 0.9984 -0.0416 0.3903
H13A H 0.9111 0.1320 0.2497
C7A C 0.7581(6) 0.0164(6) 0.3204(5)
H14A H 0.6845 0.0819 0.2244
C8A C 0.6401(6) 0.2604(6) 0.3648(6)
H15A H 0.7461 0.2682 0.3598
C9A C 0.5599(7) 0.3082(6) 0.4802(6)
H16A H 0.5564 0.4139 0.4549
H17A H 0.6328 0.2287 0.5749
C10A C 0.5374(8) 0.3733(6) 0.2144(6)
H18A H 0.5922 0.3383 0.1464
H19A H 0.4308 0.3715 0.2165
H20A H 0.5229 0.4831 0.1833
C11A C 1.2798(6) -0.8162(5) 1.1881(5)
C12A C 1.1183(5) -0.6755(5) 1.0873(4)
H21A H 1.0580 -0.7226 1.0589
C13A C 1.0058(6) -0.5815(5) 1.1595(5)
H22A H 0.9790 -0.6563 1.2462
H23A H 1.0638 -0.5363 1.1913
C14A C 1.1541(6) -0.5572(6) 0.9460(5)
H24A H 1.2213 -0.6171 0.8976
H25A H 1.2169 -0.5112 0.9712
O3 O 0.5671(11) 0.1807(10) 0.9075(9)
H26 H 0.496(15) 0.158(16) 0.960(15)
H27 H 0.604(9) 0.098(10) 0.921(8)
loop_
_geom_bond_atom_site_label_1
_geom_bond_atom_site_label_2
_geom_bond_site_symmetry_1
_geom_bond_site_symmetry_2
Ni1 N1 1_555 1_555
N1 H1 1_555 1_555
N2 Ni1 1_555 1_555
H2 N2 1_555 1_555
O1 Ni1 1_555 1_555
O2 C11 1_555 1_555
C1 N1 1_555 1_555
H3 C1 1_555 1_555
H4 C1 1_555 1_555
C2 N1 1_555 1_555
H5 C2 1_555 1_555
C3 C2 1_555 1_555
H6 C3 1_555 1_555
H7 C3 1_555 1_555
C4 C3 1_555 1_555
H8 C4 1_555 1_555
H9 C4 1_555 1_555
C5 C4 1_555 1_555
H10 C5 1_555 1_555
H11 C5 1_555 1_555
C6 C5 1_555 1_555
H12 C6 1_555 1_555
H13 C6 1_555 1_555
C7 N2 1_555 1_555
H14 C7 1_555 1_555
C8 N2 1_555 1_555
H15 C8 1_555 1_555
C9 C8 1_555 1_555
H16 C9 1_555 1_555
H17 C9 1_555 1_555
C10 C8 1_555 1_555
H18 C10 1_555 1_555
H19 C10 1_555 1_555
H20 C10 1_555 1_555
C11 O1 1_555 1_555
C12 C11 1_555 1_555
H21 C12 1_555 1_555
C13 C12 1_555 1_555
H22 C13 1_555 1_555
H23 C13 1_555 1_555
C14 C12 1_555 1_555
H24 C14 1_555 1_555
H25 C14 1_555 1_555
O3 H26 1_555 1_555
H27 O3 1_555 1_555
Ni1_2 O1A 1_555 1_555
N1A Ni1 1_555 1_555
H1A N1A 1_555 1_555
N2A Ni1 1_555 1_555
H2A N2A 1_555 1_555
O1A C11A 1_555 1_555
O1A_2 Ni1 1_555 1_555
O2A C11A 1_555 1_555
C1A C9 1_555 1_555
H3A C1A 1_555 1_555
H4A C1A 1_555 1_555
C2A N1A 1_555 1_555
H5A C2A 1_555 1_555
C3A C2A 1_555 1_555
H6A C3A 1_555 1_555
H7A C3A 1_555 1_555
C4A C3A 1_555 1_555
H8A C4A 1_555 1_555
H9A C4A 1_555 1_555
C5A C4A 1_555 1_555
H10A C5A 1_555 1_555
H11A C5A 1_555 1_555
C6A C5A 1_555 1_555
H12A C6A 1_555 1_555
H13A C6A 1_555 1_555
C7A N2A 1_555 1_555
H14A C7A 1_555 1_555
C8A N2A 1_555 1_555
H15A C8A 1_555 1_555
C9A C1 1_555 1_555
H16A C9A 1_555 1_555
H17A C9A 1_555 1_555
C10A C8A 1_555 1_555
H18A C10A 1_555 1_555
H19A C10A 1_555 1_555
H20A C10A 1_555 1_555
C11A C12A 1_555 1_555
C12A H21A 1_555 1_555
C13A C14 1_555 1_555
H22A C13A 1_555 1_555
H23A C13A 1_555 1_555
C14A C13 1_555 1_555
H24A C14A 1_555 1_555
H25A C14A 1_555 1_555
C2 C7 1_555 1_555
C6 C7 1_555 1_555
N1A C1A 1_555 1_555
C2A C7A 1_555 1_555
C6A C7A 1_555 1_555
C8A C9A 1_555 1_555
C12A C13A 1_555 1_555
C12A C14A 1_555 1_555

#END
