
#######################################################################
#
#                 Cambridge Crystallographic Data Centre
#                                CCDC 
#
#######################################################################
#
# If this CIF has been generated from an entry in the Cambridge 
# Structural Database, then it will include bibliographic, chemical, 
# crystal, experimental, refinement or atomic coordinate data resulting 
# from the CCDC's data processing and validation procedures.
#
#######################################################################

data_TASUCM01
_symmetry_cell_setting           monoclinic
_symmetry_space_group_name_H-M   'P 21/c'
_symmetry_Int_Tables_number      14
_space_group_name_Hall           '-P 2ybc'
loop_
_symmetry_equiv_pos_site_id
_symmetry_equiv_pos_as_xyz
1 x,y,z
2 -x,1/2+y,1/2-z
3 -x,-y,-z
4 x,1/2-y,1/2+z
_cell_length_a                   7.513(2)
_cell_length_b                   14.915(3)
_cell_length_c                   7.891(2)
_cell_angle_alpha                90
_cell_angle_beta                 99.94(2)
_cell_angle_gamma                90
_cell_volume                     870.964
loop_
_atom_site_label
_atom_site_type_symbol
_atom_site_fract_x
_atom_site_fract_y
_atom_site_fract_z
Mn1 Mn 0.07330(3) 0.355866(17) 0.31062(3)
O1 O -0.13369(17) 0.33249(9) 0.08945(16)
O2 O -0.24532(19) 0.46868(9) 0.03079(17)
O3 O -0.73037(17) 0.37121(9) -0.45485(16)
O4 O -0.47904(17) 0.36898(9) -0.56658(16)
C1 C -0.2368(2) 0.38757(12) -0.0038(2)
C2 C -0.3549(3) 0.34936(13) -0.1624(2)
C3 C -0.4582(3) 0.42043(13) -0.2773(2)
C4 C -0.5614(2) 0.38376(11) -0.4444(2)
H1 H -0.284(3) 0.3151(17) -0.222(3)
H2 H -0.442(3) 0.3061(17) -0.124(3)
H3 H -0.370(3) 0.4608(16) -0.306(3)
H4 H -0.540(3) 0.4485(17) -0.214(3)
O5 O 0.0178(2) 0.49897(10) 0.2954(2)
H5 H 0.029(4) 0.540(2) 0.358(4)
H6 H -0.075(5) 0.503(3) 0.209(5)
O6 O 0.1439(2) 0.21325(9) 0.31872(19)
H7 H 0.187(4) 0.1883(19) 0.243(4)
H8 H 0.193(4) 0.194(2) 0.408(4)
O7 O -0.12025(18) 0.34048(10) 0.48492(18)
H9 H -0.124(4) 0.290(2) 0.519(4)
H10 H -0.217(4) 0.3524(17) 0.450(4)
O8 O 0.27975(19) 0.37285(10) 0.13761(17)
H11 H 0.363(5) 0.368(2) 0.208(4)
H12 H 0.283(4) 0.426(2) 0.095(4)
O3_2 O 0.26963(17) 0.37121(9) 0.54515(16)
Mn1_2 Mn -0.92670(3) 0.355866(17) -0.68938(3)
loop_
_geom_bond_atom_site_label_1
_geom_bond_atom_site_label_2
_geom_bond_site_symmetry_1
_geom_bond_site_symmetry_2
Mn1 O1 1_555 1_555
O1 C1 1_555 1_555
O2 C1 1_555 1_555
O3 C4 1_555 1_555
O4 C4 1_555 1_555
C1 C2 1_555 1_555
C2 C3 1_555 1_555
C3 C4 1_555 1_555
H1 C2 1_555 1_555
H2 C2 1_555 1_555
H3 C3 1_555 1_555
H4 C3 1_555 1_555
O5 Mn1 1_555 1_555
H5 O5 1_555 1_555
H6 O5 1_555 1_555
O6 Mn1 1_555 1_555
H7 O6 1_555 1_555
H8 O6 1_555 1_555
O7 Mn1 1_555 1_555
H9 O7 1_555 1_555
H10 O7 1_555 1_555
O8 Mn1 1_555 1_555
H11 O8 1_555 1_555
H12 O8 1_555 1_555
O3_2 Mn1 1_555 1_555
Mn1_2 O3 1_555 1_555

#END
