
#######################################################################
#
#                 Cambridge Crystallographic Data Centre
#                                CCDC 
#
#######################################################################
#
# If this CIF has been generated from an entry in the Cambridge 
# Structural Database, then it will include bibliographic, chemical, 
# crystal, experimental, refinement or atomic coordinate data resulting 
# from the CCDC's data processing and validation procedures.
#
#######################################################################

data_TASWOB
_symmetry_cell_setting           orthorhombic
_symmetry_space_group_name_H-M   'P n n a'
_symmetry_Int_Tables_number      52
_space_group_name_Hall           '-P 2a 2bc'
loop_
_symmetry_equiv_pos_site_id
_symmetry_equiv_pos_as_xyz
1 x,y,z
2 1/2-x,-y,z
3 x,1/2-y,1/2-z
4 1/2-x,1/2+y,1/2-z
5 -x,-y,-z
6 1/2+x,y,-z
7 -x,1/2+y,1/2+z
8 1/2+x,1/2-y,1/2+z
_cell_length_a                   25.63(2)
_cell_length_b                   26.60(3)
_cell_length_c                   14.517(14)
_cell_angle_alpha                90
_cell_angle_beta                 90
_cell_angle_gamma                90
_cell_volume                     9897.08
loop_
_atom_site_label
_atom_site_type_symbol
_atom_site_fract_x
_atom_site_fract_y
_atom_site_fract_z
Tb1 Tb 0.39725(2) -0.18427(2) 0.14849(4)
Cl1 Cl 0.57778(16) -0.47700(13) 0.0040(3)
Cl2 Cl 0.50955(17) -0.36620(18) -0.1706(3)
Cl3 Cl 0.54519(16) -0.56627(12) -0.1179(3)
Cl4 Cl 0.42871(13) -0.32416(15) -0.0342(3)
Cl5 Cl 0.6156(2) -0.47106(17) -0.4178(3)
Cl6 Cl 0.65344(14) -0.36534(16) 0.1021(3)
Cl7 Cl 0.63956(17) -0.37556(13) -0.3013(3)
Cl8 Cl 0.57230(16) -0.31684(16) 0.2314(3)
Cl9 Cl 0.62005(14) -0.26880(13) -0.1240(3)
Cl10 Cl 0.71535(14) -0.44946(11) -0.0757(3)
Cl11 Cl 0.82191(14) -0.39832(14) -0.1059(3)
Cl12 Cl 0.72686(15) -0.21868(12) -0.1445(3)
O1 O 0.4508(3) -0.2542(3) 0.1352(6)
O2 O 0.3927(6) -0.1943(7) -0.0121(11)
H1 H 0.3926 -0.1673 -0.0494
H2 H 0.3917 -0.2255 -0.0362
O3 O 0.3216(7) -0.1413(6) 0.0891(16)
H3 H 0.3051 -0.1595 0.0428
O4 O 0.4502(3) -0.3224(3) 0.2209(7)
O5 O 0.6006(3) -0.5960(3) -0.3197(6)
O6 O 0.4743(5) -0.1520(5) 0.0759(9)
H4 H 0.4779 -0.1173 0.0802
O7 O 0.8380(3) -0.2525(3) -0.1055(6)
O8 O 0.8411(3) -0.3057(4) -0.2291(7)
C1 C 0.6200(5) -0.3845(4) -0.0965(10)
C2 C 0.6087(3) -0.4299(2) -0.1517(5)
C3 C 0.5876(3) -0.4727(3) -0.1112(4)
C4 C 0.5753(3) -0.5142(2) -0.1651(6)
C5 C 0.5840(3) -0.5129(2) -0.2596(6)
C6 C 0.6051(3) -0.4702(3) -0.3001(4)
C7 C 0.6174(3) -0.4287(2) -0.2462(5)
C8 C 0.5797(4) -0.3626(4) -0.0325(9)
C9 C 0.5278(5) -0.3544(4) -0.0595(9)
C10 C 0.5156(8) -0.1760(6) 0.0275(13)
H5 H 0.5021 -0.2074 0.0032
H6 H 0.5424 -0.1846 0.0721
C11 C 0.4919(4) -0.3332(4) 0.0005(9)
C12 C 0.5046(5) -0.3208(4) 0.0916(9)
C13 C 0.5549(5) -0.3309(5) 0.1210(9)
C14 C 0.5917(4) -0.3512(4) 0.0591(9)
C15 C 0.5422(8) -0.1480(6) -0.0524(12)
H7 H 0.5708 -0.1677 -0.0753
H8 H 0.5550 -0.1162 -0.0308
H9 H 0.5174 -0.1425 -0.1010
O9 O 0.5254(5) -0.5575(4) -0.3614(9)
C16 C 0.6710(4) -0.3587(4) -0.1021(9)
C17 C 0.7155(4) -0.3870(4) -0.1004(10)
C18 C 0.6747(5) -0.3070(4) -0.1116(10)
C19 C 0.7661(5) -0.3640(4) -0.1119(10)
C20 C 0.7242(4) -0.2838(4) -0.1247(10)
C21 C 0.4656(5) -0.2971(5) 0.1547(9)
C22 C 0.8217(5) -0.2867(5) -0.1561(10)
C23 C 0.5668(7) -0.5597(5) -0.3228(10)
C24 C 0.2959(10) -0.0947(7) 0.108(2)
H10 H 0.2632 -0.1062 0.1342
H11 H 0.2868 -0.0837 0.0462
C25 C 0.7700(6) -0.3115(5) -0.1313(9)
C26 C 0.3032(11) -0.0440(8) 0.158(2)
H12 H 0.2788 -0.0200 0.1336
H13 H 0.3381 -0.0321 0.1477
H14 H 0.2973 -0.0484 0.2223
Tb1B Tb 0.39725(2) -0.31573(2) 0.35151(4)
Tb1F Tb 0.60275(2) -0.68427(2) -0.35151(4)
Tb1E Tb 0.89725(2) -0.18427(2) -0.14849(4)
Tb1G Tb 0.89725(2) -0.31573(2) -0.35151(4)
O4B O 0.4502(3) -0.1776(3) 0.2791(7)
O5F O 0.3994(3) -0.0960(3) 0.1803(6)
O7E O 0.3380(3) -0.2525(3) 0.1055(6)
O8G O 0.3411(3) -0.1943(4) 0.2709(7)
loop_
_geom_bond_atom_site_label_1
_geom_bond_atom_site_label_2
_geom_bond_site_symmetry_1
_geom_bond_site_symmetry_2
Tb1 O1 1_555 1_555
Cl1 C3 1_555 1_555
Cl2 C9 1_555 1_555
Cl3 C4 1_555 1_555
Cl4 C11 1_555 1_555
Cl5 C6 1_555 1_555
Cl6 C14 1_555 1_555
Cl7 C7 1_555 1_555
Cl8 C13 1_555 1_555
Cl9 C18 1_555 1_555
Cl10 C17 1_555 1_555
Cl11 C19 1_555 1_555
Cl12 C20 1_555 1_555
O1 C21 1_555 1_555
O2 Tb1 1_555 1_555
H1 O2 1_555 1_555
H2 O2 1_555 1_555
O3 Tb1 1_555 1_555
H3 O3 1_555 1_555
O4 C21 1_555 1_555
O5 C23 1_555 1_555
O6 Tb1 1_555 1_555
H4 O6 1_555 1_555
O7 C22 1_555 1_555
O8 C22 1_555 1_555
C1 C2 1_555 1_555
C2 C3 1_555 1_555
C3 C4 1_555 1_555
C4 C5 1_555 1_555
C5 C6 1_555 1_555
C6 C7 1_555 1_555
C7 C2 1_555 1_555
C8 C1 1_555 1_555
C9 C8 1_555 1_555
C10 O6 1_555 1_555
H5 C10 1_555 1_555
H6 C10 1_555 1_555
C11 C9 1_555 1_555
C12 C11 1_555 1_555
C13 C12 1_555 1_555
C14 C8 1_555 1_555
C15 C10 1_555 1_555
H7 C15 1_555 1_555
H8 C15 1_555 1_555
H9 C15 1_555 1_555
O9 C23 1_555 1_555
C16 C1 1_555 1_555
C17 C16 1_555 1_555
C18 C16 1_555 1_555
C19 C17 1_555 1_555
C20 C18 1_555 1_555
C21 C12 1_555 1_555
C22 C25 1_555 1_555
C23 C5 1_555 1_555
C24 O3 1_555 1_555
H10 C24 1_555 1_555
H11 C24 1_555 1_555
C25 C19 1_555 1_555
C26 C24 1_555 1_555
H12 C26 1_555 1_555
H13 C26 1_555 1_555
H14 C26 1_555 1_555
Tb1B O4 1_555 1_555
Tb1F O5 1_555 1_555
Tb1E O7 1_555 1_555
Tb1G O8 1_555 1_555
O4B Tb1 1_555 1_555
O5F Tb1 1_555 1_555
O7E Tb1 1_555 1_555
O8G Tb1 1_555 1_555
C13 C14 1_555 1_555
C20 C25 1_555 1_555

#END
