
#######################################################################
#
#                 Cambridge Crystallographic Data Centre
#                                CCDC 
#
#######################################################################
#
# If this CIF has been generated from an entry in the Cambridge 
# Structural Database, then it will include bibliographic, chemical, 
# crystal, experimental, refinement or atomic coordinate data resulting 
# from the CCDC's data processing and validation procedures.
#
#######################################################################

data_TATCOI
_symmetry_cell_setting           monoclinic
_symmetry_space_group_name_H-M   'P 21/c'
_symmetry_Int_Tables_number      14
_space_group_name_Hall           '-P 2ybc'
loop_
_symmetry_equiv_pos_site_id
_symmetry_equiv_pos_as_xyz
1 x,y,z
2 -x,1/2+y,1/2-z
3 -x,-y,-z
4 x,1/2-y,1/2+z
_cell_length_a                   19.2591(17)
_cell_length_b                   8.2537(7)
_cell_length_c                   18.5663(17)
_cell_angle_alpha                90
_cell_angle_beta                 104.472(1)
_cell_angle_gamma                90
_cell_volume                     2857.63
loop_
_atom_site_label
_atom_site_type_symbol
_atom_site_fract_x
_atom_site_fract_y
_atom_site_fract_z
Tb1 Tb 1.032087(14) 1.08430(3) 0.285164(13)
Tb2 Tb 0.511632(14) 0.50665(3) 0.222950(13)
O1 O 0.9978(2) 1.2712(5) 0.3589(2)
O2 O 0.9375(3) 1.4931(5) 0.3180(2)
O3 O 0.9704(2) 1.2286(5) 0.6895(2)
O4 O 0.9709(3) 1.0483(5) 0.6030(2)
O5 O 0.9141(2) 1.0125(5) 0.2594(2)
O6 O 0.8769(2) 0.7671(5) 0.2187(2)
O7 O 0.6239(2) 0.6228(5) 0.2230(2)
O8 O 0.56466(19) 0.7776(5) 0.2818(2)
O9 O 0.4411(2) 0.5879(5) 0.2983(2)
O10 O 0.4517(2) 0.8286(5) 0.3535(2)
O11 O 0.4539(2) 0.8412(5) 0.6241(2)
O12 O 0.4241(2) 0.6166(5) 0.6749(2)
O13 O 1.1556(3) 0.9718(6) 0.3371(3)
H1 H 1.1796 0.9870 0.3817
Br1 Br 0.80740(5) 1.71421(10) 0.51958(4)
Br2 Br 0.75711(4) 1.19114(11) 0.45158(5)
Br3 Br 0.36534(4) 0.14335(8) 0.47217(4)
C1 C 0.9579(3) 1.3843(7) 0.3654(3)
C2 C 0.9330(3) 1.3971(7) 0.4353(3)
C3 C 0.8888(3) 1.5260(7) 0.4441(3)
H2 H 0.8721 1.5988 0.4054
C4 C 0.8703(3) 1.5441(7) 0.5102(3)
C5 C 0.8963(3) 1.4399(7) 0.5696(3)
H3 H 0.8851 1.4568 0.6150
C6 C 0.9386(3) 1.3121(7) 0.5604(3)
C7 C 0.9564(3) 1.2893(7) 0.4929(3)
H4 H 0.9842 1.2008 0.4866
C8 C 0.9630(3) 1.1895(7) 0.6217(3)
C9 C 0.8714(3) 0.8962(7) 0.2524(3)
C10 C 0.8080(3) 0.9150(7) 0.2857(3)
C11 C 0.8107(3) 1.0287(8) 0.3426(4)
H5 H 0.8511 1.0931 0.3597
C12 C 0.7523(3) 1.0430(8) 0.3728(4)
C13 C 0.6917(3) 0.9506(7) 0.3475(3)
H6 H 0.6529 0.9628 0.3685
C14 C 0.6882(3) 0.8413(7) 0.2918(3)
C15 C 0.7468(3) 0.8207(7) 0.2613(3)
H7 H 0.7450 0.7434 0.2244
C16 C 0.6229(3) 0.7398(7) 0.2642(3)
C17 C 0.4388(3) 0.6802(7) 0.3513(3)
C18 C 0.4204(3) 0.6042(6) 0.4176(3)
C19 C 0.3997(3) 0.4410(7) 0.4144(3)
H8 H 0.3949 0.3825 0.3706
C20 C 0.3867(3) 0.3680(7) 0.4759(3)
C21 C 0.3936(3) 0.4511(7) 0.5418(3)
H9 H 0.3840 0.4002 0.5830
C22 C 0.4152(3) 0.6132(7) 0.5457(3)
C23 C 0.4278(3) 0.6879(7) 0.4836(3)
H10 H 0.4416 0.7962 0.4862
C24 C 0.4314(3) 0.6964(7) 0.6193(3)
C25 C 1.1936(5) 0.8546(15) 0.3009(8)
H11 H 1.1642 0.7576 0.2920
H12 H 1.1930 0.8991 0.2524
C26 C 1.2583(6) 0.8075(18) 0.3297(10)
H13 H 1.2781 0.8687 0.3740
H14 H 1.2868 0.8243 0.2946
H15 H 1.2583 0.6945 0.3418
Tb1A Tb 0.967913(14) 1.58430(3) 0.214836(13)
Tb1B Tb 0.967913(14) 0.91570(3) 0.714836(13)
Tb1C Tb 1.032087(14) 1.41570(3) 0.785164(13)
Tb1A_2 Tb 0.967913(14) 0.58430(3) 0.214836(13)
Tb2A Tb 0.488368(14) 1.00665(3) 0.277050(13)
Tb2C Tb 0.511632(14) 0.99335(3) 0.722950(13)
Tb2B Tb 0.488368(14) 0.49335(3) 0.777050(13)
O2A O 1.0625(3) 0.9931(5) 0.1820(2)
O3B O 1.0296(2) 0.7714(5) 0.3105(2)
O3C O 0.9704(2) 1.2714(5) 0.1895(2)
O4B O 1.0291(3) 0.9517(5) 0.3970(2)
O6A O 1.1231(2) 1.2671(5) 0.2813(2)
O8A O 0.43534(19) 0.2776(5) 0.2182(2)
O10A O 0.5483(2) 0.3286(5) 0.1465(2)
O11C O 0.4539(2) 0.6588(5) 0.1241(2)
O12B O 0.5759(2) 0.3834(5) 0.3251(2)
loop_
_geom_bond_atom_site_label_1
_geom_bond_atom_site_label_2
_geom_bond_site_symmetry_1
_geom_bond_site_symmetry_2
Tb1 O1 1_555 1_555
Tb2 O7 1_555 1_555
O1 C1 1_555 1_555
O2 C1 1_555 1_555
O3 C8 1_555 1_555
O4 C8 1_555 1_555
O5 Tb1 1_555 1_555
O6 C9 1_555 1_555
O7 C16 1_555 1_555
O8 Tb2 1_555 1_555
O9 Tb2 1_555 1_555
O10 C17 1_555 1_555
O11 C24 1_555 1_555
O12 C24 1_555 1_555
O13 Tb1 1_555 1_555
H1 O13 1_555 1_555
Br1 C4 1_555 1_555
Br2 C12 1_555 1_555
Br3 C20 1_555 1_555
C1 C2 1_555 1_555
C2 C3 1_555 1_555
C3 H2 1_555 1_555
C4 C3 1_555 1_555
C5 C4 1_555 1_555
H3 C5 1_555 1_555
C6 C5 1_555 1_555
C7 C2 1_555 1_555
H4 C7 1_555 1_555
C8 C6 1_555 1_555
C9 O5 1_555 1_555
C10 C9 1_555 1_555
C11 C10 1_555 1_555
H5 C11 1_555 1_555
C12 C11 1_555 1_555
C13 C12 1_555 1_555
H6 C13 1_555 1_555
C14 C13 1_555 1_555
C15 C10 1_555 1_555
H7 C15 1_555 1_555
C16 O8 1_555 1_555
C17 O9 1_555 1_555
C18 C17 1_555 1_555
C19 C18 1_555 1_555
H8 C19 1_555 1_555
C20 C19 1_555 1_555
C21 C20 1_555 1_555
H9 C21 1_555 1_555
C22 C21 1_555 1_555
C23 C18 1_555 1_555
H10 C23 1_555 1_555
C24 C22 1_555 1_555
C25 O13 1_555 1_555
H11 C25 1_555 1_555
H12 C25 1_555 1_555
C26 C25 1_555 1_555
H13 C26 1_555 1_555
H14 C26 1_555 1_555
H15 C26 1_555 1_555
Tb1A O2 1_555 1_555
Tb1B O3 1_555 1_555
Tb1C O3 1_555 1_555
Tb1A_2 O6 1_555 1_555
Tb2A O8 1_555 1_555
Tb2C O11 1_555 1_555
Tb2B O12 1_555 1_555
O2A Tb1 1_555 1_555
O3B Tb1 1_555 1_555
O3C Tb1 1_555 1_555
O4B Tb1 1_555 1_555
O6A Tb1 1_555 1_555
O8A Tb2 1_555 1_555
O10A Tb2 1_555 1_555
O11C Tb2 1_555 1_555
O12B Tb2 1_555 1_555
O4 Tb1B 1_555 1_555
O10 Tb2A 1_555 1_555
C6 C7 1_555 1_555
C14 C15 1_555 1_555
C14 C16 1_555 1_555
C22 C23 1_555 1_555
Tb1A O3C 1_555 1_555
Tb1A_2 O3B 1_555 1_555

#END
