
#######################################################################
#
#                 Cambridge Crystallographic Data Centre
#                                CCDC 
#
#######################################################################
#
# If this CIF has been generated from an entry in the Cambridge 
# Structural Database, then it will include bibliographic, chemical, 
# crystal, experimental, refinement or atomic coordinate data resulting 
# from the CCDC's data processing and validation procedures.
#
#######################################################################

data_TATFUR
_symmetry_cell_setting           triclinic
_symmetry_space_group_name_H-M   'P -1'
_symmetry_Int_Tables_number      2
_space_group_name_Hall           '-P 1'
loop_
_symmetry_equiv_pos_site_id
_symmetry_equiv_pos_as_xyz
1 x,y,z
2 -x,-y,-z
_cell_length_a                   10.2796(13)
_cell_length_b                   17.636(2)
_cell_length_c                   23.237(3)
_cell_angle_alpha                105.046(2)
_cell_angle_beta                 102.534(2)
_cell_angle_gamma                100.758(2)
_cell_volume                     3837.08
loop_
_atom_site_label
_atom_site_type_symbol
_atom_site_fract_x
_atom_site_fract_y
_atom_site_fract_z
Zn1 Zn 0.42413(4) 0.12550(3) 0.857890(18)
Zn2 Zn 1.57590(4) 0.42390(3) 0.651970(19)
Cl1 Cl 0.74375(18) 0.17619(10) 0.65956(8)
Cl2 Cl 1.55124(19) 0.83709(11) 0.65579(9)
O1 O 0.2888(3) 0.16904(17) 0.89384(12)
N1 N 1.3738(3) 0.5274(2) 0.53248(14)
O2 O 1.7742(3) 0.45023(17) 0.66328(13)
N2 N 0.5705(3) 0.22018(18) 0.86047(14)
O3 O 1.7775(3) 0.56155(18) 0.73517(15)
N3 N 0.6998(3) 0.3092(2) 0.83194(17)
O4 O 0.4439(3) 0.19988(17) 0.98393(13)
N4 N 1.4032(3) 0.36876(19) 0.78473(14)
C1 C 0.8969(5) -0.0688(3) 0.9702(2)
H1 H 0.8259 -0.1158 0.9499
N5 N 1.4952(3) 0.49408(19) 0.60747(14)
O5 O 1.5776(4) 0.3026(2) 0.53184(15)
N6 N 1.5076(3) 0.42128(18) 0.72643(13)
N7 N 0.6273(3) -0.0023(2) 0.95676(18)
N8 N 0.5053(3) 0.04782(19) 0.89369(14)
O6 O 1.1994(3) 0.2982(2) 0.51636(19)
C2 C 0.9080(4) 0.3365(2) 0.79607(18)
C3 C 1.4888(4) 0.2759(2) 0.5540(2)
C4 C 1.8327(4) 0.5217(3) 0.7008(2)
C5 C 1.3146(4) 0.3093(3) 0.80309(19)
H2 H 1.3583 0.3136 0.8452
H3 H 1.3080 0.2556 0.7774
C6 C 1.8564(4) 0.7299(2) 0.6813(2)
H4 H 1.9102 0.7066 0.6581
C7 C 1.0851(4) 0.2693(3) 0.8164(2)
H5 H 1.1145 0.2281 0.8295
C8 C 1.9783(4) 0.5568(2) 0.70202(17)
C9 C 2.1802(4) 0.6691(3) 0.7358(2)
H6 H 2.2248 0.7234 0.7572
C10 C 1.1738(4) 0.3211(2) 0.79906(16)
C11 C 0.9953(4) 0.3876(2) 0.7777(2)
H7 H 0.9657 0.4285 0.7645
C12 C 0.3299(4) 0.1987(2) 0.95210(19)
C13 C 2.1841(5) 0.5397(3) 0.6727(2)
H8 H 2.2312 0.5065 0.6522
C14 C 1.8745(4) 0.7292(2) 0.74162(19)
C15 C 0.5129(5) 0.3944(3) 1.0326(2)
H9 H 0.4239 0.3855 1.0078
C16 C 1.0925(5) 0.1793(3) 0.6117(2)
H10 H 1.1621 0.1524 0.6155
C17 C 1.4287(3) 0.3560(2) 0.72972(16)
H11 H 1.3947 0.3069 0.6977
C18 C 1.9794(4) 0.6945(3) 0.7725(2)
C19 C 1.4013(4) 0.4672(2) 0.55294(18)
H12 H 1.3597 0.4125 0.5315
C20 C 2.0441(4) 0.6382(2) 0.73520(18)
C21 C 2.0486(4) 0.5087(3) 0.67095(19)
H13 H 2.0044 0.4546 0.6485
C22 C 1.1860(4) 0.2414(3) 0.5379(2)
C23 C 0.6505(4) 0.2825(3) 0.9126(2)
H14 H 0.6498 0.2864 0.9532
C24 C 1.6792(5) 0.7971(3) 0.6891(3)
C25 C 0.5927(4) 0.0639(3) 0.94853(19)
H15 H 0.6262 0.1152 0.9779
C26 C 0.5365(5) 0.3560(3) 1.0771(2)
C27 C 1.4695(4) 0.4473(3) 0.81842(19)
H16 H 1.4705 0.4737 0.8588
C28 C 0.7241(4) -0.0050(3) 1.0124(2)
H17 H 0.6897 -0.0525 1.0230
H18 H 0.7309 0.0419 1.0461
C29 C 1.2549(5) 0.1759(2) 0.51749(19)
C30 C 0.2788(5) 0.2817(3) 1.0466(2)
C31 C 0.2327(4) 0.2347(2) 0.98411(19)
C32 C 0.8679(4) -0.0016(3) 1.0058(2)
C33 C 1.1262(4) 0.3796(3) 0.77850(19)
H19 H 1.1830 0.4144 0.7649
C34 C 0.6042(4) 0.2393(2) 0.81358(19)
H20 H 0.5654 0.2074 0.7723
C35 C 1.3927(5) 0.1930(2) 0.52070(18)
C36 C 0.7650(4) 0.3465(3) 0.7928(2)
H21 H 0.7687 0.4034 0.8050
H22 H 0.7089 0.3226 0.7505
C37 C 0.9540(4) 0.2764(3) 0.8152(2)
H23 H 0.8959 0.2403 0.8273
C38 C 0.8854(6) 0.2621(3) 0.6028(2)
H24 H 0.8177 0.2904 0.6009
C39 C 1.0275(5) -0.0688(3) 0.9636(2)
C40 C 0.4237(6) 0.2985(3) 1.0859(2)
C41 C 0.8857(5) 0.2043(3) 0.6330(2)
C42 C 1.7594(5) 0.7647(3) 0.6549(2)
H25 H 1.7488 0.7661 0.6144
C43 C 1.0912(5) 0.2325(3) 0.5771(2)
C44 C 1.5333(4) 0.4794(2) 0.78235(19)
H26 H 1.5863 0.5325 0.7936
C45 C 1.5283(4) 0.5776(2) 0.62236(19)
H27 H 1.5918 0.6138 0.6584
C46 C 0.0955(5) 0.2174(3) 0.9522(2)
H28 H 0.0648 0.1856 0.9107
C47 C 0.7299(4) 0.3370(3) 0.8950(2)
H29 H 0.7936 0.3849 0.9211
C48 C 1.4539(4) 0.5983(3) 0.5763(2)
H30 H 1.4566 0.6506 0.5746
C49 C 0.9905(5) 0.2759(3) 0.5753(2)
H31 H 0.9941 0.3151 0.5552
C50 C 1.6933(6) 0.7969(3) 0.7480(3)
H32 H 1.6369 0.8190 0.7702
C51 C 0.0491(7) 0.2942(4) 1.0424(3)
H33 H -0.0123 0.3153 1.0619
C52 C 1.1711(6) 0.0969(3) 0.4866(2)
H34 H 1.0777 0.0850 0.4843
C53 C 0.6232(7) 0.4465(3) 1.0248(3)
H35 H 0.6080 0.4727 0.9949
C54 C 0.4838(4) -0.0341(3) 0.8652(2)
H36 H 0.4267 -0.0636 0.8256
C55 C 0.9910(6) 0.1664(3) 0.6404(2)
H37 H 0.9931 0.1320 0.6647
C56 C 2.2483(5) 0.6197(3) 0.7051(2)
H38 H 2.3391 0.6407 0.7062
C57 C 0.0031(6) 0.2470(4) 0.9813(3)
H39 H -0.0894 0.2350 0.9597
C58 C 1.7915(5) 0.7639(3) 0.7753(2)
H40 H 1.8026 0.7646 0.8163
C59 C 1.4466(6) 0.1319(3) 0.4932(2)
H41 H 1.5396 0.1435 0.4948
C60 C 1.3651(8) 0.0536(3) 0.4633(3)
H42 H 1.4028 0.0125 0.4456
C61 C 0.5591(5) -0.0644(3) 0.9042(3)
H43 H 0.5635 -0.1182 0.8965
C62 C 1.2273(8) 0.0375(3) 0.4601(3)
H44 H 1.1714 -0.0148 0.4394
C63 C 0.6690(7) 0.3701(4) 1.1129(3)
H45 H 0.6855 0.3440 1.1428
C64 C 0.1835(7) 0.3106(3) 1.0750(3)
H46 H 0.2124 0.3414 1.1167
O7 O 1.4716(3) 0.31179(16) 0.60465(13)
Cl3 Cl 0.8855(2) 0.52189(14) 1.04768(10)
O8 O 0.4445(4) 0.2690(2) 1.12770(16)
C65 C 0.7537(8) 0.4588(4) 1.0615(4)
C66 C 0.7792(8) 0.4223(5) 1.1056(3)
H47 H 0.8683 0.4319 1.1306
O9 O 2.0216(3) 0.7159(2) 0.82839(15)
C67 C 1.1277(4) 0.5091(3) 0.48797(17)
C68 C 1.0394(4) 0.4318(3) 0.4707(2)
C69 C 1.2672(4) 0.5188(3) 0.47598(18)
H48 H 1.2665 0.4727 0.4430
H49 H 1.2877 0.5664 0.4635
C70 C 1.0893(4) 0.5763(3) 0.5166(2)
O11 O 0.3312(3) 0.05340(15) 0.77502(12)
C71 C 0.3099(4) 0.0640(3) 0.72206(18)
O12 O 0.3338(4) 0.12988(18) 0.71291(13)
C72 C 0.2585(4) -0.0137(3) 0.66868(17)
C73 C 0.1965(4) -0.0859(3) 0.67580(19)
C74 C 0.1550(4) -0.0916(3) 0.7325(2)
C75 C 0.0522(4) -0.0490(2) 0.7508(2)
C76 C 0.2845(5) -0.0136(3) 0.6125(2)
H52 H 0.3235 0.0351 0.6070
O13 O 0.1983(3) -0.13573(19) 0.76075(15)
C77 C -0.0349(5) -0.0243(3) 0.7099(2)
H53 H -0.0275 -0.0323 0.6697
C78 C 0.0387(5) -0.0375(3) 0.8102(2)
H54 H 0.0950 -0.0554 0.8380
C79 C 0.1685(5) -0.1581(3) 0.6282(2)
H55 H 0.1297 -0.2071 0.6333
C80 C 0.2524(6) -0.0857(4) 0.5650(2)
H56 H 0.2680 -0.0855 0.5271
C81 C -0.1424(6) 0.0236(3) 0.7867(3)
C82 C -0.1324(5) 0.0119(3) 0.7278(3)
H57 H -0.1913 0.0285 0.7000
C83 C -0.0576(7) 0.0001(3) 0.8278(3)
H58 H -0.0648 0.0095 0.8682
C84 C 0.1980(7) -0.1572(4) 0.5735(3)
H59 H 0.1808 -0.2059 0.5419
Cl4 Cl -0.2630(2) 0.07005(11) 0.81079(11)
Zn1A Zn 1.57587(4) -0.12550(3) 1.142110(18)
Zn2A Zn 0.42410(4) -0.42390(3) 1.348030(19)
Zn2A_2 Zn 0.42410(4) 0.57610(3) 0.348030(19)
Cl1A Cl 1.25625(18) -0.17619(10) 1.34044(8)
Cl2A Cl 0.44876(19) -0.83709(11) 1.34421(9)
O1A O 1.7112(3) -0.16904(17) 1.10616(12)
N1A N 0.6262(3) 0.4726(2) 0.46752(14)
O2A O 0.2258(3) -0.45023(17) 1.33672(13)
N2A N 1.4295(3) -0.22018(18) 1.13953(14)
O3A O 0.2225(3) -0.56155(18) 1.26483(15)
N3A N 1.3002(3) -0.3092(2) 1.16806(17)
O4A O 1.5561(3) -0.19988(17) 1.01607(13)
N4A N 0.5968(3) -0.36876(19) 1.21527(14)
C1A C 1.1031(5) 0.0688(3) 1.0298(2)
H1A H 1.1741 0.1158 1.0501
N5A N 0.5048(3) 0.50592(19) 0.39253(14)
N5A_2 N 0.5048(3) -0.49408(19) 1.39253(14)
O5A O 0.4224(4) -0.3026(2) 1.46816(15)
N6A N 0.4924(3) -0.42128(18) 1.27357(13)
N7A N 1.3727(3) 0.0023(2) 1.04324(18)
N8A N 1.4947(3) -0.04782(19) 1.10631(14)
O6A O 0.8006(3) -0.2982(2) 1.48364(19)
C2A C 1.0920(4) -0.3365(2) 1.20393(18)
C3A C 0.5112(4) -0.2759(2) 1.4460(2)
C4A C 0.1673(4) -0.5217(3) 1.2992(2)
C5A C 0.6854(4) -0.3093(3) 1.19691(19)
H2A H 0.6417 -0.3136 1.1548
H3A H 0.6920 -0.2556 1.2226
C6A C 0.1436(4) -0.7299(2) 1.3187(2)
H4A H 0.0898 -0.7066 1.3419
C7A C 0.9149(4) -0.2693(3) 1.1836(2)
H5A H 0.8855 -0.2281 1.1705
C8A C 0.0217(4) -0.5568(2) 1.29798(17)
C9A C -0.1802(4) -0.6691(3) 1.2642(2)
H6A H -0.2248 -0.7234 1.2428
C10A C 0.8262(4) -0.3211(2) 1.20094(16)
C11A C 1.0047(4) -0.3876(2) 1.2223(2)
H7A H 1.0343 -0.4285 1.2355
C12A C 1.6701(4) -0.1987(2) 1.04790(19)
C13A C -0.1841(5) -0.5397(3) 1.3273(2)
H8A H -0.2312 -0.5065 1.3478
C14A C 0.1255(4) -0.7292(2) 1.25838(19)
C15A C 1.4871(5) -0.3944(3) 0.9674(2)
H9A H 1.5761 -0.3855 0.9922
C16A C 0.9075(5) -0.1793(3) 1.3883(2)
H10A H 0.8379 -0.1524 1.3845
C17A C 0.5713(3) -0.3560(2) 1.27028(16)
H11A H 0.6053 -0.3069 1.3023
C18A C 0.0206(4) -0.6945(3) 1.2275(2)
C19A C 0.5987(4) 0.5328(2) 0.44706(18)
H12A H 0.6403 0.5875 0.4685
C20A C -0.0441(4) -0.6382(2) 1.26480(18)
C21A C -0.0486(4) -0.5087(3) 1.32905(19)
H13A H -0.0044 -0.4546 1.3515
C22A C 0.8140(4) -0.2414(3) 1.4621(2)
C23A C 1.3495(4) -0.2825(3) 1.0874(2)
H14A H 1.3502 -0.2864 1.0468
C24A C 0.3208(5) -0.7971(3) 1.3109(3)
C25A C 1.4073(4) -0.0639(3) 1.05147(19)
H15A H 1.3738 -0.1152 1.0221
C26A C 1.4635(5) -0.3560(3) 0.9229(2)
C27A C 0.5305(4) -0.4473(3) 1.18158(19)
H16A H 0.5295 -0.4737 1.1412
C28A C 1.2759(4) 0.0050(3) 0.9876(2)
H17A H 1.3103 0.0525 0.9770
H18A H 1.2691 -0.0419 0.9539
C29A C 0.7451(5) -0.1759(2) 1.48251(19)
C30A C 1.7212(5) -0.2817(3) 0.9534(2)
C31A C 1.7673(4) -0.2347(2) 1.01589(19)
C32A C 1.1321(4) 0.0016(3) 0.9942(2)
C33A C 0.8738(4) -0.3796(3) 1.22150(19)
H19A H 0.8170 -0.4144 1.2351
C34A C 1.3958(4) -0.2393(2) 1.18642(19)
H20A H 1.4346 -0.2074 1.2277
C35A C 0.6073(5) -0.1930(2) 1.47930(18)
C36A C 1.2350(4) -0.3465(3) 1.2072(2)
H21A H 1.2313 -0.4034 1.1950
H22A H 1.2911 -0.3226 1.2495
C37A C 1.0460(4) -0.2764(3) 1.1848(2)
H23A H 1.1041 -0.2403 1.1727
C38A C 1.1146(6) -0.2621(3) 1.3972(2)
H24A H 1.1823 -0.2904 1.3991
C39A C 0.9725(5) 0.0688(3) 1.0364(2)
C40A C 1.5763(6) -0.2985(3) 0.9141(2)
C41A C 1.1143(5) -0.2043(3) 1.3670(2)
C42A C 0.2406(5) -0.7647(3) 1.3451(2)
H25A H 0.2512 -0.7661 1.3856
C43A C 0.9088(5) -0.2325(3) 1.4229(2)
C44A C 0.4667(4) -0.4794(2) 1.21765(19)
H26A H 0.4137 -0.5325 1.2064
C45A C 0.4717(4) 0.4224(2) 0.37764(19)
H27A H 0.4082 0.3862 0.3416
C46A C 1.9045(5) -0.2174(3) 1.0478(2)
H28A H 1.9352 -0.1856 1.0893
C47A C 1.2701(4) -0.3370(3) 1.1050(2)
H29A H 1.2064 -0.3849 1.0789
C48A C 0.5461(4) 0.4017(3) 0.4237(2)
H30A H 0.5434 0.3494 0.4254
C49A C 1.0095(5) -0.2759(3) 1.4247(2)
H31A H 1.0059 -0.3151 1.4448
C50A C 0.3067(6) -0.7969(3) 1.2520(3)
H32A H 0.3631 -0.8190 1.2298
C51A C 1.9509(7) -0.2942(4) 0.9576(3)
H33A H 2.0123 -0.3153 0.9381
C52A C 0.8289(6) -0.0969(3) 1.5134(2)
H34A H 0.9223 -0.0850 1.5157
C53A C 1.3768(7) -0.4465(3) 0.9752(3)
H35A H 1.3920 -0.4727 1.0051
C54A C 1.5162(4) 0.0341(3) 1.1348(2)
H36A H 1.5733 0.0636 1.1744
C55A C 1.0090(6) -0.1664(3) 1.3596(2)
H37A H 1.0069 -0.1320 1.3353
C56A C -0.2483(5) -0.6197(3) 1.2949(2)
H38A H -0.3391 -0.6407 1.2938
C57A C 1.9969(6) -0.2470(4) 1.0187(3)
H39A H 2.0894 -0.2350 1.0403
C58A C 0.2085(5) -0.7639(3) 1.2247(2)
H40A H 0.1974 -0.7646 1.1837
C59A C 0.5534(6) -0.1319(3) 1.5068(2)
H41A H 0.4604 -0.1435 1.5052
C60A C 0.6349(8) -0.0536(3) 1.5367(3)
H42A H 0.5972 -0.0125 1.5544
C61A C 1.4409(5) 0.0644(3) 1.0958(3)
H43A H 1.4365 0.1182 1.1035
C62A C 0.7727(8) -0.0375(3) 1.5399(3)
H44A H 0.8286 0.0148 1.5606
C63A C 1.3310(7) -0.3701(4) 0.8871(3)
H45A H 1.3145 -0.3440 0.8572
C64A C 1.8165(7) -0.3106(3) 0.9250(3)
H46A H 1.7876 -0.3414 0.8833
O7A O 0.5284(3) -0.31179(16) 1.39535(13)
Cl3A Cl 1.1145(2) -0.52189(14) 0.95232(10)
O8A O 1.5555(4) -0.2690(2) 0.87230(16)
C65A C 1.2463(8) -0.4588(4) 0.9385(4)
C66A C 1.2208(8) -0.4223(5) 0.8944(3)
H47A H 1.1317 -0.4319 0.8694
O9A O -0.0216(3) -0.7159(2) 1.17161(15)
C67A C 0.8723(4) 0.4909(3) 0.51203(17)
C68A C 0.9606(4) 0.5682(3) 0.5293(2)
C69A C 0.7328(4) 0.4812(3) 0.52402(18)
H48A H 0.7335 0.5273 0.5570
H49A H 0.7123 0.4336 0.5365
C70A C 0.9107(4) 0.4237(3) 0.4834(2)
O11A O 1.6688(3) -0.05340(15) 1.22498(12)
C71A C 1.6901(4) -0.0640(3) 1.27794(18)
O12A O 1.6662(4) -0.12988(18) 1.28709(13)
C72A C 1.7415(4) 0.0137(3) 1.33132(17)
C73A C 1.8035(4) 0.0859(3) 1.32420(19)
C74A C 1.8450(4) 0.0916(3) 1.2675(2)
C75A C 1.9478(4) 0.0490(2) 1.2492(2)
C76A C 1.7155(5) 0.0136(3) 1.3875(2)
H52A H 1.6765 -0.0351 1.3930
O13A O 1.8017(3) 0.13573(19) 1.23925(15)
C77A C 2.0349(5) 0.0243(3) 1.2901(2)
H53A H 2.0275 0.0323 1.3303
C78A C 1.9613(5) 0.0375(3) 1.1898(2)
H54A H 1.9050 0.0554 1.1620
C79A C 1.8315(5) 0.1581(3) 1.3718(2)
H55A H 1.8703 0.2071 1.3667
C80A C 1.7476(6) 0.0857(4) 1.4350(2)
H56A H 1.7320 0.0855 1.4729
C81A C 2.1424(6) -0.0236(3) 1.2133(3)
C82A C 2.1324(5) -0.0119(3) 1.2722(3)
H57A H 2.1913 -0.0285 1.3000
C83A C 2.0576(7) -0.0001(3) 1.1722(3)
H58A H 2.0648 -0.0095 1.1318
C84A C 1.8020(7) 0.1572(4) 1.4265(3)
H59A H 1.8192 0.2059 1.4581
Cl4A Cl 2.2630(2) -0.07005(11) 1.18921(11)
O10 O 0.7358(8) 0.1911(5) 1.0828(4)
H50 H 0.7613 0.1884 1.0501
H51 H 0.7951 0.2276 1.1136
loop_
_geom_bond_atom_site_label_1
_geom_bond_atom_site_label_2
_geom_bond_site_symmetry_1
_geom_bond_site_symmetry_2
Zn1 O1 1_555 1_555
Zn2 O2 1_555 1_555
Cl1 C41 1_555 1_555
Cl2 C24 1_555 1_555
O1 C12 1_555 1_555
N1 C19 1_555 1_555
O2 C4 1_555 1_555
N2 Zn1 1_555 1_555
O3 C4 1_555 1_555
N3 C34 1_555 1_555
O4 C12 1_555 1_555
N4 C5 1_555 1_555
C1 H1 1_555 1_555
N5 Zn2 1_555 1_555
O5 C3 1_555 1_555
N6 Zn2 1_555 1_555
N7 C25 1_555 1_555
N8 Zn1 1_555 1_555
O6 C22 1_555 1_555
C2 C11 1_555 1_555
C3 C35 1_555 1_555
C4 C8 1_555 1_555
C5 H2 1_555 1_555
H3 C5 1_555 1_555
C6 H4 1_555 1_555
C7 H5 1_555 1_555
C8 C20 1_555 1_555
C9 H6 1_555 1_555
C10 C5 1_555 1_555
C11 H7 1_555 1_555
C12 C31 1_555 1_555
C13 H8 1_555 1_555
C14 C6 1_555 1_555
C15 H9 1_555 1_555
C16 H10 1_555 1_555
C17 N4 1_555 1_555
H11 C17 1_555 1_555
C18 C14 1_555 1_555
C19 N5 1_555 1_555
H12 C19 1_555 1_555
C20 C9 1_555 1_555
C21 C8 1_555 1_555
H13 C21 1_555 1_555
C22 C29 1_555 1_555
C23 N2 1_555 1_555
H14 C23 1_555 1_555
C24 C42 1_555 1_555
C25 N8 1_555 1_555
H15 C25 1_555 1_555
C26 C15 1_555 1_555
C27 N4 1_555 1_555
H16 C27 1_555 1_555
C28 N7 1_555 1_555
H17 C28 1_555 1_555
H18 C28 1_555 1_555
C29 C35 1_555 1_555
C30 C31 1_555 1_555
C31 C46 1_555 1_555
C32 C1 1_555 1_555
C33 C10 1_555 1_555
H19 C33 1_555 1_555
C34 N2 1_555 1_555
H20 C34 1_555 1_555
C35 C59 1_555 1_555
C36 N3 1_555 1_555
H21 C36 1_555 1_555
H22 C36 1_555 1_555
C37 C2 1_555 1_555
H23 C37 1_555 1_555
C38 H24 1_555 1_555
C39 C1 1_555 1_555
C40 C26 1_555 1_555
C41 C38 1_555 1_555
C42 C6 1_555 1_555
H25 C42 1_555 1_555
C43 C16 1_555 1_555
C44 N6 1_555 1_555
H26 C44 1_555 1_555
C45 N5 1_555 1_555
H27 C45 1_555 1_555
C46 H28 1_555 1_555
C47 N3 1_555 1_555
H29 C47 1_555 1_555
C48 N1 1_555 1_555
H30 C48 1_555 1_555
C49 C38 1_555 1_555
H31 C49 1_555 1_555
C50 C24 1_555 1_555
H32 C50 1_555 1_555
C51 H33 1_555 1_555
C52 C29 1_555 1_555
H34 C52 1_555 1_555
C53 C15 1_555 1_555
H35 C53 1_555 1_555
C54 N8 1_555 1_555
H36 C54 1_555 1_555
C55 C16 1_555 1_555
H37 C55 1_555 1_555
C56 C9 1_555 1_555
H38 C56 1_555 1_555
C57 C46 1_555 1_555
H39 C57 1_555 1_555
C58 C14 1_555 1_555
H40 C58 1_555 1_555
C59 H41 1_555 1_555
C60 C59 1_555 1_555
H42 C60 1_555 1_555
C61 N7 1_555 1_555
H43 C61 1_555 1_555
C62 C52 1_555 1_555
H44 C62 1_555 1_555
C63 C26 1_555 1_555
H45 C63 1_555 1_555
C64 C30 1_555 1_555
H46 C64 1_555 1_555
O7 Zn2 1_555 1_555
Cl3 C65 1_555 1_555
O8 C40 1_555 1_555
C65 C53 1_555 1_555
C66 C63 1_555 1_555
H47 C66 1_555 1_555
O9 C18 1_555 1_555
C67 C68 1_555 1_555
C68 C70A 1_555 1_555
C69 N1 1_555 1_555
H48 C69 1_555 1_555
H49 C69 1_555 1_555
C70 C67 1_555 1_555
O10 H50 1_555 1_555
H51 O10 1_555 1_555
O11 Zn1 1_555 1_555
C71 O11 1_555 1_555
O12 C71 1_555 1_555
C72 C71 1_555 1_555
C73 C72 1_555 1_555
C74 C73 1_555 1_555
C75 C74 1_555 1_555
C76 C72 1_555 1_555
H52 C76 1_555 1_555
O13 C74 1_555 1_555
C77 C75 1_555 1_555
H53 C77 1_555 1_555
C78 C75 1_555 1_555
H54 C78 1_555 1_555
C79 C73 1_555 1_555
H55 C79 1_555 1_555
C80 C76 1_555 1_555
H56 C80 1_555 1_555
C81 C82 1_555 1_555
C82 C77 1_555 1_555
H57 C82 1_555 1_555
C83 C78 1_555 1_555
H58 C83 1_555 1_555
C84 C79 1_555 1_555
H59 C84 1_555 1_555
Cl4 C81 1_555 1_555
Zn1A O1A 1_555 1_555
Zn2A O2A 1_555 1_555
Zn2A_2 N5A 1_555 1_555
Cl1A C41A 1_555 1_555
Cl2A C24A 1_555 1_555
O1A C12A 1_555 1_555
N1A C19A 1_555 1_555
O2A C4A 1_555 1_555
N2A Zn1A 1_555 1_555
O3A C4A 1_555 1_555
N3A C34A 1_555 1_555
O4A C12A 1_555 1_555
N4A C5A 1_555 1_555
C1A H1A 1_555 1_555
N5A C19A 1_555 1_555
N5A_2 Zn2A 1_555 1_555
O5A C3A 1_555 1_555
N6A Zn2A 1_555 1_555
N7A C25A 1_555 1_555
N8A Zn1A 1_555 1_555
O6A C22A 1_555 1_555
C2A C11A 1_555 1_555
C3A C35A 1_555 1_555
C4A C8A 1_555 1_555
C5A H2A 1_555 1_555
H3A C5A 1_555 1_555
C6A H4A 1_555 1_555
C7A H5A 1_555 1_555
C8A C20A 1_555 1_555
C9A H6A 1_555 1_555
C10A C5A 1_555 1_555
C11A H7A 1_555 1_555
C12A C31A 1_555 1_555
C13A H8A 1_555 1_555
C14A C6A 1_555 1_555
C15A H9A 1_555 1_555
C16A H10A 1_555 1_555
C17A N4A 1_555 1_555
H11A C17A 1_555 1_555
C18A C14A 1_555 1_555
C19A H12A 1_555 1_555
C20A C9A 1_555 1_555
C21A C8A 1_555 1_555
H13A C21A 1_555 1_555
C22A C29A 1_555 1_555
C23A N2A 1_555 1_555
H14A C23A 1_555 1_555
C24A C42A 1_555 1_555
C25A N8A 1_555 1_555
H15A C25A 1_555 1_555
C26A C15A 1_555 1_555
C27A N4A 1_555 1_555
H16A C27A 1_555 1_555
C28A N7A 1_555 1_555
H17A C28A 1_555 1_555
H18A C28A 1_555 1_555
C29A C35A 1_555 1_555
C30A C31A 1_555 1_555
C31A C46A 1_555 1_555
C32A C39 1_555 1_555
C33A C10A 1_555 1_555
H19A C33A 1_555 1_555
C34A N2A 1_555 1_555
H20A C34A 1_555 1_555
C35A C59A 1_555 1_555
C36A N3A 1_555 1_555
H21A C36A 1_555 1_555
H22A C36A 1_555 1_555
C37A C2A 1_555 1_555
H23A C37A 1_555 1_555
C38A H24A 1_555 1_555
C39A C32 1_555 1_555
C40A C26A 1_555 1_555
C41A C38A 1_555 1_555
C42A C6A 1_555 1_555
H25A C42A 1_555 1_555
C43A C16A 1_555 1_555
C44A N6A 1_555 1_555
H26A C44A 1_555 1_555
C45A N5A 1_555 1_555
H27A C45A 1_555 1_555
C46A H28A 1_555 1_555
C47A N3A 1_555 1_555
H29A C47A 1_555 1_555
C48A N1A 1_555 1_555
H30A C48A 1_555 1_555
C49A C38A 1_555 1_555
H31A C49A 1_555 1_555
C50A C24A 1_555 1_555
H32A C50A 1_555 1_555
C51A H33A 1_555 1_555
C52A C29A 1_555 1_555
H34A C52A 1_555 1_555
C53A C15A 1_555 1_555
H35A C53A 1_555 1_555
C54A N8A 1_555 1_555
H36A C54A 1_555 1_555
C55A C16A 1_555 1_555
H37A C55A 1_555 1_555
C56A C9A 1_555 1_555
H38A C56A 1_555 1_555
C57A C46A 1_555 1_555
H39A C57A 1_555 1_555
C58A C14A 1_555 1_555
H40A C58A 1_555 1_555
C59A H41A 1_555 1_555
C60A C59A 1_555 1_555
H42A C60A 1_555 1_555
C61A N7A 1_555 1_555
H43A C61A 1_555 1_555
C62A C52A 1_555 1_555
H44A C62A 1_555 1_555
C63A C26A 1_555 1_555
H45A C63A 1_555 1_555
C64A C30A 1_555 1_555
H46A C64A 1_555 1_555
O7A Zn2A 1_555 1_555
Cl3A C65A 1_555 1_555
O8A C40A 1_555 1_555
C65A C53A 1_555 1_555
C66A C63A 1_555 1_555
H47A C66A 1_555 1_555
O9A C18A 1_555 1_555
C67A C68A 1_555 1_555
C68A C70 1_555 1_555
C69A N1A 1_555 1_555
H48A C69A 1_555 1_555
H49A C69A 1_555 1_555
C70A C67A 1_555 1_555
O11A Zn1A 1_555 1_555
C71A O11A 1_555 1_555
O12A C71A 1_555 1_555
C72A C71A 1_555 1_555
C73A C72A 1_555 1_555
C74A C73A 1_555 1_555
C75A C74A 1_555 1_555
C76A C72A 1_555 1_555
H52A C76A 1_555 1_555
O13A C74A 1_555 1_555
C77A C75A 1_555 1_555
H53A C77A 1_555 1_555
C78A C75A 1_555 1_555
H54A C78A 1_555 1_555
C79A C73A 1_555 1_555
H55A C79A 1_555 1_555
C80A C76A 1_555 1_555
H56A C80A 1_555 1_555
C81A C82A 1_555 1_555
C82A C77A 1_555 1_555
H57A C82A 1_555 1_555
C83A C78A 1_555 1_555
H58A C83A 1_555 1_555
C84A C79A 1_555 1_555
H59A C84A 1_555 1_555
Cl4A C81A 1_555 1_555
N6 C17 1_555 1_555
C2 C36 1_555 1_555
C3 O7 1_555 1_555
C7 C10 1_555 1_555
C7 C37 1_555 1_555
C11 C33 1_555 1_555
C13 C21 1_555 1_555
C13 C56 1_555 1_555
C18 C20 1_555 1_555
C22 C43 1_555 1_555
C23 C47 1_555 1_555
C27 C44 1_555 1_555
C28 C32 1_555 1_555
C30 C40 1_555 1_555
C41 C55 1_555 1_555
C43 C49 1_555 1_555
C45 C48 1_555 1_555
C50 C58 1_555 1_555
C51 C57 1_555 1_555
C51 C64 1_555 1_555
C54 C61 1_555 1_555
C60 C62 1_555 1_555
C65 C66 1_555 1_555
C67 C69 1_555 1_555
C80 C84 1_555 1_555
C81 C83 1_555 1_555
C1A C32A 1_555 1_555
C1A C39A 1_555 1_555
N6A C17A 1_555 1_555
C2A C36A 1_555 1_555
C3A O7A 1_555 1_555
C7A C10A 1_555 1_555
C7A C37A 1_555 1_555
C11A C33A 1_555 1_555
C13A C21A 1_555 1_555
C13A C56A 1_555 1_555
C18A C20A 1_555 1_555
C22A C43A 1_555 1_555
C23A C47A 1_555 1_555
C27A C44A 1_555 1_555
C28A C32A 1_555 1_555
C30A C40A 1_555 1_555
C41A C55A 1_555 1_555
C43A C49A 1_555 1_555
C45A C48A 1_555 1_555
C50A C58A 1_555 1_555
C51A C57A 1_555 1_555
C51A C64A 1_555 1_555
C54A C61A 1_555 1_555
C60A C62A 1_555 1_555
C65A C66A 1_555 1_555
C67A C69A 1_555 1_555
C80A C84A 1_555 1_555
C81A C83A 1_555 1_555

#END
