
#######################################################################
#
#                 Cambridge Crystallographic Data Centre
#                                CCDC 
#
#######################################################################
#
# If this CIF has been generated from an entry in the Cambridge 
# Structural Database, then it will include bibliographic, chemical, 
# crystal, experimental, refinement or atomic coordinate data resulting 
# from the CCDC's data processing and validation procedures.
#
#######################################################################

data_TATFAX
_symmetry_cell_setting           monoclinic
_symmetry_space_group_name_H-M   'P 21/c'
_symmetry_Int_Tables_number      14
_space_group_name_Hall           '-P 2ybc'
loop_
_symmetry_equiv_pos_site_id
_symmetry_equiv_pos_as_xyz
1 x,y,z
2 -x,1/2+y,1/2-z
3 -x,-y,-z
4 x,1/2-y,1/2+z
_cell_length_a                   9.2348(18)
_cell_length_b                   7.9061(16)
_cell_length_c                   17.141(3)
_cell_angle_alpha                90
_cell_angle_beta                 102.64(3)
_cell_angle_gamma                90
_cell_volume                     1221.16
loop_
_atom_site_label
_atom_site_type_symbol
_atom_site_fract_x
_atom_site_fract_y
_atom_site_fract_z
Bi1 Bi 0.001993(15) 0.142770(17) 0.097434(8)
C1 C 0.5615(4) 0.2508(6) 0.0409(3)
C2 C 0.4561(5) 0.2785(6) -0.0280(3)
H1 H 0.4801 0.3401 -0.0697
C3 C 0.3145(5) 0.2148(6) -0.0355(2)
H2 H 0.2430 0.2351 -0.0819
C4 C 0.2781(4) 0.1206(5) 0.0261(2)
C5 C 0.3833(4) 0.0966(5) 0.0968(2)
C6 C 0.5265(5) 0.1618(6) 0.1038(3)
H3 H 0.5980 0.1452 0.1507
C7 C 0.3424(4) 0.0006(5) 0.1637(2)
H4 H 0.4313 -0.0200 0.2047
H5 H 0.3019 -0.1083 0.1439
C8 C 0.1936(5) -0.0178(5) 0.2630(2)
H6 H 0.1510 0.0510 0.2992
H7 H 0.2836 -0.0692 0.2937
C9 C 0.0847(5) -0.1555(5) 0.2279(2)
C10 C 0.2918(5) 0.2578(5) 0.2333(2)
H8 H 0.3982 0.2474 0.2530
H9 H 0.2487 0.2868 0.2783
C11 C 0.2609(5) 0.3996(6) 0.1724(3)
N1 N 0.2313(4) 0.0916(4) 0.20038(18)
O1 O 0.7052(3) 0.3100(5) 0.0519(2)
H10 H 0.7205 0.3426 0.0090
O2 O 0.1398(3) 0.0531(3) 0.01867(14)
O3 O 0.1419(3) 0.3819(3) 0.11692(18)
O4 O 0.3415(4) 0.5232(4) 0.1798(2)
O5 O 0.0088(3) -0.1322(4) 0.15671(17)
O6 O 0.0717(4) -0.2798(4) 0.26908(17)
O7 O -0.0745(5) 0.3314(4) -0.03262(19)
H11 H -0.049(5) 0.276(5) -0.072(2)
H12 H -0.091(8) 0.433(3) -0.048(3)
Bi1B Bi -0.001993(15) -0.142770(17) -0.097434(8)
Bi1A Bi -0.001993(15) -0.357230(17) 0.402566(8)
O2B O -0.1398(3) -0.0531(3) -0.01867(14)
O6A O -0.0717(4) 0.2202(4) 0.23092(17)
loop_
_geom_bond_atom_site_label_1
_geom_bond_atom_site_label_2
_geom_bond_site_symmetry_1
_geom_bond_site_symmetry_2
Bi1 N1 1_555 1_555
C1 C2 1_555 1_555
C2 H1 1_555 1_555
C3 C2 1_555 1_555
H2 C3 1_555 1_555
C4 C3 1_555 1_555
C5 C4 1_555 1_555
C6 C1 1_555 1_555
H3 C6 1_555 1_555
C7 C5 1_555 1_555
H4 C7 1_555 1_555
H5 C7 1_555 1_555
C8 H6 1_555 1_555
H7 C8 1_555 1_555
C9 C8 1_555 1_555
C10 H8 1_555 1_555
H9 C10 1_555 1_555
C11 C10 1_555 1_555
N1 C7 1_555 1_555
O1 C1 1_555 1_555
H10 O1 1_555 1_555
O2 Bi1 1_555 1_555
O3 Bi1 1_555 1_555
O4 C11 1_555 1_555
O5 Bi1 1_555 1_555
O6 C9 1_555 1_555
O7 Bi1 1_555 1_555
H11 O7 1_555 1_555
H12 O7 1_555 1_555
Bi1B O2 1_555 1_555
Bi1A O6 1_555 1_555
O2B Bi1 1_555 1_555
O6A Bi1 1_555 1_555
C4 O2 1_555 1_555
C5 C6 1_555 1_555
C8 N1 1_555 1_555
C9 O5 1_555 1_555
C10 N1 1_555 1_555
C11 O3 1_555 1_555
Bi1B O2B 1_555 1_555

#END
