
#######################################################################
#
#                 Cambridge Crystallographic Data Centre
#                                CCDC 
#
#######################################################################
#
# If this CIF has been generated from an entry in the Cambridge 
# Structural Database, then it will include bibliographic, chemical, 
# crystal, experimental, refinement or atomic coordinate data resulting 
# from the CCDC's data processing and validation procedures.
#
#######################################################################

data_TATGOL
_symmetry_cell_setting           orthorhombic
_symmetry_space_group_name_H-M   'P b c n'
_symmetry_Int_Tables_number      60
_space_group_name_Hall           '-P 2n 2ab'
loop_
_symmetry_equiv_pos_site_id
_symmetry_equiv_pos_as_xyz
1 x,y,z
2 1/2-x,1/2-y,1/2+z
3 -x,y,1/2-z
4 1/2+x,1/2-y,-z
5 -x,-y,-z
6 1/2+x,1/2+y,1/2-z
7 x,-y,1/2+z
8 1/2-x,1/2+y,z
_cell_length_a                   17.724(4)
_cell_length_b                   7.3594(15)
_cell_length_c                   18.140(4)
_cell_angle_alpha                90
_cell_angle_beta                 90
_cell_angle_gamma                90
_cell_volume                     2366.15
loop_
_atom_site_label
_atom_site_type_symbol
_atom_site_fract_x
_atom_site_fract_y
_atom_site_fract_z
Cu1 Cu -0.353500(19) -0.45955(5) 0.154330(17)
O1 O -0.37357(13) -0.7281(3) 0.15225(12)
O2 O -0.31975(11) -0.2010(3) 0.16166(10)
O3 O -0.47426(10) -0.3784(3) 0.13089(10)
O4 O -0.46987(11) -0.3543(3) -0.11093(12)
O5 O -0.33856(11) -0.4514(3) 0.04676(10)
O6 O -0.21333(11) -0.4906(3) 0.04571(10)
O7 O -0.75089(11) -0.5549(3) 0.21912(10)
O8 O -0.63412(9) -0.4468(3) 0.23808(10)
C1 C -0.60357(14) -0.3752(4) 0.09355(13)
H1 H -0.6036 -0.2578 0.1178
H2 H -0.6036 -0.3541 0.0408
C2 C -0.67496(15) -0.4768(3) 0.11442(14)
C3 C -0.27499(15) -0.4587(4) -0.06861(14)
H3 H -0.7657 -0.6020 0.0897
C4 C -0.27525(16) -0.4708(3) 0.01497(14)
C5 C -0.53124(15) -0.4776(4) 0.11462(14)
C6 C -0.68924(16) -0.4985(4) 0.19822(15)
Cu1B Cu -0.646500(19) -0.45955(5) 0.345670(17)
Cu1D Cu -0.646500(19) -0.54045(5) -0.154330(17)
Cu1F Cu -0.353500(19) -0.54045(5) -0.345670(17)
O1D O -0.62643(13) -0.2719(3) -0.15225(12)
O2D O -0.68025(11) -0.7990(3) -0.16166(10)
O3D O -0.52574(10) -0.6216(3) -0.13089(10)
O4D O -0.53013(11) -0.6457(3) 0.11093(12)
O5D O -0.66144(11) -0.5486(3) -0.04676(10)
O6D O -0.78667(11) -0.5094(3) -0.04571(10)
O7D O -0.24911(11) -0.4451(3) -0.21912(10)
O8F O -0.63412(9) -0.5532(3) -0.26192(10)
O8D O -0.36588(9) -0.5532(3) -0.23808(10)
O8B O -0.36588(9) -0.4468(3) 0.26192(10)
C1D C -0.39643(14) -0.6248(4) -0.09355(13)
H1D H -0.3964 -0.7422 -0.1178
H2D H -0.3964 -0.6459 -0.0408
C2D C -0.32504(15) -0.5232(3) -0.11442(14)
C3D C -0.72501(15) -0.5413(4) 0.06861(14)
H3D H -0.2343 -0.3980 -0.0897
C4D C -0.72475(16) -0.5292(3) -0.01497(14)
C5D C -0.46876(15) -0.5224(4) -0.11462(14)
C6D C -0.31076(16) -0.5015(4) -0.19822(15)
O9 O -0.43739(15) -0.8870(4) 0.50613(16)
O10 O -0.5000 -0.1414(4) 0.2500
O11 O -0.10931(12) -0.4038(3) 0.30758(12)
loop_
_geom_bond_atom_site_label_1
_geom_bond_atom_site_label_2
_geom_bond_site_symmetry_1
_geom_bond_site_symmetry_2
Cu1 O1 1_555 1_555
O2 Cu1 1_555 1_555
O3 Cu1 1_555 1_555
O4 C5D 1_555 1_555
O5 Cu1 1_555 1_555
O6 C4 1_555 1_555
O7 C6 1_555 1_555
O8 C6 1_555 1_555
C1 H1 1_555 1_555
H2 C1 1_555 1_555
C2 C1 1_555 1_555
C3 C4 1_555 1_555
H3 C3D 1_555 1_555
C4 O5 1_555 1_555
C5 O3 1_555 1_555
C6 C2 1_555 1_555
Cu1B O8 1_555 1_555
Cu1D O1D 1_555 1_555
Cu1F O8D 1_555 1_555
O2D Cu1D 1_555 1_555
O3D Cu1D 1_555 1_555
O4D C5 1_555 1_555
O5D Cu1D 1_555 1_555
O6D C4D 1_555 1_555
O7D C6D 1_555 1_555
O8F Cu1D 1_555 1_555
O8D C6D 1_555 1_555
O8B Cu1 1_555 1_555
C1D H1D 1_555 1_555
H2D C1D 1_555 1_555
C2D C3 1_555 1_555
C3D C2 1_555 1_555
H3D C3 1_555 1_555
C4D O5D 1_555 1_555
C5D O3D 1_555 1_555
C6D C2D 1_555 1_555
C1 C5 1_555 1_555
C1D C2D 1_555 1_555
C1D C5D 1_555 1_555
C3D C4D 1_555 1_555

#END
