
#######################################################################
#
#                 Cambridge Crystallographic Data Centre
#                                CCDC 
#
#######################################################################
#
# If this CIF has been generated from an entry in the Cambridge 
# Structural Database, then it will include bibliographic, chemical, 
# crystal, experimental, refinement or atomic coordinate data resulting 
# from the CCDC's data processing and validation procedures.
#
#######################################################################

data_TATGAX
_symmetry_cell_setting           monoclinic
_symmetry_space_group_name_H-M   'P 21/c'
_symmetry_Int_Tables_number      14
_space_group_name_Hall           '-P 2ybc'
loop_
_symmetry_equiv_pos_site_id
_symmetry_equiv_pos_as_xyz
1 x,y,z
2 -x,1/2+y,1/2-z
3 -x,-y,-z
4 x,1/2-y,1/2+z
_cell_length_a                   11.951(3)
_cell_length_b                   12.623(3)
_cell_length_c                   17.531(4)
_cell_angle_alpha                90
_cell_angle_beta                 102.655(3)
_cell_angle_gamma                90
_cell_volume                     2580.43
loop_
_atom_site_label
_atom_site_type_symbol
_atom_site_fract_x
_atom_site_fract_y
_atom_site_fract_z
N1 N -0.2524(3) -0.2011(3) -0.3535(2)
N2 N -0.1568(3) -0.2805(3) -0.2459(2)
C1 C -0.2179(4) -0.1941(4) -0.2774(3)
H1 H -0.2334 -0.1366 -0.2482
C2 C -0.2108(4) -0.2963(4) -0.3731(3)
H2 H -0.2216 -0.3231 -0.4236
C3 C -0.1517(4) -0.3456(4) -0.3079(3)
H3 H -0.1149 -0.4107 -0.3056
N3 N 0.1188(4) -0.5017(3) -0.1045(3)
N4 N -0.0339(3) -0.3992(3) -0.1440(2)
C4 C 0.0259(4) -0.5647(4) -0.1367(3)
H4 H 0.0270 -0.6381 -0.1408
C5 C 0.0781(4) -0.4037(4) -0.1096(3)
H5 H 0.1223 -0.3446 -0.0913
C6 C -0.0677(5) -0.5018(4) -0.1613(3)
H6 H -0.1410 -0.5243 -0.1854
N5 N -0.0326(4) -0.2018(3) -0.1258(2)
B1 B -0.1078(5) -0.2969(5) -0.1573(3)
C7 C -0.0061(5) -0.1620(5) -0.0506(3)
H7 H -0.0396 -0.1820 -0.0097
C8 C 0.0778(5) -0.0885(5) -0.0474(4)
H8 H 0.1104 -0.0487 -0.0035
N6 N 0.1072(5) -0.0819(4) -0.1191(3)
C9 C 0.0397(5) -0.1490(5) -0.1634(3)
H9 H 0.0405 -0.1601 -0.2158
Pb1 Pb -0.335730(15) -0.028470(14) -0.422240(10)
O1 O -0.2877(3) 0.1084(3) -0.5161(2)
N7 N -0.3041(4) -0.3700(3) -0.0284(2)
C10 C -0.3552(4) -0.2766(4) -0.0602(3)
H10 H -0.4202 -0.2456 -0.0487
C11 C -0.3839(4) 0.1462(4) -0.5476(3)
O2 O -0.4749(3) 0.1227(3) -0.5265(2)
N8 N -0.2041(3) -0.3090(3) -0.1112(2)
C12 C -0.2941(4) -0.2382(4) -0.1109(3)
H11 H -0.3092 -0.1762 -0.1400
C13 C -0.3908(4) 0.2276(4) -0.6132(3)
H12 H -0.4365 0.1974 -0.6616
C14 C -0.2732(4) 0.2571(4) -0.6268(3)
H13 H -0.2283 0.2885 -0.5794
H14 H -0.2343 0.1930 -0.6372
C15 C -0.4902(6) 0.5188(5) -0.6247(4)
H15 H -0.5002 0.5725 -0.6643
H16 H -0.5589 0.5131 -0.6050
H17 H -0.4271 0.5374 -0.5828
C16 C -0.2772(4) 0.3342(4) -0.6943(3)
C17 C -0.2148(4) -0.3854(4) -0.0601(3)
H18 H -0.1651 -0.4426 -0.0483
C18 C -0.4656(5) 0.4126(4) -0.6597(3)
C19 C -0.4495(4) 0.3285(4) -0.5942(3)
H19 H -0.5240 0.3102 -0.5846
H20 H -0.4042 0.3590 -0.5466
N9 N -0.3558(4) 0.4244(4) -0.6873(3)
O3 O -0.3506(4) 0.5062(3) -0.7308(3)
C20 C -0.3188(6) 0.2786(5) -0.7743(4)
H21 H -0.3323 0.3308 -0.8152
H22 H -0.2613 0.2297 -0.7828
H23 H -0.3887 0.2410 -0.7745
C21 C -0.1580(5) 0.3811(5) -0.6905(4)
H24 H -0.1342 0.4204 -0.6428
H25 H -0.1044 0.3249 -0.6920
H26 H -0.1606 0.4275 -0.7342
C22 C -0.5607(5) 0.3838(5) -0.7292(4)
H27 H -0.5495 0.3126 -0.7454
H28 H -0.6334 0.3887 -0.7146
H29 H -0.5595 0.4317 -0.7715
N3A N -0.1188(4) -0.0017(3) -0.3955(3)
Pb1A Pb 0.335730(15) -0.528470(14) -0.077760(10)
Pb1B Pb -0.664270(15) 0.028470(14) -0.577760(10)
Pb1C Pb -0.335730(15) -0.471530(14) 0.077760(10)
N7C N -0.3041(4) -0.1300(3) -0.5284(2)
O2B O -0.5251(3) -0.1227(3) -0.4735(2)
loop_
_geom_bond_atom_site_label_1
_geom_bond_atom_site_label_2
_geom_bond_site_symmetry_1
_geom_bond_site_symmetry_2
N1 C1 1_555 1_555
N2 C1 1_555 1_555
C1 H1 1_555 1_555
C2 N1 1_555 1_555
H2 C2 1_555 1_555
C3 N2 1_555 1_555
H3 C3 1_555 1_555
N3 C4 1_555 1_555
N4 C5 1_555 1_555
C4 H4 1_555 1_555
C5 N3 1_555 1_555
H5 C5 1_555 1_555
C6 N4 1_555 1_555
H6 C6 1_555 1_555
N5 B1 1_555 1_555
B1 N2 1_555 1_555
C7 N5 1_555 1_555
H7 C7 1_555 1_555
C8 C7 1_555 1_555
H8 C8 1_555 1_555
N6 C8 1_555 1_555
C9 N5 1_555 1_555
H9 C9 1_555 1_555
Pb1 N1 1_555 1_555
O1 Pb1 1_555 1_555
N7 C10 1_555 1_555
C10 H10 1_555 1_555
C11 O1 1_555 1_555
O2 C11 1_555 1_555
N8 B1 1_555 1_555
C12 C10 1_555 1_555
H11 C12 1_555 1_555
C13 C11 1_555 1_555
H12 C13 1_555 1_555
C14 C13 1_555 1_555
H13 C14 1_555 1_555
H14 C14 1_555 1_555
C15 H15 1_555 1_555
H16 C15 1_555 1_555
H17 C15 1_555 1_555
C16 C14 1_555 1_555
C17 N7 1_555 1_555
H18 C17 1_555 1_555
C18 C15 1_555 1_555
C19 C13 1_555 1_555
H19 C19 1_555 1_555
H20 C19 1_555 1_555
N9 C16 1_555 1_555
O3 N9 1_555 1_555
C20 C16 1_555 1_555
H21 C20 1_555 1_555
H22 C20 1_555 1_555
H23 C20 1_555 1_555
C21 C16 1_555 1_555
H24 C21 1_555 1_555
H25 C21 1_555 1_555
H26 C21 1_555 1_555
C22 C18 1_555 1_555
H27 C22 1_555 1_555
H28 C22 1_555 1_555
H29 C22 1_555 1_555
N3A Pb1 1_555 1_555
Pb1A N3 1_555 1_555
Pb1B O2 1_555 1_555
Pb1C N7 1_555 1_555
N7C Pb1 1_555 1_555
O2B Pb1 1_555 1_555
C2 C3 1_555 1_555
N4 B1 1_555 1_555
C4 C6 1_555 1_555
N6 C9 1_555 1_555
N8 C12 1_555 1_555
N8 C17 1_555 1_555
C18 C19 1_555 1_555
C18 N9 1_555 1_555

#END
