
#######################################################################
#
#                 Cambridge Crystallographic Data Centre
#                                CCDC 
#
#######################################################################
#
# If this CIF has been generated from an entry in the Cambridge 
# Structural Database, then it will include bibliographic, chemical, 
# crystal, experimental, refinement or atomic coordinate data resulting 
# from the CCDC's data processing and validation procedures.
#
#######################################################################

data_TATHIG
_symmetry_cell_setting           triclinic
_symmetry_space_group_name_H-M   'P -1'
_symmetry_Int_Tables_number      2
_space_group_name_Hall           '-P 1'
loop_
_symmetry_equiv_pos_site_id
_symmetry_equiv_pos_as_xyz
1 x,y,z
2 -x,-y,-z
_cell_length_a                   8.751(4)
_cell_length_b                   12.731(5)
_cell_length_c                   13.573(8)
_cell_angle_alpha                116.388(16)
_cell_angle_beta                 92.26(3)
_cell_angle_gamma                102.76(2)
_cell_volume                     1304.65
loop_
_atom_site_label
_atom_site_type_symbol
_atom_site_fract_x
_atom_site_fract_y
_atom_site_fract_z
Cu1 Cu -0.09523(2) 0.322481(17) 0.324863(16)
Cu2 Cu 0.11448(2) 0.226200(17) 0.110903(16)
Cu3 Cu 0.5000 0.0000 0.5000
O1 O -0.04000(13) 0.49682(9) 0.36657(10)
O2 O -0.13636(13) 0.15744(9) 0.31342(10)
O3 O 0.05531(13) 0.07655(9) 0.12948(9)
O4 O -0.14927(13) 0.12839(9) -0.04679(9)
O5 O -0.10410(11) 0.24277(9) 0.13275(8)
O6 O -0.76490(14) 0.06110(10) -0.08124(10)
O7 O -0.67185(12) 0.20487(10) 0.09374(9)
O8 O -0.60309(15) -0.00161(10) -0.32104(9)
O9 O -0.48193(18) 0.18402(10) -0.19272(10)
H1 H -0.5163 0.2008 -0.2394
C1 C -0.19684(17) 0.18252(14) 0.04022(13)
C2 C -0.3719(2) 0.18408(13) 0.05149(13)
H2 H -0.3931 0.2360 0.1204
C3 C -0.48967(19) 0.11873(14) -0.02758(14)
C4 C -0.65696(19) 0.12748(14) -0.00519(13)
C5 C -0.4812(2) 0.03072(14) -0.14787(13)
H3 H -0.3732 0.0242 -0.1536
H4 H -0.5487 -0.0493 -0.1671
C6 C -0.53063(19) 0.07004(13) -0.22667(13)
O10 O 0.15326(13) 0.33531(11) 0.47254(10)
O11 O 0.12931(11) 0.32679(8) 0.30810(8)
O12 O 0.76101(14) 0.37231(10) 0.51153(9)
O13 O 0.68482(12) 0.31965(9) 0.33618(9)
O14 O 0.50010(13) 0.16381(9) 0.52335(9)
O15 O 0.4414(2) 0.27407(11) 0.69086(11)
C7 C 0.21153(19) 0.33000(14) 0.38794(14)
C8 C 0.37974(16) 0.32741(12) 0.37866(13)
H5 H 0.4113 0.3145 0.3105
C9 C 0.48947(17) 0.34153(12) 0.45692(13)
C10 C 0.65590(18) 0.34264(12) 0.43278(13)
C11 C 0.4648(2) 0.36216(14) 0.57394(13)
H6 H 0.5454 0.4338 0.6271
H7 H 0.3625 0.3788 0.5866
C12 C 0.4714(2) 0.25741(14) 0.59633(13)
N1 N 0.16465(16) 0.36446(11) 0.07319(12)
C13 C 0.1533(3) 0.47379(17) 0.14148(18)
H8 H 0.1170 0.4863 0.2083
C14 C 0.1925(3) 0.57062(19) 0.1187(2)
H9 H 0.1817 0.6465 0.1686
C15 C 0.2472(3) 0.55319(17) 0.0221(2)
H10 H 0.2783 0.6174 0.0054
C16 C 0.2557(3) 0.44070(19) -0.0492(2)
H11 H 0.2872 0.4250 -0.1180
C17 C 0.2171(3) 0.34918(17) -0.01919(17)
H12 H 0.2291 0.2730 -0.0672
N2 N 0.72520(15) 0.06133(10) 0.57604(10)
C18 C 0.7808(2) 0.00894(15) 0.62997(15)
H13 H 0.7112 -0.0547 0.6349
C19 C 0.9384(2) 0.04492(17) 0.67936(16)
H14 H 0.9710 0.0101 0.7210
C20 C 1.0458(3) 0.13287(19) 0.66579(17)
H15 H 1.1534 0.1538 0.6924
C21 C 0.9892(2) 0.18757(18) 0.61240(16)
H16 H 1.0569 0.2507 0.6056
C22 C 0.8272(2) 0.14854(15) 0.56705(16)
H17 H 0.7906 0.1859 0.5292
Cu1A Cu 1.09523(2) -0.322481(17) 0.675137(16)
Cu1_2 Cu 0.90477(2) 0.322481(17) 0.324863(16)
Cu1A_2 Cu 0.09523(2) -0.322481(17) 0.675137(16)
Cu2A Cu 0.88552(2) -0.226200(17) 0.889097(16)
Cu2_2 Cu -0.88552(2) 0.226200(17) 0.110903(16)
Cu2_3 Cu 1.11448(2) 0.226200(17) 0.110903(16)
O1A O 1.04000(13) -0.49682(9) 0.63343(10)
O2A O 1.13636(13) -0.15744(9) 0.68658(10)
O3A O 0.94469(13) -0.07655(9) 0.87052(9)
O4_2 O 0.85073(13) 0.12839(9) -0.04679(9)
O5_2 O 0.89590(11) 0.24277(9) 0.13275(8)
O5A O 1.10410(11) -0.24277(9) 0.86725(8)
O6_2 O 0.23510(14) 0.06110(10) -0.08124(10)
O7_2 O 0.32815(12) 0.20487(10) 0.09374(9)
O7A O 0.67185(12) -0.20487(10) 0.90626(9)
O8_2 O 0.39691(15) -0.00161(10) -0.32104(9)
O9_2 O 0.51807(18) 0.18402(10) -0.19272(10)
H1_2 H 0.4837 0.2008 -0.2394
C1_2 C 0.80316(17) 0.18252(14) 0.04022(13)
C2_2 C 0.6281(2) 0.18408(13) 0.05149(13)
H2_2 H 0.6069 0.2360 0.1204
C3_2 C 0.51033(19) 0.11873(14) -0.02758(14)
C4_2 C 0.34304(19) 0.12748(14) -0.00519(13)
C5_2 C 0.5188(2) 0.03072(14) -0.14787(13)
H3_2 H 0.6268 0.0242 -0.1536
H4_2 H 0.4513 -0.0493 -0.1671
C6_2 C 0.46937(19) 0.07004(13) -0.22667(13)
O10A O 0.84674(13) -0.33531(11) 0.52746(10)
O11A O 0.87069(11) -0.32679(8) 0.69190(8)
O12A O 0.23899(14) -0.37231(10) 0.48847(9)
O13A O 0.31518(12) -0.31965(9) 0.66382(9)
O13_2 O -0.31518(12) 0.31965(9) 0.33618(9)
O13A_2 O 1.31518(12) -0.31965(9) 0.66382(9)
O14A O 0.49990(13) -0.16381(9) 0.47665(9)
O15A O 0.5586(2) -0.27407(11) 0.30914(11)
C7A C 0.78847(19) -0.33000(14) 0.61206(14)
C8A C 0.62026(16) -0.32741(12) 0.62134(13)
H5A H 0.5887 -0.3145 0.6895
C9A C 0.51053(17) -0.34153(12) 0.54308(13)
C10A C 0.34410(18) -0.34264(12) 0.56722(13)
C11A C 0.5352(2) -0.36216(14) 0.42606(13)
H6A H 0.4546 -0.4338 0.3729
H7A H 0.6375 -0.3788 0.4134
C12A C 0.5286(2) -0.25741(14) 0.40367(13)
N1A N 0.83535(16) -0.36446(11) 0.92681(12)
C13A C 0.8467(3) -0.47379(17) 0.85852(18)
H8A H 0.8830 -0.4863 0.7917
C14A C 0.8075(3) -0.57062(19) 0.8813(2)
H9A H 0.8183 -0.6465 0.8314
C15A C 0.7528(3) -0.55319(17) 0.9779(2)
H10A H 0.7217 -0.6174 0.9946
C16A C 0.7443(3) -0.44070(19) 1.0492(2)
H11A H 0.7128 -0.4250 1.1180
C17A C 0.7829(3) -0.34918(17) 1.01919(17)
H12A H 0.7709 -0.2730 1.0672
N2A N 0.27480(15) -0.06133(10) 0.42396(10)
C18A C 0.2192(2) -0.00894(15) 0.37003(15)
H13A H 0.2888 0.0547 0.3651
C19A C 0.0616(2) -0.04492(17) 0.32064(16)
H14A H 0.0290 -0.0101 0.2790
C20A C -0.0458(3) -0.13287(19) 0.33421(17)
H15A H -0.1534 -0.1538 0.3076
C21A C 0.0108(2) -0.18757(18) 0.38760(16)
H16A H -0.0569 -0.2507 0.3944
C22A C 0.1728(2) -0.14854(15) 0.43295(16)
H17A H 0.2094 -0.1859 0.4708
loop_
_geom_bond_atom_site_label_1
_geom_bond_atom_site_label_2
_geom_bond_site_symmetry_1
_geom_bond_site_symmetry_2
Cu1 O1 1_555 1_555
Cu2 O3 1_555 1_555
Cu3 O14 1_555 1_555
O2 Cu1 1_555 1_555
O4 C1 1_555 1_555
O5 Cu1 1_555 1_555
O6 C4 1_555 1_555
O7 C4 1_555 1_555
O8 C6 1_555 1_555
O9 H1 1_555 1_555
C1 O5 1_555 1_555
C2 C1 1_555 1_555
H2 C2 1_555 1_555
C3 C2 1_555 1_555
C4 C3 1_555 1_555
C5 C3 1_555 1_555
H3 C5 1_555 1_555
H4 C5 1_555 1_555
C6 O9 1_555 1_555
O10 C7 1_555 1_555
O11 Cu1 1_555 1_555
O12 C10 1_555 1_555
O13 C10 1_555 1_555
O14 C12 1_555 1_555
O15 C12 1_555 1_555
C7 O11 1_555 1_555
C8 C7 1_555 1_555
H5 C8 1_555 1_555
C9 C8 1_555 1_555
C10 C9 1_555 1_555
C11 C9 1_555 1_555
H6 C11 1_555 1_555
H7 C11 1_555 1_555
C12 C11 1_555 1_555
N1 Cu2 1_555 1_555
C13 N1 1_555 1_555
H8 C13 1_555 1_555
C14 C13 1_555 1_555
H9 C14 1_555 1_555
C15 C14 1_555 1_555
H10 C15 1_555 1_555
C16 C15 1_555 1_555
H11 C16 1_555 1_555
C17 N1 1_555 1_555
H12 C17 1_555 1_555
N2 Cu3 1_555 1_555
C18 N2 1_555 1_555
H13 C18 1_555 1_555
C19 C18 1_555 1_555
H14 C19 1_555 1_555
C20 C19 1_555 1_555
H15 C20 1_555 1_555
C21 C20 1_555 1_555
H16 C21 1_555 1_555
C22 N2 1_555 1_555
H17 C22 1_555 1_555
Cu1A O1A 1_555 1_555
Cu1_2 O13 1_555 1_555
Cu1A_2 O13A 1_555 1_555
Cu2A O3A 1_555 1_555
Cu2_2 O7 1_555 1_555
Cu2_3 O5_2 1_555 1_555
O2A Cu1A 1_555 1_555
O4_2 C1_2 1_555 1_555
O5_2 Cu1_2 1_555 1_555
O5A Cu1A 1_555 1_555
O6_2 C4_2 1_555 1_555
O7_2 Cu2 1_555 1_555
O7A Cu2A 1_555 1_555
O8_2 C6_2 1_555 1_555
O9_2 H1_2 1_555 1_555
C1_2 O5_2 1_555 1_555
C2_2 C1_2 1_555 1_555
H2_2 C2_2 1_555 1_555
C3_2 C2_2 1_555 1_555
C4_2 O7_2 1_555 1_555
C5_2 C3_2 1_555 1_555
H3_2 C5_2 1_555 1_555
H4_2 C5_2 1_555 1_555
C6_2 O9_2 1_555 1_555
O10A C7A 1_555 1_555
O11A Cu1A 1_555 1_555
O12A C10A 1_555 1_555
O13A C10A 1_555 1_555
O13_2 Cu1 1_555 1_555
O13A_2 Cu1A 1_555 1_555
O14A Cu3 1_555 1_555
O15A C12A 1_555 1_555
C7A O11A 1_555 1_555
C8A C7A 1_555 1_555
H5A C8A 1_555 1_555
C9A C8A 1_555 1_555
C10A C9A 1_555 1_555
C11A C9A 1_555 1_555
H6A C11A 1_555 1_555
H7A C11A 1_555 1_555
C12A O14A 1_555 1_555
N1A Cu2A 1_555 1_555
C13A N1A 1_555 1_555
H8A C13A 1_555 1_555
C14A C13A 1_555 1_555
H9A C14A 1_555 1_555
C15A C14A 1_555 1_555
H10A C15A 1_555 1_555
C16A C15A 1_555 1_555
H11A C16A 1_555 1_555
C17A N1A 1_555 1_555
H12A C17A 1_555 1_555
N2A Cu3 1_555 1_555
C18A N2A 1_555 1_555
H13A C18A 1_555 1_555
C19A C18A 1_555 1_555
H14A C19A 1_555 1_555
C20A C19A 1_555 1_555
H15A C20A 1_555 1_555
C21A C20A 1_555 1_555
H16A C21A 1_555 1_555
C22A N2A 1_555 1_555
H17A C22A 1_555 1_555
Cu2 O5 1_555 1_555
Cu2 O11 1_555 1_555
C5 C6 1_555 1_555
C16 C17 1_555 1_555
C21 C22 1_555 1_555
Cu2A O5A 1_555 1_555
Cu2A O11A 1_555 1_555
C3_2 C4_2 1_555 1_555
C5_2 C6_2 1_555 1_555
C11A C12A 1_555 1_555
C16A C17A 1_555 1_555
C21A C22A 1_555 1_555

#END
