
#######################################################################
#
#                 Cambridge Crystallographic Data Centre
#                                CCDC 
#
#######################################################################
#
# If this CIF has been generated from an entry in the Cambridge 
# Structural Database, then it will include bibliographic, chemical, 
# crystal, experimental, refinement or atomic coordinate data resulting 
# from the CCDC's data processing and validation procedures.
#
#######################################################################

data_TATNEJ
_symmetry_cell_setting           orthorhombic
_symmetry_space_group_name_H-M   'P c a n'
_symmetry_Int_Tables_number      60
_space_group_name_Hall           '-P 2n 2c'
loop_
_symmetry_equiv_pos_site_id
_symmetry_equiv_pos_as_xyz
1 x,y,z
2 1/2-x,1/2-y,1/2+z
3 x,-y,1/2-z
4 1/2-x,1/2+y,-z
5 -x,-y,-z
6 1/2+x,1/2+y,1/2-z
7 -x,y,1/2+z
8 1/2+x,1/2-y,z
_cell_length_a                   22.5646(19)
_cell_length_b                   23.6554(18)
_cell_length_c                   48.071(4)
_cell_angle_alpha                90
_cell_angle_beta                 90
_cell_angle_gamma                90
_cell_volume                     25659.1
loop_
_atom_site_label
_atom_site_type_symbol
_atom_site_fract_x
_atom_site_fract_y
_atom_site_fract_z
C1 C 0.7373(3) 0.2281(3) 0.85824(16)
C2 C 0.7186(4) 0.2426(4) 0.83299(17)
C3 C 0.7365(5) 0.2169(6) 0.8059(2)
H1 H 0.7250 0.1774 0.8059
H2 H 0.7793 0.2185 0.8044
C4 C 0.7099(8) 0.2449(8) 0.7805(3)
H3 H 0.7333 0.2779 0.7757
H4 H 0.7116 0.2188 0.7650
C5 C 0.6476(8) 0.2624(7) 0.7849(3)
H5 H 0.6241 0.2302 0.7907
H6 H 0.6312 0.2769 0.7677
C6 C 0.6457(5) 0.3076(5) 0.8070(2)
H7 H 0.6678 0.3403 0.8006
H8 H 0.6049 0.3192 0.8099
C7 C 0.6709(4) 0.2873(4) 0.83355(19)
C8 C 0.6559(3) 0.3028(3) 0.85908(19)
C9 C 0.6135(4) 0.3442(3) 0.8689(2)
C10 C 0.5986(5) 0.3932(4) 0.8554(3)
H9 H 0.6151 0.4009 0.8381
C11 C 0.5601(5) 0.4307(5) 0.8668(4)
H10 H 0.5492 0.4634 0.8574
C12 C 0.5384(5) 0.4196(5) 0.8918(4)
H11 H 0.5126 0.4453 0.9000
C13 C 0.5536(4) 0.3694(5) 0.9065(3)
H12 H 0.5377 0.3624 0.9240
C14 C 0.7809(3) 0.1838(3) 0.86750(19)
C15 C 0.8297(4) 0.1673(4) 0.8512(2)
H13 H 0.8348 0.1814 0.8333
C16 C 0.8697(4) 0.1298(5) 0.8625(3)
H14 H 0.9025 0.1176 0.8524
C17 C 0.8599(4) 0.1112(4) 0.8889(3)
H15 H 0.8874 0.0878 0.8975
C18 C 0.8099(4) 0.1268(4) 0.9029(3)
H16 H 0.8033 0.1119 0.9205
C19 C 0.7432(3) 0.3126(3) 0.90325(17)
C20 C 0.7862(4) 0.3421(4) 0.88947(19)
H17 H 0.7918 0.3361 0.8705
C21 C 0.8220(3) 0.3811(4) 0.9035(2)
H18 H 0.8513 0.4006 0.8938
C22 C 0.8139(5) 0.3910(4) 0.9317(2)
H19 H 0.8389 0.4154 0.9413
C23 C 0.7675(5) 0.3635(4) 0.9454(2)
H20 H 0.7596 0.3721 0.9639
C24 C 0.7327(4) 0.3231(4) 0.9317(2)
H21 H 0.7031 0.3035 0.9412
C25 C 0.5707(4) 0.1385(4) 0.86478(19)
C26 C 0.5850(4) 0.1126(4) 0.8405(2)
C27 C 0.5513(5) 0.1253(5) 0.8131(2)
H22 H 0.5136 0.1056 0.8131
H23 H 0.5435 0.1656 0.8118
C28 C 0.5888(6) 0.1059(6) 0.7880(3)
H24 H 0.6236 0.1297 0.7864
H25 H 0.5658 0.1097 0.7711
C29 C 0.6081(6) 0.0432(6) 0.7918(3)
H26 H 0.5736 0.0197 0.7953
H27 H 0.6273 0.0297 0.7750
C30 C 0.6516(5) 0.0389(5) 0.8167(3)
H28 H 0.6899 0.0536 0.8111
H29 H 0.6567 -0.0006 0.8216
C31 C 0.6297(4) 0.0718(4) 0.8426(2)
C32 C 0.6543(4) 0.0647(4) 0.8684(2)
C33 C 0.7019(4) 0.0306(4) 0.8780(2)
C34 C 0.7402(4) 0.0027(4) 0.8614(3)
H30 H 0.7376 0.0061 0.8422
C35 C 0.7827(5) -0.0303(5) 0.8731(3)
H31 H 0.8105 -0.0478 0.8617
C36 C 0.7858(4) -0.0387(4) 0.9028(3)
H32 H 0.8131 -0.0625 0.9113
C37 C 0.7460(4) -0.0093(4) 0.9164(3)
H33 H 0.7466 -0.0129 0.9356
C38 C 0.5234(4) 0.1760(4) 0.8702(2)
C39 C 0.4670(5) 0.1709(5) 0.8563(3)
H34 H 0.4616 0.1445 0.8422
C40 C 0.4207(5) 0.2063(6) 0.8645(3)
H35 H 0.3853 0.2057 0.8546
C41 C 0.4260(5) 0.2410(5) 0.8860(4)
H36 H 0.3936 0.2618 0.8921
C42 C 0.4799(4) 0.2459(5) 0.8993(3)
H37 H 0.4839 0.2716 0.9139
C43 C 0.5710(3) 0.0804(3) 0.91714(18)
C44 C 0.5223(4) 0.0491(4) 0.9086(2)
H38 H 0.5140 0.0453 0.8898
C45 C 0.4849(4) 0.0226(4) 0.9285(2)
H39 H 0.4517 0.0026 0.9226
C46 C 0.4969(4) 0.0262(4) 0.9554(2)
H40 H 0.4720 0.0090 0.9683
C47 C 0.5471(4) 0.0556(4) 0.9646(2)
H41 H 0.5565 0.0571 0.9834
C48 C 0.5818(4) 0.0821(4) 0.9453(2)
H42 H 0.6145 0.1023 0.9516
C49 C 0.9684(3) 0.1649(4) 1.16196(18)
C50 C 0.9458(4) 0.1371(4) 1.18440(18)
C51 C 0.9644(5) 0.1460(5) 1.2144(2)
H43 H 0.9621 0.1859 1.2188
H44 H 1.0053 0.1342 1.2166
C52 C 0.9254(10) 0.1127(9) 1.2347(3)
H45 H 0.9503 0.0830 1.2423
H46 H 0.9168 0.1382 1.2500
C53 C 0.8765(8) 0.0894(12) 1.2284(3)
H47 H 0.8455 0.1167 1.2322
H48 H 0.8708 0.0583 1.2413
C54 C 0.8655(4) 0.0673(5) 1.2006(2)
H49 H 0.8232 0.0684 1.1971
H50 H 0.8777 0.0280 1.2001
C55 C 0.8972(4) 0.0988(4) 1.1772(2)
C56 C 0.8834(3) 0.0984(4) 1.14998(18)
C57 C 0.8365(3) 0.0696(3) 1.13532(19)
C58 C 0.8114(4) 0.0169(4) 1.1417(2)
H51 H 0.8259 -0.0039 1.1566
C59 C 0.7651(5) -0.0044(5) 1.1259(3)
H52 H 0.7474 -0.0385 1.1308
C60 C 0.7454(5) 0.0246(4) 1.1031(3)
H53 H 0.7154 0.0101 1.0919
C61 C 0.7714(4) 0.0764(4) 1.0972(2)
H54 H 0.7578 0.0967 1.0819
C62 C 1.0132(3) 0.2120(4) 1.16045(19)
C63 C 1.0572(4) 0.2224(5) 1.1806(2)
H55 H 1.0592 0.2009 1.1968
C64 C 1.0968(4) 0.2651(6) 1.1758(3)
H56 H 1.1259 0.2726 1.1890
C65 C 1.0949(4) 0.2971(5) 1.1521(3)
H57 H 1.1223 0.3257 1.1489
C66 C 1.0504(3) 0.2853(4) 1.1330(2)
H58 H 1.0480 0.3068 1.1168
C67 C 0.9791(3) 0.0953(3) 1.11239(18)
C68 C 1.0247(3) 0.0676(3) 1.12640(19)
H59 H 1.0298 0.0726 1.1454
C69 C 1.0630(3) 0.0321(3) 1.1115(2)
H60 H 1.0935 0.0134 1.1207
C70 C 1.0560(4) 0.0248(3) 1.0837(2)
H61 H 1.0821 0.0019 1.0739
C71 C 1.0094(3) 0.0517(3) 1.06976(18)
H62 H 1.0038 0.0458 1.0508
C72 C 0.9719(3) 0.0870(3) 1.08423(17)
H63 H 0.9414 0.1055 1.0749
C73 C 0.8553(3) 0.3089(3) 1.13514(16)
C74 C 0.8712(3) 0.3185(3) 1.16071(19)
C75 C 0.9178(4) 0.3610(4) 1.16996(19)
H64 H 0.9116 0.3964 1.1602
H65 H 0.9568 0.3470 1.1650
C76 C 0.9153(5) 0.3716(5) 1.2016(2)
H66 H 0.9496 0.3936 1.2072
H67 H 0.8801 0.3933 1.2060
C77 C 0.9143(4) 0.3171(5) 1.2173(2)
H68 H 0.9474 0.2938 1.2115
H69 H 0.9188 0.3248 1.2370
C78 C 0.8577(4) 0.2858(4) 1.21260(18)
H70 H 0.8258 0.3054 1.2221
H71 H 0.8610 0.2483 1.2207
C79 C 0.8420(3) 0.2802(4) 1.18172(17)
C80 C 0.8046(3) 0.2418(3) 1.17017(15)
C81 C 0.7663(3) 0.1988(4) 1.18299(17)
C82 C 0.7476(4) 0.2007(4) 1.21046(18)
H72 H 0.7585 0.2309 1.2218
C83 C 0.7131(4) 0.1580(5) 1.2209(2)
H73 H 0.7009 0.1585 1.2394
C84 C 0.6969(4) 0.1149(4) 1.2039(2)
H74 H 0.6742 0.0851 1.2107
C85 C 0.7145(4) 0.1157(4) 1.1765(2)
H75 H 0.7027 0.0863 1.1649
C86 C 0.8807(3) 0.3375(3) 1.11039(18)
C87 C 0.8646(4) 0.3935(3) 1.10450(19)
H76 H 0.8368 0.4123 1.1154
C88 C 0.8910(4) 0.4198(3) 1.0822(2)
H77 H 0.8831 0.4576 1.0784
C89 C 0.9302(4) 0.3887(4) 1.0650(2)
H78 H 0.9476 0.4051 1.0495
C90 C 0.9417(4) 0.3337(3) 1.0722(2)
H79 H 0.9677 0.3132 1.0611
C91 C 0.7346(3) 0.2768(3) 1.12285(16)
C92 C 0.7060(3) 0.2576(3) 1.09880(16)
H80 H 0.7232 0.2290 1.0882
C93 C 0.6525(3) 0.2806(3) 1.09068(18)
H81 H 0.6343 0.2681 1.0744
C94 C 0.6263(4) 0.3217(3) 1.10642(19)
H82 H 0.5907 0.3378 1.1006
C95 C 0.6520(4) 0.3390(4) 1.1306(2)
H83 H 0.6327 0.3655 1.1416
C96 C 0.7074(3) 0.3176(3) 1.13917(18)
H84 H 0.7253 0.3305 1.1554
C97 C 0.5735(4) 0.2598(4) 0.9705(2)
C98 C 0.5129(3) 0.2880(3) 1.04938(17)
C99 C 0.7335(3) 0.1768(4) 0.96975(17)
C100 C 0.8180(3) 0.1857(3) 1.04509(17)
Cu1 Cu 0.68846(4) 0.17528(4) 0.90950(2)
Cu2 Cu 0.60543(4) 0.24774(4) 0.90796(2)
Cu3 Cu 0.94838(4) 0.22990(4) 1.10669(2)
Hg1 Hg 0.543320(15) 0.274830(16) 1.009755(7)
Hg2 Hg 0.776480(14) 0.183965(18) 1.007036(7)
N1 N 0.7707(3) 0.1622(3) 0.89233(15)
N2 N 0.5915(3) 0.3316(3) 0.89476(19)
N3 N 0.5279(3) 0.2139(3) 0.89153(19)
N4 N 0.7045(3) 0.0256(3) 0.90597(19)
N5 N 1.0107(3) 0.2434(3) 1.13719(15)
N6 N 0.8153(3) 0.0986(3) 1.11258(15)
N7 N 0.9178(2) 0.3081(2) 1.09404(14)
N8 N 0.7482(3) 0.1574(3) 1.16575(15)
N9 N 0.5891(3) 0.2529(3) 0.94818(17)
N10 N 0.4935(2) 0.2887(3) 1.07099(14)
N11 N 0.7116(3) 0.1756(3) 0.94909(15)
N12 N 0.8358(3) 0.1853(3) 1.06649(14)
P1 P 0.69482(8) 0.26214(8) 0.88558(4)
P2 P 0.62021(8) 0.11523(9) 0.89288(5)
P3 P 0.93067(8) 0.14537(9) 1.13042(4)
P4 P 0.80643(8) 0.24760(8) 1.13258(4)
Cu4 Cu 0.84801(4) 0.17863(4) 1.107011(19)
Cu3G Cu 0.44838(4) 0.27010(4) 1.10669(2)
N10G N 0.9935(2) 0.2113(3) 1.07099(14)
F1 F 0.1821(4) 0.6584(3) 0.18548(19)
F2 F 0.1110(4) 0.5940(4) 0.1989(2)
F3 F 0.1561(3) 0.5842(3) 0.15849(16)
F4 F 0.1806(4) 0.5269(3) 0.19403(16)
F5 F 0.2469(3) 0.5926(3) 0.17823(17)
F6 F 0.2031(7) 0.6001(4) 0.2198(2)
P7 P 0.18088(19) 0.59263(15) 0.18949(8)
F7 F 0.4111(5) 0.4006(7) 0.0137(3)
F8 F 0.4426(7) 0.3356(4) -0.0151(5)
F9 F 0.4571(7) 0.4004(8) -0.0450(2)
F10 F 0.4976(3) 0.4001(5) -0.0027(2)
F11 F 0.3692(4) 0.3904(5) -0.0259(3)
F12 F 0.4248(5) 0.4608(4) -0.0156(3)
P5 P 0.43514(13) 0.39705(13) -0.01696(7)
F13 F 0.6900(3) 0.1210(4) 0.04286(19)
F14 F 0.5607(3) 0.1619(4) 0.0343(2)
F15 F 0.6492(3) 0.2029(2) 0.03379(14)
F16 F 0.6160(5) 0.1518(3) 0.07061(15)
F17 F 0.6001(3) 0.0785(2) 0.04366(14)
F18 F 0.6313(3) 0.1276(3) 0.00745(13)
P6 P 0.62495(9) 0.13887(11) 0.03938(5)
loop_
_geom_bond_atom_site_label_1
_geom_bond_atom_site_label_2
_geom_bond_site_symmetry_1
_geom_bond_site_symmetry_2
C1 C2 1_555 1_555
C2 C3 1_555 1_555
C3 H1 1_555 1_555
H2 C3 1_555 1_555
C4 C3 1_555 1_555
H3 C4 1_555 1_555
H4 C4 1_555 1_555
C5 C4 1_555 1_555
H5 C5 1_555 1_555
H6 C5 1_555 1_555
C6 C5 1_555 1_555
H7 C6 1_555 1_555
H8 C6 1_555 1_555
C7 C2 1_555 1_555
C8 C7 1_555 1_555
C9 C8 1_555 1_555
C10 C9 1_555 1_555
H9 C10 1_555 1_555
C11 C10 1_555 1_555
H10 C11 1_555 1_555
C12 C11 1_555 1_555
H11 C12 1_555 1_555
C13 C12 1_555 1_555
H12 C13 1_555 1_555
C14 C1 1_555 1_555
C15 C14 1_555 1_555
H13 C15 1_555 1_555
C16 C15 1_555 1_555
H14 C16 1_555 1_555
C17 C16 1_555 1_555
H15 C17 1_555 1_555
C18 C17 1_555 1_555
H16 C18 1_555 1_555
C19 C20 1_555 1_555
C20 H17 1_555 1_555
C21 C20 1_555 1_555
H18 C21 1_555 1_555
C22 C21 1_555 1_555
H19 C22 1_555 1_555
C23 C22 1_555 1_555
H20 C23 1_555 1_555
C24 C19 1_555 1_555
H21 C24 1_555 1_555
C25 C26 1_555 1_555
C26 C27 1_555 1_555
C27 H22 1_555 1_555
H23 C27 1_555 1_555
C28 C27 1_555 1_555
H24 C28 1_555 1_555
H25 C28 1_555 1_555
C29 C28 1_555 1_555
H26 C29 1_555 1_555
H27 C29 1_555 1_555
C30 C29 1_555 1_555
H28 C30 1_555 1_555
H29 C30 1_555 1_555
C31 C26 1_555 1_555
C32 C31 1_555 1_555
C33 C32 1_555 1_555
C34 C33 1_555 1_555
H30 C34 1_555 1_555
C35 C34 1_555 1_555
H31 C35 1_555 1_555
C36 C35 1_555 1_555
H32 C36 1_555 1_555
C37 C36 1_555 1_555
H33 C37 1_555 1_555
C38 C25 1_555 1_555
C39 C38 1_555 1_555
H34 C39 1_555 1_555
C40 C39 1_555 1_555
H35 C40 1_555 1_555
C41 C40 1_555 1_555
H36 C41 1_555 1_555
C42 C41 1_555 1_555
H37 C42 1_555 1_555
C43 C44 1_555 1_555
C44 H38 1_555 1_555
C45 C44 1_555 1_555
H39 C45 1_555 1_555
C46 C45 1_555 1_555
H40 C46 1_555 1_555
C47 C46 1_555 1_555
H41 C47 1_555 1_555
C48 C43 1_555 1_555
H42 C48 1_555 1_555
C49 C50 1_555 1_555
C50 C51 1_555 1_555
C51 H43 1_555 1_555
H44 C51 1_555 1_555
C52 C51 1_555 1_555
H45 C52 1_555 1_555
H46 C52 1_555 1_555
C53 C52 1_555 1_555
H47 C53 1_555 1_555
H48 C53 1_555 1_555
C54 C53 1_555 1_555
H49 C54 1_555 1_555
H50 C54 1_555 1_555
C55 C50 1_555 1_555
C56 C55 1_555 1_555
C57 C56 1_555 1_555
C58 C57 1_555 1_555
H51 C58 1_555 1_555
C59 C58 1_555 1_555
H52 C59 1_555 1_555
C60 C59 1_555 1_555
H53 C60 1_555 1_555
C61 C60 1_555 1_555
H54 C61 1_555 1_555
C62 C49 1_555 1_555
C63 C62 1_555 1_555
H55 C63 1_555 1_555
C64 C63 1_555 1_555
H56 C64 1_555 1_555
C65 C64 1_555 1_555
H57 C65 1_555 1_555
C66 C65 1_555 1_555
H58 C66 1_555 1_555
C67 C68 1_555 1_555
C68 H59 1_555 1_555
C69 C68 1_555 1_555
H60 C69 1_555 1_555
C70 C69 1_555 1_555
H61 C70 1_555 1_555
C71 C70 1_555 1_555
H62 C71 1_555 1_555
C72 C67 1_555 1_555
H63 C72 1_555 1_555
C73 C74 1_555 1_555
C74 C75 1_555 1_555
C75 H64 1_555 1_555
H65 C75 1_555 1_555
C76 C75 1_555 1_555
H66 C76 1_555 1_555
H67 C76 1_555 1_555
C77 C76 1_555 1_555
H68 C77 1_555 1_555
H69 C77 1_555 1_555
C78 C77 1_555 1_555
H70 C78 1_555 1_555
H71 C78 1_555 1_555
C79 C74 1_555 1_555
C80 C79 1_555 1_555
C81 C80 1_555 1_555
C82 C81 1_555 1_555
H72 C82 1_555 1_555
C83 C82 1_555 1_555
H73 C83 1_555 1_555
C84 C83 1_555 1_555
H74 C84 1_555 1_555
C85 C84 1_555 1_555
H75 C85 1_555 1_555
C86 C73 1_555 1_555
C87 C86 1_555 1_555
H76 C87 1_555 1_555
C88 C87 1_555 1_555
H77 C88 1_555 1_555
C89 C88 1_555 1_555
H78 C89 1_555 1_555
C90 C89 1_555 1_555
H79 C90 1_555 1_555
C91 C92 1_555 1_555
C92 H80 1_555 1_555
C93 C92 1_555 1_555
H81 C93 1_555 1_555
C94 C93 1_555 1_555
H82 C94 1_555 1_555
C95 C94 1_555 1_555
H83 C95 1_555 1_555
C96 C91 1_555 1_555
H84 C96 1_555 1_555
C97 Hg1 1_555 1_555
C98 Hg1 1_555 1_555
C99 Hg2 1_555 1_555
C100 Hg2 1_555 1_555
Cu1 N1 1_555 1_555
Cu2 N2 1_555 1_555
Cu3 N5 1_555 1_555
F1 P7 1_555 1_555
F2 P7 1_555 1_555
F3 P7 1_555 1_555
F4 P7 1_555 1_555
F5 P7 1_555 1_555
F6 P7 1_555 1_555
F7 P5 1_555 1_555
F8 P5 1_555 1_555
F9 P5 1_555 1_555
F10 P5 1_555 1_555
F11 P5 1_555 1_555
F12 P5 1_555 1_555
F13 P6 1_555 1_555
F14 P6 1_555 1_555
F15 P6 1_555 1_555
F16 P6 1_555 1_555
F17 P6 1_555 1_555
F18 P6 1_555 1_555
N1 C14 1_555 1_555
N2 C9 1_555 1_555
N3 C38 1_555 1_555
N4 C33 1_555 1_555
N5 C62 1_555 1_555
N6 C57 1_555 1_555
N7 C86 1_555 1_555
N8 C81 1_555 1_555
N9 C97 1_555 1_555
N10 C98 1_555 1_555
N11 C99 1_555 1_555
N12 C100 1_555 1_555
P1 C1 1_555 1_555
P2 C25 1_555 1_555
P3 C49 1_555 1_555
P4 C73 1_555 1_555
Cu4 N6 1_555 1_555
Cu3G N10 1_555 1_555
N10G Cu3 1_555 1_555
C6 C7 1_555 1_555
C8 P1 1_555 1_555
C13 N2 1_555 1_555
C18 N1 1_555 1_555
C19 P1 1_555 1_555
C23 C24 1_555 1_555
C30 C31 1_555 1_555
C32 P2 1_555 1_555
C37 N4 1_555 1_555
C42 N3 1_555 1_555
C43 P2 1_555 1_555
C47 C48 1_555 1_555
C54 C55 1_555 1_555
C56 P3 1_555 1_555
C61 N6 1_555 1_555
C66 N5 1_555 1_555
C67 P3 1_555 1_555
C71 C72 1_555 1_555
C78 C79 1_555 1_555
C80 P4 1_555 1_555
C85 N8 1_555 1_555
C90 N7 1_555 1_555
C91 P4 1_555 1_555
C95 C96 1_555 1_555
Cu1 N11 1_555 1_555
Cu1 P1 1_555 1_555
Cu1 P2 1_555 1_555
Cu2 N3 1_555 1_555
Cu2 N9 1_555 1_555
Cu2 P1 1_555 1_555
Cu3 N7 1_555 1_555
Cu3 P3 1_555 1_555
N12 Cu4 1_555 1_555
P3 Cu4 1_555 1_555
P4 Cu4 1_555 1_555

#END
