
#######################################################################
#
#                 Cambridge Crystallographic Data Centre
#                                CCDC 
#
#######################################################################
#
# If this CIF has been generated from an entry in the Cambridge 
# Structural Database, then it will include bibliographic, chemical, 
# crystal, experimental, refinement or atomic coordinate data resulting 
# from the CCDC's data processing and validation procedures.
#
#######################################################################

data_TAVDIF
_symmetry_cell_setting           orthorhombic
_symmetry_space_group_name_H-M   'P n m a'
_symmetry_Int_Tables_number      62
_space_group_name_Hall           '-P 2ac 2n'
loop_
_symmetry_equiv_pos_site_id
_symmetry_equiv_pos_as_xyz
1 x,y,z
2 1/2-x,-y,1/2+z
3 -x,1/2+y,-z
4 1/2+x,1/2-y,1/2-z
5 -x,-y,-z
6 1/2+x,y,1/2-z
7 x,1/2-y,z
8 1/2-x,1/2+y,1/2+z
_cell_length_a                   14.3152(16)
_cell_length_b                   18.995(2)
_cell_length_c                   12.6405(14)
_cell_angle_alpha                90
_cell_angle_beta                 90
_cell_angle_gamma                90
_cell_volume                     3437.17
loop_
_atom_site_label
_atom_site_type_symbol
_atom_site_fract_x
_atom_site_fract_y
_atom_site_fract_z
Cu1 Cu 0.13152(3) 0.52565(2) 0.88363(4)
O1 O -0.0046(2) 0.54405(14) 0.8833(2)
H1 H -0.0437 0.5127 0.8779
H2 H -0.0202 0.5701 0.9319
O4 O 0.1076(2) 0.43736(14) 0.8118(2)
O5 O 0.0834(2) 0.38029(15) 0.9639(2)
O6 O 0.1526(2) 0.61697(14) 0.9506(2)
O7 O 0.1253(2) 0.56343(14) 1.1042(2)
O8 O 0.1551(2) 0.57932(16) 0.7222(2)
N1 N 0.2376(2) 0.50692(17) 0.4186(3)
N2 N 0.1035(4) 0.6771(2) 0.6394(3)
C1 C 0.0941(3) 0.3817(2) 0.8661(3)
C2 C 0.0949(3) 0.3139(2) 0.8053(3)
C3 C 0.1071(3) 0.3133(2) 0.6964(3)
H5 H 0.1120 0.3555 0.6596
C4 C 0.1122(4) 0.2500 0.6423(5)
H6 H 0.1190 0.2500 0.5691
C5 C 0.0882(4) 0.2500 0.8592(4)
H7 H 0.0791 0.2500 0.9320
C6 C 0.1413(3) 0.6172(2) 1.0516(3)
C7 C 0.1494(3) 0.6864(2) 1.1064(3)
C8 C 0.1609(3) 0.6871(2) 1.2156(3)
H8 H 0.1632 0.6449 1.2526
C9 C 0.1691(5) 0.7500 1.2697(5)
H9 H 0.1800 0.7500 1.3422
C10 C 0.1455(4) 0.7500 1.0514(4)
H10 H 0.1403 0.7500 0.9781
C11 C 0.2225(3) 0.5406(2) 0.5104(3)
H11 H 0.2710 0.5428 0.5593
C12 C 0.1388(3) 0.5719(2) 0.5359(3)
C13 C 0.0658(3) 0.5651(2) 0.4650(3)
H12 H 0.0077 0.5845 0.4804
C14 C 0.0792(3) 0.5295(2) 0.3716(3)
H13 H 0.0305 0.5243 0.3236
C15 C 0.1662(3) 0.5017(2) 0.3505(4)
H14 H 0.1757 0.4785 0.2866
C16 C 0.1321(3) 0.6100(2) 0.6409(3)
C17 C 0.0660(7) 0.7152(4) 0.5467(6)
H15 H 0.1011 0.6999 0.4852
H16 H 0.0020 0.6999 0.5365
C18 C 0.0696(7) 0.7123(5) 0.7352(6)
H17 H 0.0062 0.6965 0.7482
H18 H 0.1074 0.6965 0.7942
Cu1F Cu 0.13152(3) -0.02565(2) 0.88363(4)
Cu1A Cu 0.36848(3) 0.47435(2) 0.38363(4)
Cu1F_2 Cu 0.13152(3) 0.97435(2) 0.88363(4)
Cu1G Cu 0.36848(3) 1.02565(2) 0.38363(4)
O1F O -0.0046(2) -0.04405(14) 0.8833(2)
H1F H -0.0437 -0.0127 0.8779
H2F H -0.0202 -0.0701 0.9319
O4F O 0.1076(2) 0.06264(14) 0.8118(2)
O5F O 0.0834(2) 0.11971(15) 0.9639(2)
O6F O 0.1526(2) 0.88303(14) 0.9506(2)
O6F_2 O 0.1526(2) -0.11697(14) 0.9506(2)
O7F O 0.1253(2) 0.93657(14) 1.1042(2)
O8F O 0.1551(2) 0.92068(16) 0.7222(2)
O8F_2 O 0.1551(2) -0.07932(16) 0.7222(2)
N1F N 0.2376(2) 0.99308(17) 0.4186(3)
N1A N 0.2624(2) 0.49308(17) 0.9186(3)
N1G N 0.2624(2) 0.00692(17) 0.9186(3)
N2F N 0.1035(4) 0.8229(2) 0.6394(3)
C1F C 0.0941(3) 0.1183(2) 0.8661(3)
C2F C 0.0949(3) 0.1861(2) 0.8053(3)
C3F C 0.1071(3) 0.1867(2) 0.6964(3)
H5F H 0.1120 0.1445 0.6596
C6F C 0.1413(3) 0.8828(2) 1.0516(3)
C7F C 0.1494(3) 0.8136(2) 1.1064(3)
C8F C 0.1609(3) 0.8129(2) 1.2156(3)
H8F H 0.1632 0.8551 1.2526
C11F C 0.2225(3) 0.9594(2) 0.5104(3)
H11F H 0.2710 0.9572 0.5593
C12F C 0.1388(3) 0.9281(2) 0.5359(3)
C13F C 0.0658(3) 0.9349(2) 0.4650(3)
H12F H 0.0077 0.9155 0.4804
C14F C 0.0792(3) 0.9705(2) 0.3716(3)
H13F H 0.0305 0.9757 0.3236
C15F C 0.1662(3) 0.9983(2) 0.3505(4)
H14F H 0.1757 1.0215 0.2866
C16F C 0.1321(3) 0.8900(2) 0.6409(3)
C17F C 0.0660(7) 0.7848(4) 0.5467(6)
H15F H 0.1011 0.8001 0.4852
H16F H 0.0020 0.8001 0.5365
C18F C 0.0696(7) 0.7877(5) 0.7352(6)
H17F H 0.0062 0.8035 0.7482
H18F H 0.1074 0.8035 0.7942
O2 O 0.3353(3) 0.6760(2) 0.8799(4)
H3 H 0.2856 0.6550 0.8871
O3 O 0.3464(4) 0.6806(3) 0.6571(5)
H4 H 0.3385 0.6607 0.6004
C19? C 0.1331(7) 0.7232(4) 0.5469(6)
C20? C 0.1299(7) 0.7218(5) 0.7359(6)
H19? H 0.1964 0.7091 0.5295
H20? H 0.0944 0.7091 0.4876
H21? H 0.0887 0.7074 0.7928
H22? H 0.1923 0.7074 0.7563
loop_
_geom_bond_atom_site_label_1
_geom_bond_atom_site_label_2
_geom_bond_site_symmetry_1
_geom_bond_site_symmetry_2
Cu1 O1 1_555 1_555
O1 H1 1_555 1_555
H2 O1 1_555 1_555
O2 H3 1_555 1_555
O3 H4 1_555 1_555
O4 Cu1 1_555 1_555
O5 C1 1_555 1_555
O6 Cu1 1_555 1_555
O7 C6 1_555 1_555
O8 Cu1 1_555 1_555
N1 C11 1_555 1_555
N2 C16 1_555 1_555
C1 O4 1_555 1_555
C2 C1 1_555 1_555
C3 C2 1_555 1_555
H5 C3 1_555 1_555
C4 C3 1_555 1_555
H6 C4 1_555 1_555
C5 C2 1_555 1_555
H7 C5 1_555 1_555
C6 O6 1_555 1_555
C7 C6 1_555 1_555
C8 C7 1_555 1_555
H8 C8 1_555 1_555
C9 C8 1_555 1_555
H9 C9 1_555 1_555
C10 C7 1_555 1_555
H10 C10 1_555 1_555
C11 H11 1_555 1_555
C12 C11 1_555 1_555
C13 C12 1_555 1_555
H12 C13 1_555 1_555
C14 C13 1_555 1_555
H13 C14 1_555 1_555
C15 N1 1_555 1_555
H14 C15 1_555 1_555
C16 O8 1_555 1_555
C17 N2 1_555 1_555
H15 C17 1_555 1_555
H16 C17 1_555 1_555
C18 N2 1_555 1_555
H17 C18 1_555 1_555
H18 C18 1_555 1_555
Cu1F O1F 1_555 1_555
Cu1A N1 1_555 1_555
Cu1F_2 O6F 1_555 1_555
Cu1G N1F 1_555 1_555
O1F H1F 1_555 1_555
H2F O1F 1_555 1_555
O4F Cu1F 1_555 1_555
O5F C1F 1_555 1_555
O6F C6F 1_555 1_555
O6F_2 Cu1F 1_555 1_555
O7F C6F 1_555 1_555
O8F Cu1F_2 1_555 1_555
O8F_2 Cu1F 1_555 1_555
N1F C11F 1_555 1_555
N1A Cu1 1_555 1_555
N1G Cu1F 1_555 1_555
N2F C16F 1_555 1_555
C1F O4F 1_555 1_555
C2F C5 1_555 1_555
C3F C4 1_555 1_555
H5F C3F 1_555 1_555
C6F C7F 1_555 1_555
C7F C10 1_555 1_555
C8F C9 1_555 1_555
H8F C8F 1_555 1_555
C11F H11F 1_555 1_555
C12F C11F 1_555 1_555
C13F C12F 1_555 1_555
H12F C13F 1_555 1_555
C14F C13F 1_555 1_555
H13F C14F 1_555 1_555
C15F N1F 1_555 1_555
H14F C15F 1_555 1_555
C16F O8F 1_555 1_555
C17F C17 1_555 1_555
H15F C17F 1_555 1_555
H16F C17F 1_555 1_555
C18F C18 1_555 1_555
H17F C18F 1_555 1_555
H18F C18F 1_555 1_555
C12 C16 1_555 1_555
C14 C15 1_555 1_555
N2F C17F 1_555 1_555
N2F C18F 1_555 1_555
C1F C2F 1_555 1_555
C2F C3F 1_555 1_555
C7F C8F 1_555 1_555
C12F C16F 1_555 1_555
C14F C15F 1_555 1_555

#END
