
#######################################################################
#
#                 Cambridge Crystallographic Data Centre
#                                CCDC 
#
#######################################################################
#
# If this CIF has been generated from an entry in the Cambridge 
# Structural Database, then it will include bibliographic, chemical, 
# crystal, experimental, refinement or atomic coordinate data resulting 
# from the CCDC's data processing and validation procedures.
#
#######################################################################

data_TAVSEO
_symmetry_cell_setting           monoclinic
_symmetry_space_group_name_H-M   'P 21/n'
_symmetry_Int_Tables_number      14
_space_group_name_Hall           '-P 2yn'
loop_
_symmetry_equiv_pos_site_id
_symmetry_equiv_pos_as_xyz
1 x,y,z
2 1/2-x,1/2+y,1/2-z
3 -x,-y,-z
4 1/2+x,1/2-y,1/2+z
_cell_length_a                   7.969(5)
_cell_length_b                   11.559(4)
_cell_length_c                   13.736(5)
_cell_angle_alpha                90
_cell_angle_beta                 100.48(4)
_cell_angle_gamma                90
_cell_volume                     1244.17
loop_
_atom_site_label
_atom_site_type_symbol
_atom_site_fract_x
_atom_site_fract_y
_atom_site_fract_z
O1 O -0.1949(6) 0.1273(5) 0.3324(4)
Cu1 Cu 0.6626(1) 0.92021(7) -0.43361(5)
Cu2 Cu 1.0801(1) 0.81688(7) -0.64552(5)
N1 N 0.8237(6) 0.8844(4) -0.5184(4)
C1 C 0.9217(7) 0.8612(5) -0.5659(4)
C2 C 1.1114(6) 0.6761(5) -0.8275(4)
N2 N 1.0940(7) 0.7320(5) -0.7614(4)
S1 S 1.1368(2) 0.3800(1) -0.9255(1)
N3 N 1.0195(8) 0.4182(5) -0.7616(4)
N4 N 0.9776(7) 0.2352(5) -0.8207(4)
C3 C 1.0367(7) 0.3399(5) -0.8280(4)
C4 C 0.928(2) 0.402(1) -0.6772(8)
C5 C 1.015(2) 0.403(2) -0.594(1)
C6 C 0.975(1) 0.1452(7) -0.8933(6)
C7 C 1.032(1) 0.0344(8) -0.8532(8)
H1 H 1.048(7) 0.498(5) -0.770(4)
H2 H 0.918(7) 0.218(5) -0.776(4)
H3 H 0.8451 0.4615 -0.6804
H4 H 0.8718 0.3288 -0.6857
H5 H 0.9439 0.3925 -0.5467
H6 H 1.0971 0.3432 -0.5887
H7 H 1.0713 0.4759 -0.5838
H8 H 0.8609 0.1371 -0.9280
H9 H 1.0464 0.1680 -0.9381
H10 H 0.9605 0.0094 -0.8089
H11 H 1.0263 -0.0200 -0.9055
H12 H 1.1461 0.0405 -0.8187
Cu1C Cu 1.1626(1) 0.57979(7) -0.93361(5)
N1C N 1.3237(6) 0.6156(4) -1.0184(4)
Cu1A Cu 0.8374(1) 0.42021(7) -1.06639(5)
S1A S 1.3632(2) 0.8800(1) -0.5745(1)
loop_
_geom_bond_atom_site_label_1
_geom_bond_atom_site_label_2
_geom_bond_site_symmetry_1
_geom_bond_site_symmetry_2
Cu1 N1 1_555 1_555
Cu2 C1 1_555 1_555
N1 C1 1_555 1_555
C2 N2 1_555 1_555
N2 Cu2 1_555 1_555
S1 C3 1_555 1_555
N3 C3 1_555 1_555
N4 C3 1_555 1_555
C4 N3 1_555 1_555
C5 C4 1_555 1_555
C6 N4 1_555 1_555
C7 C6 1_555 1_555
H1 N3 1_555 1_555
H2 N4 1_555 1_555
H3 C4 1_555 1_555
H4 C4 1_555 1_555
H5 C5 1_555 1_555
H6 C5 1_555 1_555
H7 C5 1_555 1_555
H8 C6 1_555 1_555
H9 C6 1_555 1_555
H10 C7 1_555 1_555
H11 C7 1_555 1_555
H12 C7 1_555 1_555
Cu1C C2 1_555 1_555
N1C Cu1C 1_555 1_555
Cu1A S1 1_555 1_555
S1A Cu2 1_555 1_555
S1 Cu1C 1_555 1_555

#END
