
#######################################################################
#
#                 Cambridge Crystallographic Data Centre
#                                CCDC 
#
#######################################################################
#
# If this CIF has been generated from an entry in the Cambridge 
# Structural Database, then it will include bibliographic, chemical, 
# crystal, experimental, refinement or atomic coordinate data resulting 
# from the CCDC's data processing and validation procedures.
#
#######################################################################

data_TAVVIW
_symmetry_cell_setting           monoclinic
_symmetry_space_group_name_H-M   'C 2/c'
_symmetry_Int_Tables_number      15
_space_group_name_Hall           '-C 2yn'
loop_
_symmetry_equiv_pos_site_id
_symmetry_equiv_pos_as_xyz
1 x,y,z
2 1/2+x,1/2+y,z
3 -x,y,1/2-z
4 1/2-x,1/2+y,1/2-z
5 -x,-y,-z
6 1/2-x,1/2-y,-z
7 x,-y,1/2+z
8 1/2+x,1/2-y,1/2+z
_cell_length_a                   14.1868(13)
_cell_length_b                   15.8571(15)
_cell_length_c                   18.3044(17)
_cell_angle_alpha                90.00
_cell_angle_beta                 93.650(2)
_cell_angle_gamma                90.00
_cell_volume                     4109.43
loop_
_atom_site_label
_atom_site_type_symbol
_atom_site_fract_x
_atom_site_fract_y
_atom_site_fract_z
Mo1 Mo 0.04168(4) 0.11945(4) 0.58801(3)
Mo2 Mo 0.17568(4) -0.00384(4) 0.47090(3)
Cu1 Cu 0.35409(6) 0.09440(5) 0.73294(4)
P1 P 0.27152(12) 0.14638(10) 0.57703(9)
O1 O 0.3501(3) 0.1350(3) 0.6353(2)
O2 O 0.1767(3) 0.1582(3) 0.6102(2)
O3 O 0.2713(3) 0.0745(3) 0.5214(2)
O4 O 0.1246(4) 0.0064(3) 0.5778(3)
O5 O 0.0910(3) 0.1086(3) 0.4813(2)
O6 O 0.0303(4) 0.1024(4) 0.6782(3)
O7 O 0.0023(3) 0.2196(3) 0.5729(3)
O8 O -0.0593(3) 0.0568(3) 0.5498(3)
O9 O 0.2434(4) -0.0892(3) 0.4891(3)
O10 O 0.2018(4) 0.0244(3) 0.3848(3)
O11 O 0.2057(4) 0.0884(3) 0.7650(3)
N1 N 0.3820(4) 0.2082(4) 0.7783(3)
N2 N 0.4045(4) 0.0605(3) 0.8278(3)
N3 N 0.3602(4) -0.0331(4) 0.7187(3)
C1 C 0.3710(5) 0.2826(4) 0.7458(4)
H1 H 0.3455 0.2848 0.6966
C2 C 0.3954(5) 0.3566(4) 0.7812(4)
H2 H 0.3858 0.4090 0.7568
C3 C 0.4343(6) 0.3546(5) 0.8530(4)
H3 H 0.4533 0.4049 0.8779
C4 C 0.4443(5) 0.2765(4) 0.8869(4)
H4 H 0.4696 0.2723 0.9361
C5 C 0.4171(5) 0.2052(4) 0.8481(4)
C6 C 0.4289(5) 0.1183(4) 0.8773(4)
C7 C 0.4652(5) 0.0964(5) 0.9463(4)
H5 H 0.4811 0.1389 0.9816
C8 C 0.4782(5) 0.0134(4) 0.9637(4)
C9 C 0.4515(5) -0.0472(4) 0.9102(4)
H6 H 0.4592 -0.1056 0.9208
C10 C 0.4147(5) -0.0222(4) 0.8433(4)
C11 C 0.3862(5) -0.0761(4) 0.7798(4)
C12 C 0.3880(5) -0.1627(4) 0.7811(4)
H7 H 0.4042 -0.1922 0.8253
C13 C 0.3655(5) -0.2062(5) 0.7163(4)
H8 H 0.3681 -0.2660 0.7154
C14 C 0.3397(5) -0.1628(4) 0.6545(4)
H9 H 0.3235 -0.1916 0.6100
C15 C 0.3375(5) -0.0742(4) 0.6575(4)
H10 H 0.3192 -0.0433 0.6145
C16 C 0.2911(5) 0.2409(4) 0.5278(4)
H11 H 0.2988 0.2886 0.5626
H12 H 0.3501 0.2356 0.5021
H13 H 0.201(5) 0.063(4) 0.801(4)
H14 H 0.144(7) 0.090(6) 0.734(5)
Mo1E Mo 0.45832(4) 0.38055(4) 0.41199(3)
Mo1D Mo -0.04168(4) -0.11945(4) 0.41199(3)
Mo2E Mo 0.32432(4) 0.50384(4) 0.52910(3)
Mo2D Mo -0.17568(4) 0.00384(4) 0.52910(3)
Cu1E Cu 0.14591(6) 0.40560(5) 0.26706(4)
Cu1D Cu 0.64591(6) -0.09440(5) 1.26706(4)
P1E P 0.22848(12) 0.35362(10) 0.42297(9)
O1E O 0.1499(3) 0.3650(3) 0.3647(2)
O2E O 0.3233(3) 0.3418(3) 0.3898(2)
O3E O 0.2287(3) 0.4255(3) 0.4786(2)
O4E O 0.3754(4) 0.4936(3) 0.4222(3)
O5E O 0.4090(3) 0.3914(3) 0.5187(2)
O6E O 0.4697(4) 0.3976(4) 0.3218(3)
O7E O 0.4977(3) 0.2804(3) 0.4271(3)
O8D O 0.0593(3) -0.0568(3) 0.4502(3)
O8E O 0.5593(3) 0.4432(3) 0.4502(3)
O8A O 0.4407(3) 0.5568(3) 0.5498(3)
O9E O 0.2566(4) 0.5892(3) 0.5109(3)
O10E O 0.2982(4) 0.4756(3) 0.6152(3)
O11E O 0.2943(4) 0.4116(3) 0.2350(3)
N1D N 0.6180(4) -0.2082(4) 1.2217(3)
N1E N 0.1180(4) 0.2918(4) 0.2217(3)
N2D N 0.5955(4) -0.0605(3) 1.1722(3)
N2E N 0.0955(4) 0.4395(3) 0.1722(3)
N3D N 0.6398(4) 0.0331(4) 1.2813(3)
N3E N 0.1398(4) 0.5331(4) 0.2813(3)
C1D C 0.6290(5) -0.2826(4) 1.2542(4)
H1D H 0.6545 -0.2848 1.3034
C2D C 0.6046(5) -0.3566(4) 1.2188(4)
H2D H 0.6142 -0.4090 1.2432
C3D C 0.5657(6) -0.3546(5) 1.1470(4)
H3D H 0.5467 -0.4049 1.1221
C4D C 0.5557(5) -0.2765(4) 1.1131(4)
H4D H 0.5304 -0.2723 1.0639
C5D C 0.5829(5) -0.2052(4) 1.1519(4)
C6D C 0.5711(5) -0.1183(4) 1.1227(4)
C7D C 0.5348(5) -0.0964(5) 1.0537(4)
H5D H 0.5189 -0.1389 1.0184
C8D C 0.5218(5) -0.0134(4) 1.0363(4)
C9D C 0.5485(5) 0.0472(4) 1.0898(4)
H6D H 0.5408 0.1056 1.0792
C10D C 0.5853(5) 0.0222(4) 1.1567(4)
C11D C 0.6138(5) 0.0761(4) 1.2202(4)
C12D C 0.6120(5) 0.1627(4) 1.2189(4)
H7D H 0.5958 0.1922 1.1747
C13D C 0.6345(5) 0.2062(5) 1.2837(4)
H8D H 0.6319 0.2660 1.2846
C14D C 0.6603(5) 0.1628(4) 1.3455(4)
H9D H 0.6765 0.1916 1.3900
C15D C 0.6625(5) 0.0742(4) 1.3425(4)
H10D H 0.6808 0.0433 1.3855
C16E C 0.2089(5) 0.2591(4) 0.4722(4)
H11E H 0.2012 0.2114 0.4374
H12E H 0.1499 0.2644 0.4979
H13E H 0.299(5) 0.437(4) 0.199(4)
H14E H 0.356(7) 0.410(6) 0.266(5)
loop_
_geom_bond_atom_site_label_1
_geom_bond_atom_site_label_2
_geom_bond_site_symmetry_1
_geom_bond_site_symmetry_2
Mo1 O2 1_555 1_555
Mo2 O3 1_555 1_555
Cu1 O1 1_555 1_555
P1 O1 1_555 1_555
O2 P1 1_555 1_555
O3 P1 1_555 1_555
O4 Mo1 1_555 1_555
O5 Mo1 1_555 1_555
O6 Mo1 1_555 1_555
O7 Mo1 1_555 1_555
O8 Mo1 1_555 1_555
O9 Mo2 1_555 1_555
O10 Mo2 1_555 1_555
O11 Cu1 1_555 1_555
N1 Cu1 1_555 1_555
N2 Cu1 1_555 1_555
N3 Cu1 1_555 1_555
C1 N1 1_555 1_555
H1 C1 1_555 1_555
C2 C1 1_555 1_555
H2 C2 1_555 1_555
C3 C2 1_555 1_555
H3 C3 1_555 1_555
C4 C3 1_555 1_555
H4 C4 1_555 1_555
C5 N1 1_555 1_555
C6 N2 1_555 1_555
C7 C6 1_555 1_555
H5 C7 1_555 1_555
C8 C7 1_555 1_555
C9 C8 1_555 1_555
H6 C9 1_555 1_555
C10 N2 1_555 1_555
C11 N3 1_555 1_555
C12 C11 1_555 1_555
H7 C12 1_555 1_555
C13 C12 1_555 1_555
H8 C13 1_555 1_555
C14 C13 1_555 1_555
H9 C14 1_555 1_555
C15 N3 1_555 1_555
H10 C15 1_555 1_555
C16 P1 1_555 1_555
H11 C16 1_555 1_555
H12 C16 1_555 1_555
H13 O11 1_555 1_555
H14 O11 1_555 1_555
Mo1E O2E 1_555 1_555
Mo1D O8D 1_555 1_555
Mo2E O3E 1_555 1_555
Mo2D O8 1_555 1_555
Cu1E O1E 1_555 1_555
Cu1D N1D 1_555 1_555
P1E O1E 1_555 1_555
O2E P1E 1_555 1_555
O3E P1E 1_555 1_555
O4E Mo1E 1_555 1_555
O5E Mo1E 1_555 1_555
O6E Mo1E 1_555 1_555
O7E Mo1E 1_555 1_555
O8D Mo2 1_555 1_555
O8E Mo1E 1_555 1_555
O8A Mo2E 1_555 1_555
O9E Mo2E 1_555 1_555
O10E Mo2E 1_555 1_555
O11E Cu1E 1_555 1_555
N1D C1D 1_555 1_555
N1E Cu1E 1_555 1_555
N2D Cu1D 1_555 1_555
N2E Cu1E 1_555 1_555
N3D Cu1D 1_555 1_555
N3E Cu1E 1_555 1_555
C1D H1D 1_555 1_555
C2D C1D 1_555 1_555
H2D C2D 1_555 1_555
C3D C2D 1_555 1_555
H3D C3D 1_555 1_555
C4D C3D 1_555 1_555
H4D C4D 1_555 1_555
C5D N1D 1_555 1_555
C6D N2D 1_555 1_555
C7D C6D 1_555 1_555
H5D C7D 1_555 1_555
C8D C8 1_555 1_555
C9D C8D 1_555 1_555
H6D C9D 1_555 1_555
C10D N2D 1_555 1_555
C11D N3D 1_555 1_555
C12D C11D 1_555 1_555
H7D C12D 1_555 1_555
C13D C12D 1_555 1_555
H8D C13D 1_555 1_555
C14D C13D 1_555 1_555
H9D C14D 1_555 1_555
C15D N3D 1_555 1_555
H10D C15D 1_555 1_555
C16E C16 1_555 1_555
H11E C16E 1_555 1_555
H12E C16E 1_555 1_555
H13E O11E 1_555 1_555
H14E O11E 1_555 1_555
Mo2 O4 1_555 1_555
Mo2 O5 1_555 1_555
C4 C5 1_555 1_555
C5 C6 1_555 1_555
C9 C10 1_555 1_555
C10 C11 1_555 1_555
C14 C15 1_555 1_555
Mo2E O4E 1_555 1_555
Mo2E O5E 1_555 1_555
P1E C16E 1_555 1_555
C4D C5D 1_555 1_555
C5D C6D 1_555 1_555
C7D C8D 1_555 1_555
C9D C10D 1_555 1_555
C10D C11D 1_555 1_555
C14D C15D 1_555 1_555

#END
