
#######################################################################
#
#                 Cambridge Crystallographic Data Centre
#                                CCDC 
#
#######################################################################
#
# If this CIF has been generated from an entry in the Cambridge 
# Structural Database, then it will include bibliographic, chemical, 
# crystal, experimental, refinement or atomic coordinate data resulting 
# from the CCDC's data processing and validation procedures.
#
#######################################################################

data_TAVVAO
_symmetry_cell_setting           triclinic
_symmetry_space_group_name_H-M   'P -1'
_symmetry_Int_Tables_number      2
_space_group_name_Hall           '-P 1'
loop_
_symmetry_equiv_pos_site_id
_symmetry_equiv_pos_as_xyz
1 x,y,z
2 -x,-y,-z
_cell_length_a                   6.8944(7)
_cell_length_b                   7.0833(7)
_cell_length_c                   18.2036(19)
_cell_angle_alpha                99.607(2)
_cell_angle_beta                 98.293(2)
_cell_angle_gamma                94.038(2)
_cell_volume                     863.265
loop_
_atom_site_label
_atom_site_type_symbol
_atom_site_fract_x
_atom_site_fract_y
_atom_site_fract_z
Cu1 Cu 0.51467(3) 0.79876(3) 0.730663(10)
P1 P 0.29068(6) 0.61577(6) 0.56780(2)
O1 O 0.32026(18) 0.75500(17) 0.64256(7)
O2 O 0.38521(18) 0.43019(17) 0.56998(7)
O3 O 0.36512(19) 0.72388(19) 0.50696(7)
O7 O 0.65032(19) 0.51133(19) 0.70243(8)
N1 N 0.3384(2) 0.7042(2) 0.80004(8)
N2 N 0.6874(2) 0.87030(19) 0.82632(8)
N3 N 0.7382(2) 0.9513(2) 0.69839(8)
C1 C 0.1564(2) 0.6138(2) 0.77985(9)
H1 H 0.0944 0.6003 0.7289
C2 C 0.0553(2) 0.5393(2) 0.83098(10)
H2 H -0.0733 0.4748 0.8152
C3 C 0.1452(2) 0.5606(2) 0.90543(10)
H3 H 0.0786 0.5106 0.9413
C4 C 0.3337(2) 0.6557(2) 0.92745(10)
H4 H 0.3972 0.6728 0.9783
C5 C 0.4264(2) 0.7250(2) 0.87315(9)
C6 C 0.6275(2) 0.8248(2) 0.88814(9)
C7 C 0.7480(2) 0.8730(2) 0.95807(9)
H5 H 0.7053 0.8386 1.0018
C8 C 0.9337(2) 0.9731(2) 0.96290(8)
C9 C 0.9911(2) 1.0210(2) 0.89671(9)
H6 H 1.1154 1.0899 0.8984
C10 C 0.8634(2) 0.9659(2) 0.82878(9)
C11 C 0.8964(2) 1.0059(2) 0.75387(9)
C12 C 1.0705(2) 1.0934(2) 0.74055(10)
H7 H 1.1802 1.1274 0.7799
C13 C 1.0824(3) 1.1307(2) 0.66834(10)
H8 H 1.2009 1.1889 0.6575
C14 C 0.9185(3) 1.0815(3) 0.61287(10)
H9 H 0.9217 1.1094 0.5638
C15 C 0.7495(3) 0.9907(2) 0.62972(9)
H10 H 0.6382 0.9554 0.5912
C16 C 0.0284(2) 0.5668(2) 0.53861(9)
H11 H -0.0287 0.5067 0.5770
H12 H -0.0297 0.6899 0.5362
H13 H 0.590(4) 0.472(4) 0.6639(16)
H14 H 0.628(4) 0.447(4) 0.7282(16)
H15 H 0.426(5) 0.675(4) 0.4868(18)
Cu1A Cu -0.51467(3) 0.20124(3) 0.269337(10)
Cu1A_2 Cu 1.48533(3) 1.20124(3) 1.269337(10)
P1A P -0.29068(6) 0.38423(6) 0.43220(2)
O1A O -0.32026(18) 0.24500(17) 0.35744(7)
O2A O -0.38521(18) 0.56981(17) 0.43002(7)
O3A O -0.36512(19) 0.27612(19) 0.49304(7)
O7A O -0.65032(19) 0.48867(19) 0.29757(8)
N1A N 1.6616(2) 1.2958(2) 1.19996(8)
N1A_2 N -0.3384(2) 0.2958(2) 0.19996(8)
N2A N 1.3126(2) 1.12970(19) 1.17368(8)
N2A_2 N -0.6874(2) 0.12970(19) 0.17368(8)
N3A N 1.2618(2) 1.0487(2) 1.30161(8)
N3A_2 N -0.7382(2) 0.0487(2) 0.30161(8)
C1A C 1.8436(2) 1.3862(2) 1.22015(9)
H1A H 1.9056 1.3997 1.2711
C2A C 1.9447(2) 1.4607(2) 1.16902(10)
H2A H 2.0733 1.5252 1.1848
C3A C 1.8548(2) 1.4394(2) 1.09457(10)
H3A H 1.9214 1.4894 1.0587
C4A C 1.6663(2) 1.3443(2) 1.07255(10)
H4A H 1.6028 1.3272 1.0217
C5A C 1.5736(2) 1.2750(2) 1.12685(9)
C6A C 1.3725(2) 1.1752(2) 1.11186(9)
C7A C 1.2520(2) 1.1270(2) 1.04193(9)
H5A H 1.2947 1.1614 0.9982
C8A C 1.0663(2) 1.0269(2) 1.03710(8)
C9A C 1.0089(2) 0.9790(2) 1.10329(9)
H6A H 0.8846 0.9101 1.1016
C10A C 1.1366(2) 1.0341(2) 1.17122(9)
C11A C 1.1036(2) 0.9941(2) 1.24613(9)
C12A C 0.9295(2) 0.9066(2) 1.25945(10)
H7A H 0.8198 0.8726 1.2201
C13A C 0.9176(3) 0.8693(2) 1.33166(10)
H8A H 0.7991 0.8111 1.3425
C14A C 1.0815(3) 0.9185(3) 1.38713(10)
H9A H 1.0783 0.8906 1.4362
C15A C 1.2505(3) 1.0093(2) 1.37028(9)
H10A H 1.3618 1.0446 1.4088
C16A C -0.0284(2) 0.4332(2) 0.46139(9)
H11A H 0.0287 0.4933 0.4230
H12A H 0.0297 0.3101 0.4638
H13A H -0.590(4) 0.528(4) 0.3361(16)
H14A H -0.628(4) 0.553(4) 0.2718(16)
H15A H -0.426(5) 0.325(4) 0.5132(18)
O4 O 0.4358(2) 0.19460(19) 0.89395(8)
O5 O 0.6930(2) 0.3936(2) 0.89862(9)
O6 O 0.5254(2) 0.2555(2) 0.79059(8)
N4 N 0.5526(2) 0.2828(2) 0.86144(9)
loop_
_geom_bond_atom_site_label_1
_geom_bond_atom_site_label_2
_geom_bond_site_symmetry_1
_geom_bond_site_symmetry_2
Cu1 O1 1_555 1_555
P1 O1 1_555 1_555
O2 P1 1_555 1_555
O3 P1 1_555 1_555
O4 N4 1_555 1_555
O5 N4 1_555 1_555
O6 N4 1_555 1_555
O7 Cu1 1_555 1_555
N1 Cu1 1_555 1_555
N2 Cu1 1_555 1_555
N3 Cu1 1_555 1_555
C1 N1 1_555 1_555
H1 C1 1_555 1_555
C2 C1 1_555 1_555
H2 C2 1_555 1_555
C3 C2 1_555 1_555
H3 C3 1_555 1_555
C4 C3 1_555 1_555
H4 C4 1_555 1_555
C5 N1 1_555 1_555
C6 N2 1_555 1_555
C7 C6 1_555 1_555
H5 C7 1_555 1_555
C8 C7 1_555 1_555
C9 C8 1_555 1_555
H6 C9 1_555 1_555
C10 N2 1_555 1_555
C11 N3 1_555 1_555
C12 C11 1_555 1_555
H7 C12 1_555 1_555
C13 C12 1_555 1_555
H8 C13 1_555 1_555
C14 C13 1_555 1_555
H9 C14 1_555 1_555
C15 N3 1_555 1_555
H10 C15 1_555 1_555
C16 P1 1_555 1_555
H11 C16 1_555 1_555
H12 C16 1_555 1_555
H13 O7 1_555 1_555
H14 O7 1_555 1_555
H15 O3 1_555 1_555
Cu1A O1A 1_555 1_555
Cu1A_2 N1A 1_555 1_555
P1A O1A 1_555 1_555
O2A P1A 1_555 1_555
O3A P1A 1_555 1_555
O7A Cu1A 1_555 1_555
N1A C1A 1_555 1_555
N1A_2 Cu1A 1_555 1_555
N2A Cu1A_2 1_555 1_555
N2A_2 Cu1A 1_555 1_555
N3A Cu1A_2 1_555 1_555
N3A_2 Cu1A 1_555 1_555
C1A H1A 1_555 1_555
C2A C1A 1_555 1_555
H2A C2A 1_555 1_555
C3A C2A 1_555 1_555
H3A C3A 1_555 1_555
C4A C3A 1_555 1_555
H4A C4A 1_555 1_555
C5A N1A 1_555 1_555
C6A N2A 1_555 1_555
C7A C6A 1_555 1_555
H5A C7A 1_555 1_555
C8A C8 1_555 1_555
C9A C8A 1_555 1_555
H6A C9A 1_555 1_555
C10A N2A 1_555 1_555
C11A N3A 1_555 1_555
C12A C11A 1_555 1_555
H7A C12A 1_555 1_555
C13A C12A 1_555 1_555
H8A C13A 1_555 1_555
C14A C13A 1_555 1_555
H9A C14A 1_555 1_555
C15A N3A 1_555 1_555
H10A C15A 1_555 1_555
C16A C16 1_555 1_555
H11A C16A 1_555 1_555
H12A C16A 1_555 1_555
H13A O7A 1_555 1_555
H14A O7A 1_555 1_555
H15A O3A 1_555 1_555
C4 C5 1_555 1_555
C5 C6 1_555 1_555
C9 C10 1_555 1_555
C10 C11 1_555 1_555
C14 C15 1_555 1_555
P1A C16A 1_555 1_555
C4A C5A 1_555 1_555
C5A C6A 1_555 1_555
C7A C8A 1_555 1_555
C9A C10A 1_555 1_555
C10A C11A 1_555 1_555
C14A C15A 1_555 1_555

#END
