
#######################################################################
#
#                 Cambridge Crystallographic Data Centre
#                                CCDC 
#
#######################################################################
#
# If this CIF has been generated from an entry in the Cambridge 
# Structural Database, then it will include bibliographic, chemical, 
# crystal, experimental, refinement or atomic coordinate data resulting 
# from the CCDC's data processing and validation procedures.
#
#######################################################################

data_TAWKUZ
_symmetry_cell_setting           triclinic
_symmetry_space_group_name_H-M   'P -1'
_symmetry_Int_Tables_number      2
_space_group_name_Hall           '-P 1'
loop_
_symmetry_equiv_pos_site_id
_symmetry_equiv_pos_as_xyz
1 x,y,z
2 -x,-y,-z
_cell_length_a                   7.8861(8)
_cell_length_b                   8.2798(8)
_cell_length_c                   8.7690(9)
_cell_angle_alpha                106.216(2)
_cell_angle_beta                 97.263(2)
_cell_angle_gamma                102.888(2)
_cell_volume                     524.94
loop_
_atom_site_label
_atom_site_type_symbol
_atom_site_fract_x
_atom_site_fract_y
_atom_site_fract_z
Cu1 Cu 0.59436(10) 0.51644(11) 0.64712(10)
Cu2 Cu 0.83499(11) 0.50700(12) 0.43196(11)
I1 I 0.55079(5) 0.22716(5) 0.37778(5)
I2 I 0.93851(5) 0.63147(6) 0.74756(5)
N1 N 0.4305(7) 0.3861(7) 0.7579(6)
N2 N 0.2489(7) 0.3479(7) 0.6971(6)
N3 N 0.2893(7) 0.1904(7) 0.8503(6)
N4 N 0.2556(8) 0.0705(7) 0.9360(6)
H1 H 0.3423 0.0543 0.9946
H2 H 0.1483 0.0132 0.9299
C1 C 0.6225(9) 0.2851(9) 0.9368(8)
H3 H 0.7176 0.3665 0.9167
H4 H 0.6376 0.1696 0.8994
H5 H 0.6237 0.3170 1.0510
C2 C 0.4506(8) 0.2885(8) 0.8492(7)
C3 C 0.1657(9) 0.2278(9) 0.7529(8)
C4 C -0.0265(9) 0.1467(10) 0.7200(10)
H6 H -0.0862 0.1940 0.6478
H7 H -0.0684 0.1704 0.8199
H8 H -0.0503 0.0227 0.6708
Cu1A Cu 0.40564(10) 0.48356(11) 0.35288(10)
Cu2A Cu 1.16501(11) 0.49300(12) 0.56804(11)
Cu2A_2 Cu 0.16501(11) 0.49300(12) 0.56804(11)
I1A I 0.44921(5) 0.77284(5) 0.62222(5)
I2A I 1.06149(5) 0.36853(6) 0.25244(5)
N2A N 0.7511(7) 0.6521(7) 0.3029(6)
loop_
_geom_bond_atom_site_label_1
_geom_bond_atom_site_label_2
_geom_bond_site_symmetry_1
_geom_bond_site_symmetry_2
Cu1 I1 1_555 1_555
Cu2 I1 1_555 1_555
I1 Cu1A 1_555 1_555
I2 Cu1 1_555 1_555
N1 Cu1 1_555 1_555
N2 N1 1_555 1_555
N3 N4 1_555 1_555
N4 H1 1_555 1_555
H2 N4 1_555 1_555
C1 H3 1_555 1_555
H4 C1 1_555 1_555
H5 C1 1_555 1_555
C2 N1 1_555 1_555
C3 N2 1_555 1_555
C4 C3 1_555 1_555
H6 C4 1_555 1_555
H7 C4 1_555 1_555
H8 C4 1_555 1_555
Cu1A I1A 1_555 1_555
Cu2A I2 1_555 1_555
Cu2A_2 N2 1_555 1_555
I1A Cu1 1_555 1_555
I2A Cu2 1_555 1_555
N2A Cu2 1_555 1_555
Cu2 I2 1_555 1_555
N3 C2 1_555 1_555
N3 C3 1_555 1_555
C1 C2 1_555 1_555
Cu2A I2A 1_555 1_555
Cu2A_2 I1A 1_555 1_555

#END
