
#######################################################################
#
#                 Cambridge Crystallographic Data Centre
#                                CCDC 
#
#######################################################################
#
# If this CIF has been generated from an entry in the Cambridge 
# Structural Database, then it will include bibliographic, chemical, 
# crystal, experimental, refinement or atomic coordinate data resulting 
# from the CCDC's data processing and validation procedures.
#
#######################################################################

data_TAWNEM
_symmetry_cell_setting           monoclinic
_symmetry_space_group_name_H-M   'P 21/n'
_symmetry_Int_Tables_number      14
_space_group_name_Hall           '-P 2yn'
loop_
_symmetry_equiv_pos_site_id
_symmetry_equiv_pos_as_xyz
1 x,y,z
2 1/2-x,1/2+y,1/2-z
3 -x,-y,-z
4 1/2+x,1/2-y,1/2+z
_cell_length_a                   9.8482(11)
_cell_length_b                   20.186(2)
_cell_length_c                   13.7326(16)
_cell_angle_alpha                90
_cell_angle_beta                 92.857(2)
_cell_angle_gamma                90
_cell_volume                     2726.59
loop_
_atom_site_label
_atom_site_type_symbol
_atom_site_fract_x
_atom_site_fract_y
_atom_site_fract_z
Cu1 Cu 0.68948(6) 0.12285(2) 0.84084(4)
O1 O 0.6185(4) 0.03318(14) 0.8521(2)
O2 O 0.7579(4) 0.01364(17) 0.7343(3)
O3 O 0.8184(4) -0.21494(18) 0.6260(3)
O4 O 0.7090(4) -0.29861(15) 0.6921(2)
O5 O 0.4742(4) -0.15276(16) 1.0549(2)
O6 O 0.4393(5) -0.24880(18) 0.9799(3)
H1 H 0.3920 -0.2558 1.0263
O7 O 0.8029(6) -0.0299(2) 1.2121(3)
O8 O 0.6019(9) 0.2473(3) 1.4336(4)
N1 N 0.8240(4) 0.10209(19) 0.9521(3)
N2 N 0.7627(8) 0.0710(3) 1.2698(4)
N3 N 0.7166(7) 0.1531(3) 1.4274(4)
N4 N 0.5694(5) 0.1399(2) 1.7218(3)
C1 C 0.6781(5) -0.0051(2) 0.7949(4)
C2 C 0.6493(5) -0.0776(2) 0.8075(3)
C3 C 0.6981(5) -0.1230(2) 0.7410(3)
H2 H 0.7449 -0.1079 0.6882
C4 C 0.6772(5) -0.1908(2) 0.7531(3)
C5 C 0.6065(5) -0.2128(2) 0.8316(3)
H3 H 0.5899 -0.2578 0.8395
C6 C 0.5608(5) -0.1677(2) 0.8983(3)
C7 C 0.5846(5) -0.1002(2) 0.8867(3)
H4 H 0.5562 -0.0703 0.9331
C8 C 0.7411(5) -0.2388(2) 0.6841(3)
C9 C 0.4888(5) -0.1895(2) 0.9862(3)
C10 C 0.9555(6) 0.1157(3) 0.9487(4)
H5 H 0.9865 0.1359 0.8932
C11 C 1.0477(7) 0.1012(4) 1.0240(5)
H6 H 1.1397 0.1103 1.0187
C12 C 1.0011(7) 0.0727(4) 1.1080(5)
H7 H 1.0614 0.0623 1.1600
C13 C 0.8659(6) 0.0603(3) 1.1132(4)
C14 C 0.7814(5) 0.0741(2) 1.0331(3)
H8 H 0.6898 0.0634 1.0355
C15 C 0.8083(6) 0.0293(3) 1.2027(4)
C16 C 0.7494(12) 0.1441(4) 1.2581(5)
H9 H 0.8031 0.1588 1.2049
H10 H 0.6551 0.1554 1.2422
C17 C 0.7942(10) 0.1773(4) 1.3455(5)
H11 H 0.7811 0.2246 1.3378
H12 H 0.8904 0.1690 1.3588
C18 C 0.7296(9) 0.0810(4) 1.4422(5)
H13 H 0.8224 0.0703 1.4635
H14 H 0.6705 0.0671 1.4928
C19 C 0.6947(9) 0.0467(4) 1.3556(5)
H15 H 0.5971 0.0498 1.3428
H16 H 0.7169 0.0002 1.3650
C20 C 0.6255(9) 0.1924(3) 1.4644(4)
C21 C 0.5548(7) 0.1696(3) 1.5530(4)
C22 C 0.4112(9) 0.1698(5) 1.5552(6)
H17 H 0.3576 0.1800 1.4995
C23 C 0.3524(8) 0.1548(5) 1.6409(5)
H18 H 0.2583 0.1548 1.6441
C24 C 0.4344(7) 0.1396(3) 1.7222(4)
H19 H 0.3935 0.1286 1.7797
C25 C 0.6280(6) 0.1537(2) 1.6373(4)
H20 H 0.7223 0.1525 1.6363
Cu1A Cu 0.81052(6) -0.37715(2) 0.65916(4)
Cu1B Cu 0.31052(6) -0.12285(2) 1.15916(4)
Cu1_2 Cu 0.68948(6) 0.12285(2) 1.84084(4)
O4A O 0.7910(4) 0.20139(15) 0.8079(2)
O5B O 0.5258(4) 0.15276(16) 0.9451(2)
N4_2 N 0.5694(5) 0.1399(2) 0.7218(3)
O9 O 0.9714(10) 0.0834(7) 0.6518(9)
H21 H 0.9057 0.0618 0.6686
H22 H 1.0385 0.0730 0.6866
loop_
_geom_bond_atom_site_label_1
_geom_bond_atom_site_label_2
_geom_bond_site_symmetry_1
_geom_bond_site_symmetry_2
Cu1 O1 1_555 1_555
O1 C1 1_555 1_555
O2 C1 1_555 1_555
O3 C8 1_555 1_555
O4 C8 1_555 1_555
O5 C9 1_555 1_555
O6 H1 1_555 1_555
O7 C15 1_555 1_555
O8 C20 1_555 1_555
N1 Cu1 1_555 1_555
N2 C15 1_555 1_555
N3 C17 1_555 1_555
N4 C24 1_555 1_555
C1 C2 1_555 1_555
C2 C3 1_555 1_555
C3 H2 1_555 1_555
C4 C3 1_555 1_555
C5 C4 1_555 1_555
H3 C5 1_555 1_555
C6 C5 1_555 1_555
C7 C2 1_555 1_555
H4 C7 1_555 1_555
C8 C4 1_555 1_555
C9 O6 1_555 1_555
C10 N1 1_555 1_555
H5 C10 1_555 1_555
C11 C10 1_555 1_555
H6 C11 1_555 1_555
C12 C11 1_555 1_555
H7 C12 1_555 1_555
C13 C12 1_555 1_555
C14 N1 1_555 1_555
H8 C14 1_555 1_555
C15 C13 1_555 1_555
C16 N2 1_555 1_555
H9 C16 1_555 1_555
H10 C16 1_555 1_555
C17 C16 1_555 1_555
H11 C17 1_555 1_555
H12 C17 1_555 1_555
C18 N3 1_555 1_555
H13 C18 1_555 1_555
H14 C18 1_555 1_555
C19 N2 1_555 1_555
H15 C19 1_555 1_555
H16 C19 1_555 1_555
C20 N3 1_555 1_555
C21 C20 1_555 1_555
C22 C21 1_555 1_555
H17 C22 1_555 1_555
C23 C22 1_555 1_555
H18 C23 1_555 1_555
C24 C23 1_555 1_555
H19 C24 1_555 1_555
C25 N4 1_555 1_555
H20 C25 1_555 1_555
O9 H21 1_555 1_555
H22 O9 1_555 1_555
Cu1A O4 1_555 1_555
Cu1B O5 1_555 1_555
Cu1_2 N4 1_555 1_555
O4A Cu1 1_555 1_555
O5B Cu1 1_555 1_555
N4_2 Cu1 1_555 1_555
C6 C7 1_555 1_555
C6 C9 1_555 1_555
C13 C14 1_555 1_555
C18 C19 1_555 1_555
C21 C25 1_555 1_555

#END
