
#######################################################################
#
#                 Cambridge Crystallographic Data Centre
#                                CCDC 
#
#######################################################################
#
# If this CIF has been generated from an entry in the Cambridge 
# Structural Database, then it will include bibliographic, chemical, 
# crystal, experimental, refinement or atomic coordinate data resulting 
# from the CCDC's data processing and validation procedures.
#
#######################################################################

data_TAWNIQ
_symmetry_cell_setting           triclinic
_symmetry_space_group_name_H-M   'P -1'
_symmetry_Int_Tables_number      2
_space_group_name_Hall           '-P 1'
loop_
_symmetry_equiv_pos_site_id
_symmetry_equiv_pos_as_xyz
1 x,y,z
2 -x,-y,-z
_cell_length_a                   7.8571(16)
_cell_length_b                   10.889(2)
_cell_length_c                   11.869(2)
_cell_angle_alpha                69.57(3)
_cell_angle_beta                 75.68(3)
_cell_angle_gamma                70.86(3)
_cell_volume                     888.801
loop_
_atom_site_label
_atom_site_type_symbol
_atom_site_fract_x
_atom_site_fract_y
_atom_site_fract_z
Co1 Co 0.59716(10) 0.12143(8) 0.65260(7)
O1 O 0.3262(6) 0.1836(4) 0.6341(4)
O2 O 0.8097(6) 0.1249(4) 0.7178(4)
O3 O 0.4454(5) 0.3501(4) 0.6076(4)
O4 O 0.5789(5) 0.1048(4) 0.8660(4)
N1 N 0.7072(7) 0.1620(5) 0.4680(4)
N2 N 0.6966(7) 0.7020(5) -0.1609(4)
C1 C 0.7452(9) 0.3845(6) 0.1646(5)
C2 C 0.6664(9) 0.2817(6) 0.3861(5)
H1 H 0.5847 0.3594 0.4026
N3 N 0.7590(7) 0.2761(5) 0.2755(4)
C3 C 0.1550(8) 0.5405(6) 0.4844(5)
H2 H 0.2594 0.5683 0.4737
N4 N 0.6394(7) 0.9096(5) -0.2863(4)
C4 C 0.1514(7) 0.4086(6) 0.5511(5)
C5 C 0.7447(8) 0.0994(6) 0.8302(5)
C6 C 0.8279(8) -0.0221(6) 1.0382(5)
H3 H 0.7130 -0.0376 1.0639
C7 C 0.7912(12) 0.3560(7) 0.0555(6)
H4 H 0.8316 0.2663 0.0535
C8 C 0.8741(8) 0.0524(6) 0.9194(5)
C9 C 0.3174(8) 0.3093(6) 0.6024(5)
C10 C 0.7144(9) 0.5926(6) -0.0503(5)
C11 C 1.0475(8) 0.0734(6) 0.8814(5)
H5 H 1.0797 0.1223 0.8014
C12 C 0.6812(12) 0.5160(7) 0.1662(6)
H6 H 0.6472 0.5358 0.2401
C13 C 0.6664(12) 0.6200(7) 0.0592(6)
H7 H 0.6233 0.7097 0.0612
C14 C -0.0052(8) 0.3692(6) 0.5663(5)
H8 H -0.0093 0.2809 0.6113
C15 C 0.7315(12) 0.6909(7) -0.2763(6)
H9 H 0.7725 0.6110 -0.2986
C16 C 0.8669(10) 0.1456(6) 0.2894(6)
H10 H 0.9473 0.1114 0.2286
C17 C 0.8346(9) 0.0768(6) 0.4067(6)
H11 H 0.8896 -0.0144 0.4414
C18 C 0.6945(11) 0.8191(7) -0.3513(6)
H12 H 0.7052 0.8421 -0.4355
C19 C 0.7774(12) 0.4612(7) -0.0515(6)
H13 H 0.8118 0.4417 -0.1255
C20 C 0.6410(8) 0.8356(6) -0.1719(6)
H14 H 0.6076 0.8714 -0.1067
Co1A Co -0.59716(10) 0.87857(8) 0.34740(7)
Co1_2 Co 0.59716(10) 1.12143(8) -0.34740(7)
Co1A_2 Co 1.40284(10) -0.12143(8) 1.34740(7)
Co1_3 Co 0.59716(10) -0.87857(8) 1.65260(7)
O1A O -0.3262(6) 0.8164(4) 0.3659(4)
O2A O 1.1903(6) -0.1249(4) 1.2822(4)
O2A_2 O -0.8097(6) 0.8751(4) 0.2822(4)
O3A O -0.4454(5) 0.6499(4) 0.3924(4)
O4A O 1.4211(5) -0.1048(4) 1.1340(4)
N1_2 N 0.7072(7) -0.8380(5) 1.4680(4)
N1A N -0.7072(7) 0.8380(5) 0.5320(4)
N2_2 N 0.6966(7) -0.2980(5) 0.8391(4)
C1_2 C 0.7452(9) -0.6155(6) 1.1646(5)
C2_2 C 0.6664(9) -0.7183(6) 1.3861(5)
H1_2 H 0.5847 -0.6406 1.4026
N3_2 N 0.7590(7) -0.7239(5) 1.2755(4)
C3A C -0.1550(8) 0.4595(6) 0.5156(5)
H2A H -0.2594 0.4317 0.5263
N4_2 N 0.6394(7) -0.0904(5) 0.7137(4)
N4A N -0.6394(7) 1.0904(5) 0.2863(4)
C4A C -0.1514(7) 0.5914(6) 0.4489(5)
C5A C 1.2553(8) -0.0994(6) 1.1698(5)
C6A C 1.1721(8) 0.0221(6) 0.9618(5)
H3A H 1.2870 0.0376 0.9361
C7_2 C 0.7912(12) -0.6440(7) 1.0555(6)
H4_2 H 0.8316 -0.7337 1.0535
C8A C 1.1259(8) -0.0524(6) 1.0806(5)
C9A C -0.3174(8) 0.6907(6) 0.3976(5)
C10_2 C 0.7144(9) -0.4074(6) 0.9497(5)
C11A C 0.9525(8) -0.0734(6) 1.1186(5)
H5A H 0.9203 -0.1223 1.1986
C12_2 C 0.6812(12) -0.4840(7) 1.1662(6)
H6_2 H 0.6472 -0.4642 1.2401
C13_2 C 0.6664(12) -0.3800(7) 1.0592(6)
H7_2 H 0.6233 -0.2903 1.0612
C14A C 0.0052(8) 0.6308(6) 0.4337(5)
H8A H 0.0093 0.7191 0.3887
C15_2 C 0.7315(12) -0.3091(7) 0.7237(6)
H9_2 H 0.7725 -0.3890 0.7014
C16_2 C 0.8669(10) -0.8544(6) 1.2894(6)
H10_2 H 0.9473 -0.8886 1.2286
C17_2 C 0.8346(9) -0.9232(6) 1.4067(6)
H11_2 H 0.8896 -1.0144 1.4414
C18_2 C 0.6945(11) -0.1809(7) 0.6487(6)
H12_2 H 0.7052 -0.1579 0.5645
C19_2 C 0.7774(12) -0.5388(7) 0.9485(6)
H13_2 H 0.8118 -0.5583 0.8745
C20_2 C 0.6410(8) -0.1644(6) 0.8281(6)
H14_2 H 0.6076 -0.1286 0.8933
loop_
_geom_bond_atom_site_label_1
_geom_bond_atom_site_label_2
_geom_bond_site_symmetry_1
_geom_bond_site_symmetry_2
Co1 O1 1_555 1_555
O1 C9 1_555 1_555
O2 Co1 1_555 1_555
O3 C9 1_555 1_555
O4 C5 1_555 1_555
N1 Co1 1_555 1_555
N2 C10 1_555 1_555
C1 N3 1_555 1_555
C2 N1 1_555 1_555
H1 C2 1_555 1_555
N3 C2 1_555 1_555
C3 H2 1_555 1_555
N4 C18 1_555 1_555
C4 C3 1_555 1_555
C5 O2 1_555 1_555
C6 H3 1_555 1_555
C7 C1 1_555 1_555
H4 C7 1_555 1_555
C8 C5 1_555 1_555
C9 C4 1_555 1_555
C10 C13 1_555 1_555
C11 C8 1_555 1_555
H5 C11 1_555 1_555
C12 C1 1_555 1_555
H6 C12 1_555 1_555
C13 C12 1_555 1_555
H7 C13 1_555 1_555
C14 C4 1_555 1_555
H8 C14 1_555 1_555
C15 N2 1_555 1_555
H9 C15 1_555 1_555
C16 N3 1_555 1_555
H10 C16 1_555 1_555
C17 N1 1_555 1_555
H11 C17 1_555 1_555
C18 C15 1_555 1_555
H12 C18 1_555 1_555
C19 C7 1_555 1_555
H13 C19 1_555 1_555
C20 N2 1_555 1_555
H14 C20 1_555 1_555
Co1A O1A 1_555 1_555
Co1_2 N4 1_555 1_555
Co1A_2 O2A 1_555 1_555
Co1_3 N1_2 1_555 1_555
O1A C9A 1_555 1_555
O2A C5A 1_555 1_555
O2A_2 Co1A 1_555 1_555
O3A C9A 1_555 1_555
O4A C5A 1_555 1_555
N1_2 C2_2 1_555 1_555
N1A Co1A 1_555 1_555
N2_2 C10_2 1_555 1_555
C1_2 N3_2 1_555 1_555
C2_2 H1_2 1_555 1_555
N3_2 C2_2 1_555 1_555
C3A C14 1_555 1_555
H2A C3A 1_555 1_555
N4_2 Co1 1_555 1_555
N4A Co1A 1_555 1_555
C4A C3A 1_555 1_555
C5A C8A 1_555 1_555
C6A C11 1_555 1_555
H3A C6A 1_555 1_555
C7_2 C1_2 1_555 1_555
H4_2 C7_2 1_555 1_555
C8A C6A 1_555 1_555
C9A C4A 1_555 1_555
C10_2 C13_2 1_555 1_555
C11A C6 1_555 1_555
H5A C11A 1_555 1_555
C12_2 C1_2 1_555 1_555
H6_2 C12_2 1_555 1_555
C13_2 C12_2 1_555 1_555
H7_2 C13_2 1_555 1_555
C14A C3 1_555 1_555
H8A C14A 1_555 1_555
C15_2 N2_2 1_555 1_555
H9_2 C15_2 1_555 1_555
C16_2 N3_2 1_555 1_555
H10_2 C16_2 1_555 1_555
C17_2 N1_2 1_555 1_555
H11_2 C17_2 1_555 1_555
C18_2 N4_2 1_555 1_555
H12_2 C18_2 1_555 1_555
C19_2 C7_2 1_555 1_555
H13_2 C19_2 1_555 1_555
C20_2 N2_2 1_555 1_555
H14_2 C20_2 1_555 1_555
N4 C20 1_555 1_555
C6 C8 1_555 1_555
C10 C19 1_555 1_555
C16 C17 1_555 1_555
N4_2 C20_2 1_555 1_555
C4A C14A 1_555 1_555
C8A C11A 1_555 1_555
C10_2 C19_2 1_555 1_555
C15_2 C18_2 1_555 1_555
C16_2 C17_2 1_555 1_555

#END
