
#######################################################################
#
#                 Cambridge Crystallographic Data Centre
#                                CCDC 
#
#######################################################################
#
# If this CIF has been generated from an entry in the Cambridge 
# Structural Database, then it will include bibliographic, chemical, 
# crystal, experimental, refinement or atomic coordinate data resulting 
# from the CCDC's data processing and validation procedures.
#
#######################################################################

data_TAWNOW
_symmetry_cell_setting           monoclinic
_symmetry_space_group_name_H-M   'C 2/c'
_symmetry_Int_Tables_number      15
_space_group_name_Hall           '-C 2yn'
loop_
_symmetry_equiv_pos_site_id
_symmetry_equiv_pos_as_xyz
1 x,y,z
2 -x,y,1/2-z
3 1/2+x,1/2+y,z
4 1/2-x,1/2+y,1/2-z
5 -x,-y,-z
6 x,-y,1/2+z
7 1/2-x,1/2-y,-z
8 1/2+x,1/2-y,1/2+z
_cell_length_a                   27.028(5)
_cell_length_b                   10.493(2)
_cell_length_c                   17.871(4)
_cell_angle_alpha                90
_cell_angle_beta                 120.32(3)
_cell_angle_gamma                90
_cell_volume                     4375.06
loop_
_atom_site_label
_atom_site_type_symbol
_atom_site_fract_x
_atom_site_fract_y
_atom_site_fract_z
O1 O 0.20451(7) -0.22897(16) 0.21129(10)
C1 C 0.23284(10) -0.1667(2) 0.28072(14)
Co1 Co 0.0000 -0.48432(4) 0.2500
Co2 Co 0.243673(13) 0.17974(3) 0.645327(18)
N1 N -0.00876(8) -0.59162(18) 0.33596(12)
C2 C -0.05245(11) -0.5782(3) 0.35431(17)
H1 H -0.0841 -0.5251 0.3248
O2 O 0.21738(7) -0.00137(15) 0.59784(10)
O3 O 0.18781(7) 0.28441(16) 0.53774(10)
O4 O 0.26956(7) 0.09116(15) 0.55186(10)
O5 O 0.06992(7) -0.38722(18) 0.29359(10)
O6 O 0.27502(8) -0.10129(18) 0.29454(11)
N2 N 0.18352(8) -1.21152(19) 0.79964(12)
C3 C 0.03616(10) -0.8067(2) 0.51405(15)
C4 C 0.17109(9) -0.1758(2) 0.45912(13)
H2 H 0.1579 -0.1786 0.4981
C5 C 0.23525(9) -0.0905(2) 0.41613(13)
H3 H 0.2647 -0.0350 0.4256
C6 C 0.16807(9) -0.2536(2) 0.33059(13)
H4 H 0.1522 -0.3073 0.2826
N3 N 0.11868(8) -1.07254(19) 0.71362(12)
O7 O 0.08325(8) -0.35372(18) 0.42536(11)
N4 N 0.00846(8) -0.71537(18) 0.44556(12)
C7 C 0.14718(9) -0.2559(2) 0.38756(13)
C8 C 0.09689(10) -0.3385(2) 0.36954(14)
C9 C 0.21458(9) -0.0914(2) 0.47314(13)
C10 C 0.23591(9) 0.0036(2) 0.54558(13)
C11 C 0.21242(9) -0.1719(2) 0.34493(13)
C12 C 0.08935(9) -0.9822(2) 0.64496(14)
C13 C 0.16740(10) -1.1343(2) 0.73315(14)
H5 H 0.1872 -1.1237 0.7035
C14 C 0.09122(11) -0.9970(2) 0.56982(15)
H6 H 0.1103 -1.0662 0.5635
C15 C 0.02693(10) -0.6747(2) 0.39258(15)
H7 H 0.0606 -0.7018 0.3956
C16 C 0.06466(11) -0.9086(2) 0.50401(16)
H8 H 0.0659 -0.9176 0.4532
C17 C 0.06028(10) -0.8811(2) 0.65454(15)
H9 H 0.0587 -0.8726 0.7051
C18 C 0.03346(11) -0.7924(2) 0.58861(15)
H10 H 0.0138 -0.7240 0.5945
C19 C 0.10333(12) -1.1130(3) 0.77184(18)
H11 H 0.0714 -1.0873 0.7747
C20 C 0.14334(12) -1.1971(3) 0.82402(18)
H12 H 0.1437 -1.2394 0.8700
C21 C -0.04198(12) -0.6537(3) 0.42141(18)
H13 H -0.0647 -0.6623 0.4466
H14 H 0.1686 0.3396 0.5472
H15 H 0.2032 0.3224 0.5125
O1A O -0.20451(7) -0.22897(16) 0.28871(10)
O1E O 0.20451(7) 0.22897(16) 0.71129(10)
O1D O -0.20451(7) 0.22897(16) -0.21129(10)
C1A C -0.23284(10) -0.1667(2) 0.21928(14)
Co2A Co -0.243673(13) 0.17974(3) -0.145327(18)
Co2E Co 0.243673(13) -0.17974(3) 0.145327(18)
Co2C Co 0.256327(13) -1.32026(3) 0.854673(18)
Co2B Co -0.256327(13) -1.32026(3) -0.354673(18)
Co2D Co -0.243673(13) -0.17974(3) 0.354673(18)
N1A N 0.00876(8) -0.59162(18) 0.16404(12)
C2A C 0.05245(11) -0.5782(3) 0.14569(17)
H1A H 0.0841 -0.5251 0.1752
O2A O -0.21738(7) -0.00137(15) -0.09784(10)
O3A O -0.18781(7) 0.28441(16) -0.03774(10)
O4A O -0.26956(7) 0.09116(15) -0.05186(10)
O5A O -0.06992(7) -0.38722(18) 0.20641(10)
O6A O -0.27502(8) -0.10129(18) 0.20546(11)
N2A N -0.18352(8) -1.21152(19) -0.29964(12)
N2C N 0.31648(8) 0.28848(19) 0.70036(12)
N2B N -0.31648(8) 0.28848(19) -0.20036(12)
C3A C -0.03616(10) -0.8067(2) -0.01405(15)
C4A C -0.17109(9) -0.1758(2) 0.04088(13)
H2A H -0.1579 -0.1786 0.0019
C5A C -0.23525(9) -0.0905(2) 0.08387(13)
H3A H -0.2647 -0.0350 0.0744
C6A C -0.16807(9) -0.2536(2) 0.16941(13)
H4A H -0.1522 -0.3073 0.2174
N3A N -0.11868(8) -1.07254(19) -0.21362(12)
O7A O -0.08325(8) -0.35372(18) 0.07464(11)
N4A N -0.00846(8) -0.71537(18) 0.05444(12)
C7A C -0.14718(9) -0.2559(2) 0.11244(13)
C8A C -0.09689(10) -0.3385(2) 0.13046(14)
C9A C -0.21458(9) -0.0914(2) 0.02686(13)
C10A C -0.23591(9) 0.0036(2) -0.04558(13)
C11A C -0.21242(9) -0.1719(2) 0.15507(13)
C12A C -0.08935(9) -0.9822(2) -0.14496(14)
C13A C -0.16740(10) -1.1343(2) -0.23315(14)
H5A H -0.1872 -1.1237 -0.2035
C14A C -0.09122(11) -0.9970(2) -0.06982(15)
H6A H -0.1103 -1.0662 -0.0635
C15A C -0.02693(10) -0.6747(2) 0.10742(15)
H7A H -0.0606 -0.7018 0.1044
C16A C -0.06466(11) -0.9086(2) -0.00401(16)
H8A H -0.0659 -0.9176 0.0468
C17A C -0.06028(10) -0.8811(2) -0.15454(15)
H9A H -0.0587 -0.8726 -0.2051
C18A C -0.03346(11) -0.7924(2) -0.08861(15)
H10A H -0.0138 -0.7240 -0.0945
C19A C -0.10333(12) -1.1130(3) -0.27184(18)
H11A H -0.0714 -1.0873 -0.2747
C20A C -0.14334(12) -1.1971(3) -0.32402(18)
H12A H -0.1437 -1.2394 -0.3700
C21A C 0.04198(12) -0.6537(3) 0.07859(18)
H13A H 0.0647 -0.6623 0.0534
H14A H -0.1686 0.3396 -0.0472
H15A H -0.2032 0.3224 -0.0125
O8 O 0.13524(8) 0.4732(2) 0.56848(13)
H16 H 0.1478 0.4370 0.6173
H17 H 0.1243 0.5276 0.5279
loop_
_geom_bond_atom_site_label_1
_geom_bond_atom_site_label_2
_geom_bond_site_symmetry_1
_geom_bond_site_symmetry_2
O1 C1 1_555 1_555
C1 O6 1_555 1_555
Co1 N1 1_555 1_555
Co2 O2 1_555 1_555
N1 C2 1_555 1_555
C2 H1 1_555 1_555
O2 C10 1_555 1_555
O3 Co2 1_555 1_555
O4 Co2 1_555 1_555
O5 Co1 1_555 1_555
N2 C13 1_555 1_555
C3 N4 1_555 1_555
C4 H2 1_555 1_555
C5 H3 1_555 1_555
C6 H4 1_555 1_555
N3 C12 1_555 1_555
O7 C8 1_555 1_555
N4 C15 1_555 1_555
C7 C4 1_555 1_555
C8 O5 1_555 1_555
C9 C4 1_555 1_555
C10 O4 1_555 1_555
C11 C1 1_555 1_555
C12 C14 1_555 1_555
C13 N3 1_555 1_555
H5 C13 1_555 1_555
C14 H6 1_555 1_555
C15 N1 1_555 1_555
H7 C15 1_555 1_555
C16 C3 1_555 1_555
H8 C16 1_555 1_555
C17 C12 1_555 1_555
H9 C17 1_555 1_555
C18 C3 1_555 1_555
H10 C18 1_555 1_555
C19 N3 1_555 1_555
H11 C19 1_555 1_555
C20 N2 1_555 1_555
H12 C20 1_555 1_555
C21 C2 1_555 1_555
H13 C21 1_555 1_555
H14 O3 1_555 1_555
H15 O3 1_555 1_555
O8 H16 1_555 1_555
H17 O8 1_555 1_555
O1A C1A 1_555 1_555
O1E Co2 1_555 1_555
O1D Co2A 1_555 1_555
C1A O6A 1_555 1_555
Co2A O2A 1_555 1_555
Co2E O1 1_555 1_555
Co2C N2 1_555 1_555
Co2B N2A 1_555 1_555
Co2D O1A 1_555 1_555
N1A Co1 1_555 1_555
C2A N1A 1_555 1_555
H1A C2A 1_555 1_555
O2A C10A 1_555 1_555
O3A Co2A 1_555 1_555
O4A Co2A 1_555 1_555
O5A Co1 1_555 1_555
N2A C13A 1_555 1_555
N2C Co2 1_555 1_555
N2B Co2A 1_555 1_555
C3A N4A 1_555 1_555
C4A H2A 1_555 1_555
C5A H3A 1_555 1_555
C6A H4A 1_555 1_555
N3A C12A 1_555 1_555
O7A C8A 1_555 1_555
N4A C15A 1_555 1_555
C7A C4A 1_555 1_555
C8A O5A 1_555 1_555
C9A C4A 1_555 1_555
C10A O4A 1_555 1_555
C11A C1A 1_555 1_555
C12A C14A 1_555 1_555
C13A N3A 1_555 1_555
H5A C13A 1_555 1_555
C14A H6A 1_555 1_555
C15A N1A 1_555 1_555
H7A C15A 1_555 1_555
C16A C3A 1_555 1_555
H8A C16A 1_555 1_555
C17A C12A 1_555 1_555
H9A C17A 1_555 1_555
C18A C3A 1_555 1_555
H10A C18A 1_555 1_555
C19A N3A 1_555 1_555
H11A C19A 1_555 1_555
C20A N2A 1_555 1_555
H12A C20A 1_555 1_555
C21A C2A 1_555 1_555
H13A C21A 1_555 1_555
H14A O3A 1_555 1_555
H15A O3A 1_555 1_555
C5 C9 1_555 1_555
C5 C11 1_555 1_555
C6 C7 1_555 1_555
C6 C11 1_555 1_555
N4 C21 1_555 1_555
C7 C8 1_555 1_555
C9 C10 1_555 1_555
C14 C16 1_555 1_555
C17 C18 1_555 1_555
C19 C20 1_555 1_555
C5A C9A 1_555 1_555
C5A C11A 1_555 1_555
C6A C7A 1_555 1_555
C6A C11A 1_555 1_555
N4A C21A 1_555 1_555
C7A C8A 1_555 1_555
C9A C10A 1_555 1_555
C14A C16A 1_555 1_555
C17A C18A 1_555 1_555
C19A C20A 1_555 1_555

#END
