
#######################################################################
#
#                 Cambridge Crystallographic Data Centre
#                                CCDC 
#
#######################################################################
#
# If this CIF has been generated from an entry in the Cambridge 
# Structural Database, then it will include bibliographic, chemical, 
# crystal, experimental, refinement or atomic coordinate data resulting 
# from the CCDC's data processing and validation procedures.
#
#######################################################################

data_TAWSER
_symmetry_cell_setting           monoclinic
_symmetry_space_group_name_H-M   'P 21/c'
_symmetry_Int_Tables_number      14
_space_group_name_Hall           '-P 2ybc'
loop_
_symmetry_equiv_pos_site_id
_symmetry_equiv_pos_as_xyz
1 x,y,z
2 -x,1/2+y,1/2-z
3 -x,-y,-z
4 x,1/2-y,1/2+z
_cell_length_a                   17.1893(4)
_cell_length_b                   11.0845(2)
_cell_length_c                   12.4761(3)
_cell_angle_alpha                90
_cell_angle_beta                 95.892(2)
_cell_angle_gamma                90
_cell_volume                     2364.57
loop_
_atom_site_label
_atom_site_type_symbol
_atom_site_fract_x
_atom_site_fract_y
_atom_site_fract_z
Cd1 Cd 0.763112(9) 0.067837(11) 0.352249(12)
O1 O 0.31133(9) 0.04613(14) 0.53005(12)
O2 O 0.36162(10) -0.00076(14) 0.69304(13)
O3 O 0.84055(12) 0.09777(14) 1.19956(14)
O4 O 0.79621(12) -0.07969(12) 1.23682(14)
N1 N 0.73337(11) 0.26685(14) 0.33938(14)
N2 N 0.60766(11) 0.39995(16) 0.58673(15)
N3 N 0.87464(12) -0.17999(15) 0.75759(14)
N4 N 0.85743(10) 0.07356(13) 0.49349(14)
C1 C 0.65828(12) 0.42607(15) 0.40756(18)
C2 C 0.81016(12) -0.19428(17) 0.91820(16)
H1 H 0.7821 -0.2604 0.8893
C3 C 0.61333(14) 0.47740(18) 0.49419(19)
H2 H 0.6379 0.5525 0.5191
H3 H 0.5608 0.4964 0.4626
C4 C 0.98797(13) 0.05584(19) 0.64136(18)
H4 H 1.0324 0.0501 0.6904
C5 C 0.88886(14) 0.00557(17) 1.00268(17)
H5 H 0.9145 0.0745 1.0302
C6 C 0.93191(12) -0.03359(18) 0.63610(15)
C7 C 0.73711(14) 0.32947(18) 0.24841(18)
H6 H 0.7643 0.2968 0.1946
C8 C 0.97756(15) 0.1540(2) 0.57310(19)
H7 H 1.0143 0.2159 0.5767
C9 C 0.69474(12) 0.31523(17) 0.41680(17)
H8 H 0.6924 0.2718 0.4801
C10 C 0.86698(12) -0.01965(17) 0.56168(16)
H9 H 0.8280 -0.0781 0.5590
C11 C 0.79942(12) -0.15492(16) 1.02011(17)
H10 H 0.7654 -0.1965 1.0603
C12 C 0.54984(12) 0.31293(17) 0.58736(16)
C13 C 0.36441(13) 0.05633(17) 0.60600(17)
C14 C 0.70231(16) 0.44007(18) 0.2317(2)
H11 H 0.7057 0.4819 0.1678
C15 C 0.83878(13) -0.05346(15) 1.06426(16)
C16 C 0.94181(14) -0.14824(19) 0.70252(18)
H12 H 0.9529 -0.2143 0.6555
H13 H 0.9867 -0.1388 0.7556
C17 C 0.86317(12) -0.13545(16) 0.85731(16)
C18 C 0.43088(12) 0.14108(17) 0.59726(16)
C19 C 0.82468(13) -0.00848(18) 1.17312(17)
C20 C 0.91270(14) 0.15909(18) 0.50033(18)
H14 H 0.9067 0.2246 0.4536
C21 C 0.66213(14) 0.48788(18) 0.31177(19)
H15 H 0.6374 0.5622 0.3014
C22 C 0.45023(13) 0.18353(18) 0.49963(17)
H16 H 0.4228 0.1558 0.4363
C23 C 0.53057(13) 0.2686(2) 0.68652(17)
H17 H 0.5572 0.2970 0.7502
C24 C 0.90213(14) -0.03426(19) 0.90162(18)
H18 H 0.9373 0.0066 0.8628
C25 C 0.47308(14) 0.1842(2) 0.69054(18)
H19 H 0.4619 0.1548 0.7571
C26 C 0.50976(13) 0.26662(18) 0.49411(17)
H20 H 0.5231 0.2917 0.4272
H21 H 0.8541(13) -0.2467(16) 0.7386(18)
H22 H 0.6179(14) 0.4351(18) 0.6465(15)
Cd1B Cd 0.236888(9) -0.067837(11) 0.647751(12)
Cd1_2 Cd 0.763112(9) 0.067837(11) 1.352249(12)
O1B O 0.68867(9) -0.04613(14) 0.46995(12)
O2B O 0.63838(10) 0.00076(14) 0.30696(13)
O3_2 O 0.84055(12) 0.09777(14) 0.19956(14)
O4_2 O 0.79621(12) -0.07969(12) 0.23682(14)
loop_
_geom_bond_atom_site_label_1
_geom_bond_atom_site_label_2
_geom_bond_site_symmetry_1
_geom_bond_site_symmetry_2
Cd1 N1 1_555 1_555
O1 C13 1_555 1_555
O2 C13 1_555 1_555
O3 C19 1_555 1_555
O4 C19 1_555 1_555
N1 C7 1_555 1_555
N2 C3 1_555 1_555
N3 C16 1_555 1_555
N4 Cd1 1_555 1_555
C1 C3 1_555 1_555
C2 H1 1_555 1_555
C3 H2 1_555 1_555
H3 C3 1_555 1_555
C4 H4 1_555 1_555
C5 H5 1_555 1_555
C6 C4 1_555 1_555
C7 H6 1_555 1_555
C8 C4 1_555 1_555
H7 C8 1_555 1_555
C9 N1 1_555 1_555
H8 C9 1_555 1_555
C10 N4 1_555 1_555
H9 C10 1_555 1_555
C11 C2 1_555 1_555
H10 C11 1_555 1_555
C12 N2 1_555 1_555
C13 C18 1_555 1_555
C14 C7 1_555 1_555
H11 C14 1_555 1_555
C15 C5 1_555 1_555
C16 C6 1_555 1_555
H12 C16 1_555 1_555
H13 C16 1_555 1_555
C17 N3 1_555 1_555
C18 C22 1_555 1_555
C19 C15 1_555 1_555
C20 N4 1_555 1_555
H14 C20 1_555 1_555
C21 C1 1_555 1_555
H15 C21 1_555 1_555
C22 H16 1_555 1_555
C23 C12 1_555 1_555
H17 C23 1_555 1_555
C24 C5 1_555 1_555
H18 C24 1_555 1_555
C25 C18 1_555 1_555
H19 C25 1_555 1_555
C26 C12 1_555 1_555
H20 C26 1_555 1_555
H21 N3 1_555 1_555
H22 N2 1_555 1_555
Cd1B O1 1_555 1_555
Cd1_2 O3 1_555 1_555
O1B Cd1 1_555 1_555
O2B Cd1 1_555 1_555
O3_2 Cd1 1_555 1_555
O4_2 Cd1 1_555 1_555
O2 Cd1B 1_555 1_555
O4 Cd1_2 1_555 1_555
C1 C9 1_555 1_555
C2 C17 1_555 1_555
C6 C10 1_555 1_555
C8 C20 1_555 1_555
C11 C15 1_555 1_555
C14 C21 1_555 1_555
C17 C24 1_555 1_555
C22 C26 1_555 1_555
C23 C25 1_555 1_555

#END
