
#######################################################################
#
#                 Cambridge Crystallographic Data Centre
#                                CCDC 
#
#######################################################################
#
# If this CIF has been generated from an entry in the Cambridge 
# Structural Database, then it will include bibliographic, chemical, 
# crystal, experimental, refinement or atomic coordinate data resulting 
# from the CCDC's data processing and validation procedures.
#
#######################################################################

data_TAWSIV
_symmetry_cell_setting           monoclinic
_symmetry_space_group_name_H-M   'P 21/c'
_symmetry_Int_Tables_number      14
_space_group_name_Hall           '-P 2ybc'
loop_
_symmetry_equiv_pos_site_id
_symmetry_equiv_pos_as_xyz
1 x,y,z
2 -x,1/2+y,1/2-z
3 -x,-y,-z
4 x,1/2-y,1/2+z
_cell_length_a                   10.5834(6)
_cell_length_b                   9.3285(4)
_cell_length_c                   12.2120(7)
_cell_angle_alpha                90
_cell_angle_beta                 111.857(6)
_cell_angle_gamma                90
_cell_volume                     1118.99
loop_
_atom_site_label
_atom_site_type_symbol
_atom_site_fract_x
_atom_site_fract_y
_atom_site_fract_z
C1 C 1.2361(3) 0.0863(3) 0.5516(3)
C2 C 1.3705(3) 0.1568(3) 0.5793(3)
C3 C 1.4407(3) 0.2159(3) 0.6899(3)
H1 H 1.4096 0.2005 0.7509
C4 C 1.5558(3) 0.2968(4) 0.7098(3)
H2 H 1.6016 0.3357 0.7843
C5 C 1.6048(3) 0.3216(3) 0.6206(3)
C6 C 1.5383(3) 0.2561(3) 0.5117(3)
H3 H 1.5717 0.2676 0.4517
C7 C 1.4235(3) 0.1745(3) 0.4920(3)
H4 H 1.3808 0.1306 0.4191
C8 C 1.7321(3) 0.4934(4) 0.5455(3)
H5 H 1.7790 0.5821 0.5779
H6 H 1.6427 0.5186 0.4890
C9 C 1.8092(3) 0.4184(3) 0.4807(3)
C10 C 1.8632(3) 0.2838(3) 0.5100(3)
H7 H 1.8516 0.2377 0.5731
C11 C 1.9461(3) 0.2796(4) 0.3613(3)
H8 H 1.9933 0.2331 0.3209
C12 C 1.8932(4) 0.4134(4) 0.3242(3)
H9 H 1.9035 0.4561 0.2592
C13 C 1.8249(3) 0.4829(4) 0.3847(3)
H10 H 1.7890 0.5737 0.3609
N1 N 1.9322(3) 0.2141(3) 0.4532(2)
N2 N 1.7147(3) 0.4123(3) 0.6410(2)
O1 O 1.1675(2) 0.0434(2) 0.44872(17)
O2 O 1.1853(2) 0.0766(2) 0.63205(17)
Co1 Co 2.0000 0.0000 0.5000
H11 H 1.741(3) 0.456(3) 0.7048(18)
Co1_2 Co 1.0000 0.0000 0.5000
N1B N 2.0678(3) -0.2141(3) 0.5468(2)
O1_2 O 2.1675(2) 0.0434(2) 0.44872(17)
O1B O 1.8325(2) -0.0434(2) 0.55128(17)
O2_2 O 2.1853(2) 0.0766(2) 0.63205(17)
O2B O 1.8147(2) -0.0766(2) 0.36795(17)
C1_2 C 2.2361(3) 0.0863(3) 0.5516(3)
C2_2 C 2.3705(3) 0.1568(3) 0.5793(3)
C3_2 C 2.4407(3) 0.2159(3) 0.6899(3)
C7_2 C 2.4235(3) 0.1745(3) 0.4920(3)
H1_2 H 2.4096 0.2005 0.7509
C4_2 C 2.5558(3) 0.2968(4) 0.7098(3)
C6_2 C 2.5383(3) 0.2561(3) 0.5117(3)
H4_2 H 2.3808 0.1306 0.4191
H2_2 H 2.6016 0.3357 0.7843
C5_2 C 2.6048(3) 0.3216(3) 0.6206(3)
H3_2 H 2.5717 0.2676 0.4517
N2_2 N 2.7147(3) 0.4123(3) 0.6410(2)
C8_2 C 2.7321(3) 0.4934(4) 0.5455(3)
H11_2 H 2.741(3) 0.456(3) 0.7048(18)
H5_2 H 2.7790 0.5821 0.5779
H6_2 H 2.6427 0.5186 0.4890
C9_2 C 2.8092(3) 0.4184(3) 0.4807(3)
C10_2 C 2.8632(3) 0.2838(3) 0.5100(3)
C13_2 C 2.8249(3) 0.4829(4) 0.3847(3)
C12_2 C 2.8932(4) 0.4134(4) 0.3242(3)
H10_2 H 2.7890 0.5737 0.3609
H7_2 H 2.8516 0.2377 0.5731
N1_2 N 2.9322(3) 0.2141(3) 0.4532(2)
C11_2 C 2.9461(3) 0.2796(4) 0.3613(3)
H9_2 H 2.9035 0.4561 0.2592
Co1_3 Co 3.0000 0.0000 0.5000
H8_2 H 2.9933 0.2331 0.3209
loop_
_geom_bond_atom_site_label_1
_geom_bond_atom_site_label_2
_geom_bond_site_symmetry_1
_geom_bond_site_symmetry_2
C1 C2 1_555 1_555
C2 C3 1_555 1_555
C3 H1 1_555 1_555
C4 C3 1_555 1_555
H2 C4 1_555 1_555
C5 C4 1_555 1_555
C6 C5 1_555 1_555
H3 C6 1_555 1_555
C7 C2 1_555 1_555
H4 C7 1_555 1_555
C8 H5 1_555 1_555
H6 C8 1_555 1_555
C9 C8 1_555 1_555
C10 C9 1_555 1_555
H7 C10 1_555 1_555
C11 H8 1_555 1_555
C12 C11 1_555 1_555
H9 C12 1_555 1_555
C13 C9 1_555 1_555
H10 C13 1_555 1_555
N1 C10 1_555 1_555
N2 C5 1_555 1_555
O1 C1 1_555 1_555
O2 C1 1_555 1_555
Co1 N1 1_555 1_555
H11 N2 1_555 1_555
Co1_2 O1 1_555 1_555
N1B Co1 1_555 1_555
O1_2 Co1 1_555 1_555
O1B Co1 1_555 1_555
O2_2 Co1 1_555 1_555
O2B Co1 1_555 1_555
C1_2 O1_2 1_555 1_555
C2_2 C1_2 1_555 1_555
C3_2 C2_2 1_555 1_555
C7_2 C2_2 1_555 1_555
H1_2 C3_2 1_555 1_555
C4_2 C3_2 1_555 1_555
C6_2 C7_2 1_555 1_555
H4_2 C7_2 1_555 1_555
H2_2 C4_2 1_555 1_555
C5_2 C4_2 1_555 1_555
H3_2 C6_2 1_555 1_555
N2_2 C5_2 1_555 1_555
C8_2 N2_2 1_555 1_555
H11_2 N2_2 1_555 1_555
H5_2 C8_2 1_555 1_555
H6_2 C8_2 1_555 1_555
C9_2 C8_2 1_555 1_555
C10_2 C9_2 1_555 1_555
C13_2 C9_2 1_555 1_555
C12_2 C13_2 1_555 1_555
H10_2 C13_2 1_555 1_555
H7_2 C10_2 1_555 1_555
N1_2 C10_2 1_555 1_555
C11_2 C12_2 1_555 1_555
H9_2 C12_2 1_555 1_555
Co1_3 N1_2 1_555 1_555
H8_2 C11_2 1_555 1_555
C6 C7 1_555 1_555
C8 N2 1_555 1_555
C11 N1 1_555 1_555
C12 C13 1_555 1_555
O2 Co1_2 1_555 1_555
O2_2 C1_2 1_555 1_555
C6_2 C5_2 1_555 1_555
N1_2 C11_2 1_555 1_555

#END
