
#######################################################################
#
#                 Cambridge Crystallographic Data Centre
#                                CCDC 
#
#######################################################################
#
# If this CIF has been generated from an entry in the Cambridge 
# Structural Database, then it will include bibliographic, chemical, 
# crystal, experimental, refinement or atomic coordinate data resulting 
# from the CCDC's data processing and validation procedures.
#
#######################################################################

data_TAWVUK
_symmetry_cell_setting           triclinic
_symmetry_space_group_name_H-M   'P -1'
_symmetry_Int_Tables_number      2
_space_group_name_Hall           '-P 1'
loop_
_symmetry_equiv_pos_site_id
_symmetry_equiv_pos_as_xyz
1 x,y,z
2 -x,-y,-z
_cell_length_a                   9.573(5)
_cell_length_b                   11.732(6)
_cell_length_c                   17.830(10)
_cell_angle_alpha                82.052(7)
_cell_angle_beta                 84.214(7)
_cell_angle_gamma                72.382(6)
_cell_volume                     1886.54
loop_
_atom_site_label
_atom_site_type_symbol
_atom_site_fract_x
_atom_site_fract_y
_atom_site_fract_z
Cu1 Cu 0.05568(15) 0.26014(15) 0.24782(9)
N1 N 0.2655(10) 0.2125(9) 0.2129(5)
N2 N 0.4948(9) 0.1014(10) 0.1894(6)
N3 N -0.1583(10) 0.3288(9) 0.2677(5)
N4 N -0.3710(10) 0.4692(9) 0.2675(6)
N5 N 0.3119(10) -0.0090(8) 0.3448(6)
H1 H 0.3866 -0.0535 0.3709
N7 N -0.6828(12) 0.6842(10) 0.3497(8)
O1 O 0.0810(8) 0.1239(9) 0.3467(5)
O2 O 0.0967(8) 0.3839(8) 0.3031(5)
N8 N 0.5427(16) -0.1419(15) 0.1331(7)
C1 C 0.6437(14) -0.0773(12) 0.1296(7)
C2 C 0.7537(15) -0.0890(17) 0.0715(9)
H2 H 0.8227 -0.0448 0.0691
C3 C 0.7626(18) -0.165(2) 0.0169(9)
H3 H 0.8378 -0.1733 -0.0228
C4 C 0.662(2) -0.2299(16) 0.0205(9)
H4 H 0.6677 -0.2820 -0.0168
C5 C 0.552(2) -0.2182(15) 0.0785(9)
H5 H 0.4826 -0.2623 0.0810
C6 C -0.2633(11) 0.2734(11) 0.2998(7)
C7 C 0.3405(12) 0.2850(12) 0.1731(7)
C8 C -0.3997(11) 0.3660(12) 0.2981(7)
C9 C -0.5410(16) 0.6207(13) 0.3421(10)
C10 C -0.4843(13) 0.5897(12) 0.2625(8)
H6 H -0.5665 0.5878 0.2336
H7 H -0.4406 0.6516 0.2357
C11 C -0.2254(12) 0.4450(12) 0.2515(7)
C12 C 0.4885(12) 0.2187(13) 0.1581(7)
N9 N -0.0847(12) 0.5622(9) 0.2888(6)
H8 H -0.1240 0.6335 0.3045
C13 C -0.5296(12) 0.3396(13) 0.3267(7)
H9 H -0.6217 0.4000 0.3255
C14 C 0.2983(13) 0.4122(12) 0.1489(7)
H10 H 0.2011 0.4618 0.1588
C15 C 0.6269(14) -0.0013(13) 0.1902(8)
H11 H 0.6265 -0.0516 0.2395
H12 H 0.7136 0.0290 0.1867
C16 C 0.0269(12) 0.4867(12) 0.3250(8)
C17 C -0.2558(13) 0.1590(12) 0.3281(7)
H13 H -0.1645 0.0976 0.3274
C18 C 0.3588(12) 0.1034(12) 0.2221(7)
C19 C 0.0658(13) 0.5224(12) 0.3963(7)
H14 H 0.1729 0.4887 0.4018
H15 H 0.0409 0.6112 0.3925
C20 C 0.0295(13) 0.0522(11) 0.5039(8)
H16 H 0.0303 0.0597 0.5585
H17 H -0.0378 0.1277 0.4805
C21 C -0.5190(14) 0.2266(13) 0.3559(8)
H18 H -0.6062 0.2078 0.3760
C22 C -0.0146(12) 0.4781(12) 0.4646(7)
H19 H 0.0163 0.3890 0.4707
H20 H -0.1213 0.5065 0.4574
C23 C 0.3233(13) -0.0035(11) 0.2624(7)
H21 H 0.2290 -0.0058 0.2454
H22 H 0.4001 -0.0762 0.2476
C24 C 0.5485(15) 0.3871(15) 0.0940(8)
H23 H 0.6161 0.4234 0.0652
C25 C 0.1849(13) 0.0379(12) 0.4670(7)
H24 H 0.2249 0.0980 0.4839
H25 H 0.2492 -0.0432 0.4842
C26 C 0.1874(13) 0.0538(12) 0.3820(8)
C27 C 0.5938(13) 0.2680(13) 0.1175(7)
H26 H 0.6917 0.2202 0.1071
C28 C -0.3831(15) 0.1322(13) 0.3584(8)
H27 H -0.3800 0.0529 0.3803
C29 C 0.4046(15) 0.4593(13) 0.1106(8)
H28 H 0.3798 0.5434 0.0948
C30 C -0.4482(19) 0.5951(13) 0.3971(9)
H29 H -0.3473 0.5534 0.3883
C31 C -0.503(2) 0.6313(16) 0.4673(11)
H30 H -0.4399 0.6142 0.5077
C32 C -0.734(2) 0.7150(17) 0.4217(12)
H31 H -0.8350 0.7554 0.4304
C33 C -0.648(2) 0.6913(17) 0.4791(12)
H32 H -0.6871 0.7155 0.5275
C34 C -0.1459(15) 0.5352(12) 0.2256(7)
H33 H -0.0664 0.5034 0.1872
H34 H -0.2143 0.6097 0.2017
O7 O -0.0124(11) 0.2988(14) 0.1079(6)
O8 O 0.0132(9) 0.1427(10) 0.1836(7)
O9 O -0.0520(14) 0.1498(19) 0.0716(9)
N10 N -0.0168(19) 0.1956(19) 0.1246(12)
Cu1A Cu -0.05568(15) -0.26014(15) 0.75218(9)
Cu1A_2 Cu -0.05568(15) 0.73986(15) 0.75218(9)
N1A N -0.2655(10) -0.2125(9) 0.7871(5)
N2A N -0.4948(9) -0.1014(10) 0.8106(6)
N3A N 0.1583(10) 0.6712(9) 0.7323(5)
N3A_2 N 0.1583(10) -0.3288(9) 0.7323(5)
N4A N 0.3710(10) 0.5308(9) 0.7325(6)
N5A N -0.3119(10) 0.0090(8) 0.6552(6)
H1A H -0.3866 0.0535 0.6291
N7A N 0.6828(12) 0.3158(10) 0.6503(8)
O1A O -0.0810(8) -0.1239(9) 0.6533(5)
O2A O -0.0967(8) 0.6161(8) 0.6969(5)
O2A_2 O -0.0967(8) -0.3839(8) 0.6969(5)
N8A N -0.5427(16) 0.1419(15) 0.8669(7)
C1A C -0.6437(14) 0.0773(12) 0.8704(7)
C2A C -0.7537(15) 0.0890(17) 0.9285(9)
H2A H -0.8227 0.0448 0.9309
C3A C -0.7626(18) 0.165(2) 0.9831(9)
H3A H -0.8378 0.1733 1.0228
C4A C -0.662(2) 0.2299(16) 0.9795(9)
H4A H -0.6677 0.2820 1.0168
C5A C -0.552(2) 0.2182(15) 0.9215(9)
H5A H -0.4826 0.2623 0.9190
C6A C 0.2633(11) 0.7266(11) 0.7002(7)
C7A C -0.3405(12) -0.2850(12) 0.8269(7)
C8A C 0.3997(11) 0.6340(12) 0.7019(7)
C9A C 0.5410(16) 0.3793(13) 0.6579(10)
C10A C 0.4843(13) 0.4103(12) 0.7375(8)
H6A H 0.5665 0.4122 0.7664
H7A H 0.4406 0.3484 0.7643
C11A C 0.2254(12) 0.5550(12) 0.7485(7)
C12A C -0.4885(12) -0.2187(13) 0.8419(7)
N9A N 0.0847(12) 0.4378(9) 0.7112(6)
H8A H 0.1240 0.3665 0.6955
C13A C 0.5296(12) 0.6604(13) 0.6733(7)
H9A H 0.6217 0.6000 0.6745
C14A C -0.2983(13) -0.4122(12) 0.8511(7)
H10A H -0.2011 -0.4618 0.8412
C15A C -0.6269(14) 0.0013(13) 0.8098(8)
H11A H -0.6265 0.0516 0.7605
H12A H -0.7136 -0.0290 0.8133
C16A C -0.0269(12) 0.5133(12) 0.6750(8)
C17A C 0.2558(13) 0.8410(12) 0.6719(7)
H13A H 0.1645 0.9024 0.6726
C18A C -0.3588(12) -0.1034(12) 0.7779(7)
C19A C -0.0658(13) 0.4776(12) 0.6037(7)
H14A H -0.1729 0.5113 0.5982
H15A H -0.0409 0.3888 0.6075
C20A C -0.0295(13) -0.0522(11) 0.4961(8)
H16A H -0.0303 -0.0597 0.4415
H17A H 0.0378 -0.1277 0.5195
C21A C 0.5190(14) 0.7734(13) 0.6441(8)
H18A H 0.6062 0.7922 0.6240
C22A C 0.0146(12) 0.5219(12) 0.5354(7)
H19A H -0.0163 0.6110 0.5293
H20A H 0.1213 0.4935 0.5426
C23A C -0.3233(13) 0.0035(11) 0.7376(7)
H21A H -0.2290 0.0058 0.7546
H22A H -0.4001 0.0762 0.7524
C24A C -0.5485(15) -0.3871(15) 0.9060(8)
H23A H -0.6161 -0.4234 0.9348
C25A C -0.1849(13) -0.0379(12) 0.5330(7)
H24A H -0.2249 -0.0980 0.5161
H25A H -0.2492 0.0432 0.5158
C26A C -0.1874(13) -0.0538(12) 0.6180(8)
C27A C -0.5938(13) -0.2680(13) 0.8825(7)
H26A H -0.6917 -0.2202 0.8929
C28A C 0.3831(15) 0.8678(13) 0.6416(8)
H27A H 0.3800 0.9471 0.6197
C29A C -0.4046(15) -0.4593(13) 0.8894(8)
H28A H -0.3798 -0.5434 0.9052
C30A C 0.4482(19) 0.4049(13) 0.6029(9)
H29A H 0.3473 0.4466 0.6117
C31A C 0.503(2) 0.3687(16) 0.5327(11)
H30A H 0.4399 0.3858 0.4923
C32A C 0.734(2) 0.2850(17) 0.5783(12)
H31A H 0.8350 0.2446 0.5696
C33A C 0.648(2) 0.3087(17) 0.5209(12)
H32A H 0.6871 0.2845 0.4725
C34A C 0.1459(15) 0.4648(12) 0.7744(7)
H33A H 0.0664 0.4966 0.8128
H34A H 0.2143 0.3903 0.7983
O7A O 0.0124(11) -0.2988(14) 0.8921(6)
O8A O -0.0132(9) -0.1427(10) 0.8164(7)
O9A O 0.0520(14) -0.1498(19) 0.9284(9)
N10A N 0.0168(19) -0.1956(19) 0.8754(12)
N6 N 0.3223(18) 0.1998(12) 0.6116(11)
O3 O 0.3362(15) 0.2107(10) 0.6785(8)
O4 O 0.2067(14) 0.2528(10) 0.5797(8)
O5 O 0.4272(12) 0.1344(9) 0.5762(7)
O6 O 0.138(2) 0.737(2) 0.2206(18)
C35 C 0.010(3) 0.838(3) 0.254(2)
O10 O 0.930(7) 0.410(6) 0.987(4)
C36? C 0.777(6) 0.117(5) 0.934(3)
O11? O 0.801(5) 0.236(4) 0.914(3)
loop_
_geom_bond_atom_site_label_1
_geom_bond_atom_site_label_2
_geom_bond_site_symmetry_1
_geom_bond_site_symmetry_2
Cu1 N1 1_555 1_555
N1 C7 1_555 1_555
N2 C12 1_555 1_555
N3 Cu1 1_555 1_555
N4 C8 1_555 1_555
N5 H1 1_555 1_555
N6 O3 1_555 1_555
N7 C9 1_555 1_555
O1 Cu1 1_555 1_555
O2 Cu1 1_555 1_555
O4 N6 1_555 1_555
O5 N6 1_555 1_555
N8 C1 1_555 1_555
C1 C2 1_555 1_555
C2 H2 1_555 1_555
C3 C2 1_555 1_555
H3 C3 1_555 1_555
C4 C3 1_555 1_555
H4 C4 1_555 1_555
C5 N8 1_555 1_555
H5 C5 1_555 1_555
C6 N3 1_555 1_555
C7 C12 1_555 1_555
C8 C6 1_555 1_555
C9 C10 1_555 1_555
C10 N4 1_555 1_555
H6 C10 1_555 1_555
H7 C10 1_555 1_555
C11 N3 1_555 1_555
C12 C27 1_555 1_555
N9 H8 1_555 1_555
C13 C8 1_555 1_555
H9 C13 1_555 1_555
C14 C7 1_555 1_555
H10 C14 1_555 1_555
C15 N2 1_555 1_555
H11 C15 1_555 1_555
H12 C15 1_555 1_555
C16 O2 1_555 1_555
C17 C6 1_555 1_555
H13 C17 1_555 1_555
C18 N1 1_555 1_555
C19 C16 1_555 1_555
H14 C19 1_555 1_555
H15 C19 1_555 1_555
C20 H16 1_555 1_555
H17 C20 1_555 1_555
C21 C13 1_555 1_555
H18 C21 1_555 1_555
C22 C19 1_555 1_555
H19 C22 1_555 1_555
H20 C22 1_555 1_555
C23 N5 1_555 1_555
H21 C23 1_555 1_555
H22 C23 1_555 1_555
C24 H23 1_555 1_555
C25 C20 1_555 1_555
H24 C25 1_555 1_555
H25 C25 1_555 1_555
C26 N5 1_555 1_555
C27 C24 1_555 1_555
H26 C27 1_555 1_555
C28 C17 1_555 1_555
H27 C28 1_555 1_555
C29 C14 1_555 1_555
H28 C29 1_555 1_555
C30 C9 1_555 1_555
H29 C30 1_555 1_555
C31 C30 1_555 1_555
H30 C31 1_555 1_555
C32 N7 1_555 1_555
H31 C32 1_555 1_555
C33 C31 1_555 1_555
H32 C33 1_555 1_555
C34 C11 1_555 1_555
H33 C34 1_555 1_555
H34 C34 1_555 1_555
O6 C35 1_555 1_555
O7 Cu1 1_555 1_555
O8 Cu1 1_555 1_555
O9 N10 1_555 1_555
N10 O7 1_555 1_555
Cu1A N1A 1_555 1_555
Cu1A_2 N3A 1_555 1_555
N1A C7A 1_555 1_555
N2A C12A 1_555 1_555
N3A C6A 1_555 1_555
N3A_2 Cu1A 1_555 1_555
N4A C8A 1_555 1_555
N5A H1A 1_555 1_555
N7A C9A 1_555 1_555
O1A Cu1A 1_555 1_555
O2A Cu1A_2 1_555 1_555
O2A_2 Cu1A 1_555 1_555
N8A C1A 1_555 1_555
C1A C2A 1_555 1_555
C2A H2A 1_555 1_555
C3A C2A 1_555 1_555
H3A C3A 1_555 1_555
C4A C3A 1_555 1_555
H4A C4A 1_555 1_555
C5A N8A 1_555 1_555
H5A C5A 1_555 1_555
C6A C8A 1_555 1_555
C7A C12A 1_555 1_555
C8A C13A 1_555 1_555
C9A C10A 1_555 1_555
C10A N4A 1_555 1_555
H6A C10A 1_555 1_555
H7A C10A 1_555 1_555
C11A N3A 1_555 1_555
C12A C27A 1_555 1_555
N9A H8A 1_555 1_555
C13A H9A 1_555 1_555
C14A C7A 1_555 1_555
H10A C14A 1_555 1_555
C15A N2A 1_555 1_555
H11A C15A 1_555 1_555
H12A C15A 1_555 1_555
C16A O2A 1_555 1_555
C17A C6A 1_555 1_555
H13A C17A 1_555 1_555
C18A N1A 1_555 1_555
C19A C16A 1_555 1_555
H14A C19A 1_555 1_555
H15A C19A 1_555 1_555
C20A C20 1_555 1_555
H16A C20A 1_555 1_555
H17A C20A 1_555 1_555
C21A C13A 1_555 1_555
H18A C21A 1_555 1_555
C22A C22 1_555 1_555
H19A C22A 1_555 1_555
H20A C22A 1_555 1_555
C23A N5A 1_555 1_555
H21A C23A 1_555 1_555
H22A C23A 1_555 1_555
C24A H23A 1_555 1_555
C25A C20A 1_555 1_555
H24A C25A 1_555 1_555
H25A C25A 1_555 1_555
C26A N5A 1_555 1_555
C27A C24A 1_555 1_555
H26A C27A 1_555 1_555
C28A C17A 1_555 1_555
H27A C28A 1_555 1_555
C29A C14A 1_555 1_555
H28A C29A 1_555 1_555
C30A C9A 1_555 1_555
H29A C30A 1_555 1_555
C31A C30A 1_555 1_555
H30A C31A 1_555 1_555
C32A N7A 1_555 1_555
H31A C32A 1_555 1_555
C33A C31A 1_555 1_555
H32A C33A 1_555 1_555
C34A C11A 1_555 1_555
H33A C34A 1_555 1_555
H34A C34A 1_555 1_555
O7A Cu1A 1_555 1_555
O8A Cu1A 1_555 1_555
O9A N10A 1_555 1_555
N10A O7A 1_555 1_555
N2 C18 1_555 1_555
N4 C11 1_555 1_555
O1 C26 1_555 1_555
C1 C15 1_555 1_555
C4 C5 1_555 1_555
N9 C16 1_555 1_555
N9 C34 1_555 1_555
C18 C23 1_555 1_555
C21 C28 1_555 1_555
C24 C29 1_555 1_555
C25 C26 1_555 1_555
C32 C33 1_555 1_555
O8 N10 1_555 1_555
N2A C18A 1_555 1_555
N4A C11A 1_555 1_555
O1A C26A 1_555 1_555
C1A C15A 1_555 1_555
C4A C5A 1_555 1_555
N9A C16A 1_555 1_555
N9A C34A 1_555 1_555
C18A C23A 1_555 1_555
C19A C22A 1_555 1_555
C21A C28A 1_555 1_555
C24A C29A 1_555 1_555
C25A C26A 1_555 1_555
C32A C33A 1_555 1_555
O8A N10A 1_555 1_555

#END
