
#######################################################################
#
#                 Cambridge Crystallographic Data Centre
#                                CCDC 
#
#######################################################################
#
# If this CIF has been generated from an entry in the Cambridge 
# Structural Database, then it will include bibliographic, chemical, 
# crystal, experimental, refinement or atomic coordinate data resulting 
# from the CCDC's data processing and validation procedures.
#
#######################################################################

data_TAXBOK
_symmetry_cell_setting           monoclinic
_symmetry_space_group_name_H-M   'P 21/n'
_symmetry_Int_Tables_number      14
_space_group_name_Hall           '-P 2yn'
loop_
_symmetry_equiv_pos_site_id
_symmetry_equiv_pos_as_xyz
1 x,y,z
2 1/2-x,1/2+y,1/2-z
3 -x,-y,-z
4 1/2+x,1/2-y,1/2+z
_cell_length_a                   11.1123(3)
_cell_length_b                   14.0514(5)
_cell_length_c                   11.6570(3)
_cell_angle_alpha                90
_cell_angle_beta                 103.9526(18)
_cell_angle_gamma                90
_cell_volume                     1766.46
loop_
_atom_site_label
_atom_site_type_symbol
_atom_site_fract_x
_atom_site_fract_y
_atom_site_fract_z
Ag1 Ag 0.93860(3) 0.06819(2) 0.40110(3)
Si1 Si 0.80770(11) 0.41591(9) 0.60999(12)
N1 N 0.8196(3) 0.1415(3) 0.4921(3)
N2 N 0.5341(3) 0.4952(2) 0.7795(3)
C1 C 0.8402(4) 0.2328(3) 0.5249(4)
H1 H 0.9122 0.2611 0.5137
C2 C 0.7625(4) 0.2877(3) 0.5739(4)
C3 C 0.6542(4) 0.2427(4) 0.5873(5)
H2 H 0.5969 0.2768 0.6173
C4 C 0.6316(5) 0.1483(4) 0.5563(5)
H3 H 0.5608 0.1181 0.5673
C5 C 0.7165(4) 0.0994(3) 0.5085(4)
H4 H 0.7016 0.0359 0.4874
C6 C 0.5045(5) 0.5829(3) 0.7380(5)
H5 H 0.4431 0.6162 0.7630
C7 C 0.6813(4) 0.4829(3) 0.6592(4)
C8 C 0.6502(6) 0.5744(3) 0.6185(5)
H6 H 0.6883 0.6018 0.5638
C9 C 0.5616(5) 0.6253(4) 0.6600(5)
H7 H 0.5417 0.6874 0.6348
C10 C 0.6207(4) 0.4475(3) 0.7417(4)
H8 H 0.6420 0.3870 0.7723
C11 C 0.8296(6) 0.4726(4) 0.4706(5)
C12 C 0.9512(5) 0.4186(5) 0.7333(7)
Ag1C Ag 0.43860(3) 0.43181(2) 0.90110(3)
N2C N 1.0341(3) 0.0048(2) 0.2795(3)
S1 S 0.22347(10) 0.18967(9) 0.53284(11)
F1 F 0.2241(5) 0.2561(5) 0.7389(4)
F2 F 0.3606(5) 0.3182(4) 0.6580(4)
F3 F 0.3870(5) 0.1830(6) 0.7315(5)
O1 O 0.1666(5) 0.1071(3) 0.5641(5)
O2 O 0.1360(4) 0.2617(5) 0.4819(5)
O3 O 0.3214(5) 0.1734(4) 0.4764(5)
C13 C 0.3016(5) 0.2393(5) 0.6720(5)
loop_
_geom_bond_atom_site_label_1
_geom_bond_atom_site_label_2
_geom_bond_site_symmetry_1
_geom_bond_site_symmetry_2
Ag1 N1 1_555 1_555
Si1 C2 1_555 1_555
N1 C1 1_555 1_555
N2 C6 1_555 1_555
C1 H1 1_555 1_555
C2 C1 1_555 1_555
C3 C2 1_555 1_555
H2 C3 1_555 1_555
C4 C3 1_555 1_555
H3 C4 1_555 1_555
C5 N1 1_555 1_555
H4 C5 1_555 1_555
C6 H5 1_555 1_555
C7 Si1 1_555 1_555
C8 C7 1_555 1_555
H6 C8 1_555 1_555
C9 C6 1_555 1_555
H7 C9 1_555 1_555
C10 N2 1_555 1_555
H8 C10 1_555 1_555
C11 Si1 1_555 1_555
C12 Si1 1_555 1_555
S1 O1 1_555 1_555
F1 C13 1_555 1_555
F2 C13 1_555 1_555
F3 C13 1_555 1_555
O2 S1 1_555 1_555
O3 S1 1_555 1_555
C13 S1 1_555 1_555
Ag1C N2 1_555 1_555
N2C Ag1 1_555 1_555
C4 C5 1_555 1_555
C7 C10 1_555 1_555
C8 C9 1_555 1_555

#END
