
#######################################################################
#
#                 Cambridge Crystallographic Data Centre
#                                CCDC 
#
#######################################################################
#
# If this CIF has been generated from an entry in the Cambridge 
# Structural Database, then it will include bibliographic, chemical, 
# crystal, experimental, refinement or atomic coordinate data resulting 
# from the CCDC's data processing and validation procedures.
#
#######################################################################

data_TAXBIE
_symmetry_cell_setting           monoclinic
_symmetry_space_group_name_H-M   'P 21/n'
_symmetry_Int_Tables_number      14
_space_group_name_Hall           '-P 2yn'
loop_
_symmetry_equiv_pos_site_id
_symmetry_equiv_pos_as_xyz
1 x,y,z
2 1/2-x,1/2+y,1/2-z
3 -x,-y,-z
4 1/2+x,1/2-y,1/2+z
_cell_length_a                   10.930(3)
_cell_length_b                   14.192(3)
_cell_length_c                   11.097(3)
_cell_angle_alpha                90
_cell_angle_beta                 106.788(19)
_cell_angle_gamma                90
_cell_volume                     1647.99
loop_
_atom_site_label
_atom_site_type_symbol
_atom_site_fract_x
_atom_site_fract_y
_atom_site_fract_z
Ag1 Ag 0.07972(5) 0.06252(3) 0.12161(5)
Si1 Si -0.30780(14) 0.09922(11) 0.39347(15)
N1 N -0.0283(4) 0.0047(3) 0.2339(4)
N2 N -0.3089(5) 0.3702(3) 0.5202(5)
C1 C -0.1157(5) 0.0572(4) 0.2665(5)
H1 H -0.1342 0.1164 0.2300
C2 C -0.1805(5) 0.0286(4) 0.3513(5)
C3 C -0.1525(6) -0.0619(4) 0.3995(6)
H2 H -0.1923 -0.0848 0.4572
C4 C -0.0666(6) -0.1182(4) 0.3633(6)
H3 H -0.0496 -0.1792 0.3941
C5 C -0.0065(5) -0.0820(4) 0.2804(6)
H4 H 0.0517 -0.1197 0.2559
C6 C -0.3288(6) 0.2791(4) 0.4901(6)
H5 H -0.3951 0.2492 0.5119
C7 C -0.2586(5) 0.2256(4) 0.4286(5)
C8 C -0.1612(5) 0.2742(4) 0.3979(6)
H6 H -0.1094 0.2426 0.3578
C9 C -0.1406(5) 0.3681(4) 0.4258(6)
H7 H -0.0763 0.4003 0.4035
C10 C -0.2152(5) 0.4139(4) 0.4866(6)
H8 H -0.2006 0.4776 0.5052
C11 C -0.3377(7) 0.0473(5) 0.5348(6)
H9 H -0.2605 0.0489 0.6034
H10 H -0.4030 0.0827 0.5567
H11 H -0.3653 -0.0168 0.5177
C12 C -0.4541(6) 0.0981(6) 0.2581(7)
H12 H -0.4358 0.1255 0.1861
H13 H -0.4825 0.0343 0.2394
H14 H -0.5198 0.1340 0.2786
Ag1C Ag -0.42028(5) 0.43748(3) 0.62161(5)
N2C N 0.1911(5) 0.1298(3) 0.0202(5)
P1 P -0.26119(16) 0.21191(11) -0.10116(17)
F1 F -0.2149(6) 0.2277(4) -0.2200(5)
F2 F -0.1600(6) 0.1300(4) -0.0597(6)
F3 F -0.3587(6) 0.2942(4) -0.1372(5)
F4 F -0.3106(6) 0.1933(5) 0.0152(6)
F5 F -0.1588(6) 0.2812(5) -0.0239(7)
F6 F -0.3613(7) 0.1404(5) -0.1754(7)
loop_
_geom_bond_atom_site_label_1
_geom_bond_atom_site_label_2
_geom_bond_site_symmetry_1
_geom_bond_site_symmetry_2
Ag1 N1 1_555 1_555
Si1 C2 1_555 1_555
N1 C1 1_555 1_555
N2 C6 1_555 1_555
C1 H1 1_555 1_555
C2 C1 1_555 1_555
C3 C2 1_555 1_555
H2 C3 1_555 1_555
C4 C3 1_555 1_555
H3 C4 1_555 1_555
C5 N1 1_555 1_555
H4 C5 1_555 1_555
C6 H5 1_555 1_555
C7 Si1 1_555 1_555
C8 C7 1_555 1_555
H6 C8 1_555 1_555
C9 C8 1_555 1_555
H7 C9 1_555 1_555
C10 N2 1_555 1_555
H8 C10 1_555 1_555
C11 Si1 1_555 1_555
H9 C11 1_555 1_555
H10 C11 1_555 1_555
H11 C11 1_555 1_555
C12 Si1 1_555 1_555
H12 C12 1_555 1_555
H13 C12 1_555 1_555
H14 C12 1_555 1_555
P1 F1 1_555 1_555
F2 P1 1_555 1_555
F3 P1 1_555 1_555
F4 P1 1_555 1_555
F5 P1 1_555 1_555
F6 P1 1_555 1_555
Ag1C N2 1_555 1_555
N2C Ag1 1_555 1_555
C4 C5 1_555 1_555
C6 C7 1_555 1_555
C9 C10 1_555 1_555

#END
