
#######################################################################
#
#                 Cambridge Crystallographic Data Centre
#                                CCDC 
#
#######################################################################
#
# If this CIF has been generated from an entry in the Cambridge 
# Structural Database, then it will include bibliographic, chemical, 
# crystal, experimental, refinement or atomic coordinate data resulting 
# from the CCDC's data processing and validation procedures.
#
#######################################################################

data_TAXXUM
_symmetry_cell_setting           monoclinic
_symmetry_space_group_name_H-M   'C 2/c'
_symmetry_Int_Tables_number      15
_space_group_name_Hall           '-C 2yn'
loop_
_symmetry_equiv_pos_site_id
_symmetry_equiv_pos_as_xyz
1 x,y,z
2 1/2+x,1/2+y,z
3 -x,y,1/2-z
4 1/2-x,1/2+y,1/2-z
5 -x,-y,-z
6 1/2-x,1/2-y,-z
7 x,-y,1/2+z
8 1/2+x,1/2-y,1/2+z
_cell_length_a                   28.9764(10)
_cell_length_b                   4.8104(2)
_cell_length_c                   20.3261(7)
_cell_angle_alpha                90
_cell_angle_beta                 119.0120(10)
_cell_angle_gamma                90
_cell_volume                     2477.7
loop_
_atom_site_label
_atom_site_type_symbol
_atom_site_fract_x
_atom_site_fract_y
_atom_site_fract_z
Ag1 Ag 0.04503(2) 1.03182(10) 0.10379(3)
S1 S 0.09034(6) 1.0100(3) 0.24121(9)
S2 S 0.06070(6) 0.5240(3) -0.01592(9)
F1 F 0.14906(15) 0.8040(8) 0.0394(2)
F2 F 0.14483(17) 0.4560(9) -0.0295(3)
F3 F 0.10230(16) 0.8307(9) -0.0799(2)
O1 O 0.03604(16) 0.7719(8) -0.0060(2)
O2 O 0.02987(16) 0.3858(8) -0.0867(2)
O3 O 0.08529(16) 0.3517(8) 0.0500(2)
C1 C 0.1461(2) 0.7877(13) 0.2710(4)
C2 C 0.1518(3) 0.6219(14) 0.2191(4)
H1 H 0.1264 0.6281 0.1678
C3 C 0.1952(3) 0.4480(14) 0.2438(5)
H2 H 0.1991 0.3358 0.2091
C4 C 0.2316(3) 0.4382(17) 0.3170(6)
H3 H 0.2609 0.3197 0.3333
C5 C 0.2257(3) 0.6036(19) 0.3683(5)
H4 H 0.2511 0.5970 0.4195
C6 C 0.1828(3) 0.7776(15) 0.3444(4)
H5 H 0.1791 0.8898 0.3794
C7 C 0.0460(2) 0.7922(12) 0.2589(3)
H6 H 0.0330 0.6376 0.2230
H7 H 0.0648 0.7151 0.3099
C8 C 0.0000 0.9725(16) 0.2500
H8 H 0.0116 1.0921 0.2943
H9 H -0.0116 1.0921 0.2057
C9 C 0.1172(3) 0.6593(17) -0.0222(4)
Ag1B Ag -0.04503(2) 1.03182(10) 0.39621(3)
Ag1D Ag -0.04503(2) 0.96818(10) -0.10379(3)
Ag1_2 Ag 0.04503(2) 0.03182(10) 0.10379(3)
Ag1D_2 Ag -0.04503(2) 1.96818(10) -0.10379(3)
S1B S -0.09034(6) 1.0100(3) 0.25879(9)
S2D S -0.06070(6) 1.4760(3) 0.01592(9)
F1D F -0.14906(15) 1.1960(8) -0.0394(2)
F2D F -0.14483(17) 1.5440(9) 0.0295(3)
F3D F -0.10230(16) 1.1693(9) 0.0799(2)
O1D O -0.03604(16) 1.2281(8) 0.0060(2)
O1F O 0.03604(16) 1.2281(8) 0.4940(2)
O1B O -0.03604(16) 0.7719(8) 0.5060(2)
O2D O -0.02987(16) 1.6142(8) 0.0867(2)
O3D O -0.08529(16) 1.6483(8) -0.0500(2)
O3_2 O 0.08529(16) 1.3517(8) 0.0500(2)
O3B O -0.08529(16) 1.3517(8) 0.4500(2)
C1B C -0.1461(2) 0.7877(13) 0.2290(4)
C2B C -0.1518(3) 0.6219(14) 0.2809(4)
H1B H -0.1264 0.6281 0.3322
C3B C -0.1952(3) 0.4480(14) 0.2562(5)
H2B H -0.1991 0.3358 0.2909
C4B C -0.2316(3) 0.4382(17) 0.1830(6)
H3B H -0.2609 0.3197 0.1667
C5B C -0.2257(3) 0.6036(19) 0.1317(5)
H4B H -0.2511 0.5970 0.0805
C6B C -0.1828(3) 0.7776(15) 0.1556(4)
H5B H -0.1791 0.8898 0.1206
C7B C -0.0460(2) 0.7922(12) 0.2411(3)
H6B H -0.0330 0.6376 0.2770
H7B H -0.0648 0.7151 0.1901
C9D C -0.1172(3) 1.3407(17) 0.0222(4)
loop_
_geom_bond_atom_site_label_1
_geom_bond_atom_site_label_2
_geom_bond_site_symmetry_1
_geom_bond_site_symmetry_2
Ag1 S1 1_555 1_555
S1 C1 1_555 1_555
S2 O1 1_555 1_555
F1 C9 1_555 1_555
F2 C9 1_555 1_555
F3 C9 1_555 1_555
O1 Ag1 1_555 1_555
O2 S2 1_555 1_555
O3 S2 1_555 1_555
C1 C2 1_555 1_555
C2 H1 1_555 1_555
C3 C2 1_555 1_555
H2 C3 1_555 1_555
C4 C3 1_555 1_555
H3 C4 1_555 1_555
C5 C4 1_555 1_555
H4 C5 1_555 1_555
C6 C1 1_555 1_555
H5 C6 1_555 1_555
C7 S1 1_555 1_555
H6 C7 1_555 1_555
H7 C7 1_555 1_555
C8 C7 1_555 1_555
H8 C8 1_555 1_555
H9 C8 1_555 1_555
C9 S2 1_555 1_555
Ag1B S1B 1_555 1_555
Ag1D O1 1_555 1_555
Ag1_2 O3 1_555 1_555
Ag1D_2 O3D 1_555 1_555
S1B C1B 1_555 1_555
S2D O1D 1_555 1_555
F1D C9D 1_555 1_555
F2D C9D 1_555 1_555
F3D C9D 1_555 1_555
O1D Ag1 1_555 1_555
O1F Ag1B 1_555 1_555
O1B Ag1B 1_555 1_555
O2D S2D 1_555 1_555
O3D S2D 1_555 1_555
O3_2 Ag1 1_555 1_555
O3B Ag1B 1_555 1_555
C1B C2B 1_555 1_555
C2B H1B 1_555 1_555
C3B C2B 1_555 1_555
H2B C3B 1_555 1_555
C4B C3B 1_555 1_555
H3B C4B 1_555 1_555
C5B C4B 1_555 1_555
H4B C5B 1_555 1_555
C6B C1B 1_555 1_555
H5B C6B 1_555 1_555
C7B C8 1_555 1_555
H6B C7B 1_555 1_555
H7B C7B 1_555 1_555
C9D S2D 1_555 1_555
C5 C6 1_555 1_555
Ag1D O1D 1_555 1_555
S1B C7B 1_555 1_555
C5B C6B 1_555 1_555

#END
