
#######################################################################
#
#                 Cambridge Crystallographic Data Centre
#                                CCDC 
#
#######################################################################
#
# If this CIF has been generated from an entry in the Cambridge 
# Structural Database, then it will include bibliographic, chemical, 
# crystal, experimental, refinement or atomic coordinate data resulting 
# from the CCDC's data processing and validation procedures.
#
#######################################################################

data_TAYLIP
_symmetry_cell_setting           monoclinic
_symmetry_space_group_name_H-M   'P 21/n'
_symmetry_Int_Tables_number      14
_space_group_name_Hall           '-P 2yn'
loop_
_symmetry_equiv_pos_site_id
_symmetry_equiv_pos_as_xyz
1 x,y,z
2 1/2-x,1/2+y,1/2-z
3 -x,-y,-z
4 1/2+x,1/2-y,1/2+z
_cell_length_a                   12.470(3)
_cell_length_b                   9.4980(19)
_cell_length_c                   17.043(3)
_cell_angle_alpha                90
_cell_angle_beta                 108.23(3)
_cell_angle_gamma                90
_cell_volume                     1917.26
loop_
_atom_site_label
_atom_site_type_symbol
_atom_site_fract_x
_atom_site_fract_y
_atom_site_fract_z
Fe1 Fe 0.0000 0.0000 0.0000
Fe2 Fe 0.5000 0.0000 0.0000
S1 S 0.25461(6) -0.13891(8) 0.01969(5)
O1 O 0.17566(16) -0.0516(2) 0.05004(13)
O2 O 0.20150(18) -0.1730(3) -0.06743(13)
O3 O 0.2853(2) -0.2653(2) 0.07016(15)
O4 O 0.35660(17) -0.0525(2) 0.03003(14)
O5 O -0.0005(2) 0.0497(3) 0.12479(17)
N1 N -0.0462(2) -0.2165(3) 0.02193(17)
N2 N 0.4973(2) 0.2019(3) 0.07148(16)
N3 N 0.6033(2) -0.1100(3) 0.11302(16)
C1 C 0.0143(3) -0.2903(4) 0.0882(2)
H1 H 0.0790 -0.2491 0.1236
C2 C -0.0140(3) -0.4233(4) 0.1067(2)
H2 H 0.0298 -0.4703 0.1537
C3 C -0.1089(3) -0.4851(4) 0.0536(3)
H3 H -0.1301 -0.5753 0.0640
C4 C -0.1719(3) -0.4124(4) -0.0148(3)
H4 H -0.2363 -0.4526 -0.0513
C5 C -0.1384(3) -0.2790(4) -0.0287(2)
H5 H -0.1816 -0.2302 -0.0752
C6 C 0.4460(3) 0.2098(4) 0.1303(2)
H6 H 0.4077 0.1307 0.1398
C7 C 0.4470(3) 0.3279(4) 0.1769(2)
H7 H 0.4107 0.3283 0.2170
C8 C 0.5024(4) 0.4449(5) 0.1632(3)
H8 H 0.5046 0.5263 0.1940
C9 C 0.5552(4) 0.4406(4) 0.1030(3)
H9 H 0.5938 0.5186 0.0927
C10 C 0.5493(3) 0.3183(4) 0.0588(2)
H10 H 0.5837 0.3166 0.0176
C11 C 0.5684(3) -0.1307(4) 0.1793(2)
H11 H 0.4991 -0.0933 0.1783
C12 C 0.6293(3) -0.2040(4) 0.2482(2)
H12 H 0.6016 -0.2148 0.2925
C13 C 0.7309(3) -0.2607(4) 0.2510(2)
H13 H 0.7736 -0.3110 0.2970
C14 C 0.7686(3) -0.2416(5) 0.1840(2)
H14 H 0.8372 -0.2798 0.1837
C15 C 0.7035(3) -0.1654(4) 0.1172(2)
H15 H 0.7307 -0.1517 0.0728
H16 H -0.063(4) 0.095(5) 0.113(3)
H17 H 0.042(3) 0.100(4) 0.159(3)
Fe2_2 Fe -0.5000 0.0000 0.0000
S1B S -0.25461(6) 0.13891(8) -0.01969(5)
O1B O -0.17566(16) 0.0516(2) -0.05004(13)
O2B O -0.20150(18) 0.1730(3) 0.06743(13)
O3B O -0.2853(2) 0.2653(2) -0.07016(15)
O4B O -0.35660(17) 0.0525(2) -0.03003(14)
O4B_2 O 0.64340(17) 0.0525(2) -0.03003(14)
O5B O 0.0005(2) -0.0497(3) -0.12479(17)
N1B N 0.0462(2) 0.2165(3) -0.02193(17)
N2B N 0.5027(2) -0.2019(3) -0.07148(16)
N3B N 0.3967(2) 0.1100(3) -0.11302(16)
C1B C -0.0143(3) 0.2903(4) -0.0882(2)
H1B H -0.0790 0.2491 -0.1236
C2B C 0.0140(3) 0.4233(4) -0.1067(2)
H2B H -0.0298 0.4703 -0.1537
C3B C 0.1089(3) 0.4851(4) -0.0536(3)
H3B H 0.1301 0.5753 -0.0640
C4B C 0.1719(3) 0.4124(4) 0.0148(3)
H4B H 0.2363 0.4526 0.0513
C5B C 0.1384(3) 0.2790(4) 0.0287(2)
H5B H 0.1816 0.2302 0.0752
C6B C 0.5540(3) -0.2098(4) -0.1303(2)
H6B H 0.5923 -0.1307 -0.1398
C7B C 0.5530(3) -0.3279(4) -0.1769(2)
H7B H 0.5893 -0.3283 -0.2170
C8B C 0.4976(4) -0.4449(5) -0.1632(3)
H8B H 0.4954 -0.5263 -0.1940
C9B C 0.4448(4) -0.4406(4) -0.1030(3)
H9B H 0.4062 -0.5186 -0.0927
C10B C 0.4507(3) -0.3183(4) -0.0588(2)
H10B H 0.4163 -0.3166 -0.0176
C11B C 0.4316(3) 0.1307(4) -0.1793(2)
H11B H 0.5009 0.0933 -0.1783
C12B C 0.3707(3) 0.2040(4) -0.2482(2)
H12B H 0.3984 0.2148 -0.2925
C13B C 0.2691(3) 0.2607(4) -0.2510(2)
H13B H 0.2264 0.3110 -0.2970
C14B C 0.2314(3) 0.2416(5) -0.1840(2)
H14B H 0.1628 0.2798 -0.1837
C15B C 0.2965(3) 0.1654(4) -0.1172(2)
H15B H 0.2693 0.1517 -0.0728
H16B H 0.063(4) -0.095(5) -0.113(3)
H17B H -0.042(3) -0.100(4) -0.159(3)
O6 O 0.2820(3) -0.0168(3) 0.22236(19)
H18 H 0.230(7) -0.041(12) 0.160(3)
H19 H 0.245(6) 0.079(5) 0.250(5)
O7 O 0.3419(3) -0.2976(4) 0.2398(2)
H20 H 0.329(6) -0.311(8) 0.188(5)
H21 H 0.330(3) -0.234(5) 0.259(3)
loop_
_geom_bond_atom_site_label_1
_geom_bond_atom_site_label_2
_geom_bond_site_symmetry_1
_geom_bond_site_symmetry_2
Fe1 O1 1_555 1_555
Fe2 O4 1_555 1_555
S1 O1 1_555 1_555
O2 S1 1_555 1_555
O3 S1 1_555 1_555
O4 S1 1_555 1_555
O5 Fe1 1_555 1_555
N1 Fe1 1_555 1_555
N2 Fe2 1_555 1_555
N3 Fe2 1_555 1_555
C1 N1 1_555 1_555
H1 C1 1_555 1_555
C2 C1 1_555 1_555
H2 C2 1_555 1_555
C3 C2 1_555 1_555
H3 C3 1_555 1_555
C4 C3 1_555 1_555
H4 C4 1_555 1_555
C5 N1 1_555 1_555
H5 C5 1_555 1_555
C6 N2 1_555 1_555
H6 C6 1_555 1_555
C7 C6 1_555 1_555
H7 C7 1_555 1_555
C8 C7 1_555 1_555
H8 C8 1_555 1_555
C9 C8 1_555 1_555
H9 C9 1_555 1_555
C10 N2 1_555 1_555
H10 C10 1_555 1_555
C11 N3 1_555 1_555
H11 C11 1_555 1_555
C12 C11 1_555 1_555
H12 C12 1_555 1_555
C13 C12 1_555 1_555
H13 C13 1_555 1_555
C14 C13 1_555 1_555
H14 C14 1_555 1_555
C15 N3 1_555 1_555
H15 C15 1_555 1_555
H16 O5 1_555 1_555
H17 O5 1_555 1_555
O6 H18 1_555 1_555
H19 O6 1_555 1_555
O7 H20 1_555 1_555
H21 O7 1_555 1_555
Fe2_2 O4B 1_555 1_555
S1B O1B 1_555 1_555
O1B Fe1 1_555 1_555
O2B S1B 1_555 1_555
O3B S1B 1_555 1_555
O4B S1B 1_555 1_555
O4B_2 Fe2 1_555 1_555
O5B Fe1 1_555 1_555
N1B Fe1 1_555 1_555
N2B Fe2 1_555 1_555
N3B Fe2 1_555 1_555
C1B N1B 1_555 1_555
H1B C1B 1_555 1_555
C2B C1B 1_555 1_555
H2B C2B 1_555 1_555
C3B C2B 1_555 1_555
H3B C3B 1_555 1_555
C4B C3B 1_555 1_555
H4B C4B 1_555 1_555
C5B N1B 1_555 1_555
H5B C5B 1_555 1_555
C6B N2B 1_555 1_555
H6B C6B 1_555 1_555
C7B C6B 1_555 1_555
H7B C7B 1_555 1_555
C8B C7B 1_555 1_555
H8B C8B 1_555 1_555
C9B C8B 1_555 1_555
H9B C9B 1_555 1_555
C10B N2B 1_555 1_555
H10B C10B 1_555 1_555
C11B N3B 1_555 1_555
H11B C11B 1_555 1_555
C12B C11B 1_555 1_555
H12B C12B 1_555 1_555
C13B C12B 1_555 1_555
H13B C13B 1_555 1_555
C14B C13B 1_555 1_555
H14B C14B 1_555 1_555
C15B N3B 1_555 1_555
H15B C15B 1_555 1_555
H16B O5B 1_555 1_555
H17B O5B 1_555 1_555
C4 C5 1_555 1_555
C9 C10 1_555 1_555
C14 C15 1_555 1_555
C4B C5B 1_555 1_555
C9B C10B 1_555 1_555
C14B C15B 1_555 1_555

#END
