
#######################################################################
#
#                 Cambridge Crystallographic Data Centre
#                                CCDC 
#
#######################################################################
#
# If this CIF has been generated from an entry in the Cambridge 
# Structural Database, then it will include bibliographic, chemical, 
# crystal, experimental, refinement or atomic coordinate data resulting 
# from the CCDC's data processing and validation procedures.
#
#######################################################################

data_TAZSAP01
_symmetry_cell_setting           triclinic
_symmetry_space_group_name_H-M   'P -1'
_symmetry_Int_Tables_number      2
_space_group_name_Hall           '-P 1'
loop_
_symmetry_equiv_pos_site_id
_symmetry_equiv_pos_as_xyz
1 x,y,z
2 -x,-y,-z
_cell_length_a                   7.8828(8)
_cell_length_b                   8.1247(8)
_cell_length_c                   14.2271(14)
_cell_angle_alpha                96.904(2)
_cell_angle_beta                 96.962(2)
_cell_angle_gamma                103.600(2)
_cell_volume                     868.596
loop_
_atom_site_label
_atom_site_type_symbol
_atom_site_fract_x
_atom_site_fract_y
_atom_site_fract_z
Pr1 Pr 0.86990(4) 0.92977(4) 0.71004(2)
Pr2 Pr 1.40905(4) 1.01112(4) 0.79682(2)
C1 C 0.3027(8) 0.8185(7) 0.3647(4)
C2 C 0.4036(8) 0.7001(7) 0.4046(4)
H1 H 0.3901 0.6011 0.3563
H2 H 0.5281 0.7588 0.4190
C3 C 0.3418(7) 0.6394(6) 0.4954(3)
H3 H 0.3603 0.5264 0.4992
H4 H 0.2163 0.6307 0.4919
C4 C 0.4406(6) 0.7614(6) 0.5845(3)
C5 C 1.1771(8) 1.4303(8) 0.7072(5)
H5 H 1.2710 1.5215 0.6941
H6 H 1.0917 1.3891 0.6491
C6 C 1.0881(8) 1.4997(7) 0.7867(4)
H7 H 0.9926 1.4091 0.7989
H8 H 1.1729 1.5389 0.8451
C7 C 1.0157(7) 1.6468(7) 0.7586(4)
C8 C 1.1320(7) 1.2737(6) 1.0231(4)
H9 H 1.0778 1.3639 1.0064
H10 H 1.0663 1.2156 1.0682
C9 C 1.3247(7) 1.3549(6) 1.0720(4)
H11 H 1.3258 1.4503 1.1204
H12 H 1.3931 1.4005 1.0245
C10 C 1.4132(7) 1.2346(7) 1.1183(4)
C11 C 1.1186(6) 1.1461(6) 0.9330(3)
C12 C 1.2534(8) 1.2844(7) 0.7360(4)
O1 O 0.9744(6) 1.1070(5) 0.8747(3)
O2 O 1.1654(5) 1.1280(5) 0.7065(3)
O3 O 0.9987(7) 0.8276(7) 0.5652(3)
O4 O 0.6029(6) 0.7761(6) 0.6029(3)
O5 O 0.8598(6) 1.6212(5) 0.7235(4)
O6 O 0.3397(5) 0.8701(5) 0.2846(3)
O7 O 0.1881(7) 0.8665(7) 0.4040(3)
O8 O 1.6579(6) 1.1855(6) 0.9215(3)
O9 O 1.2471(5) 1.0862(6) 0.9232(3)
O10 O 1.1189(5) 1.7979(5) 0.7711(3)
O11 O 0.3516(6) 0.8372(6) 0.6360(3)
O12 O 1.3954(6) 1.3185(5) 0.7901(4)
O13 O 1.3440(5) 1.1552(5) 1.1822(3)
O14 O 1.5581(5) 1.2133(5) 1.0984(3)
Pr1_2 Pr 0.86990(4) 1.92977(4) 0.71004(2)
Pr1A Pr 0.13010(4) 1.07023(4) 0.28996(2)
Pr1A_2 Pr 1.13010(4) 1.07023(4) 1.28996(2)
Pr2A Pr 0.59095(4) 0.98888(4) 0.20318(2)
Pr2_2 Pr 1.40905(4) 2.01112(4) 0.79682(2)
Pr2_3 Pr 0.40905(4) 1.01112(4) 0.79682(2)
Pr2A_2 Pr 1.59095(4) 0.98888(4) 1.20318(2)
O5_2 O 0.8598(6) 0.6212(5) 0.7235(4)
O6A O 0.6603(5) 1.1299(5) 0.7154(3)
O6A_2 O 1.6603(5) 1.1299(5) 0.7154(3)
O7A O 0.8119(7) 1.1335(7) 0.5960(3)
O10_2 O 1.1189(5) 0.7979(5) 0.7711(3)
O11_2 O 1.3516(6) 0.8372(6) 0.6360(3)
O13A O 0.6560(5) 0.8448(5) 0.8178(3)
O13A_2 O 1.6560(5) 0.8448(5) 0.8178(3)
O14A O 1.4419(5) 0.7867(5) 0.9016(3)
loop_
_geom_bond_atom_site_label_1
_geom_bond_atom_site_label_2
_geom_bond_site_symmetry_1
_geom_bond_site_symmetry_2
Pr1 O1 1_555 1_555
Pr2 O2 1_555 1_555
C1 C2 1_555 1_555
C2 H1 1_555 1_555
H2 C2 1_555 1_555
C3 C2 1_555 1_555
H3 C3 1_555 1_555
H4 C3 1_555 1_555
C4 C3 1_555 1_555
C5 H5 1_555 1_555
H6 C5 1_555 1_555
C6 C5 1_555 1_555
H7 C6 1_555 1_555
H8 C6 1_555 1_555
C7 C6 1_555 1_555
C8 H9 1_555 1_555
H10 C8 1_555 1_555
C9 C8 1_555 1_555
H11 C9 1_555 1_555
H12 C9 1_555 1_555
C10 C9 1_555 1_555
C11 C8 1_555 1_555
C12 C5 1_555 1_555
O1 C11 1_555 1_555
O2 Pr1 1_555 1_555
O3 Pr1 1_555 1_555
O4 Pr1 1_555 1_555
O5 C7 1_555 1_555
O6 C1 1_555 1_555
O7 C1 1_555 1_555
O8 Pr2 1_555 1_555
O9 Pr2 1_555 1_555
O10 C7 1_555 1_555
O11 C4 1_555 1_555
O12 Pr2 1_555 1_555
O13 C10 1_555 1_555
O14 C10 1_555 1_555
Pr1_2 O5 1_555 1_555
Pr1A O6 1_555 1_555
Pr1A_2 O13 1_555 1_555
Pr2A O6 1_555 1_555
Pr2_2 O10 1_555 1_555
Pr2_3 O11 1_555 1_555
Pr2A_2 O13 1_555 1_555
O5_2 Pr1 1_555 1_555
O6A Pr1 1_555 1_555
O6A_2 Pr2 1_555 1_555
O7A Pr1 1_555 1_555
O10_2 Pr1 1_555 1_555
O11_2 Pr2 1_555 1_555
O13A Pr1 1_555 1_555
O13A_2 Pr2 1_555 1_555
O14A Pr2 1_555 1_555
Pr2 O10_2 1_555 1_555
C4 O4 1_555 1_555
C11 O9 1_555 1_555
C12 O2 1_555 1_555
C12 O12 1_555 1_555
O7 Pr1A 1_555 1_555
O10 Pr1_2 1_555 1_555
O14 Pr2A_2 1_555 1_555
Pr2_3 O6A 1_555 1_555
Pr2_3 O13A 1_555 1_555

#END
