
#######################################################################
#
#                 Cambridge Crystallographic Data Centre
#                                CCDC 
#
#######################################################################
#
# If this CIF has been generated from an entry in the Cambridge 
# Structural Database, then it will include bibliographic, chemical, 
# crystal, experimental, refinement or atomic coordinate data resulting 
# from the CCDC's data processing and validation procedures.
#
#######################################################################

data_TAZSAP
_symmetry_cell_setting           triclinic
_symmetry_space_group_name_H-M   'P -1'
_symmetry_Int_Tables_number      2
_space_group_name_Hall           '-P 1'
loop_
_symmetry_equiv_pos_site_id
_symmetry_equiv_pos_as_xyz
1 x,y,z
2 -x,-y,-z
_cell_length_a                   7.8660(16)
_cell_length_b                   8.1100(16)
_cell_length_c                   14.210(3)
_cell_angle_alpha                96.88(3)
_cell_angle_beta                 97.01(3)
_cell_angle_gamma                103.61(3)
_cell_volume                     864.037
loop_
_atom_site_label
_atom_site_type_symbol
_atom_site_fract_x
_atom_site_fract_y
_atom_site_fract_z
Pr1 Pr 0.40906(3) 1.01112(3) 0.796832(18)
Pr2 Pr 0.86996(3) 0.92983(3) 0.710050(18)
O1 O 0.6565(5) 0.8458(5) 0.8180(2)
O2 O 0.4425(5) 0.7867(5) 0.9014(3)
C1 C 0.5883(6) 0.7670(6) 0.8815(3)
C2 C 0.6769(7) 0.6453(6) 0.9277(4)
H1 H 0.6761 0.5503 0.8790
H2 H 0.6081 0.5989 0.9750
C3 C 0.8675(6) 0.7263(6) 0.9764(3)
H3 H 0.9224 0.6360 0.9928
H4 H 0.9332 0.7855 0.9316
C4 C 0.8801(6) 0.8528(6) 1.0670(3)
O3 O 0.7522(5) 0.9141(5) 1.0770(3)
O4 O 1.0235(5) 0.8899(5) 1.1256(3)
O5 O 0.3955(5) 1.3183(5) 0.7904(3)
O6 O 0.1654(4) 1.1291(4) 0.7066(3)
C5 C 0.2531(7) 1.2865(7) 0.7372(4)
C6 C 0.1785(8) 1.4300(7) 0.7071(4)
H5 H 0.0934 1.3880 0.6488
H6 H 0.2730 1.5211 0.6940
C7 C 0.0878(7) 1.5008(6) 0.7869(4)
H7 H -0.0081 1.4101 0.7991
H8 H 0.1725 1.5404 0.8456
C8 C 0.0161(7) 1.6467(6) 0.7585(4)
O7 O 0.1193(5) 1.7974(4) 0.7714(3)
O8 O -0.1404(5) 1.6214(5) 0.7238(4)
O9 O 0.3536(5) 0.8369(6) 0.6366(3)
O10 O 0.6023(5) 0.7760(5) 0.6029(3)
C9 C 0.4411(6) 0.7604(6) 0.5846(3)
C10 C 0.3423(6) 0.6393(5) 0.4950(3)
H9 H 0.2165 0.6306 0.4916
H10 H 0.3606 0.5259 0.4986
C11 C 0.4038(7) 0.7001(6) 0.4042(3)
H11 H 0.5289 0.7579 0.4187
H12 H 0.3897 0.6007 0.3559
C12 C 0.3048(7) 0.8199(7) 0.3635(4)
O11 O 0.1887(5) 0.8670(6) 0.4038(3)
O12 O 0.3389(5) 0.8697(4) 0.2850(2)
O13 O 0.9981(6) 0.8279(6) 0.5661(3)
O14 O 0.6574(5) 1.1870(5) 0.9213(3)
H13 H 0.9727 0.8580 0.5296
H14 H 1.0997 0.8301 0.5861
H15 H 0.7431 1.1700 0.9076
H16 H 0.6311 1.2146 0.9737
Pr1A Pr 0.59094(3) 0.98888(3) 1.203168(18)
Pr1_2 Pr 0.40906(3) 2.01112(3) 0.796832(18)
Pr1A_2 Pr 0.59094(3) 0.98888(3) 0.203168(18)
Pr2A Pr 1.13004(3) 1.07017(3) 1.289950(18)
Pr2_2 Pr -0.13004(3) 0.92983(3) 0.710050(18)
Pr2_3 Pr -0.13004(3) 1.92983(3) 0.710050(18)
Pr2A_2 Pr 0.13004(3) 1.07017(3) 0.289950(18)
O3A O 0.2478(5) 1.0859(5) 0.9230(3)
O4A O 0.9765(5) 1.1101(5) 0.8744(3)
O6_2 O 1.1654(4) 1.1291(4) 0.7066(3)
O7_2 O 0.1193(5) 0.7974(4) 0.7714(3)
O7_3 O 1.1193(5) 0.7974(4) 0.7714(3)
O8_2 O 0.8596(5) 0.6214(5) 0.7238(4)
O11A O 0.8113(5) 1.1330(6) 0.5962(3)
O12A O 0.6611(5) 1.1303(4) 0.7150(2)
loop_
_geom_bond_atom_site_label_1
_geom_bond_atom_site_label_2
_geom_bond_site_symmetry_1
_geom_bond_site_symmetry_2
Pr1 O1 1_555 1_555
Pr2 O1 1_555 1_555
O1 C1 1_555 1_555
O2 Pr1 1_555 1_555
C1 O2 1_555 1_555
C2 C1 1_555 1_555
H1 C2 1_555 1_555
H2 C2 1_555 1_555
C3 C2 1_555 1_555
H3 C3 1_555 1_555
H4 C3 1_555 1_555
C4 C3 1_555 1_555
O3 C4 1_555 1_555
O4 C4 1_555 1_555
O5 Pr1 1_555 1_555
O6 Pr1 1_555 1_555
C5 O5 1_555 1_555
C6 C5 1_555 1_555
H5 C6 1_555 1_555
H6 C6 1_555 1_555
C7 C6 1_555 1_555
H7 C7 1_555 1_555
H8 C7 1_555 1_555
C8 C7 1_555 1_555
O7 C8 1_555 1_555
O8 C8 1_555 1_555
O9 Pr1 1_555 1_555
O10 Pr2 1_555 1_555
C9 O9 1_555 1_555
C10 C9 1_555 1_555
H9 C10 1_555 1_555
H10 C10 1_555 1_555
C11 C10 1_555 1_555
H11 C11 1_555 1_555
H12 C11 1_555 1_555
C12 C11 1_555 1_555
O11 C12 1_555 1_555
O12 C12 1_555 1_555
O13 Pr2 1_555 1_555
O14 Pr1 1_555 1_555
H13 O13 1_555 1_555
H14 O13 1_555 1_555
H15 O14 1_555 1_555
H16 O14 1_555 1_555
Pr1A O3 1_555 1_555
Pr1_2 O7 1_555 1_555
Pr1A_2 O12 1_555 1_555
Pr2A O4 1_555 1_555
Pr2_2 O6 1_555 1_555
Pr2_3 O7 1_555 1_555
Pr2A_2 O11 1_555 1_555
O3A Pr1 1_555 1_555
O4A Pr2 1_555 1_555
O6_2 Pr2 1_555 1_555
O7_2 Pr1 1_555 1_555
O7_3 Pr2 1_555 1_555
O8_2 Pr2 1_555 1_555
O11A Pr2 1_555 1_555
O12A Pr1 1_555 1_555
Pr2 O12A 1_555 1_555
O6 C5 1_555 1_555
O8 Pr2_3 1_555 1_555
O10 C9 1_555 1_555
O12 Pr2A_2 1_555 1_555
Pr2_2 O7_2 1_555 1_555

#END
