
#######################################################################
#
#                 Cambridge Crystallographic Data Centre
#                                CCDC 
#
#######################################################################
#
# If this CIF has been generated from an entry in the Cambridge 
# Structural Database, then it will include bibliographic, chemical, 
# crystal, experimental, refinement or atomic coordinate data resulting 
# from the CCDC's data processing and validation procedures.
#
#######################################################################

data_TAZSAP02
_symmetry_cell_setting           triclinic
_symmetry_space_group_name_H-M   'P -1'
_symmetry_Int_Tables_number      2
_space_group_name_Hall           '-P 1'
loop_
_symmetry_equiv_pos_site_id
_symmetry_equiv_pos_as_xyz
1 x,y,z
2 -x,-y,-z
_cell_length_a                   7.877(10)
_cell_length_b                   12.06(3)
_cell_length_c                   12.275(13)
_cell_angle_alpha                112.12(4)
_cell_angle_beta                 89.98(3)
_cell_angle_gamma                99.95(5)
_cell_volume                     1061.33
loop_
_atom_site_label
_atom_site_type_symbol
_atom_site_fract_x
_atom_site_fract_y
_atom_site_fract_z
Pr1 Pr 0.99088(14) 0.14557(11) 0.85426(10)
Pr2 Pr 0.49083(15) 0.14516(11) 0.75199(10)
C1 C 0.638(3) 0.138(2) 1.0214(19)
C2 C 0.615(3) 0.167(2) 1.148(2)
H1 H 0.5334 0.1014 1.1558
H2 H 0.5655 0.2403 1.1787
C3 C 0.782(3) 0.1873(19) 1.2221(18)
H3 H 0.8673 0.2475 1.2075
H4 H 0.7588 0.2212 1.3047
C4 C 0.857(3) 0.078(3) 1.201(2)
C5 C 0.645(3) -0.070(2) 0.648(2)
C6 C 0.715(3) -0.189(2) 0.585(2)
H5 H 0.6277 -0.2471 0.5261
H6 H 0.7349 -0.2239 0.6426
C7 C 0.245(4) 0.473(2) 0.866(2)
H7 H 0.1208 0.4502 0.8492
H8 H 0.2891 0.5239 0.8231
C8 C 0.320(3) 0.363(2) 0.823(2)
C9 C 0.863(2) -0.145(2) 0.4210(19)
C10 C 0.898(4) -0.169(2) 0.5211(19)
H9 H 0.9792 -0.1007 0.5760
H10 H 0.9487 -0.2409 0.4986
C11 C 0.285(3) 0.544(2) 0.996(2)
C12 C 0.183(3) 0.641(2) 1.045(2)
O1 O 0.2269(19) 0.7217(14) 1.1541(12)
O2 O 0.052(2) 0.6472(15) 0.9951(15)
O3 O 0.762(2) -0.0178(14) 1.2087(15)
O4 O 1.010(2) 0.0736(15) 1.1784(15)
O5 O 0.453(2) 0.3583(15) 0.7552(16)
O6 O 0.2735(19) 0.2777(13) 0.8553(13)
O7 O 0.511(2) 0.1488(15) 0.9643(15)
O8 O 0.7714(19) 0.1024(15) 0.9800(14)
O9 O 0.9897(18) -0.1551(13) 0.3490(13)
O10 O 0.724(2) -0.1095(16) 0.3998(14)
O11 O 0.7360(19) 0.0173(13) 0.7211(12)
O12 O 0.490(2) -0.0725(15) 0.6199(15)
O13 O 0.6789(19) 0.1744(16) 0.5962(13)
H11 H 0.6368 0.1233 0.5144
H12 H 0.7946 0.1590 0.6007
O14 O 1.1698(18) 0.1765(15) 1.0324(13)
H13 H 1.1874 0.1025 1.0359
H14 H 1.1219 0.2167 1.1040
Pr1_2 Pr -0.00912(14) 0.14557(11) 0.85426(10)
Pr1A Pr 0.00912(14) 0.85443(11) 1.14574(10)
Pr1A_2 Pr 1.00912(14) -0.14557(11) 0.14574(10)
Pr1A_3 Pr 1.00912(14) -0.14557(11) 1.14574(10)
Pr2A Pr 0.50917(15) -0.14516(11) 0.24801(10)
Pr2A_2 Pr 0.50917(15) -0.14516(11) 1.24801(10)
Pr2A_3 Pr 0.50917(15) 0.85484(11) 1.24801(10)
O1A O 0.7731(19) 0.2783(14) 0.8459(12)
O2A O 0.948(2) 0.3528(15) 1.0049(15)
O3A O 0.238(2) 0.0178(14) 0.7913(15)
O3A_2 O 1.238(2) 0.0178(14) 0.7913(15)
O4A O 0.990(2) -0.0736(15) 0.8216(15)
O6_2 O 1.2735(19) 0.2777(13) 0.8553(13)
O9A O 1.0103(18) 0.1551(13) 0.6510(13)
O10A O 0.276(2) 0.1095(16) 0.6002(14)
loop_
_geom_bond_atom_site_label_1
_geom_bond_atom_site_label_2
_geom_bond_site_symmetry_1
_geom_bond_site_symmetry_2
Pr1 O8 1_555 1_555
Pr2 O5 1_555 1_555
C1 C2 1_555 1_555
C2 H1 1_555 1_555
H2 C2 1_555 1_555
C3 C2 1_555 1_555
H3 C3 1_555 1_555
H4 C3 1_555 1_555
C4 C3 1_555 1_555
C5 C6 1_555 1_555
C6 H5 1_555 1_555
H6 C6 1_555 1_555
C7 H7 1_555 1_555
H8 C7 1_555 1_555
C8 C7 1_555 1_555
C9 C10 1_555 1_555
C10 C6 1_555 1_555
H9 C10 1_555 1_555
H10 C10 1_555 1_555
C11 C7 1_555 1_555
C12 C11 1_555 1_555
O1 C12 1_555 1_555
O2 C12 1_555 1_555
O3 C4 1_555 1_555
O4 C4 1_555 1_555
O5 C8 1_555 1_555
O6 Pr2 1_555 1_555
O7 Pr2 1_555 1_555
O8 C1 1_555 1_555
O9 C9 1_555 1_555
O10 C9 1_555 1_555
O11 Pr1 1_555 1_555
O12 Pr2 1_555 1_555
O13 Pr2 1_555 1_555
H11 O13 1_555 1_555
H12 O13 1_555 1_555
O14 Pr1 1_555 1_555
H13 O14 1_555 1_555
H14 O14 1_555 1_555
Pr1_2 O6 1_555 1_555
Pr1A O1 1_555 1_555
Pr1A_2 O9 1_555 1_555
Pr1A_3 O3 1_555 1_555
Pr2A O10 1_555 1_555
Pr2A_2 O3 1_555 1_555
Pr2A_3 O1 1_555 1_555
O1A Pr1 1_555 1_555
O2A Pr1 1_555 1_555
O3A Pr2 1_555 1_555
O3A_2 Pr1 1_555 1_555
O4A Pr1 1_555 1_555
O6_2 Pr1 1_555 1_555
O9A Pr1 1_555 1_555
O10A Pr2 1_555 1_555
Pr2 O11 1_555 1_555
Pr2 O1A 1_555 1_555
C1 O7 1_555 1_555
C5 O11 1_555 1_555
C5 O12 1_555 1_555
C8 O6 1_555 1_555
O2 Pr1A 1_555 1_555
O4 Pr1A_3 1_555 1_555
Pr1_2 O3A 1_555 1_555

#END
