
#######################################################################
#
#                 Cambridge Crystallographic Data Centre
#                                CCDC 
#
#######################################################################
#
# If this CIF has been generated from an entry in the Cambridge 
# Structural Database, then it will include bibliographic, chemical, 
# crystal, experimental, refinement or atomic coordinate data resulting 
# from the CCDC's data processing and validation procedures.
#
#######################################################################

data_TAZXAV
_symmetry_cell_setting           triclinic
_symmetry_space_group_name_H-M   'P -1'
_symmetry_Int_Tables_number      2
_space_group_name_Hall           '-P 1'
loop_
_symmetry_equiv_pos_site_id
_symmetry_equiv_pos_as_xyz
1 x,y,z
2 -x,-y,-z
_cell_length_a                   8.3901(6)
_cell_length_b                   9.3943(6)
_cell_length_c                   11.4284(11)
_cell_angle_alpha                108.329(8)
_cell_angle_beta                 99.316(7)
_cell_angle_gamma                112.138(7)
_cell_volume                     750.692
loop_
_atom_site_label
_atom_site_type_symbol
_atom_site_fract_x
_atom_site_fract_y
_atom_site_fract_z
Cu1 Cu 0.46305(6) 0.59232(5) 0.23890(5)
O1 O 0.4760(3) 0.8149(3) 0.2854(2)
O2 O 0.4325(3) 1.3633(3) 0.1664(2)
O3 O 0.5690(3) 1.3701(3) 0.3531(3)
O4 O 0.3414(3) 0.7448(3) 0.0765(3)
N1 N 0.6910(3) 0.6725(3) 0.1954(3)
N2 N 0.7375(4) 0.5753(3) 0.1079(3)
H1 H 0.6720 0.4686 0.0634
N3 N 0.2279(4) 0.5103(3) 0.2730(3)
N4 N 0.1687(4) 0.6132(4) 0.3400(3)
H2 H 0.2260 0.7214 0.3711
C1 C 0.4627(4) 1.0307(4) 0.2338(4)
H3 H 0.5343 1.1002 0.3200
C2 C 0.9596(5) 0.8268(5) 0.1826(4)
H4 H 1.0682 0.9187 0.1981
C3 C -0.0375(5) 0.3614(5) 0.2917(4)
H5 H -0.1415 0.2705 0.2840
C4 C 0.8974(5) 0.6648(5) 0.0985(4)
H6 H 0.9557 0.6236 0.0441
C5 C 0.8279(5) 0.8266(4) 0.2404(4)
H7 H 0.8338 0.9218 0.3028
C6 C 0.4792(5) 1.2956(4) 0.2366(4)
C7 C 0.2956(5) 1.0222(4) 0.0260(3)
H8 H 0.2805 1.1052 -0.0002
H9 H 0.1791 0.9380 0.0163
H10 H 0.3525 0.9702 -0.0274
C8 C 0.4124(4) 1.1054(4) 0.1654(3)
C9 C 0.0098(5) 0.5274(5) 0.3527(4)
H11 H -0.0563 0.5730 0.3954
C10 C 0.4197(5) 0.8494(4) 0.1911(4)
C11 C 0.1007(5) 0.3559(4) 0.2436(4)
H12 H 0.1047 0.2573 0.1967
O5 O 0.6385(4) 0.6979(3) 0.4761(3)
H13 H 0.657(6) 0.612(4) 0.459(4)
H14 H 0.579(6) 0.701(5) 0.530(4)
Cu1_2 Cu 0.46305(6) 1.59232(5) 0.23890(5)
O2_2 O 0.4325(3) 0.3633(3) 0.1664(2)
O6 O 0.7378(4) 1.0500(3) 0.5215(3)
H15 H 0.781(6) 0.992(5) 0.543(4)
H16 H 0.646(4) 0.991(5) 0.454(3)
loop_
_geom_bond_atom_site_label_1
_geom_bond_atom_site_label_2
_geom_bond_site_symmetry_1
_geom_bond_site_symmetry_2
Cu1 O1 1_555 1_555
O1 C10 1_555 1_555
O2 C6 1_555 1_555
O3 C6 1_555 1_555
O4 C10 1_555 1_555
N1 Cu1 1_555 1_555
N2 N1 1_555 1_555
H1 N2 1_555 1_555
N3 Cu1 1_555 1_555
N4 N3 1_555 1_555
H2 N4 1_555 1_555
C1 H3 1_555 1_555
C2 H4 1_555 1_555
C3 H5 1_555 1_555
C4 N2 1_555 1_555
H6 C4 1_555 1_555
C5 N1 1_555 1_555
H7 C5 1_555 1_555
C6 C8 1_555 1_555
C7 H8 1_555 1_555
H9 C7 1_555 1_555
H10 C7 1_555 1_555
C8 C1 1_555 1_555
C9 N4 1_555 1_555
H11 C9 1_555 1_555
C10 C1 1_555 1_555
C11 N3 1_555 1_555
H12 C11 1_555 1_555
O5 Cu1 1_555 1_555
H13 O5 1_555 1_555
H14 O5 1_555 1_555
O6 H15 1_555 1_555
H16 O6 1_555 1_555
Cu1_2 O2 1_555 1_555
O2_2 Cu1 1_555 1_555
C2 C4 1_555 1_555
C2 C5 1_555 1_555
C3 C9 1_555 1_555
C3 C11 1_555 1_555
C7 C8 1_555 1_555

#END
