
#######################################################################
#
#                 Cambridge Crystallographic Data Centre
#                                CCDC 
#
#######################################################################
#
# If this CIF has been generated from an entry in the Cambridge 
# Structural Database, then it will include bibliographic, chemical, 
# crystal, experimental, refinement or atomic coordinate data resulting 
# from the CCDC's data processing and validation procedures.
#
#######################################################################

data_TAZXUP
_symmetry_cell_setting           triclinic
_symmetry_space_group_name_H-M   'P -1'
_symmetry_Int_Tables_number      2
_space_group_name_Hall           '-P 1'
loop_
_symmetry_equiv_pos_site_id
_symmetry_equiv_pos_as_xyz
1 x,y,z
2 -x,-y,-z
_cell_length_a                   15.8780(5)
_cell_length_b                   16.2187(5)
_cell_length_c                   16.4858(5)
_cell_angle_alpha                91.042(1)
_cell_angle_beta                 94.519(1)
_cell_angle_gamma                101.436(1)
_cell_volume                     4145.73
loop_
_atom_site_label
_atom_site_type_symbol
_atom_site_fract_x
_atom_site_fract_y
_atom_site_fract_z
Co1 Co 0.736385(16) 0.518022(16) 0.395072(16)
Co2 Co 0.248560(17) 1.025440(16) 0.363090(16)
O1 O 0.74544(9) 0.55033(9) 0.27196(8)
H1 H 0.7610 0.5165 0.2389
H2 H 0.7758 0.5996 0.2698
O2 O 0.79464(9) 0.63874(8) 0.44068(8)
H3 H 0.8050 0.6444 0.4921
H4 H 0.7854 0.6842 0.4204
O3 O 0.72443(9) 0.47926(9) 0.51532(8)
H5 H 0.7334 0.5115 0.5577
H6 H 0.7203 0.4281 0.5279
O4 O 0.67925(9) 0.39509(8) 0.36012(8)
H7 H 0.6789 0.3777 0.3111
H8 H 0.6764 0.3546 0.3924
O5 O 0.29261(9) 1.15147(8) 0.40149(9)
H9 H 0.2805 1.1928 0.3752
H10 H 0.3078 1.1657 0.4512
O6 O 0.23813(9) 1.05247(9) 0.24086(8)
H11 H 0.2559 1.1018 0.2246
H12 H 0.2476 1.0157 0.2073
O7 O 0.20640(9) 0.89834(8) 0.32719(9)
H13 H 0.1857 0.8747 0.2815
H14 H 0.2155 0.8620 0.3616
O8 O 0.26102(10) 0.98458(9) 0.48153(9)
H15 H 0.2587 1.0094 0.5269
H16 H 0.2576 0.9321 0.4873
N1 N 0.60961(11) 0.54767(10) 0.38211(10)
N2 N 0.49759(11) 0.77822(10) 0.32081(10)
H51 H 0.5472 0.7895 0.3531
H52 H 0.4535 0.7707 0.3529
N3 N 0.38191(11) 1.01071(10) 0.35810(10)
N4 N 0.86286(11) 0.48657(10) 0.39504(10)
N5 N 0.98673(11) 0.25049(10) 0.43634(10)
H53 H 1.0337 0.2660 0.4087
H54 H 0.9407 0.2350 0.3999
N6 N 1.11519(11) 0.03438(10) 0.37883(10)
C1 C 0.50902(13) 0.62654(13) 0.32188(12)
C2 C 0.59232(13) 0.61290(12) 0.33945(12)
H59 H 0.6381 0.6507 0.3207
C3 C 0.54275(13) 0.49286(13) 0.40771(12)
H60 H 0.5539 0.4472 0.4371
C4 C 0.45818(13) 0.50129(13) 0.39230(13)
H61 H 0.4135 0.4618 0.4106
C5 C 0.44108(13) 0.56929(13) 0.34929(13)
H62 H 0.3847 0.5766 0.3388
C6 C 0.49382(14) 0.69909(13) 0.27061(13)
H63 H 0.5370 0.7097 0.2316
H64 H 0.4377 0.6838 0.2404
C7 C 0.49244(14) 0.85166(13) 0.26689(13)
H65 H 0.5448 0.8657 0.2391
H66 H 0.4443 0.8359 0.2260
C8 C 0.48111(13) 0.92741(12) 0.31579(12)
C9 C 0.39985(13) 0.94644(13) 0.31481(12)
H67 H 0.3552 0.9128 0.2823
C10 C 0.44770(14) 1.05944(13) 0.40390(13)
H68 H 0.4364 1.1040 0.4347
C11 C 0.53115(14) 1.04617(14) 0.40714(14)
H69 H 0.5751 1.0817 0.4388
C12 C 0.54839(14) 0.97908(14) 0.36255(14)
H70 H 0.6041 0.9688 0.3639
C13 C 0.96090(13) 0.39747(12) 0.43850(12)
C14 C 0.88068(13) 0.41945(12) 0.43391(12)
H71 H 0.8367 0.3857 0.4593
C15 C 0.92684(13) 0.53380(13) 0.35737(13)
H72 H 0.9156 0.5804 0.3297
C16 C 1.00823(14) 0.51617(13) 0.35803(13)
H73 H 1.0506 0.5500 0.3308
C17 C 1.02636(13) 0.44754(13) 0.39965(13)
H74 H 1.0812 0.4351 0.4016
C18 C 0.97459(14) 0.32337(13) 0.48790(13)
H75 H 1.0250 0.3406 0.5261
H76 H 0.9252 0.3056 0.5191
C19 C 0.99736(13) 0.17737(12) 0.48788(12)
H77 H 0.9459 0.1598 0.5163
H78 H 1.0456 0.1950 0.5284
C20 C 1.01279(13) 0.10391(12) 0.43791(12)
C21 C 1.09602(13) 0.09940(12) 0.42044(12)
H79 H 1.1408 0.1436 0.4385
C22 C 1.04916(13) -0.02901(13) 0.35350(12)
H80 H 1.0610 -0.0746 0.3246
C23 C 0.96471(13) -0.02943(13) 0.36847(13)
H81 H 0.9209 -0.0743 0.3500
C24 C 0.94628(13) 0.03806(13) 0.41141(13)
H82 H 0.8899 0.0391 0.4223
Co2_2 Co 1.248560(17) 0.025440(16) 0.363090(16)
N6_2 N 0.11519(11) 1.03438(10) 0.37883(10)
Co3 Co 0.751829(17) 1.026862(16) 0.145829(16)
Co4 Co 0.247240(17) 1.523310(16) 0.103680(16)
O9 O 0.70881(9) 0.90299(9) 0.16845(9)
H17 H 0.7075 0.8848 0.2165
H18 H 0.7108 0.8637 0.1342
O10 O 0.77714(9) 1.05601(9) 0.27163(8)
H19 H 0.7738 1.0171 0.3058
H20 H 0.7890 1.1042 0.2957
O11 O 0.79483(9) 1.14804(9) 0.11446(9)
H21 H 0.7989 1.1904 0.1467
H22 H 0.7986 1.1632 0.0656
O12 O 0.72291(9) 0.98411(9) 0.01885(8)
H23 H 0.7322 1.0112 -0.0243
H24 H 0.7169 0.9315 0.0093
O13 O 0.30107(9) 1.64822(9) 0.08012(9)
H25 H 0.2964 1.6912 0.1084
H26 H 0.3032 1.6595 0.0301
O14 O 0.25310(10) 1.49397(9) -0.01809(9)
H27 H 0.2383 1.5164 -0.0618
H28 H 0.2662 1.4467 -0.0283
O15 O 0.19184(9) 1.39814(8) 0.11992(9)
H29 H 0.1999 1.3570 0.0909
H30 H 0.1752 1.3818 0.1658
O16 O 0.24704(9) 1.55014(9) 0.22864(8)
H31 H 0.2188 1.5867 0.2425
H32 H 0.2412 1.5095 0.2610
N7 N 0.37584(11) 1.49794(10) 0.12589(10)
N8 N 0.50421(11) 1.27474(10) 0.20112(10)
H55 H 0.4676 1.2613 0.1562
H56 H 0.5575 1.2922 0.1851
N9 N 0.62203(11) 1.04823(10) 0.15137(10)
N10 N 0.88334(11) 1.01025(10) 0.13856(10)
N11 N 1.00151(11) 0.78992(10) 0.06558(11)
H57 H 0.9529 0.7756 0.0911
H58 H 1.0466 0.7963 0.1034
N12 N 1.11913(11) 0.55336(10) 0.09123(10)
C25 C 0.47097(13) 1.41738(12) 0.19328(12)
C26 C 0.39042(13) 1.43567(12) 0.17406(12)
H83 H 0.3434 1.4027 0.1960
C27 C 0.44460(14) 1.54486(13) 0.09446(13)
H84 H 0.4358 1.5877 0.0600
C28 C 0.52751(14) 1.53221(14) 0.11104(14)
H85 H 0.5735 1.5664 0.0888
C29 C 0.54127(14) 1.46760(13) 0.16149(14)
H86 H 0.5967 1.4581 0.1738
C30 C 0.47922(13) 1.34540(12) 0.24770(13)
H87 H 0.5225 1.3649 0.2924
H88 H 0.4247 1.3251 0.2705
C31 C 0.50275(13) 1.19810(12) 0.25039(13)
H89 H 0.4467 1.1816 0.2715
H90 H 0.5459 1.2108 0.2963
C32 C 0.52069(13) 1.12647(12) 0.19910(12)
C33 C 0.60358(13) 1.11148(12) 0.19589(12)
H91 H 0.6486 1.1471 0.2262
C34 C 0.55594(13) 0.99720(13) 0.10819(12)
H92 H 0.5676 0.9528 0.0774
C35 C 0.47192(13) 1.00746(13) 0.10739(13)
H93 H 0.4280 0.9709 0.0766
C36 C 0.45378(13) 1.07334(13) 0.15335(13)
H94 H 0.3975 1.0818 0.1535
C37 C 0.98629(13) 0.93920(13) 0.08217(13)
C38 C 0.90258(13) 0.94991(12) 0.09105(13)
H95 H 0.8574 0.9130 0.0623
C39 C 0.94936(13) 1.06366(13) 0.17985(12)
H96 H 0.9373 1.1062 0.2129
C40 C 1.03424(14) 1.05744(14) 0.17478(13)
H97 H 1.0783 1.0953 0.2040
C41 C 1.05331(14) 0.99436(14) 0.12589(13)
H98 H 1.1102 0.9890 0.1224
C42 C 1.00167(14) 0.87186(13) 0.02450(13)
H99 H 0.9571 0.8633 -0.0203
H100 H 1.0568 0.8904 0.0022
C43 C 1.00692(13) 0.72032(13) 0.00564(13)
H101 H 0.9539 0.7068 -0.0297
H102 H 1.0541 0.7390 -0.0280
C44 C 1.02113(13) 0.64322(13) 0.04963(13)
C45 C 1.10074(13) 0.61953(12) 0.05064(12)
H103 H 1.1433 0.6510 0.0218
C46 C 1.05624(13) 0.50828(13) 0.13171(13)
H104 H 1.0682 0.4627 0.1607
C47 C 0.97504(14) 0.52612(14) 0.13247(15)
H105 H 0.9330 0.4925 0.1602
C48 C 0.95714(13) 0.59503(14) 0.09108(14)
H106 H 0.9030 0.6088 0.0911
Co4_2 Co 1.247240(17) 0.523310(16) 0.103680(16)
N12_2 N 0.11913(11) 1.55336(10) 0.09123(10)
S1 S 0.25084(3) 0.65780(3) 0.83756(3)
O17 O 0.21813(9) 0.56603(9) 0.83781(9)
O18 O 0.28057(10) 0.69091(9) 0.92050(9)
O19 O 0.18358(10) 0.70069(10) 0.80298(10)
O20 O 0.32436(10) 0.67428(10) 0.78618(9)
S2 S 0.27749(3) 0.16267(3) 0.62151(3)
O21 O 0.20387(9) 0.20337(9) 0.60359(10)
O22 O 0.31799(10) 0.18967(9) 0.70381(9)
O23 O 0.24745(9) 0.07002(8) 0.61784(8)
O24 O 0.34345(9) 0.18656(9) 0.56299(9)
S3 S 0.77234(3) 0.15589(3) 0.87618(3)
O25 O 0.70211(11) 0.19857(10) 0.84827(10)
O26 O 0.80582(9) 0.18425(9) 0.95933(8)
O27 O 0.73962(9) 0.06376(9) 0.87279(9)
O28 O 0.84397(10) 0.17651(10) 0.82249(9)
S4 S 0.30323(4) 0.75467(3) 0.46936(3)
O29 O 0.38670(13) 0.78427(13) 0.43899(13)
O30 O 0.24724(14) 0.81693(11) 0.45748(11)
O31 O 0.31443(11) 0.74276(10) 0.55825(9)
O32 O 0.25792(11) 0.67461(9) 0.42828(10)
S5 S 0.79550(3) 0.66044(3) 0.66971(3)
O33 O 0.72825(10) 0.70925(9) 0.68073(9)
O34 O 0.85659(10) 0.67059(10) 0.74296(9)
O35 O 0.75536(10) 0.57051(9) 0.65669(9)
O36 O 0.84232(9) 0.69019(9) 0.59823(8)
S6 S 0.76174(3) 0.74031(3) 0.03447(3)
O37 O 0.70901(9) 0.80621(9) 0.03835(9)
O38 O 0.70708(10) 0.65749(9) 0.04049(10)
O39 O 0.83107(9) 0.75614(9) 0.10208(9)
O40 O 0.80260(10) 0.74735(9) -0.04331(9)
O41 O 0.02826(10) 0.74306(10) 0.73902(10)
H33 H -0.0236 0.7199 0.7452
H34 H 0.0632 0.7162 0.7632
O42 O 0.18945(9) 0.78770(9) 0.65016(9)
H35 H 0.2288 0.7787 0.6211
H36 H 0.1875 0.7578 0.6921
O43 O 0.01561(14) 0.75297(14) 0.32088(14)
H37 H 0.0510 0.7202 0.3179
H38 H -0.0018 0.7660 0.2736
O44 O 0.16549(11) 0.67499(9) 0.27797(9)
H39 H 0.1947 0.6840 0.3239
H40 H 0.1800 0.7156 0.2467
O45 O 0.40650(10) 0.82185(10) 0.00755(10)
H41 H 0.3869 0.8205 0.0541
H42 H 0.3704 0.7919 -0.0273
O46 O 0.83739(11) 0.70832(9) 0.25658(9)
H43 H 0.8259 0.7238 0.2087
H44 H 0.8164 0.7359 0.2915
O47 O 0.29326(10) 0.20456(9) 0.17937(9)
H45 H 0.2824 0.2366 0.2169
H46 H 0.2656 0.2113 0.1345
O48 O 0.48271(16) 0.29108(15) 0.45539(15)
H47 H 0.4366 0.2751 0.4787
H48 H 0.5244 0.2730 0.4796
O49 O 0.45975(11) 0.25563(13) 0.03710(10)
H49 H 0.4971 0.2319 0.0175
H50 H 0.4102 0.2380 0.0124
loop_
_geom_bond_atom_site_label_1
_geom_bond_atom_site_label_2
_geom_bond_site_symmetry_1
_geom_bond_site_symmetry_2
Co1 O1 1_555 1_555
Co2 O5 1_555 1_555
Co3 O9 1_555 1_555
Co4 O13 1_555 1_555
S1 O17 1_555 1_555
S2 O21 1_555 1_555
S3 O25 1_555 1_555
S4 O29 1_555 1_555
S5 O33 1_555 1_555
S6 O37 1_555 1_555
O1 H1 1_555 1_555
H2 O1 1_555 1_555
O2 Co1 1_555 1_555
H3 O2 1_555 1_555
H4 O2 1_555 1_555
O3 Co1 1_555 1_555
H5 O3 1_555 1_555
H6 O3 1_555 1_555
O4 Co1 1_555 1_555
H7 O4 1_555 1_555
H8 O4 1_555 1_555
O5 H9 1_555 1_555
H10 O5 1_555 1_555
O6 Co2 1_555 1_555
H11 O6 1_555 1_555
H12 O6 1_555 1_555
O7 Co2 1_555 1_555
H13 O7 1_555 1_555
H14 O7 1_555 1_555
O8 Co2 1_555 1_555
H15 O8 1_555 1_555
H16 O8 1_555 1_555
O9 H17 1_555 1_555
H18 O9 1_555 1_555
O10 Co3 1_555 1_555
H19 O10 1_555 1_555
H20 O10 1_555 1_555
O11 Co3 1_555 1_555
H21 O11 1_555 1_555
H22 O11 1_555 1_555
O12 Co3 1_555 1_555
H23 O12 1_555 1_555
H24 O12 1_555 1_555
O13 H25 1_555 1_555
H26 O13 1_555 1_555
O14 Co4 1_555 1_555
H27 O14 1_555 1_555
H28 O14 1_555 1_555
O15 Co4 1_555 1_555
H29 O15 1_555 1_555
H30 O15 1_555 1_555
O16 Co4 1_555 1_555
H31 O16 1_555 1_555
H32 O16 1_555 1_555
O18 S1 1_555 1_555
O19 S1 1_555 1_555
O20 S1 1_555 1_555
O22 S2 1_555 1_555
O23 S2 1_555 1_555
O24 S2 1_555 1_555
O26 S3 1_555 1_555
O27 S3 1_555 1_555
O28 S3 1_555 1_555
O30 S4 1_555 1_555
O31 S4 1_555 1_555
O32 S4 1_555 1_555
O34 S5 1_555 1_555
O35 S5 1_555 1_555
O36 S5 1_555 1_555
O38 S6 1_555 1_555
O39 S6 1_555 1_555
O40 S6 1_555 1_555
O41 H33 1_555 1_555
H34 O41 1_555 1_555
O42 H35 1_555 1_555
H36 O42 1_555 1_555
O43 H37 1_555 1_555
H38 O43 1_555 1_555
O44 H39 1_555 1_555
H40 O44 1_555 1_555
O45 H41 1_555 1_555
H42 O45 1_555 1_555
O46 H43 1_555 1_555
H44 O46 1_555 1_555
O47 H45 1_555 1_555
H46 O47 1_555 1_555
O48 H47 1_555 1_555
H48 O48 1_555 1_555
O49 H49 1_555 1_555
H50 O49 1_555 1_555
N1 Co1 1_555 1_555
N2 H51 1_555 1_555
H52 N2 1_555 1_555
N3 Co2 1_555 1_555
N4 Co1 1_555 1_555
N5 H53 1_555 1_555
H54 N5 1_555 1_555
N6 C21 1_555 1_555
N7 Co4 1_555 1_555
N8 H55 1_555 1_555
H56 N8 1_555 1_555
N9 Co3 1_555 1_555
N10 Co3 1_555 1_555
N11 H57 1_555 1_555
H58 N11 1_555 1_555
N12 C45 1_555 1_555
C1 C2 1_555 1_555
C2 N1 1_555 1_555
H59 C2 1_555 1_555
C3 N1 1_555 1_555
H60 C3 1_555 1_555
C4 C3 1_555 1_555
H61 C4 1_555 1_555
C5 C1 1_555 1_555
H62 C5 1_555 1_555
C6 N2 1_555 1_555
H63 C6 1_555 1_555
H64 C6 1_555 1_555
C7 N2 1_555 1_555
H65 C7 1_555 1_555
H66 C7 1_555 1_555
C8 C7 1_555 1_555
C9 N3 1_555 1_555
H67 C9 1_555 1_555
C10 N3 1_555 1_555
H68 C10 1_555 1_555
C11 C10 1_555 1_555
H69 C11 1_555 1_555
C12 C8 1_555 1_555
H70 C12 1_555 1_555
C13 C14 1_555 1_555
C14 N4 1_555 1_555
H71 C14 1_555 1_555
C15 N4 1_555 1_555
H72 C15 1_555 1_555
C16 C15 1_555 1_555
H73 C16 1_555 1_555
C17 C13 1_555 1_555
H74 C17 1_555 1_555
C18 N5 1_555 1_555
H75 C18 1_555 1_555
H76 C18 1_555 1_555
C19 N5 1_555 1_555
H77 C19 1_555 1_555
H78 C19 1_555 1_555
C20 C19 1_555 1_555
C21 C20 1_555 1_555
H79 C21 1_555 1_555
C22 N6 1_555 1_555
H80 C22 1_555 1_555
C23 C22 1_555 1_555
H81 C23 1_555 1_555
C24 C20 1_555 1_555
H82 C24 1_555 1_555
C25 C26 1_555 1_555
C26 N7 1_555 1_555
H83 C26 1_555 1_555
C27 N7 1_555 1_555
H84 C27 1_555 1_555
C28 C27 1_555 1_555
H85 C28 1_555 1_555
C29 C25 1_555 1_555
H86 C29 1_555 1_555
C30 N8 1_555 1_555
H87 C30 1_555 1_555
H88 C30 1_555 1_555
C31 N8 1_555 1_555
H89 C31 1_555 1_555
H90 C31 1_555 1_555
C32 C31 1_555 1_555
C33 N9 1_555 1_555
H91 C33 1_555 1_555
C34 N9 1_555 1_555
H92 C34 1_555 1_555
C35 C34 1_555 1_555
H93 C35 1_555 1_555
C36 C32 1_555 1_555
H94 C36 1_555 1_555
C37 C38 1_555 1_555
C38 N10 1_555 1_555
H95 C38 1_555 1_555
C39 N10 1_555 1_555
H96 C39 1_555 1_555
C40 C39 1_555 1_555
H97 C40 1_555 1_555
C41 C37 1_555 1_555
H98 C41 1_555 1_555
C42 N11 1_555 1_555
H99 C42 1_555 1_555
H100 C42 1_555 1_555
C43 N11 1_555 1_555
H101 C43 1_555 1_555
H102 C43 1_555 1_555
C44 C43 1_555 1_555
C45 C44 1_555 1_555
H103 C45 1_555 1_555
C46 N12 1_555 1_555
H104 C46 1_555 1_555
C47 C46 1_555 1_555
H105 C47 1_555 1_555
C48 C44 1_555 1_555
H106 C48 1_555 1_555
Co2_2 N6 1_555 1_555
Co4_2 N12 1_555 1_555
N6_2 Co2 1_555 1_555
N12_2 Co4 1_555 1_555
C1 C6 1_555 1_555
C4 C5 1_555 1_555
C8 C9 1_555 1_555
C11 C12 1_555 1_555
C13 C18 1_555 1_555
C16 C17 1_555 1_555
C23 C24 1_555 1_555
C25 C30 1_555 1_555
C28 C29 1_555 1_555
C32 C33 1_555 1_555
C35 C36 1_555 1_555
C37 C42 1_555 1_555
C40 C41 1_555 1_555
C47 C48 1_555 1_555

#END
