
#######################################################################
#
#                 Cambridge Crystallographic Data Centre
#                                CCDC 
#
#######################################################################
#
# If this CIF has been generated from an entry in the Cambridge 
# Structural Database, then it will include bibliographic, chemical, 
# crystal, experimental, refinement or atomic coordinate data resulting 
# from the CCDC's data processing and validation procedures.
#
#######################################################################

data_TAZYOK
_symmetry_cell_setting           triclinic
_symmetry_space_group_name_H-M   'P -1'
_symmetry_Int_Tables_number      2
_space_group_name_Hall           '-P 1'
loop_
_symmetry_equiv_pos_site_id
_symmetry_equiv_pos_as_xyz
1 x,y,z
2 -x,-y,-z
_cell_length_a                   6.352(7)
_cell_length_b                   10.040(10)
_cell_length_c                   10.315(11)
_cell_angle_alpha                94.958(14)
_cell_angle_beta                 95.556(7)
_cell_angle_gamma                99.747(14)
_cell_volume                     641.734
loop_
_atom_site_label
_atom_site_type_symbol
_atom_site_fract_x
_atom_site_fract_y
_atom_site_fract_z
Cu1 Cu 1.0000 0.5000 1.0000
Sm1 Sm 0.42985(4) 0.03826(3) 0.25899(3)
N1 N 0.8916(9) 0.4967(5) 0.8106(6)
O1 O 0.6313(7) 0.2194(5) 0.4132(4)
O2 O 0.6710(8) 0.1249(5) 0.6003(5)
O3 O 0.7856(9) 0.7358(5) 0.4407(5)
O4 O 0.8251(7) 0.8449(4) 0.6395(5)
O5 O 0.7653(7) -0.0372(5) 0.3313(5)
H1 H 0.8855 0.0008 0.3669
H2 H 0.7488 -0.1205 0.3344
O6 O 0.0603(8) -0.0491(6) 0.1400(6)
H3 H 0.0556 -0.0911 0.0669
H4 H -0.0574 -0.0646 0.1696
O7 O 1.4394(8) 0.8557(5) 1.0971(4)
O8 O 1.6170(8) 0.8054(6) 0.9075(5)
O9 O 1.3050(10) 0.6505(5) 0.9548(5)
O10 O 1.2805(7) 0.8687(5) 0.8767(5)
O11 O 1.1539(9) 0.3464(6) 0.9486(6)
H5 H 1.2137 0.3156 1.0114
H6 H 1.2255 0.3446 0.8853
S1 S 1.4060(2) 0.79291(16) 0.96161(15)
C1 C 0.7536(10) 0.3660(6) 0.6075(6)
C2 C 0.7552(9) 0.4821(6) 0.5475(6)
H9 H 0.7164 0.4774 0.4577
C3 C 0.8153(10) 0.6074(7) 0.6221(6)
C4 C 0.8883(10) 0.6100(6) 0.7521(7)
H10 H 0.9371 0.6936 0.8012
C5 C 0.8218(11) 0.3776(7) 0.7408(7)
H11 H 0.8183 0.2988 0.7825
C6 C 0.6811(10) 0.2267(6) 0.5346(6)
C7 C 0.8085(10) 0.7403(6) 0.5617(7)
Sm1A Sm 1.57015(4) 0.96174(3) 1.74101(3)
Sm1A_2 Sm 0.57015(4) -0.03826(3) 0.74101(3)
Sm1A_3 Sm 0.57015(4) 0.96174(3) 0.74101(3)
Sm1_2 Sm 1.42985(4) 1.03826(3) 1.25899(3)
Sm1A_4 Sm 1.57015(4) 0.96174(3) 0.74101(3)
Sm1_3 Sm 1.42985(4) 0.03826(3) 1.25899(3)
Sm1_4 Sm 0.42985(4) 0.03826(3) 1.25899(3)
N1A N 1.1084(9) 0.5033(5) 1.1894(6)
O1A O 1.3687(7) 0.7806(5) 1.5868(4)
O2A O 1.3290(8) 0.8751(5) 1.3997(5)
O2A_2 O 0.3290(8) -0.1249(5) 0.3997(5)
O2_2 O 1.6710(8) 1.1249(5) 1.6003(5)
O3A O 1.2144(9) 0.2642(5) 1.5593(5)
O4A O 1.1749(7) 0.1551(4) 1.3605(5)
O4A_2 O 0.1749(7) 0.1551(4) 0.3605(5)
O4_2 O 1.8251(7) 0.8449(4) 1.6395(5)
O5A O 1.2347(7) 1.0372(5) 1.6687(5)
H1A H 1.1145 0.9992 1.6331
H2A H 1.2512 1.1205 1.6656
O6A O 1.9397(8) 1.0491(6) 1.8600(6)
H3A H 1.9444 1.0911 1.9331
H4A H 2.0574 1.0646 1.8304
O7A O 0.5606(8) 0.1443(5) 0.9029(4)
O7_2 O 0.4394(8) -0.1443(5) 0.0971(4)
O7A_2 O 1.5606(8) 1.1443(5) 1.9029(4)
O8A O 0.3830(8) 0.1946(6) 1.0925(5)
O8A_2 O 0.3830(8) 0.1946(6) 0.0925(5)
O8_2 O 1.6170(8) 0.8054(6) 1.9075(5)
O9A O 0.6950(10) 0.3495(5) 1.0452(5)
O10A O 0.7195(7) 0.1313(5) 1.1233(5)
O10A_2 O 0.7195(7) 0.1313(5) 0.1233(5)
O10_2 O 1.2805(7) 0.8687(5) 1.8767(5)
O11A O 0.8461(9) 0.6536(6) 1.0514(6)
H5A H 0.7863 0.6844 0.9886
H6A H 0.7745 0.6554 1.1147
S1A S 0.5940(2) 0.20709(16) 1.03839(15)
C1A C 1.2464(10) 0.6340(6) 1.3925(6)
C2A C 1.2448(9) 0.5179(6) 1.4525(6)
H9A H 1.2836 0.5226 1.5423
C3A C 1.1847(10) 0.3926(7) 1.3779(6)
C4A C 1.1117(10) 0.3900(6) 1.2479(7)
H10A H 1.0629 0.3064 1.1988
C5A C 1.1782(11) 0.6224(7) 1.2592(7)
H11A H 1.1817 0.7012 1.2175
C6A C 1.3189(10) 0.7733(6) 1.4654(6)
C7A C 1.1915(10) 0.2597(6) 1.4383(7)
O12 O 0.3793(16) 0.4361(12) 0.7807(11)
H7 H 0.3567 0.5030 0.8270
H8 H 0.3198 0.4326 0.7048
loop_
_geom_bond_atom_site_label_1
_geom_bond_atom_site_label_2
_geom_bond_site_symmetry_1
_geom_bond_site_symmetry_2
Cu1 N1 1_555 1_555
Sm1 O1 1_555 1_555
N1 C4 1_555 1_555
O1 C6 1_555 1_555
O2 C6 1_555 1_555
O3 C7 1_555 1_555
O4 C7 1_555 1_555
O5 Sm1 1_555 1_555
H1 O5 1_555 1_555
H2 O5 1_555 1_555
O6 Sm1 1_555 1_555
H3 O6 1_555 1_555
H4 O6 1_555 1_555
O7 S1 1_555 1_555
O8 S1 1_555 1_555
O9 Cu1 1_555 1_555
O10 S1 1_555 1_555
O11 Cu1 1_555 1_555
H5 O11 1_555 1_555
H6 O11 1_555 1_555
O12 H7 1_555 1_555
H8 O12 1_555 1_555
S1 O9 1_555 1_555
C1 C2 1_555 1_555
C2 H9 1_555 1_555
C3 C2 1_555 1_555
C4 C3 1_555 1_555
H10 C4 1_555 1_555
C5 N1 1_555 1_555
H11 C5 1_555 1_555
C6 C1 1_555 1_555
C7 C3 1_555 1_555
Sm1A O1A 1_555 1_555
Sm1A_2 O2 1_555 1_555
Sm1A_3 O4 1_555 1_555
Sm1_2 O7 1_555 1_555
Sm1A_4 O8 1_555 1_555
Sm1_3 O4A 1_555 1_555
Sm1_4 O8A 1_555 1_555
N1A Cu1 1_555 1_555
O1A C6A 1_555 1_555
O2A Sm1_2 1_555 1_555
O2A_2 Sm1 1_555 1_555
O2_2 Sm1A 1_555 1_555
O3A C7A 1_555 1_555
O4A C7A 1_555 1_555
O4A_2 Sm1 1_555 1_555
O4_2 Sm1A 1_555 1_555
O5A Sm1A 1_555 1_555
H1A O5A 1_555 1_555
H2A O5A 1_555 1_555
O6A Sm1A 1_555 1_555
H3A O6A 1_555 1_555
H4A O6A 1_555 1_555
O7A Sm1A_2 1_555 1_555
O7_2 Sm1 1_555 1_555
O7A_2 Sm1A 1_555 1_555
O8A S1A 1_555 1_555
O8A_2 Sm1 1_555 1_555
O8_2 Sm1A 1_555 1_555
O9A Cu1 1_555 1_555
O10A Sm1_4 1_555 1_555
O10A_2 Sm1 1_555 1_555
O10_2 Sm1A 1_555 1_555
O11A Cu1 1_555 1_555
H5A O11A 1_555 1_555
H6A O11A 1_555 1_555
S1A O7A 1_555 1_555
C1A C2A 1_555 1_555
C2A H9A 1_555 1_555
C3A C2A 1_555 1_555
C4A N1A 1_555 1_555
H10A C4A 1_555 1_555
C5A N1A 1_555 1_555
H11A C5A 1_555 1_555
C6A O2A 1_555 1_555
C7A C3A 1_555 1_555
O10 Sm1A_4 1_555 1_555
C1 C5 1_555 1_555
O9A S1A 1_555 1_555
O10A S1A 1_555 1_555
C1A C5A 1_555 1_555
C1A C6A 1_555 1_555
C3A C4A 1_555 1_555

#END
