
#######################################################################
#
#                 Cambridge Crystallographic Data Centre
#                                CCDC 
#
#######################################################################
#
# If this CIF has been generated from an entry in the Cambridge 
# Structural Database, then it will include bibliographic, chemical, 
# crystal, experimental, refinement or atomic coordinate data resulting 
# from the CCDC's data processing and validation procedures.
#
#######################################################################

data_TBZSNA01
_symmetry_cell_setting           monoclinic
_symmetry_space_group_name_H-M   'P 21/c'
_symmetry_Int_Tables_number      14
_space_group_name_Hall           '-P 2ybc'
loop_
_symmetry_equiv_pos_site_id
_symmetry_equiv_pos_as_xyz
1 x,y,z
2 -x,1/2+y,1/2-z
3 -x,-y,-z
4 x,1/2-y,1/2+z
_cell_length_a                   11.3031(8)
_cell_length_b                   10.9569(12)
_cell_length_c                   16.7039(14)
_cell_angle_alpha                90
_cell_angle_beta                 105.644(6)
_cell_angle_gamma                90
_cell_volume                     1992.09
loop_
_atom_site_label
_atom_site_type_symbol
_atom_site_fract_x
_atom_site_fract_y
_atom_site_fract_z
Sn1 Sn 0.48839(1) 0.21840(1) 0.19770(1)
O1 O 0.54148(15) 0.06441(13) 0.13758(9)
O2 O 0.54280(15) -0.07406(14) 0.23542(9)
C1 C 0.5615(2) -0.0430(2) 0.16860(13)
C2 C 0.6118(3) -0.1307(2) 0.1170(2)
C3 C 0.7629(2) 0.1763(2) 0.28461(12)
C4 C 0.8292(3) 0.2445(2) 0.2411(2)
C5 C 0.9332(3) 0.1980(3) 0.2246(2)
C6 C 0.9757(2) 0.0860(3) 0.2512(2)
C7 C 0.9135(3) 0.0188(3) 0.2942(2)
C8 C 0.8089(2) 0.0628(2) 0.3107(2)
C9 C 0.6491(2) 0.2229(3) 0.3016(2)
C10 C 0.5901(2) 0.3687(2) 0.07374(10)
C11 C 0.6582(2) 0.2907(2) 0.03798(14)
C12 C 0.7658(2) 0.3298(3) 0.02275(15)
C13 C 0.8088(2) 0.4461(3) 0.0438(2)
C14 C 0.7431(2) 0.5236(2) 0.0797(2)
C15 C 0.6343(2) 0.4858(2) 0.09392(13)
C16 C 0.4716(2) 0.3282(2) 0.08933(12)
C17 C 0.2279(2) 0.1426(2) 0.11033(14)
C18 C 0.2247(2) 0.0364(2) 0.0645(2)
C19 C 0.1533(3) 0.0277(3) -0.0165(2)
C20 C 0.0824(3) 0.1239(3) -0.0539(2)
C21 C 0.0843(2) 0.2274(3) -0.0118(2)
C22 C 0.1556(2) 0.2390(2) 0.0702(2)
C23 C 0.3081(2) 0.1527(3) 0.19764(15)
H1 H 0.6986 -0.1400 0.1407
H2 H 0.5965 -0.0998 0.0613
H3 H 0.5722 -0.2085 0.1158
H4 H 0.8028 0.3226 0.2229
H5 H 0.9750 0.2447 0.1945
H6 H 1.0464 0.0556 0.2401
H7 H 0.9422 -0.0584 0.3130
H8 H 0.7680 0.0143 0.3403
H9 H 0.6631 0.3065 0.3209
H10 H 0.6329 0.1751 0.3464
H11 H 0.6309 0.2114 0.02420
H12 H 0.8099 0.2771 -0.00204
H13 H 0.8819 0.4718 0.0338
H14 H 0.7720 0.6021 0.0945
H15 H 0.5897 0.5397 0.11746
H16 H 0.4255 0.2825 0.04129
H17 H 0.4239 0.4002 0.09393
H18 H 0.2717 -0.0303 0.0888
H19 H 0.1533 -0.0443 -0.0459
H20 H 0.0334 0.1170 -0.1083
H21 H 0.0371 0.2931 -0.0375
H22 H 0.1549 0.3120 0.0983
H23 H 0.3153 0.0734 0.22435
H24 H 0.2709 0.2084 0.22895
O2A O 0.45720(15) 0.42594(14) 0.26458(9)
Sn1A Sn 0.51161(1) -0.28160(1) 0.30230(1)
loop_
_geom_bond_atom_site_label_1
_geom_bond_atom_site_label_2
_geom_bond_site_symmetry_1
_geom_bond_site_symmetry_2
Sn1 O1 1_555 1_555
O1 C1 1_555 1_555
O2 C1 1_555 1_555
C1 C2 1_555 1_555
C2 H1 1_555 1_555
C3 C4 1_555 1_555
C4 C5 1_555 1_555
C5 C6 1_555 1_555
C6 C7 1_555 1_555
C7 C8 1_555 1_555
C8 C3 1_555 1_555
C9 Sn1 1_555 1_555
C10 C11 1_555 1_555
C11 C12 1_555 1_555
C12 C13 1_555 1_555
C13 C14 1_555 1_555
C14 C15 1_555 1_555
C15 C10 1_555 1_555
C16 Sn1 1_555 1_555
C17 C18 1_555 1_555
C18 C19 1_555 1_555
C19 C20 1_555 1_555
C20 C21 1_555 1_555
C21 C22 1_555 1_555
C22 C17 1_555 1_555
C23 Sn1 1_555 1_555
H2 C2 1_555 1_555
H3 C2 1_555 1_555
H4 C4 1_555 1_555
H5 C5 1_555 1_555
H6 C6 1_555 1_555
H7 C7 1_555 1_555
H8 C8 1_555 1_555
H9 C9 1_555 1_555
H10 C9 1_555 1_555
H11 C11 1_555 1_555
H12 C12 1_555 1_555
H13 C13 1_555 1_555
H14 C14 1_555 1_555
H15 C15 1_555 1_555
H16 C16 1_555 1_555
H17 C16 1_555 1_555
H18 C18 1_555 1_555
H19 C19 1_555 1_555
H20 C20 1_555 1_555
H21 C21 1_555 1_555
H22 C22 1_555 1_555
H23 C23 1_555 1_555
H24 C23 1_555 1_555
O2A Sn1 1_555 1_555
Sn1A O2 1_555 1_555
C3 C9 1_555 1_555
C10 C16 1_555 1_555
C17 C23 1_555 1_555

#END
