
#######################################################################
#
#                 Cambridge Crystallographic Data Centre
#                                CCDC 
#
#######################################################################
#
# If this CIF has been generated from an entry in the Cambridge 
# Structural Database, then it will include bibliographic, chemical, 
# crystal, experimental, refinement or atomic coordinate data resulting 
# from the CCDC's data processing and validation procedures.
#
#######################################################################

data_TBZSNA
_symmetry_cell_setting           monoclinic
_symmetry_space_group_name_H-M   'P 1 1 21/b'
_symmetry_Int_Tables_number      14
_space_group_name_Hall           '-P 2bc'
loop_
_symmetry_equiv_pos_site_id
_symmetry_equiv_pos_as_xyz
1 x,y,z
2 -x,1/2-y,1/2+z
3 -x,-y,-z
4 x,1/2+y,1/2-z
_cell_length_a                   11.254(8)
_cell_length_b                   16.716(12)
_cell_length_c                   10.943(9)
_cell_angle_alpha                90
_cell_angle_beta                 90
_cell_angle_gamma                105.18(7)
_cell_volume                     1986.79
loop_
_atom_site_label
_atom_site_type_symbol
_atom_site_fract_x
_atom_site_fract_y
_atom_site_fract_z
C1 C 0.14700 0.30340 -0.27340
C2 C -0.03280 0.08770 -0.16720
C3 C 0.09050 0.07420 -0.12770
C4 C 0.13230 0.09500 -0.01050
C5 C 0.24700 0.08000 0.02800
C6 C 0.31180 0.04570 -0.04650
C7 C 0.26990 0.02340 -0.17610
C8 C 0.15870 0.03850 -0.22630
C9 C 0.26160 0.28530 -0.32500
C10 C -0.19150 0.19830 -0.35240
C11 C -0.27160 0.11030 -0.36290
C12 C -0.34550 0.07000 -0.25900
C13 C -0.41190 -0.01320 -0.26810
C14 C -0.41920 -0.05390 -0.37550
C15 C -0.34600 -0.01630 -0.47630
C16 C -0.27220 0.06690 -0.46200
C17 C 0.30640 0.31150 -0.43590
C18 C 0.06170 0.16840 -0.54360
C19 C 0.10760 0.11610 -0.63580
C20 C 0.41420 0.29390 -0.48590
C21 C 0.47590 0.25030 -0.41500
C22 C 0.43370 0.22680 -0.30180
C23 C 0.32820 0.24140 -0.25150
O1 O 0.04250 0.13610 -0.43440
O2 O 0.04010 0.23370 -0.56850
Sn1 Sn -0.01080 0.19790 -0.28090
Sn1A Sn 0.01080 0.30210 -0.78090
O2A O -0.04010 0.26630 -0.06850
loop_
_geom_bond_atom_site_label_1
_geom_bond_atom_site_label_2
_geom_bond_site_symmetry_1
_geom_bond_site_symmetry_2
C1 C9 1_555 1_555
C2 C3 1_555 1_555
C3 C4 1_555 1_555
C4 C5 1_555 1_555
C5 C6 1_555 1_555
C6 C7 1_555 1_555
C7 C8 1_555 1_555
C8 C3 1_555 1_555
C9 C17 1_555 1_555
C10 C11 1_555 1_555
C11 C12 1_555 1_555
C12 C13 1_555 1_555
C13 C14 1_555 1_555
C14 C15 1_555 1_555
C15 C16 1_555 1_555
C16 C11 1_555 1_555
C17 C20 1_555 1_555
C18 C19 1_555 1_555
C20 C21 1_555 1_555
C21 C22 1_555 1_555
C22 C23 1_555 1_555
C23 C9 1_555 1_555
O1 C18 1_555 1_555
O2 C18 1_555 1_555
Sn1 C1 1_555 1_555
Sn1A O2 1_555 1_555
O2A Sn1 1_555 1_555
C2 Sn1 1_555 1_555
C10 Sn1 1_555 1_555
O1 Sn1 1_555 1_555

#END
