
#######################################################################
#
#                 Cambridge Crystallographic Data Centre
#                                CCDC 
#
#######################################################################
#
# If this CIF has been generated from an entry in the Cambridge 
# Structural Database, then it will include bibliographic, chemical, 
# crystal, experimental, refinement or atomic coordinate data resulting 
# from the CCDC's data processing and validation procedures.
#
#######################################################################

data_TCAZCO
_symmetry_cell_setting           monoclinic
_symmetry_space_group_name_H-M   'P 21/a'
_symmetry_Int_Tables_number      14
_space_group_name_Hall           '-P 2yab'
loop_
_symmetry_equiv_pos_site_id
_symmetry_equiv_pos_as_xyz
1 x,y,z
2 1/2-x,1/2+y,-z
3 -x,-y,-z
4 1/2+x,1/2-y,z
_cell_length_a                   26.77(7)
_cell_length_b                   10.88(3)
_cell_length_c                   8.63(2)
_cell_angle_alpha                90
_cell_angle_beta                 99.2(2)
_cell_angle_gamma                90
_cell_volume                     2481.22
loop_
_atom_site_label
_atom_site_type_symbol
_atom_site_fract_x
_atom_site_fract_y
_atom_site_fract_z
Co1 Co 0.39660 0.33140 0.17590
Co2 Co 0.32330 -0.01100 0.20660
Cl1 Cl 0.47870 0.28520 0.19470
Cl2 Cl 0.38140 0.12840 0.30820
Cl3 Cl 0.25520 0.09690 0.21780
Cl4 Cl 0.33710 -0.18150 0.35150
O2 O 0.40700 0.51200 0.07400
N1 N 0.32200 0.37300 0.15400
N2 N 0.25900 0.43600 0.27100
N3 N 0.24600 0.37000 0.01100
N4 N 0.36400 0.27400 -0.04600
N5 N 0.38600 0.41900 0.38800
N6 N 0.35000 -0.05600 0.01100
C1 C 0.29300 0.34600 0.02500
C2 C 0.30600 0.41400 0.27900
C3 C 0.23000 0.39600 0.13400
C4 C 0.31800 0.28900 -0.09600
C5 C 0.29000 0.25000 -0.24200
C6 C 0.32000 0.20800 -0.34400
C7 C 0.37100 0.18000 -0.30700
C8 C 0.38600 0.22400 -0.15400
C9 C 0.34200 0.45100 0.41800
C10 C 0.32900 0.50300 0.53900
C11 C 0.36600 0.53800 0.66800
C12 C 0.41100 0.51100 0.63700
C13 C 0.42000 0.46200 0.50700
C14 C 0.32200 -0.08700 -0.13000
C15 C 0.34000 -0.11900 -0.26000
C16 C 0.39000 -0.12700 -0.24400
C17 C 0.42100 -0.09500 -0.10900
C18 C 0.39800 -0.05500 0.01400
H1 H 0.25300 0.24400 -0.26800
H2 H 0.31000 0.19400 -0.46000
H3 H 0.39700 0.14800 -0.36900
H4 H 0.41800 0.21800 -0.06800
H5 H 0.29200 0.50400 0.53700
H6 H 0.36000 0.58000 0.76500
H7 H 0.44400 0.51600 0.71400
H8 H 0.45600 0.46900 0.48300
H9 H 0.31600 -0.12700 -0.36900
H10 H 0.40900 -0.16200 -0.32600
H11 H 0.45800 -0.09600 -0.08900
H12 H 0.41700 -0.03100 0.11300
C14A C 0.17800 0.41300 0.13000
C3A C 0.27000 -0.10400 -0.13400
N6A N 0.15000 0.44400 -0.01100
C15A C 0.16000 0.38100 0.26000
N2A N 0.24100 -0.06400 -0.27100
N3A N 0.25400 -0.13000 -0.01100
Co2A Co 0.17670 0.48900 -0.20660
C18A C 0.10200 0.44500 -0.01400
C16A C 0.11000 0.37300 0.24400
H9A H 0.18400 0.37300 0.36900
C2A C 0.19400 -0.08600 -0.27900
C1A C 0.20700 -0.15400 -0.02500
Cl2A Cl 0.11860 0.62840 -0.30820
Cl3A Cl 0.24480 0.59690 -0.21780
Cl4A Cl 0.16290 0.31850 -0.35150
C17A C 0.07900 0.40500 0.10900
H12A H 0.08300 0.46900 -0.11300
H10A H 0.09100 0.33800 0.32600
N1A N 0.17800 -0.12700 -0.15400
C9A C 0.15800 -0.04900 -0.41800
C4A C 0.18200 -0.21100 0.09600
Co1A Co 0.10340 0.83140 -0.17590
H11A H 0.04200 0.40400 0.08900
Co1A_2 Co 0.10340 -0.16860 -0.17590
N5A N 0.11400 -0.08100 -0.38800
C10A C 0.17100 0.00300 -0.53900
N4A N 0.13600 -0.22600 0.04600
C5A C 0.21000 -0.25000 0.24200
Cl1A Cl 0.02130 0.78520 -0.19470
O2A O 0.09300 1.01200 -0.07400
N1A_2 N 0.17800 0.87300 -0.15400
N4A_2 N 0.13600 0.77400 0.04600
N5A_2 N 0.11400 0.91900 -0.38800
C13A C 0.08000 -0.03800 -0.50700
C11A C 0.13400 0.03800 -0.66800
H5A H 0.20800 0.00400 -0.53700
C8A C 0.11400 -0.27600 0.15400
C6A C 0.18000 -0.29200 0.34400
H1A H 0.24700 -0.25600 0.26800
C12A C 0.08900 0.01100 -0.63700
H8A H 0.04400 -0.03100 -0.48300
H6A H 0.14000 0.08000 -0.76500
C7A C 0.12900 -0.32000 0.30700
H4A H 0.08200 -0.28200 0.06800
H2A H 0.19000 -0.30600 0.46000
H7A H 0.05600 0.01600 -0.71400
H3A H 0.10300 -0.35200 0.36900
O1 O 0.32500 0.63800 0.07200
loop_
_geom_bond_atom_site_label_1
_geom_bond_atom_site_label_2
_geom_bond_site_symmetry_1
_geom_bond_site_symmetry_2
Co1 Cl1 1_555 1_555
Co2 Cl2 1_555 1_555
Cl2 Co1 1_555 1_555
Cl3 Co2 1_555 1_555
Cl4 Co2 1_555 1_555
O2 Co1 1_555 1_555
N1 Co1 1_555 1_555
N2 C2 1_555 1_555
N3 C1 1_555 1_555
N4 Co1 1_555 1_555
N5 Co1 1_555 1_555
N6 Co2 1_555 1_555
C1 N1 1_555 1_555
C2 N1 1_555 1_555
C3 N2 1_555 1_555
C4 N4 1_555 1_555
C5 C4 1_555 1_555
C6 C5 1_555 1_555
C7 C6 1_555 1_555
C8 N4 1_555 1_555
C9 N5 1_555 1_555
C10 C9 1_555 1_555
C11 C10 1_555 1_555
C12 C11 1_555 1_555
C13 N5 1_555 1_555
C14 N6 1_555 1_555
C15 C14 1_555 1_555
C16 C15 1_555 1_555
C17 C16 1_555 1_555
C18 N6 1_555 1_555
H1 C5 1_555 1_555
H2 C6 1_555 1_555
H3 C7 1_555 1_555
H4 C8 1_555 1_555
H5 C10 1_555 1_555
H6 C11 1_555 1_555
H7 C12 1_555 1_555
H8 C13 1_555 1_555
H9 C15 1_555 1_555
H10 C16 1_555 1_555
H11 C17 1_555 1_555
H12 C18 1_555 1_555
C14A C3 1_555 1_555
C3A C14 1_555 1_555
N6A C14A 1_555 1_555
C15A C14A 1_555 1_555
N2A C3A 1_555 1_555
N3A C3A 1_555 1_555
Co2A N6A 1_555 1_555
C18A N6A 1_555 1_555
C16A C15A 1_555 1_555
H9A C15A 1_555 1_555
C2A N2A 1_555 1_555
C1A N3A 1_555 1_555
Cl2A Co2A 1_555 1_555
Cl3A Co2A 1_555 1_555
Cl4A Co2A 1_555 1_555
C17A C18A 1_555 1_555
H12A C18A 1_555 1_555
H10A C16A 1_555 1_555
N1A C2A 1_555 1_555
C9A C2A 1_555 1_555
C4A C1A 1_555 1_555
Co1A Cl2A 1_555 1_555
H11A C17A 1_555 1_555
Co1A_2 N1A 1_555 1_555
N5A C9A 1_555 1_555
C10A C9A 1_555 1_555
N4A C4A 1_555 1_555
C5A C4A 1_555 1_555
Cl1A Co1A 1_555 1_555
O2A Co1A 1_555 1_555
N1A_2 Co1A 1_555 1_555
N4A_2 Co1A 1_555 1_555
N5A_2 Co1A 1_555 1_555
C13A N5A 1_555 1_555
C11A C10A 1_555 1_555
H5A C10A 1_555 1_555
C8A N4A 1_555 1_555
C6A C5A 1_555 1_555
H1A C5A 1_555 1_555
C12A C13A 1_555 1_555
H8A C13A 1_555 1_555
H6A C11A 1_555 1_555
C7A C8A 1_555 1_555
H4A C8A 1_555 1_555
H2A C6A 1_555 1_555
H7A C12A 1_555 1_555
H3A C7A 1_555 1_555
N3 C3 1_555 1_555
C1 C4 1_555 1_555
C2 C9 1_555 1_555
C7 C8 1_555 1_555
C12 C13 1_555 1_555
C17 C18 1_555 1_555
C16A C17A 1_555 1_555
C1A N1A 1_555 1_555
Co1A_2 N5A 1_555 1_555
Co1A_2 N4A 1_555 1_555
C11A C12A 1_555 1_555
C6A C7A 1_555 1_555

#END
