
#######################################################################
#
#                 Cambridge Crystallographic Data Centre
#                                CCDC 
#
#######################################################################
#
# If this CIF has been generated from an entry in the Cambridge 
# Structural Database, then it will include bibliographic, chemical, 
# crystal, experimental, refinement or atomic coordinate data resulting 
# from the CCDC's data processing and validation procedures.
#
#######################################################################

data_TCHXPH10
_symmetry_cell_setting           monoclinic
_symmetry_space_group_name_H-M   'P 21/c'
_symmetry_Int_Tables_number      14
_space_group_name_Hall           '-P 2ybc'
loop_
_symmetry_equiv_pos_site_id
_symmetry_equiv_pos_as_xyz
1 x,y,z
2 -x,1/2+y,1/2-z
3 -x,-y,-z
4 x,1/2-y,1/2+z
_cell_length_a                   10.850(1)
_cell_length_b                   9.825(2)
_cell_length_c                   21.977(3)
_cell_angle_alpha                90
_cell_angle_beta                 94.34(1)
_cell_angle_gamma                90
_cell_volume                     2336.06
loop_
_atom_site_label
_atom_site_type_symbol
_atom_site_fract_x
_atom_site_fract_y
_atom_site_fract_z
Hg1 Hg 0.48402 0.13467 0.15150
P1 P 0.28860 0.01770 0.13690
S1 S 0.59490 0.28460 0.08370
S2 S 0.66880 0.04130 0.21740
N1 N 0.83700 0.19130 0.10340
N2 N 0.43010 0.32380 0.22200
C1 C 0.73520 0.22870 0.09600
C2 C 0.60830 -0.08990 0.25260
C3 C 0.20010 0.04670 0.20370
C4 C 0.07240 -0.01330 0.20110
C5 C 0.00380 0.03070 0.25470
C6 C 0.07320 -0.00090 0.31430
C7 C 0.20200 0.06030 0.31740
C8 C 0.27200 0.01500 0.26340
C9 C 0.19860 0.08180 0.06820
C10 C 0.14850 0.22400 0.07920
C11 C 0.07840 0.27990 0.02220
C12 C 0.15310 0.27570 -0.03260
C13 C 0.19860 0.13560 -0.04360
C14 C 0.27550 0.07860 0.01280
C15 C 0.31450 -0.16730 0.13040
C16 C 0.43730 -0.20210 0.10360
C17 C 0.46010 -0.35440 0.10380
C18 C 0.35180 -0.43280 0.07420
C19 C 0.23180 -0.39780 0.09980
C20 C 0.20670 -0.24510 0.09630
H1 H 0.19300 0.14300 0.19900
H2 H 0.02800 0.01500 0.16400
H3 H 0.07900 -0.11000 0.20100
H4 H -0.00900 0.12700 0.25200
H5 H -0.07400 -0.01300 0.25300
H6 H 0.02900 0.03500 0.34700
H7 H 0.08000 -0.09700 0.31900
H8 H 0.19500 0.15700 0.31700
H9 H 0.24600 0.03200 0.35500
H10 H 0.35000 0.06200 0.26500
H11 H 0.28700 -0.08000 0.26600
H12 H 0.13100 0.02000 0.06100
H13 H 0.09400 0.22000 0.11100
H14 H 0.21500 0.28300 0.09100
H15 H 0.00600 0.22700 0.01300
H16 H 0.05600 0.37200 0.02900
H17 H 0.10400 0.30600 -0.06800
H18 H 0.22300 0.33500 -0.02600
H19 H 0.12900 0.07800 -0.05300
H20 H 0.24800 0.13800 -0.07700
H21 H 0.30000 -0.01200 0.00500
H22 H 0.34800 0.13300 0.02100
H23 H 0.31900 -0.19000 0.17200
H24 H 0.43700 -0.17000 0.06400
H25 H 0.50300 -0.16100 0.12800
H26 H 0.53000 -0.37000 0.08100
H27 H 0.47600 -0.38300 0.14400
H28 H 0.34500 -0.41500 0.03200
H29 H 0.36800 -0.52800 0.08100
H30 H 0.16700 -0.44500 0.07700
H31 H 0.23500 -0.42600 0.14100
H32 H 0.19900 -0.21700 0.05500
H33 H 0.13200 -0.22500 0.11400
C2A C 0.39170 0.41010 0.24740
N2A N 0.56990 -0.17620 0.27800
S2A S 0.33120 0.54130 0.28260
Hg1A Hg 0.51598 -0.36533 0.34850
Hg1A_2 Hg 0.51598 0.63467 0.34850
P1A P 0.71140 -0.48230 0.36310
S1A S 0.40510 -0.21540 0.41630
S2A_2 S 0.33120 -0.45870 0.28260
C3A C 0.79990 -0.45330 0.29630
C9A C 0.80140 -0.41820 0.43180
C15A C 0.68550 -0.66730 0.36960
C1A C 0.26480 -0.27130 0.40400
C4A C 0.92760 -0.51330 0.29890
C8A C 0.72800 -0.48500 0.23660
H1A H 0.80700 -0.35700 0.30100
C10A C 0.85150 -0.27600 0.42080
C14A C 0.72450 -0.42140 0.48720
H12A H 0.86900 -0.48000 0.43900
C16A C 0.56270 -0.70210 0.39640
C20A C 0.79330 -0.74510 0.40370
H23A H 0.68100 -0.69000 0.32800
N1A N 0.16300 -0.30870 0.39660
C5A C 0.99620 -0.46930 0.24530
H2A H 0.97200 -0.48500 0.33600
H3A H 0.92100 -0.61000 0.29900
C7A C 0.79800 -0.43970 0.18260
H10A H 0.65000 -0.43800 0.23500
H11A H 0.71300 -0.58000 0.23400
C11A C 0.92160 -0.22010 0.47780
H13A H 0.90600 -0.28000 0.38900
H14A H 0.78500 -0.21700 0.40900
C13A C 0.80140 -0.36440 0.54360
H21A H 0.70000 -0.51200 0.49500
H22A H 0.65200 -0.36700 0.47900
C17A C 0.53990 -0.85440 0.39620
H24A H 0.56300 -0.67000 0.43600
H25A H 0.49700 -0.66100 0.37200
C19A C 0.76820 -0.89780 0.40020
H32A H 0.80100 -0.71700 0.44500
H33A H 0.86800 -0.72500 0.38600
C6A C 0.92680 -0.50090 0.18570
H4A H 1.00900 -0.37300 0.24800
H5A H 1.07400 -0.51300 0.24700
H8A H 0.80500 -0.34300 0.18300
H9A H 0.75400 -0.46800 0.14500
C12A C 0.84690 -0.22430 0.53260
H15A H 0.99400 -0.27300 0.48700
H16A H 0.94400 -0.12800 0.47100
H19A H 0.87100 -0.42200 0.55300
H20A H 0.75200 -0.36200 0.57700
C18A C 0.64820 -0.93280 0.42580
H26A H 0.47000 -0.87000 0.41900
H27A H 0.52400 -0.88300 0.35600
H30A H 0.83300 -0.94500 0.42300
H31A H 0.76500 -0.92600 0.35900
H6A H 0.97100 -0.46500 0.15300
H7A H 0.92000 -0.59700 0.18100
H17A H 0.89600 -0.19400 0.56800
H18A H 0.77700 -0.16500 0.52600
H28A H 0.65500 -0.91500 0.46800
H29A H 0.63200 -1.02800 0.41900
loop_
_geom_bond_atom_site_label_1
_geom_bond_atom_site_label_2
_geom_bond_site_symmetry_1
_geom_bond_site_symmetry_2
Hg1 P1 1_555 1_555
P1 C3 1_555 1_555
S1 Hg1 1_555 1_555
S2 Hg1 1_555 1_555
N1 C1 1_555 1_555
N2 Hg1 1_555 1_555
C1 S1 1_555 1_555
C2 S2 1_555 1_555
C3 C4 1_555 1_555
C4 C5 1_555 1_555
C5 C6 1_555 1_555
C6 C7 1_555 1_555
C7 C8 1_555 1_555
C8 C3 1_555 1_555
C9 P1 1_555 1_555
C10 C9 1_555 1_555
C11 C10 1_555 1_555
C12 C11 1_555 1_555
C13 C12 1_555 1_555
C14 C9 1_555 1_555
C15 P1 1_555 1_555
C16 C15 1_555 1_555
C17 C16 1_555 1_555
C18 C17 1_555 1_555
C19 C18 1_555 1_555
C20 C15 1_555 1_555
H1 C3 1_555 1_555
H2 C4 1_555 1_555
H3 C4 1_555 1_555
H4 C5 1_555 1_555
H5 C5 1_555 1_555
H6 C6 1_555 1_555
H7 C6 1_555 1_555
H8 C7 1_555 1_555
H9 C7 1_555 1_555
H10 C8 1_555 1_555
H11 C8 1_555 1_555
H12 C9 1_555 1_555
H13 C10 1_555 1_555
H14 C10 1_555 1_555
H15 C11 1_555 1_555
H16 C11 1_555 1_555
H17 C12 1_555 1_555
H18 C12 1_555 1_555
H19 C13 1_555 1_555
H20 C13 1_555 1_555
H21 C14 1_555 1_555
H22 C14 1_555 1_555
H23 C15 1_555 1_555
H24 C16 1_555 1_555
H25 C16 1_555 1_555
H26 C17 1_555 1_555
H27 C17 1_555 1_555
H28 C18 1_555 1_555
H29 C18 1_555 1_555
H30 C19 1_555 1_555
H31 C19 1_555 1_555
H32 C20 1_555 1_555
H33 C20 1_555 1_555
C2A N2 1_555 1_555
N2A C2 1_555 1_555
S2A C2A 1_555 1_555
Hg1A N2A 1_555 1_555
Hg1A_2 S2A 1_555 1_555
P1A Hg1A 1_555 1_555
S1A Hg1A 1_555 1_555
S2A_2 Hg1A 1_555 1_555
C3A P1A 1_555 1_555
C9A P1A 1_555 1_555
C15A P1A 1_555 1_555
C1A S1A 1_555 1_555
C4A C3A 1_555 1_555
C8A C3A 1_555 1_555
H1A C3A 1_555 1_555
C10A C9A 1_555 1_555
C14A C9A 1_555 1_555
H12A C9A 1_555 1_555
C16A C15A 1_555 1_555
C20A C15A 1_555 1_555
H23A C15A 1_555 1_555
N1A C1A 1_555 1_555
C5A C4A 1_555 1_555
H2A C4A 1_555 1_555
H3A C4A 1_555 1_555
C7A C8A 1_555 1_555
H10A C8A 1_555 1_555
H11A C8A 1_555 1_555
C11A C10A 1_555 1_555
H13A C10A 1_555 1_555
H14A C10A 1_555 1_555
C13A C14A 1_555 1_555
H21A C14A 1_555 1_555
H22A C14A 1_555 1_555
C17A C16A 1_555 1_555
H24A C16A 1_555 1_555
H25A C16A 1_555 1_555
C19A C20A 1_555 1_555
H32A C20A 1_555 1_555
H33A C20A 1_555 1_555
C6A C5A 1_555 1_555
H4A C5A 1_555 1_555
H5A C5A 1_555 1_555
H8A C7A 1_555 1_555
H9A C7A 1_555 1_555
C12A C11A 1_555 1_555
H15A C11A 1_555 1_555
H16A C11A 1_555 1_555
H19A C13A 1_555 1_555
H20A C13A 1_555 1_555
C18A C17A 1_555 1_555
H26A C17A 1_555 1_555
H27A C17A 1_555 1_555
H30A C19A 1_555 1_555
H31A C19A 1_555 1_555
H6A C6A 1_555 1_555
H7A C6A 1_555 1_555
H17A C12A 1_555 1_555
H18A C12A 1_555 1_555
H28A C18A 1_555 1_555
H29A C18A 1_555 1_555
C13 C14 1_555 1_555
C19 C20 1_555 1_555
C7A C6A 1_555 1_555
C13A C12A 1_555 1_555
C19A C18A 1_555 1_555

#END
