
#######################################################################
#
#                 Cambridge Crystallographic Data Centre
#                                CCDC 
#
#######################################################################
#
# If this CIF has been generated from an entry in the Cambridge 
# Structural Database, then it will include bibliographic, chemical, 
# crystal, experimental, refinement or atomic coordinate data resulting 
# from the CCDC's data processing and validation procedures.
#
#######################################################################

data_TCPPHG01
_symmetry_cell_setting           monoclinic
_symmetry_space_group_name_H-M   'P 21/c'
_symmetry_Int_Tables_number      14
_space_group_name_Hall           '-P 2ybc'
loop_
_symmetry_equiv_pos_site_id
_symmetry_equiv_pos_as_xyz
1 x,y,z
2 -x,1/2+y,1/2-z
3 -x,-y,-z
4 x,1/2-y,1/2+z
_cell_length_a                   21.071(5)
_cell_length_b                   17.716(5)
_cell_length_c                   11.285(3)
_cell_angle_alpha                90
_cell_angle_beta                 101.66
_cell_angle_gamma                90
_cell_volume                     4125.69
loop_
_atom_site_label
_atom_site_type_symbol
_atom_site_fract_x
_atom_site_fract_y
_atom_site_fract_z
Hg1 Hg 0.43141 0.19036 0.05979
S1 S 0.53760 0.20670 -0.00210
S2 S 0.39460 0.32050 0.10510
P1 P 0.36500 0.08010 0.07490
N1 N 0.50600 0.30900 -0.19600
N2 N 0.36200 0.21200 -0.17000
C1 C 0.51800 0.26800 -0.11800
C2 C 0.37300 0.30100 0.23400
C3 C 0.28400 0.10800 0.08100
C4 C 0.24600 0.06700 0.14400
C5 C 0.18400 0.08900 0.14900
C6 C 0.15900 0.15200 0.09200
C7 C 0.19600 0.19300 0.02900
C8 C 0.25600 0.17000 0.02100
C9 C 0.39300 0.02300 0.20600
C10 C 0.39200 0.05200 0.32200
C11 C 0.41100 0.00900 0.42500
C12 C 0.43500 -0.06300 0.41300
C13 C 0.43800 -0.09100 0.30000
C14 C 0.41700 -0.04900 0.20100
C15 C 0.36000 0.01900 -0.05600
C16 C 0.41300 0.01500 -0.11100
C17 C 0.41300 -0.03400 -0.20900
C18 C 0.35900 -0.07900 -0.24700
C19 C 0.30900 -0.07700 -0.18900
C20 C 0.30800 -0.02700 -0.09500
C2C C 0.37300 0.19900 -0.26600
N2C N 0.36200 0.28800 0.33000
S2C S 0.39460 0.17950 -0.39490
Hg1C Hg 0.43141 0.30964 0.55979
Hg1C_2 Hg 0.43141 0.30964 -0.44021
S1C S 0.53760 0.29330 0.49790
S2C_2 S 0.39460 0.17950 0.60510
P1C P 0.36500 0.41990 0.57490
C1C C 0.51800 0.23200 0.38200
C3C C 0.28400 0.39200 0.58100
C9C C 0.39300 0.47700 0.70600
C15C C 0.36000 0.48100 0.44400
N1C N 0.50600 0.19100 0.30400
C4C C 0.24600 0.43300 0.64400
C8C C 0.25600 0.33000 0.52100
C10C C 0.39200 0.44800 0.82200
C14C C 0.41700 0.54900 0.70100
C16C C 0.41300 0.48500 0.38900
C20C C 0.30800 0.52700 0.40500
C5C C 0.18400 0.41100 0.64900
C7C C 0.19600 0.30700 0.52900
C11C C 0.41100 0.49100 0.92500
C13C C 0.43800 0.59100 0.80000
C17C C 0.41300 0.53400 0.29100
C19C C 0.30900 0.57700 0.31100
C6C C 0.15900 0.34800 0.59200
C12C C 0.43500 0.56300 0.91300
C18C C 0.35900 0.57900 0.25300
Hg2 Hg 0.07590 0.69506 0.03516
S3 S 0.12290 0.82780 -0.01250
S4 S -0.03870 0.70670 0.04720
P2 P 0.13210 0.59690 -0.05360
N3 N 0.12700 0.69600 0.24600
N4 N -0.03600 0.74200 0.28700
C21 C 0.12500 0.81200 -0.15400
C22 C -0.03700 0.72700 0.19200
C23 C 0.20000 0.63400 -0.10500
C24 C 0.21200 0.62300 -0.22100
C25 C 0.26800 0.65600 -0.25400
C26 C 0.30600 0.70300 -0.17300
C27 C 0.29500 0.71600 -0.06300
C28 C 0.24300 0.68100 -0.02700
C29 C 0.16000 0.51900 0.04500
C30 C 0.12800 0.49500 0.13200
C31 C 0.14900 0.43300 0.19900
C32 C 0.19800 0.39100 0.18000
C33 C 0.23100 0.41300 0.09300
C34 C 0.21300 0.47800 0.02600
C35 C 0.07600 0.56000 -0.18300
C36 C 0.04800 0.60700 -0.27300
C37 C -0.00200 0.58400 -0.36500
C38 C -0.02000 0.51000 -0.36700
C39 C 0.00900 0.46200 -0.28300
C40 C 0.05700 0.48500 -0.19000
C21C C 0.12500 0.68800 0.34600
N3C N 0.12700 0.80400 -0.25400
S3C S 0.12290 0.67220 0.48750
Hg2C Hg 0.07590 0.80494 -0.46484
Hg2C_2 Hg 0.07590 0.80494 0.53516
S3C_2 S 0.12290 0.67220 -0.51250
S4C S -0.03870 0.79330 -0.45280
P2C P 0.13210 0.90310 -0.55360
C22C C -0.03700 0.77300 -0.30800
C23C C 0.20000 0.86600 -0.60500
C29C C 0.16000 0.98100 -0.45500
C35C C 0.07600 0.94000 -0.68300
N4C N -0.03600 0.75800 -0.21300
C24C C 0.21200 0.87700 -0.72100
C28C C 0.24300 0.81900 -0.52700
C30C C 0.12800 1.00500 -0.36800
C34C C 0.21300 1.02200 -0.47400
C36C C 0.04800 0.89300 -0.77300
C40C C 0.05700 1.01500 -0.69000
C25C C 0.26800 0.84400 -0.75400
C27C C 0.29500 0.78400 -0.56300
C31C C 0.14900 1.06700 -0.30100
C33C C 0.23100 1.08700 -0.40700
C37C C -0.00200 0.91600 -0.86500
C39C C 0.00900 1.03800 -0.78300
C26C C 0.30600 0.79700 -0.67300
C32C C 0.19800 1.10900 -0.32000
C38C C -0.02000 0.99000 -0.86700
loop_
_geom_bond_atom_site_label_1
_geom_bond_atom_site_label_2
_geom_bond_site_symmetry_1
_geom_bond_site_symmetry_2
Hg1 S1 1_555 1_555
S1 C1 1_555 1_555
S2 Hg1 1_555 1_555
P1 Hg1 1_555 1_555
N1 C1 1_555 1_555
N2 Hg1 1_555 1_555
C2 S2 1_555 1_555
C3 P1 1_555 1_555
C4 C3 1_555 1_555
C5 C4 1_555 1_555
C6 C5 1_555 1_555
C7 C6 1_555 1_555
C8 C3 1_555 1_555
C9 P1 1_555 1_555
C10 C9 1_555 1_555
C11 C10 1_555 1_555
C12 C11 1_555 1_555
C13 C12 1_555 1_555
C14 C9 1_555 1_555
C15 P1 1_555 1_555
C16 C15 1_555 1_555
C17 C16 1_555 1_555
C18 C17 1_555 1_555
C19 C18 1_555 1_555
C20 C15 1_555 1_555
Hg2 S3 1_555 1_555
S3 C21 1_555 1_555
S4 Hg2 1_555 1_555
P2 Hg2 1_555 1_555
N3 Hg2 1_555 1_555
N4 C22 1_555 1_555
C21 N3C 1_555 1_555
C22 S4 1_555 1_555
C23 P2 1_555 1_555
C24 C23 1_555 1_555
C25 C24 1_555 1_555
C26 C25 1_555 1_555
C27 C26 1_555 1_555
C28 C23 1_555 1_555
C29 P2 1_555 1_555
C30 C29 1_555 1_555
C31 C30 1_555 1_555
C32 C31 1_555 1_555
C33 C32 1_555 1_555
C34 C29 1_555 1_555
C35 P2 1_555 1_555
C36 C35 1_555 1_555
C37 C36 1_555 1_555
C38 C37 1_555 1_555
C39 C38 1_555 1_555
C40 C35 1_555 1_555
C2C N2 1_555 1_555
N2C C2 1_555 1_555
S2C C2C 1_555 1_555
Hg1C N2C 1_555 1_555
Hg1C_2 S2C 1_555 1_555
S1C Hg1C 1_555 1_555
S2C_2 Hg1C 1_555 1_555
P1C Hg1C 1_555 1_555
C1C S1C 1_555 1_555
C3C P1C 1_555 1_555
C9C P1C 1_555 1_555
C15C P1C 1_555 1_555
N1C C1C 1_555 1_555
C4C C3C 1_555 1_555
C8C C3C 1_555 1_555
C10C C9C 1_555 1_555
C14C C9C 1_555 1_555
C16C C15C 1_555 1_555
C20C C15C 1_555 1_555
C5C C4C 1_555 1_555
C7C C8C 1_555 1_555
C11C C10C 1_555 1_555
C13C C14C 1_555 1_555
C17C C16C 1_555 1_555
C19C C20C 1_555 1_555
C6C C5C 1_555 1_555
C12C C11C 1_555 1_555
C18C C17C 1_555 1_555
C21C N3 1_555 1_555
N3C Hg2C 1_555 1_555
S3C C21C 1_555 1_555
Hg2C S3C_2 1_555 1_555
Hg2C_2 S3C 1_555 1_555
S4C Hg2C 1_555 1_555
P2C Hg2C 1_555 1_555
C22C S4C 1_555 1_555
C23C P2C 1_555 1_555
C29C P2C 1_555 1_555
C35C P2C 1_555 1_555
N4C C22C 1_555 1_555
C24C C23C 1_555 1_555
C28C C23C 1_555 1_555
C30C C29C 1_555 1_555
C34C C29C 1_555 1_555
C36C C35C 1_555 1_555
C40C C35C 1_555 1_555
C25C C24C 1_555 1_555
C27C C28C 1_555 1_555
C31C C30C 1_555 1_555
C33C C34C 1_555 1_555
C37C C36C 1_555 1_555
C39C C40C 1_555 1_555
C26C C25C 1_555 1_555
C32C C31C 1_555 1_555
C38C C37C 1_555 1_555
C7 C8 1_555 1_555
C13 C14 1_555 1_555
C19 C20 1_555 1_555
C27 C28 1_555 1_555
C33 C34 1_555 1_555
C39 C40 1_555 1_555
C7C C6C 1_555 1_555
C13C C12C 1_555 1_555
C19C C18C 1_555 1_555
C27C C26C 1_555 1_555
C33C C32C 1_555 1_555
C39C C38C 1_555 1_555

#END
