
#######################################################################
#
#                 Cambridge Crystallographic Data Centre
#                                CCDC 
#
#######################################################################
#
# If this CIF has been generated from an entry in the Cambridge 
# Structural Database, then it will include bibliographic, chemical, 
# crystal, experimental, refinement or atomic coordinate data resulting 
# from the CCDC's data processing and validation procedures.
#
#######################################################################

data_TCYPIN
_symmetry_cell_setting           orthorhombic
_symmetry_space_group_name_H-M   'P 21 21 21'
_symmetry_Int_Tables_number      19
_space_group_name_Hall           'P 2ac 2ab'
loop_
_symmetry_equiv_pos_site_id
_symmetry_equiv_pos_as_xyz
1 x,y,z
2 1/2+x,1/2-y,-z
3 -x,1/2+y,1/2-z
4 1/2-x,-y,1/2+z
_cell_length_a                   9.668(2)
_cell_length_b                   9.706(2)
_cell_length_c                   13.451(3)
_cell_angle_alpha                90
_cell_angle_beta                 90
_cell_angle_gamma                90
_cell_volume                     1262.21
loop_
_atom_site_label
_atom_site_type_symbol
_atom_site_fract_x
_atom_site_fract_y
_atom_site_fract_z
C1 C -0.05770 0.32520 0.20970
C2 C 0.26590 0.19580 0.07870
C3 C 0.23980 0.14120 0.36280
C4 C 0.02590 0.43720 0.23050
C5 C 0.16490 0.22580 0.00620
C6 C 0.34410 0.04980 0.32650
C7 C 0.01220 0.47320 0.33080
C8 C 0.16770 0.36200 -0.01190
C9 C 0.46460 0.12310 0.31440
C10 C -0.08150 0.37880 0.37450
C11 C 0.27410 0.42230 0.04610
C12 C 0.44190 0.25970 0.34670
C13 C -0.12650 0.29150 0.30220
C14 C 0.33560 0.32240 0.09920
C15 C 0.30930 0.27030 0.37570
H1 H -0.12700 0.34930 0.15800
H2 H 0.33260 0.12670 0.05270
H3 H 0.20190 0.10770 0.42710
H4 H 0.08640 0.48490 0.18170
H5 H 0.10200 0.15810 -0.02600
H6 H 0.33170 -0.04970 0.31250
H7 H 0.10370 0.46740 0.36460
H8 H 0.10540 0.41230 -0.05840
H9 H 0.55330 0.08640 0.28760
H10 H -0.10960 0.37720 0.44570
H11 H 0.29930 0.52120 0.04730
H12 H 0.51150 0.33480 0.34730
H13 H -0.19520 0.21660 0.31160
H14 H 0.41570 0.33480 0.14490
H15 H 0.26550 0.35500 0.40270
In1 In 0.13430 0.17170 0.21570
In1B In -0.13430 0.67170 0.28430
C7B C -0.01220 -0.02680 0.16920
H7B H -0.10370 -0.03260 0.13540
loop_
_geom_bond_atom_site_label_1
_geom_bond_atom_site_label_2
_geom_bond_site_symmetry_1
_geom_bond_site_symmetry_2
C1 C4 1_555 1_555
C2 C5 1_555 1_555
C3 C6 1_555 1_555
C4 C7 1_555 1_555
C5 C8 1_555 1_555
C6 C9 1_555 1_555
C7 C10 1_555 1_555
C8 C11 1_555 1_555
C9 C12 1_555 1_555
C10 C13 1_555 1_555
C11 C14 1_555 1_555
C12 C15 1_555 1_555
C13 C1 1_555 1_555
C14 C2 1_555 1_555
C15 C3 1_555 1_555
H1 C1 1_555 1_555
H2 C2 1_555 1_555
H3 C3 1_555 1_555
H4 C4 1_555 1_555
H5 C5 1_555 1_555
H6 C6 1_555 1_555
H7 C7 1_555 1_555
H8 C8 1_555 1_555
H9 C9 1_555 1_555
H10 C10 1_555 1_555
H11 C11 1_555 1_555
H12 C12 1_555 1_555
H13 C13 1_555 1_555
H14 C14 1_555 1_555
H15 C15 1_555 1_555
In1 C1 1_555 1_555
In1B C7 1_555 1_555
C7B In1 1_555 1_555
H7B C7B 1_555 1_555
C2 In1 1_555 1_555
C3 In1 1_555 1_555

#END
