
#######################################################################
#
#                 Cambridge Crystallographic Data Centre
#                                CCDC 
#
#######################################################################
#
# If this CIF has been generated from an entry in the Cambridge 
# Structural Database, then it will include bibliographic, chemical, 
# crystal, experimental, refinement or atomic coordinate data resulting 
# from the CCDC's data processing and validation procedures.
#
#######################################################################

data_TEBFOX
_symmetry_cell_setting           orthorhombic
_symmetry_space_group_name_H-M   'P b c m'
_symmetry_Int_Tables_number      57
_space_group_name_Hall           '-P 2c 2b'
loop_
_symmetry_equiv_pos_site_id
_symmetry_equiv_pos_as_xyz
1 x,y,z
2 -x,-y,1/2+z
3 -x,1/2+y,1/2-z
4 x,1/2-y,-z
5 -x,-y,-z
6 x,y,1/2-z
7 x,1/2-y,1/2+z
8 -x,1/2+y,z
_cell_length_a                   11.4280(12)
_cell_length_b                   13.7757(14)
_cell_length_c                   36.193(3)
_cell_angle_alpha                90
_cell_angle_beta                 90
_cell_angle_gamma                90
_cell_volume                     5697.82
loop_
_atom_site_label
_atom_site_type_symbol
_atom_site_fract_x
_atom_site_fract_y
_atom_site_fract_z
Ag1 Ag 0.05728(6) 0.65346(5) 0.7500
N1 N 0.2465(5) 0.6544(5) 0.7500
N2 N 0.8673(5) 0.6424(4) 0.7500
C1 C 0.3082(5) 0.6529(4) 0.71868(15)
H11 H 0.2675 0.6545 0.6964
C2 C 0.4286(5) 0.6490(4) 0.71735(15)
H12 H 0.4673 0.6474 0.6948
C3 C 0.4910(6) 0.6476(5) 0.7500
C4 C 0.8075(5) 0.6408(4) 0.71895(16)
H13 H 0.8485 0.6385 0.6968
C5 C 0.6874(5) 0.6425(4) 0.71775(15)
H14 H 0.6492 0.6428 0.6951
C6 C 0.6230(6) 0.6438(5) 0.7500
Ag1_2 Ag 1.05728(6) 0.65346(5) 0.7500
N2_2 N -0.1327(5) 0.6424(4) 0.7500
C1E C 0.3082(5) 0.6529(4) 0.78132(15)
H11E H 0.2675 0.6545 0.8036
C2E C 0.4286(5) 0.6490(4) 0.78265(15)
H12E H 0.4673 0.6474 0.8052
C4E C 0.8075(5) 0.6408(4) 0.78105(16)
H13E H 0.8485 0.6385 0.8032
C5E C 0.6874(5) 0.6425(4) 0.78225(15)
H14E H 0.6492 0.6428 0.8049
Ag2 Ag 0.05453(4) 0.87244(4) 0.510383(18)
N3 N 0.2432(4) 0.8761(3) 0.50867(15)
N4 N 0.8649(4) 0.8771(3) 0.50914(15)
C7 C 0.3056(5) 0.8889(4) 0.53990(17)
H15 H 0.2653 0.8963 0.5620
C8 C 0.4255(5) 0.8915(4) 0.54068(15)
H16 H 0.4640 0.9012 0.5630
C9 C 0.4897(5) 0.8797(4) 0.50848(17)
C10 C 0.4248(5) 0.8664(4) 0.47654(16)
H17 H 0.4630 0.8581 0.4541
C11 C 0.3057(5) 0.8655(4) 0.47769(17)
H18 H 0.2654 0.8569 0.4556
C12 C 0.8038(5) 0.8871(4) 0.54023(17)
H19 H 0.8442 0.8940 0.5624
C13 C 0.6831(5) 0.8876(4) 0.54098(16)
H20 H 0.6443 0.8943 0.5634
C14 C 0.6194(4) 0.8782(4) 0.50881(15)
C15 C 0.6844(5) 0.8699(4) 0.47656(16)
H21 H 0.6464 0.8645 0.4539
C16 C 0.8067(5) 0.8695(4) 0.47780(17)
H22 H 0.8484 0.8638 0.4558
Ag2_2 Ag 1.05453(4) 0.87244(4) 0.510383(18)
N4_2 N -0.1351(4) 0.8771(3) 0.50914(15)
Ag3 Ag 0.19144(6) 0.89365(5) 0.7500
N5 N 0.3819(5) 0.8964(5) 0.7500
N6 N 1.0015(6) 0.9017(5) 0.7500
O7 O 0.1859(5) 0.8616(4) 0.67706(15)
H5 H 0.1519 0.8091 0.6711
H6 H 0.2221 0.8835 0.6583
C17 C 0.4423(5) 0.8963(4) 0.71834(16)
H23 H 0.4009 0.8958 0.6962
C18 C 0.5625(5) 0.8968(4) 0.71694(16)
H24 H 0.6006 0.8964 0.6942
C19 C 0.6281(6) 0.8980(5) 0.7500
C20 C 0.9406(5) 0.9027(4) 0.71878(16)
H25 H 0.9812 0.9045 0.6965
C21 C 0.8212(5) 0.9011(4) 0.71772(15)
H26 H 0.7831 0.9018 0.6950
C22 C 0.7562(7) 0.8984(6) 0.7500
Ag3_2 Ag 1.19144(6) 0.89365(5) 0.7500
N6_2 N 0.0015(6) 0.9017(5) 0.7500
O7E O 0.1859(5) 0.8616(4) 0.82294(15)
H5E H 0.1519 0.8091 0.8289
H6E H 0.2221 0.8835 0.8417
C17E C 0.4423(5) 0.8963(4) 0.78166(16)
H23E H 0.4009 0.8958 0.8038
C18E C 0.5625(5) 0.8968(4) 0.78306(16)
H24E H 0.6006 0.8964 0.8058
C20E C 0.9406(5) 0.9027(4) 0.78122(16)
H25E H 0.9812 0.9045 0.8035
C21E C 0.8212(5) 0.9011(4) 0.78228(15)
H26E H 0.7831 0.9018 0.8050
O1 O 0.7699(4) 0.5978(3) 0.61670(15)
O2 O 0.6873(4) 0.4565(3) 0.62650(13)
O3 O 0.2674(4) 0.4198(4) 0.62937(13)
O4 O 0.1500(4) 0.5440(4) 0.62218(19)
C23 C 0.6840(6) 0.5448(5) 0.62206(16)
C24 C 0.2483(6) 0.5066(6) 0.62536(19)
C25 C 0.5636(5) 0.5932(4) 0.62270(14)
C26 C 0.4651(5) 0.5361(4) 0.62449(15)
H27 H 0.4741 0.4692 0.6263
C27 C 0.3532(5) 0.5740(4) 0.62373(15)
C28 C 0.3426(5) 0.6748(5) 0.62146(15)
H28 H 0.2685 0.7026 0.6202
C29 C 0.4392(5) 0.7336(4) 0.62106(15)
H29 H 0.4301 0.8006 0.6206
C30 C 0.5499(5) 0.6937(4) 0.62137(15)
H30 H 0.6153 0.7338 0.6207
O5 O 0.0576(4) 0.6821(4) 0.67152(12)
H1 H 0.0888 0.6392 0.6578
H2 H 0.0042 0.7103 0.6592
O6 O 0.0640(5) 0.7254(6) 0.56919(15)
H3 H 0.0955 0.6769 0.5798
H4 H 0.0093 0.7461 0.5830
O8 O 0.8868(4) 0.7683(3) 0.62672(13)
H7 H 0.8494 0.7156 0.6235
H8 H 0.8379 0.8147 0.6274
O9 O 0.9530(5) 0.4765(6) 0.58537(18)
H9 H 0.8965 0.5100 0.5938
H10 H 1.0155 0.4947 0.5960
loop_
_geom_bond_atom_site_label_1
_geom_bond_atom_site_label_2
_geom_bond_site_symmetry_1
_geom_bond_site_symmetry_2
Ag1 N1 1_555 1_555
Ag2 N3 1_555 1_555
Ag3 N5 1_555 1_555
N1 C1 1_555 1_555
N2 C4 1_555 1_555
N3 C7 1_555 1_555
N4 C12 1_555 1_555
N5 C17 1_555 1_555
N6 C20 1_555 1_555
O1 C23 1_555 1_555
O2 C23 1_555 1_555
O3 C24 1_555 1_555
O4 C24 1_555 1_555
O5 H1 1_555 1_555
H2 O5 1_555 1_555
O6 H3 1_555 1_555
H4 O6 1_555 1_555
O7 Ag3 1_555 1_555
H5 O7 1_555 1_555
H6 O7 1_555 1_555
O8 H7 1_555 1_555
H8 O8 1_555 1_555
O9 H9 1_555 1_555
H10 O9 1_555 1_555
C1 H11 1_555 1_555
C2 C1 1_555 1_555
H12 C2 1_555 1_555
C3 C2 1_555 1_555
C4 H13 1_555 1_555
C5 C4 1_555 1_555
H14 C5 1_555 1_555
C6 C3 1_555 1_555
C7 H15 1_555 1_555
C8 C7 1_555 1_555
H16 C8 1_555 1_555
C9 C8 1_555 1_555
C10 C9 1_555 1_555
H17 C10 1_555 1_555
C11 N3 1_555 1_555
H18 C11 1_555 1_555
C12 H19 1_555 1_555
C13 C12 1_555 1_555
H20 C13 1_555 1_555
C14 C9 1_555 1_555
C15 C14 1_555 1_555
H21 C15 1_555 1_555
C16 N4 1_555 1_555
H22 C16 1_555 1_555
C17 H23 1_555 1_555
C18 C17 1_555 1_555
H24 C18 1_555 1_555
C19 C18 1_555 1_555
C20 H25 1_555 1_555
C21 C20 1_555 1_555
H26 C21 1_555 1_555
C22 C19 1_555 1_555
C23 C25 1_555 1_555
C24 C27 1_555 1_555
C25 C26 1_555 1_555
C26 H27 1_555 1_555
C27 C26 1_555 1_555
C28 C27 1_555 1_555
H28 C28 1_555 1_555
C29 C28 1_555 1_555
H29 C29 1_555 1_555
C30 C25 1_555 1_555
H30 C30 1_555 1_555
Ag1_2 N2 1_555 1_555
Ag2_2 N4 1_555 1_555
Ag3_2 N6 1_555 1_555
N2_2 Ag1 1_555 1_555
N4_2 Ag2 1_555 1_555
N6_2 Ag3 1_555 1_555
O7E Ag3 1_555 1_555
H5E O7E 1_555 1_555
H6E O7E 1_555 1_555
C1E N1 1_555 1_555
H11E C1E 1_555 1_555
C2E C3 1_555 1_555
H12E C2E 1_555 1_555
C4E N2 1_555 1_555
H13E C4E 1_555 1_555
C5E C6 1_555 1_555
H14E C5E 1_555 1_555
C17E N5 1_555 1_555
H23E C17E 1_555 1_555
C18E C19 1_555 1_555
H24E C18E 1_555 1_555
C20E N6 1_555 1_555
H25E C20E 1_555 1_555
C21E C22 1_555 1_555
H26E C21E 1_555 1_555
C5 C6 1_555 1_555
C10 C11 1_555 1_555
C13 C14 1_555 1_555
C15 C16 1_555 1_555
C21 C22 1_555 1_555
C29 C30 1_555 1_555
C1E C2E 1_555 1_555
C4E C5E 1_555 1_555
C17E C18E 1_555 1_555
C20E C21E 1_555 1_555

#END
