
#######################################################################
#
#                 Cambridge Crystallographic Data Centre
#                                CCDC 
#
#######################################################################
#
# If this CIF has been generated from an entry in the Cambridge 
# Structural Database, then it will include bibliographic, chemical, 
# crystal, experimental, refinement or atomic coordinate data resulting 
# from the CCDC's data processing and validation procedures.
#
#######################################################################

data_TEBHAL
_symmetry_cell_setting           monoclinic
_symmetry_space_group_name_H-M   'P 21/c'
_symmetry_Int_Tables_number      14
_space_group_name_Hall           '-P 2ybc'
loop_
_symmetry_equiv_pos_site_id
_symmetry_equiv_pos_as_xyz
1 x,y,z
2 -x,1/2+y,1/2-z
3 -x,-y,-z
4 x,1/2-y,1/2+z
_cell_length_a                   12.253(3)
_cell_length_b                   14.258(3)
_cell_length_c                   10.082(2)
_cell_angle_alpha                90
_cell_angle_beta                 90.12(3)
_cell_angle_gamma                90
_cell_volume                     1761.35
loop_
_atom_site_label
_atom_site_type_symbol
_atom_site_fract_x
_atom_site_fract_y
_atom_site_fract_z
Cd1 Cd 0.825258(11) 0.931338(10) 0.502291(13)
N1 N 0.98470(15) 0.65861(11) 0.58770(16)
N2 N 0.90757(18) 0.63242(13) 0.49690(19)
N3 N 0.84983(17) 0.70527(14) 0.4722(2)
N4 N 0.88499(15) 0.77984(12) 0.54604(17)
N5 N 1.02766(17) 0.79835(13) 0.7033(2)
H1 H 1.0131 0.8566 0.7162
H2 H 1.0805 0.7722 0.7458
N6 N 0.66895(14) 0.88221(13) 0.38796(17)
N7 N 0.67788(14) 0.92643(12) 0.64844(17)
O1 O 0.92349(14) 0.58121(12) 0.81628(16)
O2 O 1.06864(13) 0.48785(11) 0.82907(15)
C1 C 1.01266(17) 0.55066(13) 0.77746(19)
C2 C 1.05773(18) 0.59155(14) 0.6489(2)
H3 H 1.1269 0.6220 0.6674
H4 H 1.0714 0.5409 0.5870
C3 C 0.96871(16) 0.74878(14) 0.61822(19)
C4 C 0.6695(2) 0.85814(18) 0.2596(2)
H5 H 0.7351 0.8598 0.2134
C5 C 0.5758(3) 0.83093(18) 0.1934(3)
H6 H 0.5781 0.8142 0.1043
C6 C 0.4795(2) 0.82918(19) 0.2619(3)
H7 H 0.4153 0.8114 0.2194
C7 C 0.4779(2) 0.85361(17) 0.3931(3)
H8 H 0.4128 0.8527 0.4402
C8 C 0.57469(16) 0.87976(14) 0.4555(2)
C9 C 0.57930(17) 0.90459(14) 0.5986(2)
C10 C 0.4877(2) 0.90353(17) 0.6800(3)
H9 H 0.4194 0.8893 0.6449
C11 C 0.4991(2) 0.92378(19) 0.8133(3)
H10 H 0.4385 0.9228 0.8687
C12 C 0.5991(3) 0.9451(2) 0.8629(3)
H11 H 0.6082 0.9590 0.9524
C13 C 0.6868(2) 0.94564(18) 0.7780(2)
H12 H 0.7554 0.9600 0.8121
O6 O 0.78160(14) 1.08467(11) 0.43957(18)
H13 H 0.7931 1.1203 0.5019
H14 H 0.7954 1.1100 0.3651
Cd1C Cd 0.825258(11) 0.568662(10) 1.002291(13)
Cd1A Cd 1.174742(11) 0.431338(10) 0.997709(13)
O1C O 0.92349(14) 0.91879(12) 0.31628(16)
O2A O 0.93136(13) 0.98785(11) 0.67093(15)
N8 N 0.76204(16) 1.19282(16) 0.0797(2)
O3 O 0.70584(18) 1.19321(17) -0.0203(2)
O4 O 0.77554(19) 1.12007(15) 0.1452(2)
O5 O 0.80727(18) 1.26763(14) 0.1164(2)
loop_
_geom_bond_atom_site_label_1
_geom_bond_atom_site_label_2
_geom_bond_site_symmetry_1
_geom_bond_site_symmetry_2
Cd1 N4 1_555 1_555
N1 N2 1_555 1_555
N2 N3 1_555 1_555
N3 N4 1_555 1_555
N4 C3 1_555 1_555
N5 H1 1_555 1_555
H2 N5 1_555 1_555
N6 Cd1 1_555 1_555
N7 Cd1 1_555 1_555
N8 O3 1_555 1_555
O1 C1 1_555 1_555
O2 C1 1_555 1_555
O4 N8 1_555 1_555
O5 N8 1_555 1_555
C1 C2 1_555 1_555
C2 N1 1_555 1_555
H3 C2 1_555 1_555
H4 C2 1_555 1_555
C3 N1 1_555 1_555
C4 N6 1_555 1_555
H5 C4 1_555 1_555
C5 C4 1_555 1_555
H6 C5 1_555 1_555
C6 C5 1_555 1_555
H7 C6 1_555 1_555
C7 C6 1_555 1_555
H8 C7 1_555 1_555
C8 N6 1_555 1_555
C9 N7 1_555 1_555
C10 C9 1_555 1_555
H9 C10 1_555 1_555
C11 C10 1_555 1_555
H10 C11 1_555 1_555
C12 C11 1_555 1_555
H11 C12 1_555 1_555
C13 N7 1_555 1_555
H12 C13 1_555 1_555
O6 Cd1 1_555 1_555
H13 O6 1_555 1_555
H14 O6 1_555 1_555
Cd1C O1 1_555 1_555
Cd1A O2 1_555 1_555
O1C Cd1 1_555 1_555
O2A Cd1 1_555 1_555
N5 C3 1_555 1_555
C7 C8 1_555 1_555
C8 C9 1_555 1_555
C12 C13 1_555 1_555

#END
