
#######################################################################
#
#                 Cambridge Crystallographic Data Centre
#                                CCDC 
#
#######################################################################
#
# If this CIF has been generated from an entry in the Cambridge 
# Structural Database, then it will include bibliographic, chemical, 
# crystal, experimental, refinement or atomic coordinate data resulting 
# from the CCDC's data processing and validation procedures.
#
#######################################################################

data_TEBPIB
_symmetry_cell_setting           orthorhombic
_symmetry_space_group_name_H-M   'P 21 21 21'
_symmetry_Int_Tables_number      19
_space_group_name_Hall           'P 2ac 2ab'
loop_
_symmetry_equiv_pos_site_id
_symmetry_equiv_pos_as_xyz
1 x,y,z
2 1/2-x,-y,1/2+z
3 -x,1/2+y,1/2-z
4 1/2+x,1/2-y,-z
_cell_length_a                   8.8307(8)
_cell_length_b                   10.0433(9)
_cell_length_c                   15.1722(14)
_cell_angle_alpha                90
_cell_angle_beta                 90
_cell_angle_gamma                90
_cell_volume                     1345.61
loop_
_atom_site_label
_atom_site_type_symbol
_atom_site_fract_x
_atom_site_fract_y
_atom_site_fract_z
C1 C 0.2772(5) 0.7039(4) 1.0090(3)
C2 C 0.2438(6) 0.5595(5) 1.0215(4)
H1 H 0.1573 0.5357 0.9854
H2 H 0.2165 0.5443 1.0826
C3 C 0.3750(8) 0.4700(5) 0.9979(5)
H3 H 0.3902 0.4691 0.9346
H4 H 0.4672 0.5015 1.0257
C4 C 0.4458(11) 0.2504(8) 1.0333(8)
H5 H 0.4741 0.2228 0.9750
H6 H 0.4081 0.1753 1.0656
H7 H 0.5325 0.2865 1.0630
C5 C -0.0402(4) 0.5186(4) 0.7458(3)
C6 C -0.2014(5) 0.5591(5) 0.7320(4)
H8 H -0.2225 0.5605 0.6693
H9 H -0.2152 0.6488 0.7543
C7 C -0.3131(6) 0.4682(6) 0.7767(4)
H10 H -0.2936 0.4658 0.8396
H11 H -0.4153 0.5007 0.7675
C8 C -0.4215(7) 0.2609(8) 0.7589(8)
H12 H -0.4343 0.2536 0.8216
H13 H -0.4056 0.1740 0.7343
H14 H -0.5106 0.2998 0.7334
N1 N 0.2123(4) 0.7814(3) 0.9497(2)
N2 N 0.2683(5) 0.9061(4) 0.9632(3)
N3 N 0.3622(5) 0.9014(4) 1.0270(3)
N4 N 0.3724(4) 0.7756(3) 1.0578(2)
N5 N 0.0612(4) 0.5849(3) 0.7930(2)
N6 N 0.1902(4) 0.5104(4) 0.7911(3)
N7 N 0.1665(4) 0.4057(4) 0.7449(2)
N8 N 0.0202(4) 0.4079(3) 0.7157(2)
O1 O 0.3393(9) 0.3423(8) 1.0281(5)
O2 O -0.2982(4) 0.3402(4) 0.7410(3)
Zn1 Zn 0.05257(5) 0.75690(4) 0.85818(2)
N4C N -0.1276(4) 0.7244(3) 0.9422(2)
N8B N -0.0202(4) 0.9079(3) 0.7843(2)
Zn1B Zn -0.05257(5) 0.25690(4) 0.64182(2)
Zn1C Zn 0.55257(5) 0.74310(4) 1.14182(2)
loop_
_geom_bond_atom_site_label_1
_geom_bond_atom_site_label_2
_geom_bond_site_symmetry_1
_geom_bond_site_symmetry_2
C1 C2 1_555 1_555
C2 H1 1_555 1_555
H2 C2 1_555 1_555
C3 C2 1_555 1_555
H3 C3 1_555 1_555
H4 C3 1_555 1_555
C4 H5 1_555 1_555
H6 C4 1_555 1_555
H7 C4 1_555 1_555
C5 C6 1_555 1_555
C6 H8 1_555 1_555
H9 C6 1_555 1_555
C7 C6 1_555 1_555
H10 C7 1_555 1_555
H11 C7 1_555 1_555
C8 H12 1_555 1_555
H13 C8 1_555 1_555
H14 C8 1_555 1_555
N1 C1 1_555 1_555
N2 N1 1_555 1_555
N3 N2 1_555 1_555
N4 C1 1_555 1_555
N5 C5 1_555 1_555
N6 N5 1_555 1_555
N7 N6 1_555 1_555
N8 C5 1_555 1_555
O1 C3 1_555 1_555
O2 C7 1_555 1_555
Zn1 N1 1_555 1_555
N4C Zn1 1_555 1_555
N8B Zn1 1_555 1_555
Zn1B N8 1_555 1_555
Zn1C N4 1_555 1_555
C4 O1 1_555 1_555
C8 O2 1_555 1_555
N3 N4 1_555 1_555
N5 Zn1 1_555 1_555
N7 N8 1_555 1_555

#END
