
#######################################################################
#
#                 Cambridge Crystallographic Data Centre
#                                CCDC 
#
#######################################################################
#
# If this CIF has been generated from an entry in the Cambridge 
# Structural Database, then it will include bibliographic, chemical, 
# crystal, experimental, refinement or atomic coordinate data resulting 
# from the CCDC's data processing and validation procedures.
#
#######################################################################

data_TEBXIJ
_symmetry_cell_setting           monoclinic
_symmetry_space_group_name_H-M   'P 21/n'
_symmetry_Int_Tables_number      14
_space_group_name_Hall           '-P 2yn'
loop_
_symmetry_equiv_pos_site_id
_symmetry_equiv_pos_as_xyz
1 x,y,z
2 1/2-x,1/2+y,1/2-z
3 -x,-y,-z
4 1/2+x,1/2-y,1/2+z
_cell_length_a                   6.7471(13)
_cell_length_b                   12.624(3)
_cell_length_c                   22.748(5)
_cell_angle_alpha                90
_cell_angle_beta                 94.89(3)
_cell_angle_gamma                90
_cell_volume                     1930.52
loop_
_atom_site_label
_atom_site_type_symbol
_atom_site_fract_x
_atom_site_fract_y
_atom_site_fract_z
C1 C -0.1015(8) 1.1040(4) 0.1437(2)
H1 H -0.1723 1.1108 0.1768
C2 C 0.0519(8) 1.0333(4) 0.1455(2)
H2 H 0.0813 0.9907 0.1785
C3 C 0.1634(8) 1.0263(4) 0.0969(2)
C4 C 0.1095(9) 1.0882(4) 0.0475(2)
H3 H 0.1804 1.0849 0.0142
C5 C -0.0511(10) 1.1541(5) 0.0493(2)
H4 H -0.0896 1.1940 0.0159
C6 C 0.3594(8) 0.9697(4) 0.1001(3)
C7 C 0.5982(8) 0.8545(5) 0.1566(3)
H5 H 0.6571 0.9116 0.1807
H6 H 0.6785 0.8415 0.1240
C8 C 0.5762(8) 0.7558(5) 0.1926(3)
H7 H 0.6826 0.7059 0.1873
H8 H 0.5750 0.7723 0.2342
C9 C 0.2700(7) 0.7903(4) 0.1366(2)
C10 C 0.3326(7) 0.6117(4) 0.1834(2)
C11 C 0.1497(7) 0.5556(4) 0.1583(2)
C12 C 0.1373(9) 0.5129(5) 0.1018(2)
H9 H 0.2337 0.5284 0.0762
C13 C -0.0193(9) 0.4474(5) 0.0843(2)
H10 H -0.0277 0.4203 0.0461
C14 C -0.1462(9) 0.4614(4) 0.1745(3)
H11 H -0.2425 0.4438 0.1997
C15 C 0.0055(9) 0.5283(4) 0.1951(3)
H12 H 0.0107 0.5548 0.2333
Cd1 Cd -0.39983(6) 1.29033(3) 0.096041(17)
I1 I -0.58819(6) 1.26657(3) 0.195888(18)
I2 I -0.56629(6) 1.32611(3) -0.014214(16)
N1 N -0.1551(7) 1.1644(4) 0.0960(2)
N2 N 0.3897(6) 0.8787(3) 0.1354(2)
N3 N 0.3820(6) 0.7137(3) 0.16818(19)
N4 N -0.1620(6) 0.4202(3) 0.1198(2)
O1 O 0.4964(7) 1.0079(5) 0.0780(3)
O2 O 0.4484(6) 0.5655(3) 0.2194(2)
S1 S 0.04280(18) 0.77676(10) 0.10531(6)
Cd1_2 Cd -0.39983(6) 0.29033(3) 0.096041(17)
N4_2 N -0.1620(6) 1.4202(3) 0.1198(2)
loop_
_geom_bond_atom_site_label_1
_geom_bond_atom_site_label_2
_geom_bond_site_symmetry_1
_geom_bond_site_symmetry_2
C1 H1 1_555 1_555
C2 C1 1_555 1_555
H2 C2 1_555 1_555
C3 C2 1_555 1_555
C4 C3 1_555 1_555
H3 C4 1_555 1_555
C5 C4 1_555 1_555
H4 C5 1_555 1_555
C6 C3 1_555 1_555
C7 H5 1_555 1_555
H6 C7 1_555 1_555
C8 C7 1_555 1_555
H7 C8 1_555 1_555
H8 C8 1_555 1_555
C9 N2 1_555 1_555
C10 C11 1_555 1_555
C11 C12 1_555 1_555
C12 H9 1_555 1_555
C13 C12 1_555 1_555
H10 C13 1_555 1_555
C14 H11 1_555 1_555
C15 C11 1_555 1_555
H12 C15 1_555 1_555
Cd1 I1 1_555 1_555
I2 Cd1 1_555 1_555
N1 C1 1_555 1_555
N2 C6 1_555 1_555
N3 C8 1_555 1_555
N4 C13 1_555 1_555
O1 C6 1_555 1_555
O2 C10 1_555 1_555
S1 C9 1_555 1_555
Cd1_2 N4 1_555 1_555
N4_2 Cd1 1_555 1_555
C5 N1 1_555 1_555
C7 N2 1_555 1_555
C9 N3 1_555 1_555
C10 N3 1_555 1_555
C14 C15 1_555 1_555
C14 N4 1_555 1_555
Cd1 N1 1_555 1_555

#END
