
#######################################################################
#
#                 Cambridge Crystallographic Data Centre
#                                CCDC 
#
#######################################################################
#
# If this CIF has been generated from an entry in the Cambridge 
# Structural Database, then it will include bibliographic, chemical, 
# crystal, experimental, refinement or atomic coordinate data resulting 
# from the CCDC's data processing and validation procedures.
#
#######################################################################

data_TEBYUU02
_symmetry_cell_setting           monoclinic
_symmetry_space_group_name_H-M   'P 21/n'
_symmetry_Int_Tables_number      14
_space_group_name_Hall           '-P 2yn'
loop_
_symmetry_equiv_pos_site_id
_symmetry_equiv_pos_as_xyz
1 x,y,z
2 1/2-x,1/2+y,1/2-z
3 -x,-y,-z
4 1/2+x,1/2-y,1/2+z
_cell_length_a                   6.616(1)
_cell_length_b                   14.256(3)
_cell_length_c                   8.607(2)
_cell_angle_alpha                90
_cell_angle_beta                 97.65(3)
_cell_angle_gamma                90
_cell_volume                     804.567
loop_
_atom_site_label
_atom_site_type_symbol
_atom_site_fract_x
_atom_site_fract_y
_atom_site_fract_z
Cu1 Cu -1.0000 0.0000 0.0000
N1 N -0.7676(5) 0.0649(2) 0.1291(4)
N2 N -0.4114(5) 0.1244(2) 0.3076(5)
C1 C -0.6181(5) 0.0039(3) 0.1781(4)
C2 C -0.4392(6) 0.0337(3) 0.2678(4)
C3 C -0.5617(7) 0.1847(3) 0.2579(6)
C4 C -0.7417(6) 0.1551(3) 0.1682(5)
C5 C -0.6609(6) -0.0973(3) 0.1276(5)
C6 C -0.2605(6) -0.0308(3) 0.3211(5)
O1 O -0.8261(4) -0.1110(2) 0.0372(4)
O2 O -0.5329(5) -0.1568(2) 0.1756(5)
O3 O -0.1287(5) -0.0439(3) 0.2394(4)
O4 O -0.2621(5) -0.0630(3) 0.4609(4)
H3 H -0.53(1) 0.246(3) 0.292(6)
H4 H -0.84(1) 0.196(3) 0.133(5)
H5 H -0.18(1) -0.113(5) 0.476(8)
O3_2 O -1.1287(5) -0.0439(3) 0.2394(4)
Cu1_2 Cu 0.0000 0.0000 0.0000
O3B O -0.8713(5) 0.0439(3) -0.2394(4)
N1B N -1.2324(5) -0.0649(2) -0.1291(4)
O1B O -1.1739(4) 0.1110(2) -0.0372(4)
C5B C -1.3391(6) 0.0973(3) -0.1276(5)
C1B C -1.3819(5) -0.0039(3) -0.1781(4)
C2B C -1.5608(6) -0.0337(3) -0.2678(4)
O2B O -1.4671(5) 0.1568(2) -0.1756(5)
C4B C -1.2583(6) -0.1551(3) -0.1682(5)
N2B N -1.5886(5) -0.1244(2) -0.3076(5)
C6B C -1.7395(6) 0.0308(3) -0.3211(5)
C3B C -1.4383(7) -0.1847(3) -0.2579(6)
H4B H -1.16(1) -0.196(3) -0.133(5)
O3B_2 O -1.8713(5) 0.0439(3) -0.2394(4)
O4B O -1.7379(5) 0.0630(3) -0.4609(4)
H3B H -1.47(1) -0.246(3) -0.292(6)
Cu1_3 Cu -2.0000 0.0000 0.0000
H5B H -1.82(1) 0.113(5) -0.476(8)
O5 O 0.0238(6) -0.1790(3) 0.5344(5)
H1 H 0.12(1) -0.166(4) 0.574(7)
H2 H -0.03(1) -0.217(5) 0.573(9)
loop_
_geom_bond_atom_site_label_1
_geom_bond_atom_site_label_2
_geom_bond_site_symmetry_1
_geom_bond_site_symmetry_2
Cu1 N1 1_555 1_555
N1 C1 1_555 1_555
N2 C2 1_555 1_555
C1 C2 1_555 1_555
C2 C6 1_555 1_555
C3 N2 1_555 1_555
C4 N1 1_555 1_555
C5 C1 1_555 1_555
C6 O3 1_555 1_555
O1 Cu1 1_555 1_555
O2 C5 1_555 1_555
O3 Cu1_2 1_555 1_555
O4 C6 1_555 1_555
O5 H1 1_555 1_555
H2 O5 1_555 1_555
H3 C3 1_555 1_555
H4 C4 1_555 1_555
H5 O4 1_555 1_555
O3_2 Cu1 1_555 1_555
O3B Cu1 1_555 1_555
N1B Cu1 1_555 1_555
O1B Cu1 1_555 1_555
C5B O1B 1_555 1_555
C1B N1B 1_555 1_555
C2B C1B 1_555 1_555
O2B C5B 1_555 1_555
C4B N1B 1_555 1_555
N2B C2B 1_555 1_555
C6B C2B 1_555 1_555
C3B C4B 1_555 1_555
H4B C4B 1_555 1_555
O3B_2 C6B 1_555 1_555
O4B C6B 1_555 1_555
H3B C3B 1_555 1_555
Cu1_3 O3B_2 1_555 1_555
H5B O4B 1_555 1_555
C3 C4 1_555 1_555
C5 O1 1_555 1_555
C5B C1B 1_555 1_555
N2B C3B 1_555 1_555

#END
