
#######################################################################
#
#                 Cambridge Crystallographic Data Centre
#                                CCDC 
#
#######################################################################
#
# If this CIF has been generated from an entry in the Cambridge 
# Structural Database, then it will include bibliographic, chemical, 
# crystal, experimental, refinement or atomic coordinate data resulting 
# from the CCDC's data processing and validation procedures.
#
#######################################################################

data_TEBZIL
_symmetry_cell_setting           monoclinic
_symmetry_space_group_name_H-M   'P 21/m'
_symmetry_Int_Tables_number      11
_space_group_name_Hall           '-P 2yb'
loop_
_symmetry_equiv_pos_site_id
_symmetry_equiv_pos_as_xyz
1 x,y,z
2 -x,1/2+y,-z
3 -x,-y,-z
4 x,1/2-y,z
_cell_length_a                   9.779(2)
_cell_length_b                   18.242(4)
_cell_length_c                   17.146(3)
_cell_angle_alpha                90
_cell_angle_beta                 106.41(3)
_cell_angle_gamma                90
_cell_volume                     2934.05
loop_
_atom_site_label
_atom_site_type_symbol
_atom_site_fract_x
_atom_site_fract_y
_atom_site_fract_z
Eu1 Eu 0.006822(18) 0.529455(9) 0.385358(11)
O1 O -0.1659(3) 0.43868(14) 0.38097(16)
O2 O -0.1304(3) 0.39176(14) 0.50557(16)
O3 O -0.1959(3) 0.55615(17) 0.25172(17)
O4 O -0.0008(3) 0.62266(17) 0.28966(18)
O5 O -0.1625(3) 0.61487(14) 0.41021(17)
O6 O -0.1378(3) 0.55805(15) 0.52836(19)
N1 N 0.0640(3) 0.44683(18) 0.27773(19)
N2 N 0.2543(3) 0.54734(18) 0.3617(2)
N3 N 0.4048(4) 0.3942(2) 0.1195(2)
N4 N 0.5521(4) 0.48205(19) 0.1846(2)
H1 H 0.6248 0.5107 0.1983
C1 C -0.0299(4) 0.3977(2) 0.2372(3)
H2 H -0.1156 0.3929 0.2503
C2 C -0.0068(5) 0.3534(3) 0.1767(3)
H3 H -0.0757 0.3197 0.1501
C3 C 0.1183(5) 0.3597(3) 0.1562(3)
H4 H 0.1359 0.3299 0.1161
C4 C 0.2196(4) 0.4115(2) 0.1965(2)
C5 C 0.3523(4) 0.4250(2) 0.1788(2)
C6 C 0.4423(4) 0.4793(2) 0.2194(2)
C7 C 0.4174(4) 0.5230(2) 0.2826(3)
C8 C 0.5083(4) 0.5779(2) 0.3243(3)
H5 H 0.5939 0.5877 0.3128
C9 C 0.4695(5) 0.6171(3) 0.3823(3)
H6 H 0.5271 0.6549 0.4098
C10 C 0.3424(4) 0.5998(2) 0.3999(3)
H7 H 0.3181 0.6263 0.4404
C11 C 0.2894(4) 0.5089(2) 0.3027(2)
C12 C 0.1889(4) 0.4546(2) 0.2581(2)
C13 C 0.5248(4) 0.4315(3) 0.1252(2)
C14 C -0.1738(4) 0.3878(2) 0.4294(2)
C15 C -0.2386(4) 0.3163(2) 0.3917(2)
C16 C -0.1948(5) 0.2500 0.4315(3)
H8 H -0.1363 0.2500 0.4847
C17 C -0.3352(4) 0.3163(2) 0.3147(2)
H9 H -0.3658 0.3605 0.2885
C18 C -0.3865(6) 0.2500 0.2763(4)
H10 H -0.4543 0.2500 0.2258
C19 C -0.4189(8) 0.7500 0.1428(5)
H11 H -0.5114 0.7500 0.1084
C20 C -0.3505(5) 0.6842(3) 0.1681(3)
H12 H -0.3984 0.6401 0.1529
C21 C -0.2095(4) 0.6842(2) 0.2167(2)
C22 C -0.1412(6) 0.7500 0.2385(3)
H13 H -0.0460 0.7500 0.2690
C23 C -0.1331(4) 0.6169(2) 0.2529(3)
C24 C -0.1847(5) 0.7500 0.4827(3)
H14 H -0.1545 0.7500 0.4359
C25 C -0.2070(4) 0.6837(2) 0.5171(2)
C26 C -0.1685(4) 0.6139(2) 0.4826(3)
C27 C -0.2569(4) 0.6842(2) 0.5851(3)
H15 H -0.2713 0.6402 0.6089
C28 C -0.2855(7) 0.7500 0.6180(4)
H16 H -0.3237 0.7500 0.6619
O7 O 0.8755(5) 0.4217(3) -0.0843(3)
C29 C 0.6198(8) 0.4279(4) 0.0711(4)
C30 C 0.6130(7) 0.3691(4) 0.0223(4)
H17 H 0.5518 0.3306 0.0245
C31 C 0.6973(8) 0.3654(4) -0.0317(4)
H18 H 0.6909 0.3253 -0.0661
C32 C 0.7879(7) 0.4211(4) -0.0326(4)
C33 C 0.7961(7) 0.4813(4) 0.0156(4)
H19 H 0.8582 0.5195 0.0141
C34 C 0.7112(7) 0.4841(4) 0.0661(4)
H20 H 0.7148 0.5255 0.0984
C35 C 0.8737(9) 0.3609(5) -0.1364(5)
H21 H 0.9244 0.3733 -0.1751
H22 H 0.7769 0.3487 -0.1647
H23 H 0.9187 0.3196 -0.1047
Eu1C Eu 0.006822(18) -0.029455(9) 0.385358(11)
Eu1B Eu -0.006822(18) 0.470545(9) 0.614642(11)
Eu1A Eu -0.006822(18) 0.029455(9) 0.614642(11)
Eu1C_2 Eu 0.006822(18) 0.970545(9) 0.385358(11)
Eu1A_2 Eu -0.006822(18) 1.029455(9) 0.614642(11)
O1C O -0.1659(3) 0.06132(14) 0.38097(16)
O2C O -0.1304(3) 0.10824(14) 0.50557(16)
O2B O 0.1304(3) 0.60824(14) 0.49443(16)
O2A O 0.1304(3) -0.10824(14) 0.49443(16)
O3C O -0.1959(3) 0.94385(17) 0.25172(17)
O3C_2 O -0.1959(3) -0.05615(17) 0.25172(17)
O4C O -0.0008(3) 0.87734(17) 0.28966(18)
O4C_2 O -0.0008(3) -0.12266(17) 0.28966(18)
O5C O -0.1625(3) 0.88513(14) 0.41021(17)
O5C_2 O -0.1625(3) -0.11487(14) 0.41021(17)
O6C O -0.1378(3) 0.94195(15) 0.52836(19)
O6B O 0.1378(3) 0.44195(15) 0.47164(19)
O6A O 0.1378(3) 0.05805(15) 0.47164(19)
N1C N 0.0640(3) 0.05317(18) 0.27773(19)
N2C N 0.2543(3) -0.04734(18) 0.3617(2)
N3C N 0.4048(4) 0.1058(2) 0.1195(2)
N4C N 0.5521(4) 0.01795(19) 0.1846(2)
H1C H 0.6248 -0.0107 0.1983
C1C C -0.0299(4) 0.1023(2) 0.2372(3)
H2C H -0.1156 0.1071 0.2503
C2C C -0.0068(5) 0.1466(3) 0.1767(3)
H3C H -0.0757 0.1803 0.1501
C3C C 0.1183(5) 0.1403(3) 0.1562(3)
H4C H 0.1359 0.1701 0.1161
C4C C 0.2196(4) 0.0885(2) 0.1965(2)
C5C C 0.3523(4) 0.0750(2) 0.1788(2)
C6C C 0.4423(4) 0.0207(2) 0.2194(2)
C7C C 0.4174(4) -0.0230(2) 0.2826(3)
C8C C 0.5083(4) -0.0779(2) 0.3243(3)
H5C H 0.5939 -0.0877 0.3128
C9C C 0.4695(5) -0.1171(3) 0.3823(3)
H6C H 0.5271 -0.1549 0.4098
C10C C 0.3424(4) -0.0998(2) 0.3999(3)
H7C H 0.3181 -0.1263 0.4404
C11C C 0.2894(4) -0.0089(2) 0.3027(2)
C12C C 0.1889(4) 0.0454(2) 0.2581(2)
C13C C 0.5248(4) 0.0685(3) 0.1252(2)
C14C C -0.1738(4) 0.1122(2) 0.4294(2)
C15C C -0.2386(4) 0.1837(2) 0.3917(2)
C17C C -0.3352(4) 0.1837(2) 0.3147(2)
H9C H -0.3658 0.1395 0.2885
C20C C -0.3505(5) 0.8158(3) 0.1681(3)
H12C H -0.3984 0.8599 0.1529
C21C C -0.2095(4) 0.8158(2) 0.2167(2)
C23C C -0.1331(4) 0.8831(2) 0.2529(3)
C25C C -0.2070(4) 0.8163(2) 0.5171(2)
C26C C -0.1685(4) 0.8861(2) 0.4826(3)
C27C C -0.2569(4) 0.8158(2) 0.5851(3)
H15C H -0.2713 0.8598 0.6089
O7C O 0.8755(5) 0.0783(3) -0.0843(3)
C29C C 0.6198(8) 0.0721(4) 0.0711(4)
C30C C 0.6130(7) 0.1309(4) 0.0223(4)
H17C H 0.5518 0.1694 0.0245
C31C C 0.6973(8) 0.1346(4) -0.0317(4)
H18C H 0.6909 0.1747 -0.0661
C32C C 0.7879(7) 0.0789(4) -0.0326(4)
C33C C 0.7961(7) 0.0187(4) 0.0156(4)
H19C H 0.8582 -0.0195 0.0141
C34C C 0.7112(7) 0.0159(4) 0.0661(4)
H20C H 0.7148 -0.0255 0.0984
C35C C 0.8737(9) 0.1391(5) -0.1364(5)
H21C H 0.9244 0.1267 -0.1751
H22C H 0.7769 0.1513 -0.1647
H23C H 0.9187 0.1804 -0.1047
O8 O 0.2894(7) 0.2500 0.0421(4)
C36? C 0.613(3) 0.4025(12) 0.0739(18)
C37? C 0.640(2) 0.3289(13) 0.0596(12)
C38? C 0.730(2) 0.3098(12) 0.0130(12)
C39? C 0.785(2) 0.3690(12) -0.0185(15)
C40? C 0.772(3) 0.4437(13) -0.0033(16)
C41? C 0.677(3) 0.4584(15) 0.0415(16)
C42? C 0.989(3) 0.3960(15) -0.0734(19)
H24? H 0.5964 0.2921 0.0818
H25? H 0.7512 0.2615 0.0038
H26? H 0.8228 0.4800 -0.0213
H27? H 0.6550 0.5069 0.0499
H28? H 1.0774 0.3724 -0.0724
H29? H 1.0048 0.4297 -0.0287
H30? H 0.9537 0.4222 -0.1236
O9? O 0.8870(19) 0.3419(10) -0.0665(12)
loop_
_geom_bond_atom_site_label_1
_geom_bond_atom_site_label_2
_geom_bond_site_symmetry_1
_geom_bond_site_symmetry_2
Eu1 O1 1_555 1_555
O1 C14 1_555 1_555
O2 C14 1_555 1_555
O3 Eu1 1_555 1_555
O4 Eu1 1_555 1_555
O5 Eu1 1_555 1_555
O6 C26 1_555 1_555
N1 Eu1 1_555 1_555
N2 Eu1 1_555 1_555
N3 C5 1_555 1_555
N4 H1 1_555 1_555
C1 N1 1_555 1_555
H2 C1 1_555 1_555
C2 C1 1_555 1_555
H3 C2 1_555 1_555
C3 C2 1_555 1_555
H4 C3 1_555 1_555
C4 C3 1_555 1_555
C5 C4 1_555 1_555
C6 N4 1_555 1_555
C7 C6 1_555 1_555
C8 C7 1_555 1_555
H5 C8 1_555 1_555
C9 C8 1_555 1_555
H6 C9 1_555 1_555
C10 N2 1_555 1_555
H7 C10 1_555 1_555
C11 N2 1_555 1_555
C12 N1 1_555 1_555
C13 N3 1_555 1_555
C14 C15 1_555 1_555
C15 C16 1_555 1_555
C16 H8 1_555 1_555
C17 C15 1_555 1_555
H9 C17 1_555 1_555
C18 C17 1_555 1_555
H10 C18 1_555 1_555
C19 H11 1_555 1_555
C20 C19 1_555 1_555
H12 C20 1_555 1_555
C21 C20 1_555 1_555
C22 C21 1_555 1_555
H13 C22 1_555 1_555
C23 O3 1_555 1_555
C24 H14 1_555 1_555
C25 C24 1_555 1_555
C26 O5 1_555 1_555
C27 C25 1_555 1_555
H15 C27 1_555 1_555
C28 C27 1_555 1_555
H16 C28 1_555 1_555
O7 C32 1_555 1_555
C29 C13 1_555 1_555
C30 C29 1_555 1_555
H17 C30 1_555 1_555
C31 C30 1_555 1_555
H18 C31 1_555 1_555
C32 C31 1_555 1_555
C33 C32 1_555 1_555
H19 C33 1_555 1_555
C34 C29 1_555 1_555
H20 C34 1_555 1_555
C35 O7 1_555 1_555
H21 C35 1_555 1_555
H22 C35 1_555 1_555
H23 C35 1_555 1_555
Eu1C O1C 1_555 1_555
Eu1B O2 1_555 1_555
Eu1A O2C 1_555 1_555
Eu1C_2 O3C 1_555 1_555
Eu1A_2 O6C 1_555 1_555
O1C C14C 1_555 1_555
O2C C14C 1_555 1_555
O2B Eu1 1_555 1_555
O2A Eu1C 1_555 1_555
O3C C23C 1_555 1_555
O3C_2 Eu1C 1_555 1_555
O4C Eu1C_2 1_555 1_555
O4C_2 Eu1C 1_555 1_555
O5C Eu1C_2 1_555 1_555
O5C_2 Eu1C 1_555 1_555
O6C C26C 1_555 1_555
O6B Eu1 1_555 1_555
O6A Eu1C 1_555 1_555
N1C Eu1C 1_555 1_555
N2C Eu1C 1_555 1_555
N3C C5C 1_555 1_555
N4C H1C 1_555 1_555
C1C N1C 1_555 1_555
H2C C1C 1_555 1_555
C2C C1C 1_555 1_555
H3C C2C 1_555 1_555
C3C C2C 1_555 1_555
H4C C3C 1_555 1_555
C4C C3C 1_555 1_555
C5C C4C 1_555 1_555
C6C N4C 1_555 1_555
C7C C6C 1_555 1_555
C8C C7C 1_555 1_555
H5C C8C 1_555 1_555
C9C C8C 1_555 1_555
H6C C9C 1_555 1_555
C10C N2C 1_555 1_555
H7C C10C 1_555 1_555
C11C N2C 1_555 1_555
C12C N1C 1_555 1_555
C13C N3C 1_555 1_555
C14C C15C 1_555 1_555
C15C C16 1_555 1_555
C17C C18 1_555 1_555
H9C C17C 1_555 1_555
C20C C19 1_555 1_555
H12C C20C 1_555 1_555
C21C C22 1_555 1_555
C23C O4C 1_555 1_555
C25C C24 1_555 1_555
C26C O5C 1_555 1_555
C27C C28 1_555 1_555
H15C C27C 1_555 1_555
O7C C32C 1_555 1_555
C29C C13C 1_555 1_555
C30C C29C 1_555 1_555
H17C C30C 1_555 1_555
C31C C30C 1_555 1_555
H18C C31C 1_555 1_555
C32C C31C 1_555 1_555
C33C C32C 1_555 1_555
H19C C33C 1_555 1_555
C34C C29C 1_555 1_555
H20C C34C 1_555 1_555
C35C O7C 1_555 1_555
H21C C35C 1_555 1_555
H22C C35C 1_555 1_555
H23C C35C 1_555 1_555
O4 C23 1_555 1_555
O6 Eu1B 1_555 1_555
N4 C13 1_555 1_555
C4 C12 1_555 1_555
C5 C6 1_555 1_555
C7 C11 1_555 1_555
C9 C10 1_555 1_555
C11 C12 1_555 1_555
C21 C23 1_555 1_555
C25 C26 1_555 1_555
C33 C34 1_555 1_555
N4C C13C 1_555 1_555
C4C C12C 1_555 1_555
C5C C6C 1_555 1_555
C7C C11C 1_555 1_555
C9C C10C 1_555 1_555
C11C C12C 1_555 1_555
C15C C17C 1_555 1_555
C20C C21C 1_555 1_555
C21C C23C 1_555 1_555
C25C C26C 1_555 1_555
C25C C27C 1_555 1_555
C33C C34C 1_555 1_555

#END
