
#######################################################################
#
#                 Cambridge Crystallographic Data Centre
#                                CCDC 
#
#######################################################################
#
# If this CIF has been generated from an entry in the Cambridge 
# Structural Database, then it will include bibliographic, chemical, 
# crystal, experimental, refinement or atomic coordinate data resulting 
# from the CCDC's data processing and validation procedures.
#
#######################################################################

data_TEBZAB
_symmetry_cell_setting           monoclinic
_symmetry_space_group_name_H-M   'C 2/c'
_symmetry_Int_Tables_number      15
_space_group_name_Hall           '-C 2yn'
loop_
_symmetry_equiv_pos_site_id
_symmetry_equiv_pos_as_xyz
1 x,y,z
2 -x,y,1/2-z
3 1/2+x,1/2+y,z
4 1/2-x,1/2+y,1/2-z
5 -x,-y,-z
6 x,-y,1/2+z
7 1/2-x,1/2-y,-z
8 1/2+x,1/2-y,1/2+z
_cell_length_a                   12.5777(9)
_cell_length_b                   7.5191(9)
_cell_length_c                   11.839(1)
_cell_angle_alpha                90
_cell_angle_beta                 110.754(4)
_cell_angle_gamma                90
_cell_volume                     1047
loop_
_atom_site_label
_atom_site_type_symbol
_atom_site_fract_x
_atom_site_fract_y
_atom_site_fract_z
Co1 Co 0.2500 0.2500 0.5000
O1 O 0.31875(7) -0.00126(12) 0.52946(7)
O2 O 0.48038(8) -0.14578(12) 0.62265(9)
O3 O 0.67910(9) 0.3001(2) 1.13240(10)
N1 N 0.40992(8) 0.29735(13) 0.64209(8)
C1 C 0.45765(8) 0.14333(14) 0.69267(9)
C2 C 0.45242(10) 0.4494(2) 0.69724(11)
C3 C 0.41696(9) -0.01754(15) 0.61091(9)
H1 H 0.721(2) 0.270(2) 1.203(2)
H2 H 0.619(2) 0.242(2) 1.121(2)
H3 H 0.5812(11) 0.555(2) 0.8381(12)
C2A C 0.54758(10) 0.4494(2) 0.80276(11)
N1A N 0.59008(8) 0.29735(13) 0.85791(8)
Co1G Co 0.7500 0.2500 1.0000
O1A O 0.68125(7) -0.00126(12) 0.97054(7)
C3A C 0.58304(9) -0.01754(15) 0.88909(9)
O2A O 0.51962(8) -0.14578(12) 0.87735(9)
C1A C 0.54235(8) 0.14333(14) 0.80733(9)
O1G O 0.81875(7) 0.50126(12) 1.02946(7)
N1G N 0.90992(8) 0.20265(13) 1.14209(8)
O3F O 0.82090(9) 0.1999(2) 0.86760(10)
H1F H 0.779(2) 0.230(2) 0.797(2)
H2F H 0.881(2) 0.258(2) 0.879(2)
H3A H 0.4188(11) 0.555(2) 0.6619(12)
O4 O 0.31745(12) 0.2719(2) 0.85753(10)
H4 H 0.323(2) 0.196(3) 0.912(2)
H5 H 0.305(2) 0.364(3) 0.885(2)
loop_
_geom_bond_atom_site_label_1
_geom_bond_atom_site_label_2
_geom_bond_site_symmetry_1
_geom_bond_site_symmetry_2
Co1 O1 1_555 1_555
O1 C3 1_555 1_555
O2 C3 1_555 1_555
O3 H1 1_555 1_555
N1 Co1 1_555 1_555
C1 N1 1_555 1_555
C2 N1 1_555 1_555
C3 C1 1_555 1_555
H2 O3 1_555 1_555
H3 C2A 1_555 1_555
O4 H4 1_555 1_555
H5 O4 1_555 1_555
C2A C2 1_555 1_555
N1A C2A 1_555 1_555
Co1G O3 1_555 1_555
O1A Co1G 1_555 1_555
C3A O1A 1_555 1_555
O2A C3A 1_555 1_555
C1A C1 1_555 1_555
O1G Co1G 1_555 1_555
N1G Co1G 1_555 1_555
O3F Co1G 1_555 1_555
H1F O3F 1_555 1_555
H2F O3F 1_555 1_555
H3A C2 1_555 1_555
N1A Co1G 1_555 1_555
N1A C1A 1_555 1_555
C3A C1A 1_555 1_555

#END
