
#######################################################################
#
#                 Cambridge Crystallographic Data Centre
#                                CCDC 
#
#######################################################################
#
# If this CIF has been generated from an entry in the Cambridge 
# Structural Database, then it will include bibliographic, chemical, 
# crystal, experimental, refinement or atomic coordinate data resulting 
# from the CCDC's data processing and validation procedures.
#
#######################################################################

data_TECBEK
_symmetry_cell_setting           monoclinic
_symmetry_space_group_name_H-M   'P 21/c'
_symmetry_Int_Tables_number      14
_space_group_name_Hall           '-P 2ybc'
loop_
_symmetry_equiv_pos_site_id
_symmetry_equiv_pos_as_xyz
1 x,y,z
2 -x,1/2+y,1/2-z
3 -x,-y,-z
4 x,1/2-y,1/2+z
_cell_length_a                   6.7169(13)
_cell_length_b                   26.680(5)
_cell_length_c                   10.486(2)
_cell_angle_alpha                90
_cell_angle_beta                 106.25(3)
_cell_angle_gamma                90
_cell_volume                     1804.09
loop_
_atom_site_label
_atom_site_type_symbol
_atom_site_fract_x
_atom_site_fract_y
_atom_site_fract_z
C1 C 0.1352(4) 0.69201(10) 0.1536(3)
C2 C 0.2749(4) 0.71236(10) 0.2681(3)
C3 C 0.2371(5) 0.70852(11) 0.3895(3)
H1 H 0.3297 0.7224 0.4641
C4 C 0.0625(5) 0.68411(11) 0.4015(3)
C5 C -0.0780(4) 0.66228(10) 0.2912(3)
C6 C -0.0403(4) 0.66755(11) 0.1684(3)
H2 H -0.1352 0.6544 0.0936
C7 C -0.3676(4) 0.60844(11) 0.2013(3)
H3 H -0.4177 0.6309 0.1263
H4 H -0.4870 0.5959 0.2262
C8 C -0.2553(4) 0.56432(10) 0.1587(3)
C9 C 0.0325(5) 0.67362(10) -0.0780(3)
H5 H 0.0659 0.6846 -0.1579
H6 H -0.1077 0.6845 -0.0844
C10 C 0.0404(4) 0.61648(10) -0.0717(3)
C11 C 0.3955(6) 0.57113(15) -0.2572(4)
H7 H 0.4888 0.5910 -0.1956
C12 C 0.2469(11) 0.5435(3) -0.4842(7)
H8 H 0.2685 0.5083 -0.4654
H9 H 0.2644 0.5505 -0.5702
H10 H 0.1091 0.5525 -0.4832
C13 C 0.5474(8) 0.6046(3) -0.4249(6)
H11 H 0.6035 0.6292 -0.3578
H12 H 0.4778 0.6211 -0.5066
H13 H 0.6578 0.5842 -0.4381
Cu1 Cu 0.27678(5) 0.529302(12) -0.03563(4)
N1 N 0.0280(5) 0.68213(12) 0.5328(3)
N2 N 0.4621(4) 0.73981(10) 0.2642(3)
N3 N 0.3991(6) 0.57271(16) -0.3823(4)
O1 O 0.2123(3) 0.59781(8) -0.0066(2)
O2 O -0.1144(3) 0.59307(8) -0.1315(3)
O3 O 0.1734(3) 0.69724(8) 0.0356(2)
O4 O -0.3697(3) 0.53844(7) 0.0628(2)
O5 O -0.0728(3) 0.55620(8) 0.2151(2)
O6 O -0.2387(3) 0.63600(8) 0.3100(2)
O7 O -0.1495(6) 0.68603(18) 0.5399(4)
O8 O 0.1773(5) 0.68185(13) 0.6291(3)
O9 O 0.5310(5) 0.76994(13) 0.3533(3)
O10 O 0.5368(4) 0.73249(10) 0.1727(3)
O11 O 0.2753(4) 0.54480(9) -0.2184(2)
O12 O 0.2114(3) 0.50618(8) 0.1260(2)
H14 H 0.1700 0.4761 0.1266
H15 H 0.1235 0.5211 0.1573
Cu1_2 Cu -0.72322(5) 0.529302(12) -0.03563(4)
Cu1B Cu -0.27678(5) 0.470698(12) 0.03563(4)
O4_2 O 0.6303(3) 0.53844(7) 0.0628(2)
O4B O 0.3697(3) 0.46156(7) -0.0628(2)
loop_
_geom_bond_atom_site_label_1
_geom_bond_atom_site_label_2
_geom_bond_site_symmetry_1
_geom_bond_site_symmetry_2
C1 C2 1_555 1_555
C2 C3 1_555 1_555
C3 H1 1_555 1_555
C4 C3 1_555 1_555
C5 C4 1_555 1_555
C6 C1 1_555 1_555
H2 C6 1_555 1_555
C7 H3 1_555 1_555
H4 C7 1_555 1_555
C8 C7 1_555 1_555
C9 H5 1_555 1_555
H6 C9 1_555 1_555
C10 C9 1_555 1_555
C11 H7 1_555 1_555
C12 H8 1_555 1_555
H9 C12 1_555 1_555
H10 C12 1_555 1_555
C13 H11 1_555 1_555
H12 C13 1_555 1_555
H13 C13 1_555 1_555
Cu1 O1 1_555 1_555
N1 C4 1_555 1_555
N2 C2 1_555 1_555
N3 C11 1_555 1_555
O1 C10 1_555 1_555
O2 C10 1_555 1_555
O3 C1 1_555 1_555
O4 C8 1_555 1_555
O5 C8 1_555 1_555
O6 C5 1_555 1_555
O7 N1 1_555 1_555
O8 N1 1_555 1_555
O9 N2 1_555 1_555
O10 N2 1_555 1_555
O11 C11 1_555 1_555
O12 Cu1 1_555 1_555
H14 O12 1_555 1_555
H15 O12 1_555 1_555
Cu1_2 O4 1_555 1_555
Cu1B O4 1_555 1_555
O4_2 Cu1 1_555 1_555
O4B Cu1 1_555 1_555
C5 C6 1_555 1_555
C7 O6 1_555 1_555
C9 O3 1_555 1_555
C12 N3 1_555 1_555
C13 N3 1_555 1_555
Cu1 O11 1_555 1_555

#END
