
#######################################################################
#
#                 Cambridge Crystallographic Data Centre
#                                CCDC 
#
#######################################################################
#
# If this CIF has been generated from an entry in the Cambridge 
# Structural Database, then it will include bibliographic, chemical, 
# crystal, experimental, refinement or atomic coordinate data resulting 
# from the CCDC's data processing and validation procedures.
#
#######################################################################

data_TECQUO
_symmetry_cell_setting           orthorhombic
_symmetry_space_group_name_H-M   'P b c a'
_symmetry_Int_Tables_number      61
_space_group_name_Hall           '-P 2ac 2ab'
loop_
_symmetry_equiv_pos_site_id
_symmetry_equiv_pos_as_xyz
1 x,y,z
2 1/2-x,-y,1/2+z
3 -x,1/2+y,1/2-z
4 1/2+x,1/2-y,-z
5 -x,-y,-z
6 1/2+x,y,1/2-z
7 x,1/2-y,1/2+z
8 1/2-x,1/2+y,z
_cell_length_a                   14.0586(3)
_cell_length_b                   6.94450(10)
_cell_length_c                   21.9664(5)
_cell_angle_alpha                90
_cell_angle_beta                 90
_cell_angle_gamma                90
_cell_volume                     2144.58
loop_
_atom_site_label
_atom_site_type_symbol
_atom_site_fract_x
_atom_site_fract_y
_atom_site_fract_z
Nd1 Nd 0.832364(10) 0.52097(3) 0.554568(7)
O1 O 0.8628(2) 0.5419(4) 0.44793(8)
O2 O 1.00582(13) 0.4201(4) 0.43186(9)
C1 C 0.92379(18) 0.4663(4) 0.41427(11)
C2 C 0.89783(18) 0.4245(4) 0.34924(11)
C3 C 0.96276(19) 0.3361(5) 0.31054(12)
H1 H 1.0228 0.3031 0.3249
C4 C 0.9384(2) 0.2967(5) 0.25023(12)
H2 H 0.9818 0.2372 0.2244
C5 C 0.84875(19) 0.3470(4) 0.22905(12)
C6 C 0.8221(2) 0.2968(5) 0.16437(12)
C7 C 0.7835(2) 0.4350(5) 0.26754(12)
H3 H 0.7234 0.4679 0.2532
C8 C 0.8084(3) 0.4739(5) 0.32764(16)
H4 H 0.7648 0.5333 0.3534
O3 O 0.87942(16) 0.1950(3) 0.13464(9)
O4 O 0.74357(14) 0.3570(3) 0.14413(8)
O5 O 0.67319(11) 0.6781(3) 0.51702(9)
O6 O 0.66501(12) 0.3775(4) 0.54481(11)
C9 C 0.6243(2) 0.5333(4) 0.53060(14)
C10 C 0.5164(2) 0.5432(4) 0.53042(16)
H5 H 0.4953 0.6757 0.5340
H6 H 0.4905 0.4702 0.5642
Nd1D Nd 1.167636(10) 0.47903(3) 0.445432(7)
Nd1F Nd 0.832364(10) -0.02097(3) 0.054568(7)
Nd1A Nd 0.667636(10) 0.47903(3) 0.054568(7)
Nd1G Nd 0.667636(10) 1.02097(3) 0.554568(7)
Nd1G_2 Nd 0.667636(10) 0.02097(3) 0.554568(7)
Nd1D_2 Nd 0.167636(10) 0.47903(3) 0.445432(7)
Nd1C Nd 0.332364(10) -0.02097(3) 0.445432(7)
Nd1C_2 Nd 0.332364(10) 0.97903(3) 0.445432(7)
Nd1B Nd 1.167636(10) 1.02097(3) 0.945432(7)
Nd1E Nd 1.332364(10) 0.52097(3) 0.945432(7)
O1D O 1.1372(2) 0.4581(4) 0.55207(8)
O2D O 0.99418(13) 0.5799(4) 0.56814(9)
C1D C 1.07621(18) 0.5337(4) 0.58573(11)
C2D C 1.10217(18) 0.5755(4) 0.65076(11)
C3D C 1.03724(19) 0.6639(5) 0.68946(12)
H1D H 0.9772 0.6969 0.6751
C4D C 1.0616(2) 0.7033(5) 0.74977(12)
H2D H 1.0182 0.7628 0.7756
C5D C 1.15125(19) 0.6530(4) 0.77095(12)
C6D C 1.1779(2) 0.7032(5) 0.83563(12)
C7D C 1.2165(2) 0.5650(5) 0.73246(12)
H3D H 1.2766 0.5321 0.7468
C8D C 1.1916(3) 0.5261(5) 0.67236(16)
H4D H 1.2352 0.4667 0.6466
O3D O 1.12058(16) 0.8050(3) 0.86536(9)
O3F O 0.87942(16) 0.3050(3) 0.63464(9)
O3B O 1.12058(16) 0.6950(3) 0.36536(9)
O4D O 1.25643(14) 0.6430(3) 0.85587(8)
O4A O 0.75643(14) 0.6430(3) 0.64413(8)
O4E O 1.24357(14) 0.3570(3) 0.35587(8)
O5D O 0.32681(11) 0.3219(3) 0.48298(9)
O5G O 0.82681(11) 0.1781(3) 0.51702(9)
O5D_2 O 1.32681(11) 0.3219(3) 0.48298(9)
O5C O 1.17319(11) 0.8219(3) 0.48298(9)
O6D O 0.33499(12) 0.6225(4) 0.45519(11)
O6G O 0.83499(12) 0.8775(4) 0.54481(11)
O6D_2 O 1.33499(12) 0.6225(4) 0.45519(11)
O6C O 1.16501(12) 0.1225(4) 0.45519(11)
C9D C 0.3757(2) 0.4667(4) 0.46940(14)
C10D C 0.4836(2) 0.4568(4) 0.46958(16)
H5D H 0.5047 0.3243 0.4660
H6D H 0.5095 0.5298 0.4358
loop_
_geom_bond_atom_site_label_1
_geom_bond_atom_site_label_2
_geom_bond_site_symmetry_1
_geom_bond_site_symmetry_2
Nd1 O1 1_555 1_555
O1 C1 1_555 1_555
O2 C1 1_555 1_555
C1 C2 1_555 1_555
C2 C3 1_555 1_555
C3 H1 1_555 1_555
C4 C3 1_555 1_555
H2 C4 1_555 1_555
C5 C4 1_555 1_555
C6 C5 1_555 1_555
C7 C5 1_555 1_555
H3 C7 1_555 1_555
C8 C2 1_555 1_555
H4 C8 1_555 1_555
O3 C6 1_555 1_555
O4 C6 1_555 1_555
O5 Nd1 1_555 1_555
O6 Nd1 1_555 1_555
C9 O5 1_555 1_555
C10 C9 1_555 1_555
H5 C10 1_555 1_555
H6 C10 1_555 1_555
Nd1D O2 1_555 1_555
Nd1F O3 1_555 1_555
Nd1A O4 1_555 1_555
Nd1G O5 1_555 1_555
Nd1G_2 O6 1_555 1_555
Nd1D_2 O5D 1_555 1_555
Nd1C O5D 1_555 1_555
Nd1C_2 O6D 1_555 1_555
Nd1B O3D 1_555 1_555
Nd1E O4D 1_555 1_555
O1D Nd1D 1_555 1_555
O2D Nd1 1_555 1_555
C1D O1D 1_555 1_555
C2D C1D 1_555 1_555
C3D C2D 1_555 1_555
H1D C3D 1_555 1_555
C4D C3D 1_555 1_555
H2D C4D 1_555 1_555
C5D C4D 1_555 1_555
C6D C5D 1_555 1_555
C7D C5D 1_555 1_555
H3D C7D 1_555 1_555
C8D C2D 1_555 1_555
H4D C8D 1_555 1_555
O3D C6D 1_555 1_555
O3F Nd1 1_555 1_555
O3B Nd1D 1_555 1_555
O4D C6D 1_555 1_555
O4A Nd1 1_555 1_555
O4E Nd1D 1_555 1_555
O5D C9D 1_555 1_555
O5G Nd1 1_555 1_555
O5D_2 Nd1D 1_555 1_555
O5C Nd1D 1_555 1_555
O6D Nd1D_2 1_555 1_555
O6G Nd1 1_555 1_555
O6D_2 Nd1D 1_555 1_555
O6C Nd1D 1_555 1_555
C9D O6D 1_555 1_555
C10D C10 1_555 1_555
H5D C10D 1_555 1_555
H6D C10D 1_555 1_555
C7 C8 1_555 1_555
O6 C9 1_555 1_555
Nd1G O6G 1_555 1_555
Nd1G_2 O5G 1_555 1_555
O2D C1D 1_555 1_555
C7D C8D 1_555 1_555
C9D C10D 1_555 1_555

#END
