
#######################################################################
#
#                 Cambridge Crystallographic Data Centre
#                                CCDC 
#
#######################################################################
#
# If this CIF has been generated from an entry in the Cambridge 
# Structural Database, then it will include bibliographic, chemical, 
# crystal, experimental, refinement or atomic coordinate data resulting 
# from the CCDC's data processing and validation procedures.
#
#######################################################################

data_TECSOJ
_symmetry_cell_setting           triclinic
_symmetry_space_group_name_H-M   'P 1'
_symmetry_Int_Tables_number      1
_space_group_name_Hall           'P 1'
loop_
_symmetry_equiv_pos_site_id
_symmetry_equiv_pos_as_xyz
1 x,y,z
_cell_length_a                   6.330(3)
_cell_length_b                   8.052(4)
_cell_length_c                   10.387(5)
_cell_angle_alpha                96.26(2)
_cell_angle_beta                 105.74(2)
_cell_angle_gamma                106.22(2)
_cell_volume                     479.399
loop_
_atom_site_label
_atom_site_type_symbol
_atom_site_fract_x
_atom_site_fract_y
_atom_site_fract_z
Ca1 Ca 0.31788(7) 0.69835(6) 0.77274(5)
C1 C -0.0299(5) 0.3443(5) 0.8192(4)
C2 C -0.2042(5) 0.3737(4) 0.6977(4)
C3 C -0.4228(5) 0.3718(5) 0.7360(3)
C4 C -0.6226(6) 0.3550(5) 0.6076(4)
O1 O 0.1650(4) 0.4580(3) 0.8727(3)
O2 O -0.0977(5) 0.2026(3) 0.8587(3)
O3 O -0.1031(4) 0.5331(3) 0.6590(3)
O4 O -0.3822(3) 0.5294(2) 0.8298(2)
O5 O -0.6892(4) 0.4858(3) 0.5893(3)
O6 O -0.7056(4) 0.2069(3) 0.5271(3)
O7 O 0.6525(5) 0.8750(4) 0.7223(3)
O8 O 0.5715(5) 0.8206(4) 1.0038(3)
O9 O 0.1624(5) 0.8604(4) 0.6034(3)
O10 O 0.1173(5) 0.8617(4) 0.8867(3)
H1 H -0.2465(5) 0.2757(4) 0.6208(4)
H2 H -0.4669(5) 0.2701(5) 0.7784(3)
H3 H -0.177(7) 0.528(6) 0.571(2)
H4 H -0.338(7) 0.500(5) 0.910(2)
H5 H 0.727(6) 0.991(2) 0.753(4)
H6 H 0.676(7) 0.836(4) 0.643(2)
H7 H 0.629(5) 0.936(2) 1.045(3)
H8 H 0.675(5) 0.764(4) 1.032(4)
H9 H 0.015(3) 0.821(4) 0.547(3)
H10 H 0.225(5) 0.978(2) 0.617(3)
H11 H -0.024(3) 0.825(5) 0.822(2)
H12 H 0.101(6) 0.846(5) 0.969(2)
O4_2 O 0.6178(3) 0.5294(2) 0.8298(2)
O5_2 O 0.3108(4) 0.4858(3) 0.5893(3)
Ca1_2 Ca -0.68212(7) 0.69835(6) 0.77274(5)
H4_2 H 0.662(7) 0.500(5) 0.910(2)
Ca2 Ca 0.68211(8) 0.30163(6) 0.22726(5)
C5 C 0.9929(6) 0.6643(5) 0.1736(3)
C6 C 1.1746(6) 0.6409(5) 0.2949(4)
C7 C 1.3883(6) 0.6365(5) 0.2540(4)
C8 C 1.5907(6) 0.6501(5) 0.3772(4)
O11 O 0.7993(4) 0.5454(4) 0.1207(3)
O12 O 1.0513(5) 0.8060(3) 0.1321(3)
O13 O 1.0777(4) 0.4827(3) 0.3356(3)
O14 O 1.6487(4) 0.5133(3) 0.3931(3)
O15 O 1.6904(5) 0.7957(3) 0.4587(3)
O16 O 0.3284(5) 0.1319(4) 0.2649(3)
O17 O 0.4022(4) 0.2262(4) 0.0022(3)
O18 O 0.8234(4) 0.1342(4) 0.3880(3)
O19 O 0.8793(5) 0.1617(4) 0.1043(3)
H13 H 1.2199(6) 0.7407(5) 0.3709(4)
H14 H 1.3505(6) 0.5273(5) 0.1900(4)
H15 H 1.4321(6) 0.7338(5) 0.2087(4)
H16 H 1.150(8) 0.496(6) 0.425(1)
H17 H 0.253(3) 0.018(2) 0.227(3)
H18 H 0.342(8) 0.153(5) 0.355(1)
H19 H 0.343(5) 0.308(3) -0.028(4)
H20 H 0.302(5) 0.116(2) -0.031(4)
H21 H 0.977(2) 0.153(5) 0.410(4)
H22 H 0.754(5) 0.042(3) 0.422(4)
H23 H 0.915(6) 0.216(4) 0.038(3)
H24 H 0.968(5) 0.096(4) 0.134(3)
O14_2 O 0.6487(4) 0.5133(3) 0.3931(3)
Ca2_2 Ca 1.68211(8) 0.30163(6) 0.22726(5)
loop_
_geom_bond_atom_site_label_1
_geom_bond_atom_site_label_2
_geom_bond_site_symmetry_1
_geom_bond_site_symmetry_2
Ca1 O1 1_555 1_555
C1 C2 1_555 1_555
C2 C3 1_555 1_555
C3 C4 1_555 1_555
C4 O5 1_555 1_555
O1 C1 1_555 1_555
O2 C1 1_555 1_555
O3 Ca1 1_555 1_555
O4 C3 1_555 1_555
O5 Ca1_2 1_555 1_555
O6 C4 1_555 1_555
O7 Ca1 1_555 1_555
O8 Ca1 1_555 1_555
O9 Ca1 1_555 1_555
O10 Ca1 1_555 1_555
H1 C2 1_555 1_555
H2 C3 1_555 1_555
H3 O3 1_555 1_555
H4 O4 1_555 1_555
H5 O7 1_555 1_555
H6 O7 1_555 1_555
H7 O8 1_555 1_555
H8 O8 1_555 1_555
H9 O9 1_555 1_555
H10 O9 1_555 1_555
H11 O10 1_555 1_555
H12 O10 1_555 1_555
Ca2 O11 1_555 1_555
C5 C6 1_555 1_555
C6 C7 1_555 1_555
C7 C8 1_555 1_555
C8 O14 1_555 1_555
O11 C5 1_555 1_555
O12 C5 1_555 1_555
O13 Ca2 1_555 1_555
O14 Ca2_2 1_555 1_555
O15 C8 1_555 1_555
O16 Ca2 1_555 1_555
O17 Ca2 1_555 1_555
O18 Ca2 1_555 1_555
O19 Ca2 1_555 1_555
H13 C6 1_555 1_555
H14 C7 1_555 1_555
H15 C7 1_555 1_555
H16 O13 1_555 1_555
H17 O16 1_555 1_555
H18 O16 1_555 1_555
H19 O17 1_555 1_555
H20 O17 1_555 1_555
H21 O18 1_555 1_555
H22 O18 1_555 1_555
H23 O19 1_555 1_555
H24 O19 1_555 1_555
O4_2 Ca1 1_555 1_555
O5_2 Ca1 1_555 1_555
Ca1_2 O4 1_555 1_555
H4_2 O4_2 1_555 1_555
O14_2 Ca2 1_555 1_555
C2 O3 1_555 1_555
C6 O13 1_555 1_555

#END
