
#######################################################################
#
#                 Cambridge Crystallographic Data Centre
#                                CCDC 
#
#######################################################################
#
# If this CIF has been generated from an entry in the Cambridge 
# Structural Database, then it will include bibliographic, chemical, 
# crystal, experimental, refinement or atomic coordinate data resulting 
# from the CCDC's data processing and validation procedures.
#
#######################################################################

data_TECTUS
_symmetry_cell_setting           monoclinic
_symmetry_space_group_name_H-M   'C 2/c'
_symmetry_Int_Tables_number      15
_space_group_name_Hall           '-C 2yn'
loop_
_symmetry_equiv_pos_site_id
_symmetry_equiv_pos_as_xyz
1 x,y,z
2 -x,y,1/2-z
3 1/2+x,1/2+y,z
4 1/2-x,1/2+y,1/2-z
5 -x,-y,-z
6 x,-y,1/2+z
7 1/2-x,1/2-y,-z
8 1/2+x,1/2-y,1/2+z
_cell_length_a                   16.552(7)
_cell_length_b                   10.961(5)
_cell_length_c                   18.691(11)
_cell_angle_alpha                90
_cell_angle_beta                 111.514(7)
_cell_angle_gamma                90
_cell_volume                     3154.78
loop_
_atom_site_label
_atom_site_type_symbol
_atom_site_fract_x
_atom_site_fract_y
_atom_site_fract_z
Ca1 Ca 0.0000 0.45626(8) -0.2500
Ca2 Ca 0.14554(4) 0.59582(6) -0.04872(4)
O1 O 0.00100(15) 0.6054(2) -0.16148(13)
O2 O 0.00891(15) 0.6999(2) -0.05503(13)
O3 O -0.35523(14) 0.9791(2) -0.17152(13)
O4 O -0.23893(16) 0.9775(2) -0.06533(13)
O5 O -0.29960(18) 0.8958(2) -0.41576(15)
O6 O 0.0819(2) 0.4122(2) -0.02966(16)
H1 H 0.0576 0.3931 -0.0065
H2 H 0.0563 0.3788 -0.0727
O7 O -0.00366(18) 0.2952(2) -0.17025(15)
O8 O -0.19381(17) 0.7658(2) -0.40978(14)
N1 N 0.0587(2) 0.1169(3) -0.1218(2)
C1 C -0.1354(2) 0.7575(3) -0.25027(18)
H3 H -0.1047 0.7151 -0.2752
C2 C -0.1086(2) 0.7524(3) -0.17077(18)
C3 C -0.22814(19) 0.8825(3) -0.17587(18)
C4 C -0.0283(2) 0.6807(3) -0.12630(19)
C5 C -0.15404(19) 0.8159(3) -0.13337(17)
H4 H -0.1352 0.8140 -0.0800
C6 C -0.2767(2) 0.9503(3) -0.13462(19)
C7 C -0.2359(2) 0.8290(3) -0.37936(19)
C8 C -0.2548(2) 0.8872(3) -0.25525(19)
H5 H -0.3041 0.9315 -0.2836
C9 C -0.2081(2) 0.8259(3) -0.29293(18)
C10 C -0.0092(3) 0.1869(3) -0.1494(2)
C11 C -0.0954(3) 0.1391(5) -0.1533(5)
H6 H -0.0958 0.1320 -0.1023
H7 H -0.1052 0.0603 -0.1775
H8 H -0.1404 0.1941 -0.1828
C12 C 0.1431(3) 0.1602(4) -0.1173(4)
H9 H 0.1360 0.2174 -0.1581
H10 H 0.1775 0.0924 -0.1223
H11 H 0.1719 0.1995 -0.0686
C13 C 0.0552(3) -0.0082(4) -0.0936(3)
H12 H 0.0038 -0.0174 -0.0817
H13 H 0.1055 -0.0226 -0.0481
H14 H 0.0540 -0.0659 -0.1326
Ca1B Ca -0.5000 0.95626(8) -0.2500
Ca1B_2 Ca 0.5000 -0.04374(8) -0.2500
Ca2B Ca 0.64554(4) 0.09582(6) -0.04872(4)
Ca2B_2 Ca -0.35446(4) 1.09582(6) -0.04872(4)
Ca2G Ca -0.35446(4) 0.90418(6) -0.54872(4)
Ca2A Ca -0.14554(4) 0.59582(6) -0.45128(4)
Ca2E Ca 0.14554(4) 0.40418(6) -0.54872(4)
Ca2C Ca 0.35446(4) 0.09582(6) -0.45128(4)
O1B O 0.50100(15) 0.1054(2) -0.16148(13)
O1A O -0.00100(15) 0.6054(2) -0.33852(13)
O2B O 0.50891(15) 0.1999(2) -0.05503(13)
O3B O 0.14477(14) 0.4791(2) -0.17152(13)
O3C O -0.14477(14) 0.4791(2) -0.32848(13)
O3_2 O 0.64477(14) -0.0209(2) -0.17152(13)
O4B O 0.26107(16) 0.4775(2) -0.06533(13)
O4_2 O 0.76107(16) -0.0225(2) -0.06533(13)
O5B O 0.20040(18) 0.3958(2) -0.41576(15)
O5G O 0.20040(18) 0.6042(2) 0.08424(15)
O5E O 0.70040(18) 0.1042(2) 0.08424(15)
O6B O 0.5819(2) -0.0878(2) -0.02966(16)
H1B H 0.5576 -0.1069 -0.0065
H2B H 0.5563 -0.1212 -0.0727
O7A O 0.00366(18) 0.2952(2) -0.32975(15)
O8B O 0.30619(17) 0.2658(2) -0.40978(14)
O8A O 0.19381(17) 0.7658(2) -0.09022(14)
O8C O 0.69381(17) 0.2658(2) -0.09022(14)
N1A N -0.0587(2) 0.1169(3) -0.3782(2)
C1B C 0.3646(2) 0.2575(3) -0.25027(18)
H3B H 0.3953 0.2151 -0.2752
C2B C 0.3914(2) 0.2524(3) -0.17077(18)
C3B C 0.27186(19) 0.3825(3) -0.17587(18)
C4B C 0.4717(2) 0.1807(3) -0.12630(19)
C5B C 0.34596(19) 0.3159(3) -0.13337(17)
H4B H 0.3648 0.3140 -0.0800
C6B C 0.2233(2) 0.4503(3) -0.13462(19)
C7B C 0.2641(2) 0.3290(3) -0.37936(19)
C8B C 0.2452(2) 0.3872(3) -0.25525(19)
H5B H 0.1959 0.4315 -0.2836
C9B C 0.2919(2) 0.3259(3) -0.29293(18)
C10A C 0.0092(3) 0.1869(3) -0.3506(2)
C11A C 0.0954(3) 0.1391(5) -0.3467(5)
H6A H 0.0958 0.1320 -0.3977
H7A H 0.1052 0.0603 -0.3225
H8A H 0.1404 0.1941 -0.3172
C12A C -0.1431(3) 0.1602(4) -0.3827(4)
H9A H -0.1360 0.2174 -0.3419
H10A H -0.1775 0.0924 -0.3777
H11A H -0.1719 0.1995 -0.4314
C13A C -0.0552(3) -0.0082(4) -0.4064(3)
H12A H -0.0038 -0.0174 -0.4183
H13A H -0.1055 -0.0226 -0.4519
H14A H -0.0540 -0.0659 -0.3674
loop_
_geom_bond_atom_site_label_1
_geom_bond_atom_site_label_2
_geom_bond_site_symmetry_1
_geom_bond_site_symmetry_2
Ca1 O1 1_555 1_555
Ca2 O1 1_555 1_555
O1 C4 1_555 1_555
O2 Ca2 1_555 1_555
O3 C6 1_555 1_555
O4 C6 1_555 1_555
O5 C7 1_555 1_555
O6 Ca2 1_555 1_555
H1 O6 1_555 1_555
H2 O6 1_555 1_555
O7 Ca1 1_555 1_555
O8 C7 1_555 1_555
N1 C10 1_555 1_555
C1 H3 1_555 1_555
C2 C1 1_555 1_555
C3 C5 1_555 1_555
C4 O2 1_555 1_555
C5 C2 1_555 1_555
H4 C5 1_555 1_555
C6 C3 1_555 1_555
C7 C9 1_555 1_555
C8 C3 1_555 1_555
H5 C8 1_555 1_555
C9 C1 1_555 1_555
C10 O7 1_555 1_555
C11 C10 1_555 1_555
H6 C11 1_555 1_555
H7 C11 1_555 1_555
H8 C11 1_555 1_555
C12 N1 1_555 1_555
H9 C12 1_555 1_555
H10 C12 1_555 1_555
H11 C12 1_555 1_555
C13 N1 1_555 1_555
H12 C13 1_555 1_555
H13 C13 1_555 1_555
H14 C13 1_555 1_555
Ca1B O3 1_555 1_555
Ca1B_2 O1B 1_555 1_555
Ca2B O1B 1_555 1_555
Ca2B_2 O3 1_555 1_555
Ca2G O5 1_555 1_555
Ca2A O8 1_555 1_555
Ca2E O5B 1_555 1_555
Ca2C O8B 1_555 1_555
O1B C4B 1_555 1_555
O1A Ca1 1_555 1_555
O2B Ca2B 1_555 1_555
O3B Ca1 1_555 1_555
O3C Ca1 1_555 1_555
O3_2 Ca1B_2 1_555 1_555
O4B Ca2 1_555 1_555
O4_2 Ca2B 1_555 1_555
O5B C7B 1_555 1_555
O5G Ca2 1_555 1_555
O5E Ca2B 1_555 1_555
O6B Ca2B 1_555 1_555
H1B O6B 1_555 1_555
H2B O6B 1_555 1_555
O7A Ca1 1_555 1_555
O8B C7B 1_555 1_555
O8A Ca2 1_555 1_555
O8C Ca2B 1_555 1_555
N1A C10A 1_555 1_555
C1B H3B 1_555 1_555
C2B C1B 1_555 1_555
C3B C5B 1_555 1_555
C4B O2B 1_555 1_555
C5B C2B 1_555 1_555
H4B C5B 1_555 1_555
C6B O3B 1_555 1_555
C7B C9B 1_555 1_555
C8B C3B 1_555 1_555
H5B C8B 1_555 1_555
C9B C1B 1_555 1_555
C10A O7A 1_555 1_555
C11A C10A 1_555 1_555
H6A C11A 1_555 1_555
H7A C11A 1_555 1_555
H8A C11A 1_555 1_555
C12A N1A 1_555 1_555
H9A C12A 1_555 1_555
H10A C12A 1_555 1_555
H11A C12A 1_555 1_555
C13A N1A 1_555 1_555
H12A C13A 1_555 1_555
H13A C13A 1_555 1_555
H14A C13A 1_555 1_555
Ca2 O3B 1_555 1_555
O4 Ca2B_2 1_555 1_555
C2 C4 1_555 1_555
C8 C9 1_555 1_555
Ca2B O3_2 1_555 1_555
Ca2A O1A 1_555 1_555
Ca2A O3C 1_555 1_555
O4B C6B 1_555 1_555
C2B C4B 1_555 1_555
C3B C6B 1_555 1_555
C8B C9B 1_555 1_555

#END
