
#######################################################################
#
#                 Cambridge Crystallographic Data Centre
#                                CCDC 
#
#######################################################################
#
# If this CIF has been generated from an entry in the Cambridge 
# Structural Database, then it will include bibliographic, chemical, 
# crystal, experimental, refinement or atomic coordinate data resulting 
# from the CCDC's data processing and validation procedures.
#
#######################################################################

data_TECTOL01
_symmetry_cell_setting           monoclinic
_symmetry_space_group_name_H-M   'C 2/c'
_symmetry_Int_Tables_number      15
_space_group_name_Hall           '-C 2yn'
loop_
_symmetry_equiv_pos_site_id
_symmetry_equiv_pos_as_xyz
1 x,y,z
2 1/2+x,1/2+y,z
3 -x,y,1/2-z
4 1/2-x,1/2+y,1/2-z
5 -x,-y,-z
6 1/2-x,1/2-y,-z
7 x,-y,1/2+z
8 1/2+x,1/2-y,1/2+z
_cell_length_a                   17.197(3)
_cell_length_b                   9.6219(19)
_cell_length_c                   7.3560(15)
_cell_angle_alpha                90
_cell_angle_beta                 108.67(3)
_cell_angle_gamma                90
_cell_volume                     1153.13
loop_
_atom_site_label
_atom_site_type_symbol
_atom_site_fract_x
_atom_site_fract_y
_atom_site_fract_z
Cd1 Cd 0.0000 0.91414(3) 0.2500
Br1 Br 0.09843(3) 1.09330(4) 0.49649(6)
N1 N -0.0732(2) 0.7148(3) 0.1085(5)
C1 C -0.0414(3) 0.5907(3) 0.1773(6)
C2 C -0.1474(3) 0.7194(5) -0.0228(7)
H1 H -0.1688 0.8054 -0.0717
C3 C -0.1941(3) 0.6022(5) -0.0893(7)
H2 H -0.2461 0.6086 -0.1797
C4 C -0.0850(3) 0.4691(4) 0.1130(6)
H3 H -0.0623 0.3834 0.1593
C5 C -0.1614(3) 0.4766(5) -0.0184(7)
H4 H -0.1914 0.3957 -0.0600
Cd1F Cd 0.0000 1.08586(3) 0.7500
Cd1F_2 Cd 0.0000 1.08586(3) -0.2500
Br1F Br 0.09843(3) 0.90670(4) -0.00351(6)
Br1D Br -0.09843(3) 0.90670(4) 0.50351(6)
Br1B Br -0.09843(3) 1.09330(4) 0.00351(6)
N1B N 0.0732(2) 0.7148(3) 0.3915(5)
C1B C 0.0414(3) 0.5907(3) 0.3227(6)
C2B C 0.1474(3) 0.7194(5) 0.5228(7)
H1B H 0.1688 0.8054 0.5717
C3B C 0.1941(3) 0.6022(5) 0.5893(7)
H2B H 0.2461 0.6086 0.6797
C4B C 0.0850(3) 0.4691(4) 0.3870(6)
H3B H 0.0623 0.3834 0.3407
C5B C 0.1614(3) 0.4766(5) 0.5184(7)
H4B H 0.1914 0.3957 0.5600
loop_
_geom_bond_atom_site_label_1
_geom_bond_atom_site_label_2
_geom_bond_site_symmetry_1
_geom_bond_site_symmetry_2
Cd1 Br1 1_555 1_555
Br1 Cd1F 1_555 1_555
N1 Cd1 1_555 1_555
C1 N1 1_555 1_555
C2 N1 1_555 1_555
H1 C2 1_555 1_555
C3 C2 1_555 1_555
H2 C3 1_555 1_555
C4 C1 1_555 1_555
H3 C4 1_555 1_555
C5 C3 1_555 1_555
H4 C5 1_555 1_555
Cd1F Br1D 1_555 1_555
Cd1F_2 Br1F 1_555 1_555
Br1F Cd1 1_555 1_555
Br1D Cd1 1_555 1_555
Br1B Cd1 1_555 1_555
N1B Cd1 1_555 1_555
C1B C1 1_555 1_555
C2B N1B 1_555 1_555
H1B C2B 1_555 1_555
C3B C2B 1_555 1_555
H2B C3B 1_555 1_555
C4B C1B 1_555 1_555
H3B C4B 1_555 1_555
C5B C3B 1_555 1_555
H4B C5B 1_555 1_555
C4 C5 1_555 1_555
Cd1F_2 Br1B 1_555 1_555
N1B C1B 1_555 1_555
C4B C5B 1_555 1_555

#END
