
#######################################################################
#
#                 Cambridge Crystallographic Data Centre
#                                CCDC 
#
#######################################################################
#
# If this CIF has been generated from an entry in the Cambridge 
# Structural Database, then it will include bibliographic, chemical, 
# crystal, experimental, refinement or atomic coordinate data resulting 
# from the CCDC's data processing and validation procedures.
#
#######################################################################

data_TECVOO
_symmetry_cell_setting           rhombohedral
_symmetry_space_group_name_H-M   'R -3'
_symmetry_Int_Tables_number      148
_space_group_name_Hall           '-R 3'
loop_
_symmetry_equiv_pos_site_id
_symmetry_equiv_pos_as_xyz
1 x,y,z
2 -y,x-y,z
3 -x+y,-x,z
4 2/3+x,1/3+y,1/3+z
5 2/3-y,1/3+x-y,1/3+z
6 2/3-x+y,1/3-x,1/3+z
7 1/3+x,2/3+y,2/3+z
8 1/3-y,2/3+x-y,2/3+z
9 1/3-x+y,2/3-x,2/3+z
10 -x,-y,-z
11 y,-x+y,-z
12 x-y,x,-z
13 1/3-x,2/3-y,2/3-z
14 1/3+y,2/3-x+y,2/3-z
15 1/3+x-y,2/3+x,2/3-z
16 2/3-x,1/3-y,1/3-z
17 2/3+y,1/3-x+y,1/3-z
18 2/3+x-y,1/3+x,1/3-z
_cell_length_a                   8.9636(3)
_cell_length_b                   8.9636(3)
_cell_length_c                   19.2832(11)
_cell_angle_alpha                90
_cell_angle_beta                 90
_cell_angle_gamma                120
_cell_volume                     1341.76
loop_
_atom_site_label
_atom_site_type_symbol
_atom_site_fract_x
_atom_site_fract_y
_atom_site_fract_z
Ca1 Ca 0.3333 0.6667 -0.00637(4)
Ca2 Ca -0.3333 0.3333 -0.1667
O1 O 0.1176(2) 0.6686(2) -0.06511(11)
O2 O -0.1637(2) 0.5347(2) -0.08464(9)
C1 C -0.1588(3) 0.8492(3) -0.08937(13)
H1 H -0.2651 0.7482 -0.0898
C2 C -0.0079(3) 0.8404(3) -0.08906(13)
C3 C -0.0162(3) 0.6700(3) -0.07955(13)
Ca1A Ca 0.3333 1.6666 -0.00637(4)
Ca1I Ca -0.3333 0.3333 0.00637(4)
Ca1J Ca 0.6667 1.3334 0.00637(4)
Ca1B Ca -0.6666 0.6667 -0.00637(4)
Ca1K Ca -0.3334 1.3333 0.00637(4)
Ca1L Ca -1.0000 -0.0000 -0.32696(4)
Ca1F Ca -0.3334 0.3334 -0.33970(4)
Ca1M Ca -1.0000 -0.9999 -0.32696(4)
Ca1G Ca -1.3334 -0.6667 -0.33970(4)
Ca1N Ca -0.0001 -0.0000 -0.32696(4)
Ca1H Ca -0.3333 -0.6666 -0.33970(4)
Ca2A Ca 0.6667 1.3334 -0.1667
Ca2B Ca -0.3334 1.3333 -0.1667
Ca2M Ca -1.3334 -0.6667 -0.1666
Ca2N Ca -0.3333 -0.6666 -0.1666
O1A O 0.3314(2) 1.4490(3) -0.06511(11)
O1B O -0.4490(3) 0.8824(2) -0.06511(11)
O1L O -0.7843(2) -0.0019(2) -0.26822(11)
O1M O -0.9981(2) -0.7823(3) -0.26822(11)
O1N O -0.2177(3) -0.2157(2) -0.26822(11)
O1A_2 O 0.3314(2) 0.4490(3) -0.06511(11)
O1B_2 O 0.5510(3) 0.8824(2) -0.06511(11)
O1B_3 O 0.5510(3) 1.8824(2) -0.06511(11)
O1_2 O 0.1176(2) 1.6686(2) -0.06511(11)
O2A O 0.4653(2) 1.3016(3) -0.08464(9)
O2B O -0.3016(3) 1.1637(2) -0.08464(9)
O2L O -0.5030(2) 0.1320(2) -0.24869(9)
O2M O -1.1320(2) -0.6349(3) -0.24869(9)
O2N O -0.3651(3) -0.4970(2) -0.24869(9)
O2I O 0.1637(2) 0.4653(2) 0.08464(9)
O2J O 0.5347(2) 0.6984(3) 0.08464(9)
O2K O 0.3016(3) 0.8363(2) 0.08464(9)
O2M_2 O -0.1320(2) 0.3651(3) -0.24869(9)
O2N_2 O -0.3651(3) 0.5030(2) -0.24869(9)
O2A_2 O -0.5347(2) 0.3016(3) -0.08464(9)
O2B_2 O -0.3016(3) 0.1637(2) -0.08464(9)
O2J_2 O 0.5347(2) 1.6984(3) 0.08464(9)
O2K_2 O 0.3016(3) 1.8363(2) 0.08464(9)
O2I_2 O 0.1637(2) 1.4653(2) 0.08464(9)
C1B C 0.0080(4) 1.1588(3) -0.08937(13)
C1A C 0.1508(3) 0.9920(4) -0.08937(13)
C1L C -0.5079(3) -0.1825(3) -0.24396(13)
C1N C -0.6747(4) -0.4921(3) -0.24396(13)
C1M C -0.8175(3) -0.3253(4) -0.24396(13)
H1B H 0.0133 1.2651 -0.0898
H1A H 0.2518 0.9867 -0.0898
H1L H -0.4016 -0.0815 -0.2435
H1N H -0.6800 -0.5984 -0.2435
H1M H -0.9185 -0.3200 -0.2435
C2B C -0.1517(4) 1.0079(3) -0.08906(13)
C2A C 0.1596(3) 1.1517(4) -0.08906(13)
C2L C -0.6588(3) -0.1737(3) -0.24427(13)
C2N C -0.5150(4) -0.3412(3) -0.24427(13)
C2M C -0.8263(3) -0.4850(4) -0.24427(13)
C3A C 0.3300(3) 1.3138(4) -0.07955(13)
C3B C -0.3138(4) 1.0162(3) -0.07955(13)
C3L C -0.6505(3) -0.0033(3) -0.25378(13)
C3M C -0.9967(3) -0.6471(4) -0.25378(13)
C3N C -0.3529(4) -0.3495(3) -0.25378(13)
loop_
_geom_bond_atom_site_label_1
_geom_bond_atom_site_label_2
_geom_bond_site_symmetry_1
_geom_bond_site_symmetry_2
Ca1 O1 1_555 1_555
Ca2 O2 1_555 1_555
O1 C3 1_555 1_555
O2 C3 1_555 1_555
C1 H1 1_555 1_555
C2 C1 1_555 1_555
C3 C2 1_555 1_555
Ca1A O1A 1_555 1_555
Ca1I O2 1_555 1_555
Ca1J O2A 1_555 1_555
Ca1B O1B 1_555 1_555
Ca1K O2B 1_555 1_555
Ca1L O1L 1_555 1_555
Ca1F O2L 1_555 1_555
Ca1M O1M 1_555 1_555
Ca1G O2M 1_555 1_555
Ca1N O1N 1_555 1_555
Ca1H O2N 1_555 1_555
Ca2A O2A 1_555 1_555
Ca2B O2B 1_555 1_555
Ca2M O2M 1_555 1_555
Ca2N O2N 1_555 1_555
O1A C3A 1_555 1_555
O1B C3B 1_555 1_555
O1L C3L 1_555 1_555
O1M C3M 1_555 1_555
O1N C3N 1_555 1_555
O1A_2 Ca1 1_555 1_555
O1B_2 Ca1 1_555 1_555
O1B_3 Ca1A 1_555 1_555
O1_2 Ca1A 1_555 1_555
O2A C3A 1_555 1_555
O2B C3B 1_555 1_555
O2L Ca2 1_555 1_555
O2M C3M 1_555 1_555
O2N C3N 1_555 1_555
O2I Ca1 1_555 1_555
O2J Ca1 1_555 1_555
O2K Ca1 1_555 1_555
O2M_2 Ca2 1_555 1_555
O2N_2 Ca2 1_555 1_555
O2A_2 Ca2 1_555 1_555
O2B_2 Ca2 1_555 1_555
O2J_2 Ca1A 1_555 1_555
O2K_2 Ca1A 1_555 1_555
O2I_2 Ca1A 1_555 1_555
C1B H1B 1_555 1_555
C1A C2 1_555 1_555
C1L H1L 1_555 1_555
C1N H1N 1_555 1_555
C1M H1M 1_555 1_555
H1A C1A 1_555 1_555
C2B C1 1_555 1_555
C2A C1B 1_555 1_555
C2L C1L 1_555 1_555
C2N C1L 1_555 1_555
C2M C1N 1_555 1_555
C3A C2A 1_555 1_555
C3B C2B 1_555 1_555
C3L O2L 1_555 1_555
C3M C2M 1_555 1_555
C3N C2N 1_555 1_555
Ca1I O2A_2 1_555 1_555
Ca1I O2B_2 1_555 1_555
Ca1F O2M_2 1_555 1_555
Ca1F O2N_2 1_555 1_555
C1B C2B 1_555 1_555
C1A C2A 1_555 1_555
C1N C2N 1_555 1_555
C1M C2L 1_555 1_555
C1M C2M 1_555 1_555
C2L C3L 1_555 1_555

#END
