
#######################################################################
#
#                 Cambridge Crystallographic Data Centre
#                                CCDC 
#
#######################################################################
#
# If this CIF has been generated from an entry in the Cambridge 
# Structural Database, then it will include bibliographic, chemical, 
# crystal, experimental, refinement or atomic coordinate data resulting 
# from the CCDC's data processing and validation procedures.
#
#######################################################################

data_TECWOP
_symmetry_cell_setting           triclinic
_symmetry_space_group_name_H-M   'P -1'
_symmetry_Int_Tables_number      2
_space_group_name_Hall           '-P 1'
loop_
_symmetry_equiv_pos_site_id
_symmetry_equiv_pos_as_xyz
1 x,y,z
2 -x,-y,-z
_cell_length_a                   10.107(2)
_cell_length_b                   10.762(2)
_cell_length_c                   11.847(3)
_cell_angle_alpha                76.07(3)
_cell_angle_beta                 73.47(4)
_cell_angle_gamma                62.02(3)
_cell_volume                     1082.17
loop_
_atom_site_label
_atom_site_type_symbol
_atom_site_fract_x
_atom_site_fract_y
_atom_site_fract_z
Cd1 Cd -0.04615(3) 1.03652(3) 0.35283(2)
N1 N 0.1083(4) 0.8251(3) 0.2782(3)
N2 N 0.5597(3) 0.1435(3) 0.1056(3)
O1 O -0.0361(3) 0.8736(3) 0.5430(2)
O2 O -0.2230(3) 0.9393(3) 0.6995(3)
O3 O -0.7176(3) 0.9581(3) 0.6606(2)
O4 O -0.7093(3) 0.8146(3) 0.5509(3)
O5 O 1.0502(5) -0.3598(4) -0.1321(4)
O6 O 1.0510(3) -0.1487(3) -0.1627(2)
C1 C -0.1641(4) 0.8808(4) 0.6083(3)
C2 C -0.2408(4) 0.8121(4) 0.5696(3)
C3 C -0.1554(4) 0.6993(4) 0.5035(4)
H3 H -0.0496 0.6652 0.4826
C4 C -0.2290(5) 0.6372(5) 0.4685(4)
H4 H -0.1717 0.5599 0.4260
C5 C -0.3857(5) 0.6896(5) 0.4967(4)
H5 H -0.4338 0.6485 0.4719
C6 C -0.3982(4) 0.8637(4) 0.5981(3)
H6 H -0.4556 0.9398 0.6421
C7 C -0.4723(4) 0.8029(4) 0.5616(3)
C8 C -0.6439(4) 0.8633(4) 0.5939(3)
C9 C 0.2474(5) 0.7455(5) 0.3019(4)
H7 H 0.2818 0.7793 0.3475
C10 C 0.3437(5) 0.6151(5) 0.2621(4)
H8 H 0.4408 0.5634 0.2798
C11 C 0.0602(5) 0.7748(5) 0.2137(4)
H9 H -0.0371 0.8290 0.1969
C12 C 0.1479(5) 0.6463(5) 0.1709(4)
H10 H 0.1102 0.6155 0.1255
C13 C 0.2924(4) 0.5630(4) 0.1955(3)
C14 C 0.3878(4) 0.4190(4) 0.1571(3)
C15 C 0.5466(4) 0.3559(4) 0.1406(3)
H11 H 0.5961 0.4078 0.1460
C16 C 0.6311(4) 0.2183(4) 0.1163(3)
H12 H 0.7370 0.1766 0.1073
C17 C 0.3183(4) 0.3396(4) 0.1420(3)
H13 H 0.2129 0.3796 0.1486
C18 C 0.4066(4) 0.2026(4) 0.1176(3)
H14 H 0.3600 0.1495 0.1091
C19 C 0.6474(4) -0.0061(4) 0.0910(3)
C20 C 0.7796(4) -0.0477(4) 0.0032(3)
H15 H 0.8110 0.0191 -0.0460
C21 C 0.5971(5) -0.1029(4) 0.1640(4)
H16 H 0.5057 -0.0725 0.2193
C22 C 0.6846(5) -0.2451(4) 0.1538(3)
H17 H 0.6548 -0.3119 0.2052
C23 C 0.8168(4) -0.2890(4) 0.0673(3)
H18 H 0.8747 -0.3851 0.0605
C24 C 0.8637(4) -0.1908(4) -0.0095(3)
C25 C 1.0016(5) -0.2389(4) -0.1096(4)
Cd1A Cd 0.04615(3) 0.96348(3) 0.64717(2)
Cd1A_2 Cd -0.95385(3) 0.96348(3) 0.64717(2)
Cd1A_3 Cd 1.04615(3) -0.03652(3) -0.35283(2)
O1A O 0.0361(3) 1.1264(3) 0.4570(2)
O3A O -0.2824(3) 1.0419(3) 0.3394(2)
O4A O -0.2907(3) 1.1854(3) 0.4491(3)
O6A O -0.0510(3) 1.1487(3) 0.1627(2)
O7 O 0.6987(4) -0.5507(4) 0.3156(4)
H1 H 0.699(6) -0.622(3) 0.364(3)
H2 H 0.786(4) -0.578(8) 0.272(6)
loop_
_geom_bond_atom_site_label_1
_geom_bond_atom_site_label_2
_geom_bond_site_symmetry_1
_geom_bond_site_symmetry_2
Cd1 N1 1_555 1_555
N1 C9 1_555 1_555
N2 C16 1_555 1_555
O1 Cd1 1_555 1_555
O2 C1 1_555 1_555
O3 C8 1_555 1_555
O4 C8 1_555 1_555
O5 C25 1_555 1_555
O6 C25 1_555 1_555
O7 H1 1_555 1_555
H2 O7 1_555 1_555
C1 O1 1_555 1_555
C2 C1 1_555 1_555
C3 C2 1_555 1_555
H3 C3 1_555 1_555
C4 C3 1_555 1_555
H4 C4 1_555 1_555
C5 C4 1_555 1_555
H5 C5 1_555 1_555
C6 C2 1_555 1_555
H6 C6 1_555 1_555
C7 C5 1_555 1_555
C8 C7 1_555 1_555
C9 H7 1_555 1_555
C10 C9 1_555 1_555
H8 C10 1_555 1_555
C11 N1 1_555 1_555
H9 C11 1_555 1_555
C12 C11 1_555 1_555
H10 C12 1_555 1_555
C13 C10 1_555 1_555
C14 C13 1_555 1_555
C15 C14 1_555 1_555
H11 C15 1_555 1_555
C16 C15 1_555 1_555
H12 C16 1_555 1_555
C17 C14 1_555 1_555
H13 C17 1_555 1_555
C18 N2 1_555 1_555
H14 C18 1_555 1_555
C19 N2 1_555 1_555
C20 C19 1_555 1_555
H15 C20 1_555 1_555
C21 C19 1_555 1_555
H16 C21 1_555 1_555
C22 C21 1_555 1_555
H17 C22 1_555 1_555
C23 C22 1_555 1_555
H18 C23 1_555 1_555
C24 C20 1_555 1_555
C25 C24 1_555 1_555
Cd1A O1 1_555 1_555
Cd1A_2 O3 1_555 1_555
Cd1A_3 O6 1_555 1_555
O1A Cd1 1_555 1_555
O3A Cd1 1_555 1_555
O4A Cd1 1_555 1_555
O6A Cd1 1_555 1_555
O4 Cd1A_2 1_555 1_555
C6 C7 1_555 1_555
C12 C13 1_555 1_555
C17 C18 1_555 1_555
C23 C24 1_555 1_555
Cd1A O1A 1_555 1_555

#END
