
#######################################################################
#
#                 Cambridge Crystallographic Data Centre
#                                CCDC 
#
#######################################################################
#
# If this CIF has been generated from an entry in the Cambridge 
# Structural Database, then it will include bibliographic, chemical, 
# crystal, experimental, refinement or atomic coordinate data resulting 
# from the CCDC's data processing and validation procedures.
#
#######################################################################

data_TECWOO
_symmetry_cell_setting           monoclinic
_symmetry_space_group_name_H-M   'P 21/n'
_symmetry_Int_Tables_number      14
_space_group_name_Hall           '-P 2yn'
loop_
_symmetry_equiv_pos_site_id
_symmetry_equiv_pos_as_xyz
1 x,y,z
2 1/2-x,1/2+y,1/2-z
3 -x,-y,-z
4 1/2+x,1/2-y,1/2+z
_cell_length_a                   8.14160(10)
_cell_length_b                   23.6395(2)
_cell_length_c                   12.39210(10)
_cell_angle_alpha                90
_cell_angle_beta                 90.7567(10)
_cell_angle_gamma                90
_cell_volume                     2384.82
loop_
_atom_site_label
_atom_site_type_symbol
_atom_site_fract_x
_atom_site_fract_y
_atom_site_fract_z
Ag1 Ag 1.02520(5) 0.213602(13) 0.32049(3)
Ag2 Ag 0.52600(4) 0.190714(13) 0.47397(3)
S1 S 0.72093(15) 0.18826(4) 0.31436(9)
S2 S 0.72175(14) 0.33022(4) -0.04119(9)
S3 S 1.21853(15) 0.19662(5) 0.06662(9)
S4 S 1.09218(15) 0.35215(4) 0.22773(9)
F1 F 1.1467(5) 0.08868(13) 0.0540(3)
F2 F 1.3991(4) 0.10837(14) 0.0222(3)
F3 F 1.2118(5) 0.12716(14) -0.0970(3)
F4 F 1.3824(5) 0.3874(2) 0.2946(4)
F5 F 1.2068(6) 0.3714(2) 0.4214(3)
F6 F 1.3240(5) 0.30259(17) 0.3416(3)
O1 O 1.2349(5) 0.18737(16) 0.1819(3)
O2 O 1.3473(5) 0.22961(15) 0.0181(3)
O3 O 1.0514(5) 0.21179(14) 0.0320(3)
O4 O 1.1770(5) 0.33765(17) 0.1287(3)
O5 O 0.9859(5) 0.30773(14) 0.2677(3)
O6 O 1.0194(5) 0.40752(15) 0.2290(3)
C1 C 1.2472(7) 0.1263(2) 0.0081(4)
C2 C 1.2588(7) 0.3545(2) 0.3274(4)
C3 C 0.6816(6) 0.12431(19) 0.2420(4)
C4 C 0.7877(6) 0.1065(2) 0.1617(4)
H1 H 0.8746 0.1303 0.1388
C5 C 0.7651(7) 0.0539(2) 0.1155(4)
H2 H 0.8368 0.0416 0.0603
C6 C 0.6388(7) 0.0185(2) 0.1485(4)
H3 H 0.6267 -0.0181 0.1177
C7 C 0.5301(7) 0.0369(2) 0.2272(5)
H4 H 0.4410 0.0135 0.2479
C8 C 0.5524(7) 0.0894(2) 0.2749(4)
H5 H 0.4803 0.1017 0.3299
C9 C 0.6191(6) 0.2447(2) 0.2374(4)
H6 H 0.5017 0.2348 0.2281
H7 H 0.6248 0.2800 0.2802
C10 C 0.6909(6) 0.25617(18) 0.1262(4)
H8 H 0.8122 0.2534 0.1296
H9 H 0.6493 0.2280 0.0735
C11 C 0.6394(7) 0.31553(19) 0.0916(4)
H10 H 0.6816 0.3436 0.1444
H11 H 0.5180 0.3183 0.0892
C12 C 0.6964(6) 0.40520(19) -0.0554(4)
C13 C 0.6028(7) 0.4260(2) -0.1403(4)
H12 H 0.5487 0.4006 -0.1885
C14 C 0.5878(8) 0.4841(2) -0.1553(5)
H13 H 0.5218 0.4986 -0.2128
C15 C 0.6703(7) 0.5210(2) -0.0856(5)
H14 H 0.6633 0.5607 -0.0968
C16 C 0.7618(7) 0.5000(2) -0.0004(5)
H15 H 0.8141 0.5256 0.0483
C17 C 0.7788(7) 0.4418(2) 0.0156(4)
H16 H 0.8447 0.4274 0.0731
Ag1C Ag 0.52520(5) 0.286398(13) -0.17951(3)
Ag2C Ag 1.02600(4) 0.309286(13) -0.02603(3)
S2C S 1.22175(14) 0.16978(4) 0.45881(9)
S2C_2 S 0.22175(14) 0.16978(4) 0.45881(9)
O3C O 0.5514(5) 0.28821(14) 0.5320(3)
O4C O 0.6770(5) 0.16235(17) 0.6287(3)
loop_
_geom_bond_atom_site_label_1
_geom_bond_atom_site_label_2
_geom_bond_site_symmetry_1
_geom_bond_site_symmetry_2
Ag1 S1 1_555 1_555
Ag2 S1 1_555 1_555
S1 C3 1_555 1_555
S2 C11 1_555 1_555
S3 O1 1_555 1_555
S4 O4 1_555 1_555
F1 C1 1_555 1_555
F2 C1 1_555 1_555
F3 C1 1_555 1_555
F4 C2 1_555 1_555
F5 C2 1_555 1_555
F6 C2 1_555 1_555
O1 Ag1 1_555 1_555
O2 S3 1_555 1_555
O3 S3 1_555 1_555
O4 Ag2C 1_555 1_555
O5 Ag1 1_555 1_555
O6 S4 1_555 1_555
C1 S3 1_555 1_555
C2 S4 1_555 1_555
C3 C4 1_555 1_555
C4 H1 1_555 1_555
C5 C4 1_555 1_555
H2 C5 1_555 1_555
C6 C5 1_555 1_555
H3 C6 1_555 1_555
C7 C6 1_555 1_555
H4 C7 1_555 1_555
C8 C3 1_555 1_555
H5 C8 1_555 1_555
C9 S1 1_555 1_555
H6 C9 1_555 1_555
H7 C9 1_555 1_555
C10 C9 1_555 1_555
H8 C10 1_555 1_555
H9 C10 1_555 1_555
C11 C10 1_555 1_555
H10 C11 1_555 1_555
H11 C11 1_555 1_555
C12 S2 1_555 1_555
C13 C12 1_555 1_555
H12 C13 1_555 1_555
C14 C13 1_555 1_555
H13 C14 1_555 1_555
C15 C14 1_555 1_555
H14 C15 1_555 1_555
C16 C15 1_555 1_555
H15 C16 1_555 1_555
C17 C12 1_555 1_555
H16 C17 1_555 1_555
Ag1C S2 1_555 1_555
Ag2C S2 1_555 1_555
S2C Ag1 1_555 1_555
S2C_2 Ag2 1_555 1_555
O3C Ag2 1_555 1_555
O4C Ag2 1_555 1_555
S4 O5 1_555 1_555
O3 Ag2C 1_555 1_555
C7 C8 1_555 1_555
C16 C17 1_555 1_555

#END
