
#######################################################################
#
#                 Cambridge Crystallographic Data Centre
#                                CCDC 
#
#######################################################################
#
# If this CIF has been generated from an entry in the Cambridge 
# Structural Database, then it will include bibliographic, chemical, 
# crystal, experimental, refinement or atomic coordinate data resulting 
# from the CCDC's data processing and validation procedures.
#
#######################################################################

data_TEDFUE01
_symmetry_cell_setting           monoclinic
_symmetry_space_group_name_H-M   'P 21/c'
_symmetry_Int_Tables_number      14
_space_group_name_Hall           '-P 2ybc'
loop_
_symmetry_equiv_pos_site_id
_symmetry_equiv_pos_as_xyz
1 x,y,z
2 -x,1/2+y,1/2-z
3 -x,-y,-z
4 x,1/2-y,1/2+z
_cell_length_a                   10.72120(10)
_cell_length_b                   7.72590(10)
_cell_length_c                   8.67800(10)
_cell_angle_alpha                90
_cell_angle_beta                 110.0370(10)
_cell_angle_gamma                90
_cell_volume                     675.298
loop_
_atom_site_label
_atom_site_type_symbol
_atom_site_fract_x
_atom_site_fract_y
_atom_site_fract_z
Cd1 Cd 0.36399(3) 1.14230(3) 0.03929(3)
O1 O 0.4939(3) 0.6299(4) 0.1897(3)
O2 O 0.4406(3) 0.8453(3) 0.0067(3)
O3 O 0.2719(3) 0.4014(4) 0.0287(3)
O4 O 0.2458(3) 0.3482(3) 0.2673(3)
N1 N 0.2452(3) 0.9345(4) 0.1279(4)
C1 C 0.4179(4) 0.7424(5) 0.1078(4)
C2 C 0.2850(3) 0.7695(5) 0.1296(4)
C3 C 0.2117(4) 0.6349(5) 0.1624(4)
C4 C 0.2477(4) 0.4470(5) 0.1536(4)
C5 C 0.1014(4) 0.6664(4) 0.1981(4)
H1 H 0.0520 0.5769 0.2202
C6 C 0.0663(4) 0.8278(6) 0.2003(6)
H2 H -0.0089 0.8525 0.2266
C7 C 0.1366(4) 0.9645(5) 0.1649(5)
H3 H 0.1075 1.0775 0.1671
Cd1_2 Cd 0.36399(3) 0.14230(3) 0.03929(3)
Cd1A Cd 0.63601(3) 0.64230(3) 0.46071(3)
Cd1B Cd 0.63601(3) 0.85770(3) -0.03929(3)
Cd1C Cd 0.36399(3) 0.35770(3) 0.53929(3)
O1A O 0.5061(3) 1.1299(4) 0.3103(3)
O2B O 0.5594(3) 1.1547(3) -0.0067(3)
O3_2 O 0.2719(3) 1.4014(4) 0.0287(3)
O4C O 0.2458(3) 1.1518(3) -0.2327(3)
loop_
_geom_bond_atom_site_label_1
_geom_bond_atom_site_label_2
_geom_bond_site_symmetry_1
_geom_bond_site_symmetry_2
Cd1 O2 1_555 1_555
O1 C1 1_555 1_555
O2 C1 1_555 1_555
O3 C4 1_555 1_555
O4 C4 1_555 1_555
N1 Cd1 1_555 1_555
C1 C2 1_555 1_555
C2 N1 1_555 1_555
C3 C2 1_555 1_555
C4 C3 1_555 1_555
C5 C3 1_555 1_555
H1 C5 1_555 1_555
C6 C5 1_555 1_555
H2 C6 1_555 1_555
C7 N1 1_555 1_555
H3 C7 1_555 1_555
Cd1_2 O3 1_555 1_555
Cd1A O1 1_555 1_555
Cd1B O2 1_555 1_555
Cd1C O4 1_555 1_555
O1A Cd1 1_555 1_555
O2B Cd1 1_555 1_555
O3_2 Cd1 1_555 1_555
O4C Cd1 1_555 1_555
C6 C7 1_555 1_555
Cd1B O2B 1_555 1_555

#END
