
#######################################################################
#
#                 Cambridge Crystallographic Data Centre
#                                CCDC 
#
#######################################################################
#
# If this CIF has been generated from an entry in the Cambridge 
# Structural Database, then it will include bibliographic, chemical, 
# crystal, experimental, refinement or atomic coordinate data resulting 
# from the CCDC's data processing and validation procedures.
#
#######################################################################

data_TEDFIS
_symmetry_cell_setting           triclinic
_symmetry_space_group_name_H-M   'P -1'
_symmetry_Int_Tables_number      2
_space_group_name_Hall           '-P 1'
loop_
_symmetry_equiv_pos_site_id
_symmetry_equiv_pos_as_xyz
1 x,y,z
2 -x,-y,-z
_cell_length_a                   7.7562(3)
_cell_length_b                   8.2422(4)
_cell_length_c                   14.1151(7)
_cell_angle_alpha                91.187(2)
_cell_angle_beta                 97.980(2)
_cell_angle_gamma                112.373(2)
_cell_volume                     823.678
loop_
_atom_site_label
_atom_site_type_symbol
_atom_site_fract_x
_atom_site_fract_y
_atom_site_fract_z
Zn1 Zn -0.06552(10) 0.05910(10) -0.20812(5)
Zn2 Zn 0.51944(10) 0.16555(10) 0.28764(5)
O1 O 0.1877(6) 0.0763(6) -0.1338(3)
O2 O 0.0407(8) 0.0419(8) -0.3266(3)
H1 H 0.110(9) -0.008(9) -0.338(5)
H2 H -0.008(15) 0.053(16) -0.380(4)
O3 O 0.3723(6) 0.1598(7) 0.0087(3)
O4 O 0.6996(7) 0.4255(8) 0.2693(5)
H3 H 0.813(4) 0.461(14) 0.289(8)
H4 H 0.645(12) 0.471(12) 0.232(5)
O5 O 0.5556(7) 0.0618(7) 0.1653(3)
H5 H 0.506(11) 0.070(12) 0.112(3)
H6 H 0.628(8) 0.014(9) 0.157(5)
O6 O 0.2748(6) 0.1897(6) 0.2071(3)
O7 O 0.4119(7) 0.4609(7) 0.1613(4)
O8 O -0.2660(6) 0.1215(6) -0.6328(3)
O9 O -0.1176(7) 0.1428(7) -0.4843(3)
O10 O -0.2779(6) 0.1026(6) -0.2912(3)
O11 O -0.0860(7) 0.3778(7) -0.3067(4)
N1 N -0.0567(7) 0.1997(7) -0.0814(3)
N2 N -0.5190(7) 0.2290(6) -0.5755(3)
C1 C -0.1873(8) 0.2558(8) -0.0585(5)
H7 H -0.2876 0.2477 -0.1055
C2 C -0.1776(9) 0.3249(9) 0.0322(5)
H8 H -0.2718 0.3604 0.0470
C3 C -0.0251(9) 0.3411(8) 0.1017(4)
H9 H -0.0159 0.3880 0.1636
C4 C 0.1124(9) 0.2871(8) 0.0782(4)
C5 C 0.0921(8) 0.2145(8) -0.0143(4)
C6 C 0.2318(8) 0.1470(8) -0.0474(4)
C7 C 0.2833(9) 0.3173(8) 0.1521(4)
C8 C -0.6528(9) 0.2767(8) -0.5494(4)
H10 H -0.7452 0.2841 -0.5968
C9 C -0.6593(9) 0.3158(9) -0.4541(5)
H11 H -0.7546 0.3483 -0.4380
C10 C -0.5236(9) 0.3057(8) -0.3843(5)
H12 H -0.5269 0.3298 -0.3201
C11 C -0.3806(9) 0.2592(8) -0.4097(4)
C12 C -0.3846(8) 0.2182(8) -0.5069(4)
C13 C -0.2414(9) 0.1567(8) -0.5422(4)
C14 C -0.2327(9) 0.2482(8) -0.3315(4)
Zn1A Zn 0.06552(10) -0.05910(10) 0.20812(5)
Zn2_2 Zn -0.48056(10) 0.16555(10) -0.71236(5)
Zn2A Zn -0.51944(10) -0.16555(10) -0.28764(5)
O6A O -0.2748(6) -0.1897(6) -0.2071(3)
O8_2 O 0.7340(6) 0.1215(6) 0.3672(3)
O10A O 0.2779(6) -0.1026(6) 0.2912(3)
N2_2 N 0.4810(7) 0.2290(6) 0.4245(3)
loop_
_geom_bond_atom_site_label_1
_geom_bond_atom_site_label_2
_geom_bond_site_symmetry_1
_geom_bond_site_symmetry_2
Zn1 O1 1_555 1_555
Zn2 O4 1_555 1_555
O1 C6 1_555 1_555
O2 Zn1 1_555 1_555
H1 O2 1_555 1_555
H2 O2 1_555 1_555
O3 C6 1_555 1_555
O4 H3 1_555 1_555
H4 O4 1_555 1_555
O5 Zn2 1_555 1_555
H5 O5 1_555 1_555
H6 O5 1_555 1_555
O6 Zn2 1_555 1_555
O7 C7 1_555 1_555
O8 C13 1_555 1_555
O9 C13 1_555 1_555
O10 Zn1 1_555 1_555
O11 C14 1_555 1_555
N1 Zn1 1_555 1_555
N2 C8 1_555 1_555
C1 N1 1_555 1_555
H7 C1 1_555 1_555
C2 C1 1_555 1_555
H8 C2 1_555 1_555
C3 C2 1_555 1_555
H9 C3 1_555 1_555
C4 C3 1_555 1_555
C5 N1 1_555 1_555
C6 C5 1_555 1_555
C7 O6 1_555 1_555
C8 H10 1_555 1_555
C9 C8 1_555 1_555
H11 C9 1_555 1_555
C10 C9 1_555 1_555
H12 C10 1_555 1_555
C11 C10 1_555 1_555
C12 N2 1_555 1_555
C13 C12 1_555 1_555
C14 O10 1_555 1_555
Zn1A O6 1_555 1_555
Zn2_2 O8 1_555 1_555
Zn2A O10 1_555 1_555
O6A Zn1 1_555 1_555
O8_2 Zn2 1_555 1_555
O10A Zn2 1_555 1_555
N2_2 Zn2 1_555 1_555
N2 Zn2_2 1_555 1_555
C4 C5 1_555 1_555
C4 C7 1_555 1_555
C11 C12 1_555 1_555
C11 C14 1_555 1_555
Zn1A O10A 1_555 1_555
Zn2A O6A 1_555 1_555

#END
