
#######################################################################
#
#                 Cambridge Crystallographic Data Centre
#                                CCDC 
#
#######################################################################
#
# If this CIF has been generated from an entry in the Cambridge 
# Structural Database, then it will include bibliographic, chemical, 
# crystal, experimental, refinement or atomic coordinate data resulting 
# from the CCDC's data processing and validation procedures.
#
#######################################################################

data_TEDGOZ
_symmetry_cell_setting           triclinic
_symmetry_space_group_name_H-M   'P -1'
_symmetry_Int_Tables_number      2
_space_group_name_Hall           '-P 1'
loop_
_symmetry_equiv_pos_site_id
_symmetry_equiv_pos_as_xyz
1 x,y,z
2 -x,-y,-z
_cell_length_a                   10.050(2)
_cell_length_b                   11.218(2)
_cell_length_c                   12.479(3)
_cell_angle_alpha                97.78(3)
_cell_angle_beta                 104.57(3)
_cell_angle_gamma                114.76(3)
_cell_volume                     1189.19
loop_
_atom_site_label
_atom_site_type_symbol
_atom_site_fract_x
_atom_site_fract_y
_atom_site_fract_z
Cu1 Cu 0.63075(9) 0.52359(9) 0.58261(7)
S1 S 0.5407(2) -0.1942(2) 0.05193(18)
S2 S 0.8303(2) 0.6092(2) -0.10874(15)
O1 O 0.5966(6) 0.3498(6) 0.4926(4)
O2 O 0.3802(6) 0.3135(5) 0.3543(4)
O3 O 0.7270(6) 0.6116(6) 0.4746(4)
O4 O 0.5084(5) 0.5686(5) 0.3369(4)
N1 N 0.8341(9) -0.0500(8) 0.0812(7)
N2 N 0.7700(8) -0.0653(7) 0.2524(6)
N3 N 0.8828(7) 0.5822(6) -0.3022(5)
N4 N 1.1071(7) 0.6845(8) -0.1341(5)
C1 C 0.9220(13) 0.0174(11) 0.3125(10)
H1 H 0.9555 0.0416 0.3942
C2 C 1.0322(12) 0.0689(11) 0.2595(14)
H2 H 1.1389 0.1291 0.3031
C3 C 0.9808(13) 0.0295(12) 0.1430(14)
H3 H 1.0543 0.0609 0.1047
C4 C 0.7352(9) -0.0928(8) 0.1396(7)
C5 C 0.4384(9) -0.2187(8) 0.1535(7)
H4 H 0.4822 -0.2579 0.2103
H5 H 0.3274 -0.2859 0.1118
C6 C 0.4470(9) -0.0902(8) 0.2170(7)
C7 C 0.3829(9) -0.0191(7) 0.1594(7)
H6 H 0.3325 -0.0521 0.0782
C8 C 0.3911(8) 0.0984(7) 0.2175(6)
H7 H 0.3420 0.1431 0.1769
C9 C 0.5233(11) -0.0382(9) 0.3353(7)
H8 H 0.5659 -0.0866 0.3766
C10 C 0.5382(10) 0.0834(9) 0.3941(6)
H9 H 0.5945 0.1198 0.4744
C11 C 0.4705(8) 0.1518(7) 0.3351(6)
C12 C 0.4837(8) 0.2805(8) 0.3989(6)
C13 C 1.1952(10) 0.6940(11) -0.1995(7)
H10 H 1.3052 0.7358 -0.1632
C14 C 1.1342(9) 0.6461(10) -0.3164(7)
H11 H 1.1983 0.6512 -0.3619
C15 C 0.9751(9) 0.5901(9) -0.3652(6)
H12 H 0.9286 0.5558 -0.4466
C16 C 0.9546(8) 0.6281(7) -0.1878(6)
C17 C 0.9653(8) 0.6727(8) 0.0374(6)
H13 H 1.0365 0.7712 0.0533
H14 H 1.0292 0.6249 0.0461
C18 C 0.8813(8) 0.6518(7) 0.1238(6)
C19 C 0.7200(9) 0.5748(9) 0.0921(6)
H15 H 0.6586 0.5311 0.0131
C20 C 0.6489(8) 0.5613(8) 0.1730(6)
H16 H 0.5388 0.5083 0.1492
C21 C 0.9670(8) 0.7115(9) 0.2399(6)
H17 H 1.0772 0.7638 0.2638
C22 C 0.8951(9) 0.6961(9) 0.3212(6)
H18 H 0.9565 0.7359 0.4006
C23 C 0.7340(8) 0.6233(7) 0.2887(5)
C24 C 0.6499(8) 0.6009(7) 0.3734(6)
Cu1A Cu 0.36925(9) 0.47641(9) 0.41739(7)
Cu1_2 Cu 0.63075(9) 0.52359(9) -0.41739(7)
O2A O 0.6198(6) 0.6865(5) 0.6457(4)
O4A O 0.4916(5) 0.4314(5) 0.6631(4)
N3_2 N 0.8828(7) 0.5822(6) 0.6978(5)
loop_
_geom_bond_atom_site_label_1
_geom_bond_atom_site_label_2
_geom_bond_site_symmetry_1
_geom_bond_site_symmetry_2
Cu1 O1 1_555 1_555
S1 C4 1_555 1_555
S2 C16 1_555 1_555
O1 C12 1_555 1_555
O2 C12 1_555 1_555
O3 Cu1 1_555 1_555
O4 C24 1_555 1_555
N1 C3 1_555 1_555
N2 C1 1_555 1_555
N3 C15 1_555 1_555
N4 C13 1_555 1_555
C1 H1 1_555 1_555
C2 C1 1_555 1_555
H2 C2 1_555 1_555
C3 C2 1_555 1_555
H3 C3 1_555 1_555
C4 N1 1_555 1_555
C5 S1 1_555 1_555
H4 C5 1_555 1_555
H5 C5 1_555 1_555
C6 C5 1_555 1_555
C7 C6 1_555 1_555
H6 C7 1_555 1_555
C8 C7 1_555 1_555
H7 C8 1_555 1_555
C9 C6 1_555 1_555
H8 C9 1_555 1_555
C10 C9 1_555 1_555
H9 C10 1_555 1_555
C11 C8 1_555 1_555
C12 C11 1_555 1_555
C13 H10 1_555 1_555
C14 C13 1_555 1_555
H11 C14 1_555 1_555
C15 C14 1_555 1_555
H12 C15 1_555 1_555
C16 N3 1_555 1_555
C17 S2 1_555 1_555
H13 C17 1_555 1_555
H14 C17 1_555 1_555
C18 C17 1_555 1_555
C19 C18 1_555 1_555
H15 C19 1_555 1_555
C20 C19 1_555 1_555
H16 C20 1_555 1_555
C21 C18 1_555 1_555
H17 C21 1_555 1_555
C22 C21 1_555 1_555
H18 C22 1_555 1_555
C23 C20 1_555 1_555
C24 O3 1_555 1_555
Cu1A Cu1 1_555 1_555
Cu1_2 N3 1_555 1_555
O2A Cu1 1_555 1_555
O4A Cu1 1_555 1_555
N3_2 Cu1 1_555 1_555
O2 Cu1A 1_555 1_555
O4 Cu1A 1_555 1_555
N2 C4 1_555 1_555
N4 C16 1_555 1_555
C10 C11 1_555 1_555
C22 C23 1_555 1_555
C23 C24 1_555 1_555

#END
