
#######################################################################
#
#                 Cambridge Crystallographic Data Centre
#                                CCDC 
#
#######################################################################
#
# If this CIF has been generated from an entry in the Cambridge 
# Structural Database, then it will include bibliographic, chemical, 
# crystal, experimental, refinement or atomic coordinate data resulting 
# from the CCDC's data processing and validation procedures.
#
#######################################################################

data_TEDGAL
_symmetry_cell_setting           monoclinic
_symmetry_space_group_name_H-M   'P 21/c'
_symmetry_Int_Tables_number      14
_space_group_name_Hall           '-P 2ybc'
loop_
_symmetry_equiv_pos_site_id
_symmetry_equiv_pos_as_xyz
1 x,y,z
2 -x,1/2+y,1/2-z
3 -x,-y,-z
4 x,1/2-y,1/2+z
_cell_length_a                   7.721(2)
_cell_length_b                   15.699(4)
_cell_length_c                   7.755(2)
_cell_angle_alpha                90
_cell_angle_beta                 113.815(4)
_cell_angle_gamma                90
_cell_volume                     859.962
loop_
_atom_site_label
_atom_site_type_symbol
_atom_site_fract_x
_atom_site_fract_y
_atom_site_fract_z
Zn1 Zn 0.15071(3) 0.559670(13) 0.93363(3)
O1 O 0.30137(18) 0.54038(9) 0.77021(18)
O2 O 0.30247(19) 0.57124(9) 0.48958(19)
N1 N -0.0470(2) 0.60246(10) 0.6702(2)
C1 C 0.2260(2) 0.56905(11) 0.6014(3)
C2 C -0.0798(2) 0.62963(11) 0.3542(2)
C3 C 0.0242(2) 0.60211(11) 0.5376(2)
O3 O 0.35380(18) 0.51649(9) 1.1733(2)
H1 H 0.4466 0.5025 1.1537
C4 C -0.3353(3) 0.66098(12) 0.4460(3)
H2 H -0.4569 0.6811 0.4184
C5 C -0.2223(3) 0.63224(12) 0.6265(3)
H3 H -0.2697 0.6338 0.7193
C6 C -0.2646(3) 0.65917(12) 0.3082(3)
H4 H -0.3388 0.6773 0.1864
O4 O 0.27022(19) 0.68673(9) 0.9905(2)
H5 H 0.3108 0.6995 0.9113
O5 O -0.01801(18) 0.57142(8) 0.09714(18)
O6 O 0.0791(2) 0.70338(9) 0.1999(2)
C7 C 0.0030(2) 0.63432(12) 0.2085(2)
H6 H 0.211(4) 0.6994(18) 1.056(4)
H7 H 0.349(4) 0.5280(18) 1.263(4)
Zn1_2 Zn 0.15071(3) 0.559670(13) -0.06637(3)
Zn1B Zn -0.15071(3) 0.440330(13) 0.06637(3)
O5_2 O -0.01801(18) 0.57142(8) 1.09714(18)
O5B O 0.01801(18) 0.42858(8) 0.90286(18)
loop_
_geom_bond_atom_site_label_1
_geom_bond_atom_site_label_2
_geom_bond_site_symmetry_1
_geom_bond_site_symmetry_2
Zn1 O1 1_555 1_555
O1 C1 1_555 1_555
O2 C1 1_555 1_555
N1 Zn1 1_555 1_555
C1 C3 1_555 1_555
C2 C3 1_555 1_555
C3 N1 1_555 1_555
O3 Zn1 1_555 1_555
H1 O3 1_555 1_555
C4 H2 1_555 1_555
C5 N1 1_555 1_555
H3 C5 1_555 1_555
C6 C2 1_555 1_555
H4 C6 1_555 1_555
O4 Zn1 1_555 1_555
H5 O4 1_555 1_555
O5 C7 1_555 1_555
O6 C7 1_555 1_555
C7 C2 1_555 1_555
H6 O4 1_555 1_555
H7 O3 1_555 1_555
Zn1_2 O5 1_555 1_555
Zn1B O5 1_555 1_555
O5_2 Zn1 1_555 1_555
O5B Zn1 1_555 1_555
C4 C5 1_555 1_555
C4 C6 1_555 1_555

#END
