
#######################################################################
#
#                 Cambridge Crystallographic Data Centre
#                                CCDC 
#
#######################################################################
#
# If this CIF has been generated from an entry in the Cambridge 
# Structural Database, then it will include bibliographic, chemical, 
# crystal, experimental, refinement or atomic coordinate data resulting 
# from the CCDC's data processing and validation procedures.
#
#######################################################################

data_TEDMAR
_symmetry_cell_setting           monoclinic
_symmetry_space_group_name_H-M   'C 2/c'
_symmetry_Int_Tables_number      15
_space_group_name_Hall           '-C 2yn'
loop_
_symmetry_equiv_pos_site_id
_symmetry_equiv_pos_as_xyz
1 x,y,z
2 1/2+x,1/2+y,z
3 -x,y,1/2-z
4 1/2-x,1/2+y,1/2-z
5 -x,-y,-z
6 1/2-x,1/2-y,-z
7 x,-y,1/2+z
8 1/2+x,1/2-y,1/2+z
_cell_length_a                   7.9993(16)
_cell_length_b                   20.206(4)
_cell_length_c                   21.281(4)
_cell_angle_alpha                90
_cell_angle_beta                 91.19(3)
_cell_angle_gamma                90
_cell_volume                     3438.99
loop_
_atom_site_label
_atom_site_type_symbol
_atom_site_fract_x
_atom_site_fract_y
_atom_site_fract_z
Cd1 Cd 1.0000 0.177377(10) 0.7500
Cd2 Cd 0.679278(18) 0.158091(7) 0.629529(7)
C1 C 0.7321(3) 0.35051(10) 0.70537(11)
C2 C 0.7957(3) 0.36214(11) 0.76569(11)
H1 H 0.8344 0.3270 0.7901
C3 C 0.8016(3) 0.42587(12) 0.78946(11)
H2 H 0.8470 0.4337 0.8294
C4 C 0.7397(3) 0.47816(11) 0.75361(11)
C5 C 0.6756(4) 0.46662(12) 0.69367(12)
H3 H 0.6345 0.5017 0.6696
C6 C 0.6726(3) 0.40324(12) 0.66955(12)
H4 H 0.6304 0.3958 0.6291
C7 C 0.7238(3) 0.28205(11) 0.67901(11)
C8 C 0.7377(3) 0.54703(12) 0.78011(13)
C9 C 1.2927(3) 0.26378(13) 0.56211(10)
H5 H 1.3215 0.2733 0.6037
C10 C 1.1544(3) 0.22452(11) 0.54836(10)
C11 C 1.3880(3) 0.28881(12) 0.51405(10)
H6 H 1.4812 0.3147 0.5236
C12 C 1.0511(3) 0.19573(11) 0.60001(10)
C13 C 0.5664(4) 0.12415(15) 0.48104(13)
H7 H 0.6565 0.1473 0.4651
C14 C 0.4002(3) 0.08289(14) 0.54451(12)
H8 H 0.3464 0.0702 0.5809
C15 C 0.1967(3) 0.03495(16) 0.46298(13)
H9 H 0.2282 -0.0044 0.4400
H10 H 0.1386 0.0643 0.4338
C16 C 0.0801(3) 0.01567(14) 0.51398(13)
H11 H 0.0512 0.0545 0.5382
H12 H 0.1352 -0.0157 0.5420
N1 N 0.5387(3) 0.11834(11) 0.54313(10)
N2 N 0.3489(3) 0.06804(11) 0.48686(10)
N3 N 0.4550(3) 0.09426(14) 0.44546(11)
H13 H 0.4505 0.0919 0.4051
O1 O 0.7649(2) 0.23359(8) 0.71381(8)
O2 O 0.6721(2) 0.27367(9) 0.62368(8)
O3 O 0.4317(3) 0.16369(12) 0.68309(10)
H14 H 0.3534 0.1883 0.6689
H15 H 0.3890 0.1363 0.7085
O4 O 0.6844(3) 0.59248(9) 0.74484(11)
O5 O 0.7909(3) 0.55505(10) 0.83501(10)
O6 O 0.9274(2) 0.16155(9) 0.58383(9)
O7 O 1.0978(2) 0.20817(11) 0.65566(8)
Cd1A Cd 0.5000 0.677377(10) 0.7500
Cd1G Cd 1.5000 0.322623(10) 0.2500
Cd1A_2 Cd 1.5000 0.677377(10) 0.7500
Cd2B Cd 1.320722(18) 0.158091(7) 0.870471(7)
Cd2C Cd 0.820722(18) 0.658091(7) 0.870471(7)
Cd2E Cd 1.820722(18) 0.341909(7) 0.370471(7)
Cd2D Cd -0.679278(18) -0.158091(7) 0.370471(7)
Cd2A Cd 1.179278(18) 0.658091(7) 0.629529(7)
C1B C 1.2679(3) 0.35051(10) 0.79463(11)
C2B C 1.2043(3) 0.36214(11) 0.73431(11)
H1B H 1.1656 0.3270 0.7099
C3B C 1.1984(3) 0.42587(12) 0.71054(11)
H2B H 1.1530 0.4337 0.6706
C4B C 1.2603(3) 0.47816(11) 0.74639(11)
C5B C 1.3244(4) 0.46662(12) 0.80633(12)
H3B H 1.3655 0.5017 0.8304
C6B C 1.3274(3) 0.40324(12) 0.83045(12)
H4B H 1.3696 0.3958 0.8709
C7B C 1.2762(3) 0.28205(11) 0.82099(11)
C8B C 1.2623(3) 0.54703(12) 0.71989(13)
C9E C 1.2073(3) 0.23622(13) 0.43789(10)
H5E H 1.1785 0.2267 0.3963
C10E C 1.3456(3) 0.27548(11) 0.45164(10)
C11E C 1.1120(3) 0.21119(12) 0.48595(10)
H6E H 1.0188 0.1853 0.4764
C12E C 1.4489(3) 0.30427(11) 0.39999(10)
C13D C -0.5664(4) -0.12415(15) 0.51896(13)
H7D H -0.6565 -0.1473 0.5349
C14D C -0.4002(3) -0.08289(14) 0.45549(12)
H8D H -0.3464 -0.0702 0.4191
C15D C -0.1967(3) -0.03495(16) 0.53702(13)
H9D H -0.2282 0.0044 0.5600
H10D H -0.1386 -0.0643 0.5662
C16D C -0.0801(3) -0.01567(14) 0.48602(13)
H11D H -0.0512 -0.0545 0.4618
H12D H -0.1352 0.0157 0.4580
N1D N -0.5387(3) -0.11834(11) 0.45687(10)
N1B N 1.4613(3) 0.11834(11) 0.95687(10)
N2D N -0.3489(3) -0.06804(11) 0.51314(10)
N3D N -0.4550(3) -0.09426(14) 0.55454(11)
H13D H -0.4505 -0.0919 0.5949
O1B O 1.2351(2) 0.23359(8) 0.78619(8)
O2B O 1.3279(2) 0.27367(9) 0.87632(8)
O3B O 1.5683(3) 0.16369(12) 0.81691(10)
H14B H 1.6466 0.1883 0.8311
H15B H 1.6110 0.1363 0.7915
O4B O 1.3156(3) 0.59248(9) 0.75516(11)
O4A O 1.1844(3) 0.09248(9) 0.74484(11)
O4C O 0.8156(3) 0.09248(9) 0.75516(11)
O5B O 1.2091(3) 0.55505(10) 0.66499(10)
O5C O 0.7091(3) 0.05505(10) 0.66499(10)
O5A O 1.2909(3) 0.05505(10) 0.83501(10)
O6E O 1.5726(2) 0.33845(9) 0.41617(9)
O6B O 1.0726(2) 0.16155(9) 0.91617(9)
O7E O 1.4022(2) 0.29183(11) 0.34434(8)
O7B O 0.9022(2) 0.20817(11) 0.84434(8)
loop_
_geom_bond_atom_site_label_1
_geom_bond_atom_site_label_2
_geom_bond_site_symmetry_1
_geom_bond_site_symmetry_2
Cd1 O1 1_555 1_555
Cd2 N1 1_555 1_555
C1 C2 1_555 1_555
C2 H1 1_555 1_555
C3 C2 1_555 1_555
H2 C3 1_555 1_555
C4 C3 1_555 1_555
C5 C4 1_555 1_555
H3 C5 1_555 1_555
C6 C1 1_555 1_555
H4 C6 1_555 1_555
C7 C1 1_555 1_555
C8 C4 1_555 1_555
C9 H5 1_555 1_555
C10 C9 1_555 1_555
C11 C9 1_555 1_555
H6 C11 1_555 1_555
C12 C10 1_555 1_555
C13 H7 1_555 1_555
C14 H8 1_555 1_555
C15 H9 1_555 1_555
H10 C15 1_555 1_555
C16 C15 1_555 1_555
H11 C16 1_555 1_555
H12 C16 1_555 1_555
N1 C13 1_555 1_555
N2 C14 1_555 1_555
N3 C13 1_555 1_555
H13 N3 1_555 1_555
O1 Cd2 1_555 1_555
O2 Cd2 1_555 1_555
O3 Cd2 1_555 1_555
H14 O3 1_555 1_555
H15 O3 1_555 1_555
O4 C8 1_555 1_555
O5 C8 1_555 1_555
O6 Cd2 1_555 1_555
O7 Cd1 1_555 1_555
Cd1A O4 1_555 1_555
Cd1G O7E 1_555 1_555
Cd1A_2 O4B 1_555 1_555
Cd2B N1B 1_555 1_555
Cd2C O5 1_555 1_555
Cd2E O6E 1_555 1_555
Cd2D N1D 1_555 1_555
Cd2A O5B 1_555 1_555
C1B C2B 1_555 1_555
C2B H1B 1_555 1_555
C3B C2B 1_555 1_555
H2B C3B 1_555 1_555
C4B C3B 1_555 1_555
C5B C4B 1_555 1_555
H3B C5B 1_555 1_555
C6B C1B 1_555 1_555
H4B C6B 1_555 1_555
C7B C1B 1_555 1_555
C8B C4B 1_555 1_555
C9E H5E 1_555 1_555
C10E C11 1_555 1_555
C11E C10 1_555 1_555
H6E C11E 1_555 1_555
C12E C10E 1_555 1_555
C13D H7D 1_555 1_555
C14D H8D 1_555 1_555
C15D H9D 1_555 1_555
H10D C15D 1_555 1_555
C16D C16 1_555 1_555
H11D C16D 1_555 1_555
H12D C16D 1_555 1_555
N1D C13D 1_555 1_555
N2D C14D 1_555 1_555
N3D C13D 1_555 1_555
H13D N3D 1_555 1_555
O1B Cd1 1_555 1_555
O2B Cd2B 1_555 1_555
O3B Cd2B 1_555 1_555
H14B O3B 1_555 1_555
H15B O3B 1_555 1_555
O4B C8B 1_555 1_555
O4A Cd1 1_555 1_555
O4C Cd1 1_555 1_555
O5B C8B 1_555 1_555
O5C Cd2 1_555 1_555
O5A Cd2B 1_555 1_555
O6E C12E 1_555 1_555
O6B Cd2B 1_555 1_555
O7E C12E 1_555 1_555
O7B Cd1 1_555 1_555
C5 C6 1_555 1_555
C7 O1 1_555 1_555
C7 O2 1_555 1_555
C12 O6 1_555 1_555
C12 O7 1_555 1_555
C14 N1 1_555 1_555
C15 N2 1_555 1_555
N2 N3 1_555 1_555
Cd2B O1B 1_555 1_555
C5B C6B 1_555 1_555
C7B O1B 1_555 1_555
C7B O2B 1_555 1_555
C9E C10E 1_555 1_555
C9E C11E 1_555 1_555
C14D N1D 1_555 1_555
C15D C16D 1_555 1_555
C15D N2D 1_555 1_555
N2D N3D 1_555 1_555

#END
