
#######################################################################
#
#                 Cambridge Crystallographic Data Centre
#                                CCDC 
#
#######################################################################
#
# If this CIF has been generated from an entry in the Cambridge 
# Structural Database, then it will include bibliographic, chemical, 
# crystal, experimental, refinement or atomic coordinate data resulting 
# from the CCDC's data processing and validation procedures.
#
#######################################################################

data_TEDQOJ
_symmetry_cell_setting           triclinic
_symmetry_space_group_name_H-M   'P -1'
_symmetry_Int_Tables_number      2
_space_group_name_Hall           '-P 1'
loop_
_symmetry_equiv_pos_site_id
_symmetry_equiv_pos_as_xyz
1 x,y,z
2 -x,-y,-z
_cell_length_a                   13.450(2)
_cell_length_b                   11.278(6)
_cell_length_c                   10.118(2)
_cell_angle_alpha                100.52(4)
_cell_angle_beta                 96.12(2)
_cell_angle_gamma                105.99(3)
_cell_volume                     1430.48
loop_
_atom_site_label
_atom_site_type_symbol
_atom_site_fract_x
_atom_site_fract_y
_atom_site_fract_z
Ag1 Ag 0.22404(4) 0.38921(5) 0.03736(5)
Cl1 Cl 0.30811(15) 0.66390(19) 0.28427(19)
O1 O 0.2927(4) 0.6390(5) 0.1395(5)
O2 O 0.3633(5) 0.7919(6) 0.3402(7)
O3 O 0.3706(6) 0.5908(6) 0.3259(6)
O4 O 0.2114(5) 0.6339(9) 0.3263(7)
N1 N 0.2315(6) 0.4688(9) -0.2000(8)
C1 C 0.2639(7) 0.4749(10) -0.2925(10)
C2 C 0.3088(10) 0.4832(15) -0.4128(11)
C3 C -0.0048(5) 0.4852(6) 0.0692(6)
P1 P 0.04789(12) 0.35412(15) 0.08675(17)
C4 C -0.0469(5) 0.2183(6) -0.0298(6)
C5 C -0.0182(7) 0.1635(7) -0.1450(9)
C6 C -0.0904(9) 0.0630(9) -0.2418(10)
C7 C -0.1906(8) 0.0226(9) -0.2216(11)
C8 C -0.2212(7) 0.0783(9) -0.1130(11)
C9 C -0.1508(6) 0.1758(8) -0.0171(9)
C10 C 0.0295(5) 0.3276(6) 0.2554(7)
C11 C 0.0900(6) 0.2670(8) 0.3171(8)
C12 C 0.0774(9) 0.2419(9) 0.4449(11)
C13 C 0.0056(11) 0.2786(9) 0.5106(10)
C14 C -0.0561(9) 0.3379(9) 0.4520(10)
C15 C -0.0442(7) 0.3609(7) 0.3251(8)
C16 C 0.4811(4) 0.4406(5) -0.0577(6)
P2 P 0.37280(11) 0.32096(14) -0.01773(16)
C17 C 0.4357(5) 0.2615(5) 0.1108(7)
C18 C 0.4187(5) 0.2904(6) 0.2439(8)
C19 C 0.4661(7) 0.2479(8) 0.3453(8)
C20 C 0.5307(8) 0.1770(9) 0.3156(10)
C21 C 0.5492(8) 0.1471(9) 0.1848(11)
C22 C 0.5027(7) 0.1912(7) 0.0834(8)
C23 C 0.3335(5) 0.1913(5) -0.1674(6)
C24 C 0.2418(5) 0.0960(6) -0.1733(7)
C25 C 0.2057(6) -0.0046(7) -0.2846(9)
C26 C 0.2598(6) -0.0127(7) -0.3903(7)
C27 C 0.3507(7) 0.0787(7) -0.3846(7)
C28 C 0.3869(6) 0.1795(6) -0.2740(7)
H1 H 0.35884 0.56737 -0.40158
H2 H 0.34696 0.42118 -0.42641
H3 H 0.25656 0.46500 -0.48915
H4 H -0.07548 0.46292 0.08080
H5 H 0.03511 0.55808 0.13740
H6 H 0.05252 0.19588 -0.16100
H7 H -0.06728 0.02355 -0.32195
H8 H -0.23936 -0.04574 -0.28563
H9 H -0.29182 0.04908 -0.10068
H10 H -0.17432 0.21497 0.06004
H11 H 0.14227 0.24426 0.27272
H12 H 0.11658 0.19405 0.48330
H13 H -0.00291 0.26518 0.59939
H14 H -0.10585 0.36427 0.49866
H15 H -0.08903 0.40117 0.28422
H16 H 0.53777 0.40653 -0.06923
H17 H 0.45833 0.46212 -0.13923
H18 H 0.37442 0.34208 0.26656
H19 H 0.45212 0.26657 0.43436
H20 H 0.56328 0.14877 0.38647
H21 H 0.59183 0.09553 0.16484
H22 H 0.51739 0.17271 -0.00589
H23 H 0.20387 0.09954 -0.09905
H24 H 0.14176 -0.07010 -0.28724
H25 H 0.23396 -0.08237 -0.46677
H26 H 0.38869 0.07329 -0.45801
H27 H 0.44969 0.24287 -0.27286
Ag1A Ag -0.22404(4) 0.61079(5) -0.03736(5)
Ag1A_2 Ag 0.77596(4) 0.61079(5) -0.03736(5)
Cl1A Cl -0.30811(15) 0.33610(19) -0.28427(19)
O1A O -0.2927(4) 0.3610(5) -0.1395(5)
O2A O -0.3633(5) 0.2081(6) -0.3402(7)
O3A O -0.3706(6) 0.4092(6) -0.3259(6)
O4A O -0.2114(5) 0.3661(9) -0.3263(7)
N1A N -0.2315(6) 0.5312(9) 0.2000(8)
C1A C -0.2639(7) 0.5251(10) 0.2925(10)
C2A C -0.3088(10) 0.5168(15) 0.4128(11)
C3A C 0.0048(5) 0.5148(6) -0.0692(6)
P1A P -0.04789(12) 0.64588(15) -0.08675(17)
C4A C 0.0469(5) 0.7817(6) 0.0298(6)
C5A C 0.0182(7) 0.8365(7) 0.1450(9)
C6A C 0.0904(9) 0.9370(9) 0.2418(10)
C7A C 0.1906(8) 0.9774(9) 0.2216(11)
C8A C 0.2212(7) 0.9217(9) 0.1130(11)
C9A C 0.1508(6) 0.8242(8) 0.0171(9)
C10A C -0.0295(5) 0.6724(6) -0.2554(7)
C11A C -0.0900(6) 0.7330(8) -0.3171(8)
C12A C -0.0774(9) 0.7581(9) -0.4449(11)
C13A C -0.0056(11) 0.7214(9) -0.5106(10)
C14A C 0.0561(9) 0.6621(9) -0.4520(10)
C15A C 0.0442(7) 0.6391(7) -0.3251(8)
C16A C 0.5189(4) 0.5594(5) 0.0577(6)
P2A P 0.62720(11) 0.67904(14) 0.01773(16)
P2A_2 P -0.37280(11) 0.67904(14) 0.01773(16)
C17A C 0.5643(5) 0.7385(5) -0.1108(7)
C18A C 0.5813(5) 0.7096(6) -0.2439(8)
C19A C 0.5339(7) 0.7521(8) -0.3453(8)
C20A C 0.4693(8) 0.8230(9) -0.3156(10)
C21A C 0.4508(8) 0.8529(9) -0.1848(11)
C22A C 0.4973(7) 0.8088(7) -0.0834(8)
C23A C 0.6665(5) 0.8087(5) 0.1674(6)
C24A C 0.7582(5) 0.9040(6) 0.1733(7)
C25A C 0.7943(6) 1.0046(7) 0.2846(9)
C26A C 0.7402(6) 1.0127(7) 0.3903(7)
C27A C 0.6493(7) 0.9213(7) 0.3846(7)
C28A C 0.6131(6) 0.8205(6) 0.2740(7)
H1A H -0.35884 0.43263 0.40158
H2A H -0.34696 0.57882 0.42641
H3A H -0.25656 0.53500 0.48915
H4A H 0.07548 0.53708 -0.08080
H5A H -0.03511 0.44192 -0.13740
H6A H -0.05252 0.80412 0.16100
H7A H 0.06728 0.97645 0.32195
H8A H 0.23936 1.04574 0.28563
H9A H 0.29182 0.95092 0.10068
H10A H 0.17432 0.78503 -0.06004
H11A H -0.14227 0.75574 -0.27272
H12A H -0.11658 0.80595 -0.48330
H13A H 0.00291 0.73482 -0.59939
H14A H 0.10585 0.63573 -0.49866
H15A H 0.08903 0.59883 -0.28422
H16A H 0.46223 0.59347 0.06923
H17A H 0.54167 0.53788 0.13923
H18A H 0.62558 0.65792 -0.26656
H19A H 0.54788 0.73343 -0.43436
H20A H 0.43672 0.85123 -0.38647
H21A H 0.40817 0.90447 -0.16484
H22A H 0.48261 0.82729 0.00589
H23A H 0.79613 0.90046 0.09905
H24A H 0.85824 1.07010 0.28724
H25A H 0.76604 1.08237 0.46677
H26A H 0.61131 0.92671 0.45801
H27A H 0.55031 0.75713 0.27286
loop_
_geom_bond_atom_site_label_1
_geom_bond_atom_site_label_2
_geom_bond_site_symmetry_1
_geom_bond_site_symmetry_2
Ag1 O1 1_555 1_555
Cl1 O1 1_555 1_555
O2 Cl1 1_555 1_555
O3 Cl1 1_555 1_555
O4 Cl1 1_555 1_555
N1 Ag1 1_555 1_555
C1 N1 1_555 1_555
C2 C1 1_555 1_555
C3 P1 1_555 1_555
P1 Ag1 1_555 1_555
C4 P1 1_555 1_555
C5 C4 1_555 1_555
C6 C5 1_555 1_555
C7 C6 1_555 1_555
C8 C7 1_555 1_555
C9 C4 1_555 1_555
C10 P1 1_555 1_555
C11 C10 1_555 1_555
C12 C11 1_555 1_555
C13 C12 1_555 1_555
C14 C13 1_555 1_555
C15 C10 1_555 1_555
C16 P2 1_555 1_555
P2 Ag1 1_555 1_555
C17 P2 1_555 1_555
C18 C17 1_555 1_555
C19 C18 1_555 1_555
C20 C19 1_555 1_555
C21 C20 1_555 1_555
C22 C17 1_555 1_555
C23 P2 1_555 1_555
C24 C23 1_555 1_555
C25 C24 1_555 1_555
C26 C25 1_555 1_555
C27 C26 1_555 1_555
C28 C23 1_555 1_555
H1 C2 1_555 1_555
H2 C2 1_555 1_555
H3 C2 1_555 1_555
H4 C3 1_555 1_555
H5 C3 1_555 1_555
H6 C5 1_555 1_555
H7 C6 1_555 1_555
H8 C7 1_555 1_555
H9 C8 1_555 1_555
H10 C9 1_555 1_555
H11 C11 1_555 1_555
H12 C12 1_555 1_555
H13 C13 1_555 1_555
H14 C14 1_555 1_555
H15 C15 1_555 1_555
H16 C16 1_555 1_555
H17 C16 1_555 1_555
H18 C18 1_555 1_555
H19 C19 1_555 1_555
H20 C20 1_555 1_555
H21 C21 1_555 1_555
H22 C22 1_555 1_555
H23 C24 1_555 1_555
H24 C25 1_555 1_555
H25 C26 1_555 1_555
H26 C27 1_555 1_555
H27 C28 1_555 1_555
Ag1A O1A 1_555 1_555
Ag1A_2 P2A 1_555 1_555
Cl1A O1A 1_555 1_555
O2A Cl1A 1_555 1_555
O3A Cl1A 1_555 1_555
O4A Cl1A 1_555 1_555
N1A Ag1A 1_555 1_555
C1A N1A 1_555 1_555
C2A C1A 1_555 1_555
C3A C3 1_555 1_555
P1A Ag1A 1_555 1_555
C4A P1A 1_555 1_555
C5A C4A 1_555 1_555
C6A C5A 1_555 1_555
C7A C6A 1_555 1_555
C8A C7A 1_555 1_555
C9A C4A 1_555 1_555
C10A P1A 1_555 1_555
C11A C10A 1_555 1_555
C12A C11A 1_555 1_555
C13A C12A 1_555 1_555
C14A C13A 1_555 1_555
C15A C10A 1_555 1_555
C16A C16 1_555 1_555
P2A C16A 1_555 1_555
P2A_2 Ag1A 1_555 1_555
C17A P2A 1_555 1_555
C18A C17A 1_555 1_555
C19A C18A 1_555 1_555
C20A C19A 1_555 1_555
C21A C20A 1_555 1_555
C22A C17A 1_555 1_555
C23A P2A 1_555 1_555
C24A C23A 1_555 1_555
C25A C24A 1_555 1_555
C26A C25A 1_555 1_555
C27A C26A 1_555 1_555
C28A C23A 1_555 1_555
H1A C2A 1_555 1_555
H2A C2A 1_555 1_555
H3A C2A 1_555 1_555
H4A C3A 1_555 1_555
H5A C3A 1_555 1_555
H6A C5A 1_555 1_555
H7A C6A 1_555 1_555
H8A C7A 1_555 1_555
H9A C8A 1_555 1_555
H10A C9A 1_555 1_555
H11A C11A 1_555 1_555
H12A C12A 1_555 1_555
H13A C13A 1_555 1_555
H14A C14A 1_555 1_555
H15A C15A 1_555 1_555
H16A C16A 1_555 1_555
H17A C16A 1_555 1_555
H18A C18A 1_555 1_555
H19A C19A 1_555 1_555
H20A C20A 1_555 1_555
H21A C21A 1_555 1_555
H22A C22A 1_555 1_555
H23A C24A 1_555 1_555
H24A C25A 1_555 1_555
H25A C26A 1_555 1_555
H26A C27A 1_555 1_555
H27A C28A 1_555 1_555
C8 C9 1_555 1_555
C14 C15 1_555 1_555
C21 C22 1_555 1_555
C27 C28 1_555 1_555
C3A P1A 1_555 1_555
C8A C9A 1_555 1_555
C14A C15A 1_555 1_555
C21A C22A 1_555 1_555
C27A C28A 1_555 1_555

#END
