
#######################################################################
#
#                 Cambridge Crystallographic Data Centre
#                                CCDC 
#
#######################################################################
#
# If this CIF has been generated from an entry in the Cambridge 
# Structural Database, then it will include bibliographic, chemical, 
# crystal, experimental, refinement or atomic coordinate data resulting 
# from the CCDC's data processing and validation procedures.
#
#######################################################################

data_TEDTAY
_symmetry_cell_setting           tetragonal
_symmetry_space_group_name_H-M   'I 41/a'
_symmetry_Int_Tables_number      88
_space_group_name_Hall           'I -4 -1bw'
loop_
_symmetry_equiv_pos_site_id
_symmetry_equiv_pos_as_xyz
1 x,y,z
2 1/2-x,1/2-y,1/2+z
3 -y,1/2+x,1/4+z
4 1/2+y,-x,3/4+z
5 -x,1/2-y,1/4-z
6 1/2+x,y,3/4-z
7 y,-x,-z
8 1/2-y,1/2+x,1/2-z
9 1/2+x,1/2+y,1/2+z
10 -x,-y,z
11 1/2-y,x,3/4+z
12 y,1/2-x,1/4+z
13 1/2-x,-y,3/4-z
14 x,1/2+y,1/4-z
15 1/2+y,1/2-x,1/2-z
16 -y,x,-z
_cell_length_a                   16.7341(7)
_cell_length_b                   16.7341(7)
_cell_length_c                   19.6130(8)
_cell_angle_alpha                90
_cell_angle_beta                 90
_cell_angle_gamma                90
_cell_volume                     5492.23
loop_
_atom_site_label
_atom_site_type_symbol
_atom_site_fract_x
_atom_site_fract_y
_atom_site_fract_z
C1 C 0.0248(4) 0.1472(4) -0.0049(4)
C2 C 0.0377(4) 0.2380(4) -0.0046(4)
C3 C -0.1306(4) 0.0714(4) 0.4946(4)
C4 C -0.2067(5) 0.1219(5) 0.4936(4)
C5 C 0.0632(4) -0.0222(4) 0.2148(4)
H1 H 0.1087 -0.0381 0.1913
C6 C 0.0648(5) -0.0228(4) 0.2852(4)
H2 H 0.1107 -0.0391 0.3082
N1 N 0.0000 0.0000 0.1792(3)
N2 N 0.0000 0.0000 0.3202(3)
Cu1 Cu 0.0000 0.0000 0.06968(5)
Cu2 Cu 0.0000 0.0000 0.42967(5)
Cl1 Cl 0.09000(17) 0.26911(15) -0.07791(10)
Cl2 Cl 0.09104(16) 0.26917(15) 0.06813(10)
Cl3 Cl -0.05777(14) 0.28200(15) -0.00403(12)
Cl4 Cl -0.26634(16) 0.10579(19) 0.56622(11)
Cl5 Cl -0.26513(17) 0.1026(2) 0.42021(12)
Cl6 Cl -0.1760(2) 0.22178(15) 0.49159(14)
O1 O 0.0199(4) 0.1149(3) 0.0517(2)
O2 O 0.0188(4) 0.1144(3) -0.0612(2)
O3 O -0.1023(3) 0.0544(3) 0.4378(2)
O4 O -0.1027(3) 0.0554(3) 0.5511(2)
C1I C -0.0248(4) -0.1472(4) -0.0049(4)
C2I C -0.0377(4) -0.2380(4) -0.0046(4)
C3I C 0.1306(4) -0.0714(4) 0.4946(4)
C4I C 0.2067(5) -0.1219(5) 0.4936(4)
C5I C -0.0632(4) 0.0222(4) 0.2148(4)
H1I H -0.1087 0.0381 0.1913
C6I C -0.0648(5) 0.0228(4) 0.2852(4)
H2I H -0.1107 0.0391 0.3082
Cu1F Cu 0.0000 0.0000 -0.06968(5)
Cu2F Cu 0.0000 0.0000 0.57033(5)
Cl1I Cl -0.09000(17) -0.26911(15) -0.07791(10)
Cl2I Cl -0.09104(16) -0.26917(15) 0.06813(10)
Cl3I Cl 0.05777(14) -0.28200(15) -0.00403(12)
Cl4I Cl 0.26634(16) -0.10579(19) 0.56622(11)
Cl5I Cl 0.26513(17) -0.1026(2) 0.42021(12)
Cl6I Cl 0.1760(2) -0.22178(15) 0.49159(14)
O1I O -0.0199(4) -0.1149(3) 0.0517(2)
O2I O -0.0188(4) -0.1144(3) -0.0612(2)
O2F O 0.1144(3) -0.0188(4) 0.0612(2)
O2O O -0.1144(3) 0.0188(4) 0.0612(2)
O3I O 0.1023(3) -0.0544(3) 0.4378(2)
O4I O 0.1027(3) -0.0554(3) 0.5511(2)
O4F O 0.0554(3) 0.1027(3) 0.4489(2)
O4O O -0.0554(3) -0.1027(3) 0.4489(2)
loop_
_geom_bond_atom_site_label_1
_geom_bond_atom_site_label_2
_geom_bond_site_symmetry_1
_geom_bond_site_symmetry_2
C1 C2 1_555 1_555
C2 Cl1 1_555 1_555
C3 C4 1_555 1_555
C4 Cl4 1_555 1_555
C5 H1 1_555 1_555
C6 C5 1_555 1_555
H2 C6 1_555 1_555
N1 C5 1_555 1_555
N2 C6 1_555 1_555
Cu1 N1 1_555 1_555
Cu2 N2 1_555 1_555
Cl2 C2 1_555 1_555
Cl3 C2 1_555 1_555
Cl5 C4 1_555 1_555
Cl6 C4 1_555 1_555
O1 C1 1_555 1_555
O2 C1 1_555 1_555
O3 C3 1_555 1_555
O4 C3 1_555 1_555
C1I C2I 1_555 1_555
C2I Cl1I 1_555 1_555
C3I C4I 1_555 1_555
C4I Cl4I 1_555 1_555
C5I N1 1_555 1_555
H1I C5I 1_555 1_555
C6I N2 1_555 1_555
H2I C6I 1_555 1_555
Cu1F O2 1_555 1_555
Cu2F O4 1_555 1_555
Cl2I C2I 1_555 1_555
Cl3I C2I 1_555 1_555
Cl5I C4I 1_555 1_555
Cl6I C4I 1_555 1_555
O1I Cu1 1_555 1_555
O2I C1I 1_555 1_555
O2F Cu1 1_555 1_555
O2O Cu1 1_555 1_555
O3I Cu2 1_555 1_555
O4I C3I 1_555 1_555
O4F Cu2 1_555 1_555
O4O Cu2 1_555 1_555
Cu1 O1 1_555 1_555
Cu2 O3 1_555 1_555
C1I O1I 1_555 1_555
C3I O3I 1_555 1_555
C5I C6I 1_555 1_555
Cu1F O2I 1_555 1_555
Cu2F O4I 1_555 1_555

#END
