
#######################################################################
#
#                 Cambridge Crystallographic Data Centre
#                                CCDC 
#
#######################################################################
#
# If this CIF has been generated from an entry in the Cambridge 
# Structural Database, then it will include bibliographic, chemical, 
# crystal, experimental, refinement or atomic coordinate data resulting 
# from the CCDC's data processing and validation procedures.
#
#######################################################################

data_TEDTIF
_symmetry_cell_setting           monoclinic
_symmetry_space_group_name_H-M   'P 21/c'
_symmetry_Int_Tables_number      14
_space_group_name_Hall           '-P 2ybc'
loop_
_symmetry_equiv_pos_site_id
_symmetry_equiv_pos_as_xyz
1 x,y,z
2 -x,1/2+y,1/2-z
3 -x,-y,-z
4 x,1/2-y,1/2+z
_cell_length_a                   10.366(4)
_cell_length_b                   9.886(3)
_cell_length_c                   12.493(4)
_cell_angle_alpha                90
_cell_angle_beta                 99.39(3)
_cell_angle_gamma                90
_cell_volume                     1263.11
loop_
_atom_site_label
_atom_site_type_symbol
_atom_site_fract_x
_atom_site_fract_y
_atom_site_fract_z
Sn1 Sn -0.44900(7) 0.16861(7) 0.70322(6)
S1 S -0.0272(3) 0.7866(4) 0.6681(3)
O1 O -0.3167(6) 0.3309(8) 0.6747(6)
O2 O -0.5860(7) -0.0260(7) 0.7275(6)
C1 C -0.3321(10) 0.4490(11) 0.7152(9)
C2 C -0.2419(11) 0.5597(11) 0.6911(10)
C3 C -0.1771(11) 0.5563(12) 0.6107(10)
C4 C -0.0903(9) 0.6594(12) 0.5817(10)
C5 C 0.0587(12) 0.8533(13) 0.5734(12)
C6 C 0.0367(12) 0.7802(14) 0.4819(12)
C7 C -0.0446(10) 0.6698(14) 0.4866(9)
C8 C -0.3386(11) 0.0342(12) 0.6221(11)
C9 C -0.6143(10) 0.2628(11) 0.6120(8)
C10 C -0.4070(12) 0.1729(14) 0.8748(11)
O2A O -0.4140(7) 0.4740(7) 0.7725(6)
Sn1A Sn -0.55100(7) 0.66861(7) 0.79678(6)
loop_
_geom_bond_atom_site_label_1
_geom_bond_atom_site_label_2
_geom_bond_site_symmetry_1
_geom_bond_site_symmetry_2
Sn1 O1 1_555 1_555
S1 C4 1_555 1_555
O1 C1 1_555 1_555
O2 Sn1 1_555 1_555
C1 C2 1_555 1_555
C2 C3 1_555 1_555
C3 C4 1_555 1_555
C4 C7 1_555 1_555
C5 S1 1_555 1_555
C6 C5 1_555 1_555
C7 C6 1_555 1_555
C8 Sn1 1_555 1_555
C9 Sn1 1_555 1_555
C10 Sn1 1_555 1_555
O2A C1 1_555 1_555
Sn1A O2A 1_555 1_555

#END
