
#######################################################################
#
#                 Cambridge Crystallographic Data Centre
#                                CCDC 
#
#######################################################################
#
# If this CIF has been generated from an entry in the Cambridge 
# Structural Database, then it will include bibliographic, chemical, 
# crystal, experimental, refinement or atomic coordinate data resulting 
# from the CCDC's data processing and validation procedures.
#
#######################################################################

data_TEFCUE
_symmetry_cell_setting           monoclinic
_symmetry_space_group_name_H-M   'P 21/c'
_symmetry_Int_Tables_number      14
_space_group_name_Hall           '-P 2ybc'
loop_
_symmetry_equiv_pos_site_id
_symmetry_equiv_pos_as_xyz
1 x,y,z
2 -x,1/2+y,1/2-z
3 -x,-y,-z
4 x,1/2-y,1/2+z
_cell_length_a                   10.435(8)
_cell_length_b                   14.261(11)
_cell_length_c                   15.492(9)
_cell_angle_alpha                90
_cell_angle_beta                 123.96(4)
_cell_angle_gamma                90
_cell_volume                     1912.18
loop_
_atom_site_label
_atom_site_type_symbol
_atom_site_fract_x
_atom_site_fract_y
_atom_site_fract_z
Zn1 Zn 0.58691(3) 0.134934(19) 0.17035(2)
O1 O 0.5681(2) 0.27116(13) 0.12489(15)
O2 O 0.5092(3) 0.24670(14) -0.03514(16)
O3 O 0.3532(2) 0.05827(15) 0.01311(19)
O4 O 0.3744(2) 0.12096(13) 0.15092(18)
O5 O 0.6884(2) 0.10664(14) 0.08923(15)
N1 N 0.7282(2) 0.17414(14) 0.32830(17)
N2 N 0.6534(2) 0.00089(14) 0.25042(16)
N3 N 0.9751(3) 0.03552(17) 0.67919(17)
H1 H 1.0150 0.0836 0.7245
N4 N 0.9095(3) -0.11004(17) 0.61379(18)
C1 C 0.7666(3) 0.26120(19) 0.3642(2)
H2 H 0.7359 0.3101 0.3168
C2 C 0.8508(4) 0.28215(19) 0.4695(2)
H3 H 0.8775 0.3440 0.4916
C3 C 0.8947(3) 0.21174(19) 0.5414(2)
H4 H 0.9490 0.2253 0.6121
C4 C 0.7726(3) 0.10296(17) 0.39781(19)
C5 C 0.8561(3) 0.11925(18) 0.5059(2)
C6 C 0.7314(3) 0.00903(17) 0.35532(19)
C7 C 0.6150(3) -0.08457(19) 0.2090(2)
H5 H 0.5632 -0.0906 0.1372
C8 C 0.7273(3) -0.15821(18) 0.3744(2)
H6 H 0.7512 -0.2116 0.4151
C9 C 0.7710(3) -0.06907(17) 0.42079(19)
C10 C 0.8537(3) -0.04983(18) 0.52986(19)
C11 C 0.8953(3) 0.03904(18) 0.5715(2)
C12 C 0.5313(3) 0.29917(17) 0.0359(2)
C13 C 0.5572(3) 0.46552(17) 0.0987(2)
H7 H 0.5953 0.4422 0.1649
C14 C 0.5148(3) 0.40346(17) 0.01745(19)
C15 C 0.4567(3) 0.43867(17) -0.0820(2)
H8 H 0.4275 0.3978 -0.1369
C16 C 0.2999(3) 0.07503(17) 0.0669(2)
C17 C 0.1438(3) 0.03808(17) 0.0326(2)
C18 C 0.0338(3) 0.02126(17) -0.0726(2)
H9 H 0.0558 0.0358 -0.1215
C19 C 0.1087(3) 0.01708(17) 0.1049(2)
H10 H 0.1810 0.0288 0.1751
C20 C 0.9795(3) -0.0541(2) 0.6993(2)
H11 H 1.0267 -0.0775 0.7665
C21 C 0.6489(3) -0.16536(19) 0.2685(2)
H12 H 0.6186 -0.2238 0.2365
Zn1B Zn 0.41309(3) 0.865066(19) -0.17035(2)
Zn1B_2 Zn -0.58691(3) -0.134934(19) -0.17035(2)
O1B O 0.4319(2) 0.72884(13) -0.12489(15)
O2B O 0.4908(3) 0.75330(14) 0.03514(16)
O3B O -0.3532(2) -0.05827(15) -0.01311(19)
O3B_2 O 0.6468(2) 0.94173(15) -0.01311(19)
O4B O -0.3744(2) -0.12096(13) -0.15092(18)
O4B_2 O 0.6256(2) 0.87904(13) -0.15092(18)
O5B O 0.3116(2) 0.89336(14) -0.08923(15)
N1B N 0.2718(2) 0.82586(14) -0.32830(17)
N2B N 0.3466(2) 0.99911(14) -0.25042(16)
N3B N 0.0249(3) 0.96448(17) -0.67919(17)
H1B H -0.0150 0.9164 -0.7245
N4B N 0.0905(3) 1.11004(17) -0.61379(18)
C1B C 0.2334(3) 0.73880(19) -0.3642(2)
H2B H 0.2641 0.6899 -0.3168
C2B C 0.1492(4) 0.71785(19) -0.4695(2)
H3B H 0.1225 0.6560 -0.4916
C3B C 0.1053(3) 0.78826(19) -0.5414(2)
H4B H 0.0510 0.7747 -0.6121
C4B C 0.2274(3) 0.89704(17) -0.39781(19)
C5B C 0.1439(3) 0.88075(18) -0.5059(2)
C6B C 0.2686(3) 0.99097(17) -0.35532(19)
C7B C 0.3850(3) 1.08457(19) -0.2090(2)
H5B H 0.4368 1.0906 -0.1372
C8B C 0.2727(3) 1.15821(18) -0.3744(2)
H6B H 0.2488 1.2116 -0.4151
C9B C 0.2290(3) 1.06907(17) -0.42079(19)
C10B C 0.1463(3) 1.04983(18) -0.52986(19)
C11B C 0.1047(3) 0.96096(18) -0.5715(2)
C12B C 0.4687(3) 0.70083(17) -0.0359(2)
C13B C 0.4428(3) 0.53448(17) -0.0987(2)
H7B H 0.4047 0.5578 -0.1649
C14B C 0.4852(3) 0.59654(17) -0.01745(19)
C15B C 0.5433(3) 0.56133(17) 0.0820(2)
H8B H 0.5725 0.6022 0.1369
C16B C -0.2999(3) -0.07503(17) -0.0669(2)
C17B C -0.1438(3) -0.03808(17) -0.0326(2)
C18B C -0.0338(3) -0.02126(17) 0.0726(2)
H9B H -0.0558 -0.0358 0.1215
C19B C -0.1087(3) -0.01708(17) -0.1049(2)
H10B H -0.1810 -0.0288 -0.1751
C20B C 0.0205(3) 1.0541(2) -0.6993(2)
H11B H -0.0267 1.0775 -0.7665
C21B C 0.3511(3) 1.16536(19) -0.2685(2)
H12B H 0.3814 1.2238 -0.2365
O6 O 0.1390(3) 0.29115(18) 0.3363(2)
loop_
_geom_bond_atom_site_label_1
_geom_bond_atom_site_label_2
_geom_bond_site_symmetry_1
_geom_bond_site_symmetry_2
Zn1 O1 1_555 1_555
O1 C12 1_555 1_555
O2 C12 1_555 1_555
O3 Zn1 1_555 1_555
O4 Zn1 1_555 1_555
O5 Zn1 1_555 1_555
N1 Zn1 1_555 1_555
N2 Zn1 1_555 1_555
N3 H1 1_555 1_555
N4 C10 1_555 1_555
C1 N1 1_555 1_555
H2 C1 1_555 1_555
C2 C1 1_555 1_555
H3 C2 1_555 1_555
C3 C2 1_555 1_555
H4 C3 1_555 1_555
C4 N1 1_555 1_555
C5 C3 1_555 1_555
C6 N2 1_555 1_555
C7 N2 1_555 1_555
H5 C7 1_555 1_555
C8 H6 1_555 1_555
C9 C6 1_555 1_555
C10 C9 1_555 1_555
C11 N3 1_555 1_555
C12 C14 1_555 1_555
C13 H7 1_555 1_555
C14 C13 1_555 1_555
C15 C14 1_555 1_555
H8 C15 1_555 1_555
C16 O3 1_555 1_555
C17 C16 1_555 1_555
C18 C17 1_555 1_555
H9 C18 1_555 1_555
C19 C17 1_555 1_555
H10 C19 1_555 1_555
C20 N3 1_555 1_555
H11 C20 1_555 1_555
C21 C7 1_555 1_555
H12 C21 1_555 1_555
Zn1B O1B 1_555 1_555
Zn1B_2 O3B 1_555 1_555
O1B C12B 1_555 1_555
O2B C12B 1_555 1_555
O3B C16B 1_555 1_555
O3B_2 Zn1B 1_555 1_555
O4B Zn1B_2 1_555 1_555
O4B_2 Zn1B 1_555 1_555
O5B Zn1B 1_555 1_555
N1B Zn1B 1_555 1_555
N2B Zn1B 1_555 1_555
N3B H1B 1_555 1_555
N4B C10B 1_555 1_555
C1B N1B 1_555 1_555
H2B C1B 1_555 1_555
C2B C1B 1_555 1_555
H3B C2B 1_555 1_555
C3B C2B 1_555 1_555
H4B C3B 1_555 1_555
C4B N1B 1_555 1_555
C5B C3B 1_555 1_555
C6B N2B 1_555 1_555
C7B N2B 1_555 1_555
H5B C7B 1_555 1_555
C8B H6B 1_555 1_555
C9B C6B 1_555 1_555
C10B C9B 1_555 1_555
C11B N3B 1_555 1_555
C12B C14B 1_555 1_555
C13B C15 1_555 1_555
H7B C13B 1_555 1_555
C14B C13B 1_555 1_555
C15B C13 1_555 1_555
H8B C15B 1_555 1_555
C16B O4B 1_555 1_555
C17B C16B 1_555 1_555
C18B C19 1_555 1_555
H9B C18B 1_555 1_555
C19B C18 1_555 1_555
H10B C19B 1_555 1_555
C20B N3B 1_555 1_555
H11B C20B 1_555 1_555
C21B C7B 1_555 1_555
H12B C21B 1_555 1_555
O4 C16 1_555 1_555
N4 C20 1_555 1_555
C4 C5 1_555 1_555
C4 C6 1_555 1_555
C5 C11 1_555 1_555
C8 C9 1_555 1_555
C8 C21 1_555 1_555
C10 C11 1_555 1_555
N4B C20B 1_555 1_555
C4B C5B 1_555 1_555
C4B C6B 1_555 1_555
C5B C11B 1_555 1_555
C8B C9B 1_555 1_555
C8B C21B 1_555 1_555
C10B C11B 1_555 1_555
C14B C15B 1_555 1_555
C17B C18B 1_555 1_555
C17B C19B 1_555 1_555

#END
