
#######################################################################
#
#                 Cambridge Crystallographic Data Centre
#                                CCDC 
#
#######################################################################
#
# If this CIF has been generated from an entry in the Cambridge 
# Structural Database, then it will include bibliographic, chemical, 
# crystal, experimental, refinement or atomic coordinate data resulting 
# from the CCDC's data processing and validation procedures.
#
#######################################################################

data_TEFCAK
_symmetry_cell_setting           monoclinic
_symmetry_space_group_name_H-M   'P 21/c'
_symmetry_Int_Tables_number      14
_space_group_name_Hall           '-P 2ybc'
loop_
_symmetry_equiv_pos_site_id
_symmetry_equiv_pos_as_xyz
1 x,y,z
2 -x,1/2+y,1/2-z
3 -x,-y,-z
4 x,1/2-y,1/2+z
_cell_length_a                   12.309(2)
_cell_length_b                   26.152(4)
_cell_length_c                   14.543(2)
_cell_angle_alpha                90
_cell_angle_beta                 111.894(2)
_cell_angle_gamma                90
_cell_volume                     4343.81
loop_
_atom_site_label
_atom_site_type_symbol
_atom_site_fract_x
_atom_site_fract_y
_atom_site_fract_z
Zn1 Zn 0.89820(2) 0.861844(11) 0.06628(2)
Zn2 Zn 0.75049(2) 0.871267(11) -0.24933(2)
O1 O 0.95815(16) 0.87046(7) -0.05406(14)
O2 O 0.72187(16) 0.85343(7) -0.03992(14)
N1 N 0.8268(2) 0.86558(8) 0.18294(16)
N2 N 1.08207(19) 0.86128(7) 0.16403(16)
O3 O 0.67329(17) 0.90620(8) -0.17222(14)
O4 O 0.87584(17) 0.82172(9) -0.18778(15)
O5 O 0.8152(2) 0.91104(7) -0.33024(17)
N3 N 1.3936(2) 0.73542(11) 0.3230(2)
H1 H 1.4562 0.7528 0.3528
N4 N 1.2720(2) 0.66969(10) 0.2665(2)
C1 C 1.4372(3) 0.70006(12) 0.0800(2)
C2 C 0.7930(3) 0.82703(11) 0.2254(2)
H2 H 0.8047 0.7938 0.2081
C3 C 0.9171(3) 1.03479(10) -0.3788(2)
H3 H 0.8927 1.0552 -0.3377
N5 N 0.93590(19) 0.78275(8) 0.08942(16)
O6 O 0.8316(2) 0.98353(9) -0.24742(18)
C4 C 0.4821(2) 0.99078(10) 0.03813(19)
C5 C 1.2617(2) 0.77452(10) 0.01344(19)
C6 C 0.7585(2) 0.92435(10) 0.2779(2)
O7 O 1.63271(18) 0.67589(9) 0.16454(19)
C7 C 0.8998(2) 0.98116(10) -0.38003(19)
C8 C 0.6694(2) 0.89183(10) -0.08988(19)
N6 N 0.87162(17) 0.94139(8) 0.07752(15)
C9 C 1.0476(2) 0.77109(9) 0.14961(17)
N7 N 0.6984(2) 0.99960(10) 0.35903(19)
C10 C 0.8087(2) 0.91389(9) 0.20695(18)
C11 C 0.7435(2) 0.97690(11) 0.2959(2)
C12 C 0.8352(2) 0.95517(9) 0.15107(18)
C13 C 1.1276(2) 0.81378(9) 0.18850(17)
C14 C 0.9576(2) 0.83258(10) -0.10701(19)
C15 C 1.0090(2) 1.02683(9) -0.49877(19)
C16 C 1.0350(2) 0.74417(11) -0.1061(2)
H4 H 0.9599 0.7346 -0.1477
C17 C 0.9688(3) 1.05692(10) -0.4369(2)
H5 H 0.9779 1.0922 -0.4359
C18 C 0.8157(2) 1.00648(9) 0.1695(2)
C19 C 1.0577(2) 0.79555(10) -0.07544(19)
C20 C 1.2459(2) 0.80535(10) 0.24718(18)
N8 N 0.7461(2) 1.06266(10) 0.2780(2)
H6 H 0.7560 1.0928 0.2587
C21 C 1.3269(2) 0.68599(11) 0.0205(2)
H7 H 1.3112 0.6518 0.0026
C22 C 0.5609(2) 0.90724(11) 0.0257(2)
H8 H 0.5757 0.8735 0.0468
C23 C 0.8452(2) 0.95762(10) -0.3131(2)
C24 C 0.5028(2) 0.93923(11) 0.0677(2)
H9 H 0.4772 0.9266 0.1160
C25 C 1.0854(2) 0.72039(9) 0.17329(19)
C26 C 1.1536(2) 0.90096(10) 0.1951(2)
H10 H 1.1230 0.9337 0.1783
C27 C 0.7729(2) 1.01649(10) 0.2462(2)
C28 C 0.8837(2) 0.97768(10) 0.0179(2)
H11 H 0.9042 0.9682 -0.0351
C29 C 0.9348(2) 0.95181(9) -0.4417(2)
H12 H 0.9211 0.9168 -0.4445
C30 C 1.1689(2) 0.81074(11) -0.01728(19)
H13 H 1.1836 0.8447 0.0021
C31 C 0.5743(2) 0.97490(11) -0.0816(2)
H14 H 0.5956 0.9862 -0.1331
C32 C 1.1215(3) 0.70840(11) -0.0754(2)
H15 H 1.1048 0.6745 -0.0949
C33 C 0.8354(3) 1.04382(10) 0.1086(2)
H16 H 0.8271 1.0783 0.1203
C34 C 0.8597(2) 0.74475(10) 0.0535(2)
H17 H 0.7840 0.7526 0.0108
C35 C 1.0019(3) 0.68140(10) 0.1372(2)
H18 H 1.0227 0.6475 0.1536
C36 C 0.7245(3) 0.88263(12) 0.3218(2)
H19 H 0.6911 0.8880 0.3688
C37 C 0.8670(3) 1.02942(10) 0.0319(2)
H20 H 0.8772 1.0538 -0.0107
C38 C 1.3190(3) 0.84819(12) 0.2790(2)
H21 H 1.3979 0.8442 0.3180
C39 C 1.2726(3) 0.89585(12) 0.2519(2)
H22 H 1.3201 0.9246 0.2712
O8 O 1.5044(2) 0.61336(10) 0.1034(2)
C40 C 1.2061(2) 0.71342(10) 0.2331(2)
C41 C 1.2358(2) 0.72247(10) -0.0147(2)
C42 C 0.5979(2) 0.92567(11) -0.04947(19)
C43 C 1.4631(3) 0.75162(13) 0.1059(2)
H23 H 1.5390 0.7610 0.1457
C44 C 0.7408(3) 0.83403(12) 0.2950(2)
H24 H 0.7176 0.8060 0.3225
C45 C 1.2838(2) 0.75348(11) 0.2688(2)
C46 C 1.3772(3) 0.78846(12) 0.0732(2)
H25 H 1.3954 0.8225 0.0904
C47 C 1.3816(3) 0.68577(13) 0.3189(3)
H26 H 1.4433 0.6635 0.3496
C48 C 0.8892(3) 0.69371(11) 0.0775(2)
H27 H 0.8330 0.6682 0.0532
C49 C 1.5312(3) 0.65940(13) 0.1184(2)
C50 C 0.7019(3) 1.05032(12) 0.3446(3)
H28 H 0.6756 1.0744 0.3785
Zn1B Zn 0.10180(2) 1.138156(11) -0.06628(2)
Zn1C Zn -0.10180(2) 0.638156(11) -0.43372(2)
Zn2B Zn 0.24951(2) 1.128733(11) 0.24933(2)
Zn2C Zn 1.75049(2) 0.628733(11) 0.25067(2)
Zn2B_2 Zn 1.24951(2) 1.128733(11) -0.75067(2)
Zn2C_2 Zn -0.24951(2) 0.628733(11) -0.74933(2)
O1C O -0.04185(16) 0.62954(7) -0.55406(14)
O1B O 0.04185(16) 1.12954(7) 0.05406(14)
O2B O 0.27813(16) 1.14657(7) 0.03992(14)
N1B N 0.1732(2) 1.13442(8) -0.18294(16)
N2B N -0.08207(19) 1.13872(7) -0.16403(16)
O3B O 0.32671(17) 1.09380(8) 0.17222(14)
O4C O -0.12416(17) 0.67828(9) -0.68778(15)
O4B O 0.12416(17) 1.17828(9) 0.18778(15)
O5B O 1.1848(2) 1.08896(7) -0.66976(17)
O5B_2 O 0.1848(2) 1.08896(7) 0.33024(17)
N3B N -0.3936(2) 1.26458(11) -0.3230(2)
H1B H -0.4562 1.2472 -0.3528
N4B N -0.2720(2) 1.33031(10) -0.2665(2)
C1C C 0.4372(3) 0.79994(12) -0.4200(2)
C2B C 0.2070(3) 1.17297(11) -0.2254(2)
H2B H 0.1953 1.2062 -0.2081
C3B C 1.0829(3) 0.96521(10) -0.6212(2)
H3B H 1.1073 0.9448 -0.6623
N5B N 0.06410(19) 1.21725(8) -0.08942(16)
O6B O 1.1684(2) 1.01647(9) -0.75258(18)
C4B C 0.5179(2) 1.00922(10) -0.03813(19)
C5C C 0.2617(2) 0.72548(10) -0.48656(19)
C6B C 0.2415(2) 1.07565(10) -0.2779(2)
O7C O 0.63271(18) 0.82411(9) -0.33546(19)
O7A O 0.36729(18) 1.17589(9) 0.33546(19)
C7B C 1.1002(2) 1.01884(10) -0.61997(19)
C8B C 0.3306(2) 1.10817(10) 0.08988(19)
N6B N 0.12838(17) 1.05861(8) -0.07752(15)
C9B C -0.0476(2) 1.22891(9) -0.14961(17)
N7B N 0.3016(2) 1.00040(10) -0.35903(19)
C10B C 0.1913(2) 1.08611(9) -0.20695(18)
C11B C 0.2565(2) 1.02310(11) -0.2959(2)
C12B C 0.1648(2) 1.04483(9) -0.15107(18)
C13B C -0.1276(2) 1.18622(9) -0.18850(17)
C14C C -0.0424(2) 0.66742(10) -0.60701(19)
C15B C 0.9910(2) 0.97317(9) -0.50123(19)
C16C C 0.0350(2) 0.75583(11) -0.6061(2)
H4C H -0.0401 0.7654 -0.6477
C17B C 1.0312(3) 0.94308(10) -0.5631(2)
H5B H 1.0221 0.9078 -0.5641
C18B C 0.1843(2) 0.99352(9) -0.1695(2)
C19C C 0.0577(2) 0.70445(10) -0.57544(19)
C20B C -0.2459(2) 1.19465(10) -0.24718(18)
N8B N 0.2539(2) 0.93734(10) -0.2780(2)
H6B H 0.2440 0.9072 -0.2587
C21C C 0.3269(2) 0.81401(11) -0.4795(2)
H7C H 0.3112 0.8482 -0.4974
C22B C 0.4391(2) 1.09276(11) -0.0257(2)
H8B H 0.4243 1.1265 -0.0468
C23B C 1.1548(2) 1.04238(10) -0.6869(2)
C24B C 0.4972(2) 1.06077(11) -0.0677(2)
H9B H 0.5228 1.0734 -0.1160
C25B C -0.0854(2) 1.27961(9) -0.17329(19)
C26B C -0.1536(2) 1.09904(10) -0.1951(2)
H10B H -0.1230 1.0663 -0.1783
C27B C 0.2271(2) 0.98351(10) -0.2462(2)
C28B C 0.1163(2) 1.02232(10) -0.0179(2)
H11B H 0.0958 1.0318 0.0351
C29B C 1.0652(2) 1.04819(9) -0.5583(2)
H12B H 1.0789 1.0832 -0.5555
C30C C 0.1689(2) 0.68926(11) -0.51728(19)
H13C H 0.1836 0.6553 -0.4979
C31B C 0.4257(2) 1.02510(11) 0.0816(2)
H14B H 0.4044 1.0138 0.1331
C32C C 0.1215(3) 0.79160(11) -0.5754(2)
H15C H 0.1048 0.8255 -0.5949
C33B C 0.1646(3) 0.95618(10) -0.1086(2)
H16B H 0.1729 0.9217 -0.1203
C34B C 0.1403(2) 1.25525(10) -0.0535(2)
H17B H 0.2160 1.2474 -0.0108
C35B C -0.0019(3) 1.31860(10) -0.1372(2)
H18B H -0.0227 1.3525 -0.1536
C36B C 0.2755(3) 1.11737(12) -0.3218(2)
H19B H 0.3089 1.1120 -0.3688
C37B C 0.1330(3) 0.97058(10) -0.0319(2)
H20B H 0.1228 0.9462 0.0107
C38B C -0.3190(3) 1.15181(12) -0.2790(2)
H21B H -0.3979 1.1558 -0.3180
C39B C -0.2726(3) 1.10415(12) -0.2519(2)
H22B H -0.3201 1.0754 -0.2712
O8C O 0.5044(2) 0.88664(10) -0.3966(2)
C40B C -0.2061(2) 1.28658(10) -0.2331(2)
C41C C 0.2358(2) 0.77753(10) -0.5147(2)
C42B C 0.4021(2) 1.07433(11) 0.04947(19)
C43C C 0.4631(3) 0.74838(13) -0.3941(2)
H23C H 0.5390 0.7390 -0.3543
C44B C 0.2592(3) 1.16597(12) -0.2950(2)
H24B H 0.2824 1.1940 -0.3225
C45B C -0.2838(2) 1.24652(11) -0.2688(2)
C46C C 0.3772(3) 0.71154(12) -0.4268(2)
H25C H 0.3954 0.6775 -0.4096
C47B C -0.3816(3) 1.31423(13) -0.3189(3)
H26B H -0.4433 1.3365 -0.3496
C48B C 0.1108(3) 1.30629(11) -0.0775(2)
H27B H 0.1670 1.3318 -0.0532
C49C C 0.5312(3) 0.84060(13) -0.3816(2)
C50B C 0.2981(3) 0.94968(12) -0.3446(3)
H28B H 0.3244 0.9256 -0.3785
O9 O 0.5824(3) 0.98752(12) 0.6709(3)
O10 O 0.5997(2) 0.79600(16) 0.4322(2)
O11 O 0.5756(3) 0.94376(15) 0.4503(3)
loop_
_geom_bond_atom_site_label_1
_geom_bond_atom_site_label_2
_geom_bond_site_symmetry_1
_geom_bond_site_symmetry_2
Zn1 O1 1_555 1_555
Zn2 O3 1_555 1_555
O1 C14 1_555 1_555
O2 Zn1 1_555 1_555
N1 Zn1 1_555 1_555
N2 Zn1 1_555 1_555
O3 C8 1_555 1_555
O4 Zn2 1_555 1_555
O5 Zn2 1_555 1_555
N3 H1 1_555 1_555
N4 C40 1_555 1_555
C1 C21 1_555 1_555
C2 N1 1_555 1_555
H2 C2 1_555 1_555
C3 H3 1_555 1_555
N5 Zn1 1_555 1_555
O6 C23 1_555 1_555
C4 C24 1_555 1_555
C5 C30 1_555 1_555
C6 C10 1_555 1_555
O7 C49 1_555 1_555
C7 C3 1_555 1_555
C8 O2 1_555 1_555
N6 Zn1 1_555 1_555
C9 N5 1_555 1_555
N7 C11 1_555 1_555
C10 N1 1_555 1_555
C11 C6 1_555 1_555
C12 N6 1_555 1_555
C13 N2 1_555 1_555
C14 O4 1_555 1_555
C15 C17 1_555 1_555
C16 H4 1_555 1_555
C17 C3 1_555 1_555
H5 C17 1_555 1_555
C18 C12 1_555 1_555
C19 C14 1_555 1_555
C20 C13 1_555 1_555
N8 H6 1_555 1_555
C21 H7 1_555 1_555
C22 H8 1_555 1_555
C23 O5 1_555 1_555
C24 C22 1_555 1_555
H9 C24 1_555 1_555
C25 C9 1_555 1_555
C26 N2 1_555 1_555
H10 C26 1_555 1_555
C27 C11 1_555 1_555
C28 N6 1_555 1_555
H11 C28 1_555 1_555
C29 C7 1_555 1_555
H12 C29 1_555 1_555
C30 C19 1_555 1_555
H13 C30 1_555 1_555
C31 H14 1_555 1_555
C32 C16 1_555 1_555
H15 C32 1_555 1_555
C33 C18 1_555 1_555
H16 C33 1_555 1_555
C34 N5 1_555 1_555
H17 C34 1_555 1_555
C35 C25 1_555 1_555
H18 C35 1_555 1_555
C36 C6 1_555 1_555
H19 C36 1_555 1_555
C37 C28 1_555 1_555
H20 C37 1_555 1_555
C38 C20 1_555 1_555
H21 C38 1_555 1_555
C39 C26 1_555 1_555
H22 C39 1_555 1_555
O8 C49 1_555 1_555
C40 C25 1_555 1_555
C41 C5 1_555 1_555
C42 C8 1_555 1_555
C43 C1 1_555 1_555
H23 C43 1_555 1_555
C44 C2 1_555 1_555
H24 C44 1_555 1_555
C45 N3 1_555 1_555
C46 C5 1_555 1_555
H25 C46 1_555 1_555
C47 N3 1_555 1_555
H26 C47 1_555 1_555
C48 C34 1_555 1_555
H27 C48 1_555 1_555
C49 C1 1_555 1_555
C50 N7 1_555 1_555
H28 C50 1_555 1_555
Zn1B O1B 1_555 1_555
Zn1C O1C 1_555 1_555
Zn2B O3B 1_555 1_555
Zn2C O7 1_555 1_555
Zn2B_2 O5B 1_555 1_555
Zn2C_2 O4C 1_555 1_555
O1C C14C 1_555 1_555
O2B Zn1B 1_555 1_555
N1B Zn1B 1_555 1_555
N2B Zn1B 1_555 1_555
O3B C8B 1_555 1_555
O4C C14C 1_555 1_555
O4B Zn2B 1_555 1_555
O5B C23B 1_555 1_555
O5B_2 Zn2B 1_555 1_555
N3B H1B 1_555 1_555
N4B C40B 1_555 1_555
C1C C21C 1_555 1_555
C2B N1B 1_555 1_555
H2B C2B 1_555 1_555
C3B H3B 1_555 1_555
N5B Zn1B 1_555 1_555
O6B C23B 1_555 1_555
C4B C4 1_555 1_555
C5C C30C 1_555 1_555
C6B C10B 1_555 1_555
O7C Zn2 1_555 1_555
O7A Zn2B 1_555 1_555
C7B C3B 1_555 1_555
C8B O2B 1_555 1_555
N6B Zn1B 1_555 1_555
C9B N5B 1_555 1_555
N7B C11B 1_555 1_555
C10B N1B 1_555 1_555
C11B C6B 1_555 1_555
C12B N6B 1_555 1_555
C13B N2B 1_555 1_555
C14C C19C 1_555 1_555
C15B C15 1_555 1_555
C16C H4C 1_555 1_555
C17B C3B 1_555 1_555
H5B C17B 1_555 1_555
C18B C12B 1_555 1_555
C19C C16C 1_555 1_555
C20B C13B 1_555 1_555
N8B H6B 1_555 1_555
C21C H7C 1_555 1_555
C22B H8B 1_555 1_555
C23B C7B 1_555 1_555
C24B C4B 1_555 1_555
H9B C24B 1_555 1_555
C25B C9B 1_555 1_555
C26B N2B 1_555 1_555
H10B C26B 1_555 1_555
C27B C11B 1_555 1_555
C28B N6B 1_555 1_555
H11B C28B 1_555 1_555
C29B C15 1_555 1_555
H12B C29B 1_555 1_555
C30C C19C 1_555 1_555
H13C C30C 1_555 1_555
C31B C4 1_555 1_555
H14B C31B 1_555 1_555
C32C C16C 1_555 1_555
H15C C32C 1_555 1_555
C33B C18B 1_555 1_555
H16B C33B 1_555 1_555
C34B N5B 1_555 1_555
H17B C34B 1_555 1_555
C35B C25B 1_555 1_555
H18B C35B 1_555 1_555
C36B C6B 1_555 1_555
H19B C36B 1_555 1_555
C37B C28B 1_555 1_555
H20B C37B 1_555 1_555
C38B C20B 1_555 1_555
H21B C38B 1_555 1_555
C39B C26B 1_555 1_555
H22B C39B 1_555 1_555
O8C C49C 1_555 1_555
C40B C25B 1_555 1_555
C41C C5C 1_555 1_555
C42B C8B 1_555 1_555
C43C C1C 1_555 1_555
H23C C43C 1_555 1_555
C44B C2B 1_555 1_555
H24B C44B 1_555 1_555
C45B N3B 1_555 1_555
C46C C5C 1_555 1_555
H25C C46C 1_555 1_555
C47B N3B 1_555 1_555
H26B C47B 1_555 1_555
C48B C34B 1_555 1_555
H27B C48B 1_555 1_555
C49C C1C 1_555 1_555
C50B N7B 1_555 1_555
H28B C50B 1_555 1_555
N4 C47 1_555 1_555
C7 C23 1_555 1_555
C9 C13 1_555 1_555
C10 C12 1_555 1_555
C16 C19 1_555 1_555
C18 C27 1_555 1_555
C20 C45 1_555 1_555
N8 C27 1_555 1_555
N8 C50 1_555 1_555
C21 C41 1_555 1_555
C22 C42 1_555 1_555
C29 C15B 1_555 1_555
C31 C42 1_555 1_555
C31 C4B 1_555 1_555
C32 C41 1_555 1_555
C33 C37 1_555 1_555
C35 C48 1_555 1_555
C36 C44 1_555 1_555
C38 C39 1_555 1_555
C40 C45 1_555 1_555
C43 C46 1_555 1_555
N4B C47B 1_555 1_555
O7C C49C 1_555 1_555
C7B C29B 1_555 1_555
C9B C13B 1_555 1_555
C10B C12B 1_555 1_555
C15B C17B 1_555 1_555
C18B C27B 1_555 1_555
C20B C45B 1_555 1_555
N8B C27B 1_555 1_555
N8B C50B 1_555 1_555
C21C C41C 1_555 1_555
C22B C24B 1_555 1_555
C22B C42B 1_555 1_555
C31B C42B 1_555 1_555
C32C C41C 1_555 1_555
C33B C37B 1_555 1_555
C35B C48B 1_555 1_555
C36B C44B 1_555 1_555
C38B C39B 1_555 1_555
C40B C45B 1_555 1_555
C43C C46C 1_555 1_555

#END
