
#######################################################################
#
#                 Cambridge Crystallographic Data Centre
#                                CCDC 
#
#######################################################################
#
# If this CIF has been generated from an entry in the Cambridge 
# Structural Database, then it will include bibliographic, chemical, 
# crystal, experimental, refinement or atomic coordinate data resulting 
# from the CCDC's data processing and validation procedures.
#
#######################################################################

data_TEGMOH
_symmetry_cell_setting           monoclinic
_symmetry_space_group_name_H-M   'P 21/n'
_symmetry_Int_Tables_number      14
_space_group_name_Hall           '-P 2yn'
loop_
_symmetry_equiv_pos_site_id
_symmetry_equiv_pos_as_xyz
1 x,y,z
2 1/2-x,1/2+y,1/2-z
3 -x,-y,-z
4 1/2+x,1/2-y,1/2+z
_cell_length_a                   8.3490(7)
_cell_length_b                   17.725(2)
_cell_length_c                   10.129(2)
_cell_angle_alpha                90
_cell_angle_beta                 90.866(9)
_cell_angle_gamma                90
_cell_volume                     1498.78
loop_
_atom_site_label
_atom_site_type_symbol
_atom_site_fract_x
_atom_site_fract_y
_atom_site_fract_z
Ag1 Ag 0.47404(6) 0.54725(2) 0.38741(5)
Cu1 Cu 0.7629(1) 0.74042(5) 0.44279(8)
O1 O 0.7852(5) 0.7141(3) 0.2588(4)
O2 O 0.9253(5) 0.6425(2) 0.1222(4)
O3 O 0.6639(5) 0.6104(2) 0.5034(4)
O4 O 0.7538(5) 0.5183(2) 0.6342(5)
O5 O 0.6853(5) 0.9152(3) 0.3796(5)
O6 O 0.7025(6) 0.4887(3) 0.2681(6)
O7 O 0.3770(5) 0.6582(2) 0.2839(4)
O8 O 0.7676(5) 0.7726(2) 0.6261(4)
O9 O 0.5354(5) 0.7716(2) 0.4153(4)
N1 N 0.9594(5) 0.6713(3) 0.4771(4)
N2 N 0.9572(5) 0.8357(3) 0.4336(5)
C1 C 1.0980(7) 0.7197(3) 0.5088(5)
C2 C 1.1030(7) 0.7884(3) 0.4206(6)
C3 C 0.9824(7) 0.6292(3) 0.3506(6)
C4 C 0.8944(7) 0.6645(3) 0.2334(5)
C5 C 0.9311(7) 0.6178(3) 0.5854(6)
C6 C 0.7687(7) 0.5791(3) 0.5718(5)
C7 C 0.9564(8) 0.8918(4) 0.3273(6)
C8 C 0.8051(8) 0.9368(3) 0.3081(6)
C9 C 0.9504(7) 0.8708(3) 0.5644(6)
C10 C 0.8577(7) 0.8246(3) 0.6643(6)
H1 H 0.579(4) 0.933(3) 0.409(7)
H2 H 0.490(8) 0.722(2) 0.413(6)
H3 H 0.509(9) 0.791(3) 0.500(3)
H6 H 1.099(8) 0.736(3) 0.600(2)
H7 H 1.185(5) 0.685(3) 0.492(5)
H8 H 1.197(5) 0.818(3) 0.445(5)
H9 H 1.109(7) 0.772(4) 0.330(2)
H10 H 0.938(6) 0.579(1) 0.361(7)
H11 H 1.095(3) 0.626(3) 0.326(6)
H12 H 0.930(7) 0.650(3) 0.664(4)
H13 H 1.024(5) 0.585(3) 0.587(5)
H14 H 0.966(7) 0.866(3) 0.243(3)
H15 H 1.035(6) 0.932(3) 0.335(6)
H16 H 0.899(6) 0.919(2) 0.550(7)
H17 H 1.060(3) 0.878(3) 0.597(6)
Ag1B Ag 0.52596(6) 0.45275(2) 0.61259(5)
O4B O 0.2462(5) 0.4817(2) 0.3658(5)
O6A O 0.7975(6) 0.9887(3) 0.2319(6)
Ag1A Ag 1.02596(6) 1.04725(2) 0.11259(5)
O7C O 0.8770(5) 0.8418(2) 0.7839(4)
Ag1C Ag 0.97404(6) 0.95275(2) 0.88741(5)
O10 O 0.4344(6) 0.9973(3) 0.3646(4)
H4 H 0.392(8) 0.996(3) 0.276(3)
H5 H 0.450(9) 1.050(1) 0.383(5)
loop_
_geom_bond_atom_site_label_1
_geom_bond_atom_site_label_2
_geom_bond_site_symmetry_1
_geom_bond_site_symmetry_2
Ag1 O3 1_555 1_555
Cu1 O1 1_555 1_555
O1 C4 1_555 1_555
O2 C4 1_555 1_555
O3 Cu1 1_555 1_555
O4 C6 1_555 1_555
O5 C8 1_555 1_555
O6 Ag1 1_555 1_555
O7 Ag1 1_555 1_555
O8 Cu1 1_555 1_555
O9 Cu1 1_555 1_555
O10 H4 1_555 1_555
N1 Cu1 1_555 1_555
N2 Cu1 1_555 1_555
C1 N1 1_555 1_555
C2 N2 1_555 1_555
C3 N1 1_555 1_555
C4 C3 1_555 1_555
C5 N1 1_555 1_555
C6 O3 1_555 1_555
C7 N2 1_555 1_555
C8 C7 1_555 1_555
C9 N2 1_555 1_555
C10 O8 1_555 1_555
H1 O5 1_555 1_555
H2 O9 1_555 1_555
H3 O9 1_555 1_555
H5 O10 1_555 1_555
H6 C1 1_555 1_555
H7 C1 1_555 1_555
H8 C2 1_555 1_555
H9 C2 1_555 1_555
H10 C3 1_555 1_555
H11 C3 1_555 1_555
H12 C5 1_555 1_555
H13 C5 1_555 1_555
H14 C7 1_555 1_555
H15 C7 1_555 1_555
H16 C9 1_555 1_555
H17 C9 1_555 1_555
Ag1B O4 1_555 1_555
O4B Ag1 1_555 1_555
O6A C8 1_555 1_555
Ag1A O6A 1_555 1_555
O7C C10 1_555 1_555
Ag1C O7C 1_555 1_555
C1 C2 1_555 1_555
C5 C6 1_555 1_555
C9 C10 1_555 1_555

#END
