
#######################################################################
#
#                 Cambridge Crystallographic Data Centre
#                                CCDC 
#
#######################################################################
#
# If this CIF has been generated from an entry in the Cambridge 
# Structural Database, then it will include bibliographic, chemical, 
# crystal, experimental, refinement or atomic coordinate data resulting 
# from the CCDC's data processing and validation procedures.
#
#######################################################################

data_TEGTEG
_symmetry_cell_setting           monoclinic
_symmetry_space_group_name_H-M   'C 2/c'
_symmetry_Int_Tables_number      15
_space_group_name_Hall           '-C 2yn'
loop_
_symmetry_equiv_pos_site_id
_symmetry_equiv_pos_as_xyz
1 x,y,z
2 -x,y,1/2-z
3 1/2+x,1/2+y,z
4 1/2-x,1/2+y,1/2-z
5 -x,-y,-z
6 x,-y,1/2+z
7 1/2-x,1/2-y,-z
8 1/2+x,1/2-y,1/2+z
_cell_length_a                   15.8530(9)
_cell_length_b                   9.0945(5)
_cell_length_c                   17.9191(8)
_cell_angle_alpha                90
_cell_angle_beta                 110.934(4)
_cell_angle_gamma                90
_cell_volume                     2412.96
loop_
_atom_site_label
_atom_site_type_symbol
_atom_site_fract_x
_atom_site_fract_y
_atom_site_fract_z
U1 U 0.0000 0.324362(15) 0.7500
O1 O -0.04179(17) 0.3296(2) 0.82878(16)
O2 O 0.08848(14) 0.1124(3) 0.79607(13)
O3 O -0.15539(14) 0.3726(3) 0.64752(14)
O4 O -0.07803(15) 0.5647(3) 0.69630(15)
O5 O -0.21174(17) 0.5891(3) 0.60597(14)
N1 N 0.21779(16) -0.0097(3) 0.85021(15)
N2 N -0.15071(18) 0.5119(3) 0.64802(16)
C1 C 0.14727(19) 0.0579(3) 0.85717(18)
C2 C 0.13184(19) 0.0624(4) 0.93530(18)
H1 H 0.1011 0.1527 0.9390
H2 H 0.1893 0.0598 0.9794
C3 C 0.0742(2) -0.0708(4) 0.9401(2)
H3 H 0.0242 -0.0805 0.8896
H4 H 0.1107 -0.1590 0.9478
C4 C 0.0364(2) -0.0595(4) 1.0075(2)
H5 H 0.0855 -0.0378 1.0572
H6 H 0.0110 -0.1537 1.0137
C5 C 0.29038(19) -0.0783(4) 0.91720(18)
H7 H 0.3131 -0.1638 0.8980
H8 H 0.2662 -0.1111 0.9570
C6 C 0.3675(2) 0.0283(4) 0.9554(2)
H9 H 0.3920 0.0602 0.9163
H10 H 0.4138 -0.0197 0.9986
H11 H 0.3455 0.1119 0.9757
C7 C 0.2243(2) -0.0227(4) 0.76998(18)
H12 H 0.2873 -0.0301 0.7755
H13 H 0.1994 0.0649 0.7391
C8 C 0.1739(3) -0.1561(4) 0.7264(2)
H14 H 0.1960 -0.2421 0.7585
H15 H 0.1831 -0.1665 0.6765
H16 H 0.1106 -0.1445 0.7165
U1D U 0.0000 -0.324362(15) 1.2500
O1A O 0.04179(17) 0.3296(2) 0.67122(16)
O2D O -0.08848(14) -0.1124(3) 1.20393(13)
O2A O -0.08848(14) 0.1124(3) 0.70393(13)
O3A O 0.15539(14) 0.3726(3) 0.85248(14)
O4A O 0.07803(15) 0.5647(3) 0.80370(15)
O5A O 0.21174(17) 0.5891(3) 0.89403(14)
N1D N -0.21779(16) 0.0097(3) 1.14979(15)
N2A N 0.15071(18) 0.5119(3) 0.85198(16)
C1D C -0.14727(19) -0.0579(3) 1.14283(18)
C2D C -0.13184(19) -0.0624(4) 1.06470(18)
H1D H -0.1011 -0.1527 1.0610
H2D H -0.1893 -0.0598 1.0206
C3D C -0.0742(2) 0.0708(4) 1.0599(2)
H3D H -0.0242 0.0805 1.1104
H4D H -0.1107 0.1590 1.0522
C4D C -0.0364(2) 0.0595(4) 0.9925(2)
H5D H -0.0855 0.0378 0.9428
H6D H -0.0110 0.1537 0.9863
C5D C -0.29038(19) 0.0783(4) 1.08280(18)
H7D H -0.3131 0.1638 1.1020
H8D H -0.2662 0.1111 1.0430
C6D C -0.3675(2) -0.0283(4) 1.0446(2)
H9D H -0.3920 -0.0602 1.0837
H10D H -0.4138 0.0197 1.0014
H11D H -0.3455 -0.1119 1.0243
C7D C -0.2243(2) 0.0227(4) 1.23002(18)
H12D H -0.2873 0.0301 1.2245
H13D H -0.1994 -0.0649 1.2609
C8D C -0.1739(3) 0.1561(4) 1.2736(2)
H14D H -0.1960 0.2421 1.2415
H15D H -0.1831 0.1665 1.3235
H16D H -0.1106 0.1445 1.2835
loop_
_geom_bond_atom_site_label_1
_geom_bond_atom_site_label_2
_geom_bond_site_symmetry_1
_geom_bond_site_symmetry_2
U1 O1 1_555 1_555
O2 U1 1_555 1_555
O3 U1 1_555 1_555
O4 U1 1_555 1_555
O5 N2 1_555 1_555
N1 C1 1_555 1_555
N2 O3 1_555 1_555
C1 O2 1_555 1_555
C2 C1 1_555 1_555
H1 C2 1_555 1_555
H2 C2 1_555 1_555
C3 C2 1_555 1_555
H3 C3 1_555 1_555
H4 C3 1_555 1_555
C4 C3 1_555 1_555
H5 C4 1_555 1_555
H6 C4 1_555 1_555
C5 N1 1_555 1_555
H7 C5 1_555 1_555
H8 C5 1_555 1_555
C6 C5 1_555 1_555
H9 C6 1_555 1_555
H10 C6 1_555 1_555
H11 C6 1_555 1_555
C7 N1 1_555 1_555
H12 C7 1_555 1_555
H13 C7 1_555 1_555
C8 C7 1_555 1_555
H14 C8 1_555 1_555
H15 C8 1_555 1_555
H16 C8 1_555 1_555
U1D O2D 1_555 1_555
O1A U1 1_555 1_555
O2D C1D 1_555 1_555
O2A U1 1_555 1_555
O3A U1 1_555 1_555
O4A U1 1_555 1_555
O5A N2A 1_555 1_555
N1D C1D 1_555 1_555
N2A O3A 1_555 1_555
C1D C2D 1_555 1_555
C2D H1D 1_555 1_555
H2D C2D 1_555 1_555
C3D C2D 1_555 1_555
H3D C3D 1_555 1_555
H4D C3D 1_555 1_555
C4D C4 1_555 1_555
H5D C4D 1_555 1_555
H6D C4D 1_555 1_555
C5D N1D 1_555 1_555
H7D C5D 1_555 1_555
H8D C5D 1_555 1_555
C6D C5D 1_555 1_555
H9D C6D 1_555 1_555
H10D C6D 1_555 1_555
H11D C6D 1_555 1_555
C7D N1D 1_555 1_555
H12D C7D 1_555 1_555
H13D C7D 1_555 1_555
C8D C7D 1_555 1_555
H14D C8D 1_555 1_555
H15D C8D 1_555 1_555
H16D C8D 1_555 1_555
O4 N2 1_555 1_555
O4A N2A 1_555 1_555
C3D C4D 1_555 1_555

#END
