
#######################################################################
#
#                 Cambridge Crystallographic Data Centre
#                                CCDC 
#
#######################################################################
#
# If this CIF has been generated from an entry in the Cambridge 
# Structural Database, then it will include bibliographic, chemical, 
# crystal, experimental, refinement or atomic coordinate data resulting 
# from the CCDC's data processing and validation procedures.
#
#######################################################################

data_TEHLAV
_symmetry_cell_setting           monoclinic
_symmetry_space_group_name_H-M   'P 21/c'
_symmetry_Int_Tables_number      14
_space_group_name_Hall           '-P 2ybc'
loop_
_symmetry_equiv_pos_site_id
_symmetry_equiv_pos_as_xyz
1 x,y,z
2 -x,1/2+y,1/2-z
3 -x,-y,-z
4 x,1/2-y,1/2+z
_cell_length_a                   11.198(2)
_cell_length_b                   10.580(2)
_cell_length_c                   24.587(5)
_cell_angle_alpha                90
_cell_angle_beta                 91.02(3)
_cell_angle_gamma                90
_cell_volume                     2912.48
loop_
_atom_site_label
_atom_site_type_symbol
_atom_site_fract_x
_atom_site_fract_y
_atom_site_fract_z
V1 V 0.10573(6) 0.49496(6) 0.21558(3)
Mn1 Mn 0.25757(5) 0.52216(5) 0.34249(2)
V2 V 0.04030(6) 0.72053(6) 0.29720(3)
O1 O 0.0166(3) 0.8856(3) 0.28792(14)
O2 O 0.1672(3) 0.6938(3) 0.33151(12)
N1 N 0.4356(3) 0.6083(3) 0.32213(12)
N2 N 0.3941(3) 0.3600(3) 0.34119(13)
C1 C 0.3743(4) 0.2383(4) 0.35040(19)
H1 H 0.2992 0.2143 0.3622
N3 N 0.1240(3) 0.4070(3) 0.38945(13)
O3 O 0.0501(3) 0.6481(3) 0.23102(12)
O4 O 0.2022(3) 0.4556(3) 0.26483(12)
N4 N 0.2991(3) 0.5538(3) 0.43378(14)
C2 C 0.5957(4) 0.3041(4) 0.31591(17)
C3 C 0.5260(3) 0.5253(4) 0.31417(15)
C4 C 0.5035(3) 0.3937(4) 0.32378(15)
C5 C 0.7091(4) 0.3484(5) 0.2971(2)
H2 H 0.7696 0.2901 0.2910
C6 C 0.5700(5) 0.1770(5) 0.3272(2)
H3 H 0.6287 0.1156 0.3235
C7 C 0.5695(4) 0.7767(4) 0.30016(19)
H4 H 0.5820 0.8633 0.2970
C8 C 0.6588(4) 0.6949(5) 0.29008(19)
H5 H 0.7324 0.7243 0.2786
O5 O 0.1732(3) 0.5030(3) 0.15842(13)
C9 C 0.0584(5) 0.3438(4) 0.47877(19)
C10 C -0.0431(5) 0.2684(5) 0.3990(2)
H6 H -0.1034 0.2212 0.3822
O6 O -0.0678(3) 0.6593(4) 0.32890(15)
C11 C 0.3833(5) 0.6268(5) 0.4553(2)
H7 H 0.4315 0.6720 0.4319
C12 C 0.6394(4) 0.5636(5) 0.29721(17)
C13 C 0.4600(5) 0.1446(5) 0.3434(2)
H8 H 0.4414 0.0603 0.3499
C14 C 0.1351(4) 0.4102(4) 0.44468(16)
C15 C 0.2288(4) 0.4868(4) 0.46804(16)
C16 C 0.0772(6) 0.3515(5) 0.5370(2)
H9 H 0.0276 0.3064 0.5599
C17 C 0.2434(5) 0.4943(5) 0.52499(17)
C18 C -0.0323(5) 0.2716(5) 0.4541(2)
H10 H -0.0850 0.2261 0.4754
C19 C 0.7301(4) 0.4703(5) 0.2883(2)
H11 H 0.8046 0.4955 0.2762
C20 C 0.0368(4) 0.3363(4) 0.36813(19)
H12 H 0.0291 0.3322 0.3304
C21 C 0.1651(5) 0.4227(6) 0.55843(19)
H13 H 0.1754 0.4255 0.5960
C22 C 0.4040(5) 0.6402(6) 0.5113(2)
H14 H 0.4637 0.6936 0.5246
C23 C 0.3348(5) 0.5730(6) 0.5457(2)
H15 H 0.3478 0.5790 0.5831
C24 C 0.4579(4) 0.7302(4) 0.31544(17)
H16 H 0.3965 0.7876 0.3212
V1A V -0.10573(6) 0.99496(6) 0.28442(3)
O1A O -0.0166(3) 0.3856(3) 0.21208(14)
loop_
_geom_bond_atom_site_label_1
_geom_bond_atom_site_label_2
_geom_bond_site_symmetry_1
_geom_bond_site_symmetry_2
V1 O3 1_555 1_555
Mn1 O2 1_555 1_555
V2 O1 1_555 1_555
O1 V1A 1_555 1_555
O2 V2 1_555 1_555
N1 Mn1 1_555 1_555
N2 Mn1 1_555 1_555
C1 N2 1_555 1_555
H1 C1 1_555 1_555
N3 Mn1 1_555 1_555
O3 V2 1_555 1_555
O4 V1 1_555 1_555
N4 Mn1 1_555 1_555
C2 C4 1_555 1_555
C3 N1 1_555 1_555
C4 N2 1_555 1_555
C5 C2 1_555 1_555
H2 C5 1_555 1_555
C6 C2 1_555 1_555
H3 C6 1_555 1_555
C7 H4 1_555 1_555
C8 C7 1_555 1_555
H5 C8 1_555 1_555
O5 V1 1_555 1_555
C9 C14 1_555 1_555
C10 H6 1_555 1_555
O6 V2 1_555 1_555
C11 N4 1_555 1_555
H7 C11 1_555 1_555
C12 C3 1_555 1_555
C13 C1 1_555 1_555
H8 C13 1_555 1_555
C14 N3 1_555 1_555
C15 N4 1_555 1_555
C16 C9 1_555 1_555
H9 C16 1_555 1_555
C17 C15 1_555 1_555
C18 C9 1_555 1_555
H10 C18 1_555 1_555
C19 C5 1_555 1_555
H11 C19 1_555 1_555
C20 N3 1_555 1_555
H12 C20 1_555 1_555
C21 C16 1_555 1_555
H13 C21 1_555 1_555
C22 C11 1_555 1_555
H14 C22 1_555 1_555
C23 C17 1_555 1_555
H15 C23 1_555 1_555
C24 N1 1_555 1_555
H16 C24 1_555 1_555
O1A V1 1_555 1_555
Mn1 O4 1_555 1_555
C3 C4 1_555 1_555
C6 C13 1_555 1_555
C7 C24 1_555 1_555
C8 C12 1_555 1_555
C10 C18 1_555 1_555
C10 C20 1_555 1_555
C12 C19 1_555 1_555
C14 C15 1_555 1_555
C17 C21 1_555 1_555
C22 C23 1_555 1_555

#END
