
#######################################################################
#
#                 Cambridge Crystallographic Data Centre
#                                CCDC 
#
#######################################################################
#
# If this CIF has been generated from an entry in the Cambridge 
# Structural Database, then it will include bibliographic, chemical, 
# crystal, experimental, refinement or atomic coordinate data resulting 
# from the CCDC's data processing and validation procedures.
#
#######################################################################

data_TEHNEA
_symmetry_cell_setting           monoclinic
_symmetry_space_group_name_H-M   'P 21/c'
_symmetry_Int_Tables_number      14
_space_group_name_Hall           '-P 2ybc'
loop_
_symmetry_equiv_pos_site_id
_symmetry_equiv_pos_as_xyz
1 x,y,z
2 -x,1/2+y,1/2-z
3 -x,-y,-z
4 x,1/2-y,1/2+z
_cell_length_a                   11.4298(2)
_cell_length_b                   10.23170(10)
_cell_length_c                   12.3036(2)
_cell_angle_alpha                90
_cell_angle_beta                 100.4200(6)
_cell_angle_gamma                90
_cell_volume                     1415.13
loop_
_atom_site_label
_atom_site_type_symbol
_atom_site_fract_x
_atom_site_fract_y
_atom_site_fract_z
Sn1 Sn 0.435151(18) 0.08509(2) 0.260032(17)
O1 O 0.3234(2) 0.2525(2) 0.2913(2)
O2 O 0.4638(2) 0.3939(2) 0.2735(2)
C1 C 0.4473(4) 0.1480(5) 0.0988(3)
H1 H 0.3773 0.1212 0.0482
H2 H 0.5162 0.1097 0.0771
H3 H 0.4538 0.2415 0.0978
C2 C 0.5673(4) 0.1194(4) 0.4014(3)
H4 H 0.5428 0.0815 0.4651
H5 H 0.5782 0.2118 0.4123
H6 H 0.6409 0.0804 0.3910
C3 C 0.2907(4) -0.0408(4) 0.2779(4)
H7 H 0.2375 -0.0482 0.2082
H8 H 0.2488 -0.0050 0.3319
H9 H 0.3210 -0.1256 0.3014
C4 C 0.3586(3) 0.3688(3) 0.2856(3)
C5 C 0.2757(3) 0.4789(3) 0.2912(3)
H10 H 0.3154 0.5640 0.2935
C6 C 0.1474(3) 0.4840(4) 0.2275(4)
C7 C 0.1699(3) 0.4805(4) 0.3508(3)
C8 C 0.1095(5) 0.6115(5) 0.1676(5)
H11 H 0.0992 0.5978 0.0892
H12 H 0.1696 0.6766 0.1894
H13 H 0.0358 0.6405 0.1864
C9 C 0.0936(5) 0.3646(6) 0.1630(5)
H14 H 0.0851 0.3815 0.0852
H15 H 0.0169 0.3465 0.1810
H16 H 0.1448 0.2906 0.1821
C10 C 0.1563(5) 0.6050(5) 0.4155(5)
H17 H 0.1728 0.5863 0.4932
H18 H 0.0764 0.6372 0.3952
H19 H 0.2110 0.6699 0.3987
C11 C 0.1364(4) 0.3601(5) 0.4113(5)
H20 H 0.1561 0.3743 0.4896
H21 H 0.1794 0.2857 0.3918
H22 H 0.0525 0.3443 0.3906
Sn1A Sn 0.564849(18) 0.58509(2) 0.239968(17)
O2A O 0.5362(2) -0.1061(2) 0.2265(2)
loop_
_geom_bond_atom_site_label_1
_geom_bond_atom_site_label_2
_geom_bond_site_symmetry_1
_geom_bond_site_symmetry_2
Sn1 O1 1_555 1_555
O1 C4 1_555 1_555
O2 C4 1_555 1_555
C1 Sn1 1_555 1_555
H1 C1 1_555 1_555
H2 C1 1_555 1_555
H3 C1 1_555 1_555
C2 Sn1 1_555 1_555
H4 C2 1_555 1_555
H5 C2 1_555 1_555
H6 C2 1_555 1_555
C3 Sn1 1_555 1_555
H7 C3 1_555 1_555
H8 C3 1_555 1_555
H9 C3 1_555 1_555
C4 C5 1_555 1_555
C5 H10 1_555 1_555
C6 C5 1_555 1_555
C7 C5 1_555 1_555
C8 C6 1_555 1_555
H11 C8 1_555 1_555
H12 C8 1_555 1_555
H13 C8 1_555 1_555
C9 C6 1_555 1_555
H14 C9 1_555 1_555
H15 C9 1_555 1_555
H16 C9 1_555 1_555
C10 C7 1_555 1_555
H17 C10 1_555 1_555
H18 C10 1_555 1_555
H19 C10 1_555 1_555
C11 C7 1_555 1_555
H20 C11 1_555 1_555
H21 C11 1_555 1_555
H22 C11 1_555 1_555
Sn1A O2 1_555 1_555
O2A Sn1 1_555 1_555
C6 C7 1_555 1_555

#END
