
#######################################################################
#
#                 Cambridge Crystallographic Data Centre
#                                CCDC 
#
#######################################################################
#
# If this CIF has been generated from an entry in the Cambridge 
# Structural Database, then it will include bibliographic, chemical, 
# crystal, experimental, refinement or atomic coordinate data resulting 
# from the CCDC's data processing and validation procedures.
#
#######################################################################

data_TEHTUV
_symmetry_cell_setting           monoclinic
_symmetry_space_group_name_H-M   'C 2/c'
_symmetry_Int_Tables_number      15
_space_group_name_Hall           '-C 2yn'
loop_
_symmetry_equiv_pos_site_id
_symmetry_equiv_pos_as_xyz
1 x,y,z
2 -x,y,1/2-z
3 1/2+x,1/2+y,z
4 1/2-x,1/2+y,1/2-z
5 -x,-y,-z
6 x,-y,1/2+z
7 1/2-x,1/2-y,-z
8 1/2+x,1/2-y,1/2+z
_cell_length_a                   29.282(6)
_cell_length_b                   12.478(2)
_cell_length_c                   14.476(3)
_cell_angle_alpha                90
_cell_angle_beta                 107.43(3)
_cell_angle_gamma                90
_cell_volume                     5046.39
loop_
_atom_site_label
_atom_site_type_symbol
_atom_site_fract_x
_atom_site_fract_y
_atom_site_fract_z
Cu1 Cu 0.300723(13) 0.32025(3) 0.06257(3)
P1 P 0.36473(3) 0.25297(6) 0.16305(6)
N1 N 0.22888(9) 0.2396(2) 0.1572(2)
O1 O 0.23326(8) 0.2566(2) 0.07334(15)
O2 O 0.19715(10) 0.1796(2) 0.1656(2)
O3 O 0.25656(9) 0.2871(2) 0.2267(2)
N2 N 0.28133(9) 0.4747(2) 0.0360(2)
C1 C 0.24004(13) -0.0262(3) -0.0923(3)
H1 H 0.24675 0.0124 -0.1432
C2 C 0.25293(14) -0.1330(3) -0.0802(3)
H2 H 0.26838 -0.1656 -0.1221
C3 C 0.24357(11) -0.1927(2) -0.0080(2)
C4 C 0.27914(14) -0.3613(3) -0.0500(3)
H3 H 0.28677 -0.3245 -0.1009
C5 C 0.29062(14) -0.4683(3) -0.0338(2)
H4 H 0.30600 -0.5030 -0.0748
C6 C 0.40950(11) 0.2024(2) 0.1084(2)
C7 C 0.41132(13) 0.2485(3) 0.0227(3)
H5 H 0.38897 0.3026 -0.0073
C8 C 0.4455(2) 0.2160(3) -0.0194(3)
H6 H 0.4469 0.2485 -0.0779
C9 C 0.47777(14) 0.1367(3) 0.0229(3)
H7 H 0.50166 0.1155 -0.0056
C10 C 0.47520(13) 0.0888(3) 0.1062(3)
H8 H 0.49695 0.0331 0.1347
C11 C 0.44113(12) 0.1210(3) 0.1491(2)
H9 H 0.43946 0.0870 0.2067
C12 C 0.35735(11) 0.1411(3) 0.2382(2)
C13 C 0.38138(13) 0.1332(3) 0.3369(3)
H10 H 0.40165 0.1899 0.3689
C14 C 0.37587(14) 0.0435(3) 0.3884(3)
H11 H 0.39259 0.0385 0.4555
C15 C 0.34646(14) -0.0384(3) 0.3433(3)
H12 H 0.34264 -0.0997 0.3792
C16 C 0.32249(14) -0.0318(3) 0.2461(3)
H13 H 0.30244 -0.0891 0.2146
C17 C 0.32753(13) 0.0582(3) 0.1940(3)
H14 H 0.31027 0.0630 0.1271
C18 C 0.39801(11) 0.3506(2) 0.2512(2)
C19 C 0.37226(12) 0.4292(3) 0.2825(3)
H15 H 0.33836 0.4312 0.2571
C20 C 0.39570(13) 0.5042(3) 0.3504(3)
H16 H 0.37774 0.5569 0.3718
C21 C 0.44478(13) 0.5034(3) 0.3870(3)
H17 H 0.46078 0.5551 0.4337
C22 C 0.47051(13) 0.4269(3) 0.3554(3)
H18 H 0.50447 0.4268 0.3794
C23 C 0.44735(12) 0.3503(3) 0.2892(3)
H19 H 0.46550 0.2968 0.2694
Cu1F Cu 0.199277(13) 0.17975(3) -0.06257(3)
P1F P 0.13527(3) 0.24703(6) -0.16305(6)
C6F C 0.09050(11) 0.2976(2) -0.1084(2)
C7F C 0.08868(13) 0.2515(3) -0.0227(3)
H5F H 0.11103 0.1974 0.0073
C8F C 0.0545(2) 0.2840(3) 0.0194(3)
H6F H 0.0531 0.2515 0.0779
C9F C 0.02223(14) 0.3633(3) -0.0229(3)
H7F H -0.00166 0.3845 0.0056
C10F C 0.02480(13) 0.4112(3) -0.1062(3)
H8F H 0.00305 0.4669 -0.1347
C11F C 0.05887(12) 0.3790(3) -0.1491(2)
H9F H 0.06054 0.4130 -0.2067
C12F C 0.14265(11) 0.3589(3) -0.2382(2)
C13F C 0.11862(13) 0.3668(3) -0.3369(3)
H10F H 0.09835 0.3101 -0.3689
C14F C 0.12413(14) 0.4565(3) -0.3884(3)
H11F H 0.10741 0.4615 -0.4555
C15F C 0.15354(14) 0.5384(3) -0.3433(3)
H12F H 0.15736 0.5997 -0.3792
C16F C 0.17751(14) 0.5318(3) -0.2461(3)
H13F H 0.19756 0.5891 -0.2146
C17F C 0.17247(13) 0.4418(3) -0.1940(3)
H14F H 0.18973 0.4370 -0.1271
C18F C 0.10199(11) 0.1494(2) -0.2512(2)
C19F C 0.12774(12) 0.0708(3) -0.2825(3)
H15F H 0.16164 0.0688 -0.2571
C20F C 0.10430(13) -0.0042(3) -0.3504(3)
H16F H 0.12226 -0.0569 -0.3718
C21F C 0.05522(13) -0.0034(3) -0.3870(3)
H17F H 0.03922 -0.0551 -0.4337
C22F C 0.02949(13) 0.0731(3) -0.3554(3)
H18F H -0.00447 0.0732 -0.3794
C23F C 0.05265(12) 0.1497(3) -0.2892(3)
H19F H 0.03450 0.2032 -0.2694
O1F O 0.26674(8) 0.2434(2) -0.07334(15)
N1F N 0.27112(9) 0.2604(2) -0.1572(2)
O2F O 0.30285(10) 0.3204(2) -0.1656(2)
O3F O 0.24344(9) 0.2129(2) -0.2267(2)
N2F N 0.21867(9) 0.0253(2) -0.0360(2)
C3F C 0.25643(11) -0.3073(2) 0.0080(2)
C2F C 0.24707(14) -0.3670(3) 0.0802(3)
C1F C 0.25996(13) -0.4738(3) 0.0923(3)
N2_2 N 0.28133(9) -0.5253(2) 0.0360(2)
Cu1_2 Cu 0.300723(13) -0.67975(3) 0.06257(3)
H1F H 0.25325 -0.5124 0.1432
H2F H 0.23162 -0.3344 0.1221
C4F C 0.22086(14) -0.1387(3) 0.0500(3)
H3F H 0.21323 -0.1755 0.1009
C5F C 0.20938(14) -0.0317(3) 0.0338(2)
H4F H 0.19400 0.0030 0.0748
O5 O 0.5590(7) 0.1900(11) -0.1014(16)
C28 C 0.5498(6) 0.3052(12) -0.1053(15)
H28 H 0.5220 0.3242 -0.1613
H29 H 0.5440 0.3310 -0.0451
C29 C 0.5933(6) 0.3475(11) -0.1157(16)
H30 H 0.6154 0.3679 -0.0519
H31 H 0.5867 0.4117 -0.1579
C30 C 0.6144(6) 0.2610(16) -0.1601(16)
H32 H 0.6131 0.2802 -0.2272
H33 H 0.6482 0.2487 -0.1221
C31 C 0.5874(7) 0.1710(11) -0.1596(15)
H34 H 0.5673 0.1543 -0.2262
H35 H 0.6087 0.1090 -0.1347
O4? O 0.5473(9) 0.2079(19) -0.1200(20)
C24? C 0.5673(11) 0.3019(19) -0.0677(16)
H20? H 0.5943 0.2844 -0.0097
H21? H 0.5430 0.3433 -0.0478
C25? C 0.5841(10) 0.3615(15) -0.1416(16)
H22? H 0.6080 0.4171 -0.1113
H23? H 0.5570 0.3949 -0.1916
C26? C 0.6061(9) 0.2711(19) -0.1827(16)
H24? H 0.6084 0.2891 -0.2478
H25? H 0.6384 0.2529 -0.1396
C27? C 0.5716(10) 0.1823(19) -0.1872(17)
H26? H 0.5489 0.1764 -0.2532
H27? H 0.5888 0.1133 -0.1702
loop_
_geom_bond_atom_site_label_1
_geom_bond_atom_site_label_2
_geom_bond_site_symmetry_1
_geom_bond_site_symmetry_2
Cu1 P1 1_555 1_555
P1 C6 1_555 1_555
N1 O1 1_555 1_555
O1 Cu1 1_555 1_555
O2 N1 1_555 1_555
O3 N1 1_555 1_555
N2 Cu1 1_555 1_555
C1 H1 1_555 1_555
C2 C1 1_555 1_555
H2 C2 1_555 1_555
C3 C2 1_555 1_555
C4 H3 1_555 1_555
C5 C4 1_555 1_555
H4 C5 1_555 1_555
C6 C7 1_555 1_555
C7 H5 1_555 1_555
C8 C7 1_555 1_555
H6 C8 1_555 1_555
C9 C8 1_555 1_555
H7 C9 1_555 1_555
C10 C9 1_555 1_555
H8 C10 1_555 1_555
C11 C6 1_555 1_555
H9 C11 1_555 1_555
C12 P1 1_555 1_555
C13 C12 1_555 1_555
H10 C13 1_555 1_555
C14 C13 1_555 1_555
H11 C14 1_555 1_555
C15 C14 1_555 1_555
H12 C15 1_555 1_555
C16 C15 1_555 1_555
H13 C16 1_555 1_555
C17 C12 1_555 1_555
H14 C17 1_555 1_555
C18 P1 1_555 1_555
C19 C18 1_555 1_555
H15 C19 1_555 1_555
C20 C19 1_555 1_555
H16 C20 1_555 1_555
C21 C20 1_555 1_555
H17 C21 1_555 1_555
C22 C21 1_555 1_555
H18 C22 1_555 1_555
C23 C18 1_555 1_555
H19 C23 1_555 1_555
O5 C28 1_555 1_555
C28 H28 1_555 1_555
H29 C28 1_555 1_555
C29 C28 1_555 1_555
H30 C29 1_555 1_555
H31 C29 1_555 1_555
C30 C29 1_555 1_555
H32 C30 1_555 1_555
H33 C30 1_555 1_555
C31 O5 1_555 1_555
H34 C31 1_555 1_555
H35 C31 1_555 1_555
Cu1F O1 1_555 1_555
P1F Cu1F 1_555 1_555
C6F P1F 1_555 1_555
C7F C6F 1_555 1_555
H5F C7F 1_555 1_555
C8F C7F 1_555 1_555
H6F C8F 1_555 1_555
C9F C8F 1_555 1_555
H7F C9F 1_555 1_555
C10F C9F 1_555 1_555
H8F C10F 1_555 1_555
C11F C6F 1_555 1_555
H9F C11F 1_555 1_555
C12F P1F 1_555 1_555
C13F C12F 1_555 1_555
H10F C13F 1_555 1_555
C14F C13F 1_555 1_555
H11F C14F 1_555 1_555
C15F C14F 1_555 1_555
H12F C15F 1_555 1_555
C16F C15F 1_555 1_555
H13F C16F 1_555 1_555
C17F C12F 1_555 1_555
H14F C17F 1_555 1_555
C18F P1F 1_555 1_555
C19F C18F 1_555 1_555
H15F C19F 1_555 1_555
C20F C19F 1_555 1_555
H16F C20F 1_555 1_555
C21F C20F 1_555 1_555
H17F C21F 1_555 1_555
C22F C21F 1_555 1_555
H18F C22F 1_555 1_555
C23F C18F 1_555 1_555
H19F C23F 1_555 1_555
O1F Cu1 1_555 1_555
N1F O1F 1_555 1_555
O2F N1F 1_555 1_555
O3F N1F 1_555 1_555
N2F C1 1_555 1_555
C3F C3 1_555 1_555
C2F C3F 1_555 1_555
C1F C2F 1_555 1_555
N2_2 C5 1_555 1_555
Cu1_2 N2_2 1_555 1_555
H1F C1F 1_555 1_555
H2F C2F 1_555 1_555
C4F C3 1_555 1_555
H3F C4F 1_555 1_555
C5F N2F 1_555 1_555
H4F C5F 1_555 1_555
C4 C3F 1_555 1_555
C10 C11 1_555 1_555
C16 C17 1_555 1_555
C22 C23 1_555 1_555
C30 C31 1_555 1_555
Cu1F O1F 1_555 1_555
Cu1F N2F 1_555 1_555
C10F C11F 1_555 1_555
C16F C17F 1_555 1_555
C22F C23F 1_555 1_555
C1F N2_2 1_555 1_555
C4F C5F 1_555 1_555

#END
