
#######################################################################
#
#                 Cambridge Crystallographic Data Centre
#                                CCDC 
#
#######################################################################
#
# If this CIF has been generated from an entry in the Cambridge 
# Structural Database, then it will include bibliographic, chemical, 
# crystal, experimental, refinement or atomic coordinate data resulting 
# from the CCDC's data processing and validation procedures.
#
#######################################################################

data_TEHVEJ
_symmetry_cell_setting           triclinic
_symmetry_space_group_name_H-M   'P -1'
_symmetry_Int_Tables_number      2
_space_group_name_Hall           '-P 1'
loop_
_symmetry_equiv_pos_site_id
_symmetry_equiv_pos_as_xyz
1 x,y,z
2 -x,-y,-z
_cell_length_a                   10.698(2)
_cell_length_b                   11.709(2)
_cell_length_c                   12.410(3)
_cell_angle_alpha                109.73(3)
_cell_angle_beta                 94.18(3)
_cell_angle_gamma                90.77(3)
_cell_volume                     1458.16
loop_
_atom_site_label
_atom_site_type_symbol
_atom_site_fract_x
_atom_site_fract_y
_atom_site_fract_z
O1 O 1.02932(16) -0.10887(14) -0.37028(14)
C1 C 1.1112(2) -0.0869(2) -0.28588(19)
C2 C 1.1185(2) 0.0397(2) -0.19929(19)
C3 C 1.0339(2) 0.1255(2) -0.2070(2)
H1 H 0.9721 0.1059 -0.2678
C4 C 1.0409(2) 0.2407(2) -0.1245(2)
H2 H 0.9841 0.2981 -0.1303
C5 C 1.2157(3) 0.0743(3) -0.1121(3)
H3 H 1.2774 0.0198 -0.1098
C6 C 0.4767(3) -0.4839(3) -0.4397(3)
H4 H 0.4351 -0.4074 -0.4213
H5 H 0.4153 -0.5458 -0.4401
Ni1 Ni 0.97617(2) -0.27358(2) -0.48843(2)
O2 O 1.10310(16) 0.71278(15) 0.38192(13)
O3 O 0.96812(16) 0.56366(14) 0.36063(13)
O4 O 1.10950(16) -0.36565(15) -0.42065(14)
N1 N 0.84457(19) -0.19951(18) -0.57037(16)
N2 N 0.84001(19) -0.30090(19) -0.39086(17)
C7 C 1.0583(2) 0.6067(2) 0.32297(18)
O5 O 1.18620(17) -0.16147(15) -0.26834(15)
O6 O 1.2866(2) 0.76752(19) 0.29601(17)
N3 N 0.70262(19) -0.07859(18) -0.60348(16)
C8 C 0.7730(3) -0.2104(2) -0.3206(2)
H6 H 0.7947 -0.1280 -0.2967
O7 O 1.4051(2) 0.6774(2) 0.15656(18)
C9 C 0.8087(2) -0.0861(2) -0.54281(18)
H7 H 0.8519 -0.0200 -0.4880
N4 N 0.6761(2) -0.3822(2) -0.34356(19)
N5 N 1.14003(19) 0.38857(18) 0.05265(16)
C10 C 0.4994(2) 0.0151(2) -0.5552(2)
H8 H 0.4556 0.0896 -0.5448
H9 H 0.4533 -0.0493 -0.6167
C11 C 0.7791(2) -0.4026(2) -0.4035(2)
H10 H 0.8033 -0.4790 -0.4479
C12 C 1.1116(2) 0.53800(19) 0.21503(18)
C13 C 1.2207(2) 0.5680(2) 0.16601(19)
C14 C 1.0641(2) 0.4260(2) 0.14237(19)
C15 C 0.7549(2) -0.2674(2) -0.6543(2)
H11 H 0.7554 -0.3511 -0.6907
C16 C 1.3094(3) 0.6746(2) 0.2052(2)
C17 C 0.6663(2) -0.1946(2) -0.6757(2)
H12 H 0.5960 -0.2177 -0.7280
C18 C 0.6307(2) 0.0303(2) -0.5899(2)
H13 H 0.6244 0.0465 -0.6617
H14 H 0.6745 0.0994 -0.5318
C19 C 1.2349(2) 0.4729(2) 0.06502(19)
C20 C 0.6705(3) -0.2590(3) -0.2913(2)
H15 H 0.6093 -0.2176 -0.2454
C21 C 0.9551(3) 0.3484(2) 0.1477(2)
H16 H 0.9501 0.2751 0.0822
H17 H 0.8794 0.3915 0.1476
H18 H 0.9655 0.3286 0.2167
C22 C 1.1312(2) 0.2699(2) -0.03441(19)
C23 C 1.3284(3) 0.4536(3) -0.0223(2)
H19 H 1.3101 0.3768 -0.0822
H20 H 1.4111 0.4540 0.0136
H21 H 1.3243 0.5175 -0.0545
C24 C 0.5791(3) -0.4738(3) -0.3489(2)
H22 H 0.5440 -0.4527 -0.2751
H23 H 0.6170 -0.5519 -0.3640
C25 C 1.2216(3) 0.1882(3) -0.0293(3)
H24 H 1.2858 0.2098 0.0295
O1_2 O 1.02932(16) -1.10887(14) -1.37028(14)
C1_2 C 1.1112(2) -1.0869(2) -1.28588(19)
C2_2 C 1.1185(2) -0.9603(2) -1.19929(19)
C3_2 C 1.0339(2) -0.8745(2) -1.2070(2)
H1_2 H 0.9721 -0.8941 -1.2678
C4_2 C 1.0409(2) -0.7593(2) -1.1245(2)
H2_2 H 0.9841 -0.7019 -1.1303
C5_2 C 1.2157(3) -0.9257(3) -1.1121(3)
H3_2 H 1.2774 -0.9802 -1.1098
C6A C 0.5233(3) -0.5161(3) -0.5603(3)
H4A H 0.5649 -0.5926 -0.5787
H5A H 0.5847 -0.4542 -0.5599
Ni1_2 Ni 0.97617(2) -1.27358(2) -1.48843(2)
Ni1_3 Ni 0.97617(2) 0.72642(2) 0.51157(2)
Ni1A Ni 0.02383(2) -0.72642(2) -0.51157(2)
Ni1A_2 Ni 0.02383(2) 0.27358(2) -0.51157(2)
O2_2 O 1.10310(16) -0.28722(15) -0.61808(13)
O2_3 O 1.10310(16) -1.28722(15) -1.61808(13)
O3_2 O 0.96812(16) -0.43634(14) -0.63937(13)
O3_3 O 0.96812(16) -1.43634(14) -1.63937(13)
O4_2 O 1.10950(16) -1.36565(15) -1.42065(14)
N1A N 0.15543(19) 0.19951(18) -0.42963(16)
N1_2 N 0.84457(19) -1.19951(18) -1.57037(16)
N2A N 0.15999(19) -0.69910(19) -0.60914(17)
N2_2 N 0.84001(19) -1.30090(19) -1.39086(17)
C7_2 C 1.0583(2) -0.3933(2) -0.67703(18)
O5_2 O 1.18620(17) -1.16147(15) -1.26834(15)
O6_2 O 1.2866(2) -0.23248(19) -0.70399(17)
N3A N 0.29738(19) 0.07859(18) -0.39652(16)
C8A C 0.2270(3) -0.7896(2) -0.6794(2)
H6A H 0.2053 -0.8720 -0.7033
O7_2 O 1.4051(2) -0.3226(2) -0.84344(18)
C9A C 0.1913(2) 0.0861(2) -0.45719(18)
H7A H 0.1481 0.0200 -0.5120
N4A N 0.3239(2) -0.6178(2) -0.65644(19)
N5_2 N 1.14003(19) -0.61143(18) -0.94735(16)
C10A C 0.5006(2) -0.0151(2) -0.4448(2)
H8A H 0.5444 -0.0896 -0.4552
H9A H 0.5467 0.0493 -0.3833
C11A C 0.2209(2) -0.5974(2) -0.5965(2)
H10A H 0.1967 -0.5210 -0.5521
C12_2 C 1.1116(2) -0.46200(19) -0.78497(18)
C13_2 C 1.2207(2) -0.4320(2) -0.83399(19)
C14_2 C 1.0641(2) -0.5740(2) -0.85763(19)
C15A C 0.2451(2) 0.2674(2) -0.3457(2)
H11A H 0.2446 0.3511 -0.3093
C16_2 C 1.3094(3) -0.3254(2) -0.7948(2)
C17A C 0.3337(2) 0.1946(2) -0.3243(2)
H12A H 0.4040 0.2177 -0.2720
C18A C 0.3693(2) -0.0303(2) -0.4101(2)
H13A H 0.3756 -0.0465 -0.3383
H14A H 0.3255 -0.0994 -0.4682
C19_2 C 1.2349(2) -0.5271(2) -0.93498(19)
C20A C 0.3295(3) -0.7410(3) -0.7087(2)
H15A H 0.3907 -0.7824 -0.7546
C21_2 C 0.9551(3) -0.6516(2) -0.8523(2)
H16_2 H 0.9501 -0.7249 -0.9178
H17_2 H 0.8794 -0.6085 -0.8524
H18_2 H 0.9655 -0.6714 -0.7833
C22_2 C 1.1312(2) -0.7301(2) -1.03441(19)
C23_2 C 1.3284(3) -0.5464(3) -1.0223(2)
H19_2 H 1.3101 -0.6232 -1.0822
H20_2 H 1.4111 -0.5460 -0.9864
H21_2 H 1.3243 -0.4825 -1.0545
C24A C 0.4209(3) -0.5262(3) -0.6511(2)
H22A H 0.4560 -0.5473 -0.7249
H23A H 0.3830 -0.4481 -0.6360
C25_2 C 1.2216(3) -0.8118(3) -1.0293(3)
H24_2 H 1.2858 -0.7902 -0.9705
loop_
_geom_bond_atom_site_label_1
_geom_bond_atom_site_label_2
_geom_bond_site_symmetry_1
_geom_bond_site_symmetry_2
O1 C1 1_555 1_555
C1 C2 1_555 1_555
C2 C3 1_555 1_555
C3 H1 1_555 1_555
C4 C3 1_555 1_555
H2 C4 1_555 1_555
C5 C2 1_555 1_555
H3 C5 1_555 1_555
C6 H4 1_555 1_555
H5 C6 1_555 1_555
Ni1 O1 1_555 1_555
O2 C7 1_555 1_555
O3 C7 1_555 1_555
O4 Ni1 1_555 1_555
N1 Ni1 1_555 1_555
N2 Ni1 1_555 1_555
C7 C12 1_555 1_555
O5 C1 1_555 1_555
O6 C16 1_555 1_555
N3 C9 1_555 1_555
C8 N2 1_555 1_555
H6 C8 1_555 1_555
O7 C16 1_555 1_555
C9 N1 1_555 1_555
H7 C9 1_555 1_555
N4 C11 1_555 1_555
N5 C14 1_555 1_555
C10 H8 1_555 1_555
H9 C10 1_555 1_555
C11 N2 1_555 1_555
H10 C11 1_555 1_555
C12 C13 1_555 1_555
C13 C16 1_555 1_555
C14 C12 1_555 1_555
C15 N1 1_555 1_555
H11 C15 1_555 1_555
C17 N3 1_555 1_555
H12 C17 1_555 1_555
C18 N3 1_555 1_555
H13 C18 1_555 1_555
H14 C18 1_555 1_555
C19 N5 1_555 1_555
C20 C8 1_555 1_555
H15 C20 1_555 1_555
C21 C14 1_555 1_555
H16 C21 1_555 1_555
H17 C21 1_555 1_555
H18 C21 1_555 1_555
C22 C4 1_555 1_555
C23 C19 1_555 1_555
H19 C23 1_555 1_555
H20 C23 1_555 1_555
H21 C23 1_555 1_555
C24 C6 1_555 1_555
H22 C24 1_555 1_555
H23 C24 1_555 1_555
C25 C5 1_555 1_555
H24 C25 1_555 1_555
O1_2 C1_2 1_555 1_555
C1_2 C2_2 1_555 1_555
C2_2 C3_2 1_555 1_555
C3_2 H1_2 1_555 1_555
C4_2 C3_2 1_555 1_555
H2_2 C4_2 1_555 1_555
C5_2 C2_2 1_555 1_555
H3_2 C5_2 1_555 1_555
C6A C6 1_555 1_555
H4A C6A 1_555 1_555
H5A C6A 1_555 1_555
Ni1_2 O1_2 1_555 1_555
Ni1_3 O2 1_555 1_555
Ni1A N2A 1_555 1_555
Ni1A_2 N1A 1_555 1_555
O2_2 Ni1 1_555 1_555
O2_3 Ni1_2 1_555 1_555
O3_2 Ni1 1_555 1_555
O3_3 Ni1_2 1_555 1_555
O4_2 Ni1_2 1_555 1_555
N1A C9A 1_555 1_555
N1_2 Ni1_2 1_555 1_555
N2A C8A 1_555 1_555
N2_2 Ni1_2 1_555 1_555
C7_2 O2_2 1_555 1_555
O5_2 C1_2 1_555 1_555
O6_2 C16_2 1_555 1_555
N3A C9A 1_555 1_555
C8A H6A 1_555 1_555
O7_2 C16_2 1_555 1_555
C9A H7A 1_555 1_555
N4A C11A 1_555 1_555
N5_2 C14_2 1_555 1_555
C10A C10 1_555 1_555
H8A C10A 1_555 1_555
H9A C10A 1_555 1_555
C11A N2A 1_555 1_555
H10A C11A 1_555 1_555
C12_2 C7_2 1_555 1_555
C13_2 C12_2 1_555 1_555
C14_2 C12_2 1_555 1_555
C15A N1A 1_555 1_555
H11A C15A 1_555 1_555
C16_2 C13_2 1_555 1_555
C17A N3A 1_555 1_555
H12A C17A 1_555 1_555
C18A N3A 1_555 1_555
H13A C18A 1_555 1_555
H14A C18A 1_555 1_555
C19_2 N5_2 1_555 1_555
C20A C8A 1_555 1_555
H15A C20A 1_555 1_555
C21_2 C14_2 1_555 1_555
H16_2 C21_2 1_555 1_555
H17_2 C21_2 1_555 1_555
H18_2 C21_2 1_555 1_555
C22_2 C4_2 1_555 1_555
C23_2 C19_2 1_555 1_555
H19_2 C23_2 1_555 1_555
H20_2 C23_2 1_555 1_555
H21_2 C23_2 1_555 1_555
C24A C6A 1_555 1_555
H22A C24A 1_555 1_555
H23A C24A 1_555 1_555
C25_2 C5_2 1_555 1_555
H24_2 C25_2 1_555 1_555
O3 Ni1_3 1_555 1_555
N4 C20 1_555 1_555
N4 C24 1_555 1_555
N5 C22 1_555 1_555
C10 C18 1_555 1_555
C13 C19 1_555 1_555
C15 C17 1_555 1_555
C22 C25 1_555 1_555
O3_2 C7_2 1_555 1_555
N4A C20A 1_555 1_555
N4A C24A 1_555 1_555
N5_2 C22_2 1_555 1_555
C10A C18A 1_555 1_555
C13_2 C19_2 1_555 1_555
C15A C17A 1_555 1_555
C22_2 C25_2 1_555 1_555

#END
