
#######################################################################
#
#                 Cambridge Crystallographic Data Centre
#                                CCDC 
#
#######################################################################
#
# If this CIF has been generated from an entry in the Cambridge 
# Structural Database, then it will include bibliographic, chemical, 
# crystal, experimental, refinement or atomic coordinate data resulting 
# from the CCDC's data processing and validation procedures.
#
#######################################################################

data_TEHYUC
_symmetry_cell_setting           monoclinic
_symmetry_space_group_name_H-M   'P 21/n'
_symmetry_Int_Tables_number      14
_space_group_name_Hall           '-P 2yn'
loop_
_symmetry_equiv_pos_site_id
_symmetry_equiv_pos_as_xyz
1 x,y,z
2 1/2-x,1/2+y,1/2-z
3 -x,-y,-z
4 1/2+x,1/2-y,1/2+z
_cell_length_a                   13.7132(12)
_cell_length_b                   10.3099(9)
_cell_length_c                   16.1767(15)
_cell_angle_alpha                90
_cell_angle_beta                 99.616(1)
_cell_angle_gamma                90
_cell_volume                     2254.95
loop_
_atom_site_label
_atom_site_type_symbol
_atom_site_fract_x
_atom_site_fract_y
_atom_site_fract_z
Cd1 Cd 0.41583(2) -0.54985(3) 0.257380(19)
F1 F 0.27641(18) -0.5141(2) -0.02826(14)
N1 N 0.2624(2) -0.3987(3) 0.45784(19)
N2 N 0.3515(2) -0.4390(3) 0.35923(19)
N3 N 0.0559(2) -0.6777(3) 0.59928(19)
N4 N -0.0229(2) -0.8343(3) 0.6535(2)
N5 N 0.1279(2) -0.2366(3) 0.69664(19)
N6 N 0.0475(2) -0.0882(3) 0.7562(2)
O1 O -0.0042(2) -0.1924(3) 0.13063(19)
O2 O 0.1475(2) -0.2392(3) 0.19001(17)
O3 O 0.2769(2) -0.4874(3) 0.16837(18)
O4 O 0.3318(2) -0.3016(3) 0.11922(19)
C1 C 0.0765(4) -0.2486(4) 0.1312(3)
C2 C 0.2716(3) -0.3919(5) 0.1201(3)
C3 C 0.0917(3) -0.3243(3) 0.0538(2)
C4 C 0.1809(3) -0.3881(3) 0.0508(2)
C5 C 0.1889(3) -0.4496(4) -0.0236(3)
C6 C 0.1173(4) -0.4506(5) -0.0931(3)
H3 H 0.1269 -0.4928 -0.1419
C7 C 0.0296(4) -0.3866(4) -0.0883(3)
H4 H -0.0213 -0.3862 -0.1342
C8 C 0.0180(3) -0.3237(4) -0.0160(3)
H5 H -0.0407 -0.2797 -0.0137
C9 C 0.2078(3) -0.4200(3) 0.5241(2)
C10 C 0.1601(3) -0.5369(3) 0.5286(2)
H6 H 0.1662 -0.6027 0.4904
C11 C 0.1023(2) -0.5555(4) 0.5912(2)
C12 C 0.0924(2) -0.4563(3) 0.6466(2)
H7 H 0.0531 -0.4672 0.6878
C13 C 0.1416(3) -0.3409(3) 0.6400(2)
C14 C 0.2006(3) -0.3213(3) 0.5801(2)
H8 H 0.2345 -0.2438 0.5776
C15 C 0.3177(3) -0.4857(3) 0.4243(2)
H9 H 0.3306 -0.5692 0.4450
C16 C 0.3144(3) -0.3163(4) 0.3495(3)
H10 H 0.3247 -0.2595 0.3070
C17 C 0.2608(3) -0.2886(3) 0.4099(2)
H11 H 0.2292 -0.2108 0.4175
C18 C 0.0021(3) -0.7125(4) 0.6582(3)
H12 H -0.0153 -0.6555 0.6979
C19 C 0.0158(4) -0.8815(4) 0.5886(3)
H13 H 0.0097 -0.9670 0.5701
C20 C 0.0648(4) -0.7879(4) 0.5538(3)
H14 H 0.0978 -0.7965 0.5084
C21 C 0.0402(3) -0.1920(4) 0.7089(2)
H15 H -0.0197 -0.2305 0.6863
C22 C 0.1462(3) -0.0663(4) 0.7759(3)
H16 H 0.1748 0.0007 0.8101
C23 C 0.1973(3) -0.1557(4) 0.7387(3)
H17 H 0.2655 -0.1606 0.7414
Cd1A Cd 0.08417(2) -0.04985(3) 0.242620(19)
Cd1C Cd -0.08417(2) -0.95015(3) 0.757380(19)
Cd1C_2 Cd -0.08417(2) 0.04985(3) 0.757380(19)
N4C N 0.4771(2) -0.6657(3) 0.1535(2)
N6C N 0.5475(2) -0.4118(3) 0.2562(2)
O1A O 0.5042(2) -0.6924(3) 0.36937(19)
O2A O 0.3525(2) -0.7392(3) 0.30999(17)
O5 O 0.12403(19) -0.5470(3) 0.28267(17)
H1 H 0.1673 -0.5328 0.2518
H2 H 0.1383 -0.6177 0.3090
loop_
_geom_bond_atom_site_label_1
_geom_bond_atom_site_label_2
_geom_bond_site_symmetry_1
_geom_bond_site_symmetry_2
Cd1 N2 1_555 1_555
F1 C5 1_555 1_555
N1 C9 1_555 1_555
N2 C15 1_555 1_555
N3 C11 1_555 1_555
N4 C18 1_555 1_555
N5 C13 1_555 1_555
N6 C21 1_555 1_555
O1 C1 1_555 1_555
O2 C1 1_555 1_555
O3 Cd1 1_555 1_555
O4 C2 1_555 1_555
O5 H1 1_555 1_555
H2 O5 1_555 1_555
C1 C3 1_555 1_555
C2 O3 1_555 1_555
C3 C4 1_555 1_555
C4 C2 1_555 1_555
C5 C4 1_555 1_555
C6 C5 1_555 1_555
H3 C6 1_555 1_555
C7 C6 1_555 1_555
H4 C7 1_555 1_555
C8 C3 1_555 1_555
H5 C8 1_555 1_555
C9 C10 1_555 1_555
C10 H6 1_555 1_555
C11 C10 1_555 1_555
C12 C11 1_555 1_555
H7 C12 1_555 1_555
C13 C12 1_555 1_555
C14 C9 1_555 1_555
H8 C14 1_555 1_555
C15 N1 1_555 1_555
H9 C15 1_555 1_555
C16 N2 1_555 1_555
H10 C16 1_555 1_555
C17 N1 1_555 1_555
H11 C17 1_555 1_555
C18 N3 1_555 1_555
H12 C18 1_555 1_555
C19 N4 1_555 1_555
H13 C19 1_555 1_555
C20 N3 1_555 1_555
H14 C20 1_555 1_555
C21 N5 1_555 1_555
H15 C21 1_555 1_555
C22 N6 1_555 1_555
H16 C22 1_555 1_555
C23 N5 1_555 1_555
H17 C23 1_555 1_555
Cd1A O1 1_555 1_555
Cd1C N4 1_555 1_555
Cd1C_2 N6 1_555 1_555
N4C Cd1 1_555 1_555
N6C Cd1 1_555 1_555
O1A Cd1 1_555 1_555
O2A Cd1 1_555 1_555
O2 Cd1A 1_555 1_555
C7 C8 1_555 1_555
C13 C14 1_555 1_555
C16 C17 1_555 1_555
C19 C20 1_555 1_555
C22 C23 1_555 1_555

#END
