
#######################################################################
#
#                 Cambridge Crystallographic Data Centre
#                                CCDC 
#
#######################################################################
#
# If this CIF has been generated from an entry in the Cambridge 
# Structural Database, then it will include bibliographic, chemical, 
# crystal, experimental, refinement or atomic coordinate data resulting 
# from the CCDC's data processing and validation procedures.
#
#######################################################################

data_TEHZUD
_symmetry_cell_setting           triclinic
_symmetry_space_group_name_H-M   'P -1'
_symmetry_Int_Tables_number      2
_space_group_name_Hall           '-P 1'
loop_
_symmetry_equiv_pos_site_id
_symmetry_equiv_pos_as_xyz
1 x,y,z
2 -x,-y,-z
_cell_length_a                   8.9757(11)
_cell_length_b                   10.2494(12)
_cell_length_c                   15.3930(18)
_cell_angle_alpha                79.007(1)
_cell_angle_beta                 86.792(1)
_cell_angle_gamma                76.435(2)
_cell_volume                     1351.23
loop_
_atom_site_label
_atom_site_type_symbol
_atom_site_fract_x
_atom_site_fract_y
_atom_site_fract_z
Zn1 Zn 0.5000 1.0000 0.5000
Zn2 Zn 0.0000 0.5000 0.5000
C1 C 0.7123(5) 1.0251(5) -0.0858(3)
C2 C 0.7762(5) 1.1209(4) -0.0563(3)
C3 C 0.8152(5) 1.1027(5) 0.0323(3)
C4 C 0.7948(5) 0.9861(5) 0.0912(3)
C5 C 0.7303(5) 0.8898(5) 0.0623(3)
C6 C 0.6899(5) 0.9092(4) -0.0262(3)
C7 C 0.6738(6) 1.0450(5) -0.1823(3)
H1 H 0.6645 1.1391 -0.2091
H2 H 0.5786 1.0198 -0.1874
H3 H 0.7538 0.9888 -0.2117
C8 C 0.8819(6) 1.2077(5) 0.0650(3)
H4 H 0.9918 1.1814 0.0627
H5 H 0.8485 1.2127 0.1248
H6 H 0.8475 1.2955 0.0280
C9 C 0.7113(7) 0.7626(5) 0.1266(3)
H7 H 0.6341 0.7260 0.1054
H8 H 0.6811 0.7855 0.1836
H9 H 0.8068 0.6957 0.1315
C10 C 0.6245(5) 0.8051(5) -0.0604(3)
H10 H 0.5726 0.7568 -0.0122
H11 H 0.5493 0.8522 -0.1054
C11 C 0.8092(5) 1.2407(5) -0.1216(3)
H12 H 0.8870 1.2748 -0.0975
H13 H 0.8501 1.2101 -0.1758
C12 C 0.8490(5) 0.9598(5) 0.1853(3)
H14 H 0.8872 0.8622 0.2042
H15 H 0.9338 1.0030 0.1867
C13 C 0.9313(6) 0.5342(5) -0.1129(4)
H16 H 1.0084 0.4548 -0.1022
C14 C 0.7740(8) 0.7182(6) -0.1836(3)
H17 H 0.7265 0.7863 -0.2289
C15 C 0.4986(6) 1.5133(5) -0.2143(3)
H18 H 0.4374 1.5721 -0.2589
C16 C 0.5924(5) 1.4161(4) -0.0809(3)
H19 H 0.6064 1.3971 -0.0200
C17 C 0.5741(6) 1.1508(5) 0.3087(3)
H20 H 0.5080 1.2311 0.3190
C18 C 0.6980(5) 0.9474(5) 0.3283(3)
H21 H 0.7393 0.8565 0.3523
C19 C 0.2605(5) 0.8965(4) 0.4326(3)
C20 C 0.1215(5) 0.8877(4) 0.4025(3)
C21 C 0.0369(5) 1.1201(5) 0.3833(3)
H22 H -0.0382 1.1992 0.3661
C22 C 0.1750(5) 1.1302(4) 0.4150(3)
H23 H 0.1909 1.2154 0.4187
C23 C 0.3949(5) 0.7753(4) 0.4547(3)
C24 C 0.0756(5) 0.7557(4) 0.3982(3)
N1 N 0.7308(4) 1.0094(4) 0.2480(2)
N2 N 0.6518(5) 1.1418(4) 0.2345(3)
N3 N 0.5983(4) 1.0330(4) 0.3692(2)
N4 N 0.7429(5) 0.7067(4) -0.0977(3)
N5 N 0.8413(7) 0.5953(6) -0.0556(4)
N6 N 0.8853(9) 0.6140(7) -0.1907(5)
N7 N 0.6743(4) 1.3517(4) -0.1424(2)
N8 N 0.6171(7) 1.4109(6) -0.2219(4)
N9 N 0.4879(6) 1.5120(5) -0.1271(4)
N10 N 0.2845(4) 1.0188(3) 0.4401(2)
N11 N 0.0091(4) 1.0002(4) 0.3769(3)
O1 O 0.5109(3) 0.7978(3) 0.4888(2)
O2 O 0.3867(4) 0.6658(3) 0.4364(3)
O3 O 0.0352(4) 0.6944(3) 0.4705(2)
O4 O 0.0706(4) 0.7267(3) 0.3241(2)
O5 O -0.0393(5) 0.4977(4) 0.3698(2)
O6 O 0.2494(4) 0.4365(3) 0.4709(3)
Zn2_2 Zn 1.0000 1.5000 0.5000
C1A C 0.2877(5) 0.9749(5) 1.0858(3)
C2A C 0.2238(5) 0.8791(4) 1.0563(3)
C3A C 0.1848(5) 0.8973(5) 0.9677(3)
C4A C 0.2052(5) 1.0139(5) 0.9088(3)
C5A C 0.2697(5) 1.1102(5) 0.9377(3)
C6A C 0.3101(5) 1.0908(4) 1.0262(3)
C7A C 0.3262(6) 0.9550(5) 1.1823(3)
H1A H 0.3355 0.8609 1.2091
H2A H 0.4214 0.9802 1.1874
H3A H 0.2462 1.0112 1.2117
C8A C 0.1181(6) 0.7923(5) 0.9350(3)
H4A H 0.0082 0.8186 0.9373
H5A H 0.1515 0.7873 0.8752
H6A H 0.1525 0.7045 0.9720
C9A C 0.2887(7) 1.2374(5) 0.8734(3)
H7A H 0.3659 1.2740 0.8946
H8A H 0.3189 1.2145 0.8164
H9A H 0.1932 1.3043 0.8685
C10A C 0.3755(5) 1.1949(5) 1.0604(3)
H10A H 0.4274 1.2432 1.0122
H11A H 0.4507 1.1478 1.1054
C11A C 0.1908(5) 0.7593(5) 1.1216(3)
H12A H 0.1130 0.7252 1.0975
H13A H 0.1499 0.7899 1.1758
C12A C 0.1510(5) 1.0402(5) 0.8147(3)
H14A H 0.1128 1.1378 0.7958
H15A H 0.0662 0.9970 0.8133
C13A C 0.0687(6) 1.4658(5) 1.1129(4)
H16A H -0.0084 1.5452 1.1022
C14A C 0.2260(8) 1.2818(6) 1.1836(3)
H17A H 0.2735 1.2137 1.2289
C15A C 0.5014(6) 0.4867(5) 1.2143(3)
H18A H 0.5626 0.4279 1.2589
C16A C 0.4076(5) 0.5839(4) 1.0809(3)
H19A H 0.3936 0.6029 1.0200
C17A C 0.4259(6) 0.8492(5) 0.6913(3)
H20A H 0.4920 0.7689 0.6810
C18A C 0.3020(5) 1.0526(5) 0.6717(3)
H21A H 0.2607 1.1435 0.6477
C19A C 0.7395(5) 1.1035(4) 0.5674(3)
C20A C 0.8785(5) 1.1123(4) 0.5975(3)
C21A C 0.9631(5) 0.8799(5) 0.6167(3)
H22A H 1.0382 0.8008 0.6339
C22A C 0.8250(5) 0.8698(4) 0.5850(3)
H23A H 0.8091 0.7846 0.5813
C23A C 0.6051(5) 1.2247(4) 0.5453(3)
C24A C 0.9244(5) 1.2443(4) 0.6018(3)
N1A N 0.2692(4) 0.9906(4) 0.7520(2)
N2A N 0.3482(5) 0.8582(4) 0.7655(3)
N3A N 0.4017(4) 0.9670(4) 0.6308(2)
N4A N 0.2571(5) 1.2933(4) 1.0977(3)
N5A N 0.1587(7) 1.4047(6) 1.0556(4)
N6A N 0.1147(9) 1.3860(7) 1.1907(5)
N7A N 0.3257(4) 0.6483(4) 1.1424(2)
N8A N 0.3829(7) 0.5891(6) 1.2219(4)
N9A N 0.5121(6) 0.4880(5) 1.1271(4)
N10A N 0.7155(4) 0.9812(3) 0.5599(2)
N11A N 0.9909(4) 0.9998(4) 0.6231(3)
O1A O 0.4891(3) 1.2022(3) 0.5112(2)
O2A O 0.6133(4) 1.3342(3) 0.5636(3)
O3A O 0.9648(4) 1.3056(3) 0.5295(2)
O3A_2 O -0.0352(4) 0.3056(3) 0.5295(2)
O4A O 0.9294(4) 1.2733(3) 0.6759(2)
O5A O 0.0393(5) 0.5023(4) 0.6302(2)
O6A O -0.2494(4) 0.5635(3) 0.5291(3)
O7 O 0.6923(10) 0.4480(13) 0.3563(5)
loop_
_geom_bond_atom_site_label_1
_geom_bond_atom_site_label_2
_geom_bond_site_symmetry_1
_geom_bond_site_symmetry_2
Zn1 N3 1_555 1_555
Zn2 O3 1_555 1_555
C1 C2 1_555 1_555
C2 C3 1_555 1_555
C3 C4 1_555 1_555
C4 C5 1_555 1_555
C5 C6 1_555 1_555
C6 C1 1_555 1_555
C7 C1 1_555 1_555
H1 C7 1_555 1_555
H2 C7 1_555 1_555
H3 C7 1_555 1_555
C8 C3 1_555 1_555
H4 C8 1_555 1_555
H5 C8 1_555 1_555
H6 C8 1_555 1_555
C9 C5 1_555 1_555
H7 C9 1_555 1_555
H8 C9 1_555 1_555
H9 C9 1_555 1_555
C10 C6 1_555 1_555
H10 C10 1_555 1_555
H11 C10 1_555 1_555
C11 C2 1_555 1_555
H12 C11 1_555 1_555
H13 C11 1_555 1_555
C12 C4 1_555 1_555
H14 C12 1_555 1_555
H15 C12 1_555 1_555
C13 H16 1_555 1_555
C14 H17 1_555 1_555
C15 H18 1_555 1_555
C16 H19 1_555 1_555
C17 H20 1_555 1_555
C18 H21 1_555 1_555
C19 C20 1_555 1_555
C20 C24 1_555 1_555
C21 H22 1_555 1_555
C22 C21 1_555 1_555
H23 C22 1_555 1_555
C23 C19 1_555 1_555
C24 O3 1_555 1_555
N1 C12 1_555 1_555
N2 C17 1_555 1_555
N3 C17 1_555 1_555
N4 C10 1_555 1_555
N5 C13 1_555 1_555
N6 C13 1_555 1_555
N7 C11 1_555 1_555
N8 C15 1_555 1_555
N9 C15 1_555 1_555
N10 Zn1 1_555 1_555
N11 C20 1_555 1_555
O1 Zn1 1_555 1_555
O2 C23 1_555 1_555
O4 C24 1_555 1_555
O5 Zn2 1_555 1_555
O6 Zn2 1_555 1_555
Zn2_2 O3A 1_555 1_555
C1A C2A 1_555 1_555
C2A C3A 1_555 1_555
C3A C4A 1_555 1_555
C4A C5A 1_555 1_555
C5A C6A 1_555 1_555
C6A C1A 1_555 1_555
C7A C1A 1_555 1_555
H1A C7A 1_555 1_555
H2A C7A 1_555 1_555
H3A C7A 1_555 1_555
C8A C3A 1_555 1_555
H4A C8A 1_555 1_555
H5A C8A 1_555 1_555
H6A C8A 1_555 1_555
C9A C5A 1_555 1_555
H7A C9A 1_555 1_555
H8A C9A 1_555 1_555
H9A C9A 1_555 1_555
C10A C6A 1_555 1_555
H10A C10A 1_555 1_555
H11A C10A 1_555 1_555
C11A C2A 1_555 1_555
H12A C11A 1_555 1_555
H13A C11A 1_555 1_555
C12A C4A 1_555 1_555
H14A C12A 1_555 1_555
H15A C12A 1_555 1_555
C13A H16A 1_555 1_555
C14A H17A 1_555 1_555
C15A H18A 1_555 1_555
C16A H19A 1_555 1_555
C17A H20A 1_555 1_555
C18A H21A 1_555 1_555
C19A C20A 1_555 1_555
C20A C24A 1_555 1_555
C21A H22A 1_555 1_555
C22A C21A 1_555 1_555
H23A C22A 1_555 1_555
C23A C19A 1_555 1_555
C24A O3A 1_555 1_555
N1A C12A 1_555 1_555
N2A C17A 1_555 1_555
N3A Zn1 1_555 1_555
N4A C10A 1_555 1_555
N5A C13A 1_555 1_555
N6A C13A 1_555 1_555
N7A C11A 1_555 1_555
N8A C15A 1_555 1_555
N9A C15A 1_555 1_555
N10A Zn1 1_555 1_555
N11A C20A 1_555 1_555
O1A Zn1 1_555 1_555
O2A C23A 1_555 1_555
O3A_2 Zn2 1_555 1_555
O4A C24A 1_555 1_555
O5A Zn2 1_555 1_555
O6A Zn2 1_555 1_555
C14 N4 1_555 1_555
C14 N6 1_555 1_555
C16 N7 1_555 1_555
C16 N9 1_555 1_555
C18 N1 1_555 1_555
C18 N3 1_555 1_555
C19 N10 1_555 1_555
C21 N11 1_555 1_555
C22 N10 1_555 1_555
C23 O1 1_555 1_555
N1 N2 1_555 1_555
N4 N5 1_555 1_555
N7 N8 1_555 1_555
C14A N4A 1_555 1_555
C14A N6A 1_555 1_555
C16A N7A 1_555 1_555
C16A N9A 1_555 1_555
C17A N3A 1_555 1_555
C18A N1A 1_555 1_555
C18A N3A 1_555 1_555
C19A N10A 1_555 1_555
C21A N11A 1_555 1_555
C22A N10A 1_555 1_555
C23A O1A 1_555 1_555
N1A N2A 1_555 1_555
N4A N5A 1_555 1_555
N7A N8A 1_555 1_555

#END
