
#######################################################################
#
#                 Cambridge Crystallographic Data Centre
#                                CCDC 
#
#######################################################################
#
# If this CIF has been generated from an entry in the Cambridge 
# Structural Database, then it will include bibliographic, chemical, 
# crystal, experimental, refinement or atomic coordinate data resulting 
# from the CCDC's data processing and validation procedures.
#
#######################################################################

data_TEJCAO
_symmetry_cell_setting           monoclinic
_symmetry_space_group_name_H-M   'P 21/c'
_symmetry_Int_Tables_number      14
_space_group_name_Hall           '-P 2ybc'
loop_
_symmetry_equiv_pos_site_id
_symmetry_equiv_pos_as_xyz
1 x,y,z
2 -x,1/2+y,1/2-z
3 -x,-y,-z
4 x,1/2-y,1/2+z
_cell_length_a                   9.997(3)
_cell_length_b                   8.371(3)
_cell_length_c                   16.321(4)
_cell_angle_alpha                90
_cell_angle_beta                 111.731(14)
_cell_angle_gamma                90
_cell_volume                     1268.76
loop_
_atom_site_label
_atom_site_type_symbol
_atom_site_fract_x
_atom_site_fract_y
_atom_site_fract_z
Zn1 Zn 0.32464(4) -0.19404(5) -0.21976(3)
B1 B 0.2071(4) -0.5056(5) -0.2931(3)
B2 B 0.6039(4) -0.2171(5) -0.2551(3)
B3 B 0.2173(4) -0.4936(5) -0.4414(3)
B4 B 0.5631(4) 0.0427(5) -0.1909(3)
O1 O 0.2596(3) -0.6666(3) -0.25902(18)
O2 O 0.1350(3) -0.5099(3) -0.39134(17)
O3 O 0.6359(3) 0.0190(3) -0.09503(17)
O4 O 0.5105(3) -0.1205(3) -0.23162(17)
O5 O 0.3350(3) -0.3992(3) -0.27193(17)
O6 O 0.5641(3) -0.3628(3) -0.29176(19)
O7 O 0.1152(3) -0.4475(4) -0.25056(19)
H1 H 0.0499 -0.3947 -0.2856
O8 O 0.1568(3) -0.4861(4) -0.53128(19)
H2 H 0.0688 -0.4884 -0.5471
N1 N 0.3752(5) -0.1791(5) -0.0891(2)
H3 H 0.4612 -0.1302 -0.0659
H4 H 0.3102 -0.1145 -0.0799
N2 N 0.1602(3) -0.0579(4) -0.2961(2)
H5 H 0.0790 -0.0866 -0.2882
H6 H 0.1783 0.0452 -0.2802
C1 C 0.1396(5) -0.0764(6) -0.3902(3)
H7 H 0.1234 -0.1884 -0.4059
H8 H 0.2273 -0.0443 -0.3980
C2 C 0.0155(5) 0.0197(6) -0.4523(3)
H9 H -0.0700 -0.0012 -0.4392
H10 H 0.0377 0.1325 -0.4426
C3 C 0.3830(10) -0.3275(10) -0.0382(5)
H11 H 0.3883 -0.2990 0.0205
H12 H 0.2948 -0.3876 -0.0663
C4 C 0.5019(3) -0.4271(4) -0.0307(2)
H13 H 0.5914 -0.3683 -0.0047
H14 H 0.4943 -0.4652 -0.0884
Zn1B Zn 0.67536(4) -0.80596(5) 0.21976(3)
Zn1B_2 Zn -0.32464(4) 0.19404(5) -0.78024(3)
Zn1A Zn 0.67536(4) 0.30596(5) -0.28024(3)
Zn1A_2 Zn 0.67536(4) -0.69404(5) -0.28024(3)
B1A B 0.7929(4) -0.0056(5) -0.2069(3)
B2A B 0.3961(4) -0.7171(5) -0.2449(3)
B2A_2 B 0.3961(4) 0.2829(5) -0.2449(3)
B3A B 0.7827(4) 0.0064(5) -0.0586(3)
B4A B 0.4369(4) -0.4573(5) -0.3091(3)
O1A O 0.7404(3) -0.1666(3) -0.24098(18)
O2A O 0.8650(3) -0.0099(3) -0.10866(17)
O3A O 0.3641(3) -0.4810(3) -0.40497(17)
O4B O 0.4895(3) -0.8795(3) 0.23162(17)
O4A O 0.4895(3) -0.6205(3) -0.26838(17)
O5A O 0.6650(3) 0.1008(3) -0.22807(17)
O5B O 0.6650(3) -0.6008(3) 0.27193(17)
O6A O 0.4359(3) 0.1372(3) -0.20824(19)
O6A_2 O 0.4359(3) -0.8628(3) -0.20824(19)
O7A O 0.8848(3) 0.0525(4) -0.24944(19)
H1A H 0.9501 0.1053 -0.2144
O8A O 0.8432(3) 0.0139(4) 0.03128(19)
H2A H 0.9312 0.0116 0.0471
N1B N 0.6248(5) -0.8209(5) 0.0891(2)
H3B H 0.5388 -0.8698 0.0659
H4B H 0.6898 -0.8855 0.0799
N2B N -0.1602(3) 0.0579(4) -0.7039(2)
N2B_2 N 0.8398(3) -0.9421(4) 0.2961(2)
H5B H -0.0790 0.0866 -0.7118
H5B_2 H 0.9210 -0.9134 0.2882
H6B H -0.1783 -0.0452 -0.7198
H6B_2 H 0.8217 -1.0452 0.2802
C1B C -0.1396(5) 0.0764(6) -0.6098(3)
H7B H -0.1234 0.1884 -0.5941
H8B H -0.2273 0.0443 -0.6020
C2B C -0.0155(5) -0.0197(6) -0.5477(3)
H9B H 0.0700 0.0012 -0.5608
H10B H -0.0377 -0.1325 -0.5574
C3B C 0.6170(10) -0.6725(10) 0.0382(5)
H11B H 0.6117 -0.7010 -0.0205
H12B H 0.7052 -0.6124 0.0663
C4B C 0.4981(3) -0.5729(4) 0.0307(2)
H13B H 0.4086 -0.6317 0.0047
H14B H 0.5057 -0.5348 0.0884
O9 O -0.1206(3) -0.2604(4) -0.3510(2)
H15 H -0.1091 -0.2344 -0.2985
H16 H -0.1934 -0.2266 -0.3939
loop_
_geom_bond_atom_site_label_1
_geom_bond_atom_site_label_2
_geom_bond_site_symmetry_1
_geom_bond_site_symmetry_2
Zn1 O4 1_555 1_555
B1 O1 1_555 1_555
B2 O4 1_555 1_555
B3 O2 1_555 1_555
B4 O3 1_555 1_555
O1 B2A 1_555 1_555
O2 B1 1_555 1_555
O3 B3A 1_555 1_555
O4 B4 1_555 1_555
O5 Zn1 1_555 1_555
O6 B2 1_555 1_555
O7 B1 1_555 1_555
H1 O7 1_555 1_555
O8 B3 1_555 1_555
H2 O8 1_555 1_555
N1 Zn1 1_555 1_555
H3 N1 1_555 1_555
H4 N1 1_555 1_555
N2 Zn1 1_555 1_555
H5 N2 1_555 1_555
H6 N2 1_555 1_555
C1 N2 1_555 1_555
H7 C1 1_555 1_555
H8 C1 1_555 1_555
C2 C1 1_555 1_555
H9 C2 1_555 1_555
H10 C2 1_555 1_555
C3 N1 1_555 1_555
H11 C3 1_555 1_555
H12 C3 1_555 1_555
C4 C3 1_555 1_555
H13 C4 1_555 1_555
H14 C4 1_555 1_555
O9 H15 1_555 1_555
H16 O9 1_555 1_555
Zn1B O4B 1_555 1_555
Zn1B_2 N2B 1_555 1_555
Zn1A O5A 1_555 1_555
Zn1A_2 O4A 1_555 1_555
B1A O1A 1_555 1_555
B2A O4A 1_555 1_555
B2A_2 O6A 1_555 1_555
B3A O2A 1_555 1_555
B4A O5 1_555 1_555
O1A B2 1_555 1_555
O2A B1A 1_555 1_555
O3A B3 1_555 1_555
O4A B4A 1_555 1_555
O5A B4 1_555 1_555
O5B Zn1B 1_555 1_555
O6A B4 1_555 1_555
O6A_2 B2A 1_555 1_555
O7A B1A 1_555 1_555
H1A O7A 1_555 1_555
O8A B3A 1_555 1_555
H2A O8A 1_555 1_555
N1B Zn1B 1_555 1_555
H3B N1B 1_555 1_555
H4B N1B 1_555 1_555
N2B H5B 1_555 1_555
N2B_2 Zn1B 1_555 1_555
H5B_2 N2B_2 1_555 1_555
H6B N2B 1_555 1_555
H6B_2 N2B_2 1_555 1_555
C1B N2B 1_555 1_555
H7B C1B 1_555 1_555
H8B C1B 1_555 1_555
C2B C2 1_555 1_555
H9B C2B 1_555 1_555
H10B C2B 1_555 1_555
C3B N1B 1_555 1_555
H11B C3B 1_555 1_555
H12B C3B 1_555 1_555
C4B C4 1_555 1_555
H13B C4B 1_555 1_555
H14B C4B 1_555 1_555
B1 O5 1_555 1_555
O6 B4A 1_555 1_555
B1A O5A 1_555 1_555
B4A O3A 1_555 1_555
C1B C2B 1_555 1_555
C3B C4B 1_555 1_555

#END
