
#######################################################################
#
#                 Cambridge Crystallographic Data Centre
#                                CCDC 
#
#######################################################################
#
# If this CIF has been generated from an entry in the Cambridge 
# Structural Database, then it will include bibliographic, chemical, 
# crystal, experimental, refinement or atomic coordinate data resulting 
# from the CCDC's data processing and validation procedures.
#
#######################################################################

data_TEJKUP
_symmetry_cell_setting           monoclinic
_symmetry_space_group_name_H-M   'P 2/c'
_symmetry_Int_Tables_number      13
_space_group_name_Hall           '-P 2yc'
loop_
_symmetry_equiv_pos_site_id
_symmetry_equiv_pos_as_xyz
1 x,y,z
2 -x,y,1/2-z
3 -x,-y,-z
4 x,-y,1/2+z
_cell_length_a                   7.6963(6)
_cell_length_b                   11.1028(8)
_cell_length_c                   12.9739(8)
_cell_angle_alpha                90
_cell_angle_beta                 123.707(3)
_cell_angle_gamma                90
_cell_volume                     922.251
loop_
_atom_site_label
_atom_site_type_symbol
_atom_site_fract_x
_atom_site_fract_y
_atom_site_fract_z
C1 C 1.1298(7) 1.5236(4) 0.7328(5)
H1 H 1.2225 1.4811 0.7217
C2 C 1.1343(7) 1.6463(4) 0.7304(4)
H2 H 1.2255 1.6858 0.7160
C3 C 1.0000 1.7121(5) 0.7500
C4 C 1.0000 1.8452(5) 0.7500
C5 C 0.9710(7) 1.9099(4) 0.6499(4)
H3 H 0.9532 1.8701 0.5816
C6 C 0.9691(6) 2.0335(4) 0.6534(4)
H4 H 0.9448 2.0753 0.5844
C7 C 0.4874(7) 1.2727(4) 0.6309(4)
C8 C 0.4975(7) 1.1566(4) 0.6958(4)
C9 C 0.4919(7) 1.0477(4) 0.6410(4)
H5 H 0.4857 1.0477 0.5674
C10 C 0.4956(6) 0.9380(4) 0.6955(4)
H6 H 0.4920 0.8656 0.6583
Cu1 Cu 1.0000 1.27973(7) 0.7500
N1 N 1.0000 1.4610(4) 0.7500
N2 N 1.0000 2.0981(4) 0.7500
O2 O 1.0025(5) 1.2820(3) 0.5959(3)
H9 H 0.865(12) 1.301(6) 0.537(7)
H10 H 1.042(12) 1.335(7) 0.584(7)
O3 O 0.6250(5) 1.2903(3) 0.6104(3)
O4 O 0.3387(4) 1.3430(3) 0.6018(3)
C1A C 0.8702(7) 1.5236(4) 0.7672(5)
H1A H 0.7775 1.4811 0.7783
C2A C 0.8657(7) 1.6463(4) 0.7696(4)
H2A H 0.7745 1.6858 0.7840
C5A C 1.0290(7) 1.9099(4) 0.8501(4)
H3A H 1.0468 1.8701 0.9184
C6A C 1.0309(6) 2.0335(4) 0.8466(4)
H4A H 1.0552 2.0753 0.9156
C7A C 0.5126(7) 1.2727(4) 0.8691(4)
C8A C 0.5025(7) 1.1566(4) 0.8042(4)
C9A C 0.5081(7) 1.0477(4) 0.8590(4)
H5A H 0.5143 1.0477 0.9326
C10A C 0.5044(6) 0.9380(4) 0.8045(4)
H6A H 0.5080 0.8656 0.8417
Cu1_2 Cu 1.0000 2.27973(7) 0.7500
Cu1_3 Cu 0.0000 1.27973(7) 0.7500
N2_2 N 1.0000 1.0981(4) 0.7500
O2A O 0.9975(5) 1.2820(3) 0.9041(3)
H9A H 1.135(12) 1.301(6) 0.963(7)
H10A H 0.958(12) 1.335(7) 0.916(7)
O3A O 0.3750(5) 1.2903(3) 0.8896(3)
O3A_2 O 1.3750(5) 1.2903(3) 0.8896(3)
O4A O 0.6613(4) 1.3430(3) 0.8982(3)
O1 O 0.3402(5) 0.5881(3) 0.5597(3)
H7 H 0.319(11) 0.512(6) 0.523(7)
H8 H 0.445(11) 0.622(6) 0.565(6)
loop_
_geom_bond_atom_site_label_1
_geom_bond_atom_site_label_2
_geom_bond_site_symmetry_1
_geom_bond_site_symmetry_2
C1 H1 1_555 1_555
C2 C1 1_555 1_555
H2 C2 1_555 1_555
C3 C2 1_555 1_555
C4 C3 1_555 1_555
C5 C4 1_555 1_555
H3 C5 1_555 1_555
C6 C5 1_555 1_555
H4 C6 1_555 1_555
C7 C8 1_555 1_555
C8 C9 1_555 1_555
C9 H5 1_555 1_555
C10 C9 1_555 1_555
H6 C10 1_555 1_555
Cu1 N1 1_555 1_555
N1 C1 1_555 1_555
N2 C6 1_555 1_555
O1 H7 1_555 1_555
H8 O1 1_555 1_555
O2 Cu1 1_555 1_555
H9 O2 1_555 1_555
H10 O2 1_555 1_555
O3 C7 1_555 1_555
O4 C7 1_555 1_555
C1A N1 1_555 1_555
H1A C1A 1_555 1_555
C2A C3 1_555 1_555
H2A C2A 1_555 1_555
C5A C4 1_555 1_555
H3A C5A 1_555 1_555
C6A N2 1_555 1_555
H4A C6A 1_555 1_555
C7A C8A 1_555 1_555
C8A C8 1_555 1_555
C9A C8A 1_555 1_555
H5A C9A 1_555 1_555
C10A C10 1_555 1_555
H6A C10A 1_555 1_555
Cu1_2 N2 1_555 1_555
Cu1_3 O3A 1_555 1_555
N2_2 Cu1 1_555 1_555
O2A Cu1 1_555 1_555
H9A O2A 1_555 1_555
H10A O2A 1_555 1_555
O3A C7A 1_555 1_555
O3A_2 Cu1 1_555 1_555
O4A C7A 1_555 1_555
Cu1 O3 1_555 1_555
C1A C2A 1_555 1_555
C5A C6A 1_555 1_555
C9A C10A 1_555 1_555

#END
