
#######################################################################
#
#                 Cambridge Crystallographic Data Centre
#                                CCDC 
#
#######################################################################
#
# If this CIF has been generated from an entry in the Cambridge 
# Structural Database, then it will include bibliographic, chemical, 
# crystal, experimental, refinement or atomic coordinate data resulting 
# from the CCDC's data processing and validation procedures.
#
#######################################################################

data_TEJKIE
_symmetry_cell_setting           triclinic
_symmetry_space_group_name_H-M   'P -1'
_symmetry_Int_Tables_number      2
_space_group_name_Hall           '-P 1'
loop_
_symmetry_equiv_pos_site_id
_symmetry_equiv_pos_as_xyz
1 x,y,z
2 -x,-y,-z
_cell_length_a                   10.2400(3)
_cell_length_b                   10.5116(3)
_cell_length_c                   16.2515(6)
_cell_angle_alpha                96.076(3)
_cell_angle_beta                 94.179(3)
_cell_angle_gamma                114.184(3)
_cell_volume                     1573.72
loop_
_atom_site_label
_atom_site_type_symbol
_atom_site_fract_x
_atom_site_fract_y
_atom_site_fract_z
Gd1 Gd 0.625372(19) 0.44616(2) 0.582505(12)
C1 C 0.9104(4) 0.5282(4) 0.6544(3)
C2 C 1.0603(4) 0.5673(4) 0.6957(2)
C3 C 1.1634(4) 0.5528(4) 0.6483(2)
H1 H 1.1374 0.5177 0.5917
C4 C 1.3032(4) 0.5896(4) 0.6839(2)
C5 C 1.3434(4) 0.6489(5) 0.7686(2)
C6 C 1.2413(4) 0.6610(5) 0.8157(3)
H2 H 1.2678 0.6983 0.8720
C7 C 1.0993(4) 0.6185(5) 0.7803(3)
C8 C 1.4095(4) 0.5596(4) 0.6367(3)
C9 C 1.4987(5) 0.7090(5) 0.8088(3)
C10 C 1.6032(4) 0.8256(5) 0.7706(3)
C11 C 1.5576(5) 0.8951(5) 0.7157(3)
H3 H 1.4589 0.8660 0.7014
C12 C 1.6512(5) 1.0047(5) 0.6813(3)
H4 H 1.6159 1.0493 0.6449
C13 C 1.7977(5) 1.0491(5) 0.7007(3)
C14 C 1.8457(5) 0.9781(6) 0.7533(4)
H5 H 1.9444 1.0051 0.7652
C15 C 1.7515(5) 0.8680(6) 0.7891(3)
H6 H 1.7867 0.8229 0.8251
C16 C 1.8985(6) 1.1728(6) 0.6658(4)
H7 H 1.9434 1.2520 0.7094
H8 H 1.9713 1.1503 0.6425
H9 H 1.8458 1.1957 0.6230
C17 C 0.9953(4) 0.6320(6) 0.8393(3)
C18 C 0.8956(5) 0.5009(6) 0.8669(3)
C19 C 0.7659(5) 0.4920(6) 0.8925(3)
H10 H 0.7401 0.5670 0.8911
C20 C 0.6758(6) 0.3695(7) 0.9201(3)
H11 H 0.5873 0.3618 0.9353
C21 C 0.7134(7) 0.2600(7) 0.9256(3)
C22 C 0.8433(8) 0.2710(7) 0.9007(4)
H12 H 0.8706 0.1972 0.9034
C23 C 0.9313(6) 0.3904(7) 0.8722(4)
H13 H 1.0186 0.3966 0.8558
C24 C 0.6147(8) 0.1264(7) 0.9545(4)
H14 H 0.5504 0.1458 0.9886
H15 H 0.6710 0.0903 0.9863
H16 H 0.5596 0.0578 0.9069
C25 C 0.2729(4) 0.2415(4) 0.4945(2)
C26 C 0.1334(4) 0.1149(4) 0.4984(2)
C27 C 0.0108(4) 0.0938(4) 0.4453(2)
H17 H 0.0177 0.1562 0.4075
C28 C 0.1217(4) 0.0184(4) 0.5526(2)
C29 C 0.2421(4) 0.0232(4) 0.6145(3)
C30 C 0.2528(4) 0.0885(5) 0.7010(3)
C31 C 0.2550(5) 0.0115(6) 0.7645(3)
H18 H 0.2572 -0.0761 0.7526
C32 C 0.2537(7) 0.0645(8) 0.8454(4)
H19 H 0.2522 0.0108 0.8875
C33 C 0.2546(6) 0.1960(8) 0.8654(3)
C34 C 0.2562(5) 0.2743(6) 0.8020(4)
H20 H 0.2608 0.3645 0.8144
C35 C 0.2512(5) 0.2190(5) 0.7205(3)
H21 H 0.2467 0.2703 0.6780
C36 C 0.2506(9) 0.2529(10) 0.9540(4)
H22 H 0.1539 0.2400 0.9611
H23 H 0.2813 0.2033 0.9918
H24 H 0.3140 0.3515 0.9655
O1 O 0.8249(3) 0.5577(3) 0.69728(17)
O2 O 0.8715(3) 0.4708(3) 0.58006(18)
O3 O 1.3984(3) 0.5549(3) 0.55839(17)
O4 O 1.5035(3) 0.5342(3) 0.67632(16)
O5 O 1.5287(3) 0.6703(4) 0.8722(2)
O6 O 1.0021(4) 0.7467(4) 0.8653(2)
O7 O 0.3794(3) 0.2629(3) 0.54761(16)
O8 O 0.2715(3) 0.3171(3) 0.44032(16)
O9 O 0.3119(3) -0.0432(4) 0.5952(2)
O10 O 0.5928(3) 0.3060(3) 0.69816(18)
H25 H 0.5187 0.2980 0.7215
H26 H 0.6435 0.2771 0.7318
O11 O 0.6138(3) 0.2128(3) 0.5248(2)
H27 H 0.6830 0.2124 0.4988
H28 H 0.5467 0.1296 0.5155
Gd1A Gd 1.374628(19) 0.55384(2) 0.417495(12)
Gd1_2 Gd 1.625372(19) 0.44616(2) 0.582505(12)
Gd1A_2 Gd 0.374628(19) 0.55384(2) 0.417495(12)
Gd1A_3 Gd -0.625372(19) -0.44616(2) 0.417495(12)
Gd1_3 Gd -0.374628(19) -0.55384(2) 0.582505(12)
C1A C 1.0896(4) 0.4718(4) 0.3456(3)
C2A C 0.9397(4) 0.4327(4) 0.3043(2)
C3A C 0.8366(4) 0.4472(4) 0.3517(2)
H1A H 0.8626 0.4823 0.4083
C4A C 0.6968(4) 0.4104(4) 0.3161(2)
C5A C 0.6566(4) 0.3511(5) 0.2314(2)
C6A C 0.7587(4) 0.3390(5) 0.1843(3)
H2A H 0.7322 0.3017 0.1280
C7A C 0.9007(4) 0.3815(5) 0.2197(3)
C8A C 0.5905(4) 0.4404(4) 0.3633(3)
C9A C 0.5013(5) 0.2910(5) 0.1912(3)
C10A C 0.3968(4) 0.1744(5) 0.2294(3)
C11A C 0.4424(5) 0.1049(5) 0.2843(3)
H3A H 0.5411 0.1340 0.2986
C12A C 0.3488(5) -0.0047(5) 0.3187(3)
H4A H 0.3841 -0.0493 0.3551
C13A C 0.2023(5) -0.0491(5) 0.2993(3)
C14A C 0.1543(5) 0.0219(6) 0.2467(4)
H5A H 0.0556 -0.0051 0.2348
C15A C 0.2485(5) 0.1320(6) 0.2109(3)
H6A H 0.2133 0.1771 0.1749
C16A C 0.1015(6) -0.1728(6) 0.3342(4)
H7A H 0.0566 -0.2520 0.2906
H8A H 0.0287 -0.1503 0.3575
H9A H 0.1542 -0.1957 0.3770
C17A C 1.0047(4) 0.3680(6) 0.1607(3)
C18A C 1.1044(5) 0.4991(6) 0.1331(3)
C19A C 1.2341(5) 0.5080(6) 0.1075(3)
H10A H 1.2599 0.4330 0.1089
C20A C 1.3242(6) 0.6305(7) 0.0799(3)
H11A H 1.4127 0.6382 0.0647
C21A C 1.2866(7) 0.7400(7) 0.0744(3)
C22A C 1.1567(8) 0.7290(7) 0.0993(4)
H12A H 1.1294 0.8028 0.0966
C23A C 1.0687(6) 0.6096(7) 0.1278(4)
H13A H 0.9814 0.6034 0.1442
C24A C 1.3853(8) 0.8736(7) 0.0455(4)
H14A H 1.4496 0.8542 0.0114
H15A H 1.3290 0.9097 0.0137
H16A H 1.4404 0.9422 0.0931
C25A C -0.2729(4) -0.2415(4) 0.5055(2)
C26A C -0.1334(4) -0.1149(4) 0.5016(2)
C27A C -0.0108(4) -0.0938(4) 0.5547(2)
H17A H -0.0177 -0.1562 0.5925
C28A C -0.1217(4) -0.0184(4) 0.4474(2)
C29A C -0.2421(4) -0.0232(4) 0.3855(3)
C30A C -0.2528(4) -0.0885(5) 0.2990(3)
C31A C -0.2550(5) -0.0115(6) 0.2355(3)
H18A H -0.2572 0.0761 0.2474
C32A C -0.2537(7) -0.0645(8) 0.1546(4)
H19A H -0.2522 -0.0108 0.1125
C33A C -0.2546(6) -0.1960(8) 0.1346(3)
C34A C -0.2562(5) -0.2743(6) 0.1980(4)
H20A H -0.2608 -0.3645 0.1856
C35A C -0.2512(5) -0.2190(5) 0.2795(3)
H21A H -0.2467 -0.2703 0.3220
C36A C -0.2506(9) -0.2529(10) 0.0460(4)
H22A H -0.1539 -0.2400 0.0389
H23A H -0.2813 -0.2033 0.0082
H24A H -0.3140 -0.3515 0.0345
O1A O 1.1751(3) 0.4423(3) 0.30272(17)
O2A O 1.1285(3) 0.5292(3) 0.41994(18)
O3A O 0.6016(3) 0.4451(3) 0.44161(17)
O4A O 0.4965(3) 0.4658(3) 0.32368(16)
O4_2 O 0.5035(3) 0.5342(3) 0.67632(16)
O4A_2 O 1.4965(3) 0.4658(3) 0.32368(16)
O5A O 0.4713(3) 0.3297(4) 0.1278(2)
O6A O 0.9979(4) 0.2533(4) 0.1347(2)
O7A O -0.3794(3) -0.2629(3) 0.45239(16)
O7A_2 O 1.6206(3) 0.7371(3) 0.45239(16)
O8A O -0.2715(3) -0.3171(3) 0.55968(16)
O8A_2 O 0.7285(3) 0.6829(3) 0.55968(16)
O8_2 O 1.2715(3) 0.3171(3) 0.44032(16)
O9A O -0.3119(3) 0.0432(4) 0.4048(2)
O10A O 1.4072(3) 0.6940(3) 0.30184(18)
H25A H 1.4813 0.7020 0.2785
H26A H 1.3565 0.7229 0.2682
O11A O 1.3862(3) 0.7872(3) 0.4752(2)
H27A H 1.3170 0.7876 0.5012
H28A H 1.4533 0.8704 0.4845
loop_
_geom_bond_atom_site_label_1
_geom_bond_atom_site_label_2
_geom_bond_site_symmetry_1
_geom_bond_site_symmetry_2
Gd1 O1 1_555 1_555
C1 C2 1_555 1_555
C2 C3 1_555 1_555
C3 H1 1_555 1_555
C4 C3 1_555 1_555
C5 C4 1_555 1_555
C6 C5 1_555 1_555
H2 C6 1_555 1_555
C7 C2 1_555 1_555
C8 C4 1_555 1_555
C9 C5 1_555 1_555
C10 C9 1_555 1_555
C11 C10 1_555 1_555
H3 C11 1_555 1_555
C12 C11 1_555 1_555
H4 C12 1_555 1_555
C13 C12 1_555 1_555
C14 C13 1_555 1_555
H5 C14 1_555 1_555
C15 C10 1_555 1_555
H6 C15 1_555 1_555
C16 C13 1_555 1_555
H7 C16 1_555 1_555
H8 C16 1_555 1_555
H9 C16 1_555 1_555
C17 C7 1_555 1_555
C18 C17 1_555 1_555
C19 C18 1_555 1_555
H10 C19 1_555 1_555
C20 C19 1_555 1_555
H11 C20 1_555 1_555
C21 C20 1_555 1_555
C22 C21 1_555 1_555
H12 C22 1_555 1_555
C23 C18 1_555 1_555
H13 C23 1_555 1_555
C24 C21 1_555 1_555
H14 C24 1_555 1_555
H15 C24 1_555 1_555
H16 C24 1_555 1_555
C25 C26 1_555 1_555
C26 C27 1_555 1_555
C27 H17 1_555 1_555
C28 C26 1_555 1_555
C29 C28 1_555 1_555
C30 C29 1_555 1_555
C31 C30 1_555 1_555
H18 C31 1_555 1_555
C32 C31 1_555 1_555
H19 C32 1_555 1_555
C33 C32 1_555 1_555
C34 C33 1_555 1_555
H20 C34 1_555 1_555
C35 C30 1_555 1_555
H21 C35 1_555 1_555
C36 C33 1_555 1_555
H22 C36 1_555 1_555
H23 C36 1_555 1_555
H24 C36 1_555 1_555
O1 C1 1_555 1_555
O2 Gd1 1_555 1_555
O3 C8 1_555 1_555
O4 C8 1_555 1_555
O5 C9 1_555 1_555
O6 C17 1_555 1_555
O7 Gd1 1_555 1_555
O8 C25 1_555 1_555
O9 C29 1_555 1_555
O10 Gd1 1_555 1_555
H25 O10 1_555 1_555
H26 O10 1_555 1_555
O11 Gd1 1_555 1_555
H27 O11 1_555 1_555
H28 O11 1_555 1_555
Gd1A O3 1_555 1_555
Gd1_2 O4 1_555 1_555
Gd1A_2 O8 1_555 1_555
Gd1A_3 O7A 1_555 1_555
Gd1_3 O8A 1_555 1_555
C1A C2A 1_555 1_555
C2A C3A 1_555 1_555
C3A H1A 1_555 1_555
C4A C3A 1_555 1_555
C5A C4A 1_555 1_555
C6A C5A 1_555 1_555
H2A C6A 1_555 1_555
C7A C2A 1_555 1_555
C8A C4A 1_555 1_555
C9A C5A 1_555 1_555
C10A C9A 1_555 1_555
C11A C10A 1_555 1_555
H3A C11A 1_555 1_555
C12A C11A 1_555 1_555
H4A C12A 1_555 1_555
C13A C12A 1_555 1_555
C14A C13A 1_555 1_555
H5A C14A 1_555 1_555
C15A C10A 1_555 1_555
H6A C15A 1_555 1_555
C16A C13A 1_555 1_555
H7A C16A 1_555 1_555
H8A C16A 1_555 1_555
H9A C16A 1_555 1_555
C17A C7A 1_555 1_555
C18A C17A 1_555 1_555
C19A C18A 1_555 1_555
H10A C19A 1_555 1_555
C20A C19A 1_555 1_555
H11A C20A 1_555 1_555
C21A C20A 1_555 1_555
C22A C21A 1_555 1_555
H12A C22A 1_555 1_555
C23A C18A 1_555 1_555
H13A C23A 1_555 1_555
C24A C21A 1_555 1_555
H14A C24A 1_555 1_555
H15A C24A 1_555 1_555
H16A C24A 1_555 1_555
C25A C26A 1_555 1_555
C26A C27A 1_555 1_555
C27A C28 1_555 1_555
H17A C27A 1_555 1_555
C28A C27 1_555 1_555
C29A C28A 1_555 1_555
C30A C29A 1_555 1_555
C31A C30A 1_555 1_555
H18A C31A 1_555 1_555
C32A C31A 1_555 1_555
H19A C32A 1_555 1_555
C33A C32A 1_555 1_555
C34A C33A 1_555 1_555
H20A C34A 1_555 1_555
C35A C30A 1_555 1_555
H21A C35A 1_555 1_555
C36A C33A 1_555 1_555
H22A C36A 1_555 1_555
H23A C36A 1_555 1_555
H24A C36A 1_555 1_555
O1A Gd1A 1_555 1_555
O2A Gd1A 1_555 1_555
O3A Gd1 1_555 1_555
O4A Gd1A_2 1_555 1_555
O4_2 Gd1 1_555 1_555
O4A_2 Gd1A 1_555 1_555
O5A C9A 1_555 1_555
O6A C17A 1_555 1_555
O7A C25A 1_555 1_555
O7A_2 Gd1A 1_555 1_555
O8A C25A 1_555 1_555
O8A_2 Gd1 1_555 1_555
O8_2 Gd1A 1_555 1_555
O9A C29A 1_555 1_555
O10A Gd1A 1_555 1_555
H25A O10A 1_555 1_555
H26A O10A 1_555 1_555
O11A Gd1A 1_555 1_555
H27A O11A 1_555 1_555
H28A O11A 1_555 1_555
C1 O2 1_555 1_555
C6 C7 1_555 1_555
C14 C15 1_555 1_555
C22 C23 1_555 1_555
C25 O7 1_555 1_555
C34 C35 1_555 1_555
C1A O1A 1_555 1_555
C1A O2A 1_555 1_555
C6A C7A 1_555 1_555
C8A O3A 1_555 1_555
C8A O4A 1_555 1_555
C14A C15A 1_555 1_555
C22A C23A 1_555 1_555
C26A C28A 1_555 1_555
C34A C35A 1_555 1_555

#END
