
#######################################################################
#
#                 Cambridge Crystallographic Data Centre
#                                CCDC 
#
#######################################################################
#
# If this CIF has been generated from an entry in the Cambridge 
# Structural Database, then it will include bibliographic, chemical, 
# crystal, experimental, refinement or atomic coordinate data resulting 
# from the CCDC's data processing and validation procedures.
#
#######################################################################

data_TEJLOL
_symmetry_cell_setting           monoclinic
_symmetry_space_group_name_H-M   'P 21/n'
_symmetry_Int_Tables_number      14
_space_group_name_Hall           '-P 2yn'
loop_
_symmetry_equiv_pos_site_id
_symmetry_equiv_pos_as_xyz
1 x,y,z
2 1/2-x,1/2+y,1/2-z
3 -x,-y,-z
4 1/2+x,1/2-y,1/2+z
_cell_length_a                   9.423(17)
_cell_length_b                   19.28(3)
_cell_length_c                   18.22(3)
_cell_angle_alpha                90
_cell_angle_beta                 101.34(3)
_cell_angle_gamma                90
_cell_volume                     3245.5
loop_
_atom_site_label
_atom_site_type_symbol
_atom_site_fract_x
_atom_site_fract_y
_atom_site_fract_z
Cd1 Cd 0.91852(12) 0.00710(5) 0.07627(5)
Cd2 Cd 0.48729(12) 0.24316(5) -0.02715(6)
N1 N 0.6278(14) -0.2469(6) -0.1664(8)
H1 H 0.6382 -0.2672 -0.2070
H2 H 0.5614 -0.2604 -0.1433
O1 O 0.5986(11) 0.2666(5) 0.0905(5)
N2 N 0.8159(14) 0.0836(6) -0.0104(7)
N3 N 0.6761(13) 0.1787(6) -0.0408(7)
N4 N 0.8834(13) 0.2756(6) 0.3467(6)
N5 N 0.7986(14) -0.0754(6) -0.0005(6)
N6 N 0.9079(14) -0.0905(7) -0.1045(7)
C1 C 0.6977(17) 0.3074(8) 0.1174(8)
C2 C 0.8480(15) 0.3474(8) 0.2374(7)
H3 H 0.8617 0.3899 0.2157
C3 C 0.7699(14) 0.2963(7) 0.1971(7)
C4 C 0.803(2) 0.2321(8) 0.3066(10)
H4 H 0.7867 0.1908 0.3298
N7 N 0.8523(16) 0.1727(8) -0.1995(7)
N8 N 0.8069(17) -0.1824(7) -0.1820(7)
C5 C 0.8124(18) -0.1056(7) -0.0609(8)
N9 N 0.7064(17) 0.2626(6) -0.1724(7)
H5 H 0.6547 0.2807 -0.1434
H6 H 0.7169 0.2839 -0.2125
O2 O 0.7420(14) 0.3553(6) 0.0827(6)
C6 C 0.7563(19) 0.1670(7) -0.0935(8)
C7 C 0.6891(18) -0.1109(8) 0.0198(9)
H7 H 0.6537 -0.0989 0.0623
C8 C 0.7396(17) 0.2383(8) 0.2342(8)
H8 H 0.6771 0.2043 0.2103
C9 C 0.8382(18) 0.1072(8) -0.0741(9)
C10 C 0.7103(17) -0.1972(9) -0.1406(8)
N10 N 0.6367(14) -0.1610(6) -0.0212(6)
C11 C 0.7147(14) -0.1593(8) -0.0773(7)
N11 N 0.9288(15) 0.0814(7) -0.1165(7)
C12 C 0.9047(18) -0.1313(9) -0.1617(8)
H9 H 0.9747 -0.1248 -0.1906
C13 C 0.7715(19) 0.2003(9) -0.1549(8)
C14 C 0.7221(17) 0.1281(8) 0.0072(8)
H10 H 0.6891 0.1242 0.0519
C15 C 0.930(2) 0.1150(9) -0.1769(9)
H11 H 0.9891 0.0982 -0.2080
C16 C 0.906(2) 0.3342(8) 0.3116(7)
H12 H 0.9649 0.3680 0.3387
O3 O 0.6032(13) 0.3429(5) -0.0552(6)
H13 H 0.5754 0.3658 -0.1038
H14 H 0.6819 0.3640 -0.0192
O4 O 0.7356(17) 0.0138(6) 0.1331(8)
O5 O 0.2917(13) 0.3101(7) -0.0294(7)
C17 C 0.760(3) 0.0273(11) 0.2000(13)
O6 O 0.881(2) 0.0344(12) 0.2302(13)
C18 C 0.643(3) 0.0330(12) 0.2320(13)
N12 N 0.122(2) 0.3371(13) 0.0337(12)
C19 C 0.255(3) 0.3398(11) 0.0208(13)
H15 H 0.3230 0.3664 0.0526
C20 C 0.374(4) 0.0181(15) 0.2246(18)
H16 H 0.2838 0.0034 0.1985
C21 C 0.497(3) 0.0220(11) 0.1919(14)
H17 H 0.4836 0.0170 0.1402
N13 N 0.397(3) 0.0375(15) 0.2967(17)
C22 C 0.650(4) 0.0428(17) 0.305(2)
H18 H 0.7405 0.0498 0.3359
C23 C 0.013(3) 0.294(2) -0.0058(18)
H19 H 0.0423 0.2763 -0.0496
H20 H -0.0747 0.3207 -0.0205
H21 H -0.0046 0.2564 0.0256
C24 C 0.103(3) 0.3704(18) 0.1027(18)
H22 H 0.1894 0.3960 0.1235
H23 H 0.0864 0.3358 0.1378
H24 H 0.0224 0.4015 0.0924
C25 C 0.524(3) 0.0430(14) 0.3391(16)
H25 H 0.5341 0.0471 0.3907
Cd1B Cd 1.08148(12) -0.00710(5) -0.07627(5)
Cd2C Cd 0.98729(12) 0.25684(5) 0.47285(6)
Cd2B Cd 0.51271(12) -0.24316(5) 0.02715(6)
N4C N 0.3834(13) 0.2244(6) -0.1533(6)
N6B N 1.0921(14) 0.0905(7) 0.1045(7)
N10B N 0.3633(14) 0.1610(6) 0.0212(6)
N11B N 1.0712(15) -0.0814(7) 0.1165(7)
loop_
_geom_bond_atom_site_label_1
_geom_bond_atom_site_label_2
_geom_bond_site_symmetry_1
_geom_bond_site_symmetry_2
Cd1 N2 1_555 1_555
Cd2 O1 1_555 1_555
N1 H1 1_555 1_555
H2 N1 1_555 1_555
O1 C1 1_555 1_555
N2 C9 1_555 1_555
N3 Cd2 1_555 1_555
N4 C4 1_555 1_555
N5 Cd1 1_555 1_555
N6 C5 1_555 1_555
C1 C3 1_555 1_555
C2 H3 1_555 1_555
C3 C2 1_555 1_555
C4 H4 1_555 1_555
N7 C13 1_555 1_555
N8 C10 1_555 1_555
C5 N5 1_555 1_555
N9 H5 1_555 1_555
H6 N9 1_555 1_555
O2 C1 1_555 1_555
C6 N3 1_555 1_555
C7 N5 1_555 1_555
H7 C7 1_555 1_555
C8 C3 1_555 1_555
H8 C8 1_555 1_555
C9 C6 1_555 1_555
C10 N1 1_555 1_555
N10 C7 1_555 1_555
C11 C5 1_555 1_555
N11 C9 1_555 1_555
C12 N6 1_555 1_555
H9 C12 1_555 1_555
C13 N9 1_555 1_555
C14 N2 1_555 1_555
H10 C14 1_555 1_555
C15 N7 1_555 1_555
H11 C15 1_555 1_555
C16 N4 1_555 1_555
H12 C16 1_555 1_555
O3 Cd2 1_555 1_555
H13 O3 1_555 1_555
H14 O3 1_555 1_555
O4 Cd1 1_555 1_555
O5 Cd2 1_555 1_555
C17 O4 1_555 1_555
O6 C17 1_555 1_555
C18 C17 1_555 1_555
N12 C19 1_555 1_555
C19 O5 1_555 1_555
H15 C19 1_555 1_555
C20 H16 1_555 1_555
C21 C18 1_555 1_555
H17 C21 1_555 1_555
N13 C20 1_555 1_555
C22 C18 1_555 1_555
H18 C22 1_555 1_555
C23 N12 1_555 1_555
H19 C23 1_555 1_555
H20 C23 1_555 1_555
H21 C23 1_555 1_555
C24 N12 1_555 1_555
H22 C24 1_555 1_555
H23 C24 1_555 1_555
H24 C24 1_555 1_555
C25 N13 1_555 1_555
H25 C25 1_555 1_555
Cd1B N6 1_555 1_555
Cd2C N4 1_555 1_555
Cd2B N10 1_555 1_555
N4C Cd2 1_555 1_555
N6B Cd1 1_555 1_555
N10B Cd2 1_555 1_555
N11B Cd1 1_555 1_555
N3 C14 1_555 1_555
C2 C16 1_555 1_555
C4 C8 1_555 1_555
N8 C12 1_555 1_555
C6 C13 1_555 1_555
C10 C11 1_555 1_555
N10 C11 1_555 1_555
N11 C15 1_555 1_555
N11 Cd1B 1_555 1_555
C20 C21 1_555 1_555
C22 C25 1_555 1_555

#END
