
#######################################################################
#
#                 Cambridge Crystallographic Data Centre
#                                CCDC 
#
#######################################################################
#
# If this CIF has been generated from an entry in the Cambridge 
# Structural Database, then it will include bibliographic, chemical, 
# crystal, experimental, refinement or atomic coordinate data resulting 
# from the CCDC's data processing and validation procedures.
#
#######################################################################

data_TEJNIH
_symmetry_cell_setting           monoclinic
_symmetry_space_group_name_H-M   'C 2/c'
_symmetry_Int_Tables_number      15
_space_group_name_Hall           '-C 2yn'
loop_
_symmetry_equiv_pos_site_id
_symmetry_equiv_pos_as_xyz
1 x,y,z
2 -x,y,1/2-z
3 1/2+x,1/2+y,z
4 1/2-x,1/2+y,1/2-z
5 -x,-y,-z
6 x,-y,1/2+z
7 1/2-x,1/2-y,-z
8 1/2+x,1/2-y,1/2+z
_cell_length_a                   16.059(6)
_cell_length_b                   15.269(6)
_cell_length_c                   9.275(4)
_cell_angle_alpha                90
_cell_angle_beta                 115.130(4)
_cell_angle_gamma                90
_cell_volume                     2059.01
loop_
_atom_site_label
_atom_site_type_symbol
_atom_site_fract_x
_atom_site_fract_y
_atom_site_fract_z
C1 C 0.1695(4) 0.1647(3) 0.5624(6)
C2 C 0.1351(4) 0.1733(3) 0.3885(6)
C3 C 0.1261(4) 0.0987(4) 0.2982(7)
C4 C 0.0982(5) 0.1047(4) 0.1349(7)
C5 C 0.0783(4) 0.1862(4) 0.0619(7)
C6 C 0.0853(4) 0.2610(3) 0.1515(6)
C7 C 0.1127(4) 0.2543(4) 0.3145(6)
C8 C 0.0636(4) 0.3480(3) 0.0675(6)
Cu1 Cu 0.2500 0.2500 1.0000
H1 H 0.057(3) 0.186(3) -0.054(6)
H2 H 0.093(4) 0.053(4) 0.074(7)
H3 H 0.142(4) 0.051(4) 0.347(7)
H4 H 0.120(4) 0.303(4) 0.375(8)
N1 N 0.1652(3) 0.2257(3) 0.6616(5)
N2 N 0.2075(3) 0.1893(3) 0.8063(5)
N3 N 0.2358(3) 0.1098(3) 0.7952(5)
N4 N 0.2127(3) 0.0927(3) 0.6419(5)
Nd1 Nd 0.0000 0.46880(3) -0.2500
O1 O 0.0635(3) 0.3499(2) -0.0675(4)
O2 O 0.04781(15) 0.41337(13) 0.1347(3)
O3 O -0.15953(15) 0.51397(13) -0.4627(3)
H5 H -0.1899 0.4761 -0.5249
H6 H -0.1856 0.5330 -0.4104
O4 O -0.12628(15) 0.40277(13) -0.1965(3)
H7 H -0.1395 0.4280 -0.1308
H8 H -0.1374 0.3501 -0.1974
C1F C 0.3305(4) 0.3353(3) 1.4376(6)
C2F C 0.3649(4) 0.3267(3) 1.6115(6)
C3F C 0.3739(4) 0.4013(4) 1.7018(7)
C4F C 0.4018(5) 0.3953(4) 1.8651(7)
C5F C 0.4217(4) 0.3138(4) 1.9381(7)
C6F C 0.4147(4) 0.2390(3) 1.8485(6)
C7F C 0.3873(4) 0.2457(4) 1.6855(6)
C8F C 0.4364(4) 0.1520(3) 1.9325(6)
H1F H 0.443(3) 0.314(3) 2.054(6)
H2F H 0.407(4) 0.447(4) 1.926(7)
H3F H 0.358(4) 0.449(4) 1.653(7)
H4F H 0.380(4) 0.197(4) 1.625(8)
N1F N 0.3348(3) 0.2743(3) 1.3384(5)
N2F N 0.2925(3) 0.3107(3) 1.1937(5)
N3F N 0.2642(3) 0.3902(3) 1.2048(5)
N4F N 0.2873(3) 0.4073(3) 1.3581(5)
Nd1D Nd 0.0000 0.53120(3) 0.2500
Nd1F Nd 0.5000 0.03120(3) 2.2500
Nd1B Nd 0.5000 -0.03120(3) 1.7500
O1F O 0.4365(3) 0.1501(2) 2.0675(4)
O1A O -0.0635(3) 0.3499(2) -0.4325(4)
O2F O 0.45219(15) 0.08663(13) 1.8653(3)
O2D O -0.04781(15) 0.58663(13) -0.1347(3)
O2E O 0.04781(15) 0.58663(13) -0.3653(3)
O3A O 0.15953(15) 0.51397(13) -0.0373(3)
H5A H 0.1899 0.4761 0.0249
H6A H 0.1856 0.5330 -0.0896
O4A O 0.12628(15) 0.40277(13) -0.3035(3)
H7A H 0.1395 0.4280 -0.3692
H8A H 0.1374 0.3501 -0.3026
loop_
_geom_bond_atom_site_label_1
_geom_bond_atom_site_label_2
_geom_bond_site_symmetry_1
_geom_bond_site_symmetry_2
C1 C2 1_555 1_555
C2 C3 1_555 1_555
C3 C4 1_555 1_555
C4 C5 1_555 1_555
C5 C6 1_555 1_555
C6 C7 1_555 1_555
C7 C2 1_555 1_555
C8 C6 1_555 1_555
Cu1 N2 1_555 1_555
H1 C5 1_555 1_555
H2 C4 1_555 1_555
H3 C3 1_555 1_555
H4 C7 1_555 1_555
N1 C1 1_555 1_555
N2 N1 1_555 1_555
N3 N2 1_555 1_555
N4 C1 1_555 1_555
Nd1 O1 1_555 1_555
O1 C8 1_555 1_555
O2 C8 1_555 1_555
O3 Nd1 1_555 1_555
H5 O3 1_555 1_555
H6 O3 1_555 1_555
O4 Nd1 1_555 1_555
H7 O4 1_555 1_555
H8 O4 1_555 1_555
C1F C2F 1_555 1_555
C2F C3F 1_555 1_555
C3F C4F 1_555 1_555
C4F C5F 1_555 1_555
C5F C6F 1_555 1_555
C6F C7F 1_555 1_555
C7F C2F 1_555 1_555
C8F C6F 1_555 1_555
H1F C5F 1_555 1_555
H2F C4F 1_555 1_555
H3F C3F 1_555 1_555
H4F C7F 1_555 1_555
N1F C1F 1_555 1_555
N2F Cu1 1_555 1_555
N3F N2F 1_555 1_555
N4F C1F 1_555 1_555
Nd1D O2 1_555 1_555
Nd1F O1F 1_555 1_555
Nd1B O2F 1_555 1_555
O1F C8F 1_555 1_555
O1A Nd1 1_555 1_555
O2F C8F 1_555 1_555
O2D Nd1 1_555 1_555
O2E Nd1 1_555 1_555
O3A Nd1 1_555 1_555
H5A O3A 1_555 1_555
H6A O3A 1_555 1_555
O4A Nd1 1_555 1_555
H7A O4A 1_555 1_555
H8A O4A 1_555 1_555
N3 N4 1_555 1_555
N1F N2F 1_555 1_555
N3F N4F 1_555 1_555

#END
