
#######################################################################
#
#                 Cambridge Crystallographic Data Centre
#                                CCDC 
#
#######################################################################
#
# If this CIF has been generated from an entry in the Cambridge 
# Structural Database, then it will include bibliographic, chemical, 
# crystal, experimental, refinement or atomic coordinate data resulting 
# from the CCDC's data processing and validation procedures.
#
#######################################################################

data_TEJRUX
_symmetry_cell_setting           monoclinic
_symmetry_space_group_name_H-M   'P 21/n'
_symmetry_Int_Tables_number      14
_space_group_name_Hall           '-P 2yn'
loop_
_symmetry_equiv_pos_site_id
_symmetry_equiv_pos_as_xyz
1 x,y,z
2 1/2-x,1/2+y,1/2-z
3 -x,-y,-z
4 1/2+x,1/2-y,1/2+z
_cell_length_a                   9.1443(3)
_cell_length_b                   13.7839(5)
_cell_length_c                   17.6076(5)
_cell_angle_alpha                90
_cell_angle_beta                 102.315(3)
_cell_angle_gamma                90
_cell_volume                     2168.27
loop_
_atom_site_label
_atom_site_type_symbol
_atom_site_fract_x
_atom_site_fract_y
_atom_site_fract_z
Y1 Y 0.71969(4) 0.48070(3) 0.00796(2)
Ag1 Ag 0.25666(6) 0.33721(3) -0.51586(2)
S1 S 0.21769(14) 0.25760(10) -0.05457(10)
O1 O 0.4635(3) 0.4061(2) 0.01946(16)
O2 O 0.6648(3) 0.3173(2) 0.04949(19)
O3 O 0.1651(4) 0.3582(2) -0.0550(2)
O4 O 0.3355(5) 0.2462(3) -0.0968(3)
O5 O 0.0920(5) 0.1924(3) -0.0775(4)
O6 O 0.5717(3) 0.4308(2) -0.11535(16)
O7 O 0.3395(3) 0.4948(2) -0.13049(17)
O8 O 0.9401(3) 0.4450(3) 0.08745(18)
O9 O 1.1801(3) 0.4451(3) 0.08651(18)
O10 O 0.8445(4) 0.3511(2) -0.05838(19)
H1 H 0.9391 0.3569 -0.0449
H2 H 0.8191 0.3581 -0.1074
N1 N 0.3427(4) 0.3814(3) -0.3963(2)
N2 N 1.1829(5) 0.3646(3) 0.3609(2)
C1 C 0.5281(5) 0.3291(3) 0.0466(3)
C2 C 0.4426(5) 0.2547(3) 0.0813(3)
C3 C 0.2981(5) 0.2247(3) 0.0436(4)
C4 C 0.2231(7) 0.1592(4) 0.0828(6)
H3 H 0.1292 0.1360 0.0586
C5 C 0.2879(9) 0.1288(5) 0.1574(6)
H4 H 0.2348 0.0873 0.1832
C6 C 0.4281(8) 0.1585(4) 0.1941(5)
H5 H 0.4702 0.1372 0.2441
C7 C 0.5060(6) 0.2209(4) 0.1552(4)
H6 H 0.6023 0.2404 0.1791
C8 C 0.4438(5) 0.4537(3) -0.1540(2)
C9 C 0.4120(4) 0.4299(3) -0.2397(2)
C10 C 0.4334(6) 0.3367(3) -0.2642(3)
H7 H 0.4732 0.2891 -0.2283
C11 C 0.3953(6) 0.3150(3) -0.3421(3)
H8 H 0.4066 0.2515 -0.3577
C12 C 0.3269(6) 0.4724(3) -0.3724(3)
H9 H 0.2934 0.5199 -0.4096
C13 C 0.3580(6) 0.4989(3) -0.2952(3)
H10 H 0.3427 0.5624 -0.2807
C14 C 1.0737(4) 0.4353(3) 0.1185(2)
C15 C 1.1106(5) 0.4097(3) 0.2036(2)
C16 C 1.0042(5) 0.4159(3) 0.2486(2)
H11 H 0.9067 0.4346 0.2265
C17 C 1.0442(6) 0.3941(4) 0.3266(3)
H12 H 0.9726 0.4000 0.3567
C18 C 1.2845(6) 0.3588(4) 0.3165(3)
H13 H 1.3810 0.3388 0.3395
C19 C 1.2536(5) 0.3807(4) 0.2388(3)
H14 H 1.3278 0.3761 0.2102
Y1B Y 0.28031(4) 0.51930(3) -0.00796(2)
Y1B_2 Y 1.28031(4) 0.51930(3) -0.00796(2)
Ag1_2 Ag 1.25666(6) 0.33721(3) 0.48414(2)
O1B O 0.5365(3) 0.5939(2) -0.01946(16)
O3B O 0.8349(4) 0.6418(2) 0.0550(2)
O7B O 0.6605(3) 0.5052(2) 0.13049(17)
O9B O 0.8199(3) 0.5549(3) -0.08651(18)
N2_2 N 0.1829(5) 0.3646(3) -0.6391(2)
loop_
_geom_bond_atom_site_label_1
_geom_bond_atom_site_label_2
_geom_bond_site_symmetry_1
_geom_bond_site_symmetry_2
Y1 O1 1_555 1_555
Ag1 N1 1_555 1_555
S1 O3 1_555 1_555
O1 C1 1_555 1_555
O2 Y1 1_555 1_555
O3 Y1B 1_555 1_555
O4 S1 1_555 1_555
O5 S1 1_555 1_555
O6 Y1 1_555 1_555
O7 C8 1_555 1_555
O8 Y1 1_555 1_555
O9 C14 1_555 1_555
O10 Y1 1_555 1_555
H1 O10 1_555 1_555
H2 O10 1_555 1_555
N1 C11 1_555 1_555
N2 C17 1_555 1_555
C1 O2 1_555 1_555
C2 C1 1_555 1_555
C3 S1 1_555 1_555
C4 C3 1_555 1_555
H3 C4 1_555 1_555
C5 C4 1_555 1_555
H4 C5 1_555 1_555
C6 C5 1_555 1_555
H5 C6 1_555 1_555
C7 C2 1_555 1_555
H6 C7 1_555 1_555
C8 O6 1_555 1_555
C9 C8 1_555 1_555
C10 C9 1_555 1_555
H7 C10 1_555 1_555
C11 C10 1_555 1_555
H8 C11 1_555 1_555
C12 N1 1_555 1_555
H9 C12 1_555 1_555
C13 C9 1_555 1_555
H10 C13 1_555 1_555
C14 O8 1_555 1_555
C15 C14 1_555 1_555
C16 C15 1_555 1_555
H11 C16 1_555 1_555
C17 C16 1_555 1_555
H12 C17 1_555 1_555
C18 N2 1_555 1_555
H13 C18 1_555 1_555
C19 C15 1_555 1_555
H14 C19 1_555 1_555
Y1B O1 1_555 1_555
Y1B_2 O9 1_555 1_555
Ag1_2 N2 1_555 1_555
O1B Y1 1_555 1_555
O3B Y1 1_555 1_555
O7B Y1 1_555 1_555
O9B Y1 1_555 1_555
N2_2 Ag1 1_555 1_555
O7 Y1B 1_555 1_555
C2 C3 1_555 1_555
C6 C7 1_555 1_555
C12 C13 1_555 1_555
C18 C19 1_555 1_555
Y1B O1B 1_555 1_555

#END
