
#######################################################################
#
#                 Cambridge Crystallographic Data Centre
#                                CCDC 
#
#######################################################################
#
# If this CIF has been generated from an entry in the Cambridge 
# Structural Database, then it will include bibliographic, chemical, 
# crystal, experimental, refinement or atomic coordinate data resulting 
# from the CCDC's data processing and validation procedures.
#
#######################################################################

data_TEJVUB
_symmetry_cell_setting           orthorhombic
_symmetry_space_group_name_H-M   'P 21 21 21'
_symmetry_Int_Tables_number      19
_space_group_name_Hall           'P 2ac 2ab'
loop_
_symmetry_equiv_pos_site_id
_symmetry_equiv_pos_as_xyz
1 x,y,z
2 1/2-x,-y,1/2+z
3 -x,1/2+y,1/2-z
4 1/2+x,1/2-y,-z
_cell_length_a                   10.0208(8)
_cell_length_b                   17.5677(15)
_cell_length_c                   19.5435(17)
_cell_angle_alpha                90
_cell_angle_beta                 90
_cell_angle_gamma                90
_cell_volume                     3440.48
loop_
_atom_site_label
_atom_site_type_symbol
_atom_site_fract_x
_atom_site_fract_y
_atom_site_fract_z
O1 O 0.4183(2) 0.42893(14) 0.2472(2)
O2 O 0.5091(2) 0.31859(13) 0.2533(2)
C1 C 0.5205(3) 0.38855(19) 0.2494(3)
C2 C 0.3471(4) 0.19924(17) 0.12533(17)
C3 C 0.2888(3) 0.17305(18) 0.06499(17)
C4 C 0.3485(4) 0.11822(19) 0.02425(19)
H1 H 0.3069 0.0995 -0.0148
C5 C 0.4715(5) 0.0929(2) 0.0441(2)
H2 H 0.5151 0.0566 0.0177
C6 C 0.5330(4) 0.1204(2) 0.1029(2)
H3 H 0.6174 0.1023 0.1142
C7 C 0.4735(3) 0.1734(2) 0.14530(18)
H4 H 0.5150 0.1910 0.1848
C8 C 0.1622(4) 0.25837(19) 0.11294(18)
H5 H 0.0909 0.2913 0.1201
C9 C 0.0752(4) 0.20807(18) 0.00180(18)
H6 H 0.1233 0.2095 -0.0412
H7 H 0.0183 0.2527 0.0036
C10 C -0.0111(3) 0.13812(17) 0.00315(17)
C11 C -0.0314(4) 0.09563(19) 0.06188(18)
H8 H 0.0128 0.1088 0.1020
C12 C -0.1170(4) 0.03372(18) 0.06144(17)
H9 H -0.1287 0.0058 0.1014
C13 C -0.1854(3) 0.01226(17) 0.00315(15)
C14 C -0.1642(4) 0.05504(18) -0.05604(18)
H10 H -0.2087 0.0424 -0.0962
C15 C -0.0775(4) 0.11598(19) -0.05513(19)
H11 H -0.0634 0.1431 -0.0954
C16 C -0.2774(3) -0.05341(17) 0.00353(16)
C17 C -0.3445(4) -0.07460(18) 0.06229(17)
H12 H -0.3290 -0.0478 0.1026
C18 C -0.4336(4) -0.13413(18) 0.06286(18)
H13 H -0.4791 -0.1462 0.1029
C19 C -0.4558(3) -0.17620(19) 0.00407(17)
C20 C -0.3869(4) -0.1571(2) -0.05504(18)
H14 H -0.4001 -0.1851 -0.0948
C21 C -0.2993(4) -0.09708(19) -0.05501(18)
H15 H -0.2534 -0.0852 -0.0950
C22 C -0.5552(4) -0.2414(2) 0.0047(2)
H16 H -0.5075 -0.2894 0.0037
H17 H -0.6068 -0.2396 0.0467
C23 C -0.6458(4) -0.28358(18) -0.10850(17)
H18 H -0.5907 -0.3259 -0.1125
C24 C -0.7377(3) -0.18101(18) -0.06573(18)
C25 C -0.7764(4) -0.11773(19) -0.02834(19)
H19 H -0.7362 -0.1055 0.0131
C26 C -0.8766(4) -0.0740(2) -0.0554(2)
H20 H -0.9059 -0.0315 -0.0313
C27 C -0.9356(4) -0.09150(19) -0.1178(2)
H21 H -1.0033 -0.0604 -0.1344
C28 C -0.8964(4) -0.15379(19) -0.15581(18)
H22 H -0.9368 -0.1656 -0.1973
C29 C -0.7945(3) -0.19769(18) -0.12943(17)
C30 C 0.8888(3) 0.44629(18) 0.23734(18)
C31 C 0.8362(4) 0.4959(2) 0.2954(2)
H23 H 0.8584 0.5489 0.2875
H24 H 0.8747 0.4803 0.3387
C32 C 0.6834(4) 0.4849(2) 0.2963(3)
H25 H 0.6543 0.4659 0.3404
H26 H 0.6384 0.5327 0.2872
C33 C 0.6530(3) 0.42864(18) 0.2417(2)
H27 H 0.6456 0.4584 0.1994
C34 C 0.7813(3) 0.38108(18) 0.23366(14)
C35 C 0.7989(4) 0.3274(2) 0.2940(2)
H28 H 0.7216 0.2954 0.2980
H29 H 0.8095 0.3565 0.3352
H30 H 0.8766 0.2964 0.2869
C36 C 0.7807(4) 0.3355(3) 0.1677(2)
H31 H 0.8619 0.3067 0.1643
H32 H 0.7738 0.3695 0.1294
H33 H 0.7059 0.3013 0.1677
C37 C 0.9021(4) 0.4904(3) 0.1705(2)
H34 H 0.9689 0.5292 0.1756
H35 H 0.8181 0.5136 0.1594
H36 H 0.9277 0.4562 0.1345
C38 C 1.0280(3) 0.41373(15) 0.2509(4)
Cd1 Cd 0.269770(19) 0.331760(11) 0.249740(14)
N1 N 0.2629(3) 0.25274(15) 0.15556(14)
N2 N 0.1709(3) 0.21202(15) 0.05768(14)
N3 N -0.7324(3) -0.26307(14) -0.15558(14)
N4 N -0.6455(3) -0.23701(15) -0.05417(14)
O3 O 1.0814(3) 0.37559(15) 0.20392(13)
O4 O 1.0875(2) 0.42365(15) 0.30539(13)
Cd1A Cd -0.769770(19) -0.331760(11) -0.250260(14)
Cd1_2 Cd 1.269770(19) 0.331760(11) 0.249740(14)
N3A N 0.2324(3) 0.26307(14) 0.34442(14)
O3_2 O 0.0814(3) 0.37559(15) 0.20392(13)
O4_2 O 0.0875(2) 0.42365(15) 0.30539(13)
loop_
_geom_bond_atom_site_label_1
_geom_bond_atom_site_label_2
_geom_bond_site_symmetry_1
_geom_bond_site_symmetry_2
O1 C1 1_555 1_555
O2 C1 1_555 1_555
C1 C33 1_555 1_555
C2 C3 1_555 1_555
C3 C4 1_555 1_555
C4 H1 1_555 1_555
C5 C4 1_555 1_555
H2 C5 1_555 1_555
C6 C5 1_555 1_555
H3 C6 1_555 1_555
C7 C2 1_555 1_555
H4 C7 1_555 1_555
C8 H5 1_555 1_555
C9 H6 1_555 1_555
H7 C9 1_555 1_555
C10 C9 1_555 1_555
C11 C10 1_555 1_555
H8 C11 1_555 1_555
C12 C11 1_555 1_555
H9 C12 1_555 1_555
C13 C12 1_555 1_555
C14 C13 1_555 1_555
H10 C14 1_555 1_555
C15 C10 1_555 1_555
H11 C15 1_555 1_555
C16 C13 1_555 1_555
C17 C16 1_555 1_555
H12 C17 1_555 1_555
C18 C17 1_555 1_555
H13 C18 1_555 1_555
C19 C18 1_555 1_555
C20 C19 1_555 1_555
H14 C20 1_555 1_555
C21 C16 1_555 1_555
H15 C21 1_555 1_555
C22 C19 1_555 1_555
H16 C22 1_555 1_555
H17 C22 1_555 1_555
C23 H18 1_555 1_555
C24 C25 1_555 1_555
C25 H19 1_555 1_555
C26 C25 1_555 1_555
H20 C26 1_555 1_555
C27 C26 1_555 1_555
H21 C27 1_555 1_555
C28 C27 1_555 1_555
H22 C28 1_555 1_555
C29 C24 1_555 1_555
C30 C31 1_555 1_555
C31 H23 1_555 1_555
H24 C31 1_555 1_555
C32 C31 1_555 1_555
H25 C32 1_555 1_555
H26 C32 1_555 1_555
C33 C32 1_555 1_555
H27 C33 1_555 1_555
C34 C30 1_555 1_555
C35 C34 1_555 1_555
H28 C35 1_555 1_555
H29 C35 1_555 1_555
H30 C35 1_555 1_555
C36 C34 1_555 1_555
H31 C36 1_555 1_555
H32 C36 1_555 1_555
H33 C36 1_555 1_555
C37 C30 1_555 1_555
H34 C37 1_555 1_555
H35 C37 1_555 1_555
H36 C37 1_555 1_555
C38 C30 1_555 1_555
Cd1 O1 1_555 1_555
N1 C2 1_555 1_555
N2 C3 1_555 1_555
N3 C23 1_555 1_555
N4 C22 1_555 1_555
O3 C38 1_555 1_555
O4 C38 1_555 1_555
Cd1A N3 1_555 1_555
Cd1_2 O3 1_555 1_555
N3A Cd1 1_555 1_555
O3_2 Cd1 1_555 1_555
O4_2 Cd1 1_555 1_555
O2 Cd1 1_555 1_555
C6 C7 1_555 1_555
C8 N1 1_555 1_555
C8 N2 1_555 1_555
C9 N2 1_555 1_555
C14 C15 1_555 1_555
C20 C21 1_555 1_555
C23 N4 1_555 1_555
C24 N4 1_555 1_555
C28 C29 1_555 1_555
C29 N3 1_555 1_555
C33 C34 1_555 1_555
Cd1 N1 1_555 1_555
O4 Cd1_2 1_555 1_555

#END
