
#######################################################################
#
#                 Cambridge Crystallographic Data Centre
#                                CCDC 
#
#######################################################################
#
# If this CIF has been generated from an entry in the Cambridge 
# Structural Database, then it will include bibliographic, chemical, 
# crystal, experimental, refinement or atomic coordinate data resulting 
# from the CCDC's data processing and validation procedures.
#
#######################################################################

data_TEJWEM
_symmetry_cell_setting           orthorhombic
_symmetry_space_group_name_H-M   'P n m a'
_symmetry_Int_Tables_number      62
_space_group_name_Hall           '-P 2ac 2n'
loop_
_symmetry_equiv_pos_site_id
_symmetry_equiv_pos_as_xyz
1 x,y,z
2 1/2-x,-y,1/2+z
3 -x,1/2+y,-z
4 1/2+x,1/2-y,1/2-z
5 -x,-y,-z
6 1/2+x,y,1/2-z
7 x,1/2-y,z
8 1/2-x,1/2+y,1/2+z
_cell_length_a                   12.6145(13)
_cell_length_b                   12.5514(14)
_cell_length_c                   13.0747(18)
_cell_angle_alpha                90
_cell_angle_beta                 90
_cell_angle_gamma                90
_cell_volume                     2070.11
loop_
_atom_site_label
_atom_site_type_symbol
_atom_site_fract_x
_atom_site_fract_y
_atom_site_fract_z
Co1 Co 0.52847 0.75000 0.70569
Cl1 Cl 0.60721 0.75000 0.85842
Cl2 Cl 0.65104 0.75000 0.57845
N1 N 0.2937 0.5168 0.69722
N2 N 0.43245 0.62253 0.68867
C1 C 0.3374 0.6078 0.7293
H1 H 0.3051 0.6549 0.7746
C2 C 0.4492 0.5353 0.6277
H2 H 0.51 0.5227 0.5893
C3 C 0.3633 0.4697 0.6319
H3 H 0.3541 0.4057 0.5971
C4 C 0.1844 0.4809 0.7248
H4 H 0.1342 0.5088 0.6754
H5 H 0.1657 0.5088 0.7916
C5 C 0.1777 0.3604 0.7265
C6 C 0.1362 0.306 0.6415
C7 C 0.0956 0.3662 0.5481
H6 H 0.1041 0.3227 0.4883
H7 H 0.1351 0.431 0.54
H8 H 0.0219 0.3828 0.5572
C8 C 0.2174 0.3055 0.8114
C9 C 0.2627 0.3673 0.9026
H9 H 0.2468 0.4416 0.895
H10 H 0.3382 0.3576 0.9051
H11 H 0.2316 0.3412 0.9647
Co1_2 Co 0.52847 -0.25000 0.70569
N1F N 0.2937 -0.0168 0.69722
N2F N 0.43245 -0.12253 0.68867
N2F_2 N 0.43245 0.87747 0.68867
C1F C 0.3374 -0.1078 0.7293
H1F H 0.3051 -0.1549 0.7746
C2F C 0.4492 -0.0353 0.6277
H2F H 0.51 -0.0227 0.5893
C3F C 0.3633 0.0303 0.6319
H3F H 0.3541 0.0943 0.5971
C4F C 0.1844 0.0191 0.7248
H4F H 0.1342 -0.0088 0.6754
H5F H 0.1657 -0.0088 0.7916
C5F C 0.1777 0.1396 0.7265
C6F C 0.1362 0.194 0.6415
C7F C 0.0956 0.1338 0.5481
H6F H 0.1041 0.1773 0.4883
H7F H 0.1351 0.069 0.54
H8F H 0.0219 0.1172 0.5572
C8F C 0.2174 0.1945 0.8114
C9F C 0.2627 0.1327 0.9026
H9F H 0.2468 0.0584 0.895
H10F H 0.3382 0.1424 0.9051
H11F H 0.2316 0.1588 0.9647
loop_
_geom_bond_atom_site_label_1
_geom_bond_atom_site_label_2
_geom_bond_site_symmetry_1
_geom_bond_site_symmetry_2
Co1 Cl1 1_555 1_555
Cl2 Co1 1_555 1_555
N1 C1 1_555 1_555
N2 Co1 1_555 1_555
C1 N2 1_555 1_555
H1 C1 1_555 1_555
C2 N2 1_555 1_555
H2 C2 1_555 1_555
C3 N1 1_555 1_555
H3 C3 1_555 1_555
C4 N1 1_555 1_555
H4 C4 1_555 1_555
H5 C4 1_555 1_555
C5 C4 1_555 1_555
C6 C5 1_555 1_555
C7 C6 1_555 1_555
H6 C7 1_555 1_555
H7 C7 1_555 1_555
H8 C7 1_555 1_555
C8 C5 1_555 1_555
C9 C8 1_555 1_555
H9 C9 1_555 1_555
H10 C9 1_555 1_555
H11 C9 1_555 1_555
Co1_2 N2F 1_555 1_555
N1F C1F 1_555 1_555
N2F C1F 1_555 1_555
N2F_2 Co1 1_555 1_555
C1F H1F 1_555 1_555
C2F N2F 1_555 1_555
H2F C2F 1_555 1_555
C3F N1F 1_555 1_555
H3F C3F 1_555 1_555
C4F N1F 1_555 1_555
H4F C4F 1_555 1_555
H5F C4F 1_555 1_555
C5F C4F 1_555 1_555
C6F C6 1_555 1_555
C7F C6F 1_555 1_555
H6F C7F 1_555 1_555
H7F C7F 1_555 1_555
H8F C7F 1_555 1_555
C8F C8 1_555 1_555
C9F C8F 1_555 1_555
H9F C9F 1_555 1_555
H10F C9F 1_555 1_555
H11F C9F 1_555 1_555
C2 C3 1_555 1_555
C2F C3F 1_555 1_555
C5F C6F 1_555 1_555
C5F C8F 1_555 1_555

#END
