
#######################################################################
#
#                 Cambridge Crystallographic Data Centre
#                                CCDC 
#
#######################################################################
#
# If this CIF has been generated from an entry in the Cambridge 
# Structural Database, then it will include bibliographic, chemical, 
# crystal, experimental, refinement or atomic coordinate data resulting 
# from the CCDC's data processing and validation procedures.
#
#######################################################################

data_TEJYEM
_symmetry_cell_setting           orthorhombic
_symmetry_space_group_name_H-M   'C m c a'
_symmetry_Int_Tables_number      64
_space_group_name_Hall           '-C 2ac 2'
loop_
_symmetry_equiv_pos_site_id
_symmetry_equiv_pos_as_xyz
1 x,y,z
2 -x,1/2-y,1/2+z
3 x,-y,-z
4 -x,1/2+y,1/2-z
5 1/2+x,1/2+y,z
6 1/2-x,-y,1/2+z
7 1/2+x,1/2-y,-z
8 1/2-x,y,1/2-z
9 -x,-y,-z
10 x,1/2+y,1/2-z
11 -x,y,z
12 x,1/2-y,1/2+z
13 1/2-x,1/2-y,-z
14 1/2+x,y,1/2-z
15 1/2-x,1/2+y,z
16 1/2+x,-y,1/2+z
_cell_length_a                   12.165(3)
_cell_length_b                   13.296(9)
_cell_length_c                   15.175(8)
_cell_angle_alpha                90
_cell_angle_beta                 90
_cell_angle_gamma                90
_cell_volume                     2454.49
loop_
_atom_site_label
_atom_site_type_symbol
_atom_site_fract_x
_atom_site_fract_y
_atom_site_fract_z
Ag1 Ag 0.0000 0.37973(11) 0.55732(9)
O1 O 0.0000 0.4337(10) 0.3986(8)
H1 H 0.0739(83) 0.4232(76) 0.3776(79)
N1 N 0.1766(6) 0.3646(7) 0.5688(5)
C1 C 0.4435(6) 0.3647(7) 0.6511(6)
H2 H 0.4049 0.3651 0.7040
C2 C 0.3876(6) 0.3640(7) 0.5716(6)
C3 C 0.4426(7) 0.3649(7) 0.4923(7)
H3 H 0.4038 0.3655 0.4395
C4 C 0.2699(7) 0.3650(7) 0.5699(7)
Ag1B Ag 0.0000 0.62027(11) 0.44268(9)
O1B O 0.0000 0.5663(10) 0.6014(8)
C1J C 0.5565(6) 0.3647(7) 0.6511(6)
H2J H 0.5951 0.3651 0.7040
C2J C 0.6124(6) 0.3640(7) 0.5716(6)
C3J C 0.5574(7) 0.3649(7) 0.4923(7)
H3J H 0.5962 0.3655 0.4395
C4J C 0.7301(7) 0.3650(7) 0.5699(7)
N1J N 0.8234(6) 0.3646(7) 0.5688(5)
Ag1J Ag 1.0000 0.37973(11) 0.55732(9)
N1J_2 N -0.1766(6) 0.3646(7) 0.5688(5)
H1B H 0.0739(83) 0.5768(76) 0.6224(79)
H1H H -0.0739(83) 0.5768(76) 0.6224(79)
N1B N 0.1766(6) 0.6354(7) 0.4312(5)
C4B C 0.2699(7) 0.6350(7) 0.4301(7)
C2B C 0.3876(6) 0.6360(7) 0.4284(6)
C1B C 0.4435(6) 0.6353(7) 0.3489(6)
C1H C 0.5565(6) 0.6353(7) 0.3489(6)
H2B H 0.4049 0.6349 0.2960
C3B C 0.4426(7) 0.6351(7) 0.5077(7)
C3H C 0.5574(7) 0.6351(7) 0.5077(7)
C2H C 0.6124(6) 0.6360(7) 0.4284(6)
H2H H 0.5951 0.6349 0.2960
C4H C 0.7301(7) 0.6350(7) 0.4301(7)
N1H N 0.8234(6) 0.6354(7) 0.4312(5)
Ag1H Ag 1.0000 0.62027(11) 0.44268(9)
H3H H 0.5962 0.6345 0.5605
H3B H 0.4038 0.6345 0.5605
N1H_2 N -0.1766(6) 0.6354(7) 0.4312(5)
H1J H -0.0739(83) 0.4232(76) 0.3776(79)
P1 P 0.2500 0.3787(4) 0.2500
F1 F 0.2239(5) 0.3788(6) 0.3528(4)
F2 F 0.1239(5) 0.3794(8) 0.2306(5)
F3 F 0.2500 0.2642(9) 0.2500
F4 F 0.2500 0.4948(9) 0.2500
F1G F 0.2761(5) 0.3788(6) 0.1472(4)
F2G F 0.3761(5) 0.3794(8) 0.2694(5)
loop_
_geom_bond_atom_site_label_1
_geom_bond_atom_site_label_2
_geom_bond_site_symmetry_1
_geom_bond_site_symmetry_2
Ag1 O1 1_555 1_555
P1 F1 1_555 1_555
F2 P1 1_555 1_555
F3 P1 1_555 1_555
F4 P1 1_555 1_555
O1 H1 1_555 1_555
N1 Ag1 1_555 1_555
C1 H2 1_555 1_555
C2 C1 1_555 1_555
C3 C2 1_555 1_555
H3 C3 1_555 1_555
C4 N1 1_555 1_555
Ag1B O1 1_555 1_555
O1B Ag1 1_555 1_555
C1J C1 1_555 1_555
H2J C1J 1_555 1_555
C2J C1J 1_555 1_555
C3J C3 1_555 1_555
H3J C3J 1_555 1_555
C4J C2J 1_555 1_555
N1J C4J 1_555 1_555
Ag1J N1J 1_555 1_555
N1J_2 Ag1 1_555 1_555
H1B O1B 1_555 1_555
H1H O1B 1_555 1_555
N1B Ag1B 1_555 1_555
C4B N1B 1_555 1_555
C2B C4B 1_555 1_555
C1B C2B 1_555 1_555
C1H C1B 1_555 1_555
H2B C1B 1_555 1_555
C3B C2B 1_555 1_555
C3H C3B 1_555 1_555
C2H C1H 1_555 1_555
H2H C1H 1_555 1_555
C4H C2H 1_555 1_555
N1H C4H 1_555 1_555
Ag1H N1H 1_555 1_555
H3H C3H 1_555 1_555
H3B C3B 1_555 1_555
N1H_2 Ag1B 1_555 1_555
H1J O1 1_555 1_555
F1G P1 1_555 1_555
F2G P1 1_555 1_555
C2 C4 1_555 1_555
Ag1B O1B 1_555 1_555
C2J C3J 1_555 1_555
C3H C2H 1_555 1_555

#END
