
#######################################################################
#
#                 Cambridge Crystallographic Data Centre
#                                CCDC 
#
#######################################################################
#
# If this CIF has been generated from an entry in the Cambridge 
# Structural Database, then it will include bibliographic, chemical, 
# crystal, experimental, refinement or atomic coordinate data resulting 
# from the CCDC's data processing and validation procedures.
#
#######################################################################

data_TEJYAI01
_symmetry_cell_setting           monoclinic
_symmetry_space_group_name_H-M   'C 2/c'
_symmetry_Int_Tables_number      15
_space_group_name_Hall           '-C 2yn'
loop_
_symmetry_equiv_pos_site_id
_symmetry_equiv_pos_as_xyz
1 x,y,z
2 -x,y,1/2-z
3 1/2+x,1/2+y,z
4 1/2-x,1/2+y,1/2-z
5 -x,-y,-z
6 x,-y,1/2+z
7 1/2-x,1/2-y,-z
8 1/2+x,1/2-y,1/2+z
_cell_length_a                   18.288(3)
_cell_length_b                   11.9530(19)
_cell_length_c                   13.040(2)
_cell_angle_alpha                90
_cell_angle_beta                 119.932(2)
_cell_angle_gamma                90
_cell_volume                     2470.29
loop_
_atom_site_label
_atom_site_type_symbol
_atom_site_fract_x
_atom_site_fract_y
_atom_site_fract_z
N1 N 0.3040(2) 0.9468(3) 0.1468(3)
C1 C 0.3042(3) 0.8519(4) 0.1502(4)
Ag1 Ag 0.36901(2) 0.11480(3) 0.16311(3)
S1 S 0.47931(6) 0.17165(8) -0.00115(8)
C2 C 0.3745(2) 0.6785(4) 0.1529(3)
H1 H 0.4182 0.7198 0.1547
C3 C 0.2411(3) 0.6702(3) 0.1491(4)
H2 H 0.1959 0.7068 0.1484
C4 C 0.3110(2) 0.5020(3) 0.1494(3)
C5 C 0.3143(3) 0.3822(3) 0.1472(4)
F1 F 0.5517(3) 0.3667(3) 0.0289(4)
C6 C 0.2430(3) 0.5562(4) 0.1473(3)
H3 H 0.1991 0.5149 0.1448
O1 O 0.5000 0.0049(3) 0.2500
N2 N 0.3214(2) 0.2877(3) 0.1480(3)
C7 C 0.3070(2) 0.7321(3) 0.1520(3)
C8 C 0.3762(2) 0.5633(4) 0.1513(4)
H4 H 0.4211 0.5266 0.1514
O2 O 0.4807(2) 0.1632(3) -0.1099(3)
O3 O 0.5542(2) 0.1327(3) 0.1013(3)
O4 O 0.4015(2) 0.1379(3) -0.0079(3)
F2 F 0.4869(2) 0.3456(3) 0.1249(3)
C9 C 0.4821(3) 0.3217(4) 0.0220(4)
F3 F 0.4147(4) 0.3720(3) -0.0603(4)
H5 H 0.4987 -0.0372 0.1965
H5A H 0.5013 -0.0372 0.3035
N1A N 0.6960(2) 0.9468(3) 0.3532(3)
C1A C 0.6958(3) 0.8519(4) 0.3498(4)
Ag1A Ag 0.63099(2) 0.11480(3) 0.33689(3)
S1A S 0.52069(6) 0.17165(8) 0.50115(8)
C2A C 0.6255(2) 0.6785(4) 0.3471(3)
H1A H 0.5818 0.7198 0.3453
C3A C 0.7589(3) 0.6702(3) 0.3509(4)
H2A H 0.8041 0.7068 0.3516
C4A C 0.6890(2) 0.5020(3) 0.3506(3)
C5A C 0.6857(3) 0.3822(3) 0.3528(4)
F1A F 0.4483(3) 0.3667(3) 0.4711(4)
C6A C 0.7570(3) 0.5562(4) 0.3527(3)
H3A H 0.8009 0.5149 0.3552
N2A N 0.6786(2) 0.2877(3) 0.3520(3)
C7A C 0.6930(2) 0.7321(3) 0.3480(3)
C8A C 0.6238(2) 0.5633(4) 0.3487(4)
H4A H 0.5789 0.5266 0.3486
O2A O 0.5193(2) 0.1632(3) 0.6099(3)
O3A O 0.4458(2) 0.1327(3) 0.3987(3)
O4A O 0.5985(2) 0.1379(3) 0.5079(3)
F2A F 0.5131(2) 0.3456(3) 0.3751(3)
C9A C 0.5179(3) 0.3217(4) 0.4780(4)
F3A F 0.5853(4) 0.3720(3) 0.5603(4)
N1_2 N 0.3040(2) -0.0532(3) 0.1468(3)
N1A_2 N 0.6960(2) -0.0532(3) 0.3532(3)
Ag1_2 Ag 0.36901(2) 1.11480(3) 0.16311(3)
Ag1A_2 Ag 0.63099(2) 1.11480(3) 0.33689(3)
loop_
_geom_bond_atom_site_label_1
_geom_bond_atom_site_label_2
_geom_bond_site_symmetry_1
_geom_bond_site_symmetry_2
N1 C1 1_555 1_555
C1 C7 1_555 1_555
Ag1 O1 1_555 1_555
S1 O2 1_555 1_555
C2 H1 1_555 1_555
C3 H2 1_555 1_555
C4 C5 1_555 1_555
C5 N2 1_555 1_555
F1 C9 1_555 1_555
C6 C3 1_555 1_555
H3 C6 1_555 1_555
O1 H5 1_555 1_555
N2 Ag1 1_555 1_555
C7 C2 1_555 1_555
C8 C2 1_555 1_555
H4 C8 1_555 1_555
O3 S1 1_555 1_555
O4 Ag1 1_555 1_555
F2 C9 1_555 1_555
C9 S1 1_555 1_555
F3 C9 1_555 1_555
H5A O1 1_555 1_555
N1A C1A 1_555 1_555
C1A C7A 1_555 1_555
Ag1A O1 1_555 1_555
S1A O2A 1_555 1_555
C2A H1A 1_555 1_555
C3A H2A 1_555 1_555
C4A C5A 1_555 1_555
C5A N2A 1_555 1_555
F1A C9A 1_555 1_555
C6A C3A 1_555 1_555
H3A C6A 1_555 1_555
N2A Ag1A 1_555 1_555
C7A C2A 1_555 1_555
C8A C2A 1_555 1_555
H4A C8A 1_555 1_555
O3A Ag1 1_555 1_555
O4A Ag1A 1_555 1_555
F2A C9A 1_555 1_555
C9A S1A 1_555 1_555
F3A C9A 1_555 1_555
N1_2 Ag1 1_555 1_555
N1A_2 Ag1A 1_555 1_555
Ag1_2 N1 1_555 1_555
Ag1A_2 N1A 1_555 1_555
S1 O4 1_555 1_555
C3 C7 1_555 1_555
C4 C6 1_555 1_555
C4 C8 1_555 1_555
O3 Ag1A 1_555 1_555
S1A O3A 1_555 1_555
S1A O4A 1_555 1_555
C3A C7A 1_555 1_555
C4A C6A 1_555 1_555
C4A C8A 1_555 1_555

#END
