
#######################################################################
#
#                 Cambridge Crystallographic Data Centre
#                                CCDC 
#
#######################################################################
#
# If this CIF has been generated from an entry in the Cambridge 
# Structural Database, then it will include bibliographic, chemical, 
# crystal, experimental, refinement or atomic coordinate data resulting 
# from the CCDC's data processing and validation procedures.
#
#######################################################################

data_TEKQEH
_symmetry_cell_setting           monoclinic
_symmetry_space_group_name_H-M   'C c'
_symmetry_Int_Tables_number      9
_space_group_name_Hall           'C -2yc'
loop_
_symmetry_equiv_pos_site_id
_symmetry_equiv_pos_as_xyz
1 x,y,z
2 x,-y,1/2+z
3 1/2+x,1/2+y,z
4 1/2+x,1/2-y,1/2+z
_cell_length_a                   15.6162(3)
_cell_length_b                   15.6658(3)
_cell_length_c                   25.5674(4)
_cell_angle_alpha                90
_cell_angle_beta                 91.9760(10)
_cell_angle_gamma                90
_cell_volume                     6251.1
loop_
_atom_site_label
_atom_site_type_symbol
_atom_site_fract_x
_atom_site_fract_y
_atom_site_fract_z
C1 C 0.5473(3) 0.4261(3) -0.01135(19)
H1 H 0.5608 0.4818 -0.0205
C2 C 0.61175(18) 0.36816(19) -0.01070(13)
H2 H 0.6677 0.3841 -0.0174
C3 C 0.5911(2) 0.2849(2) 0.00027(14)
C4 C 0.50846(19) 0.26426(19) 0.01105(13)
H3 H 0.4940 0.2081 0.0185
C5 C 0.4476(3) 0.3261(3) 0.01086(19)
H4 H 0.3916 0.3115 0.0183
C6 C 0.3937(2) 0.2529(2) -0.11012(15)
C7 C 0.4222(2) 0.1716(2) -0.12234(14)
H5 H 0.3904 0.1238 -0.1136
C8 C 0.34666(18) 0.09906(19) 0.03846(12)
H6 H 0.3917 0.1017 0.0632
C9 C 0.3426(2) 0.0350(2) 0.00215(13)
C10 C 0.5181(2) 0.3126(3) -0.14610(15)
H7 H 0.5503 0.3603 -0.1545
C11 C 0.4403(3) 0.3227(3) -0.12025(17)
H8 H 0.4217 0.3766 -0.1104
C12 C 0.2174(2) 0.4240(2) -0.16956(12)
C13 C 0.1460(2) 0.4233(3) -0.20253(15)
H9 H 0.1119 0.3748 -0.2049
C14 C 0.1250(4) 0.4942(4) -0.2320(2)
H10 H 0.0783 0.4936 -0.2556
C15 C 0.1726(5) 0.5628(5) -0.2259(3)
H11 H 0.1563 0.6114 -0.2446
C16 C 0.2455(3) 0.5679(3) -0.19357(16)
H12 H 0.2783 0.6175 -0.1916
C17 C 0.2676(3) 0.4960(2) -0.16428(15)
H13 H 0.3154 0.4965 -0.1415
C18 C 0.3735(2) 0.7745(2) -0.10853(15)
C19 C 0.4429(3) 0.8226(3) -0.11795(17)
H14 H 0.4975 0.8028 -0.1088
C20 C 0.4321(3) 0.9022(2) -0.14152(14)
H15 H 0.4798 0.9352 -0.1488
C21 C 0.3520(3) 0.9322(2) -0.15390(14)
H16 H 0.3450 0.9858 -0.1691
C22 C 0.2818(3) 0.8834(3) -0.14402(15)
H17 H 0.2272 0.9035 -0.1529
C23 C 0.2918(2) 0.8040(2) -0.12079(13)
H18 H 0.2442 0.7709 -0.1135
C24 C 0.5376(2) 0.5990(2) -0.17118(12)
C25 C 0.5288(3) 0.5312(3) -0.20544(14)
H19 H 0.4768 0.5026 -0.2093
C26 C 0.5988(4) 0.5061(4) -0.2343(2)
H20 H 0.5931 0.4615 -0.2582
C27 C 0.6724(4) 0.5452(4) -0.2276(2)
H21 H 0.7191 0.5257 -0.2458
C28 C 0.6836(3) 0.6167(3) -0.19360(17)
H22 H 0.7358 0.6450 -0.1904
C29 C 0.6136(2) 0.6424(3) -0.16532(14)
H23 H 0.6182 0.6887 -0.1426
C30 C 0.6325(2) 0.4759(2) 0.10914(14)
C31 C 0.7139(2) 0.4474(2) 0.12241(14)
H24 H 0.7612 0.4808 0.1148
C32 C 0.7256(3) 0.3691(3) 0.14712(16)
H25 H 0.7806 0.3495 0.1555
C33 C 0.6557(3) 0.3206(2) 0.15909(15)
H26 H 0.6632 0.2688 0.1763
C34 C 0.5745(3) 0.3488(2) 0.14561(15)
H27 H 0.5279 0.3144 0.1531
C35 C 0.5599(3) 0.4259(3) 0.1214(2)
H28 H 0.5045 0.4447 0.1134
C36 C 0.4632(2) 0.6460(2) 0.17181(12)
C37 C 0.3911(2) 0.5943(2) 0.16827(14)
H29 H 0.3896 0.5466 0.1465
C38 C 0.3217(3) 0.6152(3) 0.19775(16)
H30 H 0.2728 0.5815 0.1951
C39 C 0.3229(3) 0.6829(3) 0.2301(2)
H31 H 0.2765 0.6944 0.2509
C40 C 0.3951(4) 0.7356(3) 0.2320(2)
H32 H 0.3953 0.7845 0.2526
C41 C 0.2863(2) 0.3283(2) 0.17110(12)
C42 C 0.2380(3) 0.2556(3) 0.16662(15)
H33 H 0.1886 0.2542 0.1452
C43 C 0.2644(4) 0.1838(3) 0.19481(19)
H34 H 0.2332 0.1336 0.1902
C44 C 0.3330(6) 0.1828(4) 0.2285(3)
H35 H 0.3476 0.1349 0.2483
C45 C 0.1090(2) 0.4986(2) 0.11024(15)
C46 C 0.0601(3) 0.4264(3) 0.1231(2)
H36 H 0.0794 0.3718 0.1155
C47 C -0.0154(2) 0.4379(3) 0.14676(14)
H37 H -0.0488 0.3905 0.1541
C48 C -0.0440(2) 0.5180(3) 0.16027(15)
H38 H -0.0955 0.5243 0.1770
C49 C 0.0044(3) 0.5880(3) 0.14869(16)
H39 H -0.0147 0.6423 0.1574
C50 C 0.0818(2) 0.5788(2) 0.12413(14)
H40 H 0.1150 0.6265 0.1171
C51 C 0.2827(3) 0.1596(3) 0.03769(18)
H41 H 0.2842 0.2020 0.0632
C52 C 0.4981(3) 0.1628(3) -0.14752(16)
H42 H 0.5168 0.1087 -0.1569
C53 C 0.5461(2) 0.2325(3) -0.15889(16)
H43 H 0.5979 0.2259 -0.1753
C54 C 0.27686(19) 0.0333(2) -0.03448(12)
H44 H 0.2731 -0.0098 -0.0595
C55 C 0.2161(3) 0.0974(3) -0.03347(19)
H45 H 0.1716 0.0966 -0.0586
O1 O 0.28785(14) 0.40973(14) -0.05651(9)
O2 O 0.17022(13) 0.29704(14) -0.06432(9)
O3 O 0.31728(13) 0.25565(13) -0.08349(9)
O4 O 0.24032(17) 0.34773(15) -0.14492(9)
O5 O 0.42045(14) 0.54761(14) -0.06547(9)
O6 O 0.37710(13) 0.69588(14) -0.08314(9)
O7 O 0.46475(15) 0.62515(16) -0.14588(9)
O8 O 0.53386(14) 0.66441(15) -0.05699(9)
O9 O 0.58282(14) 0.70169(14) 0.06671(9)
O10 O 0.62630(13) 0.55333(14) 0.08352(9)
O11 O 0.33264(14) 0.45272(14) 0.06584(9)
O12 O 0.21434(15) 0.34007(14) 0.05834(9)
O13 O 0.26114(17) 0.40328(16) 0.14639(9)
O14 O 0.18542(14) 0.49493(14) 0.08462(9)
O15 O 0.46970(13) 0.58475(15) 0.05797(9)
O16 O 0.53776(15) 0.62366(16) 0.14628(9)
P1 P 0.25086(4) 0.41624(5) 0.08441(3)
P2 P 0.25183(4) 0.33412(5) -0.08290(3)
P3 P 0.45596(4) 0.63050(5) -0.08343(3)
P4 P 0.54734(4) 0.61848(5) 0.08441(3)
Cu1 Cu 0.37642(2) 0.50024(3) 0.000223(14)
Cu2 Cu 0.12762(2) 0.24933(3) 0.001446(14)
N1 N 0.46638(15) 0.40999(16) -0.00001(10)
N2 N 0.21824(16) 0.15976(16) 0.00151(10)
C56 C 0.4663(3) 0.7160(3) 0.20361(15)
H46 H 0.5152 0.7498 0.2061
C57 C 0.3584(3) 0.3324(3) 0.20381(15)
H47 H 0.3904 0.3823 0.2069
C58 C 0.3815(5) 0.2597(5) 0.2319(2)
H48 H 0.4304 0.2612 0.2536
C59 C 0.65842(19) 0.15283(19) -0.03696(12)
H49 H 0.6152 0.1508 -0.0629
C60 C 0.6586(2) 0.2176(2) 0.00034(13)
C61 C 0.7221(3) 0.0915(3) -0.03562(19)
H50 H 0.7204 0.0490 -0.0610
N3 N 0.78538(15) 0.09064(15) 0.00024(10)
C62 C 0.7867(3) 0.1515(3) 0.03709(18)
H51 H 0.8297 0.1503 0.0632
C63 C 0.72597(19) 0.21621(19) 0.03765(12)
H52 H 0.7302 0.2588 0.0630
C64 C 0.4098(2) -0.0326(2) 0.00198(13)
C65 C 0.49522(19) -0.01459(19) -0.00895(13)
H53 H 0.5120 0.0412 -0.0157
C66 C 0.4554(3) -0.1812(2) 0.01234(18)
H54 H 0.4419 -0.2376 0.0196
C67 C 0.5552(3) -0.0811(2) -0.00971(17)
H55 H 0.6111 -0.0684 -0.0186
C68 C 0.39129(18) -0.11839(19) 0.01272(13)
H56 H 0.3356 -0.1339 0.0202
N4 N 0.53645(15) -0.15992(15) 0.00143(10)
O8B O 0.03386(14) 0.16441(15) -0.05699(9)
O9B O 0.08282(14) 0.20169(14) 0.06671(9)
Cu1B Cu 0.87642(2) 0.00024(3) 0.000223(14)
Cu2B Cu 0.62762(2) 0.74933(3) 0.001446(14)
Cu2B_2 Cu 0.62762(2) -0.25067(3) 0.001446(14)
N3B N 0.28538(15) 0.59064(15) 0.00024(10)
N4B N 0.03645(15) 0.34008(15) 0.00143(10)
loop_
_geom_bond_atom_site_label_1
_geom_bond_atom_site_label_2
_geom_bond_site_symmetry_1
_geom_bond_site_symmetry_2
C1 H1 1_555 1_555
C2 C1 1_555 1_555
H2 C2 1_555 1_555
C3 C2 1_555 1_555
C4 C3 1_555 1_555
H3 C4 1_555 1_555
C5 C4 1_555 1_555
H4 C5 1_555 1_555
C6 C7 1_555 1_555
C7 H5 1_555 1_555
C8 H6 1_555 1_555
C9 C8 1_555 1_555
C10 H7 1_555 1_555
C11 C6 1_555 1_555
H8 C11 1_555 1_555
C12 C13 1_555 1_555
C13 H9 1_555 1_555
C14 C13 1_555 1_555
H10 C14 1_555 1_555
C15 C14 1_555 1_555
H11 C15 1_555 1_555
C16 C15 1_555 1_555
H12 C16 1_555 1_555
C17 C12 1_555 1_555
H13 C17 1_555 1_555
C18 C19 1_555 1_555
C19 H14 1_555 1_555
C20 C19 1_555 1_555
H15 C20 1_555 1_555
C21 C20 1_555 1_555
H16 C21 1_555 1_555
C22 C21 1_555 1_555
H17 C22 1_555 1_555
C23 C18 1_555 1_555
H18 C23 1_555 1_555
C24 C25 1_555 1_555
C25 H19 1_555 1_555
C26 C25 1_555 1_555
H20 C26 1_555 1_555
C27 C26 1_555 1_555
H21 C27 1_555 1_555
C28 C27 1_555 1_555
H22 C28 1_555 1_555
C29 C24 1_555 1_555
H23 C29 1_555 1_555
C30 C31 1_555 1_555
C31 H24 1_555 1_555
C32 C31 1_555 1_555
H25 C32 1_555 1_555
C33 C32 1_555 1_555
H26 C33 1_555 1_555
C34 C33 1_555 1_555
H27 C34 1_555 1_555
C35 C30 1_555 1_555
H28 C35 1_555 1_555
C36 C37 1_555 1_555
C37 H29 1_555 1_555
C38 C37 1_555 1_555
H30 C38 1_555 1_555
C39 C38 1_555 1_555
H31 C39 1_555 1_555
C40 C39 1_555 1_555
H32 C40 1_555 1_555
C41 C42 1_555 1_555
C42 H33 1_555 1_555
C43 C42 1_555 1_555
H34 C43 1_555 1_555
C44 C43 1_555 1_555
H35 C44 1_555 1_555
C45 C46 1_555 1_555
C46 H36 1_555 1_555
C47 C46 1_555 1_555
H37 C47 1_555 1_555
C48 C47 1_555 1_555
H38 C48 1_555 1_555
C49 C48 1_555 1_555
H39 C49 1_555 1_555
C50 C45 1_555 1_555
H40 C50 1_555 1_555
C51 C8 1_555 1_555
H41 C51 1_555 1_555
C52 C7 1_555 1_555
H42 C52 1_555 1_555
C53 C10 1_555 1_555
H43 C53 1_555 1_555
C54 C9 1_555 1_555
H44 C54 1_555 1_555
C55 C54 1_555 1_555
H45 C55 1_555 1_555
O1 P2 1_555 1_555
O2 P2 1_555 1_555
O3 C6 1_555 1_555
O4 C12 1_555 1_555
O5 P3 1_555 1_555
O6 C18 1_555 1_555
O7 C24 1_555 1_555
O8 P3 1_555 1_555
O9 P4 1_555 1_555
O10 C30 1_555 1_555
O11 P1 1_555 1_555
O12 P1 1_555 1_555
O13 C41 1_555 1_555
O14 C45 1_555 1_555
O15 P4 1_555 1_555
O16 C36 1_555 1_555
P1 O13 1_555 1_555
P2 O3 1_555 1_555
P3 O6 1_555 1_555
P4 O10 1_555 1_555
Cu1 O1 1_555 1_555
Cu2 O2 1_555 1_555
N1 C1 1_555 1_555
N2 C51 1_555 1_555
C56 C36 1_555 1_555
H46 C56 1_555 1_555
C57 C41 1_555 1_555
H47 C57 1_555 1_555
C58 C44 1_555 1_555
H48 C58 1_555 1_555
C59 H49 1_555 1_555
C60 C3 1_555 1_555
C61 C59 1_555 1_555
H50 C61 1_555 1_555
N3 C61 1_555 1_555
C62 N3 1_555 1_555
H51 C62 1_555 1_555
C63 C60 1_555 1_555
H52 C63 1_555 1_555
C64 C9 1_555 1_555
C65 C64 1_555 1_555
H53 C65 1_555 1_555
C66 H54 1_555 1_555
C67 C65 1_555 1_555
H55 C67 1_555 1_555
C68 C64 1_555 1_555
H56 C68 1_555 1_555
N4 C66 1_555 1_555
O8B Cu2 1_555 1_555
O9B Cu2 1_555 1_555
Cu1B N3 1_555 1_555
Cu2B O8 1_555 1_555
Cu2B_2 N4 1_555 1_555
N3B Cu1 1_555 1_555
N4B Cu2 1_555 1_555
C5 N1 1_555 1_555
C10 C11 1_555 1_555
C16 C17 1_555 1_555
C22 C23 1_555 1_555
C28 C29 1_555 1_555
C34 C35 1_555 1_555
C40 C56 1_555 1_555
C49 C50 1_555 1_555
C52 C53 1_555 1_555
C55 N2 1_555 1_555
O4 P2 1_555 1_555
O5 Cu1 1_555 1_555
O7 P3 1_555 1_555
O9 Cu2B 1_555 1_555
O11 Cu1 1_555 1_555
O12 Cu2 1_555 1_555
O14 P1 1_555 1_555
O15 Cu1 1_555 1_555
O16 P4 1_555 1_555
Cu1 N1 1_555 1_555
Cu2 N2 1_555 1_555
C57 C58 1_555 1_555
C59 C60 1_555 1_555
C62 C63 1_555 1_555
C66 C68 1_555 1_555
C67 N4 1_555 1_555

#END
