
#######################################################################
#
#                 Cambridge Crystallographic Data Centre
#                                CCDC 
#
#######################################################################
#
# If this CIF has been generated from an entry in the Cambridge 
# Structural Database, then it will include bibliographic, chemical, 
# crystal, experimental, refinement or atomic coordinate data resulting 
# from the CCDC's data processing and validation procedures.
#
#######################################################################

data_TEKREI
_symmetry_cell_setting           monoclinic
_symmetry_space_group_name_H-M   'C 2/c'
_symmetry_Int_Tables_number      15
_space_group_name_Hall           '-C 2yn'
loop_
_symmetry_equiv_pos_site_id
_symmetry_equiv_pos_as_xyz
1 x,y,z
2 -x,y,1/2-z
3 1/2+x,1/2+y,z
4 1/2-x,1/2+y,1/2-z
5 -x,-y,-z
6 x,-y,1/2+z
7 1/2-x,1/2-y,-z
8 1/2+x,1/2-y,1/2+z
_cell_length_a                   13.7300(4)
_cell_length_b                   18.3498(4)
_cell_length_c                   19.7497(5)
_cell_angle_alpha                90
_cell_angle_beta                 109.5670(10)
_cell_angle_gamma                90
_cell_volume                     4688.44
loop_
_atom_site_label
_atom_site_type_symbol
_atom_site_fract_x
_atom_site_fract_y
_atom_site_fract_z
C1 C 0.88970(12) -0.07243(9) 0.34976(8)
H1 H 0.9550 -0.0912 0.3558
C2 C 0.81026(12) -0.08926(9) 0.28741(8)
H2 H 0.8229 -0.1190 0.2531
C3 C 0.71207(12) -0.06230(8) 0.27556(8)
C4 C 0.70029(14) -0.01844(12) 0.32891(10)
H3 H 0.6360 0.0017 0.3237
C5 C 0.78341(14) -0.00431(11) 0.38993(10)
H4 H 0.7727 0.0255 0.4249
C6 C 0.62407(12) -0.07776(9) 0.20723(9)
H5 H 0.6328 -0.0482 0.1690
H6 H 0.5599 -0.0631 0.2137
C7 C 0.61542(13) -0.15701(9) 0.18425(10)
H7 H 0.6169 -0.1874 0.2248
H8 H 0.6748 -0.1697 0.1705
C8 C 0.51723(13) -0.17311(9) 0.12174(10)
H9 H 0.4579 -0.1658 0.1372
H10 H 0.5118 -0.1391 0.0831
C9 C 0.51521(11) -0.24983(9) 0.09398(9)
C10 C 0.50719(14) -0.31039(10) 0.13381(9)
H11 H 0.5029 -0.3043 0.1795
C11 C 0.50552(13) -0.37936(9) 0.10624(9)
H12 H 0.4999 -0.4188 0.1343
C12 C 0.52104(13) -0.33436(9) 0.00317(8)
H13 H 0.5267 -0.3419 -0.0419
C13 C 0.52294(13) -0.26354(9) 0.02710(9)
H14 H 0.5294 -0.2250 -0.0017
C14 C 0.66013(12) 0.09356(9) 0.48624(9)
C15 C 0.56405(14) 0.06946(10) 0.44353(10)
H15 H 0.5350 0.0283 0.4565
C16 C 0.51132(16) 0.10683(12) 0.38136(11)
H16 H 0.4463 0.0910 0.3526
C17 C 0.55457(18) 0.16720(12) 0.36188(11)
H17 H 0.5191 0.1921 0.3198
C18 C 0.65035(17) 0.19078(11) 0.40463(11)
H18 H 0.6796 0.2316 0.3911
C19 C 0.70397(14) 0.15454(10) 0.46769(10)
H19 H 0.7683 0.1711 0.4969
C20 C 0.78742(13) -0.07718(10) 0.64010(10)
C21 C 0.78526(16) -0.11251(12) 0.70130(13)
H20 H 0.8080 -0.0892 0.7456
C22 C 0.7487(2) -0.18322(15) 0.69545(19)
H21 H 0.7465 -0.2075 0.7362
C23 C 0.7158(2) -0.21788(14) 0.6302(2)
H22 H 0.6922 -0.2657 0.6268
C24 C 0.71784(18) -0.18180(13) 0.57007(17)
H23 H 0.6947 -0.2053 0.5258
C25 C 0.75382(15) -0.11068(11) 0.57412(12)
H24 H 0.7551 -0.0863 0.5331
N1 N 0.87815(10) -0.03068(7) 0.40201(7)
N2 N 0.51157(9) -0.39260(7) 0.04094(7)
O2 O 0.88576(8) 0.02338(6) 0.54598(6)
O3 O 0.70714(9) 0.05356(7) 0.54810(6)
O4 O 0.86323(10) 0.12117(6) 0.63073(6)
O5 O 0.82649(10) -0.00681(6) 0.65142(6)
P1 P 0.82926(3) 0.05203(2) 0.59243(2)
Ni1 Ni 1.0000 0.0000 0.5000
C1D C 1.11030(12) 0.07243(9) 0.65024(8)
H1D H 1.0450 0.0912 0.6442
C2D C 1.18974(12) 0.08926(9) 0.71259(8)
H2D H 1.1771 0.1190 0.7469
C3D C 1.28793(12) 0.06230(8) 0.72444(8)
C4D C 1.29971(14) 0.01844(12) 0.67109(10)
H3D H 1.3640 -0.0017 0.6763
C5D C 1.21659(14) 0.00431(11) 0.61007(10)
H4D H 1.2273 -0.0255 0.5751
C6D C 1.37593(12) 0.07776(9) 0.79277(9)
H5D H 1.3672 0.0482 0.8310
H6D H 1.4401 0.0631 0.7863
C7D C 1.38458(13) 0.15701(9) 0.81575(10)
H7D H 1.3831 0.1874 0.7752
H8D H 1.3252 0.1697 0.8295
C8D C 1.48277(13) 0.17311(9) 0.87826(10)
H9D H 1.5421 0.1658 0.8628
H10D H 1.4882 0.1391 0.9169
C9D C 1.48479(11) 0.24983(9) 0.90602(9)
C10D C 1.49281(14) 0.31039(10) 0.86619(9)
H11D H 1.4971 0.3043 0.8205
C11D C 1.49448(13) 0.37936(9) 0.89376(9)
H12D H 1.5001 0.4188 0.8657
C12D C 1.47896(13) 0.33436(9) 0.99683(8)
H13D H 1.4733 0.3419 1.0419
C13D C 1.47706(13) 0.26354(9) 0.97290(9)
H14D H 1.4706 0.2250 1.0017
C14D C 1.33987(12) -0.09356(9) 0.51376(9)
C15D C 1.43595(14) -0.06946(10) 0.55647(10)
H15D H 1.4650 -0.0283 0.5435
C16D C 1.48868(16) -0.10683(12) 0.61864(11)
H16D H 1.5537 -0.0910 0.6474
C17D C 1.44543(18) -0.16720(12) 0.63812(11)
H17D H 1.4809 -0.1921 0.6802
C18D C 1.34965(17) -0.19078(11) 0.59537(11)
H18D H 1.3204 -0.2316 0.6089
C19D C 1.29603(14) -0.15454(10) 0.53231(10)
H19D H 1.2317 -0.1711 0.5031
C20D C 1.21258(13) 0.07718(10) 0.35990(10)
C21D C 1.21474(16) 0.11251(12) 0.29870(13)
H20D H 1.1920 0.0892 0.2544
C22D C 1.2513(2) 0.18322(15) 0.30455(19)
H21D H 1.2535 0.2075 0.2638
C23D C 1.2842(2) 0.21788(14) 0.3698(2)
H22D H 1.3078 0.2657 0.3732
C24D C 1.28216(18) 0.18180(13) 0.42993(17)
H23D H 1.3053 0.2053 0.4742
C25D C 1.24618(15) 0.11068(11) 0.42588(12)
H24D H 1.2449 0.0863 0.4669
N1D N 1.12185(10) 0.03068(7) 0.59799(7)
N2D N 1.48843(9) 0.39260(7) 0.95906(7)
N2C N 0.98843(9) 0.10740(7) 0.45906(7)
N2G N 1.01157(9) -0.10740(7) 0.54094(7)
O2D O 1.11424(8) -0.02338(6) 0.45402(6)
O3D O 1.29286(9) -0.05356(7) 0.45190(6)
O4D O 1.13677(10) -0.12117(6) 0.36927(6)
O5D O 1.17351(10) 0.00681(6) 0.34858(6)
P1D P 1.17074(3) -0.05203(2) 0.40757(2)
Ni1C Ni 0.5000 -0.5000 0.0000
Ni1C_2 Ni 1.5000 0.5000 1.0000
O1 O 1.0000 0.19526(14) 0.7500
H25 H 0.963(2) 0.1687(15) 0.7162(14)
H25A H 1.037(2) 0.1687(15) 0.7838(14)
loop_
_geom_bond_atom_site_label_1
_geom_bond_atom_site_label_2
_geom_bond_site_symmetry_1
_geom_bond_site_symmetry_2
C1 H1 1_555 1_555
C2 C1 1_555 1_555
H2 C2 1_555 1_555
C3 C2 1_555 1_555
C4 C3 1_555 1_555
H3 C4 1_555 1_555
C5 C4 1_555 1_555
H4 C5 1_555 1_555
C6 C3 1_555 1_555
H5 C6 1_555 1_555
H6 C6 1_555 1_555
C7 C6 1_555 1_555
H7 C7 1_555 1_555
H8 C7 1_555 1_555
C8 C7 1_555 1_555
H9 C8 1_555 1_555
H10 C8 1_555 1_555
C9 C8 1_555 1_555
C10 C9 1_555 1_555
H11 C10 1_555 1_555
C11 C10 1_555 1_555
H12 C11 1_555 1_555
C12 H13 1_555 1_555
C13 C9 1_555 1_555
H14 C13 1_555 1_555
C14 C15 1_555 1_555
C15 H15 1_555 1_555
C16 C15 1_555 1_555
H16 C16 1_555 1_555
C17 C16 1_555 1_555
H17 C17 1_555 1_555
C18 C17 1_555 1_555
H18 C18 1_555 1_555
C19 C14 1_555 1_555
H19 C19 1_555 1_555
C20 C21 1_555 1_555
C21 H20 1_555 1_555
C22 C21 1_555 1_555
H21 C22 1_555 1_555
C23 C22 1_555 1_555
H22 C23 1_555 1_555
C24 C23 1_555 1_555
H23 C24 1_555 1_555
C25 C20 1_555 1_555
H24 C25 1_555 1_555
N1 C1 1_555 1_555
N2 C11 1_555 1_555
O1 H25 1_555 1_555
O2 P1 1_555 1_555
O3 C14 1_555 1_555
O4 P1 1_555 1_555
O5 C20 1_555 1_555
P1 O3 1_555 1_555
Ni1 N1 1_555 1_555
C1D H1D 1_555 1_555
C2D C1D 1_555 1_555
H2D C2D 1_555 1_555
C3D C2D 1_555 1_555
C4D C3D 1_555 1_555
H3D C4D 1_555 1_555
C5D C4D 1_555 1_555
H4D C5D 1_555 1_555
C6D C3D 1_555 1_555
H5D C6D 1_555 1_555
H6D C6D 1_555 1_555
C7D C6D 1_555 1_555
H7D C7D 1_555 1_555
H8D C7D 1_555 1_555
C8D C7D 1_555 1_555
H9D C8D 1_555 1_555
H10D C8D 1_555 1_555
C9D C8D 1_555 1_555
C10D C9D 1_555 1_555
H11D C10D 1_555 1_555
C11D C10D 1_555 1_555
H12D C11D 1_555 1_555
C12D H13D 1_555 1_555
C13D C9D 1_555 1_555
H14D C13D 1_555 1_555
C14D C15D 1_555 1_555
C15D H15D 1_555 1_555
C16D C15D 1_555 1_555
H16D C16D 1_555 1_555
C17D C16D 1_555 1_555
H17D C17D 1_555 1_555
C18D C17D 1_555 1_555
H18D C18D 1_555 1_555
C19D C14D 1_555 1_555
H19D C19D 1_555 1_555
C20D C21D 1_555 1_555
C21D H20D 1_555 1_555
C22D C21D 1_555 1_555
H21D C22D 1_555 1_555
C23D C22D 1_555 1_555
H22D C23D 1_555 1_555
C24D C23D 1_555 1_555
H23D C24D 1_555 1_555
C25D C20D 1_555 1_555
H24D C25D 1_555 1_555
N1D Ni1 1_555 1_555
N2D C11D 1_555 1_555
N2C Ni1 1_555 1_555
N2G Ni1 1_555 1_555
O2D Ni1 1_555 1_555
O3D C14D 1_555 1_555
O4D P1D 1_555 1_555
O5D C20D 1_555 1_555
P1D O2D 1_555 1_555
Ni1C N2 1_555 1_555
Ni1C_2 N2D 1_555 1_555
H25A O1 1_555 1_555
C5 N1 1_555 1_555
C12 C13 1_555 1_555
C12 N2 1_555 1_555
C18 C19 1_555 1_555
C24 C25 1_555 1_555
O2 Ni1 1_555 1_555
O5 P1 1_555 1_555
C1D N1D 1_555 1_555
C5D N1D 1_555 1_555
C12D C13D 1_555 1_555
C12D N2D 1_555 1_555
C18D C19D 1_555 1_555
C24D C25D 1_555 1_555
O3D P1D 1_555 1_555
O5D P1D 1_555 1_555

#END
