
#######################################################################
#
#                 Cambridge Crystallographic Data Centre
#                                CCDC 
#
#######################################################################
#
# If this CIF has been generated from an entry in the Cambridge 
# Structural Database, then it will include bibliographic, chemical, 
# crystal, experimental, refinement or atomic coordinate data resulting 
# from the CCDC's data processing and validation procedures.
#
#######################################################################

data_TEKRUY
_symmetry_cell_setting           monoclinic
_symmetry_space_group_name_H-M   'C 2/c'
_symmetry_Int_Tables_number      15
_space_group_name_Hall           '-C 2yn'
loop_
_symmetry_equiv_pos_site_id
_symmetry_equiv_pos_as_xyz
1 x,y,z
2 -x,y,1/2-z
3 1/2+x,1/2+y,z
4 1/2-x,1/2+y,1/2-z
5 -x,-y,-z
6 x,-y,1/2+z
7 1/2-x,1/2-y,-z
8 1/2+x,1/2-y,1/2+z
_cell_length_a                   13.7022(3)
_cell_length_b                   18.4230(3)
_cell_length_c                   19.8629(5)
_cell_angle_alpha                90
_cell_angle_beta                 109.3670(10)
_cell_angle_gamma                90
_cell_volume                     4730.37
loop_
_atom_site_label
_atom_site_type_symbol
_atom_site_fract_x
_atom_site_fract_y
_atom_site_fract_z
Zn1 Zn 1.0000 0.0000 0.5000
O1 O 1.11661(8) -0.02406(6) 0.45398(6)
N1 N 1.01155(9) -0.10929(6) 0.54137(6)
C1 C 1.01341(11) -0.25131(8) 0.59350(8)
C2 C 1.11317(13) -0.34383(9) 0.68321(9)
H1 H 1.1728 -0.3312 0.6697
H2 H 1.1142 -0.3135 0.7234
C3 C 1.02128(12) -0.23781(8) 0.52695(9)
H3 H 1.0273 -0.2762 0.4982
C4 C 1.01518(13) -0.32786(9) 0.62090(9)
H4 H 1.0102 -0.3617 0.5825
H5 H 0.9555 -0.3352 0.6360
C5 C 1.02024(12) -0.16738(8) 0.50338(8)
H6 H 1.0259 -0.1598 0.4585
C6 C 1.12171(12) -0.42252(8) 0.70619(8)
H7 H 1.0574 -0.4370 0.7128
H8 H 1.1304 -0.4521 0.6682
C7 C 1.00608(14) -0.19110(9) 0.63341(9)
H9 H 1.0017 -0.1972 0.6788
C8 C 1.00531(13) -0.12243(9) 0.60616(8)
H10 H 1.0002 -0.0831 0.6341
P1 P 1.17264(3) -0.05304(2) 0.407369(19)
O2 O 1.17585(10) 0.00572(6) 0.34873(6)
O3 O 1.13745(10) -0.12159(6) 0.36908(6)
O4 O 1.29491(8) -0.05523(6) 0.45114(6)
C9 C 1.29580(13) -0.15490(9) 0.53174(10)
H11 H 1.2316 -0.1713 0.5025
C10 C 1.30767(12) -0.41005(9) 0.78579(8)
H12 H 1.3201 -0.3800 0.7519
C11 C 1.34050(12) -0.09448(8) 0.51320(8)
C12 C 1.20974(11) -0.43775(8) 0.77394(8)
C13 C 1.19778(13) -0.48158(11) 0.82695(10)
H13 H 1.1336 -0.5019 0.8218
C14 C 1.38710(12) -0.42676(9) 0.84768(8)
H14 H 1.4524 -0.4079 0.8537
C15 C 1.28073(14) -0.49533(10) 0.88753(10)
H15 H 1.2701 -0.5251 0.9222
C16 C 1.21348(12) 0.07607(9) 0.36018(10)
C17 C 1.43602(13) -0.07050(10) 0.55613(10)
H16 H 1.4656 -0.0296 0.5433
C18 C 1.34809(17) -0.19075(10) 0.59465(11)
H17 H 1.3181 -0.2311 0.6080
C19 C 1.44376(17) -0.16744(11) 0.63765(11)
H18 H 1.4785 -0.1921 0.6796
C20 C 1.21436(16) 0.11204(11) 0.29931(12)
H19 H 1.1917 0.0890 0.2552
C21 C 1.48766(16) -0.10735(11) 0.61816(11)
H20 H 1.5525 -0.0915 0.6470
C22 C 1.24696(14) 0.10927(10) 0.42571(12)
H21 H 1.2466 0.0846 0.4665
C23 C 1.2495(2) 0.18305(14) 0.30510(18)
H22 H 1.2507 0.2078 0.2646
N2 N 1.37531(10) -0.46854(7) 0.89942(6)
C24 C 1.28140(17) 0.18069(12) 0.42978(16)
H23 H 1.3041 0.2040 0.4738
C25 C 1.2823(2) 0.21711(13) 0.3699(2)
H24 H 1.3053 0.2649 0.3733
Zn1C Zn 0.5000 0.5000 0.0000
Zn1C_2 Zn 1.5000 -0.5000 1.0000
O1D O 0.88339(8) 0.02406(6) 0.54602(6)
N1D N 0.98845(9) 0.10929(6) 0.45863(6)
C1D C 0.98659(11) 0.25131(8) 0.40650(8)
C2D C 0.88683(13) 0.34383(9) 0.31679(9)
H1D H 0.8272 0.3312 0.3303
H2D H 0.8858 0.3135 0.2766
C3D C 0.97872(12) 0.23781(8) 0.47305(9)
H3D H 0.9727 0.2762 0.5018
C4D C 0.98482(13) 0.32786(9) 0.37910(9)
H4D H 0.9898 0.3617 0.4175
H5D H 1.0445 0.3352 0.3640
C5D C 0.97976(12) 0.16738(8) 0.49662(8)
H6D H 0.9741 0.1598 0.5415
C6D C 0.87829(12) 0.42252(8) 0.29381(8)
H7D H 0.9426 0.4370 0.2872
H8D H 0.8696 0.4521 0.3318
C7D C 0.99392(14) 0.19110(9) 0.36659(9)
H9D H 0.9983 0.1972 0.3212
C8D C 0.99469(13) 0.12243(9) 0.39384(8)
H10D H 0.9998 0.0831 0.3659
P1D P 0.82736(3) 0.05304(2) 0.592631(19)
O2D O 0.82415(10) -0.00572(6) 0.65127(6)
O3D O 0.86255(10) 0.12159(6) 0.63092(6)
O4D O 0.70509(8) 0.05523(6) 0.54886(6)
C9D C 0.70420(13) 0.15490(9) 0.46826(10)
H11D H 0.7684 0.1713 0.4975
C10D C 0.69233(12) 0.41005(9) 0.21421(8)
H12D H 0.6799 0.3800 0.2481
C11D C 0.65950(12) 0.09448(8) 0.48680(8)
C12D C 0.79026(11) 0.43775(8) 0.22606(8)
C13D C 0.80222(13) 0.48158(11) 0.17305(10)
H13D H 0.8664 0.5019 0.1782
C14D C 0.61290(12) 0.42676(9) 0.15232(8)
H14D H 0.5476 0.4079 0.1463
C15D C 0.71927(14) 0.49533(10) 0.11247(10)
H15D H 0.7299 0.5251 0.0778
C16D C 0.78652(12) -0.07607(9) 0.63982(10)
C17D C 0.56398(13) 0.07050(10) 0.44387(10)
H16D H 0.5344 0.0296 0.4567
C18D C 0.65191(17) 0.19075(10) 0.40535(11)
H17D H 0.6819 0.2311 0.3920
C19D C 0.55624(17) 0.16744(11) 0.36235(11)
H18D H 0.5215 0.1921 0.3204
C20D C 0.78564(16) -0.11204(11) 0.70069(12)
H19D H 0.8083 -0.0890 0.7448
C21D C 0.51234(16) 0.10735(11) 0.38184(11)
H20D H 0.4475 0.0915 0.3530
C22D C 0.75304(14) -0.10927(10) 0.57429(12)
H21D H 0.7534 -0.0846 0.5335
C23D C 0.7505(2) -0.18305(14) 0.69490(18)
H22D H 0.7493 -0.2078 0.7354
N2D N 0.62469(10) 0.46854(7) 0.10058(6)
N2C N 1.12469(10) 0.03146(7) 0.60058(6)
N2G N 0.87531(10) -0.03146(7) 0.39942(6)
C24D C 0.71860(17) -0.18069(12) 0.57022(16)
H23D H 0.6959 -0.2040 0.5262
C25D C 0.7177(2) -0.21711(13) 0.6301(2)
H24D H 0.6947 -0.2649 0.6267
O5 O 1.0000 -0.19536(13) 0.2500
H25 H 1.035(2) -0.1686(13) 0.2830(13)
H25A H 0.965(2) -0.1686(13) 0.2170(13)
loop_
_geom_bond_atom_site_label_1
_geom_bond_atom_site_label_2
_geom_bond_site_symmetry_1
_geom_bond_site_symmetry_2
Zn1 O1 1_555 1_555
O1 P1 1_555 1_555
N1 Zn1 1_555 1_555
C1 C3 1_555 1_555
C2 H1 1_555 1_555
H2 C2 1_555 1_555
C3 H3 1_555 1_555
C4 C1 1_555 1_555
H4 C4 1_555 1_555
H5 C4 1_555 1_555
C5 N1 1_555 1_555
H6 C5 1_555 1_555
C6 C2 1_555 1_555
H7 C6 1_555 1_555
H8 C6 1_555 1_555
C7 C1 1_555 1_555
H9 C7 1_555 1_555
C8 N1 1_555 1_555
H10 C8 1_555 1_555
P1 O2 1_555 1_555
O2 C16 1_555 1_555
O3 P1 1_555 1_555
O4 P1 1_555 1_555
C9 H11 1_555 1_555
C10 H12 1_555 1_555
C11 O4 1_555 1_555
C12 C6 1_555 1_555
C13 C12 1_555 1_555
H13 C13 1_555 1_555
C14 C10 1_555 1_555
H14 C14 1_555 1_555
C15 C13 1_555 1_555
H15 C15 1_555 1_555
C16 C20 1_555 1_555
C17 C11 1_555 1_555
H16 C17 1_555 1_555
C18 C9 1_555 1_555
H17 C18 1_555 1_555
C19 C18 1_555 1_555
H18 C19 1_555 1_555
C20 H19 1_555 1_555
C21 C17 1_555 1_555
H20 C21 1_555 1_555
C22 C16 1_555 1_555
H21 C22 1_555 1_555
C23 C20 1_555 1_555
H22 C23 1_555 1_555
N2 C14 1_555 1_555
C24 C22 1_555 1_555
H23 C24 1_555 1_555
C25 C23 1_555 1_555
H24 C25 1_555 1_555
O5 H25 1_555 1_555
Zn1C N2D 1_555 1_555
Zn1C_2 N2 1_555 1_555
O1D Zn1 1_555 1_555
N1D Zn1 1_555 1_555
C1D C3D 1_555 1_555
C2D H1D 1_555 1_555
H2D C2D 1_555 1_555
C3D H3D 1_555 1_555
C4D C1D 1_555 1_555
H4D C4D 1_555 1_555
H5D C4D 1_555 1_555
C5D N1D 1_555 1_555
H6D C5D 1_555 1_555
C6D C2D 1_555 1_555
H7D C6D 1_555 1_555
H8D C6D 1_555 1_555
C7D C1D 1_555 1_555
H9D C7D 1_555 1_555
C8D N1D 1_555 1_555
H10D C8D 1_555 1_555
P1D O1D 1_555 1_555
O2D P1D 1_555 1_555
O3D P1D 1_555 1_555
O4D P1D 1_555 1_555
C9D H11D 1_555 1_555
C10D H12D 1_555 1_555
C11D O4D 1_555 1_555
C12D C6D 1_555 1_555
C13D C12D 1_555 1_555
H13D C13D 1_555 1_555
C14D C10D 1_555 1_555
H14D C14D 1_555 1_555
C15D C13D 1_555 1_555
H15D C15D 1_555 1_555
C16D O2D 1_555 1_555
C17D C11D 1_555 1_555
H16D C17D 1_555 1_555
C18D C9D 1_555 1_555
H17D C18D 1_555 1_555
C19D C18D 1_555 1_555
H18D C19D 1_555 1_555
C20D C16D 1_555 1_555
H19D C20D 1_555 1_555
C21D C17D 1_555 1_555
H20D C21D 1_555 1_555
C22D C16D 1_555 1_555
H21D C22D 1_555 1_555
C23D C20D 1_555 1_555
H22D C23D 1_555 1_555
N2D C14D 1_555 1_555
N2C Zn1 1_555 1_555
N2G Zn1 1_555 1_555
C24D C22D 1_555 1_555
H23D C24D 1_555 1_555
C25D C23D 1_555 1_555
H24D C25D 1_555 1_555
H25A O5 1_555 1_555
C2 C4 1_555 1_555
C3 C5 1_555 1_555
C7 C8 1_555 1_555
C9 C11 1_555 1_555
C10 C12 1_555 1_555
C15 N2 1_555 1_555
C19 C21 1_555 1_555
C24 C25 1_555 1_555
C2D C4D 1_555 1_555
C3D C5D 1_555 1_555
C7D C8D 1_555 1_555
C9D C11D 1_555 1_555
C10D C12D 1_555 1_555
C15D N2D 1_555 1_555
C19D C21D 1_555 1_555
C24D C25D 1_555 1_555

#END
