
#######################################################################
#
#                 Cambridge Crystallographic Data Centre
#                                CCDC 
#
#######################################################################
#
# If this CIF has been generated from an entry in the Cambridge 
# Structural Database, then it will include bibliographic, chemical, 
# crystal, experimental, refinement or atomic coordinate data resulting 
# from the CCDC's data processing and validation procedures.
#
#######################################################################

data_TEKRIM
_symmetry_cell_setting           monoclinic
_symmetry_space_group_name_H-M   'C 2'
_symmetry_Int_Tables_number      5
_space_group_name_Hall           'C 2y'
loop_
_symmetry_equiv_pos_site_id
_symmetry_equiv_pos_as_xyz
1 x,y,z
2 -x,y,-z
3 1/2+x,1/2+y,z
4 1/2-x,1/2+y,-z
_cell_length_a                   24.606(5)
_cell_length_b                   5.763(5)
_cell_length_c                   12.118(5)
_cell_angle_alpha                90
_cell_angle_beta                 111.975(5)
_cell_angle_gamma                90
_cell_volume                     1593.54
loop_
_atom_site_label
_atom_site_type_symbol
_atom_site_fract_x
_atom_site_fract_y
_atom_site_fract_z
C1 C 0.66704(8) 0.6235(4) 0.98134(18)
C2 C 0.69636(10) 0.7982(5) 0.9482(2)
H1 H 0.7112 0.9249 0.9979
C3 C 0.70330(12) 0.7825(6) 0.8405(2)
H2 H 0.7236 0.8981 0.8185
C4 C 0.68067(13) 0.5992(6) 0.7657(2)
H3 H 0.6848 0.5915 0.6926
C5 C 0.65130(12) 0.4240(6) 0.8000(2)
H4 H 0.6362 0.2982 0.7498
C6 C 0.64444(10) 0.4355(5) 0.9081(2)
H5 H 0.6249 0.3182 0.9310
C7 C 0.64356(8) 0.8782(4) 1.31252(16)
C8 C 0.66930(10) 1.0626(4) 1.27688(19)
H6 H 0.6695 1.0685 1.2003
C9 C 0.69478(10) 1.2383(4) 1.3582(2)
H7 H 0.7124 1.3628 1.3356
C10 C 0.69451(11) 1.2317(5) 1.4717(2)
H8 H 0.7119 1.3505 1.5253
C11 C 0.66834(11) 1.0478(5) 1.5052(2)
H9 H 0.6679 1.0431 1.5816
C12 C 0.64260(10) 0.8694(4) 1.42574(18)
H10 H 0.6249 0.7454 1.4485
C13 C 0.52412(11) -0.0489(4) 0.75420(18)
H11 H 0.5412 -0.1693 0.8069
C14 C 0.52434(10) -0.0616(4) 0.64028(18)
H12 H 0.5407 -0.1892 0.6172
C15 C 0.50003(8) 0.1174(3) 0.56125(14)
C16 C 0.47600(11) 0.3005(4) 0.60069(18)
H13 H 0.4596 0.4253 0.5506
C17 C 0.47645(11) 0.2976(4) 0.71485(19)
H14 H 0.4590 0.4203 0.7390
N1 N 0.50064(7) 0.1279(3) 0.79210(13)
O1 O 0.66305(5) 0.6383(3) 1.09278(11)
O2 O 0.56718(7) 0.4447(3) 1.06900(14)
O3 O 0.61814(6) 0.6901(3) 1.24053(11)
O4 O 0.57185(7) 0.8799(3) 1.03749(12)
P1 P 0.599415(16) 0.66590(9) 1.10014(3)
Ca1 Ca 0.5000 0.15604(9) 1.0000
C1_2 C 0.66704(8) -0.3765(4) 0.98134(18)
C2_2 C 0.69636(10) -0.2018(5) 0.9482(2)
H1_2 H 0.7112 -0.0751 0.9979
C3_2 C 0.70330(12) -0.2175(6) 0.8405(2)
H2_2 H 0.7236 -0.1019 0.8185
C4_2 C 0.68067(13) -0.4008(6) 0.7657(2)
H3_2 H 0.6848 -0.4085 0.6926
C5_2 C 0.65130(12) -0.5760(6) 0.8000(2)
H4_2 H 0.6362 -0.7018 0.7498
C6_2 C 0.64444(10) -0.5645(5) 0.9081(2)
H5_2 H 0.6249 -0.6818 0.9310
C7_2 C 0.64356(8) -0.1218(4) 1.31252(16)
C8_2 C 0.66930(10) 0.0626(4) 1.27688(19)
H6_2 H 0.6695 0.0685 1.2003
C9_2 C 0.69478(10) 0.2383(4) 1.3582(2)
H7_2 H 0.7124 0.3628 1.3356
C10_2 C 0.69451(11) 0.2317(5) 1.4717(2)
H8_2 H 0.7119 0.3505 1.5253
C11_2 C 0.66834(11) 0.0478(5) 1.5052(2)
H9_2 H 0.6679 0.0431 1.5816
C12_2 C 0.64260(10) -0.1306(4) 1.42574(18)
H10_2 H 0.6249 -0.2546 1.4485
C13A C 0.47588(11) -0.0489(4) 0.24580(18)
H11A H 0.4588 -0.1693 0.1931
C14A C 0.47566(10) -0.0616(4) 0.35972(18)
H12A H 0.4593 -0.1892 0.3828
C15A C 0.49997(8) 0.1174(3) 0.43875(14)
C16A C 0.52400(11) 0.3005(4) 0.39931(18)
H13A H 0.5404 0.4253 0.4494
C17A C 0.52355(11) 0.2976(4) 0.28515(19)
H14A H 0.5410 0.4203 0.2610
N1A N 0.49936(7) 0.1279(3) 0.20790(13)
N1A_2 N 0.49936(7) 0.1279(3) 1.20790(13)
O1_2 O 0.66305(5) -0.3617(3) 1.09278(11)
O2_2 O 0.56718(7) -0.5553(3) 1.06900(14)
O2A O 0.43282(7) 0.4447(3) 0.93100(14)
O3_2 O 0.61814(6) -0.3099(3) 1.24053(11)
O4_2 O 0.57185(7) -0.1201(3) 1.03749(12)
O4A O 0.42815(7) -0.1201(3) 0.96251(12)
P1_2 P 0.599415(16) -0.33410(9) 1.10014(3)
Ca1_2 Ca 0.5000 1.15604(9) 1.0000
Ca1_3 Ca 0.5000 0.15604(9) 0.0000
Ca1_4 Ca 0.5000 -0.84396(9) 1.0000
loop_
_geom_bond_atom_site_label_1
_geom_bond_atom_site_label_2
_geom_bond_site_symmetry_1
_geom_bond_site_symmetry_2
C1 C2 1_555 1_555
C2 H1 1_555 1_555
C3 C2 1_555 1_555
H2 C3 1_555 1_555
C4 C3 1_555 1_555
H3 C4 1_555 1_555
C5 C4 1_555 1_555
H4 C5 1_555 1_555
C6 C1 1_555 1_555
H5 C6 1_555 1_555
C7 C8 1_555 1_555
C8 H6 1_555 1_555
C9 C8 1_555 1_555
H7 C9 1_555 1_555
C10 C9 1_555 1_555
H8 C10 1_555 1_555
C11 C10 1_555 1_555
H9 C11 1_555 1_555
C12 C7 1_555 1_555
H10 C12 1_555 1_555
C13 H11 1_555 1_555
C14 C13 1_555 1_555
H12 C14 1_555 1_555
C15 C14 1_555 1_555
C16 C15 1_555 1_555
H13 C16 1_555 1_555
C17 C16 1_555 1_555
H14 C17 1_555 1_555
N1 C13 1_555 1_555
O1 C1 1_555 1_555
O2 P1 1_555 1_555
O3 C7 1_555 1_555
O4 P1 1_555 1_555
P1 O1 1_555 1_555
Ca1 N1 1_555 1_555
C1_2 C2_2 1_555 1_555
C2_2 H1_2 1_555 1_555
C3_2 C2_2 1_555 1_555
H2_2 C3_2 1_555 1_555
C4_2 C3_2 1_555 1_555
H3_2 C4_2 1_555 1_555
C5_2 C4_2 1_555 1_555
H4_2 C5_2 1_555 1_555
C6_2 C1_2 1_555 1_555
H5_2 C6_2 1_555 1_555
C7_2 C8_2 1_555 1_555
C8_2 H6_2 1_555 1_555
C9_2 C8_2 1_555 1_555
H7_2 C9_2 1_555 1_555
C10_2 C9_2 1_555 1_555
H8_2 C10_2 1_555 1_555
C11_2 C10_2 1_555 1_555
H9_2 C11_2 1_555 1_555
C12_2 C7_2 1_555 1_555
H10_2 C12_2 1_555 1_555
C13A H11A 1_555 1_555
C14A C13A 1_555 1_555
H12A C14A 1_555 1_555
C15A C15 1_555 1_555
C16A C15A 1_555 1_555
H13A C16A 1_555 1_555
C17A C16A 1_555 1_555
H14A C17A 1_555 1_555
N1A C13A 1_555 1_555
N1A_2 Ca1 1_555 1_555
O1_2 C1_2 1_555 1_555
O2_2 P1_2 1_555 1_555
O2A Ca1 1_555 1_555
O3_2 C7_2 1_555 1_555
O4_2 Ca1 1_555 1_555
O4A Ca1 1_555 1_555
P1_2 O1_2 1_555 1_555
Ca1_2 O4 1_555 1_555
Ca1_3 N1A 1_555 1_555
Ca1_4 O2_2 1_555 1_555
C5 C6 1_555 1_555
C11 C12 1_555 1_555
C17 N1 1_555 1_555
O2 Ca1 1_555 1_555
O3 P1 1_555 1_555
C5_2 C6_2 1_555 1_555
C11_2 C12_2 1_555 1_555
C14A C15A 1_555 1_555
C17A N1A 1_555 1_555
O3_2 P1_2 1_555 1_555
O4_2 P1_2 1_555 1_555

#END
