
#######################################################################
#
#                 Cambridge Crystallographic Data Centre
#                                CCDC 
#
#######################################################################
#
# If this CIF has been generated from an entry in the Cambridge 
# Structural Database, then it will include bibliographic, chemical, 
# crystal, experimental, refinement or atomic coordinate data resulting 
# from the CCDC's data processing and validation procedures.
#
#######################################################################

data_TELDOF
_symmetry_cell_setting           tetragonal
_symmetry_space_group_name_H-M   'I 41/a'
_symmetry_Int_Tables_number      88
_space_group_name_Hall           '-I 4ad'
loop_
_symmetry_equiv_pos_site_id
_symmetry_equiv_pos_as_xyz
1 x,y,z
2 3/4-y,1/4+x,1/4+z
3 1/2-x,-y,1/2+z
4 3/4+y,3/4-x,3/4+z
5 1/2+x,1/2+y,1/2+z
6 1/4-y,3/4+x,3/4+z
7 -x,1/2-y,z
8 1/4+y,1/4-x,1/4+z
9 -x,-y,-z
10 1/4+y,3/4-x,3/4-z
11 1/2+x,y,1/2-z
12 1/4-y,1/4+x,1/4-z
13 1/2-x,1/2-y,1/2-z
14 3/4+y,1/4-x,1/4-z
15 x,1/2+y,-z
16 3/4-y,3/4+x,3/4-z
_cell_length_a                   22.425(5)
_cell_length_b                   22.425(5)
_cell_length_c                   15.091(10)
_cell_angle_alpha                90
_cell_angle_beta                 90
_cell_angle_gamma                90
_cell_volume                     7588.97
loop_
_atom_site_label
_atom_site_type_symbol
_atom_site_fract_x
_atom_site_fract_y
_atom_site_fract_z
Cd1 Cd 0.24210(5) 0.17226(4) 0.80047(7)
N1 N 0.1887(5) 0.1193(5) 0.7017(7)
N2 N 0.1352(4) 0.0588(5) 0.6152(7)
O1 O 0.2211(4) 0.2347(4) 0.6738(7)
O2 O 0.1931(5) 0.2324(5) 0.5350(7)
O3 O 0.1366(6) 0.1652(5) 0.4346(6)
H1 H 0.1513 0.1899 0.4681
O4 O 0.0936(5) 0.0785(5) 0.4460(6)
C1 C 0.2002(6) 0.2102(6) 0.6095(11)
C2 C 0.1784(6) 0.1477(6) 0.6228(9)
C3 C 0.1452(6) 0.1110(6) 0.5698(9)
C4 C 0.1236(8) 0.1170(7) 0.4790(12)
C5 C 0.1624(6) 0.0663(6) 0.6939(9)
C6 C 0.1639(8) 0.0191(8) 0.7640(10)
C7 C 0.2188(8) -0.0037(8) 0.7915(10)
H2 H 0.2543 0.0113 0.7689
C8 C 0.2189(10) -0.0479(8) 0.8514(11)
H3 H 0.2554 -0.0640 0.8685
C9 C 0.1688(10) -0.0703(9) 0.8880(13)
C10 C 0.1161(10) -0.0471(9) 0.8649(14)
C11 C 0.1095(9) -0.0050(8) 0.7986(12)
H4 H 0.0723 0.0068 0.7779
C12 C 0.1711(11) -0.1237(10) 0.9537(14)
H5 H 0.1315 -0.1329 0.9735
H6 H 0.1954 -0.1133 1.0037
H7 H 0.1879 -0.1578 0.9244
C13 C 0.0555(10) -0.0683(11) 0.8994(17)
H8 H 0.0511 -0.1102 0.8878
H9 H 0.0243 -0.0467 0.8700
H10 H 0.0532 -0.0613 0.9621
N3 N 0.1575(6) 0.1811(9) 0.8865(13)
C14 C 0.1340(7) 0.2362(7) 0.9102(14)
H11 H 0.1542 0.2711 0.8954
C15 C 0.0803(8) 0.2393(7) 0.9561(15)
H12 H 0.0646 0.2761 0.9720
C16 C 0.0502(6) 0.1872(10) 0.9783(14)
H13 H 0.0143 0.1892 1.0090
C17 C 0.0737(8) 0.1321(8) 0.9546(14)
H14 H 0.0535 0.0973 0.9695
C18 C 0.1274(8) 0.1291(7) 0.9087(14)
H15 H 0.1431 0.0922 0.8929
Cd1E Cd 0.07774(4) -0.00790(5) 0.55047(7)
Cd1L Cd 0.25790(5) 0.32774(4) 0.69953(7)
N2G N 0.3088(5) 0.1148(4) 0.8652(7)
O1L O 0.2789(4) 0.2653(4) 0.8262(7)
O4G O 0.3285(5) 0.1564(5) 0.6960(6)
loop_
_geom_bond_atom_site_label_1
_geom_bond_atom_site_label_2
_geom_bond_site_symmetry_1
_geom_bond_site_symmetry_2
Cd1 N1 1_555 1_555
N1 C2 1_555 1_555
N2 C3 1_555 1_555
O1 Cd1 1_555 1_555
O2 C1 1_555 1_555
O3 H1 1_555 1_555
O4 C4 1_555 1_555
C1 O1 1_555 1_555
C2 C1 1_555 1_555
C3 C2 1_555 1_555
C4 O3 1_555 1_555
C5 N1 1_555 1_555
C6 C5 1_555 1_555
C7 C6 1_555 1_555
H2 C7 1_555 1_555
C8 C7 1_555 1_555
H3 C8 1_555 1_555
C9 C8 1_555 1_555
C10 C9 1_555 1_555
C11 C6 1_555 1_555
H4 C11 1_555 1_555
C12 C9 1_555 1_555
H5 C12 1_555 1_555
H6 C12 1_555 1_555
H7 C12 1_555 1_555
C13 C10 1_555 1_555
H8 C13 1_555 1_555
H9 C13 1_555 1_555
H10 C13 1_555 1_555
N3 Cd1 1_555 1_555
C14 N3 1_555 1_555
H11 C14 1_555 1_555
C15 C14 1_555 1_555
H12 C15 1_555 1_555
C16 C15 1_555 1_555
H13 C16 1_555 1_555
C17 C16 1_555 1_555
H14 C17 1_555 1_555
C18 N3 1_555 1_555
H15 C18 1_555 1_555
Cd1E N2 1_555 1_555
Cd1L O1 1_555 1_555
N2G Cd1 1_555 1_555
O1L Cd1 1_555 1_555
O4G Cd1 1_555 1_555
N2 C5 1_555 1_555
O4 Cd1E 1_555 1_555
C3 C4 1_555 1_555
C10 C11 1_555 1_555
C17 C18 1_555 1_555
Cd1L O1L 1_555 1_555

#END
