
#######################################################################
#
#                 Cambridge Crystallographic Data Centre
#                                CCDC 
#
#######################################################################
#
# If this CIF has been generated from an entry in the Cambridge 
# Structural Database, then it will include bibliographic, chemical, 
# crystal, experimental, refinement or atomic coordinate data resulting 
# from the CCDC's data processing and validation procedures.
#
#######################################################################

data_TELFIB
_symmetry_cell_setting           monoclinic
_symmetry_space_group_name_H-M   'P 21/c'
_symmetry_Int_Tables_number      14
_space_group_name_Hall           '-P 2ybc'
loop_
_symmetry_equiv_pos_site_id
_symmetry_equiv_pos_as_xyz
1 x,y,z
2 -x,1/2+y,1/2-z
3 -x,-y,-z
4 x,1/2-y,1/2+z
_cell_length_a                   17.901(4)
_cell_length_b                   6.2170(12)
_cell_length_c                   12.443(2)
_cell_angle_alpha                90
_cell_angle_beta                 107.566(2)
_cell_angle_gamma                90
_cell_volume                     1320.22
loop_
_atom_site_label
_atom_site_type_symbol
_atom_site_fract_x
_atom_site_fract_y
_atom_site_fract_z
Mg1 Mg 0.90845(3) 1.29554(9) 0.59852(4)
O1 O 0.91857(7) 1.27738(19) 0.43829(9)
O2 O 0.90784(7) 0.9713(2) 0.60494(9)
O3 O 0.89402(8) 1.2255(2) 0.25503(10)
O4 O 0.78134(8) 1.3265(2) 0.52467(11)
O5 O 0.89193(7) 0.62035(19) 0.59247(10)
N1 N 0.78647(8) 0.6594(2) 0.37571(12)
N2 N 0.79348(8) 0.9009(2) 0.24937(11)
H1 H 0.7852 0.9634 0.1852
C1 C 0.88878(9) 1.1732(3) 0.34943(13)
C2 C 0.88200(9) 0.8046(3) 0.54982(13)
C3 C 0.76162(10) 0.7126(3) 0.26714(14)
C4 C 0.84114(9) 0.9761(3) 0.35031(13)
C5 C 0.67879(11) 0.6676(3) 0.06774(15)
H2 H 0.6973 0.7994 0.0511
C6 C 0.83635(10) 0.8232(3) 0.42827(13)
C7 C 0.62383(12) 0.2784(3) 0.11613(17)
H3 H 0.6056 0.1463 0.1329
C8 C 0.70531(10) 0.5900(3) 0.17762(14)
C9 C 0.62535(10) 0.5537(3) -0.01805(15)
C10 C 0.59820(14) 0.6451(4) -0.13559(18)
H4 H 0.6225 0.7825 -0.1366
H5 H 0.5423 0.6623 -0.1586
H6 H 0.6125 0.5490 -0.1865
C11 C 0.67699(11) 0.3926(3) 0.20117(16)
H7 H 0.6937 0.3374 0.2740
C12 C 0.59702(11) 0.3562(3) 0.00656(16)
C13 C 0.53924(14) 0.2266(4) -0.08439(19)
H8 H 0.4895 0.2987 -0.1069
H9 H 0.5332 0.0865 -0.0557
H10 H 0.5584 0.2123 -0.1482
O6 O 1.02570(7) 1.3463(2) 0.66374(10)
H11 H 0.7729(10) 1.420(3) 0.4716(14)
H12 H 0.7581(10) 1.212(2) 0.5005(17)
H13 H 1.0411(10) 1.457(2) 0.6359(15)
H14 H 1.0447(10) 1.352(4) 0.7338(8)
Mg1C Mg 0.90845(3) 1.20446(9) 0.09852(4)
Mg1_2 Mg 0.90845(3) 0.29554(9) 0.59852(4)
O3C O 0.89402(8) 1.2745(2) 0.75503(10)
O5_2 O 0.89193(7) 1.62035(19) 0.59247(10)
loop_
_geom_bond_atom_site_label_1
_geom_bond_atom_site_label_2
_geom_bond_site_symmetry_1
_geom_bond_site_symmetry_2
Mg1 O1 1_555 1_555
O1 C1 1_555 1_555
O2 Mg1 1_555 1_555
O3 C1 1_555 1_555
O4 Mg1 1_555 1_555
O5 C2 1_555 1_555
N1 C3 1_555 1_555
N2 H1 1_555 1_555
C1 C4 1_555 1_555
C2 O2 1_555 1_555
C3 N2 1_555 1_555
C4 N2 1_555 1_555
C5 H2 1_555 1_555
C6 N1 1_555 1_555
C7 H3 1_555 1_555
C8 C3 1_555 1_555
C9 C5 1_555 1_555
C10 C9 1_555 1_555
H4 C10 1_555 1_555
H5 C10 1_555 1_555
H6 C10 1_555 1_555
C11 C7 1_555 1_555
H7 C11 1_555 1_555
C12 C7 1_555 1_555
C13 C12 1_555 1_555
H8 C13 1_555 1_555
H9 C13 1_555 1_555
H10 C13 1_555 1_555
O6 Mg1 1_555 1_555
H11 O4 1_555 1_555
H12 O4 1_555 1_555
H13 O6 1_555 1_555
H14 O6 1_555 1_555
Mg1C O3 1_555 1_555
Mg1_2 O5 1_555 1_555
O3C Mg1 1_555 1_555
O5_2 Mg1 1_555 1_555
C2 C6 1_555 1_555
C4 C6 1_555 1_555
C5 C8 1_555 1_555
C8 C11 1_555 1_555
C9 C12 1_555 1_555

#END
