
#######################################################################
#
#                 Cambridge Crystallographic Data Centre
#                                CCDC 
#
#######################################################################
#
# If this CIF has been generated from an entry in the Cambridge 
# Structural Database, then it will include bibliographic, chemical, 
# crystal, experimental, refinement or atomic coordinate data resulting 
# from the CCDC's data processing and validation procedures.
#
#######################################################################

data_TELMOO
_symmetry_cell_setting           monoclinic
_symmetry_space_group_name_H-M   'P 21'
_symmetry_Int_Tables_number      4
_space_group_name_Hall           'P 2yb'
loop_
_symmetry_equiv_pos_site_id
_symmetry_equiv_pos_as_xyz
1 x,y,z
2 -x,1/2+y,-z
_cell_length_a                   8.7050(5)
_cell_length_b                   6.6081(4)
_cell_length_c                   11.1731(7)
_cell_angle_alpha                90
_cell_angle_beta                 99.1048(10)
_cell_angle_gamma                90
_cell_volume                     634.618
loop_
_atom_site_label
_atom_site_type_symbol
_atom_site_fract_x
_atom_site_fract_y
_atom_site_fract_z
K1 K 0.58277(3) 0.61275(6) 0.11242(3)
O1 O 0.88203(12) 0.5884(2) 0.22474(10)
O2 O 1.41158(13) 0.5711(2) 0.28847(10)
O3 O 1.31240(15) 0.8608(2) 0.08729(13)
H1 H 1.289(3) 0.980(2) 0.107(2)
O4 O 1.32324(13) 0.4199(2) 0.00704(11)
O5 O 1.23140(15) 0.22924(19) 0.14627(11)
N1 N 1.14704(14) 0.5857(2) 0.25553(11)
C1 C 1.00324(17) 0.5880(3) 0.29678(13)
C2 C 1.00507(16) 0.5909(3) 0.42931(13)
C3 C 1.14838(16) 0.5915(3) 0.50925(13)
C4 C 1.29027(16) 0.5890(3) 0.46331(13)
C5 C 1.29122(17) 0.5816(3) 0.33096(13)
C6 C 0.86670(17) 0.5920(3) 0.47474(14)
H2 H 0.7706 0.5910 0.4208
C7 C 0.86757(17) 0.5944(3) 0.60120(13)
H3 H 0.7719 0.5953 0.6319
C8 C 1.00521(17) 0.5956(3) 0.68001(13)
H4 H 1.0040 0.5978 0.7649
C9 C 1.14940(17) 0.5935(3) 0.63635(13)
C10 C 1.29440(18) 0.5952(4) 0.71456(13)
H5 H 1.2969 0.5956 0.7999
C11 C 1.43186(18) 0.5964(4) 0.66791(14)
H6 H 1.5284 0.5998 0.7211
C12 C 1.42953(17) 0.5926(4) 0.54132(14)
H7 H 1.5247 0.5925 0.5097
C13 C 1.14422(17) 0.5692(2) 0.12267(13)
H8 H 1.0351 0.5274 0.0903
C14 C 1.1640(2) 0.7693(3) 0.06071(15)
H9 H 1.1399 0.7481 -0.0280
H10 H 1.0860 0.8654 0.0831
C15 C 1.24444(19) 0.3918(3) 0.09024(15)
K1_2 K 1.58277(3) 0.61275(6) 0.11242(3)
K1A K 1.41723(3) 1.11275(6) -0.11242(3)
K1A_2 K 1.41723(3) 0.11275(6) -0.11242(3)
O2_2 O 0.41158(13) 0.5711(2) 0.28847(10)
O3_2 O 0.31240(15) 0.8608(2) 0.08729(13)
O3A O 0.68760(15) 0.3608(2) -0.08729(13)
H1_2 H 0.289(3) 0.980(2) 0.107(2)
H1A H 0.711(3) 0.480(2) -0.107(2)
O4_2 O 0.32324(13) 0.4199(2) 0.00704(11)
O4A O 0.67676(13) 0.9199(2) -0.00704(11)
loop_
_geom_bond_atom_site_label_1
_geom_bond_atom_site_label_2
_geom_bond_site_symmetry_1
_geom_bond_site_symmetry_2
K1 O1 1_555 1_555
O1 C1 1_555 1_555
O2 C5 1_555 1_555
O3 H1 1_555 1_555
O4 C15 1_555 1_555
O5 C15 1_555 1_555
N1 C1 1_555 1_555
C1 C2 1_555 1_555
C2 C3 1_555 1_555
C3 C4 1_555 1_555
C4 C5 1_555 1_555
C5 N1 1_555 1_555
C6 C2 1_555 1_555
H2 C6 1_555 1_555
C7 C6 1_555 1_555
H3 C7 1_555 1_555
C8 C7 1_555 1_555
H4 C8 1_555 1_555
C9 C3 1_555 1_555
C10 C9 1_555 1_555
H5 C10 1_555 1_555
C11 C10 1_555 1_555
H6 C11 1_555 1_555
C12 C4 1_555 1_555
H7 C12 1_555 1_555
C13 N1 1_555 1_555
H8 C13 1_555 1_555
C14 O3 1_555 1_555
H9 C14 1_555 1_555
H10 C14 1_555 1_555
C15 C13 1_555 1_555
K1_2 O2 1_555 1_555
K1A O3 1_555 1_555
K1A_2 O4 1_555 1_555
O2_2 K1 1_555 1_555
O3_2 K1 1_555 1_555
O3A K1 1_555 1_555
H1_2 O3_2 1_555 1_555
H1A O3A 1_555 1_555
O4_2 K1 1_555 1_555
O4A K1 1_555 1_555
O3 K1_2 1_555 1_555
O4 K1_2 1_555 1_555
C8 C9 1_555 1_555
C11 C12 1_555 1_555
C13 C14 1_555 1_555

#END
