
#######################################################################
#
#                 Cambridge Crystallographic Data Centre
#                                CCDC 
#
#######################################################################
#
# If this CIF has been generated from an entry in the Cambridge 
# Structural Database, then it will include bibliographic, chemical, 
# crystal, experimental, refinement or atomic coordinate data resulting 
# from the CCDC's data processing and validation procedures.
#
#######################################################################

data_TENPEH01
_symmetry_cell_setting           orthorhombic
_symmetry_space_group_name_H-M   'P n a 21'
_symmetry_Int_Tables_number      33
_space_group_name_Hall           'P 2c -2n'
loop_
_symmetry_equiv_pos_site_id
_symmetry_equiv_pos_as_xyz
1 x,y,z
2 -x,-y,1/2+z
3 1/2-x,1/2+y,1/2+z
4 1/2+x,1/2-y,z
_cell_length_a                   16.018(4)
_cell_length_b                   9.687(3)
_cell_length_c                   18.107(6)
_cell_angle_alpha                90
_cell_angle_beta                 90
_cell_angle_gamma                90
_cell_volume                     2809.6
loop_
_atom_site_label
_atom_site_type_symbol
_atom_site_fract_x
_atom_site_fract_y
_atom_site_fract_z
Fe1 Fe 0.3988(1) -0.3576(1) -0.2925(1)
Fe2 Fe 0.1052(1) -0.1728(1) -0.2052(1)
O1 O 0.4573(2) -0.1630(4) -0.3182(3)
O2 O 0.5850(2) -0.1596(4) -0.2704(2)
C1 C 0.5280(4) -0.1162(5) -0.3101(3)
C2 C 0.5497(4) 0.0156(8) -0.3532(5)
O3 O 0.4895(2) -0.4623(5) -0.3523(2)
O4 O 0.6142(2) -0.4576(4) -0.2987(3)
C3 C 0.5638(3) -0.4964(5) -0.3461(3)
C4 C 0.5954(4) -0.5990(7) -0.4023(4)
O5 O 0.4721(2) -0.3831(4) -0.1920(2)
O6 O 0.5620(3) -0.5000(5) -0.1293(3)
C5 C 0.4884(4) -0.4762(7) -0.1455(3)
C6 C 0.4178(5) -0.5504(12) -0.1076(5)
O7 O 0.3035(2) -0.2644(4) -0.2332(2)
O8 O 0.2234(2) -0.1187(4) -0.1726(2)
C7 C 0.2939(3) -0.1721(5) -0.1866(3)
C8 C 0.3663(4) -0.1164(8) -0.1442(5)
N1 N 0.3210(2) -0.3315(4) -0.3935(2)
C9 C 0.3440(4) -0.3824(6) -0.4595(3)
C10 C 0.2965(4) -0.3739(7) -0.5216(3)
C11 C 0.2190(4) -0.3124(7) -0.5180(4)
C12 C 0.1932(4) -0.2586(8) -0.4523(4)
C13 C 0.2463(4) -0.2710(6) -0.3914(3)
N2 N 0.3335(3) -0.5604(4) -0.2750(3)
C14 C 0.3717(5) -0.6800(6) -0.2868(4)
C15 C 0.3371(6) -0.8057(8) -0.2735(5)
C16 C 0.2566(6) -0.8088(8) -0.2481(6)
C17 C 0.2169(5) -0.6895(9) -0.2333(7)
C18 C 0.2568(4) -0.5658(7) -0.2500(5)
N3 N 0.6060(3) -0.1839(6) -0.1068(3)
C19 C 0.6378(6) -0.2314(11) -0.0435(4)
C20 C 0.6485(8) -0.1467(15) 0.0173(5)
C21 C 0.6255(8) -0.0125(17) 0.0132(8)
C22 C 0.5928(8) 0.0357(15) -0.0501(9)
C23 C 0.5868(5) -0.0528(8) -0.1094(5)
H1 H 0.6060(4) 0.0424(8) -0.3424(5)
H2 H 0.5442(4) -0.0017(8) -0.4052(5)
H3 H 0.5123(4) 0.0884(8) -0.3391(5)
H4 H 0.5511(4) -0.6223(7) -0.4358(4)
H5 H 0.6409(4) -0.5592(7) -0.4293(4)
H6 H 0.6141(4) -0.6809(7) -0.3774(4)
H7 H 0.3655(5) -0.5174(12) -0.1267(5)
H8 H 0.4224(5) -0.6477(12) -0.1167(5)
H9 H 0.4203(5) -0.5333(12) -0.0555(5)
H10 H 0.3472(4) -0.0461(8) -0.1108(5)
H11 H 0.3920(4) -0.1896(8) -0.1166(5)
H12 H 0.4063(4) -0.0776(8) -0.1778(5)
H13 H 0.3956(4) -0.4260(6) -0.4629(3)
H14 H 0.3161(4) -0.4093(7) -0.5660(3)
H15 H 0.1850(4) -0.3077(7) -0.5595(4)
H16 H 0.1418(4) -0.2149(8) -0.4481(4)
H17 H 0.2283(4) -0.2347(6) -0.3466(3)
H18 H 0.4258(5) -0.6776(6) -0.3055(4)
H19 H 0.3670(6) -0.8867(8) -0.2813(5)
H20 H 0.2296(6) -0.8927(8) -0.2410(6)
H21 H 0.1638(5) -0.6897(9) -0.2125(7)
H22 H 0.2278(4) -0.4836(7) -0.2430(5)
H23 H 0.6531(6) -0.3237(11) -0.0403(4)
H24 H 0.6714(8) -0.1817(15) 0.0607(5)
H25 H 0.6322(8) 0.0456(17) 0.0536(8)
H26 H 0.5746(8) 0.1266(15) -0.0537(9)
H27 H 0.5680(5) -0.0170(8) -0.1541(5)
Fe2C Fe 0.6052(1) -0.3272(1) -0.2052(1)
O8C O 0.7234(2) -0.3813(4) -0.1726(2)
loop_
_geom_bond_atom_site_label_1
_geom_bond_atom_site_label_2
_geom_bond_site_symmetry_1
_geom_bond_site_symmetry_2
Fe1 O1 1_555 1_555
Fe2 O8 1_555 1_555
O1 C1 1_555 1_555
O2 C1 1_555 1_555
C1 C2 1_555 1_555
C2 H1 1_555 1_555
O3 Fe1 1_555 1_555
O4 C3 1_555 1_555
C3 O3 1_555 1_555
C4 C3 1_555 1_555
O5 Fe1 1_555 1_555
O6 C5 1_555 1_555
C5 O5 1_555 1_555
C6 C5 1_555 1_555
O7 Fe1 1_555 1_555
O8 C7 1_555 1_555
C7 O7 1_555 1_555
C8 C7 1_555 1_555
N1 Fe1 1_555 1_555
C9 N1 1_555 1_555
C10 C9 1_555 1_555
C11 C10 1_555 1_555
C12 C11 1_555 1_555
C13 N1 1_555 1_555
N2 Fe1 1_555 1_555
C14 N2 1_555 1_555
C15 C14 1_555 1_555
C16 C15 1_555 1_555
C17 C16 1_555 1_555
C18 N2 1_555 1_555
N3 C19 1_555 1_555
C19 C20 1_555 1_555
C20 C21 1_555 1_555
C21 C22 1_555 1_555
C22 C23 1_555 1_555
C23 N3 1_555 1_555
H2 C2 1_555 1_555
H3 C2 1_555 1_555
H4 C4 1_555 1_555
H5 C4 1_555 1_555
H6 C4 1_555 1_555
H7 C6 1_555 1_555
H8 C6 1_555 1_555
H9 C6 1_555 1_555
H10 C8 1_555 1_555
H11 C8 1_555 1_555
H12 C8 1_555 1_555
H13 C9 1_555 1_555
H14 C10 1_555 1_555
H15 C11 1_555 1_555
H16 C12 1_555 1_555
H17 C13 1_555 1_555
H18 C14 1_555 1_555
H19 C15 1_555 1_555
H20 C16 1_555 1_555
H21 C17 1_555 1_555
H22 C18 1_555 1_555
H23 C19 1_555 1_555
H24 C20 1_555 1_555
H25 C21 1_555 1_555
H26 C22 1_555 1_555
H27 C23 1_555 1_555
Fe2C O2 1_555 1_555
O8C Fe2C 1_555 1_555
O4 Fe2C 1_555 1_555
O5 Fe2C 1_555 1_555
O6 Fe2C 1_555 1_555
C12 C13 1_555 1_555
C17 C18 1_555 1_555
N3 Fe2C 1_555 1_555

#END
