
#######################################################################
#
#                 Cambridge Crystallographic Data Centre
#                                CCDC 
#
#######################################################################
#
# If this CIF has been generated from an entry in the Cambridge 
# Structural Database, then it will include bibliographic, chemical, 
# crystal, experimental, refinement or atomic coordinate data resulting 
# from the CCDC's data processing and validation procedures.
#
#######################################################################

data_TENVIR
_symmetry_cell_setting           monoclinic
_symmetry_space_group_name_H-M   'P 21'
_symmetry_Int_Tables_number      4
_space_group_name_Hall           'P 2yb'
loop_
_symmetry_equiv_pos_site_id
_symmetry_equiv_pos_as_xyz
1 x,y,z
2 -x,1/2+y,-z
_cell_length_a                   3.8297(9)
_cell_length_b                   16.550(14)
_cell_length_c                   11.971(8)
_cell_angle_alpha                90
_cell_angle_beta                 93.46(4)
_cell_angle_gamma                90
_cell_volume                     757.357
loop_
_atom_site_label
_atom_site_type_symbol
_atom_site_fract_x
_atom_site_fract_y
_atom_site_fract_z
V1 V 0.3468(1) 0.81574(9) 0.07479(4)
Na1 Na 0.3690(4) 0.8842(1) 0.3806(1)
O1 O 0.2578(6) 0.7562(2) -0.0624(2)
O2 O 0.2760(8) 0.9082(2) 0.1816(2)
O3 O 0.0781(9) 1.0325(2) 0.2063(3)
O4 O 0.3047(9) 0.7458(2) 0.1690(2)
O5 O -0.2316(5) 0.8270(2) 0.0649(2)
O6 O -0.1373(9) 0.7947(2) 0.3476(3)
O7 O -0.1581(9) 0.9786(2) 0.3957(3)
N1 N 0.2396(7) 0.9223(2) -0.0353(2)
N2 N 0.414(1) 0.8672(3) -0.4165(3)
C1 C 0.2470(9) 0.9252(2) -0.1465(3)
C2 C 0.180(1) 0.9992(3) -0.2022(4)
C3 C 0.099(2) 1.0667(3) -0.1437(4)
C4 C 0.093(1) 1.0629(3) -0.0288(4)
C5 C 0.1641(9) 0.9897(2) 0.0213(3)
C6 C 0.1711(9) 0.9776(2) 0.1453(3)
C7 C 0.321(1) 0.8517(2) -0.2067(3)
C8 C 0.377(1) 0.8598(3) -0.3233(3)
C9 C 0.3244(9) 0.7733(2) -0.1634(3)
C10 C 0.398(1) 0.7022(3) -0.2351(4)
C11 C -0.140(2) 0.7207(3) 0.4041(6)
C12 C -0.169(2) 1.0414(4) 0.4736(5)
H1 H 0.22(1) 1.001(4) -0.284(5)
H2 H 0.03(2) 1.112(4) -0.181(5)
H3 H 0.05(2) 1.101(3) 0.016(5)
H4 H -0.15(1) 0.794(3) 0.283(5)
H5 H -0.11(1) 0.996(4) 0.331(5)
H6 H 0.46(1) 0.709(4) -0.303(5)
H7 H 0.55(2) 0.682(4) -0.196(5)
H8 H 0.21(2) 0.662(3) -0.222(5)
H9 H -0.11(1) 0.727(4) 0.489(5)
H10 H -0.35(2) 0.693(4) 0.388(5)
H11 H 0.07(2) 0.688(4) 0.375(5)
H12 H -0.37(2) 1.078(3) 0.448(5)
H13 H -0.27(1) 1.019(4) 0.536(5)
H14 H 0.03(2) 1.063(4) 0.477(5)
O5_2 O 0.7684(5) 0.8270(2) 0.0649(2)
O6_2 O 0.8627(9) 0.7947(2) 0.3476(3)
O7_2 O 0.8419(9) 0.9786(2) 0.3957(3)
N2_2 N 0.414(1) 0.8672(3) 0.5835(3)
V1_2 V -0.6532(1) 0.81574(9) 0.07479(4)
Na1_2 Na -0.6310(4) 0.8842(1) 0.3806(1)
Na1_3 Na 0.3690(4) 0.8842(1) -0.6194(1)
H4_2 H 0.85(1) 0.794(3) 0.283(5)
H5_2 H 0.89(1) 0.996(4) 0.331(5)
Na1_4 Na 1.3690(4) 0.8842(1) 0.3806(1)
loop_
_geom_bond_atom_site_label_1
_geom_bond_atom_site_label_2
_geom_bond_site_symmetry_1
_geom_bond_site_symmetry_2
V1 O1 1_555 1_555
Na1 O2 1_555 1_555
O1 C9 1_555 1_555
O2 V1 1_555 1_555
O3 C6 1_555 1_555
O4 V1 1_555 1_555
O5 V1 1_555 1_555
O6 Na1 1_555 1_555
O7 Na1 1_555 1_555
N1 V1 1_555 1_555
N2 C8 1_555 1_555
C1 N1 1_555 1_555
C2 C1 1_555 1_555
C3 C2 1_555 1_555
C4 C3 1_555 1_555
C5 N1 1_555 1_555
C6 O2 1_555 1_555
C7 C1 1_555 1_555
C8 C7 1_555 1_555
C9 C7 1_555 1_555
C10 C9 1_555 1_555
C11 O6 1_555 1_555
C12 O7 1_555 1_555
H1 C2 1_555 1_555
H2 C3 1_555 1_555
H3 C4 1_555 1_555
H4 O6 1_555 1_555
H5 O7 1_555 1_555
H6 C10 1_555 1_555
H7 C10 1_555 1_555
H8 C10 1_555 1_555
H9 C11 1_555 1_555
H10 C11 1_555 1_555
H11 C11 1_555 1_555
H12 C12 1_555 1_555
H13 C12 1_555 1_555
H14 C12 1_555 1_555
O5_2 V1 1_555 1_555
O6_2 Na1 1_555 1_555
O7_2 Na1 1_555 1_555
N2_2 Na1 1_555 1_555
V1_2 O5 1_555 1_555
Na1_2 O6 1_555 1_555
Na1_3 N2 1_555 1_555
H4_2 O6_2 1_555 1_555
H5_2 O7_2 1_555 1_555
Na1_4 O6_2 1_555 1_555
O7 Na1_2 1_555 1_555
C4 C5 1_555 1_555
C5 C6 1_555 1_555
O7_2 Na1_4 1_555 1_555

#END
