
#######################################################################
#
#                 Cambridge Crystallographic Data Centre
#                                CCDC 
#
#######################################################################
#
# If this CIF has been generated from an entry in the Cambridge 
# Structural Database, then it will include bibliographic, chemical, 
# crystal, experimental, refinement or atomic coordinate data resulting 
# from the CCDC's data processing and validation procedures.
#
#######################################################################

data_TEPFUP
_symmetry_cell_setting           orthorhombic
_symmetry_space_group_name_H-M   'P c c n'
_symmetry_Int_Tables_number      56
_space_group_name_Hall           '-P 2ab 2ac'
loop_
_symmetry_equiv_pos_site_id
_symmetry_equiv_pos_as_xyz
1 x,y,z
2 1/2-x,1/2-y,z
3 1/2+x,-y,1/2-z
4 -x,1/2+y,1/2-z
5 -x,-y,-z
6 1/2+x,1/2+y,-z
7 1/2-x,y,1/2+z
8 x,1/2-y,1/2+z
_cell_length_a                   11.738(3)
_cell_length_b                   12.390(4)
_cell_length_c                   13.634(5)
_cell_angle_alpha                90
_cell_angle_beta                 90
_cell_angle_gamma                90
_cell_volume                     1982.84
loop_
_atom_site_label
_atom_site_type_symbol
_atom_site_fract_x
_atom_site_fract_y
_atom_site_fract_z
Cu1 Cu 0.2500 0.2500 0.53978(7)
N1 N 0.2500 0.2500 0.3913(5)
C1 C 0.2783(6) 0.1622(6) 0.3398(4)
C2 C 0.2787(6) 0.1633(6) 0.2391(5)
N2 N 0.2500 0.2500 0.1882(4)
N3 N 0.4078(5) 0.3144(5) 0.5417(4)
C3 C 0.4954(7) 0.3455(6) 0.5573(6)
C4 C 0.6094(8) 0.3863(9) 0.5740(9)
N4 N 0.3305(6) 0.0730(5) 0.5461(5)
C5 C 0.3608(7) -0.0091(7) 0.5673(5)
C6 C 0.4035(9) -0.1153(8) 0.5915(9)
H1 H 0.301(6) 0.103(6) 0.380(5)
H2 H 0.299(7) 0.111(6) 0.209(6)
H3 H 0.666 0.350 0.527
H4 H 0.614 0.460 0.602
H5 H 0.656 0.337 0.621
H6 H 0.339 -0.152 0.633
H7 H 0.463 -0.134 0.642
H8 H 0.359 -0.187 0.580
C2A C 0.2213(6) 0.3367(6) 0.2391(5)
C1A C 0.2217(6) 0.3378(6) 0.3398(4)
H1A H 0.199(6) 0.397(6) 0.380(5)
H2A H 0.201(7) 0.389(6) 0.209(6)
N3A N 0.0922(5) 0.1856(5) 0.5417(4)
C3A C 0.0046(7) 0.1545(6) 0.5573(6)
C4A C -0.1094(8) 0.1137(9) 0.5740(9)
H3A H -0.166 0.150 0.527
H4A H -0.114 0.040 0.602
H5A H -0.156 0.163 0.621
N4A N 0.1695(6) 0.4270(5) 0.5461(5)
C5A C 0.1392(7) 0.5091(7) 0.5673(5)
C6A C 0.0965(9) 0.6153(8) 0.5915(9)
H6A H 0.161 0.652 0.633
H7A H 0.037 0.634 0.642
H8A H 0.141 0.687 0.580
N2F N 0.2500 0.2500 0.6882(4)
Cu1F Cu 0.2500 0.2500 0.03978(7)
B1 B 0.575(1) 0.3831(8) 0.2562(8)
F1 F 0.641(1) 0.3905(9) 0.3305(7)
F2 F 0.502(1) 0.4630(8) 0.265(1)
F3 F 0.622(1) 0.4084(9) 0.1749(7)
F4 F 0.514(1) 0.2977(6) 0.2529(7)
loop_
_geom_bond_atom_site_label_1
_geom_bond_atom_site_label_2
_geom_bond_site_symmetry_1
_geom_bond_site_symmetry_2
Cu1 N1 1_555 1_555
N1 C1 1_555 1_555
C1 C2 1_555 1_555
C2 N2 1_555 1_555
N2 C2A 1_555 1_555
N3 Cu1 1_555 1_555
C3 N3 1_555 1_555
C4 C3 1_555 1_555
N4 Cu1 1_555 1_555
C5 N4 1_555 1_555
C6 C5 1_555 1_555
B1 F1 1_555 1_555
F2 B1 1_555 1_555
F3 B1 1_555 1_555
F4 B1 1_555 1_555
H1 C1 1_555 1_555
H2 C2 1_555 1_555
H3 C4 1_555 1_555
H4 C4 1_555 1_555
H5 C4 1_555 1_555
H6 C6 1_555 1_555
H7 C6 1_555 1_555
H8 C6 1_555 1_555
C2A C1A 1_555 1_555
C1A N1 1_555 1_555
H1A C1A 1_555 1_555
H2A C2A 1_555 1_555
N3A Cu1 1_555 1_555
C3A N3A 1_555 1_555
C4A C3A 1_555 1_555
H3A C4A 1_555 1_555
H4A C4A 1_555 1_555
H5A C4A 1_555 1_555
N4A Cu1 1_555 1_555
C5A N4A 1_555 1_555
C6A C5A 1_555 1_555
H6A C6A 1_555 1_555
H7A C6A 1_555 1_555
H8A C6A 1_555 1_555
N2F Cu1 1_555 1_555
Cu1F N2 1_555 1_555

#END
