
#######################################################################
#
#                 Cambridge Crystallographic Data Centre
#                                CCDC 
#
#######################################################################
#
# If this CIF has been generated from an entry in the Cambridge 
# Structural Database, then it will include bibliographic, chemical, 
# crystal, experimental, refinement or atomic coordinate data resulting 
# from the CCDC's data processing and validation procedures.
#
#######################################################################

data_TEPFOJ
_symmetry_cell_setting           monoclinic
_symmetry_space_group_name_H-M   'P 21/c'
_symmetry_Int_Tables_number      14
_space_group_name_Hall           '-P 2ybc'
loop_
_symmetry_equiv_pos_site_id
_symmetry_equiv_pos_as_xyz
1 x,y,z
2 -x,1/2+y,1/2-z
3 -x,-y,-z
4 x,1/2-y,1/2+z
_cell_length_a                   11.822(3)
_cell_length_b                   14.135(3)
_cell_length_c                   11.582(5)
_cell_angle_alpha                90
_cell_angle_beta                 121.09(2)
_cell_angle_gamma                90
_cell_volume                     1657.39
loop_
_atom_site_label
_atom_site_type_symbol
_atom_site_fract_x
_atom_site_fract_y
_atom_site_fract_z
Cu1 Cu 0.4375(2) 0.1156(2) 0.1331(2)
N1 N 0.608(2) 0.049(1) 0.221(1)
C1 C 0.715(2) 0.014(2) 0.264(2)
N2 N 0.823(2) -0.024(1) 0.299(2)
C2 C 0.884(2) -0.082(1) 0.402(2)
N3 N 0.833(1) -0.102(1) 0.483(1)
N4 N 0.991(2) -0.123(1) 0.429(1)
N5 N 0.281(2) 0.038(1) 0.051(2)
C3 C 0.192(2) -0.009(1) -0.013(2)
C4 C 0.077(2) -0.070(2) -0.098(2)
N6 N 0.430(2) 0.192(1) -0.026(1)
C5 C 0.319(2) 0.225(1) -0.129(2)
C6 C 0.319(2) 0.277(1) -0.231(2)
N7 N 0.429(2) 0.203(1) 0.273(1)
C7 C 0.542(2) 0.265(2) -0.124(2)
C8 C 0.543(2) 0.213(1) -0.019(2)
H1 H 0.23(2) 0.20(1) -0.16(2)
H2 H 0.23(2) 0.30(1) -0.32(2)
H3 H 0.64(2) 0.29(1) -0.08(2)
H4 H 0.64(2) 0.19(1) 0.07(2)
H7 H 0.752 -0.073 0.469
H8 H 0.885 -0.147 0.562
H9 H 1.032 -0.169 0.510
H10 H 1.031 -0.115 0.375
H11 H 0.103 -0.137 -0.080
H12 H 0.034 -0.053 -0.192
H13 H 0.009 -0.058 -0.065
N7C N 0.429(2) 0.297(1) -0.227(1)
Cu1C Cu 0.4375(2) 0.3844(2) -0.3669(2)
N8 N 0.398(3) 0.460(2) 0.010(3)
C9 C 0.523(4) 0.449(2) 0.103(2)
C10 C 0.375(3) 0.517(2) -0.093(3)
H5 H 0.58(2) 0.40(1) 0.19(2)
H6 H 0.27(2) 0.52(1) -0.17(2)
C10B C 0.625(3) 0.483(2) 0.093(3)
N8B N 0.602(3) 0.540(2) -0.010(3)
C9B C 0.477(4) 0.551(2) -0.103(2)
H5B H 0.42(2) 0.60(1) -0.19(2)
H6B H 0.73(2) 0.48(1) 0.17(2)
B1 B 0.897(3) 0.292(2) 0.289(3)
F1 F 0.829(1) 0.286(1) 0.153(1)
F2 F 0.921(2) 0.385(1) 0.304(2)
F3 F 0.827(2) 0.262(1) 0.336(1)
F4 F 1.012(2) 0.252(1) 0.334(2)
loop_
_geom_bond_atom_site_label_1
_geom_bond_atom_site_label_2
_geom_bond_site_symmetry_1
_geom_bond_site_symmetry_2
Cu1 N1 1_555 1_555
N1 C1 1_555 1_555
C1 N2 1_555 1_555
N2 C2 1_555 1_555
C2 N3 1_555 1_555
N3 H7 1_555 1_555
N4 C2 1_555 1_555
N5 Cu1 1_555 1_555
C3 N5 1_555 1_555
C4 C3 1_555 1_555
N6 Cu1 1_555 1_555
C5 N6 1_555 1_555
C6 C5 1_555 1_555
N7 Cu1 1_555 1_555
C7 C8 1_555 1_555
C8 N6 1_555 1_555
N8 C9 1_555 1_555
C9 H5 1_555 1_555
C10 N8 1_555 1_555
B1 F1 1_555 1_555
F2 B1 1_555 1_555
F3 B1 1_555 1_555
F4 B1 1_555 1_555
H1 C5 1_555 1_555
H2 C6 1_555 1_555
H3 C7 1_555 1_555
H4 C8 1_555 1_555
H6 C10 1_555 1_555
H8 N3 1_555 1_555
H9 N4 1_555 1_555
H10 N4 1_555 1_555
H11 C4 1_555 1_555
H12 C4 1_555 1_555
H13 C4 1_555 1_555
N7C C6 1_555 1_555
Cu1C N7C 1_555 1_555
C10B C9 1_555 1_555
N8B C10B 1_555 1_555
C9B C10 1_555 1_555
H5B C9B 1_555 1_555
H6B C10B 1_555 1_555
C7 N7C 1_555 1_555
N8B C9B 1_555 1_555

#END
