
#######################################################################
#
#                 Cambridge Crystallographic Data Centre
#                                CCDC 
#
#######################################################################
#
# If this CIF has been generated from an entry in the Cambridge 
# Structural Database, then it will include bibliographic, chemical, 
# crystal, experimental, refinement or atomic coordinate data resulting 
# from the CCDC's data processing and validation procedures.
#
#######################################################################

data_TEPJOP
_symmetry_cell_setting           monoclinic
_symmetry_space_group_name_H-M   'P 2/n'
_symmetry_Int_Tables_number      13
_space_group_name_Hall           '-P 2yac'
loop_
_symmetry_equiv_pos_site_id
_symmetry_equiv_pos_as_xyz
1 x,y,z
2 1/2-x,y,1/2-z
3 -x,-y,-z
4 1/2+x,-y,1/2+z
_cell_length_a                   23.662(4)
_cell_length_b                   6.0657(10)
_cell_length_c                   29.414(6)
_cell_angle_alpha                90
_cell_angle_beta                 102.034(7)
_cell_angle_gamma                90
_cell_volume                     4128.92
loop_
_atom_site_label
_atom_site_type_symbol
_atom_site_fract_x
_atom_site_fract_y
_atom_site_fract_z
La1 La -0.110528(8) 0.39328(3) -0.016888(7)
La2 La -0.173930(8) -0.48603(3) -0.520290(8)
O1 O -0.22730(11) -0.3441(4) -0.46550(10)
O2 O -0.15251(11) 0.7242(4) 0.02012(10)
O3 O -0.09284(11) -0.4351(4) -0.56467(11)
O4 O 0.09838(12) 0.6543(4) 0.46105(11)
O5 O -0.16188(12) 0.1947(4) 0.43278(10)
O6 O 0.04776(10) 0.7199(4) 0.07120(10)
O7 O -0.21895(11) -0.8259(4) -0.48773(10)
O8 O -0.14781(11) 0.0307(4) -0.05089(9)
O9 O -0.29003(12) -0.5261(4) -0.43273(10)
O10 O -0.16138(11) 0.2553(4) 0.04261(9)
C1 C -0.17842(15) 0.0086(5) 0.41695(14)
O11 O -0.09750(11) -0.2681(4) -0.06111(10)
O12 O -0.03391(12) 0.5483(5) 0.04183(10)
O13 O -0.16259(14) 0.0992(4) -0.26805(10)
O14 O -0.10680(11) -0.1732(4) -0.47896(11)
O15 O -0.20079(11) -0.1323(4) 0.43987(10)
O16 O -0.15527(14) -0.2167(4) 0.23557(10)
O17 O 0.01049(11) 0.7976(4) 0.44921(10)
C2 C -0.0207(2) 0.6193(9) 0.30849(18)
H1 H -0.0504 0.6815 0.2865
C3 C -0.12797(15) -0.1018(5) -0.07721(13)
O19 O -0.22622(11) 0.4629(4) 0.06803(9)
C4 C -0.17958(14) 0.1761(5) 0.11713(13)
C5 C 0.00364(15) 0.6133(5) 0.07605(13)
C6 C -0.00407(15) 0.5598(6) 0.12402(14)
O20 O -0.04417(13) 0.0767(5) 0.02777(12)
C7 C -0.16974(17) 0.1271(6) -0.14654(14)
H2 H -0.1842 0.2231 -0.1271
C8 C -0.24905(15) -0.3898(5) -0.43085(14)
O21 O -0.00807(16) 0.3307(5) 0.25561(11)
C9 C -0.19284(18) 0.1240(6) 0.19576(15)
H3 H -0.2073 0.1738 0.221
C10 C -0.22483(15) -0.2733(6) -0.38647(13)
C11 C -0.00804(18) 0.4266(7) 0.21336(15)
C12 C 0.02473(16) 0.6791(6) 0.16223(15)
H4 H 0.0456 0.8039 0.1576
C13 C -0.18171(17) -0.0389(6) -0.30520(14)
C14 C -0.15726(18) 0.0295(6) -0.22232(14)
C15 C -0.17821(17) 0.1720(6) -0.19335(15)
H5 H -0.1981 0.2984 -0.2054
C16 C -0.03647(16) 0.3767(6) 0.13168(15)
H6 H -0.0575 0.299 0.1065
C17 C -0.19280(17) -0.0797(6) -0.38737(14)
H7 H -0.1853 -0.0297 -0.4154
C18 C 0.03798(16) 0.6172(6) 0.38614(15)
C19 C 0.0097(2) 0.4417(7) 0.29722(16)
C20 C 0.04956(15) 0.6941(6) 0.43508(14)
C21 C -0.18963(14) 0.3063(5) 0.07334(13)
C22 C -0.14912(16) -0.0237(5) 0.12033(14)
H8 H -0.1341 -0.0727 0.0953
C23 C -0.23318(16) -0.3481(6) -0.34407(14)
H9 H -0.254 -0.4774 -0.3429
C24 C -0.14294(17) 0.0950(6) 0.34433(15)
H10 H -0.1275 0.2258 0.3581
C25 C -0.20089(16) 0.2464(6) 0.15481(14)
H11 H -0.2211 0.3786 0.1529
C26 C -0.13977(15) -0.0601(5) -0.12806(13)
C27 C 0.0695(2) 0.4435(8) 0.37276(17)
H12 H 0.1009 0.3859 0.3938
C28 C -0.16265(17) -0.0748(6) 0.19808(14)
C29 C -0.19453(17) -0.2417(6) 0.34778(15)
H13 H -0.2137 -0.3388 0.3638
C30 C -0.18925(18) -0.2922(6) 0.30328(15)
H14 H -0.2044 -0.4235 0.2896
C31 C -0.17155(16) -0.0470(5) 0.36917(14)
C32 C -0.17231(18) 0.0372(6) -0.34734(15)
H15 H -0.1521 0.1678 -0.3486
C33 C -0.13714(19) 0.0456(6) 0.29995(16)
H16 H -0.1172 0.1404 0.284
C34 C -0.03762(18) 0.3104(7) 0.17584(15)
H17 H -0.0586 0.1858 0.1805
C35 C -0.11970(16) -0.2027(6) -0.15797(14)
H18 H -0.1 -0.3298 -0.1462
C36 C -0.12847(17) -0.1591(6) -0.20507(15)
H19 H -0.115 -0.2564 -0.2248
C37 C -0.14133(17) -0.1476(6) 0.16050(14)
H20 H -0.1216 -0.2809 0.1623
C38 C -0.21134(17) -0.2353(6) -0.30315(15)
H21 H -0.2164 -0.2903 -0.2748
C39 C 0.02287(18) 0.6155(7) 0.20706(16)
H22 H 0.0419 0.6971 0.2325
C40 C -0.00649(19) 0.7034(8) 0.35265(16)
H23 H -0.0274 0.8224 0.3604
C41 C -0.16154(17) -0.1481(6) 0.27899(14)
C42 C 0.0548(2) 0.3570(8) 0.32889(17)
H24 H 0.0757 0.2393 0.3206
La1B La 0.110528(8) 0.60672(3) 0.016888(7)
La1A La -0.389472(8) -0.60672(3) -0.483112(7)
La1_2 La -0.110528(8) -0.60672(3) -0.016888(7)
La2B La 0.173930(8) 0.48603(3) 0.520290(8)
La2_2 La -0.173930(8) 0.51397(3) 0.479710(8)
La2_3 La -0.173930(8) -0.48603(3) 0.479710(8)
La2A La -0.326070(8) 0.51397(3) 0.020290(8)
O4B O -0.09838(12) -0.6543(4) -0.46105(11)
O5_2 O -0.16188(12) -0.8053(4) -0.56722(10)
O6B O -0.04776(10) 0.2801(4) -0.07120(10)
O9A O -0.20997(12) 0.4739(4) -0.06727(10)
O11_2 O -0.09750(11) 0.7319(4) -0.06111(10)
O15_2 O -0.20079(11) -0.1323(4) -0.56013(10)
O19A O -0.27378(11) -0.5371(4) -0.56803(9)
O18 O -0.01407(12) 0.2336(4) 0.45656(11)
loop_
_geom_bond_atom_site_label_1
_geom_bond_atom_site_label_2
_geom_bond_site_symmetry_1
_geom_bond_site_symmetry_2
La1 O2 1_555 1_555
La2 O1 1_555 1_555
O1 C8 1_555 1_555
O3 La2 1_555 1_555
O4 C20 1_555 1_555
O5 C1 1_555 1_555
O6 C5 1_555 1_555
O7 La2 1_555 1_555
O8 La1 1_555 1_555
O9 C8 1_555 1_555
O10 La1 1_555 1_555
C1 O15 1_555 1_555
O11 C3 1_555 1_555
O12 La1 1_555 1_555
O13 C13 1_555 1_555
O14 La2 1_555 1_555
O15 La2_3 1_555 1_555
O16 C28 1_555 1_555
O17 C20 1_555 1_555
C2 H1 1_555 1_555
C3 O8 1_555 1_555
O19 C21 1_555 1_555
C4 C21 1_555 1_555
C5 O12 1_555 1_555
C6 C5 1_555 1_555
O20 La1 1_555 1_555
C7 H2 1_555 1_555
C8 C10 1_555 1_555
O21 C11 1_555 1_555
C9 H3 1_555 1_555
C10 C17 1_555 1_555
C11 C34 1_555 1_555
C12 C6 1_555 1_555
H4 C12 1_555 1_555
C13 C32 1_555 1_555
C14 O13 1_555 1_555
C15 C7 1_555 1_555
H5 C15 1_555 1_555
C16 C6 1_555 1_555
H6 C16 1_555 1_555
C17 H7 1_555 1_555
C18 C20 1_555 1_555
C19 C2 1_555 1_555
C21 O10 1_555 1_555
C22 C4 1_555 1_555
H8 C22 1_555 1_555
C23 C10 1_555 1_555
H9 C23 1_555 1_555
C24 H10 1_555 1_555
C25 C4 1_555 1_555
H11 C25 1_555 1_555
C26 C3 1_555 1_555
C27 C18 1_555 1_555
H12 C27 1_555 1_555
C28 C9 1_555 1_555
C29 H13 1_555 1_555
C30 C29 1_555 1_555
H14 C30 1_555 1_555
C31 C1 1_555 1_555
C32 C17 1_555 1_555
H15 C32 1_555 1_555
C33 C24 1_555 1_555
H16 C33 1_555 1_555
C34 C16 1_555 1_555
H17 C34 1_555 1_555
C35 C26 1_555 1_555
H18 C35 1_555 1_555
C36 C14 1_555 1_555
H19 C36 1_555 1_555
C37 C22 1_555 1_555
H20 C37 1_555 1_555
C38 C13 1_555 1_555
H21 C38 1_555 1_555
C39 C11 1_555 1_555
H22 C39 1_555 1_555
C40 C2 1_555 1_555
H23 C40 1_555 1_555
C41 O16 1_555 1_555
C42 C19 1_555 1_555
H24 C42 1_555 1_555
La1B O6 1_555 1_555
La1A O9 1_555 1_555
La1_2 O11 1_555 1_555
La2B O4 1_555 1_555
La2_2 O5 1_555 1_555
La2A O19 1_555 1_555
O4B La2 1_555 1_555
O5_2 La2 1_555 1_555
O6B La1 1_555 1_555
O9A La1 1_555 1_555
O11_2 La1 1_555 1_555
O15_2 La2 1_555 1_555
O19A La2 1_555 1_555
C7 C26 1_555 1_555
O21 C19 1_555 1_555
C9 C25 1_555 1_555
C12 C39 1_555 1_555
C14 C15 1_555 1_555
C18 C40 1_555 1_555
C23 C38 1_555 1_555
C24 C31 1_555 1_555
C27 C42 1_555 1_555
C28 C37 1_555 1_555
C29 C31 1_555 1_555
C30 C41 1_555 1_555
C33 C41 1_555 1_555
C35 C36 1_555 1_555

#END
