
#######################################################################
#
#                 Cambridge Crystallographic Data Centre
#                                CCDC 
#
#######################################################################
#
# If this CIF has been generated from an entry in the Cambridge 
# Structural Database, then it will include bibliographic, chemical, 
# crystal, experimental, refinement or atomic coordinate data resulting 
# from the CCDC's data processing and validation procedures.
#
#######################################################################

data_TEPJEF
_symmetry_cell_setting           monoclinic
_symmetry_space_group_name_H-M   'C 2/c'
_symmetry_Int_Tables_number      15
_space_group_name_Hall           '-C 2yn'
loop_
_symmetry_equiv_pos_site_id
_symmetry_equiv_pos_as_xyz
1 x,y,z
2 -x,y,1/2-z
3 1/2+x,1/2+y,z
4 1/2-x,1/2+y,1/2-z
5 -x,-y,-z
6 x,-y,1/2+z
7 1/2-x,1/2-y,-z
8 1/2+x,1/2-y,1/2+z
_cell_length_a                   59.6523(11)
_cell_length_b                   8.20640(10)
_cell_length_c                   16.9558(2)
_cell_angle_alpha                90
_cell_angle_beta                 95.4470(10)
_cell_angle_gamma                90
_cell_volume                     8262.9
loop_
_atom_site_label
_atom_site_type_symbol
_atom_site_fract_x
_atom_site_fract_y
_atom_site_fract_z
Gd1 Gd 0.500395(4) 1.19377(3) 1.116673(12)
Gd2 Gd 0.739534(4) 0.97514(3) 1.094100(12)
O1 O 0.50000 1.0530(5) 1.25000
O2 O 0.72495(5) 0.7646(4) 1.16891(18)
O3 O 0.52835(5) 1.3021(4) 1.20235(18)
O4 O 0.73330(5) 1.2742(4) 1.39615(17)
O5 O 0.71665(5) 1.1584(4) 1.49372(18)
O6 O 0.49984(6) 1.4956(4) 1.1045(2)
O7 O 0.53377(5) 1.2741(4) 1.33364(18)
O8 O 0.75793(6) 1.0013(4) 0.96949(19)
O9 O 0.71913(5) 1.2080(4) 1.03019(18)
O10 O 0.70166(5) 1.0717(4) 1.11629(18)
O11 O 0.61811(6) 1.3051(5) 0.8840(2)
O12 O 0.52889(6) 0.9829(4) 1.11936(19)
O13 O 0.76752(6) 1.1819(4) 1.10694(18)
O14 O 0.52164(6) 1.2432(4) 1.00881(19)
O15 O 0.63402(6) 1.2407(6) 1.2308(2)
O16 O 0.53392(6) 0.8612(4) 1.23654(19)
O17 O 0.71169(5) 0.8577(4) 1.27861(19)
O18 O 0.47450(6) 1.2884(5) 1.00123(19)
O19 O 0.74533(6) 1.0596(5) 1.23263(19)
O20 O 0.52062(6) 1.0313(4) 0.9275(2)
C1 C 0.61192(8) 1.2485(6) 1.2486(3)
C2 C 0.53995(8) 0.8942(6) 1.1694(3)
C3 C 0.54110(8) 1.2852(5) 1.2667(3)
C4 C 0.57393(8) 1.2308(6) 1.1899(3)
H1 H 0.5638 1.2127 1.1455
C5 C 0.71586(7) 1.2217(5) 1.4258(3)
C6 C 0.56171(7) 0.8223(6) 1.1471(3)
C7 C 0.69375(7) 1.2354(6) 1.3779(2)
O21 O 0.62132(6) 0.6291(5) 1.0808(2)
C8 C 0.60451(8) 1.2977(6) 1.3196(3)
H2 H 0.6147 1.3242 1.3626
C9 C 0.55379(7) 1.1928(5) 0.9415(2)
C10 C 0.70072(8) 1.1642(5) 1.0581(3)
C11 C 0.59681(8) 1.2134(6) 1.1843(3)
H3 H 0.602 1.1781 1.1372
C12 C 0.65887(8) 1.1532(6) 1.0433(3)
H4 H 0.6595 1.0918 1.0896
C13 C 0.65273(8) 1.2429(7) 1.2853(3)
C14 C 0.68178(8) 0.6517(6) 1.1118(3)
H5 H 0.694 0.6134 1.0868
C15 C 0.53034(8) 1.1518(6) 0.9602(3)
C16 C 0.56460(8) 1.0933(6) 0.8910(3)
H6 H 0.5572 1.0026 0.8683
C17 C 0.56588(7) 1.2750(5) 1.2612(2)
C18 C 0.70860(8) 0.7912(5) 1.2117(3)
C19 C 0.60182(8) 0.6969(6) 1.1063(3)
C20 C 0.63827(8) 1.1846(6) 1.0015(3)
H7 H 0.6251 1.1454 1.0196
C21 C 0.66007(8) 0.6140(6) 1.0812(3)
H8 H 0.6577 0.5494 1.0361
C22 C 0.66717(8) 0.8041(6) 1.2147(3)
H9 H 0.6695 0.8685 1.2599
C23 C 0.57314(9) 0.7072(6) 1.1946(3)
H10 H 0.5672 0.6717 1.2404
C24 C 0.58702(9) 1.3608(7) 0.9602(3)
H11 H 0.5947 1.4493 0.984
C25 C 0.68548(8) 0.7459(6) 1.1793(3)
C26 C 0.59086(9) 0.8136(6) 1.0579(3)
H12 H 0.5969 0.8499 1.0126
C27 C 0.64208(8) 0.6722(6) 1.1176(3)
C28 C 0.56518(9) 1.3260(6) 0.9765(3)
H13 H 0.5581 1.3922 1.0111
C29 C 0.59713(8) 1.2615(7) 0.9081(3)
C30 C 0.67147(8) 1.3177(7) 1.2590(3)
H14 H 0.6703 1.3715 1.2105
C31 C 0.58646(8) 1.1282(6) 0.8740(3)
H15 H 0.5937 1.0616 0.84
C32 C 0.63751(8) 1.2746(6) 0.9325(3)
C33 C 0.65687(8) 1.3380(6) 0.9063(3)
H16 H 0.6561 1.4013 0.8607
C34 C 0.57062(8) 0.8750(6) 1.0787(3)
H17 H 0.5629 0.9523 1.0465
C35 C 0.69187(8) 1.3122(6) 1.3052(3)
H18 H 0.7045 1.3609 1.2869
C36 C 0.58135(8) 1.3067(6) 1.3253(3)
H19 H 0.5762 1.3347 1.3736
C37 C 0.67476(8) 1.1632(6) 1.4043(3)
H20 H 0.6758 1.1128 1.4536
C38 C 0.65419(8) 1.1648(7) 1.3582(3)
H21 H 0.6416 1.1144 1.3759
C39 C 0.64538(9) 0.7686(7) 1.1845(3)
H22 H 0.6332 0.8088 1.2088
C40 C 0.67865(8) 1.2132(6) 1.0165(3)
C41 C 0.67741(8) 1.3073(6) 0.9481(3)
H23 H 0.6905 1.3497 0.9304
C42 C 0.59328(9) 0.6444(7) 1.1744(3)
H24 H 0.601 0.5672 1.2066
Gd1A Gd 0.499605(4) 1.19377(3) 1.383327(12)
Gd1D Gd 0.499605(4) 0.80623(3) 0.883327(12)
Gd2D Gd 0.260466(4) 1.02486(3) 0.905900(12)
Gd2C Gd 0.760466(4) 1.47514(3) 1.405900(12)
Gd2E Gd 0.739534(4) 1.02486(3) 1.594100(12)
Gd2B Gd 0.239534(4) 1.47514(3) 1.094100(12)
Gd2A Gd 0.260466(4) 0.97514(3) 1.405900(12)
O2A O 0.27505(5) 0.7646(4) 1.33109(18)
O2C O 0.77505(5) 1.2646(4) 1.33109(18)
O3A O 0.47165(5) 1.3021(4) 1.29765(18)
O4A O 0.26670(5) 1.2742(4) 1.10385(17)
O4C O 0.76670(5) 0.7742(4) 1.10385(17)
O5A O 0.28335(5) 1.1584(4) 1.00628(18)
O5E O 0.71665(5) 0.8416(4) 0.99372(18)
O5F O 0.78335(5) 1.3416(4) 1.50628(18)
O6A O 0.50016(6) 1.4956(4) 1.3955(2)
O7A O 0.46623(5) 1.2741(4) 1.16636(18)
O8C O 0.74207(6) 1.5013(4) 1.53051(19)
O9D O 0.28087(5) 0.7920(4) 0.96981(18)
O9C O 0.78087(5) 1.7080(4) 1.46981(18)
O10D O 0.29834(5) 0.9283(4) 0.88371(18)
O10C O 0.79834(5) 1.5717(4) 1.38371(18)
O11D O 0.38189(6) 0.6949(5) 1.1160(2)
O12A O 0.47111(6) 0.9829(4) 1.38064(19)
O13C O 0.73248(6) 1.6819(4) 1.39306(18)
O14D O 0.47836(6) 0.7568(4) 0.99119(19)
O14A O 0.47836(6) 1.2432(4) 1.49119(19)
O15A O 0.36598(6) 1.2407(6) 1.2692(2)
O16A O 0.46608(6) 0.8612(4) 1.26346(19)
O17A O 0.28831(5) 0.8577(4) 1.22139(19)
O18A O 0.52550(6) 1.2884(5) 1.49877(19)
O19C O 0.75467(6) 1.5596(5) 1.26737(19)
O20D O 0.47938(6) 0.9687(4) 1.0725(2)
O20E O 0.52062(6) 0.9687(4) 1.4275(2)
C1A C 0.38808(8) 1.2485(6) 1.2514(3)
C2A C 0.46005(8) 0.8942(6) 1.3306(3)
C3A C 0.45890(8) 1.2852(5) 1.2333(3)
C4A C 0.42607(8) 1.2308(6) 1.3101(3)
H1A H 0.4362 1.2127 1.3545
C5A C 0.28414(7) 1.2217(5) 1.0742(3)
C6A C 0.43829(7) 0.8223(6) 1.3529(3)
C7A C 0.30625(7) 1.2354(6) 1.1221(2)
O21A O 0.37868(6) 0.6291(5) 1.4192(2)
C8A C 0.39549(8) 1.2977(6) 1.1804(3)
H2A H 0.3853 1.3242 1.1374
C9D C 0.44621(7) 0.8072(5) 1.0585(2)
C10D C 0.29928(8) 0.8358(5) 0.9419(3)
C11A C 0.40319(8) 1.2134(6) 1.3157(3)
H3A H 0.398 1.1781 1.3628
C12D C 0.34113(8) 0.8468(6) 0.9567(3)
H4D H 0.3405 0.9082 0.9104
C13A C 0.34727(8) 1.2429(7) 1.2147(3)
C14A C 0.31822(8) 0.6517(6) 1.3882(3)
H5A H 0.306 0.6134 1.4132
C15D C 0.46966(8) 0.8482(6) 1.0398(3)
C16D C 0.43540(8) 0.9067(6) 1.1090(3)
H6D H 0.4428 0.9974 1.1317
C17A C 0.43412(7) 1.2750(5) 1.2388(2)
C18A C 0.29140(8) 0.7912(5) 1.2883(3)
C19A C 0.39818(8) 0.6969(6) 1.3937(3)
C20D C 0.36173(8) 0.8154(6) 0.9985(3)
H7D H 0.3749 0.8546 0.9804
C21A C 0.33993(8) 0.6140(6) 1.4188(3)
H8A H 0.3423 0.5494 1.4639
C22A C 0.33283(8) 0.8041(6) 1.2853(3)
H9A H 0.3305 0.8685 1.2401
C23A C 0.42686(9) 0.7072(6) 1.3054(3)
H10A H 0.4328 0.6717 1.2596
C24D C 0.41298(9) 0.6392(7) 1.0398(3)
H11D H 0.4053 0.5507 1.016
C25A C 0.31452(8) 0.7459(6) 1.3207(3)
C26A C 0.40914(9) 0.8136(6) 1.4421(3)
H12A H 0.4031 0.8499 1.4874
C27A C 0.35792(8) 0.6722(6) 1.3824(3)
C28D C 0.43482(9) 0.6740(6) 1.0235(3)
H13D H 0.4419 0.6078 0.9889
C29D C 0.40287(8) 0.7385(7) 1.0919(3)
C30A C 0.32853(8) 1.3177(7) 1.2410(3)
H14A H 0.3297 1.3715 1.2895
C31D C 0.41354(8) 0.8718(6) 1.1260(3)
H15D H 0.4063 0.9384 1.16
C32D C 0.36249(8) 0.7254(6) 1.0675(3)
C33D C 0.34313(8) 0.6620(6) 1.0937(3)
H16D H 0.3439 0.5987 1.1393
C34A C 0.42938(8) 0.8750(6) 1.4213(3)
H17A H 0.4371 0.9523 1.4535
C35A C 0.30813(8) 1.3122(6) 1.1948(3)
H18A H 0.2955 1.3609 1.2131
C36A C 0.41865(8) 1.3067(6) 1.1747(3)
H19A H 0.4238 1.3347 1.1264
C37A C 0.32524(8) 1.1632(6) 1.0957(3)
H20A H 0.3242 1.1128 1.0464
C38A C 0.34581(8) 1.1648(7) 1.1418(3)
H21A H 0.3584 1.1144 1.1241
C39A C 0.35462(9) 0.7686(7) 1.3155(3)
H22A H 0.3668 0.8088 1.2912
C40D C 0.32135(8) 0.7868(6) 0.9835(3)
C41D C 0.32259(8) 0.6927(6) 1.0519(3)
H23D H 0.3095 0.6503 1.0696
C42A C 0.40672(9) 0.6444(7) 1.3256(3)
H24A H 0.399 0.5672 1.2934
O22 O 0.50000 0.6390(6) 0.25000
loop_
_geom_bond_atom_site_label_1
_geom_bond_atom_site_label_2
_geom_bond_site_symmetry_1
_geom_bond_site_symmetry_2
Gd1 O1 1_555 1_555
Gd2 O2 1_555 1_555
O1 Gd1A 1_555 1_555
O2 C18 1_555 1_555
O3 Gd1 1_555 1_555
O4 C5 1_555 1_555
O5 C5 1_555 1_555
O6 Gd1 1_555 1_555
O7 C3 1_555 1_555
O8 Gd2 1_555 1_555
O9 Gd2 1_555 1_555
O10 Gd2 1_555 1_555
O11 C29 1_555 1_555
O12 Gd1 1_555 1_555
O13 Gd2 1_555 1_555
O14 Gd1 1_555 1_555
O15 C1 1_555 1_555
O16 C2 1_555 1_555
O17 C18 1_555 1_555
O18 Gd1 1_555 1_555
O19 Gd2 1_555 1_555
O20 C15 1_555 1_555
C1 C8 1_555 1_555
C2 O12 1_555 1_555
C3 O3 1_555 1_555
C4 H1 1_555 1_555
C5 C7 1_555 1_555
C6 C2 1_555 1_555
C7 C35 1_555 1_555
O21 C19 1_555 1_555
C8 H2 1_555 1_555
C9 C15 1_555 1_555
C10 O9 1_555 1_555
C11 C1 1_555 1_555
H3 C11 1_555 1_555
C12 H4 1_555 1_555
C13 O15 1_555 1_555
C14 H5 1_555 1_555
C15 O14 1_555 1_555
C16 C9 1_555 1_555
H6 C16 1_555 1_555
C17 C3 1_555 1_555
C18 C25 1_555 1_555
C19 C26 1_555 1_555
C20 C12 1_555 1_555
H7 C20 1_555 1_555
C21 C14 1_555 1_555
H8 C21 1_555 1_555
C22 H9 1_555 1_555
C23 C6 1_555 1_555
H10 C23 1_555 1_555
C24 H11 1_555 1_555
C25 C14 1_555 1_555
C26 H12 1_555 1_555
C27 O21 1_555 1_555
C28 C9 1_555 1_555
H13 C28 1_555 1_555
C29 C24 1_555 1_555
C30 C13 1_555 1_555
H14 C30 1_555 1_555
C31 C16 1_555 1_555
H15 C31 1_555 1_555
C32 O11 1_555 1_555
C33 C32 1_555 1_555
H16 C33 1_555 1_555
C34 C6 1_555 1_555
H17 C34 1_555 1_555
C35 C30 1_555 1_555
H18 C35 1_555 1_555
C36 C8 1_555 1_555
H19 C36 1_555 1_555
C37 C7 1_555 1_555
H20 C37 1_555 1_555
C38 C13 1_555 1_555
H21 C38 1_555 1_555
C39 C22 1_555 1_555
H22 C39 1_555 1_555
C40 C10 1_555 1_555
C41 C33 1_555 1_555
H23 C41 1_555 1_555
C42 C19 1_555 1_555
H24 C42 1_555 1_555
Gd1A O7 1_555 1_555
Gd1D O20 1_555 1_555
Gd2D O5A 1_555 1_555
Gd2C O4 1_555 1_555
Gd2E O5 1_555 1_555
Gd2B O4A 1_555 1_555
Gd2A O2A 1_555 1_555
O2A C18A 1_555 1_555
O2C Gd2C 1_555 1_555
O3A Gd1A 1_555 1_555
O4A C5A 1_555 1_555
O4C Gd2 1_555 1_555
O5A C5A 1_555 1_555
O5E Gd2 1_555 1_555
O5F Gd2C 1_555 1_555
O6A Gd1A 1_555 1_555
O7A Gd1 1_555 1_555
O8C Gd2C 1_555 1_555
O9D Gd2D 1_555 1_555
O9C Gd2C 1_555 1_555
O10D Gd2D 1_555 1_555
O10C Gd2C 1_555 1_555
O11D C29D 1_555 1_555
O12A Gd1A 1_555 1_555
O13C Gd2C 1_555 1_555
O14D Gd1D 1_555 1_555
O14A Gd1A 1_555 1_555
O15A C1A 1_555 1_555
O16A C2A 1_555 1_555
O17A C18A 1_555 1_555
O18A Gd1A 1_555 1_555
O19C Gd2C 1_555 1_555
O20D Gd1 1_555 1_555
O20E Gd1A 1_555 1_555
C1A C8A 1_555 1_555
C2A O12A 1_555 1_555
C3A O3A 1_555 1_555
C4A H1A 1_555 1_555
C5A C7A 1_555 1_555
C6A C2A 1_555 1_555
C7A C35A 1_555 1_555
O21A C19A 1_555 1_555
C8A H2A 1_555 1_555
C9D C15D 1_555 1_555
C10D O9D 1_555 1_555
C11A C1A 1_555 1_555
H3A C11A 1_555 1_555
C12D H4D 1_555 1_555
C13A O15A 1_555 1_555
C14A H5A 1_555 1_555
C15D O14D 1_555 1_555
C16D C9D 1_555 1_555
H6D C16D 1_555 1_555
C17A C3A 1_555 1_555
C18A C25A 1_555 1_555
C19A C26A 1_555 1_555
C20D C12D 1_555 1_555
H7D C20D 1_555 1_555
C21A C14A 1_555 1_555
H8A C21A 1_555 1_555
C22A H9A 1_555 1_555
C23A C6A 1_555 1_555
H10A C23A 1_555 1_555
C24D H11D 1_555 1_555
C25A C14A 1_555 1_555
C26A H12A 1_555 1_555
C27A O21A 1_555 1_555
C28D C9D 1_555 1_555
H13D C28D 1_555 1_555
C29D C24D 1_555 1_555
C30A C13A 1_555 1_555
H14A C30A 1_555 1_555
C31D C16D 1_555 1_555
H15D C31D 1_555 1_555
C32D O11D 1_555 1_555
C33D C32D 1_555 1_555
H16D C33D 1_555 1_555
C34A C6A 1_555 1_555
H17A C34A 1_555 1_555
C35A C30A 1_555 1_555
H18A C35A 1_555 1_555
C36A C8A 1_555 1_555
H19A C36A 1_555 1_555
C37A C7A 1_555 1_555
H20A C37A 1_555 1_555
C38A C13A 1_555 1_555
H21A C38A 1_555 1_555
C39A C22A 1_555 1_555
H22A C39A 1_555 1_555
C40D C10D 1_555 1_555
C41D C33D 1_555 1_555
H23D C41D 1_555 1_555
C42A C19A 1_555 1_555
H24A C42A 1_555 1_555
O10 C10 1_555 1_555
C4 C11 1_555 1_555
C4 C17 1_555 1_555
C12 C40 1_555 1_555
C17 C36 1_555 1_555
C20 C32 1_555 1_555
C21 C27 1_555 1_555
C22 C25 1_555 1_555
C23 C42 1_555 1_555
C24 C28 1_555 1_555
C26 C34 1_555 1_555
C27 C39 1_555 1_555
C29 C31 1_555 1_555
C37 C38 1_555 1_555
C40 C41 1_555 1_555
O7A C3A 1_555 1_555
O10D C10D 1_555 1_555
O20D C15D 1_555 1_555
C4A C11A 1_555 1_555
C4A C17A 1_555 1_555
C12D C40D 1_555 1_555
C17A C36A 1_555 1_555
C20D C32D 1_555 1_555
C21A C27A 1_555 1_555
C22A C25A 1_555 1_555
C23A C42A 1_555 1_555
C24D C28D 1_555 1_555
C26A C34A 1_555 1_555
C27A C39A 1_555 1_555
C29D C31D 1_555 1_555
C37A C38A 1_555 1_555
C40D C41D 1_555 1_555

#END
