
#######################################################################
#
#                 Cambridge Crystallographic Data Centre
#                                CCDC 
#
#######################################################################
#
# If this CIF has been generated from an entry in the Cambridge 
# Structural Database, then it will include bibliographic, chemical, 
# crystal, experimental, refinement or atomic coordinate data resulting 
# from the CCDC's data processing and validation procedures.
#
#######################################################################

data_TEPPOV
_symmetry_cell_setting           monoclinic
_symmetry_space_group_name_H-M   'P 21/n'
_symmetry_Int_Tables_number      14
_space_group_name_Hall           '-P 2yn'
loop_
_symmetry_equiv_pos_site_id
_symmetry_equiv_pos_as_xyz
1 x,y,z
2 1/2-x,1/2+y,1/2-z
3 -x,-y,-z
4 1/2+x,1/2-y,1/2+z
_cell_length_a                   9.484(6)
_cell_length_b                   8.377(5)
_cell_length_c                   18.414(12)
_cell_angle_alpha                90
_cell_angle_beta                 103.319(12)
_cell_angle_gamma                90
_cell_volume                     1423.6
loop_
_atom_site_label
_atom_site_type_symbol
_atom_site_fract_x
_atom_site_fract_y
_atom_site_fract_z
Co1 Co 0.21642(7) 0.86070(8) 0.33721(4)
P1 P 0.32876(15) 0.51987(16) 0.33127(8)
O1 O 0.1931(4) 0.6163(4) 0.3214(2)
O2 O 0.3204(4) 0.3822(4) 0.2783(2)
O3 O 0.3688(5) 0.4597(5) 0.4137(2)
H1 H 0.4351 0.3948 0.4188
O4 O 0.2696(4) 0.8354(5) 0.4509(2)
O5 O 0.4313(5) 0.7429(6) 0.5485(2)
O6 O 0.2468(5) 1.1108(5) 0.3540(3)
H2 H 0.295(8) 1.178(8) 0.332(4)
H3 H 0.193(9) 1.184(10) 0.369(4)
N1 N 0.4586(4) 0.8106(5) 0.3560(2)
N2 N 0.9919(5) 0.8853(6) 0.3344(3)
C1 C 0.4699(6) 0.6559(6) 0.3192(3)
H4 H 0.5639 0.6087 0.3402
H5 H 0.4624 0.6733 0.2664
C2 C 0.3943(6) 0.7846(8) 0.4807(3)
C3 C 0.5135(6) 0.7975(7) 0.4373(3)
H6 H 0.5727 0.8903 0.4549
H7 H 0.5753 0.7041 0.4479
C4 C 0.5341(6) 0.9399(6) 0.3242(3)
H8 H 0.5222 1.0386 0.3496
H9 H 0.4855 0.9532 0.2721
C5 C 0.6948(6) 0.9165(7) 0.3287(3)
C6 C 0.7984(7) 0.9747(8) 0.3887(4)
H10 H 0.7707 1.0260 0.4280
C7 C 0.9433(7) 0.9554(9) 0.3893(4)
H11 H 1.0114 0.9934 0.4304
C8 C 0.8907(6) 0.8276(8) 0.2779(3)
H12 H 0.9211 0.7774 0.2391
C9 C 0.7448(6) 0.8378(8) 0.2733(3)
H13 H 0.6795 0.7921 0.2332
Co1_2 Co 1.21642(7) 0.86070(8) 0.33721(4)
Co1A Co 0.28358(7) 0.36070(8) 0.16279(4)
O2A O 0.1796(4) 0.8822(4) 0.2217(2)
N2_2 N -0.0081(5) 0.8853(6) 0.3344(3)
O7 O 0.0506(12) 1.3500(14) 0.3979(7)
O8 O 0.1932(14) 0.5403(17) 0.5657(7)
loop_
_geom_bond_atom_site_label_1
_geom_bond_atom_site_label_2
_geom_bond_site_symmetry_1
_geom_bond_site_symmetry_2
Co1 O1 1_555 1_555
P1 O1 1_555 1_555
O2 P1 1_555 1_555
O3 P1 1_555 1_555
H1 O3 1_555 1_555
O4 Co1 1_555 1_555
O5 C2 1_555 1_555
O6 Co1 1_555 1_555
H2 O6 1_555 1_555
H3 O6 1_555 1_555
N1 Co1 1_555 1_555
N2 C7 1_555 1_555
C1 P1 1_555 1_555
H4 C1 1_555 1_555
H5 C1 1_555 1_555
C2 O4 1_555 1_555
C3 N1 1_555 1_555
H6 C3 1_555 1_555
H7 C3 1_555 1_555
C4 N1 1_555 1_555
H8 C4 1_555 1_555
H9 C4 1_555 1_555
C5 C4 1_555 1_555
C6 C5 1_555 1_555
H10 C6 1_555 1_555
C7 C6 1_555 1_555
H11 C7 1_555 1_555
C8 N2 1_555 1_555
H12 C8 1_555 1_555
C9 C5 1_555 1_555
H13 C9 1_555 1_555
Co1_2 N2 1_555 1_555
Co1A O2 1_555 1_555
O2A Co1 1_555 1_555
N2_2 Co1 1_555 1_555
N1 C1 1_555 1_555
C2 C3 1_555 1_555
C8 C9 1_555 1_555

#END
