
#######################################################################
#
#                 Cambridge Crystallographic Data Centre
#                                CCDC 
#
#######################################################################
#
# If this CIF has been generated from an entry in the Cambridge 
# Structural Database, then it will include bibliographic, chemical, 
# crystal, experimental, refinement or atomic coordinate data resulting 
# from the CCDC's data processing and validation procedures.
#
#######################################################################

data_TEPWUI
_symmetry_cell_setting           monoclinic
_symmetry_space_group_name_H-M   'C 2/m'
_symmetry_Int_Tables_number      12
_space_group_name_Hall           '-C 2y'
loop_
_symmetry_equiv_pos_site_id
_symmetry_equiv_pos_as_xyz
1 x,y,z
2 -x,y,-z
3 1/2+x,1/2+y,z
4 1/2-x,1/2+y,-z
5 -x,-y,-z
6 x,-y,z
7 1/2-x,1/2-y,-z
8 1/2+x,1/2-y,z
_cell_length_a                   11.1851(9)
_cell_length_b                   29.1351(8)
_cell_length_c                   6.8304(5)
_cell_angle_alpha                90
_cell_angle_beta                 113.5410(10)
_cell_angle_gamma                90
_cell_volume                     2040.63
loop_
_atom_site_label
_atom_site_type_symbol
_atom_site_fract_x
_atom_site_fract_y
_atom_site_fract_z
C1 C 0.1282(4) -0.17831(15) 1.2495(7)
H1 H 0.1472 -0.1493 1.2131
C2 C 0.1682(4) -0.21560(15) 1.1748(7)
H2 H 0.2172 -0.2123 1.0931
C3 C 0.1349(4) -0.25915(15) 1.2223(7)
H3 H 0.1581 -0.2852 1.1669
C4 C 0.0692(4) -0.26323(14) 1.3480(7)
H4 H 0.0470 -0.2921 1.3807
C5 C 0.0341(4) -0.22378(14) 1.4301(7)
C6 C -0.1681(4) -0.12969(14) 1.2498(7)
C7 C 0.0474(4) -0.08227(14) 1.3533(7)
C8 C 0.2021(6) 0.0000 0.8050(9)
H5 H 0.1300 0.0000 0.6753
C9 C 0.3189(4) 0.0000 0.8042(10)
H6 H 0.3278 0.0000 0.6745
C10 C 0.4320(6) 0.0000 0.9972(9)
C11 C 0.4076(4) 0.0000 1.1867(10)
H7 H 0.4783 0.0000 1.3181
C12 C 0.2886(6) 0.0000 1.1838(10)
H8 H 0.2773 0.0000 1.3115
Cu1 Cu 0.0000 0.0000 1.0000
Fe1 Fe 0.0000 -0.12983(3) 1.5000
N1 N 0.0615(3) -0.18185(12) 1.3750(5)
N2 N -0.2644(4) -0.13139(13) 1.1038(6)
N3 N 0.0644(3) -0.05319(12) 1.2572(6)
N4 N 0.1821(5) 0.0000 0.9933(8)
C1A C -0.1282(4) -0.17831(15) 1.7505(7)
C1A_2 C -0.1282(4) -0.17831(15) 0.7505(7)
C1_2 C 0.1282(4) -0.17831(15) 0.2495(7)
H1A H -0.1472 -0.1493 1.7869
H1A_2 H -0.1472 -0.1493 0.7869
H1_2 H 0.1472 -0.1493 0.2131
C2A C -0.1682(4) -0.21560(15) 1.8252(7)
C2A_2 C -0.1682(4) -0.21560(15) 0.8252(7)
C2_2 C 0.1682(4) -0.21560(15) 0.1748(7)
H2A H -0.2172 -0.2123 1.9069
H2A_2 H -0.2172 -0.2123 0.9069
H2_2 H 0.2172 -0.2123 0.0931
C3A C -0.1349(4) -0.25915(15) 1.7777(7)
C3A_2 C -0.1349(4) -0.25915(15) 0.7777(7)
C3_2 C 0.1349(4) -0.25915(15) 0.2223(7)
H3A H -0.1581 -0.2852 1.8331
H3A_2 H -0.1581 -0.2852 0.8331
H3_2 H 0.1581 -0.2852 0.1669
C4A C -0.0692(4) -0.26323(14) 1.6520(7)
C4A_2 C -0.0692(4) -0.26323(14) 0.6520(7)
C4_2 C 0.0692(4) -0.26323(14) 0.3480(7)
H4A H -0.0470 -0.2921 1.6193
H4A_2 H -0.0470 -0.2921 0.6193
H4_2 H 0.0470 -0.2921 0.3807
C5A C -0.0341(4) -0.22378(14) 1.5699(7)
C5A_2 C -0.0341(4) -0.22378(14) 0.5699(7)
C5_2 C 0.0341(4) -0.22378(14) 0.4301(7)
C6A C 0.1681(4) -0.12969(14) 1.7502(7)
C6A_2 C 0.1681(4) -0.12969(14) 0.7502(7)
C6_2 C -0.1681(4) -0.12969(14) 0.2498(7)
C7A C -0.0474(4) -0.08227(14) 0.6467(7)
C7D C -0.0474(4) 0.08227(14) 0.6467(7)
C7A_2 C -0.0474(4) -0.08227(14) 1.6467(7)
C7_2 C 0.0474(4) -0.08227(14) 0.3533(7)
C8A C 0.7979(6) 0.0000 1.1950(9)
H5A H 0.8700 0.0000 1.3247
C9A C 0.6811(4) 0.0000 1.1958(10)
H6A H 0.6722 0.0000 1.3255
C10A C 0.5680(6) 0.0000 1.0028(9)
C11A C 0.5924(4) 0.0000 0.8133(10)
H7A H 0.5217 0.0000 0.6819
C12A C 0.7114(6) 0.0000 0.8162(10)
H8A H 0.7227 0.0000 0.6885
Cu1_2 Cu 1.0000 0.0000 1.0000
Cu1_3 Cu 0.0000 0.0000 2.0000
Fe1_2 Fe 0.0000 -0.12983(3) 0.5000
Fe1D Fe 0.0000 0.12983(3) 0.5000
N1A N -0.0615(3) -0.18185(12) 1.6250(5)
N1A_2 N -0.0615(3) -0.18185(12) 0.6250(5)
N1_2 N 0.0615(3) -0.18185(12) 0.3750(5)
N2A N 0.2644(4) -0.13139(13) 1.8962(6)
N2A_2 N 0.2644(4) -0.13139(13) 0.8962(6)
N2_2 N -0.2644(4) -0.13139(13) 0.1038(6)
N3A N -0.0644(3) -0.05319(12) 0.7428(6)
N3D N -0.0644(3) 0.05319(12) 0.7428(6)
N3E N 0.0644(3) 0.05319(12) 1.2572(6)
N3A_2 N -0.0644(3) -0.05319(12) 1.7428(6)
N4A N 0.8179(5) 0.0000 1.0067(8)
N4A_2 N -0.1821(5) 0.0000 1.0067(8)
O1 O 0.4692(9) 0.1284(3) 0.8018(18)
H9 H 0.4536 0.1007 0.7603
H10 H 0.4774 0.1304 0.9306
O2 O 0.5000 0.1247(2) 0.5000
O3 O 0.6478(9) 0.0901(3) 0.4543(16)
H13 H 0.6152 0.0716 0.3499
H14 H 0.6969 0.1092 0.4281
H11? H 0.4535 0.1111 0.3845
H12? H 0.5678 0.1136 0.5982
loop_
_geom_bond_atom_site_label_1
_geom_bond_atom_site_label_2
_geom_bond_site_symmetry_1
_geom_bond_site_symmetry_2
C1 H1 1_555 1_555
C2 C1 1_555 1_555
H2 C2 1_555 1_555
C3 C2 1_555 1_555
H3 C3 1_555 1_555
C4 C3 1_555 1_555
H4 C4 1_555 1_555
C5 C4 1_555 1_555
C6 Fe1 1_555 1_555
C7 Fe1 1_555 1_555
C8 H5 1_555 1_555
C9 C8 1_555 1_555
H6 C9 1_555 1_555
C10 C9 1_555 1_555
C11 C10 1_555 1_555
H7 C11 1_555 1_555
C12 C11 1_555 1_555
H8 C12 1_555 1_555
Cu1 N3 1_555 1_555
Fe1 N1 1_555 1_555
N1 C1 1_555 1_555
N2 C6 1_555 1_555
N3 C7 1_555 1_555
N4 C8 1_555 1_555
O1 H9 1_555 1_555
H10 O1 1_555 1_555
O3 H13 1_555 1_555
H14 O3 1_555 1_555
C1A H1A 1_555 1_555
C1A_2 H1A_2 1_555 1_555
C1_2 H1_2 1_555 1_555
C2A C1A 1_555 1_555
C2A_2 C1A_2 1_555 1_555
C2_2 C1_2 1_555 1_555
H2A C2A 1_555 1_555
H2A_2 C2A_2 1_555 1_555
H2_2 C2_2 1_555 1_555
C3A C2A 1_555 1_555
C3A_2 C2A_2 1_555 1_555
C3_2 C2_2 1_555 1_555
H3A C3A 1_555 1_555
H3A_2 C3A_2 1_555 1_555
H3_2 C3_2 1_555 1_555
C4A C3A 1_555 1_555
C4A_2 C3A_2 1_555 1_555
C4_2 C3_2 1_555 1_555
H4A C4A 1_555 1_555
H4A_2 C4A_2 1_555 1_555
H4_2 C4_2 1_555 1_555
C5A C5 1_555 1_555
C5A_2 C4A_2 1_555 1_555
C5_2 C4_2 1_555 1_555
C6A Fe1 1_555 1_555
C6A_2 Fe1_2 1_555 1_555
C6_2 Fe1_2 1_555 1_555
C7A Fe1_2 1_555 1_555
C7D Fe1D 1_555 1_555
C7A_2 Fe1 1_555 1_555
C7_2 Fe1_2 1_555 1_555
C8A H5A 1_555 1_555
C9A C8A 1_555 1_555
H6A C9A 1_555 1_555
C10A C10 1_555 1_555
C11A C10A 1_555 1_555
H7A C11A 1_555 1_555
C12A C11A 1_555 1_555
H8A C12A 1_555 1_555
Cu1_2 N4A 1_555 1_555
Cu1_3 N3A_2 1_555 1_555
Fe1_2 N1A_2 1_555 1_555
N1A Fe1 1_555 1_555
N1A_2 C1A_2 1_555 1_555
N1_2 C1_2 1_555 1_555
N2A C6A 1_555 1_555
N2A_2 C6A_2 1_555 1_555
N2_2 C6_2 1_555 1_555
N3A Cu1 1_555 1_555
N3D Cu1 1_555 1_555
N3E Cu1 1_555 1_555
N3A_2 C7A_2 1_555 1_555
N4A C8A 1_555 1_555
N4A_2 Cu1 1_555 1_555
C5 N1 1_555 1_555
C12 N4 1_555 1_555
Cu1 N4 1_555 1_555
C1A N1A 1_555 1_555
C4A C5A 1_555 1_555
C5A N1A 1_555 1_555
C5A_2 C5_2 1_555 1_555
C5A_2 N1A_2 1_555 1_555
C5_2 N1_2 1_555 1_555
C7A N3A 1_555 1_555
C7D N3D 1_555 1_555
C9A C10A 1_555 1_555
C12A N4A 1_555 1_555
Fe1_2 N1_2 1_555 1_555

#END
