
#######################################################################
#
#                 Cambridge Crystallographic Data Centre
#                                CCDC 
#
#######################################################################
#
# If this CIF has been generated from an entry in the Cambridge 
# Structural Database, then it will include bibliographic, chemical, 
# crystal, experimental, refinement or atomic coordinate data resulting 
# from the CCDC's data processing and validation procedures.
#
#######################################################################

data_TEQKAC
_symmetry_cell_setting           triclinic
_symmetry_space_group_name_H-M   'P -1'
_symmetry_Int_Tables_number      2
_space_group_name_Hall           '-P 1'
loop_
_symmetry_equiv_pos_site_id
_symmetry_equiv_pos_as_xyz
1 x,y,z
2 -x,-y,-z
_cell_length_a                   8.2589(14)
_cell_length_b                   8.5409(14)
_cell_length_c                   9.7947(16)
_cell_angle_alpha                70.022(2)
_cell_angle_beta                 74.338(2)
_cell_angle_gamma                71.530(2)
_cell_volume                     605.66
loop_
_atom_site_label
_atom_site_type_symbol
_atom_site_fract_x
_atom_site_fract_y
_atom_site_fract_z
N1 N 0.8720(3) 0.5059(4) 0.3880(3)
C1 C 1.0141(4) 0.4641(4) 0.3363(3)
Cd1 Cd 0.62901(2) 0.63885(2) 0.52075(2)
S1 S 0.33361(9) 0.75780(9) 0.70450(8)
S2 S 1.21807(10) 0.40331(13) 0.25957(9)
O1 O 0.5372(2) 0.3856(2) 0.6284(2)
N2 N 0.6280(3) 0.2503(3) 0.7202(2)
C2 C 0.3504(3) 0.9558(4) 0.6583(3)
N3 N 0.3612(4) 1.0956(4) 0.6287(3)
C3 C 0.5816(4) 0.2294(4) 0.8648(3)
H1 H 0.4899 0.3098 0.9012
C4 C 0.8508(4) -0.0014(4) 0.7598(3)
H2 H 0.9441 -0.0786 0.7208
C5 C 0.8050(4) -0.0301(4) 0.9101(3)
C6 C 0.7620(4) 0.1383(4) 0.6667(3)
H3 H 0.7951 0.1555 0.5651
C7 C 0.6681(5) 0.0900(5) 0.9600(3)
H4 H 0.6335 0.0762 1.0611
C8 C 0.8990(6) -0.1880(5) 1.0125(4)
H5 H 0.8852 -0.1672 1.1057
H6 H 1.0201 -0.2148 0.9700
H7 H 0.8516 -0.2829 1.0271
Cd1A Cd 1.37099(2) 0.36115(2) 0.47925(2)
Cd1A_2 Cd 0.37099(2) 0.36115(2) 0.47925(2)
Cd1A_3 Cd 0.37099(2) 1.36115(2) 0.47925(2)
S2A S 0.78193(10) 0.59669(13) 0.74043(9)
O1A O 0.4628(2) 0.6144(2) 0.3716(2)
N3A N 0.6388(4) 0.9044(4) 0.3713(3)
loop_
_geom_bond_atom_site_label_1
_geom_bond_atom_site_label_2
_geom_bond_site_symmetry_1
_geom_bond_site_symmetry_2
N1 C1 1_555 1_555
C1 S2 1_555 1_555
Cd1 N1 1_555 1_555
S1 Cd1 1_555 1_555
S2 Cd1A 1_555 1_555
O1 Cd1 1_555 1_555
N2 O1 1_555 1_555
C2 S1 1_555 1_555
N3 C2 1_555 1_555
C3 N2 1_555 1_555
H1 C3 1_555 1_555
C4 H2 1_555 1_555
C5 C4 1_555 1_555
C6 N2 1_555 1_555
H3 C6 1_555 1_555
C7 C3 1_555 1_555
H4 C7 1_555 1_555
C8 C5 1_555 1_555
H5 C8 1_555 1_555
H6 C8 1_555 1_555
H7 C8 1_555 1_555
Cd1A_2 O1 1_555 1_555
Cd1A_3 N3 1_555 1_555
S2A Cd1 1_555 1_555
O1A Cd1 1_555 1_555
N3A Cd1 1_555 1_555
C4 C6 1_555 1_555
C5 C7 1_555 1_555
Cd1A_2 O1A 1_555 1_555

#END
