
#######################################################################
#
#                 Cambridge Crystallographic Data Centre
#                                CCDC 
#
#######################################################################
#
# If this CIF has been generated from an entry in the Cambridge 
# Structural Database, then it will include bibliographic, chemical, 
# crystal, experimental, refinement or atomic coordinate data resulting 
# from the CCDC's data processing and validation procedures.
#
#######################################################################

data_TEQNOT
_symmetry_cell_setting           monoclinic
_symmetry_space_group_name_H-M   'P 21/n'
_symmetry_Int_Tables_number      14
_space_group_name_Hall           '-P 2yn'
loop_
_symmetry_equiv_pos_site_id
_symmetry_equiv_pos_as_xyz
1 x,y,z
2 1/2-x,1/2+y,1/2-z
3 -x,-y,-z
4 1/2+x,1/2-y,1/2+z
_cell_length_a                   6.5288(7)
_cell_length_b                   15.4692(15)
_cell_length_c                   9.5211(10)
_cell_angle_alpha                90
_cell_angle_beta                 95.512(2)
_cell_angle_gamma                90
_cell_volume                     957.14
loop_
_atom_site_label
_atom_site_type_symbol
_atom_site_fract_x
_atom_site_fract_y
_atom_site_fract_z
U1 U 0.04666(6) 0.335450(19) 0.95875(4)
N1 N -0.0084(12) 0.1778(4) 0.8616(7)
C1 C 0.2769(16) 0.0262(5) 0.6329(10)
C2 C 0.2257(15) 0.2259(5) 0.7005(10)
C3 C 0.1171(15) 0.0640(5) 0.7207(9)
C4 C -0.0229(15) 0.0081(6) 0.7690(10)
H1 H -0.0269 -0.0492 0.7392
C5 C 0.1142(14) 0.1505(5) 0.7617(9)
C6 C -0.1579(16) 0.0366(6) 0.8618(11)
H2 H -0.2577 0.0001 0.8924
C7 C -0.1399(15) 0.1211(6) 0.9076(10)
H3 H -0.2248 0.1395 0.9748
O1 O 0.2318(11) -0.0469(4) 0.5793(7)
O2 O 0.2314(11) 0.2938(4) 1.0866(7)
O3 O -0.1376(10) 0.3736(4) 0.8287(7)
O4 O 0.2783(10) 0.2200(4) 0.5790(7)
O5 O 0.4448(10) 0.0651(4) 0.6269(7)
O6 O 0.2450(11) 0.2930(4) 0.7726(7)
U1A U 0.45334(6) -0.164550(19) 0.54125(4)
U1C U 0.54666(6) 0.164550(19) 0.45875(4)
O1A O 0.2682(11) 0.4531(4) 0.9207(7)
O4C O -0.2217(10) 0.2800(4) 1.0790(7)
O5C O -0.0552(10) 0.4349(4) 1.1269(7)
loop_
_geom_bond_atom_site_label_1
_geom_bond_atom_site_label_2
_geom_bond_site_symmetry_1
_geom_bond_site_symmetry_2
U1 N1 1_555 1_555
N1 C5 1_555 1_555
C1 C3 1_555 1_555
C2 C5 1_555 1_555
C3 C4 1_555 1_555
C4 H1 1_555 1_555
C5 C3 1_555 1_555
C6 C4 1_555 1_555
H2 C6 1_555 1_555
C7 N1 1_555 1_555
H3 C7 1_555 1_555
O1 C1 1_555 1_555
O2 U1 1_555 1_555
O3 U1 1_555 1_555
O4 C2 1_555 1_555
O5 C1 1_555 1_555
O6 U1 1_555 1_555
U1A O1 1_555 1_555
U1C O4 1_555 1_555
O1A U1 1_555 1_555
O4C U1 1_555 1_555
O5C U1 1_555 1_555
C2 O6 1_555 1_555
C6 C7 1_555 1_555
O5 U1C 1_555 1_555

#END
