
#######################################################################
#
#                 Cambridge Crystallographic Data Centre
#                                CCDC 
#
#######################################################################
#
# If this CIF has been generated from an entry in the Cambridge 
# Structural Database, then it will include bibliographic, chemical, 
# crystal, experimental, refinement or atomic coordinate data resulting 
# from the CCDC's data processing and validation procedures.
#
#######################################################################

data_TEQVES
_symmetry_cell_setting           monoclinic
_symmetry_space_group_name_H-M   'P 21/c'
_symmetry_Int_Tables_number      14
_space_group_name_Hall           '-P 2ybc'
loop_
_symmetry_equiv_pos_site_id
_symmetry_equiv_pos_as_xyz
1 x,y,z
2 -x,1/2+y,1/2-z
3 -x,-y,-z
4 x,1/2-y,1/2+z
_cell_length_a                   12.0711(4)
_cell_length_b                   12.2504(4)
_cell_length_c                   13.3746(5)
_cell_angle_alpha                90
_cell_angle_beta                 101.194(3)
_cell_angle_gamma                90
_cell_volume                     1940.15
loop_
_atom_site_label
_atom_site_type_symbol
_atom_site_fract_x
_atom_site_fract_y
_atom_site_fract_z
Zn1 Zn 0.71323(3) -0.36109(2) 0.45709(2)
Zn2 Zn 0.64498(2) -0.18127(2) 0.23110(2)
O1 O 0.70656(17) -0.21418(15) 0.51474(14)
O2 O 0.60862(17) -0.15944(17) 0.36591(14)
O3 O 0.47012(18) 0.21531(18) 0.32498(15)
O4 O 0.5360(2) 0.34303(17) 0.43881(18)
O5 O 0.68788(16) -0.04019(15) 0.18505(16)
O6 O 0.79501(18) -0.04803(18) 0.06661(15)
O7 O 1.16606(18) 0.13312(18) 0.12158(16)
O8 O 1.20413(17) 0.25516(18) 0.24687(15)
O9 O 0.5654(2) -0.4214(2) 0.38548(19)
H1 H 0.5685 -0.4910 0.3860
H2 H 0.5134 -0.4005 0.4161
C1 C 0.6581(2) -0.1408(2) 0.45635(19)
C2 C 0.6565(2) -0.0275(2) 0.49668(18)
C3 C 0.7080(2) -0.0037(2) 0.59661(19)
H3 H 0.7439 -0.0591 0.6382
C4 C 0.7069(3) 0.1015(2) 0.6356(2)
C5 C 0.7642(4) 0.1273(3) 0.7440(3)
H4 H 0.7727 0.0614 0.7836
H5 H 0.7190 0.1783 0.7730
H6 H 0.8372 0.1585 0.7442
C6 C 0.6522(3) 0.1825(2) 0.5719(2)
H7 H 0.6518 0.2536 0.5962
C7 C 0.5980(2) 0.1598(2) 0.4725(2)
C8 C 0.5317(2) 0.2469(2) 0.4086(2)
C9 C 0.6000(2) 0.0546(2) 0.43524(19)
H8 H 0.5636 0.0388 0.3690
C10 C 0.7758(2) -0.0177(2) 0.1512(2)
C11 C 0.8649(2) 0.0521(2) 0.21424(19)
C12 C 0.8554(2) 0.0819(3) 0.3132(2)
H9 H 0.7930 0.0588 0.3389
C13 C 0.9370(3) 0.1452(3) 0.3735(2)
C14 C 0.9270(4) 0.1780(5) 0.4808(3)
H10 H 0.8563 0.2144 0.4790
H11 H 0.9879 0.2263 0.5085
H12 H 0.9307 0.1140 0.5227
C15 C 1.0285(2) 0.1794(3) 0.3329(2)
H13 H 1.0828 0.2240 0.3717
C16 C 1.0410(2) 0.1485(2) 0.23542(19)
C17 C 1.1448(2) 0.1819(2) 0.1977(2)
C18 C 0.9593(2) 0.0839(2) 0.17667(19)
H14 H 0.9677 0.0619 0.1120
Zn1A Zn 1.28677(3) 0.13891(2) 0.04291(2)
Zn1C Zn 0.71323(3) -0.13891(2) -0.04291(2)
Zn2A Zn 0.35502(2) 0.31873(2) 0.26890(2)
Zn2A_2 Zn 1.35502(2) 0.31873(2) 0.26890(2)
O3A O 0.52988(18) -0.28469(18) 0.17502(15)
O6C O 0.79501(18) -0.45197(18) 0.56661(15)
O7A O 0.83394(18) -0.36688(18) 0.37842(16)
O8A O 0.79587(17) -0.24484(18) 0.25313(15)
loop_
_geom_bond_atom_site_label_1
_geom_bond_atom_site_label_2
_geom_bond_site_symmetry_1
_geom_bond_site_symmetry_2
Zn1 O1 1_555 1_555
Zn2 O2 1_555 1_555
O1 C1 1_555 1_555
O2 C1 1_555 1_555
O3 C8 1_555 1_555
O4 C8 1_555 1_555
O5 Zn2 1_555 1_555
O6 C10 1_555 1_555
O7 C17 1_555 1_555
O8 C17 1_555 1_555
O9 Zn1 1_555 1_555
H1 O9 1_555 1_555
H2 O9 1_555 1_555
C1 C2 1_555 1_555
C2 C3 1_555 1_555
C3 H3 1_555 1_555
C4 C3 1_555 1_555
C5 C4 1_555 1_555
H4 C5 1_555 1_555
H5 C5 1_555 1_555
H6 C5 1_555 1_555
C6 C4 1_555 1_555
H7 C6 1_555 1_555
C7 C6 1_555 1_555
C8 C7 1_555 1_555
C9 C2 1_555 1_555
H8 C9 1_555 1_555
C10 O5 1_555 1_555
C11 C10 1_555 1_555
C12 C11 1_555 1_555
H9 C12 1_555 1_555
C13 C12 1_555 1_555
C14 C13 1_555 1_555
H10 C14 1_555 1_555
H11 C14 1_555 1_555
H12 C14 1_555 1_555
C15 C13 1_555 1_555
H13 C15 1_555 1_555
C16 C15 1_555 1_555
C17 C16 1_555 1_555
C18 C11 1_555 1_555
H14 C18 1_555 1_555
Zn1A O7 1_555 1_555
Zn1C O6 1_555 1_555
Zn2A O3 1_555 1_555
Zn2A_2 O8 1_555 1_555
O3A Zn2 1_555 1_555
O6C Zn1 1_555 1_555
O7A Zn1 1_555 1_555
O8A Zn2 1_555 1_555
C7 C9 1_555 1_555
C16 C18 1_555 1_555

#END
