
#######################################################################
#
#                 Cambridge Crystallographic Data Centre
#                                CCDC 
#
#######################################################################
#
# If this CIF has been generated from an entry in the Cambridge 
# Structural Database, then it will include bibliographic, chemical, 
# crystal, experimental, refinement or atomic coordinate data resulting 
# from the CCDC's data processing and validation procedures.
#
#######################################################################

data_TESHOQ
_symmetry_cell_setting           monoclinic
_symmetry_space_group_name_H-M   'P 2/c'
_symmetry_Int_Tables_number      13
_space_group_name_Hall           '-P 2yc'
loop_
_symmetry_equiv_pos_site_id
_symmetry_equiv_pos_as_xyz
1 x,y,z
2 -x,y,1/2-z
3 -x,-y,-z
4 x,-y,1/2+z
_cell_length_a                   17.677(5)
_cell_length_b                   9.812(2)
_cell_length_c                   32.145(8)
_cell_angle_alpha                90
_cell_angle_beta                 103.625(4)
_cell_angle_gamma                90
_cell_volume                     5418.54
loop_
_atom_site_label
_atom_site_type_symbol
_atom_site_fract_x
_atom_site_fract_y
_atom_site_fract_z
Tb1 Tb 0.0000 0.38889(5) 0.2500
Tb2 Tb 0.0000 -0.14829(5) 0.2500
Tb3 Tb -0.01254(2) -0.68750(4) 0.442290(11)
Cu1 Cu 0.49021(7) 0.0204(2) 0.33021(5)
Cu2 Cu 0.53612(8) -0.48460(16) 0.29780(7)
Cu3 Cu 0.45659(7) -0.39009(14) 0.42477(5)
Cu4 Cu 0.49799(6) -0.76114(13) 0.47962(4)
Cu5 Cu 0.45054(7) -0.69427(17) 0.62515(5)
Br1 Br 0.48008(6) -0.25346(12) 0.30352(3)
Br2 Br 0.5000 -0.68188(13) 0.2500
Br3 Br 0.50614(5) -0.57036(11) 0.37904(4)
Br4 Br 0.5000 -0.5000 0.5000
Br5 Br 0.49715(5) -0.85270(10) 0.57157(3)
O1 O 0.1112(3) 0.2475(5) 0.26502(17)
O2 O 0.0913(3) 0.0224(5) 0.26405(17)
O3 O 0.0813(3) -0.2690(6) 0.30735(18)
O4 O -0.0849(3) -0.4962(6) 0.1943(2)
O5 O 0.1208(3) -0.8792(7) 0.36431(19)
O6 O 0.0928(3) -0.7659(6) 0.41878(17)
O7 O -0.0644(3) -0.4826(6) 0.45603(16)
O8 O 0.0643(3) -0.7180(6) 0.51144(17)
O9 O 0.8755(3) 0.1322(6) 0.3315(2)
O10 O 0.8745(3) 0.2350(7) 0.39337(19)
O11 O 0.9001(3) -0.2537(6) 0.27702(19)
O12 O 0.9223(3) -0.4775(6) 0.2822(2)
O13 O 0.8927(3) -0.7322(6) 0.48579(18)
O14 O 0.8801(3) -0.9533(6) 0.4977(2)
O15 O 0.0034(3) 0.2753(5) 0.18356(15)
H1 H 0.0410 0.2192 0.1895
H2 H -0.0377 0.2386 0.1687
O16 O 0.0047(3) -0.0546(5) 0.17632(17)
H3 H 0.0403 0.0056 0.1797
H4 H -0.0389 -0.0379 0.1593
O17 O -0.0203(4) -0.5415(7) 0.38092(19)
H5 H 0.0053 -0.5598 0.3623
H6 H -0.0475 -0.4742 0.3693
O18 O 0.0986(3) -0.5031(6) 0.45695(19)
H7 H 0.1137 -0.4364 0.4441
H8 H 0.0844 -0.4535 0.4757
O19 O -0.0109(3) -0.9337(6) 0.44842(18)
H9 H 0.0254 -0.9584 0.4694
H10 H -0.0531 -0.9630 0.4535
N1 N 0.3784(4) 0.0508(9) 0.3148(3)
N2 N 0.3396(4) -0.3882(8) 0.4029(2)
N3 N 0.3857(4) -0.7874(7) 0.4568(2)
N4 N 0.3352(4) -0.6834(8) 0.6022(3)
N5 N 0.5995(4) 0.0706(9) 0.3404(2)
N6 N 0.6486(4) -0.4486(8) 0.2955(3)
N7 N 0.6099(4) -0.7829(7) 0.4863(2)
C1 C 0.3524(6) 0.1793(12) 0.3064(3)
H13 H 0.3881 0.2504 0.3104
C2 C 0.2726(5) 0.2090(9) 0.2919(3)
H14 H 0.2556 0.2985 0.2867
C3 C 0.2205(4) 0.1032(7) 0.2856(2)
C4 C 0.2487(5) -0.0279(8) 0.2942(3)
H15 H 0.2146 -0.1014 0.2899
C5 C 0.3272(5) -0.0492(11) 0.3091(3)
H16 H 0.3449 -0.1377 0.3154
C6 C 0.1339(4) 0.1259(7) 0.2702(2)
C7 C 0.2966(5) -0.2732(10) 0.3980(3)
H17 H 0.3186 -0.1950 0.4123
C8 C 0.2215(5) -0.2660(9) 0.3730(3)
H18 H 0.1938 -0.1846 0.3704
C9 C 0.1880(4) -0.3826(8) 0.3517(2)
C10 C 0.2306(5) -0.5017(8) 0.3583(3)
H19 H 0.2091 -0.5826 0.3457
C11 C 0.3053(5) -0.5000(9) 0.3836(3)
H20 H 0.3333 -0.5811 0.3875
C12 C 0.1107(4) -0.3808(8) 0.3190(2)
C13 C 0.3580(5) -0.8603(9) 0.4211(3)
H21 H 0.3934 -0.9040 0.4083
C14 C 0.2797(5) -0.8733(8) 0.4025(3)
H22 H 0.2634 -0.9252 0.3778
C15 C 0.2253(4) -0.8094(8) 0.4205(2)
C16 C 0.2536(5) -0.7330(9) 0.4576(2)
H23 H 0.2193 -0.6877 0.4708
C17 C 0.3326(5) -0.7252(8) 0.4745(3)
H24 H 0.3504 -0.6746 0.4993
C18 C 0.1394(4) -0.8193(8) 0.3996(3)
C19 C 0.2983(5) -0.5651(10) 0.6042(3)
H25 H 0.3266 -0.4923 0.6186
C20 C 0.2192(5) -0.5467(9) 0.5857(3)
H26 H 0.1953 -0.4637 0.5880
C21 C -0.1774(4) -0.3467(8) 0.4361(2)
C22 C 0.2143(5) -0.7761(9) 0.5623(3)
H27 H 0.1871 -0.8502 0.5481
C23 C 0.2924(6) -0.7876(10) 0.5822(3)
H28 H 0.3165 -0.8716 0.5817
C24 C -0.0957(4) -0.3721(8) 0.4615(2)
C25 C 0.6389(5) 0.0393(10) 0.3112(3)
H29 H 0.6130 -0.0045 0.2863
C26 C 0.7173(5) 0.0697(9) 0.3168(2)
H30 H 0.7432 0.0450 0.2959
C27 C 0.7570(4) 0.1363(8) 0.3532(3)
C28 C 0.7152(5) 0.1714(10) 0.3830(3)
H31 H 0.7392 0.2172 0.4079
C29 C 0.6385(5) 0.1377(11) 0.3752(3)
H32 H 0.6112 0.1629 0.3954
C30 C 0.8432(5) 0.1696(8) 0.3601(3)
C31 C 0.6767(5) -0.3219(10) 0.2955(3)
H33 H 0.6439 -0.2496 0.2977
C32 C 0.7521(5) -0.2918(8) 0.2923(3)
H34 H 0.7690 -0.2020 0.2924
C33 C 0.8010(4) -0.3987(8) 0.2890(2)
C34 C 0.7724(5) -0.5310(8) 0.2902(3)
H35 H 0.8046 -0.6056 0.2897
C35 C 0.6968(5) -0.5497(9) 0.2922(3)
H36 H 0.6780 -0.6384 0.2913
C36 C 0.8819(4) -0.3746(8) 0.2826(2)
C37 C 0.6566(5) -0.6749(9) 0.4842(3)
H37 H 0.6341 -0.5890 0.4792
C38 C 0.7360(5) -0.6864(8) 0.4890(3)
H38 H 0.7661 -0.6091 0.4884
C39 C 0.7703(4) -0.8133(8) 0.4949(2)
C40 C 0.7239(5) -0.9236(8) 0.4985(3)
H39 H 0.7456 -1.0100 0.5040
C41 C 0.6448(5) -0.9049(9) 0.4939(3)
H40 H 0.6143 -0.9805 0.4960
C42 C 0.8548(4) -0.8341(8) 0.4933(3)
Tb1_2 Tb 1.0000 -0.61111(5) 0.2500
Tb1_3 Tb -1.0000 -0.61111(5) 0.2500
Tb1_4 Tb 0.0000 -0.61111(5) 0.2500
Tb2_2 Tb 1.0000 -0.14829(5) 0.2500
Tb2_3 Tb -1.0000 -0.14829(5) 0.2500
Tb3_2 Tb 0.98746(2) 0.31250(4) 0.442290(11)
Tb3_3 Tb 0.98746(2) -0.68750(4) 0.442290(11)
Tb3B Tb 0.01254(2) -0.31250(4) 0.557710(11)
Tb3B_2 Tb -0.98746(2) -0.31250(4) 0.557710(11)
Tb3A Tb -0.98746(2) 0.31250(4) 0.057710(11)
Cu1A Cu -0.49021(7) 0.0204(2) 0.16979(5)
Cu2A Cu 0.46388(8) -0.48460(16) 0.20220(7)
Cu2A_2 Cu -0.53612(8) -0.48460(16) 0.20220(7)
Cu3B Cu 0.54341(7) -0.60991(14) 0.57523(5)
Cu3_2 Cu -0.54341(7) -0.39009(14) 0.42477(5)
Cu3A Cu -0.45659(7) -0.39009(14) 0.07523(5)
Cu4B Cu 0.50201(6) -0.23886(13) 0.52038(4)
Cu4B_2 Cu -0.49799(6) -0.23886(13) 0.52038(4)
Cu5B Cu 0.54946(7) -0.30573(17) 0.37485(5)
Cu5B_2 Cu -0.45054(7) -0.30573(17) 0.37485(5)
Cu5C Cu -0.54946(7) -0.30573(17) 0.12515(5)
Br1B Br 0.51992(6) -0.74654(12) 0.69648(3)
Br1_2 Br -0.51992(6) -0.25346(12) 0.30352(3)
Br1A Br -0.48008(6) -0.25346(12) 0.19648(3)
Br2_2 Br -0.5000 -0.68188(13) 0.2500
Br3B Br 0.49386(5) -0.42964(11) 0.62096(4)
Br3_2 Br -0.49386(5) -0.57036(11) 0.37904(4)
Br3A Br -0.50614(5) -0.57036(11) 0.12096(4)
Br4_2 Br -0.5000 -0.5000 0.5000
Br4A Br -0.5000 -0.5000 0.0000
Br5B Br 0.50285(5) -0.14730(10) 0.42843(3)
Br5B_2 Br -0.49715(5) -0.14730(10) 0.42843(3)
Br5C Br -0.50285(5) -0.14730(10) 0.07157(3)
O1A O -0.1112(3) 0.2475(5) 0.23498(17)
O2A O -0.0913(3) 0.0224(5) 0.23595(17)
O3A O -0.0813(3) -0.2690(6) 0.19265(18)
O4_2 O -0.0849(3) 0.5038(6) 0.1943(2)
O4A O 0.0849(3) 0.5038(6) 0.3057(2)
O4A_2 O 0.0849(3) -0.4962(6) 0.3057(2)
O5B O -0.1208(3) -0.1208(7) 0.63569(19)
O6B O -0.0928(3) -0.2341(6) 0.58122(17)
O7B O 0.0644(3) -0.5174(6) 0.54397(16)
O8B O -0.0643(3) -0.2820(6) 0.48856(17)
O9A O -0.8755(3) 0.1322(6) 0.1685(2)
O10_2 O -0.1255(3) -0.7650(7) 0.39337(19)
O10B O 0.1255(3) -0.2350(7) 0.60663(19)
O10A O -0.8745(3) 0.2350(7) 0.10663(19)
O11A O 0.0999(3) -0.2537(6) 0.22298(19)
O11_2 O -0.0999(3) -0.2537(6) 0.27702(19)
O11A_2 O -0.9001(3) -0.2537(6) 0.22298(19)
O12A O 0.0777(3) 0.5225(6) 0.2178(2)
O12_2 O -0.0777(3) 0.5225(6) 0.2822(2)
O12A_2 O -0.9223(3) -0.4775(6) 0.2178(2)
O13_2 O -0.1073(3) -0.7322(6) 0.48579(18)
O13B O 0.1073(3) -0.2678(6) 0.51421(18)
O13B_2 O -0.8927(3) -0.2678(6) 0.51421(18)
O14B O -0.8801(3) -0.0467(6) 0.5023(2)
O15A O -0.0034(3) 0.2753(5) 0.31644(15)
H1A H -0.0410 0.2192 0.3105
H2A H 0.0377 0.2386 0.3313
O16A O -0.0047(3) -0.0546(5) 0.32368(17)
H3A H -0.0403 0.0056 0.3203
H4A H 0.0389 -0.0379 0.3407
O17B O 0.0203(4) -0.4585(7) 0.61908(19)
H5B H -0.0053 -0.4402 0.6377
H6B H 0.0475 -0.5258 0.6307
O18B O -0.0986(3) -0.4969(6) 0.54305(19)
H7B H -0.1137 -0.5636 0.5559
H8B H -0.0844 -0.5465 0.5243
O19B O 0.0109(3) -0.0663(6) 0.55158(18)
H9B H -0.0254 -0.0416 0.5306
H10B H 0.0531 -0.0370 0.5465
N1A N -0.3784(4) 0.0508(9) 0.1852(3)
N2A N -0.3396(4) -0.3882(8) 0.0971(2)
N3B N -0.3857(4) -0.2126(7) 0.5432(2)
N4B N -0.3352(4) -0.3166(8) 0.3978(3)
N5A N -0.5995(4) 0.0706(9) 0.1596(2)
N6A N -0.6486(4) -0.4486(8) 0.2045(3)
N7B N -0.6099(4) -0.2171(7) 0.5137(2)
C1A C -0.3524(6) 0.1793(12) 0.1936(3)
H13A H -0.3881 0.2504 0.1896
C2A C -0.2726(5) 0.2090(9) 0.2081(3)
H14A H -0.2556 0.2985 0.2133
C3A C -0.2205(4) 0.1032(7) 0.2144(2)
C4A C -0.2487(5) -0.0279(8) 0.2058(3)
H15A H -0.2146 -0.1014 0.2101
C5A C -0.3272(5) -0.0492(11) 0.1909(3)
H16A H -0.3449 -0.1377 0.1846
C6A C -0.1339(4) 0.1259(7) 0.2298(2)
C7A C -0.2966(5) -0.2732(10) 0.1020(3)
H17A H -0.3186 -0.1950 0.0877
C8A C -0.2215(5) -0.2660(9) 0.1270(3)
H18A H -0.1938 -0.1846 0.1296
C9A C -0.1880(4) -0.3826(8) 0.1483(2)
C10A C -0.2306(5) -0.5017(8) 0.1417(3)
H19A H -0.2091 -0.5826 0.1543
C11A C -0.3053(5) -0.5000(9) 0.1164(3)
H20A H -0.3333 -0.5811 0.1125
C12A C -0.1107(4) -0.3808(8) 0.1810(2)
C13B C -0.3580(5) -0.1397(9) 0.5789(3)
H21B H -0.3934 -0.0960 0.5917
C14B C -0.2797(5) -0.1267(8) 0.5975(3)
H22B H -0.2634 -0.0748 0.6222
C15B C -0.2253(4) -0.1906(8) 0.5795(2)
C16B C -0.2536(5) -0.2670(9) 0.5424(2)
H23B H -0.2193 -0.3123 0.5292
C17B C -0.3326(5) -0.2748(8) 0.5255(3)
H24B H -0.3504 -0.3254 0.5007
C18B C -0.1394(4) -0.1807(8) 0.6004(3)
C19B C -0.2983(5) -0.4349(10) 0.3958(3)
H25B H -0.3266 -0.5077 0.3814
C20B C -0.2192(5) -0.4533(9) 0.4143(3)
H26B H -0.1953 -0.5363 0.4120
C21B C 0.1774(4) -0.6533(8) 0.5639(2)
C22B C -0.2143(5) -0.2239(9) 0.4377(3)
H27B H -0.1871 -0.1498 0.4519
C23B C -0.2924(6) -0.2124(10) 0.4178(3)
H28B H -0.3165 -0.1284 0.4183
C24B C 0.0957(4) -0.6279(8) 0.5385(2)
C25A C -0.6389(5) 0.0393(10) 0.1888(3)
H29A H -0.6130 -0.0045 0.2137
C26A C -0.7173(5) 0.0697(9) 0.1832(2)
H30A H -0.7432 0.0450 0.2041
C27A C -0.7570(4) 0.1363(8) 0.1468(3)
C28A C -0.7152(5) 0.1714(10) 0.1170(3)
H31A H -0.7392 0.2172 0.0921
C29A C -0.6385(5) 0.1377(11) 0.1248(3)
H32A H -0.6112 0.1629 0.1046
C30A C -0.8432(5) 0.1696(8) 0.1399(3)
C31A C -0.6767(5) -0.3219(10) 0.2045(3)
H33A H -0.6439 -0.2496 0.2023
C32A C -0.7521(5) -0.2918(8) 0.2077(3)
H34A H -0.7690 -0.2020 0.2076
C33A C -0.8010(4) -0.3987(8) 0.2110(2)
C34A C -0.7724(5) -0.5310(8) 0.2098(3)
H35A H -0.8046 -0.6056 0.2103
C35A C -0.6968(5) -0.5497(9) 0.2078(3)
H36A H -0.6780 -0.6384 0.2087
C36A C -0.8819(4) -0.3746(8) 0.2174(2)
C37B C -0.6566(5) -0.3251(9) 0.5158(3)
H37B H -0.6341 -0.4110 0.5208
C38B C -0.7360(5) -0.3136(8) 0.5110(3)
H38B H -0.7661 -0.3909 0.5116
C39B C -0.7703(4) -0.1867(8) 0.5051(2)
C40B C -0.7239(5) -0.0764(8) 0.5015(3)
H39B H -0.7456 0.0100 0.4960
C41B C -0.6448(5) -0.0951(9) 0.5061(3)
H40B H -0.6143 -0.0195 0.5040
C42B C -0.8548(4) -0.1659(8) 0.5067(3)
O20 O 1.0012(7) -0.2574(10) 0.3903(3)
H11 H 1.0171 -0.2380 0.3680
H12 H 0.9854 -0.3367 0.3819
loop_
_geom_bond_atom_site_label_1
_geom_bond_atom_site_label_2
_geom_bond_site_symmetry_1
_geom_bond_site_symmetry_2
Tb1 O1 1_555 1_555
Tb2 O2 1_555 1_555
Tb3 O6 1_555 1_555
Cu1 Br1 1_555 1_555
Cu2 Br1 1_555 1_555
Cu3 Br3 1_555 1_555
Cu4 Br4 1_555 1_555
Cu5 Br5 1_555 1_555
Br1 Cu5B 1_555 1_555
Br2 Cu2 1_555 1_555
Br3 Cu2 1_555 1_555
Br4 Cu3 1_555 1_555
Br5 Cu4 1_555 1_555
O1 C6 1_555 1_555
O2 C6 1_555 1_555
O3 Tb2 1_555 1_555
O4 Tb1_4 1_555 1_555
O5 C18 1_555 1_555
O6 C18 1_555 1_555
O7 Tb3 1_555 1_555
O8 Tb3 1_555 1_555
O9 C30 1_555 1_555
O10 C30 1_555 1_555
O11 C36 1_555 1_555
O12 C36 1_555 1_555
O13 C42 1_555 1_555
O14 C42 1_555 1_555
O15 Tb1 1_555 1_555
H1 O15 1_555 1_555
H2 O15 1_555 1_555
O16 Tb2 1_555 1_555
H3 O16 1_555 1_555
H4 O16 1_555 1_555
O17 Tb3 1_555 1_555
H5 O17 1_555 1_555
H6 O17 1_555 1_555
O18 Tb3 1_555 1_555
H7 O18 1_555 1_555
H8 O18 1_555 1_555
O19 Tb3 1_555 1_555
H9 O19 1_555 1_555
H10 O19 1_555 1_555
O20 H11 1_555 1_555
H12 O20 1_555 1_555
N1 Cu1 1_555 1_555
N2 Cu3 1_555 1_555
N3 Cu4 1_555 1_555
N4 Cu5 1_555 1_555
N5 Cu1 1_555 1_555
N6 Cu2 1_555 1_555
N7 Cu4 1_555 1_555
C1 N1 1_555 1_555
H13 C1 1_555 1_555
C2 C1 1_555 1_555
H14 C2 1_555 1_555
C3 C2 1_555 1_555
C4 C3 1_555 1_555
H15 C4 1_555 1_555
C5 N1 1_555 1_555
H16 C5 1_555 1_555
C6 C3 1_555 1_555
C7 N2 1_555 1_555
H17 C7 1_555 1_555
C8 C7 1_555 1_555
H18 C8 1_555 1_555
C9 C8 1_555 1_555
C10 C9 1_555 1_555
H19 C10 1_555 1_555
C11 N2 1_555 1_555
H20 C11 1_555 1_555
C12 O3 1_555 1_555
C13 N3 1_555 1_555
H21 C13 1_555 1_555
C14 C13 1_555 1_555
H22 C14 1_555 1_555
C15 C14 1_555 1_555
C16 C15 1_555 1_555
H23 C16 1_555 1_555
C17 N3 1_555 1_555
H24 C17 1_555 1_555
C18 C15 1_555 1_555
C19 N4 1_555 1_555
H25 C19 1_555 1_555
C20 C19 1_555 1_555
H26 C20 1_555 1_555
C21 C24 1_555 1_555
C22 H27 1_555 1_555
C23 N4 1_555 1_555
H28 C23 1_555 1_555
C24 O7 1_555 1_555
C25 N5 1_555 1_555
H29 C25 1_555 1_555
C26 C25 1_555 1_555
H30 C26 1_555 1_555
C27 C26 1_555 1_555
C28 C27 1_555 1_555
H31 C28 1_555 1_555
C29 N5 1_555 1_555
H32 C29 1_555 1_555
C30 C27 1_555 1_555
C31 N6 1_555 1_555
H33 C31 1_555 1_555
C32 C31 1_555 1_555
H34 C32 1_555 1_555
C33 C32 1_555 1_555
C34 C33 1_555 1_555
H35 C34 1_555 1_555
C35 N6 1_555 1_555
H36 C35 1_555 1_555
C36 C33 1_555 1_555
C37 N7 1_555 1_555
H37 C37 1_555 1_555
C38 C37 1_555 1_555
H38 C38 1_555 1_555
C39 C38 1_555 1_555
C40 C39 1_555 1_555
H39 C40 1_555 1_555
C41 N7 1_555 1_555
H40 C41 1_555 1_555
C42 C39 1_555 1_555
Tb1_2 O12 1_555 1_555
Tb1_3 O12A_2 1_555 1_555
Tb1_4 O4A_2 1_555 1_555
Tb2_2 O11 1_555 1_555
Tb2_3 O11A_2 1_555 1_555
Tb3_2 O10 1_555 1_555
Tb3_3 O13 1_555 1_555
Tb3B O6B 1_555 1_555
Tb3B_2 O13B_2 1_555 1_555
Tb3A O10A 1_555 1_555
Cu1A Br1A 1_555 1_555
Cu2A Br2 1_555 1_555
Cu2A_2 Br1A 1_555 1_555
Cu3B Br4 1_555 1_555
Cu3_2 Br3_2 1_555 1_555
Cu3A Br3A 1_555 1_555
Cu4B Br4 1_555 1_555
Cu4B_2 Br4_2 1_555 1_555
Cu5B Br3 1_555 1_555
Cu5B_2 Br1_2 1_555 1_555
Cu5C Br1A 1_555 1_555
Br1B Cu5 1_555 1_555
Br2_2 Cu2A_2 1_555 1_555
Br3B Cu5 1_555 1_555
Br3_2 Cu5B_2 1_555 1_555
Br3A Cu2A_2 1_555 1_555
Br4_2 Cu3_2 1_555 1_555
Br4A Cu3A 1_555 1_555
Br5B Cu3 1_555 1_555
Br5B_2 Cu3_2 1_555 1_555
Br5C Cu3A 1_555 1_555
O1A Tb1 1_555 1_555
O2A Tb2 1_555 1_555
O3A Tb2 1_555 1_555
O4_2 Tb1 1_555 1_555
O4A Tb1 1_555 1_555
O4A_2 C12 1_555 1_555
O5B C18B 1_555 1_555
O6B C18B 1_555 1_555
O7B Tb3B 1_555 1_555
O8B C24 1_555 1_555
O9A C30A 1_555 1_555
O10_2 Tb3 1_555 1_555
O10B Tb3B 1_555 1_555
O10A C30A 1_555 1_555
O11A Tb2 1_555 1_555
O11_2 Tb2 1_555 1_555
O11A_2 C36A 1_555 1_555
O12A Tb1 1_555 1_555
O12_2 Tb1 1_555 1_555
O12A_2 C36A 1_555 1_555
O13_2 Tb3 1_555 1_555
O13B Tb3B 1_555 1_555
O13B_2 C42B 1_555 1_555
O14B C42B 1_555 1_555
O15A Tb1 1_555 1_555
H1A O15A 1_555 1_555
H2A O15A 1_555 1_555
O16A Tb2 1_555 1_555
H3A O16A 1_555 1_555
H4A O16A 1_555 1_555
O17B Tb3B 1_555 1_555
H5B O17B 1_555 1_555
H6B O17B 1_555 1_555
O18B Tb3B 1_555 1_555
H7B O18B 1_555 1_555
H8B O18B 1_555 1_555
O19B Tb3B 1_555 1_555
H9B O19B 1_555 1_555
H10B O19B 1_555 1_555
N1A Cu1A 1_555 1_555
N2A Cu3A 1_555 1_555
N3B Cu4B_2 1_555 1_555
N4B Cu5B_2 1_555 1_555
N5A Cu1A 1_555 1_555
N6A Cu2A_2 1_555 1_555
N7B Cu4B_2 1_555 1_555
C1A N1A 1_555 1_555
H13A C1A 1_555 1_555
C2A C1A 1_555 1_555
H14A C2A 1_555 1_555
C3A C2A 1_555 1_555
C4A C3A 1_555 1_555
H15A C4A 1_555 1_555
C5A N1A 1_555 1_555
H16A C5A 1_555 1_555
C6A O1A 1_555 1_555
C7A N2A 1_555 1_555
H17A C7A 1_555 1_555
C8A C7A 1_555 1_555
H18A C8A 1_555 1_555
C9A C8A 1_555 1_555
C10A C9A 1_555 1_555
H19A C10A 1_555 1_555
C11A N2A 1_555 1_555
H20A C11A 1_555 1_555
C12A O4 1_555 1_555
C13B N3B 1_555 1_555
H21B C13B 1_555 1_555
C14B C13B 1_555 1_555
H22B C14B 1_555 1_555
C15B C14B 1_555 1_555
C16B C15B 1_555 1_555
H23B C16B 1_555 1_555
C17B N3B 1_555 1_555
H24B C17B 1_555 1_555
C18B C15B 1_555 1_555
C19B N4B 1_555 1_555
H25B C19B 1_555 1_555
C20B C21 1_555 1_555
H26B C20B 1_555 1_555
C21B C20 1_555 1_555
C22B C21 1_555 1_555
H27B C22B 1_555 1_555
C23B N4B 1_555 1_555
H28B C23B 1_555 1_555
C24B O8 1_555 1_555
C25A N5A 1_555 1_555
H29A C25A 1_555 1_555
C26A C25A 1_555 1_555
H30A C26A 1_555 1_555
C27A C26A 1_555 1_555
C28A C27A 1_555 1_555
H31A C28A 1_555 1_555
C29A N5A 1_555 1_555
H32A C29A 1_555 1_555
C30A C27A 1_555 1_555
C31A N6A 1_555 1_555
H33A C31A 1_555 1_555
C32A C31A 1_555 1_555
H34A C32A 1_555 1_555
C33A C32A 1_555 1_555
C34A C33A 1_555 1_555
H35A C34A 1_555 1_555
C35A N6A 1_555 1_555
H36A C35A 1_555 1_555
C36A C33A 1_555 1_555
C37B N7B 1_555 1_555
H37B C37B 1_555 1_555
C38B C37B 1_555 1_555
H38B C38B 1_555 1_555
C39B C38B 1_555 1_555
C40B C39B 1_555 1_555
H39B C40B 1_555 1_555
C41B N7B 1_555 1_555
H40B C41B 1_555 1_555
C42B C39B 1_555 1_555
Br5 Cu3B 1_555 1_555
C4 C5 1_555 1_555
C9 C12 1_555 1_555
C10 C11 1_555 1_555
C16 C17 1_555 1_555
C22 C23 1_555 1_555
C22 C21B 1_555 1_555
C28 C29 1_555 1_555
C34 C35 1_555 1_555
C40 C41 1_555 1_555
Tb3B O8B 1_555 1_555
Cu3B Br3B 1_555 1_555
Cu4B Br5B 1_555 1_555
Cu4B_2 Br5B_2 1_555 1_555
Cu5B Br5B 1_555 1_555
Cu5B_2 Br5B_2 1_555 1_555
Cu5C Br3A 1_555 1_555
Cu5C Br5C 1_555 1_555
O2A C6A 1_555 1_555
O3A C12A 1_555 1_555
O7B C24B 1_555 1_555
C3A C6A 1_555 1_555
C4A C5A 1_555 1_555
C9A C12A 1_555 1_555
C10A C11A 1_555 1_555
C16B C17B 1_555 1_555
C19B C20B 1_555 1_555
C21B C24B 1_555 1_555
C22B C23B 1_555 1_555
C28A C29A 1_555 1_555
C34A C35A 1_555 1_555
C40B C41B 1_555 1_555

#END
