
#######################################################################
#
#                 Cambridge Crystallographic Data Centre
#                                CCDC 
#
#######################################################################
#
# If this CIF has been generated from an entry in the Cambridge 
# Structural Database, then it will include bibliographic, chemical, 
# crystal, experimental, refinement or atomic coordinate data resulting 
# from the CCDC's data processing and validation procedures.
#
#######################################################################

data_TETNOX
_symmetry_cell_setting           triclinic
_symmetry_space_group_name_H-M   'P -1'
_symmetry_Int_Tables_number      2
_space_group_name_Hall           '-P 1'
loop_
_symmetry_equiv_pos_site_id
_symmetry_equiv_pos_as_xyz
1 x,y,z
2 -x,-y,-z
_cell_length_a                   7.0454(4)
_cell_length_b                   12.1205(7)
_cell_length_c                   13.2868(8)
_cell_angle_alpha                70.681(1)
_cell_angle_beta                 86.723(1)
_cell_angle_gamma                80.613(1)
_cell_volume                     1056.38
loop_
_atom_site_label
_atom_site_type_symbol
_atom_site_fract_x
_atom_site_fract_y
_atom_site_fract_z
Co1 Co 0.5000 0.0000 0.0000
Co2 Co 0.0000 1.0000 -0.5000
O9 O 0.3413(3) 0.41566(17) -0.52708(16)
O11 O 0.2368(3) 0.93870(18) -0.39634(16)
H11 H 0.220(5) 0.917(3) -0.3291(15)
H12 H 0.326(4) 0.890(3) -0.407(3)
O12 O 0.1778(3) 1.09525(18) -0.61577(16)
H13 H 0.256(4) 1.137(3) -0.605(3)
H14 H 0.149(5) 1.121(3) -0.6812(16)
O13 O 0.4681(3) 0.12521(17) 0.08052(15)
H15 H 0.559(3) 0.136(3) 0.112(2)
H16 H 0.365(3) 0.140(3) 0.109(2)
O14 O 0.2211(3) -0.02452(18) 0.03909(17)
H17 H 0.171(4) -0.074(2) 0.021(3)
H18 H 0.143(4) 0.039(2) 0.025(3)
N1 N 0.4113(3) 0.1461(2) -0.14818(18)
N2 N 0.1965(3) 0.53593(19) -0.43638(19)
H19 H 0.157(5) 0.541(3) -0.377(3)
N3 N 0.0761(3) 0.8542(2) -0.56087(18)
C1 C 0.3900(5) 0.2586(3) -0.1513(2)
H20 H 0.4042 0.2743 -0.0869
C2 C 0.3481(5) 0.3536(3) -0.2436(2)
H21 H 0.3342 0.4322 -0.2416
C3 C 0.3268(4) 0.3341(2) -0.3383(2)
C4 C 0.3519(5) 0.2181(2) -0.3362(2)
H22 H 0.3408 0.2004 -0.3999
C5 C 0.3931(5) 0.1282(2) -0.2411(2)
H23 H 0.4096 0.0490 -0.2415
C6 C 0.1091(4) 0.7445(2) -0.4908(2)
H24 H 0.0944 0.7349 -0.4169
C7 C 0.1637(4) 0.6439(2) -0.5205(2)
C8 C 0.1800(4) 0.6573(2) -0.6282(2)
H25 H 0.2138 0.5905 -0.6515
C9 C 0.1457(4) 0.7708(2) -0.7009(2)
H26 H 0.1568 0.7827 -0.7752
C10 C 0.0955(4) 0.8662(2) -0.6653(2)
H27 H 0.0737 0.9434 -0.7162
C11 C 0.2887(4) 0.4318(2) -0.4428(2)
Co1_2 Co -0.5000 2.0000 -1.0000
O9A O -0.3413(3) 1.58434(17) -0.47292(16)
O11A O -0.2368(3) 1.06130(18) -0.60366(16)
H11A H -0.220(5) 1.083(3) -0.6709(15)
H12A H -0.326(4) 1.110(3) -0.593(3)
O12A O -0.1778(3) 0.90475(18) -0.38423(16)
H13A H -0.256(4) 0.863(3) -0.395(3)
H14A H -0.149(5) 0.879(3) -0.3188(16)
O13A O 0.5319(3) -0.12521(17) -0.08052(15)
H15A H 0.441(3) -0.136(3) -0.112(2)
H16A H 0.635(3) -0.140(3) -0.109(2)
O14A O 0.7789(3) 0.02452(18) -0.03909(17)
H17A H 0.829(4) 0.074(2) -0.021(3)
H18A H 0.857(4) -0.039(2) -0.025(3)
N1A N -0.4113(3) 1.8539(2) -0.85182(18)
N1A_2 N 0.5887(3) -0.1461(2) 0.14818(18)
N2A N -0.1965(3) 1.46407(19) -0.56362(19)
H19A H -0.157(5) 1.459(3) -0.623(3)
N3A N -0.0761(3) 1.1458(2) -0.43913(18)
C1A C -0.3900(5) 1.7414(3) -0.8487(2)
H20A H -0.4042 1.7257 -0.9131
C2A C -0.3481(5) 1.6464(3) -0.7564(2)
H21A H -0.3342 1.5678 -0.7584
C3A C -0.3268(4) 1.6659(2) -0.6617(2)
C4A C -0.3519(5) 1.7819(2) -0.6638(2)
H22A H -0.3408 1.7996 -0.6001
C5A C -0.3931(5) 1.8718(2) -0.7589(2)
H23A H -0.4096 1.9510 -0.7585
C6A C -0.1091(4) 1.2555(2) -0.5092(2)
H24A H -0.0944 1.2651 -0.5831
C7A C -0.1637(4) 1.3561(2) -0.4795(2)
C8A C -0.1800(4) 1.3427(2) -0.3718(2)
H25A H -0.2138 1.4095 -0.3485
C9A C -0.1457(4) 1.2292(2) -0.2991(2)
H26A H -0.1568 1.2173 -0.2248
C10A C -0.0955(4) 1.1338(2) -0.3347(2)
H27A H -0.0737 1.0566 -0.2838
C11A C -0.2887(4) 1.5682(2) -0.5572(2)
S1 S -0.06663(9) 0.20299(6) 0.11497(5)
O2 O -0.0406(3) 0.17951(18) 0.01252(15)
O3 O -0.2098(3) 0.13417(18) 0.18034(15)
O5 O -0.1317(4) 0.32946(19) 0.09462(19)
O7 O 0.1177(3) 0.1676(2) 0.17189(16)
O1 O 0.4485(3) 1.23906(19) -0.61734(18)
H1 H 0.454(5) 1.276(3) -0.6828(15)
H2 H 0.416(5) 1.287(3) -0.584(2)
O4 O -0.0126(5) 1.4228(2) -0.7467(2)
H3 H -0.050(6) 1.394(4) -0.790(3)
H4 H 0.056(6) 1.475(3) -0.780(3)
O6 O 0.2222(5) 1.5904(3) -0.8457(2)
H5 H 0.301(6) 1.542(3) -0.873(3)
H6 H 0.192(7) 1.646(3) -0.908(2)
O8 O 0.4846(5) 1.3774(3) -0.8290(3)
H7 H 0.394(5) 1.402(5) -0.875(3)
H8 H 0.593(4) 1.355(5) -0.854(4)
O10 O 0.2315(6) 1.4210(3) -0.9952(3)
H9 H 0.179(4) 1.5026(17) -1.025(3)
H10 H 0.1817 1.3556 -0.9479
loop_
_geom_bond_atom_site_label_1
_geom_bond_atom_site_label_2
_geom_bond_site_symmetry_1
_geom_bond_site_symmetry_2
Co1 O13 1_555 1_555
Co2 O11 1_555 1_555
S1 O2 1_555 1_555
O1 H1 1_555 1_555
H2 O1 1_555 1_555
O3 S1 1_555 1_555
O4 H3 1_555 1_555
H4 O4 1_555 1_555
O5 S1 1_555 1_555
O6 H5 1_555 1_555
H6 O6 1_555 1_555
O7 S1 1_555 1_555
O8 H7 1_555 1_555
H8 O8 1_555 1_555
O9 C11 1_555 1_555
O10 H9 1_555 1_555
H10 O10 1_555 1_555
O11 H11 1_555 1_555
H12 O11 1_555 1_555
O12 Co2 1_555 1_555
H13 O12 1_555 1_555
H14 O12 1_555 1_555
O13 H15 1_555 1_555
H16 O13 1_555 1_555
O14 Co1 1_555 1_555
H17 O14 1_555 1_555
H18 O14 1_555 1_555
N1 Co1 1_555 1_555
N2 H19 1_555 1_555
N3 Co2 1_555 1_555
C1 N1 1_555 1_555
H20 C1 1_555 1_555
C2 C1 1_555 1_555
H21 C2 1_555 1_555
C3 C2 1_555 1_555
C4 C3 1_555 1_555
H22 C4 1_555 1_555
C5 N1 1_555 1_555
H23 C5 1_555 1_555
C6 N3 1_555 1_555
H24 C6 1_555 1_555
C7 N2 1_555 1_555
C8 C7 1_555 1_555
H25 C8 1_555 1_555
C9 C8 1_555 1_555
H26 C9 1_555 1_555
C10 N3 1_555 1_555
H27 C10 1_555 1_555
C11 N2 1_555 1_555
Co1_2 N1A 1_555 1_555
O9A C11A 1_555 1_555
O11A Co2 1_555 1_555
H11A O11A 1_555 1_555
H12A O11A 1_555 1_555
O12A Co2 1_555 1_555
H13A O12A 1_555 1_555
H14A O12A 1_555 1_555
O13A Co1 1_555 1_555
H15A O13A 1_555 1_555
H16A O13A 1_555 1_555
O14A Co1 1_555 1_555
H17A O14A 1_555 1_555
H18A O14A 1_555 1_555
N1A C1A 1_555 1_555
N1A_2 Co1 1_555 1_555
N2A H19A 1_555 1_555
N3A Co2 1_555 1_555
C1A H20A 1_555 1_555
C2A C1A 1_555 1_555
H21A C2A 1_555 1_555
C3A C2A 1_555 1_555
C4A C3A 1_555 1_555
H22A C4A 1_555 1_555
C5A N1A 1_555 1_555
H23A C5A 1_555 1_555
C6A N3A 1_555 1_555
H24A C6A 1_555 1_555
C7A N2A 1_555 1_555
C8A C7A 1_555 1_555
H25A C8A 1_555 1_555
C9A C8A 1_555 1_555
H26A C9A 1_555 1_555
C10A N3A 1_555 1_555
H27A C10A 1_555 1_555
C11A N2A 1_555 1_555
C3 C11 1_555 1_555
C4 C5 1_555 1_555
C6 C7 1_555 1_555
C9 C10 1_555 1_555
C3A C11A 1_555 1_555
C4A C5A 1_555 1_555
C6A C7A 1_555 1_555
C9A C10A 1_555 1_555

#END
