
#######################################################################
#
#                 Cambridge Crystallographic Data Centre
#                                CCDC 
#
#######################################################################
#
# If this CIF has been generated from an entry in the Cambridge 
# Structural Database, then it will include bibliographic, chemical, 
# crystal, experimental, refinement or atomic coordinate data resulting 
# from the CCDC's data processing and validation procedures.
#
#######################################################################

data_TEVGUY
_symmetry_cell_setting           monoclinic
_symmetry_space_group_name_H-M   'C c'
_symmetry_Int_Tables_number      9
_space_group_name_Hall           'C -2yc'
loop_
_symmetry_equiv_pos_site_id
_symmetry_equiv_pos_as_xyz
1 x,y,z
2 x,-y,1/2+z
3 1/2+x,1/2+y,z
4 1/2+x,1/2-y,1/2+z
_cell_length_a                   18.8228(6)
_cell_length_b                   12.6905(3)
_cell_length_c                   8.6601(2)
_cell_angle_alpha                90
_cell_angle_beta                 94.646(2)
_cell_angle_gamma                90
_cell_volume                     2061.85
loop_
_atom_site_label
_atom_site_type_symbol
_atom_site_fract_x
_atom_site_fract_y
_atom_site_fract_z
Mn1 Mn 0.34700(4) 0.16445(5) 0.71161(6)
P1 P 0.40370(7) 0.08196(10) 0.35337(13)
N1 N 0.4495(2) 0.2573(3) 0.7964(4)
N2 N 0.3358(2) 0.3353(3) 0.6236(4)
C1 C 0.4972(3) 0.1056(4) 0.3387(5)
C2 C 0.5324(3) 0.1857(4) 0.4213(7)
H1 H 0.5077 0.2250 0.4902
C3 C 0.6030(3) 0.2093(5) 0.4051(8)
H2 H 0.6255 0.2638 0.4618
C4 C 0.6395(3) 0.1511(5) 0.3043(8)
H3 H 0.6871 0.1664 0.2932
C5 C 0.6069(3) 0.0704(5) 0.2190(8)
H4 H 0.6322 0.0316 0.1507
C6 C 0.5351(3) 0.0475(5) 0.2364(6)
H5 H 0.5127 -0.0069 0.1793
C7 C 0.3632(3) 0.1559(5) 0.1966(7)
H6 H 0.3742 0.2297 0.2152
H7 H 0.3850 0.1354 0.1034
C8 C 0.2821(3) 0.1452(5) 0.1654(6)
H8 H 0.2661 0.0820 0.2153
H9 H 0.2589 0.2053 0.2091
C9 C 0.2613(3) 0.1394(4) -0.0082(5)
C10 C 0.5066(3) 0.2186(5) 0.8779(6)
H10 H 0.5049 0.1496 0.9136
C11 C 0.5696(3) 0.2771(6) 0.9126(8)
H11 H 0.6087 0.2463 0.9676
C12 C 0.5725(3) 0.3782(6) 0.8652(8)
H12 H 0.6136 0.4175 0.8880
C13 C 0.5137(3) 0.4236(5) 0.7820(7)
C14 C 0.5113(4) 0.5315(5) 0.7319(8)
H13 H 0.5507 0.5747 0.7547
C15 C 0.4538(4) 0.5703(5) 0.6537(8)
H14 H 0.4536 0.6410 0.6253
C16 C 0.3919(3) 0.5076(5) 0.6111(7)
C17 C 0.3309(4) 0.5433(5) 0.5234(7)
H15 H 0.3283 0.6130 0.4903
C18 C 0.2761(4) 0.4776(6) 0.4864(8)
H16 H 0.2359 0.5011 0.4268
C19 C 0.2805(3) 0.3734(5) 0.5391(7)
H17 H 0.2423 0.3286 0.5128
C20 C 0.3919(3) 0.4013(4) 0.6595(6)
C21 C 0.4527(3) 0.3595(4) 0.7484(6)
O1 O 0.3846(2) 0.1281(3) 0.5015(4)
O2 O 0.3892(2) -0.0327(3) 0.3304(5)
O3 O 0.28903(18) 0.2084(3) -0.0916(4)
O4 O 0.21888(19) 0.0691(3) -0.0598(4)
O5 O 0.2339(2) 0.1160(3) 0.6201(4)
H18 H 0.229(3) 0.062(3) 0.560(5)
H19 H 0.222(3) 0.099(4) 0.708(3)
Mn1_2 Mn 0.34700(4) 0.16445(5) -0.28839(6)
Mn1A Mn 0.34700(4) -0.16445(5) 0.21161(6)
O2A O 0.3892(2) 0.0327(3) 0.8304(5)
O3_2 O 0.28903(18) 0.2084(3) 0.9084(4)
loop_
_geom_bond_atom_site_label_1
_geom_bond_atom_site_label_2
_geom_bond_site_symmetry_1
_geom_bond_site_symmetry_2
Mn1 N1 1_555 1_555
P1 C1 1_555 1_555
N1 C10 1_555 1_555
N2 Mn1 1_555 1_555
C1 C2 1_555 1_555
C2 H1 1_555 1_555
C3 C2 1_555 1_555
H2 C3 1_555 1_555
C4 C3 1_555 1_555
H3 C4 1_555 1_555
C5 C4 1_555 1_555
H4 C5 1_555 1_555
C6 C1 1_555 1_555
H5 C6 1_555 1_555
C7 P1 1_555 1_555
H6 C7 1_555 1_555
H7 C7 1_555 1_555
C8 C7 1_555 1_555
H8 C8 1_555 1_555
H9 C8 1_555 1_555
C9 C8 1_555 1_555
C10 H10 1_555 1_555
C11 C10 1_555 1_555
H11 C11 1_555 1_555
C12 C11 1_555 1_555
H12 C12 1_555 1_555
C13 C12 1_555 1_555
C14 C13 1_555 1_555
H13 C14 1_555 1_555
C15 C14 1_555 1_555
H14 C15 1_555 1_555
C16 C15 1_555 1_555
C17 C16 1_555 1_555
H15 C17 1_555 1_555
C18 C17 1_555 1_555
H16 C18 1_555 1_555
C19 N2 1_555 1_555
H17 C19 1_555 1_555
C20 N2 1_555 1_555
C21 N1 1_555 1_555
O1 Mn1 1_555 1_555
O2 P1 1_555 1_555
O3 C9 1_555 1_555
O4 C9 1_555 1_555
O5 Mn1 1_555 1_555
H18 O5 1_555 1_555
H19 O5 1_555 1_555
Mn1_2 O3 1_555 1_555
Mn1A O2 1_555 1_555
O2A Mn1 1_555 1_555
O3_2 Mn1 1_555 1_555
P1 O1 1_555 1_555
C5 C6 1_555 1_555
C13 C21 1_555 1_555
C16 C20 1_555 1_555
C18 C19 1_555 1_555
C20 C21 1_555 1_555

#END
