
#######################################################################
#
#                 Cambridge Crystallographic Data Centre
#                                CCDC 
#
#######################################################################
#
# If this CIF has been generated from an entry in the Cambridge 
# Structural Database, then it will include bibliographic, chemical, 
# crystal, experimental, refinement or atomic coordinate data resulting 
# from the CCDC's data processing and validation procedures.
#
#######################################################################

data_TEVQOB
_symmetry_cell_setting           monoclinic
_symmetry_space_group_name_H-M   'C 2/c'
_symmetry_Int_Tables_number      15
_space_group_name_Hall           '-C 2yn'
loop_
_symmetry_equiv_pos_site_id
_symmetry_equiv_pos_as_xyz
1 x,y,z
2 1/2+x,1/2+y,z
3 -x,y,1/2-z
4 1/2-x,1/2+y,1/2-z
5 -x,-y,-z
6 1/2-x,1/2-y,-z
7 x,-y,1/2+z
8 1/2+x,1/2-y,1/2+z
_cell_length_a                   13.385(4)
_cell_length_b                   11.664(4)
_cell_length_c                   19.470(6)
_cell_angle_alpha                90
_cell_angle_beta                 92.071(5)
_cell_angle_gamma                90
_cell_volume                     3037.72
loop_
_atom_site_label
_atom_site_type_symbol
_atom_site_fract_x
_atom_site_fract_y
_atom_site_fract_z
Mn1 Mn 0.86136(3) 0.24471(3) 0.435998(18)
O1 O 0.83301(14) 0.06338(14) 0.45117(9)
O2 O 0.7288(2) 0.1241(3) 0.52549(15)
O3 O 0.96260(17) 0.37426(17) 0.38979(11)
O4 O 0.99446(15) 0.19667(17) 0.36950(10)
N1 N 0.75630(16) 0.23778(16) 0.34171(11)
N2 N 0.45895(16) 0.24926(17) 0.03372(11)
C1 C 0.7478(2) 0.1450(2) 0.30123(13)
H2 H 0.7829 0.0793 0.3143
C2 C 0.68991(19) 0.1420(2) 0.24147(12)
H3 H 0.6861 0.0753 0.2154
C3 C 0.63728(18) 0.23887(18) 0.22029(12)
C4 C 0.64482(18) 0.3345(2) 0.26246(12)
H4 H 0.6099 0.4011 0.2509
C5 C 0.70414(19) 0.3299(2) 0.32128(12)
H5 H 0.7083 0.3952 0.3487
C6 C 0.5020(2) 0.3429(2) 0.06027(13)
H6 H 0.4926 0.4119 0.0370
C7 C 0.5594(2) 0.3434(2) 0.11995(13)
H7 H 0.5873 0.4116 0.1364
C8 C 0.57584(18) 0.24195(18) 0.15567(12)
C9 C 0.53171(19) 0.1442(2) 0.12783(13)
H8 H 0.5405 0.0739 0.1497
C10 C 0.47520(19) 0.1515(2) 0.06800(13)
H9 H 0.4465 0.0847 0.0502
C11 C 0.7712(2) 0.0462(3) 0.49604(13)
C12 C 0.7510(3) -0.0746(4) 0.5160(2)
H10 H 0.7978 -0.0975 0.5520
H11 H 0.7580 -0.1237 0.4769
H12 H 0.6843 -0.0806 0.5320
C13 C 1.0156(2) 0.2997(3) 0.36390(14)
C14 C 1.1064(3) 0.3347(4) 0.3254(2)
H13 H 1.1190 0.4149 0.3324
H14 H 1.0949 0.3200 0.2773
H15 H 1.1632 0.2913 0.3421
Mn1E Mn 0.63864(3) 0.25529(3) 0.564002(18)
Mn1G Mn 0.36136(3) 0.25529(3) -0.064002(18)
Mn1G_2 Mn 1.36136(3) 0.25529(3) 0.935998(18)
O1E O 0.66699(14) 0.43662(14) 0.54883(9)
O2E O 0.7712(2) 0.3759(3) 0.47451(15)
O3E O 0.53740(17) 0.12574(17) 0.61021(11)
O4E O 0.50554(15) 0.30333(17) 0.63050(10)
N1G N 1.25630(16) 0.26222(16) 0.84171(11)
N1E N 0.74370(16) 0.26222(16) 0.65829(11)
N2G N 0.95895(16) 0.25074(17) 0.53372(11)
N2B N 0.54105(16) 0.24926(17) 0.46628(11)
C1G C 1.2478(2) 0.3550(2) 0.80123(13)
H2G H 1.2829 0.4207 0.8143
C2G C 1.18991(19) 0.3580(2) 0.74147(12)
H3G H 1.1861 0.4247 0.7154
C3G C 1.13728(18) 0.26113(18) 0.72029(12)
C4G C 1.14482(18) 0.1655(2) 0.76246(12)
H4G H 1.1099 0.0989 0.7509
C5G C 1.20414(19) 0.1701(2) 0.82128(12)
H5G H 1.2083 0.1048 0.8487
C6G C 1.0020(2) 0.1571(2) 0.56027(13)
H6G H 0.9926 0.0881 0.5370
C7G C 1.0594(2) 0.1566(2) 0.61995(13)
H7G H 1.0873 0.0884 0.6364
C8G C 1.07584(18) 0.25805(18) 0.65567(12)
C9G C 1.03171(19) 0.3558(2) 0.62783(13)
H8G H 1.0405 0.4261 0.6497
C10G C 0.97520(19) 0.3485(2) 0.56800(13)
H9G H 0.9465 0.4153 0.5502
C11E C 0.7288(2) 0.4538(3) 0.50396(13)
C12E C 0.7490(3) 0.5746(4) 0.4840(2)
H10E H 0.7022 0.5975 0.4480
H11E H 0.7420 0.6237 0.5231
H12E H 0.8157 0.5806 0.4680
C13E C 0.4844(2) 0.2003(3) 0.63610(14)
C14E C 0.3936(3) 0.1653(4) 0.6746(2)
H13E H 0.3810 0.0851 0.6676
H14E H 0.4051 0.1800 0.7227
H15E H 0.3368 0.2087 0.6579
O5 O 1.0000 0.0591(2) 0.2500
H1 H 1.0049 0.1062 0.2878
H1B H 0.9951 0.1062 0.2122
loop_
_geom_bond_atom_site_label_1
_geom_bond_atom_site_label_2
_geom_bond_site_symmetry_1
_geom_bond_site_symmetry_2
Mn1 O1 1_555 1_555
O1 C11 1_555 1_555
O2 C11 1_555 1_555
O3 Mn1 1_555 1_555
O4 Mn1 1_555 1_555
O5 H1 1_555 1_555
N1 Mn1 1_555 1_555
N2 C6 1_555 1_555
C1 N1 1_555 1_555
H2 C1 1_555 1_555
C2 C1 1_555 1_555
H3 C2 1_555 1_555
C3 C2 1_555 1_555
C4 C3 1_555 1_555
H4 C4 1_555 1_555
C5 N1 1_555 1_555
H5 C5 1_555 1_555
C6 H6 1_555 1_555
C7 C6 1_555 1_555
H7 C7 1_555 1_555
C8 C3 1_555 1_555
C9 C8 1_555 1_555
H8 C9 1_555 1_555
C10 N2 1_555 1_555
H9 C10 1_555 1_555
C11 C12 1_555 1_555
C12 H10 1_555 1_555
H11 C12 1_555 1_555
H12 C12 1_555 1_555
C13 O3 1_555 1_555
C14 C13 1_555 1_555
H13 C14 1_555 1_555
H14 C14 1_555 1_555
H15 C14 1_555 1_555
Mn1E O2 1_555 1_555
Mn1G N2 1_555 1_555
Mn1G_2 N1G 1_555 1_555
O1E Mn1E 1_555 1_555
O2E Mn1 1_555 1_555
O3E Mn1E 1_555 1_555
O4E Mn1E 1_555 1_555
H1B O5 1_555 1_555
N1G C1G 1_555 1_555
N1E Mn1E 1_555 1_555
N2G Mn1 1_555 1_555
N2B Mn1E 1_555 1_555
C1G H2G 1_555 1_555
C2G C1G 1_555 1_555
H3G C2G 1_555 1_555
C3G C2G 1_555 1_555
C4G C3G 1_555 1_555
H4G C4G 1_555 1_555
C5G N1G 1_555 1_555
H5G C5G 1_555 1_555
C6G N2G 1_555 1_555
H6G C6G 1_555 1_555
C7G C6G 1_555 1_555
H7G C7G 1_555 1_555
C8G C3G 1_555 1_555
C9G C8G 1_555 1_555
H8G C9G 1_555 1_555
C10G N2G 1_555 1_555
H9G C10G 1_555 1_555
C11E O1E 1_555 1_555
C12E C11E 1_555 1_555
H10E C12E 1_555 1_555
H11E C12E 1_555 1_555
H12E C12E 1_555 1_555
C13E O3E 1_555 1_555
C14E C13E 1_555 1_555
H13E C14E 1_555 1_555
H14E C14E 1_555 1_555
H15E C14E 1_555 1_555
O4 C13 1_555 1_555
C4 C5 1_555 1_555
C7 C8 1_555 1_555
C9 C10 1_555 1_555
O2E C11E 1_555 1_555
O4E C13E 1_555 1_555
C4G C5G 1_555 1_555
C7G C8G 1_555 1_555
C9G C10G 1_555 1_555

#END
