
#######################################################################
#
#                 Cambridge Crystallographic Data Centre
#                                CCDC 
#
#######################################################################
#
# If this CIF has been generated from an entry in the Cambridge 
# Structural Database, then it will include bibliographic, chemical, 
# crystal, experimental, refinement or atomic coordinate data resulting 
# from the CCDC's data processing and validation procedures.
#
#######################################################################

data_TEVQUH01
_symmetry_cell_setting           orthorhombic
_symmetry_space_group_name_H-M   'P 21 21 21'
_symmetry_Int_Tables_number      19
_space_group_name_Hall           'P 2ac 2ab'
loop_
_symmetry_equiv_pos_site_id
_symmetry_equiv_pos_as_xyz
1 x,y,z
2 1/2-x,-y,1/2+z
3 -x,1/2+y,1/2-z
4 1/2+x,1/2-y,-z
_cell_length_a                   7.7877(6)
_cell_length_b                   9.8993(8)
_cell_length_c                   14.8928(12)
_cell_angle_alpha                90
_cell_angle_beta                 90
_cell_angle_gamma                90
_cell_volume                     1148.13
loop_
_atom_site_label
_atom_site_type_symbol
_atom_site_fract_x
_atom_site_fract_y
_atom_site_fract_z
Ni1 Ni 0.57270(9) 0.63465(7) 0.59092(4)
C1 C 0.6278(7) 0.8528(6) 0.7117(3)
C2 C 0.6045(8) 0.9583(6) 0.7728(4)
H1 H 0.7003 1.0041 0.7943
C3 C 0.3162(8) 0.9354(6) 0.7629(4)
H2 H 0.2059 0.9634 0.7779
C4 C 0.3379(7) 0.8300(6) 0.7000(4)
H3 H 0.2424 0.7874 0.6754
C5 C 0.8057(7) 0.8098(6) 0.6838(4)
C6 C 0.5393(7) 0.4264(6) 0.4592(4)
C7 C 0.5725(8) 0.3358(6) 0.3918(4)
H4 H 0.4820 0.2998 0.3588
C8 C 0.8581(8) 0.3532(6) 0.4216(4)
H5 H 0.9718 0.3303 0.4099
C9 C 0.8233(9) 0.4429(6) 0.4888(4)
H6 H 0.9139 0.4772 0.5225
C10 C 0.3556(8) 0.4724(6) 0.4815(4)
N1 N 0.4938(6) 0.7921(5) 0.6761(3)
N2 N 0.4505(6) 0.9953(5) 0.8010(3)
N3 N 0.6659(6) 0.4824(5) 0.5076(3)
N4 N 0.7361(7) 0.2982(6) 0.3727(4)
O1 O 0.8069(5) 0.7030(4) 0.6311(3)
O2 O 0.9309(5) 0.8678(4) 0.7093(3)
O3 O 0.3476(5) 0.5650(4) 0.5409(3)
O4 O 0.2374(6) 0.4204(6) 0.4424(4)
O5 O 0.5815(6) 0.7655(4) 0.4835(3)
H7 H 0.487(4) 0.788(6) 0.462(5)
H8 H 0.642(7) 0.834(4) 0.481(5)
Ni1B Ni 0.42730(9) 1.13465(7) 0.90908(4)
N2B N 0.5495(6) 0.4953(5) 0.6990(3)
loop_
_geom_bond_atom_site_label_1
_geom_bond_atom_site_label_2
_geom_bond_site_symmetry_1
_geom_bond_site_symmetry_2
Ni1 N1 1_555 1_555
C1 C2 1_555 1_555
C2 H1 1_555 1_555
C3 H2 1_555 1_555
C4 C3 1_555 1_555
H3 C4 1_555 1_555
C5 C1 1_555 1_555
C6 C7 1_555 1_555
C7 H4 1_555 1_555
C8 H5 1_555 1_555
C9 C8 1_555 1_555
H6 C9 1_555 1_555
C10 C6 1_555 1_555
N1 C1 1_555 1_555
N2 C2 1_555 1_555
N3 Ni1 1_555 1_555
N4 C7 1_555 1_555
O1 Ni1 1_555 1_555
O2 C5 1_555 1_555
O3 Ni1 1_555 1_555
O4 C10 1_555 1_555
O5 Ni1 1_555 1_555
H7 O5 1_555 1_555
H8 O5 1_555 1_555
Ni1B N2 1_555 1_555
N2B Ni1 1_555 1_555
C3 N2 1_555 1_555
C4 N1 1_555 1_555
C5 O1 1_555 1_555
C6 N3 1_555 1_555
C8 N4 1_555 1_555
C9 N3 1_555 1_555
C10 O3 1_555 1_555

#END
