
#######################################################################
#
#                 Cambridge Crystallographic Data Centre
#                                CCDC 
#
#######################################################################
#
# If this CIF has been generated from an entry in the Cambridge 
# Structural Database, then it will include bibliographic, chemical, 
# crystal, experimental, refinement or atomic coordinate data resulting 
# from the CCDC's data processing and validation procedures.
#
#######################################################################

data_TEVZAX
_symmetry_cell_setting           orthorhombic
_symmetry_space_group_name_H-M   'P 21 21 21'
_symmetry_Int_Tables_number      19
_space_group_name_Hall           'P 2ac 2ab'
loop_
_symmetry_equiv_pos_site_id
_symmetry_equiv_pos_as_xyz
1 x,y,z
2 1/2-x,-y,1/2+z
3 -x,1/2+y,1/2-z
4 1/2+x,1/2-y,-z
_cell_length_a                   7.1618(5)
_cell_length_b                   9.0356(6)
_cell_length_c                   19.9740(13)
_cell_angle_alpha                90
_cell_angle_beta                 90
_cell_angle_gamma                90
_cell_volume                     1292.54
loop_
_atom_site_label
_atom_site_type_symbol
_atom_site_fract_x
_atom_site_fract_y
_atom_site_fract_z
Mn1 Mn 0.18295(3) 0.99986(3) 0.787307(10)
O1 O 0.28307(18) 0.90107(13) 0.87759(5)
O2 O 0.3601(2) 1.06631(13) 0.95482(6)
O3 O 0.38006(18) 0.89394(13) 1.19278(5)
O4 O 0.44877(17) 0.65735(13) 1.21252(6)
O5 O 0.3000(2) 0.29670(14) 1.02912(6)
H1 H 0.2983 0.2169 1.0096
O6 O 0.2205(2) 0.38187(13) 0.92867(6)
O7 O 0.04985(18) 1.19252(13) 0.83370(6)
H2 H 0.0275 1.2564 0.8035
H3 H 0.1053 1.2228 0.8687
N1 N 0.4496(2) 1.14815(17) 0.78722(7)
N2 N 0.5134(2) 1.20426(17) 0.84537(7)
H4 H 0.4821 1.1737 0.8846
N3 N 0.6516(2) 1.33213(16) 0.76802(7)
C1 C 0.5375(3) 1.2284(2) 0.74222(9)
H5 H 0.5222 1.2146 0.6964
C2 C 0.6309(3) 1.3130(2) 0.83312(9)
H6 H 0.6911 1.3686 0.8658
C3 C 0.3192(2) 0.81593(17) 0.98802(8)
C4 C 0.3519(2) 0.84419(18) 1.05568(8)
H7 H 0.3691 0.9411 1.0701
C5 C 0.3590(2) 0.72837(17) 1.10196(8)
C6 C 0.3328(2) 0.58348(18) 1.08040(8)
H8 H 0.3385 0.5057 1.1108
C7 C 0.2978(2) 0.55556(18) 1.01274(8)
C8 C 0.2916(2) 0.67087(19) 0.96730(8)
H9 H 0.2687 0.6511 0.9224
C9 C 0.3187(3) 0.93665(18) 0.93679(8)
C10 C 0.4000(2) 0.76225(18) 1.17444(8)
C11 C 0.2676(3) 0.40368(19) 0.98603(8)
Mn1A Mn 0.31705(3) 1.00014(3) 1.287307(10)
Mn1B Mn 0.81705(3) 1.49986(3) 0.712693(10)
Mn1C Mn 0.68295(3) 0.50014(3) 1.212693(10)
O3A O 0.11994(18) 1.10606(13) 0.69278(5)
O4C O -0.05123(17) 0.84265(13) 0.78748(6)
N3B N 0.3484(2) 0.83213(16) 0.73198(7)
loop_
_geom_bond_atom_site_label_1
_geom_bond_atom_site_label_2
_geom_bond_site_symmetry_1
_geom_bond_site_symmetry_2
Mn1 O1 1_555 1_555
O1 C9 1_555 1_555
O2 C9 1_555 1_555
O3 C10 1_555 1_555
O4 C10 1_555 1_555
O5 H1 1_555 1_555
O6 C11 1_555 1_555
O7 Mn1 1_555 1_555
H2 O7 1_555 1_555
H3 O7 1_555 1_555
N1 Mn1 1_555 1_555
N2 N1 1_555 1_555
H4 N2 1_555 1_555
N3 C1 1_555 1_555
C1 N1 1_555 1_555
H5 C1 1_555 1_555
C2 N2 1_555 1_555
H6 C2 1_555 1_555
C3 C4 1_555 1_555
C4 H7 1_555 1_555
C5 C4 1_555 1_555
C6 C5 1_555 1_555
H8 C6 1_555 1_555
C7 C6 1_555 1_555
C8 C3 1_555 1_555
H9 C8 1_555 1_555
C9 C3 1_555 1_555
C10 C5 1_555 1_555
C11 O5 1_555 1_555
Mn1A O3 1_555 1_555
Mn1B N3 1_555 1_555
Mn1C O4 1_555 1_555
O3A Mn1 1_555 1_555
O4C Mn1 1_555 1_555
N3B Mn1 1_555 1_555
N3 C2 1_555 1_555
C7 C8 1_555 1_555
C7 C11 1_555 1_555

#END
