
#######################################################################
#
#                 Cambridge Crystallographic Data Centre
#                                CCDC 
#
#######################################################################
#
# If this CIF has been generated from an entry in the Cambridge 
# Structural Database, then it will include bibliographic, chemical, 
# crystal, experimental, refinement or atomic coordinate data resulting 
# from the CCDC's data processing and validation procedures.
#
#######################################################################

data_TEVZIF
_symmetry_cell_setting           monoclinic
_symmetry_space_group_name_H-M   'P 21'
_symmetry_Int_Tables_number      4
_space_group_name_Hall           'P 2yb'
loop_
_symmetry_equiv_pos_site_id
_symmetry_equiv_pos_as_xyz
1 x,y,z
2 -x,1/2+y,-z
_cell_length_a                   20.126(3)
_cell_length_b                   18.866(3)
_cell_length_c                   22.188(4)
_cell_angle_alpha                90
_cell_angle_beta                 94.783(2)
_cell_angle_gamma                90
_cell_volume                     8395.38
loop_
_atom_site_label
_atom_site_type_symbol
_atom_site_fract_x
_atom_site_fract_y
_atom_site_fract_z
Pb1 Pb 0.25712(4) 0.61645(4) 0.40007(4)
Pb2 Pb 0.07256(4) 0.47986(4) 0.45167(4)
Pb3 Pb -0.07902(4) 0.37871(4) 0.49471(4)
Pb4 Pb 0.49831(4) 0.42043(4) 0.12189(4)
Pb5 Pb 0.23711(5) 0.05066(5) 0.09627(4)
Pb6 Pb -0.00932(5) 0.26077(4) 0.37270(4)
Pb7 Pb 0.05820(4) 0.08348(5) 0.22427(4)
Pb8 Pb 0.13197(4) 0.65560(4) 0.51758(4)
Pb9 Pb 0.42106(4) 0.19046(4) 0.05463(4)
Pb10 Pb 0.39983(4) 0.74360(4) 0.36881(4)
Pb11 Pb 0.57627(4) 0.28833(4) 0.01603(4)
Pb12 Pb 0.56948(4) 0.60542(4) 0.15873(4)
Pb13 Pb 0.42657(4) 0.59070(4) 0.26105(4)
Pb14 Pb -0.09196(5) 0.08371(5) 0.31918(4)
Pb15 Pb 0.38363(5) 0.00575(4) -0.00368(4)
Pb16 Pb 0.08218(5) -0.06600(5) 0.11287(4)
C1 C -0.0434(19) 0.6765(19) 0.2435(15)
H1 H -0.0362 0.6969 0.2034
H2 H -0.0664 0.6303 0.2375
C2 C -0.0680(18) 0.3233(17) 0.0808(14)
H3 H -0.0291 0.3037 0.0620
H4 H -0.1090 0.3056 0.0578
C3 C 0.2011(16) 0.2812(15) -0.1414(14)
H5 H 0.1537 0.2955 -0.1427
H6 H 0.2288 0.3242 -0.1342
C4 C 0.5776(15) 0.1970(14) 0.2535(11)
H7 H 0.5396 0.2237 0.2688
C5 C 0.595(2) 0.1384(15) 0.2947(13)
H8 H 0.6298 0.1500 0.3273
H9 H 0.5560 0.1155 0.3112
C6 C 0.1576(11) 0.0733(11) 0.4433(11)
H10 H 0.1815 0.0946 0.4100
C7 C -0.1062(10) 0.4757(12) 0.2609(9)
H11 H -0.0601 0.4827 0.2484
C8 C 0.3350(11) 0.4143(11) -0.0655(10)
H12 H 0.3072 0.3932 -0.0348
C9 C 0.6035(11) 0.4053(11) 0.3392(9)
H13 H 0.5571 0.3934 0.3486
C10 C 0.2003(11) 0.0770(14) 0.4995(10)
H14 H 0.2093 0.1274 0.5095
H15 H 0.1763 0.0563 0.5324
C11 C 0.1943(10) 0.4359(13) 0.5892(9)
H16 H 0.1657 0.4296 0.6236
C12 C 0.5635(11) 0.4775(11) 0.2489(9)
H17 H 0.5160 0.4646 0.2534
C13 C 0.4915(13) 0.4973(12) 0.4747(11)
H18 H 0.4595 0.4591 0.4605
C14 C 0.1718(10) 0.2617(11) 0.5617(10)
H19 H 0.1952 0.2552 0.5241
C15 C 0.1189(11) 0.7238(11) 0.3199(9)
H20 H 0.1384 0.7726 0.3225
C16 C 0.1108(10) -0.0111(11) 0.3691(10)
H21 H 0.1022 -0.0631 0.3639
C17 C 0.4439(11) 0.3058(12) -0.0545(10)
H22 H 0.4751 0.3233 -0.0839
C18 C 0.2369(13) 0.5273(15) 0.5178(10)
H23 H 0.2274 0.4954 0.4822
C19 C 0.0716(11) 0.3256(9) 0.5113(10)
H24 H 0.0883 0.3214 0.4703
C20 C -0.0555(13) 0.1972(13) 0.2200(10)
H25 H -0.0129 0.2194 0.2371
C21 C 0.5430(12) 0.2382(11) 0.1489(10)
H26 H 0.5036 0.2636 0.1631
C22 C -0.0684(12) 0.4155(11) 0.3562(10)
H27 H -0.0202 0.4150 0.3483
C23 C 0.2975(12) 0.1447(11) -0.0317(11)
H28 H 0.2859 0.1627 0.0085
C24 C 0.1834(10) -0.0493(11) 0.2925(9)
H29 H 0.1588 -0.0949 0.2965
C25 C 0.0220(13) 0.6679(17) 0.2815(10)
H30 H 0.0498 0.6346 0.2592
C26 C 0.2580(9) -0.0576(11) 0.3213(9)
H31 H 0.2804 -0.0104 0.3257
C27 C 0.2989(10) 0.4716(11) -0.0945(11)
H32 H 0.2569 0.4530 -0.1149
H33 H 0.2870 0.5057 -0.0633
C28 C -0.1164(14) 0.2291(15) 0.2549(14)
H34 H -0.1567 0.2015 0.2393
C29 C 0.1279(13) 0.7253(13) 0.1585(11)
H35 H 0.0917 0.6968 0.1739
H36 H 0.1206 0.7755 0.1693
C30 C 0.1775(10) -0.0262(10) 0.2287(9)
H37 H 0.1969 0.0224 0.2259
C31 C 0.1849(10) 0.5120(11) 0.5662(9)
H38 H 0.1959 0.5444 0.6013
C32 C 0.5085(11) 0.0602(12) 0.1690(9)
H39 H 0.5540 0.0537 0.1547
C33 C 0.2638(14) -0.0957(14) 0.3780(11)
H40 H 0.3115 -0.1070 0.3879
H41 H 0.2501 -0.0634 0.4098
C34 C 0.3871(11) -0.0127(12) 0.1942(10)
H42 H 0.3989 -0.0626 0.1842
C35 C 0.2169(12) -0.0787(11) 0.1900(9)
H43 H 0.1978 -0.1271 0.1952
C36 C 0.4364(11) 0.5870(12) 0.4065(10)
H44 H 0.4029 0.5509 0.3911
C37 C 0.4191(8) 0.5891(10) 0.1186(8)
H45 H 0.4021 0.5429 0.1330
C38 C 0.4991(12) 0.5468(15) 0.4234(9)
H46 H 0.5342 0.5821 0.4371
C39 C 0.4548(12) 0.0343(10) 0.1182(10)
H47 H 0.4673 -0.0158 0.1095
C40 C 0.4565(11) 0.5744(12) 0.0602(10)
H48 H 0.4732 0.6217 0.0479
C41 C 0.2167(12) 0.2283(13) -0.0892(14)
H49 H 0.2015 0.2502 -0.0516
C42 C 0.5802(11) 0.5450(10) 0.2887(9)
H50 H 0.6274 0.5567 0.2815
C43 C -0.0650(16) 0.2138(13) 0.1560(12)
H51 H -0.1085 0.1937 0.1386
C44 C 0.2109(9) 0.7178(11) 0.2540(9)
H52 H 0.2076 0.7702 0.2596
C45 C 0.3728(10) 0.2949(12) -0.0893(9)
H53 H 0.3783 0.2628 -0.1244
C46 C 0.0276(9) 0.2625(10) 0.5206(10)
H54 H 0.0099 0.2684 0.5610
C47 C 0.3049(9) 0.5117(11) 0.5471(8)
H55 H 0.3160 0.5453 0.5813
C48 C 0.4065(14) 0.6232(10) 0.4631(10)
H56 H 0.4421 0.6573 0.4785
C49 C 0.5534(11) 0.4641(12) 0.4999(10)
H57 H 0.5721 0.4359 0.4677
H58 H 0.5859 0.5019 0.5120
C50 C 0.1312(10) 0.3321(10) 0.5570(9)
H59 H 0.1145 0.3416 0.5974
C51 C -0.1561(14) 0.4835(15) 0.2030(12)
H60 H -0.1475 0.5290 0.1829
H61 H -0.1479 0.4448 0.1744
C52 C 0.2764(11) 0.6925(12) 0.2764(9)
H62 H 0.2778 0.6396 0.2740
C53 C 0.1144(10) 0.6971(10) 0.3831(9)
H63 H 0.0855 0.7323 0.4022
C54 C 0.2873(12) 0.2054(12) -0.0755(11)
H64 H 0.3045 0.1901 -0.1144
C55 C 0.4386(13) 0.0140(13) 0.2436(10)
H65 H 0.4260 0.0630 0.2557
C56 C 0.4379(14) 0.3653(11) -0.0034(10)
H66 H 0.4113 0.3472 0.0295
C57 C 0.0436(13) 0.1933(17) 0.0051(11)
H67 H 0.0648 0.2283 0.0345
C58 C -0.0667(14) 0.2966(13) 0.1508(13)
H68 H -0.0272 0.3173 0.1750
C59 C 0.0900(12) 0.0892(13) 0.0663(11)
H69 H 0.1099 0.1212 0.0989
C60 C 0.0775(10) 0.6282(13) 0.3850(10)
H70 H 0.1061 0.5916 0.3672
C61 C 0.0862(13) 0.1257(16) 0.0064(12)
H71 H 0.0677 0.0924 -0.0258
C62 C 0.0371(16) 0.2232(16) -0.051(3)
H72 H 0.0810 0.2413 -0.0611
H73 H 0.0231 0.1861 -0.0813
C63 C 0.3340(11) 0.7253(11) 0.2412(8)
H74 H 0.3305 0.7774 0.2485
C64 C 0.4116(12) 0.5505(11) 0.0087(9)
H75 H 0.4367 0.5525 -0.0283
C65 C 0.6499(15) 0.3505(15) 0.3637(10)
H76 H 0.6486 0.3482 0.4082
H77 H 0.6358 0.3038 0.3468
C66 C 0.3122(14) 0.4339(11) 0.5698(10)
H78 H 0.3046 0.4006 0.5348
C67 C 0.6252(16) 0.3064(13) 0.2168(10)
H79 H 0.6694 0.3308 0.2181
C68 C 0.2199(14) 0.2553(15) 0.6142(13)
H80 H 0.2509 0.2961 0.6151
H81 H 0.1960 0.2570 0.6514
C69 C -0.1050(15) 0.4145(14) 0.3011(11)
H82 H -0.1523 0.4060 0.3099
C70 C 0.0091(10) 0.6312(11) 0.3422(9)
H83 H -0.0239 0.6602 0.3629
C71 C 0.0464(13) 0.0244(12) 0.3627(12)
H84 H 0.0181 -0.0001 0.3912
C72 C 0.3899(10) 0.0301(11) 0.1392(11)
H85 H 0.3749 0.0792 0.1481
C73 C 0.6060(11) 0.2890(11) 0.1528(9)
H86 H 0.6437 0.2616 0.1376
C74 C 0.1980(9) 0.6993(10) 0.1899(9)
H87 H 0.2022 0.6469 0.1848
C75 C 0.0867(10) 0.1106(10) 0.4448(10)
H88 H 0.0607 0.0846 0.4743
C76 C -0.1297(13) 0.3048(12) 0.2341(11)
H89 H -0.1758 0.3177 0.2441
C77 C 0.5574(10) 0.1741(13) 0.1856(9)
H90 H 0.5946 0.1468 0.1693
C78 C 0.3580(12) 0.6370(11) 0.0996(10)
H91 H 0.3742 0.6839 0.0858
C79 C 0.0512(11) 0.1039(12) 0.3841(10)
H92 H 0.0780 0.1299 0.3552
C80 C 0.0114(11) 0.0706(12) 0.0770(11)
H93 H -0.0073 0.0391 0.0435
C81 C 0.5824(9) 0.5301(11) 0.3535(9)
H94 H 0.5996 0.5734 0.3757
C82 C -0.0815(9) 0.4852(12) 0.3922(11)
H95 H -0.1292 0.4820 0.4015
C83 C 0.0667(11) 0.1956(13) 0.5226(11)
H96 H 0.0372 0.1557 0.5335
C84 C 0.4423(14) -0.0334(13) 0.2991(11)
H97 H 0.3965 -0.0435 0.3100
H98 H 0.4631 -0.0791 0.2893
C85 C 0.2892(11) -0.0795(12) 0.2201(10)
H99 H 0.3144 -0.1146 0.1970
C86 C 0.3134(11) 0.7168(11) 0.1730(10)
H100 H 0.3433 0.7477 0.1505
C87 C 0.4047(10) 0.5694(12) 0.5140(9)
H101 H 0.3942 0.5951 0.5515
C88 C -0.0788(10) 0.5470(12) 0.3506(10)
H102 H -0.0948 0.5889 0.3729
C89 C 0.1773(12) 0.1138(13) -0.0575(10)
H103 H 0.1460 0.0745 -0.0706
C90 C -0.0302(13) 0.1404(14) 0.0761(10)
H104 H -0.0783 0.1280 0.0776
C91 C 0.6057(12) 0.4166(11) 0.2705(10)
H105 H 0.6527 0.4246 0.2607
C92 C 0.4039(10) 0.4328(10) -0.0341(10)
H106 H 0.4332 0.4553 -0.0630
C93 C 0.3770(10) 0.4188(12) 0.6028(10)
H107 H 0.3770 0.3694 0.6177
H108 H 0.4124 0.4229 0.5746
C94 C 0.2462(11) 0.0861(12) -0.0508(9)
H109 H 0.2573 0.0653 -0.0902
C95 C 0.3159(12) 0.6033(13) 0.0490(10)
H110 H 0.3008 0.5557 0.0622
C96 C 0.2529(11) 0.6498(13) 0.0280(9)
H111 H 0.2277 0.6274 -0.0072
H112 H 0.2231 0.6535 0.0612
O1 O 0.5141(8) 0.5350(8) 0.0784(6)
O2 O 0.4601(7) 0.6177(8) 0.1641(7)
O3 O -0.0665(11) 0.3983(11) 0.0780(9)
H113 H -0.1050 0.4136 0.0681
O4 O 0.2749(10) 0.7181(10) 0.0122(10)
H114 H 0.2652 0.7251 -0.0248
O5 O 0.3534(6) 0.5949(7) -0.0015(6)
O6 O 0.3946(7) 0.4804(7) 0.0181(6)
O7 O 0.3346(8) 0.5080(9) -0.1377(8)
H115 H 0.3129 0.5439 -0.1501
O8 O 0.3461(7) 0.3590(7) -0.1123(6)
O9 O 0.3293(7) 0.2611(8) -0.0514(7)
O10 O 0.4708(7) 0.2462(7) -0.0269(6)
O11 O 0.5019(7) 0.3779(8) 0.0183(7)
O12 O 0.2139(16) 0.2510(18) -0.1970(14)
H116 H 0.1777 0.2447 -0.2180
O13 O 0.1756(8) 0.1657(9) -0.1031(8)
O14 O 0.2539(8) 0.0300(7) -0.0027(6)
O15 O -0.080(2) 0.722(2) 0.2767(18)
H117 H -0.1165 0.7316 0.2572
O16 O 0.1581(7) 0.1431(9) -0.0036(7)
O17 O 0.1248(9) 0.0276(9) 0.0653(8)
O18 O 0.0109(8) 0.0342(9) 0.1318(7)
O19 O -0.0100(9) 0.1815(10) 0.1264(8)
O20 O -0.0221(8) 0.1804(12) 0.0192(7)
O21 O 0.000(2) 0.268(2) -0.0553(18)
H118 H -0.0380 0.2518 -0.0673
O22 O -0.0538(8) 0.1252(9) 0.2335(7)
O23 O -0.1092(7) 0.2161(8) 0.3154(7)
O24 O -0.0845(9) 0.3511(8) 0.2668(7)
O25 O -0.1251(10) 0.3199(10) 0.1737(8)
O26 O -0.0796(7) 0.3568(8) 0.3945(6)
O27 O -0.0449(7) 0.4872(7) 0.4486(6)
O28 O -0.0125(6) 0.5609(7) 0.3399(6)
O29 O -0.1230(7) 0.5387(7) 0.2987(6)
O30 O -0.2207(10) 0.4813(10) 0.2159(10)
H119 H -0.2456 0.4855 0.1838
O31 O 0.0668(7) 0.6052(7) 0.4416(6)
O32 O 0.1723(7) 0.6950(7) 0.4206(7)
O33 O 0.1624(7) 0.6802(8) 0.2901(7)
O34 O 0.0559(8) 0.7283(7) 0.2880(7)
O35 O 0.2916(7) 0.7151(8) 0.3383(6)
O36 O 0.3953(7) 0.7096(8) 0.2621(6)
O37 O 0.1252(9) 0.7191(10) 0.0962(8)
H120 H 0.0882 0.7341 0.0810
O38 O 0.2464(7) 0.7355(9) 0.1547(6)
O39 O 0.3245(7) 0.6475(7) 0.1570(6)
O40 O 0.3451(8) 0.0016(8) 0.0911(6)
O41 O 0.4566(8) 0.0702(8) 0.0630(7)
O42 O 0.4988(7) 0.1330(7) 0.1819(7)
O43 O 0.5024(8) 0.0161(8) 0.2222(7)
O44 O 0.4807(8) -0.0014(9) 0.3512(7)
H121 H 0.5212 -0.0118 0.3503
O45 O 0.3204(7) -0.0127(7) 0.2132(7)
O46 O 0.2064(8) -0.0615(9) 0.1290(7)
O47 O 0.1123(8) -0.0246(8) 0.2071(7)
O48 O 0.1498(8) 0.0088(8) 0.3255(6)
O49 O 0.2292(8) -0.1553(8) 0.3808(7)
H122 H 0.2512 -0.1890 0.3677
O50 O 0.2918(8) -0.1037(7) 0.2791(6)
O51 O 0.1423(8) -0.0010(7) 0.4288(6)
O52 O 0.2606(8) 0.0420(10) 0.4970(8)
H123 H 0.2574 0.0008 0.5108
O53 O 0.0910(8) 0.1812(8) 0.4620(7)
O54 O -0.0122(8) 0.1354(8) 0.3810(7)
O55 O 0.0104(9) 0.0212(8) 0.3050(6)
O56 O -0.0280(7) 0.2623(7) 0.4769(6)
O57 O 0.0345(7) 0.3902(7) 0.5132(7)
O58 O 0.1736(8) 0.3866(7) 0.5445(6)
O59 O 0.1223(8) 0.2005(8) 0.5674(6)
O60 O 0.1185(7) 0.5289(8) 0.5412(7)
O61 O 0.2298(7) 0.5982(8) 0.4992(6)
O62 O 0.2589(8) 0.4253(8) 0.6109(7)
O63 O 0.3921(8) 0.4651(10) 0.6524(8)
H124 H 0.4322 0.4774 0.6534
O64 O 0.3526(7) 0.5218(7) 0.4984(6)
O65 O 0.3523(8) 0.6657(8) 0.4485(6)
O66 O 0.4400(8) 0.6353(8) 0.3601(7)
O67 O 0.5186(8) 0.5148(10) 0.3723(8)
O68 O 0.5468(10) 0.4192(10) 0.5506(8)
H125 H 0.5383 0.4439 0.5805
O69 O 0.4642(7) 0.5348(8) 0.5261(6)
O70 O 0.5430(8) 0.6050(7) 0.2665(6)
O71 O 0.5695(7) 0.4916(7) 0.1877(6)
O72 O 0.5799(8) 0.3548(8) 0.2409(7)
O73 O 0.7177(8) 0.3652(10) 0.3492(8)
H126 H 0.7394 0.3827 0.3796
O74 O 0.6259(6) 0.4726(8) 0.3709(6)
O75 O 0.5942(7) 0.3488(8) 0.1138(7)
O76 O 0.5309(7) 0.2201(8) 0.0868(7)
O77 O 0.6343(10) 0.2436(7) 0.2537(7)
O78 O 0.3623(7) 0.1218(8) -0.0241(7)
O79 O 0.619(5) 0.101(5) 0.244(4)
H127 H 0.5903 0.1024 0.2143
O80 O 0.255(2) 0.195(3) 0.613(2)
H128 H 0.2327 0.1618 0.6271
Pb8A Pb -0.13197(4) 0.15560(4) 0.48242(4)
Pb15A Pb 0.61637(5) 0.50575(4) 0.00368(4)
O1A O 0.4859(8) 0.0350(8) -0.0784(6)
O56A O 0.0280(7) 0.7623(7) 0.5231(6)
O81 O 0.2487(10) 0.0595(12) 0.6512(9)
O82 O 0.1931(9) -0.0868(10) -0.0471(9)
O83 O 0.2035(10) -0.1713(10) 0.0505(8)
O84 O 0.2581(18) 0.618(2) -0.173(2)
O85 O 0.2422(16) 0.7373(13) -0.1074(10)
O86 O 0.2285(11) -0.0796(14) 0.5431(13)
O87 O 0.4610(14) 0.8097(14) 0.1927(13)
O88 O 0.4939(13) 0.2859(15) 0.5175(10)
O89 O 0.3852(13) 0.2274(16) 0.5644(12)
loop_
_geom_bond_atom_site_label_1
_geom_bond_atom_site_label_2
_geom_bond_site_symmetry_1
_geom_bond_site_symmetry_2
Pb1 O32 1_555 1_555
Pb2 O27 1_555 1_555
Pb3 O26 1_555 1_555
Pb4 O1 1_555 1_555
Pb5 O14 1_555 1_555
Pb6 O23 1_555 1_555
Pb7 O18 1_555 1_555
Pb8 O31 1_555 1_555
Pb9 O10 1_555 1_555
Pb10 O35 1_555 1_555
Pb11 O10 1_555 1_555
Pb12 O1 1_555 1_555
Pb13 O2 1_555 1_555
Pb14 O22 1_555 1_555
Pb15 O14 1_555 1_555
Pb16 O17 1_555 1_555
C1 H1 1_555 1_555
H2 C1 1_555 1_555
C2 H3 1_555 1_555
H4 C2 1_555 1_555
C3 H5 1_555 1_555
H6 C3 1_555 1_555
C4 H7 1_555 1_555
C5 C4 1_555 1_555
H8 C5 1_555 1_555
H9 C5 1_555 1_555
C6 H10 1_555 1_555
C7 H11 1_555 1_555
C8 H12 1_555 1_555
C9 H13 1_555 1_555
C10 C6 1_555 1_555
H14 C10 1_555 1_555
H15 C10 1_555 1_555
C11 H16 1_555 1_555
C12 H17 1_555 1_555
C13 H18 1_555 1_555
C14 H19 1_555 1_555
C15 H20 1_555 1_555
C16 H21 1_555 1_555
C17 H22 1_555 1_555
C18 H23 1_555 1_555
C19 H24 1_555 1_555
C20 H25 1_555 1_555
C21 H26 1_555 1_555
C22 H27 1_555 1_555
C23 H28 1_555 1_555
C24 H29 1_555 1_555
C25 C1 1_555 1_555
H30 C25 1_555 1_555
C26 C24 1_555 1_555
H31 C26 1_555 1_555
C27 C8 1_555 1_555
H32 C27 1_555 1_555
H33 C27 1_555 1_555
C28 C20 1_555 1_555
H34 C28 1_555 1_555
C29 H35 1_555 1_555
H36 C29 1_555 1_555
C30 C24 1_555 1_555
H37 C30 1_555 1_555
C31 C11 1_555 1_555
H38 C31 1_555 1_555
C32 H39 1_555 1_555
C33 C26 1_555 1_555
H40 C33 1_555 1_555
H41 C33 1_555 1_555
C34 H42 1_555 1_555
C35 C30 1_555 1_555
H43 C35 1_555 1_555
C36 H44 1_555 1_555
C37 H45 1_555 1_555
C38 C13 1_555 1_555
H46 C38 1_555 1_555
C39 C32 1_555 1_555
H47 C39 1_555 1_555
C40 C37 1_555 1_555
H48 C40 1_555 1_555
C41 C3 1_555 1_555
H49 C41 1_555 1_555
C42 C12 1_555 1_555
H50 C42 1_555 1_555
C43 C20 1_555 1_555
H51 C43 1_555 1_555
C44 H52 1_555 1_555
C45 C17 1_555 1_555
H53 C45 1_555 1_555
C46 C19 1_555 1_555
H54 C46 1_555 1_555
C47 C18 1_555 1_555
H55 C47 1_555 1_555
C48 C36 1_555 1_555
H56 C48 1_555 1_555
C49 C13 1_555 1_555
H57 C49 1_555 1_555
H58 C49 1_555 1_555
C50 C14 1_555 1_555
H59 C50 1_555 1_555
C51 C7 1_555 1_555
H60 C51 1_555 1_555
H61 C51 1_555 1_555
C52 C44 1_555 1_555
H62 C52 1_555 1_555
C53 C15 1_555 1_555
H63 C53 1_555 1_555
C54 C23 1_555 1_555
H64 C54 1_555 1_555
C55 C34 1_555 1_555
H65 C55 1_555 1_555
C56 C17 1_555 1_555
H66 C56 1_555 1_555
C57 H67 1_555 1_555
C58 C2 1_555 1_555
H68 C58 1_555 1_555
C59 H69 1_555 1_555
C60 C53 1_555 1_555
H70 C60 1_555 1_555
C61 C57 1_555 1_555
H71 C61 1_555 1_555
C62 C57 1_555 1_555
H72 C62 1_555 1_555
H73 C62 1_555 1_555
C63 C52 1_555 1_555
H74 C63 1_555 1_555
C64 C40 1_555 1_555
H75 C64 1_555 1_555
C65 C9 1_555 1_555
H76 C65 1_555 1_555
H77 C65 1_555 1_555
C66 C47 1_555 1_555
H78 C66 1_555 1_555
C67 H79 1_555 1_555
C68 C14 1_555 1_555
H80 C68 1_555 1_555
H81 C68 1_555 1_555
C69 C7 1_555 1_555
H82 C69 1_555 1_555
C70 C25 1_555 1_555
H83 C70 1_555 1_555
C71 C16 1_555 1_555
H84 C71 1_555 1_555
C72 C34 1_555 1_555
H85 C72 1_555 1_555
C73 C21 1_555 1_555
H86 C73 1_555 1_555
C74 C29 1_555 1_555
H87 C74 1_555 1_555
C75 C6 1_555 1_555
H88 C75 1_555 1_555
C76 C28 1_555 1_555
H89 C76 1_555 1_555
C77 C4 1_555 1_555
H90 C77 1_555 1_555
C78 C37 1_555 1_555
H91 C78 1_555 1_555
C79 C71 1_555 1_555
H92 C79 1_555 1_555
C80 C59 1_555 1_555
H93 C80 1_555 1_555
C81 C42 1_555 1_555
H94 C81 1_555 1_555
C82 C22 1_555 1_555
H95 C82 1_555 1_555
C83 C46 1_555 1_555
H96 C83 1_555 1_555
C84 C55 1_555 1_555
H97 C84 1_555 1_555
H98 C84 1_555 1_555
C85 C35 1_555 1_555
H99 C85 1_555 1_555
C86 C63 1_555 1_555
H100 C86 1_555 1_555
C87 C48 1_555 1_555
H101 C87 1_555 1_555
C88 C82 1_555 1_555
H102 C88 1_555 1_555
C89 H103 1_555 1_555
C90 C80 1_555 1_555
H104 C90 1_555 1_555
C91 C9 1_555 1_555
H105 C91 1_555 1_555
C92 C8 1_555 1_555
H106 C92 1_555 1_555
C93 C66 1_555 1_555
H107 C93 1_555 1_555
H108 C93 1_555 1_555
C94 C23 1_555 1_555
H109 C94 1_555 1_555
C95 C78 1_555 1_555
H110 C95 1_555 1_555
C96 C95 1_555 1_555
H111 C96 1_555 1_555
H112 C96 1_555 1_555
O1 C40 1_555 1_555
O2 Pb12 1_555 1_555
O3 C2 1_555 1_555
H113 O3 1_555 1_555
O4 C96 1_555 1_555
H114 O4 1_555 1_555
O5 C64 1_555 1_555
O6 C64 1_555 1_555
O7 C27 1_555 1_555
H115 O7 1_555 1_555
O8 C8 1_555 1_555
O9 C45 1_555 1_555
O10 C17 1_555 1_555
O11 Pb4 1_555 1_555
O12 C3 1_555 1_555
H116 O12 1_555 1_555
O13 C41 1_555 1_555
O14 C94 1_555 1_555
O15 C1 1_555 1_555
H117 O15 1_555 1_555
O16 C61 1_555 1_555
O17 Pb5 1_555 1_555
O18 Pb16 1_555 1_555
O19 C43 1_555 1_555
O20 C57 1_555 1_555
O21 C62 1_555 1_555
H118 O21 1_555 1_555
O22 Pb7 1_555 1_555
O23 Pb14 1_555 1_555
O24 C69 1_555 1_555
O25 C58 1_555 1_555
O26 Pb6 1_555 1_555
O27 Pb3 1_555 1_555
O28 C70 1_555 1_555
O29 C7 1_555 1_555
O30 C51 1_555 1_555
H119 O30 1_555 1_555
O31 Pb2 1_555 1_555
O32 Pb8 1_555 1_555
O33 C15 1_555 1_555
O34 C15 1_555 1_555
O35 Pb1 1_555 1_555
O36 Pb10 1_555 1_555
O37 C29 1_555 1_555
H120 O37 1_555 1_555
O38 C74 1_555 1_555
O39 C78 1_555 1_555
O40 Pb5 1_555 1_555
O41 Pb9 1_555 1_555
O42 C32 1_555 1_555
O43 C32 1_555 1_555
O44 C84 1_555 1_555
H121 O44 1_555 1_555
O45 C34 1_555 1_555
O46 Pb5 1_555 1_555
O47 Pb7 1_555 1_555
O48 C16 1_555 1_555
O49 C33 1_555 1_555
H122 O49 1_555 1_555
O50 C26 1_555 1_555
O51 C6 1_555 1_555
O52 C10 1_555 1_555
H123 O52 1_555 1_555
O53 C75 1_555 1_555
O54 Pb6 1_555 1_555
O55 Pb7 1_555 1_555
O56 Pb3 1_555 1_555
O57 Pb2 1_555 1_555
O58 C11 1_555 1_555
O59 C14 1_555 1_555
O60 Pb2 1_555 1_555
O61 Pb1 1_555 1_555
O62 C11 1_555 1_555
O63 C93 1_555 1_555
H124 O63 1_555 1_555
O64 C47 1_555 1_555
O65 Pb1 1_555 1_555
O66 Pb10 1_555 1_555
O67 C38 1_555 1_555
O68 C49 1_555 1_555
H125 O68 1_555 1_555
O69 C13 1_555 1_555
O70 Pb12 1_555 1_555
O71 Pb4 1_555 1_555
O72 C67 1_555 1_555
O73 C65 1_555 1_555
H126 O73 1_555 1_555
O74 C9 1_555 1_555
O75 Pb4 1_555 1_555
O76 Pb9 1_555 1_555
O77 C4 1_555 1_555
O78 Pb9 1_555 1_555
O79 C5 1_555 1_555
H127 O79 1_555 1_555
O80 C68 1_555 1_555
H128 O80 1_555 1_555
Pb8A O56 1_555 1_555
Pb15A O1 1_555 1_555
O1A Pb15 1_555 1_555
O56A Pb8 1_555 1_555
Pb3 O57 1_555 1_555
Pb6 O56 1_555 1_555
Pb8 O60 1_555 1_555
Pb8 O61 1_555 1_555
Pb10 O65 1_555 1_555
Pb11 O11 1_555 1_555
Pb11 O75 1_555 1_555
Pb11 O76 1_555 1_555
Pb12 O71 1_555 1_555
Pb13 O36 1_555 1_555
Pb13 O66 1_555 1_555
Pb13 O70 1_555 1_555
Pb14 O54 1_555 1_555
Pb14 O55 1_555 1_555
Pb15 O40 1_555 1_555
Pb15 O41 1_555 1_555
Pb15 O78 1_555 1_555
Pb16 O46 1_555 1_555
Pb16 O47 1_555 1_555
C12 C91 1_555 1_555
C12 O71 1_555 1_555
C16 O51 1_555 1_555
C18 C31 1_555 1_555
C18 O61 1_555 1_555
C19 C50 1_555 1_555
C19 O57 1_555 1_555
C20 O22 1_555 1_555
C21 C77 1_555 1_555
C21 O76 1_555 1_555
C22 C69 1_555 1_555
C22 O26 1_555 1_555
C23 O78 1_555 1_555
C24 O48 1_555 1_555
C25 O34 1_555 1_555
C28 O23 1_555 1_555
C30 O47 1_555 1_555
C31 O60 1_555 1_555
C35 O46 1_555 1_555
C36 C38 1_555 1_555
C36 O66 1_555 1_555
C37 O2 1_555 1_555
C39 C72 1_555 1_555
C39 O41 1_555 1_555
C41 C54 1_555 1_555
C42 O70 1_555 1_555
C43 C58 1_555 1_555
C44 C74 1_555 1_555
C44 O33 1_555 1_555
C45 O8 1_555 1_555
C46 O56 1_555 1_555
C48 O65 1_555 1_555
C50 O58 1_555 1_555
C52 O35 1_555 1_555
C53 O32 1_555 1_555
C54 O9 1_555 1_555
C55 O43 1_555 1_555
C56 C92 1_555 1_555
C56 O11 1_555 1_555
C59 C61 1_555 1_555
C59 O17 1_555 1_555
C60 C70 1_555 1_555
C60 O31 1_555 1_555
C63 O36 1_555 1_555
C66 O62 1_555 1_555
C67 C73 1_555 1_555
C67 O77 1_555 1_555
C71 O55 1_555 1_555
C72 O40 1_555 1_555
C73 O75 1_555 1_555
C75 C79 1_555 1_555
C76 O24 1_555 1_555
C76 O25 1_555 1_555
C77 O42 1_555 1_555
C79 O54 1_555 1_555
C80 O18 1_555 1_555
C81 O67 1_555 1_555
C81 O74 1_555 1_555
C82 O27 1_555 1_555
C83 O53 1_555 1_555
C83 O59 1_555 1_555
C85 O45 1_555 1_555
C85 O50 1_555 1_555
C86 O38 1_555 1_555
C86 O39 1_555 1_555
C87 O64 1_555 1_555
C87 O69 1_555 1_555
C88 O28 1_555 1_555
C88 O29 1_555 1_555
C89 C94 1_555 1_555
C89 O13 1_555 1_555
C89 O16 1_555 1_555
C90 O19 1_555 1_555
C90 O20 1_555 1_555
C91 O72 1_555 1_555
C92 O6 1_555 1_555
C95 O5 1_555 1_555

#END
