
#######################################################################
#
#                 Cambridge Crystallographic Data Centre
#                                CCDC 
#
#######################################################################
#
# If this CIF has been generated from an entry in the Cambridge 
# Structural Database, then it will include bibliographic, chemical, 
# crystal, experimental, refinement or atomic coordinate data resulting 
# from the CCDC's data processing and validation procedures.
#
#######################################################################

data_TEWDEF
_symmetry_cell_setting           monoclinic
_symmetry_space_group_name_H-M   'P 21/n'
_symmetry_Int_Tables_number      14
_space_group_name_Hall           '-P 2yn'
loop_
_symmetry_equiv_pos_site_id
_symmetry_equiv_pos_as_xyz
1 x,y,z
2 1/2-x,1/2+y,1/2-z
3 -x,-y,-z
4 1/2+x,1/2-y,1/2+z
_cell_length_a                   11.6336(7)
_cell_length_b                   6.9889(4)
_cell_length_c                   35.670(2)
_cell_angle_alpha                90
_cell_angle_beta                 99.3710(10)
_cell_angle_gamma                90
_cell_volume                     2861.48
loop_
_atom_site_label
_atom_site_type_symbol
_atom_site_fract_x
_atom_site_fract_y
_atom_site_fract_z
Zn1 Zn 0.05496(4) 0.49177(7) 0.051578(14)
Zn2 Zn -0.28372(4) 1.23779(7) 0.200200(13)
Cl1 Cl 0.34182(12) 2.3077(2) 0.33112(4)
Cl2 Cl 0.65901(16) 1.4204(3) 0.06345(5)
N1 N -0.2123(3) 1.0555(5) 0.16492(10)
N2 N 0.2035(3) 0.4221(5) 0.08657(10)
O1 O -0.1476(3) 1.4114(4) 0.21096(9)
O2 O 0.6020(3) 0.3875(5) 0.16374(9)
O3 O 0.1293(3) 0.5898(5) 0.00804(9)
O4 O -0.0439(3) 1.8392(5) 0.25423(10)
O5 O -0.2206(3) 1.5891(5) 0.25279(9)
O6 O 0.5289(3) 0.1016(5) 0.17205(10)
O7 O 0.0154(3) 0.7579(4) -0.03549(9)
O8 O 0.2797(3) 0.8705(5) 0.02324(11)
O9 O -0.0131(4) 0.7411(5) 0.06654(10)
O10 O -0.0613(4) 0.5023(5) 0.09938(14)
C1 C -0.1414(4) 1.5476(6) 0.23439(11)
C2 C 0.1659(4) 1.8714(7) 0.27663(14)
H1 H 0.1821 1.7469 0.2681
C3 C 0.5214(4) 0.2626(7) 0.15759(13)
C4 C -0.0624(4) 0.6729(7) 0.09248(13)
C5 C 0.1029(4) 0.7398(6) -0.00976(13)
C6 C -0.0964(4) 1.0046(7) 0.11616(13)
H2 H -0.0492 1.0567 0.0993
C7 C 0.2549(4) 1.9829(8) 0.29564(15)
H3 H 0.3321 1.9342 0.3011
C8 C 0.0532(4) 1.9412(6) 0.26999(13)
C9 C -0.1936(4) 0.7431(7) 0.13954(14)
H4 H -0.2136 0.6113 0.1394
C10 C -0.2383(4) 0.8690(7) 0.16328(13)
H5 H -0.2898 0.8211 0.1792
C11 C 0.4100(4) 0.3203(7) 0.13187(12)
C12 C 0.3941(4) 0.5030(7) 0.11770(14)
H6 H 0.4535 0.5967 0.1235
C13 C -0.1200(4) 0.8105(7) 0.11612(13)
C14 C -0.0277(4) 1.6556(7) 0.23933(13)
H7 H 0.0324 1.5850 0.2568
H8 H -0.0006 1.6679 0.2145
C15 C 0.2896(4) 0.5477(7) 0.09481(13)
H9 H 0.2791 0.6732 0.0846
C16 C 0.3491(4) 1.1984(7) 0.02027(14)
H10 H 0.2776 1.2411 0.0060
C17 C 0.2302(4) 2.1660(7) 0.30660(13)
C18 C 0.3629(4) 1.0086(7) 0.03078(14)
C19 C -0.1430(4) 1.1211(6) 0.14123(13)
H11 H -0.1250 1.2538 0.1417
C20 C 0.3235(4) 0.1881(7) 0.12271(14)
H12 H 0.3337 0.0606 0.1319
C21 C 0.1771(4) 0.9180(7) -0.00239(14)
H13 H 0.1977 0.9664 -0.0265
H14 H 0.1334 1.0192 0.0087
C22 C 0.0306(4) 2.1261(6) 0.28086(14)
H15 H -0.0464 2.1754 0.2755
C23 C 0.1190(5) 2.2387(7) 0.29936(14)
H16 H 0.1035 2.3650 0.3070
C24 C 0.5585(5) 1.0731(9) 0.06157(16)
H17 H 0.6302 1.0312 0.0759
C25 C 0.5432(5) 1.2630(8) 0.05070(15)
C26 C 0.4689(5) 0.9465(8) 0.05145(15)
H18 H 0.4789 0.8158 0.0585
C27 C 0.4399(5) 1.3266(8) 0.03059(14)
H19 H 0.4304 1.4576 0.0237
C28 C 0.2215(4) 0.2420(7) 0.10007(14)
H20 H 0.1617 0.1495 0.0937
Zn1B Zn -0.05496(4) 0.50823(7) -0.051578(14)
Zn2_2 Zn 0.71628(4) 0.23779(7) 0.200200(13)
Zn2A Zn -0.21628(4) 1.73779(7) 0.299800(13)
O2_2 O -0.3980(3) 1.3875(5) 0.16374(9)
O5A O -0.2794(3) 1.0891(5) 0.24721(9)
O6_2 O -0.4711(3) 1.1016(5) 0.17205(10)
O7B O -0.0154(3) 0.2421(4) 0.03549(9)
loop_
_geom_bond_atom_site_label_1
_geom_bond_atom_site_label_2
_geom_bond_site_symmetry_1
_geom_bond_site_symmetry_2
Zn1 N2 1_555 1_555
Zn2 N1 1_555 1_555
Cl1 C17 1_555 1_555
Cl2 C25 1_555 1_555
N1 C10 1_555 1_555
N2 C15 1_555 1_555
O1 Zn2 1_555 1_555
O2 C3 1_555 1_555
O3 Zn1 1_555 1_555
O4 C8 1_555 1_555
O5 C1 1_555 1_555
O6 C3 1_555 1_555
O7 C5 1_555 1_555
O8 C18 1_555 1_555
O9 Zn1 1_555 1_555
O10 Zn1 1_555 1_555
C1 O1 1_555 1_555
C2 H1 1_555 1_555
C3 C11 1_555 1_555
C4 O9 1_555 1_555
C5 O3 1_555 1_555
C6 H2 1_555 1_555
C7 C2 1_555 1_555
H3 C7 1_555 1_555
C8 C2 1_555 1_555
C9 H4 1_555 1_555
C10 C9 1_555 1_555
H5 C10 1_555 1_555
C11 C12 1_555 1_555
C12 H6 1_555 1_555
C13 C4 1_555 1_555
C14 O4 1_555 1_555
H7 C14 1_555 1_555
H8 C14 1_555 1_555
C15 C12 1_555 1_555
H9 C15 1_555 1_555
C16 H10 1_555 1_555
C17 C7 1_555 1_555
C18 C16 1_555 1_555
C19 N1 1_555 1_555
H11 C19 1_555 1_555
C20 C11 1_555 1_555
H12 C20 1_555 1_555
C21 O8 1_555 1_555
H13 C21 1_555 1_555
H14 C21 1_555 1_555
C22 C8 1_555 1_555
H15 C22 1_555 1_555
C23 C17 1_555 1_555
H16 C23 1_555 1_555
C24 H17 1_555 1_555
C25 C24 1_555 1_555
C26 C18 1_555 1_555
H18 C26 1_555 1_555
C27 C16 1_555 1_555
H19 C27 1_555 1_555
C28 N2 1_555 1_555
H20 C28 1_555 1_555
Zn1B O7 1_555 1_555
Zn2_2 O2 1_555 1_555
Zn2A O5 1_555 1_555
O2_2 Zn2 1_555 1_555
O5A Zn2 1_555 1_555
O6_2 Zn2 1_555 1_555
O7B Zn1 1_555 1_555
O6 Zn2_2 1_555 1_555
O10 C4 1_555 1_555
C1 C14 1_555 1_555
C5 C21 1_555 1_555
C6 C13 1_555 1_555
C6 C19 1_555 1_555
C9 C13 1_555 1_555
C20 C28 1_555 1_555
C22 C23 1_555 1_555
C24 C26 1_555 1_555
C25 C27 1_555 1_555

#END
