
#######################################################################
#
#                 Cambridge Crystallographic Data Centre
#                                CCDC 
#
#######################################################################
#
# If this CIF has been generated from an entry in the Cambridge 
# Structural Database, then it will include bibliographic, chemical, 
# crystal, experimental, refinement or atomic coordinate data resulting 
# from the CCDC's data processing and validation procedures.
#
#######################################################################

data_TEWFUY
_symmetry_cell_setting           orthorhombic
_symmetry_space_group_name_H-M   'I b c a'
_symmetry_Int_Tables_number      73
_space_group_name_Hall           '-I 2b 2c'
loop_
_symmetry_equiv_pos_site_id
_symmetry_equiv_pos_as_xyz
1 x,y,z
2 1/2-x,-y,1/2+z
3 -x,1/2+y,1/2-z
4 1/2+x,1/2-y,-z
5 1/2+x,1/2+y,1/2+z
6 -x,1/2-y,z
7 1/2-x,y,-z
8 x,-y,1/2-z
9 -x,-y,-z
10 1/2+x,y,1/2-z
11 x,1/2-y,1/2+z
12 1/2-x,1/2+y,z
13 1/2-x,1/2-y,1/2-z
14 x,1/2+y,-z
15 1/2+x,-y,z
16 -x,y,1/2+z
_cell_length_a                   14.9179(19)
_cell_length_b                   16.766(2)
_cell_length_c                   27.650(3)
_cell_angle_alpha                90
_cell_angle_beta                 90
_cell_angle_gamma                90
_cell_volume                     6915.64
loop_
_atom_site_label
_atom_site_type_symbol
_atom_site_fract_x
_atom_site_fract_y
_atom_site_fract_z
Cu1 Cu -0.7500 0.2500 0.2500
N1 N -0.7998(4) 0.1493(4) 0.2768(2)
N2 N -0.9386(4) -0.0511(3) 0.38744(18)
C1 C -0.7471(6) 0.0902(5) 0.2935(3)
H1 H -0.6840 0.0974 0.2921
C2 C -0.7797(5) 0.0190(4) 0.3128(3)
H2 H -0.7396 -0.0214 0.3234
C3 C -0.8698(5) 0.0086(4) 0.3163(2)
C4 C -0.9249(5) 0.0679(5) 0.2995(2)
H3 H -0.9881 0.0616 0.3013
C5 C -0.8881(5) 0.1384(4) 0.2796(3)
H4 H -0.9272 0.1789 0.2681
C6 C -0.9078(5) -0.0661(4) 0.3377(2)
H5 H -0.9588 -0.0848 0.3177
H6 H -0.8615 -0.1084 0.3378
C7 C -1.0245(5) -0.0279(5) 0.3998(3)
C8 C -0.8813(6) -0.0513(5) 0.4270(3)
C9 C -0.9359(5) -0.0250(5) 0.4689(2)
C10 C -0.9098(5) -0.0133(5) 0.5168(2)
H7 H -0.8503 -0.0220 0.5278
C11 C -0.9781(5) 0.0122(5) 0.5468(3)
C12 C -0.5960(5) 0.2260(5) 0.3094(3)
C13 C -0.5450(5) 0.2408(4) 0.3561(2)
C14 C -0.5906(6) 0.2317(5) 0.3993(3)
H8 H -0.6527 0.2194 0.3992
C15 C -0.5459(6) 0.2406(6) 0.4427(3)
H9 H -0.5770 0.2340 0.4724
O1 O -0.6720(3) 0.2590(3) 0.30617(18)
O2 O -0.5612(3) 0.1824(3) 0.27838(17)
O3 O -1.0864(4) -0.0229(3) 0.37193(18)
O4 O -0.8026(4) -0.0685(4) 0.42566(19)
O5 O -0.6479(5) 0.1658(4) 0.1928(3)
N1H N -1.2002(4) -0.1493(4) 0.7232(2)
N2H N -1.0614(4) 0.0511(3) 0.61256(18)
C1H C -1.2529(6) -0.0902(5) 0.7065(3)
H1H H -1.3160 -0.0974 0.7079
C2H C -1.2203(5) -0.0190(4) 0.6872(3)
H2H H -1.2604 0.0214 0.6766
C3H C -1.1302(5) -0.0086(4) 0.6837(2)
C4H C -1.0751(5) -0.0679(5) 0.7005(2)
H3H H -1.0119 -0.0616 0.6987
C5H C -1.1119(5) -0.1384(4) 0.7204(3)
H4H H -1.0728 -0.1789 0.7319
C6H C -1.0922(5) 0.0661(4) 0.6623(2)
H5H H -1.0412 0.0848 0.6823
H6H H -1.1385 0.1084 0.6622
C7H C -0.9755(5) 0.0279(5) 0.6002(3)
C8H C -1.1187(6) 0.0513(5) 0.5730(3)
C9H C -1.0641(5) 0.0250(5) 0.5311(2)
C10H C -1.0902(5) 0.0133(5) 0.4832(2)
H7H H -1.1497 0.0220 0.4722
C11H C -1.0219(5) -0.0122(5) 0.4532(3)
O3H O -0.9136(4) 0.0229(3) 0.62807(18)
O4H O -1.1974(4) 0.0685(4) 0.57434(19)
C12E C -0.4040(5) 0.2740(5) 0.3094(3)
C13E C -0.4550(5) 0.2592(4) 0.3561(2)
C14E C -0.4094(6) 0.2683(5) 0.3993(3)
H8E H -0.3473 0.2806 0.3992
C15E C -0.4541(6) 0.2594(6) 0.4427(3)
H9E H -0.4230 0.2660 0.4724
O1E O -0.3280(3) 0.2410(3) 0.30617(18)
O2E O -0.4388(3) 0.3176(3) 0.27838(17)
O5L O -0.8521(5) 0.3342(4) 0.3072(3)
Cu1D Cu -1.2500 -0.2500 0.7500
Cu1E Cu -0.2500 0.2500 0.2500
N1L N -0.7002(4) 0.3507(4) 0.2232(2)
O1L O -0.8280(3) 0.2410(3) 0.19383(18)
O6 O -0.7500 0.1626(12) 0.5000
O7 O -0.6944(12) -0.1949(14) 0.4691(8)
O8 O -0.8222(15) 0.1286(13) 0.4195(7)
loop_
_geom_bond_atom_site_label_1
_geom_bond_atom_site_label_2
_geom_bond_site_symmetry_1
_geom_bond_site_symmetry_2
Cu1 N1 1_555 1_555
N1 C1 1_555 1_555
N2 C6 1_555 1_555
C1 H1 1_555 1_555
C2 C1 1_555 1_555
H2 C2 1_555 1_555
C3 C2 1_555 1_555
C4 C3 1_555 1_555
H3 C4 1_555 1_555
C5 N1 1_555 1_555
H4 C5 1_555 1_555
C6 C3 1_555 1_555
H5 C6 1_555 1_555
H6 C6 1_555 1_555
C7 N2 1_555 1_555
C8 N2 1_555 1_555
C9 C8 1_555 1_555
C10 C9 1_555 1_555
H7 C10 1_555 1_555
C11 C10 1_555 1_555
C12 C13 1_555 1_555
C13 C14 1_555 1_555
C14 H8 1_555 1_555
C15 C14 1_555 1_555
H9 C15 1_555 1_555
O1 Cu1 1_555 1_555
O2 C12 1_555 1_555
O3 C7 1_555 1_555
O4 C8 1_555 1_555
O5 Cu1 1_555 1_555
N1H C1H 1_555 1_555
N2H C6H 1_555 1_555
C1H H1H 1_555 1_555
C2H C1H 1_555 1_555
H2H C2H 1_555 1_555
C3H C2H 1_555 1_555
C4H C3H 1_555 1_555
H3H C4H 1_555 1_555
C5H N1H 1_555 1_555
H4H C5H 1_555 1_555
C6H C3H 1_555 1_555
H5H C6H 1_555 1_555
H6H C6H 1_555 1_555
C7H C11 1_555 1_555
C8H N2H 1_555 1_555
C9H C11 1_555 1_555
C10H C9H 1_555 1_555
H7H C10H 1_555 1_555
C11H C7 1_555 1_555
O3H C7H 1_555 1_555
O4H C8H 1_555 1_555
C12E C13E 1_555 1_555
C13E C13 1_555 1_555
C14E C13E 1_555 1_555
H8E C14E 1_555 1_555
C15E C15 1_555 1_555
H9E C15E 1_555 1_555
O1E C12E 1_555 1_555
O2E C12E 1_555 1_555
O5L Cu1 1_555 1_555
Cu1D N1H 1_555 1_555
Cu1E O1E 1_555 1_555
N1L Cu1 1_555 1_555
O1L Cu1 1_555 1_555
C4 C5 1_555 1_555
C9 C11H 1_555 1_555
C12 O1 1_555 1_555
N2H C7H 1_555 1_555
C4H C5H 1_555 1_555
C8H C9H 1_555 1_555
C10H C11H 1_555 1_555
C14E C15E 1_555 1_555

#END
