
#######################################################################
#
#                 Cambridge Crystallographic Data Centre
#                                CCDC 
#
#######################################################################
#
# If this CIF has been generated from an entry in the Cambridge 
# Structural Database, then it will include bibliographic, chemical, 
# crystal, experimental, refinement or atomic coordinate data resulting 
# from the CCDC's data processing and validation procedures.
#
#######################################################################

data_TEWGEJ01
_symmetry_cell_setting           orthorhombic
_symmetry_space_group_name_H-M   'I b c a'
_symmetry_Int_Tables_number      73
_space_group_name_Hall           '-I 2b 2c'
loop_
_symmetry_equiv_pos_site_id
_symmetry_equiv_pos_as_xyz
1 x,y,z
2 1/2-x,-y,1/2+z
3 -x,1/2+y,1/2-z
4 1/2+x,1/2-y,-z
5 1/2+x,1/2+y,1/2+z
6 -x,1/2-y,z
7 1/2-x,y,-z
8 x,-y,1/2-z
9 -x,-y,-z
10 1/2+x,y,1/2-z
11 x,1/2-y,1/2+z
12 1/2-x,1/2+y,z
13 1/2-x,1/2-y,1/2-z
14 x,1/2+y,-z
15 1/2+x,-y,z
16 -x,y,1/2+z
_cell_length_a                   15.3107(15)
_cell_length_b                   16.7284(19)
_cell_length_c                   27.412(5)
_cell_angle_alpha                90
_cell_angle_beta                 90
_cell_angle_gamma                90
_cell_volume                     7020.86
loop_
_atom_site_label
_atom_site_type_symbol
_atom_site_fract_x
_atom_site_fract_y
_atom_site_fract_z
Cu1 Cu 0.7500 0.2500 0.2500
N1 N 0.7990(2) 0.3517(2) 0.22237(14)
N2 N 0.9347(2) 0.5537(2) 0.11236(14)
C1 C 0.7460(3) 0.4110(3) 0.20627(18)
H1 H 0.6846 0.4037 0.2083
C2 C 0.7775(3) 0.4817(3) 0.18708(18)
H2 H 0.7381 0.5217 0.1761
C3 C 0.8668(3) 0.4939(3) 0.18398(16)
C4 C 0.9219(3) 0.4333(3) 0.20082(17)
H3 H 0.9835 0.4397 0.1995
C5 C 0.8861(3) 0.3643(3) 0.21936(17)
H4 H 0.9243 0.3235 0.2306
C6 C 0.9037(3) 0.5694(3) 0.16191(17)
H5 H 0.8581 0.6113 0.1611
H6 H 0.9527 0.5891 0.1822
C7 C 0.8800(3) 0.5526(3) 0.07184(18)
C8 C 1.0198(3) 0.5295(3) 0.10091(18)
C9 C 0.9357(3) 0.5263(3) 0.02991(17)
C10 C 0.9130(3) 0.5144(3) -0.01836(18)
H7 H 0.8558 0.5238 -0.0305
C11 C 0.9804(3) 0.4877(3) -0.04742(17)
C12 C 0.9082(3) 0.2239(3) 0.30851(17)
C13 C 0.9555(3) 0.2393(2) 0.35546(16)
C14 C 0.9125(3) 0.2305(3) 0.39967(18)
H8 H 0.8521 0.2175 0.3999
C15 C 0.9560(3) 0.2404(3) 0.44337(18)
H9 H 0.9257 0.2340 0.4734
C16 C 0.6329(6) 0.3158(5) 0.3497(3)
H10 H 0.6855 0.3069 0.3693
H11 H 0.5973 0.2670 0.3495
H12 H 0.5989 0.3597 0.3638
O1 O 0.8029(2) 0.5695(2) 0.07202(13)
O2 O 1.0789(2) 0.5234(2) 0.12987(13)
O3 O 0.83240(18) 0.25555(17) 0.30490(12)
O4 O 0.94361(19) 0.17978(18) 0.27732(12)
O5 O 0.6570(2) 0.3354(2) 0.30168(15)
H13 H 0.6594 0.2935 0.2848
N1H N 1.2010(2) 0.6483(2) -0.22237(14)
N2H N 1.0653(2) 0.4463(2) -0.11236(14)
C1H C 1.2540(3) 0.5890(3) -0.20627(18)
H1H H 1.3154 0.5963 -0.2083
C2H C 1.2225(3) 0.5183(3) -0.18708(18)
H2H H 1.2619 0.4783 -0.1761
C3H C 1.1332(3) 0.5061(3) -0.18398(16)
C4H C 1.0781(3) 0.5667(3) -0.20082(17)
H3H H 1.0165 0.5603 -0.1995
C5H C 1.1139(3) 0.6357(3) -0.21936(17)
H4H H 1.0757 0.6765 -0.2306
C6H C 1.0963(3) 0.4306(3) -0.16191(17)
H5H H 1.1419 0.3887 -0.1611
H6H H 1.0473 0.4109 -0.1822
C7H C 1.1200(3) 0.4474(3) -0.07184(18)
C8H C 0.9802(3) 0.4705(3) -0.10091(18)
C9H C 1.0643(3) 0.4737(3) -0.02991(17)
C10H C 1.0870(3) 0.4856(3) 0.01836(18)
H7H H 1.1442 0.4762 0.0305
C11H C 1.0196(3) 0.5123(3) 0.04742(17)
O1H O 1.1971(2) 0.4305(2) -0.07202(13)
O2H O 0.9211(2) 0.4766(2) -0.12987(13)
C12E C 1.0918(3) 0.2761(3) 0.30851(17)
C13E C 1.0445(3) 0.2607(2) 0.35546(16)
C14E C 1.0875(3) 0.2695(3) 0.39967(18)
H8E H 1.1479 0.2825 0.3999
C15E C 1.0440(3) 0.2596(3) 0.44337(18)
H9E H 1.0743 0.2660 0.4734
O3E O 1.16760(18) 0.24445(17) 0.30490(12)
O4E O 1.05639(19) 0.32022(18) 0.27732(12)
C16L C 0.8671(6) 0.1842(5) 0.1503(3)
H10L H 0.8145 0.1931 0.1307
H11L H 0.9027 0.2330 0.1505
H12L H 0.9011 0.1403 0.1362
O5L O 0.8430(2) 0.1646(2) 0.19832(15)
H13L H 0.8406 0.2065 0.2152
Cu1D Cu 1.2500 0.7500 -0.2500
Cu1E Cu 1.2500 0.2500 0.2500
N1L N 0.7010(2) 0.1483(2) 0.27763(14)
O3L O 0.66760(18) 0.24445(17) 0.19510(12)
O6 O 0.7501(6) 0.1653(11) 0.5000(3)
O7 O 0.8168(9) 0.3823(9) 0.0841(3)
loop_
_geom_bond_atom_site_label_1
_geom_bond_atom_site_label_2
_geom_bond_site_symmetry_1
_geom_bond_site_symmetry_2
Cu1 N1 1_555 1_555
N1 C1 1_555 1_555
N2 C6 1_555 1_555
C1 H1 1_555 1_555
C2 C1 1_555 1_555
H2 C2 1_555 1_555
C3 C2 1_555 1_555
C4 C3 1_555 1_555
H3 C4 1_555 1_555
C5 N1 1_555 1_555
H4 C5 1_555 1_555
C6 C3 1_555 1_555
H5 C6 1_555 1_555
H6 C6 1_555 1_555
C7 N2 1_555 1_555
C8 N2 1_555 1_555
C9 C7 1_555 1_555
C10 C9 1_555 1_555
H7 C10 1_555 1_555
C11 C10 1_555 1_555
C12 C13 1_555 1_555
C13 C14 1_555 1_555
C14 H8 1_555 1_555
C15 C14 1_555 1_555
H9 C15 1_555 1_555
C16 H10 1_555 1_555
H11 C16 1_555 1_555
H12 C16 1_555 1_555
O1 C7 1_555 1_555
O2 C8 1_555 1_555
O3 Cu1 1_555 1_555
O4 C12 1_555 1_555
O5 Cu1 1_555 1_555
H13 O5 1_555 1_555
N1H C1H 1_555 1_555
N2H C6H 1_555 1_555
C1H H1H 1_555 1_555
C2H C1H 1_555 1_555
H2H C2H 1_555 1_555
C3H C2H 1_555 1_555
C4H C3H 1_555 1_555
H3H C4H 1_555 1_555
C5H N1H 1_555 1_555
H4H C5H 1_555 1_555
C6H C3H 1_555 1_555
H5H C6H 1_555 1_555
H6H C6H 1_555 1_555
C7H N2H 1_555 1_555
C8H C11 1_555 1_555
C9H C11 1_555 1_555
C10H C9H 1_555 1_555
H7H C10H 1_555 1_555
C11H C8 1_555 1_555
O1H C7H 1_555 1_555
O2H C8H 1_555 1_555
C12E C13E 1_555 1_555
C13E C13 1_555 1_555
C14E C13E 1_555 1_555
H8E C14E 1_555 1_555
C15E C15 1_555 1_555
H9E C15E 1_555 1_555
O3E C12E 1_555 1_555
O4E C12E 1_555 1_555
C16L H10L 1_555 1_555
H11L C16L 1_555 1_555
H12L C16L 1_555 1_555
O5L Cu1 1_555 1_555
H13L O5L 1_555 1_555
Cu1D N1H 1_555 1_555
Cu1E O3E 1_555 1_555
N1L Cu1 1_555 1_555
O3L Cu1 1_555 1_555
C4 C5 1_555 1_555
C9 C11H 1_555 1_555
C12 O3 1_555 1_555
C16 O5 1_555 1_555
N2H C8H 1_555 1_555
C4H C5H 1_555 1_555
C7H C9H 1_555 1_555
C10H C11H 1_555 1_555
C14E C15E 1_555 1_555
C16L O5L 1_555 1_555

#END
