
#######################################################################
#
#                 Cambridge Crystallographic Data Centre
#                                CCDC 
#
#######################################################################
#
# If this CIF has been generated from an entry in the Cambridge 
# Structural Database, then it will include bibliographic, chemical, 
# crystal, experimental, refinement or atomic coordinate data resulting 
# from the CCDC's data processing and validation procedures.
#
#######################################################################

data_TEWLUE
_symmetry_cell_setting           triclinic
_symmetry_space_group_name_H-M   'P -1'
_symmetry_Int_Tables_number      2
_space_group_name_Hall           '-P 1'
loop_
_symmetry_equiv_pos_site_id
_symmetry_equiv_pos_as_xyz
1 x,y,z
2 -x,-y,-z
_cell_length_a                   9.895(2)
_cell_length_b                   11.414(3)
_cell_length_c                   12.873(3)
_cell_angle_alpha                104.746(4)
_cell_angle_beta                 91.031(4)
_cell_angle_gamma                114.299(4)
_cell_volume                     1268.97
loop_
_atom_site_label
_atom_site_type_symbol
_atom_site_fract_x
_atom_site_fract_y
_atom_site_fract_z
Pb1 Pb 0.40416(2) 0.933890(18) 0.351353(15)
N1 N 0.8289(5) 0.9841(5) -0.0997(4)
H1 H 0.8485 1.0519 -0.1242
N2 N 0.8200(5) 0.7905(5) -0.0850(4)
N3 N 0.5450(5) 1.0412(4) 0.2051(4)
N4 N 0.5256(5) 0.8015(4) 0.2201(4)
C1 C 0.6108(6) 0.9781(5) 0.1346(4)
C2 C 0.7520(6) 0.9576(5) -0.0154(4)
C3 C 0.5528(6) 1.1577(5) 0.1969(5)
H2 H 0.5074 1.2009 0.2450
C4 C 0.8689(6) 0.8805(6) -0.1378(4)
C5 C 0.7453(6) 0.8384(5) -0.0069(4)
C6 C 0.5137(8) 0.6843(6) 0.2300(6)
H3 H 0.4631 0.6525 0.2845
C7 C 0.6867(6) 1.0325(5) 0.0540(4)
C8 C 0.6254(7) 1.2184(6) 0.1200(5)
H4 H 0.6293 1.3006 0.1180
C9 C 0.6682(6) 0.7785(5) 0.0710(5)
C10 C 0.6006(6) 0.8490(5) 0.1431(4)
C11 C 0.6511(8) 0.6542(6) 0.0830(6)
H5 H 0.6919 0.6040 0.0373
C12 C 0.9611(6) 0.8772(6) -0.2267(5)
C13 C 0.6903(6) 1.1562(5) 0.0481(5)
H6 H 0.7370 1.1944 -0.0049
C14 C 0.9998(6) 0.7713(6) -0.2607(5)
H7 H 0.9651 0.7012 -0.2293
C15 C 1.0907(7) 0.7700(6) -0.3415(5)
C16 C 1.0080(7) 0.9795(7) -0.2766(5)
H8 H 0.9791 1.0490 -0.2556
C17 C 1.1413(8) 0.8734(7) -0.3879(5)
C18 C 1.0997(7) 0.9775(7) -0.3590(6)
H9 H 1.1315 1.0450 -0.3932
C19 C 0.5739(8) 0.6072(7) 0.1623(6)
H10 H 0.5618 0.5251 0.1709
O1 O 1.1379(6) 0.6702(5) -0.3818(4)
O2 O 1.2362(7) 0.8738(6) -0.4649(5)
H11 H 1.2569 0.9402 -0.4863
C20 C 1.0764(9) 0.5506(7) -0.3507(7)
H12 H 1.1205 0.4924 -0.3847
H13 H 0.9701 0.5065 -0.3729
H14 H 1.0967 0.5717 -0.2733
O3 O 0.1971(4) 0.8313(3) 0.2001(3)
O4 O 0.1987(5) 0.6782(4) 0.2776(3)
O5 O 0.3470(5) 1.1357(4) 0.3820(4)
O6 O 0.5422(5) 1.1975(4) 0.5045(4)
C21 C 0.0742(6) 0.5993(5) 0.0961(4)
C22 C -0.0113(6) 0.6221(5) 0.0215(4)
C23 C 0.4768(6) 1.3669(5) 0.4786(4)
C24 C 0.0858(6) 0.4795(5) 0.0738(5)
C25 C 0.1609(6) 0.7098(5) 0.1999(4)
C26 C 0.4522(6) 1.2227(5) 0.4531(5)
C27 C 0.3705(7) 1.3988(6) 0.4371(5)
C28 C 0.6063(7) 1.4690(6) 0.5399(6)
H15 H 0.264(7) 1.324(6) 0.396(5)
H16 H 0.679(7) 1.460(6) 0.565(5)
O3A O -0.1971(4) 0.1687(3) -0.2001(3)
O4A O -0.1987(5) 0.3218(4) -0.2776(3)
C21A C -0.0742(6) 0.4007(5) -0.0961(4)
C22A C 0.0113(6) 0.3779(5) -0.0215(4)
C24A C -0.0858(6) 0.5205(5) -0.0738(5)
C25A C -0.1609(6) 0.2902(5) -0.1999(4)
O5A O 0.6530(5) 1.8643(4) 0.6180(4)
O6A O 0.4578(5) 1.8025(4) 0.4955(4)
C23A C 0.5232(6) 1.6331(5) 0.5214(4)
C26A C 0.5478(6) 1.7773(5) 0.5469(5)
C27A C 0.6295(7) 1.6012(6) 0.5629(5)
C28A C 0.3937(7) 1.5310(6) 0.4601(6)
H15A H 0.736(7) 1.676(6) 0.604(5)
H16A H 0.321(7) 1.540(6) 0.435(5)
Pb1A Pb -0.40416(2) 0.066110(18) -0.351353(15)
N1A N -0.8289(5) 0.0159(5) 0.0997(4)
H1A H -0.8485 -0.0519 0.1242
N2A N -0.8200(5) 0.2095(5) 0.0850(4)
N3A N -0.5450(5) -0.0412(4) -0.2051(4)
N4A N -0.5256(5) 0.1985(4) -0.2201(4)
C1A C -0.6108(6) 0.0219(5) -0.1346(4)
C2A C -0.7520(6) 0.0424(5) 0.0154(4)
C3A C -0.5528(6) -0.1577(5) -0.1969(5)
H2A H -0.5074 -0.2009 -0.2450
C4A C -0.8689(6) 0.1195(6) 0.1378(4)
C5A C -0.7453(6) 0.1616(5) 0.0069(4)
C6A C -0.5137(8) 0.3157(6) -0.2300(6)
H3A H -0.4631 0.3475 -0.2845
C7A C -0.6867(6) -0.0325(5) -0.0540(4)
C8A C -0.6254(7) -0.2184(6) -0.1200(5)
H4A H -0.6293 -0.3006 -0.1180
C9A C -0.6682(6) 0.2215(5) -0.0710(5)
C10A C -0.6006(6) 0.1510(5) -0.1431(4)
C11A C -0.6511(8) 0.3458(6) -0.0830(6)
H5A H -0.6919 0.3960 -0.0373
C12A C -0.9611(6) 0.1228(6) 0.2267(5)
C13A C -0.6903(6) -0.1562(5) -0.0481(5)
H6A H -0.7370 -0.1944 0.0049
C14A C -0.9998(6) 0.2287(6) 0.2607(5)
H7A H -0.9651 0.2988 0.2293
C15A C -1.0907(7) 0.2300(6) 0.3415(5)
C16A C -1.0080(7) 0.0205(7) 0.2766(5)
H8A H -0.9791 -0.0490 0.2556
C17A C -1.1413(8) 0.1266(7) 0.3879(5)
C18A C -1.0997(7) 0.0225(7) 0.3590(6)
H9A H -1.1315 -0.0450 0.3932
C19A C -0.5739(8) 0.3928(7) -0.1623(6)
H10A H -0.5618 0.4749 -0.1709
O1A O -1.1379(6) 0.3298(5) 0.3818(4)
O2A O -1.2362(7) 0.1262(6) 0.4649(5)
H11A H -1.2569 0.0598 0.4863
C20A C -1.0764(9) 0.4494(7) 0.3507(7)
H12A H -1.1205 0.5076 0.3847
H13A H -0.9701 0.4935 0.3729
H14A H -1.0967 0.4283 0.2733
Pb1_2 Pb 0.40416(2) 1.933890(18) 0.351353(15)
Pb1A_2 Pb 0.59584(2) 1.066110(18) 0.648647(15)
Pb1A_3 Pb 0.59584(2) 2.066110(18) 0.648647(15)
O5A_2 O -0.3470(5) -0.1357(4) -0.3820(4)
O6_2 O -0.4578(5) 0.1975(4) -0.4955(4)
O6A_2 O -0.5422(5) -0.1975(4) -0.5045(4)
O6A_3 O 0.4578(5) 0.8025(4) 0.4955(4)
loop_
_geom_bond_atom_site_label_1
_geom_bond_atom_site_label_2
_geom_bond_site_symmetry_1
_geom_bond_site_symmetry_2
Pb1 N3 1_555 1_555
N1 H1 1_555 1_555
N2 C4 1_555 1_555
N3 C1 1_555 1_555
N4 Pb1 1_555 1_555
C1 C7 1_555 1_555
C2 N1 1_555 1_555
C3 N3 1_555 1_555
H2 C3 1_555 1_555
C4 N1 1_555 1_555
C5 N2 1_555 1_555
C6 N4 1_555 1_555
H3 C6 1_555 1_555
C7 C2 1_555 1_555
C8 C3 1_555 1_555
H4 C8 1_555 1_555
C9 C5 1_555 1_555
C10 N4 1_555 1_555
C11 C9 1_555 1_555
H5 C11 1_555 1_555
C12 C4 1_555 1_555
C13 C7 1_555 1_555
H6 C13 1_555 1_555
C14 C12 1_555 1_555
H7 C14 1_555 1_555
C15 C14 1_555 1_555
C16 C12 1_555 1_555
H8 C16 1_555 1_555
C17 C15 1_555 1_555
C18 C16 1_555 1_555
H9 C18 1_555 1_555
C19 C6 1_555 1_555
H10 C19 1_555 1_555
O1 C15 1_555 1_555
O2 C17 1_555 1_555
H11 O2 1_555 1_555
C20 O1 1_555 1_555
H12 C20 1_555 1_555
H13 C20 1_555 1_555
H14 C20 1_555 1_555
O3 Pb1 1_555 1_555
O4 Pb1 1_555 1_555
O5 Pb1 1_555 1_555
O6 Pb1 1_555 1_555
C21 C22 1_555 1_555
C22 C24A 1_555 1_555
C23 C26 1_555 1_555
C24 C21 1_555 1_555
C25 O3 1_555 1_555
C26 O5 1_555 1_555
C27 C23 1_555 1_555
C28 C23 1_555 1_555
H15 C27 1_555 1_555
H16 C28 1_555 1_555
O3A C25A 1_555 1_555
O4A C25A 1_555 1_555
C21A C22A 1_555 1_555
C22A C24 1_555 1_555
C24A C21A 1_555 1_555
C25A C21A 1_555 1_555
O5A C26A 1_555 1_555
O6A C26A 1_555 1_555
C23A C26A 1_555 1_555
C27A C28 1_555 1_555
C28A C27 1_555 1_555
H15A C27A 1_555 1_555
H16A C28A 1_555 1_555
Pb1A O3A 1_555 1_555
N1A H1A 1_555 1_555
N2A C4A 1_555 1_555
N3A Pb1A 1_555 1_555
N4A Pb1A 1_555 1_555
C1A N3A 1_555 1_555
C2A N1A 1_555 1_555
C3A N3A 1_555 1_555
H2A C3A 1_555 1_555
C4A N1A 1_555 1_555
C5A N2A 1_555 1_555
C6A N4A 1_555 1_555
H3A C6A 1_555 1_555
C7A C1A 1_555 1_555
C8A C3A 1_555 1_555
H4A C8A 1_555 1_555
C9A C5A 1_555 1_555
C10A N4A 1_555 1_555
C11A C9A 1_555 1_555
H5A C11A 1_555 1_555
C12A C4A 1_555 1_555
C13A C7A 1_555 1_555
H6A C13A 1_555 1_555
C14A C12A 1_555 1_555
H7A C14A 1_555 1_555
C15A C14A 1_555 1_555
C16A C12A 1_555 1_555
H8A C16A 1_555 1_555
C17A C15A 1_555 1_555
C18A C16A 1_555 1_555
H9A C18A 1_555 1_555
C19A C6A 1_555 1_555
H10A C19A 1_555 1_555
O1A C15A 1_555 1_555
O2A C17A 1_555 1_555
H11A O2A 1_555 1_555
C20A O1A 1_555 1_555
H12A C20A 1_555 1_555
H13A C20A 1_555 1_555
H14A C20A 1_555 1_555
Pb1_2 O6A 1_555 1_555
Pb1A_2 O6 1_555 1_555
Pb1A_3 O5A 1_555 1_555
O5A_2 Pb1A 1_555 1_555
O6_2 Pb1A 1_555 1_555
O6A_2 Pb1A 1_555 1_555
O6A_3 Pb1 1_555 1_555
C1 C10 1_555 1_555
C2 C5 1_555 1_555
C8 C13 1_555 1_555
C9 C10 1_555 1_555
C11 C19 1_555 1_555
C17 C18 1_555 1_555
O4 C25 1_555 1_555
O6 C26 1_555 1_555
C21 C25 1_555 1_555
O4A Pb1A 1_555 1_555
O6A Pb1A_3 1_555 1_555
C23A C27A 1_555 1_555
C23A C28A 1_555 1_555
C1A C10A 1_555 1_555
C2A C5A 1_555 1_555
C2A C7A 1_555 1_555
C8A C13A 1_555 1_555
C9A C10A 1_555 1_555
C11A C19A 1_555 1_555
C17A C18A 1_555 1_555
Pb1A_2 O6A_3 1_555 1_555

#END
