
#######################################################################
#
#                 Cambridge Crystallographic Data Centre
#                                CCDC 
#
#######################################################################
#
# If this CIF has been generated from an entry in the Cambridge 
# Structural Database, then it will include bibliographic, chemical, 
# crystal, experimental, refinement or atomic coordinate data resulting 
# from the CCDC's data processing and validation procedures.
#
#######################################################################

data_TEWLUD01
_symmetry_cell_setting           monoclinic
_symmetry_space_group_name_H-M   'C 2/c'
_symmetry_Int_Tables_number      15
_space_group_name_Hall           '-C 2yn'
loop_
_symmetry_equiv_pos_site_id
_symmetry_equiv_pos_as_xyz
1 x,y,z
2 1/2+x,1/2+y,z
3 -x,y,1/2-z
4 1/2-x,1/2+y,1/2-z
5 -x,-y,-z
6 1/2-x,1/2-y,-z
7 x,-y,1/2+z
8 1/2+x,1/2-y,1/2+z
_cell_length_a                   16.945(3)
_cell_length_b                   10.074(2)
_cell_length_c                   7.7291(15)
_cell_angle_alpha                90
_cell_angle_beta                 106.15(3)
_cell_angle_gamma                90
_cell_volume                     1267.32
loop_
_atom_site_label
_atom_site_type_symbol
_atom_site_fract_x
_atom_site_fract_y
_atom_site_fract_z
Cd1 Cd 0.0000 -0.08395(3) -0.7500
I1 I 0.106611(12) 0.10450(2) -0.51971(3)
C1 C 0.03937(18) -0.3936(3) -0.6790(4)
C2 C 0.0818(2) -0.5099(3) -0.6117(5)
H1 H 0.0601 -0.5919 -0.6560
C3 C 0.1551(2) -0.5034(4) -0.4808(5)
H2 H 0.1838 -0.5807 -0.4370
C4 C 0.1858(2) -0.3834(4) -0.4153(5)
H3 H 0.2355 -0.3773 -0.3263
C5 C 0.14188(19) -0.2702(4) -0.4832(4)
H4 H 0.1625 -0.1881 -0.4369
N1 N 0.07059(15) -0.2746(2) -0.6137(3)
Cd1F Cd 0.0000 0.08395(3) -0.2500
Cd1F_2 Cd 0.0000 0.08395(3) -1.2500
I1F I 0.106611(12) -0.10450(2) -1.01971(3)
I1D I -0.106611(12) -0.10450(2) -0.48029(3)
I1B I -0.106611(12) 0.10450(2) -0.98029(3)
C1B C -0.03937(18) -0.3936(3) -0.8210(4)
C2B C -0.0818(2) -0.5099(3) -0.8883(5)
H1B H -0.0601 -0.5919 -0.8440
C3B C -0.1551(2) -0.5034(4) -1.0192(5)
H2B H -0.1838 -0.5807 -1.0630
C4B C -0.1858(2) -0.3834(4) -1.0847(5)
H3B H -0.2355 -0.3773 -1.1737
C5B C -0.14188(19) -0.2702(4) -1.0168(4)
H4B H -0.1625 -0.1881 -1.0631
N1B N -0.07059(15) -0.2746(2) -0.8863(3)
loop_
_geom_bond_atom_site_label_1
_geom_bond_atom_site_label_2
_geom_bond_site_symmetry_1
_geom_bond_site_symmetry_2
Cd1 I1 1_555 1_555
I1 Cd1F 1_555 1_555
C1 C2 1_555 1_555
C2 H1 1_555 1_555
C3 C2 1_555 1_555
H2 C3 1_555 1_555
C4 C3 1_555 1_555
H3 C4 1_555 1_555
C5 C4 1_555 1_555
H4 C5 1_555 1_555
N1 Cd1 1_555 1_555
Cd1F I1D 1_555 1_555
Cd1F_2 I1F 1_555 1_555
I1F Cd1 1_555 1_555
I1D Cd1 1_555 1_555
I1B Cd1 1_555 1_555
C1B C1 1_555 1_555
C2B C1B 1_555 1_555
H1B C2B 1_555 1_555
C3B C2B 1_555 1_555
H2B C3B 1_555 1_555
C4B C3B 1_555 1_555
H3B C4B 1_555 1_555
C5B C4B 1_555 1_555
H4B C5B 1_555 1_555
N1B Cd1 1_555 1_555
C1 N1 1_555 1_555
C5 N1 1_555 1_555
Cd1F_2 I1B 1_555 1_555
C1B N1B 1_555 1_555
C5B N1B 1_555 1_555

#END
