
#######################################################################
#
#                 Cambridge Crystallographic Data Centre
#                                CCDC 
#
#######################################################################
#
# If this CIF has been generated from an entry in the Cambridge 
# Structural Database, then it will include bibliographic, chemical, 
# crystal, experimental, refinement or atomic coordinate data resulting 
# from the CCDC's data processing and validation procedures.
#
#######################################################################

data_TEWMAK
_symmetry_cell_setting           monoclinic
_symmetry_space_group_name_H-M   'C 2/c'
_symmetry_Int_Tables_number      15
_space_group_name_Hall           '-C 2yn'
loop_
_symmetry_equiv_pos_site_id
_symmetry_equiv_pos_as_xyz
1 x,y,z
2 1/2+x,1/2+y,z
3 -x,y,1/2-z
4 1/2-x,1/2+y,1/2-z
5 -x,-y,-z
6 1/2-x,1/2-y,-z
7 x,-y,1/2+z
8 1/2+x,1/2-y,1/2+z
_cell_length_a                   11.012(3)
_cell_length_b                   7.483(2)
_cell_length_c                   11.451(3)
_cell_angle_alpha                90
_cell_angle_beta                 101.654(4)
_cell_angle_gamma                90
_cell_volume                     924.143
loop_
_atom_site_label
_atom_site_type_symbol
_atom_site_fract_x
_atom_site_fract_y
_atom_site_fract_z
Co1 Co 0.0000 0.42944(9) 0.2500
Br1 Br -0.18944(4) 0.43378(5) 0.35346(4)
O1 O 0.0927(3) 0.2441(4) 0.3715(3)
O2 O 0.0832(3) 0.6344(5) 0.3635(3)
H1 H 0.1019 0.6015 0.4403
H2 H 0.1556 0.6699 0.3472
N1 N 0.0456(3) 0.1265(4) 0.4347(3)
C1 C -0.0601(4) 0.0369(5) 0.3876(4)
H3 H -0.1019 0.0618 0.3103
C2 C 0.1054(5) 0.0904(5) 0.5462(4)
H4 H 0.1778 0.1518 0.5787
Co1F Co 0.0000 -0.42944(9) 0.7500
Br1B Br 0.18944(4) 0.43378(5) 0.14654(4)
O1D O -0.0927(3) -0.2441(4) 0.6285(3)
O1B O -0.0927(3) 0.2441(4) 0.1285(3)
O2B O -0.0832(3) 0.6344(5) 0.1365(3)
H1B H -0.1019 0.6015 0.0597
H2B H -0.1556 0.6699 0.1528
N1D N -0.0456(3) -0.1265(4) 0.5653(3)
C1D C 0.0601(4) -0.0369(5) 0.6124(4)
H3D H 0.1019 -0.0618 0.6897
C2D C -0.1054(5) -0.0904(5) 0.4538(4)
H4D H -0.1778 -0.1518 0.4213
loop_
_geom_bond_atom_site_label_1
_geom_bond_atom_site_label_2
_geom_bond_site_symmetry_1
_geom_bond_site_symmetry_2
Co1 Br1 1_555 1_555
O1 Co1 1_555 1_555
O2 Co1 1_555 1_555
H1 O2 1_555 1_555
H2 O2 1_555 1_555
N1 O1 1_555 1_555
C1 N1 1_555 1_555
H3 C1 1_555 1_555
C2 N1 1_555 1_555
H4 C2 1_555 1_555
Co1F O1D 1_555 1_555
Br1B Co1 1_555 1_555
O1D N1D 1_555 1_555
O1B Co1 1_555 1_555
O2B Co1 1_555 1_555
H1B O2B 1_555 1_555
H2B O2B 1_555 1_555
N1D C1D 1_555 1_555
C1D C2 1_555 1_555
H3D C1D 1_555 1_555
C2D C1 1_555 1_555
H4D C2D 1_555 1_555
N1D C2D 1_555 1_555

#END
