
#######################################################################
#
#                 Cambridge Crystallographic Data Centre
#                                CCDC 
#
#######################################################################
#
# If this CIF has been generated from an entry in the Cambridge 
# Structural Database, then it will include bibliographic, chemical, 
# crystal, experimental, refinement or atomic coordinate data resulting 
# from the CCDC's data processing and validation procedures.
#
#######################################################################

data_TEWPES
_symmetry_cell_setting           triclinic
_symmetry_space_group_name_H-M   'P -1'
_symmetry_Int_Tables_number      2
_space_group_name_Hall           '-P 1'
loop_
_symmetry_equiv_pos_site_id
_symmetry_equiv_pos_as_xyz
1 x,y,z
2 -x,-y,-z
_cell_length_a                   13.6280(13)
_cell_length_b                   15.2201(16)
_cell_length_c                   17.4399(18)
_cell_angle_alpha                112.704(2)
_cell_angle_beta                 91.6760(10)
_cell_angle_gamma                94.9320(10)
_cell_volume                     3317.03
loop_
_atom_site_label
_atom_site_type_symbol
_atom_site_fract_x
_atom_site_fract_y
_atom_site_fract_z
Ag1 Ag 0.45551(10) 0.41587(12) 0.59018(9)
Ag2 Ag 0.49798(11) 0.59169(13) 0.91201(10)
Ag3 Ag 0.37079(10) 0.13731(14) 0.75793(13)
Ag4 Ag 0.54736(11) 0.87114(15) 0.74161(13)
N1 N 0.5263(12) 0.1075(14) 0.7583(13)
N2 N 1.2114(12) 0.1528(15) 0.7606(15)
N3 N 0.7080(14) 0.8622(15) 0.7401(14)
N4 N 1.3900(12) 0.8969(15) 0.7444(15)
N5 N 0.5312(11) 0.3660(12) 0.6819(10)
N6 N 0.3670(11) 0.4645(13) 0.8280(10)
N7 N 0.5869(11) 0.6132(12) 0.8146(9)
N8 N 0.3910(11) 0.5691(12) 0.6762(10)
O1 O 0.4168(9) 0.3108(10) 0.8887(8)
O2 O 0.5565(9) 0.3944(10) 0.9607(8)
O3 O 0.3891(10) 0.1855(11) 0.6245(9)
O4 O 0.2763(11) 0.2291(13) 0.5533(11)
O5 O 0.6061(9) 0.5867(10) 0.5357(8)
O6 O 0.5102(9) 0.6983(11) 0.6106(8)
O7 O 0.5345(10) 0.8274(11) 0.8757(9)
O8 O 0.4181(13) 0.7952(13) 0.9480(12)
C1 C 0.5732(15) 0.0837(17) 0.6886(16)
H1 H 0.5368 0.0692 0.6385
C2 C 0.6775(14) 0.0794(16) 0.6877(16)
H2 H 0.7092 0.0660 0.6386
C3 C 0.7295(15) 0.0954(17) 0.7609(17)
C4 C 0.6797(15) 0.1155(16) 0.8285(16)
H3 H 0.7123 0.1246 0.8790
C5 C 0.5803(13) 0.1232(15) 0.8246(15)
H4 H 0.5494 0.1413 0.8744
C6 C 1.1505(15) 0.1098(16) 0.6877(16)
H5 H 1.1765 0.0723 0.6384
C7 C 1.0526(14) 0.1226(17) 0.6887(17)
H6 H 1.0153 0.0956 0.6381
C8 C 1.0060(14) 0.1702(18) 0.7554(17)
C9 C 1.0700(14) 0.2080(16) 0.8255(16)
H7 H 1.0429 0.2419 0.8754
C10 C 1.1677(16) 0.2011(19) 0.8295(18)
H8 H 1.2045 0.2299 0.8803
C11 C 0.8438(13) 0.0908(16) 0.7605(15)
H9 H 0.8673 0.0850 0.8112
H10 H 0.8580 0.0341 0.7138
C12 C 0.8965(13) 0.1749(17) 0.7546(15)
H11 H 0.8818 0.2317 0.8009
H12 H 0.8738 0.1802 0.7035
C13 C 0.7538(16) 0.8329(17) 0.6650(16)
H13 H 0.7163 0.8219 0.6161
C14 C 0.8524(16) 0.8198(16) 0.6605(16)
H14 H 0.8823 0.8035 0.6103
C15 C 0.9085(15) 0.8324(18) 0.7372(18)
C16 C 0.8572(16) 0.8540(17) 0.8122(16)
H15 H 0.8883 0.8566 0.8613
C17 C 0.7552(15) 0.8712(17) 0.8076(17)
H16 H 0.7221 0.8899 0.8563
C18 C 1.3302(15) 0.8450(17) 0.6713(17)
H17 H 1.3574 0.8099 0.6218
C19 C 1.2273(15) 0.8481(19) 0.6756(17)
H18 H 1.1846 0.8082 0.6307
C20 C 1.1874(16) 0.916(2) 0.7523(19)
C21 C 1.2471(15) 0.9611(18) 0.8193(17)
H19 H 1.2200 0.9982 0.8682
C22 C 1.3487(16) 0.9568(19) 0.8206(18)
H20 H 1.3889 0.9911 0.8688
C23 C 1.0203(14) 0.8225(18) 0.7426(15)
H21 H 1.0379 0.8149 0.7938
H22 H 1.0353 0.7659 0.6962
C24 C 1.0769(14) 0.9050(17) 0.7406(15)
H23 H 1.0540 0.9607 0.7832
H24 H 1.0602 0.9082 0.6874
C25 C 0.4998(15) 0.3472(16) 0.8901(13)
C26 C 0.4925(13) 0.3647(15) 0.7510(13)
C27 C 0.5453(13) 0.3579(14) 0.8187(12)
C28 C 0.6413(14) 0.3444(15) 0.8078(13)
H25 H 0.6783 0.3365 0.8499
C29 C 0.6892(14) 0.3414(15) 0.7355(13)
H26 H 0.7557 0.3324 0.7301
C30 C 0.6299(13) 0.3529(15) 0.6717(13)
H27 H 0.6578 0.3516 0.6232
C31 C 0.3268(15) 0.2392(18) 0.6196(14)
C32 C 0.3858(14) 0.3843(17) 0.7594(14)
C33 C 0.3090(14) 0.3287(16) 0.6990(13)
C34 C 0.2080(14) 0.3554(17) 0.7104(14)
H28 H 0.1573 0.3210 0.6704
C35 C 0.1894(15) 0.4293(17) 0.7785(14)
H29 H 0.1247 0.4437 0.7870
C36 C 0.2690(13) 0.4888(15) 0.8411(13)
H30 H 0.2551 0.5409 0.8878
C37 C 0.5650(15) 0.6370(18) 0.6041(13)
C38 C 0.5525(13) 0.6258(14) 0.7441(12)
C39 C 0.6118(13) 0.6259(14) 0.6801(12)
C40 C 0.7088(12) 0.6095(14) 0.6854(12)
H31 H 0.7495 0.6059 0.6427
C41 C 0.7437(14) 0.5987(15) 0.7546(13)
H32 H 0.8094 0.5878 0.7587
C42 C 0.6881(14) 0.6030(15) 0.8161(13)
H33 H 0.7176 0.5991 0.8633
C43 C 0.4562(17) 0.7809(18) 0.8800(15)
C44 C 0.4417(14) 0.6341(17) 0.7425(14)
C45 C 0.3980(15) 0.7034(17) 0.8057(14)
C46 C 0.2975(14) 0.7050(16) 0.8026(14)
H34 H 0.2671 0.7492 0.8458
C47 C 0.2412(14) 0.6366(17) 0.7310(14)
H35 H 0.1729 0.6358 0.7264
C48 C 0.2901(14) 0.5701(16) 0.6670(13)
H36 H 0.2544 0.5272 0.6190
Ag1A Ag 0.54449(10) 0.58413(12) 0.40982(9)
Ag2A Ag 0.50202(11) 0.40831(13) 1.08799(10)
Ag3_2 Ag 1.37079(10) 0.13731(14) 0.75793(13)
Ag4_2 Ag 1.54736(11) 0.87114(15) 0.74161(13)
N2_2 N 0.2114(12) 0.1528(15) 0.7606(15)
N4_2 N 0.3900(12) 0.8969(15) 0.7444(15)
O2A O 0.4435(9) 0.6056(10) 1.0393(8)
O5A O 0.3939(9) 0.4133(10) 0.4643(8)
loop_
_geom_bond_atom_site_label_1
_geom_bond_atom_site_label_2
_geom_bond_site_symmetry_1
_geom_bond_site_symmetry_2
Ag1 N5 1_555 1_555
Ag2 N6 1_555 1_555
Ag3 N1 1_555 1_555
Ag4 N3 1_555 1_555
N1 C1 1_555 1_555
N2 C6 1_555 1_555
N3 C13 1_555 1_555
N4 C18 1_555 1_555
N5 C26 1_555 1_555
N6 C32 1_555 1_555
N7 Ag2 1_555 1_555
N8 Ag1 1_555 1_555
O1 C25 1_555 1_555
O2 C25 1_555 1_555
O3 Ag3 1_555 1_555
O4 C31 1_555 1_555
O5 C37 1_555 1_555
O6 C37 1_555 1_555
O7 Ag4 1_555 1_555
O8 C43 1_555 1_555
C1 H1 1_555 1_555
C2 C1 1_555 1_555
H2 C2 1_555 1_555
C3 C2 1_555 1_555
C4 C3 1_555 1_555
H3 C4 1_555 1_555
C5 N1 1_555 1_555
H4 C5 1_555 1_555
C6 H5 1_555 1_555
C7 C6 1_555 1_555
H6 C7 1_555 1_555
C8 C7 1_555 1_555
C9 C8 1_555 1_555
H7 C9 1_555 1_555
C10 N2 1_555 1_555
H8 C10 1_555 1_555
C11 C3 1_555 1_555
H9 C11 1_555 1_555
H10 C11 1_555 1_555
C12 C8 1_555 1_555
H11 C12 1_555 1_555
H12 C12 1_555 1_555
C13 H13 1_555 1_555
C14 C13 1_555 1_555
H14 C14 1_555 1_555
C15 C14 1_555 1_555
C16 C15 1_555 1_555
H15 C16 1_555 1_555
C17 N3 1_555 1_555
H16 C17 1_555 1_555
C18 H17 1_555 1_555
C19 C18 1_555 1_555
H18 C19 1_555 1_555
C20 C19 1_555 1_555
C21 C20 1_555 1_555
H19 C21 1_555 1_555
C22 N4 1_555 1_555
H20 C22 1_555 1_555
C23 C15 1_555 1_555
H21 C23 1_555 1_555
H22 C23 1_555 1_555
C24 C20 1_555 1_555
H23 C24 1_555 1_555
H24 C24 1_555 1_555
C25 C27 1_555 1_555
C26 C27 1_555 1_555
C27 C28 1_555 1_555
C28 H25 1_555 1_555
C29 C28 1_555 1_555
H26 C29 1_555 1_555
C30 N5 1_555 1_555
H27 C30 1_555 1_555
C31 O3 1_555 1_555
C32 C26 1_555 1_555
C33 C31 1_555 1_555
C34 C33 1_555 1_555
H28 C34 1_555 1_555
C35 C34 1_555 1_555
H29 C35 1_555 1_555
C36 N6 1_555 1_555
H30 C36 1_555 1_555
C37 C39 1_555 1_555
C38 N7 1_555 1_555
C39 C38 1_555 1_555
C40 C39 1_555 1_555
H31 C40 1_555 1_555
C41 C40 1_555 1_555
H32 C41 1_555 1_555
C42 N7 1_555 1_555
H33 C42 1_555 1_555
C43 O7 1_555 1_555
C44 N8 1_555 1_555
C45 C43 1_555 1_555
C46 C45 1_555 1_555
H34 C46 1_555 1_555
C47 C46 1_555 1_555
H35 C47 1_555 1_555
C48 N8 1_555 1_555
H36 C48 1_555 1_555
Ag1A O5 1_555 1_555
Ag2A O2 1_555 1_555
Ag3_2 N2 1_555 1_555
Ag4_2 N4 1_555 1_555
N2_2 Ag3 1_555 1_555
N4_2 Ag4 1_555 1_555
O2A Ag2 1_555 1_555
O5A Ag1 1_555 1_555
C4 C5 1_555 1_555
C9 C10 1_555 1_555
C11 C12 1_555 1_555
C16 C17 1_555 1_555
C21 C22 1_555 1_555
C23 C24 1_555 1_555
C29 C30 1_555 1_555
C32 C33 1_555 1_555
C35 C36 1_555 1_555
C38 C44 1_555 1_555
C41 C42 1_555 1_555
C44 C45 1_555 1_555
C47 C48 1_555 1_555

#END
