
#######################################################################
#
#                 Cambridge Crystallographic Data Centre
#                                CCDC 
#
#######################################################################
#
# If this CIF has been generated from an entry in the Cambridge 
# Structural Database, then it will include bibliographic, chemical, 
# crystal, experimental, refinement or atomic coordinate data resulting 
# from the CCDC's data processing and validation procedures.
#
#######################################################################

data_TEWPUI
_symmetry_cell_setting           monoclinic
_symmetry_space_group_name_H-M   'C c'
_symmetry_Int_Tables_number      9
_space_group_name_Hall           'C -2yc'
loop_
_symmetry_equiv_pos_site_id
_symmetry_equiv_pos_as_xyz
1 x,y,z
2 x,-y,1/2+z
3 1/2+x,1/2+y,z
4 1/2+x,1/2-y,1/2+z
_cell_length_a                   13.4774(12)
_cell_length_b                   34.165(3)
_cell_length_c                   10.0839(8)
_cell_angle_alpha                90
_cell_angle_beta                 127.229(2)
_cell_angle_gamma                90
_cell_volume                     3697.02
loop_
_atom_site_label
_atom_site_type_symbol
_atom_site_fract_x
_atom_site_fract_y
_atom_site_fract_z
Ag1 Ag 0.72202(8) 0.25056(4) 0.08184(11)
N1 N 0.8958(10) 0.2481(2) 0.1214(13)
N2 N 1.5513(10) 0.2507(3) 0.0574(13)
C1 C 0.9665(11) 0.2796(3) 0.1567(14)
H1 H 0.9383 0.3035 0.1664
C2 C 1.0781(10) 0.2792(3) 0.1797(13)
H2 H 1.1242 0.3021 0.2076
C3 C 1.1205(11) 0.2446(3) 0.1608(14)
C4 C 1.0521(11) 0.2123(3) 0.1319(15)
H3 H 1.0805 0.1881 0.1255
C5 C 0.9441(11) 0.2142(4) 0.1120(15)
H4 H 0.9003 0.1911 0.0907
C6 C 1.5125(10) 0.2833(4) 0.0792(15)
H5 H 1.5589 0.3060 0.1028
C7 C 1.4060(11) 0.2858(3) 0.0691(14)
H6 H 1.3844 0.3092 0.0927
C8 C 1.3314(10) 0.2528(3) 0.0230(14)
C9 C 1.3765(10) 0.2187(3) 0.0078(13)
H7 H 1.3345 0.1953 -0.0120
C10 C 1.4847(11) 0.2193(3) 0.0219(14)
H8 H 1.5116 0.1961 0.0052
C11 C 1.2379(10) 0.2443(3) 0.1774(14)
H9 H 1.2955 0.2633 0.2607
H10 H 1.2762 0.2186 0.2148
C12 C 1.2145(11) 0.2537(4) 0.0168(15)
H11 H 1.1773 0.2795 -0.0186
H12 H 1.1545 0.2351 -0.0665
Ag1_2 Ag 1.72202(8) 0.25056(4) 0.08184(11)
N2_2 N 0.5513(10) 0.2507(3) 0.0574(13)
Ag2 Ag 0.47885(9) 0.49284(3) 0.56368(12)
N3 N 0.3324(10) 0.4908(3) 0.5900(13)
N4 N -0.3847(10) 0.4954(3) 0.5197(14)
C13 C 0.2971(12) 0.5209(4) 0.6233(17)
H13 H 0.3384 0.5441 0.6366
C14 C 0.2029(12) 0.5234(4) 0.6424(17)
H14 H 0.1830 0.5470 0.6666
C15 C 0.1420(11) 0.4902(4) 0.6245(14)
C16 C 0.1775(11) 0.4575(4) 0.5898(15)
H15 H 0.1396 0.4338 0.5795
C17 C 0.2716(12) 0.4587(4) 0.5690(16)
H16 H 0.2914 0.4359 0.5392
C18 C -0.3334(11) 0.5286(4) 0.5226(15)
H17 H -0.3614 0.5519 0.5374
C19 C -0.2397(11) 0.5302(4) 0.5045(16)
H18 H -0.2079 0.5544 0.5053
C20 C -0.1930(11) 0.4975(3) 0.4856(14)
C21 C -0.2507(11) 0.4636(3) 0.4728(15)
H19 H -0.2286 0.4403 0.4488
C22 C -0.3431(11) 0.4635(3) 0.4958(15)
H20 H -0.3770 0.4396 0.4939
C23 C 0.0320(11) 0.4905(4) 0.6326(16)
H21 H 0.0284 0.4654 0.6745
H22 H 0.0468 0.5104 0.7113
C24 C -0.0905(11) 0.4982(3) 0.4697(18)
H23 H -0.0885 0.5235 0.4280
H24 H -0.1060 0.4785 0.3899
Ag2_2 Ag -0.52115(9) 0.49284(3) 0.56368(12)
N4_2 N 0.6153(10) 0.4954(3) 0.5197(14)
O1 O 0.2471(6) 0.1234(2) 0.2410(8)
O2 O 0.3597(5) 0.12517(17) 0.5138(6)
O3 O 0.8196(6) 0.1266(2) 0.8604(8)
O4 O 0.9122(6) 0.12060(19) 0.7424(7)
C25 C 0.3479(8) 0.1243(2) 0.3809(12)
C26 C 0.8165(8) 0.1244(3) 0.7360(11)
C27 C 0.4674(8) 0.1242(2) 0.3979(10)
C28 C 0.5830(7) 0.1241(2) 0.5497(10)
H25 H 0.5885 0.1237 0.6462
C29 C 0.6915(6) 0.1245(2) 0.5637(10)
C30 C 0.6848(8) 0.1251(2) 0.4210(11)
H26 H 0.7570 0.1256 0.4285
C31 C 0.5680(9) 0.1248(3) 0.2662(11)
H27 H 0.5616 0.1248 0.1690
C32 C 0.4623(9) 0.1246(3) 0.2580(11)
H28 H 0.3848 0.1248 0.1540
O5 O 0.0197(6) 0.09369(18) 0.1459(7)
H29 H 0.0873 0.1033 0.1713
H30 H -0.0407 0.1046 0.0569
O6 O 0.4810(9) 0.1178(2) 0.8497(11)
H31 H 0.4442 0.1204 0.7458
H32 H 0.5522 0.1286 0.9017
O7 O 0.9820(8) 0.07822(17) 0.5706(10)
H33 H 0.9615 0.0909 0.6233
H34 H 0.9696 0.0928 0.4936
O8 O 0.1822(6) 0.16505(19) 0.5115(7)
H35 H 0.2331 0.1549 0.4979
H36 H 0.1947 0.1546 0.5970
O9 O 0.9385(8) 0.1270(2) 0.3161(10)
H37 H 0.9481 0.1145 0.2517
H38 H 1.0044 0.1402 0.3834
O10 O 0.2535(8) 0.1227(2) 0.7955(9)
H39 H 0.3299 0.1250 0.8369
H40 H 0.2411 0.1337 0.8601
O11 O 0.7083(8) 0.1533(2) 0.0220(10)
H41 H 0.7706 0.1472 0.1202
H42 H 0.7258 0.1475 -0.0438
O12 O 0.1463(5) 0.14956(17) 0.9311(7)
H43 H 0.1802 0.1418 1.0299
H44 H 0.0721 0.1409 0.8688
loop_
_geom_bond_atom_site_label_1
_geom_bond_atom_site_label_2
_geom_bond_site_symmetry_1
_geom_bond_site_symmetry_2
Ag1 N1 1_555 1_555
N1 C1 1_555 1_555
N2 C6 1_555 1_555
C1 H1 1_555 1_555
C2 C1 1_555 1_555
H2 C2 1_555 1_555
C3 C2 1_555 1_555
C4 C3 1_555 1_555
H3 C4 1_555 1_555
C5 N1 1_555 1_555
H4 C5 1_555 1_555
C6 H5 1_555 1_555
C7 C6 1_555 1_555
H6 C7 1_555 1_555
C8 C7 1_555 1_555
C9 C8 1_555 1_555
H7 C9 1_555 1_555
C10 N2 1_555 1_555
H8 C10 1_555 1_555
C11 C3 1_555 1_555
H9 C11 1_555 1_555
H10 C11 1_555 1_555
C12 C8 1_555 1_555
H11 C12 1_555 1_555
H12 C12 1_555 1_555
Ag2 N3 1_555 1_555
N3 C13 1_555 1_555
N4 C18 1_555 1_555
C13 H13 1_555 1_555
C14 C13 1_555 1_555
H14 C14 1_555 1_555
C15 C14 1_555 1_555
C16 C15 1_555 1_555
H15 C16 1_555 1_555
C17 N3 1_555 1_555
H16 C17 1_555 1_555
C18 H17 1_555 1_555
C19 C18 1_555 1_555
H18 C19 1_555 1_555
C20 C19 1_555 1_555
C21 C20 1_555 1_555
H19 C21 1_555 1_555
C22 N4 1_555 1_555
H20 C22 1_555 1_555
C23 C15 1_555 1_555
H21 C23 1_555 1_555
H22 C23 1_555 1_555
C24 C20 1_555 1_555
H23 C24 1_555 1_555
H24 C24 1_555 1_555
O1 C25 1_555 1_555
O2 C25 1_555 1_555
O3 C26 1_555 1_555
O4 C26 1_555 1_555
C25 C27 1_555 1_555
C26 C29 1_555 1_555
C27 C28 1_555 1_555
C28 H25 1_555 1_555
C29 C28 1_555 1_555
C30 C29 1_555 1_555
H26 C30 1_555 1_555
C31 C30 1_555 1_555
H27 C31 1_555 1_555
C32 C27 1_555 1_555
H28 C32 1_555 1_555
O5 H29 1_555 1_555
H30 O5 1_555 1_555
O6 H31 1_555 1_555
H32 O6 1_555 1_555
O7 H33 1_555 1_555
H34 O7 1_555 1_555
O8 H35 1_555 1_555
H36 O8 1_555 1_555
O9 H37 1_555 1_555
H38 O9 1_555 1_555
O10 H39 1_555 1_555
H40 O10 1_555 1_555
O11 H41 1_555 1_555
H42 O11 1_555 1_555
O12 H43 1_555 1_555
H44 O12 1_555 1_555
Ag1_2 N2 1_555 1_555
N2_2 Ag1 1_555 1_555
Ag2_2 N4 1_555 1_555
N4_2 Ag2 1_555 1_555
C4 C5 1_555 1_555
C9 C10 1_555 1_555
C11 C12 1_555 1_555
C16 C17 1_555 1_555
C21 C22 1_555 1_555
C23 C24 1_555 1_555
C31 C32 1_555 1_555

#END
