
#######################################################################
#
#                 Cambridge Crystallographic Data Centre
#                                CCDC 
#
#######################################################################
#
# If this CIF has been generated from an entry in the Cambridge 
# Structural Database, then it will include bibliographic, chemical, 
# crystal, experimental, refinement or atomic coordinate data resulting 
# from the CCDC's data processing and validation procedures.
#
#######################################################################

data_TEWYUR
_symmetry_cell_setting           monoclinic
_symmetry_space_group_name_H-M   'C c'
_symmetry_Int_Tables_number      9
_space_group_name_Hall           'C -2yc'
loop_
_symmetry_equiv_pos_site_id
_symmetry_equiv_pos_as_xyz
1 x,y,z
2 x,-y,1/2+z
3 1/2+x,1/2+y,z
4 1/2+x,1/2-y,1/2+z
_cell_length_a                   14.0594(16)
_cell_length_b                   21.611(2)
_cell_length_c                   7.1131(7)
_cell_angle_alpha                90
_cell_angle_beta                 107.091(12)
_cell_angle_gamma                90
_cell_volume                     2065.79
loop_
_atom_site_label
_atom_site_type_symbol
_atom_site_fract_x
_atom_site_fract_y
_atom_site_fract_z
Zn1 Zn 0.82223(5) 0.32864(2) 0.40023(7)
O1 O 0.8661(3) 0.30191(16) 0.1317(5)
O2 O 0.7991(3) 0.23463(16) 0.2853(5)
O3 O 0.6287(2) 0.17881(15) -0.0538(5)
H1 H 0.6590 0.2057 -0.0940
O4 O 0.6651(3) 0.09773(16) 0.1376(6)
O5 O 0.6414(3) 0.05631(18) -0.3496(6)
O6 O 0.7724(3) -0.00156(17) -0.2053(6)
H2 H 0.7324 -0.0297 -0.2446
O7 O 0.7649(3) 0.31797(16) -0.3621(5)
O8 O 0.6672(3) 0.27294(15) -0.2128(5)
O9 O 0.9644(3) 0.31179(17) 0.5684(5)
H3 H 0.9680 0.2925 0.6744
H4 H 1.0048 0.3202 0.5034
N1 N 0.6753(3) 0.35681(19) 0.2354(5)
N2 N 0.8346(4) 0.42632(17) 0.4181(7)
C1 C 0.7687(4) 0.1608(2) -0.3316(7)
H5 H 0.6971 0.1657 -0.3806
H6 H 0.7944 0.1540 -0.4425
C2 C 0.8167(4) 0.2186(2) -0.2156(7)
H7 H 0.8778 0.2283 -0.2494
C3 C 0.8455(4) 0.1983(2) 0.0057(7)
H8 H 0.9168 0.1891 0.0420
C4 C 0.7941(4) 0.1356(2) 0.0136(7)
H9 H 0.8370 0.1107 0.1203
C5 C 0.7954(4) 0.1069(2) -0.1886(7)
H10 H 0.8637 0.0941 -0.1776
C6 C 0.7473(4) 0.2735(2) -0.2678(6)
C7 C 0.8346(3) 0.2481(2) 0.1502(7)
C8 C 0.6898(4) 0.1371(2) 0.0365(7)
C9 C 0.7277(4) 0.0515(2) -0.2551(7)
C10 C 0.9129(4) 0.4591(3) 0.5127(8)
H11 H 0.9716 0.4386 0.5779
C11 C 0.9106(5) 0.5229(3) 0.5178(9)
H12 H 0.9675 0.5448 0.5843
C12 C 0.8246(6) 0.5540(2) 0.4251(10)
H13 H 0.8227 0.5969 0.4304
C13 C 0.7406(5) 0.5211(3) 0.3235(8)
C14 C 0.6468(4) 0.5488(2) 0.2232(7)
H14 H 0.6408 0.5917 0.2196
C15 C 0.5672(4) 0.5137(2) 0.1343(7)
H15 H 0.5072 0.5329 0.0705
C16 C 0.5724(4) 0.4476(2) 0.1353(7)
C17 C 0.4916(4) 0.4089(3) 0.0454(8)
H16 H 0.4298 0.4260 -0.0186
C18 C 0.5039(4) 0.3468(3) 0.0523(7)
H17 H 0.4508 0.3208 -0.0073
C19 C 0.5976(4) 0.3219(2) 0.1503(8)
H18 H 0.6052 0.2791 0.1555
C20 C 0.6633(4) 0.4194(2) 0.2290(7)
C21 C 0.7480(4) 0.4556(2) 0.3266(8)
Zn1_2 Zn 0.82223(5) 0.32864(2) -0.59977(7)
O7_2 O 0.7649(3) 0.31797(16) 0.6379(5)
O10 O 1.0100(3) 0.3381(2) 0.9508(6)
H19 H 0.9639 0.3519 0.8537
H20 H 1.0511 0.3647 1.0165
loop_
_geom_bond_atom_site_label_1
_geom_bond_atom_site_label_2
_geom_bond_site_symmetry_1
_geom_bond_site_symmetry_2
Zn1 O1 1_555 1_555
O1 C7 1_555 1_555
O2 Zn1 1_555 1_555
O3 H1 1_555 1_555
O4 C8 1_555 1_555
O5 C9 1_555 1_555
O6 H2 1_555 1_555
O7 C6 1_555 1_555
O8 C6 1_555 1_555
O9 Zn1 1_555 1_555
H3 O9 1_555 1_555
H4 O9 1_555 1_555
N1 Zn1 1_555 1_555
N2 Zn1 1_555 1_555
C1 H5 1_555 1_555
H6 C1 1_555 1_555
C2 C1 1_555 1_555
H7 C2 1_555 1_555
C3 C2 1_555 1_555
H8 C3 1_555 1_555
C4 C3 1_555 1_555
H9 C4 1_555 1_555
C5 C1 1_555 1_555
H10 C5 1_555 1_555
C6 C2 1_555 1_555
C7 O2 1_555 1_555
C8 O3 1_555 1_555
C9 O6 1_555 1_555
C10 N2 1_555 1_555
H11 C10 1_555 1_555
C11 C10 1_555 1_555
H12 C11 1_555 1_555
C12 C11 1_555 1_555
H13 C12 1_555 1_555
C13 C12 1_555 1_555
C14 C13 1_555 1_555
H14 C14 1_555 1_555
C15 C14 1_555 1_555
H15 C15 1_555 1_555
C16 C15 1_555 1_555
C17 C16 1_555 1_555
H16 C17 1_555 1_555
C18 C17 1_555 1_555
H17 C18 1_555 1_555
C19 N1 1_555 1_555
H18 C19 1_555 1_555
C20 N1 1_555 1_555
C21 N2 1_555 1_555
O10 H19 1_555 1_555
H20 O10 1_555 1_555
Zn1_2 O7 1_555 1_555
O7_2 Zn1 1_555 1_555
C3 C7 1_555 1_555
C4 C5 1_555 1_555
C4 C8 1_555 1_555
C5 C9 1_555 1_555
C13 C21 1_555 1_555
C16 C20 1_555 1_555
C18 C19 1_555 1_555
C20 C21 1_555 1_555

#END
