
#######################################################################
#
#                 Cambridge Crystallographic Data Centre
#                                CCDC 
#
#######################################################################
#
# If this CIF has been generated from an entry in the Cambridge 
# Structural Database, then it will include bibliographic, chemical, 
# crystal, experimental, refinement or atomic coordinate data resulting 
# from the CCDC's data processing and validation procedures.
#
#######################################################################

data_TEXFAF
_symmetry_cell_setting           monoclinic
_symmetry_space_group_name_H-M   'P 21/n'
_symmetry_Int_Tables_number      14
_space_group_name_Hall           '-P 2yn'
loop_
_symmetry_equiv_pos_site_id
_symmetry_equiv_pos_as_xyz
1 x,y,z
2 1/2-x,1/2+y,1/2-z
3 -x,-y,-z
4 1/2+x,1/2-y,1/2+z
_cell_length_a                   11.0263(3)
_cell_length_b                   12.4110(3)
_cell_length_c                   12.4432(4)
_cell_angle_alpha                90
_cell_angle_beta                 91.448(3)
_cell_angle_gamma                90
_cell_volume                     1702.28
loop_
_atom_site_label
_atom_site_type_symbol
_atom_site_fract_x
_atom_site_fract_y
_atom_site_fract_z
Sn1 Sn 0.801112(13) 0.682226(12) 0.746174(13)
Cl1 Cl 1.01679(5) 0.70764(5) 0.71544(5)
O1 O 0.77030(15) 0.84183(13) 0.69291(14)
O2 O 0.65325(15) 0.98735(13) 0.68135(14)
N1 N 0.58705(17) 0.72300(16) 0.76506(15)
C1 C 0.7589(2) 0.59313(18) 0.60412(19)
C2 C 0.6509(2) 0.6073(2) 0.5467(2)
H1 H 0.5930 0.6576 0.5714
C3 C 0.6257(2) 0.5487(2) 0.4530(2)
H2 H 0.5519 0.5602 0.4137
C4 C 0.7085(3) 0.4740(2) 0.4177(2)
H3 H 0.6907 0.4328 0.3550
C5 C 0.8173(3) 0.4589(2) 0.4734(2)
H4 H 0.8740 0.4073 0.4492
C6 C 0.8432(2) 0.51992(19) 0.5651(2)
H5 H 0.9194 0.5116 0.6016
C7 C 0.8030(2) 0.7042(2) 0.9157(2)
H6 H 0.7823 0.7803 0.9306
H7 H 0.7382 0.6590 0.9457
C8 C 0.9200(3) 0.6782(2) 0.9749(2)
H8 H 0.9105 0.6907 1.0520
H9 H 0.9848 0.7245 0.9484
H10 H 0.9410 0.6025 0.9628
C9 C 0.6692(2) 0.89160(19) 0.70300(19)
C10 C 0.5636(2) 0.82667(18) 0.74474(19)
C11 C 0.4507(2) 0.8750(2) 0.7623(2)
H11 H 0.4374 0.9488 0.7459
C12 C 0.3604(2) 0.8131(2) 0.8037(2)
H12 H 0.2831 0.8440 0.8159
C13 C 0.3818(2) 0.7038(2) 0.8282(2)
C14 C 0.2929(2) 0.6365(2) 0.8743(2)
H13 H 0.2156 0.6650 0.8906
C15 C 0.3185(2) 0.5309(2) 0.8951(2)
H14 H 0.2588 0.4864 0.9263
C16 C 0.4332(2) 0.4869(2) 0.8709(2)
H15 H 0.4491 0.4130 0.8849
C17 C 0.5211(2) 0.54963(19) 0.8275(2)
H16 H 0.5979 0.5195 0.8118
C18 C 0.4974(2) 0.65973(19) 0.80603(19)
Sn1A Sn 0.698888(13) 1.182226(12) 0.753826(13)
O2A O 0.84675(15) 0.48735(13) 0.81865(14)
loop_
_geom_bond_atom_site_label_1
_geom_bond_atom_site_label_2
_geom_bond_site_symmetry_1
_geom_bond_site_symmetry_2
Sn1 Cl1 1_555 1_555
O1 Sn1 1_555 1_555
O2 C9 1_555 1_555
N1 Sn1 1_555 1_555
C1 Sn1 1_555 1_555
C2 C1 1_555 1_555
H1 C2 1_555 1_555
C3 C2 1_555 1_555
H2 C3 1_555 1_555
C4 C3 1_555 1_555
H3 C4 1_555 1_555
C5 C4 1_555 1_555
H4 C5 1_555 1_555
C6 C1 1_555 1_555
H5 C6 1_555 1_555
C7 Sn1 1_555 1_555
H6 C7 1_555 1_555
H7 C7 1_555 1_555
C8 C7 1_555 1_555
H8 C8 1_555 1_555
H9 C8 1_555 1_555
H10 C8 1_555 1_555
C9 O1 1_555 1_555
C10 N1 1_555 1_555
C11 C10 1_555 1_555
H11 C11 1_555 1_555
C12 C11 1_555 1_555
H12 C12 1_555 1_555
C13 C12 1_555 1_555
C14 C13 1_555 1_555
H13 C14 1_555 1_555
C15 C14 1_555 1_555
H14 C15 1_555 1_555
C16 C15 1_555 1_555
H15 C16 1_555 1_555
C17 C16 1_555 1_555
H16 C17 1_555 1_555
C18 N1 1_555 1_555
Sn1A O2 1_555 1_555
O2A Sn1 1_555 1_555
C5 C6 1_555 1_555
C9 C10 1_555 1_555
C13 C18 1_555 1_555
C17 C18 1_555 1_555

#END
