
#######################################################################
#
#                 Cambridge Crystallographic Data Centre
#                                CCDC 
#
#######################################################################
#
# If this CIF has been generated from an entry in the Cambridge 
# Structural Database, then it will include bibliographic, chemical, 
# crystal, experimental, refinement or atomic coordinate data resulting 
# from the CCDC's data processing and validation procedures.
#
#######################################################################

data_TEXTUL
_symmetry_cell_setting           monoclinic
_symmetry_space_group_name_H-M   'C 2/c'
_symmetry_Int_Tables_number      15
_space_group_name_Hall           '-C 2yn'
loop_
_symmetry_equiv_pos_site_id
_symmetry_equiv_pos_as_xyz
1 x,y,z
2 -x,y,1/2-z
3 1/2+x,1/2+y,z
4 1/2-x,1/2+y,1/2-z
5 -x,-y,-z
6 x,-y,1/2+z
7 1/2-x,1/2-y,-z
8 1/2+x,1/2-y,1/2+z
_cell_length_a                   17.7715(14)
_cell_length_b                   4.7184(15)
_cell_length_c                   15.522(2)
_cell_angle_alpha                90
_cell_angle_beta                 96.648(7)
_cell_angle_gamma                90
_cell_volume                     1292.82
loop_
_atom_site_label
_atom_site_type_symbol
_atom_site_fract_x
_atom_site_fract_y
_atom_site_fract_z
Cd1 Cd 0.0000 0.0000 0.0000
O1 O -0.2245(2) 0.4181(6) 0.1190(2)
O2 O -0.40775(13) -0.2231(5) 0.0743(2)
O3 O -0.47408(12) 0.1493(5) 0.11189(14)
N1 N -0.0916(2) 0.1832(7) 0.0765(2)
H1 H -0.0727(24) 0.2232(89) 0.1232(29)
H2 H -0.1056(26) 0.330(12) 0.0476(29)
N2 N -0.2749(2) -0.0044(6) 0.1477(2)
H3 H -0.2710(24) -0.193(10) 0.1396(26)
C1 C -0.1565(2) 0.0049(8) 0.0858(3)
H4 H -0.1733(24) -0.0615(82) 0.0334(28)
H5 H -0.1426(24) -0.158(11) 0.1162(27)
C2 C -0.2215(2) 0.1579(7) 0.1194(2)
C3 C -0.3454(2) 0.1081(9) 0.1716(3)
H6 H -0.3444(23) 0.3019(99) 0.1681(25)
H7 H -0.3528(26) 0.0449(80) 0.2332(31)
C4 C -0.4150(2) 0.0021(6) 0.1137(2)
O3F O -0.02592(12) 0.3507(5) -0.11189(14)
O2F O -0.09225(13) -0.2769(5) -0.0743(2)
O2B O 0.09225(13) 0.2769(5) 0.0743(2)
O3B O 0.02592(12) -0.3507(5) 0.11189(14)
N1D N 0.0916(2) -0.1832(7) -0.0765(2)
H1D H 0.0727(24) -0.2232(89) -0.1232(29)
H2D H 0.1056(26) -0.330(12) -0.0476(29)
C1D C 0.1565(2) -0.0049(8) -0.0858(3)
H4D H 0.1733(24) 0.0615(82) -0.0334(28)
H5D H 0.1426(24) 0.158(11) -0.1162(27)
C2D C 0.2215(2) -0.1579(7) -0.1194(2)
O1D O 0.2245(2) -0.4181(6) -0.1190(2)
N2D N 0.2749(2) 0.0044(6) -0.1477(2)
H3D H 0.2710(24) 0.193(10) -0.1396(26)
C3D C 0.3454(2) -0.1081(9) -0.1716(3)
H6D H 0.3444(23) -0.3019(99) -0.1681(25)
H7D H 0.3528(26) -0.0449(80) -0.2332(31)
C4D C 0.4150(2) -0.0021(6) -0.1137(2)
O2D O 0.40775(13) 0.2231(5) -0.0743(2)
O3D O 0.47408(12) -0.1493(5) -0.11189(14)
Cd1B Cd -0.5000 -0.5000 0.0000
Cd1B_2 Cd -0.5000 0.5000 0.0000
Cd1B_3 Cd 0.5000 0.5000 0.0000
Cd1B_4 Cd 0.5000 -0.5000 0.0000
O4 O -0.5000 0.5209(11) 0.2500
H8 H -0.4833(40) 0.406(13) 0.2174(38)
H8A H -0.5167(40) 0.406(13) 0.2826(38)
loop_
_geom_bond_atom_site_label_1
_geom_bond_atom_site_label_2
_geom_bond_site_symmetry_1
_geom_bond_site_symmetry_2
Cd1 N1 1_555 1_555
O1 C2 1_555 1_555
O2 C4 1_555 1_555
O3 C4 1_555 1_555
N1 H1 1_555 1_555
H2 N1 1_555 1_555
N2 H3 1_555 1_555
C1 N1 1_555 1_555
H4 C1 1_555 1_555
H5 C1 1_555 1_555
C2 N2 1_555 1_555
C3 N2 1_555 1_555
H6 C3 1_555 1_555
H7 C3 1_555 1_555
C4 C3 1_555 1_555
O4 H8 1_555 1_555
O3F Cd1 1_555 1_555
O2F Cd1 1_555 1_555
O2B Cd1 1_555 1_555
O3B Cd1 1_555 1_555
N1D Cd1 1_555 1_555
H1D N1D 1_555 1_555
H2D N1D 1_555 1_555
C1D N1D 1_555 1_555
H4D C1D 1_555 1_555
H5D C1D 1_555 1_555
C2D C1D 1_555 1_555
O1D C2D 1_555 1_555
N2D C2D 1_555 1_555
H3D N2D 1_555 1_555
C3D N2D 1_555 1_555
H6D C3D 1_555 1_555
H7D C3D 1_555 1_555
C4D C3D 1_555 1_555
O2D C4D 1_555 1_555
O3D C4D 1_555 1_555
Cd1B O2 1_555 1_555
Cd1B_2 O3 1_555 1_555
Cd1B_3 O2D 1_555 1_555
Cd1B_4 O3D 1_555 1_555
H8A O4 1_555 1_555
C1 C2 1_555 1_555

#END
