
#######################################################################
#
#                 Cambridge Crystallographic Data Centre
#                                CCDC 
#
#######################################################################
#
# If this CIF has been generated from an entry in the Cambridge 
# Structural Database, then it will include bibliographic, chemical, 
# crystal, experimental, refinement or atomic coordinate data resulting 
# from the CCDC's data processing and validation procedures.
#
#######################################################################

data_TEXTIZ
_symmetry_cell_setting           orthorhombic
_symmetry_space_group_name_H-M   'P b c a'
_symmetry_Int_Tables_number      61
_space_group_name_Hall           '-P 2ac 2ab'
loop_
_symmetry_equiv_pos_site_id
_symmetry_equiv_pos_as_xyz
1 x,y,z
2 1/2-x,-y,1/2+z
3 1/2+x,1/2-y,-z
4 -x,1/2+y,1/2-z
5 -x,-y,-z
6 1/2+x,y,1/2-z
7 1/2-x,1/2+y,z
8 x,1/2-y,1/2+z
_cell_length_a                   11.130(5)
_cell_length_b                   13.207(6)
_cell_length_c                   9.208(4)
_cell_angle_alpha                90
_cell_angle_beta                 90
_cell_angle_gamma                90
_cell_volume                     1353.52
loop_
_atom_site_label
_atom_site_type_symbol
_atom_site_fract_x
_atom_site_fract_y
_atom_site_fract_z
Cd1 Cd 0.0000 0.0000 0.0000
O1 O 0.00053(11) 0.05541(13) 0.2432(2)
O2 O 0.01482(12) -0.16956(10) 0.0749(2)
N1 N -0.1949(2) 0.01723(14) 0.0702(2)
C1 C -0.0960(2) 0.09377(13) 0.2816(2)
H1 H -0.2180(22) -0.0415(21) 0.1040(27)
H2 H -0.2349(30) 0.0317(25) -0.0078(26)
C2 C -0.2055(2) 0.0947(2) 0.1836(2)
N2 N -0.10959(14) 0.13863(12) 0.4104(2)
H3 H -0.2117(19) 0.1598(17) 0.1424(24)
H4 H -0.2766(20) 0.0877(18) 0.2408(23)
H5 H -0.1788(22) 0.1613(17) 0.4310(27)
C3 C -0.0080(2) 0.1579(2) 0.5051(2)
H6 H -0.0322(24) 0.1497(20) 0.6028(33)
H7 H 0.0538(30) 0.1121(23) 0.4843(25)
C4 C 0.0452(2) 0.26451(15) 0.4925(2)
O3 O 0.14297(12) 0.27875(12) 0.5539(2)
O2D O -0.01482(12) 0.16956(10) -0.0749(2)
O1D O -0.00053(11) -0.05541(13) -0.2432(2)
N1D N 0.1949(2) -0.01723(14) -0.0702(2)
C1D C 0.0960(2) -0.09377(13) -0.2816(2)
H1D H 0.2180(22) 0.0415(21) -0.1040(27)
H2D H 0.2349(30) -0.0317(25) 0.0078(26)
C2D C 0.2055(2) -0.0947(2) -0.1836(2)
N2D N 0.10959(14) -0.13863(12) -0.4104(2)
H3D H 0.2117(19) -0.1598(17) -0.1424(24)
H4D H 0.2766(20) -0.0877(18) -0.2408(23)
C3D C 0.0080(2) -0.1579(2) -0.5051(2)
H5D H 0.1788(22) -0.1613(17) -0.4310(27)
C4D C -0.0452(2) -0.26451(15) -0.4925(2)
H7D H -0.0538(30) -0.1121(23) -0.4843(25)
H6D H 0.0322(24) -0.1497(20) -0.6028(33)
O2C O -0.01482(12) 0.33044(10) 0.4251(2)
O3D O -0.14297(12) -0.27875(12) -0.5539(2)
O2G O 0.01482(12) -0.33044(10) -0.4251(2)
Cd1C Cd 0.0000 0.5000 0.5000
Cd1C_2 Cd 0.0000 -0.5000 -0.5000
O4 O 0.2671(2) 0.13806(15) 0.7204(2)
H8 H 0.3364(32) 0.1540(25) 0.6841(36)
H9 H 0.2136(29) 0.1765(25) 0.6786(36)
loop_
_geom_bond_atom_site_label_1
_geom_bond_atom_site_label_2
_geom_bond_site_symmetry_1
_geom_bond_site_symmetry_2
Cd1 O1 1_555 1_555
O1 C1 1_555 1_555
O2 Cd1 1_555 1_555
N1 Cd1 1_555 1_555
C1 C2 1_555 1_555
H1 N1 1_555 1_555
H2 N1 1_555 1_555
C2 N1 1_555 1_555
N2 C1 1_555 1_555
H3 C2 1_555 1_555
H4 C2 1_555 1_555
H5 N2 1_555 1_555
C3 N2 1_555 1_555
H6 C3 1_555 1_555
H7 C3 1_555 1_555
C4 C3 1_555 1_555
O3 C4 1_555 1_555
O4 H8 1_555 1_555
H9 O4 1_555 1_555
O2D Cd1 1_555 1_555
O1D Cd1 1_555 1_555
N1D Cd1 1_555 1_555
C1D O1D 1_555 1_555
H1D N1D 1_555 1_555
H2D N1D 1_555 1_555
C2D N1D 1_555 1_555
N2D C1D 1_555 1_555
H3D C2D 1_555 1_555
H4D C2D 1_555 1_555
C3D N2D 1_555 1_555
H5D N2D 1_555 1_555
C4D C3D 1_555 1_555
H7D C3D 1_555 1_555
H6D C3D 1_555 1_555
O2C C4 1_555 1_555
O3D C4D 1_555 1_555
O2G C4D 1_555 1_555
Cd1C O2C 1_555 1_555
Cd1C_2 O2G 1_555 1_555
C1D C2D 1_555 1_555

#END
