
#######################################################################
#
#                 Cambridge Crystallographic Data Centre
#                                CCDC 
#
#######################################################################
#
# If this CIF has been generated from an entry in the Cambridge 
# Structural Database, then it will include bibliographic, chemical, 
# crystal, experimental, refinement or atomic coordinate data resulting 
# from the CCDC's data processing and validation procedures.
#
#######################################################################

data_TEYLIU
_symmetry_cell_setting           monoclinic
_symmetry_space_group_name_H-M   'P 21/n'
_symmetry_Int_Tables_number      14
_space_group_name_Hall           '-P 2yn'
loop_
_symmetry_equiv_pos_site_id
_symmetry_equiv_pos_as_xyz
1 x,y,z
2 1/2-x,1/2+y,1/2-z
3 -x,-y,-z
4 1/2+x,1/2-y,1/2+z
_cell_length_a                   6.2035(4)
_cell_length_b                   22.7373(16)
_cell_length_c                   12.0445(8)
_cell_angle_alpha                90
_cell_angle_beta                 91.6690(10)
_cell_angle_gamma                90
_cell_volume                     1698.17
loop_
_atom_site_label
_atom_site_type_symbol
_atom_site_fract_x
_atom_site_fract_y
_atom_site_fract_z
O1 O 0.4361(5) 0.35697(14) 0.5009(3)
O2 O 0.7286(5) 0.30039(14) 0.4850(2)
N1 N 0.1999(6) 0.26389(17) 0.4229(3)
C1 C 0.5368(7) 0.3133(2) 0.4622(4)
C2 C 0.0833(8) 0.2217(2) 0.3738(4)
H1 H -0.0548 0.2141 0.3982
C3 C 0.4012(7) 0.27264(19) 0.3867(4)
O3 O 0.2006(5) -0.04002(13) 0.3884(3)
C4 C 0.3423(7) -0.0066(2) 0.3486(4)
N2 N 0.2507(6) 0.06137(17) 0.4952(3)
C5 C 0.3904(7) 0.04927(19) 0.4144(4)
Ce1 Ce 0.55934(4) 0.146613(11) 0.06334(2)
Co1 Co 1.0000 0.0000 0.5000
O4 O 0.8889(5) 0.04156(15) 0.3481(3)
O5 O 0.7355(5) 0.22825(15) 0.1588(3)
N3 N 0.3530(6) 0.20191(16) 0.2424(3)
C6 C 0.6699(8) 0.2634(2) 0.2303(4)
O6 O 0.2546(5) 0.08211(14) 0.1175(3)
O7 O 0.4428(6) -0.01396(14) 0.2621(3)
N4 N 0.5958(7) 0.13618(17) 0.4579(3)
O8 O 0.7288(5) 0.10050(15) 0.2252(3)
C7 C 0.7381(7) 0.0743(2) 0.3165(4)
O9 O 0.6739(6) 0.03885(15) 0.0228(4)
C8 C 0.4716(7) 0.24469(19) 0.2926(4)
O10 O 0.7410(6) 0.31248(14) 0.2515(3)
O11 O 0.4874(6) 0.11333(16) -0.1329(3)
C9 C 0.4546(8) 0.1466(2) 0.5353(4)
H2 H 0.4717 0.1804 0.5783
C10 C 0.5633(8) 0.0867(2) 0.3981(4)
C11 C 0.1634(7) 0.1888(2) 0.2866(4)
H3 H 0.0838 0.1572 0.2585
C12 C 0.2819(8) 0.1099(2) 0.5557(4)
H4 H 0.1877 0.1190 0.6118
H5 H 0.5230 0.0786 -0.1771
H6 H 0.1446 0.0954 0.0809
H7 H 0.2596 0.0501 0.1575
H8 H 0.3888 0.1319 -0.1708
H9 H 0.7530 0.0169 0.0715
H10 H 0.7318 0.0379 -0.0341
O1B O 0.5639(5) -0.35697(14) 0.4991(3)
O2B O 0.2714(5) -0.30039(14) 0.5150(2)
N1B N 0.8001(6) -0.26389(17) 0.5771(3)
C1B C 0.4632(7) -0.3133(2) 0.5378(4)
C2B C 0.9167(8) -0.2217(2) 0.6262(4)
H1B H 1.0548 -0.2141 0.6018
C3B C 0.5988(7) -0.27264(19) 0.6133(4)
O3B O 0.7994(5) 0.04002(13) 0.6116(3)
C4B C 0.6577(7) 0.0066(2) 0.6514(4)
N2B N 0.7493(6) -0.06137(17) 0.5048(3)
C5B C 0.6096(7) -0.04927(19) 0.5856(4)
Ce1B Ce 0.44066(4) -0.146613(11) 0.93666(2)
O4B O 0.1111(5) -0.04156(15) 0.6519(3)
O5B O 0.2645(5) -0.22825(15) 0.8412(3)
N3B N 0.6470(6) -0.20191(16) 0.7576(3)
C6B C 0.3301(8) -0.2634(2) 0.7697(4)
O6B O 0.7454(5) -0.08211(14) 0.8825(3)
O7B O 0.5572(6) 0.01396(14) 0.7379(3)
N4B N 0.4042(7) -0.13618(17) 0.5421(3)
O8B O 0.2712(5) -0.10050(15) 0.7748(3)
C7B C 0.2619(7) -0.0743(2) 0.6835(4)
O9B O 0.3261(6) -0.03885(15) 0.9772(4)
C8B C 0.5284(7) -0.24469(19) 0.7074(4)
O10B O 0.2590(6) -0.31248(14) 0.7485(3)
O11B O 0.5126(6) -0.11333(16) 1.1329(3)
C9B C 0.5454(8) -0.1466(2) 0.4647(4)
H2B H 0.5283 -0.1804 0.4217
C10B C 0.4367(8) -0.0867(2) 0.6019(4)
C11B C 0.8366(7) -0.1888(2) 0.7134(4)
H3B H 0.9162 -0.1572 0.7415
C12B C 0.7181(8) -0.1099(2) 0.4443(4)
H4B H 0.8123 -0.1190 0.3882
H5B H 0.4770 -0.0786 1.1771
H6B H 0.8554 -0.0954 0.9191
H7B H 0.7404 -0.0501 0.8425
H8B H 0.6112 -0.1319 1.1708
H9B H 0.2470 -0.0169 0.9285
H10B H 0.2682 -0.0379 1.0341
O1A O 0.0639(5) -0.14303(14) 0.9991(3)
O1C O 0.9361(5) 0.14303(14) 0.0009(3)
O2A O 0.7714(5) -0.19961(14) 1.0150(2)
O2C O 0.2286(5) 0.19961(14) -0.0150(2)
N1A N 0.3001(6) -0.23611(17) 1.0771(3)
N1C N 0.6999(6) 0.23611(17) -0.0771(3)
O3_2 O 1.2006(5) -0.04002(13) 0.3884(3)
N2_2 N 1.2507(6) 0.06137(17) 0.4952(3)
Ce1A Ce -0.05934(4) -0.353387(11) 0.43666(2)
Ce1A_2 Ce 0.94066(4) -0.353387(11) 0.43666(2)
Ce1C Ce 0.05934(4) 0.353387(11) 0.56334(2)
Ce1C_2 Ce 1.05934(4) 0.353387(11) 0.56334(2)
Co1_2 Co 0.0000 0.0000 0.5000
O4B_2 O 1.1111(5) -0.04156(15) 0.6519(3)
O12 O 0.0328(7) 0.0285(2) 0.8537(3)
H11 H -0.0037 0.0231 0.7799
H12 H 0.0141 0.0696 0.8569
loop_
_geom_bond_atom_site_label_1
_geom_bond_atom_site_label_2
_geom_bond_site_symmetry_1
_geom_bond_site_symmetry_2
O1 C1 1_555 1_555
O2 C1 1_555 1_555
N1 C2 1_555 1_555
C1 C3 1_555 1_555
C2 H1 1_555 1_555
C3 N1 1_555 1_555
O3 C4 1_555 1_555
C4 C5 1_555 1_555
N2 C5 1_555 1_555
C5 C10 1_555 1_555
Ce1 O5 1_555 1_555
Co1 O4 1_555 1_555
O4 C7 1_555 1_555
O5 C6 1_555 1_555
N3 Ce1 1_555 1_555
C6 C8 1_555 1_555
O6 Ce1 1_555 1_555
O7 C4 1_555 1_555
N4 C9 1_555 1_555
O8 Ce1 1_555 1_555
C7 O8 1_555 1_555
O9 Ce1 1_555 1_555
C8 C3 1_555 1_555
O10 C6 1_555 1_555
O11 Ce1 1_555 1_555
C9 H2 1_555 1_555
C10 N4 1_555 1_555
C11 C2 1_555 1_555
H3 C11 1_555 1_555
C12 N2 1_555 1_555
H4 C12 1_555 1_555
H5 O11 1_555 1_555
H6 O6 1_555 1_555
H7 O6 1_555 1_555
H8 O11 1_555 1_555
H9 O9 1_555 1_555
H10 O9 1_555 1_555
O12 H11 1_555 1_555
H12 O12 1_555 1_555
O1B C1B 1_555 1_555
O2B C1B 1_555 1_555
N1B C2B 1_555 1_555
C1B C3B 1_555 1_555
C2B H1B 1_555 1_555
C3B N1B 1_555 1_555
O3B Co1 1_555 1_555
C4B O3B 1_555 1_555
N2B Co1 1_555 1_555
C5B C4B 1_555 1_555
Ce1B O5B 1_555 1_555
O4B C7B 1_555 1_555
O5B C6B 1_555 1_555
N3B Ce1B 1_555 1_555
C6B C8B 1_555 1_555
O6B Ce1B 1_555 1_555
O7B C4B 1_555 1_555
N4B C9B 1_555 1_555
O8B Ce1B 1_555 1_555
C7B O8B 1_555 1_555
O9B Ce1B 1_555 1_555
C8B C3B 1_555 1_555
O10B C6B 1_555 1_555
O11B Ce1B 1_555 1_555
C9B H2B 1_555 1_555
C10B C5B 1_555 1_555
C11B C2B 1_555 1_555
H3B C11B 1_555 1_555
C12B N2B 1_555 1_555
H4B C12B 1_555 1_555
H5B O11B 1_555 1_555
H6B O6B 1_555 1_555
H7B O6B 1_555 1_555
H8B O11B 1_555 1_555
H9B O9B 1_555 1_555
H10B O9B 1_555 1_555
O1A Ce1B 1_555 1_555
O1C Ce1 1_555 1_555
O2A Ce1B 1_555 1_555
O2C Ce1 1_555 1_555
N1A Ce1B 1_555 1_555
N1C Ce1 1_555 1_555
O3_2 Co1 1_555 1_555
N2_2 Co1 1_555 1_555
Ce1A O2B 1_555 1_555
Ce1A_2 O1B 1_555 1_555
Ce1C O1 1_555 1_555
Ce1C_2 O2 1_555 1_555
Co1_2 O3 1_555 1_555
O4B_2 Co1 1_555 1_555
N1 Ce1C 1_555 1_555
N2 Co1_2 1_555 1_555
N3 C8 1_555 1_555
N3 C11 1_555 1_555
C7 C10 1_555 1_555
C9 C12 1_555 1_555
N1B Ce1A_2 1_555 1_555
N2B C5B 1_555 1_555
O4B Co1_2 1_555 1_555
N3B C8B 1_555 1_555
N3B C11B 1_555 1_555
N4B C10B 1_555 1_555
C7B C10B 1_555 1_555
C9B C12B 1_555 1_555

#END
