
#######################################################################
#
#                 Cambridge Crystallographic Data Centre
#                                CCDC 
#
#######################################################################
#
# If this CIF has been generated from an entry in the Cambridge 
# Structural Database, then it will include bibliographic, chemical, 
# crystal, experimental, refinement or atomic coordinate data resulting 
# from the CCDC's data processing and validation procedures.
#
#######################################################################

data_TEYQAR
_symmetry_cell_setting           triclinic
_symmetry_space_group_name_H-M   'P -1'
_symmetry_Int_Tables_number      2
_space_group_name_Hall           '-P 1'
loop_
_symmetry_equiv_pos_site_id
_symmetry_equiv_pos_as_xyz
1 x,y,z
2 -x,-y,-z
_cell_length_a                   12.2619(16)
_cell_length_b                   13.8402(18)
_cell_length_c                   15.549(2)
_cell_angle_alpha                68.296(2)
_cell_angle_beta                 79.036(2)
_cell_angle_gamma                89.716(2)
_cell_volume                     2400.76
loop_
_atom_site_label
_atom_site_type_symbol
_atom_site_fract_x
_atom_site_fract_y
_atom_site_fract_z
Cu1 Cu 0.43834(7) 0.38445(5) 0.28513(5)
Cu2 Cu 0.83371(7) 0.12645(5) 0.71364(5)
O1 O 0.7451(4) 0.1446(3) 0.6234(3)
O2 O 1.3093(4) 0.3637(3) 0.3802(3)
O3 O 0.7615(4) -0.0155(3) 0.7881(3)
O4 O 0.3975(4) 0.5253(3) 0.2080(3)
O5 O 0.9333(4) 0.1213(3) 0.7975(3)
O6 O 1.5765(4) 0.3912(3) 0.1988(3)
N1 N 0.8633(4) 0.2738(3) 0.6789(3)
N2 N 1.4548(4) 0.2371(3) 0.3188(3)
N3 N 0.5231(4) 0.5064(3) 0.3360(3)
N4 N 0.9481(4) 0.0035(3) 0.6594(3)
N5 N 0.4887(4) 0.6024(3) 0.2807(3)
H1 H 0.5074 0.6589 0.2870
N6 N 0.8869(4) -0.0914(3) 0.7105(3)
H2 H 0.9073 -0.1469 0.7012
N7 N 0.9421(5) 0.3003(3) 0.7222(4)
N8 N 1.5531(4) 0.2115(4) 0.2737(3)
C1 C 1.1548(5) 0.2781(4) 0.4958(5)
H3 H 1.1370 0.3412 0.5015
C2 C 0.6404(6) 0.2285(5) 0.5093(5)
H4 H 0.6224 0.1647 0.5064
C3 C 1.2061(5) 0.0899(4) 0.4839(4)
H5 H 1.2227 0.0262 0.4792
C4 C 0.6935(5) 0.4199(4) 0.5116(4)
H6 H 0.7121 0.4850 0.5115
C5 C 1.2529(5) 0.2762(4) 0.4318(4)
C6 C 0.7115(5) 0.2317(4) 0.5704(4)
C7 C 0.5977(6) 0.3156(5) 0.4548(5)
H7 H 0.5510 0.3098 0.4160
C8 C 1.0853(6) 0.1917(5) 0.5492(5)
H8 H 1.0210 0.1977 0.5891
C9 C 0.6227(5) 0.4142(4) 0.4559(4)
C10 C 1.2804(5) 0.1765(4) 0.4288(4)
C11 C 0.7404(5) 0.3322(4) 0.5698(4)
C12 C 1.1083(5) 0.0933(4) 0.5457(4)
C13 C 1.3810(5) 0.1631(4) 0.3733(4)
H9 H 1.3948 0.0958 0.3765
C14 C 0.8170(5) 0.3482(4) 0.6229(4)
H10 H 0.8343 0.4161 0.6167
C15 C 0.5832(5) 0.5081(4) 0.3932(4)
H11 H 0.6029 0.5720 0.3952
C16 C 1.0352(5) 0.0006(4) 0.6024(4)
H12 H 1.0529 -0.0624 0.5966
C17 C 0.7953(5) -0.0947(4) 0.7747(4)
C18 C 0.4272(5) 0.6050(4) 0.2190(4)
C19 C 0.9717(5) 0.2131(5) 0.7828(4)
C20 C 1.6098(5) 0.2986(5) 0.2142(4)
C21 C 0.3918(5) 0.7074(4) 0.1611(4)
C22 C 1.0554(6) 0.2234(5) 0.8365(4)
C23 C 0.7310(5) -0.1960(4) 0.8290(4)
C24 C 1.7225(6) 0.2909(5) 0.1600(4)
C25 C 0.6249(6) -0.1971(5) 0.8748(4)
H13 H 0.5935 -0.1338 0.8671
C26 C 0.3075(6) 0.7081(6) 0.1153(5)
H14 H 0.2738 0.6448 0.1224
C27 C 1.0654(7) 0.1423(6) 0.9180(5)
H15 H 1.0165 0.0831 0.9411
C28 C 1.7744(7) 0.3780(6) 0.0845(5)
H16 H 1.7369 0.4387 0.0665
C29 C 1.1484(8) 0.1482(7) 0.9663(6)
H17 H 1.1556 0.0922 1.0206
C30 C 0.5617(7) -0.2881(7) 0.9323(5)
H18 H 0.4890 -0.2876 0.9631
C31 C 0.2702(7) 0.7994(6) 0.0586(5)
H19 H 0.2120 0.7975 0.0286
C32 C 1.8774(7) 0.3772(8) 0.0365(6)
H20 H 1.9101 0.4362 -0.0149
C33 C 0.6116(9) -0.3801(7) 0.9420(7)
H21 H 0.5729 -0.4428 0.9828
C34 C 1.9347(8) 0.2879(8) 0.0639(7)
H22 H 2.0066 0.2871 0.0318
C35 C 1.2201(8) 0.2365(8) 0.9341(6)
H23 H 1.2749 0.2409 0.9668
C36 C 0.3199(9) 0.8921(6) 0.0473(6)
H24 H 0.2960 0.9543 0.0091
C37 C 0.4065(9) 0.8935(6) 0.0932(6)
H25 H 0.4405 0.9569 0.0854
C38 C 1.2091(7) 0.3190(7) 0.8518(6)
H26 H 1.2570 0.3788 0.8289
C39 C 0.7104(9) -0.3813(6) 0.8961(7)
H27 H 0.7394 -0.4448 0.9006
C40 C 1.8848(7) 0.2008(7) 0.1387(7)
H28 H 1.9223 0.1401 0.1564
C41 C 0.7749(7) -0.2882(5) 0.8394(5)
H29 H 0.8476 -0.2901 0.8092
C42 C 0.4425(7) 0.8011(5) 0.1503(5)
H30 H 0.5002 0.8023 0.1810
C43 C 1.7791(6) 0.2031(6) 0.1878(6)
H31 H 1.7465 0.1448 0.2400
C44 C 1.1273(6) 0.3120(6) 0.8041(5)
H32 H 1.1203 0.3676 0.7494
Cu1_2 Cu 1.43834(7) 0.38445(5) 0.28513(5)
O2_2 O 0.3093(4) 0.3637(3) 0.3802(3)
O6_2 O 0.5765(4) 0.3912(3) 0.1988(3)
N2_2 N 0.4548(4) 0.2371(3) 0.3188(3)
S1 S 0.9679(2) 0.34540(16) 0.35001(17)
O7 O 1.0051(5) 0.2503(3) 0.3318(4)
C45 C 1.0703(6) 0.4467(6) 0.2771(7)
H33 H 1.1423 0.4261 0.2899
H34 H 1.0542 0.5086 0.2898
H35 H 1.0701 0.4603 0.2119
C46 C 0.8616(7) 0.3889(7) 0.2898(7)
H36 H 0.8896 0.4077 0.2233
H37 H 0.8330 0.4486 0.3013
H38 H 0.8031 0.3345 0.3113
S2 S 0.6139(2) 0.85590(15) 0.33627(17)
O8 O 0.5888(5) 0.7622(4) 0.3161(4)
C47 C 0.7446(7) 0.9019(7) 0.2720(7)
H39 H 0.7956 0.8491 0.2916
H40 H 0.7668 0.9626 0.2821
H41 H 0.7450 0.9198 0.2061
C48 C 0.5398(6) 0.9571(5) 0.2687(6)
H42 H 0.5653 0.9706 0.2027
H43 H 0.5524 1.0192 0.2803
H44 H 0.4617 0.9361 0.2865
loop_
_geom_bond_atom_site_label_1
_geom_bond_atom_site_label_2
_geom_bond_site_symmetry_1
_geom_bond_site_symmetry_2
Cu1 O4 1_555 1_555
Cu2 O1 1_555 1_555
O1 C6 1_555 1_555
O2 C5 1_555 1_555
O3 Cu2 1_555 1_555
O4 C18 1_555 1_555
O5 Cu2 1_555 1_555
O6 C20 1_555 1_555
N1 Cu2 1_555 1_555
N2 N8 1_555 1_555
N3 Cu1 1_555 1_555
N4 Cu2 1_555 1_555
N5 N3 1_555 1_555
H1 N5 1_555 1_555
N6 N4 1_555 1_555
H2 N6 1_555 1_555
N7 N1 1_555 1_555
N8 C20 1_555 1_555
C1 H3 1_555 1_555
C2 H4 1_555 1_555
C3 H5 1_555 1_555
C4 H6 1_555 1_555
C5 C1 1_555 1_555
C6 C2 1_555 1_555
C7 C2 1_555 1_555
H7 C7 1_555 1_555
C8 C1 1_555 1_555
H8 C8 1_555 1_555
C9 C4 1_555 1_555
C10 C3 1_555 1_555
C11 C4 1_555 1_555
C12 C3 1_555 1_555
C13 N2 1_555 1_555
H9 C13 1_555 1_555
C14 N1 1_555 1_555
H10 C14 1_555 1_555
C15 N3 1_555 1_555
H11 C15 1_555 1_555
C16 N4 1_555 1_555
H12 C16 1_555 1_555
C17 O3 1_555 1_555
C18 N5 1_555 1_555
C19 O5 1_555 1_555
C20 C24 1_555 1_555
C21 C18 1_555 1_555
C22 C19 1_555 1_555
C23 C17 1_555 1_555
C24 C28 1_555 1_555
C25 C23 1_555 1_555
H13 C25 1_555 1_555
C26 C21 1_555 1_555
H14 C26 1_555 1_555
C27 C22 1_555 1_555
H15 C27 1_555 1_555
C28 H16 1_555 1_555
C29 C27 1_555 1_555
H17 C29 1_555 1_555
C30 C25 1_555 1_555
H18 C30 1_555 1_555
C31 C26 1_555 1_555
H19 C31 1_555 1_555
C32 C28 1_555 1_555
H20 C32 1_555 1_555
C33 C30 1_555 1_555
H21 C33 1_555 1_555
C34 C32 1_555 1_555
H22 C34 1_555 1_555
C35 C29 1_555 1_555
H23 C35 1_555 1_555
C36 C31 1_555 1_555
H24 C36 1_555 1_555
C37 C36 1_555 1_555
H25 C37 1_555 1_555
C38 C35 1_555 1_555
H26 C38 1_555 1_555
C39 C33 1_555 1_555
H27 C39 1_555 1_555
C40 C34 1_555 1_555
H28 C40 1_555 1_555
C41 C23 1_555 1_555
H29 C41 1_555 1_555
C42 C21 1_555 1_555
H30 C42 1_555 1_555
C43 C24 1_555 1_555
H31 C43 1_555 1_555
C44 C22 1_555 1_555
H32 C44 1_555 1_555
S1 O7 1_555 1_555
C45 S1 1_555 1_555
H33 C45 1_555 1_555
H34 C45 1_555 1_555
H35 C45 1_555 1_555
C46 S1 1_555 1_555
H36 C46 1_555 1_555
H37 C46 1_555 1_555
H38 C46 1_555 1_555
S2 O8 1_555 1_555
C47 S2 1_555 1_555
H39 C47 1_555 1_555
H40 C47 1_555 1_555
H41 C47 1_555 1_555
C48 S2 1_555 1_555
H42 C48 1_555 1_555
H43 C48 1_555 1_555
H44 C48 1_555 1_555
Cu1_2 O2 1_555 1_555
O2_2 Cu1 1_555 1_555
O6_2 Cu1 1_555 1_555
N2_2 Cu1 1_555 1_555
O6 Cu1_2 1_555 1_555
N2 Cu1_2 1_555 1_555
N6 C17 1_555 1_555
N7 C19 1_555 1_555
C5 C10 1_555 1_555
C6 C11 1_555 1_555
C7 C9 1_555 1_555
C8 C12 1_555 1_555
C9 C15 1_555 1_555
C10 C13 1_555 1_555
C11 C14 1_555 1_555
C12 C16 1_555 1_555
C37 C42 1_555 1_555
C38 C44 1_555 1_555
C39 C41 1_555 1_555
C40 C43 1_555 1_555

#END
