
#######################################################################
#
#                 Cambridge Crystallographic Data Centre
#                                CCDC 
#
#######################################################################
#
# If this CIF has been generated from an entry in the Cambridge 
# Structural Database, then it will include bibliographic, chemical, 
# crystal, experimental, refinement or atomic coordinate data resulting 
# from the CCDC's data processing and validation procedures.
#
#######################################################################

data_TEYWOL
_symmetry_cell_setting           monoclinic
_symmetry_space_group_name_H-M   'P 21/c'
_symmetry_Int_Tables_number      14
_space_group_name_Hall           '-P 2ybc'
loop_
_symmetry_equiv_pos_site_id
_symmetry_equiv_pos_as_xyz
1 x,y,z
2 -x,1/2+y,1/2-z
3 -x,-y,-z
4 x,1/2-y,1/2+z
_cell_length_a                   10.2886(6)
_cell_length_b                   7.2235(4)
_cell_length_c                   12.9076(8)
_cell_angle_alpha                90
_cell_angle_beta                 109.8360(10)
_cell_angle_gamma                90
_cell_volume                     902.372
loop_
_atom_site_label
_atom_site_type_symbol
_atom_site_fract_x
_atom_site_fract_y
_atom_site_fract_z
Ag1 Ag 0.57950(2) 0.04612(2) 0.124225(17)
N1 N 0.57562(17) 0.3539(3) 0.14458(14)
N2 N 0.57664(17) 0.7396(3) 0.14167(14)
C1 C 0.4601(2) 0.4514(3) 0.12632(19)
H1 H 0.3772 0.3891 0.1142
C2 C 0.6931(2) 0.4502(3) 0.1652(2)
H2 H 0.7763 0.3869 0.1812
C3 C 0.6931(2) 0.6405(3) 0.16342(19)
H3 H 0.7766 0.7026 0.1777
C4 C 0.4603(2) 0.6425(3) 0.12495(18)
H4 H 0.3775 0.7056 0.1121
O1 O 0.69801(19) -0.0575(3) -0.08279(17)
O2 O 0.80699(18) 0.0657(3) 0.08004(15)
C5 C 0.8043(2) -0.0075(3) -0.01025(19)
C6 C 0.9393(2) -0.0271(3) -0.0323(2)
H5 H 0.9351 -0.0830 -0.0983
O1B O 1.30199(19) 0.0575(3) 0.08279(17)
O2B O 1.19301(18) -0.0657(3) -0.08004(15)
C5B C 1.1957(2) 0.0075(3) 0.01025(19)
C6B C 1.0607(2) 0.0271(3) 0.0323(2)
H5B H 1.0649 0.0830 0.0983
Ag1B Ag 0.42050(2) -0.04612(2) -0.124225(17)
N1B N 0.42438(17) -0.3539(3) -0.14458(14)
N2B N 0.42336(17) -0.7396(3) -0.14167(14)
C1B C 0.5399(2) -0.4514(3) -0.12632(19)
H1B H 0.6228 -0.3891 -0.1142
C2B C 0.3069(2) -0.4502(3) -0.1652(2)
H2B H 0.2237 -0.3869 -0.1812
C3B C 0.3069(2) -0.6405(3) -0.16342(19)
H3B H 0.2234 -0.7026 -0.1777
C4B C 0.5397(2) -0.6425(3) -0.12495(18)
H4B H 0.6225 -0.7056 -0.1121
Ag1_2 Ag 0.57950(2) 1.04612(2) 0.124225(17)
Ag1B_2 Ag 0.42050(2) -1.04612(2) -0.124225(17)
Ag1B_3 Ag 1.42050(2) -0.04612(2) -0.124225(17)
N2_2 N 0.57664(17) -0.2604(3) 0.14167(14)
N2B_2 N 0.42336(17) 0.2604(3) -0.14167(14)
O2B_2 O 0.19301(18) -0.0657(3) -0.08004(15)
O3 O 0.8045(2) 0.0697(4) 0.32392(17)
O4 O 0.9827(2) 0.0201(4) 0.26926(16)
H6 H 0.9258 0.0423 0.2085
C7 C 0.9236(2) 0.0325(3) 0.3440(2)
C8 C 1.0184(3) -0.0050(4) 0.4574(2)
H7 H 1.1093 -0.0376 0.4672
O3B O 1.1955(2) -0.0697(4) 0.67608(17)
O4B O 1.0173(2) -0.0201(4) 0.73074(16)
H6B H 1.0742 -0.0423 0.7915
C7B C 1.0764(2) -0.0325(3) 0.6560(2)
C8B C 0.9816(3) 0.0050(4) 0.5426(2)
H7B H 0.8907 0.0376 0.5328
loop_
_geom_bond_atom_site_label_1
_geom_bond_atom_site_label_2
_geom_bond_site_symmetry_1
_geom_bond_site_symmetry_2
Ag1 N1 1_555 1_555
N1 C1 1_555 1_555
N2 C3 1_555 1_555
C1 H1 1_555 1_555
C2 N1 1_555 1_555
H2 C2 1_555 1_555
C3 C2 1_555 1_555
H3 C3 1_555 1_555
C4 N2 1_555 1_555
H4 C4 1_555 1_555
O1 C5 1_555 1_555
O2 Ag1 1_555 1_555
C5 O2 1_555 1_555
C6 C5 1_555 1_555
H5 C6 1_555 1_555
O3 C7 1_555 1_555
O4 H6 1_555 1_555
C7 O4 1_555 1_555
C8 C7 1_555 1_555
H7 C8 1_555 1_555
O1B C5B 1_555 1_555
O2B C5B 1_555 1_555
C5B C6B 1_555 1_555
C6B C6 1_555 1_555
H5B C6B 1_555 1_555
Ag1B Ag1 1_555 1_555
N1B Ag1B 1_555 1_555
N2B C3B 1_555 1_555
C1B N1B 1_555 1_555
H1B C1B 1_555 1_555
C2B N1B 1_555 1_555
H2B C2B 1_555 1_555
C3B C2B 1_555 1_555
H3B C3B 1_555 1_555
C4B N2B 1_555 1_555
H4B C4B 1_555 1_555
Ag1_2 N2 1_555 1_555
Ag1B_2 N2B 1_555 1_555
Ag1B_3 O2B 1_555 1_555
N2_2 Ag1 1_555 1_555
N2B_2 Ag1B 1_555 1_555
O2B_2 Ag1B 1_555 1_555
O3B C7B 1_555 1_555
O4B H6B 1_555 1_555
C7B O4B 1_555 1_555
C8B C8 1_555 1_555
H7B C8B 1_555 1_555
C1 C4 1_555 1_555
C1B C4B 1_555 1_555
C7B C8B 1_555 1_555

#END
