
#######################################################################
#
#                 Cambridge Crystallographic Data Centre
#                                CCDC 
#
#######################################################################
#
# If this CIF has been generated from an entry in the Cambridge 
# Structural Database, then it will include bibliographic, chemical, 
# crystal, experimental, refinement or atomic coordinate data resulting 
# from the CCDC's data processing and validation procedures.
#
#######################################################################

data_TEYWIF
_symmetry_cell_setting           monoclinic
_symmetry_space_group_name_H-M   'P 21/n'
_symmetry_Int_Tables_number      14
_space_group_name_Hall           '-P 2yn'
loop_
_symmetry_equiv_pos_site_id
_symmetry_equiv_pos_as_xyz
1 x,y,z
2 1/2-x,1/2+y,1/2-z
3 -x,-y,-z
4 1/2+x,1/2-y,1/2+z
_cell_length_a                   11.422(3)
_cell_length_b                   22.455(5)
_cell_length_c                   22.797(5)
_cell_angle_alpha                90
_cell_angle_beta                 95.190(3)
_cell_angle_gamma                90
_cell_volume                     5823.03
loop_
_atom_site_label
_atom_site_type_symbol
_atom_site_fract_x
_atom_site_fract_y
_atom_site_fract_z
C1 C 0.2814(3) 0.01930(17) 0.33073(16)
C2 C 0.7200(3) -0.06195(16) 0.33347(15)
C3 C 0.2683(3) 0.12305(16) 0.11799(16)
C4 C 0.2241(4) 0.35935(17) 0.04589(18)
C5 C 0.4223(3) -0.05379(17) 0.15811(16)
C6 C 0.2451(3) 0.05764(17) 0.37917(17)
C7 C 0.1109(3) 0.24376(16) 0.24236(16)
C8 C 0.0135(3) 0.20634(17) 0.25967(17)
C9 C 0.6115(3) 0.15950(16) 0.15161(16)
C10 C 0.2716(4) 0.32145(17) 0.09567(16)
C11 C 0.4425(3) -0.09181(17) 0.10615(16)
C12 C 0.5972(3) -0.05066(16) 0.30919(16)
C13 C 0.5509(3) 0.38077(16) 0.27947(16)
C14 C 0.4997(4) 0.21598(16) 0.35404(16)
C15 C 0.4091(4) 0.25671(17) 0.35353(18)
H1 H 0.3458 0.2542 0.3249
C16 C 0.7263(3) 0.17043(16) 0.12660(17)
C17 C 0.2188(3) 0.06974(17) 0.08544(17)
C18 C 0.5925(4) 0.2196(2) 0.3974(2)
H2 H 0.6521 0.1912 0.3990
C19 C 0.4966(3) 0.16796(16) 0.30946(15)
C20 C 0.4468(3) 0.35078(17) 0.24950(16)
C21 C 0.5436(5) 0.4393(2) 0.2948(2)
H3 H 0.4739 0.4602 0.2862
C22 C 0.7577(4) -0.11830(19) 0.3504(2)
H4 H 0.7051 -0.1500 0.3478
C23 C 0.9511(4) -0.0819(3) 0.3762(2)
H5 H 1.0288 -0.0885 0.3906
C24 C 0.1875(3) 0.02036(18) 0.1162(2)
H6 H 0.1946 0.0207 0.1572
C25 C 0.4124(5) 0.3013(2) 0.3955(2)
H7 H 0.3507 0.3283 0.3956
C26 C 0.8006(4) -0.0169(2) 0.3380(2)
H8 H 0.7777 0.0213 0.3260
C27 C 0.2448(4) 0.11850(19) 0.3739(2)
H9 H 0.2675 0.1361 0.3398
C28 C 0.4742(4) -0.0670(2) 0.05476(19)
H10 H 0.4813 -0.0259 0.0518
C29 C 0.2962(5) 0.3739(2) 0.00215(18)
H11 H 0.3723 0.3589 0.0039
C30 C 0.0238(4) 0.1461(2) 0.2611(2)
H12 H 0.0924 0.1281 0.2508
C31 C 0.4368(5) -0.1531(2) 0.1101(2)
H13 H 0.4150 -0.1708 0.1443
C32 C 0.8749(4) -0.1276(2) 0.3715(2)
H14 H 0.9003 -0.1657 0.3824
C33 C 0.1099(5) 0.3806(2) 0.0428(2)
H15 H 0.0610 0.3712 0.0719
C34 C 0.6545(4) 0.3515(2) 0.2925(2)
H16 H 0.6613 0.3118 0.2815
C35 C -0.1680(5) 0.1381(3) 0.2930(3)
H17 H -0.2282 0.1151 0.3060
C36 C 0.9157(4) -0.0270(3) 0.3603(2)
H18 H 0.9686 0.0045 0.3641
C37 C 0.2132(5) 0.0324(2) 0.43066(19)
H19 H 0.2148 -0.0087 0.4355
C38 C 0.7433(5) 0.4378(3) 0.3360(2)
H20 H 0.8086 0.4573 0.3544
C39 C 0.2073(4) 0.0696(2) 0.0249(2)
H21 H 0.2260 0.1032 0.0039
C40 C 0.9420(4) 0.1934(3) 0.0867(2)
H22 H 1.0166 0.2020 0.0758
C41 C -0.0896(4) 0.2314(2) 0.2730(3)
H23 H -0.0987 0.2725 0.2710
C42 C 0.5966(6) 0.2653(2) 0.4384(2)
H24 H 0.6602 0.2686 0.4667
C43 C 0.5068(6) 0.3055(2) 0.4369(2)
H25 H 0.5096 0.3362 0.4644
C44 C 0.7458(5) 0.2218(2) 0.0984(3)
H26 H 0.6856 0.2496 0.0920
C45 C -0.1801(5) 0.1967(3) 0.2893(3)
H27 H -0.2502 0.2144 0.2978
C46 C 0.4909(6) -0.1624(3) 0.0121(3)
H28 H 0.5062 -0.1862 -0.0197
C47 C 0.4958(5) -0.1026(3) 0.0075(2)
H29 H 0.5137 -0.0852 -0.0276
C48 C 0.1456(4) -0.0296(2) 0.0863(3)
H30 H 0.1225 -0.0626 0.1070
C49 C 0.8117(4) 0.1295(2) 0.1302(3)
H31 H 0.7980 0.0923 0.1463
C50 C 0.9203(4) 0.1417(3) 0.1103(3)
H32 H 0.9788 0.1128 0.1136
C51 C 0.7491(4) 0.3800(3) 0.3218(3)
H33 H 0.8181 0.3588 0.3318
C52 C 0.0696(7) 0.4164(3) -0.0048(3)
H34 H -0.0076 0.4302 -0.0080
C53 C 0.4634(6) -0.1880(2) 0.0633(3)
H35 H 0.4625 -0.2293 0.0668
C54 C 0.2110(6) 0.1535(2) 0.4190(3)
H36 H 0.2109 0.1948 0.4153
C55 C 0.1671(6) 0.0182(3) -0.0045(3)
H37 H 0.1599 0.0171 -0.0454
C56 C 0.1789(6) 0.0684(3) 0.4747(2)
H38 H 0.1562 0.0515 0.5091
C57 C 0.1380(5) -0.0306(3) 0.0270(3)
H39 H 0.1127 -0.0651 0.0071
C58 C 0.1780(7) 0.1283(3) 0.4685(3)
H40 H 0.1544 0.1522 0.4986
C59 C -0.0673(5) 0.1114(2) 0.2779(3)
H41 H -0.0602 0.0702 0.2789
C60 C 0.2558(8) 0.4103(3) -0.0435(2)
H42 H 0.3049 0.4207 -0.0723
C61 C 0.6410(6) 0.4675(2) 0.3233(3)
H43 H 0.6359 0.5073 0.3338
C62 C 0.1426(10) 0.4314(3) -0.0467(3)
H44 H 0.1153 0.4561 -0.0777
C63 C 0.8555(6) 0.2335(3) 0.0787(4)
H45 H 0.8686 0.2694 0.0599
Dy1 Dy 0.359677(13) 0.227302(7) 0.175765(7)
Dy2 Dy 0.164254(14) 0.385490(7) 0.214585(8)
Dy3 Dy 0.465219(13) 0.068553(7) 0.232846(7)
O1 O 0.5743(2) -0.00264(11) 0.28258(12)
O2 O 0.5214(2) -0.08980(13) 0.31710(14)
O3 O 0.4567(2) -0.00109(11) 0.15878(11)
O4 O 0.3167(2) 0.04368(13) 0.28590(12)
O5 O 0.2746(3) -0.03587(12) 0.33647(13)
O6 O 0.6005(2) 0.11191(11) 0.18003(12)
O7 O 0.5330(2) 0.19812(12) 0.14383(12)
O8 O 0.3248(2) 0.11621(10) 0.16849(10)
O9 O 0.2567(2) 0.17349(11) 0.09583(12)
O10 O 0.4316(2) 0.17372(10) 0.26078(10)
O11 O 0.5536(2) 0.12110(11) 0.31817(11)
O12 O 0.1981(2) 0.21891(12) 0.22498(14)
O13 O 0.1015(3) 0.29898(12) 0.24764(15)
O14 O 0.3705(2) -0.07641(12) 0.19923(12)
O15 O 0.2183(2) 0.31960(12) 0.14268(12)
O16 O 0.3620(3) 0.29188(12) 0.09265(12)
O17 O 0.3495(2) 0.37696(14) 0.24987(14)
O18 O 0.4590(2) 0.30112(12) 0.22610(12)
Dy2A Dy 0.335746(14) -0.114510(7) 0.285415(8)
O2A O -0.0214(2) 0.41020(13) 0.18290(14)
O5A O 0.2254(3) 0.46413(12) 0.16353(13)
O14A O 0.1295(2) 0.42359(12) 0.30077(12)
loop_
_geom_bond_atom_site_label_1
_geom_bond_atom_site_label_2
_geom_bond_site_symmetry_1
_geom_bond_site_symmetry_2
C1 C6 1_555 1_555
C2 C12 1_555 1_555
C3 C17 1_555 1_555
C4 C10 1_555 1_555
C5 C11 1_555 1_555
C6 C27 1_555 1_555
C7 C8 1_555 1_555
C8 C30 1_555 1_555
C9 C16 1_555 1_555
C10 O15 1_555 1_555
C11 C28 1_555 1_555
C12 O1 1_555 1_555
C13 C20 1_555 1_555
C14 C15 1_555 1_555
C15 H1 1_555 1_555
C16 C44 1_555 1_555
C17 C24 1_555 1_555
C18 C14 1_555 1_555
H2 C18 1_555 1_555
C19 C14 1_555 1_555
C20 O17 1_555 1_555
C21 C13 1_555 1_555
H3 C21 1_555 1_555
C22 C2 1_555 1_555
H4 C22 1_555 1_555
C23 H5 1_555 1_555
C24 H6 1_555 1_555
C25 C15 1_555 1_555
H7 C25 1_555 1_555
C26 C2 1_555 1_555
H8 C26 1_555 1_555
C27 H9 1_555 1_555
C28 H10 1_555 1_555
C29 C4 1_555 1_555
H11 C29 1_555 1_555
C30 H12 1_555 1_555
C31 C11 1_555 1_555
H13 C31 1_555 1_555
C32 C22 1_555 1_555
H14 C32 1_555 1_555
C33 C4 1_555 1_555
H15 C33 1_555 1_555
C34 C13 1_555 1_555
H16 C34 1_555 1_555
C35 H17 1_555 1_555
C36 C23 1_555 1_555
H18 C36 1_555 1_555
C37 C6 1_555 1_555
H19 C37 1_555 1_555
C38 H20 1_555 1_555
C39 C17 1_555 1_555
H21 C39 1_555 1_555
C40 H22 1_555 1_555
C41 C8 1_555 1_555
H23 C41 1_555 1_555
C42 C18 1_555 1_555
H24 C42 1_555 1_555
C43 C25 1_555 1_555
H25 C43 1_555 1_555
C44 H26 1_555 1_555
C45 C35 1_555 1_555
H27 C45 1_555 1_555
C46 H28 1_555 1_555
C47 C28 1_555 1_555
H29 C47 1_555 1_555
C48 C24 1_555 1_555
H30 C48 1_555 1_555
C49 C16 1_555 1_555
H31 C49 1_555 1_555
C50 C40 1_555 1_555
H32 C50 1_555 1_555
C51 C34 1_555 1_555
H33 C51 1_555 1_555
C52 C33 1_555 1_555
H34 C52 1_555 1_555
C53 C31 1_555 1_555
H35 C53 1_555 1_555
C54 C27 1_555 1_555
H36 C54 1_555 1_555
C55 C39 1_555 1_555
H37 C55 1_555 1_555
C56 C37 1_555 1_555
H38 C56 1_555 1_555
C57 C48 1_555 1_555
H39 C57 1_555 1_555
C58 C54 1_555 1_555
H40 C58 1_555 1_555
C59 C30 1_555 1_555
H41 C59 1_555 1_555
C60 C29 1_555 1_555
H42 C60 1_555 1_555
C61 C21 1_555 1_555
H43 C61 1_555 1_555
C62 C52 1_555 1_555
H44 C62 1_555 1_555
C63 C40 1_555 1_555
H45 C63 1_555 1_555
Dy1 O7 1_555 1_555
Dy2 O13 1_555 1_555
Dy3 O1 1_555 1_555
O2 C12 1_555 1_555
O3 C5 1_555 1_555
O4 C1 1_555 1_555
O5 C1 1_555 1_555
O6 C9 1_555 1_555
O7 C9 1_555 1_555
O8 C3 1_555 1_555
O9 C3 1_555 1_555
O10 C19 1_555 1_555
O11 C19 1_555 1_555
O12 C7 1_555 1_555
O13 C7 1_555 1_555
O14 C5 1_555 1_555
O15 Dy1 1_555 1_555
O16 C10 1_555 1_555
O17 Dy2 1_555 1_555
O18 C20 1_555 1_555
Dy2A O2 1_555 1_555
O2A Dy2 1_555 1_555
O5A Dy2 1_555 1_555
O14A Dy2 1_555 1_555
C23 C32 1_555 1_555
C26 C36 1_555 1_555
C35 C59 1_555 1_555
C38 C51 1_555 1_555
C38 C61 1_555 1_555
C41 C45 1_555 1_555
C42 C43 1_555 1_555
C44 C63 1_555 1_555
C46 C47 1_555 1_555
C46 C53 1_555 1_555
C49 C50 1_555 1_555
C55 C57 1_555 1_555
C56 C58 1_555 1_555
C60 C62 1_555 1_555
Dy1 O8 1_555 1_555
Dy1 O9 1_555 1_555
Dy1 O10 1_555 1_555
Dy1 O12 1_555 1_555
Dy1 O16 1_555 1_555
Dy1 O18 1_555 1_555
Dy2 O15 1_555 1_555
Dy3 O3 1_555 1_555
Dy3 O4 1_555 1_555
Dy3 O6 1_555 1_555
Dy3 O8 1_555 1_555
Dy3 O10 1_555 1_555
Dy3 O11 1_555 1_555
O5 Dy2A 1_555 1_555
O14 Dy2A 1_555 1_555

#END
