
#######################################################################
#
#                 Cambridge Crystallographic Data Centre
#                                CCDC 
#
#######################################################################
#
# If this CIF has been generated from an entry in the Cambridge 
# Structural Database, then it will include bibliographic, chemical, 
# crystal, experimental, refinement or atomic coordinate data resulting 
# from the CCDC's data processing and validation procedures.
#
#######################################################################

data_TEZGUC
_symmetry_cell_setting           triclinic
_symmetry_space_group_name_H-M   'P -1'
_symmetry_Int_Tables_number      2
_space_group_name_Hall           '-P 1'
loop_
_symmetry_equiv_pos_site_id
_symmetry_equiv_pos_as_xyz
1 x,y,z
2 -x,-y,-z
_cell_length_a                   6.9479(8)
_cell_length_b                   8.6291(10)
_cell_length_c                   21.850(2)
_cell_angle_alpha                82.7950(10)
_cell_angle_beta                 81.3570(10)
_cell_angle_gamma                68.7620(10)
_cell_volume                     1203.57
loop_
_atom_site_label
_atom_site_type_symbol
_atom_site_fract_x
_atom_site_fract_y
_atom_site_fract_z
Ba1 Ba -0.00368(4) 0.50532(3) 0.261079(13)
Ba2 Ba 0.16628(4) 0.01382(3) 0.226630(13)
P1 P 0.39732(19) 0.10371(16) 0.34570(6)
P2 P 0.41931(18) 0.33523(15) 0.13161(6)
N1 N 0.1621(6) -0.0022(5) 0.44896(18)
N2 N 0.1099(6) 0.5034(5) 0.05084(18)
O1 O 0.1945(5) 0.2343(4) 0.32834(16)
O2 O 0.4678(5) -0.0427(4) 0.30416(15)
O3 O 0.5702(5) 0.1737(4) 0.34736(16)
O4 O 0.2509(5) 0.2935(4) 0.17609(15)
O5 O 0.5643(5) 0.1888(4) 0.09635(16)
O6 O 0.5397(5) 0.4146(4) 0.16369(16)
O7 O -0.2036(5) 0.2772(4) 0.25061(15)
H1 H -0.2834 0.3124 0.2184
H2 H -0.2962 0.2575 0.2848
O8 O -0.4084(6) 0.6318(5) 0.31976(18)
H3 H -0.4340 0.5706 0.3489
H4 H -0.4602 0.7381 0.3248
O9 O -0.1559(5) 0.8625(4) 0.23424(17)
H5 H -0.1538 0.8761 0.1896
H6 H -0.2766 0.8998 0.2544
O10 O -0.1956(5) 0.5871(4) 0.14849(16)
H7 H -0.2777 0.5401 0.1607
H8 H -0.0993 0.5724 0.1170
O11 O 0.3129(5) 0.6519(4) 0.23762(17)
H9 H 0.4044 0.5812 0.2076
H10 H 0.3935 0.6356 0.2694
O12 O 0.0252(6) 0.6200(5) 0.37408(17)
H11 H 0.0063 0.7348 0.3702
H12 H -0.0491 0.5698 0.4017
O13 O -0.0185(6) -0.0529(4) 0.34989(16)
H13 H -0.1477 -0.0027 0.3515
H14 H 0.0428 -0.0529 0.3803
O14 O -0.0280(6) 0.0246(6) 0.12013(18)
H15 H -0.1505 0.1111 0.1192
H16 H 0.0336 -0.0014 0.0784
O15 O 0.4927(6) -0.0972(5) 0.13310(19)
H17 H 0.5146 -0.0067 0.1220
H18 H 0.5960 -0.1889 0.1366
C1 C 0.3645(7) 0.0172(7) 0.4258(2)
H19 H 0.4725 -0.0915 0.4301
H20 H 0.3881 0.0880 0.4529
C2 C 0.0156(8) 0.1532(6) 0.4733(2)
H21 H -0.0081 0.2416 0.4401
H22 H 0.0752 0.1841 0.5052
C3 C 0.1900(7) -0.1353(6) 0.4996(2)
H23 H 0.2531 -0.1101 0.5319
H24 H 0.2833 -0.2400 0.4839
C4 C 0.2911(7) 0.5082(6) 0.0767(2)
H25 H 0.2478 0.6106 0.0974
H26 H 0.3942 0.5151 0.0423
C5 C 0.1557(8) 0.3501(6) 0.0205(2)
H27 H 0.2002 0.2545 0.0503
H28 H 0.2678 0.3401 -0.0128
C6 C 0.0364(8) 0.6476(6) 0.0055(2)
H29 H 0.1461 0.6429 -0.0282
H30 H 0.0041 0.7497 0.0255
P1A P -0.39732(19) -0.10371(16) 0.65430(6)
N1A N -0.1621(6) 0.0022(5) 0.55104(18)
O1A O -0.1945(5) -0.2343(4) 0.67166(16)
O2A O -0.4678(5) 0.0427(4) 0.69584(15)
O3A O -0.5702(5) -0.1737(4) 0.65264(16)
C1A C -0.3645(7) -0.0172(7) 0.5742(2)
H19A H -0.4725 0.0915 0.5699
H20A H -0.3881 -0.0880 0.5471
C2A C -0.0156(8) -0.1532(6) 0.5267(2)
H21A H 0.0081 -0.2416 0.5599
H22A H -0.0752 -0.1841 0.4948
C3A C -0.1900(7) 0.1353(6) 0.5004(2)
H23A H -0.2531 0.1101 0.4681
H24A H -0.2833 0.2400 0.5161
P2A P -0.41931(18) 0.66477(15) -0.13161(6)
N2A N -0.1099(6) 0.4966(5) -0.05084(18)
O4A O -0.2509(5) 0.7065(4) -0.17609(15)
O5A O -0.5643(5) 0.8112(4) -0.09635(16)
O6A O -0.5397(5) 0.5854(4) -0.16369(16)
C4A C -0.2911(7) 0.4918(6) -0.0767(2)
H25A H -0.2478 0.3894 -0.0974
H26A H -0.3942 0.4849 -0.0423
C5A C -0.1557(8) 0.6499(6) -0.0205(2)
H27A H -0.2002 0.7455 -0.0503
H28A H -0.2678 0.6599 0.0128
C6A C -0.0364(8) 0.3524(6) -0.0055(2)
H29A H -0.1461 0.3571 0.0282
H30A H -0.0041 0.2503 -0.0255
Ba1A Ba 0.00368(4) -0.50532(3) 0.738921(13)
Ba2A Ba -0.16628(4) -0.01382(3) 0.773370(13)
O7A O 0.2036(5) -0.2772(4) 0.74939(15)
H1A H 0.2834 -0.3124 0.7816
H2A H 0.2962 -0.2575 0.7152
O8A O 0.4084(6) -0.6318(5) 0.68024(18)
H3A H 0.4340 -0.5706 0.6511
H4A H 0.4602 -0.7381 0.6752
O9A O 0.1559(5) -0.8625(4) 0.76576(17)
H5A H 0.1538 -0.8761 0.8104
H6A H 0.2766 -0.8998 0.7456
O10A O 0.1956(5) -0.5871(4) 0.85151(16)
H7A H 0.2777 -0.5401 0.8393
H8A H 0.0993 -0.5724 0.8830
O11A O -0.3129(5) -0.6519(4) 0.76238(17)
H9A H -0.4044 -0.5812 0.7924
H10A H -0.3935 -0.6356 0.7306
O12A O -0.0252(6) -0.6200(5) 0.62592(17)
H11A H -0.0063 -0.7348 0.6298
H12A H 0.0491 -0.5698 0.5983
O13A O 0.0185(6) 0.0529(4) 0.65011(16)
H13A H 0.1477 0.0027 0.6485
H14A H -0.0428 0.0529 0.6197
O14A O 0.0280(6) -0.0246(6) 0.87987(18)
H15A H 0.1505 -0.1111 0.8808
H16A H -0.0336 0.0014 0.9216
O15A O -0.4927(6) 0.0972(5) 0.86690(19)
H17A H -0.5146 0.0067 0.8780
H18A H -0.5960 0.1889 0.8634
Ba1A_2 Ba 0.00368(4) 0.49468(3) -0.261079(13)
Ba2_2 Ba 0.16628(4) 1.01382(3) 0.226630(13)
Ba2A_2 Ba -0.16628(4) -1.01382(3) 0.773370(13)
Ba2A_3 Ba -0.16628(4) 0.98618(3) -0.226630(13)
O4A_2 O -0.2509(5) -0.2935(4) 0.82391(15)
O9_2 O -0.1559(5) -0.1375(4) 0.23424(17)
O9A_2 O 0.1559(5) 0.1375(4) 0.76576(17)
O11_2 O 0.3129(5) -0.3481(4) 0.23762(17)
O11A_2 O -0.3129(5) 0.3481(4) 0.76238(17)
O16 O 0.4205(6) 0.4476(5) 0.41096(18)
H31 H 0.4668 0.3370 0.3929
H32 H 0.3604 0.4309 0.4491
O17 O 0.2873(7) 0.9275(6) 0.0219(2)
H33 H 0.3325 0.9318 0.0516
H34 H 0.3402 0.8774 -0.0134
O18 O 0.7116(7) 0.5722(6) 0.4619(2)
H35 H 0.6182 0.5415 0.4481
H36 H 0.7117 0.6625 0.4748
loop_
_geom_bond_atom_site_label_1
_geom_bond_atom_site_label_2
_geom_bond_site_symmetry_1
_geom_bond_site_symmetry_2
Ba1 O1 1_555 1_555
Ba2 O1 1_555 1_555
P1 O1 1_555 1_555
P2 O4 1_555 1_555
N1 C1 1_555 1_555
N2 C4 1_555 1_555
O2 Ba2 1_555 1_555
O3 P1 1_555 1_555
O4 Ba1 1_555 1_555
O5 P2 1_555 1_555
O6 P2 1_555 1_555
O7 Ba1 1_555 1_555
H1 O7 1_555 1_555
H2 O7 1_555 1_555
O8 Ba1 1_555 1_555
H3 O8 1_555 1_555
H4 O8 1_555 1_555
O9 Ba1 1_555 1_555
H5 O9 1_555 1_555
H6 O9 1_555 1_555
O10 Ba1 1_555 1_555
H7 O10 1_555 1_555
H8 O10 1_555 1_555
O11 Ba1 1_555 1_555
H9 O11 1_555 1_555
H10 O11 1_555 1_555
O12 Ba1 1_555 1_555
H11 O12 1_555 1_555
H12 O12 1_555 1_555
O13 Ba2 1_555 1_555
H13 O13 1_555 1_555
H14 O13 1_555 1_555
O14 Ba2 1_555 1_555
H15 O14 1_555 1_555
H16 O14 1_555 1_555
O15 Ba2 1_555 1_555
H17 O15 1_555 1_555
H18 O15 1_555 1_555
C1 P1 1_555 1_555
H19 C1 1_555 1_555
H20 C1 1_555 1_555
C2 N1 1_555 1_555
H21 C2 1_555 1_555
H22 C2 1_555 1_555
C3 N1 1_555 1_555
H23 C3 1_555 1_555
H24 C3 1_555 1_555
C4 P2 1_555 1_555
H25 C4 1_555 1_555
H26 C4 1_555 1_555
C5 N2 1_555 1_555
H27 C5 1_555 1_555
H28 C5 1_555 1_555
C6 N2 1_555 1_555
H29 C6 1_555 1_555
H30 C6 1_555 1_555
O16 H31 1_555 1_555
H32 O16 1_555 1_555
O17 H33 1_555 1_555
H34 O17 1_555 1_555
O18 H35 1_555 1_555
H36 O18 1_555 1_555
P1A O1A 1_555 1_555
N1A C1A 1_555 1_555
O1A Ba1A 1_555 1_555
O2A P1A 1_555 1_555
O3A P1A 1_555 1_555
C1A P1A 1_555 1_555
H19A C1A 1_555 1_555
H20A C1A 1_555 1_555
C2A C3 1_555 1_555
H21A C2A 1_555 1_555
H22A C2A 1_555 1_555
C3A C2 1_555 1_555
H23A C3A 1_555 1_555
H24A C3A 1_555 1_555
P2A O4A 1_555 1_555
N2A C4A 1_555 1_555
O4A Ba1A_2 1_555 1_555
O5A P2A 1_555 1_555
O6A P2A 1_555 1_555
C4A P2A 1_555 1_555
H25A C4A 1_555 1_555
H26A C4A 1_555 1_555
C5A C6 1_555 1_555
H27A C5A 1_555 1_555
H28A C5A 1_555 1_555
C6A C5 1_555 1_555
H29A C6A 1_555 1_555
H30A C6A 1_555 1_555
Ba1A O7A 1_555 1_555
Ba2A O1A 1_555 1_555
O7A Ba2A 1_555 1_555
H1A O7A 1_555 1_555
H2A O7A 1_555 1_555
O8A Ba1A 1_555 1_555
H3A O8A 1_555 1_555
H4A O8A 1_555 1_555
O9A Ba1A 1_555 1_555
H5A O9A 1_555 1_555
H6A O9A 1_555 1_555
O10A Ba1A 1_555 1_555
H7A O10A 1_555 1_555
H8A O10A 1_555 1_555
O11A Ba1A 1_555 1_555
H9A O11A 1_555 1_555
H10A O11A 1_555 1_555
O12A Ba1A 1_555 1_555
H11A O12A 1_555 1_555
H12A O12A 1_555 1_555
O13A Ba2A 1_555 1_555
H13A O13A 1_555 1_555
H14A O13A 1_555 1_555
O14A Ba2A 1_555 1_555
H15A O14A 1_555 1_555
H16A O14A 1_555 1_555
O15A Ba2A 1_555 1_555
H17A O15A 1_555 1_555
H18A O15A 1_555 1_555
Ba2_2 O9 1_555 1_555
Ba2A_2 O9A 1_555 1_555
Ba2A_3 O4A 1_555 1_555
O4A_2 Ba1A 1_555 1_555
O9_2 Ba2 1_555 1_555
O9A_2 Ba2A 1_555 1_555
O11_2 Ba2 1_555 1_555
O11A_2 Ba2A 1_555 1_555
Ba2 O4 1_555 1_555
Ba2 O7 1_555 1_555
P1 O2 1_555 1_555
O11 Ba2_2 1_555 1_555
N1A C2A 1_555 1_555
N1A C3A 1_555 1_555
O2A Ba2A 1_555 1_555
N2A C5A 1_555 1_555
N2A C6A 1_555 1_555
Ba2A O4A_2 1_555 1_555
O11A Ba2A_2 1_555 1_555

#END
