
#######################################################################
#
#                 Cambridge Crystallographic Data Centre
#                                CCDC 
#
#######################################################################
#
# If this CIF has been generated from an entry in the Cambridge 
# Structural Database, then it will include bibliographic, chemical, 
# crystal, experimental, refinement or atomic coordinate data resulting 
# from the CCDC's data processing and validation procedures.
#
#######################################################################

data_TEZHUD
_symmetry_cell_setting           monoclinic
_symmetry_space_group_name_H-M   'C 2/c'
_symmetry_Int_Tables_number      15
_space_group_name_Hall           '-C 2yn'
loop_
_symmetry_equiv_pos_site_id
_symmetry_equiv_pos_as_xyz
1 x,y,z
2 -x,y,1/2-z
3 1/2+x,1/2+y,z
4 1/2-x,1/2+y,1/2-z
5 -x,-y,-z
6 x,-y,1/2+z
7 1/2-x,1/2-y,-z
8 1/2+x,1/2-y,1/2+z
_cell_length_a                   11.7684(9)
_cell_length_b                   24.3715(19)
_cell_length_c                   13.9898(11)
_cell_angle_alpha                90
_cell_angle_beta                 107.652(2)
_cell_angle_gamma                90
_cell_volume                     3823.54
loop_
_atom_site_label
_atom_site_type_symbol
_atom_site_fract_x
_atom_site_fract_y
_atom_site_fract_z
C1 C 0.2227(2) 0.22630(10) 0.27257(17)
C2 C 0.1685(2) 0.19360(10) 0.32798(19)
C3 C 0.1094(2) 0.21478(11) 0.39061(19)
H1 H 0.0754 0.1915 0.4270
C4 C 0.1012(2) 0.27104(10) 0.39909(18)
C5 C 0.1487(2) 0.30435(11) 0.3407(2)
H2 H 0.1407 0.3422 0.3437
C6 C 0.2077(2) 0.28242(10) 0.27822(19)
H3 H 0.2379 0.3057 0.2392
C7 C 0.3053(2) 0.20512(10) 0.21706(19)
C8 C 0.0429(2) 0.29537(11) 0.4711(2)
C9 C 0.1710(3) 0.13824(12) -0.0288(2)
H4 H 0.1693 0.1764 -0.0308
C10 C 0.0661(3) 0.11034(13) -0.0752(2)
C11 C 0.0719(3) 0.05388(14) -0.0690(3)
H5 H 0.0039 0.0331 -0.0981
C12 C 0.1770(3) 0.02805(12) -0.0203(2)
H6 H 0.1801 -0.0100 -0.0164
C13 C 0.2781(2) 0.05879(10) 0.02304(18)
C14 C 0.3946(2) 0.03363(10) 0.07642(18)
C15 C 0.4148(3) -0.02279(11) 0.0758(2)
H7 H 0.3546 -0.0462 0.0399
C16 C 0.5244(3) -0.04339(11) 0.1288(2)
H8 H 0.5380 -0.0810 0.1293
C17 C 0.6145(3) -0.00871(11) 0.18114(19)
C18 C 0.5883(2) 0.04651(11) 0.17627(19)
H9 H 0.6483 0.0706 0.2100
C19 C -0.0474(3) 0.14050(17) -0.1271(3)
H10 H -0.0732 0.1309 -0.1969
H11 H -0.0334 0.1793 -0.1202
H12 H -0.1079 0.1305 -0.0972
C20 C 0.7354(3) -0.02927(14) 0.2408(2)
H13 H 0.7315 -0.0440 0.3034
H14 H 0.7914 0.0005 0.2535
H15 H 0.7605 -0.0574 0.2037
Cd1 Cd 0.445882(15) 0.162659(7) 0.106577(12)
N1 N 0.48224(19) 0.06764(8) 0.12625(15)
N2 N 0.27366(19) 0.11396(8) 0.01832(16)
N3 N 0.1636(2) 0.13363(10) 0.3149(2)
O1 O 0.37529(16) 0.16655(7) 0.25711(14)
O2 O 0.3046(2) 0.22688(8) 0.13798(15)
O3 O 0.0351(3) 0.34570(9) 0.4745(2)
O4 O 0.0088(2) 0.26514(8) 0.52732(16)
O5 O 0.1772(3) 0.10531(10) 0.3892(2)
O6 O 0.1435(2) 0.11571(9) 0.2299(2)
Cd1A Cd 0.554118(15) 0.162659(7) 0.393423(12)
Cd1G Cd -0.054118(15) 0.337341(7) 0.606577(12)
O1A O 0.62471(16) 0.16655(7) 0.24289(14)
O3G O 0.5351(3) 0.15430(9) -0.0255(2)
O4G O 0.5088(2) 0.23486(8) 0.02732(16)
loop_
_geom_bond_atom_site_label_1
_geom_bond_atom_site_label_2
_geom_bond_site_symmetry_1
_geom_bond_site_symmetry_2
C1 C2 1_555 1_555
C2 C3 1_555 1_555
C3 H1 1_555 1_555
C4 C3 1_555 1_555
C5 C4 1_555 1_555
H2 C5 1_555 1_555
C6 C1 1_555 1_555
H3 C6 1_555 1_555
C7 C1 1_555 1_555
C8 C4 1_555 1_555
C9 H4 1_555 1_555
C10 C9 1_555 1_555
C11 C10 1_555 1_555
H5 C11 1_555 1_555
C12 C11 1_555 1_555
H6 C12 1_555 1_555
C13 C12 1_555 1_555
C14 C13 1_555 1_555
C15 C14 1_555 1_555
H7 C15 1_555 1_555
C16 C15 1_555 1_555
H8 C16 1_555 1_555
C17 C16 1_555 1_555
C18 C17 1_555 1_555
H9 C18 1_555 1_555
C19 C10 1_555 1_555
H10 C19 1_555 1_555
H11 C19 1_555 1_555
H12 C19 1_555 1_555
C20 C17 1_555 1_555
H13 C20 1_555 1_555
H14 C20 1_555 1_555
H15 C20 1_555 1_555
Cd1 N1 1_555 1_555
N1 C14 1_555 1_555
N2 C9 1_555 1_555
N3 C2 1_555 1_555
O1 C7 1_555 1_555
O2 C7 1_555 1_555
O3 C8 1_555 1_555
O4 C8 1_555 1_555
O5 N3 1_555 1_555
O6 N3 1_555 1_555
Cd1A O1 1_555 1_555
Cd1G O3 1_555 1_555
O1A Cd1 1_555 1_555
O3G Cd1 1_555 1_555
O4G Cd1 1_555 1_555
C5 C6 1_555 1_555
C13 N2 1_555 1_555
C18 N1 1_555 1_555
Cd1 N2 1_555 1_555
Cd1 O1 1_555 1_555
Cd1 O2 1_555 1_555
O4 Cd1G 1_555 1_555
Cd1A O1A 1_555 1_555

#END
