
#######################################################################
#
#                 Cambridge Crystallographic Data Centre
#                                CCDC 
#
#######################################################################
#
# If this CIF has been generated from an entry in the Cambridge 
# Structural Database, then it will include bibliographic, chemical, 
# crystal, experimental, refinement or atomic coordinate data resulting 
# from the CCDC's data processing and validation procedures.
#
#######################################################################

data_TEZJIS
_symmetry_cell_setting           monoclinic
_symmetry_space_group_name_H-M   'P 21/n'
_symmetry_Int_Tables_number      14
_space_group_name_Hall           '-P 2yn'
loop_
_symmetry_equiv_pos_site_id
_symmetry_equiv_pos_as_xyz
1 x,y,z
2 1/2-x,1/2+y,1/2-z
3 -x,-y,-z
4 1/2+x,1/2-y,1/2+z
_cell_length_a                   10.8579(4)
_cell_length_b                   8.7995(4)
_cell_length_c                   16.4975(7)
_cell_angle_alpha                90
_cell_angle_beta                 91.5460(10)
_cell_angle_gamma                90
_cell_volume                     1575.66
loop_
_atom_site_label
_atom_site_type_symbol
_atom_site_fract_x
_atom_site_fract_y
_atom_site_fract_z
Cu1 Cu 0.339438(12) 0.092993(15) 0.118397(8)
P1 P -0.14063(2) 0.09321(3) -0.231420(16)
P2 P 0.09333(2) 0.25207(3) 0.063356(16)
O1 O 0.19568(7) 0.13610(9) 0.05181(5)
O2 O -0.16178(7) 0.16273(9) -0.31469(5)
O3 O -0.25749(7) 0.03747(10) -0.19347(5)
O4 O -0.01032(7) 0.19731(10) 0.11477(5)
O5 O 0.15129(9) 0.40375(9) 0.09791(6)
O6 O -0.04463(8) -0.03927(10) -0.24028(5)
N1 N 0.50409(8) 0.02678(11) 0.16328(6)
N2 N 0.44954(9) 0.18967(11) 0.03604(6)
C1 C 0.41106(12) 0.27142(14) -0.02826(7)
H1 H 0.3251 0.2794 -0.0400
C2 C 0.49285(14) 0.34496(15) -0.07845(8)
H2 H 0.4635 0.4020 -0.1239
C3 C 0.61789(14) 0.33341(17) -0.06097(9)
H3 H 0.6756 0.3826 -0.0944
C4 C 0.65828(13) 0.24931(16) 0.00586(9)
H4 H 0.7437 0.2408 0.0191
C5 C 0.57133(11) 0.17772(13) 0.05314(7)
C6 C 0.60262(10) 0.08290(13) 0.12451(7)
C7 C 0.72250(11) 0.05116(15) 0.15055(8)
H5 H 0.7906 0.0906 0.1223
C8 C 0.74092(11) -0.03947(16) 0.21872(9)
H6 H 0.8221 -0.0615 0.2382
C9 C 0.63996(11) -0.09755(14) 0.25815(8)
H7 H 0.6509 -0.1600 0.3048
C10 C 0.52245(10) -0.06254(13) 0.22805(7)
H8 H 0.4531 -0.1034 0.2543
C11 C -0.06644(10) 0.23345(12) -0.16801(6)
H9 H -0.1247 0.3184 -0.1602
H10 H 0.0052 0.2744 -0.1968
C12 C -0.02187(10) 0.17683(12) -0.08456(6)
H11 H 0.0412 0.0969 -0.0912
H12 H -0.0918 0.1318 -0.0557
C13 C 0.03298(11) 0.30760(12) -0.03448(7)
H13 H -0.0315 0.3855 -0.0271
H14 H 0.0999 0.3550 -0.0653
H15 H -0.032(2) -0.091(3) -0.1981(15)
H16 H 0.206(3) 0.387(3) 0.1206(17)
Cu1C Cu -0.160562(12) 0.407007(15) -0.381603(8)
Cu1B Cu -0.339438(12) -0.092993(15) -0.118397(8)
O2C O 0.33822(7) 0.33727(9) 0.18531(5)
O3B O 0.25749(7) -0.03747(10) 0.19347(5)
loop_
_geom_bond_atom_site_label_1
_geom_bond_atom_site_label_2
_geom_bond_site_symmetry_1
_geom_bond_site_symmetry_2
Cu1 O1 1_555 1_555
P1 O2 1_555 1_555
P2 O1 1_555 1_555
O2 Cu1C 1_555 1_555
O3 P1 1_555 1_555
O4 P2 1_555 1_555
O5 P2 1_555 1_555
O6 P1 1_555 1_555
N1 Cu1 1_555 1_555
N2 Cu1 1_555 1_555
C1 N2 1_555 1_555
H1 C1 1_555 1_555
C2 C1 1_555 1_555
H2 C2 1_555 1_555
C3 C2 1_555 1_555
H3 C3 1_555 1_555
C4 C3 1_555 1_555
H4 C4 1_555 1_555
C5 N2 1_555 1_555
C6 N1 1_555 1_555
C7 C6 1_555 1_555
H5 C7 1_555 1_555
C8 C7 1_555 1_555
H6 C8 1_555 1_555
C9 C8 1_555 1_555
H7 C9 1_555 1_555
C10 N1 1_555 1_555
H8 C10 1_555 1_555
C11 P1 1_555 1_555
H9 C11 1_555 1_555
H10 C11 1_555 1_555
C12 C11 1_555 1_555
H11 C12 1_555 1_555
H12 C12 1_555 1_555
C13 P2 1_555 1_555
H13 C13 1_555 1_555
H14 C13 1_555 1_555
H15 O6 1_555 1_555
H16 O5 1_555 1_555
Cu1B O3 1_555 1_555
O2C Cu1 1_555 1_555
O3B Cu1 1_555 1_555
C4 C5 1_555 1_555
C5 C6 1_555 1_555
C9 C10 1_555 1_555
C12 C13 1_555 1_555

#END
