
#######################################################################
#
#                 Cambridge Crystallographic Data Centre
#                                CCDC 
#
#######################################################################
#
# If this CIF has been generated from an entry in the Cambridge 
# Structural Database, then it will include bibliographic, chemical, 
# crystal, experimental, refinement or atomic coordinate data resulting 
# from the CCDC's data processing and validation procedures.
#
#######################################################################

data_TEZKAL
_symmetry_cell_setting           monoclinic
_symmetry_space_group_name_H-M   'P 21/n'
_symmetry_Int_Tables_number      14
_space_group_name_Hall           '-P 2yn'
loop_
_symmetry_equiv_pos_site_id
_symmetry_equiv_pos_as_xyz
1 x,y,z
2 1/2-x,1/2+y,1/2-z
3 -x,-y,-z
4 1/2+x,1/2-y,1/2+z
_cell_length_a                   11.8668(9)
_cell_length_b                   8.8784(7)
_cell_length_c                   22.4570(17)
_cell_angle_alpha                90
_cell_angle_beta                 92.308(2)
_cell_angle_gamma                90
_cell_volume                     2364.11
loop_
_atom_site_label
_atom_site_type_symbol
_atom_site_fract_x
_atom_site_fract_y
_atom_site_fract_z
O1 O 0.2138(2) 0.7406(3) 0.24706(12)
Cu1 Cu 0.05923(4) 0.60446(5) 0.21242(2)
P1 P 0.22795(8) 0.88083(11) 0.28475(4)
O2 O 0.0803(2) 0.6693(3) 0.13012(12)
O3 O 0.3498(2) 0.9249(3) 0.29731(12)
O4 O 0.1595(3) 1.0130(3) 0.25491(14)
O5 O -0.0761(3) 0.4531(4) 0.14523(14)
H1 H -0.0780 0.4098 0.1784
O6 O -0.0563(4) 0.2428(4) 0.10106(17)
O7 O 0.1535(3) 0.8915(4) 0.05918(17)
O8 O 0.3077(3) 0.8176(5) 0.02263(19)
H2 H 0.3573 0.8085 0.0501
O9 O 0.1673(3) 0.1854(4) -0.06437(15)
O10 O 0.2775(3) 0.3629(4) -0.09191(15)
H3 H 0.2452 0.4058 -0.1212
N1 N -0.0030(3) 0.5338(4) 0.28895(15)
N2 N -0.0447(3) 0.7760(4) 0.22708(15)
C1 C 0.0224(4) 0.4039(5) 0.31688(19)
H4 H 0.0737 0.3367 0.2993
C2 C -0.0234(4) 0.3644(5) 0.3701(2)
H5 H -0.0035 0.2720 0.3891
C3 C -0.0987(4) 0.4615(5) 0.39524(19)
H6 H -0.1313 0.4368 0.4319
C4 C -0.1263(4) 0.5945(5) 0.36677(19)
H7 H -0.1785 0.6622 0.3835
C5 C -0.0770(3) 0.6289(4) 0.31322(18)
C6 C -0.0986(3) 0.7686(5) 0.27918(17)
C7 C -0.1653(4) 0.8850(5) 0.29812(19)
H8 H -0.2038 0.8771 0.3343
C8 C -0.1751(4) 1.0136(5) 0.2635(2)
H9 H -0.2201 1.0955 0.2758
C9 C -0.1192(4) 1.0220(5) 0.2111(2)
H10 H -0.1246 1.1098 0.1869
C10 C -0.0549(3) 0.8997(5) 0.19412(19)
H11 H -0.0170 0.9048 0.1577
C11 C 0.1621(3) 0.8466(4) 0.35407(17)
C12 C 0.0841(3) 0.9470(5) 0.37625(19)
H12 H 0.0672 1.0376 0.3552
C13 C 0.0305(4) 0.9164(5) 0.42882(19)
H13 H -0.0228 0.9857 0.4434
C14 C 0.0547(4) 0.7856(5) 0.45975(19)
H14 H 0.0179 0.7642 0.4956
C15 C 0.1332(4) 0.6849(5) 0.43833(19)
H15 H 0.1507 0.5953 0.4599
C16 C 0.1860(3) 0.7146(4) 0.38582(18)
H16 H 0.2389 0.6447 0.3713
C17 C 0.1006(3) 0.5881(5) 0.08556(18)
C18 C 0.0589(3) 0.4379(5) 0.07395(17)
C19 C 0.0936(4) 0.3486(5) 0.02789(18)
H17 H 0.0650 0.2492 0.0231
C20 C 0.1698(4) 0.4045(5) -0.01108(18)
C21 C 0.2103(4) 0.5507(5) -0.00518(18)
H18 H 0.2624 0.5890 -0.0324
C22 C 0.1743(3) 0.6392(5) 0.04026(18)
C23 C -0.0286(3) 0.3726(4) 0.11023(16)
C24 C 0.2065(3) 0.3120(4) -0.05929(17)
C25 C 0.2146(3) 0.7938(4) 0.04235(17)
H19 H 0.189(6) 1.077(7) 0.254(3)
Cu1A Cu 0.44077(4) 1.10446(5) 0.28758(2)
O3A O 0.1502(2) 0.4249(3) 0.20269(12)
loop_
_geom_bond_atom_site_label_1
_geom_bond_atom_site_label_2
_geom_bond_site_symmetry_1
_geom_bond_site_symmetry_2
O1 Cu1 1_555 1_555
Cu1 O2 1_555 1_555
P1 O1 1_555 1_555
O2 C17 1_555 1_555
O3 P1 1_555 1_555
O4 P1 1_555 1_555
O5 Cu1 1_555 1_555
H1 O5 1_555 1_555
O6 C23 1_555 1_555
O7 C25 1_555 1_555
O8 H2 1_555 1_555
O9 C24 1_555 1_555
O10 H3 1_555 1_555
N1 Cu1 1_555 1_555
N2 Cu1 1_555 1_555
C1 N1 1_555 1_555
H4 C1 1_555 1_555
C2 C1 1_555 1_555
H5 C2 1_555 1_555
C3 C2 1_555 1_555
H6 C3 1_555 1_555
C4 C3 1_555 1_555
H7 C4 1_555 1_555
C5 N1 1_555 1_555
C6 N2 1_555 1_555
C7 C6 1_555 1_555
H8 C7 1_555 1_555
C8 C7 1_555 1_555
H9 C8 1_555 1_555
C9 C8 1_555 1_555
H10 C9 1_555 1_555
C10 N2 1_555 1_555
H11 C10 1_555 1_555
C11 P1 1_555 1_555
C12 C11 1_555 1_555
H12 C12 1_555 1_555
C13 C12 1_555 1_555
H13 C13 1_555 1_555
C14 C13 1_555 1_555
H14 C14 1_555 1_555
C15 C14 1_555 1_555
H15 C15 1_555 1_555
C16 C11 1_555 1_555
H16 C16 1_555 1_555
C17 C18 1_555 1_555
C18 C19 1_555 1_555
C19 H17 1_555 1_555
C20 C19 1_555 1_555
C21 C20 1_555 1_555
H18 C21 1_555 1_555
C22 C17 1_555 1_555
C23 O5 1_555 1_555
C24 O10 1_555 1_555
C25 O8 1_555 1_555
H19 O4 1_555 1_555
Cu1A O3 1_555 1_555
O3A Cu1 1_555 1_555
C4 C5 1_555 1_555
C5 C6 1_555 1_555
C9 C10 1_555 1_555
C15 C16 1_555 1_555
C18 C23 1_555 1_555
C20 C24 1_555 1_555
C21 C22 1_555 1_555
C22 C25 1_555 1_555

#END
