
#######################################################################
#
#                 Cambridge Crystallographic Data Centre
#                                CCDC 
#
#######################################################################
#
# If this CIF has been generated from an entry in the Cambridge 
# Structural Database, then it will include bibliographic, chemical, 
# crystal, experimental, refinement or atomic coordinate data resulting 
# from the CCDC's data processing and validation procedures.
#
#######################################################################

data_TEZLUG
_symmetry_cell_setting           orthorhombic
_symmetry_space_group_name_H-M   'F d d d'
_symmetry_Int_Tables_number      70
_space_group_name_Hall           '-F 2uv 2vw'
loop_
_symmetry_equiv_pos_site_id
_symmetry_equiv_pos_as_xyz
1 x,y,z
2 1/4-x,1/4-y,z
3 x,1/4-y,1/4-z
4 1/4-x,y,1/4-z
5 x,1/2+y,1/2+z
6 1/2+x,y,1/2+z
7 1/2+x,1/2+y,z
8 1/4-x,3/4-y,1/2+z
9 x,3/4-y,3/4-z
10 1/4-x,1/2+y,3/4-z
11 3/4-x,1/4-y,1/2+z
12 1/2+x,1/4-y,3/4-z
13 3/4-x,y,3/4-z
14 3/4-x,3/4-y,z
15 1/2+x,3/4-y,1/4-z
16 3/4-x,1/2+y,1/4-z
17 -x,-y,-z
18 3/4+x,3/4+y,-z
19 -x,3/4+y,3/4+z
20 3/4+x,-y,3/4+z
21 -x,1/2-y,1/2-z
22 1/2-x,-y,1/2-z
23 1/2-x,1/2-y,-z
24 3/4+x,1/4+y,1/2-z
25 -x,1/4+y,1/4+z
26 3/4+x,1/2-y,1/4+z
27 1/4+x,3/4+y,1/2-z
28 1/2-x,3/4+y,1/4+z
29 1/4+x,-y,1/4+z
30 1/4+x,1/4+y,-z
31 1/2-x,1/4+y,3/4+z
32 1/4+x,1/2-y,3/4+z
_cell_length_a                   14.051(3)
_cell_length_b                   15.965(4)
_cell_length_c                   40.971(11)
_cell_angle_alpha                90
_cell_angle_beta                 90
_cell_angle_gamma                90
_cell_volume                     9190.79
loop_
_atom_site_label
_atom_site_type_symbol
_atom_site_fract_x
_atom_site_fract_y
_atom_site_fract_z
C1 C 0.9634(6) 0.6493(5) 0.0170(2)
H1 H 0.9171 0.6920 0.0236
H2 H 0.9825 0.6591 -0.0057
H3 H 1.0194 0.6525 0.0312
N1 N 0.8893(4) 0.5018(4) 0.02212(17)
C7 C 0.9207(5) 0.5672(5) 0.01982(17)
P1 P 0.84566(17) 0.1250 0.1250
F1 F 0.7384(6) 0.1339(16) 0.1353(4)
F2 F 0.8236(17) 0.0957(16) 0.0898(6)
F4 F 0.9548(6) 0.117(3) 0.1179(5)
F5 F 0.8464(3) 0.2207(2) 0.11304(11)
F1B F 0.7384(6) 0.1161(16) 0.1147(4)
F2B F 0.8236(17) 0.1543(16) 0.1602(6)
F4B F 0.9548(6) 0.133(3) 0.1321(5)
F5B F 0.8464(3) 0.0293(2) 0.13696(11)
Ag1 Ag 0.8750 0.3750 0.066596(19)
C2 C 0.4232(4) 0.3868(5) -0.00198(17)
H4 H 0.4556 0.3963 -0.0220
C3 C 0.4240(4) 0.3862(4) 0.05705(15)
C4 C 0.6510(4) 0.3647(5) 0.07871(18)
N2 N 0.7280(4) 0.4094(4) 0.07414(14)
N3 N 0.5760(4) 0.4149(4) 0.08528(14)
C5 C 0.4762(4) 0.3932(5) 0.08947(17)
H5 H 0.4449 0.4364 0.1031
H6 H 0.4717 0.3391 0.1012
C6 C 0.4702(4) 0.3958(4) 0.02738(16)
H7 H 0.5361 0.4089 0.0273
C8 C 0.6081(5) 0.4979(5) 0.08411(19)
H8 H 0.5715 0.5471 0.0877
C9 C 0.7001(5) 0.4937(5) 0.07704(18)
H9 H 0.7409 0.5406 0.0743
C10 C 0.6445(5) 0.2737(5) 0.0763(2)
H10 H 0.5794 0.2559 0.0814
H11 H 0.6888 0.2480 0.0918
H12 H 0.6609 0.2562 0.0540
Ag1_2 Ag -0.1250 0.3750 0.066596(19)
C2M C 0.3268(4) 0.3632(5) -0.00198(17)
H4M H 0.2944 0.3537 -0.0220
C3M C 0.3260(4) 0.3638(4) 0.05705(15)
C4M C 0.0990(4) 0.3853(5) 0.07871(18)
N2M N 0.0220(4) 0.3406(4) 0.07414(14)
N2M_2 N 1.0220(4) 0.3406(4) 0.07414(14)
N3M N 0.1740(4) 0.3351(4) 0.08528(14)
C5M C 0.2738(4) 0.3568(5) 0.08947(17)
H5M H 0.3051 0.3136 0.1031
H6M H 0.2783 0.4109 0.1012
C6M C 0.2798(4) 0.3542(4) 0.02738(16)
H7M H 0.2139 0.3411 0.0273
C8M C 0.1419(5) 0.2521(5) 0.08411(19)
H8M H 0.1785 0.2029 0.0877
C9M C 0.0499(5) 0.2563(5) 0.07704(18)
H9M H 0.0091 0.2094 0.0743
C10M C 0.1055(5) 0.4763(5) 0.0763(2)
H10M H 0.1706 0.4941 0.0814
H11M H 0.0612 0.5020 0.0918
H12M H 0.0891 0.4938 0.0540
F3? F 0.8733(15) 0.1526(18) 0.1618(7)
loop_
_geom_bond_atom_site_label_1
_geom_bond_atom_site_label_2
_geom_bond_site_symmetry_1
_geom_bond_site_symmetry_2
Ag1 N2 1_555 1_555
C1 H1 1_555 1_555
H2 C1 1_555 1_555
H3 C1 1_555 1_555
C2 H4 1_555 1_555
C3 C5 1_555 1_555
C4 N2 1_555 1_555
N1 C7 1_555 1_555
N2 C9 1_555 1_555
N3 C4 1_555 1_555
C5 N3 1_555 1_555
H5 C5 1_555 1_555
H6 C5 1_555 1_555
C6 C2 1_555 1_555
H7 C6 1_555 1_555
C7 C1 1_555 1_555
C8 N3 1_555 1_555
H8 C8 1_555 1_555
C9 C8 1_555 1_555
H9 C9 1_555 1_555
C10 C4 1_555 1_555
H10 C10 1_555 1_555
H11 C10 1_555 1_555
H12 C10 1_555 1_555
P1 F1 1_555 1_555
F1 F1B 1_555 1_555
F2 P1 1_555 1_555
F4 P1 1_555 1_555
F5 P1 1_555 1_555
Ag1_2 N2M 1_555 1_555
C2M C2 1_555 1_555
H4M C2M 1_555 1_555
C3M C3 1_555 1_555
C4M N2M 1_555 1_555
N2M C9M 1_555 1_555
N2M_2 Ag1 1_555 1_555
N3M C4M 1_555 1_555
C5M C3M 1_555 1_555
H5M C5M 1_555 1_555
H6M C5M 1_555 1_555
C6M C2M 1_555 1_555
H7M C6M 1_555 1_555
C8M N3M 1_555 1_555
H8M C8M 1_555 1_555
C9M C8M 1_555 1_555
H9M C9M 1_555 1_555
C10M C4M 1_555 1_555
H10M C10M 1_555 1_555
H11M C10M 1_555 1_555
H12M C10M 1_555 1_555
F1B P1 1_555 1_555
F2B P1 1_555 1_555
F4B P1 1_555 1_555
F5B P1 1_555 1_555
C3 C6 1_555 1_555
F1 F2B 1_555 1_555
F2 F1B 1_555 1_555
F4 F4B 1_555 1_555
C3M C6M 1_555 1_555
N3M C5M 1_555 1_555

#END
