
#######################################################################
#
#                 Cambridge Crystallographic Data Centre
#                                CCDC 
#
#######################################################################
#
# If this CIF has been generated from an entry in the Cambridge 
# Structural Database, then it will include bibliographic, chemical, 
# crystal, experimental, refinement or atomic coordinate data resulting 
# from the CCDC's data processing and validation procedures.
#
#######################################################################

data_TEZLOB
_symmetry_cell_setting           monoclinic
_symmetry_space_group_name_H-M   'P 21/c'
_symmetry_Int_Tables_number      14
_space_group_name_Hall           '-P 2ybc'
loop_
_symmetry_equiv_pos_site_id
_symmetry_equiv_pos_as_xyz
1 x,y,z
2 -x,1/2+y,1/2-z
3 -x,-y,-z
4 x,1/2-y,1/2+z
_cell_length_a                   10.734(5)
_cell_length_b                   20.992(5)
_cell_length_c                   11.641(5)
_cell_angle_alpha                90
_cell_angle_beta                 111.450(5)
_cell_angle_gamma                90
_cell_volume                     2441.36
loop_
_atom_site_label
_atom_site_type_symbol
_atom_site_fract_x
_atom_site_fract_y
_atom_site_fract_z
Cd1 Cd 0.86182(2) 0.438313(11) 0.44849(2)
S1 S 1.02974(9) 0.48027(4) 0.69894(8)
O1 O 0.9454(2) 0.52472(12) 0.5981(2)
N1 N 0.8794(3) 0.34440(14) 0.3646(3)
C1 C 0.9548(4) 0.33339(18) 0.2986(4)
H1 H 0.9965 0.3654 0.2707
O2 O 1.1696(3) 0.49178(15) 0.7105(3)
N2 N 0.9648(3) 0.27094(14) 0.2759(3)
C2 C 0.8903(3) 0.23805(16) 0.3321(3)
O3 O 0.9876(3) 0.41566(13) 0.6520(3)
N3 N 1.6560(3) 0.06589(14) -0.0478(3)
C3 C 0.8360(3) 0.28464(16) 0.3856(3)
O4 O 1.0110(4) 0.4916(2) 0.8129(3)
N4 N 1.4831(3) 0.08046(16) 0.0114(3)
C4 C 0.7548(4) 0.26713(19) 0.4502(4)
H2 H 0.7171 0.2979 0.4849
C5 C 0.7312(4) 0.20325(19) 0.4617(4)
C6 C 0.7880(4) 0.15603(18) 0.4082(4)
C7 C 0.8674(4) 0.17347(17) 0.3422(4)
H3 H 0.9040 0.1429 0.3059
C8 C 0.7639(5) 0.0862(2) 0.4231(5)
H4 H 0.7986 0.0753 0.5092
H5 H 0.8083 0.0612 0.3805
H6 H 0.6696 0.0776 0.3891
C9 C 0.6451(5) 0.1848(3) 0.5355(5)
H7 H 0.5641 0.1651 0.4817
H8 H 0.6236 0.2223 0.5718
H9 H 0.6934 0.1555 0.5995
C10 C 1.0438(5) 0.2443(2) 0.2075(4)
H10 H 1.0291 0.2699 0.1343
H11 H 1.0122 0.2015 0.1806
C11 C 1.1895(6) 0.2418(3) 0.2809(6)
H12 H 1.2051 0.2073 0.3399
H13 H 1.2141 0.2811 0.3278
C12 C 1.2817(10) 0.2331(4) 0.2131(9)
H14 H 1.2435 0.2551 0.1347
H15 H 1.3654 0.2541 0.2597
C13 C 1.3107(12) 0.1723(4) 0.1896(8)
H16 H 1.2274 0.1517 0.1400
H17 H 1.3456 0.1497 0.2676
C14 C 1.6159(4) 0.07213(19) 0.0468(3)
H18 H 1.6736 0.0709 0.1289
C15 C 1.4308(3) 0.08002(17) -0.1165(3)
C16 C 1.5400(3) 0.07046(16) -0.1530(3)
C17 C 1.5210(4) 0.06612(16) -0.2773(3)
H19 H 1.5932 0.0587 -0.3017
C18 C 1.3934(4) 0.07301(16) -0.3642(3)
C19 C 1.2830(3) 0.08306(18) -0.3265(4)
C20 C 1.3012(3) 0.08555(19) -0.2032(4)
H20 H 1.2287 0.0908 -0.1785
C21 C 1.1445(4) 0.0923(2) -0.4232(4)
H21 H 1.1418 0.1314 -0.4667
H22 H 1.1238 0.0574 -0.4804
H23 H 1.0800 0.0939 -0.3839
C22 C 1.3701(5) 0.0684(2) -0.5004(4)
H24 H 1.3414 0.1090 -0.5389
H25 H 1.4518 0.0562 -0.5102
H26 H 1.3023 0.0370 -0.5383
C23 C 1.4089(5) 0.0941(2) 0.0926(4)
H27 H 1.3167 0.0805 0.0525
H28 H 1.4478 0.0700 0.1684
C24 C 1.4115(7) 0.1634(3) 0.1228(5)
H29 H 1.5008 0.1763 0.1762
H30 H 1.3849 0.1889 0.0481
Cd1B Cd 1.13818(2) 0.561687(11) 0.55151(2)
Cd1C Cd 1.86182(2) 0.061687(11) -0.05151(2)
O1B O 1.0546(2) 0.47528(12) 0.4019(2)
O2B O 0.8304(3) 0.50822(15) 0.2895(3)
N3C N 0.6560(3) 0.43411(14) 0.4522(3)
loop_
_geom_bond_atom_site_label_1
_geom_bond_atom_site_label_2
_geom_bond_site_symmetry_1
_geom_bond_site_symmetry_2
Cd1 O1 1_555 1_555
S1 O1 1_555 1_555
O1 Cd1B 1_555 1_555
N1 Cd1 1_555 1_555
C1 N1 1_555 1_555
H1 C1 1_555 1_555
O2 S1 1_555 1_555
N2 C1 1_555 1_555
C2 N2 1_555 1_555
O3 Cd1 1_555 1_555
N3 C14 1_555 1_555
C3 N1 1_555 1_555
O4 S1 1_555 1_555
N4 C14 1_555 1_555
C4 C3 1_555 1_555
H2 C4 1_555 1_555
C5 C4 1_555 1_555
C6 C5 1_555 1_555
C7 C2 1_555 1_555
H3 C7 1_555 1_555
C8 C6 1_555 1_555
H4 C8 1_555 1_555
H5 C8 1_555 1_555
H6 C8 1_555 1_555
C9 C5 1_555 1_555
H7 C9 1_555 1_555
H8 C9 1_555 1_555
H9 C9 1_555 1_555
C10 N2 1_555 1_555
H10 C10 1_555 1_555
H11 C10 1_555 1_555
C11 C10 1_555 1_555
H12 C11 1_555 1_555
H13 C11 1_555 1_555
C12 C11 1_555 1_555
H14 C12 1_555 1_555
H15 C12 1_555 1_555
C13 C12 1_555 1_555
H16 C13 1_555 1_555
H17 C13 1_555 1_555
C14 H18 1_555 1_555
C15 N4 1_555 1_555
C16 N3 1_555 1_555
C17 C16 1_555 1_555
H19 C17 1_555 1_555
C18 C17 1_555 1_555
C19 C18 1_555 1_555
C20 C15 1_555 1_555
H20 C20 1_555 1_555
C21 C19 1_555 1_555
H21 C21 1_555 1_555
H22 C21 1_555 1_555
H23 C21 1_555 1_555
C22 C18 1_555 1_555
H24 C22 1_555 1_555
H25 C22 1_555 1_555
H26 C22 1_555 1_555
C23 N4 1_555 1_555
H27 C23 1_555 1_555
H28 C23 1_555 1_555
C24 C13 1_555 1_555
H29 C24 1_555 1_555
H30 C24 1_555 1_555
Cd1B O2 1_555 1_555
Cd1C N3 1_555 1_555
O1B Cd1 1_555 1_555
O2B Cd1 1_555 1_555
N3C Cd1 1_555 1_555
S1 O3 1_555 1_555
C2 C3 1_555 1_555
C6 C7 1_555 1_555
C15 C16 1_555 1_555
C19 C20 1_555 1_555
C23 C24 1_555 1_555
Cd1B O1B 1_555 1_555

#END
