
#######################################################################
#
#                 Cambridge Crystallographic Data Centre
#                                CCDC 
#
#######################################################################
#
# If this CIF has been generated from an entry in the Cambridge 
# Structural Database, then it will include bibliographic, chemical, 
# crystal, experimental, refinement or atomic coordinate data resulting 
# from the CCDC's data processing and validation procedures.
#
#######################################################################

data_TEZMUG
_symmetry_cell_setting           triclinic
_symmetry_space_group_name_H-M   'P -1'
_symmetry_Int_Tables_number      2
_space_group_name_Hall           '-P 1'
loop_
_symmetry_equiv_pos_site_id
_symmetry_equiv_pos_as_xyz
1 x,y,z
2 -x,-y,-z
_cell_length_a                   6.920(6)
_cell_length_b                   11.139(2)
_cell_length_c                   19.756(4)
_cell_angle_alpha                97.14(2)
_cell_angle_beta                 96.77(4)
_cell_angle_gamma                98.20(3)
_cell_volume                     1481.25
loop_
_atom_site_label
_atom_site_type_symbol
_atom_site_fract_x
_atom_site_fract_y
_atom_site_fract_z
Pb1 Pb 0.29274(4) 0.10184(2) 0.01712(1)
S1 S 0.3670(3) -0.1711(1) 0.3081(1)
S2 S -0.0245(2) 0.1667(1) 0.2596(1)
O1 O 0.3070(7) 0.0501(4) 0.1436(2)
O2 O 0.5609(9) -0.0093(4) 0.0982(2)
O3 O 0.4687(8) -0.2709(4) 0.2909(2)
O4 O 0.1815(7) -0.1927(5) 0.3331(2)
O5 O -0.0565(6) 0.1019(3) 0.0421(2)
O6 O -0.2929(7) 0.2157(4) 0.0246(2)
O7 O 0.0371(7) 0.0550(4) 0.2768(2)
O8 O -0.2111(7) 0.1958(4) 0.2741(3)
N1 N 0.3273(7) -0.1100(5) 0.2387(2)
N2 N -0.0198(8) 0.1626(5) 0.1786(3)
N3 N 0.3173(7) 0.3293(4) 0.0735(2)
N4 N 0.1857(7) 0.2577(4) -0.0625(2)
C1 C 0.4475(9) -0.0104(5) 0.1429(3)
C2 C 0.4942(9) -0.0811(6) 0.2018(3)
C3 C 0.5301(10) -0.0609(6) 0.3686(3)
C4 C 0.7294(11) -0.0644(7) 0.3775(3)
C5 C 0.8550(11) 0.0292(8) 0.4215(4)
C6 C 0.7832(14) 0.1260(7) 0.4564(3)
C7 C 0.5828(13) 0.1245(7) 0.4473(4)
C8 C 0.4541(11) 0.0321(7) 0.4039(4)
C9 C 0.9285(16) 0.2287(9) 0.4989(4)
C10 C -0.1607(8) 0.1817(5) 0.0617(3)
C11 C -0.1235(9) 0.2385(5) 0.1366(3)
C12 C 0.1578(9) 0.2882(5) 0.3040(3)
C13 C 0.3525(10) 0.2721(6) 0.3130(3)
C14 C 0.4948(11) 0.3640(6) 0.3504(4)
C15 C 0.4458(12) 0.4728(7) 0.3775(3)
C16 C 0.2508(12) 0.4900(7) 0.3671(4)
C17 C 0.1037(11) 0.3975(6) 0.3301(3)
C18 C 0.5997(15) 0.5755(8) 0.4186(5)
C19 C 0.3654(9) 0.3598(6) 0.1418(3)
C20 C 0.3679(9) 0.4783(6) 0.1757(3)
C21 C 0.3207(9) 0.5651(6) 0.1359(4)
C22 C 0.2777(9) 0.5370(5) 0.0648(3)
C23 C 0.2745(8) 0.4173(5) 0.0344(3)
C24 C 0.2228(8) 0.3782(5) -0.0406(3)
C25 C 0.2114(9) 0.4623(6) -0.0867(3)
C26 C 0.1593(10) 0.4190(6) -0.1561(4)
C27 C 0.1167(9) 0.2957(7) -0.1779(3)
C28 C 0.1315(10) 0.2169(6) -0.1300(3)
H1 H 0.6416 -0.0188 0.2200
H2 H 0.5529 -0.1561 0.1771
H3 H 0.2228 -0.0554 0.2350
H4 H 0.7763 -0.1393 0.3479
H5 H 1.0112 0.0480 0.4129
H6 H 0.5316 0.1880 0.4789
H7 H 0.3017 0.0330 0.4038
H8 H 0.8817 0.2944 0.4870
H9 H 0.9161 0.2259 0.5441
H10 H 1.0548 0.1852 0.5285
H11 H -0.2768 0.2400 0.1518
H12 H -0.0336 0.3192 0.1331
H13 H 0.0603 0.0999 0.1534
H14 H 0.3813 0.1832 0.2937
H15 H 0.6280 0.3397 0.3619
H16 H 0.2144 0.5787 0.3697
H17 H -0.0388 0.4190 0.3170
H18 H 0.6980 0.5260 0.4474
H19 H 0.5627 0.6106 0.4707
H20 H 0.7016 0.5850 0.3881
H21 H 0.4308 0.2913 0.1686
H22 H 0.4106 0.5092 0.2263
H23 H 0.3116 0.6486 0.1462
H24 H 0.2603 0.6134 0.0370
H25 H 0.2518 0.5694 -0.0624
H26 H 0.1685 0.4993 -0.1848
H27 H 0.1103 0.2657 -0.2304
H28 H 0.1178 0.1107 -0.1379
O2A O 0.4391(9) 0.0093(4) -0.0982(2)
Pb1A Pb 0.70726(4) -0.10184(2) -0.01712(1)
O5A O 0.0565(6) -0.1019(3) -0.0421(2)
Pb1A_2 Pb -0.29274(4) -0.10184(2) -0.01712(1)
loop_
_geom_bond_atom_site_label_1
_geom_bond_atom_site_label_2
_geom_bond_site_symmetry_1
_geom_bond_site_symmetry_2
Pb1 O1 1_555 1_555
S1 O3 1_555 1_555
S2 O7 1_555 1_555
O1 C1 1_555 1_555
O2 Pb1 1_555 1_555
O4 S1 1_555 1_555
O5 Pb1 1_555 1_555
O6 C10 1_555 1_555
O8 S2 1_555 1_555
N1 S1 1_555 1_555
N2 S2 1_555 1_555
N3 Pb1 1_555 1_555
N4 Pb1 1_555 1_555
C1 O2 1_555 1_555
C2 N1 1_555 1_555
C3 S1 1_555 1_555
C4 C3 1_555 1_555
C5 C4 1_555 1_555
C6 C5 1_555 1_555
C7 C6 1_555 1_555
C8 C3 1_555 1_555
C9 C6 1_555 1_555
C10 O5 1_555 1_555
C11 N2 1_555 1_555
C12 S2 1_555 1_555
C13 C12 1_555 1_555
C14 C13 1_555 1_555
C15 C14 1_555 1_555
C16 C15 1_555 1_555
C17 C12 1_555 1_555
C18 C15 1_555 1_555
C19 N3 1_555 1_555
C20 C19 1_555 1_555
C21 C20 1_555 1_555
C22 C21 1_555 1_555
C23 N3 1_555 1_555
C24 N4 1_555 1_555
C25 C24 1_555 1_555
C26 C25 1_555 1_555
C27 C26 1_555 1_555
C28 N4 1_555 1_555
H1 C2 1_555 1_555
H2 C2 1_555 1_555
H3 N1 1_555 1_555
H4 C4 1_555 1_555
H5 C5 1_555 1_555
H6 C7 1_555 1_555
H7 C8 1_555 1_555
H8 C9 1_555 1_555
H9 C9 1_555 1_555
H10 C9 1_555 1_555
H11 C11 1_555 1_555
H12 C11 1_555 1_555
H13 N2 1_555 1_555
H14 C13 1_555 1_555
H15 C14 1_555 1_555
H16 C16 1_555 1_555
H17 C17 1_555 1_555
H18 C18 1_555 1_555
H19 C18 1_555 1_555
H20 C18 1_555 1_555
H21 C19 1_555 1_555
H22 C20 1_555 1_555
H23 C21 1_555 1_555
H24 C22 1_555 1_555
H25 C25 1_555 1_555
H26 C26 1_555 1_555
H27 C27 1_555 1_555
H28 C28 1_555 1_555
O2A Pb1 1_555 1_555
Pb1A O2 1_555 1_555
O5A Pb1 1_555 1_555
Pb1A_2 O5 1_555 1_555
C1 C2 1_555 1_555
C7 C8 1_555 1_555
C10 C11 1_555 1_555
C16 C17 1_555 1_555
C22 C23 1_555 1_555
C23 C24 1_555 1_555
C27 C28 1_555 1_555
O2A Pb1A 1_555 1_555
O5A Pb1A_2 1_555 1_555

#END
