
#######################################################################
#
#                 Cambridge Crystallographic Data Centre
#                                CCDC 
#
#######################################################################
#
# If this CIF has been generated from an entry in the Cambridge 
# Structural Database, then it will include bibliographic, chemical, 
# crystal, experimental, refinement or atomic coordinate data resulting 
# from the CCDC's data processing and validation procedures.
#
#######################################################################

data_TEZMOA
_symmetry_cell_setting           orthorhombic
_symmetry_space_group_name_H-M   'P c c n'
_symmetry_Int_Tables_number      56
_space_group_name_Hall           '-P 2ab 2ac'
loop_
_symmetry_equiv_pos_site_id
_symmetry_equiv_pos_as_xyz
1 x,y,z
2 1/2-x,1/2-y,z
3 1/2+x,-y,1/2-z
4 -x,1/2+y,1/2-z
5 -x,-y,-z
6 1/2+x,1/2+y,-z
7 1/2-x,y,1/2+z
8 x,1/2-y,1/2+z
_cell_length_a                   40.16(2)
_cell_length_b                   6.847(4)
_cell_length_c                   8.255(1)
_cell_angle_alpha                90
_cell_angle_beta                 90
_cell_angle_gamma                90
_cell_volume                     2269.92
loop_
_atom_site_label
_atom_site_type_symbol
_atom_site_fract_x
_atom_site_fract_y
_atom_site_fract_z
Pb1 Pb 0.2500 0.2500 0.7107(1)
O1 O 0.1902(3) 0.4469(2) 0.704(1)
O2 O 0.2174(2) 0.3807(2) 0.482(1)
C1 C 0.1919(4) 0.4448(2) 0.556(2)
C2 C 0.1655(4) 0.5311(2) 0.450(2)
N1 N 0.1363(4) 0.6053(2) 0.533(2)
C3 C 0.1143(4) 0.4908(3) 0.604(2)
O3 O 0.1161(4) 0.3068(2) 0.598(2)
C4 C 0.0861(4) 0.5826(3) 0.690(2)
C5 C 0.0631(5) 0.4707(4) 0.773(2)
C6 C 0.0355(6) 0.5317(3) 0.838(3)
C7 C 0.0323(6) 0.7358(3) 0.852(3)
C8 C 0.0563(7) 0.8526(4) 0.788(3)
C9 C 0.0837(7) 0.7839(3) 0.706(3)
O4 O 0.2173(3) -0.0567(2) 0.605(1)
H1 H 0.173 0.646 0.390
H2 H 0.158 0.447 0.360
H3 H 0.140 0.692 0.574
H4 H 0.072 0.315 0.775
H5 H 0.014 0.439 0.878
H6 H 0.010 0.791 0.922
H7 H 0.052 1.017 0.801
H8 H 0.102 0.881 0.657
O1A O 0.3098(3) 0.0531(2) 0.704(1)
C1A C 0.3081(4) 0.0552(2) 0.556(2)
O2A O 0.2826(2) 0.1193(2) 0.482(1)
O2F O 0.2826(2) 0.3807(2) 0.982(1)
O2G O 0.2174(2) 0.1193(2) 0.982(1)
O4A O 0.2827(3) 0.5567(2) 0.605(1)
Pb1G Pb 0.2500 0.2500 0.2107(1)
C2A C 0.3345(4) -0.0311(2) 0.450(2)
N1A N 0.3637(4) -0.1053(2) 0.533(2)
C3A C 0.3857(4) 0.0092(3) 0.604(2)
O3A O 0.3839(4) 0.1932(2) 0.598(2)
C4A C 0.4139(4) -0.0826(3) 0.690(2)
C5A C 0.4369(5) 0.0293(4) 0.773(2)
C6A C 0.4645(6) -0.0317(3) 0.838(3)
C7A C 0.4677(6) -0.2358(3) 0.852(3)
C8A C 0.4437(7) -0.3526(4) 0.788(3)
C9A C 0.4163(7) -0.2839(3) 0.706(3)
H8A H 0.398 -0.381 0.657
H7A H 0.448 -0.517 0.801
H6A H 0.490 -0.291 0.922
H5A H 0.486 0.061 0.878
H4A H 0.428 0.185 0.775
H3A H 0.360 -0.192 0.574
H1A H 0.327 -0.146 0.390
H2A H 0.342 0.053 0.360
O5 O 0.1539(3) 0.4902(2) 0.987(1)
loop_
_geom_bond_atom_site_label_1
_geom_bond_atom_site_label_2
_geom_bond_site_symmetry_1
_geom_bond_site_symmetry_2
Pb1 O1 1_555 1_555
O1 C1 1_555 1_555
O2 Pb1 1_555 1_555
C1 O2 1_555 1_555
C2 C1 1_555 1_555
N1 C2 1_555 1_555
C3 N1 1_555 1_555
O3 C3 1_555 1_555
C4 C3 1_555 1_555
C5 C4 1_555 1_555
C6 C5 1_555 1_555
C7 C6 1_555 1_555
C8 C7 1_555 1_555
C9 C4 1_555 1_555
O4 Pb1 1_555 1_555
H1 C2 1_555 1_555
H2 C2 1_555 1_555
H3 N1 1_555 1_555
H4 C5 1_555 1_555
H5 C6 1_555 1_555
H6 C7 1_555 1_555
H7 C8 1_555 1_555
H8 C9 1_555 1_555
O1A Pb1 1_555 1_555
C1A O1A 1_555 1_555
O2A Pb1 1_555 1_555
O2F Pb1 1_555 1_555
O2G Pb1 1_555 1_555
O4A Pb1 1_555 1_555
Pb1G O2 1_555 1_555
C2A C1A 1_555 1_555
N1A C2A 1_555 1_555
C3A N1A 1_555 1_555
O3A C3A 1_555 1_555
C4A C3A 1_555 1_555
C5A C4A 1_555 1_555
C6A C5A 1_555 1_555
C7A C6A 1_555 1_555
C8A C7A 1_555 1_555
C9A C4A 1_555 1_555
H8A C9A 1_555 1_555
H7A C8A 1_555 1_555
H6A C7A 1_555 1_555
H5A C6A 1_555 1_555
H4A C5A 1_555 1_555
H3A N1A 1_555 1_555
H1A C2A 1_555 1_555
H2A C2A 1_555 1_555
C8 C9 1_555 1_555
C1A O2A 1_555 1_555
O2A Pb1G 1_555 1_555
C8A C9A 1_555 1_555

#END
