
#######################################################################
#
#                 Cambridge Crystallographic Data Centre
#                                CCDC 
#
#######################################################################
#
# If this CIF has been generated from an entry in the Cambridge 
# Structural Database, then it will include bibliographic, chemical, 
# crystal, experimental, refinement or atomic coordinate data resulting 
# from the CCDC's data processing and validation procedures.
#
#######################################################################

data_TEZQIZ
_symmetry_cell_setting           monoclinic
_symmetry_space_group_name_H-M   'P 21/m'
_symmetry_Int_Tables_number      11
_space_group_name_Hall           '-P 2yb'
loop_
_symmetry_equiv_pos_site_id
_symmetry_equiv_pos_as_xyz
1 x,y,z
2 -x,1/2+y,-z
3 -x,-y,-z
4 x,1/2-y,z
_cell_length_a                   6.724(3)
_cell_length_b                   12.048(4)
_cell_length_c                   11.325(3)
_cell_angle_alpha                90
_cell_angle_beta                 96.00(2)
_cell_angle_gamma                90
_cell_volume                     912.421
loop_
_atom_site_label
_atom_site_type_symbol
_atom_site_fract_x
_atom_site_fract_y
_atom_site_fract_z
Co1 Co 0.39149(8) 0.2500 0.14936(4)
O1 O 0.1713(3) 0.12745(19) 0.13723(19)
H1 H 0.067(4) 0.127(4) 0.087(3)
H2 H 0.180(6) 0.066(2) 0.174(3)
O2 O 0.6238(3) 0.37157(19) 0.15656(19)
H3 H 0.700(5) 0.378(3) 0.219(2)
H4 H 0.686(6) 0.368(4) 0.096(2)
N1 N 0.4010(5) 0.2500 0.3359(3)
N2 N 0.3703(5) 0.2500 0.9605(3)
C1 C 0.3924(5) 0.3452(2) 0.3976(2)
H5 H 0.3969 0.4120 0.3569
C2 C 0.3773(5) 0.3487(2) 0.5177(2)
H6 H 0.3721 0.4166 0.5562
C3 C 0.3696(5) 0.2500 0.5819(3)
C4 C 0.3621(5) 0.2500 0.7121(3)
C5 C 0.3618(4) 0.3484(2) 0.7766(2)
H7 H 0.3595 0.4163 0.7374
C6 C 0.3648(4) 0.3453(2) 0.8986(2)
H8 H 0.3628 0.4120 0.9398
Co1_2 Co 0.39149(8) 0.2500 1.14936(4)
O1C O 0.1713(3) 0.37255(19) 0.13723(19)
H1C H 0.067(4) 0.373(4) 0.087(3)
H2C H 0.180(6) 0.434(2) 0.174(3)
O2C O 0.6238(3) 0.12843(19) 0.15656(19)
H3C H 0.700(5) 0.122(3) 0.219(2)
H4C H 0.686(6) 0.132(4) 0.096(2)
N2_2 N 0.3703(5) 0.2500 -0.0395(3)
C1C C 0.3924(5) 0.1548(2) 0.3976(2)
H5C H 0.3969 0.0880 0.3569
C2C C 0.3773(5) 0.1513(2) 0.5177(2)
H6C H 0.3721 0.0834 0.5562
C5C C 0.3618(4) 0.1516(2) 0.7766(2)
H7C H 0.3595 0.0837 0.7374
C6C C 0.3648(4) 0.1547(2) 0.8986(2)
H8C H 0.3628 0.0880 0.9398
C7 C 0.1444(4) 0.8101(2) 0.1301(2)
C8 C 0.1399(4) 0.8489(2) 0.2525(2)
C9 C 0.1314(6) 0.7500 0.3289(3)
O3 O 0.1478(3) 0.87281(18) 0.04107(18)
O4 O 0.1439(4) 0.94682(17) 0.2858(2)
O5 O 0.1182(5) 0.7500 0.4378(3)
C7C C 0.1444(4) 0.6899(2) 0.1301(2)
C8C C 0.1399(4) 0.6511(2) 0.2525(2)
O3C O 0.1478(3) 0.62719(18) 0.04107(18)
O4C O 0.1439(4) 0.55318(17) 0.2858(2)
O6 O 0.1571(4) 0.5876(2) 0.6276(2)
H9 H 0.151(8) 0.625(3) 0.566(3)
H10 H 0.053(5) 0.552(3) 0.635(4)
loop_
_geom_bond_atom_site_label_1
_geom_bond_atom_site_label_2
_geom_bond_site_symmetry_1
_geom_bond_site_symmetry_2
Co1 O1 1_555 1_555
O1 H1 1_555 1_555
H2 O1 1_555 1_555
O2 Co1 1_555 1_555
H3 O2 1_555 1_555
H4 O2 1_555 1_555
N1 Co1 1_555 1_555
N2 C6 1_555 1_555
C1 N1 1_555 1_555
H5 C1 1_555 1_555
C2 C1 1_555 1_555
H6 C2 1_555 1_555
C3 C2 1_555 1_555
C4 C3 1_555 1_555
C5 C4 1_555 1_555
H7 C5 1_555 1_555
C6 C5 1_555 1_555
H8 C6 1_555 1_555
C7 C8 1_555 1_555
C8 C9 1_555 1_555
C9 O5 1_555 1_555
O3 C7 1_555 1_555
O4 C8 1_555 1_555
O6 H9 1_555 1_555
H10 O6 1_555 1_555
Co1_2 N2 1_555 1_555
O1C Co1 1_555 1_555
H1C O1C 1_555 1_555
H2C O1C 1_555 1_555
O2C Co1 1_555 1_555
H3C O2C 1_555 1_555
H4C O2C 1_555 1_555
N2_2 Co1 1_555 1_555
C1C N1 1_555 1_555
H5C C1C 1_555 1_555
C2C C3 1_555 1_555
H6C C2C 1_555 1_555
C5C C4 1_555 1_555
H7C C5C 1_555 1_555
C6C N2 1_555 1_555
H8C C6C 1_555 1_555
C7C C7 1_555 1_555
C8C C9 1_555 1_555
O3C C7C 1_555 1_555
O4C C8C 1_555 1_555
C1C C2C 1_555 1_555
C5C C6C 1_555 1_555
C7C C8C 1_555 1_555

#END
