
#######################################################################
#
#                 Cambridge Crystallographic Data Centre
#                                CCDC 
#
#######################################################################
#
# If this CIF has been generated from an entry in the Cambridge 
# Structural Database, then it will include bibliographic, chemical, 
# crystal, experimental, refinement or atomic coordinate data resulting 
# from the CCDC's data processing and validation procedures.
#
#######################################################################

data_TIBCOY
_symmetry_cell_setting           monoclinic
_symmetry_space_group_name_H-M   'P 21/c'
_symmetry_Int_Tables_number      14
_space_group_name_Hall           '-P 2ybc'
loop_
_symmetry_equiv_pos_site_id
_symmetry_equiv_pos_as_xyz
1 x,y,z
2 -x,1/2+y,1/2-z
3 -x,-y,-z
4 x,1/2-y,1/2+z
_cell_length_a                   16.128(3)
_cell_length_b                   12.2407(19)
_cell_length_c                   17.079(3)
_cell_angle_alpha                90
_cell_angle_beta                 113.314(2)
_cell_angle_gamma                90
_cell_volume                     3096.4
loop_
_atom_site_label
_atom_site_type_symbol
_atom_site_fract_x
_atom_site_fract_y
_atom_site_fract_z
Hg1 Hg 1.124994(16) -0.05186(2) 0.322986(15)
Cl1 Cl 1.15069(12) 0.07232(13) 0.22424(11)
Cl2 Cl 1.18021(13) -0.23185(15) 0.36446(16)
C1 C 0.5902(4) 0.0613(5) 0.1142(4)
H1 H 0.5634 0.0092 0.0664
H2 H 0.5503 0.0642 0.1457
N1 N 0.8282(3) -0.0512(4) 0.1838(3)
O1 O 0.6030(3) 0.2447(4) 0.2045(2)
C2 C 0.6229(4) 0.4579(5) 0.1523(4)
H3 H 0.6276 0.4485 0.2091
N2 N 0.6183(3) 0.6952(4) -0.0770(3)
N3 N 0.8500(4) 0.5508(4) 0.0589(4)
O2 O 0.6396(3) 0.7686(4) 0.0511(3)
C3 C 0.6266(4) 0.6873(5) 0.0063(4)
O3 O 0.5885(4) 0.6234(4) -0.2083(3)
C4 C 0.6198(4) 0.5769(5) 0.0388(4)
N4 N 0.5939(3) 0.1700(4) 0.0795(3)
O4 O 0.5911(3) 0.0954(4) -0.0430(3)
C5 C 0.9104(4) -0.0059(6) 0.2133(4)
H4 H 0.9228 0.0658 0.1997
N5 N 0.8200(4) 0.6949(5) -0.0244(4)
C6 C 0.5919(4) 0.1771(5) -0.0029(4)
C7 C 0.6101(4) 0.3691(5) 0.1008(3)
C8 C 0.6822(4) 0.0194(6) 0.1734(4)
H5 H 0.7113 0.0739 0.2189
H6 H 0.6746 -0.0490 0.2008
C9 C 0.6069(4) 0.4850(5) -0.0156(4)
C10 C 0.8346(4) 0.6568(6) 0.0533(4)
H7 H 0.8339 0.7007 0.0989
C11 C 0.6000(4) 0.6071(5) -0.1349(4)
C12 C 0.9270(4) -0.1681(5) 0.2660(4)
H8 H 0.9543 -0.2320 0.2970
C13 C 0.7427(4) -0.0021(5) 0.1267(4)
H9 H 0.7118 -0.0520 0.0782
H10 H 0.7550 0.0674 0.1036
C14 C 0.5974(4) 0.4973(5) -0.1005(4)
N6 N 0.9717(4) -0.0730(4) 0.2635(4)
C15 C 0.5915(4) 0.2884(5) -0.0367(4)
C16 C 0.5842(4) 0.4066(6) -0.1523(4)
H11 H 0.5762 0.4151 -0.2101
C17 C 0.6242(4) 0.8038(5) -0.1119(4)
H12 H 0.6216 0.8603 -0.0715
H13 H 0.5709 0.8141 -0.1660
C18 C 0.6031(4) 0.2586(5) 0.1335(3)
C19 C 0.8388(4) -0.1556(5) 0.2174(4)
H14 H 0.7925 -0.2083 0.2079
C20 C 0.6026(4) 0.3791(5) 0.0158(3)
C21 C 0.7978(5) 0.8088(7) -0.0532(5)
H15 H 0.8467 0.8384 -0.0684
H16 H 0.7961 0.8529 -0.0053
C22 C 0.6292(4) 0.5641(5) 0.1223(4)
H17 H 0.6398 0.6256 0.1590
C23 C 0.8265(6) 0.6072(8) -0.0708(5)
H18 H 0.8192 0.6082 -0.1288
C24 C 0.8450(6) 0.5194(8) -0.0197(5)
H19 H 0.8533 0.4471 -0.0356
C25 C 0.5825(4) 0.3030(5) -0.1198(4)
H20 H 0.5751 0.2410 -0.1555
C26 C 0.7090(5) 0.8220(7) -0.1288(5)
H21 H 0.7080 0.7702 -0.1736
H22 H 0.7066 0.8967 -0.1518
Hg1A Hg 0.875006(16) 0.44814(2) 0.177014(15)
N3A N 1.1500(4) 0.0508(4) 0.4411(4)
C27 C 0.8897(7) 0.3561(10) 0.4192(7)
Cl3 Cl 0.9525(3) 0.3812(5) 0.5268(2)
Cl4 Cl 0.9404(4) 0.2438(5) 0.3917(4)
Cl5 Cl 0.7815(4) 0.3088(7) 0.3825(6)
Cl6? Cl 0.7766(7) 0.3723(9) 0.4169(6)
loop_
_geom_bond_atom_site_label_1
_geom_bond_atom_site_label_2
_geom_bond_site_symmetry_1
_geom_bond_site_symmetry_2
Hg1 Cl1 1_555 1_555
Cl2 Hg1 1_555 1_555
C1 H1 1_555 1_555
H2 C1 1_555 1_555
N1 C5 1_555 1_555
O1 C18 1_555 1_555
C2 H3 1_555 1_555
N2 C3 1_555 1_555
N3 C10 1_555 1_555
O2 C3 1_555 1_555
C3 C4 1_555 1_555
O3 C11 1_555 1_555
C4 C9 1_555 1_555
N4 C1 1_555 1_555
O4 C6 1_555 1_555
C5 H4 1_555 1_555
N5 C10 1_555 1_555
C6 N4 1_555 1_555
C7 C2 1_555 1_555
C8 C1 1_555 1_555
H5 C8 1_555 1_555
H6 C8 1_555 1_555
C9 C14 1_555 1_555
C10 H7 1_555 1_555
C11 N2 1_555 1_555
C12 H8 1_555 1_555
C13 N1 1_555 1_555
H9 C13 1_555 1_555
H10 C13 1_555 1_555
C14 C11 1_555 1_555
N6 Hg1 1_555 1_555
C15 C6 1_555 1_555
C16 C14 1_555 1_555
H11 C16 1_555 1_555
C17 N2 1_555 1_555
H12 C17 1_555 1_555
H13 C17 1_555 1_555
C18 N4 1_555 1_555
C19 N1 1_555 1_555
H14 C19 1_555 1_555
C20 C7 1_555 1_555
C21 N5 1_555 1_555
H15 C21 1_555 1_555
H16 C21 1_555 1_555
C22 C2 1_555 1_555
H17 C22 1_555 1_555
C23 N5 1_555 1_555
H18 C23 1_555 1_555
C24 N3 1_555 1_555
H19 C24 1_555 1_555
C25 C15 1_555 1_555
H20 C25 1_555 1_555
C26 C17 1_555 1_555
H21 C26 1_555 1_555
H22 C26 1_555 1_555
C27 Cl3 1_555 1_555
Cl4 C27 1_555 1_555
Cl5 C27 1_555 1_555
Hg1A N3 1_555 1_555
N3A Hg1 1_555 1_555
C4 C22 1_555 1_555
C5 N6 1_555 1_555
C7 C18 1_555 1_555
C8 C13 1_555 1_555
C9 C20 1_555 1_555
C12 N6 1_555 1_555
C12 C19 1_555 1_555
C15 C20 1_555 1_555
C16 C25 1_555 1_555
C21 C26 1_555 1_555
C23 C24 1_555 1_555

#END
