
#######################################################################
#
#                 Cambridge Crystallographic Data Centre
#                                CCDC 
#
#######################################################################
#
# If this CIF has been generated from an entry in the Cambridge 
# Structural Database, then it will include bibliographic, chemical, 
# crystal, experimental, refinement or atomic coordinate data resulting 
# from the CCDC's data processing and validation procedures.
#
#######################################################################

data_TIBFIU
_symmetry_cell_setting           monoclinic
_symmetry_space_group_name_H-M   'P 21'
_symmetry_Int_Tables_number      4
_space_group_name_Hall           'P 2yb'
loop_
_symmetry_equiv_pos_site_id
_symmetry_equiv_pos_as_xyz
1 x,y,z
2 -x,1/2+y,-z
_cell_length_a                   6.2555(4)
_cell_length_b                   21.7461(12)
_cell_length_c                   7.1786(4)
_cell_angle_alpha                90
_cell_angle_beta                 94.527(2)
_cell_angle_gamma                90
_cell_volume                     973.478
loop_
_atom_site_label
_atom_site_type_symbol
_atom_site_fract_x
_atom_site_fract_y
_atom_site_fract_z
Co1 Co 0.58989(7) 0.85474(3) 0.55180(6)
O1 O 0.5969(4) 0.95271(17) 0.5519(4)
O2 O 0.8992(4) 0.90116(13) 0.5699(4)
O3 O 0.6134(5) 1.17969(17) 0.4837(7)
O4 O 0.9204(5) 1.23104(15) 0.5193(7)
O5 O 0.2669(4) 0.83802(13) 0.5279(4)
H1 H 0.2094 0.8026 0.5202
H2 H 0.1631 0.8632 0.5292
O6 O 0.6809(5) 0.76429(13) 0.5665(5)
H3 H 0.5715 0.7421 0.5803
H4 H 0.7964 0.7516 0.5246
N1 N 0.5854(5) 0.8529(3) 0.8692(4)
N2 N 0.5884(5) 0.8516(3) 1.2355(4)
C1 C 0.8002(7) 0.95263(19) 0.5628(5)
C2 C 0.9203(6) 1.01178(19) 0.5724(6)
C3 C 0.8173(7) 1.0661(2) 0.5348(6)
H5 H 0.6720 1.0659 0.4955
C4 C 0.9269(6) 1.12254(19) 0.5544(6)
C5 C 1.1439(7) 1.1209(2) 0.6111(7)
H6 H 1.2198 1.1576 0.6254
C6 C 1.2484(7) 1.0664(2) 0.6462(7)
H7 H 1.3939 1.0665 0.6847
C7 C 1.1385(7) 1.0109(2) 0.6249(7)
H8 H 1.2103 0.9738 0.6455
C8 C 0.8092(7) 1.1820(2) 0.5155(7)
C9 C 0.4782(10) 0.9076(3) 0.9424(8)
H9 H 0.3291 0.9078 0.8939
H10 H 0.5453 0.9444 0.8980
C10 C 0.4893(10) 0.9089(3) 1.1543(8)
H11 H 0.5731 0.9442 1.1995
H12 H 0.3458 0.9134 1.1948
C11 C 0.8078(7) 0.8466(3) 1.1710(6)
H13 H 0.8691 0.8072 1.2096
H14 H 0.8977 0.8786 1.2295
C12 C 0.8062(6) 0.8524(4) 0.9593(5)
H15 H 0.8783 0.8902 0.9287
H16 H 0.8848 0.8183 0.9108
C13 C 0.4714(11) 0.7977(3) 0.9359(8)
H17 H 0.5440 0.7607 0.8999
H18 H 0.3259 0.7968 0.8780
C14 C 0.4666(11) 0.7998(3) 1.1503(8)
H19 H 0.3189 0.8028 1.1815
H20 H 0.5253 0.7618 1.2028
Co1_2 Co 0.58989(7) 0.85474(3) 1.55180(6)
N2_2 N 0.5884(5) 0.8516(3) 0.2355(4)
O7 O 0.0308(17) 0.4941(5) 0.9184(13)
N3 N 0.0069(12) 0.5978(4) 0.9199(9)
C15 C 0.233(2) 0.5963(7) 0.9643(17)
H21 H 0.2681 0.6199 1.0755
H22 H 0.3040 0.6135 0.8627
H23 H 0.2784 0.5545 0.9845
C16 C -0.124(2) 0.6468(7) 0.902(2)
H24 H -0.2562 0.6352 0.8336
H25 H -0.0565 0.6788 0.8351
H26 H -0.1531 0.6616 1.0232
C17 C -0.083(2) 0.5418(6) 0.8929(19)
H27 H -0.2281 0.5383 0.8555
loop_
_geom_bond_atom_site_label_1
_geom_bond_atom_site_label_2
_geom_bond_site_symmetry_1
_geom_bond_site_symmetry_2
Co1 O1 1_555 1_555
O1 C1 1_555 1_555
O2 Co1 1_555 1_555
O3 C8 1_555 1_555
O4 C8 1_555 1_555
O5 Co1 1_555 1_555
H1 O5 1_555 1_555
H2 O5 1_555 1_555
O6 Co1 1_555 1_555
H3 O6 1_555 1_555
H4 O6 1_555 1_555
O7 C17 1_555 1_555
N1 Co1 1_555 1_555
N2 C10 1_555 1_555
N3 C15 1_555 1_555
C1 O2 1_555 1_555
C2 C1 1_555 1_555
C3 C2 1_555 1_555
H5 C3 1_555 1_555
C4 C3 1_555 1_555
C5 C4 1_555 1_555
H6 C5 1_555 1_555
C6 C5 1_555 1_555
H7 C6 1_555 1_555
C7 C2 1_555 1_555
H8 C7 1_555 1_555
C8 C4 1_555 1_555
C9 N1 1_555 1_555
H9 C9 1_555 1_555
H10 C9 1_555 1_555
C10 C9 1_555 1_555
H11 C10 1_555 1_555
H12 C10 1_555 1_555
C11 N2 1_555 1_555
H13 C11 1_555 1_555
H14 C11 1_555 1_555
C12 N1 1_555 1_555
H15 C12 1_555 1_555
H16 C12 1_555 1_555
C13 N1 1_555 1_555
H17 C13 1_555 1_555
H18 C13 1_555 1_555
C14 N2 1_555 1_555
H19 C14 1_555 1_555
H20 C14 1_555 1_555
C15 H21 1_555 1_555
H22 C15 1_555 1_555
H23 C15 1_555 1_555
C16 N3 1_555 1_555
H24 C16 1_555 1_555
H25 C16 1_555 1_555
H26 C16 1_555 1_555
C17 N3 1_555 1_555
H27 C17 1_555 1_555
Co1_2 N2 1_555 1_555
N2_2 Co1 1_555 1_555
C6 C7 1_555 1_555
C11 C12 1_555 1_555
C13 C14 1_555 1_555

#END
