
#######################################################################
#
#                 Cambridge Crystallographic Data Centre
#                                CCDC 
#
#######################################################################
#
# If this CIF has been generated from an entry in the Cambridge 
# Structural Database, then it will include bibliographic, chemical, 
# crystal, experimental, refinement or atomic coordinate data resulting 
# from the CCDC's data processing and validation procedures.
#
#######################################################################

data_TIBHIW01
_symmetry_cell_setting           monoclinic
_symmetry_space_group_name_H-M   'P 21/c'
_symmetry_Int_Tables_number      14
_space_group_name_Hall           '-P 2ybc'
loop_
_symmetry_equiv_pos_site_id
_symmetry_equiv_pos_as_xyz
1 x,y,z
2 -x,1/2+y,1/2-z
3 -x,-y,-z
4 x,1/2-y,1/2+z
_cell_length_a                   9.486(2)
_cell_length_b                   11.490(3)
_cell_length_c                   16.322(4)
_cell_angle_alpha                90
_cell_angle_beta                 106.076(3)
_cell_angle_gamma                90
_cell_volume                     1709.43
loop_
_atom_site_label
_atom_site_type_symbol
_atom_site_fract_x
_atom_site_fract_y
_atom_site_fract_z
Mn1 Mn 0.71229(3) 0.36073(2) 0.210538(18)
O1 O 0.84712(17) 0.45769(13) 0.31718(7)
O2 O 0.57181(16) 0.26262(12) 0.10622(9)
N1 N 0.09166(19) -0.14057(13) 0.00328(11)
O3 O 0.4699(2) 0.13827(14) 0.17648(10)
O4 O -0.30717(19) -0.50644(14) -0.04431(10)
N2 N 0.12243(19) -0.10512(15) -0.06254(10)
C1 C 0.4863(2) 0.17786(17) 0.10958(12)
O5 O 0.5107(2) 0.25868(15) -0.05407(10)
O6 O 0.88504(19) 0.23991(14) 0.21347(7)
O7 O 0.6512(2) 0.25207(16) 0.30695(10)
C2 C 0.3039(2) 0.03679(17) 0.02394(13)
C3 C -0.1180(2) -0.39112(18) 0.04972(13)
C4 C 0.4008(2) 0.12786(16) 0.02602(13)
C5 C -0.0114(2) -0.23392(16) -0.01245(12)
C6 C -0.2083(2) -0.41852(17) -0.03162(13)
C7 C -0.1046(2) -0.26171(19) -0.09284(13)
O8 O 0.5321(2) 0.47858(14) 0.20352(11)
C8 C 0.2227(2) -0.01053(16) -0.05305(12)
C9 C -0.0207(2) -0.29866(18) 0.05741(12)
C10 C 0.4158(2) 0.17191(19) -0.05163(13)
C11 C -0.2000(3) -0.35306(19) -0.10170(15)
C12 C 0.2400(3) 0.0341(2) -0.12885(14)
C13 C 0.3339(3) 0.1242(2) -0.12874(14)
C14 C -0.1291(3) -0.45639(19) 0.12689(14)
O9 O -0.22138(18) -0.53993(13) 0.11428(10)
O10 O -0.0512(2) -0.42829(17) 0.19838(10)
H1 H 0.301(2) 0.0110(17) 0.0730(14)
H2 H -0.111(3) -0.2182(17) -0.1412(15)
H3 H 0.336(3) 0.165(2) -0.1854(17)
H4 H 0.178(4) 0.012(3) -0.178(2)
H5 H -0.261(3) -0.3663(18) -0.1493(18)
H6 H 0.0455(7) -0.2856(8) 0.11412(19)
H7 H 0.6323 0.2541 0.3549
H8 H 0.9093 0.4932 0.2975
H9 H 0.5395(5) 0.2747(2) -0.00175(8)
H10 H 0.8832 0.4458 0.3703
H11 H 0.8753 0.2116 0.1641
H12 H 0.5363 0.5277 0.2431
H13 H 0.9322 0.1924 0.2511
H14 H -0.2990(4) -0.5379(3) 0.00539(10)
H15 H 0.4804 0.5058 0.1563
H16 H 0.5834 0.2157 0.2710
Mn1_2 Mn -0.28771(3) -0.63927(2) 0.210538(18)
O9_2 O 0.77862(18) 0.46007(13) 0.11428(10)
loop_
_geom_bond_atom_site_label_1
_geom_bond_atom_site_label_2
_geom_bond_site_symmetry_1
_geom_bond_site_symmetry_2
Mn1 O1 1_555 1_555
O1 H8 1_555 1_555
O2 Mn1 1_555 1_555
N1 N2 1_555 1_555
O3 C1 1_555 1_555
O4 C6 1_555 1_555
N2 C8 1_555 1_555
C1 O2 1_555 1_555
O5 C10 1_555 1_555
O6 Mn1 1_555 1_555
O7 Mn1 1_555 1_555
C2 C4 1_555 1_555
C3 C6 1_555 1_555
C4 C1 1_555 1_555
C5 N1 1_555 1_555
C6 C11 1_555 1_555
C7 C5 1_555 1_555
O8 Mn1 1_555 1_555
C8 C2 1_555 1_555
C9 C3 1_555 1_555
C10 C4 1_555 1_555
C11 C7 1_555 1_555
C12 C8 1_555 1_555
C13 C10 1_555 1_555
C14 C3 1_555 1_555
O9 C14 1_555 1_555
O10 C14 1_555 1_555
H1 C2 1_555 1_555
H2 C7 1_555 1_555
H3 C13 1_555 1_555
H4 C12 1_555 1_555
H5 C11 1_555 1_555
H6 C9 1_555 1_555
H7 O7 1_555 1_555
H9 O5 1_555 1_555
H10 O1 1_555 1_555
H11 O6 1_555 1_555
H12 O8 1_555 1_555
H13 O6 1_555 1_555
H14 O4 1_555 1_555
H15 O8 1_555 1_555
H16 O7 1_555 1_555
Mn1_2 O9 1_555 1_555
O9_2 Mn1 1_555 1_555
C5 C9 1_555 1_555
C12 C13 1_555 1_555

#END
