
#######################################################################
#
#                 Cambridge Crystallographic Data Centre
#                                CCDC 
#
#######################################################################
#
# If this CIF has been generated from an entry in the Cambridge 
# Structural Database, then it will include bibliographic, chemical, 
# crystal, experimental, refinement or atomic coordinate data resulting 
# from the CCDC's data processing and validation procedures.
#
#######################################################################

data_TIBNUP
_symmetry_cell_setting           monoclinic
_symmetry_space_group_name_H-M   'P 21/n'
_symmetry_Int_Tables_number      14
_space_group_name_Hall           '-P 2yn'
loop_
_symmetry_equiv_pos_site_id
_symmetry_equiv_pos_as_xyz
1 x,y,z
2 1/2-x,1/2+y,1/2-z
3 -x,-y,-z
4 1/2+x,1/2-y,1/2+z
_cell_length_a                   12.693(4)
_cell_length_b                   5.7903(19)
_cell_length_c                   13.581(5)
_cell_angle_alpha                90
_cell_angle_beta                 115.966(4)
_cell_angle_gamma                90
_cell_volume                     897.393
loop_
_atom_site_label
_atom_site_type_symbol
_atom_site_fract_x
_atom_site_fract_y
_atom_site_fract_z
Zn1 Zn 1.0000 0.0000 1.0000
O1 O 0.9150(3) -0.2730(6) 0.9373(2)
O2 O 0.8331(3) -0.4821(6) 0.7856(2)
H1 H 0.8299 -0.5785 0.8284
O3 O 0.6846(3) -0.2747(6) 0.5802(2)
O4 O 0.8115(3) -0.4356(7) 0.5286(3)
N1 N 0.9955(3) 0.0278(7) 0.8420(3)
C1 C 0.8858(4) -0.3086(10) 0.8372(4)
C2 C 0.9216(4) -0.1281(9) 0.7775(4)
C3 C 0.8839(4) -0.1405(9) 0.6633(3)
C4 C 0.7914(4) -0.3037(9) 0.5862(4)
C5 C 0.9311(4) 0.0150(10) 0.6184(4)
H2 H 0.9084 0.0114 0.5433
C6 C 1.0133(4) 0.1802(10) 0.6829(4)
C7 C 1.0657(4) 0.3427(10) 0.6399(4)
H3 H 1.0479 0.3383 0.5659
C8 C 1.1410(4) 0.5036(10) 0.7048(4)
H4 H 1.1753 0.6080 0.6755
C9 C 1.1675(4) 0.5134(10) 0.8165(4)
H5 H 1.2174 0.6282 0.8600
C10 C 1.1216(4) 0.3583(10) 0.8620(4)
H6 H 1.1423 0.3653 0.9367
C11 C 1.0433(4) 0.1876(9) 0.7975(4)
O1B O 1.0850(3) 0.2730(6) 1.0627(2)
O2B O 1.1669(3) 0.4821(6) 1.2144(2)
H1B H 1.1701 0.5785 1.1716
O3B O 1.3154(3) 0.2747(6) 1.4198(2)
O4B O 1.1885(3) 0.4356(7) 1.4714(3)
N1B N 1.0045(3) -0.0278(7) 1.1580(3)
C1B C 1.1142(4) 0.3086(10) 1.1628(4)
C2B C 1.0784(4) 0.1281(9) 1.2225(4)
C3B C 1.1161(4) 0.1405(9) 1.3367(3)
C4B C 1.2086(4) 0.3037(9) 1.4138(4)
C5B C 1.0689(4) -0.0150(10) 1.3816(4)
H2B H 1.0916 -0.0114 1.4567
C6B C 0.9867(4) -0.1802(10) 1.3171(4)
C7B C 0.9343(4) -0.3427(10) 1.3601(4)
H3B H 0.9521 -0.3383 1.4341
C8B C 0.8590(4) -0.5036(10) 1.2952(4)
H4B H 0.8247 -0.6080 1.3245
C9B C 0.8325(4) -0.5134(10) 1.1835(4)
H5B H 0.7826 -0.6282 1.1400
C10B C 0.8784(4) -0.3583(10) 1.1380(4)
H6B H 0.8577 -0.3653 1.0633
C11B C 0.9567(4) -0.1876(9) 1.2025(4)
Zn1A Zn 0.5000 -0.5000 0.5000
Zn1A_2 Zn 1.5000 0.5000 1.5000
O3A O 0.8154(3) 0.2253(6) 0.9198(2)
O3C O 1.1846(3) -0.2253(6) 1.0802(2)
loop_
_geom_bond_atom_site_label_1
_geom_bond_atom_site_label_2
_geom_bond_site_symmetry_1
_geom_bond_site_symmetry_2
Zn1 O1 1_555 1_555
O1 C1 1_555 1_555
O2 H1 1_555 1_555
O3 C4 1_555 1_555
O4 C4 1_555 1_555
N1 Zn1 1_555 1_555
C1 O2 1_555 1_555
C2 N1 1_555 1_555
C3 C2 1_555 1_555
C4 C3 1_555 1_555
C5 C3 1_555 1_555
H2 C5 1_555 1_555
C6 C5 1_555 1_555
C7 C6 1_555 1_555
H3 C7 1_555 1_555
C8 C7 1_555 1_555
H4 C8 1_555 1_555
C9 C8 1_555 1_555
H5 C9 1_555 1_555
C10 C9 1_555 1_555
H6 C10 1_555 1_555
C11 N1 1_555 1_555
O1B Zn1 1_555 1_555
O2B H1B 1_555 1_555
O3B C4B 1_555 1_555
O4B C4B 1_555 1_555
N1B Zn1 1_555 1_555
C1B O1B 1_555 1_555
C2B N1B 1_555 1_555
C3B C2B 1_555 1_555
C4B C3B 1_555 1_555
C5B C3B 1_555 1_555
H2B C5B 1_555 1_555
C6B C5B 1_555 1_555
C7B C6B 1_555 1_555
H3B C7B 1_555 1_555
C8B C7B 1_555 1_555
H4B C8B 1_555 1_555
C9B C8B 1_555 1_555
H5B C9B 1_555 1_555
C10B C9B 1_555 1_555
H6B C10B 1_555 1_555
C11B N1B 1_555 1_555
Zn1A O3 1_555 1_555
Zn1A_2 O3B 1_555 1_555
O3A Zn1 1_555 1_555
O3C Zn1 1_555 1_555
C1 C2 1_555 1_555
C6 C11 1_555 1_555
C10 C11 1_555 1_555
O2B C1B 1_555 1_555
C1B C2B 1_555 1_555
C6B C11B 1_555 1_555
C10B C11B 1_555 1_555

#END
