
#######################################################################
#
#                 Cambridge Crystallographic Data Centre
#                                CCDC 
#
#######################################################################
#
# If this CIF has been generated from an entry in the Cambridge 
# Structural Database, then it will include bibliographic, chemical, 
# crystal, experimental, refinement or atomic coordinate data resulting 
# from the CCDC's data processing and validation procedures.
#
#######################################################################

data_TIBQEC
_symmetry_cell_setting           monoclinic
_symmetry_space_group_name_H-M   'C 2/c'
_symmetry_Int_Tables_number      15
_space_group_name_Hall           '-C 2yn'
loop_
_symmetry_equiv_pos_site_id
_symmetry_equiv_pos_as_xyz
1 x,y,z
2 -x,y,1/2-z
3 1/2+x,1/2+y,z
4 1/2-x,1/2+y,1/2-z
5 -x,-y,-z
6 x,-y,1/2+z
7 1/2-x,1/2-y,-z
8 1/2+x,1/2-y,1/2+z
_cell_length_a                   15.433(9)
_cell_length_b                   18.004(10)
_cell_length_c                   9.215(5)
_cell_angle_alpha                90
_cell_angle_beta                 91.158(8)
_cell_angle_gamma                90
_cell_volume                     2559.92
loop_
_atom_site_label
_atom_site_type_symbol
_atom_site_fract_x
_atom_site_fract_y
_atom_site_fract_z
Cd1 Cd 0.11498(3) 0.01137(2) 0.50290(6)
Cl1 Cl -0.01059(11) 0.09988(9) 0.4756(2)
O1 O 0.4019(3) 0.1816(2) 0.9378(5)
O2 O 0.4018(3) 0.0611(3) 0.9036(5)
O3 O 0.2225(3) 0.0714(2) 0.9194(5)
O4 O 0.1508(2) 0.0105(2) 0.7469(5)
N1 N 0.2268(3) 0.0987(2) 0.5414(5)
C1 C 0.2061(4) 0.0555(3) 0.7862(7)
C2 C 0.2616(4) 0.0971(3) 0.6766(8)
C3 C 0.3805(4) 0.1795(3) 0.6112(7)
H1 H 0.4318 0.2043 0.6347
C4 C 0.3421(4) 0.1363(3) 0.7117(7)
C5 C 0.3819(4) 0.1280(3) 0.8623(9)
C6 C 0.2643(4) 0.1431(3) 0.4468(7)
C7 C 0.2611(4) 0.1970(3) 0.2077(7)
H2 H 0.2332 0.2024 0.1179
C8 C 0.3435(4) 0.1868(3) 0.4729(7)
C9 C 0.2264(5) 0.1519(3) 0.3058(7)
H3 H 0.1763 0.1255 0.2814
C10 C 0.3788(5) 0.2340(3) 0.3714(8)
H4 H 0.4274 0.2622 0.3958
C11 C 0.3429(5) 0.2391(3) 0.2370(8)
H5 H 0.3681 0.2678 0.1654
C12 C 0.4219(5) 0.0577(4) 1.0732(9)
H6 H 0.4711 0.0885 1.0962
H7 H 0.4342 0.0074 1.1011
H8 H 0.3725 0.0753 1.1248
Cd1D Cd -0.11498(3) -0.01137(2) 0.49710(6)
Cd1E Cd 0.11498(3) -0.01137(2) 1.00290(6)
Cl1D Cl 0.01059(11) -0.09988(9) 0.5244(2)
O3E O 0.2225(3) -0.0714(2) 0.4194(5)
O4E O 0.1508(2) -0.0105(2) 0.2469(5)
loop_
_geom_bond_atom_site_label_1
_geom_bond_atom_site_label_2
_geom_bond_site_symmetry_1
_geom_bond_site_symmetry_2
Cd1 Cl1 1_555 1_555
Cl1 Cd1D 1_555 1_555
O1 C5 1_555 1_555
O2 C5 1_555 1_555
O3 C1 1_555 1_555
O4 Cd1 1_555 1_555
N1 Cd1 1_555 1_555
C1 O4 1_555 1_555
C2 N1 1_555 1_555
C3 H1 1_555 1_555
C4 C2 1_555 1_555
C5 C4 1_555 1_555
C6 N1 1_555 1_555
C7 H2 1_555 1_555
C8 C3 1_555 1_555
C9 C6 1_555 1_555
H3 C9 1_555 1_555
C10 C8 1_555 1_555
H4 C10 1_555 1_555
C11 C7 1_555 1_555
H5 C11 1_555 1_555
C12 O2 1_555 1_555
H6 C12 1_555 1_555
H7 C12 1_555 1_555
H8 C12 1_555 1_555
Cd1D Cl1D 1_555 1_555
Cd1E O3 1_555 1_555
Cl1D Cd1 1_555 1_555
O3E Cd1 1_555 1_555
O4E Cd1 1_555 1_555
O4 Cd1E 1_555 1_555
C1 C2 1_555 1_555
C3 C4 1_555 1_555
C6 C8 1_555 1_555
C7 C9 1_555 1_555
C10 C11 1_555 1_555

#END
