
#######################################################################
#
#                 Cambridge Crystallographic Data Centre
#                                CCDC 
#
#######################################################################
#
# If this CIF has been generated from an entry in the Cambridge 
# Structural Database, then it will include bibliographic, chemical, 
# crystal, experimental, refinement or atomic coordinate data resulting 
# from the CCDC's data processing and validation procedures.
#
#######################################################################

data_TIBRIH
_symmetry_cell_setting           triclinic
_symmetry_space_group_name_H-M   'P -1'
_symmetry_Int_Tables_number      2
_space_group_name_Hall           '-P 1'
loop_
_symmetry_equiv_pos_site_id
_symmetry_equiv_pos_as_xyz
1 x,y,z
2 -x,-y,-z
_cell_length_a                   12.030(5)
_cell_length_b                   13.925(5)
_cell_length_c                   22.761(5)
_cell_angle_alpha                95.882(5)
_cell_angle_beta                 104.850(5)
_cell_angle_gamma                104.044(5)
_cell_volume                     3519.8
loop_
_atom_site_label
_atom_site_type_symbol
_atom_site_fract_x
_atom_site_fract_y
_atom_site_fract_z
C1 C 1.285(3) 0.845(2) 0.7438(14)
C2 C 1.186(3) 0.785(2) 0.6828(13)
C3 C 0.639(3) 1.139(2) 1.0128(15)
C4 C 0.720(3) 1.084(2) 1.0122(13)
C5 C 0.446(3) 1.160(2) 0.9704(14)
H1 H 0.3724 1.1355 0.9402
C6 C 0.519(2) 0.853(2) 0.5482(14)
C7 C 0.598(3) 0.952(2) 0.5544(14)
C8 C 0.811(2) 0.8306(19) 0.7548(13)
C9 C 0.795(3) 0.740(2) 0.7077(14)
C10 C 0.720(2) 0.728(3) 0.6500(15)
H2 H 0.6881 0.7796 0.6384
C11 C 0.689(3) 0.638(2) 0.6070(15)
H3 H 0.6329 0.6288 0.5686
C12 C 0.814(3) 0.580(2) 0.6782(17)
H4 H 0.8472 0.5279 0.6883
C13 C 0.671(3) 0.964(3) 0.5164(17)
H5 H 0.6642 0.9093 0.4872
C14 C 0.748(4) 1.048(3) 0.5193(19)
H6 H 0.7950 1.0517 0.4923
C15 C 0.693(3) 1.124(3) 0.5982(18)
H7 H 0.6996 1.1820 0.6244
C16 C 0.608(3) 1.032(3) 0.600(2)
H8 H 0.5642 1.0266 0.6284
C17 C 1.134(3) 0.667(2) 0.5875(16)
H9 H 1.1493 0.6198 0.5605
C18 C 1.225(3) 0.718(2) 0.6466(15)
H10 H 1.3001 0.7079 0.6588
C19 C 1.082(3) 0.804(2) 0.6684(15)
H11 H 1.0639 0.8475 0.6962
C20 C 0.893(4) 1.473(2) 1.0495(17)
H12 H 0.9482 1.4665 1.0847
C21 C 0.665(3) 1.226(2) 1.0578(15)
H13 H 0.7378 1.2489 1.0889
C22 C 0.578(3) 1.276(3) 1.0534(17)
H14 H 0.5961 1.3345 1.0818
C23 C 0.521(3) 1.110(2) 0.9720(14)
H15 H 0.4969 1.0503 0.9442
C24 C 0.850(3) 0.667(2) 0.7252(17)
H16 H 0.9042 0.6733 0.7637
C25 C 0.999(3) 0.760(3) 0.6122(18)
H17 H 0.9268 0.7762 0.6000
C26 C 0.733(4) 1.487(3) 0.949(2)
H18 H 0.6680 1.4843 0.9164
C27 C 0.795(4) 1.418(3) 0.945(2)
H19 H 0.7899 1.3823 0.9070
C28 C 0.845(4) 1.554(3) 1.054(2)
H20 H 0.8670 1.6002 1.0901
C29 C 0.866(3) 1.405(2) 0.9999(17)
C30 C 0.914(4) 1.321(3) 0.996(2)
N1 N 0.763(3) 1.130(2) 0.5605(14)
N2 N 0.478(3) 0.8152(18) 0.5930(12)
N3 N 0.402(2) 0.724(2) 0.5640(13)
N4 N 0.473(2) 0.7866(18) 0.4939(12)
N5 N 1.359(2) 0.9285(18) 0.8344(13)
N6 N 1.3990(19) 0.8637(16) 0.7532(10)
N7 N 1.027(2) 0.690(2) 0.5739(13)
N8 N 0.465(3) 1.246(2) 1.0101(14)
N9 N 0.708(2) 1.0150(16) 0.9610(10)
N10 N 0.801(2) 0.9763(16) 0.9756(12)
N11 N 0.742(3) 0.5659(19) 0.6235(12)
N12 N 0.721(2) 0.8685(17) 0.7544(11)
N13 N 0.967(2) 1.1931(19) 0.9679(13)
N14 N 1.039(3) 1.235(2) 1.0253(17)
N15 N 0.905(2) 0.8715(17) 0.8011(12)
N16 N 0.876(2) 0.9425(17) 0.8348(10)
N17 N 1.260(2) 0.883(2) 0.7947(12)
N18 N 0.761(2) 0.9402(18) 0.8066(11)
N19 N 0.764(3) 1.561(2) 1.002(2)
N20 N 1.005(3) 1.315(2) 1.0425(17)
N21 N 0.898(3) 1.252(2) 0.9499(16)
O1 O 0.9100(19) 1.1525(14) 0.7063(9)
O2 O 1.1666(18) 1.0533(13) 0.6844(10)
O3 O 1.0102(17) 1.1216(14) 0.6128(9)
O4 O 1.1369(17) 1.2432(13) 0.7352(11)
O5 O 0.9735(18) 1.2659(13) 0.5494(9)
O6 O 1.1756(18) 1.3169(14) 0.6355(9)
O7 O 0.912(2) 1.4439(15) 0.5729(11)
O8 O 1.3401(17) 1.2484(13) 0.7082(9)
O9 O 1.2979(16) 1.4154(13) 0.7513(9)
O10 O 1.1355(19) 1.4421(15) 0.5636(9)
O11 O 1.1075(18) 1.4903(14) 0.6751(10)
O12 O 1.4629(19) 1.4897(15) 0.9294(9)
O13 O 1.4736(15) 1.3521(14) 0.8341(9)
O14 O 1.1784(19) 1.2780(13) 0.5240(9)
O15 O 1.4050(19) 1.0934(16) 0.7384(10)
O16 O 1.3987(18) 1.3368(14) 0.6068(9)
O17 O 1.2840(18) 1.5297(15) 0.8430(10)
O18 O 1.5582(18) 1.1795(16) 0.8538(9)
O19 O 1.0326(17) 1.2520(13) 0.8189(9)
O20 O 1.3533(18) 1.5055(15) 0.6474(9)
O21 O 1.5671(19) 1.2682(15) 0.7522(10)
O22 O 1.0702(19) 1.4175(15) 0.7719(10)
O23 O 1.4951(19) 1.5409(14) 0.8182(10)
O24 O 1.1773(18) 1.1683(15) 0.9015(9)
O25 O 1.311(2) 0.9685(16) 0.6248(11)
O26 O 1.554(2) 1.6477(14) 0.7328(10)
O27 O 1.134(2) 1.6315(16) 0.7818(11)
O28 O 0.835(2) 1.3084(18) 0.7567(13)
O29 O 1.3289(17) 1.6066(14) 0.7462(9)
O30 O 1.635(2) 1.3315(15) 0.6518(11)
O31 O 1.307(2) 1.1704(15) 0.8182(10)
O32 O 1.2669(19) 1.3400(15) 0.8570(9)
O33 O 1.0746(19) 1.0773(14) 0.7776(10)
O34 O 0.9199(18) 0.9564(14) 0.6658(11)
O35 O 1.002(2) 1.0997(14) 0.4859(10)
O36 O 0.953(2) 1.3219(14) 0.6628(11)
O37 O 1.2147(19) 1.1276(15) 0.5909(10)
O38 O 1.5174(18) 1.4365(15) 0.7176(11)
O39 O 1.445(2) 1.1656(13) 0.6400(10)
O40 O 1.338(2) 1.4624(17) 0.5213(10)
Si1 Si 1.2365(6) 1.3058(5) 0.7058(3)
Ag1 Ag 0.6851(3) 0.42522(17) 0.55940(12)
Ag2 Ag 0.5247(2) 0.8456(2) 0.69736(12)
Ag3 Ag 0.9858(2) 1.05696(18) 0.91618(13)
Ag4 Ag 1.0989(2) 0.8810(2) 0.82476(13)
Ag5 Ag 0.6396(2) 1.0057(3) 0.85557(13)
Ag6 Ag 0.3499(3) 1.3392(2) 1.00162(15)
W1 W 1.50808(12) 1.30613(9) 0.67359(6)
W2 W 1.17153(12) 1.20035(10) 0.83129(6)
W3 W 1.30380(12) 1.08340(9) 0.65690(6)
W4 W 1.02215(12) 1.39322(9) 0.60689(6)
W5 W 1.08244(13) 1.17979(9) 0.55458(6)
W6 W 1.44724(12) 1.54142(9) 0.73157(6)
W7 W 1.18782(13) 1.53571(9) 0.76374(6)
W8 W 0.96629(12) 1.29183(10) 0.74301(6)
W9 W 1.01664(12) 1.07563(9) 0.68865(6)
W10 W 1.28389(12) 1.40447(9) 0.57552(6)
W11 W 1.39320(12) 1.44570(10) 0.85385(6)
W12 W 1.45890(12) 1.21443(10) 0.79881(6)
Ag7 Ag 0.8133(4) 0.8292(3) 0.93425(17)
K1 K 0.7885(6) 1.2019(5) 0.8458(3)
N22 N 0.401(3) 0.7073(18) 0.5060(13)
N23 N 1.445(2) 0.917(2) 0.8113(12)
N24 N 0.866(3) 1.0147(18) 1.0353(14)
N25 N 0.814(2) 1.0783(18) 1.0591(13)
N6_2 N 0.3990(19) 0.8637(16) 0.7532(10)
N14A N 0.961(3) 0.765(2) 0.9747(17)
N19A N 0.236(3) 1.439(2) 0.998(2)
O7_2 O 0.912(2) 0.4439(15) 0.5729(11)
O18_2 O 0.5582(18) 1.1795(16) 0.8538(9)
O21_2 O 0.5671(19) 1.2682(15) 0.7522(10)
O30_2 O 0.635(2) 0.3315(15) 0.6518(11)
O40A O 0.662(2) 0.5376(17) 0.4787(10)
Ag1_2 Ag 0.6851(3) 1.42522(17) 0.55940(12)
Ag1_3 Ag 1.6851(3) 1.42522(17) 0.55940(12)
Ag1A Ag 0.3149(3) 0.57478(17) 0.44060(12)
Ag1A_2 Ag 1.3149(3) 1.57478(17) 0.44060(12)
Ag2_2 Ag 1.5247(2) 0.8456(2) 0.69736(12)
Ag3A Ag 1.0142(2) 0.94304(18) 1.08382(13)
Ag4A Ag 0.9011(2) 1.1190(2) 1.17524(13)
Ag5_2 Ag 1.6396(2) 1.0057(3) 0.85557(13)
Ag6A Ag 0.6501(3) 1.6608(2) 0.99838(15)
Ag7A Ag 1.1867(4) 1.1708(3) 1.06575(17)
K1_2 K 1.7885(6) 1.2019(5) 0.8458(3)
N22A N 0.599(3) 0.2927(18) 0.4940(13)
N23_2 N 0.445(2) 0.917(2) 0.8113(12)
N24A N 1.134(3) 0.9853(18) 0.9647(14)
N25A N 1.186(2) 0.9217(18) 0.9409(13)
loop_
_geom_bond_atom_site_label_1
_geom_bond_atom_site_label_2
_geom_bond_site_symmetry_1
_geom_bond_site_symmetry_2
C1 C2 1_555 1_555
C2 C18 1_555 1_555
C3 C4 1_555 1_555
C4 N9 1_555 1_555
C5 H1 1_555 1_555
C6 C7 1_555 1_555
C7 C13 1_555 1_555
C8 C9 1_555 1_555
C9 C10 1_555 1_555
C10 H2 1_555 1_555
C11 C10 1_555 1_555
H3 C11 1_555 1_555
C12 H4 1_555 1_555
C13 H5 1_555 1_555
C14 C13 1_555 1_555
H6 C14 1_555 1_555
C15 H7 1_555 1_555
C16 C7 1_555 1_555
H8 C16 1_555 1_555
C17 H9 1_555 1_555
C18 C17 1_555 1_555
H10 C18 1_555 1_555
C19 C2 1_555 1_555
H11 C19 1_555 1_555
C20 H12 1_555 1_555
C21 C3 1_555 1_555
H13 C21 1_555 1_555
C22 C21 1_555 1_555
H14 C22 1_555 1_555
C23 C3 1_555 1_555
H15 C23 1_555 1_555
C24 C9 1_555 1_555
H16 C24 1_555 1_555
C25 C19 1_555 1_555
H17 C25 1_555 1_555
C26 H18 1_555 1_555
C27 C26 1_555 1_555
H19 C27 1_555 1_555
C28 C20 1_555 1_555
H20 C28 1_555 1_555
C29 C20 1_555 1_555
C30 C29 1_555 1_555
N1 C14 1_555 1_555
N2 C6 1_555 1_555
N3 N2 1_555 1_555
N4 C6 1_555 1_555
N5 N17 1_555 1_555
N6 C1 1_555 1_555
N7 C17 1_555 1_555
N8 C5 1_555 1_555
N9 N10 1_555 1_555
N10 Ag7 1_555 1_555
N11 C11 1_555 1_555
N12 C8 1_555 1_555
N13 N14 1_555 1_555
N14 N20 1_555 1_555
N15 C8 1_555 1_555
N16 N15 1_555 1_555
N17 C1 1_555 1_555
N18 N12 1_555 1_555
N19 C26 1_555 1_555
N20 C30 1_555 1_555
N21 C30 1_555 1_555
O1 W8 1_555 1_555
O2 W3 1_555 1_555
O3 W5 1_555 1_555
O4 Si1 1_555 1_555
O5 W4 1_555 1_555
O6 Si1 1_555 1_555
O7 W4 1_555 1_555
O8 Si1 1_555 1_555
O9 Si1 1_555 1_555
O10 W4 1_555 1_555
O11 W4 1_555 1_555
O12 W11 1_555 1_555
O13 W11 1_555 1_555
O14 W5 1_555 1_555
O15 W3 1_555 1_555
O16 W1 1_555 1_555
O17 W7 1_555 1_555
O18 W12 1_555 1_555
O19 W2 1_555 1_555
O20 W6 1_555 1_555
O21 W1 1_555 1_555
O22 W7 1_555 1_555
O23 W6 1_555 1_555
O24 Ag3 1_555 1_555
O25 W3 1_555 1_555
O26 W6 1_555 1_555
O27 W7 1_555 1_555
O28 W8 1_555 1_555
O29 W6 1_555 1_555
O30 W1 1_555 1_555
O31 W2 1_555 1_555
O32 W2 1_555 1_555
O33 W2 1_555 1_555
O34 W9 1_555 1_555
O35 W5 1_555 1_555
O36 W4 1_555 1_555
O37 W3 1_555 1_555
O38 W1 1_555 1_555
O39 W1 1_555 1_555
O40 W10 1_555 1_555
Ag1 N11 1_555 1_555
Ag2 N2 1_555 1_555
Ag3 N13 1_555 1_555
Ag4 N15 1_555 1_555
Ag5 N9 1_555 1_555
Ag6 N8 1_555 1_555
W1 O8 1_555 1_555
W2 O4 1_555 1_555
W3 O8 1_555 1_555
W4 O6 1_555 1_555
W5 O5 1_555 1_555
W6 O9 1_555 1_555
W7 O9 1_555 1_555
W8 O4 1_555 1_555
W9 O1 1_555 1_555
W10 O6 1_555 1_555
W11 O9 1_555 1_555
W12 O8 1_555 1_555
Ag7 N14A 1_555 1_555
K1 N21 1_555 1_555
N22 N3 1_555 1_555
N23 N5 1_555 1_555
N24 N10 1_555 1_555
N25 C4 1_555 1_555
N6_2 Ag2 1_555 1_555
N19A Ag6 1_555 1_555
O7_2 Ag1 1_555 1_555
O18_2 K1 1_555 1_555
O21_2 K1 1_555 1_555
O30_2 Ag1 1_555 1_555
O40A Ag1 1_555 1_555
Ag1_2 O7 1_555 1_555
Ag1_3 O30 1_555 1_555
Ag1A N22 1_555 1_555
Ag1A_2 O40 1_555 1_555
Ag2_2 N6 1_555 1_555
Ag3A N24 1_555 1_555
Ag4A N25 1_555 1_555
Ag5_2 N23 1_555 1_555
Ag6A N19 1_555 1_555
Ag7A N14 1_555 1_555
K1_2 O18 1_555 1_555
N22A Ag1 1_555 1_555
N23_2 Ag5 1_555 1_555
N24A Ag3 1_555 1_555
N25A Ag4 1_555 1_555
C5 C23 1_555 1_555
C12 C24 1_555 1_555
C12 N11 1_555 1_555
C15 C16 1_555 1_555
C15 N1 1_555 1_555
C22 N8 1_555 1_555
C25 N7 1_555 1_555
C27 C29 1_555 1_555
C28 N19 1_555 1_555
N4 N22 1_555 1_555
N6 N23 1_555 1_555
N12 Ag2 1_555 1_555
N13 N21 1_555 1_555
N16 N18 1_555 1_555
N16 Ag3 1_555 1_555
N17 Ag4 1_555 1_555
N18 Ag5 1_555 1_555
O2 W9 1_555 1_555
O3 W9 1_555 1_555
O4 W9 1_555 1_555
O6 W5 1_555 1_555
O10 W10 1_555 1_555
O11 W7 1_555 1_555
O13 W12 1_555 1_555
O14 W10 1_555 1_555
O15 W12 1_555 1_555
O16 W10 1_555 1_555
O17 W11 1_555 1_555
O19 W8 1_555 1_555
O19 K1 1_555 1_555
O20 W10 1_555 1_555
O21 W12 1_555 1_555
O21 K1_2 1_555 1_555
O22 W8 1_555 1_555
O23 W11 1_555 1_555
O24 W2 1_555 1_555
O28 K1 1_555 1_555
O29 W7 1_555 1_555
O31 W12 1_555 1_555
O32 W11 1_555 1_555
O33 W9 1_555 1_555
O36 W8 1_555 1_555
O37 W5 1_555 1_555
O38 W6 1_555 1_555
O39 W3 1_555 1_555
Ag5 K1 1_555 1_555
N24 N25 1_555 1_555
N6_2 N23_2 1_555 1_555
Ag5_2 K1_2 1_555 1_555
N24A N25A 1_555 1_555

#END
