
#######################################################################
#
#                 Cambridge Crystallographic Data Centre
#                                CCDC 
#
#######################################################################
#
# If this CIF has been generated from an entry in the Cambridge 
# Structural Database, then it will include bibliographic, chemical, 
# crystal, experimental, refinement or atomic coordinate data resulting 
# from the CCDC's data processing and validation procedures.
#
#######################################################################

data_TICMIC
_symmetry_cell_setting           monoclinic
_symmetry_space_group_name_H-M   'C 2/c'
_symmetry_Int_Tables_number      15
_space_group_name_Hall           '-C 2yn'
loop_
_symmetry_equiv_pos_site_id
_symmetry_equiv_pos_as_xyz
1 x,y,z
2 1/2+x,1/2+y,z
3 -x,y,1/2-z
4 1/2-x,1/2+y,1/2-z
5 -x,-y,-z
6 1/2-x,1/2-y,-z
7 x,-y,1/2+z
8 1/2+x,1/2-y,1/2+z
_cell_length_a                   22.7976(9)
_cell_length_b                   11.4024(4)
_cell_length_c                   9.6465(4)
_cell_angle_alpha                90
_cell_angle_beta                 97.3590(14)
_cell_angle_gamma                90
_cell_volume                     2486.93
loop_
_atom_site_label
_atom_site_type_symbol
_atom_site_fract_x
_atom_site_fract_y
_atom_site_fract_z
Co1 Co 0.0000 0.02575(3) 0.7500
Cl1 Cl -0.17802(5) 0.58772(9) 0.96290(11)
N1 N 0.0000 -0.1646(2) 0.7500
N2 N 0.0000 -0.7850(2) 0.7500
O1 O -0.07745(8) 0.02956(14) 0.85054(15)
O2 O -0.19170(9) 0.0772(2) 0.8923(2)
O3 O -0.05704(8) -0.03552(14) 1.06863(15)
C1 C -0.09104(10) 0.00128(16) 0.9672(2)
C2 C -0.15648(13) 0.0016(3) 0.9852(3)
H1 H -0.1716 -0.0777 0.9719
H2 H -0.1605 0.0246 1.0804
C3 C -0.18550(12) 0.1945(3) 0.9154(3)
C4 C -0.15315(14) 0.2452(3) 1.0308(3)
H3 H -0.1323 0.1982 1.0989
C5 C -0.15180(15) 0.3653(3) 1.0452(3)
H4 H -0.1305 0.3990 1.1239
C6 C -0.18141(14) 0.4352(3) 0.9451(3)
C7 C -0.21334(15) 0.3880(3) 0.8276(3)
H5 H -0.2332 0.4360 0.7591
C8 C -0.21519(14) 0.2677(3) 0.8143(3)
H6 H -0.2368 0.2345 0.7358
C9 C -0.04902(11) -0.72466(18) 0.7609(3)
H7 H -0.0839 -0.7659 0.7663
C10 C -0.05072(12) -0.60311(19) 0.7647(3)
H8 H -0.0855 -0.5643 0.7770
C11 C 0.0000 -0.5405(2) 0.7500
C12 C 0.0000 -0.4100(2) 0.7500
C13 C -0.01731(13) -0.34701(19) 0.8602(2)
H9 H -0.0302 -0.3858 0.9355
C14 C -0.01538(13) -0.22602(19) 0.8576(2)
H10 H -0.0253 -0.1852 0.9348
Co1_2 Co 0.0000 -0.97425(3) 0.7500
Co1F Co 0.0000 -0.02575(3) 1.2500
Co1F_2 Co 0.0000 -0.02575(3) 0.2500
Cl1B Cl 0.17802(5) 0.58772(9) 0.53710(11)
N2_2 N 0.0000 0.2150(2) 0.7500
O1B O 0.07745(8) 0.02956(14) 0.64946(15)
O2B O 0.19170(9) 0.0772(2) 0.6077(2)
O3B O 0.05704(8) -0.03552(14) 0.43137(15)
O3F O -0.05704(8) 0.03552(14) 0.56863(15)
O3D O 0.05704(8) 0.03552(14) 0.93137(15)
C1B C 0.09104(10) 0.00128(16) 0.5328(2)
C2B C 0.15648(13) 0.0016(3) 0.5148(3)
H1B H 0.1716 -0.0777 0.5281
H2B H 0.1605 0.0246 0.4196
C3B C 0.18550(12) 0.1945(3) 0.5846(3)
C4B C 0.15315(14) 0.2452(3) 0.4692(3)
H3B H 0.1323 0.1982 0.4011
C5B C 0.15180(15) 0.3653(3) 0.4548(3)
H4B H 0.1305 0.3990 0.3761
C6B C 0.18141(14) 0.4352(3) 0.5549(3)
C7B C 0.21334(15) 0.3880(3) 0.6724(3)
H5B H 0.2332 0.4360 0.7409
C8B C 0.21519(14) 0.2677(3) 0.6857(3)
H6B H 0.2368 0.2345 0.7642
C9B C 0.04902(11) -0.72466(18) 0.7391(3)
H7B H 0.0839 -0.7659 0.7337
C10B C 0.05072(12) -0.60311(19) 0.7353(3)
H8B H 0.0855 -0.5643 0.7230
C13B C 0.01731(13) -0.34701(19) 0.6398(2)
H9B H 0.0302 -0.3858 0.5645
C14B C 0.01538(13) -0.22602(19) 0.6424(2)
H10B H 0.0253 -0.1852 0.5652
loop_
_geom_bond_atom_site_label_1
_geom_bond_atom_site_label_2
_geom_bond_site_symmetry_1
_geom_bond_site_symmetry_2
Co1 N1 1_555 1_555
Cl1 C6 1_555 1_555
N1 C14 1_555 1_555
N2 C9 1_555 1_555
O1 Co1 1_555 1_555
O2 C2 1_555 1_555
O3 C1 1_555 1_555
C1 O1 1_555 1_555
C2 C1 1_555 1_555
H1 C2 1_555 1_555
H2 C2 1_555 1_555
C3 O2 1_555 1_555
C4 C3 1_555 1_555
H3 C4 1_555 1_555
C5 C4 1_555 1_555
H4 C5 1_555 1_555
C6 C5 1_555 1_555
C7 C6 1_555 1_555
H5 C7 1_555 1_555
C8 C3 1_555 1_555
H6 C8 1_555 1_555
C9 H7 1_555 1_555
C10 C9 1_555 1_555
H8 C10 1_555 1_555
C11 C10 1_555 1_555
C12 C11 1_555 1_555
C13 C12 1_555 1_555
H9 C13 1_555 1_555
C14 C13 1_555 1_555
H10 C14 1_555 1_555
Co1_2 N2 1_555 1_555
Co1F O3 1_555 1_555
Co1F_2 O3B 1_555 1_555
Cl1B C6B 1_555 1_555
N2_2 Co1 1_555 1_555
O1B Co1 1_555 1_555
O2B C2B 1_555 1_555
O3B C1B 1_555 1_555
O3F Co1 1_555 1_555
O3D Co1 1_555 1_555
C1B O1B 1_555 1_555
C2B C1B 1_555 1_555
H1B C2B 1_555 1_555
H2B C2B 1_555 1_555
C3B O2B 1_555 1_555
C4B C3B 1_555 1_555
H3B C4B 1_555 1_555
C5B C4B 1_555 1_555
H4B C5B 1_555 1_555
C6B C5B 1_555 1_555
C7B C6B 1_555 1_555
H5B C7B 1_555 1_555
C8B C3B 1_555 1_555
H6B C8B 1_555 1_555
C9B N2 1_555 1_555
H7B C9B 1_555 1_555
C10B C11 1_555 1_555
H8B C10B 1_555 1_555
C13B C12 1_555 1_555
H9B C13B 1_555 1_555
C14B N1 1_555 1_555
H10B C14B 1_555 1_555
C7 C8 1_555 1_555
C7B C8B 1_555 1_555
C9B C10B 1_555 1_555
C13B C14B 1_555 1_555

#END
