
#######################################################################
#
#                 Cambridge Crystallographic Data Centre
#                                CCDC 
#
#######################################################################
#
# If this CIF has been generated from an entry in the Cambridge 
# Structural Database, then it will include bibliographic, chemical, 
# crystal, experimental, refinement or atomic coordinate data resulting 
# from the CCDC's data processing and validation procedures.
#
#######################################################################

data_TICMOI
_symmetry_cell_setting           monoclinic
_symmetry_space_group_name_H-M   'C 2/c'
_symmetry_Int_Tables_number      15
_space_group_name_Hall           '-C 2yn'
loop_
_symmetry_equiv_pos_site_id
_symmetry_equiv_pos_as_xyz
1 x,y,z
2 1/2+x,1/2+y,z
3 -x,y,1/2-z
4 1/2-x,1/2+y,1/2-z
5 -x,-y,-z
6 1/2-x,1/2-y,-z
7 x,-y,1/2+z
8 1/2+x,1/2-y,1/2+z
_cell_length_a                   12.1647(6)
_cell_length_b                   11.1768(4)
_cell_length_c                   18.2290(9)
_cell_angle_alpha                90
_cell_angle_beta                 102.7870(14)
_cell_angle_gamma                90
_cell_volume                     2416.99
loop_
_atom_site_label
_atom_site_type_symbol
_atom_site_fract_x
_atom_site_fract_y
_atom_site_fract_z
Cu1 Cu 0.5000 0.29116(4) 0.2500
Cl1 Cl 0.82910(8) 0.47040(8) -0.04508(5)
N1 N 0.5000 0.1073(2) 0.2500
N2 N 0.5000 -0.5262(2) 0.2500
O1 O 0.34128(13) 0.28594(15) 0.20325(9)
O2 O 0.20704(16) 0.2278(2) 0.10777(11)
O3 O 0.49590(13) 0.28753(17) 0.11648(9)
C1 C 0.3041(2) 0.2581(2) 0.13393(15)
C2 C 0.3815(2) 0.2649(3) 0.07897(14)
H1 H 0.3777 0.1900 0.0516
H2 H 0.3557 0.3281 0.0428
C3 C 0.5701(2) 0.3277(2) 0.07416(14)
C4 C 0.5411(2) 0.3458(3) -0.00293(15)
H3 H 0.4687 0.3287 -0.0300
C5 C 0.6216(3) 0.3898(3) -0.03907(16)
H4 H 0.6028 0.4038 -0.0906
C6 C 0.7284(2) 0.4127(3) 0.00080(17)
C7 C 0.7588(2) 0.3921(3) 0.07696(17)
H5 H 0.8319 0.4073 0.1035
C8 C 0.6791(2) 0.3483(3) 0.11347(15)
H6 H 0.6990 0.3327 0.1648
C9 C 0.4321(2) 0.0452(2) 0.28469(16)
H7 H 0.3839 0.0871 0.3086
C10 C 0.4304(2) -0.0786(2) 0.28652(15)
H8 H 0.3830 -0.1183 0.3120
C11 C 0.5000 -0.1431(3) 0.2500
C12 C 0.5000 -0.2758(3) 0.2500
C13 C 0.4041(2) -0.3405(2) 0.25487(15)
H9 H 0.3384 -0.3010 0.2589
C14 C 0.4073(2) -0.4635(2) 0.25369(15)
H10 H 0.3419 -0.5053 0.2555
Cu1_2 Cu 0.5000 -0.70884(4) 0.2500
Cl1B Cl 0.17090(8) 0.47040(8) 0.54508(5)
N2_2 N 0.5000 0.4738(2) 0.2500
O1B O 0.65872(13) 0.28594(15) 0.29675(9)
O2B O 0.79296(16) 0.2278(2) 0.39223(11)
O3B O 0.50410(13) 0.28753(17) 0.38352(9)
C1B C 0.6959(2) 0.2581(2) 0.36607(15)
C2B C 0.6185(2) 0.2649(3) 0.42103(14)
H1B H 0.6223 0.1900 0.4484
H2B H 0.6443 0.3281 0.4572
C3B C 0.4299(2) 0.3277(2) 0.42584(14)
C4B C 0.4589(2) 0.3458(3) 0.50293(15)
H3B H 0.5313 0.3287 0.5300
C5B C 0.3784(3) 0.3898(3) 0.53907(16)
H4B H 0.3972 0.4038 0.5906
C6B C 0.2716(2) 0.4127(3) 0.49920(17)
C7B C 0.2412(2) 0.3921(3) 0.42304(17)
H5B H 0.1681 0.4073 0.3965
C8B C 0.3209(2) 0.3483(3) 0.38653(15)
H6B H 0.3010 0.3327 0.3352
C9B C 0.5679(2) 0.0452(2) 0.21531(16)
H7B H 0.6161 0.0871 0.1914
C10B C 0.5696(2) -0.0786(2) 0.21348(15)
H8B H 0.6170 -0.1183 0.1880
C13B C 0.5959(2) -0.3405(2) 0.24513(15)
H9B H 0.6616 -0.3010 0.2411
C14B C 0.5927(2) -0.4635(2) 0.24631(15)
H10B H 0.6581 -0.5053 0.2445
loop_
_geom_bond_atom_site_label_1
_geom_bond_atom_site_label_2
_geom_bond_site_symmetry_1
_geom_bond_site_symmetry_2
Cu1 N1 1_555 1_555
Cl1 C6 1_555 1_555
N1 C9 1_555 1_555
N2 C14 1_555 1_555
O1 Cu1 1_555 1_555
O2 C1 1_555 1_555
O3 Cu1 1_555 1_555
C1 O1 1_555 1_555
C2 O3 1_555 1_555
H1 C2 1_555 1_555
H2 C2 1_555 1_555
C3 O3 1_555 1_555
C4 C3 1_555 1_555
H3 C4 1_555 1_555
C5 C4 1_555 1_555
H4 C5 1_555 1_555
C6 C5 1_555 1_555
C7 C6 1_555 1_555
H5 C7 1_555 1_555
C8 C3 1_555 1_555
H6 C8 1_555 1_555
C9 H7 1_555 1_555
C10 C9 1_555 1_555
H8 C10 1_555 1_555
C11 C10 1_555 1_555
C12 C11 1_555 1_555
C13 C12 1_555 1_555
H9 C13 1_555 1_555
C14 C13 1_555 1_555
H10 C14 1_555 1_555
Cu1_2 N2 1_555 1_555
Cl1B C6B 1_555 1_555
N2_2 Cu1 1_555 1_555
O1B Cu1 1_555 1_555
O2B C1B 1_555 1_555
O3B Cu1 1_555 1_555
C1B O1B 1_555 1_555
C2B O3B 1_555 1_555
H1B C2B 1_555 1_555
H2B C2B 1_555 1_555
C3B O3B 1_555 1_555
C4B C3B 1_555 1_555
H3B C4B 1_555 1_555
C5B C4B 1_555 1_555
H4B C5B 1_555 1_555
C6B C5B 1_555 1_555
C7B C6B 1_555 1_555
H5B C7B 1_555 1_555
C8B C3B 1_555 1_555
H6B C8B 1_555 1_555
C9B N1 1_555 1_555
H7B C9B 1_555 1_555
C10B C11 1_555 1_555
H8B C10B 1_555 1_555
C13B C12 1_555 1_555
H9B C13B 1_555 1_555
C14B N2 1_555 1_555
H10B C14B 1_555 1_555
C1 C2 1_555 1_555
C7 C8 1_555 1_555
C1B C2B 1_555 1_555
C7B C8B 1_555 1_555
C9B C10B 1_555 1_555
C13B C14B 1_555 1_555

#END
