
#######################################################################
#
#                 Cambridge Crystallographic Data Centre
#                                CCDC 
#
#######################################################################
#
# If this CIF has been generated from an entry in the Cambridge 
# Structural Database, then it will include bibliographic, chemical, 
# crystal, experimental, refinement or atomic coordinate data resulting 
# from the CCDC's data processing and validation procedures.
#
#######################################################################

data_TICQIH
_symmetry_cell_setting           monoclinic
_symmetry_space_group_name_H-M   'P 21/c'
_symmetry_Int_Tables_number      14
_space_group_name_Hall           '-P 2ybc'
loop_
_symmetry_equiv_pos_site_id
_symmetry_equiv_pos_as_xyz
1 x,y,z
2 -x,1/2+y,1/2-z
3 -x,-y,-z
4 x,1/2-y,1/2+z
_cell_length_a                   8.8709(18)
_cell_length_b                   30.672(6)
_cell_length_c                   13.972(3)
_cell_angle_alpha                90
_cell_angle_beta                 117.065(10)
_cell_angle_gamma                90
_cell_volume                     3385.31
loop_
_atom_site_label
_atom_site_type_symbol
_atom_site_fract_x
_atom_site_fract_y
_atom_site_fract_z
Pb1 Pb -0.19628(7) -0.341315(17) 0.18157(4)
Pb2 Pb 0.41408(8) -0.192569(18) 0.12887(5)
Pb3 Pb -0.35416(7) -0.490581(17) 0.17136(4)
Pb4 Pb 0.22060(8) -0.435456(19) 0.51583(5)
Cl1 Cl 0.1515(7) -0.36647(16) 0.3930(4)
O1 O -0.0128(13) -0.3820(3) 0.1235(8)
O2 O 0.2270(14) -0.3882(3) 0.1121(9)
H1 H 0.2917 -0.3722 0.1014
O3 O 0.4544(14) -0.3391(3) 0.1264(10)
O4 O 0.5256(13) -0.2686(3) 0.1501(9)
O5 O -0.3280(13) -0.4111(3) 0.1106(7)
O6 O -0.5094(17) -0.4484(3) -0.0254(8)
O7 O -0.6706(15) -0.4370(3) -0.2544(8)
O8 O -0.7275(12) -0.3757(3) -0.3483(7)
O9 O -0.1424(14) -0.4623(4) 0.3494(9)
O10 O -0.0858(14) -0.4289(4) 0.4995(8)
O11 O -0.2231(14) -0.4093(4) 0.6131(9)
H2 H -0.1743 -0.4164 0.5777
O12 O -0.4794(13) -0.4104(4) 0.5981(8)
N1 N 0.0288(15) -0.2934(3) 0.1646(9)
N2 N 0.2356(15) -0.2489(4) 0.1743(10)
N3 N -0.2430(16) -0.1880(4) 0.2120(10)
N4 N -0.3508(15) -0.3398(3) -0.0128(9)
N5 N -0.4976(17) -0.3285(3) -0.1885(10)
N6 N -0.124(3) -0.2131(6) -0.0631(13)
N7 N -0.4740(17) -0.4763(4) 0.3095(9)
N8 N -0.6082(15) -0.4559(4) 0.4064(9)
N9 N -1.0758(17) -0.5047(4) 0.1604(10)
C1 C 0.116(2) -0.3644(5) 0.1267(12)
C2 C 0.1403(19) -0.3171(5) 0.1454(12)
C3 C 0.2681(18) -0.2898(4) 0.1506(11)
C4 C 0.424(2) -0.2989(5) 0.1412(12)
C5 C 0.0906(18) -0.2524(4) 0.1843(11)
C6 C 0.010(2) -0.2172(5) 0.2172(12)
C7 C 0.104(2) -0.1860(5) 0.2858(13)
H3 H 0.2206 -0.1853 0.3122
C8 C 0.021(2) -0.1547(5) 0.3163(13)
H4 H 0.0815 -0.1322 0.3623
C9 C -0.1442(19) -0.1570(4) 0.2801(13)
H5 H -0.1961 -0.1358 0.3028
C10 C -0.157(2) -0.2177(4) 0.1851(12)
H6 H -0.2193 -0.2405 0.1408
C11 C -0.425(2) -0.4155(4) 0.0120(10)
C12 C -0.4359(18) -0.3775(4) -0.0582(10)
C13 C -0.5284(19) -0.3708(4) -0.1691(11)
C14 C -0.6555(19) -0.3969(4) -0.2611(11)
C15 C -0.3942(19) -0.3118(4) -0.0947(11)
C16 C -0.336(2) -0.2653(4) -0.0830(11)
C17 C -0.449(3) -0.2329(5) -0.0908(12)
H7 H -0.5586 -0.2396 -0.1023
C18 C -0.393(3) -0.1882(6) -0.0804(14)
H8 H -0.4607 -0.1649 -0.0816
C19 C -0.233(4) -0.1826(7) -0.0689(15)
H9 H -0.1962 -0.1539 -0.0646
C20 C -0.178(2) -0.2555(5) -0.0698(13)
H10 H -0.1047 -0.2781 -0.0653
C21 C -0.187(2) -0.4490(5) 0.4136(13)
C22 C -0.3635(19) -0.4549(4) 0.3972(11)
C23 C -0.4467(19) -0.4430(5) 0.4568(12)
C24 C -0.382(2) -0.4196(6) 0.5606(14)
C25 C -0.6195(19) -0.4762(5) 0.3196(11)
C26 C -0.780(2) -0.4967(4) 0.2351(11)
C27 C -0.775(2) -0.5281(5) 0.1661(13)
H11 H -0.6719 -0.5370 0.1706
C28 C -0.923(2) -0.5465(5) 0.0908(13)
H12 H -0.9244 -0.5657 0.0388
C29 C -1.070(2) -0.5349(5) 0.0965(13)
H13 H -1.1697 -0.5495 0.0524
C30 C -0.927(2) -0.4870(5) 0.2307(12)
H14 H -0.9294 -0.4666 0.2794
Pb2_2 Pb -0.58592(8) -0.192569(18) 0.12887(5)
Pb2C Pb -0.58592(8) -0.307431(18) -0.37113(5)
Pb3_2 Pb -1.35416(7) -0.490581(17) 0.17136(4)
Pb3B Pb -0.64584(7) -0.509419(17) -0.17136(4)
Pb4_2 Pb -0.77940(8) -0.435456(19) -0.48417(5)
Pb4_3 Pb -0.77940(8) -0.435456(19) 0.51583(5)
O6B O -0.4906(17) -0.5516(3) 0.0254(8)
O7B O -0.3294(15) -0.5630(3) 0.2544(8)
O8_2 O 0.2725(12) -0.3757(3) 0.6517(7)
O8C O 0.2725(12) -0.1243(3) 0.1517(7)
O12_2 O 0.5206(13) -0.4104(4) 0.5981(8)
N3_2 N 0.7570(16) -0.1880(4) 0.2120(10)
N5C N 0.5024(17) -0.1715(3) 0.3115(10)
N8_2 N 0.3918(15) -0.4559(4) 0.4064(9)
N9_2 N -0.0758(17) -0.5047(4) 0.1604(10)
loop_
_geom_bond_atom_site_label_1
_geom_bond_atom_site_label_2
_geom_bond_site_symmetry_1
_geom_bond_site_symmetry_2
Pb1 O1 1_555 1_555
Pb2 O4 1_555 1_555
Pb3 O5 1_555 1_555
Pb4 Cl1 1_555 1_555
O1 C1 1_555 1_555
O2 H1 1_555 1_555
O3 C4 1_555 1_555
O4 C4 1_555 1_555
O5 Pb1 1_555 1_555
O6 Pb3 1_555 1_555
O7 C14 1_555 1_555
O8 C14 1_555 1_555
O9 Pb3 1_555 1_555
O10 Pb4 1_555 1_555
O11 H2 1_555 1_555
O12 C24 1_555 1_555
N1 Pb1 1_555 1_555
N2 Pb2 1_555 1_555
N3 C9 1_555 1_555
N4 Pb1 1_555 1_555
N5 C13 1_555 1_555
N6 C19 1_555 1_555
N7 Pb3 1_555 1_555
N8 C23 1_555 1_555
N9 C29 1_555 1_555
C1 O2 1_555 1_555
C2 N1 1_555 1_555
C3 N2 1_555 1_555
C4 C3 1_555 1_555
C5 N1 1_555 1_555
C6 C5 1_555 1_555
C7 C6 1_555 1_555
H3 C7 1_555 1_555
C8 C7 1_555 1_555
H4 C8 1_555 1_555
C9 C8 1_555 1_555
H5 C9 1_555 1_555
C10 N3 1_555 1_555
H6 C10 1_555 1_555
C11 O5 1_555 1_555
C12 N4 1_555 1_555
C13 C12 1_555 1_555
C14 C13 1_555 1_555
C15 N4 1_555 1_555
C16 C15 1_555 1_555
C17 C16 1_555 1_555
H7 C17 1_555 1_555
C18 C17 1_555 1_555
H8 C18 1_555 1_555
C19 C18 1_555 1_555
H9 C19 1_555 1_555
C20 N6 1_555 1_555
H10 C20 1_555 1_555
C21 O9 1_555 1_555
C22 N7 1_555 1_555
C23 C22 1_555 1_555
C24 O11 1_555 1_555
C25 N7 1_555 1_555
C26 C25 1_555 1_555
C27 C26 1_555 1_555
H11 C27 1_555 1_555
C28 C27 1_555 1_555
H12 C28 1_555 1_555
C29 C28 1_555 1_555
H13 C29 1_555 1_555
C30 N9 1_555 1_555
H14 C30 1_555 1_555
Pb2_2 N3 1_555 1_555
Pb2C O8 1_555 1_555
Pb3_2 N9 1_555 1_555
Pb3B O6 1_555 1_555
Pb4_2 O8 1_555 1_555
Pb4_3 O12 1_555 1_555
O6B Pb3 1_555 1_555
O7B Pb3 1_555 1_555
O8_2 Pb4 1_555 1_555
O8C Pb2 1_555 1_555
O12_2 Pb4 1_555 1_555
N3_2 Pb2 1_555 1_555
N5C Pb2 1_555 1_555
N8_2 Pb4 1_555 1_555
N9_2 Pb3 1_555 1_555
O6 C11 1_555 1_555
O7 Pb3B 1_555 1_555
O10 C21 1_555 1_555
N2 C5 1_555 1_555
N5 C15 1_555 1_555
N5 Pb2C 1_555 1_555
N8 C25 1_555 1_555
N8 Pb4_3 1_555 1_555
C1 C2 1_555 1_555
C2 C3 1_555 1_555
C6 C10 1_555 1_555
C11 C12 1_555 1_555
C16 C20 1_555 1_555
C21 C22 1_555 1_555
C23 C24 1_555 1_555
C26 C30 1_555 1_555
Pb3B O6B 1_555 1_555

#END
