
#######################################################################
#
#                 Cambridge Crystallographic Data Centre
#                                CCDC 
#
#######################################################################
#
# If this CIF has been generated from an entry in the Cambridge 
# Structural Database, then it will include bibliographic, chemical, 
# crystal, experimental, refinement or atomic coordinate data resulting 
# from the CCDC's data processing and validation procedures.
#
#######################################################################

data_TICWIN
_symmetry_cell_setting           monoclinic
_symmetry_space_group_name_H-M   'P 21/c'
_symmetry_Int_Tables_number      14
_space_group_name_Hall           '-P 2ybc'
loop_
_symmetry_equiv_pos_site_id
_symmetry_equiv_pos_as_xyz
1 x,y,z
2 -x,1/2+y,1/2-z
3 -x,-y,-z
4 x,1/2-y,1/2+z
_cell_length_a                   9.243(4)
_cell_length_b                   18.103(8)
_cell_length_c                   9.337(4)
_cell_angle_alpha                90
_cell_angle_beta                 104.91(4)
_cell_angle_gamma                90
_cell_volume                     1509.72
loop_
_atom_site_label
_atom_site_type_symbol
_atom_site_fract_x
_atom_site_fract_y
_atom_site_fract_z
Mn1 Mn -0.25411(6) 0.16001(3) 0.85472(6)
Mn2 Mn 0.0000 0.0000 1.0000
C1 C 0.0122(4) 0.1066(2) 0.7329(4)
C2 C 0.1330(5) 0.1279(3) 0.6564(7)
H1 H 0.0808 0.1432 0.5557
C3 C 0.3374(5) 0.0360(3) 0.7468(5)
H2 H 0.3705 0.0540 0.8430
C4 C 0.2107(6) 0.0227(3) 0.5161(6)
H3 H 0.1408 0.0299 0.4258
C5 C 0.3142(5) -0.0301(3) 0.5476(5)
H4 H 0.3302 -0.0663 0.4826
C6 C 0.5253(4) -0.0633(2) 0.7781(5)
H5 H 0.5012 -0.0797 0.8694
C7 C 0.6614(4) -0.01078(19) 0.8262(4)
C8 C 0.2218(8) 0.1902(4) 0.7241(10)
H6 H 0.2951 0.2013 0.6707
H7 H 0.2714 0.1786 0.8251
H8 H 0.1579 0.2323 0.7216
C9 C 0.5562(7) -0.1302(3) 0.7028(8)
H9 H 0.4679 -0.1604 0.6769
H10 H 0.6360 -0.1573 0.7676
H11 H 0.5850 -0.1167 0.6146
N1 N -0.0958(4) 0.10612(19) 1.0484(4)
N2 N -0.0556(5) 0.1281(2) 1.1669(4)
N3 N -0.0037(9) 0.1508(4) 1.2849(6)
N4 N -0.4148(5) 0.1864(2) 0.9950(5)
N5 N -0.4048(4) 0.2390(2) 1.0730(4)
N6 N -0.4009(4) 0.2910(2) 1.1496(4)
N7 N 0.2261(4) 0.0639(2) 0.6408(4)
N8 N 0.3930(3) -0.02172(18) 0.6923(4)
O1 O -0.0881(3) 0.15442(16) 0.7242(3)
O2 O 0.0187(3) 0.04483(15) 0.7909(3)
O3 O 0.6439(3) 0.05560(13) 0.7925(3)
O4 O 0.7761(3) -0.04177(15) 0.9004(4)
O5 O -0.1588(5) 0.2669(2) 0.9427(4)
H12 H -0.159(8) 0.286(3) 1.027(4)
H13 H -0.131(8) 0.299(3) 0.888(6)
Mn1B Mn 0.25411(6) -0.16001(3) 1.14528(6)
C1B C -0.0122(4) -0.1066(2) 1.2671(4)
C2B C -0.1330(5) -0.1279(3) 1.3436(7)
H1B H -0.0808 -0.1432 1.4443
C3B C -0.3374(5) -0.0360(3) 1.2532(5)
H2B H -0.3705 -0.0540 1.1570
C4B C -0.2107(6) -0.0227(3) 1.4839(6)
H3B H -0.1408 -0.0299 1.5742
C5B C -0.3142(5) 0.0301(3) 1.4524(5)
H4B H -0.3302 0.0663 1.5174
C6B C -0.5253(4) 0.0633(2) 1.2219(5)
H5B H -0.5012 0.0797 1.1306
C7B C -0.6614(4) 0.01078(19) 1.1738(4)
C8B C -0.2218(8) -0.1902(4) 1.2759(10)
H6B H -0.2951 -0.2013 1.3293
H7B H -0.2714 -0.1786 1.1749
H8B H -0.1579 -0.2323 1.2784
C9B C -0.5562(7) 0.1302(3) 1.2972(8)
H9B H -0.4679 0.1604 1.3231
H10B H -0.6360 0.1573 1.2324
H11B H -0.5850 0.1167 1.3854
N1B N 0.0958(4) -0.10612(19) 0.9516(4)
N2B N 0.0556(5) -0.1281(2) 0.8331(4)
N3B N 0.0037(9) -0.1508(4) 0.7151(6)
N4B N 0.4148(5) -0.1864(2) 1.0050(5)
N5B N 0.4048(4) -0.2390(2) 0.9270(4)
N6B N 0.4009(4) -0.2910(2) 0.8504(4)
N7B N -0.2261(4) -0.0639(2) 1.3592(4)
N8B N -0.3930(3) 0.02172(18) 1.3077(4)
O1B O 0.0881(3) -0.15442(16) 1.2758(3)
O2B O -0.0187(3) -0.04483(15) 1.2091(3)
O3B O -0.6439(3) -0.05560(13) 1.2075(3)
O4B O -0.7761(3) 0.04177(15) 1.0996(4)
O5B O 0.1588(5) -0.2669(2) 1.0573(4)
H12B H 0.159(8) -0.286(3) 0.973(4)
H13B H 0.131(8) -0.299(3) 1.112(6)
Mn1_2 Mn 0.74589(6) 0.16001(3) 0.85472(6)
Mn1A Mn 0.25411(6) -0.33999(3) 0.64528(6)
Mn1B_2 Mn -0.74589(6) -0.16001(3) 1.14528(6)
Mn1C Mn -0.25411(6) 0.33999(3) 1.35472(6)
Mn2_2 Mn -1.0000 0.0000 1.0000
Mn2_3 Mn 1.0000 0.0000 1.0000
N6A N 0.4009(4) -0.2090(2) 1.3504(4)
N6C N -0.4009(4) 0.2090(2) 0.6496(4)
O3_2 O -0.3561(3) 0.05560(13) 0.7925(3)
O3B_2 O 0.3561(3) -0.05560(13) 1.2075(3)
O4_2 O -0.2239(3) -0.04177(15) 0.9004(4)
O4B_2 O 0.2239(3) 0.04177(15) 1.0996(4)
loop_
_geom_bond_atom_site_label_1
_geom_bond_atom_site_label_2
_geom_bond_site_symmetry_1
_geom_bond_site_symmetry_2
Mn1 N1 1_555 1_555
Mn2 N1 1_555 1_555
C1 C2 1_555 1_555
C2 H1 1_555 1_555
C3 H2 1_555 1_555
C4 H3 1_555 1_555
C5 C4 1_555 1_555
H4 C5 1_555 1_555
C6 H5 1_555 1_555
C7 C6 1_555 1_555
C8 C2 1_555 1_555
H6 C8 1_555 1_555
H7 C8 1_555 1_555
H8 C8 1_555 1_555
C9 C6 1_555 1_555
H9 C9 1_555 1_555
H10 C9 1_555 1_555
H11 C9 1_555 1_555
N1 N2 1_555 1_555
N2 N3 1_555 1_555
N4 Mn1 1_555 1_555
N5 N4 1_555 1_555
N6 N5 1_555 1_555
N7 C2 1_555 1_555
N8 C3 1_555 1_555
O1 Mn1 1_555 1_555
O2 Mn2 1_555 1_555
O3 C7 1_555 1_555
O4 C7 1_555 1_555
O5 Mn1 1_555 1_555
H12 O5 1_555 1_555
H13 O5 1_555 1_555
Mn1B N1B 1_555 1_555
C1B C2B 1_555 1_555
C2B H1B 1_555 1_555
C3B H2B 1_555 1_555
C4B H3B 1_555 1_555
C5B C4B 1_555 1_555
H4B C5B 1_555 1_555
C6B H5B 1_555 1_555
C7B C6B 1_555 1_555
C8B C2B 1_555 1_555
H6B C8B 1_555 1_555
H7B C8B 1_555 1_555
H8B C8B 1_555 1_555
C9B C6B 1_555 1_555
H9B C9B 1_555 1_555
H10B C9B 1_555 1_555
H11B C9B 1_555 1_555
N1B Mn2 1_555 1_555
N2B N1B 1_555 1_555
N3B N2B 1_555 1_555
N4B Mn1B 1_555 1_555
N5B N4B 1_555 1_555
N6B N5B 1_555 1_555
N7B C2B 1_555 1_555
N8B C3B 1_555 1_555
O1B Mn1B 1_555 1_555
O2B Mn2 1_555 1_555
O3B C7B 1_555 1_555
O4B C7B 1_555 1_555
O5B Mn1B 1_555 1_555
H12B O5B 1_555 1_555
H13B O5B 1_555 1_555
Mn1_2 O3 1_555 1_555
Mn1A N6B 1_555 1_555
Mn1B_2 O3B 1_555 1_555
Mn1C N6 1_555 1_555
Mn2_2 O4B 1_555 1_555
Mn2_3 O4 1_555 1_555
N6A Mn1B 1_555 1_555
N6C Mn1 1_555 1_555
O3_2 Mn1 1_555 1_555
O3B_2 Mn1B 1_555 1_555
O4_2 Mn2 1_555 1_555
O4B_2 Mn2 1_555 1_555
C1 O1 1_555 1_555
C1 O2 1_555 1_555
C3 N7 1_555 1_555
C4 N7 1_555 1_555
C5 N8 1_555 1_555
C6 N8 1_555 1_555
C1B O1B 1_555 1_555
C1B O2B 1_555 1_555
C3B N7B 1_555 1_555
C4B N7B 1_555 1_555
C5B N8B 1_555 1_555
C6B N8B 1_555 1_555

#END
