
#######################################################################
#
#                 Cambridge Crystallographic Data Centre
#                                CCDC 
#
#######################################################################
#
# If this CIF has been generated from an entry in the Cambridge 
# Structural Database, then it will include bibliographic, chemical, 
# crystal, experimental, refinement or atomic coordinate data resulting 
# from the CCDC's data processing and validation procedures.
#
#######################################################################

data_TICWUZ
_symmetry_cell_setting           monoclinic
_symmetry_space_group_name_H-M   'C 2/c'
_symmetry_Int_Tables_number      15
_space_group_name_Hall           '-C 2yn'
loop_
_symmetry_equiv_pos_site_id
_symmetry_equiv_pos_as_xyz
1 x,y,z
2 -x,y,1/2-z
3 1/2+x,1/2+y,z
4 1/2-x,1/2+y,1/2-z
5 -x,-y,-z
6 x,-y,1/2+z
7 1/2-x,1/2-y,-z
8 1/2+x,1/2-y,1/2+z
_cell_length_a                   7.854(2)
_cell_length_b                   17.806(5)
_cell_length_c                   7.879(2)
_cell_angle_alpha                90
_cell_angle_beta                 113.267(3)
_cell_angle_gamma                90
_cell_volume                     1012.25
loop_
_atom_site_label
_atom_site_type_symbol
_atom_site_fract_x
_atom_site_fract_y
_atom_site_fract_z
C1 C 0.2322(3) 0.41151(12) 0.6528(3)
C2 C 0.0635(3) 0.35969(12) 0.5796(3)
H1 H 0.0840 0.3175 0.6631
H2 H -0.0442 0.3869 0.5779
C3 C 0.0161(3) 0.25784(12) 0.3406(3)
H3 H 0.0294 0.2159 0.4150
C4 C 0.0000 0.37487(17) 0.2500
H4 H 0.0000 0.4271 0.2500
N1 N 0.0255(2) 0.33143(9) 0.3944(2)
O1 O 0.3191(2) 0.42168(9) 0.5527(2)
O2 O 0.2641(2) 0.43753(10) 0.8099(2)
Mn1 Mn 0.5000 0.5000 0.5000
N2 N 0.5000 0.56657(14) 0.7500
N3 N 0.470(2) 0.63254(19) 0.733(3)
N4 N 0.4413(9) 0.6960(2) 0.7197(14)
C1A C -0.2322(3) 0.41151(12) -0.1528(3)
C2A C -0.0635(3) 0.35969(12) -0.0796(3)
H1A H -0.0840 0.3175 -0.1631
H2A H 0.0442 0.3869 -0.0779
C3A C -0.0161(3) 0.25784(12) 0.1594(3)
H3A H -0.0294 0.2159 0.0850
N1A N -0.0255(2) 0.33143(9) 0.1056(2)
O1A O -0.3191(2) 0.42168(9) -0.0527(2)
O2A O -0.2641(2) 0.43753(10) -0.3099(2)
N3A N 0.530(2) 0.63254(19) 0.767(3)
N4A N 0.5587(9) 0.6960(2) 0.7803(14)
O1D O 0.6809(2) 0.57832(9) 0.4473(2)
O2A_2 O 0.7359(2) 0.43753(10) 0.6901(2)
O2E O 0.2641(2) 0.56247(10) 0.3099(2)
Mn1_2 Mn -0.5000 0.5000 -0.5000
Mn1A Mn -0.5000 0.5000 0.0000
Mn1A_2 Mn 0.5000 0.5000 1.0000
N2D N 0.5000 0.43343(14) 0.2500
loop_
_geom_bond_atom_site_label_1
_geom_bond_atom_site_label_2
_geom_bond_site_symmetry_1
_geom_bond_site_symmetry_2
C1 C2 1_555 1_555
C2 H1 1_555 1_555
H2 C2 1_555 1_555
C3 H3 1_555 1_555
C4 H4 1_555 1_555
N1 C2 1_555 1_555
O1 C1 1_555 1_555
O2 C1 1_555 1_555
Mn1 O1 1_555 1_555
N2 Mn1 1_555 1_555
N3 N2 1_555 1_555
N4 N3 1_555 1_555
C1A C2A 1_555 1_555
C2A H1A 1_555 1_555
H2A C2A 1_555 1_555
C3A C3 1_555 1_555
H3A C3A 1_555 1_555
N1A C4 1_555 1_555
O1A C1A 1_555 1_555
O2A C1A 1_555 1_555
N3A N2 1_555 1_555
N4A N3 1_555 1_555
O1D Mn1 1_555 1_555
O2A_2 Mn1 1_555 1_555
O2E Mn1 1_555 1_555
Mn1_2 O2A 1_555 1_555
Mn1A O1A 1_555 1_555
Mn1A_2 O2 1_555 1_555
N2D Mn1 1_555 1_555
C3 N1 1_555 1_555
C4 N1 1_555 1_555
N2 Mn1A_2 1_555 1_555
N4 N3A 1_555 1_555
N4 N4A 1_555 1_555
C2A N1A 1_555 1_555
C3A N1A 1_555 1_555
N3A N4A 1_555 1_555

#END
