
#######################################################################
#
#                 Cambridge Crystallographic Data Centre
#                                CCDC 
#
#######################################################################
#
# If this CIF has been generated from an entry in the Cambridge 
# Structural Database, then it will include bibliographic, chemical, 
# crystal, experimental, refinement or atomic coordinate data resulting 
# from the CCDC's data processing and validation procedures.
#
#######################################################################

data_TIDCUF01
_symmetry_cell_setting           monoclinic
_symmetry_space_group_name_H-M   'P 21/c'
_symmetry_Int_Tables_number      14
_space_group_name_Hall           '-P 2ybc'
loop_
_symmetry_equiv_pos_site_id
_symmetry_equiv_pos_as_xyz
1 x,y,z
2 -x,1/2+y,1/2-z
3 -x,-y,-z
4 x,1/2-y,1/2+z
_cell_length_a                   5.6204(3)
_cell_length_b                   22.0771(12)
_cell_length_c                   6.8311(4)
_cell_angle_alpha                90
_cell_angle_beta                 104.682(2)
_cell_angle_gamma                90
_cell_volume                     819.941
loop_
_atom_site_label
_atom_site_type_symbol
_atom_site_fract_x
_atom_site_fract_y
_atom_site_fract_z
Cu1 Cu 0.38573(4) 0.717449(13) 0.96013(4)
Cu2 Cu 0.0000 0.5000 1.5000
S1 S 0.19538(9) 0.79297(2) 1.11382(7)
O1 O 0.3085(3) 0.52526(8) 1.6766(2)
O2 O 0.6535(3) 0.57392(8) 1.6656(3)
N1 N -0.2707(3) 0.73816(10) 1.0338(3)
N2 N 0.2876(3) 0.63912(8) 1.0878(2)
N3 N 0.0894(3) 0.55616(8) 1.3055(2)
C1 C -0.0803(3) 0.76065(10) 1.0711(3)
C2 C 0.0685(4) 0.61352(10) 1.0111(3)
H1 H -0.020(5) 0.6253(11) 0.879(4)
C3 C -0.0327(4) 0.57218(10) 1.1184(3)
H2 H -0.189(4) 0.5545(11) 1.064(3)
C4 C 0.3120(4) 0.58035(9) 1.3821(3)
C5 C 0.4106(4) 0.62123(10) 1.2742(3)
H3 H 0.556(4) 0.6390(11) 1.326(3)
C6 C 0.4402(4) 0.55917(10) 1.5936(3)
Cu1B Cu -0.38573(4) 0.282551(13) 2.03987(4)
Cu1C Cu 0.38573(4) 0.782551(13) 1.46013(4)
Cu1_2 Cu -0.61427(4) 0.717449(13) 0.96013(4)
Cu1C_2 Cu 0.38573(4) 0.782551(13) 0.46013(4)
Cu1C_3 Cu -0.61427(4) 0.782551(13) 0.46013(4)
S1C S 0.19538(9) 0.70703(2) 0.61382(7)
S1B S -0.19538(9) 0.20703(2) 1.88618(7)
S1A S -0.19538(9) 0.29297(2) 2.38618(7)
O1B O -0.3085(3) 0.47474(8) 1.3234(2)
O2B O -0.6535(3) 0.42608(8) 1.3344(3)
N1C N -0.2707(3) 0.76184(10) 0.5338(3)
N1_2 N 0.7293(3) 0.73816(10) 1.0338(3)
N1B N -0.7293(3) 0.26184(10) 1.9662(3)
N2B N -0.2876(3) 0.36088(8) 1.9122(2)
N3B N -0.0894(3) 0.44384(8) 1.6945(2)
C1C C -0.0803(3) 0.73935(10) 0.5711(3)
C2B C -0.0685(4) 0.38648(10) 1.9889(3)
H1B H 0.020(5) 0.3747(11) 2.121(4)
C3B C 0.0327(4) 0.42782(10) 1.8816(3)
H2B H 0.189(4) 0.4455(11) 1.936(3)
C4B C -0.3120(4) 0.41965(9) 1.6179(3)
C5B C -0.4106(4) 0.37877(10) 1.7258(3)
H3B H -0.556(4) 0.3610(11) 1.674(3)
C6B C -0.4402(4) 0.44083(10) 1.4064(3)
loop_
_geom_bond_atom_site_label_1
_geom_bond_atom_site_label_2
_geom_bond_site_symmetry_1
_geom_bond_site_symmetry_2
Cu1 S1 1_555 1_555
Cu2 O1 1_555 1_555
S1 C1 1_555 1_555
O1 C6 1_555 1_555
O2 C6 1_555 1_555
N1 C1 1_555 1_555
N2 Cu1 1_555 1_555
N3 Cu2 1_555 1_555
C2 N2 1_555 1_555
H1 C2 1_555 1_555
C3 N3 1_555 1_555
H2 C3 1_555 1_555
C4 N3 1_555 1_555
C5 N2 1_555 1_555
H3 C5 1_555 1_555
C6 C4 1_555 1_555
Cu1B S1B 1_555 1_555
Cu1C S1 1_555 1_555
Cu1_2 N1 1_555 1_555
Cu1C_2 S1C 1_555 1_555
Cu1C_3 N1C 1_555 1_555
S1C Cu1 1_555 1_555
S1A Cu1B 1_555 1_555
O1B Cu2 1_555 1_555
O2B C6B 1_555 1_555
N1C C1C 1_555 1_555
N1_2 Cu1 1_555 1_555
N1B Cu1B 1_555 1_555
N2B Cu1B 1_555 1_555
N3B Cu2 1_555 1_555
C1C S1C 1_555 1_555
C2B N2B 1_555 1_555
H1B C2B 1_555 1_555
C3B N3B 1_555 1_555
H2B C3B 1_555 1_555
C4B N3B 1_555 1_555
C5B N2B 1_555 1_555
H3B C5B 1_555 1_555
C6B O1B 1_555 1_555
C2 C3 1_555 1_555
C4 C5 1_555 1_555
C2B C3B 1_555 1_555
C4B C5B 1_555 1_555
C4B C6B 1_555 1_555

#END
