
#######################################################################
#
#                 Cambridge Crystallographic Data Centre
#                                CCDC 
#
#######################################################################
#
# If this CIF has been generated from an entry in the Cambridge 
# Structural Database, then it will include bibliographic, chemical, 
# crystal, experimental, refinement or atomic coordinate data resulting 
# from the CCDC's data processing and validation procedures.
#
#######################################################################

data_TIDLID
_symmetry_cell_setting           orthorhombic
_symmetry_space_group_name_H-M   'I m m a'
_symmetry_Int_Tables_number      74
_space_group_name_Hall           '-I 2b 2'
loop_
_symmetry_equiv_pos_site_id
_symmetry_equiv_pos_as_xyz
1 x,y,z
2 -x,1/2-y,z
3 1/2+x,1/2+y,1/2+z
4 1/2-x,-y,1/2+z
5 x,-y,-z
6 -x,1/2+y,-z
7 1/2+x,1/2-y,1/2-z
8 1/2-x,y,1/2-z
9 -x,-y,-z
10 x,1/2+y,-z
11 1/2-x,1/2-y,1/2-z
12 1/2+x,y,1/2-z
13 -x,y,z
14 x,1/2-y,z
15 1/2-x,1/2+y,1/2+z
16 1/2+x,-y,1/2+z
_cell_length_a                   7.620(2)
_cell_length_b                   20.963(6)
_cell_length_c                   9.876(3)
_cell_angle_alpha                90
_cell_angle_beta                 90
_cell_angle_gamma                90
_cell_volume                     1577.57
loop_
_atom_site_label
_atom_site_type_symbol
_atom_site_fract_x
_atom_site_fract_y
_atom_site_fract_z
Cd1 Cd 0.7500 0.2500 0.2500
Cl1 Cl 1.0000 0.2500 0.0702(5)
N1 N 0.5903(9) 0.1713(3) 0.1362(8)
N2 N 0.5000 0.0889(6) 0.0275(15)
C1 C 0.6407(13) 0.1208(5) 0.0691(12)
H1 H 0.7566 0.1090 0.0532
C2 C 0.5000 0.0269(7) -0.0495(15)
H2 H 0.3968 0.0244 -0.1067
N1L N 0.4097(9) 0.1713(3) 0.1362(8)
C1L C 0.3593(13) 0.1208(5) 0.0691(12)
H1L H 0.2434 0.1090 0.0532
H2L H 0.6032 0.0244 -0.1067
N1H N 0.4097(9) -0.1713(3) -0.1362(8)
N2H N 0.5000 -0.0889(6) -0.0275(15)
C1H C 0.3593(13) -0.1208(5) -0.0691(12)
H1H H 0.2434 -0.1090 -0.0532
C2H C 0.5000 -0.0269(7) 0.0495(15)
H2H H 0.6032 -0.0244 0.1067
N1D N 0.5903(9) -0.1713(3) -0.1362(8)
C1D C 0.6407(13) -0.1208(5) -0.0691(12)
H1D H 0.7566 -0.1090 -0.0532
H2D H 0.3968 -0.0244 0.1067
Cd1L Cd 0.2500 0.2500 0.2500
Cd1L_2 Cd 1.2500 0.2500 0.2500
Cd1B Cd 0.2500 -0.2500 -0.2500
Cd1N Cd 0.7500 -0.2500 -0.2500
Cl1J Cl 0.5000 0.2500 0.4298(5)
N1M N 0.5903(9) 0.3287(3) 0.1362(8)
N1J N 0.9097(9) 0.3287(3) 0.3638(8)
N1G N 0.9097(9) 0.1713(3) 0.3638(8)
O1 O 0.0000 0.4667(7) 0.1120(15)
H3? H 0.3968 0.0244 -0.1067
O2? O 0.0000 0.5054(7) 0.0474(15)
loop_
_geom_bond_atom_site_label_1
_geom_bond_atom_site_label_2
_geom_bond_site_symmetry_1
_geom_bond_site_symmetry_2
Cd1 Cl1 1_555 1_555
Cl1 Cd1L_2 1_555 1_555
N1 Cd1 1_555 1_555
N2 C1 1_555 1_555
C1 N1 1_555 1_555
H1 C1 1_555 1_555
C2 N2 1_555 1_555
H2 C2 1_555 1_555
N1L N1 1_555 1_555
C1L N2 1_555 1_555
H1L C1L 1_555 1_555
H2L C2 1_555 1_555
N1H C1H 1_555 1_555
N2H C1H 1_555 1_555
C1H H1H 1_555 1_555
C2H C2 1_555 1_555
H2H C2H 1_555 1_555
N1D N1H 1_555 1_555
C1D N2H 1_555 1_555
H1D C1D 1_555 1_555
H2D C2H 1_555 1_555
Cd1L N1L 1_555 1_555
Cd1B N1H 1_555 1_555
Cd1N N1D 1_555 1_555
Cl1J Cd1 1_555 1_555
N1M Cd1 1_555 1_555
N1J Cd1 1_555 1_555
N1G Cd1 1_555 1_555
N1L C1L 1_555 1_555
N2H C2H 1_555 1_555
N1D C1D 1_555 1_555
Cd1L Cl1J 1_555 1_555

#END
