
#######################################################################
#
#                 Cambridge Crystallographic Data Centre
#                                CCDC 
#
#######################################################################
#
# If this CIF has been generated from an entry in the Cambridge 
# Structural Database, then it will include bibliographic, chemical, 
# crystal, experimental, refinement or atomic coordinate data resulting 
# from the CCDC's data processing and validation procedures.
#
#######################################################################

data_TIDNIF
_symmetry_cell_setting           monoclinic
_symmetry_space_group_name_H-M   'P 21/c'
_symmetry_Int_Tables_number      14
_space_group_name_Hall           '-P 2ybc'
loop_
_symmetry_equiv_pos_site_id
_symmetry_equiv_pos_as_xyz
1 x,y,z
2 -x,1/2+y,1/2-z
3 -x,-y,-z
4 x,1/2-y,1/2+z
_cell_length_a                   11.122(2)
_cell_length_b                   17.349(3)
_cell_length_c                   7.7865(16)
_cell_angle_alpha                90
_cell_angle_beta                 106.64(3)
_cell_angle_gamma                90
_cell_volume                     1439.53
loop_
_atom_site_label
_atom_site_type_symbol
_atom_site_fract_x
_atom_site_fract_y
_atom_site_fract_z
Co1 Co 0.79953(10) -0.07344(6) 0.59106(14)
Co2 Co 1.0000 0.0000 1.0000
C1 C 0.8201(7) 0.0876(4) 0.6600(10)
C2 C 0.8063(6) 0.1729(4) 0.6168(9)
C3 C 0.6960(7) 0.2038(4) 0.5046(10)
H1 H 0.6303 0.1712 0.4473
C4 C 0.3564(8) 0.3092(5) 0.1630(11)
H2 H 0.2854 0.2792 0.1151
N1 N 0.3523(6) 0.3825(4) 0.1119(8)
C5 C 0.4551(8) 0.4244(5) 0.1864(11)
H3 H 0.4562 0.4759 0.1538
O1 O 0.7506(5) 0.0409(3) 0.5602(7)
O2 O 1.0039(5) 0.4216(3) 0.7106(7)
O3 O 0.9033(5) 0.0727(3) 0.8038(7)
O4 O 1.1032(5) 0.3207(3) 0.8545(7)
O5 O 0.7079(5) -0.0938(3) 0.7811(8)
O6 O 0.8343(5) -0.0472(4) 1.0385(7)
C6 C 0.6831(7) 0.2842(4) 0.4772(10)
C7 C 0.5654(7) 0.3170(4) 0.3560(9)
C8 C 0.8959(7) 0.3002(4) 0.6664(9)
O7 O 0.9025(6) -0.0540(4) 0.4063(8)
C9 C 0.7837(7) 0.3307(4) 0.5610(9)
H4 H 0.7760 0.3839 0.5463
C10 C 0.9058(7) 0.2214(4) 0.6995(10)
H5 H 0.9788 0.2011 0.7767
C11 C 1.0066(7) 0.3499(4) 0.7476(10)
C12 C 0.4583(7) 0.2745(5) 0.2819(11)
H6 H 0.4549 0.2228 0.3119
C13 C 0.5596(7) 0.3943(5) 0.3094(12)
H7 H 0.6272 0.4263 0.3618
C14 C 0.7370(8) -0.0825(5) 0.9441(12)
H8 H 0.6823 -0.1016 1.0046
H9 H 0.874(8) -0.057(6) 0.293(2)
H10 H 0.914(9) -0.009(2) 0.369(13)
Co1B Co 1.20047(10) 0.07344(6) 1.40894(14)
C1B C 1.1799(7) -0.0876(4) 1.3400(10)
C2B C 1.1937(6) -0.1729(4) 1.3832(9)
C3B C 1.3040(7) -0.2038(4) 1.4954(10)
H1B H 1.3697 -0.1712 1.5527
C4B C 1.6436(8) -0.3092(5) 1.8370(11)
H2B H 1.7146 -0.2792 1.8849
N1B N 1.6477(6) -0.3825(4) 1.8881(8)
C5B C 1.5449(8) -0.4244(5) 1.8136(11)
H3B H 1.5438 -0.4759 1.8462
O1B O 1.2494(5) -0.0409(3) 1.4398(7)
O2B O 0.9961(5) -0.4216(3) 1.2894(7)
O3B O 1.0967(5) -0.0727(3) 1.1962(7)
O4B O 0.8968(5) -0.3207(3) 1.1455(7)
O5B O 1.2921(5) 0.0938(3) 1.2189(8)
O6B O 1.1657(5) 0.0472(4) 0.9615(7)
C6B C 1.3169(7) -0.2842(4) 1.5228(10)
C7B C 1.4346(7) -0.3170(4) 1.6440(9)
C8B C 1.1041(7) -0.3002(4) 1.3336(9)
O7B O 1.0975(6) 0.0540(4) 1.5937(8)
C9B C 1.2163(7) -0.3307(4) 1.4390(9)
H4B H 1.2240 -0.3839 1.4537
C10B C 1.0942(7) -0.2214(4) 1.3005(10)
H5B H 1.0212 -0.2011 1.2233
C11B C 0.9934(7) -0.3499(4) 1.2524(10)
C12B C 1.5417(7) -0.2745(5) 1.7181(11)
H6B H 1.5451 -0.2228 1.6881
C13B C 1.4404(7) -0.3943(5) 1.6906(12)
H7B H 1.3728 -0.4263 1.6382
C14B C 1.2630(8) 0.0825(5) 1.0559(12)
H8B H 1.3177 0.1016 0.9954
H9B H 1.126(8) 0.057(6) 1.707(2)
H10B H 1.086(9) 0.009(2) 1.631(13)
Co1A Co 0.20047(10) 0.42656(6) -0.09106(14)
Co1A_2 Co 1.20047(10) 0.42656(6) 0.90894(14)
Co1C Co 0.79953(10) -0.42656(6) 1.09106(14)
Co1C_2 Co 1.79953(10) -0.42656(6) 2.09106(14)
Co2A Co 1.0000 -0.5000 1.5000
Co2A_2 Co 1.0000 0.5000 0.5000
N1A N 0.6477(6) -0.1175(4) 0.3881(8)
N1C N 1.3523(6) 0.1175(4) 1.6119(8)
O2A O 0.9961(5) -0.0784(3) 0.7894(7)
O2C O 1.0039(5) 0.0784(3) 1.2106(7)
O4A O 0.8968(5) -0.1793(3) 0.6455(7)
O4C O 1.1032(5) 0.1793(3) 1.3545(7)
loop_
_geom_bond_atom_site_label_1
_geom_bond_atom_site_label_2
_geom_bond_site_symmetry_1
_geom_bond_site_symmetry_2
Co1 O1 1_555 1_555
Co2 O3 1_555 1_555
C1 C2 1_555 1_555
C2 C3 1_555 1_555
C3 H1 1_555 1_555
C4 H2 1_555 1_555
N1 C4 1_555 1_555
C5 N1 1_555 1_555
H3 C5 1_555 1_555
O1 C1 1_555 1_555
O2 C11 1_555 1_555
O3 C1 1_555 1_555
O4 C11 1_555 1_555
O5 Co1 1_555 1_555
O6 Co2 1_555 1_555
C6 C3 1_555 1_555
C7 C6 1_555 1_555
C8 C9 1_555 1_555
O7 Co1 1_555 1_555
C9 C6 1_555 1_555
H4 C9 1_555 1_555
C10 C2 1_555 1_555
H5 C10 1_555 1_555
C11 C8 1_555 1_555
C12 C4 1_555 1_555
H6 C12 1_555 1_555
C13 C5 1_555 1_555
H7 C13 1_555 1_555
C14 O5 1_555 1_555
H8 C14 1_555 1_555
H9 O7 1_555 1_555
H10 O7 1_555 1_555
Co1B O1B 1_555 1_555
C1B C2B 1_555 1_555
C2B C3B 1_555 1_555
C3B H1B 1_555 1_555
C4B H2B 1_555 1_555
N1B C4B 1_555 1_555
C5B N1B 1_555 1_555
H3B C5B 1_555 1_555
O1B C1B 1_555 1_555
O2B C11B 1_555 1_555
O3B Co2 1_555 1_555
O4B C11B 1_555 1_555
O5B Co1B 1_555 1_555
O6B Co2 1_555 1_555
C6B C3B 1_555 1_555
C7B C6B 1_555 1_555
C8B C9B 1_555 1_555
O7B Co1B 1_555 1_555
C9B C6B 1_555 1_555
H4B C9B 1_555 1_555
C10B C2B 1_555 1_555
H5B C10B 1_555 1_555
C11B C8B 1_555 1_555
C12B C4B 1_555 1_555
H6B C12B 1_555 1_555
C13B C5B 1_555 1_555
H7B C13B 1_555 1_555
C14B O5B 1_555 1_555
H8B C14B 1_555 1_555
H9B O7B 1_555 1_555
H10B O7B 1_555 1_555
Co1A N1 1_555 1_555
Co1A_2 O2 1_555 1_555
Co1C O2B 1_555 1_555
Co1C_2 N1B 1_555 1_555
Co2A O2B 1_555 1_555
Co2A_2 O2 1_555 1_555
N1A Co1 1_555 1_555
N1C Co1B 1_555 1_555
O2A Co1 1_555 1_555
O2C Co2 1_555 1_555
O4A Co1 1_555 1_555
O4C Co1B 1_555 1_555
Co2 O2A 1_555 1_555
O4 Co1A_2 1_555 1_555
O6 C14 1_555 1_555
C7 C12 1_555 1_555
C7 C13 1_555 1_555
C8 C10 1_555 1_555
Co1B O2C 1_555 1_555
C1B O3B 1_555 1_555
O4B Co1C 1_555 1_555
O6B C14B 1_555 1_555
C7B C12B 1_555 1_555
C7B C13B 1_555 1_555
C8B C10B 1_555 1_555

#END
