
#######################################################################
#
#                 Cambridge Crystallographic Data Centre
#                                CCDC 
#
#######################################################################
#
# If this CIF has been generated from an entry in the Cambridge 
# Structural Database, then it will include bibliographic, chemical, 
# crystal, experimental, refinement or atomic coordinate data resulting 
# from the CCDC's data processing and validation procedures.
#
#######################################################################

data_TIDROP01
_symmetry_cell_setting           orthorhombic
_symmetry_space_group_name_H-M   'P b c a'
_symmetry_Int_Tables_number      61
_space_group_name_Hall           '-P 2ac 2ab'
loop_
_symmetry_equiv_pos_site_id
_symmetry_equiv_pos_as_xyz
1 x,y,z
2 1/2-x,-y,1/2+z
3 1/2+x,1/2-y,-z
4 -x,1/2+y,1/2-z
5 -x,-y,-z
6 1/2+x,y,1/2-z
7 1/2-x,1/2+y,z
8 x,1/2-y,1/2+z
_cell_length_a                   18.8103(9)
_cell_length_b                   16.0825(7)
_cell_length_c                   25.3728(13)
_cell_angle_alpha                90
_cell_angle_beta                 90
_cell_angle_gamma                90
_cell_volume                     7675.69
loop_
_atom_site_label
_atom_site_type_symbol
_atom_site_fract_x
_atom_site_fract_y
_atom_site_fract_z
Fe1 Fe 0.011709(13) 0.248773(14) 0.073766(10)
S1 S 0.00563(3) 0.07535(3) 0.326698(18)
O1 O -0.06460(7) 0.30873(7) 0.10858(5)
O2 O 0.08234(6) 0.31781(6) 0.10943(5)
O3 O -0.26961(7) 0.16823(7) 0.04480(5)
O4 O -0.27068(7) 0.24563(8) 0.11838(5)
O5 O 0.29823(7) 0.19774(7) 0.04971(5)
O6 O 0.29261(7) 0.27175(7) 0.12454(5)
N1 N -0.05344(8) 0.18097(8) 0.03471(6)
N2 N 0.08355(8) 0.18946(8) 0.03587(6)
N3 N 0.01368(8) 0.16883(8) 0.13472(6)
N4 N 0.00910(8) 0.16562(8) 0.51540(6)
C1 C 0.14957(10) 0.31594(10) 0.10385(7)
C2 C 0.18652(9) 0.25210(10) 0.07696(7)
C3 C 0.15196(10) 0.19596(10) 0.04250(7)
H1 H 0.1813 0.1598 0.0224
C4 C 0.05530(10) 0.13687(10) -0.00376(7)
C5 C 0.09458(11) 0.09465(10) -0.04192(8)
H2 H 0.1449 0.0994 -0.0425
C6 C 0.06055(12) 0.04609(11) -0.07873(8)
H3 H 0.0876 0.0170 -0.1044
C7 C -0.01258(11) 0.03932(12) -0.07857(8)
H4 H -0.0356 0.0053 -0.1040
C8 C -0.05244(11) 0.08183(10) -0.04169(8)
H5 H -0.1028 0.0773 -0.0420
C9 C -0.01913(10) 0.13139(10) -0.00390(7)
C10 C -0.12264(10) 0.18037(10) 0.03987(7)
H6 H -0.1484 0.1414 0.0192
C11 C -0.16221(10) 0.23262(10) 0.07354(7)
C12 C -0.13139(10) 0.29869(10) 0.10259(7)
C13 C -0.23840(10) 0.21290(11) 0.07566(8)
C14 C -0.34573(11) 0.22951(12) 0.12466(9)
H7 H -0.3543 0.1693 0.1299
H8 H -0.3723 0.2480 0.0930
C15 C -0.36910(12) 0.27784(14) 0.17232(11)
H9 H -0.3430 0.2582 0.2034
H10 H -0.4202 0.2698 0.1778
H11 H -0.3593 0.3371 0.1669
C16 C 0.26360(10) 0.23869(11) 0.08071(7)
C17 C 0.36854(10) 0.25986(13) 0.13100(9)
H12 H 0.3944 0.2797 0.0994
H13 H 0.3796 0.2003 0.1364
C18 C 0.38946(14) 0.30943(18) 0.17837(12)
H14 H 0.3779 0.3681 0.1725
H15 H 0.4407 0.3037 0.1844
H16 H 0.3635 0.2890 0.2093
C19 C -0.17442(10) 0.36804(11) 0.12484(8)
C20 C -0.17159(11) 0.38621(13) 0.17801(9)
H17 H -0.1447 0.3518 0.2010
C21 C -0.20768(13) 0.45402(16) 0.19793(12)
H18 H -0.2071 0.4650 0.2347
C22 C -0.24448(13) 0.50567(15) 0.16459(14)
H19 H -0.2684 0.5530 0.1783
C23 C -0.24691(12) 0.48919(13) 0.11123(13)
H20 H -0.2721 0.5253 0.0882
C24 C -0.21235(10) 0.41947(11) 0.09135(9)
H21 H -0.2148 0.4072 0.0548
C25 C 0.18607(10) 0.39313(10) 0.12239(8)
C26 C 0.16703(10) 0.43000(11) 0.16956(8)
H22 H 0.1352 0.4023 0.1927
C27 C 0.19409(11) 0.50718(12) 0.18327(9)
H23 H 0.1806 0.5322 0.2157
C28 C 0.24034(11) 0.54758(12) 0.15006(10)
H24 H 0.2585 0.6006 0.1595
C29 C 0.26027(11) 0.51150(12) 0.10343(9)
H25 H 0.2927 0.5393 0.0808
C30 C 0.23306(10) 0.43434(11) 0.08920(8)
H26 H 0.2466 0.4097 0.0567
C31 C 0.07653(10) 0.09311(10) 0.20183(8)
H27 H 0.1209 0.0792 0.2173
C32 C 0.07434(10) 0.14581(10) 0.15893(7)
H28 H 0.1180 0.1670 0.1457
C33 C -0.04649(10) 0.13709(10) 0.15521(7)
H29 H -0.0904 0.1521 0.1394
C34 C -0.04797(10) 0.08403(10) 0.19790(8)
H30 H -0.0922 0.0636 0.2105
C35 C 0.01433(10) 0.06047(10) 0.22244(7)
C36 C 0.01393(10) 0.00636(11) 0.27052(7)
H31 H 0.0586 -0.0260 0.2728
H32 H -0.0266 -0.0329 0.2693
C37 C 0.00557(10) 0.00175(10) 0.38118(7)
H33 H -0.0374 -0.0338 0.3800
H34 H 0.0482 -0.0343 0.3798
C38 C 0.00608(10) 0.05387(10) 0.43014(7)
C39 C -0.05598(10) 0.08636(10) 0.45113(7)
H35 H -0.1008 0.0709 0.4369
C40 C -0.05245(10) 0.14126(10) 0.49274(7)
H36 H -0.0957 0.1632 0.5062
C41 C 0.06884(10) 0.13273(10) 0.49523(7)
H37 H 0.1130 0.1484 0.5104
C42 C 0.06949(10) 0.07729(10) 0.45366(7)
H38 H 0.1133 0.0553 0.4412
Fe1G Fe 0.011709(13) 0.251227(14) 0.573766(10)
N4G N 0.00910(8) 0.33438(8) 0.01540(6)
loop_
_geom_bond_atom_site_label_1
_geom_bond_atom_site_label_2
_geom_bond_site_symmetry_1
_geom_bond_site_symmetry_2
Fe1 O1 1_555 1_555
S1 C36 1_555 1_555
O1 C12 1_555 1_555
O2 Fe1 1_555 1_555
O3 C13 1_555 1_555
O4 C13 1_555 1_555
O5 C16 1_555 1_555
O6 C16 1_555 1_555
N1 Fe1 1_555 1_555
N2 Fe1 1_555 1_555
N3 Fe1 1_555 1_555
N4 C40 1_555 1_555
C1 O2 1_555 1_555
C2 C1 1_555 1_555
C3 N2 1_555 1_555
H1 C3 1_555 1_555
C4 N2 1_555 1_555
C5 C4 1_555 1_555
H2 C5 1_555 1_555
C6 C5 1_555 1_555
H3 C6 1_555 1_555
C7 C6 1_555 1_555
H4 C7 1_555 1_555
C8 C7 1_555 1_555
H5 C8 1_555 1_555
C9 N1 1_555 1_555
C10 N1 1_555 1_555
H6 C10 1_555 1_555
C11 C10 1_555 1_555
C12 C11 1_555 1_555
C13 C11 1_555 1_555
C14 O4 1_555 1_555
H7 C14 1_555 1_555
H8 C14 1_555 1_555
C15 C14 1_555 1_555
H9 C15 1_555 1_555
H10 C15 1_555 1_555
H11 C15 1_555 1_555
C16 C2 1_555 1_555
C17 O6 1_555 1_555
H12 C17 1_555 1_555
H13 C17 1_555 1_555
C18 C17 1_555 1_555
H14 C18 1_555 1_555
H15 C18 1_555 1_555
H16 C18 1_555 1_555
C19 C12 1_555 1_555
C20 C19 1_555 1_555
H17 C20 1_555 1_555
C21 C20 1_555 1_555
H18 C21 1_555 1_555
C22 C21 1_555 1_555
H19 C22 1_555 1_555
C23 C22 1_555 1_555
H20 C23 1_555 1_555
C24 C19 1_555 1_555
H21 C24 1_555 1_555
C25 C1 1_555 1_555
C26 C25 1_555 1_555
H22 C26 1_555 1_555
C27 C26 1_555 1_555
H23 C27 1_555 1_555
C28 C27 1_555 1_555
H24 C28 1_555 1_555
C29 C28 1_555 1_555
H25 C29 1_555 1_555
C30 C25 1_555 1_555
H26 C30 1_555 1_555
C31 H27 1_555 1_555
C32 N3 1_555 1_555
H28 C32 1_555 1_555
C33 N3 1_555 1_555
H29 C33 1_555 1_555
C34 C33 1_555 1_555
H30 C34 1_555 1_555
C35 C31 1_555 1_555
C36 C35 1_555 1_555
H31 C36 1_555 1_555
H32 C36 1_555 1_555
C37 S1 1_555 1_555
H33 C37 1_555 1_555
H34 C37 1_555 1_555
C38 C37 1_555 1_555
C39 C38 1_555 1_555
H35 C39 1_555 1_555
C40 C39 1_555 1_555
H36 C40 1_555 1_555
C41 N4 1_555 1_555
H37 C41 1_555 1_555
C42 C38 1_555 1_555
H38 C42 1_555 1_555
Fe1G N4 1_555 1_555
N4G Fe1 1_555 1_555
C2 C3 1_555 1_555
C4 C9 1_555 1_555
C8 C9 1_555 1_555
C23 C24 1_555 1_555
C29 C30 1_555 1_555
C31 C32 1_555 1_555
C34 C35 1_555 1_555
C41 C42 1_555 1_555

#END
