
#######################################################################
#
#                 Cambridge Crystallographic Data Centre
#                                CCDC 
#
#######################################################################
#
# If this CIF has been generated from an entry in the Cambridge 
# Structural Database, then it will include bibliographic, chemical, 
# crystal, experimental, refinement or atomic coordinate data resulting 
# from the CCDC's data processing and validation procedures.
#
#######################################################################

data_TIDVUZ
_symmetry_cell_setting           monoclinic
_symmetry_space_group_name_H-M   'C c'
_symmetry_Int_Tables_number      9
_space_group_name_Hall           'C -2yc'
loop_
_symmetry_equiv_pos_site_id
_symmetry_equiv_pos_as_xyz
1 x,y,z
2 x,-y,1/2+z
3 1/2+x,1/2+y,z
4 1/2+x,1/2-y,1/2+z
_cell_length_a                   13.914(4)
_cell_length_b                   20.864(6)
_cell_length_c                   7.680(2)
_cell_angle_alpha                90
_cell_angle_beta                 110.955(6)
_cell_angle_gamma                90
_cell_volume                     2082.06
loop_
_atom_site_label
_atom_site_type_symbol
_atom_site_fract_x
_atom_site_fract_y
_atom_site_fract_z
Co1 Co 0.20586(6) 0.59026(4) 0.88199(10)
C1 C 0.0860(4) 0.4875(3) 1.0379(8)
C2 C -0.0205(4) 0.4910(3) 0.8890(8)
C3 C -0.0724(5) 0.4346(3) 0.8137(9)
H1 H -0.0407 0.3954 0.8563
C4 C -0.1697(5) 0.4350(3) 0.6776(9)
H2 H -0.2018 0.3968 0.6257
C5 C -0.2185(4) 0.4932(3) 0.6201(8)
C6 C -0.1660(4) 0.5498(3) 0.6975(8)
C7 C -0.0692(5) 0.5502(3) 0.8274(9)
H3 H -0.0360 0.5886 0.8742
C8 C -0.3218(4) 0.5048(3) 0.4823(8)
C9 C -0.3925(5) 0.4601(3) 0.3797(9)
H4 H -0.3772 0.4166 0.3930
C10 C -0.4870(5) 0.4812(3) 0.2562(9)
H5 H -0.5348 0.4510 0.1874
C11 C -0.5124(5) 0.5454(4) 0.2323(9)
C12 C -0.4423(5) 0.5913(3) 0.3368(9)
H6 H -0.4585 0.6347 0.3255
C13 C -0.3477(4) 0.5698(3) 0.4579(9)
C14 C -0.6176(5) 0.5637(4) 0.1005(9)
C15 C 0.3011(5) 0.6314(4) 0.5963(9)
H7 H 0.2732 0.5930 0.5387
C16 C 0.3674(5) 0.6640(3) 0.5317(9)
H8 H 0.3852 0.6470 0.4354
C17 C 0.4082(5) 0.7231(3) 0.6120(9)
C18 C 0.3780(5) 0.7448(3) 0.7540(10)
H9 H 0.4023 0.7838 0.8115
C19 C 0.3118(5) 0.7087(4) 0.8104(10)
H10 H 0.2919 0.7250 0.9051
C20 C 0.4834(5) 0.7586(3) 0.5519(9)
C21 C 0.4737(5) 0.7632(4) 0.3656(9)
H11 H 0.4211 0.7416 0.2739
C22 C 0.5433(5) 0.8003(3) 0.3183(9)
H12 H 0.5367 0.8022 0.1935
C23 C 0.6301(5) 0.8268(4) 0.6215(10)
H13 H 0.6848 0.8476 0.7110
C24 C 0.5656(6) 0.7912(4) 0.6823(10)
H14 H 0.5763 0.7888 0.8087
N1 N 0.2745(4) 0.6522(3) 0.7386(7)
N2 N 0.6201(4) 0.8338(3) 0.4431(7)
O1 O 0.1480(3) 0.5316(2) 1.0549(6)
O2 O 0.1014(3) 0.4378(2) 1.1389(6)
O3 O -0.6654(3) 0.5277(2) -0.0318(6)
O4 O -0.6571(3) 0.6159(2) 0.1266(6)
O5 O -0.2719(4) 0.6505(3) 0.7441(7)
O6 O -0.2028(3) 0.6567(2) 0.4936(6)
S1 S -0.24456(11) 0.61778(8) 0.6034(2)
Co1_2 Co -0.79414(6) 0.59026(4) -0.11801(10)
Co1A Co 0.20586(6) 0.40974(4) 1.38199(10)
Co1C Co 0.70586(6) 0.90974(4) 0.38199(10)
N2C N 0.1201(4) 0.6662(3) 0.9431(7)
O2A O 0.1014(3) 0.5622(2) 0.6389(6)
O3_2 O 0.3346(3) 0.5277(2) 0.9682(6)
O4_2 O 0.3429(3) 0.6159(2) 1.1266(6)
loop_
_geom_bond_atom_site_label_1
_geom_bond_atom_site_label_2
_geom_bond_site_symmetry_1
_geom_bond_site_symmetry_2
Co1 N1 1_555 1_555
C1 C2 1_555 1_555
C2 C3 1_555 1_555
C3 H1 1_555 1_555
C4 C3 1_555 1_555
H2 C4 1_555 1_555
C5 C4 1_555 1_555
C6 C5 1_555 1_555
C7 C2 1_555 1_555
H3 C7 1_555 1_555
C8 C5 1_555 1_555
C9 C8 1_555 1_555
H4 C9 1_555 1_555
C10 C9 1_555 1_555
H5 C10 1_555 1_555
C11 C10 1_555 1_555
C12 C11 1_555 1_555
H6 C12 1_555 1_555
C13 C8 1_555 1_555
C14 C11 1_555 1_555
C15 H7 1_555 1_555
C16 C15 1_555 1_555
H8 C16 1_555 1_555
C17 C16 1_555 1_555
C18 C17 1_555 1_555
H9 C18 1_555 1_555
C19 C18 1_555 1_555
H10 C19 1_555 1_555
C20 C17 1_555 1_555
C21 C20 1_555 1_555
H11 C21 1_555 1_555
C22 C21 1_555 1_555
H12 C22 1_555 1_555
C23 H13 1_555 1_555
C24 C20 1_555 1_555
H14 C24 1_555 1_555
N1 C15 1_555 1_555
N2 C22 1_555 1_555
O1 Co1 1_555 1_555
O2 C1 1_555 1_555
O3 C14 1_555 1_555
O4 C14 1_555 1_555
O5 S1 1_555 1_555
O6 S1 1_555 1_555
S1 C6 1_555 1_555
Co1_2 O3 1_555 1_555
Co1A O2 1_555 1_555
Co1C N2 1_555 1_555
N2C Co1 1_555 1_555
O2A Co1 1_555 1_555
O3_2 Co1 1_555 1_555
O4_2 Co1 1_555 1_555
C1 O1 1_555 1_555
C6 C7 1_555 1_555
C12 C13 1_555 1_555
C13 S1 1_555 1_555
C19 N1 1_555 1_555
C23 C24 1_555 1_555
C23 N2 1_555 1_555
O4 Co1_2 1_555 1_555

#END
