
#######################################################################
#
#                 Cambridge Crystallographic Data Centre
#                                CCDC 
#
#######################################################################
#
# If this CIF has been generated from an entry in the Cambridge 
# Structural Database, then it will include bibliographic, chemical, 
# crystal, experimental, refinement or atomic coordinate data resulting 
# from the CCDC's data processing and validation procedures.
#
#######################################################################

data_TIDWOU
_symmetry_cell_setting           monoclinic
_symmetry_space_group_name_H-M   'P 21/c'
_symmetry_Int_Tables_number      14
_space_group_name_Hall           '-P 2ybc'
loop_
_symmetry_equiv_pos_site_id
_symmetry_equiv_pos_as_xyz
1 x,y,z
2 -x,1/2+y,1/2-z
3 -x,-y,-z
4 x,1/2-y,1/2+z
_cell_length_a                   9.134(4)
_cell_length_b                   18.973(7)
_cell_length_c                   15.354(6)
_cell_angle_alpha                90
_cell_angle_beta                 91.718(6)
_cell_angle_gamma                90
_cell_volume                     2659.64
loop_
_atom_site_label
_atom_site_type_symbol
_atom_site_fract_x
_atom_site_fract_y
_atom_site_fract_z
Ag1 Ag 1.03700(13) -0.14917(5) 0.28994(7)
Ag2 Ag 0.64847(12) 0.00994(5) 0.55758(6)
Ag3 Ag 0.76123(13) 0.14222(5) 0.40759(6)
Ag4 Ag 0.54122(14) 0.30334(5) 0.74277(7)
C1 C 0.774(2) -0.2586(9) 0.5225(12)
H1 H 0.8718 -0.2771 0.5285
H2 H 0.7102 -0.2941 0.4982
H3 H 0.7407 -0.2448 0.5787
C2 C 0.771(2) -0.1918(10) 0.4630(15)
H4 H 0.7896 -0.2056 0.4035
H5 H 0.6750 -0.1703 0.4639
C3 C 0.880(2) -0.1410(8) 0.4919(12)
H6 H 0.9773 -0.1614 0.4883
H7 H 0.8648 -0.1284 0.5522
C4 C 0.8687(18) -0.0743(7) 0.4337(9)
C5 C 0.9224(16) 0.0010(7) 0.3382(9)
C6 C 0.966(2) 0.0320(9) 0.2514(15)
H8 H 0.9448 -0.0016 0.2051
H9 H 0.9096 0.0743 0.2393
C7 C 1.119(2) 0.0487(14) 0.2530(14)
H10 H 1.1777 0.0068 0.2642
H11 H 1.1423 0.0832 0.2981
C8 C 1.150(3) 0.0788(13) 0.1631(14)
H12 H 1.0857 0.0624 0.1168
H13 H 1.2472 0.0617 0.1543
H14 H 1.1503 0.1294 0.1636
C9 C 0.382(3) 0.0660(15) 0.8452(16)
H15 H 0.4190 0.0200 0.8317
H16 H 0.2829 0.0622 0.8634
H17 H 0.4416 0.0865 0.8913
C10 C 0.396(2) 0.1088(16) 0.7612(18)
H18 H 0.3496 0.0843 0.7125
H19 H 0.3501 0.1546 0.7671
C11 C 0.550(2) 0.1170(9) 0.7473(14)
H20 H 0.5964 0.0711 0.7469
H21 H 0.5942 0.1442 0.7947
C12 C 0.5760(18) 0.1548(7) 0.6601(9)
C13 C 0.6393(16) 0.2326(6) 0.5728(9)
C14 C 0.649(2) 0.3066(9) 0.5239(12)
H22 H 0.6413 0.2998 0.4613
H23 H 0.5703 0.3373 0.5412
C15 C 0.789(2) 0.3378(11) 0.5477(14)
H24 H 0.8685 0.3073 0.5303
H25 H 0.7975 0.3448 0.6103
C16 C 0.798(3) 0.4098(11) 0.4998(15)
H26 H 0.7450 0.4086 0.4449
H27 H 0.9001 0.4175 0.4901
H28 H 0.7611 0.4473 0.5349
C17 C 0.5159(14) -0.1156(7) 0.6760(8)
C18 C 0.8896(15) 0.2712(7) 0.2851(9)
N1 N 0.9443(12) -0.0679(6) 0.3600(7)
N2 N 0.8024(13) -0.0167(5) 0.4550(7)
N3 N 0.8393(12) 0.0314(5) 0.3945(7)
N4 N 0.6275(12) 0.1209(5) 0.5924(6)
N5 N 0.6680(12) 0.1735(5) 0.5348(7)
N6 N 0.5827(13) 0.2247(5) 0.6522(7)
N7 N 0.5512(12) -0.0714(5) 0.6306(8)
N8 N 0.8466(13) 0.2263(6) 0.3275(8)
Ag1A Ag 0.96300(13) 0.35083(5) 0.21006(7)
Ag2B Ag 0.35153(12) -0.00994(5) 0.44242(6)
Ag4A Ag 0.45878(14) -0.19666(5) 0.75723(7)
C17A C 0.4841(14) 0.3844(7) 0.8240(8)
C18A C 1.1104(15) -0.2288(7) 0.2149(9)
loop_
_geom_bond_atom_site_label_1
_geom_bond_atom_site_label_2
_geom_bond_site_symmetry_1
_geom_bond_site_symmetry_2
Ag1 N1 1_555 1_555
Ag2 N2 1_555 1_555
Ag3 N3 1_555 1_555
Ag4 N6 1_555 1_555
C1 H1 1_555 1_555
H2 C1 1_555 1_555
H3 C1 1_555 1_555
C2 C1 1_555 1_555
H4 C2 1_555 1_555
H5 C2 1_555 1_555
C3 C2 1_555 1_555
H6 C3 1_555 1_555
H7 C3 1_555 1_555
C4 C3 1_555 1_555
C5 C6 1_555 1_555
C6 H8 1_555 1_555
H9 C6 1_555 1_555
C7 C6 1_555 1_555
H10 C7 1_555 1_555
H11 C7 1_555 1_555
C8 C7 1_555 1_555
H12 C8 1_555 1_555
H13 C8 1_555 1_555
H14 C8 1_555 1_555
C9 H15 1_555 1_555
H16 C9 1_555 1_555
H17 C9 1_555 1_555
C10 C9 1_555 1_555
H18 C10 1_555 1_555
H19 C10 1_555 1_555
C11 C10 1_555 1_555
H20 C11 1_555 1_555
H21 C11 1_555 1_555
C12 C11 1_555 1_555
C13 C14 1_555 1_555
C14 H22 1_555 1_555
H23 C14 1_555 1_555
C15 C14 1_555 1_555
H24 C15 1_555 1_555
H25 C15 1_555 1_555
C16 C15 1_555 1_555
H26 C16 1_555 1_555
H27 C16 1_555 1_555
H28 C16 1_555 1_555
C17 N7 1_555 1_555
C18 N8 1_555 1_555
N1 C4 1_555 1_555
N2 C4 1_555 1_555
N3 C5 1_555 1_555
N4 Ag2 1_555 1_555
N5 Ag3 1_555 1_555
N6 C12 1_555 1_555
N7 Ag2 1_555 1_555
N8 Ag3 1_555 1_555
Ag1A C18 1_555 1_555
Ag2B Ag2 1_555 1_555
Ag4A C17 1_555 1_555
C17A Ag4 1_555 1_555
C18A Ag1 1_555 1_555
C5 N1 1_555 1_555
C12 N4 1_555 1_555
C13 N5 1_555 1_555
C13 N6 1_555 1_555
N2 N3 1_555 1_555
N4 N5 1_555 1_555

#END
