
#######################################################################
#
#                 Cambridge Crystallographic Data Centre
#                                CCDC 
#
#######################################################################
#
# If this CIF has been generated from an entry in the Cambridge 
# Structural Database, then it will include bibliographic, chemical, 
# crystal, experimental, refinement or atomic coordinate data resulting 
# from the CCDC's data processing and validation procedures.
#
#######################################################################

data_TIDWAF
_symmetry_cell_setting           triclinic
_symmetry_space_group_name_H-M   'P -1'
_symmetry_Int_Tables_number      2
_space_group_name_Hall           '-P 1'
loop_
_symmetry_equiv_pos_site_id
_symmetry_equiv_pos_as_xyz
1 x,y,z
2 -x,-y,-z
_cell_length_a                   7.209(11)
_cell_length_b                   9.603(15)
_cell_length_c                   12.84(2)
_cell_angle_alpha                75.38(2)
_cell_angle_beta                 85.46(2)
_cell_angle_gamma                68.38(2)
_cell_volume                     799.502
loop_
_atom_site_label
_atom_site_type_symbol
_atom_site_fract_x
_atom_site_fract_y
_atom_site_fract_z
Au1 Au 0.68324(6) -0.45316(5) 1.05076(4)
Cd1 Cd 0.0000 0.0000 1.0000
O1 O -0.0622(13) 0.3849(11) 0.4268(8)
O2 O 0.5972(12) 0.1714(11) 0.5367(7)
N1 N 0.3398(15) -0.1393(12) 1.0474(9)
N2 N -0.0051(16) 0.2241(11) 1.0450(9)
N3 N 0.0879(14) 0.0883(9) 0.8256(7)
N4 N 0.1293(14) 0.3349(11) 0.4245(7)
N5 N 0.4420(13) 0.2427(10) 0.4787(7)
C1 C 0.4712(17) -0.2533(12) 1.0519(9)
C2 C -0.1106(18) 0.3412(13) 1.0489(9)
C3 C 0.2460(17) 0.1292(13) 0.8092(9)
H1 H 0.3206 0.1182 0.8686
C4 C 0.3059(18) 0.1876(13) 0.7082(9)
H2 H 0.4200 0.2126 0.6999
C5 C 0.1927(16) 0.2081(12) 0.6195(9)
C6 C 0.0256(16) 0.1661(12) 0.6370(9)
H3 H -0.0526 0.1770 0.5791
C7 C -0.0238(17) 0.1079(12) 0.7412(9)
H4 H -0.1372 0.0820 0.7525
C8 C 0.2525(16) 0.2633(12) 0.5101(9)
C9 C 0.2450(17) 0.3394(13) 0.3213(9)
C10 C 0.249(2) 0.1985(16) 0.2849(12)
H5 H 0.3034 0.1074 0.3417
H6 H 0.3297 0.1887 0.2222
H7 H 0.1153 0.2109 0.2680
C11 C 0.137(2) 0.4869(14) 0.2384(10)
H8 H 0.0306 0.4751 0.2057
H9 H 0.2295 0.5080 0.1842
H10 H 0.0841 0.5710 0.2730
C12 C 0.4440(17) 0.3259(13) 0.3629(9)
C13 C 0.4592(19) 0.4780(14) 0.3650(10)
H11 H 0.3606 0.5263 0.4124
H12 H 0.4368 0.5442 0.2938
H13 H 0.5897 0.4601 0.3902
C14 C 0.628(2) 0.2339(16) 0.3103(11)
H14 H 0.6275 0.2840 0.2354
H15 H 0.6290 0.1318 0.3173
H16 H 0.7456 0.2276 0.3448
Au1A Au -0.68324(6) 0.45316(5) 0.94924(4)
Au1_2 Au -0.31676(6) 0.54684(5) 1.05076(4)
Au1A_2 Au 0.31676(6) -0.54684(5) 0.94924(4)
O1A O 0.0622(13) -0.3849(11) 1.5732(8)
O2A O -0.5972(12) -0.1714(11) 1.4633(7)
N1A N -0.3398(15) 0.1393(12) 0.9526(9)
N2A N 0.0051(16) -0.2241(11) 0.9550(9)
N3A N -0.0879(14) -0.0883(9) 1.1744(7)
N4A N -0.1293(14) -0.3349(11) 1.5755(7)
N5A N -0.4420(13) -0.2427(10) 1.5213(7)
C1A C -0.4712(17) 0.2533(12) 0.9481(9)
C2A C 0.1106(18) -0.3412(13) 0.9511(9)
C2_2 C 0.8894(18) -0.6588(13) 1.0489(9)
C2A_2 C -0.8894(18) 0.6588(13) 0.9511(9)
C3A C -0.2460(17) -0.1292(13) 1.1908(9)
H1A H -0.3206 -0.1182 1.1314
C4A C -0.3059(18) -0.1876(13) 1.2918(9)
H2A H -0.4200 -0.2126 1.3001
C5A C -0.1927(16) -0.2081(12) 1.3805(9)
C6A C -0.0256(16) -0.1661(12) 1.3630(9)
H3A H 0.0526 -0.1770 1.4209
C7A C 0.0238(17) -0.1079(12) 1.2588(9)
H4A H 0.1372 -0.0820 1.2475
C8A C -0.2525(16) -0.2633(12) 1.4899(9)
C9A C -0.2450(17) -0.3394(13) 1.6787(9)
C10A C -0.249(2) -0.1985(16) 1.7151(12)
H5A H -0.3034 -0.1074 1.6583
H6A H -0.3297 -0.1887 1.7778
H7A H -0.1153 -0.2109 1.7320
C11A C -0.137(2) -0.4869(14) 1.7616(10)
H8A H -0.0306 -0.4751 1.7943
H9A H -0.2295 -0.5080 1.8158
H10A H -0.0841 -0.5710 1.7270
C12A C -0.4440(17) -0.3259(13) 1.6371(9)
C13A C -0.4592(19) -0.4780(14) 1.6350(10)
H11A H -0.3606 -0.5263 1.5876
H12A H -0.4368 -0.5442 1.7062
H13A H -0.5897 -0.4601 1.6098
C14A C -0.628(2) -0.2339(16) 1.6897(11)
H14A H -0.6275 -0.2840 1.7646
H15A H -0.6290 -0.1318 1.6827
H16A H -0.7456 -0.2276 1.6552
loop_
_geom_bond_atom_site_label_1
_geom_bond_atom_site_label_2
_geom_bond_site_symmetry_1
_geom_bond_site_symmetry_2
Au1 C1 1_555 1_555
Cd1 N1 1_555 1_555
O1 N4 1_555 1_555
O2 N5 1_555 1_555
N1 C1 1_555 1_555
N2 Cd1 1_555 1_555
N3 Cd1 1_555 1_555
N4 C8 1_555 1_555
N5 C8 1_555 1_555
C2 N2 1_555 1_555
C3 N3 1_555 1_555
H1 C3 1_555 1_555
C4 C3 1_555 1_555
H2 C4 1_555 1_555
C5 C4 1_555 1_555
C6 C5 1_555 1_555
H3 C6 1_555 1_555
C7 N3 1_555 1_555
H4 C7 1_555 1_555
C8 C5 1_555 1_555
C9 N4 1_555 1_555
C10 C9 1_555 1_555
H5 C10 1_555 1_555
H6 C10 1_555 1_555
H7 C10 1_555 1_555
C11 C9 1_555 1_555
H8 C11 1_555 1_555
H9 C11 1_555 1_555
H10 C11 1_555 1_555
C12 N5 1_555 1_555
C13 C12 1_555 1_555
H11 C13 1_555 1_555
H12 C13 1_555 1_555
H13 C13 1_555 1_555
C14 C12 1_555 1_555
H14 C14 1_555 1_555
H15 C14 1_555 1_555
H16 C14 1_555 1_555
Au1A C1A 1_555 1_555
Au1_2 C2 1_555 1_555
Au1A_2 C2A 1_555 1_555
O1A N4A 1_555 1_555
O2A N5A 1_555 1_555
N1A Cd1 1_555 1_555
N2A Cd1 1_555 1_555
N3A Cd1 1_555 1_555
N4A C8A 1_555 1_555
N5A C8A 1_555 1_555
C1A N1A 1_555 1_555
C2A N2A 1_555 1_555
C2_2 Au1 1_555 1_555
C2A_2 Au1A 1_555 1_555
C3A N3A 1_555 1_555
H1A C3A 1_555 1_555
C4A C3A 1_555 1_555
H2A C4A 1_555 1_555
C5A C4A 1_555 1_555
C6A C5A 1_555 1_555
H3A C6A 1_555 1_555
C7A N3A 1_555 1_555
H4A C7A 1_555 1_555
C8A C5A 1_555 1_555
C9A N4A 1_555 1_555
C10A C9A 1_555 1_555
H5A C10A 1_555 1_555
H6A C10A 1_555 1_555
H7A C10A 1_555 1_555
C11A C9A 1_555 1_555
H8A C11A 1_555 1_555
H9A C11A 1_555 1_555
H10A C11A 1_555 1_555
C12A N5A 1_555 1_555
C13A C12A 1_555 1_555
H11A C13A 1_555 1_555
H12A C13A 1_555 1_555
H13A C13A 1_555 1_555
C14A C12A 1_555 1_555
H14A C14A 1_555 1_555
H15A C14A 1_555 1_555
H16A C14A 1_555 1_555
C6 C7 1_555 1_555
C9 C12 1_555 1_555
C6A C7A 1_555 1_555
C9A C12A 1_555 1_555

#END
