
#######################################################################
#
#                 Cambridge Crystallographic Data Centre
#                                CCDC 
#
#######################################################################
#
# If this CIF has been generated from an entry in the Cambridge 
# Structural Database, then it will include bibliographic, chemical, 
# crystal, experimental, refinement or atomic coordinate data resulting 
# from the CCDC's data processing and validation procedures.
#
#######################################################################

data_TIDZAJ
_symmetry_cell_setting           monoclinic
_symmetry_space_group_name_H-M   'P 21/n'
_symmetry_Int_Tables_number      14
_space_group_name_Hall           '-P 2yn'
loop_
_symmetry_equiv_pos_site_id
_symmetry_equiv_pos_as_xyz
1 x,y,z
2 1/2-x,1/2+y,1/2-z
3 -x,-y,-z
4 1/2+x,1/2-y,1/2+z
_cell_length_a                   9.4378(4)
_cell_length_b                   5.7870(2)
_cell_length_c                   18.0081(8)
_cell_angle_alpha                90
_cell_angle_beta                 92.641(4)
_cell_angle_gamma                90
_cell_volume                     982.496
loop_
_atom_site_label
_atom_site_type_symbol
_atom_site_fract_x
_atom_site_fract_y
_atom_site_fract_z
N1 N 0.66946(19) 0.0726(4) 0.99851(12)
C1 C 0.6510(2) -0.1052(4) 0.97049(13)
N2 N 0.75006(19) 0.5424(4) 1.11763(11)
C2 C 0.9493(3) 0.6671(5) 1.17712(14)
C3 C 0.7187(2) 0.7262(5) 1.15840(13)
C4 C 1.1040(3) 0.6773(6) 1.20000(16)
H1 H 1.1366 0.5235 1.2159
H2 H 1.1184 0.7866 1.2412
H3 H 1.1580 0.7285 1.1578
C5 C 0.9645(2) 0.3254(5) 1.09022(13)
H4 H 0.9126 0.1783 1.0960
H5 H 1.0615 0.3048 1.1126
C6 C 0.8405(3) 0.8075(5) 1.19676(14)
H6 H 0.8467 0.9351 1.2299
C7 C 0.5701(3) 0.8143(5) 1.16102(14)
H7 H 0.5202 0.7885 1.1128
H8 H 0.5719 0.9801 1.1722
H9 H 0.5209 0.7321 1.1998
Cu1 Cu 0.62858(3) 0.37245(6) 1.043013(17)
S1 S 0.61785(6) -0.35965(11) 0.93017(3)
N3 N 0.89297(18) 0.5072(4) 1.13021(10)
C8 C 0.9740(2) 0.3787(4) 1.00743(14)
H10 H 1.0390 0.2664 0.9853
H11 H 0.8791 0.3582 0.9826
N2B N 1.24994(19) 0.4576(4) 0.88237(11)
C2B C 1.0507(3) 0.3329(5) 0.82288(14)
C3B C 1.2813(2) 0.2738(5) 0.84160(13)
C4B C 0.8960(3) 0.3227(6) 0.80000(16)
H1B H 0.8634 0.4765 0.7841
H2B H 0.8816 0.2134 0.7588
H3B H 0.8420 0.2715 0.8422
C5B C 1.0355(2) 0.6746(5) 0.90978(13)
H4B H 1.0874 0.8217 0.9040
H5B H 0.9385 0.6952 0.8874
C6B C 1.1595(3) 0.1925(5) 0.80324(14)
H6B H 1.1533 0.0649 0.7701
C7B C 1.4299(3) 0.1857(5) 0.83898(14)
H7B H 1.4798 0.2115 0.8872
H8B H 1.4281 0.0199 0.8278
H9B H 1.4791 0.2679 0.8002
N3B N 1.10703(18) 0.4928(4) 0.86979(10)
C8B C 1.0260(2) 0.6213(4) 0.99257(14)
H10B H 0.9610 0.7336 1.0147
H11B H 1.1209 0.6418 1.0174
N1B N 0.33054(19) -0.0726(4) 1.00149(12)
C1B C 0.3490(2) 0.1052(4) 1.02951(13)
Cu1B Cu 0.37142(3) -0.37245(6) 0.956987(17)
S1B S 0.38215(6) 0.35965(11) 1.06983(3)
N2B_2 N 0.24994(19) -0.5424(4) 0.88237(11)
Cu1_2 Cu 0.62858(3) -0.62755(6) 1.043013(17)
Cu1B_2 Cu 0.37142(3) 0.62755(6) 0.956987(17)
Cu1B_3 Cu 1.37142(3) 0.62755(6) 0.956987(17)
S1_2 S 0.61785(6) 0.64035(11) 0.93017(3)
S1B_2 S 0.38215(6) -0.64035(11) 1.06983(3)
loop_
_geom_bond_atom_site_label_1
_geom_bond_atom_site_label_2
_geom_bond_site_symmetry_1
_geom_bond_site_symmetry_2
N1 C1 1_555 1_555
C1 S1 1_555 1_555
N2 C3 1_555 1_555
C2 C4 1_555 1_555
C3 C6 1_555 1_555
C4 H1 1_555 1_555
H2 C4 1_555 1_555
H3 C4 1_555 1_555
C5 H4 1_555 1_555
H5 C5 1_555 1_555
C6 C2 1_555 1_555
H6 C6 1_555 1_555
C7 C3 1_555 1_555
H7 C7 1_555 1_555
H8 C7 1_555 1_555
H9 C7 1_555 1_555
Cu1 N1 1_555 1_555
S1 Cu1B 1_555 1_555
N3 N2 1_555 1_555
C8 C5 1_555 1_555
H10 C8 1_555 1_555
H11 C8 1_555 1_555
N2B C3B 1_555 1_555
C2B C4B 1_555 1_555
C3B C6B 1_555 1_555
C4B H1B 1_555 1_555
H2B C4B 1_555 1_555
H3B C4B 1_555 1_555
C5B H4B 1_555 1_555
H5B C5B 1_555 1_555
C6B C2B 1_555 1_555
H6B C6B 1_555 1_555
C7B C3B 1_555 1_555
H7B C7B 1_555 1_555
H8B C7B 1_555 1_555
H9B C7B 1_555 1_555
N3B N2B 1_555 1_555
C8B C8 1_555 1_555
H10B C8B 1_555 1_555
H11B C8B 1_555 1_555
N1B C1B 1_555 1_555
C1B S1B 1_555 1_555
Cu1B N1B 1_555 1_555
S1B Cu1 1_555 1_555
N2B_2 Cu1B 1_555 1_555
Cu1_2 S1 1_555 1_555
Cu1B_2 S1B 1_555 1_555
Cu1B_3 N2B 1_555 1_555
S1_2 Cu1 1_555 1_555
S1B_2 Cu1B 1_555 1_555
N2 Cu1 1_555 1_555
C2 N3 1_555 1_555
C5 N3 1_555 1_555
C2B N3B 1_555 1_555
C5B N3B 1_555 1_555
C5B C8B 1_555 1_555
Cu1_2 S1B_2 1_555 1_555
Cu1B_2 S1_2 1_555 1_555

#END
