
#######################################################################
#
#                 Cambridge Crystallographic Data Centre
#                                CCDC 
#
#######################################################################
#
# If this CIF has been generated from an entry in the Cambridge 
# Structural Database, then it will include bibliographic, chemical, 
# crystal, experimental, refinement or atomic coordinate data resulting 
# from the CCDC's data processing and validation procedures.
#
#######################################################################

data_TIFFIY
_symmetry_cell_setting           monoclinic
_symmetry_space_group_name_H-M   'P 21/c'
_symmetry_Int_Tables_number      14
_space_group_name_Hall           '-P 2ybc'
loop_
_symmetry_equiv_pos_site_id
_symmetry_equiv_pos_as_xyz
1 x,y,z
2 -x,1/2+y,1/2-z
3 -x,-y,-z
4 x,1/2-y,1/2+z
_cell_length_a                   10.194(1)
_cell_length_b                   19.603(1)
_cell_length_c                   12.792(1)
_cell_angle_alpha                90
_cell_angle_beta                 106.65(1)
_cell_angle_gamma                90
_cell_volume                     2449.09
loop_
_atom_site_label
_atom_site_type_symbol
_atom_site_fract_x
_atom_site_fract_y
_atom_site_fract_z
O10 O -0.223(3) 0.025(1) 0.187(2)
O11 O -0.246(2) 0.0891(8) 0.340(1)
O12 O -0.425(2) 0.0407(9) 0.177(1)
N5 N -0.290(5) 0.051(2) 0.253(4)
O14 O 0.792(1) 0.0758(6) 0.6502(8)
O15 O 0.028(1) 0.0192(6) 0.6078(8)
O16 O -0.419(1) 0.0740(6) -0.0609(9)
Eu1 Eu 0.10241(4) 0.25091(3) 0.05090(3)
O1 O 0.7329(8) 0.1751(5) 0.1318(7)
O2 O 0.2887(8) 0.2634(3) -0.0320(6)
O3 O 0.3276(7) 0.2501(4) 0.1861(5)
O4 O -0.0795(7) 0.1697(4) -0.0005(5)
O5 O -0.2021(8) 0.1017(4) -0.1319(7)
O6 O 0.0375(7) 0.2549(4) 0.2124(5)
O7 O 0.0004(7) 0.2199(4) 0.3651(5)
O8 O 0.1793(8) 0.3665(4) 0.0863(6)
O9 O -0.1029(7) 0.3249(4) 0.0228(5)
N1 N 0.5215(10) 0.1903(5) 0.2448(7)
N2 N 0.4841(9) 0.2046(5) -0.0207(7)
N3 N 0.1622(8) 0.1355(4) -0.0463(6)
N4 N 0.1685(8) 0.1361(4) 0.1902(6)
C1 C 0.617(1) 0.2451(7) 0.2356(9)
C2 C 0.673(1) 0.2416(7) 0.1385(9)
C3 C 0.577(1) 0.2587(7) 0.0272(9)
C4 C 0.349(1) 0.2116(6) -0.0487(7)
C5 C 0.262(1) 0.1516(6) -0.1056(7)
C6 C 0.032(1) 0.1154(5) -0.1187(7)
C7 C -0.091(1) 0.1296(5) -0.0795(8)
C8 C 0.072(1) 0.1379(5) 0.2570(8)
C9 C 0.0364(10) 0.2094(6) 0.2818(7)
C10 C 0.150(1) 0.0734(5) 0.1243(8)
C11 C 0.223(1) 0.0811(5) 0.0355(8)
C12 C 0.312(1) 0.1406(5) 0.2598(7)
C13 C 0.390(1) 0.1981(6) 0.2267(7)
H1 H 0.5698 0.2873 0.2320
H2 H 0.6922 0.2440 0.2997
H3 H 0.7459 0.2737 0.1517
H4 H 0.6301 0.2691 -0.0206
H5 H 0.5243 0.2975 0.0346
H6 H 0.3191 0.1132 -0.1051
H7 H 0.2156 0.1635 -0.1788
H8 H 0.0195 0.1390 -0.1858
H9 H 0.0347 0.0677 -0.1308
H10 H -0.0092 0.1149 0.2187
H11 H 0.1133 0.1151 0.3239
H12 H 0.0555 0.0656 0.0913
H13 H 0.1885 0.0359 0.1699
H14 H 0.2176 0.0388 -0.0018
H15 H 0.3162 0.0921 0.0694
H16 H 0.3571 0.0988 0.2546
H17 H 0.3118 0.1477 0.3332
H18 H 0.7873 0.1774 0.0788
H19 H 0.5515 0.1754 0.3114
H20 H 0.4941 0.1783 -0.0721
H21 H 0.2817 0.3824 0.1150
H22 H 0.1511 0.4037 0.0979
H23 H -0.1049 0.3615 -0.0004
H24 H -0.1505 0.3364 0.0482
Eu1C Eu 0.10241(4) 0.24909(3) 0.55090(3)
O7C O 0.0004(7) 0.2801(4) -0.1349(5)
O13? O 0.4468 0.0812 0.6214
C14? C 0.4505 0.0430 0.5434
C15? C 0.5401 0.0151 0.5186
C16? C 0.3329 0.0303 0.4861
H25? H 0.5287 -0.0329 0.5217
H26? H 0.6256 0.0279 0.5676
H27? H 0.5379 0.0279 0.4465
H28? H 0.3369 0.0014 0.4276
H29? H 0.2880 0.0717 0.4577
H30? H 0.2834 0.0082 0.5291
loop_
_geom_bond_atom_site_label_1
_geom_bond_atom_site_label_2
_geom_bond_site_symmetry_1
_geom_bond_site_symmetry_2
Eu1 O2 1_555 1_555
O1 C2 1_555 1_555
O2 C4 1_555 1_555
O3 Eu1 1_555 1_555
O4 Eu1 1_555 1_555
O5 C7 1_555 1_555
O6 Eu1 1_555 1_555
O7 C9 1_555 1_555
O8 Eu1 1_555 1_555
O9 Eu1 1_555 1_555
O10 N5 1_555 1_555
O11 N5 1_555 1_555
O12 N5 1_555 1_555
N1 C1 1_555 1_555
N2 C3 1_555 1_555
N3 Eu1 1_555 1_555
N4 Eu1 1_555 1_555
C1 C2 1_555 1_555
C2 C3 1_555 1_555
C3 H4 1_555 1_555
C4 N2 1_555 1_555
C5 N3 1_555 1_555
C6 N3 1_555 1_555
C7 O4 1_555 1_555
C8 N4 1_555 1_555
C9 O6 1_555 1_555
C10 N4 1_555 1_555
C11 N3 1_555 1_555
C12 N4 1_555 1_555
C13 O3 1_555 1_555
H1 C1 1_555 1_555
H2 C1 1_555 1_555
H3 C2 1_555 1_555
H5 C3 1_555 1_555
H6 C5 1_555 1_555
H7 C5 1_555 1_555
H8 C6 1_555 1_555
H9 C6 1_555 1_555
H10 C8 1_555 1_555
H11 C8 1_555 1_555
H12 C10 1_555 1_555
H13 C10 1_555 1_555
H14 C11 1_555 1_555
H15 C11 1_555 1_555
H16 C12 1_555 1_555
H17 C12 1_555 1_555
H18 O1 1_555 1_555
H19 N1 1_555 1_555
H20 N2 1_555 1_555
H21 O8 1_555 1_555
H22 O8 1_555 1_555
H23 O9 1_555 1_555
H24 O9 1_555 1_555
Eu1C O7 1_555 1_555
O7C Eu1 1_555 1_555
N1 C13 1_555 1_555
C4 C5 1_555 1_555
C6 C7 1_555 1_555
C8 C9 1_555 1_555
C10 C11 1_555 1_555
C12 C13 1_555 1_555

#END
