
#######################################################################
#
#                 Cambridge Crystallographic Data Centre
#                                CCDC 
#
#######################################################################
#
# If this CIF has been generated from an entry in the Cambridge 
# Structural Database, then it will include bibliographic, chemical, 
# crystal, experimental, refinement or atomic coordinate data resulting 
# from the CCDC's data processing and validation procedures.
#
#######################################################################

data_TIFQEG
_symmetry_cell_setting           monoclinic
_symmetry_space_group_name_H-M   'P 21/c'
_symmetry_Int_Tables_number      14
_space_group_name_Hall           '-P 2ybc'
loop_
_symmetry_equiv_pos_site_id
_symmetry_equiv_pos_as_xyz
1 x,y,z
2 -x,1/2+y,1/2-z
3 -x,-y,-z
4 x,1/2-y,1/2+z
_cell_length_a                   9.8650(8)
_cell_length_b                   20.8697(17)
_cell_length_c                   17.5587(14)
_cell_angle_alpha                90
_cell_angle_beta                 101.2780(10)
_cell_angle_gamma                90
_cell_volume                     3545.17
loop_
_atom_site_label
_atom_site_type_symbol
_atom_site_fract_x
_atom_site_fract_y
_atom_site_fract_z
Zn1 Zn 0.26243(2) 0.341581(10) 0.746218(12)
C1 C 0.6182(2) 0.47416(9) 0.97819(11)
C2 C 0.02279(19) 0.45762(9) 0.56382(11)
C3 C 0.6285(2) 0.51639(9) 1.04055(11)
H1 H 0.7158 0.5274 1.0681
C4 C 0.12358(19) 0.50204(9) 0.55432(11)
C5 C 0.3007(2) 0.24720(10) 0.62121(12)
C6 C 0.0457(2) 0.40785(9) 0.62868(11)
C7 C 0.2768(2) 0.23065(10) 0.86443(12)
C8 C 0.7524(2) 0.45201(10) 0.95845(12)
C9 C 0.4868(2) 0.45745(9) 0.93706(11)
C10 C 0.4692(2) 0.40825(9) 0.87189(12)
C11 C -0.1000(2) 0.45645(9) 0.50897(11)
H2 H -0.1682 0.4271 0.5148
C12 C 0.5296(3) 0.27257(12) 0.59216(13)
C13 C 0.2575(2) 0.51020(10) 0.61224(12)
C14 C 0.0997(3) 0.18281(13) 0.95903(15)
H3 H 0.0427 0.1677 0.9915
C15 C 0.1427(2) 0.25913(10) 0.86104(11)
C16 C 0.0844(3) 0.22945(11) 0.64686(13)
H4 H 0.0134 0.2415 0.6717
C17 C 0.2527(2) 0.55312(10) 0.67934(12)
C18 C 0.7976(2) 0.48131(11) 0.88979(12)
C19 C 0.5371(2) 0.37548(11) 0.68944(13)
H5 H 0.5403 0.4110 0.7218
C20 C 0.4229(2) 0.28669(10) 0.63224(11)
C21 C 0.1472(2) 0.59620(12) 0.67847(13)
H6 H 0.0731 0.5967 0.6366
C22 C 0.0551(3) 0.23562(11) 0.90841(13)
C23 C -0.1119(3) 0.31385(13) 0.85143(15)
H7 H -0.1979 0.3334 0.8470
C24 C 0.4464(3) 0.15102(12) 0.91375(17)
H8 H 0.4753 0.1148 0.9434
C25 C 0.5138(3) 0.21834(13) 0.54075(14)
H9 H 0.5840 0.2082 0.5144
C26 C -0.0187(2) 0.33395(11) 0.80575(14)
H10 H -0.0454 0.3668 0.7702
C27 C 0.4859(2) 0.23224(11) 0.82594(14)
H11 H 0.5459 0.2512 0.7979
C28 C 0.3618(3) 0.59465(13) 0.80369(16)
H12 H 0.4339 0.5934 0.8466
C29 C 0.7076(3) 0.51526(14) 0.83486(15)
H13 H 0.6176 0.5223 0.8416
C30 C 0.1497(3) 0.63893(13) 0.73919(15)
H14 H 0.0783 0.6683 0.7375
C31 C 0.2223(3) 0.15475(12) 0.96039(15)
H15 H 0.2475 0.1198 0.9929
C32 C 0.2897(3) 0.19473(11) 0.56957(13)
C33 C 0.3153(3) 0.17716(11) 0.91335(14)
C34 C 0.1672(4) 0.15894(12) 0.55951(16)
H16 H 0.1557 0.1236 0.5267
C35 C 0.4000(3) 0.18221(13) 0.53013(15)
H17 H 0.3925 0.1478 0.4959
C36 C 0.3618(3) 0.55277(11) 0.74289(15)
H18 H 0.4348 0.5243 0.7444
C37 C -0.0741(3) 0.26503(13) 0.90257(15)
H19 H -0.1343 0.2511 0.9338
C38 C 0.2573(3) 0.63784(13) 0.80152(15)
H20 H 0.2592 0.6665 0.8423
C39 C 0.0645(3) 0.17588(12) 0.59784(16)
H21 H -0.0170 0.1523 0.5915
C40 C 0.6441(3) 0.31388(14) 0.60406(15)
H22 H 0.7178 0.3061 0.5794
C41 C 0.9338(3) 0.47453(13) 0.88072(18)
H23 H 0.9972 0.4532 0.9183
C42 C 0.8822(4) 0.53001(18) 0.7603(2)
H24 H 0.9097 0.5448 0.7157
C43 C 0.6467(2) 0.36502(14) 0.65149(15)
H25 H 0.7213 0.3931 0.6588
C44 C 0.5310(3) 0.17860(13) 0.87091(16)
H26 H 0.6185 0.1618 0.8716
C45 C 0.9749(4) 0.49925(17) 0.8165(2)
H27 H 1.0664 0.4951 0.8112
C46 C 0.7492(3) 0.53905(19) 0.76971(18)
H28 H 0.6868 0.5612 0.7323
N1 N 0.42824(17) 0.33696(8) 0.68131(10)
N2 N 0.19952(18) 0.26361(8) 0.65940(10)
N3 N 0.36112(18) 0.25749(8) 0.82125(10)
N4 N 0.10597(17) 0.30860(8) 0.81043(10)
O1 O 0.15800(14) 0.41330(6) 0.67786(8)
O2 O -0.04301(15) 0.36611(8) 0.62722(9)
O3 O 0.34847(15) 0.40504(7) 0.83004(8)
O4 O 0.57103(15) 0.37584(7) 0.86587(9)
O5 O 0.82815(18) 0.41670(9) 1.00251(10)
O6 O 0.36469(16) 0.48830(9) 0.59967(10)
C1B C 0.3818(2) 0.52584(9) 1.02181(11)
C3B C 0.3715(2) 0.48361(9) 0.95945(11)
H1B H 0.2842 0.4726 0.9319
C8B C 0.2476(2) 0.54799(10) 1.04155(12)
C9B C 0.5132(2) 0.54255(9) 1.06294(11)
C10B C 0.5308(2) 0.59175(9) 1.12811(12)
C18B C 0.2024(2) 0.51869(11) 1.11021(12)
C29B C 0.2924(3) 0.48474(14) 1.16514(15)
H13B H 0.3824 0.4777 1.1584
C41B C 0.0662(3) 0.52547(13) 1.11928(18)
H23B H 0.0028 0.5468 1.0817
C42B C 0.1178(4) 0.46999(18) 1.2397(2)
H24B H 0.0903 0.4552 1.2843
C45B C 0.0251(4) 0.50075(17) 1.1835(2)
H27B H -0.0664 0.5049 1.1888
C46B C 0.2508(3) 0.46095(19) 1.23029(18)
H28B H 0.3132 0.4388 1.2677
O3B O 0.65153(15) 0.59496(7) 1.16996(8)
O4B O 0.42897(15) 0.62416(7) 1.13413(9)
O5B O 0.17185(18) 0.58330(9) 0.99749(10)
C2B C -0.02279(19) 0.54238(9) 0.43618(11)
C4B C -0.12358(19) 0.49796(9) 0.44568(11)
C6B C -0.0457(2) 0.59215(9) 0.37132(11)
C11B C 0.1000(2) 0.54355(9) 0.49103(11)
H2B H 0.1682 0.5729 0.4852
C13B C -0.2575(2) 0.48980(10) 0.38776(12)
C17B C -0.2527(2) 0.44688(10) 0.32066(12)
C21B C -0.1472(2) 0.40380(12) 0.32153(13)
H6B H -0.0731 0.4033 0.3634
C28B C -0.3618(3) 0.40535(13) 0.19631(16)
H12B H -0.4339 0.4066 0.1534
C30B C -0.1497(3) 0.36107(13) 0.26081(15)
H14B H -0.0783 0.3317 0.2625
C36B C -0.3618(3) 0.44723(11) 0.25711(15)
H18B H -0.4348 0.4757 0.2556
C38B C -0.2573(3) 0.36216(13) 0.19848(15)
H20B H -0.2592 0.3335 0.1577
O1B O -0.15800(14) 0.58670(6) 0.32214(8)
O2B O 0.04301(15) 0.63389(8) 0.37278(9)
O6B O -0.36469(16) 0.51170(9) 0.40033(10)
Zn1B Zn -0.26243(2) 0.658419(10) 0.253782(12)
C5B C -0.3007(2) 0.75280(10) 0.37879(12)
C7B C -0.2768(2) 0.76935(10) 0.13557(12)
C12B C -0.5296(3) 0.72743(12) 0.40784(13)
C14B C -0.0997(3) 0.81719(13) 0.04097(15)
H3B H -0.0427 0.8323 0.0085
C15B C -0.1427(2) 0.74087(10) 0.13896(11)
C16B C -0.0844(3) 0.77055(11) 0.35314(13)
H4B H -0.0134 0.7585 0.3283
C19B C -0.5371(2) 0.62452(11) 0.31056(13)
H5B H -0.5403 0.5890 0.2782
C20B C -0.4229(2) 0.71331(10) 0.36776(11)
C22B C -0.0551(3) 0.76438(11) 0.09159(13)
C23B C 0.1119(3) 0.68615(13) 0.14857(15)
H7B H 0.1979 0.6666 0.1530
C24B C -0.4464(3) 0.84898(12) 0.08625(17)
H8B H -0.4753 0.8852 0.0566
C25B C -0.5138(3) 0.78166(13) 0.45925(14)
H9B H -0.5840 0.7918 0.4856
C26B C 0.0187(2) 0.66605(11) 0.19425(14)
H10B H 0.0454 0.6332 0.2298
C27B C -0.4859(2) 0.76776(11) 0.17406(14)
H11B H -0.5459 0.7488 0.2021
C31B C -0.2223(3) 0.84525(12) 0.03961(15)
H15B H -0.2475 0.8802 0.0071
C32B C -0.2897(3) 0.80527(11) 0.43043(13)
C33B C -0.3153(3) 0.82284(11) 0.08665(14)
C34B C -0.1672(4) 0.84106(12) 0.44049(16)
H16B H -0.1557 0.8764 0.4733
C35B C -0.4000(3) 0.81779(13) 0.46987(15)
H17B H -0.3925 0.8522 0.5041
C37B C 0.0741(3) 0.73497(13) 0.09743(15)
H19B H 0.1343 0.7489 0.0662
C39B C -0.0645(3) 0.82412(12) 0.40216(16)
H21B H 0.0170 0.8477 0.4085
C40B C -0.6441(3) 0.68612(14) 0.39594(15)
H22B H -0.7178 0.6939 0.4206
C43B C -0.6467(2) 0.63498(14) 0.34851(15)
H25B H -0.7213 0.6069 0.3412
C44B C -0.5310(3) 0.82140(13) 0.12909(16)
H26B H -0.6185 0.8382 0.1284
N1B N -0.42824(17) 0.66304(8) 0.31869(10)
N2B N -0.19952(18) 0.73639(8) 0.34060(10)
N3B N -0.36112(18) 0.74251(8) 0.17875(10)
N4B N -0.10597(17) 0.69140(8) 0.18957(10)
Zn1B_2 Zn 0.73757(2) 0.658419(10) 1.253782(12)
O3B_2 O -0.34847(15) 0.59496(7) 0.16996(8)
loop_
_geom_bond_atom_site_label_1
_geom_bond_atom_site_label_2
_geom_bond_site_symmetry_1
_geom_bond_site_symmetry_2
Zn1 N1 1_555 1_555
C1 C3 1_555 1_555
C2 C4 1_555 1_555
C3 H1 1_555 1_555
C4 C13 1_555 1_555
C5 C20 1_555 1_555
C6 C2 1_555 1_555
C7 C15 1_555 1_555
C8 C1 1_555 1_555
C9 C1 1_555 1_555
C10 C9 1_555 1_555
C11 C2 1_555 1_555
H2 C11 1_555 1_555
C12 C20 1_555 1_555
C13 C17 1_555 1_555
C14 H3 1_555 1_555
C15 C22 1_555 1_555
C16 H4 1_555 1_555
C17 C21 1_555 1_555
C18 C8 1_555 1_555
C19 H5 1_555 1_555
C20 N1 1_555 1_555
C21 H6 1_555 1_555
C22 C14 1_555 1_555
C23 H7 1_555 1_555
C24 H8 1_555 1_555
C25 C12 1_555 1_555
H9 C25 1_555 1_555
C26 C23 1_555 1_555
H10 C26 1_555 1_555
C27 H11 1_555 1_555
C28 H12 1_555 1_555
C29 C18 1_555 1_555
H13 C29 1_555 1_555
C30 C21 1_555 1_555
H14 C30 1_555 1_555
C31 C14 1_555 1_555
H15 C31 1_555 1_555
C32 C5 1_555 1_555
C33 C7 1_555 1_555
C34 C32 1_555 1_555
H16 C34 1_555 1_555
C35 C25 1_555 1_555
H17 C35 1_555 1_555
C36 C17 1_555 1_555
H18 C36 1_555 1_555
C37 C22 1_555 1_555
H19 C37 1_555 1_555
C38 C28 1_555 1_555
H20 C38 1_555 1_555
C39 C16 1_555 1_555
H21 C39 1_555 1_555
C40 C12 1_555 1_555
H22 C40 1_555 1_555
C41 C18 1_555 1_555
H23 C41 1_555 1_555
C42 H24 1_555 1_555
C43 C19 1_555 1_555
H25 C43 1_555 1_555
C44 C24 1_555 1_555
H26 C44 1_555 1_555
C45 C41 1_555 1_555
H27 C45 1_555 1_555
C46 C29 1_555 1_555
H28 C46 1_555 1_555
N1 C19 1_555 1_555
N2 Zn1 1_555 1_555
N3 Zn1 1_555 1_555
N4 Zn1 1_555 1_555
O1 Zn1 1_555 1_555
O2 C6 1_555 1_555
O3 Zn1 1_555 1_555
O4 C10 1_555 1_555
O5 C8 1_555 1_555
O6 C13 1_555 1_555
C1B C3B 1_555 1_555
C3B C9 1_555 1_555
H1B C3B 1_555 1_555
C8B C1B 1_555 1_555
C9B C3 1_555 1_555
C10B C9B 1_555 1_555
C18B C8B 1_555 1_555
C29B C18B 1_555 1_555
H13B C29B 1_555 1_555
C41B C18B 1_555 1_555
H23B C41B 1_555 1_555
C42B H24B 1_555 1_555
C45B C41B 1_555 1_555
H27B C45B 1_555 1_555
C46B C29B 1_555 1_555
H28B C46B 1_555 1_555
O3B C10B 1_555 1_555
O4B C10B 1_555 1_555
O5B C8B 1_555 1_555
C2B C4B 1_555 1_555
C4B C11 1_555 1_555
C6B C2B 1_555 1_555
C11B C4 1_555 1_555
H2B C11B 1_555 1_555
C13B C4B 1_555 1_555
C17B C13B 1_555 1_555
C21B C17B 1_555 1_555
H6B C21B 1_555 1_555
C28B H12B 1_555 1_555
C30B C21B 1_555 1_555
H14B C30B 1_555 1_555
C36B C17B 1_555 1_555
H18B C36B 1_555 1_555
C38B C28B 1_555 1_555
H20B C38B 1_555 1_555
O1B C6B 1_555 1_555
O2B C6B 1_555 1_555
O6B C13B 1_555 1_555
Zn1B O1B 1_555 1_555
C5B C20B 1_555 1_555
C7B C15B 1_555 1_555
C12B C20B 1_555 1_555
C14B H3B 1_555 1_555
C15B C22B 1_555 1_555
C16B H4B 1_555 1_555
C19B H5B 1_555 1_555
C20B N1B 1_555 1_555
C22B C14B 1_555 1_555
C23B H7B 1_555 1_555
C24B H8B 1_555 1_555
C25B C12B 1_555 1_555
H9B C25B 1_555 1_555
C26B C23B 1_555 1_555
H10B C26B 1_555 1_555
C27B H11B 1_555 1_555
C31B C14B 1_555 1_555
H15B C31B 1_555 1_555
C32B C5B 1_555 1_555
C33B C7B 1_555 1_555
C34B C32B 1_555 1_555
H16B C34B 1_555 1_555
C35B C25B 1_555 1_555
H17B C35B 1_555 1_555
C37B C22B 1_555 1_555
H19B C37B 1_555 1_555
C39B C16B 1_555 1_555
H21B C39B 1_555 1_555
C40B C12B 1_555 1_555
H22B C40B 1_555 1_555
C43B C19B 1_555 1_555
H25B C43B 1_555 1_555
C44B C24B 1_555 1_555
H26B C44B 1_555 1_555
N1B Zn1B 1_555 1_555
N2B Zn1B 1_555 1_555
N3B Zn1B 1_555 1_555
N4B Zn1B 1_555 1_555
Zn1B_2 O3B 1_555 1_555
O3B_2 Zn1B 1_555 1_555
C5 N2 1_555 1_555
C6 O1 1_555 1_555
C7 N3 1_555 1_555
C10 O3 1_555 1_555
C15 N4 1_555 1_555
C16 N2 1_555 1_555
C23 C37 1_555 1_555
C24 C33 1_555 1_555
C26 N4 1_555 1_555
C27 C44 1_555 1_555
C27 N3 1_555 1_555
C28 C36 1_555 1_555
C30 C38 1_555 1_555
C31 C33 1_555 1_555
C32 C35 1_555 1_555
C34 C39 1_555 1_555
C40 C43 1_555 1_555
C42 C45 1_555 1_555
C42 C46 1_555 1_555
C1B C9B 1_555 1_555
C42B C45B 1_555 1_555
C42B C46B 1_555 1_555
C2B C11B 1_555 1_555
C28B C36B 1_555 1_555
C30B C38B 1_555 1_555
C5B N2B 1_555 1_555
C7B N3B 1_555 1_555
C15B N4B 1_555 1_555
C16B N2B 1_555 1_555
C19B N1B 1_555 1_555
C23B C37B 1_555 1_555
C24B C33B 1_555 1_555
C26B N4B 1_555 1_555
C27B C44B 1_555 1_555
C27B N3B 1_555 1_555
C31B C33B 1_555 1_555
C32B C35B 1_555 1_555
C34B C39B 1_555 1_555
C40B C43B 1_555 1_555

#END
