
#######################################################################
#
#                 Cambridge Crystallographic Data Centre
#                                CCDC 
#
#######################################################################
#
# If this CIF has been generated from an entry in the Cambridge 
# Structural Database, then it will include bibliographic, chemical, 
# crystal, experimental, refinement or atomic coordinate data resulting 
# from the CCDC's data processing and validation procedures.
#
#######################################################################

data_TIGHAU
_symmetry_cell_setting           triclinic
_symmetry_space_group_name_H-M   'P 1'
_symmetry_Int_Tables_number      1
_space_group_name_Hall           'P 1'
loop_
_symmetry_equiv_pos_site_id
_symmetry_equiv_pos_as_xyz
1 x,y,z
_cell_length_a                   5.09440(10)
_cell_length_b                   9.1670(3)
_cell_length_c                   13.1855(4)
_cell_angle_alpha                77.470(2)
_cell_angle_beta                 82.912(2)
_cell_angle_gamma                79.988(2)
_cell_volume                     589.592
loop_
_atom_site_label
_atom_site_type_symbol
_atom_site_fract_x
_atom_site_fract_y
_atom_site_fract_z
C1 C 0.3074(10) 0.6791(6) 0.8550(4)
C2 C 0.3987(12) 0.8044(7) 0.7688(5)
H1 H 0.2464 0.8824 0.7483
C3 C 0.5351(12) 0.7389(7) 0.6739(4)
H2 H 0.5799 0.8212 0.6181
H3 H 0.7008 0.6743 0.6931
C4 C 0.3641(11) 0.6495(7) 0.6345(4)
C5 C 0.1843(13) 0.6861(8) 0.5619(5)
H4 H 0.1348 0.7818 0.5221
C6 C 0.2039(12) 0.4425(7) 0.6246(5)
H5 H 0.1742 0.3427 0.6361
C7 C -0.0407(10) 0.1753(6) 1.1262(4)
C8 C 0.0805(12) 0.0313(7) 1.1990(5)
H6 H -0.0189 -0.0499 1.1961
C9 C 0.0505(11) 0.0533(7) 1.3117(4)
H7 H -0.1385 0.0808 1.3316
H8 H 0.1098 -0.0434 1.3558
C10 C 0.1969(11) 0.1686(7) 1.3357(4)
C11 C 0.3797(12) 0.1467(7) 1.4048(5)
H9 H 0.4453 0.0548 1.4461
C12 C 0.3128(12) 0.3919(7) 1.3358(5)
H10 H 0.3214 0.4950 1.3210
N1 N 0.6060(9) 0.8713(6) 0.8079(4)
H11 H 0.5323 0.9144 0.8611
H12 H 0.6692 0.9404 0.7568
H13 H 0.7393 0.7986 0.8291
N2 N 0.3717(11) 0.4959(6) 0.6731(4)
H14 H 0.4691 0.4430 0.7209
N3 N 0.0886(10) 0.5571(7) 0.5577(4)
H15 H -0.0286 0.5517 0.5175
N4 N 0.3647(9) -0.0138(6) 1.1613(4)
H16 H 0.3710 -0.0472 1.1023
H17 H 0.4424 -0.0869 1.2093
H18 H 0.4507 0.0657 1.1496
N5 N 0.1572(10) 0.3219(6) 1.2930(4)
H19 H 0.0494 0.3655 1.2464
N6 N 0.4530(11) 0.2866(6) 1.4033(4)
H20 H 0.5696 0.3025 1.4400
N7 N -0.3902(13) 0.2113(8) 0.8591(6)
N8 N 0.9006(12) 0.6410(7) 1.1254(5)
O1 O 0.0747(8) 0.6518(5) 0.8513(3)
O2 O 0.4706(9) 0.6089(5) 0.9161(3)
O3 O 0.1176(8) 0.2452(5) 1.0614(3)
O4 O -0.2915(8) 0.2094(5) 1.1408(3)
O5 O -0.3016(14) 0.3377(8) 0.8276(6)
O6 O -0.2776(12) 0.1097(7) 0.9238(5)
O7 O -0.5945(13) 0.1956(8) 0.8195(6)
O8 O 1.1343(11) 0.6404(7) 1.1416(5)
O9 O 0.7689(13) 0.7550(7) 1.0805(6)
O10 O 0.8047(13) 0.5170(7) 1.1566(6)
Ag1 Ag -0.01718(5) 0.42235(4) 0.92702(3)
Ag2 Ag 0.46947(5) 0.43488(4) 1.06478(3)
O4_2 O 0.7085(8) 0.2094(5) 1.1408(3)
O8_2 O 0.1343(11) 0.6404(7) 1.1416(5)
Ag2_2 Ag -0.53053(5) 0.43488(4) 1.06478(3)
Ag2_3 Ag 1.46947(5) 0.43488(4) 1.06478(3)
N9 N 0.6364(12) 0.6904(7) 0.3752(5)
O11 O 0.7299(13) 0.7991(7) 0.3945(5)
O12 O 0.7167(11) 0.5578(5) 0.4188(4)
O13 O 0.4547(12) 0.7158(7) 0.3133(5)
N10 N 0.8538(14) 0.1460(8) 0.6016(5)
O14 O 0.985(2) 0.1141(9) 0.6774(6)
O15 O 0.8354(10) 0.2736(6) 0.5418(4)
O16 O 0.734(3) 0.0541(14) 0.5883(11)
O17 O 0.2113(10) 0.9304(6) 0.9759(3)
H21 H 0.1070 0.8704 0.9974
H22 H 0.1319 1.0083 0.9806
loop_
_geom_bond_atom_site_label_1
_geom_bond_atom_site_label_2
_geom_bond_site_symmetry_1
_geom_bond_site_symmetry_2
C1 C2 1_555 1_555
C2 H1 1_555 1_555
C3 C2 1_555 1_555
H2 C3 1_555 1_555
H3 C3 1_555 1_555
C4 C3 1_555 1_555
C5 C4 1_555 1_555
H4 C5 1_555 1_555
C6 H5 1_555 1_555
C7 C8 1_555 1_555
C8 H6 1_555 1_555
C9 C8 1_555 1_555
H7 C9 1_555 1_555
H8 C9 1_555 1_555
C10 C9 1_555 1_555
C11 C10 1_555 1_555
H9 C11 1_555 1_555
C12 H10 1_555 1_555
N1 C2 1_555 1_555
H11 N1 1_555 1_555
H12 N1 1_555 1_555
H13 N1 1_555 1_555
N2 C4 1_555 1_555
H14 N2 1_555 1_555
N3 C5 1_555 1_555
H15 N3 1_555 1_555
N4 C8 1_555 1_555
H16 N4 1_555 1_555
H17 N4 1_555 1_555
H18 N4 1_555 1_555
N5 C10 1_555 1_555
H19 N5 1_555 1_555
N6 C11 1_555 1_555
H20 N6 1_555 1_555
N7 O5 1_555 1_555
N8 O8 1_555 1_555
O1 C1 1_555 1_555
O2 C1 1_555 1_555
O3 C7 1_555 1_555
O4 C7 1_555 1_555
O5 Ag1 1_555 1_555
O6 N7 1_555 1_555
O7 N7 1_555 1_555
O8 Ag2_3 1_555 1_555
O9 N8 1_555 1_555
O10 N8 1_555 1_555
Ag1 O1 1_555 1_555
Ag2 O2 1_555 1_555
N9 O11 1_555 1_555
O12 N9 1_555 1_555
O13 N9 1_555 1_555
N10 O14 1_555 1_555
O15 N10 1_555 1_555
O16 N10 1_555 1_555
O17 H21 1_555 1_555
H22 O17 1_555 1_555
O4_2 Ag2 1_555 1_555
O8_2 Ag2 1_555 1_555
Ag2_2 O4 1_555 1_555
C6 N2 1_555 1_555
C6 N3 1_555 1_555
C12 N5 1_555 1_555
C12 N6 1_555 1_555
O3 Ag1 1_555 1_555
O3 Ag2 1_555 1_555
O10 Ag2 1_555 1_555

#END
