
#######################################################################
#
#                 Cambridge Crystallographic Data Centre
#                                CCDC 
#
#######################################################################
#
# If this CIF has been generated from an entry in the Cambridge 
# Structural Database, then it will include bibliographic, chemical, 
# crystal, experimental, refinement or atomic coordinate data resulting 
# from the CCDC's data processing and validation procedures.
#
#######################################################################

data_TIGMUT
_symmetry_cell_setting           monoclinic
_symmetry_space_group_name_H-M   'P 21/n'
_symmetry_Int_Tables_number      14
_space_group_name_Hall           '-P 2yn'
loop_
_symmetry_equiv_pos_site_id
_symmetry_equiv_pos_as_xyz
1 x,y,z
2 1/2-x,1/2+y,1/2-z
3 -x,-y,-z
4 1/2+x,1/2-y,1/2+z
_cell_length_a                   13.942(3)
_cell_length_b                   10.407(2)
_cell_length_c                   15.777(3)
_cell_angle_alpha                90
_cell_angle_beta                 108.14(3)
_cell_angle_gamma                90
_cell_volume                     2175.38
loop_
_atom_site_label
_atom_site_type_symbol
_atom_site_fract_x
_atom_site_fract_y
_atom_site_fract_z
C1 C 0.5948(4) -0.1598(4) 0.3221(3)
H1 H 0.6110 -0.2410 0.3471
Cu1 Cu 0.33051(3) 0.06293(3) 0.18939(2)
S1 S 0.32238(6) 0.15721(7) 0.34367(5)
N1 N 0.41015(17) 0.1931(2) 0.14319(14)
N2 N 0.21450(19) 0.1671(2) 0.11571(16)
C2 C 0.5088(2) 0.2078(2) 0.21287(18)
H2 H 0.5574 0.2453 0.1874
H3 H 0.5022 0.2645 0.2596
C3 C 0.3511(2) 0.3132(3) 0.12638(19)
H4 H 0.3711 0.3660 0.0841
H5 H 0.3638 0.3613 0.1815
N3 N 0.4698(2) -0.0058(2) 0.24864(17)
C4 C 0.5787(2) 0.1924(3) 0.0267(2)
H6 H 0.6137 0.1362 0.0714
C5 C 0.2409(2) 0.2811(3) 0.08970(18)
C6 C 0.4755(2) 0.2091(3) 0.00910(18)
C7 C 0.5444(2) 0.0787(3) 0.2508(2)
C8 C 0.2755(2) 0.3010(3) 0.32361(19)
C9 C 0.6297(3) 0.2592(4) -0.0222(2)
H7 H 0.6989 0.2484 -0.0098
C10 C 0.4183(2) 0.1329(3) 0.05870(18)
H8 H 0.4507 0.0498 0.0736
H9 H 0.3506 0.1179 0.0188
C11 C 0.4950(3) -0.1242(3) 0.2838(3)
H10 H 0.4442 -0.1829 0.2823
C12 C 0.1708(3) 0.3628(3) 0.0355(2)
H11 H 0.1905 0.4411 0.0178
C13 C 0.4241(3) 0.2903(4) -0.0593(2)
H12 H 0.3545 0.2997 -0.0734
C14 C 0.6445(3) 0.0470(4) 0.2866(3)
H13 H 0.6945 0.1060 0.2865
C15 C 0.6698(3) -0.0736(5) 0.3227(4)
H14 H 0.7372 -0.0966 0.3473
C16 C 0.1171(2) 0.1324(3) 0.0886(2)
H15 H 0.0985 0.0537 0.1066
C17 C 0.0442(3) 0.2111(4) 0.0345(3)
H16 H -0.0231 0.1855 0.0162
C18 C 0.0706(3) 0.3262(4) 0.0080(3)
H17 H 0.0217 0.3800 -0.0285
C19 C 0.5780(3) 0.3415(4) -0.0891(3)
H18 H 0.6126 0.3856 -0.1219
C20 C 0.4770(4) 0.3591(4) -0.1077(3)
H19 H 0.4428 0.4162 -0.1523
N4 N 0.2413(2) 0.4026(3) 0.3095(2)
Cu1A Cu 0.16949(3) 0.56293(3) 0.31061(2)
N4A N 0.2587(2) -0.0974(3) 0.1905(2)
Cl1 Cl 0.64836(6) 0.47390(8) 0.36392(5)
O1 O 0.6964(4) 0.5387(5) 0.3104(3)
O2 O 0.6767(3) 0.5413(3) 0.4471(2)
O3 O 0.6768(3) 0.3445(3) 0.3798(2)
O4 O 0.5431(2) 0.4853(3) 0.3250(2)
loop_
_geom_bond_atom_site_label_1
_geom_bond_atom_site_label_2
_geom_bond_site_symmetry_1
_geom_bond_site_symmetry_2
C1 H1 1_555 1_555
Cu1 S1 1_555 1_555
S1 C8 1_555 1_555
N1 Cu1 1_555 1_555
N2 Cu1 1_555 1_555
C2 N1 1_555 1_555
H2 C2 1_555 1_555
H3 C2 1_555 1_555
C3 N1 1_555 1_555
H4 C3 1_555 1_555
H5 C3 1_555 1_555
N3 Cu1 1_555 1_555
C4 H6 1_555 1_555
C5 N2 1_555 1_555
C6 C4 1_555 1_555
C7 C2 1_555 1_555
C8 N4 1_555 1_555
C9 C4 1_555 1_555
H7 C9 1_555 1_555
C10 N1 1_555 1_555
H8 C10 1_555 1_555
H9 C10 1_555 1_555
C11 C1 1_555 1_555
H10 C11 1_555 1_555
C12 C5 1_555 1_555
H11 C12 1_555 1_555
C13 C6 1_555 1_555
H12 C13 1_555 1_555
C14 C7 1_555 1_555
H13 C14 1_555 1_555
C15 C1 1_555 1_555
H14 C15 1_555 1_555
C16 N2 1_555 1_555
H15 C16 1_555 1_555
C17 C16 1_555 1_555
H16 C17 1_555 1_555
C18 C12 1_555 1_555
H17 C18 1_555 1_555
C19 C9 1_555 1_555
H18 C19 1_555 1_555
C20 C13 1_555 1_555
H19 C20 1_555 1_555
N4 Cu1A 1_555 1_555
Cl1 O1 1_555 1_555
O2 Cl1 1_555 1_555
O3 Cl1 1_555 1_555
O4 Cl1 1_555 1_555
N4A Cu1 1_555 1_555
C3 C5 1_555 1_555
N3 C7 1_555 1_555
N3 C11 1_555 1_555
C6 C10 1_555 1_555
C14 C15 1_555 1_555
C17 C18 1_555 1_555
C19 C20 1_555 1_555

#END
