
#######################################################################
#
#                 Cambridge Crystallographic Data Centre
#                                CCDC 
#
#######################################################################
#
# If this CIF has been generated from an entry in the Cambridge 
# Structural Database, then it will include bibliographic, chemical, 
# crystal, experimental, refinement or atomic coordinate data resulting 
# from the CCDC's data processing and validation procedures.
#
#######################################################################

data_TIGNII
_symmetry_cell_setting           monoclinic
_symmetry_space_group_name_H-M   'P 21/c'
_symmetry_Int_Tables_number      14
_space_group_name_Hall           '-P 2ybc'
loop_
_symmetry_equiv_pos_site_id
_symmetry_equiv_pos_as_xyz
1 x,y,z
2 -x,1/2+y,1/2-z
3 -x,-y,-z
4 x,1/2-y,1/2+z
_cell_length_a                   12.668(5)
_cell_length_b                   22.274(5)
_cell_length_c                   14.366(4)
_cell_angle_alpha                90
_cell_angle_beta                 123.07(2)
_cell_angle_gamma                90
_cell_volume                     3396.94
loop_
_atom_site_label
_atom_site_type_symbol
_atom_site_fract_x
_atom_site_fract_y
_atom_site_fract_z
O25 O 0.980(2) 0.8336(11) 0.963(2)
O26 O 0.556(2) 0.8567(10) 0.4373(16)
O27 O 1.0536(17) 0.9244(9) 1.0225(16)
O1 O 0.534(2) 0.7718(8) 0.9387(16)
O2 O 0.5089(16) 0.9107(8) 1.2188(17)
O3 O 0.3148(14) 0.9529(7) 1.2376(12)
O4 O 0.379(3) 0.9914(14) 0.994(3)
O5 O 0.535(3) 0.9828(14) 1.121(3)
O6 O 0.582(3) 0.9469(14) 1.042(3)
O7 O 0.431(3) 0.9428(14) 0.928(3)
O8 O 0.4998(17) 1.0260(8) 1.2539(19)
O9 O 0.7107(18) 0.9767(9) 1.3018(19)
O10 O 0.7393(16) 0.8549(8) 1.3392(13)
O11 O 0.1094(13) 0.8622(6) 0.8452(11)
P1 P 0.5000 1.0000 1.0000
O12 O 0.3602(18) 0.8473(10) 0.9347(15)
O13 O 0.9264(16) 0.9073(9) 1.1049(14)
O14 O 0.2783(13) 0.9170(6) 0.5963(11)
O15 O 0.8355(19) 1.0156(8) 1.1270(14)
O16 O 0.7878(15) 0.9156(7) 1.1978(12)
O17 O 0.2845(19) 0.9142(8) 1.0421(13)
O18 O 0.4446(18) 0.8743(10) 0.8111(15)
O19 O 0.2327(18) 0.9203(10) 0.7632(15)
O20 O 0.6787(16) 0.8734(8) 0.9933(12)
O21 O 0.7321(19) 0.9709(7) 0.9316(13)
W1 W 0.79245(8) 0.93765(4) 1.07313(7)
W2 W 0.52103(8) 0.84493(4) 0.95533(7)
W3 W 0.23225(8) 0.90632(4) 0.89318(7)
W4 W 0.66198(8) 0.90096(4) 1.23012(7)
W5 W 0.37504(9) 0.96818(4) 1.16245(7)
W6 W 0.34908(8) 0.94387(5) 0.72555(7)
O22 O 0.5837(13) 0.8478(6) 1.1107(11)
Ag1 Ag 0.01544(18) 0.93001(7) 1.43772(15)
Ag2 Ag 0.2282(2) 0.94609(8) 1.3572(2)
Ag3 Ag 0.0419(2) 1.20539(9) 1.34026(18)
N1 N 0.0741(13) 1.1179(6) 1.3946(11)
N2 N 0.1840(13) 1.1845(6) 1.3208(11)
N3 N 0.1124(13) 0.7301(6) 1.1583(12)
N4 N 0.0153(14) 0.7757(7) 1.2585(12)
N5 N -0.0225(17) 0.8089(7) 1.3164(15)
C1 C 0.1386(16) 1.0892(7) 1.3597(14)
C2 C 0.1140(17) 0.8059(8) 1.2694(14)
C3 C 0.2051(17) 1.1262(8) 1.3200(14)
C4 C 0.156(2) 0.7029(9) 1.1011(16)
H1 H 0.1180 0.6677 1.0627
C5 C 0.1701(18) 0.7815(8) 1.2127(15)
C6 C 0.2481(19) 1.2225(9) 1.2989(17)
H2 H 0.2372 1.2635 1.3030
N6 N 0.0717(15) 1.0233(7) 1.4175(12)
N7 N 0.1371(15) 1.0314(7) 1.3708(14)
N8 N 0.1360(14) 0.8542(6) 1.3292(12)
N9 N 0.0493(15) 0.8531(7) 1.3564(13)
C7 C 0.3423(19) 1.1428(9) 1.2622(17)
H3 H 0.3912 1.1285 1.2367
C8 C 0.267(2) 0.8055(10) 1.2105(19)
H4 H 0.3032 0.8411 1.2485
C9 C 0.282(2) 1.1030(9) 1.292(2)
H5 H 0.2935 1.0618 1.2926
C10 C 0.312(2) 0.7789(11) 1.155(2)
H6 H 0.3791 0.7952 1.1536
C11 C 0.253(2) 0.7254(10) 1.0982(18)
H7 H 0.2808 0.7054 1.0587
C12 C 0.330(2) 1.2039(9) 1.2706(19)
H8 H 0.3753 1.2314 1.2574
N10 N 0.0314(14) 1.0738(7) 1.4300(12)
O23 O 0.449(2) 0.9435(11) 1.4998(17)
O24 O 0.1658(16) 1.2486(8) 1.5052(13)
O4B O 0.621(3) 1.0086(14) 1.006(3)
O5B O 0.465(3) 1.0172(14) 0.879(3)
O6B O 0.418(3) 1.0531(14) 0.958(3)
O7B O 0.569(3) 1.0572(14) 1.072(3)
O1B O -0.534(2) 1.2282(8) 2.0613(16)
O2B O -0.5089(16) 1.0893(8) 1.7812(17)
O3B O -0.3148(14) 1.0471(7) 1.7624(12)
O8B O -0.4998(17) 0.9740(8) 1.7461(19)
O9B O -0.7107(18) 1.0233(9) 1.6982(19)
O10B O -0.7393(16) 1.1451(8) 1.6608(13)
O11B O -0.1094(13) 1.1378(6) 2.1548(11)
O12B O -0.3602(18) 1.1527(10) 2.0653(15)
O13B O -0.9264(16) 1.0927(9) 1.8951(14)
O14B O -0.2783(13) 1.0830(6) 2.4037(11)
O15B O -0.8355(19) 0.9844(8) 1.8730(14)
O16B O -0.7878(15) 1.0844(7) 1.8022(12)
O17B O -0.2845(19) 1.0858(8) 1.9579(13)
O18B O -0.4446(18) 1.1257(10) 2.1889(15)
O19B O -0.2327(18) 1.0797(10) 2.2368(15)
O20B O -0.6787(16) 1.1266(8) 2.0067(12)
O21B O -0.7321(19) 1.0291(7) 2.0684(13)
W1B W -0.79245(8) 1.06235(4) 1.92687(7)
W2B W -0.52103(8) 1.15507(4) 2.04467(7)
W3B W -0.23225(8) 1.09368(4) 2.10682(7)
W4B W -0.66198(8) 1.09904(4) 1.76988(7)
W5B W -0.37504(9) 1.03182(4) 1.83755(7)
W6B W -0.34908(8) 1.05613(5) 2.27445(7)
O22B O -0.5837(13) 1.1522(6) 1.8893(11)
Ag1B Ag -0.01544(18) 1.06999(7) 1.56228(15)
Ag2B Ag -0.2282(2) 1.05391(8) 1.6428(2)
Ag3B Ag -0.0419(2) 0.79461(9) 1.65974(18)
N1B N -0.0741(13) 0.8821(6) 1.6054(11)
N2B N -0.1840(13) 0.8155(6) 1.6792(11)
N3B N -0.1124(13) 1.2699(6) 1.8417(12)
N4B N -0.0153(14) 1.2243(7) 1.7415(12)
N5B N 0.0225(17) 1.1911(7) 1.6836(15)
C1B C -0.1386(16) 0.9108(7) 1.6403(14)
C2B C -0.1140(17) 1.1941(8) 1.7306(14)
C3B C -0.2051(17) 0.8738(8) 1.6800(14)
C4B C -0.156(2) 1.2971(9) 1.8989(16)
H1B H -0.1180 1.3323 1.9373
C5B C -0.1701(18) 1.2185(8) 1.7873(15)
C6B C -0.2481(19) 0.7775(9) 1.7011(17)
H2B H -0.2372 0.7365 1.6970
N6B N -0.0717(15) 0.9767(7) 1.5825(12)
N7B N -0.1371(15) 0.9686(7) 1.6292(14)
N8B N -0.1360(14) 1.1458(6) 1.6708(12)
N9B N -0.0493(15) 1.1469(7) 1.6436(13)
C7B C -0.3423(19) 0.8572(9) 1.7378(17)
H3B H -0.3912 0.8715 1.7633
C8B C -0.267(2) 1.1945(10) 1.7895(19)
H4B H -0.3032 1.1589 1.7515
C9B C -0.282(2) 0.8970(9) 1.708(2)
H5B H -0.2935 0.9382 1.7074
C10B C -0.312(2) 1.2211(11) 1.845(2)
H6B H -0.3791 1.2048 1.8464
C11B C -0.253(2) 1.2746(10) 1.9018(18)
H7B H -0.2808 1.2946 1.9413
C12B C -0.330(2) 0.7961(9) 1.7294(19)
H8B H -0.3753 0.7686 1.7426
N10B N -0.0314(14) 0.9262(7) 1.5700(12)
O23B O -0.449(2) 1.0565(11) 1.5002(17)
O24B O -0.1658(16) 0.7514(8) 1.4948(13)
O4_2 O -0.621(3) 0.9914(14) 1.994(3)
O4B_2 O -0.379(3) 1.0086(14) 2.006(3)
O5_2 O -0.465(3) 0.9828(14) 2.121(3)
O5B_2 O -0.535(3) 1.0172(14) 1.879(3)
O6B_2 O -0.582(3) 1.0531(14) 1.958(3)
O7B_2 O -0.431(3) 1.0572(14) 2.072(3)
O8_2 O -0.5002(17) 1.0260(8) 2.2539(19)
O8B_2 O 0.5002(17) 0.9740(8) 0.7461(19)
O9_2 O -0.2893(18) 0.9767(9) 2.3018(19)
O9B_2 O 0.2893(18) 1.0233(9) 0.6982(19)
O15_2 O -0.1645(19) 1.0156(8) 2.1270(14)
O15B_2 O 0.1645(19) 0.9844(8) 0.8730(14)
O21_2 O -0.2679(19) 0.9709(7) 1.9316(13)
O21B_2 O 0.2679(19) 1.0291(7) 1.0684(13)
W1B_2 W 0.20755(8) 1.06235(4) 0.92687(7)
W2B_2 W 0.47897(8) 1.15507(4) 1.04467(7)
W3_2 W -0.76775(8) 0.90632(4) 1.89318(7)
W3B_2 W 0.76775(8) 1.09368(4) 1.10682(7)
W4B_2 W 0.33802(8) 1.09904(4) 0.76988(7)
W5_2 W -0.62496(9) 0.96818(4) 2.16245(7)
W5B_2 W 0.62496(9) 1.03182(4) 0.83755(7)
W6_2 W -0.65092(8) 0.94387(5) 1.72555(7)
W6B_2 W 0.65092(8) 1.05613(5) 1.27445(7)
Ag3A Ag -0.0419(2) 0.70539(9) 1.15974(18)
Ag3C Ag 0.0419(2) 1.29461(9) 1.84026(18)
N3A N -0.1124(13) 1.2301(6) 1.3417(12)
N3C N 0.1124(13) 0.7699(6) 1.6583(12)
N4A N -0.0153(14) 1.2757(7) 1.2415(12)
N4C N 0.0153(14) 0.7243(7) 1.7585(12)
loop_
_geom_bond_atom_site_label_1
_geom_bond_atom_site_label_2
_geom_bond_site_symmetry_1
_geom_bond_site_symmetry_2
O1 W2 1_555 1_555
O2 W4 1_555 1_555
O3 W5 1_555 1_555
O4 O7 1_555 1_555
O5 O6 1_555 1_555
O6 O7 1_555 1_555
O7 P1 1_555 1_555
O8 W5 1_555 1_555
O9 W4 1_555 1_555
O10 W4 1_555 1_555
O11 W3 1_555 1_555
P1 O4 1_555 1_555
O12 W2 1_555 1_555
O13 W1 1_555 1_555
O14 W6 1_555 1_555
O15 W1 1_555 1_555
O16 W1 1_555 1_555
O17 W3 1_555 1_555
O18 W2 1_555 1_555
O19 W3 1_555 1_555
O20 W1 1_555 1_555
O21 W1 1_555 1_555
W1 O6 1_555 1_555
W2 O7 1_555 1_555
W3 O4 1_555 1_555
W4 O5 1_555 1_555
W5 O2 1_555 1_555
W6 O7 1_555 1_555
O22 W2 1_555 1_555
Ag1 N6 1_555 1_555
Ag2 O3 1_555 1_555
Ag3 N1 1_555 1_555
N1 C1 1_555 1_555
N2 Ag3 1_555 1_555
N3 C4 1_555 1_555
N4 N5 1_555 1_555
N5 N9 1_555 1_555
C1 C3 1_555 1_555
C2 N4 1_555 1_555
C3 N2 1_555 1_555
C4 H1 1_555 1_555
C5 N3 1_555 1_555
C6 N2 1_555 1_555
H2 C6 1_555 1_555
N6 N7 1_555 1_555
N7 Ag2 1_555 1_555
N8 Ag2 1_555 1_555
N9 Ag1 1_555 1_555
C7 H3 1_555 1_555
C8 C5 1_555 1_555
H4 C8 1_555 1_555
C9 C3 1_555 1_555
H5 C9 1_555 1_555
C10 C8 1_555 1_555
H6 C10 1_555 1_555
C11 C4 1_555 1_555
H7 C11 1_555 1_555
C12 C6 1_555 1_555
H8 C12 1_555 1_555
N10 N1 1_555 1_555
O23 Ag2 1_555 1_555
O24 Ag3 1_555 1_555
O4B O6 1_555 1_555
O5B P1 1_555 1_555
O6B O4 1_555 1_555
O7B P1 1_555 1_555
O1B W2B 1_555 1_555
O2B W4B 1_555 1_555
O3B W5B 1_555 1_555
O8B W5B 1_555 1_555
O9B W4B 1_555 1_555
O10B W4B 1_555 1_555
O11B W3B 1_555 1_555
O12B W2B 1_555 1_555
O13B W1B 1_555 1_555
O14B W6B 1_555 1_555
O15B W1B 1_555 1_555
O16B W1B 1_555 1_555
O17B W3B 1_555 1_555
O18B W2B 1_555 1_555
O19B W3B 1_555 1_555
O20B W1B 1_555 1_555
O21B W1B 1_555 1_555
W1B O4_2 1_555 1_555
W2B O20B 1_555 1_555
W3B O12B 1_555 1_555
W4B O16B 1_555 1_555
W5B O2B 1_555 1_555
W6B O18B 1_555 1_555
O22B W2B 1_555 1_555
Ag1B N10 1_555 1_555
Ag2B O3B 1_555 1_555
Ag3B N1B 1_555 1_555
N1B C1B 1_555 1_555
N2B Ag3B 1_555 1_555
N3B C4B 1_555 1_555
N4B N5B 1_555 1_555
N5B N9B 1_555 1_555
C1B C3B 1_555 1_555
C2B N4B 1_555 1_555
C3B N2B 1_555 1_555
C4B H1B 1_555 1_555
C5B N3B 1_555 1_555
C6B N2B 1_555 1_555
H2B C6B 1_555 1_555
N6B Ag1B 1_555 1_555
N7B Ag2B 1_555 1_555
N8B Ag2B 1_555 1_555
N9B Ag1B 1_555 1_555
C7B H3B 1_555 1_555
C8B C5B 1_555 1_555
H4B C8B 1_555 1_555
C9B C3B 1_555 1_555
H5B C9B 1_555 1_555
C10B C8B 1_555 1_555
H6B C10B 1_555 1_555
C11B C4B 1_555 1_555
H7B C11B 1_555 1_555
C12B C6B 1_555 1_555
H8B C12B 1_555 1_555
N10B Ag1 1_555 1_555
O23B Ag2B 1_555 1_555
O24B Ag3B 1_555 1_555
O4_2 O6B_2 1_555 1_555
O4B_2 W3B 1_555 1_555
O5_2 W6B 1_555 1_555
O5B_2 W4B 1_555 1_555
O6B_2 W1B 1_555 1_555
O7B_2 W2B 1_555 1_555
O8_2 W6B 1_555 1_555
O8B_2 W6 1_555 1_555
O9_2 W6B 1_555 1_555
O9B_2 W6 1_555 1_555
O15_2 W3B 1_555 1_555
O15B_2 W3 1_555 1_555
O21_2 W5B 1_555 1_555
O21B_2 W5 1_555 1_555
W1B_2 O4 1_555 1_555
W2B_2 O7B 1_555 1_555
W3_2 O15B 1_555 1_555
W3B_2 O15 1_555 1_555
W4B_2 O5B 1_555 1_555
W5_2 O21B 1_555 1_555
W5B_2 O21 1_555 1_555
W6_2 O8B 1_555 1_555
W6B_2 O5 1_555 1_555
Ag3A N3 1_555 1_555
Ag3C N3B 1_555 1_555
N3A Ag3 1_555 1_555
N3C Ag3B 1_555 1_555
N4A Ag3 1_555 1_555
N4C Ag3B 1_555 1_555
O5 P1 1_555 1_555
O5 W5 1_555 1_555
O6 P1 1_555 1_555
O7 W3 1_555 1_555
O8 W6B_2 1_555 1_555
O9 W6B_2 1_555 1_555
P1 O4B 1_555 1_555
P1 O6B 1_555 1_555
O12 W3 1_555 1_555
O16 W4 1_555 1_555
O17 W5 1_555 1_555
O18 W6 1_555 1_555
O19 W6 1_555 1_555
O20 W2 1_555 1_555
W1 O4B 1_555 1_555
W4 O22 1_555 1_555
W6 O5B 1_555 1_555
N4 Ag3A 1_555 1_555
C1 N7 1_555 1_555
C2 C5 1_555 1_555
C2 N8 1_555 1_555
N6 N10 1_555 1_555
N8 N9 1_555 1_555
C7 C9 1_555 1_555
C7 C12 1_555 1_555
C10 C11 1_555 1_555
O4B O7B 1_555 1_555
O4B W3B_2 1_555 1_555
O5B O6B 1_555 1_555
O5B W5B_2 1_555 1_555
O6B O7B 1_555 1_555
O6B W1B_2 1_555 1_555
O7B W3B_2 1_555 1_555
O7B W6B_2 1_555 1_555
O9B W6_2 1_555 1_555
O17B W5B 1_555 1_555
O19B W6B 1_555 1_555
W3B O7B_2 1_555 1_555
W4B O22B 1_555 1_555
W5B O5B_2 1_555 1_555
W6B O7B_2 1_555 1_555
N1B N10B 1_555 1_555
N4B Ag3C 1_555 1_555
C1B N7B 1_555 1_555
C2B C5B 1_555 1_555
C2B N8B 1_555 1_555
N6B N7B 1_555 1_555
N6B N10B 1_555 1_555
N8B N9B 1_555 1_555
C7B C9B 1_555 1_555
C7B C12B 1_555 1_555
C10B C11B 1_555 1_555
O4_2 W3_2 1_555 1_555
O4B_2 O7B_2 1_555 1_555
O5_2 W5_2 1_555 1_555
O5B_2 O6B_2 1_555 1_555
O5B_2 W6_2 1_555 1_555
O6B_2 O7B_2 1_555 1_555
O8_2 W5_2 1_555 1_555
O8B_2 W5B_2 1_555 1_555
O9B_2 W4B_2 1_555 1_555
O15B_2 W1B_2 1_555 1_555
O21B_2 W1B_2 1_555 1_555

#END
