
#######################################################################
#
#                 Cambridge Crystallographic Data Centre
#                                CCDC 
#
#######################################################################
#
# If this CIF has been generated from an entry in the Cambridge 
# Structural Database, then it will include bibliographic, chemical, 
# crystal, experimental, refinement or atomic coordinate data resulting 
# from the CCDC's data processing and validation procedures.
#
#######################################################################

data_TIGQAD
_symmetry_cell_setting           monoclinic
_symmetry_space_group_name_H-M   'P 21'
_symmetry_Int_Tables_number      4
_space_group_name_Hall           'P 2yb'
loop_
_symmetry_equiv_pos_site_id
_symmetry_equiv_pos_as_xyz
1 x,y,z
2 -x,1/2+y,-z
_cell_length_a                   15.262(3)
_cell_length_b                   13.046(3)
_cell_length_c                   13.058(3)
_cell_angle_alpha                90
_cell_angle_beta                 102.54(3)
_cell_angle_gamma                90
_cell_volume                     2537.93
loop_
_atom_site_label
_atom_site_type_symbol
_atom_site_fract_x
_atom_site_fract_y
_atom_site_fract_z
Cu1 Cu 0.25159(6) 0.35937(5) 0.00713(7)
O1 O 0.2766(5) 0.3543(6) 0.6584(4)
O2 O 0.1664(5) 0.2390(6) 0.6352(4)
H1 H 0.1670 0.2491 0.6973
O3 O 0.2597(4) 0.2853(5) 0.1750(4)
O4 O 0.1344(7) 0.2022(8) 0.1872(8)
H2 H 0.1212 0.2099 0.1233
N1 N 0.1027(5) 0.2124(5) -0.0188(5)
N2 N 0.1524(4) 0.2668(5) -0.0698(5)
N3 N 0.1208(5) 0.2547(6) -0.1722(4)
N4 N 0.0511(4) 0.1928(6) -0.1887(5)
N5 N -0.1566(4) -0.0429(5) -0.0322(4)
N6 N 0.3939(5) 0.5106(5) 0.0162(5)
N7 N 0.3504(4) 0.4533(5) 0.0752(5)
N8 N 0.3856(4) 0.4656(6) 0.1753(5)
N9 N 0.4533(5) 0.5319(6) 0.1857(5)
N10 N 0.6541(4) 0.7595(6) 0.0174(5)
C1 C 0.2662(6) 0.2245(8) 0.5216(6)
C2 C 0.2037(7) 0.2472(9) 0.4137(6)
C3 C 0.2577(6) 0.2034(7) 0.3404(5)
H3 H 0.2576 0.1285 0.3465
C4 C 0.3522(6) 0.2413(11) 0.3810(6)
H4 H 0.3625 0.3046 0.3466
H5 H 0.3956 0.1906 0.3696
C5 C 0.3589(7) 0.2590(10) 0.5007(7)
H6 H 0.3699 0.3307 0.5184
H7 H 0.4072 0.2184 0.5420
C6 C 0.2378(7) 0.2800(8) 0.6118(6)
C7 C 0.2226(6) 0.2320(7) 0.2249(6)
C8 C 0.2720(6) 0.1100(5) 0.5489(6)
H8 H 0.2176 0.0887 0.5682
H9 H 0.3220 0.0982 0.6065
H10 H 0.2801 0.0713 0.4891
C9 C 0.1128(6) 0.1910(10) 0.4014(7)
H11 H 0.0736 0.2114 0.3368
H12 H 0.0859 0.2085 0.4591
H13 H 0.1224 0.1183 0.4009
C10 C 0.1892(8) 0.3607(8) 0.3976(7)
H14 H 0.2445 0.3926 0.3914
H15 H 0.1695 0.3893 0.4565
H16 H 0.1444 0.3725 0.3348
C11 C 0.0407(5) 0.1669(6) -0.0921(6)
C12 C -0.1660(5) 0.0023(6) -0.1254(6)
H17 H -0.2171 -0.0119 -0.1768
C13 C -0.1030(5) 0.0698(6) -0.1495(6)
H18 H -0.1106 0.0975 -0.2165
C14 C -0.0273(5) 0.0956(6) -0.0710(6)
C15 C -0.0202(6) 0.0493(7) 0.0276(6)
H19 H 0.0282 0.0642 0.0824
C16 C -0.0842(6) -0.0169(7) 0.0419(7)
H20 H -0.0779 -0.0468 0.1078
C17 C 0.4562(6) 0.5569(7) 0.0846(6)
C18 C 0.6473(6) 0.7377(8) 0.1161(6)
H21 H 0.6904 0.7644 0.1712
C19 C 0.5810(6) 0.6791(7) 0.1394(6)
H22 H 0.5744 0.6741 0.2084
C20 C 0.5239(5) 0.6273(7) 0.0612(5)
C21 C 0.5293(6) 0.6484(7) -0.0397(6)
H23 H 0.4895 0.6180 -0.0955
C22 C 0.5951(6) 0.7159(7) -0.0583(7)
H24 H 0.5972 0.7308 -0.1274
O5 O 0.2563(3) 0.4583(5) -0.1557(4)
H25 H 0.2761 0.4277 -0.2066
H26 H 0.3062 0.4814 -0.1175
Cu1A Cu -0.25159(6) -0.14063(5) -0.00713(7)
Cu1A_2 Cu 0.74841(6) 0.85937(5) -0.00713(7)
N5A N 0.1566(4) 0.4571(5) 0.0322(4)
N10A N 0.3459(4) 0.2595(6) -0.0174(5)
Cu2 Cu 0.25040(7) 0.73783(5) 0.50383(7)
O6 O 0.2572(4) 0.8171(5) 0.6692(4)
O7 O 0.1262(4) 0.8746(6) 0.6872(4)
H27 H 0.1131 0.8632 0.6239
O8 O 0.2570(3) 0.6435(4) 0.3439(3)
H28 H 0.3052 0.6086 0.3638
H29 H 0.2675 0.6621 0.2846
N11 N 0.0969(5) 0.8795(6) 0.4797(5)
N12 N 0.1481(4) 0.8274(5) 0.4257(4)
N13 N 0.1199(4) 0.8432(6) 0.3252(5)
N14 N 0.0494(4) 0.9082(5) 0.3101(5)
N15 N -0.1583(4) 1.1353(5) 0.4689(5)
N16 N 0.3936(5) 0.5886(6) 0.5163(5)
N17 N 0.3498(4) 0.6451(5) 0.5729(5)
N18 N 0.3872(5) 0.6355(6) 0.6753(5)
N19 N 0.4568(5) 0.5718(6) 0.6848(5)
N20 N 0.6566(4) 0.3402(6) 0.5200(4)
C23 C 0.2512(6) 0.8891(7) 0.8344(6)
C24 C 0.2129(6) 0.8568(8) 0.7232(6)
C25 C 0.0368(6) 0.9276(7) 0.4052(7)
C26 C -0.0873(6) 1.1103(7) 0.5453(6)
H30 H -0.0810 1.1401 0.6112
C27 C -0.0229(6) 1.0407(6) 0.5277(6)
H31 H 0.0249 1.0228 0.5821
C28 C -0.0303(6) 0.9981(7) 0.4289(6)
C29 C -0.1028(6) 1.0266(6) 0.3520(6)
H32 H -0.1095 0.9997 0.2848
C30 C -0.1652(6) 1.0940(6) 0.3731(6)
H33 H -0.2138 1.1117 0.3197
C31 C 0.4597(6) 0.5432(7) 0.5887(6)
C32 C 0.5924(5) 0.3799(7) 0.4405(6)
H34 H 0.5925 0.3613 0.3718
C33 C 0.5280(5) 0.4459(7) 0.4586(6)
H35 H 0.4859 0.4726 0.4025
C34 C 0.5253(5) 0.4734(7) 0.5612(6)
C35 C 0.5923(6) 0.4352(7) 0.6415(6)
H36 H 0.5953 0.4547 0.7107
C36 C 0.6549(6) 0.3673(8) 0.6167(6)
H37 H 0.6977 0.3396 0.6713
O9 O 0.2739(4) 0.7454(5) 1.1547(4)
O10 O 0.1715(5) 0.8682(8) 1.1405(5)
H38 H 0.1605 0.8400 1.1924
C37 C 0.2657(7) 0.8703(9) 1.0193(6)
C38 C 0.2405(7) 0.8190(9) 1.1109(7)
C39 C 0.2364(14) 0.8140(15) 0.9198(14)
C40 C 0.2258(13) 0.9979(15) 0.8730(13)
H39 H 0.2652 1.0504 0.8558
H40 H 0.1643 1.0154 0.8403
C41 C 0.2373(12) 0.9885(15) 0.9923(13)
H41 H 0.1815 1.0045 1.0131
H42 H 0.2836 1.0347 1.0283
C42 C 0.3768(16) 0.880(2) 1.0552(19)
H43 H 0.3995 0.9120 1.0003
H44 H 0.4023 0.8122 1.0678
H45 H 0.3927 0.9196 1.1182
C43 C 0.2784(12) 0.7106(12) 0.9158(12)
H46 H 0.2616 0.6665 0.9672
H47 H 0.3425 0.7175 0.9304
H48 H 0.2580 0.6815 0.8472
C44 C 0.1325(13) 0.8050(14) 0.9041(13)
H49 H 0.1069 0.8722 0.9038
H50 H 0.1183 0.7655 0.9603
H51 H 0.1084 0.7716 0.8385
Cu2A Cu -0.25040(7) 1.23783(5) 0.49617(7)
Cu2A_2 Cu 0.74960(7) 0.23783(5) 0.49617(7)
N15A N 0.1583(4) 0.6353(5) 0.5311(5)
N20A N 0.3434(4) 0.8402(6) 0.4800(4)
O11? O 0.1662(7) 0.1599(7) 0.1835(7)
H52? H 0.3164 0.8912 0.8407
C45? C 0.1957(9) 0.8420(11) 0.9133(9)
C46? C 0.3537(9) 0.8417(11) 0.9980(9)
H53? H 0.3679 0.7711 1.0182
H54? H 0.4005 0.8854 1.0374
C47? C 0.3466(8) 0.8557(12) 0.8775(8)
H55? H 0.3886 0.9075 0.8644
H56? H 0.3593 0.7918 0.8456
C48? C 0.2386(9) 1.0061(8) 0.8293(8)
H57? H 0.2607 1.0349 0.8977
H58? H 0.1760 1.0219 0.8062
H59? H 0.2713 1.0345 0.7809
C49? C 0.1006(9) 0.8865(15) 0.9096(11)
H60? H 0.0736 0.8509 0.9593
H61? H 0.0640 0.8780 0.8404
H62? H 0.1054 0.9581 0.9269
C50? C 0.1819(7) 0.7271(8) 0.8994(8)
H63? H 0.1466 0.7026 0.9469
H64? H 0.2392 0.6933 0.9140
H65? H 0.1513 0.7127 0.8286
H66? H 0.2646 0.9447 1.0296
loop_
_geom_bond_atom_site_label_1
_geom_bond_atom_site_label_2
_geom_bond_site_symmetry_1
_geom_bond_site_symmetry_2
Cu1 O3 1_555 1_555
O1 C6 1_555 1_555
O2 H1 1_555 1_555
O3 C7 1_555 1_555
O4 H2 1_555 1_555
N1 N2 1_555 1_555
N2 Cu1 1_555 1_555
N3 N2 1_555 1_555
N4 N3 1_555 1_555
N5 C12 1_555 1_555
N6 N7 1_555 1_555
N7 Cu1 1_555 1_555
N8 N7 1_555 1_555
N9 N8 1_555 1_555
N10 C18 1_555 1_555
C1 C2 1_555 1_555
C2 C3 1_555 1_555
C3 H3 1_555 1_555
C4 C3 1_555 1_555
H4 C4 1_555 1_555
H5 C4 1_555 1_555
C5 C1 1_555 1_555
H6 C5 1_555 1_555
H7 C5 1_555 1_555
C6 O2 1_555 1_555
C7 O4 1_555 1_555
C8 C1 1_555 1_555
H8 C8 1_555 1_555
H9 C8 1_555 1_555
H10 C8 1_555 1_555
C9 C2 1_555 1_555
H11 C9 1_555 1_555
H12 C9 1_555 1_555
H13 C9 1_555 1_555
C10 C2 1_555 1_555
H14 C10 1_555 1_555
H15 C10 1_555 1_555
H16 C10 1_555 1_555
C11 N1 1_555 1_555
C12 H17 1_555 1_555
C13 C12 1_555 1_555
H18 C13 1_555 1_555
C14 C11 1_555 1_555
C15 C14 1_555 1_555
H19 C15 1_555 1_555
C16 N5 1_555 1_555
H20 C16 1_555 1_555
C17 N6 1_555 1_555
C18 H21 1_555 1_555
C19 C18 1_555 1_555
H22 C19 1_555 1_555
C20 C17 1_555 1_555
C21 C20 1_555 1_555
H23 C21 1_555 1_555
C22 N10 1_555 1_555
H24 C22 1_555 1_555
O5 Cu1 1_555 1_555
H25 O5 1_555 1_555
H26 O5 1_555 1_555
Cu2 O6 1_555 1_555
O6 C24 1_555 1_555
O7 H27 1_555 1_555
O8 Cu2 1_555 1_555
H28 O8 1_555 1_555
H29 O8 1_555 1_555
N11 N12 1_555 1_555
N12 Cu2 1_555 1_555
N13 N12 1_555 1_555
N14 N13 1_555 1_555
N15 C26 1_555 1_555
N16 N17 1_555 1_555
N17 Cu2 1_555 1_555
N18 N17 1_555 1_555
N19 N18 1_555 1_555
N20 C32 1_555 1_555
C23 C24 1_555 1_555
C24 O7 1_555 1_555
C25 N11 1_555 1_555
C26 H30 1_555 1_555
C27 C26 1_555 1_555
H31 C27 1_555 1_555
C28 C25 1_555 1_555
C29 C28 1_555 1_555
H32 C29 1_555 1_555
C30 N15 1_555 1_555
H33 C30 1_555 1_555
C31 N16 1_555 1_555
C32 H34 1_555 1_555
C33 C32 1_555 1_555
H35 C33 1_555 1_555
C34 C31 1_555 1_555
C35 C34 1_555 1_555
H36 C35 1_555 1_555
C36 N20 1_555 1_555
H37 C36 1_555 1_555
O9 C38 1_555 1_555
O10 H38 1_555 1_555
C37 C38 1_555 1_555
C38 O10 1_555 1_555
C39 C23 1_555 1_555
C40 C23 1_555 1_555
H39 C40 1_555 1_555
H40 C40 1_555 1_555
C41 C37 1_555 1_555
H41 C41 1_555 1_555
H42 C41 1_555 1_555
C42 C37 1_555 1_555
H43 C42 1_555 1_555
H44 C42 1_555 1_555
H45 C42 1_555 1_555
C43 C39 1_555 1_555
H46 C43 1_555 1_555
H47 C43 1_555 1_555
H48 C43 1_555 1_555
C44 C39 1_555 1_555
H49 C44 1_555 1_555
H50 C44 1_555 1_555
H51 C44 1_555 1_555
Cu1A N5 1_555 1_555
Cu1A_2 N10 1_555 1_555
N5A Cu1 1_555 1_555
N10A Cu1 1_555 1_555
Cu2A N15 1_555 1_555
Cu2A_2 N20 1_555 1_555
N15A Cu2 1_555 1_555
N20A Cu2 1_555 1_555
N4 C11 1_555 1_555
N9 C17 1_555 1_555
C1 C6 1_555 1_555
C3 C7 1_555 1_555
C4 C5 1_555 1_555
C13 C14 1_555 1_555
C15 C16 1_555 1_555
C19 C20 1_555 1_555
C21 C22 1_555 1_555
N14 C25 1_555 1_555
N19 C31 1_555 1_555
C27 C28 1_555 1_555
C29 C30 1_555 1_555
C33 C34 1_555 1_555
C35 C36 1_555 1_555
C37 C39 1_555 1_555
C40 C41 1_555 1_555

#END
