
#######################################################################
#
#                 Cambridge Crystallographic Data Centre
#                                CCDC 
#
#######################################################################
#
# If this CIF has been generated from an entry in the Cambridge 
# Structural Database, then it will include bibliographic, chemical, 
# crystal, experimental, refinement or atomic coordinate data resulting 
# from the CCDC's data processing and validation procedures.
#
#######################################################################

data_TIGQIL
_symmetry_cell_setting           monoclinic
_symmetry_space_group_name_H-M   'P 21/n'
_symmetry_Int_Tables_number      14
_space_group_name_Hall           '-P 2yn'
loop_
_symmetry_equiv_pos_site_id
_symmetry_equiv_pos_as_xyz
1 x,y,z
2 1/2-x,1/2+y,1/2-z
3 -x,-y,-z
4 1/2+x,1/2-y,1/2+z
_cell_length_a                   11.844(5)
_cell_length_b                   14.019(5)
_cell_length_c                   14.026(5)
_cell_angle_alpha                90
_cell_angle_beta                 108.359(5)
_cell_angle_gamma                90
_cell_volume                     2210.35
loop_
_atom_site_label
_atom_site_type_symbol
_atom_site_fract_x
_atom_site_fract_y
_atom_site_fract_z
Zn1 Zn 0.68993(4) 0.15848(3) 0.53875(3)
O1 O 0.8712(2) 0.24307(16) 0.72468(16)
C1 C 0.8964(3) 0.2576(2) 0.6468(2)
C2 C 0.9535(3) 0.3904(2) 0.5563(2)
H1 H 0.8862 0.3743 0.5033
O2 O 0.8469(2) 0.21563(16) 0.56226(16)
O3 O 1.1536(3) 0.22298(18) 0.83082(18)
O4 O 1.1199(2) 0.36221(18) 0.89522(17)
C3 C 0.9833(3) 0.3346(2) 0.6426(2)
C4 C 1.0199(3) 0.4692(2) 0.5458(2)
C5 C 1.0835(3) 0.3570(2) 0.7225(2)
N1 N 0.6698(3) -0.1105(2) 0.6565(2)
N2 N 0.5879(3) 0.2339(2) 0.5989(2)
N3 N 0.7052(3) 0.0241(2) 0.5891(2)
C6 C 0.7477(3) -0.0515(3) 0.5455(3)
C7 C 0.7246(4) -0.1368(3) 0.5868(3)
C8 C 0.6385(4) 0.4019(3) 0.5605(3)
H2 H 0.6759 0.3847 0.5139
C9 C 1.1542(4) 0.4329(3) 0.7107(3)
H3 H 1.2236 0.4472 0.7623
C10 C 0.5339(4) 0.3605(3) 0.6768(3)
C11 C 1.1237(3) 0.4872(3) 0.6246(2)
H4 H 1.1733 0.5368 0.6189
C12 C 0.6606(3) -0.0147(3) 0.6550(3)
C13 C 1.1210(3) 0.3062(3) 0.8234(3)
C14 C 0.6106(4) 0.0388(3) 0.7243(3)
H5 H 0.6726 0.0795 0.7665
H6 H 0.5894 -0.0068 0.7678
C15 C 0.8059(4) -0.0532(3) 0.4736(3)
H7 H 0.8253 0.0030 0.4473
N4 N 0.4966(3) 0.2757(3) 0.7078(2)
C16 C 0.5906(3) 0.3336(3) 0.6081(3)
C17 C 0.7536(4) -0.2250(3) 0.5561(3)
H8 H 0.7373 -0.2815 0.5838
C18 C 0.5248(4) 0.4555(3) 0.7014(3)
H9 H 0.4866 0.4733 0.7473
C19 C 0.8078(5) -0.2245(3) 0.4827(4)
H10 H 0.8274 -0.2822 0.4593
C20 C 0.8337(4) -0.1406(3) 0.4428(3)
H11 H 0.8711 -0.1432 0.3936
C21 C 0.5301(3) 0.2025(3) 0.6597(3)
C22 C 0.6290(4) 0.4958(3) 0.5846(3)
H12 H 0.6596 0.5429 0.5530
C23 C 0.5746(4) 0.5219(3) 0.6551(4)
H13 H 0.5720 0.5860 0.6713
C24 C 0.5021(4) 0.1005(3) 0.6748(3)
H14 H 0.4592 0.0731 0.6100
H15 H 0.4498 0.0988 0.7159
H16 H 0.6410 -0.1536 0.6963
H17 H 0.4653 0.2691 0.7562
O1B O 1.1288(2) 0.75693(16) 0.27532(16)
C1B C 1.1036(3) 0.7424(2) 0.3532(2)
C2B C 1.0465(3) 0.6096(2) 0.4437(2)
H1B H 1.1138 0.6257 0.4967
O2B O 1.1531(2) 0.78437(16) 0.43774(16)
O3B O 0.8464(3) 0.77702(18) 0.16918(18)
O4B O 0.8801(2) 0.63779(18) 0.10478(17)
C3B C 1.0167(3) 0.6654(2) 0.3574(2)
C4B C 0.9801(3) 0.5308(2) 0.4542(2)
C5B C 0.9165(3) 0.6430(2) 0.2775(2)
C9B C 0.8458(4) 0.5671(3) 0.2893(3)
H3B H 0.7764 0.5528 0.2377
C11B C 0.8763(3) 0.5128(3) 0.3754(2)
H4B H 0.8267 0.4632 0.3811
C13B C 0.8790(3) 0.6938(3) 0.1766(3)
Zn1B Zn 1.31007(4) 0.84152(3) 0.46125(3)
N1B N 1.3302(3) 1.1105(2) 0.3435(2)
N2B N 1.4121(3) 0.7661(2) 0.4011(2)
N3B N 1.2948(3) 0.9759(2) 0.4109(2)
C6B C 1.2523(3) 1.0515(3) 0.4545(3)
C7B C 1.2754(4) 1.1368(3) 0.4132(3)
C8B C 1.3615(4) 0.5981(3) 0.4395(3)
H2B H 1.3241 0.6153 0.4861
C10B C 1.4661(4) 0.6395(3) 0.3232(3)
C12B C 1.3394(3) 1.0147(3) 0.3450(3)
C14B C 1.3894(4) 0.9612(3) 0.2757(3)
H5B H 1.3274 0.9205 0.2335
H6B H 1.4106 1.0068 0.2322
C15B C 1.1941(4) 1.0532(3) 0.5264(3)
H7B H 1.1747 0.9970 0.5527
N4B N 1.5034(3) 0.7243(3) 0.2922(2)
C16B C 1.4094(3) 0.6664(3) 0.3919(3)
C17B C 1.2464(4) 1.2250(3) 0.4439(3)
H8B H 1.2627 1.2815 0.4162
C18B C 1.4752(4) 0.5445(3) 0.2986(3)
H9B H 1.5134 0.5267 0.2527
C19B C 1.1922(5) 1.2245(3) 0.5173(4)
H10B H 1.1726 1.2822 0.5407
C20B C 1.1663(4) 1.1406(3) 0.5572(3)
H11B H 1.1289 1.1432 0.6064
C21B C 1.4699(3) 0.7975(3) 0.3403(3)
C22B C 1.3710(4) 0.5042(3) 0.4154(3)
H12B H 1.3404 0.4571 0.4470
C23B C 1.4254(4) 0.4781(3) 0.3449(4)
H13B H 1.4280 0.4140 0.3287
C24B C 1.4979(4) 0.8995(3) 0.3252(3)
H14B H 1.5408 0.9269 0.3900
H15B H 1.5502 0.9012 0.2841
H16B H 1.3590 1.1536 0.3037
H17B H 1.5347 0.7309 0.2438
Zn1A Zn 0.81007(4) 0.65848(3) -0.03875(3)
Zn1C Zn 1.18993(4) 0.34152(3) 1.03875(3)
O4A O 1.3801(2) 0.86221(18) 0.60478(17)
O4C O 0.6199(2) 0.13779(18) 0.39522(17)
O5 O 0.8955(3) 0.2335(3) 0.3607(2)
H18 H 0.8211 0.2478 0.3528
loop_
_geom_bond_atom_site_label_1
_geom_bond_atom_site_label_2
_geom_bond_site_symmetry_1
_geom_bond_site_symmetry_2
Zn1 O2 1_555 1_555
O1 C1 1_555 1_555
C1 O2 1_555 1_555
C2 H1 1_555 1_555
O3 C13 1_555 1_555
O4 C13 1_555 1_555
C3 C1 1_555 1_555
C4 C2 1_555 1_555
C5 C3 1_555 1_555
N1 C7 1_555 1_555
N2 Zn1 1_555 1_555
N3 Zn1 1_555 1_555
C6 N3 1_555 1_555
C7 C6 1_555 1_555
C8 H2 1_555 1_555
C9 C5 1_555 1_555
H3 C9 1_555 1_555
C10 N4 1_555 1_555
C11 C4 1_555 1_555
H4 C11 1_555 1_555
C12 N1 1_555 1_555
C13 C5 1_555 1_555
C14 C12 1_555 1_555
H5 C14 1_555 1_555
H6 C14 1_555 1_555
C15 C6 1_555 1_555
H7 C15 1_555 1_555
N4 C21 1_555 1_555
C16 N2 1_555 1_555
C17 C7 1_555 1_555
H8 C17 1_555 1_555
C18 C10 1_555 1_555
H9 C18 1_555 1_555
C19 C17 1_555 1_555
H10 C19 1_555 1_555
C20 C15 1_555 1_555
H11 C20 1_555 1_555
C21 N2 1_555 1_555
C22 C8 1_555 1_555
H12 C22 1_555 1_555
C23 C18 1_555 1_555
H13 C23 1_555 1_555
C24 C14 1_555 1_555
H14 C24 1_555 1_555
H15 C24 1_555 1_555
H16 N1 1_555 1_555
H17 N4 1_555 1_555
O5 H18 1_555 1_555
O1B C1B 1_555 1_555
C1B O2B 1_555 1_555
C2B H1B 1_555 1_555
O2B Zn1B 1_555 1_555
O3B C13B 1_555 1_555
O4B C13B 1_555 1_555
C3B C1B 1_555 1_555
C4B C4 1_555 1_555
C5B C3B 1_555 1_555
C9B C5B 1_555 1_555
H3B C9B 1_555 1_555
C11B C4B 1_555 1_555
H4B C11B 1_555 1_555
C13B C5B 1_555 1_555
Zn1B N2B 1_555 1_555
N1B C7B 1_555 1_555
N2B C16B 1_555 1_555
N3B Zn1B 1_555 1_555
C6B N3B 1_555 1_555
C7B C6B 1_555 1_555
C8B H2B 1_555 1_555
C10B N4B 1_555 1_555
C12B N1B 1_555 1_555
C14B C12B 1_555 1_555
H5B C14B 1_555 1_555
H6B C14B 1_555 1_555
C15B C6B 1_555 1_555
H7B C15B 1_555 1_555
N4B C21B 1_555 1_555
C16B C8B 1_555 1_555
C17B C7B 1_555 1_555
H8B C17B 1_555 1_555
C18B C10B 1_555 1_555
H9B C18B 1_555 1_555
C19B C17B 1_555 1_555
H10B C19B 1_555 1_555
C20B C15B 1_555 1_555
H11B C20B 1_555 1_555
C21B N2B 1_555 1_555
C22B C8B 1_555 1_555
H12B C22B 1_555 1_555
C23B C18B 1_555 1_555
H13B C23B 1_555 1_555
C24B C14B 1_555 1_555
H14B C24B 1_555 1_555
H15B C24B 1_555 1_555
H16B N1B 1_555 1_555
H17B N4B 1_555 1_555
Zn1A O4B 1_555 1_555
Zn1C O4 1_555 1_555
O4A Zn1B 1_555 1_555
O4C Zn1 1_555 1_555
C2 C3 1_555 1_555
N3 C12 1_555 1_555
C8 C16 1_555 1_555
C9 C11 1_555 1_555
C10 C16 1_555 1_555
C19 C20 1_555 1_555
C21 C24 1_555 1_555
C22 C23 1_555 1_555
C2B C3B 1_555 1_555
C2B C4B 1_555 1_555
C9B C11B 1_555 1_555
N3B C12B 1_555 1_555
C10B C16B 1_555 1_555
C19B C20B 1_555 1_555
C21B C24B 1_555 1_555
C22B C23B 1_555 1_555

#END
