
#######################################################################
#
#                 Cambridge Crystallographic Data Centre
#                                CCDC 
#
#######################################################################
#
# If this CIF has been generated from an entry in the Cambridge 
# Structural Database, then it will include bibliographic, chemical, 
# crystal, experimental, refinement or atomic coordinate data resulting 
# from the CCDC's data processing and validation procedures.
#
#######################################################################

data_TIGRIM
_symmetry_cell_setting           monoclinic
_symmetry_space_group_name_H-M   'P 21/c'
_symmetry_Int_Tables_number      14
_space_group_name_Hall           '-P 2ybc'
loop_
_symmetry_equiv_pos_site_id
_symmetry_equiv_pos_as_xyz
1 x,y,z
2 -x,1/2+y,1/2-z
3 -x,-y,-z
4 x,1/2-y,1/2+z
_cell_length_a                   6.8445(3)
_cell_length_b                   15.0636(8)
_cell_length_c                   16.1247(8)
_cell_angle_alpha                90
_cell_angle_beta                 98.489(1)
_cell_angle_gamma                90
_cell_volume                     1644.29
loop_
_atom_site_label
_atom_site_type_symbol
_atom_site_fract_x
_atom_site_fract_y
_atom_site_fract_z
Cu1 Cu 0.09137(4) 0.952967(18) 0.259869(17)
O1 O 0.2009(2) 0.86785(11) 0.34653(10)
O2 O -0.0482(2) 0.81759(12) 0.40832(11)
O3 O 0.1089(2) 0.63482(11) 0.66709(10)
O4 O 0.4124(3) 0.58384(13) 0.70148(11)
O5 O -0.2154(3) 0.93001(15) 0.29223(14)
H1 H -0.178(4) 0.8888(14) 0.3270(15)
H2 H -0.329(2) 0.922(2) 0.2659(17)
N1 N 0.1838(4) 1.05694(13) 0.34159(15)
N2 N -0.0085(4) 1.05177(13) 0.17622(15)
C1 C 0.2782(3) 0.77581(14) 0.46301(14)
C2 C 0.2196(3) 0.73199(14) 0.53179(14)
H3 H 0.0880 0.7341 0.5399
C3 C 0.3546(3) 0.68555(15) 0.58788(14)
C4 C 0.5526(4) 0.68460(17) 0.57640(16)
H4 H 0.6454 0.6548 0.6144
C5 C 0.6107(4) 0.72785(17) 0.50869(17)
H5 H 0.7426 0.7267 0.5009
C6 C 0.4740(4) 0.77295(16) 0.45227(16)
H6 H 0.5147 0.8016 0.4067
C7 C 0.1285(4) 0.82416(15) 0.40186(14)
C8 C 0.2903(4) 0.63214(15) 0.65786(14)
C9 C 0.1302(5) 1.14103(18) 0.2952(2)
H7 H 0.1013 1.1866 0.3342
H8 H 0.2408 1.1611 0.2688
C10 C -0.0422(6) 1.1275(2) 0.2313(2)
H9 H -0.0673 1.1809 0.1978
H10 H -0.1573 1.1157 0.2582
C11 C 0.0840(6) 1.0536(2) 0.41638(19)
H11 H 0.1323 1.1008 0.4539
H12 H 0.1105 0.9976 0.4441
H13 H -0.0558 1.0603 0.3999
C12 C 0.3992(5) 1.0518(2) 0.3677(2)
H14 H 0.4415 1.1007 0.4041
H15 H 0.4647 1.0545 0.3191
H16 H 0.4315 0.9970 0.3968
C13 C -0.1981(6) 1.0325(2) 0.1252(2)
H17 H -0.2323 1.0799 0.0860
H18 H -0.2981 1.0268 0.1608
H19 H -0.1885 0.9780 0.0952
C14 C 0.1338(6) 1.0745(3) 0.1208(2)
H20 H 0.1325 1.0297 0.0785
H21 H 0.2635 1.0782 0.1528
H22 H 0.0992 1.1308 0.0947
Cu1C Cu 0.09137(4) 0.547033(18) 0.759869(17)
O3C O 0.1089(2) 0.86518(11) 0.16709(10)
O4C O 0.4124(3) 0.91616(13) 0.20148(11)
loop_
_geom_bond_atom_site_label_1
_geom_bond_atom_site_label_2
_geom_bond_site_symmetry_1
_geom_bond_site_symmetry_2
Cu1 O1 1_555 1_555
O1 C7 1_555 1_555
O2 C7 1_555 1_555
O3 C8 1_555 1_555
O4 C8 1_555 1_555
O5 Cu1 1_555 1_555
H1 O5 1_555 1_555
H2 O5 1_555 1_555
N1 Cu1 1_555 1_555
N2 Cu1 1_555 1_555
C1 C2 1_555 1_555
C2 H3 1_555 1_555
C3 C2 1_555 1_555
C4 C3 1_555 1_555
H4 C4 1_555 1_555
C5 C4 1_555 1_555
H5 C5 1_555 1_555
C6 C1 1_555 1_555
H6 C6 1_555 1_555
C7 C1 1_555 1_555
C8 C3 1_555 1_555
C9 N1 1_555 1_555
H7 C9 1_555 1_555
H8 C9 1_555 1_555
C10 N2 1_555 1_555
H9 C10 1_555 1_555
H10 C10 1_555 1_555
C11 N1 1_555 1_555
H11 C11 1_555 1_555
H12 C11 1_555 1_555
H13 C11 1_555 1_555
C12 N1 1_555 1_555
H14 C12 1_555 1_555
H15 C12 1_555 1_555
H16 C12 1_555 1_555
C13 N2 1_555 1_555
H17 C13 1_555 1_555
H18 C13 1_555 1_555
H19 C13 1_555 1_555
C14 N2 1_555 1_555
H20 C14 1_555 1_555
H21 C14 1_555 1_555
H22 C14 1_555 1_555
Cu1C O3 1_555 1_555
O3C Cu1 1_555 1_555
O4C Cu1 1_555 1_555
O4 Cu1C 1_555 1_555
C5 C6 1_555 1_555
C9 C10 1_555 1_555

#END
