
#######################################################################
#
#                 Cambridge Crystallographic Data Centre
#                                CCDC 
#
#######################################################################
#
# If this CIF has been generated from an entry in the Cambridge 
# Structural Database, then it will include bibliographic, chemical, 
# crystal, experimental, refinement or atomic coordinate data resulting 
# from the CCDC's data processing and validation procedures.
#
#######################################################################

data_TIGWUD
_symmetry_cell_setting           monoclinic
_symmetry_space_group_name_H-M   'P 21/n'
_symmetry_Int_Tables_number      14
_space_group_name_Hall           '-P 2yn'
loop_
_symmetry_equiv_pos_site_id
_symmetry_equiv_pos_as_xyz
1 x,y,z
2 1/2-x,1/2+y,1/2-z
3 -x,-y,-z
4 1/2+x,1/2-y,1/2+z
_cell_length_a                   9.5616(6)
_cell_length_b                   5.8596(3)
_cell_length_c                   14.8828(8)
_cell_angle_alpha                90
_cell_angle_beta                 101.644(5)
_cell_angle_gamma                90
_cell_volume                     816.681
loop_
_atom_site_label
_atom_site_type_symbol
_atom_site_fract_x
_atom_site_fract_y
_atom_site_fract_z
Cd1 Cd 0.5000 0.5000 0.5000
N1 N 0.4613(2) -0.1782(4) 0.57795(16)
C1 C 0.4310(2) 0.0026(4) 0.59700(15)
S1 S 0.38868(7) 0.26095(11) 0.62589(4)
N2 N 0.2618(2) 0.5442(4) 0.40846(15)
Cl1 Cl -0.11189(8) 0.24365(18) 0.39052(6)
C2 C 0.1578(3) 0.3987(5) 0.41685(19)
H1 H 0.1805 0.2680 0.4523
C3 C 0.0174(3) 0.4369(5) 0.37425(18)
C4 C -0.0183(3) 0.6265(6) 0.3209(2)
H2 H -0.1123 0.6541 0.2918
C5 C 0.0891(3) 0.7746(6) 0.3117(2)
H3 H 0.0692 0.9049 0.2757
C6 C 0.2269(3) 0.7280(5) 0.3565(2)
H4 H 0.2988 0.8300 0.3501
N1B N 0.5387(2) 0.1782(4) 0.42205(16)
C1B C 0.5690(2) -0.0026(4) 0.40300(15)
S1B S 0.61132(7) -0.26095(11) 0.37411(4)
N2B N 0.7382(2) 0.4558(4) 0.59154(15)
Cl1B Cl 1.11189(8) 0.75635(18) 0.60948(6)
C2B C 0.8422(3) 0.6013(5) 0.58315(19)
H1B H 0.8195 0.7320 0.5477
C3B C 0.9826(3) 0.5631(5) 0.62575(18)
C4B C 1.0183(3) 0.3735(6) 0.6791(2)
H2B H 1.1123 0.3459 0.7082
C5B C 0.9109(3) 0.2254(6) 0.6883(2)
H3B H 0.9308 0.0951 0.7243
C6B C 0.7731(3) 0.2720(5) 0.6435(2)
H4B H 0.7012 0.1700 0.6499
Cd1_2 Cd 0.5000 -0.5000 0.5000
N1_2 N 0.4613(2) 0.8218(4) 0.57795(16)
S1B_2 S 0.61132(7) 0.73905(11) 0.37411(4)
loop_
_geom_bond_atom_site_label_1
_geom_bond_atom_site_label_2
_geom_bond_site_symmetry_1
_geom_bond_site_symmetry_2
Cd1 S1 1_555 1_555
N1 C1 1_555 1_555
C1 S1 1_555 1_555
N2 Cd1 1_555 1_555
Cl1 C3 1_555 1_555
C2 N2 1_555 1_555
H1 C2 1_555 1_555
C3 C2 1_555 1_555
C4 C3 1_555 1_555
H2 C4 1_555 1_555
C5 C4 1_555 1_555
H3 C5 1_555 1_555
C6 N2 1_555 1_555
H4 C6 1_555 1_555
N1B Cd1 1_555 1_555
C1B N1B 1_555 1_555
S1B C1B 1_555 1_555
N2B Cd1 1_555 1_555
Cl1B C3B 1_555 1_555
C2B N2B 1_555 1_555
H1B C2B 1_555 1_555
C3B C2B 1_555 1_555
C4B C3B 1_555 1_555
H2B C4B 1_555 1_555
C5B C4B 1_555 1_555
H3B C5B 1_555 1_555
C6B N2B 1_555 1_555
H4B C6B 1_555 1_555
Cd1_2 N1 1_555 1_555
N1_2 Cd1 1_555 1_555
S1B_2 Cd1 1_555 1_555
C5 C6 1_555 1_555
S1B Cd1_2 1_555 1_555
C5B C6B 1_555 1_555

#END
