
#######################################################################
#
#                 Cambridge Crystallographic Data Centre
#                                CCDC 
#
#######################################################################
#
# If this CIF has been generated from an entry in the Cambridge 
# Structural Database, then it will include bibliographic, chemical, 
# crystal, experimental, refinement or atomic coordinate data resulting 
# from the CCDC's data processing and validation procedures.
#
#######################################################################

data_TIHCOE
_symmetry_cell_setting           monoclinic
_symmetry_space_group_name_H-M   'P 21/n'
_symmetry_Int_Tables_number      14
_space_group_name_Hall           '-P 2yn'
loop_
_symmetry_equiv_pos_site_id
_symmetry_equiv_pos_as_xyz
1 x,y,z
2 1/2-x,1/2+y,1/2-z
3 -x,-y,-z
4 1/2+x,1/2-y,1/2+z
_cell_length_a                   7.51650(10)
_cell_length_b                   15.2093(2)
_cell_length_c                   15.9472(3)
_cell_angle_alpha                90
_cell_angle_beta                 99.0800(10)
_cell_angle_gamma                90
_cell_volume                     1800.25
loop_
_atom_site_label
_atom_site_type_symbol
_atom_site_fract_x
_atom_site_fract_y
_atom_site_fract_z
Cu1 Cu 0.0000 0.5000 0.5000
Cu2 Cu 1.0000 0.5000 0.0000
O1 O 1.0339(2) 0.61414(9) 0.05292(9)
O2 O 0.8936(2) 0.67904(11) -0.06430(9)
O3 O 0.9634(2) 0.65953(12) 0.47977(10)
O4 O 0.78531(18) 0.55194(9) 0.42559(8)
N1 N 0.7852(2) 0.48002(11) 0.05955(10)
N2 N 0.3361(2) 0.42616(11) 0.17668(10)
H1 H 0.263(3) 0.3930(16) 0.1435(15)
N3 N 0.1214(2) 0.48567(10) 0.39694(10)
C1 C 0.6618(3) 0.41711(12) 0.03224(12)
H2 H 0.6765 0.3845 -0.0170
C2 C 0.5182(2) 0.39811(13) 0.07138(11)
H3 H 0.4368 0.3528 0.0497
C3 C 0.4899(2) 0.44561(12) 0.14408(11)
C4 C 0.6164(3) 0.51063(12) 0.17277(14)
H4 H 0.6045 0.5444 0.2217
C5 C 0.7586(3) 0.52536(13) 0.12951(12)
H5 H 0.8428 0.5700 0.1500
C6 C 0.0247(2) 0.44904(12) 0.32785(12)
H6 H -0.0987 0.4362 0.3287
C7 C 0.0961(2) 0.42926(12) 0.25566(11)
H7 H 0.0231 0.4020 0.2088
C8 C 0.2761(2) 0.44935(11) 0.25152(11)
C9 C 0.3784(3) 0.48652(13) 0.32360(14)
H8 H 0.5020 0.5003 0.3245
C10 C 0.2954(3) 0.50276(12) 0.39355(13)
H9 H 0.3662 0.5276 0.4424
C11 C 0.9680(3) 0.68110(13) 0.00998(12)
C12 C 0.9878(3) 0.76764(13) 0.05907(13)
H10 H 1.1159 0.7858 0.0692
H11 H 0.9173 0.8142 0.0254
C13 C 0.9212(3) 0.75643(12) 0.14292(12)
C14 C 0.7377(3) 0.75937(13) 0.14635(12)
H12 H 0.6555 0.7751 0.0971
C15 C 0.6738(3) 0.73966(13) 0.22080(13)
H13 H 0.5478 0.7416 0.2217
C16 C 0.7896(3) 0.71710(12) 0.29424(11)
C17 C 0.9737(3) 0.71549(14) 0.29125(12)
H14 H 1.0561 0.7012 0.3409
C18 C 1.0377(3) 0.73458(13) 0.21618(13)
H15 H 1.1636 0.7326 0.2151
C19 C 0.7129(3) 0.69736(13) 0.37497(12)
H16 H 0.7039 0.7528 0.4066
H17 H 0.5899 0.6730 0.3596
C20 C 0.8275(3) 0.63299(13) 0.43137(11)
N1B N -0.7852(2) 0.51998(11) 0.94045(10)
N2B N -0.3361(2) 0.57384(11) 0.82332(10)
H1B H -0.263(3) 0.6070(16) 0.8565(15)
N3B N -0.1214(2) 0.51433(10) 0.60306(10)
C1B C -0.6618(3) 0.58289(12) 0.96776(12)
H2B H -0.6765 0.6155 1.0170
C2B C -0.5182(2) 0.60189(13) 0.92862(11)
H3B H -0.4368 0.6472 0.9503
C3B C -0.4899(2) 0.55439(12) 0.85592(11)
C4B C -0.6164(3) 0.48937(12) 0.82723(14)
H4B H -0.6045 0.4556 0.7783
C5B C -0.7586(3) 0.47464(13) 0.87049(12)
H5B H -0.8428 0.4300 0.8500
C6B C -0.0247(2) 0.55096(12) 0.67215(12)
H6B H 0.0987 0.5638 0.6713
C7B C -0.0961(2) 0.57074(12) 0.74434(11)
H7B H -0.0231 0.5980 0.7912
C8B C -0.2761(2) 0.55065(11) 0.74848(11)
C9B C -0.3784(3) 0.51348(13) 0.67640(14)
H8B H -0.5020 0.4997 0.6755
C10B C -0.2954(3) 0.49724(12) 0.60645(13)
H9B H -0.3662 0.4724 0.5576
O1B O -0.0339(2) 0.38586(9) 0.94708(9)
O2B O 0.1064(2) 0.32096(11) 1.06430(9)
O3B O 0.0366(2) 0.34047(12) 0.52023(10)
O4B O 0.21469(18) 0.44806(9) 0.57441(8)
C11B C 0.0320(3) 0.31890(13) 0.99002(12)
C12B C 0.0122(3) 0.23236(13) 0.94093(13)
H10B H -0.1159 0.2142 0.9308
H11B H 0.0827 0.1858 0.9746
C13B C 0.0788(3) 0.24357(12) 0.85708(12)
C14B C 0.2623(3) 0.24063(13) 0.85365(12)
H12B H 0.3445 0.2249 0.9029
C15B C 0.3262(3) 0.26034(13) 0.77920(13)
H13B H 0.4522 0.2584 0.7783
C16B C 0.2104(3) 0.28290(12) 0.70576(11)
C17B C 0.0263(3) 0.28451(14) 0.70875(12)
H14B H -0.0561 0.2988 0.6591
C18B C -0.0377(3) 0.26542(13) 0.78382(13)
H15B H -0.1636 0.2674 0.7849
C19B C 0.2871(3) 0.30264(13) 0.62503(12)
H16B H 0.2961 0.2472 0.5934
H17B H 0.4101 0.3270 0.6404
C20B C 0.1725(3) 0.36701(13) 0.56863(11)
Cu1_2 Cu 1.0000 0.5000 0.5000
Cu2_2 Cu -1.0000 0.5000 1.0000
Cu2_3 Cu 0.0000 0.5000 1.0000
O1B_2 O 0.9661(2) 0.38586(9) -0.05292(9)
O3_2 O -0.0366(2) 0.65953(12) 0.47977(10)
O4_2 O -0.21469(18) 0.55194(9) 0.42559(8)
N1B_2 N 1.2148(2) 0.51998(11) -0.05955(10)
loop_
_geom_bond_atom_site_label_1
_geom_bond_atom_site_label_2
_geom_bond_site_symmetry_1
_geom_bond_site_symmetry_2
Cu1 N3 1_555 1_555
Cu2 O1 1_555 1_555
O1 C11 1_555 1_555
O2 C11 1_555 1_555
O3 C20 1_555 1_555
O4 C20 1_555 1_555
N1 Cu2 1_555 1_555
N2 H1 1_555 1_555
N3 C6 1_555 1_555
C1 N1 1_555 1_555
H2 C1 1_555 1_555
C2 C1 1_555 1_555
H3 C2 1_555 1_555
C3 N2 1_555 1_555
C4 C3 1_555 1_555
H4 C4 1_555 1_555
C5 N1 1_555 1_555
H5 C5 1_555 1_555
C6 H6 1_555 1_555
C7 C6 1_555 1_555
H7 C7 1_555 1_555
C8 N2 1_555 1_555
C9 C8 1_555 1_555
H8 C9 1_555 1_555
C10 N3 1_555 1_555
H9 C10 1_555 1_555
C11 C12 1_555 1_555
C12 H10 1_555 1_555
H11 C12 1_555 1_555
C13 C12 1_555 1_555
C14 C13 1_555 1_555
H12 C14 1_555 1_555
C15 C14 1_555 1_555
H13 C15 1_555 1_555
C16 C15 1_555 1_555
C17 C16 1_555 1_555
H14 C17 1_555 1_555
C18 C13 1_555 1_555
H15 C18 1_555 1_555
C19 C16 1_555 1_555
H16 C19 1_555 1_555
H17 C19 1_555 1_555
C20 C19 1_555 1_555
N1B C1B 1_555 1_555
N2B H1B 1_555 1_555
N3B Cu1 1_555 1_555
C1B H2B 1_555 1_555
C2B C1B 1_555 1_555
H3B C2B 1_555 1_555
C3B N2B 1_555 1_555
C4B C3B 1_555 1_555
H4B C4B 1_555 1_555
C5B N1B 1_555 1_555
H5B C5B 1_555 1_555
C6B N3B 1_555 1_555
H6B C6B 1_555 1_555
C7B C6B 1_555 1_555
H7B C7B 1_555 1_555
C8B N2B 1_555 1_555
C9B C8B 1_555 1_555
H8B C9B 1_555 1_555
C10B N3B 1_555 1_555
H9B C10B 1_555 1_555
O1B C11B 1_555 1_555
O2B C11B 1_555 1_555
O3B Cu1 1_555 1_555
O4B Cu1 1_555 1_555
C11B C12B 1_555 1_555
C12B H10B 1_555 1_555
H11B C12B 1_555 1_555
C13B C12B 1_555 1_555
C14B C13B 1_555 1_555
H12B C14B 1_555 1_555
C15B C14B 1_555 1_555
H13B C15B 1_555 1_555
C16B C15B 1_555 1_555
C17B C16B 1_555 1_555
H14B C17B 1_555 1_555
C18B C13B 1_555 1_555
H15B C18B 1_555 1_555
C19B C16B 1_555 1_555
H16B C19B 1_555 1_555
H17B C19B 1_555 1_555
C20B O3B 1_555 1_555
Cu1_2 O3 1_555 1_555
Cu2_2 N1B 1_555 1_555
Cu2_3 O1B 1_555 1_555
O1B_2 Cu2 1_555 1_555
O3_2 Cu1 1_555 1_555
O4_2 Cu1 1_555 1_555
N1B_2 Cu2 1_555 1_555
O4 Cu1_2 1_555 1_555
C2 C3 1_555 1_555
C4 C5 1_555 1_555
C7 C8 1_555 1_555
C9 C10 1_555 1_555
C17 C18 1_555 1_555
C2B C3B 1_555 1_555
C4B C5B 1_555 1_555
C7B C8B 1_555 1_555
C9B C10B 1_555 1_555
O4B C20B 1_555 1_555
C17B C18B 1_555 1_555
C19B C20B 1_555 1_555

#END
