
#######################################################################
#
#                 Cambridge Crystallographic Data Centre
#                                CCDC 
#
#######################################################################
#
# If this CIF has been generated from an entry in the Cambridge 
# Structural Database, then it will include bibliographic, chemical, 
# crystal, experimental, refinement or atomic coordinate data resulting 
# from the CCDC's data processing and validation procedures.
#
#######################################################################

data_TIHFUN
_symmetry_cell_setting           tetragonal
_symmetry_space_group_name_H-M   'P 42 21 2'
_symmetry_Int_Tables_number      94
_space_group_name_Hall           'P 4n 2n'
loop_
_symmetry_equiv_pos_site_id
_symmetry_equiv_pos_as_xyz
1 x,y,z
2 -x,-y,z
3 1/2-y,1/2+x,1/2+z
4 1/2+y,1/2-x,1/2+z
5 1/2-x,1/2+y,1/2-z
6 1/2+x,1/2-y,1/2-z
7 y,x,-z
8 -y,-x,-z
_cell_length_a                   18.2560(7)
_cell_length_b                   18.2560(7)
_cell_length_c                   7.7060(6)
_cell_angle_alpha                90
_cell_angle_beta                 90
_cell_angle_gamma                90
_cell_volume                     2568.27
loop_
_atom_site_label
_atom_site_type_symbol
_atom_site_fract_x
_atom_site_fract_y
_atom_site_fract_z
Cd1 Cd 0.670305(10) 0.666179(10) 0.24837(3)
O1 O 0.63775(12) 0.75090(11) 0.0246(4)
O2 O 0.71025(14) 0.78536(12) -0.1917(3)
O3 O 0.80822(14) 1.03867(12) -0.2016(3)
O4 O 0.76674(13) 1.12187(11) -0.0196(3)
N1 N 0.63900(15) 0.54848(15) 0.1976(3)
N2 N 0.65385(17) 0.43256(15) 0.1234(4)
C1 C 0.68381(16) 0.87306(15) 0.0291(4)
C2 C 0.72307(17) 0.92788(16) -0.0518(4)
H1 H 0.7489 0.9174 -0.1529
C3 C 0.72455(15) 0.99796(15) 0.0151(4)
C4 C 0.68573(18) 1.01354(17) 0.1642(4)
H2 H 0.6853 1.0612 0.2067
C5 C 0.64685(18) 0.95887(16) 0.2529(5)
C6 C 0.64669(19) 0.88894(18) 0.1825(4)
H3 H 0.6212 0.8518 0.2391
C7 C 0.67789(16) 0.79803(16) -0.0502(4)
C8 C 0.76975(17) 1.05579(16) -0.0746(4)
C9 C 0.6080(3) 0.9755(3) 0.4229(7)
H4 H 0.6414 0.9688 0.5177
H5 H 0.5671 0.9430 0.4364
H6 H 0.5909 1.0252 0.4218
C10 C 0.67252(17) 0.50186(18) 0.0954(4)
H7 H 0.7062 0.5160 0.0113
C11 C 0.5972(3) 0.5048(3) 0.2990(6)
H8 H 0.5672 0.5213 0.3883
C12 C 0.6049(3) 0.4335(2) 0.2526(7)
H9 H 0.5810 0.3934 0.3009
C13 C 0.6865(2) 0.3681(2) 0.0309(5)
H10 H 0.7142 0.3858 -0.0681
H11 H 0.7205 0.3438 0.1085
N1G N 0.45152(15) 0.36100(15) -0.1976(3)
N2G N 0.56744(15) 0.34615(17) -0.1234(4)
C10G C 0.49814(18) 0.32748(17) -0.0954(4)
H7G H 0.4840 0.2938 -0.0113
C11G C 0.4952(3) 0.4028(3) -0.2990(6)
H8G H 0.4787 0.4328 -0.3883
C12G C 0.5665(2) 0.3951(3) -0.2526(7)
H9G H 0.6066 0.4190 -0.3009
C13G C 0.6319(2) 0.3135(2) -0.0309(5)
H10G H 0.6142 0.2858 0.0681
H11G H 0.6562 0.2795 -0.1085
Cd1F Cd 0.666179(10) 0.670305(10) -0.24837(3)
O1F O 0.75090(11) 0.63775(12) -0.0246(4)
O2F O 0.78536(12) 0.71025(14) 0.1917(3)
O3F O 1.03867(12) 0.80822(14) 0.2016(3)
O4F O 1.12187(11) 0.76674(13) 0.0196(3)
C1F C 0.87306(15) 0.68381(16) -0.0291(4)
C2F C 0.92788(16) 0.72307(17) 0.0518(4)
H1F H 0.9174 0.7489 0.1529
C3F C 0.99796(15) 0.72455(15) -0.0151(4)
C4F C 1.01354(17) 0.68573(18) -0.1642(4)
H2F H 1.0612 0.6853 -0.2067
C5F C 0.95887(16) 0.64685(18) -0.2529(5)
C6F C 0.88894(18) 0.64669(19) -0.1825(4)
H3F H 0.8518 0.6212 -0.2391
C7F C 0.79803(16) 0.67789(16) 0.0502(4)
C8F C 1.05579(16) 0.76975(17) 0.0746(4)
C9F C 0.9755(3) 0.6080(3) -0.4229(7)
H4F H 0.9688 0.6414 -0.5177
H5F H 0.9430 0.5671 -0.4364
H6F H 1.0252 0.5909 -0.4218
Cd1B Cd 0.833821(10) 1.170305(10) -0.25163(3)
Cd1C Cd 1.166179(10) 0.829695(10) -0.25163(3)
Cd1D Cd 0.829695(10) 1.166179(10) 0.25163(3)
Cd1E Cd 1.170305(10) 0.833821(10) 0.25163(3)
Cd1G Cd 0.333821(10) 0.329695(10) -0.24837(3)
O3C O 0.53867(12) 0.69178(14) 0.2984(3)
O3D O 0.69178(14) 0.53867(12) -0.2984(3)
O4C O 0.62187(11) 0.73326(13) -0.5196(3)
O4C_2 O 0.62187(11) 0.73326(13) 0.4804(3)
O4D O 0.73326(13) 0.62187(11) -0.4804(3)
O4D_2 O 0.73326(13) 0.62187(11) 0.5196(3)
N1F N 0.54848(15) 0.63900(15) -0.1976(3)
loop_
_geom_bond_atom_site_label_1
_geom_bond_atom_site_label_2
_geom_bond_site_symmetry_1
_geom_bond_site_symmetry_2
Cd1 O1 1_555 1_555
O1 C7 1_555 1_555
O2 C7 1_555 1_555
O3 C8 1_555 1_555
O4 C8 1_555 1_555
N1 Cd1 1_555 1_555
N2 C10 1_555 1_555
C1 C2 1_555 1_555
C2 H1 1_555 1_555
C3 C2 1_555 1_555
C4 C3 1_555 1_555
H2 C4 1_555 1_555
C5 C4 1_555 1_555
C6 C1 1_555 1_555
H3 C6 1_555 1_555
C7 C1 1_555 1_555
C8 C3 1_555 1_555
C9 C5 1_555 1_555
H4 C9 1_555 1_555
H5 C9 1_555 1_555
H6 C9 1_555 1_555
C10 N1 1_555 1_555
H7 C10 1_555 1_555
C11 N1 1_555 1_555
H8 C11 1_555 1_555
C12 N2 1_555 1_555
H9 C12 1_555 1_555
C13 N2 1_555 1_555
H10 C13 1_555 1_555
H11 C13 1_555 1_555
N1G C10G 1_555 1_555
N2G C10G 1_555 1_555
C10G H7G 1_555 1_555
C11G N1G 1_555 1_555
H8G C11G 1_555 1_555
C12G N2G 1_555 1_555
H9G C12G 1_555 1_555
C13G C13 1_555 1_555
H10G C13G 1_555 1_555
H11G C13G 1_555 1_555
Cd1F O1 1_555 1_555
O1F Cd1 1_555 1_555
O2F Cd1 1_555 1_555
O3F C8F 1_555 1_555
O4F C8F 1_555 1_555
C1F C2F 1_555 1_555
C2F H1F 1_555 1_555
C3F C2F 1_555 1_555
C4F C3F 1_555 1_555
H2F C4F 1_555 1_555
C5F C4F 1_555 1_555
C6F C1F 1_555 1_555
H3F C6F 1_555 1_555
C7F O1F 1_555 1_555
C8F C3F 1_555 1_555
C9F C5F 1_555 1_555
H4F C9F 1_555 1_555
H5F C9F 1_555 1_555
H6F C9F 1_555 1_555
Cd1B O3 1_555 1_555
Cd1C O4F 1_555 1_555
Cd1D O4 1_555 1_555
Cd1E O3F 1_555 1_555
Cd1G N1G 1_555 1_555
O3C Cd1 1_555 1_555
O3D Cd1F 1_555 1_555
O4C Cd1F 1_555 1_555
O4C_2 Cd1 1_555 1_555
O4D Cd1F 1_555 1_555
O4D_2 Cd1 1_555 1_555
N1F Cd1F 1_555 1_555
O2 Cd1F 1_555 1_555
O4 Cd1B 1_555 1_555
C5 C6 1_555 1_555
C11 C12 1_555 1_555
N2G C13G 1_555 1_555
C11G C12G 1_555 1_555
Cd1F O1F 1_555 1_555
O2F C7F 1_555 1_555
O4F Cd1E 1_555 1_555
C1F C7F 1_555 1_555
C5F C6F 1_555 1_555

#END
