
#######################################################################
#
#                 Cambridge Crystallographic Data Centre
#                                CCDC 
#
#######################################################################
#
# If this CIF has been generated from an entry in the Cambridge 
# Structural Database, then it will include bibliographic, chemical, 
# crystal, experimental, refinement or atomic coordinate data resulting 
# from the CCDC's data processing and validation procedures.
#
#######################################################################

data_TIHWEM
_symmetry_cell_setting           monoclinic
_symmetry_space_group_name_H-M   'C 2/c'
_symmetry_Int_Tables_number      15
_space_group_name_Hall           '-C 2yn'
loop_
_symmetry_equiv_pos_site_id
_symmetry_equiv_pos_as_xyz
1 x,y,z
2 1/2+x,1/2+y,z
3 x,-y,1/2+z
4 1/2+x,1/2-y,1/2+z
5 -x,-y,-z
6 1/2-x,1/2-y,-z
7 -x,y,1/2-z
8 1/2-x,1/2+y,1/2-z
_cell_length_a                   21.9103(3)
_cell_length_b                   12.1307(2)
_cell_length_c                   25.7047(3)
_cell_angle_alpha                90
_cell_angle_beta                 110.0810(10)
_cell_angle_gamma                90
_cell_volume                     6416.65
loop_
_atom_site_label
_atom_site_type_symbol
_atom_site_fract_x
_atom_site_fract_y
_atom_site_fract_z
Cu1 Cu 0.02083(2) 0.02009(4) 0.069694(15)
Cu2 Cu 0.02444(2) 0.10800(4) 0.194932(15)
N1 N 0.08984(14) -0.0052(2) 0.03265(11)
N2 N 0.07252(14) 0.0020(2) -0.02326(11)
C1 C 0.11870(18) 0.0057(3) -0.04552(14)
H1 H 0.1060 0.0145 -0.0845
C2 C 0.18444(18) -0.0026(3) -0.01539(16)
H2 H 0.2161 -0.0004 -0.0330
C3 C 0.20187(18) -0.0139(3) 0.04049(16)
H3 H 0.2461 -0.0225 0.0633
C4 C 0.15252(18) -0.0122(3) 0.06279(14)
H4 H 0.1642 -0.0164 0.1019
N3 N 0.05164(14) -0.0812(2) 0.13607(11)
N4 N 0.04727(14) -0.0491(2) 0.18495(11)
C5 C 0.0684(2) -0.1177(3) 0.22789(14)
H5 H 0.0647 -0.0951 0.2621
C6 C 0.0954(2) -0.2203(4) 0.22559(16)
H6 H 0.1096 -0.2672 0.2571
C7 C 0.1008(2) -0.2510(3) 0.17635(17)
H7 H 0.1200 -0.3193 0.1723
C8 C 0.0773(2) -0.1786(3) 0.13257(15)
H8 H 0.0798 -0.2000 0.0978
N5 N 0.04008(13) 0.1815(2) 0.08997(11)
N6 N 0.04951(14) 0.2159(2) 0.14255(11)
C9 C 0.0645(2) 0.3211(3) 0.15519(16)
H9 H 0.0716 0.3444 0.1921
C10 C 0.0704(2) 0.3984(3) 0.11759(18)
H10 H 0.0810 0.4730 0.1282
C11 C 0.0604(2) 0.3639(3) 0.06489(17)
H11 H 0.0636 0.4133 0.0373
C12 C 0.04545(18) 0.2543(3) 0.05332(14)
H12 H 0.0385 0.2292 0.0167
N7 N 0.08870(14) 0.1488(2) 0.27292(11)
N8 N 0.06619(14) 0.1605(2) 0.31552(11)
C13 C 0.10588(18) 0.1988(3) 0.36325(14)
H13 H 0.0891 0.2095 0.3924
C14 C 0.17083(18) 0.2243(3) 0.37338(15)
H14 H 0.1980 0.2513 0.4084
C15 C 0.19384(18) 0.2089(3) 0.33061(15)
H15 H 0.2380 0.2230 0.3350
C16 C 0.15016(17) 0.1721(3) 0.28083(14)
H16 H 0.1652 0.1629 0.2506
N2D N -0.07252(14) -0.0020(2) 0.02326(11)
N8F N -0.06619(14) 0.1605(2) 0.18448(11)
Cu1D Cu -0.02083(2) -0.02009(4) -0.069694(15)
Cu2F Cu -0.02444(2) 0.10800(4) 0.305068(15)
P1 P -0.13661(5) 0.35482(8) -0.02056(4)
F1 F -0.0973(2) 0.4201(5) 0.03158(19)
F2 F -0.17296(19) 0.4621(3) -0.0486(2)
F3 F -0.19363(16) 0.3319(3) 0.00225(15)
F4 F -0.17433(16) 0.2827(4) -0.07335(13)
F5 F -0.10057(14) 0.2451(2) 0.00709(14)
F6 F -0.08040(15) 0.3748(3) -0.04515(15)
P2 P 0.28050(5) 0.00335(9) 0.22906(4)
F7 F 0.20381(15) -0.0001(3) 0.20708(15)
F8 F 0.2792(2) 0.1264(3) 0.20964(15)
F9 F 0.35775(14) 0.0062(3) 0.25214(12)
F10 F 0.28058(14) -0.0390(3) 0.17030(10)
F11 F 0.2840(2) -0.1204(2) 0.25054(13)
F12 F 0.28065(14) 0.0454(3) 0.28791(11)
C17 C 0.2603(2) -0.1555(4) 0.3695(2)
H17 H 0.2617 -0.2022 0.3383
H18 H 0.2927 -0.0959 0.3747
Cl1 Cl 0.28009(8) -0.23445(14) 0.42927(8)
Cl2 Cl 0.18240(7) -0.09753(13) 0.35314(5)
C18 C -0.1057(3) -0.3954(7) 0.1190(3)
H19 H -0.1415 -0.3710 0.1315
H20 H -0.1216 -0.4582 0.0933
Cl3 Cl -0.08311(13) -0.2859(2) 0.08383(12)
Cl4 Cl -0.03928(14) -0.4384(3) 0.17663(11)
loop_
_geom_bond_atom_site_label_1
_geom_bond_atom_site_label_2
_geom_bond_site_symmetry_1
_geom_bond_site_symmetry_2
Cu1 N1 1_555 1_555
Cu2 N4 1_555 1_555
N1 N2 1_555 1_555
N2 C1 1_555 1_555
C1 H1 1_555 1_555
C2 C1 1_555 1_555
H2 C2 1_555 1_555
C3 C2 1_555 1_555
H3 C3 1_555 1_555
C4 N1 1_555 1_555
H4 C4 1_555 1_555
N3 Cu1 1_555 1_555
N4 N3 1_555 1_555
C5 N4 1_555 1_555
H5 C5 1_555 1_555
C6 C5 1_555 1_555
H6 C6 1_555 1_555
C7 C6 1_555 1_555
H7 C7 1_555 1_555
C8 N3 1_555 1_555
H8 C8 1_555 1_555
N5 Cu1 1_555 1_555
N6 Cu2 1_555 1_555
C9 N6 1_555 1_555
H9 C9 1_555 1_555
C10 C9 1_555 1_555
H10 C10 1_555 1_555
C11 C10 1_555 1_555
H11 C11 1_555 1_555
C12 N5 1_555 1_555
H12 C12 1_555 1_555
N7 Cu2 1_555 1_555
N8 N7 1_555 1_555
C13 N8 1_555 1_555
H13 C13 1_555 1_555
C14 C13 1_555 1_555
H14 C14 1_555 1_555
C15 C14 1_555 1_555
H15 C15 1_555 1_555
C16 N7 1_555 1_555
H16 C16 1_555 1_555
P1 F1 1_555 1_555
F2 P1 1_555 1_555
P2 F7 1_555 1_555
F3 P1 1_555 1_555
F4 P1 1_555 1_555
F5 P1 1_555 1_555
F6 P1 1_555 1_555
F8 P2 1_555 1_555
F9 P2 1_555 1_555
F10 P2 1_555 1_555
F11 P2 1_555 1_555
F12 P2 1_555 1_555
C17 H17 1_555 1_555
H18 C17 1_555 1_555
Cl1 C17 1_555 1_555
Cl2 C17 1_555 1_555
C18 H19 1_555 1_555
H20 C18 1_555 1_555
Cl3 C18 1_555 1_555
Cl4 C18 1_555 1_555
N2D Cu1 1_555 1_555
N8F Cu2 1_555 1_555
Cu1D N2 1_555 1_555
Cu2F N8 1_555 1_555
C3 C4 1_555 1_555
C7 C8 1_555 1_555
N5 N6 1_555 1_555
C11 C12 1_555 1_555
C15 C16 1_555 1_555

#END
