
#######################################################################
#
#                 Cambridge Crystallographic Data Centre
#                                CCDC 
#
#######################################################################
#
# If this CIF has been generated from an entry in the Cambridge 
# Structural Database, then it will include bibliographic, chemical, 
# crystal, experimental, refinement or atomic coordinate data resulting 
# from the CCDC's data processing and validation procedures.
#
#######################################################################

data_TIJCOF
_symmetry_cell_setting           triclinic
_symmetry_space_group_name_H-M   'P -1'
_symmetry_Int_Tables_number      2
_space_group_name_Hall           '-P 1'
loop_
_symmetry_equiv_pos_site_id
_symmetry_equiv_pos_as_xyz
1 x,y,z
2 -x,-y,-z
_cell_length_a                   7.82870(10)
_cell_length_b                   15.8281(3)
_cell_length_c                   16.2118(3)
_cell_angle_alpha                89.6820(10)
_cell_angle_beta                 83.9250(10)
_cell_angle_gamma                78.8630(10)
_cell_volume                     1959.73
loop_
_atom_site_label
_atom_site_type_symbol
_atom_site_fract_x
_atom_site_fract_y
_atom_site_fract_z
Ag1 Ag 0.69328(4) 0.495410(19) 0.448036(19)
S1 S 0.45003(18) 0.69086(7) 0.39998(8)
O1 O 0.6311(5) 0.6537(2) 0.3737(2)
O2 O 0.2817(4) 0.13265(18) -0.19432(18)
O3 O 1.2298(4) 0.95049(16) 0.98783(17)
O4 O 0.3698(5) 0.7003(2) 0.3129(2)
O5 O 0.3573(5) 0.6347(2) 0.4486(2)
N1 N 0.6046(4) 0.4363(2) 0.3449(2)
C1 C 0.5666(6) 0.3573(3) 0.3514(3)
H1 H 0.5755 0.3286 0.4028
N2 N 0.8125(5) 0.5528(2) 0.5416(2)
C2 C 0.4130(5) 0.3092(3) -0.0856(3)
H2 H 0.4471 0.3630 -0.0963
C3 C 0.4535(5) 0.3075(3) 0.1414(3)
H3 H 0.4194 0.2543 0.1554
C4 C 0.3133(5) 0.1533(3) -0.0552(3)
H4 H 0.2775 0.0999 -0.0445
C5 C 0.5150(6) 0.3161(3) 0.2863(3)
H5 H 0.4866 0.2608 0.2944
C6 C 0.3249(5) 0.1842(2) -0.1355(3)
C7 C 1.2049(6) 0.9206(3) 0.8497(3)
H6 H 1.2499 0.9710 0.8356
C8 C 0.4493(5) 0.3302(3) 0.0624(3)
H7 H 0.4784 0.3843 0.0481
C9 C 0.5444(6) 0.4366(3) 0.2032(3)
H8 H 0.5393 0.4661 0.1520
C10 C 1.2131(5) 0.9287(2) 1.0741(3)
H9 H 1.2880 0.8721 1.0827
H10 H 1.0901 0.9254 1.0930
C11 C 0.8353(6) 0.5164(3) 0.6162(3)
H11 H 0.8077 0.4610 0.6252
C12 C 0.4042(5) 0.2797(2) -0.0047(3)
C13 C 1.2691(5) 0.9977(3) 1.1220(2)
H12 H 1.1927 1.0539 1.1131
H13 H 1.3907 1.0018 1.1011
C14 C 0.3034(7) 0.1576(3) -0.2794(3)
H14 H 0.4286 0.1562 -0.2977
H15 H 0.2372 0.2167 -0.2863
C15 C 0.3741(5) 0.2632(3) -0.1514(3)
H16 H 0.3808 0.2851 -0.2060
C16 C 0.3535(6) 0.1997(3) 0.0088(3)
H17 H 0.3470 0.1774 0.0633
C17 C 1.0801(6) 0.7731(3) 0.8888(4)
H18 H 1.0385 0.7217 0.9024
C18 C 0.5040(5) 0.3544(2) 0.2092(2)
C19 C 0.9400(6) 0.6345(3) 0.6688(3)
C20 C 1.1595(6) 0.8720(3) 0.7882(3)
H19 H 1.1721 0.8899 0.7323
C21 C 1.1855(5) 0.8965(2) 0.9322(3)
C22 C 0.9920(6) 0.6774(3) 0.7405(4)
H20 H 0.9844 0.6500 0.7927
C23 C 1.2596(7) 0.9792(4) 1.2144(3)
H21 H 1.1386 0.9737 1.2350
H22 H 1.3379 0.9235 1.2233
C24 C 1.1237(6) 0.8218(3) 0.9524(3)
H23 H 1.1112 0.8040 1.0084
C25 C 0.1162(15) 0.0753(6) -0.4627(6)
H24 H 0.1236 0.0910 -0.5214
H25 H -0.0035 0.0956 -0.4368
H26 H 0.1475 0.0126 -0.4582
C26 C 0.8956(6) 0.5546(3) 0.6790(3)
H27 H 0.9073 0.5261 0.7304
C27 C 0.1221(7) 0.6548(4) 0.2055(5)
H28 H 0.2247 0.6120 0.2193
H29 H 0.0179 0.6436 0.2408
C28 C 0.5915(6) 0.4751(3) 0.2708(3)
H30 H 0.6160 0.5314 0.2652
C29 C 0.2350(10) 0.0945(4) -0.3297(3)
H31 H 0.3050 0.0360 -0.3238
H32 H 0.1121 0.0937 -0.3083
C30 C 1.0960(6) 0.7976(3) 0.8063(3)
C31 C 0.8606(7) 0.6288(3) 0.5292(3)
H33 H 0.8495 0.6552 0.4767
C32 C 0.0537(8) 0.5559(4) 0.0986(5)
H34 H -0.0539 0.5498 0.1342
H35 H 0.1502 0.5103 0.1139
C33 C 1.0470(7) 0.7495(3) 0.7372(4)
H36 H 1.0573 0.7747 0.6840
C34 C 0.9261(7) 0.6707(3) 0.5901(4)
H37 H 0.9616 0.7240 0.5785
C35 C 1.3118(9) 1.0487(5) 1.2635(3)
H38 H 1.3044 1.0341 1.3224
H39 H 1.2328 1.1037 1.2561
H40 H 1.4322 1.0537 1.2440
C36 C 0.1962(7) 0.7519(3) 0.3100(5)
H41 H 0.1955 0.8128 0.3240
H42 H 0.1108 0.7305 0.3503
C37 C 0.0263(8) 0.5423(4) 0.0075(5)
H43 H -0.0657 0.5897 -0.0088
H44 H 0.1361 0.5449 -0.0279
C38 C 0.1500(7) 0.7444(4) 0.2248(5)
H45 H 0.2448 0.7585 0.1849
H46 H 0.0416 0.7867 0.2178
C39 C 0.0966(7) 0.6431(4) 0.1156(5)
H47 H 0.2047 0.6492 0.0805
H48 H 0.0004 0.6888 0.1004
O8 O 0.436(3) 0.7704(13) 0.454(3)
C40 C 0.2432(17) 0.1172(7) -0.4186(5)
H49 H 0.3640 0.0975 -0.4454
H50 H 0.2127 0.1806 -0.4238
Ag1A Ag -0.69328(4) 0.504590(19) -0.448036(19)
Ag1A_2 Ag 0.30672(4) 0.504590(19) 0.551964(19)
Ag1_2 Ag -0.30672(4) 0.495410(19) -0.551964(19)
S1A S -0.45003(18) 0.30914(7) -0.39998(8)
O1A O -0.6311(5) 0.3463(2) -0.3737(2)
O2A O -0.2817(4) 0.86735(18) 0.19432(18)
O3A O -1.2298(4) 0.04951(16) -0.98783(17)
O4A O -0.3698(5) 0.2997(2) -0.3129(2)
O5A O -0.3573(5) 0.3653(2) -0.4486(2)
O5A_2 O 0.6427(5) 0.3653(2) 0.5514(2)
O5_2 O -0.6427(5) 0.6347(2) -0.5514(2)
N1A N -0.6046(4) 0.5637(2) -0.3449(2)
C1A C -0.5666(6) 0.6427(3) -0.3514(3)
H1A H -0.5755 0.6714 -0.4028
N2A N -0.8125(5) 0.4472(2) -0.5416(2)
C2A C -0.4130(5) 0.6908(3) 0.0856(3)
H2A H -0.4471 0.6370 0.0963
C3A C -0.4535(5) 0.6925(3) -0.1414(3)
H3A H -0.4194 0.7457 -0.1554
C4A C -0.3133(5) 0.8467(3) 0.0552(3)
H4A H -0.2775 0.9001 0.0445
C5A C -0.5150(6) 0.6839(3) -0.2863(3)
H5A H -0.4866 0.7392 -0.2944
C6A C -0.3249(5) 0.8158(2) 0.1355(3)
C7A C -1.2049(6) 0.0794(3) -0.8497(3)
H6A H -1.2499 0.0290 -0.8356
C8A C -0.4493(5) 0.6698(3) -0.0624(3)
H7A H -0.4784 0.6157 -0.0481
C9A C -0.5444(6) 0.5634(3) -0.2032(3)
H8A H -0.5393 0.5339 -0.1520
C10A C -1.2131(5) 0.0713(2) -1.0741(3)
H9A H -1.2880 0.1279 -1.0827
H10A H -1.0901 0.0746 -1.0930
C11A C -0.8353(6) 0.4836(3) -0.6162(3)
H11A H -0.8077 0.5390 -0.6252
C12A C -0.4042(5) 0.7203(2) 0.0047(3)
C13A C -1.2691(5) 0.0023(3) -1.1220(2)
H12A H -1.1927 -0.0539 -1.1131
H13A H -1.3907 -0.0018 -1.1011
C14A C -0.3034(7) 0.8424(3) 0.2794(3)
H14A H -0.4286 0.8438 0.2977
H15A H -0.2372 0.7833 0.2863
C15A C -0.3741(5) 0.7368(3) 0.1514(3)
H16A H -0.3808 0.7149 0.2060
C16A C -0.3535(6) 0.8003(3) -0.0088(3)
H17A H -0.3470 0.8226 -0.0633
C17A C -1.0801(6) 0.2269(3) -0.8888(4)
H18A H -1.0385 0.2783 -0.9024
C18A C -0.5040(5) 0.6456(2) -0.2092(2)
C19A C -0.9400(6) 0.3655(3) -0.6688(3)
C20A C -1.1595(6) 0.1280(3) -0.7882(3)
H19A H -1.1721 0.1101 -0.7323
C21A C -1.1855(5) 0.1035(2) -0.9322(3)
C22A C -0.9920(6) 0.3226(3) -0.7405(4)
H20A H -0.9844 0.3500 -0.7927
C23A C -1.2596(7) 0.0208(4) -1.2144(3)
H21A H -1.1386 0.0263 -1.2350
H22A H -1.3379 0.0765 -1.2233
C24A C -1.1237(6) 0.1782(3) -0.9524(3)
H23A H -1.1112 0.1960 -1.0084
C25A C -0.1162(15) 0.9247(6) 0.4627(6)
H24A H -0.1236 0.9090 0.5214
H25A H 0.0035 0.9044 0.4368
H26A H -0.1475 0.9874 0.4582
C26A C -0.8956(6) 0.4454(3) -0.6790(3)
H27A H -0.9073 0.4739 -0.7304
C27A C -0.1221(7) 0.3452(4) -0.2055(5)
H28A H -0.2247 0.3880 -0.2193
H29A H -0.0179 0.3564 -0.2408
C28A C -0.5915(6) 0.5249(3) -0.2708(3)
H30A H -0.6160 0.4686 -0.2652
C29A C -0.2350(10) 0.9055(4) 0.3297(3)
H31A H -0.3050 0.9640 0.3238
H32A H -0.1121 0.9063 0.3083
C30A C -1.0960(6) 0.2024(3) -0.8063(3)
C31A C -0.8606(7) 0.3712(3) -0.5292(3)
H33A H -0.8495 0.3448 -0.4767
C32A C -0.0537(8) 0.4441(4) -0.0986(5)
H34A H 0.0539 0.4502 -0.1342
H35A H -0.1502 0.4897 -0.1139
C33A C -1.0470(7) 0.2505(3) -0.7372(4)
H36A H -1.0573 0.2253 -0.6840
C34A C -0.9261(7) 0.3293(3) -0.5901(4)
H37A H -0.9616 0.2760 -0.5785
C35A C -1.3118(9) -0.0487(5) -1.2635(3)
H38A H -1.3044 -0.0341 -1.3224
H39A H -1.2328 -0.1037 -1.2561
H40A H -1.4322 -0.0537 -1.2440
C36A C -0.1962(7) 0.2481(3) -0.3100(5)
H41A H -0.1955 0.1872 -0.3240
H42A H -0.1108 0.2695 -0.3503
C37A C -0.0263(8) 0.4577(4) -0.0075(5)
H43A H 0.0657 0.4103 0.0088
H44A H -0.1361 0.4551 0.0279
C38A C -0.1500(7) 0.2556(4) -0.2248(5)
H45A H -0.2448 0.2415 -0.1849
H46A H -0.0416 0.2133 -0.2178
C39A C -0.0966(7) 0.3569(4) -0.1156(5)
H47A H -0.2047 0.3508 -0.0805
H48A H -0.0004 0.3112 -0.1004
O8A O -0.436(3) 0.2296(13) -0.454(3)
C40A C -0.2432(17) 0.8828(7) 0.4186(5)
H49A H -0.3640 0.9025 0.4454
H50A H -0.2127 0.8194 0.4238
O6 O 0.2774(10) 0.8462(3) 0.5770(3)
O7? O 0.4500(14) 0.8767(7) 0.5895(6)
O9? O 0.408(2) 0.7830(8) 0.416(2)
loop_
_geom_bond_atom_site_label_1
_geom_bond_atom_site_label_2
_geom_bond_site_symmetry_1
_geom_bond_site_symmetry_2
Ag1 O1 1_555 1_555
S1 O1 1_555 1_555
O2 C6 1_555 1_555
O3 C10 1_555 1_555
O4 S1 1_555 1_555
O5 S1 1_555 1_555
N1 Ag1 1_555 1_555
C1 N1 1_555 1_555
H1 C1 1_555 1_555
N2 Ag1 1_555 1_555
C2 H2 1_555 1_555
C3 H3 1_555 1_555
C4 H4 1_555 1_555
C5 C1 1_555 1_555
H5 C5 1_555 1_555
C6 C4 1_555 1_555
C7 H6 1_555 1_555
C8 C3 1_555 1_555
H7 C8 1_555 1_555
C9 H8 1_555 1_555
C10 H9 1_555 1_555
H10 C10 1_555 1_555
C11 N2 1_555 1_555
H11 C11 1_555 1_555
C12 C2 1_555 1_555
C13 C10 1_555 1_555
H12 C13 1_555 1_555
H13 C13 1_555 1_555
C14 O2 1_555 1_555
H14 C14 1_555 1_555
H15 C14 1_555 1_555
C15 C2 1_555 1_555
H16 C15 1_555 1_555
C16 C4 1_555 1_555
H17 C16 1_555 1_555
C17 H18 1_555 1_555
C18 C3 1_555 1_555
C19 C22 1_555 1_555
C20 C7 1_555 1_555
H19 C20 1_555 1_555
C21 O3 1_555 1_555
C22 H20 1_555 1_555
C23 C13 1_555 1_555
H21 C23 1_555 1_555
H22 C23 1_555 1_555
C24 C17 1_555 1_555
H23 C24 1_555 1_555
C25 H24 1_555 1_555
H25 C25 1_555 1_555
H26 C25 1_555 1_555
C26 C11 1_555 1_555
H27 C26 1_555 1_555
C27 H28 1_555 1_555
H29 C27 1_555 1_555
C28 N1 1_555 1_555
H30 C28 1_555 1_555
C29 C14 1_555 1_555
H31 C29 1_555 1_555
H32 C29 1_555 1_555
C30 C17 1_555 1_555
C31 N2 1_555 1_555
H33 C31 1_555 1_555
C32 H34 1_555 1_555
H35 C32 1_555 1_555
C33 C22 1_555 1_555
H36 C33 1_555 1_555
C34 C19 1_555 1_555
H37 C34 1_555 1_555
C35 C23 1_555 1_555
H38 C35 1_555 1_555
H39 C35 1_555 1_555
H40 C35 1_555 1_555
C36 O4 1_555 1_555
H41 C36 1_555 1_555
H42 C36 1_555 1_555
C37 C32 1_555 1_555
H43 C37 1_555 1_555
H44 C37 1_555 1_555
C38 C27 1_555 1_555
H45 C38 1_555 1_555
H46 C38 1_555 1_555
C39 C27 1_555 1_555
H47 C39 1_555 1_555
H48 C39 1_555 1_555
O8 S1 1_555 1_555
C40 C25 1_555 1_555
H49 C40 1_555 1_555
H50 C40 1_555 1_555
Ag1A Ag1_2 1_555 1_555
Ag1A_2 Ag1 1_555 1_555
Ag1_2 O5A 1_555 1_555
S1A O1A 1_555 1_555
O1A Ag1A 1_555 1_555
O2A C6A 1_555 1_555
O3A C10A 1_555 1_555
O4A S1A 1_555 1_555
O5A S1A 1_555 1_555
O5A_2 Ag1 1_555 1_555
O5_2 Ag1A 1_555 1_555
N1A Ag1A 1_555 1_555
C1A N1A 1_555 1_555
H1A C1A 1_555 1_555
N2A Ag1A 1_555 1_555
C2A H2A 1_555 1_555
C3A H3A 1_555 1_555
C4A H4A 1_555 1_555
C5A C1A 1_555 1_555
H5A C5A 1_555 1_555
C6A C4A 1_555 1_555
C7A H6A 1_555 1_555
C8A C3A 1_555 1_555
H7A C8A 1_555 1_555
C9A H8A 1_555 1_555
C10A H9A 1_555 1_555
H10A C10A 1_555 1_555
C11A N2A 1_555 1_555
H11A C11A 1_555 1_555
C12A C2A 1_555 1_555
C13A C10A 1_555 1_555
H12A C13A 1_555 1_555
H13A C13A 1_555 1_555
C14A O2A 1_555 1_555
H14A C14A 1_555 1_555
H15A C14A 1_555 1_555
C15A C2A 1_555 1_555
H16A C15A 1_555 1_555
C16A C4A 1_555 1_555
H17A C16A 1_555 1_555
C17A H18A 1_555 1_555
C18A C3A 1_555 1_555
C19A C22A 1_555 1_555
C20A C7A 1_555 1_555
H19A C20A 1_555 1_555
C21A O3A 1_555 1_555
C22A H20A 1_555 1_555
C23A C13A 1_555 1_555
H21A C23A 1_555 1_555
H22A C23A 1_555 1_555
C24A C17A 1_555 1_555
H23A C24A 1_555 1_555
C25A H24A 1_555 1_555
H25A C25A 1_555 1_555
H26A C25A 1_555 1_555
C26A C11A 1_555 1_555
H27A C26A 1_555 1_555
C27A H28A 1_555 1_555
H29A C27A 1_555 1_555
C28A N1A 1_555 1_555
H30A C28A 1_555 1_555
C29A C14A 1_555 1_555
H31A C29A 1_555 1_555
H32A C29A 1_555 1_555
C30A C17A 1_555 1_555
C31A N2A 1_555 1_555
H33A C31A 1_555 1_555
C32A H34A 1_555 1_555
H35A C32A 1_555 1_555
C33A C22A 1_555 1_555
H36A C33A 1_555 1_555
C34A C19A 1_555 1_555
H37A C34A 1_555 1_555
C35A C23A 1_555 1_555
H38A C35A 1_555 1_555
H39A C35A 1_555 1_555
H40A C35A 1_555 1_555
C36A O4A 1_555 1_555
H41A C36A 1_555 1_555
H42A C36A 1_555 1_555
C37A C37 1_555 1_555
H43A C37A 1_555 1_555
H44A C37A 1_555 1_555
C38A C27A 1_555 1_555
H45A C38A 1_555 1_555
H46A C38A 1_555 1_555
C39A C27A 1_555 1_555
H47A C39A 1_555 1_555
H48A C39A 1_555 1_555
O8A S1A 1_555 1_555
C40A C25A 1_555 1_555
H49A C40A 1_555 1_555
H50A C40A 1_555 1_555
O5 Ag1A_2 1_555 1_555
C5 C18 1_555 1_555
C6 C15 1_555 1_555
C7 C21 1_555 1_555
C8 C12 1_555 1_555
C9 C18 1_555 1_555
C9 C28 1_555 1_555
C12 C16 1_555 1_555
C19 C26 1_555 1_555
C20 C30 1_555 1_555
C21 C24 1_555 1_555
C29 C40 1_555 1_555
C30 C33 1_555 1_555
C31 C34 1_555 1_555
C32 C39 1_555 1_555
C36 C38 1_555 1_555
C5A C18A 1_555 1_555
C6A C15A 1_555 1_555
C7A C21A 1_555 1_555
C8A C12A 1_555 1_555
C9A C18A 1_555 1_555
C9A C28A 1_555 1_555
C12A C16A 1_555 1_555
C19A C26A 1_555 1_555
C20A C30A 1_555 1_555
C21A C24A 1_555 1_555
C29A C40A 1_555 1_555
C30A C33A 1_555 1_555
C31A C34A 1_555 1_555
C32A C37A 1_555 1_555
C32A C39A 1_555 1_555
C36A C38A 1_555 1_555

#END
