
#######################################################################
#
#                 Cambridge Crystallographic Data Centre
#                                CCDC 
#
#######################################################################
#
# If this CIF has been generated from an entry in the Cambridge 
# Structural Database, then it will include bibliographic, chemical, 
# crystal, experimental, refinement or atomic coordinate data resulting 
# from the CCDC's data processing and validation procedures.
#
#######################################################################

data_TIJLOP
_symmetry_cell_setting           orthorhombic
_symmetry_space_group_name_H-M   'P 21 21 21'
_symmetry_Int_Tables_number      19
_space_group_name_Hall           'P 2ac 2ab'
loop_
_symmetry_equiv_pos_site_id
_symmetry_equiv_pos_as_xyz
1 x,y,z
2 1/2-x,-y,1/2+z
3 -x,1/2+y,1/2-z
4 1/2+x,1/2-y,-z
_cell_length_a                   10.4069(2)
_cell_length_b                   13.8557(4)
_cell_length_c                   37.5419(10)
_cell_angle_alpha                90
_cell_angle_beta                 90
_cell_angle_gamma                90
_cell_volume                     5413.35
loop_
_atom_site_label
_atom_site_type_symbol
_atom_site_fract_x
_atom_site_fract_y
_atom_site_fract_z
Ag1 Ag -0.39378(3) 0.79493(3) 0.159483(11)
N1 N -0.6228(4) 0.7511(3) 0.14984(11)
C1 C -0.3596(6) 0.7073(5) 0.21313(15)
C2 C -0.4529(5) 0.9368(4) 0.12325(15)
C3 C -0.4016(6) 0.9703(4) 0.15365(15)
C4 C -0.4492(5) 0.7680(5) 0.22247(15)
C5 C -0.6611(4) 0.7570(4) 0.11547(14)
C6 C -0.6610(4) 0.6710(4) 0.16623(14)
H1 H -0.3821 0.6446 0.2050
H2 H -0.2718 0.7258 0.2144
C7 C -0.5940(5) 0.9261(4) 0.11778(15)
H3 H -0.3967 0.9192 0.1044
H4 H -0.3110 0.9759 0.1559
H5 H -0.4558 0.9883 0.1729
C8 C -0.5917(5) 0.7480(4) 0.22170(14)
H6 H -0.4226 0.8300 0.2304
N2 N -0.6306(4) 0.8391(3) 0.09774(12)
N3 N -0.7250(4) 0.6879(3) 0.09752(12)
N4 N -0.7233(4) 0.5959(3) 0.15143(12)
N5 N -0.6290(4) 0.6614(3) 0.20151(12)
H7 H -0.6367 0.9245 0.1413
H8 H -0.6262 0.9836 0.1049
H9 H -0.6225 0.7410 0.2465
H10 H -0.6358 0.8046 0.2112
C9 C -0.6483(5) 0.8494(4) 0.05963(15)
Ag2 Ag -0.92261(4) 0.75790(3) 0.068113(12)
C10 C -0.7534(5) 0.6094(4) 0.11708(15)
C11 C -0.6541(5) 0.5720(4) 0.22076(15)
C12 C -0.7839(6) 0.8857(5) 0.04982(18)
H11 H -0.6334 0.7861 0.0481
H12 H -0.5836 0.8953 0.0503
C13 C -0.9578(6) 0.5894(5) 0.0496(2)
C14 C -1.0464(6) 0.6177(5) 0.0700(2)
C15 C -0.8460(7) 0.8585(6) 0.0210(2)
O1 O -0.9546(6) 0.8044(8) 0.13233(15)
N6 N -0.8210(4) 0.5387(3) 0.10108(12)
H13 H -0.6372 0.5166 0.2048
C16 C -0.7903(5) 0.5658(4) 0.23431(15)
H14 H -0.5942 0.5673 0.2412
H15 H -0.8247 0.9301 0.0654
C17 C -0.8409(6) 0.5383(5) 0.06293(16)
H16 H -0.9657 0.6011 0.0247
H17 H -1.0403 0.6067 0.0949
H18 H -1.1192 0.6500 0.0604
H19 H -0.9294 0.8832 0.0162
H20 H -0.8074 0.8142 0.0049
Cl1 Cl -0.99791(12) 0.80144(12) 0.16754(4)
C18 C -0.8794(5) 0.4596(4) 0.12169(17)
C19 C -0.8181(6) 0.5333(5) 0.26596(18)
H21 H -0.8583 0.5864 0.2192
H22 H -0.8453 0.4703 0.0549
H23 H -0.7647 0.5677 0.0515
O2 O -1.1129(4) 0.8561(4) 0.16922(15)
O3 O -1.0222(6) 0.7062(5) 0.1784(3)
O4 O -0.9025(5) 0.8418(4) 0.18961(13)
C20 C -0.7883(5) 0.3772(4) 0.12525(15)
H24 H -0.9587 0.4375 0.1096
H25 H -0.9034 0.4834 0.1457
H26 H -0.9051 0.5304 0.2736
H27 H -0.7514 0.5123 0.2814
Ag3 Ag -0.89225(3) 0.23883(3) 0.157754(10)
C21 C -0.7907(5) 0.3000(4) 0.10457(15)
H28 H -0.7248 0.3803 0.1434
C22 C -0.9031(5) 0.0635(4) 0.15128(15)
C23 C -0.9519(5) 0.2616(5) 0.22105(14)
C24 C -0.8619(5) 0.3241(5) 0.21213(15)
C25 C -0.9517(5) 0.0969(4) 0.12137(16)
N7 N -1.1232(4) 0.2811(3) 0.14822(11)
H29 H -0.7301 0.2496 0.1081
H30 H -0.8531 0.2949 0.0862
H31 H -0.9585 0.0455 0.1703
H32 H -0.8127 0.0574 0.1539
C26 C -1.0942(5) 0.2809(4) 0.22056(14)
H33 H -0.9247 0.1992 0.2284
H34 H -0.8850 0.3872 0.2046
H35 H -0.7739 0.3059 0.2132
C27 C -1.0944(5) 0.1090(4) 0.11490(14)
H36 H -0.8941 0.1144 0.1028
C28 C -1.1615(4) 0.3623(4) 0.16564(15)
C29 C -1.1583(4) 0.2782(4) 0.11389(14)
N8 N -1.1312(4) 0.3676(3) 0.20066(12)
H37 H -1.1383 0.2244 0.2099
H38 H -1.1248 0.2874 0.2454
N9 N -1.1286(4) 0.1966(3) 0.09584(11)
H39 H -1.1392 0.1089 0.1382
H40 H -1.1259 0.0528 0.1012
N10 N -1.2234(4) 0.4364(3) 0.15139(11)
N11 N -1.2203(4) 0.3489(3) 0.09590(12)
C30 C -1.1548(5) 0.4570(4) 0.22033(16)
C31 C -1.1436(5) 0.1902(4) 0.05715(15)
C32 C -1.2499(4) 0.4256(4) 0.11682(14)
Ag4 Ag -1.41120(5) 0.29018(4) 0.055516(19)
C33 C -1.2889(5) 0.4654(4) 0.23471(15)
H41 H -1.1379 0.5125 0.2044
H42 H -1.0933 0.4609 0.2404
H43 H -1.0769 0.1464 0.0475
H44 H -1.1296 0.2548 0.0466
C34 C -1.2744(5) 0.1537(4) 0.04593(17)
N12 N -1.3177(4) 0.4983(3) 0.10130(12)
C35 C -1.3679(6) 0.1276(4) 0.0674(2)
C36 C -1.4547(5) 0.4611(4) 0.04890(17)
C37 C -1.5445(5) 0.4222(4) 0.06883(17)
H45 H -1.3578 0.4459 0.2197
C38 C -1.3171(7) 0.4975(5) 0.26627(17)
H46 H -1.2905 0.1492 0.0211
C39 C -1.3784(5) 0.5730(4) 0.12258(15)
C40 C -1.3316(5) 0.5046(4) 0.06271(15)
H47 H -1.3562 0.1308 0.0925
H48 H -1.4471 0.1055 0.0579
H49 H -1.4683 0.4619 0.0239
H50 H -1.6196 0.3962 0.0581
H51 H -1.5344 0.4201 0.0940
H52 H -1.4043 0.5009 0.2737
H53 H -1.2506 0.5175 0.2819
H54 H -1.4009 0.5468 0.1463
H55 H -1.4586 0.5945 0.1108
H56 H -1.2580 0.4713 0.0514
H57 H -1.3281 0.5734 0.0556
C41 C -1.2883(5) 0.6574(4) 0.12680(15)
C42 C -1.2939(6) 0.7371(4) 0.10633(14)
H58 H -1.2244 0.6543 0.1448
H59 H -1.3569 0.7421 0.0881
H60 H -1.2348 0.7884 0.1101
Ag1_2 Ag -1.39378(3) 0.79493(3) 0.159483(11)
C41_2 C -0.2883(5) 0.6574(4) 0.12680(15)
C42_2 C -0.2939(6) 0.7371(4) 0.10633(14)
Cl2 Cl 0.49421(11) 0.23796(11) 0.17143(4)
O5 O 0.5967(4) 0.1898(4) 0.18933(13)
O6 O 0.5313(5) 0.2630(5) 0.13669(13)
O7 O 0.4608(4) 0.3239(4) 0.19085(14)
O8 O 0.3843(4) 0.1764(4) 0.17051(14)
Cl3 Cl -0.70416(13) 0.14384(11) 0.02697(4)
O9 O -0.8364(4) 0.1512(4) 0.01671(16)
O10 O -0.6474(4) 0.2386(3) 0.02546(11)
O11 O -0.6952(4) 0.1067(3) 0.06221(11)
O12 O -0.6388(5) 0.0806(4) 0.00306(12)
Cl4 Cl -0.19957(13) 0.89176(11) 0.03202(4)
O13 O -0.3334(4) 0.8919(4) 0.03737(14)
O14 O -0.1637(5) 0.9705(4) 0.00988(14)
O15 O -0.1362(5) 0.9011(4) 0.06528(12)
O16 O -0.1602(5) 0.8026(5) 0.01652(16)
loop_
_geom_bond_atom_site_label_1
_geom_bond_atom_site_label_2
_geom_bond_site_symmetry_1
_geom_bond_site_symmetry_2
Ag1 N1 1_555 1_555
N1 C5 1_555 1_555
C1 Ag1 1_555 1_555
C2 Ag1 1_555 1_555
C3 Ag1 1_555 1_555
C4 Ag1 1_555 1_555
C5 N2 1_555 1_555
C6 N1 1_555 1_555
H1 C1 1_555 1_555
H2 C1 1_555 1_555
C7 C2 1_555 1_555
H3 C2 1_555 1_555
H4 C3 1_555 1_555
H5 C3 1_555 1_555
C8 C4 1_555 1_555
H6 C4 1_555 1_555
N2 C7 1_555 1_555
N3 C5 1_555 1_555
N4 C6 1_555 1_555
N5 C6 1_555 1_555
H7 C7 1_555 1_555
H8 C7 1_555 1_555
H9 C8 1_555 1_555
H10 C8 1_555 1_555
C9 N2 1_555 1_555
Ag2 N3 1_555 1_555
C10 N3 1_555 1_555
C11 N5 1_555 1_555
C12 C9 1_555 1_555
H11 C9 1_555 1_555
H12 C9 1_555 1_555
C13 Ag2 1_555 1_555
C14 Ag2 1_555 1_555
C15 Ag2 1_555 1_555
O1 Ag2 1_555 1_555
N6 C10 1_555 1_555
H13 C11 1_555 1_555
C16 C11 1_555 1_555
H14 C11 1_555 1_555
H15 C12 1_555 1_555
C17 C13 1_555 1_555
H16 C13 1_555 1_555
H17 C14 1_555 1_555
H18 C14 1_555 1_555
H19 C15 1_555 1_555
H20 C15 1_555 1_555
Cl1 O1 1_555 1_555
C18 N6 1_555 1_555
C19 C16 1_555 1_555
H21 C16 1_555 1_555
H22 C17 1_555 1_555
H23 C17 1_555 1_555
O2 Cl1 1_555 1_555
O3 Cl1 1_555 1_555
O4 Cl1 1_555 1_555
C20 C18 1_555 1_555
H24 C18 1_555 1_555
H25 C18 1_555 1_555
H26 C19 1_555 1_555
H27 C19 1_555 1_555
Ag3 C20 1_555 1_555
C21 C20 1_555 1_555
H28 C20 1_555 1_555
C22 Ag3 1_555 1_555
C23 Ag3 1_555 1_555
C24 Ag3 1_555 1_555
C25 Ag3 1_555 1_555
N7 Ag3 1_555 1_555
H29 C21 1_555 1_555
H30 C21 1_555 1_555
H31 C22 1_555 1_555
H32 C22 1_555 1_555
C26 C23 1_555 1_555
H33 C23 1_555 1_555
H34 C24 1_555 1_555
H35 C24 1_555 1_555
C27 C25 1_555 1_555
H36 C25 1_555 1_555
C28 N7 1_555 1_555
C29 N7 1_555 1_555
N8 C26 1_555 1_555
H37 C26 1_555 1_555
H38 C26 1_555 1_555
N9 C27 1_555 1_555
H39 C27 1_555 1_555
H40 C27 1_555 1_555
N10 C28 1_555 1_555
N11 C29 1_555 1_555
C30 N8 1_555 1_555
C31 N9 1_555 1_555
C32 N10 1_555 1_555
Ag4 N11 1_555 1_555
C33 C30 1_555 1_555
H41 C30 1_555 1_555
H42 C30 1_555 1_555
H43 C31 1_555 1_555
H44 C31 1_555 1_555
C34 C31 1_555 1_555
N12 C32 1_555 1_555
C35 Ag4 1_555 1_555
C36 Ag4 1_555 1_555
C37 Ag4 1_555 1_555
H45 C33 1_555 1_555
C38 C33 1_555 1_555
H46 C34 1_555 1_555
C39 N12 1_555 1_555
C40 N12 1_555 1_555
H47 C35 1_555 1_555
H48 C35 1_555 1_555
H49 C36 1_555 1_555
H50 C37 1_555 1_555
H51 C37 1_555 1_555
H52 C38 1_555 1_555
H53 C38 1_555 1_555
H54 C39 1_555 1_555
H55 C39 1_555 1_555
H56 C40 1_555 1_555
H57 C40 1_555 1_555
C41 C39 1_555 1_555
C42 C41 1_555 1_555
H58 C41 1_555 1_555
H59 C42 1_555 1_555
H60 C42 1_555 1_555
Cl2 O5 1_555 1_555
O6 Cl2 1_555 1_555
O7 Cl2 1_555 1_555
O8 Cl2 1_555 1_555
Cl3 O9 1_555 1_555
O10 Cl3 1_555 1_555
O11 Cl3 1_555 1_555
O12 Cl3 1_555 1_555
Cl4 O13 1_555 1_555
O14 Cl4 1_555 1_555
O15 Cl4 1_555 1_555
O16 Cl4 1_555 1_555
Ag1_2 C41 1_555 1_555
C41_2 Ag1 1_555 1_555
C42_2 Ag1 1_555 1_555
C1 C4 1_555 1_555
C2 C3 1_555 1_555
C8 N5 1_555 1_555
N4 C10 1_555 1_555
Ag2 C12 1_555 1_555
C12 C15 1_555 1_555
C13 C14 1_555 1_555
N6 C17 1_555 1_555
Ag3 C21 1_555 1_555
C22 C25 1_555 1_555
C23 C24 1_555 1_555
C28 N8 1_555 1_555
C29 N9 1_555 1_555
N11 C32 1_555 1_555
Ag4 C34 1_555 1_555
C34 C35 1_555 1_555
C36 C37 1_555 1_555
C36 C40 1_555 1_555
C42 Ag1_2 1_555 1_555
C41_2 C42_2 1_555 1_555

#END
