
#######################################################################
#
#                 Cambridge Crystallographic Data Centre
#                                CCDC 
#
#######################################################################
#
# If this CIF has been generated from an entry in the Cambridge 
# Structural Database, then it will include bibliographic, chemical, 
# crystal, experimental, refinement or atomic coordinate data resulting 
# from the CCDC's data processing and validation procedures.
#
#######################################################################

data_TIKKUV
_symmetry_cell_setting           monoclinic
_symmetry_space_group_name_H-M   'P 21/c'
_symmetry_Int_Tables_number      14
_space_group_name_Hall           '-P 2ybc'
loop_
_symmetry_equiv_pos_site_id
_symmetry_equiv_pos_as_xyz
1 x,y,z
2 -x,1/2+y,1/2-z
3 -x,-y,-z
4 x,1/2-y,1/2+z
_cell_length_a                   11.3902(8)
_cell_length_b                   8.6128(6)
_cell_length_c                   9.9943(7)
_cell_angle_alpha                90
_cell_angle_beta                 108.8640(10)
_cell_angle_gamma                90
_cell_volume                     927.794
loop_
_atom_site_label
_atom_site_type_symbol
_atom_site_fract_x
_atom_site_fract_y
_atom_site_fract_z
H1 H -0.181(4) 0.471(4) -0.185(4)
H2 H -0.149(3) 0.325(4) 0.028(3)
Cd1 Cd 0.5000 0.0000 0.5000
N1 N 0.61213(15) 0.33719(17) 0.54435(15)
N2 N 0.14426(19) 0.2105(2) 0.27609(18)
O1 O 0.5783(2) 0.2457(2) 0.44383(18)
N3 N 0.31337(17) 0.0791(2) 0.35974(18)
O2 O 0.43447(17) 0.0688(2) 0.69128(17)
C1 C -0.0889(2) 0.3976(3) 0.0121(3)
C2 C 0.2470(2) 0.1944(2) 0.3850(2)
C3 C -0.1096(2) 0.4833(3) -0.1105(3)
C4 C 0.2446(3) 0.0281(3) 0.2302(3)
H3 H 0.2689 -0.0538 0.1845
C5 C 0.0208(2) 0.4140(2) 0.1233(2)
N4 N 0.1410(2) 0.1040(3) 0.1750(2)
O3 O 0.6054(3) 0.2991(3) 0.6594(2)
O4 O 0.6551(4) 0.4641(3) 0.5321(3)
C6 C 0.0425(3) 0.3209(4) 0.2568(3)
H4 H 0.0621 0.3906 0.3373
H5 H -0.0327 0.2650 0.2522
H6 H 0.266(3) 0.251(4) 0.469(3)
H1B H 0.181(4) 0.529(4) 0.185(4)
H2B H 0.149(3) 0.675(4) -0.028(3)
N2B N -0.14426(19) 0.7895(2) -0.27609(18)
N3B N -0.31337(17) 0.9209(2) -0.35974(18)
C1B C 0.0889(2) 0.6024(3) -0.0121(3)
C2B C -0.2470(2) 0.8056(2) -0.3850(2)
C3B C 0.1096(2) 0.5167(3) 0.1105(3)
C4B C -0.2446(3) 0.9719(3) -0.2302(3)
H3B H -0.2689 1.0538 -0.1845
C5B C -0.0208(2) 0.5860(2) -0.1233(2)
N4B N -0.1410(2) 0.8960(3) -0.1750(2)
C6B C -0.0425(3) 0.6791(4) -0.2568(3)
H4B H -0.0621 0.6094 -0.3373
H5B H 0.0327 0.7350 -0.2522
H6B H -0.266(3) 0.749(4) -0.469(3)
N1B N 0.38787(15) -0.33719(17) 0.45565(15)
O1B O 0.4217(2) -0.2457(2) 0.55617(18)
O3B O 0.3946(3) -0.2991(3) 0.3406(2)
O4B O 0.3449(4) -0.4641(3) 0.4679(3)
O2B O 0.56553(17) -0.0688(2) 0.30872(17)
Cd1_2 Cd -0.5000 1.0000 -0.5000
N3B_2 N 0.68663(17) -0.0791(2) 0.64026(18)
loop_
_geom_bond_atom_site_label_1
_geom_bond_atom_site_label_2
_geom_bond_site_symmetry_1
_geom_bond_site_symmetry_2
H1 C3 1_555 1_555
H2 C1 1_555 1_555
Cd1 O1 1_555 1_555
N1 O1 1_555 1_555
N2 C2 1_555 1_555
N3 Cd1 1_555 1_555
O2 Cd1 1_555 1_555
C1 C3 1_555 1_555
C2 N3 1_555 1_555
C3 C5B 1_555 1_555
C4 N3 1_555 1_555
H3 C4 1_555 1_555
C5 C1 1_555 1_555
N4 N2 1_555 1_555
O3 N1 1_555 1_555
O4 N1 1_555 1_555
C6 N2 1_555 1_555
H4 C6 1_555 1_555
H5 C6 1_555 1_555
H6 C2 1_555 1_555
H1B C3B 1_555 1_555
H2B C1B 1_555 1_555
N2B C2B 1_555 1_555
N3B C2B 1_555 1_555
C1B C3B 1_555 1_555
C2B H6B 1_555 1_555
C3B C5 1_555 1_555
C4B N3B 1_555 1_555
H3B C4B 1_555 1_555
C5B C1B 1_555 1_555
N4B N2B 1_555 1_555
C6B N2B 1_555 1_555
H4B C6B 1_555 1_555
H5B C6B 1_555 1_555
N1B O1B 1_555 1_555
O1B Cd1 1_555 1_555
O3B N1B 1_555 1_555
O4B N1B 1_555 1_555
O2B Cd1 1_555 1_555
Cd1_2 N3B 1_555 1_555
N3B_2 Cd1 1_555 1_555
C4 N4 1_555 1_555
C5 C6 1_555 1_555
C4B N4B 1_555 1_555
C5B C6B 1_555 1_555

#END
