
#######################################################################
#
#                 Cambridge Crystallographic Data Centre
#                                CCDC 
#
#######################################################################
#
# If this CIF has been generated from an entry in the Cambridge 
# Structural Database, then it will include bibliographic, chemical, 
# crystal, experimental, refinement or atomic coordinate data resulting 
# from the CCDC's data processing and validation procedures.
#
#######################################################################

data_TIKWOA
_symmetry_cell_setting           monoclinic
_symmetry_space_group_name_H-M   'P 21/c'
_symmetry_Int_Tables_number      14
_space_group_name_Hall           '-P 2ybc'
loop_
_symmetry_equiv_pos_site_id
_symmetry_equiv_pos_as_xyz
1 x,y,z
2 -x,1/2+y,1/2-z
3 -x,-y,-z
4 x,1/2-y,1/2+z
_cell_length_a                   5.249(3)
_cell_length_b                   14.977(6)
_cell_length_c                   15.755(9)
_cell_angle_alpha                90
_cell_angle_beta                 94.57(2)
_cell_angle_gamma                90
_cell_volume                     1234.63
loop_
_atom_site_label
_atom_site_type_symbol
_atom_site_fract_x
_atom_site_fract_y
_atom_site_fract_z
Cd1 Cd 0.5000 0.5000 0.0000
O1 O 0.7879(2) 0.57654(9) 0.09592(8)
O2 O 1.1666(3) 0.50914(8) 0.08578(9)
N1 N 0.6077(3) 1.35560(10) 0.05186(10)
C1 C 0.8298(4) 1.34143(12) 0.09767(13)
H1 H 0.9257 1.3908 0.1164
C2 C 0.9243(4) 1.25775(13) 0.11861(14)
H2 H 1.0794 1.2521 0.1511
C3 C 0.7889(4) 1.18143(12) 0.09146(13)
C4 C 0.5558(4) 1.19682(13) 0.04516(14)
H3 H 0.4549 1.1487 0.0260
C5 C 0.4731(4) 1.28281(13) 0.02744(14)
H4 H 0.3155 1.2906 -0.0030
C6 C 0.8841(4) 1.09056(13) 0.10835(14)
H5 H 0.7932 1.0437 0.0817
C7 C 1.0905(4) 1.07034(13) 0.15886(14)
H6 H 1.1750 1.1183 0.1859
C8 C 1.2024(4) 0.98215(13) 0.17754(13)
C9 C 1.0865(4) 0.90213(13) 0.14967(12)
H7 H 0.9312 0.9042 0.1169
C10 C 1.1969(3) 0.81942(12) 0.16955(12)
C11 C 1.4320(4) 0.81756(13) 0.21813(13)
H8 H 1.5106 0.7631 0.2311
C12 C 1.5489(4) 0.89578(13) 0.24701(13)
H9 H 1.7047 0.8937 0.2795
C13 C 1.4338(4) 0.97718(14) 0.22750(14)
H10 H 1.5120 1.0295 0.2480
C14 C 1.0629(3) 0.73697(12) 0.14242(12)
H11 H 0.8868 0.7406 0.1305
C15 C 1.1704(3) 0.65749(12) 0.13333(12)
H12 H 1.3455 0.6526 0.1471
C16 C 1.0296(3) 0.57549(11) 0.10259(11)
Cd1_2 Cd 1.5000 0.5000 0.0000
Cd1_3 Cd 0.5000 1.5000 0.0000
Cd1_4 Cd -0.5000 0.5000 0.0000
Cd1_5 Cd 0.5000 -0.5000 0.0000
O1B O 0.2121(2) 0.42346(9) -0.09592(8)
O2B O -0.1666(3) 0.49086(8) -0.08578(9)
O2_2 O 0.1666(3) 0.50914(8) 0.08578(9)
O2B_2 O 0.8334(3) 0.49086(8) -0.08578(9)
N1B N 0.3923(3) -0.35560(10) -0.05186(10)
N1_2 N 0.6077(3) 0.35560(10) 0.05186(10)
N1B_2 N 0.3923(3) 0.64440(10) -0.05186(10)
C1B C 0.1702(4) -0.34143(12) -0.09767(13)
H1B H 0.0743 -0.3908 -0.1164
C2B C 0.0757(4) -0.25775(13) -0.11861(14)
H2B H -0.0794 -0.2521 -0.1511
C3B C 0.2111(4) -0.18143(12) -0.09146(13)
C4B C 0.4442(4) -0.19682(13) -0.04516(14)
H3B H 0.5451 -0.1487 -0.0260
C5B C 0.5269(4) -0.28281(13) -0.02744(14)
H4B H 0.6845 -0.2906 0.0030
C6B C 0.1159(4) -0.09056(13) -0.10835(14)
H5B H 0.2068 -0.0437 -0.0817
C7B C -0.0905(4) -0.07034(13) -0.15886(14)
H6B H -0.1750 -0.1183 -0.1859
C8B C -0.2024(4) 0.01785(13) -0.17754(13)
C9B C -0.0865(4) 0.09787(13) -0.14967(12)
H7B H 0.0688 0.0958 -0.1169
C10B C -0.1969(3) 0.18058(12) -0.16955(12)
C11B C -0.4320(4) 0.18244(13) -0.21813(13)
H8B H -0.5106 0.2369 -0.2311
C12B C -0.5489(4) 0.10422(13) -0.24701(13)
H9B H -0.7047 0.1063 -0.2795
C13B C -0.4338(4) 0.02282(14) -0.22750(14)
H10B H -0.5120 -0.0295 -0.2480
C14B C -0.0629(3) 0.26303(12) -0.14242(12)
H11B H 0.1132 0.2594 -0.1305
C15B C -0.1704(3) 0.34251(12) -0.13333(12)
H12B H -0.3455 0.3474 -0.1471
C16B C -0.0296(3) 0.42451(11) -0.10259(11)
loop_
_geom_bond_atom_site_label_1
_geom_bond_atom_site_label_2
_geom_bond_site_symmetry_1
_geom_bond_site_symmetry_2
Cd1 O1 1_555 1_555
O1 C16 1_555 1_555
O2 C16 1_555 1_555
N1 C1 1_555 1_555
C1 H1 1_555 1_555
C2 C1 1_555 1_555
H2 C2 1_555 1_555
C3 C2 1_555 1_555
C4 C3 1_555 1_555
H3 C4 1_555 1_555
C5 N1 1_555 1_555
H4 C5 1_555 1_555
C6 C3 1_555 1_555
H5 C6 1_555 1_555
C7 C6 1_555 1_555
H6 C7 1_555 1_555
C8 C7 1_555 1_555
C9 C8 1_555 1_555
H7 C9 1_555 1_555
C10 C9 1_555 1_555
C11 C10 1_555 1_555
H8 C11 1_555 1_555
C12 C11 1_555 1_555
H9 C12 1_555 1_555
C13 C8 1_555 1_555
H10 C13 1_555 1_555
C14 C10 1_555 1_555
H11 C14 1_555 1_555
C15 C14 1_555 1_555
H12 C15 1_555 1_555
C16 C15 1_555 1_555
Cd1_2 O2 1_555 1_555
Cd1_3 N1 1_555 1_555
Cd1_4 O2B 1_555 1_555
Cd1_5 N1B 1_555 1_555
O1B Cd1 1_555 1_555
O2B C16B 1_555 1_555
O2_2 Cd1 1_555 1_555
O2B_2 Cd1 1_555 1_555
N1B C1B 1_555 1_555
N1_2 Cd1 1_555 1_555
N1B_2 Cd1 1_555 1_555
C1B H1B 1_555 1_555
C2B C1B 1_555 1_555
H2B C2B 1_555 1_555
C3B C2B 1_555 1_555
C4B C3B 1_555 1_555
H3B C4B 1_555 1_555
C5B N1B 1_555 1_555
H4B C5B 1_555 1_555
C6B C3B 1_555 1_555
H5B C6B 1_555 1_555
C7B C6B 1_555 1_555
H6B C7B 1_555 1_555
C8B C7B 1_555 1_555
C9B C8B 1_555 1_555
H7B C9B 1_555 1_555
C10B C9B 1_555 1_555
C11B C10B 1_555 1_555
H8B C11B 1_555 1_555
C12B C11B 1_555 1_555
H9B C12B 1_555 1_555
C13B C8B 1_555 1_555
H10B C13B 1_555 1_555
C14B C10B 1_555 1_555
H11B C14B 1_555 1_555
C15B C14B 1_555 1_555
H12B C15B 1_555 1_555
C16B O1B 1_555 1_555
C4 C5 1_555 1_555
C12 C13 1_555 1_555
C4B C5B 1_555 1_555
C12B C13B 1_555 1_555
C15B C16B 1_555 1_555

#END
