
#######################################################################
#
#                 Cambridge Crystallographic Data Centre
#                                CCDC 
#
#######################################################################
#
# If this CIF has been generated from an entry in the Cambridge 
# Structural Database, then it will include bibliographic, chemical, 
# crystal, experimental, refinement or atomic coordinate data resulting 
# from the CCDC's data processing and validation procedures.
#
#######################################################################

data_TILCIB
_symmetry_cell_setting           monoclinic
_symmetry_space_group_name_H-M   'P 21/c'
_symmetry_Int_Tables_number      14
_space_group_name_Hall           '-P 2ybc'
loop_
_symmetry_equiv_pos_site_id
_symmetry_equiv_pos_as_xyz
1 x,y,z
2 -x,1/2+y,1/2-z
3 -x,-y,-z
4 x,1/2-y,1/2+z
_cell_length_a                   15.6075(11)
_cell_length_b                   6.6669(6)
_cell_length_c                   7.3740(6)
_cell_angle_alpha                90
_cell_angle_beta                 95.710(2)
_cell_angle_gamma                90
_cell_volume                     763.484
loop_
_atom_site_label
_atom_site_type_symbol
_atom_site_fract_x
_atom_site_fract_y
_atom_site_fract_z
Mn1 Mn 0.5000 0.0000 0.5000
O1 O 0.43473(6) -0.29321(16) 0.49133(13)
H1 H 0.4285(11) -0.378(2) 0.4042(18)
H2 H 0.4416(11) -0.367(2) 0.5840(18)
O2 O 0.42333(6) 0.09141(14) 0.71622(12)
O3 O 0.40568(6) 0.41435(15) 0.78218(13)
N1 N -0.03287(8) 0.2332(2) 0.29110(19)
C1 C 0.28917(8) 0.2468(2) 0.61794(18)
C2 C 0.24436(9) 0.4253(2) 0.58200(19)
H3 H 0.2702 0.5470 0.6162
C3 C 0.16140(9) 0.4223(2) 0.49562(19)
H4 H 0.1316 0.5414 0.4697
C4 C 0.12319(8) 0.2381(2) 0.44815(18)
C5 C 0.16740(9) 0.0584(2) 0.4836(2)
H5 H 0.1412 -0.0635 0.4516
C6 C 0.25076(9) 0.0637(2) 0.56699(19)
H6 H 0.2813 -0.0550 0.5891
C7 C 0.37899(8) 0.2515(2) 0.71232(17)
C8 C 0.03608(9) 0.2346(2) 0.36033(19)
Mn1C Mn 0.5000 0.5000 1.0000
Mn1C_2 Mn 0.5000 -0.5000 0.0000
O1B O 0.56527(6) 0.29321(16) 0.50867(13)
H1B H 0.5715(11) 0.378(2) 0.5958(18)
H2B H 0.5584(11) 0.367(2) 0.4160(18)
O2B O 0.57667(6) -0.09141(14) 0.28378(12)
O3B O 0.59432(6) -0.41435(15) 0.21782(13)
O3C O 0.40568(6) 0.08565(15) 0.28218(13)
O3A O 0.59432(6) -0.08565(15) 0.71782(13)
N1B N 1.03287(8) -0.2332(2) 0.70890(19)
C1B C 0.71083(8) -0.2468(2) 0.38206(18)
C2B C 0.75564(9) -0.4253(2) 0.41800(19)
H3B H 0.7298 -0.5470 0.3838
C3B C 0.83860(9) -0.4223(2) 0.50438(19)
H4B H 0.8684 -0.5414 0.5303
C4B C 0.87681(8) -0.2381(2) 0.55185(18)
C5B C 0.83260(9) -0.0584(2) 0.5164(2)
H5B H 0.8588 0.0635 0.5484
C6B C 0.74924(9) -0.0637(2) 0.43301(19)
H6B H 0.7187 0.0550 0.4109
C7B C 0.62101(8) -0.2515(2) 0.28768(17)
C8B C 0.96392(9) -0.2346(2) 0.63967(19)
loop_
_geom_bond_atom_site_label_1
_geom_bond_atom_site_label_2
_geom_bond_site_symmetry_1
_geom_bond_site_symmetry_2
Mn1 O1 1_555 1_555
O1 H1 1_555 1_555
H2 O1 1_555 1_555
O2 Mn1 1_555 1_555
O3 C7 1_555 1_555
N1 C8 1_555 1_555
C1 C2 1_555 1_555
C2 H3 1_555 1_555
C3 C2 1_555 1_555
H4 C3 1_555 1_555
C4 C3 1_555 1_555
C5 C4 1_555 1_555
H5 C5 1_555 1_555
C6 C1 1_555 1_555
H6 C6 1_555 1_555
C7 O2 1_555 1_555
C8 C4 1_555 1_555
Mn1C O3 1_555 1_555
Mn1C_2 O3B 1_555 1_555
O1B Mn1 1_555 1_555
H1B O1B 1_555 1_555
H2B O1B 1_555 1_555
O2B Mn1 1_555 1_555
O3B C7B 1_555 1_555
O3C Mn1 1_555 1_555
O3A Mn1 1_555 1_555
N1B C8B 1_555 1_555
C1B C2B 1_555 1_555
C2B H3B 1_555 1_555
C3B C2B 1_555 1_555
H4B C3B 1_555 1_555
C4B C3B 1_555 1_555
C5B C4B 1_555 1_555
H5B C5B 1_555 1_555
C6B C1B 1_555 1_555
H6B C6B 1_555 1_555
C7B O2B 1_555 1_555
C8B C4B 1_555 1_555
C1 C7 1_555 1_555
C5 C6 1_555 1_555
C1B C7B 1_555 1_555
C5B C6B 1_555 1_555

#END
