
#######################################################################
#
#                 Cambridge Crystallographic Data Centre
#                                CCDC 
#
#######################################################################
#
# If this CIF has been generated from an entry in the Cambridge 
# Structural Database, then it will include bibliographic, chemical, 
# crystal, experimental, refinement or atomic coordinate data resulting 
# from the CCDC's data processing and validation procedures.
#
#######################################################################

data_TILDEY
_symmetry_cell_setting           monoclinic
_symmetry_space_group_name_H-M   'P 21/c'
_symmetry_Int_Tables_number      14
_space_group_name_Hall           '-P 2ybc'
loop_
_symmetry_equiv_pos_site_id
_symmetry_equiv_pos_as_xyz
1 x,y,z
2 -x,1/2+y,1/2-z
3 -x,-y,-z
4 x,1/2-y,1/2+z
_cell_length_a                   9.6624(12)
_cell_length_b                   23.308(3)
_cell_length_c                   9.3714(12)
_cell_angle_alpha                90
_cell_angle_beta                 91.099(2)
_cell_angle_gamma                90
_cell_volume                     2110.16
loop_
_atom_site_label
_atom_site_type_symbol
_atom_site_fract_x
_atom_site_fract_y
_atom_site_fract_z
Mn1 Mn 0.82086(3) 0.561565(13) -0.05396(3)
O1 O 0.74495(14) 0.65250(6) -0.09727(16)
O2 O 0.61207(15) 0.58045(6) -0.16184(17)
O3 O 0.20648(15) 0.52876(6) 0.04600(16)
O4 O 0.01028(14) 0.57884(7) 0.05826(17)
N1 N 0.70229(18) 0.56946(7) 0.1536(2)
N2 N -0.05966(18) 0.56606(8) 0.7378(2)
C1 C 0.6328(2) 0.63320(9) -0.1515(2)
C2 C 0.5289(2) 0.67576(8) -0.2077(2)
C3 C 0.5796(2) 0.72046(10) -0.2906(2)
H1 H 0.6741 0.7230 -0.3066
C4 C 0.4914(3) 0.76097(11) -0.3491(3)
H2 H 0.5259 0.7899 -0.4067
C5 C 0.3524(3) 0.75834(11) -0.3221(3)
H3 H 0.2931 0.7861 -0.3601
C6 C 0.3006(2) 0.71509(10) -0.2395(3)
H4 H 0.2064 0.7143 -0.2213
C7 C 0.3861(2) 0.67195(9) -0.1819(2)
C8 C 0.3270(2) 0.62546(9) -0.0962(2)
H5 H 0.3864 0.5960 -0.0683
C9 C 0.1977(2) 0.62180(9) -0.0553(2)
H6 H 0.1401 0.6527 -0.0764
C10 C 0.1356(2) 0.57280(9) 0.0214(2)
C11 C 0.5970(2) 0.53316(10) 0.1697(3)
H7 H 0.5902 0.5021 0.1076
C12 C 0.4989(2) 0.53871(10) 0.2713(3)
H8 H 0.4282 0.5118 0.2769
C13 C 0.5039(2) 0.58405(10) 0.3658(2)
C14 C 0.6142(3) 0.62126(11) 0.3529(3)
H9 H 0.6243 0.6520 0.4153
C15 C 0.7093(2) 0.61268(10) 0.2472(3)
H10 H 0.7825 0.6384 0.2406
C16 C 0.3935(2) 0.59160(12) 0.4761(3)
H11 H 0.4067 0.6284 0.5230
H12 H 0.4042 0.5619 0.5480
C17 C 0.2479(2) 0.58888(12) 0.4136(3)
H13 H 0.2290 0.6240 0.3611
H14 H 0.2419 0.5572 0.3467
C18 C 0.1391(2) 0.58124(10) 0.5251(2)
C19 C 0.0431(3) 0.62304(11) 0.5555(3)
H15 H 0.0434 0.6575 0.5055
C20 C -0.0527(3) 0.61403(11) 0.6592(3)
H16 H -0.1167 0.6429 0.6761
C21 C 0.0320(2) 0.52512(9) 0.7061(2)
H17 H 0.0287 0.4907 0.7563
C22 C 0.1302(2) 0.53118(10) 0.6038(2)
H18 H 0.1917 0.5013 0.5870
Mn1B Mn 0.17914(3) 0.438435(13) 0.05396(3)
Mn1_2 Mn -0.17914(3) 0.561565(13) -0.05396(3)
Mn1_3 Mn -0.17914(3) 0.561565(13) 0.94604(3)
O3B O 0.79352(15) 0.47124(6) -0.04600(16)
O4_2 O 1.01028(14) 0.57884(7) 0.05826(17)
N2_2 N 0.94034(18) 0.56606(8) -0.2622(2)
O5 O 0.99870(19) 0.70225(9) 0.1902(2)
H19 H 0.9704 0.7228 0.1205
H20 H 1.0020 0.6663 0.1762
O6 O 0.8808(3) 0.75569(9) 0.9489(3)
H21 H 0.9572 0.7413 0.9171
H22 H 0.8115 0.7333 0.9294
loop_
_geom_bond_atom_site_label_1
_geom_bond_atom_site_label_2
_geom_bond_site_symmetry_1
_geom_bond_site_symmetry_2
Mn1 O1 1_555 1_555
O1 C1 1_555 1_555
O2 Mn1 1_555 1_555
O3 C10 1_555 1_555
O4 C10 1_555 1_555
N1 Mn1 1_555 1_555
N2 C20 1_555 1_555
C1 O2 1_555 1_555
C2 C1 1_555 1_555
C3 C2 1_555 1_555
H1 C3 1_555 1_555
C4 C3 1_555 1_555
H2 C4 1_555 1_555
C5 C4 1_555 1_555
H3 C5 1_555 1_555
C6 C5 1_555 1_555
H4 C6 1_555 1_555
C7 C2 1_555 1_555
C8 C7 1_555 1_555
H5 C8 1_555 1_555
C9 C8 1_555 1_555
H6 C9 1_555 1_555
C10 C9 1_555 1_555
C11 N1 1_555 1_555
H7 C11 1_555 1_555
C12 C11 1_555 1_555
H8 C12 1_555 1_555
C13 C12 1_555 1_555
C14 C13 1_555 1_555
H9 C14 1_555 1_555
C15 N1 1_555 1_555
H10 C15 1_555 1_555
C16 C13 1_555 1_555
H11 C16 1_555 1_555
H12 C16 1_555 1_555
C17 C16 1_555 1_555
H13 C17 1_555 1_555
H14 C17 1_555 1_555
C18 C17 1_555 1_555
C19 C18 1_555 1_555
H15 C19 1_555 1_555
C20 C19 1_555 1_555
H16 C20 1_555 1_555
C21 N2 1_555 1_555
H17 C21 1_555 1_555
C22 C18 1_555 1_555
H18 C22 1_555 1_555
O5 H19 1_555 1_555
H20 O5 1_555 1_555
O6 H21 1_555 1_555
H22 O6 1_555 1_555
Mn1B O3 1_555 1_555
Mn1_2 O4 1_555 1_555
Mn1_3 N2 1_555 1_555
O3B Mn1 1_555 1_555
O4_2 Mn1 1_555 1_555
N2_2 Mn1 1_555 1_555
C6 C7 1_555 1_555
C14 C15 1_555 1_555
C21 C22 1_555 1_555

#END
