
#######################################################################
#
#                 Cambridge Crystallographic Data Centre
#                                CCDC 
#
#######################################################################
#
# If this CIF has been generated from an entry in the Cambridge 
# Structural Database, then it will include bibliographic, chemical, 
# crystal, experimental, refinement or atomic coordinate data resulting 
# from the CCDC's data processing and validation procedures.
#
#######################################################################

data_TILFOK
_symmetry_cell_setting           orthorhombic
_symmetry_space_group_name_H-M   'P n m a'
_symmetry_Int_Tables_number      62
_space_group_name_Hall           '-P 2ac 2n'
loop_
_symmetry_equiv_pos_site_id
_symmetry_equiv_pos_as_xyz
1 x,y,z
2 1/2-x,-y,1/2+z
3 -x,1/2+y,-z
4 1/2+x,1/2-y,1/2-z
5 -x,-y,-z
6 1/2+x,y,1/2-z
7 x,1/2-y,z
8 1/2-x,1/2+y,1/2+z
_cell_length_a                   8.7301(5)
_cell_length_b                   28.4851(18)
_cell_length_c                   5.8705(4)
_cell_angle_alpha                90
_cell_angle_beta                 90
_cell_angle_gamma                90
_cell_volume                     1459.86
loop_
_atom_site_label
_atom_site_type_symbol
_atom_site_fract_x
_atom_site_fract_y
_atom_site_fract_z
Tl1 Tl 0.39687(2) 0.538375(6) -0.26521(3)
S1 S 0.02436(18) 0.2500 0.0514(3)
O1 O 0.0246(6) 0.2500 0.2953(8)
O2 O -0.1186(5) 0.2500 -0.0696(9)
O3 O 0.3272(4) 0.44260(12) -0.4373(6)
O4 O 0.3932(4) 0.45466(12) -0.0750(6)
C1 C 0.1275(5) 0.30003(15) -0.0396(8)
C2 C 0.1023(5) 0.31795(17) -0.2545(7)
H1 H 0.0372 0.3019 -0.3583
C3 C 0.1726(6) 0.35957(16) -0.3177(8)
H2 H 0.1560 0.3720 -0.4658
C4 C 0.2674(5) 0.38330(15) -0.1651(7)
C5 C 0.2940(5) 0.36403(15) 0.0504(7)
H3 H 0.3600 0.3798 0.1539
C6 C 0.2259(5) 0.32266(15) 0.1142(7)
H4 H 0.2450 0.3095 0.2602
C7 C 0.3346(5) 0.43020(17) -0.2332(7)
Tl1F Tl 0.39687(2) -0.038375(6) -0.26521(3)
Tl1D Tl 0.60313(2) 0.461625(6) -0.73479(3)
Tl1A Tl 0.10313(2) 0.461625(6) -0.76521(3)
Tl1D_2 Tl 0.60313(2) 0.461625(6) 0.26521(3)
Tl1G Tl 0.10313(2) 0.038375(6) -0.76521(3)
Tl1B Tl 0.60313(2) 0.038375(6) -0.73479(3)
Tl1B_2 Tl 0.60313(2) 0.038375(6) 0.26521(3)
O3F O 0.3272(4) 0.05740(12) -0.4373(6)
O3D O 0.6728(4) 0.55740(12) -0.5627(6)
O3A O 0.1728(4) 0.55740(12) 0.0627(6)
O3G O 0.1728(4) -0.05740(12) 0.0627(6)
O3B O 0.6728(4) -0.05740(12) -0.5627(6)
O4F O 0.3932(4) 0.04534(12) -0.0750(6)
O4D O 0.6068(4) 0.54534(12) 0.0750(6)
O4B O 0.6068(4) -0.04534(12) 0.0750(6)
C1F C 0.1275(5) 0.19997(15) -0.0396(8)
C2F C 0.1023(5) 0.18205(17) -0.2545(7)
H1F H 0.0372 0.1981 -0.3583
C3F C 0.1726(6) 0.14043(16) -0.3177(8)
H2F H 0.1560 0.1280 -0.4658
C4F C 0.2674(5) 0.11670(15) -0.1651(7)
C5F C 0.2940(5) 0.13597(15) 0.0504(7)
H3F H 0.3600 0.1202 0.1539
C6F C 0.2259(5) 0.17734(15) 0.1142(7)
H4F H 0.2450 0.1905 0.2602
C7F C 0.3346(5) 0.06980(17) -0.2332(7)
loop_
_geom_bond_atom_site_label_1
_geom_bond_atom_site_label_2
_geom_bond_site_symmetry_1
_geom_bond_site_symmetry_2
Tl1 O3 1_555 1_555
S1 O1 1_555 1_555
O2 S1 1_555 1_555
O3 C7 1_555 1_555
O4 Tl1 1_555 1_555
C1 S1 1_555 1_555
C2 C1 1_555 1_555
H1 C2 1_555 1_555
C3 C2 1_555 1_555
H2 C3 1_555 1_555
C4 C3 1_555 1_555
C5 C4 1_555 1_555
H3 C5 1_555 1_555
C6 C1 1_555 1_555
H4 C6 1_555 1_555
C7 O4 1_555 1_555
Tl1F O3F 1_555 1_555
Tl1D O3 1_555 1_555
Tl1A O3 1_555 1_555
Tl1D_2 O4 1_555 1_555
Tl1G O3F 1_555 1_555
Tl1B O3F 1_555 1_555
Tl1B_2 O4F 1_555 1_555
O3F C7F 1_555 1_555
O3D Tl1 1_555 1_555
O3A Tl1 1_555 1_555
O3G Tl1F 1_555 1_555
O3B Tl1F 1_555 1_555
O4F Tl1F 1_555 1_555
O4D Tl1 1_555 1_555
O4B Tl1F 1_555 1_555
C1F S1 1_555 1_555
C2F C1F 1_555 1_555
H1F C2F 1_555 1_555
C3F C2F 1_555 1_555
H2F C3F 1_555 1_555
C4F C3F 1_555 1_555
C5F C4F 1_555 1_555
H3F C5F 1_555 1_555
C6F C1F 1_555 1_555
H4F C6F 1_555 1_555
C7F O4F 1_555 1_555
C4 C7 1_555 1_555
C5 C6 1_555 1_555
Tl1D O3D 1_555 1_555
Tl1D_2 O4D 1_555 1_555
Tl1B O3B 1_555 1_555
Tl1B_2 O4B 1_555 1_555
C4F C7F 1_555 1_555
C5F C6F 1_555 1_555

#END
