
#######################################################################
#
#                 Cambridge Crystallographic Data Centre
#                                CCDC 
#
#######################################################################
#
# If this CIF has been generated from an entry in the Cambridge 
# Structural Database, then it will include bibliographic, chemical, 
# crystal, experimental, refinement or atomic coordinate data resulting 
# from the CCDC's data processing and validation procedures.
#
#######################################################################

data_TILGEB
_symmetry_cell_setting           monoclinic
_symmetry_space_group_name_H-M   'C 2/c'
_symmetry_Int_Tables_number      15
_space_group_name_Hall           '-C 2yn'
loop_
_symmetry_equiv_pos_site_id
_symmetry_equiv_pos_as_xyz
1 x,y,z
2 1/2+x,1/2+y,z
3 -x,y,1/2-z
4 1/2-x,1/2+y,1/2-z
5 -x,-y,-z
6 1/2-x,1/2-y,-z
7 x,-y,1/2+z
8 1/2+x,1/2-y,1/2+z
_cell_length_a                   17.144(4)
_cell_length_b                   26.188(5)
_cell_length_c                   8.600(2)
_cell_angle_alpha                90.00
_cell_angle_beta                 108.73(1)
_cell_angle_gamma                90.00
_cell_volume                     3656.64
loop_
_atom_site_label
_atom_site_type_symbol
_atom_site_fract_x
_atom_site_fract_y
_atom_site_fract_z
Ag1 Ag 0.48649(4) 0.69187(2) 0.94362(8)
Ag2 Ag 0.21676(4) 0.60963(2) 1.20349(8)
S1 S 0.32070(11) 0.65093(6) 0.5922(2)
O1 O 0.4095(3) 0.65988(17) 0.6578(6)
O2 O 0.2892(3) 0.67989(16) 0.4440(6)
O3 O 0.3071(3) 0.59840(16) 0.5546(6)
O4 O 0.2828(3) 0.6674(2) 0.7131(7)
N1 N 0.4365(4) 0.6251(2) 1.0438(7)
N2 N 0.3295(4) 0.5944(2) 1.1406(7)
N3 N 0.4211(4) 0.53597(19) 1.0708(7)
N4 N 0.3189(4) 0.5079(2) 1.1681(8)
H1 H 0.2654 0.5165 1.1412
H2 H 0.3232 0.4793 1.1133
N5 N 0.5174(4) 0.5688(2) 0.9658(8)
H3 H 0.5426 0.5943 0.9407
H4 H 0.5320 0.5382 0.9521
N6 N 0.4067(4) 0.8542(2) 0.8789(8)
N7 N 0.4864(4) 0.7767(2) 0.9448(7)
N8 N 0.5473(4) 0.8571(2) 1.0457(9)
N9 N 0.3501(4) 0.7755(2) 0.7833(8)
H5 H 0.3414 0.7802 0.6754
H6 H 0.3595 0.7420 0.8047
N10 N 0.6240(4) 0.7836(2) 1.0993(8)
H7 H 0.6232 0.7527 1.0555
H8 H 0.6630 0.8024 1.0797
C1 C 0.3720(5) 0.6316(3) 1.0963(8)
C2 C 0.3606(5) 0.5474(3) 1.1268(9)
C3 C 0.4568(4) 0.5767(2) 1.0249(9)
C4 C 0.3463(6) 0.6847(3) 1.1145(11)
H9 H 0.3939 0.7064 1.1473
H10 H 0.3193 0.6858 1.1965
H11 H 0.3091 0.6964 1.0116
C5 C 0.4173(4) 0.8021(2) 0.8699(8)
C6 C 0.5493(5) 0.8061(3) 1.0251(9)
C7 C 0.4747(6) 0.8780(3) 0.9732(11)
C8 C 0.4677(4) 0.9333(2) 0.9933(9)
H12 H 0.4168 0.9407 1.0129
H13 H 0.5130 0.9449 1.0848
H14 H 0.4688 0.9505 0.8954
Ag1B Ag 0.51351(4) 0.69187(2) 0.55638(8)
Ag2E Ag 0.28324(4) 0.89037(2) 0.79651(8)
O1B O 0.5905(3) 0.65988(17) 0.8422(6)
N6E N 0.0933(4) 0.6458(2) 1.1211(8)
O5 O 0.1794(3) 0.5230(2) 0.3319(6)
H15 H 0.2312 0.5276 0.3664
H16 H 0.1678 0.4956 0.3728
O6 O 0.8235(3) 0.5805(2) 0.7597(6)
H17 H 0.8119 0.5576 0.8190
H18 H 0.8307 0.6084 0.8132
loop_
_geom_bond_atom_site_label_1
_geom_bond_atom_site_label_2
_geom_bond_site_symmetry_1
_geom_bond_site_symmetry_2
Ag1 O1 1_555 1_555
Ag2 N2 1_555 1_555
S1 O1 1_555 1_555
O1 Ag1B 1_555 1_555
O2 S1 1_555 1_555
O3 S1 1_555 1_555
O4 S1 1_555 1_555
N1 Ag1 1_555 1_555
N2 C1 1_555 1_555
N3 C2 1_555 1_555
N4 H1 1_555 1_555
H2 N4 1_555 1_555
N5 H3 1_555 1_555
H4 N5 1_555 1_555
N6 C5 1_555 1_555
N7 Ag1 1_555 1_555
N8 C6 1_555 1_555
N9 H5 1_555 1_555
H6 N9 1_555 1_555
N10 H7 1_555 1_555
H8 N10 1_555 1_555
C1 N1 1_555 1_555
C2 N2 1_555 1_555
C3 N1 1_555 1_555
C4 C1 1_555 1_555
H9 C4 1_555 1_555
H10 C4 1_555 1_555
H11 C4 1_555 1_555
C5 N7 1_555 1_555
C6 N7 1_555 1_555
C7 N6 1_555 1_555
C8 C7 1_555 1_555
H12 C8 1_555 1_555
H13 C8 1_555 1_555
H14 C8 1_555 1_555
O5 H15 1_555 1_555
H16 O5 1_555 1_555
O6 H17 1_555 1_555
H18 O6 1_555 1_555
Ag1B O1B 1_555 1_555
Ag2E N6 1_555 1_555
O1B Ag1 1_555 1_555
N6E Ag2 1_555 1_555
N3 C3 1_555 1_555
N4 C2 1_555 1_555
N5 C3 1_555 1_555
N8 C7 1_555 1_555
N9 C5 1_555 1_555
N10 C6 1_555 1_555

#END
