
#######################################################################
#
#                 Cambridge Crystallographic Data Centre
#                                CCDC 
#
#######################################################################
#
# If this CIF has been generated from an entry in the Cambridge 
# Structural Database, then it will include bibliographic, chemical, 
# crystal, experimental, refinement or atomic coordinate data resulting 
# from the CCDC's data processing and validation procedures.
#
#######################################################################

data_TILHAZ
_symmetry_cell_setting           tetragonal
_symmetry_space_group_name_H-M   'I 41/a'
_symmetry_Int_Tables_number      88
_space_group_name_Hall           '-I 4ad'
loop_
_symmetry_equiv_pos_site_id
_symmetry_equiv_pos_as_xyz
1 x,y,z
2 1/2-x,-y,1/2+z
3 3/4-y,1/4+x,1/4+z
4 3/4+y,3/4-x,3/4+z
5 1/2+x,1/2+y,1/2+z
6 -x,1/2-y,z
7 1/4-y,3/4+x,3/4+z
8 1/4+y,1/4-x,1/4+z
9 -x,-y,-z
10 1/2+x,y,1/2-z
11 1/4+y,3/4-x,3/4-z
12 1/4-y,1/4+x,1/4-z
13 1/2-x,1/2-y,1/2-z
14 x,1/2+y,-z
15 3/4+y,1/4-x,1/4-z
16 3/4-y,3/4+x,3/4-z
_cell_length_a                   28.365(4)
_cell_length_b                   28.365(4)
_cell_length_c                   13.361(3)
_cell_angle_alpha                90
_cell_angle_beta                 90
_cell_angle_gamma                90
_cell_volume                     10749.9
loop_
_atom_site_label
_atom_site_type_symbol
_atom_site_fract_x
_atom_site_fract_y
_atom_site_fract_z
O10 O 0.8529(3) 0.2136(2) 0.1925(6)
N2 N 0.8917(2) 0.1435(3) 0.1675(6)
C16 C 0.8662(3) 0.1799(3) 0.1372(9)
H24 H 0.8572 0.1807 0.0688
C17 C 0.9063(4) 0.1071(4) 0.0938(9)
H25 H 0.8935 0.0764 0.1139
H26 H 0.9408 0.1053 0.0916
H27 H 0.8942 0.1154 0.0274
C18 C 0.9089(4) 0.1390(5) 0.2726(9)
H28 H 0.9423 0.1476 0.2757
H29 H 0.9049 0.1063 0.2952
H30 H 0.8907 0.1600 0.3161
Co1 Co 0.85817(2) -0.00639(2) 0.59478(5)
Co2 Co 0.81324(2) 0.09566(2) 0.61692(5)
O1 O 0.82215(11) 0.04168(11) 0.5068(3)
O2 O 0.83615(12) 0.00791(11) 0.3595(3)
O3 O 0.69729(12) 0.05263(12) 0.1103(3)
O4 O 0.71495(11) 0.07556(11) -0.0446(3)
C1 C 0.81859(15) 0.04029(15) 0.4116(4)
C2 C 0.79200(18) 0.07924(17) 0.3607(4)
H1 H 0.8089 0.1093 0.3724
H2 H 0.7605 0.0820 0.3922
C3 C 0.78557(18) 0.07268(18) 0.2490(4)
H3 H 0.7670 0.0437 0.2366
H4 H 0.8168 0.0687 0.2171
C4 C 0.76056(19) 0.11452(18) 0.2026(4)
H5 H 0.7778 0.1437 0.2205
H6 H 0.7285 0.1169 0.2313
C5 C 0.75675(18) 0.11130(18) 0.0892(4)
H7 H 0.7490 0.1430 0.0628
H8 H 0.7880 0.1024 0.0621
C6 C 0.72064(16) 0.07670(16) 0.0500(4)
O5 O 0.88382(11) 0.10592(11) 0.6120(3)
O6 O 0.91749(12) 0.03442(12) 0.6032(3)
O7 O 1.11024(11) 0.05550(11) 0.5070(3)
O8 O 1.10010(12) 0.06533(12) 0.3455(3)
C7 C 0.91855(16) 0.07870(17) 0.6131(4)
C8 C 0.96599(17) 0.10169(18) 0.6260(4)
H9 H 0.9828 0.0862 0.6820
H10 H 0.9613 0.1352 0.6442
C9 C 0.99671(17) 0.09902(18) 0.5320(4)
H11 H 1.0062 0.0659 0.5202
H12 H 0.9783 0.1097 0.4734
C10 C 1.04047(16) 0.12957(17) 0.5430(4)
H13 H 1.0585 0.1189 0.6023
H14 H 1.0307 0.1626 0.5548
C11 C 1.07251(18) 0.12788(17) 0.4513(4)
H15 H 1.0539 0.1369 0.3917
H16 H 1.0978 0.1516 0.4597
C12 C 1.09489(16) 0.08044(16) 0.4322(4)
O9 O 0.80363(12) 0.15534(11) 0.5254(3)
N1 N 0.75668(17) 0.21731(15) 0.4857(4)
C13 C 0.77023(17) 0.18248(16) 0.5446(4)
H17 H 0.7535 0.1778 0.6054
C14 C 0.7805(3) 0.2277(2) 0.3920(5)
H18 H 0.7957 0.2586 0.3965
H19 H 0.7574 0.2279 0.3374
H20 H 0.8043 0.2035 0.3789
C15 C 0.7189(2) 0.2492(2) 0.5148(5)
H21 H 0.7011 0.2354 0.5704
H22 H 0.6978 0.2543 0.4578
H23 H 0.7324 0.2794 0.5358
Co1A Co 0.64183(2) 0.00639(2) 0.09478(5)
Co1B Co 0.75639(2) 0.10817(2) -0.15522(5)
Co1H Co 1.14183(2) 0.00639(2) 0.40522(5)
Co2B Co 0.65434(2) 0.06324(2) -0.13308(5)
Co2C Co 0.84566(2) -0.06324(2) 0.36692(5)
Co2K Co 1.15434(2) 0.06324(2) 0.63308(5)
O2B O 0.74209(11) 0.08615(12) 0.6095(3)
O3A O 0.80271(12) -0.05263(12) 0.6103(3)
O4C O 0.82556(11) 0.03505(11) 0.7054(3)
O7H O 0.88976(11) -0.05550(11) 0.4930(3)
O7N O 0.80550(11) 0.13976(11) 0.7430(3)
O8H O 0.89990(12) -0.06533(12) 0.6545(3)
loop_
_geom_bond_atom_site_label_1
_geom_bond_atom_site_label_2
_geom_bond_site_symmetry_1
_geom_bond_site_symmetry_2
Co1 O1 1_555 1_555
Co2 O1 1_555 1_555
O1 C1 1_555 1_555
O2 C1 1_555 1_555
O3 C6 1_555 1_555
O4 C6 1_555 1_555
C1 C2 1_555 1_555
C2 H1 1_555 1_555
H2 C2 1_555 1_555
C3 C2 1_555 1_555
H3 C3 1_555 1_555
H4 C3 1_555 1_555
C4 C3 1_555 1_555
H5 C4 1_555 1_555
H6 C4 1_555 1_555
C5 C4 1_555 1_555
H7 C5 1_555 1_555
H8 C5 1_555 1_555
C6 C5 1_555 1_555
O5 Co2 1_555 1_555
O6 Co1 1_555 1_555
O7 C12 1_555 1_555
O8 C12 1_555 1_555
C7 O5 1_555 1_555
C8 C7 1_555 1_555
H9 C8 1_555 1_555
H10 C8 1_555 1_555
C9 C8 1_555 1_555
H11 C9 1_555 1_555
H12 C9 1_555 1_555
C10 C9 1_555 1_555
H13 C10 1_555 1_555
H14 C10 1_555 1_555
C11 C10 1_555 1_555
H15 C11 1_555 1_555
H16 C11 1_555 1_555
C12 C11 1_555 1_555
O9 Co2 1_555 1_555
N1 C13 1_555 1_555
C13 O9 1_555 1_555
H17 C13 1_555 1_555
C14 N1 1_555 1_555
H18 C14 1_555 1_555
H19 C14 1_555 1_555
H20 C14 1_555 1_555
C15 N1 1_555 1_555
H21 C15 1_555 1_555
H22 C15 1_555 1_555
H23 C15 1_555 1_555
O10 C16 1_555 1_555
N2 C16 1_555 1_555
C16 H24 1_555 1_555
C17 N2 1_555 1_555
H25 C17 1_555 1_555
H26 C17 1_555 1_555
H27 C17 1_555 1_555
C18 N2 1_555 1_555
H28 C18 1_555 1_555
H29 C18 1_555 1_555
H30 C18 1_555 1_555
Co1A O3 1_555 1_555
Co1B O4 1_555 1_555
Co1H O7 1_555 1_555
Co2B O4 1_555 1_555
Co2C O2 1_555 1_555
Co2K O7 1_555 1_555
O2B Co2 1_555 1_555
O3A Co1 1_555 1_555
O4C Co1 1_555 1_555
O7H Co1 1_555 1_555
O7N Co2 1_555 1_555
O8H Co1 1_555 1_555
Co2 O4C 1_555 1_555
O6 C7 1_555 1_555
O8 Co1H 1_555 1_555
Co2C O7H 1_555 1_555

#END
