
#######################################################################
#
#                 Cambridge Crystallographic Data Centre
#                                CCDC 
#
#######################################################################
#
# If this CIF has been generated from an entry in the Cambridge 
# Structural Database, then it will include bibliographic, chemical, 
# crystal, experimental, refinement or atomic coordinate data resulting 
# from the CCDC's data processing and validation procedures.
#
#######################################################################

data_TILKOP
_symmetry_cell_setting           monoclinic
_symmetry_space_group_name_H-M   'C 2/c'
_symmetry_Int_Tables_number      15
_space_group_name_Hall           '-C 2yn'
loop_
_symmetry_equiv_pos_site_id
_symmetry_equiv_pos_as_xyz
1 x,y,z
2 1/2+x,1/2+y,z
3 -x,y,1/2-z
4 1/2-x,1/2+y,1/2-z
5 -x,-y,-z
6 1/2-x,1/2-y,-z
7 x,-y,1/2+z
8 1/2+x,1/2-y,1/2+z
_cell_length_a                   17.063(2)
_cell_length_b                   7.9450(9)
_cell_length_c                   21.097(2)
_cell_angle_alpha                90
_cell_angle_beta                 95.062(7)
_cell_angle_gamma                90
_cell_volume                     2848.87
loop_
_atom_site_label
_atom_site_type_symbol
_atom_site_fract_x
_atom_site_fract_y
_atom_site_fract_z
Cu1 Cu 0.30999(3) 0.85928(7) 0.55260(2)
Cl1 Cl 0.33028(7) 0.59975(15) 0.51032(5)
C1 C 0.3901(3) 0.9276(7) 0.4332(2)
H1 H 0.3714 0.8238 0.4181
C2 C 0.4384(3) 1.0209(8) 0.3973(2)
H2 H 0.4517 0.9796 0.3584
C3 C 0.4663(3) 1.1725(8) 0.4186(2)
H3 H 0.4998 1.2345 0.3951
C4 C 0.4440(3) 1.2334(7) 0.4759(2)
H4 H 0.4621 1.3370 0.4916
C5 C 0.3945(3) 1.1368(6) 0.5088(2)
C6 C 0.3645(3) 1.1899(6) 0.5686(2)
H5 H 0.3780 1.2938 0.5867
C7 C 0.2876(3) 1.1345(6) 0.65288(19)
C8 C 0.3350(3) 1.1769(7) 0.7061(2)
H6 H 0.3892 1.1827 0.7044
C9 C 0.3021(3) 1.2112(7) 0.7628(2)
H7 H 0.3344 1.2386 0.7991
C10 C 0.2224(3) 1.2049(6) 0.76510(19)
C11 C 0.1865(3) 1.2429(6) 0.82618(19)
C12 C 0.1752(3) 1.1634(8) 0.7114(2)
H8 H 0.1209 1.1605 0.7128
C13 C 0.2076(3) 1.1256(8) 0.6551(2)
H9 H 0.1754 1.0946 0.6192
N1 N 0.3699(2) 0.9833(5) 0.48912(16)
N2 N 0.3196(2) 1.0897(5) 0.59482(16)
O2 O 0.23467(19) 1.2684(4) 0.87437(13)
O4 O 0.1139(2) 1.2522(5) 0.82725(15)
Cu1E Cu 0.19001(3) 0.64072(7) 0.44740(2)
Cu1C Cu 0.19001(3) 1.35928(7) 0.94740(2)
Cu1C_2 Cu 0.19001(3) 0.35928(7) 0.94740(2)
Cl1E Cl 0.16972(7) 0.90025(15) 0.48968(5)
C1C C 0.1099(3) 0.4276(7) 1.0668(2)
H1C H 0.1286 0.3238 1.0819
C2C C 0.0616(3) 0.5209(8) 1.1027(2)
H2C H 0.0483 0.4796 1.1416
C3C C 0.0337(3) 0.6725(8) 1.0814(2)
H3C H 0.0002 0.7345 1.1049
C4C C 0.0560(3) 0.7334(7) 1.0241(2)
H4C H 0.0379 0.8370 1.0084
C5C C 0.1055(3) 0.6368(6) 0.9912(2)
C6C C 0.1355(3) 0.6899(6) 0.9314(2)
H5C H 0.1220 0.7938 0.9133
C7C C 0.2124(3) 0.6345(6) 0.84712(19)
C8C C 0.1650(3) 0.6769(7) 0.7939(2)
H6C H 0.1108 0.6827 0.7956
C9C C 0.1979(3) 0.7112(7) 0.7372(2)
H7C H 0.1656 0.7386 0.7009
C10C C 0.2776(3) 0.7049(6) 0.73490(19)
C11C C 0.3135(3) 0.7429(6) 0.67382(19)
C12C C 0.3248(3) 0.6634(8) 0.7886(2)
H8C H 0.3791 0.6605 0.7872
C13C C 0.2924(3) 0.6256(8) 0.8449(2)
H9C H 0.3246 0.5946 0.8808
N1C N 0.1301(2) 0.4833(5) 1.01088(16)
N1E N 0.1301(2) 0.5167(5) 0.51088(16)
N2C N 0.1804(2) 0.5897(5) 0.90518(16)
N2E N 0.1804(2) 0.4103(5) 0.40518(16)
O2C O 0.26533(19) 0.7684(4) 0.62563(13)
O2F O 0.23467(19) 0.7316(4) 0.37437(13)
O4C O 0.3861(2) 0.7522(5) 0.67275(15)
O1 O 0.5000 0.9432(8) 0.7500
O3 O 0.4868(6) 0.4544(14) 0.6711(8)
loop_
_geom_bond_atom_site_label_1
_geom_bond_atom_site_label_2
_geom_bond_site_symmetry_1
_geom_bond_site_symmetry_2
Cu1 Cl1 1_555 1_555
Cl1 Cu1E 1_555 1_555
C1 H1 1_555 1_555
C2 C1 1_555 1_555
H2 C2 1_555 1_555
C3 C2 1_555 1_555
H3 C3 1_555 1_555
C4 C3 1_555 1_555
H4 C4 1_555 1_555
C5 C4 1_555 1_555
C6 C5 1_555 1_555
H5 C6 1_555 1_555
C7 C8 1_555 1_555
C8 H6 1_555 1_555
C9 C8 1_555 1_555
H7 C9 1_555 1_555
C10 C9 1_555 1_555
C11 C10 1_555 1_555
C12 C10 1_555 1_555
H8 C12 1_555 1_555
C13 C7 1_555 1_555
H9 C13 1_555 1_555
N1 Cu1 1_555 1_555
N2 Cu1 1_555 1_555
O2 C11 1_555 1_555
O4 C11 1_555 1_555
Cu1E Cl1E 1_555 1_555
Cu1C O2 1_555 1_555
Cu1C_2 N1C 1_555 1_555
Cl1E Cu1 1_555 1_555
C1C H1C 1_555 1_555
C2C C1C 1_555 1_555
H2C C2C 1_555 1_555
C3C C2C 1_555 1_555
H3C C3C 1_555 1_555
C4C C3C 1_555 1_555
H4C C4C 1_555 1_555
C5C C4C 1_555 1_555
C6C C5C 1_555 1_555
H5C C6C 1_555 1_555
C7C C8C 1_555 1_555
C8C H6C 1_555 1_555
C9C C8C 1_555 1_555
H7C C9C 1_555 1_555
C10C C9C 1_555 1_555
C11C C10C 1_555 1_555
C12C C10C 1_555 1_555
H8C C12C 1_555 1_555
C13C C7C 1_555 1_555
H9C C13C 1_555 1_555
N1C C1C 1_555 1_555
N1E Cu1E 1_555 1_555
N2C Cu1C_2 1_555 1_555
N2E Cu1E 1_555 1_555
O2C Cu1 1_555 1_555
O2F Cu1E 1_555 1_555
O4C C11C 1_555 1_555
C1 N1 1_555 1_555
C5 N1 1_555 1_555
C6 N2 1_555 1_555
C7 N2 1_555 1_555
C12 C13 1_555 1_555
C5C N1C 1_555 1_555
C6C N2C 1_555 1_555
C7C N2C 1_555 1_555
C11C O2C 1_555 1_555
C12C C13C 1_555 1_555

#END
