
#######################################################################
#
#                 Cambridge Crystallographic Data Centre
#                                CCDC 
#
#######################################################################
#
# If this CIF has been generated from an entry in the Cambridge 
# Structural Database, then it will include bibliographic, chemical, 
# crystal, experimental, refinement or atomic coordinate data resulting 
# from the CCDC's data processing and validation procedures.
#
#######################################################################

data_TILPOU
_symmetry_cell_setting           monoclinic
_symmetry_space_group_name_H-M   'P 21/c'
_symmetry_Int_Tables_number      14
_space_group_name_Hall           '-P 2ybc'
loop_
_symmetry_equiv_pos_site_id
_symmetry_equiv_pos_as_xyz
1 x,y,z
2 -x,1/2+y,1/2-z
3 -x,-y,-z
4 x,1/2-y,1/2+z
_cell_length_a                   14.8704(3)
_cell_length_b                   7.6902(2)
_cell_length_c                   10.6506(3)
_cell_angle_alpha                90
_cell_angle_beta                 102.570(2)
_cell_angle_gamma                90
_cell_volume                     1188.77
loop_
_atom_site_label
_atom_site_type_symbol
_atom_site_fract_x
_atom_site_fract_y
_atom_site_fract_z
Mn1 Mn 0.38692(4) -0.92833(7) 0.66864(5)
Mn2 Mn 0.12559(4) -0.09869(7) 0.36997(6)
O1 O 0.14922(17) -0.3933(3) 0.3679(2)
O2 O 0.08323(18) -0.4211(3) 0.6674(3)
O3 O 0.12253(18) -0.1948(4) 0.5604(2)
O4 O 0.13549(17) -0.8241(4) 0.3947(3)
O5 O 0.24967(18) -0.9028(3) 0.5534(3)
O6 O 0.41719(16) -0.6998(4) 0.5612(3)
O7 O 0.37405(18) -0.7003(4) 0.3487(3)
O8 O 0.35203(16) -0.3304(3) 0.2499(2)
O9 O 0.26026(17) -0.1454(3) 0.3200(3)
O10 O -0.0290(2) -0.1060(5) 0.3517(3)
O11 O 0.4188(2) -1.1066(4) 0.5221(3)
O12 O 0.53140(19) -0.9437(4) 0.7519(3)
C1 C 0.1308(2) -0.4836(5) 0.4785(3)
H1 H 0.0765 -0.5578 0.4504
C2 C 0.2147(2) -0.6002(4) 0.5306(4)
H2 H 0.2329 -0.5912 0.6245
C3 C 0.2902(2) -0.5198(5) 0.4675(3)
H3 H 0.3184 -0.4218 0.5205
C4 C 0.2345(2) -0.4486(5) 0.3412(3)
H4 H 0.2241 -0.5396 0.2752
C5 C 0.1108(2) -0.3541(5) 0.5764(3)
C6 C 0.1981(2) -0.7882(5) 0.4904(3)
C7 C 0.3663(2) -0.6498(5) 0.4561(4)
C8 C 0.2844(2) -0.2953(5) 0.2978(3)
H5 H -0.052(4) -0.140(8) 0.265(3)
H6 H 0.375(4) -1.123(18) 0.444(6)
H7 H 0.474(2) -1.159(6) 0.512(5)
H8 H -0.067(3) -0.013(6) 0.367(5)
H9 H 0.576(3) -0.855(5) 0.761(5)
H10 H 0.557(3) -1.033(5) 0.811(5)
Mn1C Mn 0.38692(4) -0.57167(7) 0.16864(5)
Mn2C Mn 0.12559(4) -0.40131(7) 0.86997(6)
Mn2_2 Mn 0.12559(4) -1.09869(7) 0.36997(6)
O2C O 0.08323(18) -0.0789(3) 0.1674(3)
O4_2 O 0.13549(17) 0.1759(4) 0.3947(3)
O7C O 0.37405(18) -0.7997(4) 0.8487(3)
O8C O 0.35203(16) -1.1696(3) 0.7499(2)
loop_
_geom_bond_atom_site_label_1
_geom_bond_atom_site_label_2
_geom_bond_site_symmetry_1
_geom_bond_site_symmetry_2
Mn1 O5 1_555 1_555
Mn2 O1 1_555 1_555
O1 C1 1_555 1_555
O2 C5 1_555 1_555
O3 Mn2 1_555 1_555
O4 C6 1_555 1_555
O5 C6 1_555 1_555
O6 Mn1 1_555 1_555
O7 C7 1_555 1_555
O8 C8 1_555 1_555
O9 Mn2 1_555 1_555
O10 Mn2 1_555 1_555
O11 Mn1 1_555 1_555
O12 Mn1 1_555 1_555
C1 H1 1_555 1_555
C2 C1 1_555 1_555
H2 C2 1_555 1_555
C3 C2 1_555 1_555
H3 C3 1_555 1_555
C4 O1 1_555 1_555
H4 C4 1_555 1_555
C5 O3 1_555 1_555
C6 C2 1_555 1_555
C7 O6 1_555 1_555
C8 O9 1_555 1_555
H5 O10 1_555 1_555
H6 O11 1_555 1_555
H7 O11 1_555 1_555
H8 O10 1_555 1_555
H9 O12 1_555 1_555
H10 O12 1_555 1_555
Mn1C O7 1_555 1_555
Mn2C O2 1_555 1_555
Mn2_2 O4 1_555 1_555
O2C Mn2 1_555 1_555
O4_2 Mn2 1_555 1_555
O7C Mn1 1_555 1_555
O8C Mn1 1_555 1_555
O8 Mn1C 1_555 1_555
C1 C5 1_555 1_555
C3 C4 1_555 1_555
C3 C7 1_555 1_555
C4 C8 1_555 1_555

#END
