
#######################################################################
#
#                 Cambridge Crystallographic Data Centre
#                                CCDC 
#
#######################################################################
#
# If this CIF has been generated from an entry in the Cambridge 
# Structural Database, then it will include bibliographic, chemical, 
# crystal, experimental, refinement or atomic coordinate data resulting 
# from the CCDC's data processing and validation procedures.
#
#######################################################################

data_TILVIV
_symmetry_cell_setting           triclinic
_symmetry_space_group_name_H-M   'P -1'
_symmetry_Int_Tables_number      2
_space_group_name_Hall           '-P 1'
loop_
_symmetry_equiv_pos_site_id
_symmetry_equiv_pos_as_xyz
1 x,y,z
2 -x,-y,-z
_cell_length_a                   9.6035(16)
_cell_length_b                   11.1042(18)
_cell_length_c                   12.889(2)
_cell_angle_alpha                79.301(2)
_cell_angle_beta                 68.231(2)
_cell_angle_gamma                84.343(2)
_cell_volume                     1253.6
loop_
_atom_site_label
_atom_site_type_symbol
_atom_site_fract_x
_atom_site_fract_y
_atom_site_fract_z
Cd1 Cd 0.34235(5) 0.35698(4) 1.01214(4)
O1 O -0.1268(4) 0.7288(3) 1.0003(3)
O2 O 0.5142(5) 0.6004(4) 0.8967(4)
O3 O -0.2564(4) 0.8387(3) 0.9027(3)
O4 O 0.3060(4) 0.5291(3) 0.8997(3)
O5 O 0.7834(5) 0.2395(4) 0.4687(4)
O6 O -0.1789(5) 0.6401(4) 1.4737(4)
N1 N 0.5293(5) 0.2708(4) 0.8675(4)
N2 N 0.8548(6) 0.0506(5) 0.5352(4)
N3 N 0.1498(5) 0.4364(4) 1.1587(4)
N4 N -0.3581(5) 0.5530(4) 1.4414(4)
C1 C 0.3846(7) 0.6168(5) 0.8930(5)
C2 C -0.1438(6) 0.8226(5) 0.9336(5)
C3 C 0.3231(7) 0.7429(5) 0.8786(5)
H1 H 0.3827 0.8079 0.8755
C4 C 0.1923(7) 0.7718(5) 0.8696(5)
H2 H 0.1344 0.7057 0.8726
C5 C 0.1253(7) 0.8961(5) 0.8554(5)
C6 C 0.2198(7) 0.9951(5) 0.8056(5)
H3 H 0.3253 0.9800 0.7803
C7 C 0.1652(8) 1.1138(5) 0.7918(5)
H4 H 0.2322 1.1795 0.7582
C8 C 0.0123(8) 1.1367(5) 0.8272(5)
H5 H -0.0264 1.2187 0.8198
C9 C -0.0839(7) 1.0414(5) 0.8730(5)
H6 H -0.1891 1.0577 0.8958
C10 C -0.0284(6) 0.9200(5) 0.8865(4)
C11 C 0.6371(7) 0.3405(6) 0.7891(5)
H7 H 0.6524 0.4178 0.8041
C12 C 0.7268(7) 0.3054(5) 0.6880(5)
H8 H 0.8008 0.3583 0.6336
C13 C 0.7078(6) 0.1916(5) 0.6663(5)
C14 C 0.6030(7) 0.1177(6) 0.7493(5)
H9 H 0.5904 0.0374 0.7391
C15 C 0.5160(7) 0.1607(5) 0.8476(5)
H10 H 0.4427 0.1087 0.9039
C16 C 0.7894(7) 0.1640(6) 0.5478(5)
C17 C 0.9062(8) -0.0306(7) 0.6181(5)
H11 H 0.8799 -0.1162 0.6235
H12 H 0.8570 -0.0057 0.6936
C18 C 0.9274(8) 0.0220(7) 0.4196(5)
H13 H 0.8895 0.0802 0.3672
H14 H 0.9024 -0.0619 0.4179
C19 C 0.1356(6) 0.4053(5) 1.2668(5)
H15 H 0.2114 0.3535 1.2843
C20 C 0.0180(6) 0.4439(5) 1.3539(5)
H16 H 0.0134 0.4205 1.4298
C21 C -0.0965(6) 0.5190(5) 1.3294(5)
C22 C -0.2179(7) 0.5746(5) 1.4214(5)
C23 C -0.4796(7) 0.6175(6) 1.5223(6)
H17 H -0.5337 0.6754 1.4810
H18 H -0.4360 0.6654 1.5597
C24 C -0.4114(7) 0.4717(6) 1.3890(5)
H19 H -0.3251 0.4258 1.3414
H20 H -0.4613 0.5208 1.3396
C25 C -0.0818(6) 0.5505(5) 1.2173(5)
H21 H -0.1569 0.6004 1.1969
C26 C 0.0425(6) 0.5091(5) 1.1352(5)
H22 H 0.0524 0.5334 1.0582
O5A O 1.2166(5) -0.2395(4) 0.5313(4)
N1A N 1.4707(5) -0.2708(4) 0.1325(4)
N2A N 1.1452(6) -0.0506(5) 0.4648(4)
C11A C 1.3629(7) -0.3405(6) 0.2109(5)
H7A H 1.3476 -0.4178 0.1959
C12A C 1.2732(7) -0.3054(5) 0.3120(5)
H8A H 1.1992 -0.3583 0.3664
C13A C 1.2922(6) -0.1916(5) 0.3337(5)
C14A C 1.3970(7) -0.1177(6) 0.2507(5)
H9A H 1.4096 -0.0374 0.2609
C15A C 1.4840(7) -0.1607(5) 0.1524(5)
H10A H 1.5573 -0.1087 0.0961
C16A C 1.2106(7) -0.1640(6) 0.4522(5)
C17A C 1.0938(8) 0.0306(7) 0.3819(5)
H11A H 1.1201 0.1162 0.3765
H12A H 1.1430 0.0057 0.3064
C18A C 1.0726(8) -0.0220(7) 0.5804(5)
H13A H 1.1105 -0.0802 0.6328
H14A H 1.0976 0.0619 0.5821
O6A O -0.8211(5) 0.3599(4) 1.5263(4)
N3A N -1.1498(5) 0.5636(4) 1.8413(4)
N4A N -0.6419(5) 0.4470(4) 1.5586(4)
C19A C -1.1356(6) 0.5947(5) 1.7332(5)
H15A H -1.2114 0.6465 1.7157
C20A C -1.0180(6) 0.5561(5) 1.6461(5)
H16A H -1.0134 0.5795 1.5702
C21A C -0.9035(6) 0.4810(5) 1.6706(5)
C22A C -0.7821(7) 0.4254(5) 1.5786(5)
C23A C -0.5204(7) 0.3825(6) 1.4777(6)
H17A H -0.4663 0.3246 1.5190
H18A H -0.5640 0.3346 1.4403
C24A C -0.5886(7) 0.5283(6) 1.6110(5)
H19A H -0.6749 0.5742 1.6586
H20A H -0.5387 0.4792 1.6604
C25A C -0.9182(6) 0.4495(5) 1.7827(5)
H21A H -0.8431 0.3996 1.8031
C26A C -1.0425(6) 0.4909(5) 1.8648(5)
H22A H -1.0524 0.4666 1.9418
Cd1A Cd -1.34235(5) 0.64302(4) 1.98786(4)
O1A O -0.8732(4) 0.2712(3) 1.9997(3)
O2A O -1.5142(5) 0.3996(4) 2.1033(4)
O3A O -0.7436(4) 0.1613(3) 2.0973(3)
O4A O -1.3060(4) 0.4709(3) 2.1003(3)
C1A C -1.3846(7) 0.3832(5) 2.1070(5)
C2A C -0.8562(6) 0.1774(5) 2.0664(5)
C3A C -1.3231(7) 0.2571(5) 2.1214(5)
H1A H -1.3827 0.1921 2.1245
C4A C -1.1923(7) 0.2282(5) 2.1304(5)
H2A H -1.1344 0.2943 2.1274
C5A C -1.1253(7) 0.1039(5) 2.1446(5)
C6A C -1.2198(7) 0.0049(5) 2.1944(5)
H3A H -1.3253 0.0200 2.2197
C7A C -1.1652(8) -0.1138(5) 2.2082(5)
H4A H -1.2322 -0.1795 2.2418
C8A C -1.0123(8) -0.1367(5) 2.1728(5)
H5A H -0.9736 -0.2187 2.1802
C9A C -0.9161(7) -0.0414(5) 2.1270(5)
H6A H -0.8109 -0.0577 2.1042
C10A C -0.9716(6) 0.0800(5) 2.1135(4)
Cd1_2 Cd -1.65765(5) 0.35698(4) 2.01214(4)
Cd1_3 Cd -0.65765(5) 0.35698(4) 2.01214(4)
Cd1A_2 Cd -0.34235(5) 0.64302(4) 0.98786(4)
Cd1A_3 Cd 0.65765(5) 0.64302(4) 0.98786(4)
Cd1A_4 Cd 1.65765(5) -0.35698(4) -0.01214(4)
O1_2 O -1.1268(4) 0.7288(3) 2.0003(3)
O1A_2 O 0.1268(4) 0.2712(3) 0.9997(3)
O2_2 O -1.4858(5) 0.6004(4) 1.8967(4)
O2A_2 O 0.4858(5) 0.3996(4) 1.1033(4)
O3_2 O -1.2564(4) 0.8387(3) 1.9027(3)
O3A_2 O 0.2564(4) 0.1613(3) 1.0973(3)
N1A_2 N -1.5293(5) 0.7292(4) 2.1325(4)
loop_
_geom_bond_atom_site_label_1
_geom_bond_atom_site_label_2
_geom_bond_site_symmetry_1
_geom_bond_site_symmetry_2
Cd1 O4 1_555 1_555
O1 C2 1_555 1_555
O2 C1 1_555 1_555
O3 C2 1_555 1_555
O4 C1 1_555 1_555
O5 C16 1_555 1_555
O6 C22 1_555 1_555
N1 Cd1 1_555 1_555
N2 C16 1_555 1_555
N3 Cd1 1_555 1_555
N4 C22 1_555 1_555
C1 C3 1_555 1_555
C2 C10 1_555 1_555
C3 H1 1_555 1_555
C4 C3 1_555 1_555
H2 C4 1_555 1_555
C5 C4 1_555 1_555
C6 C5 1_555 1_555
H3 C6 1_555 1_555
C7 C6 1_555 1_555
H4 C7 1_555 1_555
C8 C7 1_555 1_555
H5 C8 1_555 1_555
C9 C8 1_555 1_555
H6 C9 1_555 1_555
C10 C5 1_555 1_555
C11 N1 1_555 1_555
H7 C11 1_555 1_555
C12 C11 1_555 1_555
H8 C12 1_555 1_555
C13 C12 1_555 1_555
C14 C13 1_555 1_555
H9 C14 1_555 1_555
C15 N1 1_555 1_555
H10 C15 1_555 1_555
C16 C13 1_555 1_555
C17 N2 1_555 1_555
H11 C17 1_555 1_555
H12 C17 1_555 1_555
C18 N2 1_555 1_555
H13 C18 1_555 1_555
H14 C18 1_555 1_555
C19 N3 1_555 1_555
H15 C19 1_555 1_555
C20 C19 1_555 1_555
H16 C20 1_555 1_555
C21 C20 1_555 1_555
C22 C21 1_555 1_555
C23 N4 1_555 1_555
H17 C23 1_555 1_555
H18 C23 1_555 1_555
C24 N4 1_555 1_555
H19 C24 1_555 1_555
H20 C24 1_555 1_555
C25 C21 1_555 1_555
H21 C25 1_555 1_555
C26 N3 1_555 1_555
H22 C26 1_555 1_555
O5A C16A 1_555 1_555
N1A C11A 1_555 1_555
N2A C16A 1_555 1_555
C11A H7A 1_555 1_555
C12A C11A 1_555 1_555
H8A C12A 1_555 1_555
C13A C12A 1_555 1_555
C14A C13A 1_555 1_555
H9A C14A 1_555 1_555
C15A N1A 1_555 1_555
H10A C15A 1_555 1_555
C16A C13A 1_555 1_555
C17A C18 1_555 1_555
H11A C17A 1_555 1_555
H12A C17A 1_555 1_555
C18A C17 1_555 1_555
H13A C18A 1_555 1_555
H14A C18A 1_555 1_555
O6A C22A 1_555 1_555
N3A C19A 1_555 1_555
N4A C22A 1_555 1_555
C19A H15A 1_555 1_555
C20A C19A 1_555 1_555
H16A C20A 1_555 1_555
C21A C20A 1_555 1_555
C22A C21A 1_555 1_555
C23A C24 1_555 1_555
H17A C23A 1_555 1_555
H18A C23A 1_555 1_555
C24A C23 1_555 1_555
H19A C24A 1_555 1_555
H20A C24A 1_555 1_555
C25A C21A 1_555 1_555
H21A C25A 1_555 1_555
C26A N3A 1_555 1_555
H22A C26A 1_555 1_555
Cd1A N3A 1_555 1_555
O1A C2A 1_555 1_555
O2A C1A 1_555 1_555
O3A C2A 1_555 1_555
O4A Cd1A 1_555 1_555
C1A O4A 1_555 1_555
C2A C10A 1_555 1_555
C3A C1A 1_555 1_555
H1A C3A 1_555 1_555
C4A C3A 1_555 1_555
H2A C4A 1_555 1_555
C5A C4A 1_555 1_555
C6A C5A 1_555 1_555
H3A C6A 1_555 1_555
C7A C6A 1_555 1_555
H4A C7A 1_555 1_555
C8A C7A 1_555 1_555
H5A C8A 1_555 1_555
C9A C8A 1_555 1_555
H6A C9A 1_555 1_555
C10A C5A 1_555 1_555
Cd1_2 O2A 1_555 1_555
Cd1_3 O1A 1_555 1_555
Cd1A_2 O1 1_555 1_555
Cd1A_3 O2 1_555 1_555
Cd1A_4 N1A 1_555 1_555
O1_2 Cd1A 1_555 1_555
O1A_2 Cd1 1_555 1_555
O2_2 Cd1A 1_555 1_555
O2A_2 Cd1 1_555 1_555
O3_2 Cd1A 1_555 1_555
O3A_2 Cd1 1_555 1_555
N1A_2 Cd1A 1_555 1_555
O3 Cd1A_2 1_555 1_555
C9 C10 1_555 1_555
C14 C15 1_555 1_555
C25 C26 1_555 1_555
N2A C17A 1_555 1_555
N2A C18A 1_555 1_555
C14A C15A 1_555 1_555
N4A C23A 1_555 1_555
N4A C24A 1_555 1_555
C25A C26A 1_555 1_555
O3A Cd1_3 1_555 1_555
C9A C10A 1_555 1_555

#END
