
#######################################################################
#
#                 Cambridge Crystallographic Data Centre
#                                CCDC 
#
#######################################################################
#
# If this CIF has been generated from an entry in the Cambridge 
# Structural Database, then it will include bibliographic, chemical, 
# crystal, experimental, refinement or atomic coordinate data resulting 
# from the CCDC's data processing and validation procedures.
#
#######################################################################

data_TILWOB
_symmetry_cell_setting           triclinic
_symmetry_space_group_name_H-M   'P -1'
_symmetry_Int_Tables_number      2
_space_group_name_Hall           '-P 1'
loop_
_symmetry_equiv_pos_site_id
_symmetry_equiv_pos_as_xyz
1 x,y,z
2 -x,-y,-z
_cell_length_a                   7.2187(2)
_cell_length_b                   11.0945(3)
_cell_length_c                   11.7759(3)
_cell_angle_alpha                89.5270(10)
_cell_angle_beta                 78.5160(10)
_cell_angle_gamma                84.8410(10)
_cell_volume                     920.437
loop_
_atom_site_label
_atom_site_type_symbol
_atom_site_fract_x
_atom_site_fract_y
_atom_site_fract_z
Pb1 Pb 0.24331(4) 0.86717(2) 0.98189(2)
S1 S -0.0010(3) 1.64366(16) 1.21037(17)
P1 P 0.2566(2) 1.17653(15) 1.05696(16)
N1 N 0.3532(8) 0.6912(5) 0.8467(5)
N2 N 0.2452(8) 0.9169(5) 0.7789(5)
C1 C 0.4066(10) 0.5820(7) 0.8813(7)
H1 H 0.3742 0.5639 0.9597
C2 C 0.5085(11) 0.4934(7) 0.8060(7)
H2 H 0.5444 0.4178 0.8335
C3 C 0.5557(11) 0.5189(7) 0.6906(7)
H3 H 0.6255 0.4608 0.6390
C4 C 0.4989(10) 0.6320(6) 0.6506(6)
C5 C 0.3967(9) 0.7168(6) 0.7335(6)
C6 C 0.3338(9) 0.8339(6) 0.6961(6)
C7 C 0.1741(11) 1.0222(6) 0.7438(7)
H4 H 0.1161 1.0796 0.7998
C8 C 0.1817(13) 1.0508(7) 0.6288(7)
H5 H 0.1245 1.1243 0.6088
C9 C 0.2739(12) 0.9705(7) 0.5444(7)
H6 H 0.2825 0.9888 0.4664
C10 C 0.3556(11) 0.8591(6) 0.5783(7)
C11 C 0.4616(11) 0.7700(8) 0.4953(7)
H7 H 0.4808 0.7864 0.4164
C12 C 0.5321(11) 0.6641(7) 0.5319(7)
H8 H 0.6052 0.6098 0.4776
C13 C -0.0214(10) 1.4444(7) 1.3490(6)
H9 H -0.0769 1.4986 1.4085
C14 C 0.0157(10) 1.3247(7) 1.3739(7)
H10 H -0.0150 1.2976 1.4497
C15 C 0.0995(10) 1.2443(6) 1.2848(7)
H11 H 0.1272 1.1635 1.3017
C16 C 0.1427(9) 1.2831(6) 1.1707(6)
C17 C 0.1011(9) 1.4054(6) 1.1459(6)
H12 H 0.1255 1.4326 1.0699
C18 C 0.0228(10) 1.4852(6) 1.2368(6)
O1 O 0.1109(7) 1.1045(4) 1.0191(4)
O2 O 0.4123(7) 1.1014(4) 1.0983(4)
O3 O 0.3556(7) 1.2555(4) 0.9543(5)
H13 H 0.2875 1.2658 0.9064
O4 O -0.2035(8) 1.6809(5) 1.2269(5)
O5 O 0.0956(9) 1.6597(5) 1.0916(5)
O6 O 0.0875(10) 1.6976(5) 1.2946(6)
Pb1A Pb -0.24331(4) 1.13283(2) 1.01811(2)
Pb1A_2 Pb 0.75669(4) 1.13283(2) 1.01811(2)
Pb1_2 Pb 0.24331(4) 1.86717(2) 0.98189(2)
O1A O -0.1109(7) 0.8955(4) 0.9809(4)
O2A O 0.5877(7) 0.8986(4) 0.9017(4)
O5_2 O 0.0956(9) 0.6597(5) 1.0916(5)
O7 O 0.6738(16) 1.0802(9) 0.7319(8)
loop_
_geom_bond_atom_site_label_1
_geom_bond_atom_site_label_2
_geom_bond_site_symmetry_1
_geom_bond_site_symmetry_2
Pb1 N1 1_555 1_555
S1 C18 1_555 1_555
P1 C16 1_555 1_555
N1 C1 1_555 1_555
N2 Pb1 1_555 1_555
C1 H1 1_555 1_555
C2 C1 1_555 1_555
H2 C2 1_555 1_555
C3 C2 1_555 1_555
H3 C3 1_555 1_555
C4 C3 1_555 1_555
C5 N1 1_555 1_555
C6 N2 1_555 1_555
C7 N2 1_555 1_555
H4 C7 1_555 1_555
C8 C7 1_555 1_555
H5 C8 1_555 1_555
C9 C8 1_555 1_555
H6 C9 1_555 1_555
C10 C6 1_555 1_555
C11 C10 1_555 1_555
H7 C11 1_555 1_555
C12 C4 1_555 1_555
H8 C12 1_555 1_555
C13 H9 1_555 1_555
C14 C13 1_555 1_555
H10 C14 1_555 1_555
C15 C14 1_555 1_555
H11 C15 1_555 1_555
C16 C15 1_555 1_555
C17 C16 1_555 1_555
H12 C17 1_555 1_555
C18 C13 1_555 1_555
O1 Pb1 1_555 1_555
O2 P1 1_555 1_555
O3 P1 1_555 1_555
H13 O3 1_555 1_555
O4 S1 1_555 1_555
O5 S1 1_555 1_555
O6 S1 1_555 1_555
Pb1A O1 1_555 1_555
Pb1A_2 O2 1_555 1_555
Pb1_2 O5 1_555 1_555
O1A Pb1 1_555 1_555
O2A Pb1 1_555 1_555
O5_2 Pb1 1_555 1_555
P1 O1 1_555 1_555
C4 C5 1_555 1_555
C5 C6 1_555 1_555
C9 C10 1_555 1_555
C11 C12 1_555 1_555
C17 C18 1_555 1_555
Pb1A O1A 1_555 1_555

#END
