
#######################################################################
#
#                 Cambridge Crystallographic Data Centre
#                                CCDC 
#
#######################################################################
#
# If this CIF has been generated from an entry in the Cambridge 
# Structural Database, then it will include bibliographic, chemical, 
# crystal, experimental, refinement or atomic coordinate data resulting 
# from the CCDC's data processing and validation procedures.
#
#######################################################################

data_TILYUJ
_symmetry_cell_setting           monoclinic
_symmetry_space_group_name_H-M   'P 21/c'
_symmetry_Int_Tables_number      14
_space_group_name_Hall           '-P 2ybc'
loop_
_symmetry_equiv_pos_site_id
_symmetry_equiv_pos_as_xyz
1 x,y,z
2 -x,1/2+y,1/2-z
3 -x,-y,-z
4 x,1/2-y,1/2+z
_cell_length_a                   14.1016(10)
_cell_length_b                   12.4216(8)
_cell_length_c                   8.5128(6)
_cell_angle_alpha                90
_cell_angle_beta                 105.538(3)
_cell_angle_gamma                90
_cell_volume                     1436.64
loop_
_atom_site_label
_atom_site_type_symbol
_atom_site_fract_x
_atom_site_fract_y
_atom_site_fract_z
Zn1 Zn 0.257390(14) 0.225580(14) -0.64887(2)
Zn2 Zn 0.293540(15) -0.004100(14) -0.16537(2)
S1 S 0.39940(3) 0.14682(3) -0.31325(5)
S2 S 0.14308(3) 0.38484(3) -0.47953(5)
O1 O 0.35964(9) 0.14441(11) -0.49760(14)
O2 O 0.38680(9) 0.04103(11) 0.06981(15)
H1 H 0.4376 0.0011 0.0938
H2 H 0.3492 0.0623 0.1266
O3 O 0.43345(9) 0.03428(10) -0.26347(15)
O4 O 0.30369(9) 0.15001(9) -0.25013(14)
O5 O 0.15086(9) 0.27887(10) -0.56706(15)
O6 O 0.17279(9) 0.47413(10) -0.57763(14)
O7 O 0.22899(10) 0.38223(10) -0.32246(14)
N1 N 0.32208(10) -0.16735(11) -0.14003(16)
N2 N 0.19490(10) -0.06837(12) -0.38195(16)
C1 C 0.39340(14) -0.21223(14) -0.0223(2)
H3 H 0.4360 -0.1673 0.0516
C2 C 0.40681(14) -0.32192(14) -0.0052(2)
H4 H 0.4567 -0.3504 0.0790
C3 C 0.34450(15) -0.38849(14) -0.1160(2)
H5 H 0.3511 -0.4629 -0.1068
C4 C 0.27219(14) -0.34313(14) -0.2405(2)
H6 H 0.2307 -0.3869 -0.3179
C5 C 0.26156(12) -0.23264(12) -0.24999(19)
C6 C 0.18709(12) -0.17628(14) -0.38126(19)
C7 C 0.11498(15) -0.23086(16) -0.4981(2)
H7 H 0.1094 -0.3054 -0.4945
C8 C 0.05175(15) -0.1712(2) -0.6202(2)
H8 H 0.0026 -0.2056 -0.6992
C9 C 0.06181(14) -0.06161(19) -0.6241(2)
H9 H 0.0212 -0.0211 -0.7072
C10 C 0.13406(14) -0.01203(16) -0.5011(2)
H10 H 0.1401 0.0625 -0.5018
Zn1C Zn 0.257390(14) 0.274420(14) -0.14887(2)
Zn2C Zn 0.293540(15) 0.504100(14) -0.66537(2)
O4C O 0.30369(9) 0.34999(9) -0.75013(14)
O6C O 0.17279(9) 0.02587(10) -0.07763(14)
O7C O 0.22899(10) 0.11777(10) -0.82246(14)
loop_
_geom_bond_atom_site_label_1
_geom_bond_atom_site_label_2
_geom_bond_site_symmetry_1
_geom_bond_site_symmetry_2
Zn1 O1 1_555 1_555
Zn2 O2 1_555 1_555
S1 O1 1_555 1_555
S2 O5 1_555 1_555
O2 H1 1_555 1_555
H2 O2 1_555 1_555
O3 Zn2 1_555 1_555
O4 Zn2 1_555 1_555
O5 Zn1 1_555 1_555
O6 S2 1_555 1_555
O7 S2 1_555 1_555
N1 Zn2 1_555 1_555
N2 Zn2 1_555 1_555
C1 N1 1_555 1_555
H3 C1 1_555 1_555
C2 C1 1_555 1_555
H4 C2 1_555 1_555
C3 C2 1_555 1_555
H5 C3 1_555 1_555
C4 C3 1_555 1_555
H6 C4 1_555 1_555
C5 N1 1_555 1_555
C6 N2 1_555 1_555
C7 C6 1_555 1_555
H7 C7 1_555 1_555
C8 C7 1_555 1_555
H8 C8 1_555 1_555
C9 C8 1_555 1_555
H9 C9 1_555 1_555
C10 N2 1_555 1_555
H10 C10 1_555 1_555
Zn1C O4 1_555 1_555
Zn2C O6 1_555 1_555
O4C Zn1 1_555 1_555
O6C Zn2 1_555 1_555
O7C Zn1 1_555 1_555
S1 O3 1_555 1_555
S1 O4 1_555 1_555
O7 Zn1C 1_555 1_555
C4 C5 1_555 1_555
C5 C6 1_555 1_555
C9 C10 1_555 1_555
Zn2C O4C 1_555 1_555

#END
