
#######################################################################
#
#                 Cambridge Crystallographic Data Centre
#                                CCDC 
#
#######################################################################
#
# If this CIF has been generated from an entry in the Cambridge 
# Structural Database, then it will include bibliographic, chemical, 
# crystal, experimental, refinement or atomic coordinate data resulting 
# from the CCDC's data processing and validation procedures.
#
#######################################################################

data_TILZAQ
_symmetry_cell_setting           monoclinic
_symmetry_space_group_name_H-M   'P 21/n'
_symmetry_Int_Tables_number      14
_space_group_name_Hall           '-P 2yn'
loop_
_symmetry_equiv_pos_site_id
_symmetry_equiv_pos_as_xyz
1 x,y,z
2 1/2-x,1/2+y,1/2-z
3 -x,-y,-z
4 1/2+x,1/2-y,1/2+z
_cell_length_a                   10.56520(10)
_cell_length_b                   9.64940(10)
_cell_length_c                   17.0340(2)
_cell_angle_alpha                90
_cell_angle_beta                 102.6820(10)
_cell_angle_gamma                90
_cell_volume                     1694.21
loop_
_atom_site_label
_atom_site_type_symbol
_atom_site_fract_x
_atom_site_fract_y
_atom_site_fract_z
Zn1 Zn -0.12046(3) 0.86898(4) 0.00383(2)
Zn2 Zn 0.12841(3) 0.61759(4) 0.02085(2)
S1 S 0.06895(8) 0.88131(8) -0.09570(5)
S2 S -0.09652(8) 0.58844(9) 0.11388(5)
O1 O 0.03033(17) 0.7738(2) -0.03501(12)
O2 O -0.0406(2) 0.9824(2) -0.09954(14)
O3 O 0.18686(18) 0.9560(2) -0.04771(12)
O4 O -0.19230(19) 0.5155(2) 0.04676(15)
O5 O 0.03521(18) 0.5472(2) 0.09905(13)
O6 O -0.1151(2) 0.7396(2) 0.09637(12)
N1 N -1.2030(2) 0.8054(3) -0.41359(15)
N2 N -0.2845(2) 0.8035(3) -0.07579(15)
C1 C -1.2017(3) 0.7058(4) -0.3592(2)
H1 H -1.2800 0.6788 -0.3474
C2 C -1.0902(3) 0.6415(3) -0.3198(2)
H2 H -1.0936 0.5739 -0.2815
C3 C -0.9722(3) 0.6774(3) -0.33721(17)
C4 C -0.9737(3) 0.7827(3) -0.39257(18)
H3 H -0.8965 0.8122 -0.4049
C5 C -1.0886(3) 0.8434(3) -0.42918(19)
H4 H -1.0875 0.9138 -0.4663
C6 C -0.8480(3) 0.6025(3) -0.30100(19)
H5 H -0.8097 0.5695 -0.3443
H6 H -0.8689 0.5219 -0.2722
C7 C -0.7471(2) 0.6889(4) -0.24347(16)
H7 H -0.7310 0.7744 -0.2696
H8 H -0.7795 0.7124 -0.1961
C8 C -0.6232(3) 0.6080(3) -0.2192(2)
H9 H -0.6183 0.5156 -0.2339
C9 C -0.2775(3) 0.7100(4) -0.1328(2)
H10 H -0.1961 0.6852 -0.1406
C10 C -0.3846(3) 0.6493(3) -0.1802(2)
H11 H -0.3746 0.5855 -0.2193
C11 C -0.5077(3) 0.6822(3) -0.17043(18)
C12 C -0.5145(3) 0.7795(4) -0.11174(18)
H12 H -0.5948 0.8058 -0.1026
C13 C -0.4030(3) 0.8374(3) -0.06688(18)
H13 H -0.4105 0.9035 -0.0284
Zn1B Zn 0.12046(3) 1.13102(4) -0.00383(2)
Zn2B Zn -0.12841(3) 0.38241(4) -0.02085(2)
Zn2C Zn -1.37159(3) 0.88241(4) -0.47915(2)
O3B O -0.18686(18) 1.0440(2) 0.04771(12)
O4B O 0.19230(19) 0.4845(2) -0.04676(15)
N1C N 0.2970(2) 0.6946(3) 0.08641(15)
loop_
_geom_bond_atom_site_label_1
_geom_bond_atom_site_label_2
_geom_bond_site_symmetry_1
_geom_bond_site_symmetry_2
Zn1 O1 1_555 1_555
Zn2 O1 1_555 1_555
S1 O1 1_555 1_555
S2 O4 1_555 1_555
O2 Zn1 1_555 1_555
O3 S1 1_555 1_555
O4 Zn2B 1_555 1_555
O5 Zn2 1_555 1_555
O6 Zn1 1_555 1_555
N1 C1 1_555 1_555
N2 Zn1 1_555 1_555
C1 H1 1_555 1_555
C2 C1 1_555 1_555
H2 C2 1_555 1_555
C3 C2 1_555 1_555
C4 C3 1_555 1_555
H3 C4 1_555 1_555
C5 N1 1_555 1_555
H4 C5 1_555 1_555
C6 C3 1_555 1_555
H5 C6 1_555 1_555
H6 C6 1_555 1_555
C7 C6 1_555 1_555
H7 C7 1_555 1_555
H8 C7 1_555 1_555
C8 C7 1_555 1_555
H9 C8 1_555 1_555
C9 N2 1_555 1_555
H10 C9 1_555 1_555
C10 C9 1_555 1_555
H11 C10 1_555 1_555
C11 C8 1_555 1_555
C12 C11 1_555 1_555
H12 C12 1_555 1_555
C13 N2 1_555 1_555
H13 C13 1_555 1_555
Zn1B O3 1_555 1_555
Zn2C N1 1_555 1_555
O3B Zn1 1_555 1_555
O4B Zn2 1_555 1_555
N1C Zn2 1_555 1_555
S1 O2 1_555 1_555
S2 O5 1_555 1_555
S2 O6 1_555 1_555
C4 C5 1_555 1_555
C10 C11 1_555 1_555
C12 C13 1_555 1_555

#END
