
#######################################################################
#
#                 Cambridge Crystallographic Data Centre
#                                CCDC 
#
#######################################################################
#
# If this CIF has been generated from an entry in the Cambridge 
# Structural Database, then it will include bibliographic, chemical, 
# crystal, experimental, refinement or atomic coordinate data resulting 
# from the CCDC's data processing and validation procedures.
#
#######################################################################

data_TIMCUS
_symmetry_cell_setting           monoclinic
_symmetry_space_group_name_H-M   'P 21/n'
_symmetry_Int_Tables_number      14
_space_group_name_Hall           '-P 2yn'
loop_
_symmetry_equiv_pos_site_id
_symmetry_equiv_pos_as_xyz
1 x,y,z
2 1/2-x,1/2+y,1/2-z
3 -x,-y,-z
4 1/2+x,1/2-y,1/2+z
_cell_length_a                   14.239(1)
_cell_length_b                   8.707(1)
_cell_length_c                   11.717(1)
_cell_angle_alpha                90
_cell_angle_beta                 90.244(5)
_cell_angle_gamma                90
_cell_volume                     1452.65
loop_
_atom_site_label
_atom_site_type_symbol
_atom_site_fract_x
_atom_site_fract_y
_atom_site_fract_z
Cu1 Cu 0.27920 0.15060 0.07460
C1 C 0.35640 0.46400 0.10960
C2 C 0.50470 0.43840 0.15130
C3 C 0.46640 0.29930 0.13210
C4 C 0.17480 -0.14280 0.10820
C5 C 0.08110 -0.17110 -0.03790
C6 C 0.12900 -0.03920 -0.04840
C7 C 0.15220 0.34640 -0.06470
C8 C 0.21010 0.35060 -0.23730
C9 C 0.26890 0.27070 -0.16790
H1 H 0.29910 0.51320 0.09510
H2 H 0.21420 0.37620 -0.31610
H3 H 0.32360 0.23300 -0.18400
H4 H 0.08420 0.45030 -0.19140
H5 H 0.44510 0.05710 -0.08370
H6 H 0.41790 -0.04050 0.00230
H7 H 0.56550 0.46780 0.16550
H8 H 0.49350 0.20160 0.12870
H9 H 0.44130 0.63350 0.14460
H10 H 0.19980 -0.15000 0.17750
H11 H 0.03360 -0.20960 -0.08770
H12 H 0.12370 0.03790 -0.10670
H13 H 0.09060 -0.32210 0.09800
H14 H 0.11510 0.37430 -0.00020
N1 N 0.37340 0.31590 0.10560
N2 N 0.43440 0.54170 0.13670
N3 N 0.18840 -0.02010 0.04410
N4 N 0.11130 -0.23720 0.06180
N5 N 0.23150 0.26850 -0.05970
N6 N 0.13740 0.39800 -0.17100
O1 O 0.45720 -0.01480 0.33560
O2 O 0.32590 0.04230 0.21580
O3 O 0.34140 -0.20990 0.29890
O4 O 0.44610 -0.13220 0.14910
O5 O 0.38960 0.01130 -0.05130
S1 S 0.39210 -0.08020 0.25050
O3A O 0.15860 0.29010 0.20110
Cu1A Cu 0.22080 -0.34940 0.42540
loop_
_geom_bond_atom_site_label_1
_geom_bond_atom_site_label_2
_geom_bond_site_symmetry_1
_geom_bond_site_symmetry_2
Cu1 N1 1_555 1_555
C1 H1 1_555 1_555
C2 C3 1_555 1_555
C3 H8 1_555 1_555
C4 H10 1_555 1_555
C5 C6 1_555 1_555
C6 H12 1_555 1_555
C7 H14 1_555 1_555
C8 C9 1_555 1_555
C9 H3 1_555 1_555
H2 C8 1_555 1_555
H4 N6 1_555 1_555
H5 O5 1_555 1_555
H6 O5 1_555 1_555
H7 C2 1_555 1_555
H9 N2 1_555 1_555
H11 C5 1_555 1_555
H13 N4 1_555 1_555
N1 C1 1_555 1_555
N2 C1 1_555 1_555
N3 Cu1 1_555 1_555
N4 C4 1_555 1_555
N5 Cu1 1_555 1_555
N6 C7 1_555 1_555
O1 S1 1_555 1_555
O2 Cu1 1_555 1_555
O3 S1 1_555 1_555
O4 S1 1_555 1_555
O5 Cu1 1_555 1_555
S1 O2 1_555 1_555
O3A Cu1 1_555 1_555
Cu1A O3 1_555 1_555
C2 N2 1_555 1_555
C3 N1 1_555 1_555
C4 N3 1_555 1_555
C5 N4 1_555 1_555
C6 N3 1_555 1_555
C7 N5 1_555 1_555
C8 N6 1_555 1_555
C9 N5 1_555 1_555

#END
