
#######################################################################
#
#                 Cambridge Crystallographic Data Centre
#                                CCDC 
#
#######################################################################
#
# If this CIF has been generated from an entry in the Cambridge 
# Structural Database, then it will include bibliographic, chemical, 
# crystal, experimental, refinement or atomic coordinate data resulting 
# from the CCDC's data processing and validation procedures.
#
#######################################################################

data_TIMJAA
_symmetry_cell_setting           orthorhombic
_symmetry_space_group_name_H-M   'P b c a'
_symmetry_Int_Tables_number      61
_space_group_name_Hall           '-P 2ac 2ab'
loop_
_symmetry_equiv_pos_site_id
_symmetry_equiv_pos_as_xyz
1 x,y,z
2 1/2-x,-y,1/2+z
3 1/2+x,1/2-y,-z
4 -x,1/2+y,1/2-z
5 -x,-y,-z
6 1/2+x,y,1/2-z
7 1/2-x,1/2+y,z
8 x,1/2-y,1/2+z
_cell_length_a                   10.886(2)
_cell_length_b                   13.188(4)
_cell_length_c                   15.518(6)
_cell_angle_alpha                90
_cell_angle_beta                 90
_cell_angle_gamma                90
_cell_volume                     2227.83
loop_
_atom_site_label
_atom_site_type_symbol
_atom_site_fract_x
_atom_site_fract_y
_atom_site_fract_z
Mn1 Mn 0.74979(9) 0.11490(5) 0.00312(5)
N1 N 0.8768(4) 0.0033(3) 0.07700(25)
N2 N 0.9231(3) 0.0698(3) -0.0829(3)
N3 N 0.6359(4) -0.0146(3) -0.06406(25)
N4 N 0.5636(4) 0.0887(3) 0.07539(25)
N5 N 0.8488(4) 0.2741(3) 0.0950(3)
N6 N 0.6326(4) 0.2699(3) -0.1001(3)
O1 O 0.7815(3) 0.2097(3) 0.13232(24)
O2 O 0.8741(3) 0.2559(3) 0.01795(23)
O3 O 0.8882(4) 0.3501(3) 0.1312(3)
O4 O 0.6866(3) 0.1863(3) -0.11689(24)
O5 O 0.5851(4) 0.3190(3) -0.1588(3)
O6 O 0.6314(4) 0.2984(3) -0.0245(3)
C1 C 0.9879(5) -0.0180(3) 0.0441(3)
C2 C 0.9478(5) 0.1052(4) -0.1628(3)
C3 C 1.0613(5) 0.0905(4) -0.2015(3)
C4 C 0.8539(5) -0.0336(4) 0.1558(3)
C5 C 0.5196(5) -0.0281(3) -0.0385(3)
C6 C 0.5271(5) 0.1390(4) 0.1461(3)
C7 C 0.4075(5) 0.1297(4) 0.1784(3)
C8 C 0.6705(4) -0.0661(4) -0.1341(3)
H1 H 0.893 0.152 -0.182
H2 H 1.073 0.132 -0.255
H3 H 0.771 -0.020 0.175
H4 H 0.578 0.187 0.166
H5 H 0.382 0.176 0.222
H6 H 0.753 -0.050 -0.154
N2D N 1.0769(3) -0.0698(3) 0.0829(3)
Mn1D Mn 1.25021(9) -0.11490(5) -0.00312(5)
N1D N 1.1232(4) -0.0033(3) -0.07700(25)
C1D C 1.0121(5) 0.0180(3) -0.0441(3)
N4D N 0.4364(4) -0.0887(3) -0.07539(25)
Mn1D_2 Mn 0.25021(9) -0.11490(5) -0.00312(5)
N3D N 0.3641(4) 0.0146(3) 0.06406(25)
C5D C 0.4804(5) 0.0281(3) 0.0385(3)
C8D C 0.3295(4) 0.0661(4) 0.1341(3)
H6D H 0.247 0.050 0.154
C6D C 0.4729(5) -0.1390(4) -0.1461(3)
C7D C 0.5925(5) -0.1297(4) -0.1784(3)
H4D H 0.422 -0.187 -0.166
C4D C 1.1461(5) 0.0336(4) -0.1558(3)
N3D_2 N 1.3641(4) 0.0146(3) 0.06406(25)
N4D_2 N 1.4364(4) -0.0887(3) -0.07539(25)
O1D O 1.2185(3) -0.2097(3) -0.13232(24)
N5D N 1.1512(4) -0.2741(3) -0.0950(3)
O2D O 1.1259(3) -0.2559(3) -0.01795(23)
O4D O 1.3134(3) -0.1863(3) 0.11689(24)
N6D N 1.3674(4) -0.2699(3) 0.1001(3)
O5D O 1.4149(4) -0.3190(3) 0.1588(3)
O6D O 1.3686(4) -0.2984(3) 0.0245(3)
O3D O 1.1118(4) -0.3501(3) -0.1312(3)
C2D C 1.0522(5) -0.1052(4) 0.1628(3)
C3D C 0.9387(5) -0.0905(4) 0.2015(3)
H1D H 1.107 -0.152 0.182
H5D H 0.618 -0.176 -0.222
H3D H 1.229 0.020 -0.175
H2D H 0.927 -0.132 0.255
loop_
_geom_bond_atom_site_label_1
_geom_bond_atom_site_label_2
_geom_bond_site_symmetry_1
_geom_bond_site_symmetry_2
Mn1 N1 1_555 1_555
N1 C1 1_555 1_555
N2 Mn1 1_555 1_555
N3 Mn1 1_555 1_555
N4 Mn1 1_555 1_555
N5 O1 1_555 1_555
N6 O4 1_555 1_555
O1 Mn1 1_555 1_555
O2 Mn1 1_555 1_555
O3 N5 1_555 1_555
O4 Mn1 1_555 1_555
O5 N6 1_555 1_555
O6 N6 1_555 1_555
C1 N2D 1_555 1_555
C2 N2 1_555 1_555
C3 C2 1_555 1_555
C4 N1 1_555 1_555
C5 N3 1_555 1_555
C6 N4 1_555 1_555
C7 C6 1_555 1_555
C8 N3 1_555 1_555
H1 C2 1_555 1_555
H2 C3 1_555 1_555
H3 C4 1_555 1_555
H4 C6 1_555 1_555
H5 C7 1_555 1_555
H6 C8 1_555 1_555
N2D Mn1D 1_555 1_555
Mn1D N1D 1_555 1_555
N1D C1D 1_555 1_555
C1D N2 1_555 1_555
N4D C5 1_555 1_555
Mn1D_2 N4D 1_555 1_555
N3D Mn1D_2 1_555 1_555
C5D N4 1_555 1_555
C8D C7 1_555 1_555
H6D C8D 1_555 1_555
C6D N4D 1_555 1_555
C7D C8 1_555 1_555
H4D C6D 1_555 1_555
C4D C3 1_555 1_555
N3D_2 Mn1D 1_555 1_555
N4D_2 Mn1D 1_555 1_555
O1D Mn1D 1_555 1_555
N5D O1D 1_555 1_555
O2D Mn1D 1_555 1_555
O4D Mn1D 1_555 1_555
N6D O4D 1_555 1_555
O5D N6D 1_555 1_555
O6D N6D 1_555 1_555
O3D N5D 1_555 1_555
C2D N2D 1_555 1_555
C3D C4 1_555 1_555
H1D C2D 1_555 1_555
H5D C7D 1_555 1_555
H3D C4D 1_555 1_555
H2D C3D 1_555 1_555
N5 O2 1_555 1_555
C1 C1D 1_555 1_555
C5 C5D 1_555 1_555
N1D C4D 1_555 1_555
N3D C5D 1_555 1_555
N3D C8D 1_555 1_555
C6D C7D 1_555 1_555
N5D O2D 1_555 1_555
C2D C3D 1_555 1_555

#END
