
#######################################################################
#
#                 Cambridge Crystallographic Data Centre
#                                CCDC 
#
#######################################################################
#
# If this CIF has been generated from an entry in the Cambridge 
# Structural Database, then it will include bibliographic, chemical, 
# crystal, experimental, refinement or atomic coordinate data resulting 
# from the CCDC's data processing and validation procedures.
#
#######################################################################

data_TIMKUW
_symmetry_cell_setting           hexagonal
_symmetry_space_group_name_H-M   'P 63/m m c'
_symmetry_Int_Tables_number      194
_space_group_name_Hall           "-P 6c 2'c"
loop_
_symmetry_equiv_pos_site_id
_symmetry_equiv_pos_as_xyz
1 x,y,z
2 y,x,-z
3 -x+y,y,1/2-z
4 x,x-y,1/2-z
5 -y,x-y,z
6 y,-x+y,1/2+z
7 x-y,x,1/2+z
8 -x+y,-x,z
9 -x,-y,1/2+z
10 -y,-x,1/2-z
11 x-y,-y,-z
12 -x,-x+y,-z
13 -x,-y,-z
14 -y,-x,z
15 x-y,-y,1/2+z
16 -x,-x+y,1/2+z
17 y,-x+y,-z
18 -y,x-y,1/2-z
19 -x+y,-x,1/2-z
20 x-y,x,-z
21 x,y,1/2-z
22 y,x,1/2+z
23 -x+y,y,z
24 x,x-y,z
_cell_length_a                   9.9655(7)
_cell_length_b                   9.9655(7)
_cell_length_c                   7.7523(7)
_cell_angle_alpha                90
_cell_angle_beta                 90
_cell_angle_gamma                120
_cell_volume                     666.744
loop_
_atom_site_label
_atom_site_type_symbol
_atom_site_fract_x
_atom_site_fract_y
_atom_site_fract_z
Co1 Co 0.0000 0.0000 0.0000
Co2 Co -0.3333 -0.6667 0.1603(4)
Cl1 Cl -0.3333 -0.6667 -0.1350(8)
N1 N -0.1000(4) -0.2000(7) 0.1602(7)
C1 C -0.1738(6) -0.3476(11) 0.1172(11)
H1 H -0.1907 -0.3815 0.0033
N2 N -0.2216(6) -0.4433(12) 0.2500
N3 N -0.2151(8) -0.4303(16) -0.0286(16)
H2 H -0.1920 -0.3839 -0.1268
H3 H -0.2649 -0.5299 -0.0243
Co2B Co -0.3334 -0.6667 0.3397(4)
Cl1B Cl -0.3334 -0.6667 -0.3650(8)
N1A N -0.2000(7) -0.1000(4) -0.1602(7)
N1D N 0.2000(7) 0.1000(8) 0.1602(7)
N1G N -0.1000(8) 0.1000(4) 0.1602(7)
N1L N 0.1000(4) 0.2000(7) -0.1602(7)
N1S N 0.1000(8) -0.1000(4) -0.1602(7)
N1B N -0.1000(8) -0.2000(7) 0.3398(7)
C1B C -0.1738(13) -0.3476(11) 0.3828(11)
N2C N -0.2216(6) -0.7783(13) 0.2500
N2D N -0.5567(12) -0.7783(13) 0.2500
H3D H -0.4701 -0.7350 -0.0243
H3G H -0.2650 -0.7351 -0.0243
loop_
_geom_bond_atom_site_label_1
_geom_bond_atom_site_label_2
_geom_bond_site_symmetry_1
_geom_bond_site_symmetry_2
Co1 N1 1_555 1_555
Co2 Cl1 1_555 1_555
Cl1 H3 1_555 1_555
N1 C1 1_555 1_555
C1 H1 1_555 1_555
H1 N3 1_555 1_555
N2 Co2 1_555 1_555
N3 C1 1_555 1_555
H2 N3 1_555 1_555
H3 Co2 1_555 1_555
Co2B Co2 1_555 1_555
Cl1B Cl1 1_555 1_555
N1A Co1 1_555 1_555
N1D Co1 1_555 1_555
N1G Co1 1_555 1_555
N1L Co1 1_555 1_555
N1S Co1 1_555 1_555
N1B N1 1_555 1_555
C1B N2 1_555 1_555
N2C Co2 1_555 1_555
N2D Co2 1_555 1_555
H3D Co2 1_555 1_555
H3G Co2 1_555 1_555
Cl1 H3D 1_555 1_555
Cl1 H3G 1_555 1_555
C1 N2 1_555 1_555
N2 Co2B 1_555 1_555
N3 H3 1_555 1_555
Co2B N2C 1_555 1_555
Co2B N2D 1_555 1_555
N1B C1B 1_555 1_555

#END
