
#######################################################################
#
#                 Cambridge Crystallographic Data Centre
#                                CCDC 
#
#######################################################################
#
# If this CIF has been generated from an entry in the Cambridge 
# Structural Database, then it will include bibliographic, chemical, 
# crystal, experimental, refinement or atomic coordinate data resulting 
# from the CCDC's data processing and validation procedures.
#
#######################################################################

data_TIMMOS
_symmetry_cell_setting           triclinic
_symmetry_space_group_name_H-M   'P -1'
_symmetry_Int_Tables_number      2
_space_group_name_Hall           '-P 1'
loop_
_symmetry_equiv_pos_site_id
_symmetry_equiv_pos_as_xyz
1 x,y,z
2 -x,-y,-z
_cell_length_a                   9.2236(9)
_cell_length_b                   16.9938(16)
_cell_length_c                   21.688(2)
_cell_angle_alpha                104.7820(15)
_cell_angle_beta                 96.0280(18)
_cell_angle_gamma                100.117(2)
_cell_volume                     3195.51
loop_
_atom_site_label
_atom_site_type_symbol
_atom_site_fract_x
_atom_site_fract_y
_atom_site_fract_z
Ag1 Ag -0.20262(5) -0.61865(3) 0.04388(2)
Ag2 Ag -0.26088(5) 0.12522(3) 0.46346(2)
Ag3 Ag -0.68281(7) -0.22758(3) 0.22436(2)
N1 N -0.8899(5) -0.7084(3) 0.15594(19)
N2 N -0.7413(5) -0.6831(3) 0.14984(19)
N3 N -0.2963(5) -0.6081(3) 0.1411(2)
N4 N -0.4054(6) -0.5810(3) 0.2578(2)
N5 N -0.9096(4) -0.6959(2) 0.00834(18)
N6 N -0.9518(4) -0.6230(2) 0.04133(17)
N7 N -1.0485(5) -0.4805(2) 0.0824(2)
N8 N -0.8435(6) -0.3405(2) 0.1573(2)
N9 N -0.4016(6) -0.6740(3) -0.0298(3)
N10 N -0.5771(4) 0.1854(2) 0.48797(18)
N11 N -0.5192(4) 0.1189(2) 0.45622(18)
N12 N -0.3997(5) -0.0193(2) 0.4246(2)
N13 N -0.5639(6) -0.1524(3) 0.3245(2)
N14 N -0.5930(5) 0.2156(3) 0.34570(19)
N15 N -0.7417(5) 0.1882(3) 0.35060(19)
N16 N -1.1794(5) 0.1073(3) 0.3630(2)
N17 N -1.0766(5) 0.0807(3) 0.2444(2)
C1 C -1.2353(6) -0.8099(3) 0.0439(3)
H1 H -1.2040 -0.8074 0.0049
C2 C -1.3815(7) -0.8440(4) 0.0447(3)
H2 H -1.4485 -0.8634 0.0063
C3 C -1.4295(7) -0.8496(4) 0.1012(3)
H3 H -1.5285 -0.8731 0.1012
C4 C -1.3298(7) -0.8202(4) 0.1584(3)
H4 H -1.3620 -0.8243 0.1969
C5 C -1.1838(6) -0.7851(3) 0.1587(3)
H5 H -1.1178 -0.7652 0.1974
C6 C -1.1339(5) -0.7792(3) 0.1008(2)
C7 C -0.9753(5) -0.7440(3) 0.1013(2)
C8 C -0.7078(8) -0.6264(4) 0.2689(3)
H6 H -0.8138 -0.6463 0.2631
H7 H -0.6837 -0.5675 0.2890
H8 H -0.6591 -0.6540 0.2959
C9 C -0.6563(6) -0.6443(3) 0.2050(2)
C10 C -0.4956(6) -0.6187(3) 0.2011(2)
C11 C -0.4404(6) -0.6320(3) 0.1436(2)
H9 H -0.5059 -0.6584 0.1054
C12 C -0.2076(7) -0.5689(4) 0.1975(3)
H10 H -0.1069 -0.5487 0.1979
C13 C -0.2620(7) -0.5583(4) 0.2540(3)
H11 H -0.1954 -0.5337 0.2923
C14 C -0.9390(6) -0.8674(3) -0.0625(2)
H12 H -0.9847 -0.8367 -0.0855
C15 C -0.9145(7) -0.9446(3) -0.0946(3)
H13 H -0.9467 -0.9667 -0.1388
C16 C -0.8416(7) -0.9884(3) -0.0600(3)
H14 H -0.8200 -1.0388 -0.0815
C17 C -0.8015(7) -0.9583(3) 0.0049(3)
H15 H -0.7550 -0.9888 0.0278
C18 C -0.8294(6) -0.8826(3) 0.0371(3)
H16 H -0.8035 -0.8626 0.0817
C19 C -0.8962(5) -0.8362(3) 0.0028(2)
C20 C -0.9232(5) -0.7534(3) 0.0373(2)
C21 C -0.6943(5) -0.5498(3) 0.0443(3)
H17 H -0.6797 -0.6039 0.0227
H18 H -0.6292 -0.5287 0.0850
H19 H -0.6722 -0.5128 0.0180
C22 C -0.8526(5) -0.5558(3) 0.0552(2)
C23 C -0.9018(5) -0.4784(3) 0.0881(2)
C24 C -1.0917(7) -0.4123(3) 0.1137(3)
H20 H -1.1928 -0.4117 0.1108
C25 C -0.9885(8) -0.3427(3) 0.1503(3)
H21 H -1.0220 -0.2957 0.1707
C26 C -0.8005(6) -0.4086(3) 0.1251(2)
H22 H -0.6993 -0.4088 0.1278
C27 C -0.6236(10) -0.7702(6) -0.1093(5)
H23 H -0.6030 -0.7754 -0.1525
H24 H -0.7114 -0.7477 -0.1041
H25 H -0.6393 -0.8240 -0.1016
C28 C -0.5007(7) -0.7162(4) -0.0646(3)
C29 C -0.6436(9) 0.3329(4) 0.5610(3)
H26 H -0.6341 0.2918 0.5814
C30 C -0.6844(10) 0.4050(5) 0.5937(4)
H27 H -0.7005 0.4123 0.6363
C31 C -0.7009(10) 0.4649(4) 0.5640(4)
H28 H -0.7278 0.5133 0.5862
C32 C -0.6789(8) 0.4543(4) 0.5038(3)
H29 H -0.6907 0.4954 0.4837
C33 C -0.6381(7) 0.3824(3) 0.4697(3)
H30 H -0.6249 0.3757 0.4269
C34 C -0.6173(5) 0.3219(3) 0.4985(2)
C35 C -0.5694(5) 0.2466(3) 0.4635(2)
C36 C -0.7750(6) 0.0345(3) 0.4323(3)
H31 H -0.8012 0.0862 0.4524
H32 H -0.8044 -0.0052 0.4555
H33 H -0.8251 0.0137 0.3885
C37 C -0.6102(5) 0.0483(3) 0.4331(2)
C38 C -0.5432(5) -0.0233(3) 0.4046(2)
C39 C -0.3418(6) -0.0833(3) 0.3966(3)
H34 H -0.2437 -0.0838 0.4114
C40 C -0.4223(7) -0.1485(3) 0.3465(3)
H35 H -0.3764 -0.1910 0.3276
C41 C -0.6252(6) -0.0895(3) 0.3549(3)
H36 H -0.7252 -0.0908 0.3420
C42 C -0.2540(6) 0.3101(3) 0.4635(3)
H37 H -0.2900 0.3070 0.5014
C43 C -0.1049(7) 0.3427(4) 0.4653(4)
H38 H -0.0401 0.3602 0.5044
C44 C -0.0524(8) 0.3491(4) 0.4095(4)
H39 H 0.0478 0.3718 0.4111
C45 C -0.1439(7) 0.3230(4) 0.3525(4)
H40 H -0.1063 0.3280 0.3152
C46 C -0.2956(6) 0.2882(4) 0.3486(3)
H41 H -0.3582 0.2696 0.3090
C47 C -0.3508(6) 0.2819(3) 0.4046(2)
C48 C -0.5100(5) 0.2452(3) 0.4016(2)
C49 C -0.7776(7) 0.1364(4) 0.2312(3)
H42 H -0.6729 0.1593 0.2361
H43 H -0.8323 0.1624 0.2049
H44 H -0.7966 0.0775 0.2109
C50 C -0.8253(6) 0.1513(3) 0.2950(2)
C51 C -0.9842(6) 0.1216(3) 0.3000(2)
C52 C -1.0353(6) 0.1353(3) 0.3592(2)
H45 H -0.9690 0.1642 0.3967
C53 C -1.2685(6) 0.0672(3) 0.3075(3)
H46 H -1.3688 0.0475 0.3083
C54 C -1.2180(6) 0.0538(3) 0.2491(3)
H47 H -1.2850 0.0250 0.2117
Cl1 Cl 0.0075(2) 0.21448(13) 0.57335(9)
O1 O 0.0195(6) 0.1607(3) 0.5123(2)
O2 O 0.0686(7) 0.1811(4) 0.6193(3)
O3 O -0.1524(6) 0.2045(4) 0.5726(3)
Cl2 Cl -0.6584(3) -0.07208(12) 0.15754(11)
O4 O -0.7161(8) -0.1606(4) 0.1329(3)
O5 O -0.6093(11) -0.0491(5) 0.2259(4)
O6 O -0.5297(10) -0.0532(5) 0.1290(4)
Ag1_2 Ag -1.20262(5) -0.61865(3) 0.04388(2)
Ag2_2 Ag -1.26088(5) 0.12522(3) 0.46346(2)
N6_2 N 0.0482(4) -0.6230(2) 0.04133(17)
N7_2 N -0.0485(5) -0.4805(2) 0.0824(2)
N16_2 N -0.1794(5) 0.1073(3) 0.3630(2)
Cl3 Cl -0.4061(3) -0.37927(13) 0.22492(10)
O10 O -0.431(2) -0.4278(10) 0.1612(6)
O11 O -0.5235(13) -0.3411(9) 0.2438(6)
O12 O -0.2718(13) -0.3148(7) 0.2355(6)
C55 C -0.8420(19) -0.4214(10) 0.3399(8)
O16 O -0.735(3) -0.3654(17) 0.3408(14)
O19 O -0.0474(7) 0.1793(3) 0.7325(3)
H48 H -0.0298 0.1925 0.6983
C57 C 0.0289(10) 0.1165(5) 0.7444(4)
H49 H 0.0051 0.1042 0.7834
H50 H 0.1345 0.1364 0.7488
H51 H -0.0020 0.0670 0.7089
O7? O -0.751(3) -0.057(2) 0.2076(14)
O8? O -0.526(3) -0.089(2) 0.1954(17)
O9? O -0.597(3) 0.0061(14) 0.1485(17)
O13? O -0.417(2) -0.4112(10) 0.1529(6)
O14? O -0.5534(13) -0.4338(7) 0.2267(6)
O15? O -0.4516(16) -0.3014(6) 0.2287(6)
O17? O -0.926(3) -0.4675(15) 0.3591(12)
C56? C -0.861(4) -0.3810(19) 0.3084(16)
O18? O -0.855(3) -0.4474(15) 0.2694(12)
loop_
_geom_bond_atom_site_label_1
_geom_bond_atom_site_label_2
_geom_bond_site_symmetry_1
_geom_bond_site_symmetry_2
Ag1 N3 1_555 1_555
Ag2 N11 1_555 1_555
Ag3 N8 1_555 1_555
N1 N2 1_555 1_555
N2 C9 1_555 1_555
N3 C11 1_555 1_555
N4 C10 1_555 1_555
N5 N6 1_555 1_555
N6 C22 1_555 1_555
N7 C23 1_555 1_555
N8 C25 1_555 1_555
N9 Ag1 1_555 1_555
N10 N11 1_555 1_555
N11 C37 1_555 1_555
N12 Ag2 1_555 1_555
N13 Ag3 1_555 1_555
N14 N15 1_555 1_555
N15 C50 1_555 1_555
N16 C52 1_555 1_555
N17 C51 1_555 1_555
C1 H1 1_555 1_555
C2 C1 1_555 1_555
H2 C2 1_555 1_555
C3 C2 1_555 1_555
H3 C3 1_555 1_555
C4 C3 1_555 1_555
H4 C4 1_555 1_555
C5 C4 1_555 1_555
H5 C5 1_555 1_555
C6 C1 1_555 1_555
C7 N1 1_555 1_555
C8 H6 1_555 1_555
H7 C8 1_555 1_555
H8 C8 1_555 1_555
C9 C8 1_555 1_555
C10 C9 1_555 1_555
C11 C10 1_555 1_555
H9 C11 1_555 1_555
C12 N3 1_555 1_555
H10 C12 1_555 1_555
C13 N4 1_555 1_555
H11 C13 1_555 1_555
C14 H12 1_555 1_555
C15 C14 1_555 1_555
H13 C15 1_555 1_555
C16 C15 1_555 1_555
H14 C16 1_555 1_555
C17 C16 1_555 1_555
H15 C17 1_555 1_555
C18 C17 1_555 1_555
H16 C18 1_555 1_555
C19 C14 1_555 1_555
C20 N5 1_555 1_555
C21 H17 1_555 1_555
H18 C21 1_555 1_555
H19 C21 1_555 1_555
C22 C21 1_555 1_555
C23 C22 1_555 1_555
C24 N7 1_555 1_555
H20 C24 1_555 1_555
C25 C24 1_555 1_555
H21 C25 1_555 1_555
C26 N8 1_555 1_555
H22 C26 1_555 1_555
C27 H23 1_555 1_555
H24 C27 1_555 1_555
H25 C27 1_555 1_555
C28 N9 1_555 1_555
C29 H26 1_555 1_555
C30 C29 1_555 1_555
H27 C30 1_555 1_555
C31 C30 1_555 1_555
H28 C31 1_555 1_555
C32 C31 1_555 1_555
H29 C32 1_555 1_555
C33 C32 1_555 1_555
H30 C33 1_555 1_555
C34 C29 1_555 1_555
C35 N10 1_555 1_555
C36 H31 1_555 1_555
H32 C36 1_555 1_555
H33 C36 1_555 1_555
C37 C36 1_555 1_555
C38 N12 1_555 1_555
C39 N12 1_555 1_555
H34 C39 1_555 1_555
C40 N13 1_555 1_555
H35 C40 1_555 1_555
C41 N13 1_555 1_555
H36 C41 1_555 1_555
C42 H37 1_555 1_555
C43 C42 1_555 1_555
H38 C43 1_555 1_555
C44 C43 1_555 1_555
H39 C44 1_555 1_555
C45 C44 1_555 1_555
H40 C45 1_555 1_555
C46 C45 1_555 1_555
H41 C46 1_555 1_555
C47 C42 1_555 1_555
C48 N14 1_555 1_555
C49 H42 1_555 1_555
H43 C49 1_555 1_555
H44 C49 1_555 1_555
C50 C49 1_555 1_555
C51 C50 1_555 1_555
C52 C51 1_555 1_555
H45 C52 1_555 1_555
C53 N16 1_555 1_555
H46 C53 1_555 1_555
C54 N17 1_555 1_555
H47 C54 1_555 1_555
Cl1 O1 1_555 1_555
O1 Ag2 1_555 1_555
O2 Cl1 1_555 1_555
O3 Ag2 1_555 1_555
Cl2 O4 1_555 1_555
O4 Ag3 1_555 1_555
O5 Cl2 1_555 1_555
O6 Cl2 1_555 1_555
Cl3 O10 1_555 1_555
O11 Cl3 1_555 1_555
O12 Cl3 1_555 1_555
C55 O16 1_555 1_555
O19 H48 1_555 1_555
C57 O19 1_555 1_555
H49 C57 1_555 1_555
H50 C57 1_555 1_555
H51 C57 1_555 1_555
Ag1_2 N6 1_555 1_555
Ag2_2 N16 1_555 1_555
N6_2 Ag1 1_555 1_555
N7_2 Ag1 1_555 1_555
N16_2 Ag2 1_555 1_555
N7 Ag1_2 1_555 1_555
C5 C6 1_555 1_555
C6 C7 1_555 1_555
C7 C20 1_555 1_555
C12 C13 1_555 1_555
C18 C19 1_555 1_555
C19 C20 1_555 1_555
C23 C26 1_555 1_555
C27 C28 1_555 1_555
C33 C34 1_555 1_555
C34 C35 1_555 1_555
C35 C48 1_555 1_555
C37 C38 1_555 1_555
C38 C41 1_555 1_555
C39 C40 1_555 1_555
C46 C47 1_555 1_555
C47 C48 1_555 1_555
C53 C54 1_555 1_555
Cl1 O3 1_555 1_555

#END
