
#######################################################################
#
#                 Cambridge Crystallographic Data Centre
#                                CCDC 
#
#######################################################################
#
# If this CIF has been generated from an entry in the Cambridge 
# Structural Database, then it will include bibliographic, chemical, 
# crystal, experimental, refinement or atomic coordinate data resulting 
# from the CCDC's data processing and validation procedures.
#
#######################################################################

data_TIMXOD
_symmetry_cell_setting           monoclinic
_symmetry_space_group_name_H-M   'P 21/n'
_symmetry_Int_Tables_number      14
_space_group_name_Hall           '-P 2yn'
loop_
_symmetry_equiv_pos_site_id
_symmetry_equiv_pos_as_xyz
1 x,y,z
2 1/2-x,1/2+y,1/2-z
3 -x,-y,-z
4 1/2+x,1/2-y,1/2+z
_cell_length_a                   16.691(3)
_cell_length_b                   5.6185(11)
_cell_length_c                   19.358(4)
_cell_angle_alpha                90
_cell_angle_beta                 103.59(3)
_cell_angle_gamma                90
_cell_volume                     1764.54
loop_
_atom_site_label
_atom_site_type_symbol
_atom_site_fract_x
_atom_site_fract_y
_atom_site_fract_z
Pb1 Pb 0.95370(2) -0.00532(11) 0.230999(16)
S1 S 0.82714(18) -0.2838(6) 0.10715(15)
S2 S 1.07305(19) -0.2732(6) 0.35712(14)
N1 N 0.9155(7) -0.707(2) 0.1408(5)
C1 C 0.8771(5) -0.527(3) 0.1278(5)
N2 N 1.0542(5) -0.7013(18) 0.2808(5)
C2 C 1.0596(5) -0.521(3) 0.3134(4)
N3 N 0.8777(6) 0.2841(18) 0.3172(4)
N4 N 0.5634(5) 0.5990(17) 0.6663(4)
C3 C 0.6397(8) 0.588(3) 0.6983(7)
H1 H 0.6531 0.5264 0.7441
C4 C 0.7037(8) 0.663(3) 0.6691(7)
H2 H 0.7577 0.6527 0.6959
C5 C 0.6890(6) 0.747(2) 0.6043(5)
C6 C 0.7555(6) 0.833(2) 0.5711(5)
H3 H 0.7405 0.9888 0.5507
H4 H 0.8058 0.8506 0.6079
C7 C 0.7725(5) 0.6706(18) 0.5139(4)
H5 H 0.7235 0.6626 0.4753
H6 H 0.7835 0.5115 0.5333
C8 C 0.8437(6) 0.749(2) 0.4847(5)
H7 H 0.8337 0.9101 0.4667
H8 H 0.8932 0.7510 0.5228
C9 C 0.8578(6) 0.5892(18) 0.4255(5)
C10 C 0.8212(6) 0.637(2) 0.3545(5)
H9 H 0.7886 0.7722 0.3423
C11 C 0.8336(6) 0.484(3) 0.3027(5)
H10 H 0.8103 0.5216 0.2554
C12 C 0.9102(7) 0.238(2) 0.3840(5)
H11 H 0.9391 0.0960 0.3952
C13 C 0.9040(6) 0.387(2) 0.4386(5)
H12 H 0.9316 0.3499 0.4849
C14 C 0.5472(8) 0.681(3) 0.6020(7)
H13 H 0.4925 0.6853 0.5766
C15 C 0.6058(9) 0.762(3) 0.5697(7)
H14 H 0.5905 0.8276 0.5244
Pb1_2 Pb 0.95370(2) -1.00532(11) 0.230999(16)
Pb1C Pb 0.45370(2) 0.50532(11) 0.730999(16)
N1_2 N 0.9155(7) 0.293(2) 0.1408(5)
N2_2 N 1.0542(5) 0.2987(18) 0.2808(5)
N4C N 1.0634(5) -0.0990(17) 0.1663(4)
loop_
_geom_bond_atom_site_label_1
_geom_bond_atom_site_label_2
_geom_bond_site_symmetry_1
_geom_bond_site_symmetry_2
Pb1 S1 1_555 1_555
S1 C1 1_555 1_555
S2 Pb1 1_555 1_555
N1 C1 1_555 1_555
N2 C2 1_555 1_555
C2 S2 1_555 1_555
N3 Pb1 1_555 1_555
N4 C3 1_555 1_555
C3 H1 1_555 1_555
C4 C3 1_555 1_555
H2 C4 1_555 1_555
C5 C4 1_555 1_555
C6 C5 1_555 1_555
H3 C6 1_555 1_555
H4 C6 1_555 1_555
C7 C6 1_555 1_555
H5 C7 1_555 1_555
H6 C7 1_555 1_555
C8 C7 1_555 1_555
H7 C8 1_555 1_555
H8 C8 1_555 1_555
C9 C8 1_555 1_555
C10 C9 1_555 1_555
H9 C10 1_555 1_555
C11 N3 1_555 1_555
H10 C11 1_555 1_555
C12 N3 1_555 1_555
H11 C12 1_555 1_555
C13 C9 1_555 1_555
H12 C13 1_555 1_555
C14 N4 1_555 1_555
H13 C14 1_555 1_555
C15 C5 1_555 1_555
H14 C15 1_555 1_555
Pb1_2 N1 1_555 1_555
Pb1C N4 1_555 1_555
N1_2 Pb1 1_555 1_555
N2_2 Pb1 1_555 1_555
N4C Pb1 1_555 1_555
N2 Pb1_2 1_555 1_555
C10 C11 1_555 1_555
C12 C13 1_555 1_555
C14 C15 1_555 1_555

#END
