
#######################################################################
#
#                 Cambridge Crystallographic Data Centre
#                                CCDC 
#
#######################################################################
#
# If this CIF has been generated from an entry in the Cambridge 
# Structural Database, then it will include bibliographic, chemical, 
# crystal, experimental, refinement or atomic coordinate data resulting 
# from the CCDC's data processing and validation procedures.
#
#######################################################################

data_TINDUP
_symmetry_cell_setting           orthorhombic
_symmetry_space_group_name_H-M   'P b c a'
_symmetry_Int_Tables_number      61
_space_group_name_Hall           '-P 2ac 2ab'
loop_
_symmetry_equiv_pos_site_id
_symmetry_equiv_pos_as_xyz
1 x,y,z
2 1/2-x,-y,1/2+z
3 1/2+x,1/2-y,-z
4 -x,1/2+y,1/2-z
5 -x,-y,-z
6 1/2+x,y,1/2-z
7 1/2-x,1/2+y,z
8 x,1/2-y,1/2+z
_cell_length_a                   16.253(4)
_cell_length_b                   21.746(7)
_cell_length_c                   34.389(7)
_cell_angle_alpha                90
_cell_angle_beta                 90
_cell_angle_gamma                90
_cell_volume                     12154.4
loop_
_atom_site_label
_atom_site_type_symbol
_atom_site_fract_x
_atom_site_fract_y
_atom_site_fract_z
Fe1 Fe 0.7330(1) 0.2327(1) 0.64677(6)
Sn1 Sn 0.57300(7) 0.22859(7) 0.51254(3)
Sn2 Sn 0.7432(1) 0.48239(6) 0.64811(3)
Sn3 Sn 0.96744(7) 0.23621(6) 0.75718(3)
N1 N 0.7330(9) 0.3773(7) 0.6433(4)
N2 N 0.8568(7) 0.2358(7) 0.7140(3)
N3 N 0.5812(8) 0.2407(6) 0.7016(3)
N4 N 0.7419(9) 0.0922(6) 0.6533(4)
N5 N 0.8785(8) 0.2322(8) 0.5887(4)
N6 N 0.6161(8) 0.2186(6) 0.5758(4)
O1 O 0.5284(6) 0.2403(5) 0.4484(3)
C1 C 0.733(1) 0.3227(8) 0.6443(5)
C2 C 0.8078(9) 0.2347(8) 0.6892(4)
C3 C 0.6403(9) 0.2384(8) 0.6825(4)
C4 C 0.737(1) 0.1456(8) 0.6504(5)
C5 C 0.8235(9) 0.2304(9) 0.6099(4)
C6 C 0.6581(9) 0.2247(8) 0.6036(4)
C7 C 0.599(1) 0.3246(5) 0.5161(5)
C8 C 0.6643(9) 0.3477(7) 0.5387(5)
C9 C 0.679(1) 0.4108(7) 0.5404(5)
C10 C 0.624(1) 0.4507(5) 0.5218(6)
C11 C 0.560(1) 0.4282(7) 0.4991(6)
C12 C 0.545(1) 0.3646(8) 0.4968(5)
C13 C 0.6674(8) 0.1681(7) 0.4923(4)
C14 C 0.741(1) 0.1623(7) 0.5132(4)
C15 C 0.8024(8) 0.1221(9) 0.4998(5)
C16 C 0.7896(9) 0.0877(8) 0.4658(5)
C17 C 0.715(1) 0.0917(7) 0.4464(4)
C18 C 0.6546(8) 0.1327(8) 0.4588(4)
C19 C 0.4540(8) 0.1933(7) 0.5236(5)
C20 C 0.397(1) 0.2296(6) 0.5436(5)
C21 C 0.3175(9) 0.2071(8) 0.5508(6)
C22 C 0.2962(8) 0.1478(8) 0.5389(6)
C23 C 0.353(1) 0.1123(6) 0.5186(6)
C24 C 0.431(1) 0.1353(7) 0.5108(5)
C25 C 0.762(1) 0.4749(6) 0.7092(3)
C26 C 0.803(1) 0.4240(6) 0.7253(4)
C27 C 0.817(1) 0.4217(6) 0.7656(4)
C28 C 0.786(1) 0.4677(7) 0.7898(3)
C29 C 0.746(1) 0.5188(7) 0.7738(3)
C30 C 0.736(1) 0.5227(6) 0.7333(4)
C31 C 0.8419(8) 0.4860(7) 0.6076(4)
C32 C 0.913(1) 0.4510(8) 0.6134(4)
C33 C 0.9793(9) 0.4554(8) 0.5874(5)
C34 C 0.9745(9) 0.4958(9) 0.5558(5)
C35 C 0.902(1) 0.5293(8) 0.5494(4)
C36 C 0.8359(8) 0.5248(7) 0.5753(5)
C37 C 0.6218(7) 0.4959(7) 0.6258(5)
C38 C 0.565(1) 0.4480(6) 0.6283(5)
C39 C 0.4834(9) 0.4579(7) 0.6163(6)
C40 C 0.4603(8) 0.5148(8) 0.6009(6)
C41 C 0.518(1) 0.5614(6) 0.5971(5)
C42 C 0.5985(9) 0.5527(6) 0.6106(5)
C43 C 0.987(1) 0.1403(5) 0.7494(5)
C44 C 1.022(1) 0.1053(7) 0.7794(4)
C45 C 1.034(1) 0.0417(7) 0.7744(4)
C46 C 1.012(1) 0.0139(5) 0.7394(5)
C47 C 0.980(1) 0.0491(7) 0.7091(4)
C48 C 0.967(1) 0.1126(7) 0.7143(4)
C49 C 1.024(1) 0.3015(6) 0.7195(3)
C50 C 1.0130(9) 0.2975(6) 0.6791(4)
C51 C 1.048(1) 0.3419(7) 0.6552(3)
C52 C 1.092(1) 0.3909(7) 0.6716(4)
C53 C 1.098(1) 0.3967(6) 0.7119(4)
C54 C 1.065(1) 0.3511(7) 0.7360(3)
C55 C 0.8888(7) 0.2657(8) 0.8037(4)
C56 C 0.8042(8) 0.2613(9) 0.7976(4)
C57 C 0.7502(7) 0.2803(9) 0.8268(5)
C58 C 0.7804(9) 0.3062(9) 0.8609(4)
C59 C 0.8650(9) 0.3114(9) 0.8667(4)
C60 C 0.9194(7) 0.2913(7) 0.8378(4)
N4F N 0.7581(9) 0.5922(6) 0.6533(4)
N3E N 1.0812(8) 0.2407(6) 0.7984(3)
Sn3E Sn 0.46744(7) 0.23621(6) 0.74282(3)
Sn2F Sn 0.7568(1) -0.01761(6) 0.64811(3)
C61 C 0.164(1) 0.370(1) 0.1677(7)
C62 C 0.140(1) 0.333(1) 0.1311(6)
N7 N 0.119(1) 0.3047(8) 0.1053(5)
C63 C 0.445(2) 0.387(1) 0.1216(7)
C64 C 0.379(2) 0.428(1) 0.1283(8)
N8 N 0.319(2) 0.458(1) 0.1237(6)
loop_
_geom_bond_atom_site_label_1
_geom_bond_atom_site_label_2
_geom_bond_site_symmetry_1
_geom_bond_site_symmetry_2
Fe1 C1 1_555 1_555
Sn1 N6 1_555 1_555
Sn2 N1 1_555 1_555
Sn3 N2 1_555 1_555
N1 C1 1_555 1_555
N2 C2 1_555 1_555
N3 C3 1_555 1_555
N4 C4 1_555 1_555
N5 C5 1_555 1_555
N6 C6 1_555 1_555
O1 Sn1 1_555 1_555
C2 Fe1 1_555 1_555
C3 Fe1 1_555 1_555
C4 Fe1 1_555 1_555
C5 Fe1 1_555 1_555
C6 Fe1 1_555 1_555
C7 Sn1 1_555 1_555
C8 C7 1_555 1_555
C9 C8 1_555 1_555
C10 C9 1_555 1_555
C11 C10 1_555 1_555
C12 C7 1_555 1_555
C13 Sn1 1_555 1_555
C14 C13 1_555 1_555
C15 C14 1_555 1_555
C16 C15 1_555 1_555
C17 C16 1_555 1_555
C18 C13 1_555 1_555
C19 Sn1 1_555 1_555
C20 C19 1_555 1_555
C21 C20 1_555 1_555
C22 C21 1_555 1_555
C23 C22 1_555 1_555
C24 C19 1_555 1_555
C25 Sn2 1_555 1_555
C26 C25 1_555 1_555
C27 C26 1_555 1_555
C28 C27 1_555 1_555
C29 C28 1_555 1_555
C30 C25 1_555 1_555
C31 Sn2 1_555 1_555
C32 C31 1_555 1_555
C33 C32 1_555 1_555
C34 C33 1_555 1_555
C35 C34 1_555 1_555
C36 C31 1_555 1_555
C37 Sn2 1_555 1_555
C38 C37 1_555 1_555
C39 C38 1_555 1_555
C40 C39 1_555 1_555
C41 C40 1_555 1_555
C42 C37 1_555 1_555
C43 Sn3 1_555 1_555
C44 C43 1_555 1_555
C45 C44 1_555 1_555
C46 C45 1_555 1_555
C47 C46 1_555 1_555
C48 C43 1_555 1_555
C49 Sn3 1_555 1_555
C50 C49 1_555 1_555
C51 C50 1_555 1_555
C52 C51 1_555 1_555
C53 C52 1_555 1_555
C54 C49 1_555 1_555
C55 Sn3 1_555 1_555
C56 C55 1_555 1_555
C57 C56 1_555 1_555
C58 C57 1_555 1_555
C59 C58 1_555 1_555
C60 C55 1_555 1_555
C61 C62 1_555 1_555
C62 N7 1_555 1_555
C63 C64 1_555 1_555
C64 N8 1_555 1_555
N4F Sn2 1_555 1_555
N3E Sn3 1_555 1_555
Sn3E N3 1_555 1_555
Sn2F N4 1_555 1_555
C11 C12 1_555 1_555
C17 C18 1_555 1_555
C23 C24 1_555 1_555
C29 C30 1_555 1_555
C35 C36 1_555 1_555
C41 C42 1_555 1_555
C47 C48 1_555 1_555
C53 C54 1_555 1_555
C59 C60 1_555 1_555

#END
