
#######################################################################
#
#                 Cambridge Crystallographic Data Centre
#                                CCDC 
#
#######################################################################
#
# If this CIF has been generated from an entry in the Cambridge 
# Structural Database, then it will include bibliographic, chemical, 
# crystal, experimental, refinement or atomic coordinate data resulting 
# from the CCDC's data processing and validation procedures.
#
#######################################################################

data_TINFED
_symmetry_cell_setting           orthorhombic
_symmetry_space_group_name_H-M   'F d d 2'
_symmetry_Int_Tables_number      43
_space_group_name_Hall           'F 2 -2d'
loop_
_symmetry_equiv_pos_site_id
_symmetry_equiv_pos_as_xyz
1 x,y,z
2 -x,-y,z
3 1/4-x,1/4+y,1/4+z
4 1/4+x,1/4-y,1/4+z
5 x,1/2+y,1/2+z
6 -x,1/2-y,1/2+z
7 1/4-x,3/4+y,3/4+z
8 1/4+x,3/4-y,3/4+z
9 1/2+x,y,1/2+z
10 1/2-x,-y,1/2+z
11 3/4-x,1/4+y,3/4+z
12 3/4+x,1/4-y,3/4+z
13 1/2+x,1/2+y,z
14 1/2-x,1/2-y,z
15 3/4-x,3/4+y,1/4+z
16 3/4+x,3/4-y,1/4+z
_cell_length_a                   28.995(3)
_cell_length_b                   32.585(4)
_cell_length_c                   9.3986(11)
_cell_angle_alpha                90
_cell_angle_beta                 90
_cell_angle_gamma                90
_cell_volume                     8879.82
loop_
_atom_site_label
_atom_site_type_symbol
_atom_site_fract_x
_atom_site_fract_y
_atom_site_fract_z
C1 C 0.0108(4) 0.3223(4) 0.7245(15)
C2 C 0.0299(5) 0.3387(4) 0.8451(18)
H1 H 0.0448 0.3226 0.9126
C3 C 0.0253(6) 0.3828(4) 0.8610(19)
C4 C 0.0000(5) 0.4041(4) 0.7593(18)
H2 H -0.0041 0.4323 0.7676
C5 C -0.0186(4) 0.3831(3) 0.6466(18)
C6 C -0.0463(5) 0.4026(4) 0.5306(18)
C7 C 0.0148(5) 0.2771(4) 0.6932(13)
C8 C -0.1404(4) 0.5900(3) 0.7155(14)
C9 C -0.1492(4) 0.6314(4) 0.7020(15)
H3 H -0.1668 0.6452 0.7694
C10 C -0.1310(5) 0.6521(3) 0.5850(16)
C11 C -0.1046(4) 0.6302(4) 0.4895(16)
H4 H -0.0913 0.6433 0.4117
C12 C -0.0979(4) 0.5885(4) 0.5104(16)
C13 C -0.0684(5) 0.5625(4) 0.415(2)
C14 C -0.1565(5) 0.5638(4) 0.8395(15)
N1 N -0.0128(4) 0.3426(3) 0.6263(12)
N2 N -0.1154(4) 0.5684(3) 0.6233(11)
O1 O -0.0909(4) 0.2958(3) 0.4665(11)
O2 O 0.0183(3) 0.3224(3) 0.3308(11)
O3 O -0.1808(4) 0.5798(3) 0.9320(10)
O4 O -0.0567(3) 0.3797(3) 0.4258(12)
O5 O -0.0581(4) 0.4403(3) 0.5464(15)
O6 O -0.0010(4) 0.2647(3) 0.5750(10)
O7 O 0.0331(3) 0.2547(3) 0.7873(10)
O8 O 0.0456(5) 0.4023(4) 0.9688(17)
O9 O -0.0501(4) 0.5075(3) 0.7571(14)
O10 O -0.1482(4) 0.4815(3) 0.5611(15)
O11 O -0.0657(4) 0.5247(3) 0.4527(12)
O12 O -0.0489(6) 0.5783(4) 0.3087(18)
O13 O -0.1404(4) 0.6915(3) 0.5714(13)
O14 O -0.1434(4) 0.5269(3) 0.8383(11)
U1 U -0.035876(14) 0.308794(12) 0.39831(6)
U2 U -0.098446(15) 0.494101(11) 0.65841(6)
O3N O -0.0692(4) 0.3298(3) 0.1820(10)
O7E O -0.0331(3) 0.2453(3) 0.2873(10)
O13N O -0.1096(4) 0.4415(3) 0.8214(13)
U1E U 0.035876(14) 0.191206(12) 0.89831(6)
U1J U -0.214124(14) 0.558794(12) 1.14831(6)
U2J U -0.151554(15) 0.744101(11) 0.40841(6)
O15 O 0.0985(6) 0.3514(8) 0.1105(17)
O16 O -0.1046(11) 0.4781(12) 1.116(4)
O17 O -0.0224(15) 0.5661(11) 0.122(2)
O18 O -0.0264(11) 0.4704(11) 1.236(4)
loop_
_geom_bond_atom_site_label_1
_geom_bond_atom_site_label_2
_geom_bond_site_symmetry_1
_geom_bond_site_symmetry_2
C1 C2 1_555 1_555
C2 H1 1_555 1_555
C3 C2 1_555 1_555
C4 C3 1_555 1_555
H2 C4 1_555 1_555
C5 C4 1_555 1_555
C6 C5 1_555 1_555
C7 C1 1_555 1_555
C8 C9 1_555 1_555
C9 H3 1_555 1_555
C10 C9 1_555 1_555
C11 C10 1_555 1_555
H4 C11 1_555 1_555
C12 C11 1_555 1_555
C13 C12 1_555 1_555
C14 C8 1_555 1_555
N1 C1 1_555 1_555
N2 C8 1_555 1_555
O1 U1 1_555 1_555
O2 U1 1_555 1_555
O3 C14 1_555 1_555
O4 C6 1_555 1_555
O5 C6 1_555 1_555
O6 C7 1_555 1_555
O7 C7 1_555 1_555
O8 C3 1_555 1_555
O9 U2 1_555 1_555
O10 U2 1_555 1_555
O11 C13 1_555 1_555
O12 C13 1_555 1_555
O13 C10 1_555 1_555
O14 C14 1_555 1_555
U1 N1 1_555 1_555
U2 N2 1_555 1_555
O3N U1 1_555 1_555
O7E U1 1_555 1_555
O13N U2 1_555 1_555
U1E O7 1_555 1_555
U1J O3 1_555 1_555
U2J O13 1_555 1_555
C5 N1 1_555 1_555
C12 N2 1_555 1_555
O4 U1 1_555 1_555
O5 U2 1_555 1_555
O6 U1 1_555 1_555
O11 U2 1_555 1_555
O14 U2 1_555 1_555

#END
