
#######################################################################
#
#                 Cambridge Crystallographic Data Centre
#                                CCDC 
#
#######################################################################
#
# If this CIF has been generated from an entry in the Cambridge 
# Structural Database, then it will include bibliographic, chemical, 
# crystal, experimental, refinement or atomic coordinate data resulting 
# from the CCDC's data processing and validation procedures.
#
#######################################################################

data_TINGEE
_symmetry_cell_setting           monoclinic
_symmetry_space_group_name_H-M   'P 21/c'
_symmetry_Int_Tables_number      14
_space_group_name_Hall           '-P 2ybc'
loop_
_symmetry_equiv_pos_site_id
_symmetry_equiv_pos_as_xyz
1 x,y,z
2 -x,1/2+y,1/2-z
3 -x,-y,-z
4 x,1/2-y,1/2+z
_cell_length_a                   9.3706(5)
_cell_length_b                   9.2284(5)
_cell_length_c                   24.2878(12)
_cell_angle_alpha                90
_cell_angle_beta                 92.1280(10)
_cell_angle_gamma                90
_cell_volume                     2098.85
loop_
_atom_site_label
_atom_site_type_symbol
_atom_site_fract_x
_atom_site_fract_y
_atom_site_fract_z
C1 C 0.6375(3) 0.0403(3) 0.07918(13)
C2 C 0.6202(4) -0.0914(4) 0.05208(13)
C3 C 0.5527(4) -0.2021(4) 0.08027(14)
C4 C 0.5019(4) -0.1783(4) 0.13255(13)
C5 C 0.5231(3) -0.0426(3) 0.15546(12)
C6 C 0.7141(4) 0.1679(4) 0.05544(13)
C7 C 0.4752(3) 0.0010(3) 0.21179(13)
C8 C 1.1143(3) 0.2545(3) -0.17179(13)
C9 C 1.1744(4) 0.2104(4) -0.22084(13)
C10 C 1.1157(4) 0.0886(4) -0.24657(13)
C11 C 1.0037(4) 0.0142(4) -0.22332(13)
C12 C 0.9526(3) 0.0660(3) -0.17439(13)
C13 C 0.8353(3) -0.0082(4) -0.14395(13)
C14 C 1.1600(3) 0.3869(3) -0.13968(13)
N1 N 0.5917(3) 0.0641(3) 0.12975(11)
N2 N 1.0058(3) 0.1835(3) -0.14937(11)
O1 O 0.8052(3) 0.2359(3) 0.20466(10)
O2 O 0.4788(3) 0.3748(3) 0.14866(10)
O3 O 0.7271(3) 0.2777(3) 0.08621(10)
O4 O 0.5121(3) 0.1248(3) 0.22853(9)
O5 O 0.4020(3) -0.0888(3) 0.23755(9)
O6 O 1.2474(3) 0.4710(3) -0.16119(10)
O7 O 0.8000(3) 0.3733(3) -0.07618(10)
O8 O 1.0618(3) 0.1158(3) -0.03443(10)
O9 O 1.1046(3) 0.4034(3) -0.09347(9)
O10 O 0.7587(3) 0.1554(3) 0.00801(10)
O11 O 0.8016(3) 0.0572(3) -0.09995(10)
O12 O 0.7824(3) -0.1220(3) -0.16181(9)
Cl1 Cl 0.53463(9) -0.36943(8) 0.04919(3)
Cl2 Cl 1.18008(10) 0.02554(9) -0.30737(3)
U1 U 0.641380(12) 0.305766(12) 0.177149(4)
U2 U 0.926963(12) 0.242179(12) -0.053851(4)
O13 O 1.0003(3) 0.3579(3) 0.03041(10)
H1 H 0.447(6) -0.249(5) 0.150(2)
H2 H 0.647(5) -0.109(5) 0.0139(18)
H3 H 1.244(5) 0.263(5) -0.2326(19)
H4 H 0.965(4) -0.066(5) -0.2394(17)
O5A O 0.5980(3) 0.4112(3) 0.26245(9)
O6B O 0.7526(3) 0.5290(3) 0.16119(10)
U1A U 0.358620(12) -0.194234(12) 0.322851(4)
U1B U 1.358620(12) 0.694234(12) -0.177149(4)
O14 O 0.7467(3) 0.7111(3) 0.93253(11)
H5 H 0.706(6) 0.650(7) 0.926(2)
H6 H 0.744(8) 0.757(7) 0.905(3)
loop_
_geom_bond_atom_site_label_1
_geom_bond_atom_site_label_2
_geom_bond_site_symmetry_1
_geom_bond_site_symmetry_2
C1 C2 1_555 1_555
C2 C3 1_555 1_555
C3 C4 1_555 1_555
C4 C5 1_555 1_555
C5 C7 1_555 1_555
C6 C1 1_555 1_555
C7 O4 1_555 1_555
C8 C9 1_555 1_555
C9 C10 1_555 1_555
C10 C11 1_555 1_555
C11 C12 1_555 1_555
C12 C13 1_555 1_555
C13 O11 1_555 1_555
C14 C8 1_555 1_555
N1 C1 1_555 1_555
N2 C8 1_555 1_555
O1 U1 1_555 1_555
O2 U1 1_555 1_555
O3 C6 1_555 1_555
O4 U1 1_555 1_555
O5 C7 1_555 1_555
O6 C14 1_555 1_555
O7 U2 1_555 1_555
O8 U2 1_555 1_555
O9 C14 1_555 1_555
O10 C6 1_555 1_555
O11 U2 1_555 1_555
O12 C13 1_555 1_555
Cl1 C3 1_555 1_555
Cl2 C10 1_555 1_555
U1 N1 1_555 1_555
U2 N2 1_555 1_555
O13 U2 1_555 1_555
H1 C4 1_555 1_555
H2 C2 1_555 1_555
H3 C9 1_555 1_555
H4 C11 1_555 1_555
O14 H5 1_555 1_555
H6 O14 1_555 1_555
O5A U1 1_555 1_555
O6B U1 1_555 1_555
U1A O5 1_555 1_555
U1B O6 1_555 1_555
C5 N1 1_555 1_555
C12 N2 1_555 1_555
O3 U1 1_555 1_555
O9 U2 1_555 1_555
O10 U2 1_555 1_555

#END
