
#######################################################################
#
#                 Cambridge Crystallographic Data Centre
#                                CCDC 
#
#######################################################################
#
# If this CIF has been generated from an entry in the Cambridge 
# Structural Database, then it will include bibliographic, chemical, 
# crystal, experimental, refinement or atomic coordinate data resulting 
# from the CCDC's data processing and validation procedures.
#
#######################################################################

data_TINNEK
_symmetry_cell_setting           monoclinic
_symmetry_space_group_name_H-M   'P 21/n'
_symmetry_Int_Tables_number      14
_space_group_name_Hall           '-P 2yn'
loop_
_symmetry_equiv_pos_site_id
_symmetry_equiv_pos_as_xyz
1 x,y,z
2 1/2-x,1/2+y,1/2-z
3 -x,-y,-z
4 1/2+x,1/2-y,1/2+z
_cell_length_a                   9.1980(6)
_cell_length_b                   23.3976(16)
_cell_length_c                   19.5847(13)
_cell_angle_alpha                90
_cell_angle_beta                 94.3650(10)
_cell_angle_gamma                90
_cell_volume                     4202.62
loop_
_atom_site_label
_atom_site_type_symbol
_atom_site_fract_x
_atom_site_fract_y
_atom_site_fract_z
Ag1 Ag 0.87384(3) 0.207538(11) 0.816452(13)
Ag2 Ag 0.83008(3) 0.251646(12) 0.481487(13)
P1 P 0.55663(9) 0.24534(3) 0.56823(4)
P2 P 0.56846(9) 0.24119(3) 0.72293(4)
P3 P 0.83112(9) 0.23357(3) 0.65053(4)
N1 N 0.4882(3) 0.25346(10) 0.64466(13)
N2 N 0.7382(3) 0.23276(11) 0.71697(13)
N3 N 0.7276(3) 0.23551(11) 0.58027(13)
N4 N 0.5006(3) 0.30144(11) 0.52517(13)
H1 H 0.4564 0.2962 0.4842
N5 N 0.4828(3) 0.19363(11) 0.52353(14)
H2 H 0.4032 0.2012 0.4972
N6 N 0.5406(3) 0.29163(11) 0.77619(13)
H3 H 0.4636 0.2881 0.7999
N7 N 0.4763(3) 0.18903(11) 0.75283(14)
H4 H 0.4525 0.1923 0.7953
N8 N 0.9423(3) 0.28770(11) 0.64632(14)
H5 H 1.0358 0.2829 0.6579
N9 N 0.9346(3) 0.17782(11) 0.65842(13)
H6 H 0.9235 0.1555 0.6938
C1 C 0.3301(3) 0.26805(14) 0.64241(17)
H7 H 0.2845 0.2470 0.6784
H8 H 0.2829 0.2575 0.5976
H9 H 0.3190 0.3092 0.6497
C2 C 0.5189(4) 0.36054(13) 0.55026(17)
H10 H 0.6050 0.3776 0.5307
H11 H 0.5383 0.3598 0.6007
C3 C 0.3873(4) 0.39809(14) 0.53213(18)
H12 H 0.2993 0.3790 0.5486
C4 C 0.3629(4) 0.40687(16) 0.4557(2)
H13 H 0.4490 0.4251 0.4387
H14 H 0.2775 0.4314 0.4458
H15 H 0.3463 0.3698 0.4331
C5 C 0.4093(5) 0.45504(16) 0.5696(2)
H16 H 0.4151 0.4484 0.6191
H17 H 0.3270 0.4804 0.5567
H18 H 0.5000 0.4728 0.5570
C6 C 0.5388(4) 0.13471(13) 0.52352(17)
H19 H 0.4599 0.1084 0.5348
H20 H 0.6187 0.1311 0.5601
C7 C 0.5955(4) 0.11590(14) 0.45609(17)
H21 H 0.6737 0.1430 0.4443
C8 C 0.4748(4) 0.11674(16) 0.39837(18)
H22 H 0.3977 0.0900 0.4089
H23 H 0.5148 0.1054 0.3554
H24 H 0.4342 0.1554 0.3936
C9 C 0.6610(4) 0.05630(14) 0.46349(19)
H25 H 0.5836 0.0286 0.4704
H26 H 0.7332 0.0555 0.5029
H27 H 0.7084 0.0465 0.4219
C10 C 0.6300(3) 0.34290(13) 0.78935(17)
H28 H 0.7224 0.3382 0.7671
H29 H 0.6547 0.3462 0.8393
C11 C 0.5571(4) 0.39802(14) 0.76381(18)
H30 H 0.5254 0.3931 0.7142
C12 C 0.4221(4) 0.41115(16) 0.8020(2)
H31 H 0.4511 0.4171 0.8507
H32 H 0.3538 0.3790 0.7968
H33 H 0.3749 0.4458 0.7830
C13 C 0.6644(4) 0.44718(15) 0.7703(2)
H34 H 0.6949 0.4535 0.8188
H35 H 0.6178 0.4819 0.7510
H36 H 0.7499 0.4380 0.7454
C14 C 0.4286(4) 0.13706(13) 0.71632(18)
H37 H 0.4115 0.1462 0.6670
H38 H 0.3342 0.1250 0.7327
C15 C 0.5340(4) 0.08693(14) 0.72399(18)
H39 H 0.6275 0.0981 0.7047
C16 C 0.4680(5) 0.03662(15) 0.6828(2)
H40 H 0.3784 0.0242 0.7024
H41 H 0.5379 0.0049 0.6843
H42 H 0.4455 0.0484 0.6351
C17 C 0.5661(4) 0.07009(15) 0.79873(19)
H43 H 0.6092 0.1027 0.8244
H44 H 0.6346 0.0379 0.8018
H45 H 0.4753 0.0589 0.8181
C18 C 0.8885(4) 0.34457(14) 0.62334(18)
H46 H 0.8241 0.3598 0.6573
H47 H 0.8292 0.3402 0.5793
C19 C 1.0080(4) 0.38706(15) 0.61414(19)
H48 H 1.0791 0.3692 0.5844
C20 C 1.0896(4) 0.40340(16) 0.6817(2)
H49 H 1.0218 0.4211 0.7116
H50 H 1.1672 0.4306 0.6731
H51 H 1.1324 0.3691 0.7037
C21 C 0.9440(5) 0.43998(15) 0.5776(2)
H52 H 0.9033 0.4294 0.5316
H53 H 1.0209 0.4686 0.5740
H54 H 0.8667 0.4559 0.6037
C22 C 1.0447(3) 0.16095(14) 0.61249(17)
H55 H 1.1351 0.1504 0.6403
H56 H 1.0674 0.1942 0.5840
C23 C 0.9997(4) 0.11121(14) 0.56562(17)
H57 H 0.9088 0.1221 0.5374
C24 C 0.9688(4) 0.05769(14) 0.6062(2)
H58 H 0.9457 0.0259 0.5746
H59 H 0.8859 0.0647 0.6337
H60 H 1.0549 0.0480 0.6366
C25 C 1.1198(4) 0.09985(18) 0.5175(2)
H61 H 1.2087 0.0876 0.5443
H62 H 1.1397 0.1349 0.4925
H63 H 1.0881 0.0698 0.4849
N10 N 1.1763(3) 0.26829(12) 0.84255(14)
O1 O 1.0852(2) 0.25347(10) 0.88354(12)
O2 O 1.3070(2) 0.27735(10) 0.86574(12)
O3 O 1.1410(3) 0.27490(11) 0.78094(12)
N11 N 0.6542(3) 0.23081(12) 0.93150(14)
O4 O 0.7750(2) 0.25055(10) 0.91603(11)
O5 O 0.5984(2) 0.18912(10) 0.89926(12)
O6 O 0.5929(3) 0.25316(12) 0.97962(13)
N12 N 1.0435(3) 0.09811(12) 0.80223(15)
O7 O 1.0862(3) 0.14317(11) 0.83360(15)
O8 O 1.1251(3) 0.05708(12) 0.79907(16)
O9 O 0.9158(3) 0.09803(11) 0.77443(13)
O10 O 0.8127(3) 0.35147(12) 0.43904(15)
H64 H 0.892(4) 0.352(2) 0.426(3)
H65 H 0.754(5) 0.357(2) 0.407(2)
Ag2C Ag 1.33008(3) 0.248354(12) 0.981487(13)
Ag2C_2 Ag 0.33008(3) 0.248354(12) 0.981487(13)
O2C O 0.8070(2) 0.22265(10) 0.36574(12)
O6C O 1.0929(3) 0.24684(12) 0.47962(13)
loop_
_geom_bond_atom_site_label_1
_geom_bond_atom_site_label_2
_geom_bond_site_symmetry_1
_geom_bond_site_symmetry_2
Ag1 N2 1_555 1_555
Ag2 N3 1_555 1_555
P1 N1 1_555 1_555
P2 N1 1_555 1_555
P3 N2 1_555 1_555
N1 C1 1_555 1_555
N2 P2 1_555 1_555
N3 P1 1_555 1_555
N4 P1 1_555 1_555
H1 N4 1_555 1_555
N5 P1 1_555 1_555
H2 N5 1_555 1_555
N6 P2 1_555 1_555
H3 N6 1_555 1_555
N7 P2 1_555 1_555
H4 N7 1_555 1_555
N8 P3 1_555 1_555
H5 N8 1_555 1_555
N9 P3 1_555 1_555
H6 N9 1_555 1_555
C1 H7 1_555 1_555
H8 C1 1_555 1_555
H9 C1 1_555 1_555
C2 N4 1_555 1_555
H10 C2 1_555 1_555
H11 C2 1_555 1_555
C3 C2 1_555 1_555
H12 C3 1_555 1_555
C4 C3 1_555 1_555
H13 C4 1_555 1_555
H14 C4 1_555 1_555
H15 C4 1_555 1_555
C5 C3 1_555 1_555
H16 C5 1_555 1_555
H17 C5 1_555 1_555
H18 C5 1_555 1_555
C6 N5 1_555 1_555
H19 C6 1_555 1_555
H20 C6 1_555 1_555
C7 C6 1_555 1_555
H21 C7 1_555 1_555
C8 C7 1_555 1_555
H22 C8 1_555 1_555
H23 C8 1_555 1_555
H24 C8 1_555 1_555
C9 C7 1_555 1_555
H25 C9 1_555 1_555
H26 C9 1_555 1_555
H27 C9 1_555 1_555
C10 N6 1_555 1_555
H28 C10 1_555 1_555
H29 C10 1_555 1_555
C11 C10 1_555 1_555
H30 C11 1_555 1_555
C12 C11 1_555 1_555
H31 C12 1_555 1_555
H32 C12 1_555 1_555
H33 C12 1_555 1_555
C13 C11 1_555 1_555
H34 C13 1_555 1_555
H35 C13 1_555 1_555
H36 C13 1_555 1_555
C14 N7 1_555 1_555
H37 C14 1_555 1_555
H38 C14 1_555 1_555
C15 C14 1_555 1_555
H39 C15 1_555 1_555
C16 C15 1_555 1_555
H40 C16 1_555 1_555
H41 C16 1_555 1_555
H42 C16 1_555 1_555
C17 C15 1_555 1_555
H43 C17 1_555 1_555
H44 C17 1_555 1_555
H45 C17 1_555 1_555
C18 N8 1_555 1_555
H46 C18 1_555 1_555
H47 C18 1_555 1_555
C19 C18 1_555 1_555
H48 C19 1_555 1_555
C20 C19 1_555 1_555
H49 C20 1_555 1_555
H50 C20 1_555 1_555
H51 C20 1_555 1_555
C21 C19 1_555 1_555
H52 C21 1_555 1_555
H53 C21 1_555 1_555
H54 C21 1_555 1_555
C22 N9 1_555 1_555
H55 C22 1_555 1_555
H56 C22 1_555 1_555
C23 C22 1_555 1_555
H57 C23 1_555 1_555
C24 C23 1_555 1_555
H58 C24 1_555 1_555
H59 C24 1_555 1_555
H60 C24 1_555 1_555
C25 C23 1_555 1_555
H61 C25 1_555 1_555
H62 C25 1_555 1_555
H63 C25 1_555 1_555
N10 O1 1_555 1_555
O1 Ag1 1_555 1_555
O2 N10 1_555 1_555
O3 N10 1_555 1_555
N11 O4 1_555 1_555
O4 Ag1 1_555 1_555
O5 N11 1_555 1_555
O6 N11 1_555 1_555
N12 O7 1_555 1_555
O7 Ag1 1_555 1_555
O8 N12 1_555 1_555
O9 N12 1_555 1_555
O10 Ag2 1_555 1_555
H64 O10 1_555 1_555
H65 O10 1_555 1_555
Ag2C O2 1_555 1_555
Ag2C_2 O6 1_555 1_555
O2C Ag2 1_555 1_555
O6C Ag2 1_555 1_555
P3 N3 1_555 1_555

#END
