
#######################################################################
#
#                 Cambridge Crystallographic Data Centre
#                                CCDC 
#
#######################################################################
#
# If this CIF has been generated from an entry in the Cambridge 
# Structural Database, then it will include bibliographic, chemical, 
# crystal, experimental, refinement or atomic coordinate data resulting 
# from the CCDC's data processing and validation procedures.
#
#######################################################################

data_TINQAI
_symmetry_cell_setting           orthorhombic
_symmetry_space_group_name_H-M   'C m c m'
_symmetry_Int_Tables_number      63
_space_group_name_Hall           '-C 2n 2'
loop_
_symmetry_equiv_pos_site_id
_symmetry_equiv_pos_as_xyz
1 x,y,z
2 -x,-y,1/2+z
3 x,-y,-z
4 -x,y,1/2-z
5 1/2+x,1/2+y,z
6 1/2-x,1/2-y,1/2+z
7 1/2+x,1/2-y,-z
8 1/2-x,1/2+y,1/2-z
9 -x,-y,-z
10 x,y,1/2-z
11 -x,y,z
12 x,-y,1/2+z
13 1/2-x,1/2-y,-z
14 1/2+x,1/2+y,1/2-z
15 1/2-x,1/2+y,z
16 1/2+x,1/2-y,1/2+z
_cell_length_a                   7.601(2)
_cell_length_b                   13.884(2)
_cell_length_c                   17.676(4)
_cell_angle_alpha                90
_cell_angle_beta                 90
_cell_angle_gamma                90
_cell_volume                     1865.39
loop_
_atom_site_label
_atom_site_type_symbol
_atom_site_fract_x
_atom_site_fract_y
_atom_site_fract_z
Cu1 Cu 0.0000 0.3986(2) 0.2500
Cl1 Cl 0.5000 0.4270(2) 0.4292(2)
O1 O 0.0000 0.246(1) 0.2500
O2 O 0.1896(8) 0.4148(5) 0.3237(4)
C1 C 0.5000 0.421(1) 0.3332(9)
C2 C 0.342(1) 0.4178(7) 0.2941(5)
H3 H 0.1339 0.2179 0.2500
C2I C 0.342(1) 0.4178(7) 0.2059(5)
O2I O 0.1896(8) 0.4148(5) 0.1763(4)
C1I C 0.5000 0.421(1) 0.1668(9)
Cl1I Cl 0.5000 0.4270(2) 0.0708(2)
C2C C 0.658(1) 0.4178(7) 0.2059(5)
O2C O 0.8104(8) 0.4148(5) 0.1763(4)
C2J C 0.658(1) 0.4178(7) 0.2941(5)
O2J O 0.8104(8) 0.4148(5) 0.3237(4)
H3C H -0.1339 0.2179 0.2500
O2C_2 O -0.1896(8) 0.4148(5) 0.1763(4)
O2J_2 O -0.1896(8) 0.4148(5) 0.3237(4)
Cu1_2 Cu 1.0000 0.3986(2) 0.2500
N1 N 0.322(2) 0.1561(9) 0.2500
C3 C 0.409(1) 0.1551(7) 0.1833(6)
C4 C 0.309(1) 0.1525(8) 0.1089(6)
C5 C 0.421(3) 0.165(2) 0.037(1)
H1 H 0.2065 0.0922 0.1158
H2 H 0.2471 0.2163 0.1113
H4 H 0.4127 0.0799 0.0412
H5 H 0.3777 0.1377 0.0001
C3J C 0.591(1) 0.1551(7) 0.1833(6)
N1J N 0.678(2) 0.1561(9) 0.2500
C3C C 0.591(1) 0.1551(7) 0.3167(6)
C3I C 0.409(1) 0.1551(7) 0.3167(6)
C4I C 0.309(1) 0.1525(8) 0.3911(6)
C5I C 0.421(3) 0.165(2) 0.463(1)
C5C C 0.579(3) 0.165(2) 0.463(1)
C4C C 0.691(1) 0.1525(8) 0.3911(6)
H1C H 0.7935 0.0922 0.3842
H2C H 0.7529 0.2163 0.3887
H4C H 0.5873 0.0799 0.4588
H5C H 0.6223 0.1377 0.4999
H4I H 0.4127 0.0799 0.4588
H5I H 0.3777 0.1377 0.4999
H1I H 0.2065 0.0922 0.3842
H2I H 0.2471 0.2163 0.3887
C4J C 0.691(1) 0.1525(8) 0.1089(6)
C5J C 0.579(3) 0.165(2) 0.037(1)
H4J H 0.5873 0.0799 0.0412
H5J H 0.6223 0.1377 0.0001
H1J H 0.7935 0.0922 0.1158
H2J H 0.7529 0.2163 0.1113
C6? C 0.412(3) 0.111(2) 0.044(1)
loop_
_geom_bond_atom_site_label_1
_geom_bond_atom_site_label_2
_geom_bond_site_symmetry_1
_geom_bond_site_symmetry_2
Cu1 O1 1_555 1_555
Cl1 C1 1_555 1_555
O1 H3 1_555 1_555
O2 Cu1 1_555 1_555
N1 C3 1_555 1_555
C1 C2 1_555 1_555
C2 O2 1_555 1_555
C3 C4 1_555 1_555
C4 C5 1_555 1_555
C5 H4 1_555 1_555
H1 C4 1_555 1_555
H2 C4 1_555 1_555
H5 C5 1_555 1_555
C2I C2 1_555 1_555
O2I Cu1 1_555 1_555
C1I C2I 1_555 1_555
Cl1I C1I 1_555 1_555
C2C C1I 1_555 1_555
O2C C2C 1_555 1_555
C2J C1 1_555 1_555
O2J C2J 1_555 1_555
H3C O1 1_555 1_555
C3J C3 1_555 1_555
N1J C3J 1_555 1_555
C3C N1J 1_555 1_555
C3I N1 1_555 1_555
C4I C3I 1_555 1_555
C5I C4I 1_555 1_555
C5C C5I 1_555 1_555
C4C C3C 1_555 1_555
H1C C4C 1_555 1_555
H2C C4C 1_555 1_555
H4C C5C 1_555 1_555
H5C C5C 1_555 1_555
H4I C5I 1_555 1_555
H5I C5I 1_555 1_555
H1I C4I 1_555 1_555
H2I C4I 1_555 1_555
C4J C3J 1_555 1_555
C5J C5 1_555 1_555
H4J C5J 1_555 1_555
H5J C5J 1_555 1_555
H1J C4J 1_555 1_555
H2J C4J 1_555 1_555
O2C_2 Cu1 1_555 1_555
O2J_2 Cu1 1_555 1_555
Cu1_2 O2C 1_555 1_555
C2I O2I 1_555 1_555
C2C C2J 1_555 1_555
O2J Cu1_2 1_555 1_555
C3C C3I 1_555 1_555
C5C C4C 1_555 1_555
C4J C5J 1_555 1_555

#END
