
#######################################################################
#
#                 Cambridge Crystallographic Data Centre
#                                CCDC 
#
#######################################################################
#
# If this CIF has been generated from an entry in the Cambridge 
# Structural Database, then it will include bibliographic, chemical, 
# crystal, experimental, refinement or atomic coordinate data resulting 
# from the CCDC's data processing and validation procedures.
#
#######################################################################

data_TIPDUT
_symmetry_cell_setting           triclinic
_symmetry_space_group_name_H-M   'P -1'
_symmetry_Int_Tables_number      2
_space_group_name_Hall           '-P 1'
loop_
_symmetry_equiv_pos_site_id
_symmetry_equiv_pos_as_xyz
1 x,y,z
2 -x,-y,-z
_cell_length_a                   9.6342(11)
_cell_length_b                   10.0779(11)
_cell_length_c                   14.9346(16)
_cell_angle_alpha                72.385(2)
_cell_angle_beta                 87.940(2)
_cell_angle_gamma                75.256(2)
_cell_volume                     1335.21
loop_
_atom_site_label
_atom_site_type_symbol
_atom_site_fract_x
_atom_site_fract_y
_atom_site_fract_z
Co1 Co 0.5000 0.5000 0.0000
Co2 Co -0.08131(5) 0.32232(4) 0.57656(3)
O1 O 0.2165(3) -0.1901(2) 0.32538(16)
O2 O 0.5074(3) 0.6519(3) 0.07032(17)
O3 O 0.0756(3) -0.1126(2) 0.42712(17)
O4 O 0.4524(3) 0.3649(2) 0.12708(16)
O5 O 0.1489(3) 0.5109(2) 0.37142(16)
C1 C 0.2033(3) 0.0480(3) 0.3331(2)
O6 O 0.4095(3) 0.1842(3) 0.08402(17)
O7 O 0.0682(3) 0.3467(3) 0.48064(18)
C2 C 0.3212(3) 0.2145(3) 0.2278(2)
C3 C 0.1523(3) 0.1467(3) 0.3821(2)
H1 H 0.0953 0.1232 0.4349
C4 C 0.1846(3) 0.2799(3) 0.3539(2)
C5 C 0.2692(4) 0.3128(3) 0.2771(2)
H2 H 0.2918 0.4035 0.2581
C6 C 0.1641(4) -0.0927(3) 0.3630(2)
N1 N -0.2515(4) 0.4096(3) 0.4665(2)
N2 N 0.0920(3) 0.2293(3) 0.6847(2)
C7 C 0.2888(3) 0.0813(3) 0.2564(2)
H3 H 0.3249 0.0131 0.2236
C8 C 0.1286(3) 0.3864(3) 0.4059(2)
C9 C 0.4018(4) 0.2569(3) 0.1391(2)
N3 N 0.2731(4) 0.5839(4) -0.0317(2)
C10 C -0.3383(5) 0.5401(5) 0.4477(3)
H4 H -0.3241 0.5992 0.4836
C11 C 0.1816(5) 0.6066(5) 0.0360(4)
H5 H 0.2195 0.5815 0.0984
C12 C -0.2748(6) 0.3278(6) 0.4153(3)
H6 H -0.2138 0.2335 0.4265
C13 C -0.4489(6) 0.5969(6) 0.3790(4)
H7 H -0.5067 0.6925 0.3676
C14 C -0.4724(7) 0.5120(7) 0.3285(4)
H8 H -0.5482 0.5469 0.2817
C15 C 0.0367(6) 0.6641(7) 0.0188(5)
H9 H -0.0247 0.6780 0.0682
C16 C 0.2176(6) 0.6155(6) -0.1157(4)
H10 H 0.2804 0.5977 -0.1637
C17 C -0.3852(7) 0.3760(7) 0.3462(4)
H11 H -0.3997 0.3148 0.3119
C18 C -0.0175(7) 0.7011(7) -0.0716(5)
H12 H -0.1170 0.7455 -0.0858
C19 C 0.0695(7) 0.6750(7) -0.1403(5)
H13 H 0.0329 0.6956 -0.2026
H14 H 0.4409 0.7050 0.0992
H15 H 0.5371 0.7272 0.0223
C20 C 0.1242(6) 0.2939(6) 0.7417(4)
H16 H 0.0624 0.3852 0.7386
C21 C 0.2411(6) 0.2417(7) 0.8069(4)
H17 H 0.2630 0.2985 0.8422
C22 C 0.3216(6) 0.1057(7) 0.8170(5)
H18 H 0.3963 0.0597 0.8645
C23 C 0.1812(7) 0.1070(7) 0.6908(7)
H19 H 0.1699 0.0602 0.6461
C24 C 0.2924(9) 0.0393(9) 0.7584(10)
H20 H 0.3480 -0.0552 0.7629
Co2A Co 0.08131(5) -0.32232(4) 0.42344(3)
O1A O -0.2165(3) 0.1901(2) 0.67462(16)
O3A O -0.0756(3) 0.1126(2) 0.57288(17)
O4A O -0.4524(3) -0.3649(2) 0.87292(16)
O5A O -0.1489(3) -0.5109(2) 0.62858(16)
C1A C -0.2033(3) -0.0480(3) 0.6669(2)
O6A O -0.4095(3) -0.1842(3) 0.91598(17)
O7A O -0.0682(3) -0.3467(3) 0.51936(18)
C2A C -0.3212(3) -0.2145(3) 0.7722(2)
C3A C -0.1523(3) -0.1467(3) 0.6179(2)
H1A H -0.0953 -0.1232 0.5651
C4A C -0.1846(3) -0.2799(3) 0.6461(2)
C5A C -0.2692(4) -0.3128(3) 0.7229(2)
H2A H -0.2918 -0.4035 0.7419
C6A C -0.1641(4) 0.0927(3) 0.6370(2)
N1A N 0.2515(4) -0.4096(3) 0.5335(2)
N2A N -0.0920(3) -0.2293(3) 0.3153(2)
C7A C -0.2888(3) -0.0813(3) 0.7436(2)
H3A H -0.3249 -0.0131 0.7764
C8A C -0.1286(3) -0.3864(3) 0.5941(2)
C9A C -0.4018(4) -0.2569(3) 0.8609(2)
C10A C 0.3383(5) -0.5401(5) 0.5523(3)
H4A H 0.3241 -0.5992 0.5164
C12A C 0.2748(6) -0.3278(6) 0.5847(3)
H6A H 0.2138 -0.2335 0.5735
C13A C 0.4489(6) -0.5969(6) 0.6210(4)
H7A H 0.5067 -0.6925 0.6324
C14A C 0.4724(7) -0.5120(7) 0.6715(4)
H8A H 0.5482 -0.5469 0.7183
C17A C 0.3852(7) -0.3760(7) 0.6538(4)
H11A H 0.3997 -0.3148 0.6881
C20A C -0.1242(6) -0.2939(6) 0.2583(4)
H16A H -0.0624 -0.3852 0.2614
C21A C -0.2411(6) -0.2417(7) 0.1931(4)
H17A H -0.2630 -0.2985 0.1578
C22A C -0.3216(6) -0.1057(7) 0.1830(5)
H18A H -0.3963 -0.0597 0.1355
C23A C -0.1812(7) -0.1070(7) 0.3092(7)
H19A H -0.1699 -0.0602 0.3539
C24A C -0.2924(9) -0.0393(9) 0.2416(10)
H20A H -0.3480 0.0552 0.2371
N3A N 0.7269(4) 0.4161(4) 0.0317(2)
C11A C 0.8184(5) 0.3934(5) -0.0360(4)
H5A H 0.7805 0.4185 -0.0984
C15A C 0.9633(6) 0.3359(7) -0.0188(5)
H9A H 1.0247 0.3220 -0.0682
C16A C 0.7824(6) 0.3845(6) 0.1157(4)
H10A H 0.7196 0.4023 0.1637
C18A C 1.0175(7) 0.2989(7) 0.0716(5)
H12A H 1.1170 0.2545 0.0858
C19A C 0.9305(7) 0.3250(7) 0.1403(5)
H13A H 0.9671 0.3044 0.2026
O2A O 0.4926(3) 0.3481(3) -0.07032(17)
H14A H 0.5591 0.2950 -0.0992
H15A H 0.4629 0.2728 -0.0223
Co1_2 Co -0.5000 -0.5000 1.0000
Co2_2 Co -0.08131(5) -0.67768(4) 0.57656(3)
Co2A_2 Co 0.08131(5) 0.67768(4) 0.42344(3)
O4A_2 O 0.5476(3) 0.6351(2) -0.12708(16)
O5_2 O 0.1489(3) -0.4891(2) 0.37142(16)
O5A_2 O -0.1489(3) 0.4891(2) 0.62858(16)
O8 O 0.2752(4) 0.7956(4) 0.1480(2)
H21 H 0.2588 0.7988 0.2030
C25 C 0.1898(8) 0.9216(6) 0.0830(4)
H22 H 0.0902 0.9382 0.1024
H23 H 0.1935 0.9093 0.0202
H24 H 0.2267 1.0043 0.0814
O9 O 0.517(2) -0.0482(19) 0.4809(13)
loop_
_geom_bond_atom_site_label_1
_geom_bond_atom_site_label_2
_geom_bond_site_symmetry_1
_geom_bond_site_symmetry_2
Co1 O2 1_555 1_555
Co2 O7 1_555 1_555
O1 C6 1_555 1_555
O2 H14 1_555 1_555
O3 C6 1_555 1_555
O4 Co1 1_555 1_555
O5 C8 1_555 1_555
C1 C3 1_555 1_555
O6 C9 1_555 1_555
O7 C8 1_555 1_555
C2 C5 1_555 1_555
C3 H1 1_555 1_555
C4 C3 1_555 1_555
C5 C4 1_555 1_555
H2 C5 1_555 1_555
C6 C1 1_555 1_555
N1 Co2 1_555 1_555
N2 Co2 1_555 1_555
C7 C1 1_555 1_555
H3 C7 1_555 1_555
C8 C4 1_555 1_555
C9 O4 1_555 1_555
N3 Co1 1_555 1_555
C10 N1 1_555 1_555
H4 C10 1_555 1_555
C11 N3 1_555 1_555
H5 C11 1_555 1_555
C12 N1 1_555 1_555
H6 C12 1_555 1_555
C13 C10 1_555 1_555
H7 C13 1_555 1_555
C14 C13 1_555 1_555
H8 C14 1_555 1_555
C15 C11 1_555 1_555
H9 C15 1_555 1_555
C16 N3 1_555 1_555
H10 C16 1_555 1_555
C17 C12 1_555 1_555
H11 C17 1_555 1_555
C18 C15 1_555 1_555
H12 C18 1_555 1_555
C19 C16 1_555 1_555
H13 C19 1_555 1_555
H15 O2 1_555 1_555
C20 N2 1_555 1_555
H16 C20 1_555 1_555
C21 C20 1_555 1_555
H17 C21 1_555 1_555
C22 C21 1_555 1_555
H18 C22 1_555 1_555
C23 N2 1_555 1_555
H19 C23 1_555 1_555
C24 C22 1_555 1_555
H20 C24 1_555 1_555
O8 H21 1_555 1_555
C25 O8 1_555 1_555
H22 C25 1_555 1_555
H23 C25 1_555 1_555
H24 C25 1_555 1_555
Co2A O1 1_555 1_555
O1A Co2 1_555 1_555
O3A Co2 1_555 1_555
O4A C9A 1_555 1_555
O5A C8A 1_555 1_555
C1A C3A 1_555 1_555
O6A C9A 1_555 1_555
O7A Co2A 1_555 1_555
C2A C5A 1_555 1_555
C3A H1A 1_555 1_555
C4A C3A 1_555 1_555
C5A C4A 1_555 1_555
H2A C5A 1_555 1_555
C6A O1A 1_555 1_555
N1A Co2A 1_555 1_555
N2A Co2A 1_555 1_555
C7A C1A 1_555 1_555
H3A C7A 1_555 1_555
C8A O7A 1_555 1_555
C9A C2A 1_555 1_555
C10A N1A 1_555 1_555
H4A C10A 1_555 1_555
C12A N1A 1_555 1_555
H6A C12A 1_555 1_555
C13A C10A 1_555 1_555
H7A C13A 1_555 1_555
C14A C13A 1_555 1_555
H8A C14A 1_555 1_555
C17A C12A 1_555 1_555
H11A C17A 1_555 1_555
C20A N2A 1_555 1_555
H16A C20A 1_555 1_555
C21A C20A 1_555 1_555
H17A C21A 1_555 1_555
C22A C21A 1_555 1_555
H18A C22A 1_555 1_555
C23A N2A 1_555 1_555
H19A C23A 1_555 1_555
C24A C22A 1_555 1_555
H20A C24A 1_555 1_555
N3A Co1 1_555 1_555
C11A N3A 1_555 1_555
H5A C11A 1_555 1_555
C15A C11A 1_555 1_555
H9A C15A 1_555 1_555
C16A N3A 1_555 1_555
H10A C16A 1_555 1_555
C18A C15A 1_555 1_555
H12A C18A 1_555 1_555
C19A C16A 1_555 1_555
H13A C19A 1_555 1_555
O2A Co1 1_555 1_555
H14A O2A 1_555 1_555
H15A O2A 1_555 1_555
Co1_2 O4A 1_555 1_555
Co2_2 O5A 1_555 1_555
Co2A_2 O5 1_555 1_555
O4A_2 Co1 1_555 1_555
O5_2 Co2A 1_555 1_555
O5A_2 Co2 1_555 1_555
O3 Co2A 1_555 1_555
C2 C7 1_555 1_555
C2 C9 1_555 1_555
C14 C17 1_555 1_555
C18 C19 1_555 1_555
C23 C24 1_555 1_555
O3A C6A 1_555 1_555
C1A C6A 1_555 1_555
C2A C7A 1_555 1_555
C4A C8A 1_555 1_555
C14A C17A 1_555 1_555
C23A C24A 1_555 1_555
C18A C19A 1_555 1_555

#END
