
#######################################################################
#
#                 Cambridge Crystallographic Data Centre
#                                CCDC 
#
#######################################################################
#
# If this CIF has been generated from an entry in the Cambridge 
# Structural Database, then it will include bibliographic, chemical, 
# crystal, experimental, refinement or atomic coordinate data resulting 
# from the CCDC's data processing and validation procedures.
#
#######################################################################

data_TIPJIM
_symmetry_cell_setting           monoclinic
_symmetry_space_group_name_H-M   'C 2/c'
_symmetry_Int_Tables_number      15
_space_group_name_Hall           '-C 2yn'
loop_
_symmetry_equiv_pos_site_id
_symmetry_equiv_pos_as_xyz
1 x,y,z
2 1/2+x,1/2+y,z
3 -x,y,1/2-z
4 1/2-x,1/2+y,1/2-z
5 -x,-y,-z
6 1/2-x,1/2-y,-z
7 x,-y,1/2+z
8 1/2+x,1/2-y,1/2+z
_cell_length_a                   19.988(4)
_cell_length_b                   7.7808(16)
_cell_length_c                   13.890(3)
_cell_angle_alpha                90
_cell_angle_beta                 121.37(3)
_cell_angle_gamma                90
_cell_volume                     1844.44
loop_
_atom_site_label
_atom_site_type_symbol
_atom_site_fract_x
_atom_site_fract_y
_atom_site_fract_z
Eu1 Eu 0.268919(14) 0.21670(3) 0.23012(2)
O1 O 0.1956(3) 0.2464(7) 0.3256(4)
O2 O 0.4072(3) 0.2718(6) 0.3806(4)
O3 O 0.1701(3) 0.7353(6) 0.5267(4)
O4 O 0.1869(2) 0.5177(6) 0.6356(3)
O5 O 0.3341(3) 0.3883(6) 0.1511(4)
C1 C 0.1224(4) 0.3264(8) 0.4087(5)
H1 H 0.1552 0.2618 0.4774
H2 H 0.0789 0.2532 0.3578
C2 C 0.1699(3) 0.3691(7) 0.3547(5)
C3 C 0.1526(3) 0.5845(7) 0.5372(4)
C4 C 0.0902(3) 0.4845(8) 0.4371(5)
H3 H 0.0505 0.4478 0.4528
H4 H 0.0653 0.5597 0.3719
C5 C 0.3949(3) 0.4240(7) 0.3933(4)
C6 C 0.4607(4) 0.5435(9) 0.4689(6)
H5 H 0.4498 0.5937 0.5233
H6 H 0.4627 0.6362 0.4237
O7 O 0.3245(2) 0.4825(5) 0.3401(3)
O8 O 0.1800(3) 0.5222(6) 0.3423(4)
H7 H 0.324(4) 0.482(11) 0.136(6)
H8 H 0.332(6) 0.354(14) 0.085(8)
Eu1F Eu 0.268919(14) 0.78330(3) -0.26988(2)
Eu1F_2 Eu 0.268919(14) 0.78330(3) 0.73012(2)
Eu1E Eu 0.231081(14) 0.28330(3) 0.76988(2)
Eu1C Eu 0.231081(14) 0.71670(3) 0.26988(2)
Eu1D Eu 0.731081(14) 0.78330(3) 0.76988(2)
Eu1G Eu 0.768919(14) 0.28330(3) 0.73012(2)
Eu1E_2 Eu 0.231081(14) 0.28330(3) -0.23012(2)
O1F O 0.1956(3) 0.7536(7) -0.1744(4)
O2D O 0.5928(3) 0.7282(6) 0.6194(4)
O2F O 0.4072(3) 0.7282(6) -0.1194(4)
O3F O 0.1701(3) 0.2647(6) 0.0267(4)
O3_2 O 0.1701(3) 0.7353(6) -0.4733(4)
O4F O 0.1869(2) 0.4823(6) 0.1356(3)
O4E O 0.3131(2) -0.0177(6) 0.3644(3)
O4_2 O 0.1869(2) 0.5177(6) -0.3644(3)
O4C O 0.3131(2) 1.0177(6) -0.1356(3)
O5F O 0.3341(3) 0.6117(6) -0.3489(4)
C1F C 0.1224(4) 0.6736(8) -0.0913(5)
H1F H 0.1552 0.7382 -0.0226
H2F H 0.0789 0.7468 -0.1422
C2F C 0.1699(3) 0.6309(7) -0.1453(5)
C3F C 0.1526(3) 0.4155(7) 0.0372(4)
C4F C 0.0902(3) 0.5155(8) -0.0629(5)
H3F H 0.0505 0.5522 -0.0472
H4F H 0.0653 0.4403 -0.1281
C5D C 0.6051(3) 0.5760(7) 0.6067(4)
C6D C 0.5393(4) 0.4565(9) 0.5311(6)
H5D H 0.5502 0.4063 0.4767
H6D H 0.5373 0.3638 0.5763
O7D O 0.6755(2) 0.5175(5) 0.6599(3)
O7C O 0.1755(2) -0.0175(5) 0.1599(3)
O7F O 0.3245(2) 0.5175(5) -0.1599(3)
O7E O 0.1755(2) 1.0175(5) -0.3401(3)
O8F O 0.1800(3) 0.4778(6) -0.1577(4)
O8C O 0.3200(3) 0.0222(6) 0.1577(4)
O8E O 0.3200(3) 0.9778(6) -0.3423(4)
H7F H 0.324(4) 0.518(11) -0.364(6)
H8F H 0.332(6) 0.646(14) -0.415(8)
O6 O 0.5000 0.478(2) 0.2500
loop_
_geom_bond_atom_site_label_1
_geom_bond_atom_site_label_2
_geom_bond_site_symmetry_1
_geom_bond_site_symmetry_2
Eu1 O1 1_555 1_555
O1 C2 1_555 1_555
O2 Eu1 1_555 1_555
O3 C3 1_555 1_555
O4 C3 1_555 1_555
O5 Eu1 1_555 1_555
C1 H1 1_555 1_555
H2 C1 1_555 1_555
C2 C1 1_555 1_555
C3 C4 1_555 1_555
C4 C1 1_555 1_555
H3 C4 1_555 1_555
H4 C4 1_555 1_555
C5 O2 1_555 1_555
C6 C5 1_555 1_555
H5 C6 1_555 1_555
H6 C6 1_555 1_555
O7 Eu1 1_555 1_555
O8 C2 1_555 1_555
H7 O5 1_555 1_555
H8 O5 1_555 1_555
Eu1F O1F 1_555 1_555
Eu1F_2 O3 1_555 1_555
Eu1E O4 1_555 1_555
Eu1C O7 1_555 1_555
Eu1D O2D 1_555 1_555
Eu1G O7D 1_555 1_555
Eu1E_2 O4_2 1_555 1_555
O1F C2F 1_555 1_555
O2D C5D 1_555 1_555
O2F Eu1F 1_555 1_555
O3F Eu1 1_555 1_555
O3_2 Eu1F 1_555 1_555
O4F Eu1 1_555 1_555
O4E Eu1 1_555 1_555
O4_2 Eu1F 1_555 1_555
O4C Eu1F 1_555 1_555
O5F Eu1F 1_555 1_555
C1F H1F 1_555 1_555
H2F C1F 1_555 1_555
C2F C1F 1_555 1_555
C3F O3F 1_555 1_555
C4F C1F 1_555 1_555
H3F C4F 1_555 1_555
H4F C4F 1_555 1_555
C5D C6D 1_555 1_555
C6D C6 1_555 1_555
H5D C6D 1_555 1_555
H6D C6D 1_555 1_555
O7D Eu1D 1_555 1_555
O7C Eu1 1_555 1_555
O7F Eu1F 1_555 1_555
O7E Eu1F 1_555 1_555
O8F Eu1E_2 1_555 1_555
O8C Eu1 1_555 1_555
O8E Eu1F 1_555 1_555
H7F O5F 1_555 1_555
H8F O5F 1_555 1_555
O4 Eu1F_2 1_555 1_555
C5 O7 1_555 1_555
O8 Eu1C 1_555 1_555
Eu1C O4F 1_555 1_555
Eu1E_2 O7F 1_555 1_555
O4F C3F 1_555 1_555
C2F O8F 1_555 1_555
C3F C4F 1_555 1_555
C5D O7D 1_555 1_555

#END
