
#######################################################################
#
#                 Cambridge Crystallographic Data Centre
#                                CCDC 
#
#######################################################################
#
# If this CIF has been generated from an entry in the Cambridge 
# Structural Database, then it will include bibliographic, chemical, 
# crystal, experimental, refinement or atomic coordinate data resulting 
# from the CCDC's data processing and validation procedures.
#
#######################################################################

data_TIPJIM01
_symmetry_cell_setting           monoclinic
_symmetry_space_group_name_H-M   'C 2/c'
_symmetry_Int_Tables_number      15
_space_group_name_Hall           '-C 2yn'
loop_
_symmetry_equiv_pos_site_id
_symmetry_equiv_pos_as_xyz
1 x,y,z
2 -x,y,1/2-z
3 1/2+x,1/2+y,z
4 1/2-x,1/2+y,1/2-z
5 -x,-y,-z
6 x,-y,1/2+z
7 1/2-x,1/2-y,-z
8 1/2+x,1/2-y,1/2+z
_cell_length_a                   19.770(4)
_cell_length_b                   7.7544(12)
_cell_length_c                   13.932(3)
_cell_angle_alpha                90
_cell_angle_beta                 120.527(2)
_cell_angle_gamma                90
_cell_volume                     1839.79
loop_
_atom_site_label
_atom_site_type_symbol
_atom_site_fract_x
_atom_site_fract_y
_atom_site_fract_z
Eu1 Eu 0.269959(10) 0.21662(2) 0.730838(14)
O1 O 0.17327(15) 0.2647(3) 0.5281(2)
O2 O 0.18636(14) 0.4777(3) 0.6382(2)
O3 O 0.19704(15) 0.7609(3) 0.3290(2)
O4 O 0.17825(15) 0.4778(3) 0.3419(2)
O5 O 0.32435(14) 0.4844(3) 0.83906(19)
O6 O 0.40797(15) 0.2724(3) 0.8800(2)
C1 C 0.1533(2) 0.4132(5) 0.5398(3)
C2 C 0.0909(2) 0.5149(5) 0.4428(3)
H1 H 0.0507 0.5525 0.4608
H2 H 0.0647 0.4387 0.3768
C3 C 0.1230(2) 0.6732(5) 0.4139(3)
H3 H 0.0784 0.7488 0.3642
H4 H 0.1569 0.7383 0.4832
C4 C 0.1699(2) 0.6331(5) 0.3575(3)
C5 C 0.3952(2) 0.4249(5) 0.8929(3)
C6 C 0.4602(2) 0.5440(5) 0.9694(3)
H5 H 0.4480 0.5919 1.0248
H6 H 0.4628 0.6415 0.9255
O7 O 0.33615(15) 0.3897(3) 0.6530(2)
H7 H 0.336(3) 0.347(4) 0.599(2)
H8 H 0.331(3) 0.4942(15) 0.645(3)
Eu1E Eu 0.269959(10) 0.78338(2) 1.230838(14)
Eu1C Eu 0.230041(10) 0.71662(2) 0.769162(14)
Eu1E_2 Eu 0.269959(10) 0.78338(2) 0.230838(14)
Eu1F Eu 0.230041(10) 0.28338(2) 0.269162(14)
Eu1D Eu 0.730041(10) 0.78338(2) 1.269162(14)
Eu1G Eu 0.769959(10) 0.28338(2) 1.230838(14)
Eu1F_2 Eu 0.230041(10) 0.28338(2) 1.269162(14)
O1E O 0.17327(15) 0.7353(3) 1.0281(2)
O1E_2 O 0.17327(15) 0.7353(3) 0.0281(2)
O2E O 0.18636(14) 0.5223(3) 1.1382(2)
O2C O 0.31364(14) -0.0223(3) 0.8618(2)
O2E_2 O 0.18636(14) 0.5223(3) 0.1382(2)
O2F O 0.31364(14) 1.0223(3) 0.3618(2)
O3E O 0.19704(15) 0.2391(3) 0.8290(2)
O4E O 0.17825(15) 0.5222(3) 0.8419(2)
O4F O 0.32175(15) 0.0222(3) 0.6581(2)
O4C O 0.32175(15) 0.9778(3) 0.1581(2)
O5D O 0.67565(14) 0.5156(3) 1.16094(19)
O5C O 0.17565(14) -0.0156(3) 0.66094(19)
O5E O 0.32435(14) 0.5156(3) 0.33906(19)
O5F O 0.17565(14) 1.0156(3) 0.16094(19)
O6D O 0.59203(15) 0.7276(3) 1.1200(2)
O6E O 0.40797(15) 0.7276(3) 0.3800(2)
C1E C 0.1533(2) 0.5868(5) 1.0398(3)
C2E C 0.0909(2) 0.4851(5) 0.9428(3)
H1E H 0.0507 0.4475 0.9608
H2E H 0.0647 0.5613 0.8768
C3E C 0.1230(2) 0.3268(5) 0.9139(3)
H3E H 0.0784 0.2512 0.8642
H4E H 0.1569 0.2617 0.9832
C4E C 0.1699(2) 0.3669(5) 0.8575(3)
C5D C 0.6048(2) 0.5751(5) 1.1071(3)
C6D C 0.5398(2) 0.4560(5) 1.0306(3)
H5D H 0.5520 0.4081 0.9752
H6D H 0.5372 0.3585 1.0745
O7E O 0.33615(15) 0.6103(3) 0.1530(2)
H7E H 0.336(3) 0.653(4) 0.099(2)
H8E H 0.331(3) 0.5058(15) 0.145(3)
O8 O 0.0000 1.0052(8) 0.2500
loop_
_geom_bond_atom_site_label_1
_geom_bond_atom_site_label_2
_geom_bond_site_symmetry_1
_geom_bond_site_symmetry_2
Eu1 O1 1_555 1_555
O1 C1 1_555 1_555
O2 Eu1 1_555 1_555
O3 C4 1_555 1_555
O4 C4 1_555 1_555
O5 Eu1 1_555 1_555
O6 Eu1 1_555 1_555
C1 O2 1_555 1_555
C2 C1 1_555 1_555
H1 C2 1_555 1_555
H2 C2 1_555 1_555
C3 C2 1_555 1_555
H3 C3 1_555 1_555
H4 C3 1_555 1_555
C4 C3 1_555 1_555
C5 O5 1_555 1_555
C6 C5 1_555 1_555
H5 C6 1_555 1_555
H6 C6 1_555 1_555
O7 Eu1 1_555 1_555
H7 O7 1_555 1_555
H8 O7 1_555 1_555
Eu1E O1E 1_555 1_555
Eu1C O2 1_555 1_555
Eu1E_2 O3 1_555 1_555
Eu1F O4 1_555 1_555
Eu1D O5D 1_555 1_555
Eu1G O5D 1_555 1_555
Eu1F_2 O2E 1_555 1_555
O1E C1E 1_555 1_555
O1E_2 Eu1E_2 1_555 1_555
O2E Eu1E 1_555 1_555
O2C Eu1 1_555 1_555
O2E_2 Eu1E_2 1_555 1_555
O2F Eu1E_2 1_555 1_555
O3E Eu1 1_555 1_555
O4E Eu1C 1_555 1_555
O4F Eu1 1_555 1_555
O4C Eu1E_2 1_555 1_555
O5D C5D 1_555 1_555
O5C Eu1 1_555 1_555
O5E Eu1E_2 1_555 1_555
O5F Eu1E_2 1_555 1_555
O6D Eu1D 1_555 1_555
O6E Eu1E_2 1_555 1_555
C1E O2E 1_555 1_555
C2E C1E 1_555 1_555
H1E C2E 1_555 1_555
H2E C2E 1_555 1_555
C3E C2E 1_555 1_555
H3E C3E 1_555 1_555
H4E C3E 1_555 1_555
C4E O3E 1_555 1_555
C5D O6D 1_555 1_555
C6D C6 1_555 1_555
H5D C6D 1_555 1_555
H6D C6D 1_555 1_555
O7E Eu1E_2 1_555 1_555
H7E O7E 1_555 1_555
H8E O7E 1_555 1_555
O5 Eu1C 1_555 1_555
O6 C5 1_555 1_555
Eu1F O2E_2 1_555 1_555
Eu1F O5E 1_555 1_555
O4E C4E 1_555 1_555
C3E C4E 1_555 1_555
C5D C6D 1_555 1_555

#END
