
#######################################################################
#
#                 Cambridge Crystallographic Data Centre
#                                CCDC 
#
#######################################################################
#
# If this CIF has been generated from an entry in the Cambridge 
# Structural Database, then it will include bibliographic, chemical, 
# crystal, experimental, refinement or atomic coordinate data resulting 
# from the CCDC's data processing and validation procedures.
#
#######################################################################

data_TIPKEK
_symmetry_cell_setting           orthorhombic
_symmetry_space_group_name_H-M   'P b c n'
_symmetry_Int_Tables_number      60
_space_group_name_Hall           '-P 2n 2ab'
loop_
_symmetry_equiv_pos_site_id
_symmetry_equiv_pos_as_xyz
1 x,y,z
2 1/2-x,1/2-y,1/2+z
3 1/2+x,1/2-y,-z
4 -x,y,1/2-z
5 -x,-y,-z
6 1/2+x,1/2+y,1/2-z
7 1/2-x,1/2+y,z
8 x,-y,1/2+z
_cell_length_a                   31.1178(6)
_cell_length_b                   15.2685(3)
_cell_length_c                   15.3841(5)
_cell_angle_alpha                90
_cell_angle_beta                 90
_cell_angle_gamma                90
_cell_volume                     7309.33
loop_
_atom_site_label
_atom_site_type_symbol
_atom_site_fract_x
_atom_site_fract_y
_atom_site_fract_z
Tb1 Tb 0.801453(9) 0.809739(17) 0.35845(2)
Tb2 Tb 0.743096(9) 0.557289(17) 0.35939(2)
Cl1 Cl 0.48482(9) 0.9082(3) 0.6276(3)
Cl2 Cl 0.96903(14) 0.2387(3) 0.3729(3)
Cl3 Cl 0.49482(12) 0.5884(4) -0.1424(2)
O1 O 0.73192(17) 0.7754(4) 0.3839(4)
O2 O 0.70561(16) 0.6563(4) 0.4427(4)
O3 O 0.69707(15) 0.7623(3) 0.7285(3)
O4 O 0.74372(17) 0.8711(3) 0.7313(3)
O5 O 0.80331(13) 0.4793(3) 0.2864(3)
O6 O 0.74038(13) 0.4171(3) 0.2802(3)
O7 O 0.79284(16) 0.4620(3) -0.0187(3)
O8 O 0.80018(13) 0.3391(3) -0.0893(3)
O9 O 0.67538(14) 0.5475(3) 0.2930(3)
O10 O 0.65146(14) 0.4113(3) 0.3064(3)
O11 O 0.68440(18) 0.6605(3) 0.0090(3)
O12 O 0.71322(15) 0.5492(3) -0.0524(3)
O13 O 0.87412(14) 0.7514(3) 0.3659(3)
H1 H 0.8913 0.7850 0.3369
H2 H 0.8753 0.6992 0.3442
C1 C 0.7052(3) 0.7365(5) 0.4300(7)
C2 C 0.6697(3) 0.7942(6) 0.4617(6)
H3 H 0.6426 0.7736 0.4382
H4 H 0.6743 0.8533 0.4407
C3 C 0.6670(2) 0.7954(5) 0.5599(5)
H5 H 0.6686 0.7347 0.5803
C4 C 0.7054(2) 0.8464(5) 0.6007(5)
H6 H 0.7308 0.8349 0.5660
H7 H 0.6993 0.9085 0.5964
C5 C 0.7158(2) 0.8261(4) 0.6930(4)
C6 C 0.6231(2) 0.8317(6) 0.5852(5)
C7 C 0.6057(3) 0.9047(5) 0.5453(7)
H8 H 0.6230 0.9383 0.5089
C8 C 0.5634(3) 0.9293(7) 0.5576(8)
H9 H 0.5519 0.9771 0.5283
C9 C 0.5392(3) 0.8819(8) 0.6137(8)
C10 C 0.5563(3) 0.8125(9) 0.6574(8)
H10 H 0.5398 0.7830 0.6983
C11 C 0.5971(3) 0.7859(8) 0.6419(6)
H11 H 0.6077 0.7363 0.6697
C12 C 0.77836(18) 0.4260(4) 0.2508(4)
C13 C 0.7895(2) 0.3790(4) 0.1680(4)
H12 H 0.7698 0.3981 0.1230
H13 H 0.7848 0.3168 0.1768
C14 C 0.83519(19) 0.3920(4) 0.1353(4)
H14 H 0.8404 0.4553 0.1327
C15 C 0.8411(2) 0.3555(4) 0.0422(4)
H15 H 0.8699 0.3701 0.0227
H16 H 0.8392 0.2922 0.0448
C16 C 0.8097(2) 0.3876(4) -0.0248(4)
C17 C 0.86857(19) 0.3533(4) 0.1954(4)
C18 C 0.8632(3) 0.2721(4) 0.2354(5)
H17 H 0.8378 0.2415 0.2263
C19 C 0.8938(3) 0.2363(5) 0.2871(6)
H18 H 0.8898 0.1811 0.3114
C20 C 0.9303(3) 0.2821(7) 0.3028(7)
C21 C 0.9374(3) 0.3620(7) 0.2663(8)
H19 H 0.9627 0.3927 0.2777
C22 C 0.9063(2) 0.3970(5) 0.2114(6)
H20 H 0.9112 0.4509 0.1851
C23 C 0.65172(19) 0.4849(4) 0.2702(4)
C24 C 0.6203(2) 0.4969(5) 0.1972(5)
H21 H 0.5942 0.5221 0.2208
H22 H 0.6131 0.4396 0.1742
C25 C 0.6356(2) 0.5545(4) 0.1221(4)
H23 H 0.6402 0.6133 0.1460
C26 C 0.6785(2) 0.5251(4) 0.0835(5)
H24 H 0.7003 0.5262 0.1286
H25 H 0.6758 0.4651 0.0633
C27 C 0.69253(19) 0.5808(4) 0.0106(4)
C28 C 0.6006(2) 0.5628(5) 0.0539(5)
C29 C 0.5766(2) 0.6390(6) 0.0492(6)
H26 H 0.5824 0.6850 0.0872
C30 C 0.5442(3) 0.6471(9) -0.0116(7)
H27 H 0.5280 0.6981 -0.0148
C31 C 0.5364(3) 0.5788(11) -0.0673(7)
C32 C 0.5590(4) 0.5043(9) -0.0637(7)
H28 H 0.5529 0.4588 -0.1018
C33 C 0.5916(3) 0.4952(7) -0.0029(6)
H29 H 0.6073 0.4436 -0.0004
Tb1G Tb 0.801453(9) 0.190261(17) -0.14155(2)
Tb1A Tb 0.698547(9) 0.690261(17) -0.14155(2)
Tb1A_2 Tb 0.698547(9) 0.690261(17) 0.85845(2)
Tb1F Tb 0.698547(9) 0.309739(17) 0.35845(2)
Tb2G Tb 0.743096(9) 0.442711(17) -0.14061(2)
Tb2A Tb 0.756904(9) 0.942711(17) 0.85939(2)
O3A O 0.80293(15) 0.7377(3) 0.2285(3)
O4A O 0.75628(17) 0.6289(3) 0.2313(3)
O6F O 0.75962(13) 0.9171(3) 0.2802(3)
O7G O 0.79284(16) 0.5380(3) 0.4813(3)
O8G O 0.80018(13) 0.6609(3) 0.4107(3)
O10F O 0.84854(14) 0.9113(3) 0.3064(3)
O11A O 0.81560(18) 0.8395(3) 0.5090(3)
O12G O 0.71322(15) 0.4508(3) 0.4476(3)
O12A O 0.78678(15) 0.9508(3) 0.4476(3)
O14 O 0.6183(2) 0.0722(5) 0.3349(7)
H30 H 0.6392 0.0365 0.3371
H31 H 0.6071 0.0717 0.2845
loop_
_geom_bond_atom_site_label_1
_geom_bond_atom_site_label_2
_geom_bond_site_symmetry_1
_geom_bond_site_symmetry_2
Tb1 O1 1_555 1_555
Tb2 O2 1_555 1_555
Cl1 C9 1_555 1_555
Cl2 C20 1_555 1_555
Cl3 C31 1_555 1_555
O1 C1 1_555 1_555
O2 C1 1_555 1_555
O3 C5 1_555 1_555
O4 C5 1_555 1_555
O5 Tb2 1_555 1_555
O6 Tb2 1_555 1_555
O7 C16 1_555 1_555
O8 C16 1_555 1_555
O9 Tb2 1_555 1_555
O10 C23 1_555 1_555
O11 C27 1_555 1_555
O12 C27 1_555 1_555
O13 Tb1 1_555 1_555
H1 O13 1_555 1_555
H2 O13 1_555 1_555
C1 C2 1_555 1_555
C2 H3 1_555 1_555
H4 C2 1_555 1_555
C3 C2 1_555 1_555
H5 C3 1_555 1_555
C4 C3 1_555 1_555
H6 C4 1_555 1_555
H7 C4 1_555 1_555
C5 C4 1_555 1_555
C6 C3 1_555 1_555
C7 C6 1_555 1_555
H8 C7 1_555 1_555
C8 C7 1_555 1_555
H9 C8 1_555 1_555
C9 C8 1_555 1_555
C10 C9 1_555 1_555
H10 C10 1_555 1_555
C11 C6 1_555 1_555
H11 C11 1_555 1_555
C12 O5 1_555 1_555
C13 C12 1_555 1_555
H12 C13 1_555 1_555
H13 C13 1_555 1_555
C14 C13 1_555 1_555
H14 C14 1_555 1_555
C15 C14 1_555 1_555
H15 C15 1_555 1_555
H16 C15 1_555 1_555
C16 C15 1_555 1_555
C17 C14 1_555 1_555
C18 C17 1_555 1_555
H17 C18 1_555 1_555
C19 C18 1_555 1_555
H18 C19 1_555 1_555
C20 C19 1_555 1_555
C21 C20 1_555 1_555
H19 C21 1_555 1_555
C22 C17 1_555 1_555
H20 C22 1_555 1_555
C23 O9 1_555 1_555
C24 C23 1_555 1_555
H21 C24 1_555 1_555
H22 C24 1_555 1_555
C25 C24 1_555 1_555
H23 C25 1_555 1_555
C26 C25 1_555 1_555
H24 C26 1_555 1_555
H25 C26 1_555 1_555
C27 C26 1_555 1_555
C28 C25 1_555 1_555
C29 C28 1_555 1_555
H26 C29 1_555 1_555
C30 C29 1_555 1_555
H27 C30 1_555 1_555
C31 C30 1_555 1_555
C32 C31 1_555 1_555
H28 C32 1_555 1_555
C33 C28 1_555 1_555
H29 C33 1_555 1_555
O14 H30 1_555 1_555
H31 O14 1_555 1_555
Tb1G O8 1_555 1_555
Tb1A O11 1_555 1_555
Tb1A_2 O3 1_555 1_555
Tb1F O6 1_555 1_555
Tb2G O7 1_555 1_555
Tb2A O4 1_555 1_555
O3A Tb1 1_555 1_555
O4A Tb2 1_555 1_555
O6F Tb1 1_555 1_555
O7G Tb2 1_555 1_555
O8G Tb1 1_555 1_555
O10F Tb1 1_555 1_555
O11A Tb1 1_555 1_555
O12G Tb2 1_555 1_555
O12A Tb1 1_555 1_555
Tb2 O8G 1_555 1_555
O6 C12 1_555 1_555
O8 Tb2G 1_555 1_555
O10 Tb1F 1_555 1_555
O12 Tb1A 1_555 1_555
O12 Tb2G 1_555 1_555
C10 C11 1_555 1_555
C21 C22 1_555 1_555
C32 C33 1_555 1_555
Tb1F O12G 1_555 1_555

#END
