
#######################################################################
#
#                 Cambridge Crystallographic Data Centre
#                                CCDC 
#
#######################################################################
#
# If this CIF has been generated from an entry in the Cambridge 
# Structural Database, then it will include bibliographic, chemical, 
# crystal, experimental, refinement or atomic coordinate data resulting 
# from the CCDC's data processing and validation procedures.
#
#######################################################################

data_TIPKIO
_symmetry_cell_setting           orthorhombic
_symmetry_space_group_name_H-M   'P b c n'
_symmetry_Int_Tables_number      60
_space_group_name_Hall           '-P 2n 2ab'
loop_
_symmetry_equiv_pos_site_id
_symmetry_equiv_pos_as_xyz
1 x,y,z
2 1/2-x,1/2-y,1/2+z
3 1/2+x,1/2-y,-z
4 -x,y,1/2-z
5 -x,-y,-z
6 1/2+x,1/2+y,1/2-z
7 1/2-x,1/2+y,z
8 x,-y,1/2+z
_cell_length_a                   31.0967(5)
_cell_length_b                   15.26402(18)
_cell_length_c                   15.52891(16)
_cell_angle_alpha                90
_cell_angle_beta                 90
_cell_angle_gamma                90
_cell_volume                     7370.96
loop_
_atom_site_label
_atom_site_type_symbol
_atom_site_fract_x
_atom_site_fract_y
_atom_site_fract_z
Sm1 Sm 0.801861(7) 0.808572(14) 0.360043(13)
Sm2 Sm 0.744241(8) 0.558721(14) 0.362001(13)
Cl1 Cl 0.48461(7) 0.9097(2) 0.62642(19)
Cl2 Cl 0.97179(10) 0.2406(2) 0.3731(2)
Cl3 Cl 0.49691(9) 0.5808(3) -0.14331(14)
O1 O 0.73088(12) 0.7530(3) 0.3727(2)
O2 O 0.70449(12) 0.6521(3) 0.4552(2)
O3 O 0.69526(12) 0.7649(2) 0.7294(2)
O4 O 0.73986(13) 0.8773(3) 0.7296(2)
O5 O 0.80514(11) 0.4745(2) 0.2917(2)
O6 O 0.74177(10) 0.4152(2) 0.28210(19)
O7 O 0.79502(12) 0.4637(2) -0.0145(2)
O8 O 0.80257(10) 0.34083(19) -0.08376(18)
O9 O 0.67522(11) 0.5503(2) 0.2933(2)
O10 O 0.65110(11) 0.4139(2) 0.3089(2)
O11 O 0.68642(13) 0.6646(2) 0.0139(2)
O12 O 0.71452(11) 0.5525(2) -0.04979(19)
O13 O 0.87632(11) 0.7519(2) 0.3675(2)
H1 H 0.8926 0.7810 0.3329
H2 H 0.8768 0.6976 0.3527
C1 C 0.70446(19) 0.7299(4) 0.4302(4)
C2 C 0.6716(2) 0.7923(4) 0.4609(3)
H3 H 0.6442 0.7773 0.4350
H4 H 0.6793 0.8507 0.4415
C3 C 0.66646(16) 0.7934(3) 0.5593(3)
H5 H 0.6679 0.7327 0.5796
C4 C 0.70467(16) 0.8436(3) 0.5992(3)
H6 H 0.7304 0.8288 0.5669
H7 H 0.6996 0.9058 0.5914
C5 C 0.71362(16) 0.8274(3) 0.6933(3)
C6 C 0.62251(17) 0.8293(3) 0.5831(3)
C7 C 0.6057(2) 0.9025(4) 0.5438(4)
H8 H 0.6231 0.9353 0.5072
C8 C 0.5636(2) 0.9286(5) 0.5572(5)
H9 H 0.5526 0.9778 0.5294
C9 C 0.5385(2) 0.8817(6) 0.6114(5)
C10 C 0.5548(2) 0.8118(6) 0.6546(5)
H10 H 0.5379 0.7820 0.6944
C11 C 0.5968(2) 0.7847(5) 0.6396(4)
H11 H 0.6075 0.7358 0.6681
C12 C 0.78006(15) 0.4240(3) 0.2537(3)
C13 C 0.79144(15) 0.3786(3) 0.1711(3)
H12 H 0.7715 0.3975 0.1269
H13 H 0.7875 0.3161 0.1790
C14 C 0.83703(14) 0.3945(3) 0.1390(3)
H14 H 0.8417 0.4580 0.1367
C15 C 0.84321(15) 0.3579(3) 0.0474(3)
H15 H 0.8721 0.3723 0.0284
H16 H 0.8413 0.2945 0.0502
C16 C 0.81204(15) 0.3897(3) -0.0194(3)
C17 C 0.87072(15) 0.3554(3) 0.1984(3)
C18 C 0.86560(18) 0.2735(3) 0.2355(3)
H17 H 0.8405 0.2422 0.2249
C19 C 0.8966(2) 0.2373(4) 0.2875(4)
H18 H 0.8930 0.1815 0.3104
C20 C 0.9323(2) 0.2839(5) 0.3048(4)
C21 C 0.9387(2) 0.3652(5) 0.2708(5)
H19 H 0.9633 0.3969 0.2845
C22 C 0.90801(19) 0.3999(4) 0.2156(4)
H20 H 0.9128 0.4541 0.1899
C23 C 0.65190(15) 0.4875(3) 0.2723(3)
C24 C 0.62156(17) 0.4969(4) 0.1967(3)
H21 H 0.5943 0.5191 0.2180
H22 H 0.6163 0.4390 0.1731
C25 C 0.63671(15) 0.5566(3) 0.1235(3)
H23 H 0.6408 0.6153 0.1476
C26 C 0.67990(16) 0.5271(3) 0.0865(3)
H24 H 0.7014 0.5283 0.1317
H25 H 0.6774 0.4672 0.0663
C27 C 0.69430(15) 0.5841(3) 0.0137(3)
C28 C 0.60179(17) 0.5630(3) 0.0551(3)
C29 C 0.57657(19) 0.6373(4) 0.0496(3)
H26 H 0.5814 0.6838 0.0871
C30 C 0.5442(2) 0.6430(6) -0.0114(4)
H27 H 0.5273 0.6930 -0.0152
C31 C 0.5375(2) 0.5744(7) -0.0658(4)
C32 C 0.5620(3) 0.5014(6) -0.0630(4)
H28 H 0.5572 0.4561 -0.1019
C33 C 0.5945(2) 0.4943(5) -0.0019(4)
H29 H 0.6112 0.4439 0.0009
Sm1G Sm 0.801861(7) 0.191428(14) -0.139957(13)
Sm1A Sm 0.698139(7) 0.691428(14) -0.139957(13)
Sm1A_2 Sm 0.698139(7) 0.691428(14) 0.860043(13)
Sm1F Sm 0.698139(7) 0.308572(14) 0.360043(13)
Sm2G Sm 0.744241(8) 0.441279(14) -0.137999(13)
Sm2A Sm 0.755759(8) 0.941279(14) 0.862001(13)
O3A O 0.80474(12) 0.7351(2) 0.2294(2)
O4A O 0.76014(13) 0.6227(3) 0.2296(2)
O6F O 0.75823(10) 0.9152(2) 0.28210(19)
O7G O 0.79502(12) 0.5363(2) 0.4855(2)
O8G O 0.80257(10) 0.65917(19) 0.41624(18)
O10F O 0.84890(11) 0.9139(2) 0.3089(2)
O11A O 0.81358(13) 0.8354(2) 0.5139(2)
O12G O 0.71452(11) 0.4475(2) 0.45021(19)
O12A O 0.78548(11) 0.9475(2) 0.45021(19)
O14 O 0.61737(18) 0.0718(4) 0.3372(5)
H30 H 0.6369 0.0544 0.3029
H31 H 0.5964 0.0359 0.3369
loop_
_geom_bond_atom_site_label_1
_geom_bond_atom_site_label_2
_geom_bond_site_symmetry_1
_geom_bond_site_symmetry_2
Sm1 O1 1_555 1_555
Sm2 O2 1_555 1_555
Cl1 C9 1_555 1_555
Cl2 C20 1_555 1_555
Cl3 C31 1_555 1_555
O1 C1 1_555 1_555
O2 C1 1_555 1_555
O3 C5 1_555 1_555
O4 C5 1_555 1_555
O5 Sm2 1_555 1_555
O6 Sm2 1_555 1_555
O7 C16 1_555 1_555
O8 C16 1_555 1_555
O9 Sm2 1_555 1_555
O10 C23 1_555 1_555
O11 C27 1_555 1_555
O12 C27 1_555 1_555
O13 Sm1 1_555 1_555
H1 O13 1_555 1_555
H2 O13 1_555 1_555
C1 C2 1_555 1_555
C2 H3 1_555 1_555
H4 C2 1_555 1_555
C3 C2 1_555 1_555
H5 C3 1_555 1_555
C4 C3 1_555 1_555
H6 C4 1_555 1_555
H7 C4 1_555 1_555
C5 C4 1_555 1_555
C6 C3 1_555 1_555
C7 C6 1_555 1_555
H8 C7 1_555 1_555
C8 C7 1_555 1_555
H9 C8 1_555 1_555
C9 C8 1_555 1_555
C10 C9 1_555 1_555
H10 C10 1_555 1_555
C11 C6 1_555 1_555
H11 C11 1_555 1_555
C12 O5 1_555 1_555
C13 C12 1_555 1_555
H12 C13 1_555 1_555
H13 C13 1_555 1_555
C14 C13 1_555 1_555
H14 C14 1_555 1_555
C15 C14 1_555 1_555
H15 C15 1_555 1_555
H16 C15 1_555 1_555
C16 C15 1_555 1_555
C17 C14 1_555 1_555
C18 C17 1_555 1_555
H17 C18 1_555 1_555
C19 C18 1_555 1_555
H18 C19 1_555 1_555
C20 C19 1_555 1_555
C21 C20 1_555 1_555
H19 C21 1_555 1_555
C22 C17 1_555 1_555
H20 C22 1_555 1_555
C23 O9 1_555 1_555
C24 C23 1_555 1_555
H21 C24 1_555 1_555
H22 C24 1_555 1_555
C25 C24 1_555 1_555
H23 C25 1_555 1_555
C26 C25 1_555 1_555
H24 C26 1_555 1_555
H25 C26 1_555 1_555
C27 C26 1_555 1_555
C28 C25 1_555 1_555
C29 C28 1_555 1_555
H26 C29 1_555 1_555
C30 C29 1_555 1_555
H27 C30 1_555 1_555
C31 C30 1_555 1_555
C32 C31 1_555 1_555
H28 C32 1_555 1_555
C33 C28 1_555 1_555
H29 C33 1_555 1_555
O14 H30 1_555 1_555
H31 O14 1_555 1_555
Sm1G O8 1_555 1_555
Sm1A O11 1_555 1_555
Sm1A_2 O3 1_555 1_555
Sm1F O6 1_555 1_555
Sm2G O7 1_555 1_555
Sm2A O4 1_555 1_555
O3A Sm1 1_555 1_555
O4A Sm2 1_555 1_555
O6F Sm1 1_555 1_555
O7G Sm2 1_555 1_555
O8G Sm1 1_555 1_555
O10F Sm1 1_555 1_555
O11A Sm1 1_555 1_555
O12G Sm2 1_555 1_555
O12A Sm1 1_555 1_555
Sm2 O8G 1_555 1_555
O6 C12 1_555 1_555
O8 Sm2G 1_555 1_555
O10 Sm1F 1_555 1_555
O12 Sm1A 1_555 1_555
O12 Sm2G 1_555 1_555
C10 C11 1_555 1_555
C21 C22 1_555 1_555
C32 C33 1_555 1_555
Sm1F O12G 1_555 1_555

#END
