
#######################################################################
#
#                 Cambridge Crystallographic Data Centre
#                                CCDC 
#
#######################################################################
#
# If this CIF has been generated from an entry in the Cambridge 
# Structural Database, then it will include bibliographic, chemical, 
# crystal, experimental, refinement or atomic coordinate data resulting 
# from the CCDC's data processing and validation procedures.
#
#######################################################################

data_TIPNIQ
_symmetry_cell_setting           monoclinic
_symmetry_space_group_name_H-M   'C 2/m'
_symmetry_Int_Tables_number      12
_space_group_name_Hall           '-C 2y'
loop_
_symmetry_equiv_pos_site_id
_symmetry_equiv_pos_as_xyz
1 x,y,z
2 1/2+x,1/2+y,z
3 -x,y,-z
4 1/2-x,1/2+y,-z
5 -x,-y,-z
6 1/2-x,1/2-y,-z
7 x,-y,z
8 1/2+x,1/2-y,z
_cell_length_a                   13.9203(11)
_cell_length_b                   11.0897(9)
_cell_length_c                   9.1573(7)
_cell_angle_alpha                90
_cell_angle_beta                 125.3100(10)
_cell_angle_gamma                90
_cell_volume                     1153.57
loop_
_atom_site_label
_atom_site_type_symbol
_atom_site_fract_x
_atom_site_fract_y
_atom_site_fract_z
Cu1 Cu 0.0000 0.0000 0.0000
Cu2 Cu 0.50198(4) 0.0000 0.27950(6)
Cu3 Cu 0.20308(5) 0.0000 -0.13658(8)
N1 N 0.1769(3) 0.0000 0.1756(5)
N2 N 0.2540(3) 0.0000 0.1336(4)
N3 N 0.3595(3) 0.0000 0.2826(4)
N4 N 0.3545(3) 0.0000 0.4245(5)
N5 N -0.0142(2) -0.3203(2) 0.2466(4)
N6 N -0.0963(2) -0.2518(3) 0.2412(4)
N7 N -0.0897(2) -0.1431(2) 0.1970(4)
N8 N -0.0069(3) -0.1375(3) 0.1646(7)
N9 N 0.6182(3) 0.0000 0.2228(5)
C1 C 0.2411(4) 0.0000 0.3544(6)
H1 H 0.2097 0.0000 0.4206
C2 C 0.0380(4) -0.2475(3) 0.2011(9)
H2 H 0.0998 -0.2705 0.1949
C3 C 0.6854(3) 0.0000 0.1873(5)
Cu2D Cu -0.50198(4) 0.0000 -0.27950(6)
Cu2D_2 Cu 0.49802(4) 0.0000 0.72050(6)
Cu2A Cu 0.00198(4) -0.5000 0.27950(6)
Cu2_2 Cu -0.49802(4) 0.0000 -0.72050(6)
Cu2A_2 Cu 0.00198(4) 0.5000 0.27950(6)
Cu2E Cu -0.00198(4) 0.5000 -0.27950(6)
Cu2E_2 Cu -0.00198(4) -0.5000 -0.27950(6)
Cu2D_3 Cu 0.49802(4) 0.0000 -0.27950(6)
Cu3D Cu -0.20308(5) 0.0000 0.13658(8)
Cu3D_2 Cu 0.79692(5) 0.0000 0.13658(8)
N1D N -0.1769(3) 0.0000 -0.1756(5)
N2D N -0.2540(3) 0.0000 -0.1336(4)
N3D N -0.3595(3) 0.0000 -0.2826(4)
N4D N -0.3545(3) 0.0000 -0.4245(5)
N4D_2 N 0.6455(3) 0.0000 0.5755(5)
N4_2 N -0.6455(3) 0.0000 -0.5755(5)
N5F N -0.0142(2) 0.3203(2) 0.2466(4)
N5D N 0.0142(2) 0.3203(2) -0.2466(4)
N5B N 0.0142(2) -0.3203(2) -0.2466(4)
N5A N 0.4858(2) 0.1797(2) 0.2466(4)
N5G N 0.4858(2) -0.1797(2) 0.2466(4)
N5E N -0.4858(2) -0.1797(2) -0.2466(4)
N5C N -0.4858(2) 0.1797(2) -0.2466(4)
N6F N -0.0963(2) 0.2518(3) 0.2412(4)
N6D N 0.0963(2) 0.2518(3) -0.2412(4)
N6B N 0.0963(2) -0.2518(3) -0.2412(4)
N7F N -0.0897(2) 0.1431(2) 0.1970(4)
N7D N 0.0897(2) 0.1431(2) -0.1970(4)
N7B N 0.0897(2) -0.1431(2) -0.1970(4)
N8F N -0.0069(3) 0.1375(3) 0.1646(7)
N8D N 0.0069(3) 0.1375(3) -0.1646(7)
N8B N 0.0069(3) -0.1375(3) -0.1646(7)
N9D N 0.3818(3) 0.0000 -0.2228(5)
N9D_2 N -0.6182(3) 0.0000 -0.2228(5)
C1D C -0.2411(4) 0.0000 -0.3544(6)
H1D H -0.2097 0.0000 -0.4206
C2F C 0.0380(4) 0.2475(3) 0.2011(9)
C2D C -0.0380(4) 0.2475(3) -0.2011(9)
C2B C -0.0380(4) -0.2475(3) -0.2011(9)
H2F H 0.0998 0.2705 0.1949
H2D H -0.0998 0.2705 -0.1949
H2B H -0.0998 -0.2705 -0.1949
C3D C 0.3146(3) 0.0000 -0.1873(5)
C3_2 C -0.3146(3) 0.0000 0.1873(5)
loop_
_geom_bond_atom_site_label_1
_geom_bond_atom_site_label_2
_geom_bond_site_symmetry_1
_geom_bond_site_symmetry_2
Cu1 N1 1_555 1_555
Cu2 N3 1_555 1_555
Cu3 N2 1_555 1_555
N1 N2 1_555 1_555
N2 N3 1_555 1_555
N3 N4 1_555 1_555
N4 C1 1_555 1_555
N5 N6 1_555 1_555
N6 N7 1_555 1_555
N7 N8 1_555 1_555
N8 Cu1 1_555 1_555
N9 Cu2 1_555 1_555
C1 N1 1_555 1_555
H1 C1 1_555 1_555
C2 N5 1_555 1_555
H2 C2 1_555 1_555
C3 N9 1_555 1_555
Cu2D N3D 1_555 1_555
Cu2D_2 N4 1_555 1_555
Cu2A N5 1_555 1_555
Cu2_2 N4D 1_555 1_555
Cu2A_2 N5F 1_555 1_555
Cu2E N5D 1_555 1_555
Cu2E_2 N5B 1_555 1_555
Cu2D_3 N9D 1_555 1_555
Cu3D N7 1_555 1_555
Cu3D_2 C3 1_555 1_555
N1D Cu1 1_555 1_555
N2D Cu3D 1_555 1_555
N3D N2D 1_555 1_555
N4D N3D 1_555 1_555
N4D_2 Cu2 1_555 1_555
N4_2 Cu2D 1_555 1_555
N5F N6F 1_555 1_555
N5D N6D 1_555 1_555
N5B N6B 1_555 1_555
N5A Cu2 1_555 1_555
N5G Cu2 1_555 1_555
N5E Cu2D 1_555 1_555
N5C Cu2D 1_555 1_555
N6F N7F 1_555 1_555
N6D N7D 1_555 1_555
N6B N7B 1_555 1_555
N7F Cu3D 1_555 1_555
N7D Cu3 1_555 1_555
N7B Cu3 1_555 1_555
N8F Cu1 1_555 1_555
N8D Cu1 1_555 1_555
N8B Cu1 1_555 1_555
N9D C3D 1_555 1_555
N9D_2 Cu2D 1_555 1_555
C1D N1D 1_555 1_555
H1D C1D 1_555 1_555
C2F N5F 1_555 1_555
C2D N5D 1_555 1_555
C2B N5B 1_555 1_555
H2F C2F 1_555 1_555
H2D C2D 1_555 1_555
H2B C2B 1_555 1_555
C3D Cu3 1_555 1_555
C3_2 Cu3D 1_555 1_555
N8 C2 1_555 1_555
N1D N2D 1_555 1_555
N4D C1D 1_555 1_555
N7F N8F 1_555 1_555
N7D N8D 1_555 1_555
N7B N8B 1_555 1_555
N8F C2F 1_555 1_555
N8D C2D 1_555 1_555
N8B C2B 1_555 1_555

#END
