
#######################################################################
#
#                 Cambridge Crystallographic Data Centre
#                                CCDC 
#
#######################################################################
#
# If this CIF has been generated from an entry in the Cambridge 
# Structural Database, then it will include bibliographic, chemical, 
# crystal, experimental, refinement or atomic coordinate data resulting 
# from the CCDC's data processing and validation procedures.
#
#######################################################################

data_TIPNUC
_symmetry_cell_setting           orthorhombic
_symmetry_space_group_name_H-M   'P b c n'
_symmetry_Int_Tables_number      60
_space_group_name_Hall           '-P 2n 2ab'
loop_
_symmetry_equiv_pos_site_id
_symmetry_equiv_pos_as_xyz
1 x,y,z
2 1/2-x,1/2-y,1/2+z
3 -x,y,1/2-z
4 1/2+x,1/2-y,-z
5 -x,-y,-z
6 1/2+x,1/2+y,1/2-z
7 x,-y,1/2+z
8 1/2-x,1/2+y,z
_cell_length_a                   10.522(3)
_cell_length_b                   10.397(3)
_cell_length_c                   33.441(7)
_cell_angle_alpha                90
_cell_angle_beta                 90
_cell_angle_gamma                90
_cell_volume                     3658.35
loop_
_atom_site_label
_atom_site_type_symbol
_atom_site_fract_x
_atom_site_fract_y
_atom_site_fract_z
O9 O 0.2113(4) 0.1972(4) 0.37942(13)
H17 H 0.2516 0.2514 0.3654
H18 H 0.2556 0.1294 0.3826
N3 N 0.5000 0.5000 0.5000
O12 O 0.5312(11) 0.4053(10) 0.4820(3)
O13 O 0.4733(14) 0.5065(10) 0.5340(3)
O14 O 0.4894(12) 0.6095(9) 0.4808(3)
O12D O 0.4688(11) 0.5947(10) 0.5180(3)
O13D O 0.5267(14) 0.4935(10) 0.4660(3)
O14D O 0.5106(12) 0.3905(9) 0.5192(3)
N4 N 0.0000 0.5325(7) 0.7500
O15 O 0.0014(12) 0.6430(8) 0.7653(2)
O16 O 0.0085(17) 0.5146(11) 0.7157(3)
O17 O -0.0154(15) 0.4420(11) 0.7738(3)
O15B O -0.0014(12) 0.6430(8) 0.7347(2)
O16B O -0.0085(17) 0.5146(11) 0.7843(3)
O17B O 0.0154(15) 0.4420(11) 0.7262(3)
Tb1 Tb 0.26669(2) 0.25902(2) 0.625225(6)
O1 O 0.4573(4) 0.3551(4) 0.59885(11)
O2 O 0.4598(4) 0.1677(4) 0.65247(11)
O3 O 0.0689(3) 0.1727(3) 0.59745(10)
O4 O 0.0742(4) 0.3554(4) 0.65133(10)
O5 O 0.3190(3) 0.3911(3) 0.67988(9)
O6 O 0.2966(4) 0.6006(3) 0.66868(10)
O7 O 0.3233(4) 0.1128(3) 0.57640(10)
O8 O 0.2874(3) -0.0977(3) 0.57475(10)
O10 O 0.3703(4) 0.6059(4) 0.85339(10)
N1 N 0.3639(4) 0.5826(4) 0.81496(12)
C1 C 0.3503(6) 0.6799(5) 0.7890(2)
H1 H 0.3505 0.7641 0.7983
C2 C 0.3363(5) 0.6570(4) 0.74891(15)
H2 H 0.3268 0.7257 0.73134
C3 C 0.3362(4) 0.5329(4) 0.73447(13)
C4 C 0.3554(5) 0.4350(5) 0.76156(14)
H3 H 0.3592 0.3504 0.75259
C5 C 0.3689(5) 0.4605(5) 0.80133(15)
H4 H 0.3816 0.3932 0.81921
C6 C 0.3159(4) 0.5067(4) 0.69062(13)
O11 O 0.3977(3) 0.0086(3) 0.39469(10)
N2 N 0.3789(4) 0.0078(4) 0.43346(12)
C7 C 0.3436(5) -0.1019(5) 0.45158(14)
H5 H 0.3338 -0.1769 0.43674
C8 C 0.3219(5) -0.1030(4) 0.49206(14)
H6 H 0.2980 -0.1794 0.50443
C9 C 0.3348(4) 0.0074(4) 0.51482(14)
C10 C 0.3731(4) 0.1182(4) 0.49512(14)
H7 H 0.3843 0.1941 0.50938
C11 C 0.3946(4) 0.1160(4) 0.45447(13)
H8 H 0.4203 0.1908 0.44150
C12 C 0.3135(4) 0.0073(4) 0.55897(14)
H9 H 0.4607 0.3838 0.5751
H10 H 0.5276 0.3266 0.6070
H11 H 0.4730 0.1464 0.6765
H12 H 0.5181 0.1264 0.6413
H13 H 0.0137 0.1374 0.6119
H14 H 0.0625 0.1345 0.5753
H15 H 0.0235 0.3782 0.6326
H16 H 0.0681 0.3991 0.6726
Tb1G Tb 0.23331(2) -0.24098(2) 0.625225(6)
Tb1G_2 Tb 0.23331(2) 0.75902(2) 0.625225(6)
O1G O 0.0427(4) -0.1449(4) 0.59885(11)
O2G O 0.0402(4) -0.3323(4) 0.65247(11)
O3G O 0.4311(3) -0.3273(3) 0.59745(10)
O4G O 0.4258(4) -0.1446(4) 0.65133(10)
O5G O 0.1810(3) -0.1089(3) 0.67988(9)
O6G O 0.2034(4) 0.1006(3) 0.66868(10)
O6_2 O 0.2966(4) -0.3994(3) 0.66868(10)
O7G O 0.1767(4) 0.6128(3) 0.57640(10)
O7G_2 O 0.1767(4) -0.3872(3) 0.57640(10)
O8G O 0.2126(3) 0.4023(3) 0.57475(10)
O10G O 0.1297(4) 0.1059(4) 0.85339(10)
N1G N 0.1361(4) 0.0826(4) 0.81496(12)
C1G C 0.1497(6) 0.1799(5) 0.7890(2)
H1G H 0.1495 0.2641 0.7983
C2G C 0.1637(5) 0.1570(4) 0.74891(15)
H2G H 0.1732 0.2257 0.73134
C3G C 0.1638(4) 0.0329(4) 0.73447(13)
C4G C 0.1446(5) -0.0650(5) 0.76156(14)
H3G H 0.1408 -0.1496 0.75259
C5G C 0.1311(5) -0.0395(5) 0.80133(15)
H4G H 0.1184 -0.1068 0.81921
C6G C 0.1841(4) 0.0067(4) 0.69062(13)
O11G O 0.1023(3) 0.5086(3) 0.39469(10)
N2G N 0.1211(4) 0.5078(4) 0.43346(12)
C7G C 0.1564(5) 0.3981(5) 0.45158(14)
H5G H 0.1662 0.3231 0.43674
C8G C 0.1781(5) 0.3970(4) 0.49206(14)
H6G H 0.2020 0.3206 0.50443
C9G C 0.1652(4) 0.5074(4) 0.51482(14)
C10G C 0.1269(4) 0.6182(4) 0.49512(14)
H7G H 0.1157 0.6941 0.50938
C11G C 0.1054(4) 0.6160(4) 0.45447(13)
H8G H 0.0797 0.6908 0.44150
C12G C 0.1865(4) 0.5073(4) 0.55897(14)
H9G H 0.0393 -0.1162 0.5751
H10G H -0.0276 -0.1734 0.6070
H11G H 0.0270 -0.3536 0.6765
H12G H -0.0181 -0.3736 0.6413
H13G H 0.4863 -0.3626 0.6119
H14G H 0.4375 -0.3655 0.5753
H15G H 0.4765 -0.1218 0.6326
H16G H 0.4319 -0.1009 0.6726
loop_
_geom_bond_atom_site_label_1
_geom_bond_atom_site_label_2
_geom_bond_site_symmetry_1
_geom_bond_site_symmetry_2
Tb1 O1 1_555 1_555
O1 H9 1_555 1_555
O2 Tb1 1_555 1_555
O3 Tb1 1_555 1_555
O4 Tb1 1_555 1_555
O5 Tb1 1_555 1_555
O6 C6 1_555 1_555
O7 Tb1 1_555 1_555
O8 C12 1_555 1_555
O9 H17 1_555 1_555
O10 N1 1_555 1_555
N1 C1 1_555 1_555
C1 H1 1_555 1_555
C2 C1 1_555 1_555
H2 C2 1_555 1_555
C3 C2 1_555 1_555
C4 C3 1_555 1_555
H3 C4 1_555 1_555
C5 N1 1_555 1_555
H4 C5 1_555 1_555
C6 O5 1_555 1_555
O11 N2 1_555 1_555
N2 C7 1_555 1_555
C7 H5 1_555 1_555
C8 C7 1_555 1_555
H6 C8 1_555 1_555
C9 C8 1_555 1_555
C10 C9 1_555 1_555
H7 C10 1_555 1_555
C11 N2 1_555 1_555
H8 C11 1_555 1_555
C12 O7 1_555 1_555
N3 O12 1_555 1_555
O12 O13D 1_555 1_555
O13 N3 1_555 1_555
O14 N3 1_555 1_555
N4 O15 1_555 1_555
O15 O15B 1_555 1_555
O16 N4 1_555 1_555
O17 N4 1_555 1_555
H10 O1 1_555 1_555
H11 O2 1_555 1_555
H12 O2 1_555 1_555
H13 O3 1_555 1_555
H14 O3 1_555 1_555
H15 O4 1_555 1_555
H16 O4 1_555 1_555
H18 O9 1_555 1_555
Tb1G O8 1_555 1_555
Tb1G_2 O6 1_555 1_555
O1G Tb1G 1_555 1_555
O2G Tb1G 1_555 1_555
O3G Tb1G 1_555 1_555
O4G Tb1G 1_555 1_555
O5G Tb1G 1_555 1_555
O6G Tb1 1_555 1_555
O6_2 Tb1G 1_555 1_555
O7G Tb1G_2 1_555 1_555
O7G_2 Tb1G 1_555 1_555
O8G Tb1 1_555 1_555
O10G N1G 1_555 1_555
N1G C1G 1_555 1_555
C1G H1G 1_555 1_555
C2G C1G 1_555 1_555
H2G C2G 1_555 1_555
C3G C2G 1_555 1_555
C4G C3G 1_555 1_555
H3G C4G 1_555 1_555
C5G N1G 1_555 1_555
H4G C5G 1_555 1_555
C6G O5G 1_555 1_555
O11G N2G 1_555 1_555
N2G C7G 1_555 1_555
C7G H5G 1_555 1_555
C8G C7G 1_555 1_555
H6G C8G 1_555 1_555
C9G C8G 1_555 1_555
C10G C9G 1_555 1_555
H7G C10G 1_555 1_555
C11G N2G 1_555 1_555
H8G C11G 1_555 1_555
C12G O7G 1_555 1_555
O12D N3 1_555 1_555
O13D N3 1_555 1_555
O14D N3 1_555 1_555
O15B N4 1_555 1_555
O16B N4 1_555 1_555
O17B N4 1_555 1_555
H9G O1G 1_555 1_555
H10G O1G 1_555 1_555
H11G O2G 1_555 1_555
H12G O2G 1_555 1_555
H13G O3G 1_555 1_555
H14G O3G 1_555 1_555
H15G O4G 1_555 1_555
H16G O4G 1_555 1_555
C3 C6 1_555 1_555
C4 C5 1_555 1_555
C9 C12 1_555 1_555
C10 C11 1_555 1_555
O12 O14D 1_555 1_555
O13 O12D 1_555 1_555
O13 O14D 1_555 1_555
O14 O12D 1_555 1_555
O14 O13D 1_555 1_555
O15 O16B 1_555 1_555
O16 O15B 1_555 1_555
O16 O17B 1_555 1_555
O17 O16B 1_555 1_555
O17 O17B 1_555 1_555
O6G C6G 1_555 1_555
O8G C12G 1_555 1_555
C3G C6G 1_555 1_555
C4G C5G 1_555 1_555
C9G C12G 1_555 1_555
C10G C11G 1_555 1_555

#END
