
#######################################################################
#
#                 Cambridge Crystallographic Data Centre
#                                CCDC 
#
#######################################################################
#
# If this CIF has been generated from an entry in the Cambridge 
# Structural Database, then it will include bibliographic, chemical, 
# crystal, experimental, refinement or atomic coordinate data resulting 
# from the CCDC's data processing and validation procedures.
#
#######################################################################

data_TIPYAS
_symmetry_cell_setting           monoclinic
_symmetry_space_group_name_H-M   'P 21/a'
_symmetry_Int_Tables_number      14
_space_group_name_Hall           '-P 2yab'
loop_
_symmetry_equiv_pos_site_id
_symmetry_equiv_pos_as_xyz
1 x,y,z
2 1/2-x,1/2+y,-z
3 -x,-y,-z
4 1/2+x,1/2-y,z
_cell_length_a                   12.506(2)
_cell_length_b                   9.778(2)
_cell_length_c                   14.995(3)
_cell_angle_alpha                90
_cell_angle_beta                 95.43(5)
_cell_angle_gamma                90
_cell_volume                     1825.42
loop_
_atom_site_label
_atom_site_type_symbol
_atom_site_fract_x
_atom_site_fract_y
_atom_site_fract_z
Sn1 Sn 0.72920(1) 0.09561(2) 0.95629(1)
O1 O 0.6409(2) 0.2315(2) 0.8635(1)
O2 O 0.8156(2) -0.0812(2) 1.0593(2)
N1 N 0.4939(2) 0.2408(3) 0.7255(2)
C1 C 0.8815(3) 0.1860(4) 0.9519(2)
C2 C 0.6294(3) 0.1195(4) 1.0613(2)
C3 C 0.6968(3) -0.0629(3) 0.8622(2)
C4 C 0.6355(2) 0.3623(3) 0.8747(2)
C5 C 0.5668(2) 0.4406(3) 0.8070(2)
C6 C 0.5664(3) 0.5829(3) 0.8130(2)
C7 C 0.5009(3) 0.6647(4) 0.7583(2)
C8 C 0.4307(3) 0.6041(3) 0.6932(2)
C9 C 0.4279(3) 0.4643(4) 0.6836(2)
C10 C 0.4977(3) 0.3794(3) 0.7379(2)
C11 C 0.4207(3) 0.1687(4) 0.6625(2)
C12 C 0.3433(3) 0.0875(4) 0.6947(3)
C13 C 0.2739(3) 0.0136(5) 0.6362(3)
C14 C 0.2840(3) 0.0207(5) 0.5463(2)
C15 C 0.3607(3) 0.1006(4) 0.5117(2)
C16 C 0.4329(3) 0.1756(4) 0.5705(2)
C17 C 0.3702(4) 0.1053(5) 0.4128(3)
C18 C 0.5206(3) 0.2557(4) 0.5366(3)
H1 H 0.538 0.197 0.758
H2 H 0.614 0.625 0.858
H3 H 0.504 0.761 0.765
H4 H 0.384 0.660 0.655
H5 H 0.378 0.424 0.640
H6 H 0.885 0.209 0.896
H7 H 0.888 0.262 0.992
H8 H 0.337 0.083 0.757
H9 H 0.220 -0.042 0.658
H10 H 0.931 0.109 0.969
H11 H 0.236 -0.031 0.506
H12 H 0.587 0.031 1.066
H13 H 0.666 0.134 1.107
H14 H 0.586 0.190 1.055
H15 H 0.738 -0.142 0.883
H16 H 0.635 -0.082 0.863
H17 H 0.721 -0.037 0.808
H18 H 0.443 0.084 0.402
H19 H 0.316 0.040 0.384
H20 H 0.350 0.191 0.390
H21 H 0.561 0.207 0.496
H22 H 0.488 0.336 0.516
H23 H 0.579 0.284 0.578
O2A O 0.6844(2) 0.4188(2) 0.9407(2)
Sn1A Sn 0.77080(1) 0.59561(2) 1.04371(1)
loop_
_geom_bond_atom_site_label_1
_geom_bond_atom_site_label_2
_geom_bond_site_symmetry_1
_geom_bond_site_symmetry_2
Sn1 O1 1_555 1_555
O1 C4 1_555 1_555
O2 Sn1 1_555 1_555
N1 C10 1_555 1_555
C1 Sn1 1_555 1_555
C2 Sn1 1_555 1_555
C3 Sn1 1_555 1_555
C4 C5 1_555 1_555
C5 C6 1_555 1_555
C6 C7 1_555 1_555
C7 C8 1_555 1_555
C8 C9 1_555 1_555
C9 C10 1_555 1_555
C10 C5 1_555 1_555
C11 N1 1_555 1_555
C12 C11 1_555 1_555
C13 C12 1_555 1_555
C14 C13 1_555 1_555
C15 C14 1_555 1_555
C16 C11 1_555 1_555
C17 C15 1_555 1_555
C18 C16 1_555 1_555
H1 N1 1_555 1_555
H2 C6 1_555 1_555
H3 C7 1_555 1_555
H4 C8 1_555 1_555
H5 C9 1_555 1_555
H6 C1 1_555 1_555
H7 C1 1_555 1_555
H8 C12 1_555 1_555
H9 C13 1_555 1_555
H10 C1 1_555 1_555
H11 C14 1_555 1_555
H12 C2 1_555 1_555
H13 C2 1_555 1_555
H14 C2 1_555 1_555
H15 C3 1_555 1_555
H16 C3 1_555 1_555
H17 C3 1_555 1_555
H18 C17 1_555 1_555
H19 C17 1_555 1_555
H20 C17 1_555 1_555
H21 C18 1_555 1_555
H22 C18 1_555 1_555
H23 C18 1_555 1_555
O2A C4 1_555 1_555
Sn1A O2A 1_555 1_555
C15 C16 1_555 1_555

#END
