
#######################################################################
#
#                 Cambridge Crystallographic Data Centre
#                                CCDC 
#
#######################################################################
#
# If this CIF has been generated from an entry in the Cambridge 
# Structural Database, then it will include bibliographic, chemical, 
# crystal, experimental, refinement or atomic coordinate data resulting 
# from the CCDC's data processing and validation procedures.
#
#######################################################################

data_TIRHIL
_symmetry_cell_setting           cubic
_symmetry_space_group_name_H-M   'P 21 3'
_symmetry_Int_Tables_number      198
_space_group_name_Hall           'P 2ac 2ab 3'
loop_
_symmetry_equiv_pos_site_id
_symmetry_equiv_pos_as_xyz
1 x,y,z
2 1/2-x,-y,1/2+z
3 1/2+x,1/2-y,-z
4 z,x,y
5 -x,1/2+y,1/2-z
6 1/2-z,-x,1/2+y
7 1/2+z,1/2-x,-y
8 -z,1/2+x,1/2-y
9 y,z,x
10 1/2+y,1/2-z,-x
11 -y,1/2+z,1/2-x
12 1/2-y,-z,1/2+x
_cell_length_a                   15.486(3)
_cell_length_b                   15.486(3)
_cell_length_c                   15.486(3)
_cell_angle_alpha                90
_cell_angle_beta                 90
_cell_angle_gamma                90
_cell_volume                     3713.79
loop_
_atom_site_label
_atom_site_type_symbol
_atom_site_fract_x
_atom_site_fract_y
_atom_site_fract_z
Ag1 Ag 0.8329(1) 0.3329(1) 1.1671(1)
Cr1 Cr 0.6070(1) 0.3930(1) 0.8930(1)
O1 O 0.7304(3) 0.3794(4) 0.9080(3)
O2 O 0.6041(3) 0.3835(4) 1.0184(3)
C1 C 0.7538(5) 0.3681(5) 0.9864(5)
C2 C 0.6771(5) 0.3677(5) 1.0521(4)
O3 O 0.8256(4) 0.3593(4) 1.0079(3)
O4 O 0.6871(4) 0.3541(4) 1.1287(4)
O1E O 0.5920(3) 0.2696(3) 0.8794(4)
C1E C 0.5136(5) 0.2462(5) 0.8681(5)
C2E C 0.4479(4) 0.3229(5) 0.8677(5)
O2E O 0.4816(3) 0.3959(3) 0.8835(4)
O1J O 0.6206(4) 0.4080(3) 0.7696(3)
O2J O 0.6165(4) 0.5184(3) 0.8959(3)
O3G O 0.9921(3) 0.3256(4) 1.1407(4)
C1G C 1.0136(5) 0.2538(5) 1.1319(5)
O1G O 1.0920(3) 0.2304(3) 1.1206(4)
Cr1B Cr 1.1070(1) 0.1070(1) 1.1070(1)
O2G O 0.9816(3) 0.1041(3) 1.1165(4)
C2G C 0.9479(4) 0.1771(5) 1.1323(5)
O4G O 0.8713(4) 0.1871(4) 1.1459(4)
O3I O 0.8593(4) 0.4921(3) 1.1744(4)
O4I O 0.8541(4) 0.3713(4) 1.3129(4)
O4E O 0.3713(4) 0.3129(4) 0.8541(4)
Ag1B Ag 0.3329(1) 0.1671(1) 0.8329(1)
O3E O 0.4921(3) 0.1744(4) 0.8593(4)
Fe1 Fe 0.8739(1) 0.8739(1) 0.8739(1)
N1 N 0.8724(3) 0.7466(3) 0.8839(3)
C3 C 0.8730(4) 0.7166(3) 0.9665(4)
C4 C 0.8704(4) 0.6279(4) 0.9830(4)
C5 C 0.8664(5) 0.5703(4) 0.9131(5)
C6 C 0.8670(5) 0.6011(4) 0.8313(5)
C7 C 0.8716(4) 0.6902(4) 0.8179(4)
N2 N 0.8741(3) 0.8650(3) 1.0009(3)
C8 C 0.8726(4) 0.7829(4) 1.0323(4)
C9 C 0.8787(4) 0.7666(4) 1.1211(4)
C10 C 0.8784(4) 0.8359(5) 1.1782(4)
C11 C 0.8800(5) 0.9180(5) 1.1458(4)
C12 C 0.8766(4) 0.9299(4) 1.0579(4)
N1C N 0.8839(3) 0.8724(3) 0.7466(3)
C3C C 0.9665(4) 0.8730(4) 0.7166(3)
C4C C 0.9830(4) 0.8704(4) 0.6279(4)
C5C C 0.9131(5) 0.8664(5) 0.5703(4)
C6C C 0.8313(5) 0.8670(5) 0.6011(4)
C7C C 0.8179(4) 0.8716(4) 0.6902(4)
C8C C 1.0323(4) 0.8726(4) 0.7829(4)
N2C N 1.0009(3) 0.8741(3) 0.8650(3)
N1H N 0.7466(3) 0.8839(3) 0.8724(3)
C3H C 0.7166(3) 0.9665(4) 0.8730(4)
C4H C 0.6279(4) 0.9830(4) 0.8704(4)
C5H C 0.5703(4) 0.9131(5) 0.8664(5)
C6H C 0.6011(4) 0.8313(5) 0.8670(5)
C7H C 0.6902(4) 0.8179(4) 0.8716(4)
C8H C 0.7829(4) 1.0323(4) 0.8726(4)
N2H N 0.8650(3) 1.0009(3) 0.8741(3)
C12H C 0.9299(4) 1.0579(4) 0.8766(4)
C11H C 0.9180(5) 1.1458(4) 0.8800(5)
C10H C 0.8359(5) 1.1782(4) 0.8784(4)
C9H C 0.7666(4) 1.1211(4) 0.8787(4)
C12C C 1.0579(4) 0.8766(4) 0.9299(4)
C11C C 1.1458(4) 0.8800(5) 0.9180(5)
C10C C 1.1782(4) 0.8784(4) 0.8359(5)
C9C C 1.1211(4) 0.8787(4) 0.7666(4)
loop_
_geom_bond_atom_site_label_1
_geom_bond_atom_site_label_2
_geom_bond_site_symmetry_1
_geom_bond_site_symmetry_2
Ag1 O3 1_555 1_555
Cr1 O1 1_555 1_555
O1 C1 1_555 1_555
O2 Cr1 1_555 1_555
C1 C2 1_555 1_555
C2 O2 1_555 1_555
O3 C1 1_555 1_555
O4 Ag1 1_555 1_555
Fe1 N1 1_555 1_555
N1 C3 1_555 1_555
C3 C4 1_555 1_555
C4 C5 1_555 1_555
C5 C6 1_555 1_555
C6 C7 1_555 1_555
C7 N1 1_555 1_555
N2 Fe1 1_555 1_555
C8 C3 1_555 1_555
C9 C8 1_555 1_555
C10 C9 1_555 1_555
C11 C10 1_555 1_555
C12 N2 1_555 1_555
O1E Cr1 1_555 1_555
C1E O1E 1_555 1_555
C2E C1E 1_555 1_555
O2E Cr1 1_555 1_555
O1J Cr1 1_555 1_555
O2J Cr1 1_555 1_555
O3G Ag1 1_555 1_555
C1G O3G 1_555 1_555
O1G C1G 1_555 1_555
Cr1B O1G 1_555 1_555
O2G Cr1B 1_555 1_555
C2G C1G 1_555 1_555
O4G Ag1 1_555 1_555
O3I Ag1 1_555 1_555
O4I Ag1 1_555 1_555
O4E C2E 1_555 1_555
Ag1B O4E 1_555 1_555
O3E C1E 1_555 1_555
N1C Fe1 1_555 1_555
C3C N1C 1_555 1_555
C4C C3C 1_555 1_555
C5C C4C 1_555 1_555
C6C C5C 1_555 1_555
C7C N1C 1_555 1_555
C8C C3C 1_555 1_555
N2C Fe1 1_555 1_555
N1H Fe1 1_555 1_555
C3H N1H 1_555 1_555
C4H C3H 1_555 1_555
C5H C4H 1_555 1_555
C6H C5H 1_555 1_555
C7H N1H 1_555 1_555
C8H C3H 1_555 1_555
N2H Fe1 1_555 1_555
C12H N2H 1_555 1_555
C11H C12H 1_555 1_555
C10H C11H 1_555 1_555
C9H C8H 1_555 1_555
C12C N2C 1_555 1_555
C11C C12C 1_555 1_555
C10C C11C 1_555 1_555
C9C C8C 1_555 1_555
C2 O4 1_555 1_555
N2 C8 1_555 1_555
C11 C12 1_555 1_555
C2E O2E 1_555 1_555
O2G C2G 1_555 1_555
C2G O4G 1_555 1_555
Ag1B O3E 1_555 1_555
C6C C7C 1_555 1_555
C8C N2C 1_555 1_555
C6H C7H 1_555 1_555
C8H N2H 1_555 1_555
C10H C9H 1_555 1_555
C10C C9C 1_555 1_555

#END
