
#######################################################################
#
#                 Cambridge Crystallographic Data Centre
#                                CCDC 
#
#######################################################################
#
# If this CIF has been generated from an entry in the Cambridge 
# Structural Database, then it will include bibliographic, chemical, 
# crystal, experimental, refinement or atomic coordinate data resulting 
# from the CCDC's data processing and validation procedures.
#
#######################################################################

data_TIRJAH
_symmetry_cell_setting           monoclinic
_symmetry_space_group_name_H-M   'P 2/c'
_symmetry_Int_Tables_number      13
_space_group_name_Hall           '-P 2yc'
loop_
_symmetry_equiv_pos_site_id
_symmetry_equiv_pos_as_xyz
1 x,y,z
2 -x,y,1/2-z
3 -x,-y,-z
4 x,-y,1/2+z
_cell_length_a                   9.718(2)
_cell_length_b                   9.962(3)
_cell_length_c                   13.971(3)
_cell_angle_alpha                90
_cell_angle_beta                 128.918(11)
_cell_angle_gamma                90
_cell_volume                     1052.34
loop_
_atom_site_label
_atom_site_type_symbol
_atom_site_fract_x
_atom_site_fract_y
_atom_site_fract_z
Zn1 Zn 0.5000 0.16088(7) 0.7500
O1 O 0.7218(4) 0.2364(3) 0.8906(3)
O2 O 0.6299(4) 0.4042(4) 0.9402(3)
N1 N 0.7164(4) 0.1529(4) 0.6324(3)
H1 H 0.7248 0.2378 0.6257
N2 N 0.6314(4) 0.0994(4) 0.6711(3)
N3 N 0.5000 -0.0512(5) 0.7500
C1 C 0.8862(6) 0.0942(6) 0.5598(5)
H2 H 0.8898 0.1900 0.5544
H3 H 0.8281 0.0554 0.4799
H4 H 1.0046 0.0599 0.6159
C2 C 0.7864(5) 0.0586(5) 0.6053(4)
C3 C 0.7460(6) -0.0623(5) 0.6284(4)
H5 H 0.7761 -0.1470 0.6188
C4 C 0.6507(5) -0.0326(4) 0.6691(4)
C5 C 0.5742(5) -0.1189(4) 0.7093(4)
C6 C 0.5742(6) -0.2574(5) 0.7078(4)
H6 H 0.6243 -0.3029 0.6783
C7 C 0.5000 -0.3284(7) 0.7500
H7 H 0.5000 -0.4217 0.7500
C8 C 0.7475(6) 0.3333(5) 0.9580(4)
C9 C 0.9367(6) 0.3640(5) 1.0657(4)
H8 H 1.0116 0.2918 1.0753
H9 H 0.9487 0.3679 1.1400
C10 C 0.9997(8) 0.4961(7) 1.0504(5)
H10 H 0.9251 0.5674 1.0422
H11 H 1.1190 0.5130 1.1251
O1B O 1.2782(4) 0.7636(3) 1.1094(3)
O2B O 1.3701(4) 0.5958(4) 1.0598(3)
C8B C 1.2525(6) 0.6667(5) 1.0420(4)
C9B C 1.0633(6) 0.6360(5) 0.9343(4)
H8B H 0.9884 0.7082 0.9247
H9B H 1.0513 0.6321 0.8600
C10B C 1.0003(8) 0.5039(7) 0.9496(5)
H10B H 1.0749 0.4326 0.9578
H11B H 0.8810 0.4870 0.8749
N1A N 0.2836(4) 0.1529(4) 0.8676(3)
H1A H 0.2752 0.2378 0.8743
N2A N 0.3686(4) 0.0994(4) 0.8289(3)
C1A C 0.1138(6) 0.0942(6) 0.9402(5)
H2A H 0.1102 0.1900 0.9456
H3A H 0.1719 0.0554 1.0201
H4A H -0.0046 0.0599 0.8841
C2A C 0.2136(5) 0.0586(5) 0.8947(4)
C3A C 0.2540(6) -0.0623(5) 0.8716(4)
H5A H 0.2239 -0.1470 0.8812
C4A C 0.3493(5) -0.0326(4) 0.8309(4)
C5A C 0.4258(5) -0.1189(4) 0.7907(4)
C6A C 0.4258(6) -0.2574(5) 0.7922(4)
H6A H 0.3757 -0.3029 0.8217
Zn1B Zn 1.5000 0.83912(7) 1.2500
O1A O 0.2782(4) 0.2364(3) 0.6094(3)
O3 O 0.2984(5) 0.5671(4) 0.3717(3)
H12 H 0.2318 0.6256 0.3683
H13 H 0.3910 0.6049 0.3907
loop_
_geom_bond_atom_site_label_1
_geom_bond_atom_site_label_2
_geom_bond_site_symmetry_1
_geom_bond_site_symmetry_2
Zn1 O1 1_555 1_555
O1 C8 1_555 1_555
O2 C8 1_555 1_555
N1 H1 1_555 1_555
N2 Zn1 1_555 1_555
N3 Zn1 1_555 1_555
C1 H2 1_555 1_555
H3 C1 1_555 1_555
H4 C1 1_555 1_555
C2 N1 1_555 1_555
C3 C2 1_555 1_555
H5 C3 1_555 1_555
C4 N2 1_555 1_555
C5 N3 1_555 1_555
C6 C5 1_555 1_555
H6 C6 1_555 1_555
C7 C6 1_555 1_555
H7 C7 1_555 1_555
C8 C9 1_555 1_555
C9 H8 1_555 1_555
H9 C9 1_555 1_555
C10 C9 1_555 1_555
H10 C10 1_555 1_555
H11 C10 1_555 1_555
O3 H12 1_555 1_555
H13 O3 1_555 1_555
O1B C8B 1_555 1_555
O2B C8B 1_555 1_555
C8B C9B 1_555 1_555
C9B H8B 1_555 1_555
H9B C9B 1_555 1_555
C10B C10 1_555 1_555
H10B C10B 1_555 1_555
H11B C10B 1_555 1_555
N1A H1A 1_555 1_555
N2A Zn1 1_555 1_555
C1A H2A 1_555 1_555
H3A C1A 1_555 1_555
H4A C1A 1_555 1_555
C2A N1A 1_555 1_555
C3A C2A 1_555 1_555
H5A C3A 1_555 1_555
C4A N2A 1_555 1_555
C5A N3 1_555 1_555
C6A C7 1_555 1_555
H6A C6A 1_555 1_555
Zn1B O1B 1_555 1_555
O1A Zn1 1_555 1_555
N1 N2 1_555 1_555
C1 C2 1_555 1_555
C3 C4 1_555 1_555
C4 C5 1_555 1_555
C9B C10B 1_555 1_555
N1A N2A 1_555 1_555
C1A C2A 1_555 1_555
C3A C4A 1_555 1_555
C4A C5A 1_555 1_555
C5A C6A 1_555 1_555

#END
