
#######################################################################
#
#                 Cambridge Crystallographic Data Centre
#                                CCDC 
#
#######################################################################
#
# If this CIF has been generated from an entry in the Cambridge 
# Structural Database, then it will include bibliographic, chemical, 
# crystal, experimental, refinement or atomic coordinate data resulting 
# from the CCDC's data processing and validation procedures.
#
#######################################################################

data_TISBII
_symmetry_cell_setting           triclinic
_symmetry_space_group_name_H-M   'P -1'
_symmetry_Int_Tables_number      2
_space_group_name_Hall           '-P 1'
loop_
_symmetry_equiv_pos_site_id
_symmetry_equiv_pos_as_xyz
1 x,y,z
2 -x,-y,-z
_cell_length_a                   8.2982(9)
_cell_length_b                   8.5691(9)
_cell_length_c                   13.100(2)
_cell_angle_alpha                99.701(2)
_cell_angle_beta                 97.348(2)
_cell_angle_gamma                113.7130(10)
_cell_volume                     820.679
loop_
_atom_site_label
_atom_site_type_symbol
_atom_site_fract_x
_atom_site_fract_y
_atom_site_fract_z
Cd1 Cd 0.5000 0.5000 0.5000
Br1 Br 0.39873(3) 0.69011(3) 0.387085(19)
N1 N 0.3376(3) 0.0014(3) -0.12301(19)
N2 N 0.8412(3) 0.6149(3) -0.03827(17)
N3 N 0.9601(3) 0.7768(3) 0.02716(17)
N4 N 0.8338(3) 0.6000(3) 0.12829(17)
N5 N 1.2908(3) 1.2280(3) 0.37231(17)
N6 N 0.7074(3) 0.4931(3) 0.37783(17)
C1 C 0.6223(3) 0.3319(3) -0.0219(2)
C2 C 0.4859(3) 0.2473(4) 0.0295(2)
H1 H 0.4869 0.3004 0.0995
C3 C 0.3490(3) 0.0837(4) -0.0242(2)
H2 H 0.2578 0.0266 0.0116
C4 C 0.4706(3) 0.0839(4) -0.1708(2)
H3 H 0.4664 0.0275 -0.2407
C5 C 0.6135(3) 0.2464(4) -0.1239(2)
H4 H 0.7043 0.2988 -0.1611
C6 C 0.7663(3) 0.5117(3) 0.0227(2)
C7 C 0.9553(3) 0.7665(3) 0.1260(2)
C8 C 1.0659(3) 0.9201(3) 0.2159(2)
C9 C 1.1176(3) 1.0860(3) 0.1941(2)
H5 H 1.0760 1.0965 0.1258
C10 C 1.2299(3) 1.2343(3) 0.2732(2)
H6 H 1.2659 1.3458 0.2570
C11 C 1.2397(3) 1.0683(4) 0.3926(2)
H7 H 1.2820 1.0616 0.4618
C12 C 1.1284(3) 0.9126(3) 0.3177(2)
H8 H 1.0956 0.8028 0.3359
C13 C 0.8168(3) 0.5228(3) 0.2188(2)
C14 C 0.7215(3) 0.5602(3) 0.2922(2)
H9 H 0.6653 0.6349 0.2813
C15 C 0.7881(3) 0.3868(4) 0.3905(2)
H10 H 0.7798 0.3395 0.4513
C16 C 0.8822(3) 0.3429(4) 0.3198(2)
H11 H 0.9358 0.2665 0.3318
C17 C 0.8974(3) 0.4120(4) 0.2310(2)
H12 H 0.9606 0.3842 0.1807
Br1A Br 0.60127(3) 0.30989(3) 0.612915(19)
N1A N 0.6624(3) 0.9986(3) 1.12301(19)
N2A N 0.1588(3) 0.3851(3) 1.03827(17)
N3A N 0.0399(3) 0.2232(3) 0.97284(17)
N4A N 0.1662(3) 0.4000(3) 0.87171(17)
N5A N -0.2908(3) -0.2280(3) 0.62769(17)
N6A N 0.2926(3) 0.5069(3) 0.62217(17)
C1A C 0.3777(3) 0.6681(3) 1.0219(2)
C2A C 0.5141(3) 0.7527(4) 0.9705(2)
H1A H 0.5131 0.6996 0.9005
C3A C 0.6510(3) 0.9163(4) 1.0242(2)
H2A H 0.7422 0.9734 0.9884
C4A C 0.5294(3) 0.9161(4) 1.1708(2)
H3A H 0.5336 0.9725 1.2407
C5A C 0.3865(3) 0.7536(4) 1.1239(2)
H4A H 0.2957 0.7012 1.1611
C6A C 0.2337(3) 0.4883(3) 0.9773(2)
C7A C 0.0447(3) 0.2335(3) 0.8740(2)
C8A C -0.0659(3) 0.0799(3) 0.7841(2)
C9A C -0.1176(3) -0.0860(3) 0.8059(2)
H5A H -0.0760 -0.0965 0.8742
C10A C -0.2299(3) -0.2343(3) 0.7268(2)
H6A H -0.2659 -0.3458 0.7430
C11A C -0.2397(3) -0.0683(4) 0.6074(2)
H7A H -0.2820 -0.0616 0.5382
C12A C -0.1284(3) 0.0874(3) 0.6823(2)
H8A H -0.0956 0.1972 0.6641
C13A C 0.1832(3) 0.4772(3) 0.7812(2)
C14A C 0.2785(3) 0.4398(3) 0.7078(2)
H9A H 0.3347 0.3651 0.7187
C15A C 0.2119(3) 0.6132(4) 0.6095(2)
H10A H 0.2202 0.6605 0.5487
C16A C 0.1178(3) 0.6571(4) 0.6802(2)
H11A H 0.0642 0.7335 0.6682
C17A C 0.1026(3) 0.5880(4) 0.7690(2)
H12A H 0.0394 0.6158 0.8193
Cd1_2 Cd -0.5000 -0.5000 0.5000
Cd1_3 Cd 1.5000 1.5000 0.5000
N5_2 N 0.2908(3) 0.2280(3) 0.37231(17)
N5A_2 N 0.7092(3) 0.7720(3) 0.62769(17)
loop_
_geom_bond_atom_site_label_1
_geom_bond_atom_site_label_2
_geom_bond_site_symmetry_1
_geom_bond_site_symmetry_2
Cd1 Br1 1_555 1_555
N1 C3 1_555 1_555
N2 N3 1_555 1_555
N3 C7 1_555 1_555
N4 C6 1_555 1_555
N5 C10 1_555 1_555
N6 Cd1 1_555 1_555
C1 C2 1_555 1_555
C2 H1 1_555 1_555
C3 C2 1_555 1_555
H2 C3 1_555 1_555
C4 N1 1_555 1_555
H3 C4 1_555 1_555
C5 C1 1_555 1_555
H4 C5 1_555 1_555
C6 N2 1_555 1_555
C7 N4 1_555 1_555
C8 C7 1_555 1_555
C9 C8 1_555 1_555
H5 C9 1_555 1_555
C10 C9 1_555 1_555
H6 C10 1_555 1_555
C11 N5 1_555 1_555
H7 C11 1_555 1_555
C12 C8 1_555 1_555
H8 C12 1_555 1_555
C13 N4 1_555 1_555
C14 N6 1_555 1_555
H9 C14 1_555 1_555
C15 N6 1_555 1_555
H10 C15 1_555 1_555
C16 C15 1_555 1_555
H11 C16 1_555 1_555
C17 C13 1_555 1_555
H12 C17 1_555 1_555
Br1A Cd1 1_555 1_555
N1A C3A 1_555 1_555
N2A N3A 1_555 1_555
N3A C7A 1_555 1_555
N4A C6A 1_555 1_555
N5A C10A 1_555 1_555
N6A Cd1 1_555 1_555
C1A C2A 1_555 1_555
C2A H1A 1_555 1_555
C3A C2A 1_555 1_555
H2A C3A 1_555 1_555
C4A N1A 1_555 1_555
H3A C4A 1_555 1_555
C5A C1A 1_555 1_555
H4A C5A 1_555 1_555
C6A N2A 1_555 1_555
C7A N4A 1_555 1_555
C8A C7A 1_555 1_555
C9A C8A 1_555 1_555
H5A C9A 1_555 1_555
C10A C9A 1_555 1_555
H6A C10A 1_555 1_555
C11A N5A 1_555 1_555
H7A C11A 1_555 1_555
C12A C8A 1_555 1_555
H8A C12A 1_555 1_555
C13A N4A 1_555 1_555
C14A N6A 1_555 1_555
H9A C14A 1_555 1_555
C15A N6A 1_555 1_555
H10A C15A 1_555 1_555
C16A C15A 1_555 1_555
H11A C16A 1_555 1_555
C17A C13A 1_555 1_555
H12A C17A 1_555 1_555
Cd1_2 N5A 1_555 1_555
Cd1_3 N5 1_555 1_555
N5_2 Cd1 1_555 1_555
N5A_2 Cd1 1_555 1_555
C1 C6 1_555 1_555
C4 C5 1_555 1_555
C11 C12 1_555 1_555
C13 C14 1_555 1_555
C16 C17 1_555 1_555
C1A C6A 1_555 1_555
C4A C5A 1_555 1_555
C11A C12A 1_555 1_555
C13A C14A 1_555 1_555
C16A C17A 1_555 1_555

#END
