
#######################################################################
#
#                 Cambridge Crystallographic Data Centre
#                                CCDC 
#
#######################################################################
#
# If this CIF has been generated from an entry in the Cambridge 
# Structural Database, then it will include bibliographic, chemical, 
# crystal, experimental, refinement or atomic coordinate data resulting 
# from the CCDC's data processing and validation procedures.
#
#######################################################################

data_TISBOO
_symmetry_cell_setting           triclinic
_symmetry_space_group_name_H-M   'P -1'
_symmetry_Int_Tables_number      2
_space_group_name_Hall           '-P 1'
loop_
_symmetry_equiv_pos_site_id
_symmetry_equiv_pos_as_xyz
1 x,y,z
2 -x,-y,-z
_cell_length_a                   8.479(6)
_cell_length_b                   10.886(7)
_cell_length_c                   11.768(8)
_cell_angle_alpha                69.618(10)
_cell_angle_beta                 81.802(11)
_cell_angle_gamma                80.239(12)
_cell_volume                     999.356
loop_
_atom_site_label
_atom_site_type_symbol
_atom_site_fract_x
_atom_site_fract_y
_atom_site_fract_z
Cd1 Cd 0.0000 0.0000 0.5000
Cd2 Cd 0.09990(11) 0.22784(9) 0.65433(8)
N1 N 0.253(3) 0.3594(19) 0.4874(19)
N2 N 0.671(2) 0.4359(15) 0.1374(16)
N3 N 0.745(2) 0.4971(14) 0.0351(15)
N4 N 0.5439(13) 0.6312(12) 0.0668(13)
N5 N 0.8822(17) 0.8748(15) -0.3359(15)
N6 N 0.376(2) 0.9324(19) 0.1444(19)
Cl1 Cl -0.1603(3) 0.2380(2) 0.5584(2)
Cl2 Cl 0.2650(3) 0.0047(2) 0.6450(2)
Cl3 Cl 0.1048(3) 0.3122(3) 0.8231(3)
C1 C 0.280(2) 0.5078(18) 0.2750(17)
H1 H 0.2323 0.5704 0.2083
C2 C 0.184(2) 0.4429(18) 0.380(2)
H2 H 0.0725 0.4555 0.3792
C3 C 0.406(2) 0.346(2) 0.479(2)
H3 H 0.4567 0.2976 0.5485
C4 C 0.504(2) 0.399(2) 0.372(2)
H4 H 0.6144 0.3784 0.3731
C5 C 0.445(2) 0.4771(18) 0.2725(17)
C6 C 0.550(2) 0.5168(17) 0.162(2)
C7 C 0.6725(19) 0.6138(17) -0.0094(16)
C8 C 0.744(2) 0.7141(16) -0.1215(16)
C9 C 0.899(2) 0.6972(19) -0.1500(19)
H5 H 0.9630 0.6280 -0.0988
C10 C 0.969(2) 0.7832(19) -0.258(2)
H6 H 1.0800 0.7740 -0.2736
C11 C 0.724(2) 0.886(2) -0.3089(17)
H7 H 0.6610 0.9497 -0.3653
C12 C 0.646(2) 0.8083(18) -0.201(2)
H8 H 0.5354 0.8199 -0.1846
C13 C 0.440(2) 0.7497(19) 0.0648(19)
C14 C 0.321(2) 0.788(3) -0.009(2)
H9 H 0.3020 0.7404 -0.0562
C15 C 0.224(2) 0.9117(18) -0.007(2)
H10 H 0.1429 0.9484 -0.0584
C16 C 0.252(3) 0.977(3) 0.073(3)
H11 H 0.1840 1.0530 0.0754
C17 C 0.453(5) 0.806(2) 0.142(3)
H12 H 0.5215 0.7594 0.2021
Cd2A Cd -0.09990(11) -0.22784(9) 0.34567(8)
N1A N -0.253(3) -0.3594(19) 0.5126(19)
N2A N -0.671(2) -0.4359(15) 0.8626(16)
N3A N -0.745(2) -0.4971(14) 0.9649(15)
N4A N -0.5439(13) -0.6312(12) 0.9332(13)
N5A N -0.8822(17) -0.8748(15) 1.3359(15)
N6A N -0.376(2) -0.9324(19) 0.8556(19)
Cl1A Cl 0.1603(3) -0.2380(2) 0.4416(2)
Cl2A Cl -0.2650(3) -0.0047(2) 0.3550(2)
Cl3A Cl -0.1048(3) -0.3122(3) 0.1769(3)
C1A C -0.280(2) -0.5078(18) 0.7250(17)
H1A H -0.2323 -0.5704 0.7917
C2A C -0.184(2) -0.4429(18) 0.620(2)
H2A H -0.0725 -0.4555 0.6208
C3A C -0.406(2) -0.346(2) 0.521(2)
H3A H -0.4567 -0.2976 0.4515
C4A C -0.504(2) -0.399(2) 0.628(2)
H4A H -0.6144 -0.3784 0.6269
C5A C -0.445(2) -0.4771(18) 0.7275(17)
C6A C -0.550(2) -0.5168(17) 0.838(2)
C7A C -0.6725(19) -0.6138(17) 1.0094(16)
C8A C -0.744(2) -0.7141(16) 1.1215(16)
C9A C -0.899(2) -0.6972(19) 1.1500(19)
H5A H -0.9630 -0.6280 1.0988
C10A C -0.969(2) -0.7832(19) 1.258(2)
H6A H -1.0800 -0.7740 1.2736
C11A C -0.724(2) -0.886(2) 1.3089(17)
H7A H -0.6610 -0.9497 1.3653
C12A C -0.646(2) -0.8083(18) 1.201(2)
H8A H -0.5354 -0.8199 1.1846
C13A C -0.440(2) -0.7497(19) 0.9352(19)
C14A C -0.321(2) -0.788(3) 1.009(2)
H9A H -0.3020 -0.7404 1.0562
C15A C -0.224(2) -0.9117(18) 1.007(2)
H10A H -0.1429 -0.9484 1.0584
C16A C -0.252(3) -0.977(3) 0.927(3)
H11A H -0.1840 -1.0530 0.9246
C17A C -0.453(5) -0.806(2) 0.858(3)
H12A H -0.5215 -0.7594 0.7979
Cd1_2 Cd -1.0000 -1.0000 1.5000
Cd1_3 Cd 1.0000 1.0000 -0.5000
N5_2 N -0.1178(17) -0.1252(15) 0.6641(15)
N5A_2 N 0.1178(17) 0.1252(15) 0.3359(15)
loop_
_geom_bond_atom_site_label_1
_geom_bond_atom_site_label_2
_geom_bond_site_symmetry_1
_geom_bond_site_symmetry_2
Cd1 Cl1 1_555 1_555
Cd2 N1 1_555 1_555
N1 C2 1_555 1_555
N2 N3 1_555 1_555
N3 C7 1_555 1_555
N4 C6 1_555 1_555
N5 C10 1_555 1_555
N6 C16 1_555 1_555
Cl1 Cd2 1_555 1_555
Cl2 Cd1 1_555 1_555
Cl3 Cd2 1_555 1_555
C1 H1 1_555 1_555
C2 C1 1_555 1_555
H2 C2 1_555 1_555
C3 N1 1_555 1_555
H3 C3 1_555 1_555
C4 C3 1_555 1_555
H4 C4 1_555 1_555
C5 C1 1_555 1_555
C6 N2 1_555 1_555
C7 N4 1_555 1_555
C8 C7 1_555 1_555
C9 C8 1_555 1_555
H5 C9 1_555 1_555
C10 C9 1_555 1_555
H6 C10 1_555 1_555
C11 N5 1_555 1_555
H7 C11 1_555 1_555
C12 C8 1_555 1_555
H8 C12 1_555 1_555
C13 N4 1_555 1_555
C14 C13 1_555 1_555
H9 C14 1_555 1_555
C15 C14 1_555 1_555
H10 C15 1_555 1_555
C16 C15 1_555 1_555
H11 C16 1_555 1_555
C17 N6 1_555 1_555
H12 C17 1_555 1_555
Cd2A N1A 1_555 1_555
N1A C2A 1_555 1_555
N2A N3A 1_555 1_555
N3A C7A 1_555 1_555
N4A C6A 1_555 1_555
N5A C10A 1_555 1_555
N6A C16A 1_555 1_555
Cl1A Cd1 1_555 1_555
Cl2A Cd1 1_555 1_555
Cl3A Cd2A 1_555 1_555
C1A H1A 1_555 1_555
C2A C1A 1_555 1_555
H2A C2A 1_555 1_555
C3A N1A 1_555 1_555
H3A C3A 1_555 1_555
C4A C3A 1_555 1_555
H4A C4A 1_555 1_555
C5A C1A 1_555 1_555
C6A N2A 1_555 1_555
C7A N4A 1_555 1_555
C8A C7A 1_555 1_555
C9A C8A 1_555 1_555
H5A C9A 1_555 1_555
C10A C9A 1_555 1_555
H6A C10A 1_555 1_555
C11A N5A 1_555 1_555
H7A C11A 1_555 1_555
C12A C8A 1_555 1_555
H8A C12A 1_555 1_555
C13A N4A 1_555 1_555
C14A C13A 1_555 1_555
H9A C14A 1_555 1_555
C15A C14A 1_555 1_555
H10A C15A 1_555 1_555
C16A C15A 1_555 1_555
H11A C16A 1_555 1_555
C17A N6A 1_555 1_555
H12A C17A 1_555 1_555
Cd1_2 N5A 1_555 1_555
Cd1_3 N5 1_555 1_555
N5_2 Cd1 1_555 1_555
N5A_2 Cd1 1_555 1_555
Cd2 Cl2 1_555 1_555
C4 C5 1_555 1_555
C5 C6 1_555 1_555
C11 C12 1_555 1_555
C13 C17 1_555 1_555
Cd2A Cl1A 1_555 1_555
Cd2A Cl2A 1_555 1_555
C4A C5A 1_555 1_555
C5A C6A 1_555 1_555
C11A C12A 1_555 1_555
C13A C17A 1_555 1_555

#END
