
#######################################################################
#
#                 Cambridge Crystallographic Data Centre
#                                CCDC 
#
#######################################################################
#
# If this CIF has been generated from an entry in the Cambridge 
# Structural Database, then it will include bibliographic, chemical, 
# crystal, experimental, refinement or atomic coordinate data resulting 
# from the CCDC's data processing and validation procedures.
#
#######################################################################

data_TISCEE
_symmetry_cell_setting           monoclinic
_symmetry_space_group_name_H-M   'P 21/n'
_symmetry_Int_Tables_number      14
_space_group_name_Hall           '-P 2yn'
loop_
_symmetry_equiv_pos_site_id
_symmetry_equiv_pos_as_xyz
1 x,y,z
2 1/2-x,1/2+y,1/2-z
3 -x,-y,-z
4 1/2+x,1/2-y,1/2+z
_cell_length_a                   14.9141(8)
_cell_length_b                   21.7205(12)
_cell_length_c                   28.9712(16)
_cell_angle_alpha                90
_cell_angle_beta                 94.2720(10)
_cell_angle_gamma                90
_cell_volume                     9358.91
loop_
_atom_site_label
_atom_site_type_symbol
_atom_site_fract_x
_atom_site_fract_y
_atom_site_fract_z
Mn1 Mn 0.61270(4) 0.56562(3) 1.01776(2)
Mn2 Mn 0.73689(3) 0.44095(3) 0.981589(19)
Mn3 Mn 0.85343(3) 0.33630(3) 0.893458(19)
Mn4 Mn 0.86926(4) 0.19670(3) 0.93113(2)
Mn5 Mn 0.90240(4) 0.22509(3) 0.823946(19)
Mn6 Mn 0.93508(4) 0.82564(3) 1.00967(2)
Mn7 Mn 0.95074(4) 0.70604(3) 1.045690(19)
Mn8 Mn 0.95878(3) 0.58081(3) 1.074970(18)
Mn9 Mn 0.79754(4) 0.65638(3) 1.110580(19)
Mn10 Mn 1.11396(4) 0.23253(3) 0.819973(19)
Mn11 Mn 0.78838(4) 0.79408(3) 1.07530(2)
P1 P 0.77284(6) 0.51512(5) 1.08397(3)
P2 P 0.84720(6) 0.47970(5) 0.90829(3)
P3 P 1.02279(7) 0.12405(5) 0.88255(4)
P4 P 1.00473(6) 0.36183(5) 0.82024(3)
O1 O 0.49401(18) 0.59845(14) 0.97340(10)
O2 O 0.72635(16) 0.60963(13) 0.98624(9)
O3 O 0.71505(15) 0.49330(13) 1.04156(8)
O4 O 0.61561(15) 0.49156(14) 0.95986(9)
O5 O 0.81902(15) 0.51280(13) 0.95130(8)
O6 O 0.85678(16) 0.39797(13) 1.01671(8)
O7 O 0.67586(17) 0.35458(14) 0.98105(9)
O8 O 0.87329(14) 0.51442(12) 1.07511(8)
O9 O 0.74020(15) 0.57897(13) 1.09760(8)
O10 O 0.52935(15) 0.51693(13) 1.06266(9)
O11 O 0.74218(16) 0.32382(14) 0.85513(9)
O12 O 0.80401(15) 0.41545(13) 0.90970(8)
O13 O 0.79596(17) 0.28691(14) 0.95494(9)
O14 O 0.91289(15) 0.37645(13) 0.83600(8)
O15 O 1.03916(15) 0.64790(12) 1.06772(8)
O16 O 0.75894(17) 0.16636(14) 0.90082(9)
O17 O 0.93645(17) 0.11771(13) 0.90592(9)
O18 O 1.02504(16) 0.77479(13) 1.03715(9)
O19 O 0.84443(19) 0.14322(15) 0.98328(10)
O20 O 1.01185(17) 0.17711(13) 0.84618(9)
O21 O 1.01190(16) 0.29113(13) 0.81584(8)
O22 O 0.79964(18) 0.27362(14) 0.79624(9)
O23 O 0.80664(19) 0.15315(15) 0.82988(10)
O24 O 0.91990(18) 0.19750(14) 0.76174(9)
O25 O 1.0156(2) 0.88892(15) 0.99144(10)
O26 O 0.94735(19) 0.77774(17) 0.94428(9)
O27 O 0.8345(2) 0.87581(15) 0.98415(10)
O28 O 0.85758(16) 0.76392(13) 1.02923(8)
O29 O 0.95601(17) 0.68288(14) 0.97378(9)
O30 O 0.86973(15) 0.64250(12) 1.05959(8)
O31 O 0.96812(15) 0.56545(13) 0.99822(8)
O32 O 0.94948(14) 0.47727(12) 0.90642(8)
O33 O 0.91762(16) 0.61264(13) 1.14787(8)
O34 O 0.71658(17) 0.66225(13) 1.15938(9)
O35 O 0.84390(15) 0.73903(12) 1.12119(8)
O36 O 1.07020(18) 0.20353(14) 0.75853(9)
O37 O 1.19924(18) 0.16148(15) 0.81756(9)
O38 O 1.20479(19) 0.28520(15) 0.78534(9)
O39 O 0.70005(16) 0.71203(13) 1.06445(9)
O40 O 0.89498(17) 0.86457(13) 1.08425(9)
O41 O 0.71099(17) 0.83290(14) 1.11700(10)
O42 O 0.72426(18) 0.84722(14) 1.02897(10)
O43 O 0.58220(17) 0.65102(15) 1.04998(10)
O44 O 0.88789(16) 0.25409(13) 0.88254(8)
C1 C 0.5511(2) 0.47445(19) 0.93029(12)
C2 C 0.5760(3) 0.4457(2) 0.88613(14)
C3 C 0.4995(3) 0.4367(3) 0.84991(14)
C4 C 0.7556(2) 0.4634(2) 1.13052(12)
C5 C 0.7278(2) 0.4852(2) 1.17231(13)
C6 C 0.7153(3) 0.4436(3) 1.20805(14)
C7 C 0.7304(3) 0.3820(3) 1.20296(16)
C8 C 0.7587(3) 0.3609(3) 1.16151(16)
C9 C 0.7711(3) 0.4014(2) 1.12584(15)
C10 C 0.8028(2) 0.5202(2) 0.85769(13)
C11 C 0.7907(3) 0.5832(2) 0.85963(15)
C12 C 0.7633(3) 0.6164(3) 0.82030(17)
C13 C 0.7473(3) 0.5868(3) 0.77834(16)
C14 C 0.7575(3) 0.5246(3) 0.77649(15)
C15 C 0.7854(3) 0.4906(2) 0.81548(13)
C16 C 0.7371(3) 0.3005(2) 0.81518(15)
C17 C 0.6476(3) 0.3054(4) 0.78759(19)
C18 C 0.6456(7) 0.3403(7) 0.7497(4)
C19 C 0.7530(3) 0.1434(2) 0.86036(15)
C20 C 0.6752(3) 0.1007(3) 0.84874(17)
C21 C 0.9588(3) 0.7218(3) 0.94083(14)
C22 C 0.9802(4) 0.6946(3) 0.89404(15)
C23 C 0.8981(3) 0.1079(3) 1.00613(17)
C24 C 0.8590(4) 0.0543(4) 1.0321(2)
C25 C 0.7527(3) 0.8758(2) 0.99530(16)
C26 C 0.6891(3) 0.9145(3) 0.96480(19)
C27 C 1.0151(3) 0.39047(19) 0.76264(13)
C28 C 0.9446(3) 0.3817(2) 0.72915(14)
C29 C 0.9550(4) 0.3976(3) 0.68369(16)
C30 C 1.0341(4) 0.4221(3) 0.67133(16)
C31 C 1.1040(3) 0.4323(3) 0.70415(17)
C32 C 1.0945(3) 0.4160(2) 0.74998(14)
C33 C 0.9920(3) 0.1932(2) 0.74058(15)
C34 C 0.9818(4) 0.1775(4) 0.6904(2)
C35 C 0.7271(3) 0.6867(2) 1.19944(15)
C36 C 0.6501(4) 0.6803(3) 1.22896(19)
C37 C 1.0410(3) 0.0572(2) 0.84781(15)
C38 C 0.9793(4) 0.0436(2) 0.81101(16)
C39 C 0.9902(4) -0.0060(3) 0.78311(19)
C40 C 1.0624(5) -0.0434(3) 0.7917(2)
C41 C 1.1258(4) -0.0317(3) 0.8279(2)
C42 C 1.1155(3) 0.0198(2) 0.85610(17)
C43 C 1.2691(3) 0.1476(2) 0.84213(15)
C44 C 1.3345(3) 0.1050(2) 0.82256(17)
C45 C 1.4106(4) 0.0847(3) 0.8549(2)
C46 C 0.6147(3) 0.7024(2) 1.05881(14)
C47 C 0.5510(3) 0.7550(2) 1.06480(16)
C48 C 0.5011(4) 0.7472(3) 1.1078(2)
Mn3B Mn 1.14657(3) 0.66370(3) 1.106542(19)
Mn4B Mn 1.13074(4) 0.80330(3) 1.06887(2)
Mn8B Mn 1.04122(3) 0.41919(3) 0.925030(18)
Mn10B Mn 0.88604(4) 0.76747(3) 1.180027(19)
P3B P 0.97721(7) 0.87595(5) 1.11745(4)
P4B P 0.99527(6) 0.63817(5) 1.17976(3)
O10B O 0.47065(15) 0.48307(13) 0.93734(9)
O15B O 0.96084(15) 0.35210(12) 0.93228(8)
O18B O 0.97496(16) 0.22521(13) 0.96285(9)
O25B O 0.9844(2) 0.11108(15) 1.00856(10)
O32B O 1.05052(14) 0.52273(12) 1.09358(8)
O33B O 1.08238(16) 0.38736(13) 0.85213(8)
O35B O 1.15610(15) 0.26097(12) 0.87881(8)
O38B O 0.79521(19) 0.71480(15) 1.21466(9)
O40B O 1.10502(17) 0.13543(13) 0.91575(9)
O41B O 1.28901(17) 0.16710(14) 0.88300(10)
C1B C 0.4489(2) 0.52555(19) 1.06971(12)
C23B C 1.1019(3) 0.8921(3) 0.99387(17)
C35B C 1.2729(3) 0.3133(2) 0.80056(15)
C43B C 0.7309(3) 0.8524(2) 1.15787(15)
loop_
_geom_bond_atom_site_label_1
_geom_bond_atom_site_label_2
_geom_bond_site_symmetry_1
_geom_bond_site_symmetry_2
Mn1 O1 1_555 1_555
Mn2 O3 1_555 1_555
Mn3 O11 1_555 1_555
Mn4 O13 1_555 1_555
Mn5 O20 1_555 1_555
Mn6 Mn7 1_555 1_555
Mn7 Mn8 1_555 1_555
Mn8 O8 1_555 1_555
Mn9 O9 1_555 1_555
Mn10 O20 1_555 1_555
Mn11 Mn6 1_555 1_555
P1 O3 1_555 1_555
P2 O5 1_555 1_555
P3 O17 1_555 1_555
P4 O14 1_555 1_555
O2 Mn1 1_555 1_555
O3 Mn1 1_555 1_555
O4 Mn1 1_555 1_555
O5 Mn2 1_555 1_555
O6 Mn2 1_555 1_555
O7 Mn2 1_555 1_555
O8 P1 1_555 1_555
O9 P1 1_555 1_555
O10 Mn1 1_555 1_555
O11 C16 1_555 1_555
O12 Mn3 1_555 1_555
O13 Mn3 1_555 1_555
O14 Mn3 1_555 1_555
O15 Mn7 1_555 1_555
O16 Mn4 1_555 1_555
O17 Mn4 1_555 1_555
O18 Mn6 1_555 1_555
O19 Mn4 1_555 1_555
O20 P3 1_555 1_555
O21 Mn5 1_555 1_555
O22 Mn5 1_555 1_555
O23 Mn5 1_555 1_555
O24 Mn5 1_555 1_555
O25 Mn6 1_555 1_555
O26 Mn6 1_555 1_555
O27 Mn6 1_555 1_555
O28 Mn6 1_555 1_555
O29 Mn7 1_555 1_555
O30 Mn7 1_555 1_555
O31 Mn8 1_555 1_555
O32 P2 1_555 1_555
O33 Mn8 1_555 1_555
O34 Mn9 1_555 1_555
O35 Mn9 1_555 1_555
O36 Mn10 1_555 1_555
O37 Mn10 1_555 1_555
O38 Mn10 1_555 1_555
O39 Mn9 1_555 1_555
O40 Mn11 1_555 1_555
O41 Mn11 1_555 1_555
O42 Mn11 1_555 1_555
O43 Mn1 1_555 1_555
O44 Mn3 1_555 1_555
C1 O4 1_555 1_555
C2 C1 1_555 1_555
C3 C2 1_555 1_555
C4 P1 1_555 1_555
C5 C4 1_555 1_555
C6 C5 1_555 1_555
C7 C6 1_555 1_555
C8 C7 1_555 1_555
C9 C4 1_555 1_555
C10 P2 1_555 1_555
C11 C10 1_555 1_555
C12 C11 1_555 1_555
C13 C12 1_555 1_555
C14 C13 1_555 1_555
C15 C10 1_555 1_555
C16 O22 1_555 1_555
C17 C16 1_555 1_555
C18 C17 1_555 1_555
C19 O16 1_555 1_555
C20 C19 1_555 1_555
C21 O26 1_555 1_555
C22 C21 1_555 1_555
C23 O19 1_555 1_555
C24 C23 1_555 1_555
C25 O27 1_555 1_555
C26 C25 1_555 1_555
C27 P4 1_555 1_555
C28 C27 1_555 1_555
C29 C28 1_555 1_555
C30 C29 1_555 1_555
C31 C30 1_555 1_555
C32 C27 1_555 1_555
C33 O24 1_555 1_555
C34 C33 1_555 1_555
C35 O34 1_555 1_555
C36 C35 1_555 1_555
C37 P3 1_555 1_555
C38 C37 1_555 1_555
C39 C38 1_555 1_555
C40 C39 1_555 1_555
C41 C40 1_555 1_555
C42 C37 1_555 1_555
C43 O37 1_555 1_555
C44 C43 1_555 1_555
C45 C44 1_555 1_555
C46 O39 1_555 1_555
C47 C46 1_555 1_555
C48 C47 1_555 1_555
Mn3B O15 1_555 1_555
Mn4B O18 1_555 1_555
Mn8B O32 1_555 1_555
Mn10B O35 1_555 1_555
P3B O40 1_555 1_555
P4B O33 1_555 1_555
O10B C1 1_555 1_555
O15B Mn3 1_555 1_555
O18B Mn4 1_555 1_555
O25B C23 1_555 1_555
O32B Mn8 1_555 1_555
O33B P4 1_555 1_555
O35B Mn10 1_555 1_555
O38B C35 1_555 1_555
O40B P3 1_555 1_555
O41B C43 1_555 1_555
C1B O10 1_555 1_555
C23B O25 1_555 1_555
C35B O38 1_555 1_555
C43B O41 1_555 1_555
Mn2 O4 1_555 1_555
Mn4 O44 1_555 1_555
Mn5 O44 1_555 1_555
Mn7 O18 1_555 1_555
Mn7 O28 1_555 1_555
Mn8 O15 1_555 1_555
Mn8 O30 1_555 1_555
Mn9 O30 1_555 1_555
Mn9 O33 1_555 1_555
Mn10 O21 1_555 1_555
Mn11 O28 1_555 1_555
Mn11 O35 1_555 1_555
Mn11 O39 1_555 1_555
P2 O12 1_555 1_555
P4 O21 1_555 1_555
O23 C19 1_555 1_555
O29 C21 1_555 1_555
O36 C33 1_555 1_555
O42 C25 1_555 1_555
O43 C46 1_555 1_555
C8 C9 1_555 1_555
C14 C15 1_555 1_555
C31 C32 1_555 1_555
C41 C42 1_555 1_555
Mn8B O15B 1_555 1_555
Mn8B O33B 1_555 1_555
Mn10B O38B 1_555 1_555

#END
