
#######################################################################
#
#                 Cambridge Crystallographic Data Centre
#                                CCDC 
#
#######################################################################
#
# If this CIF has been generated from an entry in the Cambridge 
# Structural Database, then it will include bibliographic, chemical, 
# crystal, experimental, refinement or atomic coordinate data resulting 
# from the CCDC's data processing and validation procedures.
#
#######################################################################

data_TISHIN
_symmetry_cell_setting           orthorhombic
_symmetry_space_group_name_H-M   'F d d 2'
_symmetry_Int_Tables_number      43
_space_group_name_Hall           'F 2 -2d'
loop_
_symmetry_equiv_pos_site_id
_symmetry_equiv_pos_as_xyz
1 x,y,z
2 -x,-y,z
3 1/4-x,1/4+y,1/4+z
4 1/4+x,1/4-y,1/4+z
5 x,1/2+y,1/2+z
6 -x,1/2-y,1/2+z
7 1/4-x,3/4+y,3/4+z
8 1/4+x,3/4-y,3/4+z
9 1/2+x,y,1/2+z
10 1/2-x,-y,1/2+z
11 3/4-x,1/4+y,3/4+z
12 3/4+x,1/4-y,3/4+z
13 1/2+x,1/2+y,z
14 1/2-x,1/2-y,z
15 3/4-x,3/4+y,1/4+z
16 3/4+x,3/4-y,1/4+z
_cell_length_a                   33.573(7)
_cell_length_b                   46.947(11)
_cell_length_c                   9.467(2)
_cell_angle_alpha                90
_cell_angle_beta                 90
_cell_angle_gamma                90
_cell_volume                     14921.4
loop_
_atom_site_label
_atom_site_type_symbol
_atom_site_fract_x
_atom_site_fract_y
_atom_site_fract_z
Ag1 Ag -0.104690(16) -0.133580(11) -0.08032(5)
Ag2 Ag -0.256900(18) -0.282040(13) -0.46140(9)
N1 N -0.09859(17) -0.38449(11) -0.6760(6)
N2 N -0.07020(17) -0.37918(9) -0.4706(6)
N3 N -0.16861(15) -0.28791(13) -0.1424(6)
N4 N -0.21985(18) -0.28504(14) -0.2818(8)
N5 N -0.34966(13) -0.27489(11) -0.7588(5)
N6 N -0.29524(17) -0.27795(13) -0.6354(8)
N7 N -0.02336(15) -0.14950(10) -0.4149(5)
N8 N -0.05828(15) -0.13652(11) -0.2306(5)
C1 C -0.0975(2) -0.36852(12) -0.5595(7)
H1 H -0.1135 -0.3522 -0.5422
C2 C -0.0735(2) -0.40590(15) -0.6578(8)
H2 H -0.0694 -0.4210 -0.7228
C3 C -0.0547(2) -0.40306(14) -0.5343(8)
H3 H -0.0346 -0.4152 -0.4976
C4 C -0.0606(3) -0.36986(13) -0.3263(8)
H4 H -0.0784 -0.3796 -0.2585
H5 H -0.0328 -0.3753 -0.3036
C5 C -0.0652(2) -0.33794(11) -0.3111(6)
C6 C -0.03876(16) -0.31879(11) -0.3794(6)
C7 C -0.04319(14) -0.28965(11) -0.3556(5)
C8 C -0.07147(16) -0.27949(12) -0.2596(5)
C9 C -0.09703(15) -0.29824(15) -0.1931(6)
C10 C -0.09478(19) -0.32701(16) -0.2203(6)
C11 C -0.49295(19) -0.16983(17) -0.4761(8)
H6 H -0.4823 -0.1683 -0.5722
H7 H -0.5158 -0.1828 -0.4759
H8 H -0.5014 -0.1510 -0.4432
C12 C -0.01598(17) -0.26939(14) -0.4350(9)
H9 H -0.5040 -0.2377 -0.3668
H10 H -0.4986 -0.2192 -0.5062
C13 C -0.0718(2) -0.24819(16) -0.2210(9)
H11 H -0.0446 -0.2419 -0.2011
H12 H -0.0827 -0.2371 -0.2999
H13 H -0.0884 -0.2453 -0.1370
C14 C -0.1283(2) -0.2862(2) -0.0872(7)
H14 H -0.3781 -0.2339 -0.0662
H15 H -0.3733 -0.2030 0.0023
C15 C -0.3754(3) -0.1529(2) -0.1460(12)
H16 H -0.3482 -0.1594 -0.1647
H17 H -0.3788 -0.1335 -0.1823
H18 H -0.3804 -0.1531 -0.0440
C16 C -0.1814(2) -0.28528(18) -0.2729(8)
H19 H -0.3358 -0.2163 -0.3523
C17 C -0.2989(2) -0.20994(17) -0.0557(8)
H20 H -0.2987 -0.2078 0.0440
C18 C -0.2672(2) -0.2115(2) -0.1420(10)
H21 H -0.2401 -0.2104 -0.1128
C19 C -0.03325(14) -0.24343(11) -0.5112(5)
C20 C -0.01569(14) -0.21655(11) -0.4953(5)
C21 C -0.03092(15) -0.19272(11) -0.5662(5)
C22 C -0.43676(15) -0.30498(12) -0.6567(5)
C23 C -0.42091(15) -0.27718(13) -0.6836(5)
C24 C -0.06525(14) -0.24640(12) -0.6085(5)
C25 C -0.51934(18) -0.28701(13) -0.3972(7)
H22 H -0.5148 -0.2759 -0.3109
H23 H -0.5436 -0.2802 -0.4440
H24 H -0.5224 -0.3072 -0.3730
C26 C -0.01102(17) -0.16404(13) -0.5462(6)
H25 H -0.4825 -0.3483 -0.6279
H26 H -0.5182 -0.3332 -0.5447
C27 C -0.0828(2) -0.16919(19) -0.7203(10)
H27 H -0.0777 -0.1526 -0.6603
H28 H -0.0718 -0.1658 -0.8148
H29 H -0.1116 -0.1724 -0.7273
C28 C -0.39167(17) -0.27363(18) -0.8019(6)
H30 H -0.1034 -0.2450 -0.8481
H31 H -0.1034 -0.2113 -0.8729
C29 C -0.08517(19) -0.27508(15) -0.6292(7)
H32 H -0.1054 -0.2779 -0.5559
H33 H -0.0978 -0.2757 -0.7224
H34 H -0.0651 -0.2902 -0.6226
C30 C -0.33492(17) -0.27779(14) -0.6311(7)
H35 H -0.1496 -0.2205 -0.5474
C31 C -0.1815(2) -0.22694(13) -0.8517(8)
H36 H -0.1799 -0.2294 -0.9511
C32 C -0.2149(2) -0.22448(17) -0.7730(9)
H37 H -0.2413 -0.2245 -0.8088
C33 C -0.05545(15) -0.15519(11) -0.3338(6)
H38 H -0.4266 -0.3295 -0.3491
C34 C -0.4946(2) -0.37362(18) -0.3558(9)
H39 H -0.5180 -0.3827 -0.3892
C35 C -0.4735(2) -0.38131(15) -0.2430(8)
H40 H -0.4796 -0.3967 -0.1815
Ag1N Ag -0.145310(16) -0.383580(11) -0.83032(5)
Ag1O Ag -0.354690(16) -0.116420(11) -0.83032(5)
Ag1M Ag -0.395310(16) -0.366420(11) -0.08032(5)
Ag2M Ag -0.243100(18) -0.217960(13) -0.46140(9)
N1J N -0.15141(17) -0.13449(11) 0.0740(6)
N1M N -0.40141(17) -0.11551(11) -0.6760(6)
N2M N -0.42980(17) -0.12082(9) -0.4706(6)
N3M N -0.33139(15) -0.21209(13) -0.1424(6)
N4M N -0.28015(18) -0.21496(14) -0.2818(8)
N5M N -0.15034(13) -0.22511(11) -0.7588(5)
N6M N -0.20476(17) -0.22205(13) -0.6354(8)
N7M N -0.47664(15) -0.35050(10) -0.4149(5)
N8N N -0.19172(15) -0.38652(11) -0.9806(5)
N8M N -0.44172(15) -0.36348(11) -0.2306(5)
C1M C -0.4025(2) -0.13148(12) -0.5595(7)
H1M H -0.3865 -0.1478 -0.5422
C2M C -0.4265(2) -0.09410(15) -0.6578(8)
H2M H -0.4306 -0.0790 -0.7228
C3M C -0.4453(2) -0.09694(14) -0.5343(8)
H3M H -0.4654 -0.0848 -0.4976
C4M C -0.4394(3) -0.13014(13) -0.3263(8)
H4M H -0.4216 -0.1204 -0.2585
H5M H -0.4672 -0.1247 -0.3036
C5M C -0.4348(2) -0.16206(11) -0.3111(6)
C6M C -0.46124(16) -0.18121(11) -0.3794(6)
C7M C -0.45681(14) -0.21035(11) -0.3556(5)
C8M C -0.42853(16) -0.22051(12) -0.2596(5)
C9M C -0.40297(15) -0.20176(15) -0.1931(6)
C10M C -0.40522(19) -0.17299(16) -0.2203(6)
C11M C -0.00705(19) -0.33017(17) -0.4761(8)
H6M H -0.0177 -0.3317 -0.5722
H7M H 0.0158 -0.3172 -0.4759
H8M H 0.0014 -0.3490 -0.4432
C12M C -0.48402(17) -0.23061(14) -0.4350(9)
H9M H 0.0040 -0.2623 -0.3668
H10M H -0.0014 -0.2808 -0.5062
C13M C -0.4282(2) -0.25181(16) -0.2210(9)
H11M H -0.4554 -0.2581 -0.2011
H12M H -0.4173 -0.2629 -0.2999
H13M H -0.4116 -0.2547 -0.1370
C14M C -0.3717(2) -0.2138(2) -0.0872(7)
H14M H -0.1219 -0.2661 -0.0662
H15M H -0.1267 -0.2970 0.0023
C15M C -0.1246(3) -0.3471(2) -0.1460(12)
H16M H -0.1518 -0.3406 -0.1647
H17M H -0.1212 -0.3665 -0.1823
H18M H -0.1196 -0.3469 -0.0440
C16M C -0.3186(2) -0.21472(18) -0.2729(8)
H19M H -0.1642 -0.2837 -0.3523
C17M C -0.2011(2) -0.29006(17) -0.0557(8)
H20M H -0.2013 -0.2922 0.0440
C18M C -0.2328(2) -0.2885(2) -0.1420(10)
H21M H -0.2599 -0.2896 -0.1128
C19M C -0.46675(14) -0.25657(11) -0.5112(5)
C20M C -0.48431(14) -0.28345(11) -0.4953(5)
C21M C -0.46908(15) -0.30728(11) -0.5662(5)
C22M C -0.06324(15) -0.19502(12) -0.6567(5)
C23M C -0.07909(15) -0.22282(13) -0.6836(5)
C24M C -0.43475(14) -0.25360(12) -0.6085(5)
C25M C 0.01934(18) -0.21299(13) -0.3972(7)
H22M H 0.0148 -0.2241 -0.3109
H23M H 0.0436 -0.2198 -0.4440
H24M H 0.0224 -0.1928 -0.3730
C26M C -0.48898(17) -0.33596(13) -0.5462(6)
H25M H -0.0175 -0.1517 -0.6279
H26M H 0.0182 -0.1668 -0.5447
C27M C -0.4172(2) -0.33081(19) -0.7203(10)
H27M H -0.4223 -0.3474 -0.6603
H28M H -0.4282 -0.3342 -0.8148
H29M H -0.3884 -0.3276 -0.7273
C28M C -0.10833(17) -0.22637(18) -0.8019(6)
H30M H -0.3966 -0.2550 -0.8481
H31M H -0.3966 -0.2887 -0.8729
C29M C -0.41483(19) -0.22492(15) -0.6292(7)
H32M H -0.3946 -0.2221 -0.5559
H33M H -0.4022 -0.2243 -0.7224
H34M H -0.4349 -0.2098 -0.6226
C30M C -0.16508(17) -0.22221(14) -0.6311(7)
H35M H -0.3504 -0.2795 -0.5474
C31M C -0.3185(2) -0.27306(13) -0.8517(8)
H36M H -0.3201 -0.2706 -0.9511
C32M C -0.2851(2) -0.27552(17) -0.7730(9)
H37M H -0.2587 -0.2755 -0.8088
C33M C -0.44455(15) -0.34481(11) -0.3338(6)
H38M H -0.0734 -0.1705 -0.3491
C34M C -0.0054(2) -0.12638(18) -0.3558(9)
H39M H 0.0180 -0.1173 -0.3892
C35M C -0.0265(2) -0.11869(15) -0.2430(8)
H40M H -0.0204 -0.1033 -0.1815
O1 O 0.0978(3) 0.0710(2) -0.0319(9)
O2 O 0.0787(6) 0.0626(7) 0.169(2)
O3 O 0.0476(6) 0.0844(6) 0.063(2)
N9 N 0.0720(3) 0.0678(2) 0.0565(8)
O4 O 0.1712(3) 0.2143(4) -0.231(2)
O5 O 0.1308(5) 0.1934(3) -0.1411(14)
O6 O 0.1610(10) 0.1760(4) -0.330(3)
N10 N 0.1551(3) 0.1932(3) -0.2505(15)
O7 O 0.0228(6) 0.1013(2) 0.320(2)
loop_
_geom_bond_atom_site_label_1
_geom_bond_atom_site_label_2
_geom_bond_site_symmetry_1
_geom_bond_site_symmetry_2
Ag1 N8 1_555 1_555
Ag2 N4 1_555 1_555
O1 N9 1_555 1_555
O2 N9 1_555 1_555
O3 N9 1_555 1_555
O4 N10 1_555 1_555
O5 N10 1_555 1_555
O6 N10 1_555 1_555
N1 C1 1_555 1_555
N2 C1 1_555 1_555
N3 C14 1_555 1_555
N4 C16 1_555 1_555
N5 C28 1_555 1_555
N6 Ag2 1_555 1_555
N7 C26 1_555 1_555
N8 C33 1_555 1_555
C1 H1 1_555 1_555
C2 N1 1_555 1_555
H2 C2 1_555 1_555
C3 N2 1_555 1_555
H3 C3 1_555 1_555
C4 N2 1_555 1_555
H4 C4 1_555 1_555
H5 C4 1_555 1_555
C5 C4 1_555 1_555
C6 C5 1_555 1_555
C7 C6 1_555 1_555
C8 C7 1_555 1_555
C9 C8 1_555 1_555
C10 C5 1_555 1_555
C11 H6 1_555 1_555
H7 C11 1_555 1_555
H8 C11 1_555 1_555
C12 C7 1_555 1_555
H9 C12M 1_555 1_555
H10 C12M 1_555 1_555
C13 C8 1_555 1_555
H11 C13 1_555 1_555
H12 C13 1_555 1_555
H13 C13 1_555 1_555
C14 C9 1_555 1_555
H14 C14M 1_555 1_555
H15 C14M 1_555 1_555
C15 H16 1_555 1_555
H17 C15 1_555 1_555
H18 C15 1_555 1_555
C16 N3 1_555 1_555
H19 C16M 1_555 1_555
C17 H20 1_555 1_555
C18 C17 1_555 1_555
H21 C18 1_555 1_555
C19 C12 1_555 1_555
C20 C19 1_555 1_555
C21 C20 1_555 1_555
C22 C23 1_555 1_555
C23 C28 1_555 1_555
C24 C19 1_555 1_555
C25 H22 1_555 1_555
H23 C25 1_555 1_555
H24 C25 1_555 1_555
C26 C21 1_555 1_555
H25 C26M 1_555 1_555
H26 C26M 1_555 1_555
C27 H27 1_555 1_555
H28 C27 1_555 1_555
H29 C27 1_555 1_555
C28 H30M 1_555 1_555
H30 C28M 1_555 1_555
H31 C28M 1_555 1_555
C29 C24 1_555 1_555
H32 C29 1_555 1_555
H33 C29 1_555 1_555
H34 C29 1_555 1_555
C30 N5 1_555 1_555
H35 C30M 1_555 1_555
C31 H36 1_555 1_555
C32 C31 1_555 1_555
H37 C32 1_555 1_555
C33 N7 1_555 1_555
H38 C33M 1_555 1_555
C34 H39 1_555 1_555
C35 C34 1_555 1_555
H40 C35 1_555 1_555
Ag1N N1 1_555 1_555
Ag1O N1M 1_555 1_555
Ag1M N8M 1_555 1_555
Ag2M N4M 1_555 1_555
N1J Ag1 1_555 1_555
N1M C1M 1_555 1_555
N2M C1M 1_555 1_555
N3M C17 1_555 1_555
N4M C18 1_555 1_555
N5M C31 1_555 1_555
N6M C32 1_555 1_555
N7M C34 1_555 1_555
N8N Ag1N 1_555 1_555
N8M C35 1_555 1_555
C1M H1M 1_555 1_555
C2M N1M 1_555 1_555
H2M C2M 1_555 1_555
C3M N2M 1_555 1_555
H3M C3M 1_555 1_555
C4M N2M 1_555 1_555
H4M C4M 1_555 1_555
H5M C4M 1_555 1_555
C5M C4M 1_555 1_555
C6M C11 1_555 1_555
C7M C6M 1_555 1_555
C8M C7M 1_555 1_555
C9M C8M 1_555 1_555
C10M C15 1_555 1_555
C11M C6 1_555 1_555
H6M C11M 1_555 1_555
H7M C11M 1_555 1_555
H8M C11M 1_555 1_555
C12M C7M 1_555 1_555
H9M C12 1_555 1_555
H10M C12 1_555 1_555
C13M C8M 1_555 1_555
H11M C13M 1_555 1_555
H12M C13M 1_555 1_555
H13M C13M 1_555 1_555
C14M N3M 1_555 1_555
H14M C14 1_555 1_555
H15M C14 1_555 1_555
C15M C10 1_555 1_555
H16M C15M 1_555 1_555
H17M C15M 1_555 1_555
H18M C15M 1_555 1_555
C16M N3M 1_555 1_555
H19M C16 1_555 1_555
C17M N3 1_555 1_555
H20M C17M 1_555 1_555
C18M N4 1_555 1_555
H21M C18M 1_555 1_555
C19M C12M 1_555 1_555
C20M C25 1_555 1_555
C21M C22 1_555 1_555
C22M C21 1_555 1_555
C23M C24 1_555 1_555
C24M C23 1_555 1_555
C25M C20 1_555 1_555
H22M C25M 1_555 1_555
H23M C25M 1_555 1_555
H24M C25M 1_555 1_555
C26M N7M 1_555 1_555
H25M C26 1_555 1_555
H26M C26 1_555 1_555
C27M C22 1_555 1_555
H27M C27M 1_555 1_555
H28M C27M 1_555 1_555
H29M C27M 1_555 1_555
C28M N5M 1_555 1_555
H31M C28 1_555 1_555
C29M C24M 1_555 1_555
H32M C29M 1_555 1_555
H33M C29M 1_555 1_555
H34M C29M 1_555 1_555
C30M N5M 1_555 1_555
H35M C30 1_555 1_555
C31M N5 1_555 1_555
H36M C31M 1_555 1_555
C32M N6 1_555 1_555
H37M C32M 1_555 1_555
C33M N7M 1_555 1_555
H38M C33 1_555 1_555
C34M N7 1_555 1_555
H39M C34M 1_555 1_555
C35M N8 1_555 1_555
H40M C35M 1_555 1_555
N6 C30 1_555 1_555
C2 C3 1_555 1_555
C9 C10 1_555 1_555
C27 C22M 1_555 1_555
Ag2M N6M 1_555 1_555
N4M C16M 1_555 1_555
N6M C30M 1_555 1_555
N8M C33M 1_555 1_555
C2M C3M 1_555 1_555
C5M C6M 1_555 1_555
C5M C10M 1_555 1_555
C9M C10M 1_555 1_555
C9M C14M 1_555 1_555
C17M C18M 1_555 1_555
C19M C20M 1_555 1_555
C19M C24M 1_555 1_555
C20M C21M 1_555 1_555
C21M C26M 1_555 1_555
C22M C23M 1_555 1_555
C23M C28M 1_555 1_555
C31M C32M 1_555 1_555
C34M C35M 1_555 1_555

#END
