
#######################################################################
#
#                 Cambridge Crystallographic Data Centre
#                                CCDC 
#
#######################################################################
#
# If this CIF has been generated from an entry in the Cambridge 
# Structural Database, then it will include bibliographic, chemical, 
# crystal, experimental, refinement or atomic coordinate data resulting 
# from the CCDC's data processing and validation procedures.
#
#######################################################################

data_TISKUC
_symmetry_cell_setting           orthorhombic
_symmetry_space_group_name_H-M   'P n m a'
_symmetry_Int_Tables_number      62
_space_group_name_Hall           '-P 2ac 2n'
loop_
_symmetry_equiv_pos_site_id
_symmetry_equiv_pos_as_xyz
1 x,y,z
2 1/2-x,-y,1/2+z
3 -x,1/2+y,-z
4 1/2+x,1/2-y,1/2-z
5 -x,-y,-z
6 1/2+x,y,1/2-z
7 x,1/2-y,z
8 1/2-x,1/2+y,1/2+z
_cell_length_a                   7.7740(10)
_cell_length_b                   10.2050(13)
_cell_length_c                   17.143(2)
_cell_angle_alpha                90
_cell_angle_beta                 90
_cell_angle_gamma                90
_cell_volume                     1360.02
loop_
_atom_site_label
_atom_site_type_symbol
_atom_site_fract_x
_atom_site_fract_y
_atom_site_fract_z
Zn1 Zn 0.45082(13) 0.2500 0.73925(6)
Zn2 Zn 0.66086(14) -0.2500 0.91603(6)
S1 S 0.1052(5) -0.2500 0.8470(3)
C1 C 0.3662(13) 0.2500 0.9173(5)
H1 H 0.4845 0.2500 0.9256
C2 C 0.1022(13) 0.2500 0.9361(5)
H2 H -0.0046 0.2500 0.9606
C3 C 0.5600(8) -0.0137(6) 0.8246(4)
H3 H 0.4470 -0.0434 0.8227
C4 C 0.8241(8) -0.0020(7) 0.8473(4)
H4 H 0.9347 -0.0213 0.8645
C5 C 0.2788(14) -0.2500 0.9006(8)
N1 N 0.6104(7) 0.0968(5) 0.7934(3)
N2 N 0.7836(7) 0.1046(5) 0.8083(3)
N3 N 0.2968(10) 0.2500 0.8471(4)
N4 N 0.4048(12) -0.2500 0.9318(6)
N5 N 0.6877(7) -0.0799(5) 0.8596(3)
N6 N 0.1234(10) 0.2500 0.8595(5)
N7 N 0.2538(11) 0.2500 0.9745(4)
Zn1E Zn 0.95082(13) 0.2500 0.76075(6)
Zn1E_2 Zn -0.04918(13) 0.2500 0.76075(6)
Zn2D Zn 0.33914(14) 0.2500 1.08397(6)
Zn2_2 Zn 0.66086(14) 0.7500 0.91603(6)
C3F C 0.5600(8) 0.5137(6) 0.8246(4)
H3F H 0.4470 0.5434 0.8227
C4F C 0.8241(8) 0.5020(7) 0.8473(4)
H4F H 0.9347 0.5213 0.8645
N1F N 0.6104(7) 0.4032(5) 0.7934(3)
N2F N 0.7836(7) 0.3954(5) 0.8083(3)
N2E N 0.2836(7) 0.1046(5) 0.6917(3)
N2C N 0.2836(7) 0.3954(5) 0.6917(3)
N5F N 0.6877(7) 0.5799(5) 0.8596(3)
N5F_2 N 0.6877(7) -0.4201(5) 0.8596(3)
N6E N 0.6234(10) 0.2500 0.6405(5)
N7D N 0.7462(11) -0.2500 1.0255(4)
loop_
_geom_bond_atom_site_label_1
_geom_bond_atom_site_label_2
_geom_bond_site_symmetry_1
_geom_bond_site_symmetry_2
Zn1 N1 1_555 1_555
Zn2 N4 1_555 1_555
S1 C5 1_555 1_555
C1 H1 1_555 1_555
C2 H2 1_555 1_555
C3 H3 1_555 1_555
C4 H4 1_555 1_555
C5 N4 1_555 1_555
N1 C3 1_555 1_555
N2 C4 1_555 1_555
N3 Zn1 1_555 1_555
N5 Zn2 1_555 1_555
N6 C2 1_555 1_555
N7 C1 1_555 1_555
Zn1E N2 1_555 1_555
Zn1E_2 N6 1_555 1_555
Zn2D N7 1_555 1_555
Zn2_2 N5F 1_555 1_555
C3F H3F 1_555 1_555
C4F H4F 1_555 1_555
N1F Zn1 1_555 1_555
N2F Zn1E 1_555 1_555
N2E Zn1 1_555 1_555
N2C Zn1 1_555 1_555
N5F C3F 1_555 1_555
N5F_2 Zn2 1_555 1_555
N6E Zn1 1_555 1_555
N7D Zn2 1_555 1_555
C1 N3 1_555 1_555
C2 N7 1_555 1_555
C3 N5 1_555 1_555
C4 N5 1_555 1_555
N1 N2 1_555 1_555
N3 N6 1_555 1_555
C3F N1F 1_555 1_555
C4F N2F 1_555 1_555
C4F N5F 1_555 1_555
N1F N2F 1_555 1_555

#END
