
#######################################################################
#
#                 Cambridge Crystallographic Data Centre
#                                CCDC 
#
#######################################################################
#
# If this CIF has been generated from an entry in the Cambridge 
# Structural Database, then it will include bibliographic, chemical, 
# crystal, experimental, refinement or atomic coordinate data resulting 
# from the CCDC's data processing and validation procedures.
#
#######################################################################

data_TISLUD
_symmetry_cell_setting           monoclinic
_symmetry_space_group_name_H-M   'P 21/c'
_symmetry_Int_Tables_number      14
_space_group_name_Hall           '-P 2ybc'
loop_
_symmetry_equiv_pos_site_id
_symmetry_equiv_pos_as_xyz
1 x,y,z
2 -x,1/2+y,1/2-z
3 -x,-y,-z
4 x,1/2-y,1/2+z
_cell_length_a                   4.2314(8)
_cell_length_b                   10.732(2)
_cell_length_c                   18.842(4)
_cell_angle_alpha                90
_cell_angle_beta                 91.697(4)
_cell_angle_gamma                90
_cell_volume                     855.266
loop_
_atom_site_label
_atom_site_type_symbol
_atom_site_fract_x
_atom_site_fract_y
_atom_site_fract_z
Ag1 Ag 1.2144(2) 0.14004(8) 0.47654(4)
Ag2 Ag 0.7482(2) 0.39525(12) 0.45993(5)
Cl1 Cl 1.2983(5) -0.04571(19) 0.58468(11)
Cl2 Cl 0.3302(5) 0.36259(19) 0.36805(10)
S1 S 1.1739(5) 0.33989(19) 0.54680(9)
N1 N 0.7829(18) 0.2687(8) 0.7611(4)
H1 H 0.71(2) 0.252(10) 0.799(6)
C1 C 1.102(2) 0.3861(8) 0.6874(4)
H2 H 1.2396 0.4527 0.6816
C2 C 0.981(2) 0.3630(9) 0.7525(4)
H3 H 1.0381 0.4135 0.7909
C3 C 1.0212(17) 0.3105(7) 0.6299(4)
C4 C 0.700(2) 0.1916(9) 0.7079(5)
H4 H 0.5632 0.1256 0.7160
C5 C 0.8171(19) 0.2104(8) 0.6413(4)
H5 H 0.7610 0.1569 0.6042
Ag1B Ag 0.7856(2) -0.14004(8) 0.52346(4)
Ag1B_2 Ag 1.7856(2) -0.14004(8) 0.52346(4)
Ag2B Ag 1.2518(2) 0.60475(12) 0.54007(5)
Cl1B Cl 0.7017(5) 0.04571(19) 0.41532(11)
Cl1B_2 Cl 1.7017(5) 0.04571(19) 0.41532(11)
S1B S 0.8261(5) 0.66011(19) 0.45320(9)
loop_
_geom_bond_atom_site_label_1
_geom_bond_atom_site_label_2
_geom_bond_site_symmetry_1
_geom_bond_site_symmetry_2
Ag1 Cl1 1_555 1_555
Ag2 Cl2 1_555 1_555
Cl1 Ag1B 1_555 1_555
S1 Ag1 1_555 1_555
N1 H1 1_555 1_555
C1 H2 1_555 1_555
C2 N1 1_555 1_555
H3 C2 1_555 1_555
C3 S1 1_555 1_555
C4 N1 1_555 1_555
H4 C4 1_555 1_555
C5 C3 1_555 1_555
H5 C5 1_555 1_555
Ag1B Cl1B 1_555 1_555
Ag1B_2 Cl1 1_555 1_555
Ag2B S1 1_555 1_555
Cl1B Ag1 1_555 1_555
Cl1B_2 Ag1 1_555 1_555
S1B Ag2 1_555 1_555
Ag2 S1 1_555 1_555
C1 C2 1_555 1_555
C1 C3 1_555 1_555
C4 C5 1_555 1_555
Ag1B_2 Cl1B_2 1_555 1_555
Ag2B S1B 1_555 1_555

#END
