
#######################################################################
#
#                 Cambridge Crystallographic Data Centre
#                                CCDC 
#
#######################################################################
#
# If this CIF has been generated from an entry in the Cambridge 
# Structural Database, then it will include bibliographic, chemical, 
# crystal, experimental, refinement or atomic coordinate data resulting 
# from the CCDC's data processing and validation procedures.
#
#######################################################################

data_TISNAM
_symmetry_cell_setting           triclinic
_symmetry_space_group_name_H-M   'P -1'
_symmetry_Int_Tables_number      2
_space_group_name_Hall           '-P 1'
loop_
_symmetry_equiv_pos_site_id
_symmetry_equiv_pos_as_xyz
1 x,y,z
2 -x,-y,-z
_cell_length_a                   10.1260(4)
_cell_length_b                   14.1160(4)
_cell_length_c                   18.1800(6)
_cell_angle_alpha                94.156(2)
_cell_angle_beta                 93.210(3)
_cell_angle_gamma                96.077(3)
_cell_volume                     2571.91
loop_
_atom_site_label
_atom_site_type_symbol
_atom_site_fract_x
_atom_site_fract_y
_atom_site_fract_z
Zn1 Zn 0.02339(3) 0.62770(2) 0.593170(18)
C1 C 0.1018(4) 0.4229(2) 0.73068(18)
H1 H 0.1391 0.4035 0.7742
C2 C 0.0020(3) 0.4200(2) 0.62311(16)
H2 H -0.0432 0.3993 0.5779
C3 C 0.0339(3) 0.2598(2) 0.66641(16)
C4 C 0.0522(3) 0.2107(2) 0.72907(16)
H3 H 0.0665 0.2433 0.7756
C5 C 0.0488(3) 0.1123(2) 0.72067(17)
C6 C 0.0229(4) 0.0638(2) 0.65128(18)
H4 H 0.0174 -0.0025 0.6461
C7 C 0.0057(4) 0.1141(3) 0.59068(19)
H5 H -0.0107 0.0814 0.5442
C8 C 0.0120(4) 0.2129(2) 0.59713(18)
H6 H 0.0018 0.2467 0.5555
C9 C 0.1021(4) 0.0960(2) 0.85109(17)
H7 H 0.1485 0.1597 0.8504
H8 H 0.1600 0.0573 0.8772
C10 C -0.0234(4) 0.1011(3) 0.89014(17)
H9 H -0.0717 0.1518 0.8729
H10 H -0.0803 0.0411 0.8819
C11 C -0.0787(4) 0.1299(2) 1.01539(18)
C12 C -0.0314(3) 0.1534(2) 1.08843(17)
H11 H 0.0594 0.1600 1.1015
C13 C -0.1217(3) 0.1666(2) 1.14099(17)
C14 C -0.2568(3) 0.1576(2) 1.12323(18)
H12 H -0.3166 0.1669 1.1594
C15 C -0.3013(4) 0.1342(3) 1.04969(19)
H13 H -0.3921 0.1280 1.0367
C16 C -0.2134(4) 0.1201(2) 0.99585(19)
H14 H -0.2445 0.1042 0.9469
C17 C -0.1091(3) 0.2605(2) 1.26392(17)
H15 H -0.1769 0.2981 1.2539
C18 C 0.0292(4) 0.1569(2) 1.25420(18)
H16 H 0.0758 0.1084 1.2350
C19 C -0.3641(3) 0.6185(2) 0.51085(16)
C20 C -0.4777(3) 0.6250(2) 0.54894(16)
H17 H -0.4720 0.6232 0.6000
C21 C -0.5993(3) 0.6342(2) 0.51345(16)
C22 C -0.6082(3) 0.6327(2) 0.43669(16)
H18 H -0.6895 0.6375 0.4116
C23 C -0.4961(3) 0.6239(2) 0.39782(17)
H19 H -0.5027 0.6224 0.3465
C24 C -0.3744(3) 0.6174(2) 0.43416(17)
H20 H -0.2994 0.6123 0.4074
C25 C -0.2349(3) 0.6140(2) 0.55497(18)
C26 C -0.7171(3) 0.6432(2) 0.55931(16)
N1 N 0.0354(3) 0.50852(18) 0.64684(13)
N2 N 0.0996(3) 0.51142(19) 0.71618(14)
N3 N 0.0427(3) 0.36218(17) 0.67400(13)
N4 N -0.0711(3) 0.19281(17) 1.21622(13)
N5 N -0.0374(3) 0.26578(18) 1.32605(14)
N6 N 0.0521(3) 0.19842(19) 1.32037(15)
O1 O 0.0715(3) 0.05501(16) 0.77697(12)
O2 O 0.0184(2) 0.12023(18) 0.96700(12)
O3 O -0.1282(2) 0.62313(17) 0.52066(12)
O4 O -0.2354(2) 0.6051(2) 0.62172(13)
O5 O -0.7002(2) 0.65396(18) 0.62733(11)
O6 O -0.8319(2) 0.64029(16) 0.52498(11)
Zn1_2 Zn -0.97661(3) 0.62770(2) 0.593170(18)
Zn1A Zn -0.02339(3) 0.37230(2) 1.406830(18)
N5A N 0.0374(3) 0.73422(18) 0.67395(14)
O6_2 O 0.1681(2) 0.64029(16) 0.52498(11)
Zn2 Zn 0.45158(4) 0.35353(3) 0.910204(18)
C27 C 0.4394(4) 0.0800(3) 0.8211(2)
H21 H 0.4520 0.0162 0.8249
C28 C 0.3960(3) 0.2095(2) 0.77686(17)
H22 H 0.3724 0.2543 0.7449
C29 C 0.3698(3) 0.0654(2) 0.68593(17)
C30 C 0.3867(4) 0.1130(2) 0.62305(18)
H23 H 0.4198 0.1773 0.6266
C31 C 0.3539(4) 0.0643(2) 0.55447(18)
C32 C 0.3083(4) -0.0323(2) 0.54933(19)
H24 H 0.2874 -0.0655 0.5034
C33 C 0.2941(4) -0.0784(2) 0.6130(2)
H25 H 0.2643 -0.1433 0.6095
C34 C 0.3231(4) -0.0308(2) 0.68180(19)
H26 H 0.3115 -0.0624 0.7245
C35 C 0.3374(4) 0.0733(3) 0.42377(18)
H27 H 0.2432 0.0508 0.4187
H28 H 0.3875 0.0194 0.4141
C36 C 0.3700(4) 0.1487(2) 0.37107(17)
H29 H 0.3140 0.1999 0.3774
H30 H 0.4625 0.1753 0.3788
C37 C 0.3700(4) 0.1495(2) 0.23945(17)
C38 C 0.4208(4) 0.2451(2) 0.24314(17)
H31 H 0.4414 0.2798 0.2885
C39 C 0.4403(3) 0.2876(2) 0.17788(16)
C40 C 0.4111(4) 0.2377(2) 0.11019(17)
H32 H 0.4265 0.2672 0.0669
C41 C 0.3584(4) 0.1432(3) 0.10748(18)
H33 H 0.3357 0.1094 0.0619
C42 C 0.3390(3) 0.0981(2) 0.17139(18)
H34 H 0.3054 0.0340 0.1690
C43 C 0.4745(3) 0.4477(2) 0.12798(16)
H35 H 0.4268 0.4315 0.0828
C44 C 0.5675(3) 0.4412(2) 0.23639(17)
H36 H 0.5961 0.4186 0.2807
C45 C 0.0782(3) 0.3695(2) 0.99012(16)
C46 C -0.0471(3) 0.3597(2) 0.95430(17)
H37 H -0.0558 0.3457 0.9034
C47 C -0.1597(3) 0.3702(2) 0.99233(18)
C48 C -0.1462(3) 0.3927(2) 1.06812(19)
H38 H -0.2211 0.4005 1.0943
C49 C -0.0218(3) 0.4033(2) 1.10468(18)
H39 H -0.0132 0.4185 1.1555
C50 C 0.0899(3) 0.3917(2) 1.06642(17)
H40 H 0.1733 0.3986 1.0916
C51 C 0.1967(3) 0.3573(2) 0.94595(15)
C52 C -0.2920(3) 0.3590(3) 0.9495(2)
N7 N 0.4296(3) 0.22847(18) 0.84694(14)
N8 N 0.4575(3) 0.1445(2) 0.87659(16)
N9 N 0.4001(3) 0.11586(18) 0.75702(14)
N10 N 0.4923(3) 0.38668(18) 0.18095(13)
N11 N 0.5334(3) 0.53145(18) 0.14949(13)
N12 N 0.5938(3) 0.5290(2) 0.21921(14)
O7 O 0.3730(3) 0.11774(17) 0.49554(13)
O8 O 0.3446(3) 0.09958(16) 0.29924(12)
O9 O 0.3114(2) 0.36728(16) 0.98054(11)
O10 O 0.1814(2) 0.33829(16) 0.87823(11)
O11 O -0.2986(3) 0.3420(3) 0.88201(16)
O12 O -0.3963(2) 0.36665(18) 0.98492(13)
Zn2_2 Zn -0.54842(4) 0.35353(3) 0.910204(18)
Zn2A Zn 0.54842(4) 0.64647(3) 0.089796(18)
N11A N 0.4666(3) 0.46855(18) 0.85051(13)
O12_2 O 0.6037(2) 0.36665(18) 0.98492(13)
O13 O -0.2376(6) 0.5153(7) 0.7495(3)
O14 O -0.2534(11) 0.3380(10) 0.7432(4)
O15 O -0.2835(8) 0.1590(9) 0.7671(6)
loop_
_geom_bond_atom_site_label_1
_geom_bond_atom_site_label_2
_geom_bond_site_symmetry_1
_geom_bond_site_symmetry_2
Zn1 N1 1_555 1_555
C1 H1 1_555 1_555
C2 H2 1_555 1_555
C3 C4 1_555 1_555
C4 H3 1_555 1_555
C5 C4 1_555 1_555
C6 C5 1_555 1_555
H4 C6 1_555 1_555
C7 C6 1_555 1_555
H5 C7 1_555 1_555
C8 C3 1_555 1_555
H6 C8 1_555 1_555
C9 H7 1_555 1_555
H8 C9 1_555 1_555
C10 C9 1_555 1_555
H9 C10 1_555 1_555
H10 C10 1_555 1_555
C11 C12 1_555 1_555
C12 H11 1_555 1_555
C13 C12 1_555 1_555
C14 C13 1_555 1_555
H12 C14 1_555 1_555
C15 C14 1_555 1_555
H13 C15 1_555 1_555
C16 C11 1_555 1_555
H14 C16 1_555 1_555
C17 H15 1_555 1_555
C18 H16 1_555 1_555
C19 C20 1_555 1_555
C20 H17 1_555 1_555
C21 C20 1_555 1_555
C22 C21 1_555 1_555
H18 C22 1_555 1_555
C23 C22 1_555 1_555
H19 C23 1_555 1_555
C24 C19 1_555 1_555
H20 C24 1_555 1_555
C25 C19 1_555 1_555
C26 C21 1_555 1_555
N1 C2 1_555 1_555
N2 C1 1_555 1_555
N3 C1 1_555 1_555
N4 C13 1_555 1_555
N5 C17 1_555 1_555
N6 C18 1_555 1_555
O1 C5 1_555 1_555
O2 C10 1_555 1_555
O3 Zn1 1_555 1_555
O4 C25 1_555 1_555
O5 C26 1_555 1_555
O6 C26 1_555 1_555
Zn2 N7 1_555 1_555
C27 H21 1_555 1_555
C28 H22 1_555 1_555
C29 C30 1_555 1_555
C30 H23 1_555 1_555
C31 C30 1_555 1_555
C32 C31 1_555 1_555
H24 C32 1_555 1_555
C33 C32 1_555 1_555
H25 C33 1_555 1_555
C34 C29 1_555 1_555
H26 C34 1_555 1_555
C35 H27 1_555 1_555
H28 C35 1_555 1_555
C36 C35 1_555 1_555
H29 C36 1_555 1_555
H30 C36 1_555 1_555
C37 C38 1_555 1_555
C38 H31 1_555 1_555
C39 C38 1_555 1_555
C40 C39 1_555 1_555
H32 C40 1_555 1_555
C41 C40 1_555 1_555
H33 C41 1_555 1_555
C42 C37 1_555 1_555
H34 C42 1_555 1_555
C43 H35 1_555 1_555
C44 H36 1_555 1_555
C45 C46 1_555 1_555
C46 H37 1_555 1_555
C47 C46 1_555 1_555
C48 C47 1_555 1_555
H38 C48 1_555 1_555
C49 C48 1_555 1_555
H39 C49 1_555 1_555
C50 C45 1_555 1_555
H40 C50 1_555 1_555
C51 C45 1_555 1_555
C52 C47 1_555 1_555
N7 C28 1_555 1_555
N8 C27 1_555 1_555
N9 C27 1_555 1_555
N10 C39 1_555 1_555
N11 C43 1_555 1_555
N12 C44 1_555 1_555
O7 C31 1_555 1_555
O8 C36 1_555 1_555
O9 Zn2 1_555 1_555
O10 C51 1_555 1_555
O11 C52 1_555 1_555
O12 C52 1_555 1_555
Zn1_2 O6 1_555 1_555
Zn1A N5 1_555 1_555
N5A Zn1 1_555 1_555
O6_2 Zn1 1_555 1_555
Zn2_2 O12 1_555 1_555
Zn2A N11 1_555 1_555
N11A Zn2 1_555 1_555
O12_2 Zn2 1_555 1_555
C2 N3 1_555 1_555
C3 N3 1_555 1_555
C7 C8 1_555 1_555
C9 O1 1_555 1_555
C11 O2 1_555 1_555
C15 C16 1_555 1_555
C17 N4 1_555 1_555
C18 N4 1_555 1_555
C23 C24 1_555 1_555
C25 O3 1_555 1_555
N1 N2 1_555 1_555
N5 N6 1_555 1_555
C28 N9 1_555 1_555
C29 N9 1_555 1_555
C33 C34 1_555 1_555
C35 O7 1_555 1_555
C37 O8 1_555 1_555
C41 C42 1_555 1_555
C43 N10 1_555 1_555
C44 N10 1_555 1_555
C49 C50 1_555 1_555
C51 O9 1_555 1_555
N7 N8 1_555 1_555
N11 N12 1_555 1_555

#END
