
#######################################################################
#
#                 Cambridge Crystallographic Data Centre
#                                CCDC 
#
#######################################################################
#
# If this CIF has been generated from an entry in the Cambridge 
# Structural Database, then it will include bibliographic, chemical, 
# crystal, experimental, refinement or atomic coordinate data resulting 
# from the CCDC's data processing and validation procedures.
#
#######################################################################

data_TISTAQ
_symmetry_cell_setting           orthorhombic
_symmetry_space_group_name_H-M   'C m m m'
_symmetry_Int_Tables_number      65
_space_group_name_Hall           '-C 2 2'
loop_
_symmetry_equiv_pos_site_id
_symmetry_equiv_pos_as_xyz
1 x,y,z
2 -x,-y,z
3 x,-y,-z
4 -x,y,-z
5 1/2+x,1/2+y,z
6 1/2-x,1/2-y,z
7 1/2+x,1/2-y,-z
8 1/2-x,1/2+y,-z
9 -x,-y,-z
10 x,y,-z
11 -x,y,z
12 x,-y,z
13 1/2-x,1/2-y,-z
14 1/2+x,1/2+y,-z
15 1/2-x,1/2+y,z
16 1/2+x,1/2-y,z
_cell_length_a                   7.127(1)
_cell_length_b                   12.057(3)
_cell_length_c                   3.564(1)
_cell_angle_alpha                90
_cell_angle_beta                 90
_cell_angle_gamma                90
_cell_volume                     306.255
loop_
_atom_site_label
_atom_site_type_symbol
_atom_site_fract_x
_atom_site_fract_y
_atom_site_fract_z
Cl1 Cl 0.00000 -0.14263(9) 0.50000
N1 N 0.30597(54) 0.00000 0.00000
C1 C 0.40343(50) 0.09390(29) 0.00000
H1 H 0.33970(50) -0.16121(29) 0.00000
Zn1 Zn 0.00000 0.00000 0.00000
Zn1_2 Zn 0.00000 0.00000 1.00000
Cl1_2 Cl 0.00000 -0.14263(9) -0.50000
Zn1_3 Zn 0.00000 0.00000 -1.00000
Cl1A Cl 0.00000 0.14263(9) -0.50000
Cl1A_2 Cl 0.00000 0.14263(9) 0.50000
C1C C 0.59657(50) 0.09390(29) 0.00000
N1A N 0.69403(54) 0.00000 0.00000
C1A C 0.59657(50) -0.09390(29) 0.00000
C1B C 0.40343(50) -0.09390(29) 0.00000
H1C H 0.66030(50) -0.16121(29) 0.00000
Zn1_4 Zn 1.00000 0.00000 0.00000
H1A H 0.66030(50) 0.16121(29) 0.00000
H1B H 0.33970(50) 0.16121(29) 0.00000
N1A_2 N -0.30597(54) 0.00000 0.00000
loop_
_geom_bond_atom_site_label_1
_geom_bond_atom_site_label_2
_geom_bond_site_symmetry_1
_geom_bond_site_symmetry_2
Cl1 Zn1 1_555 1_555
N1 C1 1_555 1_555
C1 C1C 1_555 1_555
H1 C1B 1_555 1_555
Zn1 N1 1_555 1_555
Zn1_2 Cl1 1_555 1_555
Cl1_2 Zn1 1_555 1_555
Zn1_3 Cl1_2 1_555 1_555
Cl1A Zn1 1_555 1_555
Cl1A_2 Zn1 1_555 1_555
C1C N1A 1_555 1_555
N1A C1A 1_555 1_555
C1A C1B 1_555 1_555
C1B N1 1_555 1_555
H1C C1A 1_555 1_555
Zn1_4 N1A 1_555 1_555
H1A C1C 1_555 1_555
H1B C1 1_555 1_555
N1A_2 Zn1 1_555 1_555
Zn1_2 Cl1A_2 1_555 1_555
Zn1_3 Cl1A 1_555 1_555

#END
