
#######################################################################
#
#                 Cambridge Crystallographic Data Centre
#                                CCDC 
#
#######################################################################
#
# If this CIF has been generated from an entry in the Cambridge 
# Structural Database, then it will include bibliographic, chemical, 
# crystal, experimental, refinement or atomic coordinate data resulting 
# from the CCDC's data processing and validation procedures.
#
#######################################################################

data_TITBOP
_symmetry_cell_setting           tetragonal
_symmetry_space_group_name_H-M   'P 4/n c c'
_symmetry_Int_Tables_number      130
_space_group_name_Hall           '-P 4a 2ac'
loop_
_symmetry_equiv_pos_site_id
_symmetry_equiv_pos_as_xyz
1 x,y,z
2 1/2-x,1/2-y,z
3 1/2-y,x,z
4 y,1/2-x,z
5 -x,1/2+y,1/2-z
6 1/2+x,-y,1/2-z
7 1/2+y,1/2+x,1/2-z
8 -y,-x,1/2-z
9 -x,-y,-z
10 1/2+x,1/2+y,-z
11 1/2+y,-x,-z
12 -y,1/2+x,-z
13 x,1/2-y,1/2+z
14 1/2-x,y,1/2+z
15 1/2-y,1/2-x,1/2+z
16 y,x,1/2+z
_cell_length_a                   18.1524(7)
_cell_length_b                   18.1524(7)
_cell_length_c                   27.5897(16)
_cell_angle_alpha                90
_cell_angle_beta                 90
_cell_angle_gamma                90
_cell_volume                     9091.07
loop_
_atom_site_label
_atom_site_type_symbol
_atom_site_fract_x
_atom_site_fract_y
_atom_site_fract_z
Zn1 Zn 0.87095(5) 0.11813(5) 0.43772(3)
N1 N 0.8819(4) 0.2422(4) 0.5034(2)
C1 C 1.0259(5) 0.0835(5) 0.5859(3)
C2 C 1.0711(5) 0.0137(6) 0.5948(3)
C3 C 0.9494(5) 0.2132(5) 0.5657(3)
O1 O 1.0646(3) -0.0350(3) 0.56273(19)
N2 N 0.9049(4) 0.1748(4) 0.4963(2)
N3 N 0.8758(5) 0.1878(5) 0.3818(3)
C4 C 0.9501(4) 0.1535(5) 0.5340(3)
N4 N 0.9077(4) 0.2675(4) 0.5458(2)
O2 O 1.1101(3) 0.0110(3) 0.6316(2)
C5 C 0.8642(8) 0.2576(7) 0.3881(3)
H1 H 0.8434 0.2711 0.4176
C6 C 0.9867(4) 0.0884(5) 0.5439(3)
H2 H 0.9846 0.0490 0.5224
C7 C 0.9915(5) 0.2091(5) 0.6099(3)
H3 H 0.9930 0.2482 0.6316
C8 C 1.0295(5) 0.1448(6) 0.6186(3)
H4 H 1.0582 0.1410 0.6464
C9 C 0.9062(8) 0.1642(7) 0.3395(4)
H5 H 0.9217 0.1156 0.3358
C10 C 0.8945(7) 0.3390(8) 0.2412(6)
H6 H 0.9057 0.3464 0.2072
H7 H 0.8768 0.2891 0.2459
C11 C 0.8791(9) 0.3142(10) 0.3561(6)
H8 H 0.8643 0.3626 0.3615
C12 C 0.9202(11) 0.2916(12) 0.3132(7)
C13 C 0.9136(8) 0.2155(10) 0.3012(6)
H9 H 0.9143 0.2000 0.2691
C14 C 0.9669(13) 0.3556(13) 0.2752(7)
H10 H 0.9702 0.4054 0.2878
H11 H 1.0134 0.3385 0.2621
N3F N 0.6878(5) 0.3758(5) 0.1182(3)
C5F C 0.7576(7) 0.3642(8) 0.1119(3)
H1F H 0.7711 0.3434 0.0824
C9F C 0.6642(7) 0.4062(8) 0.1605(4)
H5F H 0.6156 0.4217 0.1642
C10F C 0.8390(8) 0.3945(7) 0.2588(6)
H6F H 0.8464 0.4057 0.2928
H7F H 0.7891 0.3768 0.2541
C11F C 0.8142(10) 0.3791(9) 0.1439(6)
H8F H 0.8626 0.3643 0.1385
C12F C 0.7916(12) 0.4202(11) 0.1868(7)
C13F C 0.7155(10) 0.4136(8) 0.1988(6)
H9F H 0.7000 0.4143 0.2309
C14F C 0.8556(13) 0.4669(13) 0.2248(7)
H10F H 0.9054 0.4702 0.2122
H11F H 0.8385 0.5134 0.2379
Zn1F Zn 0.61813(5) 0.37095(5) 0.06228(3)
N1F N 0.7422(4) 0.3819(4) -0.0034(2)
C1F C 0.5835(5) 0.5259(5) -0.0859(3)
C2F C 0.5137(6) 0.5711(5) -0.0948(3)
C3F C 0.7132(5) 0.4494(5) -0.0657(3)
O1F O 0.4650(3) 0.5646(3) -0.06273(19)
N2F N 0.6748(4) 0.4049(4) 0.0037(2)
C4F C 0.6535(5) 0.4501(4) -0.0340(3)
N4F N 0.7675(4) 0.4077(4) -0.0458(2)
O2F O 0.5110(3) 0.6101(3) -0.1316(2)
C6F C 0.5884(5) 0.4867(4) -0.0439(3)
H2F H 0.5490 0.4846 -0.0224
C7F C 0.7091(5) 0.4915(5) -0.1099(3)
H3F H 0.7482 0.4930 -0.1316
C8F C 0.6448(6) 0.5295(5) -0.1186(3)
H4F H 0.6410 0.5582 -0.1464
Zn1H Zn 1.12905(5) -0.11813(5) 0.56228(3)
Zn1K Zn 0.88187(5) 0.37095(5) 0.56228(3)
Zn1L Zn 0.87095(5) 0.38187(5) -0.06228(3)
Zn1N Zn 0.38187(5) 0.62905(5) -0.06228(3)
O1H O 0.9354(3) 0.0350(3) 0.43727(19)
O1N O 0.5350(3) 0.4354(3) 0.06273(19)
N4J N 0.7675(4) 0.0923(4) 0.4542(2)
N4M N 0.5923(4) 0.2675(4) 0.0458(2)
loop_
_geom_bond_atom_site_label_1
_geom_bond_atom_site_label_2
_geom_bond_site_symmetry_1
_geom_bond_site_symmetry_2
Zn1 N2 1_555 1_555
N1 N2 1_555 1_555
C1 C2 1_555 1_555
C2 O1 1_555 1_555
C3 C4 1_555 1_555
O1 Zn1H 1_555 1_555
N2 C4 1_555 1_555
N3 Zn1 1_555 1_555
C4 C6 1_555 1_555
N4 N1 1_555 1_555
O2 C2 1_555 1_555
C5 N3 1_555 1_555
H1 C5 1_555 1_555
C6 C1 1_555 1_555
H2 C6 1_555 1_555
C7 C3 1_555 1_555
H3 C7 1_555 1_555
C8 C1 1_555 1_555
H4 C8 1_555 1_555
C9 N3 1_555 1_555
H5 C9 1_555 1_555
C10 H6 1_555 1_555
H7 C10 1_555 1_555
C11 C5 1_555 1_555
H8 C11 1_555 1_555
C12 C11 1_555 1_555
C13 C9 1_555 1_555
H9 C13 1_555 1_555
C14 C10 1_555 1_555
H10 C14 1_555 1_555
H11 C14 1_555 1_555
N3F C5F 1_555 1_555
C5F H1F 1_555 1_555
C9F N3F 1_555 1_555
H5F C9F 1_555 1_555
C10F C10 1_555 1_555
H6F C10F 1_555 1_555
H7F C10F 1_555 1_555
C11F C5F 1_555 1_555
H8F C11F 1_555 1_555
C12F C11F 1_555 1_555
C13F C9F 1_555 1_555
H9F C13F 1_555 1_555
C14F C10F 1_555 1_555
H10F C14F 1_555 1_555
H11F C14F 1_555 1_555
Zn1F N3F 1_555 1_555
N1F N2F 1_555 1_555
C1F C2F 1_555 1_555
C2F O1F 1_555 1_555
C3F C4F 1_555 1_555
O1F Zn1N 1_555 1_555
N2F Zn1F 1_555 1_555
C4F N2F 1_555 1_555
N4F N1F 1_555 1_555
O2F C2F 1_555 1_555
C6F C1F 1_555 1_555
H2F C6F 1_555 1_555
C7F C3F 1_555 1_555
H3F C7F 1_555 1_555
C8F C1F 1_555 1_555
H4F C8F 1_555 1_555
Zn1K N4 1_555 1_555
Zn1L N4F 1_555 1_555
O1H Zn1 1_555 1_555
O1N Zn1F 1_555 1_555
N4J Zn1 1_555 1_555
N4M Zn1F 1_555 1_555
C3 N4 1_555 1_555
C7 C8 1_555 1_555
C12 C13 1_555 1_555
C12 C14 1_555 1_555
C12F C13F 1_555 1_555
C12F C14F 1_555 1_555
C3F N4F 1_555 1_555
C4F C6F 1_555 1_555
C7F C8F 1_555 1_555

#END
