
#######################################################################
#
#                 Cambridge Crystallographic Data Centre
#                                CCDC 
#
#######################################################################
#
# If this CIF has been generated from an entry in the Cambridge 
# Structural Database, then it will include bibliographic, chemical, 
# crystal, experimental, refinement or atomic coordinate data resulting 
# from the CCDC's data processing and validation procedures.
#
#######################################################################

data_TITGIO
_symmetry_cell_setting           monoclinic
_symmetry_space_group_name_H-M   'P 21/n'
_symmetry_Int_Tables_number      14
_space_group_name_Hall           '-P 2yn'
loop_
_symmetry_equiv_pos_site_id
_symmetry_equiv_pos_as_xyz
1 x,y,z
2 1/2-x,1/2+y,1/2-z
3 -x,-y,-z
4 1/2+x,1/2-y,1/2+z
_cell_length_a                   8.2450(10)
_cell_length_b                   29.405(4)
_cell_length_c                   10.8415(15)
_cell_angle_alpha                90
_cell_angle_beta                 108.285(6)
_cell_angle_gamma                90
_cell_volume                     2495.74
loop_
_atom_site_label
_atom_site_type_symbol
_atom_site_fract_x
_atom_site_fract_y
_atom_site_fract_z
C1 C 1.0582(11) -0.3177(3) -0.0471(8)
H1 H 1.1057 -0.2934 -0.0788
C2 C 1.0741(11) -0.3607(3) -0.0919(9)
H2 H 1.1324 -0.3654 -0.1516
C3 C 1.0019(12) -0.3968(3) -0.0467(9)
H3 H 1.0148 -0.4264 -0.0726
C4 C 0.9095(11) -0.3883(3) 0.0385(8)
H4 H 0.8551 -0.4119 0.0669
C5 C 0.8994(10) -0.3440(3) 0.0808(8)
C6 C 0.7951(10) -0.3303(3) 0.1640(8)
C7 C 0.7077(11) -0.3637(3) 0.2228(8)
C8 C 0.5370(11) -0.3580(3) 0.2208(8)
H5 H 0.4743 -0.3326 0.1824
C9 C 0.4656(11) -0.3915(3) 0.2779(9)
H6 H 0.3536 -0.3884 0.2784
C10 C 0.5576(11) -0.4286(3) 0.3328(9)
H7 H 0.5055 -0.4510 0.3676
C11 C 0.7944(11) -0.4021(3) 0.2843(8)
H8 H 0.9078 -0.4057 0.2876
C12 C 1.2805(12) -0.2150(3) 0.0661(9)
H9 H 1.3012 -0.2449 0.0473
C13 C 1.3913(11) -0.1816(3) 0.0520(9)
H10 H 1.4805 -0.1888 0.0201
C14 C 1.3680(12) -0.1375(3) 0.0858(9)
H11 H 1.4424 -0.1146 0.0786
C15 C 1.2300(11) -0.1277(3) 0.1313(9)
H12 H 1.2106 -0.0982 0.1542
C16 C 1.1239(11) -0.1629(3) 0.1412(8)
C17 C 0.9862(11) -0.1568(3) 0.1976(8)
C18 C 0.9430(10) -0.1128(3) 0.2473(8)
C19 C 0.9806(11) -0.1061(3) 0.3813(9)
H13 H 1.0378 -0.1283 0.4400
C20 C 0.9305(12) -0.0655(3) 0.4246(9)
H14 H 0.9539 -0.0600 0.5130
C21 C 0.8463(12) -0.0339(3) 0.3349(9)
H15 H 0.8159 -0.0066 0.3646
C22 C 0.8568(11) -0.0790(3) 0.1634(9)
H16 H 0.8336 -0.0832 0.0745
N1 N 0.9775(9) -0.3091(2) 0.0402(7)
N2 N 0.7881(9) -0.2869(2) 0.1791(7)
N3 N 0.7242(9) -0.4340(2) 0.3388(7)
N4 N 1.1449(9) -0.2066(2) 0.1055(7)
N5 N 0.9037(9) -0.1936(2) 0.2058(7)
N6 N 0.8053(10) -0.0404(2) 0.2061(8)
O1 O 0.6945(8) -0.2703(2) 0.2493(6)
O2 O 0.7766(8) -0.1908(2) 0.2596(6)
H17 H 0.726(14) -0.224(4) 0.261(10)
Cu1 Cu 0.95358(14) -0.24877(3) 0.12073(11)
Cu2 Cu 0.64686(14) 0.00724(4) 0.08290(11)
I1 I 0.73082(7) -0.212784(19) -0.13037(5)
I2 I 0.63368(7) -0.005822(19) -0.15710(6)
N3A N 0.7758(9) 0.0660(2) 0.1612(7)
Cu1C Cu 0.45358(14) -0.25123(3) -0.37927(11)
Cu2A Cu 0.85314(14) -0.49276(4) 0.41710(11)
Cu2B Cu 0.35314(14) -0.00724(4) -0.08290(11)
I1C I 1.23082(7) -0.287216(19) 0.36963(5)
I2B I 0.36632(7) 0.005822(19) 0.15710(6)
loop_
_geom_bond_atom_site_label_1
_geom_bond_atom_site_label_2
_geom_bond_site_symmetry_1
_geom_bond_site_symmetry_2
C1 H1 1_555 1_555
C2 C1 1_555 1_555
H2 C2 1_555 1_555
C3 C2 1_555 1_555
H3 C3 1_555 1_555
C4 C3 1_555 1_555
H4 C4 1_555 1_555
C5 C4 1_555 1_555
C6 C5 1_555 1_555
C7 C6 1_555 1_555
C8 C7 1_555 1_555
H5 C8 1_555 1_555
C9 C8 1_555 1_555
H6 C9 1_555 1_555
C10 C9 1_555 1_555
H7 C10 1_555 1_555
C11 C7 1_555 1_555
H8 C11 1_555 1_555
C12 H9 1_555 1_555
C13 C12 1_555 1_555
H10 C13 1_555 1_555
C14 C13 1_555 1_555
H11 C14 1_555 1_555
C15 C14 1_555 1_555
H12 C15 1_555 1_555
C16 C15 1_555 1_555
C17 C16 1_555 1_555
C18 C17 1_555 1_555
C19 C18 1_555 1_555
H13 C19 1_555 1_555
C20 C19 1_555 1_555
H14 C20 1_555 1_555
C21 C20 1_555 1_555
H15 C21 1_555 1_555
C22 C18 1_555 1_555
H16 C22 1_555 1_555
N1 C1 1_555 1_555
N2 C6 1_555 1_555
N3 C10 1_555 1_555
N4 C12 1_555 1_555
N5 C17 1_555 1_555
N6 C21 1_555 1_555
O1 N2 1_555 1_555
O2 N5 1_555 1_555
H17 O2 1_555 1_555
Cu1 N1 1_555 1_555
Cu2 N6 1_555 1_555
I1 Cu1 1_555 1_555
I2 Cu2 1_555 1_555
N3A Cu2 1_555 1_555
Cu1C I1 1_555 1_555
Cu2A N3 1_555 1_555
Cu2B I2 1_555 1_555
I1C Cu1 1_555 1_555
I2B Cu2 1_555 1_555
C5 N1 1_555 1_555
C11 N3 1_555 1_555
C16 N4 1_555 1_555
C22 N6 1_555 1_555
N2 Cu1 1_555 1_555
N4 Cu1 1_555 1_555
N5 Cu1 1_555 1_555
Cu2B I2B 1_555 1_555

#END
