
#######################################################################
#
#                 Cambridge Crystallographic Data Centre
#                                CCDC 
#
#######################################################################
#
# If this CIF has been generated from an entry in the Cambridge 
# Structural Database, then it will include bibliographic, chemical, 
# crystal, experimental, refinement or atomic coordinate data resulting 
# from the CCDC's data processing and validation procedures.
#
#######################################################################

data_TITHUB
_symmetry_cell_setting           triclinic
_symmetry_space_group_name_H-M   'P -1'
_symmetry_Int_Tables_number      2
_space_group_name_Hall           '-P 1'
loop_
_symmetry_equiv_pos_site_id
_symmetry_equiv_pos_as_xyz
1 x,y,z
2 -x,-y,-z
_cell_length_a                   8.7979(3)
_cell_length_b                   8.8951(3)
_cell_length_c                   9.3445(3)
_cell_angle_alpha                72.488(2)
_cell_angle_beta                 84.987(2)
_cell_angle_gamma                82.233(2)
_cell_volume                     690.149
loop_
_atom_site_label
_atom_site_type_symbol
_atom_site_fract_x
_atom_site_fract_y
_atom_site_fract_z
Ag1 Ag -0.169690(16) 0.772372(16) 0.840553(14)
C1 C 0.3429(2) 0.5561(2) 0.3011(2)
H1 H 0.3503 0.6417 0.2117
C2 C 0.4293(2) 0.4092(2) 0.3163(2)
H2 H 0.4975 0.3945 0.2358
C3 C 0.4175(2) 0.2835(2) 0.4472(2)
H3 H 0.4784 0.1851 0.4543
C4 C 0.3186(2) 0.2992(2) 0.5675(2)
H4 H 0.3091 0.2130 0.6561
C5 C 0.2345(2) 0.4460(2) 0.55270(18)
C6 C 0.2455(2) 0.5720(2) 0.4220(2)
N1 N 0.14410(18) 0.69905(18) 0.44253(16)
C7 C 0.0710(2) 0.6554(2) 0.58258(18)
N2 N 0.12506(18) 0.49913(18) 0.64954(16)
O1 O -0.02626(15) 0.74113(15) 0.63431(14)
C8 C 0.1192(2) 0.8585(2) 0.33592(19)
H5 H 0.0182 0.9116 0.3600
H6 H 0.1181 0.8498 0.2329
C9 C 0.2435(2) 0.9567(2) 0.34234(19)
H7 H 0.2413 0.9970 0.4259
C10 C 0.3571(2) 0.9906(2) 0.2366(2)
H8 H 0.3622 0.9520 0.1518
H9 H 0.4326 1.0533 0.2465
C11 C 0.0822(2) 0.4085(2) 0.80274(19)
H10 H 0.0905 0.2943 0.8102
H11 H -0.0257 0.4434 0.8284
C12 C 0.1867(2) 0.4334(2) 0.91146(18)
H12 H 0.1549 0.5156 0.9567
C13 C 0.3217(2) 0.3461(2) 0.9474(2)
H13 H 0.3563 0.2631 0.9038
H14 H 0.3828 0.3670 1.0166
Cl1 Cl 0.22438(5) 0.87649(5) 0.86967(4)
O2 O 0.2255(2) 1.02596(18) 0.89758(18)
O3 O 0.34699(19) 0.7665(2) 0.94581(17)
O4 O 0.08055(17) 0.81505(19) 0.92853(17)
O5 O 0.24376(19) 0.89554(19) 0.71161(15)
Ag1A Ag 0.169690(16) 0.227628(16) 1.159447(14)
Ag1A_2 Ag 0.169690(16) 1.227628(16) 0.159447(14)
C9A C -0.2435(2) 1.0433(2) 0.65766(19)
C10A C -0.3571(2) 1.0094(2) 0.7634(2)
C12A C -0.1867(2) 0.5666(2) 1.08854(18)
C13A C -0.3217(2) 0.6539(2) 1.0526(2)
loop_
_geom_bond_atom_site_label_1
_geom_bond_atom_site_label_2
_geom_bond_site_symmetry_1
_geom_bond_site_symmetry_2
Ag1 O1 1_555 1_555
C1 H1 1_555 1_555
C2 C1 1_555 1_555
H2 C2 1_555 1_555
C3 C2 1_555 1_555
H3 C3 1_555 1_555
C4 C3 1_555 1_555
H4 C4 1_555 1_555
C5 C4 1_555 1_555
C6 C1 1_555 1_555
N1 C6 1_555 1_555
C7 N1 1_555 1_555
N2 C5 1_555 1_555
O1 C7 1_555 1_555
C8 N1 1_555 1_555
H5 C8 1_555 1_555
H6 C8 1_555 1_555
C9 C8 1_555 1_555
H7 C9 1_555 1_555
C10 C9 1_555 1_555
H8 C10 1_555 1_555
H9 C10 1_555 1_555
C11 N2 1_555 1_555
H10 C11 1_555 1_555
H11 C11 1_555 1_555
C12 C11 1_555 1_555
H12 C12 1_555 1_555
C13 C12 1_555 1_555
H13 C13 1_555 1_555
H14 C13 1_555 1_555
Cl1 O2 1_555 1_555
O3 Cl1 1_555 1_555
O4 Ag1 1_555 1_555
O5 Cl1 1_555 1_555
Ag1A C12 1_555 1_555
Ag1A_2 C9 1_555 1_555
C9A Ag1 1_555 1_555
C10A Ag1 1_555 1_555
C12A Ag1 1_555 1_555
C13A Ag1 1_555 1_555
C5 C6 1_555 1_555
C7 N2 1_555 1_555
C10 Ag1A_2 1_555 1_555
C13 Ag1A 1_555 1_555
Cl1 O4 1_555 1_555
C9A C10A 1_555 1_555
C12A C13A 1_555 1_555

#END
