
#######################################################################
#
#                 Cambridge Crystallographic Data Centre
#                                CCDC 
#
#######################################################################
#
# If this CIF has been generated from an entry in the Cambridge 
# Structural Database, then it will include bibliographic, chemical, 
# crystal, experimental, refinement or atomic coordinate data resulting 
# from the CCDC's data processing and validation procedures.
#
#######################################################################

data_TITNOA
_symmetry_cell_setting           monoclinic
_symmetry_space_group_name_H-M   'P 21/c'
_symmetry_Int_Tables_number      14
_space_group_name_Hall           '-P 2ybc'
loop_
_symmetry_equiv_pos_site_id
_symmetry_equiv_pos_as_xyz
1 x,y,z
2 -x,1/2+y,1/2-z
3 -x,-y,-z
4 x,1/2-y,1/2+z
_cell_length_a                   9.5152(14)
_cell_length_b                   11.2452(17)
_cell_length_c                   16.194(2)
_cell_angle_alpha                90
_cell_angle_beta                 106.687(2)
_cell_angle_gamma                90
_cell_volume                     1659.79
loop_
_atom_site_label
_atom_site_type_symbol
_atom_site_fract_x
_atom_site_fract_y
_atom_site_fract_z
Co1 Co 0.71433(7) 0.14001(5) 0.21254(4)
O1 O 0.8824(4) 0.2527(3) 0.2134(2)
H1 H 0.9251 0.3002 0.2506
H2 H 0.8799 0.2780 0.1654
O2 O 0.6621(4) 0.2503(3) 0.3053(2)
H3 H 0.5912 0.2842 0.2726
H4 H 0.6352 0.2127 0.3415
O3 O 0.5405(4) 0.0277(3) 0.2068(2)
H5 H 0.5494 -0.0263 0.2418
H6 H 0.5144 0.0028 0.1579
O4 O 0.8418(4) 0.0398(3) 0.31539(19)
H7 H 0.8933 0.0663 0.3610
H8 H 0.8900 -0.0006 0.2912
N1 N 0.0915(4) 0.6415(3) 0.0012(2)
N2 N 0.1224(4) 0.6059(3) -0.0651(2)
O5 O 0.5775(4) 0.2345(3) 0.10743(19)
O6 O 0.4732(4) 0.3607(3) 0.1776(2)
O7 O 0.5168(4) 0.2395(3) -0.0547(2)
H9 H 0.5587 0.2174 -0.0055
O8 O -0.3150(4) 1.0087(3) -0.0450(2)
H10 H -0.3126 1.0395 0.0012
O9 O -0.2290(4) 1.0400(3) 0.1171(2)
O10 O -0.0537(4) 0.9267(3) 0.2009(2)
C1 C 0.4906(5) 0.3199(4) 0.1097(3)
C2 C 0.4027(5) 0.3698(4) 0.0249(3)
C3 C 0.4191(6) 0.3262(4) -0.0520(3)
C4 C 0.3349(6) 0.3724(4) -0.1303(3)
H11 H 0.3427 0.3408 -0.1819
C5 C 0.2420(5) 0.4632(4) -0.1309(3)
H12 H 0.1885 0.4954 -0.1835
C6 C 0.2240(5) 0.5101(4) -0.0547(3)
C7 C 0.3054(5) 0.4617(4) 0.0228(3)
H13 H 0.2944 0.4914 0.0742
C8 C -0.0120(5) 0.7371(4) -0.0142(3)
C9 C -0.1058(5) 0.7662(4) -0.0956(3)
H14 H -0.1024 0.7229 -0.1439
C10 C -0.2027(6) 0.8587(4) -0.1037(3)
H15 H -0.2621 0.8798 -0.1580
C11 C -0.2134(5) 0.9212(4) -0.0320(3)
C12 C -0.1231(5) 0.8923(4) 0.0500(3)
C13 C -0.0236(6) 0.8005(4) 0.0566(3)
H16 H 0.0377 0.7808 0.1108
C14 C -0.1338(5) 0.9566(4) 0.1286(3)
Co1_2 Co -0.28567(7) 1.14001(5) 0.21254(4)
O9_2 O 0.7710(4) 0.0400(3) 0.1171(2)
loop_
_geom_bond_atom_site_label_1
_geom_bond_atom_site_label_2
_geom_bond_site_symmetry_1
_geom_bond_site_symmetry_2
Co1 O1 1_555 1_555
O1 H1 1_555 1_555
H2 O1 1_555 1_555
O2 Co1 1_555 1_555
H3 O2 1_555 1_555
H4 O2 1_555 1_555
O3 Co1 1_555 1_555
H5 O3 1_555 1_555
H6 O3 1_555 1_555
O4 Co1 1_555 1_555
H7 O4 1_555 1_555
H8 O4 1_555 1_555
N1 N2 1_555 1_555
N2 C6 1_555 1_555
O5 Co1 1_555 1_555
O6 C1 1_555 1_555
O7 H9 1_555 1_555
O8 H10 1_555 1_555
O9 C14 1_555 1_555
O10 C14 1_555 1_555
C1 O5 1_555 1_555
C2 C1 1_555 1_555
C3 O7 1_555 1_555
C4 C3 1_555 1_555
H11 C4 1_555 1_555
C5 C4 1_555 1_555
H12 C5 1_555 1_555
C6 C5 1_555 1_555
C7 C2 1_555 1_555
H13 C7 1_555 1_555
C8 N1 1_555 1_555
C9 C8 1_555 1_555
H14 C9 1_555 1_555
C10 C9 1_555 1_555
H15 C10 1_555 1_555
C11 O8 1_555 1_555
C12 C11 1_555 1_555
C13 C8 1_555 1_555
H16 C13 1_555 1_555
C14 C12 1_555 1_555
Co1_2 O9 1_555 1_555
O9_2 Co1 1_555 1_555
C2 C3 1_555 1_555
C6 C7 1_555 1_555
C10 C11 1_555 1_555
C12 C13 1_555 1_555

#END
