
#######################################################################
#
#                 Cambridge Crystallographic Data Centre
#                                CCDC 
#
#######################################################################
#
# If this CIF has been generated from an entry in the Cambridge 
# Structural Database, then it will include bibliographic, chemical, 
# crystal, experimental, refinement or atomic coordinate data resulting 
# from the CCDC's data processing and validation procedures.
#
#######################################################################

data_TIVFEK
_symmetry_cell_setting           monoclinic
_symmetry_space_group_name_H-M   'P c'
_symmetry_Int_Tables_number      7
_space_group_name_Hall           'P -2yc'
loop_
_symmetry_equiv_pos_site_id
_symmetry_equiv_pos_as_xyz
1 x,y,z
2 x,-y,1/2+z
_cell_length_a                   14.1851(2)
_cell_length_b                   10.0601(2)
_cell_length_c                   10.2537(2)
_cell_angle_alpha                90
_cell_angle_beta                 92.2620(10)
_cell_angle_gamma                90
_cell_volume                     1462.1
loop_
_atom_site_label
_atom_site_type_symbol
_atom_site_fract_x
_atom_site_fract_y
_atom_site_fract_z
Cu1 Cu 0.71473(4) -0.24910(5) 0.07433(6)
Cu2 Cu 0.21134(3) -0.23157(4) 0.06823(5)
Cu3 Cu 0.22934(3) 0.12226(5) 0.29848(5)
Cu4 Cu 0.21842(3) -0.40681(4) 0.34370(4)
Cu5 Cu 0.33570(3) -0.28124(5) 0.59181(5)
Cu6 Cu 1.12388(3) -0.26459(4) -0.44017(4)
Cu7 Cu 0.71264(3) -0.25720(4) 0.56201(5)
Cl1 Cl 1.02980(8) -0.10602(12) -0.52243(15)
Cl2 Cl 0.30972(7) 0.37447(10) 0.34744(10)
C1 C 0.5380(3) -0.2746(4) 0.2315(4)
H1 H 0.505(3) -0.359(5) 0.231(5)
C2 C 0.4682(3) -0.1760(4) 0.2936(4)
H2 H 0.479(3) -0.181(5) 0.379(5)
C3 C 0.4980(3) -0.0443(4) 0.2341(4)
H3 H 0.546(3) -0.003(5) 0.288(5)
C4 C 0.5403(3) -0.0803(4) 0.1029(4)
H4 H 0.495(3) -0.065(5) 0.031(5)
C5 C 0.6283(3) -0.2845(4) 0.3166(4)
C6 C 0.3679(3) -0.2185(4) 0.2572(4)
C7 C 0.4187(3) 0.0580(4) 0.2218(4)
C8 C 0.6310(3) -0.0016(4) 0.0807(4)
C9 C 0.8830(3) -0.2190(4) -0.0980(4)
H5 H 0.906(3) -0.131(5) -0.082(5)
C10 C 0.9581(3) -0.3097(4) -0.1588(4)
H6 H 0.946(3) -0.314(5) -0.254(5)
C11 C 0.9391(3) -0.4458(4) -0.0912(4)
H7 H 0.905(3) -0.501(5) -0.135(5)
C12 C 0.8892(3) -0.4097(4) 0.0328(4)
H8 H 0.921(3) -0.433(5) 0.109(5)
C13 C 0.7893(3) -0.2261(4) -0.1778(4)
C14 C 1.0570(3) -0.2582(4) -0.1247(4)
C15 C 1.0259(3) -0.5299(4) -0.0675(4)
C16 C 0.7990(3) -0.4913(4) 0.0497(4)
O1 O 0.55610(19) -0.2222(3) 0.1048(3)
O2 O 0.7046(2) -0.2433(3) 0.2717(3)
O3 O 0.61913(19) -0.3266(3) 0.4314(3)
O4 O 0.32465(19) -0.2776(3) 0.3477(3)
O5 O 0.33730(19) -0.1976(3) 0.1437(3)
O6 O 0.35548(19) 0.0462(3) 0.3037(3)
O7 O 0.42563(19) 0.1460(3) 0.1354(3)
O8 O 0.6201(2) 0.1212(3) 0.0812(3)
O9 O 0.7074(2) -0.0595(3) 0.0608(3)
O10 O 0.2167(2) -0.0673(3) -0.0243(3)
H9 H 0.155(3) -0.025(6) -0.022(7)
O11 O 0.23130(19) 0.1544(3) 0.1125(3)
H10 H 0.236(5) 0.074(4) 0.064(6)
O12 O 0.87143(19) -0.2692(3) 0.0311(3)
O13 O 0.7154(2) -0.2586(3) -0.1230(3)
O14 O 0.79684(19) -0.1997(3) -0.2972(3)
O15 O 1.10405(19) -0.2118(3) -0.2152(3)
O16 O 1.08408(19) -0.2679(3) -0.0072(3)
O17 O 1.08453(19) -0.5304(3) -0.1564(3)
O18 O 1.03311(19) -0.5946(3) 0.0383(3)
O19 O 0.80900(19) -0.6138(3) 0.0279(3)
O20 O 0.7252(2) -0.4392(3) 0.0882(3)
O21 O 0.19397(18) -0.3935(3) 0.1609(3)
H11 H 0.1296(18) -0.411(7) 0.142(7)
O22 O 0.23108(19) -0.3912(3) 0.5324(3)
H12 H 0.226(5) -0.474(4) 0.578(6)
O23 O 0.4363(2) -0.4174(3) 0.5551(3)
H13 H 0.493(3) -0.382(6) 0.529(6)
H14 H 0.413(4) -0.480(5) 0.493(5)
O24 O 0.1284(6) -0.0892(11) 0.2349(12)
Cu2_2 Cu 1.21134(3) -0.23157(4) 0.06823(5)
Cu3A Cu 0.22934(3) -0.12226(5) -0.20152(5)
Cu3A_2 Cu 1.22934(3) -0.12226(5) -0.20152(5)
Cu4_2 Cu 0.21842(3) 0.59319(4) 0.34370(4)
Cu4A Cu 1.21842(3) -0.59319(4) -0.15630(4)
Cu5A Cu 0.33570(3) 0.28124(5) 0.09181(5)
Cu6A Cu 0.12388(3) 0.26459(4) 0.05983(4)
Cu6A_2 Cu 1.12388(3) -0.73541(4) 0.05983(4)
Cu6_2 Cu 0.12388(3) -0.26459(4) 0.55983(4)
Cu7A Cu 0.71264(3) 0.25720(4) 0.06201(5)
Cu7_2 Cu 0.71264(3) -0.25720(4) -0.43799(5)
Cu7A_2 Cu 0.71264(3) -0.74280(4) 0.06201(5)
Cl2_2 Cl 0.30972(7) -0.62553(10) 0.34744(10)
Cl2A Cl 0.30972(7) -0.37447(10) 0.84744(10)
O7A O 0.42563(19) -0.1460(3) 0.6354(3)
O8A O 0.6201(2) -0.1212(3) 0.5812(3)
O10A O 0.2167(2) 0.0673(3) 0.4757(3)
H9A H 0.155(3) 0.025(6) 0.478(7)
O11A O 0.23130(19) -0.1544(3) 0.6125(3)
O11A_2 O 1.23130(19) -0.1544(3) -0.3875(3)
H10A H 0.236(5) -0.074(4) 0.564(6)
H10A_2 H 1.236(5) -0.074(4) -0.436(6)
O14_2 O 0.79684(19) -0.1997(3) 0.7028(3)
O15A O 0.10405(19) 0.2118(3) 0.2848(3)
O16_2 O 0.08408(19) -0.2679(3) -0.0072(3)
O17A O 0.08453(19) -0.4696(3) 0.3436(3)
O18A O 1.03311(19) -0.4054(3) -0.4617(3)
O19A O 0.80900(19) -0.3862(3) 0.5279(3)
O22_2 O 1.23108(19) -0.3912(3) -0.4676(3)
H12_2 H 1.226(5) -0.474(4) -0.422(6)
loop_
_geom_bond_atom_site_label_1
_geom_bond_atom_site_label_2
_geom_bond_site_symmetry_1
_geom_bond_site_symmetry_2
Cu1 O1 1_555 1_555
Cu2 O5 1_555 1_555
Cu3 Cl2 1_555 1_555
Cu4 O4 1_555 1_555
Cu5 O4 1_555 1_555
Cu6 Cl1 1_555 1_555
Cu7 O3 1_555 1_555
Cl2 Cu4_2 1_555 1_555
C1 H1 1_555 1_555
C2 C1 1_555 1_555
H2 C2 1_555 1_555
C3 C2 1_555 1_555
H3 C3 1_555 1_555
C4 C3 1_555 1_555
H4 C4 1_555 1_555
C5 C1 1_555 1_555
C6 C2 1_555 1_555
C7 C3 1_555 1_555
C8 C4 1_555 1_555
C9 H5 1_555 1_555
C10 C9 1_555 1_555
H6 C10 1_555 1_555
C11 C10 1_555 1_555
H7 C11 1_555 1_555
C12 C11 1_555 1_555
H8 C12 1_555 1_555
C13 C9 1_555 1_555
C14 C10 1_555 1_555
C15 C11 1_555 1_555
C16 C12 1_555 1_555
O1 C1 1_555 1_555
O2 Cu1 1_555 1_555
O3 C5 1_555 1_555
O4 C6 1_555 1_555
O5 C6 1_555 1_555
O6 Cu3 1_555 1_555
O7 C7 1_555 1_555
O8 C8 1_555 1_555
O9 Cu1 1_555 1_555
O10 Cu2 1_555 1_555
H9 O10 1_555 1_555
O11 Cu3 1_555 1_555
H10 O11 1_555 1_555
O12 Cu1 1_555 1_555
O13 Cu1 1_555 1_555
O14 C13 1_555 1_555
O15 Cu6 1_555 1_555
O16 C14 1_555 1_555
O17 C15 1_555 1_555
O18 C15 1_555 1_555
O19 C16 1_555 1_555
O20 Cu1 1_555 1_555
O21 Cu2 1_555 1_555
H11 O21 1_555 1_555
O22 Cu4 1_555 1_555
H12 O22 1_555 1_555
O23 Cu5 1_555 1_555
H13 O23 1_555 1_555
H14 O23 1_555 1_555
O24 Cu2 1_555 1_555
Cu2_2 O16 1_555 1_555
Cu3A O10 1_555 1_555
Cu3A_2 O15 1_555 1_555
Cu4A O17 1_555 1_555
Cu5A Cl2 1_555 1_555
Cu6A O11 1_555 1_555
Cu6A_2 O18 1_555 1_555
Cu6_2 O22 1_555 1_555
Cu7A O8 1_555 1_555
Cu7_2 O14 1_555 1_555
Cu7A_2 O19 1_555 1_555
Cl2_2 Cu4 1_555 1_555
Cl2A Cu5 1_555 1_555
O7A Cu5 1_555 1_555
O8A Cu7 1_555 1_555
O10A Cu3 1_555 1_555
H9A O10A 1_555 1_555
O11A Cu5 1_555 1_555
O11A_2 Cu6 1_555 1_555
H10A O11A 1_555 1_555
H10A_2 O11A_2 1_555 1_555
O14_2 Cu7 1_555 1_555
O15A Cu3 1_555 1_555
O16_2 Cu2 1_555 1_555
O17A Cu4 1_555 1_555
O18A Cu6 1_555 1_555
O19A Cu7 1_555 1_555
O22_2 Cu6 1_555 1_555
H12_2 O22_2 1_555 1_555
Cu4 O21 1_555 1_555
Cu5 O22 1_555 1_555
C4 O1 1_555 1_555
C5 O2 1_555 1_555
C7 O6 1_555 1_555
C8 O9 1_555 1_555
C9 O12 1_555 1_555
C12 O12 1_555 1_555
C13 O13 1_555 1_555
C14 O15 1_555 1_555
C16 O20 1_555 1_555
O7 Cu5A 1_555 1_555
O11 Cu5A 1_555 1_555
Cu3A_2 O11A_2 1_555 1_555
Cu6A O15A 1_555 1_555
Cu6_2 O11A 1_555 1_555

#END
