
#######################################################################
#
#                 Cambridge Crystallographic Data Centre
#                                CCDC 
#
#######################################################################
#
# If this CIF has been generated from an entry in the Cambridge 
# Structural Database, then it will include bibliographic, chemical, 
# crystal, experimental, refinement or atomic coordinate data resulting 
# from the CCDC's data processing and validation procedures.
#
#######################################################################

data_TIVFIO
_symmetry_cell_setting           monoclinic
_symmetry_space_group_name_H-M   'P c'
_symmetry_Int_Tables_number      7
_space_group_name_Hall           'P -2yc'
loop_
_symmetry_equiv_pos_site_id
_symmetry_equiv_pos_as_xyz
1 x,y,z
2 x,-y,1/2+z
_cell_length_a                   14.119(3)
_cell_length_b                   10.043(2)
_cell_length_c                   10.210(2)
_cell_angle_alpha                90
_cell_angle_beta                 92.16(3)
_cell_angle_gamma                90
_cell_volume                     1446.72
loop_
_atom_site_label
_atom_site_type_symbol
_atom_site_fract_x
_atom_site_fract_y
_atom_site_fract_z
Cu1 Cu 0.71423(3) -0.24873(4) 1.07449(5)
Cu2 Cu 0.21111(3) -0.23250(4) 1.06658(5)
Cu3 Cu 0.23054(3) 0.12650(5) 1.30052(4)
Cu4 Cu 0.21768(3) -0.40590(5) 1.34521(4)
Cu5 Cu 0.33612(3) -0.28175(5) 1.59318(4)
Cu6 Cu 1.12391(3) -0.26349(4) 0.55785(4)
Cu7 Cu 0.71219(3) -0.25737(4) 1.56187(5)
Cl1 Cl 1.03745(8) -0.11134(12) 0.45285(15)
Cl2 Cl 0.30883(7) 0.37204(9) 1.35087(9)
C1 C 0.5363(3) -0.2744(4) 1.2318(4)
H1 H 0.5060 -0.3641 1.2226
C2 C 0.4676(3) -0.1763(4) 1.2949(4)
H2 H 0.4783 -0.1749 1.3923
C3 C 0.4976(3) -0.0435(4) 1.2351(4)
H3 H 0.5496 -0.0055 1.2928
C4 C 0.5403(3) -0.0806(4) 1.1025(4)
H4 H 0.4931 -0.0587 1.0303
C5 C 0.6276(3) -0.2844(4) 1.3175(4)
C6 C 0.3672(3) -0.2181(4) 1.2588(4)
C7 C 0.4190(3) 0.0588(4) 1.2242(4)
C8 C 0.6308(3) -0.0024(4) 1.0812(4)
C9 C 0.8829(3) -0.2192(4) 0.9018(4)
H5 H 0.9065 -0.1254 0.9061
C10 C 0.9576(3) -0.3099(4) 0.8409(4)
H6 H 0.9463 -0.3171 0.7439
C11 C 0.9391(3) -0.4444(4) 0.9082(3)
H7 H 0.8941 -0.4962 0.8499
C12 C 0.8874(3) -0.4094(3) 1.0340(4)
H8 H 0.9318 -0.4288 1.1102
C13 C 0.7893(3) -0.2252(4) 0.8215(4)
C14 C 1.0564(3) -0.2582(4) 0.8736(4)
C15 C 1.0272(3) -0.5298(4) 0.9337(4)
C16 C 0.7983(3) -0.4917(4) 1.0512(4)
O1 O 0.55500(19) -0.2212(3) 1.1046(2)
O2 O 0.7037(2) -0.2441(3) 1.2723(3)
O3 O 0.61812(19) -0.3272(3) 1.4326(3)
O4 O 0.3245(2) -0.2784(3) 1.3482(3)
O5 O 0.33579(19) -0.1947(3) 1.1445(3)
O6 O 0.35502(19) 0.0465(3) 1.3060(3)
O7 O 0.42596(19) 0.1464(3) 1.1378(3)
O8 O 0.61955(19) 0.1209(3) 1.0811(3)
O9 O 0.7070(2) -0.0587(3) 1.0608(3)
O10 O 0.21317(19) -0.0671(3) 0.9757(3)
H9 H 0.152(2) -0.025(6) 0.981(6)
O11 O 0.23191(18) 0.1545(3) 1.1130(2)
H10 H 0.246(5) 0.073(4) 1.071(6)
O12 O 0.87062(19) -0.2695(3) 1.0322(3)
O13 O 0.7153(2) -0.2578(3) 0.8766(3)
O14 O 0.79635(19) -0.1988(3) 0.7015(3)
O15 O 1.10380(19) -0.2106(3) 0.7836(3)
O16 O 1.08366(19) -0.2679(3) 0.9933(3)
O17 O 1.08577(18) -0.5271(3) 0.8449(3)
O18 O 1.03268(19) -0.5954(3) 1.0385(3)
O19 O 0.8084(2) -0.6133(3) 1.0282(3)
O20 O 0.72431(19) -0.4389(3) 1.0878(3)
O21 O 0.19352(19) -0.3928(3) 1.1613(3)
H11 H 0.1272(16) -0.404(6) 1.151(6)
O22 O 0.23184(19) -0.3914(3) 1.5341(3)
H12 H 0.223(5) -0.473(4) 1.582(6)
O23 O 0.43740(19) -0.4178(3) 1.5568(3)
H13 H 0.484(3) -0.369(5) 1.513(5)
H14 H 0.411(4) -0.478(5) 1.491(4)
Cu2_2 Cu 1.21111(3) -0.23250(4) 1.06658(5)
Cu3A Cu 0.23054(3) -0.12650(5) 0.80052(4)
Cu3A_2 Cu 1.23054(3) -0.12650(5) 0.80052(4)
Cu4_2 Cu 0.21768(3) 0.59410(5) 1.34521(4)
Cu4A Cu 1.21768(3) -0.59410(5) 0.84521(4)
Cu5A Cu 0.33612(3) 0.28175(5) 1.09318(4)
Cu6A Cu 0.12391(3) 0.26349(4) 1.05785(4)
Cu6A_2 Cu 1.12391(3) -0.73651(4) 1.05785(4)
Cu6_2 Cu 0.12391(3) -0.26349(4) 1.55785(4)
Cu7A Cu 0.71219(3) 0.25737(4) 1.06187(5)
Cu7_2 Cu 0.71219(3) -0.25737(4) 0.56187(5)
Cu7A_2 Cu 0.71219(3) -0.74263(4) 1.06187(5)
Cl2_2 Cl 0.30883(7) -0.62796(9) 1.35087(9)
Cl2A Cl 0.30883(7) -0.37204(9) 1.85087(9)
O7A O 0.42596(19) -0.1464(3) 1.6378(3)
O8A O 0.61955(19) -0.1209(3) 1.5811(3)
O10A O 0.21317(19) 0.0671(3) 1.4757(3)
H9A H 0.152(2) 0.025(6) 1.481(6)
O11A O 0.23191(18) -0.1545(3) 1.6130(2)
O11A_2 O 1.23191(18) -0.1545(3) 0.6130(2)
H10A H 0.246(5) -0.073(4) 1.571(6)
H10A_2 H 1.246(5) -0.073(4) 0.571(6)
O14_2 O 0.79635(19) -0.1988(3) 1.7015(3)
O15A O 0.10380(19) 0.2106(3) 1.2836(3)
O16_2 O 0.08366(19) -0.2679(3) 0.9933(3)
O17A O 0.08577(18) -0.4729(3) 1.3449(3)
O18A O 1.03268(19) -0.4046(3) 0.5385(3)
O19A O 0.8084(2) -0.3867(3) 1.5282(3)
O22_2 O 1.23184(19) -0.3914(3) 0.5341(3)
H12_2 H 1.223(5) -0.473(4) 0.582(6)
loop_
_geom_bond_atom_site_label_1
_geom_bond_atom_site_label_2
_geom_bond_site_symmetry_1
_geom_bond_site_symmetry_2
Cu1 O1 1_555 1_555
Cu2 O5 1_555 1_555
Cu3 Cl2 1_555 1_555
Cu4 O4 1_555 1_555
Cu5 O4 1_555 1_555
Cu6 Cl1 1_555 1_555
Cu7 O3 1_555 1_555
Cl2 Cu4_2 1_555 1_555
C1 H1 1_555 1_555
C2 C1 1_555 1_555
H2 C2 1_555 1_555
C3 C2 1_555 1_555
H3 C3 1_555 1_555
C4 C3 1_555 1_555
H4 C4 1_555 1_555
C5 C1 1_555 1_555
C6 C2 1_555 1_555
C7 C3 1_555 1_555
C8 C4 1_555 1_555
C9 H5 1_555 1_555
C10 C9 1_555 1_555
H6 C10 1_555 1_555
C11 C10 1_555 1_555
H7 C11 1_555 1_555
C12 C11 1_555 1_555
H8 C12 1_555 1_555
C13 C9 1_555 1_555
C14 C10 1_555 1_555
C15 C11 1_555 1_555
C16 C12 1_555 1_555
O1 C1 1_555 1_555
O2 Cu1 1_555 1_555
O3 C5 1_555 1_555
O4 C6 1_555 1_555
O5 C6 1_555 1_555
O6 Cu3 1_555 1_555
O7 C7 1_555 1_555
O8 C8 1_555 1_555
O9 Cu1 1_555 1_555
O10 Cu2 1_555 1_555
H9 O10 1_555 1_555
O11 Cu3 1_555 1_555
H10 O11 1_555 1_555
O12 Cu1 1_555 1_555
O13 Cu1 1_555 1_555
O14 C13 1_555 1_555
O15 Cu6 1_555 1_555
O16 C14 1_555 1_555
O17 C15 1_555 1_555
O18 C15 1_555 1_555
O19 C16 1_555 1_555
O20 Cu1 1_555 1_555
O21 Cu2 1_555 1_555
H11 O21 1_555 1_555
O22 Cu4 1_555 1_555
H12 O22 1_555 1_555
O23 Cu5 1_555 1_555
H13 O23 1_555 1_555
H14 O23 1_555 1_555
Cu2_2 O16 1_555 1_555
Cu3A O10 1_555 1_555
Cu3A_2 O15 1_555 1_555
Cu4A O17 1_555 1_555
Cu5A Cl2 1_555 1_555
Cu6A O11 1_555 1_555
Cu6A_2 O18 1_555 1_555
Cu6_2 O22 1_555 1_555
Cu7A O8 1_555 1_555
Cu7_2 O14 1_555 1_555
Cu7A_2 O19 1_555 1_555
Cl2_2 Cu4 1_555 1_555
Cl2A Cu5 1_555 1_555
O7A Cu5 1_555 1_555
O8A Cu7 1_555 1_555
O10A Cu3 1_555 1_555
H9A O10A 1_555 1_555
O11A Cu5 1_555 1_555
O11A_2 Cu6 1_555 1_555
H10A O11A 1_555 1_555
H10A_2 O11A_2 1_555 1_555
O14_2 Cu7 1_555 1_555
O15A Cu3 1_555 1_555
O16_2 Cu2 1_555 1_555
O17A Cu4 1_555 1_555
O18A Cu6 1_555 1_555
O19A Cu7 1_555 1_555
O22_2 Cu6 1_555 1_555
H12_2 O22_2 1_555 1_555
Cu4 O21 1_555 1_555
Cu5 O22 1_555 1_555
C4 O1 1_555 1_555
C5 O2 1_555 1_555
C7 O6 1_555 1_555
C8 O9 1_555 1_555
C9 O12 1_555 1_555
C12 O12 1_555 1_555
C13 O13 1_555 1_555
C14 O15 1_555 1_555
C16 O20 1_555 1_555
O7 Cu5A 1_555 1_555
O11 Cu5A 1_555 1_555
Cu3A_2 O11A_2 1_555 1_555
Cu6A O15A 1_555 1_555
Cu6_2 O11A 1_555 1_555

#END
