
#######################################################################
#
#                 Cambridge Crystallographic Data Centre
#                                CCDC 
#
#######################################################################
#
# If this CIF has been generated from an entry in the Cambridge 
# Structural Database, then it will include bibliographic, chemical, 
# crystal, experimental, refinement or atomic coordinate data resulting 
# from the CCDC's data processing and validation procedures.
#
#######################################################################

data_TIVGEK
_symmetry_cell_setting           monoclinic
_symmetry_space_group_name_H-M   'C 2/c'
_symmetry_Int_Tables_number      15
_space_group_name_Hall           '-C 2yn'
loop_
_symmetry_equiv_pos_site_id
_symmetry_equiv_pos_as_xyz
1 x,y,z
2 -x,y,1/2-z
3 1/2+x,1/2+y,z
4 1/2-x,1/2+y,1/2-z
5 -x,-y,-z
6 x,-y,1/2+z
7 1/2-x,1/2-y,-z
8 1/2+x,1/2-y,1/2+z
_cell_length_a                   6.393(2)
_cell_length_b                   26.521(6)
_cell_length_c                   24.822(7)
_cell_angle_alpha                90
_cell_angle_beta                 92.75(2)
_cell_angle_gamma                90
_cell_volume                     4203.69
loop_
_atom_site_label
_atom_site_type_symbol
_atom_site_fract_x
_atom_site_fract_y
_atom_site_fract_z
N5 N 0.0002(2) 0.3767(5) 0.2689(5)
O10 O 0.004(2) 0.3440(5) 0.3040(5)
O11 O -0.167(1) 0.3934(3) 0.2486(3)
N6 N -0.002(2) 0.2500(7) 0.2661(8)
O12 O -0.002(3) 0.2830(6) 0.2996(6)
O13 O -0.165(1) 0.2303(4) 0.2458(5)
N5A N -0.0002(2) 0.3767(5) 0.2311(5)
O10A O -0.004(2) 0.3440(5) 0.1960(5)
O11A O 0.167(1) 0.3934(3) 0.2514(3)
N6A N 0.002(2) 0.2500(7) 0.2339(8)
O12A O 0.002(3) 0.2830(6) 0.2004(6)
O13A O 0.165(1) 0.2303(4) 0.2542(5)
O14 O 0.0000 0.1213(5) 0.2500
H25 H 0.1021 0.0941 0.2317
H25A H -0.1021 0.0941 0.2683
Ag1 Ag -0.0202(2) 0.0419(1) 0.4624(1)
O1 O -0.051(1) 0.0774(3) 0.5415(3)
O2 O -0.002(2) 0.0972(4) 0.3815(5)
O3 O 0.034(1) -0.0151(3) 0.3975(3)
C1 C -0.045(2) 0.0601(4) 0.5877(4)
N1 N -0.023(2) 0.1410(5) 0.3944(6)
C2 C -0.040(2) 0.0969(4) 0.6355(4)
O4 O -0.023(2) 0.1756(3) 0.3622(5)
O5 O -0.041(2) 0.1514(5) 0.4430(6)
N2 N -0.026(1) 0.1525(3) 0.6221(3)
H1 H -0.1650 0.0915 0.6548
H2 H 0.0770 0.0887 0.6595
C3 C -0.012(2) 0.1799(3) 0.6748(4)
C4 C -0.219(2) 0.1719(3) 0.5901(4)
C5 C 0.165(2) 0.1658(4) 0.5919(4)
C6 C -0.036(2) 0.2361(4) 0.6650(4)
H3 H 0.1208 0.1729 0.6931
H4 H -0.1209 0.1984 0.6971
C7 C -0.177(2) 0.2266(4) 0.5719(4)
H5 H -0.3356 0.1717 0.6130
H6 H -0.2511 0.1504 0.5597
C8 C 0.201(2) 0.2223(4) 0.5916(5)
H7 H 0.1486 0.1537 0.5555
H8 H 0.2841 0.1492 0.6090
N3 N 0.001(1) 0.2476(3) 0.6065(3)
H9 H -0.1738 0.2471 0.6736
H10 H 0.0644 0.2542 0.6875
H11 H -0.1406 0.2263 0.5348
H12 H -0.2992 0.2473 0.5750
H13 H 0.3113 0.2311 0.6174
H14 H 0.2388 0.2331 0.5566
C9 C 0.018(2) 0.3045(3) 0.6022(4)
C10 C 0.033(2) 0.3279(4) 0.5463(4)
H15 H 0.1402 0.3147 0.6236
H16 H -0.1015 0.3189 0.6184
O6 O 0.047(2) 0.3755(3) 0.5520(3)
O7 O 0.039(1) 0.3028(3) 0.5050(3)
Ag2 Ag 0.0576(2) 0.4309(1) 0.4915(1)
O8 O 0.069(1) 0.4979(3) 0.4432(3)
C11 C 0.041(2) 0.4907(4) 0.3930(4)
O9 O 0.026(1) 0.4494(3) 0.3690(3)
C12 C 0.022(2) 0.5407(4) 0.3624(3)
N4 N 0.010(1) 0.5395(3) 0.3018(3)
H17 H -0.0986 0.5585 0.3743
H18 H 0.1429 0.5601 0.3735
C13 C 0.007(2) 0.5925(4) 0.2818(4)
C14 C 0.197(2) 0.5143(4) 0.2805(4)
C15 C -0.188(2) 0.5129(4) 0.2800(4)
H19 H 0.1359 0.6084 0.2937
H20 H -0.1067 0.6109 0.2964
H21 H 0.2072 0.4805 0.2944
H22 H 0.3196 0.5325 0.2929
H23 H -0.3087 0.5292 0.2937
H24 H -0.1865 0.4785 0.2922
C1D C 0.045(2) -0.0601(4) 0.4123(4)
O3D O -0.034(1) 0.0151(3) 0.6025(3)
O1D O 0.051(1) -0.0774(3) 0.4585(3)
C2D C 0.040(2) -0.0969(4) 0.3645(4)
Ag1D Ag 0.0202(2) -0.0419(1) 0.5376(1)
N2D N 0.026(1) -0.1525(3) 0.3779(3)
H1D H 0.1650 -0.0915 0.3452
H2D H -0.0770 -0.0887 0.3405
O2D O 0.002(2) -0.0972(4) 0.6185(5)
C5D C -0.165(2) -0.1658(4) 0.4081(4)
C4D C 0.219(2) -0.1719(3) 0.4099(4)
C3D C 0.012(2) -0.1799(3) 0.3252(4)
N1D N 0.023(2) -0.1410(5) 0.6056(6)
C8D C -0.201(2) -0.2223(4) 0.4084(5)
H7D H -0.1486 -0.1537 0.4445
H8D H -0.2841 -0.1492 0.3910
H5D H 0.3356 -0.1717 0.3870
H6D H 0.2511 -0.1504 0.4403
C7D C 0.177(2) -0.2266(4) 0.4281(4)
H3D H -0.1208 -0.1729 0.3069
C6D C 0.036(2) -0.2361(4) 0.3350(4)
H4D H 0.1209 -0.1984 0.3029
O4D O 0.023(2) -0.1756(3) 0.6378(5)
O5D O 0.041(2) -0.1514(5) 0.5570(6)
N3D N -0.001(1) -0.2476(3) 0.3935(3)
H14D H -0.2388 -0.2331 0.4434
H13D H -0.3113 -0.2311 0.3826
H11D H 0.1406 -0.2263 0.4652
H12D H 0.2992 -0.2473 0.4250
H9D H 0.1738 -0.2471 0.3264
H10D H -0.0644 -0.2542 0.3125
C9D C -0.018(2) -0.3045(3) 0.3978(4)
H15D H -0.1402 -0.3147 0.3764
H16D H 0.1015 -0.3189 0.3816
C10D C -0.033(2) -0.3279(4) 0.4537(4)
O6D O -0.047(2) -0.3755(3) 0.4480(3)
O7D O -0.039(1) -0.3028(3) 0.4950(3)
Ag2D Ag -0.0576(2) -0.4309(1) 0.5085(1)
O8D O -0.069(1) -0.4979(3) 0.5568(3)
C13A C -0.007(2) 0.5925(4) 0.2182(4)
C15A C 0.188(2) 0.5129(4) 0.2200(4)
C14A C -0.197(2) 0.5143(4) 0.2195(4)
N4A N -0.010(1) 0.5395(3) 0.1982(3)
H19A H -0.1359 0.6084 0.2063
H20A H 0.1067 0.6109 0.2036
H23A H 0.3087 0.5292 0.2063
H24A H 0.1865 0.4785 0.2078
H21A H -0.2072 0.4805 0.2056
H22A H -0.3196 0.5325 0.2071
C12A C -0.022(2) 0.5407(4) 0.1376(3)
C11A C -0.041(2) 0.4907(4) 0.1070(4)
H17A H 0.0986 0.5585 0.1257
H18A H -0.1429 0.5601 0.1265
O8A O -0.069(1) 0.4979(3) 0.0568(3)
O9A O -0.026(1) 0.4494(3) 0.1310(3)
Ag2A Ag -0.0576(2) 0.4309(1) 0.0085(1)
loop_
_geom_bond_atom_site_label_1
_geom_bond_atom_site_label_2
_geom_bond_site_symmetry_1
_geom_bond_site_symmetry_2
Ag1 O1 1_555 1_555
O1 C1 1_555 1_555
O2 Ag1 1_555 1_555
O3 Ag1 1_555 1_555
C1 C2 1_555 1_555
N1 O2 1_555 1_555
C2 N2 1_555 1_555
O4 N1 1_555 1_555
O5 N1 1_555 1_555
N2 C3 1_555 1_555
H1 C2 1_555 1_555
H2 C2 1_555 1_555
C3 C6 1_555 1_555
C4 N2 1_555 1_555
C5 N2 1_555 1_555
C6 N3 1_555 1_555
H3 C3 1_555 1_555
H4 C3 1_555 1_555
C7 C4 1_555 1_555
H5 C4 1_555 1_555
H6 C4 1_555 1_555
C8 C5 1_555 1_555
H7 C5 1_555 1_555
H8 C5 1_555 1_555
N3 C7 1_555 1_555
H9 C6 1_555 1_555
H10 C6 1_555 1_555
H11 C7 1_555 1_555
H12 C7 1_555 1_555
H13 C8 1_555 1_555
H14 C8 1_555 1_555
C9 N3 1_555 1_555
C10 C9 1_555 1_555
H15 C9 1_555 1_555
H16 C9 1_555 1_555
O6 C10 1_555 1_555
O7 C10 1_555 1_555
Ag2 O6 1_555 1_555
O8 Ag2 1_555 1_555
C11 O8 1_555 1_555
O9 C11 1_555 1_555
C12 C11 1_555 1_555
N4 C12 1_555 1_555
H17 C12 1_555 1_555
H18 C12 1_555 1_555
C13 N4 1_555 1_555
C14 N4 1_555 1_555
C15 N4 1_555 1_555
H19 C13 1_555 1_555
H20 C13 1_555 1_555
H21 C14 1_555 1_555
H22 C14 1_555 1_555
H23 C15 1_555 1_555
H24 C15 1_555 1_555
N5 O10 1_555 1_555
O10 O12 1_555 1_555
O11 N5 1_555 1_555
N6 O12 1_555 1_555
O13 N6 1_555 1_555
O14 H25 1_555 1_555
C1D O3 1_555 1_555
O3D C1 1_555 1_555
O1D C1D 1_555 1_555
C2D C1D 1_555 1_555
Ag1D O3D 1_555 1_555
N2D C2D 1_555 1_555
H1D C2D 1_555 1_555
H2D C2D 1_555 1_555
O2D Ag1D 1_555 1_555
C5D N2D 1_555 1_555
C4D N2D 1_555 1_555
C3D N2D 1_555 1_555
N1D O2D 1_555 1_555
C8D C5D 1_555 1_555
H7D C5D 1_555 1_555
H8D C5D 1_555 1_555
H5D C4D 1_555 1_555
H6D C4D 1_555 1_555
C7D C4D 1_555 1_555
H3D C3D 1_555 1_555
C6D C3D 1_555 1_555
H4D C3D 1_555 1_555
O4D N1D 1_555 1_555
O5D N1D 1_555 1_555
N3D C8D 1_555 1_555
H14D C8D 1_555 1_555
H13D C8D 1_555 1_555
H11D C7D 1_555 1_555
H12D C7D 1_555 1_555
H9D C6D 1_555 1_555
H10D C6D 1_555 1_555
C9D N3D 1_555 1_555
H15D C9D 1_555 1_555
H16D C9D 1_555 1_555
C10D C9D 1_555 1_555
O6D C10D 1_555 1_555
O7D C10D 1_555 1_555
Ag2D O6D 1_555 1_555
O8D Ag2D 1_555 1_555
C13A C13 1_555 1_555
C15A C14 1_555 1_555
C14A C15 1_555 1_555
N4A C13A 1_555 1_555
H19A C13A 1_555 1_555
H20A C13A 1_555 1_555
H23A C15A 1_555 1_555
H24A C15A 1_555 1_555
H21A C14A 1_555 1_555
H22A C14A 1_555 1_555
C12A N4A 1_555 1_555
C11A C12A 1_555 1_555
H17A C12A 1_555 1_555
H18A C12A 1_555 1_555
O8A C11A 1_555 1_555
O9A C11A 1_555 1_555
Ag2A O8A 1_555 1_555
N5A N5 1_555 1_555
O10A N5A 1_555 1_555
O11A N5 1_555 1_555
N6A N6 1_555 1_555
O12A O10A 1_555 1_555
O13A N6 1_555 1_555
H25A O14 1_555 1_555
C8 N3 1_555 1_555
O11 N5A 1_555 1_555
O13 N6A 1_555 1_555
O1D Ag1D 1_555 1_555
C7D N3D 1_555 1_555
C6D N3D 1_555 1_555
C15A N4A 1_555 1_555
C14A N4A 1_555 1_555
N5A O11A 1_555 1_555
N6A O12A 1_555 1_555
N6A O13A 1_555 1_555

#END
