
#######################################################################
#
#                 Cambridge Crystallographic Data Centre
#                                CCDC 
#
#######################################################################
#
# If this CIF has been generated from an entry in the Cambridge 
# Structural Database, then it will include bibliographic, chemical, 
# crystal, experimental, refinement or atomic coordinate data resulting 
# from the CCDC's data processing and validation procedures.
#
#######################################################################

data_TIVLEQ
_symmetry_cell_setting           triclinic
_symmetry_space_group_name_H-M   'P -1'
_symmetry_Int_Tables_number      2
_space_group_name_Hall           '-P 1'
loop_
_symmetry_equiv_pos_site_id
_symmetry_equiv_pos_as_xyz
1 x,y,z
2 -x,-y,-z
_cell_length_a                   13.066(5)
_cell_length_b                   13.610(5)
_cell_length_c                   17.821(5)
_cell_angle_alpha                88.031(5)
_cell_angle_beta                 87.089(5)
_cell_angle_gamma                75.714(5)
_cell_volume                     3066.33
loop_
_atom_site_label
_atom_site_type_symbol
_atom_site_fract_x
_atom_site_fract_y
_atom_site_fract_z
C1 C 0.0898(14) -1.3873(11) 0.3730(8)
H1 H 0.0865 -1.3223 0.3538
C2 C 0.0283(14) -1.3976(11) 0.4359(8)
H2 H -0.0159 -1.3407 0.4580
C3 C 0.0324(11) -1.4914(9) 0.4659(6)
C4 C 0.1025(12) -1.5745(10) 0.4313(7)
H3 H 0.1097 -1.6398 0.4511
C5 C 0.1601(12) -1.5574(10) 0.3677(7)
H4 H 0.2053 -1.6130 0.3448
C6 C 0.3843(15) -1.5610(11) 0.1400(8)
H5 H 0.3762 -1.6174 0.1684
C7 C 0.4482(13) -1.5764(11) 0.0775(7)
H6 H 0.4822 -1.6418 0.0630
C8 C 0.4625(12) -1.4919(10) 0.0350(6)
C9 C 0.4145(10) -1.3980(9) 0.0583(6)
H7 H 0.4258 -1.3414 0.0316
C10 C 0.3473(12) -1.3859(10) 0.1233(7)
H8 H 0.3133 -1.3211 0.1390
C11 C 0.6457(13) -1.6212(11) 0.2707(7)
H9 H 0.6485 -1.6746 0.3052
C12 C 0.7130(12) -1.6371(10) 0.2095(7)
H10 H 0.7602 -1.6999 0.2027
C13 C 0.7109(11) -1.5597(10) 0.1575(7)
C14 C 0.6431(10) -1.4676(9) 0.1727(7)
H11 H 0.6421 -1.4123 0.1403
C15 C 0.5755(11) -1.4567(11) 0.2366(7)
H12 H 0.5294 -1.3940 0.2457
C16 C 0.7812(10) -1.5758(9) 0.0880(6)
C17 C 0.8158(12) -1.4968(10) 0.0543(6)
H13 H 0.7966 -1.4331 0.0756
C18 C 0.8784(12) -1.5111(10) -0.0105(7)
H14 H 0.8986 -1.4558 -0.0331
C19 C 0.8743(12) -1.6796(12) -0.0095(7)
H15 H 0.8919 -1.7427 -0.0318
C20 C 0.8121(12) -1.6696(10) 0.0547(6)
H16 H 0.7907 -1.7250 0.0760
C21 C 0.4063(13) -1.6294(11) 0.4882(8)
H17 H 0.4532 -1.6845 0.4660
C22 C 0.3458(12) -1.6472(10) 0.5538(7)
H18 H 0.3524 -1.7128 0.5729
C23 C 0.2792(11) -1.5686(9) 0.5876(7)
C24 C 0.2697(13) -1.4711(10) 0.5533(7)
H19 H 0.2239 -1.4149 0.5750
C25 C 0.3272(13) -1.4589(11) 0.4887(7)
H20 H 0.3167 -1.3950 0.4658
C26 C 0.1659(17) -1.6880(13) 0.7558(11)
H21 H 0.1757 -1.7508 0.7802
C27 C 0.2268(16) -1.6789(12) 0.6939(9)
H22 H 0.2764 -1.7351 0.6754
C28 C 0.2145(11) -1.5825(11) 0.6570(7)
C29 C 0.1412(11) -1.5028(11) 0.6883(7)
H23 H 0.1310 -1.4380 0.6669
C30 C 0.0820(12) -1.5204(10) 0.7531(6)
H24 H 0.0342 -1.4654 0.7748
N1 N 0.1551(11) -1.4663(9) 0.3370(6)
N2 N 0.3316(10) -1.4687(8) 0.1637(6)
N3 N 0.9126(10) -1.6046(9) -0.0434(6)
N4 N 0.5750(10) -1.5329(8) 0.2847(5)
N5 N 0.3989(9) -1.5381(8) 0.4575(6)
N6 N 0.0902(9) -1.6082(8) 0.7838(5)
O1 O 0.2096(6) -1.0850(6) 0.2809(4)
O3 O 0.1456(7) -0.8824(6) 0.2293(4)
O4 O 0.3360(6) -1.0099(6) 0.1692(4)
O5 O 0.3196(7) -0.9409(6) 0.3189(4)
O6 O -0.0558(7) -0.8365(7) 0.2248(5)
O7 O 0.0662(8) -0.7664(7) 0.1195(5)
O8 O 0.0501(7) -0.7016(6) 0.2620(5)
O9 O 0.2664(7) -0.7401(6) 0.2562(5)
O10 O 0.1242(8) -0.8173(7) 0.3804(5)
O11 O 0.3184(7) -0.7896(7) 0.3995(5)
O12 O 0.3765(8) -0.9839(7) 0.4538(5)
O13 O 0.5021(8) -0.9162(7) 0.3465(5)
O14 O 0.3915(8) -1.1482(7) 0.3662(5)
O15 O 0.5102(7) -1.0803(6) 0.2645(4)
O16 O 0.4085(7) -1.2138(6) 0.2292(4)
O17 O 0.4167(7) -1.1604(6) 0.0843(4)
O18 O 0.2183(7) -1.2691(6) 0.2546(4)
O19 O 0.2107(7) -1.1487(7) 0.1299(4)
O20 O 0.2098(8) -1.2032(6) 0.3960(4)
O21 O 0.0415(8) -1.1453(7) 0.3101(5)
O22 O 0.3548(7) -0.9639(7) 0.0292(5)
O23 O 0.5237(7) -1.0197(6) 0.1159(4)
O24 O 0.1843(7) -1.0046(6) 0.4305(4)
O25 O 0.0210(7) -0.9520(6) 0.3473(5)
O26 O 0.2759(7) -0.8020(6) 0.1204(5)
O27 O 0.4414(7) -0.8579(6) 0.2046(5)
O28 O 0.0392(7) -1.0277(6) 0.1822(5)
O29 O 0.0383(8) -1.2306(8) 0.1727(5)
O30 O 0.1544(7) -0.9621(7) 0.0797(4)
O31 O -0.0600(8) -0.8866(8) 0.0735(6)
O32 O -0.0966(9) -0.7516(8) 0.3645(6)
O33 O 0.1496(8) -0.6030(7) 0.1573(5)
O34 O 0.6032(8) -1.2218(7) 0.1569(6)
O35 O 0.4549(8) -0.7096(7) 0.3074(5)
O36 O 0.2051(9) -0.8432(8) 0.5216(5)
O37 O 0.5741(8) -1.1055(8) 0.4116(5)
O38 O 0.0207(8) -1.1030(7) 0.4621(5)
O39 O 0.2670(8) -1.1149(8) -0.0193(5)
O40 O 0.3844(8) -1.3524(7) 0.3435(5)
O41 O 0.4754(8) -0.8254(7) 0.0518(5)
Cu1 Cu 0.23985(16) -1.45069(15) 0.25071(9)
Cu2 Cu 0.47550(16) -1.52129(15) 0.36715(9)
Cu3 Cu -0.00046(17) -1.37480(16) 0.13085(10)
Ge1 Ge 0.25306(10) -0.97947(9) 0.24881(6)
Mo1 Mo 0.03203(11) -0.89365(10) 0.13658(8)
Mo2 Mo 0.27720(11) -1.07176(10) 0.06602(6)
Mo3 Mo 0.49286(10) -1.13294(9) 0.17451(7)
Mo4 Mo 0.32127(10) -1.23352(9) 0.31304(6)
Mo5 Mo 0.10108(10) -1.08297(9) 0.38961(6)
Mo6 Mo 0.10683(11) -1.15746(9) 0.21248(6)
Mo7 Mo 0.00808(11) -0.81869(9) 0.31452(7)
Mo8 Mo 0.15815(10) -0.72402(8) 0.18973(6)
Mo9 Mo 0.40753(11) -0.89083(9) 0.10891(6)
Mo10 Mo 0.46313(12) -1.04653(10) 0.37021(7)
Mo11 Mo 0.23814(11) -0.88416(10) 0.43338(6)
Mo12 Mo 0.39676(10) -0.80791(9) 0.30519(7)
C1A C -0.0898(14) -1.6127(11) 0.6270(8)
H1A H -0.0865 -1.6777 0.6462
C2A C -0.0283(14) -1.6024(11) 0.5641(8)
H2A H 0.0159 -1.6593 0.5420
C3A C -0.0324(11) -1.5086(9) 0.5341(6)
C4A C -0.1025(12) -1.4255(10) 0.5687(7)
H3A H -0.1097 -1.3602 0.5489
C5A C -0.1601(12) -1.4426(10) 0.6323(7)
H4A H -0.2053 -1.3870 0.6552
C6A C 0.6157(15) -1.4390(11) -0.1400(8)
H5A H 0.6238 -1.3826 -0.1684
C7A C 0.5518(13) -1.4236(11) -0.0775(7)
H6A H 0.5178 -1.3582 -0.0630
C8A C 0.5375(12) -1.5081(10) -0.0350(6)
C9A C 0.5855(10) -1.6020(9) -0.0583(6)
H7A H 0.5742 -1.6586 -0.0316
C10A C 0.6527(12) -1.6141(10) -0.1233(7)
H8A H 0.6867 -1.6789 -0.1390
C11A C 0.3543(13) -1.3788(11) -0.2707(7)
H9A H 0.3515 -1.3254 -0.3052
C12A C 0.2870(12) -1.3629(10) -0.2095(7)
H10A H 0.2398 -1.3001 -0.2027
C13A C 0.2891(11) -1.4403(10) -0.1575(7)
C14A C 0.3569(10) -1.5324(9) -0.1727(7)
H11A H 0.3579 -1.5877 -0.1403
C15A C 0.4245(11) -1.5433(11) -0.2366(7)
H12A H 0.4706 -1.6060 -0.2457
C16A C 0.2188(10) -1.4242(9) -0.0880(6)
C17A C 0.1842(12) -1.5032(10) -0.0543(6)
H13A H 0.2034 -1.5669 -0.0756
C18A C 0.1216(12) -1.4889(10) 0.0105(7)
H14A H 0.1014 -1.5442 0.0331
C19A C 0.1257(12) -1.3204(12) 0.0095(7)
H15A H 0.1081 -1.2573 0.0318
C20A C 0.1879(12) -1.3304(10) -0.0547(6)
H16A H 0.2093 -1.2750 -0.0760
C21A C -0.4063(13) -1.3706(11) 0.5118(8)
H17A H -0.4532 -1.3155 0.5340
C22A C -0.3458(12) -1.3528(10) 0.4462(7)
H18A H -0.3524 -1.2872 0.4271
C23A C -0.2792(11) -1.4314(9) 0.4124(7)
C24A C -0.2697(13) -1.5289(10) 0.4467(7)
H19A H -0.2239 -1.5851 0.4250
C25A C -0.3272(13) -1.5411(11) 0.5113(7)
H20A H -0.3167 -1.6050 0.5342
C26A C -0.1659(17) -1.3120(13) 0.2442(11)
H21A H -0.1757 -1.2492 0.2198
C27A C -0.2268(16) -1.3211(12) 0.3061(9)
H22A H -0.2764 -1.2649 0.3246
C28A C -0.2145(11) -1.4175(11) 0.3430(7)
C29A C -0.1412(11) -1.4972(11) 0.3117(7)
H23A H -0.1310 -1.5620 0.3331
C30A C -0.0820(12) -1.4796(10) 0.2469(6)
H24A H -0.0342 -1.5346 0.2252
N1A N -0.1551(11) -1.5337(9) 0.6630(6)
N2A N 0.6684(10) -1.5313(8) -0.1637(6)
N2A_2 N -0.3316(10) -1.5313(8) 0.8363(6)
N3A N 0.0874(10) -1.3954(9) 0.0434(6)
N4A N 0.4250(10) -1.4671(8) -0.2847(5)
N5A N -0.3989(9) -1.4619(8) 0.5425(6)
N5A_2 N 0.6011(9) -1.4619(8) -0.4575(6)
N6A N -0.0902(9) -1.3918(8) 0.2162(5)
N6_2 N 1.0902(9) -1.6082(8) -0.2162(5)
O1A O -0.2096(6) -1.9150(6) 0.7191(4)
O3A O -0.1456(7) -2.1176(6) 0.7707(4)
O4A O -0.3360(6) -1.9901(6) 0.8308(4)
O5A O -0.3196(7) -2.0591(6) 0.6811(4)
O6A O 0.0558(7) -2.1635(7) 0.7752(5)
O7A O -0.0662(8) -2.2336(7) 0.8805(5)
O8A O -0.0501(7) -2.2984(6) 0.7380(5)
O9A O -0.2664(7) -2.2599(6) 0.7438(5)
O10A O -0.1242(8) -2.1827(7) 0.6196(5)
O11A O -0.3184(7) -2.2104(7) 0.6005(5)
O12A O -0.3765(8) -2.0161(7) 0.5462(5)
O13A O -0.5021(8) -2.0838(7) 0.6535(5)
O14A O -0.3915(8) -1.8518(7) 0.6338(5)
O15A O -0.5102(7) -1.9197(6) 0.7355(4)
O16A O -0.4085(7) -1.7862(6) 0.7708(4)
O17A O -0.4167(7) -1.8396(6) 0.9157(4)
O18A O -0.2183(7) -1.7309(6) 0.7454(4)
O19A O -0.2107(7) -1.8513(7) 0.8701(4)
O20A O -0.2098(8) -1.7968(6) 0.6040(4)
O21A O -0.0415(8) -1.8547(7) 0.6899(5)
O22A O -0.3548(7) -2.0361(7) 0.9708(5)
O23A O -0.5237(7) -1.9803(6) 0.8841(4)
O24A O -0.1843(7) -1.9954(6) 0.5695(4)
O25A O -0.0210(7) -2.0480(6) 0.6527(5)
O26A O -0.2759(7) -2.1980(6) 0.8796(5)
O27A O -0.4414(7) -2.1421(6) 0.7954(5)
O28A O -0.0392(7) -1.9723(6) 0.8178(5)
O29A O -0.0383(8) -1.7694(8) 0.8273(5)
O29A_2 O 0.9617(8) -1.7694(8) -0.1727(5)
O30A O -0.1544(7) -2.0379(7) 0.9203(4)
O31A O 0.0600(8) -2.1134(8) 0.9265(6)
O32A O 0.0966(9) -2.2484(8) 0.6355(6)
O33A O -0.1496(8) -2.3970(7) 0.8427(5)
O34A O -0.6032(8) -1.7782(7) 0.8431(6)
O35A O -0.4549(8) -2.2904(7) 0.6926(5)
O36A O -0.2051(9) -2.1568(8) 0.4784(5)
O37A O -0.5741(8) -1.8945(8) 0.5884(5)
O38A O -0.0207(8) -1.8970(7) 0.5379(5)
O39A O -0.2670(8) -1.8851(8) 1.0193(5)
O40A O -0.3844(8) -1.6476(7) 0.6565(5)
O40A_2 O 0.6156(8) -1.6476(7) -0.3435(5)
O41A O -0.4754(8) -2.1746(7) 0.9482(5)
Cu1A Cu -0.23985(16) -1.54931(15) 0.74929(9)
Cu1A_2 Cu 0.76015(16) -1.54931(15) -0.25071(9)
Cu2A Cu 0.52450(16) -1.47871(15) -0.36715(9)
Cu2A_2 Cu -0.47550(16) -1.47871(15) 0.63285(9)
Cu3A Cu 1.00046(17) -1.62520(16) -0.13085(10)
Cu3A_2 Cu 0.00046(17) -1.62520(16) 0.86915(10)
Ge1A Ge -0.25306(10) -2.02053(9) 0.75119(6)
Mo1A Mo -0.03203(11) -2.10635(10) 0.86342(8)
Mo2A Mo -0.27720(11) -1.92824(10) 0.93398(6)
Mo3A Mo -0.49286(10) -1.86706(9) 0.82549(7)
Mo4A Mo -0.32127(10) -1.76648(9) 0.68696(6)
Mo5A Mo -0.10108(10) -1.91703(9) 0.61039(6)
Mo6A Mo -0.10683(11) -1.84254(9) 0.78752(6)
Mo7A Mo -0.00808(11) -2.18131(9) 0.68548(7)
Mo8A Mo -0.15815(10) -2.27598(8) 0.81027(6)
Mo9A Mo -0.40753(11) -2.10917(9) 0.89109(6)
Mo10A Mo -0.46313(12) -1.95347(10) 0.62979(7)
Mo11A Mo -0.23814(11) -2.11584(10) 0.56662(6)
Mo12A Mo -0.39676(10) -2.19209(9) 0.69481(7)
O2 O 0.171(2) -0.7528(16) 0.9561(11)
loop_
_geom_bond_atom_site_label_1
_geom_bond_atom_site_label_2
_geom_bond_site_symmetry_1
_geom_bond_site_symmetry_2
C1 H1 1_555 1_555
C2 C1 1_555 1_555
H2 C2 1_555 1_555
C3 C2 1_555 1_555
C4 C3 1_555 1_555
H3 C4 1_555 1_555
C5 C4 1_555 1_555
H4 C5 1_555 1_555
C6 H5 1_555 1_555
C7 C6 1_555 1_555
H6 C7 1_555 1_555
C8 C7 1_555 1_555
C9 C8 1_555 1_555
H7 C9 1_555 1_555
C10 C9 1_555 1_555
H8 C10 1_555 1_555
C11 H9 1_555 1_555
C12 C11 1_555 1_555
H10 C12 1_555 1_555
C13 C12 1_555 1_555
C14 C13 1_555 1_555
H11 C14 1_555 1_555
C15 C14 1_555 1_555
H12 C15 1_555 1_555
C16 C13 1_555 1_555
C17 C16 1_555 1_555
H13 C17 1_555 1_555
C18 C17 1_555 1_555
H14 C18 1_555 1_555
C19 H15 1_555 1_555
C20 C16 1_555 1_555
H16 C20 1_555 1_555
C21 H17 1_555 1_555
C22 C21 1_555 1_555
H18 C22 1_555 1_555
C23 C22 1_555 1_555
C24 C23 1_555 1_555
H19 C24 1_555 1_555
C25 C24 1_555 1_555
H20 C25 1_555 1_555
C26 H21 1_555 1_555
C27 C26 1_555 1_555
H22 C27 1_555 1_555
C28 C23 1_555 1_555
C29 C28 1_555 1_555
H23 C29 1_555 1_555
C30 C29 1_555 1_555
H24 C30 1_555 1_555
N1 C1 1_555 1_555
N2 C6 1_555 1_555
N3 C18 1_555 1_555
N4 C11 1_555 1_555
N5 C21 1_555 1_555
N6 C26 1_555 1_555
O1 Ge1 1_555 1_555
O3 Ge1 1_555 1_555
O4 Ge1 1_555 1_555
O5 Ge1 1_555 1_555
O6 Mo1 1_555 1_555
O7 Mo1 1_555 1_555
O8 Mo7 1_555 1_555
O9 Mo8 1_555 1_555
O10 Mo7 1_555 1_555
O11 Mo11 1_555 1_555
O12 Mo10 1_555 1_555
O13 Mo10 1_555 1_555
O14 Mo4 1_555 1_555
O15 Mo3 1_555 1_555
O16 Mo3 1_555 1_555
O17 Mo2 1_555 1_555
O18 Cu1 1_555 1_555
O19 Mo2 1_555 1_555
O20 Mo4 1_555 1_555
O21 Mo5 1_555 1_555
O22 Mo2 1_555 1_555
O23 Mo3 1_555 1_555
O24 Mo5 1_555 1_555
O25 Mo5 1_555 1_555
O26 Mo8 1_555 1_555
O27 Mo9 1_555 1_555
O28 Mo1 1_555 1_555
O29 Cu3 1_555 1_555
O30 Mo1 1_555 1_555
O31 Mo1 1_555 1_555
O32 Mo7 1_555 1_555
O33 Mo8 1_555 1_555
O34 Mo3 1_555 1_555
O35 Mo12 1_555 1_555
O36 Mo11 1_555 1_555
O37 Mo10 1_555 1_555
O38 Mo5 1_555 1_555
O39 Mo2 1_555 1_555
O40 Cu2 1_555 1_555
O41 Mo9 1_555 1_555
Cu1 N1 1_555 1_555
Cu2 N4 1_555 1_555
Cu3 N3A 1_555 1_555
Mo1 O3 1_555 1_555
Mo2 O4 1_555 1_555
Mo3 O4 1_555 1_555
Mo4 O1 1_555 1_555
Mo5 O1 1_555 1_555
Mo6 O1 1_555 1_555
Mo7 O3 1_555 1_555
Mo8 O3 1_555 1_555
Mo9 O4 1_555 1_555
Mo10 O5 1_555 1_555
Mo11 O5 1_555 1_555
Mo12 O5 1_555 1_555
C1A H1A 1_555 1_555
C2A C1A 1_555 1_555
H2A C2A 1_555 1_555
C3A C3 1_555 1_555
C4A C3A 1_555 1_555
H3A C4A 1_555 1_555
C5A C4A 1_555 1_555
H4A C5A 1_555 1_555
C6A H5A 1_555 1_555
C7A C6A 1_555 1_555
H6A C7A 1_555 1_555
C8A C8 1_555 1_555
C9A C8A 1_555 1_555
H7A C9A 1_555 1_555
C10A C9A 1_555 1_555
H8A C10A 1_555 1_555
C11A H9A 1_555 1_555
C12A C11A 1_555 1_555
H10A C12A 1_555 1_555
C13A C12A 1_555 1_555
C14A C13A 1_555 1_555
H11A C14A 1_555 1_555
C15A C14A 1_555 1_555
H12A C15A 1_555 1_555
C16A C13A 1_555 1_555
C17A C16A 1_555 1_555
H13A C17A 1_555 1_555
C18A C17A 1_555 1_555
H14A C18A 1_555 1_555
C19A H15A 1_555 1_555
C20A C16A 1_555 1_555
H16A C20A 1_555 1_555
C21A H17A 1_555 1_555
C22A C21A 1_555 1_555
H18A C22A 1_555 1_555
C23A C22A 1_555 1_555
C24A C23A 1_555 1_555
H19A C24A 1_555 1_555
C25A C24A 1_555 1_555
H20A C25A 1_555 1_555
C26A H21A 1_555 1_555
C27A C26A 1_555 1_555
H22A C27A 1_555 1_555
C28A C23A 1_555 1_555
C29A C28A 1_555 1_555
H23A C29A 1_555 1_555
C30A C29A 1_555 1_555
H24A C30A 1_555 1_555
N1A C1A 1_555 1_555
N2A C6A 1_555 1_555
N2A_2 Cu1A 1_555 1_555
N3A C18A 1_555 1_555
N4A C11A 1_555 1_555
N5A C21A 1_555 1_555
N5A_2 Cu2A 1_555 1_555
N6A Cu3 1_555 1_555
N6_2 Cu3A 1_555 1_555
O1A Ge1A 1_555 1_555
O3A Ge1A 1_555 1_555
O4A Ge1A 1_555 1_555
O5A Ge1A 1_555 1_555
O6A Mo1A 1_555 1_555
O7A Mo1A 1_555 1_555
O8A Mo7A 1_555 1_555
O9A Mo8A 1_555 1_555
O10A Mo7A 1_555 1_555
O11A Mo11A 1_555 1_555
O12A Mo10A 1_555 1_555
O13A Mo10A 1_555 1_555
O14A Mo4A 1_555 1_555
O15A Mo3A 1_555 1_555
O16A Mo3A 1_555 1_555
O17A Mo2A 1_555 1_555
O18A Cu1A 1_555 1_555
O19A Mo2A 1_555 1_555
O20A Mo4A 1_555 1_555
O21A Mo5A 1_555 1_555
O22A Mo2A 1_555 1_555
O23A Mo3A 1_555 1_555
O24A Mo5A 1_555 1_555
O25A Mo5A 1_555 1_555
O26A Mo8A 1_555 1_555
O27A Mo9A 1_555 1_555
O28A Mo1A 1_555 1_555
O29A Cu3A_2 1_555 1_555
O29A_2 Cu3A 1_555 1_555
O30A Mo1A 1_555 1_555
O31A Mo1A 1_555 1_555
O32A Mo7A 1_555 1_555
O33A Mo8A 1_555 1_555
O34A Mo3A 1_555 1_555
O35A Mo12A 1_555 1_555
O36A Mo11A 1_555 1_555
O37A Mo10A 1_555 1_555
O38A Mo5A 1_555 1_555
O39A Mo2A 1_555 1_555
O40A Cu2A_2 1_555 1_555
O40A_2 Cu2A 1_555 1_555
O41A Mo9A 1_555 1_555
Cu1A N1A 1_555 1_555
Cu1A_2 N2A 1_555 1_555
Cu2A N4A 1_555 1_555
Cu2A_2 N5A 1_555 1_555
Cu3A N3 1_555 1_555
Cu3A_2 N6 1_555 1_555
Mo1A O3A 1_555 1_555
Mo2A O4A 1_555 1_555
Mo3A O4A 1_555 1_555
Mo4A O1A 1_555 1_555
Mo5A O1A 1_555 1_555
Mo6A O1A 1_555 1_555
Mo7A O3A 1_555 1_555
Mo8A O3A 1_555 1_555
Mo9A O4A 1_555 1_555
Mo10A O5A 1_555 1_555
Mo11A O5A 1_555 1_555
Mo12A O5A 1_555 1_555
C5 N1 1_555 1_555
C10 N2 1_555 1_555
C15 N4 1_555 1_555
C19 C20 1_555 1_555
C19 N3 1_555 1_555
C25 N5 1_555 1_555
C27 C28 1_555 1_555
C30 N6 1_555 1_555
N2 Cu1 1_555 1_555
N5 Cu2 1_555 1_555
O6 Mo7 1_555 1_555
O7 Mo8 1_555 1_555
O8 Mo8 1_555 1_555
O9 Mo12 1_555 1_555
O10 Mo11 1_555 1_555
O11 Mo12 1_555 1_555
O12 Mo11 1_555 1_555
O13 Mo12 1_555 1_555
O14 Mo10 1_555 1_555
O15 Mo10 1_555 1_555
O16 Mo4 1_555 1_555
O17 Mo3 1_555 1_555
O18 Mo4 1_555 1_555
O18 Mo6 1_555 1_555
O19 Mo6 1_555 1_555
O20 Mo5 1_555 1_555
O21 Mo6 1_555 1_555
O22 Mo9 1_555 1_555
O23 Mo9 1_555 1_555
O24 Mo11 1_555 1_555
O25 Mo7 1_555 1_555
O26 Mo9 1_555 1_555
O27 Mo12 1_555 1_555
O28 Mo6 1_555 1_555
O29 Mo6 1_555 1_555
O30 Mo2 1_555 1_555
O40 Mo4 1_555 1_555
C2A C3A 1_555 1_555
C5A N1A 1_555 1_555
C7A C8A 1_555 1_555
C10A N2A 1_555 1_555
C15A N4A 1_555 1_555
C19A C20A 1_555 1_555
C19A N3A 1_555 1_555
C25A N5A 1_555 1_555
C26A N6A 1_555 1_555
C27A C28A 1_555 1_555
C30A N6A 1_555 1_555
O6A Mo7A 1_555 1_555
O7A Mo8A 1_555 1_555
O8A Mo8A 1_555 1_555
O9A Mo12A 1_555 1_555
O10A Mo11A 1_555 1_555
O11A Mo12A 1_555 1_555
O12A Mo11A 1_555 1_555
O13A Mo12A 1_555 1_555
O14A Mo10A 1_555 1_555
O15A Mo10A 1_555 1_555
O16A Mo4A 1_555 1_555
O17A Mo3A 1_555 1_555
O18A Mo4A 1_555 1_555
O18A Mo6A 1_555 1_555
O19A Mo6A 1_555 1_555
O20A Mo5A 1_555 1_555
O21A Mo6A 1_555 1_555
O22A Mo9A 1_555 1_555
O23A Mo9A 1_555 1_555
O24A Mo11A 1_555 1_555
O25A Mo7A 1_555 1_555
O26A Mo9A 1_555 1_555
O27A Mo12A 1_555 1_555
O28A Mo6A 1_555 1_555
O29A Mo6A 1_555 1_555
O30A Mo2A 1_555 1_555
O40A Mo4A 1_555 1_555

#END
