
#######################################################################
#
#                 Cambridge Crystallographic Data Centre
#                                CCDC 
#
#######################################################################
#
# If this CIF has been generated from an entry in the Cambridge 
# Structural Database, then it will include bibliographic, chemical, 
# crystal, experimental, refinement or atomic coordinate data resulting 
# from the CCDC's data processing and validation procedures.
#
#######################################################################

data_TIVLOA
_symmetry_cell_setting           triclinic
_symmetry_space_group_name_H-M   'P -1'
_symmetry_Int_Tables_number      2
_space_group_name_Hall           '-P 1'
loop_
_symmetry_equiv_pos_site_id
_symmetry_equiv_pos_as_xyz
1 x,y,z
2 -x,-y,-z
_cell_length_a                   11.7978(9)
_cell_length_b                   13.1675(10)
_cell_length_c                   13.6598(10)
_cell_angle_alpha                79.1370(10)
_cell_angle_beta                 78.573(2)
_cell_angle_gamma                63.9930(10)
_cell_volume                     1856.87
loop_
_atom_site_label
_atom_site_type_symbol
_atom_site_fract_x
_atom_site_fract_y
_atom_site_fract_z
Cu1 Cu 0.5000 0.0000 0.0000
N2 N 0.4892(9) 0.1505(6) -0.0105(7)
C11 C 0.5249(12) 0.3068(8) -0.1095(8)
H9 H 0.5458 0.3396 -0.1729
C12 C 0.5230(11) 0.2008(8) -0.0983(8)
H10 H 0.5465 0.1628 -0.1548
C13 C 0.5040(10) 0.4704(8) -0.0356(7)
H11 H 0.5172 0.5024 -0.1013
C14 C 0.4953(9) 0.3643(7) -0.0256(7)
C17 C 0.4585(9) 0.3127(7) 0.0619(7)
H14 H 0.4361 0.3488 0.1196
C18 C 0.4526(10) 0.2072(8) 0.0700(8)
H15 H 0.4232 0.1767 0.1313
Cu1_2 Cu 0.5000 1.0000 0.0000
N2A N 0.5108(9) 0.8495(6) 0.0105(7)
N2A_2 N 0.5108(9) -0.1505(6) 0.0105(7)
C11A C 0.4751(12) 0.6932(8) 0.1095(8)
H9A H 0.4542 0.6604 0.1729
C12A C 0.4770(11) 0.7992(8) 0.0983(8)
H10A H 0.4535 0.8372 0.1548
C13A C 0.4960(10) 0.5296(8) 0.0356(7)
H11A H 0.4828 0.4976 0.1013
C14A C 0.5047(9) 0.6357(7) 0.0256(7)
C17A C 0.5415(9) 0.6873(7) -0.0619(7)
H14A H 0.5639 0.6512 -0.1196
C18A C 0.5474(10) 0.7928(8) -0.0700(8)
H15A H 0.5768 0.8233 -0.1313
Ge1 Ge 0.5000 0.0000 0.5000
Mo1 Mo 0.30247(11) 0.00972(9) 0.32442(7)
Mo2 Mo 0.17490(9) 0.05057(8) 0.57424(7)
Mo3 Mo 0.53139(9) -0.25155(7) 0.41468(6)
Mo4 Mo 0.26914(9) 0.26222(7) 0.40117(6)
Mo5 Mo 0.62281(10) -0.03908(7) 0.24685(6)
Mo6 Mo 0.40766(12) -0.20752(8) 0.66584(7)
Cu2 Cu 0.84262(16) -0.08991(11) -0.04453(15)
V1 V 0.18894(17) 0.26572(14) 0.63674(11)
O1 O 0.3543(12) 0.0641(9) 0.4586(9)
O2 O 0.4075(11) 0.2758(9) 0.3301(8)
O3 O 0.4871(13) -0.0533(9) 0.3982(8)
O4 O 0.0850(13) 0.3511(9) 0.6993(10)
O5 O 0.3874(13) -0.0228(9) 0.6015(9)
O6 O 0.6071(13) 0.1034(7) 0.2459(9)
O7 O 0.2461(13) -0.0954(7) 0.6277(9)
O8 O 0.2193(13) 0.1030(8) 0.6839(8)
O9 O 0.5618(8) -0.3725(6) 0.3716(6)
O10 O 0.1693(11) 0.2058(8) 0.5202(6)
O11 O 0.4556(9) 0.0013(8) 0.2353(8)
O12 O 0.1529(9) 0.3854(6) 0.3699(5)
O13 O 0.4461(10) -0.2635(9) 0.5389(8)
O14 O 0.0218(8) 0.0879(7) 0.6131(6)
O15 O 0.1922(11) 0.0175(7) 0.4485(6)
O16 O 0.4622(12) 0.1435(10) 0.4671(7)
O17 O 0.3884(8) -0.1511(7) 0.3552(8)
O18 O 0.6958(11) -0.3039(11) 0.4744(6)
O19 O 0.2610(11) 0.1696(7) 0.3250(6)
O20 O 0.2191(9) 0.0183(7) 0.2422(5)
O21 O 0.6429(8) -0.1946(8) 0.3082(7)
O22 O 0.3686(8) -0.3004(7) 0.7422(5)
O23 O 0.6904(7) -0.0661(6) 0.1292(5)
N1 N 0.8586(8) 0.0482(7) -0.0517(7)
N3 N 0.8487(8) 0.7644(7) -0.0403(8)
C1 C 0.9187(12) 0.1919(9) -0.1423(9)
H1 H 0.9602 0.2159 -0.2008
C2 C 0.8728(11) 0.3700(9) -0.0806(11)
H2 H 0.9007 0.3938 -0.1456
C3 C 0.8414(12) 0.4352(11) -0.0175(11)
H3 H 0.8089 0.4125 0.0462
C4 C 0.8822(11) 0.6047(9) -0.1213(9)
H4 H 0.9063 0.5696 -0.1797
C5 C 0.9083(12) 0.0955(10) -0.1375(9)
H5 H 0.9358 0.0579 -0.1947
C6 C 0.8211(11) 0.2088(9) 0.0243(10)
H6 H 0.7926 0.2447 0.0825
C7 C 0.8203(11) 0.6041(8) 0.0506(9)
H7 H 0.7986 0.5695 0.1128
C8 C 0.8496(10) 0.5491(8) -0.0315(9)
C9 C 0.8704(11) 0.2599(8) -0.0637(9)
C10 C 0.8148(11) 0.1111(9) 0.0250(9)
H8 H 0.7768 0.0837 0.0837
C15 C 0.8213(11) 0.7076(8) 0.0457(9)
H12 H 0.8021 0.7402 0.1050
C16 C 0.8795(10) 0.7123(8) -0.1258(9)
H13 H 0.8989 0.7492 -0.1874
Mo1A Mo 0.69753(11) -0.00972(9) 0.67558(7)
Mo2A Mo 0.82510(9) -0.05057(8) 0.42576(7)
Mo3A Mo 0.46861(9) 0.25155(7) 0.58532(6)
Mo4A Mo 0.73086(9) -0.26222(7) 0.59883(6)
Mo5A Mo 0.37719(10) 0.03908(7) 0.75315(6)
Mo6A Mo 0.59234(12) 0.20752(8) 0.33416(7)
Cu2A Cu 0.15738(16) 0.08991(11) 1.04453(15)
Cu2_2 Cu 0.84262(16) 0.91009(11) -0.04453(15)
Cu2_3 Cu 0.84262(16) -1.08991(11) -0.04453(15)
V1A V 0.81106(17) -0.26572(14) 0.36326(11)
O1A O 0.6457(12) -0.0641(9) 0.5414(9)
O2A O 0.5925(11) -0.2758(9) 0.6699(8)
O3A O 0.5129(13) 0.0533(9) 0.6018(8)
O4A O 0.9150(13) -0.3511(9) 0.3007(10)
O5A O 0.6126(13) 0.0228(9) 0.3985(9)
O6A O 0.3929(13) -0.1034(7) 0.7541(9)
O7A O 0.7539(13) 0.0954(7) 0.3723(9)
O8A O 0.7807(13) -0.1030(8) 0.3161(8)
O9A O 0.4382(8) 0.3725(6) 0.6284(6)
O10A O 0.8307(11) -0.2058(8) 0.4798(6)
O11A O 0.5444(9) -0.0013(8) 0.7647(8)
O12A O 0.8471(9) -0.3854(6) 0.6301(5)
O13A O 0.5539(10) 0.2635(9) 0.4611(8)
O14A O 0.9782(8) -0.0879(7) 0.3869(6)
O15A O 0.8078(11) -0.0175(7) 0.5515(6)
O16A O 0.5378(12) -0.1435(10) 0.5329(7)
O17A O 0.6116(8) 0.1511(7) 0.6448(8)
O18A O 0.3042(11) 0.3039(11) 0.5256(6)
O19A O 0.7390(11) -0.1696(7) 0.6750(6)
O20A O 0.7809(9) -0.0183(7) 0.7578(5)
O21A O 0.3571(8) 0.1946(8) 0.6918(7)
O22A O 0.6314(8) 0.3004(7) 0.2578(5)
O23A O 0.3096(7) 0.0661(6) 0.8708(5)
N1_2 N 0.8586(8) -0.9518(7) -0.0517(7)
N1A N 0.1414(8) -0.0482(7) 1.0517(7)
N3_2 N 0.8487(8) -0.2356(7) -0.0403(8)
N3A N 0.1513(8) 0.2356(7) 1.0403(8)
C1_2 C 0.9187(12) -0.8081(9) -0.1423(9)
H1_2 H 0.9602 -0.7841 -0.2008
C2_2 C 0.8728(11) -0.6300(9) -0.0806(11)
H2_2 H 0.9007 -0.6062 -0.1456
C3_2 C 0.8414(12) -0.5648(11) -0.0175(11)
H3_2 H 0.8089 -0.5875 0.0462
C4_2 C 0.8822(11) -0.3953(9) -0.1213(9)
H4_2 H 0.9063 -0.4304 -0.1797
C5_2 C 0.9083(12) -0.9045(10) -0.1375(9)
H5_2 H 0.9358 -0.9421 -0.1947
C6_2 C 0.8211(11) -0.7912(9) 0.0243(10)
H6_2 H 0.7926 -0.7553 0.0825
C7_2 C 0.8203(11) -0.3959(8) 0.0506(9)
H7_2 H 0.7986 -0.4305 0.1128
C8_2 C 0.8496(10) -0.4509(8) -0.0315(9)
C9_2 C 0.8704(11) -0.7401(8) -0.0637(9)
C10_2 C 0.8148(11) -0.8889(9) 0.0250(9)
H8_2 H 0.7768 -0.9163 0.0837
C15_2 C 0.8213(11) -0.2924(8) 0.0457(9)
H12_2 H 0.8021 -0.2598 0.1050
C16_2 C 0.8795(10) -0.2877(8) -0.1258(9)
H13_2 H 0.8989 -0.2508 -0.1874
loop_
_geom_bond_atom_site_label_1
_geom_bond_atom_site_label_2
_geom_bond_site_symmetry_1
_geom_bond_site_symmetry_2
Ge1 O1 1_555 1_555
Mo1 O1 1_555 1_555
Mo2 O1 1_555 1_555
Mo3 O3 1_555 1_555
Mo4 O1 1_555 1_555
Mo5 O3 1_555 1_555
Mo6 O5 1_555 1_555
Cu1 N2 1_555 1_555
Cu2 O23 1_555 1_555
V1 O4 1_555 1_555
O2 Mo4 1_555 1_555
O3 Ge1 1_555 1_555
O5 Ge1 1_555 1_555
O6 Mo5 1_555 1_555
O7 Mo2 1_555 1_555
O8 Mo2 1_555 1_555
O9 Mo3 1_555 1_555
O10 Mo2 1_555 1_555
O11 Mo1 1_555 1_555
O12 Mo4 1_555 1_555
O13 Mo3 1_555 1_555
O14 Mo2 1_555 1_555
O15 Mo1 1_555 1_555
O16 Ge1 1_555 1_555
O17 Mo1 1_555 1_555
O18 Mo3 1_555 1_555
O19 Mo1 1_555 1_555
O20 Mo1 1_555 1_555
O21 Mo3 1_555 1_555
O22 Mo6 1_555 1_555
O23 Mo5 1_555 1_555
N1 Cu2 1_555 1_555
N2 C12 1_555 1_555
N3 C15 1_555 1_555
C1 H1 1_555 1_555
C2 H2 1_555 1_555
C3 C2 1_555 1_555
H3 C3 1_555 1_555
C4 H4 1_555 1_555
C5 N1 1_555 1_555
H5 C5 1_555 1_555
C6 H6 1_555 1_555
C7 H7 1_555 1_555
C8 C3 1_555 1_555
C9 C1 1_555 1_555
C10 N1 1_555 1_555
H8 C10 1_555 1_555
C11 H9 1_555 1_555
C12 C11 1_555 1_555
H10 C12 1_555 1_555
C13 H11 1_555 1_555
C14 C11 1_555 1_555
C15 C7 1_555 1_555
H12 C15 1_555 1_555
C16 N3 1_555 1_555
H13 C16 1_555 1_555
C17 C14 1_555 1_555
H14 C17 1_555 1_555
C18 N2 1_555 1_555
H15 C18 1_555 1_555
Mo1A O1A 1_555 1_555
Mo2A O1A 1_555 1_555
Mo3A O16 1_555 1_555
Mo4A O18 1_555 1_555
Mo5A O5 1_555 1_555
Mo6A O2 1_555 1_555
Cu1_2 N2A 1_555 1_555
Cu2A O23A 1_555 1_555
Cu2_2 N3 1_555 1_555
Cu2_3 N1_2 1_555 1_555
V1A O18 1_555 1_555
O1A Ge1 1_555 1_555
O2A Mo6 1_555 1_555
O3A Ge1 1_555 1_555
O4A V1A 1_555 1_555
O5A Ge1 1_555 1_555
O6A Mo6 1_555 1_555
O7A Mo2A 1_555 1_555
O8A Mo5 1_555 1_555
O9A Mo3A 1_555 1_555
O10A Mo2A 1_555 1_555
O11A Mo1A 1_555 1_555
O12A Mo4A 1_555 1_555
O13A Mo3A 1_555 1_555
O14A Mo2A 1_555 1_555
O15A Mo1A 1_555 1_555
O16A Ge1 1_555 1_555
O17A Mo1A 1_555 1_555
O18A Mo4 1_555 1_555
O19A Mo1A 1_555 1_555
O20A Mo1A 1_555 1_555
O21A V1 1_555 1_555
O22A Mo6A 1_555 1_555
O23A Mo5A 1_555 1_555
N1_2 C5_2 1_555 1_555
N1A Cu2A 1_555 1_555
N2A C12A 1_555 1_555
N2A_2 Cu1 1_555 1_555
N3_2 Cu2 1_555 1_555
N3A Cu2A 1_555 1_555
C1_2 H1_2 1_555 1_555
C2_2 H2_2 1_555 1_555
C3_2 C2_2 1_555 1_555
H3_2 C3_2 1_555 1_555
C4_2 H4_2 1_555 1_555
C5_2 C1_2 1_555 1_555
H5_2 C5_2 1_555 1_555
C6_2 H6_2 1_555 1_555
C7_2 H7_2 1_555 1_555
C8_2 C3_2 1_555 1_555
C9_2 C1_2 1_555 1_555
C10_2 N1_2 1_555 1_555
H8_2 C10_2 1_555 1_555
C11A H9A 1_555 1_555
C12A C11A 1_555 1_555
H10A C12A 1_555 1_555
C13A C13 1_555 1_555
H11A C13A 1_555 1_555
C14A C11A 1_555 1_555
C15_2 N3_2 1_555 1_555
H12_2 C15_2 1_555 1_555
C16_2 N3_2 1_555 1_555
H13_2 C16_2 1_555 1_555
C17A C14A 1_555 1_555
H14A C17A 1_555 1_555
C18A N2A 1_555 1_555
H15A C18A 1_555 1_555
Mo1 O3 1_555 1_555
Mo2 O5 1_555 1_555
Mo2 O15 1_555 1_555
Mo3 O17 1_555 1_555
Mo3 O16A 1_555 1_555
Mo4 O10 1_555 1_555
Mo4 O16 1_555 1_555
Mo4 O19 1_555 1_555
Mo5 O11 1_555 1_555
Mo5 O21 1_555 1_555
Mo5 O5A 1_555 1_555
Mo6 O7 1_555 1_555
Mo6 O13 1_555 1_555
Mo6 O16A 1_555 1_555
V1 O8 1_555 1_555
V1 O10 1_555 1_555
V1 O18A 1_555 1_555
O6 Mo6A 1_555 1_555
O8 Mo5A 1_555 1_555
O16 Mo6A 1_555 1_555
O21 V1A 1_555 1_555
C1 C5 1_555 1_555
C2 C9 1_555 1_555
C4 C8 1_555 1_555
C4 C16 1_555 1_555
C6 C9 1_555 1_555
C6 C10 1_555 1_555
C7 C8 1_555 1_555
C13 C14 1_555 1_555
C17 C18 1_555 1_555
Mo1A O3A 1_555 1_555
Mo2A O5A 1_555 1_555
Mo2A O8A 1_555 1_555
Mo2A O15A 1_555 1_555
Mo3A O3A 1_555 1_555
Mo3A O17A 1_555 1_555
Mo3A O18A 1_555 1_555
Mo3A O21A 1_555 1_555
Mo4A O1A 1_555 1_555
Mo4A O2A 1_555 1_555
Mo4A O10A 1_555 1_555
Mo4A O16A 1_555 1_555
Mo4A O19A 1_555 1_555
Mo5A O3A 1_555 1_555
Mo5A O6A 1_555 1_555
Mo5A O11A 1_555 1_555
Mo5A O21A 1_555 1_555
Mo6A O5A 1_555 1_555
Mo6A O7A 1_555 1_555
Mo6A O13A 1_555 1_555
V1A O8A 1_555 1_555
V1A O10A 1_555 1_555
C2_2 C9_2 1_555 1_555
C4_2 C8_2 1_555 1_555
C4_2 C16_2 1_555 1_555
C6_2 C9_2 1_555 1_555
C6_2 C10_2 1_555 1_555
C7_2 C8_2 1_555 1_555
C7_2 C15_2 1_555 1_555
C13A C14A 1_555 1_555
C17A C18A 1_555 1_555

#END
