
#######################################################################
#
#                 Cambridge Crystallographic Data Centre
#                                CCDC 
#
#######################################################################
#
# If this CIF has been generated from an entry in the Cambridge 
# Structural Database, then it will include bibliographic, chemical, 
# crystal, experimental, refinement or atomic coordinate data resulting 
# from the CCDC's data processing and validation procedures.
#
#######################################################################

data_TIVPEV02
_symmetry_cell_setting           triclinic
_symmetry_space_group_name_H-M   'P -1'
_symmetry_Int_Tables_number      2
_space_group_name_Hall           '-P 1'
loop_
_symmetry_equiv_pos_site_id
_symmetry_equiv_pos_as_xyz
1 x,y,z
2 -x,-y,-z
_cell_length_a                   11.3244(10)
_cell_length_b                   12.0673(12)
_cell_length_c                   12.6145(12)
_cell_angle_alpha                94.319(5)
_cell_angle_beta                 91.205(8)
_cell_angle_gamma                95.485(7)
_cell_volume                     1710.38
loop_
_atom_site_label
_atom_site_type_symbol
_atom_site_fract_x
_atom_site_fract_y
_atom_site_fract_z
Cu1 Cu -0.0453(14) 0.2618(16) 0.2426(14)
Cu2 Cu 0.4348(15) 0.2384(14) 0.2671(15)
O1 O 0.113265 0.379741 0.266781
O2 O 0.307481 0.39089 0.259444
O3 O 0.627063 0.128227 0.243408
O4 O 0.815637 0.167945 0.191021
N1 N 0.101741 0.15386 0.283042
N2 N 0.132786 0.049982 0.292451
N3 N 0.249905 0.055587 0.297976
N4 N 0.293485 0.159121 0.287726
N5 N 0.586968 0.34571 0.224831
N6 N 0.60855 0.455421 0.235458
N7 N 0.72353 0.482705 0.230797
N8 N 0.775269 0.390741 0.208781
N9 N -0.004178 0.248999 0.088527
N10 N 0.395143 0.224326 0.080127
N11 N 0.514183 0.272546 0.398181
N12 N 0.908904 0.320661 0.411639
C1 C 0.211342 0.34133 0.272805
C2 C 0.201003 0.219903 0.28636
C3 C 0.710875 0.189433 0.213207
C4 C 0.691576 0.306921 0.206846
C5 C 0.01451 0.341669 0.034581
C6 C 0.044296 0.331493 -0.071785
C7 C 0.054371 0.229442 -0.126052
C8 C 0.033412 0.137206 -0.068395
C9 C 0.003717 0.145887 0.038193
C10 C 0.085682 0.2227 -0.241281
C11 C 0.164659 0.132295 -0.263453
C12 C 0.291756 0.18046 -0.250294
C13 C 0.347879 0.124279 0.036824
C14 C 0.319799 0.109136 -0.070243
C15 C 0.325798 0.195217 -0.134742
C16 C 0.363321 0.299542 -0.085893
C17 C 0.396146 0.315024 0.021951
C18 C 0.52866 0.366496 0.463458
C19 C 0.552677 0.362103 0.570304
C20 C 0.559635 0.264096 0.616292
C21 C 0.540803 0.166844 0.549442
C22 C 0.51634 0.170162 0.439782
C23 C 0.586083 0.257994 0.733834
C24 C 0.707847 0.317121 0.762421
C25 C 0.800196 0.243444 0.724293
C26 C 0.901332 0.211998 0.439243
C27 C 0.866571 0.189873 0.541736
C28 C 0.837227 0.272493 0.615287
C29 C 0.844015 0.379042 0.581761
C30 C 0.878046 0.40254 0.480414
H1 H 0.007221 0.414013 0.069632
H2 H 0.058369 0.397929 -0.108828
H3 H 0.039529 0.064451 -0.103028
H4 H -0.01107 0.080027 0.075959
H5 H 0.014485 0.207294 -0.284665
H6 H 0.125607 0.29275 -0.258048
H7 H 0.149956 0.10011 -0.334997
H8 H 0.149098 0.075826 -0.214508
H9 H 0.341731 0.13063 -0.286177
H10 H 0.30103 0.251554 -0.280115
H11 H 0.333657 0.063114 0.080828
H12 H 0.295003 0.035078 -0.100789
H13 H 0.366899 0.363215 -0.127393
H14 H 0.419101 0.388579 0.054626
H15 H 0.522161 0.437393 0.435171
H16 H 0.565055 0.430853 0.614341
H17 H 0.544525 0.095955 0.578518
H18 H 0.501415 0.102295 0.394734
H19 H 0.527503 0.293496 0.774442
H20 H 0.58435 0.181226 0.749456
H21 H 0.71752 0.385925 0.728577
H22 H 0.716022 0.3318 0.83821
H23 H 0.767797 0.166757 0.721234
H24 H 0.867867 0.254743 0.772364
H25 H 0.919574 0.15266 0.389062
H26 H 0.862976 0.114438 0.561702
H27 H 0.824431 0.439116 0.630467
H28 H 0.879562 0.477455 0.459347
Cu1_2 Cu 0.9547(14) 0.2618(16) 0.2426(14)
O4_2 O -0.184363 0.167945 0.191021
N8_2 N -0.224731 0.390741 0.208781
N12_2 N -0.091096 0.320661 0.411639
loop_
_geom_bond_atom_site_label_1
_geom_bond_atom_site_label_2
_geom_bond_site_symmetry_1
_geom_bond_site_symmetry_2
Cu1 O1 1_555 1_555
Cu2 O2 1_555 1_555
O1 C1 1_555 1_555
O2 C1 1_555 1_555
O3 Cu2 1_555 1_555
O4 C3 1_555 1_555
N1 Cu1 1_555 1_555
N2 N1 1_555 1_555
N3 N2 1_555 1_555
N4 Cu2 1_555 1_555
N5 Cu2 1_555 1_555
N6 N5 1_555 1_555
N7 N6 1_555 1_555
N8 N7 1_555 1_555
N9 Cu1 1_555 1_555
N10 Cu2 1_555 1_555
N11 Cu2 1_555 1_555
N12 C26 1_555 1_555
C1 C2 1_555 1_555
C2 N1 1_555 1_555
C3 O3 1_555 1_555
C4 N5 1_555 1_555
C5 N9 1_555 1_555
C6 C5 1_555 1_555
C7 C6 1_555 1_555
C8 C7 1_555 1_555
C9 N9 1_555 1_555
C10 C7 1_555 1_555
C11 C10 1_555 1_555
C12 C11 1_555 1_555
C13 N10 1_555 1_555
C14 C13 1_555 1_555
C15 C12 1_555 1_555
C16 C15 1_555 1_555
C17 N10 1_555 1_555
C18 N11 1_555 1_555
C19 C18 1_555 1_555
C20 C19 1_555 1_555
C21 C20 1_555 1_555
C22 N11 1_555 1_555
C23 C20 1_555 1_555
C24 C23 1_555 1_555
C25 C24 1_555 1_555
C26 C27 1_555 1_555
C27 C28 1_555 1_555
C28 C25 1_555 1_555
C29 C28 1_555 1_555
C30 N12 1_555 1_555
H1 C5 1_555 1_555
H2 C6 1_555 1_555
H3 C8 1_555 1_555
H4 C9 1_555 1_555
H5 C10 1_555 1_555
H6 C10 1_555 1_555
H7 C11 1_555 1_555
H8 C11 1_555 1_555
H9 C12 1_555 1_555
H10 C12 1_555 1_555
H11 C13 1_555 1_555
H12 C14 1_555 1_555
H13 C16 1_555 1_555
H14 C17 1_555 1_555
H15 C18 1_555 1_555
H16 C19 1_555 1_555
H17 C21 1_555 1_555
H18 C22 1_555 1_555
H19 C23 1_555 1_555
H20 C23 1_555 1_555
H21 C24 1_555 1_555
H22 C24 1_555 1_555
H23 C25 1_555 1_555
H24 C25 1_555 1_555
H25 C26 1_555 1_555
H26 C27 1_555 1_555
H27 C29 1_555 1_555
H28 C30 1_555 1_555
Cu1_2 O4 1_555 1_555
O4_2 Cu1 1_555 1_555
N8_2 Cu1 1_555 1_555
N12_2 Cu1 1_555 1_555
N3 N4 1_555 1_555
N4 C2 1_555 1_555
N8 C4 1_555 1_555
N8 Cu1_2 1_555 1_555
N12 Cu1_2 1_555 1_555
C3 C4 1_555 1_555
C8 C9 1_555 1_555
C14 C15 1_555 1_555
C16 C17 1_555 1_555
C21 C22 1_555 1_555
C29 C30 1_555 1_555

#END
