
#######################################################################
#
#                 Cambridge Crystallographic Data Centre
#                                CCDC 
#
#######################################################################
#
# If this CIF has been generated from an entry in the Cambridge 
# Structural Database, then it will include bibliographic, chemical, 
# crystal, experimental, refinement or atomic coordinate data resulting 
# from the CCDC's data processing and validation procedures.
#
#######################################################################

data_TIVSUN
_symmetry_cell_setting           monoclinic
_symmetry_space_group_name_H-M   'C 2/c'
_symmetry_Int_Tables_number      15
_space_group_name_Hall           '-C 2yn'
loop_
_symmetry_equiv_pos_site_id
_symmetry_equiv_pos_as_xyz
1 x,y,z
2 1/2+x,1/2+y,z
3 -x,y,1/2-z
4 1/2-x,1/2+y,1/2-z
5 -x,-y,-z
6 1/2-x,1/2-y,-z
7 x,-y,1/2+z
8 1/2+x,1/2-y,1/2+z
_cell_length_a                   29.4713(10)
_cell_length_b                   7.1825(2)
_cell_length_c                   13.7399(4)
_cell_angle_alpha                90
_cell_angle_beta                 107.376(2)
_cell_angle_gamma                90
_cell_volume                     2775.7
loop_
_atom_site_label
_atom_site_type_symbol
_atom_site_fract_x
_atom_site_fract_y
_atom_site_fract_z
Cu1 Cu 0.871716(7) 0.06022(3) 0.565975(16)
O1 O 0.85006(6) 0.1394(2) 0.70471(12)
H1 H 0.8717(10) 0.141(6) 0.7717(13)
H2 H 0.8208(7) 0.103(6) 0.715(3)
O2 O 0.80747(7) 0.0673(2) 0.46747(17)
H3 H 0.7934(12) 0.173(3) 0.429(2)
H4 H 0.7903(13) -0.035(3) 0.430(3)
O3 O 0.93964(6) 0.0433(2) 0.64930(18)
H5 H 0.9585(11) -0.048(4) 0.693(3)
H6 H 0.9565(11) 0.158(3) 0.660(3)
N1 N 0.91765(7) 0.5179(2) 0.42226(14)
H7 H 0.9330 0.5233 0.3781
C1 C 0.90986(7) 0.3450(2) 0.45576(14)
N2 N 0.92799(9) 0.2036(2) 0.41740(18)
H8 H 0.9240 0.0914 0.4350
H9 H 0.9437 0.2243 0.3750
N3 N 0.88506(5) 0.31883(18) 0.52218(11)
C2 C 0.87163(6) 0.4817(2) 0.55773(12)
C3 C 0.88084(6) 0.6585(2) 0.52960(12)
C4 C 0.90302(7) 0.6841(2) 0.45307(14)
O4 O 0.90919(7) 0.83349(19) 0.41260(13)
N4 N 0.86287(5) 0.78893(19) 0.58242(12)
C5 C 0.84270(7) 0.6912(2) 0.63989(14)
H10 H 0.8276 0.7430 0.6840
N5 N 0.84691(6) 0.5042(2) 0.62611(13)
H11 H 0.8359 0.4167 0.6554
Cu1_2 Cu 0.871716(7) -0.93978(3) 0.565975(16)
Cu1_3 Cu 0.871716(7) 1.06022(3) 0.565975(16)
O1_2 O 0.85006(6) -0.8606(2) 0.70471(12)
H1_2 H 0.8717(10) -0.859(6) 0.7717(13)
H2_2 H 0.8208(7) -0.897(6) 0.715(3)
O2_2 O 0.80747(7) -0.9327(2) 0.46747(17)
H3_2 H 0.7934(12) -0.827(3) 0.429(2)
H4_2 H 0.7903(13) -1.035(3) 0.430(3)
O3_2 O 0.93964(6) -0.9567(2) 0.64930(18)
H5_2 H 0.9585(11) -1.048(4) 0.693(3)
H6_2 H 0.9565(11) -0.842(3) 0.660(3)
N1_2 N 0.91765(7) -0.4821(2) 0.42226(14)
H7_2 H 0.9330 -0.4767 0.3781
C1_2 C 0.90986(7) -0.6550(2) 0.45576(14)
N2_2 N 0.92799(9) -0.7964(2) 0.41740(18)
H8_2 H 0.9240 -0.9086 0.4350
H9_2 H 0.9437 -0.7757 0.3750
N3_2 N 0.88506(5) -0.68117(18) 0.52218(11)
C2_2 C 0.87163(6) -0.5183(2) 0.55773(12)
C3_2 C 0.88084(6) -0.3415(2) 0.52960(12)
C4_2 C 0.90302(7) -0.3159(2) 0.45307(14)
O4_2 O 0.90919(7) -0.16651(19) 0.41260(13)
N4_2 N 0.86287(5) -0.21107(19) 0.58242(12)
N4_3 N 0.86287(5) -1.21107(19) 0.58242(12)
C5_2 C 0.84270(7) -0.3088(2) 0.63989(14)
H10_2 H 0.8276 -0.2570 0.6840
N5_2 N 0.84691(6) -0.4958(2) 0.62611(13)
H11_2 H 0.8359 -0.5833 0.6554
B1 B 0.76992(9) 0.5564(3) 0.3340(2)
F1 F 0.77032(10) 0.4058(3) 0.3976(2)
F2 F 0.77440(8) 0.7158(3) 0.39192(18)
F3 F 0.72541(7) 0.5568(3) 0.26056(17)
F4 F 0.80615(9) 0.5408(4) 0.2933(3)
Si1 Si 1.0000 0.54407(9) 0.7500
F5 F 0.94338(7) 0.5496(2) 0.75034(15)
F6 F 0.98775(7) 0.7154(3) 0.65914(15)
F7 F 0.98742(7) 0.3810(3) 0.65839(16)
F5B F 1.05662(7) 0.5496(2) 0.74966(15)
F6B F 1.01225(7) 0.7154(3) 0.84086(15)
F7B F 1.01258(7) 0.3810(3) 0.84161(16)
F8? F 0.9891(2) 0.5430(8) 0.6237(5)
F9? F 0.9581(2) 0.7088(10) 0.7396(5)
F10? F 0.9573(3) 0.3790(12) 0.7402(6)
loop_
_geom_bond_atom_site_label_1
_geom_bond_atom_site_label_2
_geom_bond_site_symmetry_1
_geom_bond_site_symmetry_2
Cu1 O1 1_555 1_555
O1 H1 1_555 1_555
H2 O1 1_555 1_555
O2 Cu1 1_555 1_555
H3 O2 1_555 1_555
H4 O2 1_555 1_555
O3 Cu1 1_555 1_555
H5 O3 1_555 1_555
H6 O3 1_555 1_555
N1 H7 1_555 1_555
C1 N1 1_555 1_555
N2 C1 1_555 1_555
H8 N2 1_555 1_555
H9 N2 1_555 1_555
N3 Cu1 1_555 1_555
C2 N3 1_555 1_555
C3 C2 1_555 1_555
C4 N1 1_555 1_555
O4 C4 1_555 1_555
N4 C3 1_555 1_555
C5 N4 1_555 1_555
H10 C5 1_555 1_555
N5 C2 1_555 1_555
H11 N5 1_555 1_555
B1 F1 1_555 1_555
F2 B1 1_555 1_555
F3 B1 1_555 1_555
F4 B1 1_555 1_555
Si1 F5 1_555 1_555
F6 Si1 1_555 1_555
F7 Si1 1_555 1_555
Cu1_2 O1_2 1_555 1_555
Cu1_3 N4 1_555 1_555
O1_2 H1_2 1_555 1_555
H2_2 O1_2 1_555 1_555
O2_2 Cu1_2 1_555 1_555
H3_2 O2_2 1_555 1_555
H4_2 O2_2 1_555 1_555
O3_2 Cu1_2 1_555 1_555
H5_2 O3_2 1_555 1_555
H6_2 O3_2 1_555 1_555
N1_2 H7_2 1_555 1_555
C1_2 N1_2 1_555 1_555
N2_2 C1_2 1_555 1_555
H8_2 N2_2 1_555 1_555
H9_2 N2_2 1_555 1_555
N3_2 Cu1_2 1_555 1_555
C2_2 N3_2 1_555 1_555
C3_2 C2_2 1_555 1_555
C4_2 N1_2 1_555 1_555
O4_2 C4_2 1_555 1_555
N4_2 Cu1 1_555 1_555
N4_3 Cu1_2 1_555 1_555
C5_2 N4_2 1_555 1_555
H10_2 C5_2 1_555 1_555
N5_2 C2_2 1_555 1_555
H11_2 N5_2 1_555 1_555
F5B Si1 1_555 1_555
F6B Si1 1_555 1_555
F7B Si1 1_555 1_555
C1 N3 1_555 1_555
C3 C4 1_555 1_555
C5 N5 1_555 1_555
C1_2 N3_2 1_555 1_555
C3_2 C4_2 1_555 1_555
C3_2 N4_2 1_555 1_555
C5_2 N5_2 1_555 1_555

#END
