
#######################################################################
#
#                 Cambridge Crystallographic Data Centre
#                                CCDC 
#
#######################################################################
#
# If this CIF has been generated from an entry in the Cambridge 
# Structural Database, then it will include bibliographic, chemical, 
# crystal, experimental, refinement or atomic coordinate data resulting 
# from the CCDC's data processing and validation procedures.
#
#######################################################################

data_TIVXIH
_symmetry_cell_setting           monoclinic
_symmetry_space_group_name_H-M   'C 2/c'
_symmetry_Int_Tables_number      15
_space_group_name_Hall           '-C 2yn'
loop_
_symmetry_equiv_pos_site_id
_symmetry_equiv_pos_as_xyz
1 x,y,z
2 -x,y,1/2-z
3 1/2+x,1/2+y,z
4 1/2-x,1/2+y,1/2-z
5 -x,-y,-z
6 x,-y,1/2+z
7 1/2-x,1/2-y,-z
8 1/2+x,1/2-y,1/2+z
_cell_length_a                   13.7012(9)
_cell_length_b                   16.2853(10)
_cell_length_c                   7.9527(5)
_cell_angle_alpha                90
_cell_angle_beta                 95.641(1)
_cell_angle_gamma                90
_cell_volume                     1765.88
loop_
_atom_site_label
_atom_site_type_symbol
_atom_site_fract_x
_atom_site_fract_y
_atom_site_fract_z
Cd1 Cd 0.5000 0.375880(8) 0.7500
O1 O 0.40416(10) 0.27668(9) 0.59926(14)
O2 O 0.39020(10) 0.39408(8) 0.45864(18)
O3 O 0.5000 0.51276(10) 0.7500
H1 H 0.5339(14) 0.5387(12) 0.687(2)
N1 N 0.32558(9) 0.31439(8) 0.16040(15)
N2 N 0.40551(9) 0.32377(8) 0.07804(16)
N3 N 0.38260(11) 0.37001(7) -0.05435(18)
C1 C 0.37949(11) 0.31877(11) 0.46918(19)
C2 C 0.33400(12) 0.26878(10) 0.31858(18)
H2 H 0.3738 0.2203 0.3060
H3 H 0.2693 0.2506 0.3417
C3 C 0.24742(11) 0.35494(9) 0.07946(19)
C4 C 0.14826(14) 0.36120(11) 0.1079(3)
H4 H 0.1230 0.3360 0.1992
C5 C 0.09107(13) 0.40703(13) -0.0079(3)
H5 H 0.0245 0.4123 0.0042
C6 C 0.12960(14) 0.44651(12) -0.1450(3)
H6 H 0.0880 0.4784 -0.2179
C7 C 0.22600(13) 0.43950(10) -0.1743(2)
H7 H 0.2507 0.4652 -0.2656
C8 C 0.28546(12) 0.39152(9) -0.0595(2)
H1A H 0.4661(14) 0.5387(12) 0.813(2)
O1A O 0.59584(10) 0.27668(9) -0.09926(14)
O2A O 0.60980(10) 0.39408(8) 0.04136(18)
N1A N 0.67442(9) 0.31439(8) 0.33960(15)
N2A N 0.59449(9) 0.32377(8) 0.42196(16)
N3A N 0.61740(11) 0.37001(7) 0.55435(18)
C1A C 0.62051(11) 0.31877(11) 0.03082(19)
C2A C 0.66600(12) 0.26878(10) 0.18142(18)
H2A H 0.6262 0.2203 0.1940
H3A H 0.7307 0.2506 0.1583
C3A C 0.75258(11) 0.35494(9) 0.42054(19)
C4A C 0.85174(14) 0.36120(11) 0.3921(3)
H4A H 0.8770 0.3360 0.3008
C5A C 0.90893(13) 0.40703(13) 0.5079(3)
H5A H 0.9755 0.4123 0.4958
C6A C 0.87040(14) 0.44651(12) 0.6450(3)
H6A H 0.9120 0.4784 0.7179
C7A C 0.77400(13) 0.43950(10) 0.6743(2)
H7A H 0.7493 0.4652 0.7656
C8A C 0.71454(12) 0.39152(9) 0.5595(2)
Cd1_2 Cd 0.5000 0.375880(8) -0.2500
O1A_2 O 0.59584(10) 0.27668(9) 0.90074(14)
O2A_2 O 0.60980(10) 0.39408(8) 1.04136(18)
N3_2 N 0.38260(11) 0.37001(7) 0.94565(18)
loop_
_geom_bond_atom_site_label_1
_geom_bond_atom_site_label_2
_geom_bond_site_symmetry_1
_geom_bond_site_symmetry_2
Cd1 O1 1_555 1_555
O1 C1 1_555 1_555
O2 Cd1 1_555 1_555
O3 Cd1 1_555 1_555
H1 O3 1_555 1_555
N1 N2 1_555 1_555
N2 N3 1_555 1_555
N3 C8 1_555 1_555
C1 O2 1_555 1_555
C2 N1 1_555 1_555
H2 C2 1_555 1_555
H3 C2 1_555 1_555
C3 N1 1_555 1_555
C4 C3 1_555 1_555
H4 C4 1_555 1_555
C5 C4 1_555 1_555
H5 C5 1_555 1_555
C6 C5 1_555 1_555
H6 C6 1_555 1_555
C7 C6 1_555 1_555
H7 C7 1_555 1_555
C8 C3 1_555 1_555
H1A O3 1_555 1_555
O1A C1A 1_555 1_555
O2A C1A 1_555 1_555
N1A N2A 1_555 1_555
N2A N3A 1_555 1_555
N3A Cd1 1_555 1_555
C1A C2A 1_555 1_555
C2A N1A 1_555 1_555
H2A C2A 1_555 1_555
H3A C2A 1_555 1_555
C3A N1A 1_555 1_555
C4A C3A 1_555 1_555
H4A C4A 1_555 1_555
C5A C4A 1_555 1_555
H5A C5A 1_555 1_555
C6A C5A 1_555 1_555
H6A C6A 1_555 1_555
C7A C6A 1_555 1_555
H7A C7A 1_555 1_555
C8A N3A 1_555 1_555
Cd1_2 N3 1_555 1_555
O1A_2 Cd1 1_555 1_555
O2A_2 Cd1 1_555 1_555
N3_2 Cd1 1_555 1_555
C1 C2 1_555 1_555
C7 C8 1_555 1_555
O1A Cd1_2 1_555 1_555
O2A Cd1_2 1_555 1_555
C3A C8A 1_555 1_555
C7A C8A 1_555 1_555

#END
