
#######################################################################
#
#                 Cambridge Crystallographic Data Centre
#                                CCDC 
#
#######################################################################
#
# If this CIF has been generated from an entry in the Cambridge 
# Structural Database, then it will include bibliographic, chemical, 
# crystal, experimental, refinement or atomic coordinate data resulting 
# from the CCDC's data processing and validation procedures.
#
#######################################################################

data_TIVXAY
_symmetry_cell_setting           monoclinic
_symmetry_space_group_name_H-M   'C 2/c'
_symmetry_Int_Tables_number      15
_space_group_name_Hall           '-C 2yn'
loop_
_symmetry_equiv_pos_site_id
_symmetry_equiv_pos_as_xyz
1 x,y,z
2 1/2+x,1/2+y,z
3 -x,y,1/2-z
4 1/2-x,1/2+y,1/2-z
5 -x,-y,-z
6 1/2-x,1/2-y,-z
7 x,-y,1/2+z
8 1/2+x,1/2-y,1/2+z
_cell_length_a                   11.4021(2)
_cell_length_b                   32.4814(6)
_cell_length_c                   26.1045(6)
_cell_angle_alpha                90
_cell_angle_beta                 91.1640(10)
_cell_angle_gamma                90
_cell_volume                     9665.97
loop_
_atom_site_label
_atom_site_type_symbol
_atom_site_fract_x
_atom_site_fract_y
_atom_site_fract_z
C1 C 0.766(4) 0.0863(16) 0.229(2)
C2 C 0.731(4) -0.0164(16) 0.228(2)
C3 C 0.430(5) -0.009(2) 0.152(3)
H1 H 0.4445 -0.0264 0.1789
C4 C 0.415(7) -0.025(3) 0.105(4)
H2 H 0.4230 -0.0534 0.1004
C5 C 0.388(9) 0.000(3) 0.064(4)
H3 H 0.3745 -0.0113 0.0314
C6 C 0.380(7) 0.042(2) 0.072(3)
H4 H 0.3628 0.0599 0.0449
C7 C 0.400(5) 0.057(2) 0.122(3)
C8 C 0.385(5) 0.1009(19) 0.133(3)
H5 H 0.3944 0.1089 0.1668
C9 C 0.361(7) 0.129(2) 0.101(3)
H6 H 0.3498 0.1208 0.0674
C10 C 0.347(7) 0.174(2) 0.111(3)
C11 C 0.336(10) 0.203(3) 0.071(3)
H7 H 0.3384 0.1936 0.0379
C12 C 0.324(10) 0.242(3) 0.078(3)
H8 H 0.3132 0.2591 0.0500
C13 C 0.327(8) 0.258(2) 0.129(3)
C14 C 0.336(7) 0.230(2) 0.170(3)
C15 C 0.344(6) 0.189(2) 0.160(2)
H9 H 0.3485 0.1702 0.1875
C16 C 0.342(6) 0.254(2) 0.216(2)
C17 C 0.339(7) 0.297(2) 0.201(3)
C18 C 0.345(6) 0.329(2) 0.235(2)
H10 H 0.3476 0.3563 0.2248
C19 C 0.348(7) 0.317(2) 0.287(3)
C20 C 0.347(7) 0.276(2) 0.302(3)
C21 C 0.346(6) 0.243(2) 0.268(2)
H11 H 0.3480 0.2157 0.2785
C22 C 0.363(6) 0.342(2) 0.335(3)
C23 C 0.369(8) 0.313(3) 0.374(3)
C24 C 0.378(10) 0.327(3) 0.425(3)
H12 H 0.3789 0.3087 0.4524
C25 C 0.387(9) 0.368(3) 0.434(3)
H13 H 0.3920 0.3779 0.4679
C26 C 0.388(7) 0.397(2) 0.392(3)
C27 C 0.373(6) 0.383(2) 0.343(3)
H14 H 0.3712 0.4011 0.3155
C28 C 0.401(7) 0.441(3) 0.403(3)
H15 H 0.4005 0.4483 0.4374
C29 C 0.412(5) 0.471(2) 0.370(3)
H16 H 0.4119 0.4636 0.3352
C30 C 0.427(5) 0.515(2) 0.382(3)
C31 C 0.418(8) 0.531(3) 0.430(4)
H17 H 0.4050 0.5136 0.4575
C32 C 0.430(9) 0.574(4) 0.436(5)
H18 H 0.4249 0.5852 0.4691
C33 C 0.447(8) 0.597(3) 0.400(5)
H19 H 0.4563 0.6256 0.4043
C34 C 0.453(6) 0.580(2) 0.350(4)
H20 H 0.4631 0.5972 0.3224
C35 C 0.319(9) 0.335(2) 0.117(3)
H21 H 0.3598 0.3567 0.1356
H22 H 0.3629 0.3307 0.0855
C36 C 0.211(12) 0.351(4) 0.102(5)
H23 H 0.1991 0.3304 0.0746
C37 C 0.192(16) 0.389(4) 0.064(6)
H24 H 0.2368 0.3858 0.0327
H25 H 0.1097 0.3926 0.0545
C38 C 0.238(12) 0.423(3) 0.097(5)
H26 H 0.1889 0.4283 0.1261
H27 H 0.3183 0.4184 0.1086
C39 C 0.23(2) 0.458(4) 0.059(7)
H28 H 0.1544 0.4594 0.0421
H29 H 0.2912 0.4558 0.0333
C40 C 0.253(17) 0.494(4) 0.095(7)
H30 H 0.2032 0.5170 0.0854
H31 H 0.3335 0.5028 0.0938
H32 H 0.2356 0.4863 0.1298
C41 C 0.103(16) 0.339(7) 0.129(7)
H33 H 0.0936 0.3569 0.1582
H34 H 0.1100 0.3110 0.1407
C42 C -0.007(17) 0.343(12) 0.091(13)
H35 H -0.0633 0.3224 0.0986
H36 H 0.0174 0.3406 0.0562
H37 H -0.0424 0.3701 0.0954
C43 C 0.366(10) 0.236(3) 0.385(3)
H38 H 0.4083 0.2413 0.4166
H39 H 0.4122 0.2163 0.3654
C44 C 0.244(16) 0.215(4) 0.397(7)
H40 H 0.2101 0.2012 0.3673
C45 C 0.155(15) 0.241(6) 0.424(7)
H41 H 0.1474 0.2664 0.4042
H42 H 0.1893 0.2486 0.4568
C46 C 0.029(15) 0.225(5) 0.434(6)
H43 H -0.0170 0.2276 0.4026
H44 H -0.0052 0.2418 0.4599
H45 H 0.0327 0.1972 0.4443
C47 C 0.257(19) 0.186(5) 0.444(6)
H46 H 0.3236 0.1925 0.4658
H47 H 0.1859 0.1846 0.4638
C48 C 0.27(2) 0.150(4) 0.414(7)
H48 H 0.3284 0.1535 0.3865
H49 H 0.2018 0.1373 0.4017
C49 C 0.33(2) 0.126(4) 0.461(9)
H50 H 0.4156 0.1259 0.4613
H51 H 0.3018 0.1351 0.4939
C50 C 0.2804 0.0859 0.4451
H52 H 0.2988 0.0807 0.4100
H53 H 0.1967 0.0866 0.4486
H54 H 0.3128 0.0644 0.4662
Cd1 Cd 0.5000 0.04688(17) 0.2500
Cd2 Cd 1.0000 0.02432(19) 0.2500
N1 N 0.641(4) -0.0018(15) 0.231(2)
N2 N 0.854(4) 0.0720(16) 0.234(3)
N3 N 0.426(4) 0.0314(15) 0.161(2)
N4 N 0.330(6) 0.2978(17) 0.147(2)
N5 N 0.356(6) 0.2739(19) 0.356(2)
N6 N 0.444(4) 0.5397(17) 0.342(3)
S1 S 0.8593(12) -0.0388(5) 0.2233(7)
S2 S 0.6371(12) 0.1090(5) 0.2194(6)
C1B C 0.234(4) 0.0863(16) 0.271(2)
C2B C 0.269(4) -0.0164(16) 0.272(2)
C3B C 0.570(5) -0.009(2) 0.348(3)
H1B H 0.5555 -0.0264 0.3211
C4B C 0.585(7) -0.025(3) 0.395(4)
H2B H 0.5770 -0.0534 0.3996
C5B C 0.612(9) 0.000(3) 0.436(4)
H3B H 0.6255 -0.0113 0.4686
C6B C 0.620(7) 0.042(2) 0.428(3)
H4B H 0.6372 0.0599 0.4551
C7B C 0.600(5) 0.057(2) 0.378(3)
C8B C 0.615(5) 0.1009(19) 0.367(3)
H5B H 0.6056 0.1089 0.3332
C9B C 0.639(7) 0.129(2) 0.399(3)
H6B H 0.6502 0.1208 0.4326
C10B C 0.653(7) 0.174(2) 0.389(3)
C11B C 0.664(10) 0.203(3) 0.429(3)
H7B H 0.6616 0.1936 0.4621
C12B C 0.676(10) 0.242(3) 0.422(3)
H8B H 0.6868 0.2591 0.4500
C13B C 0.673(8) 0.258(2) 0.371(3)
C14B C 0.664(7) 0.230(2) 0.330(3)
C15B C 0.656(6) 0.189(2) 0.340(2)
H9B H 0.6515 0.1702 0.3125
C16B C 0.658(6) 0.254(2) 0.284(2)
C17B C 0.661(7) 0.297(2) 0.299(3)
C18B C 0.655(6) 0.329(2) 0.265(2)
H10B H 0.6524 0.3563 0.2752
C19B C 0.652(7) 0.317(2) 0.213(3)
C20B C 0.653(7) 0.276(2) 0.198(3)
C21B C 0.654(6) 0.243(2) 0.232(2)
H11B H 0.6520 0.2157 0.2215
C22B C 0.637(6) 0.342(2) 0.165(3)
C23B C 0.631(8) 0.313(3) 0.126(3)
C24B C 0.622(10) 0.327(3) 0.075(3)
H12B H 0.6211 0.3087 0.0476
C25B C 0.613(9) 0.368(3) 0.066(3)
H13B H 0.6080 0.3779 0.0321
C26B C 0.612(7) 0.397(2) 0.108(3)
C27B C 0.627(6) 0.383(2) 0.157(3)
H14B H 0.6288 0.4011 0.1845
C28B C 0.599(7) 0.441(3) 0.097(3)
H15B H 0.5995 0.4483 0.0626
C29B C 0.588(5) 0.471(2) 0.130(3)
H16B H 0.5881 0.4636 0.1648
C30B C 0.573(5) 0.515(2) 0.118(3)
C31B C 0.582(8) 0.531(3) 0.070(4)
H17B H 0.5950 0.5136 0.0425
C32B C 0.570(9) 0.574(4) 0.064(5)
H18B H 0.5751 0.5852 0.0309
C33B C 0.553(8) 0.597(3) 0.100(5)
H19B H 0.5437 0.6256 0.0957
C34B C 0.547(6) 0.580(2) 0.150(4)
H20B H 0.5369 0.5972 0.1776
C35B C 0.681(9) 0.335(2) 0.383(3)
H21B H 0.6402 0.3567 0.3644
H22B H 0.6371 0.3307 0.4145
C36B C 0.789(12) 0.351(4) 0.398(5)
H23B H 0.8009 0.3304 0.4254
C37B C 0.808(16) 0.389(4) 0.436(6)
H24B H 0.7632 0.3858 0.4673
H25B H 0.8903 0.3926 0.4455
C38B C 0.762(12) 0.423(3) 0.403(5)
H26B H 0.8111 0.4283 0.3739
H27B H 0.6817 0.4184 0.3914
C39B C 0.77(2) 0.458(4) 0.441(7)
H28B H 0.8456 0.4594 0.4579
H29B H 0.7088 0.4558 0.4667
C40B C 0.747(17) 0.494(4) 0.405(7)
H30B H 0.7968 0.5170 0.4146
H31B H 0.6665 0.5028 0.4062
H32B H 0.7644 0.4863 0.3702
C41B C 0.897(16) 0.339(7) 0.371(7)
H33B H 0.9064 0.3569 0.3418
H34B H 0.8900 0.3110 0.3593
C42B C 1.007(17) 0.343(12) 0.409(13)
H35B H 1.0633 0.3224 0.4014
H36B H 0.9826 0.3406 0.4438
H37B H 1.0424 0.3701 0.4046
C43B C 0.634(10) 0.236(3) 0.115(3)
H38B H 0.5917 0.2413 0.0834
H39B H 0.5878 0.2163 0.1346
C44B C 0.756(16) 0.215(4) 0.103(7)
H40B H 0.7899 0.2012 0.1327
C45B C 0.845(15) 0.241(6) 0.076(7)
H41B H 0.8526 0.2664 0.0958
H42B H 0.8107 0.2486 0.0432
C46B C 0.971(15) 0.225(5) 0.066(6)
H43B H 1.0170 0.2276 0.0974
H44B H 1.0052 0.2418 0.0401
H45B H 0.9673 0.1972 0.0557
C47B C 0.743(19) 0.186(5) 0.056(6)
H46B H 0.6764 0.1925 0.0342
H47B H 0.8141 0.1846 0.0362
C48B C 0.73(2) 0.150(4) 0.086(7)
H48B H 0.6716 0.1535 0.1135
H49B H 0.7982 0.1373 0.0983
C49B C 0.67(2) 0.126(4) 0.039(9)
H50B H 0.5844 0.1259 0.0387
H51B H 0.6982 0.1351 0.0061
C50B C 0.7196 0.0859 0.0549
H52B H 0.7012 0.0807 0.0900
H53B H 0.8033 0.0866 0.0514
H54B H 0.6872 0.0644 0.0338
Cd2A Cd 0.5000 0.52432(19) 0.2500
Cd2_2 Cd 0.0000 0.02432(19) 0.2500
N1B N 0.359(4) -0.0018(15) 0.269(2)
N2B N 0.146(4) 0.0720(16) 0.266(3)
N2B_2 N 1.146(4) 0.0720(16) 0.266(3)
N3B N 0.574(4) 0.0314(15) 0.339(2)
N4B N 0.670(6) 0.2978(17) 0.353(2)
N5B N 0.644(6) 0.2739(19) 0.144(2)
N6B N 0.556(4) 0.5397(17) 0.158(3)
N6A N 0.944(4) 0.0397(17) 0.342(3)
N6C N 1.056(4) 0.0397(17) 0.158(3)
S1B S 0.1407(12) -0.0388(5) 0.2767(7)
S1B_2 S 1.1407(12) -0.0388(5) 0.2767(7)
S2B S 0.3629(12) 0.1090(5) 0.2806(6)
loop_
_geom_bond_atom_site_label_1
_geom_bond_atom_site_label_2
_geom_bond_site_symmetry_1
_geom_bond_site_symmetry_2
C1 N2 1_555 1_555
C2 N1 1_555 1_555
C3 H1 1_555 1_555
C4 C3 1_555 1_555
H2 C4 1_555 1_555
C5 C4 1_555 1_555
H3 C5 1_555 1_555
C6 C5 1_555 1_555
H4 C6 1_555 1_555
C7 C6 1_555 1_555
C8 C7 1_555 1_555
H5 C8 1_555 1_555
C9 C8 1_555 1_555
H6 C9 1_555 1_555
C10 C9 1_555 1_555
C11 C10 1_555 1_555
H7 C11 1_555 1_555
C12 C11 1_555 1_555
H8 C12 1_555 1_555
C13 C12 1_555 1_555
C14 C13 1_555 1_555
C15 C10 1_555 1_555
H9 C15 1_555 1_555
C16 C14 1_555 1_555
C17 C16 1_555 1_555
C18 C17 1_555 1_555
H10 C18 1_555 1_555
C19 C18 1_555 1_555
C20 C19 1_555 1_555
C21 C16 1_555 1_555
H11 C21 1_555 1_555
C22 C19 1_555 1_555
C23 C22 1_555 1_555
C24 C23 1_555 1_555
H12 C24 1_555 1_555
C25 C24 1_555 1_555
H13 C25 1_555 1_555
C26 C25 1_555 1_555
C27 C22 1_555 1_555
H14 C27 1_555 1_555
C28 C26 1_555 1_555
H15 C28 1_555 1_555
C29 C28 1_555 1_555
H16 C29 1_555 1_555
C30 C29 1_555 1_555
C31 C30 1_555 1_555
H17 C31 1_555 1_555
C32 C31 1_555 1_555
H18 C32 1_555 1_555
C33 C32 1_555 1_555
H19 C33 1_555 1_555
C34 C33 1_555 1_555
H20 C34 1_555 1_555
C35 H21 1_555 1_555
H22 C35 1_555 1_555
C36 C35 1_555 1_555
H23 C36 1_555 1_555
C37 C36 1_555 1_555
H24 C37 1_555 1_555
H25 C37 1_555 1_555
C38 C37 1_555 1_555
H26 C38 1_555 1_555
H27 C38 1_555 1_555
C39 C38 1_555 1_555
H28 C39 1_555 1_555
H29 C39 1_555 1_555
C40 C39 1_555 1_555
H30 C40 1_555 1_555
H31 C40 1_555 1_555
H32 C40 1_555 1_555
C41 C36 1_555 1_555
H33 C41 1_555 1_555
H34 C41 1_555 1_555
C42 C41 1_555 1_555
H35 C42 1_555 1_555
H36 C42 1_555 1_555
H37 C42 1_555 1_555
C43 H38 1_555 1_555
H39 C43 1_555 1_555
C44 C43 1_555 1_555
H40 C44 1_555 1_555
C45 C44 1_555 1_555
H41 C45 1_555 1_555
H42 C45 1_555 1_555
C46 C45 1_555 1_555
H43 C46 1_555 1_555
H44 C46 1_555 1_555
H45 C46 1_555 1_555
C47 C44 1_555 1_555
H46 C47 1_555 1_555
H47 C47 1_555 1_555
C48 C47 1_555 1_555
H48 C48 1_555 1_555
H49 C48 1_555 1_555
C49 C48 1_555 1_555
H50 C49 1_555 1_555
H51 C49 1_555 1_555
C50 C49 1_555 1_555
H52 C50 1_555 1_555
H53 C50 1_555 1_555
H54 C50 1_555 1_555
Cd1 N1 1_555 1_555
Cd2 N2 1_555 1_555
N3 C3 1_555 1_555
N4 C13 1_555 1_555
N5 C20 1_555 1_555
N6 C30 1_555 1_555
S1 C2 1_555 1_555
S2 C1 1_555 1_555
C1B N2B 1_555 1_555
C2B N1B 1_555 1_555
C3B H1B 1_555 1_555
C4B C3B 1_555 1_555
H2B C4B 1_555 1_555
C5B C4B 1_555 1_555
H3B C5B 1_555 1_555
C6B C5B 1_555 1_555
H4B C6B 1_555 1_555
C7B C6B 1_555 1_555
C8B C7B 1_555 1_555
H5B C8B 1_555 1_555
C9B C8B 1_555 1_555
H6B C9B 1_555 1_555
C10B C9B 1_555 1_555
C11B C10B 1_555 1_555
H7B C11B 1_555 1_555
C12B C11B 1_555 1_555
H8B C12B 1_555 1_555
C13B C12B 1_555 1_555
C14B C13B 1_555 1_555
C15B C10B 1_555 1_555
H9B C15B 1_555 1_555
C16B C14B 1_555 1_555
C17B C16B 1_555 1_555
C18B C17B 1_555 1_555
H10B C18B 1_555 1_555
C19B C18B 1_555 1_555
C20B C19B 1_555 1_555
C21B C16B 1_555 1_555
H11B C21B 1_555 1_555
C22B C19B 1_555 1_555
C23B C22B 1_555 1_555
C24B C23B 1_555 1_555
H12B C24B 1_555 1_555
C25B C24B 1_555 1_555
H13B C25B 1_555 1_555
C26B C25B 1_555 1_555
C27B C22B 1_555 1_555
H14B C27B 1_555 1_555
C28B C26B 1_555 1_555
H15B C28B 1_555 1_555
C29B C28B 1_555 1_555
H16B C29B 1_555 1_555
C30B C29B 1_555 1_555
C31B C30B 1_555 1_555
H17B C31B 1_555 1_555
C32B C31B 1_555 1_555
H18B C32B 1_555 1_555
C33B C32B 1_555 1_555
H19B C33B 1_555 1_555
C34B C33B 1_555 1_555
H20B C34B 1_555 1_555
C35B H21B 1_555 1_555
H22B C35B 1_555 1_555
C36B C35B 1_555 1_555
H23B C36B 1_555 1_555
C37B C36B 1_555 1_555
H24B C37B 1_555 1_555
H25B C37B 1_555 1_555
C38B C37B 1_555 1_555
H26B C38B 1_555 1_555
H27B C38B 1_555 1_555
C39B C38B 1_555 1_555
H28B C39B 1_555 1_555
H29B C39B 1_555 1_555
C40B C39B 1_555 1_555
H30B C40B 1_555 1_555
H31B C40B 1_555 1_555
H32B C40B 1_555 1_555
C41B C36B 1_555 1_555
H33B C41B 1_555 1_555
H34B C41B 1_555 1_555
C42B C41B 1_555 1_555
H35B C42B 1_555 1_555
H36B C42B 1_555 1_555
H37B C42B 1_555 1_555
C43B H38B 1_555 1_555
H39B C43B 1_555 1_555
C44B C43B 1_555 1_555
H40B C44B 1_555 1_555
C45B C44B 1_555 1_555
H41B C45B 1_555 1_555
H42B C45B 1_555 1_555
C46B C45B 1_555 1_555
H43B C46B 1_555 1_555
H44B C46B 1_555 1_555
H45B C46B 1_555 1_555
C47B C44B 1_555 1_555
H46B C47B 1_555 1_555
H47B C47B 1_555 1_555
C48B C47B 1_555 1_555
H48B C48B 1_555 1_555
H49B C48B 1_555 1_555
C49B C48B 1_555 1_555
H50B C49B 1_555 1_555
H51B C49B 1_555 1_555
C50B C49B 1_555 1_555
H52B C50B 1_555 1_555
H53B C50B 1_555 1_555
H54B C50B 1_555 1_555
Cd2A N6 1_555 1_555
Cd2_2 N2B 1_555 1_555
N1B Cd1 1_555 1_555
N2B_2 Cd2 1_555 1_555
N3B Cd1 1_555 1_555
N4B C13B 1_555 1_555
N5B C20B 1_555 1_555
N6B C30B 1_555 1_555
N6A Cd2 1_555 1_555
N6C Cd2 1_555 1_555
S1B C2B 1_555 1_555
S1B_2 Cd2 1_555 1_555
S2B Cd1 1_555 1_555
C7 N3 1_555 1_555
C14 C15 1_555 1_555
C17 N4 1_555 1_555
C20 C21 1_555 1_555
C23 N5 1_555 1_555
C26 C27 1_555 1_555
C34 N6 1_555 1_555
C35 N4 1_555 1_555
C43 N5 1_555 1_555
Cd1 N3 1_555 1_555
Cd1 S2 1_555 1_555
Cd2 S1 1_555 1_555
C1B S2B 1_555 1_555
C3B N3B 1_555 1_555
C7B N3B 1_555 1_555
C14B C15B 1_555 1_555
C17B N4B 1_555 1_555
C20B C21B 1_555 1_555
C23B N5B 1_555 1_555
C26B C27B 1_555 1_555
C34B N6B 1_555 1_555
C35B N4B 1_555 1_555
C43B N5B 1_555 1_555
Cd2A N6B 1_555 1_555
Cd2_2 S1B 1_555 1_555

#END
