
#######################################################################
#
#                 Cambridge Crystallographic Data Centre
#                                CCDC 
#
#######################################################################
#
# If this CIF has been generated from an entry in the Cambridge 
# Structural Database, then it will include bibliographic, chemical, 
# crystal, experimental, refinement or atomic coordinate data resulting 
# from the CCDC's data processing and validation procedures.
#
#######################################################################

data_TIVYAZ
_symmetry_cell_setting           orthorhombic
_symmetry_space_group_name_H-M   'P n m a'
_symmetry_Int_Tables_number      62
_space_group_name_Hall           '-P 2ac 2n'
loop_
_symmetry_equiv_pos_site_id
_symmetry_equiv_pos_as_xyz
1 x,y,z
2 1/2-x,-y,1/2+z
3 1/2+x,1/2-y,1/2-z
4 -x,1/2+y,-z
5 -x,-y,-z
6 1/2+x,y,1/2-z
7 1/2-x,1/2+y,1/2+z
8 x,1/2-y,z
_cell_length_a                   23.775(5)
_cell_length_b                   28.132(6)
_cell_length_c                   14.991(3)
_cell_angle_alpha                90
_cell_angle_beta                 90
_cell_angle_gamma                90
_cell_volume                     10026.6
loop_
_atom_site_label
_atom_site_type_symbol
_atom_site_fract_x
_atom_site_fract_y
_atom_site_fract_z
C1 C 0.4535(3) 0.3249(4) -0.1759(5)
C2 C 0.4641(3) 0.3640(3) -0.2430(5)
C3 C 0.4224(3) 0.3768(3) -0.3036(4)
H1 H 0.3875 0.3619 -0.3017
C4 C 0.4328(2) 0.4115(2) -0.3662(4)
C5 C 0.4853(3) 0.4344(2) -0.3670(4)
H2 H 0.4922 0.4584 -0.4082
C6 C 0.5262(3) 0.4216(3) -0.3077(4)
C7 C 0.5154(3) 0.3861(3) -0.2458(5)
H3 H 0.5434 0.3771 -0.2057
C8 C 0.3891(3) 0.4261(2) -0.4337(4)
C9 C 0.5836(3) 0.4451(3) -0.3112(4)
C10 C 0.3565(3) 0.1814(3) 0.0533(6)
C11 C 0.3246(3) 0.1368(2) 0.0764(5)
C12 C 0.3317(3) 0.1159(2) 0.1593(5)
H4 H 0.3553 0.1299 0.2013
C13 C 0.3033(3) 0.0738(2) 0.1796(4)
C14 C 0.2685(3) 0.0526(2) 0.1174(4)
H5 H 0.2506 0.0241 0.1307
C15 C 0.2605(3) 0.0741(2) 0.0345(4)
C16 C 0.2897(3) 0.1162(3) 0.0158(5)
H6 H 0.2850 0.1305 -0.0396
C17 C 0.3139(3) 0.0515(2) 0.2685(4)
C18 C 0.2237(3) 0.0528(3) -0.0343(4)
C19 C 0.6641(3) 0.4156(3) -0.0793(5)
H7 H 0.6346 0.4025 -0.1117
C20 C 0.6197(5) 0.3813(6) 0.0518(8)
H8 H 0.5913 0.3736 0.0086
H9 H 0.6034 0.3999 0.0988
H10 H 0.6351 0.3526 0.0762
C21 C 0.7088(5) 0.4264(5) 0.0626(7)
H11 H 0.7382 0.4387 0.0254
H12 H 0.7234 0.4011 0.0990
H13 H 0.6946 0.4513 0.1003
C22 C 0.3950(10) 0.2258(6) 0.2874(11)
C23 C 0.4344(9) 0.1727(7) 0.3997(13)
H14 H 0.4478 0.1497 0.3575
H15 H 0.4216 0.1568 0.4525
H16 H 0.4643 0.1941 0.4148
C24 C 0.3261(14) 0.1927(10) 0.3908(17)
H17 H 0.3234 0.1988 0.4536
H18 H 0.3146 0.1606 0.3788
H19 H 0.3020 0.2143 0.3591
Co1 Co 0.37951(5) 0.2500 -0.09669(7)
Co2 Co 0.44800(5) 0.2500 0.11544(7)
Co3 Co 0.35439(3) 0.47847(3) -0.58625(5)
Co4 Co 0.70705(4) 0.43614(3) -0.25836(6)
N1 N 0.6646(3) 0.4087(3) 0.0085(4)
N2 N 0.3874(9) 0.1997(6) 0.3600(12)
O2 O 0.4895(3) 0.3203(2) -0.1150(4)
O3 O 0.4103(2) 0.3010(3) -0.1833(4)
O4 O 0.33935(18) 0.41260(17) -0.4262(3)
O5 O 0.40714(18) 0.45265(17) -0.4958(3)
O6 O 0.6217(2) 0.4285(2) -0.2640(4)
O7 O 0.58681(19) 0.48015(18) -0.3642(3)
O8 O 0.3897(2) 0.19675(18) 0.1109(4)
O9 O 0.3461(3) 0.1989(2) -0.0214(5)
O10 O 0.3398(2) 0.42560(16) -0.6723(3)
O11 O 0.29793(18) 0.49071(16) -0.7155(3)
O12 O 0.30132(19) 0.51403(17) -0.5129(3)
O13 O 0.7186(2) 0.42617(18) -0.3928(3)
O14 O 0.4577(2) 0.2500 -0.0229(4)
O15 O 0.3027(3) 0.2500 -0.1731(5)
O16 O 0.5101(2) 0.1970(2) 0.1284(4)
O17 O 0.4396(5) 0.2348(4) 0.2534(6)
O18 O 0.7151(3) 0.3617(2) -0.2443(4)
O19 O 0.79300(19) 0.44454(18) -0.2350(3)
O20 O 0.6990(2) 0.4375(2) -0.1192(3)
C17G C 0.3139(3) 0.4485(2) -0.7315(4)
C18F C 0.2763(3) 0.5528(3) -0.5343(4)
C18B C 0.7237(3) 0.4472(3) -0.4657(4)
C22G C 0.3950(10) 0.2742(6) 0.2874(11)
Co3D Co 0.64561(3) 0.52153(3) -0.41375(5)
Co4D Co 0.29295(4) 0.56386(3) -0.74164(6)
O3G O 0.4103(2) 0.1990(3) -0.1833(4)
O7D O 0.41319(19) 0.51985(18) -0.6358(3)
O8G O 0.3897(2) 0.30325(18) 0.1109(4)
O9G O 0.3461(3) 0.3011(2) -0.0214(5)
O10G O 0.3398(2) 0.07440(16) 0.3277(3)
O11G O 0.29793(18) 0.00929(16) 0.2845(3)
O11D O 0.70207(18) 0.50929(16) -0.2845(3)
O12F O 0.19868(19) 0.01403(17) -0.0129(3)
O13B O 0.2186(2) 0.07383(18) -0.1072(3)
O16G O 0.5101(2) 0.3030(2) 0.1284(4)
O17G O 0.4396(5) 0.2652(4) 0.2534(6)
C25 C 0.4535(5) 0.0930(4) 0.0258(9)
H20 H 0.4504 0.1161 -0.0183
C26 C 0.4300(7) 0.0156(5) 0.0766(16)
H21 H 0.4500 0.0272 0.1277
H22 H 0.4478 -0.0129 0.0551
H23 H 0.3918 0.0087 0.0930
C27 C 0.4013(8) 0.0428(7) -0.0777(13)
H24 H 0.4022 0.0717 -0.1118
H25 H 0.3630 0.0339 -0.0669
H26 H 0.4199 0.0181 -0.1104
N3 N 0.4306(4) 0.0503(4) 0.0090(8)
O21 O 0.4780(3) 0.1039(2) 0.0939(6)
C28 C 0.1178(3) 0.0322(3) 0.1799(6)
H27 H 0.1388 0.0240 0.1298
C29 C 0.0320(6) 0.0666(6) 0.2373(8)
H28 H 0.0418 0.0479 0.2887
H29 H -0.0060 0.0596 0.2199
H30 H 0.0353 0.0997 0.2514
C30 C 0.0501(5) 0.0676(5) 0.0757(7)
H31 H 0.0469 0.1015 0.0709
H32 H 0.0140 0.0533 0.0654
H33 H 0.0764 0.0561 0.0322
N4 N 0.0697(4) 0.0551(3) 0.1648(5)
O22 O 0.1371(3) 0.0209(3) 0.2509(4)
O23 O 0.3475(5) 0.2500 0.6557(7)
O24 O 0.2090(5) 0.2059(5) 0.8702(11)
O25 O 0.2831(3) 0.3296(2) 0.6080(5)
O26 O 0.5965(10) 0.2117(12) 0.2387(15)
O27 O 0.1420(12) 0.2500 0.563(3)
O1 O 0.5578(14) 0.2500 0.399(2)
O28? O 0.1032(10) 0.2500 0.487(3)
loop_
_geom_bond_atom_site_label_1
_geom_bond_atom_site_label_2
_geom_bond_site_symmetry_1
_geom_bond_site_symmetry_2
C1 C2 1_555 1_555
C2 C3 1_555 1_555
C3 H1 1_555 1_555
C4 C3 1_555 1_555
C5 C4 1_555 1_555
H2 C5 1_555 1_555
C6 C5 1_555 1_555
C7 C2 1_555 1_555
H3 C7 1_555 1_555
C8 C4 1_555 1_555
C9 C6 1_555 1_555
C10 C11 1_555 1_555
C11 C12 1_555 1_555
C12 H4 1_555 1_555
C13 C12 1_555 1_555
C14 C13 1_555 1_555
H5 C14 1_555 1_555
C15 C14 1_555 1_555
C16 C11 1_555 1_555
H6 C16 1_555 1_555
C17 C13 1_555 1_555
C18 C15 1_555 1_555
C19 H7 1_555 1_555
C20 H8 1_555 1_555
H9 C20 1_555 1_555
H10 C20 1_555 1_555
C21 H11 1_555 1_555
H12 C21 1_555 1_555
H13 C21 1_555 1_555
C22 N2 1_555 1_555
C23 H14 1_555 1_555
H15 C23 1_555 1_555
H16 C23 1_555 1_555
C24 H17 1_555 1_555
H18 C24 1_555 1_555
H19 C24 1_555 1_555
C25 H20 1_555 1_555
C26 H21 1_555 1_555
H22 C26 1_555 1_555
H23 C26 1_555 1_555
C27 H24 1_555 1_555
H25 C27 1_555 1_555
H26 C27 1_555 1_555
C28 H27 1_555 1_555
C29 H28 1_555 1_555
H29 C29 1_555 1_555
H30 C29 1_555 1_555
C30 H31 1_555 1_555
H32 C30 1_555 1_555
H33 C30 1_555 1_555
Co1 O3 1_555 1_555
Co2 O8 1_555 1_555
Co3 O5 1_555 1_555
Co4 O6 1_555 1_555
N1 C19 1_555 1_555
N2 C23 1_555 1_555
N3 C25 1_555 1_555
N4 C28 1_555 1_555
O2 C1 1_555 1_555
O3 C1 1_555 1_555
O4 C8 1_555 1_555
O5 C8 1_555 1_555
O6 C9 1_555 1_555
O7 C9 1_555 1_555
O8 C10 1_555 1_555
O9 C10 1_555 1_555
O10 Co3 1_555 1_555
O11 Co3 1_555 1_555
O12 Co3 1_555 1_555
O13 Co4 1_555 1_555
O14 Co1 1_555 1_555
O15 Co1 1_555 1_555
O16 Co2 1_555 1_555
O17 C22 1_555 1_555
O18 Co4 1_555 1_555
O19 Co4 1_555 1_555
O20 C19 1_555 1_555
O21 C25 1_555 1_555
O22 C28 1_555 1_555
C17G O10 1_555 1_555
C18F O12 1_555 1_555
C18B O13 1_555 1_555
C22G C22 1_555 1_555
Co3D O7 1_555 1_555
Co4D O11 1_555 1_555
O3G Co1 1_555 1_555
O7D Co3 1_555 1_555
O8G Co2 1_555 1_555
O9G Co1 1_555 1_555
O10G C17 1_555 1_555
O11G C17 1_555 1_555
O11D Co4 1_555 1_555
O12F C18 1_555 1_555
O13B C18 1_555 1_555
O16G Co2 1_555 1_555
O17G C22 1_555 1_555
C6 C7 1_555 1_555
C15 C16 1_555 1_555
C20 N1 1_555 1_555
C21 N1 1_555 1_555
C24 N2 1_555 1_555
C26 N3 1_555 1_555
C27 N3 1_555 1_555
C29 N4 1_555 1_555
C30 N4 1_555 1_555
Co1 O9 1_555 1_555
Co2 O14 1_555 1_555
Co2 O17 1_555 1_555
Co2 O17G 1_555 1_555
Co4 O20 1_555 1_555
O11 C17G 1_555 1_555
O17 C22G 1_555 1_555
O17 O17G 1_555 1_555
C22G O17G 1_555 1_555
Co3D O11D 1_555 1_555

#END
