
#######################################################################
#
#                 Cambridge Crystallographic Data Centre
#                                CCDC 
#
#######################################################################
#
# If this CIF has been generated from an entry in the Cambridge 
# Structural Database, then it will include bibliographic, chemical, 
# crystal, experimental, refinement or atomic coordinate data resulting 
# from the CCDC's data processing and validation procedures.
#
#######################################################################

data_TIVYED
_symmetry_cell_setting           triclinic
_symmetry_space_group_name_H-M   'P -1'
_symmetry_Int_Tables_number      2
_space_group_name_Hall           '-P 1'
loop_
_symmetry_equiv_pos_site_id
_symmetry_equiv_pos_as_xyz
1 x,y,z
2 -x,-y,-z
_cell_length_a                   14.120(2)
_cell_length_b                   14.443(2)
_cell_length_c                   15.428(2)
_cell_angle_alpha                64.468(2)
_cell_angle_beta                 79.160(2)
_cell_angle_gamma                79.482(2)
_cell_volume                     2770.06
loop_
_atom_site_label
_atom_site_type_symbol
_atom_site_fract_x
_atom_site_fract_y
_atom_site_fract_z
C1 C 0.8354(5) 0.4817(6) 0.4362(5)
H1 H 0.8408 0.5438 0.4385
C2 C 0.8596(6) 0.3533(6) 0.3971(6)
H2 H 0.8859 0.3089 0.3672
C3 C 0.7813(6) 0.3386(6) 0.4653(6)
H3 H 0.7442 0.2836 0.4903
C4 C 0.6921(5) 0.4362(7) 0.5643(6)
H4 H 0.7084 0.4889 0.5802
H5 H 0.6904 0.3726 0.6226
C5 C 0.5934(5) 0.4685(7) 0.5300(5)
C6 C 0.5671(6) 0.5671(6) 0.4610(6)
H6 H 0.6129 0.6139 0.4341
C7 C 0.5231(6) 0.4024(6) 0.5686(5)
H7 H 0.5371 0.3361 0.6154
C8 C 1.0170(8) 0.6713(8) 0.3690(7)
H8 H 1.0415 0.6214 0.4248
C9 C 0.9582(7) 0.7414(7) 0.2335(7)
H9 H 0.9347 0.7511 0.1774
C10 C 1.0028(9) 0.7726(9) 0.3455(8)
H10 H 1.0163 0.8062 0.3806
C11 C 0.9322(10) 0.9268(8) 0.2040(10)
H11 H 0.9562 0.9678 0.2293
H12 H 0.8618 0.9375 0.2135
C12 C 0.9659(9) 0.9641(8) 0.0979(9)
C13 C 0.9081(9) 1.0188(9) 0.0351(10)
H13 H 0.8439 1.0356 0.0564
C14 C 1.0629(9) 0.9466(9) 0.0618(9)
H14 H 1.1084 0.9106 0.1049
C15 C 1.1910(5) 0.6523(6) 0.1525(6)
H15 H 1.1812 0.6855 0.1939
C16 C 1.1794(5) 0.5495(6) 0.0909(5)
H16 H 1.1603 0.4979 0.0794
C17 C 1.2539(5) 0.6758(6) 0.0714(6)
H17 H 1.2945 0.7278 0.0464
C18 C 1.3086(6) 0.6011(7) -0.0516(6)
H18 H 1.3142 0.6694 -0.1032
H19 H 1.2787 0.5619 -0.0745
C19 C 1.4089(5) 0.5477(6) -0.0258(5)
C20 C 1.4883(6) 0.6038(6) -0.0595(6)
H20 H 1.4805 0.6741 -0.0991
C21 C 1.4211(6) 0.4450(7) 0.0340(5)
H21 H 1.3679 0.4076 0.0577
N1 N 1.1442(5) 0.3613(6) 0.4087(5)
N2 N 0.9238(5) 0.5073(6) 0.1381(5)
N5 N 0.8946(4) 0.4435(4) 0.3786(4)
N6 N 0.7678(4) 0.4204(5) 0.4898(4)
N7 N 0.9896(5) 0.6520(5) 0.2974(5)
N8 N 0.9642(6) 0.8177(6) 0.2591(6)
N9 N 1.1429(4) 0.5715(5) 0.1652(4)
N10 N 1.2472(4) 0.6101(5) 0.0334(4)
O1 O 1.1221(4) 0.4517(5) 0.3997(4)
O2 O 1.1108(4) 0.3379(5) 0.3527(5)
O3 O 1.1936(5) 0.2978(5) 0.4683(5)
O4 O 0.9049(5) 0.5849(5) 0.1584(5)
O5 O 0.9884(4) 0.4392(4) 0.1812(4)
O6 O 0.8806(6) 0.4982(7) 0.0801(6)
Mn1 Mn 1.02266(8) 0.50650(8) 0.27739(8)
C1A C 0.1646(5) 0.5183(6) 0.5638(5)
H1A H 0.1592 0.4562 0.5615
C2A C 0.1404(6) 0.6467(6) 0.6029(6)
H2A H 0.1141 0.6911 0.6328
C3A C 0.2187(6) 0.6614(6) 0.5347(6)
H3A H 0.2558 0.7164 0.5097
C4A C 0.3079(5) 0.5638(7) 0.4357(6)
H4A H 0.2916 0.5111 0.4198
H5A H 0.3096 0.6274 0.3774
C5A C 0.4066(5) 0.5315(7) 0.4700(5)
C6A C 0.4329(6) 0.4329(6) 0.5390(6)
H6A H 0.3871 0.3861 0.5659
C7A C 0.4769(6) 0.5976(6) 0.4314(5)
H7A H 0.4629 0.6639 0.3846
C8A C 0.9830(8) 1.3287(8) -0.3690(7)
H8A H 0.9585 1.3786 -0.4248
C9A C 1.0418(7) 1.2586(7) -0.2335(7)
H9A H 1.0653 1.2489 -0.1774
C10A C 0.9972(9) 1.2274(9) -0.3455(8)
H10A H 0.9837 1.1938 -0.3806
C11A C 1.0678(10) 1.0732(8) -0.2040(10)
H11A H 1.0438 1.0322 -0.2293
H12A H 1.1382 1.0625 -0.2135
C12A C 1.0341(9) 1.0359(8) -0.0979(9)
C13A C 1.0919(9) 0.9812(9) -0.0351(10)
H13A H 1.1561 0.9644 -0.0564
C14A C 0.9371(9) 1.0534(9) -0.0618(9)
H14A H 0.8916 1.0894 -0.1049
C15A C 1.8090(5) 0.3477(6) -0.1525(6)
H15A H 1.8188 0.3145 -0.1939
C16A C 1.8206(5) 0.4505(6) -0.0909(5)
H16A H 1.8397 0.5021 -0.0794
C17A C 1.7461(5) 0.3242(6) -0.0714(6)
H17A H 1.7055 0.2722 -0.0464
C18A C 1.6914(6) 0.3989(7) 0.0516(6)
H18A H 1.6858 0.3306 0.1032
H19A H 1.7213 0.4381 0.0745
C19A C 1.5911(5) 0.4523(6) 0.0258(5)
C20A C 1.5117(6) 0.3962(6) 0.0595(6)
H20A H 1.5195 0.3259 0.0991
C21A C 1.5789(6) 0.5550(7) -0.0340(5)
H21A H 1.6321 0.5924 -0.0577
N1A N -0.1442(5) 0.6387(6) 0.5913(5)
N2A N 0.0762(5) 0.4927(6) 0.8619(5)
N5A N 0.1054(4) 0.5565(4) 0.6214(4)
N6A N 0.2322(4) 0.5796(5) 0.5102(4)
N7A N 1.0104(5) 1.3480(5) -0.2974(5)
N7A_2 N 0.0104(5) 0.3480(5) 0.7026(5)
N8A N 1.0358(6) 1.1823(6) -0.2591(6)
N9A N 1.8571(4) 0.4285(5) -0.1652(4)
N9A_2 N -0.1429(4) 0.4285(5) 0.8348(4)
N10A N 1.7528(4) 0.3899(5) -0.0334(4)
O1A O -0.1221(4) 0.5483(5) 0.6003(4)
O2A O -0.1108(4) 0.6621(5) 0.6473(5)
O3A O -0.1936(5) 0.7022(5) 0.5317(5)
O4A O 0.0951(5) 0.4151(5) 0.8416(5)
O5A O 0.0116(4) 0.5608(4) 0.8188(4)
O6A O 0.1194(6) 0.5018(7) 0.9199(6)
Mn1A Mn -0.02266(8) 0.49350(8) 0.72261(8)
Mn1A_2 Mn 0.97734(8) 1.49350(8) -0.27739(8)
Mn1A_3 Mn 1.97734(8) 0.49350(8) -0.27739(8)
C22 C 0.6996(6) 0.7864(6) 0.2756(6)
H22 H 0.7332 0.7897 0.3205
C23 C 0.5989(6) 0.8203(6) 0.1794(6)
H23 H 0.5479 0.8517 0.1423
C24 C 0.7223(6) 0.7134(6) 0.2406(6)
H24 H 0.7723 0.6594 0.2554
C25 C 0.6473(6) 0.6747(5) 0.1251(5)
H25 H 0.7116 0.6487 0.1039
H26 H 0.6159 0.7192 0.0679
C26 C 0.5896(6) 0.5856(5) 0.1863(5)
C27 C 0.4911(6) 0.1767(6) 0.3327(5)
H27 H 0.5469 0.1615 0.3624
C28 C 0.3837(6) 0.1735(6) 0.2554(6)
H28 H 0.3505 0.1548 0.2197
C29 C 0.3536(5) 0.2532(6) 0.2800(5)
H29 H 0.2968 0.2981 0.2665
C30 C 0.4253(6) 0.3304(6) 0.3687(5)
H30 H 0.4523 0.2948 0.4297
H31 H 0.3592 0.3586 0.3822
C31 C 0.4839(6) 0.4188(5) 0.3022(5)
C32 C 0.4397(6) 0.5111(6) 0.2386(5)
H32 H 0.3736 0.5183 0.2348
C33 C 0.5823(6) 0.4132(6) 0.3057(6)
H33 H 0.6133 0.3527 0.3487
C34 C 0.6353(6) 0.4930(5) 0.2482(5)
H34 H 0.7018 0.4855 0.2504
C35 C 0.7352(6) 1.0828(6) 0.2895(6)
H35 H 0.7381 1.1307 0.2254
C36 C 0.6982(6) 0.9552(6) 0.4210(6)
H36 H 0.6693 0.8978 0.4667
C37 C 0.7851(6) 1.0815(7) 0.3547(6)
H37 H 0.8272 1.1287 0.3450
C38 C 0.7990(5) 0.9652(7) 0.5329(5)
H38 H 0.7922 0.8926 0.5715
H39 H 0.7602 1.0042 0.5675
C39 C 0.9030(5) 0.9821(6) 0.5188(5)
C40 C 0.9298(6) 1.0708(6) 0.5143(5)
H40 H 0.8817 1.1197 0.5245
C41 C 0.9759(6) 0.9100(6) 0.5044(6)
H41 H 0.9605 0.8487 0.5075
C42 C 0.4928(6) 0.5916(6) 0.1812(5)
H42 H 0.4623 0.6519 0.1375
N3 N 0.4309(5) 0.8710(5) 0.4212(5)
N4 N 0.5541(5) 1.1117(5) 0.0767(5)
N11 N 0.6233(4) 0.8543(5) 0.2388(4)
N12 N 0.6563(5) 0.7357(4) 0.1790(4)
N13 N 0.4694(5) 0.1233(5) 0.2893(4)
N14 N 0.4232(5) 0.2546(4) 0.3286(4)
N15 N 0.6790(4) 1.0038(5) 0.3302(5)
N16 N 0.7634(4) 0.9978(5) 0.4391(4)
O7 O 0.4087(4) 0.9120(5) 0.3367(5)
O8 O 0.5122(4) 0.8801(5) 0.4326(4)
O9 O 0.3726(5) 0.8258(5) 0.4903(5)
O10 O 0.4920(4) 1.0491(4) 0.1284(4)
O11 O 0.6235(4) 1.1080(4) 0.1173(4)
O12 O 0.5445(6) 1.1700(5) -0.0067(5)
Mn2 Mn 0.55653(8) 0.98753(8) 0.26999(8)
C22_2 C 0.6996(6) 1.7864(6) 0.2756(6)
H22_2 H 0.7332 1.7897 0.3205
C23_2 C 0.5989(6) 1.8203(6) 0.1794(6)
H23_2 H 0.5479 1.8517 0.1423
C24_2 C 0.7223(6) 1.7134(6) 0.2406(6)
H24_2 H 0.7723 1.6594 0.2554
C25_2 C 0.6473(6) 1.6747(5) 0.1251(5)
H25_2 H 0.7116 1.6487 0.1039
H26_2 H 0.6159 1.7192 0.0679
C26_2 C 0.5896(6) 1.5856(5) 0.1863(5)
C27_2 C 0.4911(6) 1.1767(6) 0.3327(5)
H27_2 H 0.5469 1.1615 0.3624
C28_2 C 0.3837(6) 1.1735(6) 0.2554(6)
H28_2 H 0.3505 1.1548 0.2197
C29_2 C 0.3536(5) 1.2532(6) 0.2800(5)
H29_2 H 0.2968 1.2981 0.2665
C30_2 C 0.4253(6) 1.3304(6) 0.3687(5)
H30_2 H 0.4523 1.2948 0.4297
H31_2 H 0.3592 1.3586 0.3822
C31_2 C 0.4839(6) 1.4188(5) 0.3022(5)
C32_2 C 0.4397(6) 1.5111(6) 0.2386(5)
H32_2 H 0.3736 1.5183 0.2348
C33_2 C 0.5823(6) 1.4132(6) 0.3057(6)
H33_2 H 0.6133 1.3527 0.3487
C34_2 C 0.6353(6) 1.4930(5) 0.2482(5)
H34_2 H 0.7018 1.4855 0.2504
C35A C 1.2648(6) 0.9172(6) 0.7105(6)
H35A H 1.2619 0.8693 0.7746
C36A C 1.3018(6) 1.0448(6) 0.5790(6)
H36A H 1.3307 1.1022 0.5333
C37A C 1.2149(6) 0.9185(7) 0.6453(6)
H37A H 1.1728 0.8713 0.6550
C38A C 1.2010(5) 1.0348(7) 0.4671(5)
H38A H 1.2078 1.1074 0.4285
H39A H 1.2398 0.9958 0.4325
C39A C 1.0970(5) 1.0179(6) 0.4812(5)
C40A C 1.0702(6) 0.9292(6) 0.4857(5)
H40A H 1.1183 0.8803 0.4755
C41A C 1.0241(6) 1.0900(6) 0.4956(6)
H41A H 1.0395 1.1513 0.4925
C42_2 C 0.4928(6) 1.5916(6) 0.1812(5)
H42_2 H 0.4623 1.6519 0.1375
N3_2 N 0.4309(5) 1.8710(5) 0.4212(5)
N4_2 N 0.5541(5) 2.1117(5) 0.0767(5)
N11_2 N 0.6233(4) 1.8543(5) 0.2388(4)
N12_2 N 0.6563(5) 1.7357(4) 0.1790(4)
N13_2 N 0.4694(5) 1.1233(5) 0.2893(4)
N13_3 N 0.4694(5) 2.1233(5) 0.2893(4)
N14_2 N 0.4232(5) 1.2546(4) 0.3286(4)
N15A N 1.3210(4) 0.9962(5) 0.6698(5)
N15_2 N 0.6790(4) 2.0038(5) 0.3302(5)
N16A N 1.2366(4) 1.0022(5) 0.5609(4)
O7_2 O 0.4087(4) 1.9120(5) 0.3367(5)
O8_2 O 0.5122(4) 1.8801(5) 0.4326(4)
O9_2 O 0.3726(5) 1.8258(5) 0.4903(5)
O10_2 O 0.4920(4) 2.0491(4) 0.1284(4)
O11_2 O 0.6235(4) 2.1080(4) 0.1173(4)
O12_2 O 0.5445(6) 2.1700(5) -0.0067(5)
Mn2_2 Mn 0.55653(8) 1.98753(8) 0.26999(8)
Mn2_3 Mn 0.55653(8) -0.01247(8) 0.26999(8)
Mn2A Mn 1.44347(8) 1.01247(8) 0.73001(8)
C43 C 0.2962(9) 0.9472(8) 0.1742(7)
H43 H 0.3517 0.9650 0.1914
Cl1 Cl 0.3143(4) 0.8184(4) 0.2018(4)
Cl2 Cl 0.1950(4) 0.9768(5) 0.2402(4)
Cl3 Cl 0.2931(4) 1.0168(5) 0.0503(4)
C44 C 0.0532(7) 0.2528(8) 0.1237(6)
H44 H 0.0221 0.3230 0.1114
Cl4 Cl 0.0046(10) 0.2152(6) 0.0545(6)
Cl5 Cl 0.0252(7) 0.1816(6) 0.2465(3)
Cl6 Cl 0.1745(4) 0.2626(6) 0.0965(5)
Cl7? Cl 0.1552(10) 0.2015(14) 0.0615(11)
Cl8? Cl -0.0469(10) 0.2268(18) 0.0889(16)
Cl9? Cl 0.0590(18) 0.164(2) 0.2454(9)
loop_
_geom_bond_atom_site_label_1
_geom_bond_atom_site_label_2
_geom_bond_site_symmetry_1
_geom_bond_site_symmetry_2
C1 H1 1_555 1_555
C2 H2 1_555 1_555
C3 C2 1_555 1_555
H3 C3 1_555 1_555
C4 H4 1_555 1_555
H5 C4 1_555 1_555
C5 C4 1_555 1_555
C6 C5 1_555 1_555
H6 C6 1_555 1_555
C7 C5 1_555 1_555
H7 C7 1_555 1_555
C8 H8 1_555 1_555
C9 H9 1_555 1_555
C10 C8 1_555 1_555
H10 C10 1_555 1_555
C11 H11 1_555 1_555
H12 C11 1_555 1_555
C12 C11 1_555 1_555
C13 C12 1_555 1_555
H13 C13 1_555 1_555
C14 C12 1_555 1_555
H14 C14 1_555 1_555
C15 H15 1_555 1_555
C16 H16 1_555 1_555
C17 C15 1_555 1_555
H17 C17 1_555 1_555
C18 H18 1_555 1_555
H19 C18 1_555 1_555
C19 C18 1_555 1_555
C20 C19 1_555 1_555
H20 C20 1_555 1_555
C21 C19 1_555 1_555
H21 C21 1_555 1_555
C22 H22 1_555 1_555
C23 H23 1_555 1_555
C24 C22 1_555 1_555
H24 C24 1_555 1_555
C25 H25 1_555 1_555
H26 C25 1_555 1_555
C26 C25 1_555 1_555
C27 H27 1_555 1_555
C28 H28 1_555 1_555
C29 C28 1_555 1_555
H29 C29 1_555 1_555
C30 H30 1_555 1_555
H31 C30 1_555 1_555
C31 C30 1_555 1_555
C32 C31 1_555 1_555
H32 C32 1_555 1_555
C33 C31 1_555 1_555
H33 C33 1_555 1_555
C34 C26 1_555 1_555
H34 C34 1_555 1_555
C35 H35 1_555 1_555
C36 H36 1_555 1_555
C37 C35 1_555 1_555
H37 C37 1_555 1_555
C38 H38 1_555 1_555
H39 C38 1_555 1_555
C39 C38 1_555 1_555
C40 C39 1_555 1_555
H40 C40 1_555 1_555
C41 C39 1_555 1_555
H41 C41 1_555 1_555
C42 C26 1_555 1_555
H42 C42 1_555 1_555
N1 O1 1_555 1_555
N2 O4 1_555 1_555
N3 O7 1_555 1_555
N4 O10 1_555 1_555
N5 C1 1_555 1_555
N6 C1 1_555 1_555
N7 C8 1_555 1_555
N8 C9 1_555 1_555
N9 C15 1_555 1_555
N10 C16 1_555 1_555
N11 C22 1_555 1_555
N12 C23 1_555 1_555
N13 C27 1_555 1_555
N14 C27 1_555 1_555
N15 C35 1_555 1_555
N16 C36 1_555 1_555
O1 Mn1 1_555 1_555
O2 N1 1_555 1_555
O3 N1 1_555 1_555
O4 Mn1 1_555 1_555
O5 N2 1_555 1_555
O6 N2 1_555 1_555
O7 Mn2 1_555 1_555
O8 N3 1_555 1_555
O9 N3 1_555 1_555
O10 Mn2 1_555 1_555
O11 N4 1_555 1_555
O12 N4 1_555 1_555
Mn1 N5 1_555 1_555
Mn2 N11 1_555 1_555
C43 H43 1_555 1_555
Cl1 C43 1_555 1_555
Cl2 C43 1_555 1_555
Cl3 C43 1_555 1_555
C44 H44 1_555 1_555
Cl4 C44 1_555 1_555
Cl5 C44 1_555 1_555
Cl6 C44 1_555 1_555
C1A H1A 1_555 1_555
C2A H2A 1_555 1_555
C3A C2A 1_555 1_555
H3A C3A 1_555 1_555
C4A H4A 1_555 1_555
H5A C4A 1_555 1_555
C5A C4A 1_555 1_555
C6A C7 1_555 1_555
H6A C6A 1_555 1_555
C7A C6 1_555 1_555
H7A C7A 1_555 1_555
C8A H8A 1_555 1_555
C9A H9A 1_555 1_555
C10A C8A 1_555 1_555
H10A C10A 1_555 1_555
C11A H11A 1_555 1_555
H12A C11A 1_555 1_555
C12A C11A 1_555 1_555
C13A C14 1_555 1_555
H13A C13A 1_555 1_555
C14A C13 1_555 1_555
H14A C14A 1_555 1_555
C15A H15A 1_555 1_555
C16A H16A 1_555 1_555
C17A C15A 1_555 1_555
H17A C17A 1_555 1_555
C18A H18A 1_555 1_555
H19A C18A 1_555 1_555
C19A C18A 1_555 1_555
C20A C21 1_555 1_555
H20A C20A 1_555 1_555
C21A C20 1_555 1_555
H21A C21A 1_555 1_555
C22_2 H22_2 1_555 1_555
C23_2 H23_2 1_555 1_555
C24_2 C22_2 1_555 1_555
H24_2 C24_2 1_555 1_555
C25_2 H25_2 1_555 1_555
H26_2 C25_2 1_555 1_555
C26_2 C25_2 1_555 1_555
C27_2 H27_2 1_555 1_555
C28_2 H28_2 1_555 1_555
C29_2 C28_2 1_555 1_555
H29_2 C29_2 1_555 1_555
C30_2 H30_2 1_555 1_555
H31_2 C30_2 1_555 1_555
C31_2 C30_2 1_555 1_555
C32_2 C31_2 1_555 1_555
H32_2 C32_2 1_555 1_555
C33_2 C31_2 1_555 1_555
H33_2 C33_2 1_555 1_555
C34_2 C26_2 1_555 1_555
H34_2 C34_2 1_555 1_555
C35A H35A 1_555 1_555
C36A H36A 1_555 1_555
C37A C35A 1_555 1_555
H37A C37A 1_555 1_555
C38A H38A 1_555 1_555
H39A C38A 1_555 1_555
C39A C38A 1_555 1_555
C40A C41 1_555 1_555
H40A C40A 1_555 1_555
C41A C40 1_555 1_555
H41A C41A 1_555 1_555
C42_2 C26_2 1_555 1_555
H42_2 C42_2 1_555 1_555
N1A O1A 1_555 1_555
N2A O4A 1_555 1_555
N3_2 O7_2 1_555 1_555
N4_2 O10_2 1_555 1_555
N5A C1A 1_555 1_555
N6A C1A 1_555 1_555
N7A C8A 1_555 1_555
N7A_2 Mn1A 1_555 1_555
N8A C9A 1_555 1_555
N9A C15A 1_555 1_555
N9A_2 Mn1A 1_555 1_555
N10A C16A 1_555 1_555
N11_2 C22_2 1_555 1_555
N12_2 C23_2 1_555 1_555
N13_2 Mn2 1_555 1_555
N13_3 Mn2_2 1_555 1_555
N14_2 C27_2 1_555 1_555
N15A C35A 1_555 1_555
N15_2 Mn2_2 1_555 1_555
N16A C36A 1_555 1_555
O1A Mn1A 1_555 1_555
O2A N1A 1_555 1_555
O3A N1A 1_555 1_555
O4A Mn1A 1_555 1_555
O5A N2A 1_555 1_555
O6A N2A 1_555 1_555
O7_2 Mn2_2 1_555 1_555
O8_2 N3_2 1_555 1_555
O9_2 N3_2 1_555 1_555
O10_2 Mn2_2 1_555 1_555
O11_2 N4_2 1_555 1_555
O12_2 N4_2 1_555 1_555
Mn1A N5A 1_555 1_555
Mn1A_2 N7A 1_555 1_555
Mn1A_3 N9A 1_555 1_555
Mn2_2 N11_2 1_555 1_555
Mn2_3 N13 1_555 1_555
Mn2A N15A 1_555 1_555
C2 N5 1_555 1_555
C3 N6 1_555 1_555
C4 N6 1_555 1_555
C9 N7 1_555 1_555
C10 N8 1_555 1_555
C11 N8 1_555 1_555
C16 N9 1_555 1_555
C17 N10 1_555 1_555
C18 N10 1_555 1_555
C23 N11 1_555 1_555
C24 N12 1_555 1_555
C25 N12 1_555 1_555
C28 N13 1_555 1_555
C29 N14 1_555 1_555
C30 N14 1_555 1_555
C32 C42 1_555 1_555
C33 C34 1_555 1_555
C36 N15 1_555 1_555
C37 N16 1_555 1_555
C38 N16 1_555 1_555
N7 Mn1 1_555 1_555
N9 Mn1 1_555 1_555
N15 Mn2 1_555 1_555
O2 Mn1 1_555 1_555
O5 Mn1 1_555 1_555
O8 Mn2 1_555 1_555
O11 Mn2 1_555 1_555
C2A N5A 1_555 1_555
C3A N6A 1_555 1_555
C4A N6A 1_555 1_555
C5A C6A 1_555 1_555
C5A C7A 1_555 1_555
C9A N7A 1_555 1_555
C10A N8A 1_555 1_555
C11A N8A 1_555 1_555
C12A C13A 1_555 1_555
C12A C14A 1_555 1_555
C16A N9A 1_555 1_555
C17A N10A 1_555 1_555
C18A N10A 1_555 1_555
C19A C20A 1_555 1_555
C19A C21A 1_555 1_555
C23_2 N11_2 1_555 1_555
C24_2 N12_2 1_555 1_555
C25_2 N12_2 1_555 1_555
C27_2 N13_2 1_555 1_555
C28_2 N13_2 1_555 1_555
C29_2 N14_2 1_555 1_555
C30_2 N14_2 1_555 1_555
C32_2 C42_2 1_555 1_555
C33_2 C34_2 1_555 1_555
C36A N15A 1_555 1_555
C37A N16A 1_555 1_555
C38A N16A 1_555 1_555
C39A C40A 1_555 1_555
C39A C41A 1_555 1_555
O2A Mn1A 1_555 1_555
O5A Mn1A 1_555 1_555
O8_2 Mn2_2 1_555 1_555
O11_2 Mn2_2 1_555 1_555

#END
