
#######################################################################
#
#                 Cambridge Crystallographic Data Centre
#                                CCDC 
#
#######################################################################
#
# If this CIF has been generated from an entry in the Cambridge 
# Structural Database, then it will include bibliographic, chemical, 
# crystal, experimental, refinement or atomic coordinate data resulting 
# from the CCDC's data processing and validation procedures.
#
#######################################################################

data_TIWBAD
_symmetry_cell_setting           monoclinic
_symmetry_space_group_name_H-M   'P 21/n'
_symmetry_Int_Tables_number      14
_space_group_name_Hall           '-P 2yn'
loop_
_symmetry_equiv_pos_site_id
_symmetry_equiv_pos_as_xyz
1 x,y,z
2 1/2-x,1/2+y,1/2-z
3 -x,-y,-z
4 1/2+x,1/2-y,1/2+z
_cell_length_a                   11.4717(18)
_cell_length_b                   6.6509(11)
_cell_length_c                   11.7926(19)
_cell_angle_alpha                90
_cell_angle_beta                 106.777(3)
_cell_angle_gamma                90
_cell_volume                     861.444
loop_
_atom_site_label
_atom_site_type_symbol
_atom_site_fract_x
_atom_site_fract_y
_atom_site_fract_z
Co1 Co 0.15209(2) 0.09473(5) 0.90338(3)
O1 O 0.14616(13) 0.2302(3) 0.74174(13)
O2 O 0.25799(13) 0.3294(2) 0.62658(13)
O3 O 0.66540(14) 0.3153(3) 0.81874(14)
O4 O 0.51352(13) 0.4608(2) 0.68347(13)
O5 O 0.18730(17) -0.0098(3) 1.07172(15)
H1 H 0.139(3) 0.004(5) 1.110(3)
H2 H 0.233(3) -0.102(5) 1.097(3)
N1 N 0.32844(16) 0.2286(3) 0.93801(16)
N2 N 0.52559(17) 0.2674(3) 0.97178(17)
H3 H 0.600(2) 0.268(4) 1.008(2)
N3 N 0.05928(16) 0.3447(3) 0.95786(17)
C1 C 0.43549(19) 0.2214(3) 1.01849(19)
H4 H 0.4472 0.1878 1.0993
C2 C 0.47549(19) 0.3082(3) 0.85354(19)
C3 C 0.2460(2) 0.2833(3) 0.72647(19)
C4 C 0.35199(19) 0.2829(3) 0.83343(19)
C5 C -0.0491(2) 0.4169(4) 0.8946(2)
H5 H -0.0870 0.3609 0.8188
C6 C 0.55705(19) 0.3645(3) 0.77998(19)
C7 C 0.1076(2) 0.4302(4) 1.0643(2)
H6 H 0.1842 0.3841 1.1127
Co1A Co 0.34791(2) -0.40527(5) 0.59662(3)
Co1A_2 Co 0.34791(2) 0.59473(5) 0.59662(3)
Co1B Co -0.15209(2) 0.90527(5) 1.09662(3)
O1A O 0.35384(13) -0.2698(3) 0.75826(13)
O2A O 0.24201(13) -0.1706(2) 0.87342(13)
O2_2 O 0.25799(13) -0.6706(2) 0.62658(13)
O3A O -0.16540(14) -0.1847(3) 0.68126(14)
O4A O -0.01352(13) -0.0392(2) 0.81653(13)
O4_2 O 0.51352(13) -0.5392(2) 0.68347(13)
O5A O 0.31270(17) -0.5098(3) 0.42828(15)
H1A H 0.361(3) -0.496(5) 0.390(3)
H2A H 0.267(3) -0.602(5) 0.403(3)
N1A N 0.17156(16) -0.2714(3) 0.56199(16)
N2A N -0.02559(17) -0.2326(3) 0.52822(17)
H3A H -0.100(2) -0.232(4) 0.492(2)
N3B N -0.05928(16) 0.6553(3) 1.04214(17)
N3A N 0.44072(16) -0.1553(3) 0.54214(17)
C1A C 0.06451(19) -0.2786(3) 0.48151(19)
H4A H 0.0528 -0.3122 0.4007
C2A C 0.02451(19) -0.1918(3) 0.64646(19)
C3A C 0.2540(2) -0.2167(3) 0.77353(19)
C4A C 0.14801(19) -0.2171(3) 0.66657(19)
C5B C 0.0491(2) 0.5831(4) 1.1054(2)
H5B H 0.0870 0.6391 1.1812
C6A C -0.05705(19) -0.1355(3) 0.72002(19)
C7B C -0.1076(2) 0.5698(4) 0.9357(2)
H6B H -0.1842 0.6159 0.8873
loop_
_geom_bond_atom_site_label_1
_geom_bond_atom_site_label_2
_geom_bond_site_symmetry_1
_geom_bond_site_symmetry_2
Co1 O1 1_555 1_555
O1 C3 1_555 1_555
O2 C3 1_555 1_555
O3 C6 1_555 1_555
O4 C6 1_555 1_555
O5 Co1 1_555 1_555
H1 O5 1_555 1_555
H2 O5 1_555 1_555
N1 Co1 1_555 1_555
N2 H3 1_555 1_555
N3 Co1 1_555 1_555
C1 N1 1_555 1_555
H4 C1 1_555 1_555
C2 N2 1_555 1_555
C3 C4 1_555 1_555
C4 N1 1_555 1_555
C5 N3 1_555 1_555
H5 C5 1_555 1_555
C6 C2 1_555 1_555
C7 N3 1_555 1_555
H6 C7 1_555 1_555
Co1A O1A 1_555 1_555
Co1A_2 O2 1_555 1_555
Co1B N3B 1_555 1_555
O1A C3A 1_555 1_555
O2A Co1 1_555 1_555
O2_2 Co1A 1_555 1_555
O3A C6A 1_555 1_555
O4A Co1 1_555 1_555
O4_2 Co1A 1_555 1_555
O5A Co1A 1_555 1_555
H1A O5A 1_555 1_555
H2A O5A 1_555 1_555
N1A Co1A 1_555 1_555
N2A H3A 1_555 1_555
N3B C5B 1_555 1_555
N3A Co1A 1_555 1_555
C1A N1A 1_555 1_555
H4A C1A 1_555 1_555
C2A N2A 1_555 1_555
C3A O2A 1_555 1_555
C4A N1A 1_555 1_555
C5B C7 1_555 1_555
H5B C5B 1_555 1_555
C6A O4A 1_555 1_555
C7B C5 1_555 1_555
H6B C7B 1_555 1_555
O4 Co1A_2 1_555 1_555
N2 C1 1_555 1_555
C2 C4 1_555 1_555
N2A C1A 1_555 1_555
N3B C7B 1_555 1_555
C2A C4A 1_555 1_555
C2A C6A 1_555 1_555
C3A C4A 1_555 1_555

#END
