
#######################################################################
#
#                 Cambridge Crystallographic Data Centre
#                                CCDC 
#
#######################################################################
#
# If this CIF has been generated from an entry in the Cambridge 
# Structural Database, then it will include bibliographic, chemical, 
# crystal, experimental, refinement or atomic coordinate data resulting 
# from the CCDC's data processing and validation procedures.
#
#######################################################################

data_TIWRUN
_symmetry_cell_setting           triclinic
_symmetry_space_group_name_H-M   'P -1'
_symmetry_Int_Tables_number      2
_space_group_name_Hall           '-P 1'
loop_
_symmetry_equiv_pos_site_id
_symmetry_equiv_pos_as_xyz
1 x,y,z
2 -x,-y,-z
_cell_length_a                   8.1263(16)
_cell_length_b                   9.1640(18)
_cell_length_c                   9.942(2)
_cell_angle_alpha                95.15(3)
_cell_angle_beta                 96.13(3)
_cell_angle_gamma                100.53(3)
_cell_volume                     719.208
loop_
_atom_site_label
_atom_site_type_symbol
_atom_site_fract_x
_atom_site_fract_y
_atom_site_fract_z
Cd1 Cd 0.53648(2) 0.753568(18) 0.968506(19)
K1 K 1.32942(9) 0.37337(6) 0.59823(7)
K2 K 0.93595(9) 1.07363(6) 0.80909(7)
O1 O 0.8138(2) 0.8434(2) 0.9463(2)
O2 O 1.0137(3) 0.7931(2) 0.8252(3)
O3 O 1.0648(3) 0.3302(2) 0.7376(3)
O4 O 1.1038(3) 0.5704(3) 0.7206(3)
H1 H 1.079(8) 0.656(7) 0.758(7)
O5 O 0.4937(3) 0.6512(2) 0.7387(2)
O6 O 0.3928(3) 0.6772(2) 0.5268(2)
O7 O 0.2251(3) 1.0964(2) 0.4512(2)
O8 O 0.2713(3) 0.8689(2) 0.4068(2)
H2 H 0.321(7) 0.798(7) 0.449(6)
N1 N 0.6939(3) 0.5463(2) 0.9581(2)
N2 N 0.6724(3) 0.3975(2) 0.9504(2)
N3 N 0.7869(3) 0.3451(2) 0.8831(2)
N4 N 0.4479(3) 0.9290(2) 0.8318(2)
N5 N 0.4158(3) 1.0679(2) 0.8455(2)
N6 N 0.3503(3) 1.1030(2) 0.7277(2)
C1 C 0.8270(3) 0.5910(3) 0.8928(3)
C2 C 0.8849(3) 0.4655(3) 0.8452(3)
C3 C 0.8883(3) 0.7531(3) 0.8869(3)
C4 C 1.0252(4) 0.4497(3) 0.7647(3)
C5 C 0.4024(3) 0.8745(3) 0.7002(3)
C6 C 0.3397(3) 0.9838(3) 0.6341(3)
C7 C 0.4315(3) 0.7239(3) 0.6527(3)
C8 C 0.2741(4) 0.9881(3) 0.4911(3)
Cd1A Cd 0.46352(2) 0.246432(18) 1.031494(19)
Cd1A_2 Cd 0.46352(2) 1.246432(18) 1.031494(19)
K1_2 K 0.32942(9) 0.37337(6) 0.59823(7)
K1A K 0.67058(9) 0.62663(6) 0.40177(7)
K1_3 K 0.32942(9) 1.37337(6) 0.59823(7)
K2A K 1.06405(9) 0.92637(6) 1.19091(7)
K2_2 K 0.93595(9) 0.07363(6) 0.80909(7)
K2A_2 K 0.06405(9) 0.92637(6) 0.19091(7)
O1A O 1.1862(2) 1.1566(2) 1.0537(2)
O3_2 O 1.0648(3) 1.3302(2) 0.7376(3)
O5_2 O 1.4937(3) 0.6512(2) 0.7387(2)
O6_2 O 1.3928(3) 0.6772(2) 0.5268(2)
O6A O 1.6072(3) 0.3228(2) 0.4732(2)
O7_2 O 1.2251(3) 0.0964(2) 0.4512(2)
O7A O 0.7749(3) 0.9036(2) 0.5488(2)
O8A O 0.7287(3) 1.1311(2) 0.5932(2)
H2A H 0.679(7) 1.202(7) 0.551(6)
N2A N 0.3276(3) 0.6025(2) 1.0496(2)
N3_2 N 0.7869(3) 1.3451(2) 0.8831(2)
N5A N 0.5842(3) 0.9321(2) 1.1545(2)
N6_2 N 1.3503(3) 0.1030(2) 0.7277(2)
loop_
_geom_bond_atom_site_label_1
_geom_bond_atom_site_label_2
_geom_bond_site_symmetry_1
_geom_bond_site_symmetry_2
Cd1 O1 1_555 1_555
K1 O3 1_555 1_555
K2 O1 1_555 1_555
O1 C3 1_555 1_555
O2 K2 1_555 1_555
O3 C4 1_555 1_555
O4 K1 1_555 1_555
H1 O4 1_555 1_555
O5 Cd1 1_555 1_555
O6 C7 1_555 1_555
O7 C8 1_555 1_555
O8 H2 1_555 1_555
N1 Cd1 1_555 1_555
N2 N1 1_555 1_555
N3 N2 1_555 1_555
N4 Cd1 1_555 1_555
N5 N4 1_555 1_555
N6 N5 1_555 1_555
C1 N1 1_555 1_555
C2 N3 1_555 1_555
C3 O2 1_555 1_555
C4 O4 1_555 1_555
C5 N4 1_555 1_555
C6 N6 1_555 1_555
C7 O5 1_555 1_555
C8 O8 1_555 1_555
Cd1A N2 1_555 1_555
Cd1A_2 N5 1_555 1_555
K1_2 O5 1_555 1_555
K1A O6 1_555 1_555
K1_3 O7 1_555 1_555
K2A O1 1_555 1_555
K2_2 O3 1_555 1_555
K2A_2 O7 1_555 1_555
O1A K2 1_555 1_555
O3_2 K2 1_555 1_555
O5_2 K1 1_555 1_555
O6_2 K1 1_555 1_555
O6A K1 1_555 1_555
O7_2 K1 1_555 1_555
O7A K2 1_555 1_555
O8A K2 1_555 1_555
H2A O8A 1_555 1_555
N2A Cd1 1_555 1_555
N3_2 K2 1_555 1_555
N5A Cd1 1_555 1_555
N6_2 K1 1_555 1_555
O6 K1_2 1_555 1_555
O8 K2A_2 1_555 1_555
N3 K2_2 1_555 1_555
N6 K1_3 1_555 1_555
C1 C2 1_555 1_555
C1 C3 1_555 1_555
C2 C4 1_555 1_555
C5 C6 1_555 1_555
C5 C7 1_555 1_555
C6 C8 1_555 1_555
K1A O7A 1_555 1_555
K2A O1A 1_555 1_555

#END
