
#######################################################################
#
#                 Cambridge Crystallographic Data Centre
#                                CCDC 
#
#######################################################################
#
# If this CIF has been generated from an entry in the Cambridge 
# Structural Database, then it will include bibliographic, chemical, 
# crystal, experimental, refinement or atomic coordinate data resulting 
# from the CCDC's data processing and validation procedures.
#
#######################################################################

data_TIWSOH
_symmetry_cell_setting           monoclinic
_symmetry_space_group_name_H-M   'P 21/n'
_symmetry_Int_Tables_number      14
_space_group_name_Hall           '-P 2yn'
loop_
_symmetry_equiv_pos_site_id
_symmetry_equiv_pos_as_xyz
1 x,y,z
2 1/2-x,1/2+y,1/2-z
3 -x,-y,-z
4 1/2+x,1/2-y,1/2+z
_cell_length_a                   16.955(6)
_cell_length_b                   14.954(3)
_cell_length_c                   17.865(2)
_cell_angle_alpha                90
_cell_angle_beta                 115.08(1)
_cell_angle_gamma                90
_cell_volume                     4102.52
loop_
_atom_site_label
_atom_site_type_symbol
_atom_site_fract_x
_atom_site_fract_y
_atom_site_fract_z
Sn1 Sn 0.24925(2) 0.12325(2) 0.17665(1)
Sn2 Sn 0.28464(2) 0.19923(2) 0.68881(1)
O1 O 0.2692(2) 0.1617(2) 0.0686(1)
O2 O 0.2963(2) 0.1506(2) 0.5793(1)
O3 O 0.2768(2) 0.3111(2) 0.0691(1)
O4 O 0.2469(2) 0.0101(2) 0.5581(1)
O5 O 0.2686(2) 0.2565(2) -0.1981(2)
O6 O 0.2275(2) 0.0711(2) 0.2887(1)
N1 N 0.2839(2) 0.3154(2) -0.0780(2)
N2 N 0.2453(2) 0.0050(2) 0.4072(2)
N3 N 0.2924(3) 0.4058(2) -0.1763(2)
N4 N 0.2181(3) -0.0801(2) 0.2945(2)
C1 C 0.2751(2) 0.2374(2) 0.0382(2)
C2 C 0.2688(3) 0.0799(2) 0.5368(2)
C3 C 0.2649(4) 0.0884(3) 0.4508(2)
C4 C 0.2794(3) 0.2294(2) -0.0440(2)
C5 C 0.2808(2) 0.3237(2) -0.1535(2)
C6 C 0.2298(3) 0.0009(2) 0.3277(2)
C7 C 0.1526(2) 0.2204(2) 0.1634(2)
C8 C 0.3874(3) 0.1216(3) 0.7770(2)
C9 C 0.1422(3) 0.2520(3) 0.2319(2)
C10 C 0.4397(3) 0.1553(3) 0.8546(3)
C11 C 0.0788(3) 0.3142(3) 0.2238(3)
C12 C 0.5035(4) 0.1031(5) 0.9132(3)
C13 C 0.0247(3) 0.3452(3) 0.1468(4)
C14 C 0.5165(4) 0.0178(5) 0.8951(3)
C15 C 0.0346(3) 0.3155(3) 0.0789(3)
C16 C 0.4667(4) -0.0166(3) 0.8192(3)
C17 C 0.0981(3) 0.2538(3) 0.0867(2)
C18 C 0.4022(3) 0.0351(3) 0.7598(3)
C19 C 0.3818(3) 0.1409(2) 0.2602(2)
C20 C 0.1534(3) 0.1576(3) 0.6441(2)
C21 C 0.4232(3) 0.0799(3) 0.3226(3)
C22 C 0.1215(3) 0.1164(3) 0.6945(3)
C23 C 0.5096(3) 0.0899(4) 0.3776(3)
C24 C 0.0357(4) 0.0839(4) 0.6626(4)
C25 C 0.5560(4) 0.1622(4) 0.3706(3)
C26 C -0.0171(4) 0.0922(5) 0.5813(4)
C27 C 0.5170(4) 0.2228(4) 0.3093(4)
C28 C 0.0131(4) 0.1320(5) 0.5299(4)
C29 C 0.4303(3) 0.2120(3) 0.2535(3)
C30 C 0.0978(3) 0.1643(4) 0.5604(3)
C31 C 0.3106(3) 0.3296(2) 0.6577(2)
C32 C 0.2050(3) -0.0019(2) 0.1183(2)
C33 C 0.3921(4) 0.3548(3) 0.6700(3)
C34 C 0.1193(3) -0.0274(3) 0.0917(3)
C35 C 0.4089(5) 0.4395(4) 0.6474(4)
C36 C 0.0917(4) -0.1104(4) 0.0563(3)
C37 C 0.3416(7) 0.4980(4) 0.6117(4)
C38 C 0.1485(5) -0.1674(3) 0.0450(3)
C39 C 0.2607(6) 0.4751(4) 0.5997(3)
C40 C 0.2329(4) -0.1435(3) 0.0697(3)
C41 C 0.2437(4) 0.3916(3) 0.6218(3)
C42 C 0.2614(3) -0.0608(3) 0.1064(2)
H1 H 0.3306 0.1951 -0.0369
H2 H 0.2276 0.1985 -0.0824
H3 H 0.2201 0.1315 0.4199
H4 H 0.3208 0.1096 0.4554
H5 H 0.2895 0.3687 -0.0451
H6 H 0.2431 -0.0493 0.4360
H7 H 0.2909 0.4157 -0.2305
H8 H 0.3026 0.4556 -0.1385
H9 H 0.2210 -0.1322 0.3279
H10 H 0.2066 -0.0872 0.2368
H11 H 0.1803 0.2300 0.2864
H12 H 0.4316 0.2163 0.8681
H13 H 0.0727 0.3358 0.2721
H14 H 0.5390 0.1274 0.9676
H15 H -0.0207 0.3880 0.1405
H16 H 0.5614 -0.0183 0.9365
H17 H -0.0034 0.3382 0.0246
H18 H 0.4763 -0.0774 0.8066
H19 H 0.1046 0.2337 0.0381
H20 H 0.3676 0.0101 0.7056
H21 H 0.3909 0.0287 0.3281
H22 H 0.1585 0.1099 0.7530
H23 H 0.5374 0.0462 0.4210
H24 H 0.0141 0.0551 0.6990
H25 H 0.6164 0.1701 0.4093
H26 H -0.0765 0.0699 0.5594
H27 H 0.5498 0.2739 0.3045
H28 H -0.0251 0.1379 0.4715
H29 H 0.4037 0.2551 0.2094
H30 H 0.1183 0.1917 0.5228
H31 H 0.0781 0.0132 0.0981
H32 H 0.4396 0.3129 0.6952
H33 H 0.0315 -0.1279 0.0395
H34 H 0.4677 0.4566 0.6573
H35 H 0.1285 -0.2252 0.0196
H36 H 0.3526 0.5566 0.5949
H37 H 0.2733 -0.1840 0.0617
H38 H 0.2138 0.5177 0.5750
H39 H 0.3218 -0.0441 0.1240
H40 H 0.1848 0.3759 0.6123
O5_2 O 0.2686(2) 0.2565(2) 0.8019(2)
Sn2_2 Sn 0.28464(2) 0.19923(2) -0.31119(1)
loop_
_geom_bond_atom_site_label_1
_geom_bond_atom_site_label_2
_geom_bond_site_symmetry_1
_geom_bond_site_symmetry_2
Sn1 O1 1_555 1_555
Sn2 O2 1_555 1_555
O1 C1 1_555 1_555
O2 C2 1_555 1_555
O3 C1 1_555 1_555
O4 C2 1_555 1_555
O5 C5 1_555 1_555
O6 Sn1 1_555 1_555
N1 C4 1_555 1_555
N2 C3 1_555 1_555
N3 C5 1_555 1_555
N4 C6 1_555 1_555
C1 C4 1_555 1_555
C2 C3 1_555 1_555
C3 H3 1_555 1_555
C4 H1 1_555 1_555
C5 N1 1_555 1_555
C6 O6 1_555 1_555
C7 Sn1 1_555 1_555
C8 Sn2 1_555 1_555
C9 C7 1_555 1_555
C10 C8 1_555 1_555
C11 C9 1_555 1_555
C12 C10 1_555 1_555
C13 C11 1_555 1_555
C14 C12 1_555 1_555
C15 C13 1_555 1_555
C16 C14 1_555 1_555
C17 C7 1_555 1_555
C18 C8 1_555 1_555
C19 Sn1 1_555 1_555
C20 Sn2 1_555 1_555
C21 C19 1_555 1_555
C22 C20 1_555 1_555
C23 C21 1_555 1_555
C24 C22 1_555 1_555
C25 C23 1_555 1_555
C26 C24 1_555 1_555
C27 C25 1_555 1_555
C28 C26 1_555 1_555
C29 C19 1_555 1_555
C30 C20 1_555 1_555
C31 Sn2 1_555 1_555
C32 Sn1 1_555 1_555
C33 C31 1_555 1_555
C34 C32 1_555 1_555
C35 C33 1_555 1_555
C36 C34 1_555 1_555
C37 C35 1_555 1_555
C38 C36 1_555 1_555
C39 C37 1_555 1_555
C40 C38 1_555 1_555
C41 C31 1_555 1_555
C42 C32 1_555 1_555
H2 C4 1_555 1_555
H4 C3 1_555 1_555
H5 N1 1_555 1_555
H6 N2 1_555 1_555
H7 N3 1_555 1_555
H8 N3 1_555 1_555
H9 N4 1_555 1_555
H10 N4 1_555 1_555
H11 C9 1_555 1_555
H12 C10 1_555 1_555
H13 C11 1_555 1_555
H14 C12 1_555 1_555
H15 C13 1_555 1_555
H16 C14 1_555 1_555
H17 C15 1_555 1_555
H18 C16 1_555 1_555
H19 C17 1_555 1_555
H20 C18 1_555 1_555
H21 C21 1_555 1_555
H22 C22 1_555 1_555
H23 C23 1_555 1_555
H24 C24 1_555 1_555
H25 C25 1_555 1_555
H26 C26 1_555 1_555
H27 C27 1_555 1_555
H28 C28 1_555 1_555
H29 C29 1_555 1_555
H30 C30 1_555 1_555
H31 C34 1_555 1_555
H32 C33 1_555 1_555
H33 C36 1_555 1_555
H34 C35 1_555 1_555
H35 C38 1_555 1_555
H36 C37 1_555 1_555
H37 C40 1_555 1_555
H38 C39 1_555 1_555
H39 C42 1_555 1_555
H40 C41 1_555 1_555
O5_2 Sn2 1_555 1_555
Sn2_2 O5 1_555 1_555
N2 C6 1_555 1_555
C15 C17 1_555 1_555
C16 C18 1_555 1_555
C27 C29 1_555 1_555
C28 C30 1_555 1_555
C39 C41 1_555 1_555
C40 C42 1_555 1_555

#END
