
#######################################################################
#
#                 Cambridge Crystallographic Data Centre
#                                CCDC 
#
#######################################################################
#
# If this CIF has been generated from an entry in the Cambridge 
# Structural Database, then it will include bibliographic, chemical, 
# crystal, experimental, refinement or atomic coordinate data resulting 
# from the CCDC's data processing and validation procedures.
#
#######################################################################

data_TIWSOI
_symmetry_cell_setting           monoclinic
_symmetry_space_group_name_H-M   'P 21/c'
_symmetry_Int_Tables_number      14
_space_group_name_Hall           '-P 2ybc'
loop_
_symmetry_equiv_pos_site_id
_symmetry_equiv_pos_as_xyz
1 x,y,z
2 -x,1/2+y,1/2-z
3 -x,-y,-z
4 x,1/2-y,1/2+z
_cell_length_a                   4.9295(5)
_cell_length_b                   20.8947(19)
_cell_length_c                   8.5924(7)
_cell_angle_alpha                90
_cell_angle_beta                 110.328(5)
_cell_angle_gamma                90
_cell_volume                     829.901
loop_
_atom_site_label
_atom_site_type_symbol
_atom_site_fract_x
_atom_site_fract_y
_atom_site_fract_z
Zn1 Zn 0.02746(6) -0.181330(14) -0.66626(4)
Cl1 Cl 0.04906(18) -0.09264(3) -0.80177(10)
P1 P 0.67786(14) -0.19805(3) -0.42203(8)
O1 O 0.4089(4) -0.22251(9) -0.5587(2)
O2 O 0.8834(4) -0.16303(10) -0.4865(3)
O3 O 0.8108(5) -0.24824(10) -0.2941(3)
N1 N 0.4553(5) -0.15933(11) -0.1893(3)
C1 C 0.5480(5) -0.13813(13) -0.3109(3)
C2 C 0.5233(6) -0.07363(14) -0.3472(4)
H1 H 0.5901 -0.0573 -0.4293
C3 C 0.3997(7) -0.03265(14) -0.2626(4)
H2 H 0.3830 0.0113 -0.2869
C4 C 0.3017(6) -0.05754(13) -0.1421(4)
H3 H 0.2129 -0.0308 -0.0859
C5 C 0.3361(6) -0.12160(14) -0.1061(3)
H4 H 0.2753 -0.1389 -0.0226
H5 H 0.446(7) -0.1975(17) -0.169(4)
Zn1_2 Zn 1.02746(6) -0.181330(14) -0.66626(4)
Zn1C Zn 1.02746(6) -0.318670(14) -0.16626(4)
O2_2 O -0.1166(4) -0.16303(10) -0.4865(3)
O3C O -0.1892(5) -0.25176(10) -0.7941(3)
loop_
_geom_bond_atom_site_label_1
_geom_bond_atom_site_label_2
_geom_bond_site_symmetry_1
_geom_bond_site_symmetry_2
Zn1 Cl1 1_555 1_555
P1 O1 1_555 1_555
O1 Zn1 1_555 1_555
O2 P1 1_555 1_555
O3 P1 1_555 1_555
N1 C1 1_555 1_555
C1 P1 1_555 1_555
C2 C1 1_555 1_555
H1 C2 1_555 1_555
C3 C2 1_555 1_555
H2 C3 1_555 1_555
C4 C3 1_555 1_555
H3 C4 1_555 1_555
C5 N1 1_555 1_555
H4 C5 1_555 1_555
H5 N1 1_555 1_555
Zn1_2 O2 1_555 1_555
Zn1C O3 1_555 1_555
O2_2 Zn1 1_555 1_555
O3C Zn1 1_555 1_555
C4 C5 1_555 1_555

#END
