
#######################################################################
#
#                 Cambridge Crystallographic Data Centre
#                                CCDC 
#
#######################################################################
#
# If this CIF has been generated from an entry in the Cambridge 
# Structural Database, then it will include bibliographic, chemical, 
# crystal, experimental, refinement or atomic coordinate data resulting 
# from the CCDC's data processing and validation procedures.
#
#######################################################################

data_TIWSAU
_symmetry_cell_setting           monoclinic
_symmetry_space_group_name_H-M   'P 21/c'
_symmetry_Int_Tables_number      14
_space_group_name_Hall           '-P 2ybc'
loop_
_symmetry_equiv_pos_site_id
_symmetry_equiv_pos_as_xyz
1 x,y,z
2 -x,1/2+y,1/2-z
3 -x,-y,-z
4 x,1/2-y,1/2+z
_cell_length_a                   8.864(8)
_cell_length_b                   29.99(3)
_cell_length_c                   10.726(9)
_cell_angle_alpha                90
_cell_angle_beta                 109.710(11)
_cell_angle_gamma                90
_cell_volume                     2684.25
loop_
_atom_site_label
_atom_site_type_symbol
_atom_site_fract_x
_atom_site_fract_y
_atom_site_fract_z
Cd1 Cd 0.79868(6) 0.39618(2) 0.94066(5)
Cd2 Cd 0.38104(6) 0.377260(19) 0.98263(4)
S1 S 0.9974(2) 0.45426(7) 0.88925(16)
S2 S 0.56199(19) 0.44569(6) 0.93218(14)
O1 O 0.9898(5) 0.43330(16) 0.6461(4)
O2 O 0.5166(5) 0.43702(15) 0.6723(4)
O3 O 0.9261(6) 0.33371(17) 0.9107(4)
O4 O 0.7474(7) 0.3579(2) 0.7303(5)
O5 O 0.6108(8) 0.1578(2) 0.5299(8)
O6 O 0.4507(10) 0.2097(3) 0.4238(9)
O7 O 0.2332(7) 0.3285(2) 1.0552(6)
H1 H 0.2846 0.3058 1.0952
H2 H 0.1400 0.3240 0.9998
N1 N 1.1774(6) 0.39781(18) 0.7983(5)
N2 N 1.1838(6) 0.38483(19) 0.6750(5)
N3 N 0.9209(6) 0.40286(19) 0.1704(5)
N4 N 0.3488(6) 0.48406(19) 0.7153(5)
N5 N 0.3123(7) 0.4817(2) 0.5777(5)
N6 N 0.4175(7) 0.4107(2) 0.1847(5)
C1 C 1.0611(8) 0.4266(2) 0.7792(6)
C2 C 1.0698(7) 0.4066(2) 0.5894(6)
C3 C 1.0213(8) 0.4057(2) 0.4450(6)
C4 C 0.9181(8) 0.4375(2) 0.3698(6)
H3 H 0.8800 0.4602 0.4101
C5 C 0.8726(9) 0.4350(3) 0.2345(6)
H4 H 0.8043 0.4569 0.1847
C6 C 1.0227(9) 0.3727(2) 0.2430(6)
H5 H 1.0602 0.3507 0.1997
C7 C 1.0755(9) 0.3726(2) 0.3796(6)
H6 H 1.1460 0.3507 0.4271
C8 C 0.4683(8) 0.4569(2) 0.7675(6)
C9 C 0.4136(7) 0.4540(2) 0.5581(6)
C10 C 0.4211(8) 0.4394(2) 0.4313(6)
C11 C 0.3242(8) 0.4602(2) 0.3164(6)
H7 H 0.2588 0.4841 0.3201
C12 C 0.3280(9) 0.4445(2) 0.1966(6)
H8 H 0.2636 0.4585 0.1198
C13 C 0.5120(10) 0.3913(3) 0.2970(7)
H9 H 0.5756 0.3674 0.2901
C14 C 0.5196(9) 0.4049(3) 0.4219(7)
H10 H 0.5888 0.3912 0.4973
C15 C 0.8612(9) 0.3327(2) 0.7856(7)
C16 C 0.9331(10) 0.3021(2) 0.7059(8)
H11 H 1.0421 0.3130 0.7211
C17 C 0.8461(11) 0.3047(3) 0.5568(8)
H12 H 0.9174 0.2942 0.5115
H13 H 0.8206 0.3356 0.5320
C18 C 0.6912(11) 0.2772(3) 0.5098(8)
H14 H 0.6136 0.2898 0.5455
H15 H 0.6459 0.2781 0.4140
C19 C 0.7268(10) 0.2292(3) 0.5558(8)
H16 H 0.8121 0.2187 0.5241
C20 C 0.7940(11) 0.2288(3) 0.7055(9)
H17 H 0.8113 0.1982 0.7365
H18 H 0.7170 0.2422 0.7405
C21 C 0.9504(10) 0.2542(3) 0.7565(9)
H19 H 1.0304 0.2390 0.7287
H20 H 0.9876 0.2544 0.8525
C22 C 0.5865(11) 0.1976(3) 0.5012(9)
Cd1C Cd 0.79868(6) 0.10382(2) 0.44066(5)
Cd1_2 Cd 0.79868(6) 0.39618(2) -0.05934(5)
Cd2C Cd 0.38104(6) 0.122740(19) 0.48263(4)
Cd2_2 Cd 1.38104(6) 0.377260(19) 0.98263(4)
Cd2_3 Cd 0.38104(6) 0.377260(19) -0.01737(4)
O5C O 0.6108(8) 0.3422(2) 1.0299(8)
O6C O 0.4507(10) 0.2903(3) 0.9238(9)
N1_2 N 0.1774(6) 0.39781(18) 0.7983(5)
N3_2 N 0.9209(6) 0.40286(19) 1.1704(5)
N6_2 N 0.4175(7) 0.4107(2) 1.1847(5)
O8 O 0.3344(16) 0.2498(5) 0.6788(13)
H21 H 0.3084 0.2687 0.6160
H22 H 0.4318 0.2415 0.7078
O9 O 0.414(2) 0.3282(7) 0.6173(19)
H23 H 0.3414 0.3109 0.5694
H24 H 0.4536 0.3469 0.5768
loop_
_geom_bond_atom_site_label_1
_geom_bond_atom_site_label_2
_geom_bond_site_symmetry_1
_geom_bond_site_symmetry_2
Cd1 S1 1_555 1_555
Cd2 S2 1_555 1_555
S1 C1 1_555 1_555
S2 Cd1 1_555 1_555
O1 C1 1_555 1_555
O2 C8 1_555 1_555
O3 Cd1 1_555 1_555
O4 Cd1 1_555 1_555
O5 C22 1_555 1_555
O6 C22 1_555 1_555
O7 Cd2 1_555 1_555
H1 O7 1_555 1_555
H2 O7 1_555 1_555
N1 N2 1_555 1_555
N2 C2 1_555 1_555
N3 C5 1_555 1_555
N4 N5 1_555 1_555
N5 C9 1_555 1_555
N6 C12 1_555 1_555
C1 N1 1_555 1_555
C2 O1 1_555 1_555
C3 C2 1_555 1_555
C4 C3 1_555 1_555
H3 C4 1_555 1_555
C5 C4 1_555 1_555
H4 C5 1_555 1_555
C6 N3 1_555 1_555
H5 C6 1_555 1_555
C7 C3 1_555 1_555
H6 C7 1_555 1_555
C8 S2 1_555 1_555
C9 O2 1_555 1_555
C10 C9 1_555 1_555
C11 C10 1_555 1_555
H7 C11 1_555 1_555
C12 C11 1_555 1_555
H8 C12 1_555 1_555
C13 N6 1_555 1_555
H9 C13 1_555 1_555
C14 C10 1_555 1_555
H10 C14 1_555 1_555
C15 O3 1_555 1_555
C16 C15 1_555 1_555
H11 C16 1_555 1_555
C17 C16 1_555 1_555
H12 C17 1_555 1_555
H13 C17 1_555 1_555
C18 C17 1_555 1_555
H14 C18 1_555 1_555
H15 C18 1_555 1_555
C19 C18 1_555 1_555
H16 C19 1_555 1_555
C20 C19 1_555 1_555
H17 C20 1_555 1_555
H18 C20 1_555 1_555
C21 C16 1_555 1_555
H19 C21 1_555 1_555
H20 C21 1_555 1_555
C22 C19 1_555 1_555
O8 H21 1_555 1_555
H22 O8 1_555 1_555
O9 H23 1_555 1_555
H24 O9 1_555 1_555
Cd1C O5 1_555 1_555
Cd1_2 N3 1_555 1_555
Cd2C O5 1_555 1_555
Cd2_2 N1 1_555 1_555
Cd2_3 N6 1_555 1_555
O5C Cd1 1_555 1_555
O6C Cd2 1_555 1_555
N1_2 Cd2 1_555 1_555
N3_2 Cd1 1_555 1_555
N6_2 Cd2 1_555 1_555
Cd2 O5C 1_555 1_555
O4 C15 1_555 1_555
O6 Cd2C 1_555 1_555
N4 C8 1_555 1_555
C6 C7 1_555 1_555
C13 C14 1_555 1_555
C20 C21 1_555 1_555

#END
