
#######################################################################
#
#                 Cambridge Crystallographic Data Centre
#                                CCDC 
#
#######################################################################
#
# If this CIF has been generated from an entry in the Cambridge 
# Structural Database, then it will include bibliographic, chemical, 
# crystal, experimental, refinement or atomic coordinate data resulting 
# from the CCDC's data processing and validation procedures.
#
#######################################################################

data_TIWTAV
_symmetry_cell_setting           monoclinic
_symmetry_space_group_name_H-M   'P 21/n'
_symmetry_Int_Tables_number      14
_space_group_name_Hall           '-P 2yn'
loop_
_symmetry_equiv_pos_site_id
_symmetry_equiv_pos_as_xyz
1 x,y,z
2 1/2-x,1/2+y,1/2-z
3 -x,-y,-z
4 1/2+x,1/2-y,1/2+z
_cell_length_a                   10.9312(15)
_cell_length_b                   5.6500(8)
_cell_length_c                   12.3486(17)
_cell_angle_alpha                90
_cell_angle_beta                 97.920(2)
_cell_angle_gamma                90
_cell_volume                     755.391
loop_
_atom_site_label
_atom_site_type_symbol
_atom_site_fract_x
_atom_site_fract_y
_atom_site_fract_z
Hg1 Hg 0.5000 0.0000 0.0000
P1 P 0.5317(3) 0.4659(5) 0.1690(3)
N1 N 0.3493(5) 0.1778(9) 0.0632(4)
O1 O 0.5321(5) 0.7296(9) 0.1680(4)
O2 O 0.5573(4) 0.3821(9) 0.2916(3)
H1 H 0.5846 0.2449 0.2942
O3 O 0.6131(4) 0.3365(8) 0.0997(4)
C1 C 0.3728(6) 0.3736(12) 0.1245(5)
C2 C 0.2754(16) 0.5084(11) 0.1527(15)
H2 H 0.2913 0.6483 0.1934
C3 C 0.1544(8) 0.4350(19) 0.1202(8)
H3 H 0.0882 0.5235 0.1402
C4 C 0.1324(7) 0.2349(13) 0.0596(6)
H4 H 0.0511 0.1834 0.0370
C5 C 0.2322(6) 0.1079(13) 0.0318(6)
H5 H 0.2175 -0.0307 -0.0101
Hg1_2 Hg 0.5000 1.0000 0.0000
N1B N 0.6507(5) -0.1778(9) -0.0632(4)
O1B O 0.4679(5) 0.2704(9) -0.1680(4)
O1_2 O 0.5321(5) -0.2704(9) 0.1680(4)
O3B O 0.3869(4) -0.3365(8) -0.0997(4)
O4 O 0.6419(11) 0.9707(11) 0.3427(10)
H6 H 0.605(8) 0.859(17) 0.277(6)
H7 H 0.724(5) 0.919(19) 0.375(7)
loop_
_geom_bond_atom_site_label_1
_geom_bond_atom_site_label_2
_geom_bond_site_symmetry_1
_geom_bond_site_symmetry_2
Hg1 N1 1_555 1_555
P1 O1 1_555 1_555
N1 C1 1_555 1_555
O1 Hg1_2 1_555 1_555
O2 P1 1_555 1_555
H1 O2 1_555 1_555
O3 Hg1 1_555 1_555
C1 P1 1_555 1_555
C2 C1 1_555 1_555
H2 C2 1_555 1_555
C3 C2 1_555 1_555
H3 C3 1_555 1_555
C4 C3 1_555 1_555
H4 C4 1_555 1_555
C5 N1 1_555 1_555
H5 C5 1_555 1_555
O4 H6 1_555 1_555
H7 O4 1_555 1_555
N1B Hg1 1_555 1_555
O1B Hg1 1_555 1_555
O1_2 Hg1 1_555 1_555
O3B Hg1 1_555 1_555
P1 O3 1_555 1_555
C4 C5 1_555 1_555

#END
