
#######################################################################
#
#                 Cambridge Crystallographic Data Centre
#                                CCDC 
#
#######################################################################
#
# If this CIF has been generated from an entry in the Cambridge 
# Structural Database, then it will include bibliographic, chemical, 
# crystal, experimental, refinement or atomic coordinate data resulting 
# from the CCDC's data processing and validation procedures.
#
#######################################################################

data_TIWYUV
_symmetry_cell_setting           monoclinic
_symmetry_space_group_name_H-M   'P 21/c'
_symmetry_Int_Tables_number      14
_space_group_name_Hall           '-P 2ybc'
loop_
_symmetry_equiv_pos_site_id
_symmetry_equiv_pos_as_xyz
1 x,y,z
2 -x,1/2+y,1/2-z
3 -x,-y,-z
4 x,1/2-y,1/2+z
_cell_length_a                   13.2302(3)
_cell_length_b                   8.4909(2)
_cell_length_c                   18.1162(4)
_cell_angle_alpha                90
_cell_angle_beta                 121.7930(10)
_cell_angle_gamma                90
_cell_volume                     1729.75
loop_
_atom_site_label
_atom_site_type_symbol
_atom_site_fract_x
_atom_site_fract_y
_atom_site_fract_z
C1 C 0.7081(2) 0.3231(3) 0.34886(17)
C2 C 0.3289(3) 0.9278(3) 0.42956(18)
C3 C 0.4230(3) 0.8240(3) 0.46401(19)
H1 H 0.4330 0.7556 0.5075
C4 C 0.7051(3) 0.4442(3) 0.40865(19)
C5 C 0.6102(3) 0.1045(3) 0.25225(19)
H2 H 0.5478 0.0326 0.2282
C6 C 0.7960(2) 0.3248(3) 0.32613(17)
C7 C 0.6903(3) 0.1037(3) 0.22603(19)
C8 C 0.7882(3) 0.2118(3) 0.26447(18)
C9 C 0.3927(3) 1.0226(4) 0.33716(19)
H3 H 0.3844 1.0893 0.2936
C10 C 0.4847(3) 0.9155(4) 0.37476(19)
H4 H 0.5376 0.9114 0.3557
C11 C 0.6206(3) 0.2123(3) 0.31493(19)
H5 H 0.5671 0.2077 0.3334
C12 C 0.3129(3) 1.0307(4) 0.36418(19)
H6 H 0.2505 1.1025 0.3396
C13 C 0.6626(3) -0.0042(3) 0.1507(2)
C14 C 0.8901(3) 0.4352(4) 0.3628(2)
H7 H 0.8942 0.5096 0.4020
C15 C 0.8781(3) 0.2187(4) 0.2436(2)
H8 H 0.8753 0.1485 0.2032
C16 C 0.9674(3) 0.3252(5) 0.2815(2)
H9 H 1.0253 0.3258 0.2671
C17 C 0.9745(3) 0.4342(4) 0.3417(2)
H10 H 1.0369 0.5060 0.3673
C18 C 0.1955(2) 1.0398(3) 0.47190(19)
C19 C -0.0821(3) 0.8668(4) 0.4609(3)
H11 H -0.1544 0.8229 0.4124
H12 H -0.0448 0.7861 0.5053
C20 C 0.1131(3) 0.9942(4) 0.5030(2)
H13 H 0.150(3) 0.916(5) 0.549(3)
C21 C 0.0019(3) 0.9128(4) 0.4307(2)
H14 H -0.0391 0.9831 0.3812
H15 H 0.0247 0.8193 0.4123
Cd1 Cd 0.64474(2) 0.62979(2) 0.501539(14)
N1 N 0.5005(2) 0.8165(3) 0.43817(16)
N2 N 0.2518(2) 0.9188(3) 0.46127(16)
H16 H 0.2402 0.8264 0.4753
O1 O 0.2081(2) 1.1780(3) 0.45666(16)
O2 O 0.5556(3) -0.0337(3) 0.09521(16)
O3 O 0.7455(3) -0.0567(3) 0.14374(17)
O4 O 0.7239(2) 0.3975(3) 0.48083(15)
O5 O 0.6760(2) 0.5822(3) 0.38284(15)
C2B C -0.3289(3) 1.0722(3) 0.57044(18)
C3B C -0.4230(3) 1.1760(3) 0.53599(19)
H1B H -0.4330 1.2444 0.4925
C9B C -0.3927(3) 0.9774(4) 0.66284(19)
H3B H -0.3844 0.9107 0.7064
C10B C -0.4847(3) 1.0845(4) 0.62524(19)
H4B H -0.5376 1.0886 0.6443
C12B C -0.3129(3) 0.9693(4) 0.63582(19)
H6B H -0.2505 0.8975 0.6604
C18B C -0.1955(2) 0.9602(3) 0.52810(19)
C19B C 0.0821(3) 1.1332(4) 0.5391(3)
H11B H 0.1544 1.1771 0.5876
H12B H 0.0448 1.2139 0.4947
C20B C -0.1131(3) 1.0058(4) 0.4970(2)
H13B H -0.150(3) 1.084(5) 0.451(3)
C21B C -0.0019(3) 1.0872(4) 0.5693(2)
H14B H 0.0391 1.0169 0.6188
H15B H -0.0247 1.1807 0.5877
N1B N -0.5005(2) 1.1835(3) 0.56183(16)
N2B N -0.2518(2) 1.0812(3) 0.53873(16)
H16B H -0.2402 1.1736 0.5247
O1B O -0.2081(2) 0.8220(3) 0.54334(16)
C1B C -0.7081(2) 1.6769(3) 0.65114(17)
C4B C -0.7051(3) 1.5558(3) 0.59135(19)
C5B C -0.6102(3) 1.8955(3) 0.74775(19)
H2B H -0.5478 1.9674 0.7718
C6B C -0.7960(2) 1.6752(3) 0.67387(17)
C7B C -0.6903(3) 1.8963(3) 0.77397(19)
C8B C -0.7882(3) 1.7882(3) 0.73553(18)
C11B C -0.6206(3) 1.7877(3) 0.68507(19)
H5B H -0.5671 1.7923 0.6666
C13B C -0.6626(3) 2.0042(3) 0.8493(2)
C14B C -0.8901(3) 1.5648(4) 0.6372(2)
H7B H -0.8942 1.4904 0.5980
C15B C -0.8781(3) 1.7813(4) 0.7564(2)
H8B H -0.8753 1.8515 0.7968
C16B C -0.9674(3) 1.6748(5) 0.7185(2)
H9B H -1.0253 1.6742 0.7329
C17B C -0.9745(3) 1.5658(4) 0.6583(2)
H10B H -1.0369 1.4940 0.6327
Cd1B Cd -0.64474(2) 1.37021(2) 0.498461(14)
O2B O -0.5556(3) 2.0337(3) 0.90479(16)
O3B O -0.7455(3) 2.0567(3) 0.85626(17)
O4B O -0.7239(2) 1.6025(3) 0.51917(15)
O5B O -0.6760(2) 1.4178(3) 0.61716(15)
Cd1_2 Cd -0.35526(2) 0.62979(2) 0.501539(14)
Cd1A Cd -0.64474(2) 2.12979(2) 0.998461(14)
Cd1A_2 Cd 0.35526(2) 0.12979(2) -0.001539(14)
Cd1B_2 Cd 0.35526(2) 1.37021(2) 0.498461(14)
Cd1C Cd -0.35526(2) 1.87021(2) 1.001539(14)
Cd1C_2 Cd 0.64474(2) -0.12979(2) 0.001539(14)
O1_2 O -0.7919(2) 1.1780(3) 0.45666(16)
O1B_2 O 0.7919(2) 0.8220(3) 0.54334(16)
O2A O -0.5556(3) 1.4663(3) 0.40479(16)
O2A_2 O 0.4444(3) 0.4663(3) 0.40479(16)
O2C O -0.4444(3) 1.5337(3) 0.59521(16)
O2C_2 O 0.5556(3) 0.5337(3) 0.59521(16)
O3A O -0.7455(3) 1.4433(3) 0.35626(17)
O3C O 0.7455(3) 0.5567(3) 0.64374(17)
loop_
_geom_bond_atom_site_label_1
_geom_bond_atom_site_label_2
_geom_bond_site_symmetry_1
_geom_bond_site_symmetry_2
C1 C4 1_555 1_555
C2 C3 1_555 1_555
C3 H1 1_555 1_555
C4 O4 1_555 1_555
C5 H2 1_555 1_555
C6 C1 1_555 1_555
C7 C5 1_555 1_555
C8 C6 1_555 1_555
C9 H3 1_555 1_555
C10 C9 1_555 1_555
H4 C10 1_555 1_555
C11 C1 1_555 1_555
H5 C11 1_555 1_555
C12 C2 1_555 1_555
H6 C12 1_555 1_555
C13 C7 1_555 1_555
C14 C6 1_555 1_555
H7 C14 1_555 1_555
C15 C8 1_555 1_555
H8 C15 1_555 1_555
C16 C15 1_555 1_555
H9 C16 1_555 1_555
C17 C14 1_555 1_555
H10 C17 1_555 1_555
C18 C20 1_555 1_555
C19 H11 1_555 1_555
H12 C19 1_555 1_555
C20 H13 1_555 1_555
C21 C19 1_555 1_555
H14 C21 1_555 1_555
H15 C21 1_555 1_555
Cd1 N1 1_555 1_555
N1 C3 1_555 1_555
N2 C2 1_555 1_555
H16 N2 1_555 1_555
O1 C18 1_555 1_555
O2 C13 1_555 1_555
O3 C13 1_555 1_555
O4 Cd1 1_555 1_555
O5 C4 1_555 1_555
C2B C3B 1_555 1_555
C3B H1B 1_555 1_555
C9B H3B 1_555 1_555
C10B C9B 1_555 1_555
H4B C10B 1_555 1_555
C12B C2B 1_555 1_555
H6B C12B 1_555 1_555
C18B C20B 1_555 1_555
C19B C20 1_555 1_555
H11B C19B 1_555 1_555
H12B C19B 1_555 1_555
C20B C19 1_555 1_555
H13B C20B 1_555 1_555
C21B C19B 1_555 1_555
H14B C21B 1_555 1_555
H15B C21B 1_555 1_555
N1B C3B 1_555 1_555
N2B C2B 1_555 1_555
H16B N2B 1_555 1_555
O1B C18B 1_555 1_555
C1B C4B 1_555 1_555
C4B O4B 1_555 1_555
C5B H2B 1_555 1_555
C6B C1B 1_555 1_555
C7B C5B 1_555 1_555
C8B C6B 1_555 1_555
C11B C1B 1_555 1_555
H5B C11B 1_555 1_555
C13B C7B 1_555 1_555
C14B C6B 1_555 1_555
H7B C14B 1_555 1_555
C15B C8B 1_555 1_555
H8B C15B 1_555 1_555
C16B C15B 1_555 1_555
H9B C16B 1_555 1_555
C17B C14B 1_555 1_555
H10B C17B 1_555 1_555
Cd1B N1B 1_555 1_555
O2B C13B 1_555 1_555
O3B C13B 1_555 1_555
O4B Cd1B 1_555 1_555
O5B C4B 1_555 1_555
Cd1_2 O1B 1_555 1_555
Cd1A O2B 1_555 1_555
Cd1A_2 O2 1_555 1_555
Cd1B_2 O1 1_555 1_555
Cd1C O2B 1_555 1_555
Cd1C_2 O2 1_555 1_555
O1_2 Cd1B 1_555 1_555
O1B_2 Cd1 1_555 1_555
O2A Cd1B 1_555 1_555
O2A_2 Cd1 1_555 1_555
O2C Cd1B 1_555 1_555
O2C_2 Cd1 1_555 1_555
O3A Cd1B 1_555 1_555
O3C Cd1 1_555 1_555
C5 C11 1_555 1_555
C7 C8 1_555 1_555
C9 C12 1_555 1_555
C10 N1 1_555 1_555
C16 C17 1_555 1_555
C18 N2 1_555 1_555
C20 C21 1_555 1_555
Cd1 O5 1_555 1_555
O3 Cd1C_2 1_555 1_555
C9B C12B 1_555 1_555
C10B N1B 1_555 1_555
C18B N2B 1_555 1_555
C20B C21B 1_555 1_555
C5B C11B 1_555 1_555
C7B C8B 1_555 1_555
C16B C17B 1_555 1_555
Cd1B O5B 1_555 1_555
O3B Cd1A 1_555 1_555

#END
