
#######################################################################
#
#                 Cambridge Crystallographic Data Centre
#                                CCDC 
#
#######################################################################
#
# If this CIF has been generated from an entry in the Cambridge 
# Structural Database, then it will include bibliographic, chemical, 
# crystal, experimental, refinement or atomic coordinate data resulting 
# from the CCDC's data processing and validation procedures.
#
#######################################################################

data_TIXBIN
_symmetry_cell_setting           triclinic
_symmetry_space_group_name_H-M   'P -1'
_symmetry_Int_Tables_number      2
_space_group_name_Hall           '-P 1'
loop_
_symmetry_equiv_pos_site_id
_symmetry_equiv_pos_as_xyz
1 x,y,z
2 -x,-y,-z
_cell_length_a                   7.6058(6)
_cell_length_b                   10.2154(7)
_cell_length_c                   12.2851(12)
_cell_angle_alpha                102.799(5)
_cell_angle_beta                 97.934(5)
_cell_angle_gamma                98.974(5)
_cell_volume                     904.518
loop_
_atom_site_label
_atom_site_type_symbol
_atom_site_fract_x
_atom_site_fract_y
_atom_site_fract_z
Zn1 Zn -0.5000 -0.5000 -0.5000
Zn2 Zn -0.56441(8) -0.84077(6) -0.57600(5)
Zn3 Zn -0.84992(8) -0.68160(6) -0.70965(5)
O1 O -0.2450(6) -0.4544(4) -0.2189(4)
O2 O -0.5671(5) -0.9834(4) -0.3874(3)
O3 O -0.8660(6) -0.8752(4) -0.7917(3)
O4 O -1.0318(6) -1.2507(4) -0.5600(4)
O5 O -0.6993(5) -0.6651(4) -0.5639(3)
N1 N -0.4050(6) -0.6291(4) -0.3672(4)
N2 N -0.4815(6) -0.7697(4) -0.4079(4)
N3 N -0.8101(6) -0.9640(4) -0.6401(4)
N4 N -0.8610(6) -1.0634(5) -0.5834(4)
H1 H -0.7999 -1.0537 -0.5168
N5 N -1.1053(6) -0.6758(5) -0.6855(4)
N6 N -1.3312(6) -0.6017(5) -0.6085(4)
N7 N -1.3744(6) -0.7436(4) -0.6453(4)
C1 C -0.2211(9) -0.7104(7) 0.0003(5)
H2 H -0.1613 -0.6776 0.0751
C2 C -0.3138(9) -0.8465(7) -0.0383(6)
H3 H -0.3167 -0.9031 0.0114
C3 C -0.4005(8) -0.8969(6) -0.1494(5)
H4 H -0.4607 -0.9876 -0.1748
C4 C -0.3978(8) -0.8109(6) -0.2246(5)
C5 C -0.3085(8) -0.6747(6) -0.1852(5)
C6 C -0.2183(9) -0.6251(6) -0.0723(5)
H5 H -0.1567 -0.5348 -0.0465
C7 C -0.3186(7) -0.5840(5) -0.2621(5)
C8 C -0.4849(7) -0.8575(5) -0.3423(5)
C9 C -1.2182(8) -1.3092(6) -0.7932(6)
H6 H -1.2514 -1.3742 -0.7538
C10 C -1.2961(9) -1.3286(7) -0.9048(6)
H7 H -1.3805 -1.4079 -0.9410
C11 C -1.2497(9) -1.2308(7) -0.9637(6)
H8 H -1.3020 -1.2452 -1.0395
C12 C -1.1259(8) -1.1123(7) -0.9100(5)
H9 H -1.0973 -1.0460 -0.9492
C13 C -1.0438(7) -1.0915(5) -0.7973(5)
C14 C -1.0891(8) -1.1913(6) -0.7392(5)
C15 C -0.9030(7) -0.9706(5) -0.7408(5)
C16 C -0.9958(8) -1.1730(6) -0.6219(5)
C17 C -1.1706(8) -0.5666(6) -0.6319(5)
H10 H -1.1075 -0.4767 -0.6139
C18 C -1.2374(8) -0.7830(6) -0.6909(5)
H11 H -1.2327 -0.8737 -0.7227
H12 H -0.760(14) -0.681(10) -0.514(9)
Zn2A Zn -1.43559(8) -0.15923(6) -0.42400(5)
Zn3A Zn -1.15008(8) -0.31840(6) -0.29035(5)
O1A O -1.7550(6) -0.5456(4) -0.7811(4)
O2A O -1.4329(5) -0.0166(4) -0.6126(3)
O3A O -1.1340(6) -0.1248(4) -0.2083(3)
O4A O -0.9682(6) 0.2507(4) -0.4400(4)
O5A O -1.3007(5) -0.3349(4) -0.4361(3)
N1A N -1.5950(6) -0.3709(4) -0.6328(4)
N2A N -1.5185(6) -0.2303(4) -0.5921(4)
N3A N -1.1899(6) -0.0360(4) -0.3599(4)
N4A N -1.1390(6) 0.0634(5) -0.4166(4)
H1A H -1.2001 0.0537 -0.4832
N5A N -0.8947(6) -0.3242(5) -0.3145(4)
N6A N -0.6688(6) -0.3983(5) -0.3915(4)
N7A N -0.6256(6) -0.2564(4) -0.3547(4)
C1A C -1.7789(9) -0.2896(7) -1.0003(5)
H2A H -1.8387 -0.3224 -1.0751
C2A C -1.6862(9) -0.1535(7) -0.9617(6)
H3A H -1.6833 -0.0969 -1.0114
C3A C -1.5995(8) -0.1031(6) -0.8506(5)
H4A H -1.5393 -0.0124 -0.8252
C4A C -1.6022(8) -0.1891(6) -0.7754(5)
C5A C -1.6915(8) -0.3253(6) -0.8148(5)
C6A C -1.7817(9) -0.3749(6) -0.9277(5)
H5A H -1.8433 -0.4652 -0.9535
C7A C -1.6814(7) -0.4160(5) -0.7379(5)
C8A C -1.5151(7) -0.1425(5) -0.6577(5)
C9A C -0.7818(8) 0.3092(6) -0.2068(6)
H6A H -0.7486 0.3742 -0.2462
C10A C -0.7039(9) 0.3286(7) -0.0952(6)
H7A H -0.6195 0.4079 -0.0590
C11A C -0.7503(9) 0.2308(7) -0.0363(6)
H8A H -0.6980 0.2452 0.0395
C12A C -0.8741(8) 0.1123(7) -0.0900(5)
H9A H -0.9027 0.0460 -0.0508
C13A C -0.9562(7) 0.0915(5) -0.2027(5)
C14A C -0.9109(8) 0.1913(6) -0.2608(5)
C15A C -1.0970(7) -0.0294(5) -0.2592(5)
C16A C -1.0042(8) 0.1730(6) -0.3781(5)
C17A C -0.8294(8) -0.4334(6) -0.3681(5)
H10A H -0.8925 -0.5233 -0.3861
C18A C -0.7626(8) -0.2170(6) -0.3091(5)
H11A H -0.7673 -0.1263 -0.2773
H12A H -1.240(14) -0.319(10) -0.486(9)
Zn1_2 Zn -1.5000 -0.5000 -0.5000
Zn2_2 Zn -1.56441(8) -0.84077(6) -0.57600(5)
Zn2_3 Zn -1.56441(8) 0.15923(6) -0.57600(5)
Zn2A_2 Zn -0.43559(8) -1.15923(6) -0.42400(5)
Zn2A_3 Zn -0.43559(8) -0.15923(6) -0.42400(5)
Zn3_2 Zn -1.84992(8) -0.68160(6) -0.70965(5)
Zn3A_2 Zn -0.15008(8) -0.31840(6) -0.29035(5)
O1_2 O -1.2450(6) -0.4544(4) -0.2189(4)
O1A_2 O -0.7550(6) -0.5456(4) -0.7811(4)
O2_2 O -1.5671(5) 0.0166(4) -0.3874(3)
O2A_2 O -0.4329(5) -1.0166(4) -0.6126(3)
O5A_2 O -0.3007(5) -0.3349(4) -0.4361(3)
N1A_2 N -0.5950(6) -0.3709(4) -0.6328(4)
N6_2 N -0.3312(6) -0.6017(5) -0.6085(4)
N7_2 N -0.3744(6) -0.7436(4) -0.6453(4)
N7A_2 N -1.6256(6) -0.2564(4) -0.3547(4)
loop_
_geom_bond_atom_site_label_1
_geom_bond_atom_site_label_2
_geom_bond_site_symmetry_1
_geom_bond_site_symmetry_2
Zn1 O5 1_555 1_555
Zn2 O5 1_555 1_555
Zn3 O3 1_555 1_555
O1 C7 1_555 1_555
O2 C8 1_555 1_555
O3 C15 1_555 1_555
O4 C16 1_555 1_555
O5 Zn3 1_555 1_555
N1 Zn1 1_555 1_555
N2 Zn2 1_555 1_555
N3 Zn2 1_555 1_555
N4 N3 1_555 1_555
H1 N4 1_555 1_555
N5 Zn3 1_555 1_555
N6 N7 1_555 1_555
N7 C18 1_555 1_555
C1 H2 1_555 1_555
C2 C1 1_555 1_555
H3 C2 1_555 1_555
C3 C2 1_555 1_555
H4 C3 1_555 1_555
C4 C3 1_555 1_555
C5 C4 1_555 1_555
C6 C1 1_555 1_555
H5 C6 1_555 1_555
C7 N1 1_555 1_555
C8 N2 1_555 1_555
C9 H6 1_555 1_555
C10 C9 1_555 1_555
H7 C10 1_555 1_555
C11 C10 1_555 1_555
H8 C11 1_555 1_555
C12 C11 1_555 1_555
H9 C12 1_555 1_555
C13 C12 1_555 1_555
C14 C9 1_555 1_555
C15 N3 1_555 1_555
C16 N4 1_555 1_555
C17 N5 1_555 1_555
H10 C17 1_555 1_555
C18 N5 1_555 1_555
H11 C18 1_555 1_555
H12 O5 1_555 1_555
Zn2A O5A 1_555 1_555
Zn3A O3A 1_555 1_555
O1A C7A 1_555 1_555
O2A C8A 1_555 1_555
O3A C15A 1_555 1_555
O4A C16A 1_555 1_555
O5A Zn3A 1_555 1_555
N1A N2A 1_555 1_555
N2A Zn2A 1_555 1_555
N3A Zn2A 1_555 1_555
N4A N3A 1_555 1_555
H1A N4A 1_555 1_555
N5A Zn3A 1_555 1_555
N6A Zn1 1_555 1_555
N7A N6A 1_555 1_555
C1A H2A 1_555 1_555
C2A C1A 1_555 1_555
H3A C2A 1_555 1_555
C3A C2A 1_555 1_555
H4A C3A 1_555 1_555
C4A C3A 1_555 1_555
C5A C4A 1_555 1_555
C6A C1A 1_555 1_555
H5A C6A 1_555 1_555
C7A N1A 1_555 1_555
C8A N2A 1_555 1_555
C9A H6A 1_555 1_555
C10A C9A 1_555 1_555
H7A C10A 1_555 1_555
C11A C10A 1_555 1_555
H8A C11A 1_555 1_555
C12A C11A 1_555 1_555
H9A C12A 1_555 1_555
C13A C12A 1_555 1_555
C14A C9A 1_555 1_555
C15A N3A 1_555 1_555
C16A N4A 1_555 1_555
C17A N5A 1_555 1_555
H10A C17A 1_555 1_555
C18A N5A 1_555 1_555
H11A C18A 1_555 1_555
H12A O5A 1_555 1_555
Zn1_2 N6 1_555 1_555
Zn2_2 N7 1_555 1_555
Zn2_3 O2A 1_555 1_555
Zn2A_2 O2 1_555 1_555
Zn2A_3 N7A 1_555 1_555
Zn3_2 O1A 1_555 1_555
Zn3A_2 O1 1_555 1_555
O1_2 Zn3A 1_555 1_555
O1A_2 Zn3 1_555 1_555
O2_2 Zn2A 1_555 1_555
O2A_2 Zn2 1_555 1_555
O5A_2 Zn1 1_555 1_555
N1A_2 Zn1 1_555 1_555
N6_2 Zn1 1_555 1_555
N7_2 Zn2 1_555 1_555
N7A_2 Zn2A 1_555 1_555
N1 N2 1_555 1_555
N6 C17 1_555 1_555
C4 C8 1_555 1_555
C5 C6 1_555 1_555
C5 C7 1_555 1_555
C13 C14 1_555 1_555
C13 C15 1_555 1_555
C14 C16 1_555 1_555
O5A Zn1_2 1_555 1_555
N1A Zn1_2 1_555 1_555
N6A C17A 1_555 1_555
N7A C18A 1_555 1_555
C4A C8A 1_555 1_555
C5A C6A 1_555 1_555
C5A C7A 1_555 1_555
C13A C14A 1_555 1_555
C13A C15A 1_555 1_555
C14A C16A 1_555 1_555
Zn2A_3 O5A_2 1_555 1_555
Zn3A_2 O5A_2 1_555 1_555
N6_2 N7_2 1_555 1_555

#END
