
#######################################################################
#
#                 Cambridge Crystallographic Data Centre
#                                CCDC 
#
#######################################################################
#
# If this CIF has been generated from an entry in the Cambridge 
# Structural Database, then it will include bibliographic, chemical, 
# crystal, experimental, refinement or atomic coordinate data resulting 
# from the CCDC's data processing and validation procedures.
#
#######################################################################

data_TIXJIU
_symmetry_cell_setting           triclinic
_symmetry_space_group_name_H-M   'P -1'
_symmetry_Int_Tables_number      2
_space_group_name_Hall           '-P 1'
loop_
_symmetry_equiv_pos_site_id
_symmetry_equiv_pos_as_xyz
1 x,y,z
2 -x,-y,-z
_cell_length_a                   8.3679(4)
_cell_length_b                   10.2922(3)
_cell_length_c                   13.4054(5)
_cell_angle_alpha                107.746(2)
_cell_angle_beta                 90.931(2)
_cell_angle_gamma                93.475(3)
_cell_volume                     1096.84
loop_
_atom_site_label
_atom_site_type_symbol
_atom_site_fract_x
_atom_site_fract_y
_atom_site_fract_z
Sr1 Sr 0.23879(3) 0.37848(2) 0.47378(2)
P1 P 0.57169(9) 0.36555(7) 0.36888(6)
P2 P -0.09488(9) 0.37531(7) 0.57837(6)
O1 O 0.1293(3) 0.2069(2) 0.30682(16)
O2 O 0.3045(3) 0.1903(2) 0.54996(19)
C1 C 0.5299(3) 0.3370(3) 0.2300(2)
C2 C 0.5840(4) 0.2279(3) 0.1498(2)
H1 H 0.6461 0.1632 0.1674
C3 C 0.5487(4) 0.2125(4) 0.0454(3)
H2 H 0.5868 0.1373 -0.0073
C4 C 0.4592(5) 0.3046(4) 0.0165(3)
H3 H 0.4370 0.2943 -0.0554
C5 C 0.4023(4) 0.4124(3) 0.0946(3)
H4 H 0.3395 0.4761 0.0762
C6 C 0.4365(4) 0.4279(3) 0.1990(2)
H5 H 0.3958 0.5020 0.2512
C7 C -0.0448(3) 0.3634(3) 0.7080(2)
C8 C -0.1414(4) 0.2927(3) 0.7609(2)
H6 H -0.2393 0.2466 0.7282
C9 C -0.0983(4) 0.2883(3) 0.8591(3)
H7 H -0.1671 0.2398 0.8931
C10 C 0.0436(5) 0.3533(3) 0.9091(3)
H8 H 0.0736 0.3485 0.9765
C11 C 0.1408(4) 0.4252(3) 0.8593(3)
H9 H 0.2384 0.4711 0.8927
C12 C 0.0970(4) 0.4307(3) 0.7610(2)
H10 H 0.1650 0.4817 0.7283
C13 C 0.2057(4) 0.0892(3) 0.2436(3)
H11 H 0.1658 0.0057 0.2599
H12 H 0.3233 0.1018 0.2563
C14 C 0.1623(5) 0.0786(4) 0.1319(3)
H13 H 0.2431 0.1303 0.1031
H14 H 0.1531 -0.0180 0.0871
C15 C 0.0060(5) 0.1394(5) 0.1396(3)
H15 H -0.0825 0.0706 0.1386
H16 H -0.0123 0.1773 0.0811
C16 C 0.0182(4) 0.2497(4) 0.2418(3)
H17 H 0.0581 0.3376 0.2323
H18 H -0.0878 0.2615 0.2739
C17 C 0.1903(4) 0.0795(3) 0.5486(4)
H19 H 0.2067 -0.0020 0.4883
H20 H 0.0795 0.1062 0.5437
C18 C 0.2201(5) 0.0504(4) 0.6493(4)
H21 H 0.1898 -0.0464 0.6428
H22 H 0.1602 0.1102 0.7066
C19 C 0.3990(6) 0.0822(5) 0.6679(4)
H23 H 0.4294 0.1065 0.7433
H24 H 0.4588 0.0037 0.6284
C20 C 0.4288(5) 0.2010(4) 0.6278(4)
H25 H 0.4252 0.2878 0.6855
H26 H 0.5353 0.1985 0.5965
H27 H 0.643(5) 0.252(4) 0.363(3)
H28 H -0.207(5) 0.273(4) 0.552(3)
Sr1A Sr 0.76121(3) 0.62152(2) 0.52622(2)
Sr1A_2 Sr -0.23879(3) 0.62152(2) 0.52622(2)
P1A P 0.42831(9) 0.63445(7) 0.63112(6)
P2A P 0.09488(9) 0.62469(7) 0.42163(6)
H27A H 0.357(5) 0.748(4) 0.637(3)
H28A H 0.207(5) 0.727(4) 0.448(3)
loop_
_geom_bond_atom_site_label_1
_geom_bond_atom_site_label_2
_geom_bond_site_symmetry_1
_geom_bond_site_symmetry_2
Sr1 P1 1_555 1_555
P1 C1 1_555 1_555
P2 Sr1 1_555 1_555
O1 Sr1 1_555 1_555
O2 Sr1 1_555 1_555
C1 C2 1_555 1_555
C2 H1 1_555 1_555
C3 C2 1_555 1_555
H2 C3 1_555 1_555
C4 C3 1_555 1_555
H3 C4 1_555 1_555
C5 C4 1_555 1_555
H4 C5 1_555 1_555
C6 C1 1_555 1_555
H5 C6 1_555 1_555
C7 P2 1_555 1_555
C8 C7 1_555 1_555
H6 C8 1_555 1_555
C9 C8 1_555 1_555
H7 C9 1_555 1_555
C10 C9 1_555 1_555
H8 C10 1_555 1_555
C11 C10 1_555 1_555
H9 C11 1_555 1_555
C12 C7 1_555 1_555
H10 C12 1_555 1_555
C13 O1 1_555 1_555
H11 C13 1_555 1_555
H12 C13 1_555 1_555
C14 C13 1_555 1_555
H13 C14 1_555 1_555
H14 C14 1_555 1_555
C15 C14 1_555 1_555
H15 C15 1_555 1_555
H16 C15 1_555 1_555
C16 O1 1_555 1_555
H17 C16 1_555 1_555
H18 C16 1_555 1_555
C17 O2 1_555 1_555
H19 C17 1_555 1_555
H20 C17 1_555 1_555
C18 C17 1_555 1_555
H21 C18 1_555 1_555
H22 C18 1_555 1_555
C19 C18 1_555 1_555
H23 C19 1_555 1_555
H24 C19 1_555 1_555
C20 O2 1_555 1_555
H25 C20 1_555 1_555
H26 C20 1_555 1_555
H27 P1 1_555 1_555
H28 P2 1_555 1_555
Sr1A P1 1_555 1_555
Sr1A_2 P2 1_555 1_555
P1A Sr1 1_555 1_555
P2A Sr1 1_555 1_555
H27A P1A 1_555 1_555
H28A P2A 1_555 1_555
C5 C6 1_555 1_555
C11 C12 1_555 1_555
C15 C16 1_555 1_555
C19 C20 1_555 1_555
Sr1A P1A 1_555 1_555
Sr1A_2 P2A 1_555 1_555

#END
