
#######################################################################
#
#                 Cambridge Crystallographic Data Centre
#                                CCDC 
#
#######################################################################
#
# If this CIF has been generated from an entry in the Cambridge 
# Structural Database, then it will include bibliographic, chemical, 
# crystal, experimental, refinement or atomic coordinate data resulting 
# from the CCDC's data processing and validation procedures.
#
#######################################################################

data_TIXLOD
_symmetry_cell_setting           triclinic
_symmetry_space_group_name_H-M   'P -1'
_symmetry_Int_Tables_number      2
_space_group_name_Hall           '-P 1'
loop_
_symmetry_equiv_pos_site_id
_symmetry_equiv_pos_as_xyz
1 x,y,z
2 -x,-y,-z
_cell_length_a                   8.8712(6)
_cell_length_b                   14.3134(9)
_cell_length_c                   18.1743(11)
_cell_angle_alpha                77.7130(10)
_cell_angle_beta                 88.5260(10)
_cell_angle_gamma                83.2400(10)
_cell_volume                     2239.18
loop_
_atom_site_label
_atom_site_type_symbol
_atom_site_fract_x
_atom_site_fract_y
_atom_site_fract_z
Co1 Co 0.88387(3) 0.36440(2) -0.115429(15)
S1 S 0.84240(6) 0.18755(4) -0.27918(3)
N1 N 0.7218(2) 0.32198(14) -0.03058(10)
O1 O 1.06685(18) 0.31312(12) -0.03802(8)
H1 H 1.1576 0.2862 -0.0373
H2 H 1.0451 0.3214 0.0061
O2 O 0.91506(19) 0.23264(11) -0.14792(8)
C1 C 0.3655(3) 0.0276(2) 1.03246(14)
H3 H 0.2740 0.0466 1.0541
Co2 Co 0.08993(3) 0.20974(2) 0.634323(15)
S2 S 1.12469(6) 0.42595(4) -0.19750(3)
N2 N 0.7141(2) 0.41014(13) -0.19873(10)
O3 O 0.88090(19) 0.50000(12) -0.09614(9)
C2 C 0.3881(3) 0.0584(2) 0.95610(14)
H4 H 0.3116 0.0980 0.9267
O4 O 0.97844(19) 0.35838(12) -0.40300(9)
N3 N 0.2332(2) 0.11692(13) 0.71327(10)
C3 C 0.5232(2) 0.03095(17) 0.92317(12)
O5 O 1.0425(2) 0.13625(12) -0.05148(9)
N4 N 0.2606(2) 0.21132(13) 0.55213(10)
C4 C 0.5539(3) 0.0675(2) 0.84048(13)
H5 H 0.5801 0.1327 0.8333
H6 H 0.6411 0.0281 0.8257
N5 N 0.5563(2) 0.32918(14) 0.06131(10)
O6 O 0.9895(3) 0.63212(13) -0.09390(10)
C5 C 0.3923(3) -0.01060(18) 0.76535(14)
H7 H 0.4410 -0.0730 0.7783
O7 O 0.97957(18) 0.13118(13) -0.41940(9)
N6 N 0.5690(2) 0.48720(14) -0.29422(10)
C6 C 0.2738(3) 0.02042(17) 0.71776(13)
H8 H 0.2269 -0.0178 0.6920
N7 N 0.4182(2) 0.15771(13) 0.47103(9)
C7 C 0.3280(3) 0.14232(17) 0.75826(12)
H9 H 0.3268 0.2044 0.7665
O8 O 0.7865(2) 0.06139(16) -0.44789(11)
O9 O 1.1588(2) 0.32619(12) -0.31871(9)
N8 N 0.4265(2) 0.06718(14) 0.79065(10)
C8 C 0.3839(3) 0.26105(18) 0.54425(12)
H10 H 0.3983 0.3096 0.5693
N9 N 1.0666(2) 0.60609(14) -0.27531(11)
C9 C 0.4824(3) 0.22886(18) 0.49429(13)
H11 H 0.5752 0.2508 0.4789
N10 N 0.9032(2) -0.00272(15) -0.25245(11)
C10 C 0.2849(2) 0.14991(16) 0.50686(12)
H12 H 0.2180 0.1068 0.5007
C11 C 0.4805(3) 0.10690(16) 0.41274(12)
H13 H 0.4219 0.0542 0.4112
H14 H 0.5844 0.0800 0.4253
C12 C 0.4764(2) 0.17428(15) 0.33592(12)
C13 C 0.6073(3) 0.21081(16) 0.30427(12)
H15 H 0.6985 0.1943 0.3305
C14 C 0.6022(3) 0.27192(17) 0.23364(13)
H16 H 0.6908 0.2951 0.2126
C15 C 0.3417(3) 0.20113(18) 0.29625(13)
H17 H 0.2533 0.1774 0.3170
C16 C 0.3364(3) 0.26284(19) 0.22605(13)
H18 H 0.2448 0.2802 0.2002
C17 C 0.4674(3) 0.29884(16) 0.19412(12)
C18 C 0.4596(3) 0.36784(19) 0.11763(13)
H19 H 0.3553 0.3801 0.1001
H20 H 0.4917 0.4286 0.1228
C19 C 0.5606(4) 0.2399(2) 0.04550(16)
H21 H 0.5042 0.1910 0.0688
C20 C 0.6630(3) 0.2362(2) -0.01054(15)
H22 H 0.6893 0.1832 -0.0322
C21 C 0.6554(3) 0.37559(17) 0.01412(12)
H23 H 0.6748 0.4383 0.0132
C22 C 0.9789(2) 0.15201(16) -0.11384(11)
C23 C 0.9747(2) 0.06754(15) -0.15084(11)
C24 C 1.0321(3) -0.02349(17) -0.11228(13)
H24 H 1.0768 -0.0308 -0.0654
C25 C 1.0240(3) -0.10342(18) -0.14243(15)
H25 H 1.0616 -0.1646 -0.1164
C26 C 0.9586(3) -0.08957(19) -0.21192(16)
H26 H 0.9522 -0.1433 -0.2323
C27 C 0.9123(2) 0.07341(16) -0.22246(12)
C28 C 0.5954(3) 0.35913(19) -0.20528(14)
H27 H 0.5791 0.3008 -0.1738
C29 C 0.5054(3) 0.40539(19) -0.26383(14)
H28 H 0.4182 0.3855 -0.2800
C30 C 0.6935(3) 0.48707(17) -0.25343(12)
H29 H 0.7572 0.5355 -0.2628
C31 C 0.5085(3) 0.56201(18) -0.35797(13)
H30 H 0.5705 0.6147 -0.3655
H31 H 0.4065 0.5868 -0.3458
C32 C 0.5039(3) 0.52686(16) -0.43043(12)
C33 C 0.6257(3) 0.47029(16) -0.45377(13)
H32 H 0.7104 0.4496 -0.4229
C34 C 0.6219(3) 0.44438(16) -0.52300(13)
H33 H 0.7049 0.4072 -0.5384
C35 C 0.7459(3) 0.1504(2) -0.35226(13)
H34 H 0.6824 0.1017 -0.3285
H35 H 0.6791 0.2053 -0.3785
C36 C 0.8446(3) 0.11044(18) -0.41047(13)
C37 C 0.9916(3) 0.54999(17) -0.10601(12)
C38 C 1.1416(3) 0.50419(18) -0.13288(13)
H36 H 1.1983 0.4675 -0.0891
H37 H 1.2005 0.5552 -0.1571
C39 C 1.0739(2) 0.51429(15) -0.28113(12)
C40 C 1.0259(3) 0.67459(18) -0.33612(14)
H38 H 1.0244 0.7386 -0.3326
C41 C 0.9860(3) 0.65540(18) -0.40353(14)
H39 H 0.9565 0.7050 -0.4444
C42 C 0.9911(3) 0.56016(17) -0.40869(13)
H40 H 0.9617 0.5451 -0.4531
C43 C 1.0396(2) 0.48690(16) -0.34833(11)
C44 C 1.0588(3) 0.38450(16) -0.35706(12)
C1A C 0.6345(3) -0.0276(2) 0.96754(14)
H3A H 0.7260 -0.0466 0.9459
C2A C 0.6119(3) -0.0584(2) 1.04390(14)
H4A H 0.6884 -0.0980 1.0733
N3A N 0.7668(2) -0.11692(13) 1.28673(10)
C3A C 0.4768(2) -0.03095(17) 1.07683(12)
C4A C 0.4461(3) -0.0675(2) 1.15952(13)
H5A H 0.4199 -0.1327 1.1667
H6A H 0.3589 -0.0281 1.1743
C5A C 0.6077(3) 0.01060(18) 1.23465(14)
H7A H 0.5590 0.0730 1.2217
C6A C 0.7262(3) -0.02042(17) 1.28224(13)
H8A H 0.7731 0.0178 1.3080
C7A C 0.6720(3) -0.14232(17) 1.24174(12)
H9A H 0.6732 -0.2044 1.2335
N8A N 0.5735(2) -0.06718(14) 1.20935(10)
N2A N 0.2859(2) 0.58986(13) -0.80127(10)
N6A N 0.4310(2) 0.51280(14) -0.70578(10)
C28A C 0.4046(3) 0.64087(19) -0.79472(14)
H27A H 0.4209 0.6992 -0.8262
C29A C 0.4946(3) 0.59461(19) -0.73617(14)
H28A H 0.5818 0.6145 -0.7200
C30A C 0.3065(3) 0.51293(17) -0.74657(12)
H29A H 0.2428 0.4645 -0.7372
C31A C 0.4915(3) 0.43799(18) -0.64203(13)
H30A H 0.4295 0.3853 -0.6345
H31A H 0.5935 0.4132 -0.6542
C32A C 0.4961(3) 0.47314(16) -0.56957(12)
C33A C 0.3743(3) 0.52971(16) -0.54623(13)
H32A H 0.2896 0.5504 -0.5771
C34A C 0.3781(3) 0.55562(16) -0.47700(13)
H33A H 0.2951 0.5928 -0.4616
Co1A Co 0.11613(3) -0.36440(2) 2.115429(15)
S1A S 0.15760(6) -0.18755(4) 2.27918(3)
N1A N 0.2782(2) -0.32198(14) 2.03058(10)
O1A O -0.06685(18) -0.31312(12) 2.03802(8)
H1A H -0.1576 -0.2862 2.0373
H2A H -0.0451 -0.3214 1.9939
O2A O 0.08494(19) -0.23264(11) 2.14792(8)
Co2A Co 0.91007(3) -0.20974(2) 1.365677(15)
S2A S -0.12469(6) -0.42595(4) 2.19750(3)
O3A O 0.11910(19) -0.50000(12) 2.09614(9)
O4A O 0.02156(19) -0.35838(12) 2.40300(9)
O5A O -0.0425(2) -0.13625(12) 2.05148(9)
N4A N 0.7394(2) -0.21132(13) 1.44787(10)
N5A N 0.4437(2) -0.32918(14) 1.93869(10)
O6A O 0.0105(3) -0.63212(13) 2.09390(10)
O7A O 0.02043(18) -0.13118(13) 2.41940(9)
N7A N 0.5818(2) -0.15771(13) 1.52897(9)
O8A O 0.2135(2) -0.06139(16) 2.44789(11)
O9A O -0.1588(2) -0.32619(12) 2.31871(9)
C8A C 0.6161(3) -0.26105(18) 1.45575(12)
H10A H 0.6017 -0.3096 1.4307
N9A N -0.0666(2) -0.60609(14) 2.27531(11)
C9A C 0.5176(3) -0.22886(18) 1.50571(13)
H11A H 0.4248 -0.2508 1.5211
N10A N 0.0968(2) 0.00272(15) 2.25245(11)
C10A C 0.7151(2) -0.14991(16) 1.49314(12)
H12A H 0.7820 -0.1068 1.4993
C11A C 0.5195(3) -0.10690(16) 1.58726(12)
H13A H 0.5781 -0.0542 1.5888
H14A H 0.4156 -0.0800 1.5747
C12A C 0.5236(2) -0.17428(15) 1.66408(12)
C13A C 0.3927(3) -0.21081(16) 1.69573(12)
H15A H 0.3015 -0.1943 1.6695
C14A C 0.3978(3) -0.27192(17) 1.76636(13)
H16A H 0.3092 -0.2951 1.7874
C15A C 0.6583(3) -0.20113(18) 1.70375(13)
H17A H 0.7467 -0.1774 1.6830
C16A C 0.6636(3) -0.26284(19) 1.77395(13)
H18A H 0.7552 -0.2802 1.7998
C17A C 0.5326(3) -0.29884(16) 1.80588(12)
C18A C 0.5404(3) -0.36784(19) 1.88237(13)
H19A H 0.6447 -0.3801 1.8999
H20A H 0.5083 -0.4286 1.8772
C19A C 0.4394(4) -0.2399(2) 1.95450(16)
H21A H 0.4958 -0.1910 1.9312
C20A C 0.3370(3) -0.2362(2) 2.01054(15)
H22A H 0.3107 -0.1832 2.0322
C21A C 0.3446(3) -0.37559(17) 1.98588(12)
H23A H 0.3252 -0.4383 1.9868
C22A C 0.0211(2) -0.15201(16) 2.11384(11)
C23A C 0.0253(2) -0.06754(15) 2.15084(11)
C24A C -0.0321(3) 0.02349(17) 2.11228(13)
H24A H -0.0768 0.0308 2.0654
C25A C -0.0240(3) 0.10342(18) 2.14243(15)
H25A H -0.0616 0.1646 2.1164
C26A C 0.0414(3) 0.08957(19) 2.21192(16)
H26A H 0.0478 0.1433 2.2323
C27A C 0.0877(2) -0.07341(16) 2.22246(12)
C35A C 0.2541(3) -0.1504(2) 2.35226(13)
H34A H 0.3176 -0.1017 2.3285
H35A H 0.3209 -0.2053 2.3785
C36A C 0.1554(3) -0.11044(18) 2.41047(13)
C37A C 0.0084(3) -0.54999(17) 2.10601(12)
C38A C -0.1416(3) -0.50419(18) 2.13288(13)
H36A H -0.1983 -0.4675 2.0891
H37A H -0.2005 -0.5552 2.1571
C39A C -0.0739(2) -0.51429(15) 2.28113(12)
C40A C -0.0259(3) -0.67459(18) 2.33612(14)
H38A H -0.0244 -0.7386 2.3326
C41A C 0.0140(3) -0.65540(18) 2.40353(14)
H39A H 0.0435 -0.7050 2.4444
C42A C 0.0089(3) -0.56016(17) 2.40869(13)
H40A H 0.0383 -0.5451 2.4531
C43A C -0.0396(2) -0.48690(16) 2.34833(11)
C44A C -0.0588(3) -0.38450(16) 2.35706(12)
Co1A_2 Co 0.11613(3) 0.63560(2) -0.884571(15)
S1_2 S -0.15760(6) 0.18755(4) 0.72082(3)
S1A_2 S 1.15760(6) -0.18755(4) 1.27918(3)
Co2_2 Co 1.08993(3) 0.20974(2) -0.365677(15)
Co2A_2 Co -0.08993(3) -0.20974(2) 2.365677(15)
N2A_2 N 0.2859(2) -0.41014(13) 2.19873(10)
O4_2 O -0.02156(19) 0.35838(12) 0.59700(9)
O4A_2 O 1.02156(19) -0.35838(12) 1.40300(9)
O7_2 O -0.02043(18) 0.13118(13) 0.58060(9)
O7A_2 O 1.02043(18) -0.13118(13) 1.41940(9)
O9_2 O 0.1588(2) 0.32619(12) 0.68129(9)
O9A_2 O 0.8412(2) -0.32619(12) 1.31871(9)
O10 O 0.9280(3) 0.09580(15) -0.59514(11)
H41 H 0.8983 0.1022 -0.5508
H42 H 0.9550 0.0353 -0.5915
loop_
_geom_bond_atom_site_label_1
_geom_bond_atom_site_label_2
_geom_bond_site_symmetry_1
_geom_bond_site_symmetry_2
Co1 N1 1_555 1_555
S1 C27 1_555 1_555
N1 C20 1_555 1_555
O1 Co1 1_555 1_555
H1 O1 1_555 1_555
H2 O1 1_555 1_555
O2 Co1 1_555 1_555
C1 H3 1_555 1_555
Co2 N3 1_555 1_555
S2 Co1 1_555 1_555
N2 Co1 1_555 1_555
O3 Co1 1_555 1_555
C2 C1 1_555 1_555
H4 C2 1_555 1_555
O4 C44 1_555 1_555
N3 C6 1_555 1_555
C3 C2 1_555 1_555
O5 C22 1_555 1_555
N4 Co2 1_555 1_555
C4 C3 1_555 1_555
H5 C4 1_555 1_555
H6 C4 1_555 1_555
N5 C18 1_555 1_555
O6 C37 1_555 1_555
C5 H7 1_555 1_555
O7 C36 1_555 1_555
N6 C29 1_555 1_555
C6 C5 1_555 1_555
H8 C6 1_555 1_555
N7 C9 1_555 1_555
C7 N3 1_555 1_555
H9 C7 1_555 1_555
O8 C36 1_555 1_555
O9 C44 1_555 1_555
N8 C4 1_555 1_555
C8 N4 1_555 1_555
H10 C8 1_555 1_555
N9 C39 1_555 1_555
C9 C8 1_555 1_555
H11 C9 1_555 1_555
N10 C26 1_555 1_555
C10 N4 1_555 1_555
H12 C10 1_555 1_555
C11 N7 1_555 1_555
H13 C11 1_555 1_555
H14 C11 1_555 1_555
C12 C11 1_555 1_555
C13 C12 1_555 1_555
H15 C13 1_555 1_555
C14 C13 1_555 1_555
H16 C14 1_555 1_555
C15 C12 1_555 1_555
H17 C15 1_555 1_555
C16 C15 1_555 1_555
H18 C16 1_555 1_555
C17 C14 1_555 1_555
C18 C17 1_555 1_555
H19 C18 1_555 1_555
H20 C18 1_555 1_555
C19 N5 1_555 1_555
H21 C19 1_555 1_555
C20 C19 1_555 1_555
H22 C20 1_555 1_555
C21 N1 1_555 1_555
H23 C21 1_555 1_555
C22 O2 1_555 1_555
C23 C22 1_555 1_555
C24 C23 1_555 1_555
H24 C24 1_555 1_555
C25 C24 1_555 1_555
H25 C25 1_555 1_555
C26 C25 1_555 1_555
H26 C26 1_555 1_555
C27 N10 1_555 1_555
C28 N2 1_555 1_555
H27 C28 1_555 1_555
C29 C28 1_555 1_555
H28 C29 1_555 1_555
C30 N2 1_555 1_555
H29 C30 1_555 1_555
C31 N6 1_555 1_555
H30 C31 1_555 1_555
H31 C31 1_555 1_555
C32 C31 1_555 1_555
C33 C32 1_555 1_555
H32 C33 1_555 1_555
C34 C33 1_555 1_555
H33 C34 1_555 1_555
C35 S1 1_555 1_555
H34 C35 1_555 1_555
H35 C35 1_555 1_555
C36 C35 1_555 1_555
C37 O3 1_555 1_555
C38 S2 1_555 1_555
H36 C38 1_555 1_555
H37 C38 1_555 1_555
C39 S2 1_555 1_555
C40 N9 1_555 1_555
H38 C40 1_555 1_555
C41 C40 1_555 1_555
H39 C41 1_555 1_555
C42 C41 1_555 1_555
H40 C42 1_555 1_555
C43 C39 1_555 1_555
C44 C43 1_555 1_555
O10 H41 1_555 1_555
H42 O10 1_555 1_555
C1A C3 1_555 1_555
H3A C1A 1_555 1_555
C2A C1A 1_555 1_555
H4A C2A 1_555 1_555
N3A C6A 1_555 1_555
C3A C1 1_555 1_555
C4A C3A 1_555 1_555
H5A C4A 1_555 1_555
H6A C4A 1_555 1_555
C5A H7A 1_555 1_555
C6A C5A 1_555 1_555
H8A C6A 1_555 1_555
C7A N3A 1_555 1_555
H9A C7A 1_555 1_555
N8A C4A 1_555 1_555
N2A C28A 1_555 1_555
N6A C29A 1_555 1_555
C28A H27A 1_555 1_555
C29A C28A 1_555 1_555
H28A C29A 1_555 1_555
C30A N2A 1_555 1_555
H29A C30A 1_555 1_555
C31A N6A 1_555 1_555
H30A C31A 1_555 1_555
H31A C31A 1_555 1_555
C32A C34 1_555 1_555
C33A C32A 1_555 1_555
H32A C33A 1_555 1_555
C34A C32 1_555 1_555
H33A C34A 1_555 1_555
Co1A N1A 1_555 1_555
S1A C27A 1_555 1_555
N1A C20A 1_555 1_555
O1A Co1A 1_555 1_555
H1A O1A 1_555 1_555
H2A O1A 1_555 1_555
O2A Co1A 1_555 1_555
Co2A N3A 1_555 1_555
S2A Co1A 1_555 1_555
O3A Co1A 1_555 1_555
O4A C44A 1_555 1_555
O5A C22A 1_555 1_555
N4A Co2A 1_555 1_555
N5A C18A 1_555 1_555
O6A C37A 1_555 1_555
O7A C36A 1_555 1_555
N7A C9A 1_555 1_555
O8A C36A 1_555 1_555
O9A C44A 1_555 1_555
C8A N4A 1_555 1_555
H10A C8A 1_555 1_555
N9A C39A 1_555 1_555
C9A C8A 1_555 1_555
H11A C9A 1_555 1_555
N10A C26A 1_555 1_555
C10A N4A 1_555 1_555
H12A C10A 1_555 1_555
C11A N7A 1_555 1_555
H13A C11A 1_555 1_555
H14A C11A 1_555 1_555
C12A C11A 1_555 1_555
C13A C12A 1_555 1_555
H15A C13A 1_555 1_555
C14A C13A 1_555 1_555
H16A C14A 1_555 1_555
C15A C12A 1_555 1_555
H17A C15A 1_555 1_555
C16A C15A 1_555 1_555
H18A C16A 1_555 1_555
C17A C14A 1_555 1_555
C18A C17A 1_555 1_555
H19A C18A 1_555 1_555
H20A C18A 1_555 1_555
C19A N5A 1_555 1_555
H21A C19A 1_555 1_555
C20A C19A 1_555 1_555
H22A C20A 1_555 1_555
C21A N1A 1_555 1_555
H23A C21A 1_555 1_555
C22A O2A 1_555 1_555
C23A C22A 1_555 1_555
C24A C23A 1_555 1_555
H24A C24A 1_555 1_555
C25A C24A 1_555 1_555
H25A C25A 1_555 1_555
C26A C25A 1_555 1_555
H26A C26A 1_555 1_555
C27A N10A 1_555 1_555
C35A S1A 1_555 1_555
H34A C35A 1_555 1_555
H35A C35A 1_555 1_555
C36A C35A 1_555 1_555
C37A O3A 1_555 1_555
C38A S2A 1_555 1_555
H36A C38A 1_555 1_555
H37A C38A 1_555 1_555
C39A S2A 1_555 1_555
C40A N9A 1_555 1_555
H38A C40A 1_555 1_555
C41A C40A 1_555 1_555
H39A C41A 1_555 1_555
C42A C41A 1_555 1_555
H40A C42A 1_555 1_555
C43A C39A 1_555 1_555
C44A C43A 1_555 1_555
Co1A_2 N2A 1_555 1_555
S1_2 Co2 1_555 1_555
S1A_2 Co2A 1_555 1_555
Co2_2 S1 1_555 1_555
Co2A_2 S1A 1_555 1_555
N2A_2 Co1A 1_555 1_555
O4_2 Co2 1_555 1_555
O4A_2 Co2A 1_555 1_555
O7_2 Co2 1_555 1_555
O7A_2 Co2A 1_555 1_555
O9_2 Co2 1_555 1_555
O9A_2 Co2A 1_555 1_555
O4 Co2_2 1_555 1_555
N5 C21 1_555 1_555
C5 N8 1_555 1_555
O7 Co2_2 1_555 1_555
N6 C30 1_555 1_555
N7 C10 1_555 1_555
C7 N8 1_555 1_555
O9 Co2_2 1_555 1_555
C16 C17 1_555 1_555
C23 C27 1_555 1_555
C37 C38 1_555 1_555
C42 C43 1_555 1_555
C2A C3A 1_555 1_555
C5A N8A 1_555 1_555
C7A N8A 1_555 1_555
N6A C30A 1_555 1_555
C31A C32A 1_555 1_555
C33A C34A 1_555 1_555
O4A Co2A_2 1_555 1_555
N5A C21A 1_555 1_555
O7A Co2A_2 1_555 1_555
N7A C10A 1_555 1_555
O9A Co2A_2 1_555 1_555
C16A C17A 1_555 1_555
C23A C27A 1_555 1_555
C37A C38A 1_555 1_555
C42A C43A 1_555 1_555

#END
