
#######################################################################
#
#                 Cambridge Crystallographic Data Centre
#                                CCDC 
#
#######################################################################
#
# If this CIF has been generated from an entry in the Cambridge 
# Structural Database, then it will include bibliographic, chemical, 
# crystal, experimental, refinement or atomic coordinate data resulting 
# from the CCDC's data processing and validation procedures.
#
#######################################################################

data_TIXMIY
_symmetry_cell_setting           monoclinic
_symmetry_space_group_name_H-M   'P 21/c'
_symmetry_Int_Tables_number      14
_space_group_name_Hall           '-P 2ybc'
loop_
_symmetry_equiv_pos_site_id
_symmetry_equiv_pos_as_xyz
1 x,y,z
2 -x,1/2+y,1/2-z
3 -x,-y,-z
4 x,1/2-y,1/2+z
_cell_length_a                   5.1675(4)
_cell_length_b                   26.7870(19)
_cell_length_c                   17.3981(12)
_cell_angle_alpha                90
_cell_angle_beta                 97.8090(10)
_cell_angle_gamma                90
_cell_volume                     2385.94
loop_
_atom_site_label
_atom_site_type_symbol
_atom_site_fract_x
_atom_site_fract_y
_atom_site_fract_z
Cd1 Cd 0.31229(4) 0.115457(8) 0.724955(12)
S1 S -0.25008(16) -0.01881(3) 0.55810(5)
O1 O 0.0546(4) 0.14440(8) 0.81274(12)
H1 H -0.0092 0.1692 0.8340
H2 H 0.0909 0.1221 0.8473
O2 O 0.0459(4) 0.05342(8) 0.67071(14)
N1 N 0.5347(5) 0.55440(9) 0.68535(16)
C1 C 0.4950(6) -0.27454(12) 0.68652(19)
S2 S 0.47573(18) -0.17991(3) 0.63185(6)
O3 O -0.3081(4) 0.09961(8) 0.67496(14)
N2 N 0.1739(5) 0.16946(10) 0.62827(15)
C2 C 0.3434(7) -0.22626(12) 0.6907(2)
H3 H 0.3578 -0.2149 0.7440
H4 H 0.1602 -0.2317 0.6719
S3 S 0.13772(18) -0.09977(3) 0.55031(5)
O4 O 0.4259(4) -0.31069(8) 0.72460(14)
N3 N 0.5260(5) 0.48135(9) 0.62700(16)
C3 C 0.2487(6) -0.13127(12) 0.63449(19)
N4 N -0.0306(5) 0.23264(9) 0.56708(15)
O5 O 0.6767(6) -0.27424(10) 0.64688(17)
C4 C -0.0437(5) -0.06396(11) 0.60482(18)
C5 C -0.3636(6) 0.01410(11) 0.63766(19)
H5 H -0.5427 0.0247 0.6222
H6 H -0.3617 -0.0084 0.6814
N5 N 0.1566(6) -0.11466(11) 0.69528(18)
C6 C -0.1966(5) 0.05957(11) 0.66276(17)
N6 N -0.0161(6) -0.07537(11) 0.67841(17)
C7 C -0.0169(6) 0.20230(12) 0.62845(19)
H7 H -0.1273 0.2041 0.6664
C8 C 0.2886(6) 0.17997(12) 0.56326(19)
H8 H 0.4296 0.1629 0.5479
C9 C 0.1653(6) 0.21886(12) 0.52519(19)
H9 H 0.2047 0.2335 0.4797
C10 C -0.1860(6) 0.27897(12) 0.5557(2)
H10 H -0.3125 0.2802 0.5920
H11 H -0.2796 0.2800 0.5034
C11 C -0.0023(6) 0.32276(11) 0.56869(18)
C12 C 0.0810(7) 0.34666(13) 0.50708(19)
H12 H 0.0051 0.3389 0.4569
C13 C 0.2780(8) 0.38239(12) 0.5185(2)
H13 H 0.3336 0.3980 0.4759
C14 C 0.3914(6) 0.39484(11) 0.5922(2)
C15 C 0.2993(7) 0.37233(13) 0.6549(2)
H14 H 0.3678 0.3815 0.7051
C16 C 0.1063(7) 0.33637(13) 0.64324(19)
H15 H 0.0483 0.3211 0.6858
C17 C 0.6540(6) 0.51155(12) 0.6803(2)
H16 H 0.8105 0.5031 0.7104
C18 C 0.3138(7) 0.55135(13) 0.6316(2)
H17 H 0.1881 0.5762 0.6216
C19 C 0.3086(7) 0.50670(14) 0.5960(2)
H18 H 0.1801 0.4953 0.5574
C20 C 0.6122(7) 0.43162(13) 0.6053(2)
H19 H 0.7431 0.4193 0.6461
H20 H 0.6928 0.4344 0.5583
Cd1_2 Cd -0.68771(4) 0.115457(8) 0.724955(12)
Cd1A Cd 0.68771(4) -0.384543(8) 0.775045(12)
Cd1A_2 Cd 0.68771(4) 0.615457(8) 0.775045(12)
N1A N 0.4653(5) 0.05440(9) 0.81465(16)
O3_2 O 0.6919(4) 0.09961(8) 0.67496(14)
O4A O 0.5741(4) 0.18931(8) 0.77540(14)
loop_
_geom_bond_atom_site_label_1
_geom_bond_atom_site_label_2
_geom_bond_site_symmetry_1
_geom_bond_site_symmetry_2
Cd1 O1 1_555 1_555
S1 C4 1_555 1_555
O1 H1 1_555 1_555
H2 O1 1_555 1_555
O2 Cd1 1_555 1_555
N1 C17 1_555 1_555
C1 C2 1_555 1_555
S2 C2 1_555 1_555
O3 C6 1_555 1_555
N2 Cd1 1_555 1_555
C2 H3 1_555 1_555
H4 C2 1_555 1_555
S3 C3 1_555 1_555
O4 C1 1_555 1_555
N3 C17 1_555 1_555
C3 S2 1_555 1_555
N4 C7 1_555 1_555
O5 C1 1_555 1_555
C4 S3 1_555 1_555
C5 S1 1_555 1_555
H5 C5 1_555 1_555
H6 C5 1_555 1_555
N5 C3 1_555 1_555
C6 O2 1_555 1_555
N6 C4 1_555 1_555
C7 N2 1_555 1_555
H7 C7 1_555 1_555
C8 N2 1_555 1_555
H8 C8 1_555 1_555
C9 N4 1_555 1_555
H9 C9 1_555 1_555
C10 N4 1_555 1_555
H10 C10 1_555 1_555
H11 C10 1_555 1_555
C11 C10 1_555 1_555
C12 C11 1_555 1_555
H12 C12 1_555 1_555
C13 C12 1_555 1_555
H13 C13 1_555 1_555
C14 C13 1_555 1_555
C15 C14 1_555 1_555
H14 C15 1_555 1_555
C16 C11 1_555 1_555
H15 C16 1_555 1_555
C17 H16 1_555 1_555
C18 N1 1_555 1_555
H17 C18 1_555 1_555
C19 N3 1_555 1_555
H18 C19 1_555 1_555
C20 N3 1_555 1_555
H19 C20 1_555 1_555
H20 C20 1_555 1_555
Cd1_2 O3 1_555 1_555
Cd1A O4 1_555 1_555
Cd1A_2 N1 1_555 1_555
N1A Cd1 1_555 1_555
O3_2 Cd1 1_555 1_555
O4A Cd1 1_555 1_555
C5 C6 1_555 1_555
N5 N6 1_555 1_555
C8 C9 1_555 1_555
C14 C20 1_555 1_555
C15 C16 1_555 1_555
C18 C19 1_555 1_555

#END
