
#######################################################################
#
#                 Cambridge Crystallographic Data Centre
#                                CCDC 
#
#######################################################################
#
# If this CIF has been generated from an entry in the Cambridge 
# Structural Database, then it will include bibliographic, chemical, 
# crystal, experimental, refinement or atomic coordinate data resulting 
# from the CCDC's data processing and validation procedures.
#
#######################################################################

data_TIXMUK
_symmetry_cell_setting           monoclinic
_symmetry_space_group_name_H-M   'P 21/c'
_symmetry_Int_Tables_number      14
_space_group_name_Hall           '-P 2ybc'
loop_
_symmetry_equiv_pos_site_id
_symmetry_equiv_pos_as_xyz
1 x,y,z
2 -x,1/2+y,1/2-z
3 -x,-y,-z
4 x,1/2-y,1/2+z
_cell_length_a                   9.6083(16)
_cell_length_b                   29.325(5)
_cell_length_c                   9.1714(15)
_cell_angle_alpha                90
_cell_angle_beta                 101.494(3)
_cell_angle_gamma                90
_cell_volume                     2532.34
loop_
_atom_site_label
_atom_site_type_symbol
_atom_site_fract_x
_atom_site_fract_y
_atom_site_fract_z
Zn1 Zn 0.91647(5) 0.153311(15) 0.16218(6)
S1 S 0.15001(11) 0.21069(4) -0.05291(14)
O1 O 0.8434(3) 0.18670(11) -0.0216(3)
N1 N 1.0450(4) 0.10009(12) 0.1476(4)
C1 C 0.0563(4) 0.30288(15) -0.0928(5)
S2 S 0.40885(12) 0.26450(4) -0.11964(14)
N2 N 1.1495(4) 0.04437(13) 0.0517(4)
O2 O 0.8096(4) 0.12787(12) -0.1778(5)
C2 C 0.1245(5) 0.26677(17) 0.0165(5)
H1 H 0.060(5) 0.2587(16) 0.083(5)
H2 H 0.209(6) 0.2760(17) 0.058(6)
S3 S 0.68135(12) 0.25394(4) -0.23491(15)
N3 N 0.7419(4) 0.13487(11) 0.2387(4)
O3 O 0.0117(3) 0.29242(10) -0.2278(3)
C3 C 0.3110(4) 0.21525(13) -0.1114(5)
O4 O 0.0428(5) 0.34138(12) -0.0430(4)
C4 C 0.5284(4) 0.23058(14) -0.1905(5)
N4 N 0.5949(4) 0.11673(12) 0.3842(4)
N5 N 0.3659(4) 0.17914(11) -0.1587(4)
C5 C 0.7655(5) 0.20218(15) -0.2780(5)
H3 H 0.7013 0.1867 -0.3578
H4 H 0.8499 0.2103 -0.3151
N6 N 0.4925(4) 0.18787(12) -0.2066(4)
C6 C 0.8082(4) 0.16861(16) -0.1499(5)
C7 C 1.0699(5) 0.08196(16) 0.0241(5)
H5 H 1.0363 0.0938 -0.0704
C8 C 1.1134(6) 0.07313(18) 0.2599(6)
H6 H 1.1150 0.0777 0.3606
C9 C 1.1783(6) 0.03886(19) 0.2027(6)
H7 H 1.2326 0.0158 0.2557
C10 C 1.1948(5) 0.01453(18) -0.0600(6)
H8 H 1.1662 0.0281 -0.1578
H9 H 1.1473 -0.0147 -0.0612
C11 C 1.3542(5) 0.00712(15) -0.0275(5)
C12 C 1.4436(5) 0.04133(16) -0.0535(6)
H10 H 1.4062 0.0692 -0.0905
C13 C 1.4106(5) -0.03451(16) 0.0249(6)
H11 H 1.3505 -0.0580 0.0410
C14 C 0.7308(5) 0.12264(14) 0.3732(5)
H12 H 0.8078 0.1185 0.4515
C15 C 0.6041(5) 0.13723(15) 0.1572(5)
H13 H 0.5784 0.1453 0.0574
C16 C 0.5132(5) 0.12588(15) 0.2463(6)
H14 H 0.4147 0.1245 0.2196
C17 C 0.5456(6) 0.09838(16) 0.5153(6)
H15 H 0.4577 0.1133 0.5243
H16 H 0.6157 0.1050 0.6044
C18 C 0.5214(5) 0.04711(15) 0.5031(5)
C19 C 0.6059(6) 0.01882(17) 0.4394(6)
H17 H 0.6783 0.0312 0.3981
C20 C 0.5850(6) -0.02811(16) 0.4354(6)
H18 H 0.6429 -0.0468 0.3911
N1B N 1.9550(4) -0.10009(12) -0.1476(4)
N2B N 1.8505(4) -0.04437(13) -0.0517(4)
C7B C 1.9301(5) -0.08196(16) -0.0241(5)
H5B H 1.9637 -0.0938 0.0704
C8B C 1.8866(6) -0.07313(18) -0.2599(6)
H6B H 1.8850 -0.0777 -0.3606
C9B C 1.8217(6) -0.03886(19) -0.2027(6)
H7B H 1.7674 -0.0158 -0.2557
C10B C 1.8052(5) -0.01453(18) 0.0600(6)
H8B H 1.8338 -0.0281 0.1578
H9B H 1.8527 0.0147 0.0612
C11B C 1.6458(5) -0.00712(15) 0.0275(5)
C12B C 1.5564(5) -0.04133(16) 0.0535(6)
H10B H 1.5938 -0.0692 0.0905
C13B C 1.5894(5) 0.03451(16) -0.0249(6)
H11B H 1.6495 0.0580 -0.0410
N3B N 0.2581(4) -0.13487(11) 0.7613(4)
N4B N 0.4051(4) -0.11673(12) 0.6158(4)
C14B C 0.2692(5) -0.12264(14) 0.6268(5)
H12B H 0.1922 -0.1185 0.5485
C15B C 0.3959(5) -0.13723(15) 0.8428(5)
H13B H 0.4216 -0.1453 0.9426
C16B C 0.4868(5) -0.12588(15) 0.7537(6)
H14B H 0.5853 -0.1245 0.7804
C17B C 0.4544(6) -0.09838(16) 0.4847(6)
H15B H 0.5423 -0.1133 0.4757
H16B H 0.3843 -0.1050 0.3956
C18B C 0.4786(5) -0.04711(15) 0.4969(5)
C19B C 0.3941(6) -0.01882(17) 0.5606(6)
H17B H 0.3217 -0.0312 0.6019
C20B C 0.4150(6) 0.02811(16) 0.5646(6)
H18B H 0.3571 0.0468 0.6089
Zn1B Zn 0.08353(5) -0.153311(15) 0.83782(6)
S1B S 0.84999(11) -0.21069(4) 1.05291(14)
O1B O 0.1566(3) -0.18670(11) 1.0216(3)
C1B C 0.9437(4) -0.30288(15) 1.0928(5)
S2B S 0.59115(12) -0.26450(4) 1.11964(14)
O2B O 0.1904(4) -0.12787(12) 1.1778(5)
C2B C 0.8755(5) -0.26677(17) 0.9835(5)
H1B H 0.940(5) -0.2587(16) 0.917(5)
H2B H 0.791(6) -0.2760(17) 0.942(6)
S3B S 0.31865(12) -0.25394(4) 1.23491(15)
O3B O 0.9883(3) -0.29242(10) 1.2278(3)
C3B C 0.6890(4) -0.21525(13) 1.1114(5)
O4B O 0.9572(5) -0.34138(12) 1.0430(4)
C4B C 0.4716(4) -0.23058(14) 1.1905(5)
N5B N 0.6341(4) -0.17914(11) 1.1587(4)
C5B C 0.2345(5) -0.20218(15) 1.2780(5)
H3B H 0.2987 -0.1867 1.3578
H4B H 0.1501 -0.2103 1.3151
N6B N 0.5075(4) -0.18787(12) 1.2066(4)
C6B C 0.1918(4) -0.16861(16) 1.1499(5)
Zn1A Zn 1.08353(5) -0.346689(15) 1.33782(6)
Zn1B_2 Zn 2.08353(5) -0.153311(15) -0.16218(6)
Zn1C Zn -0.08353(5) 0.346689(15) -0.33782(6)
N1B_2 N -0.0450(4) -0.10009(12) 0.8524(4)
O3A O -0.0117(3) -0.20758(10) 0.7278(3)
O3C O 1.0117(3) 0.20758(10) 0.2722(3)
O5 O 0.8190(5) -0.10618(14) 0.3082(5)
H19 H 0.8542 -0.1289 0.3911
H20 H 0.7529 -0.1295 0.2369
loop_
_geom_bond_atom_site_label_1
_geom_bond_atom_site_label_2
_geom_bond_site_symmetry_1
_geom_bond_site_symmetry_2
Zn1 O1 1_555 1_555
S1 C2 1_555 1_555
O1 C6 1_555 1_555
N1 Zn1 1_555 1_555
C1 C2 1_555 1_555
S2 C3 1_555 1_555
N2 C7 1_555 1_555
O2 C6 1_555 1_555
C2 H1 1_555 1_555
H2 C2 1_555 1_555
S3 C4 1_555 1_555
N3 Zn1 1_555 1_555
O3 C1 1_555 1_555
C3 S1 1_555 1_555
O4 C1 1_555 1_555
C4 S2 1_555 1_555
N4 C14 1_555 1_555
N5 C3 1_555 1_555
C5 S3 1_555 1_555
H3 C5 1_555 1_555
H4 C5 1_555 1_555
N6 C4 1_555 1_555
C6 C5 1_555 1_555
C7 N1 1_555 1_555
H5 C7 1_555 1_555
C8 N1 1_555 1_555
H6 C8 1_555 1_555
C9 N2 1_555 1_555
H7 C9 1_555 1_555
C10 N2 1_555 1_555
H8 C10 1_555 1_555
H9 C10 1_555 1_555
C11 C10 1_555 1_555
C12 C11 1_555 1_555
H10 C12 1_555 1_555
C13 C11 1_555 1_555
H11 C13 1_555 1_555
C14 N3 1_555 1_555
H12 C14 1_555 1_555
C15 N3 1_555 1_555
H13 C15 1_555 1_555
C16 N4 1_555 1_555
H14 C16 1_555 1_555
C17 N4 1_555 1_555
H15 C17 1_555 1_555
H16 C17 1_555 1_555
C18 C17 1_555 1_555
C19 C18 1_555 1_555
H17 C19 1_555 1_555
C20 C19 1_555 1_555
H18 C20 1_555 1_555
O5 H19 1_555 1_555
H20 O5 1_555 1_555
N1B C7B 1_555 1_555
N2B C7B 1_555 1_555
C7B H5B 1_555 1_555
C8B N1B 1_555 1_555
H6B C8B 1_555 1_555
C9B N2B 1_555 1_555
H7B C9B 1_555 1_555
C10B N2B 1_555 1_555
H8B C10B 1_555 1_555
H9B C10B 1_555 1_555
C11B C10B 1_555 1_555
C12B C13 1_555 1_555
H10B C12B 1_555 1_555
C13B C12 1_555 1_555
H11B C13B 1_555 1_555
N3B C14B 1_555 1_555
N4B C14B 1_555 1_555
C14B H12B 1_555 1_555
C15B N3B 1_555 1_555
H13B C15B 1_555 1_555
C16B N4B 1_555 1_555
H14B C16B 1_555 1_555
C17B N4B 1_555 1_555
H15B C17B 1_555 1_555
H16B C17B 1_555 1_555
C18B C20 1_555 1_555
C19B C18B 1_555 1_555
H17B C19B 1_555 1_555
C20B C18 1_555 1_555
H18B C20B 1_555 1_555
Zn1B N3B 1_555 1_555
S1B C2B 1_555 1_555
O1B Zn1B 1_555 1_555
C1B C2B 1_555 1_555
S2B C3B 1_555 1_555
O2B C6B 1_555 1_555
C2B H1B 1_555 1_555
H2B C2B 1_555 1_555
S3B C4B 1_555 1_555
O3B C1B 1_555 1_555
C3B S1B 1_555 1_555
O4B C1B 1_555 1_555
C4B S2B 1_555 1_555
N5B C3B 1_555 1_555
C5B S3B 1_555 1_555
H3B C5B 1_555 1_555
H4B C5B 1_555 1_555
N6B C4B 1_555 1_555
C6B O1B 1_555 1_555
Zn1A O3B 1_555 1_555
Zn1B_2 N1B 1_555 1_555
Zn1C O3 1_555 1_555
N1B_2 Zn1B 1_555 1_555
O3A Zn1B 1_555 1_555
O3C Zn1 1_555 1_555
N5 N6 1_555 1_555
C8 C9 1_555 1_555
C15 C16 1_555 1_555
C8B C9B 1_555 1_555
C11B C12B 1_555 1_555
C11B C13B 1_555 1_555
C15B C16B 1_555 1_555
C17B C18B 1_555 1_555
C19B C20B 1_555 1_555
N5B N6B 1_555 1_555
C5B C6B 1_555 1_555

#END
