
#######################################################################
#
#                 Cambridge Crystallographic Data Centre
#                                CCDC 
#
#######################################################################
#
# If this CIF has been generated from an entry in the Cambridge 
# Structural Database, then it will include bibliographic, chemical, 
# crystal, experimental, refinement or atomic coordinate data resulting 
# from the CCDC's data processing and validation procedures.
#
#######################################################################

data_TIXSIE
_symmetry_cell_setting           triclinic
_symmetry_space_group_name_H-M   'P -1'
_symmetry_Int_Tables_number      2
_space_group_name_Hall           '-P 1'
loop_
_symmetry_equiv_pos_site_id
_symmetry_equiv_pos_as_xyz
1 x,y,z
2 -x,-y,-z
_cell_length_a                   9.231(2)
_cell_length_b                   10.350(3)
_cell_length_c                   16.296(4)
_cell_angle_alpha                86.333(4)
_cell_angle_beta                 73.753(3)
_cell_angle_gamma                67.238(4)
_cell_volume                     1376.62
loop_
_atom_site_label
_atom_site_type_symbol
_atom_site_fract_x
_atom_site_fract_y
_atom_site_fract_z
Cu1 Cu 0.93367(10) 0.88593(7) 0.05962(5)
Cu2 Cu 0.5000 1.5000 0.5000
C1 C 1.2237(7) 0.6071(6) 0.1053(4)
C2 C 1.0999(8) 0.6963(6) 0.1717(4)
C3 C 1.1223(9) 0.6747(6) 0.2548(4)
H1 H 1.0417 0.7317 0.3007
C4 C 1.2586(10) 0.5728(7) 0.2695(5)
H2 H 1.2711 0.5623 0.3245
C5 C 1.3783(9) 0.4851(7) 0.2024(5)
H3 H 1.4709 0.4151 0.2123
C6 C 1.3605(8) 0.5014(6) 0.1227(4)
H4 H 1.4407 0.4410 0.0782
C7 C 1.2132(7) 0.6187(6) 0.0181(4)
H5 H 1.2931 0.5483 -0.0212
C8 C 1.1208(7) 0.6965(6) -0.1024(3)
H6 H 1.2322 0.6357 -0.1311
H7 H 1.0974 0.7866 -0.1285
C9 C 1.0063(7) 0.6339(6) -0.1139(3)
H8 H 0.8981 0.6863 -0.0769
H9 H 1.0411 0.5384 -0.0955
C10 C 0.9953(7) 0.6322(6) -0.2054(3)
H10 H 0.9166 0.5924 -0.2069
H11 H 0.9557 0.7278 -0.2232
C11 C 1.2247(8) 0.5953(7) -0.3387(4)
H12 H 1.1835 0.6856 -0.3575
C12 C 1.3759(8) 0.3807(6) -0.3323(4)
H13 H 1.4608 0.2930 -0.3455
C13 C 1.2477(8) 0.4159(6) -0.2632(4)
H14 H 1.2281 0.3561 -0.2203
C14 C 0.6126(7) 1.1102(6) 0.1048(4)
H15 H 0.5200 1.1682 0.1453
C15 C 0.6033(7) 1.1156(6) 0.0177(4)
C16 C 0.7434(8) 1.0522(6) -0.0513(4)
C17 C 0.7240(8) 1.0736(6) -0.1345(4)
H16 H 0.8136 1.0334 -0.1816
C18 C 0.5740(10) 1.1533(7) -0.1465(5)
H17 H 0.5642 1.1672 -0.2020
C19 C 0.4365(9) 1.2136(7) -0.0783(5)
H18 H 0.3348 1.2646 -0.0872
C20 C 0.4549(8) 1.1961(6) 0.0016(4)
H19 H 0.3645 1.2397 0.0476
C21 C 0.7137(7) 1.0555(6) 0.2248(4)
H20 H 0.6509 1.1541 0.2415
H21 H 0.8200 1.0305 0.2346
C22 C 0.6277(8) 0.9697(6) 0.2796(4)
H22 H 0.6832 0.8727 0.2581
H23 H 0.5169 1.0025 0.2746
C23 C 0.6213(8) 0.9769(6) 0.3732(4)
H24 H 0.5703 0.9153 0.4041
H25 H 0.7319 0.9437 0.3784
C24 C 0.5924(8) 1.2004(6) 0.4401(4)
H26 H 0.7006 1.1714 0.4412
C25 C 0.3398(9) 1.3257(7) 0.4533(4)
H27 H 0.2395 1.4011 0.4654
C26 C 0.3700(9) 1.1988(7) 0.4202(4)
H28 H 0.2952 1.1711 0.4060
C27 C 0.0603(10) 1.6900(10) 0.4931(6)
H29 H 0.0432 1.6458 0.4486
H30 H -0.0123 1.7870 0.5008
H31 H 0.0390 1.6440 0.5455
N1 N 1.1053(6) 0.7158(5) -0.0113(3)
N2 N 1.1507(6) 0.5522(5) -0.2651(3)
N3 N 1.3609(7) 0.4966(5) -0.3809(3)
N4 N 0.7355(6) 1.0335(5) 0.1326(3)
N5 N 0.5299(7) 1.1193(5) 0.4117(3)
N6 N 0.4792(7) 1.3262(5) 0.4661(3)
O1 O 0.8891(5) 0.9786(4) -0.0412(2)
O2 O 0.9691(5) 0.7973(4) 0.1617(2)
O3 O 0.2232(6) 1.6799(4) 0.4700(3)
H32 H 0.2385 1.7522 0.4365
Cu1A Cu 0.06633(10) 2.11407(7) 0.94038(5)
C1A C -0.2237(7) 2.3929(6) 0.8947(4)
C2A C -0.0999(8) 2.3037(6) 0.8283(4)
C3A C -0.1223(9) 2.3253(6) 0.7452(4)
H1A H -0.0417 2.2683 0.6993
C4A C -0.2586(10) 2.4272(7) 0.7305(5)
H2A H -0.2711 2.4377 0.6755
C5A C -0.3783(9) 2.5149(7) 0.7976(5)
H3A H -0.4709 2.5849 0.7877
C6A C -0.3605(8) 2.4986(6) 0.8773(4)
H4A H -0.4407 2.5590 0.9218
C7A C -0.2132(7) 2.3813(6) 0.9819(4)
H5A H -0.2931 2.4517 1.0212
C8A C -0.1208(7) 2.3035(6) 1.1024(3)
H6A H -0.2322 2.3643 1.1311
H7A H -0.0974 2.2134 1.1285
C9A C -0.0063(7) 2.3661(6) 1.1139(3)
H8A H 0.1019 2.3137 1.0769
H9A H -0.0411 2.4616 1.0955
C10A C 0.0047(7) 2.3678(6) 1.2054(3)
H10A H 0.0834 2.4076 1.2069
H11A H 0.0443 2.2722 1.2232
C11A C -0.2247(8) 2.4047(7) 1.3387(4)
H12A H -0.1835 2.3144 1.3575
C12A C -0.3759(8) 2.6193(6) 1.3323(4)
H13A H -0.4608 2.7070 1.3455
C13A C -0.2477(8) 2.5841(6) 1.2632(4)
H14A H -0.2281 2.6439 1.2203
C14A C 0.3874(7) 1.8898(6) 0.8952(4)
H15A H 0.4800 1.8318 0.8547
C15A C 0.3967(7) 1.8844(6) 0.9823(4)
C16A C 0.2566(8) 1.9478(6) 1.0513(4)
C17A C 0.2760(8) 1.9264(6) 1.1345(4)
H16A H 0.1864 1.9666 1.1816
C18A C 0.4260(10) 1.8467(7) 1.1465(5)
H17A H 0.4358 1.8328 1.2020
C19A C 0.5635(9) 1.7864(7) 1.0783(5)
H18A H 0.6652 1.7354 1.0872
C20A C 0.5451(8) 1.8039(6) 0.9984(4)
H19A H 0.6355 1.7603 0.9524
C21A C 0.2863(7) 1.9445(6) 0.7752(4)
H20A H 0.3491 1.8459 0.7585
H21A H 0.1800 1.9695 0.7654
C22A C 0.3723(8) 2.0303(6) 0.7204(4)
H22A H 0.3168 2.1273 0.7419
H23A H 0.4831 1.9975 0.7254
C23A C 0.3787(8) 2.0231(6) 0.6268(4)
H24A H 0.4297 2.0847 0.5959
H25A H 0.2681 2.0563 0.6216
C24A C 0.4076(8) 1.7996(6) 0.5599(4)
H26A H 0.2994 1.8286 0.5588
C25A C 0.6602(9) 1.6743(7) 0.5467(4)
H27A H 0.7605 1.5989 0.5346
C26A C 0.6300(9) 1.8012(7) 0.5798(4)
H28A H 0.7048 1.8289 0.5940
C27A C 0.9397(10) 1.3100(10) 0.5069(6)
H29A H 0.9568 1.3542 0.5514
H30A H 1.0123 1.2130 0.4992
H31A H 0.9610 1.3560 0.4545
N1A N -0.1053(6) 2.2842(5) 1.0113(3)
N2A N -0.1507(6) 2.4478(5) 1.2651(3)
N3A N -0.3609(7) 2.5034(5) 1.3809(3)
N4A N 0.2645(6) 1.9665(5) 0.8674(3)
N5A N 0.4701(7) 1.8807(5) 0.5883(3)
N6A N 0.5208(7) 1.6738(5) 0.5339(3)
O1A O 0.1109(5) 2.0214(4) 1.0412(2)
O2A O 0.0309(5) 2.2027(4) 0.8383(2)
O3A O 0.7768(6) 1.3201(4) 0.5300(3)
H32A H 0.7615 1.2478 0.5635
Cu1_2 Cu -0.06633(10) 1.88593(7) 1.05962(5)
Cu1A_2 Cu 1.06633(10) 1.11407(7) -0.05962(5)
Cu2_2 Cu -0.5000 2.5000 1.5000
Cu2_3 Cu 1.5000 0.5000 -0.5000
N3_2 N 0.3609(7) 1.4966(5) 0.6191(3)
N3A_2 N 0.6391(7) 1.5034(5) 0.3809(3)
O1_2 O -0.1109(5) 1.9786(4) 0.9588(2)
O1A_2 O 1.1109(5) 1.0214(4) 0.0412(2)
N7 N 0.8792(11) 1.0045(8) 0.6308(4)
O4 O 0.7523(7) 1.0861(6) 0.6162(4)
O5 O 0.8871(13) 0.8910(9) 0.6592(6)
O6 O 1.0083(10) 1.0111(10) 0.6165(7)
loop_
_geom_bond_atom_site_label_1
_geom_bond_atom_site_label_2
_geom_bond_site_symmetry_1
_geom_bond_site_symmetry_2
Cu1 N1 1_555 1_555
Cu2 N6 1_555 1_555
C1 C2 1_555 1_555
C2 C3 1_555 1_555
C3 H1 1_555 1_555
C4 C3 1_555 1_555
H2 C4 1_555 1_555
C5 C4 1_555 1_555
H3 C5 1_555 1_555
C6 C1 1_555 1_555
H4 C6 1_555 1_555
C7 C1 1_555 1_555
H5 C7 1_555 1_555
C8 H6 1_555 1_555
H7 C8 1_555 1_555
C9 C8 1_555 1_555
H8 C9 1_555 1_555
H9 C9 1_555 1_555
C10 C9 1_555 1_555
H10 C10 1_555 1_555
H11 C10 1_555 1_555
C11 H12 1_555 1_555
C12 H13 1_555 1_555
C13 C12 1_555 1_555
H14 C13 1_555 1_555
C14 H15 1_555 1_555
C15 C14 1_555 1_555
C16 C15 1_555 1_555
C17 C16 1_555 1_555
H16 C17 1_555 1_555
C18 C17 1_555 1_555
H17 C18 1_555 1_555
C19 C18 1_555 1_555
H18 C19 1_555 1_555
C20 C15 1_555 1_555
H19 C20 1_555 1_555
C21 H20 1_555 1_555
H21 C21 1_555 1_555
C22 C21 1_555 1_555
H22 C22 1_555 1_555
H23 C22 1_555 1_555
C23 C22 1_555 1_555
H24 C23 1_555 1_555
H25 C23 1_555 1_555
C24 H26 1_555 1_555
C25 H27 1_555 1_555
C26 C25 1_555 1_555
H28 C26 1_555 1_555
C27 H29 1_555 1_555
H30 C27 1_555 1_555
H31 C27 1_555 1_555
N1 C7 1_555 1_555
N2 C10 1_555 1_555
N3 C11 1_555 1_555
N4 Cu1 1_555 1_555
N5 C23 1_555 1_555
N6 C24 1_555 1_555
O1 Cu1 1_555 1_555
O2 Cu1 1_555 1_555
O3 Cu2 1_555 1_555
H32 O3 1_555 1_555
N7 O4 1_555 1_555
O5 N7 1_555 1_555
O6 N7 1_555 1_555
Cu1A N1A 1_555 1_555
C1A C2A 1_555 1_555
C2A C3A 1_555 1_555
C3A H1A 1_555 1_555
C4A C3A 1_555 1_555
H2A C4A 1_555 1_555
C5A C4A 1_555 1_555
H3A C5A 1_555 1_555
C6A C1A 1_555 1_555
H4A C6A 1_555 1_555
C7A C1A 1_555 1_555
H5A C7A 1_555 1_555
C8A H6A 1_555 1_555
H7A C8A 1_555 1_555
C9A C8A 1_555 1_555
H8A C9A 1_555 1_555
H9A C9A 1_555 1_555
C10A C9A 1_555 1_555
H10A C10A 1_555 1_555
H11A C10A 1_555 1_555
C11A H12A 1_555 1_555
C12A H13A 1_555 1_555
C13A C12A 1_555 1_555
H14A C13A 1_555 1_555
C14A H15A 1_555 1_555
C15A C14A 1_555 1_555
C16A C15A 1_555 1_555
C17A C16A 1_555 1_555
H16A C17A 1_555 1_555
C18A C17A 1_555 1_555
H17A C18A 1_555 1_555
C19A C18A 1_555 1_555
H18A C19A 1_555 1_555
C20A C15A 1_555 1_555
H19A C20A 1_555 1_555
C21A H20A 1_555 1_555
H21A C21A 1_555 1_555
C22A C21A 1_555 1_555
H22A C22A 1_555 1_555
H23A C22A 1_555 1_555
C23A C22A 1_555 1_555
H24A C23A 1_555 1_555
H25A C23A 1_555 1_555
C24A H26A 1_555 1_555
C25A H27A 1_555 1_555
C26A C25A 1_555 1_555
H28A C26A 1_555 1_555
C27A H29A 1_555 1_555
H30A C27A 1_555 1_555
H31A C27A 1_555 1_555
N1A C7A 1_555 1_555
N2A C10A 1_555 1_555
N3A C11A 1_555 1_555
N4A Cu1A 1_555 1_555
N5A C23A 1_555 1_555
N6A Cu2 1_555 1_555
O1A Cu1A 1_555 1_555
O2A Cu1A 1_555 1_555
O3A Cu2 1_555 1_555
H32A O3A 1_555 1_555
Cu1_2 O1A 1_555 1_555
Cu1A_2 O1 1_555 1_555
Cu2_2 N3A 1_555 1_555
Cu2_3 N3 1_555 1_555
N3_2 Cu2 1_555 1_555
N3A_2 Cu2 1_555 1_555
O1_2 Cu1A 1_555 1_555
O1A_2 Cu1 1_555 1_555
C2 O2 1_555 1_555
C5 C6 1_555 1_555
C8 N1 1_555 1_555
C11 N2 1_555 1_555
C12 N3 1_555 1_555
C13 N2 1_555 1_555
C14 N4 1_555 1_555
C16 O1 1_555 1_555
C19 C20 1_555 1_555
C21 N4 1_555 1_555
C24 N5 1_555 1_555
C25 N6 1_555 1_555
C26 N5 1_555 1_555
C27 O3 1_555 1_555
C2A O2A 1_555 1_555
C5A C6A 1_555 1_555
C8A N1A 1_555 1_555
C11A N2A 1_555 1_555
C12A N3A 1_555 1_555
C13A N2A 1_555 1_555
C14A N4A 1_555 1_555
C16A O1A 1_555 1_555
C19A C20A 1_555 1_555
C21A N4A 1_555 1_555
C24A N5A 1_555 1_555
C24A N6A 1_555 1_555
C25A N6A 1_555 1_555
C26A N5A 1_555 1_555
C27A O3A 1_555 1_555
Cu1_2 O1_2 1_555 1_555
Cu1A_2 O1A_2 1_555 1_555

#END
