
#######################################################################
#
#                 Cambridge Crystallographic Data Centre
#                                CCDC 
#
#######################################################################
#
# If this CIF has been generated from an entry in the Cambridge 
# Structural Database, then it will include bibliographic, chemical, 
# crystal, experimental, refinement or atomic coordinate data resulting 
# from the CCDC's data processing and validation procedures.
#
#######################################################################

data_TIXVOM
_symmetry_cell_setting           monoclinic
_symmetry_space_group_name_H-M   'C 2'
_symmetry_Int_Tables_number      5
_space_group_name_Hall           'C 2y'
loop_
_symmetry_equiv_pos_site_id
_symmetry_equiv_pos_as_xyz
1 x,y,z
2 -x,y,-z
3 1/2+x,1/2+y,z
4 1/2-x,1/2+y,-z
_cell_length_a                   14.1392(18)
_cell_length_b                   8.9883(11)
_cell_length_c                   13.7425(17)
_cell_angle_alpha                90
_cell_angle_beta                 112.711(2)
_cell_angle_gamma                90
_cell_volume                     1611.08
loop_
_atom_site_label
_atom_site_type_symbol
_atom_site_fract_x
_atom_site_fract_y
_atom_site_fract_z
Au1 Au 1.0000 1.016389(12) 1.0000
Co1 Co 0.75486(5) 1.14408(8) 0.76164(5)
Mn1 Mn 0.5000 0.55644(13) 0.5000
Cl1 Cl 0.38208(11) 0.40371(18) 0.53825(11)
S1 S 0.89349(8) 0.99491(15) 0.82740(9)
N1 N 0.6728(3) 0.9592(5) 0.7178(3)
H1 H 0.6386 0.9440 0.7620
H2 H 0.6243 0.9724 0.6507
N2 N 0.8417(3) 1.3251(5) 0.7996(3)
H3 H 0.8108 1.3969 0.8250
H4 H 0.9043 1.3029 0.8516
N3 N 0.7727(3) 1.1541(5) 0.6275(3)
H5 H 0.7836 1.0603 0.6072
H6 H 0.7146 1.1925 0.5760
N4 N 0.7345(3) 1.1524(5) 0.8957(3)
H7 H 0.7167 1.0599 0.9118
H8 H 0.7942 1.1816 0.9495
N5 N 0.6282(3) 1.2625(6) 0.7031(3)
H9 H 0.6439 1.3604 0.6966
H10 H 0.5876 1.2275 0.6372
C1 C 0.8263(4) 0.8196(6) 0.8226(4)
H11 H 0.8713 0.7339 0.8253
H12 H 0.8044 0.8124 0.8827
C2 C 0.7340(4) 0.8216(7) 0.7189(4)
H13 H 0.7598 0.8316 0.6609
C3 C 0.6661(4) 0.6831(7) 0.6962(4)
O1 O 0.5835(3) 0.6956(5) 0.6166(4)
O2 O 0.6971(4) 0.5705(5) 0.7504(4)
C4 C 0.8562(5) 1.3817(7) 0.7048(5)
H14 H 0.9201 1.4408 0.7260
H15 H 0.7979 1.4463 0.6630
C5 C 0.8621(4) 1.2508(7) 0.6408(5)
H16 H 0.8597 1.2836 0.5711
H17 H 0.9268 1.1958 0.6773
C6 C 0.6510(4) 1.2615(7) 0.8839(4)
H18 H 0.6193 1.2387 0.9351
H19 H 0.6794 1.3635 0.8978
C7 C 0.5729(4) 1.2510(7) 0.7746(4)
H20 H 0.5360 1.1549 0.7640
H21 H 0.5224 1.3327 0.7607
Co1A Co 1.24514(5) 1.14408(8) 1.23836(5)
Mn1_2 Mn 1.5000 0.55644(13) 1.5000
Cl1A Cl 0.61792(11) 0.40371(18) 0.46175(11)
S1A S 1.10651(8) 0.99491(15) 1.17260(9)
N1A N 1.3272(3) 0.9592(5) 1.2822(3)
H1A H 1.3614 0.9440 1.2380
H2A H 1.3757 0.9724 1.3493
N2A N 1.1583(3) 1.3251(5) 1.2004(3)
H3A H 1.1892 1.3969 1.1750
H4A H 1.0957 1.3029 1.1484
N3A N 1.2273(3) 1.1541(5) 1.3725(3)
H5A H 1.2164 1.0603 1.3928
H6A H 1.2854 1.1925 1.4240
N4A N 1.2655(3) 1.1524(5) 1.1043(3)
H7A H 1.2833 1.0599 1.0882
H8A H 1.2058 1.1816 1.0505
N5A N 1.3718(3) 1.2625(6) 1.2969(3)
H9A H 1.3561 1.3604 1.3034
H10A H 1.4124 1.2275 1.3628
C1A C 1.1737(4) 0.8196(6) 1.1774(4)
H11A H 1.1287 0.7339 1.1747
H12A H 1.1956 0.8124 1.1173
C2A C 1.2660(4) 0.8216(7) 1.2811(4)
H13A H 1.2402 0.8316 1.3391
C3A C 1.3339(4) 0.6831(7) 1.3038(4)
O1A O 1.4165(3) 0.6956(5) 1.3834(4)
O1A_2 O 0.4165(3) 0.6956(5) 0.3834(4)
O2A O 1.3029(4) 0.5705(5) 1.2496(4)
C4A C 1.1438(5) 1.3817(7) 1.2952(5)
H14A H 1.0799 1.4408 1.2740
H15A H 1.2021 1.4463 1.3370
C5A C 1.1379(4) 1.2508(7) 1.3592(5)
H16A H 1.1403 1.2836 1.4289
H17A H 1.0732 1.1958 1.3227
C6A C 1.3490(4) 1.2615(7) 1.1161(4)
H18A H 1.3807 1.2387 1.0649
H19A H 1.3206 1.3635 1.1022
C7A C 1.4271(4) 1.2510(7) 1.2254(4)
H20A H 1.4640 1.1549 1.2360
H21A H 1.4776 1.3327 1.2393
Cl2 Cl 1.10369(11) 1.34772(19) 0.91151(12)
Cl3 Cl 0.5000 1.0469(3) 0.5000
O3 O 1.0000 0.5874(9) 1.0000
loop_
_geom_bond_atom_site_label_1
_geom_bond_atom_site_label_2
_geom_bond_site_symmetry_1
_geom_bond_site_symmetry_2
Au1 S1 1_555 1_555
Co1 S1 1_555 1_555
Mn1 Cl1 1_555 1_555
S1 C1 1_555 1_555
N1 Co1 1_555 1_555
H1 N1 1_555 1_555
H2 N1 1_555 1_555
N2 Co1 1_555 1_555
H3 N2 1_555 1_555
H4 N2 1_555 1_555
N3 Co1 1_555 1_555
H5 N3 1_555 1_555
H6 N3 1_555 1_555
N4 Co1 1_555 1_555
H7 N4 1_555 1_555
H8 N4 1_555 1_555
N5 Co1 1_555 1_555
H9 N5 1_555 1_555
H10 N5 1_555 1_555
C1 H11 1_555 1_555
H12 C1 1_555 1_555
C2 N1 1_555 1_555
H13 C2 1_555 1_555
C3 C2 1_555 1_555
O1 Mn1 1_555 1_555
O2 C3 1_555 1_555
C4 N2 1_555 1_555
H14 C4 1_555 1_555
H15 C4 1_555 1_555
C5 N3 1_555 1_555
H16 C5 1_555 1_555
H17 C5 1_555 1_555
C6 N4 1_555 1_555
H18 C6 1_555 1_555
H19 C6 1_555 1_555
C7 N5 1_555 1_555
H20 C7 1_555 1_555
H21 C7 1_555 1_555
Co1A S1A 1_555 1_555
Mn1_2 O1A 1_555 1_555
Cl1A Mn1 1_555 1_555
S1A Au1 1_555 1_555
N1A Co1A 1_555 1_555
H1A N1A 1_555 1_555
H2A N1A 1_555 1_555
N2A Co1A 1_555 1_555
H3A N2A 1_555 1_555
H4A N2A 1_555 1_555
N3A Co1A 1_555 1_555
H5A N3A 1_555 1_555
H6A N3A 1_555 1_555
N4A Co1A 1_555 1_555
H7A N4A 1_555 1_555
H8A N4A 1_555 1_555
N5A Co1A 1_555 1_555
H9A N5A 1_555 1_555
H10A N5A 1_555 1_555
C1A S1A 1_555 1_555
H11A C1A 1_555 1_555
H12A C1A 1_555 1_555
C2A N1A 1_555 1_555
H13A C2A 1_555 1_555
C3A C2A 1_555 1_555
O1A C3A 1_555 1_555
O1A_2 Mn1 1_555 1_555
O2A C3A 1_555 1_555
C4A N2A 1_555 1_555
H14A C4A 1_555 1_555
H15A C4A 1_555 1_555
C5A N3A 1_555 1_555
H16A C5A 1_555 1_555
H17A C5A 1_555 1_555
C6A N4A 1_555 1_555
H18A C6A 1_555 1_555
H19A C6A 1_555 1_555
C7A N5A 1_555 1_555
H20A C7A 1_555 1_555
H21A C7A 1_555 1_555
C1 C2 1_555 1_555
C3 O1 1_555 1_555
C4 C5 1_555 1_555
C6 C7 1_555 1_555
C1A C2A 1_555 1_555
C4A C5A 1_555 1_555
C6A C7A 1_555 1_555

#END
