
#######################################################################
#
#                 Cambridge Crystallographic Data Centre
#                                CCDC 
#
#######################################################################
#
# If this CIF has been generated from an entry in the Cambridge 
# Structural Database, then it will include bibliographic, chemical, 
# crystal, experimental, refinement or atomic coordinate data resulting 
# from the CCDC's data processing and validation procedures.
#
#######################################################################

data_TIXVON
_symmetry_cell_setting           orthorhombic
_symmetry_space_group_name_H-M   'P c c n'
_symmetry_Int_Tables_number      56
_space_group_name_Hall           '-P 2ab 2ac'
loop_
_symmetry_equiv_pos_site_id
_symmetry_equiv_pos_as_xyz
1 x,y,z
2 1/2-x,1/2-y,z
3 -x,1/2+y,1/2-z
4 1/2+x,-y,1/2-z
5 -x,-y,-z
6 1/2+x,1/2+y,-z
7 x,1/2-y,1/2+z
8 1/2-x,y,1/2+z
_cell_length_a                   23.7111(13)
_cell_length_b                   11.3748(4)
_cell_length_c                   22.0842(10)
_cell_angle_alpha                90
_cell_angle_beta                 90
_cell_angle_gamma                90
_cell_volume                     5956.31
loop_
_atom_site_label
_atom_site_type_symbol
_atom_site_fract_x
_atom_site_fract_y
_atom_site_fract_z
Mg1 Mg 0.5000 0.5000 0.0000
Mg2 Mg 0.44058(6) 0.21110(12) -0.00243(7)
O1 O 0.39669(13) 0.3036(3) 0.06102(16)
O2 O 0.47751(15) 0.1017(3) -0.06770(15)
O3 O 0.42842(12) 0.4876(3) 0.05175(14)
O4 O 0.04413(12) 0.4595(3) 0.42283(13)
O5 O 0.09725(13) 0.2979(3) 0.42943(15)
O6 O 0.22307(16) 0.5890(3) 0.22397(17)
O7 O 0.51786(11) 0.3140(2) 0.01163(13)
O8 O 0.50442(12) 0.1463(2) 0.05747(14)
O9 O 0.7500 0.2500 0.1558(2)
O10 O 0.39157(17) 0.0757(3) 0.0175(2)
C1 C 0.2665(2) 0.5362(4) 0.1916(2)
C2 C 0.2627(2) 0.4235(4) 0.1684(2)
H1 H 0.2322 0.3755 0.1781
C3 C 0.30509(19) 0.3837(4) 0.1306(2)
H2 H 0.3031 0.3077 0.1153
C4 C 0.35061(17) 0.4546(4) 0.11503(19)
C5 C 0.35332(19) 0.5663(4) 0.1398(2)
H3 H 0.3836 0.6148 0.1302
C6 C 0.3119(2) 0.6068(4) 0.1784(2)
H4 H 0.3147 0.6814 0.1953
C7 C 0.1901(2) 0.5298(4) 0.2658(2)
C8 C 0.1368(2) 0.5758(4) 0.2740(2)
H5 H 0.1241 0.6369 0.2495
C9 C 0.10228(19) 0.5300(4) 0.3190(2)
H6 H 0.0664 0.5611 0.3248
C10 C 0.12077(18) 0.4386(4) 0.3552(2)
C11 C 0.1739(2) 0.3923(4) 0.3452(2)
H7 H 0.1862 0.3292 0.3684
C12 C 0.2089(2) 0.4380(4) 0.3012(2)
H8 H 0.2449 0.4073 0.2956
C13 C 0.39573(18) 0.4123(4) 0.0727(2)
C14 C 0.08419(19) 0.3950(4) 0.4066(2)
C15 C 0.69938(19) 0.2419(5) 0.1233(2)
C16 C 0.6619(2) 0.1562(5) 0.1412(2)
H9 H 0.6718 0.1014 0.1706
C17 C 0.60912(19) 0.1536(4) 0.1146(2)
H10 H 0.5833 0.0963 0.1263
C18 C 0.59408(17) 0.2346(4) 0.07082(19)
C19 C 0.63268(18) 0.3184(4) 0.0525(2)
H11 H 0.6233 0.3721 0.0224
C20 C 0.68613(18) 0.3219(4) 0.0797(2)
H12 H 0.7123 0.3783 0.0679
C21 C 0.53608(17) 0.2317(4) 0.04546(19)
C22 C 0.2965(3) 0.0828(7) -0.0189(4)
H13 H 0.3105 0.1482 -0.0419
H14 H 0.2664 0.1086 0.0068
H15 H 0.2828 0.0233 -0.0460
C23 C 0.3452(3) 0.0308(5) 0.0207(3)
C24 C 0.3812(3) -0.1046(6) 0.0910(3)
H16 H 0.4129 -0.0523 0.0883
H17 H 0.3917 -0.1807 0.0760
H18 H 0.3696 -0.1111 0.1325
C25 C 0.2810(3) -0.1238(6) 0.0522(4)
H19 H 0.2545 -0.0819 0.0274
H20 H 0.2660 -0.1321 0.0924
H21 H 0.2877 -0.2002 0.0352
N1 N 0.3345(2) -0.0581(5) 0.0548(3)
O7A O 0.98214(11) 0.1860(2) 0.01163(13)
O8A O 0.99558(12) 0.3537(2) 0.05747(14)
C15A C 0.80062(19) 0.2581(5) 0.1233(2)
C16A C 0.8381(2) 0.3438(5) 0.1412(2)
H9A H 0.8282 0.3986 0.1706
C17A C 0.89088(19) 0.3464(4) 0.1146(2)
H10A H 0.9167 0.4037 0.1263
C18A C 0.90592(17) 0.2654(4) 0.07082(19)
C19A C 0.86732(18) 0.1816(4) 0.0525(2)
H11A H 0.8767 0.1279 0.0224
C20A C 0.81387(18) 0.1781(4) 0.0797(2)
H12A H 0.7877 0.1217 0.0679
C21A C 0.96392(17) 0.2683(4) 0.04546(19)
Mg2A Mg 1.05942(6) 0.28890(12) -0.00243(7)
O1A O 1.10331(13) 0.1964(3) 0.06102(16)
O2A O 1.02249(15) 0.3983(3) -0.06770(15)
O3A O 1.07158(12) 0.0124(3) 0.05175(14)
O4A O 1.45587(12) 0.0405(3) 0.42283(13)
O5A O 1.40275(13) 0.2021(3) 0.42943(15)
O6A O 1.27693(16) -0.0890(3) 0.22397(17)
O10A O 1.10843(17) 0.4243(3) 0.0175(2)
C1A C 1.2335(2) -0.0362(4) 0.1916(2)
C2A C 1.2373(2) 0.0765(4) 0.1684(2)
H1A H 1.2678 0.1245 0.1781
C3A C 1.19491(19) 0.1163(4) 0.1306(2)
H2A H 1.1969 0.1923 0.1153
C4A C 1.14939(17) 0.0454(4) 0.11503(19)
C5A C 1.14668(19) -0.0663(4) 0.1398(2)
H3A H 1.1164 -0.1148 0.1302
C6A C 1.1881(2) -0.1068(4) 0.1784(2)
H4A H 1.1853 -0.1814 0.1953
C7A C 1.3099(2) -0.0298(4) 0.2658(2)
C8A C 1.3632(2) -0.0758(4) 0.2740(2)
H5A H 1.3759 -0.1369 0.2495
C9A C 1.39772(19) -0.0300(4) 0.3190(2)
H6A H 1.4336 -0.0611 0.3248
C10A C 1.37923(18) 0.0614(4) 0.3552(2)
C11A C 1.3261(2) 0.1077(4) 0.3452(2)
H7A H 1.3138 0.1708 0.3684
C12A C 1.2911(2) 0.0620(4) 0.3012(2)
H8A H 1.2551 0.0927 0.2956
C13A C 1.10427(18) 0.0877(4) 0.0727(2)
C14A C 1.41581(19) 0.1050(4) 0.4066(2)
C22A C 1.2035(3) 0.4172(7) -0.0189(4)
H13A H 1.1895 0.3518 -0.0419
H14A H 1.2336 0.3914 0.0068
H15A H 1.2172 0.4767 -0.0460
C23A C 1.1548(3) 0.4692(5) 0.0207(3)
C24A C 1.1188(3) 0.6046(6) 0.0910(3)
H16A H 1.0871 0.5523 0.0883
H17A H 1.1083 0.6807 0.0760
H18A H 1.1304 0.6111 0.1325
C25A C 1.2190(3) 0.6238(6) 0.0522(4)
H19A H 1.2455 0.5819 0.0274
H20A H 1.2340 0.6321 0.0924
H21A H 1.2123 0.7002 0.0352
N1A N 1.1655(2) 0.5581(5) 0.0548(3)
Mg1A Mg 1.0000 0.0000 0.0000
Mg1B Mg 1.5000 0.0000 0.5000
Mg1C Mg 0.0000 0.5000 0.5000
Mg2F Mg 1.44058(6) 0.28890(12) 0.49757(7)
Mg2G Mg 0.05942(6) 0.21110(12) 0.49757(7)
O3D O 0.57158(12) 0.5124(3) -0.05175(14)
O4C O 0.54413(12) 0.5405(3) 0.07717(13)
O4G O 0.45587(12) 0.4595(3) -0.07717(13)
O5F O 1.09725(13) 0.2021(3) -0.07057(15)
O5G O 0.40275(13) 0.2979(3) -0.07057(15)
O7D O 0.48214(11) 0.6860(2) -0.01163(13)
O11 O 0.4767(4) 0.6536(9) 0.2412(6)
C26 C 0.5707(4) 0.6837(8) 0.2983(4)
H22 H 0.5556 0.6223 0.3233
H23 H 0.5790 0.7512 0.3229
H24 H 0.6047 0.6567 0.2792
C27 C 0.5290(4) 0.7160(9) 0.2515(4)
C28 C 0.5971(4) 0.8582(8) 0.2250(5)
H25 H 0.6182 0.8182 0.2558
H26 H 0.5932 0.9396 0.2356
H27 H 0.6165 0.8517 0.1870
C29 C 0.5014(3) 0.8352(7) 0.1826(4)
H28 H 0.4691 0.7857 0.1889
H29 H 0.5145 0.8267 0.1417
H30 H 0.4911 0.9157 0.1898
N2 N 0.5412(5) 0.8050(11) 0.2198(6)
loop_
_geom_bond_atom_site_label_1
_geom_bond_atom_site_label_2
_geom_bond_site_symmetry_1
_geom_bond_site_symmetry_2
Mg1 O3 1_555 1_555
Mg2 O1 1_555 1_555
O1 C13 1_555 1_555
O2 Mg2 1_555 1_555
O3 C13 1_555 1_555
O4 C14 1_555 1_555
O5 C14 1_555 1_555
O6 C1 1_555 1_555
O7 Mg1 1_555 1_555
O8 Mg2 1_555 1_555
O9 C15 1_555 1_555
O10 Mg2 1_555 1_555
C1 C2 1_555 1_555
C2 H1 1_555 1_555
C3 C2 1_555 1_555
H2 C3 1_555 1_555
C4 C3 1_555 1_555
C5 C4 1_555 1_555
H3 C5 1_555 1_555
C6 C1 1_555 1_555
H4 C6 1_555 1_555
C7 O6 1_555 1_555
C8 C7 1_555 1_555
H5 C8 1_555 1_555
C9 C8 1_555 1_555
H6 C9 1_555 1_555
C10 C9 1_555 1_555
C11 C10 1_555 1_555
H7 C11 1_555 1_555
C12 C7 1_555 1_555
H8 C12 1_555 1_555
C13 C4 1_555 1_555
C14 C10 1_555 1_555
C15 C16 1_555 1_555
C16 H9 1_555 1_555
C17 C16 1_555 1_555
H10 C17 1_555 1_555
C18 C17 1_555 1_555
C19 C18 1_555 1_555
H11 C19 1_555 1_555
C20 C15 1_555 1_555
H12 C20 1_555 1_555
C21 O7 1_555 1_555
C22 H13 1_555 1_555
H14 C22 1_555 1_555
H15 C22 1_555 1_555
C23 O10 1_555 1_555
C24 H16 1_555 1_555
H17 C24 1_555 1_555
H18 C24 1_555 1_555
C25 H19 1_555 1_555
H20 C25 1_555 1_555
H21 C25 1_555 1_555
N1 C23 1_555 1_555
O11 C27 1_555 1_555
C26 H22 1_555 1_555
H23 C26 1_555 1_555
H24 C26 1_555 1_555
C27 C26 1_555 1_555
C28 H25 1_555 1_555
H26 C28 1_555 1_555
H27 C28 1_555 1_555
C29 H28 1_555 1_555
H29 C29 1_555 1_555
H30 C29 1_555 1_555
N2 C27 1_555 1_555
O7A C21A 1_555 1_555
O8A C21A 1_555 1_555
C15A O9 1_555 1_555
C16A C15A 1_555 1_555
H9A C16A 1_555 1_555
C17A C16A 1_555 1_555
H10A C17A 1_555 1_555
C18A C17A 1_555 1_555
C19A C18A 1_555 1_555
H11A C19A 1_555 1_555
C20A C15A 1_555 1_555
H12A C20A 1_555 1_555
C21A C18A 1_555 1_555
Mg2A O7A 1_555 1_555
O1A Mg2A 1_555 1_555
O2A Mg2A 1_555 1_555
O3A C13A 1_555 1_555
O4A C14A 1_555 1_555
O5A C14A 1_555 1_555
O6A C1A 1_555 1_555
O10A Mg2A 1_555 1_555
C1A C2A 1_555 1_555
C2A H1A 1_555 1_555
C3A C2A 1_555 1_555
H2A C3A 1_555 1_555
C4A C3A 1_555 1_555
C5A C4A 1_555 1_555
H3A C5A 1_555 1_555
C6A C1A 1_555 1_555
H4A C6A 1_555 1_555
C7A O6A 1_555 1_555
C8A C7A 1_555 1_555
H5A C8A 1_555 1_555
C9A C8A 1_555 1_555
H6A C9A 1_555 1_555
C10A C9A 1_555 1_555
C11A C10A 1_555 1_555
H7A C11A 1_555 1_555
C12A C7A 1_555 1_555
H8A C12A 1_555 1_555
C13A O1A 1_555 1_555
C14A C10A 1_555 1_555
C22A H13A 1_555 1_555
H14A C22A 1_555 1_555
H15A C22A 1_555 1_555
C23A O10A 1_555 1_555
C24A H16A 1_555 1_555
H17A C24A 1_555 1_555
H18A C24A 1_555 1_555
C25A H19A 1_555 1_555
H20A C25A 1_555 1_555
H21A C25A 1_555 1_555
N1A C23A 1_555 1_555
Mg1A O7A 1_555 1_555
Mg1B O4A 1_555 1_555
Mg1C O4 1_555 1_555
Mg2F O5A 1_555 1_555
Mg2G O5 1_555 1_555
O3D Mg1 1_555 1_555
O4C Mg1 1_555 1_555
O4G Mg1 1_555 1_555
O5F Mg2A 1_555 1_555
O5G Mg2 1_555 1_555
O7D Mg1 1_555 1_555
Mg2 O7 1_555 1_555
O8 C21 1_555 1_555
C5 C6 1_555 1_555
C11 C12 1_555 1_555
C18 C21 1_555 1_555
C19 C20 1_555 1_555
C22 C23 1_555 1_555
C24 N1 1_555 1_555
C25 N1 1_555 1_555
C28 N2 1_555 1_555
C29 N2 1_555 1_555
O8A Mg2A 1_555 1_555
C19A C20A 1_555 1_555
O3A Mg1A 1_555 1_555
C4A C13A 1_555 1_555
C5A C6A 1_555 1_555
C11A C12A 1_555 1_555
C22A C23A 1_555 1_555
C24A N1A 1_555 1_555
C25A N1A 1_555 1_555

#END
