
#######################################################################
#
#                 Cambridge Crystallographic Data Centre
#                                CCDC 
#
#######################################################################
#
# If this CIF has been generated from an entry in the Cambridge 
# Structural Database, then it will include bibliographic, chemical, 
# crystal, experimental, refinement or atomic coordinate data resulting 
# from the CCDC's data processing and validation procedures.
#
#######################################################################

data_TIYYAC
_symmetry_cell_setting           monoclinic
_symmetry_space_group_name_H-M   'C 2/c'
_symmetry_Int_Tables_number      15
_space_group_name_Hall           '-C 2yn'
loop_
_symmetry_equiv_pos_site_id
_symmetry_equiv_pos_as_xyz
1 x,y,z
2 1/2+x,1/2+y,z
3 -x,y,1/2-z
4 1/2-x,1/2+y,1/2-z
5 -x,-y,-z
6 1/2-x,1/2-y,-z
7 x,-y,1/2+z
8 1/2+x,1/2-y,1/2+z
_cell_length_a                   20.714(7)
_cell_length_b                   14.000(7)
_cell_length_c                   18.362(8)
_cell_angle_alpha                90
_cell_angle_beta                 115.058(10)
_cell_angle_gamma                90
_cell_volume                     4823.72
loop_
_atom_site_label
_atom_site_type_symbol
_atom_site_fract_x
_atom_site_fract_y
_atom_site_fract_z
Cd1 Cd 0.203354(11) 0.357775(16) 0.183697(12)
C1 C 0.19692(18) 0.4403(3) 0.0069(2)
H1 H 0.2116 0.4962 0.0367
C2 C 0.19026(18) 0.4408(3) -0.0710(2)
H2 H 0.1997 0.4959 -0.0931
C3 C 0.16938(19) 0.3584(3) -0.1153(2)
H3 H 0.1641 0.3567 -0.1681
C4 C 0.15638(19) 0.2779(3) -0.08007(19)
H4 H 0.1429 0.2210 -0.1087
C5 C 0.16365(16) 0.2829(2) -0.00174(18)
C6 C 0.15273(18) 0.1982(2) 0.03896(19)
C7 C 0.1229(2) 0.1092(3) 0.0087(2)
H5 H 0.1024 0.0895 -0.0447
C8 C 0.1306(2) 0.0575(3) 0.0752(3)
H6 H 0.1162 -0.0053 0.0757
C9 C 0.0378(2) 0.2743(3) 0.1406(4)
H7 H 0.0625 0.2167 0.1542
C10 C -0.0346(3) 0.2723(5) 0.1146(6)
H8 H -0.0588 0.2153 0.1113
C11 C -0.0697(3) 0.3572(5) 0.0938(9)
H9 H -0.1192 0.3588 0.0733
C12 C -0.0317(3) 0.4409(4) 0.1032(7)
H10 H -0.0553 0.4993 0.0914
C13 C 0.0407(2) 0.4377(3) 0.1298(4)
C14 C 0.08354(18) 0.5235(3) 0.1414(3)
C15 C 0.0654(2) 0.6201(3) 0.1374(3)
H11 H 0.0207 0.6460 0.1255
C16 C 0.1271(2) 0.6679(3) 0.1544(3)
H12 H 0.1328 0.7339 0.1568
C17 C 0.22905(17) 0.3057(3) 0.33908(19)
C18 C 0.24085(16) 0.2762(2) 0.42308(17)
C19 C 0.27774(17) 0.3354(2) 0.48841(19)
H13 H 0.2966 0.3928 0.4808
C20 C 0.21346(16) 0.1906(2) 0.43539(18)
H14 H 0.1890 0.1504 0.3921
C21 C 0.34997(15) 0.4417(2) 0.22195(17)
C22 C 0.42837(15) 0.4416(2) 0.23759(17)
C23 C 0.46491(15) 0.3568(2) 0.24455(18)
H15 H 0.4419 0.2990 0.2418
C24 C 0.46460(17) 0.5272(2) 0.2435(2)
H16 H 0.4409 0.5850 0.2388
N1 N 0.18353(14) 0.36378(19) 0.04204(15)
N2 N 0.17658(15) 0.2005(2) 0.11854(16)
N3 N 0.16240(16) 0.1136(2) 0.13904(19)
H17 H 0.1726 0.0963 0.1876
N4 N 0.07495(15) 0.3542(2) 0.1476(2)
N5 N 0.15268(13) 0.51417(19) 0.16048(16)
N6 N 0.17762(15) 0.6037(2) 0.16710(17)
H18 H 0.2212 0.6177 0.1783
O1 O 0.21107(13) 0.24287(17) 0.28607(13)
O2 O 0.23751(14) 0.39110(18) 0.32608(14)
O3 O 0.32098(11) 0.36076(16) 0.21379(14)
O4 O 0.31973(11) 0.52021(17) 0.21637(15)
Cd1E Cd 0.296646(11) 0.142225(16) 0.816303(12)
Cd1B Cd 0.796646(11) 0.357775(16) 0.316303(12)
C1E C 0.30308(18) 0.0597(3) 0.9931(2)
H1E H 0.2884 0.0038 0.9633
C2E C 0.30974(18) 0.0592(3) 1.0710(2)
H2E H 0.3003 0.0041 1.0931
C3E C 0.33062(19) 0.1416(3) 1.1153(2)
H3E H 0.3359 0.1433 1.1681
C4E C 0.34362(19) 0.2221(3) 1.08007(19)
H4E H 0.3571 0.2790 1.1087
C5E C 0.33635(16) 0.2171(2) 1.00174(18)
C6E C 0.34727(18) 0.3018(2) 0.96104(19)
C7E C 0.3771(2) 0.3908(3) 0.9913(2)
H5E H 0.3976 0.4105 1.0447
C8E C 0.3694(2) 0.4425(3) 0.9248(3)
H6E H 0.3838 0.5053 0.9243
C9E C 0.4622(2) 0.2257(3) 0.8594(4)
H7E H 0.4375 0.2833 0.8458
C10E C 0.5346(3) 0.2277(5) 0.8854(6)
H8E H 0.5588 0.2847 0.8887
C11E C 0.5697(3) 0.1428(5) 0.9062(9)
H9E H 0.6192 0.1412 0.9267
C12E C 0.5317(3) 0.0591(4) 0.8968(7)
H10E H 0.5553 0.0007 0.9086
C13E C 0.4593(2) 0.0623(3) 0.8702(4)
C14E C 0.41646(18) -0.0235(3) 0.8586(3)
C15E C 0.4346(2) -0.1201(3) 0.8626(3)
H11E H 0.4793 -0.1460 0.8745
C16E C 0.3729(2) -0.1679(3) 0.8456(3)
H12E H 0.3672 -0.2339 0.8432
C17E C 0.27095(17) 0.1943(3) 0.66092(19)
C18E C 0.25915(16) 0.2238(2) 0.57692(17)
C19E C 0.22226(17) 0.1646(2) 0.51159(19)
H13E H 0.2034 0.1072 0.5192
C20E C 0.28654(16) 0.3094(2) 0.56461(18)
H14E H 0.3110 0.3496 0.6079
C21B C 0.65003(15) 0.4417(2) 0.27805(17)
C22B C 0.57163(15) 0.4416(2) 0.26241(17)
C23B C 0.53509(15) 0.3568(2) 0.25545(18)
H15B H 0.5581 0.2990 0.2582
C24B C 0.53540(17) 0.5272(2) 0.2565(2)
H16B H 0.5591 0.5850 0.2612
N1E N 0.31647(14) 0.13622(19) 0.95796(15)
N2E N 0.32342(15) 0.2995(2) 0.88146(16)
N3E N 0.33760(16) 0.3864(2) 0.86096(19)
H17E H 0.3274 0.4037 0.8124
N4E N 0.42505(15) 0.1458(2) 0.8524(2)
N5E N 0.34732(13) -0.01417(19) 0.83952(16)
N6E N 0.32238(15) -0.1037(2) 0.83290(17)
H18E H 0.2788 -0.1177 0.8217
O1E O 0.28893(13) 0.25713(17) 0.71393(13)
O2E O 0.26249(14) 0.10890(18) 0.67392(14)
O3B O 0.67902(11) 0.36076(16) 0.28621(14)
O3E O 0.17902(11) 0.13924(16) 0.78621(14)
O4B O 0.68027(11) 0.52021(17) 0.28363(15)
loop_
_geom_bond_atom_site_label_1
_geom_bond_atom_site_label_2
_geom_bond_site_symmetry_1
_geom_bond_site_symmetry_2
Cd1 N1 1_555 1_555
C1 H1 1_555 1_555
C2 C1 1_555 1_555
H2 C2 1_555 1_555
C3 C2 1_555 1_555
H3 C3 1_555 1_555
C4 C3 1_555 1_555
H4 C4 1_555 1_555
C5 C4 1_555 1_555
C6 C5 1_555 1_555
C7 C6 1_555 1_555
H5 C7 1_555 1_555
C8 C7 1_555 1_555
H6 C8 1_555 1_555
C9 H7 1_555 1_555
C10 C9 1_555 1_555
H8 C10 1_555 1_555
C11 C10 1_555 1_555
H9 C11 1_555 1_555
C12 C11 1_555 1_555
H10 C12 1_555 1_555
C13 C12 1_555 1_555
C14 C13 1_555 1_555
C15 C14 1_555 1_555
H11 C15 1_555 1_555
C16 C15 1_555 1_555
H12 C16 1_555 1_555
C17 C18 1_555 1_555
C18 C19 1_555 1_555
C19 H13 1_555 1_555
C20 C18 1_555 1_555
H14 C20 1_555 1_555
C21 C22 1_555 1_555
C22 C23 1_555 1_555
C23 H15 1_555 1_555
C24 C22 1_555 1_555
H16 C24 1_555 1_555
N1 C1 1_555 1_555
N2 Cd1 1_555 1_555
N3 C8 1_555 1_555
H17 N3 1_555 1_555
N4 Cd1 1_555 1_555
N5 Cd1 1_555 1_555
N6 C16 1_555 1_555
H18 N6 1_555 1_555
O1 Cd1 1_555 1_555
O2 Cd1 1_555 1_555
O3 Cd1 1_555 1_555
O4 C21 1_555 1_555
Cd1E N1E 1_555 1_555
Cd1B O3B 1_555 1_555
C1E H1E 1_555 1_555
C2E C1E 1_555 1_555
H2E C2E 1_555 1_555
C3E C2E 1_555 1_555
H3E C3E 1_555 1_555
C4E C3E 1_555 1_555
H4E C4E 1_555 1_555
C5E C4E 1_555 1_555
C6E C5E 1_555 1_555
C7E C6E 1_555 1_555
H5E C7E 1_555 1_555
C8E C7E 1_555 1_555
H6E C8E 1_555 1_555
C9E H7E 1_555 1_555
C10E C9E 1_555 1_555
H8E C10E 1_555 1_555
C11E C10E 1_555 1_555
H9E C11E 1_555 1_555
C12E C11E 1_555 1_555
H10E C12E 1_555 1_555
C13E C12E 1_555 1_555
C14E C13E 1_555 1_555
C15E C14E 1_555 1_555
H11E C15E 1_555 1_555
C16E C15E 1_555 1_555
H12E C16E 1_555 1_555
C17E C18E 1_555 1_555
C18E C19E 1_555 1_555
C19E C20 1_555 1_555
H13E C19E 1_555 1_555
C20E C19 1_555 1_555
H14E C20E 1_555 1_555
C21B C22B 1_555 1_555
C22B C23B 1_555 1_555
C23B C23 1_555 1_555
H15B C23B 1_555 1_555
C24B C24 1_555 1_555
H16B C24B 1_555 1_555
N1E C1E 1_555 1_555
N2E Cd1E 1_555 1_555
N3E C8E 1_555 1_555
H17E N3E 1_555 1_555
N4E Cd1E 1_555 1_555
N5E Cd1E 1_555 1_555
N6E C16E 1_555 1_555
H18E N6E 1_555 1_555
O1E Cd1E 1_555 1_555
O2E Cd1E 1_555 1_555
O3B C21B 1_555 1_555
O3E Cd1E 1_555 1_555
O4B C21B 1_555 1_555
C5 N1 1_555 1_555
C6 N2 1_555 1_555
C9 N4 1_555 1_555
C13 N4 1_555 1_555
C14 N5 1_555 1_555
C17 O1 1_555 1_555
C17 O2 1_555 1_555
C21 O3 1_555 1_555
N2 N3 1_555 1_555
N5 N6 1_555 1_555
C5E N1E 1_555 1_555
C6E N2E 1_555 1_555
C9E N4E 1_555 1_555
C13E N4E 1_555 1_555
C14E N5E 1_555 1_555
C17E O1E 1_555 1_555
C17E O2E 1_555 1_555
C18E C20E 1_555 1_555
C22B C24B 1_555 1_555
N2E N3E 1_555 1_555
N5E N6E 1_555 1_555

#END
