
#######################################################################
#
#                 Cambridge Crystallographic Data Centre
#                                CCDC 
#
#######################################################################
#
# If this CIF has been generated from an entry in the Cambridge 
# Structural Database, then it will include bibliographic, chemical, 
# crystal, experimental, refinement or atomic coordinate data resulting 
# from the CCDC's data processing and validation procedures.
#
#######################################################################

data_TIYZAD
_symmetry_cell_setting           orthorhombic
_symmetry_space_group_name_H-M   'P b c n'
_symmetry_Int_Tables_number      60
_space_group_name_Hall           '-P 2n 2ab'
loop_
_symmetry_equiv_pos_site_id
_symmetry_equiv_pos_as_xyz
1 x,y,z
2 1/2-x,1/2-y,1/2+z
3 -x,y,1/2-z
4 1/2+x,1/2-y,-z
5 -x,-y,-z
6 1/2+x,1/2+y,1/2-z
7 x,-y,1/2+z
8 1/2-x,1/2+y,z
_cell_length_a                   12.116(2)
_cell_length_b                   10.393(2)
_cell_length_c                   18.673(4)
_cell_angle_alpha                90
_cell_angle_beta                 90
_cell_angle_gamma                90
_cell_volume                     2351.33
loop_
_atom_site_label
_atom_site_type_symbol
_atom_site_fract_x
_atom_site_fract_y
_atom_site_fract_z
Zn1 Zn 0.0000 0.18872(3) 0.2500
C1 C -0.0637(2) -0.0350(3) 0.36916(16)
H1 H -0.1350 -0.0025 0.3657
C2 C -0.0461(3) -0.1413(4) 0.4109(2)
H2 H -0.1038 -0.1786 0.4363
C3 C 0.0584(3) -0.1917(4) 0.4145(2)
H3 H 0.0720 -0.2654 0.4414
C4 C 0.1429(3) -0.1322(3) 0.3780(2)
H4 H 0.2143 -0.1648 0.3797
C5 C 0.1192(2) -0.0229(3) 0.33883(14)
C6 C 0.2024(2) 0.0464(2) 0.29738(13)
C7 C 0.3146(2) 0.0257(3) 0.28553(16)
H5 H 0.3591 -0.0374 0.3058
C8 C 0.3444(2) 0.1179(3) 0.23778(15)
H6 H 0.4143 0.1290 0.2183
C9 C 0.08392(19) 0.3625(2) 0.12340(12)
C10 C 0.03988(19) 0.4348(2) 0.05977(12)
C11 C -0.06800(19) 0.4192(2) 0.03802(12)
H7 H -0.1144 0.3646 0.0635
C12 C 0.1081(2) 0.5163(2) 0.02117(13)
H8 H 0.1812 0.5276 0.0352
N1 N 0.01649(16) 0.0236(2) 0.33342(12)
N2 N 0.16806(16) 0.1472(2) 0.25974(10)
N3 N 0.25566(17) 0.1896(2) 0.22379(12)
H9 H 0.2551 0.2546 0.1953
O1 O 0.01410(13) 0.31973(16) 0.16718(9)
O2 O 0.18577(15) 0.3508(2) 0.12714(11)
Zn1F Zn 0.0000 0.81128(3) -0.2500
C1B C 0.0637(2) -0.0350(3) 0.13084(16)
H1B H 0.1350 -0.0025 0.1343
C2B C 0.0461(3) -0.1413(4) 0.0891(2)
H2B H 0.1038 -0.1786 0.0637
C3B C -0.0584(3) -0.1917(4) 0.0855(2)
H3B H -0.0720 -0.2654 0.0586
C4B C -0.1429(3) -0.1322(3) 0.1220(2)
H4B H -0.2143 -0.1648 0.1203
C5B C -0.1192(2) -0.0229(3) 0.16117(14)
C6B C -0.2024(2) 0.0464(2) 0.20262(13)
C7B C -0.3146(2) 0.0257(3) 0.21447(16)
H5B H -0.3591 -0.0374 0.1942
C8B C -0.3444(2) 0.1179(3) 0.26222(15)
H6B H -0.4143 0.1290 0.2817
C9D C -0.08392(19) 0.6375(2) -0.12340(12)
C10D C -0.03988(19) 0.5652(2) -0.05977(12)
C11D C 0.06800(19) 0.5808(2) -0.03802(12)
H7D H 0.1144 0.6354 -0.0635
C12D C -0.1081(2) 0.4837(2) -0.02117(13)
H8D H -0.1812 0.4724 -0.0352
N1B N -0.01649(16) 0.0236(2) 0.16658(12)
N2B N -0.16806(16) 0.1472(2) 0.24026(10)
N3B N -0.25566(17) 0.1896(2) 0.27621(12)
H9B H -0.2551 0.2546 0.3047
O1D O -0.01410(13) 0.68027(16) -0.16718(9)
O1B O -0.01410(13) 0.31973(16) 0.33282(9)
O2D O -0.18577(15) 0.6492(2) -0.12714(11)
loop_
_geom_bond_atom_site_label_1
_geom_bond_atom_site_label_2
_geom_bond_site_symmetry_1
_geom_bond_site_symmetry_2
Zn1 N1 1_555 1_555
C1 H1 1_555 1_555
C2 C1 1_555 1_555
H2 C2 1_555 1_555
C3 C2 1_555 1_555
H3 C3 1_555 1_555
C4 C3 1_555 1_555
H4 C4 1_555 1_555
C5 C4 1_555 1_555
C6 C5 1_555 1_555
C7 C6 1_555 1_555
H5 C7 1_555 1_555
C8 C7 1_555 1_555
H6 C8 1_555 1_555
C9 C10 1_555 1_555
C10 C11 1_555 1_555
C11 H7 1_555 1_555
C12 C10 1_555 1_555
H8 C12 1_555 1_555
N1 C1 1_555 1_555
N2 Zn1 1_555 1_555
N3 C8 1_555 1_555
H9 N3 1_555 1_555
O1 Zn1 1_555 1_555
O2 C9 1_555 1_555
Zn1F O1D 1_555 1_555
C1B H1B 1_555 1_555
C2B C1B 1_555 1_555
H2B C2B 1_555 1_555
C3B C2B 1_555 1_555
H3B C3B 1_555 1_555
C4B C3B 1_555 1_555
H4B C4B 1_555 1_555
C5B C4B 1_555 1_555
C6B C5B 1_555 1_555
C7B C6B 1_555 1_555
H5B C7B 1_555 1_555
C8B C7B 1_555 1_555
H6B C8B 1_555 1_555
C9D C10D 1_555 1_555
C10D C11D 1_555 1_555
C11D C12 1_555 1_555
H7D C11D 1_555 1_555
C12D C11 1_555 1_555
H8D C12D 1_555 1_555
N1B Zn1 1_555 1_555
N2B Zn1 1_555 1_555
N3B C8B 1_555 1_555
H9B N3B 1_555 1_555
O1D C9D 1_555 1_555
O1B Zn1 1_555 1_555
O2D C9D 1_555 1_555
C5 N1 1_555 1_555
C6 N2 1_555 1_555
C9 O1 1_555 1_555
N2 N3 1_555 1_555
C1B N1B 1_555 1_555
C5B N1B 1_555 1_555
C6B N2B 1_555 1_555
C10D C12D 1_555 1_555
N2B N3B 1_555 1_555

#END
