
#######################################################################
#
#                 Cambridge Crystallographic Data Centre
#                                CCDC 
#
#######################################################################
#
# If this CIF has been generated from an entry in the Cambridge 
# Structural Database, then it will include bibliographic, chemical, 
# crystal, experimental, refinement or atomic coordinate data resulting 
# from the CCDC's data processing and validation procedures.
#
#######################################################################

data_TIZDIQ
_symmetry_cell_setting           monoclinic
_symmetry_space_group_name_H-M   'P 21/n'
_symmetry_Int_Tables_number      14
_space_group_name_Hall           '-P 2yn'
loop_
_symmetry_equiv_pos_site_id
_symmetry_equiv_pos_as_xyz
1 x,y,z
2 1/2-x,1/2+y,1/2-z
3 -x,-y,-z
4 1/2+x,1/2-y,1/2+z
_cell_length_a                   9.2408(10)
_cell_length_b                   7.5675(8)
_cell_length_c                   22.839(2)
_cell_angle_alpha                90
_cell_angle_beta                 97.618(2)
_cell_angle_gamma                90
_cell_volume                     1583.03
loop_
_atom_site_label
_atom_site_type_symbol
_atom_site_fract_x
_atom_site_fract_y
_atom_site_fract_z
Cd1 Cd 0.81744(3) 0.74487(4) 0.182519(16)
Cl1 Cl 0.73659(15) 0.62344(18) 0.27543(6)
N1 N 1.0565(5) 0.7933(7) 0.2137(2)
N2 N 1.2872(4) 0.8154(6) 0.2036(2)
N3 N 1.5867(4) 0.6591(5) 0.12035(17)
N4 N 1.8005(4) 0.9263(6) 0.10065(18)
H1 H 1.8428 1.0313 0.1104
H2 H 1.8465 0.8766 0.0724
N5 N 1.8708(5) 0.4769(7) 0.1396(2)
H3 H 1.9610 0.4811 0.1288
H4 H 1.8686 0.3887 0.1660
C1 C 1.6452(5) 0.9513(7) 0.0788(2)
H5 H 1.6352 1.0178 0.0422
H6 H 1.5988 1.0180 0.1075
C2 C 1.5707(6) 0.7724(7) 0.0684(2)
H7 H 1.4676 0.7911 0.0555
H8 H 1.6113 0.7122 0.0368
C3 C 1.7642(7) 0.4439(8) 0.0883(3)
H9 H 1.7731 0.3230 0.0751
H10 H 1.7820 0.5222 0.0564
C4 C 1.6145(6) 0.4741(7) 0.1036(3)
H11 H 1.5441 0.4418 0.0699
H12 H 1.5992 0.3970 0.1361
C5 C 1.4548(5) 0.6588(7) 0.1511(2)
H13 H 1.4702 0.5770 0.1841
H14 H 1.3724 0.6162 0.1241
C6 C 1.4179(5) 0.8354(7) 0.1736(3)
H15 H 1.4988 0.8800 0.2011
H16 H 1.3987 0.9183 0.1411
C7 C 1.1516(5) 0.8275(8) 0.1771(2)
H17 H 1.1264 0.8566 0.1375
C8 C 1.1397(6) 0.7602(6) 0.2669(3)
H18 H 1.1030 0.7334 0.3019
C9 C 1.2811(6) 0.7723(7) 0.2610(3)
H19 H 1.3597 0.7548 0.2903
Cd1_2 Cd 1.81744(3) 0.74487(4) 0.182519(16)
N3_2 N 0.5867(4) 0.6591(5) 0.12035(17)
N4_2 N 0.8005(4) 0.9263(6) 0.10065(18)
H1_2 H 0.8428 1.0313 0.1104
H2_2 H 0.8465 0.8766 0.0724
N5_2 N 0.8708(5) 0.4769(7) 0.1396(2)
H3_2 H 0.9610 0.4811 0.1288
H4_2 H 0.8686 0.3887 0.1660
F1 F 0.3817(9) 0.7411(9) 0.4906(3)
F2 F 0.1949(7) 0.6909(12) 0.4195(4)
F4 F 0.4278(6) 0.6716(9) 0.4006(2)
F5 F 0.3418(11) 0.9152(11) 0.4198(5)
B1 B 0.3373(11) 0.7304(14) 0.4353(4)
O1 O 0.176(3) 0.764(2) 0.0378(11)
Cl2? Cl 0.745(4) 0.872(5) 0.277(2)
F3? F 0.304(4) 0.552(3) 0.4490(15)
loop_
_geom_bond_atom_site_label_1
_geom_bond_atom_site_label_2
_geom_bond_site_symmetry_1
_geom_bond_site_symmetry_2
Cd1 Cl1 1_555 1_555
N1 Cd1 1_555 1_555
N2 C6 1_555 1_555
N3 C2 1_555 1_555
N4 H1 1_555 1_555
H2 N4 1_555 1_555
N5 H3 1_555 1_555
H4 N5 1_555 1_555
C1 N4 1_555 1_555
H5 C1 1_555 1_555
H6 C1 1_555 1_555
C2 C1 1_555 1_555
H7 C2 1_555 1_555
H8 C2 1_555 1_555
C3 N5 1_555 1_555
H9 C3 1_555 1_555
H10 C3 1_555 1_555
C4 N3 1_555 1_555
H11 C4 1_555 1_555
H12 C4 1_555 1_555
C5 N3 1_555 1_555
H13 C5 1_555 1_555
H14 C5 1_555 1_555
C6 C5 1_555 1_555
H15 C6 1_555 1_555
H16 C6 1_555 1_555
C7 N1 1_555 1_555
H17 C7 1_555 1_555
C8 N1 1_555 1_555
H18 C8 1_555 1_555
C9 N2 1_555 1_555
H19 C9 1_555 1_555
F1 B1 1_555 1_555
F2 B1 1_555 1_555
F4 B1 1_555 1_555
F5 B1 1_555 1_555
Cd1_2 N3 1_555 1_555
N3_2 Cd1 1_555 1_555
N4_2 Cd1 1_555 1_555
H1_2 N4_2 1_555 1_555
H2_2 N4_2 1_555 1_555
N5_2 Cd1 1_555 1_555
H3_2 N5_2 1_555 1_555
H4_2 N5_2 1_555 1_555
N2 C7 1_555 1_555
N4 Cd1_2 1_555 1_555
N5 Cd1_2 1_555 1_555
C3 C4 1_555 1_555
C8 C9 1_555 1_555

#END
