
#######################################################################
#
#                 Cambridge Crystallographic Data Centre
#                                CCDC 
#
#######################################################################
#
# If this CIF has been generated from an entry in the Cambridge 
# Structural Database, then it will include bibliographic, chemical, 
# crystal, experimental, refinement or atomic coordinate data resulting 
# from the CCDC's data processing and validation procedures.
#
#######################################################################

data_TIZHUH
_symmetry_cell_setting           hexagonal
_symmetry_space_group_name_H-M   'P 65 2 2'
_symmetry_Int_Tables_number      179
_space_group_name_Hall           "P 65 2' (0,0,1)"
loop_
_symmetry_equiv_pos_site_id
_symmetry_equiv_pos_as_xyz
1 x,y,z
2 x-y,x,5/6+z
3 -y,x-y,2/3+z
4 -x,-y,1/2+z
5 -x+y,-x,1/3+z
6 y,-x+y,1/6+z
7 -y,-x,1/6-z
8 x-y,-y,-z
9 x,x-y,5/6-z
10 y,x,2/3-z
11 -x+y,y,1/2-z
12 -x,-x+y,1/3-z
_cell_length_a                   11.6233(5)
_cell_length_b                   11.6233(5)
_cell_length_c                   27.808(2)
_cell_angle_alpha                90
_cell_angle_beta                 90
_cell_angle_gamma                120
_cell_volume                     3253.56
loop_
_atom_site_label
_atom_site_type_symbol
_atom_site_fract_x
_atom_site_fract_y
_atom_site_fract_z
Sm1 Sm 0.0000 0.15619(3) 0.1667
Na1 Na 0.22642(19) 0.4528(4) 0.2500
O1 O 0.1236(5) 0.2858(5) 0.09635(15)
O2 O 0.0550(6) 0.0198(6) 0.12054(18)
O3 O -0.0290(4) 0.2094(5) 0.03846(16)
O4 O 0.0906(5) 0.3965(5) 0.18826(17)
O5 O 0.0000 0.5325(16) 0.1667
N1 N 0.3733(8) 0.5754(8) -0.0421(2)
N2 N 0.2597(7) -0.2597(7) 0.0833
N3 N 0.0000 0.4038(9) 0.1667
C1 C 0.0861(6) 0.2849(6) 0.0541(2)
C2 C 0.1870(7) 0.3868(7) 0.0199(2)
C3 C 0.1560(9) 0.3904(7) -0.0274(2)
H1 H 0.0721 0.3313 -0.0394
C4 C 0.2547(10) 0.4858(9) -0.0569(3)
H2 H 0.2349 0.4859 -0.0893
C5 C 0.3983(9) 0.5697(10) 0.0040(3)
H3 H 0.4819 0.6313 0.0157
C6 C 0.3083(9) 0.4783(9) 0.0357(3)
H4 H 0.3309 0.4795 0.0678
C7 C 0.0469(5) -0.0469(5) 0.0833
C8 C 0.1217(5) -0.1217(5) 0.0833
C9 C 0.1199(12) -0.1943(12) 0.0441(4)
H5 H 0.0777 -0.1930 0.0159
C10 C 0.1814(19) -0.2687(19) 0.0471(6)
H6 H 0.1675 -0.3286 0.0225
O2F O -0.0198(6) -0.0550(6) 0.04613(18)
C9F C 0.1943(12) -0.1199(12) 0.1226(4)
H5F H 0.1930 -0.0777 0.1508
C10F C 0.2687(19) -0.1814(19) 0.1196(6)
H6F H 0.3286 -0.1675 0.1442
O4K O -0.0906(5) 0.3059(7) 0.14507(17)
O1F O -0.2858(5) -0.1236(5) 0.07032(15)
O3F O -0.2094(5) 0.0290(4) 0.12821(16)
N1F N -0.5754(8) -0.3733(8) 0.2088(2)
C1F C -0.2849(6) -0.0861(6) 0.1126(2)
C2F C -0.3868(7) -0.1870(7) 0.1468(2)
C3F C -0.3904(7) -0.1560(9) 0.1941(2)
H1F H -0.3313 -0.0721 0.2061
C4F C -0.4858(9) -0.2547(10) 0.2236(3)
H2F H -0.4859 -0.2349 0.2560
C5F C -0.5697(10) -0.3983(9) 0.1627(3)
H3F H -0.6313 -0.4819 0.1510
C6F C -0.4783(9) -0.3083(9) 0.1310(3)
H4F H -0.4795 -0.3309 0.0989
Sm1A Sm -0.15619(3) 0.0000 0.0000
Na1_2 Na -0.77358(19) -0.5472(4) 0.2500
Na1A Na -0.22638(44) 0.22642(19) 0.0833
Na1B Na 0.5472(4) 0.77362(44) -0.0833
O1K O -0.1236(5) 0.1622(7) 0.23698(15)
O2K O -0.0550(6) -0.0352(8) 0.21279(18)
O3E O 0.2094(5) 0.2384(6) 0.20513(16)
O3K O 0.0290(4) 0.2384(6) 0.29487(16)
O4J O 0.3059(7) 0.3965(5) 0.31174(17)
N1D N 0.2021(11) 0.6267(8) 0.2912(2)
N1F_2 N 0.4246(8) 0.6267(8) 0.2088(2)
loop_
_geom_bond_atom_site_label_1
_geom_bond_atom_site_label_2
_geom_bond_site_symmetry_1
_geom_bond_site_symmetry_2
Sm1 O1 1_555 1_555
Na1 O4 1_555 1_555
O1 C1 1_555 1_555
O2 Sm1 1_555 1_555
O3 C1 1_555 1_555
O4 Sm1 1_555 1_555
O5 N3 1_555 1_555
N1 C4 1_555 1_555
N2 C10 1_555 1_555
N3 O4 1_555 1_555
C1 C2 1_555 1_555
C2 C3 1_555 1_555
C3 H1 1_555 1_555
C4 C3 1_555 1_555
H2 C4 1_555 1_555
C5 N1 1_555 1_555
H3 C5 1_555 1_555
C6 C2 1_555 1_555
H4 C6 1_555 1_555
C7 O2 1_555 1_555
C8 C7 1_555 1_555
C9 C8 1_555 1_555
H5 C9 1_555 1_555
C10 C9 1_555 1_555
H6 C10 1_555 1_555
O2F C7 1_555 1_555
C9F C8 1_555 1_555
H5F C9F 1_555 1_555
C10F N2 1_555 1_555
H6F C10F 1_555 1_555
O4K Sm1 1_555 1_555
O1F C1F 1_555 1_555
O3F Sm1 1_555 1_555
N1F C4F 1_555 1_555
C1F O3F 1_555 1_555
C2F C1F 1_555 1_555
C3F C2F 1_555 1_555
H1F C3F 1_555 1_555
C4F C3F 1_555 1_555
H2F C4F 1_555 1_555
C5F N1F 1_555 1_555
H3F C5F 1_555 1_555
C6F C2F 1_555 1_555
H4F C6F 1_555 1_555
Sm1A O3 1_555 1_555
Na1_2 N1F 1_555 1_555
Na1A O3 1_555 1_555
Na1B N1 1_555 1_555
O1K Sm1 1_555 1_555
O2K Sm1 1_555 1_555
O3E Sm1 1_555 1_555
O3K Na1 1_555 1_555
O4J Na1 1_555 1_555
N1D Na1 1_555 1_555
N1F_2 Na1 1_555 1_555
Na1 O3E 1_555 1_555
N3 O4K 1_555 1_555
C5 C6 1_555 1_555
O2F Sm1A 1_555 1_555
C9F C10F 1_555 1_555
O4K Na1A 1_555 1_555
O1F Sm1A 1_555 1_555
O3F Na1A 1_555 1_555
C5F C6F 1_555 1_555

#END
