
#######################################################################
#
#                 Cambridge Crystallographic Data Centre
#                                CCDC 
#
#######################################################################
#
# If this CIF has been generated from an entry in the Cambridge 
# Structural Database, then it will include bibliographic, chemical, 
# crystal, experimental, refinement or atomic coordinate data resulting 
# from the CCDC's data processing and validation procedures.
#
#######################################################################

data_TIZJIV
_symmetry_cell_setting           monoclinic
_symmetry_space_group_name_H-M   'C c'
_symmetry_Int_Tables_number      9
_space_group_name_Hall           'C -2yc'
loop_
_symmetry_equiv_pos_site_id
_symmetry_equiv_pos_as_xyz
1 x,y,z
2 x,-y,1/2+z
3 1/2+x,1/2+y,z
4 1/2+x,1/2-y,1/2+z
_cell_length_a                   17.377(3)
_cell_length_b                   6.731(1)
_cell_length_c                   38.190(8)
_cell_angle_alpha                90
_cell_angle_beta                 91.48(3)
_cell_angle_gamma                90
_cell_volume                     4465.39
loop_
_atom_site_label
_atom_site_type_symbol
_atom_site_fract_x
_atom_site_fract_y
_atom_site_fract_z
Cd1 Cd -0.20164(4) -0.10130(11) -0.00758(2)
Cd2 Cd -0.50000 -0.40719(12) 0.00000
Cl1 Cl -0.6028(2) -0.5760(5) 0.0406(1)
Cl2 Cl -0.6027(2) -0.4457(5) -0.0499(1)
Cl3 Cl -0.4293(2) -0.7404(5) -0.0060(1)
O1 O -0.4248(4) -0.2513(14) -0.0420(2)
O2 O -0.7537(5) -0.2970(11) 0.0029(2)
O3 O -0.5560(4) -0.0880(10) 0.0061(2)
P1 P -0.8329(2) -1.1567(4) -0.1452(1)
C1 C -0.7143(7) -1.3062(22) -0.1845(3)
C2 C -0.6508(8) -1.4314(23) -0.1898(4)
C3 C -0.6327(9) -1.5728(24) -0.1650(4)
C4 C -0.6681(8) -1.5822(17) -0.1346(4)
C5 C -0.7315(7) -1.4577(17) -0.1286(3)
C6 C -0.7533(6) -1.3209(17) -0.1541(3)
C7 C -0.9551(7) -1.2655(18) -0.1033(3)
C8 C -1.0167(7) -1.3876(18) -0.0943(3)
C9 C -1.0332(8) -1.5522(22) -0.1153(4)
C10 C -0.9945(9) -1.5944(20) -0.1441(5)
C11 C -0.9334(9) -1.4755(24) -0.1525(4)
C12 C -0.9128(6) -1.3073(18) -0.1323(3)
C13 C -0.9279(7) -1.0260(22) -0.2004(3)
C14 C -0.9431(10) -0.9048(28) -0.2283(4)
C15 C -0.8940(11) -0.7638(27) -0.2398(3)
C16 C -0.8212(9) -0.7497(19) -0.2224(3)
C17 C -0.8052(9) -0.8640(21) -0.1945(3)
C18 C -0.8573(7) -1.0063(17) -0.1831(2)
C19 C -0.8060(6) -0.9825(14) -0.1112(2)
C20 C -0.7660(7) -1.0650(14) -0.0781(2)
C21 C -0.7398(5) -0.8993(13) -0.0534(2)
O4 O -0.6965(4) -0.9455(9) -0.0276(2)
O5 O -0.7618(5) -0.7235(11) -0.0587(2)
P2 P -0.3540(2) 0.1788(4) 0.1266(1)
C22 C -0.3954(8) -0.1145(17) 0.1740(3)
C23 C -0.3834(9) -0.2356(19) 0.2016(3)
C24 C -0.3135(8) -0.2438(18) 0.2202(3)
C25 C -0.2526(8) -0.1182(18) 0.2103(3)
C26 C -0.2645(7) 0.0092(19) 0.1810(3)
C27 C -0.3361(6) 0.0143(14) 0.1629(2)
C28 C -0.4570(7) 0.4721(16) 0.1100(3)
C29 C -0.5179(7) 0.5962(16) 0.1159(3)
C30 C -0.5591(8) 0.5876(18) 0.1456(4)
C31 C -0.5367(7) 0.4527(21) 0.1719(3)
C32 C -0.4761(7) 0.3238(20) 0.1665(3)
C33 C -0.4353(6) 0.3331(16) 0.1356(3)
C34 C -0.2438(7) 0.4502(17) 0.1466(3)
C35 C -0.1799(7) 0.5690(19) 0.1428(3)
C36 C -0.1465(7) 0.5856(18) 0.1098(3)
C37 C -0.1759(8) 0.4759(19) 0.0834(3)
C38 C -0.2377(7) 0.3475(17) 0.0870(3)
C39 C -0.2722(6) 0.3369(16) 0.1205(3)
C40 C -0.3798(5) 0.0388(14) 0.0871(2)
C41 C -0.3217(5) -0.1147(14) 0.0746(2)
C42 C -0.3543(5) -0.2112(12) 0.0411(2)
O6 O -0.4217(4) -0.2770(12) 0.0422(2)
O7 O -0.3140(2) -0.2207(3) 0.0153(1)
H1 H -0.7299 -1.2112 -0.2020
H2 H -0.6210 -1.4189 -0.2105
H3 H -0.5928 -1.6673 -0.1697
H4 H -0.6505 -1.6735 -0.1168
H5 H -0.7594 -1.4678 -0.1073
H6 H -0.9425 -1.1511 -0.0893
H7 H -1.0465 -1.3588 -0.0741
H8 H -1.0745 -1.6386 -0.1088
H9 H -1.0089 -1.7061 -0.1584
H10 H -0.9041 -1.5078 -0.1727
H11 H -0.9651 -1.1216 -0.1929
H12 H -0.9916 -0.9203 -0.2407
H13 H -0.9080 -0.6772 -0.2589
H14 H -0.7835 -0.6576 -0.2306
H15 H -0.7567 -0.8484 -0.1822
H16 H -0.8518 -0.9155 -0.1042
H17 H -0.7726 -0.8844 -0.1209
H18 H -0.7223 -1.1424 -0.0848
H19 H -0.8009 -1.1510 -0.0663
H20 H -0.4441 -0.1158 0.1616
H21 H -0.4249 -0.3189 0.2089
H22 H -0.3067 -0.3339 0.2395
H23 H -0.2043 -0.1192 0.2231
H24 H -0.2234 0.0932 0.1735
H25 H -0.4298 0.4799 0.0884
H26 H -0.5320 0.6931 0.0985
H27 H -0.6028 0.6726 0.1486
H28 H -0.5635 0.4495 0.1936
H29 H -0.4620 0.2278 0.1841
H30 H -0.2687 0.4482 0.1687
H31 H -0.1584 0.6404 0.1625
H32 H -0.1036 0.6727 0.1063
H33 H -0.1532 0.4869 0.0608
H34 H -0.2566 0.2686 0.0677
H35 H -0.3886 0.1328 0.0685
H36 H -0.4276 -0.0285 0.0908
H37 H -0.3127 -0.2129 0.0925
H38 H -0.2737 -0.0508 0.0698
H39 H -0.3931 -0.2410 -0.0689
H40 H -0.3837 -0.2420 -0.0200
H41 H -0.8212 -0.2798 0.0004
H42 H -0.7321 -0.1727 -0.0076
H43 H -0.6104 -0.0349 -0.0067
H44 H -0.5139 0.0291 0.0021
Cd1B Cd -0.70164(4) -0.60130(11) -0.00758(2)
O7B O -0.8140(2) -0.7207(3) 0.0153(1)
Cl4 Cl 0.4026 -0.0811 0.2438
O8 O 0.3684 -0.0426 0.2759
O9 O 0.3528 -0.1895 0.2230
O10 O 0.4685 -0.1929 0.2515
O11 O 0.4225 0.0986 0.2287
O12? O 0.3330 0.0054 0.2474
O13? O 0.4470 0.0093 0.2195
O14? O 0.4441 -0.0853 0.2769
O15? O 0.3925 -0.2835 0.2350
loop_
_geom_bond_atom_site_label_1
_geom_bond_atom_site_label_2
_geom_bond_site_symmetry_1
_geom_bond_site_symmetry_2
Cd1 O7 1_555 1_555
Cd2 Cl1 1_555 1_555
Cl1 Cd1B 1_555 1_555
Cl2 Cd2 1_555 1_555
Cl3 Cd2 1_555 1_555
O1 Cd2 1_555 1_555
O2 H41 1_555 1_555
O3 Cd2 1_555 1_555
P1 C6 1_555 1_555
C1 C2 1_555 1_555
C2 C3 1_555 1_555
C3 C4 1_555 1_555
C4 C5 1_555 1_555
C5 C6 1_555 1_555
C6 C1 1_555 1_555
C7 C8 1_555 1_555
C8 C9 1_555 1_555
C9 C10 1_555 1_555
C10 C11 1_555 1_555
C11 C12 1_555 1_555
C12 P1 1_555 1_555
C13 C14 1_555 1_555
C14 C15 1_555 1_555
C15 C16 1_555 1_555
C16 C17 1_555 1_555
C17 C18 1_555 1_555
C18 P1 1_555 1_555
C19 P1 1_555 1_555
C20 C19 1_555 1_555
C21 C20 1_555 1_555
O4 C21 1_555 1_555
O5 C21 1_555 1_555
P2 C27 1_555 1_555
C22 C23 1_555 1_555
C23 C24 1_555 1_555
C24 C25 1_555 1_555
C25 C26 1_555 1_555
C26 C27 1_555 1_555
C27 C22 1_555 1_555
C28 C29 1_555 1_555
C29 C30 1_555 1_555
C30 C31 1_555 1_555
C31 C32 1_555 1_555
C32 C33 1_555 1_555
C33 P2 1_555 1_555
C34 C35 1_555 1_555
C35 C36 1_555 1_555
C36 C37 1_555 1_555
C37 C38 1_555 1_555
C38 C39 1_555 1_555
C39 P2 1_555 1_555
C40 P2 1_555 1_555
C41 C40 1_555 1_555
C42 C41 1_555 1_555
O6 Cd2 1_555 1_555
O7 C42 1_555 1_555
Cl4 O8 1_555 1_555
O9 Cl4 1_555 1_555
O10 Cl4 1_555 1_555
O11 Cl4 1_555 1_555
H1 C1 1_555 1_555
H2 C2 1_555 1_555
H3 C3 1_555 1_555
H4 C4 1_555 1_555
H5 C5 1_555 1_555
H6 C7 1_555 1_555
H7 C8 1_555 1_555
H8 C9 1_555 1_555
H9 C10 1_555 1_555
H10 C11 1_555 1_555
H11 C13 1_555 1_555
H12 C14 1_555 1_555
H13 C15 1_555 1_555
H14 C16 1_555 1_555
H15 C17 1_555 1_555
H16 C19 1_555 1_555
H17 C19 1_555 1_555
H18 C20 1_555 1_555
H19 C20 1_555 1_555
H20 C22 1_555 1_555
H21 C23 1_555 1_555
H22 C24 1_555 1_555
H23 C25 1_555 1_555
H24 C26 1_555 1_555
H25 C28 1_555 1_555
H26 C29 1_555 1_555
H27 C30 1_555 1_555
H28 C31 1_555 1_555
H29 C32 1_555 1_555
H30 C34 1_555 1_555
H31 C35 1_555 1_555
H32 C36 1_555 1_555
H33 C37 1_555 1_555
H34 C38 1_555 1_555
H35 C40 1_555 1_555
H36 C40 1_555 1_555
H37 C41 1_555 1_555
H38 C41 1_555 1_555
H39 O1 1_555 1_555
H40 O1 1_555 1_555
H42 O2 1_555 1_555
H43 O3 1_555 1_555
H44 O3 1_555 1_555
Cd1B Cl2 1_555 1_555
O7B Cd1B 1_555 1_555
O2 Cd1B 1_555 1_555
C7 C12 1_555 1_555
C13 C18 1_555 1_555
O4 Cd1B 1_555 1_555
O5 Cd1B 1_555 1_555
C28 C33 1_555 1_555
C34 C39 1_555 1_555
C42 O6 1_555 1_555

#END
