
#######################################################################
#
#                 Cambridge Crystallographic Data Centre
#                                CCDC 
#
#######################################################################
#
# If this CIF has been generated from an entry in the Cambridge 
# Structural Database, then it will include bibliographic, chemical, 
# crystal, experimental, refinement or atomic coordinate data resulting 
# from the CCDC's data processing and validation procedures.
#
#######################################################################

data_TIZJAP
_symmetry_cell_setting           hexagonal
_symmetry_space_group_name_H-M   'P 65 2 2'
_symmetry_Int_Tables_number      179
_space_group_name_Hall           "P 65 2' (0,0,1)"
loop_
_symmetry_equiv_pos_site_id
_symmetry_equiv_pos_as_xyz
1 x,y,z
2 x-y,x,5/6+z
3 -y,x-y,2/3+z
4 -x,-y,1/2+z
5 -x+y,-x,1/3+z
6 y,-x+y,1/6+z
7 -y,-x,1/6-z
8 x-y,-y,-z
9 x,x-y,5/6-z
10 y,x,2/3-z
11 -x+y,y,1/2-z
12 -x,-x+y,1/3-z
_cell_length_a                   11.6479(3)
_cell_length_b                   11.6479(3)
_cell_length_c                   27.5042(17)
_cell_angle_alpha                90
_cell_angle_beta                 90
_cell_angle_gamma                120
_cell_volume                     3231.65
loop_
_atom_site_label
_atom_site_type_symbol
_atom_site_fract_x
_atom_site_fract_y
_atom_site_fract_z
Dy1 Dy 0.0000 -0.15534(3) 0.1667
O1 O 0.2039(4) -0.0293(4) 0.12934(16)
O2 O 0.2818(5) 0.1200(5) 0.06988(14)
O3 O -0.0547(5) -0.0220(6) 0.12072(18)
O4 O 0.0905(5) -0.2999(5) 0.14512(16)
O5 O 0.0000 -0.5271(11) 0.1667
N1 N 0.5761(7) 0.3726(7) 0.2091(2)
N2 N -0.2582(6) 0.2582(6) 0.0833
N3 N 0.0000 -0.3990(8) 0.1667
C1 C 0.2801(6) 0.0834(6) 0.11243(19)
C2 C 0.3846(6) 0.1840(6) 0.1468(2)
C3 C 0.4753(9) 0.3075(9) 0.1306(3)
H1 H 0.4742 0.3310 0.0983
C4 C 0.5687(10) 0.3971(9) 0.1623(3)
H2 H 0.6305 0.4800 0.1503
C5 C 0.4850(8) 0.2509(9) 0.2240(3)
H3 H 0.4869 0.2300 0.2565
C6 C 0.3886(7) 0.1543(8) 0.1948(2)
H4 H 0.3282 0.0715 0.2073
C7 C -0.0445(5) 0.0445(5) 0.0833
C8 C -0.1196(5) 0.1196(5) 0.0833
C9 C -0.1139(10) 0.1958(10) 0.0439(3)
H5 H -0.0663 0.1996 0.0162
C10 C -0.1801(15) 0.2657(14) 0.0465(5)
H6 H -0.1698 0.3221 0.0208
Na1 Na 0.22699(18) -0.22699(18) 0.0833
O3F O 0.0220(6) 0.0547(5) 0.04595(18)
C9F C -0.1958(10) 0.1139(10) 0.1228(3)
H5F H -0.1996 0.0663 0.1505
C10F C -0.2657(14) 0.1801(15) 0.1202(5)
H6F H -0.3221 0.1698 0.1459
O4K O -0.0905(5) -0.3904(7) 0.18821(16)
O1F O 0.0293(4) -0.2039(4) 0.03733(16)
O2F O -0.1200(5) -0.2818(5) 0.09679(14)
N1F N -0.3726(7) -0.5761(7) -0.0424(2)
C1F C -0.0834(6) -0.2801(6) 0.05424(19)
C2F C -0.1840(6) -0.3846(6) 0.0199(2)
C3F C -0.3075(9) -0.4753(9) 0.0361(3)
H1F H -0.3310 -0.4742 0.0684
C4F C -0.3971(9) -0.5687(10) 0.0044(3)
H2F H -0.4800 -0.6305 0.0164
C5F C -0.2509(9) -0.4850(8) -0.0573(3)
H3F H -0.2300 -0.4869 -0.0898
C6F C -0.1543(8) -0.3886(7) -0.0281(2)
H4F H -0.0715 -0.3282 -0.0406
Dy1A Dy 0.15534(3) 0.0000 0.0000
O1K O -0.2039(4) -0.2332(6) 0.20399(16)
O2E O 0.1200(5) -0.1618(7) 0.23655(14)
O3K O 0.0547(5) 0.0327(8) 0.21261(18)
O4F O 0.2999(5) -0.0905(5) 0.02155(16)
N1A N 0.2035(10) -0.4239(7) 0.0424(2)
N1K N 0.4239(7) -0.2035(10) 0.1242(2)
Na1A Na -0.54602(25) -0.77301(18) -0.0834
Na1E Na -0.22699(18) -0.45398(25) 0.2500
Na1E_2 Na 0.77301(18) 0.54602(25) 0.2500
loop_
_geom_bond_atom_site_label_1
_geom_bond_atom_site_label_2
_geom_bond_site_symmetry_1
_geom_bond_site_symmetry_2
Dy1 O1 1_555 1_555
O1 C1 1_555 1_555
O2 C1 1_555 1_555
O3 Dy1 1_555 1_555
O4 Dy1 1_555 1_555
O5 N3 1_555 1_555
N1 C4 1_555 1_555
N2 C10 1_555 1_555
N3 O4 1_555 1_555
C1 C2 1_555 1_555
C2 C3 1_555 1_555
C3 H1 1_555 1_555
C4 C3 1_555 1_555
H2 C4 1_555 1_555
C5 N1 1_555 1_555
H3 C5 1_555 1_555
C6 C2 1_555 1_555
H4 C6 1_555 1_555
C7 O3 1_555 1_555
C8 C7 1_555 1_555
C9 C8 1_555 1_555
H5 C9 1_555 1_555
C10 C9 1_555 1_555
H6 C10 1_555 1_555
Na1 O1 1_555 1_555
O3F C7 1_555 1_555
C9F C8 1_555 1_555
H5F C9F 1_555 1_555
C10F N2 1_555 1_555
H6F C10F 1_555 1_555
O4K Dy1 1_555 1_555
O1F Na1 1_555 1_555
O2F Dy1 1_555 1_555
N1F C4F 1_555 1_555
C1F O1F 1_555 1_555
C2F C1F 1_555 1_555
C3F C2F 1_555 1_555
H1F C3F 1_555 1_555
C4F C3F 1_555 1_555
H2F C4F 1_555 1_555
C5F N1F 1_555 1_555
H3F C5F 1_555 1_555
C6F C2F 1_555 1_555
H4F C6F 1_555 1_555
Dy1A O2 1_555 1_555
O1K Dy1 1_555 1_555
O2E Dy1 1_555 1_555
O3K Dy1 1_555 1_555
O4F Na1 1_555 1_555
N1A Na1 1_555 1_555
N1K Na1 1_555 1_555
Na1A N1F 1_555 1_555
Na1E O4K 1_555 1_555
Na1E_2 N1 1_555 1_555
O4 Na1 1_555 1_555
N3 O4K 1_555 1_555
C5 C6 1_555 1_555
O3F Dy1A 1_555 1_555
C9F C10F 1_555 1_555
O1F Dy1A 1_555 1_555
O2F C1F 1_555 1_555
C5F C6F 1_555 1_555
Dy1A O4F 1_555 1_555
O1K Na1E 1_555 1_555

#END
