
#######################################################################
#
#                 Cambridge Crystallographic Data Centre
#                                CCDC 
#
#######################################################################
#
# If this CIF has been generated from an entry in the Cambridge 
# Structural Database, then it will include bibliographic, chemical, 
# crystal, experimental, refinement or atomic coordinate data resulting 
# from the CCDC's data processing and validation procedures.
#
#######################################################################

data_TIZKUK
_symmetry_cell_setting           monoclinic
_symmetry_space_group_name_H-M   'C c'
_symmetry_Int_Tables_number      9
_space_group_name_Hall           'C -2yc'
loop_
_symmetry_equiv_pos_site_id
_symmetry_equiv_pos_as_xyz
1 x,y,z
2 x,-y,1/2+z
3 1/2+x,1/2+y,z
4 1/2+x,1/2-y,1/2+z
_cell_length_a                   18.015(4)
_cell_length_b                   20.690(4)
_cell_length_c                   14.782(3)
_cell_angle_alpha                90
_cell_angle_beta                 113.71(3)
_cell_angle_gamma                90
_cell_volume                     5044.64
loop_
_atom_site_label
_atom_site_type_symbol
_atom_site_fract_x
_atom_site_fract_y
_atom_site_fract_z
Cu1 Cu 0.30847(8) 0.34935(7) 0.34138(10)
Cu2 Cu 0.43543(10) 0.35417(7) 0.22732(11)
Cu3 Cu 0.62604(9) 0.36700(7) 0.32807(11)
Cu4 Cu 0.49620(9) 0.33325(7) 0.43828(10)
K1 K -0.0349(2) 0.49512(17) 0.1393(3)
S1 S 0.1863(2) 0.44061(16) 0.1789(3)
S2 S 0.7455(2) 0.43384(18) 0.5195(4)
S3 S 0.5229(4) 0.1378(3) 0.0677(5)
S4 S 0.3405(3) 0.16670(19) 0.5302(4)
C1 C 0.3910(9) 0.3780(8) 0.5417(10)
H1 H 0.4418 0.3994 0.5805
H2 H 0.3788 0.3484 0.5847
C2 C 0.3266(9) 0.4265(7) 0.5041(10)
H3 H 0.3466 0.4646 0.4829
H4 H 0.3096 0.4392 0.5560
C3 C 0.1665(11) 0.3026(8) 0.3764(13)
H5 H 0.1403 0.2716 0.4032
H6 H 0.1244 0.3244 0.3216
C4 C 0.2093(8) 0.3507(7) 0.4533(10)
H7 H 0.2468 0.3286 0.5117
H8 H 0.1704 0.3738 0.4712
C5 C 0.2155(9) 0.4859(7) 0.2908(11)
H9 H 0.2735 0.4936 0.3173
H10 H 0.1885 0.5276 0.2764
C6 C 0.1945(9) 0.4514(6) 0.3676(11)
H11 H 0.1408 0.4327 0.3363
H12 H 0.1937 0.4823 0.4166
C7 C 0.5371(14) 0.4326(10) 0.1513(17)
H13 H 0.4958 0.4644 0.1455
H14 H 0.5268 0.4169 0.0855
C8 C 0.6158(13) 0.4632(10) 0.1925(17)
H15 H 0.6339 0.4678 0.1393
H16 H 0.6079 0.5066 0.2121
C9 C 0.7620(18) 0.3411(13) 0.272(2)
H17 H 0.8115 0.3461 0.3311
H18 H 0.7761 0.3202 0.2224
C10 C 0.7308(17) 0.4017(13) 0.238(2)
H19 H 0.7002 0.3979 0.1674
H20 H 0.7766 0.4296 0.2476
C11 C 0.7267(17) 0.4963(12) 0.447(2)
H21 H 0.6709 0.5096 0.4284
H22 H 0.7615 0.5318 0.4822
C12 C 0.7404(14) 0.4813(11) 0.3588(19)
H23 H 0.7944 0.4631 0.3809
H24 H 0.7416 0.5222 0.3273
C13 C 0.3426(9) 0.2439(6) 0.2279(10)
H25 H 0.2938 0.2288 0.2340
H26 H 0.3838 0.2106 0.2536
C14 C 0.3254(9) 0.2568(7) 0.1218(10)
H27 H 0.3153 0.2164 0.0857
H28 H 0.2772 0.2835 0.0928
C15 C 0.3149(12) 0.3803(8) 0.0105(12)
H29 H 0.2618 0.3650 0.0029
H30 H 0.3079 0.4064 -0.0468
C16 C 0.3651(11) 0.3258(7) 0.0138(11)
H31 H 0.4118 0.3404 0.0023
H32 H 0.3348 0.2959 -0.0387
C17 C 0.4410(11) 0.1902(8) 0.0422(13)
H33 H 0.4264 0.2091 -0.0228
H34 H 0.3946 0.1662 0.0419
C18 C 0.4632(9) 0.2447(7) 0.1211(10)
H35 H 0.4844 0.2248 0.1859
H36 H 0.5064 0.2704 0.1161
C19 C 0.6066(9) 0.2459(6) 0.4064(10)
H37 H 0.6623 0.2530 0.4520
H38 H 0.6070 0.2213 0.3507
C20 C 0.5637(9) 0.2086(7) 0.4565(11)
H39 H 0.5980 0.1736 0.4942
H40 H 0.5145 0.1900 0.4075
C21 C 0.6056(11) 0.3322(9) 0.6553(13)
H41 H 0.5653 0.3236 0.6818
H42 H 0.6560 0.3435 0.7099
C22 C 0.6180(9) 0.2726(7) 0.6052(12)
H43 H 0.6584 0.2812 0.5788
H44 H 0.6381 0.2380 0.6531
C23 C 0.4129(9) 0.1944(7) 0.4840(12)
H45 H 0.4249 0.1595 0.4482
H46 H 0.3892 0.2295 0.4379
C24 C 0.4890(8) 0.2169(7) 0.5625(11)
H47 H 0.5183 0.1799 0.6003
H48 H 0.4762 0.2449 0.6070
C25 C 0.4624(13) 0.4686(7) 0.3575(14)
H49 H 0.5184 0.4812 0.3869
H50 H 0.4362 0.4811 0.4000
H51 H 0.4362 0.4896 0.2946
N1 N 0.2557(6) 0.3985(5) 0.4182(7)
N2 N 0.6818(7) 0.4349(6) 0.2750(10)
N3 N 0.3947(6) 0.2900(5) 0.1144(8)
N4 N 0.5423(7) 0.2524(6) 0.5251(10)
O1 O 0.3995(6) 0.3435(5) 0.4666(7)
O2 O 0.2167(6) 0.2697(4) 0.3413(7)
H52 H 0.2143 0.2266 0.3224
O3 O 0.2268(6) 0.3770(4) 0.2083(7)
O4 O 0.2181(7) 0.4757(5) 0.1195(8)
O5 O 0.0991(7) 0.4348(5) 0.1399(8)
O6 O 0.5311(7) 0.3817(5) 0.2083(7)
O7 O 0.7085(9) 0.3010(6) 0.2940(11)
H53 H 0.7078 0.2560 0.2941
O8 O 0.7129(8) 0.3721(5) 0.4651(11)
O9 O 0.7109(8) 0.4470(6) 0.5951(11)
O10 O 0.8291(7) 0.4291(6) 0.5771(10)
O11 O 0.3705(5) 0.3030(4) 0.2833(6)
O12 O 0.3484(6) 0.4201(5) 0.0983(7)
H54 H 0.3376 0.4636 0.1029
O13 O 0.5463(8) 0.1135(7) 0.1692(12)
O14 O 0.4572(8) 0.4050(5) 0.3448(9)
O15 O 0.5811(8) 0.1739(6) 0.0523(9)
O16 O 0.5684(8) 0.3057(6) 0.3731(9)
O17 O 0.5791(8) 0.3858(5) 0.5871(9)
H55 H 0.5914 0.4295 0.5986
O18 O 0.2659(7) 0.1588(6) 0.4426(11)
O19 O 0.3307(7) 0.2203(6) 0.5896(11)
O20 O 0.3725(8) 0.1066(6) 0.5830(12)
O21 O -0.0002(10) 0.4822(8) 0.3381(12)
H56 H 0.0108 0.4443 0.3750
O22 O 0.4852(13) 0.0858(9) -0.0082(13)
C26 C -0.003(2) 0.5460(15) 0.372(2)
H57 H 0.0299 0.5738 0.3509
H58 H 0.0174 0.5461 0.4426
H59 H -0.0579 0.5612 0.3445
K1A K 0.9651(2) 0.50488(17) 0.6393(3)
K1B K 0.4651(2) -0.00488(17) 0.1393(3)
K1C K 0.4651(2) 0.00488(17) 0.6393(3)
O10A O -0.1709(7) 0.5709(6) 0.0771(10)
O13B O 0.0463(8) 0.6135(7) 0.1692(12)
O20C O -0.1275(8) 0.3934(6) 0.0830(12)
O22B O -0.0148(13) 0.5858(9) -0.0082(13)
O23 O 0.7312(15) 0.1629(10) 0.2715(17)
H60 H 0.7508 0.1523 0.2301
H61 H 0.6804 0.1559 0.2470
loop_
_geom_bond_atom_site_label_1
_geom_bond_atom_site_label_2
_geom_bond_site_symmetry_1
_geom_bond_site_symmetry_2
Cu1 N1 1_555 1_555
Cu2 N3 1_555 1_555
Cu3 N2 1_555 1_555
Cu4 N4 1_555 1_555
K1 O5 1_555 1_555
S1 C5 1_555 1_555
S2 C11 1_555 1_555
S3 C17 1_555 1_555
S4 C23 1_555 1_555
C1 H1 1_555 1_555
H2 C1 1_555 1_555
C2 C1 1_555 1_555
H3 C2 1_555 1_555
H4 C2 1_555 1_555
C3 H5 1_555 1_555
H6 C3 1_555 1_555
C4 C3 1_555 1_555
H7 C4 1_555 1_555
H8 C4 1_555 1_555
C5 H9 1_555 1_555
H10 C5 1_555 1_555
C6 C5 1_555 1_555
H11 C6 1_555 1_555
H12 C6 1_555 1_555
C7 H13 1_555 1_555
H14 C7 1_555 1_555
C8 C7 1_555 1_555
H15 C8 1_555 1_555
H16 C8 1_555 1_555
C9 H17 1_555 1_555
H18 C9 1_555 1_555
C10 C9 1_555 1_555
H19 C10 1_555 1_555
H20 C10 1_555 1_555
C11 H21 1_555 1_555
H22 C11 1_555 1_555
C12 C11 1_555 1_555
H23 C12 1_555 1_555
H24 C12 1_555 1_555
C13 H25 1_555 1_555
H26 C13 1_555 1_555
C14 C13 1_555 1_555
H27 C14 1_555 1_555
H28 C14 1_555 1_555
C15 H29 1_555 1_555
H30 C15 1_555 1_555
C16 C15 1_555 1_555
H31 C16 1_555 1_555
H32 C16 1_555 1_555
C17 H33 1_555 1_555
H34 C17 1_555 1_555
C18 C17 1_555 1_555
H35 C18 1_555 1_555
H36 C18 1_555 1_555
C19 H37 1_555 1_555
H38 C19 1_555 1_555
C20 C19 1_555 1_555
H39 C20 1_555 1_555
H40 C20 1_555 1_555
C21 H41 1_555 1_555
H42 C21 1_555 1_555
C22 C21 1_555 1_555
H43 C22 1_555 1_555
H44 C22 1_555 1_555
C23 H45 1_555 1_555
H46 C23 1_555 1_555
C24 C23 1_555 1_555
H47 C24 1_555 1_555
H48 C24 1_555 1_555
C25 H49 1_555 1_555
H50 C25 1_555 1_555
H51 C25 1_555 1_555
N1 C2 1_555 1_555
N2 C8 1_555 1_555
N3 C14 1_555 1_555
N4 C20 1_555 1_555
O1 Cu1 1_555 1_555
O2 Cu1 1_555 1_555
H52 O2 1_555 1_555
O3 Cu1 1_555 1_555
O4 S1 1_555 1_555
O5 S1 1_555 1_555
O6 Cu2 1_555 1_555
O7 Cu3 1_555 1_555
H53 O7 1_555 1_555
O8 Cu3 1_555 1_555
O9 S2 1_555 1_555
O10 S2 1_555 1_555
O11 Cu1 1_555 1_555
O12 Cu2 1_555 1_555
H54 O12 1_555 1_555
O13 S3 1_555 1_555
O14 Cu2 1_555 1_555
O15 S3 1_555 1_555
O16 Cu2 1_555 1_555
O17 Cu4 1_555 1_555
H55 O17 1_555 1_555
O18 S4 1_555 1_555
O19 S4 1_555 1_555
O20 S4 1_555 1_555
O21 K1 1_555 1_555
H56 O21 1_555 1_555
O22 S3 1_555 1_555
C26 O21 1_555 1_555
H57 C26 1_555 1_555
H58 C26 1_555 1_555
H59 C26 1_555 1_555
O23 H60 1_555 1_555
H61 O23 1_555 1_555
K1A O10 1_555 1_555
K1B O13 1_555 1_555
K1C O20 1_555 1_555
O10A K1 1_555 1_555
O13B K1 1_555 1_555
O20C K1 1_555 1_555
O22B K1 1_555 1_555
Cu2 O11 1_555 1_555
Cu3 O6 1_555 1_555
Cu3 O16 1_555 1_555
Cu4 O1 1_555 1_555
Cu4 O11 1_555 1_555
Cu4 O14 1_555 1_555
Cu4 O16 1_555 1_555
S1 O3 1_555 1_555
S2 O8 1_555 1_555
C1 O1 1_555 1_555
C3 O2 1_555 1_555
C4 N1 1_555 1_555
C6 N1 1_555 1_555
C7 O6 1_555 1_555
C9 O7 1_555 1_555
C10 N2 1_555 1_555
C12 N2 1_555 1_555
C13 O11 1_555 1_555
C15 O12 1_555 1_555
C16 N3 1_555 1_555
C18 N3 1_555 1_555
C19 O16 1_555 1_555
C21 O17 1_555 1_555
C22 N4 1_555 1_555
C24 N4 1_555 1_555
C25 O14 1_555 1_555
O22 K1B 1_555 1_555

#END
