
#######################################################################
#
#                 Cambridge Crystallographic Data Centre
#                                CCDC 
#
#######################################################################
#
# If this CIF has been generated from an entry in the Cambridge 
# Structural Database, then it will include bibliographic, chemical, 
# crystal, experimental, refinement or atomic coordinate data resulting 
# from the CCDC's data processing and validation procedures.
#
#######################################################################

data_TIZNOH
_symmetry_cell_setting           monoclinic
_symmetry_space_group_name_H-M   'P 21/c'
_symmetry_Int_Tables_number      14
_space_group_name_Hall           '-P 2ybc'
loop_
_symmetry_equiv_pos_site_id
_symmetry_equiv_pos_as_xyz
1 x,y,z
2 -x,1/2+y,1/2-z
3 -x,-y,-z
4 x,1/2-y,1/2+z
_cell_length_a                   7.446(3)
_cell_length_b                   11.885(5)
_cell_length_c                   18.079(8)
_cell_angle_alpha                90
_cell_angle_beta                 97.47(3)
_cell_angle_gamma                90
_cell_volume                     1586.34
loop_
_atom_site_label
_atom_site_type_symbol
_atom_site_fract_x
_atom_site_fract_y
_atom_site_fract_z
C1 C 0.1052(12) 0.0148(8) 0.5902(6)
H1 H 0.1518 -0.0562 0.6032
C2 C 0.1969(12) 0.0857(8) 0.5474(6)
H2 H 0.3028 0.0602 0.5310
C3 C -0.0188(12) 0.2203(8) 0.5507(5)
H3 H -0.0659 0.2911 0.5374
C4 C -0.1125(11) 0.1498(7) 0.5927(5)
C5 C -0.2823(12) 0.1872(7) 0.6210(5)
C6 C -0.4949(11) 0.1180(9) 0.7063(5)
C7 C -0.6131(13) 0.2079(8) 0.7026(5)
H4 H -0.5954 0.2701 0.6730
C8 C -0.7629(12) 0.2046(8) 0.7447(5)
C9 C -0.8894(13) 0.2940(8) 0.7392(6)
H5 H -0.8757 0.3556 0.7084
C10 C -1.0321(15) 0.2883(11) 0.7797(7)
H6 H -1.1160 0.3466 0.7759
C11 C -1.0545(14) 0.1988(11) 0.8260(7)
H7 H -1.1521 0.1976 0.8533
C12 C -0.9354(15) 0.1119(10) 0.8322(6)
H8 H -0.9526 0.0518 0.8637
C13 C -0.7848(12) 0.1112(8) 0.7912(5)
C14 C -0.6586(13) 0.0250(8) 0.7951(5)
H9 H -0.6693 -0.0349 0.8276
C15 C -0.5195(14) 0.0249(9) 0.7530(6)
H10 H -0.4410 -0.0361 0.7550
N1 N -0.0505(10) 0.0472(7) 0.6132(4)
N2 N 0.1396(10) 0.1894(7) 0.5286(5)
N3 N -0.3466(10) 0.1106(7) 0.6655(5)
H11 H -0.2889 0.0479 0.6699
O1 O -0.3538(9) 0.2787(6) 0.6022(4)
Hg1 Hg 0.38345(5) 0.32688(3) 0.48033(2)
Br1 Br 0.26597(13) 0.48766(9) 0.54156(7)
Br2 Br 0.51207(15) 0.17756(9) 0.41229(6)
O1_2 O 0.6462(9) 0.2787(6) 0.6022(4)
Hg1_2 Hg -0.61655(5) 0.32688(3) 0.48033(2)
loop_
_geom_bond_atom_site_label_1
_geom_bond_atom_site_label_2
_geom_bond_site_symmetry_1
_geom_bond_site_symmetry_2
C1 H1 1_555 1_555
C2 C1 1_555 1_555
H2 C2 1_555 1_555
C3 H3 1_555 1_555
C4 C3 1_555 1_555
C5 C4 1_555 1_555
C6 C7 1_555 1_555
C7 H4 1_555 1_555
C8 C7 1_555 1_555
C9 C8 1_555 1_555
H5 C9 1_555 1_555
C10 C9 1_555 1_555
H6 C10 1_555 1_555
C11 C10 1_555 1_555
H7 C11 1_555 1_555
C12 C11 1_555 1_555
H8 C12 1_555 1_555
C13 C8 1_555 1_555
C14 C13 1_555 1_555
H9 C14 1_555 1_555
C15 C6 1_555 1_555
H10 C15 1_555 1_555
N1 C1 1_555 1_555
N2 C2 1_555 1_555
N3 C5 1_555 1_555
H11 N3 1_555 1_555
O1 C5 1_555 1_555
Hg1 N2 1_555 1_555
Br1 Hg1 1_555 1_555
Br2 Hg1 1_555 1_555
O1_2 Hg1 1_555 1_555
Hg1_2 O1 1_555 1_555
C3 N2 1_555 1_555
C4 N1 1_555 1_555
C6 N3 1_555 1_555
C12 C13 1_555 1_555
C14 C15 1_555 1_555

#END
