
#######################################################################
#
#                 Cambridge Crystallographic Data Centre
#                                CCDC 
#
#######################################################################
#
# If this CIF has been generated from an entry in the Cambridge 
# Structural Database, then it will include bibliographic, chemical, 
# crystal, experimental, refinement or atomic coordinate data resulting 
# from the CCDC's data processing and validation procedures.
#
#######################################################################

data_TIZPEY
_symmetry_cell_setting           monoclinic
_symmetry_space_group_name_H-M   'C 2/c'
_symmetry_Int_Tables_number      15
_space_group_name_Hall           '-C 2yn'
loop_
_symmetry_equiv_pos_site_id
_symmetry_equiv_pos_as_xyz
1 x,y,z
2 1/2+x,1/2+y,z
3 -x,y,1/2-z
4 1/2-x,1/2+y,1/2-z
5 -x,-y,-z
6 1/2-x,1/2-y,-z
7 x,-y,1/2+z
8 1/2+x,1/2-y,1/2+z
_cell_length_a                   13.259(3)
_cell_length_b                   20.591(4)
_cell_length_c                   24.931(5)
_cell_angle_alpha                90
_cell_angle_beta                 96.201(3)
_cell_angle_gamma                90
_cell_volume                     6766.74
loop_
_atom_site_label
_atom_site_type_symbol
_atom_site_fract_x
_atom_site_fract_y
_atom_site_fract_z
Cu1 Cu 1.23558(7) 1.01525(5) 0.71294(3)
Cu2 Cu 1.23665(7) 0.80388(5) 0.71525(4)
O1 O 1.3626(4) 0.9833(3) 0.7510(2)
O2 O 1.4477(4) 0.9824(3) 0.8330(2)
O3 O 1.2762(4) 1.0308(3) 0.8740(2)
O4 O 0.9043(4) 1.0751(3) 0.9302(2)
O5 O 0.7350(4) 1.0033(3) 0.9440(2)
O6 O 0.7031(4) 0.9927(3) 0.8548(2)
O7 O 1.3029(4) 0.8242(3) 0.6493(2)
O8 O 1.2858(5) 0.8041(4) 0.5611(2)
O9 O 1.1126(4) 0.7341(3) 0.5722(2)
O10 O 0.7322(4) 0.7976(3) 0.6232(2)
O11 O 0.5565(4) 0.8408(3) 0.6626(2)
O12 O 0.6385(4) 0.8381(3) 0.7454(2)
N1 N 1.2113(4) 1.0471(3) 0.7856(2)
N2 N 0.8666(4) 1.0580(3) 0.8382(2)
N3 N 1.1380(4) 0.7587(3) 0.6636(2)
N4 N 0.7902(4) 0.7747(3) 0.7121(2)
N5 N 1.1488(6) 0.9092(4) 0.7036(3)
N6 N 1.1154(5) 0.9075(3) 0.6563(3)
N7 N 1.0876(7) 0.9061(4) 0.6084(3)
C1 C 1.3714(6) 0.9942(4) 0.8019(3)
C2 C 1.2795(5) 1.0256(4) 0.8239(3)
C3 C 1.1286(5) 1.0839(4) 0.8021(3)
C4 C 1.1361(6) 1.1507(4) 0.8058(3)
H1 H 1.1959 1.1712 0.7990
C5 C 1.0554(6) 1.1874(4) 0.8195(4)
H2 H 1.0610 1.2324 0.8214
C6 C 0.9668(6) 1.1579(4) 0.8304(3)
H3 H 0.9127 1.1827 0.8397
C7 C 0.9586(5) 1.0907(4) 0.8274(3)
C8 C 1.0388(5) 1.0532(4) 0.8128(3)
H4 H 1.0327 1.0083 0.8101
C9 C 0.8515(5) 1.0525(4) 0.8887(3)
C10 C 0.7552(5) 1.0132(4) 0.8970(3)
C11 C 1.2577(6) 0.7984(4) 0.6070(3)
C12 C 1.1604(5) 0.7594(4) 0.6134(3)
C13 C 1.0448(5) 0.7280(4) 0.6735(3)
C14 C 0.9641(6) 0.7659(4) 0.6867(3)
H5 H 0.9714 0.8108 0.6888
C15 C 0.8734(5) 0.7379(4) 0.6967(3)
C16 C 0.8635(5) 0.6704(4) 0.6930(3)
H6 H 0.8025 0.6509 0.6991
C17 C 0.9428(6) 0.6326(4) 0.6805(3)
H7 H 0.9355 0.5877 0.6789
C18 C 1.0335(6) 0.6604(4) 0.6702(3)
H8 H 1.0866 0.6345 0.6612
C19 C 0.7262(6) 0.7987(4) 0.6733(3)
C20 C 0.6321(5) 0.8291(4) 0.6950(3)
Na1 Na 1.4204(2) 0.90881(15) 0.68614(12)
Na2 Na 0.8299(3) 1.06994(19) 1.01242(13)
Na3 Na 0.9709(3) 0.75979(18) 0.51046(14)
Na4 Na 0.4753(3) 0.91297(16) 0.99676(13)
Na5 Na 0.7957(3) 0.9009(2) 0.98490(17)
O13 O 0.9016(7) 0.8229(5) 1.0312(4)
H9 H 0.9249 0.8362 1.0623
H10 H 0.8619 0.7913 1.0354
O14 O 0.9062(5) 1.1579(3) 1.0659(2)
H11 H 0.8543 1.1338 1.0667
H12 H 0.9515 1.1445 1.0900
O15 O 0.8889(5) 0.6694(3) 0.5486(2)
H13 H 0.9059 0.6676 0.5825
H14 H 0.8245 0.6704 0.5435
O16 O 0.8827(5) 0.9713(3) 1.0560(2)
H15 H 0.8599 0.9667 1.0863
H16 H 0.9468 0.9666 1.0594
O17 O 0.6534(5) 0.8923(3) 1.0364(3)
H17 H 0.6555 0.8580 1.0555
H18 H 0.6794 0.9229 1.0562
O18 O 1.0076(4) 0.6802(3) 0.4447(2)
H19 H 1.0713 0.6840 0.4439
H20 H 0.9790 0.6897 0.4135
O19 O 0.4760(4) 1.0004(3) 1.0597(2)
H21 H 0.4176 1.0067 1.0698
H22 H 0.5190 0.9946 1.0872
O20 O 0.8259(5) 0.7988(3) 0.4493(3)
H23 H 0.7888 0.7718 0.4303
H24 H 0.8127 0.8392 0.4471
O21 O 0.6856(4) 1.0826(3) 1.0617(2)
H25 H 0.6891 1.0826 1.0959
H26 H 0.7427 1.0949 1.0529
Cu1B Cu 0.76442(7) 1.01525(5) 0.78706(3)
Cu2B Cu 0.76335(7) 0.80388(5) 0.78475(4)
O2B O 1.5523(4) 0.9824(3) 0.6670(2)
O6B O 1.2969(4) 0.9927(3) 0.6452(2)
O8B O 0.7142(5) 0.8041(4) 0.9389(2)
O11_2 O 1.5565(4) 0.8408(3) 0.6626(2)
O12B O 1.3615(4) 0.8381(3) 0.7546(2)
N2B N 1.1334(4) 1.0580(3) 0.6618(2)
N4B N 1.2098(4) 0.7747(3) 0.7879(2)
Na1B Na 1.5796(2) 0.90881(15) 0.81386(12)
Na1B_2 Na 0.5796(2) 0.90881(15) 0.81386(12)
Na1_2 Na 0.4204(2) 0.90881(15) 0.68614(12)
Na3B Na 1.0291(3) 0.75979(18) 0.98954(14)
Na3F Na 0.9709(3) 1.24021(18) 1.01046(14)
Na4G Na 0.9753(3) 0.58703(16) 0.49676(13)
Na4D Na 0.5247(3) 1.08703(16) 1.00324(13)
Na5B Na 1.2043(3) 0.9009(2) 0.51510(17)
O13B O 1.0984(7) 0.8229(5) 0.4688(4)
H9B H 1.0751 0.8362 0.4377
H10B H 1.1381 0.7913 0.4646
O14F O 0.9062(5) 0.8421(3) 0.5659(2)
H11F H 0.8543 0.8662 0.5667
H12F H 0.9515 0.8555 0.5900
O15G O 0.3889(5) 0.8306(3) 1.0486(2)
H13G H 0.4059 0.8324 1.0825
H14G H 0.3245 0.8296 1.0435
O18G O 0.5076(4) 0.8198(3) 0.9447(2)
H19G H 0.5713 0.8160 0.9439
H20G H 0.4790 0.8103 0.9135
O19D O 0.5240(4) 0.9996(3) 0.9403(2)
H21D H 0.5824 0.9933 0.9302
H22D H 0.4810 1.0054 0.9128
O21D O 0.3144(4) 0.9174(3) 0.9383(2)
H25D H 0.3109 0.9174 0.9041
H26D H 0.2573 0.9051 0.9471
loop_
_geom_bond_atom_site_label_1
_geom_bond_atom_site_label_2
_geom_bond_site_symmetry_1
_geom_bond_site_symmetry_2
Cu1 O1 1_555 1_555
Cu2 O7 1_555 1_555
O1 C1 1_555 1_555
O2 C1 1_555 1_555
O3 C2 1_555 1_555
O4 C9 1_555 1_555
O5 C10 1_555 1_555
O6 C10 1_555 1_555
O7 C11 1_555 1_555
O8 C11 1_555 1_555
O9 C12 1_555 1_555
O10 C19 1_555 1_555
O11 C20 1_555 1_555
O12 C20 1_555 1_555
N1 Cu1 1_555 1_555
N2 C7 1_555 1_555
N3 Cu2 1_555 1_555
N4 C15 1_555 1_555
N5 Cu1 1_555 1_555
N6 N5 1_555 1_555
N7 N6 1_555 1_555
C1 C2 1_555 1_555
C2 N1 1_555 1_555
C3 N1 1_555 1_555
C4 C3 1_555 1_555
H1 C4 1_555 1_555
C5 C4 1_555 1_555
H2 C5 1_555 1_555
C6 C5 1_555 1_555
H3 C6 1_555 1_555
C7 C6 1_555 1_555
C8 C3 1_555 1_555
H4 C8 1_555 1_555
C9 N2 1_555 1_555
C10 C9 1_555 1_555
C11 C12 1_555 1_555
C12 N3 1_555 1_555
C13 N3 1_555 1_555
C14 C13 1_555 1_555
H5 C14 1_555 1_555
C15 C14 1_555 1_555
C16 C15 1_555 1_555
H6 C16 1_555 1_555
C17 C16 1_555 1_555
H7 C17 1_555 1_555
C18 C13 1_555 1_555
H8 C18 1_555 1_555
C19 N4 1_555 1_555
C20 C19 1_555 1_555
Na1 O1 1_555 1_555
Na2 O4 1_555 1_555
Na3 O9 1_555 1_555
Na4 O17 1_555 1_555
Na5 O5 1_555 1_555
O13 Na5 1_555 1_555
H9 O13 1_555 1_555
H10 O13 1_555 1_555
O14 Na2 1_555 1_555
H11 O14 1_555 1_555
H12 O14 1_555 1_555
O15 Na3 1_555 1_555
H13 O15 1_555 1_555
H14 O15 1_555 1_555
O16 Na2 1_555 1_555
H15 O16 1_555 1_555
H16 O16 1_555 1_555
O17 Na5 1_555 1_555
H17 O17 1_555 1_555
H18 O17 1_555 1_555
O18 Na3 1_555 1_555
H19 O18 1_555 1_555
H20 O18 1_555 1_555
O19 Na4 1_555 1_555
H21 O19 1_555 1_555
H22 O19 1_555 1_555
O20 Na3 1_555 1_555
H23 O20 1_555 1_555
H24 O20 1_555 1_555
O21 Na2 1_555 1_555
H25 O21 1_555 1_555
H26 O21 1_555 1_555
Cu1B O6 1_555 1_555
Cu2B O12 1_555 1_555
O2B Na1 1_555 1_555
O6B Cu1 1_555 1_555
O8B Na5 1_555 1_555
O11_2 Na1 1_555 1_555
O12B Cu2 1_555 1_555
N2B Cu1 1_555 1_555
N4B Cu2 1_555 1_555
Na1B O2 1_555 1_555
Na1B_2 O6 1_555 1_555
Na1_2 O11 1_555 1_555
Na3B O13 1_555 1_555
Na3F O14 1_555 1_555
Na4G O15 1_555 1_555
Na4D O19 1_555 1_555
Na5B O8 1_555 1_555
O13B Na3 1_555 1_555
H9B O13B 1_555 1_555
H10B O13B 1_555 1_555
O14F Na3 1_555 1_555
H11F O14F 1_555 1_555
H12F O14F 1_555 1_555
O15G Na4 1_555 1_555
H13G O15G 1_555 1_555
H14G O15G 1_555 1_555
O18G Na4 1_555 1_555
H19G O18G 1_555 1_555
H20G O18G 1_555 1_555
O19D Na4 1_555 1_555
H21D O19D 1_555 1_555
H22D O19D 1_555 1_555
O21D Na4 1_555 1_555
H25D O21D 1_555 1_555
H26D O21D 1_555 1_555
Cu2 N5 1_555 1_555
O5 Na2 1_555 1_555
O7 Na1 1_555 1_555
O12 Na1B_2 1_555 1_555
N2 Cu1B 1_555 1_555
N4 Cu2B 1_555 1_555
C7 C8 1_555 1_555
C17 C18 1_555 1_555
Na1 O6B 1_555 1_555
Na1 O12B 1_555 1_555
Na5 O16 1_555 1_555
O18 Na4G 1_555 1_555
O21 Na4D 1_555 1_555
Na4D O19D 1_555 1_555
Na5B O13B 1_555 1_555

#END
