
#######################################################################
#
#                 Cambridge Crystallographic Data Centre
#                                CCDC 
#
#######################################################################
#
# If this CIF has been generated from an entry in the Cambridge 
# Structural Database, then it will include bibliographic, chemical, 
# crystal, experimental, refinement or atomic coordinate data resulting 
# from the CCDC's data processing and validation procedures.
#
#######################################################################

data_TIZQAW
_symmetry_cell_setting           triclinic
_symmetry_space_group_name_H-M   'P -1'
_symmetry_Int_Tables_number      2
_space_group_name_Hall           '-P 1'
loop_
_symmetry_equiv_pos_site_id
_symmetry_equiv_pos_as_xyz
1 x,y,z
2 -x,-y,-z
_cell_length_a                   10.7315(9)
_cell_length_b                   10.9239(9)
_cell_length_c                   12.9081(18)
_cell_angle_alpha                104.097(3)
_cell_angle_beta                 104.031(3)
_cell_angle_gamma                104.282(2)
_cell_volume                     1346.59
loop_
_atom_site_label
_atom_site_type_symbol
_atom_site_fract_x
_atom_site_fract_y
_atom_site_fract_z
Cu1 Cu -0.00677(6) 0.65765(6) 0.15285(5)
O1 O 0.0291(4) 0.6468(4) 0.3060(3)
O2 O 0.0164(5) 0.8510(4) 0.3441(3)
O3 O 0.2433(5) 0.9092(5) 0.9222(3)
O4 O -0.0546(4) 0.7334(5) 0.0247(4)
O5 O -0.0304(6) 0.5610(6) -0.0866(5)
O6 O -0.2928(6) 0.7468(7) -0.5506(4)
N1 N 0.1909(4) 0.7463(4) 0.1900(3)
N2 N 0.3883(4) 0.8717(4) 0.1955(4)
N3 N 0.6026(4) 1.4674(4) 0.1370(4)
N4 N 0.7997(4) 1.5533(4) 0.1184(4)
C1 C 0.0393(5) 0.7600(5) 0.3744(4)
C2 C 0.0825(5) 0.7725(5) 0.4971(4)
C3 C 0.1033(5) 0.8921(5) 0.5775(4)
H1 H 0.0906 0.9643 0.5554
C4 C 0.1430(5) 0.9042(5) 0.6906(4)
H2 H 0.1580 0.9849 0.7445
C5 C 0.1605(5) 0.7975(5) 0.7242(4)
C6 C 0.1397(5) 0.6774(6) 0.6431(5)
H3 H 0.1520 0.6051 0.6651
C7 C 0.1013(5) 0.6657(5) 0.5311(4)
H4 H 0.0877 0.5853 0.4773
C8 C 0.2063(6) 0.8075(7) 0.8440(5)
H5 H 0.2067 0.7293 0.8606
C9 C -0.0628(6) 0.6642(7) -0.0674(5)
C10 C -0.1129(6) 0.7136(7) -0.1646(5)
C11 C -0.1480(6) 0.6244(6) -0.2706(6)
H6 H -0.1405 0.5399 -0.2786
C12 C -0.1933(6) 0.6578(6) -0.3633(6)
H7 H -0.2214 0.5943 -0.4343
C13 C -0.1984(5) 0.7818(6) -0.3543(5)
C14 C -0.1592(6) 0.8770(5) -0.2506(5)
H8 H -0.1590 0.9635 -0.2449
C15 C -0.1195(6) 0.8419(6) -0.1538(5)
H9 H -0.0977 0.9033 -0.0827
C16 C -0.2455(7) 0.8186(8) -0.4578(6)
H10 H -0.2359 0.9082 -0.4469
C17 C 0.2534(5) 0.8321(5) 0.1491(4)
H11 H 0.2091 0.8621 0.0941
C18 C 0.2937(6) 0.7316(6) 0.2688(5)
H12 H 0.2807 0.6767 0.3127
C19 C 0.4143(6) 0.8072(6) 0.2732(6)
H13 H 0.4989 0.8147 0.3195
C20 C 0.4872(6) 0.9753(6) 0.1756(5)
H14 H 0.4584 0.9664 0.0961
H15 H 0.5744 0.9608 0.1936
C21 C 0.5045(5) 1.1131(5) 0.2424(5)
C22 C 0.5370(6) 1.1532(6) 0.3599(5)
H16 H 0.5473 1.0925 0.3981
C23 C 0.5536(6) 1.2808(6) 0.4178(5)
H17 H 0.5742 1.3056 0.4958
C24 C 0.5409(6) 1.3758(6) 0.3653(5)
H18 H 0.5530 1.4628 0.4068
C25 C 0.5100(5) 1.3377(6) 0.2495(5)
C26 C 0.4916(5) 1.2065(6) 0.1894(5)
H19 H 0.4701 1.1813 0.1113
C27 C 0.4967(6) 1.4403(6) 0.1902(6)
H20 H 0.4081 1.4079 0.1330
H21 H 0.5034 1.5226 0.2444
C28 C 0.7278(6) 1.5571(6) 0.1880(5)
H22 H 0.7593 1.6140 0.2621
C29 C 0.5957(5) 1.4040(5) 0.0293(5)
H23 H 0.5213 1.3367 -0.0258
C30 C 0.7168(6) 1.4574(5) 0.0183(5)
H24 H 0.7406 1.4334 -0.0466
Cu1_2 Cu 0.99323(6) 1.65765(6) 0.15285(5)
Cu1A Cu 0.00677(6) 0.34235(6) -0.15285(5)
O5A O 0.0304(6) 0.4390(6) 0.0866(5)
N4_2 N -0.2003(4) 0.5533(4) 0.1184(4)
O7 O 0.2861(5) 0.1856(5) 0.9336(5)
H25 H 0.2793 0.1971 0.8699
H26 H 0.2592 0.1235 0.9600
loop_
_geom_bond_atom_site_label_1
_geom_bond_atom_site_label_2
_geom_bond_site_symmetry_1
_geom_bond_site_symmetry_2
Cu1 O1 1_555 1_555
O1 C1 1_555 1_555
O2 Cu1 1_555 1_555
O3 C8 1_555 1_555
O4 Cu1 1_555 1_555
O5 C9 1_555 1_555
O6 C16 1_555 1_555
N1 Cu1 1_555 1_555
N2 C17 1_555 1_555
N3 C27 1_555 1_555
N4 C28 1_555 1_555
C1 O2 1_555 1_555
C2 C1 1_555 1_555
C3 C2 1_555 1_555
H1 C3 1_555 1_555
C4 C3 1_555 1_555
H2 C4 1_555 1_555
C5 C4 1_555 1_555
C6 C5 1_555 1_555
H3 C6 1_555 1_555
C7 C2 1_555 1_555
H4 C7 1_555 1_555
C8 C5 1_555 1_555
H5 C8 1_555 1_555
C9 O4 1_555 1_555
C10 C9 1_555 1_555
C11 C10 1_555 1_555
H6 C11 1_555 1_555
C12 C11 1_555 1_555
H7 C12 1_555 1_555
C13 C12 1_555 1_555
C14 C13 1_555 1_555
H8 C14 1_555 1_555
C15 C10 1_555 1_555
H9 C15 1_555 1_555
C16 C13 1_555 1_555
H10 C16 1_555 1_555
C17 N1 1_555 1_555
H11 C17 1_555 1_555
C18 N1 1_555 1_555
H12 C18 1_555 1_555
C19 N2 1_555 1_555
H13 C19 1_555 1_555
C20 N2 1_555 1_555
H14 C20 1_555 1_555
H15 C20 1_555 1_555
C21 C20 1_555 1_555
C22 C21 1_555 1_555
H16 C22 1_555 1_555
C23 C22 1_555 1_555
H17 C23 1_555 1_555
C24 C23 1_555 1_555
H18 C24 1_555 1_555
C25 C24 1_555 1_555
C26 C21 1_555 1_555
H19 C26 1_555 1_555
C27 C25 1_555 1_555
H20 C27 1_555 1_555
H21 C27 1_555 1_555
C28 N3 1_555 1_555
H22 C28 1_555 1_555
C29 N3 1_555 1_555
H23 C29 1_555 1_555
C30 N4 1_555 1_555
H24 C30 1_555 1_555
O7 H25 1_555 1_555
H26 O7 1_555 1_555
Cu1_2 N4 1_555 1_555
Cu1A O5 1_555 1_555
O5A Cu1 1_555 1_555
N4_2 Cu1 1_555 1_555
C6 C7 1_555 1_555
C14 C15 1_555 1_555
C18 C19 1_555 1_555
C25 C26 1_555 1_555
C29 C30 1_555 1_555

#END
