
#######################################################################
#
#                 Cambridge Crystallographic Data Centre
#                                CCDC 
#
#######################################################################
#
# If this CIF has been generated from an entry in the Cambridge 
# Structural Database, then it will include bibliographic, chemical, 
# crystal, experimental, refinement or atomic coordinate data resulting 
# from the CCDC's data processing and validation procedures.
#
#######################################################################

data_TOBHAT
_symmetry_cell_setting           monoclinic
_symmetry_space_group_name_H-M   'C 2/c'
_symmetry_Int_Tables_number      15
_space_group_name_Hall           '-C 2yn'
loop_
_symmetry_equiv_pos_site_id
_symmetry_equiv_pos_as_xyz
1 x,y,z
2 -x,y,1/2-z
3 1/2+x,1/2+y,z
4 1/2-x,1/2+y,1/2-z
5 -x,-y,-z
6 x,-y,1/2+z
7 1/2-x,1/2-y,-z
8 1/2+x,1/2-y,1/2+z
_cell_length_a                   18.8892(4)
_cell_length_b                   7.6222(2)
_cell_length_c                   7.4641(2)
_cell_angle_alpha                90
_cell_angle_beta                 90.402(2)
_cell_angle_gamma                90
_cell_volume                     1074.63
loop_
_atom_site_label
_atom_site_type_symbol
_atom_site_fract_x
_atom_site_fract_y
_atom_site_fract_z
Cu1 Cu 0.2325(1) -0.4427(4) -0.5632(4)
P1 P 0.1665(1) -0.7984(7) -0.6724(7)
O1 O 0.2102(3) -0.2400(11) -0.3364(9)
O2 O 0.3162(3) -0.5205(8) -0.4121(11)
O3 O 0.3256(3) -0.8501(9) -0.4721(10)
O4 O 0.1533(3) -0.3187(11) -0.6743(13)
C1 C 0.0737(8) -0.8005(11) -0.7398(12)
C2 C 0.0354(2) -0.9560(11) -0.7206(16)
C3 C -0.0369(1) -0.6403(11) -0.7553(17)
O1F O 0.2898(3) -0.2600(11) -0.6636(9)
Cu1F Cu 0.2675(1) -1.0573(4) -0.4368(4)
O1_2 O 0.2102(3) -1.2400(11) -0.3364(9)
O1F_2 O 0.2898(3) -1.2600(11) -0.6636(9)
O2F O 0.1838(3) -0.9795(8) -0.5879(11)
O1E O 0.2102(3) -0.7600(11) -0.8364(9)
Cu1C Cu 0.2675(1) -0.9427(4) -0.9368(4)
Cu1E Cu 0.2325(1) -0.5573(4) -1.0632(4)
O3F O 0.1744(3) -0.6499(9) -0.5279(10)
C2A C -0.0354(2) -0.9560(11) -0.7794(16)
C1A C -0.0737(8) -0.8005(11) -0.7602(12)
P1A P -0.1665(1) -0.7984(7) -0.8276(7)
O1D O -0.2102(3) -0.7600(11) -0.6636(9)
Cu1B Cu -0.2675(1) -0.9427(4) -0.5632(4)
Cu1D Cu -0.2325(1) -0.5573(4) -0.4368(4)
O2G O -0.1838(3) -0.9795(8) -0.9121(11)
Cu1G Cu -0.2675(1) -1.0573(4) -1.0632(4)
O3G O -0.1744(3) -0.6499(9) -0.9721(10)
Cu1A Cu -0.2325(1) -0.4427(4) -0.9368(4)
C3A C 0.0369(1) -0.6403(11) -0.7447(17)
O4F O 0.3467(3) -1.1813(11) -0.3257(13)
loop_
_geom_bond_atom_site_label_1
_geom_bond_atom_site_label_2
_geom_bond_site_symmetry_1
_geom_bond_site_symmetry_2
Cu1 O1 1_555 1_555
P1 C1 1_555 1_555
O2 Cu1 1_555 1_555
O3 Cu1F 1_555 1_555
O4 Cu1 1_555 1_555
C1 C2 1_555 1_555
C2 C2A 1_555 1_555
C3 C1A 1_555 1_555
O1F Cu1 1_555 1_555
Cu1F O1_2 1_555 1_555
O1F_2 Cu1F 1_555 1_555
O2F P1 1_555 1_555
O1E P1 1_555 1_555
Cu1C O1E 1_555 1_555
Cu1E O1E 1_555 1_555
O3F Cu1 1_555 1_555
C2A C1A 1_555 1_555
C1A P1A 1_555 1_555
P1A O1D 1_555 1_555
O1D Cu1B 1_555 1_555
Cu1D O1D 1_555 1_555
O2G P1A 1_555 1_555
Cu1G O2G 1_555 1_555
O3G P1A 1_555 1_555
Cu1A O3G 1_555 1_555
C3A C1 1_555 1_555
O4F Cu1F 1_555 1_555
P1 O3F 1_555 1_555
C3 C3A 1_555 1_555
Cu1F O2F 1_555 1_555

#END
