
#######################################################################
#
#                 Cambridge Crystallographic Data Centre
#                                CCDC 
#
#######################################################################
#
# If this CIF has been generated from an entry in the Cambridge 
# Structural Database, then it will include bibliographic, chemical, 
# crystal, experimental, refinement or atomic coordinate data resulting 
# from the CCDC's data processing and validation procedures.
#
#######################################################################

data_TOBHOI
_symmetry_cell_setting           monoclinic
_symmetry_space_group_name_H-M   'C 2/c'
_symmetry_Int_Tables_number      15
_space_group_name_Hall           '-C 2yn'
loop_
_symmetry_equiv_pos_site_id
_symmetry_equiv_pos_as_xyz
1 x,y,z
2 1/2+x,1/2+y,z
3 -x,y,1/2-z
4 1/2-x,1/2+y,1/2-z
5 -x,-y,-z
6 1/2-x,1/2-y,-z
7 x,-y,1/2+z
8 1/2+x,1/2-y,1/2+z
_cell_length_a                   13.540(3)
_cell_length_b                   8.160(2)
_cell_length_c                   24.223(5)
_cell_angle_alpha                90
_cell_angle_beta                 99.546(15)
_cell_angle_gamma                90
_cell_volume                     2639.25
loop_
_atom_site_label
_atom_site_type_symbol
_atom_site_fract_x
_atom_site_fract_y
_atom_site_fract_z
Ag1 Ag 0.40822(3) 0.04719(5) 0.698630(15)
C1 C 0.4164(4) 0.7535(6) 0.58243(19)
C2 C 0.4211(3) 0.5872(5) 0.60835(17)
C3 C 0.4339(4) 0.4453(6) 0.57882(17)
H1 H 0.4417 0.4514 0.5415
C4 C 0.4348(4) 0.2962(6) 0.60478(18)
H2 H 0.4430 0.2020 0.5844
C5 C 0.4137(4) 0.4183(6) 0.68640(19)
H3 H 0.4070 0.4087 0.7239
C6 C 0.4119(4) 0.5724(6) 0.66396(19)
H4 H 0.4046 0.6644 0.6856
C7 C 0.3575(4) -0.0952(6) 0.80056(17)
C8 C 0.3373(3) -0.2215(5) 0.84252(16)
C9 C 0.3225(3) -0.3796(6) 0.82196(17)
H5 H 0.3240 -0.3975 0.7842
C10 C 0.3056(4) -0.5119(6) 0.8547(2)
H6 H 0.2958 -0.6164 0.8394
C11 C 0.3036(4) -0.4842(6) 0.9109(2)
H7 H 0.2927 -0.5711 0.9340
C12 C 0.3177(4) -0.3304(6) 0.93258(18)
H8 H 0.3159 -0.3145 0.9704
C13 C 0.3346(3) -0.1963(5) 0.89994(17)
C14 C 0.3497(4) -0.0355(6) 0.93203(18)
N1 N 0.4245(3) 0.2820(5) 0.65827(15)
O1 O 0.3992(3) 0.7496(5) 0.52779(12)
H9 H 0.3896 0.8431 0.5156
O2 O 0.4267(3) 0.8778(4) 0.60899(13)
O3 O 0.3817(3) -0.1459(4) 0.75691(13)
O4 O 0.3483(3) 0.0565(4) 0.80925(14)
O5 O 0.3438(3) 0.1015(4) 0.90631(14)
H10 H 0.3454 0.0858 0.8730
O6 O 0.3672(3) -0.0408(4) 0.98320(13)
Ag1B Ag 0.59178(3) 0.04719(5) 0.801370(15)
Ag1_2 Ag 0.40822(3) 1.04719(5) 0.698630(15)
O2_2 O 0.4267(3) -0.1222(4) 0.60899(13)
loop_
_geom_bond_atom_site_label_1
_geom_bond_atom_site_label_2
_geom_bond_site_symmetry_1
_geom_bond_site_symmetry_2
Ag1 N1 1_555 1_555
C1 C2 1_555 1_555
C2 C3 1_555 1_555
C3 H1 1_555 1_555
C4 C3 1_555 1_555
H2 C4 1_555 1_555
C5 H3 1_555 1_555
C6 C2 1_555 1_555
H4 C6 1_555 1_555
C7 C8 1_555 1_555
C8 C9 1_555 1_555
C9 H5 1_555 1_555
C10 C9 1_555 1_555
H6 C10 1_555 1_555
C11 C10 1_555 1_555
H7 C11 1_555 1_555
C12 C11 1_555 1_555
H8 C12 1_555 1_555
C13 C8 1_555 1_555
C14 C13 1_555 1_555
N1 C4 1_555 1_555
O1 C1 1_555 1_555
H9 O1 1_555 1_555
O2 C1 1_555 1_555
O3 Ag1 1_555 1_555
O4 C7 1_555 1_555
O5 C14 1_555 1_555
H10 O5 1_555 1_555
O6 C14 1_555 1_555
Ag1B Ag1 1_555 1_555
Ag1_2 O2 1_555 1_555
O2_2 Ag1 1_555 1_555
C5 C6 1_555 1_555
C5 N1 1_555 1_555
C7 O3 1_555 1_555
C12 C13 1_555 1_555

#END
