
#######################################################################
#
#                 Cambridge Crystallographic Data Centre
#                                CCDC 
#
#######################################################################
#
# If this CIF has been generated from an entry in the Cambridge 
# Structural Database, then it will include bibliographic, chemical, 
# crystal, experimental, refinement or atomic coordinate data resulting 
# from the CCDC's data processing and validation procedures.
#
#######################################################################

data_TOBHID
_symmetry_cell_setting           monoclinic
_symmetry_space_group_name_H-M   'P 2/c'
_symmetry_Int_Tables_number      13
_space_group_name_Hall           '-P 2yc'
loop_
_symmetry_equiv_pos_site_id
_symmetry_equiv_pos_as_xyz
1 x,y,z
2 -x,y,1/2-z
3 -x,-y,-z
4 x,-y,1/2+z
_cell_length_a                   12.036(3)
_cell_length_b                   10.259(3)
_cell_length_c                   17.392(4)
_cell_angle_alpha                90
_cell_angle_beta                 103.406(4)
_cell_angle_gamma                90
_cell_volume                     2089
loop_
_atom_site_label
_atom_site_type_symbol
_atom_site_fract_x
_atom_site_fract_y
_atom_site_fract_z
Cd1 Cd 0.5000 0.49050(10) 0.7500
N1 N 0.9474(7) 0.8797(8) 0.6393(5)
N2 N 0.9391(7) 1.0913(8) 0.6263(5)
H1 H 0.9568 1.1692 0.6152
N3 N 0.6232(7) 0.6479(8) 0.7237(5)
C1 C 1.1032(9) 0.9835(11) 0.5916(6)
N4 N 0.6162(8) 1.3329(8) 0.7129(5)
C2 C 0.8451(8) 1.0566(10) 0.6541(6)
C3 C 0.8105(8) 0.7214(10) 0.7232(6)
H2 H 0.8885 0.7045 0.7380
C4 C 0.8526(9) 0.9222(10) 0.6614(6)
C5 C 0.6552(9) 0.8477(10) 0.6610(6)
H3 H 0.6239 0.9211 0.6327
C6 C 0.7732(9) 0.8307(9) 0.6831(6)
C7 C 0.9978(9) 0.9833(9) 0.6194(6)
C8 C 0.7350(9) 0.6341(10) 0.7429(6)
H4 H 0.7648 0.5605 0.7716
C9 C 0.5869(8) 0.7554(10) 0.6814(6)
H5 H 0.5084 0.7676 0.6647
C10 C 0.6447(9) 1.2236(10) 0.7542(6)
H6 H 0.6136 1.2085 0.7977
C11 C 0.7635(9) 1.1506(10) 0.6724(7)
C12 C 0.7162(10) 1.1341(10) 0.7360(6)
H7 H 0.7337 1.0598 0.7672
O1 O 0.5918(11) 0.5215(11) 0.8838(7)
C13 C 1.1489(11) 1.0950(12) 0.5673(6)
H8 H 1.1113 1.1743 0.5667
C14 C 0.6659(10) 1.3524(11) 0.6515(7)
H9 H 0.6497 1.4291 0.6226
C15 C 1.1607(9) 0.8694(13) 0.5899(7)
H10 H 1.1315 0.7911 0.6037
N5 N 1.3066(9) 0.9793(13) 0.5443(7)
C16 C 0.7367(10) 1.2674(11) 0.6307(7)
H11 H 0.7686 1.2856 0.5880
C17 C 1.2622(11) 0.8725(16) 0.5674(7)
H12 H 1.3024 0.7949 0.5684
C18 C 1.2499(13) 1.0885(15) 0.5439(8)
H13 H 1.2794 1.1644 0.5272
N6 N 0.6615(14) 0.4723(14) 0.9237(10)
O2 O 0.717(2) 0.391(3) 0.8881(16)
O3 O 0.703(3) 0.474(2) 0.9965(13)
N1A N 0.0526(7) 0.8797(8) 0.8607(5)
N2A N 0.0609(7) 1.0913(8) 0.8737(5)
H1A H 0.0432 1.1692 0.8848
N3A N 0.3768(7) 0.6479(8) 0.7763(5)
C1A C -0.1032(9) 0.9835(11) 0.9084(6)
N4A N 0.3838(8) 1.3329(8) 0.7871(5)
C2A C 0.1549(8) 1.0566(10) 0.8459(6)
C3A C 0.1895(8) 0.7214(10) 0.7768(6)
H2A H 0.1115 0.7045 0.7620
C4A C 0.1474(9) 0.9222(10) 0.8386(6)
C5A C 0.3448(9) 0.8477(10) 0.8390(6)
H3A H 0.3761 0.9211 0.8673
C6A C 0.2268(9) 0.8307(9) 0.8169(6)
C7A C 0.0022(9) 0.9833(9) 0.8806(6)
C8A C 0.2650(9) 0.6341(10) 0.7571(6)
H4A H 0.2352 0.5605 0.7284
C9A C 0.4131(8) 0.7554(10) 0.8186(6)
H5A H 0.4916 0.7676 0.8353
C10A C 0.3553(9) 1.2236(10) 0.7458(6)
H6A H 0.3864 1.2085 0.7023
C11A C 0.2365(9) 1.1506(10) 0.8276(7)
C12A C 0.2838(10) 1.1341(10) 0.7640(6)
H7A H 0.2663 1.0598 0.7328
O1A O 0.4082(11) 0.5215(11) 0.6162(7)
C13A C -0.1489(11) 1.0950(12) 0.9327(6)
H8A H -0.1113 1.1743 0.9333
C14A C 0.3341(10) 1.3524(11) 0.8485(7)
H9A H 0.3503 1.4291 0.8774
C15A C -0.1607(9) 0.8694(13) 0.9101(7)
H10A H -0.1315 0.7911 0.8963
N5A N -0.3066(9) 0.9793(13) 0.9557(7)
C16A C 0.2633(10) 1.2674(11) 0.8693(7)
H11A H 0.2314 1.2856 0.9120
C17A C -0.2622(11) 0.8725(16) 0.9326(7)
H12A H -0.3024 0.7949 0.9316
C18A C -0.2499(13) 1.0885(15) 0.9561(8)
H13A H -0.2794 1.1644 0.9728
N6A N 0.3385(14) 0.4723(14) 0.5763(10)
O2A O 0.283(2) 0.391(3) 0.6119(16)
O3A O 0.297(3) 0.474(2) 0.5035(13)
Cd1_2 Cd 0.5000 1.49050(10) 0.7500
N4_2 N 0.6162(8) 0.3329(8) 0.7129(5)
N4A_2 N 0.3838(8) 0.3329(8) 0.7871(5)
O4 O 0.9423(14) 0.6200(12) 0.5682(9)
O5 O 0.5057(15) 1.1130(19) 0.5326(12)
O6 O 0.5495(18) 0.364(2) 1.0003(10)
O9 O 1.0000 1.322(3) 0.7500
O10 O 1.0061(19) 1.368(2) 0.6655(13)
O10A O 0.9939(19) 1.368(2) 0.8345(13)
O7? O 1.0000 1.470(5) 0.7500
O8? O 0.9902(18) 1.351(2) 0.5875(13)
O11? O 0.825(4) 0.535(3) 0.943(2)
loop_
_geom_bond_atom_site_label_1
_geom_bond_atom_site_label_2
_geom_bond_site_symmetry_1
_geom_bond_site_symmetry_2
Cd1 N3 1_555 1_555
N1 C4 1_555 1_555
N2 H1 1_555 1_555
N3 C8 1_555 1_555
C1 C7 1_555 1_555
N4 C10 1_555 1_555
C2 N2 1_555 1_555
C3 H2 1_555 1_555
C4 C2 1_555 1_555
C5 H3 1_555 1_555
C6 C3 1_555 1_555
C7 N1 1_555 1_555
C8 C3 1_555 1_555
H4 C8 1_555 1_555
C9 N3 1_555 1_555
H5 C9 1_555 1_555
C10 H6 1_555 1_555
C11 C2 1_555 1_555
C12 C10 1_555 1_555
H7 C12 1_555 1_555
O1 Cd1 1_555 1_555
C13 C1 1_555 1_555
H8 C13 1_555 1_555
C14 N4 1_555 1_555
H9 C14 1_555 1_555
C15 C1 1_555 1_555
H10 C15 1_555 1_555
N5 C17 1_555 1_555
C16 C11 1_555 1_555
H11 C16 1_555 1_555
C17 C15 1_555 1_555
H12 C17 1_555 1_555
C18 C13 1_555 1_555
H13 C18 1_555 1_555
N6 O1 1_555 1_555
O2 N6 1_555 1_555
O3 N6 1_555 1_555
N1A C4A 1_555 1_555
N2A H1A 1_555 1_555
N3A Cd1 1_555 1_555
C1A C7A 1_555 1_555
N4A C10A 1_555 1_555
C2A N2A 1_555 1_555
C3A H2A 1_555 1_555
C4A C2A 1_555 1_555
C5A H3A 1_555 1_555
C6A C3A 1_555 1_555
C7A N1A 1_555 1_555
C8A N3A 1_555 1_555
H4A C8A 1_555 1_555
C9A N3A 1_555 1_555
H5A C9A 1_555 1_555
C10A H6A 1_555 1_555
C11A C2A 1_555 1_555
C12A C10A 1_555 1_555
H7A C12A 1_555 1_555
O1A Cd1 1_555 1_555
C13A C1A 1_555 1_555
H8A C13A 1_555 1_555
C14A N4A 1_555 1_555
H9A C14A 1_555 1_555
C15A C1A 1_555 1_555
H10A C15A 1_555 1_555
N5A C17A 1_555 1_555
C16A C11A 1_555 1_555
H11A C16A 1_555 1_555
C17A C15A 1_555 1_555
H12A C17A 1_555 1_555
C18A C13A 1_555 1_555
H13A C18A 1_555 1_555
N6A O1A 1_555 1_555
O2A N6A 1_555 1_555
O3A N6A 1_555 1_555
Cd1_2 N4 1_555 1_555
N4_2 Cd1 1_555 1_555
N4A_2 Cd1 1_555 1_555
N2 C7 1_555 1_555
C4 C6 1_555 1_555
C5 C6 1_555 1_555
C5 C9 1_555 1_555
C11 C12 1_555 1_555
C14 C16 1_555 1_555
N5 C18 1_555 1_555
N2A C7A 1_555 1_555
N4A Cd1_2 1_555 1_555
C3A C8A 1_555 1_555
C4A C6A 1_555 1_555
C5A C6A 1_555 1_555
C5A C9A 1_555 1_555
C11A C12A 1_555 1_555
C14A C16A 1_555 1_555
N5A C18A 1_555 1_555

#END
