
#######################################################################
#
#                 Cambridge Crystallographic Data Centre
#                                CCDC 
#
#######################################################################
#
# If this CIF has been generated from an entry in the Cambridge 
# Structural Database, then it will include bibliographic, chemical, 
# crystal, experimental, refinement or atomic coordinate data resulting 
# from the CCDC's data processing and validation procedures.
#
#######################################################################

data_TOBNOO
_symmetry_cell_setting           monoclinic
_symmetry_space_group_name_H-M   'P 21/c'
_symmetry_Int_Tables_number      14
_space_group_name_Hall           '-P 2ybc'
loop_
_symmetry_equiv_pos_site_id
_symmetry_equiv_pos_as_xyz
1 x,y,z
2 -x,1/2+y,1/2-z
3 -x,-y,-z
4 x,1/2-y,1/2+z
_cell_length_a                   7.6299(13)
_cell_length_b                   13.201(2)
_cell_length_c                   7.2714(12)
_cell_angle_alpha                90
_cell_angle_beta                 96.516(3)
_cell_angle_gamma                90
_cell_volume                     727.661
loop_
_atom_site_label
_atom_site_type_symbol
_atom_site_fract_x
_atom_site_fract_y
_atom_site_fract_z
Mn1 Mn 0.0000 1.0000 0.0000
S1 S -0.27355(6) 0.87969(4) 0.28519(7)
O1 O -0.2847(2) 0.95339(12) 0.4310(2)
O2 O -0.1766(2) 0.78954(11) 0.3466(2)
O3 O -0.2136(2) 0.92419(13) 0.1200(2)
O4 O 0.0783(2) 1.09357(11) 0.2404(2)
H1 H 0.1331 1.0735 0.3492
H2 H 0.1133 1.1574 0.2295
N1 N -0.7916(2) 0.88314(12) 0.1103(2)
C1 C -0.8294(3) 0.78382(15) 0.1017(3)
H3 H -0.9453 0.7645 0.0646
C2 C -0.7054(3) 0.70884(16) 0.1449(3)
H4 H -0.7373 0.6409 0.1363
C3 C -0.5332(3) 0.73661(15) 0.2010(3)
H5 H -0.4466 0.6878 0.2303
C4 C -0.4921(2) 0.83896(15) 0.2129(3)
C5 C -0.6239(3) 0.90965(14) 0.1666(3)
H6 H -0.5953 0.9781 0.1747
Mn1_2 Mn -1.0000 1.0000 0.0000
Mn1_3 Mn 1.0000 1.0000 0.0000
S1B S 0.27355(6) 1.12031(4) -0.28519(7)
O1B O 0.2847(2) 1.04661(12) -0.4310(2)
O2B O 0.1766(2) 1.21046(11) -0.3466(2)
O3B O 0.2136(2) 1.07581(13) -0.1200(2)
O4B O -0.0783(2) 0.90643(11) -0.2404(2)
H1B H -0.1331 0.9265 -0.3492
H2B H -0.1133 0.8426 -0.2295
N1B N 0.7916(2) 1.11686(12) -0.1103(2)
N1_2 N 0.2084(2) 0.88314(12) 0.1103(2)
N1B_2 N -0.2084(2) 1.11686(12) -0.1103(2)
C1B C 0.8294(3) 1.21618(15) -0.1017(3)
H3B H 0.9453 1.2355 -0.0646
C2B C 0.7054(3) 1.29116(16) -0.1449(3)
H4B H 0.7373 1.3591 -0.1363
C3B C 0.5332(3) 1.26339(15) -0.2010(3)
H5B H 0.4466 1.3122 -0.2303
C4B C 0.4921(2) 1.16104(15) -0.2129(3)
C5B C 0.6239(3) 1.09035(14) -0.1666(3)
H6B H 0.5953 1.0219 -0.1747
loop_
_geom_bond_atom_site_label_1
_geom_bond_atom_site_label_2
_geom_bond_site_symmetry_1
_geom_bond_site_symmetry_2
Mn1 O3 1_555 1_555
S1 O1 1_555 1_555
O2 S1 1_555 1_555
O3 S1 1_555 1_555
O4 Mn1 1_555 1_555
H1 O4 1_555 1_555
H2 O4 1_555 1_555
N1 C1 1_555 1_555
C1 H3 1_555 1_555
C2 C1 1_555 1_555
H4 C2 1_555 1_555
C3 C2 1_555 1_555
H5 C3 1_555 1_555
C4 S1 1_555 1_555
C5 N1 1_555 1_555
H6 C5 1_555 1_555
Mn1_2 N1 1_555 1_555
Mn1_3 N1B 1_555 1_555
S1B O1B 1_555 1_555
O2B S1B 1_555 1_555
O3B Mn1 1_555 1_555
O4B Mn1 1_555 1_555
H1B O4B 1_555 1_555
H2B O4B 1_555 1_555
N1B C1B 1_555 1_555
N1_2 Mn1 1_555 1_555
N1B_2 Mn1 1_555 1_555
C1B H3B 1_555 1_555
C2B C1B 1_555 1_555
H4B C2B 1_555 1_555
C3B C2B 1_555 1_555
H5B C3B 1_555 1_555
C4B S1B 1_555 1_555
C5B N1B 1_555 1_555
H6B C5B 1_555 1_555
C3 C4 1_555 1_555
C4 C5 1_555 1_555
S1B O3B 1_555 1_555
C3B C4B 1_555 1_555
C4B C5B 1_555 1_555

#END
