
#######################################################################
#
#                 Cambridge Crystallographic Data Centre
#                                CCDC 
#
#######################################################################
#
# If this CIF has been generated from an entry in the Cambridge 
# Structural Database, then it will include bibliographic, chemical, 
# crystal, experimental, refinement or atomic coordinate data resulting 
# from the CCDC's data processing and validation procedures.
#
#######################################################################

data_TOBYAK
_symmetry_cell_setting           monoclinic
_symmetry_space_group_name_H-M   'P 21/n'
_symmetry_Int_Tables_number      14
_space_group_name_Hall           '-P 2yn'
loop_
_symmetry_equiv_pos_site_id
_symmetry_equiv_pos_as_xyz
1 x,y,z
2 1/2-x,1/2+y,1/2-z
3 -x,-y,-z
4 1/2+x,1/2-y,1/2+z
_cell_length_a                   9.696(3)
_cell_length_b                   14.839(4)
_cell_length_c                   17.076(3)
_cell_angle_alpha                90
_cell_angle_beta                 92.70(2)
_cell_angle_gamma                90
_cell_volume                     2454.15
loop_
_atom_site_label
_atom_site_type_symbol
_atom_site_fract_x
_atom_site_fract_y
_atom_site_fract_z
F1 F 0.390(1) 0.2328(8) 0.0306(8)
F2 F 0.3491(9) 0.1286(10) -0.0428(5)
F3 F 0.4378(8) 0.0979(8) 0.0665(5)
F4 F -0.139(1) 0.2025(9) -0.0781(7)
F5 F -0.2674(9) 0.180(1) -0.0009(6)
F6 F -0.175(1) 0.0774(7) -0.0614(8)
F7 F 0.3310(8) 0.0923(7) 0.4520(5)
F8 F 0.132(1) 0.1316(7) 0.4867(5)
F9 F 0.192(1) -0.0049(7) 0.4978(5)
F10 F 0.046(1) -0.2147(6) 0.2563(10)
F11 F -0.105(1) -0.1801(6) 0.3303(6)
F12 F -0.135(1) -0.1565(7) 0.2163(7)
O1 O 0.2104(6) 0.1311(5) 0.1361(4)
O2 O -0.0797(6) 0.1322(5) 0.1042(4)
O3 O 0.1551(7) 0.1117(5) 0.3241(4)
O4 O 0.0235(8) -0.0137(5) 0.2191(4)
N1 N -0.1618(7) 0.1369(6) 0.2715(5)
N2 N -0.3809(8) 0.1081(5) 0.2876(5)
N3 N -0.5509(9) -0.2155(5) 0.2814(6)
Mn1 Mn 0.0392(2) 0.1339(1) 0.21479(9)
C1 C 0.350(2) 0.152(1) 0.0292(9)
C2 C 0.207(1) 0.1397(9) 0.0633(7)
C3 C 0.092(1) 0.145(1) 0.0123(6)
C4 C -0.040(1) 0.1359(8) 0.0367(6)
C5 C -0.163(2) 0.144(1) -0.0222(9)
C6 C 0.200(2) 0.065(1) 0.4528(8)
C7 C 0.141(1) 0.0461(8) 0.3686(6)
C8 C 0.076(1) -0.0380(8) 0.3540(6)
C9 C 0.024(1) -0.0614(8) 0.2803(7)
C10 C -0.040(2) -0.156(1) 0.269(1)
C11 C -0.280(1) 0.1095(7) 0.2389(6)
C12 C -0.193(1) 0.1573(7) 0.3465(6)
C13 C -0.326(1) 0.1408(8) 0.3577(6)
C14 C -0.521(1) 0.0746(7) 0.2699(6)
C15 C -0.530(1) -0.0281(7) 0.2751(7)
C16 C -0.453(1) -0.0776(9) 0.3263(8)
C17 C -0.472(2) -0.1694(9) 0.3291(8)
C18 C 0.123(1) -0.6700(9) 0.2685(8)
C19 C -0.612(1) -0.0772(8) 0.2241(7)
H1 H 0.1057 0.1492 -0.0451
H2 H 0.0727 -0.0834 0.3965
H3 H -0.2919 0.0942 0.1820
H4 H -0.1285 0.1811 0.3850
H5 H -0.3771 0.1480 0.4071
H6 H -0.5868 0.1022 0.3041
H7 H -0.5530 0.0949 0.2164
H8 H -0.3889 -0.0497 0.3638
H9 H -0.0864 -0.7047 0.1311
H10 H 0.1902 -0.7006 0.3012
H11 H -0.6646 -0.0447 0.1799
N3A N 0.0509(9) 0.2845(5) 0.2186(6)
Mn1A Mn -0.5392(2) -0.3661(1) 0.28521(9)
O1A O -0.7104(6) -0.3689(5) 0.3639(4)
C2A C -0.707(1) -0.3603(9) 0.4367(7)
C1A C -0.850(2) -0.348(1) 0.4708(9)
F1A F -0.890(1) -0.2672(8) 0.4694(8)
F2A F -0.8491(9) -0.3714(10) 0.5428(5)
F3A F -0.9378(8) -0.4021(8) 0.4335(5)
C3A C -0.592(1) -0.355(1) 0.4877(6)
C4A C -0.460(1) -0.3641(8) 0.4633(6)
O2A O -0.4203(6) -0.3678(5) 0.3958(4)
O3A O -0.6551(7) -0.3883(5) 0.1759(4)
C7A C -0.641(1) -0.4539(8) 0.1314(6)
C6A C -0.700(2) -0.435(1) 0.0472(8)
F7A F -0.8310(8) -0.4077(7) 0.0480(5)
F8A F -0.632(1) -0.3684(7) 0.0133(5)
F9A F -0.692(1) -0.5049(7) 0.0022(5)
C8A C -0.576(1) -0.5380(8) 0.1460(6)
C9A C -0.524(1) -0.5614(8) 0.2197(7)
O4A O -0.5235(8) -0.5137(5) 0.2809(4)
N1A N -0.3382(7) -0.3631(6) 0.2285(5)
C11A C -0.220(1) -0.3905(7) 0.2611(6)
N2A N -0.1191(8) -0.3919(5) 0.2124(5)
C13A C -0.174(1) -0.3592(8) 0.1423(6)
C12A C -0.307(1) -0.3427(7) 0.1535(6)
H4A H -0.3715 -0.3189 0.1150
H5A H -0.1229 -0.3520 0.0929
C14A C 0.021(1) -0.4254(7) 0.2301(6)
C15A C 0.030(1) -0.5281(7) 0.2249(7)
C16A C -0.047(1) -0.5776(9) 0.1737(8)
C17A C -0.028(2) -0.6694(9) 0.1709(8)
N3A_2 N 0.0509(9) -0.7155(5) 0.2186(6)
Mn1_2 Mn 0.0392(2) -0.8661(1) 0.21479(9)
H8A H -0.1111 -0.5497 0.1362
C19A C 0.112(1) -0.5772(8) 0.2759(7)
H6A H 0.0868 -0.3978 0.1959
H7A H 0.0530 -0.4051 0.2836
H3A H -0.2081 -0.4058 0.3180
C10A C -0.460(2) -0.656(1) 0.231(1)
F10A F -0.546(1) -0.7147(6) 0.2437(10)
F11A F -0.395(1) -0.6801(6) 0.1697(6)
F12A F -0.365(1) -0.6565(7) 0.2837(7)
H2A H -0.5727 -0.5834 0.1035
C5A C -0.337(2) -0.356(1) 0.5222(9)
F4A F -0.361(1) -0.2975(9) 0.5781(7)
F5A F -0.2326(9) -0.320(1) 0.5009(6)
F6A F -0.325(1) -0.4226(7) 0.5614(8)
H1A H -0.6057 -0.3508 0.5451
C18A C -0.623(1) -0.1700(9) 0.2315(8)
H9A H -0.4136 -0.2047 0.3689
H11A H 0.1646 -0.5447 0.3201
H10A H -0.6902 -0.2006 0.1988
loop_
_geom_bond_atom_site_label_1
_geom_bond_atom_site_label_2
_geom_bond_site_symmetry_1
_geom_bond_site_symmetry_2
F1 C1 1_555 1_555
F2 C1 1_555 1_555
F3 C1 1_555 1_555
F4 C5 1_555 1_555
F5 C5 1_555 1_555
F6 C5 1_555 1_555
F7 C6 1_555 1_555
F8 C6 1_555 1_555
F9 C6 1_555 1_555
F10 C10 1_555 1_555
F11 C10 1_555 1_555
F12 C10 1_555 1_555
O1 Mn1 1_555 1_555
O2 Mn1 1_555 1_555
O3 Mn1 1_555 1_555
O4 Mn1 1_555 1_555
N1 Mn1 1_555 1_555
N2 C11 1_555 1_555
N3 C17 1_555 1_555
Mn1 N3A 1_555 1_555
C1 C2 1_555 1_555
C2 O1 1_555 1_555
C3 C2 1_555 1_555
C4 O2 1_555 1_555
C5 C4 1_555 1_555
C6 C7 1_555 1_555
C7 O3 1_555 1_555
C8 C7 1_555 1_555
C9 O4 1_555 1_555
C10 C9 1_555 1_555
C11 N1 1_555 1_555
C12 N1 1_555 1_555
C13 N2 1_555 1_555
C14 N2 1_555 1_555
C15 C14 1_555 1_555
C16 C15 1_555 1_555
C17 C16 1_555 1_555
C18 H10 1_555 1_555
C19 C15 1_555 1_555
H1 C3 1_555 1_555
H2 C8 1_555 1_555
H3 C11 1_555 1_555
H4 C12 1_555 1_555
H5 C13 1_555 1_555
H6 C14 1_555 1_555
H7 C14 1_555 1_555
H8 C16 1_555 1_555
H9 C17A 1_555 1_555
H11 C19 1_555 1_555
Mn1A N3 1_555 1_555
O1A Mn1A 1_555 1_555
C2A O1A 1_555 1_555
C1A C2A 1_555 1_555
F1A C1A 1_555 1_555
F2A C1A 1_555 1_555
F3A C1A 1_555 1_555
C3A C2A 1_555 1_555
C4A C3A 1_555 1_555
O2A Mn1A 1_555 1_555
O3A Mn1A 1_555 1_555
C7A O3A 1_555 1_555
C6A C7A 1_555 1_555
F7A C6A 1_555 1_555
F8A C6A 1_555 1_555
F9A C6A 1_555 1_555
C8A C7A 1_555 1_555
C9A C8A 1_555 1_555
O4A Mn1A 1_555 1_555
N1A Mn1A 1_555 1_555
C11A N1A 1_555 1_555
N2A C11A 1_555 1_555
C13A N2A 1_555 1_555
C12A N1A 1_555 1_555
H4A C12A 1_555 1_555
H5A C13A 1_555 1_555
C14A N2A 1_555 1_555
C15A C14A 1_555 1_555
C16A C15A 1_555 1_555
C17A C16A 1_555 1_555
N3A_2 C18 1_555 1_555
Mn1_2 N3A_2 1_555 1_555
H8A C16A 1_555 1_555
C19A C18 1_555 1_555
H6A C14A 1_555 1_555
H7A C14A 1_555 1_555
H3A C11A 1_555 1_555
C10A C9A 1_555 1_555
F10A C10A 1_555 1_555
F11A C10A 1_555 1_555
F12A C10A 1_555 1_555
H2A C8A 1_555 1_555
C5A C4A 1_555 1_555
F4A C5A 1_555 1_555
F5A C5A 1_555 1_555
F6A C5A 1_555 1_555
H1A C3A 1_555 1_555
C18A N3 1_555 1_555
H9A C17 1_555 1_555
H11A C19A 1_555 1_555
H10A C18A 1_555 1_555
C3 C4 1_555 1_555
C8 C9 1_555 1_555
C12 C13 1_555 1_555
C19 C18A 1_555 1_555
C4A O2A 1_555 1_555
C9A O4A 1_555 1_555
C13A C12A 1_555 1_555
C15A C19A 1_555 1_555
C17A N3A_2 1_555 1_555

#END
