
#######################################################################
#
#                 Cambridge Crystallographic Data Centre
#                                CCDC 
#
#######################################################################
#
# If this CIF has been generated from an entry in the Cambridge 
# Structural Database, then it will include bibliographic, chemical, 
# crystal, experimental, refinement or atomic coordinate data resulting 
# from the CCDC's data processing and validation procedures.
#
#######################################################################

data_TODSAI
_symmetry_cell_setting           monoclinic
_symmetry_space_group_name_H-M   'C 2/c'
_symmetry_Int_Tables_number      15
_space_group_name_Hall           '-C 2yn'
loop_
_symmetry_equiv_pos_site_id
_symmetry_equiv_pos_as_xyz
1 x,y,z
2 -x,y,1/2-z
3 1/2+x,1/2+y,z
4 1/2-x,1/2+y,1/2-z
5 -x,-y,-z
6 x,-y,1/2+z
7 1/2-x,1/2-y,-z
8 1/2+x,1/2-y,1/2+z
_cell_length_a                   19.952(7)
_cell_length_b                   18.500(6)
_cell_length_c                   13.756(5)
_cell_angle_alpha                90
_cell_angle_beta                 117.935(4)
_cell_angle_gamma                90
_cell_volume                     4485.87
loop_
_atom_site_label
_atom_site_type_symbol
_atom_site_fract_x
_atom_site_fract_y
_atom_site_fract_z
Yb1 Yb 0.14981(2) 0.187055(18) 0.27241(2)
S1 S 0.04634(12) 0.11977(11) -0.60227(14)
S2 S 0.19541(16) 0.26846(16) -0.2193(2)
O1 O -0.0358(3) 0.1230(3) -0.6628(4)
O2 O 0.1824(4) 0.2918(3) 0.3815(4)
N1 N 0.1295(4) 0.1705(3) 0.0838(5)
C1 C 0.0697(4) 0.1321(4) -0.4622(6)
C2 C 0.0944(5) 0.2208(4) 0.0059(6)
C3 C 0.1065(5) 0.1483(4) -0.2414(6)
N2 N 0.2000(4) 0.0730(4) 0.2445(5)
N3 N 0.0797(4) 0.2847(4) 0.1477(5)
O3 O 0.0796(4) 0.1818(3) -0.6310(4)
C4 C 0.1322(5) 0.1982(4) -0.2920(6)
C5 C 0.0482(5) 0.0804(5) -0.4092(6)
H1 H 0.0208 0.0402 -0.4481
C6 C 0.0665(5) 0.0878(4) -0.3011(6)
H2 H 0.0523 0.0522 -0.2666
C7 C 0.1560(5) 0.1110(4) 0.0567(6)
O4 O 0.2418(4) 0.2754(4) -0.2751(5)
O5 O 0.2593(3) 0.3392(3) 0.5467(4)
C8 C 0.2328(5) 0.2879(4) 0.4794(7)
C9 C 0.1506(5) 0.1029(5) -0.0474(6)
H3 H 0.1690 0.0613 -0.0648
O6 O 0.2392(5) 0.2432(5) -0.1097(6)
C10 C 0.1122(5) 0.1900(4) -0.4022(6)
H4 H 0.1279 0.2244 -0.4365
C11 C 0.0889(5) 0.2163(4) -0.0986(6)
H5 H 0.0659 0.2531 -0.1496
C12 C 0.0631(5) 0.2831(4) 0.0417(6)
C13 C 0.2378(6) 0.0270(5) 0.3270(7)
H6 H 0.2436 0.0387 0.3962
O7 O 0.0767(4) 0.0516(3) -0.6102(4)
C14 C 0.1943(4) 0.0563(4) 0.1446(6)
C15 C 0.1175(5) 0.1572(5) -0.1250(6)
O8 O 0.1511(6) 0.3302(5) -0.2282(10)
C16 C 0.2227(5) -0.0056(5) 0.1283(7)
H7 H 0.2160 -0.0168 0.0584
C17 C 0.0177(7) 0.3348(6) -0.0324(9)
H8 H 0.0082 0.3323 -0.1053
C18 C 0.2623(6) -0.0538(5) 0.2155(7)
H9 H 0.2835 -0.0960 0.2052
C19 C 0.2687(6) -0.0366(5) 0.3156(7)
H10 H 0.2936 -0.0675 0.3753
C20 C 0.0524(6) 0.3397(5) 0.1807(8)
H11 H 0.0644 0.3418 0.2546
C21 C 0.0076(8) 0.3936(6) 0.1127(9)
H12 H -0.0084 0.4319 0.1405
C22 C -0.0133(8) 0.3894(6) -0.0001(9)
H13 H -0.0469 0.4224 -0.0504
O2F O 0.3176(4) 0.2082(3) 0.6185(4)
O5F O 0.2407(3) 0.1608(3) 0.4533(4)
C8F C 0.2672(5) 0.2121(4) 0.5206(7)
Yb1A Yb -0.14981(2) 0.187055(18) -0.77241(2)
S1A S -0.04634(12) 0.11977(11) 0.10227(14)
S2A S -0.19541(16) 0.26846(16) -0.2807(2)
O1A O 0.0358(3) 0.1230(3) 0.1628(4)
N1A N -0.1295(4) 0.1705(3) -0.5838(5)
C1A C -0.0697(4) 0.1321(4) -0.0378(6)
C2A C -0.0944(5) 0.2208(4) -0.5059(6)
C3A C -0.1065(5) 0.1483(4) -0.2586(6)
N2A N -0.2000(4) 0.0730(4) -0.7445(5)
N3A N -0.0797(4) 0.2847(4) -0.6477(5)
O3A O -0.0796(4) 0.1818(3) 0.1310(4)
C4A C -0.1322(5) 0.1982(4) -0.2080(6)
C5A C -0.0482(5) 0.0804(5) -0.0908(6)
H1A H -0.0208 0.0402 -0.0519
C6A C -0.0665(5) 0.0878(4) -0.1989(6)
H2A H -0.0523 0.0522 -0.2334
C7A C -0.1560(5) 0.1110(4) -0.5567(6)
O4A O -0.2418(4) 0.2754(4) -0.2249(5)
C9A C -0.1506(5) 0.1029(5) -0.4526(6)
H3A H -0.1690 0.0613 -0.4352
O6A O -0.2392(5) 0.2432(5) -0.3903(6)
C10A C -0.1122(5) 0.1900(4) -0.0978(6)
H4A H -0.1279 0.2244 -0.0635
C11A C -0.0889(5) 0.2163(4) -0.4014(6)
H5A H -0.0659 0.2531 -0.3504
C12A C -0.0631(5) 0.2831(4) -0.5417(6)
C13A C -0.2378(6) 0.0270(5) -0.8270(7)
H6A H -0.2436 0.0387 -0.8962
O7A O -0.0767(4) 0.0516(3) 0.1102(4)
C14A C -0.1943(4) 0.0563(4) -0.6446(6)
C15A C -0.1175(5) 0.1572(5) -0.3750(6)
O8A O -0.1511(6) 0.3302(5) -0.2718(10)
C16A C -0.2227(5) -0.0056(5) -0.6283(7)
H7A H -0.2160 -0.0168 -0.5584
C17A C -0.0177(7) 0.3348(6) -0.4676(9)
H8A H -0.0082 0.3323 -0.3947
C18A C -0.2623(6) -0.0538(5) -0.7155(7)
H9A H -0.2835 -0.0960 -0.7052
C19A C -0.2687(6) -0.0366(5) -0.8156(7)
H10A H -0.2936 -0.0675 -0.8753
C20A C -0.0524(6) 0.3397(5) -0.6807(8)
H11A H -0.0644 0.3418 -0.7546
C21A C -0.0076(8) 0.3936(6) -0.6127(9)
H12A H 0.0084 0.4319 -0.6405
C22A C 0.0133(8) 0.3894(6) -0.4999(9)
H13A H 0.0469 0.4224 -0.4496
Yb1_2 Yb 0.14981(2) 0.187055(18) -0.72759(2)
Yb1A_2 Yb -0.14981(2) 0.187055(18) 0.22759(2)
Yb1F Yb 0.35019(2) 0.312945(18) -0.27241(2)
Yb1F_2 Yb 0.35019(2) 0.312945(18) 0.72759(2)
Yb1G Yb -0.35019(2) 0.312945(18) -0.22759(2)
O2A O -0.1824(4) 0.2918(3) -0.8815(4)
O3_2 O 0.0796(4) 0.1818(3) 0.3690(4)
O3A_2 O -0.0796(4) 0.1818(3) -0.8690(4)
O4F O 0.2582(4) 0.2246(4) 0.2751(5)
O4G O -0.2582(4) 0.2246(4) -0.7751(5)
O5G O -0.2407(3) 0.1608(3) -0.9533(4)
O9 O 0.098(2) 0.4354(14) -0.152(3)
H14 H 0.0897 0.4261 -0.2164
H15 H 0.1212 0.4031 -0.1117
loop_
_geom_bond_atom_site_label_1
_geom_bond_atom_site_label_2
_geom_bond_site_symmetry_1
_geom_bond_site_symmetry_2
Yb1 O2 1_555 1_555
S1 O1 1_555 1_555
S2 C4 1_555 1_555
O1 Yb1A 1_555 1_555
O2 C8 1_555 1_555
N1 Yb1 1_555 1_555
C1 S1 1_555 1_555
C2 N1 1_555 1_555
C3 C4 1_555 1_555
N2 Yb1 1_555 1_555
N3 Yb1 1_555 1_555
O3 S1 1_555 1_555
C4 C10 1_555 1_555
C5 C1 1_555 1_555
H1 C5 1_555 1_555
C6 C3 1_555 1_555
H2 C6 1_555 1_555
C7 N1 1_555 1_555
O4 S2 1_555 1_555
O5 C8 1_555 1_555
C8 C8F 1_555 1_555
C9 C7 1_555 1_555
H3 C9 1_555 1_555
O6 S2 1_555 1_555
C10 C1 1_555 1_555
H4 C10 1_555 1_555
C11 C2 1_555 1_555
H5 C11 1_555 1_555
C12 C2 1_555 1_555
C13 N2 1_555 1_555
H6 C13 1_555 1_555
O7 S1 1_555 1_555
C14 N2 1_555 1_555
C15 C3 1_555 1_555
O8 S2 1_555 1_555
C16 C14 1_555 1_555
H7 C16 1_555 1_555
C17 C12 1_555 1_555
H8 C17 1_555 1_555
C18 C16 1_555 1_555
H9 C18 1_555 1_555
C19 C13 1_555 1_555
H10 C19 1_555 1_555
C20 N3 1_555 1_555
H11 C20 1_555 1_555
C21 C20 1_555 1_555
H12 C21 1_555 1_555
C22 C17 1_555 1_555
H13 C22 1_555 1_555
O9 H14 1_555 1_555
H15 O9 1_555 1_555
O2F C8F 1_555 1_555
O5F Yb1 1_555 1_555
C8F O5F 1_555 1_555
Yb1A N1A 1_555 1_555
S1A O1A 1_555 1_555
S2A C4A 1_555 1_555
O1A Yb1 1_555 1_555
N1A C2A 1_555 1_555
C1A S1A 1_555 1_555
C2A C11A 1_555 1_555
C3A C4A 1_555 1_555
N2A Yb1A 1_555 1_555
N3A Yb1A 1_555 1_555
O3A S1A 1_555 1_555
C4A C10A 1_555 1_555
C5A C1A 1_555 1_555
H1A C5A 1_555 1_555
C6A C3A 1_555 1_555
H2A C6A 1_555 1_555
C7A N1A 1_555 1_555
O4A S2A 1_555 1_555
C9A C7A 1_555 1_555
H3A C9A 1_555 1_555
O6A S2A 1_555 1_555
C10A C1A 1_555 1_555
H4A C10A 1_555 1_555
C11A H5A 1_555 1_555
C12A C2A 1_555 1_555
C13A N2A 1_555 1_555
H6A C13A 1_555 1_555
O7A S1A 1_555 1_555
C14A N2A 1_555 1_555
C15A C3A 1_555 1_555
O8A S2A 1_555 1_555
C16A C14A 1_555 1_555
H7A C16A 1_555 1_555
C17A C12A 1_555 1_555
H8A C17A 1_555 1_555
C18A C16A 1_555 1_555
H9A C18A 1_555 1_555
C19A C13A 1_555 1_555
H10A C19A 1_555 1_555
C20A N3A 1_555 1_555
H11A C20A 1_555 1_555
C21A C20A 1_555 1_555
H12A C21A 1_555 1_555
C22A C17A 1_555 1_555
H13A C22A 1_555 1_555
Yb1_2 O3 1_555 1_555
Yb1A_2 O3A 1_555 1_555
Yb1F O4 1_555 1_555
Yb1F_2 O5 1_555 1_555
Yb1G O4A 1_555 1_555
O2A Yb1A 1_555 1_555
O3_2 Yb1 1_555 1_555
O3A_2 Yb1A 1_555 1_555
O4F Yb1 1_555 1_555
O4G Yb1A 1_555 1_555
O5G Yb1A 1_555 1_555
N3 C12 1_555 1_555
C5 C6 1_555 1_555
C7 C14 1_555 1_555
C9 C15 1_555 1_555
C11 C15 1_555 1_555
C18 C19 1_555 1_555
C21 C22 1_555 1_555
O2F Yb1F_2 1_555 1_555
N3A C12A 1_555 1_555
C5A C6A 1_555 1_555
C7A C14A 1_555 1_555
C9A C15A 1_555 1_555
C11A C15A 1_555 1_555
C18A C19A 1_555 1_555
C21A C22A 1_555 1_555

#END
