
#######################################################################
#
#                 Cambridge Crystallographic Data Centre
#                                CCDC 
#
#######################################################################
#
# If this CIF has been generated from an entry in the Cambridge 
# Structural Database, then it will include bibliographic, chemical, 
# crystal, experimental, refinement or atomic coordinate data resulting 
# from the CCDC's data processing and validation procedures.
#
#######################################################################

data_TODSEM
_symmetry_cell_setting           monoclinic
_symmetry_space_group_name_H-M   'C 2/c'
_symmetry_Int_Tables_number      15
_space_group_name_Hall           '-C 2yn'
loop_
_symmetry_equiv_pos_site_id
_symmetry_equiv_pos_as_xyz
1 x,y,z
2 -x,y,1/2-z
3 1/2+x,1/2+y,z
4 1/2-x,1/2+y,1/2-z
5 -x,-y,-z
6 x,-y,1/2+z
7 1/2-x,1/2-y,-z
8 1/2+x,1/2-y,1/2+z
_cell_length_a                   19.858(3)
_cell_length_b                   18.452(2)
_cell_length_c                   13.7432(18)
_cell_angle_alpha                90
_cell_angle_beta                 118.078(2)
_cell_angle_gamma                90
_cell_volume                     4443.11
loop_
_atom_site_label
_atom_site_type_symbol
_atom_site_fract_x
_atom_site_fract_y
_atom_site_fract_z
Lu1 Lu 0.150250(19) 0.187188(18) 0.27257(3)
S1 S 0.04618(11) 0.11987(11) -0.60280(16)
S2 S 0.19562(16) 0.26840(17) -0.2183(2)
O1 O -0.0365(3) 0.1227(3) -0.6639(4)
O2 O 0.1825(3) 0.2922(3) 0.3802(4)
N1 N 0.1298(4) 0.1696(4) 0.0845(5)
C1 C 0.0694(4) 0.1310(4) -0.4625(6)
C2 C 0.0950(5) 0.2211(5) 0.0073(7)
C3 C 0.1076(5) 0.1476(5) -0.2400(7)
N2 N 0.2001(4) 0.0731(3) 0.2465(5)
N3 N 0.0794(4) 0.2858(4) 0.1486(6)
O3 O 0.0802(3) 0.1821(3) -0.6306(5)
C4 C 0.1310(5) 0.1972(5) -0.2933(7)
C5 C 0.0487(5) 0.0795(4) -0.4104(7)
H1 H 0.0223 0.0385 -0.4488
C6 C 0.0672(5) 0.0880(5) -0.2994(7)
H2 H 0.0521 0.0529 -0.2651
C7 C 0.1567(4) 0.1109(4) 0.0569(6)
O4 O 0.2409(3) 0.2755(4) -0.2752(5)
O5 O 0.2585(3) 0.3391(3) 0.5475(5)
C8 C 0.2334(5) 0.2881(4) 0.4800(7)
C9 C 0.1503(5) 0.1030(5) -0.0479(7)
H3 H 0.1687 0.0614 -0.0657
O6 O 0.2403(5) 0.2420(5) -0.1090(7)
C10 C 0.1122(4) 0.1900(4) -0.4032(6)
H4 H 0.1282 0.2245 -0.4372
C11 C 0.0888(5) 0.2162(5) -0.0973(6)
H5 H 0.0657 0.2532 -0.1483
C12 C 0.0630(5) 0.2835(5) 0.0418(7)
C13 C 0.2384(5) 0.0259(5) 0.3296(7)
H6 H 0.2435 0.0372 0.3987
O7 O 0.0771(4) 0.0518(3) -0.6098(5)
C14 C 0.1955(4) 0.0557(4) 0.1464(7)
C15 C 0.1167(5) 0.1571(5) -0.1248(6)
O8 O 0.1522(6) 0.3298(5) -0.2252(11)
C16 C 0.2244(5) -0.0082(5) 0.1313(7)
H7 H 0.2180 -0.0200 0.0616
C17 C 0.0172(7) 0.3355(5) -0.0336(8)
H8 H 0.0057 0.3327 -0.1074
C18 C 0.2626(5) -0.0548(5) 0.2172(8)
H9 H 0.2831 -0.0977 0.2072
C19 C 0.2699(6) -0.0366(5) 0.3191(9)
H10 H 0.2959 -0.0669 0.3795
C20 C 0.0516(6) 0.3420(5) 0.1821(9)
H11 H 0.0641 0.3453 0.2562
C21 C 0.0058(7) 0.3942(6) 0.1111(9)
H12 H -0.0139 0.4312 0.1362
C22 C -0.0106(8) 0.3914(6) 0.0038(10)
H13 H -0.0407 0.4272 -0.0448
O2F O 0.3175(3) 0.2078(3) 0.6198(4)
O5F O 0.2415(3) 0.1609(3) 0.4525(5)
C8F C 0.2666(5) 0.2119(4) 0.5200(7)
Lu1A Lu -0.150250(19) 0.187188(18) -0.77257(3)
S1A S -0.04618(11) 0.11987(11) 0.10280(16)
S2A S -0.19562(16) 0.26840(17) -0.2817(2)
O1A O 0.0365(3) 0.1227(3) 0.1639(4)
N1A N -0.1298(4) 0.1696(4) -0.5845(5)
C1A C -0.0694(4) 0.1310(4) -0.0375(6)
C2A C -0.0950(5) 0.2211(5) -0.5073(7)
C3A C -0.1076(5) 0.1476(5) -0.2600(7)
N2A N -0.2001(4) 0.0731(3) -0.7465(5)
N3A N -0.0794(4) 0.2858(4) -0.6486(6)
O3A O -0.0802(3) 0.1821(3) 0.1306(5)
C4A C -0.1310(5) 0.1972(5) -0.2067(7)
C5A C -0.0487(5) 0.0795(4) -0.0896(7)
H1A H -0.0223 0.0385 -0.0512
C6A C -0.0672(5) 0.0880(5) -0.2006(7)
H2A H -0.0521 0.0529 -0.2349
C7A C -0.1567(4) 0.1109(4) -0.5569(6)
O4A O -0.2409(3) 0.2755(4) -0.2248(5)
C9A C -0.1503(5) 0.1030(5) -0.4521(7)
H3A H -0.1687 0.0614 -0.4343
O6A O -0.2403(5) 0.2420(5) -0.3910(7)
C10A C -0.1122(4) 0.1900(4) -0.0968(6)
H4A H -0.1282 0.2245 -0.0628
C11A C -0.0888(5) 0.2162(5) -0.4027(6)
H5A H -0.0657 0.2532 -0.3517
C12A C -0.0630(5) 0.2835(5) -0.5418(7)
C13A C -0.2384(5) 0.0259(5) -0.8296(7)
H6A H -0.2435 0.0372 -0.8987
O7A O -0.0771(4) 0.0518(3) 0.1098(5)
C14A C -0.1955(4) 0.0557(4) -0.6464(7)
C15A C -0.1167(5) 0.1571(5) -0.3752(6)
O8A O -0.1522(6) 0.3298(5) -0.2748(11)
C16A C -0.2244(5) -0.0082(5) -0.6313(7)
H7A H -0.2180 -0.0200 -0.5616
C17A C -0.0172(7) 0.3355(5) -0.4664(8)
H8A H -0.0057 0.3327 -0.3926
C18A C -0.2626(5) -0.0548(5) -0.7172(8)
H9A H -0.2831 -0.0977 -0.7072
C19A C -0.2699(6) -0.0366(5) -0.8191(9)
H10A H -0.2959 -0.0669 -0.8795
C20A C -0.0516(6) 0.3420(5) -0.6821(9)
H11A H -0.0641 0.3453 -0.7562
C21A C -0.0058(7) 0.3942(6) -0.6111(9)
H12A H 0.0139 0.4312 -0.6362
C22A C 0.0106(8) 0.3914(6) -0.5038(10)
H13A H 0.0407 0.4272 -0.4552
Lu1_2 Lu 0.150250(19) 0.187188(18) -0.72743(3)
Lu1A_2 Lu -0.150250(19) 0.187188(18) 0.22743(3)
Lu1F Lu 0.349750(19) 0.312812(18) -0.27257(3)
Lu1F_2 Lu 0.349750(19) 0.312812(18) 0.72743(3)
Lu1G Lu -0.349750(19) 0.312812(18) -0.22743(3)
O2A O -0.1825(3) 0.2922(3) -0.8802(4)
O3_2 O 0.0802(3) 0.1821(3) 0.3694(5)
O3A_2 O -0.0802(3) 0.1821(3) -0.8694(5)
O4F O 0.2591(3) 0.2245(4) 0.2752(5)
O4G O -0.2591(3) 0.2245(4) -0.7752(5)
O5G O -0.2415(3) 0.1609(3) -0.9525(5)
O9 O 0.0960(18) 0.4373(12) -0.157(3)
loop_
_geom_bond_atom_site_label_1
_geom_bond_atom_site_label_2
_geom_bond_site_symmetry_1
_geom_bond_site_symmetry_2
Lu1 O2 1_555 1_555
S1 O1 1_555 1_555
S2 C4 1_555 1_555
O1 Lu1A 1_555 1_555
O2 C8 1_555 1_555
N1 Lu1 1_555 1_555
C1 S1 1_555 1_555
C2 N1 1_555 1_555
C3 C4 1_555 1_555
N2 Lu1 1_555 1_555
N3 Lu1 1_555 1_555
O3 S1 1_555 1_555
C4 C10 1_555 1_555
C5 C1 1_555 1_555
H1 C5 1_555 1_555
C6 C3 1_555 1_555
H2 C6 1_555 1_555
C7 N1 1_555 1_555
O4 S2 1_555 1_555
O5 C8 1_555 1_555
C8 C8F 1_555 1_555
C9 C7 1_555 1_555
H3 C9 1_555 1_555
O6 S2 1_555 1_555
C10 C1 1_555 1_555
H4 C10 1_555 1_555
C11 C2 1_555 1_555
H5 C11 1_555 1_555
C12 C2 1_555 1_555
C13 N2 1_555 1_555
H6 C13 1_555 1_555
O7 S1 1_555 1_555
C14 N2 1_555 1_555
C15 C3 1_555 1_555
O8 S2 1_555 1_555
C16 C14 1_555 1_555
H7 C16 1_555 1_555
C17 C12 1_555 1_555
H8 C17 1_555 1_555
C18 C16 1_555 1_555
H9 C18 1_555 1_555
C19 C13 1_555 1_555
H10 C19 1_555 1_555
C20 N3 1_555 1_555
H11 C20 1_555 1_555
C21 C20 1_555 1_555
H12 C21 1_555 1_555
C22 C17 1_555 1_555
H13 C22 1_555 1_555
O2F C8F 1_555 1_555
O5F Lu1 1_555 1_555
C8F O5F 1_555 1_555
Lu1A N1A 1_555 1_555
S1A O1A 1_555 1_555
S2A C4A 1_555 1_555
O1A Lu1 1_555 1_555
N1A C2A 1_555 1_555
C1A S1A 1_555 1_555
C2A C11A 1_555 1_555
C3A C4A 1_555 1_555
N2A Lu1A 1_555 1_555
N3A Lu1A 1_555 1_555
O3A S1A 1_555 1_555
C4A C10A 1_555 1_555
C5A C1A 1_555 1_555
H1A C5A 1_555 1_555
C6A C3A 1_555 1_555
H2A C6A 1_555 1_555
C7A N1A 1_555 1_555
O4A S2A 1_555 1_555
C9A C7A 1_555 1_555
H3A C9A 1_555 1_555
O6A S2A 1_555 1_555
C10A C1A 1_555 1_555
H4A C10A 1_555 1_555
C11A H5A 1_555 1_555
C12A C2A 1_555 1_555
C13A N2A 1_555 1_555
H6A C13A 1_555 1_555
O7A S1A 1_555 1_555
C14A N2A 1_555 1_555
C15A C3A 1_555 1_555
O8A S2A 1_555 1_555
C16A C14A 1_555 1_555
H7A C16A 1_555 1_555
C17A C12A 1_555 1_555
H8A C17A 1_555 1_555
C18A C16A 1_555 1_555
H9A C18A 1_555 1_555
C19A C13A 1_555 1_555
H10A C19A 1_555 1_555
C20A N3A 1_555 1_555
H11A C20A 1_555 1_555
C21A C20A 1_555 1_555
H12A C21A 1_555 1_555
C22A C17A 1_555 1_555
H13A C22A 1_555 1_555
Lu1_2 O3 1_555 1_555
Lu1A_2 O3A 1_555 1_555
Lu1F O4 1_555 1_555
Lu1F_2 O5 1_555 1_555
Lu1G O4A 1_555 1_555
O2A Lu1A 1_555 1_555
O3_2 Lu1 1_555 1_555
O3A_2 Lu1A 1_555 1_555
O4F Lu1 1_555 1_555
O4G Lu1A 1_555 1_555
O5G Lu1A 1_555 1_555
N3 C12 1_555 1_555
C5 C6 1_555 1_555
C7 C14 1_555 1_555
C9 C15 1_555 1_555
C11 C15 1_555 1_555
C18 C19 1_555 1_555
C21 C22 1_555 1_555
O2F Lu1F_2 1_555 1_555
N3A C12A 1_555 1_555
C5A C6A 1_555 1_555
C7A C14A 1_555 1_555
C9A C15A 1_555 1_555
C11A C15A 1_555 1_555
C18A C19A 1_555 1_555
C21A C22A 1_555 1_555

#END
