
#######################################################################
#
#                 Cambridge Crystallographic Data Centre
#                                CCDC 
#
#######################################################################
#
# If this CIF has been generated from an entry in the Cambridge 
# Structural Database, then it will include bibliographic, chemical, 
# crystal, experimental, refinement or atomic coordinate data resulting 
# from the CCDC's data processing and validation procedures.
#
#######################################################################

data_TODTAJ
_symmetry_cell_setting           monoclinic
_symmetry_space_group_name_H-M   'C 2/c'
_symmetry_Int_Tables_number      15
_space_group_name_Hall           '-C 2yn'
loop_
_symmetry_equiv_pos_site_id
_symmetry_equiv_pos_as_xyz
1 x,y,z
2 -x,y,1/2-z
3 1/2+x,1/2+y,z
4 1/2-x,1/2+y,1/2-z
5 -x,-y,-z
6 x,-y,1/2+z
7 1/2-x,1/2-y,-z
8 1/2+x,1/2-y,1/2+z
_cell_length_a                   19.4274(14)
_cell_length_b                   13.6955(10)
_cell_length_c                   23.8550(17)
_cell_angle_alpha                90
_cell_angle_beta                 91.0040(10)
_cell_angle_gamma                90
_cell_volume                     6346.08
loop_
_atom_site_label
_atom_site_type_symbol
_atom_site_fract_x
_atom_site_fract_y
_atom_site_fract_z
Lu1 Lu 1.258178(10) 0.615254(16) 0.855961(8)
O1 O 1.18746(17) 0.6264(2) 0.77677(14)
O2 O 1.23085(19) 0.5973(3) 0.94769(14)
O3 O 1.3593(2) 0.5996(3) 0.90189(17)
O4 O 1.13758(18) 0.5934(3) 0.85613(15)
O5 O 1.21897(16) 0.7682(3) 0.87276(14)
N1 N 1.2450(2) 0.4385(3) 0.85720(16)
N2 N 1.32450(19) 0.5294(3) 0.78381(15)
N3 N 1.3328(2) 0.7237(3) 0.79907(17)
C1 C 1.1332(3) 0.6123(3) 0.8049(2)
H1 H 1.2021 0.5629 0.9654
H2 H 1.2473 0.6396 0.9703
H3 H 1.3946 0.6357 0.9058
H4 H 1.3693 0.5437 0.9152
C2 C 1.2062(4) 0.3930(5) 0.8969(3)
C3 C 1.2760(3) 0.3817(4) 0.8195(2)
C4 C 1.3647(2) 0.5791(4) 0.7483(2)
C5 C 1.3179(2) 0.4326(4) 0.77750(19)
C6 C 1.3349(3) 0.8221(4) 0.8063(2)
C7 C 1.3700(2) 0.6861(4) 0.7569(2)
C8 C 1.0643(2) 0.6197(3) 0.7764(2)
C9 C 1.2006(3) 0.2942(5) 0.9008(3)
H5 H 1.1825 0.4314 0.9223
C10 C 1.2707(3) 0.2808(4) 0.8212(2)
C11 C 1.3995(3) 0.5321(4) 0.7056(2)
C12 C 1.3493(3) 0.3824(4) 0.7338(2)
H6 H 1.3090 0.8496 0.8347
C13 C 1.3735(3) 0.8828(4) 0.7733(3)
C14 C 1.4096(3) 0.7461(4) 0.7231(2)
C15 C 1.0588(3) 0.6206(4) 0.7180(2)
C16 C 1.0049(3) 0.6191(4) 0.8082(2)
C17 C 1.2334(3) 0.2354(5) 0.8624(2)
H7 H 1.1749 0.2663 0.9292
H8 H 1.2925 0.2434 0.7943
C18 C 1.3913(2) 0.4335(4) 0.69753(19)
H9 H 1.4284 0.5676 0.6825
H10 H 1.3421 0.3158 0.7290
C19 C 1.4115(3) 0.8441(5) 0.7312(3)
H11 H 1.3738 0.9498 0.7798
H12 H 1.4352 0.7185 0.6946
H13 H 1.0984 0.6223 0.6967
H14 H 1.0082 0.6176 0.8471
H15 H 1.2303 0.1677 0.8642
C20 C 1.4313(3) 0.3831(4) 0.6529(2)
H16 H 1.4380 0.8840 0.7085
C21 C 1.4025(2) 0.3365(4) 0.60588(19)
C22 C 1.5034(3) 0.3819(4) 0.6591(2)
S1 S 1.31274(6) 0.34047(10) 0.59011(5)
C23 C 1.4438(2) 0.2897(4) 0.5679(2)
H17 H 1.5239 0.4129 0.6898
C24 C 1.5446(3) 0.3352(5) 0.6203(2)
O6 O 1.30569(17) 0.3134(3) 0.53174(14)
O7 O 1.28977(19) 0.4384(3) 0.60286(17)
C25 C 1.5145(2) 0.2876(4) 0.5760(2)
H18 H 1.4241 0.2593 0.5367
H19 H 1.5923 0.3364 0.6246
S2 S 1.56661(7) 0.22748(12) 0.52605(6)
O8 O 1.5720(3) 0.2967(4) 0.47967(18)
O9 O 1.6308(2) 0.2097(4) 0.5524(2)
O10 O 1.5293(3) 0.1434(4) 0.5090(3)
C16A C 0.9951(3) 0.6191(4) 0.6918(2)
C15A C 0.9412(3) 0.6206(4) 0.7820(2)
C8A C 0.9357(2) 0.6197(3) 0.7236(2)
H14A H 0.9918 0.6176 0.6529
H13A H 0.9016 0.6223 0.8033
C1A C 0.8668(3) 0.6123(3) 0.6951(2)
O1A O 0.81254(17) 0.6264(2) 0.72323(14)
O4A O 0.86242(18) 0.5934(3) 0.64387(15)
O5C O 1.28103(16) 0.2682(3) 0.62724(14)
Lu1A Lu 0.741822(10) 0.615254(16) 0.644039(8)
Lu1C Lu 1.241822(10) 0.115254(16) 0.644039(8)
O2A O 0.76915(19) 0.5973(3) 0.55231(14)
O3A O 0.6407(2) 0.5996(3) 0.59811(17)
O5A O 0.78103(16) 0.7682(3) 0.62724(14)
N1A N 0.7550(2) 0.4385(3) 0.64280(16)
N2A N 0.67550(19) 0.5294(3) 0.71619(15)
N3A N 0.6672(2) 0.7237(3) 0.70093(17)
H1A H 0.7979 0.5629 0.5346
H2A H 0.7527 0.6396 0.5297
H3A H 0.6054 0.6357 0.5942
H4A H 0.6307 0.5437 0.5848
C2A C 0.7938(4) 0.3930(5) 0.6031(3)
C3A C 0.7240(3) 0.3817(4) 0.6805(2)
C4A C 0.6353(2) 0.5791(4) 0.7517(2)
C5A C 0.6821(2) 0.4326(4) 0.72250(19)
C6A C 0.6651(3) 0.8221(4) 0.6937(2)
C7A C 0.6300(2) 0.6861(4) 0.7431(2)
C9A C 0.7994(3) 0.2942(5) 0.5992(3)
H5A H 0.8175 0.4314 0.5777
C10A C 0.7293(3) 0.2808(4) 0.6788(2)
C11A C 0.6005(3) 0.5321(4) 0.7944(2)
C12A C 0.6507(3) 0.3824(4) 0.7662(2)
H6A H 0.6910 0.8496 0.6653
C13A C 0.6265(3) 0.8828(4) 0.7267(3)
C14A C 0.5904(3) 0.7461(4) 0.7769(2)
C17A C 0.7666(3) 0.2354(5) 0.6376(2)
H7A H 0.8251 0.2663 0.5708
H8A H 0.7075 0.2434 0.7057
C18A C 0.6087(2) 0.4335(4) 0.80247(19)
H9A H 0.5716 0.5676 0.8175
H10A H 0.6579 0.3158 0.7710
C19A C 0.5885(3) 0.8441(5) 0.7688(3)
H11A H 0.6262 0.9498 0.7202
H12A H 0.5648 0.7185 0.8054
H15A H 0.7697 0.1677 0.6358
C20A C 0.5687(3) 0.3831(4) 0.8471(2)
H16A H 0.5620 0.8840 0.7915
C21A C 0.5975(2) 0.3365(4) 0.89412(19)
C22A C 0.4966(3) 0.3819(4) 0.8409(2)
S1A S 0.68726(6) 0.34047(10) 0.90989(5)
C23A C 0.5562(2) 0.2897(4) 0.9321(2)
H17A H 0.4761 0.4129 0.8102
C24A C 0.4554(3) 0.3352(5) 0.8797(2)
O6A O 0.69431(17) 0.3134(3) 0.96826(14)
O7A O 0.71023(19) 0.4384(3) 0.89714(17)
O5B O 0.71897(16) 0.2682(3) 0.87276(14)
C25A C 0.4855(2) 0.2876(4) 0.9240(2)
H18A H 0.5759 0.2593 0.9633
H19A H 0.4077 0.3364 0.8754
Lu1B Lu 0.758178(10) 0.115254(16) 0.855961(8)
S2A S 0.43339(7) 0.22748(12) 0.97395(6)
O8A O 0.4280(3) 0.2967(4) 1.02033(18)
O9A O 0.3692(2) 0.2097(4) 0.9476(2)
O10A O 0.4707(3) 0.1434(4) 0.9910(3)
O11 O 1.4810(2) 0.6925(5) 0.8849(2)
O12 O 1.1023(3) 0.5518(5) 0.9822(2)
O13 O 0.8499(3) 0.5182(4) 0.8954(2)
O14 O 1.3692(4) 0.4803(5) 0.9938(2)
O15 O 1.4772(5) 0.8948(6) 0.8899(3)
loop_
_geom_bond_atom_site_label_1
_geom_bond_atom_site_label_2
_geom_bond_site_symmetry_1
_geom_bond_site_symmetry_2
Lu1 O1 1_555 1_555
O1 C1 1_555 1_555
O2 Lu1 1_555 1_555
O3 Lu1 1_555 1_555
O4 Lu1 1_555 1_555
O5 Lu1 1_555 1_555
N1 Lu1 1_555 1_555
N2 Lu1 1_555 1_555
N3 Lu1 1_555 1_555
C1 O4 1_555 1_555
H1 O2 1_555 1_555
H2 O2 1_555 1_555
H3 O3 1_555 1_555
H4 O3 1_555 1_555
C2 N1 1_555 1_555
C3 N1 1_555 1_555
C4 N2 1_555 1_555
C5 N2 1_555 1_555
C6 N3 1_555 1_555
C7 N3 1_555 1_555
C8 C1 1_555 1_555
C9 C2 1_555 1_555
H5 C2 1_555 1_555
C10 C3 1_555 1_555
C11 C4 1_555 1_555
C12 C5 1_555 1_555
H6 C6 1_555 1_555
C13 C6 1_555 1_555
C14 C7 1_555 1_555
C15 C8 1_555 1_555
C16 C8 1_555 1_555
C17 C9 1_555 1_555
H7 C9 1_555 1_555
H8 C10 1_555 1_555
C18 C11 1_555 1_555
H9 C11 1_555 1_555
H10 C12 1_555 1_555
C19 C13 1_555 1_555
H11 C13 1_555 1_555
H12 C14 1_555 1_555
H13 C15 1_555 1_555
H14 C16 1_555 1_555
H15 C17 1_555 1_555
C20 C18 1_555 1_555
H16 C19 1_555 1_555
C21 C20 1_555 1_555
C22 C20 1_555 1_555
S1 C21 1_555 1_555
C23 C21 1_555 1_555
H17 C22 1_555 1_555
C24 C22 1_555 1_555
O6 S1 1_555 1_555
O7 S1 1_555 1_555
C25 C23 1_555 1_555
H18 C23 1_555 1_555
H19 C24 1_555 1_555
S2 C25 1_555 1_555
O8 S2 1_555 1_555
O9 S2 1_555 1_555
O10 S2 1_555 1_555
C16A C15 1_555 1_555
C15A C16 1_555 1_555
C8A C16A 1_555 1_555
H14A C16A 1_555 1_555
H13A C15A 1_555 1_555
C1A C8A 1_555 1_555
O1A C1A 1_555 1_555
O4A C1A 1_555 1_555
O5C S1 1_555 1_555
Lu1A O1A 1_555 1_555
Lu1C O5C 1_555 1_555
O2A Lu1A 1_555 1_555
O3A Lu1A 1_555 1_555
O5A Lu1A 1_555 1_555
N1A Lu1A 1_555 1_555
N2A Lu1A 1_555 1_555
N3A Lu1A 1_555 1_555
H1A O2A 1_555 1_555
H2A O2A 1_555 1_555
H3A O3A 1_555 1_555
H4A O3A 1_555 1_555
C2A N1A 1_555 1_555
C3A N1A 1_555 1_555
C4A N2A 1_555 1_555
C5A N2A 1_555 1_555
C6A N3A 1_555 1_555
C7A N3A 1_555 1_555
C9A C2A 1_555 1_555
H5A C2A 1_555 1_555
C10A C3A 1_555 1_555
C11A C4A 1_555 1_555
C12A C5A 1_555 1_555
H6A C6A 1_555 1_555
C13A C6A 1_555 1_555
C14A C7A 1_555 1_555
C17A C9A 1_555 1_555
H7A C9A 1_555 1_555
H8A C10A 1_555 1_555
C18A C11A 1_555 1_555
H9A C11A 1_555 1_555
H10A C12A 1_555 1_555
C19A C13A 1_555 1_555
H11A C13A 1_555 1_555
H12A C14A 1_555 1_555
H15A C17A 1_555 1_555
C20A C18A 1_555 1_555
H16A C19A 1_555 1_555
C21A C20A 1_555 1_555
C22A C20A 1_555 1_555
S1A C21A 1_555 1_555
C23A C21A 1_555 1_555
H17A C22A 1_555 1_555
C24A C22A 1_555 1_555
O6A S1A 1_555 1_555
O7A S1A 1_555 1_555
O5B S1A 1_555 1_555
C25A C23A 1_555 1_555
H18A C23A 1_555 1_555
H19A C24A 1_555 1_555
Lu1B O5B 1_555 1_555
S2A C25A 1_555 1_555
O8A S2A 1_555 1_555
O9A S2A 1_555 1_555
O10A S2A 1_555 1_555
C3 C5 1_555 1_555
C4 C7 1_555 1_555
C10 C17 1_555 1_555
C12 C18 1_555 1_555
C14 C19 1_555 1_555
C24 C25 1_555 1_555
C15A C8A 1_555 1_555
O4A Lu1A 1_555 1_555
C3A C5A 1_555 1_555
C4A C7A 1_555 1_555
C10A C17A 1_555 1_555
C12A C18A 1_555 1_555
C14A C19A 1_555 1_555
C24A C25A 1_555 1_555

#END
