
#######################################################################
#
#                 Cambridge Crystallographic Data Centre
#                                CCDC 
#
#######################################################################
#
# If this CIF has been generated from an entry in the Cambridge 
# Structural Database, then it will include bibliographic, chemical, 
# crystal, experimental, refinement or atomic coordinate data resulting 
# from the CCDC's data processing and validation procedures.
#
#######################################################################

data_TODXIV
_symmetry_cell_setting           orthorhombic
_symmetry_space_group_name_H-M   'P b c a'
_symmetry_Int_Tables_number      61
_space_group_name_Hall           '-P 2ac 2ab'
loop_
_symmetry_equiv_pos_site_id
_symmetry_equiv_pos_as_xyz
1 x,y,z
2 1/2-x,-y,1/2+z
3 1/2+x,1/2-y,-z
4 -x,1/2+y,1/2-z
5 -x,-y,-z
6 1/2+x,y,1/2-z
7 1/2-x,1/2+y,z
8 x,1/2-y,1/2+z
_cell_length_a                   8.499(2)
_cell_length_b                   16.888(5)
_cell_length_c                   27.326(8)
_cell_angle_alpha                90
_cell_angle_beta                 90
_cell_angle_gamma                90
_cell_volume                     3922.13
loop_
_atom_site_label
_atom_site_type_symbol
_atom_site_fract_x
_atom_site_fract_y
_atom_site_fract_z
Cu1 Cu 0.43267(6) 0.74716(3) 0.99678(2)
C1 C 0.4190(6) 0.6166(3) 0.9277(2)
C2 C 0.3194(5) 0.5573(3) 0.9000(2)
C3 C 0.2344(5) 0.4995(3) 0.92496(17)
C4 C 0.1509(5) 0.4405(3) 0.9004(2)
C5 C 0.0629(6) 0.3771(3) 0.9280(2)
C6 C 0.1514(6) 0.4414(3) 0.8497(2)
C7 C 0.2344(6) 0.4989(3) 0.82384(19)
C8 C 0.3165(6) 0.5560(3) 0.8498(2)
Cl1 Cl 0.23758(17) 0.49871(8) 0.98783(5)
Cl2 Cl 0.0518(2) 0.36889(9) 0.81829(6)
Cl3 Cl 0.2327(2) 0.49839(10) 0.76102(6)
Cl4 Cl 0.4196(2) 0.62739(9) 0.81782(7)
O1 O 0.3419(4) 0.66797(18) 0.95236(14)
O2 O 0.5626(4) 0.61116(19) 0.92454(15)
O3 O 0.1482(4) 0.32883(17) 0.95109(14)
O4 O -0.0821(4) 0.37608(18) 0.92537(15)
O5 O 0.2026(4) 0.75626(18) 1.03763(13)
H1 H 0.1733 0.8004 1.0495
H2 H 0.1923 0.7171 1.0569
O6 O 0.5149(4) 0.82986(18) 1.04088(14)
H3 H 0.4804 0.8248 1.0699
H4 H 0.6143 0.8261 1.0382
O7 O 0.5186(4) 0.66445(19) 1.04104(15)
H5 H 0.4651 0.6314 1.0576
H6 H 0.6173 0.6564 1.0415
Cu1B Cu -0.06733(6) 0.75284(3) 1.00322(2)
Cu1F Cu 0.06733(6) 0.24716(3) 0.99678(2)
O3F O 0.3518(4) 0.82883(17) 0.95109(14)
O5B O 0.7026(4) 0.74374(18) 0.96237(13)
C9 C 0.7887(9) 0.7103(5) 0.8008(3)
H7 H 0.7278 0.6796 0.7775
H8 H 0.7157 0.7400 0.8210
C10 C 0.8786(11) 0.6574(4) 0.8313(3)
H9 H 0.8077 0.6239 0.8499
H10 H 0.9438 0.6237 0.8110
C11 C 1.0685(11) 0.7552(6) 0.8388(3)
H11 H 1.1426 0.7270 0.8181
H12 H 1.1280 0.7865 0.8621
C12 C 0.9732(14) 0.8067(5) 0.8091(4)
H13 H 0.9027 0.8367 0.8299
H14 H 1.0403 0.8438 0.7918
O8 O 0.8857(9) 0.7629(3) 0.7754(2)
O9 O 0.9747(7) 0.7013(4) 0.8637(2)
O10 O 0.8691(4) 0.9461(2) 0.90391(16)
H15 H 0.7723 0.9379 0.8980
H16 H 0.8925 0.9943 0.9092
loop_
_geom_bond_atom_site_label_1
_geom_bond_atom_site_label_2
_geom_bond_site_symmetry_1
_geom_bond_site_symmetry_2
Cu1 O1 1_555 1_555
C1 C2 1_555 1_555
C2 C3 1_555 1_555
C3 C4 1_555 1_555
C4 C5 1_555 1_555
C5 O3 1_555 1_555
C6 C4 1_555 1_555
C7 C6 1_555 1_555
C8 C2 1_555 1_555
Cl1 C3 1_555 1_555
Cl2 C6 1_555 1_555
Cl3 C7 1_555 1_555
Cl4 C8 1_555 1_555
O1 C1 1_555 1_555
O2 C1 1_555 1_555
O3 Cu1F 1_555 1_555
O4 C5 1_555 1_555
O5 Cu1 1_555 1_555
H1 O5 1_555 1_555
H2 O5 1_555 1_555
O6 Cu1 1_555 1_555
H3 O6 1_555 1_555
H4 O6 1_555 1_555
O7 Cu1 1_555 1_555
H5 O7 1_555 1_555
H6 O7 1_555 1_555
C9 H7 1_555 1_555
H8 C9 1_555 1_555
C10 C9 1_555 1_555
H9 C10 1_555 1_555
H10 C10 1_555 1_555
C11 H11 1_555 1_555
H12 C11 1_555 1_555
C12 C11 1_555 1_555
H13 C12 1_555 1_555
H14 C12 1_555 1_555
O8 C9 1_555 1_555
O9 C10 1_555 1_555
O10 H15 1_555 1_555
H16 O10 1_555 1_555
Cu1B O5 1_555 1_555
O3F Cu1 1_555 1_555
O5B Cu1 1_555 1_555
C7 C8 1_555 1_555
C11 O9 1_555 1_555
C12 O8 1_555 1_555

#END
