
#######################################################################
#
#                 Cambridge Crystallographic Data Centre
#                                CCDC 
#
#######################################################################
#
# If this CIF has been generated from an entry in the Cambridge 
# Structural Database, then it will include bibliographic, chemical, 
# crystal, experimental, refinement or atomic coordinate data resulting 
# from the CCDC's data processing and validation procedures.
#
#######################################################################

data_TOFJAZ
_symmetry_cell_setting           monoclinic
_symmetry_space_group_name_H-M   'C 2/c'
_symmetry_Int_Tables_number      15
_space_group_name_Hall           '-C 2yn'
loop_
_symmetry_equiv_pos_site_id
_symmetry_equiv_pos_as_xyz
1 x,y,z
2 -x,y,1/2-z
3 1/2+x,1/2+y,z
4 1/2-x,1/2+y,1/2-z
5 -x,-y,-z
6 x,-y,1/2+z
7 1/2-x,1/2-y,-z
8 1/2+x,1/2-y,1/2+z
_cell_length_a                   11.583(3)
_cell_length_b                   6.733(2)
_cell_length_c                   12.814(4)
_cell_angle_alpha                90
_cell_angle_beta                 110.82(2)
_cell_angle_gamma                90
_cell_volume                     934.087
loop_
_atom_site_label
_atom_site_type_symbol
_atom_site_fract_x
_atom_site_fract_y
_atom_site_fract_z
Br1 Br 0.0000 0.36265(14) 0.2500
Br2 Br -0.11407(6) 0.84715(11) 0.34483(5)
Al1 Al 0.0000 0.7019(4) 0.2500
O1 O -0.1521(3) 0.7220(6) 0.1061(3)
C1 C -0.1593(6) 0.6134(11) 0.0059(5)
H1 H -0.1242(62) 0.4883(99) 0.0309(57)
H2 H -0.1140(60) 0.6840(98) -0.0323(55)
C2 C -0.2103(6) 0.9150(9) 0.0682(5)
H3 H -0.1651(58) 0.9866(89) 0.0291(54)
H4 H -0.1991(59) 0.9882(93) 0.1348(59)
Br2A Br 0.11407(6) 0.84715(11) 0.15517(5)
C2F C -0.2897(6) 0.5850(9) -0.0682(5)
O1F O -0.3479(3) 0.7780(6) -0.1061(3)
Al1F Al -0.5000 0.7981(4) -0.2500
C1F C -0.3407(6) 0.8866(11) -0.0059(5)
H3F H -0.3349(58) 0.5134(89) -0.0291(54)
H4F H -0.3009(59) 0.5118(93) -0.1348(59)
O1A O 0.1521(3) 0.7220(6) 0.3939(3)
H1F H -0.3758(62) 1.0117(99) -0.0309(57)
H2F H -0.3860(60) 0.8160(98) 0.0323(55)
loop_
_geom_bond_atom_site_label_1
_geom_bond_atom_site_label_2
_geom_bond_site_symmetry_1
_geom_bond_site_symmetry_2
Br1 Al1 1_555 1_555
Br2 Al1 1_555 1_555
Al1 O1 1_555 1_555
O1 C1 1_555 1_555
C1 H1 1_555 1_555
H2 C1 1_555 1_555
C2 O1 1_555 1_555
H3 C2 1_555 1_555
H4 C2 1_555 1_555
Br2A Al1 1_555 1_555
C2F C1 1_555 1_555
O1F C2F 1_555 1_555
Al1F O1F 1_555 1_555
C1F C2 1_555 1_555
H3F C2F 1_555 1_555
H4F C2F 1_555 1_555
O1A Al1 1_555 1_555
H1F C1F 1_555 1_555
H2F C1F 1_555 1_555
O1F C1F 1_555 1_555

#END
