
#######################################################################
#
#                 Cambridge Crystallographic Data Centre
#                                CCDC 
#
#######################################################################
#
# If this CIF has been generated from an entry in the Cambridge 
# Structural Database, then it will include bibliographic, chemical, 
# crystal, experimental, refinement or atomic coordinate data resulting 
# from the CCDC's data processing and validation procedures.
#
#######################################################################

data_TOFMAC01
_symmetry_cell_setting           monoclinic
_symmetry_space_group_name_H-M   'C 2/c'
_symmetry_Int_Tables_number      15
_space_group_name_Hall           '-C 2yn'
loop_
_symmetry_equiv_pos_site_id
_symmetry_equiv_pos_as_xyz
1 x,y,z
2 -x,y,1/2-z
3 1/2+x,1/2+y,z
4 1/2-x,1/2+y,1/2-z
5 -x,-y,-z
6 x,-y,1/2+z
7 1/2-x,1/2-y,-z
8 1/2+x,1/2-y,1/2+z
_cell_length_a                   20.7426(3)
_cell_length_b                   12.66760(10)
_cell_length_c                   20.2931(3)
_cell_angle_alpha                90
_cell_angle_beta                 97.6680(10)
_cell_angle_gamma                90
_cell_volume                     5284.51
loop_
_atom_site_label
_atom_site_type_symbol
_atom_site_fract_x
_atom_site_fract_y
_atom_site_fract_z
Sn1 Sn 0.294227(9) 0.497000(14) 0.161823(9)
Cl1 Cl 0.33669(4) 0.67791(6) 0.17980(4)
Cl2 Cl 0.37552(5) 0.44471(9) 0.09023(5)
S1 S 0.21573(4) 0.27600(6) 0.08345(3)
S2 S 0.29351(3) 0.11677(5) 0.22118(3)
O1 O 0.24699(11) 0.32431(15) 0.14816(10)
O2 O 0.28627(10) 0.02624(16) 0.26879(9)
C1 C 0.24814(15) 0.1439(2) 0.08438(14)
H1 H 0.2265 0.1066 0.0459
H2 H 0.2939 0.1485 0.0792
C2 C 0.24215(14) 0.0775(2) 0.14567(13)
H3 H 0.2522 0.0048 0.1359
H4 H 0.1972 0.0795 0.1541
C3 C 0.34299(14) 0.4307(2) 0.25150(14)
C4 C 0.40524(17) 0.4626(3) 0.2742(2)
H5 H 0.4270 0.5085 0.2491
C5 C 0.4356(2) 0.4255(4) 0.3355(3)
H6 H 0.4775 0.4480 0.3515
C6 C 0.4041(3) 0.3564(4) 0.3718(2)
H7 H 0.4247 0.3319 0.4125
C7 C 0.3430(2) 0.3232(3) 0.34901(18)
H8 H 0.3220 0.2755 0.3737
C8 C 0.31220(17) 0.3603(2) 0.28906(15)
H9 H 0.2702 0.3377 0.2737
C9 C 0.22240(15) 0.5429(2) 0.08198(13)
C10 C 0.15690(17) 0.5266(3) 0.08277(17)
H10 H 0.1428 0.4914 0.1184
C11 C 0.1117(2) 0.5622(4) 0.0308(2)
H11 H 0.0676 0.5500 0.0312
C12 C 0.1330(3) 0.6158(4) -0.02146(19)
H12 H 0.1029 0.6411 -0.0559
C13 C 0.1978(3) 0.6320(3) -0.02316(18)
H13 H 0.2116 0.6676 -0.0588
C14 C 0.24281(18) 0.5955(2) 0.02810(15)
H14 H 0.2870 0.6061 0.0266
C15 C 0.37041(14) 0.0941(3) 0.19494(15)
C16 C 0.4058(2) 0.1806(4) 0.1813(2)
H15 H 0.3892 0.2483 0.1847
C17 C 0.4660(3) 0.1660(7) 0.1625(3)
H16 H 0.4903 0.2243 0.1527
C18 C 0.4906(2) 0.0694(8) 0.1580(3)
H17 H 0.5317 0.0609 0.1452
C19 C 0.4552(3) -0.0186(5) 0.1723(3)
H18 H 0.4726 -0.0858 0.1692
C20 C 0.39378(19) -0.0064(3) 0.19122(19)
H19 H 0.3694 -0.0645 0.2010
C21 C 0.13404(15) 0.2469(2) 0.09462(15)
C22 C 0.0913(2) 0.2155(4) 0.0409(2)
H20 H 0.1040 0.2113 -0.0012
C23 C 0.0285(3) 0.1901(5) 0.0513(4)
H21 H -0.0012 0.1676 0.0156
C24 C 0.0094(2) 0.1975(4) 0.1126(4)
H22 H -0.0330 0.1804 0.1189
C25 C 0.0519(2) 0.2295(4) 0.1636(3)
H23 H 0.0386 0.2348 0.2055
C26 C 0.11471(17) 0.2549(3) 0.15600(17)
H24 H 0.1437 0.2774 0.1922
Sn1C Sn 0.205773(9) -0.003000(14) 0.338177(9)
O2C O 0.21373(10) 0.52624(16) 0.23121(9)
loop_
_geom_bond_atom_site_label_1
_geom_bond_atom_site_label_2
_geom_bond_site_symmetry_1
_geom_bond_site_symmetry_2
Sn1 Cl1 1_555 1_555
Cl2 Sn1 1_555 1_555
S1 O1 1_555 1_555
S2 O2 1_555 1_555
O1 Sn1 1_555 1_555
O2 Sn1C 1_555 1_555
C1 S1 1_555 1_555
H1 C1 1_555 1_555
H2 C1 1_555 1_555
C2 S2 1_555 1_555
H3 C2 1_555 1_555
H4 C2 1_555 1_555
C3 Sn1 1_555 1_555
C4 C3 1_555 1_555
H5 C4 1_555 1_555
C5 C4 1_555 1_555
H6 C5 1_555 1_555
C6 C5 1_555 1_555
H7 C6 1_555 1_555
C7 C6 1_555 1_555
H8 C7 1_555 1_555
C8 C3 1_555 1_555
H9 C8 1_555 1_555
C9 Sn1 1_555 1_555
C10 C9 1_555 1_555
H10 C10 1_555 1_555
C11 C10 1_555 1_555
H11 C11 1_555 1_555
C12 C11 1_555 1_555
H12 C12 1_555 1_555
C13 C12 1_555 1_555
H13 C13 1_555 1_555
C14 C9 1_555 1_555
H14 C14 1_555 1_555
C15 S2 1_555 1_555
C16 C15 1_555 1_555
H15 C16 1_555 1_555
C17 C16 1_555 1_555
H16 C17 1_555 1_555
C18 C17 1_555 1_555
H17 C18 1_555 1_555
C19 C18 1_555 1_555
H18 C19 1_555 1_555
C20 C15 1_555 1_555
H19 C20 1_555 1_555
C21 S1 1_555 1_555
C22 C21 1_555 1_555
H20 C22 1_555 1_555
C23 C22 1_555 1_555
H21 C23 1_555 1_555
C24 C23 1_555 1_555
H22 C24 1_555 1_555
C25 C24 1_555 1_555
H23 C25 1_555 1_555
C26 C21 1_555 1_555
H24 C26 1_555 1_555
O2C Sn1 1_555 1_555
C1 C2 1_555 1_555
C7 C8 1_555 1_555
C13 C14 1_555 1_555
C19 C20 1_555 1_555
C25 C26 1_555 1_555

#END
