
#######################################################################
#
#                 Cambridge Crystallographic Data Centre
#                                CCDC 
#
#######################################################################
#
# If this CIF has been generated from an entry in the Cambridge 
# Structural Database, then it will include bibliographic, chemical, 
# crystal, experimental, refinement or atomic coordinate data resulting 
# from the CCDC's data processing and validation procedures.
#
#######################################################################

data_TOFPUB
_symmetry_cell_setting           monoclinic
_symmetry_space_group_name_H-M   'P 21/n'
_symmetry_Int_Tables_number      14
_space_group_name_Hall           '-P 2yn'
loop_
_symmetry_equiv_pos_site_id
_symmetry_equiv_pos_as_xyz
1 x,y,z
2 1/2-x,1/2+y,1/2-z
3 -x,-y,-z
4 1/2+x,1/2-y,1/2+z
_cell_length_a                   8.6862(8)
_cell_length_b                   6.8673(7)
_cell_length_c                   12.9224(12)
_cell_angle_alpha                90
_cell_angle_beta                 101.450(2)
_cell_angle_gamma                90
_cell_volume                     755.49
loop_
_atom_site_label
_atom_site_type_symbol
_atom_site_fract_x
_atom_site_fract_y
_atom_site_fract_z
Pb1 Pb -0.17338(2) 1.33467(3) 0.722216(17)
Br1 Br -0.02999(7) 1.67554(8) 0.66797(5)
O1 O 0.0879(5) 1.1955(6) 0.7892(3)
N1 N 0.1524(6) 0.7486(7) 0.9440(4)
H1 H 0.0521 0.7097 0.9139
H2 H 0.1520 0.7880 1.0120
C1 C 0.0620(7) 1.0567(8) 0.8479(4)
O2 O -0.0661(4) 1.0284(6) 0.8777(3)
C2 C 0.1975(7) 0.9158(8) 0.8834(4)
H3 H 0.2342 0.8661 0.8205
H4 H 0.2859 0.9864 0.9279
C3 C 0.2610(7) 0.5806(9) 0.9468(4)
H5 H 0.3702 0.6291 0.9554
H6 H 0.2353 0.5096 0.8788
O3 O 0.1462(5) 0.4718(6) 1.0918(3)
O4 O 0.3489(5) 0.3041(6) 1.0518(3)
C4 C 0.2496(7) 0.4417(9) 1.0367(4)
Pb1A Pb -0.32662(2) 0.83467(3) 0.777784(17)
Pb1B Pb 0.17338(2) 0.66533(3) 1.277784(17)
Pb1C Pb 0.32662(2) 0.16533(3) 1.222216(17)
O2A O -0.4339(4) 1.5284(6) 0.6223(3)
O3B O -0.1462(5) 1.5282(6) 0.9082(3)
O4C O -0.1511(5) 1.1959(6) 0.5518(3)
loop_
_geom_bond_atom_site_label_1
_geom_bond_atom_site_label_2
_geom_bond_site_symmetry_1
_geom_bond_site_symmetry_2
Pb1 Br1 1_555 1_555
O1 Pb1 1_555 1_555
N1 H1 1_555 1_555
H2 N1 1_555 1_555
C1 O1 1_555 1_555
O2 C1 1_555 1_555
C2 N1 1_555 1_555
H3 C2 1_555 1_555
H4 C2 1_555 1_555
C3 N1 1_555 1_555
H5 C3 1_555 1_555
H6 C3 1_555 1_555
O3 C4 1_555 1_555
O4 C4 1_555 1_555
C4 C3 1_555 1_555
Pb1A O2 1_555 1_555
Pb1B O3 1_555 1_555
Pb1C O4 1_555 1_555
O2A Pb1 1_555 1_555
O3B Pb1 1_555 1_555
O4C Pb1 1_555 1_555
C1 C2 1_555 1_555

#END
