
#######################################################################
#
#                 Cambridge Crystallographic Data Centre
#                                CCDC 
#
#######################################################################
#
# If this CIF has been generated from an entry in the Cambridge 
# Structural Database, then it will include bibliographic, chemical, 
# crystal, experimental, refinement or atomic coordinate data resulting 
# from the CCDC's data processing and validation procedures.
#
#######################################################################

data_TOFQEM
_symmetry_cell_setting           orthorhombic
_symmetry_space_group_name_H-M   'P n a 21'
_symmetry_Int_Tables_number      33
_space_group_name_Hall           'P 2c -2n'
loop_
_symmetry_equiv_pos_site_id
_symmetry_equiv_pos_as_xyz
1 x,y,z
2 -x,-y,1/2+z
3 1/2+x,1/2-y,z
4 1/2-x,1/2+y,1/2+z
_cell_length_a                   25.3660(15)
_cell_length_b                   6.0392(3)
_cell_length_c                   12.3195(8)
_cell_angle_alpha                90
_cell_angle_beta                 90
_cell_angle_gamma                90
_cell_volume                     1887.23
loop_
_atom_site_label
_atom_site_type_symbol
_atom_site_fract_x
_atom_site_fract_y
_atom_site_fract_z
Cd1 Cd 0.371371(11) 0.69971(5) 0.86492(9)
C1 C 0.4603(3) 0.7775(11) 1.0502(8)
H1 H 0.4604 0.9170 1.0182
C2 C 0.4997(3) 0.7271(11) 1.1221(8)
H2 H 0.5259 0.8304 1.1371
C3 C 0.5006(2) 0.5238(9) 1.1722(5)
C4 C 0.4590(3) 0.3840(10) 1.1510(5)
H3 H 0.4568 0.2475 1.1856
C5 C 0.4203(2) 0.4489(10) 1.0773(5)
H4 H 0.3920 0.3539 1.0656
C6 C 0.5447(2) 0.4517(10) 1.2442(5)
C7 C 0.3331(2) 0.9830(12) 0.6562(6)
H5 H 0.3621 1.0678 0.6763
C8 C 0.3003(2) 1.0639(10) 0.5771(6)
H6 H 0.3077 1.1992 0.5443
C9 C 0.2572(2) 0.9463(9) 0.5466(5)
C10 C 0.2499(3) 0.7416(11) 0.5948(7)
H7 H 0.2218 0.6516 0.5748
C11 C 0.2853(3) 0.6734(10) 0.6735(6)
H8 H 0.2800 0.5356 0.7054
C12 C 0.2173(2) 1.0411(9) 0.4691(4)
O1 O 0.54797(18) 0.2549(8) 1.2707(5)
O2 O 0.38144(15) 1.0700(6) 0.8974(3)
H9 H 0.3998 1.1148 0.9559
H10 H 0.3672 1.1706 0.8521
O3 O 0.57914(16) 0.5932(7) 1.2713(4)
O4 O 0.18659(15) 0.9120(6) 0.4187(4)
O5 O 0.21284(19) 1.2457(7) 0.4638(5)
N1 N 0.42145(19) 0.6360(7) 1.0234(4)
N2 N 0.3256(2) 0.7896(8) 0.7057(5)
Cd1A Cd 0.628629(11) 0.30029(5) 1.36492(9)
Cd1C Cd 0.128629(11) 1.19971(5) 0.36492(9)
O1A O 0.45203(18) 0.7451(8) 0.7707(5)
O3A O 0.42086(16) 0.4068(7) 0.7713(4)
O4C O 0.31341(15) 0.4120(6) 0.9187(4)
O5C O 0.28716(19) 0.7457(7) 0.9638(5)
C13 C 0.4396(7) 0.890(3) 1.4099(14)
H11 H 0.4373 1.0251 1.3688
H12 H 0.4720 0.8160 1.3929
H13 H 0.4387 0.9240 1.4860
C14 C 0.3902(6) 0.521(3) 1.4299(12)
H14 H 0.3593 0.4471 1.4038
H15 H 0.3883 0.5351 1.5075
H16 H 0.4209 0.4373 1.4106
C15 C 0.3197(7) 0.668(2) 1.2805(18)
H17 H 0.3230 0.5262 1.3151
H18 H 0.3185 0.6485 1.2032
H19 H 0.2878 0.7385 1.3044
C16 C 0.3656(7) 0.809(3) 1.310(2)
O6 O 0.3710(4) 1.012(3) 1.2720(11)
N3 N 0.3935(7) 0.741(2) 1.3812(17)
loop_
_geom_bond_atom_site_label_1
_geom_bond_atom_site_label_2
_geom_bond_site_symmetry_1
_geom_bond_site_symmetry_2
Cd1 O2 1_555 1_555
C1 H1 1_555 1_555
C2 C1 1_555 1_555
H2 C2 1_555 1_555
C3 C2 1_555 1_555
C4 C3 1_555 1_555
H3 C4 1_555 1_555
C5 C4 1_555 1_555
H4 C5 1_555 1_555
C6 C3 1_555 1_555
C7 H5 1_555 1_555
C8 C7 1_555 1_555
H6 C8 1_555 1_555
C9 C8 1_555 1_555
C10 C9 1_555 1_555
H7 C10 1_555 1_555
C11 C10 1_555 1_555
H8 C11 1_555 1_555
C12 C9 1_555 1_555
O1 C6 1_555 1_555
O2 H9 1_555 1_555
H10 O2 1_555 1_555
O3 C6 1_555 1_555
O4 C12 1_555 1_555
O5 C12 1_555 1_555
N1 Cd1 1_555 1_555
N2 Cd1 1_555 1_555
C13 H11 1_555 1_555
H12 C13 1_555 1_555
H13 C13 1_555 1_555
C14 H14 1_555 1_555
H15 C14 1_555 1_555
H16 C14 1_555 1_555
C15 H17 1_555 1_555
H18 C15 1_555 1_555
H19 C15 1_555 1_555
C16 C15 1_555 1_555
O6 C16 1_555 1_555
N3 C13 1_555 1_555
Cd1A O1 1_555 1_555
Cd1C O4 1_555 1_555
O1A Cd1 1_555 1_555
O3A Cd1 1_555 1_555
O4C Cd1 1_555 1_555
O5C Cd1 1_555 1_555
C1 N1 1_555 1_555
C5 N1 1_555 1_555
C7 N2 1_555 1_555
C11 N2 1_555 1_555
O3 Cd1A 1_555 1_555
O5 Cd1C 1_555 1_555
C14 N3 1_555 1_555
C16 N3 1_555 1_555

#END
