
#######################################################################
#
#                 Cambridge Crystallographic Data Centre
#                                CCDC 
#
#######################################################################
#
# If this CIF has been generated from an entry in the Cambridge 
# Structural Database, then it will include bibliographic, chemical, 
# crystal, experimental, refinement or atomic coordinate data resulting 
# from the CCDC's data processing and validation procedures.
#
#######################################################################

data_TOFTUF
_symmetry_cell_setting           monoclinic
_symmetry_space_group_name_H-M   'P 21/c'
_symmetry_Int_Tables_number      14
_space_group_name_Hall           '-P 2ybc'
loop_
_symmetry_equiv_pos_site_id
_symmetry_equiv_pos_as_xyz
1 x,y,z
2 -x,1/2+y,1/2-z
3 -x,-y,-z
4 x,1/2-y,1/2+z
_cell_length_a                   9.2029(15)
_cell_length_b                   10.3872(17)
_cell_length_c                   12.1432(18)
_cell_angle_alpha                90
_cell_angle_beta                 102.420(7)
_cell_angle_gamma                90
_cell_volume                     1133.63
loop_
_atom_site_label
_atom_site_type_symbol
_atom_site_fract_x
_atom_site_fract_y
_atom_site_fract_z
C1 C 0.5564(6) 0.1505(5) 0.8896(4)
C2 C 0.5509(6) 0.1532(5) 1.0039(4)
H1 H 0.4725 0.1964 1.0284
C3 C 0.6628(6) 0.0913(5) 1.0806(4)
H2 H 0.6597 0.0916 1.1583
C4 C 0.7791(6) 0.0291(5) 1.0465(4)
H3 H 0.8543 -0.0131 1.1003
C5 C 0.7850(6) 0.0287(5) 0.9336(4)
H4 H 0.8638 -0.0148 0.9099
C6 C 0.6757(6) 0.0920(5) 0.8540(4)
C7 C 0.8127(6) 0.1251(5) 0.7170(4)
H5 H 0.8888 0.1465 0.7806
C8 C 0.8541(6) 0.1309(5) 0.6095(4)
C9 C 0.9965(5) 0.1840(5) 0.6092(4)
H6 H 1.0572 0.2136 0.6780
C10 C 1.0478(6) 0.1934(5) 0.5112(4)
H7 H 1.1407 0.2329 0.5105
C11 C 0.9594(6) 0.1433(5) 0.4133(4)
H8 H 0.9961 0.1452 0.3459
C12 C 0.8216(6) 0.0911(5) 0.4096(4)
H9 H 0.7637 0.0605 0.3402
C13 C 0.7658(6) 0.0828(5) 0.5080(4)
N1 N 0.6863(5) 0.0948(4) 0.7383(3)
O1 O 0.6320(4) 0.0292(3) 0.5047(2)
O2 O 0.3793(4) 0.1462(3) 0.6915(3)
O3 O 0.2889(4) 0.2470(4) 0.8427(3)
O4 O 0.4793(4) 0.3528(3) 0.7684(3)
S1 S 0.41425(14) 0.23118(13) 0.79203(10)
Cu1 Cu 0.51747(7) 0.03910(6) 0.62377(5)
O1B O 0.3680(4) -0.0292(3) 0.4953(2)
O4A O 0.5207(4) -0.1472(3) 0.7316(3)
Cu1A Cu 0.48253(7) 0.53910(6) 0.87623(5)
Cu1B Cu 0.48253(7) -0.03910(6) 0.37623(5)
loop_
_geom_bond_atom_site_label_1
_geom_bond_atom_site_label_2
_geom_bond_site_symmetry_1
_geom_bond_site_symmetry_2
C1 C2 1_555 1_555
C2 H1 1_555 1_555
C3 C2 1_555 1_555
H2 C3 1_555 1_555
C4 C3 1_555 1_555
H3 C4 1_555 1_555
C5 C4 1_555 1_555
H4 C5 1_555 1_555
C6 C1 1_555 1_555
C7 H5 1_555 1_555
C8 C7 1_555 1_555
C9 C8 1_555 1_555
H6 C9 1_555 1_555
C10 C9 1_555 1_555
H7 C10 1_555 1_555
C11 C10 1_555 1_555
H8 C11 1_555 1_555
C12 C11 1_555 1_555
H9 C12 1_555 1_555
C13 C8 1_555 1_555
N1 C6 1_555 1_555
O1 C13 1_555 1_555
O2 S1 1_555 1_555
O3 S1 1_555 1_555
O4 S1 1_555 1_555
S1 C1 1_555 1_555
Cu1 N1 1_555 1_555
O1B Cu1 1_555 1_555
O4A Cu1 1_555 1_555
Cu1A O4 1_555 1_555
Cu1B O1 1_555 1_555
C5 C6 1_555 1_555
C7 N1 1_555 1_555
C12 C13 1_555 1_555
O1 Cu1 1_555 1_555
O2 Cu1 1_555 1_555
O1B Cu1B 1_555 1_555

#END
