
#######################################################################
#
#                 Cambridge Crystallographic Data Centre
#                                CCDC 
#
#######################################################################
#
# If this CIF has been generated from an entry in the Cambridge 
# Structural Database, then it will include bibliographic, chemical, 
# crystal, experimental, refinement or atomic coordinate data resulting 
# from the CCDC's data processing and validation procedures.
#
#######################################################################

data_TOGLIK
_symmetry_cell_setting           orthorhombic
_symmetry_space_group_name_H-M   'P 21 21 21'
_symmetry_Int_Tables_number      19
_space_group_name_Hall           'P 2ac 2ab'
loop_
_symmetry_equiv_pos_site_id
_symmetry_equiv_pos_as_xyz
1 x,y,z
2 1/2-x,-y,1/2+z
3 1/2+x,1/2-y,-z
4 -x,1/2+y,1/2-z
_cell_length_a                   4.9116(10)
_cell_length_b                   14.448(9)
_cell_length_c                   19.131(4)
_cell_angle_alpha                90
_cell_angle_beta                 90
_cell_angle_gamma                90
_cell_volume                     1357.59
loop_
_atom_site_label
_atom_site_type_symbol
_atom_site_fract_x
_atom_site_fract_y
_atom_site_fract_z
Cu1 Cu 0.7581(2) 0.9835(1) 0.8335(1)
N1 N 0.8034(13) 1.1183(4) 0.8510(3)
C1 C 0.7125(23) 1.1785(5) 0.8039(4)
C2 C 0.7676(26) 1.2713(5) 0.8085(4)
C3 C 0.9229(22) 1.3037(6) 0.8614(5)
C4 C 1.0256(21) 1.2422(6) 0.9099(4)
C5 C 0.9564(17) 1.1496(5) 0.9043(4)
C6 C 1.0500(19) 1.0841(5) 0.9593(4)
O1 O 1.2593(18) 1.1013(3) 0.9911(3)
N2 N 0.7100(13) 0.9623(4) 0.9359(3)
C7 C 0.8718(15) 1.0044(5) 0.9825(4)
C8 C 0.8767(18) 0.9813(7) 1.0524(4)
C9 C 0.7007(23) 0.9112(7) 1.0753(5)
C10 C 0.5327(24) 0.8695(7) 1.0283(5)
C11 C 0.5445(19) 0.8958(6) 0.9588(5)
N3 N 1.2204(14) 1.0028(4) 0.7536(3)
O2 O 0.9594(9) 0.9944(4) 0.7421(3)
O3 O 0.2923(11) 1.0078(3) 0.8163(2)
O4 O 1.3741(11) 1.0039(4) 0.7043(3)
N4 N 0.8337(14) 0.7915(5) 0.8293(4)
O5 O 0.6697(11) 0.8569(4) 0.8077(3)
O6 O 0.7674(19) 0.7117(4) 0.8151(4)
O7 O 1.0355(13) 0.8135(4) 0.8611(4)
H1 H 0.6083(23) 1.1570(5) 0.7667(4)
H2 H 0.6983(26) 1.3119(5) 0.7752(4)
H3 H 0.9602(22) 1.3666(6) 0.8651(5)
H4 H 1.1389(21) 1.2626(6) 0.9457(4)
H5 H 0.9930(18) 1.0113(7) 1.0834(4)
H6 H 0.6987(23) 0.8935(7) 1.1220(5)
H7 H 0.4115(24) 0.8239(7) 1.0427(5)
H8 H 0.4324(19) 0.8659(6) 0.9267(5)
O3_2 O 1.2923(11) 1.0078(3) 0.8163(2)
Cu1_2 Cu 1.7581(2) 0.9835(1) 0.8335(1)
loop_
_geom_bond_atom_site_label_1
_geom_bond_atom_site_label_2
_geom_bond_site_symmetry_1
_geom_bond_site_symmetry_2
Cu1 N1 1_555 1_555
N1 C1 1_555 1_555
C1 C2 1_555 1_555
C2 C3 1_555 1_555
C3 C4 1_555 1_555
C4 C5 1_555 1_555
C5 N1 1_555 1_555
C6 C5 1_555 1_555
O1 C6 1_555 1_555
N2 Cu1 1_555 1_555
C7 C6 1_555 1_555
C8 C7 1_555 1_555
C9 C8 1_555 1_555
C10 C9 1_555 1_555
C11 N2 1_555 1_555
N3 O2 1_555 1_555
O2 Cu1 1_555 1_555
O3 Cu1 1_555 1_555
O4 N3 1_555 1_555
N4 O5 1_555 1_555
O5 Cu1 1_555 1_555
O6 N4 1_555 1_555
O7 N4 1_555 1_555
H1 C1 1_555 1_555
H2 C2 1_555 1_555
H3 C3 1_555 1_555
H4 C4 1_555 1_555
H5 C8 1_555 1_555
H6 C9 1_555 1_555
H7 C10 1_555 1_555
H8 C11 1_555 1_555
O3_2 N3 1_555 1_555
Cu1_2 O3_2 1_555 1_555
N2 C7 1_555 1_555
C10 C11 1_555 1_555

#END
