
#######################################################################
#
#                 Cambridge Crystallographic Data Centre
#                                CCDC 
#
#######################################################################
#
# If this CIF has been generated from an entry in the Cambridge 
# Structural Database, then it will include bibliographic, chemical, 
# crystal, experimental, refinement or atomic coordinate data resulting 
# from the CCDC's data processing and validation procedures.
#
#######################################################################

data_TOGLEG01
_symmetry_cell_setting           triclinic
_symmetry_space_group_name_H-M   'P -1'
_symmetry_Int_Tables_number      2
_space_group_name_Hall           '-P 1'
loop_
_symmetry_equiv_pos_site_id
_symmetry_equiv_pos_as_xyz
1 x,y,z
2 -x,-y,-z
_cell_length_a                   7.800(1)
_cell_length_b                   8.946(1)
_cell_length_c                   13.383(1)
_cell_angle_alpha                118.964(3)
_cell_angle_beta                 92.693(3)
_cell_angle_gamma                66.824(3)
_cell_volume                     739.044
loop_
_atom_site_label
_atom_site_type_symbol
_atom_site_fract_x
_atom_site_fract_y
_atom_site_fract_z
Cu1 Cu 0.19699(5) 0.41145(5) 0.38790(3)
Cu2 Cu 0.43486(4) 0.17788(4) 0.15610(3)
Cl1 Cl -0.1858(1) 0.6361(1) 0.4632(1)
Cl2 Cl 0.6606(1) -0.1205(1) 0.05461(6)
Cl3 Cl 0.2472(1) 0.1089(1) 0.2424(1)
O1 O 0.2436(3) 0.4347(2) 0.2539(2)
N1 N 0.2506(3) 0.6377(3) 0.4719(2)
N2 N 0.5923(3) 0.3145(3) 0.1669(2)
C1 C 0.2374(5) 0.7385(5) 0.5881(3)
C2 C 0.2410(5) 0.9116(5) 0.6422(3)
C3 C 0.2524(5) 0.9887(4) 0.5773(3)
C4 C 0.2644(5) 0.8875(4) 0.4575(3)
C5 C 0.2678(4) 0.7099(4) 0.4078(2)
C6 C 0.2888(4) 0.5832(4) 0.2763(2)
C7 C 0.4945(4) 0.5031(4) 0.2177(2)
C8 C 0.5749(5) 0.6158(5) 0.2188(3)
C9 C 0.7655(5) 0.5341(5) 0.1727(3)
C10 C 0.8680(5) 0.3437(6) 0.1258(3)
C11 C 0.7771(4) 0.2360(5) 0.1216(3)
O2 O 0.1626(3) 0.7051(3) 0.2418(2)
C12 C 0.1751(5) 0.6325(5) 0.1195(3)
H1 H 0.209(5) 0.696(5) 0.635(3)
H2 H 0.224(6) 0.983(6) 0.724(4)
H3 H 0.268(5) 1.107(5) 0.612(3)
H4 H 0.257(5) 0.938(5) 0.417(3)
H5 H 0.496(5) 0.747(5) 0.247(3)
H6 H 0.826(6) 0.601(6) 0.174(4)
H7 H 0.971(7) 0.295(6) 0.104(4)
H8 H 0.835(5) 0.109(5) 0.087(3)
H9 H 0.158(6) 0.527(6) 0.085(4)
H10 H 0.281(7) 0.610(6) 0.085(4)
H11 H 0.081(7) 0.728(6) 0.114(4)
Cu1A Cu -0.19699(5) 0.58855(5) 0.61210(3)
Cl1A Cl 0.1858(1) 0.3639(1) 0.5368(1)
Cu2A Cu 0.56514(4) -0.17788(4) -0.15610(3)
Cl2A Cl 0.3394(1) 0.1205(1) -0.05461(6)
Cl3A Cl 0.7528(1) -0.1089(1) -0.2424(1)
Cu1A_2 Cu 0.80301(5) -0.41145(5) -0.38790(3)
O1A O 0.7564(3) -0.4347(2) -0.2539(2)
N1A N 0.7494(3) -0.6377(3) -0.4719(2)
C1A C 0.7626(5) -0.7385(5) -0.5881(3)
C2A C 0.7590(5) -0.9116(5) -0.6422(3)
C3A C 0.7476(5) -0.9887(4) -0.5773(3)
C4A C 0.7356(5) -0.8875(4) -0.4575(3)
C5A C 0.7322(4) -0.7099(4) -0.4078(2)
C6A C 0.7112(4) -0.5832(4) -0.2763(2)
C7A C 0.5055(4) -0.5031(4) -0.2177(2)
N2A N 0.4077(3) -0.3145(3) -0.1669(2)
C11A C 0.2229(4) -0.2360(5) -0.1216(3)
C10A C 0.1320(5) -0.3437(6) -0.1258(3)
C9A C 0.2345(5) -0.5341(5) -0.1727(3)
C8A C 0.4251(5) -0.6158(5) -0.2188(3)
H5A H 0.504(5) -0.747(5) -0.247(3)
H6A H 0.174(6) -0.601(6) -0.174(4)
H7A H 0.029(7) -0.295(6) -0.104(4)
H8A H 0.165(5) -0.109(5) -0.087(3)
O2A O 0.8374(3) -0.7051(3) -0.2418(2)
C12A C 0.8249(5) -0.6325(5) -0.1195(3)
H9A H 0.842(6) -0.527(6) -0.085(4)
H10A H 0.719(7) -0.610(6) -0.085(4)
H11A H 0.919(7) -0.728(6) -0.114(4)
H4A H 0.743(5) -0.938(5) -0.417(3)
H3A H 0.732(5) -1.107(5) -0.612(3)
H2A H 0.776(6) -0.983(6) -0.724(4)
H1A H 0.791(5) -0.696(5) -0.635(3)
Cl3A_2 Cl -0.2472(1) 0.8911(1) 0.7576(1)
O1A_2 O -0.2436(3) 0.5653(2) 0.7461(2)
N1A_2 N -0.2506(3) 0.3623(3) 0.5281(2)
loop_
_geom_bond_atom_site_label_1
_geom_bond_atom_site_label_2
_geom_bond_site_symmetry_1
_geom_bond_site_symmetry_2
Cu1 Cl1 1_555 1_555
Cu2 Cl2 1_555 1_555
Cl1 Cu1A 1_555 1_555
Cl2 Cu2A 1_555 1_555
Cl3 Cu1 1_555 1_555
O1 Cu1 1_555 1_555
N1 Cu1 1_555 1_555
N2 Cu2 1_555 1_555
C1 N1 1_555 1_555
C2 C1 1_555 1_555
C3 C2 1_555 1_555
C4 C3 1_555 1_555
C5 N1 1_555 1_555
C6 O1 1_555 1_555
C7 N2 1_555 1_555
C8 C7 1_555 1_555
C9 C8 1_555 1_555
C10 C9 1_555 1_555
C11 N2 1_555 1_555
O2 C6 1_555 1_555
C12 O2 1_555 1_555
H1 C1 1_555 1_555
H2 C2 1_555 1_555
H3 C3 1_555 1_555
H4 C4 1_555 1_555
H5 C8 1_555 1_555
H6 C9 1_555 1_555
H7 C10 1_555 1_555
H8 C11 1_555 1_555
H9 C12 1_555 1_555
H10 C12 1_555 1_555
H11 C12 1_555 1_555
Cu1A Cl1A 1_555 1_555
Cl1A Cu1 1_555 1_555
Cu2A Cl2A 1_555 1_555
Cl2A Cu2 1_555 1_555
Cl3A Cu2A 1_555 1_555
Cu1A_2 Cl3A 1_555 1_555
O1A Cu2A 1_555 1_555
N1A Cu1A_2 1_555 1_555
C1A N1A 1_555 1_555
C2A C1A 1_555 1_555
C3A C2A 1_555 1_555
C4A C3A 1_555 1_555
C5A N1A 1_555 1_555
C6A O1A 1_555 1_555
C7A C6A 1_555 1_555
N2A Cu2A 1_555 1_555
C11A N2A 1_555 1_555
C10A C11A 1_555 1_555
C9A C10A 1_555 1_555
C8A C7A 1_555 1_555
H5A C8A 1_555 1_555
H6A C9A 1_555 1_555
H7A C10A 1_555 1_555
H8A C11A 1_555 1_555
O2A C6A 1_555 1_555
C12A O2A 1_555 1_555
H9A C12A 1_555 1_555
H10A C12A 1_555 1_555
H11A C12A 1_555 1_555
H4A C4A 1_555 1_555
H3A C3A 1_555 1_555
H2A C2A 1_555 1_555
H1A C1A 1_555 1_555
Cl3A_2 Cu1A 1_555 1_555
O1A_2 Cu1A 1_555 1_555
N1A_2 Cu1A 1_555 1_555
Cu2 Cl3 1_555 1_555
Cu2 O1 1_555 1_555
C4 C5 1_555 1_555
C5 C6 1_555 1_555
C6 C7 1_555 1_555
C10 C11 1_555 1_555
Cu1A_2 O1A 1_555 1_555
C4A C5A 1_555 1_555
C5A C6A 1_555 1_555
C7A N2A 1_555 1_555
C9A C8A 1_555 1_555

#END
