
#######################################################################
#
#                 Cambridge Crystallographic Data Centre
#                                CCDC 
#
#######################################################################
#
# If this CIF has been generated from an entry in the Cambridge 
# Structural Database, then it will include bibliographic, chemical, 
# crystal, experimental, refinement or atomic coordinate data resulting 
# from the CCDC's data processing and validation procedures.
#
#######################################################################

data_TOGLOS
_symmetry_cell_setting           triclinic
_symmetry_space_group_name_H-M   'P -1'
_symmetry_Int_Tables_number      2
_space_group_name_Hall           '-P 1'
loop_
_symmetry_equiv_pos_site_id
_symmetry_equiv_pos_as_xyz
1 x,y,z
2 -x,-y,-z
_cell_length_a                   14.0453(14)
_cell_length_b                   16.6521(17)
_cell_length_c                   21.117(2)
_cell_angle_alpha                75.694(2)
_cell_angle_beta                 76.357(2)
_cell_angle_gamma                80.962(2)
_cell_volume                     4625.06
loop_
_atom_site_label
_atom_site_type_symbol
_atom_site_fract_x
_atom_site_fract_y
_atom_site_fract_z
Sm1 Sm 0.313704(13) 0.418821(11) 0.040791(9)
Sm2 Sm 0.322173(13) 1.073858(11) 0.468373(9)
O1 O 0.3333(2) 0.49709(17) -0.06852(13)
O2 O 0.4569(2) 0.5573(2) -0.13990(14)
O3 O 0.24824(19) 0.17767(17) -0.46221(14)
O4 O 0.40862(19) 0.16663(17) -0.49501(14)
O5 O 0.29166(19) 0.46149(16) 0.14774(12)
O6 O 0.34819(19) 0.55594(16) 0.05949(12)
O7 O 0.3080(2) 0.92640(17) 0.46188(13)
O8 O 0.27993(19) 1.02545(16) 0.37584(13)
O9 O 0.35973(18) 0.99398(16) 0.56938(12)
O10 O 0.51449(18) 0.95857(16) 0.58167(12)
O11 O 0.23945(19) 1.32448(17) 0.99422(13)
O12 O 0.40093(19) 1.31542(18) 0.97735(14)
O13 O 0.48601(19) 0.40195(18) 0.04361(13)
H1 H 0.531(2) 0.414(2) 0.0064(14)
H2 H 0.508(3) 0.417(2) 0.0753(15)
N1 N 0.3223(2) 0.2772(2) 0.12785(16)
N2 N 0.1499(2) 0.3655(2) 0.11738(16)
N3 N 0.0650(3) 0.2522(2) 0.18098(18)
N4 N -0.0233(3) 0.3760(2) 0.13394(19)
N5 N -0.1090(3) 0.1819(3) 0.2274(3)
N6 N 0.1502(2) 0.5203(2) 0.04132(15)
N7 N 0.1460(2) 1.03547(19) 0.53266(15)
N8 N 0.1705(2) 1.16503(18) 0.42787(14)
N9 N -0.0019(2) 1.1943(2) 0.43798(17)
N10 N 0.1046(2) 1.2735(2) 0.34868(17)
N11 N -0.0557(3) 1.3693(2) 0.30847(19)
N12 N 0.3537(2) 1.20349(19) 0.36925(16)
C1 C 0.3916(3) 0.5116(2) -0.12501(18)
C2 C 0.3774(3) 0.4708(2) -0.17785(17)
C3 C 0.2928(3) 0.4327(2) -0.17053(19)
H3 H 0.2425 0.4340 -0.1330
C4 C 0.2830(3) 0.3935(2) -0.21815(19)
H4 H 0.2254 0.3695 -0.2129
C5 C 0.3567(3) 0.3888(2) -0.27372(18)
C6 C 0.4410(3) 0.4265(3) -0.2806(2)
H5 H 0.4919 0.4240 -0.3176
C7 C 0.4508(3) 0.4674(3) -0.23396(19)
H6 H 0.5074 0.4933 -0.2402
C8 C 0.3495(3) 0.3421(3) -0.32300(19)
C9 C 0.2619(3) 0.3440(3) -0.3437(2)
H7 H 0.2062 0.3767 -0.3270
C10 C 0.2568(3) 0.2983(3) -0.3883(2)
H8 H 0.1971 0.2999 -0.4007
C11 C 0.3383(3) 0.2498(2) -0.41535(19)
C12 C 0.4247(3) 0.2476(3) -0.3951(2)
H9 H 0.4805 0.2152 -0.4122
C13 C 0.4301(3) 0.2929(3) -0.3498(2)
H10 H 0.4896 0.2903 -0.3369
C14 C 0.3309(3) 0.1958(2) -0.46033(19)
C15 C 0.4106(3) 0.2367(3) 0.1366(2)
H11 H 0.4674 0.2589 0.1102
C16 C 0.4198(4) 0.1630(3) 0.1837(3)
H12 H 0.4819 0.1368 0.1888
C17 C 0.3384(4) 0.1292(3) 0.2221(3)
H13 H 0.3438 0.0805 0.2547
C18 C 0.2457(4) 0.1686(3) 0.2123(2)
H14 H 0.1884 0.1456 0.2369
C19 C 0.2415(3) 0.2421(3) 0.1655(2)
C20 C 0.1466(3) 0.2891(3) 0.1542(2)
C21 C -0.0183(3) 0.2978(3) 0.1677(2)
C22 C 0.0625(3) 0.4082(3) 0.1099(2)
C23 C -0.1126(4) 0.2597(3) 0.1898(2)
C24 C -0.1936(5) 0.1455(5) 0.2454(3)
H15 H -0.1936 0.0919 0.2719
C25 C -0.2798(5) 0.1840(4) 0.2264(3)
H16 H -0.3368 0.1569 0.2406
C26 C -0.2808(4) 0.2609(4) 0.1873(3)
H17 H -0.3374 0.2870 0.1723
C27 C -0.1958(4) 0.3006(3) 0.1697(3)
H18 H -0.1957 0.3548 0.1443
C28 C 0.0631(3) 0.4958(3) 0.0720(2)
C29 C -0.0233(4) 0.5472(3) 0.0708(3)
H19 H -0.0834 0.5271 0.0925
C30 C -0.0195(4) 0.6286(3) 0.0370(3)
H20 H -0.0769 0.6649 0.0357
C31 C 0.0716(4) 0.6561(3) 0.0049(3)
H21 H 0.0768 0.7111 -0.0180
C32 C 0.1527(3) 0.6004(3) 0.0079(2)
H22 H 0.2136 0.6185 -0.0144
C33 C 0.3185(3) 0.5334(2) 0.1219(2)
C34 C 0.3115(3) 0.5937(2) 0.16550(19)
C35 C 0.2832(3) 0.5699(2) 0.2334(2)
H23 H 0.2682 0.5156 0.2529
C36 C 0.2766(3) 0.6257(3) 0.2734(2)
H24 H 0.2582 0.6080 0.3195
C37 C 0.2964(3) 0.7068(3) 0.2466(2)
C38 C 0.3248(4) 0.7302(3) 0.1776(2)
H25 H 0.3382 0.7848 0.1578
C39 C 0.3334(4) 0.6740(3) 0.1381(2)
H26 H 0.3543 0.6907 0.0921
C40 C 0.2900(3) 0.7681(3) 0.2886(2)
C41 C 0.3055(3) 0.7428(3) 0.3541(2)
H27 H 0.3163 0.6862 0.3728
C42 C 0.3051(3) 0.8007(2) 0.3914(2)
H28 H 0.3171 0.7826 0.4344
C43 C 0.2868(3) 0.8861(2) 0.36497(19)
C44 C 0.2685(3) 0.9100(3) 0.3016(2)
H29 H 0.2553 0.9664 0.2834
C45 C 0.2693(3) 0.8522(3) 0.2638(2)
H30 H 0.2557 0.8705 0.2213
C46 C 0.2915(3) 0.9487(2) 0.4039(2)
C47 C 0.1364(3) 0.9724(3) 0.5855(2)
H31 H 0.1930 0.9391 0.5952
C48 C 0.0480(3) 0.9536(3) 0.6264(2)
H32 H 0.0447 0.9092 0.6633
C49 C -0.0362(3) 1.0023(3) 0.6115(2)
H33 H -0.0976 0.9907 0.6380
C50 C -0.0282(3) 1.0686(3) 0.5566(2)
H34 H -0.0840 1.1024 0.5458
C51 C 0.0642(3) 1.0835(2) 0.51823(19)
C52 C 0.0781(3) 1.1512(2) 0.45867(18)
C53 C 0.0154(3) 1.2536(2) 0.3827(2)
C54 C 0.1793(3) 1.2286(2) 0.37406(19)
C55 C -0.0728(3) 1.3016(3) 0.3571(2)
C56 C -0.1339(3) 1.4130(3) 0.2867(3)
H35 H -0.1239 1.4606 0.2529
C57 C -0.2286(3) 1.3921(3) 0.3110(3)
H36 H -0.2809 1.4251 0.2943
C58 C -0.2444(3) 1.3220(3) 0.3603(3)
H37 H -0.3075 1.3058 0.3774
C59 C -0.1639(3) 1.2752(3) 0.3843(2)
H38 H -0.1720 1.2273 0.4179
C60 C 0.2807(3) 1.2510(2) 0.34206(19)
C61 C 0.2968(3) 1.3175(3) 0.2891(2)
H39 H 0.2446 1.3476 0.2707
C62 C 0.3908(3) 1.3392(3) 0.2635(2)
H40 H 0.4036 1.3841 0.2276
C63 C 0.4650(3) 1.2930(3) 0.2924(2)
H41 H 0.5293 1.3071 0.2769
C64 C 0.4444(3) 1.2258(3) 0.3442(2)
H42 H 0.4961 1.1944 0.3627
C65 C 0.4275(3) 0.9887(2) 0.60051(17)
C66 C 0.4026(2) 1.0198(2) 0.66337(17)
C67 C 0.3109(3) 1.0591(2) 0.68593(19)
H43 H 0.2596 1.0601 0.6647
C68 C 0.2942(3) 1.0966(3) 0.73924(19)
H44 H 0.2322 1.1233 0.7530
C69 C 0.3685(3) 1.0952(2) 0.77297(19)
C70 C 0.4586(3) 1.0525(3) 0.7523(2)
H45 H 0.5089 1.0488 0.7751
C71 C 0.4754(3) 1.0154(3) 0.69875(19)
H46 H 0.5368 0.9869 0.6861
C72 C 0.3556(3) 1.1429(3) 0.8256(2)
C73 C 0.2655(3) 1.1566(3) 0.8678(2)
H47 H 0.2113 1.1336 0.8643
C74 C 0.2550(3) 1.2037(3) 0.9149(2)
H48 H 0.1941 1.2114 0.9431
C75 C 0.3335(3) 1.2393(3) 0.92035(19)
C76 C 0.4227(3) 1.2263(3) 0.8787(2)
H49 H 0.4767 1.2497 0.8821
C77 C 0.4332(3) 1.1795(3) 0.8322(2)
H50 H 0.4944 1.1722 0.8042
C78 C 0.3248(3) 1.2959(2) 0.96702(19)
Sm1_2 Sm 0.313704(13) 1.418821(11) 1.040791(9)
Sm2_2 Sm 0.322173(13) 0.073858(11) -0.531627(9)
Sm2A Sm 0.677827(13) 0.926142(11) 0.531627(9)
O3_2 O 0.24824(19) 1.17767(17) 0.53779(14)
O4_2 O 0.40862(19) 1.16663(17) 0.50499(14)
O10A O 0.48551(18) 1.04143(16) 0.41833(12)
O11_2 O 0.23945(19) 0.32448(17) -0.00578(13)
O12_2 O 0.40093(19) 0.31542(18) -0.02265(14)
loop_
_geom_bond_atom_site_label_1
_geom_bond_atom_site_label_2
_geom_bond_site_symmetry_1
_geom_bond_site_symmetry_2
Sm1 O1 1_555 1_555
Sm2 O7 1_555 1_555
O1 C1 1_555 1_555
O2 C1 1_555 1_555
O3 C14 1_555 1_555
O4 C14 1_555 1_555
O5 Sm1 1_555 1_555
O6 Sm1 1_555 1_555
O7 C46 1_555 1_555
O8 Sm2 1_555 1_555
O9 Sm2 1_555 1_555
O10 C65 1_555 1_555
O11 C78 1_555 1_555
O12 C78 1_555 1_555
O13 Sm1 1_555 1_555
H1 O13 1_555 1_555
H2 O13 1_555 1_555
N1 Sm1 1_555 1_555
N2 Sm1 1_555 1_555
N3 C20 1_555 1_555
N4 C21 1_555 1_555
N5 C23 1_555 1_555
N6 Sm1 1_555 1_555
N7 Sm2 1_555 1_555
N8 Sm2 1_555 1_555
N9 C52 1_555 1_555
N10 C53 1_555 1_555
N11 C55 1_555 1_555
N12 Sm2 1_555 1_555
C1 C2 1_555 1_555
C2 C3 1_555 1_555
C3 H3 1_555 1_555
C4 C3 1_555 1_555
H4 C4 1_555 1_555
C5 C4 1_555 1_555
C6 C5 1_555 1_555
H5 C6 1_555 1_555
C7 C2 1_555 1_555
H6 C7 1_555 1_555
C8 C5 1_555 1_555
C9 C8 1_555 1_555
H7 C9 1_555 1_555
C10 C9 1_555 1_555
H8 C10 1_555 1_555
C11 C10 1_555 1_555
C12 C11 1_555 1_555
H9 C12 1_555 1_555
C13 C8 1_555 1_555
H10 C13 1_555 1_555
C14 C11 1_555 1_555
C15 N1 1_555 1_555
H11 C15 1_555 1_555
C16 C15 1_555 1_555
H12 C16 1_555 1_555
C17 C16 1_555 1_555
H13 C17 1_555 1_555
C18 C17 1_555 1_555
H14 C18 1_555 1_555
C19 N1 1_555 1_555
C20 N2 1_555 1_555
C21 N3 1_555 1_555
C22 N2 1_555 1_555
C23 C21 1_555 1_555
C24 N5 1_555 1_555
H15 C24 1_555 1_555
C25 C24 1_555 1_555
H16 C25 1_555 1_555
C26 C25 1_555 1_555
H17 C26 1_555 1_555
C27 C23 1_555 1_555
H18 C27 1_555 1_555
C28 N6 1_555 1_555
C29 C28 1_555 1_555
H19 C29 1_555 1_555
C30 C29 1_555 1_555
H20 C30 1_555 1_555
C31 C30 1_555 1_555
H21 C31 1_555 1_555
C32 N6 1_555 1_555
H22 C32 1_555 1_555
C33 O5 1_555 1_555
C34 C33 1_555 1_555
C35 C34 1_555 1_555
H23 C35 1_555 1_555
C36 C35 1_555 1_555
H24 C36 1_555 1_555
C37 C36 1_555 1_555
C38 C37 1_555 1_555
H25 C38 1_555 1_555
C39 C34 1_555 1_555
H26 C39 1_555 1_555
C40 C37 1_555 1_555
C41 C40 1_555 1_555
H27 C41 1_555 1_555
C42 C41 1_555 1_555
H28 C42 1_555 1_555
C43 C42 1_555 1_555
C44 C43 1_555 1_555
H29 C44 1_555 1_555
C45 C40 1_555 1_555
H30 C45 1_555 1_555
C46 O8 1_555 1_555
C47 N7 1_555 1_555
H31 C47 1_555 1_555
C48 C47 1_555 1_555
H32 C48 1_555 1_555
C49 C48 1_555 1_555
H33 C49 1_555 1_555
C50 C49 1_555 1_555
H34 C50 1_555 1_555
C51 N7 1_555 1_555
C52 N8 1_555 1_555
C53 N9 1_555 1_555
C54 N8 1_555 1_555
C55 C53 1_555 1_555
C56 N11 1_555 1_555
H35 C56 1_555 1_555
C57 C56 1_555 1_555
H36 C57 1_555 1_555
C58 C57 1_555 1_555
H37 C58 1_555 1_555
C59 C55 1_555 1_555
H38 C59 1_555 1_555
C60 N12 1_555 1_555
C61 C60 1_555 1_555
H39 C61 1_555 1_555
C62 C61 1_555 1_555
H40 C62 1_555 1_555
C63 C62 1_555 1_555
H41 C63 1_555 1_555
C64 N12 1_555 1_555
H42 C64 1_555 1_555
C65 O9 1_555 1_555
C66 C65 1_555 1_555
C67 C66 1_555 1_555
H43 C67 1_555 1_555
C68 C67 1_555 1_555
H44 C68 1_555 1_555
C69 C68 1_555 1_555
C70 C69 1_555 1_555
H45 C70 1_555 1_555
C71 C66 1_555 1_555
H46 C71 1_555 1_555
C72 C69 1_555 1_555
C73 C72 1_555 1_555
H47 C73 1_555 1_555
C74 C73 1_555 1_555
H48 C74 1_555 1_555
C75 C74 1_555 1_555
C76 C75 1_555 1_555
H49 C76 1_555 1_555
C77 C72 1_555 1_555
H50 C77 1_555 1_555
C78 C75 1_555 1_555
Sm1_2 O11 1_555 1_555
Sm2_2 O3 1_555 1_555
Sm2A O10 1_555 1_555
O3_2 Sm2 1_555 1_555
O4_2 Sm2 1_555 1_555
O10A Sm2 1_555 1_555
O11_2 Sm1 1_555 1_555
O12_2 Sm1 1_555 1_555
O4 Sm2_2 1_555 1_555
O6 C33 1_555 1_555
O12 Sm1_2 1_555 1_555
N4 C22 1_555 1_555
N10 C54 1_555 1_555
C6 C7 1_555 1_555
C12 C13 1_555 1_555
C18 C19 1_555 1_555
C19 C20 1_555 1_555
C22 C28 1_555 1_555
C26 C27 1_555 1_555
C31 C32 1_555 1_555
C38 C39 1_555 1_555
C43 C46 1_555 1_555
C44 C45 1_555 1_555
C50 C51 1_555 1_555
C51 C52 1_555 1_555
C54 C60 1_555 1_555
C58 C59 1_555 1_555
C63 C64 1_555 1_555
C70 C71 1_555 1_555
C76 C77 1_555 1_555

#END
