
#######################################################################
#
#                 Cambridge Crystallographic Data Centre
#                                CCDC 
#
#######################################################################
#
# If this CIF has been generated from an entry in the Cambridge 
# Structural Database, then it will include bibliographic, chemical, 
# crystal, experimental, refinement or atomic coordinate data resulting 
# from the CCDC's data processing and validation procedures.
#
#######################################################################

data_TOGMIN
_symmetry_cell_setting           triclinic
_symmetry_space_group_name_H-M   'P -1'
_symmetry_Int_Tables_number      2
_space_group_name_Hall           '-P 1'
loop_
_symmetry_equiv_pos_site_id
_symmetry_equiv_pos_as_xyz
1 x,y,z
2 -x,-y,-z
_cell_length_a                   14.0278(12)
_cell_length_b                   16.4626(15)
_cell_length_c                   21.1244(19)
_cell_angle_alpha                75.482(2)
_cell_angle_beta                 76.270(2)
_cell_angle_gamma                80.518(2)
_cell_volume                     4558.81
loop_
_atom_site_label
_atom_site_type_symbol
_atom_site_fract_x
_atom_site_fract_y
_atom_site_fract_z
Dy1 Dy 0.312798(17) 0.419940(15) 0.040080(12)
Dy2 Dy 0.322181(17) 1.074722(15) 0.468489(12)
O1 O 0.3328(3) 0.4977(2) -0.06719(17)
O2 O 0.4600(3) 0.5545(3) -0.1380(2)
O3 O 0.2478(3) 0.1785(2) -0.46293(19)
O4 O 0.4086(3) 0.1671(2) -0.49635(18)
O5 O 0.2907(3) 0.4612(2) 0.14581(17)
O6 O 0.3475(3) 0.5570(2) 0.05832(17)
O7 O 0.3091(3) 0.9272(2) 0.46220(19)
O8 O 0.2803(3) 1.0282(2) 0.37676(18)
O9 O 0.3615(2) 0.9965(2) 0.56759(16)
O10 O 0.5169(2) 0.9599(2) 0.57980(17)
O11 O 0.2397(3) 1.3264(2) 0.99365(19)
O12 O 0.4013(3) 1.3178(3) 0.97636(19)
O13 O 0.4823(3) 0.4037(3) 0.04277(19)
H1 H 0.530(3) 0.409(3) 0.0057(17)
H2 H 0.501(4) 0.415(3) 0.0774(19)
N1 N 0.3246(3) 0.2785(3) 0.1252(2)
N2 N 0.1516(3) 0.3673(3) 0.1151(2)
N3 N 0.0674(4) 0.2518(3) 0.1769(2)
N4 N -0.0226(3) 0.3790(3) 0.1316(2)
N5 N -0.1038(4) 0.1768(4) 0.2179(4)
N6 N 0.1532(3) 0.5246(3) 0.0387(2)
N7 N 0.1501(3) 1.0350(3) 0.5335(2)
N8 N 0.1723(3) 1.1652(3) 0.4283(2)
N9 N -0.0005(3) 1.1946(3) 0.4383(2)
N10 N 0.1052(3) 1.2735(3) 0.3480(2)
N11 N -0.0561(4) 1.3700(3) 0.3068(3)
N12 N 0.3553(3) 1.2029(3) 0.3697(2)
C1 C 0.3924(4) 0.5102(3) -0.1237(3)
C2 C 0.3777(4) 0.4706(3) -0.1768(3)
C3 C 0.2926(4) 0.4334(3) -0.1703(3)
H3 H 0.2417 0.4355 -0.1332
C4 C 0.2826(4) 0.3938(3) -0.2181(3)
H4 H 0.2246 0.3703 -0.2132
C5 C 0.3574(4) 0.3883(4) -0.2730(3)
C6 C 0.4413(4) 0.4265(4) -0.2794(3)
H5 H 0.4917 0.4253 -0.3169
C7 C 0.4520(4) 0.4655(4) -0.2326(3)
H6 H 0.5100 0.4893 -0.2381
C8 C 0.3490(4) 0.3420(4) -0.3227(3)
C9 C 0.2619(4) 0.3449(4) -0.3432(3)
H7 H 0.2062 0.3783 -0.3262
C10 C 0.2560(4) 0.2993(4) -0.3885(3)
H8 H 0.1960 0.3011 -0.4006
C11 C 0.3374(4) 0.2512(4) -0.4160(3)
C12 C 0.4251(4) 0.2476(4) -0.3955(3)
H9 H 0.4810 0.2149 -0.4130
C13 C 0.4301(4) 0.2916(4) -0.3495(3)
H10 H 0.4895 0.2877 -0.3360
C14 C 0.3307(4) 0.1971(4) -0.4615(3)
C15 C 0.4129(5) 0.2369(4) 0.1339(3)
H11 H 0.4695 0.2593 0.1071
C16 C 0.4234(5) 0.1624(4) 0.1807(3)
H12 H 0.4859 0.1363 0.1860
C17 C 0.3416(5) 0.1275(4) 0.2191(3)
H13 H 0.3475 0.0780 0.2515
C18 C 0.2480(5) 0.1671(4) 0.2092(3)
H14 H 0.1906 0.1436 0.2332
C19 C 0.2447(4) 0.2424(4) 0.1625(3)
C20 C 0.1484(4) 0.2896(4) 0.1509(3)
C21 C -0.0157(4) 0.2991(4) 0.1633(3)
C22 C 0.0641(4) 0.4106(4) 0.1079(3)
C23 C -0.1099(5) 0.2585(5) 0.1849(3)
C24 C -0.1849(6) 0.1410(6) 0.2345(4)
H15 H -0.1826 0.0856 0.2592
C25 C -0.2742(6) 0.1788(5) 0.2184(4)
H16 H -0.3294 0.1495 0.2311
C26 C -0.2784(5) 0.2608(5) 0.1831(4)
H17 H -0.3363 0.2882 0.1699
C27 C -0.1950(5) 0.3020(5) 0.1676(3)
H18 H -0.1967 0.3586 0.1457
C28 C 0.0647(4) 0.5000(4) 0.0692(3)
C29 C -0.0214(5) 0.5541(4) 0.0683(3)
H19 H -0.0820 0.5346 0.0898
C30 C -0.0169(5) 0.6363(4) 0.0358(3)
H20 H -0.0741 0.6739 0.0346
C31 C 0.0743(5) 0.6627(4) 0.0045(3)
H21 H 0.0804 0.7188 -0.0172
C32 C 0.1548(5) 0.6045(4) 0.0065(3)
H22 H 0.2157 0.6222 -0.0166
C33 C 0.3166(4) 0.5343(3) 0.1199(3)
C34 C 0.3099(4) 0.5940(3) 0.1641(3)
C35 C 0.2808(4) 0.5698(4) 0.2332(3)
H23 H 0.2657 0.5150 0.2528
C36 C 0.2742(4) 0.6257(3) 0.2728(3)
H24 H 0.2561 0.6074 0.3190
C37 C 0.2936(4) 0.7089(3) 0.2461(3)
C38 C 0.3211(4) 0.7328(4) 0.1774(3)
H25 H 0.3337 0.7883 0.1578
C39 C 0.3304(4) 0.6762(4) 0.1366(3)
H26 H 0.3505 0.6939 0.0906
C40 C 0.2875(4) 0.7698(3) 0.2889(3)
C41 C 0.3047(4) 0.7433(4) 0.3538(3)
H27 H 0.3158 0.6858 0.3720
C42 C 0.3054(4) 0.8005(3) 0.3913(3)
H28 H 0.3192 0.7815 0.4339
C43 C 0.2855(4) 0.8865(3) 0.3657(3)
C44 C 0.2631(4) 0.9131(4) 0.3027(3)
H29 H 0.2473 0.9704 0.2858
C45 C 0.2640(4) 0.8560(3) 0.2646(3)
H30 H 0.2488 0.8750 0.2225
C46 C 0.2917(4) 0.9512(4) 0.4043(3)
C47 C 0.1411(4) 0.9720(4) 0.5869(3)
H31 H 0.1984 0.9398 0.5975
C48 C 0.0531(4) 0.9513(4) 0.6272(3)
H32 H 0.0504 0.9053 0.6635
C49 C -0.0317(5) 1.0005(4) 0.6126(3)
H33 H -0.0928 0.9889 0.6397
C50 C -0.0254(4) 1.0670(4) 0.5577(3)
H34 H -0.0818 1.1008 0.5469
C51 C 0.0666(4) 1.0822(4) 0.5194(3)
C52 C 0.0790(4) 1.1502(3) 0.4600(3)
C53 C 0.0160(4) 1.2533(3) 0.3823(3)
C54 C 0.1802(4) 1.2278(3) 0.3740(3)
C55 C -0.0724(4) 1.3014(4) 0.3560(3)
C56 C -0.1358(5) 1.4140(4) 0.2852(4)
H35 H -0.1272 1.4627 0.2517
C57 C -0.2286(5) 1.3913(4) 0.3094(3)
H36 H -0.2813 1.4246 0.2927
C58 C -0.2446(5) 1.3206(4) 0.3578(3)
H37 H -0.3074 1.3031 0.3736
C59 C -0.1643(4) 1.2751(4) 0.3830(3)
H38 H -0.1725 1.2275 0.4176
C60 C 0.2817(4) 1.2502(3) 0.3416(3)
C61 C 0.2986(4) 1.3172(4) 0.2881(3)
H39 H 0.2465 1.3480 0.2693
C62 C 0.3928(4) 1.3382(4) 0.2625(3)
H40 H 0.4060 1.3830 0.2259
C63 C 0.4671(4) 1.2912(4) 0.2925(3)
H41 H 0.5316 1.3049 0.2770
C64 C 0.4466(4) 1.2251(4) 0.3447(3)
H42 H 0.4981 1.1938 0.3639
C65 C 0.4290(4) 0.9890(3) 0.5990(2)
C66 C 0.4035(4) 1.0197(3) 0.6627(2)
C67 C 0.3106(4) 1.0587(3) 0.6862(3)
H43 H 0.2591 1.0603 0.6650
C68 C 0.2939(4) 1.0948(3) 0.7405(3)
H44 H 0.2312 1.1206 0.7553
C69 C 0.3686(4) 1.0937(4) 0.7735(3)
C70 C 0.4601(4) 1.0510(4) 0.7519(3)
H45 H 0.5106 1.0467 0.7746
C71 C 0.4771(4) 1.0150(3) 0.6973(3)
H46 H 0.5390 0.9872 0.6836
C72 C 0.3561(4) 1.1406(4) 0.8261(3)
C73 C 0.2673(4) 1.1515(4) 0.8707(3)
H47 H 0.2139 1.1258 0.8692
C74 C 0.2567(4) 1.1997(4) 0.9174(3)
H48 H 0.1965 1.2059 0.9468
C75 C 0.3354(4) 1.2394(4) 0.9208(3)
C76 C 0.4240(4) 1.2279(4) 0.8775(3)
H49 H 0.4779 1.2527 0.8795
C77 C 0.4330(4) 1.1800(4) 0.8314(3)
H50 H 0.4936 1.1736 0.8023
C78 C 0.3255(4) 1.2965(4) 0.9665(3)
Dy1_2 Dy 0.312798(17) 1.419940(15) 1.040080(12)
Dy2_2 Dy 0.322181(17) 0.074722(15) -0.531511(12)
Dy2A Dy 0.677819(17) 0.925278(15) 0.531511(12)
O3_2 O 0.2478(3) 1.1785(2) 0.53707(19)
O4_2 O 0.4086(3) 1.1671(2) 0.50365(18)
O10A O 0.4831(2) 1.0401(2) 0.42020(17)
O11_2 O 0.2397(3) 0.3264(2) -0.00635(19)
O12_2 O 0.4013(3) 0.3178(3) -0.02364(19)
loop_
_geom_bond_atom_site_label_1
_geom_bond_atom_site_label_2
_geom_bond_site_symmetry_1
_geom_bond_site_symmetry_2
Dy1 O1 1_555 1_555
Dy2 O7 1_555 1_555
O1 C1 1_555 1_555
O2 C1 1_555 1_555
O3 C14 1_555 1_555
O4 C14 1_555 1_555
O5 Dy1 1_555 1_555
O6 Dy1 1_555 1_555
O7 C46 1_555 1_555
O8 Dy2 1_555 1_555
O9 Dy2 1_555 1_555
O10 C65 1_555 1_555
O11 C78 1_555 1_555
O12 C78 1_555 1_555
O13 Dy1 1_555 1_555
H1 O13 1_555 1_555
H2 O13 1_555 1_555
N1 Dy1 1_555 1_555
N2 Dy1 1_555 1_555
N3 C20 1_555 1_555
N4 C21 1_555 1_555
N5 C23 1_555 1_555
N6 Dy1 1_555 1_555
N7 Dy2 1_555 1_555
N8 Dy2 1_555 1_555
N9 C52 1_555 1_555
N10 C53 1_555 1_555
N11 C55 1_555 1_555
N12 Dy2 1_555 1_555
C1 C2 1_555 1_555
C2 C3 1_555 1_555
C3 H3 1_555 1_555
C4 C3 1_555 1_555
H4 C4 1_555 1_555
C5 C4 1_555 1_555
C6 C5 1_555 1_555
H5 C6 1_555 1_555
C7 C2 1_555 1_555
H6 C7 1_555 1_555
C8 C5 1_555 1_555
C9 C8 1_555 1_555
H7 C9 1_555 1_555
C10 C9 1_555 1_555
H8 C10 1_555 1_555
C11 C10 1_555 1_555
C12 C11 1_555 1_555
H9 C12 1_555 1_555
C13 C8 1_555 1_555
H10 C13 1_555 1_555
C14 C11 1_555 1_555
C15 N1 1_555 1_555
H11 C15 1_555 1_555
C16 C15 1_555 1_555
H12 C16 1_555 1_555
C17 C16 1_555 1_555
H13 C17 1_555 1_555
C18 C17 1_555 1_555
H14 C18 1_555 1_555
C19 N1 1_555 1_555
C20 N2 1_555 1_555
C21 N3 1_555 1_555
C22 N2 1_555 1_555
C23 C21 1_555 1_555
C24 N5 1_555 1_555
H15 C24 1_555 1_555
C25 C24 1_555 1_555
H16 C25 1_555 1_555
C26 C25 1_555 1_555
H17 C26 1_555 1_555
C27 C23 1_555 1_555
H18 C27 1_555 1_555
C28 N6 1_555 1_555
C29 C28 1_555 1_555
H19 C29 1_555 1_555
C30 C29 1_555 1_555
H20 C30 1_555 1_555
C31 C30 1_555 1_555
H21 C31 1_555 1_555
C32 N6 1_555 1_555
H22 C32 1_555 1_555
C33 O5 1_555 1_555
C34 C33 1_555 1_555
C35 C34 1_555 1_555
H23 C35 1_555 1_555
C36 C35 1_555 1_555
H24 C36 1_555 1_555
C37 C36 1_555 1_555
C38 C37 1_555 1_555
H25 C38 1_555 1_555
C39 C34 1_555 1_555
H26 C39 1_555 1_555
C40 C37 1_555 1_555
C41 C40 1_555 1_555
H27 C41 1_555 1_555
C42 C41 1_555 1_555
H28 C42 1_555 1_555
C43 C42 1_555 1_555
C44 C43 1_555 1_555
H29 C44 1_555 1_555
C45 C40 1_555 1_555
H30 C45 1_555 1_555
C46 O8 1_555 1_555
C47 N7 1_555 1_555
H31 C47 1_555 1_555
C48 C47 1_555 1_555
H32 C48 1_555 1_555
C49 C48 1_555 1_555
H33 C49 1_555 1_555
C50 C49 1_555 1_555
H34 C50 1_555 1_555
C51 N7 1_555 1_555
C52 N8 1_555 1_555
C53 N9 1_555 1_555
C54 N8 1_555 1_555
C55 C53 1_555 1_555
C56 N11 1_555 1_555
H35 C56 1_555 1_555
C57 C56 1_555 1_555
H36 C57 1_555 1_555
C58 C57 1_555 1_555
H37 C58 1_555 1_555
C59 C55 1_555 1_555
H38 C59 1_555 1_555
C60 N12 1_555 1_555
C61 C60 1_555 1_555
H39 C61 1_555 1_555
C62 C61 1_555 1_555
H40 C62 1_555 1_555
C63 C62 1_555 1_555
H41 C63 1_555 1_555
C64 N12 1_555 1_555
H42 C64 1_555 1_555
C65 O9 1_555 1_555
C66 C65 1_555 1_555
C67 C66 1_555 1_555
H43 C67 1_555 1_555
C68 C67 1_555 1_555
H44 C68 1_555 1_555
C69 C68 1_555 1_555
C70 C69 1_555 1_555
H45 C70 1_555 1_555
C71 C66 1_555 1_555
H46 C71 1_555 1_555
C72 C69 1_555 1_555
C73 C72 1_555 1_555
H47 C73 1_555 1_555
C74 C73 1_555 1_555
H48 C74 1_555 1_555
C75 C74 1_555 1_555
C76 C75 1_555 1_555
H49 C76 1_555 1_555
C77 C72 1_555 1_555
H50 C77 1_555 1_555
C78 C75 1_555 1_555
Dy1_2 O11 1_555 1_555
Dy2_2 O3 1_555 1_555
Dy2A O10 1_555 1_555
O3_2 Dy2 1_555 1_555
O4_2 Dy2 1_555 1_555
O10A Dy2 1_555 1_555
O11_2 Dy1 1_555 1_555
O12_2 Dy1 1_555 1_555
O4 Dy2_2 1_555 1_555
O6 C33 1_555 1_555
O12 Dy1_2 1_555 1_555
N4 C22 1_555 1_555
N10 C54 1_555 1_555
C6 C7 1_555 1_555
C12 C13 1_555 1_555
C18 C19 1_555 1_555
C19 C20 1_555 1_555
C22 C28 1_555 1_555
C26 C27 1_555 1_555
C31 C32 1_555 1_555
C38 C39 1_555 1_555
C43 C46 1_555 1_555
C44 C45 1_555 1_555
C50 C51 1_555 1_555
C51 C52 1_555 1_555
C54 C60 1_555 1_555
C58 C59 1_555 1_555
C63 C64 1_555 1_555
C70 C71 1_555 1_555
C76 C77 1_555 1_555

#END
