
#######################################################################
#
#                 Cambridge Crystallographic Data Centre
#                                CCDC 
#
#######################################################################
#
# If this CIF has been generated from an entry in the Cambridge 
# Structural Database, then it will include bibliographic, chemical, 
# crystal, experimental, refinement or atomic coordinate data resulting 
# from the CCDC's data processing and validation procedures.
#
#######################################################################

data_TOGPIQ
_symmetry_cell_setting           monoclinic
_symmetry_space_group_name_H-M   'P 21/n'
_symmetry_Int_Tables_number      14
_space_group_name_Hall           '-P 2yn'
loop_
_symmetry_equiv_pos_site_id
_symmetry_equiv_pos_as_xyz
1 x,y,z
2 1/2-x,1/2+y,1/2-z
3 -x,-y,-z
4 1/2+x,1/2-y,1/2+z
_cell_length_a                   10.250(4)
_cell_length_b                   34.619(12)
_cell_length_c                   11.942(4)
_cell_angle_alpha                90
_cell_angle_beta                 100.138(5)
_cell_angle_gamma                90
_cell_volume                     4171.39
loop_
_atom_site_label
_atom_site_type_symbol
_atom_site_fract_x
_atom_site_fract_y
_atom_site_fract_z
Cd1 Cd 0.67226(3) 0.119466(8) 0.52337(2)
Cd2 Cd 0.33542(3) 0.134068(8) 0.30244(2)
O1 O 0.8533(3) 0.10596(11) 0.7065(3)
O2 O 0.9024(3) 0.12404(9) 0.5418(2)
O3 O 1.3792(3) 0.12283(10) 0.4923(2)
O4 O 1.5243(3) 0.09321(10) 0.6240(3)
O5 O 1.3054(3) 0.09752(10) 0.9668(2)
H1 H 1.2551 0.1089 1.0020
O6 O 0.6432(3) 0.14160(11) 0.3395(2)
O7 O 0.4854(3) 0.13145(10) 0.1898(3)
O8 O 1.1125(3) 0.14280(10) 0.2793(2)
O9 O 1.1564(3) 0.13673(10) 0.1064(3)
O10 O 0.6993(3) 0.13536(13) -0.1478(3)
H2 H 0.7594 0.1304 -0.1827
N1 N 0.6988(4) 0.06099(11) 0.4422(3)
N2 N 0.7763(4) 0.01632(11) 0.3406(3)
N3 N 0.6657(4) -0.00976(11) -0.2132(3)
N4 N 0.6851(4) -0.06791(11) -0.2854(3)
N5 N 0.3725(3) 0.19892(11) 0.3242(3)
N6 N 0.4444(4) 0.25689(11) 0.2876(3)
N7 N 1.0591(3) 0.26942(10) 0.1559(3)
N8 N 1.1397(3) 0.31969(10) 0.0789(3)
C1 C 0.9359(4) 0.11338(11) 0.6436(3)
C2 C 1.0821(3) 0.10862(11) 0.6905(3)
C3 C 1.1747(4) 0.10955(11) 0.6184(3)
H3 H 1.1473 0.1133 0.5407
C4 C 1.3085(3) 0.10485(10) 0.6632(3)
C5 C 1.4108(4) 0.10660(12) 0.5870(3)
C6 C 1.3512(3) 0.10034(11) 0.7798(3)
H4 H 1.4408 0.0971 0.8090
C7 C 1.2587(4) 0.10068(11) 0.8521(3)
C8 C 1.1240(4) 0.10404(11) 0.8069(3)
H5 H 1.0618 0.1032 0.8550
C9 C 0.6034(4) 0.13657(11) 0.2350(3)
C10 C 0.7032(3) 0.13818(11) 0.1572(3)
C11 C 0.8389(4) 0.14023(11) 0.2003(3)
H6 H 0.8686 0.1412 0.2785
C12 C 0.9293(4) 0.14090(11) 0.1266(3)
C13 C 1.0755(4) 0.14035(11) 0.1722(3)
C14 C 0.8839(4) 0.14019(12) 0.0092(3)
H7 H 0.9442 0.1416 -0.0404
C15 C 0.7492(4) 0.13740(12) -0.0339(3)
C16 C 0.6588(4) 0.13610(12) 0.0398(3)
H8 H 0.5687 0.1339 0.0111
C17 C 0.7971(5) 0.05096(14) 0.3913(4)
H9 H 0.8721 0.0660 0.3903
C18 C 0.6569(5) 0.00345(14) 0.3603(4)
H10 H 0.6155 -0.0197 0.3356
C19 C 0.6107(5) 0.03121(14) 0.4231(4)
H11 H 0.5307 0.0301 0.4495
C20 C 0.8638(6) -0.00363(16) 0.2748(4)
H12 H 0.8366 -0.0304 0.2652
H13 H 0.9535 -0.0032 0.3175
C21 C 0.8632(5) 0.01404(13) 0.1591(4)
C22 C 0.7545(5) 0.00943(14) 0.0702(4)
H14 H 0.6804 -0.0043 0.0828
C23 C 0.7571(5) 0.02533(13) -0.0363(4)
C24 C 0.8681(5) 0.04467(13) -0.0552(4)
H15 H 0.8708 0.0548 -0.1268
C25 C 0.9768(5) 0.04918(14) 0.0321(5)
H16 H 1.0517 0.0623 0.0187
C26 C 0.9728(5) 0.03424(14) 0.1378(4)
H17 H 1.0449 0.0377 0.1961
C27 C 0.6409(5) 0.02031(15) -0.1327(5)
H18 H 0.5627 0.0135 -0.1015
H19 H 0.6234 0.0446 -0.1729
C28 C 0.7169(5) -0.00450(15) -0.3105(4)
H20 H 0.7389 0.0189 -0.3408
C29 C 0.7292(5) -0.04059(15) -0.3540(4)
H21 H 0.7623 -0.0459 -0.4200
C30 C 0.6485(5) -0.04811(14) -0.2016(4)
H22 H 0.6150 -0.0593 -0.1417
C31 C 0.3227(5) 0.22542(15) 0.3902(4)
H23 H 0.2675 0.2199 0.4421
C32 C 0.3666(5) 0.26108(15) 0.3680(5)
H24 H 0.3471 0.2841 0.4016
C33 C 0.4452(5) 0.21919(14) 0.2646(4)
H25 H 0.4920 0.2084 0.2123
C34 C 0.5170(5) 0.28701(14) 0.2370(5)
H26 H 0.4801 0.3121 0.2500
H27 H 0.5053 0.2830 0.1554
C35 C 0.6624(4) 0.28690(13) 0.2857(4)
C36 C 0.7527(5) 0.26767(13) 0.2310(4)
H28 H 0.7226 0.2554 0.1619
C37 C 0.8866(5) 0.26637(13) 0.2772(4)
C38 C 0.9318(5) 0.28503(14) 0.3798(4)
H29 H 1.0213 0.2842 0.4118
C39 C 0.8434(5) 0.30501(15) 0.4346(4)
H30 H 0.8739 0.3179 0.5026
C40 C 0.7099(5) 0.30568(13) 0.3876(4)
H31 H 0.6510 0.3189 0.4248
C41 C 0.9807(6) 0.24439(14) 0.2185(5)
H32 H 1.0406 0.2297 0.2747
H33 H 0.9309 0.2262 0.1658
C42 C 1.1462(5) 0.25565(14) 0.0910(4)
H34 H 1.1677 0.2299 0.0814
C43 C 1.1948(5) 0.28671(14) 0.0437(4)
H35 H 1.2561 0.2859 -0.0052
C44 C 1.0594(4) 0.30799(12) 0.1463(4)
H36 H 1.0088 0.3245 0.1829
Cd1_2 Cd 1.67226(3) 0.119466(8) 0.52337(2)
Cd1C Cd 1.17226(3) 0.380534(8) 0.02337(2)
Cd2_2 Cd 1.33542(3) 0.134068(8) 0.30244(2)
Cd2B Cd 0.66458(3) -0.134068(8) -0.30244(2)
O3_2 O 0.3792(3) 0.12283(10) 0.4923(2)
O4_2 O 0.5243(3) 0.09321(10) 0.6240(3)
O8_2 O 0.1125(3) 0.14280(10) 0.2793(2)
O9_2 O 0.1564(3) 0.13673(10) 0.1064(3)
N4B N 0.3149(4) 0.06791(11) 0.2854(3)
N8C N 0.6397(3) 0.18031(10) 0.5789(3)
O11 O 1.0302(5) 0.18873(11) 0.4561(3)
H37 H 0.994(6) 0.1722(14) 0.494(5)
H38 H 1.051(7) 0.1779(16) 0.398(4)
loop_
_geom_bond_atom_site_label_1
_geom_bond_atom_site_label_2
_geom_bond_site_symmetry_1
_geom_bond_site_symmetry_2
Cd1 O1 1_555 1_555
Cd2 O7 1_555 1_555
O1 C1 1_555 1_555
O2 Cd1 1_555 1_555
O3 C5 1_555 1_555
O4 C5 1_555 1_555
O5 H1 1_555 1_555
O6 Cd1 1_555 1_555
O7 C9 1_555 1_555
O8 C13 1_555 1_555
O9 C13 1_555 1_555
O10 H2 1_555 1_555
N1 Cd1 1_555 1_555
N2 C17 1_555 1_555
N3 C27 1_555 1_555
N4 C29 1_555 1_555
N5 Cd2 1_555 1_555
N6 C32 1_555 1_555
N7 C41 1_555 1_555
N8 C43 1_555 1_555
C1 O2 1_555 1_555
C2 C1 1_555 1_555
C3 C2 1_555 1_555
H3 C3 1_555 1_555
C4 C3 1_555 1_555
C5 C4 1_555 1_555
C6 C4 1_555 1_555
H4 C6 1_555 1_555
C7 O5 1_555 1_555
C8 C2 1_555 1_555
H5 C8 1_555 1_555
C9 O6 1_555 1_555
C10 C9 1_555 1_555
C11 C10 1_555 1_555
H6 C11 1_555 1_555
C12 C11 1_555 1_555
C13 C12 1_555 1_555
C14 C12 1_555 1_555
H7 C14 1_555 1_555
C15 O10 1_555 1_555
C16 C10 1_555 1_555
H8 C16 1_555 1_555
C17 N1 1_555 1_555
H9 C17 1_555 1_555
C18 N2 1_555 1_555
H10 C18 1_555 1_555
C19 N1 1_555 1_555
H11 C19 1_555 1_555
C20 N2 1_555 1_555
H12 C20 1_555 1_555
H13 C20 1_555 1_555
C21 C20 1_555 1_555
C22 C21 1_555 1_555
H14 C22 1_555 1_555
C23 C22 1_555 1_555
C24 C23 1_555 1_555
H15 C24 1_555 1_555
C25 C24 1_555 1_555
H16 C25 1_555 1_555
C26 C21 1_555 1_555
H17 C26 1_555 1_555
C27 C23 1_555 1_555
H18 C27 1_555 1_555
H19 C27 1_555 1_555
C28 N3 1_555 1_555
H20 C28 1_555 1_555
C29 C28 1_555 1_555
H21 C29 1_555 1_555
C30 N3 1_555 1_555
H22 C30 1_555 1_555
C31 N5 1_555 1_555
H23 C31 1_555 1_555
C32 C31 1_555 1_555
H24 C32 1_555 1_555
C33 N5 1_555 1_555
H25 C33 1_555 1_555
C34 N6 1_555 1_555
H26 C34 1_555 1_555
H27 C34 1_555 1_555
C35 C34 1_555 1_555
C36 C35 1_555 1_555
H28 C36 1_555 1_555
C37 C36 1_555 1_555
C38 C37 1_555 1_555
H29 C38 1_555 1_555
C39 C38 1_555 1_555
H30 C39 1_555 1_555
C40 C35 1_555 1_555
H31 C40 1_555 1_555
C41 C37 1_555 1_555
H32 C41 1_555 1_555
H33 C41 1_555 1_555
C42 N7 1_555 1_555
H34 C42 1_555 1_555
C43 C42 1_555 1_555
H35 C43 1_555 1_555
C44 N7 1_555 1_555
H36 C44 1_555 1_555
O11 H37 1_555 1_555
H38 O11 1_555 1_555
Cd1_2 O4 1_555 1_555
Cd1C N8 1_555 1_555
Cd2_2 O3 1_555 1_555
Cd2B N4 1_555 1_555
O3_2 Cd2 1_555 1_555
O4_2 Cd1 1_555 1_555
O8_2 Cd2 1_555 1_555
O9_2 Cd2 1_555 1_555
N4B Cd2 1_555 1_555
N8C Cd1 1_555 1_555
O8 Cd2_2 1_555 1_555
O9 Cd2_2 1_555 1_555
N4 C30 1_555 1_555
N6 C33 1_555 1_555
N8 C44 1_555 1_555
C6 C7 1_555 1_555
C7 C8 1_555 1_555
C14 C15 1_555 1_555
C15 C16 1_555 1_555
C18 C19 1_555 1_555
C25 C26 1_555 1_555
C39 C40 1_555 1_555

#END
