
#######################################################################
#
#                 Cambridge Crystallographic Data Centre
#                                CCDC 
#
#######################################################################
#
# If this CIF has been generated from an entry in the Cambridge 
# Structural Database, then it will include bibliographic, chemical, 
# crystal, experimental, refinement or atomic coordinate data resulting 
# from the CCDC's data processing and validation procedures.
#
#######################################################################

data_TOGSIT
_symmetry_cell_setting           monoclinic
_symmetry_space_group_name_H-M   'C 2/c'
_symmetry_Int_Tables_number      15
_space_group_name_Hall           '-C 2yn'
loop_
_symmetry_equiv_pos_site_id
_symmetry_equiv_pos_as_xyz
1 x,y,z
2 -x,y,1/2-z
3 1/2+x,1/2+y,z
4 1/2-x,1/2+y,1/2-z
5 -x,-y,-z
6 x,-y,1/2+z
7 1/2-x,1/2-y,-z
8 1/2+x,1/2-y,1/2+z
_cell_length_a                   23.880(2)
_cell_length_b                   13.4247(14)
_cell_length_c                   17.5148(15)
_cell_angle_alpha                90
_cell_angle_beta                 119.635(2)
_cell_angle_gamma                90
_cell_volume                     4880.46
loop_
_atom_site_label
_atom_site_type_symbol
_atom_site_fract_x
_atom_site_fract_y
_atom_site_fract_z
Cd1 Cd 0.24285(2) 0.47201(4) 0.27422(3)
N1 N 0.3402(3) 0.5439(4) 0.3239(4)
N2 N 0.4177(3) 0.6542(6) 0.3852(5)
H1 H 0.4366 0.7098 0.4075
N3 N 0.2816(3) 0.3469(4) 0.3720(3)
N4 N 0.3142(3) 0.1984(4) 0.4302(4)
H2 H 0.3226 0.1358 0.4337
O1 O 0.1852(3) 0.5055(4) 0.1215(3)
O2 O 0.2107(3) 0.3527(4) 0.1622(3)
O3 O 0.1467(3) 0.5080(5) -0.2191(4)
O4 O 0.2119(3) 0.3832(4) -0.1802(4)
C1 C 0.3554(4) 0.6355(6) 0.3535(5)
H3 H 0.3260 0.6818 0.3523
C2 C 0.4470(4) 0.5699(7) 0.3767(6)
C3 C 0.3977(4) 0.5006(6) 0.3384(5)
C4 C 0.4098(4) 0.4064(7) 0.3194(6)
H4 H 0.3767 0.3604 0.2909
C5 C 0.4723(5) 0.3826(8) 0.3438(7)
H5 H 0.4824 0.3183 0.3347
C6 C 0.5200(5) 0.4531(9) 0.3814(8)
H6 H 0.5620 0.4351 0.3973
C7 C 0.5079(5) 0.5504(8) 0.3967(7)
H7 H 0.5399 0.5988 0.4193
C8 C 0.2888(4) 0.2537(5) 0.3567(4)
H8 H 0.2777 0.2287 0.3015
C9 C 0.3242(3) 0.2592(5) 0.4982(4)
C10 C 0.3047(3) 0.3530(5) 0.4615(4)
C11 C 0.3075(4) 0.4349(6) 0.5124(5)
H9 H 0.2944 0.4979 0.4879
C12 C 0.3305(4) 0.4181(7) 0.6001(5)
H10 H 0.3323 0.4706 0.6359
C13 C 0.3513(4) 0.3239(7) 0.6366(5)
H11 H 0.3681 0.3160 0.6968
C14 C 0.3481(4) 0.2429(6) 0.5877(5)
H12 H 0.3611 0.1801 0.6126
C15 C 0.1828(3) 0.4152(5) 0.1034(4)
C16 C 0.1609(4) 0.4201(6) -0.1926(4)
C17 C 0.1440(3) 0.3805(5) 0.0085(4)
H13 H 0.1084 0.3400 0.0040
C18 C 0.1838(4) 0.3141(5) -0.0161(4)
H14 H 0.1994 0.2578 0.0237
H15 H 0.2209 0.3511 -0.0092
C19 C 0.1455(4) 0.2757(6) -0.1107(5)
H16 H 0.1128 0.2295 -0.1152
H17 H 0.1743 0.2399 -0.1252
C20 C 0.1130(3) 0.3606(6) -0.1769(4)
H18 H 0.0825 0.3298 -0.2331
C21 C 0.0739(3) 0.4268(7) -0.1498(4)
H19 H 0.0567 0.4828 -0.1899
H20 H 0.0378 0.3891 -0.1540
C22 C 0.1143(4) 0.4651(6) -0.0570(4)
H21 H 0.0876 0.5053 -0.0415
H22 H 0.1483 0.5073 -0.0539
Cd1E Cd 0.24285(2) 0.52799(4) -0.22578(3)
O3E O 0.1467(3) 0.4920(5) 0.2809(4)
O4E O 0.2119(3) 0.6168(4) 0.3198(4)
O5 O 0.5024(7) 0.8173(13) 0.4686(11)
H23 H 0.4946 0.8408 0.5056
C23 C 0.4605(9) 0.8669(16) 0.3816(15)
H24 H 0.4608 0.9365 0.3965
H25 H 0.4175 0.8432 0.3645
C24 C 0.4619(8) 0.8696(14) 0.2952(12)
H26 H 0.4808 0.9312 0.2912
H27 H 0.4188 0.8646 0.2467
H28 H 0.4871 0.8148 0.2935
O6 O 0.0474(5) 0.5578(8) 0.0846(7)
H29 H 0.0783 0.5492 0.0742
H30 H 0.0613 0.5442 0.1384
loop_
_geom_bond_atom_site_label_1
_geom_bond_atom_site_label_2
_geom_bond_site_symmetry_1
_geom_bond_site_symmetry_2
Cd1 N1 1_555 1_555
N1 C1 1_555 1_555
N2 H1 1_555 1_555
N3 Cd1 1_555 1_555
N4 H2 1_555 1_555
O1 Cd1 1_555 1_555
O2 Cd1 1_555 1_555
O3 C16 1_555 1_555
O4 C16 1_555 1_555
C1 N2 1_555 1_555
H3 C1 1_555 1_555
C2 N2 1_555 1_555
C3 N1 1_555 1_555
C4 C3 1_555 1_555
H4 C4 1_555 1_555
C5 C4 1_555 1_555
H5 C5 1_555 1_555
C6 C5 1_555 1_555
H6 C6 1_555 1_555
C7 C2 1_555 1_555
H7 C7 1_555 1_555
C8 N3 1_555 1_555
H8 C8 1_555 1_555
C9 N4 1_555 1_555
C10 N3 1_555 1_555
C11 C10 1_555 1_555
H9 C11 1_555 1_555
C12 C11 1_555 1_555
H10 C12 1_555 1_555
C13 C12 1_555 1_555
H11 C13 1_555 1_555
C14 C9 1_555 1_555
H12 C14 1_555 1_555
C15 O1 1_555 1_555
C16 C20 1_555 1_555
C17 C15 1_555 1_555
H13 C17 1_555 1_555
C18 C17 1_555 1_555
H14 C18 1_555 1_555
H15 C18 1_555 1_555
C19 C18 1_555 1_555
H16 C19 1_555 1_555
H17 C19 1_555 1_555
C20 C19 1_555 1_555
H18 C20 1_555 1_555
C21 C20 1_555 1_555
H19 C21 1_555 1_555
H20 C21 1_555 1_555
C22 C17 1_555 1_555
H21 C22 1_555 1_555
H22 C22 1_555 1_555
O5 H23 1_555 1_555
C23 O5 1_555 1_555
H24 C23 1_555 1_555
H25 C23 1_555 1_555
C24 C23 1_555 1_555
H26 C24 1_555 1_555
H27 C24 1_555 1_555
H28 C24 1_555 1_555
O6 H29 1_555 1_555
H30 O6 1_555 1_555
Cd1E O3 1_555 1_555
O3E Cd1 1_555 1_555
O4E Cd1 1_555 1_555
N4 C8 1_555 1_555
O2 C15 1_555 1_555
O4 Cd1E 1_555 1_555
C2 C3 1_555 1_555
C6 C7 1_555 1_555
C9 C10 1_555 1_555
C13 C14 1_555 1_555
C21 C22 1_555 1_555

#END
