
#######################################################################
#
#                 Cambridge Crystallographic Data Centre
#                                CCDC 
#
#######################################################################
#
# If this CIF has been generated from an entry in the Cambridge 
# Structural Database, then it will include bibliographic, chemical, 
# crystal, experimental, refinement or atomic coordinate data resulting 
# from the CCDC's data processing and validation procedures.
#
#######################################################################

data_TOHHOP
_symmetry_cell_setting           monoclinic
_symmetry_space_group_name_H-M   'P 21/c'
_symmetry_Int_Tables_number      14
_space_group_name_Hall           '-P 2ybc'
loop_
_symmetry_equiv_pos_site_id
_symmetry_equiv_pos_as_xyz
1 x,y,z
2 -x,1/2+y,1/2-z
3 -x,-y,-z
4 x,1/2-y,1/2+z
_cell_length_a                   10.7883(16)
_cell_length_b                   11.3850(15)
_cell_length_c                   14.3581(13)
_cell_angle_alpha                90
_cell_angle_beta                 100.358(11)
_cell_angle_gamma                90
_cell_volume                     1734.79
loop_
_atom_site_label
_atom_site_type_symbol
_atom_site_fract_x
_atom_site_fract_y
_atom_site_fract_z
Co1 Co 0.0000 0.5000 0.0000
S1 S -0.14460(15) 0.18464(11) 0.16981(10)
C1 C 0.8845(5) 0.4180(4) 0.4079(4)
H1 H 0.9545 0.4712 0.4201
H2 H 0.9008 0.3586 0.3642
H3 H 0.8730 0.3816 0.4661
N1 N 0.8047(4) 0.6840(3) 0.5471(2)
N2 N 0.3383(4) 0.6009(3) 0.1885(3)
C2 C 0.5560(5) 0.6109(4) 0.2756(3)
N3 N 0.9078(3) 0.8477(3) 0.5453(3)
N4 N 0.3129(4) 0.5061(3) 0.2394(3)
N5 N 0.1638(4) 0.5297(3) 0.1077(3)
C3 C 0.4439(5) 0.6791(4) 0.2248(4)
H4 H 0.4177 0.7355 0.2681
H5 H 0.4680 0.7223 0.1726
C4 C 0.5859(5) 0.5304(5) 0.1168(4)
H6 H 0.5037 0.4957 0.1009
H7 H 0.6459 0.4821 0.0928
H8 H 0.5847 0.6073 0.0891
C5 C 0.7660(5) 0.4851(4) 0.3658(3)
N6 N -0.0713(4) 0.3925(3) 0.0935(3)
C6 C 0.5175(5) 0.6909(5) 0.4320(4)
H9 H 0.5374 0.7724 0.4258
H10 H 0.5385 0.6683 0.4974
H11 H 0.4291 0.6787 0.4097
C7 C 0.6996(4) 0.5562(4) 0.4188(3)
C8 C 0.7449(5) 0.5686(4) 0.5241(3)
H12 H 0.6741 0.5600 0.5567
H13 H 0.8050 0.5068 0.5460
C9 C 0.7247(5) 0.4772(4) 0.2693(3)
H14 H 0.7675 0.4276 0.2344
C10 C 0.6222(5) 0.5401(4) 0.2221(3)
C11 C 0.2071(5) 0.4665(4) 0.1880(3)
H15 H 0.1653 0.4007 0.2052
C12 C 0.8800(5) 0.8252(4) 0.6317(3)
H16 H 0.9032 0.8752 0.6831
C13 C 0.8591(4) 0.7554(4) 0.4946(3)
H17 H 0.8629 0.7431 0.4312
C14 C 0.5926(5) 0.6173(4) 0.3741(3)
C15 C -0.1005(4) 0.3055(4) 0.1252(3)
C16 C 0.2495(5) 0.6132(4) 0.1119(3)
H18 H 0.2479 0.6726 0.0672
N7 N 0.8176(4) 0.7269(3) 0.6374(3)
S1B S 0.14460(15) 0.81536(11) -0.16981(10)
C1B C -0.8845(5) 0.5820(4) -0.4079(4)
H1B H -0.9545 0.5288 -0.4201
H2B H -0.9008 0.6414 -0.3642
H3B H -0.8730 0.6184 -0.4661
N1B N -0.8047(4) 0.3160(3) -0.5471(2)
N2B N -0.3383(4) 0.3991(3) -0.1885(3)
C2B C -0.5560(5) 0.3891(4) -0.2756(3)
N3B N -0.9078(3) 0.1523(3) -0.5453(3)
N4B N -0.3129(4) 0.4939(3) -0.2394(3)
N5B N -0.1638(4) 0.4703(3) -0.1077(3)
C3B C -0.4439(5) 0.3209(4) -0.2248(4)
H4B H -0.4177 0.2645 -0.2681
H5B H -0.4680 0.2777 -0.1726
C4B C -0.5859(5) 0.4696(5) -0.1168(4)
H6B H -0.5037 0.5043 -0.1009
H7B H -0.6459 0.5179 -0.0928
H8B H -0.5847 0.3927 -0.0891
C5B C -0.7660(5) 0.5149(4) -0.3658(3)
N6B N 0.0713(4) 0.6075(3) -0.0935(3)
C6B C -0.5175(5) 0.3091(5) -0.4320(4)
H9B H -0.5374 0.2276 -0.4258
H10B H -0.5385 0.3317 -0.4974
H11B H -0.4291 0.3213 -0.4097
C7B C -0.6996(4) 0.4438(4) -0.4188(3)
C8B C -0.7449(5) 0.4314(4) -0.5241(3)
H12B H -0.6741 0.4400 -0.5567
H13B H -0.8050 0.4932 -0.5460
C9B C -0.7247(5) 0.5228(4) -0.2693(3)
H14B H -0.7675 0.5724 -0.2344
C10B C -0.6222(5) 0.4599(4) -0.2221(3)
C11B C -0.2071(5) 0.5335(4) -0.1880(3)
H15B H -0.1653 0.5993 -0.2052
C12B C -0.8800(5) 0.1748(4) -0.6317(3)
H16B H -0.9032 0.1248 -0.6831
C13B C -0.8591(4) 0.2446(4) -0.4946(3)
H17B H -0.8629 0.2569 -0.4312
C14B C -0.5926(5) 0.3827(4) -0.3741(3)
C15B C 0.1005(4) 0.6945(4) -0.1252(3)
C16B C -0.2495(5) 0.3868(4) -0.1119(3)
H18B H -0.2479 0.3274 -0.0672
N7B N -0.8176(4) 0.2731(3) -0.6374(3)
Co1A Co -1.0000 0.0000 -0.5000
Co1A_2 Co 1.0000 1.0000 0.5000
N3A N 0.0922(3) 0.3477(3) -0.0453(3)
N3C N -0.0922(3) 0.6523(3) 0.0453(3)
loop_
_geom_bond_atom_site_label_1
_geom_bond_atom_site_label_2
_geom_bond_site_symmetry_1
_geom_bond_site_symmetry_2
Co1 N5 1_555 1_555
S1 C15 1_555 1_555
C1 H1 1_555 1_555
H2 C1 1_555 1_555
H3 C1 1_555 1_555
N1 C8 1_555 1_555
N2 N4 1_555 1_555
C2 C3 1_555 1_555
N3 C12 1_555 1_555
N4 C11 1_555 1_555
N5 C11 1_555 1_555
C3 N2 1_555 1_555
H4 C3 1_555 1_555
H5 C3 1_555 1_555
C4 H6 1_555 1_555
H7 C4 1_555 1_555
H8 C4 1_555 1_555
C5 C1 1_555 1_555
N6 Co1 1_555 1_555
C6 H9 1_555 1_555
H10 C6 1_555 1_555
H11 C6 1_555 1_555
C7 C5 1_555 1_555
C8 C7 1_555 1_555
H12 C8 1_555 1_555
H13 C8 1_555 1_555
C9 C5 1_555 1_555
H14 C9 1_555 1_555
C10 C2 1_555 1_555
C11 H15 1_555 1_555
C12 H16 1_555 1_555
C13 N1 1_555 1_555
H17 C13 1_555 1_555
C14 C2 1_555 1_555
C15 N6 1_555 1_555
C16 N2 1_555 1_555
H18 C16 1_555 1_555
N7 N1 1_555 1_555
S1B C15B 1_555 1_555
C1B H1B 1_555 1_555
H2B C1B 1_555 1_555
H3B C1B 1_555 1_555
N1B C8B 1_555 1_555
N2B N4B 1_555 1_555
C2B C3B 1_555 1_555
N3B C12B 1_555 1_555
N4B C11B 1_555 1_555
N5B Co1 1_555 1_555
C3B N2B 1_555 1_555
H4B C3B 1_555 1_555
H5B C3B 1_555 1_555
C4B H6B 1_555 1_555
H7B C4B 1_555 1_555
H8B C4B 1_555 1_555
C5B C1B 1_555 1_555
N6B Co1 1_555 1_555
C6B H9B 1_555 1_555
H10B C6B 1_555 1_555
H11B C6B 1_555 1_555
C7B C5B 1_555 1_555
C8B C7B 1_555 1_555
H12B C8B 1_555 1_555
H13B C8B 1_555 1_555
C9B C5B 1_555 1_555
H14B C9B 1_555 1_555
C10B C2B 1_555 1_555
C11B N5B 1_555 1_555
H15B C11B 1_555 1_555
C12B H16B 1_555 1_555
C13B N1B 1_555 1_555
H17B C13B 1_555 1_555
C14B C2B 1_555 1_555
C15B N6B 1_555 1_555
C16B N2B 1_555 1_555
H18B C16B 1_555 1_555
N7B N1B 1_555 1_555
Co1A N3B 1_555 1_555
Co1A_2 N3 1_555 1_555
N3A Co1 1_555 1_555
N3C Co1 1_555 1_555
N3 C13 1_555 1_555
N5 C16 1_555 1_555
C4 C10 1_555 1_555
C6 C14 1_555 1_555
C7 C14 1_555 1_555
C9 C10 1_555 1_555
C12 N7 1_555 1_555
N3B C13B 1_555 1_555
N5B C16B 1_555 1_555
C4B C10B 1_555 1_555
C6B C14B 1_555 1_555
C7B C14B 1_555 1_555
C9B C10B 1_555 1_555
C12B N7B 1_555 1_555

#END
