
#######################################################################
#
#                 Cambridge Crystallographic Data Centre
#                                CCDC 
#
#######################################################################
#
# If this CIF has been generated from an entry in the Cambridge 
# Structural Database, then it will include bibliographic, chemical, 
# crystal, experimental, refinement or atomic coordinate data resulting 
# from the CCDC's data processing and validation procedures.
#
#######################################################################

data_TOHKEI
_symmetry_cell_setting           triclinic
_symmetry_space_group_name_H-M   'P -1'
_symmetry_Int_Tables_number      2
_space_group_name_Hall           '-P 1'
loop_
_symmetry_equiv_pos_site_id
_symmetry_equiv_pos_as_xyz
1 x,y,z
2 -x,-y,-z
_cell_length_a                   9.00290(10)
_cell_length_b                   14.7060(2)
_cell_length_c                   26.4924(3)
_cell_angle_alpha                97.8840(10)
_cell_angle_beta                 91.2850(10)
_cell_angle_gamma                99.7280(10)
_cell_volume                     3420.66
loop_
_atom_site_label
_atom_site_type_symbol
_atom_site_fract_x
_atom_site_fract_y
_atom_site_fract_z
Ag1 Ag 0.55553(3) 0.59764(2) -0.107007(9)
Ag2 Ag -0.06728(3) 1.007667(17) 0.255062(10)
Ag3 Ag -0.41254(3) 0.64359(2) 0.403016(9)
O1 O 0.5687(2) 0.79393(15) -0.07137(8)
O2 O 0.0840(2) 1.07398(16) -0.07820(8)
O3 O 0.4406(3) 0.87331(18) 0.10836(9)
O4 O -0.1815(3) 1.03892(15) 0.34177(8)
O5 O -0.0826(4) 0.8294(2) 0.45314(10)
O6 O -0.4661(3) 1.20516(18) 0.54009(10)
N1 N 0.5817(3) 0.58175(19) -0.18726(10)
N2 N 0.4753(3) 0.85749(19) -0.13489(9)
H1 H 0.4250 0.8995 -0.1439
N3 N 0.4741(3) 1.38895(18) 0.02692(10)
N4 N 0.1742(3) 1.16321(17) -0.00394(9)
H2 H 0.2274 1.1664 0.0247
N5 N -0.0297(3) 0.87144(17) 0.26946(10)
N6 N 0.2029(3) 0.8999(2) 0.11870(9)
H3 H 0.1242 0.9165 0.1045
N7 N -0.0386(3) 1.13229(17) 0.21832(9)
N8 N -0.1980(3) 1.18737(17) 0.36959(9)
H4 H -0.2063 1.2299 0.3957
N9 N -0.4653(3) 0.61832(17) 0.47817(9)
N10 N -0.1654(3) 0.83041(17) 0.53200(9)
H5 H -0.2126 0.8583 0.5567
N11 N -0.6078(3) 1.3432(2) 0.67605(10)
N12 N -0.4579(3) 1.0999(2) 0.59237(11)
H6 H -0.4283 1.0479 0.5977
C1 C 0.6615(4) 0.5182(2) -0.20876(13)
H7 H 0.7020 0.4803 -0.1876
C2 C 0.6864(4) 0.5061(3) -0.25961(15)
H8 H 0.7420 0.4599 -0.2737
C3 C 0.6294(4) 0.5620(3) -0.29040(14)
H9 H 0.6462 0.5555 -0.3259
C4 C 0.5483(4) 0.6271(3) -0.26880(13)
H10 H 0.5080 0.6659 -0.2894
C5 C 0.5249(4) 0.6362(2) -0.21710(12)
C6 C 0.4407(4) 0.7080(3) -0.19165(13)
H11 H 0.3898 0.6846 -0.1620
H12 H 0.3621 0.7184 -0.2159
C7 C 0.5460(4) 0.8007(2) -0.17352(12)
H13 H 0.6419 0.7884 -0.1591
H14 H 0.5694 0.8349 -0.2029
C8 C 0.4864(3) 0.8460(2) -0.08582(11)
C9 C 0.3948(3) 0.8961(2) -0.04846(11)
C10 C 0.3131(3) 0.9631(2) -0.06057(11)
H15 H 0.3089 0.9767 -0.0946
C11 C 0.6156(4) 1.4075(3) 0.01095(14)
H16 H 0.6945 1.4348 0.0356
C12 C 0.6517(5) 1.3893(3) -0.03866(15)
H17 H 0.7530 1.4031 -0.0484
C13 C 0.5364(5) 1.3503(3) -0.07419(14)
H18 H 0.5572 1.3358 -0.1091
C14 C 0.3909(4) 1.3325(3) -0.05857(13)
H19 H 0.3104 1.3068 -0.0829
C15 C 0.3613(4) 1.3518(2) -0.00750(11)
C16 C 0.2048(4) 1.3340(2) 0.01170(12)
H20 H 0.1539 1.3867 0.0061
H21 H 0.2126 1.3331 0.0489
C17 C 0.1062(4) 1.2436(2) -0.01313(13)
H22 H 0.0048 1.2382 0.0011
H23 H 0.0944 1.2443 -0.0503
C18 C 0.1585(3) 1.0855(2) -0.03738(11)
C19 C 0.2376(3) 1.0103(2) -0.02307(11)
C20 C 0.2377(3) 0.9877(2) 0.02617(11)
H24 H 0.1849 1.0195 0.0516
C21 C -0.0409(4) 0.8517(2) 0.31738(12)
H25 H -0.0818 0.8930 0.3418
C22 C 0.0039(4) 0.7744(2) 0.33272(12)
H26 H -0.0049 0.7629 0.3670
C23 C 0.0617(4) 0.7144(2) 0.29719(12)
H27 H 0.0935 0.6603 0.3065
C24 C 0.0729(4) 0.7338(2) 0.24777(11)
H28 H 0.1133 0.6933 0.2228
C25 C 0.0253(3) 0.8124(2) 0.23478(11)
C26 C 0.0365(3) 0.8356(2) 0.18128(11)
H29 H -0.0329 0.8794 0.1760
H30 H 0.0047 0.7781 0.1567
C27 C 0.1949(4) 0.8791(3) 0.17102(12)
H31 H 0.2266 0.9373 0.1951
H32 H 0.2649 0.8358 0.1765
C28 C 0.3246(3) 0.8948(2) 0.09172(11)
C29 C 0.3150(3) 0.9188(2) 0.03827(11)
C30 C 0.3955(3) 0.8746(2) 0.00118(11)
H33 H 0.4517 0.8293 0.0097
C31 C -0.0368(4) 1.1226(2) 0.16732(12)
H34 H -0.0542 1.0615 0.1487
C32 C -0.0106(4) 1.1977(3) 0.14090(13)
H35 H -0.0092 1.1886 0.1047
C33 C 0.0132(5) 1.2857(3) 0.16776(14)
H36 H 0.0318 1.3387 0.1504
C34 C 0.0097(4) 1.2967(2) 0.22029(13)
H37 H 0.0239 1.3574 0.2394
C35 C -0.0148(3) 1.2185(2) 0.24507(12)
C36 C -0.0206(4) 1.2251(2) 0.30186(12)
H38 H 0.0353 1.2865 0.3179
H39 H 0.0291 1.1762 0.3136
C37 C -0.1838(3) 1.2134(2) 0.31854(11)
H40 H -0.2216 1.2726 0.3178
H41 H -0.2475 1.1648 0.2940
C38 C -0.1986(3) 1.0993(2) 0.37697(11)
C39 C -0.2221(3) 1.0737(2) 0.42956(11)
C40 C -0.3020(3) 1.1191(2) 0.46639(11)
H42 H -0.3378 1.1739 0.4602
C41 C -0.6131(4) 0.5988(2) 0.48642(12)
H43 H -0.6824 0.5839 0.4577
C42 C -0.6694(4) 0.5994(2) 0.53411(13)
H44 H -0.7747 0.5841 0.5384
C43 C -0.5685(4) 0.6226(3) 0.57556(13)
H45 H -0.6033 0.6249 0.6092
C44 C -0.4166(4) 0.6427(2) 0.56762(12)
H46 H -0.3461 0.6587 0.5960
C45 C -0.3660(3) 0.6396(2) 0.51845(11)
C46 C -0.2018(3) 0.6575(2) 0.50770(12)
H47 H -0.1923 0.6630 0.4710
H48 H -0.1573 0.6030 0.5144
C47 C -0.1109(3) 0.7447(2) 0.53887(11)
H49 H -0.1136 0.7373 0.5754
H50 H -0.0045 0.7505 0.5292
C48 C -0.1443(4) 0.8672(2) 0.48863(12)
C49 C -0.1981(4) 0.9579(2) 0.48465(11)
C50 C -0.1698(3) 0.9940(2) 0.43935(11)
H51 H -0.1135 0.9634 0.4145
C51 C -0.6883(4) 1.3971(3) 0.70538(12)
H52 H -0.7335 1.4414 0.6903
C52 C -0.7080(4) 1.3910(3) 0.75593(13)
H53 H -0.7638 1.4312 0.7757
C53 C -0.6458(4) 1.3260(3) 0.77755(13)
H54 H -0.6618 1.3183 0.8121
C54 C -0.5595(5) 1.2721(3) 0.74829(13)
H55 H -0.5136 1.2276 0.7629
C55 C -0.5396(4) 1.2824(2) 0.69777(12)
C56 C -0.4445(4) 1.2250(3) 0.66363(14)
H56 H -0.3839 1.2652 0.6418
H57 H -0.3744 1.1995 0.6850
C57 C -0.5464(4) 1.1460(2) 0.63055(13)
H58 H -0.5950 1.1004 0.6520
H59 H -0.6266 1.1706 0.6133
C58 C -0.4210(4) 1.1354(2) 0.54941(13)
C59 C -0.3299(4) 1.0845(2) 0.51235(12)
C60 C -0.2781(4) 1.0038(2) 0.52109(12)
H60 H -0.2977 0.9800 0.5523
Ag1A Ag 0.44447(3) 1.40236(2) 0.107007(9)
Ag3A Ag -0.58746(3) 1.35641(2) 0.596984(9)
N3A N 0.5259(3) 0.61105(18) -0.02692(10)
N11A N -0.3922(3) 0.6568(2) 0.32395(10)
P1 P 0.97573(11) 0.53179(7) 0.11919(3)
F1 F 1.1031(3) 0.47019(15) 0.10657(8)
F2 F 1.1060(3) 0.62184(16) 0.12811(9)
F3 F 0.9928(3) 0.51988(16) 0.17791(7)
F4 F 0.8494(3) 0.4423(2) 0.11098(10)
F5 F 0.9606(3) 0.54323(19) 0.06059(8)
F6 F 0.8557(3) 0.5980(2) 0.13319(11)
P2 P 0.01914(9) 0.49945(6) 0.38235(3)
F7 F 0.0324(2) 0.51441(14) 0.44292(7)
F8 F -0.1039(3) 0.40879(19) 0.38272(10)
F9 F 0.1452(3) 0.4357(2) 0.38021(9)
F10 F 0.1468(3) 0.58691(18) 0.38073(9)
F11 F -0.1070(3) 0.5615(2) 0.38396(9)
F12 F 0.0053(2) 0.48417(16) 0.32105(7)
P3 P 0.35414(11) 1.08734(8) 0.32231(4)
F13 F 0.4903(6) 1.0541(8) 0.2872(2)
F14 F 0.2307(10) 1.1139(11) 0.3555(3)
F15 F 0.2860(11) 0.9798(6) 0.3210(5)
F16 F 0.4358(12) 1.1873(4) 0.3221(3)
F17 F 0.4515(3) 1.0859(2) 0.37310(10)
F18 F 0.2578(3) 1.08750(19) 0.27173(8)
O7 O 0.6249(3) 0.9976(2) 0.19004(14)
H61 H 0.6010 0.9834 0.2188
H62 H 0.5638 0.9651 0.1675
F19? F 0.4884(8) 1.1397(11) 0.2999(4)
F20? F 0.1980(15) 1.0593(11) 0.3498(5)
F21? F 0.372(2) 0.9929(9) 0.3099(6)
F22? F 0.3101(15) 1.1964(7) 0.3394(4)
loop_
_geom_bond_atom_site_label_1
_geom_bond_atom_site_label_2
_geom_bond_site_symmetry_1
_geom_bond_site_symmetry_2
Ag1 N1 1_555 1_555
Ag2 O4 1_555 1_555
Ag3 N9 1_555 1_555
O1 C8 1_555 1_555
O2 C18 1_555 1_555
O3 C28 1_555 1_555
O4 C38 1_555 1_555
O5 C48 1_555 1_555
O6 C58 1_555 1_555
N1 C1 1_555 1_555
N2 H1 1_555 1_555
N3 C11 1_555 1_555
N4 H2 1_555 1_555
N5 Ag2 1_555 1_555
N6 H3 1_555 1_555
N7 Ag2 1_555 1_555
N8 H4 1_555 1_555
N9 C41 1_555 1_555
N10 H5 1_555 1_555
N11 C51 1_555 1_555
N12 H6 1_555 1_555
C1 H7 1_555 1_555
C2 C1 1_555 1_555
H8 C2 1_555 1_555
C3 C2 1_555 1_555
H9 C3 1_555 1_555
C4 C3 1_555 1_555
H10 C4 1_555 1_555
C5 N1 1_555 1_555
C6 C5 1_555 1_555
H11 C6 1_555 1_555
H12 C6 1_555 1_555
C7 N2 1_555 1_555
H13 C7 1_555 1_555
H14 C7 1_555 1_555
C8 N2 1_555 1_555
C9 C8 1_555 1_555
C10 C9 1_555 1_555
H15 C10 1_555 1_555
C11 H16 1_555 1_555
C12 C11 1_555 1_555
H17 C12 1_555 1_555
C13 C12 1_555 1_555
H18 C13 1_555 1_555
C14 C13 1_555 1_555
H19 C14 1_555 1_555
C15 N3 1_555 1_555
C16 C15 1_555 1_555
H20 C16 1_555 1_555
H21 C16 1_555 1_555
C17 N4 1_555 1_555
H22 C17 1_555 1_555
H23 C17 1_555 1_555
C18 N4 1_555 1_555
C19 C10 1_555 1_555
C20 C19 1_555 1_555
H24 C20 1_555 1_555
C21 N5 1_555 1_555
H25 C21 1_555 1_555
C22 C21 1_555 1_555
H26 C22 1_555 1_555
C23 C22 1_555 1_555
H27 C23 1_555 1_555
C24 C23 1_555 1_555
H28 C24 1_555 1_555
C25 N5 1_555 1_555
C26 C25 1_555 1_555
H29 C26 1_555 1_555
H30 C26 1_555 1_555
C27 N6 1_555 1_555
H31 C27 1_555 1_555
H32 C27 1_555 1_555
C28 N6 1_555 1_555
C29 C20 1_555 1_555
C30 C9 1_555 1_555
H33 C30 1_555 1_555
C31 N7 1_555 1_555
H34 C31 1_555 1_555
C32 C31 1_555 1_555
H35 C32 1_555 1_555
C33 C32 1_555 1_555
H36 C33 1_555 1_555
C34 C33 1_555 1_555
H37 C34 1_555 1_555
C35 N7 1_555 1_555
C36 C35 1_555 1_555
H38 C36 1_555 1_555
H39 C36 1_555 1_555
C37 N8 1_555 1_555
H40 C37 1_555 1_555
H41 C37 1_555 1_555
C38 N8 1_555 1_555
C39 C38 1_555 1_555
C40 C39 1_555 1_555
H42 C40 1_555 1_555
C41 H43 1_555 1_555
C42 C41 1_555 1_555
H44 C42 1_555 1_555
C43 C42 1_555 1_555
H45 C43 1_555 1_555
C44 C43 1_555 1_555
H46 C44 1_555 1_555
C45 N9 1_555 1_555
C46 C45 1_555 1_555
H47 C46 1_555 1_555
H48 C46 1_555 1_555
C47 N10 1_555 1_555
H49 C47 1_555 1_555
H50 C47 1_555 1_555
C48 N10 1_555 1_555
C49 C48 1_555 1_555
C50 C39 1_555 1_555
H51 C50 1_555 1_555
C51 H52 1_555 1_555
C52 C51 1_555 1_555
H53 C52 1_555 1_555
C53 C52 1_555 1_555
H54 C53 1_555 1_555
C54 C53 1_555 1_555
H55 C54 1_555 1_555
C55 N11 1_555 1_555
C56 C55 1_555 1_555
H56 C56 1_555 1_555
H57 C56 1_555 1_555
C57 N12 1_555 1_555
H58 C57 1_555 1_555
H59 C57 1_555 1_555
C58 N12 1_555 1_555
C59 C40 1_555 1_555
C60 C49 1_555 1_555
H60 C60 1_555 1_555
P1 F1 1_555 1_555
F2 P1 1_555 1_555
F3 P1 1_555 1_555
F4 P1 1_555 1_555
F5 P1 1_555 1_555
F6 P1 1_555 1_555
P2 F7 1_555 1_555
F8 P2 1_555 1_555
F9 P2 1_555 1_555
F10 P2 1_555 1_555
F11 P2 1_555 1_555
F12 P2 1_555 1_555
P3 F13 1_555 1_555
F14 P3 1_555 1_555
F15 P3 1_555 1_555
F16 P3 1_555 1_555
F17 P3 1_555 1_555
F18 P3 1_555 1_555
O7 H61 1_555 1_555
H62 O7 1_555 1_555
Ag1A N3 1_555 1_555
Ag3A N11 1_555 1_555
N3A Ag1 1_555 1_555
N11A Ag3 1_555 1_555
C4 C5 1_555 1_555
C6 C7 1_555 1_555
C14 C15 1_555 1_555
C16 C17 1_555 1_555
C18 C19 1_555 1_555
C24 C25 1_555 1_555
C26 C27 1_555 1_555
C28 C29 1_555 1_555
C29 C30 1_555 1_555
C34 C35 1_555 1_555
C36 C37 1_555 1_555
C44 C45 1_555 1_555
C46 C47 1_555 1_555
C49 C50 1_555 1_555
C54 C55 1_555 1_555
C56 C57 1_555 1_555
C58 C59 1_555 1_555
C59 C60 1_555 1_555

#END
