
#######################################################################
#
#                 Cambridge Crystallographic Data Centre
#                                CCDC 
#
#######################################################################
#
# If this CIF has been generated from an entry in the Cambridge 
# Structural Database, then it will include bibliographic, chemical, 
# crystal, experimental, refinement or atomic coordinate data resulting 
# from the CCDC's data processing and validation procedures.
#
#######################################################################

data_TOHKAE
_symmetry_cell_setting           triclinic
_symmetry_space_group_name_H-M   'P -1'
_symmetry_Int_Tables_number      2
_space_group_name_Hall           '-P 1'
loop_
_symmetry_equiv_pos_site_id
_symmetry_equiv_pos_as_xyz
1 x,y,z
2 -x,-y,-z
_cell_length_a                   8.79330(10)
_cell_length_b                   14.6699(2)
_cell_length_c                   26.2548(4)
_cell_angle_alpha                96.9990(10)
_cell_angle_beta                 90.7650(10)
_cell_angle_gamma                101.3980(10)
_cell_volume                     3292.81
loop_
_atom_site_label
_atom_site_type_symbol
_atom_site_fract_x
_atom_site_fract_y
_atom_site_fract_z
Ag1 Ag -0.04008(4) 1.40184(3) 0.600856(13)
Ag2 Ag 0.50368(5) 0.97451(2) 0.236929(15)
Ag3 Ag 1.05835(5) 0.64635(3) -0.090755(13)
O1 O -0.0688(4) 1.2060(2) 0.57208(12)
O2 O 0.4137(4) 0.9266(2) 0.58182(12)
O3 O 0.0580(4) 1.1306(3) 0.39360(13)
O4 O 0.6647(4) 0.9525(2) 0.15546(12)
O5 O 0.5975(7) 1.1742(3) 0.04641(16)
O6 O 0.9384(6) 0.7871(3) -0.04689(16)
N1 N -0.0915(4) 1.4163(3) 0.68067(14)
N2 N 0.0209(5) 1.1423(3) 0.63695(15)
H1 H 0.0709 1.1006 0.6467
N3 N 0.0091(4) 0.6123(2) 0.48062(14)
N4 N 0.3245(4) 0.8374(2) 0.50681(14)
H2 H 0.2720 0.8342 0.4777
N5 N 0.4813(5) 1.1130(3) 0.22115(15)
N6 N 0.2956(5) 1.0981(3) 0.37965(14)
H3 H 0.3757 1.0799 0.3926
N7 N 0.5100(5) 0.8566(3) 0.27865(14)
N8 N 0.6891(5) 0.8056(3) 0.12672(14)
H4 H 0.6962 0.7640 0.1002
N9 N 0.9938(4) 1.3805(2) 0.01360(14)
N10 N 0.6792(5) 1.1767(3) -0.03369(15)
H5 H 0.7293 1.1511 -0.0585
N11 N 1.1024(4) 0.6512(3) -0.17058(14)
N12 N 0.9587(5) 0.8994(3) -0.09763(16)
H6 H 0.9350 0.9528 -0.1034
C1 C -0.1760(5) 1.4794(3) 0.69892(19)
H7 H -0.2132 1.5155 0.6756
C2 C -0.2107(5) 1.4940(3) 0.7496(2)
H8 H -0.2693 1.5399 0.7611
C3 C -0.1596(6) 1.4414(4) 0.78337(19)
H9 H -0.1826 1.4501 0.8187
C4 C -0.0739(6) 1.3756(4) 0.76533(18)
H10 H -0.0388 1.3379 0.7881
C5 C -0.0393(5) 1.3648(3) 0.71378(17)
C6 C 0.0503(6) 1.2928(3) 0.69220(19)
H11 H 0.1263 1.2852 0.7187
H12 H 0.1088 1.3153 0.6627
C7 C -0.0550(6) 1.1975(3) 0.67458(18)
H13 H -0.0805 1.1632 0.7046
H14 H -0.1533 1.2071 0.6593
C8 C 0.0145(5) 1.1549(3) 0.58765(16)
C9 C 0.1084(5) 1.1057(3) 0.55033(16)
C10 C 0.1906(5) 1.0391(3) 0.56301(16)
H15 H 0.1964 1.0266 0.5976
C11 C -0.1364(6) 0.5953(3) 0.49764(19)
H16 H -0.2198 0.5705 0.4733
C12 C -0.1697(6) 0.6121(4) 0.5482(2)
H17 H -0.2738 0.5997 0.5589
C13 C -0.0478(7) 0.6476(4) 0.5836(2)
H18 H -0.0669 0.6601 0.6190
C14 C 0.1021(6) 0.6648(4) 0.56661(19)
H19 H 0.1870 0.6885 0.5905
C15 C 0.1283(5) 0.6472(3) 0.51461(16)
C16 C 0.2896(5) 0.6647(3) 0.49429(18)
H20 H 0.2814 0.6635 0.4566
H21 H 0.3405 0.6128 0.5013
C17 C 0.3923(5) 0.7571(3) 0.51714(19)
H22 H 0.4054 0.7577 0.5547
H23 H 0.4961 0.7628 0.5023
C18 C 0.3406(5) 0.9148(3) 0.54044(16)
C19 C 0.2642(5) 0.9910(3) 0.52506(16)
C20 C 0.2637(5) 1.0127(3) 0.47477(16)
H24 H 0.3153 0.9805 0.4490
C21 C 0.4801(7) 1.1305(4) 0.1723(2)
H25 H 0.4904 1.0818 0.1460
C22 C 0.4646(6) 1.2159(4) 0.1585(2)
H26 H 0.4681 1.2267 0.1235
C23 C 0.4442(6) 1.2848(3) 0.1962(2)
H27 H 0.4314 1.3441 0.1879
C24 C 0.4425(6) 1.2670(3) 0.24636(19)
H28 H 0.4265 1.3137 0.2730
C25 C 0.4643(5) 1.1805(3) 0.25808(17)
C26 C 0.4619(5) 1.1597(3) 0.31264(17)
H29 H 0.5025 1.2180 0.3359
H30 H 0.5297 1.1146 0.3171
C27 C 0.2975(6) 1.1187(4) 0.32648(18)
H31 H 0.2297 1.1639 0.3222
H32 H 0.2568 1.0605 0.3031
C28 C 0.1754(5) 1.1064(3) 0.40884(16)
C29 C 0.1864(5) 1.0824(3) 0.46267(16)
C30 C 0.1078(5) 1.1271(3) 0.50037(17)
H33 H 0.0528 1.1731 0.4918
C31 C 0.5120(6) 0.8689(3) 0.33010(19)
H34 H 0.5130 0.9300 0.3472
C32 C 0.5126(6) 0.7971(4) 0.35944(19)
H35 H 0.5125 0.8083 0.3958
C33 C 0.5135(6) 0.7081(3) 0.3347(2)
H36 H 0.5153 0.6573 0.3537
C34 C 0.5116(6) 0.6954(3) 0.28176(19)
H37 H 0.5122 0.6351 0.2640
C35 C 0.5088(5) 0.7702(3) 0.25415(17)
C36 C 0.5113(5) 0.7599(3) 0.19638(17)
H38 H 0.4546 0.8048 0.1833
H39 H 0.4578 0.6958 0.1822
C37 C 0.6782(6) 0.7781(3) 0.17828(17)
H40 H 0.7426 0.8282 0.2025
H41 H 0.7206 0.7205 0.1788
C38 C 0.6883(5) 0.8948(3) 0.11996(17)
C39 C 0.7172(5) 0.9246(3) 0.06707(16)
C40 C 0.6728(5) 1.0068(3) 0.05847(17)
H42 H 0.6204 1.0381 0.0844
C41 C 1.1442(6) 1.3965(3) 0.0019(2)
H43 H 1.2204 1.4023 0.0287
C42 C 1.1925(7) 1.4046(4) -0.0469(2)
H44 H 1.2999 1.4157 -0.0539
C43 C 1.0830(8) 1.3965(4) -0.0855(2)
H45 H 1.1133 1.4029 -0.1197
C44 C 0.9283(7) 1.3790(4) -0.0742(2)
H46 H 0.8510 1.3724 -0.1008
C45 C 0.8853(5) 1.3710(3) -0.02393(17)
C46 C 0.7186(6) 1.3506(3) -0.00993(18)
H47 H 0.6713 1.4044 -0.0159
H48 H 0.7139 1.3446 0.0272
C47 C 0.6227(6) 1.2618(3) -0.03990(18)
H49 H 0.5143 1.2541 -0.0287
H50 H 0.6217 1.2696 -0.0768
C48 C 0.6550(6) 1.1370(3) 0.00999(18)
C49 C 0.7032(5) 1.0446(3) 0.01287(17)
C50 C 0.7801(5) 0.9980(3) -0.02495(17)
H51 H 0.8032 1.0236 -0.0562
C51 C 1.1844(5) 0.5922(3) -0.19494(18)
H52 H 1.2256 0.5515 -0.1755
C52 C 1.2120(6) 0.5876(4) -0.24684(19)
H53 H 1.2669 0.5431 -0.2630
C53 C 1.1579(7) 0.6492(4) -0.27419(19)
H54 H 1.1785 0.6500 -0.3096
C54 C 1.0729(7) 0.7101(4) -0.2497(2)
H55 H 1.0341 0.7528 -0.2683
C55 C 1.0440(5) 0.7090(3) -0.19790(17)
C56 C 0.9499(6) 0.7730(3) -0.16974(19)
H56 H 0.8730 0.7361 -0.1491
H57 H 0.8921 0.7994 -0.1950
C57 C 1.0512(6) 0.8532(3) -0.13440(19)
H58 H 1.1290 0.8283 -0.1156
H59 H 1.1077 0.8997 -0.1554
C58 C 0.9095(6) 0.8618(3) -0.05541(18)
C59 C 0.8228(5) 0.9148(3) -0.01724(17)
C60 C 0.7919(5) 0.8778(3) 0.02870(18)
H60 H 0.8218 0.8208 0.0340
Ag1A Ag 0.04008(4) 0.59816(3) 0.399144(13)
Ag3A Ag 0.94165(5) 1.35365(3) 0.090755(13)
N3A N -0.0091(4) 1.3877(2) 0.51938(14)
N9A N 1.0062(4) 0.6195(2) -0.01360(14)
Cl1 Cl 0.57305(13) 0.46966(8) 0.37906(4)
O7 O 0.5429(8) 0.3763(3) 0.3916(2)
O8 O 0.5174(6) 0.5309(3) 0.41747(18)
O9 O 0.5000(6) 0.4712(4) 0.33059(19)
O10 O 0.7359(5) 0.5001(4) 0.3751(2)
Cl2 Cl 0.46317(14) 0.49299(8) 0.12547(4)
O11 O 0.5246(5) 0.5215(3) 0.17759(14)
O12 O 0.3080(5) 0.4393(3) 0.12769(16)
O13 O 0.4600(6) 0.5755(3) 0.10141(16)
O14 O 0.5601(5) 0.4374(3) 0.09847(16)
Cl3 Cl 0.13308(16) 0.89052(9) 0.16743(5)
O15 O 0.2841(5) 0.9055(4) 0.1459(2)
O16 O 0.0336(6) 0.9216(6) 0.1369(4)
O17 O 0.0659(10) 0.7996(6) 0.1722(5)
O18 O 0.1650(16) 0.9224(13) 0.2184(4)
loop_
_geom_bond_atom_site_label_1
_geom_bond_atom_site_label_2
_geom_bond_site_symmetry_1
_geom_bond_site_symmetry_2
Ag1 N1 1_555 1_555
Ag2 O4 1_555 1_555
Ag3 O6 1_555 1_555
O1 C8 1_555 1_555
O2 C18 1_555 1_555
O3 C28 1_555 1_555
O4 C38 1_555 1_555
O5 C48 1_555 1_555
O6 C58 1_555 1_555
N1 C1 1_555 1_555
N2 H1 1_555 1_555
N3 C11 1_555 1_555
N4 H2 1_555 1_555
N5 Ag2 1_555 1_555
N6 H3 1_555 1_555
N7 Ag2 1_555 1_555
N8 H4 1_555 1_555
N9 C41 1_555 1_555
N10 H5 1_555 1_555
N11 Ag3 1_555 1_555
N12 H6 1_555 1_555
C1 H7 1_555 1_555
C2 C1 1_555 1_555
H8 C2 1_555 1_555
C3 C2 1_555 1_555
H9 C3 1_555 1_555
C4 C3 1_555 1_555
H10 C4 1_555 1_555
C5 N1 1_555 1_555
C6 C5 1_555 1_555
H11 C6 1_555 1_555
H12 C6 1_555 1_555
C7 N2 1_555 1_555
H13 C7 1_555 1_555
H14 C7 1_555 1_555
C8 N2 1_555 1_555
C9 C8 1_555 1_555
C10 C9 1_555 1_555
H15 C10 1_555 1_555
C11 H16 1_555 1_555
C12 C11 1_555 1_555
H17 C12 1_555 1_555
C13 C12 1_555 1_555
H18 C13 1_555 1_555
C14 C13 1_555 1_555
H19 C14 1_555 1_555
C15 N3 1_555 1_555
C16 C15 1_555 1_555
H20 C16 1_555 1_555
H21 C16 1_555 1_555
C17 N4 1_555 1_555
H22 C17 1_555 1_555
H23 C17 1_555 1_555
C18 N4 1_555 1_555
C19 C10 1_555 1_555
C20 C19 1_555 1_555
H24 C20 1_555 1_555
C21 N5 1_555 1_555
H25 C21 1_555 1_555
C22 C21 1_555 1_555
H26 C22 1_555 1_555
C23 C22 1_555 1_555
H27 C23 1_555 1_555
C24 C23 1_555 1_555
H28 C24 1_555 1_555
C25 N5 1_555 1_555
C26 C25 1_555 1_555
H29 C26 1_555 1_555
H30 C26 1_555 1_555
C27 N6 1_555 1_555
H31 C27 1_555 1_555
H32 C27 1_555 1_555
C28 N6 1_555 1_555
C29 C20 1_555 1_555
C30 C9 1_555 1_555
H33 C30 1_555 1_555
C31 N7 1_555 1_555
H34 C31 1_555 1_555
C32 C31 1_555 1_555
H35 C32 1_555 1_555
C33 C32 1_555 1_555
H36 C33 1_555 1_555
C34 C33 1_555 1_555
H37 C34 1_555 1_555
C35 N7 1_555 1_555
C36 C35 1_555 1_555
H38 C36 1_555 1_555
H39 C36 1_555 1_555
C37 N8 1_555 1_555
H40 C37 1_555 1_555
H41 C37 1_555 1_555
C38 N8 1_555 1_555
C39 C38 1_555 1_555
C40 C39 1_555 1_555
H42 C40 1_555 1_555
C41 H43 1_555 1_555
C42 C41 1_555 1_555
H44 C42 1_555 1_555
C43 C42 1_555 1_555
H45 C43 1_555 1_555
C44 C43 1_555 1_555
H46 C44 1_555 1_555
C45 N9 1_555 1_555
C46 C45 1_555 1_555
H47 C46 1_555 1_555
H48 C46 1_555 1_555
C47 N10 1_555 1_555
H49 C47 1_555 1_555
H50 C47 1_555 1_555
C48 N10 1_555 1_555
C49 C40 1_555 1_555
C50 C49 1_555 1_555
H51 C50 1_555 1_555
C51 N11 1_555 1_555
H52 C51 1_555 1_555
C52 C51 1_555 1_555
H53 C52 1_555 1_555
C53 C52 1_555 1_555
H54 C53 1_555 1_555
C54 C53 1_555 1_555
H55 C54 1_555 1_555
C55 N11 1_555 1_555
C56 C55 1_555 1_555
H56 C56 1_555 1_555
H57 C56 1_555 1_555
C57 N12 1_555 1_555
H58 C57 1_555 1_555
H59 C57 1_555 1_555
C58 N12 1_555 1_555
C59 C50 1_555 1_555
C60 C39 1_555 1_555
H60 C60 1_555 1_555
Cl1 O7 1_555 1_555
O8 Cl1 1_555 1_555
O9 Cl1 1_555 1_555
O10 Cl1 1_555 1_555
Cl2 O11 1_555 1_555
O12 Cl2 1_555 1_555
O13 Cl2 1_555 1_555
O14 Cl2 1_555 1_555
Cl3 O15 1_555 1_555
O16 Cl3 1_555 1_555
O17 Cl3 1_555 1_555
O18 Cl3 1_555 1_555
Ag1A N3 1_555 1_555
Ag3A N9 1_555 1_555
N3A Ag1 1_555 1_555
N9A Ag3 1_555 1_555
C4 C5 1_555 1_555
C6 C7 1_555 1_555
C14 C15 1_555 1_555
C16 C17 1_555 1_555
C18 C19 1_555 1_555
C24 C25 1_555 1_555
C26 C27 1_555 1_555
C28 C29 1_555 1_555
C29 C30 1_555 1_555
C34 C35 1_555 1_555
C36 C37 1_555 1_555
C44 C45 1_555 1_555
C46 C47 1_555 1_555
C48 C49 1_555 1_555
C54 C55 1_555 1_555
C56 C57 1_555 1_555
C58 C59 1_555 1_555
C59 C60 1_555 1_555

#END
