
#######################################################################
#
#                 Cambridge Crystallographic Data Centre
#                                CCDC 
#
#######################################################################
#
# If this CIF has been generated from an entry in the Cambridge 
# Structural Database, then it will include bibliographic, chemical, 
# crystal, experimental, refinement or atomic coordinate data resulting 
# from the CCDC's data processing and validation procedures.
#
#######################################################################

data_TOHPOX
_symmetry_cell_setting           monoclinic
_symmetry_space_group_name_H-M   'P 21/c'
_symmetry_Int_Tables_number      14
_space_group_name_Hall           '-P 2ybc'
loop_
_symmetry_equiv_pos_site_id
_symmetry_equiv_pos_as_xyz
1 x,y,z
2 -x,1/2+y,1/2-z
3 -x,-y,-z
4 x,1/2-y,1/2+z
_cell_length_a                   9.4143(3)
_cell_length_b                   27.4271(9)
_cell_length_c                   17.5489(5)
_cell_angle_alpha                90
_cell_angle_beta                 119.429(2)
_cell_angle_gamma                90
_cell_volume                     3946.56
loop_
_atom_site_label
_atom_site_type_symbol
_atom_site_fract_x
_atom_site_fract_y
_atom_site_fract_z
Zn1 Zn 0.64170(5) 0.218874(16) 0.47175(3)
O1 O 0.5097(4) 0.27811(10) 0.4569(2)
O2 O 0.7270(4) 0.29993(12) 0.5814(2)
O3 O 0.3009(4) 0.68617(10) 0.91878(18)
O4 O 0.2282(5) 0.61897(14) 0.9585(2)
O5 O -0.4821(4) 0.68086(11) 0.13046(18)
O6 O -0.3570(4) 0.65261(15) 0.0594(2)
N1 N 0.8227(4) 0.23685(13) 0.4464(2)
N2 N 0.9934(5) 0.24322(15) 0.3963(3)
N3 N 1.2970(6) 0.29168(16) 0.1752(3)
N4 N 1.3744(5) 0.29832(17) 0.0801(3)
H1 H 1.3859 0.3089 0.0361
C1 C 0.5890(5) 0.30785(16) 0.5197(3)
C2 C 0.5047(5) 0.35534(14) 0.5173(3)
C3 C 0.5808(5) 0.38836(15) 0.5840(3)
H2 H 0.6844 0.3815 0.6301
C4 C 0.5062(5) 0.43143(16) 0.5839(3)
H3 H 0.5615 0.4537 0.6289
C5 C 0.3489(5) 0.44231(15) 0.5174(2)
C6 C 0.2743(5) 0.40935(16) 0.4506(3)
H4 H 0.1707 0.4161 0.4045
C7 C 0.3503(5) 0.36593(16) 0.4505(3)
H5 H 0.2965 0.3439 0.4049
C8 C 0.2624(5) 0.64172(16) 0.9090(3)
C9 C 0.2609(5) 0.61698(15) 0.8321(3)
C10 C 0.2339(6) 0.56702(17) 0.8178(3)
H6 H 0.2198 0.5479 0.8574
C11 C 0.2278(6) 0.54549(16) 0.7440(3)
H7 H 0.2137 0.5119 0.7363
C12 C 0.2424(5) 0.57302(16) 0.6827(3)
C13 C 0.2704(6) 0.62202(16) 0.6979(3)
H8 H 0.2831 0.6410 0.6577
C14 C 0.2804(6) 0.64396(15) 0.7708(3)
H9 H 0.3004 0.6773 0.7792
C15 C -0.3754(5) 0.65473(16) 0.1250(3)
C16 C -0.2628(5) 0.62707(15) 0.2044(3)
C17 C -0.1338(5) 0.60062(16) 0.2072(3)
H10 H -0.1234 0.5985 0.1573
C18 C -0.0207(5) 0.57743(16) 0.2834(3)
H11 H 0.0654 0.5603 0.2842
C19 C -0.0355(5) 0.57963(14) 0.3588(3)
C20 C -0.1684(6) 0.60468(16) 0.3542(3)
H12 H -0.1824 0.6057 0.4031
C21 C -0.2791(5) 0.62797(16) 0.2788(3)
H13 H -0.3662 0.6446 0.2776
C22 C 0.2685(5) 0.48804(14) 0.5186(3)
C23 C 0.2930(5) 0.50848(16) 0.5978(3)
H14 H 0.3606 0.4925 0.6501
C24 C 0.2196(5) 0.55156(15) 0.6001(3)
C25 C 0.1167(5) 0.57460(15) 0.5218(3)
H15 H 0.0679 0.6039 0.5228
C26 C 0.0845(5) 0.55499(15) 0.4419(3)
C27 C 0.1601(5) 0.51245(14) 0.4409(3)
H16 H 0.1392 0.4994 0.3875
C28 C 0.7947(7) 0.1746(2) 0.3365(4)
H17 H 0.7865 0.1801 0.2804
H18 H 0.6880 0.1689 0.3290
H19 H 0.8627 0.1468 0.3638
C29 C 0.8671(6) 0.21818(16) 0.3924(3)
C30 C 0.9245(6) 0.27643(17) 0.4861(3)
H20 H 0.9216 0.2968 0.5277
C31 C 1.0268(7) 0.28034(18) 0.4546(4)
H21 H 1.1068 0.3041 0.4696
C32 C 1.0800(8) 0.2357(2) 0.3477(4)
H22 H 1.0699 0.2019 0.3298
H23 H 1.1949 0.2427 0.3854
C33 C 1.0156(8) 0.2672(2) 0.2698(4)
H24 H 1.0251 0.3009 0.2886
H25 H 0.9004 0.2603 0.2332
C34 C 1.0974(9) 0.2622(2) 0.2148(4)
H26 H 1.1493 0.2304 0.2263
H27 H 1.0139 0.2629 0.1537
C35 C 1.2168(10) 0.2984(2) 0.2284(5)
H28 H 1.2997 0.2982 0.2897
H29 H 1.1648 0.3301 0.2154
C36 C 1.4100(7) 0.25509(19) 0.1923(4)
H30 H 1.4459 0.2319 0.2365
C37 C 1.4564(6) 0.2599(2) 0.1324(3)
H31 H 1.5320 0.2404 0.1271
C38 C 1.2755(6) 0.3173(2) 0.1049(3)
C39 C 1.1706(9) 0.3586(3) 0.0660(5)
H32 H 1.0710 0.3540 0.0676
H33 H 1.1464 0.3620 0.0063
H34 H 1.2241 0.3876 0.0979
Zn1A Zn -0.64170(5) 0.718874(16) 0.02825(3)
Zn1A_2 Zn 0.35830(5) 0.718874(16) 1.02825(3)
O3A O 0.6991(4) 0.18617(10) 0.58122(18)
O5A O 0.4821(4) 0.18086(11) 0.36954(18)
loop_
_geom_bond_atom_site_label_1
_geom_bond_atom_site_label_2
_geom_bond_site_symmetry_1
_geom_bond_site_symmetry_2
Zn1 O1 1_555 1_555
O1 C1 1_555 1_555
O2 C1 1_555 1_555
O3 C8 1_555 1_555
O4 C8 1_555 1_555
O5 C15 1_555 1_555
O6 C15 1_555 1_555
N1 Zn1 1_555 1_555
N2 C29 1_555 1_555
N3 C35 1_555 1_555
N4 H1 1_555 1_555
C1 C2 1_555 1_555
C2 C3 1_555 1_555
C3 H2 1_555 1_555
C4 C3 1_555 1_555
H3 C4 1_555 1_555
C5 C4 1_555 1_555
C6 C5 1_555 1_555
H4 C6 1_555 1_555
C7 C2 1_555 1_555
H5 C7 1_555 1_555
C8 C9 1_555 1_555
C9 C10 1_555 1_555
C10 H6 1_555 1_555
C11 C10 1_555 1_555
H7 C11 1_555 1_555
C12 C11 1_555 1_555
C13 C12 1_555 1_555
H8 C13 1_555 1_555
C14 C9 1_555 1_555
H9 C14 1_555 1_555
C15 C16 1_555 1_555
C16 C17 1_555 1_555
C17 H10 1_555 1_555
C18 C17 1_555 1_555
H11 C18 1_555 1_555
C19 C18 1_555 1_555
C20 C19 1_555 1_555
H12 C20 1_555 1_555
C21 C16 1_555 1_555
H13 C21 1_555 1_555
C22 C5 1_555 1_555
C23 C22 1_555 1_555
H14 C23 1_555 1_555
C24 C12 1_555 1_555
C25 C24 1_555 1_555
H15 C25 1_555 1_555
C26 C19 1_555 1_555
C27 C22 1_555 1_555
H16 C27 1_555 1_555
C28 H17 1_555 1_555
H18 C28 1_555 1_555
H19 C28 1_555 1_555
C29 N1 1_555 1_555
C30 N1 1_555 1_555
H20 C30 1_555 1_555
C31 N2 1_555 1_555
H21 C31 1_555 1_555
C32 N2 1_555 1_555
H22 C32 1_555 1_555
H23 C32 1_555 1_555
C33 C32 1_555 1_555
H24 C33 1_555 1_555
H25 C33 1_555 1_555
C34 C33 1_555 1_555
H26 C34 1_555 1_555
H27 C34 1_555 1_555
C35 C34 1_555 1_555
H28 C35 1_555 1_555
H29 C35 1_555 1_555
C36 N3 1_555 1_555
H30 C36 1_555 1_555
C37 N4 1_555 1_555
H31 C37 1_555 1_555
C38 N3 1_555 1_555
C39 C38 1_555 1_555
H32 C39 1_555 1_555
H33 C39 1_555 1_555
H34 C39 1_555 1_555
Zn1A O5 1_555 1_555
Zn1A_2 O3 1_555 1_555
O3A Zn1 1_555 1_555
O5A Zn1 1_555 1_555
N4 C38 1_555 1_555
C6 C7 1_555 1_555
C13 C14 1_555 1_555
C20 C21 1_555 1_555
C23 C24 1_555 1_555
C25 C26 1_555 1_555
C26 C27 1_555 1_555
C28 C29 1_555 1_555
C30 C31 1_555 1_555
C36 C37 1_555 1_555

#END
