
#######################################################################
#
#                 Cambridge Crystallographic Data Centre
#                                CCDC 
#
#######################################################################
#
# If this CIF has been generated from an entry in the Cambridge 
# Structural Database, then it will include bibliographic, chemical, 
# crystal, experimental, refinement or atomic coordinate data resulting 
# from the CCDC's data processing and validation procedures.
#
#######################################################################

data_TOHPUC
_symmetry_cell_setting           tetragonal
_symmetry_space_group_name_H-M   'P 43 21 2'
_symmetry_Int_Tables_number      96
_space_group_name_Hall           'P 4nw 2abw'
loop_
_symmetry_equiv_pos_site_id
_symmetry_equiv_pos_as_xyz
1 x,y,z
2 -x,-y,1/2+z
3 1/2+x,1/2-y,1/4-z
4 1/2-x,1/2+y,3/4-z
5 -y,-x,1/2-z
6 y,x,-z
7 1/2+y,1/2-x,1/4+z
8 1/2-y,1/2+x,3/4+z
_cell_length_a                   17.983(3)
_cell_length_b                   17.983(3)
_cell_length_c                   11.083(5)
_cell_angle_alpha                90
_cell_angle_beta                 90
_cell_angle_gamma                90
_cell_volume                     3584.11
loop_
_atom_site_label
_atom_site_type_symbol
_atom_site_fract_x
_atom_site_fract_y
_atom_site_fract_z
V1 V 0.96067(2) 0.03933(2) 0.7500
V2 V 0.96264(3) 0.44031(2) 0.84543(4)
V3 V 0.93287(3) -0.06713(3) 1.0000
Ni1 Ni 0.97069(2) 0.235396(19) 0.82781(3)
C1 C 1.12794(18) 0.29846(19) 0.8029(3)
H1 H 1.1098 0.3460 0.7876
C2 C 1.20038(19) 0.28056(18) 0.8099(3)
H2 H 1.2406 0.3124 0.7997
C3 C 1.13198(17) 0.18270(18) 0.8417(3)
H3 H 1.1181 0.1340 0.8585
C4 C 1.26995(17) 0.15959(18) 0.8496(3)
H4 H 1.2779 0.1315 0.7760
H5 H 1.2615 0.1244 0.9144
C5 C 0.97113(16) 0.28342(16) 1.0904(2)
H6 H 0.9738 0.3332 1.0680
C6 C 0.9647(2) 0.16483(17) 1.0839(3)
H7 H 0.9618 0.1164 1.0548
C7 C 0.9665(2) 0.18390(18) 1.2018(3)
H8 H 0.9654 0.1518 1.2675
C8 C 1.47491(17) 0.19337(19) 0.9372(3)
H9 H 1.5141 0.1570 0.9488
H10 H 1.4887 0.2241 0.8688
C9 C 1.40330(17) 0.15268(17) 0.9072(3)
H11 H 1.3894 0.1219 0.9755
H12 H 1.4121 0.1200 0.8391
C10 C 1.33890(18) 0.20414(18) 0.8771(3)
H13 H 1.3294 0.2370 0.9448
H14 H 1.3518 0.2345 0.8079
N1 N 1.20301(14) 0.20656(14) 0.8350(2)
N2 N 1.08484(14) 0.23732(14) 0.8213(2)
N3 N 0.96757(14) 0.22755(12) 1.0133(2)
N4 N 1.47043(14) 0.24049(13) 1.0449(2)
O1 O 0.94808(15) -0.15665(12) 1.0001(2)
O2 O 0.97408(11) -0.02745(12) 0.86723(17)
O4 O 0.97064(13) 0.12299(11) 0.80553(19)
O5 O 0.96409(13) 0.24846(11) 0.63960(18)
O6 O 1.03304(10) 0.47927(10) 0.74834(17)
O7 O 0.85508(12) 0.23268(15) 0.8232(2)
O8 O 0.88031(11) 0.46869(13) 0.80311(18)
O9 O 0.96625(12) 0.34931(10) 0.83921(17)
H17 H 0.9780(17) 0.2911(7) 0.616(3)
H18 H 0.9925(15) 0.2163(11) 0.607(3)
H19 H 0.8406(16) 0.2695(13) 0.783(3)
H20 H 0.8214(12) 0.2147(16) 0.866(2)
V2G V 1.05969(2) 0.46264(3) 0.59543(4)
V2F V 0.94031(2) 0.53736(3) 1.09543(4)
V2D V 0.55969(2) 0.03736(3) 0.65457(4)
V3A V 1.06713(3) 0.06713(3) 0.5000
Ni1D Ni 0.764604(19) 0.02931(2) 0.67219(3)
Ni1B Ni 1.47069(2) 0.264604(19) 1.42219(3)
Ni1B_2 Ni 0.47069(2) 0.264604(19) 1.42219(3)
C1B C 0.62794(18) 0.20154(19) 1.4471(3)
H1B H 0.6098 0.1540 1.4624
C2B C 0.70038(19) 0.21944(18) 1.4401(3)
H2B H 0.7406 0.1876 1.4503
C3B C 0.63198(17) 0.31730(18) 1.4083(3)
H3B H 0.6181 0.3660 1.3915
C4B C 0.76995(17) 0.34041(18) 1.4004(3)
H4B H 0.7779 0.3685 1.4740
H5B H 0.7615 0.3756 1.3356
C5B C 1.47113(16) 0.21658(16) 1.1596(2)
H6B H 1.4738 0.1668 1.1820
C6B C 1.4647(2) 0.33517(17) 1.1661(3)
H7B H 1.4618 0.3836 1.1952
C7B C 1.4665(2) 0.31610(18) 1.0482(3)
H8B H 1.4654 0.3482 0.9825
C8B C 0.97491(17) 0.30663(19) 1.3128(3)
H9B H 1.0141 0.3430 1.3012
H10B H 0.9887 0.2759 1.3812
C9B C 0.90330(17) 0.34732(17) 1.3428(3)
H11B H 0.8894 0.3781 1.2745
H12B H 0.9121 0.3800 1.4109
C10B C 0.83890(18) 0.29586(18) 1.3729(3)
H13B H 0.8294 0.2630 1.3052
H14B H 0.8518 0.2655 1.4421
N1B N 0.70301(14) 0.29344(14) 1.4150(2)
N2B N 0.58484(14) 0.26268(14) 1.4287(2)
N2D N 0.76268(14) -0.08484(14) 0.6787(2)
N3B N 1.46757(14) 0.27245(12) 1.2367(2)
N3D N 0.77245(12) 0.03243(14) 0.4867(2)
N4B N 0.97043(14) 0.25951(13) 1.2051(2)
O1E O 0.84335(12) -0.05192(15) 0.9999(2)
O2D O 1.02745(12) 0.02592(11) 0.63277(17)
O2E O 0.97255(12) -0.02592(11) 1.13277(17)
O4D O 0.87701(11) 0.02936(13) 0.69447(19)
O5D O 0.75154(11) 0.03591(13) 0.86040(18)
O6F O 0.97927(10) 0.46696(10) 0.99834(17)
O6B O 0.53304(10) 0.02073(10) 0.50166(17)
O6D O 0.52073(10) -0.03304(10) 0.75166(17)
O7D O 0.76732(15) 0.14492(12) 0.6768(2)
O8D O 0.53131(13) 0.11969(11) 0.69689(18)
O9D O 0.65069(10) 0.03375(12) 0.66079(17)
H17D H 0.7089(7) 0.0220(17) 0.884(3)
H18D H 0.7837(11) 0.0075(15) 0.893(3)
H19D H 0.7305(13) 0.1594(16) 0.717(3)
H20D H 0.7853(16) 0.1786(12) 0.634(2)
O3 O 0.78709(17) 0.35116(16) 0.7170(3)
H15 H 0.8129(12) 0.3833(13) 0.753(3)
H16 H 0.7421(7) 0.3647(17) 0.713(3)
loop_
_geom_bond_atom_site_label_1
_geom_bond_atom_site_label_2
_geom_bond_site_symmetry_1
_geom_bond_site_symmetry_2
V1 O2 1_555 1_555
V2 O6 1_555 1_555
V3 O1 1_555 1_555
Ni1 N2 1_555 1_555
C1 H1 1_555 1_555
C2 C1 1_555 1_555
H2 C2 1_555 1_555
C3 H3 1_555 1_555
C4 H4 1_555 1_555
H5 C4 1_555 1_555
C5 H6 1_555 1_555
C6 H7 1_555 1_555
C7 C6 1_555 1_555
H8 C7 1_555 1_555
C8 H9 1_555 1_555
H10 C8 1_555 1_555
C9 C8 1_555 1_555
H11 C9 1_555 1_555
H12 C9 1_555 1_555
C10 C4 1_555 1_555
H13 C10 1_555 1_555
H14 C10 1_555 1_555
N1 C2 1_555 1_555
N2 C1 1_555 1_555
N3 Ni1 1_555 1_555
N4 C8 1_555 1_555
O2 V3 1_555 1_555
O3 H15 1_555 1_555
O4 V1 1_555 1_555
O5 Ni1 1_555 1_555
O6 V2G 1_555 1_555
O7 Ni1 1_555 1_555
O8 V2 1_555 1_555
O9 V2 1_555 1_555
H16 O3 1_555 1_555
H17 O5 1_555 1_555
H18 O5 1_555 1_555
H19 O7 1_555 1_555
H20 O7 1_555 1_555
V2F O6F 1_555 1_555
V2D O6B 1_555 1_555
V3A O2D 1_555 1_555
Ni1D N2D 1_555 1_555
Ni1B N3B 1_555 1_555
Ni1B_2 N2B 1_555 1_555
C1B H1B 1_555 1_555
C2B C1B 1_555 1_555
H2B C2B 1_555 1_555
C3B H3B 1_555 1_555
C4B H4B 1_555 1_555
H5B C4B 1_555 1_555
C5B N4 1_555 1_555
H6B C5B 1_555 1_555
C6B H7B 1_555 1_555
C7B N4 1_555 1_555
H8B C7B 1_555 1_555
C8B H9B 1_555 1_555
H10B C8B 1_555 1_555
C9B C8B 1_555 1_555
H11B C9B 1_555 1_555
H12B C9B 1_555 1_555
C10B C4B 1_555 1_555
H13B C10B 1_555 1_555
H14B C10B 1_555 1_555
N1B C2B 1_555 1_555
N2B C1B 1_555 1_555
N3B C5B 1_555 1_555
N3D Ni1D 1_555 1_555
N4B C5 1_555 1_555
O1E V3 1_555 1_555
O2D V1 1_555 1_555
O2E V3 1_555 1_555
O4D V1 1_555 1_555
O5D Ni1D 1_555 1_555
O6F V2 1_555 1_555
O6D V2D 1_555 1_555
O7D Ni1D 1_555 1_555
O8D V2D 1_555 1_555
O9D V2D 1_555 1_555
H17D O5D 1_555 1_555
H18D O5D 1_555 1_555
H19D O7D 1_555 1_555
H20D O7D 1_555 1_555
Ni1 O4 1_555 1_555
Ni1 O9 1_555 1_555
C3 N1 1_555 1_555
C3 N2 1_555 1_555
C4 N1 1_555 1_555
C5 N3 1_555 1_555
C6 N3 1_555 1_555
C7 N4B 1_555 1_555
C9 C10 1_555 1_555
Ni1D O4D 1_555 1_555
Ni1D O9D 1_555 1_555
C3B N1B 1_555 1_555
C3B N2B 1_555 1_555
C4B N1B 1_555 1_555
C6B C7B 1_555 1_555
C6B N3B 1_555 1_555
C8B N4B 1_555 1_555
C9B C10B 1_555 1_555

#END
