
#######################################################################
#
#                 Cambridge Crystallographic Data Centre
#                                CCDC 
#
#######################################################################
#
# If this CIF has been generated from an entry in the Cambridge 
# Structural Database, then it will include bibliographic, chemical, 
# crystal, experimental, refinement or atomic coordinate data resulting 
# from the CCDC's data processing and validation procedures.
#
#######################################################################

data_TOHRIS
_symmetry_cell_setting           triclinic
_symmetry_space_group_name_H-M   'P -1'
_symmetry_Int_Tables_number      2
_space_group_name_Hall           '-P 1'
loop_
_symmetry_equiv_pos_site_id
_symmetry_equiv_pos_as_xyz
1 x,y,z
2 -x,-y,-z
_cell_length_a                   10.5635(10)
_cell_length_b                   12.3559(12)
_cell_length_c                   13.5021(13)
_cell_angle_alpha                115.4480(10)
_cell_angle_beta                 107.4980(10)
_cell_angle_gamma                92.5230(10)
_cell_volume                     1486.68
loop_
_atom_site_label
_atom_site_type_symbol
_atom_site_fract_x
_atom_site_fract_y
_atom_site_fract_z
Ag1 Ag 0.430980(13) -0.455850(11) 0.131820(10)
Cr1 Cr 0.06119(2) -1.15942(2) -0.26240(2)
S1 S 0.19149(5) -0.26398(4) 0.24098(4)
O1 O 0.86903(11) -0.15630(10) 0.68493(9)
O2 O 1.03924(11) -0.28776(10) 0.58229(9)
O3 O 0.09149(11) -1.03507(10) -0.10419(9)
O4 O 0.09809(11) -1.03270(10) -0.30524(9)
O5 O 0.02120(11) -0.28133(10) -0.21471(9)
O6 O 0.25355(11) -0.16198(10) -0.20940(10)
O7 O 0.28005(18) -0.34911(16) 0.24153(15)
O8 O 0.05259(15) -0.31183(13) 0.21347(13)
O9 O 0.21170(15) -0.19212(14) 0.18509(13)
N1 N 0.61521(16) -0.39494(15) 0.28564(13)
N2 N 0.29116(16) -0.63634(14) 0.01027(14)
N3 N 0.39459(16) -0.36620(15) 0.01387(14)
F1 F 0.17267(13) -0.06479(11) 0.41120(11)
F2 F 0.37503(12) -0.09639(13) 0.43660(11)
F3 F 0.23293(17) -0.20348(14) 0.46117(11)
C1 C 0.2454(2) -0.15153(18) 0.39526(17)
C2 C 0.64217(17) -0.18499(17) 0.56797(16)
H2 H 0.6371 -0.1325 0.6449
H3 H 0.5763 -0.2620 0.5299
H4 H 0.6216 -0.1434 0.5192
C3 C 0.78158(15) -0.21105(14) 0.58314(14)
C4 C 0.80987(16) -0.29591(14) 0.48461(13)
C5 C 0.93623(16) -0.33158(13) 0.48975(13)
C6 C 0.95310(19) -0.42701(16) 0.38206(15)
H5 H 0.9713 -0.3891 0.3359
H6 H 0.8699 -0.4900 0.3349
H7 H 1.0291 -0.4645 0.4048
C7 C 0.70195(17) -0.35154(16) 0.37401(14)
C8 C 0.18347(17) -0.85835(15) 0.07591(14)
H8 H 0.1038 -0.8723 0.0950
H9 H 0.2128 -0.7705 0.1050
H10 H 0.2570 -0.8895 0.1130
C9 C 0.14827(14) -0.92350(14) -0.05393(13)
C10 C 0.17680(15) -0.86334(14) -0.11595(14)
C11 C 0.14556(15) -0.91941(14) -0.23906(14)
C12 C 0.16937(18) -0.84487(16) -0.29647(16)
H11 H 0.1591 -0.8993 -0.3779
H12 H 0.2613 -0.7949 -0.2542
H13 H 0.1034 -0.7914 -0.2950
C13 C 0.23845(16) -0.73686(15) -0.04848(15)
C14 C 0.04225(18) -0.38923(15) -0.10497(15)
H14 H 0.0448 -0.3366 -0.0253
H15 H 0.0942 -0.4529 -0.1045
H16 H -0.0519 -0.4275 -0.1571
C15 C 0.10281(16) -0.31388(13) -0.14776(13)
C16 C 0.24553(16) -0.28126(14) -0.11243(13)
C17 C 0.31348(16) -0.20821(14) -0.14561(13)
C18 C 0.46532(17) -0.18163(18) -0.10291(17)
H17 H 0.4960 -0.1411 -0.1424
H18 H 0.4980 -0.2584 -0.1204
H19 H 0.5012 -0.1280 -0.0180
C19 C 0.32751(17) -0.32811(15) -0.04133(15)
Cr1_2 Cr 1.06119(2) -0.15942(2) 0.73760(2)
Cr1_3 Cr 0.06119(2) -0.15942(2) -0.26240(2)
O1_2 O -0.13097(11) -1.15630(10) -0.31507(9)
O2_2 O 0.03924(11) -1.28776(10) -0.41771(9)
O5_2 O 0.02120(11) -1.28133(10) -0.21471(9)
O6_2 O 0.25355(11) -1.16198(10) -0.20940(10)
O10 O 0.39726(13) -0.03632(13) 0.16573(12)
H1 H 0.3311 -0.0801 0.1619
C20 C 0.51919(19) -0.0494(2) 0.23660(18)
H20 H 0.5959 0.0060 0.2455
H21 H 0.5311 -0.1340 0.1993
H22 H 0.5148 -0.0291 0.3139
C21 C 0.4589(5) -0.5522(4) 0.3811(3)
H23 H 0.4313 -0.5894 0.2981
C22 C 0.5845(4) -0.5660(3) 0.4466(3)
H24 H 0.6408 -0.6113 0.4081
C23 C 0.3771(4) -0.4871(4) 0.4342(3)
H25 H 0.2938 -0.4785 0.3887
C21A C 0.5411(5) -0.4478(4) 0.6189(3)
H23A H 0.5687 -0.4106 0.7019
C22A C 0.4155(4) -0.4340(3) 0.5534(3)
H24A H 0.3592 -0.3887 0.5919
C23A C 0.6229(4) -0.5129(4) 0.5658(3)
H25A H 0.7062 -0.5215 0.6113
loop_
_geom_bond_atom_site_label_1
_geom_bond_atom_site_label_2
_geom_bond_site_symmetry_1
_geom_bond_site_symmetry_2
Ag1 O7 1_555 1_555
Cr1 O3 1_555 1_555
S1 O7 1_555 1_555
O1 C3 1_555 1_555
O2 C5 1_555 1_555
O3 C9 1_555 1_555
O4 Cr1 1_555 1_555
O5 C15 1_555 1_555
O6 C17 1_555 1_555
O8 S1 1_555 1_555
O9 S1 1_555 1_555
O10 H1 1_555 1_555
N1 Ag1 1_555 1_555
N2 Ag1 1_555 1_555
N3 Ag1 1_555 1_555
F1 C1 1_555 1_555
F2 C1 1_555 1_555
F3 C1 1_555 1_555
C1 S1 1_555 1_555
C2 H2 1_555 1_555
H3 C2 1_555 1_555
H4 C2 1_555 1_555
C3 C2 1_555 1_555
C4 C3 1_555 1_555
C5 C4 1_555 1_555
C6 C5 1_555 1_555
H5 C6 1_555 1_555
H6 C6 1_555 1_555
H7 C6 1_555 1_555
C7 N1 1_555 1_555
C8 H8 1_555 1_555
H9 C8 1_555 1_555
H10 C8 1_555 1_555
C9 C8 1_555 1_555
C10 C9 1_555 1_555
C11 O4 1_555 1_555
C12 C11 1_555 1_555
H11 C12 1_555 1_555
H12 C12 1_555 1_555
H13 C12 1_555 1_555
C13 N2 1_555 1_555
C14 H14 1_555 1_555
H15 C14 1_555 1_555
H16 C14 1_555 1_555
C15 C14 1_555 1_555
C16 C15 1_555 1_555
C17 C16 1_555 1_555
C18 C17 1_555 1_555
H17 C18 1_555 1_555
H18 C18 1_555 1_555
H19 C18 1_555 1_555
C19 N3 1_555 1_555
C20 O10 1_555 1_555
H20 C20 1_555 1_555
H21 C20 1_555 1_555
H22 C20 1_555 1_555
C21 H23 1_555 1_555
C22 C21 1_555 1_555
H24 C22 1_555 1_555
C23 C21 1_555 1_555
H25 C23 1_555 1_555
Cr1_2 O1 1_555 1_555
Cr1_3 O5 1_555 1_555
O1_2 Cr1 1_555 1_555
O2_2 Cr1 1_555 1_555
O5_2 Cr1 1_555 1_555
O6_2 Cr1 1_555 1_555
C21A H23A 1_555 1_555
C22A C23 1_555 1_555
H24A C22A 1_555 1_555
C23A C22 1_555 1_555
H25A C23A 1_555 1_555
O2 Cr1_2 1_555 1_555
O6 Cr1_3 1_555 1_555
C4 C7 1_555 1_555
C10 C11 1_555 1_555
C10 C13 1_555 1_555
C16 C19 1_555 1_555
C21A C22A 1_555 1_555
C21A C23A 1_555 1_555

#END
