
#######################################################################
#
#                 Cambridge Crystallographic Data Centre
#                                CCDC 
#
#######################################################################
#
# If this CIF has been generated from an entry in the Cambridge 
# Structural Database, then it will include bibliographic, chemical, 
# crystal, experimental, refinement or atomic coordinate data resulting 
# from the CCDC's data processing and validation procedures.
#
#######################################################################

data_TOHSIU
_symmetry_cell_setting           monoclinic
_symmetry_space_group_name_H-M   'C 2/c'
_symmetry_Int_Tables_number      15
_space_group_name_Hall           '-C 2yn'
loop_
_symmetry_equiv_pos_site_id
_symmetry_equiv_pos_as_xyz
1 x,y,z
2 -x,y,1/2-z
3 1/2+x,1/2+y,z
4 1/2-x,1/2+y,1/2-z
5 -x,-y,-z
6 x,-y,1/2+z
7 1/2-x,1/2-y,-z
8 1/2+x,1/2-y,1/2+z
_cell_length_a                   15.503(3)
_cell_length_b                   22.039(4)
_cell_length_c                   15.286(3)
_cell_angle_alpha                90
_cell_angle_beta                 103.17(3)
_cell_angle_gamma                90
_cell_volume                     5085.41
loop_
_atom_site_label
_atom_site_type_symbol
_atom_site_fract_x
_atom_site_fract_y
_atom_site_fract_z
Zn1 Zn 0.20245(2) 0.495521(14) 0.33887(2)
N1 N 0.18703(15) 0.55698(11) 0.23885(15)
N2 N 0.20255(15) 0.60782(10) 0.12008(15)
N3 N 0.19674(16) 0.41212(11) 0.27796(16)
N4 N 0.22636(17) 0.32947(12) 0.21035(16)
C1 C 0.1385(2) 0.61039(14) 0.2324(2)
H1 H 0.1049 0.6226 0.2725
C2 C 0.1474(2) 0.64170(13) 0.1597(2)
H2 H 0.1215 0.6788 0.1400
C3 C 0.22445(18) 0.55693(12) 0.16899(18)
C4 C 0.2810(2) 0.50818(14) 0.1454(2)
H3 H 0.2882 0.4766 0.1898
H4 H 0.3380 0.5246 0.1436
H5 H 0.2535 0.4918 0.0876
C5 C 0.2267(2) 0.62201(14) 0.0347(2)
H6 H 0.1816 0.6058 -0.0143
H7 H 0.2821 0.6018 0.0337
C6 C 0.2370(2) 0.68917(13) 0.01892(19)
C7 C 0.1720(2) 0.71992(14) -0.0431(2)
C8 C 0.0856(2) 0.68922(18) -0.0885(3)
H8 H 0.0808 0.6511 -0.0598
H9 H 0.0848 0.6825 -0.1508
H10 H 0.0367 0.7147 -0.0838
C9 C 0.3147(2) 0.71893(14) 0.0628(2)
C10 C 0.3845(3) 0.68525(19) 0.1311(3)
H11 H 0.4318 0.6732 0.1038
H12 H 0.3585 0.6499 0.1513
H13 H 0.4074 0.7113 0.1813
C11 C 0.1265(2) 0.39935(15) 0.2062(2)
H14 H 0.0748 0.4221 0.1899
C12 C 0.1444(2) 0.34923(15) 0.1639(2)
H15 H 0.1086 0.3314 0.1133
C13 C 0.2557(2) 0.36832(13) 0.27876(19)
C14 C 0.3415(2) 0.36074(16) 0.3449(2)
H16 H 0.3893 0.3674 0.3157
H17 H 0.3453 0.3204 0.3690
H18 H 0.3453 0.3896 0.3926
C15 C 0.2739(2) 0.27525(15) 0.1905(2)
H19 H 0.2546 0.2404 0.2197
H20 H 0.3368 0.2806 0.2153
C16 C 0.2588(2) 0.26279(14) 0.0907(2)
C17 C 0.2070(2) 0.21367(14) 0.0525(2)
C18 C 0.1580(3) 0.17482(19) 0.1069(3)
H21 H 0.1000 0.1655 0.0715
H22 H 0.1526 0.1965 0.1599
H23 H 0.1902 0.1379 0.1239
C19 C 0.3012(2) 0.29977(14) 0.0388(2)
C20 C 0.3558(3) 0.35358(17) 0.0794(3)
H24 H 0.4164 0.3475 0.0764
H25 H 0.3524 0.3580 0.1411
H26 H 0.3334 0.3896 0.0467
C21 C 0.3819(2) 0.50581(16) 0.4232(2)
C22 C 0.4570(3) 0.4993(2) 0.5058(3)
H27 H 0.4457 0.4946 0.5625
C23 C 0.0787(2) 0.53134(15) 0.4283(2)
C24 C 0.0015(2) 0.52807(15) 0.4734(2)
H28 H 0.0042 0.5628 0.5129
H29 H -0.0532 0.5310 0.4276
O1 O 0.39529(17) 0.51403(15) 0.34799(18)
O2 O 0.30587(15) 0.49835(11) 0.43780(15)
O3 O 0.09800(15) 0.48365(10) 0.39145(16)
O4 O 0.11946(18) 0.57942(12) 0.42748(18)
N1F N 0.31297(15) 0.94302(11) -0.23885(15)
N2F N 0.29745(15) 0.89218(10) -0.12008(15)
C1F C 0.3615(2) 0.88961(14) -0.2324(2)
H1F H 0.3951 0.8774 -0.2725
C2F C 0.3526(2) 0.85830(13) -0.1597(2)
H2F H 0.3785 0.8212 -0.1400
C3F C 0.27555(18) 0.94307(12) -0.16899(18)
C4F C 0.2190(2) 0.99182(14) -0.1454(2)
H3F H 0.2118 1.0234 -0.1898
H4F H 0.1620 0.9754 -0.1436
H5F H 0.2465 1.0082 -0.0876
C5F C 0.2733(2) 0.87799(14) -0.0347(2)
H6F H 0.3184 0.8942 0.0143
H7F H 0.2179 0.8982 -0.0337
C6F C 0.2630(2) 0.81083(13) -0.01892(19)
C7F C 0.3280(2) 0.78008(14) 0.0431(2)
C8F C 0.4144(2) 0.81078(18) 0.0885(3)
H8F H 0.4192 0.8489 0.0598
H9F H 0.4152 0.8175 0.1508
H10F H 0.4633 0.7853 0.0838
C9F C 0.1853(2) 0.78107(14) -0.0628(2)
C10F C 0.1155(3) 0.81475(19) -0.1311(3)
H11F H 0.0682 0.8268 -0.1038
H12F H 0.1415 0.8501 -0.1513
H13F H 0.0926 0.7887 -0.1813
N3F N 0.30326(16) 0.08788(11) -0.27796(16)
N4F N 0.27364(17) 0.17053(12) -0.21035(16)
C11F C 0.3735(2) 0.10065(15) -0.2062(2)
H14F H 0.4252 0.0779 -0.1899
C12F C 0.3556(2) 0.15077(15) -0.1639(2)
H15F H 0.3914 0.1686 -0.1133
C13F C 0.2443(2) 0.13168(13) -0.27876(19)
C14F C 0.1585(2) 0.13926(16) -0.3449(2)
H16F H 0.1107 0.1326 -0.3157
H17F H 0.1547 0.1796 -0.3690
H18F H 0.1547 0.1104 -0.3926
C15F C 0.2261(2) 0.22475(15) -0.1905(2)
H19F H 0.2454 0.2596 -0.2197
H20F H 0.1632 0.2194 -0.2153
C16F C 0.2412(2) 0.23721(14) -0.0907(2)
C17F C 0.2930(2) 0.28633(14) -0.0525(2)
C18F C 0.3420(3) 0.32518(19) -0.1069(3)
H21F H 0.4000 0.3345 -0.0715
H22F H 0.3474 0.3035 -0.1599
H23F H 0.3098 0.3621 -0.1239
C19F C 0.1988(2) 0.20023(14) -0.0388(2)
C20F C 0.1442(3) 0.14642(17) -0.0794(3)
H24F H 0.0836 0.1525 -0.0764
H25F H 0.1476 0.1420 -0.1411
H26F H 0.1666 0.1104 -0.0467
C21D C 0.6181(2) 0.49419(16) 0.5768(2)
C22D C 0.5430(3) 0.5007(2) 0.4942(3)
H27D H 0.5543 0.5054 0.4375
O1D O 0.60471(17) 0.48597(15) 0.65201(18)
O2D O 0.69413(15) 0.50165(11) 0.56220(15)
C23D C -0.0787(2) 0.46866(15) 0.5717(2)
C24D C -0.0015(2) 0.47193(15) 0.5266(2)
H28D H -0.0042 0.4372 0.4871
H29D H 0.0532 0.4690 0.5724
O3D O -0.09800(15) 0.51635(10) 0.60855(16)
O4D O -0.11946(18) 0.42058(12) 0.57252(18)
Zn1D Zn -0.20245(2) 0.504479(14) 0.66113(2)
Zn1D_2 Zn 0.79755(2) 0.504479(14) 0.66113(2)
Zn1F Zn 0.29755(2) 0.004479(14) -0.33887(2)
Zn1F_2 Zn 0.29755(2) 1.004479(14) -0.33887(2)
N1D N -0.18703(15) 0.44302(11) 0.76115(15)
N3D N -0.19674(16) 0.58788(11) 0.72204(16)
O2D_2 O -0.30587(15) 0.50165(11) 0.56220(15)
O5 O 0.05073(18) 0.69290(13) 0.4242(2)
H30 H 0.0721 0.6574 0.4251
H31 H 0.0928 0.7169 0.4449
O6 O 1.0000 0.7517(2) 0.2500
H32 H 0.9886 0.7336 0.2016
H32A H 1.0114 0.7336 0.2984
O7 O 0.5000 0.4440(4) 0.2500
O8 O 0.5000 0.5809(4) 0.2500
H33? H 0.4572 0.4269 0.2184
H34? H 0.4856 0.4743 0.2731
H35? H 0.5186 0.5536 0.2859
H36? H 0.5117 0.5861 0.2100
H37? H 1.0149 0.7338 0.3012
loop_
_geom_bond_atom_site_label_1
_geom_bond_atom_site_label_2
_geom_bond_site_symmetry_1
_geom_bond_site_symmetry_2
Zn1 N1 1_555 1_555
N1 C1 1_555 1_555
N2 C2 1_555 1_555
N3 Zn1 1_555 1_555
N4 C12 1_555 1_555
C1 H1 1_555 1_555
C2 C1 1_555 1_555
H2 C2 1_555 1_555
C3 N1 1_555 1_555
C4 C3 1_555 1_555
H3 C4 1_555 1_555
H4 C4 1_555 1_555
H5 C4 1_555 1_555
C5 N2 1_555 1_555
H6 C5 1_555 1_555
H7 C5 1_555 1_555
C6 C5 1_555 1_555
C7 C6 1_555 1_555
C8 C7 1_555 1_555
H8 C8 1_555 1_555
H9 C8 1_555 1_555
H10 C8 1_555 1_555
C9 C6 1_555 1_555
C10 C9 1_555 1_555
H11 C10 1_555 1_555
H12 C10 1_555 1_555
H13 C10 1_555 1_555
C11 N3 1_555 1_555
H14 C11 1_555 1_555
C12 C11 1_555 1_555
H15 C12 1_555 1_555
C13 N3 1_555 1_555
C14 C13 1_555 1_555
H16 C14 1_555 1_555
H17 C14 1_555 1_555
H18 C14 1_555 1_555
C15 N4 1_555 1_555
H19 C15 1_555 1_555
H20 C15 1_555 1_555
C16 C15 1_555 1_555
C17 C16 1_555 1_555
C18 C17 1_555 1_555
H21 C18 1_555 1_555
H22 C18 1_555 1_555
H23 C18 1_555 1_555
C19 C16 1_555 1_555
C20 C19 1_555 1_555
H24 C20 1_555 1_555
H25 C20 1_555 1_555
H26 C20 1_555 1_555
C21 C22 1_555 1_555
C22 H27 1_555 1_555
C23 C24 1_555 1_555
C24 H28 1_555 1_555
H29 C24 1_555 1_555
O1 C21 1_555 1_555
O2 Zn1 1_555 1_555
O3 Zn1 1_555 1_555
O4 C23 1_555 1_555
O5 H30 1_555 1_555
H31 O5 1_555 1_555
O6 H32 1_555 1_555
N1F C1F 1_555 1_555
N2F C2F 1_555 1_555
C1F H1F 1_555 1_555
C2F C1F 1_555 1_555
H2F C2F 1_555 1_555
C3F N1F 1_555 1_555
C4F C3F 1_555 1_555
H3F C4F 1_555 1_555
H4F C4F 1_555 1_555
H5F C4F 1_555 1_555
C5F N2F 1_555 1_555
H6F C5F 1_555 1_555
H7F C5F 1_555 1_555
C6F C5F 1_555 1_555
C7F C9 1_555 1_555
C8F C7F 1_555 1_555
H8F C8F 1_555 1_555
H9F C8F 1_555 1_555
H10F C8F 1_555 1_555
C9F C7 1_555 1_555
C10F C9F 1_555 1_555
H11F C10F 1_555 1_555
H12F C10F 1_555 1_555
H13F C10F 1_555 1_555
N3F C11F 1_555 1_555
N4F C12F 1_555 1_555
C11F H14F 1_555 1_555
C12F C11F 1_555 1_555
H15F C12F 1_555 1_555
C13F N3F 1_555 1_555
C14F C13F 1_555 1_555
H16F C14F 1_555 1_555
H17F C14F 1_555 1_555
H18F C14F 1_555 1_555
C15F N4F 1_555 1_555
H19F C15F 1_555 1_555
H20F C15F 1_555 1_555
C16F C15F 1_555 1_555
C17F C19 1_555 1_555
C18F C17F 1_555 1_555
H21F C18F 1_555 1_555
H22F C18F 1_555 1_555
H23F C18F 1_555 1_555
C19F C17 1_555 1_555
C20F C19F 1_555 1_555
H24F C20F 1_555 1_555
H25F C20F 1_555 1_555
H26F C20F 1_555 1_555
C21D C22D 1_555 1_555
C22D C22 1_555 1_555
H27D C22D 1_555 1_555
O1D C21D 1_555 1_555
O2D C21D 1_555 1_555
C23D C24D 1_555 1_555
C24D C24 1_555 1_555
H28D C24D 1_555 1_555
H29D C24D 1_555 1_555
O3D C23D 1_555 1_555
O4D C23D 1_555 1_555
Zn1D O3D 1_555 1_555
Zn1D_2 O2D 1_555 1_555
Zn1F N3F 1_555 1_555
Zn1F_2 N1F 1_555 1_555
N1D Zn1D 1_555 1_555
N3D Zn1D 1_555 1_555
O2D_2 Zn1D 1_555 1_555
H32A O6 1_555 1_555
N2 C3 1_555 1_555
N4 C13 1_555 1_555
C21 O2 1_555 1_555
C23 O3 1_555 1_555
N2F C3F 1_555 1_555
C6F C7F 1_555 1_555
C6F C9F 1_555 1_555
N4F C13F 1_555 1_555
C16F C17F 1_555 1_555
C16F C19F 1_555 1_555

#END
