
#######################################################################
#
#                 Cambridge Crystallographic Data Centre
#                                CCDC 
#
#######################################################################
#
# If this CIF has been generated from an entry in the Cambridge 
# Structural Database, then it will include bibliographic, chemical, 
# crystal, experimental, refinement or atomic coordinate data resulting 
# from the CCDC's data processing and validation procedures.
#
#######################################################################

data_TOHTOB
_symmetry_cell_setting           monoclinic
_symmetry_space_group_name_H-M   'C 2/c'
_symmetry_Int_Tables_number      15
_space_group_name_Hall           '-C 2yn'
loop_
_symmetry_equiv_pos_site_id
_symmetry_equiv_pos_as_xyz
1 x,y,z
2 -x,y,1/2-z
3 1/2+x,1/2+y,z
4 1/2-x,1/2+y,1/2-z
5 -x,-y,-z
6 x,-y,1/2+z
7 1/2-x,1/2-y,-z
8 1/2+x,1/2-y,1/2+z
_cell_length_a                   39.9199(12)
_cell_length_b                   38.4891(19)
_cell_length_c                   8.7550(4)
_cell_angle_alpha                90
_cell_angle_beta                 94.032(2)
_cell_angle_gamma                90
_cell_volume                     13418.6
loop_
_atom_site_label
_atom_site_type_symbol
_atom_site_fract_x
_atom_site_fract_y
_atom_site_fract_z
C1 C 0.28323(7) 0.61131(8) -0.7042(4)
H1 H 0.2771 0.5935 -0.7722
C2 C 0.25851(7) 0.63049(8) -0.6401(4)
H2 H 0.2362 0.6245 -0.6646
C3 C 0.26507(7) 0.65787(8) -0.5424(3)
C4 C 0.29886(8) 0.66363(11) -0.5036(5)
H3 H 0.3053 0.6809 -0.4333
C5 C 0.32322(8) 0.64373(11) -0.5692(5)
H4 H 0.3457 0.6484 -0.5422
C6 C 0.33964(8) 0.82278(8) 0.0705(4)
H5 H 0.3607 0.8128 0.0622
C7 C 0.31252(8) 0.80733(8) -0.0038(4)
H6 H 0.3155 0.7875 -0.0619
C8 C 0.28078(7) 0.82052(7) 0.0056(3)
C9 C 0.27909(7) 0.85053(7) 0.0900(4)
H7 H 0.2584 0.8614 0.0975
C10 C 0.30724(7) 0.86471(7) 0.1631(4)
H8 H 0.3049 0.8846 0.2216
C11 C 0.38268(8) 0.94613(9) 0.1603(4)
H9 H 0.3657 0.9502 0.2257
C12 C 0.39696(8) 0.97357(8) 0.0954(4)
H10 H 0.3891 0.9958 0.1144
C13 C 0.42312(7) 0.96964(7) 0.0009(3)
C14 C 0.43123(9) 0.93534(8) -0.0296(4)
H11 H 0.4476 0.9307 -0.0975
C15 C 0.41587(9) 0.90830(8) 0.0373(4)
H12 H 0.4224 0.8858 0.0140
C16 C 0.35836(8) 0.89506(8) 0.5722(4)
C17 C 0.19096(7) 1.07782(7) 0.5459(3)
C18 C 0.13017(8) 1.02647(8) 0.1827(4)
H13 H 0.1501 1.0213 0.2398
C19 C 0.11245(8) 0.99999(8) 0.1164(5)
H14 H 0.1211 0.9776 0.1255
C20 C 0.08165(7) 1.00497(8) 0.0350(3)
C21 C 0.07207(8) 1.03963(8) 0.0269(4)
H15 H 0.0517 1.0454 -0.0247
C22 C 0.09157(8) 1.06572(8) 0.0921(4)
H16 H 0.0841 1.0885 0.0807
C23 C 0.10445(8) 1.15071(8) 0.3034(5)
C24 C -0.07806(9) 1.32554(10) 0.3696(5)
C25 C 0.23900(7) 0.68026(8) -0.4845(3)
C26 C 0.20489(7) 0.67385(8) -0.5304(4)
H17 H 0.1995 0.6555 -0.5965
C27 C 0.17946(8) 0.69394(9) -0.4803(4)
H18 H 0.1571 0.6894 -0.5114
C28 C 0.18808(7) 0.72150(8) -0.3812(3)
C29 C 0.22166(6) 0.72891(7) -0.3358(3)
C30 C 0.24643(7) 0.70804(7) -0.3893(3)
H19 H 0.2688 0.7129 -0.3600
C31 C 0.19272(7) 0.77193(8) -0.2038(4)
C32 C 0.18994(7) 0.80013(9) -0.1082(4)
H20 H 0.1689 0.8088 -0.0897
C33 C 0.21842(7) 0.81544(8) -0.0403(4)
H21 H 0.2165 0.8343 0.0249
C34 C 0.25051(7) 0.80275(7) -0.0688(3)
C35 C 0.25306(7) 0.77462(7) -0.1654(3)
H22 H 0.2742 0.7662 -0.1849
C36 C 0.22427(6) 0.75853(7) -0.2347(3)
C37 C 0.44151(8) 0.99978(7) -0.0579(3)
C38 C 0.43305(9) 1.03361(8) -0.0233(4)
H23 H 0.4151 1.0371 0.0370
C39 C 0.44948(9) 1.06184(8) -0.0723(4)
H24 H 0.4432 1.0842 -0.0452
C40 C 0.47576(8) 1.05643(8) -0.1637(4)
C41 C 0.48591(8) 1.02225(7) -0.2039(3)
C42 C 0.46833(7) 0.99467(7) -0.1483(3)
H25 H 0.4746 0.9721 -0.1719
C43 C 0.33891(6) 0.92051(7) 0.6632(3)
C44 C 0.32694(8) 0.91119(8) 0.8016(3)
H26 H 0.3331 0.8899 0.8458
C45 C 0.30577(8) 0.93343(7) 0.8753(3)
H27 H 0.2971 0.9268 0.9667
C46 C 0.29786(7) 0.96486(7) 0.8129(3)
C47 C 0.31138(7) 0.97562(7) 0.6812(3)
H28 H 0.3071 0.9979 0.6437
C48 C 0.33128(6) 0.95324(7) 0.6051(3)
H29 H 0.3397 0.9602 0.5136
C49 C 0.25534(7) 1.00789(7) 0.8061(3)
C50 C 0.23288(7) 0.99482(7) 0.6925(3)
H30 H 0.2322 0.9712 0.6709
C51 C 0.21162(7) 1.01750(7) 0.6122(3)
H31 H 0.1963 1.0088 0.5367
C52 C 0.21237(6) 1.05302(6) 0.6406(3)
C53 C 0.23472(8) 1.06519(7) 0.7575(3)
H32 H 0.2349 1.0887 0.7816
C54 C 0.25669(8) 1.04306(8) 0.8385(3)
H33 H 0.2721 1.0517 0.9136
C55 C 0.02477(7) 0.92019(7) -0.1551(4)
C56 C 0.01459(6) 0.95446(7) -0.1954(3)
C57 C 0.03333(6) 0.98231(7) -0.1319(3)
H34 H 0.0271 1.0050 -0.1577
C58 C 0.06103(7) 0.97652(7) -0.0312(3)
C59 C 0.07028(8) 0.94174(8) 0.0057(4)
H35 H 0.0892 0.9376 0.0714
C60 C 0.05185(8) 0.91402(8) -0.0537(4)
H36 H 0.0577 0.8914 -0.0254
C61 C 0.08595(6) 1.17859(5) 0.3771(3)
C62 C 0.06346(7) 1.19922(7) 0.2892(2)
H37 H 0.0584 1.1940 0.1864
C63 C 0.04846(7) 1.22761(7) 0.3549(3)
H38 H 0.0334 1.2414 0.2961
C64 C 0.05597(7) 1.23538(6) 0.5086(3)
C65 C 0.07847(7) 1.21475(7) 0.5965(2)
H39 H 0.0835 1.2200 0.6993
C66 C 0.09346(7) 1.18636(6) 0.5308(3)
H40 H 0.1085 1.1726 0.5896
C67 C 0.01369(5) 1.27761(7) 0.5321(3)
C68 C -0.01571(7) 1.25824(5) 0.5311(3)
H41 H -0.0150 1.2354 0.5658
C69 C -0.04612(5) 1.27300(5) 0.4782(3)
H42 H -0.0658 1.2600 0.4775
C70 C -0.04712(5) 1.30714(5) 0.4263(3)
C71 C -0.01772(6) 1.32651(5) 0.4273(3)
H43 H -0.0184 1.3494 0.3925
C72 C 0.01269(5) 1.31174(7) 0.4802(3)
H44 H 0.0324 1.3247 0.4809
N1 N 0.39189(6) 0.91247(7) 0.1348(3)
N2 N 0.12073(5) 1.05988(6) 0.1710(3)
N3 N 0.33756(6) 0.85139(6) 0.1544(3)
N4 N 0.31561(6) 0.61802(7) -0.6699(3)
O1 O 0.35863(6) 0.90150(6) 0.4297(3)
O2 O 0.37125(8) 0.86911(7) 0.6385(3)
O3 O 0.19321(6) 1.10895(5) 0.5736(3)
O4 O 0.17258(5) 1.06477(5) 0.4363(2)
O5 O 0.12302(5) 1.13137(5) 0.3945(3)
O6 O 0.10091(7) 1.14629(6) 0.1656(3)
O7 O -0.07612(6) 1.35585(6) 0.3213(3)
O8 O -0.10495(7) 1.31175(8) 0.3731(4)
O9 O 0.27673(6) 0.98604(5) 0.8914(2)
O10 O 0.04516(7) 1.26479(8) 0.5781(3)
S1 S 0.0000 0.88877(3) -0.2500
S2 S 0.5000 1.08815(3) -0.2500
S3 S 0.159786(19) 0.74978(2) -0.30084(11)
Zn1 Zn 0.148187(8) 1.096228(8) 0.29280(4)
Zn2 Zn 0.377957(8) 0.872978(9) 0.27731(4)
C11A C 0.61732(8) 0.94613(9) -0.6603(4)
H9A H 0.6343 0.9502 -0.7257
C12A C 0.60304(8) 0.97357(8) -0.5954(4)
H10A H 0.6109 0.9958 -0.6144
C13A C 0.57688(7) 0.96964(7) -0.5009(3)
C14A C 0.56877(9) 0.93534(8) -0.4704(4)
H11A H 0.5524 0.9307 -0.4025
C15A C 0.58413(9) 0.90830(8) -0.5373(4)
H12A H 0.5776 0.8858 -0.5140
C37A C 0.55849(8) 0.99978(7) -0.4421(3)
C38A C 0.56695(9) 1.03361(8) -0.4767(4)
H23A H 0.5849 1.0371 -0.5370
C39A C 0.55052(9) 1.06184(8) -0.4277(4)
H24A H 0.5568 1.0842 -0.4548
C40A C 0.52424(8) 1.05643(8) -0.3363(4)
C41A C 0.51409(8) 1.02225(7) -0.2961(3)
C42A C 0.53167(7) 0.99467(7) -0.3517(3)
H25A H 0.5254 0.9721 -0.3281
N1A N 0.60811(6) 0.91247(7) -0.6348(3)
C18A C -0.13017(8) 1.02647(8) -0.6827(4)
H13A H -0.1501 1.0213 -0.7398
C19A C -0.11245(8) 0.99999(8) -0.6164(5)
H14A H -0.1211 0.9776 -0.6255
C20A C -0.08165(7) 1.00497(8) -0.5350(3)
C21A C -0.07207(8) 1.03963(8) -0.5269(4)
H15A H -0.0517 1.0454 -0.4753
C22A C -0.09157(8) 1.06572(8) -0.5921(4)
H16A H -0.0841 1.0885 -0.5807
C55A C -0.02477(7) 0.92019(7) -0.3449(4)
C56A C -0.01459(6) 0.95446(7) -0.3046(3)
C57A C -0.03333(6) 0.98231(7) -0.3681(3)
H34A H -0.0271 1.0050 -0.3423
C58A C -0.06103(7) 0.97652(7) -0.4688(3)
C59A C -0.07028(8) 0.94174(8) -0.5057(4)
H35A H -0.0892 0.9376 -0.5714
C60A C -0.05185(8) 0.91402(8) -0.4463(4)
H36A H -0.0577 0.8914 -0.4746
N2A N -0.12073(5) 1.05988(6) -0.6710(3)
C1A C -0.28323(7) 0.61131(8) 0.2042(4)
H1A H -0.2771 0.5935 0.2722
C2A C -0.25851(7) 0.63049(8) 0.1401(4)
H2A H -0.2362 0.6245 0.1646
C3A C -0.26507(7) 0.65787(8) 0.0424(3)
C4A C -0.29886(8) 0.66363(11) 0.0036(5)
H3A H -0.3053 0.6809 -0.0667
C5A C -0.32322(8) 0.64373(11) 0.0692(5)
H4A H -0.3457 0.6484 0.0422
C6A C -0.33964(8) 0.82278(8) -0.5705(4)
H5A H -0.3607 0.8128 -0.5622
C7A C -0.31252(8) 0.80733(8) -0.4962(4)
H6A H -0.3155 0.7875 -0.4381
C8A C -0.28078(7) 0.82052(7) -0.5056(3)
C9A C -0.27909(7) 0.85053(7) -0.5900(4)
H7A H -0.2584 0.8614 -0.5975
C10A C -0.30724(7) 0.86471(7) -0.6631(4)
H8A H -0.3049 0.8846 -0.7216
C16A C -0.35836(8) 0.89506(8) -1.0722(4)
C17A C -0.19096(7) 1.07782(7) -1.0459(3)
C23A C -0.10445(8) 1.15071(8) -0.8034(5)
C24A C 0.07806(9) 1.32554(10) -0.8696(5)
C25A C -0.23900(7) 0.68026(8) -0.0155(3)
C26A C -0.20489(7) 0.67385(8) 0.0304(4)
H17A H -0.1995 0.6555 0.0965
C27A C -0.17946(8) 0.69394(9) -0.0197(4)
H18A H -0.1571 0.6894 0.0114
C28A C -0.18808(7) 0.72150(8) -0.1188(3)
C29A C -0.22166(6) 0.72891(7) -0.1642(3)
C30A C -0.24643(7) 0.70804(7) -0.1107(3)
H19A H -0.2688 0.7129 -0.1400
C31A C -0.19272(7) 0.77193(8) -0.2962(4)
C32A C -0.18994(7) 0.80013(9) -0.3918(4)
H20A H -0.1689 0.8088 -0.4103
C33A C -0.21842(7) 0.81544(8) -0.4597(4)
H21A H -0.2165 0.8343 -0.5249
C34A C -0.25051(7) 0.80275(7) -0.4312(3)
C35A C -0.25306(7) 0.77462(7) -0.3346(3)
H22A H -0.2742 0.7662 -0.3151
C36A C -0.22427(6) 0.75853(7) -0.2653(3)
C43A C -0.33891(6) 0.92051(7) -1.1632(3)
C44A C -0.32694(8) 0.91119(8) -1.3016(3)
H26A H -0.3331 0.8899 -1.3458
C45A C -0.30577(8) 0.93343(7) -1.3753(3)
H27A H -0.2971 0.9268 -1.4667
C46A C -0.29786(7) 0.96486(7) -1.3129(3)
C47A C -0.31138(7) 0.97562(7) -1.1812(3)
H28A H -0.3071 0.9979 -1.1437
C48A C -0.33128(6) 0.95324(7) -1.1051(3)
H29A H -0.3397 0.9602 -1.0136
C49A C -0.25534(7) 1.00789(7) -1.3061(3)
C50A C -0.23288(7) 0.99482(7) -1.1925(3)
H30A H -0.2322 0.9712 -1.1709
C51A C -0.21162(7) 1.01750(7) -1.1122(3)
H31A H -0.1963 1.0088 -1.0367
C52A C -0.21237(6) 1.05302(6) -1.1406(3)
C53A C -0.23472(8) 1.06519(7) -1.2575(3)
H32A H -0.2349 1.0887 -1.2816
C54A C -0.25669(8) 1.04306(8) -1.3385(3)
H33A H -0.2721 1.0517 -1.4136
C61A C -0.08595(6) 1.17859(5) -0.8771(3)
C62A C -0.06346(7) 1.19922(7) -0.7892(2)
H37A H -0.0584 1.1940 -0.6864
C63A C -0.04846(7) 1.22761(7) -0.8549(3)
H38A H -0.0334 1.2414 -0.7961
C64A C -0.05597(7) 1.23538(6) -1.0086(3)
C65A C -0.07847(7) 1.21475(7) -1.0965(2)
H39A H -0.0835 1.2200 -1.1993
C66A C -0.09346(7) 1.18636(6) -1.0308(3)
H40A H -0.1085 1.1726 -1.0896
C67A C -0.01369(5) 1.27761(7) -1.0321(3)
C68A C 0.01571(7) 1.25824(5) -1.0311(3)
H41A H 0.0150 1.2354 -1.0658
C69A C 0.04612(5) 1.27300(5) -0.9782(3)
H42A H 0.0658 1.2600 -0.9775
C70A C 0.04712(5) 1.30714(5) -0.9263(3)
C71A C 0.01772(6) 1.32651(5) -0.9273(3)
H43A H 0.0184 1.3494 -0.8925
C72A C -0.01269(5) 1.31174(7) -0.9802(3)
H44A H -0.0324 1.3247 -0.9809
N3A N -0.33756(6) 0.85139(6) -0.6544(3)
N4A N -0.31561(6) 0.61802(7) 0.1699(3)
O1A O -0.35863(6) 0.90150(6) -0.9297(3)
O2A O -0.37125(8) 0.86911(7) -1.1385(3)
O3A O -0.19321(6) 1.10895(5) -1.0736(3)
O4A O -0.17258(5) 1.06477(5) -0.9363(2)
O5A O -0.12302(5) 1.13137(5) -0.8945(3)
O6A O -0.10091(7) 1.14629(6) -0.6656(3)
O7A O 0.07612(6) 1.35585(6) -0.8213(3)
O8A O 0.10495(7) 1.31175(8) -0.8731(4)
O9A O -0.27673(6) 0.98604(5) -1.3914(2)
O10A O -0.04516(7) 1.26479(8) -1.0781(3)
S3A S -0.159786(19) 0.74978(2) -0.19916(11)
Zn1A Zn -0.148187(8) 1.096228(8) -0.79280(4)
Zn2A Zn -0.377957(8) 0.872978(9) -0.77731(4)
N1A_2 N -0.39189(6) 0.91247(7) -0.6348(3)
N4B N -0.18439(6) 1.11802(7) -0.6699(3)
N4C N 0.18439(6) 1.11802(7) 0.1699(3)
O7B O 0.42388(6) 0.85585(6) 0.3213(3)
O7C O -0.42388(6) 0.85585(6) -0.8213(3)
O8B O 0.39505(7) 0.81175(8) 0.3731(4)
O8C O -0.39505(7) 0.81175(8) -0.8731(4)
Zn1B Zn -0.351813(8) 0.596228(8) 0.29280(4)
Zn1C Zn 0.351813(8) 0.596228(8) -0.79280(4)
Zn2A_2 Zn 0.622043(8) 0.872978(9) -0.77731(4)
Zn2B Zn -0.122043(8) 1.372978(9) 0.27731(4)
Zn2C Zn 0.122043(8) 1.372978(9) -0.77731(4)
O11 O 1.0000 0.93396(12) 0.2500
H45 H 1.0124 0.9301 0.1769
H45A H 0.9876 0.9301 0.3231
O12 O 0.5000 0.90646(13) 0.7500
H46 H 0.5106 0.8921 0.6979
H46A H 0.4894 0.8921 0.8021
O13 O 0.33430(13) 0.73419(14) 0.7430(6)
H47 H 0.3229 0.7187 0.7855
H48 H 0.3386 0.7274 0.6542
O14 O 0.44130(15) 0.86203(16) 0.7359(7)
H49 H 0.4495 0.8481 0.6730
H50 H 0.4385 0.8514 0.8192
O15 O 1.0000 0.87780(12) 0.2500
H51 H 0.9787 0.8761 0.2483
H51A H 1.0213 0.8761 0.2517
O16 O 0.39221(17) 0.68620(17) 0.5972(7)
H52 H 0.3764 0.6816 0.6540
H53 H 0.3970 0.6682 0.5472
O17 O 0.12688(17) 0.8846(2) 0.2273(7)
H54 H 0.1467 0.8880 0.2017
H55 H 0.1259 0.8889 0.3222
O18 O 0.38807(19) 0.7990(2) 0.7713(9)
H56 H 0.3799 0.8188 0.7472
H57 H 0.3955 0.7992 0.8647
H58? H 0.5033 0.9017 0.8447
H59? H 0.9839 0.9194 0.2467
H60? H 1.0078 0.8823 0.3407
loop_
_geom_bond_atom_site_label_1
_geom_bond_atom_site_label_2
_geom_bond_site_symmetry_1
_geom_bond_site_symmetry_2
C1 H1 1_555 1_555
C2 C1 1_555 1_555
H2 C2 1_555 1_555
C3 C2 1_555 1_555
C4 C3 1_555 1_555
H3 C4 1_555 1_555
C5 C4 1_555 1_555
H4 C5 1_555 1_555
C6 H5 1_555 1_555
C7 C6 1_555 1_555
H6 C7 1_555 1_555
C8 C7 1_555 1_555
C9 C8 1_555 1_555
H7 C9 1_555 1_555
C10 C9 1_555 1_555
H8 C10 1_555 1_555
C11 H9 1_555 1_555
C12 C11 1_555 1_555
H10 C12 1_555 1_555
C13 C12 1_555 1_555
C14 C13 1_555 1_555
H11 C14 1_555 1_555
C15 C14 1_555 1_555
H12 C15 1_555 1_555
C16 C43 1_555 1_555
C17 C52 1_555 1_555
C18 H13 1_555 1_555
C19 C18 1_555 1_555
H14 C19 1_555 1_555
C20 C19 1_555 1_555
C21 C20 1_555 1_555
H15 C21 1_555 1_555
C22 C21 1_555 1_555
H16 C22 1_555 1_555
C23 C61 1_555 1_555
C24 C70 1_555 1_555
C25 C3 1_555 1_555
C26 C25 1_555 1_555
H17 C26 1_555 1_555
C27 C26 1_555 1_555
H18 C27 1_555 1_555
C28 C27 1_555 1_555
C29 C28 1_555 1_555
C30 C25 1_555 1_555
H19 C30 1_555 1_555
C31 C32 1_555 1_555
C32 H20 1_555 1_555
C33 C32 1_555 1_555
H21 C33 1_555 1_555
C34 C8 1_555 1_555
C35 C34 1_555 1_555
H22 C35 1_555 1_555
C36 C29 1_555 1_555
C37 C13 1_555 1_555
C38 C37 1_555 1_555
H23 C38 1_555 1_555
C39 C38 1_555 1_555
H24 C39 1_555 1_555
C40 C39 1_555 1_555
C41 C40 1_555 1_555
C42 C37 1_555 1_555
H25 C42 1_555 1_555
C43 C44 1_555 1_555
C44 H26 1_555 1_555
C45 C44 1_555 1_555
H27 C45 1_555 1_555
C46 C45 1_555 1_555
C47 C46 1_555 1_555
H28 C47 1_555 1_555
C48 C43 1_555 1_555
H29 C48 1_555 1_555
C49 C50 1_555 1_555
C50 H30 1_555 1_555
C51 C50 1_555 1_555
H31 C51 1_555 1_555
C52 C51 1_555 1_555
C53 C52 1_555 1_555
H32 C53 1_555 1_555
C54 C49 1_555 1_555
H33 C54 1_555 1_555
C55 C56 1_555 1_555
C56 C57 1_555 1_555
C57 H34 1_555 1_555
C58 C20 1_555 1_555
C59 C58 1_555 1_555
H35 C59 1_555 1_555
C60 C55 1_555 1_555
H36 C60 1_555 1_555
C61 C62 1_555 1_555
C62 H37 1_555 1_555
C63 C62 1_555 1_555
H38 C63 1_555 1_555
C64 C63 1_555 1_555
C65 C64 1_555 1_555
H39 C65 1_555 1_555
C66 C61 1_555 1_555
H40 C66 1_555 1_555
C67 C68 1_555 1_555
C68 H41 1_555 1_555
C69 C68 1_555 1_555
H42 C69 1_555 1_555
C70 C69 1_555 1_555
C71 C70 1_555 1_555
H43 C71 1_555 1_555
C72 C67 1_555 1_555
H44 C72 1_555 1_555
N1 C11 1_555 1_555
N2 C18 1_555 1_555
N3 C6 1_555 1_555
N4 C1 1_555 1_555
O1 C16 1_555 1_555
O2 C16 1_555 1_555
O3 C17 1_555 1_555
O4 C17 1_555 1_555
O5 C23 1_555 1_555
O6 C23 1_555 1_555
O7 C24 1_555 1_555
O8 C24 1_555 1_555
O9 C46 1_555 1_555
O10 C64 1_555 1_555
S1 C55 1_555 1_555
S2 C40 1_555 1_555
S3 C28 1_555 1_555
Zn1 N2 1_555 1_555
Zn2 N1 1_555 1_555
O11 H45 1_555 1_555
O12 H46 1_555 1_555
O13 H47 1_555 1_555
H48 O13 1_555 1_555
O14 H49 1_555 1_555
H50 O14 1_555 1_555
O15 H51 1_555 1_555
O16 H52 1_555 1_555
H53 O16 1_555 1_555
O17 H54 1_555 1_555
H55 O17 1_555 1_555
O18 H56 1_555 1_555
H57 O18 1_555 1_555
C11A H9A 1_555 1_555
C12A C11A 1_555 1_555
H10A C12A 1_555 1_555
C13A C12A 1_555 1_555
C14A C13A 1_555 1_555
H11A C14A 1_555 1_555
C15A C14A 1_555 1_555
H12A C15A 1_555 1_555
C37A C13A 1_555 1_555
C38A C37A 1_555 1_555
H23A C38A 1_555 1_555
C39A C38A 1_555 1_555
H24A C39A 1_555 1_555
C40A S2 1_555 1_555
C41A C41 1_555 1_555
C42A C37A 1_555 1_555
H25A C42A 1_555 1_555
N1A C11A 1_555 1_555
C18A H13A 1_555 1_555
C19A C18A 1_555 1_555
H14A C19A 1_555 1_555
C20A C19A 1_555 1_555
C21A C20A 1_555 1_555
H15A C21A 1_555 1_555
C22A C21A 1_555 1_555
H16A C22A 1_555 1_555
C55A S1 1_555 1_555
C56A C56 1_555 1_555
C57A C56A 1_555 1_555
H34A C57A 1_555 1_555
C58A C20A 1_555 1_555
C59A C58A 1_555 1_555
H35A C59A 1_555 1_555
C60A C55A 1_555 1_555
H36A C60A 1_555 1_555
N2A C18A 1_555 1_555
C1A H1A 1_555 1_555
C2A C1A 1_555 1_555
H2A C2A 1_555 1_555
C3A C2A 1_555 1_555
C4A C3A 1_555 1_555
H3A C4A 1_555 1_555
C5A C4A 1_555 1_555
H4A C5A 1_555 1_555
C6A H5A 1_555 1_555
C7A C6A 1_555 1_555
H6A C7A 1_555 1_555
C8A C7A 1_555 1_555
C9A C8A 1_555 1_555
H7A C9A 1_555 1_555
C10A C9A 1_555 1_555
H8A C10A 1_555 1_555
C16A C43A 1_555 1_555
C17A C52A 1_555 1_555
C23A C61A 1_555 1_555
C24A C70A 1_555 1_555
C25A C3A 1_555 1_555
C26A C25A 1_555 1_555
H17A C26A 1_555 1_555
C27A C26A 1_555 1_555
H18A C27A 1_555 1_555
C28A C27A 1_555 1_555
C29A C28A 1_555 1_555
C30A C25A 1_555 1_555
H19A C30A 1_555 1_555
C31A C32A 1_555 1_555
C32A H20A 1_555 1_555
C33A C32A 1_555 1_555
H21A C33A 1_555 1_555
C34A C8A 1_555 1_555
C35A C34A 1_555 1_555
H22A C35A 1_555 1_555
C36A C29A 1_555 1_555
C43A C44A 1_555 1_555
C44A H26A 1_555 1_555
C45A C44A 1_555 1_555
H27A C45A 1_555 1_555
C46A C45A 1_555 1_555
C47A C46A 1_555 1_555
H28A C47A 1_555 1_555
C48A C43A 1_555 1_555
H29A C48A 1_555 1_555
C49A C50A 1_555 1_555
C50A H30A 1_555 1_555
C51A C50A 1_555 1_555
H31A C51A 1_555 1_555
C52A C51A 1_555 1_555
C53A C52A 1_555 1_555
H32A C53A 1_555 1_555
C54A C49A 1_555 1_555
H33A C54A 1_555 1_555
C61A C62A 1_555 1_555
C62A H37A 1_555 1_555
C63A C62A 1_555 1_555
H38A C63A 1_555 1_555
C64A C63A 1_555 1_555
C65A C64A 1_555 1_555
H39A C65A 1_555 1_555
C66A C61A 1_555 1_555
H40A C66A 1_555 1_555
C67A C68A 1_555 1_555
C68A H41A 1_555 1_555
C69A C68A 1_555 1_555
H42A C69A 1_555 1_555
C70A C69A 1_555 1_555
C71A C70A 1_555 1_555
H43A C71A 1_555 1_555
C72A C67A 1_555 1_555
H44A C72A 1_555 1_555
N3A C6A 1_555 1_555
N4A C1A 1_555 1_555
O1A C16A 1_555 1_555
O2A C16A 1_555 1_555
O3A C17A 1_555 1_555
O4A C17A 1_555 1_555
O5A C23A 1_555 1_555
O6A C23A 1_555 1_555
O7A C24A 1_555 1_555
O8A C24A 1_555 1_555
O9A C46A 1_555 1_555
O10A C64A 1_555 1_555
S3A C28A 1_555 1_555
Zn1A N2A 1_555 1_555
Zn2A N3A 1_555 1_555
N1A_2 Zn2A 1_555 1_555
N4B Zn1A 1_555 1_555
N4C Zn1 1_555 1_555
O7B Zn2 1_555 1_555
O7C Zn2A 1_555 1_555
O8B Zn2 1_555 1_555
O8C Zn2A 1_555 1_555
Zn1B N4A 1_555 1_555
Zn1C N4 1_555 1_555
Zn2A_2 N1A 1_555 1_555
Zn2B O7 1_555 1_555
Zn2C O7A 1_555 1_555
H45A O11 1_555 1_555
H46A O12 1_555 1_555
H51A O15 1_555 1_555
C5 N4 1_555 1_555
C10 N3 1_555 1_555
C15 N1 1_555 1_555
C22 N2 1_555 1_555
C29 C30 1_555 1_555
C31 C36 1_555 1_555
C31 S3 1_555 1_555
C33 C34 1_555 1_555
C35 C36 1_555 1_555
C41 C42 1_555 1_555
C47 C48 1_555 1_555
C49 O9 1_555 1_555
C53 C54 1_555 1_555
C57 C58 1_555 1_555
C59 C60 1_555 1_555
C65 C66 1_555 1_555
C67 O10 1_555 1_555
C71 C72 1_555 1_555
N3 Zn2 1_555 1_555
O1 Zn2 1_555 1_555
O4 Zn1 1_555 1_555
O5 Zn1 1_555 1_555
O8 Zn2B 1_555 1_555
C15A N1A 1_555 1_555
C39A C40A 1_555 1_555
C40A C41A 1_555 1_555
C41A C42A 1_555 1_555
C22A N2A 1_555 1_555
C55A C56A 1_555 1_555
C57A C58A 1_555 1_555
C59A C60A 1_555 1_555
C5A N4A 1_555 1_555
C10A N3A 1_555 1_555
C29A C30A 1_555 1_555
C31A C36A 1_555 1_555
C31A S3A 1_555 1_555
C33A C34A 1_555 1_555
C35A C36A 1_555 1_555
C47A C48A 1_555 1_555
C49A O9A 1_555 1_555
C53A C54A 1_555 1_555
C65A C66A 1_555 1_555
C67A O10A 1_555 1_555
C71A C72A 1_555 1_555
O1A Zn2A 1_555 1_555
O4A Zn1A 1_555 1_555
O5A Zn1A 1_555 1_555
O8A Zn2C 1_555 1_555

#END
