
#######################################################################
#
#                 Cambridge Crystallographic Data Centre
#                                CCDC 
#
#######################################################################
#
# If this CIF has been generated from an entry in the Cambridge 
# Structural Database, then it will include bibliographic, chemical, 
# crystal, experimental, refinement or atomic coordinate data resulting 
# from the CCDC's data processing and validation procedures.
#
#######################################################################

data_TOHXIZ
_symmetry_cell_setting           monoclinic
_symmetry_space_group_name_H-M   'P 21/c'
_symmetry_Int_Tables_number      14
_space_group_name_Hall           '-P 2ybc'
loop_
_symmetry_equiv_pos_site_id
_symmetry_equiv_pos_as_xyz
1 x,y,z
2 -x,1/2+y,1/2-z
3 -x,-y,-z
4 x,1/2-y,1/2+z
_cell_length_a                   10.298(2)
_cell_length_b                   14.785(3)
_cell_length_c                   28.235(6)
_cell_angle_alpha                90
_cell_angle_beta                 97.748(3)
_cell_angle_gamma                90
_cell_volume                     4259.7
loop_
_atom_site_label
_atom_site_type_symbol
_atom_site_fract_x
_atom_site_fract_y
_atom_site_fract_z
Sm1 Sm -0.09625(8) 0.63312(5) 0.41506(3)
Cd1 Cd -0.13792(12) 0.90540(8) 0.42875(5)
S1 S -0.1951(4) 0.6418(3) 0.30374(14)
O1 O 0.0744(11) 0.5943(8) 0.3687(4)
O2 O -0.3323(11) 0.6395(8) 0.4101(4)
O3 O -0.1422(12) 0.7168(9) 0.3360(4)
O4 O -0.2521(11) 0.7749(8) 0.4237(4)
O5 O -0.1989(12) 0.5623(8) 0.3348(4)
N1 N 0.4343(14) 0.6975(10) 0.3019(5)
C1 C 0.1558(16) 0.5665(11) 0.3419(6)
O6 O 0.1694(12) 0.4892(8) 0.3293(4)
O7 O 0.1113(12) 0.3490(8) 0.4978(4)
O8 O -0.3238(12) 0.6648(9) 0.2792(4)
O9 O -0.9664(11) 0.7656(8) 0.4307(4)
C2 C -0.5173(18) 0.1231(13) 0.4539(6)
H1 H -0.5801 0.1506 0.4716
H2 H -0.4794 0.0713 0.4710
H3 H -0.5600 0.1045 0.4231
C3 C 0.2635(16) 0.8025(11) 0.3077(6)
C4 C 0.3943(17) 0.7860(12) 0.3004(6)
C5 C 0.1904(16) 0.7269(11) 0.3188(6)
H4 H 0.1039 0.7360 0.3238
C6 C 0.4976(18) 0.8529(13) 0.2915(6)
H5 H 0.5366 0.8782 0.3214
H6 H 0.4588 0.9003 0.2711
H7 H 0.5638 0.8230 0.2764
O10 O 0.0834(14) 0.9020(10) 0.3031(5)
O11 O 0.2836(14) 0.9628(10) 0.3074(5)
C7 C 0.2091(16) 0.8977(12) 0.3059(6)
O12 O -0.1051(12) 0.6235(8) 0.2684(4)
O13 O -0.1614(11) 0.4814(8) 0.4350(4)
O14 O -0.0753(11) 0.3803(8) 0.3907(4)
C8 C -0.2403(14) 0.3310(10) 0.4333(5)
C9 C -0.1538(15) 0.4043(11) 0.4180(5)
N2 N -0.4459(13) 0.2765(9) 0.4501(4)
C10 C -0.3681(16) 0.3487(11) 0.4438(6)
C11 C -0.2050(16) 0.2400(11) 0.4320(5)
H8 H -0.1209 0.2269 0.4254
C12 C -0.2829(16) 0.1695(11) 0.4396(5)
C13 C -0.4130(15) 0.1890(11) 0.4477(5)
C14 C -0.4303(19) 0.4399(13) 0.4465(7)
H9 H -0.5240 0.4335 0.4422
H10 H -0.4050 0.4781 0.4219
H11 H -0.4019 0.4664 0.4772
Sm2 Sm 0.10182(8) 0.34189(6) 0.34971(3)
O15 O 0.3411(13) 0.3318(9) 0.3523(5)
O16 O 0.1418(11) 0.2582(8) 0.4281(4)
O17 O 0.3298(12) 0.3123(9) 0.4818(4)
O18 O -0.0776(13) 0.4189(10) 0.2996(5)
H12 H -0.159(5) 0.425(14) 0.302(6)
H13 H -0.069(15) 0.434(14) 0.271(3)
C15 C 0.4320(19) 0.5368(14) 0.3131(7)
H14 H 0.3974 0.4960 0.3347
H15 H 0.5235 0.5468 0.3236
H16 H 0.4211 0.5111 0.2816
C16 C 0.2381(15) 0.6429(11) 0.3227(5)
C17 C 0.3605(17) 0.6247(12) 0.3122(6)
O19 O 0.1961(11) 0.4140(8) 0.4284(4)
O20 O -0.1073(14) 0.8867(10) 0.5084(5)
H17 H -0.140(16) 0.836(7) 0.515(6)
H18 H -0.046(14) 0.896(12) 0.531(5)
O21 O -0.9144(12) 0.9090(9) 0.4318(4)
C18 C -0.5202(16) 0.8436(12) 0.4218(6)
H19 H -0.4576 0.8872 0.4177
C19 C -0.3484(15) 0.7204(11) 0.4192(5)
C20 C -0.7416(15) 0.8035(11) 0.4316(5)
C21 C -0.4852(16) 0.7529(11) 0.4243(6)
C22 C -0.6493(16) 0.8699(12) 0.4253(6)
H20 H -0.6729 0.9306 0.4235
C23 C -0.7029(17) 0.7133(12) 0.4357(6)
H21 H -0.7636 0.6693 0.4414
C24 C -0.8818(15) 0.8271(11) 0.4317(5)
C25 C -0.5788(15) 0.6886(11) 0.4317(5)
H22 H -0.5556 0.6278 0.4338
O22 O -0.1146(12) 0.0655(9) 0.4339(4)
O23 O -0.3104(14) 0.0097(10) 0.4333(5)
C26 C -0.2322(17) 0.0749(12) 0.4365(6)
O24 O 0.2536(11) 0.2012(8) 0.3313(4)
C27 C 0.4845(15) 0.2202(11) 0.3278(5)
C28 C 0.5188(17) 0.1306(12) 0.3240(6)
H23 H 0.4560 0.0858 0.3254
C29 C 0.5799(16) 0.2870(12) 0.3249(6)
H24 H 0.5581 0.3478 0.3267
C30 C 0.3516(16) 0.2530(11) 0.3371(6)
C31 C 0.7056(17) 0.2624(12) 0.3192(6)
H25 H 0.7678 0.3072 0.3167
C32 C 0.7410(15) 0.1734(11) 0.3171(5)
C33 C 0.6431(16) 0.1070(12) 0.3183(6)
H26 H 0.6640 0.0463 0.3152
O25 O 0.9681(12) 0.2089(8) 0.3256(4)
O26 O 0.9106(13) 0.0689(9) 0.3060(5)
O27 O 0.1135(16) 0.3251(11) 0.2623(6)
H27 H 0.197(2) 0.325(13) 0.265(8)
H28 H 0.091(18) 0.270(4) 0.261(8)
C34 C 0.8855(16) 0.1479(11) 0.3163(6)
S2 S 0.1970(4) 0.3329(3) 0.46016(14)
O28 O 0.0896(11) 0.5620(8) 0.4645(4)
H29 H 0.160(9) 0.542(12) 0.456(5)
H30 H 0.099(14) 0.555(12) 0.4946(10)
O29 O -0.1752(13) 0.9025(9) 0.3478(4)
H31 H -0.193(19) 0.846(3) 0.347(5)
H32 H -0.186(19) 0.920(10) 0.3189(18)
Cd2 Cd 1.13165(12) 0.07527(8) 0.30953(4)
O30 O 1.1729(13) 0.0648(9) 0.3907(4)
H33 H 1.212(16) 0.078(12) 0.418(3)
H34 H 1.124(16) 0.021(9) 0.395(5)
Sm1_2 Sm -1.09625(8) 0.63312(5) 0.41506(3)
Sm1B Sm 0.09625(8) 0.36688(5) 0.58494(3)
Cd1_2 Cd -1.13792(12) 0.90540(8) 0.42875(5)
Cd1_3 Cd -0.13792(12) -0.09460(8) 0.42875(5)
O7B O -0.1113(12) 0.6510(8) 0.5022(4)
O9_2 O 0.0336(11) 0.7656(8) 0.4307(4)
O10_2 O 1.0834(14) -0.0980(10) 0.3031(5)
O11_2 O 1.2836(14) -0.0372(10) 0.3074(5)
O12A O 1.1051(12) 0.1235(8) 0.2316(4)
Sm2_2 Sm 1.10182(8) 0.34189(6) 0.34971(3)
O21_2 O 0.0856(12) 0.9090(9) 0.4318(4)
O22_2 O -0.1146(12) 1.0655(9) 0.4339(4)
O23_2 O -0.3104(14) 1.0097(10) 0.4333(5)
O24_2 O 1.2536(11) 0.2012(8) 0.3313(4)
O25_2 O -0.0319(12) 0.2089(8) 0.3256(4)
Cd2_2 Cd 0.13165(12) 0.07527(8) 0.30953(4)
Cd2_3 Cd 0.13165(12) 1.07527(8) 0.30953(4)
Cd2A Cd -0.13165(12) 0.57527(8) 0.19047(4)
loop_
_geom_bond_atom_site_label_1
_geom_bond_atom_site_label_2
_geom_bond_site_symmetry_1
_geom_bond_site_symmetry_2
Sm1 O1 1_555 1_555
Cd1 O4 1_555 1_555
S1 O3 1_555 1_555
O1 C1 1_555 1_555
O2 Sm1 1_555 1_555
O3 Sm1 1_555 1_555
O4 Sm1 1_555 1_555
O5 Sm1 1_555 1_555
N1 C4 1_555 1_555
C1 O6 1_555 1_555
O6 Sm2 1_555 1_555
O7 S2 1_555 1_555
O8 S1 1_555 1_555
O9 C24 1_555 1_555
C2 H1 1_555 1_555
H2 C2 1_555 1_555
H3 C2 1_555 1_555
C3 C4 1_555 1_555
C4 C6 1_555 1_555
C5 C3 1_555 1_555
H4 C5 1_555 1_555
C6 H5 1_555 1_555
H6 C6 1_555 1_555
H7 C6 1_555 1_555
O10 C7 1_555 1_555
O11 C7 1_555 1_555
C7 C3 1_555 1_555
O12 S1 1_555 1_555
O13 Sm1 1_555 1_555
O14 C9 1_555 1_555
C8 C9 1_555 1_555
C9 O13 1_555 1_555
N2 C10 1_555 1_555
C10 C8 1_555 1_555
C11 C8 1_555 1_555
H8 C11 1_555 1_555
C12 C11 1_555 1_555
C13 C2 1_555 1_555
C14 C10 1_555 1_555
H9 C14 1_555 1_555
H10 C14 1_555 1_555
H11 C14 1_555 1_555
Sm2 O14 1_555 1_555
O15 Sm2 1_555 1_555
O16 Sm2 1_555 1_555
O17 S2 1_555 1_555
O18 Sm2 1_555 1_555
H12 O18 1_555 1_555
H13 O18 1_555 1_555
C15 H14 1_555 1_555
H15 C15 1_555 1_555
H16 C15 1_555 1_555
C16 C1 1_555 1_555
C17 N1 1_555 1_555
O19 Sm2 1_555 1_555
O20 Cd1 1_555 1_555
H17 O20 1_555 1_555
H18 O20 1_555 1_555
O21 C24 1_555 1_555
C18 H19 1_555 1_555
C19 O2 1_555 1_555
C20 C22 1_555 1_555
C21 C18 1_555 1_555
C22 C18 1_555 1_555
H20 C22 1_555 1_555
C23 C20 1_555 1_555
H21 C23 1_555 1_555
C24 C20 1_555 1_555
C25 C21 1_555 1_555
H22 C25 1_555 1_555
O22 C26 1_555 1_555
O23 C26 1_555 1_555
C26 C12 1_555 1_555
O24 Sm2 1_555 1_555
C27 C28 1_555 1_555
C28 H23 1_555 1_555
C29 C27 1_555 1_555
H24 C29 1_555 1_555
C30 O15 1_555 1_555
C31 C29 1_555 1_555
H25 C31 1_555 1_555
C32 C31 1_555 1_555
C33 C28 1_555 1_555
H26 C33 1_555 1_555
O25 C34 1_555 1_555
O26 C34 1_555 1_555
O27 Sm2 1_555 1_555
H27 O27 1_555 1_555
H28 O27 1_555 1_555
C34 C32 1_555 1_555
S2 O16 1_555 1_555
O28 Sm1 1_555 1_555
H29 O28 1_555 1_555
H30 O28 1_555 1_555
O29 Cd1 1_555 1_555
H31 O29 1_555 1_555
H32 O29 1_555 1_555
Cd2 O25 1_555 1_555
O30 Cd2 1_555 1_555
H33 O30 1_555 1_555
H34 O30 1_555 1_555
Sm1_2 O9 1_555 1_555
Sm1B O7 1_555 1_555
Cd1_2 O9 1_555 1_555
Cd1_3 O22 1_555 1_555
O7B Sm1 1_555 1_555
O9_2 Sm1 1_555 1_555
O10_2 Cd2 1_555 1_555
O11_2 Cd2 1_555 1_555
O12A Cd2 1_555 1_555
Sm2_2 O25 1_555 1_555
O21_2 Cd1 1_555 1_555
O22_2 Cd1 1_555 1_555
O23_2 Cd1 1_555 1_555
O24_2 Cd2 1_555 1_555
O25_2 Sm2 1_555 1_555
Cd2_2 O24 1_555 1_555
Cd2_3 O10 1_555 1_555
Cd2A O12 1_555 1_555
Cd1 O9_2 1_555 1_555
S1 O5 1_555 1_555
O4 C19 1_555 1_555
C5 C16 1_555 1_555
O11 Cd2_3 1_555 1_555
N2 C13 1_555 1_555
C12 C13 1_555 1_555
C15 C17 1_555 1_555
C16 C17 1_555 1_555
O19 S2 1_555 1_555
O21 Cd1_2 1_555 1_555
C19 C21 1_555 1_555
C23 C25 1_555 1_555
O23 Cd1_3 1_555 1_555
O24 C30 1_555 1_555
C27 C30 1_555 1_555
C32 C33 1_555 1_555
O26 Cd2 1_555 1_555
Sm2_2 O24_2 1_555 1_555
O25_2 Cd2_2 1_555 1_555

#END
