
#######################################################################
#
#                 Cambridge Crystallographic Data Centre
#                                CCDC 
#
#######################################################################
#
# If this CIF has been generated from an entry in the Cambridge 
# Structural Database, then it will include bibliographic, chemical, 
# crystal, experimental, refinement or atomic coordinate data resulting 
# from the CCDC's data processing and validation procedures.
#
#######################################################################

data_TOHYOG
_symmetry_cell_setting           monoclinic
_symmetry_space_group_name_H-M   'P 2/c'
_symmetry_Int_Tables_number      13
_space_group_name_Hall           '-P 2yc'
loop_
_symmetry_equiv_pos_site_id
_symmetry_equiv_pos_as_xyz
1 x,y,z
2 -x,y,1/2-z
3 -x,-y,-z
4 x,-y,1/2+z
_cell_length_a                   11.7210(5)
_cell_length_b                   7.1535(3)
_cell_length_c                   20.8963(9)
_cell_angle_alpha                90
_cell_angle_beta                 105.429(4)
_cell_angle_gamma                90
_cell_volume                     1688.93
loop_
_atom_site_label
_atom_site_type_symbol
_atom_site_fract_x
_atom_site_fract_y
_atom_site_fract_z
Mo1 Mo 1.63856(9) 0.42543(16) 0.52139(6)
Mo2 Mo 1.46930(10) 0.11893(16) 0.56364(5)
Cu1 Cu 1.29191(18) 0.1028(3) 0.42035(10)
O1 O 1.4682(8) 0.4027(14) 0.5384(5)
O2 O 1.6397(9) 0.2045(14) 0.5684(5)
O3 O 1.4677(10) 0.1382(18) 0.6427(6)
O4 O 1.7180(10) 0.5734(15) 0.5802(6)
O5 O 1.7293(9) 0.3627(17) 0.4724(6)
O6 O 1.3192(9) 0.1024(15) 0.5187(5)
O7 O 1.5268(8) -0.1164(15) 0.5556(5)
N1 N 0.8778(10) 0.050(2) 0.0900(6)
N2 N 1.2800(12) 0.1222(19) 0.3240(6)
N3 N 1.3240(12) 0.277(2) 0.3014(7)
H1 H 1.3591 0.3667 0.3264
N4 N 0.9059(11) -0.1055(18) 0.0604(7)
H2 H 0.8551 -0.1791 0.0354
C1 C 1.2462(14) 0.109(2) 0.2124(7)
C2 C 1.0742(12) 0.011(2) 0.1161(7)
C3 C 0.9808(13) 0.125(2) 0.1238(8)
C4 C 1.0241(14) -0.129(2) 0.0754(8)
C5 C 1.2337(14) 0.018(2) 0.2704(8)
C6 C 1.2061(13) 0.041(3) 0.1422(8)
H3 H 1.2308 0.1314 0.1138
H4 H 1.2459 -0.0756 0.1388
C7 C 1.3057(14) 0.273(3) 0.2350(8)
C8 C 1.0752(17) -0.292(3) 0.0476(11)
H5 H 1.0126 -0.3614 0.0181
H6 H 1.1165 -0.3721 0.0832
H7 H 1.1293 -0.2480 0.0236
C9 C 0.9829(16) 0.305(3) 0.1598(11)
H8 H 0.9033 0.3435 0.1572
H9 H 1.0211 0.3988 0.1399
H10 H 1.0257 0.2892 0.2055
C10 C 1.181(2) -0.164(3) 0.2757(11)
H11 H 1.1854 -0.1900 0.3214
H12 H 1.2226 -0.2593 0.2587
H13 H 1.0992 -0.1634 0.2505
C11 C 1.340(3) 0.433(4) 0.1956(12)
H14 H 1.3804 0.5283 0.2257
H15 H 1.2701 0.4854 0.1662
H16 H 1.3914 0.3873 0.1702
Mo1B Mo 1.36144(9) 0.57457(16) 0.47861(6)
Mo2B Mo 1.53070(10) -0.11893(16) 0.43636(5)
Cu1A Cu 0.70809(18) 0.1028(3) 0.07965(10)
Cu1B Cu 1.70809(18) -0.1028(3) 0.57965(10)
Cu1B_2 Cu 1.70809(18) 0.8972(3) 0.57965(10)
O1B O 1.5318(8) 0.5973(14) 0.4616(5)
O2B O 1.3603(9) -0.2045(14) 0.4316(5)
O4B O 1.2820(10) 0.4266(15) 0.4198(6)
O7B O 1.4732(8) 0.1164(15) 0.4444(5)
N1A N 1.1222(10) 0.050(2) 0.4100(6)
loop_
_geom_bond_atom_site_label_1
_geom_bond_atom_site_label_2
_geom_bond_site_symmetry_1
_geom_bond_site_symmetry_2
Mo1 O1 1_555 1_555
Mo2 O1 1_555 1_555
Cu1 O6 1_555 1_555
O1 Mo1B 1_555 1_555
O2 Mo1 1_555 1_555
O3 Mo2 1_555 1_555
O4 Mo1 1_555 1_555
O5 Mo1 1_555 1_555
O6 Mo2 1_555 1_555
O7 Mo2 1_555 1_555
N1 N4 1_555 1_555
N2 Cu1 1_555 1_555
N3 N2 1_555 1_555
H1 N3 1_555 1_555
N4 H2 1_555 1_555
C1 C5 1_555 1_555
C2 C3 1_555 1_555
C3 N1 1_555 1_555
C4 N4 1_555 1_555
C5 N2 1_555 1_555
C6 C1 1_555 1_555
H3 C6 1_555 1_555
H4 C6 1_555 1_555
C7 N3 1_555 1_555
C8 C4 1_555 1_555
H5 C8 1_555 1_555
H6 C8 1_555 1_555
H7 C8 1_555 1_555
C9 C3 1_555 1_555
H8 C9 1_555 1_555
H9 C9 1_555 1_555
H10 C9 1_555 1_555
C10 C5 1_555 1_555
H11 C10 1_555 1_555
H12 C10 1_555 1_555
H13 C10 1_555 1_555
C11 C7 1_555 1_555
H14 C11 1_555 1_555
H15 C11 1_555 1_555
H16 C11 1_555 1_555
Mo1B O1B 1_555 1_555
Mo2B O7 1_555 1_555
Cu1A N1 1_555 1_555
Cu1B O2 1_555 1_555
Cu1B_2 O4 1_555 1_555
O1B Mo1 1_555 1_555
O2B Cu1 1_555 1_555
O4B Cu1 1_555 1_555
O7B Mo2 1_555 1_555
N1A Cu1 1_555 1_555
Mo2 O2 1_555 1_555
Cu1 O7B 1_555 1_555
O7 Cu1B 1_555 1_555
C1 C7 1_555 1_555
C2 C4 1_555 1_555
C2 C6 1_555 1_555
Mo1B O4B 1_555 1_555
Mo2B O2B 1_555 1_555
Mo2B O7B 1_555 1_555

#END
