
#######################################################################
#
#                 Cambridge Crystallographic Data Centre
#                                CCDC 
#
#######################################################################
#
# If this CIF has been generated from an entry in the Cambridge 
# Structural Database, then it will include bibliographic, chemical, 
# crystal, experimental, refinement or atomic coordinate data resulting 
# from the CCDC's data processing and validation procedures.
#
#######################################################################

data_TOHYUL
_symmetry_cell_setting           orthorhombic
_symmetry_space_group_name_H-M   'P n a 21'
_symmetry_Int_Tables_number      33
_space_group_name_Hall           'P 2c -2n'
loop_
_symmetry_equiv_pos_site_id
_symmetry_equiv_pos_as_xyz
1 x,y,z
2 -x,-y,1/2+z
3 1/2-x,1/2+y,1/2+z
4 1/2+x,1/2-y,z
_cell_length_a                   17.640(2)
_cell_length_b                   13.380(3)
_cell_length_c                   21.460(4)
_cell_angle_alpha                90
_cell_angle_beta                 90
_cell_angle_gamma                90
_cell_volume                     5065.06
loop_
_atom_site_label
_atom_site_type_symbol
_atom_site_fract_x
_atom_site_fract_y
_atom_site_fract_z
Cd1 Cd 0.12778(4) 0.29706(6) 0.85687(4)
Cd2 Cd -0.05659(4) 0.32948(6) 0.76575(4)
Cd3 Cd -0.19928(4) 0.14712(6) 0.78012(4)
O1 O 0.0258(7) -0.1746(7) 0.8164(4)
O2 O 0.0161(5) -0.3530(7) 0.9940(4)
O3 O 0.0886(6) -0.0289(7) 0.9998(5)
O4 O 0.0549(4) 0.1734(6) 0.8149(4)
O5 O -0.0669(4) 0.1695(6) 0.7944(5)
O6 O -0.0426(4) -0.5020(5) 0.7849(5)
O7 O 0.0181(4) -0.6057(6) 0.8462(4)
O8 O 0.1105(5) -0.3441(7) 1.1747(4)
O9 O 0.1646(5) -0.1961(7) 1.1839(4)
O10 O 0.3910(5) 0.6702(6) 1.0214(5)
O11 O 0.3181(6) 0.9938(7) 1.0358(4)
O12 O 0.2417(7) 0.8068(7) 0.8713(4)
O13 O 0.2978(4) 0.4473(6) 0.8647(4)
O14 O 0.1802(4) 0.4315(6) 0.9006(4)
O15 O 0.4401(4) 0.8348(6) 1.2129(4)
O16 O 0.3282(4) 0.8292(6) 1.2602(4)
O17 O 0.3198(4) 1.1950(6) 0.8155(4)
O18 O 0.2170(4) 1.1797(6) 0.8749(4)
O19 O 0.0734(5) 0.2566(7) 0.9480(4)
O20 O -0.2040(6) -0.0054(7) 0.7341(5)
N1 N 0.0558(5) -0.0952(8) 0.9076(5)
N2 N 0.0167(6) -0.2650(7) 0.9046(5)
N3 N 0.0628(5) -0.1962(8) 0.9970(5)
N4 N 0.3136(5) 0.7358(7) 0.9469(5)
N5 N 0.2831(5) 0.9070(7) 0.9511(4)
N6 N 0.3469(5) 0.8291(7) 1.0349(4)
N7 N 0.0030(8) 0.3173(10) 1.0285(6)
N8 N -0.1854(8) -0.1258(9) 0.6624(6)
C1 C 0.0339(7) -0.1789(9) 0.8714(7)
C2 C 0.0328(6) -0.2755(10) 0.9672(6)
C3 C 0.0698(7) -0.1008(10) 0.9702(6)
C4 C 0.0612(6) 0.0010(9) 0.8750(6)
H1 H 0.0921 -0.0066 0.8379
H2 H 0.0854 0.0498 0.9018
C5 C -0.0169(6) 0.0377(8) 0.8569(7)
H3 H -0.0428 -0.0124 0.8322
H4 H -0.0469 0.0507 0.8940
C6 C -0.0073(7) 0.1328(8) 0.8197(6)
C7 C -0.0144(7) -0.3494(9) 0.8706(7)
H5 H -0.0350 -0.3261 0.8313
H6 H -0.0556 -0.3784 0.8945
C8 C 0.0437(6) -0.4274(9) 0.8582(7)
H7 H 0.0669 -0.4485 0.8970
H8 H 0.0830 -0.4009 0.8313
C9 C 0.0041(6) -0.5179(8) 0.8262(6)
C10 C 0.0732(7) -0.2058(11) 1.0645(6)
H9 H 0.0296 -0.2400 1.0820
H10 H 0.0753 -0.1396 1.0828
C11 C 0.1457(7) -0.2637(10) 1.0824(6)
H11 H 0.1461 -0.3295 1.0634
H12 H 0.1907 -0.2276 1.0693
C12 C 0.1418(6) -0.2712(9) 1.1528(6)
C13 C 0.3522(6) 0.7396(9) 1.0027(6)
C14 C 0.3159(6) 0.9174(9) 1.0081(6)
C15 C 0.2773(6) 0.8139(9) 0.9202(6)
C16 C 0.3156(8) 0.6379(9) 0.9116(6)
H13 H 0.3630 0.6037 0.9200
H14 H 0.3127 0.6508 0.8672
C17 C 0.2493(7) 0.5719(9) 0.9314(6)
H15 H 0.2548 0.5563 0.9753
H16 H 0.2027 0.6096 0.9264
C18 C 0.2422(7) 0.4753(8) 0.8955(5)
C19 C 0.2530(6) 0.9959(8) 0.9225(5)
H17 H 0.2330 1.0394 0.9547
H18 H 0.2114 0.9775 0.8953
C20 C 0.3118(6) 1.0525(9) 0.8851(5)
H19 H 0.3297 1.0104 0.8514
H20 H 0.3547 1.0678 0.9117
C21 C 0.2800(6) 1.1501(8) 0.8579(5)
C22 C 0.3853(7) 0.8391(11) 1.0945(6)
H21 H 0.4114 0.9030 1.0957
H22 H 0.4232 0.7869 1.0981
C23 C 0.3318(7) 0.8326(13) 1.1494(7)
H23 H 0.2980 0.8897 1.1485
H24 H 0.3012 0.7728 1.1452
C24 C 0.3717(6) 0.8299(9) 1.2112(6)
C25 C 0.0587(8) 0.3233(13) 0.9850(8)
C26 C -0.0427(9) 0.2236(15) 1.0306(8)
H25 H -0.0102 0.1665 1.0230
H26 H -0.0652 0.2160 1.0716
C27 C -0.1029(11) 0.2277(17) 0.9830(10)
H27 H -0.1326 0.1676 0.9849
H28 H -0.0804 0.2336 0.9425
H29 H -0.1349 0.2844 0.9907
C28 C -0.0104(17) 0.4016(18) 1.0684(9)
H30 H -0.0647 0.4125 1.0698
H31 H 0.0118 0.4596 1.0484
C29 C 0.017(2) 0.400(2) 1.1327(14)
H32 H 0.0018 0.4599 1.1536
H33 H 0.0713 0.3947 1.1329
H34 H -0.0042 0.3430 1.1539
C30 C -0.1847(8) -0.0320(9) 0.6809(7)
C31 C -0.1591(10) -0.1553(11) 0.6008(8)
H35 H -0.1419 -0.0961 0.5789
H36 H -0.1159 -0.1994 0.6056
C32 C -0.2176(11) -0.2072(13) 0.5612(10)
H37 H -0.1963 -0.2223 0.5212
H38 H -0.2331 -0.2681 0.5812
H39 H -0.2608 -0.1643 0.5560
C33 C -0.2025(12) -0.2037(11) 0.7085(9)
H40 H -0.2332 -0.2554 0.6893
H41 H -0.2313 -0.1750 0.7426
C34 C -0.1338(17) -0.247(2) 0.732(2)
H42 H -0.1459 -0.2980 0.7620
H43 H -0.1055 -0.2757 0.6984
H44 H -0.1039 -0.1960 0.7520
Cd1_2 Cd 0.12778(4) -0.70294(6) 0.85687(4)
Cd1B Cd 0.37222(4) 0.79706(6) 1.35687(4)
Cd1_3 Cd 0.12778(4) 1.29706(6) 0.85687(4)
Cd2_2 Cd -0.05659(4) -0.67052(6) 0.76575(4)
Cd2A Cd 0.05659(4) -0.32948(6) 1.26575(4)
Cd2B Cd 0.55659(4) 0.82948(6) 1.26575(4)
Cd2C Cd 0.44341(4) 1.17052(6) 0.76575(4)
Cd3A Cd 0.19928(4) -0.14712(6) 1.28012(4)
Cd3C Cd 0.30072(4) 0.35288(6) 0.78012(4)
Cd3A_2 Cd 0.19928(4) 0.85288(6) 1.28012(4)
Cd3C_2 Cd 0.30072(4) 1.35288(6) 0.78012(4)
O6_2 O -0.0426(4) 0.4980(5) 0.7849(5)
O7_2 O 0.0181(4) 0.3943(6) 0.8462(4)
O8A O -0.1105(5) 0.3441(7) 0.6747(4)
O9A O -0.1646(5) 0.1961(7) 0.6839(4)
O13C O -0.2022(4) 0.0527(6) 0.8647(4)
O15B O 0.0599(4) 0.3348(6) 0.7129(4)
O16B O 0.1718(4) 0.3292(6) 0.7602(4)
O16A O -0.3282(4) 0.1708(6) 0.7602(4)
O17C O -0.1802(4) 0.3050(6) 0.8155(4)
O18_2 O 0.2170(4) 0.1797(6) 0.8749(4)
loop_
_geom_bond_atom_site_label_1
_geom_bond_atom_site_label_2
_geom_bond_site_symmetry_1
_geom_bond_site_symmetry_2
Cd1 O4 1_555 1_555
Cd2 O5 1_555 1_555
Cd3 O5 1_555 1_555
O1 C1 1_555 1_555
O2 C2 1_555 1_555
O3 C3 1_555 1_555
O4 C6 1_555 1_555
O5 C6 1_555 1_555
O6 C9 1_555 1_555
O7 C9 1_555 1_555
O8 C12 1_555 1_555
O9 C12 1_555 1_555
O10 C13 1_555 1_555
O11 C14 1_555 1_555
O12 C15 1_555 1_555
O13 C18 1_555 1_555
O14 Cd1 1_555 1_555
O15 C24 1_555 1_555
O16 C24 1_555 1_555
O17 C21 1_555 1_555
O18 C21 1_555 1_555
O19 Cd1 1_555 1_555
O20 Cd3 1_555 1_555
N1 C1 1_555 1_555
N2 C1 1_555 1_555
N3 C2 1_555 1_555
N4 C13 1_555 1_555
N5 C14 1_555 1_555
N6 C13 1_555 1_555
N7 C25 1_555 1_555
N8 C30 1_555 1_555
C2 N2 1_555 1_555
C3 N1 1_555 1_555
C4 N1 1_555 1_555
H1 C4 1_555 1_555
H2 C4 1_555 1_555
C5 C4 1_555 1_555
H3 C5 1_555 1_555
H4 C5 1_555 1_555
C6 C5 1_555 1_555
C7 N2 1_555 1_555
H5 C7 1_555 1_555
H6 C7 1_555 1_555
C8 C7 1_555 1_555
H7 C8 1_555 1_555
H8 C8 1_555 1_555
C9 C8 1_555 1_555
C10 N3 1_555 1_555
H9 C10 1_555 1_555
H10 C10 1_555 1_555
C11 C10 1_555 1_555
H11 C11 1_555 1_555
H12 C11 1_555 1_555
C12 C11 1_555 1_555
C14 N6 1_555 1_555
C15 N4 1_555 1_555
C16 N4 1_555 1_555
H13 C16 1_555 1_555
H14 C16 1_555 1_555
C17 C16 1_555 1_555
H15 C17 1_555 1_555
H16 C17 1_555 1_555
C18 O14 1_555 1_555
C19 N5 1_555 1_555
H17 C19 1_555 1_555
H18 C19 1_555 1_555
C20 C19 1_555 1_555
H19 C20 1_555 1_555
H20 C20 1_555 1_555
C21 C20 1_555 1_555
C22 N6 1_555 1_555
H21 C22 1_555 1_555
H22 C22 1_555 1_555
C23 C22 1_555 1_555
H23 C23 1_555 1_555
H24 C23 1_555 1_555
C24 C23 1_555 1_555
C25 O19 1_555 1_555
C26 N7 1_555 1_555
H25 C26 1_555 1_555
H26 C26 1_555 1_555
C27 C26 1_555 1_555
H27 C27 1_555 1_555
H28 C27 1_555 1_555
H29 C27 1_555 1_555
C28 N7 1_555 1_555
H30 C28 1_555 1_555
H31 C28 1_555 1_555
C29 C28 1_555 1_555
H32 C29 1_555 1_555
H33 C29 1_555 1_555
H34 C29 1_555 1_555
C30 O20 1_555 1_555
C31 N8 1_555 1_555
H35 C31 1_555 1_555
H36 C31 1_555 1_555
C32 C31 1_555 1_555
H37 C32 1_555 1_555
H38 C32 1_555 1_555
H39 C32 1_555 1_555
C33 N8 1_555 1_555
H40 C33 1_555 1_555
H41 C33 1_555 1_555
C34 C33 1_555 1_555
H42 C34 1_555 1_555
H43 C34 1_555 1_555
H44 C34 1_555 1_555
Cd1_2 O7 1_555 1_555
Cd1B O16 1_555 1_555
Cd1_3 O18 1_555 1_555
Cd2_2 O6 1_555 1_555
Cd2A O8 1_555 1_555
Cd2B O15 1_555 1_555
Cd2C O17 1_555 1_555
Cd3A O9 1_555 1_555
Cd3C O13 1_555 1_555
Cd3A_2 O16 1_555 1_555
Cd3C_2 O17 1_555 1_555
O6_2 Cd2 1_555 1_555
O7_2 Cd1 1_555 1_555
O8A Cd2 1_555 1_555
O9A Cd3 1_555 1_555
O13C Cd3 1_555 1_555
O15B Cd2 1_555 1_555
O16B Cd1 1_555 1_555
O16A Cd3 1_555 1_555
O17C Cd2 1_555 1_555
O18_2 Cd1 1_555 1_555
Cd2 O7_2 1_555 1_555
Cd3 O17C 1_555 1_555
O7 Cd2_2 1_555 1_555
N3 C3 1_555 1_555
N5 C15 1_555 1_555
C17 C18 1_555 1_555
Cd3C O16B 1_555 1_555

#END
