
#######################################################################
#
#                 Cambridge Crystallographic Data Centre
#                                CCDC 
#
#######################################################################
#
# If this CIF has been generated from an entry in the Cambridge 
# Structural Database, then it will include bibliographic, chemical, 
# crystal, experimental, refinement or atomic coordinate data resulting 
# from the CCDC's data processing and validation procedures.
#
#######################################################################

data_TOHYIY
_symmetry_cell_setting           triclinic
_symmetry_space_group_name_H-M   'P -1'
_symmetry_Int_Tables_number      2
_space_group_name_Hall           '-P 1'
loop_
_symmetry_equiv_pos_site_id
_symmetry_equiv_pos_as_xyz
1 x,y,z
2 -x,-y,-z
_cell_length_a                   12.898(5)
_cell_length_b                   21.742(4)
_cell_length_c                   9.390(1)
_cell_angle_alpha                99.33(1)
_cell_angle_beta                 96.75(2)
_cell_angle_gamma                76.70(2)
_cell_volume                     2519.85
loop_
_atom_site_label
_atom_site_type_symbol
_atom_site_fract_x
_atom_site_fract_y
_atom_site_fract_z
Pr1 Pr 1.00537(3) 0.00824(2) 0.22125(4)
O1 O 1.1872(4) -0.0015(3) 0.1427(6)
O2 O 1.1741(4) -0.0263(3) -0.0957(6)
O3 O 0.9180(5) -0.0568(3) 0.3283(6)
O4 O 0.8903(5) -0.0416(3) 0.5595(6)
O5 O 0.9926(4) 0.0696(3) -0.0050(6)
O6 O 1.0090(5) 0.1252(3) 0.2086(6)
O7 O 0.8695(5) 0.0870(3) 0.3877(6)
O8 O 1.1446(5) -0.0917(3) 0.3003(6)
N1 N 1.3599(6) -0.0876(5) -0.2262(8)
N2 N 0.7102(6) -0.0843(4) 0.6297(8)
N3 N 0.9647(7) 0.2575(4) 0.2224(9)
C1 C 1.2257(7) -0.0184(4) 0.0221(9)
C2 C 1.3457(7) -0.0314(5) 0.0232(9)
C3 C 1.3842(8) -0.0332(5) -0.1246(10)
C4 C 0.8771(6) -0.0668(4) 0.4322(8)
C5 C 0.8010(8) -0.1117(5) 0.4015(9)
C6 C 0.7740(8) -0.1347(5) 0.532(1)
C7 C 1.0020(7) 0.1211(4) 0.0739(9)
C8 C 1.0025(8) 0.1792(4) 0.0053(9)
C9 C 1.0365(8) 0.2326(5) 0.103(1)
O2A O 0.8259(4) 0.0263(3) 0.0957(6)
O4A O 1.1097(5) 0.0416(3) 0.4405(6)
O5A O 1.0074(4) -0.0696(3) 0.0050(6)
Pr1A Pr 0.99463(3) -0.00824(2) -0.22125(4)
Pr1A_2 Pr 0.99463(3) -0.00824(2) 0.77875(4)
Pr2 Pr 0.49007(4) 0.49757(2) 0.27968(4)
O9 O 0.6127(5) 0.5371(3) 0.1651(6)
O10 O 0.5704(5) 0.5616(3) -0.0568(6)
O11 O 0.4780(5) 0.3923(3) 0.3456(6)
O12 O 0.5216(5) 0.3954(3) 0.5819(6)
O13 O 0.3833(5) 0.5128(3) 0.5114(6)
O14 O 0.2890(4) 0.5171(3) 0.3036(6)
O15 O 0.3794(5) 0.5843(3) 0.1276(6)
O16 O 0.6457(5) 0.4084(3) 0.1889(6)
N4 N 0.6479(7) 0.6689(4) -0.1104(9)
N5 N 0.5991(7) 0.2822(4) 0.6909(8)
N6 N 0.0686(6) 0.5742(4) 0.3067(8)
C10 C 0.6266(7) 0.5636(4) 0.0618(9)
C11 C 0.7124(7) 0.6012(5) 0.084(1)
C12 C 0.7395(8) 0.6220(5) -0.049(1)
C13 C 0.5005(7) 0.3668(4) 0.4587(10)
C14 C 0.5032(9) 0.2970(5) 0.4497(9)
C15 C 0.600(1) 0.2611(5) 0.530(1)
C16 C 0.2931(7) 0.5217(4) 0.4370(8)
C17 C 0.1942(7) 0.5385(5) 0.5152(9)
C18 C 0.0942(8) 0.5314(5) 0.421(1)
O10A O 0.4296(5) 0.4384(3) 0.0568(6)
O12A O 0.4784(5) 0.6046(3) 0.4181(6)
O13A O 0.6167(5) 0.4872(3) 0.4886(6)
Pr2A Pr 0.50993(4) 0.50243(2) -0.27968(4)
Pr2A_2 Pr 0.50993(4) 0.50243(2) 0.72032(4)
Cl1 Cl 0.9116(2) 0.4276(1) 0.0783(2)
O17 O 1.0008(7) 0.3925(5) 0.0058(10)
O18 O 0.8275(6) 0.4509(4) -0.0276(8)
O19 O 0.9336(7) 0.4802(4) 0.1775(8)
O20 O 0.8725(6) 0.3873(4) 0.1542(8)
Cl2 Cl 0.6808(3) 0.2359(2) 0.0819(3)
O21 O 0.722(2) 0.230(2) -0.033(2)
O22 O 0.586(1) 0.261(2) 0.070(3)
O23 O 0.723(1) 0.269(1) 0.198(2)
O24 O 0.684(5) 0.191(1) 0.108(5)
Cl3 Cl 0.3381(2) 0.1575(1) 0.0480(3)
O25 O 0.4038(8) 0.1263(5) -0.065(1)
O26 O 0.403(1) 0.1643(9) 0.176(1)
O27 O 0.2632(10) 0.1200(6) 0.060(2)
O28 O 0.2773(8) 0.2163(4) 0.014(1)
Cl4 Cl 0.9078(2) 0.2512(1) 0.6188(3)
O29 O 0.8508(8) 0.3075(5) 0.564(1)
O30 O 0.9514(8) 0.2043(4) 0.5038(9)
O31 O 0.9932(9) 0.2662(5) 0.7179(9)
O32 O 0.8403(7) 0.2254(4) 0.6912(8)
Cl5 Cl 0.5660(2) 0.0845(1) 0.5910(2)
O33 O 0.4995(7) 0.1180(4) 0.4815(9)
O34 O 0.6047(6) 0.1278(4) 0.7021(7)
O35 O 0.6532(6) 0.0446(4) 0.5194(9)
O36 O 0.5111(7) 0.0467(4) 0.6480(8)
Cl6 Cl 0.1765(3) 0.3375(2) 0.4635(4)
O37 O 0.231(2) 0.2869(8) 0.515(4)
O38 O 0.230(2) 0.360(2) 0.393(3)
O39 O 0.069(1) 0.3396(8) 0.433(2)
O40 O 0.164(1) 0.3857(8) 0.572(2)
O41 O 0.4266(9) 0.2481(5) 0.805(1)
loop_
_geom_bond_atom_site_label_1
_geom_bond_atom_site_label_2
_geom_bond_site_symmetry_1
_geom_bond_site_symmetry_2
Pr1 O1 1_555 1_555
O1 C1 1_555 1_555
O2 C1 1_555 1_555
O3 Pr1 1_555 1_555
O4 C4 1_555 1_555
O5 Pr1 1_555 1_555
O6 Pr1 1_555 1_555
O7 Pr1 1_555 1_555
O8 Pr1 1_555 1_555
N1 C3 1_555 1_555
N2 C6 1_555 1_555
N3 C9 1_555 1_555
C1 C2 1_555 1_555
C2 C3 1_555 1_555
C4 O3 1_555 1_555
C5 C4 1_555 1_555
C6 C5 1_555 1_555
C7 O5 1_555 1_555
C8 C7 1_555 1_555
C9 C8 1_555 1_555
Pr2 O9 1_555 1_555
O9 C10 1_555 1_555
O10 C10 1_555 1_555
O11 Pr2 1_555 1_555
O12 C13 1_555 1_555
O13 Pr2 1_555 1_555
O14 Pr2 1_555 1_555
O15 Pr2 1_555 1_555
O16 Pr2 1_555 1_555
N4 C12 1_555 1_555
N5 C15 1_555 1_555
N6 C18 1_555 1_555
C10 C11 1_555 1_555
C11 C12 1_555 1_555
C13 O11 1_555 1_555
C14 C13 1_555 1_555
C15 C14 1_555 1_555
C16 O13 1_555 1_555
C17 C16 1_555 1_555
C18 C17 1_555 1_555
Cl1 O17 1_555 1_555
O18 Cl1 1_555 1_555
O19 Cl1 1_555 1_555
O20 Cl1 1_555 1_555
Cl2 O21 1_555 1_555
O22 Cl2 1_555 1_555
O23 Cl2 1_555 1_555
O24 Cl2 1_555 1_555
Cl3 O25 1_555 1_555
O26 Cl3 1_555 1_555
O27 Cl3 1_555 1_555
O28 Cl3 1_555 1_555
Cl4 O29 1_555 1_555
O30 Cl4 1_555 1_555
O31 Cl4 1_555 1_555
O32 Cl4 1_555 1_555
Cl5 O33 1_555 1_555
O34 Cl5 1_555 1_555
O35 Cl5 1_555 1_555
O36 Cl5 1_555 1_555
Cl6 O37 1_555 1_555
O38 Cl6 1_555 1_555
O39 Cl6 1_555 1_555
O40 Cl6 1_555 1_555
O2A Pr1 1_555 1_555
O4A Pr1 1_555 1_555
O5A Pr1 1_555 1_555
Pr1A O2 1_555 1_555
Pr1A_2 O4 1_555 1_555
O10A Pr2 1_555 1_555
O12A Pr2 1_555 1_555
O13A Pr2 1_555 1_555
Pr2A O10 1_555 1_555
Pr2A_2 O12 1_555 1_555
O5 Pr1A 1_555 1_555
O6 C7 1_555 1_555
O13 Pr2A_2 1_555 1_555
O14 C16 1_555 1_555
O5A Pr1A 1_555 1_555
O13A Pr2A_2 1_555 1_555

#END
