
#######################################################################
#
#                 Cambridge Crystallographic Data Centre
#                                CCDC 
#
#######################################################################
#
# If this CIF has been generated from an entry in the Cambridge 
# Structural Database, then it will include bibliographic, chemical, 
# crystal, experimental, refinement or atomic coordinate data resulting 
# from the CCDC's data processing and validation procedures.
#
#######################################################################

data_TOHYUM
_symmetry_cell_setting           monoclinic
_symmetry_space_group_name_H-M   'C c'
_symmetry_Int_Tables_number      9
_space_group_name_Hall           'C -2yc'
loop_
_symmetry_equiv_pos_site_id
_symmetry_equiv_pos_as_xyz
1 x,y,z
2 x,-y,1/2+z
3 1/2+x,1/2+y,z
4 1/2+x,1/2-y,1/2+z
_cell_length_a                   20.0553(9)
_cell_length_b                   11.1462(4)
_cell_length_c                   19.5354(9)
_cell_angle_alpha                90
_cell_angle_beta                 108.352(5)
_cell_angle_gamma                90
_cell_volume                     4144.85
loop_
_atom_site_label
_atom_site_type_symbol
_atom_site_fract_x
_atom_site_fract_y
_atom_site_fract_z
Zn1 Zn 1.41162(6) 0.70846(6) 1.23228(8)
Zn2 Zn 1.27567(6) 0.71259(5) 1.09805(8)
Zn3 Zn 1.27852(6) 0.56653(5) 1.23845(8)
Zn4 Zn 1.27547(7) 0.85268(6) 1.23969(8)
C1 C 1.4108(3) 0.5574(6) 1.3568(3)
C2 C 1.4088(3) 0.3764(6) 1.5915(4)
C3 C 1.4484(3) 0.5253(6) 1.4338(3)
C4 C 1.4136(3) 0.4628(5) 1.4744(3)
H1 H 1.3682 0.4349 1.4523
C5 C 1.4463(3) 0.4416(6) 1.5475(3)
C6 C 1.5145(3) 0.4833(6) 1.5791(4)
H2 H 1.5367 0.4698 1.6280
C7 C 1.5500(4) 0.5439(7) 1.5399(4)
H3 H 1.5957 0.5707 1.5619
C8 C 1.5159(3) 0.5652(6) 1.4653(4)
H4 H 1.5392 0.6059 1.4380
C9 C 1.2580(4) 1.4326(5) 1.1103(4)
C10 C 1.2515(3) 0.9846(6) 1.1112(4)
C11 C 1.2429(3) 1.3163(5) 1.0697(4)
C12 C 1.2502(3) 1.2085(5) 1.1067(4)
H5 H 1.2634 1.2087 1.1568
C13 C 1.2378(3) 1.1001(5) 1.0695(4)
C14 C 1.2172(4) 1.0993(6) 0.9951(4)
H6 H 1.2091 1.0270 0.9700
C15 C 1.2088(5) 1.2081(6) 0.9578(4)
H7 H 1.1938 1.2083 0.9077
C16 C 1.2226(4) 1.3161(6) 0.9954(4)
H8 H 1.2182 1.3881 0.9703
C17 C 1.1518(3) 0.6858(6) 1.2398(3)
C18 C 0.9388(4) 0.4451(6) 1.2401(4)
C19 C 1.0752(4) 0.6778(6) 1.2327(4)
C20 C 1.0439(3) 0.5668(6) 1.2357(4)
H9 H 1.0700 0.4966 1.2402
C21 C 0.9730(3) 0.5619(6) 1.2318(4)
C22 C 0.9352(4) 0.6678(7) 1.2248(5)
H10 H 0.8887 0.6655 1.2245
C23 C 0.9657(4) 0.7769(7) 1.2181(6)
H11 H 0.9393 0.8471 1.2109
C24 C 1.0348(4) 0.7802(6) 1.2222(5)
H12 H 1.0552 0.8535 1.2177
C25 C 1.3296(3) 0.9408(6) 1.3853(3)
C26 C 1.3146(5) 1.0762(5) 1.3703(6)
H13 H 1.2860 1.0872 1.3211
H14 H 1.3582 1.1184 1.3787
H15 H 1.2904 1.1070 1.4018
C27 C 1.3966(5) 1.0144(9) 1.5168(5)
H16 H 1.3818 1.0915 1.4956
H17 H 1.4468 1.0132 1.5374
H18 H 1.3756 0.9992 1.5538
C28 C 1.3910(7) 0.7928(6) 1.4787(6)
H19 H 1.3723 0.7447 1.4362
H20 H 1.3704 0.7682 1.5147
H21 H 1.4410 0.7827 1.4970
O1 O 1.4433(2) 0.6173(4) 1.3240(3)
O2 O 1.1736(2) 0.7328(4) 1.0503(3)
H22 H 1.1350 0.7653 1.0262
H23 H 1.1631 0.6594 1.0530
O3 O 1.3487(2) 0.5220(4) 1.3310(3)
O4 O 1.3578(2) 0.3133(4) 1.5608(2)
O5 O 1.4358(2) 0.3906(4) 1.6596(2)
O6 O 1.2566(3) 1.5268(4) 1.0772(3)
O7 O 1.2701(3) 1.4250(4) 1.1787(3)
O8 O 1.2761(3) 0.8988(3) 1.0853(3)
O9 O 1.2387(3) 0.9831(4) 1.1710(3)
O10 O 1.1856(2) 0.5885(4) 1.2486(3)
O11 O 1.1771(3) 0.7875(4) 1.2375(3)
O12 O 1.3094(2) 0.7110(3) 1.2035(2)
O13 O 0.8818(3) 0.4503(5) 1.2528(3)
O14 O 0.9697(2) 0.3509(4) 1.2329(3)
O15 O 1.3097(3) 0.8608(5) 1.3464(3)
N1 N 1.3743(3) 0.9206(6) 1.4606(3)
Zn1A Zn 1.41162(6) 0.29154(6) 1.73228(8)
Zn1B Zn 0.91162(6) 0.20846(6) 1.23228(8)
Zn2_2 Zn 1.27567(6) 1.71259(5) 1.09805(8)
Zn2A Zn 1.27567(6) 0.28741(5) 1.59805(8)
Zn3_2 Zn 1.27852(6) 1.56653(5) 1.23845(8)
Zn4B Zn 0.77547(7) 0.35268(6) 1.23969(8)
O4A O 1.3578(2) 0.6867(4) 1.0608(2)
O5A O 1.4358(2) 0.6094(4) 1.1596(2)
O6_2 O 1.2566(3) 0.5268(4) 1.0772(3)
O7_2 O 1.2701(3) 0.4250(4) 1.1787(3)
O13B O 1.3818(3) 0.9503(5) 1.2528(3)
O14B O 1.4697(2) 0.8509(4) 1.2329(3)
C29 C 1.1683(5) 0.2342(7) 1.3780(5)
C30 C 1.2090(5) 0.3522(7) 1.3775(6)
H24 H 1.2252 0.3849 1.4253
H25 H 1.1784 0.4089 1.3456
H26 H 1.2485 0.3360 1.3611
C31 C 1.1063(5) 0.0740(8) 1.2983(6)
H27 H 1.1049 0.0519 1.3453
H28 H 1.1302 0.0128 1.2804
H29 H 1.0593 0.0827 1.2661
C32 C 1.1574(8) 0.2538(10) 1.2423(5)
H30 H 1.1818 0.3274 1.2596
H31 H 1.1134 0.2713 1.2062
H32 H 1.1854 0.2046 1.2217
O16 O 1.1532(4) 0.1760(5) 1.4188(3)
N2 N 1.1442(4) 0.1892(7) 1.3030(4)
C33 C 1.0605(4) 0.4957(7) 1.4919(4)
C34 C 1.0425(5) 0.4498(9) 1.4133(4)
H33 H 1.0504 0.3648 1.4136
H34 H 1.0718 0.4895 1.3899
H35 H 0.9941 0.4665 1.3877
C35 C 1.0667(6) 0.6735(11) 1.5677(5)
H36 H 1.0850 0.6097 1.6014
H37 H 1.0254 0.7061 1.5757
H38 H 1.1014 0.7354 1.5744
C36 C 1.0200(6) 0.7012(10) 1.4279(5)
H39 H 1.0130 0.6524 1.3858
H40 H 1.0527 0.7642 1.4281
H41 H 0.9760 0.7356 1.4276
O17 O 1.0837(4) 0.4444(7) 1.5445(3)
N3 N 1.0484(4) 0.6265(6) 1.4933(4)
loop_
_geom_bond_atom_site_label_1
_geom_bond_atom_site_label_2
_geom_bond_site_symmetry_1
_geom_bond_site_symmetry_2
Zn1 O1 1_555 1_555
Zn2 O2 1_555 1_555
Zn3 O3 1_555 1_555
Zn4 O9 1_555 1_555
C1 C3 1_555 1_555
C2 C5 1_555 1_555
C3 C4 1_555 1_555
C4 H1 1_555 1_555
C5 C4 1_555 1_555
C6 C5 1_555 1_555
H2 C6 1_555 1_555
C7 C6 1_555 1_555
H3 C7 1_555 1_555
C8 C3 1_555 1_555
H4 C8 1_555 1_555
C9 C11 1_555 1_555
C10 C13 1_555 1_555
C11 C12 1_555 1_555
C12 H5 1_555 1_555
C13 C12 1_555 1_555
C14 C13 1_555 1_555
H6 C14 1_555 1_555
C15 C14 1_555 1_555
H7 C15 1_555 1_555
C16 C11 1_555 1_555
H8 C16 1_555 1_555
C17 C19 1_555 1_555
C18 C21 1_555 1_555
C19 C20 1_555 1_555
C20 H9 1_555 1_555
C21 C20 1_555 1_555
C22 C21 1_555 1_555
H10 C22 1_555 1_555
C23 C22 1_555 1_555
H11 C23 1_555 1_555
C24 C19 1_555 1_555
H12 C24 1_555 1_555
C25 C26 1_555 1_555
C26 H13 1_555 1_555
H14 C26 1_555 1_555
H15 C26 1_555 1_555
C27 H16 1_555 1_555
H17 C27 1_555 1_555
H18 C27 1_555 1_555
C28 H19 1_555 1_555
H20 C28 1_555 1_555
H21 C28 1_555 1_555
O1 C1 1_555 1_555
O2 H22 1_555 1_555
H23 O2 1_555 1_555
O3 C1 1_555 1_555
O4 C2 1_555 1_555
O5 C2 1_555 1_555
O6 C9 1_555 1_555
O7 C9 1_555 1_555
O8 Zn2 1_555 1_555
O9 C10 1_555 1_555
O10 Zn3 1_555 1_555
O11 Zn4 1_555 1_555
O12 Zn1 1_555 1_555
O13 C18 1_555 1_555
O14 C18 1_555 1_555
O15 Zn4 1_555 1_555
N1 C25 1_555 1_555
C29 C30 1_555 1_555
C30 H24 1_555 1_555
H25 C30 1_555 1_555
H26 C30 1_555 1_555
C31 H27 1_555 1_555
H28 C31 1_555 1_555
H29 C31 1_555 1_555
C32 H30 1_555 1_555
H31 C32 1_555 1_555
H32 C32 1_555 1_555
O16 C29 1_555 1_555
N2 C29 1_555 1_555
C33 C34 1_555 1_555
C34 H33 1_555 1_555
H34 C34 1_555 1_555
H35 C34 1_555 1_555
C35 H36 1_555 1_555
H37 C35 1_555 1_555
H38 C35 1_555 1_555
C36 H39 1_555 1_555
H40 C36 1_555 1_555
H41 C36 1_555 1_555
O17 C33 1_555 1_555
N3 C33 1_555 1_555
Zn1A O5 1_555 1_555
Zn1B O14 1_555 1_555
Zn2_2 O6 1_555 1_555
Zn2A O4 1_555 1_555
Zn3_2 O7 1_555 1_555
Zn4B O13 1_555 1_555
O4A Zn2 1_555 1_555
O5A Zn1 1_555 1_555
O6_2 Zn2 1_555 1_555
O7_2 Zn3 1_555 1_555
O13B Zn4 1_555 1_555
O14B Zn1 1_555 1_555
Zn2 O12 1_555 1_555
Zn3 O12 1_555 1_555
Zn4 O12 1_555 1_555
C7 C8 1_555 1_555
C10 O8 1_555 1_555
C15 C16 1_555 1_555
C17 O10 1_555 1_555
C17 O11 1_555 1_555
C23 C24 1_555 1_555
C25 O15 1_555 1_555
C27 N1 1_555 1_555
C28 N1 1_555 1_555
C31 N2 1_555 1_555
C32 N2 1_555 1_555
C35 N3 1_555 1_555
C36 N3 1_555 1_555

#END
