
#######################################################################
#
#                 Cambridge Crystallographic Data Centre
#                                CCDC 
#
#######################################################################
#
# If this CIF has been generated from an entry in the Cambridge 
# Structural Database, then it will include bibliographic, chemical, 
# crystal, experimental, refinement or atomic coordinate data resulting 
# from the CCDC's data processing and validation procedures.
#
#######################################################################

data_TOJBOL
_symmetry_cell_setting           monoclinic
_symmetry_space_group_name_H-M   'C 2'
_symmetry_Int_Tables_number      5
_space_group_name_Hall           'C 2y'
loop_
_symmetry_equiv_pos_site_id
_symmetry_equiv_pos_as_xyz
1 x,y,z
2 -x,y,-z
3 1/2+x,1/2+y,z
4 1/2-x,1/2+y,-z
_cell_length_a                   21.479(2)
_cell_length_b                   9.6814(4)
_cell_length_c                   14.727(3)
_cell_angle_alpha                90
_cell_angle_beta                 129.26(2)
_cell_angle_gamma                90
_cell_volume                     2371.19
loop_
_atom_site_label
_atom_site_type_symbol
_atom_site_fract_x
_atom_site_fract_y
_atom_site_fract_z
Cd1 Cd 0.0000 0.03032(5) 0.5000
Cd2 Cd 0.0000 0.34420(5) 0.0000
C1 C -0.1275(5) -0.0328(11) 0.2081(7)
C2 C -0.0932(6) 0.0518(13) 0.1717(8)
H1 H -0.0436 0.0947 0.2250
C3 C -0.1389(5) 0.0669(10) 0.0499(7)
C4 C -0.2161(5) 0.0027(12) -0.0315(7)
H2 H -0.2453 0.0163 -0.1115
C5 C -0.2479(7) -0.0801(13) 0.0083(10)
H3 H -0.2977 -0.1230 -0.0437
C6 C -0.2024(5) -0.0952(11) 0.1277(7)
C7 C -0.1534(4) -0.1390(13) 0.3066(7)
C8 C -0.1452(5) -0.2034(10) 0.4058(8)
H4 H -0.1969 -0.1947 0.3896
C9 C -0.1224(7) -0.3552(10) 0.4247(8)
H5 H -0.1183 -0.3896 0.4894
H6 H -0.0716 -0.3657 0.4414
H7 H -0.1629 -0.4062 0.3551
C10 C -0.1064(6) 0.1496(11) 0.0000(9)
C11 C -0.1231(5) 0.4185(11) -0.2916(8)
C12 C -0.0963(5) 0.3365(16) -0.3349(8)
H8 H -0.0478 0.2897 -0.2839
C13 C -0.1405(5) 0.3226(12) -0.4535(6)
C14 C -0.2125(5) 0.3937(12) -0.5274(8)
H9 H -0.2425 0.3814 -0.6078
C15 C -0.2414(7) 0.4775(13) -0.4916(10)
H10 H -0.2900 0.5234 -0.5441
C16 C -0.1940(5) 0.4939(11) -0.3683(7)
C17 C -0.1392(5) 0.5443(13) -0.1844(7)
C18 C -0.1211(6) 0.6138(11) -0.0771(8)
H11 H -0.0755 0.6766 -0.0431
C19 C -0.1904(5) 0.6938(9) -0.1057(6)
H12 H -0.1761 0.7355 -0.0356
H13 H -0.2354 0.6331 -0.1384
H14 H -0.2046 0.7645 -0.1616
C20 C -0.1098(7) 0.2353(14) -0.5009(12)
O1 O -0.0897(5) -0.1271(11) 0.5032(6)
H15 H -0.0855 -0.1339 0.5699
O2 O -0.0332(4) 0.1877(9) 0.0761(5)
O3 O -0.1480(4) 0.1739(10) -0.1051(5)
O4 O -0.0966(5) 0.5022(10) 0.0027(8)
H16 H -0.1125 0.4885 0.0479
O5 O -0.0380(3) 0.1879(8) -0.4305(5)
O6 O -0.1563(4) 0.2080(10) -0.6105(6)
N1 N -0.0979(5) -0.0624(9) 0.3208(6)
N2 N -0.2156(4) -0.1666(10) 0.1947(6)
H17 H -0.2560 -0.2188 0.1695
N3 N -0.0903(5) 0.4515(9) -0.1749(7)
N4 N -0.2034(4) 0.5722(9) -0.2989(5)
H18 H -0.2423 0.6280 -0.3233
C1A C 0.1275(5) -0.0328(11) -0.2081(7)
C2A C 0.0932(6) 0.0518(13) -0.1717(8)
H1A H 0.0436 0.0947 -0.2250
C3A C 0.1389(5) 0.0669(10) -0.0499(7)
C4A C 0.2161(5) 0.0027(12) 0.0315(7)
H2A H 0.2453 0.0163 0.1115
C5A C 0.2479(7) -0.0801(13) -0.0083(10)
H3A H 0.2977 -0.1230 0.0437
C6A C 0.2024(5) -0.0952(11) -0.1277(7)
C7A C 0.1534(4) -0.1390(13) -0.3066(7)
C8A C 0.1452(5) -0.2034(10) -0.4058(8)
H4A H 0.1969 -0.1947 -0.3896
C9A C 0.1224(7) -0.3552(10) -0.4247(8)
H5A H 0.1183 -0.3896 -0.4894
H6A H 0.0716 -0.3657 -0.4414
H7A H 0.1629 -0.4062 -0.3551
C10A C 0.1064(6) 0.1496(11) 0.0000(9)
C11A C 0.1231(5) 0.4185(11) 0.2916(8)
C12A C 0.0963(5) 0.3365(16) 0.3349(8)
H8A H 0.0478 0.2897 0.2839
C13A C 0.1405(5) 0.3226(12) 0.4535(6)
C14A C 0.2125(5) 0.3937(12) 0.5274(8)
H9A H 0.2425 0.3814 0.6078
C15A C 0.2414(7) 0.4775(13) 0.4916(10)
H10A H 0.2900 0.5234 0.5441
C16A C 0.1940(5) 0.4939(11) 0.3683(7)
C17A C 0.1392(5) 0.5443(13) 0.1844(7)
C18A C 0.1211(6) 0.6138(11) 0.0771(8)
H11A H 0.0755 0.6766 0.0431
C19A C 0.1904(5) 0.6938(9) 0.1057(6)
H12A H 0.1761 0.7355 0.0356
H13A H 0.2354 0.6331 0.1384
H14A H 0.2046 0.7645 0.1616
C20A C 0.1098(7) 0.2353(14) 0.5009(12)
O1A O 0.0897(5) -0.1271(11) -0.5032(6)
H15A H 0.0855 -0.1339 -0.5699
O2A O 0.0332(4) 0.1877(9) -0.0761(5)
O3A O 0.1480(4) 0.1739(10) 0.1051(5)
O4A O 0.0966(5) 0.5022(10) -0.0027(8)
H16A H 0.1125 0.4885 -0.0479
O5A O 0.0380(3) 0.1879(8) 0.4305(5)
O6A O 0.1563(4) 0.2080(10) 0.6105(6)
N1A N 0.0979(5) -0.0624(9) -0.3208(6)
N2A N 0.2156(4) -0.1666(10) -0.1947(6)
H17A H 0.2560 -0.2188 -0.1695
N3A N 0.0903(5) 0.4515(9) 0.1749(7)
N4A N 0.2034(4) 0.5722(9) 0.2989(5)
H18A H 0.2423 0.6280 0.3233
Cd1_2 Cd 0.0000 0.03032(5) -0.5000
O1A_2 O 0.0897(5) -0.1271(11) 0.4968(6)
O5_2 O -0.0380(3) 0.1879(8) 0.5695(5)
N1A_2 N 0.0979(5) -0.0624(9) 0.6792(6)
O7 O 0.0914(5) -0.0099(12) 0.1974(8)
O8 O 0.4309(6) 0.1030(12) 0.2009(8)
O9 O 0.5723(5) 0.2825(10) 0.3059(7)
O10 O 0.9096(4) 0.3665(11) 0.2915(6)
loop_
_geom_bond_atom_site_label_1
_geom_bond_atom_site_label_2
_geom_bond_site_symmetry_1
_geom_bond_site_symmetry_2
Cd1 O1 1_555 1_555
Cd2 O2 1_555 1_555
C1 C2 1_555 1_555
C2 H1 1_555 1_555
C3 C2 1_555 1_555
C4 C3 1_555 1_555
H2 C4 1_555 1_555
C5 C4 1_555 1_555
H3 C5 1_555 1_555
C6 C1 1_555 1_555
C7 C8 1_555 1_555
C8 H4 1_555 1_555
C9 C8 1_555 1_555
H5 C9 1_555 1_555
H6 C9 1_555 1_555
H7 C9 1_555 1_555
C10 C3 1_555 1_555
C11 C12 1_555 1_555
C12 H8 1_555 1_555
C13 C12 1_555 1_555
C14 C13 1_555 1_555
H9 C14 1_555 1_555
C15 C14 1_555 1_555
H10 C15 1_555 1_555
C16 C11 1_555 1_555
C17 C18 1_555 1_555
C18 H11 1_555 1_555
C19 C18 1_555 1_555
H12 C19 1_555 1_555
H13 C19 1_555 1_555
H14 C19 1_555 1_555
C20 C13 1_555 1_555
O1 C8 1_555 1_555
H15 O1 1_555 1_555
O2 C10 1_555 1_555
O3 C10 1_555 1_555
O4 Cd2 1_555 1_555
H16 O4 1_555 1_555
O5 C20 1_555 1_555
O6 C20 1_555 1_555
N1 Cd1 1_555 1_555
N2 C6 1_555 1_555
H17 N2 1_555 1_555
N3 Cd2 1_555 1_555
N4 C16 1_555 1_555
H18 N4 1_555 1_555
C1A C2A 1_555 1_555
C2A H1A 1_555 1_555
C3A C2A 1_555 1_555
C4A C3A 1_555 1_555
H2A C4A 1_555 1_555
C5A C4A 1_555 1_555
H3A C5A 1_555 1_555
C6A C1A 1_555 1_555
C7A C8A 1_555 1_555
C8A H4A 1_555 1_555
C9A C8A 1_555 1_555
H5A C9A 1_555 1_555
H6A C9A 1_555 1_555
H7A C9A 1_555 1_555
C10A C3A 1_555 1_555
C11A C12A 1_555 1_555
C12A H8A 1_555 1_555
C13A C12A 1_555 1_555
C14A C13A 1_555 1_555
H9A C14A 1_555 1_555
C15A C14A 1_555 1_555
H10A C15A 1_555 1_555
C16A C11A 1_555 1_555
C17A C18A 1_555 1_555
C18A H11A 1_555 1_555
C19A C18A 1_555 1_555
H12A C19A 1_555 1_555
H13A C19A 1_555 1_555
H14A C19A 1_555 1_555
C20A C13A 1_555 1_555
O1A C8A 1_555 1_555
H15A O1A 1_555 1_555
O2A Cd2 1_555 1_555
O3A C10A 1_555 1_555
O4A Cd2 1_555 1_555
H16A O4A 1_555 1_555
O5A Cd1 1_555 1_555
O6A C20A 1_555 1_555
N1A C1A 1_555 1_555
N2A C6A 1_555 1_555
H17A N2A 1_555 1_555
N3A Cd2 1_555 1_555
N4A C16A 1_555 1_555
H18A N4A 1_555 1_555
Cd1_2 O5 1_555 1_555
O1A_2 Cd1 1_555 1_555
O5_2 Cd1 1_555 1_555
N1A_2 Cd1 1_555 1_555
C1 N1 1_555 1_555
C5 C6 1_555 1_555
C7 N1 1_555 1_555
C7 N2 1_555 1_555
C11 N3 1_555 1_555
C15 C16 1_555 1_555
C17 N3 1_555 1_555
C17 N4 1_555 1_555
C18 O4 1_555 1_555
C5A C6A 1_555 1_555
C7A N1A 1_555 1_555
C7A N2A 1_555 1_555
C10A O2A 1_555 1_555
C11A N3A 1_555 1_555
C15A C16A 1_555 1_555
C17A N3A 1_555 1_555
C17A N4A 1_555 1_555
C18A O4A 1_555 1_555
C20A O5A 1_555 1_555
O1A Cd1_2 1_555 1_555
N1A Cd1_2 1_555 1_555

#END
