
#######################################################################
#
#                 Cambridge Crystallographic Data Centre
#                                CCDC 
#
#######################################################################
#
# If this CIF has been generated from an entry in the Cambridge 
# Structural Database, then it will include bibliographic, chemical, 
# crystal, experimental, refinement or atomic coordinate data resulting 
# from the CCDC's data processing and validation procedures.
#
#######################################################################

data_TOJGOQ
_symmetry_cell_setting           monoclinic
_symmetry_space_group_name_H-M   'P 21/c'
_symmetry_Int_Tables_number      14
_space_group_name_Hall           '-P 2ybc'
loop_
_symmetry_equiv_pos_site_id
_symmetry_equiv_pos_as_xyz
1 x,y,z
2 -x,1/2+y,1/2-z
3 -x,-y,-z
4 x,1/2-y,1/2+z
_cell_length_a                   12.6130(8)
_cell_length_b                   7.8064(5)
_cell_length_c                   13.0846(8)
_cell_angle_alpha                90
_cell_angle_beta                 96.261(3)
_cell_angle_gamma                90
_cell_volume                     1280.65
loop_
_atom_site_label
_atom_site_type_symbol
_atom_site_fract_x
_atom_site_fract_y
_atom_site_fract_z
Ce1 Ce 0.480888(8) 0.069567(12) 0.683944(7)
O1 O 0.32987(12) -0.1043(2) 0.59123(12)
H1 H 0.3310 -0.1052 0.5257
H2 H 0.3230 -0.2094 0.6060
O2 O 0.83232(13) 0.1248(2) 0.87445(17)
O3 O 0.67501(13) -0.2474(2) 0.84620(13)
O4 O 0.62932(12) 0.0284(2) 0.82930(12)
O5 O 1.40403(11) -0.13928(18) 0.80664(11)
O6 O 1.33711(11) -0.36628(19) 0.87682(11)
O7 O 0.45323(11) 0.25837(18) 0.83801(10)
O8 O 0.45909(14) 0.3351(3) 0.99975(12)
C1 C 0.93606(18) 0.1823(3) 0.87538(18)
C2 C 1.0230(2) 0.0775(3) 0.86462(19)
H3 H 1.0140 -0.0405 0.8589
C3 C 1.12385(18) 0.1496(3) 0.86239(17)
C4 C 1.1363(2) 0.3268(3) 0.8740(2)
H4 H 1.2033 0.3762 0.8738
C5 C 1.0491(2) 0.4278(3) 0.8856(2)
H5 H 1.0582 0.5455 0.8937
C6 C 0.9491(2) 0.3590(3) 0.8857(2)
H6 H 0.8908 0.4292 0.8925
C7 C 0.81297(17) -0.0512(3) 0.86921(18)
H7 H 0.8402 -0.1037 0.9340
H8 H 0.8508 -0.1006 0.8156
C8 C 0.69537(16) -0.0904(3) 0.84695(15)
C9 C 1.21804(18) 0.0463(3) 0.84747(19)
H9 H 1.2757 0.1036 0.8247
C10 C 1.22910(17) -0.1203(3) 0.86326(18)
H10 H 1.1725 -0.1816 0.8852
C11 C 1.32839(15) -0.2127(3) 0.84726(14)
C12 C 0.45155(17) 0.2248(3) 0.93255(15)
Ce1_2 Ce 1.480888(8) 0.069567(12) 0.683944(7)
Ce1A Ce 0.519112(8) -0.430433(12) 0.816056(7)
Ce1A_2 Ce 0.519112(8) 0.569567(12) 0.816056(7)
Ce1A_3 Ce 1.519112(8) -0.430433(12) 0.816056(7)
Ce1C Ce 0.480888(8) 0.430433(12) 1.183944(7)
O3A O 0.32499(13) 0.2526(2) 0.65380(13)
O5_2 O 0.40403(11) -0.13928(18) 0.80664(11)
O5A O 0.59597(11) 0.36072(18) 0.69336(11)
O6A O 0.66289(11) 0.13372(19) 0.62318(11)
O7A O 0.54677(11) -0.24163(18) 0.66199(10)
O8C O 0.45909(14) 0.1649(3) 0.49975(12)
loop_
_geom_bond_atom_site_label_1
_geom_bond_atom_site_label_2
_geom_bond_site_symmetry_1
_geom_bond_site_symmetry_2
Ce1 O1 1_555 1_555
O1 H1 1_555 1_555
H2 O1 1_555 1_555
O2 C1 1_555 1_555
O3 C8 1_555 1_555
O4 Ce1 1_555 1_555
O5 C11 1_555 1_555
O6 C11 1_555 1_555
O7 Ce1 1_555 1_555
O8 C12 1_555 1_555
C1 C2 1_555 1_555
C2 H3 1_555 1_555
C3 C2 1_555 1_555
C4 C3 1_555 1_555
H4 C4 1_555 1_555
C5 C4 1_555 1_555
H5 C5 1_555 1_555
C6 C1 1_555 1_555
H6 C6 1_555 1_555
C7 O2 1_555 1_555
H7 C7 1_555 1_555
H8 C7 1_555 1_555
C8 O4 1_555 1_555
C9 C3 1_555 1_555
H9 C9 1_555 1_555
C10 C9 1_555 1_555
H10 C10 1_555 1_555
C11 C10 1_555 1_555
C12 O7 1_555 1_555
Ce1_2 O5 1_555 1_555
Ce1A O3 1_555 1_555
Ce1A_2 O7 1_555 1_555
Ce1A_3 O5 1_555 1_555
Ce1C O8 1_555 1_555
O3A Ce1 1_555 1_555
O5_2 Ce1 1_555 1_555
O5A Ce1 1_555 1_555
O6A Ce1 1_555 1_555
O7A Ce1 1_555 1_555
O8C Ce1 1_555 1_555
O6 Ce1A_3 1_555 1_555
C5 C6 1_555 1_555
C7 C8 1_555 1_555
Ce1A O5_2 1_555 1_555
Ce1A O7A 1_555 1_555
Ce1A_2 O5A 1_555 1_555

#END
