
#######################################################################
#
#                 Cambridge Crystallographic Data Centre
#                                CCDC 
#
#######################################################################
#
# If this CIF has been generated from an entry in the Cambridge 
# Structural Database, then it will include bibliographic, chemical, 
# crystal, experimental, refinement or atomic coordinate data resulting 
# from the CCDC's data processing and validation procedures.
#
#######################################################################

data_TOJGUW
_symmetry_cell_setting           monoclinic
_symmetry_space_group_name_H-M   'P 21/c'
_symmetry_Int_Tables_number      14
_space_group_name_Hall           '-P 2ybc'
loop_
_symmetry_equiv_pos_site_id
_symmetry_equiv_pos_as_xyz
1 x,y,z
2 -x,1/2+y,1/2-z
3 -x,-y,-z
4 x,1/2-y,1/2+z
_cell_length_a                   12.6484(2)
_cell_length_b                   7.87290(10)
_cell_length_c                   13.1027(2)
_cell_angle_alpha                90
_cell_angle_beta                 95.9990(10)
_cell_angle_gamma                90
_cell_volume                     1297.62
loop_
_atom_site_label
_atom_site_type_symbol
_atom_site_fract_x
_atom_site_fract_y
_atom_site_fract_z
La1 La 0.480966(9) 0.064751(15) 0.682439(9)
O1 O 0.32819(15) -0.1096(3) 0.59130(15)
H1 H 0.3293 -0.1105 0.5257
H2 H 0.3213 -0.2147 0.6061
O2 O 0.83335(17) 0.1197(3) 0.8738(2)
O3 O 0.67546(16) -0.2483(3) 0.84901(17)
O4 O 0.63014(14) 0.0242(3) 0.82915(16)
O5 O 1.40312(14) -0.1439(2) 0.80718(14)
O6 O 1.33539(14) -0.3672(2) 0.87812(14)
O7 O 0.45226(14) 0.2515(2) 0.83685(13)
O8 O 0.46035(17) 0.3389(3) 0.99569(16)
C1 C 0.9378(2) 0.1767(4) 0.8751(2)
C2 C 1.0244(2) 0.0731(3) 0.8640(2)
H3 H 1.0153 -0.0438 0.8575
C3 C 1.1253(2) 0.1443(4) 0.8624(2)
C4 C 1.1379(3) 0.3195(4) 0.8746(3)
H4 H 1.2049 0.3681 0.8743
C5 C 1.0515(3) 0.4202(4) 0.8871(3)
H5 H 1.0609 0.5366 0.8961
C6 C 0.9513(3) 0.3519(4) 0.8866(3)
H6 H 0.8932 0.4217 0.8938
C7 C 0.8132(2) -0.0535(3) 0.8684(2)
H7 H 0.8412 -0.1060 0.9326
H8 H 0.8502 -0.1023 0.8142
C8 C 0.69593(19) -0.0934(3) 0.84798(19)
C9 C 1.2191(2) 0.0423(3) 0.8480(2)
H9 H 1.2777 0.0987 0.8270
C10 C 1.2275(2) -0.1239(4) 0.8624(2)
H10 H 1.1699 -0.1844 0.8821
C11 C 1.32739(18) -0.2156(3) 0.84762(18)
C12 C 0.4497(2) 0.2242(3) 0.9316(2)
La1_2 La 1.480966(9) 0.064751(15) 0.682439(9)
La1A La 0.519034(9) -0.435249(15) 0.817561(9)
La1A_2 La 0.519034(9) 0.564751(15) 0.817561(9)
La1A_3 La 1.519034(9) -0.435249(15) 0.817561(9)
La1C La 0.480966(9) 0.435249(15) 1.182439(9)
O3A O 0.32454(16) 0.2517(3) 0.65099(17)
O5_2 O 0.40312(14) -0.1439(2) 0.80718(14)
O5A O 0.59688(14) 0.3561(2) 0.69282(14)
O6A O 0.66461(14) 0.1328(2) 0.62188(14)
O7A O 0.54774(14) -0.2485(2) 0.66315(13)
O8C O 0.46035(17) 0.1611(3) 0.49569(16)
loop_
_geom_bond_atom_site_label_1
_geom_bond_atom_site_label_2
_geom_bond_site_symmetry_1
_geom_bond_site_symmetry_2
La1 O1 1_555 1_555
O1 H1 1_555 1_555
H2 O1 1_555 1_555
O2 C1 1_555 1_555
O3 C8 1_555 1_555
O4 La1 1_555 1_555
O5 C11 1_555 1_555
O6 C11 1_555 1_555
O7 La1 1_555 1_555
O8 C12 1_555 1_555
C1 C2 1_555 1_555
C2 H3 1_555 1_555
C3 C2 1_555 1_555
C4 C3 1_555 1_555
H4 C4 1_555 1_555
C5 C4 1_555 1_555
H5 C5 1_555 1_555
C6 C1 1_555 1_555
H6 C6 1_555 1_555
C7 O2 1_555 1_555
H7 C7 1_555 1_555
H8 C7 1_555 1_555
C8 O4 1_555 1_555
C9 C3 1_555 1_555
H9 C9 1_555 1_555
C10 C9 1_555 1_555
H10 C10 1_555 1_555
C11 C10 1_555 1_555
C12 O7 1_555 1_555
La1_2 O5 1_555 1_555
La1A O3 1_555 1_555
La1A_2 O7 1_555 1_555
La1A_3 O5 1_555 1_555
La1C O8 1_555 1_555
O3A La1 1_555 1_555
O5_2 La1 1_555 1_555
O5A La1 1_555 1_555
O6A La1 1_555 1_555
O7A La1 1_555 1_555
O8C La1 1_555 1_555
O6 La1A_3 1_555 1_555
C5 C6 1_555 1_555
C7 C8 1_555 1_555
La1A O5_2 1_555 1_555
La1A O7A 1_555 1_555
La1A_2 O5A 1_555 1_555

#END
