
#######################################################################
#
#                 Cambridge Crystallographic Data Centre
#                                CCDC 
#
#######################################################################
#
# If this CIF has been generated from an entry in the Cambridge 
# Structural Database, then it will include bibliographic, chemical, 
# crystal, experimental, refinement or atomic coordinate data resulting 
# from the CCDC's data processing and validation procedures.
#
#######################################################################

data_TOJHEH
_symmetry_cell_setting           monoclinic
_symmetry_space_group_name_H-M   'P 21/c'
_symmetry_Int_Tables_number      14
_space_group_name_Hall           '-P 2ybc'
loop_
_symmetry_equiv_pos_site_id
_symmetry_equiv_pos_as_xyz
1 x,y,z
2 -x,1/2+y,1/2-z
3 -x,-y,-z
4 x,1/2-y,1/2+z
_cell_length_a                   12.6084(8)
_cell_length_b                   7.7627(5)
_cell_length_c                   13.0654(8)
_cell_angle_alpha                90
_cell_angle_beta                 96.414(3)
_cell_angle_gamma                90
_cell_volume                     1270.77
loop_
_atom_site_label
_atom_site_type_symbol
_atom_site_fract_x
_atom_site_fract_y
_atom_site_fract_z
Pr1 Pr 0.480410(11) 0.073687(18) 0.685561(10)
O1 O 0.33060(17) -0.0999(3) 0.59160(16)
H1 H 0.3317 -0.1008 0.5260
H2 H 0.3238 -0.2050 0.6064
O2 O 0.83305(19) 0.1267(3) 0.8740(2)
O3 O 0.67518(17) -0.2455(3) 0.84424(18)
O4 O 0.62915(16) 0.0315(3) 0.82932(16)
O5 O 1.40496(15) -0.1365(3) 0.80677(15)
O6 O 1.33895(16) -0.3649(3) 0.87629(15)
O7 O 0.45479(15) 0.2642(3) 0.83933(14)
O8 O 0.45836(19) 0.3329(4) 1.00247(16)
C1 C 0.9378(3) 0.1850(4) 0.8754(2)
C2 C 1.0250(3) 0.0798(4) 0.8657(3)
H3 H 1.0160 -0.0390 0.8607
C3 C 1.1258(3) 0.1514(4) 0.8635(2)
C4 C 1.1376(3) 0.3296(5) 0.8747(3)
H4 H 1.2047 0.3795 0.8750
C5 C 1.0505(4) 0.4311(4) 0.8851(3)
H5 H 1.0593 0.5496 0.8924
C6 C 0.9510(3) 0.3614(5) 0.8851(3)
H6 H 0.8926 0.4321 0.8916
C7 C 0.8127(2) -0.0481(4) 0.8680(3)
H7 H 0.8403 -0.1019 0.9325
H8 H 0.8502 -0.0973 0.8140
C8 C 0.6956(2) -0.0881(4) 0.8459(2)
C9 C 1.2202(3) 0.0484(4) 0.8493(3)
H9 H 1.2786 0.1064 0.8282
C10 C 1.2301(3) -0.1188(5) 0.8636(3)
H10 H 1.1732 -0.1808 0.8845
C11 C 1.3299(2) -0.2104(4) 0.8473(2)
C12 C 0.4523(2) 0.2268(4) 0.9333(2)
Pr1_2 Pr 1.480410(11) 0.073687(18) 0.685561(10)
Pr1A Pr 0.519590(11) -0.426313(18) 0.814439(10)
Pr1A_2 Pr 0.519590(11) 0.573687(18) 0.814439(10)
Pr1A_3 Pr 1.519590(11) -0.426313(18) 0.814439(10)
Pr1C Pr 0.480410(11) 0.426313(18) 1.185561(10)
O3A O 0.32482(17) 0.2545(3) 0.65576(18)
O5_2 O 0.40496(15) -0.1365(3) 0.80677(15)
O5A O 0.59504(15) 0.3635(3) 0.69323(15)
O6A O 0.66105(16) 0.1351(3) 0.62371(15)
O7A O 0.54521(15) -0.2358(3) 0.66067(14)
O8C O 0.45836(19) 0.1671(4) 0.50247(16)
loop_
_geom_bond_atom_site_label_1
_geom_bond_atom_site_label_2
_geom_bond_site_symmetry_1
_geom_bond_site_symmetry_2
Pr1 O1 1_555 1_555
O1 H1 1_555 1_555
H2 O1 1_555 1_555
O2 C1 1_555 1_555
O3 C8 1_555 1_555
O4 Pr1 1_555 1_555
O5 C11 1_555 1_555
O6 C11 1_555 1_555
O7 Pr1 1_555 1_555
O8 C12 1_555 1_555
C1 C2 1_555 1_555
C2 H3 1_555 1_555
C3 C2 1_555 1_555
C4 C3 1_555 1_555
H4 C4 1_555 1_555
C5 C4 1_555 1_555
H5 C5 1_555 1_555
C6 C1 1_555 1_555
H6 C6 1_555 1_555
C7 O2 1_555 1_555
H7 C7 1_555 1_555
H8 C7 1_555 1_555
C8 O4 1_555 1_555
C9 C3 1_555 1_555
H9 C9 1_555 1_555
C10 C9 1_555 1_555
H10 C10 1_555 1_555
C11 C10 1_555 1_555
C12 O7 1_555 1_555
Pr1_2 O5 1_555 1_555
Pr1A O3 1_555 1_555
Pr1A_2 O7 1_555 1_555
Pr1A_3 O5 1_555 1_555
Pr1C O8 1_555 1_555
O3A Pr1 1_555 1_555
O5_2 Pr1 1_555 1_555
O5A Pr1 1_555 1_555
O6A Pr1 1_555 1_555
O7A Pr1 1_555 1_555
O8C Pr1 1_555 1_555
O6 Pr1A_3 1_555 1_555
C5 C6 1_555 1_555
C7 C8 1_555 1_555
Pr1A O5_2 1_555 1_555
Pr1A O7A 1_555 1_555
Pr1A_2 O5A 1_555 1_555

#END
