
#######################################################################
#
#                 Cambridge Crystallographic Data Centre
#                                CCDC 
#
#######################################################################
#
# If this CIF has been generated from an entry in the Cambridge 
# Structural Database, then it will include bibliographic, chemical, 
# crystal, experimental, refinement or atomic coordinate data resulting 
# from the CCDC's data processing and validation procedures.
#
#######################################################################

data_TOJPIT
_symmetry_cell_setting           triclinic
_symmetry_space_group_name_H-M   'P -1'
_symmetry_Int_Tables_number      2
_space_group_name_Hall           '-P 1'
loop_
_symmetry_equiv_pos_site_id
_symmetry_equiv_pos_as_xyz
1 x,y,z
2 -x,-y,-z
_cell_length_a                   8.296(3)
_cell_length_b                   10.279(4)
_cell_length_c                   10.336(4)
_cell_angle_alpha                86.624(4)
_cell_angle_beta                 80.067(4)
_cell_angle_gamma                75.085(4)
_cell_volume                     838.839
loop_
_atom_site_label
_atom_site_type_symbol
_atom_site_fract_x
_atom_site_fract_y
_atom_site_fract_z
Tb1 Tb 0.29184(4) -0.01908(3) 0.77964(3)
O1 O 0.1092(6) 0.0104(5) 0.6219(5)
H1 H 0.0962 0.0686 0.5601
H2 H 0.0119 0.0011 0.6560
O2 O 0.6186(5) -0.1303(4) 0.3962(4)
O3 O 0.4542(5) -0.0186(4) 1.1707(4)
O4 O 0.0393(5) -0.0817(5) 0.8735(4)
H3 H -0.0637 -0.0451 0.9030
H4 H 0.0561 -0.1658 0.8894
O5 O 0.3025(5) -0.0331(5) 1.0146(4)
O6 O 0.4731(6) -0.1386(5) 0.5988(4)
O7 O -0.0819(7) 0.3154(5) 0.9725(5)
N1 N 0.1521(7) 0.4050(5) 0.6710(5)
H5 H 0.2257 0.3321 0.6446
N2 N 0.0070(7) 0.6166(6) 0.6752(5)
C1 C -0.0550(8) 0.5495(6) 0.7841(6)
O8 O -0.2604(7) 0.7415(5) 0.8650(5)
O9 O 0.1379(7) 0.1910(5) 0.8405(5)
O10 O -0.2564(7) 0.5568(5) 0.9830(5)
H6 H -0.2064 0.4769 0.9783
C2 C 0.2382(8) 0.5536(7) 0.4847(6)
O11 O 0.3670(8) -0.2481(5) 0.8358(5)
H7 H 0.3143 -0.2731 0.9067
H8 H 0.4082 -0.3185 0.7904
C3 C 0.5260(7) -0.0774(6) 0.4987(6)
N3 N 0.4485(8) 0.4714(7) 0.2994(6)
C4 C 0.4289(8) -0.0151(6) 1.0540(6)
C5 C 0.0275(9) 0.3000(7) 0.8710(7)
C6 C 0.4318(11) 0.5988(9) 0.2560(8)
H9 H 0.4977 0.6150 0.1773
C7 C -0.1974(9) 0.6227(8) 0.8786(7)
C8 C 0.3505(9) 0.4517(7) 0.4113(7)
H10 H 0.3586 0.3636 0.4416
C9 C 0.1346(8) 0.5260(6) 0.6083(7)
C10 C 0.0354(9) 0.4168(7) 0.7820(6)
C11 C 0.2232(12) 0.6841(8) 0.4387(8)
H11 H 0.1479 0.7558 0.4852
C12 C 0.3228(12) 0.7058(9) 0.3219(8)
H12 H 0.3155 0.7927 0.2885
O2A O 0.3814(5) 0.1303(4) 0.6038(4)
O6A O 0.5269(6) 0.1386(5) 0.4012(4)
C3A C 0.4740(7) 0.0774(6) 0.5013(6)
O3A O 0.5458(5) 0.0186(4) 0.8293(4)
O5A O 0.6975(5) 0.0331(5) 0.9854(4)
C4A C 0.5711(8) 0.0151(6) 0.9460(6)
Tb1A Tb 0.70816(4) 0.01908(3) 0.22036(3)
O1A O 0.8908(6) -0.0104(5) 0.3781(5)
H1A H 0.9038 -0.0686 0.4399
H2A H 0.9881 -0.0011 0.3440
O4A O 0.9607(5) 0.0817(5) 0.1265(4)
H3A H 1.0637 0.0451 0.0970
H4A H 0.9439 0.1658 0.1106
O7A O 1.0819(7) -0.3154(5) 0.0275(5)
N1A N 0.8479(7) -0.4050(5) 0.3290(5)
H5A H 0.7743 -0.3321 0.3554
N2A N 0.9930(7) -0.6166(6) 0.3248(5)
C1A C 1.0550(8) -0.5495(6) 0.2159(6)
O8A O 1.2604(7) -0.7415(5) 0.1350(5)
O9A O 0.8621(7) -0.1910(5) 0.1595(5)
O10A O 1.2564(7) -0.5568(5) 0.0170(5)
H6A H 1.2064 -0.4769 0.0217
C2A C 0.7618(8) -0.5536(7) 0.5153(6)
O11A O 0.6330(8) 0.2481(5) 0.1642(5)
H7A H 0.6857 0.2731 0.0933
H8A H 0.5918 0.3185 0.2096
N3A N 0.5515(8) -0.4714(7) 0.7006(6)
C5A C 0.9725(9) -0.3000(7) 0.1290(7)
C6A C 0.5682(11) -0.5988(9) 0.7440(8)
H9A H 0.5023 -0.6150 0.8227
C7A C 1.1974(9) -0.6227(8) 0.1214(7)
C8A C 0.6495(9) -0.4517(7) 0.5887(7)
H10A H 0.6414 -0.3636 0.5584
C9A C 0.8654(8) -0.5260(6) 0.3917(7)
C10A C 0.9646(9) -0.4168(7) 0.2180(6)
C11A C 0.7768(12) -0.6841(8) 0.5613(8)
H11A H 0.8521 -0.7558 0.5148
C12A C 0.6772(12) -0.7058(9) 0.6781(8)
H12A H 0.6845 -0.7927 0.7115
Tb1A_2 Tb 0.70816(4) 0.01908(3) 1.22036(3)
O3_2 O 0.4542(5) -0.0186(4) 0.1707(4)
O5A_2 O 0.6975(5) 0.0331(5) -0.0146(4)
O12 O 0.1555(6) 0.1020(5) 0.3670(5)
H13 H 0.2484 0.0802 0.3141
H14 H 0.1039 0.1811 0.3461
loop_
_geom_bond_atom_site_label_1
_geom_bond_atom_site_label_2
_geom_bond_site_symmetry_1
_geom_bond_site_symmetry_2
Tb1 O1 1_555 1_555
O1 H1 1_555 1_555
H2 O1 1_555 1_555
O2 C3 1_555 1_555
O3 C4 1_555 1_555
O4 Tb1 1_555 1_555
H3 O4 1_555 1_555
H4 O4 1_555 1_555
O5 Tb1 1_555 1_555
O6 Tb1 1_555 1_555
O7 C5 1_555 1_555
N1 H5 1_555 1_555
N2 C1 1_555 1_555
C1 C7 1_555 1_555
O8 C7 1_555 1_555
O9 Tb1 1_555 1_555
O10 H6 1_555 1_555
C2 C8 1_555 1_555
O11 Tb1 1_555 1_555
H7 O11 1_555 1_555
H8 O11 1_555 1_555
C3 O6 1_555 1_555
N3 C6 1_555 1_555
C4 O5 1_555 1_555
C5 O9 1_555 1_555
C6 H9 1_555 1_555
C7 O10 1_555 1_555
C8 N3 1_555 1_555
H10 C8 1_555 1_555
C9 N1 1_555 1_555
C10 N1 1_555 1_555
C11 C2 1_555 1_555
H11 C11 1_555 1_555
C12 C6 1_555 1_555
H12 C12 1_555 1_555
O12 H13 1_555 1_555
H14 O12 1_555 1_555
O2A Tb1 1_555 1_555
O6A C3A 1_555 1_555
C3A C3 1_555 1_555
O3A Tb1 1_555 1_555
O5A C4A 1_555 1_555
C4A C4 1_555 1_555
Tb1A O2 1_555 1_555
O1A Tb1A 1_555 1_555
H1A O1A 1_555 1_555
H2A O1A 1_555 1_555
O4A Tb1A 1_555 1_555
H3A O4A 1_555 1_555
H4A O4A 1_555 1_555
O7A C5A 1_555 1_555
N1A H5A 1_555 1_555
N2A C1A 1_555 1_555
C1A C7A 1_555 1_555
O8A C7A 1_555 1_555
O9A Tb1A 1_555 1_555
O10A H6A 1_555 1_555
C2A C8A 1_555 1_555
O11A Tb1A 1_555 1_555
H7A O11A 1_555 1_555
H8A O11A 1_555 1_555
N3A C6A 1_555 1_555
C5A O9A 1_555 1_555
C6A H9A 1_555 1_555
C7A O10A 1_555 1_555
C8A N3A 1_555 1_555
H10A C8A 1_555 1_555
C9A N1A 1_555 1_555
C10A N1A 1_555 1_555
C11A C2A 1_555 1_555
H11A C11A 1_555 1_555
C12A C6A 1_555 1_555
H12A C12A 1_555 1_555
Tb1A_2 O3 1_555 1_555
O3_2 Tb1A 1_555 1_555
O5A_2 Tb1A 1_555 1_555
N2 C9 1_555 1_555
C1 C10 1_555 1_555
C2 C9 1_555 1_555
C5 C10 1_555 1_555
C11 C12 1_555 1_555
O2A C3A 1_555 1_555
O6A Tb1A 1_555 1_555
O3A C4A 1_555 1_555
O5A Tb1A_2 1_555 1_555
N2A C9A 1_555 1_555
C1A C10A 1_555 1_555
C2A C9A 1_555 1_555
C5A C10A 1_555 1_555
C11A C12A 1_555 1_555

#END
