
#######################################################################
#
#                 Cambridge Crystallographic Data Centre
#                                CCDC 
#
#######################################################################
#
# If this CIF has been generated from an entry in the Cambridge 
# Structural Database, then it will include bibliographic, chemical, 
# crystal, experimental, refinement or atomic coordinate data resulting 
# from the CCDC's data processing and validation procedures.
#
#######################################################################

data_TOJPEP
_symmetry_cell_setting           monoclinic
_symmetry_space_group_name_H-M   'P 21/c'
_symmetry_Int_Tables_number      14
_space_group_name_Hall           '-P 2ybc'
loop_
_symmetry_equiv_pos_site_id
_symmetry_equiv_pos_as_xyz
1 x,y,z
2 -x,1/2+y,1/2-z
3 -x,-y,-z
4 x,1/2-y,1/2+z
_cell_length_a                   10.7072(7)
_cell_length_b                   14.0730(10)
_cell_length_c                   11.6511(6)
_cell_angle_alpha                90
_cell_angle_beta                 121.282(4)
_cell_angle_gamma                90
_cell_volume                     1500.39
loop_
_atom_site_label
_atom_site_type_symbol
_atom_site_fract_x
_atom_site_fract_y
_atom_site_fract_z
Sm1 Sm 0.23048(2) 0.875121(15) 0.17061(2)
O1 O 0.2601(3) 0.8230(2) 0.3809(3)
O2 O 0.4643(4) 0.7891(2) 0.2965(3)
H1 H 0.5026 0.7978 0.2496
H2 H 0.4504 0.7298 0.2954
O3 O 0.2095(3) 0.7370(2) 0.5113(3)
O4 O 0.3922(3) 0.9951(2) 0.3250(3)
H3 H 0.3869 1.0554 0.3244
H4 H 0.4796 0.9796 0.3827
O5 O 0.0913(4) 0.5511(2) 0.4645(3)
O6 O 0.4011(4) 0.9260(3) 0.1006(4)
H5 H 0.4230 0.8905 0.0547
H6 H 0.4188 0.9830 0.0896
O7 O -0.0842(3) 0.4796(2) 0.2828(3)
N1 N 0.0429(4) 0.7477(2) 0.1531(3)
N2 N -0.0758(4) 0.6126(2) 0.1166(3)
H7 H -0.1333 0.5659 0.0740
N3 N -0.2875(5) 0.8194(3) -0.2614(4)
C1 C 0.1915(4) 0.7571(3) 0.3994(4)
C2 C 0.0824(4) 0.7063(3) 0.2749(4)
C3 C 0.0086(4) 0.6209(3) 0.2525(4)
C4 C 0.0051(5) 0.5459(3) 0.3412(4)
C5 C -0.0550(5) 0.6893(3) 0.0594(4)
C6 C -0.1385(5) 0.7085(3) -0.0849(4)
C7 C -0.1669(6) 0.6395(3) -0.1794(5)
H8 H -0.1272 0.5789 -0.1528
C8 C -0.2564(6) 0.6616(4) -0.3160(5)
H9 H -0.2771 0.6165 -0.3819
C9 C -0.3121(6) 0.7514(4) -0.3494(5)
H10 H -0.3716 0.7658 -0.4401
C10 C -0.2018(5) 0.7968(3) -0.1310(5)
H11 H -0.1840 0.8435 -0.0678
Sm1A Sm -0.23048(2) 0.375121(15) 0.32939(2)
Sm1C Sm 0.23048(2) 0.624879(15) 0.67061(2)
O3C O 0.2095(3) 0.7630(2) 0.0113(3)
O5C O 0.0913(4) 0.9489(2) -0.0355(3)
O7A O 0.0842(3) 0.9796(2) 0.2172(3)
Cl1 Cl 0.38165(18) 0.91098(10) 0.82641(14)
O8 O 0.2981(4) 0.9805(2) 0.5418(3)
H12 H 0.2793 0.9316 0.4931
H13 H 0.3056 0.9612 0.6139
loop_
_geom_bond_atom_site_label_1
_geom_bond_atom_site_label_2
_geom_bond_site_symmetry_1
_geom_bond_site_symmetry_2
Sm1 O1 1_555 1_555
O1 C1 1_555 1_555
O2 Sm1 1_555 1_555
H1 O2 1_555 1_555
H2 O2 1_555 1_555
O3 C1 1_555 1_555
O4 Sm1 1_555 1_555
H3 O4 1_555 1_555
H4 O4 1_555 1_555
O5 C4 1_555 1_555
O6 Sm1 1_555 1_555
H5 O6 1_555 1_555
H6 O6 1_555 1_555
O7 C4 1_555 1_555
N1 Sm1 1_555 1_555
N2 H7 1_555 1_555
N3 C9 1_555 1_555
C1 C2 1_555 1_555
C2 N1 1_555 1_555
C3 N2 1_555 1_555
C4 C3 1_555 1_555
C5 N1 1_555 1_555
C6 C5 1_555 1_555
C7 C6 1_555 1_555
H8 C7 1_555 1_555
C8 C7 1_555 1_555
H9 C8 1_555 1_555
C9 C8 1_555 1_555
H10 C9 1_555 1_555
C10 N3 1_555 1_555
H11 C10 1_555 1_555
O8 H12 1_555 1_555
H13 O8 1_555 1_555
Sm1A O7 1_555 1_555
Sm1C O3 1_555 1_555
O3C Sm1 1_555 1_555
O5C Sm1 1_555 1_555
O7A Sm1 1_555 1_555
O5 Sm1C 1_555 1_555
N2 C5 1_555 1_555
C2 C3 1_555 1_555
C6 C10 1_555 1_555

#END
