
#######################################################################
#
#                 Cambridge Crystallographic Data Centre
#                                CCDC 
#
#######################################################################
#
# If this CIF has been generated from an entry in the Cambridge 
# Structural Database, then it will include bibliographic, chemical, 
# crystal, experimental, refinement or atomic coordinate data resulting 
# from the CCDC's data processing and validation procedures.
#
#######################################################################

data_TOJWEU
_symmetry_cell_setting           triclinic
_symmetry_space_group_name_H-M   'P -1'
_symmetry_Int_Tables_number      2
_space_group_name_Hall           '-P 1'
loop_
_symmetry_equiv_pos_site_id
_symmetry_equiv_pos_as_xyz
1 x,y,z
2 -x,-y,-z
_cell_length_a                   11.724(4)
_cell_length_b                   16.676(8)
_cell_length_c                   11.375(5)
_cell_angle_alpha                101.61(5)
_cell_angle_beta                 106.76(3)
_cell_angle_gamma                102.57(4)
_cell_volume                     1993.76
loop_
_atom_site_label
_atom_site_type_symbol
_atom_site_fract_x
_atom_site_fract_y
_atom_site_fract_z
O1 O 0.119(3) -0.232(2) 0.085(3)
O2 O 0.250(3) -0.190(1) -0.047(2)
O3 O 0.349(2) -0.189(2) 0.173(2)
O4 O 0.128(3) -0.231(2) -0.675(2)
O5 O 0.244(3) -0.190(1) -0.438(2)
O6 O 0.342(2) -0.225(2) -0.609(2)
O7 O -0.025(2) -0.130(2) 0.003(2)
O8 O 0.008(2) -0.188(2) -0.191(2)
O9 O -0.135(2) -0.104(2) -0.204(2)
O10 O 0.005(2) -0.207(2) -0.440(3)
O11 O -0.030(2) -0.141(2) -0.614(2)
O12 O -0.096(3) -0.093(2) -0.426(2)
O13 O 0.213(2) -0.084(1) -0.227(2)
O14 O 0.138(2) -0.307(1) -0.301(2)
O15 O -0.120(2) -0.260(2) 0.125(2)
O16 O 0.144(2) -0.070(2) 0.265(2)
O17 O 0.397(2) -0.181(2) -0.193(3)
O18 O -0.129(2) -0.072(2) 0.185(3)
U1 U 0.1720(1) -0.1967(1) -0.2678(1)
U2 U 0.0114(1) -0.1674(1) 0.1949(1)
P1 P 0.228(1) -0.2374(7) 0.0438(9)
P2 P 0.221(1) -0.2484(7) -0.570(1)
P3 P -0.083(1) -0.1714(7) -0.137(1)
P4 P -0.082(1) -0.1716(8) -0.524(1)
C1 C 0.221(4) -0.348(3) -0.005(4)
C2 C 0.290(4) -0.376(3) -0.075(4)
C3 C 0.290(4) -0.461(3) -0.108(4)
C4 C 0.229(6) -0.515(4) -0.061(5)
C5 C 0.171(4) -0.484(3) 0.021(4)
C6 C 0.163(3) -0.406(3) 0.045(3)
C7 C 0.186(4) -0.358(3) -0.577(4)
C8 C 0.279(4) -0.382(3) -0.495(4)
C9 C 0.241(5) -0.470(3) -0.474(5)
C10 C 0.122(4) -0.524(3) -0.559(4)
C11 C 0.042(4) -0.501(3) -0.649(5)
C12 C 0.069(4) -0.417(3) -0.649(4)
C13 C -0.209(4) -0.258(3) -0.171(4)
C14 C -0.206(5) -0.341(4) -0.216(5)
C15 C -0.305(5) -0.419(3) -0.256(5)
C16 C -0.427(6) -0.414(4) -0.235(6)
C17 C -0.414(5) -0.323(4) -0.172(5)
C18 C -0.321(4) -0.256(3) -0.155(4)
C19 C -0.235(4) -0.246(3) -0.598(4)
C20 C -0.278(4) -0.303(3) -0.538(4)
C21 C -0.395(5) -0.344(4) -0.577(5)
C22 C -0.481(4) -0.357(3) -0.711(4)
C23 C -0.433(4) -0.294(3) -0.774(4)
C24 C -0.315(4) -0.245(3) -0.712(4)
H1 H 0.3421 -0.3338 -0.1034
H2 H 0.3279 -0.4824 -0.1640
H3 H 0.2262 -0.5759 -0.0823
H4 H 0.1215 -0.5259 0.0600
H5 H 0.12133 -0.3870 0.1044
H6 H 0.3620 -0.3465 -0.4588
H7 H 0.2972 -0.4888 -0.4105
H8 H 0.0892 -0.5809 -0.5475
H9 H -0.0370 -0.5425 -0.7087
H10 H 0.0095 -0.3978 -0.7069
H11 H -0.1216 -0.3460 -0.2034
H12 H -0.3027 -0.4734 -0.3130
H13 H -0.5002 -0.4632 -0.2493
H14 H -0.4832 -0.3131 -0.1446
H15 H -0.3310 -0.1992 -0.1221
H16 H -0.2145 -0.3056 -0.4588
H17 H -0.4273 -0.3688 -0.5196
H18 H -0.5629 -0.4032 -0.7492
H19 H -0.4833 -0.2867 -0.8520
H20 H -0.2838 -0.2063 -0.7554
U2_2 U 0.0114(1) -0.1674(1) -0.8051(1)
O4_2 O 0.128(3) -0.231(2) 0.325(2)
O11_2 O -0.030(2) -0.141(2) 0.386(2)
O19 O 0.208(3) 0.004(2) 0.036(3)
O20 O 0.444(7) 0.065(5) 0.020(7)
O21 O 0.450(4) 0.170(3) 0.423(4)
O22 O 0.784(5) -0.001(3) 0.442(5)
O23 O 0.457(6) 0.074(4) 0.846(6)
O24 O 0.435(5) 0.064(4) 0.239(5)
O25 O 0.395(5) 0.019(4) 0.402(5)
O26 O 0.395(8) 0.043(5) 0.627(8)
loop_
_geom_bond_atom_site_label_1
_geom_bond_atom_site_label_2
_geom_bond_site_symmetry_1
_geom_bond_site_symmetry_2
O1 U2 1_555 1_555
O2 U1 1_555 1_555
O3 P1 1_555 1_555
O4 P2 1_555 1_555
O5 U1 1_555 1_555
O6 P2 1_555 1_555
O7 U2 1_555 1_555
O8 U1 1_555 1_555
O9 P3 1_555 1_555
O10 U1 1_555 1_555
O11 P4 1_555 1_555
O12 P4 1_555 1_555
O13 U1 1_555 1_555
O14 U1 1_555 1_555
O15 U2 1_555 1_555
O16 U2 1_555 1_555
O17 U1 1_555 1_555
O18 U2 1_555 1_555
U2 O4_2 1_555 1_555
P1 O1 1_555 1_555
P2 O5 1_555 1_555
P3 O7 1_555 1_555
P4 O10 1_555 1_555
C1 P1 1_555 1_555
C2 C1 1_555 1_555
C3 C2 1_555 1_555
C4 C3 1_555 1_555
C5 C4 1_555 1_555
C6 C1 1_555 1_555
C7 P2 1_555 1_555
C8 C7 1_555 1_555
C9 C8 1_555 1_555
C10 C9 1_555 1_555
C11 C10 1_555 1_555
C12 C7 1_555 1_555
C13 P3 1_555 1_555
C14 C13 1_555 1_555
C15 C14 1_555 1_555
C16 C15 1_555 1_555
C17 C16 1_555 1_555
C18 C13 1_555 1_555
C19 P4 1_555 1_555
C20 C19 1_555 1_555
C21 C20 1_555 1_555
C22 C21 1_555 1_555
C23 C22 1_555 1_555
C24 C19 1_555 1_555
H1 C2 1_555 1_555
H2 C3 1_555 1_555
H3 C4 1_555 1_555
H4 C5 1_555 1_555
H5 C6 1_555 1_555
H6 C8 1_555 1_555
H7 C9 1_555 1_555
H8 C10 1_555 1_555
H9 C11 1_555 1_555
H10 C12 1_555 1_555
H11 C14 1_555 1_555
H12 C15 1_555 1_555
H13 C16 1_555 1_555
H14 C17 1_555 1_555
H15 C18 1_555 1_555
H16 C20 1_555 1_555
H17 C21 1_555 1_555
H18 C22 1_555 1_555
H19 C23 1_555 1_555
H20 C24 1_555 1_555
U2_2 O4 1_555 1_555
O11_2 U2 1_555 1_555
O2 P1 1_555 1_555
O8 P3 1_555 1_555
O11 U2_2 1_555 1_555
C5 C6 1_555 1_555
C11 C12 1_555 1_555
C17 C18 1_555 1_555
C23 C24 1_555 1_555

#END
