
#######################################################################
#
#                 Cambridge Crystallographic Data Centre
#                                CCDC 
#
#######################################################################
#
# If this CIF has been generated from an entry in the Cambridge 
# Structural Database, then it will include bibliographic, chemical, 
# crystal, experimental, refinement or atomic coordinate data resulting 
# from the CCDC's data processing and validation procedures.
#
#######################################################################

data_TOJWUL
_symmetry_cell_setting           monoclinic
_symmetry_space_group_name_H-M   'P 21/c'
_symmetry_Int_Tables_number      14
_space_group_name_Hall           '-P 2ybc'
loop_
_symmetry_equiv_pos_site_id
_symmetry_equiv_pos_as_xyz
1 x,y,z
2 -x,1/2+y,1/2-z
3 -x,-y,-z
4 x,1/2-y,1/2+z
_cell_length_a                   9.912(3)
_cell_length_b                   10.226(4)
_cell_length_c                   22.864(8)
_cell_angle_alpha                90
_cell_angle_beta                 96.848(6)
_cell_angle_gamma                90
_cell_volume                     2300.96
loop_
_atom_site_label
_atom_site_type_symbol
_atom_site_fract_x
_atom_site_fract_y
_atom_site_fract_z
Zn1 Zn 0.50853(6) 1.03878(6) 0.82052(3)
N1 N 0.3436(4) 1.0528(5) 0.8737(2)
N2 N 0.5616(4) 0.9096(4) 0.89013(19)
N3 N 0.7238(4) 0.9738(5) 0.81225(19)
N4 N 0.7710(6) 0.4300(6) 1.0598(3)
N5 N 0.4384(4) 0.9074(4) 0.75562(19)
N6 N 0.4494(4) 0.7218(4) 0.70262(19)
O1 O 0.2601(4) 1.1160(4) 0.73533(18)
O2 O 0.1445(4) 1.0195(4) 0.65900(18)
H1 H 0.1467 0.9498 0.6414
O3 O 0.1609(4) 0.8200(4) 0.60104(17)
O4 O 0.3159(4) 0.6674(4) 0.59110(17)
C1 C 0.2390(6) 1.1350(6) 0.8642(3)
H2 H 0.2348 1.1915 0.8322
C2 C 0.1372(6) 1.1394(7) 0.9000(3)
H3 H 0.0657 1.1983 0.8925
C3 C 0.1429(6) 1.0554(6) 0.9467(3)
H4 H 0.0742 1.0558 0.9711
C4 C 0.2513(6) 0.9696(6) 0.9577(3)
H5 H 0.2576 0.9132 0.9898
C5 C 0.3495(5) 0.9703(6) 0.9198(2)
C6 C 0.4721(6) 0.8872(5) 0.9282(2)
C7 C 0.4954(6) 0.7951(5) 0.9719(2)
H6 H 0.4305 0.7808 0.9974
C8 C 0.6157(6) 0.7228(6) 0.9783(2)
C9 C 0.7097(6) 0.7517(6) 0.9390(2)
H7 H 0.7921 0.7071 0.9421
C10 C 0.6816(5) 0.8457(6) 0.8959(2)
C11 C 0.7752(6) 0.8852(6) 0.8525(3)
C12 C 0.9071(6) 0.8381(7) 0.8548(3)
H8 H 0.9419 0.7790 0.8836
C13 C 0.9848(6) 0.8824(8) 0.8126(3)
H9 H 1.0732 0.8519 0.8126
C14 C 0.9336(6) 0.9706(7) 0.7708(3)
H10 H 0.9850 0.9995 0.7419
C15 C 0.8041(6) 1.0148(6) 0.7731(3)
H11 H 0.7699 1.0772 0.7456
C16 C 0.7406(7) 0.5234(7) 1.0195(3)
H12 H 0.7863 0.5227 0.9862
C17 C 0.6460(6) 0.6210(6) 1.0239(3)
C18 C 0.5798(6) 0.6192(7) 1.0733(3)
H13 H 0.5148 0.6824 1.0785
C19 C 0.6105(7) 0.5224(7) 1.1154(3)
H14 H 0.5665 0.5197 1.1490
C20 C 0.7054(7) 0.4325(7) 1.1065(3)
H15 H 0.7256 0.3684 1.1350
C21 C 0.5005(6) 0.7922(6) 0.7499(3)
H16 H 0.5729 0.7634 0.7764
C22 C 0.2442(6) 1.0237(6) 0.7017(3)
C23 C 0.3367(5) 0.9110(6) 0.7089(2)
C24 C 0.3437(5) 0.7989(5) 0.6759(2)
C25 C 0.2698(6) 0.7561(6) 0.6193(3)
Zn1A Zn 0.49147(6) 0.53878(6) 0.67948(3)
N6A N 0.5506(4) 1.2218(4) 0.79738(19)
O5 O 0.0255(6) 0.7824(6) 0.4864(2)
H17 H 0.077(5) 0.826(6) 0.466(2)
H18 H 0.048(6) 0.777(7) 0.5235(7)
loop_
_geom_bond_atom_site_label_1
_geom_bond_atom_site_label_2
_geom_bond_site_symmetry_1
_geom_bond_site_symmetry_2
Zn1 N1 1_555 1_555
N1 C1 1_555 1_555
N2 Zn1 1_555 1_555
N3 Zn1 1_555 1_555
N4 C16 1_555 1_555
N5 Zn1 1_555 1_555
N6 C21 1_555 1_555
O1 C22 1_555 1_555
O2 H1 1_555 1_555
O3 C25 1_555 1_555
O4 C25 1_555 1_555
C1 H2 1_555 1_555
C2 C1 1_555 1_555
H3 C2 1_555 1_555
C3 C2 1_555 1_555
H4 C3 1_555 1_555
C4 C3 1_555 1_555
H5 C4 1_555 1_555
C5 N1 1_555 1_555
C6 N2 1_555 1_555
C7 C6 1_555 1_555
H6 C7 1_555 1_555
C8 C7 1_555 1_555
C9 C8 1_555 1_555
H7 C9 1_555 1_555
C10 N2 1_555 1_555
C11 N3 1_555 1_555
C12 C11 1_555 1_555
H8 C12 1_555 1_555
C13 C12 1_555 1_555
H9 C13 1_555 1_555
C14 C13 1_555 1_555
H10 C14 1_555 1_555
C15 N3 1_555 1_555
H11 C15 1_555 1_555
C16 H12 1_555 1_555
C17 C8 1_555 1_555
C18 C17 1_555 1_555
H13 C18 1_555 1_555
C19 C18 1_555 1_555
H14 C19 1_555 1_555
C20 N4 1_555 1_555
H15 C20 1_555 1_555
C21 N5 1_555 1_555
H16 C21 1_555 1_555
C22 O2 1_555 1_555
C23 N5 1_555 1_555
C24 N6 1_555 1_555
C25 C24 1_555 1_555
O5 H17 1_555 1_555
H18 O5 1_555 1_555
Zn1A N6 1_555 1_555
N6A Zn1 1_555 1_555
C4 C5 1_555 1_555
C5 C6 1_555 1_555
C9 C10 1_555 1_555
C10 C11 1_555 1_555
C14 C15 1_555 1_555
C16 C17 1_555 1_555
C19 C20 1_555 1_555
C22 C23 1_555 1_555
C23 C24 1_555 1_555

#END
