
#######################################################################
#
#                 Cambridge Crystallographic Data Centre
#                                CCDC 
#
#######################################################################
#
# If this CIF has been generated from an entry in the Cambridge 
# Structural Database, then it will include bibliographic, chemical, 
# crystal, experimental, refinement or atomic coordinate data resulting 
# from the CCDC's data processing and validation procedures.
#
#######################################################################

data_TOKBEB03
_symmetry_cell_setting           monoclinic
_symmetry_space_group_name_H-M   'P 21/c'
_symmetry_Int_Tables_number      14
_space_group_name_Hall           '-P 2ybc'
loop_
_symmetry_equiv_pos_site_id
_symmetry_equiv_pos_as_xyz
1 x,y,z
2 -x,1/2+y,1/2-z
3 -x,-y,-z
4 x,1/2-y,1/2+z
_cell_length_a                   10.8247(8)
_cell_length_b                   14.4301(9)
_cell_length_c                   10.2587(7)
_cell_angle_alpha                90
_cell_angle_beta                 98.433(3)
_cell_angle_gamma                90
_cell_volume                     1585.1
loop_
_atom_site_label
_atom_site_type_symbol
_atom_site_fract_x
_atom_site_fract_y
_atom_site_fract_z
Cd1 Cd 0.346644(19) 0.107574(14) 0.55534(2)
O1 O 0.3646(2) 0.26520(15) 0.5247(2)
O2 O 0.4503(2) 0.39772(14) 0.6065(2)
O3 O 0.6562(2) 0.46119(15) 0.8546(2)
O4 O 0.46282(19) 0.43560(15) 0.8948(2)
N1 N 0.5006(2) 0.16909(17) 0.7224(2)
N2 N 0.6520(2) 0.26111(19) 0.9232(3)
N3 N 0.1786(2) 0.09272(18) 0.3844(3)
N4 N 0.1560(2) 0.13846(18) 0.6346(3)
C1 C 0.5033(3) 0.26194(19) 0.7270(3)
C2 C 0.5746(3) 0.30754(19) 0.8322(3)
C3 C 0.6517(3) 0.1690(2) 0.9139(3)
H1 H 0.7057 0.1350 0.9747
C4 C 0.5733(3) 0.1223(2) 0.8165(3)
H2 H 0.5713 0.0578 0.8167
C5 C 0.4320(3) 0.3128(2) 0.6095(3)
C6 C 0.5628(3) 0.40997(19) 0.8611(3)
C7 C 0.1953(3) 0.0752(3) 0.2594(3)
H3 H 0.2762 0.0698 0.2398
C8 C 0.0969(4) 0.0649(3) 0.1602(4)
H4 H 0.1112 0.0546 0.0741
C9 C -0.0227(4) 0.0697(3) 0.1885(4)
H5 H -0.0905 0.0609 0.1227
C10 C -0.0406(3) 0.0880(3) 0.3166(4)
H6 H -0.1209 0.0913 0.3382
C11 C -0.0664(4) 0.1437(3) 0.5889(4)
H7 H -0.1392 0.1368 0.5292
C12 C -0.0715(4) 0.1699(3) 0.7167(5)
H8 H -0.1483 0.1808 0.7444
C13 C 0.0365(4) 0.1798(3) 0.8032(4)
H9 H 0.0342 0.1962 0.8904
C14 C 0.1492(4) 0.1650(2) 0.7585(3)
H10 H 0.2229 0.1738 0.8163
C15 C 0.0621(3) 0.1014(2) 0.4127(3)
C16 C 0.0493(3) 0.1278(2) 0.5505(3)
Cd1A Cd 0.653356(19) 0.607574(14) 0.94466(2)
Cd1C Cd 0.346644(19) 0.392426(14) 1.05534(2)
O3A O 0.3438(2) -0.03881(15) 0.6454(2)
O4C O 0.46282(19) 0.06440(15) 0.3948(2)
O5 O 0.2933(3) 0.49084(18) 0.4139(3)
H11 H 0.3497 0.4583 0.4683
H12 H 0.3381 0.5247 0.3561
loop_
_geom_bond_atom_site_label_1
_geom_bond_atom_site_label_2
_geom_bond_site_symmetry_1
_geom_bond_site_symmetry_2
Cd1 O1 1_555 1_555
O1 C5 1_555 1_555
O2 C5 1_555 1_555
O3 C6 1_555 1_555
O4 C6 1_555 1_555
N1 Cd1 1_555 1_555
N2 C2 1_555 1_555
N3 Cd1 1_555 1_555
N4 Cd1 1_555 1_555
C1 N1 1_555 1_555
C2 C1 1_555 1_555
C3 N2 1_555 1_555
H1 C3 1_555 1_555
C4 N1 1_555 1_555
H2 C4 1_555 1_555
C5 C1 1_555 1_555
C6 C2 1_555 1_555
C7 N3 1_555 1_555
H3 C7 1_555 1_555
C8 C7 1_555 1_555
H4 C8 1_555 1_555
C9 C8 1_555 1_555
H5 C9 1_555 1_555
C10 C9 1_555 1_555
H6 C10 1_555 1_555
C11 H7 1_555 1_555
C12 C11 1_555 1_555
H8 C12 1_555 1_555
C13 C12 1_555 1_555
H9 C13 1_555 1_555
C14 N4 1_555 1_555
H10 C14 1_555 1_555
C15 N3 1_555 1_555
C16 N4 1_555 1_555
O5 H11 1_555 1_555
H12 O5 1_555 1_555
Cd1A O3 1_555 1_555
Cd1C O4 1_555 1_555
O3A Cd1 1_555 1_555
O4C Cd1 1_555 1_555
C3 C4 1_555 1_555
C10 C15 1_555 1_555
C11 C16 1_555 1_555
C13 C14 1_555 1_555
C15 C16 1_555 1_555

#END
