
#######################################################################
#
#                 Cambridge Crystallographic Data Centre
#                                CCDC 
#
#######################################################################
#
# If this CIF has been generated from an entry in the Cambridge 
# Structural Database, then it will include bibliographic, chemical, 
# crystal, experimental, refinement or atomic coordinate data resulting 
# from the CCDC's data processing and validation procedures.
#
#######################################################################

data_TOKDUT
_symmetry_cell_setting           monoclinic
_symmetry_space_group_name_H-M   'P 21/c'
_symmetry_Int_Tables_number      14
_space_group_name_Hall           '-P 2ybc'
loop_
_symmetry_equiv_pos_site_id
_symmetry_equiv_pos_as_xyz
1 x,y,z
2 -x,1/2+y,1/2-z
3 -x,-y,-z
4 x,1/2-y,1/2+z
_cell_length_a                   10.5123(10)
_cell_length_b                   22.448(2)
_cell_length_c                   10.6567(9)
_cell_angle_alpha                90
_cell_angle_beta                 118.170(2)
_cell_angle_gamma                90
_cell_volume                     2216.9
loop_
_atom_site_label
_atom_site_type_symbol
_atom_site_fract_x
_atom_site_fract_y
_atom_site_fract_z
Cu1 Cu 0.67610(5) 0.29775(2) 0.85401(5)
O1 O 0.7934(3) 0.23795(11) 0.8161(3)
O2 O 0.8891(3) 0.14748(13) 0.8656(3)
O3 O 0.8236(3) 0.25506(12) 1.0714(3)
C1 C 0.8480(4) 0.19326(19) 0.8979(4)
C2 C 0.8611(4) 0.19667(19) 1.0474(4)
H1 H 0.7922 0.1685 1.0518
C3 C 1.0122(5) 0.1791(2) 1.1609(4)
H2 H 1.0821 0.2047 1.1543
H3 H 1.0310 0.1385 1.1464
H4 H 1.0188 0.1831 1.2535
O4 O 0.5336(3) 0.23661(12) 0.8356(3)
O5 O 0.3581(4) 0.17377(15) 0.7060(3)
O6 O 0.5114(3) 0.29620(16) 0.6120(4)
C4 C 0.4369(5) 0.21679(19) 0.7182(5)
C5 C 0.4178(5) 0.2459(2) 0.5812(5)
H5 H 0.4441 0.2167 0.5291
C6 C 0.2621(5) 0.2654(2) 0.4850(5)
H6 H 0.2362 0.2961 0.5316
H7 H 0.1988 0.2319 0.4658
H8 H 0.2536 0.2806 0.3971
N1 N 0.8190(3) 0.36123(14) 0.8695(3)
N2 N 1.5702(3) 0.35819(14) 0.9103(4)
S1 S 1.14274(11) 0.50243(5) 0.89890(12)
S2 S 1.33255(11) 0.48051(5) 1.06997(12)
C7 C 0.9578(4) 0.35754(17) 0.9712(4)
H9 H 0.9850 0.3258 1.0347
C8 C 1.0603(4) 0.39802(17) 0.9855(4)
H10 H 1.1552 0.3934 1.0564
C9 C 1.0220(4) 0.44634(17) 0.8933(4)
C10 C 0.8793(4) 0.45062(18) 0.7899(4)
H11 H 0.8495 0.4823 0.7261
C11 C 0.7823(4) 0.40829(18) 0.7817(4)
H12 H 0.6867 0.4123 0.7121
C12 C 1.6255(4) 0.37516(18) 1.0476(5)
H13 H 1.7170 0.3617 1.1121
C13 C 1.5534(4) 0.41129(18) 1.0968(4)
H14 H 1.5950 0.4217 1.1925
C14 C 1.4167(4) 0.43222(17) 1.0007(4)
C15 C 1.3606(4) 0.41638(18) 0.8599(5)
H15 H 1.2708 0.4304 0.7928
C16 C 1.4407(4) 0.37899(19) 0.8195(5)
H16 H 1.4016 0.3681 0.7243
H17 H 0.819(5) 0.257(2) 1.154(3)
H18 H 0.493(7) 0.316(3) 0.534(4)
Cu1_2 Cu 1.67610(5) 0.29775(2) 0.85401(5)
N2_2 N 0.5702(3) 0.35819(14) 0.9103(4)
loop_
_geom_bond_atom_site_label_1
_geom_bond_atom_site_label_2
_geom_bond_site_symmetry_1
_geom_bond_site_symmetry_2
Cu1 O1 1_555 1_555
O1 C1 1_555 1_555
O2 C1 1_555 1_555
O3 Cu1 1_555 1_555
C1 C2 1_555 1_555
C2 O3 1_555 1_555
H1 C2 1_555 1_555
C3 C2 1_555 1_555
H2 C3 1_555 1_555
H3 C3 1_555 1_555
H4 C3 1_555 1_555
O4 Cu1 1_555 1_555
O5 C4 1_555 1_555
O6 Cu1 1_555 1_555
C4 O4 1_555 1_555
C5 O6 1_555 1_555
H5 C5 1_555 1_555
C6 C5 1_555 1_555
H6 C6 1_555 1_555
H7 C6 1_555 1_555
H8 C6 1_555 1_555
N1 Cu1 1_555 1_555
N2 C12 1_555 1_555
S1 S2 1_555 1_555
S2 C14 1_555 1_555
C7 N1 1_555 1_555
H9 C7 1_555 1_555
C8 C7 1_555 1_555
H10 C8 1_555 1_555
C9 S1 1_555 1_555
C10 C9 1_555 1_555
H11 C10 1_555 1_555
C11 N1 1_555 1_555
H12 C11 1_555 1_555
C12 H13 1_555 1_555
C13 C12 1_555 1_555
H14 C13 1_555 1_555
C14 C13 1_555 1_555
C15 C14 1_555 1_555
H15 C15 1_555 1_555
C16 N2 1_555 1_555
H16 C16 1_555 1_555
H17 O3 1_555 1_555
H18 O6 1_555 1_555
Cu1_2 N2 1_555 1_555
N2_2 Cu1 1_555 1_555
C4 C5 1_555 1_555
C8 C9 1_555 1_555
C10 C11 1_555 1_555
C15 C16 1_555 1_555

#END
