
#######################################################################
#
#                 Cambridge Crystallographic Data Centre
#                                CCDC 
#
#######################################################################
#
# If this CIF has been generated from an entry in the Cambridge 
# Structural Database, then it will include bibliographic, chemical, 
# crystal, experimental, refinement or atomic coordinate data resulting 
# from the CCDC's data processing and validation procedures.
#
#######################################################################

data_TOKGUW
_symmetry_cell_setting           triclinic
_symmetry_space_group_name_H-M   'P -1'
_symmetry_Int_Tables_number      2
_space_group_name_Hall           '-P 1'
loop_
_symmetry_equiv_pos_site_id
_symmetry_equiv_pos_as_xyz
1 x,y,z
2 -x,-y,-z
_cell_length_a                   5.1072(10)
_cell_length_b                   7.8485(16)
_cell_length_c                   10.285(2)
_cell_angle_alpha                71.40(3)
_cell_angle_beta                 87.38(3)
_cell_angle_gamma                80.58(3)
_cell_volume                     385.451
loop_
_atom_site_label
_atom_site_type_symbol
_atom_site_fract_x
_atom_site_fract_y
_atom_site_fract_z
Cu1 Cu 0.0000 0.5000 0.0000
Cu2 Cu 0.49614(5) 0.45419(4) -0.22478(3)
P1 P 0.45366(11) 0.73891(7) -0.08530(6)
S1 S -0.00129(11) 1.26279(8) -0.32302(6)
O1 O 0.2913(3) 0.6055(2) -0.11985(17)
O2 O -0.2951(3) 1.3130(2) -0.33378(18)
O3 O 0.3875(4) 0.7422(2) 0.05970(18)
O4 O 0.7470(3) 0.6867(2) -0.11368(19)
O5 O 0.4402(5) 0.6707(3) -0.3905(2)
H1 H 0.544(11) 0.701(7) -0.455(6)
H2 H 0.328(15) 0.675(10) -0.425(8)
O6 O 0.1095(4) 1.3730(3) -0.2556(3)
O7 O 0.1070(5) 1.2690(3) -0.4566(2)
C1 C 0.3603(5) 0.9644(3) -0.2026(2)
H3 H 0.4457 1.0481 -0.1737
H4 H 0.4275 0.9665 -0.2928
C2 C 0.0622(5) 1.0327(3) -0.2145(3)
H5 H -0.0102 1.0242 -0.1242
H6 H -0.0243 0.9572 -0.2519
Cu1_2 Cu 1.0000 0.5000 0.0000
Cu1_3 Cu -1.0000 0.5000 0.0000
Cu2A Cu -0.49614(5) 0.54581(4) 0.22478(3)
Cu2_2 Cu -0.50386(5) 1.45419(4) -0.22478(3)
Cu2A_2 Cu 0.50386(5) 0.54581(4) 0.22478(3)
Cu2_3 Cu 0.49614(5) 1.45419(4) -0.22478(3)
Cu2A_3 Cu 0.50386(5) -0.45419(4) 0.22478(3)
Cu2_4 Cu -0.50386(5) 0.45419(4) -0.22478(3)
Cu2A_4 Cu -0.49614(5) -0.45419(4) 0.22478(3)
P1A P -0.45366(11) 0.26109(7) 0.08530(6)
S1A S 0.00129(11) -0.26279(8) 0.32302(6)
O1A O -0.2913(3) 0.3945(2) 0.11985(17)
O2A O 0.2951(3) -0.3130(2) 0.33378(18)
O2_2 O 0.7049(3) 0.3130(2) -0.33378(18)
O2A_2 O -0.7049(3) 0.6870(2) 0.33378(18)
O3A O -0.3875(4) 0.2578(2) -0.05970(18)
O3A_2 O 0.6125(4) 0.2578(2) -0.05970(18)
O3_2 O -0.6125(4) 0.7422(2) 0.05970(18)
O4A O -0.7470(3) 0.3133(2) 0.11368(19)
O4_2 O -0.2530(3) 0.6867(2) -0.11368(19)
O4A_2 O 0.2530(3) 0.3133(2) 0.11368(19)
O5A O -0.4402(5) 0.3293(3) 0.3905(2)
H1A H -0.544(11) 0.299(7) 0.455(6)
H2A H -0.328(15) 0.325(10) 0.425(8)
O6A O -0.1095(4) -0.3730(3) 0.2556(3)
O6_2 O 0.1095(4) 0.3730(3) -0.2556(3)
O6A_2 O -0.1095(4) 0.6270(3) 0.2556(3)
O7A O -0.1070(5) -0.2690(3) 0.4566(2)
C1A C -0.3603(5) 0.0356(3) 0.2026(2)
H3A H -0.4457 -0.0481 0.1737
H4A H -0.4275 0.0335 0.2928
C2A C -0.0622(5) -0.0327(3) 0.2145(3)
H5A H 0.0102 -0.0242 0.1242
H6A H 0.0243 0.0428 0.2519
loop_
_geom_bond_atom_site_label_1
_geom_bond_atom_site_label_2
_geom_bond_site_symmetry_1
_geom_bond_site_symmetry_2
Cu1 O1 1_555 1_555
Cu2 O1 1_555 1_555
P1 O1 1_555 1_555
S1 O2 1_555 1_555
O2 Cu2_2 1_555 1_555
O3 P1 1_555 1_555
O4 P1 1_555 1_555
O5 Cu2 1_555 1_555
H1 O5 1_555 1_555
H2 O5 1_555 1_555
O6 S1 1_555 1_555
O7 S1 1_555 1_555
C1 P1 1_555 1_555
H3 C1 1_555 1_555
H4 C1 1_555 1_555
C2 S1 1_555 1_555
H5 C2 1_555 1_555
H6 C2 1_555 1_555
Cu1_2 O4 1_555 1_555
Cu1_3 O4A 1_555 1_555
Cu2A O1A 1_555 1_555
Cu2A_2 O3 1_555 1_555
Cu2_3 O6 1_555 1_555
Cu2A_3 O2A 1_555 1_555
Cu2_4 O3A 1_555 1_555
Cu2A_4 O6A 1_555 1_555
P1A O1A 1_555 1_555
S1A O2A 1_555 1_555
O1A Cu1 1_555 1_555
O2_2 Cu2 1_555 1_555
O2A_2 Cu2A 1_555 1_555
O3A P1A 1_555 1_555
O3A_2 Cu2 1_555 1_555
O3_2 Cu2A 1_555 1_555
O4A P1A 1_555 1_555
O4_2 Cu1 1_555 1_555
O4A_2 Cu1 1_555 1_555
O5A Cu2A 1_555 1_555
H1A O5A 1_555 1_555
H2A O5A 1_555 1_555
O6A S1A 1_555 1_555
O6_2 Cu2 1_555 1_555
O6A_2 Cu2A 1_555 1_555
O7A S1A 1_555 1_555
C1A P1A 1_555 1_555
H3A C1A 1_555 1_555
H4A C1A 1_555 1_555
C2A S1A 1_555 1_555
H5A C2A 1_555 1_555
H6A C2A 1_555 1_555
C1 C2 1_555 1_555
C1A C2A 1_555 1_555

#END
