
#######################################################################
#
#                 Cambridge Crystallographic Data Centre
#                                CCDC 
#
#######################################################################
#
# If this CIF has been generated from an entry in the Cambridge 
# Structural Database, then it will include bibliographic, chemical, 
# crystal, experimental, refinement or atomic coordinate data resulting 
# from the CCDC's data processing and validation procedures.
#
#######################################################################

data_TOKPAK
_symmetry_cell_setting           monoclinic
_symmetry_space_group_name_H-M   'C 2/c'
_symmetry_Int_Tables_number      15
_space_group_name_Hall           '-C 2yn'
loop_
_symmetry_equiv_pos_site_id
_symmetry_equiv_pos_as_xyz
1 x,y,z
2 -x,y,1/2-z
3 1/2+x,1/2+y,z
4 1/2-x,1/2+y,1/2-z
5 -x,-y,-z
6 x,-y,1/2+z
7 1/2-x,1/2-y,-z
8 1/2+x,1/2-y,1/2+z
_cell_length_a                   16.651(3)
_cell_length_b                   11.089(2)
_cell_length_c                   14.360(3)
_cell_angle_alpha                90
_cell_angle_beta                 116.45(3)
_cell_angle_gamma                90
_cell_volume                     2373.93
loop_
_atom_site_label
_atom_site_type_symbol
_atom_site_fract_x
_atom_site_fract_y
_atom_site_fract_z
Cu1 Cu 0.0000 0.10056(5) 0.2500
Cl1 Cl 0.14927(7) 0.08511(10) 0.11541(9)
O1 O 0.0996(4) 0.1085(4) 0.1690(5)
O2 O 0.1814(5) -0.0339(5) 0.1306(5)
O3 O 0.0987(7) 0.1092(5) 0.0101(4)
O4 O 0.2189(4) 0.1675(7) 0.1475(8)
O5 O -0.1020(2) 0.1044(2) 0.1104(2)
N1 N 0.0000 0.2808(4) 0.2500
C1 C -0.0751(2) 0.3440(3) 0.2277(3)
C2 C -0.0781(2) 0.4680(3) 0.2269(3)
C3 C 0.0000 0.5335(4) 0.2500
C4 C 0.0000 0.6681(4) 0.2500
C5 C -0.0745(3) 0.7334(3) 0.2393(4)
C6 C -0.0722(3) 0.8577(4) 0.2398(4)
N2 N 0.0000 -0.0795(4) 0.2500
H1 H -0.1295(2) 0.3001(3) 0.2105(3)
H2 H -0.1334(2) 0.5091(3) 0.2110(3)
H3 H -0.1278(3) 0.6919(3) 0.2315(4)
H4 H -0.1245(3) 0.9011(4) 0.2326(4)
H5 H -0.0995(2) 0.0569(2) 0.0648(2)
H6 H -0.1603(2) 0.0969(2) 0.0852(2)
O1A O -0.0996(4) 0.1085(4) 0.3310(5)
Cl1A Cl -0.14927(7) 0.08511(10) 0.38459(9)
O2A O -0.1814(5) -0.0339(5) 0.3694(5)
O3A O -0.0987(7) 0.1092(5) 0.4899(4)
O4A O -0.2189(4) 0.1675(7) 0.3525(8)
O5A O 0.1020(2) 0.1044(2) 0.3896(2)
H5A H 0.0995(2) 0.0569(2) 0.4352(2)
H6A H 0.1603(2) 0.0969(2) 0.4148(2)
C2A C 0.0781(2) 0.4680(3) 0.2731(3)
C1A C 0.0751(2) 0.3440(3) 0.2723(3)
H1A H 0.1295(2) 0.3001(3) 0.2895(3)
H2A H 0.1334(2) 0.5091(3) 0.2890(3)
N2_2 N 0.0000 0.9205(4) 0.2500
Cu1_2 Cu 0.0000 1.10056(5) 0.2500
C6A C 0.0722(3) 0.8577(4) 0.2602(4)
C5A C 0.0745(3) 0.7334(3) 0.2607(4)
H3A H 0.1278(3) 0.6919(3) 0.2685(4)
H4A H 0.1245(3) 0.9011(4) 0.2674(4)
N3 N -0.2722(3) 0.0626(4) 0.0659(3)
C7 C -0.3296(3) 0.1501(5) 0.0555(4)
C8 C -0.4192(3) 0.1313(5) 0.0287(4)
C9 C -0.4519(3) 0.0134(4) 0.0139(3)
C10 C -0.3922(3) -0.0777(5) 0.0231(4)
C11 C -0.3041(3) -0.0479(5) 0.0491(4)
H7 H -0.3078(3) 0.2315(5) 0.0677(4)
H8 H -0.4589(3) 0.1975(5) 0.0208(4)
H9 H -0.4124(3) -0.1598(5) 0.0112(4)
H10 H -0.2629(3) -0.1119(5) 0.0561(4)
C9D C -0.5481(3) -0.0134(4) -0.0139(3)
C8D C -0.5808(3) -0.1313(5) -0.0287(4)
C7D C -0.6704(3) -0.1501(5) -0.0555(4)
N3D N -0.7278(3) -0.0626(4) -0.0659(3)
C11D C -0.6959(3) 0.0479(5) -0.0491(4)
C10D C -0.6078(3) 0.0777(5) -0.0231(4)
H9D H -0.5876(3) 0.1598(5) -0.0112(4)
H10D H -0.7371(3) 0.1119(5) -0.0561(4)
H7D H -0.6922(3) -0.2315(5) -0.0677(4)
H8D H -0.5411(3) -0.1975(5) -0.0208(4)
loop_
_geom_bond_atom_site_label_1
_geom_bond_atom_site_label_2
_geom_bond_site_symmetry_1
_geom_bond_site_symmetry_2
Cu1 O1 1_555 1_555
Cl1 O1 1_555 1_555
O2 Cl1 1_555 1_555
O3 Cl1 1_555 1_555
O4 Cl1 1_555 1_555
O5 Cu1 1_555 1_555
N1 Cu1 1_555 1_555
C1 N1 1_555 1_555
C2 C1 1_555 1_555
C3 C2 1_555 1_555
C4 C3 1_555 1_555
C5 C4 1_555 1_555
C6 C5 1_555 1_555
N2 Cu1 1_555 1_555
H1 C1 1_555 1_555
H2 C2 1_555 1_555
H3 C5 1_555 1_555
H4 C6 1_555 1_555
H5 O5 1_555 1_555
H6 O5 1_555 1_555
N3 C7 1_555 1_555
C7 C8 1_555 1_555
C8 C9 1_555 1_555
C9 C10 1_555 1_555
C10 C11 1_555 1_555
C11 N3 1_555 1_555
H7 C7 1_555 1_555
H8 C8 1_555 1_555
H9 C10 1_555 1_555
H10 C11 1_555 1_555
O1A Cu1 1_555 1_555
Cl1A O1A 1_555 1_555
O2A Cl1A 1_555 1_555
O3A Cl1A 1_555 1_555
O4A Cl1A 1_555 1_555
O5A Cu1 1_555 1_555
H5A O5A 1_555 1_555
H6A O5A 1_555 1_555
C2A C3 1_555 1_555
C1A N1 1_555 1_555
H1A C1A 1_555 1_555
H2A C2A 1_555 1_555
N2_2 C6 1_555 1_555
Cu1_2 N2_2 1_555 1_555
C6A N2_2 1_555 1_555
C5A C4 1_555 1_555
H3A C5A 1_555 1_555
H4A C6A 1_555 1_555
C9D C9 1_555 1_555
C8D C9D 1_555 1_555
C7D C8D 1_555 1_555
N3D C7D 1_555 1_555
C11D N3D 1_555 1_555
C10D C9D 1_555 1_555
H9D C10D 1_555 1_555
H10D C11D 1_555 1_555
H7D C7D 1_555 1_555
H8D C8D 1_555 1_555
C2A C1A 1_555 1_555
C6A C5A 1_555 1_555
C11D C10D 1_555 1_555

#END
