
#######################################################################
#
#                 Cambridge Crystallographic Data Centre
#                                CCDC 
#
#######################################################################
#
# If this CIF has been generated from an entry in the Cambridge 
# Structural Database, then it will include bibliographic, chemical, 
# crystal, experimental, refinement or atomic coordinate data resulting 
# from the CCDC's data processing and validation procedures.
#
#######################################################################

data_TOKPAK02
_symmetry_cell_setting           triclinic
_symmetry_space_group_name_H-M   'P -1'
_symmetry_Int_Tables_number      2
_space_group_name_Hall           '-P 1'
loop_
_symmetry_equiv_pos_site_id
_symmetry_equiv_pos_as_xyz
1 x,y,z
2 -x,-y,-z
_cell_length_a                   7.5594(2)
_cell_length_b                   8.7732(2)
_cell_length_c                   10.1664(3)
_cell_angle_alpha                105.971(1)
_cell_angle_beta                 99.874(1)
_cell_angle_gamma                106.879(2)
_cell_volume                     596.683
loop_
_atom_site_label
_atom_site_type_symbol
_atom_site_fract_x
_atom_site_fract_y
_atom_site_fract_z
Cu1 Cu 0.5000 0.5000 0.0000
Cl1 Cl 0.11270(13) 0.38248(14) 0.17891(11)
O1 O 0.6129(4) 0.3357(4) 0.0408(3)
N1 N 0.3217(4) 0.3162(4) -0.1804(3)
O2 O 0.2734(6) 0.4247(9) 0.1290(6)
C1 C 0.0673(4) 0.0658(4) -0.4329(3)
C2 C 0.0802(5) 0.0403(5) -0.3032(4)
H1 H 0.0031 -0.0611 -0.2986
C3 C 0.1888(5) 0.2206(5) -0.4319(4)
H2 H 0.1862 0.2430 -0.5163
O3 O 0.1710(14) 0.3825(9) 0.3170(7)
C4 C 0.3125(5) 0.3399(5) -0.3055(4)
H3 H 0.3933 0.4415 -0.3073
O4 O -0.0252(7) 0.2246(8) 0.0866(7)
C7 C 0.2087(5) 0.1670(5) -0.1801(4)
H5 H 0.2166 0.1474 -0.0942
O5 O 0.0272(11) 0.5029(11) 0.1931(11)
Cu1_2 Cu -0.5000 -0.5000 -1.0000
Cl1A Cl 0.88730(13) 0.61752(14) -0.17891(11)
O1A O 0.3871(4) 0.6643(4) -0.0408(3)
N1A N -0.3217(4) -0.3162(4) -0.8196(3)
N1A_2 N 0.6783(4) 0.6838(4) 0.1804(3)
O2A O 0.7266(6) 0.5753(9) -0.1290(6)
C1A C -0.0673(4) -0.0658(4) -0.5671(3)
C2A C -0.0802(5) -0.0403(5) -0.6968(4)
H1A H -0.0031 0.0611 -0.7014
C3A C -0.1888(5) -0.2206(5) -0.5681(4)
H2A H -0.1862 -0.2430 -0.4837
O3A O 0.8290(14) 0.6175(9) -0.3170(7)
C4A C -0.3125(5) -0.3399(5) -0.6945(4)
H3A H -0.3933 -0.4415 -0.6927
O4A O 1.0252(7) 0.7754(8) -0.0866(7)
C7A C -0.2087(5) -0.1670(5) -0.8199(4)
H5A H -0.2166 -0.1474 -0.9058
O5A O 0.9728(11) 0.4971(11) -0.1931(11)
N2 N 0.4381(7) 0.8052(6) 0.7601(5)
C5 C 0.4868(5) 0.9596(5) 0.5544(4)
C6 C 0.5730(8) 0.9574(8) 0.7929(6)
H4 H 0.6519 1.0113 0.8855
C8 C 0.6003(7) 1.0375(7) 0.6964(5)
H6 H 0.6947 1.1445 0.7247
C9 C 0.3262(8) 0.7319(7) 0.6276(7)
H7 H 0.2296 0.6272 0.6042
C10 C 0.3447(7) 0.8021(6) 0.5226(5)
H8 H 0.2629 0.7447 0.4312
N2A N 0.5619(7) 1.1948(6) 0.2399(5)
C5A C 0.5132(5) 1.0404(5) 0.4456(4)
C6A C 0.4270(8) 1.0426(8) 0.2071(6)
H4A H 0.3481 0.9887 0.1145
C8A C 0.3997(7) 0.9625(7) 0.3036(5)
H6A H 0.3053 0.8555 0.2753
C9A C 0.6738(8) 1.2681(7) 0.3724(7)
H7A H 0.7704 1.3728 0.3958
C10A C 0.6553(7) 1.1979(6) 0.4774(5)
H8A H 0.7371 1.2553 0.5688
loop_
_geom_bond_atom_site_label_1
_geom_bond_atom_site_label_2
_geom_bond_site_symmetry_1
_geom_bond_site_symmetry_2
Cu1 O1 1_555 1_555
Cl1 O2 1_555 1_555
N1 Cu1 1_555 1_555
O2 Cu1 1_555 1_555
C1 C2 1_555 1_555
C2 H1 1_555 1_555
N2 C6 1_555 1_555
C3 C1 1_555 1_555
H2 C3 1_555 1_555
O3 Cl1 1_555 1_555
C4 N1 1_555 1_555
H3 C4 1_555 1_555
C5 C8 1_555 1_555
C6 H4 1_555 1_555
O4 Cl1 1_555 1_555
C7 N1 1_555 1_555
H5 C7 1_555 1_555
C8 C6 1_555 1_555
H6 C8 1_555 1_555
C9 N2 1_555 1_555
H7 C9 1_555 1_555
O5 Cl1 1_555 1_555
C10 C5 1_555 1_555
H8 C10 1_555 1_555
Cu1_2 N1A 1_555 1_555
Cl1A O2A 1_555 1_555
O1A Cu1 1_555 1_555
N1A C4A 1_555 1_555
N1A_2 Cu1 1_555 1_555
O2A Cu1 1_555 1_555
C1A C1 1_555 1_555
C2A C1A 1_555 1_555
H1A C2A 1_555 1_555
N2A C6A 1_555 1_555
C3A C1A 1_555 1_555
H2A C3A 1_555 1_555
O3A Cl1A 1_555 1_555
C4A C3A 1_555 1_555
H3A C4A 1_555 1_555
C5A C5 1_555 1_555
C6A H4A 1_555 1_555
O4A Cl1A 1_555 1_555
C7A N1A 1_555 1_555
H5A C7A 1_555 1_555
C8A C5A 1_555 1_555
H6A C8A 1_555 1_555
C9A N2A 1_555 1_555
H7A C9A 1_555 1_555
O5A Cl1A 1_555 1_555
C10A C5A 1_555 1_555
H8A C10A 1_555 1_555
C2 C7 1_555 1_555
C3 C4 1_555 1_555
C9 C10 1_555 1_555
C2A C7A 1_555 1_555
C6A C8A 1_555 1_555
C9A C10A 1_555 1_555

#END
