
#######################################################################
#
#                 Cambridge Crystallographic Data Centre
#                                CCDC 
#
#######################################################################
#
# If this CIF has been generated from an entry in the Cambridge 
# Structural Database, then it will include bibliographic, chemical, 
# crystal, experimental, refinement or atomic coordinate data resulting 
# from the CCDC's data processing and validation procedures.
#
#######################################################################

data_TOKRUH
_symmetry_cell_setting           monoclinic
_symmetry_space_group_name_H-M   'P 21/c'
_symmetry_Int_Tables_number      14
_space_group_name_Hall           '-P 2ybc'
loop_
_symmetry_equiv_pos_site_id
_symmetry_equiv_pos_as_xyz
1 x,y,z
2 -x,1/2+y,1/2-z
3 -x,-y,-z
4 x,1/2-y,1/2+z
_cell_length_a                   13.2290(8)
_cell_length_b                   16.4901(9)
_cell_length_c                   8.0403(5)
_cell_angle_alpha                90.00
_cell_angle_beta                 97.2210(10)
_cell_angle_gamma                90.00
_cell_volume                     1740.06
loop_
_atom_site_label
_atom_site_type_symbol
_atom_site_fract_x
_atom_site_fract_y
_atom_site_fract_z
Ag1 Ag 0.693908(17) 0.232007(14) 0.41469(3)
N1 N 0.62287(18) 0.32357(15) 0.2507(3)
N2 N 0.47111(19) 0.40000(15) 0.1516(3)
N3 N 0.46166(19) 0.26539(15) 0.1802(3)
N4 N 0.80209(19) 0.34836(16) 0.0432(3)
N5 N 0.8888(2) 0.36916(18) -0.1903(4)
N6 N 0.9811(2) 0.37714(18) 0.0618(4)
C1 C 0.5251(2) 0.33069(18) 0.1995(4)
C2 C 0.4864(3) 0.47721(19) 0.2399(4)
H1 H 0.4512 0.4762 0.3401
H2 H 0.4590 0.5213 0.1659
H3 H 0.5595 0.4860 0.2732
C3 C 0.3627(2) 0.3788(2) 0.1088(4)
H4 H 0.3322 0.4079 0.0071
H5 H 0.3234 0.3914 0.2025
C4 C 0.3662(2) 0.2885(2) 0.0780(4)
H6 H 0.3070 0.2606 0.1161
H7 H 0.3685 0.2763 -0.0421
C5 C 0.4987(3) 0.1830(2) 0.1677(5)
H8 H 0.5455 0.1807 0.0825
H9 H 0.4410 0.1465 0.1359
H10 H 0.5346 0.1662 0.2762
C6 C 0.6892(2) 0.39517(18) 0.2434(4)
H11 H 0.6910 0.4263 0.3490
H12 H 0.6605 0.4308 0.1500
C7 C 0.8860(2) 0.36336(19) -0.0218(4)
C8 C 0.7985(3) 0.3935(2) -0.3025(5)
H13 H 0.7573 0.4305 -0.2434
H14 H 0.8194 0.4210 -0.4007
H15 H 0.7582 0.3453 -0.3388
C9 C 0.9864(3) 0.4049(3) -0.2211(5)
H16 H 1.0123 0.3796 -0.3191
H17 H 0.9803 0.4642 -0.2392
C10 C 1.0539(3) 0.3858(3) -0.0616(5)
H18 H 1.1028 0.4303 -0.0302
H19 H 1.0922 0.3348 -0.0723
C11 C 1.0191(3) 0.3365(3) 0.2184(5)
H20 H 0.9848 0.2841 0.2241
H21 H 1.0927 0.3278 0.2230
H22 H 1.0055 0.3703 0.3133
C12 C 0.7969(2) 0.37088(19) 0.2178(4)
H23 H 0.8189 0.3245 0.2916
H24 H 0.8438 0.4167 0.2490
Ag1C Ag 0.693908(17) 0.267993(14) -0.08531(3)
N4C N 0.80209(19) 0.15164(16) 0.5432(3)
B1 B 0.2137(3) 0.0935(2) 0.0782(5)
F1 F 0.1714(2) 0.16908(14) 0.0506(4)
F2 F 0.2902(2) 0.0788(2) -0.0165(4)
F3 F 0.13921(15) 0.03534(12) 0.0451(3)
F4 F 0.2547(2) 0.08989(18) 0.2422(3)
loop_
_geom_bond_atom_site_label_1
_geom_bond_atom_site_label_2
_geom_bond_site_symmetry_1
_geom_bond_site_symmetry_2
Ag1 N1 1_555 1_555
N1 C1 1_555 1_555
N2 C1 1_555 1_555
N3 C1 1_555 1_555
N4 C7 1_555 1_555
N5 C7 1_555 1_555
N6 C7 1_555 1_555
C2 N2 1_555 1_555
H1 C2 1_555 1_555
H2 C2 1_555 1_555
H3 C2 1_555 1_555
C3 N2 1_555 1_555
H4 C3 1_555 1_555
H5 C3 1_555 1_555
C4 N3 1_555 1_555
H6 C4 1_555 1_555
H7 C4 1_555 1_555
C5 N3 1_555 1_555
H8 C5 1_555 1_555
H9 C5 1_555 1_555
H10 C5 1_555 1_555
C6 N1 1_555 1_555
H11 C6 1_555 1_555
H12 C6 1_555 1_555
C8 N5 1_555 1_555
H13 C8 1_555 1_555
H14 C8 1_555 1_555
H15 C8 1_555 1_555
C9 N5 1_555 1_555
H16 C9 1_555 1_555
H17 C9 1_555 1_555
C10 N6 1_555 1_555
H18 C10 1_555 1_555
H19 C10 1_555 1_555
C11 N6 1_555 1_555
H20 C11 1_555 1_555
H21 C11 1_555 1_555
H22 C11 1_555 1_555
C12 N4 1_555 1_555
H23 C12 1_555 1_555
H24 C12 1_555 1_555
B1 F1 1_555 1_555
F2 B1 1_555 1_555
F3 B1 1_555 1_555
F4 B1 1_555 1_555
Ag1C N4 1_555 1_555
N4C Ag1 1_555 1_555
C3 C4 1_555 1_555
C6 C12 1_555 1_555
C9 C10 1_555 1_555

#END
