
#######################################################################
#
#                 Cambridge Crystallographic Data Centre
#                                CCDC 
#
#######################################################################
#
# If this CIF has been generated from an entry in the Cambridge 
# Structural Database, then it will include bibliographic, chemical, 
# crystal, experimental, refinement or atomic coordinate data resulting 
# from the CCDC's data processing and validation procedures.
#
#######################################################################

data_TOLDOO
_symmetry_cell_setting           orthorhombic
_symmetry_space_group_name_H-M   'P b c n'
_symmetry_Int_Tables_number      60
_space_group_name_Hall           '-P 2n 2ab'
loop_
_symmetry_equiv_pos_site_id
_symmetry_equiv_pos_as_xyz
1 x,y,z
2 1/2-x,1/2-y,1/2+z
3 -x,y,1/2-z
4 1/2+x,1/2-y,-z
5 -x,-y,-z
6 1/2+x,1/2+y,1/2-z
7 x,-y,1/2+z
8 1/2-x,1/2+y,z
_cell_length_a                   24.893(2)
_cell_length_b                   24.682(2)
_cell_length_c                   8.1486(7)
_cell_angle_alpha                90
_cell_angle_beta                 90
_cell_angle_gamma                90
_cell_volume                     5006.57
loop_
_atom_site_label
_atom_site_type_symbol
_atom_site_fract_x
_atom_site_fract_y
_atom_site_fract_z
Ni1 Ni 0.5000 0.23230(3) 1.2500
N1 N 0.45040(12) 0.17169(13) 1.1422(4)
N2 N 0.28410(12) 0.00941(13) 0.7989(4)
N3 N 0.31638(13) -0.03165(13) 0.8537(4)
N4 N 0.19383(13) -0.02373(13) 0.8043(4)
N5 N 0.16071(12) 0.01351(13) 0.8775(4)
N6 N 0.04817(13) -0.20558(13) 1.1476(4)
N7 N 0.54676(15) 0.23086(15) 1.0417(5)
N8 N 0.6021(2) 0.2028(2) 0.8085(7)
N9 N 0.6835(2) 0.2418(2) 0.7053(9)
C1 C 0.39701(15) 0.17386(17) 1.1557(6)
H1 H 0.3819 0.2029 1.2118
C2 C 0.36311(15) 0.13518(16) 1.0908(5)
H2 H 0.3262 0.1381 1.1067
C3 C 0.38363(15) 0.09223(16) 1.0024(5)
C4 C 0.43960(16) 0.09080(17) 0.9887(6)
H3 H 0.4559 0.0627 0.9312
C5 C 0.47058(17) 0.13005(17) 1.0588(6)
H4 H 0.5077 0.1276 1.0478
C6 C 0.34888(15) 0.05089(16) 0.9295(5)
C7 C 0.30196(15) 0.05921(16) 0.8414(5)
C8 C 0.35612(16) -0.00639(17) 0.9310(5)
C9 C 0.27360(18) 0.10887(18) 0.7893(6)
H5 H 0.2733 0.1108 0.6716
H6 H 0.2917 0.1400 0.8329
H7 H 0.2373 0.1080 0.8294
C10 C 0.39996(17) -0.0395(2) 1.0063(6)
H8 H 0.3868 -0.0752 1.0296
H9 H 0.4117 -0.0226 1.1063
H10 H 0.4296 -0.0418 0.9313
C11 C 0.23743(14) -0.00501(17) 0.7035(5)
H11 H 0.2257 0.0263 0.6412
H12 H 0.2471 -0.0332 0.6261
C12 C 0.17981(16) -0.07522(16) 0.8409(5)
C13 C 0.13561(16) -0.07200(16) 0.9423(5)
C14 C 0.12542(15) -0.01617(16) 0.9613(5)
C15 C 0.21053(19) -0.12272(17) 0.7786(7)
H13 H 0.2053 -0.1260 0.6623
H14 H 0.1980 -0.1550 0.8319
H15 H 0.2480 -0.1178 0.8015
C16 C 0.07993(16) 0.01107(18) 1.0473(5)
H16 H 0.0932 0.0418 1.1071
H17 H 0.0634 -0.0140 1.1220
H18 H 0.0539 0.0229 0.9680
C17 C 0.06877(17) -0.16594(16) 1.2411(6)
H19 H 0.0639 -0.1681 1.3541
C18 C 0.09683(17) -0.12194(17) 1.1796(6)
H20 H 0.1096 -0.0953 1.2503
C19 C 0.10574(16) -0.11779(16) 1.0124(5)
C20 C 0.08529(18) -0.15913(17) 0.9154(5)
H21 H 0.0901 -0.1584 0.8022
C21 C 0.05769(17) -0.20155(18) 0.9883(6)
H22 H 0.0450 -0.2291 0.9207
C22 C 0.5751(2) 0.22031(19) 0.9364(7)
C23 C 0.6463(3) 0.2258(2) 0.7614(8)
Ni1E Ni 0.0000 -0.26770(3) 1.2500
Ni1E_2 Ni 1.0000 -0.26770(3) 1.2500
N1B N 0.54960(12) 0.17169(13) 1.3578(4)
N2B N 0.71590(12) 0.00941(13) 1.7011(4)
N3B N 0.68362(13) -0.03165(13) 1.6463(4)
N4B N 0.80617(13) -0.02373(13) 1.6957(4)
N5B N 0.83929(12) 0.01351(13) 1.6225(4)
N6B N 0.95183(13) -0.20558(13) 1.3524(4)
N6E N 0.54817(13) 0.29442(13) 1.3524(4)
N6G N 0.45183(13) 0.29442(13) 1.1476(4)
N7B N 0.45324(15) 0.23086(15) 1.4583(5)
N8B N 0.3979(2) 0.2028(2) 1.6915(7)
N9B N 0.3165(2) 0.2418(2) 1.7947(9)
C1B C 0.60299(15) 0.17386(17) 1.3443(6)
H1B H 0.6181 0.2029 1.2882
C2B C 0.63689(15) 0.13518(16) 1.4092(5)
H2B H 0.6738 0.1381 1.3933
C3B C 0.61637(15) 0.09223(16) 1.4976(5)
C4B C 0.56040(16) 0.09080(17) 1.5113(6)
H3B H 0.5441 0.0627 1.5688
C5B C 0.52942(17) 0.13005(17) 1.4412(6)
H4B H 0.4923 0.1276 1.4522
C6B C 0.65112(15) 0.05089(16) 1.5705(5)
C7B C 0.69804(15) 0.05921(16) 1.6586(5)
C8B C 0.64388(16) -0.00639(17) 1.5690(5)
C9B C 0.72640(18) 0.10887(18) 1.7107(6)
H5B H 0.7267 0.1108 1.8284
H6B H 0.7083 0.1400 1.6671
H7B H 0.7627 0.1080 1.6706
C10B C 0.60004(17) -0.0395(2) 1.4937(6)
H8B H 0.6132 -0.0752 1.4704
H9B H 0.5883 -0.0226 1.3937
H10B H 0.5704 -0.0418 1.5687
C11B C 0.76257(14) -0.00501(17) 1.7965(5)
H11B H 0.7743 0.0263 1.8588
H12B H 0.7529 -0.0332 1.8739
C12B C 0.82019(16) -0.07522(16) 1.6591(5)
C13B C 0.86439(16) -0.07200(16) 1.5577(5)
C14B C 0.87458(15) -0.01617(16) 1.5387(5)
C15B C 0.78947(19) -0.12272(17) 1.7214(7)
H13B H 0.7947 -0.1260 1.8377
H14B H 0.8020 -0.1550 1.6681
H15B H 0.7520 -0.1178 1.6985
C16B C 0.92007(16) 0.01107(18) 1.4527(5)
H16B H 0.9068 0.0418 1.3929
H17B H 0.9366 -0.0140 1.3780
H18B H 0.9461 0.0229 1.5320
C17B C 0.93123(17) -0.16594(16) 1.2589(6)
H19B H 0.9361 -0.1681 1.1459
C18B C 0.90317(17) -0.12194(17) 1.3204(6)
H20B H 0.8904 -0.0953 1.2497
C19B C 0.89426(16) -0.11779(16) 1.4876(5)
C20B C 0.91471(18) -0.15913(17) 1.5846(5)
H21B H 0.9099 -0.1584 1.6978
C21B C 0.94231(17) -0.20155(18) 1.5117(6)
H22B H 0.9550 -0.2291 1.5793
C22B C 0.4249(2) 0.22031(19) 1.5636(7)
C23B C 0.3537(3) 0.2258(2) 1.7386(8)
O1 O 0.7953(3) 0.2393(4) 0.8344(13)
O2? O 0.8185(10) 0.2094(13) 0.574(3)
loop_
_geom_bond_atom_site_label_1
_geom_bond_atom_site_label_2
_geom_bond_site_symmetry_1
_geom_bond_site_symmetry_2
Ni1 N1 1_555 1_555
N1 C1 1_555 1_555
N2 N3 1_555 1_555
N3 C8 1_555 1_555
N4 N5 1_555 1_555
N5 C14 1_555 1_555
N6 C17 1_555 1_555
N7 Ni1 1_555 1_555
N8 C22 1_555 1_555
N9 C23 1_555 1_555
C1 H1 1_555 1_555
C2 C1 1_555 1_555
H2 C2 1_555 1_555
C3 C2 1_555 1_555
C4 C3 1_555 1_555
H3 C4 1_555 1_555
C5 N1 1_555 1_555
H4 C5 1_555 1_555
C6 C3 1_555 1_555
C7 N2 1_555 1_555
C8 C6 1_555 1_555
C9 C7 1_555 1_555
H5 C9 1_555 1_555
H6 C9 1_555 1_555
H7 C9 1_555 1_555
C10 C8 1_555 1_555
H8 C10 1_555 1_555
H9 C10 1_555 1_555
H10 C10 1_555 1_555
C11 N2 1_555 1_555
H11 C11 1_555 1_555
H12 C11 1_555 1_555
C12 N4 1_555 1_555
C13 C12 1_555 1_555
C14 C13 1_555 1_555
C15 C12 1_555 1_555
H13 C15 1_555 1_555
H14 C15 1_555 1_555
H15 C15 1_555 1_555
C16 C14 1_555 1_555
H16 C16 1_555 1_555
H17 C16 1_555 1_555
H18 C16 1_555 1_555
C17 H19 1_555 1_555
C18 C17 1_555 1_555
H20 C18 1_555 1_555
C19 C13 1_555 1_555
C20 C19 1_555 1_555
H21 C20 1_555 1_555
C21 N6 1_555 1_555
H22 C21 1_555 1_555
C22 N7 1_555 1_555
C23 N8 1_555 1_555
Ni1E N6 1_555 1_555
Ni1E_2 N6B 1_555 1_555
N1B Ni1 1_555 1_555
N2B N3B 1_555 1_555
N3B C8B 1_555 1_555
N4B N5B 1_555 1_555
N5B C14B 1_555 1_555
N6B C17B 1_555 1_555
N6E Ni1 1_555 1_555
N6G Ni1 1_555 1_555
N7B Ni1 1_555 1_555
N8B C22B 1_555 1_555
N9B C23B 1_555 1_555
C1B N1B 1_555 1_555
H1B C1B 1_555 1_555
C2B C1B 1_555 1_555
H2B C2B 1_555 1_555
C3B C2B 1_555 1_555
C4B C3B 1_555 1_555
H3B C4B 1_555 1_555
C5B N1B 1_555 1_555
H4B C5B 1_555 1_555
C6B C3B 1_555 1_555
C7B N2B 1_555 1_555
C8B C6B 1_555 1_555
C9B C7B 1_555 1_555
H5B C9B 1_555 1_555
H6B C9B 1_555 1_555
H7B C9B 1_555 1_555
C10B C8B 1_555 1_555
H8B C10B 1_555 1_555
H9B C10B 1_555 1_555
H10B C10B 1_555 1_555
C11B N2B 1_555 1_555
H11B C11B 1_555 1_555
H12B C11B 1_555 1_555
C12B N4B 1_555 1_555
C13B C12B 1_555 1_555
C14B C13B 1_555 1_555
C15B C12B 1_555 1_555
H13B C15B 1_555 1_555
H14B C15B 1_555 1_555
H15B C15B 1_555 1_555
C16B C14B 1_555 1_555
H16B C16B 1_555 1_555
H17B C16B 1_555 1_555
H18B C16B 1_555 1_555
C17B H19B 1_555 1_555
C18B C17B 1_555 1_555
H20B C18B 1_555 1_555
C19B C13B 1_555 1_555
C20B C19B 1_555 1_555
H21B C20B 1_555 1_555
C21B N6B 1_555 1_555
H22B C21B 1_555 1_555
C22B N7B 1_555 1_555
C23B N8B 1_555 1_555
N4 C11 1_555 1_555
C4 C5 1_555 1_555
C6 C7 1_555 1_555
C18 C19 1_555 1_555
C20 C21 1_555 1_555
N4B C11B 1_555 1_555
C4B C5B 1_555 1_555
C6B C7B 1_555 1_555
C18B C19B 1_555 1_555
C20B C21B 1_555 1_555

#END
