
#######################################################################
#
#                 Cambridge Crystallographic Data Centre
#                                CCDC 
#
#######################################################################
#
# If this CIF has been generated from an entry in the Cambridge 
# Structural Database, then it will include bibliographic, chemical, 
# crystal, experimental, refinement or atomic coordinate data resulting 
# from the CCDC's data processing and validation procedures.
#
#######################################################################

data_TOLFAC
_symmetry_cell_setting           monoclinic
_symmetry_space_group_name_H-M   'C 2/c'
_symmetry_Int_Tables_number      15
_space_group_name_Hall           '-C 2yn'
loop_
_symmetry_equiv_pos_site_id
_symmetry_equiv_pos_as_xyz
1 x,y,z
2 -x,y,1/2-z
3 1/2+x,1/2+y,z
4 1/2-x,1/2+y,1/2-z
5 -x,-y,-z
6 x,-y,1/2+z
7 1/2-x,1/2-y,-z
8 1/2+x,1/2-y,1/2+z
_cell_length_a                   14.4057(10)
_cell_length_b                   25.3367(15)
_cell_length_c                   17.6104(10)
_cell_angle_alpha                90
_cell_angle_beta                 101.3070(10)
_cell_angle_gamma                90
_cell_volume                     6302.91
loop_
_atom_site_label
_atom_site_type_symbol
_atom_site_fract_x
_atom_site_fract_y
_atom_site_fract_z
C23 C 0.9118(7) 0.1408(4) 0.5219(4)
H23 H 0.8437 0.1367 0.5068
H24 H 0.9365 0.1077 0.5450
C24 C 0.9494(8) 0.1479(4) 0.4500(5)
H25 H 0.9690 0.1134 0.4351
H26 H 0.8970 0.1590 0.4098
O1 O 1.0246(5) 0.1828(2) 0.4481(3)
H27 H 1.0100 0.2030 0.4113
O2 O 0.9277(5) 0.1769(3) 0.5767(4)
H28 H 0.9790 0.1911 0.5768
O3 O 0.7897(14) 0.5454(6) 0.5422(10)
O4 O 0.0000 0.3992(19) 0.7500
O5 O 0.757(3) 0.4640(12) 0.5440(16)
O6 O 0.993(2) 0.4504(13) 0.8586(19)
Zn1 Zn 0.5000 0.49485(2) 0.7500
N1 N 0.6091(2) 0.55552(13) 0.76575(18)
N2 N 0.9307(2) 0.73153(13) 0.7797(2)
N3 N 0.9336(3) 0.73163(15) 0.8577(2)
N4 N 0.3910(2) 0.43372(13) 0.73338(17)
N5 N 0.0609(3) 0.25909(14) 0.64003(19)
N6 N 0.0670(2) 0.25881(12) 0.71805(19)
C1 C 0.6048(3) 0.59591(15) 0.7162(2)
H1 H 0.5546 0.5972 0.6740
C2 C 0.6711(3) 0.63538(15) 0.7249(2)
H2 H 0.6645 0.6629 0.6893
C3 C 0.7484(3) 0.63464(15) 0.7868(2)
C4 C 0.7509(3) 0.59181(18) 0.8370(2)
H3 H 0.8007 0.5887 0.8793
C5 C 0.6819(3) 0.55477(17) 0.8249(2)
H4 H 0.6857 0.5272 0.8602
C6 C 0.8217(3) 0.67530(16) 0.7979(2)
C7 C 0.8687(3) 0.69736(17) 0.8697(2)
C8 C 0.8508(5) 0.6893(3) 0.9482(3)
H5 H 0.8702 0.6544 0.9655
H6 H 0.7845 0.6935 0.9476
H7 H 0.8860 0.7147 0.9827
C9 C 0.8637(3) 0.69873(16) 0.7414(2)
C10 C 0.8457(4) 0.6923(2) 0.6566(3)
H8 H 0.8002 0.7181 0.6331
H9 H 0.8214 0.6576 0.6433
H10 H 0.9036 0.6971 0.6383
C11 C 1.0000 0.7629(2) 0.7500
H11 H 1.0328 0.7855 0.7911
C12 C 0.3878(3) 0.39592(15) 0.6797(2)
H12 H 0.4338 0.3962 0.6493
C13 C 0.3214(3) 0.35722(16) 0.6670(2)
H13 H 0.3233 0.3321 0.6288
C14 C 0.2524(3) 0.39494(18) 0.7659(2)
H14 H 0.2064 0.3963 0.7962
C15 C 0.3223(3) 0.43223(17) 0.7753(2)
H15 H 0.3224 0.4581 0.8128
C16 C 0.2496(3) 0.35451(15) 0.7109(2)
C17 C 0.1764(3) 0.31457(16) 0.6989(2)
C18 C 0.1275(3) 0.29229(17) 0.6273(2)
C19 C 0.1411(4) 0.3017(3) 0.5480(3)
H16 H 0.1970 0.2836 0.5401
H17 H 0.1482 0.3389 0.5402
H18 H 0.0872 0.2888 0.5119
C20 C 0.1347(3) 0.29132(16) 0.7556(2)
C21 C 0.1587(4) 0.2953(2) 0.8420(2)
H19 H 0.1108 0.3154 0.8600
H20 H 0.2189 0.3124 0.8574
H21 H 0.1617 0.2605 0.8640
C22 C 0.0000 0.2268(2) 0.7500
H22 H 0.0345 0.2042 0.7904
N7 N 0.4994(16) 0.5013(9) 0.8734(6)
C25 C 0.5241(11) 0.4955(4) 0.9388(5)
N8 N 0.4371(10) 0.5067(6) 0.9884(6)
C26 C 0.4754(11) 0.4996(5) 0.9289(7)
Zn1D Zn 0.5000 0.50515(2) 1.2500
Zn1D_2 Zn 0.5000 0.50515(2) 0.2500
Zn1_2 Zn 1.5000 0.49485(2) 0.7500
Zn1_3 Zn -0.5000 0.49485(2) 0.7500
N1A N 0.3909(2) 0.55552(13) 0.73425(18)
N1D N 0.3909(2) 0.44448(13) 1.23425(18)
N1E N 0.6091(2) 0.44448(13) 1.26575(18)
N1D_2 N 0.3909(2) 0.44448(13) 0.23425(18)
N1E_2 N 0.6091(2) 0.44448(13) 0.26575(18)
N1A_2 N 1.3909(2) 0.55552(13) 0.73425(18)
N2A N 1.0693(2) 0.73153(13) 0.7203(2)
N2A_2 N 0.0693(2) 0.73153(13) 0.7203(2)
N3A N 1.0664(3) 0.73163(15) 0.6423(2)
N3A_2 N 0.0664(3) 0.73163(15) 0.6423(2)
N4A N 0.6090(2) 0.43372(13) 0.76662(17)
N4D N 0.6090(2) 0.56628(13) 1.26662(17)
N4E N 0.3910(2) 0.56628(13) 1.23338(17)
N4D_2 N 0.6090(2) 0.56628(13) 0.26662(17)
N4E_2 N 0.3910(2) 0.56628(13) 0.23338(17)
N4A_2 N -0.3910(2) 0.43372(13) 0.76662(17)
N5A N -0.0609(3) 0.25909(14) 0.85997(19)
N5A_2 N 0.9391(3) 0.25909(14) 0.85997(19)
N6A N -0.0670(2) 0.25881(12) 0.78195(19)
N6A_2 N 0.9330(2) 0.25881(12) 0.78195(19)
C1A C 0.3952(3) 0.59591(15) 0.7838(2)
C1D C 0.3952(3) 0.40409(15) 1.2838(2)
C1E C 0.6048(3) 0.40409(15) 1.2162(2)
C1A_2 C 1.3952(3) 0.59591(15) 0.7838(2)
C1D_2 C 0.3952(3) 0.40409(15) 0.2838(2)
C1E_2 C 0.6048(3) 0.40409(15) 0.2162(2)
H1A H 0.4454 0.5972 0.8260
H1D H 0.4454 0.4028 1.3260
H1E H 0.5546 0.4028 1.1740
H1A_2 H 1.4454 0.5972 0.8260
C2A C 0.3289(3) 0.63538(15) 0.7751(2)
C2A_2 C 1.3289(3) 0.63538(15) 0.7751(2)
C2D C 0.3289(3) 0.36462(15) 1.2751(2)
C2E C 0.6711(3) 0.36462(15) 1.2249(2)
H2A H 0.3355 0.6629 0.8107
H2A_2 H 1.3355 0.6629 0.8107
H2D H 0.3355 0.3371 1.3107
H2E H 0.6645 0.3371 1.1893
C3A C 0.2516(3) 0.63464(15) 0.7132(2)
C3A_2 C 1.2516(3) 0.63464(15) 0.7132(2)
C3D C 0.2516(3) 0.36536(15) 1.2132(2)
C3E C 0.7484(3) 0.36536(15) 1.2868(2)
C4A C 0.2491(3) 0.59181(18) 0.6630(2)
C4A_2 C 1.2491(3) 0.59181(18) 0.6630(2)
C4D C 0.2491(3) 0.40819(18) 1.1630(2)
C4E C 0.7509(3) 0.40819(18) 1.3370(2)
H3A H 0.1993 0.5887 0.6207
H3A_2 H 1.1993 0.5887 0.6207
H3D H 0.1993 0.4113 1.1207
H3E H 0.8007 0.4113 1.3793
C5A C 0.3181(3) 0.55477(17) 0.6751(2)
C5D C 0.3181(3) 0.44523(17) 1.1751(2)
C5E C 0.6819(3) 0.44523(17) 1.3249(2)
C5A_2 C 1.3181(3) 0.55477(17) 0.6751(2)
C5D_2 C 0.3181(3) 0.44523(17) 0.1751(2)
C5E_2 C 0.6819(3) 0.44523(17) 0.3249(2)
H4A H 0.3143 0.5272 0.6398
H4D H 0.3143 0.4728 1.1398
H4E H 0.6857 0.4728 1.3602
H4A_2 H 1.3143 0.5272 0.6398
C6A C 1.1783(3) 0.67530(16) 0.7021(2)
C6A_2 C 0.1783(3) 0.67530(16) 0.7021(2)
C6D C 0.1783(3) 0.32470(16) 1.2021(2)
C6E C 0.8217(3) 0.32470(16) 1.2979(2)
C7A C 1.1313(3) 0.69736(17) 0.6303(2)
C7A_2 C 0.1313(3) 0.69736(17) 0.6303(2)
C8A C 1.1492(5) 0.6893(3) 0.5518(3)
C8A_2 C 0.1492(5) 0.6893(3) 0.5518(3)
H5A H 1.1298 0.6544 0.5345
H5A_2 H 0.1298 0.6544 0.5345
H6A H 1.2155 0.6935 0.5524
H6A_2 H 0.2155 0.6935 0.5524
H7A H 1.1140 0.7147 0.5173
H7A_2 H 0.1140 0.7147 0.5173
C9A C 1.1363(3) 0.69873(16) 0.7586(2)
C9A_2 C 0.1363(3) 0.69873(16) 0.7586(2)
C10A C 1.1543(4) 0.6923(2) 0.8434(3)
C10A_2 C 0.1543(4) 0.6923(2) 0.8434(3)
H8A H 1.1998 0.7181 0.8669
H8A_2 H 0.1998 0.7181 0.8669
H9A H 1.1786 0.6576 0.8567
H9A_2 H 0.1786 0.6576 0.8567
H10A H 1.0964 0.6971 0.8617
H10A_2 H 0.0964 0.6971 0.8617
C11_2 C 0.0000 0.7629(2) 0.7500
H11A H 0.9672 0.7855 0.7089
C12A C 0.6122(3) 0.39592(15) 0.8203(2)
C12D C 0.6122(3) 0.60408(15) 1.3203(2)
C12E C 0.3878(3) 0.60408(15) 1.1797(2)
C12A_2 C -0.3878(3) 0.39592(15) 0.8203(2)
C12D_2 C 0.6122(3) 0.60408(15) 0.3203(2)
C12E_2 C 0.3878(3) 0.60408(15) 0.1797(2)
H12A H 0.5662 0.3962 0.8507
H12D H 0.5662 0.6038 1.3507
H12E H 0.4338 0.6038 1.1493
H12A_2 H -0.4338 0.3962 0.8507
C13A C 0.6786(3) 0.35722(16) 0.8330(2)
C13A_2 C -0.3214(3) 0.35722(16) 0.8330(2)
C13D C 0.6786(3) 0.64278(16) 1.3330(2)
C13E C 0.3214(3) 0.64278(16) 1.1670(2)
H13A H 0.6767 0.3321 0.8712
H13A_2 H -0.3233 0.3321 0.8712
H13D H 0.6767 0.6679 1.3712
H13E H 0.3233 0.6679 1.1288
C14A C 0.7476(3) 0.39494(18) 0.7341(2)
C14A_2 C -0.2524(3) 0.39494(18) 0.7341(2)
C14D C 0.7476(3) 0.60506(18) 1.2341(2)
C14E C 0.2524(3) 0.60506(18) 1.2659(2)
H14A H 0.7936 0.3963 0.7038
H14A_2 H -0.2064 0.3963 0.7038
H14D H 0.7936 0.6037 1.2038
H14E H 0.2064 0.6037 1.2962
C15A C 0.6777(3) 0.43223(17) 0.7247(2)
C15D C 0.6777(3) 0.56777(17) 1.2247(2)
C15E C 0.3223(3) 0.56777(17) 1.2753(2)
C15A_2 C -0.3223(3) 0.43223(17) 0.7247(2)
C15D_2 C 0.6777(3) 0.56777(17) 0.2247(2)
C15E_2 C 0.3223(3) 0.56777(17) 0.2753(2)
H15A H 0.6776 0.4581 0.6872
H15D H 0.6776 0.5419 1.1872
H15E H 0.3224 0.5419 1.3128
H15A_2 H -0.3224 0.4581 0.6872
C16A C 0.7504(3) 0.35451(15) 0.7891(2)
C16A_2 C -0.2496(3) 0.35451(15) 0.7891(2)
C16D C 0.7504(3) 0.64549(15) 1.2891(2)
C16E C 0.2496(3) 0.64549(15) 1.2109(2)
C17A C -0.1764(3) 0.31457(16) 0.8011(2)
C17A_2 C 0.8236(3) 0.31457(16) 0.8011(2)
C17D C 0.8236(3) 0.68543(16) 1.3011(2)
C17E C 0.1764(3) 0.68543(16) 1.1989(2)
C18A C -0.1275(3) 0.29229(17) 0.8727(2)
C18A_2 C 0.8725(3) 0.29229(17) 0.8727(2)
C19A C -0.1411(4) 0.3017(3) 0.9520(3)
C19A_2 C 0.8589(4) 0.3017(3) 0.9520(3)
H16A H -0.1970 0.2836 0.9599
H16A_2 H 0.8030 0.2836 0.9599
H17A H -0.1482 0.3389 0.9598
H17A_2 H 0.8518 0.3389 0.9598
H18A H -0.0872 0.2888 0.9881
H18A_2 H 0.9128 0.2888 0.9881
C20A C -0.1347(3) 0.29132(16) 0.7444(2)
C20A_2 C 0.8653(3) 0.29132(16) 0.7444(2)
C21A C -0.1587(4) 0.2953(2) 0.6580(2)
C21A_2 C 0.8413(4) 0.2953(2) 0.6580(2)
H19A H -0.1108 0.3154 0.6400
H19A_2 H 0.8892 0.3154 0.6400
H20A H -0.2189 0.3124 0.6426
H20A_2 H 0.7811 0.3124 0.6426
H21A H -0.1617 0.2605 0.6360
H21A_2 H 0.8383 0.2605 0.6360
C22_2 C 1.0000 0.2268(2) 0.7500
H22A H -0.0345 0.2042 0.7096
N7A N 0.5006(16) 0.5013(9) 0.6266(6)
N7D N 0.5006(16) 0.4987(9) 1.1266(6)
N7E N 0.4994(16) 0.4987(9) 1.3734(6)
N7E_2 N 0.4994(16) 0.4987(9) 0.3734(6)
N7D_2 N 0.5006(16) 0.4987(9) 0.1266(6)
N7A_2 N 0.5006(16) 0.5013(9) 1.6266(6)
C25D C 0.4759(11) 0.5045(4) 1.0612(5)
C25A C 0.4759(11) 0.4955(4) 0.5612(5)
C25E C 0.5241(11) 0.5045(4) 0.4388(5)
C25E_2 C 0.5241(11) 0.5045(4) 1.4388(5)
C25A_2 C 0.4759(11) 0.4955(4) 1.5612(5)
C25D_2 C 0.4759(11) 0.5045(4) 0.0612(5)
N8D N 0.5629(10) 0.4933(6) 1.0116(6)
N8A N 0.5629(10) 0.5067(6) 0.5116(6)
N8E N 0.4371(10) 0.4933(6) 0.4884(6)
N8A_2 N 0.5629(10) 0.5067(6) 1.5116(6)
N8E_2 N 0.4371(10) 0.4933(6) 1.4884(6)
C26D C 0.5246(11) 0.5004(5) 1.0711(7)
C26A C 0.5246(11) 0.4996(5) 0.5711(7)
C26E C 0.4754(11) 0.5004(5) 0.4289(7)
C26E_2 C 0.4754(11) 0.5004(5) 1.4289(7)
C26A_2 C 0.5246(11) 0.4996(5) 1.5711(7)
C26D_2 C 0.5246(11) 0.5004(5) 0.0711(7)
N9? N 0.4939(18) 0.4881(9) 0.6242(8)
O7? O 0.939(4) 0.429(2) 0.912(3)
loop_
_geom_bond_atom_site_label_1
_geom_bond_atom_site_label_2
_geom_bond_site_symmetry_1
_geom_bond_site_symmetry_2
Zn1 N1 1_555 1_555
N1 C1 1_555 1_555
N2 N3 1_555 1_555
N3 C7 1_555 1_555
N4 Zn1 1_555 1_555
N5 N6 1_555 1_555
N6 C20 1_555 1_555
C1 H1 1_555 1_555
C2 C1 1_555 1_555
H2 C2 1_555 1_555
C3 C2 1_555 1_555
C4 C3 1_555 1_555
H3 C4 1_555 1_555
C5 N1 1_555 1_555
H4 C5 1_555 1_555
C6 C3 1_555 1_555
C7 C6 1_555 1_555
C8 C7 1_555 1_555
H5 C8 1_555 1_555
H6 C8 1_555 1_555
H7 C8 1_555 1_555
C9 N2 1_555 1_555
C10 C9 1_555 1_555
H8 C10 1_555 1_555
H9 C10 1_555 1_555
H10 C10 1_555 1_555
C11 N2 1_555 1_555
H11 C11 1_555 1_555
C12 N4 1_555 1_555
H12 C12 1_555 1_555
C13 C12 1_555 1_555
H13 C13 1_555 1_555
C14 H14 1_555 1_555
C15 N4 1_555 1_555
H15 C15 1_555 1_555
C16 C13 1_555 1_555
C17 C16 1_555 1_555
C18 N5 1_555 1_555
C19 C18 1_555 1_555
H16 C19 1_555 1_555
H17 C19 1_555 1_555
H18 C19 1_555 1_555
C20 C17 1_555 1_555
C21 C20 1_555 1_555
H19 C21 1_555 1_555
H20 C21 1_555 1_555
H21 C21 1_555 1_555
C22 N6 1_555 1_555
H22 C22 1_555 1_555
C23 H23 1_555 1_555
H24 C23 1_555 1_555
C24 C23 1_555 1_555
H25 C24 1_555 1_555
H26 C24 1_555 1_555
O1 C24 1_555 1_555
H27 O1 1_555 1_555
O2 C23 1_555 1_555
H28 O2 1_555 1_555
N7 Zn1 1_555 1_555
C25 N7 1_555 1_555
N8 C25 1_555 1_555
C26 N7 1_555 1_555
Zn1D N1D 1_555 1_555
Zn1D_2 N1D_2 1_555 1_555
Zn1_2 N1A_2 1_555 1_555
Zn1_3 N4A_2 1_555 1_555
N1A Zn1 1_555 1_555
N1D C1D 1_555 1_555
N1E Zn1D 1_555 1_555
N1D_2 C1D_2 1_555 1_555
N1E_2 Zn1D_2 1_555 1_555
N1A_2 C1A_2 1_555 1_555
N2A C11 1_555 1_555
N2A_2 N3A_2 1_555 1_555
N3A N2A 1_555 1_555
N3A_2 C7A_2 1_555 1_555
N4A Zn1 1_555 1_555
N4D Zn1D 1_555 1_555
N4E Zn1D 1_555 1_555
N4D_2 Zn1D_2 1_555 1_555
N4E_2 Zn1D_2 1_555 1_555
N4A_2 C12A_2 1_555 1_555
N5A N6A 1_555 1_555
N5A_2 N6A_2 1_555 1_555
N6A C22 1_555 1_555
N6A_2 C20A_2 1_555 1_555
C1A N1A 1_555 1_555
C1D H1D 1_555 1_555
C1E N1E 1_555 1_555
C1A_2 H1A_2 1_555 1_555
C1E_2 N1E_2 1_555 1_555
H1A C1A 1_555 1_555
H1E C1E 1_555 1_555
C2A C1A 1_555 1_555
C2A_2 C1A_2 1_555 1_555
C2D C1D 1_555 1_555
C2E C1E 1_555 1_555
H2A C2A 1_555 1_555
H2A_2 C2A_2 1_555 1_555
H2D C2D 1_555 1_555
H2E C2E 1_555 1_555
C3A C2A 1_555 1_555
C3A_2 C2A_2 1_555 1_555
C3D C2D 1_555 1_555
C3E C2E 1_555 1_555
C4A C3A 1_555 1_555
C4A_2 C3A_2 1_555 1_555
C4D C3D 1_555 1_555
C4E C3E 1_555 1_555
H3A C4A 1_555 1_555
H3A_2 C4A_2 1_555 1_555
H3D C4D 1_555 1_555
H3E C4E 1_555 1_555
C5A N1A 1_555 1_555
C5D N1D 1_555 1_555
C5E N1E 1_555 1_555
C5A_2 N1A_2 1_555 1_555
C5D_2 N1D_2 1_555 1_555
C5E_2 N1E_2 1_555 1_555
H4A C5A 1_555 1_555
H4D C5D 1_555 1_555
H4E C5E 1_555 1_555
H4A_2 C5A_2 1_555 1_555
C6A C3A_2 1_555 1_555
C6A_2 C3A 1_555 1_555
C6D C3D 1_555 1_555
C6E C3E 1_555 1_555
C7A N3A 1_555 1_555
C7A_2 C6A_2 1_555 1_555
C8A C7A 1_555 1_555
C8A_2 C7A_2 1_555 1_555
H5A C8A 1_555 1_555
H5A_2 C8A_2 1_555 1_555
H6A C8A 1_555 1_555
H6A_2 C8A_2 1_555 1_555
H7A C8A 1_555 1_555
H7A_2 C8A_2 1_555 1_555
C9A N2A 1_555 1_555
C9A_2 N2A_2 1_555 1_555
C10A C9A 1_555 1_555
C10A_2 C9A_2 1_555 1_555
H8A C10A 1_555 1_555
H8A_2 C10A_2 1_555 1_555
H9A C10A 1_555 1_555
H9A_2 C10A_2 1_555 1_555
H10A C10A 1_555 1_555
H10A_2 C10A_2 1_555 1_555
C11_2 N2A_2 1_555 1_555
H11A C11 1_555 1_555
C12A N4A 1_555 1_555
C12D N4D 1_555 1_555
C12E N4E 1_555 1_555
C12A_2 H12A_2 1_555 1_555
C12D_2 N4D_2 1_555 1_555
C12E_2 N4E_2 1_555 1_555
H12A C12A 1_555 1_555
H12D C12D 1_555 1_555
H12E C12E 1_555 1_555
C13A C12A 1_555 1_555
C13A_2 C12A_2 1_555 1_555
C13D C12D 1_555 1_555
C13E C12E 1_555 1_555
H13A C13A 1_555 1_555
H13A_2 C13A_2 1_555 1_555
H13D C13D 1_555 1_555
H13E C13E 1_555 1_555
C14A H14A 1_555 1_555
C14A_2 H14A_2 1_555 1_555
C14D H14D 1_555 1_555
C14E H14E 1_555 1_555
C15A N4A 1_555 1_555
C15D N4D 1_555 1_555
C15E N4E 1_555 1_555
C15A_2 N4A_2 1_555 1_555
C15D_2 N4D_2 1_555 1_555
C15E_2 N4E_2 1_555 1_555
H15A C15A 1_555 1_555
H15D C15D 1_555 1_555
H15E C15E 1_555 1_555
H15A_2 C15A_2 1_555 1_555
C16A C13A 1_555 1_555
C16A_2 C13A_2 1_555 1_555
C16D C13D 1_555 1_555
C16E C13E 1_555 1_555
C17A C16A_2 1_555 1_555
C17A_2 C16A 1_555 1_555
C17D C16D 1_555 1_555
C17E C16E 1_555 1_555
C18A N5A 1_555 1_555
C18A_2 N5A_2 1_555 1_555
C19A C18A 1_555 1_555
C19A_2 C18A_2 1_555 1_555
H16A C19A 1_555 1_555
H16A_2 C19A_2 1_555 1_555
H17A C19A 1_555 1_555
H17A_2 C19A_2 1_555 1_555
H18A C19A 1_555 1_555
H18A_2 C19A_2 1_555 1_555
C20A N6A 1_555 1_555
C20A_2 C17A_2 1_555 1_555
C21A C20A 1_555 1_555
C21A_2 C20A_2 1_555 1_555
H19A C21A 1_555 1_555
H19A_2 C21A_2 1_555 1_555
H20A C21A 1_555 1_555
H20A_2 C21A_2 1_555 1_555
H21A C21A 1_555 1_555
H21A_2 C21A_2 1_555 1_555
C22_2 N6A_2 1_555 1_555
H22A C22 1_555 1_555
N7A Zn1 1_555 1_555
N7D Zn1D 1_555 1_555
N7E Zn1D 1_555 1_555
N7E_2 Zn1D_2 1_555 1_555
N7D_2 Zn1D_2 1_555 1_555
N7A_2 C25A_2 1_555 1_555
C25D N8 1_555 1_555
C25A N7A 1_555 1_555
C25E N7E_2 1_555 1_555
C25E_2 N7E 1_555 1_555
C25A_2 N8A_2 1_555 1_555
C25D_2 N7D_2 1_555 1_555
N8D C25 1_555 1_555
N8A C25A 1_555 1_555
N8E C25A 1_555 1_555
N8A_2 C25E_2 1_555 1_555
N8E_2 C25E_2 1_555 1_555
C26D N8 1_555 1_555
C26A N7A 1_555 1_555
C26E N7E_2 1_555 1_555
C26E_2 N7E 1_555 1_555
C26A_2 N7A_2 1_555 1_555
C26D_2 N7D_2 1_555 1_555
C4 C5 1_555 1_555
C6 C9 1_555 1_555
C14 C15 1_555 1_555
C14 C16 1_555 1_555
C17 C18 1_555 1_555
C25 C26 1_555 1_555
N8 C26 1_555 1_555
C26 N8D 1_555 1_555
C4A C5A 1_555 1_555
C4A_2 C5A_2 1_555 1_555
C4D C5D 1_555 1_555
C4E C5E 1_555 1_555
C6A C7A 1_555 1_555
C6A C9A 1_555 1_555
C6A_2 C9A_2 1_555 1_555
C14A C15A 1_555 1_555
C14A C16A 1_555 1_555
C14A_2 C15A_2 1_555 1_555
C14A_2 C16A_2 1_555 1_555
C14D C15D 1_555 1_555
C14D C16D 1_555 1_555
C14E C15E 1_555 1_555
C14E C16E 1_555 1_555
C17A C18A 1_555 1_555
C17A C20A 1_555 1_555
C17A_2 C18A_2 1_555 1_555
N7D C25D 1_555 1_555
N7D C26D 1_555 1_555
C25D N8D 1_555 1_555
C25D C26D 1_555 1_555
C25A C26A 1_555 1_555
C25E N8A 1_555 1_555
C25E N8E 1_555 1_555
C25E C26E 1_555 1_555
C25E_2 C26E_2 1_555 1_555
C25A_2 N8E_2 1_555 1_555
C25A_2 C26A_2 1_555 1_555
N8D C26D 1_555 1_555
N8A C26A 1_555 1_555
N8A C26E 1_555 1_555
N8E C26A 1_555 1_555
N8E C26E 1_555 1_555
N8A_2 C26E_2 1_555 1_555
N8A_2 C26A_2 1_555 1_555
N8E_2 C26E_2 1_555 1_555
N8E_2 C26A_2 1_555 1_555

#END
