
#######################################################################
#
#                 Cambridge Crystallographic Data Centre
#                                CCDC 
#
#######################################################################
#
# If this CIF has been generated from an entry in the Cambridge 
# Structural Database, then it will include bibliographic, chemical, 
# crystal, experimental, refinement or atomic coordinate data resulting 
# from the CCDC's data processing and validation procedures.
#
#######################################################################

data_TOLGUX
_symmetry_cell_setting           orthorhombic
_symmetry_space_group_name_H-M   'P c c n'
_symmetry_Int_Tables_number      56
_space_group_name_Hall           '-P 2ab 2ac'
loop_
_symmetry_equiv_pos_site_id
_symmetry_equiv_pos_as_xyz
1 x,y,z
2 1/2-x,1/2-y,z
3 -x,1/2+y,1/2-z
4 1/2+x,-y,1/2-z
5 -x,-y,-z
6 1/2+x,1/2+y,-z
7 x,1/2-y,1/2+z
8 1/2-x,y,1/2+z
_cell_length_a                   28.816(6)
_cell_length_b                   14.330(3)
_cell_length_c                   21.034(5)
_cell_angle_alpha                90
_cell_angle_beta                 90
_cell_angle_gamma                90
_cell_volume                     8685.64
loop_
_atom_site_label
_atom_site_type_symbol
_atom_site_fract_x
_atom_site_fract_y
_atom_site_fract_z
Cd1 Cd 0.063865(13) 0.39633(2) 0.410809(14)
O1 O 0.0770(2) 0.4036(3) 0.29452(19)
O2 O 0.05807(13) 0.2716(3) 0.33824(15)
O3 O 0.05863(14) 0.0669(3) 0.03265(17)
O4 O 0.05719(14) 0.2081(3) -0.00696(16)
O5 O -0.01587(14) 0.4223(3) 0.40084(18)
H1 H -0.0265 0.4705 0.4194
H2 H -0.0330 0.3740 0.4005
N1 N 0.06635(15) 0.5582(3) 0.40180(19)
N2 N 0.07329(16) 1.0056(3) 0.3989(2)
N3 N 0.07827(18) 0.9968(3) 0.3351(2)
N4 N 0.13202(16) 1.0982(3) 0.4495(2)
N5 N 0.14137(18) 1.0689(4) 0.5087(2)
N6 N 0.35365(17) 1.1137(3) 0.4234(2)
C1 C 0.06494(17) 0.7540(3) 0.3877(2)
C2 C 0.0800(6) 0.7099(8) 0.4452(5)
H3 H 0.0906 0.7461 0.4789
C3 C 0.0790(6) 0.6149(7) 0.4507(5)
H4 H 0.0874 0.5880 0.4893
C4 C 0.0504(4) 0.6002(9) 0.3508(7)
H5 H 0.0384 0.5630 0.3185
C5 C 0.0502(5) 0.6941(6) 0.3418(5)
H6 H 0.0396 0.7180 0.3033
C10 C 0.06680(17) 0.8553(3) 0.3796(2)
C11 C 0.06581(18) 0.9224(4) 0.4281(3)
C12 C 0.0569(3) 0.9137(4) 0.4964(3)
H11 H 0.0413 0.9687 0.5114
H12 H 0.0859 0.9067 0.5186
H13 H 0.0378 0.8601 0.5041
C13 C 0.0735(2) 0.9066(4) 0.3236(3)
C14 C 0.0745(4) 0.8735(5) 0.2553(3)
H14 H 0.0458 0.8430 0.2453
H15 H 0.0997 0.8305 0.2496
H16 H 0.0787 0.9261 0.2276
C15 C 0.0843(2) 1.0951(3) 0.4281(3)
H17 H 0.0790 1.1447 0.3976
H18 H 0.0638 1.1054 0.4641
C16 C 0.1705(2) 1.1145(4) 0.4156(2)
C17 C 0.1693(2) 1.1517(6) 0.3498(3)
H19 H 0.1661 1.1010 0.3203
H20 H 0.1976 1.1847 0.3412
H21 H 0.1435 1.1935 0.3454
C18 C 0.2075(2) 1.0983(4) 0.4564(3)
C19 C 0.1862(2) 1.0697(6) 0.5136(3)
C20 C 0.2107(3) 1.0367(11) 0.5737(4)
H22 H 0.2435 1.0341 0.5661
H23 H 0.1996 0.9757 0.5849
H24 H 0.2044 1.0794 0.6077
C21 C 0.2573(2) 1.1058(4) 0.4429(3)
C22 C 0.2871(2) 1.1493(5) 0.4858(3)
H25 H 0.2751 1.1767 0.5224
C23 C 0.3347(2) 1.1520(4) 0.4740(3)
H26 H 0.3538 1.1822 0.5031
C24 C 0.3254(2) 1.0748(5) 0.3816(3)
H27 H 0.3384 1.0491 0.3450
C25 C 0.2776(2) 1.0699(5) 0.3889(3)
H28 H 0.2594 1.0426 0.3575
C26 C 0.06760(18) 0.3197(4) 0.2907(2)
C27 C 0.06688(18) 0.2740(3) 0.2260(2)
C28 C 0.06383(18) 0.1796(3) 0.2190(2)
H29 H 0.0629 0.1415 0.2548
C29 C 0.06209(19) 0.1395(4) 0.1585(2)
H30 H 0.0611 0.0749 0.1542
C30 C 0.06179(17) 0.1947(3) 0.1053(2)
C31 C 0.0653(3) 0.2888(4) 0.1126(3)
H31 H 0.0661 0.3270 0.0769
C32 C 0.0678(3) 0.3282(4) 0.1726(3)
H32 H 0.0702 0.3927 0.1766
C33 C 0.05860(16) 0.1533(4) 0.0395(2)
Cd1F Cd 0.063865(13) 0.10367(2) -0.089191(14)
Cd1A Cd 0.436135(13) 1.10367(2) 0.410809(14)
O3F O 0.05863(14) 0.4331(3) 0.53265(17)
O4F O 0.05719(14) 0.2919(3) 0.49304(16)
N6A N 0.14635(17) 0.3863(3) 0.4234(2)
C34 C 0.0534(3) 0.7773(5) 0.6300(4)
H33 H 0.0219 0.7633 0.6282
C35 C 0.0301(3) 0.9273(7) 0.6742(6)
H34 H 0.0390 0.9613 0.7116
H35 H 0.0020 0.8934 0.6825
H36 H 0.0252 0.9701 0.6398
C36 C 0.1121(3) 0.8892(7) 0.6633(6)
H37 H 0.1316 0.8390 0.6493
H38 H 0.1188 0.9031 0.7070
H39 H 0.1179 0.9435 0.6378
N7 N 0.0661(2) 0.8634(5) 0.6575(3)
O6 O 0.0795(2) 0.7216(4) 0.6091(3)
C37 C 0.3403(6) 0.9542(14) 0.6088(9)
H40 H 0.3426 1.0209 0.6052
H41 H 0.3315 0.9283 0.5685
H42 H 0.3698 0.9291 0.6214
C38 C 0.2819(9) 0.8416(16) 0.6527(13)
H43 H 0.2871 0.8076 0.6914
H44 H 0.2938 0.8063 0.6175
H45 H 0.2493 0.8518 0.6471
C39 C 0.2948(11) 0.9957(18) 0.7064(12)
H46 H 0.3115 1.0497 0.7153
N8 N 0.3057(5) 0.9306(12) 0.6561(7)
O7 O 0.2637(11) 0.972(2) 0.7329(15)
O9 O 0.3005(18) 0.250(4) 0.674(2)
O10 O 0.1901(7) 0.7858(15) 0.4072(9)
C6? C 0.0524(14) 0.7104(14) 0.4388(11)
H7? H 0.0426 0.7449 0.4738
C7? C 0.0531(13) 0.6153(16) 0.4428(12)
H8? H 0.0425 0.5900 0.4808
C8? C 0.0764(18) 0.6015(16) 0.3463(12)
H9? H 0.0814 0.5637 0.3111
C9? C 0.0800(17) 0.6949(14) 0.3374(10)
H10? H 0.0919 0.7194 0.2999
O8? O 0.2651(13) 0.274(3) 0.7105(17)
O11? O 0.1903(12) 0.730(2) 0.3420(16)
loop_
_geom_bond_atom_site_label_1
_geom_bond_atom_site_label_2
_geom_bond_site_symmetry_1
_geom_bond_site_symmetry_2
Cd1 O1 1_555 1_555
O1 C26 1_555 1_555
O2 Cd1 1_555 1_555
O3 C33 1_555 1_555
O4 C33 1_555 1_555
O5 Cd1 1_555 1_555
H1 O5 1_555 1_555
H2 O5 1_555 1_555
N1 Cd1 1_555 1_555
N2 N3 1_555 1_555
N3 C13 1_555 1_555
N4 N5 1_555 1_555
N5 C19 1_555 1_555
N6 C23 1_555 1_555
C1 C2 1_555 1_555
C2 H3 1_555 1_555
C3 N1 1_555 1_555
H4 C3 1_555 1_555
C4 N1 1_555 1_555
H5 C4 1_555 1_555
C5 C1 1_555 1_555
H6 C5 1_555 1_555
C10 C1 1_555 1_555
C11 N2 1_555 1_555
C12 C11 1_555 1_555
H11 C12 1_555 1_555
H12 C12 1_555 1_555
H13 C12 1_555 1_555
C13 C10 1_555 1_555
C14 C13 1_555 1_555
H14 C14 1_555 1_555
H15 C14 1_555 1_555
H16 C14 1_555 1_555
C15 N2 1_555 1_555
H17 C15 1_555 1_555
H18 C15 1_555 1_555
C16 N4 1_555 1_555
C17 C16 1_555 1_555
H19 C17 1_555 1_555
H20 C17 1_555 1_555
H21 C17 1_555 1_555
C18 C16 1_555 1_555
C19 C18 1_555 1_555
C20 C19 1_555 1_555
H22 C20 1_555 1_555
H23 C20 1_555 1_555
H24 C20 1_555 1_555
C21 C18 1_555 1_555
C22 C21 1_555 1_555
H25 C22 1_555 1_555
C23 C22 1_555 1_555
H26 C23 1_555 1_555
C24 N6 1_555 1_555
H27 C24 1_555 1_555
C25 C21 1_555 1_555
H28 C25 1_555 1_555
C26 O2 1_555 1_555
C27 C26 1_555 1_555
C28 C27 1_555 1_555
H29 C28 1_555 1_555
C29 C28 1_555 1_555
H30 C29 1_555 1_555
C30 C29 1_555 1_555
C31 C30 1_555 1_555
H31 C31 1_555 1_555
C32 C27 1_555 1_555
H32 C32 1_555 1_555
C33 C30 1_555 1_555
C34 H33 1_555 1_555
C35 H34 1_555 1_555
H35 C35 1_555 1_555
H36 C35 1_555 1_555
C36 H37 1_555 1_555
H38 C36 1_555 1_555
H39 C36 1_555 1_555
C37 H40 1_555 1_555
H41 C37 1_555 1_555
H42 C37 1_555 1_555
C38 H43 1_555 1_555
H44 C38 1_555 1_555
H45 C38 1_555 1_555
C39 H46 1_555 1_555
N7 C34 1_555 1_555
N8 C37 1_555 1_555
O6 C34 1_555 1_555
O7 C39 1_555 1_555
Cd1F O3 1_555 1_555
Cd1A N6 1_555 1_555
O3F Cd1 1_555 1_555
O4F Cd1 1_555 1_555
N6A Cd1 1_555 1_555
O4 Cd1F 1_555 1_555
N4 C15 1_555 1_555
C2 C3 1_555 1_555
C4 C5 1_555 1_555
C10 C11 1_555 1_555
C24 C25 1_555 1_555
C31 C32 1_555 1_555
C35 N7 1_555 1_555
C36 N7 1_555 1_555
C38 N8 1_555 1_555
C39 N8 1_555 1_555

#END
