
#######################################################################
#
#                 Cambridge Crystallographic Data Centre
#                                CCDC 
#
#######################################################################
#
# If this CIF has been generated from an entry in the Cambridge 
# Structural Database, then it will include bibliographic, chemical, 
# crystal, experimental, refinement or atomic coordinate data resulting 
# from the CCDC's data processing and validation procedures.
#
#######################################################################

data_TOLGIL
_symmetry_cell_setting           monoclinic
_symmetry_space_group_name_H-M   'P 2/c'
_symmetry_Int_Tables_number      13
_space_group_name_Hall           '-P 2yc'
loop_
_symmetry_equiv_pos_site_id
_symmetry_equiv_pos_as_xyz
1 x,y,z
2 -x,y,1/2-z
3 -x,-y,-z
4 x,-y,1/2+z
_cell_length_a                   12.6199(10)
_cell_length_b                   7.8969(6)
_cell_length_c                   25.1700(17)
_cell_angle_alpha                90
_cell_angle_beta                 106.632(3)
_cell_angle_gamma                90
_cell_volume                     2403.45
loop_
_atom_site_label
_atom_site_type_symbol
_atom_site_fract_x
_atom_site_fract_y
_atom_site_fract_z
Cd1 Cd 1.0000 0.0000 1.0000
Cl1 Cl 1.09248(10) 0.22202(17) 0.95030(6)
N1 N 0.8341(3) 0.1649(5) 0.97512(15)
N2 N 0.3617(4) 0.5318(5) 0.9071(2)
N3 N 0.4188(4) 0.6776(6) 0.90608(19)
N4 N 0.1953(4) 0.5338(5) 0.83142(18)
N5 N 0.1831(4) 0.3795(6) 0.80595(18)
C1 C 0.6369(4) 0.3543(6) 0.94487(19)
C2 C 0.6518(4) 0.2171(6) 0.9820(2)
H1 H 0.5958 0.1868 0.9974
C3 C 0.7493(4) 0.1284(6) 0.99535(19)
H2 H 0.7571 0.0379 1.0198
C4 C 0.8209(4) 0.2961(7) 0.9408(2)
H3 H 0.8794 0.3255 0.9271
C5 C 0.7251(4) 0.3915(7) 0.9244(2)
H4 H 0.7199 0.4806 0.8996
C6 C 0.5340(4) 0.4521(7) 0.9289(2)
C7 C 0.4280(4) 0.3951(7) 0.9204(2)
C8 C 0.3816(5) 0.2199(7) 0.9209(3)
H5 H 0.3115 0.2120 0.8932
H6 H 0.3721 0.1972 0.9567
H7 H 0.4318 0.1385 0.9132
C9 C 0.5241(4) 0.6288(7) 0.9195(2)
C10 C 0.6101(5) 0.7603(8) 0.9224(3)
H8 H 0.5788 0.8706 0.9235
H9 H 0.6366 0.7518 0.8904
H10 H 0.6705 0.7435 0.9553
C11 C 0.2414(4) 0.5397(7) 0.8908(2)
H11 H 0.2129 0.4454 0.9073
H12 H 0.2184 0.6436 0.9048
C12 C 0.1721(4) 0.6636(6) 0.7941(2)
C13 C 0.1751(6) 0.8423(7) 0.8132(2)
H13 H 0.2503 0.8813 0.8247
H14 H 0.1443 0.8489 0.8439
H15 H 0.1327 0.9119 0.7834
C14 C 0.1424(4) 0.5897(7) 0.7417(2)
C15 C 0.1500(5) 0.4122(7) 0.7521(2)
C16 C 0.1274(7) 0.2668(7) 0.7123(3)
H16 H 0.0505 0.2665 0.6917
H17 H 0.1454 0.1625 0.7324
H18 H 0.1717 0.2782 0.6872
C17 C 0.1142(4) 0.6735(6) 0.68801(19)
C18 C 0.0467(4) 0.6004(6) 0.6401(2)
H19 H 0.0166 0.4937 0.6417
C19 C 0.1603(5) 0.8255(7) 0.6804(2)
H20 H 0.2115 0.8761 0.7103
C20 C 0.0237(5) 0.6842(7) 0.5899(2)
H21 H -0.0202 0.6299 0.5585
N6 N 0.0612(4) 0.8389(5) 0.58412(16)
C21 C 0.1324(5) 0.9062(8) 0.6289(2)
H22 H 0.1644 1.0104 0.6258
Cd1A Cd 0.0000 1.0000 0.5000
Cd1A_2 Cd 0.0000 -1.0000 0.5000
Cl1B Cl 0.90752(10) -0.22202(17) 1.04970(6)
N1A N 0.1659(3) -0.8351(5) 0.52488(15)
N1B N 1.1659(3) -0.1649(5) 1.02488(15)
N2A N 0.6383(4) -0.4682(5) 0.5929(2)
N3A N 0.5812(4) -0.3224(6) 0.59392(19)
N4A N 0.8047(4) -0.4662(5) 0.66858(18)
N5A N 0.8169(4) -0.6205(6) 0.69405(18)
C1A C 0.3631(4) -0.6457(6) 0.55513(19)
C2A C 0.3482(4) -0.7829(6) 0.5180(2)
H1A H 0.4042 -0.8132 0.5026
C3A C 0.2507(4) -0.8716(6) 0.50465(19)
H2A H 0.2429 -0.9621 0.4802
C4A C 0.1791(4) -0.7039(7) 0.5592(2)
H3A H 0.1206 -0.6745 0.5729
C5A C 0.2749(4) -0.6085(7) 0.5756(2)
H4A H 0.2801 -0.5194 0.6004
C6A C 0.4660(4) -0.5479(7) 0.5711(2)
C7A C 0.5720(4) -0.6049(7) 0.5796(2)
C8A C 0.6184(5) -0.7801(7) 0.5791(3)
H5A H 0.6885 -0.7880 0.6068
H6A H 0.6279 -0.8028 0.5433
H7A H 0.5682 -0.8615 0.5868
C9A C 0.4759(4) -0.3712(7) 0.5805(2)
C10A C 0.3899(5) -0.2397(8) 0.5776(3)
H8A H 0.4212 -0.1294 0.5765
H9A H 0.3634 -0.2482 0.6096
H10A H 0.3295 -0.2565 0.5447
C11A C 0.7586(4) -0.4603(7) 0.6092(2)
H11A H 0.7871 -0.5546 0.5927
H12A H 0.7816 -0.3564 0.5952
C12A C 0.8279(4) -0.3364(6) 0.7059(2)
C13A C 0.8249(6) -0.1577(7) 0.6868(2)
H13A H 0.7497 -0.1187 0.6753
H14A H 0.8557 -0.1511 0.6561
H15A H 0.8673 -0.0881 0.7166
C14A C 0.8576(4) -0.4103(7) 0.7583(2)
C15A C 0.8500(5) -0.5878(7) 0.7479(2)
C16A C 0.8726(7) -0.7332(7) 0.7877(3)
H16A H 0.9495 -0.7335 0.8083
H17A H 0.8546 -0.8375 0.7676
H18A H 0.8283 -0.7218 0.8128
C17A C 0.8858(4) -0.3265(6) 0.81199(19)
C18A C 0.9533(4) -0.3996(6) 0.8599(2)
H19A H 0.9834 -0.5063 0.8583
C19A C 0.8397(5) -0.1745(7) 0.8196(2)
H20A H 0.7885 -0.1239 0.7897
C20A C 0.9763(5) -0.3158(7) 0.9101(2)
H21A H 1.0202 -0.3701 0.9415
N6A N 0.9388(4) -0.1611(5) 0.91588(16)
N6C N 1.0612(4) 0.1611(5) 1.08412(16)
C21A C 0.8676(5) -0.0938(8) 0.8711(2)
H22A H 0.8356 0.0104 0.8742
loop_
_geom_bond_atom_site_label_1
_geom_bond_atom_site_label_2
_geom_bond_site_symmetry_1
_geom_bond_site_symmetry_2
Cd1 Cl1 1_555 1_555
N1 Cd1 1_555 1_555
N2 N3 1_555 1_555
N3 C9 1_555 1_555
N4 N5 1_555 1_555
N5 C15 1_555 1_555
C1 C2 1_555 1_555
C2 H1 1_555 1_555
C3 N1 1_555 1_555
H2 C3 1_555 1_555
C4 N1 1_555 1_555
H3 C4 1_555 1_555
C5 C1 1_555 1_555
H4 C5 1_555 1_555
C6 C1 1_555 1_555
C7 N2 1_555 1_555
C8 C7 1_555 1_555
H5 C8 1_555 1_555
H6 C8 1_555 1_555
H7 C8 1_555 1_555
C9 C6 1_555 1_555
C10 C9 1_555 1_555
H8 C10 1_555 1_555
H9 C10 1_555 1_555
H10 C10 1_555 1_555
C11 N2 1_555 1_555
H11 C11 1_555 1_555
H12 C11 1_555 1_555
C12 N4 1_555 1_555
C13 C12 1_555 1_555
H13 C13 1_555 1_555
H14 C13 1_555 1_555
H15 C13 1_555 1_555
C14 C12 1_555 1_555
C15 C14 1_555 1_555
C16 C15 1_555 1_555
H16 C16 1_555 1_555
H17 C16 1_555 1_555
H18 C16 1_555 1_555
C17 C14 1_555 1_555
C18 C17 1_555 1_555
H19 C18 1_555 1_555
C19 C17 1_555 1_555
H20 C19 1_555 1_555
C20 C18 1_555 1_555
H21 C20 1_555 1_555
N6 C20 1_555 1_555
C21 C19 1_555 1_555
H22 C21 1_555 1_555
Cd1A N6 1_555 1_555
Cd1A_2 N1A 1_555 1_555
Cl1B Cd1 1_555 1_555
N1A C3A 1_555 1_555
N1B Cd1 1_555 1_555
N2A N3A 1_555 1_555
N3A C9A 1_555 1_555
N4A N5A 1_555 1_555
N5A C15A 1_555 1_555
C1A C2A 1_555 1_555
C2A H1A 1_555 1_555
C3A C2A 1_555 1_555
H2A C3A 1_555 1_555
C4A N1A 1_555 1_555
H3A C4A 1_555 1_555
C5A C1A 1_555 1_555
H4A C5A 1_555 1_555
C6A C1A 1_555 1_555
C7A N2A 1_555 1_555
C8A C7A 1_555 1_555
H5A C8A 1_555 1_555
H6A C8A 1_555 1_555
H7A C8A 1_555 1_555
C9A C6A 1_555 1_555
C10A C9A 1_555 1_555
H8A C10A 1_555 1_555
H9A C10A 1_555 1_555
H10A C10A 1_555 1_555
C11A N2A 1_555 1_555
H11A C11A 1_555 1_555
H12A C11A 1_555 1_555
C12A N4A 1_555 1_555
C13A C12A 1_555 1_555
H13A C13A 1_555 1_555
H14A C13A 1_555 1_555
H15A C13A 1_555 1_555
C14A C12A 1_555 1_555
C15A C14A 1_555 1_555
C16A C15A 1_555 1_555
H16A C16A 1_555 1_555
H17A C16A 1_555 1_555
H18A C16A 1_555 1_555
C17A C14A 1_555 1_555
C18A C17A 1_555 1_555
H19A C18A 1_555 1_555
C19A C17A 1_555 1_555
H20A C19A 1_555 1_555
C20A C18A 1_555 1_555
H21A C20A 1_555 1_555
N6A Cd1 1_555 1_555
N6C Cd1 1_555 1_555
C21A C19A 1_555 1_555
H22A C21A 1_555 1_555
N4 C11 1_555 1_555
C2 C3 1_555 1_555
C4 C5 1_555 1_555
C6 C7 1_555 1_555
N6 C21 1_555 1_555
N4A C11A 1_555 1_555
C4A C5A 1_555 1_555
C6A C7A 1_555 1_555
C20A N6A 1_555 1_555
N6A C21A 1_555 1_555

#END
