
#######################################################################
#
#                 Cambridge Crystallographic Data Centre
#                                CCDC 
#
#######################################################################
#
# If this CIF has been generated from an entry in the Cambridge 
# Structural Database, then it will include bibliographic, chemical, 
# crystal, experimental, refinement or atomic coordinate data resulting 
# from the CCDC's data processing and validation procedures.
#
#######################################################################

data_TOLGOS
_symmetry_cell_setting           monoclinic
_symmetry_space_group_name_H-M   'C 2/c'
_symmetry_Int_Tables_number      15
_space_group_name_Hall           '-C 2yn'
loop_
_symmetry_equiv_pos_site_id
_symmetry_equiv_pos_as_xyz
1 x,y,z
2 -x,y,1/2-z
3 1/2+x,1/2+y,z
4 1/2-x,1/2+y,1/2-z
5 -x,-y,-z
6 x,-y,1/2+z
7 1/2-x,1/2-y,-z
8 1/2+x,1/2-y,1/2+z
_cell_length_a                   15.7060(17)
_cell_length_b                   11.2496(12)
_cell_length_c                   25.251(3)
_cell_angle_alpha                90
_cell_angle_beta                 103.9850(10)
_cell_angle_gamma                90
_cell_volume                     4329.26
loop_
_atom_site_label
_atom_site_type_symbol
_atom_site_fract_x
_atom_site_fract_y
_atom_site_fract_z
H16 H 0.130(3) 0.282(4) 0.2485(18)
H17 H 0.094(3) 0.204(5) 0.278(2)
H18 H 0.065(3) 0.197(4) 0.2176(18)
S1 S 0.01036(13) 0.33744(14) 0.26618(6)
O5 O -0.0104(4) 0.4259(4) 0.2206(2)
C23 C 0.0850(7) 0.2378(9) 0.2468(6)
H16A H -0.130(3) 0.282(4) 0.2515(18)
H17A H -0.094(3) 0.204(5) 0.222(2)
H18A H -0.065(3) 0.197(4) 0.2824(18)
S1A S -0.01036(13) 0.33744(14) 0.23382(6)
O5A O 0.0104(4) 0.4259(4) 0.2794(2)
C23A C -0.0850(7) 0.2378(9) 0.2532(6)
H1 H 0.156(3) 0.615(4) 0.1744(15)
H2 H 0.266(2) 0.591(3) 0.1732(12)
H3 H 0.251(3) 0.529(4) 0.4977(17)
H4 H 0.104(3) 0.447(4) 0.5142(17)
H5 H 0.290(3) 0.421(4) 0.1161(18)
H6 H 0.198(2) 0.601(3) 0.3562(15)
H7 H 0.160(2) 0.653(3) 0.2660(15)
H8 H 0.3086(19) 0.382(3) 0.2312(12)
H9 H 0.171(3) 0.285(3) 0.3924(18)
H10 H 0.197(3) 0.264(3) 0.0593(18)
H11 H 0.348(2) 0.337(3) 0.3256(13)
H12 H 0.0515(17) 0.435(3) 0.1435(11)
H13 H 0.0009(19) -0.369(3) 0.2060(12)
H14 H -0.0195(19) -0.359(3) 0.1143(13)
H15 H -0.0281(16) -0.018(2) 0.2076(10)
N1 N 0.11392(14) 0.3342(2) 0.45032(9)
C1 C 0.1437(3) 0.4211(4) 0.48857(16)
C2 C 0.17050(17) 0.3351(3) 0.42017(12)
C3 C 0.2165(3) 0.4719(4) 0.47902(17)
N2 N 0.23293(14) 0.4151(2) 0.43546(9)
Zn1 Zn -0.009263(16) 0.22932(2) 0.051282(10)
O1 O -0.00475(11) 0.06401(15) 0.07514(8)
O2 O 0.01253(12) -0.23501(16) 0.02636(7)
O3 O -0.11538(12) -0.14231(18) 0.01587(7)
O4 O -0.0871(2) 0.1138(2) 0.13079(10)
N3 N 0.09782(13) 0.32103(19) 0.09260(8)
N4 N 0.18224(14) 0.4559(2) 0.14197(9)
C4 C -0.04824(14) -0.1845(2) 0.04386(8)
C5 C -0.04460(16) 0.0417(2) 0.11159(9)
C6 C -0.03302(13) -0.1855(2) 0.10512(8)
C7 C -0.03533(13) -0.08208(19) 0.13512(8)
C8 C -0.02448(15) -0.0897(2) 0.19127(9)
C9 C -0.00831(13) -0.19623(19) 0.21979(8)
C10 C -0.00836(16) -0.2995(2) 0.18894(9)
C11 C -0.02073(16) -0.2931(2) 0.13297(9)
C12 C 0.18052(18) 0.3164(3) 0.08250(12)
C13 C 0.10226(16) 0.4062(2) 0.12828(11)
C14 C 0.23189(19) 0.3975(3) 0.11250(13)
C15 C 0.2107(2) 0.5556(3) 0.17962(12)
C16 C 0.23369(16) 0.5202(2) 0.23916(11)
C17 C 0.2020(2) 0.5865(3) 0.27671(13)
C18 C 0.2246(2) 0.5600(3) 0.33120(13)
C19 C 0.27981(15) 0.4652(2) 0.35089(10)
C20 C 0.31077(17) 0.3993(3) 0.31366(11)
C21 C 0.28872(17) 0.4264(3) 0.25873(12)
C22 C 0.30900(16) 0.4366(3) 0.41162(11)
H13A H -0.0009(19) -0.369(3) 0.2940(12)
H14A H 0.0195(19) -0.359(3) 0.3857(13)
H15A H 0.0281(16) -0.018(2) 0.2924(10)
O1A O 0.00475(11) 0.06401(15) 0.42486(8)
O2A O -0.01253(12) -0.23501(16) 0.47364(7)
O3A O 0.11538(12) -0.14231(18) 0.48413(7)
O4A O 0.0871(2) 0.1138(2) 0.36921(10)
C4A C 0.04824(14) -0.1845(2) 0.45614(8)
C5A C 0.04460(16) 0.0417(2) 0.38841(9)
C6A C 0.03302(13) -0.1855(2) 0.39488(8)
C7A C 0.03533(13) -0.08208(19) 0.36488(8)
C8A C 0.02448(15) -0.0897(2) 0.30873(9)
C9A C 0.00831(13) -0.19623(19) 0.28021(8)
C10A C 0.00836(16) -0.2995(2) 0.31106(9)
C11A C 0.02073(16) -0.2931(2) 0.36703(9)
H1A H -0.156(3) 0.615(4) 0.3256(15)
H2A H -0.266(2) 0.591(3) 0.3268(12)
H3A H -0.251(3) 0.529(4) 0.0023(17)
H4A H -0.104(3) 0.447(4) -0.0142(17)
H5A H -0.290(3) 0.421(4) 0.3839(18)
H6A H -0.198(2) 0.601(3) 0.1438(15)
H7A H -0.160(2) 0.653(3) 0.2340(15)
H8A H -0.3086(19) 0.382(3) 0.2688(12)
H9A H -0.171(3) 0.285(3) 0.1076(18)
H10A H -0.197(3) 0.264(3) 0.4407(18)
H11A H -0.348(2) 0.337(3) 0.1744(13)
H12A H -0.0515(17) 0.435(3) 0.3565(11)
N1A N -0.11392(14) 0.3342(2) 0.04968(9)
C1A C -0.1437(3) 0.4211(4) 0.01143(16)
C2A C -0.17050(17) 0.3351(3) 0.07983(12)
C3A C -0.2165(3) 0.4719(4) 0.02098(17)
N2A N -0.23293(14) 0.4151(2) 0.06454(9)
Zn1A Zn 0.009263(16) 0.22932(2) 0.448718(10)
N3A N -0.09782(13) 0.32103(19) 0.40740(8)
N4A N -0.18224(14) 0.4559(2) 0.35803(9)
C12A C -0.18052(18) 0.3164(3) 0.41750(12)
C13A C -0.10226(16) 0.4062(2) 0.37172(11)
C14A C -0.23189(19) 0.3975(3) 0.38750(13)
C15A C -0.2107(2) 0.5556(3) 0.32038(12)
C16A C -0.23369(16) 0.5202(2) 0.26084(11)
C17A C -0.2020(2) 0.5865(3) 0.22329(13)
C18A C -0.2246(2) 0.5600(3) 0.16880(13)
C19A C -0.27981(15) 0.4652(2) 0.14911(10)
C20A C -0.31077(17) 0.3993(3) 0.18634(11)
C21A C -0.28872(17) 0.4264(3) 0.24127(12)
C22A C -0.30900(16) 0.4366(3) 0.08838(11)
Zn1D Zn 0.009263(16) -0.22932(2) -0.051282(10)
Zn1E Zn -0.009263(16) -0.22932(2) 0.551282(10)
O2D O -0.01253(12) 0.23501(16) -0.02636(7)
O2E O 0.01253(12) 0.23501(16) 0.52636(7)
C24? C 0.0802(15) 0.235(2) 0.2461(12)
loop_
_geom_bond_atom_site_label_1
_geom_bond_atom_site_label_2
_geom_bond_site_symmetry_1
_geom_bond_site_symmetry_2
H1 C15 1_555 1_555
H2 C15 1_555 1_555
H3 C3 1_555 1_555
H4 C1 1_555 1_555
H5 C14 1_555 1_555
H6 C18 1_555 1_555
H7 C17 1_555 1_555
H8 C21 1_555 1_555
H9 C2 1_555 1_555
H10 C12 1_555 1_555
H11 C20 1_555 1_555
H12 C13 1_555 1_555
H13 C10 1_555 1_555
H14 C11 1_555 1_555
H15 C8 1_555 1_555
N1 C1 1_555 1_555
C1 C3 1_555 1_555
C2 N1 1_555 1_555
C3 N2 1_555 1_555
N2 C2 1_555 1_555
Zn1 O1 1_555 1_555
O1 C5 1_555 1_555
O2 C4 1_555 1_555
O3 C4 1_555 1_555
O4 C5 1_555 1_555
N3 Zn1 1_555 1_555
N4 C13 1_555 1_555
C4 C6 1_555 1_555
C5 C7 1_555 1_555
C6 C7 1_555 1_555
C7 C8 1_555 1_555
C8 C9 1_555 1_555
C9 C10 1_555 1_555
C10 C11 1_555 1_555
C11 C6 1_555 1_555
C12 N3 1_555 1_555
C13 N3 1_555 1_555
C14 N4 1_555 1_555
C15 N4 1_555 1_555
C16 C15 1_555 1_555
C17 C16 1_555 1_555
C18 C17 1_555 1_555
C19 C18 1_555 1_555
C20 C19 1_555 1_555
C21 C16 1_555 1_555
C22 N2 1_555 1_555
H16 C23 1_555 1_555
H17 C23 1_555 1_555
H18 C23 1_555 1_555
S1 O5 1_555 1_555
O5 S1A 1_555 1_555
C23 S1 1_555 1_555
H13A C10A 1_555 1_555
H14A C11A 1_555 1_555
H15A C8A 1_555 1_555
O1A C5A 1_555 1_555
O2A C4A 1_555 1_555
O3A C4A 1_555 1_555
O4A C5A 1_555 1_555
C4A C6A 1_555 1_555
C5A C7A 1_555 1_555
C6A C7A 1_555 1_555
C7A C8A 1_555 1_555
C8A C9A 1_555 1_555
C9A C9 1_555 1_555
C10A C9A 1_555 1_555
C11A C6A 1_555 1_555
H1A C15A 1_555 1_555
H2A C15A 1_555 1_555
H3A C3A 1_555 1_555
H4A C1A 1_555 1_555
H5A C14A 1_555 1_555
H6A C18A 1_555 1_555
H7A C17A 1_555 1_555
H8A C21A 1_555 1_555
H9A C2A 1_555 1_555
H10A C12A 1_555 1_555
H11A C20A 1_555 1_555
H12A C13A 1_555 1_555
N1A Zn1 1_555 1_555
C1A N1A 1_555 1_555
C2A N1A 1_555 1_555
C3A C1A 1_555 1_555
N2A C2A 1_555 1_555
Zn1A N1 1_555 1_555
N3A Zn1A 1_555 1_555
N4A C13A 1_555 1_555
C12A N3A 1_555 1_555
C13A N3A 1_555 1_555
C14A N4A 1_555 1_555
C15A N4A 1_555 1_555
C16A C15A 1_555 1_555
C17A C16A 1_555 1_555
C18A C17A 1_555 1_555
C19A C18A 1_555 1_555
C20A C19A 1_555 1_555
C21A C16A 1_555 1_555
C22A N2A 1_555 1_555
Zn1D O2 1_555 1_555
Zn1E O2A 1_555 1_555
O2D Zn1 1_555 1_555
O2E Zn1A 1_555 1_555
H16A C23A 1_555 1_555
H17A C23A 1_555 1_555
H18A C23A 1_555 1_555
S1A S1 1_555 1_555
O5A S1 1_555 1_555
C23A S1 1_555 1_555
C12 C14 1_555 1_555
C19 C22 1_555 1_555
C20 C21 1_555 1_555
O5 O5A 1_555 1_555
C23 S1A 1_555 1_555
O1A Zn1A 1_555 1_555
C10A C11A 1_555 1_555
C3A N2A 1_555 1_555
C12A C14A 1_555 1_555
C19A C22A 1_555 1_555
C20A C21A 1_555 1_555
S1A O5A 1_555 1_555
S1A C23A 1_555 1_555

#END
