
#######################################################################
#
#                 Cambridge Crystallographic Data Centre
#                                CCDC 
#
#######################################################################
#
# If this CIF has been generated from an entry in the Cambridge 
# Structural Database, then it will include bibliographic, chemical, 
# crystal, experimental, refinement or atomic coordinate data resulting 
# from the CCDC's data processing and validation procedures.
#
#######################################################################

data_TOLLEM
_symmetry_cell_setting           orthorhombic
_symmetry_space_group_name_H-M   'P n n a'
_symmetry_Int_Tables_number      52
_space_group_name_Hall           '-P 2a 2bc'
loop_
_symmetry_equiv_pos_site_id
_symmetry_equiv_pos_as_xyz
1 x,y,z
2 1/2-x,-y,z
3 x,1/2-y,1/2-z
4 1/2-x,1/2+y,1/2-z
5 -x,-y,-z
6 1/2+x,y,-z
7 -x,1/2+y,1/2+z
8 1/2+x,1/2-y,1/2+z
_cell_length_a                   9.3820(19)
_cell_length_b                   27.366(6)
_cell_length_c                   10.106(2)
_cell_angle_alpha                90
_cell_angle_beta                 90
_cell_angle_gamma                90
_cell_volume                     2594.69
loop_
_atom_site_label
_atom_site_type_symbol
_atom_site_fract_x
_atom_site_fract_y
_atom_site_fract_z
Co1 Co 0.2500 0.5000 0.16100(3)
O1 O 0.35978(16) 0.43749(5) -0.12758(18)
F1 F -0.25785(15) 0.24613(7) -0.3946(2)
N1 N 0.18892(19) 0.45652(6) 0.33122(16)
C1 C 0.0628(3) 0.41753(12) 0.5555(3)
H1 H 0.012(3) 0.4040(12) 0.631(3)
H2 H 0.000(4) 0.3647(13) 0.430(3)
H3 H -0.023(4) 0.4884(12) 0.139(3)
H4 H 0.007(3) 0.5364(11) 0.106(3)
H5 H 0.154(4) 0.4757(12) 0.637(3)
H6 H 0.109(3) 0.4009(9) 0.249(3)
H7 H 0.311(3) 0.3605(9) -0.260(2)
H8 H -0.091(3) 0.3091(9) -0.033(2)
H9 H 0.195(3) 0.2917(10) -0.329(3)
H10 H 0.033(3) 0.3760(9) 0.029(3)
O2 O 0.20355(16) 0.44269(5) 0.03777(14)
F2 F -0.2068(2) 0.31566(6) -0.3108(2)
C2 C 0.0492(3) 0.39481(11) 0.4355(3)
O3 O 0.02716(16) 0.51859(6) 0.15065(14)
F3 F -0.0756(2) 0.28543(5) -0.46345(17)
C3 C -0.1490(3) 0.27413(8) -0.3551(3)
C4 C 0.25753(18) 0.42253(6) -0.0623(2)
C5 C 0.1441(3) 0.45897(10) 0.5640(3)
C6 C 0.1131(3) 0.41542(9) 0.3252(3)
C7 C 0.2324(2) 0.34880(7) -0.2136(2)
C8 C 0.2064(2) 0.47761(8) 0.4506(2)
C9 C -0.0079(2) 0.31791(7) -0.0806(2)
C10 C 0.1597(2) 0.30756(7) -0.2556(2)
C11 C 0.0661(2) 0.35885(7) -0.0381(2)
C12 C 0.18525(19) 0.37532(6) -0.10526(19)
C13 C -0.0526(3) 0.2500 -0.2500
C14 C 0.03731(19) 0.29183(6) -0.19054(19)
Co1B Co 0.2500 0.0000 -0.66100(3)
O1B O 0.35978(16) 0.06251(5) -0.37242(18)
F1B F -0.25785(15) 0.25387(7) -0.1054(2)
N1A N 0.31108(19) 0.54348(6) 0.33122(16)
C1A C 0.4372(3) 0.58247(12) 0.5555(3)
H1A H 0.488(3) 0.5960(12) 0.631(3)
H2A H 0.500(4) 0.6353(13) 0.430(3)
H3A H 0.523(4) 0.5116(12) 0.139(3)
H4A H 0.493(3) 0.4636(11) 0.106(3)
H5A H 0.346(4) 0.5243(12) 0.637(3)
H6A H 0.391(3) 0.5991(9) 0.249(3)
H7B H 0.311(3) 0.1395(9) -0.240(2)
H8B H -0.091(3) 0.1909(9) -0.467(2)
H9B H 0.195(3) 0.2083(10) -0.171(3)
H10B H 0.033(3) 0.1240(9) -0.529(3)
O2B O 0.20355(16) 0.05731(5) -0.53777(14)
O2A O 0.29645(16) 0.55731(5) 0.03777(14)
F2B F -0.2068(2) 0.18434(6) -0.1892(2)
C2A C 0.4508(3) 0.60519(11) 0.4355(3)
O3A O 0.47284(16) 0.48141(6) 0.15065(14)
F3B F -0.0756(2) 0.21457(5) -0.03655(17)
C3B C -0.1490(3) 0.22587(8) -0.1449(3)
C4B C 0.25753(18) 0.07747(6) -0.4377(2)
C5A C 0.3559(3) 0.54103(10) 0.5640(3)
C6A C 0.3869(3) 0.58458(9) 0.3252(3)
C7B C 0.2324(2) 0.15120(7) -0.2864(2)
C8A C 0.2936(2) 0.52239(8) 0.4506(2)
C9B C -0.0079(2) 0.18209(7) -0.4194(2)
C10B C 0.1597(2) 0.19244(7) -0.2444(2)
C11B C 0.0661(2) 0.14115(7) -0.4619(2)
C12B C 0.18525(19) 0.12468(6) -0.39474(19)
C14B C 0.03731(19) 0.20817(6) -0.30946(19)
loop_
_geom_bond_atom_site_label_1
_geom_bond_atom_site_label_2
_geom_bond_site_symmetry_1
_geom_bond_site_symmetry_2
Co1 N1 1_555 1_555
O1 C4 1_555 1_555
F1 C3 1_555 1_555
N1 C6 1_555 1_555
C1 H1 1_555 1_555
H2 C2 1_555 1_555
H3 O3 1_555 1_555
H4 O3 1_555 1_555
H5 C5 1_555 1_555
H6 C6 1_555 1_555
H7 C7 1_555 1_555
H8 C9 1_555 1_555
H9 C10 1_555 1_555
H10 C11 1_555 1_555
O2 Co1 1_555 1_555
F2 C3 1_555 1_555
C2 C1 1_555 1_555
O3 Co1 1_555 1_555
F3 C3 1_555 1_555
C3 C13 1_555 1_555
C4 O2 1_555 1_555
C5 C1 1_555 1_555
C6 C2 1_555 1_555
C7 C10 1_555 1_555
C8 N1 1_555 1_555
C9 C11 1_555 1_555
C10 C14 1_555 1_555
C11 C12 1_555 1_555
C12 C4 1_555 1_555
C13 C14 1_555 1_555
C14 C9 1_555 1_555
Co1B O2B 1_555 1_555
O1B C4B 1_555 1_555
F1B C3B 1_555 1_555
N1A Co1 1_555 1_555
C1A H1A 1_555 1_555
H2A C2A 1_555 1_555
H3A O3A 1_555 1_555
H4A O3A 1_555 1_555
H5A C5A 1_555 1_555
H6A C6A 1_555 1_555
H7B C7B 1_555 1_555
H8B C9B 1_555 1_555
H9B C10B 1_555 1_555
H10B C11B 1_555 1_555
O2B C4B 1_555 1_555
O2A Co1 1_555 1_555
F2B C3B 1_555 1_555
C2A C1A 1_555 1_555
O3A Co1 1_555 1_555
F3B C3B 1_555 1_555
C3B C13 1_555 1_555
C4B C12B 1_555 1_555
C5A C1A 1_555 1_555
C6A N1A 1_555 1_555
C7B C10B 1_555 1_555
C8A C8 1_555 1_555
C9B C11B 1_555 1_555
C10B C14B 1_555 1_555
C11B C12B 1_555 1_555
C12B C7B 1_555 1_555
C14B C13 1_555 1_555
C5 C8 1_555 1_555
C7 C12 1_555 1_555
N1A C8A 1_555 1_555
C2A C6A 1_555 1_555
C5A C8A 1_555 1_555
C9B C14B 1_555 1_555

#END
