
#######################################################################
#
#                 Cambridge Crystallographic Data Centre
#                                CCDC 
#
#######################################################################
#
# If this CIF has been generated from an entry in the Cambridge 
# Structural Database, then it will include bibliographic, chemical, 
# crystal, experimental, refinement or atomic coordinate data resulting 
# from the CCDC's data processing and validation procedures.
#
#######################################################################

data_TOLLIQ
_symmetry_cell_setting           monoclinic
_symmetry_space_group_name_H-M   'P 21/n'
_symmetry_Int_Tables_number      14
_space_group_name_Hall           '-P 2yn'
loop_
_symmetry_equiv_pos_site_id
_symmetry_equiv_pos_as_xyz
1 x,y,z
2 1/2-x,1/2+y,1/2-z
3 -x,-y,-z
4 1/2+x,1/2-y,1/2+z
_cell_length_a                   7.7626(16)
_cell_length_b                   29.446(6)
_cell_length_c                   11.281(2)
_cell_angle_alpha                90
_cell_angle_beta                 93.98(3)
_cell_angle_gamma                90
_cell_volume                     2572.36
loop_
_atom_site_label
_atom_site_type_symbol
_atom_site_fract_x
_atom_site_fract_y
_atom_site_fract_z
Co1 Co 0.73697(4) 0.529796(9) -0.14679(3)
F1 F 1.68813(19) 0.74180(5) -0.37874(18)
F2 F 1.4684(2) 0.71189(5) -0.47566(15)
F3 F 1.5984(2) 0.67614(5) -0.33049(18)
F4 F 1.4284(3) 0.76711(6) -0.08479(15)
F5 F 1.6415(2) 0.72493(5) -0.12581(18)
F6 F 1.6216(2) 0.79231(5) -0.19423(16)
O1 O 0.8405(2) 0.57757(5) -0.27708(15)
O2 O 0.9609(2) 0.91942(6) -0.41603(16)
O3 O 0.9909(2) 0.56059(5) -0.11105(15)
O4 O 1.1260(2) 0.91726(5) -0.56879(15)
O5 O 0.7217(2) 0.48813(5) 0.00190(15)
N1 N 0.5248(2) 0.51125(6) -0.26161(16)
N2 N 0.8318(2) 0.47066(6) -0.23304(16)
C1 C 0.3758(3) 0.53284(9) -0.2778(2)
C2 C 0.7136(3) 0.45207(7) -0.31284(19)
C3 C 0.5494(3) 0.47399(7) -0.32930(19)
C4 C 0.9630(3) 0.58549(7) -0.2021(2)
C5 C 1.0766(3) 0.90264(7) -0.4723(2)
C6 C 1.1623(3) 0.85977(6) -0.42364(19)
C7 C 1.5455(3) 0.71727(8) -0.3674(3)
C8 C 1.3149(3) 0.84541(7) -0.4665(2)
C9 C 1.3981(3) 0.80683(7) -0.4227(2)
C10 C 1.1750(3) 0.79540(7) -0.2915(2)
C11 C 1.3281(3) 0.78094(6) -0.33620(19)
C12 C 1.3163(3) 0.67353(7) -0.1515(2)
C13 C 1.4205(3) 0.73865(6) -0.2817(2)
C14 C 1.2940(3) 0.70043(6) -0.25219(19)
C15 C 1.0513(3) 0.65336(7) -0.3182(2)
C16 C 1.2089(3) 0.63682(7) -0.1351(2)
C17 C 1.0771(3) 0.62593(6) -0.21877(19)
C18 C 0.2452(3) 0.51915(11) -0.3610(3)
C19 C 1.0941(3) 0.83467(7) -0.3346(2)
C20 C 1.1581(3) 0.69026(7) -0.3344(2)
C21 C 0.4610(4) 0.41759(10) -0.4797(3)
C22 C 1.0273(4) 0.41169(9) -0.2790(3)
C23 C 0.9106(4) 0.39364(9) -0.3605(3)
C24 C 0.6143(5) 0.39674(9) -0.4630(3)
C25 C 0.9835(3) 0.45014(9) -0.2160(2)
C26 C 1.5288(4) 0.75555(8) -0.1707(3)
C27 C 0.2689(3) 0.48163(10) -0.4285(2)
C28 C 0.7465(3) 0.41324(7) -0.3797(2)
C29 C 0.4238(3) 0.45737(8) -0.4131(2)
H1 H 1.121(3) 0.7781(8) -0.235(2)
H2 H 1.140(3) 0.7084(8) -0.404(2)
H3 H 1.363(3) 0.8622(9) -0.524(2)
H4 H 1.501(3) 0.7991(8) -0.453(2)
H5 H 1.406(3) 0.6804(9) -0.090(2)
H6 H 0.987(3) 0.8445(9) -0.308(2)
H7 H 0.959(3) 0.6477(9) -0.378(2)
H8 H 0.184(3) 0.4708(9) -0.485(2)
H9 H 0.364(3) 0.5592(9) -0.231(2)
H10 H 1.226(3) 0.6187(9) -0.065(2)
H11 H 0.652(4) 0.4671(11) -0.021(3)
H12 H 1.139(4) 0.4001(9) -0.264(2)
H13 H 1.060(3) 0.4641(9) -0.160(2)
H14 H 0.372(4) 0.4073(11) -0.538(3)
H15 H 0.144(4) 0.5367(10) -0.371(3)
H16 H 0.936(4) 0.3677(11) -0.404(3)
H17 H 0.642(4) 0.3708(11) -0.504(3)
H18 H 0.814(6) 0.4743(14) 0.032(4)
Co1C Co 1.23697(4) 0.970204(9) -0.64679(3)
O4C O 0.6260(2) 0.58274(5) -0.06879(15)
loop_
_geom_bond_atom_site_label_1
_geom_bond_atom_site_label_2
_geom_bond_site_symmetry_1
_geom_bond_site_symmetry_2
Co1 O1 1_555 1_555
F1 C7 1_555 1_555
F2 C7 1_555 1_555
F3 C7 1_555 1_555
F4 C26 1_555 1_555
F5 C26 1_555 1_555
F6 C26 1_555 1_555
O1 C4 1_555 1_555
O2 C5 1_555 1_555
O3 Co1 1_555 1_555
O4 C5 1_555 1_555
O5 Co1 1_555 1_555
N1 Co1 1_555 1_555
N2 Co1 1_555 1_555
C1 N1 1_555 1_555
C2 N2 1_555 1_555
C3 N1 1_555 1_555
C4 O3 1_555 1_555
C5 C6 1_555 1_555
C6 C8 1_555 1_555
C7 C13 1_555 1_555
C8 C9 1_555 1_555
C9 C11 1_555 1_555
C10 C11 1_555 1_555
C11 C13 1_555 1_555
C12 C14 1_555 1_555
C13 C14 1_555 1_555
C14 C20 1_555 1_555
C15 C17 1_555 1_555
C16 C12 1_555 1_555
C17 C4 1_555 1_555
C18 C1 1_555 1_555
C19 C6 1_555 1_555
C20 C15 1_555 1_555
C21 C24 1_555 1_555
C22 C23 1_555 1_555
C23 C28 1_555 1_555
C24 C28 1_555 1_555
C25 N2 1_555 1_555
C26 C13 1_555 1_555
C27 C18 1_555 1_555
C28 C2 1_555 1_555
C29 C3 1_555 1_555
H1 C10 1_555 1_555
H2 C20 1_555 1_555
H3 C8 1_555 1_555
H4 C9 1_555 1_555
H5 C12 1_555 1_555
H6 C19 1_555 1_555
H7 C15 1_555 1_555
H8 C27 1_555 1_555
H9 C1 1_555 1_555
H10 C16 1_555 1_555
H11 O5 1_555 1_555
H12 C22 1_555 1_555
H13 C25 1_555 1_555
H14 C21 1_555 1_555
H15 C18 1_555 1_555
H16 C23 1_555 1_555
H17 C24 1_555 1_555
H18 O5 1_555 1_555
Co1C O4 1_555 1_555
O4C Co1 1_555 1_555
C2 C3 1_555 1_555
C10 C19 1_555 1_555
C16 C17 1_555 1_555
C21 C29 1_555 1_555
C22 C25 1_555 1_555
C27 C29 1_555 1_555

#END
