
#######################################################################
#
#                 Cambridge Crystallographic Data Centre
#                                CCDC 
#
#######################################################################
#
# If this CIF has been generated from an entry in the Cambridge 
# Structural Database, then it will include bibliographic, chemical, 
# crystal, experimental, refinement or atomic coordinate data resulting 
# from the CCDC's data processing and validation procedures.
#
#######################################################################

data_TOLNAL
_symmetry_cell_setting           monoclinic
_symmetry_space_group_name_H-M   'P 21/n'
_symmetry_Int_Tables_number      14
_space_group_name_Hall           '-P 2yn'
loop_
_symmetry_equiv_pos_site_id
_symmetry_equiv_pos_as_xyz
1 x,y,z
2 1/2-x,1/2+y,1/2-z
3 -x,-y,-z
4 1/2+x,1/2-y,1/2+z
_cell_length_a                   15.1746(9)
_cell_length_b                   15.6375(10)
_cell_length_c                   15.6079(10)
_cell_angle_alpha                90
_cell_angle_beta                 117.7970(10)
_cell_angle_gamma                90
_cell_volume                     3276.26
loop_
_atom_site_label
_atom_site_type_symbol
_atom_site_fract_x
_atom_site_fract_y
_atom_site_fract_z
Ni1 Ni 0.77469(3) 0.51805(3) 0.51250(3)
Ni2 Ni 1.0000 0.5000 0.5000
O1 O 0.92880(16) 0.48613(13) 0.58566(16)
H1 H 0.9618 0.5223 0.6424
H2 H 0.9358 0.4273 0.6077
O2 O 0.7961(2) 0.60452(19) 0.6154(2)
O3 O 0.9341(2) 0.56819(19) 0.7421(2)
O4 O 0.6169(2) 0.83830(17) 0.8737(2)
O5 O 0.7512(2) 0.91969(17) 0.9156(2)
C1 C 0.8551(3) 0.6078(2) 0.7026(3)
C2 C 0.7006(3) 0.8540(2) 0.8811(3)
C3 C 0.8238(3) 0.6704(2) 0.7578(3)
C4 C 0.7491(3) 0.7262(2) 0.7029(3)
H3 H 0.7238 0.7250 0.6359
C5 C 0.7093(3) 0.7850(2) 0.7429(3)
H4 H 0.6584 0.8216 0.7028
C6 C 0.7449(3) 0.7888(2) 0.8407(3)
C7 C 0.8227(3) 0.7333(2) 0.9016(3)
C8 C 0.8608(3) 0.7357(3) 1.0033(3)
H5 H 0.8356 0.7755 1.0304
C9 C 0.9334(3) 0.6812(3) 1.0622(3)
H6 H 0.9567 0.6834 1.1288
C10 C 0.9728(3) 0.6219(3) 1.0230(3)
H7 H 1.0223 0.5845 1.0637
C11 C 0.9394(3) 0.6182(3) 0.9248(3)
H8 H 0.9673 0.5786 0.9002
C12 C 0.8637(3) 0.6729(2) 0.8606(3)
O6 O 1.05387(17) 0.37910(14) 0.54232(17)
O7 O 1.21086(19) 0.38352(16) 0.5656(2)
O8 O 1.2474(2) 0.06323(18) 0.9027(2)
O9 O 1.38350(18) 0.05782(15) 0.88224(17)
C13 C 1.1402(3) 0.3504(2) 0.5732(2)
C14 C 1.2965(3) 0.0799(2) 0.8589(2)
C15 C 1.1660(3) 0.2692(2) 0.6323(2)
C16 C 1.1435(3) 0.2649(2) 0.7072(3)
H9 H 1.1016 0.3056 0.7125
C17 C 1.1831(3) 0.1997(2) 0.7762(3)
H10 H 1.1669 0.1982 0.8268
C18 C 1.2448(3) 0.1380(2) 0.7716(2)
C19 C 1.2606(3) 0.1348(2) 0.6882(2)
C20 C 1.3143(3) 0.0679(2) 0.6725(3)
H11 H 1.3417 0.0246 0.7183
C21 C 1.3264(3) 0.0659(2) 0.5916(3)
H12 H 1.3615 0.0213 0.5821
C22 C 1.2860(3) 0.1312(3) 0.5224(3)
H13 H 1.2936 0.1286 0.4667
C23 C 1.2361(3) 0.1980(2) 0.5349(3)
H14 H 1.2116 0.2414 0.4890
C24 C 1.2212(2) 0.2015(2) 0.6186(2)
N1 N 0.6249(2) 0.54461(19) 0.4501(2)
C25 C 0.5552(3) 0.4867(3) 0.4148(3)
H15 H 0.5675 0.4282 0.4228
N2 N 0.4641(2) 0.5206(2) 0.3656(3)
C26 C 0.4768(3) 0.6062(3) 0.3710(3)
H16 H 0.4269 0.6472 0.3434
C27 C 0.5760(3) 0.6213(3) 0.4244(3)
H17 H 0.6058 0.6749 0.4408
C28 C 0.3742(3) 0.4732(3) 0.3037(4)
H18 H 0.3168 0.5017 0.3024
H19 H 0.3781 0.4161 0.3296
C29 C 0.3612(5) 0.4671(4) 0.1992(4)
H20 H 0.3001 0.4363 0.1592
H21 H 0.3543 0.5244 0.1730
C30 C 0.4439(5) 0.4242(4) 0.1929(4)
H22 H 0.4464 0.3656 0.2145
H23 H 0.5052 0.4517 0.2387
C31 C 0.4437(5) 0.4216(4) 0.0950(4)
H24 H 0.4285 0.4782 0.0663
H25 H 0.5096 0.4060 0.1049
C32 C 0.3707(4) 0.3603(4) 0.0277(4)
H26 H 0.3038 0.3813 0.0079
H27 H 0.3780 0.3059 0.0602
C33 C 0.3605(4) 0.4042(3) -0.1329(4)
H28 H 0.3291 0.4567 -0.1394
C34 C 0.3894(4) 0.3709(3) -0.1944(4)
H29 H 0.3812 0.3952 -0.2520
N3 N 0.3852(3) 0.3478(2) -0.0591(3)
C35 C 0.4293(3) 0.2819(3) -0.0740(3)
H30 H 0.4537 0.2345 -0.0338
N4 N 0.4334(3) 0.2942(2) -0.1563(3)
C36 C 0.4803(4) 0.2365(3) -0.1957(4)
H31 H 0.4811 0.1796 -0.1721
H32 H 0.5474 0.2549 -0.1760
H33 H 0.4434 0.2367 -0.2652
Ni1B Ni 1.22531(3) 0.48195(3) 0.48750(3)
O1B O 1.07120(16) 0.51387(13) 0.41434(16)
H1B H 1.0382 0.4777 0.3576
H2B H 1.0642 0.5727 0.3923
O2B O 1.2039(2) 0.39548(19) 0.3846(2)
O3B O 1.0659(2) 0.43181(19) 0.2579(2)
O4B O 1.3831(2) 0.16170(17) 0.1263(2)
O5B O 1.2488(2) 0.08031(17) 0.0844(2)
C1B C 1.1449(3) 0.3922(2) 0.2974(3)
C2B C 1.2994(3) 0.1460(2) 0.1189(3)
C3B C 1.1762(3) 0.3296(2) 0.2422(3)
C4B C 1.2509(3) 0.2738(2) 0.2971(3)
H3B H 1.2762 0.2750 0.3641
C5B C 1.2907(3) 0.2150(2) 0.2571(3)
H4B H 1.3416 0.1784 0.2972
C6B C 1.2551(3) 0.2112(2) 0.1593(3)
C7B C 1.1773(3) 0.2667(2) 0.0984(3)
C8B C 1.1392(3) 0.2643(3) -0.0033(3)
H5B H 1.1644 0.2245 -0.0304
C9B C 1.0666(3) 0.3188(3) -0.0622(3)
H6B H 1.0433 0.3166 -0.1288
C10B C 1.0272(3) 0.3781(3) -0.0230(3)
H7B H 0.9777 0.4155 -0.0637
C11B C 1.0606(3) 0.3818(3) 0.0752(3)
H8B H 1.0327 0.4214 0.0998
C12B C 1.1363(3) 0.3271(2) 0.1394(3)
O6B O 0.94613(17) 0.62090(14) 0.45768(17)
O7B O 0.78914(19) 0.61648(16) 0.4344(2)
O8B O 0.7526(2) 0.93677(18) 0.0973(2)
O9B O 0.61650(18) 0.94218(15) 0.11776(17)
C13B C 0.8598(3) 0.6496(2) 0.4268(2)
C14B C 0.7035(3) 0.9201(2) 0.1411(2)
C15B C 0.8340(3) 0.7308(2) 0.3677(2)
C16B C 0.8565(3) 0.7351(2) 0.2928(3)
H9B H 0.8984 0.6944 0.2875
C17B C 0.8169(3) 0.8003(2) 0.2238(3)
H10B H 0.8331 0.8018 0.1732
C18B C 0.7552(3) 0.8620(2) 0.2284(2)
C19B C 0.7394(3) 0.8652(2) 0.3118(2)
C20B C 0.6857(3) 0.9321(2) 0.3275(3)
H11B H 0.6583 0.9754 0.2817
C21B C 0.6736(3) 0.9341(2) 0.4084(3)
H12B H 0.6385 0.9787 0.4179
C22B C 0.7140(3) 0.8688(3) 0.4776(3)
H13B H 0.7064 0.8714 0.5333
C23B C 0.7639(3) 0.8020(2) 0.4651(3)
H14B H 0.7884 0.7586 0.5110
C24B C 0.7788(2) 0.7985(2) 0.3814(2)
N1B N 1.3751(2) 0.45539(19) 0.5499(2)
C25B C 1.4448(3) 0.5133(3) 0.5852(3)
H15B H 1.4325 0.5718 0.5772
N2B N 1.5359(2) 0.4794(2) 0.6344(3)
C26B C 1.5232(3) 0.3938(3) 0.6290(3)
H16B H 1.5731 0.3528 0.6566
C27B C 1.4240(3) 0.3787(3) 0.5756(3)
H17B H 1.3942 0.3251 0.5592
C28B C 1.6258(3) 0.5268(3) 0.6963(4)
H18B H 1.6832 0.4983 0.6976
H19B H 1.6219 0.5839 0.6704
C29B C 1.6388(5) 0.5329(4) 0.8008(4)
H20B H 1.6999 0.5637 0.8408
H21B H 1.6457 0.4756 0.8270
C30B C 1.5561(5) 0.5758(4) 0.8071(4)
H22B H 1.5536 0.6344 0.7855
H23B H 1.4948 0.5483 0.7613
C31B C 1.5563(5) 0.5784(4) 0.9050(4)
H24B H 1.5715 0.5218 0.9337
H25B H 1.4904 0.5940 0.8951
C32B C 1.6293(4) 0.6397(4) 0.9723(4)
H26B H 1.6962 0.6187 0.9921
H27B H 1.6220 0.6941 0.9398
C33B C 1.6395(4) 0.5958(3) 1.1329(4)
H28B H 1.6709 0.5433 1.1394
C34B C 1.6106(4) 0.6291(3) 1.1944(4)
H29B H 1.6188 0.6048 1.2520
N3B N 1.6148(3) 0.6522(2) 1.0591(3)
C35B C 1.5707(3) 0.7181(3) 1.0740(3)
H30B H 1.5463 0.7655 1.0338
N4B N 1.5666(3) 0.7058(2) 1.1563(3)
C36B C 1.5197(4) 0.7635(3) 1.1957(4)
H31B H 1.5189 0.8204 1.1721
H32B H 1.4526 0.7451 1.1760
H33B H 1.5566 0.7633 1.2652
Ni1A Ni 0.72531(3) 1.01805(3) -0.01250(3)
Ni1A_2 Ni 0.72531(3) 1.01805(3) 0.98750(3)
Ni1C Ni 1.27469(3) -0.01805(3) 0.01250(3)
Ni1C_2 Ni 1.27469(3) -0.01805(3) 1.01250(3)
Ni2A Ni 0.5000 1.0000 0.0000
Ni2A_2 Ni 1.5000 0.0000 1.0000
O5A O 0.7488(2) 0.41969(17) 0.5844(2)
O5C O 1.2512(2) 0.58031(17) 0.4156(2)
O8A O 1.2526(2) 0.56323(18) 0.5973(2)
O8C O 0.7474(2) 0.43677(18) 0.4027(2)
O9A O 1.11650(18) 0.55782(15) 0.61776(17)
O9C O 0.88350(18) 0.44218(15) 0.38224(17)
loop_
_geom_bond_atom_site_label_1
_geom_bond_atom_site_label_2
_geom_bond_site_symmetry_1
_geom_bond_site_symmetry_2
Ni1 O1 1_555 1_555
Ni2 O1 1_555 1_555
O1 H1 1_555 1_555
H2 O1 1_555 1_555
O2 Ni1 1_555 1_555
O3 C1 1_555 1_555
O4 C2 1_555 1_555
O5 C2 1_555 1_555
C1 O2 1_555 1_555
C2 C6 1_555 1_555
C3 C1 1_555 1_555
C4 C3 1_555 1_555
H3 C4 1_555 1_555
C5 C4 1_555 1_555
H4 C5 1_555 1_555
C6 C5 1_555 1_555
C7 C6 1_555 1_555
C8 C7 1_555 1_555
H5 C8 1_555 1_555
C9 C8 1_555 1_555
H6 C9 1_555 1_555
C10 C9 1_555 1_555
H7 C10 1_555 1_555
C11 C10 1_555 1_555
H8 C11 1_555 1_555
C12 C3 1_555 1_555
O6 Ni2 1_555 1_555
O7 C13 1_555 1_555
O8 C14 1_555 1_555
O9 C14 1_555 1_555
C13 O6 1_555 1_555
C14 C18 1_555 1_555
C15 C13 1_555 1_555
C16 C15 1_555 1_555
H9 C16 1_555 1_555
C17 C16 1_555 1_555
H10 C17 1_555 1_555
C18 C17 1_555 1_555
C19 C18 1_555 1_555
C20 C19 1_555 1_555
H11 C20 1_555 1_555
C21 C20 1_555 1_555
H12 C21 1_555 1_555
C22 C21 1_555 1_555
H13 C22 1_555 1_555
C23 C22 1_555 1_555
H14 C23 1_555 1_555
C24 C15 1_555 1_555
N1 Ni1 1_555 1_555
C25 N1 1_555 1_555
H15 C25 1_555 1_555
N2 C25 1_555 1_555
C26 N2 1_555 1_555
H16 C26 1_555 1_555
C27 N1 1_555 1_555
H17 C27 1_555 1_555
C28 N2 1_555 1_555
H18 C28 1_555 1_555
H19 C28 1_555 1_555
C29 C28 1_555 1_555
H20 C29 1_555 1_555
H21 C29 1_555 1_555
C30 C29 1_555 1_555
H22 C30 1_555 1_555
H23 C30 1_555 1_555
C31 C30 1_555 1_555
H24 C31 1_555 1_555
H25 C31 1_555 1_555
C32 C31 1_555 1_555
H26 C32 1_555 1_555
H27 C32 1_555 1_555
C33 H28 1_555 1_555
C34 C33 1_555 1_555
H29 C34 1_555 1_555
N3 C32 1_555 1_555
C35 N3 1_555 1_555
H30 C35 1_555 1_555
N4 C34 1_555 1_555
C36 N4 1_555 1_555
H31 C36 1_555 1_555
H32 C36 1_555 1_555
H33 C36 1_555 1_555
Ni1B O7 1_555 1_555
O1B Ni2 1_555 1_555
H1B O1B 1_555 1_555
H2B O1B 1_555 1_555
O2B Ni1B 1_555 1_555
O3B C1B 1_555 1_555
O4B C2B 1_555 1_555
O5B C2B 1_555 1_555
C1B O2B 1_555 1_555
C2B C6B 1_555 1_555
C3B C1B 1_555 1_555
C4B C3B 1_555 1_555
H3B C4B 1_555 1_555
C5B C4B 1_555 1_555
H4B C5B 1_555 1_555
C6B C5B 1_555 1_555
C7B C6B 1_555 1_555
C8B C7B 1_555 1_555
H5B C8B 1_555 1_555
C9B C8B 1_555 1_555
H6B C9B 1_555 1_555
C10B C9B 1_555 1_555
H7B C10B 1_555 1_555
C11B C10B 1_555 1_555
H8B C11B 1_555 1_555
C12B C3B 1_555 1_555
O6B Ni2 1_555 1_555
O7B Ni1 1_555 1_555
O8B C14B 1_555 1_555
O9B C14B 1_555 1_555
C13B O6B 1_555 1_555
C14B C18B 1_555 1_555
C15B C13B 1_555 1_555
C16B C15B 1_555 1_555
H9B C16B 1_555 1_555
C17B C16B 1_555 1_555
H10B C17B 1_555 1_555
C18B C17B 1_555 1_555
C19B C18B 1_555 1_555
C20B C19B 1_555 1_555
H11B C20B 1_555 1_555
C21B C20B 1_555 1_555
H12B C21B 1_555 1_555
C22B C21B 1_555 1_555
H13B C22B 1_555 1_555
C23B C22B 1_555 1_555
H14B C23B 1_555 1_555
C24B C15B 1_555 1_555
N1B Ni1B 1_555 1_555
C25B N1B 1_555 1_555
H15B C25B 1_555 1_555
N2B C25B 1_555 1_555
C26B N2B 1_555 1_555
H16B C26B 1_555 1_555
C27B N1B 1_555 1_555
H17B C27B 1_555 1_555
C28B N2B 1_555 1_555
H18B C28B 1_555 1_555
H19B C28B 1_555 1_555
C29B C28B 1_555 1_555
H20B C29B 1_555 1_555
H21B C29B 1_555 1_555
C30B C29B 1_555 1_555
H22B C30B 1_555 1_555
H23B C30B 1_555 1_555
C31B C30B 1_555 1_555
H24B C31B 1_555 1_555
H25B C31B 1_555 1_555
C32B C31B 1_555 1_555
H26B C32B 1_555 1_555
H27B C32B 1_555 1_555
C33B H28B 1_555 1_555
C34B C33B 1_555 1_555
H29B C34B 1_555 1_555
N3B C32B 1_555 1_555
C35B N3B 1_555 1_555
H30B C35B 1_555 1_555
N4B C34B 1_555 1_555
C36B N4B 1_555 1_555
H31B C36B 1_555 1_555
H32B C36B 1_555 1_555
H33B C36B 1_555 1_555
Ni1A O8B 1_555 1_555
Ni1A_2 O5 1_555 1_555
Ni1C O5B 1_555 1_555
Ni1C_2 O8 1_555 1_555
Ni2A O9B 1_555 1_555
Ni2A_2 O9 1_555 1_555
O5A Ni1 1_555 1_555
O5C Ni1B 1_555 1_555
O8A Ni1B 1_555 1_555
O8C Ni1 1_555 1_555
O9A Ni2 1_555 1_555
O9C Ni2 1_555 1_555
C7 C12 1_555 1_555
C11 C12 1_555 1_555
C19 C24 1_555 1_555
C23 C24 1_555 1_555
C26 C27 1_555 1_555
C33 N3 1_555 1_555
C35 N4 1_555 1_555
Ni1B O1B 1_555 1_555
C7B C12B 1_555 1_555
C11B C12B 1_555 1_555
O7B C13B 1_555 1_555
C19B C24B 1_555 1_555
C23B C24B 1_555 1_555
C26B C27B 1_555 1_555
C33B N3B 1_555 1_555
C35B N4B 1_555 1_555

#END
