
#######################################################################
#
#                 Cambridge Crystallographic Data Centre
#                                CCDC 
#
#######################################################################
#
# If this CIF has been generated from an entry in the Cambridge 
# Structural Database, then it will include bibliographic, chemical, 
# crystal, experimental, refinement or atomic coordinate data resulting 
# from the CCDC's data processing and validation procedures.
#
#######################################################################

data_TOLQAO
_symmetry_cell_setting           triclinic
_symmetry_space_group_name_H-M   'P -1'
_symmetry_Int_Tables_number      2
_space_group_name_Hall           '-P 1'
loop_
_symmetry_equiv_pos_site_id
_symmetry_equiv_pos_as_xyz
1 x,y,z
2 -x,-y,-z
_cell_length_a                   8.157(3)
_cell_length_b                   9.405(4)
_cell_length_c                   12.802(8)
_cell_angle_alpha                105.220(8)
_cell_angle_beta                 98.276(8)
_cell_angle_gamma                107.826(6)
_cell_volume                     874.87
loop_
_atom_site_label
_atom_site_type_symbol
_atom_site_fract_x
_atom_site_fract_y
_atom_site_fract_z
Co1 Co 0.28460(4) 0.45024(4) 0.46325(3)
O1 O 0.4872(2) 0.42483(19) 0.57918(13)
O2 O 0.3252(3) 0.2206(2) 0.62205(15)
O3 O 0.8639(2) 0.4644(2) 0.63080(14)
O4 O 1.0048(2) 0.3964(2) 0.75903(15)
O5 O 0.0750(3) 0.3253(2) 0.52007(17)
H1 H 0.0269 0.3848 0.5490
H2 H 0.112(5) 0.282(4) 0.559(3)
N1 N 0.3161(3) 0.6613(2) 0.59318(16)
N2 N 0.3037(3) 0.8227(2) 0.74934(17)
N3 N 0.2237(3) 1.0527(2) 1.18347(17)
N4 N 0.2348(3) 1.2297(2) 1.33945(17)
C1 C 0.3654(4) 0.8128(3) 0.5878(2)
H3 H 0.3993 0.8415 0.5277
C2 C 0.3573(4) 0.9129(3) 0.6820(2)
H4 H 0.3827 1.0209 0.6986
C3 C 0.2797(3) 0.6720(3) 0.6911(2)
H5 H 0.2423 0.5869 0.7171
C4 C 0.2788(3) 0.8777(3) 0.8586(2)
C5 C 0.2318(4) 1.0097(3) 0.8885(2)
H6 H 0.2133 1.0605 0.8372
C6 C 0.2128(4) 1.0650(3) 0.9955(2)
H7 H 0.1813 1.1536 1.0160
C7 C 0.2399(3) 0.9905(3) 1.0721(2)
C8 C 0.2855(4) 0.8579(3) 1.0420(2)
H8 H 0.3029 0.8067 1.0933
C9 C 0.3051(4) 0.8020(3) 0.9350(2)
H9 H 0.3362 0.7132 0.9144
C10 C 0.1543(4) 0.9699(3) 1.2512(2)
H10 H 0.1112 0.8609 1.2350
C11 C 0.1620(4) 1.0798(3) 1.3459(2)
H11 H 0.1236 1.0578 1.4068
C12 C 0.2699(3) 1.2075(3) 1.2409(2)
H12 H 0.3208 1.2888 1.2138
C13 C 0.4549(3) 0.3419(3) 0.6442(2)
C14 C 0.5714(3) 0.4094(3) 0.76271(19)
C15 C 0.7569(3) 0.4577(3) 0.7968(2)
C16 C 0.8833(3) 0.4373(3) 0.7230(2)
C17 C 0.8351(3) 0.5239(3) 0.9108(2)
H13 H 0.9579 0.5565 0.9347
C18 C 0.7389(3) 0.5431(3) 0.9899(2)
H14 H 0.7974 0.5904 1.0651
C19 C 0.5534(3) 0.4920(3) 0.9579(2)
C20 C 0.4750(3) 0.4247(3) 0.8439(2)
H15 H 0.3518 0.3880 0.8207
O1A O 0.5128(2) 0.57517(19) 1.42082(13)
O2A O 0.6748(3) 0.7794(2) 1.37795(15)
O3A O 0.1361(2) 0.5356(2) 1.36920(14)
O4A O -0.0048(2) 0.6036(2) 1.24097(15)
C13A C 0.5451(3) 0.6581(3) 1.3558(2)
C14A C 0.4286(3) 0.5906(3) 1.23729(19)
C15A C 0.2431(3) 0.5423(3) 1.2032(2)
C16A C 0.1167(3) 0.5627(3) 1.2770(2)
C17A C 0.1649(3) 0.4761(3) 1.0892(2)
H13A H 0.0421 0.4435 1.0653
C18A C 0.2611(3) 0.4569(3) 1.0101(2)
H14A H 0.2026 0.4096 0.9349
C19A C 0.4466(3) 0.5080(3) 1.0421(2)
C20A C 0.5250(3) 0.5753(3) 1.1561(2)
H15A H 0.6482 0.6120 1.1793
Co1A Co 0.71540(4) 0.54976(4) 0.53675(3)
O5A O 0.9250(3) 0.6747(2) 0.47993(17)
H1A H 0.9731 0.6152 0.4510
H2A H 0.888(5) 0.718(4) 0.441(3)
N1A N 0.6839(3) 0.3387(2) 0.40682(16)
N2A N 0.6963(3) 0.1773(2) 0.25066(17)
N3A N 0.7763(3) -0.0527(2) -0.18347(17)
N4A N 0.7652(3) -0.2297(2) -0.33945(17)
C1A C 0.6346(4) 0.1872(3) 0.4122(2)
H3A H 0.6007 0.1585 0.4723
C2A C 0.6427(4) 0.0871(3) 0.3180(2)
H4A H 0.6173 -0.0209 0.3014
C3A C 0.7203(3) 0.3280(3) 0.3089(2)
H5A H 0.7577 0.4131 0.2829
C4A C 0.7212(3) 0.1223(3) 0.1414(2)
C5A C 0.7682(4) -0.0097(3) 0.1115(2)
H6A H 0.7867 -0.0605 0.1628
C6A C 0.7872(4) -0.0650(3) 0.0045(2)
H7A H 0.8187 -0.1536 -0.0160
C7A C 0.7601(3) 0.0095(3) -0.0721(2)
C8A C 0.7145(4) 0.1421(3) -0.0420(2)
H8A H 0.6971 0.1933 -0.0933
C9A C 0.6949(4) 0.1980(3) 0.0650(2)
H9A H 0.6638 0.2868 0.0856
C10A C 0.8457(4) 0.0301(3) -0.2512(2)
H10A H 0.8888 0.1391 -0.2350
C11A C 0.8380(4) -0.0798(3) -0.3459(2)
H11A H 0.8764 -0.0578 -0.4068
C12A C 0.7301(3) -0.2075(3) -0.2409(2)
H12A H 0.6792 -0.2888 -0.2138
Co1_2 Co 0.28460(4) 0.45024(4) 1.46325(3)
Co1_3 Co 0.28460(4) 1.45024(4) 1.46325(3)
Co1A_2 Co 0.71540(4) -0.45024(4) -0.46325(3)
Co1A_3 Co 0.71540(4) 0.54976(4) 1.53675(3)
O1A_2 O 0.5128(2) 0.57517(19) 0.42082(13)
O3A_2 O 0.1361(2) 0.5356(2) 0.36920(14)
N4_2 N 0.2348(3) 0.2297(2) 0.33945(17)
N4A_2 N 0.7652(3) 0.7703(2) 0.66055(17)
loop_
_geom_bond_atom_site_label_1
_geom_bond_atom_site_label_2
_geom_bond_site_symmetry_1
_geom_bond_site_symmetry_2
Co1 O1 1_555 1_555
O1 C13 1_555 1_555
O2 C13 1_555 1_555
O3 C16 1_555 1_555
O4 C16 1_555 1_555
O5 Co1 1_555 1_555
H1 O5 1_555 1_555
H2 O5 1_555 1_555
N1 Co1 1_555 1_555
N2 C2 1_555 1_555
N3 C7 1_555 1_555
N4 C11 1_555 1_555
C1 N1 1_555 1_555
H3 C1 1_555 1_555
C2 C1 1_555 1_555
H4 C2 1_555 1_555
C3 N1 1_555 1_555
H5 C3 1_555 1_555
C4 N2 1_555 1_555
C5 C4 1_555 1_555
H6 C5 1_555 1_555
C6 C5 1_555 1_555
H7 C6 1_555 1_555
C7 C6 1_555 1_555
C8 C7 1_555 1_555
H8 C8 1_555 1_555
C9 C4 1_555 1_555
H9 C9 1_555 1_555
C10 N3 1_555 1_555
H10 C10 1_555 1_555
C11 C10 1_555 1_555
H11 C11 1_555 1_555
C12 N3 1_555 1_555
H12 C12 1_555 1_555
C13 C14 1_555 1_555
C14 C15 1_555 1_555
C15 C16 1_555 1_555
C17 C15 1_555 1_555
H13 C17 1_555 1_555
C18 C17 1_555 1_555
H14 C18 1_555 1_555
C19 C18 1_555 1_555
C20 C14 1_555 1_555
H15 C20 1_555 1_555
O1A C13A 1_555 1_555
O2A C13A 1_555 1_555
O3A C16A 1_555 1_555
O4A C16A 1_555 1_555
C13A C14A 1_555 1_555
C14A C15A 1_555 1_555
C15A C16A 1_555 1_555
C17A C15A 1_555 1_555
H13A C17A 1_555 1_555
C18A C17A 1_555 1_555
H14A C18A 1_555 1_555
C19A C19 1_555 1_555
C20A C14A 1_555 1_555
H15A C20A 1_555 1_555
Co1A O1 1_555 1_555
O5A Co1A 1_555 1_555
H1A O5A 1_555 1_555
H2A O5A 1_555 1_555
N1A Co1A 1_555 1_555
N2A C2A 1_555 1_555
N3A C7A 1_555 1_555
N4A C11A 1_555 1_555
C1A N1A 1_555 1_555
H3A C1A 1_555 1_555
C2A C1A 1_555 1_555
H4A C2A 1_555 1_555
C3A N1A 1_555 1_555
H5A C3A 1_555 1_555
C4A N2A 1_555 1_555
C5A C4A 1_555 1_555
H6A C5A 1_555 1_555
C6A C5A 1_555 1_555
H7A C6A 1_555 1_555
C7A C6A 1_555 1_555
C8A C7A 1_555 1_555
H8A C8A 1_555 1_555
C9A C4A 1_555 1_555
H9A C9A 1_555 1_555
C10A N3A 1_555 1_555
H10A C10A 1_555 1_555
C11A C10A 1_555 1_555
H11A C11A 1_555 1_555
C12A N3A 1_555 1_555
H12A C12A 1_555 1_555
Co1_2 O1A 1_555 1_555
Co1_3 N4 1_555 1_555
Co1A_2 N4A 1_555 1_555
Co1A_3 O1A 1_555 1_555
O1A_2 Co1 1_555 1_555
O3A_2 Co1 1_555 1_555
N4_2 Co1 1_555 1_555
N4A_2 Co1A 1_555 1_555
O3 Co1A 1_555 1_555
N2 C3 1_555 1_555
N4 C12 1_555 1_555
C8 C9 1_555 1_555
C19 C20 1_555 1_555
O3A Co1_2 1_555 1_555
C18A C19A 1_555 1_555
C19A C20A 1_555 1_555
Co1A O1A_2 1_555 1_555
N2A C3A 1_555 1_555
N4A C12A 1_555 1_555
C8A C9A 1_555 1_555

#END
