
#######################################################################
#
#                 Cambridge Crystallographic Data Centre
#                                CCDC 
#
#######################################################################
#
# If this CIF has been generated from an entry in the Cambridge 
# Structural Database, then it will include bibliographic, chemical, 
# crystal, experimental, refinement or atomic coordinate data resulting 
# from the CCDC's data processing and validation procedures.
#
#######################################################################

data_TOLQUI
_symmetry_cell_setting           monoclinic
_symmetry_space_group_name_H-M   'C 2/c'
_symmetry_Int_Tables_number      15
_space_group_name_Hall           '-C 2yn'
loop_
_symmetry_equiv_pos_site_id
_symmetry_equiv_pos_as_xyz
1 x,y,z
2 -x,y,1/2-z
3 1/2+x,1/2+y,z
4 1/2-x,1/2+y,1/2-z
5 -x,-y,-z
6 x,-y,1/2+z
7 1/2-x,1/2-y,-z
8 1/2+x,1/2-y,1/2+z
_cell_length_a                   24.579(5)
_cell_length_b                   11.8337(18)
_cell_length_c                   18.816(3)
_cell_angle_alpha                90
_cell_angle_beta                 121.090(5)
_cell_angle_gamma                90
_cell_volume                     4686.7
loop_
_atom_site_label
_atom_site_type_symbol
_atom_site_fract_x
_atom_site_fract_y
_atom_site_fract_z
Ni1 Ni 0.23066(4) 0.72588(8) 0.12713(6)
O1 O 0.1553(3) 0.6078(5) 0.0849(3)
O2 O 0.1749(2) 0.6875(5) -0.0050(3)
O3 O -0.1414(3) 0.4924(6) -0.2826(4)
O4 O -0.0984(3) 0.3224(6) -0.2547(4)
O5 O 0.2846(3) 0.8491(4) 0.1148(4)
H1 H 0.2820 0.8422 0.0698
H2 H 0.3158 0.8866 0.1622
N1 N 0.2955(3) 0.6011(5) 0.1441(4)
N2 N 0.3733(3) 0.5100(5) 0.1458(4)
N3 N 0.5832(3) 0.4333(6) 0.1067(4)
N4 N 0.6641(3) 0.3495(5) 0.1084(4)
N5 N 0.2712(3) 0.7409(5) 0.2535(4)
N6 N 0.2836(3) 0.7540(5) 0.3779(4)
C1 C 0.3033(4) 0.4962(6) 0.1815(5)
H3 H 0.2787 0.4693 0.2024
C2 C 0.3510(4) 0.4395(7) 0.1833(5)
H4 H 0.3658 0.3679 0.2052
C3 C 0.3383(4) 0.6029(7) 0.1226(5)
H5 H 0.3435 0.6624 0.0943
C4 C 0.4271(4) 0.4892(7) 0.1351(5)
C5 C 0.4446(4) 0.3807(7) 0.1321(6)
H6 H 0.4223 0.3200 0.1360
C6 C 0.4970(4) 0.3628(8) 0.1229(6)
H7 H 0.5096 0.2895 0.1204
C7 C 0.5296(3) 0.4529(7) 0.1176(5)
C8 C 0.5115(4) 0.5604(8) 0.1217(6)
H8 H 0.5328 0.6217 0.1164
C9 C 0.4616(4) 0.5776(7) 0.1335(6)
H9 H 0.4513 0.6507 0.1406
C10 C 0.6125(5) 0.5115(7) 0.0842(6)
H10 H 0.6009 0.5868 0.0708
C11 C 0.6612(4) 0.4588(8) 0.0854(6)
H11 H 0.6890 0.4925 0.0721
C12 C 0.6169(4) 0.3360(7) 0.1220(5)
H12 H 0.6079 0.2690 0.1397
C13 C 0.3289(4) 0.7928(7) 0.3079(5)
H13 H 0.3581 0.8180 0.2940
C14 C 0.3361(4) 0.8008(8) 0.3831(6)
H14 H 0.3705 0.8324 0.4302
C15 C 0.2455(4) 0.7172(7) 0.2979(5)
H15 H 0.2068 0.6806 0.2779
C16 C 0.2665(4) 0.7495(7) 0.4409(5)
C17 C 0.2906(4) 0.8341(7) 0.5015(5)
H16 H 0.3177 0.8897 0.5023
C18 C 0.2271(4) 0.6675(7) 0.4399(5)
H17 H 0.2119 0.6120 0.3992
C19 C 0.1392(4) 0.6257(7) 0.0079(6)
C20 C 0.0825(4) 0.5726(8) -0.0581(5)
C21 C 0.0640(4) 0.5832(7) -0.1425(5)
H18 H 0.0899 0.6230 -0.1563
C22 C 0.0075(4) 0.5351(7) -0.2057(5)
C23 C -0.0319(4) 0.4761(8) -0.1856(6)
C24 C -0.0106(5) 0.4569(11) -0.1020(6)
H19 H -0.0341 0.4105 -0.0877
C25 C 0.0447(5) 0.5055(10) -0.0403(6)
H20 H 0.0570 0.4930 0.0148
C26 C -0.0954(4) 0.4249(8) -0.2465(6)
O1A O -0.1553(3) 0.6078(5) -0.5849(3)
O2A O -0.1749(2) 0.6875(5) -0.4950(3)
O3A O 0.1414(3) 0.4924(6) -0.2174(4)
O4A O 0.0984(3) 0.3224(6) -0.2453(4)
C19A C -0.1392(4) 0.6257(7) -0.5079(6)
C20A C -0.0825(4) 0.5726(8) -0.4419(5)
C21A C -0.0640(4) 0.5832(7) -0.3575(5)
H18A H -0.0899 0.6230 -0.3437
C22A C -0.0075(4) 0.5351(7) -0.2943(5)
C23A C 0.0319(4) 0.4761(8) -0.3144(6)
C24A C 0.0106(5) 0.4569(11) -0.3980(6)
H19A H 0.0341 0.4105 -0.4123
C25A C -0.0447(5) 0.5055(10) -0.4597(6)
H20A H -0.0570 0.4930 -0.5148
C26A C 0.0954(4) 0.4249(8) -0.2535(6)
N5F N 0.2288(3) 0.7591(5) 0.7465(4)
N6F N 0.2164(3) 0.7460(5) 0.6221(4)
C13F C 0.1711(4) 0.7072(7) 0.6921(5)
H13F H 0.1419 0.6820 0.7060
C14F C 0.1639(4) 0.6992(8) 0.6169(6)
H14F H 0.1295 0.6676 0.5698
C15F C 0.2545(4) 0.7828(7) 0.7021(5)
H15F H 0.2932 0.8194 0.7221
C16F C 0.2335(4) 0.7505(7) 0.5591(5)
C17F C 0.2094(4) 0.6659(7) 0.4985(5)
H16F H 0.1823 0.6103 0.4977
C18F C 0.2729(4) 0.8325(7) 0.5601(5)
H17F H 0.2881 0.8880 0.6008
Ni1A Ni -0.23066(4) 0.72588(8) -0.62713(6)
O5A O -0.2846(3) 0.8491(4) -0.6148(4)
H1A H -0.2820 0.8422 -0.5698
H2A H -0.3158 0.8866 -0.6622
N1A N -0.2955(3) 0.6011(5) -0.6441(4)
N2A N -0.3733(3) 0.5100(5) -0.6458(4)
N3A N -0.5832(3) 0.4333(6) -0.6067(4)
N4A N -0.6641(3) 0.3495(5) -0.6084(4)
C1A C -0.3033(4) 0.4962(6) -0.6815(5)
H3A H -0.2787 0.4693 -0.7024
C2A C -0.3510(4) 0.4395(7) -0.6833(5)
H4A H -0.3658 0.3679 -0.7052
C3A C -0.3383(4) 0.6029(7) -0.6226(5)
H5A H -0.3435 0.6624 -0.5943
C4A C -0.4271(4) 0.4892(7) -0.6351(5)
C5A C -0.4446(4) 0.3807(7) -0.6321(6)
H6A H -0.4223 0.3200 -0.6360
C6A C -0.4970(4) 0.3628(8) -0.6229(6)
H7A H -0.5096 0.2895 -0.6204
C7A C -0.5296(3) 0.4529(7) -0.6176(5)
C8A C -0.5115(4) 0.5604(8) -0.6217(6)
H8A H -0.5328 0.6217 -0.6164
C9A C -0.4616(4) 0.5776(7) -0.6335(6)
H9A H -0.4513 0.6507 -0.6406
C10A C -0.6125(5) 0.5115(7) -0.5842(6)
H10A H -0.6009 0.5868 -0.5708
C11A C -0.6612(4) 0.4588(8) -0.5854(6)
H11A H -0.6890 0.4925 -0.5721
C12A C -0.6169(4) 0.3360(7) -0.6220(5)
H12A H -0.6079 0.2690 -0.6397
Ni1B Ni 0.73066(4) 0.22588(8) 0.12713(6)
Ni1C Ni -0.73066(4) 0.22588(8) -0.62713(6)
Ni1F Ni 0.26934(4) 0.77412(8) 0.87287(6)
N4B N 0.1641(3) 0.8495(5) 0.1084(4)
N4C N -0.1641(3) 0.8495(5) -0.6084(4)
N5A N -0.2712(3) 0.7409(5) -0.7535(4)
loop_
_geom_bond_atom_site_label_1
_geom_bond_atom_site_label_2
_geom_bond_site_symmetry_1
_geom_bond_site_symmetry_2
Ni1 O1 1_555 1_555
O1 C19 1_555 1_555
O2 Ni1 1_555 1_555
O3 C26 1_555 1_555
O4 C26 1_555 1_555
O5 Ni1 1_555 1_555
H1 O5 1_555 1_555
H2 O5 1_555 1_555
N1 Ni1 1_555 1_555
N2 C2 1_555 1_555
N3 C7 1_555 1_555
N4 C11 1_555 1_555
N5 Ni1 1_555 1_555
N6 C14 1_555 1_555
C1 N1 1_555 1_555
H3 C1 1_555 1_555
C2 C1 1_555 1_555
H4 C2 1_555 1_555
C3 N1 1_555 1_555
H5 C3 1_555 1_555
C4 N2 1_555 1_555
C5 C4 1_555 1_555
H6 C5 1_555 1_555
C6 C5 1_555 1_555
H7 C6 1_555 1_555
C7 C6 1_555 1_555
C8 C7 1_555 1_555
H8 C8 1_555 1_555
C9 C4 1_555 1_555
H9 C9 1_555 1_555
C10 N3 1_555 1_555
H10 C10 1_555 1_555
C11 C10 1_555 1_555
H11 C11 1_555 1_555
C12 N3 1_555 1_555
H12 C12 1_555 1_555
C13 N5 1_555 1_555
H13 C13 1_555 1_555
C14 C13 1_555 1_555
H14 C14 1_555 1_555
C15 N5 1_555 1_555
H15 C15 1_555 1_555
C16 N6 1_555 1_555
C17 C16 1_555 1_555
H16 C17 1_555 1_555
C18 C16 1_555 1_555
H17 C18 1_555 1_555
C19 O2 1_555 1_555
C20 C19 1_555 1_555
C21 C20 1_555 1_555
H18 C21 1_555 1_555
C22 C21 1_555 1_555
C23 C22 1_555 1_555
C24 C23 1_555 1_555
H19 C24 1_555 1_555
C25 C20 1_555 1_555
H20 C25 1_555 1_555
C26 C23 1_555 1_555
O1A C19A 1_555 1_555
O2A C19A 1_555 1_555
O3A C26A 1_555 1_555
O4A C26A 1_555 1_555
C19A C20A 1_555 1_555
C20A C21A 1_555 1_555
C21A H18A 1_555 1_555
C22A C22 1_555 1_555
C23A C22A 1_555 1_555
C24A C23A 1_555 1_555
H19A C24A 1_555 1_555
C25A C20A 1_555 1_555
H20A C25A 1_555 1_555
C26A C23A 1_555 1_555
N5F C13F 1_555 1_555
N6F C14F 1_555 1_555
C13F H13F 1_555 1_555
C14F C13F 1_555 1_555
H14F C14F 1_555 1_555
C15F N5F 1_555 1_555
H15F C15F 1_555 1_555
C16F N6F 1_555 1_555
C17F C18 1_555 1_555
H16F C17F 1_555 1_555
C18F C17 1_555 1_555
H17F C18F 1_555 1_555
Ni1A O1A 1_555 1_555
O5A Ni1A 1_555 1_555
H1A O5A 1_555 1_555
H2A O5A 1_555 1_555
N1A Ni1A 1_555 1_555
N2A C2A 1_555 1_555
N3A C7A 1_555 1_555
N4A C11A 1_555 1_555
C1A N1A 1_555 1_555
H3A C1A 1_555 1_555
C2A C1A 1_555 1_555
H4A C2A 1_555 1_555
C3A N1A 1_555 1_555
H5A C3A 1_555 1_555
C4A N2A 1_555 1_555
C5A C4A 1_555 1_555
H6A C5A 1_555 1_555
C6A C5A 1_555 1_555
H7A C6A 1_555 1_555
C7A C6A 1_555 1_555
C8A C7A 1_555 1_555
H8A C8A 1_555 1_555
C9A C4A 1_555 1_555
H9A C9A 1_555 1_555
C10A N3A 1_555 1_555
H10A C10A 1_555 1_555
C11A C10A 1_555 1_555
H11A C11A 1_555 1_555
C12A N3A 1_555 1_555
H12A C12A 1_555 1_555
Ni1B N4 1_555 1_555
Ni1C N4A 1_555 1_555
Ni1F N5F 1_555 1_555
N4B Ni1 1_555 1_555
N4C Ni1A 1_555 1_555
N5A Ni1A 1_555 1_555
N2 C3 1_555 1_555
N4 C12 1_555 1_555
N6 C15 1_555 1_555
C8 C9 1_555 1_555
C24 C25 1_555 1_555
O2A Ni1A 1_555 1_555
C21A C22A 1_555 1_555
C24A C25A 1_555 1_555
N6F C15F 1_555 1_555
C16F C17F 1_555 1_555
C16F C18F 1_555 1_555
N2A C3A 1_555 1_555
N4A C12A 1_555 1_555
C8A C9A 1_555 1_555

#END
