
#######################################################################
#
#                 Cambridge Crystallographic Data Centre
#                                CCDC 
#
#######################################################################
#
# If this CIF has been generated from an entry in the Cambridge 
# Structural Database, then it will include bibliographic, chemical, 
# crystal, experimental, refinement or atomic coordinate data resulting 
# from the CCDC's data processing and validation procedures.
#
#######################################################################

data_TOLYUP
_symmetry_cell_setting           monoclinic
_symmetry_space_group_name_H-M   'P 21/c'
_symmetry_Int_Tables_number      14
_space_group_name_Hall           '-P 2ybc'
loop_
_symmetry_equiv_pos_site_id
_symmetry_equiv_pos_as_xyz
1 x,y,z
2 -x,1/2+y,1/2-z
3 -x,-y,-z
4 x,1/2-y,1/2+z
_cell_length_a                   20.1456(17)
_cell_length_b                   7.2233(6)
_cell_length_c                   21.3603(18)
_cell_angle_alpha                90
_cell_angle_beta                 99.231(2)
_cell_angle_gamma                90
_cell_volume                     3068.05
loop_
_atom_site_label
_atom_site_type_symbol
_atom_site_fract_x
_atom_site_fract_y
_atom_site_fract_z
Pb1 Pb 0.48583(3) 0.82656(9) 0.20822(3)
Pb2 Pb 0.20427(3) -0.15221(9) 0.06685(3)
Pb3 Pb 0.13116(3) 0.34230(10) 0.10157(3)
O1 O 0.0991(5) -0.3202(14) 0.0915(5)
O2 O -0.1059(4) -0.0432(16) -0.0217(5)
O3 O -0.1613(5) 0.0688(17) 0.0510(6)
O4 O 0.4548(4) 0.4889(14) 0.1847(4)
O5 O 0.2573(5) 0.2833(18) -0.0289(5)
O6 O 0.2494(5) 0.1798(16) 0.0707(5)
O7 O 0.4466(4) 0.6455(16) 0.3051(5)
O8 O 0.2379(5) 0.5288(18) 0.1589(6)
O9 O 0.1633(5) 0.4568(17) 0.2184(5)
O10 O 0.8301(4) 0.5217(15) 0.3432(5)
O11 O 0.5878(4) 0.7134(16) 0.1592(5)
O12 O 0.5894(5) 0.6304(16) 0.2593(5)
O13 O 0.0276(5) 0.299(2) 0.1573(6)
O14 O -0.0774(6) 0.377(2) 0.1463(7)
O15 O -0.0229(7) 0.3659(19) 0.0666(6)
O16 O 0.4408(5) 0.8231(19) 0.0815(6)
O17 O 0.3549(6) 0.8267(19) 0.1226(7)
O18 O 0.3416(6) 0.820(2) 0.0266(6)
O19 O 0.1602(5) 0.5143(17) 0.0002(6)
N1 N 0.0444(6) -0.2469(18) 0.1114(7)
N2 N 0.4402(6) 0.4166(18) 0.1273(7)
N3 N 0.3818(6) 0.6254(18) 0.3134(6)
N4 N 0.7954(6) 0.5422(19) 0.2822(6)
N5 N -0.0281(7) 0.352(2) 0.1204(8)
N6 N 0.3793(9) 0.822(3) 0.0770(7)
C1 C 0.0377(8) -0.243(2) 0.1725(8)
H1 H 0.0719 -0.2922 0.2021
C2 C -0.0148(8) -0.172(3) 0.1926(8)
H2 H -0.0183 -0.1732 0.2355
C3 C -0.0657(7) -0.094(3) 0.1478(8)
H3 H -0.1030 -0.0399 0.1612
C4 C -0.0611(7) -0.096(2) 0.0870(8)
C5 C -0.0032(6) -0.177(2) 0.0650(7)
H4 H 0.0012 -0.1808 0.0224
C6 C -0.1136(8) -0.013(3) 0.0372(8)
C7 C 0.4833(7) 0.389(2) 0.0886(7)
H5 H 0.5278 0.4231 0.1017
C8 C 0.4668(8) 0.313(2) 0.0312(8)
H6 H 0.4996 0.2949 0.0057
C9 C 0.4021(7) 0.263(2) 0.0101(8)
H7 H 0.3903 0.2126 -0.0302
C10 C 0.3567(7) 0.285(2) 0.0466(8)
C11 C 0.3739(6) 0.356(2) 0.1102(7)
H8 H 0.3429 0.3615 0.1380
C12 C 0.2803(8) 0.237(2) 0.0264(10)
C13 C 0.3358(7) 0.597(2) 0.2600(8)
H9 H 0.3484 0.5982 0.2200
C14 C 0.2683(7) 0.566(2) 0.2677(7)
C15 C 0.2532(8) 0.572(3) 0.3260(8)
H10 H 0.2085 0.5565 0.3308
C16 C 0.3020(8) 0.602(3) 0.3826(8)
H11 H 0.2917 0.6017 0.4235
C17 C 0.3636(7) 0.628(2) 0.3689(7)
H12 H 0.3974 0.6521 0.4030
C18 C 0.2171(8) 0.513(2) 0.2117(8)
C19 C 0.7268(7) 0.573(2) 0.2784(8)
H13 H 0.7064 0.5773 0.3145
C20 C 0.6893(7) 0.597(2) 0.2168(7)
C21 C 0.7220(8) 0.592(2) 0.1628(8)
H14 H 0.6976 0.6117 0.1226
C22 C 0.7901(8) 0.558(3) 0.1698(9)
H15 H 0.8124 0.5533 0.1349
C23 C 0.8248(7) 0.531(3) 0.2319(9)
H16 H 0.8705 0.5050 0.2374
C24 C 0.6163(7) 0.658(3) 0.2149(9)
Pb1A Pb 0.51417(3) 0.32656(9) 0.29178(3)
Pb2B Pb -0.20427(3) 0.15221(9) -0.06685(3)
Pb2A Pb 0.79573(3) 0.34779(9) 0.43315(3)
Pb3_2 Pb 0.13116(3) -0.65770(10) 0.10157(3)
Pb3B Pb -0.13116(3) -0.34230(10) -0.10157(3)
Pb3A Pb 0.86884(3) 0.84230(10) 0.39843(3)
O1_2 O 0.0991(5) 0.6798(14) 0.0915(5)
O2B O 0.1059(4) 0.0432(16) 0.0217(5)
O3B O 0.1613(5) -0.0688(17) -0.0510(6)
O4A O 0.5452(4) 0.9889(14) 0.3153(4)
O7A O 0.5534(4) 1.1455(16) 0.1949(5)
O10A O 0.1699(4) 0.0217(15) 0.1568(5)
loop_
_geom_bond_atom_site_label_1
_geom_bond_atom_site_label_2
_geom_bond_site_symmetry_1
_geom_bond_site_symmetry_2
Pb1 O4 1_555 1_555
Pb2 O1 1_555 1_555
Pb3 O8 1_555 1_555
O1 N1 1_555 1_555
O2 C6 1_555 1_555
O3 C6 1_555 1_555
O4 N2 1_555 1_555
O5 C12 1_555 1_555
O6 Pb2 1_555 1_555
O7 Pb1 1_555 1_555
O8 C18 1_555 1_555
O9 Pb3 1_555 1_555
O10 N4 1_555 1_555
O11 Pb1 1_555 1_555
O12 Pb1 1_555 1_555
O13 Pb3 1_555 1_555
O14 N5 1_555 1_555
O15 N5 1_555 1_555
O16 Pb1 1_555 1_555
O17 N6 1_555 1_555
O18 N6 1_555 1_555
O19 Pb3 1_555 1_555
N1 C1 1_555 1_555
N2 C7 1_555 1_555
N3 O7 1_555 1_555
N4 C19 1_555 1_555
N5 O13 1_555 1_555
N6 O16 1_555 1_555
C1 H1 1_555 1_555
C2 C1 1_555 1_555
H2 C2 1_555 1_555
C3 C2 1_555 1_555
H3 C3 1_555 1_555
C4 C3 1_555 1_555
C5 N1 1_555 1_555
H4 C5 1_555 1_555
C6 C4 1_555 1_555
C7 H5 1_555 1_555
C8 C7 1_555 1_555
H6 C8 1_555 1_555
C9 C8 1_555 1_555
H7 C9 1_555 1_555
C10 C9 1_555 1_555
C11 N2 1_555 1_555
H8 C11 1_555 1_555
C12 O6 1_555 1_555
C13 N3 1_555 1_555
H9 C13 1_555 1_555
C14 C13 1_555 1_555
C15 C14 1_555 1_555
H10 C15 1_555 1_555
C16 C15 1_555 1_555
H11 C16 1_555 1_555
C17 N3 1_555 1_555
H12 C17 1_555 1_555
C18 O9 1_555 1_555
C19 H13 1_555 1_555
C20 C19 1_555 1_555
C21 C20 1_555 1_555
H14 C21 1_555 1_555
C22 C21 1_555 1_555
H15 C22 1_555 1_555
C23 N4 1_555 1_555
H16 C23 1_555 1_555
C24 O11 1_555 1_555
Pb1A O4 1_555 1_555
Pb2B O2 1_555 1_555
Pb2A O10 1_555 1_555
Pb3_2 O1 1_555 1_555
Pb3B O2 1_555 1_555
Pb3A O10 1_555 1_555
O1_2 Pb3 1_555 1_555
O2B Pb2 1_555 1_555
O3B Pb2 1_555 1_555
O4A Pb1 1_555 1_555
O7A Pb1 1_555 1_555
O10A Pb2 1_555 1_555
Pb3 O2B 1_555 1_555
Pb3 O10A 1_555 1_555
O3 Pb2B 1_555 1_555
O7 Pb1A 1_555 1_555
O12 C24 1_555 1_555
C4 C5 1_555 1_555
C10 C11 1_555 1_555
C10 C12 1_555 1_555
C14 C18 1_555 1_555
C16 C17 1_555 1_555
C20 C24 1_555 1_555
C22 C23 1_555 1_555

#END
