
#######################################################################
#
#                 Cambridge Crystallographic Data Centre
#                                CCDC 
#
#######################################################################
#
# If this CIF has been generated from an entry in the Cambridge 
# Structural Database, then it will include bibliographic, chemical, 
# crystal, experimental, refinement or atomic coordinate data resulting 
# from the CCDC's data processing and validation procedures.
#
#######################################################################

data_TONFIM
_symmetry_cell_setting           triclinic
_symmetry_space_group_name_H-M   'P -1'
_symmetry_Int_Tables_number      2
_space_group_name_Hall           '-P 1'
loop_
_symmetry_equiv_pos_site_id
_symmetry_equiv_pos_as_xyz
1 x,y,z
2 -x,-y,-z
_cell_length_a                   9.7860(6)
_cell_length_b                   14.7460(9)
_cell_length_c                   19.8720(12)
_cell_angle_alpha                100.746(1)
_cell_angle_beta                 97.924(1)
_cell_angle_gamma                100.696(1)
_cell_volume                     2723.84
loop_
_atom_site_label
_atom_site_type_symbol
_atom_site_fract_x
_atom_site_fract_y
_atom_site_fract_z
Cd1 Cd 0.27023(4) 0.28306(2) 0.399979(19)
Cd2 Cd -0.23830(4) 0.78003(3) 0.094646(19)
C1 C 0.6725(5) -0.0888(3) 0.9296(2)
O1 O 1.6630(4) 0.7038(3) 0.1955(2)
N1 N 0.1779(4) 0.4119(3) 0.4221(2)
O2 O 0.7375(4) -0.0843(3) 1.0498(2)
O3 O 0.3066(5) 0.1438(3) 0.4339(2)
N2 N 0.0833(4) 0.2016(3) 0.3144(2)
O4 O 0.4833(4) 0.3964(3) 0.4146(2)
N3 N -0.0243(4) 0.1452(3) 0.2064(2)
N4 N 0.1780(5) 0.5606(3) 0.4641(2)
O5 O 1.5432(4) 0.7623(3) 0.1183(2)
N5 N -0.0596(4) 0.8561(3) 0.1799(2)
C2 C 0.3472(5) 0.1245(4) 0.5500(3)
O6 O 0.7502(5) -0.2097(3) 0.9762(2)
O7 O 0.4098(4) 0.3009(3) 0.3137(2)
N6 N 0.0424(5) 0.9194(3) 0.2882(2)
C3 C -0.1355(5) 0.1952(4) 0.1036(3)
O8 O 0.3085(5) 0.2626(3) 0.5138(2)
C4 C 1.4149(5) 0.6825(4) 0.1910(3)
N7 N -0.2357(5) 0.6277(3) 0.0519(2)
C5 C 0.1824(6) 0.7288(3) 0.4658(3)
C6 C 0.6361(6) -0.0013(4) 0.9419(3)
H1 H 0.6530 0.0350 0.9870
C7 C 0.6061(5) 0.4282(4) 0.3247(3)
C8 C 0.7262(5) -0.1287(4) 0.9897(3)
C9 C 0.5748(6) 0.0322(4) 0.8871(3)
H2 H 0.5505 0.0908 0.8957
C10 C 0.3186(5) 0.1807(4) 0.4958(3)
C11 C -0.2906(5) 0.3195(4) 0.0565(3)
C12 C 0.6467(5) -0.1401(4) 0.8623(3)
H3 H 0.6709 -0.1987 0.8537
C13 C 0.4932(5) 0.3716(4) 0.3527(3)
C14 C 0.2566(6) 0.7587(4) 0.4172(3)
H4 H 0.3337 0.7335 0.4072
C15 C 1.1668(6) 0.6104(5) 0.2317(3)
C16 C 0.2275(7) 0.6580(4) 0.5050(3)
H5 H 0.3298 0.6721 0.5170
H6 H 0.1900 0.6635 0.5480
C17 C -0.0684(5) 0.8613(3) 0.2454(3)
H7 H -0.1442 0.8278 0.2605
C18 C 0.5496(6) -0.0205(5) 0.8204(3)
C19 C -0.0447(6) 0.1444(4) 0.3132(3)
H8 H -0.0806 0.1318 0.3523
C20 C -0.1103(6) 0.1094(4) 0.2472(3)
H9 H -0.1983 0.0683 0.2322
C21 C -0.0537(6) 0.1288(4) 0.1299(3)
H10 H -0.1066 0.0644 0.1111
H11 H 0.0351 0.1355 0.1129
C22 C 0.1033(6) 0.8640(3) 0.3978(3)
C23 C 1.2933(6) 0.7115(4) 0.1706(3)
H12 H 1.2945 0.7551 0.1423
C24 C 0.0898(5) 0.1999(3) 0.2490(3)
H13 H 0.1658 0.2332 0.2339
C25 C 0.2506(5) 0.4928(4) 0.4624(3)
H14 H 0.3419 0.5014 0.4867
C26 C 0.0675(6) 0.9153(4) 0.1807(4)
H15 H 0.1044 0.9267 0.1416
C27 C 1.1677(5) 0.6761(4) 0.1921(3)
H16 H 1.0860 0.6972 0.1795
C28 C 0.5864(6) -0.1081(4) 0.8070(3)
H17 H 0.5706 -0.1441 0.7619
C29 C 1.4106(6) 0.6168(4) 0.2317(3)
H18 H 1.4926 0.5973 0.2463
N8 N -0.3132(5) 0.4732(4) 0.0253(3)
C30 C 0.3695(6) 0.1647(4) 0.6189(3)
H19 H 0.3640 0.2274 0.6331
C31 C 0.6573(5) 0.5230(4) 0.3538(3)
H20 H 0.6217 0.5518 0.3913
C32 C 0.4132(5) 0.0205(5) 0.6484(3)
C33 C 0.3555(6) 0.0322(4) 0.5313(3)
H21 H 0.3399 0.0032 0.4843
O9 O 0.4856(5) 0.0152(4) 0.7654(3)
C34 C 0.4007(7) 0.1125(5) 0.6683(3)
H22 H 0.4132 0.1402 0.7154
C35 C 0.3866(7) -0.0194(4) 0.5806(3)
H23 H 0.3891 -0.0827 0.5663
C36 C 0.0504(5) 0.4303(4) 0.3971(3)
H24 H -0.0240 0.3864 0.3671
O10 O 1.0440(6) 0.5645(4) 0.2547(3)
C37 C 0.7624(6) 0.5763(5) 0.3274(4)
H25 H 0.7953 0.6403 0.3474
C38 C 1.5512(6) 0.7195(4) 0.1677(3)
C39 C 0.2170(6) 0.8262(4) 0.3830(3)
H26 H 0.2675 0.8459 0.3500
C40 C -0.3493(6) 0.2493(4) 0.0829(4)
H27 H -0.4446 0.2413 0.0859
C41 C 0.0637(7) 0.9424(4) 0.3642(3)
H28 H -0.0224 0.9564 0.3784
H29 H 0.1378 0.9991 0.3815
C42 C 0.0492(6) 0.5212(4) 0.4224(3)
H30 H -0.0246 0.5514 0.4135
C43 C 0.4541(6) -0.0295(5) 0.6999(3)
H31 H 0.3778 -0.0838 0.6959
H32 H 0.5355 -0.0537 0.6884
C44 C 0.0302(6) 0.8325(4) 0.4440(3)
H33 H -0.0487 0.8561 0.4531
C45 C 0.1291(6) 0.9538(4) 0.2467(4)
H34 H 0.2157 0.9965 0.2616
C46 C -0.2742(6) 0.1874(4) 0.1060(4)
H35 H -0.3205 0.1387 0.1239
C47 C 1.2867(7) 0.5795(5) 0.2512(4)
H36 H 1.2843 0.5335 0.2775
C48 C -0.3851(7) 0.3797(4) 0.0301(4)
H37 H -0.4370 0.3465 -0.0158
H38 H -0.4535 0.3869 0.0606
C49 C 0.0688(6) 0.7662(4) 0.4782(3)
H39 H 0.0164 0.7463 0.5104
C50 C 0.8168(6) 0.5372(6) 0.2737(4)
C51 C -0.2980(6) 0.5537(4) 0.0722(3)
H40 H -0.3286 0.5569 0.1147
C52 C 0.9298(6) 0.5937(7) 0.2448(4)
H41 H 0.8988 0.5878 0.1954
H42 H 0.9464 0.6600 0.2675
C53 C -0.2171(8) 0.5907(5) -0.0137(4)
H43 H -0.1775 0.6260 -0.0432
C54 C -0.2640(9) 0.4962(5) -0.0297(4)
H44 H -0.2624 0.4551 -0.0711
C55 C 0.6589(6) 0.3861(5) 0.2697(3)
H45 H 0.6246 0.3224 0.2490
C56 C 0.7681(7) 0.4424(6) 0.2449(3)
H46 H 0.8071 0.4142 0.2084
C57 C -0.0771(7) 0.2687(6) 0.0804(5)
H47 H 0.0193 0.2790 0.0798
C58 C -0.1521(7) 0.3312(7) 0.0570(6)
H48 H -0.1052 0.3819 0.0413
Cd2_2 Cd 1.76170(4) 0.78003(3) 0.094646(19)
Cd2_3 Cd 0.76170(4) -0.21997(3) 1.094646(19)
O2_2 O -0.2625(4) 0.9157(3) 0.0498(2)
O5_2 O -0.4568(4) 0.7623(3) 0.1183(2)
O6_2 O -0.2498(5) 0.7903(3) -0.0238(2)
loop_
_geom_bond_atom_site_label_1
_geom_bond_atom_site_label_2
_geom_bond_site_symmetry_1
_geom_bond_site_symmetry_2
Cd1 N1 1_555 1_555
Cd2 N5 1_555 1_555
C1 C6 1_555 1_555
O1 C38 1_555 1_555
N1 C25 1_555 1_555
O2 C8 1_555 1_555
O3 Cd1 1_555 1_555
N2 Cd1 1_555 1_555
O4 Cd1 1_555 1_555
N3 C20 1_555 1_555
N4 C16 1_555 1_555
O5 C38 1_555 1_555
N5 C17 1_555 1_555
C2 C10 1_555 1_555
O6 C8 1_555 1_555
O7 Cd1 1_555 1_555
N6 C17 1_555 1_555
C3 C21 1_555 1_555
O8 Cd1 1_555 1_555
C4 C23 1_555 1_555
N7 Cd2 1_555 1_555
C5 C14 1_555 1_555
C6 H1 1_555 1_555
C7 C13 1_555 1_555
C8 C1 1_555 1_555
C9 C6 1_555 1_555
H2 C9 1_555 1_555
C10 O3 1_555 1_555
C11 C40 1_555 1_555
C12 C1 1_555 1_555
H3 C12 1_555 1_555
C13 O4 1_555 1_555
C14 H4 1_555 1_555
C15 C27 1_555 1_555
C16 C5 1_555 1_555
H5 C16 1_555 1_555
H6 C16 1_555 1_555
C17 H7 1_555 1_555
C18 C9 1_555 1_555
C19 N2 1_555 1_555
H8 C19 1_555 1_555
C20 C19 1_555 1_555
H9 C20 1_555 1_555
C21 N3 1_555 1_555
H10 C21 1_555 1_555
H11 C21 1_555 1_555
C22 C39 1_555 1_555
C23 H12 1_555 1_555
C24 N2 1_555 1_555
H13 C24 1_555 1_555
C25 N4 1_555 1_555
H14 C25 1_555 1_555
C26 N5 1_555 1_555
H15 C26 1_555 1_555
C27 C23 1_555 1_555
H16 C27 1_555 1_555
C28 C12 1_555 1_555
H17 C28 1_555 1_555
C29 C4 1_555 1_555
H18 C29 1_555 1_555
N8 C48 1_555 1_555
C30 C2 1_555 1_555
H19 C30 1_555 1_555
C31 C7 1_555 1_555
H20 C31 1_555 1_555
C32 C34 1_555 1_555
C33 C2 1_555 1_555
H21 C33 1_555 1_555
O9 C18 1_555 1_555
C34 C30 1_555 1_555
H22 C34 1_555 1_555
C35 C32 1_555 1_555
H23 C35 1_555 1_555
C36 N1 1_555 1_555
H24 C36 1_555 1_555
O10 C15 1_555 1_555
C37 C31 1_555 1_555
H25 C37 1_555 1_555
C38 C4 1_555 1_555
C39 C14 1_555 1_555
H26 C39 1_555 1_555
C40 H27 1_555 1_555
C41 N6 1_555 1_555
H28 C41 1_555 1_555
H29 C41 1_555 1_555
C42 N4 1_555 1_555
H30 C42 1_555 1_555
C43 C32 1_555 1_555
H31 C43 1_555 1_555
H32 C43 1_555 1_555
C44 C22 1_555 1_555
H33 C44 1_555 1_555
C45 N6 1_555 1_555
H34 C45 1_555 1_555
C46 C3 1_555 1_555
H35 C46 1_555 1_555
C47 C15 1_555 1_555
H36 C47 1_555 1_555
C48 C11 1_555 1_555
H37 C48 1_555 1_555
H38 C48 1_555 1_555
C49 C5 1_555 1_555
H39 C49 1_555 1_555
C50 C37 1_555 1_555
C51 N7 1_555 1_555
H40 C51 1_555 1_555
C52 O10 1_555 1_555
H41 C52 1_555 1_555
H42 C52 1_555 1_555
C53 N7 1_555 1_555
H43 C53 1_555 1_555
C54 N8 1_555 1_555
H44 C54 1_555 1_555
C55 C7 1_555 1_555
H45 C55 1_555 1_555
C56 C50 1_555 1_555
H46 C56 1_555 1_555
C57 C3 1_555 1_555
H47 C57 1_555 1_555
C58 C11 1_555 1_555
H48 C58 1_555 1_555
Cd2_2 O5 1_555 1_555
Cd2_3 O2 1_555 1_555
O2_2 Cd2 1_555 1_555
O5_2 Cd2 1_555 1_555
O6_2 Cd2 1_555 1_555
N3 C24 1_555 1_555
O6 Cd2_3 1_555 1_555
O7 C13 1_555 1_555
O8 C10 1_555 1_555
C18 C28 1_555 1_555
C22 C41 1_555 1_555
C26 C45 1_555 1_555
C29 C47 1_555 1_555
N8 C51 1_555 1_555
C33 C35 1_555 1_555
O9 C43 1_555 1_555
C36 C42 1_555 1_555
C40 C46 1_555 1_555
C44 C49 1_555 1_555
C50 C52 1_555 1_555
C53 C54 1_555 1_555
C55 C56 1_555 1_555
C57 C58 1_555 1_555

#END
