
#######################################################################
#
#                 Cambridge Crystallographic Data Centre
#                                CCDC 
#
#######################################################################
#
# If this CIF has been generated from an entry in the Cambridge 
# Structural Database, then it will include bibliographic, chemical, 
# crystal, experimental, refinement or atomic coordinate data resulting 
# from the CCDC's data processing and validation procedures.
#
#######################################################################

data_TONFUY
_symmetry_cell_setting           triclinic
_symmetry_space_group_name_H-M   'P -1'
_symmetry_Int_Tables_number      2
_space_group_name_Hall           '-P 1'
loop_
_symmetry_equiv_pos_site_id
_symmetry_equiv_pos_as_xyz
1 x,y,z
2 -x,-y,-z
_cell_length_a                   11.5890(4)
_cell_length_b                   11.7730(4)
_cell_length_c                   19.6900(7)
_cell_angle_alpha                94.484(1)
_cell_angle_beta                 105.290(1)
_cell_angle_gamma                114.167(1)
_cell_volume                     2310.75
loop_
_atom_site_label
_atom_site_type_symbol
_atom_site_fract_x
_atom_site_fract_y
_atom_site_fract_z
Zn1 Zn 0.14101(4) 0.80574(4) 0.02943(2)
Zn2 Zn 0.61703(5) 0.25544(4) 0.48680(2)
Zn3 Zn 0.0000 0.5000 0.0000
C1 C 0.3274(4) 0.7064(3) 0.06902(19)
C2 C 0.4680(3) 0.7245(3) 0.10054(18)
C3 C 0.5005(4) 0.6279(3) 0.08394(18)
H1 H 0.4351 0.5515 0.0531
C4 C 0.6304(4) 0.6444(3) 0.11309(18)
C5 C 0.7261(4) 0.7545(4) 0.1611(2)
H2 H 0.8118 0.7633 0.1828
C6 C 0.6945(4) 0.8520(4) 0.1770(2)
H3 H 0.7600 0.9277 0.2084
C7 C 0.5668(4) 0.8383(3) 0.14677(19)
H4 H 0.5465 0.9050 0.1572
C8 C 0.7679(4) 0.5355(4) 0.1287(2)
H5 H 0.8461 0.6168 0.1392
H6 H 0.7811 0.4729 0.1009
C9 C 0.6582(3) 0.3451(3) 0.25560(18)
H7 H 0.7067 0.4080 0.2976
C10 C 0.6697(4) 0.3741(3) 0.1905(2)
C11 C 0.5984(4) 0.2814(4) 0.1273(2)
H8 H 0.6054 0.3011 0.0833
C12 C 0.5169(4) 0.1593(4) 0.1313(2)
H9 H 0.4695 0.0963 0.0894
C13 C 0.5043(4) 0.1292(3) 0.1950(2)
H10 H 0.4489 0.0464 0.1964
C14 C 0.5755(4) 0.2236(3) 0.25891(19)
C15 C 0.5559(4) 0.1905(4) 0.3279(2)
C16 C -0.1969(4) 1.1807(4) -0.46843(19)
C17 C -0.0750(4) 1.1663(3) -0.43029(18)
C18 C 0.0393(4) 1.2717(4) -0.3850(2)
H11 H 0.0413 1.3517 -0.3801
C19 C 0.1479(4) 1.2571(4) -0.3479(2)
H12 H 0.2230 1.3275 -0.3171
C20 C 0.1484(4) 1.1410(4) -0.3553(2)
H13 H 0.2238 1.1328 -0.3303
C21 C 0.0352(4) 1.0349(4) -0.4004(2)
C22 C -0.0754(4) 1.0477(3) -0.43701(19)
H14 H -0.1513 0.9766 -0.4666
C23 C 0.1379(5) 0.8925(5) -0.3808(2)
H15 H 0.1280 0.8152 -0.4085
H16 H 0.2171 0.9630 -0.3833
C24 C 0.0851(4) 0.7648(4) -0.29347(19)
C25 C 0.1011(4) 0.7655(3) -0.22153(18)
H17 H 0.1525 0.8420 -0.1878
C26 C 0.0417(3) 0.6539(3) -0.19879(18)
C27 C -0.0346(4) 0.5399(3) -0.2496(2)
H18 H -0.0746 0.4637 -0.2354
C28 C -0.0500(4) 0.5417(4) -0.3214(2)
H19 H -0.1009 0.4656 -0.3555
C29 C 0.0082(4) 0.6532(4) -0.3438(2)
H20 H -0.0045 0.6527 -0.3925
C30 C 0.3008(4) 1.4616(4) 0.5180(2)
H21 H 0.2867 1.4846 0.5602
C31 C 0.2697(5) 1.3361(4) 0.4958(3)
H22 H 0.2366 1.2759 0.5223
C32 C 0.2888(5) 1.3038(4) 0.4342(3)
H23 H 0.2684 1.2195 0.4173
C33 C 0.3383(4) 1.3939(4) 0.3961(2)
H24 H 0.3522 1.3712 0.3538
C34 C 0.3673(4) 1.5187(3) 0.4208(2)
C35 C 0.4135(4) 1.6254(3) 0.38608(19)
C36 C 0.4800(5) 1.7543(4) 0.3149(2)
H25 H 0.5076 1.7878 0.2775
C37 C 0.4604(5) 1.8152(4) 0.3685(2)
H26 H 0.4735 1.8992 0.3745
C38 C 0.1174(5) 1.0707(4) 0.1974(2)
H27 H 0.1093 1.1457 0.1943
C39 C 0.1043(6) 1.0175(5) 0.2550(3)
H28 H 0.0856 1.0545 0.2915
C40 C 0.1191(5) 0.9074(5) 0.2589(2)
H29 H 0.1145 0.8710 0.2989
C41 C 0.1407(5) 0.8530(4) 0.2021(2)
H30 H 0.1479 0.7774 0.2038
C42 C 0.1432(3) 1.0125(3) 0.14297(18)
C43 C 0.2050(4) 1.1726(3) -0.0032(2)
H31 H 0.2245 1.2394 -0.0273
C44 C 0.1875(4) 1.0541(3) -0.02688(19)
H32 H 0.1925 1.0251 -0.0708
C45 C 0.1622(3) 1.0593(3) 0.07828(17)
C46 C 0.2037(4) 1.2910(3) 0.1071(2)
H33 H 0.1982 1.3502 0.0763
H34 H 0.1298 1.2682 0.1260
C47 C 0.3327(4) 1.3570(3) 0.16891(19)
H35 H 0.3462 1.2956 0.1961
H36 H 0.4069 1.3941 0.1506
C48 C 0.3288(4) 1.4602(3) 0.2176(2)
H37 H 0.2588 1.4214 0.2386
H38 H 0.3066 1.5163 0.1890
C49 C 0.4597(4) 1.5380(4) 0.2774(2)
H39 H 0.5292 1.5805 0.2566
H40 H 0.4842 1.4817 0.3048
N1 N 0.4188(3) 1.7358(3) 0.41212(18)
N2 N 0.4515(3) 1.6338(3) 0.32605(17)
N3 N 0.3496(3) 1.5517(3) 0.48307(16)
N4 N 0.1885(3) 1.1757(3) 0.06329(15)
N5 N 0.1613(3) 0.9838(3) 0.02371(14)
N6 N 0.1517(3) 0.9038(3) 0.14487(16)
O1 O -0.0085(2) 0.6554(2) 0.03320(13)
O2 O 0.3141(3) 0.8087(2) 0.07361(15)
O3 O 0.2363(3) 0.5978(3) 0.04170(16)
O4 O 0.6208(3) 0.2763(2) 0.38504(14)
O5 O 0.4740(4) 0.0801(3) 0.32620(17)
O6 O 0.7546(3) 0.4996(2) 0.19360(14)
O7 O 0.6546(3) 0.5455(3) 0.08798(14)
O8 O -0.1863(3) 1.2907(3) -0.47016(15)
O9 O -0.3074(3) 1.0855(3) -0.49675(16)
O10 O 0.0243(3) 0.9126(3) -0.41146(15)
O11 O 0.1540(3) 0.8820(3) -0.30915(14)
C50 C 0.0566(3) 0.6555(3) -0.12039(18)
O12 O 0.1160(3) 0.7628(2) -0.07834(12)
O13 O 0.0076(3) 0.5502(2) -0.10287(13)
O14 O 0.4243(3) 0.1175(2) 0.44176(17)
H41 H 0.394(5) 0.056(3) 0.462(2)
H42 H 0.432(5) 0.092(4) 0.4025(14)
H43 H -0.017(5) 0.664(5) 0.0744(12)
Zn1A Zn -0.14101(4) 0.19426(4) -0.02943(2)
Zn1A_2 Zn 0.85899(4) 1.19426(4) 0.97057(2)
Zn2A Zn -0.61703(5) 0.74456(4) -0.48680(2)
Zn2A_2 Zn 0.38297(5) 1.74456(4) 0.51320(2)
Zn2_2 Zn -0.38297(5) 1.25544(4) -0.51320(2)
Zn2A_3 Zn 0.38297(5) -0.25544(4) 0.51320(2)
C1A C -0.3274(4) 0.2936(3) -0.06902(19)
C2A C -0.4680(3) 0.2755(3) -0.10054(18)
C3A C -0.5005(4) 0.3721(3) -0.08394(18)
H1A H -0.4351 0.4485 -0.0531
C4A C -0.6304(4) 0.3556(3) -0.11309(18)
C5A C -0.7261(4) 0.2455(4) -0.1611(2)
H2A H -0.8118 0.2367 -0.1828
C6A C -0.6945(4) 0.1480(4) -0.1770(2)
H3A H -0.7600 0.0723 -0.2084
C7A C -0.5668(4) 0.1617(3) -0.14677(19)
H4A H -0.5465 0.0950 -0.1572
C8A C -0.7679(4) 0.4645(4) -0.1287(2)
H5A H -0.8461 0.3832 -0.1392
H6A H -0.7811 0.5271 -0.1009
C9A C -0.6582(3) 0.6549(3) -0.25560(18)
H7A H -0.7067 0.5920 -0.2976
C10A C -0.6697(4) 0.6259(3) -0.1905(2)
C11A C -0.5984(4) 0.7186(4) -0.1273(2)
H8A H -0.6054 0.6989 -0.0833
C12A C -0.5169(4) 0.8407(4) -0.1313(2)
H9A H -0.4695 0.9037 -0.0894
C13A C -0.5043(4) 0.8708(3) -0.1950(2)
H10A H -0.4489 0.9536 -0.1964
C14A C -0.5755(4) 0.7764(3) -0.25891(19)
C15A C -0.5559(4) 0.8095(4) -0.3279(2)
C16A C 0.1969(4) -0.1807(4) 0.46843(19)
C17A C 0.0750(4) -0.1663(3) 0.43029(18)
C18A C -0.0393(4) -0.2717(4) 0.3850(2)
H11A H -0.0413 -0.3517 0.3801
C19A C -0.1479(4) -0.2571(4) 0.3479(2)
H12A H -0.2230 -0.3275 0.3171
C20A C -0.1484(4) -0.1410(4) 0.3553(2)
H13A H -0.2238 -0.1328 0.3303
C21A C -0.0352(4) -0.0349(4) 0.4004(2)
C22A C 0.0754(4) -0.0477(3) 0.43701(19)
H14A H 0.1513 0.0234 0.4666
C23A C -0.1379(5) 0.1075(5) 0.3808(2)
H15A H -0.1280 0.1848 0.4085
H16A H -0.2171 0.0370 0.3833
C24A C -0.0851(4) 0.2352(4) 0.29347(19)
C25A C -0.1011(4) 0.2345(3) 0.22153(18)
H17A H -0.1525 0.1580 0.1878
C26A C -0.0417(3) 0.3461(3) 0.19879(18)
C27A C 0.0346(4) 0.4601(3) 0.2496(2)
H18A H 0.0746 0.5363 0.2354
C28A C 0.0500(4) 0.4583(4) 0.3214(2)
H19A H 0.1009 0.5344 0.3555
C29A C -0.0082(4) 0.3468(4) 0.3438(2)
H20A H 0.0045 0.3473 0.3925
C30A C 0.6992(4) 0.5384(4) 0.4820(2)
H21A H 0.7133 0.5154 0.4398
C31A C 0.7303(5) 0.6639(4) 0.5042(3)
H22A H 0.7634 0.7241 0.4777
C32A C 0.7112(5) 0.6962(4) 0.5658(3)
H23A H 0.7316 0.7805 0.5827
C33A C 0.6617(4) 0.6061(4) 0.6039(2)
H24A H 0.6478 0.6288 0.6462
C34A C 0.6327(4) 0.4813(3) 0.5792(2)
C35A C 0.5865(4) 0.3746(3) 0.61392(19)
C36A C 0.5200(5) 0.2457(4) 0.6851(2)
H25A H 0.4924 0.2122 0.7225
C37A C 0.5396(5) 0.1848(4) 0.6315(2)
H26A H 0.5265 0.1008 0.6255
C38A C 0.8826(5) 0.9293(4) 0.8026(2)
H27A H 0.8907 0.8543 0.8057
C39A C 0.8957(6) 0.9825(5) 0.7450(3)
H28A H 0.9144 0.9455 0.7085
C40A C 0.8809(5) 1.0926(5) 0.7411(2)
H29A H 0.8855 1.1290 0.7011
C41A C 0.8593(5) 1.1470(4) 0.7979(2)
H30A H 0.8521 1.2226 0.7962
C42A C 0.8568(3) 0.9875(3) 0.85703(18)
C43A C 0.7950(4) 0.8274(3) 1.0032(2)
H31A H 0.7755 0.7606 1.0273
C44A C 0.8125(4) 0.9459(3) 1.02688(19)
H32A H 0.8075 0.9749 1.0708
C45A C 0.8378(3) 0.9407(3) 0.92172(17)
C46A C 0.7963(4) 0.7090(3) 0.8929(2)
H33A H 0.8018 0.6498 0.9237
H34A H 0.8702 0.7318 0.8740
C47A C 0.6673(4) 0.6430(3) 0.83109(19)
H35A H 0.6538 0.7044 0.8039
H36A H 0.5931 0.6059 0.8494
C48A C 0.6712(4) 0.5398(3) 0.7824(2)
H37A H 0.7412 0.5786 0.7614
H38A H 0.6934 0.4837 0.8110
C49A C 0.5403(4) 0.4620(4) 0.7226(2)
H39A H 0.4708 0.4195 0.7434
H40A H 0.5158 0.5183 0.6952
N1A N 0.5812(3) 0.2642(3) 0.58788(18)
N1_2 N -0.5812(3) 0.7358(3) -0.58788(18)
N2A N 0.5485(3) 0.3662(3) 0.67395(17)
N3A N 0.6504(3) 0.4483(3) 0.51693(16)
N3_2 N -0.6504(3) 0.5517(3) -0.51693(16)
N4A N 0.8115(3) 0.8243(3) 0.93671(15)
N5A N 0.8387(3) 1.0162(3) 0.97629(14)
N5A_2 N -0.1613(3) 0.0162(3) -0.02371(14)
N6A N 0.8483(3) 1.0962(3) 0.85513(16)
N6A_2 N -0.1517(3) 0.0962(3) -0.14487(16)
O1A O 0.0085(2) 0.3446(2) -0.03320(13)
O2A O -0.3141(3) 0.1913(2) -0.07361(15)
O3A O -0.2363(3) 0.4022(3) -0.04170(16)
O4A O -0.6208(3) 0.7237(2) -0.38504(14)
O5A O -0.4740(4) 0.9199(3) -0.32620(17)
O6A O -0.7546(3) 0.5004(2) -0.19360(14)
O7A O -0.6546(3) 0.4545(3) -0.08798(14)
O8A O 0.1863(3) -0.2907(3) 0.47016(15)
O8_2 O 0.8137(3) 0.2907(3) 0.52984(15)
O8A_2 O -0.8137(3) 0.7093(3) -0.52984(15)
O9A O 0.3074(3) -0.0855(3) 0.49675(16)
O10A O -0.0243(3) 0.0874(3) 0.41146(15)
O11A O -0.1540(3) 0.1180(3) 0.30915(14)
C50A C -0.0566(3) 0.3445(3) 0.12039(18)
O12A O -0.1160(3) 0.2372(2) 0.07834(12)
O13A O -0.0076(3) 0.4498(2) 0.10287(13)
O14A O -0.4243(3) 0.8825(2) -0.44176(17)
H41A H -0.394(5) 0.944(3) -0.462(2)
H42A H -0.432(5) 0.908(4) -0.4025(14)
H43A H 0.017(5) 0.336(5) -0.0744(12)
loop_
_geom_bond_atom_site_label_1
_geom_bond_atom_site_label_2
_geom_bond_site_symmetry_1
_geom_bond_site_symmetry_2
Zn1 N5 1_555 1_555
Zn2 O4 1_555 1_555
Zn3 O1 1_555 1_555
C1 C2 1_555 1_555
C2 C3 1_555 1_555
C3 H1 1_555 1_555
C4 C3 1_555 1_555
C5 C4 1_555 1_555
H2 C5 1_555 1_555
C6 C5 1_555 1_555
H3 C6 1_555 1_555
C7 C2 1_555 1_555
H4 C7 1_555 1_555
C8 H5 1_555 1_555
H6 C8 1_555 1_555
C9 H7 1_555 1_555
C10 C9 1_555 1_555
C11 C10 1_555 1_555
H8 C11 1_555 1_555
C12 C11 1_555 1_555
H9 C12 1_555 1_555
C13 C12 1_555 1_555
H10 C13 1_555 1_555
C14 C9 1_555 1_555
C15 C14 1_555 1_555
C16 C17 1_555 1_555
C17 C18 1_555 1_555
C18 H11 1_555 1_555
C19 C18 1_555 1_555
H12 C19 1_555 1_555
C20 C19 1_555 1_555
H13 C20 1_555 1_555
C21 C20 1_555 1_555
C22 C17 1_555 1_555
H14 C22 1_555 1_555
C23 H15 1_555 1_555
H16 C23 1_555 1_555
C24 C25 1_555 1_555
C25 H17 1_555 1_555
C26 C25 1_555 1_555
C27 C26 1_555 1_555
H18 C27 1_555 1_555
C28 C27 1_555 1_555
H19 C28 1_555 1_555
C29 C24 1_555 1_555
H20 C29 1_555 1_555
C30 H21 1_555 1_555
C31 C30 1_555 1_555
H22 C31 1_555 1_555
C32 C31 1_555 1_555
H23 C32 1_555 1_555
C33 C32 1_555 1_555
H24 C33 1_555 1_555
C34 C33 1_555 1_555
C35 C34 1_555 1_555
C36 H25 1_555 1_555
C37 C36 1_555 1_555
H26 C37 1_555 1_555
C38 H27 1_555 1_555
C39 C38 1_555 1_555
H28 C39 1_555 1_555
C40 C39 1_555 1_555
H29 C40 1_555 1_555
C41 C40 1_555 1_555
H30 C41 1_555 1_555
C42 C38 1_555 1_555
C43 H31 1_555 1_555
C44 C43 1_555 1_555
H32 C44 1_555 1_555
C45 C42 1_555 1_555
C46 H33 1_555 1_555
H34 C46 1_555 1_555
C47 C46 1_555 1_555
H35 C47 1_555 1_555
H36 C47 1_555 1_555
C48 C47 1_555 1_555
H37 C48 1_555 1_555
H38 C48 1_555 1_555
C49 C48 1_555 1_555
H39 C49 1_555 1_555
H40 C49 1_555 1_555
N1 C35 1_555 1_555
N2 C35 1_555 1_555
N3 C30 1_555 1_555
N4 C43 1_555 1_555
N5 C44 1_555 1_555
N6 Zn1 1_555 1_555
O1 Zn1 1_555 1_555
O2 Zn1 1_555 1_555
O3 Zn3 1_555 1_555
O4 C15 1_555 1_555
O5 C15 1_555 1_555
O6 C8 1_555 1_555
O7 C4 1_555 1_555
O8 C16 1_555 1_555
O9 C16 1_555 1_555
O10 C21 1_555 1_555
O11 C23 1_555 1_555
C50 C26 1_555 1_555
O12 Zn1 1_555 1_555
O13 Zn3 1_555 1_555
O14 Zn2 1_555 1_555
H41 O14 1_555 1_555
H42 O14 1_555 1_555
H43 O1 1_555 1_555
Zn1A N5A_2 1_555 1_555
Zn1A_2 N5A 1_555 1_555
Zn2A N1_2 1_555 1_555
Zn2A_2 N1 1_555 1_555
Zn2_2 O8 1_555 1_555
Zn2A_3 O8A 1_555 1_555
C1A C2A 1_555 1_555
C2A C3A 1_555 1_555
C3A H1A 1_555 1_555
C4A C3A 1_555 1_555
C5A C4A 1_555 1_555
H2A C5A 1_555 1_555
C6A C5A 1_555 1_555
H3A C6A 1_555 1_555
C7A C2A 1_555 1_555
H4A C7A 1_555 1_555
C8A H5A 1_555 1_555
H6A C8A 1_555 1_555
C9A H7A 1_555 1_555
C10A C9A 1_555 1_555
C11A C10A 1_555 1_555
H8A C11A 1_555 1_555
C12A C11A 1_555 1_555
H9A C12A 1_555 1_555
C13A C12A 1_555 1_555
H10A C13A 1_555 1_555
C14A C9A 1_555 1_555
C15A C14A 1_555 1_555
C16A C17A 1_555 1_555
C17A C18A 1_555 1_555
C18A H11A 1_555 1_555
C19A C18A 1_555 1_555
H12A C19A 1_555 1_555
C20A C19A 1_555 1_555
H13A C20A 1_555 1_555
C21A C20A 1_555 1_555
C22A C17A 1_555 1_555
H14A C22A 1_555 1_555
C23A H15A 1_555 1_555
H16A C23A 1_555 1_555
C24A C25A 1_555 1_555
C25A H17A 1_555 1_555
C26A C25A 1_555 1_555
C27A C26A 1_555 1_555
H18A C27A 1_555 1_555
C28A C27A 1_555 1_555
H19A C28A 1_555 1_555
C29A C24A 1_555 1_555
H20A C29A 1_555 1_555
C30A H21A 1_555 1_555
C31A C30A 1_555 1_555
H22A C31A 1_555 1_555
C32A C31A 1_555 1_555
H23A C32A 1_555 1_555
C33A C32A 1_555 1_555
H24A C33A 1_555 1_555
C34A C33A 1_555 1_555
C35A C34A 1_555 1_555
C36A H25A 1_555 1_555
C37A C36A 1_555 1_555
H26A C37A 1_555 1_555
C38A H27A 1_555 1_555
C39A C38A 1_555 1_555
H28A C39A 1_555 1_555
C40A C39A 1_555 1_555
H29A C40A 1_555 1_555
C41A C40A 1_555 1_555
H30A C41A 1_555 1_555
C42A C38A 1_555 1_555
C43A H31A 1_555 1_555
C44A C43A 1_555 1_555
H32A C44A 1_555 1_555
C45A C42A 1_555 1_555
C46A H33A 1_555 1_555
H34A C46A 1_555 1_555
C47A C46A 1_555 1_555
H35A C47A 1_555 1_555
H36A C47A 1_555 1_555
C48A C47A 1_555 1_555
H37A C48A 1_555 1_555
H38A C48A 1_555 1_555
C49A C48A 1_555 1_555
H39A C49A 1_555 1_555
H40A C49A 1_555 1_555
N1A Zn2 1_555 1_555
N2A C35A 1_555 1_555
N3A Zn2 1_555 1_555
N3_2 Zn2A 1_555 1_555
N4A C43A 1_555 1_555
N5A C44A 1_555 1_555
N6A Zn1A_2 1_555 1_555
N6A_2 Zn1A 1_555 1_555
O1A Zn3 1_555 1_555
O2A Zn1A 1_555 1_555
O3A Zn3 1_555 1_555
O4A Zn2A 1_555 1_555
O5A C15A 1_555 1_555
O6A C8A 1_555 1_555
O7A C4A 1_555 1_555
O8A C16A 1_555 1_555
O8_2 Zn2 1_555 1_555
O8A_2 Zn2A 1_555 1_555
O9A C16A 1_555 1_555
O10A C21A 1_555 1_555
O11A C23A 1_555 1_555
C50A C26A 1_555 1_555
O12A Zn1A 1_555 1_555
O13A Zn3 1_555 1_555
O14A Zn2A 1_555 1_555
H41A O14A 1_555 1_555
H42A O14A 1_555 1_555
H43A O1A 1_555 1_555
C1 O2 1_555 1_555
C1 O3 1_555 1_555
C6 C7 1_555 1_555
C8 O7 1_555 1_555
C10 O6 1_555 1_555
C13 C14 1_555 1_555
C21 C22 1_555 1_555
C23 O10 1_555 1_555
C24 O11 1_555 1_555
C28 C29 1_555 1_555
C34 N3 1_555 1_555
C36 N2 1_555 1_555
C37 N1 1_555 1_555
C41 N6 1_555 1_555
C42 N6 1_555 1_555
C45 N4 1_555 1_555
C45 N5 1_555 1_555
C46 N4 1_555 1_555
C49 N2 1_555 1_555
N3 Zn2A_2 1_555 1_555
C50 O12 1_555 1_555
C50 O13 1_555 1_555
Zn1A O1A 1_555 1_555
C1A O2A 1_555 1_555
C1A O3A 1_555 1_555
C6A C7A 1_555 1_555
C8A O7A 1_555 1_555
C10A O6A 1_555 1_555
C13A C14A 1_555 1_555
C15A O4A 1_555 1_555
C21A C22A 1_555 1_555
C23A O10A 1_555 1_555
C24A O11A 1_555 1_555
C28A C29A 1_555 1_555
C30A N3A 1_555 1_555
C34A N3A 1_555 1_555
C35A N1A 1_555 1_555
C36A N2A 1_555 1_555
C37A N1A 1_555 1_555
C41A N6A 1_555 1_555
C42A N6A 1_555 1_555
C45A N4A 1_555 1_555
C45A N5A 1_555 1_555
C46A N4A 1_555 1_555
C49A N2A 1_555 1_555
C50A O12A 1_555 1_555
C50A O13A 1_555 1_555

#END
