
#######################################################################
#
#                 Cambridge Crystallographic Data Centre
#                                CCDC 
#
#######################################################################
#
# If this CIF has been generated from an entry in the Cambridge 
# Structural Database, then it will include bibliographic, chemical, 
# crystal, experimental, refinement or atomic coordinate data resulting 
# from the CCDC's data processing and validation procedures.
#
#######################################################################

data_TONGEJ
_symmetry_cell_setting           monoclinic
_symmetry_space_group_name_H-M   'P 21/n'
_symmetry_Int_Tables_number      14
_space_group_name_Hall           '-P 2yn'
loop_
_symmetry_equiv_pos_site_id
_symmetry_equiv_pos_as_xyz
1 x,y,z
2 1/2-x,1/2+y,1/2-z
3 -x,-y,-z
4 1/2+x,1/2-y,1/2+z
_cell_length_a                   7.1680(3)
_cell_length_b                   24.8870(6)
_cell_length_c                   15.4390(7)
_cell_angle_alpha                90
_cell_angle_beta                 91.014(1)
_cell_angle_gamma                90
_cell_volume                     2753.73
loop_
_atom_site_label
_atom_site_type_symbol
_atom_site_fract_x
_atom_site_fract_y
_atom_site_fract_z
Cd1 Cd 0.59990(3) 0.189234(8) 0.280644(13)
O1 O 0.6536(3) 0.12785(10) 0.39255(16)
N1 N 0.1591(3) 0.25653(10) 0.43915(17)
O2 O 2.5697(3) 0.14790(10) 1.13984(15)
O3 O 2.3222(3) 0.16012(12) 1.21794(15)
O4 O 0.8902(3) 0.14554(11) 0.31015(16)
N2 N 0.4147(3) 0.24183(11) 0.36697(16)
N3 N -0.7208(3) 0.23912(11) 0.74221(17)
O5 O 1.5469(4) 0.02804(11) 0.77671(19)
O6 O 1.3323(4) 0.03191(12) 0.61672(18)
N4 N -0.4647(4) 0.19983(11) 0.69947(19)
O7 O 1.9798(4) 0.04570(14) 0.8811(2)
C1 C 2.3985(4) 0.14315(12) 1.15083(19)
C2 C 1.1979(5) 0.05240(14) 0.5608(2)
C3 C -0.2709(5) 0.19409(15) 0.6690(2)
H1 H -0.1860 0.2117 0.7096
H2 H -0.2382 0.1563 0.6670
C4 C 0.8223(4) 0.12396(12) 0.37543(19)
C5 C 0.9521(4) 0.09579(12) 0.4380(2)
C6 C 2.2794(5) 0.11666(13) 1.0826(2)
C7 C -0.7420(5) 0.18485(14) 0.7471(3)
H3 H -0.8486 0.1674 0.7659
C8 C -0.2493(5) 0.21840(16) 0.5805(2)
H4 H -0.3172 0.1967 0.5383
H5 H -0.3035 0.2541 0.5800
C9 C 0.2401(4) 0.22690(13) 0.37838(19)
H6 H 0.1811 0.1993 0.3480
C10 C 1.0085(5) 0.05411(14) 0.5773(2)
H7 H 0.9634 0.0407 0.6291
C11 C 0.4444(4) 0.28329(14) 0.4239(2)
H8 H 0.5558 0.3021 0.4304
C12 C 0.2883(5) 0.29288(14) 0.4691(2)
H9 H 0.2719 0.3188 0.5117
C13 C 1.2650(5) 0.07114(15) 0.4831(2)
H10 H 1.3920 0.0697 0.4720
C14 C 1.7918(6) 0.0453(2) 0.8815(3)
H11 H 1.7435 0.0817 0.8813
H12 H 1.7475 0.0270 0.9327
C15 C -0.0449(4) 0.22213(14) 0.5544(2)
H13 H 0.0075 0.1863 0.5494
H14 H 0.0262 0.2415 0.5983
C16 C 2.0906(5) 0.10876(13) 1.0942(2)
H15 H 2.0356 0.1193 1.1455
C17 C 1.4427(6) -0.01465(15) 0.7393(3)
H16 H 1.4047 -0.0396 0.7839
H17 H 1.5182 -0.0340 0.6980
C18 C -0.0327(4) 0.25104(15) 0.4686(2)
H18 H -0.0874 0.2865 0.4741
H19 H -0.1049 0.2314 0.4253
C19 C 1.1422(5) 0.09204(13) 0.4220(2)
H20 H 1.1873 0.1039 0.3692
C20 C 2.2562(7) 0.07628(18) 0.9413(3)
H21 H 2.3127 0.0648 0.8908
C21 C 0.8863(5) 0.07599(13) 0.5159(2)
H22 H 0.7593 0.0774 0.5270
C22 C 2.3599(6) 0.09992(16) 1.0060(2)
H23 H 2.4872 0.1049 0.9986
C23 C 1.9823(5) 0.08478(15) 1.0282(3)
H24 H 1.8553 0.0790 1.0352
C24 C -0.5515(4) 0.24654(13) 0.7130(2)
H25 H -0.4988 0.2801 0.7030
C25 C 2.0697(7) 0.06970(16) 0.9516(2)
C26 C 1.2735(6) 0.00883(16) 0.6942(2)
H26 H 1.1822 -0.0191 0.6823
H27 H 1.2167 0.0359 0.7305
C27 C -0.5849(5) 0.15988(15) 0.7204(3)
H28 H -0.5639 0.1231 0.7171
C28 C 1.7271(6) 0.0150(2) 0.7980(3)
H29 H 1.8079 0.0244 0.7506
H30 H 1.7366 -0.0235 0.8075
Cd1_2 Cd 2.59990(3) 0.189234(8) 1.280644(13)
Cd1C Cd -0.90010(3) 0.310766(8) 0.780644(13)
O2_2 O 0.5697(3) 0.14790(10) 0.13984(15)
O3_2 O 0.3222(3) 0.16012(12) 0.21794(15)
N3C N 0.7792(3) 0.26088(11) 0.24221(17)
loop_
_geom_bond_atom_site_label_1
_geom_bond_atom_site_label_2
_geom_bond_site_symmetry_1
_geom_bond_site_symmetry_2
Cd1 O1 1_555 1_555
O1 C4 1_555 1_555
N1 C9 1_555 1_555
O2 C1 1_555 1_555
O3 C1 1_555 1_555
O4 Cd1 1_555 1_555
N2 Cd1 1_555 1_555
N3 C7 1_555 1_555
O5 C17 1_555 1_555
O6 C2 1_555 1_555
N4 C3 1_555 1_555
O7 C14 1_555 1_555
C1 C6 1_555 1_555
C2 C10 1_555 1_555
C3 H1 1_555 1_555
H2 C3 1_555 1_555
C4 O4 1_555 1_555
C5 C4 1_555 1_555
C6 C16 1_555 1_555
C7 H3 1_555 1_555
C8 C3 1_555 1_555
H4 C8 1_555 1_555
H5 C8 1_555 1_555
C9 N2 1_555 1_555
H6 C9 1_555 1_555
C10 H7 1_555 1_555
C11 N2 1_555 1_555
H8 C11 1_555 1_555
C12 N1 1_555 1_555
H9 C12 1_555 1_555
C13 C2 1_555 1_555
H10 C13 1_555 1_555
C14 H11 1_555 1_555
H12 C14 1_555 1_555
C15 C8 1_555 1_555
H13 C15 1_555 1_555
H14 C15 1_555 1_555
C16 H15 1_555 1_555
C17 H16 1_555 1_555
H17 C17 1_555 1_555
C18 N1 1_555 1_555
H18 C18 1_555 1_555
H19 C18 1_555 1_555
C19 C5 1_555 1_555
H20 C19 1_555 1_555
C20 H21 1_555 1_555
C21 C5 1_555 1_555
H22 C21 1_555 1_555
C22 C6 1_555 1_555
H23 C22 1_555 1_555
C23 C16 1_555 1_555
H24 C23 1_555 1_555
C24 N3 1_555 1_555
H25 C24 1_555 1_555
C25 O7 1_555 1_555
C26 O6 1_555 1_555
H26 C26 1_555 1_555
H27 C26 1_555 1_555
C27 N4 1_555 1_555
H28 C27 1_555 1_555
C28 O5 1_555 1_555
H29 C28 1_555 1_555
H30 C28 1_555 1_555
Cd1_2 O2 1_555 1_555
Cd1C N3 1_555 1_555
O2_2 Cd1 1_555 1_555
O3_2 Cd1 1_555 1_555
N3C Cd1 1_555 1_555
O3 Cd1_2 1_555 1_555
N4 C24 1_555 1_555
C7 C27 1_555 1_555
C10 C21 1_555 1_555
C11 C12 1_555 1_555
C13 C19 1_555 1_555
C14 C28 1_555 1_555
C15 C18 1_555 1_555
C17 C26 1_555 1_555
C20 C22 1_555 1_555
C20 C25 1_555 1_555
C23 C25 1_555 1_555

#END
