
#######################################################################
#
#                 Cambridge Crystallographic Data Centre
#                                CCDC 
#
#######################################################################
#
# If this CIF has been generated from an entry in the Cambridge 
# Structural Database, then it will include bibliographic, chemical, 
# crystal, experimental, refinement or atomic coordinate data resulting 
# from the CCDC's data processing and validation procedures.
#
#######################################################################

data_TONLUF
_symmetry_cell_setting           monoclinic
_symmetry_space_group_name_H-M   'P 21/n'
_symmetry_Int_Tables_number      14
_space_group_name_Hall           '-P 2yn'
loop_
_symmetry_equiv_pos_site_id
_symmetry_equiv_pos_as_xyz
1 x,y,z
2 1/2-x,1/2+y,1/2-z
3 -x,-y,-z
4 1/2+x,1/2-y,1/2+z
_cell_length_a                   9.9912(3)
_cell_length_b                   21.7677(9)
_cell_length_c                   10.2461(4)
_cell_angle_alpha                90
_cell_angle_beta                 91.975(3)
_cell_angle_gamma                90
_cell_volume                     2227.05
loop_
_atom_site_label
_atom_site_type_symbol
_atom_site_fract_x
_atom_site_fract_y
_atom_site_fract_z
Cd1 Cd 0.87855(2) 0.560335(12) 0.74593(2)
O1 O 0.9110(3) 0.46117(12) 0.7958(3)
O2 O 1.1467(3) 0.41251(18) 0.6730(3)
H1 H 1.0679(18) 0.421(2) 0.646(4)
H2 H 1.192(4) 0.410(3) 0.604(3)
O3 O 0.7703(2) 0.46638(12) 0.9599(2)
O4 O 1.4485(3) 0.47659(16) 0.8614(4)
H3 H 1.482(4) 0.4408(8) 0.865(6)
H4 H 1.5095(15) 0.4991(15) 0.831(5)
O5 O 0.6362(2) 0.37107(13) 0.7587(2)
O6 O 0.9757(2) 0.42243(15) 0.4150(3)
O7 O 0.8515(2) 0.45299(13) 0.2458(2)
O8 O 0.3590(2) 0.44869(15) 0.2618(3)
O9 O 0.2640(2) 0.41314(15) 0.4330(3)
O10 O 1.0577(3) 0.33903(14) 1.1637(3)
O11 O 1.0678(2) 0.41835(12) 1.0310(3)
O12 O 1.3208(4) 0.36660(16) 0.9180(4)
N1 N 1.4509(5) 0.2920(2) 0.9999(5)
C1 C 0.8403(3) 0.43762(17) 0.8838(3)
C2 C 0.8413(3) 0.36821(16) 0.8874(3)
C3 C 0.9323(3) 0.33339(17) 0.9623(3)
C4 C 0.9273(4) 0.26980(18) 0.9557(4)
H5 H 0.9864 0.2465 1.0074
C5 C 0.8355(4) 0.24076(19) 0.8732(4)
H6 H 0.8368 0.1982 0.8655
C6 C 0.7425(4) 0.27432(19) 0.8026(4)
H7 H 0.6788 0.2548 0.7488
C7 C 0.7445(3) 0.33727(18) 0.8123(3)
C8 C 0.6358(3) 0.38774(17) 0.6285(3)
C9 C 0.5104(3) 0.39750(17) 0.5697(3)
H8 H 0.4334 0.3908 0.6161
C10 C 0.7513(3) 0.39789(17) 0.5613(3)
H9 H 0.8349 0.3912 0.6016
C11 C 0.7413(3) 0.41813(17) 0.4331(3)
C12 C 0.6160(3) 0.42713(17) 0.3737(3)
H10 H 0.6095 0.4399 0.2871
C13 C 0.5010(3) 0.41742(17) 0.4410(3)
C14 C 0.3662(3) 0.42774(17) 0.3752(4)
C15 C 0.8642(3) 0.43209(18) 0.3597(4)
C16 C 1.0269(3) 0.36452(18) 1.0582(4)
C17 C 1.3581(5) 0.3121(3) 0.9213(6)
C18 C 1.2901(6) 0.2653(3) 0.8266(7)
H11 H 1.2229 0.2858 0.7733
H12 H 1.2491 0.2333 0.8759
H13 H 1.3561 0.2477 0.7717
C19 C 1.5180(6) 0.3362(3) 1.0891(6)
H14 H 1.4831 0.3766 1.0724
H15 H 1.6126 0.3359 1.0752
H16 H 1.5022 0.3248 1.1778
C20 C 1.4917(5) 0.2274(2) 1.0102(6)
H17 H 1.4413 0.2035 0.9469
H18 H 1.4751 0.2125 1.0963
H19 H 1.5855 0.2240 0.9940
Ca1 Ca 1.20996(9) 0.46020(4) 0.87577(7)
Cd1B Cd 0.12145(2) 0.439665(12) 0.25407(2)
Cd1B_2 Cd 1.12145(2) 0.439665(12) 0.25407(2)
Cd1B_3 Cd 1.12145(2) 0.439665(12) 1.25407(2)
O3B O 1.2297(2) 0.53362(12) 1.0401(2)
O6B O 1.0243(2) 0.57757(15) 0.5850(3)
O7B O 1.1485(2) 0.54701(13) 0.7542(2)
O8B O 0.6410(2) 0.55131(15) 0.7382(3)
O9B O 0.7360(2) 0.58686(15) 0.5670(3)
O10B O 0.9423(3) 0.66097(14) 0.8363(3)
O11B O 0.9322(2) 0.58165(12) 0.9690(3)
Ca1B Ca 0.79004(9) 0.53980(4) 0.12423(7)
Ca1B_2 Ca 0.79004(9) 0.53980(4) 1.12423(7)
loop_
_geom_bond_atom_site_label_1
_geom_bond_atom_site_label_2
_geom_bond_site_symmetry_1
_geom_bond_site_symmetry_2
Cd1 O1 1_555 1_555
O1 C1 1_555 1_555
O2 H1 1_555 1_555
H2 O2 1_555 1_555
O3 C1 1_555 1_555
O4 H3 1_555 1_555
H4 O4 1_555 1_555
O5 C7 1_555 1_555
O6 C15 1_555 1_555
O7 C15 1_555 1_555
O8 C14 1_555 1_555
O9 C14 1_555 1_555
O10 C16 1_555 1_555
O11 C16 1_555 1_555
O12 C17 1_555 1_555
N1 C17 1_555 1_555
C1 C2 1_555 1_555
C2 C3 1_555 1_555
C3 C4 1_555 1_555
C4 H5 1_555 1_555
C5 C4 1_555 1_555
H6 C5 1_555 1_555
C6 C5 1_555 1_555
H7 C6 1_555 1_555
C7 C2 1_555 1_555
C8 O5 1_555 1_555
C9 C8 1_555 1_555
H8 C9 1_555 1_555
C10 C8 1_555 1_555
H9 C10 1_555 1_555
C11 C10 1_555 1_555
C12 C11 1_555 1_555
H10 C12 1_555 1_555
C13 C9 1_555 1_555
C14 C13 1_555 1_555
C15 C11 1_555 1_555
C16 C3 1_555 1_555
C17 C18 1_555 1_555
C18 H11 1_555 1_555
H12 C18 1_555 1_555
H13 C18 1_555 1_555
C19 N1 1_555 1_555
H14 C19 1_555 1_555
H15 C19 1_555 1_555
H16 C19 1_555 1_555
C20 N1 1_555 1_555
H17 C20 1_555 1_555
H18 C20 1_555 1_555
H19 C20 1_555 1_555
Ca1 O2 1_555 1_555
Cd1B O8 1_555 1_555
Cd1B_2 O6 1_555 1_555
Cd1B_3 O10 1_555 1_555
O3B Ca1 1_555 1_555
O6B Cd1 1_555 1_555
O7B Cd1 1_555 1_555
O8B Cd1 1_555 1_555
O9B Cd1 1_555 1_555
O10B Cd1 1_555 1_555
O11B Cd1 1_555 1_555
Ca1B O7 1_555 1_555
Ca1B_2 O3 1_555 1_555
O4 Ca1 1_555 1_555
O7 Cd1B_2 1_555 1_555
O9 Cd1B 1_555 1_555
O11 Ca1 1_555 1_555
O11 Cd1B_3 1_555 1_555
O12 Ca1 1_555 1_555
C6 C7 1_555 1_555
C12 C13 1_555 1_555
Ca1 O7B 1_555 1_555
O11B Ca1B_2 1_555 1_555

#END
