
#######################################################################
#
#                 Cambridge Crystallographic Data Centre
#                                CCDC 
#
#######################################################################
#
# If this CIF has been generated from an entry in the Cambridge 
# Structural Database, then it will include bibliographic, chemical, 
# crystal, experimental, refinement or atomic coordinate data resulting 
# from the CCDC's data processing and validation procedures.
#
#######################################################################

data_TONLOZ
_symmetry_cell_setting           monoclinic
_symmetry_space_group_name_H-M   'P 21/n'
_symmetry_Int_Tables_number      14
_space_group_name_Hall           '-P 2yn'
loop_
_symmetry_equiv_pos_site_id
_symmetry_equiv_pos_as_xyz
1 x,y,z
2 1/2-x,1/2+y,1/2-z
3 -x,-y,-z
4 1/2+x,1/2-y,1/2+z
_cell_length_a                   12.0047(7)
_cell_length_b                   10.9563(7)
_cell_length_c                   21.0767(15)
_cell_angle_alpha                90
_cell_angle_beta                 106.389(7)
_cell_angle_gamma                90
_cell_volume                     2659.52
loop_
_atom_site_label
_atom_site_type_symbol
_atom_site_fract_x
_atom_site_fract_y
_atom_site_fract_z
Cd1 Cd 0.63605(2) 1.68064(3) -0.039712(14)
Ca1 Ca 0.35622(6) 1.55455(8) -0.12728(4)
O1 O 0.6272(2) 1.7688(3) -0.13490(14)
O2 O 0.4381(2) 1.7243(3) -0.16496(15)
O3 O 0.2204(2) 1.8812(3) -0.40912(15)
O4 O 0.3097(2) 1.7736(3) -0.46972(14)
O5 O 0.7319(2) 1.8495(3) -0.34110(15)
O6 O 0.9634(2) 1.9686(3) -0.39303(16)
O7 O 0.7819(3) 2.0004(3) -0.45050(17)
O8 O 1.0417(3) 1.6771(3) -0.49329(16)
O9 O 0.9441(3) 1.8487(3) -0.52188(15)
O10 O 0.3144(3) 1.4925(4) -0.23725(17)
O11 O 0.1819(3) 1.6488(4) -0.1385(2)
N1 N 0.3842(11) 1.4840(6) -0.3233(4)
N2 N 0.0087(4) 1.6584(5) -0.1236(3)
C1 C 0.5283(3) 1.7624(4) -0.1764(2)
C2 C 0.5227(3) 1.7997(4) -0.24616(19)
C3 C 0.4188(3) 1.8068(4) -0.2959(2)
H1 H 0.3489 1.8005 -0.2854
C4 C 0.4182(3) 1.8231(4) -0.36094(19)
C5 C 0.5231(3) 1.8329(4) -0.3768(2)
H2 H 0.5234 1.8399 -0.4207
C6 C 0.6258(3) 1.8322(4) -0.3272(2)
C7 C 0.6273(3) 1.8165(4) -0.2618(2)
H3 H 0.6973 1.8170 -0.2286
C8 C 0.3078(4) 1.8259(4) -0.4170(2)
C9 C 0.7656(3) 1.7604(4) -0.3787(2)
C10 C 0.8363(3) 1.7986(4) -0.4171(2)
C11 C 0.8816(3) 1.7111(4) -0.4507(2)
C12 C 0.8574(4) 1.5881(5) -0.4454(3)
H4 H 0.8903 1.5298 -0.4667
C13 C 0.7841(4) 1.5526(5) -0.4083(3)
H5 H 0.7657 1.4706 -0.4061
C14 C 0.7384(4) 1.6383(5) -0.3747(3)
H6 H 0.6897 1.6142 -0.3497
C15 C 0.8628(4) 1.9320(4) -0.4205(2)
C16 C 0.9596(4) 1.7470(4) -0.4916(2)
C17 C 0.1783(6) 1.5015(8) -0.3491(3)
H7 H 0.1831 1.4997 -0.3938
H8 H 0.1430 1.5767 -0.3415
H9 H 0.1321 1.4341 -0.3420
C18 C 0.3141(9) 1.4911(6) -0.2959(5)
C19 C 0.3899(8) 1.4846(8) -0.3937(4)
H10 H 0.3127 1.4884 -0.4232
H11 H 0.4274 1.4114 -0.4022
H12 H 0.4334 1.5544 -0.4008
C20 C 0.5092(6) 1.4786(7) -0.2710(4)
H13 H 0.5010 1.4788 -0.2270
H14 H 0.5538 1.5483 -0.2768
H15 H 0.5483 1.4053 -0.2778
C21 C 0.0742(5) 1.6518(5) -0.1612(3)
C22 C 0.0181(7) 1.6464(7) -0.2357(3)
H16 H 0.0775 1.6416 -0.2580
H17 H -0.0276 1.7185 -0.2497
H18 H -0.0308 1.5757 -0.2462
C23 C 0.0652(7) 1.6581(8) -0.0503(3)
H19 H 0.1481 1.6574 -0.0419
H20 H 0.0413 1.5869 -0.0311
H21 H 0.0424 1.7300 -0.0310
C24 C -0.1184(5) 1.6604(7) -0.1447(5)
H22 H -0.1454 1.6603 -0.1922
H23 H -0.1456 1.7326 -0.1280
H24 H -0.1476 1.5895 -0.1279
Cd1A Cd 0.86395(2) 2.18064(3) -0.460288(14)
Cd1C Cd 0.13605(2) 1.81936(3) -0.539712(14)
Cd1C_2 Cd 1.13605(2) 1.81936(3) -0.539712(14)
Ca1A Ca 0.14378(6) 2.05455(8) -0.37272(4)
Ca1A_2 Ca 1.14378(6) 2.05455(8) -0.37272(4)
Ca1C Ca 0.85622(6) 1.94545(8) -0.62728(4)
O3A O 0.2796(2) 1.3812(3) -0.09088(15)
O3C O 0.7204(2) 1.6188(3) 0.09088(15)
O4C O 0.8097(2) 1.7264(3) 0.03028(14)
O6A O 0.5366(2) 1.4686(3) -0.10697(16)
O7A O 0.7181(3) 1.5004(3) -0.04950(17)
O8C O 0.5417(3) 1.8229(3) 0.00671(16)
O9C O 0.4441(3) 1.6513(3) -0.02188(15)
loop_
_geom_bond_atom_site_label_1
_geom_bond_atom_site_label_2
_geom_bond_site_symmetry_1
_geom_bond_site_symmetry_2
Cd1 O1 1_555 1_555
Ca1 O2 1_555 1_555
O1 C1 1_555 1_555
O2 C1 1_555 1_555
O3 C8 1_555 1_555
O4 C8 1_555 1_555
O5 C6 1_555 1_555
O6 C15 1_555 1_555
O7 C15 1_555 1_555
O8 C16 1_555 1_555
O9 C16 1_555 1_555
O10 Ca1 1_555 1_555
O11 Ca1 1_555 1_555
N1 C18 1_555 1_555
N2 C21 1_555 1_555
C1 C2 1_555 1_555
C2 C3 1_555 1_555
C3 H1 1_555 1_555
C4 C3 1_555 1_555
C5 C4 1_555 1_555
H2 C5 1_555 1_555
C6 C5 1_555 1_555
C7 C2 1_555 1_555
H3 C7 1_555 1_555
C8 C4 1_555 1_555
C9 O5 1_555 1_555
C10 C9 1_555 1_555
C11 C10 1_555 1_555
C12 C11 1_555 1_555
H4 C12 1_555 1_555
C13 C12 1_555 1_555
H5 C13 1_555 1_555
C14 C9 1_555 1_555
H6 C14 1_555 1_555
C15 C10 1_555 1_555
C16 C11 1_555 1_555
C17 H7 1_555 1_555
H8 C17 1_555 1_555
H9 C17 1_555 1_555
C18 O10 1_555 1_555
C19 N1 1_555 1_555
H10 C19 1_555 1_555
H11 C19 1_555 1_555
H12 C19 1_555 1_555
C20 N1 1_555 1_555
H13 C20 1_555 1_555
H14 C20 1_555 1_555
H15 C20 1_555 1_555
C21 O11 1_555 1_555
C22 C21 1_555 1_555
H16 C22 1_555 1_555
H17 C22 1_555 1_555
H18 C22 1_555 1_555
C23 N2 1_555 1_555
H19 C23 1_555 1_555
H20 C23 1_555 1_555
H21 C23 1_555 1_555
C24 N2 1_555 1_555
H22 C24 1_555 1_555
H23 C24 1_555 1_555
H24 C24 1_555 1_555
Cd1A O6 1_555 1_555
Cd1C O3 1_555 1_555
Cd1C_2 O8 1_555 1_555
Ca1A O3 1_555 1_555
Ca1A_2 O6 1_555 1_555
Ca1C O9 1_555 1_555
O3A Ca1 1_555 1_555
O3C Cd1 1_555 1_555
O4C Cd1 1_555 1_555
O6A Cd1 1_555 1_555
O7A Cd1 1_555 1_555
O8C Cd1 1_555 1_555
O9C Cd1 1_555 1_555
Ca1 O6A 1_555 1_555
Ca1 O9C 1_555 1_555
O4 Cd1C 1_555 1_555
O7 Cd1A 1_555 1_555
O9 Cd1C_2 1_555 1_555
C6 C7 1_555 1_555
C13 C14 1_555 1_555
C17 C18 1_555 1_555

#END
