
#######################################################################
#
#                 Cambridge Crystallographic Data Centre
#                                CCDC 
#
#######################################################################
#
# If this CIF has been generated from an entry in the Cambridge 
# Structural Database, then it will include bibliographic, chemical, 
# crystal, experimental, refinement or atomic coordinate data resulting 
# from the CCDC's data processing and validation procedures.
#
#######################################################################

data_TOPMIU
_symmetry_cell_setting           monoclinic
_symmetry_space_group_name_H-M   'C 2'
_symmetry_Int_Tables_number      5
_space_group_name_Hall           'C 2y'
loop_
_symmetry_equiv_pos_site_id
_symmetry_equiv_pos_as_xyz
1 x,y,z
2 -x,y,-z
3 1/2+x,1/2+y,z
4 1/2-x,1/2+y,-z
_cell_length_a                   17.482(6)
_cell_length_b                   12.963(5)
_cell_length_c                   6.559(2)
_cell_angle_alpha                90
_cell_angle_beta                 112.04
_cell_angle_gamma                90
_cell_volume                     1377.77
loop_
_atom_site_label
_atom_site_type_symbol
_atom_site_fract_x
_atom_site_fract_y
_atom_site_fract_z
Co1 Co 0.5000 0.8448(1) 0.5000
Co2 Co 0.7582(1) 0.1324(1) 0.7846(1)
O1 O 0.5572(1) 0.8501(2) 0.8500(4)
O2 O 0.4167(2) 0.9410(2) 0.5385(4)
O3 O 0.6780(1) 0.0264(2) 0.8423(4)
O4 O 0.7346(1) 0.0660(2) 0.4693(3)
O5 O 0.8404(1) 0.2430(2) 0.7475(4)
O6 O 0.7785(1) 0.1956(2) 1.1015(4)
O7 O 0.5649(1) 0.7019(2) 0.5213(4)
O8 O 0.6575(1) 0.2274(2) 0.6468(4)
O9 O 0.7158(1) 0.3720(2) 0.5917(4)
O10 O 0.8532(1) 0.0272(1) 0.9023(4)
O11 O 0.2143(1) -0.1164(2) 0.0830(4)
O12 O -0.0688(1) -0.4545(2) -0.0651(4)
C1 C 0.5000 0.6514(3) 0.5000
C2 C 0.5000 0.5381(3) 0.5000
C3 C 0.5729(2) 0.4841(2) 0.5396(4)
C4 C 0.5738(2) 0.3770(2) 0.5426(4)
C5 C 0.5000 0.3231(3) 0.5000
C6 C 0.6553(2) 0.3212(2) 0.5977(4)
C7 C 0.1511(2) -0.0690(2) 0.0774(4)
C8 C 0.0734(2) -0.1295(2) 0.0397(4)
C9 C 0.0000 -0.0758(3) 0.0000
C10 C -0.0734(2) -0.2368(2) -0.0401(4)
C11 C 0.0000 -0.2911(3) 0.0000
C12 C 0.0000 -0.4071(3) 0.0000
H1 H 0.5698(22) 0.9082(17) 0.9472(47)
H2 H 0.5252(22) 0.8055(20) 0.9037(55)
H3 H 0.3907(27) 0.9866(26) 0.4171(41)
H4 H 0.4179(30) 0.9791(28) 0.6648(39)
H5 H 0.7108(17) -0.0334(16) 0.9028(45)
H6 H 0.6454(17) 0.0355(23) 0.9301(43)
H7 H 0.7462(20) -0.0057(7) 0.4600(51)
H8 H 0.6908(15) 0.0810(21) 0.3321(28)
H9 H 0.8736(18) 0.2266(23) 0.6642(45)
H10 H 0.8071(17) 0.2999(19) 0.6707(46)
H11 H 0.8320(10) 0.1875(24) 1.2147(43)
H12 H 0.7642(19) 0.2661(9) 1.1134(56)
H13 H 0.6216(2) 0.5200(2) 0.5643(4)
H14 H 0.5000 0.2513(3) 0.5000
H15 H 0.0000 -0.0041(3) 0.0000
H16 H 0.1224(2) -0.2726(2) 0.0670(4)
O1A O 0.4428(1) 0.8501(2) 0.1500(4)
H1A H 0.4302(22) 0.9082(17) 0.0528(47)
H2A H 0.4748(22) 0.8055(20) 0.0963(55)
O2A O 0.5833(2) 0.9410(2) 0.4615(4)
H3A H 0.6093(27) 0.9866(26) 0.5829(41)
H4A H 0.5821(30) 0.9791(28) 0.3352(39)
O7A O 0.4351(1) 0.7019(2) 0.4787(4)
C4A C 0.4262(2) 0.3770(2) 0.4574(4)
C3A C 0.4271(2) 0.4841(2) 0.4604(4)
H13A H 0.3784(2) 0.5200(2) 0.4357(4)
C6A C 0.3447(2) 0.3212(2) 0.4023(4)
O8A O 0.3425(1) 0.2274(2) 0.3532(4)
Co2A Co 0.2418(1) 0.1324(1) 0.2154(1)
O3A O 0.3220(1) 0.0264(2) 0.1577(4)
H5A H 0.2892(17) -0.0334(16) 0.0972(45)
H6A H 0.3546(17) 0.0355(23) 0.0699(43)
O4A O 0.2654(1) 0.0660(2) 0.5307(3)
H7A H 0.2538(20) -0.0057(7) 0.5400(51)
H8A H 0.3092(15) 0.0810(21) 0.6679(28)
O5A O 0.1596(1) 0.2430(2) 0.2525(4)
H9A H 0.1264(18) 0.2266(23) 0.3358(45)
H10A H 0.1929(17) 0.2999(19) 0.3293(46)
O6A O 0.2215(1) 0.1956(2) -0.1015(4)
H11A H 0.1680(10) 0.1875(24) -0.2147(43)
H12A H 0.2358(19) 0.2661(9) -0.1134(56)
O10A O 0.1468(1) 0.0272(1) 0.0977(4)
C8A C -0.0734(2) -0.1295(2) -0.0397(4)
C7A C -0.1511(2) -0.0690(2) -0.0774(4)
O10_2 O -0.1468(1) 0.0272(1) -0.0977(4)
Co2_2 Co -0.2418(1) 0.1324(1) -0.2154(1)
O11A O -0.2143(1) -0.1164(2) -0.0830(4)
C10A C 0.0734(2) -0.2368(2) 0.0401(4)
O12A O 0.0688(1) -0.4545(2) 0.0651(4)
H16A H -0.1224(2) -0.2726(2) -0.0670(4)
O9A O 0.2842(1) 0.3720(2) 0.4083(4)
loop_
_geom_bond_atom_site_label_1
_geom_bond_atom_site_label_2
_geom_bond_site_symmetry_1
_geom_bond_site_symmetry_2
Co1 O1 1_555 1_555
Co2 O3 1_555 1_555
O1 H1 1_555 1_555
O2 Co1 1_555 1_555
O3 H5 1_555 1_555
O4 Co2 1_555 1_555
O5 Co2 1_555 1_555
O6 Co2 1_555 1_555
O7 Co1 1_555 1_555
O8 Co2 1_555 1_555
O9 C6 1_555 1_555
O10 Co2 1_555 1_555
O11 C7 1_555 1_555
O12 C12 1_555 1_555
C1 O7 1_555 1_555
C2 C1 1_555 1_555
C3 C2 1_555 1_555
C4 C3 1_555 1_555
C5 C4 1_555 1_555
C6 O8 1_555 1_555
C7 C8 1_555 1_555
C8 C9 1_555 1_555
C9 H15 1_555 1_555
C10 C11 1_555 1_555
C11 C12 1_555 1_555
C12 O12A 1_555 1_555
H2 O1 1_555 1_555
H3 O2 1_555 1_555
H4 O2 1_555 1_555
H6 O3 1_555 1_555
H7 O4 1_555 1_555
H8 O4 1_555 1_555
H9 O5 1_555 1_555
H10 O5 1_555 1_555
H11 O6 1_555 1_555
H12 O6 1_555 1_555
H13 C3 1_555 1_555
H14 C5 1_555 1_555
H16 C10A 1_555 1_555
O1A Co1 1_555 1_555
H1A O1A 1_555 1_555
H2A O1A 1_555 1_555
O2A Co1 1_555 1_555
H3A O2A 1_555 1_555
H4A O2A 1_555 1_555
O7A Co1 1_555 1_555
C4A C5 1_555 1_555
C3A C2 1_555 1_555
H13A C3A 1_555 1_555
C6A C4A 1_555 1_555
O8A C6A 1_555 1_555
Co2A O8A 1_555 1_555
O3A Co2A 1_555 1_555
H5A O3A 1_555 1_555
H6A O3A 1_555 1_555
O4A Co2A 1_555 1_555
H7A O4A 1_555 1_555
H8A O4A 1_555 1_555
O5A Co2A 1_555 1_555
H9A O5A 1_555 1_555
H10A O5A 1_555 1_555
O6A Co2A 1_555 1_555
H11A O6A 1_555 1_555
H12A O6A 1_555 1_555
O10A C7 1_555 1_555
C8A C9 1_555 1_555
C7A C8A 1_555 1_555
O10_2 C7A 1_555 1_555
Co2_2 O10_2 1_555 1_555
O11A C7A 1_555 1_555
C10A C8 1_555 1_555
H16A C10 1_555 1_555
O9A C6A 1_555 1_555
C1 O7A 1_555 1_555
C4 C6 1_555 1_555
C10 C8A 1_555 1_555
C11 C10A 1_555 1_555
C4A C3A 1_555 1_555
Co2A O10A 1_555 1_555

#END
