
#######################################################################
#
#                 Cambridge Crystallographic Data Centre
#                                CCDC 
#
#######################################################################
#
# If this CIF has been generated from an entry in the Cambridge 
# Structural Database, then it will include bibliographic, chemical, 
# crystal, experimental, refinement or atomic coordinate data resulting 
# from the CCDC's data processing and validation procedures.
#
#######################################################################

data_TOPPEV
_symmetry_cell_setting           monoclinic
_symmetry_space_group_name_H-M   'P 21/n'
_symmetry_Int_Tables_number      14
_space_group_name_Hall           '-P 2yn'
loop_
_symmetry_equiv_pos_site_id
_symmetry_equiv_pos_as_xyz
1 x,y,z
2 1/2-x,1/2+y,1/2-z
3 -x,-y,-z
4 1/2+x,1/2-y,1/2+z
_cell_length_a                   10.4598(9)
_cell_length_b                   8.9451(7)
_cell_length_c                   10.8733(9)
_cell_angle_alpha                90
_cell_angle_beta                 93.632(3)
_cell_angle_gamma                90
_cell_volume                     1015.31
loop_
_atom_site_label
_atom_site_type_symbol
_atom_site_fract_x
_atom_site_fract_y
_atom_site_fract_z
Cd1 Cd 0.5000 0.0000 0.5000
Pd1 Pd 0.0000 0.0000 0.5000
O1 O 0.47338(16) 0.02172(15) 0.70781(12)
N1 N -0.08086(18) -0.2774(2) 0.33886(17)
H1 H 0.445(3) -0.051(3) 0.741(3)
N2 N 0.28801(13) -0.07983(18) 0.47397(15)
N3 N 0.41631(12) 0.24048(13) 0.48951(11)
C1 C -0.05296(16) -0.17680(19) 0.39884(15)
C2 C 0.18250(15) -0.05295(18) 0.48435(15)
C3 C 0.44048(19) 0.1560(2) 0.76834(15)
H2 H 0.4748 0.1540 0.8533
H3 H 0.3480 0.1651 0.7680
C4 C 0.49508(17) 0.28761(19) 0.70209(15)
H4 H 0.5009 0.3722 0.7580
H5 H 0.5814 0.2629 0.6813
C5 C 0.41899(14) 0.33363(16) 0.58660(14)
C6 C 0.35253(18) 0.46840(19) 0.58037(18)
H6 H 0.3546 0.5315 0.6484
C7 C 0.2840(2) 0.50788(19) 0.4737(2)
H7 H 0.2397 0.5980 0.4686
C8 C 0.28150(17) 0.4132(2) 0.37477(18)
H8 H 0.2357 0.4377 0.3014
C9 C 0.34824(16) 0.28080(19) 0.38621(16)
H9 H 0.3460 0.2162 0.3191
N1B N 0.08086(18) 0.2774(2) 0.66114(17)
N2B N -0.28801(13) 0.07983(18) 0.52603(15)
C1B C 0.05296(16) 0.17680(19) 0.60116(15)
C2B C -0.18250(15) 0.05295(18) 0.51565(15)
O1B O 0.52662(16) -0.02172(15) 0.29219(12)
H1B H 0.555(3) 0.051(3) 0.259(3)
N3B N 0.58369(12) -0.24048(13) 0.51049(11)
C3B C 0.55952(19) -0.1560(2) 0.23166(15)
H2B H 0.5252 -0.1540 0.1467
H3B H 0.6520 -0.1651 0.2320
C4B C 0.50492(17) -0.28761(19) 0.29791(15)
H4B H 0.4991 -0.3722 0.2420
H5B H 0.4186 -0.2629 0.3187
C5B C 0.58101(14) -0.33363(16) 0.41340(14)
C6B C 0.64747(18) -0.46840(19) 0.41963(18)
H6B H 0.6454 -0.5315 0.3516
C7B C 0.7160(2) -0.50788(19) 0.5263(2)
H7B H 0.7603 -0.5980 0.5314
C8B C 0.71850(17) -0.4132(2) 0.62523(18)
H8B H 0.7643 -0.4377 0.6986
C9B C 0.65176(16) -0.28080(19) 0.61379(16)
H9B H 0.6540 -0.2162 0.6809
Cd1_2 Cd -0.5000 0.0000 0.5000
N2B_2 N 0.71199(13) 0.07983(18) 0.52603(15)
loop_
_geom_bond_atom_site_label_1
_geom_bond_atom_site_label_2
_geom_bond_site_symmetry_1
_geom_bond_site_symmetry_2
Cd1 O1 1_555 1_555
Pd1 C1 1_555 1_555
O1 H1 1_555 1_555
N1 C1 1_555 1_555
N2 Cd1 1_555 1_555
N3 Cd1 1_555 1_555
C2 Pd1 1_555 1_555
C3 O1 1_555 1_555
H2 C3 1_555 1_555
H3 C3 1_555 1_555
C4 C3 1_555 1_555
H4 C4 1_555 1_555
H5 C4 1_555 1_555
C5 N3 1_555 1_555
C6 C5 1_555 1_555
H6 C6 1_555 1_555
C7 C6 1_555 1_555
H7 C7 1_555 1_555
C8 C7 1_555 1_555
H8 C8 1_555 1_555
C9 N3 1_555 1_555
H9 C9 1_555 1_555
N1B C1B 1_555 1_555
N2B C2B 1_555 1_555
C1B Pd1 1_555 1_555
C2B Pd1 1_555 1_555
O1B Cd1 1_555 1_555
H1B O1B 1_555 1_555
N3B Cd1 1_555 1_555
C3B O1B 1_555 1_555
H2B C3B 1_555 1_555
H3B C3B 1_555 1_555
C4B C3B 1_555 1_555
H4B C4B 1_555 1_555
H5B C4B 1_555 1_555
C5B N3B 1_555 1_555
C6B C5B 1_555 1_555
H6B C6B 1_555 1_555
C7B C6B 1_555 1_555
H7B C7B 1_555 1_555
C8B C7B 1_555 1_555
H8B C8B 1_555 1_555
C9B N3B 1_555 1_555
H9B C9B 1_555 1_555
Cd1_2 N2B 1_555 1_555
N2B_2 Cd1 1_555 1_555
N2 C2 1_555 1_555
C4 C5 1_555 1_555
C8 C9 1_555 1_555
C4B C5B 1_555 1_555
C8B C9B 1_555 1_555

#END
