
#######################################################################
#
#                 Cambridge Crystallographic Data Centre
#                                CCDC 
#
#######################################################################
#
# If this CIF has been generated from an entry in the Cambridge 
# Structural Database, then it will include bibliographic, chemical, 
# crystal, experimental, refinement or atomic coordinate data resulting 
# from the CCDC's data processing and validation procedures.
#
#######################################################################

data_TOQGEN
_symmetry_cell_setting           triclinic
_symmetry_space_group_name_H-M   'P -1'
_symmetry_Int_Tables_number      2
_space_group_name_Hall           '-P 1'
loop_
_symmetry_equiv_pos_site_id
_symmetry_equiv_pos_as_xyz
1 x,y,z
2 -x,-y,-z
_cell_length_a                   8.8831(2)
_cell_length_b                   8.9804(2)
_cell_length_c                   11.0257(3)
_cell_angle_alpha                74.927(3)
_cell_angle_beta                 73.684(3)
_cell_angle_gamma                62.874(2)
_cell_volume                     742.269
loop_
_atom_site_label
_atom_site_type_symbol
_atom_site_fract_x
_atom_site_fract_y
_atom_site_fract_z
Pd1 Pd 1.0000 0.5000 1.0000
Pd2 Pd 0.5000 0.0000 0.5000
Cu1 Cu 0.85253(3) 0.13737(3) 0.75984(2)
N1 N 1.3847(3) 0.2876(2) 1.03612(18)
N2 N 0.9860(2) 0.2251(2) 0.88131(18)
N3 N 0.7309(2) 0.0641(2) 0.63165(19)
N4 N 0.2637(3) 0.3910(2) 0.47366(18)
N5 N 1.0651(2) -0.0979(2) 0.75235(16)
N6 N 1.6491(3) -0.6228(2) 0.7775(2)
H1 H 1.688(3) -0.556(3) 0.742(2)
H2 H 1.613(3) -0.615(3) 0.853(3)
N7 N 0.9699(3) 0.2334(3) 0.59763(19)
H3 H 0.908(4) 0.333(4) 0.563(3)
H4 H 1.056(4) 0.245(3) 0.605(2)
H5 H 1.002(4) 0.169(4) 0.548(3)
N8 N 0.7386(3) 0.0356(3) 0.92058(19)
H6 H 0.644(4) 0.111(4) 0.959(3)
H7 H 0.712(3) -0.037(4) 0.906(3)
H8 H 0.805(4) -0.011(4) 0.971(3)
C1 C 1.2441(3) 0.3625(3) 1.0230(2)
C2 C 0.9959(3) 0.3235(3) 0.9236(2)
C3 C 0.6479(3) 0.0382(3) 0.5838(2)
C4 C 0.3500(3) 0.2480(3) 0.4836(2)
C5 C 1.2163(3) -0.1252(3) 0.7770(2)
H9 H 1.2256 -0.0350 0.7996
C6 C 1.3590(3) -0.2786(3) 0.77111(19)
H10 H 1.4624 -0.2925 0.7912
C7 C 1.3512(3) -0.4122(3) 0.73588(19)
C8 C 1.1942(3) -0.3841(3) 0.71156(19)
H11 H 1.1818 -0.4719 0.6881
C9 C 1.0564(3) -0.2287(3) 0.7216(2)
H12 H 0.9500 -0.2135 0.7060
C10 C 1.5014(3) -0.5819(3) 0.7205(2)
H13 H 1.4582 -0.6712 0.7580
H14 H 1.5432 -0.5875 0.6279
Cu1A Cu 0.14747(3) -0.13737(3) 0.24016(2)
N2A N 0.0140(2) -0.2251(2) 0.11869(18)
N3A N 0.2691(2) -0.0641(2) 0.36835(19)
N4A N 0.7363(3) -0.3910(2) 0.52634(18)
N5A N -0.0651(2) 0.0979(2) 0.24765(16)
N6A N -0.6491(3) 0.6228(2) 0.2225(2)
H1A H -0.688(3) 0.556(3) 0.258(2)
H2A H -0.613(3) 0.615(3) 0.147(3)
N7A N 0.0301(3) -0.2334(3) 0.40237(19)
H3A H 0.092(4) -0.333(4) 0.437(3)
H4A H -0.056(4) -0.245(3) 0.395(2)
H5A H -0.002(4) -0.169(4) 0.452(3)
N8A N 0.2614(3) -0.0356(3) 0.07942(19)
H6A H 0.356(4) -0.111(4) 0.041(3)
H7A H 0.288(3) 0.037(4) 0.094(3)
H8A H 0.195(4) 0.011(4) 0.029(3)
C2A C 0.0041(3) -0.3235(3) 0.0764(2)
C3A C 0.3521(3) -0.0382(3) 0.4162(2)
C4A C 0.6500(3) -0.2480(3) 0.5164(2)
C5A C -0.2163(3) 0.1252(3) 0.2230(2)
H9A H -0.2256 0.0350 0.2004
C6A C -0.3590(3) 0.2786(3) 0.22889(19)
H10A H -0.4624 0.2925 0.2088
C7A C -0.3512(3) 0.4122(3) 0.26412(19)
C8A C -0.1942(3) 0.3841(3) 0.28844(19)
H11A H -0.1818 0.4719 0.3119
C9A C -0.0564(3) 0.2287(3) 0.2784(2)
H12A H 0.0500 0.2135 0.2940
C10A C -0.5014(3) 0.5819(3) 0.2795(2)
H13A H -0.4582 0.6712 0.2420
H14A H -0.5432 0.5875 0.3721
N1A N 0.6153(3) 0.7124(2) 0.96388(18)
C1A C 0.7559(3) 0.6375(3) 0.9770(2)
Pd1_2 Pd 0.0000 -0.5000 0.0000
Cu1_2 Cu 1.85253(3) -0.86263(3) 0.75984(2)
Cu1A_2 Cu -0.85253(3) 0.86263(3) 0.24016(2)
N6_2 N 0.6491(3) 0.3772(2) 0.7775(2)
N6A_2 N 0.3509(3) -0.3772(2) 0.2225(2)
C2A_2 C 1.0041(3) 0.6765(3) 1.0764(2)
loop_
_geom_bond_atom_site_label_1
_geom_bond_atom_site_label_2
_geom_bond_site_symmetry_1
_geom_bond_site_symmetry_2
Pd1 C1 1_555 1_555
Pd2 C3 1_555 1_555
Cu1 N2 1_555 1_555
N1 C1 1_555 1_555
N2 C2 1_555 1_555
N3 Cu1 1_555 1_555
N4 C4 1_555 1_555
N5 Cu1 1_555 1_555
N6 H1 1_555 1_555
H2 N6 1_555 1_555
N7 Cu1 1_555 1_555
H3 N7 1_555 1_555
H4 N7 1_555 1_555
H5 N7 1_555 1_555
N8 Cu1 1_555 1_555
H6 N8 1_555 1_555
H7 N8 1_555 1_555
H8 N8 1_555 1_555
C2 Pd1 1_555 1_555
C3 N3 1_555 1_555
C4 Pd2 1_555 1_555
C5 N5 1_555 1_555
H9 C5 1_555 1_555
C6 C5 1_555 1_555
H10 C6 1_555 1_555
C7 C6 1_555 1_555
C8 C7 1_555 1_555
H11 C8 1_555 1_555
C9 N5 1_555 1_555
H12 C9 1_555 1_555
C10 N6 1_555 1_555
H13 C10 1_555 1_555
H14 C10 1_555 1_555
Cu1A N2A 1_555 1_555
N2A C2A 1_555 1_555
N3A Cu1A 1_555 1_555
N4A C4A 1_555 1_555
N5A Cu1A 1_555 1_555
N6A H1A 1_555 1_555
H2A N6A 1_555 1_555
N7A Cu1A 1_555 1_555
H3A N7A 1_555 1_555
H4A N7A 1_555 1_555
H5A N7A 1_555 1_555
N8A Cu1A 1_555 1_555
H6A N8A 1_555 1_555
H7A N8A 1_555 1_555
H8A N8A 1_555 1_555
C2A Pd1_2 1_555 1_555
C3A Pd2 1_555 1_555
C4A Pd2 1_555 1_555
C5A N5A 1_555 1_555
H9A C5A 1_555 1_555
C6A C5A 1_555 1_555
H10A C6A 1_555 1_555
C7A C6A 1_555 1_555
C8A C7A 1_555 1_555
H11A C8A 1_555 1_555
C9A N5A 1_555 1_555
H12A C9A 1_555 1_555
C10A N6A 1_555 1_555
H13A C10A 1_555 1_555
H14A C10A 1_555 1_555
N1A C1A 1_555 1_555
C1A Pd1 1_555 1_555
Cu1_2 N6 1_555 1_555
Cu1A_2 N6A 1_555 1_555
N6_2 Cu1 1_555 1_555
N6A_2 Cu1A 1_555 1_555
C2A_2 Pd1 1_555 1_555
C7 C10 1_555 1_555
C8 C9 1_555 1_555
N3A C3A 1_555 1_555
C7A C10A 1_555 1_555
C8A C9A 1_555 1_555

#END
