
#######################################################################
#
#                 Cambridge Crystallographic Data Centre
#                                CCDC 
#
#######################################################################
#
# If this CIF has been generated from an entry in the Cambridge 
# Structural Database, then it will include bibliographic, chemical, 
# crystal, experimental, refinement or atomic coordinate data resulting 
# from the CCDC's data processing and validation procedures.
#
#######################################################################

data_TOQSIC
_symmetry_cell_setting           orthorhombic
_symmetry_space_group_name_H-M   'P b c n'
_symmetry_Int_Tables_number      60
_space_group_name_Hall           '-P 2n 2ab'
loop_
_symmetry_equiv_pos_site_id
_symmetry_equiv_pos_as_xyz
1 x,y,z
2 1/2-x,1/2-y,1/2+z
3 1/2+x,1/2-y,-z
4 -x,y,1/2-z
5 -x,-y,-z
6 1/2+x,1/2+y,1/2-z
7 1/2-x,1/2+y,z
8 x,-y,1/2+z
_cell_length_a                   27.0000(15)
_cell_length_b                   17.1351(10)
_cell_length_c                   21.9480(13)
_cell_angle_alpha                90
_cell_angle_beta                 90
_cell_angle_gamma                90
_cell_volume                     10154.2
loop_
_atom_site_label
_atom_site_type_symbol
_atom_site_fract_x
_atom_site_fract_y
_atom_site_fract_z
C1 C 0.14664(14) 0.3320(2) 0.69323(19)
C2 C 0.15236(16) 0.8800(2) 0.7264(2)
C3 C 0.11435(15) 0.3967(2) 0.7087(2)
C4 C 0.11332(16) 0.4642(2) 0.6740(2)
H1 H 0.1347 0.4695 0.6399
C5 C 0.08161(16) 0.5229(3) 0.6888(2)
H2 H 0.0805 0.5678 0.6633
C6 C 0.05328(15) 0.4560(2) 0.7727(2)
H3 H 0.0328 0.4532 0.8078
C7 C 0.08353(14) 0.3941(2) 0.7594(2)
H4 H 0.0835 0.3493 0.7849
C8 C 0.11727(15) 0.8154(2) 0.7296(2)
C9 C 0.12530(16) 0.7550(2) 0.7705(2)
H5 H 0.1536 0.7552 0.7961
C10 C 0.09156(16) 0.6946(3) 0.7733(2)
H6 H 0.0972 0.6536 0.8016
C11 C 0.04355(15) 0.7505(2) 0.6985(2)
H7 H 0.0151 0.7490 0.6731
C12 C 0.07534(15) 0.8129(2) 0.6936(2)
H8 H 0.0685 0.8539 0.6657
C13 C 0.24521(15) 0.0903(2) 0.8387(2)
C14 C 0.28433(16) 0.0666(2) 0.8025(2)
H9 H 0.2794 0.0597 0.7600
C15 C 0.33014(17) 0.0529(3) 0.8273(3)
H10 H 0.3566 0.0362 0.8019
C16 C 0.33805(18) 0.0631(3) 0.8882(3)
H11 H 0.3700 0.0542 0.9049
C17 C 0.29889(18) 0.0868(3) 0.9260(2)
H12 H 0.3043 0.0941 0.9684
C18 C 0.25256(17) 0.0995(2) 0.9015(2)
H13 H 0.2258 0.1143 0.9270
C19 C 0.27126(14) 0.0954(2) 0.58645(18)
C20 C 0.29827(16) 0.1478(2) 0.6224(2)
H14 H 0.2824 0.1752 0.6546
C21 C 0.34814(16) 0.1596(3) 0.6108(2)
H15 H 0.3660 0.1967 0.6343
C22 C 0.37186(16) 0.1189(3) 0.5663(2)
H16 H 0.4060 0.1275 0.5586
C23 C 0.34543(16) 0.0641(3) 0.5320(2)
H17 H 0.3620 0.0340 0.5019
C24 C 0.29535(16) 0.0534(3) 0.5416(2)
H18 H 0.2774 0.0171 0.5174
C25 C 0.13912(15) 0.0488(2) 0.8359(2)
C26 C 0.14949(18) -0.0134(3) 0.8734(2)
H19 H 0.1824 -0.0218 0.8874
C27 C 0.1118(2) -0.0639(3) 0.8908(3)
H20 H 0.1189 -0.1068 0.9167
C28 C 0.0646(2) -0.0522(3) 0.8709(3)
H21 H 0.0390 -0.0865 0.8838
C29 C 0.05362(18) 0.0079(3) 0.8327(3)
H22 H 0.0208 0.0149 0.8182
C30 C 0.09087(17) 0.0586(3) 0.8155(2)
H23 H 0.0833 0.1009 0.7892
C31 C 0.17812(15) 0.1562(2) 0.5453(2)
C32 C 0.13098(15) 0.1861(2) 0.5584(2)
H24 H 0.1146 0.1717 0.5950
C33 C 0.10796(17) 0.2374(3) 0.5173(2)
H25 H 0.0759 0.2576 0.5257
C34 C 0.13258(19) 0.2581(3) 0.4643(2)
H26 H 0.1174 0.2929 0.4363
C35 C 0.17905(18) 0.2285(3) 0.4520(2)
H27 H 0.1955 0.2432 0.4156
C36 C 0.20174(17) 0.1781(3) 0.4917(2)
H28 H 0.2337 0.1582 0.4826
C37 C 0.17451(16) 0.2103(2) 0.8390(2)
C38 C 0.13628(18) 0.2261(3) 0.8785(2)
H29 H 0.1129 0.1866 0.8884
C39 C 0.13194(19) 0.3003(3) 0.9041(2)
H30 H 0.1058 0.3113 0.9317
C40 C 0.1657(2) 0.3578(3) 0.8891(2)
H31 H 0.1628 0.4082 0.9067
C41 C 0.2036(2) 0.3421(3) 0.8488(2)
H32 H 0.2262 0.3823 0.8380
C42 C 0.20881(18) 0.2691(3) 0.8241(2)
H33 H 0.2354 0.2583 0.7970
C43 C 0.18783(15) -0.0088(2) 0.56913(18)
C44 C 0.21531(16) -0.0740(2) 0.5852(2)
H34 H 0.2447 -0.0681 0.6086
C45 C 0.20014(18) -0.1476(3) 0.5673(2)
H35 H 0.2195 -0.1921 0.5772
C46 C 0.15677(19) -0.1560(3) 0.5349(2)
H36 H 0.1462 -0.2066 0.5229
C47 C 0.12861(19) -0.0920(3) 0.5199(2)
H37 H 0.0986 -0.0984 0.4979
C48 C 0.14409(16) -0.0184(3) 0.5369(2)
H38 H 0.1247 0.0259 0.5264
N1 N 0.13892(12) 0.25867(19) 0.71142(15)
N2 N 0.14233(12) 0.95024(19) 0.70408(16)
N3 N 0.17901(12) 0.22068(19) 0.68942(15)
N4 N 0.20860(13) 0.2681(2) 0.65923(17)
N5 N 0.18885(13) 0.33907(19) 0.66098(17)
N6 N 0.05157(12) 0.52032(19) 0.73803(17)
N7 N 0.18458(12) 0.9894(2) 0.71312(15)
N8 N 0.21841(13) 0.9450(2) 0.73926(17)
N9 N 0.19865(13) 0.87513(19) 0.74792(18)
N10 N 0.05097(12) 0.69162(19) 0.73772(17)
P1 P 0.18506(4) 0.11496(6) 0.80623(5)
P2 P 0.20453(4) 0.08691(6) 0.59788(5)
Cu1 Cu 0.0000 0.60570(4) 0.7500
Pt1 Pt 0.186876(5) 0.105414(8) 0.700480(7)
C1C C -0.14664(14) 0.3320(2) 0.80677(19)
C2C C -0.15236(16) 0.8800(2) 0.7736(2)
C3C C -0.11435(15) 0.3967(2) 0.7913(2)
C4C C -0.11332(16) 0.4642(2) 0.8260(2)
H1C H -0.1347 0.4695 0.8601
C5C C -0.08161(16) 0.5229(3) 0.8112(2)
H2C H -0.0805 0.5678 0.8367
C6C C -0.05328(15) 0.4560(2) 0.7273(2)
H3C H -0.0328 0.4532 0.6922
C7C C -0.08353(14) 0.3941(2) 0.7406(2)
H4C H -0.0835 0.3493 0.7151
C8C C -0.11727(15) 0.8154(2) 0.7704(2)
C9C C -0.12530(16) 0.7550(2) 0.7295(2)
H5C H -0.1536 0.7552 0.7039
C10C C -0.09156(16) 0.6946(3) 0.7267(2)
H6C H -0.0972 0.6536 0.6984
C11C C -0.04355(15) 0.7505(2) 0.8015(2)
H7C H -0.0151 0.7490 0.8269
C12C C -0.07534(15) 0.8129(2) 0.8064(2)
H8C H -0.0685 0.8539 0.8343
C13C C -0.24521(15) 0.0903(2) 0.6613(2)
C14C C -0.28433(16) 0.0666(2) 0.6975(2)
H9C H -0.2794 0.0597 0.7400
C15C C -0.33014(17) 0.0529(3) 0.6727(3)
H10C H -0.3566 0.0362 0.6981
C16C C -0.33805(18) 0.0631(3) 0.6118(3)
H11C H -0.3700 0.0542 0.5951
C17C C -0.29889(18) 0.0868(3) 0.5740(2)
H12C H -0.3043 0.0941 0.5316
C18C C -0.25256(17) 0.0995(2) 0.5985(2)
H13C H -0.2258 0.1143 0.5730
C19C C -0.27126(14) 0.0954(2) 0.91355(18)
C20C C -0.29827(16) 0.1478(2) 0.8776(2)
H14C H -0.2824 0.1752 0.8454
C21C C -0.34814(16) 0.1596(3) 0.8892(2)
H15C H -0.3660 0.1967 0.8657
C22C C -0.37186(16) 0.1189(3) 0.9337(2)
H16C H -0.4060 0.1275 0.9414
C23C C -0.34543(16) 0.0641(3) 0.9680(2)
H17C H -0.3620 0.0340 0.9981
C24C C -0.29535(16) 0.0534(3) 0.9584(2)
H18C H -0.2774 0.0171 0.9826
C25C C -0.13912(15) 0.0488(2) 0.6641(2)
C26C C -0.14949(18) -0.0134(3) 0.6266(2)
H19C H -0.1824 -0.0218 0.6126
C27C C -0.1118(2) -0.0639(3) 0.6092(3)
H20C H -0.1189 -0.1068 0.5833
C28C C -0.0646(2) -0.0522(3) 0.6291(3)
H21C H -0.0390 -0.0865 0.6162
C29C C -0.05362(18) 0.0079(3) 0.6673(3)
H22C H -0.0208 0.0149 0.6818
C30C C -0.09087(17) 0.0586(3) 0.6845(2)
H23C H -0.0833 0.1009 0.7108
C31C C -0.17812(15) 0.1562(2) 0.9547(2)
C32C C -0.13098(15) 0.1861(2) 0.9416(2)
H24C H -0.1146 0.1717 0.9050
C33C C -0.10796(17) 0.2374(3) 0.9827(2)
H25C H -0.0759 0.2576 0.9743
C34C C -0.13258(19) 0.2581(3) 1.0357(2)
H26C H -0.1174 0.2929 1.0637
C35C C -0.17905(18) 0.2285(3) 1.0480(2)
H27C H -0.1955 0.2432 1.0844
C36C C -0.20174(17) 0.1781(3) 1.0083(2)
H28C H -0.2337 0.1582 1.0174
C37C C -0.17451(16) 0.2103(2) 0.6610(2)
C38C C -0.13628(18) 0.2261(3) 0.6215(2)
H29C H -0.1129 0.1866 0.6116
C39C C -0.13194(19) 0.3003(3) 0.5959(2)
H30C H -0.1058 0.3113 0.5683
C40C C -0.1657(2) 0.3578(3) 0.6109(2)
H31C H -0.1628 0.4082 0.5933
C41C C -0.2036(2) 0.3421(3) 0.6512(2)
H32C H -0.2262 0.3823 0.6620
C42C C -0.20881(18) 0.2691(3) 0.6759(2)
H33C H -0.2354 0.2583 0.7030
C43C C -0.18783(15) -0.0088(2) 0.93087(18)
C44C C -0.21531(16) -0.0740(2) 0.9148(2)
H34C H -0.2447 -0.0681 0.8914
C45C C -0.20014(18) -0.1476(3) 0.9327(2)
H35C H -0.2195 -0.1921 0.9228
C46C C -0.15677(19) -0.1560(3) 0.9651(2)
H36C H -0.1462 -0.2066 0.9771
C47C C -0.12861(19) -0.0920(3) 0.9801(2)
H37C H -0.0986 -0.0984 1.0021
C48C C -0.14409(16) -0.0184(3) 0.9631(2)
H38C H -0.1247 0.0259 0.9736
N1C N -0.13892(12) 0.25867(19) 0.78858(15)
N2C N -0.14233(12) 0.95024(19) 0.79592(16)
N3C N -0.17901(12) 0.22068(19) 0.81058(15)
N4C N -0.20860(13) 0.2681(2) 0.84077(17)
N5C N -0.18885(13) 0.33907(19) 0.83902(17)
N6C N -0.05157(12) 0.52032(19) 0.76197(17)
N7C N -0.18458(12) 0.9894(2) 0.78688(15)
N7_2 N 0.18458(12) -0.0106(2) 0.71312(15)
N7C_2 N -0.18458(12) -0.0106(2) 0.78688(15)
N8C N -0.21841(13) 0.9450(2) 0.76074(17)
N9C N -0.19865(13) 0.87513(19) 0.75208(18)
N10C N -0.05097(12) 0.69162(19) 0.76228(17)
P1C P -0.18506(4) 0.11496(6) 0.69377(5)
P2C P -0.20453(4) 0.08691(6) 0.90212(5)
Pt1C Pt -0.186876(5) 0.105414(8) 0.799520(7)
Pt1_2 Pt 0.186876(5) 1.105414(8) 0.700480(7)
Pt1C_2 Pt -0.186876(5) 1.105414(8) 0.799520(7)
loop_
_geom_bond_atom_site_label_1
_geom_bond_atom_site_label_2
_geom_bond_site_symmetry_1
_geom_bond_site_symmetry_2
C1 C3 1_555 1_555
C2 C8 1_555 1_555
C3 C4 1_555 1_555
C4 H1 1_555 1_555
C5 C4 1_555 1_555
H2 C5 1_555 1_555
C6 H3 1_555 1_555
C7 C3 1_555 1_555
H4 C7 1_555 1_555
C8 C9 1_555 1_555
C9 H5 1_555 1_555
C10 C9 1_555 1_555
H6 C10 1_555 1_555
C11 H7 1_555 1_555
C12 C8 1_555 1_555
H8 C12 1_555 1_555
C13 C14 1_555 1_555
C14 H9 1_555 1_555
C15 C14 1_555 1_555
H10 C15 1_555 1_555
C16 C15 1_555 1_555
H11 C16 1_555 1_555
C17 C16 1_555 1_555
H12 C17 1_555 1_555
C18 C13 1_555 1_555
H13 C18 1_555 1_555
C19 C20 1_555 1_555
C20 H14 1_555 1_555
C21 C20 1_555 1_555
H15 C21 1_555 1_555
C22 C21 1_555 1_555
H16 C22 1_555 1_555
C23 C22 1_555 1_555
H17 C23 1_555 1_555
C24 C19 1_555 1_555
H18 C24 1_555 1_555
C25 C26 1_555 1_555
C26 H19 1_555 1_555
C27 C26 1_555 1_555
H20 C27 1_555 1_555
C28 C27 1_555 1_555
H21 C28 1_555 1_555
C29 C28 1_555 1_555
H22 C29 1_555 1_555
C30 C25 1_555 1_555
H23 C30 1_555 1_555
C31 C32 1_555 1_555
C32 H24 1_555 1_555
C33 C32 1_555 1_555
H25 C33 1_555 1_555
C34 C33 1_555 1_555
H26 C34 1_555 1_555
C35 C34 1_555 1_555
H27 C35 1_555 1_555
C36 C31 1_555 1_555
H28 C36 1_555 1_555
C37 C38 1_555 1_555
C38 H29 1_555 1_555
C39 C38 1_555 1_555
H30 C39 1_555 1_555
C40 C39 1_555 1_555
H31 C40 1_555 1_555
C41 C40 1_555 1_555
H32 C41 1_555 1_555
C42 C37 1_555 1_555
H33 C42 1_555 1_555
C43 C44 1_555 1_555
C44 H34 1_555 1_555
C45 C44 1_555 1_555
H35 C45 1_555 1_555
C46 C45 1_555 1_555
H36 C46 1_555 1_555
C47 C46 1_555 1_555
H37 C47 1_555 1_555
C48 C43 1_555 1_555
H38 C48 1_555 1_555
N1 C1 1_555 1_555
N2 C2 1_555 1_555
N3 N1 1_555 1_555
N4 N3 1_555 1_555
N5 C1 1_555 1_555
N6 C5 1_555 1_555
N7 N2 1_555 1_555
N8 N7 1_555 1_555
N9 C2 1_555 1_555
N10 C10 1_555 1_555
P1 C13 1_555 1_555
P2 C19 1_555 1_555
Cu1 N6 1_555 1_555
Pt1 N3 1_555 1_555
C1C C3C 1_555 1_555
C2C C8C 1_555 1_555
C3C C4C 1_555 1_555
C4C H1C 1_555 1_555
C5C C4C 1_555 1_555
H2C C5C 1_555 1_555
C6C H3C 1_555 1_555
C7C C3C 1_555 1_555
H4C C7C 1_555 1_555
C8C C9C 1_555 1_555
C9C H5C 1_555 1_555
C10C C9C 1_555 1_555
H6C C10C 1_555 1_555
C11C H7C 1_555 1_555
C12C C8C 1_555 1_555
H8C C12C 1_555 1_555
C13C C14C 1_555 1_555
C14C H9C 1_555 1_555
C15C C14C 1_555 1_555
H10C C15C 1_555 1_555
C16C C15C 1_555 1_555
H11C C16C 1_555 1_555
C17C C16C 1_555 1_555
H12C C17C 1_555 1_555
C18C C13C 1_555 1_555
H13C C18C 1_555 1_555
C19C C20C 1_555 1_555
C20C H14C 1_555 1_555
C21C C20C 1_555 1_555
H15C C21C 1_555 1_555
C22C C21C 1_555 1_555
H16C C22C 1_555 1_555
C23C C22C 1_555 1_555
H17C C23C 1_555 1_555
C24C C19C 1_555 1_555
H18C C24C 1_555 1_555
C25C C26C 1_555 1_555
C26C H19C 1_555 1_555
C27C C26C 1_555 1_555
H20C C27C 1_555 1_555
C28C C27C 1_555 1_555
H21C C28C 1_555 1_555
C29C C28C 1_555 1_555
H22C C29C 1_555 1_555
C30C C25C 1_555 1_555
H23C C30C 1_555 1_555
C31C C32C 1_555 1_555
C32C H24C 1_555 1_555
C33C C32C 1_555 1_555
H25C C33C 1_555 1_555
C34C C33C 1_555 1_555
H26C C34C 1_555 1_555
C35C C34C 1_555 1_555
H27C C35C 1_555 1_555
C36C C31C 1_555 1_555
H28C C36C 1_555 1_555
C37C C38C 1_555 1_555
C38C H29C 1_555 1_555
C39C C38C 1_555 1_555
H30C C39C 1_555 1_555
C40C C39C 1_555 1_555
H31C C40C 1_555 1_555
C41C C40C 1_555 1_555
H32C C41C 1_555 1_555
C42C C37C 1_555 1_555
H33C C42C 1_555 1_555
C43C C44C 1_555 1_555
C44C H34C 1_555 1_555
C45C C44C 1_555 1_555
H35C C45C 1_555 1_555
C46C C45C 1_555 1_555
H36C C46C 1_555 1_555
C47C C46C 1_555 1_555
H37C C47C 1_555 1_555
C48C C43C 1_555 1_555
H38C C48C 1_555 1_555
N1C C1C 1_555 1_555
N2C C2C 1_555 1_555
N3C N1C 1_555 1_555
N4C N3C 1_555 1_555
N5C C1C 1_555 1_555
N6C Cu1 1_555 1_555
N7C N2C 1_555 1_555
N7_2 Pt1 1_555 1_555
N7C_2 Pt1C 1_555 1_555
N8C N7C 1_555 1_555
N9C C2C 1_555 1_555
N10C Cu1 1_555 1_555
P1C C13C 1_555 1_555
P2C C19C 1_555 1_555
Pt1C N3C 1_555 1_555
Pt1_2 N7 1_555 1_555
Pt1C_2 N7C 1_555 1_555
C6 C7 1_555 1_555
C6 N6 1_555 1_555
C11 C12 1_555 1_555
C11 N10 1_555 1_555
C17 C18 1_555 1_555
C23 C24 1_555 1_555
C25 P1 1_555 1_555
C29 C30 1_555 1_555
C31 P2 1_555 1_555
C35 C36 1_555 1_555
C37 P1 1_555 1_555
C41 C42 1_555 1_555
C43 P2 1_555 1_555
C47 C48 1_555 1_555
N4 N5 1_555 1_555
N8 N9 1_555 1_555
N10 Cu1 1_555 1_555
P1 Pt1 1_555 1_555
P2 Pt1 1_555 1_555
C5C N6C 1_555 1_555
C6C C7C 1_555 1_555
C6C N6C 1_555 1_555
C10C N10C 1_555 1_555
C11C C12C 1_555 1_555
C11C N10C 1_555 1_555
C17C C18C 1_555 1_555
C23C C24C 1_555 1_555
C25C P1C 1_555 1_555
C29C C30C 1_555 1_555
C31C P2C 1_555 1_555
C35C C36C 1_555 1_555
C37C P1C 1_555 1_555
C41C C42C 1_555 1_555
C43C P2C 1_555 1_555
C47C C48C 1_555 1_555
N4C N5C 1_555 1_555
N8C N9C 1_555 1_555
P1C Pt1C 1_555 1_555
P2C Pt1C 1_555 1_555

#END
