
#######################################################################
#
#                 Cambridge Crystallographic Data Centre
#                                CCDC 
#
#######################################################################
#
# If this CIF has been generated from an entry in the Cambridge 
# Structural Database, then it will include bibliographic, chemical, 
# crystal, experimental, refinement or atomic coordinate data resulting 
# from the CCDC's data processing and validation procedures.
#
#######################################################################

data_TORJUH
_symmetry_cell_setting           orthorhombic
_symmetry_space_group_name_H-M   'P n m a'
_symmetry_Int_Tables_number      62
_space_group_name_Hall           '-P 2ac 2n'
loop_
_symmetry_equiv_pos_site_id
_symmetry_equiv_pos_as_xyz
1 x,y,z
2 1/2-x,-y,1/2+z
3 1/2+x,1/2-y,1/2-z
4 -x,1/2+y,-z
5 -x,-y,-z
6 1/2+x,y,1/2-z
7 1/2-x,1/2+y,1/2+z
8 x,1/2-y,z
_cell_length_a                   10.9790(4)
_cell_length_b                   16.6505(7)
_cell_length_c                   19.3795(7)
_cell_angle_alpha                90
_cell_angle_beta                 90
_cell_angle_gamma                90
_cell_volume                     3542.69
loop_
_atom_site_label
_atom_site_type_symbol
_atom_site_fract_x
_atom_site_fract_y
_atom_site_fract_z
N1 N 0.4186(4) 0.2500 1.0288(2)
Eu1 Eu 0.28799(2) 0.2500 0.703641(12)
O1 O 0.1796(4) 0.2500 0.80552(19)
O2 O -0.0143(4) 0.2500 0.8347(2)
O3 O 0.3485(5) 0.2500 1.1538(2)
H1 H 0.3572 0.2500 1.1958
O4 O 0.1514(5) 0.2500 1.1814(2)
O5 O 0.3690(3) -0.14521(19) 1.18412(17)
O6 O 0.2233(3) -0.1548(2) 1.10727(19)
O7 O 0.3861(3) 0.3545(2) 0.7699(2)
H2 H 0.4610 0.3549 0.7680
H3 H 0.3408 0.3815 0.7944
C1 C 0.0963(5) 0.2500 0.8488(3)
C2 C 0.1308(5) 0.2500 0.9235(3)
C3 C 0.0432(6) 0.2500 0.9749(3)
H4 H -0.0390 0.2500 0.9633
C4 C 0.0783(6) 0.2500 1.0436(3)
H5 H 0.0191 0.2500 1.0779
C5 C 0.2019(5) 0.2500 1.0621(3)
C6 C 0.2879(4) 0.2500 1.0102(3)
C7 C 0.2530(5) 0.2500 0.9412(3)
H6 H 0.3121 0.2500 0.9067
C8 C 0.2295(6) 0.2500 1.1385(3)
C9 C 0.4810(4) 0.1764(2) 1.0029(2)
H7 H 0.5678 0.1809 1.0115
H8 H 0.4692 0.1723 0.9534
C10 C 0.4333(3) 0.1009(2) 1.0372(2)
C11 C 0.4814(4) 0.0759(2) 1.0995(2)
H9 H 0.5403 0.1071 1.1212
C12 C 0.4433(4) 0.0057(2) 1.1300(2)
H10 H 0.4784 -0.0106 1.1714
C13 C 0.3545(4) -0.0406(2) 1.10028(19)
C14 C 0.3040(4) -0.0156(3) 1.0370(2)
H11 H 0.2434 -0.0460 1.0160
C15 C 0.3447(4) 0.0541(2) 1.0062(2)
H12 H 0.3121 0.0698 0.9640
C16 C 0.3133(4) -0.1178(2) 1.1321(2)
O5G O 0.3690(3) 0.64521(19) 1.18412(17)
O6G O 0.2233(3) 0.6548(2) 1.10727(19)
C9G C 0.4810(4) 0.3236(2) 1.0029(2)
H7G H 0.5678 0.3191 1.0115
H8G H 0.4692 0.3277 0.9534
C10G C 0.4333(3) 0.3991(2) 1.0372(2)
C11G C 0.4814(4) 0.4241(2) 1.0995(2)
H9G H 0.5403 0.3929 1.1212
C12G C 0.4433(4) 0.4943(2) 1.1300(2)
H10G H 0.4784 0.5106 1.1714
C13G C 0.3545(4) 0.5406(2) 1.10028(19)
C14G C 0.3040(4) 0.5156(3) 1.0370(2)
H11G H 0.2434 0.5460 1.0160
C15G C 0.3447(4) 0.4459(2) 1.0062(2)
H12G H 0.3121 0.4302 0.9640
C16G C 0.3133(4) 0.6178(2) 1.1321(2)
O7G O 0.3861(3) 0.1455(2) 0.7699(2)
H2G H 0.4610 0.1451 0.7680
H3G H 0.3408 0.1185 0.7944
Eu1A Eu 0.21201(2) -0.2500 1.203641(12)
Eu1A_2 Eu 0.21201(2) 0.7500 1.203641(12)
Eu1B Eu -0.21201(2) 0.2500 0.796359(12)
O2B O 0.4857(4) 0.2500 0.6653(2)
O5A O 0.1310(3) 0.14521(19) 0.68412(17)
O5F O 0.1310(3) 0.35479(19) 0.68412(17)
O6A O 0.2767(3) 0.1548(2) 0.60727(19)
O6F O 0.2767(3) 0.3452(2) 0.60727(19)
N2 N 0.0955(8) 0.5390(5) 0.8352(5)
O8 O 0.2381(6) 0.4422(4) 0.8440(3)
C17 C 0.0439(14) 0.6109(7) 0.8083(6)
H13 H 0.0361 0.6064 0.7591
H14 H 0.0960 0.6555 0.8192
H15 H -0.0349 0.6194 0.8284
C18 C 0.0229(12) 0.4974(9) 0.8894(6)
H16 H -0.0132 0.5365 0.9195
H17 H 0.0752 0.4627 0.9157
H18 H -0.0401 0.4661 0.8680
C19 C 0.2089(9) 0.5040(5) 0.8151(4)
C20 C 0.2700(10) 0.5515(7) 0.7615(5)
H19 H 0.3349 0.5821 0.7818
H20 H 0.2124 0.5873 0.7405
H21 H 0.3027 0.5161 0.7270
O9 O 0.6131(16) 0.2500 1.1755(9)
N3? N 0.0912(13) 0.5136(8) 0.8568(6)
O10? O 0.2751(15) 0.5000(11) 0.7983(8)
C21? C 0.0763(19) 0.4336(9) 0.8796(10)
H22? H 0.1452 0.4022 0.8655
H23? H 0.0035 0.4115 0.8600
H24? H 0.0703 0.4329 0.9291
C22? C -0.0094(16) 0.5672(12) 0.8784(11)
H25? H -0.0458 0.5467 0.9198
H26? H -0.0696 0.5695 0.8425
H27? H 0.0220 0.6201 0.8868
C23? C 0.1908(14) 0.5444(9) 0.8165(6)
C24? C 0.179(2) 0.6298(9) 0.8012(10)
H28? H 0.1805 0.6598 0.8435
H29? H 0.1040 0.6393 0.7775
H30? H 0.2461 0.6464 0.7725
H31? H 0.6049 0.2864 1.2061
H32? H 0.5350 0.2500 1.1677
loop_
_geom_bond_atom_site_label_1
_geom_bond_atom_site_label_2
_geom_bond_site_symmetry_1
_geom_bond_site_symmetry_2
N1 C6 1_555 1_555
Eu1 O1 1_555 1_555
O1 C1 1_555 1_555
O2 C1 1_555 1_555
O3 H1 1_555 1_555
O4 C8 1_555 1_555
O5 C16 1_555 1_555
O6 C16 1_555 1_555
O7 Eu1 1_555 1_555
H2 O7 1_555 1_555
H3 O7 1_555 1_555
C1 C2 1_555 1_555
C2 C3 1_555 1_555
C3 H4 1_555 1_555
C4 C3 1_555 1_555
H5 C4 1_555 1_555
C5 C4 1_555 1_555
C6 C5 1_555 1_555
C7 C2 1_555 1_555
H6 C7 1_555 1_555
C8 O3 1_555 1_555
C9 N1 1_555 1_555
H7 C9 1_555 1_555
H8 C9 1_555 1_555
C10 C9 1_555 1_555
C11 C10 1_555 1_555
H9 C11 1_555 1_555
C12 C11 1_555 1_555
H10 C12 1_555 1_555
C13 C12 1_555 1_555
C14 C13 1_555 1_555
H11 C14 1_555 1_555
C15 C10 1_555 1_555
H12 C15 1_555 1_555
C16 C13 1_555 1_555
N2 C17 1_555 1_555
O8 C19 1_555 1_555
C17 H13 1_555 1_555
H14 C17 1_555 1_555
H15 C17 1_555 1_555
C18 N2 1_555 1_555
H16 C18 1_555 1_555
H17 C18 1_555 1_555
H18 C18 1_555 1_555
C19 N2 1_555 1_555
C20 C19 1_555 1_555
H19 C20 1_555 1_555
H20 C20 1_555 1_555
H21 C20 1_555 1_555
O5G C16G 1_555 1_555
O6G C16G 1_555 1_555
C9G N1 1_555 1_555
H7G C9G 1_555 1_555
H8G C9G 1_555 1_555
C10G C9G 1_555 1_555
C11G C10G 1_555 1_555
H9G C11G 1_555 1_555
C12G C11G 1_555 1_555
H10G C12G 1_555 1_555
C13G C12G 1_555 1_555
C14G C13G 1_555 1_555
H11G C14G 1_555 1_555
C15G C10G 1_555 1_555
H12G C15G 1_555 1_555
C16G C13G 1_555 1_555
O7G Eu1 1_555 1_555
H2G O7G 1_555 1_555
H3G O7G 1_555 1_555
Eu1A O5 1_555 1_555
Eu1A_2 O5G 1_555 1_555
Eu1B O2 1_555 1_555
O2B Eu1 1_555 1_555
O5A Eu1 1_555 1_555
O5F Eu1 1_555 1_555
O6A Eu1 1_555 1_555
O6F Eu1 1_555 1_555
O6 Eu1A 1_555 1_555
C5 C8 1_555 1_555
C6 C7 1_555 1_555
C14 C15 1_555 1_555
O6G Eu1A_2 1_555 1_555
C14G C15G 1_555 1_555

#END
