
#######################################################################
#
#                 Cambridge Crystallographic Data Centre
#                                CCDC 
#
#######################################################################
#
# If this CIF has been generated from an entry in the Cambridge 
# Structural Database, then it will include bibliographic, chemical, 
# crystal, experimental, refinement or atomic coordinate data resulting 
# from the CCDC's data processing and validation procedures.
#
#######################################################################

data_TORKES
_symmetry_cell_setting           orthorhombic
_symmetry_space_group_name_H-M   'P n m a'
_symmetry_Int_Tables_number      62
_space_group_name_Hall           '-P 2ac 2n'
loop_
_symmetry_equiv_pos_site_id
_symmetry_equiv_pos_as_xyz
1 x,y,z
2 1/2-x,-y,1/2+z
3 1/2+x,1/2-y,1/2-z
4 -x,1/2+y,-z
5 -x,-y,-z
6 1/2+x,y,1/2-z
7 1/2-x,1/2+y,1/2+z
8 x,1/2-y,z
_cell_length_a                   10.929
_cell_length_b                   16.586
_cell_length_c                   19.396
_cell_angle_alpha                90
_cell_angle_beta                 90
_cell_angle_gamma                90
_cell_volume                     3515.88
loop_
_atom_site_label
_atom_site_type_symbol
_atom_site_fract_x
_atom_site_fract_y
_atom_site_fract_z
N1 N 0.4179(4) 0.2500 1.0282(2)
Tb1 Tb 0.28820(2) 0.2500 0.704068(14)
O1 O 0.1804(5) 0.2500 0.8046(2)
O2 O -0.0143(4) 0.2500 0.8327(3)
O3 O 0.3467(5) 0.2500 1.1526(3)
H1 H 0.3548 0.2500 1.1946
O4 O 0.1496(6) 0.2500 1.1801(3)
O5 O 0.3685(3) -0.1464(2) 1.18462(19)
O6 O 0.2223(3) -0.1557(2) 1.1086(2)
O7 O 0.3849(3) 0.3537(3) 0.7690(2)
H2 H 0.4599 0.3541 0.7670
H3 H 0.3397 0.3808 0.7935
C1 C 0.0956(5) 0.2500 0.8475(3)
C2 C 0.1301(5) 0.2500 0.9226(3)
C3 C 0.0415(6) 0.2500 0.9735(4)
H4 H -0.0409 0.2500 0.9617
C4 C 0.0765(7) 0.2500 1.0423(4)
H5 H 0.0169 0.2500 1.0765
C5 C 0.1999(6) 0.2500 1.0607(3)
C6 C 0.2869(5) 0.2500 1.0095(3)
C7 C 0.2527(5) 0.2500 0.9401(3)
H6 H 0.3121 0.2500 0.9059
C8 C 0.2289(7) 0.2500 1.1370(4)
C9 C 0.4812(4) 0.1759(3) 1.0024(2)
H7 H 0.5684 0.1807 1.0110
H8 H 0.4692 0.1715 0.9530
C10 C 0.4335(4) 0.1002(3) 1.0373(2)
C11 C 0.4819(5) 0.0754(3) 1.0995(3)
H9 H 0.5408 0.1069 1.1212
C12 C 0.4441(5) 0.0048(3) 1.1298(3)
H10 H 0.4801 -0.0120 1.1708
C13 C 0.3539(4) -0.0412(2) 1.1003(2)
C14 C 0.3031(4) -0.0165(3) 1.0381(3)
H11 H 0.2420 -0.0472 1.0175
C15 C 0.3431(4) 0.0534(3) 1.0067(2)
H12 H 0.3093 0.0693 0.9649
C16 C 0.3130(4) -0.1187(3) 1.1329(2)
O5G O 0.3685(3) 0.6464(2) 1.18462(19)
O6G O 0.2223(3) 0.6557(2) 1.1086(2)
C9G C 0.4812(4) 0.3241(3) 1.0024(2)
H7G H 0.5684 0.3193 1.0110
H8G H 0.4692 0.3285 0.9530
C10G C 0.4335(4) 0.3998(3) 1.0373(2)
C11G C 0.4819(5) 0.4246(3) 1.0995(3)
H9G H 0.5408 0.3931 1.1212
C12G C 0.4441(5) 0.4952(3) 1.1298(3)
H10G H 0.4801 0.5120 1.1708
C13G C 0.3539(4) 0.5412(2) 1.1003(2)
C14G C 0.3031(4) 0.5165(3) 1.0381(3)
H11G H 0.2420 0.5472 1.0175
C15G C 0.3431(4) 0.4466(3) 1.0067(2)
H12G H 0.3093 0.4307 0.9649
C16G C 0.3130(4) 0.6187(3) 1.1329(2)
O7G O 0.3849(3) 0.1463(3) 0.7690(2)
H2G H 0.4599 0.1459 0.7670
H3G H 0.3397 0.1192 0.7935
Tb1A Tb 0.21180(2) -0.2500 1.204068(14)
Tb1A_2 Tb 0.21180(2) 0.7500 1.204068(14)
Tb1B Tb -0.21180(2) 0.2500 0.795932(14)
O2B O 0.4857(4) 0.2500 0.6673(3)
O5A O 0.1315(3) 0.1464(2) 0.68462(19)
O5F O 0.1315(3) 0.3536(2) 0.68462(19)
O6A O 0.2777(3) 0.1557(2) 0.6086(2)
O6F O 0.2777(3) 0.3443(2) 0.6086(2)
N2 N 0.0968(9) 0.5407(6) 0.8358(5)
O8 O 0.2390(7) 0.4424(4) 0.8438(4)
C17 C 0.0473(15) 0.6133(7) 0.8083(7)
H13 H 0.0506 0.6115 0.7588
H14 H 0.0940 0.6584 0.8246
H15 H -0.0363 0.6189 0.8228
C18 C 0.0244(13) 0.5002(10) 0.8902(6)
H16 H 0.0133 0.5364 0.9284
H17 H 0.0669 0.4529 0.9056
H18 H -0.0540 0.4852 0.8720
C19 C 0.2101(9) 0.5044(5) 0.8150(4)
C20 C 0.2706(12) 0.5515(8) 0.7609(6)
H19 H 0.3362 0.5823 0.7808
H20 H 0.2125 0.5874 0.7401
H21 H 0.3029 0.5157 0.7265
O9 O 0.6140(17) 0.2500 1.1752(10)
N3? N 0.0923(16) 0.5138(11) 0.8559(8)
O10? O 0.2736(18) 0.5003(14) 0.7938(10)
C21? C 0.078(2) 0.4332(12) 0.8782(13)
H22? H 0.1491 0.4026 0.8659
H23? H 0.0071 0.4101 0.8564
H24? H 0.0673 0.4322 0.9273
C22? C -0.006(2) 0.5682(16) 0.8795(13)
H25? H -0.0233 0.5577 0.9272
H26? H -0.0783 0.5590 0.8526
H27? H 0.0198 0.6232 0.8742
C23? C 0.1909(17) 0.5443(11) 0.8141(7)
C24? C 0.179(3) 0.6305(11) 0.8002(12)
H28? H 0.1840 0.6600 0.8427
H29? H 0.1009 0.6408 0.7789
H30? H 0.2430 0.6475 0.7698
H31? H 0.6058 0.2864 1.2058
H32? H 0.5359 0.2500 1.1674
loop_
_geom_bond_atom_site_label_1
_geom_bond_atom_site_label_2
_geom_bond_site_symmetry_1
_geom_bond_site_symmetry_2
N1 C6 1_555 1_555
Tb1 O1 1_555 1_555
O1 C1 1_555 1_555
O2 C1 1_555 1_555
O3 H1 1_555 1_555
O4 C8 1_555 1_555
O5 C16 1_555 1_555
O6 C16 1_555 1_555
O7 Tb1 1_555 1_555
H2 O7 1_555 1_555
H3 O7 1_555 1_555
C1 C2 1_555 1_555
C2 C3 1_555 1_555
C3 H4 1_555 1_555
C4 C3 1_555 1_555
H5 C4 1_555 1_555
C5 C4 1_555 1_555
C6 C5 1_555 1_555
C7 C2 1_555 1_555
H6 C7 1_555 1_555
C8 O3 1_555 1_555
C9 N1 1_555 1_555
H7 C9 1_555 1_555
H8 C9 1_555 1_555
C10 C9 1_555 1_555
C11 C10 1_555 1_555
H9 C11 1_555 1_555
C12 C11 1_555 1_555
H10 C12 1_555 1_555
C13 C12 1_555 1_555
C14 C13 1_555 1_555
H11 C14 1_555 1_555
C15 C10 1_555 1_555
H12 C15 1_555 1_555
C16 C13 1_555 1_555
N2 C17 1_555 1_555
O8 C19 1_555 1_555
C17 H13 1_555 1_555
H14 C17 1_555 1_555
H15 C17 1_555 1_555
C18 N2 1_555 1_555
H16 C18 1_555 1_555
H17 C18 1_555 1_555
H18 C18 1_555 1_555
C19 N2 1_555 1_555
C20 C19 1_555 1_555
H19 C20 1_555 1_555
H20 C20 1_555 1_555
H21 C20 1_555 1_555
O5G C16G 1_555 1_555
O6G C16G 1_555 1_555
C9G N1 1_555 1_555
H7G C9G 1_555 1_555
H8G C9G 1_555 1_555
C10G C9G 1_555 1_555
C11G C10G 1_555 1_555
H9G C11G 1_555 1_555
C12G C11G 1_555 1_555
H10G C12G 1_555 1_555
C13G C12G 1_555 1_555
C14G C13G 1_555 1_555
H11G C14G 1_555 1_555
C15G C10G 1_555 1_555
H12G C15G 1_555 1_555
C16G C13G 1_555 1_555
O7G Tb1 1_555 1_555
H2G O7G 1_555 1_555
H3G O7G 1_555 1_555
Tb1A O5 1_555 1_555
Tb1A_2 O5G 1_555 1_555
Tb1B O2 1_555 1_555
O2B Tb1 1_555 1_555
O5A Tb1 1_555 1_555
O5F Tb1 1_555 1_555
O6A Tb1 1_555 1_555
O6F Tb1 1_555 1_555
O6 Tb1A 1_555 1_555
C5 C8 1_555 1_555
C6 C7 1_555 1_555
C14 C15 1_555 1_555
O6G Tb1A_2 1_555 1_555
C14G C15G 1_555 1_555

#END
