
#######################################################################
#
#                 Cambridge Crystallographic Data Centre
#                                CCDC 
#
#######################################################################
#
# If this CIF has been generated from an entry in the Cambridge 
# Structural Database, then it will include bibliographic, chemical, 
# crystal, experimental, refinement or atomic coordinate data resulting 
# from the CCDC's data processing and validation procedures.
#
#######################################################################

data_TORMAQ
_symmetry_cell_setting           monoclinic
_symmetry_space_group_name_H-M   'C 2/c'
_symmetry_Int_Tables_number      15
_space_group_name_Hall           '-C 2yn'
loop_
_symmetry_equiv_pos_site_id
_symmetry_equiv_pos_as_xyz
1 x,y,z
2 -x,y,1/2-z
3 1/2+x,1/2+y,z
4 1/2-x,1/2+y,1/2-z
5 -x,-y,-z
6 x,-y,1/2+z
7 1/2-x,1/2-y,-z
8 1/2+x,1/2-y,1/2+z
_cell_length_a                   26.8616(16)
_cell_length_b                   14.8443(10)
_cell_length_c                   12.5502(8)
_cell_angle_alpha                90
_cell_angle_beta                 107.393(5)
_cell_angle_gamma                90
_cell_volume                     4775.48
loop_
_atom_site_label
_atom_site_type_symbol
_atom_site_fract_x
_atom_site_fract_y
_atom_site_fract_z
C1 C 0.5178(2) 0.6397(4) 0.6271(5)
C2 C 0.5185(2) 0.7336(4) 0.6297(5)
H1 H 0.5500 0.7642 0.6556
C3 C 0.4723(2) 0.7811(4) 0.5937(5)
C4 C 0.4269(2) 0.7322(4) 0.5536(5)
H2 H 0.3956 0.7637 0.5303
C5 C 0.4701(2) 0.5972(4) 0.5828(5)
H3 H 0.4695 0.5346 0.5786
C6 C 0.5669(2) 0.5856(4) 0.6722(5)
C7 C 0.4701(2) 0.8828(4) 0.5964(5)
C8 C 0.5641(2) 0.2180(4) 0.6929(5)
H4 H 0.5358 0.2567 0.6801
C9 C 0.5943(2) 0.0760(4) 0.6882(6)
H5 H 0.5884 0.0150 0.6728
C10 C 0.6445(2) 0.1073(4) 0.7237(6)
H6 H 0.6729 0.0687 0.7350
C11 C 0.6511(2) 0.1974(4) 0.7415(6)
H7 H 0.6848 0.2205 0.7648
C12 C 0.2588(2) 0.7200(4) 0.3862(5)
H8 H 0.2879 0.7573 0.4009
C13 C 0.1714(2) 0.7041(4) 0.3228(5)
H9 H 0.1382 0.7275 0.2907
C14 C 0.1764(2) 0.6144(4) 0.3508(6)
H10 H 0.1473 0.5775 0.3404
C15 C 0.2263(2) 0.5814(4) 0.3950(5)
H11 H 0.2309 0.5205 0.4124
C16 C 0.3907(2) 1.2331(4) 0.5233(5)
H12 H 0.4210 1.2658 0.5554
C17 C 0.3441(2) 1.2804(4) 0.4784(5)
C18 C 0.2996(2) 1.2304(4) 0.4307(5)
H13 H 0.2678 1.2594 0.4008
C19 C 0.3022(2) 1.1373(4) 0.4273(5)
C20 C 0.3496(2) 1.0971(4) 0.4752(5)
H14 H 0.3513 1.0345 0.4752
C21 C 0.3429(2) 1.3810(4) 0.4811(5)
C22 C 0.2539(2) 1.0837(4) 0.3704(4)
N1 N 0.42526(17) 0.6416(3) 0.5461(4)
N2 N 0.61077(19) 0.2547(3) 0.7269(4)
N3 N 0.55368(18) 0.1307(3) 0.6752(4)
N4 N 0.26789(17) 0.6339(3) 0.4135(4)
N5 N 0.21261(19) 0.7592(3) 0.3401(4)
N6 N 0.39377(17) 1.1433(3) 0.5222(4)
O1 O 0.56356(15) 0.5024(3) 0.6655(4)
O2 O 0.60754(15) 0.6303(3) 0.7147(4)
O3 O 0.51241(17) 0.9232(3) 0.6111(4)
O4 O 0.42683(16) 0.9188(3) 0.5795(4)
O5 O 0.38028(18) 1.4212(3) 0.5494(4)
O6 O 0.30454(18) 1.4200(3) 0.4161(4)
O7 O 0.21326(14) 1.1264(3) 0.3288(4)
O8 O 0.25912(15) 0.9994(3) 0.3684(4)
Ag1 Ag 0.629564(18) 0.41517(3) 0.75180(4)
Ag2 Ag 0.348259(16) 0.57279(3) 0.48414(5)
Ag3 Ag 0.689768(17) 0.58162(3) 0.78364(4)
Ag4 Ag 0.471176(16) 1.07337(3) 0.59118(5)
N3_2 N 0.55368(18) 1.1307(3) 0.6752(4)
N5G N 0.71261(19) 0.7408(3) 0.8401(4)
O3D O 0.48759(17) 1.0768(3) 0.3889(4)
O5_2 O 0.38028(18) 0.4212(3) 0.5494(4)
O5A O 0.61972(18) 0.4212(3) 0.9506(4)
O6_2 O 0.30454(18) 0.4200(3) 0.4161(4)
O6D O 0.69546(18) 0.5800(3) 0.5839(4)
O7G O 0.71326(14) 0.3736(3) 0.8288(4)
O8G O 0.75912(15) 0.5006(3) 0.8684(4)
Ag1A Ag 0.370436(18) 1.41517(3) 0.74820(4)
Ag1D Ag 0.370436(18) 0.58483(3) 0.24820(4)
Ag1G Ag 0.129564(18) 1.08483(3) 0.25180(4)
Ag2_2 Ag 0.348259(16) 1.57279(3) 0.48414(5)
Ag2D Ag 0.651741(16) 0.42721(3) 0.51586(5)
Ag3D Ag 0.310232(17) 1.41838(3) 0.21636(4)
Ag3G Ag 0.189768(17) 0.91838(3) 0.28364(4)
Ag4_2 Ag 0.471176(16) 0.07337(3) 0.59118(5)
Ag4D Ag 0.528824(16) 0.92663(3) 0.40882(5)
loop_
_geom_bond_atom_site_label_1
_geom_bond_atom_site_label_2
_geom_bond_site_symmetry_1
_geom_bond_site_symmetry_2
C1 C2 1_555 1_555
C2 H1 1_555 1_555
C3 C2 1_555 1_555
C4 C3 1_555 1_555
H2 C4 1_555 1_555
C5 C1 1_555 1_555
H3 C5 1_555 1_555
C6 C1 1_555 1_555
C7 C3 1_555 1_555
C8 H4 1_555 1_555
C9 H5 1_555 1_555
C10 C9 1_555 1_555
H6 C10 1_555 1_555
C11 C10 1_555 1_555
H7 C11 1_555 1_555
C12 H8 1_555 1_555
C13 H9 1_555 1_555
C14 C13 1_555 1_555
H10 C14 1_555 1_555
C15 C14 1_555 1_555
H11 C15 1_555 1_555
C16 H12 1_555 1_555
C17 C16 1_555 1_555
C18 C17 1_555 1_555
H13 C18 1_555 1_555
C19 C18 1_555 1_555
C20 C19 1_555 1_555
H14 C20 1_555 1_555
C21 C17 1_555 1_555
C22 C19 1_555 1_555
N1 C4 1_555 1_555
N2 C8 1_555 1_555
N3 C8 1_555 1_555
N4 C12 1_555 1_555
N5 C12 1_555 1_555
N6 C16 1_555 1_555
O1 C6 1_555 1_555
O2 C6 1_555 1_555
O3 C7 1_555 1_555
O4 C7 1_555 1_555
O5 C21 1_555 1_555
O6 C21 1_555 1_555
O7 C22 1_555 1_555
O8 C22 1_555 1_555
Ag1 N2 1_555 1_555
Ag2 N1 1_555 1_555
Ag3 O2 1_555 1_555
Ag4 N6 1_555 1_555
N3_2 Ag4 1_555 1_555
N5G Ag3 1_555 1_555
O3D Ag4 1_555 1_555
O5_2 Ag2 1_555 1_555
O5A Ag1 1_555 1_555
O6_2 Ag2 1_555 1_555
O6D Ag3 1_555 1_555
O7G Ag1 1_555 1_555
O8G Ag3 1_555 1_555
Ag1A O5 1_555 1_555
Ag1D Ag2 1_555 1_555
Ag1G O7 1_555 1_555
Ag2_2 O5 1_555 1_555
Ag2D Ag1 1_555 1_555
Ag3D O6 1_555 1_555
Ag3G N5 1_555 1_555
Ag4_2 N3 1_555 1_555
Ag4D O3 1_555 1_555
C5 N1 1_555 1_555
C9 N3 1_555 1_555
C11 N2 1_555 1_555
C13 N5 1_555 1_555
C15 N4 1_555 1_555
C20 N6 1_555 1_555
N4 Ag2 1_555 1_555
O1 Ag1 1_555 1_555
O3 Ag4 1_555 1_555
O4 Ag4 1_555 1_555
O6 Ag2_2 1_555 1_555
O8 Ag3G 1_555 1_555
Ag1 Ag3 1_555 1_555
O3D Ag4D 1_555 1_555
O6D Ag2D 1_555 1_555
Ag1G Ag3G 1_555 1_555

#END
