
#######################################################################
#
#                 Cambridge Crystallographic Data Centre
#                                CCDC 
#
#######################################################################
#
# If this CIF has been generated from an entry in the Cambridge 
# Structural Database, then it will include bibliographic, chemical, 
# crystal, experimental, refinement or atomic coordinate data resulting 
# from the CCDC's data processing and validation procedures.
#
#######################################################################

data_TOVKEW
_symmetry_cell_setting           orthorhombic
_symmetry_space_group_name_H-M   'P b c m'
_symmetry_Int_Tables_number      57
_space_group_name_Hall           '-P 2c 2b'
loop_
_symmetry_equiv_pos_site_id
_symmetry_equiv_pos_as_xyz
1 x,y,z
2 -x,-y,1/2+z
3 x,1/2-y,-z
4 -x,1/2+y,1/2-z
5 -x,-y,-z
6 x,y,1/2-z
7 -x,1/2+y,z
8 x,1/2-y,1/2+z
_cell_length_a                   14.9208(14)
_cell_length_b                   41.280(4)
_cell_length_c                   38.398(3)
_cell_angle_alpha                90
_cell_angle_beta                 90
_cell_angle_gamma                90
_cell_volume                     23650.5
loop_
_atom_site_label
_atom_site_type_symbol
_atom_site_fract_x
_atom_site_fract_y
_atom_site_fract_z
Fe1 Fe -0.04004(6) 0.18737(2) 0.2500
Fe2 Fe -0.07220(6) 0.10808(2) 0.2500
Fe3 Fe -0.24727(7) 0.15692(2) 0.2500
O1 O 0.0428(2) 0.16952(8) 0.21227(8)
O2 O 0.0173(3) 0.11660(9) 0.21290(10)
O3 O 0.1558(3) -0.09120(8) -0.21320(10)
O4 O 0.2722(2) -0.12349(8) -0.21330(9)
O5 O 0.7540(3) 0.30876(9) -0.21222(10)
O6 O 0.8914(3) 0.28840(8) -0.21284(9)
O7 O 1.2431(5) -0.0060(2) 0.1501(2)
O8 O 1.2565(5) -0.0471(2) 0.1120(2)
O9 O 0.0451(3) 0.22702(12) 0.2500
O10 O -0.0184(3) 0.06089(12) 0.2500
O11 O -0.3859(3) 0.16352(12) 0.2500
O12 O -0.1205(3) 0.15085(9) 0.2500
C1 C 0.0567(3) 0.14129(15) 0.20189(12)
C2 C 0.1242(4) 0.13636(14) 0.17422(14)
C3 C 0.1374(5) 0.10566(15) 0.16022(17)
H1 H 0.1030 0.0884 0.1681
C4 C 0.2005(5) 0.10059(16) 0.13494(18)
H2 H 0.2065 0.0800 0.1255
C5 C 0.2556(4) 0.12522(15) 0.12294(14)
C6 C 0.2401(4) 0.15561(14) 0.13632(16)
H3 H 0.2737 0.1730 0.1281
C7 C 0.1764(4) 0.16112(14) 0.16141(15)
H4 H 0.1685 0.1820 0.1699
C8 C 0.3257(4) 0.11859(14) 0.09629(14)
C9 C 0.3618(5) 0.08844(17) 0.09295(17)
H5 H 0.3445 0.0723 0.1084
C10 C 0.4234(5) 0.08123(16) 0.06733(17)
H6 H 0.4456 0.0602 0.0661
C11 C 0.4537(3) 0.10387(12) 0.04330(12)
C12 C 0.4138(5) 0.13238(16) 0.04655(17)
H7 H 0.4296 0.1485 0.0308
C13 C 0.3503(5) 0.14004(15) 0.07167(18)
H8 H 0.3241 0.1605 0.0715
C14 C 0.5178(3) 0.09423(11) 0.01500(11)
C15 C 0.4728(3) 0.06910(10) -0.00879(11)
H9 H 0.4534 0.0508 0.0051
H10 H 0.4201 0.0787 -0.0194
C16 C 0.5355(3) 0.05716(11) -0.03726(12)
C17 C 0.5644(3) 0.08695(11) -0.05918(12)
H11 H 0.6041 0.0799 -0.0777
H12 H 0.5119 0.0966 -0.0698
C18 C 0.6122(3) 0.11229(11) -0.03692(12)
C19 C 0.5466(3) 0.12315(11) -0.00771(12)
H13 H 0.5755 0.1393 0.0068
H14 H 0.4940 0.1330 -0.0181
C20 C 0.6023(3) 0.07904(12) 0.03122(12)
H15 H 0.5849 0.0610 0.0459
H16 H 0.6318 0.0950 0.0458
C21 C 0.6194(3) 0.04257(11) -0.02018(12)
H17 H 0.6021 0.0239 -0.0064
H18 H 0.6600 0.0352 -0.0382
C22 C 0.6943(4) 0.09662(12) -0.01989(13)
H19 H 0.7250 0.1126 -0.0057
H20 H 0.7354 0.0895 -0.0379
C23 C 0.6684(3) 0.06708(12) 0.00338(13)
C24 C 0.4898(4) 0.03248(11) -0.06139(12)
C25 C 0.3994(4) 0.02549(16) -0.05951(16)
H21 H 0.3645 0.0358 -0.0428
C26 C 0.3597(4) 0.00374(16) -0.08168(18)
H22 H 0.2990 -0.0007 -0.0790
C27 C 0.4064(4) -0.01190(12) -0.10784(13)
C28 C 0.4948(4) -0.00648(15) -0.10787(17)
H23 H 0.5301 -0.0177 -0.1238
C29 C 0.5372(4) 0.01539(15) -0.08491(17)
H24 H 0.5990 0.0180 -0.0861
C30 C 0.3622(4) -0.03461(13) -0.13135(13)
C31 C 0.2741(5) -0.03130(16) -0.14041(18)
H25 H 0.2411 -0.0145 -0.1306
C32 C 0.2321(4) -0.05194(16) -0.16354(17)
H26 H 0.1726 -0.0482 -0.1695
C33 C 0.2748(4) -0.07707(12) -0.17748(13)
C34 C 0.3612(5) -0.08123(14) -0.16880(17)
H27 H 0.3929 -0.0985 -0.1784
C35 C 0.4048(4) -0.06030(15) -0.14576(17)
H28 H 0.4645 -0.0641 -0.1402
C36 C 0.2305(4) -0.09942(13) -0.20308(13)
C37 C 0.6402(5) 0.14066(17) -0.0598(2)
C38 C 0.7005(5) 0.13610(16) -0.08609(19)
H29 H 0.7236 0.1154 -0.0895
C39 C 0.7292(5) 0.16119(16) -0.10832(19)
H30 H 0.7700 0.1567 -0.1260
C40 C 0.6983(5) 0.19156(17) -0.1043(2)
C41 C 0.6358(5) 0.19426(16) -0.08228(19)
H31 H 0.6059 0.2140 -0.0808
C42 C 0.6085(5) 0.16882(16) -0.05957(19)
H32 H 0.5639 0.1734 -0.0434
C43 C 0.7299(5) 0.21746(14) -0.12845(15)
C44 C 0.8138(4) 0.21820(16) -0.14196(19)
H33 H 0.8546 0.2023 -0.1355
C45 C 0.8403(4) 0.24168(15) -0.16484(17)
H34 H 0.8989 0.2415 -0.1730
C46 C 0.7840(4) 0.26499(12) -0.17586(14)
C47 C 0.6987(4) 0.26433(14) -0.16321(17)
H35 H 0.6579 0.2801 -0.1703
C48 C 0.6718(5) 0.24068(16) -0.14014(18)
H36 H 0.6129 0.2405 -0.1323
C49 C 0.8139(4) 0.28929(12) -0.20243(13)
C50 C 0.7505(5) 0.0533(2) 0.0196(2)
C51 C 0.7825(5) 0.02373(18) 0.01289(19)
H37 H 0.7557 0.0115 -0.0046
C52 C 0.8569(5) 0.01000(19) 0.03172(19)
H38 H 0.8725 -0.0116 0.0281
C53 C 0.9054(5) 0.0284(2) 0.0551(2)
C54 C 0.8708(5) 0.05799(18) 0.06215(19)
H39 H 0.8970 0.0706 0.0795
C55 C 0.7973(5) 0.07001(19) 0.04416(19)
H40 H 0.7787 0.0910 0.0493
C56 C 0.9877(8) 0.0165(4) 0.0727(4)
C57 C 1.0322(8) -0.0085(3) 0.0595(3)
H41 H 1.0118 -0.0180 0.0390
C58 C 1.1112(8) -0.0212(3) 0.0760(3)
H42 H 1.1411 -0.0391 0.0670
C59 C 1.1400(8) -0.0062(4) 0.1048(4)
C60 C 1.0878(8) 0.0156(3) 0.1234(3)
H43 H 1.1043 0.0232 0.1453
C61 C 1.0040(8) 0.0261(3) 0.1060(3)
H44 H 0.9629 0.0390 0.1178
C62 C 1.2190(8) -0.0241(4) 0.1199(4)
O1D O -0.0428(2) -0.16952(8) -0.21227(8)
O2D O -0.0173(3) -0.11660(9) -0.21290(10)
O3D O -0.1558(3) 0.09120(8) 0.21320(10)
O4D O -0.2722(2) 0.12349(8) 0.21330(9)
O5D O -0.7540(3) -0.30876(9) 0.21222(10)
O6D O -0.8914(3) -0.28840(8) 0.21284(9)
O7D O -1.2431(5) 0.0060(2) -0.1501(2)
O8D O -1.2565(5) 0.0471(2) -0.1120(2)
C1D C -0.0567(3) -0.14129(15) -0.20189(12)
C2D C -0.1242(4) -0.13636(14) -0.17422(14)
C3D C -0.1374(5) -0.10566(15) -0.16022(17)
H1D H -0.1030 -0.0884 -0.1681
C4D C -0.2005(5) -0.10059(16) -0.13494(18)
H2D H -0.2065 -0.0800 -0.1255
C5D C -0.2556(4) -0.12522(15) -0.12294(14)
C6D C -0.2401(4) -0.15561(14) -0.13632(16)
H3D H -0.2737 -0.1730 -0.1281
C7D C -0.1764(4) -0.16112(14) -0.16141(15)
H4D H -0.1685 -0.1820 -0.1699
C8D C -0.3257(4) -0.11859(14) -0.09629(14)
C9D C -0.3618(5) -0.08844(17) -0.09295(17)
H5D H -0.3445 -0.0723 -0.1084
C10D C -0.4234(5) -0.08123(16) -0.06733(17)
H6D H -0.4456 -0.0602 -0.0661
C11D C -0.4537(3) -0.10387(12) -0.04330(12)
C12D C -0.4138(5) -0.13238(16) -0.04655(17)
H7D H -0.4296 -0.1485 -0.0308
C13D C -0.3503(5) -0.14004(15) -0.07167(18)
H8D H -0.3241 -0.1605 -0.0715
C14D C -0.5178(3) -0.09423(11) -0.01500(11)
C15D C -0.4728(3) -0.06910(10) 0.00879(11)
H9D H -0.4534 -0.0508 -0.0051
H10D H -0.4201 -0.0787 0.0194
C16D C -0.5355(3) -0.05716(11) 0.03726(12)
C17D C -0.5644(3) -0.08695(11) 0.05918(12)
H11D H -0.6041 -0.0799 0.0777
H12D H -0.5119 -0.0966 0.0698
C18D C -0.6122(3) -0.11229(11) 0.03692(12)
C19D C -0.5466(3) -0.12315(11) 0.00771(12)
H13D H -0.5755 -0.1393 -0.0068
H14D H -0.4940 -0.1330 0.0181
C20D C -0.6023(3) -0.07904(12) -0.03122(12)
H15D H -0.5849 -0.0610 -0.0459
H16D H -0.6318 -0.0950 -0.0458
C21D C -0.6194(3) -0.04257(11) 0.02018(12)
H17D H -0.6021 -0.0239 0.0064
H18D H -0.6600 -0.0352 0.0382
C22D C -0.6943(4) -0.09662(12) 0.01989(13)
H19D H -0.7250 -0.1126 0.0057
H20D H -0.7354 -0.0895 0.0379
C23D C -0.6684(3) -0.06708(12) -0.00338(13)
C24D C -0.4898(4) -0.03248(11) 0.06139(12)
C25D C -0.3994(4) -0.02549(16) 0.05951(16)
H21D H -0.3645 -0.0358 0.0428
C26D C -0.3597(4) -0.00374(16) 0.08168(18)
H22D H -0.2990 0.0007 0.0790
C27D C -0.4064(4) 0.01190(12) 0.10784(13)
C28D C -0.4948(4) 0.00648(15) 0.10787(17)
H23D H -0.5301 0.0177 0.1238
C29D C -0.5372(4) -0.01539(15) 0.08491(17)
H24D H -0.5990 -0.0180 0.0861
C30D C -0.3622(4) 0.03461(13) 0.13135(13)
C31D C -0.2741(5) 0.03130(16) 0.14041(18)
H25D H -0.2411 0.0145 0.1306
C32D C -0.2321(4) 0.05194(16) 0.16354(17)
H26D H -0.1726 0.0482 0.1695
C33D C -0.2748(4) 0.07707(12) 0.17748(13)
C34D C -0.3612(5) 0.08123(14) 0.16880(17)
H27D H -0.3929 0.0985 0.1784
C35D C -0.4048(4) 0.06030(15) 0.14576(17)
H28D H -0.4645 0.0641 0.1402
C36D C -0.2305(4) 0.09942(13) 0.20308(13)
C37D C -0.6402(5) -0.14066(17) 0.0598(2)
C38D C -0.7005(5) -0.13610(16) 0.08609(19)
H29D H -0.7236 -0.1154 0.0895
C39D C -0.7292(5) -0.16119(16) 0.10832(19)
H30D H -0.7700 -0.1567 0.1260
C40D C -0.6983(5) -0.19156(17) 0.1043(2)
C41D C -0.6358(5) -0.19426(16) 0.08228(19)
H31D H -0.6059 -0.2140 0.0808
C42D C -0.6085(5) -0.16882(16) 0.05957(19)
H32D H -0.5639 -0.1734 0.0434
C43D C -0.7299(5) -0.21746(14) 0.12845(15)
C44D C -0.8138(4) -0.21820(16) 0.14196(19)
H33D H -0.8546 -0.2023 0.1355
C45D C -0.8403(4) -0.24168(15) 0.16484(17)
H34D H -0.8989 -0.2415 0.1730
C46D C -0.7840(4) -0.26499(12) 0.17586(14)
C47D C -0.6987(4) -0.26433(14) 0.16321(17)
H35D H -0.6579 -0.2801 0.1703
C48D C -0.6718(5) -0.24068(16) 0.14014(18)
H36D H -0.6129 -0.2405 0.1323
C49D C -0.8139(4) -0.28929(12) 0.20243(13)
C50D C -0.7505(5) -0.0533(2) -0.0196(2)
C51D C -0.7825(5) -0.02373(18) -0.01289(19)
H37D H -0.7557 -0.0115 0.0046
C52D C -0.8569(5) -0.01000(19) -0.03172(19)
H38D H -0.8725 0.0116 -0.0281
C53D C -0.9054(5) -0.0284(2) -0.0551(2)
C54D C -0.8708(5) -0.05799(18) -0.06215(19)
H39D H -0.8970 -0.0706 -0.0795
C55D C -0.7973(5) -0.07001(19) -0.04416(19)
H40D H -0.7787 -0.0910 -0.0493
C56D C -0.9877(8) -0.0165(4) -0.0727(4)
C57D C -1.0322(8) 0.0085(3) -0.0595(3)
H41D H -1.0118 0.0180 -0.0390
C58D C -1.1112(8) 0.0212(3) -0.0760(3)
H42D H -1.1411 0.0391 -0.0670
C59D C -1.1400(8) 0.0062(4) -0.1048(4)
C60D C -1.0878(8) -0.0156(3) -0.1234(3)
H43D H -1.1043 -0.0232 -0.1453
C61D C -1.0040(8) -0.0261(3) -0.1060(3)
H44D H -0.9629 -0.0390 -0.1178
C62D C -1.2190(8) 0.0241(4) -0.1199(4)
Fe1A Fe 0.04004(6) -0.18737(2) -0.2500
Fe1B Fe 0.95996(6) 0.31263(2) -0.2500
Fe1C Fe -0.95996(6) -0.31263(2) 0.2500
Fe2A Fe 0.07220(6) -0.10808(2) -0.2500
Fe3A Fe 0.24727(7) -0.15692(2) -0.2500
Fe3B Fe 0.75273(7) 0.34308(2) -0.2500
Fe3C Fe -0.75273(7) -0.34308(2) 0.2500
O1E O 0.0428(2) 0.16952(8) 0.28773(8)
O2E O 0.0173(3) 0.11660(9) 0.28710(10)
O3A O -0.1558(3) 0.09120(8) 0.28680(10)
O4A O -0.2722(2) 0.12349(8) 0.28670(9)
O5B O -0.2460(3) 0.19124(9) 0.21222(10)
O5G O -0.2460(3) 0.19124(9) 0.28778(10)
O6B O -0.1086(3) 0.21160(8) 0.21284(9)
O6G O -0.1086(3) 0.21160(8) 0.28716(9)
loop_
_geom_bond_atom_site_label_1
_geom_bond_atom_site_label_2
_geom_bond_site_symmetry_1
_geom_bond_site_symmetry_2
Fe1 O1 1_555 1_555
Fe2 O2 1_555 1_555
Fe3 O11 1_555 1_555
O1 C1 1_555 1_555
O2 C1 1_555 1_555
O3 C36 1_555 1_555
O4 C36 1_555 1_555
O5 C49 1_555 1_555
O6 C49 1_555 1_555
O7 C62 1_555 1_555
O8 C62 1_555 1_555
O9 Fe1 1_555 1_555
O10 Fe2 1_555 1_555
O12 Fe1 1_555 1_555
C1 C2 1_555 1_555
C2 C3 1_555 1_555
C3 H1 1_555 1_555
C4 C3 1_555 1_555
H2 C4 1_555 1_555
C5 C4 1_555 1_555
C6 C5 1_555 1_555
H3 C6 1_555 1_555
C7 C2 1_555 1_555
H4 C7 1_555 1_555
C8 C5 1_555 1_555
C9 C8 1_555 1_555
H5 C9 1_555 1_555
C10 C9 1_555 1_555
H6 C10 1_555 1_555
C11 C10 1_555 1_555
C12 C11 1_555 1_555
H7 C12 1_555 1_555
C13 C8 1_555 1_555
H8 C13 1_555 1_555
C14 C11 1_555 1_555
C15 C14 1_555 1_555
H9 C15 1_555 1_555
H10 C15 1_555 1_555
C16 C15 1_555 1_555
C17 C16 1_555 1_555
H11 C17 1_555 1_555
H12 C17 1_555 1_555
C18 C17 1_555 1_555
C19 C14 1_555 1_555
H13 C19 1_555 1_555
H14 C19 1_555 1_555
C20 C14 1_555 1_555
H15 C20 1_555 1_555
H16 C20 1_555 1_555
C21 C16 1_555 1_555
H17 C21 1_555 1_555
H18 C21 1_555 1_555
C22 C18 1_555 1_555
H19 C22 1_555 1_555
H20 C22 1_555 1_555
C23 C20 1_555 1_555
C24 C16 1_555 1_555
C25 C24 1_555 1_555
H21 C25 1_555 1_555
C26 C25 1_555 1_555
H22 C26 1_555 1_555
C27 C26 1_555 1_555
C28 C27 1_555 1_555
H23 C28 1_555 1_555
C29 C24 1_555 1_555
H24 C29 1_555 1_555
C30 C27 1_555 1_555
C31 C30 1_555 1_555
H25 C31 1_555 1_555
C32 C31 1_555 1_555
H26 C32 1_555 1_555
C33 C32 1_555 1_555
C34 C33 1_555 1_555
H27 C34 1_555 1_555
C35 C30 1_555 1_555
H28 C35 1_555 1_555
C36 C33 1_555 1_555
C37 C18 1_555 1_555
C38 C37 1_555 1_555
H29 C38 1_555 1_555
C39 C38 1_555 1_555
H30 C39 1_555 1_555
C40 C39 1_555 1_555
C41 C40 1_555 1_555
H31 C41 1_555 1_555
C42 C37 1_555 1_555
H32 C42 1_555 1_555
C43 C40 1_555 1_555
C44 C43 1_555 1_555
H33 C44 1_555 1_555
C45 C44 1_555 1_555
H34 C45 1_555 1_555
C46 C45 1_555 1_555
C47 C46 1_555 1_555
H35 C47 1_555 1_555
C48 C43 1_555 1_555
H36 C48 1_555 1_555
C49 C46 1_555 1_555
C50 C23 1_555 1_555
C51 C50 1_555 1_555
H37 C51 1_555 1_555
C52 C51 1_555 1_555
H38 C52 1_555 1_555
C53 C52 1_555 1_555
C54 C53 1_555 1_555
H39 C54 1_555 1_555
C55 C50 1_555 1_555
H40 C55 1_555 1_555
C56 C53 1_555 1_555
C57 C56 1_555 1_555
H41 C57 1_555 1_555
C58 C57 1_555 1_555
H42 C58 1_555 1_555
C59 C58 1_555 1_555
C60 C59 1_555 1_555
H43 C60 1_555 1_555
C61 C56 1_555 1_555
H44 C61 1_555 1_555
C62 C59 1_555 1_555
O1D C1D 1_555 1_555
O2D C1D 1_555 1_555
O3D Fe2 1_555 1_555
O4D Fe3 1_555 1_555
O5D C49D 1_555 1_555
O6D C49D 1_555 1_555
O7D C62D 1_555 1_555
O8D C62D 1_555 1_555
C1D C2D 1_555 1_555
C2D C3D 1_555 1_555
C3D H1D 1_555 1_555
C4D C3D 1_555 1_555
H2D C4D 1_555 1_555
C5D C4D 1_555 1_555
C6D C5D 1_555 1_555
H3D C6D 1_555 1_555
C7D C2D 1_555 1_555
H4D C7D 1_555 1_555
C8D C5D 1_555 1_555
C9D C8D 1_555 1_555
H5D C9D 1_555 1_555
C10D C9D 1_555 1_555
H6D C10D 1_555 1_555
C11D C10D 1_555 1_555
C12D C11D 1_555 1_555
H7D C12D 1_555 1_555
C13D C8D 1_555 1_555
H8D C13D 1_555 1_555
C14D C11D 1_555 1_555
C15D C14D 1_555 1_555
H9D C15D 1_555 1_555
H10D C15D 1_555 1_555
C16D C15D 1_555 1_555
C17D C16D 1_555 1_555
H11D C17D 1_555 1_555
H12D C17D 1_555 1_555
C18D C17D 1_555 1_555
C19D C14D 1_555 1_555
H13D C19D 1_555 1_555
H14D C19D 1_555 1_555
C20D C14D 1_555 1_555
H15D C20D 1_555 1_555
H16D C20D 1_555 1_555
C21D C16D 1_555 1_555
H17D C21D 1_555 1_555
H18D C21D 1_555 1_555
C22D C18D 1_555 1_555
H19D C22D 1_555 1_555
H20D C22D 1_555 1_555
C23D C20D 1_555 1_555
C24D C16D 1_555 1_555
C25D C24D 1_555 1_555
H21D C25D 1_555 1_555
C26D C25D 1_555 1_555
H22D C26D 1_555 1_555
C27D C26D 1_555 1_555
C28D C27D 1_555 1_555
H23D C28D 1_555 1_555
C29D C24D 1_555 1_555
H24D C29D 1_555 1_555
C30D C27D 1_555 1_555
C31D C30D 1_555 1_555
H25D C31D 1_555 1_555
C32D C31D 1_555 1_555
H26D C32D 1_555 1_555
C33D C32D 1_555 1_555
C34D C33D 1_555 1_555
H27D C34D 1_555 1_555
C35D C30D 1_555 1_555
H28D C35D 1_555 1_555
C36D O3D 1_555 1_555
C37D C18D 1_555 1_555
C38D C37D 1_555 1_555
H29D C38D 1_555 1_555
C39D C38D 1_555 1_555
H30D C39D 1_555 1_555
C40D C39D 1_555 1_555
C41D C40D 1_555 1_555
H31D C41D 1_555 1_555
C42D C37D 1_555 1_555
H32D C42D 1_555 1_555
C43D C40D 1_555 1_555
C44D C43D 1_555 1_555
H33D C44D 1_555 1_555
C45D C44D 1_555 1_555
H34D C45D 1_555 1_555
C46D C45D 1_555 1_555
C47D C46D 1_555 1_555
H35D C47D 1_555 1_555
C48D C43D 1_555 1_555
H36D C48D 1_555 1_555
C49D C46D 1_555 1_555
C50D C23D 1_555 1_555
C51D C50D 1_555 1_555
H37D C51D 1_555 1_555
C52D C51D 1_555 1_555
H38D C52D 1_555 1_555
C53D C52D 1_555 1_555
C54D C53D 1_555 1_555
H39D C54D 1_555 1_555
C55D C50D 1_555 1_555
H40D C55D 1_555 1_555
C56D C53D 1_555 1_555
C57D C56D 1_555 1_555
H41D C57D 1_555 1_555
C58D C57D 1_555 1_555
H42D C58D 1_555 1_555
C59D C58D 1_555 1_555
C60D C59D 1_555 1_555
H43D C60D 1_555 1_555
C61D C56D 1_555 1_555
H44D C61D 1_555 1_555
C62D C59D 1_555 1_555
Fe1A O1D 1_555 1_555
Fe1B O6 1_555 1_555
Fe1C O6D 1_555 1_555
Fe2A O3 1_555 1_555
Fe3A O4 1_555 1_555
Fe3B O5 1_555 1_555
Fe3C O5D 1_555 1_555
O1E Fe1 1_555 1_555
O2E Fe2 1_555 1_555
O3A Fe2 1_555 1_555
O4A Fe3 1_555 1_555
O5B Fe3 1_555 1_555
O5G Fe3 1_555 1_555
O6B Fe1 1_555 1_555
O6G Fe1 1_555 1_555
Fe2 O12 1_555 1_555
Fe3 O12 1_555 1_555
C6 C7 1_555 1_555
C12 C13 1_555 1_555
C18 C19 1_555 1_555
C21 C23 1_555 1_555
C22 C23 1_555 1_555
C28 C29 1_555 1_555
C34 C35 1_555 1_555
C41 C42 1_555 1_555
C47 C48 1_555 1_555
C54 C55 1_555 1_555
C60 C61 1_555 1_555
O2D Fe2A 1_555 1_555
O4D C36D 1_555 1_555
C6D C7D 1_555 1_555
C12D C13D 1_555 1_555
C18D C19D 1_555 1_555
C21D C23D 1_555 1_555
C22D C23D 1_555 1_555
C28D C29D 1_555 1_555
C33D C36D 1_555 1_555
C34D C35D 1_555 1_555
C41D C42D 1_555 1_555
C47D C48D 1_555 1_555
C54D C55D 1_555 1_555
C60D C61D 1_555 1_555

#END
