
#######################################################################
#
#                 Cambridge Crystallographic Data Centre
#                                CCDC 
#
#######################################################################
#
# If this CIF has been generated from an entry in the Cambridge 
# Structural Database, then it will include bibliographic, chemical, 
# crystal, experimental, refinement or atomic coordinate data resulting 
# from the CCDC's data processing and validation procedures.
#
#######################################################################

data_TOVWOS
_symmetry_cell_setting           triclinic
_symmetry_space_group_name_H-M   'P -1'
_symmetry_Int_Tables_number      2
_space_group_name_Hall           '-P 1'
loop_
_symmetry_equiv_pos_site_id
_symmetry_equiv_pos_as_xyz
1 x,y,z
2 -x,-y,-z
_cell_length_a                   9.862(2)
_cell_length_b                   13.348(3)
_cell_length_c                   18.934(4)
_cell_angle_alpha                75.217(5)
_cell_angle_beta                 81.616(5)
_cell_angle_gamma                88.983(5)
_cell_volume                     2383.68
loop_
_atom_site_label
_atom_site_type_symbol
_atom_site_fract_x
_atom_site_fract_y
_atom_site_fract_z
C1 C 0.2401(5) 0.1780(3) 0.4248(3)
C2 C 0.3770(4) 0.2268(3) 0.3892(3)
C3 C 0.4975(4) 0.1687(3) 0.3957(3)
H1 H 0.4919 0.0979 0.4177
C4 C 0.6238(4) 0.2175(3) 0.3692(3)
C5 C 0.6317(5) 0.3242(4) 0.3368(3)
H2 H 0.7168 0.3575 0.3203
C6 C 0.5130(5) 0.3802(4) 0.3294(3)
C7 C 0.3817(5) 0.3321(3) 0.3558(3)
H3 H 0.3019 0.3699 0.3508
C8 C 0.7528(4) 0.1589(3) 0.3792(2)
C9 C 0.4340(4) 0.6454(2) 0.2644(3)
C10 C 0.5576(3) 0.6995(3) 0.2369(3)
H4 H 0.6396 0.6641 0.2368
C11 C 0.5585(4) 0.8066(3) 0.2096(3)
H5 H 0.6412 0.8428 0.1912
C12 C 0.4359(5) 0.8596(2) 0.2098(3)
H6 H 0.4366 0.9312 0.1915
C13 C 0.3123(4) 0.8055(3) 0.2372(3)
H7 H 0.2303 0.8409 0.2374
C14 C 0.3114(3) 0.6984(3) 0.2645(3)
H8 H 0.2287 0.6622 0.2829
C15 C 0.0602(5) 0.2229(3) 0.6054(3)
C16 C 0.0600(4) 0.2859(3) 0.6615(3)
C17 C 0.0439(4) 0.3932(3) 0.6385(3)
H9 H 0.0373 0.4246 0.5893
C18 C 0.0378(5) 0.4531(3) 0.6891(3)
C19 C 0.0498(5) 0.4061(4) 0.7629(3)
H10 H 0.0451 0.4456 0.7971
C20 C 0.0688(5) 0.3001(4) 0.7847(3)
C21 C 0.0737(5) 0.2386(4) 0.7347(3)
H11 H 0.0860 0.1676 0.7500
C22 C 0.0177(5) 0.5689(3) 0.6639(3)
C23 C 0.1395(8) 0.1341(4) 0.9547(2)
C24 C 0.1816(10) 0.0323(4) 0.9762(3)
H12 H 0.1911 -0.0086 0.9428
C25 C 0.2097(10) -0.0083(4) 1.0477(4)
H13 H 0.2378 -0.0765 1.0621
C26 C 0.1956(9) 0.0528(6) 1.0977(3)
H14 H 0.2143 0.0256 1.1455
C27 C 0.1534(8) 0.1546(5) 1.0761(3)
H15 H 0.1440 0.1956 1.1096
C28 C 0.1254(7) 0.1953(4) 1.0047(3)
H16 H 0.0973 0.2634 0.9902
C29 C -0.1715(6) -0.0150(5) 0.6825(3)
H17 H -0.1702 0.0561 0.6614
C30 C 0.3369(7) 0.5958(5) 0.4876(4)
H18 H 0.2415 0.5774 0.5024
H19 H 0.3865 0.5667 0.5279
H20 H 0.3719 0.5691 0.4461
C31 C 0.3543(7) 0.7124(5) 0.4662(4)
C32 C 0.6005(7) 0.6958(7) 0.4267(5)
H21 H 0.6067 0.6435 0.4714
H22 H 0.6798 0.7409 0.4149
H23 H 0.5961 0.6635 0.3872
C33 C 0.4902(7) 0.8683(5) 0.4167(4)
H24 H 0.4703 0.8954 0.3673
H25 H 0.5823 0.8877 0.4193
H26 H 0.4273 0.8959 0.4503
C34 C 0.1978(13) 0.6588(7) 0.8427(6)
H27 H 0.1641 0.6414 0.8946
H28 H 0.2957 0.6525 0.8355
H29 H 0.1572 0.6127 0.8199
C35 C 0.1585(9) 0.7757(7) 0.8062(4)
C36 C 0.3868(10) 0.8262(11) 0.8300(7)
H30 H 0.3846 0.8488 0.8744
H31 H 0.4568 0.8644 0.7928
H32 H 0.4062 0.7536 0.8400
C37 C 0.2072(13) 0.9571(7) 0.7725(5)
H33 H 0.1129 0.9570 0.7651
H34 H 0.2635 0.9869 0.7263
H35 H 0.2177 0.9971 0.8070
Co1 Co 0.08170(6) 0.02018(4) 0.56228(4)
Co2 Co 0.05399(6) 0.76117(4) 0.53695(3)
Co3 Co -0.05090(6) 0.77190(5) 0.69813(4)
N1 N 0.5300(4) 0.4896(3) 0.2963(3)
N2 N 0.4217(5) 0.5376(3) 0.2958(3)
N3 N 0.0870(6) 0.2613(4) 0.8613(3)
N4 N 0.1172(7) 0.1710(4) 0.8792(3)
N5 N 0.4763(4) 0.7564(3) 0.4367(3)
N6 N 0.2514(9) 0.8443(7) 0.8035(4)
O1 O 0.2374(3) 0.1011(2) 0.4777(2)
O2 O 0.1357(3) 0.2246(2) 0.39977(18)
O3 O 0.7507(3) 0.0628(2) 0.39605(19)
O4 O 0.8615(3) 0.2151(2) 0.37042(18)
O5 O 0.0849(4) 0.1279(2) 0.62489(19)
O6 O 0.0363(4) 0.2720(2) 0.54358(19)
O7 O 0.0444(3) 0.6082(2) 0.59591(18)
O8 O -0.0219(3) 0.6147(2) 0.71362(19)
O9 O 0.0749(3) -0.0830(2) 0.49374(17)
O10 O -0.0695(3) -0.0650(2) 0.66085(19)
O11 O -0.2723(5) -0.0512(4) 0.7288(3)
O12 O 0.2530(4) 0.7685(3) 0.4748(2)
O13 O 0.0512(5) 0.7897(4) 0.7827(3)
O14 O -0.2350(4) 0.7520(3) 0.7701(2)
Co1A Co -0.08170(6) -0.02018(4) 0.43772(4)
Co1A_2 Co 0.91830(6) -0.02018(4) 0.43772(4)
Co2_2 Co 0.05399(6) -0.23883(4) 0.53695(3)
Co2A Co -0.05399(6) 0.23883(4) 0.46305(3)
Co2A_2 Co 0.94601(6) 0.23883(4) 0.46305(3)
Co3_2 Co -0.05090(6) -0.22810(5) 0.69813(4)
Co3A Co 0.05090(6) 0.22810(5) 0.30187(4)
Co3A_2 Co 1.05090(6) 0.22810(5) 0.30187(4)
O2A O -0.1357(3) 0.7754(2) 0.60023(18)
O3A O 0.2493(3) -0.0628(2) 0.60395(19)
O4A O 0.1385(3) 0.7849(2) 0.62958(18)
O6A O -0.0363(4) 0.7280(2) 0.45642(19)
O9_2 O 0.0749(3) 0.9170(2) 0.49374(17)
O9A O -0.0749(3) 0.0830(2) 0.50626(17)
O10_2 O -0.0695(3) 0.9350(2) 0.66085(19)
C38 C 0.2146(16) 0.5110(16) 0.1202(11)
H36 H 0.1815 0.5290 0.1655
H37 H 0.1737 0.4462 0.1205
H38 H 0.1909 0.5641 0.0793
C39 C 0.362(3) 0.5017(11) 0.1129(9)
C40 C 0.6084(17) 0.5604(14) 0.0824(11)
H39 H 0.6356 0.5673 0.1276
H40 H 0.6565 0.6114 0.0416
H41 H 0.6301 0.4924 0.0764
C41 C 0.405(2) 0.6807(11) 0.0548(8)
H42 H 0.3233 0.6757 0.0339
H43 H 0.4744 0.7192 0.0173
H44 H 0.3855 0.7154 0.0937
N7 N 0.4543(19) 0.5763(9) 0.0849(6)
O15 O 0.4201(9) 0.4115(7) 0.1428(6)
loop_
_geom_bond_atom_site_label_1
_geom_bond_atom_site_label_2
_geom_bond_site_symmetry_1
_geom_bond_site_symmetry_2
C1 C2 1_555 1_555
C2 C3 1_555 1_555
C3 H1 1_555 1_555
C4 C3 1_555 1_555
C5 C4 1_555 1_555
H2 C5 1_555 1_555
C6 C5 1_555 1_555
C7 C2 1_555 1_555
H3 C7 1_555 1_555
C8 C4 1_555 1_555
C9 C10 1_555 1_555
C10 H4 1_555 1_555
C11 C10 1_555 1_555
H5 C11 1_555 1_555
C12 C11 1_555 1_555
H6 C12 1_555 1_555
C13 C12 1_555 1_555
H7 C13 1_555 1_555
C14 C9 1_555 1_555
H8 C14 1_555 1_555
C15 C16 1_555 1_555
C16 C17 1_555 1_555
C17 H9 1_555 1_555
C18 C17 1_555 1_555
C19 C18 1_555 1_555
H10 C19 1_555 1_555
C20 C19 1_555 1_555
C21 C16 1_555 1_555
H11 C21 1_555 1_555
C22 C18 1_555 1_555
C23 C24 1_555 1_555
C24 H12 1_555 1_555
C25 C24 1_555 1_555
H13 C25 1_555 1_555
C26 C25 1_555 1_555
H14 C26 1_555 1_555
C27 C26 1_555 1_555
H15 C27 1_555 1_555
C28 C23 1_555 1_555
H16 C28 1_555 1_555
C29 H17 1_555 1_555
C30 H18 1_555 1_555
H19 C30 1_555 1_555
H20 C30 1_555 1_555
C31 C30 1_555 1_555
C32 H21 1_555 1_555
H22 C32 1_555 1_555
H23 C32 1_555 1_555
C33 H24 1_555 1_555
H25 C33 1_555 1_555
H26 C33 1_555 1_555
C34 H27 1_555 1_555
H28 C34 1_555 1_555
H29 C34 1_555 1_555
C35 C34 1_555 1_555
C36 H30 1_555 1_555
H31 C36 1_555 1_555
H32 C36 1_555 1_555
C37 H33 1_555 1_555
H34 C37 1_555 1_555
H35 C37 1_555 1_555
Co1 O1 1_555 1_555
Co2 O7 1_555 1_555
Co3 O8 1_555 1_555
N1 C6 1_555 1_555
N2 C9 1_555 1_555
N3 C20 1_555 1_555
N4 C23 1_555 1_555
N5 C31 1_555 1_555
N6 C35 1_555 1_555
O1 C1 1_555 1_555
O2 C1 1_555 1_555
O3 C8 1_555 1_555
O4 C8 1_555 1_555
O5 C15 1_555 1_555
O6 C15 1_555 1_555
O7 C22 1_555 1_555
O8 C22 1_555 1_555
O9 Co1 1_555 1_555
O10 C29 1_555 1_555
O11 C29 1_555 1_555
O12 C31 1_555 1_555
O13 C35 1_555 1_555
O14 Co3 1_555 1_555
C38 H36 1_555 1_555
H37 C38 1_555 1_555
H38 C38 1_555 1_555
C39 C38 1_555 1_555
C40 H39 1_555 1_555
H40 C40 1_555 1_555
H41 C40 1_555 1_555
C41 H42 1_555 1_555
H43 C41 1_555 1_555
H44 C41 1_555 1_555
N7 C39 1_555 1_555
O15 C39 1_555 1_555
Co1A O9 1_555 1_555
Co1A_2 O3 1_555 1_555
Co2_2 O9 1_555 1_555
Co2A O2 1_555 1_555
Co2A_2 O4 1_555 1_555
Co3_2 O10 1_555 1_555
Co3A O2 1_555 1_555
Co3A_2 O4 1_555 1_555
O2A Co2 1_555 1_555
O3A Co1 1_555 1_555
O4A Co2 1_555 1_555
O6A Co2 1_555 1_555
O9_2 Co2 1_555 1_555
O9A Co1 1_555 1_555
O10_2 Co3 1_555 1_555
C6 C7 1_555 1_555
C13 C14 1_555 1_555
C20 C21 1_555 1_555
C27 C28 1_555 1_555
C32 N5 1_555 1_555
C33 N5 1_555 1_555
C36 N6 1_555 1_555
C37 N6 1_555 1_555
Co1 O5 1_555 1_555
Co1 O10 1_555 1_555
Co2 O12 1_555 1_555
Co3 O13 1_555 1_555
Co3 O2A 1_555 1_555
Co3 O4A 1_555 1_555
N1 N2 1_555 1_555
N3 N4 1_555 1_555
O6 Co2A 1_555 1_555
C40 N7 1_555 1_555
C41 N7 1_555 1_555
Co1A O9A 1_555 1_555
Co2A O9A 1_555 1_555

#END
