
#######################################################################
#
#                 Cambridge Crystallographic Data Centre
#                                CCDC 
#
#######################################################################
#
# If this CIF has been generated from an entry in the Cambridge 
# Structural Database, then it will include bibliographic, chemical, 
# crystal, experimental, refinement or atomic coordinate data resulting 
# from the CCDC's data processing and validation procedures.
#
#######################################################################

data_TOWGAP
_symmetry_cell_setting           triclinic
_symmetry_space_group_name_H-M   'P -1'
_symmetry_Int_Tables_number      2
_space_group_name_Hall           '-P 1'
loop_
_symmetry_equiv_pos_site_id
_symmetry_equiv_pos_as_xyz
1 x,y,z
2 -x,-y,-z
_cell_length_a                   7.7802(10)
_cell_length_b                   8.4955(9)
_cell_length_c                   11.1403(16)
_cell_angle_alpha                106.505(11)
_cell_angle_beta                 93.882(11)
_cell_angle_gamma                101.494(10)
_cell_volume                     685.756
loop_
_atom_site_label
_atom_site_type_symbol
_atom_site_fract_x
_atom_site_fract_y
_atom_site_fract_z
Zn1 Zn 0.53330(10) 0.90599(9) 0.84216(6)
O1 O 0.7140(5) 0.9138(5) 0.9781(3)
O2 O 0.5615(6) 0.8939(5) 1.1385(4)
C1 C 0.6865(8) 0.8644(7) 1.0738(5)
C2 C 0.8087(8) 0.7708(7) 1.1127(5)
C3 C 0.9696(8) 0.7601(7) 1.0616(5)
H1 H 0.9994 0.8117 1.0002
C4 C 1.0798(8) 0.6756(7) 1.1014(5)
H2 H 1.1860 0.6733 1.0681
N1 N 0.8814(7) 0.6092(6) 1.2427(4)
C5 C 0.7693(8) 0.6957(7) 1.2034(5)
H3 H 0.6654 0.7031 1.2390
N2 N 0.6954(6) 0.9254(6) 0.7114(4)
C6 C 0.8389(9) 0.8603(7) 0.7019(5)
H4 H 0.8579 0.7947 0.7535
C7 C 0.9597(8) 0.8845(7) 0.6207(5)
H5 H 1.0568 0.8357 0.6176
C8 C 0.7857(8) 1.0491(7) 0.5520(5)
H6 H 0.7625 1.1148 0.5015
C9 C 0.6702(8) 1.0180(7) 0.6359(5)
H7 H 0.5707 1.0635 0.6399
C10 C 0.9347(8) 0.9840(7) 0.5422(5)
C11 C 0.8329(8) 0.5302(7) 1.3400(5)
H8 H 0.7741 0.6022 1.3992
H9 H 0.9404 0.5240 1.3861
O3 O 0.6413(6) 0.3029(5) 1.1773(4)
O4 O 0.6900(6) 0.2736(5) 1.3677(4)
C12 C 1.0398(9) 0.5893(7) 1.1928(6)
O5 O 1.1288(6) 0.5050(6) 1.2305(4)
C13 C 0.7142(8) 0.3561(7) 1.2916(6)
N2A N 1.3046(6) 1.0746(6) 0.2886(4)
C6A C 1.1611(9) 1.1397(7) 0.2981(5)
H4A H 1.1421 1.2053 0.2465
C7A C 1.0403(8) 1.1155(7) 0.3793(5)
H5A H 0.9432 1.1643 0.3824
C8A C 1.2143(8) 0.9509(7) 0.4480(5)
H6A H 1.2375 0.8852 0.4985
C9A C 1.3298(8) 0.9820(7) 0.3641(5)
H7A H 1.4293 0.9365 0.3601
C10A C 1.0653(8) 1.0160(7) 0.4578(5)
Zn1A Zn 0.46670(10) 0.09401(9) 1.15784(6)
O1A O 0.2860(5) 0.0862(5) 1.0219(3)
O2A O 0.4385(6) 0.1061(5) 0.8615(4)
C1A C 0.3135(8) 0.1356(7) 0.9262(5)
C2A C 0.1913(8) 0.2292(7) 0.8873(5)
C3A C 0.0304(8) 0.2399(7) 0.9384(5)
H1A H 0.0006 0.1883 0.9998
C4A C -0.0798(8) 0.3244(7) 0.8986(5)
H2A H -0.1860 0.3267 0.9319
N1A N 0.1186(7) 0.3908(6) 0.7573(4)
C5A C 0.2307(8) 0.3043(7) 0.7966(5)
H3A H 0.3346 0.2969 0.7610
C11A C 0.1671(8) 0.4698(7) 0.6600(5)
H8A H 0.2259 0.3978 0.6008
H9A H 0.0596 0.4760 0.6139
O3A O 0.3587(6) 0.6971(5) 0.8227(4)
O4A O 0.3100(6) 0.7264(5) 0.6323(4)
C12A C -0.0398(9) 0.4107(7) 0.8072(6)
O5A O -0.1288(6) 0.4950(6) 0.7695(4)
C13A C 0.2858(8) 0.6439(7) 0.7084(6)
Zn1_2 Zn 0.53330(10) -0.09401(9) 0.84216(6)
Zn1A_2 Zn 0.46670(10) 1.09401(9) 1.15784(6)
Zn1A_3 Zn 1.46670(10) 1.09401(9) 0.15784(6)
O2_2 O 0.5615(6) -0.1061(5) 1.1385(4)
O2A_2 O 0.4385(6) 1.1061(5) 0.8615(4)
N2A_2 N 0.3046(6) 0.0746(6) 1.2886(4)
O6 O 0.4586(7) 0.6206(9) 0.3912(5)
H10 H 0.390(8) 0.569(10) 0.326(3)
H11 H 0.413(8) 0.635(11) 0.457(3)
loop_
_geom_bond_atom_site_label_1
_geom_bond_atom_site_label_2
_geom_bond_site_symmetry_1
_geom_bond_site_symmetry_2
Zn1 O1 1_555 1_555
O1 C1 1_555 1_555
O2 C1 1_555 1_555
C1 C2 1_555 1_555
C2 C3 1_555 1_555
C3 H1 1_555 1_555
C4 C3 1_555 1_555
H2 C4 1_555 1_555
N1 C5 1_555 1_555
C5 C2 1_555 1_555
H3 C5 1_555 1_555
N2 Zn1 1_555 1_555
C6 N2 1_555 1_555
H4 C6 1_555 1_555
C7 C6 1_555 1_555
H5 C7 1_555 1_555
C8 H6 1_555 1_555
C9 N2 1_555 1_555
H7 C9 1_555 1_555
C10 C7 1_555 1_555
C11 N1 1_555 1_555
H8 C11 1_555 1_555
H9 C11 1_555 1_555
O3 C13 1_555 1_555
O4 C13 1_555 1_555
C12 C4 1_555 1_555
O5 C12 1_555 1_555
C13 C11 1_555 1_555
O6 H10 1_555 1_555
H11 O6 1_555 1_555
N2A C6A 1_555 1_555
C6A H4A 1_555 1_555
C7A C6A 1_555 1_555
H5A C7A 1_555 1_555
C8A H6A 1_555 1_555
C9A N2A 1_555 1_555
H7A C9A 1_555 1_555
C10A C10 1_555 1_555
Zn1A O3 1_555 1_555
O1A Zn1A 1_555 1_555
O2A C1A 1_555 1_555
C1A O1A 1_555 1_555
C2A C1A 1_555 1_555
C3A C2A 1_555 1_555
H1A C3A 1_555 1_555
C4A C3A 1_555 1_555
H2A C4A 1_555 1_555
N1A C5A 1_555 1_555
C5A C2A 1_555 1_555
H3A C5A 1_555 1_555
C11A N1A 1_555 1_555
H8A C11A 1_555 1_555
H9A C11A 1_555 1_555
O3A Zn1 1_555 1_555
O4A C13A 1_555 1_555
C12A C4A 1_555 1_555
O5A C12A 1_555 1_555
C13A C11A 1_555 1_555
Zn1_2 O2A 1_555 1_555
Zn1A_2 O2 1_555 1_555
Zn1A_3 N2A 1_555 1_555
O2_2 Zn1A 1_555 1_555
O2A_2 Zn1 1_555 1_555
N2A_2 Zn1A 1_555 1_555
N1 C12 1_555 1_555
C8 C9 1_555 1_555
C8 C10 1_555 1_555
C7A C10A 1_555 1_555
C8A C9A 1_555 1_555
C8A C10A 1_555 1_555
N1A C12A 1_555 1_555
O3A C13A 1_555 1_555

#END
