
#######################################################################
#
#                 Cambridge Crystallographic Data Centre
#                                CCDC 
#
#######################################################################
#
# If this CIF has been generated from an entry in the Cambridge 
# Structural Database, then it will include bibliographic, chemical, 
# crystal, experimental, refinement or atomic coordinate data resulting 
# from the CCDC's data processing and validation procedures.
#
#######################################################################

data_TOWJIY
_symmetry_cell_setting           monoclinic
_symmetry_space_group_name_H-M   'P 21/n'
_symmetry_Int_Tables_number      14
_space_group_name_Hall           '-P 2yn'
loop_
_symmetry_equiv_pos_site_id
_symmetry_equiv_pos_as_xyz
1 x,y,z
2 1/2-x,1/2+y,1/2-z
3 -x,-y,-z
4 1/2+x,1/2-y,1/2+z
_cell_length_a                   14.4973(13)
_cell_length_b                   13.882(2)
_cell_length_c                   17.448(2)
_cell_angle_alpha                90
_cell_angle_beta                 106.799(9)
_cell_angle_gamma                90
_cell_volume                     3361.58
loop_
_atom_site_label
_atom_site_type_symbol
_atom_site_fract_x
_atom_site_fract_y
_atom_site_fract_z
Cs1 Cs 0.7704(1) 0.9903(1) 0.2448(1)
Cs2 Cs 0.9042(1) 0.7269(1) 0.2367(1)
Si1 Si 0.7070(1) 0.7806(1) 0.3593(1)
C1 C 0.6272(4) 0.6908(3) 0.3912(3)
C2 C 0.8306(3) 0.7529(3) 0.4275(2)
N1 N 0.7042(2) 0.7732(2) 0.2632(2)
Si2 Si 0.6147(1) 0.7676(1) 0.1785(1)
C3 C 0.5092(3) 0.6912(3) 0.1856(3)
C4 C 0.6558(3) 0.7100(3) 0.0959(2)
N2 N 0.5693(2) 0.8793(2) 0.1373(2)
Si3 Si 0.5030(1) 0.9653(1) 0.1725(1)
C5 C 0.3786(2) 0.9154(3) 0.1622(2)
C6 C 0.4791(2) 1.0630(2) 0.0938(2)
N3 N 0.5624(2) 1.0079(2) 0.2620(2)
Si4 Si 0.5804(1) 0.9688(1) 0.3555(1)
C7 C 0.4743(3) 0.9038(3) 0.3735(2)
C8 C 0.6054(3) 1.0713(2) 0.4300(2)
N4 N 0.6831(2) 0.8957(2) 0.3891(2)
O1 O 0.8504(2) 0.9102(2) 0.1038(2)
C9 C 0.7709(3) 0.9291(3) 0.0351(2)
C10 C 0.7946(4) 0.8776(4) -0.0321(3)
C11 C 0.9004(4) 0.8687(6) -0.0074(3)
C12 C 0.9334(3) 0.9120(4) 0.0763(3)
O2 O 0.9982(2) 0.9208(2) 0.3270(2)
C13 C 1.0833(3) 0.9308(3) 0.3020(3)
C14 C 1.1651(3) 0.9234(3) 0.3789(3)
C15 C 1.1260(3) 0.9781(3) 0.4360(3)
C16 C 1.0210(3) 0.9510(4) 0.4102(3)
O3 O 1.0960(2) 0.7358(2) 0.1819(2)
C17 C 1.1410(3) 0.7488(3) 0.1202(3)
C18 C 1.2144(3) 0.6706(4) 0.1304(3)
C19 C 1.2427(3) 0.6521(5) 0.2185(3)
C20 C 1.1539(3) 0.6729(3) 0.2417(3)
H1 H 0.6330(4) 0.6998(3) 0.4481(3)
H2 H 0.6471(4) 0.6253(3) 0.3824(3)
H3 H 0.5601(4) 0.7009(3) 0.3596(3)
H4 H 0.8299(3) 0.7578(3) 0.4833(2)
H5 H 0.8771(3) 0.7990(3) 0.4177(2)
H6 H 0.8492(3) 0.6874(3) 0.4169(2)
H7 H 0.4594(3) 0.6911(3) 0.1338(3)
H8 H 0.4825(3) 0.7179(3) 0.2267(3)
H9 H 0.5311(3) 0.6251(3) 0.2001(3)
H10 H 0.6018(3) 0.7076(3) 0.0467(2)
H11 H 0.6786(3) 0.6445(3) 0.1117(2)
H12 H 0.7083(3) 0.7481(3) 0.0863(2)
H13 H 0.5502(24) 0.8757(25) 0.0849(6)
H14 H 0.3501(2) 0.8924(3) 0.1073(2)
H15 H 0.3379(2) 0.9662(3) 0.1742(2)
H16 H 0.3834(2) 0.8619(3) 0.1997(2)
H17 H 0.4440(2) 1.0357(2) 0.0418(2)
H18 H 0.5405(2) 1.0899(2) 0.0909(2)
H19 H 0.4404(2) 1.1141(2) 0.1081(2)
H20 H 0.4906(3) 0.8832(3) 0.4296(2)
H21 H 0.4586(3) 0.8472(3) 0.3385(2)
H22 H 0.4186(3) 0.9472(3) 0.3618(2)
H23 H 0.6155(3) 1.0455(2) 0.4841(2)
H24 H 0.5503(3) 1.1155(2) 0.4173(2)
H25 H 0.6632(3) 1.1060(2) 0.4273(2)
H26 H 0.7082(24) 0.9080(25) 0.4402(8)
H27 H 0.7640(3) 0.9991(3) 0.0243(2)
H28 H 0.7103(3) 0.9042(3) 0.0429(2)
H29 H 0.7639(4) 0.8132(4) -0.0405(3)
H30 H 0.7720(4) 0.9149(4) -0.0824(3)
H31 H 0.9283(4) 0.9045(6) -0.0444(3)
H32 H 0.9200(4) 0.8003(6) -0.0064(3)
H33 H 0.9860(3) 0.8733(4) 0.1117(3)
H34 H 0.9564(3) 0.9789(4) 0.0745(3)
H35 H 1.0843(3) 0.9939(3) 0.2758(3)
H36 H 1.0875(3) 0.8789(3) 0.2643(3)
H37 H 1.1785(3) 0.8555(3) 0.3958(3)
H38 H 1.2246(3) 0.9535(3) 0.3731(3)
H39 H 1.1346(3) 1.0483(3) 0.4311(3)
H40 H 1.1574(3) 0.9581(3) 0.4920(3)
H41 H 1.0088(3) 0.8979(4) 0.4438(3)
H42 H 0.9808(3) 1.0069(4) 0.4154(3)
H43 H 1.1723(3) 0.8128(3) 0.1249(3)
H44 H 1.0928(3) 0.7441(3) 0.0669(3)
H45 H 1.2703(3) 0.6921(4) 0.1130(3)
H46 H 1.1863(3) 0.6123(4) 0.0998(3)
H47 H 1.2632(3) 0.5843(5) 0.2305(3)
H48 H 1.2960(3) 0.6951(5) 0.2471(3)
H49 H 1.1186(3) 0.6125(3) 0.2442(3)
H50 H 1.1704(3) 0.7042(3) 0.2949(3)
N3A N 0.9376(2) 0.5079(2) 0.2380(2)
Cs2A Cs 0.5958(1) 1.2269(1) 0.2633(1)
loop_
_geom_bond_atom_site_label_1
_geom_bond_atom_site_label_2
_geom_bond_site_symmetry_1
_geom_bond_site_symmetry_2
Cs1 Cs2 1_555 1_555
Cs2 N1 1_555 1_555
Si1 C1 1_555 1_555
C1 H1 1_555 1_555
C2 Si1 1_555 1_555
N1 Cs1 1_555 1_555
Si2 N1 1_555 1_555
C3 Si2 1_555 1_555
C4 Si2 1_555 1_555
N2 Cs1 1_555 1_555
Si3 N2 1_555 1_555
C5 Si3 1_555 1_555
C6 Si3 1_555 1_555
N3 Cs1 1_555 1_555
Si4 N3 1_555 1_555
C7 Si4 1_555 1_555
C8 Si4 1_555 1_555
N4 Cs1 1_555 1_555
O1 Cs1 1_555 1_555
C9 O1 1_555 1_555
C10 C9 1_555 1_555
C11 C10 1_555 1_555
C12 O1 1_555 1_555
O2 Cs1 1_555 1_555
C13 O2 1_555 1_555
C14 C13 1_555 1_555
C15 C14 1_555 1_555
C16 O2 1_555 1_555
O3 Cs2 1_555 1_555
C17 O3 1_555 1_555
C18 C17 1_555 1_555
C19 C18 1_555 1_555
C20 O3 1_555 1_555
H2 C1 1_555 1_555
H3 C1 1_555 1_555
H4 C2 1_555 1_555
H5 C2 1_555 1_555
H6 C2 1_555 1_555
H7 C3 1_555 1_555
H8 C3 1_555 1_555
H9 C3 1_555 1_555
H10 C4 1_555 1_555
H11 C4 1_555 1_555
H12 C4 1_555 1_555
H13 N2 1_555 1_555
H14 C5 1_555 1_555
H15 C5 1_555 1_555
H16 C5 1_555 1_555
H17 C6 1_555 1_555
H18 C6 1_555 1_555
H19 C6 1_555 1_555
H20 C7 1_555 1_555
H21 C7 1_555 1_555
H22 C7 1_555 1_555
H23 C8 1_555 1_555
H24 C8 1_555 1_555
H25 C8 1_555 1_555
H26 N4 1_555 1_555
H27 C9 1_555 1_555
H28 C9 1_555 1_555
H29 C10 1_555 1_555
H30 C10 1_555 1_555
H31 C11 1_555 1_555
H32 C11 1_555 1_555
H33 C12 1_555 1_555
H34 C12 1_555 1_555
H35 C13 1_555 1_555
H36 C13 1_555 1_555
H37 C14 1_555 1_555
H38 C14 1_555 1_555
H39 C15 1_555 1_555
H40 C15 1_555 1_555
H41 C16 1_555 1_555
H42 C16 1_555 1_555
H43 C17 1_555 1_555
H44 C17 1_555 1_555
H45 C18 1_555 1_555
H46 C18 1_555 1_555
H47 C19 1_555 1_555
H48 C19 1_555 1_555
H49 C20 1_555 1_555
H50 C20 1_555 1_555
N3A Cs2 1_555 1_555
Cs2A N3 1_555 1_555
Cs2 O1 1_555 1_555
Cs2 O2 1_555 1_555
Si1 N1 1_555 1_555
Si1 N4 1_555 1_555
Si2 N2 1_555 1_555
Si3 N3 1_555 1_555
Si4 N4 1_555 1_555
C11 C12 1_555 1_555
C15 C16 1_555 1_555
C19 C20 1_555 1_555

#END
