
#######################################################################
#
#                 Cambridge Crystallographic Data Centre
#                                CCDC 
#
#######################################################################
#
# If this CIF has been generated from an entry in the Cambridge 
# Structural Database, then it will include bibliographic, chemical, 
# crystal, experimental, refinement or atomic coordinate data resulting 
# from the CCDC's data processing and validation procedures.
#
#######################################################################

data_TOXFIX
_symmetry_cell_setting           monoclinic
_symmetry_space_group_name_H-M   'C 2/c'
_symmetry_Int_Tables_number      15
_space_group_name_Hall           '-C 2yn'
loop_
_symmetry_equiv_pos_site_id
_symmetry_equiv_pos_as_xyz
1 x,y,z
2 -x,y,1/2-z
3 1/2+x,1/2+y,z
4 1/2-x,1/2+y,1/2-z
5 -x,-y,-z
6 x,-y,1/2+z
7 1/2-x,1/2-y,-z
8 1/2+x,1/2-y,1/2+z
_cell_length_a                   6.82358(17)
_cell_length_b                   16.9056(5)
_cell_length_c                   22.4059(5)
_cell_angle_alpha                90
_cell_angle_beta                 95.903(2)
_cell_angle_gamma                90
_cell_volume                     2570.97
loop_
_atom_site_label
_atom_site_type_symbol
_atom_site_fract_x
_atom_site_fract_y
_atom_site_fract_z
Hg1 Hg 0.23279(3) 0.176735(12) 0.119697(9)
S1 S 0.5664(2) 0.16392(11) 0.16611(8)
C1 C 0.6347(9) 0.0888(4) 0.1235(3)
N1 N 0.6923(10) 0.0388(5) 0.0946(4)
S2 S -0.0536(2) 0.24145(9) 0.07002(7)
C2 C 0.0596(9) 0.2991(4) 0.0245(3)
N2 N 0.1312(9) 0.3404(3) -0.0084(3)
N3 N 0.1707(7) 0.0314(3) 0.1066(2)
C3 C 0.2041(8) -0.0067(3) 0.0560(2)
H1 H 0.2638 0.0210 0.0258
C4 C 0.1543(8) -0.0846(3) 0.0470(3)
H2 H 0.1739 -0.1109 0.0107
C5 C 0.0745(9) -0.1231(3) 0.0929(3)
H3 H 0.0407 -0.1773 0.0877
N4 N 0.0420(7) -0.0882(3) 0.1445(2)
C6 C 0.0912(7) -0.0113(3) 0.1478(2)
C7 C 0.0478(7) 0.0315(3) 0.2040(2)
N5 N 0.0000 -0.0111(4) 0.2500
N6 N 0.0582(6) 0.1103(2) 0.2023(2)
C8 C 0.0000 0.1467(5) 0.2500
C9 C 0.0000 0.2363(4) 0.2500
N7 N 0.1300(7) 0.2707(3) 0.2177(2)
C10 C 0.1290(9) 0.3503(4) 0.2185(3)
H4 H 0.2192 0.3785 0.1968
C11 C 0.0000 0.3916(5) 0.2500
H5 H 0.0000 0.4478 0.2500
N3A N -0.1707(7) 0.0314(3) 0.3934(2)
C3A C -0.2041(8) -0.0067(3) 0.4440(2)
H1A H -0.2638 0.0210 0.4742
C4A C -0.1543(8) -0.0846(3) 0.4530(3)
H2A H -0.1739 -0.1109 0.4893
C5A C -0.0745(9) -0.1231(3) 0.4071(3)
H3A H -0.0407 -0.1773 0.4123
N4A N -0.0420(7) -0.0882(3) 0.3555(2)
C6A C -0.0912(7) -0.0113(3) 0.3522(2)
C7A C -0.0478(7) 0.0315(3) 0.2960(2)
N6A N -0.0582(6) 0.1103(2) 0.2977(2)
N7A N -0.1300(7) 0.2707(3) 0.2823(2)
C10A C -0.1290(9) 0.3503(4) 0.2815(3)
H4A H -0.2192 0.3785 0.3032
Hg1A Hg -0.23279(3) 0.176735(12) 0.380303(9)
S1A S -0.5664(2) 0.16392(11) 0.33389(8)
C1A C -0.6347(9) 0.0888(4) 0.3765(3)
N1A N -0.6923(10) 0.0388(5) 0.4054(4)
S2A S 0.0536(2) 0.24145(9) 0.42998(7)
C2A C -0.0596(9) 0.2991(4) 0.4755(3)
N2A N -0.1312(9) 0.3404(3) 0.5084(3)
Hg1F Hg 0.26721(3) 0.323265(12) -0.119697(9)
Hg1G Hg -0.26721(3) 0.323265(12) 0.619697(9)
N2F N 0.3688(9) 0.1596(3) 0.0084(3)
N2G N -0.3688(9) 0.1596(3) 0.4916(3)
loop_
_geom_bond_atom_site_label_1
_geom_bond_atom_site_label_2
_geom_bond_site_symmetry_1
_geom_bond_site_symmetry_2
Hg1 S1 1_555 1_555
S1 C1 1_555 1_555
C1 N1 1_555 1_555
S2 Hg1 1_555 1_555
C2 S2 1_555 1_555
N2 C2 1_555 1_555
N3 Hg1 1_555 1_555
C3 N3 1_555 1_555
H1 C3 1_555 1_555
C4 C3 1_555 1_555
H2 C4 1_555 1_555
C5 C4 1_555 1_555
H3 C5 1_555 1_555
N4 C5 1_555 1_555
C6 N3 1_555 1_555
C7 C6 1_555 1_555
N5 C7 1_555 1_555
N6 Hg1 1_555 1_555
C8 N6 1_555 1_555
C9 C8 1_555 1_555
N7 C9 1_555 1_555
C10 N7 1_555 1_555
H4 C10 1_555 1_555
C11 C10 1_555 1_555
H5 C11 1_555 1_555
N3A C3A 1_555 1_555
C3A H1A 1_555 1_555
C4A C3A 1_555 1_555
H2A C4A 1_555 1_555
C5A C4A 1_555 1_555
H3A C5A 1_555 1_555
N4A C5A 1_555 1_555
C6A N3A 1_555 1_555
C7A N5 1_555 1_555
N6A C8 1_555 1_555
N7A C9 1_555 1_555
C10A C11 1_555 1_555
H4A C10A 1_555 1_555
Hg1A N3A 1_555 1_555
S1A Hg1A 1_555 1_555
C1A S1A 1_555 1_555
N1A C1A 1_555 1_555
S2A Hg1A 1_555 1_555
C2A S2A 1_555 1_555
N2A C2A 1_555 1_555
Hg1F N2 1_555 1_555
Hg1G N2A 1_555 1_555
N2F Hg1 1_555 1_555
N2G Hg1A 1_555 1_555
N4 C6 1_555 1_555
C7 N6 1_555 1_555
N4A C6A 1_555 1_555
C6A C7A 1_555 1_555
C7A N6A 1_555 1_555
N6A Hg1A 1_555 1_555
N7A C10A 1_555 1_555

#END
