
#######################################################################
#
#                 Cambridge Crystallographic Data Centre
#                                CCDC 
#
#######################################################################
#
# If this CIF has been generated from an entry in the Cambridge 
# Structural Database, then it will include bibliographic, chemical, 
# crystal, experimental, refinement or atomic coordinate data resulting 
# from the CCDC's data processing and validation procedures.
#
#######################################################################

data_TOXZIR
_symmetry_cell_setting           orthorhombic
_symmetry_space_group_name_H-M   'P b c a'
_symmetry_Int_Tables_number      61
_space_group_name_Hall           '-P 2ac 2ab'
loop_
_symmetry_equiv_pos_site_id
_symmetry_equiv_pos_as_xyz
1 x,y,z
2 1/2-x,-y,1/2+z
3 1/2+x,1/2-y,-z
4 -x,1/2+y,1/2-z
5 -x,-y,-z
6 1/2+x,y,1/2-z
7 1/2-x,1/2+y,z
8 x,1/2-y,1/2+z
_cell_length_a                   9.5787(2)
_cell_length_b                   14.0271(3)
_cell_length_c                   35.4057(7)
_cell_angle_alpha                90
_cell_angle_beta                 90
_cell_angle_gamma                90
_cell_volume                     4757.16
loop_
_atom_site_label
_atom_site_type_symbol
_atom_site_fract_x
_atom_site_fract_y
_atom_site_fract_z
Tb1 Tb 1.190049(18) 0.335214(14) 0.289020(5)
F1 F 1.1137(4) 0.3714(3) 0.05222(8)
F2 F 0.8908(4) 0.1590(3) 0.49797(8)
F3 F 1.1008(5) 0.6046(3) 0.50276(8)
O1 O 1.2377(3) 0.3338(2) 0.22551(7)
O2 O 1.4539(3) 0.3406(2) 0.20397(8)
O3 O 1.0142(3) 0.1102(2) 0.32399(8)
O4 O 1.1616(3) 0.2272(2) 0.33927(8)
O5 O 1.1801(3) 0.4414(2) 0.33980(8)
O6 O 1.0429(3) 0.5648(2) 0.32621(8)
O7 O 1.3863(3) 0.2332(2) 0.29024(8)
H1 H 1.3612 0.1777 0.2974
H2 H 1.4213 0.2298 0.2682
O8 O 1.0947(3) 0.1900(2) 0.25949(8)
H3 H 1.0639 0.1519 0.2767
O9 O 1.1012(3) 0.4837(2) 0.26040(8)
H4 H 1.0827 0.5247 0.2778
O10 O 1.3863(3) 0.4415(2) 0.28707(8)
H5 H 1.3941 0.4687 0.2646
H6 H 1.3776 0.4875 0.3041
C1 C 1.3236(4) 0.3404(3) 0.19902(11)
C2 C 1.2682(4) 0.3486(3) 0.15958(11)
C3 C 1.1249(5) 0.3451(3) 0.15364(12)
H7 H 1.0631 0.3374 0.1744
C4 C 1.0725(5) 0.3531(4) 0.11723(14)
H8 H 0.9749 0.3508 0.1127
C5 C 1.1652(6) 0.3644(4) 0.08789(13)
C6 C 1.3066(6) 0.3679(4) 0.09290(13)
H9 H 1.3677 0.3760 0.0720
C7 C 1.3582(5) 0.3595(3) 0.12913(12)
H10 H 1.4562 0.3612 0.1333
C8 C 1.0718(4) 0.1653(3) 0.34781(11)
C9 C 1.0285(5) 0.1583(3) 0.38839(12)
C10 C 0.9107(5) 0.1057(4) 0.39840(13)
H11 H 0.8622 0.0699 0.3798
C11 C 0.8646(6) 0.1056(4) 0.43549(14)
H12 H 0.7838 0.0707 0.4426
C12 C 0.9386(6) 0.1573(4) 0.46168(13)
C13 C 1.0580(6) 0.2077(4) 0.45320(13)
H13 H 1.1088 0.2406 0.4722
C14 C 1.1010(5) 0.2084(3) 0.41575(13)
H14 H 1.1815 0.2438 0.4088
C15 C 1.1110(4) 0.5144(3) 0.34919(11)
C16 C 1.1099(5) 0.5402(3) 0.39014(12)
C17 C 1.1880(5) 0.4872(4) 0.41571(13)
H15 H 1.2435 0.4356 0.4070
C18 C 1.1856(6) 0.5092(4) 0.45391(14)
H16 H 1.2389 0.4736 0.4716
C19 C 1.1045(6) 0.5833(4) 0.46515(13)
C20 C 1.0261(6) 0.6373(4) 0.44119(14)
H17 H 0.9710 0.6887 0.4503
C21 C 1.0292(5) 0.6149(4) 0.40320(13)
H18 H 0.9754 0.6513 0.3859
H19 H 1.155(6) 0.513(4) 0.2472(16)
H20 H 1.153(6) 0.159(4) 0.2469(15)
Tb1E Tb 1.690049(18) 0.335214(14) 0.210980(5)
O2E O 0.9539(3) 0.3406(2) 0.29603(8)
O11 O 0.7591(3) 0.5842(2) 0.29457(8)
H21 H 0.6817 0.5997 0.3046
H22 H 0.8366 0.5695 0.3048
loop_
_geom_bond_atom_site_label_1
_geom_bond_atom_site_label_2
_geom_bond_site_symmetry_1
_geom_bond_site_symmetry_2
Tb1 O1 1_555 1_555
F1 C5 1_555 1_555
F2 C12 1_555 1_555
F3 C19 1_555 1_555
O1 C1 1_555 1_555
O2 C1 1_555 1_555
O3 C8 1_555 1_555
O4 Tb1 1_555 1_555
O5 Tb1 1_555 1_555
O6 C15 1_555 1_555
O7 Tb1 1_555 1_555
H1 O7 1_555 1_555
H2 O7 1_555 1_555
O8 Tb1 1_555 1_555
H3 O8 1_555 1_555
O9 Tb1 1_555 1_555
H4 O9 1_555 1_555
O10 Tb1 1_555 1_555
H5 O10 1_555 1_555
H6 O10 1_555 1_555
C1 C2 1_555 1_555
C2 C3 1_555 1_555
C3 H7 1_555 1_555
C4 C3 1_555 1_555
H8 C4 1_555 1_555
C5 C4 1_555 1_555
C6 C5 1_555 1_555
H9 C6 1_555 1_555
C7 C2 1_555 1_555
H10 C7 1_555 1_555
C8 O4 1_555 1_555
C9 C8 1_555 1_555
C10 C9 1_555 1_555
H11 C10 1_555 1_555
C11 C10 1_555 1_555
H12 C11 1_555 1_555
C12 C11 1_555 1_555
C13 C12 1_555 1_555
H13 C13 1_555 1_555
C14 C9 1_555 1_555
H14 C14 1_555 1_555
C15 O5 1_555 1_555
C16 C15 1_555 1_555
C17 C16 1_555 1_555
H15 C17 1_555 1_555
C18 C17 1_555 1_555
H16 C18 1_555 1_555
C19 C18 1_555 1_555
C20 C19 1_555 1_555
H17 C20 1_555 1_555
C21 C16 1_555 1_555
H18 C21 1_555 1_555
H19 O9 1_555 1_555
H20 O8 1_555 1_555
O11 H21 1_555 1_555
H22 O11 1_555 1_555
Tb1E O2 1_555 1_555
O2E Tb1 1_555 1_555
C6 C7 1_555 1_555
C13 C14 1_555 1_555
C20 C21 1_555 1_555

#END
