
#######################################################################
#
#                 Cambridge Crystallographic Data Centre
#                                CCDC 
#
#######################################################################
#
# If this CIF has been generated from an entry in the Cambridge 
# Structural Database, then it will include bibliographic, chemical, 
# crystal, experimental, refinement or atomic coordinate data resulting 
# from the CCDC's data processing and validation procedures.
#
#######################################################################

data_TOZFET
_symmetry_cell_setting           monoclinic
_symmetry_space_group_name_H-M   'P 21/a'
_symmetry_Int_Tables_number      14
_space_group_name_Hall           '-P 2yab'
loop_
_symmetry_equiv_pos_site_id
_symmetry_equiv_pos_as_xyz
1 x,y,z
2 1/2-x,1/2+y,-z
3 -x,-y,-z
4 1/2+x,1/2-y,z
_cell_length_a                   15.176(5)
_cell_length_b                   9.060(3)
_cell_length_c                   15.760(6)
_cell_angle_alpha                90
_cell_angle_beta                 111.62(3)
_cell_angle_gamma                90
_cell_volume                     2014.47
loop_
_atom_site_label
_atom_site_type_symbol
_atom_site_fract_x
_atom_site_fract_y
_atom_site_fract_z
Mn1 Mn 0.1130 0.4915(1) 0.4954(1)
N1 N 0.1714(3) 0.3402(5) 0.4213(4)
N2 N 0.2188(3) 0.2380(5) 0.4344(3)
N3 N 0.2655(3) 0.1323(6) 0.4455(4)
N4 N 0.0255(3) 0.6261(4) 0.5521(3)
N5 N 0.0442(3) 0.7409(6) 0.5861(4)
N6 N 0.0633(5) 0.8542(7) 0.6178(6)
N7 N 0.1758(3) 0.3466(5) 0.6231(3)
C1 C 0.2267(4) 0.4089(6) 0.7028(4)
C2 C 0.2792(4) 0.3281(6) 0.7767(4)
C3 C 0.2813(3) 0.1765(6) 0.7711(4)
C4 C 0.2269(3) 0.1111(6) 0.6905(3)
C5 C 0.1750(3) 0.1998(6) 0.6184(4)
C6 C 0.3424(4) 0.0911(7) 0.8517(4)
O1 O 0.3889(3) 0.1460(5) 0.9229(3)
O2 O 0.3430(2) -0.0499(4) 0.8323(3)
C7 C 0.4065(4) -0.1416(7) 0.9042(4)
C8 C 0.3986(4) -0.2944(7) 0.8623(5)
N8 N 0.0623(3) 0.6340(5) 0.3671(3)
C9 C 0.0637(3) 0.7801(6) 0.3714(4)
C10 C 0.0149(3) 0.8682(6) 0.2981(4)
C11 C -0.0382(3) 0.8024(6) 0.2164(4)
C12 C -0.0367(4) 0.6498(6) 0.2114(4)
C13 C 0.0143(3) 0.5705(6) 0.2874(4)
C14 C -0.0977(4) 0.8887(7) 0.1360(5)
O3 O -0.1454(4) 0.8329(5) 0.0645(3)
O4 O -0.0969(3) 1.0293(4) 0.1512(3)
C15 C -0.1574(4) 1.1234(7) 0.0787(4)
C16 C -0.1526(4) 1.2723(7) 0.1227(5)
H1 H 0.2273(4) 0.5277(6) 0.7087(4)
H2 H 0.3191(4) 0.3828(6) 0.8402(4)
H3 H 0.2252(3) -0.0076(6) 0.6835(3)
H4 H 0.1317(3) 0.1477(6) 0.5551(4)
H5 H 0.4781(4) -0.1001(7) 0.9248(4)
H6 H 0.3855(4) -0.1443(7) 0.9626(4)
H7 H 0.4451(4) -0.3693(7) 0.9121(5)
H8 H 0.4191(4) -0.2892(7) 0.8036(5)
H9 H 0.3265(4) -0.3333(7) 0.8414(5)
H10 H 0.1049(3) 0.8323(6) 0.4354(4)
H11 H 0.0171(3) 0.9870(6) 0.3046(4)
H12 H -0.0751(4) 0.5942(6) 0.1479(4)
H13 H 0.0148(3) 0.4516(6) 0.2825(4)
H14 H -0.1315(4) 1.1308(7) 0.0235(4)
H15 H -0.2290(4) 1.0813(7) 0.0529(4)
H16 H -0.1968(4) 1.3492(7) 0.0728(5)
H17 H -0.0804(4) 1.3119(7) 0.1488(5)
H18 H -0.1779(4) 1.2624(7) 0.1782(5)
N3A N 0.2345(3) 0.6323(6) 0.5545(4)
Mn1A Mn 0.3870 -0.0085(1) 0.5046(1)
Mn1B Mn -0.1130 0.5085(1) 0.5046(1)
N4B N -0.0255(3) 0.3739(4) 0.4479(3)
loop_
_geom_bond_atom_site_label_1
_geom_bond_atom_site_label_2
_geom_bond_site_symmetry_1
_geom_bond_site_symmetry_2
Mn1 N1 1_555 1_555
N1 N2 1_555 1_555
N2 N3 1_555 1_555
N3 Mn1A 1_555 1_555
N4 Mn1 1_555 1_555
N5 N4 1_555 1_555
N6 N5 1_555 1_555
N7 Mn1 1_555 1_555
C1 N7 1_555 1_555
C2 C1 1_555 1_555
C3 C2 1_555 1_555
C4 C3 1_555 1_555
C5 N7 1_555 1_555
C6 C3 1_555 1_555
O1 C6 1_555 1_555
O2 C6 1_555 1_555
C7 O2 1_555 1_555
C8 C7 1_555 1_555
N8 Mn1 1_555 1_555
C9 N8 1_555 1_555
C10 C9 1_555 1_555
C11 C10 1_555 1_555
C12 C11 1_555 1_555
C13 N8 1_555 1_555
C14 C11 1_555 1_555
O3 C14 1_555 1_555
O4 C14 1_555 1_555
C15 O4 1_555 1_555
C16 C15 1_555 1_555
H1 C1 1_555 1_555
H2 C2 1_555 1_555
H3 C4 1_555 1_555
H4 C5 1_555 1_555
H5 C7 1_555 1_555
H6 C7 1_555 1_555
H7 C8 1_555 1_555
H8 C8 1_555 1_555
H9 C8 1_555 1_555
H10 C9 1_555 1_555
H11 C10 1_555 1_555
H12 C12 1_555 1_555
H13 C13 1_555 1_555
H14 C15 1_555 1_555
H15 C15 1_555 1_555
H16 C16 1_555 1_555
H17 C16 1_555 1_555
H18 C16 1_555 1_555
N3A Mn1 1_555 1_555
Mn1B N4 1_555 1_555
N4B Mn1 1_555 1_555
C4 C5 1_555 1_555
C12 C13 1_555 1_555
Mn1B N4B 1_555 1_555

#END
