
#######################################################################
#
#                 Cambridge Crystallographic Data Centre
#                                CCDC 
#
#######################################################################
#
# If this CIF has been generated from an entry in the Cambridge 
# Structural Database, then it will include bibliographic, chemical, 
# crystal, experimental, refinement or atomic coordinate data resulting 
# from the CCDC's data processing and validation procedures.
#
#######################################################################

data_TOZPED
_symmetry_cell_setting           monoclinic
_symmetry_space_group_name_H-M   'P 21/c'
_symmetry_Int_Tables_number      14
_space_group_name_Hall           '-P 2ybc'
loop_
_symmetry_equiv_pos_site_id
_symmetry_equiv_pos_as_xyz
1 x,y,z
2 -x,1/2+y,1/2-z
3 -x,-y,-z
4 x,1/2-y,1/2+z
_cell_length_a                   8.727(4)
_cell_length_b                   17.605(7)
_cell_length_c                   15.110(7)
_cell_angle_alpha                90
_cell_angle_beta                 99.27(3)
_cell_angle_gamma                90
_cell_volume                     2291.16
loop_
_atom_site_label
_atom_site_type_symbol
_atom_site_fract_x
_atom_site_fract_y
_atom_site_fract_z
Na1 Na 0.3556(5) 0.2279(2) 0.4082(3)
O1 O 0.402(2) 0.1034(6) 0.4896(7)
O2 O 0.586(1) 0.2315(5) 0.5186(6)
O3 O 0.1859(9) 0.3168(5) 0.4630(5)
O4 O 0.111(1) 0.1653(6) 0.4234(6)
O5 O 0.3814(9) 0.1875(4) 0.2631(5)
N1 N 0.472(1) 0.3626(5) 0.4153(6)
C1 C 0.542(3) 0.104(1) 0.551(1)
C2 C 0.572(2) 0.179(1) 0.591(1)
C3 C 0.633(1) 0.3051(9) 0.5484(8)
C4 C 0.628(1) 0.3563(7) 0.4676(9)
C5 C 0.372(2) 0.4115(7) 0.4585(7)
C6 C 0.206(1) 0.3929(7) 0.4343(7)
C7 C 0.029(1) 0.2928(8) 0.4450(8)
C8 C 0.024(2) 0.213(1) 0.476(1)
C9 C 0.131(2) 0.089(1) 0.454(1)
C10 C 0.271(3) 0.0827(8) 0.526(1)
C11 C 0.475(1) 0.3841(6) 0.3198(8)
C12 C 0.517(2) 0.4656(6) 0.3016(7)
C13 C 0.667(1) 0.4922(6) 0.3158(7)
C14 C 0.707(1) 0.5662(7) 0.2977(7)
C15 C 0.588(2) 0.6135(7) 0.2601(7)
C16 C 0.434(1) 0.5908(8) 0.2431(7)
C17 C 0.403(1) 0.5147(8) 0.2638(7)
C18 C 0.309(1) 0.6431(7) 0.2014(8)
C19 C 0.873(1) 0.5899(7) 0.3153(7)
H1 H 0.3696 0.2247 0.2169
H2 H 0.5368 0.0677 0.5960
H3 H 0.6248 0.0910 0.5189
H4 H 0.6655 0.1778 0.6324
H5 H 0.4883 0.1931 0.6201
H6 H 0.5661 0.3236 0.5868
H7 H 0.7366 0.3025 0.5805
H8 H 0.6960 0.3364 0.4300
H9 H 0.6623 0.4054 0.4878
H10 H 0.4006 0.4068 0.5216
H11 H 0.3868 0.4625 0.4412
H12 H 0.1747 0.3964 0.3713
H13 H 0.1454 0.4264 0.4636
H14 H -0.0324 0.3239 0.4769
H15 H -0.0082 0.2961 0.3827
H16 H -0.0807 0.1956 0.4682
H17 H 0.0687 0.2089 0.5373
H18 H 0.0415 0.0738 0.4777
H19 H 0.1448 0.0577 0.4053
H20 H 0.2810 0.0317 0.5471
H21 H 0.2595 0.1154 0.5748
H22 H 0.5480 0.3520 0.2975
H23 H 0.3742 0.3746 0.2870
H24 H 0.2982 0.4969 0.2510
H25 H 0.7486 0.4581 0.3395
H26 H 0.3068 0.6863 0.2384
H27 H 0.3301 0.6583 0.1441
H28 H 0.2125 0.6175 0.1946
H29 H 0.9122 0.5835 0.3771
H30 H 0.9304 0.5592 0.2806
H31 H 0.8804 0.6415 0.2990
O5A O 0.6186(9) 0.6875(4) 0.2369(5)
Na1A Na 0.6444(5) 0.7279(2) 0.0918(3)
H1A H 0.6304 0.7247 0.2831
N2 N 1.138(1) 0.2219(6) 0.7197(8)
S1 S 0.9632(4) 0.0907(2) 0.6911(2)
C20 C 1.063(1) 0.1695(7) 0.7076(8)
loop_
_geom_bond_atom_site_label_1
_geom_bond_atom_site_label_2
_geom_bond_site_symmetry_1
_geom_bond_site_symmetry_2
Na1 O1 1_555 1_555
O1 C1 1_555 1_555
O2 Na1 1_555 1_555
O3 Na1 1_555 1_555
O4 Na1 1_555 1_555
O5 Na1 1_555 1_555
N1 Na1 1_555 1_555
N2 C20 1_555 1_555
S1 C20 1_555 1_555
C1 C2 1_555 1_555
C2 O2 1_555 1_555
C3 O2 1_555 1_555
C4 N1 1_555 1_555
C5 N1 1_555 1_555
C6 O3 1_555 1_555
C7 O3 1_555 1_555
C8 O4 1_555 1_555
C9 O4 1_555 1_555
C10 O1 1_555 1_555
C11 N1 1_555 1_555
C12 C11 1_555 1_555
C13 C12 1_555 1_555
C14 C13 1_555 1_555
C15 C14 1_555 1_555
C16 C15 1_555 1_555
C17 C12 1_555 1_555
C18 C16 1_555 1_555
C19 C14 1_555 1_555
H1 O5 1_555 1_555
H2 C1 1_555 1_555
H3 C1 1_555 1_555
H4 C2 1_555 1_555
H5 C2 1_555 1_555
H6 C3 1_555 1_555
H7 C3 1_555 1_555
H8 C4 1_555 1_555
H9 C4 1_555 1_555
H10 C5 1_555 1_555
H11 C5 1_555 1_555
H12 C6 1_555 1_555
H13 C6 1_555 1_555
H14 C7 1_555 1_555
H15 C7 1_555 1_555
H16 C8 1_555 1_555
H17 C8 1_555 1_555
H18 C9 1_555 1_555
H19 C9 1_555 1_555
H20 C10 1_555 1_555
H21 C10 1_555 1_555
H22 C11 1_555 1_555
H23 C11 1_555 1_555
H24 C17 1_555 1_555
H25 C13 1_555 1_555
H26 C18 1_555 1_555
H27 C18 1_555 1_555
H28 C18 1_555 1_555
H29 C19 1_555 1_555
H30 C19 1_555 1_555
H31 C19 1_555 1_555
O5A C15 1_555 1_555
Na1A O5A 1_555 1_555
H1A O5A 1_555 1_555
C3 C4 1_555 1_555
C5 C6 1_555 1_555
C7 C8 1_555 1_555
C9 C10 1_555 1_555
C16 C17 1_555 1_555

#END
