
#######################################################################
#
#                 Cambridge Crystallographic Data Centre
#                                CCDC 
#
#######################################################################
#
# If this CIF has been generated from an entry in the Cambridge 
# Structural Database, then it will include bibliographic, chemical, 
# crystal, experimental, refinement or atomic coordinate data resulting 
# from the CCDC's data processing and validation procedures.
#
#######################################################################

data_TPFECM
_symmetry_cell_setting           monoclinic
_symmetry_space_group_name_H-M   'P 21/m'
_symmetry_Int_Tables_number      11
_space_group_name_Hall           '-P 2yb'
loop_
_symmetry_equiv_pos_site_id
_symmetry_equiv_pos_as_xyz
1 x,y,z
2 -x,1/2+y,-z
3 -x,-y,-z
4 x,1/2-y,z
_cell_length_a                   17.547(3)
_cell_length_b                   9.260(2)
_cell_length_c                   13.250(2)
_cell_angle_alpha                90
_cell_angle_beta                 102.50(1)
_cell_angle_gamma                90
_cell_volume                     2101.9
loop_
_atom_site_label
_atom_site_type_symbol
_atom_site_fract_x
_atom_site_fract_y
_atom_site_fract_z
Fe1 Fe 0.20857 0.25000 0.31621
N1 N 0.23640 0.25000 0.47040
N2 N 0.32170 0.25000 0.31260
N3 N 0.18040 0.25000 0.16170
N4 N 0.09570 0.25000 0.31960
C1 C 0.18580 0.25000 0.53620
C2 C 0.31050 0.25000 0.53350
C3 C 0.38430 0.25000 0.39650
C4 C 0.35370 0.25000 0.22640
C5 C 0.23130 0.25000 0.09550
C6 C 0.10630 0.25000 0.09900
C7 C 0.03240 0.25000 0.23580
C8 C 0.06350 0.25000 0.40560
C9 C 0.22950 0.25000 0.64100
C10 C 0.30460 0.25000 0.63820
C11 C 0.45550 0.25000 0.36050
C12 C 0.43680 0.25000 0.25670
C13 C 0.18810 0.25000 -0.00920
C14 C 0.11210 0.25000 -0.00660
C15 C -0.03800 0.25000 0.27210
C16 C -0.01930 0.25000 0.37590
C17 C 0.37940 0.25000 0.49920
C18 C 0.31260 0.25000 0.12460
C19 C 0.03670 0.25000 0.13300
C20 C 0.10530 0.25000 0.50830
C21 C 0.45480 0.25000 0.58030
C22 C 0.49010 0.12580 0.61670
C23 C 0.56010 0.12580 0.68900
C24 C 0.59400 0.25000 0.72480
C25 C 0.35890 0.25000 0.04210
C26 C 0.3807(3) 0.1269(6) 0.0045(4)
C27 C 0.42630 0.12840 -0.06990
C28 C 0.44700 0.25000 -0.10580
C29 C -0.03920 0.25000 0.05490
C30 C -0.07530 0.12490 0.01930
C31 C -0.14570 0.12480 -0.05210
C32 C -0.18090 0.25000 -0.08630
C33 C 0.05590 0.25000 0.59040
C34 C 0.03670 0.12630 0.62920
C35 C -0.00930 0.12610 0.70220
C36 C -0.03190 0.25000 0.73810
C37 C 0.22660 -0.11510 0.35340
C38 C 0.24860 -0.25000 0.39850
C39 C 0.30480 -0.25000 0.49370
N5 N 0.21330 0.00020 0.32370
N6 N 0.34950 -0.25000 0.57140
C37C C 0.22660 -0.38490 0.35340
N5C N 0.21330 -0.50020 0.32370
Fe1C Fe 0.20857 -0.75000 0.31621
N5C_2 N 0.21330 0.49980 0.32370
C35C C -0.00930 0.37390 0.70220
C34C C 0.03670 0.37370 0.62920
C31C C -0.14570 0.37520 -0.05210
C30C C -0.07530 0.37510 0.01930
C27C C 0.42630 0.37160 -0.06990
C26C C 0.3807(3) 0.3731(6) 0.0045(4)
C23C C 0.56010 0.37420 0.68900
C22C C 0.49010 0.37420 0.61670
C40 C 0.70030 0.25000 0.20620
Cl1 Cl 0.62330 0.25000 0.10110
Cl2 Cl 0.75770 0.09960 0.20560
Cl2C Cl 0.75770 0.40040 0.20560
loop_
_geom_bond_atom_site_label_1
_geom_bond_atom_site_label_2
_geom_bond_site_symmetry_1
_geom_bond_site_symmetry_2
Fe1 N1 1_555 1_555
N1 C1 1_555 1_555
N2 Fe1 1_555 1_555
N3 Fe1 1_555 1_555
N4 Fe1 1_555 1_555
C1 C9 1_555 1_555
C2 N1 1_555 1_555
C3 N2 1_555 1_555
C4 N2 1_555 1_555
C5 N3 1_555 1_555
C6 N3 1_555 1_555
C7 N4 1_555 1_555
C8 N4 1_555 1_555
C9 C10 1_555 1_555
C10 C2 1_555 1_555
C11 C3 1_555 1_555
C12 C4 1_555 1_555
C13 C5 1_555 1_555
C14 C6 1_555 1_555
C15 C7 1_555 1_555
C16 C8 1_555 1_555
C17 C2 1_555 1_555
C18 C4 1_555 1_555
C19 C6 1_555 1_555
C20 C1 1_555 1_555
C21 C17 1_555 1_555
C22 C21 1_555 1_555
C23 C22 1_555 1_555
C24 C23 1_555 1_555
C25 C18 1_555 1_555
C26 C25 1_555 1_555
C27 C26 1_555 1_555
C28 C27 1_555 1_555
C29 C19 1_555 1_555
C30 C29 1_555 1_555
C31 C30 1_555 1_555
C32 C31 1_555 1_555
C33 C20 1_555 1_555
C34 C33 1_555 1_555
C35 C34 1_555 1_555
C36 C35 1_555 1_555
C37 C38 1_555 1_555
C38 C39 1_555 1_555
C39 N6 1_555 1_555
N5 Fe1 1_555 1_555
C40 Cl1 1_555 1_555
Cl2 C40 1_555 1_555
C37C C38 1_555 1_555
N5C C37C 1_555 1_555
Fe1C N5C 1_555 1_555
N5C_2 Fe1 1_555 1_555
C35C C36 1_555 1_555
C34C C33 1_555 1_555
C31C C32 1_555 1_555
C30C C29 1_555 1_555
C27C C28 1_555 1_555
C26C C25 1_555 1_555
C23C C24 1_555 1_555
C22C C21 1_555 1_555
Cl2C C40 1_555 1_555
C3 C17 1_555 1_555
C5 C18 1_555 1_555
C7 C19 1_555 1_555
C8 C20 1_555 1_555
C11 C12 1_555 1_555
C13 C14 1_555 1_555
C15 C16 1_555 1_555
C37 N5 1_555 1_555
C35C C34C 1_555 1_555
C31C C30C 1_555 1_555
C27C C26C 1_555 1_555
C23C C22C 1_555 1_555

#END
