
#######################################################################
#
#                 Cambridge Crystallographic Data Centre
#                                CCDC 
#
#######################################################################
#
# If this CIF has been generated from an entry in the Cambridge 
# Structural Database, then it will include bibliographic, chemical, 
# crystal, experimental, refinement or atomic coordinate data resulting 
# from the CCDC's data processing and validation procedures.
#
#######################################################################

data_TUBBEZ
_symmetry_cell_setting           triclinic
_symmetry_space_group_name_H-M   'P -1'
_symmetry_Int_Tables_number      2
_space_group_name_Hall           '-P 1'
loop_
_symmetry_equiv_pos_site_id
_symmetry_equiv_pos_as_xyz
1 x,y,z
2 -x,-y,-z
_cell_length_a                   12.9024(6)
_cell_length_b                   13.0771(7)
_cell_length_c                   13.5708(6)
_cell_angle_alpha                111.71
_cell_angle_beta                 93.60
_cell_angle_gamma                109.77
_cell_volume                     1955.16
loop_
_atom_site_label
_atom_site_type_symbol
_atom_site_fract_x
_atom_site_fract_y
_atom_site_fract_z
Zn1 Zn 0.0000 0.5000 0.5000
Zn2 Zn 0.16191(3) 0.28176(4) 0.43968(3)
N1 N 0.0066(3) 0.4926(3) 0.6529(2)
C1 C 0.0742(3) 0.1721(3) 0.5999(3)
H1 H 0.0293 0.1094 0.5350
C2 C 0.0748(4) 0.1528(4) 0.6933(3)
H2 H 0.0326 0.0778 0.6902
C3 C 0.1385(3) 0.2453(3) 0.7915(3)
C4 C 0.1974(3) 0.3649(3) 0.6924(3)
H3 H 0.2414 0.4381 0.6930
C5 C 0.1999(3) 0.3533(4) 0.7898(3)
H4 H 0.2432 0.4185 0.8540
O1 O -0.1777(2) 0.4313(2) 0.4720(2)
O2 O -0.2740(2) 0.5481(2) 0.4858(2)
C6 C -0.3758(4) 0.3397(5) 0.4253(6)
H5 H -0.3640 0.2734 0.3715
H6 H -0.3907 0.3203 0.4867
C7 C -0.2665(3) 0.4493(3) 0.4632(3)
N2 N 0.1354(3) 0.2771(3) 0.5984(2)
C8 C -0.0656(4) 0.3857(4) 0.7603(3)
H7 H -0.1186 0.3189 0.7639
C9 C 0.1348(4) 0.2269(4) 0.8944(3)
H8 H 0.1164 0.1429 0.8763
H9 H 0.0743 0.2466 0.9246
C10 C -0.0669(3) 0.3989(3) 0.6645(3)
H10 H -0.1219 0.3392 0.6040
C11 C 0.0858(3) 0.5785(4) 0.7421(3)
H11 H 0.1379 0.6444 0.7363
C12 C 0.0917(4) 0.5715(4) 0.8417(3)
H12 H 0.1466 0.6328 0.9014
C13 C 0.0167(4) 0.4743(4) 0.8529(3)
N3 N 0.2608(2) 0.1805(3) 0.4484(2)
C14 C 0.2319(3) 0.0642(4) 0.3891(3)
H13 H 0.1705 0.0248 0.3306
C15 C 0.0213(4) 0.4585(4) 0.9576(3)
H14 H 0.0985 0.4749 0.9872
H15 H -0.0242 0.3762 0.9425
C16 C 0.3500(3) 0.2348(4) 0.5307(3)
H16 H 0.3729 0.3164 0.5719
C17 C 0.3805(3) 0.0567(4) 0.4977(3)
C18 C 0.4101(4) 0.1762(4) 0.5578(3)
H17 H 0.4709 0.2180 0.6169
C19 C 0.2888(4) -0.0015(4) 0.4101(4)
H18 H 0.2660 -0.0826 0.3665
C20 C 0.2261(3) 0.2925(4) 1.0877(3)
C21 C 0.2373(4) 0.2033(4) 1.1131(3)
H19 H 0.2574 0.1452 1.0644
C22 C 0.4461(4) -0.0112(5) 0.5224(4)
H20 H 0.3995 -0.0960 0.4900
H21 H 0.4657 0.0146 0.6004
C23 C 0.2444(4) 0.3006(5) 0.9826(3)
H22 H 0.3023 0.2712 0.9587
H23 H 0.2706 0.3835 0.9933
S1 S -0.1136(2) 0.10281(17) 0.11673(15)
O3 O -0.0014(2) 0.3180(2) 0.42567(18)
O4 O 0.0000(2) 0.1391(2) 0.3652(2)
N4 N 0.1901(3) 0.2803(3) 1.2851(2)
C24 C -0.0537(3) 0.2055(3) 0.3848(3)
C25 C -0.1809(3) 0.1495(4) 0.3639(3)
H24 H -0.2107 0.2071 0.3600
H25 H -0.2022 0.1322 0.4250
C26 C -0.2329(4) 0.0552(4) 0.1593(4)
C27 C -0.3378(8) 0.0395(8) 0.0870(5)
H26 H -0.4128 0.0109 0.0925
C28 C 0.2185(4) 0.2010(4) 1.2110(3)
H27 H 0.2262 0.1398 1.2261
C29 C -0.2357(3) 0.0347(4) 0.2601(4)
H28 H -0.1973 -0.0180 0.2580
H29 H -0.3136 -0.0053 0.2620
C30 C 0.1797(4) 0.3669(4) 1.2606(3)
H30 H 0.1586 0.4232 1.3105
C31 C 0.1985(5) 0.3770(5) 1.1657(3)
H31 H 0.1927 0.4407 1.1537
S2 S -0.43506(19) 0.3126(3) 0.1646(2)
C32 C -0.4801(4) 0.3473(6) 0.3770(5)
H32 H -0.5430 0.2720 0.3581
H33 H -0.4959 0.4089 0.4326
C33 C -0.4752(5) 0.3735(7) 0.2796(5)
C34 C -0.3011(12) 0.0715(10) 0.0250(15)
H34 H -0.3524 0.0754 -0.0234
C35 C -0.1880(11) 0.1067(6) 0.0099(5)
H35 H -0.1609 0.1271 -0.0451
C36 C -0.5143(6) 0.4623(8) 0.2760(6)
H36 H -0.5419 0.5085 0.3289
C37 C -0.4704(7) 0.4037(10) 0.1151(8)
H37 H -0.4661 0.4081 0.0486
C38 C -0.5044(9) 0.4641(12) 0.1962(15)
H38 H -0.5249 0.5211 0.1848
N1A N -0.0066(3) 0.5074(3) 1.3471(2)
C8A C 0.0656(4) 0.6143(4) 1.2397(3)
H7A H 0.1186 0.6811 1.2361
C10A C 0.0669(3) 0.6011(3) 1.3355(3)
H10A H 0.1219 0.6608 1.3960
C11A C -0.0858(3) 0.4215(4) 1.2579(3)
H11A H -0.1379 0.3556 1.2637
C12A C -0.0917(4) 0.4285(4) 1.1583(3)
H12A H -0.1466 0.3672 1.0986
C13A C -0.0167(4) 0.5257(4) 1.1471(3)
C15A C -0.0213(4) 0.5415(4) 1.0424(3)
H14A H -0.0985 0.5251 1.0128
H15A H 0.0242 0.6238 1.0575
N3A N 0.7392(2) -0.1805(3) 0.5516(2)
C14A C 0.7681(3) -0.0642(4) 0.6109(3)
H13A H 0.8295 -0.0248 0.6694
C16A C 0.6500(3) -0.2348(4) 0.4693(3)
H16A H 0.6271 -0.3164 0.4281
C17A C 0.6195(3) -0.0567(4) 0.5023(3)
C18A C 0.5899(4) -0.1762(4) 0.4422(3)
H17A H 0.5291 -0.2180 0.3831
C19A C 0.7112(4) 0.0015(4) 0.5899(4)
H18A H 0.7340 0.0826 0.6335
C22A C 0.5539(4) 0.0112(5) 0.4776(4)
H20A H 0.6005 0.0960 0.5100
H21A H 0.5343 -0.0146 0.3996
Zn2A Zn -0.16191(3) 0.71824(4) 0.56032(3)
C1A C -0.0742(3) 0.8279(3) 0.4001(3)
H1A H -0.0293 0.8906 0.4650
C2A C -0.0748(4) 0.8472(4) 0.3067(3)
H2A H -0.0326 0.9222 0.3098
C3A C -0.1385(3) 0.7547(3) 0.2085(3)
C4A C -0.1974(3) 0.6351(3) 0.3076(3)
H3A H -0.2414 0.5619 0.3070
C5A C -0.1999(3) 0.6467(4) 0.2102(3)
H4A H -0.2432 0.5815 0.1460
O1A O 0.1777(2) 0.5687(2) 0.5280(2)
O2A O 0.2740(2) 0.4519(2) 0.5142(2)
C6A C 0.3758(4) 0.6603(5) 0.5747(6)
H5A H 0.3640 0.7266 0.6285
H6A H 0.3907 0.6797 0.5133
C7A C 0.2665(3) 0.5507(3) 0.5368(3)
N2A N -0.1354(3) 0.7229(3) 0.4016(2)
C9A C -0.1348(4) 0.7731(4) 0.1056(3)
H8A H -0.1164 0.8571 0.1237
H9A H -0.0743 0.7534 0.0754
C20A C -0.2261(3) 0.7075(4) -0.0877(3)
C21A C -0.2373(4) 0.7967(4) -0.1131(3)
H19A H -0.2574 0.8548 -0.0644
C23A C -0.2444(4) 0.6994(5) 0.0174(3)
H22A H -0.3023 0.7288 0.0413
H23A H -0.2706 0.6165 0.0067
S1A S 0.1136(2) 0.89719(17) 0.88327(15)
O3A O 0.0014(2) 0.6820(2) 0.57433(18)
O4A O 0.0000(2) 0.8609(2) 0.6348(2)
N4A N -0.1901(3) 0.7197(3) -0.2851(2)
C24A C 0.0537(3) 0.7945(3) 0.6152(3)
C25A C 0.1809(3) 0.8505(4) 0.6361(3)
H24A H 0.2107 0.7929 0.6400
H25A H 0.2022 0.8678 0.5750
C26A C 0.2329(4) 0.9448(4) 0.8407(4)
C27A C 0.3378(8) 0.9605(8) 0.9130(5)
H26A H 0.4128 0.9891 0.9075
C28A C -0.2185(4) 0.7990(4) -0.2110(3)
H27A H -0.2262 0.8602 -0.2261
C29A C 0.2357(3) 0.9653(4) 0.7399(4)
H28A H 0.1973 1.0180 0.7420
H29A H 0.3136 1.0053 0.7380
C30A C -0.1797(4) 0.6331(4) -0.2606(3)
H30A H -0.1586 0.5768 -0.3105
C31A C -0.1985(5) 0.6230(5) -0.1657(3)
H31A H -0.1927 0.5593 -0.1537
S2A S 0.43506(19) 0.6874(3) 0.8354(2)
C32A C 0.4801(4) 0.6527(6) 0.6230(5)
H32A H 0.5430 0.7280 0.6419
H33A H 0.4959 0.5911 0.5674
C33A C 0.4752(5) 0.6265(7) 0.7204(5)
C34A C 0.3011(12) 0.9285(10) 0.9750(15)
H34A H 0.3524 0.9246 1.0234
C35A C 0.1880(11) 0.8933(6) 0.9901(5)
H35A H 0.1609 0.8729 1.0451
C36A C 0.5143(6) 0.5377(8) 0.7240(6)
H36A H 0.5419 0.4915 0.6711
C37A C 0.4704(7) 0.5963(10) 0.8849(8)
H37A H 0.4661 0.5919 0.9514
C38A C 0.5044(9) 0.5359(12) 0.8038(15)
H38A H 0.5249 0.4789 0.8152
Zn1_2 Zn 0.0000 0.5000 1.5000
Zn2_2 Zn 0.16191(3) 0.28176(4) 1.43968(3)
Zn2A_2 Zn -0.16191(3) 0.71824(4) -0.43968(3)
Zn2A_3 Zn 0.83809(3) -0.28176(4) 0.56032(3)
N1A_2 N -0.0066(3) 0.5074(3) 0.3471(2)
N3A_2 N -0.2608(2) 0.8195(3) 0.5516(2)
N4_2 N 0.1901(3) 0.2803(3) 0.2851(2)
N4A_2 N -0.1901(3) 0.7197(3) 0.7149(2)
Cl1 Cl 0.64608(14) 0.26787(16) 0.82704(12)
O5 O 0.6584(4) 0.2760(6) 0.7272(4)
O6 O 0.6919(7) 0.3756(6) 0.9160(5)
O7 O 0.7314(8) 0.2216(8) 0.8470(7)
O8 O 0.5434(6) 0.1936(8) 0.8235(6)
loop_
_geom_bond_atom_site_label_1
_geom_bond_atom_site_label_2
_geom_bond_site_symmetry_1
_geom_bond_site_symmetry_2
Zn1 N1 1_555 1_555
Zn2 N2 1_555 1_555
N1 C10 1_555 1_555
C1 H1 1_555 1_555
C2 C1 1_555 1_555
H2 C2 1_555 1_555
C3 C2 1_555 1_555
C4 H3 1_555 1_555
C5 C3 1_555 1_555
H4 C5 1_555 1_555
O1 Zn1 1_555 1_555
O2 C7 1_555 1_555
C6 H5 1_555 1_555
H6 C6 1_555 1_555
C7 O1 1_555 1_555
N2 C1 1_555 1_555
C8 H7 1_555 1_555
C9 C3 1_555 1_555
H8 C9 1_555 1_555
H9 C9 1_555 1_555
C10 C8 1_555 1_555
H10 C10 1_555 1_555
C11 N1 1_555 1_555
H11 C11 1_555 1_555
C12 C11 1_555 1_555
H12 C12 1_555 1_555
C13 C8 1_555 1_555
N3 Zn2 1_555 1_555
C14 N3 1_555 1_555
H13 C14 1_555 1_555
C15 C13 1_555 1_555
H14 C15 1_555 1_555
H15 C15 1_555 1_555
C16 N3 1_555 1_555
H16 C16 1_555 1_555
C17 C18 1_555 1_555
C18 C16 1_555 1_555
H17 C18 1_555 1_555
C19 C14 1_555 1_555
H18 C19 1_555 1_555
C20 C21 1_555 1_555
C21 H19 1_555 1_555
C22 C17 1_555 1_555
H20 C22 1_555 1_555
H21 C22 1_555 1_555
C23 C9 1_555 1_555
H22 C23 1_555 1_555
H23 C23 1_555 1_555
S1 C26 1_555 1_555
O3 Zn1 1_555 1_555
O4 Zn2 1_555 1_555
N4 C28 1_555 1_555
C24 O3 1_555 1_555
C25 C24 1_555 1_555
H24 C25 1_555 1_555
H25 C25 1_555 1_555
C26 C27 1_555 1_555
C27 H26 1_555 1_555
C28 C21 1_555 1_555
H27 C28 1_555 1_555
C29 C25 1_555 1_555
H28 C29 1_555 1_555
H29 C29 1_555 1_555
C30 N4 1_555 1_555
H30 C30 1_555 1_555
C31 C20 1_555 1_555
H31 C31 1_555 1_555
S2 C33 1_555 1_555
C32 C6 1_555 1_555
H32 C32 1_555 1_555
H33 C32 1_555 1_555
C33 C32 1_555 1_555
C34 C27 1_555 1_555
H34 C34 1_555 1_555
C35 S1 1_555 1_555
H35 C35 1_555 1_555
C36 C33 1_555 1_555
H36 C36 1_555 1_555
C37 S2 1_555 1_555
H37 C37 1_555 1_555
C38 C36 1_555 1_555
H38 C38 1_555 1_555
Cl1 O5 1_555 1_555
O6 Cl1 1_555 1_555
O7 Cl1 1_555 1_555
O8 Cl1 1_555 1_555
N1A C10A 1_555 1_555
C8A H7A 1_555 1_555
C10A C8A 1_555 1_555
H10A C10A 1_555 1_555
C11A N1A 1_555 1_555
H11A C11A 1_555 1_555
C12A C11A 1_555 1_555
H12A C12A 1_555 1_555
C13A C8A 1_555 1_555
C15A C15 1_555 1_555
H14A C15A 1_555 1_555
H15A C15A 1_555 1_555
N3A C14A 1_555 1_555
C14A H13A 1_555 1_555
C16A N3A 1_555 1_555
H16A C16A 1_555 1_555
C17A C18A 1_555 1_555
C18A C16A 1_555 1_555
H17A C18A 1_555 1_555
C19A C14A 1_555 1_555
H18A C19A 1_555 1_555
C22A C22 1_555 1_555
H20A C22A 1_555 1_555
H21A C22A 1_555 1_555
Zn2A O2 1_555 1_555
C1A H1A 1_555 1_555
C2A C1A 1_555 1_555
H2A C2A 1_555 1_555
C3A C2A 1_555 1_555
C4A H3A 1_555 1_555
C5A C3A 1_555 1_555
H4A C5A 1_555 1_555
O1A Zn1 1_555 1_555
O2A Zn2 1_555 1_555
C6A H5A 1_555 1_555
H6A C6A 1_555 1_555
C7A O1A 1_555 1_555
N2A Zn2A 1_555 1_555
C9A C3A 1_555 1_555
H8A C9A 1_555 1_555
H9A C9A 1_555 1_555
C20A C21A 1_555 1_555
C21A H19A 1_555 1_555
C23A C9A 1_555 1_555
H22A C23A 1_555 1_555
H23A C23A 1_555 1_555
S1A C26A 1_555 1_555
O3A Zn1 1_555 1_555
O4A Zn2A 1_555 1_555
N4A C28A 1_555 1_555
C24A O3A 1_555 1_555
C25A C24A 1_555 1_555
H24A C25A 1_555 1_555
H25A C25A 1_555 1_555
C26A C27A 1_555 1_555
C27A H26A 1_555 1_555
C28A C21A 1_555 1_555
H27A C28A 1_555 1_555
C29A C25A 1_555 1_555
H28A C29A 1_555 1_555
H29A C29A 1_555 1_555
C30A N4A 1_555 1_555
H30A C30A 1_555 1_555
C31A C20A 1_555 1_555
H31A C31A 1_555 1_555
S2A C33A 1_555 1_555
C32A C6A 1_555 1_555
H32A C32A 1_555 1_555
H33A C32A 1_555 1_555
C33A C32A 1_555 1_555
C34A C27A 1_555 1_555
H34A C34A 1_555 1_555
C35A S1A 1_555 1_555
H35A C35A 1_555 1_555
C36A C33A 1_555 1_555
H36A C36A 1_555 1_555
C37A S2A 1_555 1_555
H37A C37A 1_555 1_555
C38A C36A 1_555 1_555
H38A C38A 1_555 1_555
Zn1_2 N1A 1_555 1_555
Zn2_2 N4 1_555 1_555
Zn2A_2 N4A 1_555 1_555
Zn2A_3 N3A 1_555 1_555
N1A_2 Zn1 1_555 1_555
N3A_2 Zn2A 1_555 1_555
N4_2 Zn2 1_555 1_555
N4A_2 Zn2A 1_555 1_555
Zn2 O3 1_555 1_555
C4 C5 1_555 1_555
C4 N2 1_555 1_555
C6 C7 1_555 1_555
C12 C13 1_555 1_555
C17 C19 1_555 1_555
C20 C23 1_555 1_555
O4 C24 1_555 1_555
C26 C29 1_555 1_555
C30 C31 1_555 1_555
C34 C35 1_555 1_555
C37 C38 1_555 1_555
C12A C13A 1_555 1_555
C13A C15A 1_555 1_555
C17A C19A 1_555 1_555
C17A C22A 1_555 1_555
Zn2A O3A 1_555 1_555
C1A N2A 1_555 1_555
C4A C5A 1_555 1_555
C4A N2A 1_555 1_555
O2A C7A 1_555 1_555
C6A C7A 1_555 1_555
C20A C23A 1_555 1_555
O4A C24A 1_555 1_555
C26A C29A 1_555 1_555
C30A C31A 1_555 1_555
C34A C35A 1_555 1_555
C37A C38A 1_555 1_555

#END
