
#######################################################################
#
#                 Cambridge Crystallographic Data Centre
#                                CCDC 
#
#######################################################################
#
# If this CIF has been generated from an entry in the Cambridge 
# Structural Database, then it will include bibliographic, chemical, 
# crystal, experimental, refinement or atomic coordinate data resulting 
# from the CCDC's data processing and validation procedures.
#
#######################################################################

data_TUBBAV
_symmetry_cell_setting           monoclinic
_symmetry_space_group_name_H-M   'P 21/c'
_symmetry_Int_Tables_number      14
_space_group_name_Hall           '-P 2ybc'
loop_
_symmetry_equiv_pos_site_id
_symmetry_equiv_pos_as_xyz
1 x,y,z
2 -x,1/2+y,1/2-z
3 -x,-y,-z
4 x,1/2-y,1/2+z
_cell_length_a                   6.3506(13)
_cell_length_b                   27.177(5)
_cell_length_c                   15.125(3)
_cell_angle_alpha                90
_cell_angle_beta                 101.75(3)
_cell_angle_gamma                90
_cell_volume                     2555.73
loop_
_atom_site_label
_atom_site_type_symbol
_atom_site_fract_x
_atom_site_fract_y
_atom_site_fract_z
N1 N 0.4076(5) 0.42660(13) 0.8251(2)
N2 N -0.6412(6) 0.14210(14) 1.1343(3)
N3 N 0.0990(6) 0.33063(13) 0.7879(3)
C1 C 0.0969(7) 0.28406(17) 0.7597(3)
H1 H 0.1568 0.2768 0.7100
C2 C 0.5856(8) 0.50160(18) 0.8801(4)
H2 H 0.5997 0.5354 0.8735
C3 C 0.0109(7) 0.34049(17) 0.8596(3)
H3 H 0.0108 0.3728 0.8797
C4 C 0.0092(8) 0.24609(17) 0.8016(4)
H4 H 0.0095 0.2141 0.7797
C5 C 0.4336(7) 0.47516(17) 0.8189(3)
H5 H 0.3465 0.4921 0.7717
C6 C -0.0789(7) 0.30479(17) 0.9043(3)
H6 H -0.1396 0.3132 0.9533
C7 C 0.7148(7) 0.47700(18) 0.9505(3)
C8 C -0.0790(7) 0.25610(17) 0.8763(3)
C9 C 0.6789(7) 0.4270(2) 0.9592(3)
H7 H 0.7577 0.4095 1.0077
C10 C 0.5254(8) 0.40354(18) 0.8955(4)
H8 H 0.5035 0.3700 0.9022
C11 C -0.6454(8) 0.15993(19) 0.9788(3)
H9 H -0.7069 0.1539 0.9186
C12 C -0.7210(7) 0.13588(17) 1.0461(3)
H10 H -0.8345 0.1140 1.0292
C13 C -0.4738(8) 0.1736(2) 1.1568(4)
H11 H -0.4120 0.1782 1.2175
C14 C -0.4774(7) 0.19308(19) 1.0011(3)
C15 C -0.3913(9) 0.1995(2) 1.0917(4)
H12 H -0.2774 0.2213 1.1095
O1 O 0.0278(6) 0.43602(17) 0.6378(3)
Zn1 Zn 0.20261(8) 0.390010(17) 0.72544(3)
C16 C -0.1207(7) 0.44846(19) 0.6774(4)
C17 C -0.2902(8) 0.4822(2) 0.6301(4)
H13 H -0.3671 0.4955 0.6740
H14 H -0.3920 0.4633 0.5867
C18 C -0.2101(8) 0.5251(2) 0.5808(4)
H15 H -0.1525 0.5123 0.5308
H16 H -0.3308 0.5463 0.5562
C19 C -0.4023(8) 0.2235(2) 0.9304(4)
H17 H -0.4270 0.2580 0.9415
H18 H -0.4878 0.2152 0.8716
C20 C 0.8914(7) 0.5031(2) 1.0155(4)
C21 C -0.1676(8) 0.21636(18) 0.9287(4)
H19 H -0.1494 0.1847 0.9017
H20 H -0.0854 0.2159 0.9902
O2 O -0.1192(8) 0.4332(2) 0.7547(4)
C22 C -0.0773(6) 0.57889(13) 0.7356(2)
H21 H -0.1918 0.5776 0.7653
C23 C -0.0410(8) 0.55487(18) 0.6404(4)
S1 S 0.1966(4) 0.56650(10) 0.6144(2)
C24 C 0.2913(13) 0.5976(3) 0.7009(6)
H22 H 0.4306 0.6100 0.7122
C25 C 0.1504(15) 0.6051(2) 0.7595(5)
H23 H 0.1886 0.6248 0.8106
N1B N 1.5924(5) 0.57340(13) 1.1749(2)
C2B C 1.4144(8) 0.49840(18) 1.1199(4)
H2B H 1.4003 0.4646 1.1265
C5B C 1.5664(7) 0.52484(17) 1.1811(3)
H5B H 1.6535 0.5079 1.2283
C7B C 1.2852(7) 0.52300(18) 1.0495(3)
C9B C 1.3211(7) 0.5730(2) 1.0408(3)
H7B H 1.2423 0.5905 0.9923
C10B C 1.4746(8) 0.59646(18) 1.1045(4)
H8B H 1.4965 0.6300 1.0978
C20B C 1.1086(7) 0.4969(2) 0.9845(4)
N2B N 2.6412(6) 0.85790(14) 0.8657(3)
N3B N 1.9010(6) 0.66937(13) 1.2121(3)
C1B C 1.9031(7) 0.71594(17) 1.2403(3)
H1B H 1.8432 0.7232 1.2900
C3B C 1.9891(7) 0.65951(17) 1.1404(3)
H3B H 1.9892 0.6272 1.1203
C4B C 1.9908(8) 0.75391(17) 1.1984(4)
H4B H 1.9905 0.7859 1.2203
C6B C 2.0789(7) 0.69521(17) 1.0957(3)
H6B H 2.1396 0.6868 1.0467
C8B C 2.0790(7) 0.74390(17) 1.1237(3)
C11B C 2.6454(8) 0.84007(19) 1.0212(3)
H9B H 2.7069 0.8461 1.0814
C12B C 2.7210(7) 0.86412(17) 0.9539(3)
H10B H 2.8345 0.8860 0.9708
C13B C 2.4738(8) 0.8264(2) 0.8432(4)
H11B H 2.4120 0.8218 0.7825
C14B C 2.4774(7) 0.80692(19) 0.9989(3)
C15B C 2.3913(9) 0.8005(2) 0.9083(4)
H12B H 2.2774 0.7787 0.8905
O1B O 1.9722(6) 0.56398(17) 1.3622(3)
Zn1B Zn 1.79739(8) 0.609990(17) 1.27456(3)
C16B C 2.1207(7) 0.55154(19) 1.3226(4)
C17B C 2.2902(8) 0.5178(2) 1.3699(4)
H13B H 2.3671 0.5045 1.3260
H14B H 2.3920 0.5367 1.4133
C18B C 2.2101(8) 0.4749(2) 1.4192(4)
H15B H 2.1525 0.4877 1.4692
H16B H 2.3308 0.4537 1.4438
C19B C 2.4023(8) 0.7765(2) 1.0696(4)
H17B H 2.4270 0.7420 1.0585
H18B H 2.4878 0.7848 1.1284
C21B C 2.1676(8) 0.78364(18) 1.0713(4)
H19B H 2.1494 0.8153 1.0983
H20B H 2.0854 0.7841 1.0098
O2B O 2.1192(8) 0.5668(2) 1.2453(4)
C22B C 2.0773(6) 0.42111(13) 1.2644(2)
H21B H 2.1918 0.4224 1.2347
C23B C 2.0410(8) 0.44513(18) 1.3596(4)
S1B S 1.8034(4) 0.43350(10) 1.3856(2)
C24B C 1.7087(13) 0.4024(3) 1.2991(6)
H22B H 1.5694 0.3900 1.2878
C25B C 1.8496(15) 0.3949(2) 1.2405(5)
H23B H 1.8114 0.3752 1.1894
N2A N 1.6412(6) 0.64210(14) 1.3657(3)
N2C N 0.3588(6) 0.35790(14) 0.6343(3)
Zn1A Zn 2.79739(8) 0.890010(17) 0.77456(3)
Zn1C Zn -0.79739(8) 0.109990(17) 1.22544(3)
Cl1 Cl 0.3155(3) 0.32147(6) 0.11140(11)
O3 O 0.1850(12) 0.2802(2) 0.0859(5)
O4 O 0.4005(14) 0.3171(3) 0.2047(5)
O5 O 0.2140(17) 0.3668(3) 0.0880(5)
O6 O 0.4781(15) 0.3215(3) 0.0610(7)
loop_
_geom_bond_atom_site_label_1
_geom_bond_atom_site_label_2
_geom_bond_site_symmetry_1
_geom_bond_site_symmetry_2
N1 C5 1_555 1_555
N2 C12 1_555 1_555
N3 C1 1_555 1_555
C1 H1 1_555 1_555
C2 H2 1_555 1_555
C3 N3 1_555 1_555
H3 C3 1_555 1_555
C4 C1 1_555 1_555
H4 C4 1_555 1_555
C5 C2 1_555 1_555
H5 C5 1_555 1_555
C6 C3 1_555 1_555
H6 C6 1_555 1_555
C7 C2 1_555 1_555
C8 C4 1_555 1_555
C9 C7 1_555 1_555
H7 C9 1_555 1_555
C10 N1 1_555 1_555
H8 C10 1_555 1_555
C11 H9 1_555 1_555
C12 C11 1_555 1_555
H10 C12 1_555 1_555
C13 N2 1_555 1_555
H11 C13 1_555 1_555
C14 C11 1_555 1_555
C15 C13 1_555 1_555
H12 C15 1_555 1_555
O1 Zn1 1_555 1_555
Zn1 N1 1_555 1_555
C16 O1 1_555 1_555
C17 C16 1_555 1_555
H13 C17 1_555 1_555
H14 C17 1_555 1_555
C18 C17 1_555 1_555
H15 C18 1_555 1_555
H16 C18 1_555 1_555
C19 C14 1_555 1_555
H17 C19 1_555 1_555
H18 C19 1_555 1_555
C20 C7 1_555 1_555
C21 C8 1_555 1_555
H19 C21 1_555 1_555
H20 C21 1_555 1_555
O2 Zn1 1_555 1_555
C22 H21 1_555 1_555
C23 C18 1_555 1_555
S1 C23 1_555 1_555
C24 S1 1_555 1_555
H22 C24 1_555 1_555
C25 C22 1_555 1_555
H23 C25 1_555 1_555
Cl1 O3 1_555 1_555
O4 Cl1 1_555 1_555
O5 Cl1 1_555 1_555
O6 Cl1 1_555 1_555
N1B C5B 1_555 1_555
C2B H2B 1_555 1_555
C5B C2B 1_555 1_555
H5B C5B 1_555 1_555
C7B C2B 1_555 1_555
C9B C7B 1_555 1_555
H7B C9B 1_555 1_555
C10B N1B 1_555 1_555
H8B C10B 1_555 1_555
C20B C20 1_555 1_555
N2B C12B 1_555 1_555
N3B C1B 1_555 1_555
C1B H1B 1_555 1_555
C3B N3B 1_555 1_555
H3B C3B 1_555 1_555
C4B C1B 1_555 1_555
H4B C4B 1_555 1_555
C6B C3B 1_555 1_555
H6B C6B 1_555 1_555
C8B C4B 1_555 1_555
C11B H9B 1_555 1_555
C12B C11B 1_555 1_555
H10B C12B 1_555 1_555
C13B N2B 1_555 1_555
H11B C13B 1_555 1_555
C14B C11B 1_555 1_555
C15B C13B 1_555 1_555
H12B C15B 1_555 1_555
O1B Zn1B 1_555 1_555
Zn1B N1B 1_555 1_555
C16B O1B 1_555 1_555
C17B C16B 1_555 1_555
H13B C17B 1_555 1_555
H14B C17B 1_555 1_555
C18B C17B 1_555 1_555
H15B C18B 1_555 1_555
H16B C18B 1_555 1_555
C19B C14B 1_555 1_555
H17B C19B 1_555 1_555
H18B C19B 1_555 1_555
C21B C8B 1_555 1_555
H19B C21B 1_555 1_555
H20B C21B 1_555 1_555
O2B Zn1B 1_555 1_555
C22B H21B 1_555 1_555
C23B C18B 1_555 1_555
S1B C23B 1_555 1_555
C24B S1B 1_555 1_555
H22B C24B 1_555 1_555
C25B C22B 1_555 1_555
H23B C25B 1_555 1_555
N2A Zn1B 1_555 1_555
N2C Zn1 1_555 1_555
Zn1A N2B 1_555 1_555
Zn1C N2 1_555 1_555
N3 Zn1 1_555 1_555
C6 C8 1_555 1_555
C9 C10 1_555 1_555
C14 C15 1_555 1_555
C16 O2 1_555 1_555
C19 C21 1_555 1_555
C22 C23 1_555 1_555
C24 C25 1_555 1_555
C7B C20B 1_555 1_555
C9B C10B 1_555 1_555
N3B Zn1B 1_555 1_555
C6B C8B 1_555 1_555
C14B C15B 1_555 1_555
C16B O2B 1_555 1_555
C19B C21B 1_555 1_555
C22B C23B 1_555 1_555
C24B C25B 1_555 1_555

#END
