
#######################################################################
#
#                 Cambridge Crystallographic Data Centre
#                                CCDC 
#
#######################################################################
#
# If this CIF has been generated from an entry in the Cambridge 
# Structural Database, then it will include bibliographic, chemical, 
# crystal, experimental, refinement or atomic coordinate data resulting 
# from the CCDC's data processing and validation procedures.
#
#######################################################################

data_TUBCAW
_symmetry_cell_setting           monoclinic
_symmetry_space_group_name_H-M   'C 2/c'
_symmetry_Int_Tables_number      15
_space_group_name_Hall           '-C 2yn'
loop_
_symmetry_equiv_pos_site_id
_symmetry_equiv_pos_as_xyz
1 x,y,z
2 -x,y,1/2-z
3 1/2+x,1/2+y,z
4 1/2-x,1/2+y,1/2-z
5 -x,-y,-z
6 x,-y,1/2+z
7 1/2-x,1/2-y,-z
8 1/2+x,1/2-y,1/2+z
_cell_length_a                   27.9637(16)
_cell_length_b                   7.2809(4)
_cell_length_c                   19.2168(11)
_cell_angle_alpha                90
_cell_angle_beta                 111.8870(10)
_cell_angle_gamma                90
_cell_volume                     3630.54
loop_
_atom_site_label
_atom_site_type_symbol
_atom_site_fract_x
_atom_site_fract_y
_atom_site_fract_z
Cd1 Cd 0.125099(10) 0.22000(4) 0.153438(14)
Cd2 Cd 0.246430(9) -0.01685(4) 0.263785(13)
C1 C 0.20583(15) 0.0738(5) 0.0809(2)
C2 C 0.21605(15) 0.0478(5) 0.0096(2)
C3 C 0.10051(15) -0.2724(5) 0.1170(2)
C4 C 0.17887(16) 0.0927(8) -0.0586(2)
H1 H 0.1464 0.1303 -0.0616
C5 C 0.04918(14) -0.2643(5) 0.0564(2)
C6 C 0.18995(16) 0.0819(8) -0.1224(2)
H2 H 0.1645 0.1141 -0.1680
C7 C 0.00709(14) -0.1962(6) 0.0692(2)
H3 H 0.0103 -0.1566 0.1168
C8 C -0.03991(15) -0.1880(6) 0.0099(2)
H4 H -0.0682 -0.1426 0.0187
C9 C 0.27150(17) -0.0210(6) -0.0552(2)
H5 H 0.3034 -0.0614 -0.0536
C10 C 0.26312(17) -0.0134(6) 0.0107(2)
H6 H 0.2888 -0.0490 0.0556
C11 C -0.00562(15) -0.3072(6) -0.0712(2)
H7 H -0.0097 -0.3443 -0.1194
C12 C 0.04253(15) -0.3216(6) -0.0151(2)
H8 H 0.0701 -0.3692 -0.0253
N1 N 0.12386(10) -0.1270(4) 0.15786(16)
N2 N 0.17003(11) -0.1894(4) 0.20244(16)
N3 N 0.17412(11) -0.3620(4) 0.18918(17)
N4 N 0.13067(11) -0.4213(5) 0.13514(18)
N5 N 0.23600(13) 0.0267(5) -0.12165(18)
N6 N -0.04647(12) -0.2424(4) -0.05933(18)
O1 O 0.20227(9) 0.2501(3) 0.24295(13)
H9 H 0.1952 0.2670 0.2766
O2 O 0.24021(12) 0.0198(4) 0.14057(15)
O3 O 0.0886(2) 0.2110(9) 0.2426(3)
H10 H 0.0961 0.3171 0.2884
O4 O 0.16405(11) 0.1505(5) 0.07343(15)
Cd1_2 Cd 0.125099(10) -0.78000(4) 0.153438(14)
Cd1D Cd -0.125099(10) -0.22000(4) -0.153438(14)
Cd2C Cd 0.253570(9) -0.51685(4) 0.236215(13)
Cd2C_2 Cd 0.253570(9) 0.48315(4) 0.236215(13)
Cd2E Cd 0.246430(9) 0.01685(4) -0.236215(13)
N3C N 0.32588(11) 0.1380(4) 0.31082(17)
N4_2 N 0.13067(11) 0.5787(5) 0.13514(18)
N5E N 0.23600(13) -0.0267(5) 0.37835(18)
N6D N 0.04647(12) 0.2424(4) 0.05933(18)
O1C O 0.29773(9) -0.2499(3) 0.25705(13)
loop_
_geom_bond_atom_site_label_1
_geom_bond_atom_site_label_2
_geom_bond_site_symmetry_1
_geom_bond_site_symmetry_2
Cd1 N1 1_555 1_555
Cd2 N2 1_555 1_555
C1 C2 1_555 1_555
C2 C4 1_555 1_555
C3 C5 1_555 1_555
C4 H1 1_555 1_555
C5 C7 1_555 1_555
C6 C4 1_555 1_555
H2 C6 1_555 1_555
C7 H3 1_555 1_555
C8 C7 1_555 1_555
H4 C8 1_555 1_555
C9 H5 1_555 1_555
C10 C2 1_555 1_555
H6 C10 1_555 1_555
C11 H7 1_555 1_555
C12 C5 1_555 1_555
H8 C12 1_555 1_555
N1 C3 1_555 1_555
N2 N1 1_555 1_555
N3 N2 1_555 1_555
N4 C3 1_555 1_555
N5 C6 1_555 1_555
N6 C8 1_555 1_555
O1 Cd1 1_555 1_555
H9 O1 1_555 1_555
O2 Cd2 1_555 1_555
O3 Cd1 1_555 1_555
H10 O3 1_555 1_555
O4 Cd1 1_555 1_555
Cd1_2 N4 1_555 1_555
Cd1D N6 1_555 1_555
Cd2C N3 1_555 1_555
Cd2C_2 O1 1_555 1_555
Cd2E N5 1_555 1_555
N3C Cd2 1_555 1_555
N4_2 Cd1 1_555 1_555
N5E Cd2 1_555 1_555
N6D Cd1 1_555 1_555
O1C Cd2 1_555 1_555
Cd2 O1 1_555 1_555
C1 O2 1_555 1_555
C1 O4 1_555 1_555
C9 C10 1_555 1_555
C9 N5 1_555 1_555
C11 C12 1_555 1_555
C11 N6 1_555 1_555
N3 N4 1_555 1_555
Cd2C O1C 1_555 1_555

#END
