
#######################################################################
#
#                 Cambridge Crystallographic Data Centre
#                                CCDC 
#
#######################################################################
#
# If this CIF has been generated from an entry in the Cambridge 
# Structural Database, then it will include bibliographic, chemical, 
# crystal, experimental, refinement or atomic coordinate data resulting 
# from the CCDC's data processing and validation procedures.
#
#######################################################################

data_TUBJAD
_symmetry_cell_setting           orthorhombic
_symmetry_space_group_name_H-M   'P n a 21'
_symmetry_Int_Tables_number      33
_space_group_name_Hall           'P 2c -2n'
loop_
_symmetry_equiv_pos_site_id
_symmetry_equiv_pos_as_xyz
1 x,y,z
2 -x,-y,1/2+z
3 1/2+x,1/2-y,z
4 1/2-x,1/2+y,1/2+z
_cell_length_a                   15.987(6)
_cell_length_b                   16.920(6)
_cell_length_c                   8.838(3)
_cell_angle_alpha                90
_cell_angle_beta                 90
_cell_angle_gamma                90
_cell_volume                     2390.68
loop_
_atom_site_label
_atom_site_type_symbol
_atom_site_fract_x
_atom_site_fract_y
_atom_site_fract_z
Cu1 Cu 0.80611(11) 0.21839(8) 0.9296(4)
O1 O 0.8581(6) 0.1243(5) 1.0104(11)
O2 O 0.7467(6) 0.0462(6) 0.9810(10)
O3 O 0.7381(9) -0.1795(6) 1.3526(13)
O4 O 0.8511(10) -0.2563(7) 1.3435(15)
O5 O 0.9784(7) 0.2409(8) 0.2617(13)
O6 O 0.9309(9) 0.2810(6) 0.9766(11)
H1 H 0.9317 0.3066 1.0706
H2 H 0.9427 0.3197 0.9041
N1 N 0.8326(7) 0.1876(6) 0.7121(13)
N2 N 1.0252(10) 0.3024(7) 0.4731(16)
H3 H 1.0190 0.3107 0.5707
N3 N 1.2565(9) 0.2569(8) 0.1359(14)
C1 C 0.8002(10) 0.1249(10) 0.6509(16)
H4 H 0.7656 0.0929 0.7131
C2 C 0.8116(10) 0.1010(11) 0.5048(19)
H5 H 0.7819 0.0577 0.4627
C3 C 0.8674(10) 0.1428(9) 0.425(2)
H6 H 0.8791 0.1274 0.3235
C4 C 0.9087(11) 0.2079(11) 0.4853(16)
C5 C 0.8879(9) 0.2291(8) 0.6388(16)
H7 H 0.9143 0.2729 0.6859
C6 C 0.9742(12) 0.2571(12) 0.3989(18)
C7 C 1.0953(13) 0.3400(9) 0.3856(19)
H8 H 1.0995 0.3955 0.3719
C8 C 1.2834(12) 0.1897(9) 0.2071(18)
H9 H 1.3271 0.1584 0.1659
C9 C 1.2450(12) 0.1694(11) 0.340(2)
H10 H 1.2616 0.1222 0.3896
C10 C 1.1795(14) 0.2179(11) 0.407(3)
H11 H 1.1543 0.2043 0.5004
C11 C 1.1548(12) 0.2863(10) 0.3250(17)
C12 C 1.1961(11) 0.3016(9) 0.1924(16)
H12 H 1.1803 0.3475 0.1372
C13 C 0.8173(11) 0.0581(8) 1.0261(14)
C14 C 0.8126(14) -0.1909(8) 1.3275(15)
C15 C 0.8669(8) -0.0017(7) 1.1215(15)
C16 C 0.8228(9) -0.0656(7) 1.1757(14)
H13 H 0.7648 -0.0715 1.1546
C17 C 0.8646(9) -0.1199(8) 1.2603(18)
C18 C 0.9515(10) -0.1118(10) 1.2867(17)
H14 H 0.9814 -0.1506 1.3423
C19 C 0.9901(10) -0.0489(9) 1.2321(17)
H15 H 1.0483 -0.0430 1.2507
C20 C 0.9513(9) 0.0060(8) 1.1528(17)
H16 H 0.9813 0.0508 1.1173
Cu1B Cu 1.30611(11) 0.28161(8) -0.0704(4)
Cu1C Cu 0.69389(11) -0.28161(8) 1.4296(4)
O3C O 0.7619(9) 0.3205(6) 0.8526(13)
O4C O 0.6489(10) 0.2437(7) 0.8435(15)
N3B N 0.7565(9) 0.2431(8) 1.1359(14)
O7 O 0.8941(13) 0.4842(15) 0.612(4)
H17 H 0.9229 0.5172 0.5578
H18 H 0.8507 0.4684 0.5613
O8 O 0.8430(9) 0.4631(6) 0.921(2)
H19 H 0.8187 0.4179 0.9049
H20 H 0.8821 0.4704 0.8537
O9 O 0.9584(15) 0.456(2) 1.132(3)
H21 H 0.9325 0.4509 1.2175
H22 H 0.9230 0.4502 1.0576
O10 O 1.0307(9) 0.3469(8) 0.7770(17)
H23 H 1.0743 0.3164 0.7687
H24 H 1.0431 0.3876 0.8326
loop_
_geom_bond_atom_site_label_1
_geom_bond_atom_site_label_2
_geom_bond_site_symmetry_1
_geom_bond_site_symmetry_2
Cu1 O1 1_555 1_555
O1 C13 1_555 1_555
O2 C13 1_555 1_555
O3 C14 1_555 1_555
O4 C14 1_555 1_555
O5 C6 1_555 1_555
O6 Cu1 1_555 1_555
H1 O6 1_555 1_555
H2 O6 1_555 1_555
N1 Cu1 1_555 1_555
N2 H3 1_555 1_555
N3 C8 1_555 1_555
C1 N1 1_555 1_555
H4 C1 1_555 1_555
C2 C1 1_555 1_555
H5 C2 1_555 1_555
C3 C2 1_555 1_555
H6 C3 1_555 1_555
C4 C3 1_555 1_555
C5 N1 1_555 1_555
H7 C5 1_555 1_555
C6 N2 1_555 1_555
C7 N2 1_555 1_555
H8 C7 1_555 1_555
C8 H9 1_555 1_555
C9 C8 1_555 1_555
H10 C9 1_555 1_555
C10 C9 1_555 1_555
H11 C10 1_555 1_555
C11 C7 1_555 1_555
C12 N3 1_555 1_555
H12 C12 1_555 1_555
C13 C15 1_555 1_555
C14 C17 1_555 1_555
C15 C16 1_555 1_555
C16 H13 1_555 1_555
C17 C16 1_555 1_555
C18 C17 1_555 1_555
H14 C18 1_555 1_555
C19 C18 1_555 1_555
H15 C19 1_555 1_555
C20 C15 1_555 1_555
H16 C20 1_555 1_555
O7 H17 1_555 1_555
H18 O7 1_555 1_555
O8 H19 1_555 1_555
H20 O8 1_555 1_555
O9 H21 1_555 1_555
H22 O9 1_555 1_555
O10 H23 1_555 1_555
H24 O10 1_555 1_555
Cu1B N3 1_555 1_555
Cu1C O3 1_555 1_555
O3C Cu1 1_555 1_555
O4C Cu1 1_555 1_555
N3B Cu1 1_555 1_555
O4 Cu1C 1_555 1_555
C4 C5 1_555 1_555
C4 C6 1_555 1_555
C10 C11 1_555 1_555
C11 C12 1_555 1_555
C19 C20 1_555 1_555

#END
