
#######################################################################
#
#                 Cambridge Crystallographic Data Centre
#                                CCDC 
#
#######################################################################
#
# If this CIF has been generated from an entry in the Cambridge 
# Structural Database, then it will include bibliographic, chemical, 
# crystal, experimental, refinement or atomic coordinate data resulting 
# from the CCDC's data processing and validation procedures.
#
#######################################################################

data_TUBMOU
_symmetry_cell_setting           monoclinic
_symmetry_space_group_name_H-M   'P 21/c'
_symmetry_Int_Tables_number      14
_space_group_name_Hall           '-P 2ybc'
loop_
_symmetry_equiv_pos_site_id
_symmetry_equiv_pos_as_xyz
1 x,y,z
2 -x,1/2+y,1/2-z
3 -x,-y,-z
4 x,1/2-y,1/2+z
_cell_length_a                   6.5613(2)
_cell_length_b                   18.4602(5)
_cell_length_c                   12.7493(4)
_cell_angle_alpha                90
_cell_angle_beta                 98.384(3)
_cell_angle_gamma                90
_cell_volume                     1527.73
loop_
_atom_site_label
_atom_site_type_symbol
_atom_site_fract_x
_atom_site_fract_y
_atom_site_fract_z
O1 O 0.2427(3) 0.65827(11) 0.78140(17)
N1 N 0.2365(4) 0.54761(12) 0.9059(2)
N2 N 0.4238(4) 0.57985(12) 0.53027(19)
N3 N 0.3376(4) 0.53170(13) 0.5724(2)
N4 N -0.0079(4) 0.87755(13) 0.9476(2)
N5 N 0.5045(4) 0.62407(15) 0.4881(2)
N6 N 0.1617(4) 0.61115(13) 0.9411(2)
N7 N 0.3871(4) 0.42769(13) 0.8231(2)
C1 C 0.2440(4) 0.49003(15) 0.9622(2)
H1 H 0.2004 0.4902 1.0284
C2 C 0.4582(5) 0.36785(17) 0.7819(3)
H2 H 0.5032 0.3711 0.7162
C3 C 0.1744(4) 0.66303(14) 0.8692(2)
C4 C 0.3238(4) 0.42342(15) 0.9190(2)
N8 N -0.1785(4) 0.55187(13) 0.7188(2)
N9 N -0.0454(4) 0.52897(14) 0.6751(2)
C5 C 0.0748(5) 0.79025(16) 0.8216(2)
H3 H 0.0924 0.7800 0.7521
C6 C 0.3308(5) 0.35888(16) 0.9755(3)
H4 H 0.2871 0.3571 1.0416
C7 C 0.1014(4) 0.73627(15) 0.8980(2)
C8 C 0.0220(5) 0.85915(16) 0.8492(2)
H5 H 0.0063 0.8947 0.7970
C9 C 0.0672(5) 0.75459(15) 0.9998(2)
H6 H 0.0801 0.7197 1.0530
C10 C 0.0142(5) 0.82478(16) 1.0218(2)
H7 H -0.0072 0.8362 1.0904
C11 C 0.4681(5) 0.30124(16) 0.8325(3)
H8 H 0.5162 0.2605 0.8010
C12 C 0.4042(5) 0.29701(17) 0.9314(3)
H9 H 0.4105 0.2532 0.9678
N10 N -0.3057(4) 0.57606(18) 0.7648(2)
Cd1 Cd 0.34566(3) 0.544321(10) 0.745947(15)
Cd2 Cd 0.0000 1.0000 1.0000
O1B O -0.2427(3) 1.34173(11) 1.21860(17)
N1B N -0.2365(4) 1.45239(12) 1.0941(2)
N2B N -0.4238(4) 1.42015(12) 1.46973(19)
N3B N -0.3376(4) 1.46830(13) 1.4276(2)
N4B N 0.0079(4) 1.12245(13) 1.0524(2)
N5B N -0.5045(4) 1.37593(15) 1.5119(2)
N6B N -0.1617(4) 1.38885(13) 1.0589(2)
N7B N -0.3871(4) 1.57231(13) 1.1769(2)
C1B C -0.2440(4) 1.50997(15) 1.0378(2)
H1B H -0.2004 1.5098 0.9716
C2B C -0.4582(5) 1.63215(17) 1.2181(3)
H2B H -0.5032 1.6289 1.2838
C3B C -0.1744(4) 1.33697(14) 1.1308(2)
C4B C -0.3238(4) 1.57658(15) 1.0810(2)
N8B N 0.1785(4) 1.44813(13) 1.2812(2)
N9B N 0.0454(4) 1.47103(14) 1.3249(2)
C5B C -0.0748(5) 1.20975(16) 1.1784(2)
H3B H -0.0924 1.2200 1.2479
C6B C -0.3308(5) 1.64112(16) 1.0245(3)
H4B H -0.2871 1.6429 0.9584
C7B C -0.1014(4) 1.26373(15) 1.1020(2)
C8B C -0.0220(5) 1.14085(16) 1.1508(2)
H5B H -0.0063 1.1053 1.2030
C9B C -0.0672(5) 1.24541(15) 1.0002(2)
H6B H -0.0801 1.2803 0.9470
C10B C -0.0142(5) 1.17522(16) 0.9782(2)
H7B H 0.0072 1.1638 0.9096
C11B C -0.4681(5) 1.69876(16) 1.1675(3)
H8B H -0.5162 1.7395 1.1990
C12B C -0.4042(5) 1.70299(17) 1.0686(3)
H9B H -0.4105 1.7468 1.0322
N10B N 0.3057(4) 1.42394(18) 1.2352(2)
Cd1B Cd -0.34566(3) 1.455679(10) 1.254053(15)
N3A N -0.3376(4) 1.03170(13) 0.9276(2)
N3C N 0.3376(4) 0.96830(13) 1.0724(2)
N9A N 0.0454(4) 1.02897(14) 0.8249(2)
N9C N -0.0454(4) 0.97103(14) 1.1751(2)
N10_2 N 0.6943(4) 0.57606(18) 0.7648(2)
N10B_2 N -0.6943(4) 1.42394(18) 1.2352(2)
Cd1_2 Cd -0.65434(3) 0.544321(10) 0.745947(15)
Cd1B_2 Cd 0.65434(3) 1.455679(10) 1.254053(15)
Cd2A Cd 0.0000 0.5000 0.5000
Cd2A_2 Cd 0.0000 1.5000 1.5000
loop_
_geom_bond_atom_site_label_1
_geom_bond_atom_site_label_2
_geom_bond_site_symmetry_1
_geom_bond_site_symmetry_2
O1 C3 1_555 1_555
N1 N6 1_555 1_555
N2 N3 1_555 1_555
N3 Cd1 1_555 1_555
N4 C8 1_555 1_555
N5 N2 1_555 1_555
N6 C3 1_555 1_555
N7 C2 1_555 1_555
C1 N1 1_555 1_555
H1 C1 1_555 1_555
C2 H2 1_555 1_555
C3 C7 1_555 1_555
C4 N7 1_555 1_555
N8 N9 1_555 1_555
N9 Cd1 1_555 1_555
C5 H3 1_555 1_555
C6 C4 1_555 1_555
H4 C6 1_555 1_555
C7 C5 1_555 1_555
C8 C5 1_555 1_555
H5 C8 1_555 1_555
C9 C7 1_555 1_555
H6 C9 1_555 1_555
C10 N4 1_555 1_555
H7 C10 1_555 1_555
C11 C2 1_555 1_555
H8 C11 1_555 1_555
C12 C6 1_555 1_555
H9 C12 1_555 1_555
N10 N8 1_555 1_555
Cd1 O1 1_555 1_555
Cd2 N4 1_555 1_555
O1B C3B 1_555 1_555
N1B N6B 1_555 1_555
N2B N3B 1_555 1_555
N3B Cd1B 1_555 1_555
N4B Cd2 1_555 1_555
N5B N2B 1_555 1_555
N6B C3B 1_555 1_555
N7B C2B 1_555 1_555
C1B N1B 1_555 1_555
H1B C1B 1_555 1_555
C2B H2B 1_555 1_555
C3B C7B 1_555 1_555
C4B N7B 1_555 1_555
N8B N9B 1_555 1_555
N9B Cd1B 1_555 1_555
C5B H3B 1_555 1_555
C6B C4B 1_555 1_555
H4B C6B 1_555 1_555
C7B C5B 1_555 1_555
C8B N4B 1_555 1_555
H5B C8B 1_555 1_555
C9B C7B 1_555 1_555
H6B C9B 1_555 1_555
C10B N4B 1_555 1_555
H7B C10B 1_555 1_555
C11B C2B 1_555 1_555
H8B C11B 1_555 1_555
C12B C6B 1_555 1_555
H9B C12B 1_555 1_555
N10B N8B 1_555 1_555
Cd1B O1B 1_555 1_555
N3A Cd2 1_555 1_555
N3C Cd2 1_555 1_555
N9A Cd2 1_555 1_555
N9C Cd2 1_555 1_555
N10_2 Cd1 1_555 1_555
N10B_2 Cd1B 1_555 1_555
Cd1_2 N10 1_555 1_555
Cd1B_2 N10B 1_555 1_555
Cd2A N3 1_555 1_555
Cd2A_2 N3B 1_555 1_555
N1 Cd1 1_555 1_555
N7 Cd1 1_555 1_555
C1 C4 1_555 1_555
N9 Cd2A 1_555 1_555
C9 C10 1_555 1_555
C11 C12 1_555 1_555
N1B Cd1B 1_555 1_555
N7B Cd1B 1_555 1_555
C1B C4B 1_555 1_555
N9B Cd2A_2 1_555 1_555
C5B C8B 1_555 1_555
C9B C10B 1_555 1_555
C11B C12B 1_555 1_555

#END
