
#######################################################################
#
#                 Cambridge Crystallographic Data Centre
#                                CCDC 
#
#######################################################################
#
# If this CIF has been generated from an entry in the Cambridge 
# Structural Database, then it will include bibliographic, chemical, 
# crystal, experimental, refinement or atomic coordinate data resulting 
# from the CCDC's data processing and validation procedures.
#
#######################################################################

data_TUBMUA
_symmetry_cell_setting           monoclinic
_symmetry_space_group_name_H-M   'P 21/c'
_symmetry_Int_Tables_number      14
_space_group_name_Hall           '-P 2ybc'
loop_
_symmetry_equiv_pos_site_id
_symmetry_equiv_pos_as_xyz
1 x,y,z
2 -x,1/2+y,1/2-z
3 -x,-y,-z
4 x,1/2-y,1/2+z
_cell_length_a                   8.6565(12)
_cell_length_b                   12.8601(15)
_cell_length_c                   14.700(2)
_cell_angle_alpha                90
_cell_angle_beta                 97.749(3)
_cell_angle_gamma                90
_cell_volume                     1621.51
loop_
_atom_site_label
_atom_site_type_symbol
_atom_site_fract_x
_atom_site_fract_y
_atom_site_fract_z
Cd1 Cd 0.55896(4) 0.91682(3) 0.18722(2)
S1 S 0.43540(14) 0.90208(10) 0.33820(8)
S2 S 0.40869(15) 1.10695(10) 0.14516(8)
O1 O 0.7921(4) 0.7999(2) 0.2426(2)
N1 N 0.6751(5) 0.6738(3) 0.1511(3)
H1 H 0.6805 0.6103 0.1228
N2 N 0.5416(4) 0.7330(3) 0.1396(3)
N3 N 0.2832(5) 0.8503(3) 0.1160(3)
N4 N 1.2142(5) 0.5298(3) 0.2607(3)
N5 N 0.6940(6) 0.9313(4) 0.4741(3)
N6 N 0.3637(5) 1.0810(3) -0.0452(3)
C1 C 0.4221(6) 0.6936(4) 0.0913(3)
H2 H 0.4270 0.6260 0.0640
C2 C 0.2776(5) 0.7542(4) 0.0785(3)
C3 C 0.1435(6) 0.7137(4) 0.0299(4)
H3 H 0.1444 0.6464 0.0018
C4 C 0.0073(6) 0.7719(5) 0.0222(4)
H4 H -0.0879 0.7452 -0.0104
C5 C 0.0116(6) 0.8676(5) 0.0620(4)
H5 H -0.0809 0.9094 0.0579
C6 C 0.1508(6) 0.9039(4) 0.1083(4)
H6 H 0.1518 0.9713 0.1365
C7 C 0.7982(5) 0.7144(3) 0.2064(3)
C8 C 0.9410(5) 0.6474(3) 0.2215(3)
C9 C 0.9625(6) 0.5572(4) 0.1740(3)
H7 H 0.8830 0.5331 0.1268
C10 C 1.0998(5) 0.5015(3) 0.1950(3)
H8 H 1.1136 0.4396 0.1605
C11 C 1.1937(6) 0.6177(4) 0.3055(4)
H9 H 1.2752 0.6400 0.3522
C12 C 1.0606(6) 0.6788(4) 0.2880(4)
H10 H 1.0516 0.7420 0.3217
C13 C 0.5901(6) 0.9179(4) 0.4168(3)
C14 C 0.3849(5) 1.0905(4) 0.0332(3)
Cd1A Cd 1.44104(4) 0.41682(3) 0.31278(2)
Cd1B Cd 0.44104(4) 1.08318(3) -0.18722(2)
N4A N 0.7858(5) 1.0298(3) 0.2393(3)
N6B N 0.6363(5) 0.9190(3) 0.0452(3)
loop_
_geom_bond_atom_site_label_1
_geom_bond_atom_site_label_2
_geom_bond_site_symmetry_1
_geom_bond_site_symmetry_2
Cd1 S1 1_555 1_555
S1 C13 1_555 1_555
S2 Cd1 1_555 1_555
O1 Cd1 1_555 1_555
N1 H1 1_555 1_555
N2 Cd1 1_555 1_555
N3 Cd1 1_555 1_555
N4 C10 1_555 1_555
N5 C13 1_555 1_555
N6 C14 1_555 1_555
C1 N2 1_555 1_555
H2 C1 1_555 1_555
C2 N3 1_555 1_555
C3 C2 1_555 1_555
H3 C3 1_555 1_555
C4 C3 1_555 1_555
H4 C4 1_555 1_555
C5 C4 1_555 1_555
H5 C5 1_555 1_555
C6 N3 1_555 1_555
H6 C6 1_555 1_555
C7 O1 1_555 1_555
C8 C7 1_555 1_555
C9 C8 1_555 1_555
H7 C9 1_555 1_555
C10 C9 1_555 1_555
H8 C10 1_555 1_555
C11 N4 1_555 1_555
H9 C11 1_555 1_555
C12 C8 1_555 1_555
H10 C12 1_555 1_555
C14 S2 1_555 1_555
Cd1A N4 1_555 1_555
Cd1B N6 1_555 1_555
N4A Cd1 1_555 1_555
N6B Cd1 1_555 1_555
N1 N2 1_555 1_555
N1 C7 1_555 1_555
C1 C2 1_555 1_555
C5 C6 1_555 1_555
C11 C12 1_555 1_555

#END
