
#######################################################################
#
#                 Cambridge Crystallographic Data Centre
#                                CCDC 
#
#######################################################################
#
# If this CIF has been generated from an entry in the Cambridge 
# Structural Database, then it will include bibliographic, chemical, 
# crystal, experimental, refinement or atomic coordinate data resulting 
# from the CCDC's data processing and validation procedures.
#
#######################################################################

data_TUBYOF
_symmetry_cell_setting           monoclinic
_symmetry_space_group_name_H-M   'P 21/c'
_symmetry_Int_Tables_number      14
_space_group_name_Hall           '-P 2ybc'
loop_
_symmetry_equiv_pos_site_id
_symmetry_equiv_pos_as_xyz
1 x,y,z
2 -x,1/2+y,1/2-z
3 -x,-y,-z
4 x,1/2-y,1/2+z
_cell_length_a                   9.2293(18)
_cell_length_b                   25.483(5)
_cell_length_c                   7.7754(16)
_cell_angle_alpha                90
_cell_angle_beta                 97.29(3)
_cell_angle_gamma                90
_cell_volume                     1813.92
loop_
_atom_site_label
_atom_site_type_symbol
_atom_site_fract_x
_atom_site_fract_y
_atom_site_fract_z
H1 H 0.445(4) 0.6048(17) 0.731(4)
H2 H 0.536(4) 0.5684(14) 0.670(7)
H3 H 0.513(5) 0.5395(12) 0.328(7)
H4 H 0.6495(16) 0.560(2) 0.343(7)
H5 H 0.660(5) 0.6828(18) 0.115(7)
H6 H 0.537(4) 0.651(2) 0.085(6)
Tb1 Tb 0.487622(15) 0.650715(6) 0.412377(19)
Cu1 Cu 0.0000 0.5000 -0.5000
O1 O 0.5110(2) 0.70675(10) 0.6631(3)
O2 O 0.4095(3) 0.76617(10) 0.8199(3)
O3 O -0.2644(2) 0.65659(11) 0.5067(3)
O4 O 0.6027(3) 0.66331(13) 0.1543(4)
O5 O 0.5617(3) 0.56624(11) 0.3269(4)
O6 O 0.2960(2) 0.62355(10) 0.2003(3)
O7 O 0.4779(3) 0.59222(11) 0.6472(4)
O8 O -0.1425(3) 0.58879(10) 0.4102(4)
O9 O -0.1914(3) 0.48357(11) -0.4350(3)
O10 O -0.3430(3) 0.50849(10) -0.2479(4)
O12 O 0.3867(3) 0.61779(13) -0.0514(3)
N1 N 0.2503(3) 0.66663(10) 0.5437(3)
N2 N 0.0298(3) 0.53338(12) -0.2700(4)
C1 C 0.1218(3) 0.64364(13) 0.4924(4)
H7 H 0.1189 0.6161 0.4135
C2 C -0.0075(3) 0.65892(14) 0.5514(4)
C3 C -0.0026(4) 0.69927(16) 0.6707(5)
H8 H -0.0875 0.7106 0.7122
C4 C 0.1310(4) 0.72277(15) 0.7278(5)
H9 H 0.1373 0.7495 0.8099
C5 C 0.2541(3) 0.70553(14) 0.6599(4)
C6 C -0.1484(3) 0.63183(14) 0.4828(4)
C7 C 0.1496(4) 0.55705(14) -0.1918(4)
H10 H 0.2360 0.5545 -0.2411
C8 C 0.1492(4) 0.58525(14) -0.0401(4)
C9 C 0.2889(4) 0.61074(14) 0.0430(4)
C10 C 0.0182(4) 0.58950(16) 0.0307(5)
H11 H 0.0142 0.6086 0.1319
C11 C -0.1066(4) 0.56492(16) -0.0516(5)
H12 H -0.1950 0.5674 -0.0065
C12 C -0.0966(4) 0.53698(14) -0.2004(5)
C13 C -0.2224(4) 0.50760(14) -0.3019(5)
C14 C 0.4039(3) 0.72844(14) 0.7175(4)
H1B H -0.445(4) 0.3952(17) -1.731(4)
H2B H -0.536(4) 0.4316(14) -1.670(7)
H3B H -0.513(5) 0.4605(12) -1.328(7)
H4B H -0.6495(16) 0.440(2) -1.343(7)
H5B H -0.660(5) 0.3172(18) -1.115(7)
H6B H -0.537(4) 0.349(2) -1.085(6)
Tb1B Tb -0.487622(15) 0.349285(6) -1.412377(19)
Tb1C Tb 0.487622(15) 0.849285(6) 0.912377(19)
Tb1_2 Tb -0.512378(15) 0.650715(6) 0.412377(19)
Tb1C_2 Tb 0.487622(15) 0.849285(6) -0.087623(19)
Tb1C_3 Tb -0.512378(15) 0.849285(6) -0.087623(19)
O1C O 0.5110(2) 0.79325(10) 0.1631(3)
O1B O -0.5110(2) 0.29325(10) -1.6631(3)
O2C O 0.4095(3) 0.73383(10) 0.3199(3)
O2A O -0.4095(3) 0.26617(10) -1.3199(3)
O3C O -0.2644(2) 0.84341(11) 0.0067(3)
O3_2 O 0.7356(2) 0.65659(11) 0.5067(3)
O3B O -0.7356(2) 0.34341(11) -1.5067(3)
O4B O -0.6027(3) 0.33669(13) -1.1543(4)
O5B O -0.5617(3) 0.43376(11) -1.3269(4)
O6B O -0.2960(2) 0.37645(10) -1.2003(3)
O7B O -0.4779(3) 0.40778(11) -1.6472(4)
O8C O -0.1425(3) 0.91121(10) -0.0898(4)
O9B O 0.1914(3) 0.51643(11) -0.5650(3)
O10B O 0.3430(3) 0.49151(10) -0.7521(4)
O12B O -0.3867(3) 0.38221(13) -0.9486(3)
N1C N 0.2503(3) 0.83337(10) 0.0437(3)
N1B N -0.2503(3) 0.33337(10) -1.5437(3)
N2B N -0.0298(3) 0.46662(12) -0.7300(4)
C1C C 0.1218(3) 0.85636(13) -0.0076(4)
H7C H 0.1189 0.8839 -0.0865
C2C C -0.0075(3) 0.84108(14) 0.0514(4)
C3C C -0.0026(4) 0.80073(16) 0.1707(5)
H8C H -0.0875 0.7894 0.2122
C4C C 0.1310(4) 0.77723(15) 0.2278(5)
H9C H 0.1373 0.7505 0.3099
C5C C 0.2541(3) 0.79447(14) 0.1599(4)
C6C C -0.1484(3) 0.86817(14) -0.0172(4)
C7B C -0.1496(4) 0.44295(14) -0.8082(4)
H10B H -0.2360 0.4455 -0.7589
C8B C -0.1492(4) 0.41475(14) -0.9599(4)
C9B C -0.2889(4) 0.38926(14) -1.0430(4)
C10B C -0.0182(4) 0.41050(16) -1.0307(5)
H11B H -0.0142 0.3914 -1.1319
C11B C 0.1066(4) 0.43508(16) -0.9484(5)
H12B H 0.1950 0.4326 -0.9935
C12B C 0.0966(4) 0.46302(14) -0.7996(5)
C13B C 0.2224(4) 0.49240(14) -0.6981(5)
C14C C 0.4039(3) 0.77156(14) 0.2175(4)
O11 O 0.2537(3) 0.27323(14) 0.0627(4)
H13 H 0.247(6) 0.240(3) 0.054(8)
H14 H 0.332(7) 0.277(3) 0.161(9)
loop_
_geom_bond_atom_site_label_1
_geom_bond_atom_site_label_2
_geom_bond_site_symmetry_1
_geom_bond_site_symmetry_2
H1 O7 1_555 1_555
H2 O7 1_555 1_555
H3 O5 1_555 1_555
H4 O5 1_555 1_555
H5 O4 1_555 1_555
H6 O4 1_555 1_555
Tb1 O1 1_555 1_555
Cu1 O9 1_555 1_555
O1 C14 1_555 1_555
O2 C14 1_555 1_555
O3 C6 1_555 1_555
O4 Tb1 1_555 1_555
O5 Tb1 1_555 1_555
O6 Tb1 1_555 1_555
O7 Tb1 1_555 1_555
O8 C6 1_555 1_555
O9 C13 1_555 1_555
O10 C13 1_555 1_555
O11 H13 1_555 1_555
O12 C9 1_555 1_555
N1 Tb1 1_555 1_555
N2 Cu1 1_555 1_555
C1 N1 1_555 1_555
H7 C1 1_555 1_555
C2 C1 1_555 1_555
C3 C2 1_555 1_555
H8 C3 1_555 1_555
C4 C3 1_555 1_555
H9 C4 1_555 1_555
C5 N1 1_555 1_555
C6 C2 1_555 1_555
C7 N2 1_555 1_555
H10 C7 1_555 1_555
C8 C7 1_555 1_555
C9 O6 1_555 1_555
C10 C8 1_555 1_555
H11 C10 1_555 1_555
C11 C10 1_555 1_555
H12 C11 1_555 1_555
C12 N2 1_555 1_555
C13 C12 1_555 1_555
C14 C5 1_555 1_555
H14 O11 1_555 1_555
H1B O7B 1_555 1_555
H2B O7B 1_555 1_555
H3B O5B 1_555 1_555
H4B O5B 1_555 1_555
H5B O4B 1_555 1_555
H6B O4B 1_555 1_555
Tb1B O1B 1_555 1_555
Tb1C O2 1_555 1_555
Tb1_2 O3 1_555 1_555
Tb1C_2 O1C 1_555 1_555
Tb1C_3 O3C 1_555 1_555
O1C C14C 1_555 1_555
O2C Tb1 1_555 1_555
O2A Tb1B 1_555 1_555
O3C C6C 1_555 1_555
O3_2 Tb1 1_555 1_555
O3B Tb1B 1_555 1_555
O4B Tb1B 1_555 1_555
O5B Tb1B 1_555 1_555
O6B Tb1B 1_555 1_555
O7B Tb1B 1_555 1_555
O8C C6C 1_555 1_555
O9B Cu1 1_555 1_555
O10B C13B 1_555 1_555
O12B C9B 1_555 1_555
N1C Tb1C_2 1_555 1_555
N1B Tb1B 1_555 1_555
N2B Cu1 1_555 1_555
C1C N1C 1_555 1_555
H7C C1C 1_555 1_555
C2C C1C 1_555 1_555
C3C C2C 1_555 1_555
H8C C3C 1_555 1_555
C4C C3C 1_555 1_555
H9C C4C 1_555 1_555
C5C N1C 1_555 1_555
C6C C2C 1_555 1_555
C7B N2B 1_555 1_555
H10B C7B 1_555 1_555
C8B C7B 1_555 1_555
C9B O6B 1_555 1_555
C10B C8B 1_555 1_555
H11B C10B 1_555 1_555
C11B C10B 1_555 1_555
H12B C11B 1_555 1_555
C12B N2B 1_555 1_555
C13B O9B 1_555 1_555
C14C O2C 1_555 1_555
C4 C5 1_555 1_555
C8 C9 1_555 1_555
C11 C12 1_555 1_555
C4C C5C 1_555 1_555
C5C C14C 1_555 1_555
C8B C9B 1_555 1_555
C11B C12B 1_555 1_555
C12B C13B 1_555 1_555

#END
