
#######################################################################
#
#                 Cambridge Crystallographic Data Centre
#                                CCDC 
#
#######################################################################
#
# If this CIF has been generated from an entry in the Cambridge 
# Structural Database, then it will include bibliographic, chemical, 
# crystal, experimental, refinement or atomic coordinate data resulting 
# from the CCDC's data processing and validation procedures.
#
#######################################################################

data_TUCCUQ
_symmetry_cell_setting           monoclinic
_symmetry_space_group_name_H-M   'P 21/c'
_symmetry_Int_Tables_number      14
_space_group_name_Hall           '-P 2ybc'
loop_
_symmetry_equiv_pos_site_id
_symmetry_equiv_pos_as_xyz
1 x,y,z
2 -x,1/2+y,1/2-z
3 -x,-y,-z
4 x,1/2-y,1/2+z
_cell_length_a                   16.3667(8)
_cell_length_b                   8.8968(3)
_cell_length_c                   12.1405(6)
_cell_angle_alpha                90
_cell_angle_beta                 107.687(2)
_cell_angle_gamma                90
_cell_volume                     1684.23
loop_
_atom_site_label
_atom_site_type_symbol
_atom_site_fract_x
_atom_site_fract_y
_atom_site_fract_z
U1 U 0.382652(9) 0.136907(15) 0.131612(11)
U2 U 0.0000 0.0000 0.0000
O1 O 0.38587(17) 0.0728(3) 0.2698(2)
O2 O 0.38085(17) 0.2013(3) -0.0065(2)
O3 O -0.03862(19) -0.1827(3) 0.0044(3)
O4 O 0.24026(17) 0.0591(3) 0.0636(2)
O5 O 0.13590(18) -0.1127(3) 0.0083(3)
O6 O 0.45891(18) 0.3541(3) 0.2199(2)
O7 O -0.47320(17) -0.5585(3) -0.3302(2)
O8 O 0.1003(2) -0.0349(4) 0.2015(3)
O9 O -0.0246(2) 0.0536(4) 0.1904(3)
O10 O 0.0659(3) 0.0059(5) 0.3593(3)
N1 N 0.3582(2) -0.1346(3) 0.0488(3)
N2 N 0.2904(2) 0.3605(3) 0.1606(3)
N3 N 0.0479(3) 0.0086(5) 0.2555(3)
C1 C 0.4174(2) -0.2284(5) 0.0317(3)
H1 H 0.4744 -0.1976 0.0536
C2 C 0.3968(3) -0.3689(4) -0.0172(3)
H2 H 0.4398 -0.4311 -0.0269
C3 C 0.3124(3) -0.4178(5) -0.0519(3)
H3 H 0.2977 -0.5123 -0.0848
C4 C 0.2505(3) -0.3205(4) -0.0357(3)
H4 H 0.1931 -0.3486 -0.0583
C5 C 0.2751(2) -0.1833(4) 0.0137(3)
C6 C 0.2116(2) -0.0713(5) 0.0301(3)
C7 C 0.2043(3) 0.3672(4) 0.1238(4)
H5 H 0.1740 0.2885 0.0794
C8 C 0.1587(3) 0.4876(4) 0.1495(4)
H6 H 0.0990 0.4880 0.1232
C9 C 0.2022(3) 0.6051(5) 0.2136(3)
H7 H 0.1728 0.6866 0.2313
C10 C 0.2913(3) 0.6003(5) 0.2517(3)
H8 H 0.3225 0.6788 0.2951
C11 C 0.3328(3) 0.4773(4) 0.2241(3)
C12 C 0.4279(3) 0.4639(4) 0.2604(3)
U1B U -0.382652(9) -0.136907(15) -0.131612(11)
U1C U -0.617348(9) -0.636907(15) -0.368388(11)
U1A U 0.617348(9) 0.636907(15) 0.368388(11)
O1B O -0.38587(17) -0.0728(3) -0.2698(2)
O2B O -0.38085(17) -0.2013(3) 0.0065(2)
O3B O 0.03862(19) 0.1827(3) -0.0044(3)
O4B O -0.24026(17) -0.0591(3) -0.0636(2)
O5B O -0.13590(18) 0.1127(3) -0.0083(3)
O6B O -0.45891(18) -0.3541(3) -0.2199(2)
O7C O 0.52680(17) 0.0585(3) 0.1698(2)
O7A O -0.52680(17) -0.0585(3) -0.1698(2)
O7B O 0.47320(17) 0.5585(3) 0.3302(2)
O8B O -0.1003(2) 0.0349(4) -0.2015(3)
O9B O 0.0246(2) -0.0536(4) -0.1904(3)
O10B O -0.0659(3) -0.0059(5) -0.3593(3)
N1B N -0.3582(2) 0.1346(3) -0.0488(3)
N2B N -0.2904(2) -0.3605(3) -0.1606(3)
N3B N -0.0479(3) -0.0086(5) -0.2555(3)
C1B C -0.4174(2) 0.2284(5) -0.0317(3)
H1B H -0.4744 0.1976 -0.0536
C2B C -0.3968(3) 0.3689(4) 0.0172(3)
H2B H -0.4398 0.4311 0.0269
C3B C -0.3124(3) 0.4178(5) 0.0519(3)
H3B H -0.2977 0.5123 0.0848
C4B C -0.2505(3) 0.3205(4) 0.0357(3)
H4B H -0.1931 0.3486 0.0583
C5B C -0.2751(2) 0.1833(4) -0.0137(3)
C6B C -0.2116(2) 0.0713(5) -0.0301(3)
C7B C -0.2043(3) -0.3672(4) -0.1238(4)
H5B H -0.1740 -0.2885 -0.0794
C8B C -0.1587(3) -0.4876(4) -0.1495(4)
H6B H -0.0990 -0.4880 -0.1232
C9B C -0.2022(3) -0.6051(5) -0.2136(3)
H7B H -0.1728 -0.6866 -0.2313
C10B C -0.2913(3) -0.6003(5) -0.2517(3)
H8B H -0.3225 -0.6788 -0.2951
C11B C -0.3328(3) -0.4773(4) -0.2241(3)
C12B C -0.4279(3) -0.4639(4) -0.2604(3)
loop_
_geom_bond_atom_site_label_1
_geom_bond_atom_site_label_2
_geom_bond_site_symmetry_1
_geom_bond_site_symmetry_2
U1 O1 1_555 1_555
U2 O3 1_555 1_555
O2 U1 1_555 1_555
O4 U1 1_555 1_555
O5 U2 1_555 1_555
O6 U1 1_555 1_555
O7 U1C 1_555 1_555
O8 U2 1_555 1_555
O9 U2 1_555 1_555
O10 N3 1_555 1_555
N1 U1 1_555 1_555
N2 U1 1_555 1_555
N3 O8 1_555 1_555
C1 N1 1_555 1_555
H1 C1 1_555 1_555
C2 C1 1_555 1_555
H2 C2 1_555 1_555
C3 C2 1_555 1_555
H3 C3 1_555 1_555
C4 C3 1_555 1_555
H4 C4 1_555 1_555
C5 N1 1_555 1_555
C6 O4 1_555 1_555
C7 N2 1_555 1_555
H5 C7 1_555 1_555
C8 C7 1_555 1_555
H6 C8 1_555 1_555
C9 C8 1_555 1_555
H7 C9 1_555 1_555
C10 C9 1_555 1_555
H8 C10 1_555 1_555
C11 N2 1_555 1_555
C12 O6 1_555 1_555
U1B O1B 1_555 1_555
U1A O7B 1_555 1_555
O2B U1B 1_555 1_555
O3B U2 1_555 1_555
O4B U1B 1_555 1_555
O5B U2 1_555 1_555
O6B U1B 1_555 1_555
O7C U1 1_555 1_555
O7A U1B 1_555 1_555
O7B C12 1_555 1_555
O8B U2 1_555 1_555
O9B U2 1_555 1_555
O10B N3B 1_555 1_555
N1B U1B 1_555 1_555
N2B U1B 1_555 1_555
N3B O8B 1_555 1_555
C1B N1B 1_555 1_555
H1B C1B 1_555 1_555
C2B C1B 1_555 1_555
H2B C2B 1_555 1_555
C3B C2B 1_555 1_555
H3B C3B 1_555 1_555
C4B C3B 1_555 1_555
H4B C4B 1_555 1_555
C5B N1B 1_555 1_555
C6B O4B 1_555 1_555
C7B N2B 1_555 1_555
H5B C7B 1_555 1_555
C8B C7B 1_555 1_555
H6B C8B 1_555 1_555
C9B C8B 1_555 1_555
H7B C9B 1_555 1_555
C10B C9B 1_555 1_555
H8B C10B 1_555 1_555
C11B N2B 1_555 1_555
C12B O7 1_555 1_555
O5 C6 1_555 1_555
O9 N3 1_555 1_555
C4 C5 1_555 1_555
C5 C6 1_555 1_555
C10 C11 1_555 1_555
C11 C12 1_555 1_555
O5B C6B 1_555 1_555
O6B C12B 1_555 1_555
O9B N3B 1_555 1_555
C4B C5B 1_555 1_555
C5B C6B 1_555 1_555
C10B C11B 1_555 1_555
C11B C12B 1_555 1_555

#END
