
#######################################################################
#
#                 Cambridge Crystallographic Data Centre
#                                CCDC 
#
#######################################################################
#
# If this CIF has been generated from an entry in the Cambridge 
# Structural Database, then it will include bibliographic, chemical, 
# crystal, experimental, refinement or atomic coordinate data resulting 
# from the CCDC's data processing and validation procedures.
#
#######################################################################

data_TUCCEB
_symmetry_cell_setting           triclinic
_symmetry_space_group_name_H-M   'P -1'
_symmetry_Int_Tables_number      2
_space_group_name_Hall           '-P 1'
loop_
_symmetry_equiv_pos_site_id
_symmetry_equiv_pos_as_xyz
1 x,y,z
2 -x,-y,-z
_cell_length_a                   4.6528(3)
_cell_length_b                   6.0449(3)
_cell_length_c                   18.1062(10)
_cell_angle_alpha                83.6432(8)
_cell_angle_beta                 88.6812(8)
_cell_angle_gamma                84.5984(8)
_cell_volume                     503.83
loop_
_atom_site_label
_atom_site_type_symbol
_atom_site_fract_x
_atom_site_fract_y
_atom_site_fract_z
Cd1 Cd 0.0000 1.0000 0.5000
P1 P 0.47390(14) 1.11184(11) 0.62535(4)
O1 O 0.2048(4) 1.2137(3) 0.58287(10)
O2 O 0.6619(4) 1.3068(3) 0.64020(12)
H1 H 0.7264 1.3658 0.5991
O3 O 0.6572(4) 0.9367(3) 0.58799(11)
O4 O 1.3207(7) 0.4262(4) 0.92653(16)
O5 O 1.2866(6) 0.7489(5) 0.97664(15)
H2 H 1.4118 0.6763 1.0057
O6 O 0.2558(5) 0.6740(4) 0.54408(15)
H3 H 0.2109 0.5694 0.5200
H4 H 0.4353 0.6882 0.5385
C1 C 0.3479(6) 0.9994(5) 0.71505(15)
H5 H 0.2301 1.1169 0.7369
H6 H 0.2244 0.8830 0.7080
C2 C 0.5798(6) 0.9029(5) 0.76990(15)
C3 C 0.7105(7) 0.6881(5) 0.76706(17)
H7 H 0.6597 0.6039 0.7302
C4 C 0.9178(7) 0.5974(5) 0.81919(18)
H8 H 1.0033 0.4526 0.8173
C5 C 0.9960(6) 0.7235(5) 0.87373(16)
C6 C 0.8696(7) 0.9385(6) 0.87622(17)
H9 H 0.9239 1.0237 0.9124
C7 C 0.6614(7) 1.0279(5) 0.82486(17)
H10 H 0.5757 1.1723 0.8271
C8 C 1.2157(7) 0.6238(6) 0.92936(17)
P1A P -0.47390(14) 0.88816(11) 0.37465(4)
O1A O -0.2048(4) 0.7863(3) 0.41713(10)
O2A O -0.6619(4) 0.6932(3) 0.35980(12)
H1A H -0.7264 0.6342 0.4009
O3A O -0.6572(4) 1.0633(3) 0.41201(11)
O4A O -1.3207(7) 1.5738(4) 0.07347(16)
O5A O -1.2866(6) 1.2511(5) 0.02336(15)
H2A H -1.4118 1.3237 -0.0057
O6A O -0.2558(5) 1.3260(4) 0.45592(15)
H3A H -0.2109 1.4306 0.4800
H4A H -0.4353 1.3118 0.4615
C1A C -0.3479(6) 1.0006(5) 0.28495(15)
H5A H -0.2301 0.8831 0.2631
H6A H -0.2244 1.1170 0.2920
C2A C -0.5798(6) 1.0971(5) 0.23010(15)
C3A C -0.7105(7) 1.3119(5) 0.23294(17)
H7A H -0.6597 1.3961 0.2698
C4A C -0.9178(7) 1.4026(5) 0.18081(18)
H8A H -1.0033 1.5474 0.1827
C5A C -0.9960(6) 1.2765(5) 0.12627(16)
C6A C -0.8696(7) 1.0615(6) 0.12378(17)
H9A H -0.9239 0.9763 0.0876
C7A C -0.6614(7) 0.9721(5) 0.17514(17)
H10A H -0.5757 0.8277 0.1729
C8A C -1.2157(7) 1.3762(6) 0.07064(17)
Cd1_2 Cd -1.0000 1.0000 0.5000
Cd1_3 Cd 1.0000 1.0000 0.5000
O3_2 O -0.3428(4) 0.9367(3) 0.58799(11)
O3A_2 O 0.3428(4) 1.0633(3) 0.41201(11)
loop_
_geom_bond_atom_site_label_1
_geom_bond_atom_site_label_2
_geom_bond_site_symmetry_1
_geom_bond_site_symmetry_2
Cd1 O1 1_555 1_555
P1 O1 1_555 1_555
O2 P1 1_555 1_555
H1 O2 1_555 1_555
O3 P1 1_555 1_555
O4 C8 1_555 1_555
O5 H2 1_555 1_555
O6 Cd1 1_555 1_555
H3 O6 1_555 1_555
H4 O6 1_555 1_555
C1 P1 1_555 1_555
H5 C1 1_555 1_555
H6 C1 1_555 1_555
C2 C1 1_555 1_555
C3 C2 1_555 1_555
H7 C3 1_555 1_555
C4 C3 1_555 1_555
H8 C4 1_555 1_555
C5 C4 1_555 1_555
C6 C5 1_555 1_555
H9 C6 1_555 1_555
C7 C2 1_555 1_555
H10 C7 1_555 1_555
C8 O5 1_555 1_555
P1A O1A 1_555 1_555
O1A Cd1 1_555 1_555
O2A P1A 1_555 1_555
H1A O2A 1_555 1_555
O3A P1A 1_555 1_555
O4A C8A 1_555 1_555
O5A H2A 1_555 1_555
O6A Cd1 1_555 1_555
H3A O6A 1_555 1_555
H4A O6A 1_555 1_555
C1A P1A 1_555 1_555
H5A C1A 1_555 1_555
H6A C1A 1_555 1_555
C2A C1A 1_555 1_555
C3A C2A 1_555 1_555
H7A C3A 1_555 1_555
C4A C3A 1_555 1_555
H8A C4A 1_555 1_555
C5A C4A 1_555 1_555
C6A C5A 1_555 1_555
H9A C6A 1_555 1_555
C7A C2A 1_555 1_555
H10A C7A 1_555 1_555
C8A O5A 1_555 1_555
Cd1_2 O3A 1_555 1_555
Cd1_3 O3 1_555 1_555
O3_2 Cd1 1_555 1_555
O3A_2 Cd1 1_555 1_555
C5 C8 1_555 1_555
C6 C7 1_555 1_555
C5A C8A 1_555 1_555
C6A C7A 1_555 1_555

#END
