
#######################################################################
#
#                 Cambridge Crystallographic Data Centre
#                                CCDC 
#
#######################################################################
#
# If this CIF has been generated from an entry in the Cambridge 
# Structural Database, then it will include bibliographic, chemical, 
# crystal, experimental, refinement or atomic coordinate data resulting 
# from the CCDC's data processing and validation procedures.
#
#######################################################################

data_TUCGUU
_symmetry_cell_setting           monoclinic
_symmetry_space_group_name_H-M   'C 2/c'
_symmetry_Int_Tables_number      15
_space_group_name_Hall           '-C 2yn'
loop_
_symmetry_equiv_pos_site_id
_symmetry_equiv_pos_as_xyz
1 x,y,z
2 -x,y,1/2-z
3 1/2+x,1/2+y,z
4 1/2-x,1/2+y,1/2-z
5 -x,-y,-z
6 x,-y,1/2+z
7 1/2-x,1/2-y,-z
8 1/2+x,1/2-y,1/2+z
_cell_length_a                   20.595(5)
_cell_length_b                   17.450(5)
_cell_length_c                   19.847(5)
_cell_angle_alpha                90
_cell_angle_beta                 99.362(5)
_cell_angle_gamma                90
_cell_volume                     7037.66
loop_
_atom_site_label
_atom_site_type_symbol
_atom_site_fract_x
_atom_site_fract_y
_atom_site_fract_z
Mo1 Mo 0.5000 0.03288(8) 0.2500
Mo2 Mo 0.39439(5) -0.26926(6) 0.34019(5)
Mo3 Mo 0.43428(5) -0.06783(8) 0.10127(6)
Mo4 Mo 0.43515(5) -0.26910(6) 0.10171(5)
Mo5 Mo 0.32825(5) -0.16915(7) 0.19231(5)
Mo6 Mo 0.5000 -0.37140(9) 0.2500
Mo7 Mo 0.39497(6) -0.06742(7) 0.34107(6)
Cu1 Cu 0.39374(7) -0.19421(10) -0.06976(8)
Cu2 Cu 0.13618(9) -0.22355(11) 0.17732(9)
Si1 Si 0.5000 -0.1687(2) 0.2500
O1 O 0.1648(6) -0.0032(7) -0.2247(6)
O2 O 0.6292(5) -0.4216(6) -0.0257(6)
O3 O 0.3561(6) -0.2432(5) 0.1315(6)
O4 O 0.4267(6) -0.1687(7) 0.2716(6)
O5 O 0.4476(4) 0.0146(9) 0.1644(5)
O6 O 0.4295(7) -0.2006(8) -0.1785(7)
O7 O 0.3361(8) -0.2447(6) 0.2590(5)
O8 O 0.4364(7) -0.1687(6) 0.0660(8)
O9 O 0.3342(9) -0.0938(6) 0.2593(5)
O10 O 0.5000 0.1280(8) 0.2500
O11 O 0.5000 -0.4661(7) 0.2500
O12 O 0.2469(4) -0.1688(6) 0.1631(6)
O13 O 0.4076(5) -0.3145(7) 0.0307(5)
O14 O 0.4451(7) -0.1696(7) 0.1834(6)
O15 O 0.3451(5) -0.3166(6) 0.3819(5)
O16 O 0.5747(4) 0.0159(8) 0.2078(5)
O17 O 0.3435(4) -0.0223(5) 0.3824(4)
O18 O 0.5059(6) -0.2429(7) 0.2029(6)
O19 O 0.5261(5) -0.0640(9) 0.0981(6)
O20 O 0.4933(6) -0.0923(8) 0.2935(6)
O21 O 0.4479(5) -0.3508(8) 0.1647(7)
O22 O 0.4249(5) -0.3502(8) 0.2899(6)
O23 O 0.4724(5) -0.2751(8) 0.4017(6)
O24 O 0.4048(6) -0.0214(6) 0.0304(4)
O25 O 0.3583(6) -0.0936(6) 0.1352(7)
O26 O 0.3812(9) -0.1687(6) 0.3705(5)
N1 N 0.3357(5) -0.1814(7) -0.2257(5)
N2 N 0.4110(5) -0.3584(6) -0.1217(5)
N3 N 0.4860(5) -0.2109(6) -0.0723(5)
N4 N 0.3043(5) -0.1655(6) -0.0783(5)
C1 C 0.2630(7) -0.0725(8) -0.3104(7)
H1 H 0.2384 -0.0366 -0.3384
C2 C 0.2542(6) -0.0842(7) -0.2460(6)
C3 C 0.3123(8) -0.1183(10) -0.3337(7)
H2 H 0.3222 -0.1120 -0.3775
C4 C 0.4907(7) -0.4871(8) -0.0858(6)
H3 H 0.5176 -0.5298 -0.0760
C5 C 0.2916(5) -0.1369(6) -0.2051(5)
C6 C 0.3446(7) -0.1716(9) -0.2900(7)
H4 H 0.3749 -0.2032 -0.3065
C7 C 0.5288(7) -0.1533(7) -0.0505(6)
H5 H 0.5126 -0.1037 -0.0489
C8 C 0.2782(6) -0.1529(8) -0.0214(6)
H6 H 0.2982 -0.1748 0.0195
C9 C 0.3877(6) -0.4308(6) -0.1316(6)
H7 H 0.3442 -0.4377 -0.1522
C10 C 0.2054(6) -0.0496(8) -0.2055(7)
C11 C 0.2233(6) -0.1088(10) -0.0217(8)
H8 H 0.2053 -0.1036 0.0181
C12 C 0.1956(6) -0.0738(8) -0.0779(7)
H9 H 0.1593 -0.0421 -0.0777
C13 C 0.5938(6) -0.1657(8) -0.0311(6)
H10 H 0.6221 -0.1244 -0.0201
C14 C 0.5810(6) -0.3838(8) -0.0465(6)
C15 C 0.2739(5) -0.1335(7) -0.1342(6)
C16 C 0.6188(6) -0.2409(8) -0.0273(6)
H11 H 0.6628 -0.2509 -0.0103
C17 C 0.5091(5) -0.2811(6) -0.0723(5)
C18 C 0.5755(5) -0.2990(7) -0.0498(6)
C19 C 0.2210(5) -0.0850(7) -0.1353(6)
C20 C 0.4248(8) -0.4932(8) -0.1127(7)
H12 H 0.4055 -0.5415 -0.1179
C21 C 0.4732(5) -0.3512(7) -0.0922(5)
C22 C 0.5142(6) -0.4134(7) -0.0746(6)
Mo2A Mo 0.60561(5) -0.26926(6) 0.15981(5)
Mo3A Mo 0.56572(5) -0.06783(8) 0.39873(6)
Mo4A Mo 0.56485(5) -0.26910(6) 0.39829(5)
Mo5A Mo 0.67175(5) -0.16915(7) 0.30769(5)
Mo7A Mo 0.60503(6) -0.06742(7) 0.15893(6)
Cu1A Cu 0.60626(7) -0.19421(10) 0.56976(8)
Cu1F Cu 0.10626(7) -0.30579(10) 0.06976(8)
Cu1G Cu 0.89374(7) -0.30579(10) 0.43024(8)
Cu2A Cu 0.86382(9) -0.22355(11) 0.32268(9)
Cu2F Cu 0.36382(9) -0.27645(11) -0.17732(9)
Cu2G Cu 0.63618(9) -0.27645(11) 0.67732(9)
O1F O 0.3352(6) -0.4968(7) 0.2247(6)
O2F O -0.1292(5) -0.0784(6) 0.0257(6)
O3A O 0.6439(6) -0.2432(5) 0.3685(6)
O4A O 0.5733(6) -0.1687(7) 0.2284(6)
O5A O 0.5524(4) 0.0146(9) 0.3356(5)
O6F O 0.0705(7) -0.2994(8) 0.1785(7)
O6A O 0.5705(7) -0.2006(8) 0.6785(7)
O6G O 0.9295(7) -0.2994(8) 0.3215(7)
O7A O 0.6639(8) -0.2447(6) 0.2410(5)
O8A O 0.5636(7) -0.1687(6) 0.4340(8)
O8F O 0.0636(7) -0.3313(6) -0.0660(8)
O9A O 0.6658(9) -0.0938(6) 0.2407(5)
O12A O 0.7531(4) -0.1688(6) 0.3369(6)
O12F O 0.2531(4) -0.3312(6) -0.1631(6)
O13A O 0.5924(5) -0.3145(7) 0.4693(5)
O14A O 0.5549(7) -0.1696(7) 0.3166(6)
O15A O 0.6549(5) -0.3166(6) 0.1181(5)
O16A O 0.4253(4) 0.0159(8) 0.2922(5)
O17A O 0.6565(4) -0.0223(5) 0.1176(4)
O18A O 0.4941(6) -0.2429(7) 0.2971(6)
O19A O 0.4739(5) -0.0640(9) 0.4019(6)
O20A O 0.5067(6) -0.0923(8) 0.2065(6)
O21A O 0.5521(5) -0.3508(8) 0.3353(7)
O22A O 0.5751(5) -0.3502(8) 0.2101(6)
O23A O 0.5276(5) -0.2751(8) 0.0983(6)
O24A O 0.5952(6) -0.0214(6) 0.4696(4)
O25A O 0.6417(6) -0.0936(6) 0.3648(7)
O26A O 0.6188(9) -0.1687(6) 0.1295(5)
N1F N 0.1643(5) -0.3186(7) 0.2257(5)
N1G N 0.8357(5) -0.3186(7) 0.2743(5)
N2F N 0.0890(5) -0.1416(6) 0.1217(5)
N2G N 0.9110(5) -0.1416(6) 0.3783(5)
N3F N 0.0140(5) -0.2891(6) 0.0723(5)
N3A N 0.5140(5) -0.2109(6) 0.5723(5)
N4F N 0.1957(5) -0.3345(6) 0.0783(5)
N4A N 0.6957(5) -0.1655(6) 0.5783(5)
C1F C 0.2370(7) -0.4275(8) 0.3104(7)
H1F H 0.2616 -0.4634 0.3384
C2F C 0.2458(6) -0.4158(7) 0.2460(6)
C3F C 0.1877(8) -0.3817(10) 0.3337(7)
H2F H 0.1778 -0.3880 0.3775
C4F C 0.0093(7) -0.0129(8) 0.0858(6)
H3F H -0.0176 0.0298 0.0760
C5F C 0.2084(5) -0.3631(6) 0.2051(5)
C6F C 0.1554(7) -0.3284(9) 0.2900(7)
H4F H 0.1251 -0.2968 0.3065
C7F C -0.0288(7) -0.3467(7) 0.0505(6)
H5F H -0.0126 -0.3963 0.0489
C8F C 0.2218(6) -0.3471(8) 0.0214(6)
H6F H 0.2018 -0.3252 -0.0195
C9F C 0.1123(6) -0.0692(6) 0.1316(6)
H7F H 0.1558 -0.0623 0.1522
C10F C 0.2946(6) -0.4504(8) 0.2055(7)
C11F C 0.2767(6) -0.3912(10) 0.0217(8)
H8F H 0.2947 -0.3964 -0.0181
C12F C 0.3044(6) -0.4262(8) 0.0779(7)
H9F H 0.3407 -0.4579 0.0777
C13F C -0.0938(6) -0.3343(8) 0.0311(6)
H10F H -0.1221 -0.3756 0.0201
C14F C -0.0810(6) -0.1162(8) 0.0465(6)
C15F C 0.2261(5) -0.3665(7) 0.1342(6)
C16F C -0.1188(6) -0.2591(8) 0.0273(6)
H11F H -0.1628 -0.2491 0.0103
C17F C -0.0091(5) -0.2189(6) 0.0723(5)
C18F C -0.0755(5) -0.2010(7) 0.0498(6)
C19F C 0.2790(5) -0.4150(7) 0.1353(6)
C20F C 0.0752(8) -0.0068(8) 0.1127(7)
H12F H 0.0945 0.0415 0.1179
C21F C 0.0268(5) -0.1488(7) 0.0922(5)
C22F C -0.0142(6) -0.0866(7) 0.0746(6)
loop_
_geom_bond_atom_site_label_1
_geom_bond_atom_site_label_2
_geom_bond_site_symmetry_1
_geom_bond_site_symmetry_2
Mo1 O5 1_555 1_555
Mo2 O4 1_555 1_555
Mo3 O5 1_555 1_555
Mo4 O3 1_555 1_555
Mo5 O3 1_555 1_555
Mo6 O11 1_555 1_555
Mo7 O4 1_555 1_555
Cu1 O6 1_555 1_555
Cu2 O12 1_555 1_555
Si1 O4 1_555 1_555
O1 C10 1_555 1_555
O2 C14 1_555 1_555
O4 Mo5 1_555 1_555
O6 Cu2F 1_555 1_555
O7 Mo2 1_555 1_555
O8 Mo3 1_555 1_555
O9 Mo5 1_555 1_555
O10 Mo1 1_555 1_555
O12 Mo5 1_555 1_555
O13 Mo4 1_555 1_555
O14 Mo3 1_555 1_555
O15 Mo2 1_555 1_555
O16 Mo1 1_555 1_555
O17 Mo7 1_555 1_555
O18 Mo4 1_555 1_555
O19 Mo3 1_555 1_555
O20 Mo1 1_555 1_555
O21 Mo4 1_555 1_555
O22 Mo2 1_555 1_555
O23 Mo2 1_555 1_555
O24 Mo3 1_555 1_555
O25 Mo3 1_555 1_555
O26 Mo2 1_555 1_555
N1 C5 1_555 1_555
N2 C9 1_555 1_555
N3 Cu1 1_555 1_555
N4 Cu1 1_555 1_555
C1 H1 1_555 1_555
C2 C1 1_555 1_555
C3 C1 1_555 1_555
H2 C3 1_555 1_555
C4 H3 1_555 1_555
C5 C2 1_555 1_555
C6 N1 1_555 1_555
H4 C6 1_555 1_555
C7 N3 1_555 1_555
H5 C7 1_555 1_555
C8 N4 1_555 1_555
H6 C8 1_555 1_555
C9 H7 1_555 1_555
C10 C2 1_555 1_555
C11 C8 1_555 1_555
H8 C11 1_555 1_555
C12 C11 1_555 1_555
H9 C12 1_555 1_555
C13 C7 1_555 1_555
H10 C13 1_555 1_555
C14 C18 1_555 1_555
C15 N4 1_555 1_555
C16 C13 1_555 1_555
H11 C16 1_555 1_555
C17 N3 1_555 1_555
C18 C16 1_555 1_555
C19 C10 1_555 1_555
C20 C4 1_555 1_555
H12 C20 1_555 1_555
C21 N2 1_555 1_555
C22 C4 1_555 1_555
Mo2A O18 1_555 1_555
Mo3A O20 1_555 1_555
Mo4A O23 1_555 1_555
Mo5A O3A 1_555 1_555
Mo7A O16 1_555 1_555
Cu1A Cu2G 1_555 1_555
Cu1F Cu2 1_555 1_555
Cu1G Cu2A 1_555 1_555
Cu2A O6G 1_555 1_555
Cu2F Cu1 1_555 1_555
Cu2G O6A 1_555 1_555
O1F C10F 1_555 1_555
O2F C14F 1_555 1_555
O3A Mo4A 1_555 1_555
O4A Si1 1_555 1_555
O5A Mo1 1_555 1_555
O6F Cu2 1_555 1_555
O6A Cu1A 1_555 1_555
O6G Cu1G 1_555 1_555
O7A Mo2A 1_555 1_555
O8A Mo3A 1_555 1_555
O8F Cu1F 1_555 1_555
O9A Mo5A 1_555 1_555
O12A Mo5A 1_555 1_555
O12F Cu2F 1_555 1_555
O13A Mo4A 1_555 1_555
O14A Si1 1_555 1_555
O15A Mo2A 1_555 1_555
O16A Mo1 1_555 1_555
O17A Mo7A 1_555 1_555
O18A Mo2 1_555 1_555
O19A Mo7 1_555 1_555
O20A Mo1 1_555 1_555
O21A Mo6 1_555 1_555
O22A Mo6 1_555 1_555
O23A Mo4 1_555 1_555
O24A Mo3A 1_555 1_555
O25A Mo3A 1_555 1_555
O26A Mo2A 1_555 1_555
N1F Cu2 1_555 1_555
N1G Cu2A 1_555 1_555
N2F Cu2 1_555 1_555
N2G Cu2A 1_555 1_555
N3F Cu1F 1_555 1_555
N3A Cu1A 1_555 1_555
N4F Cu1F 1_555 1_555
N4A Cu1A 1_555 1_555
C1F H1F 1_555 1_555
C2F C1F 1_555 1_555
C3F C1F 1_555 1_555
H2F C3F 1_555 1_555
C4F H3F 1_555 1_555
C5F N1F 1_555 1_555
C6F N1F 1_555 1_555
H4F C6F 1_555 1_555
C7F N3F 1_555 1_555
H5F C7F 1_555 1_555
C8F N4F 1_555 1_555
H6F C8F 1_555 1_555
C9F N2F 1_555 1_555
H7F C9F 1_555 1_555
C10F C2F 1_555 1_555
C11F C8F 1_555 1_555
H8F C11F 1_555 1_555
C12F C11F 1_555 1_555
H9F C12F 1_555 1_555
C13F C7F 1_555 1_555
H10F C13F 1_555 1_555
C14F C18F 1_555 1_555
C15F N4F 1_555 1_555
C16F C13F 1_555 1_555
H11F C16F 1_555 1_555
C17F N3F 1_555 1_555
C18F C16F 1_555 1_555
C19F C10F 1_555 1_555
C20F C4F 1_555 1_555
H12F C20F 1_555 1_555
C21F N2F 1_555 1_555
C22F C4F 1_555 1_555
Mo3 O20A 1_555 1_555
Mo4 O8 1_555 1_555
Mo4 O14 1_555 1_555
Mo5 O7 1_555 1_555
Mo5 O14 1_555 1_555
Mo5 O25 1_555 1_555
Mo6 O18 1_555 1_555
Mo6 O21 1_555 1_555
Mo6 O22 1_555 1_555
Mo6 O18A 1_555 1_555
Mo7 O9 1_555 1_555
Mo7 O20 1_555 1_555
Mo7 O26 1_555 1_555
Mo7 O16A 1_555 1_555
Cu1 O8 1_555 1_555
Si1 O14 1_555 1_555
Si1 O18 1_555 1_555
Si1 O20 1_555 1_555
Si1 O18A 1_555 1_555
Si1 O20A 1_555 1_555
O4 O14 1_555 1_555
O4 O20 1_555 1_555
O4 O18A 1_555 1_555
O14 O18 1_555 1_555
O14 O20A 1_555 1_555
O18 O4A 1_555 1_555
O18 O18A 1_555 1_555
O19 Mo7A 1_555 1_555
O20 O14A 1_555 1_555
O20 O20A 1_555 1_555
N1 Cu2F 1_555 1_555
N2 Cu2F 1_555 1_555
C3 C6 1_555 1_555
C5 C15 1_555 1_555
C9 C20 1_555 1_555
C12 C19 1_555 1_555
C14 C22 1_555 1_555
C15 C19 1_555 1_555
C17 C18 1_555 1_555
C17 C21 1_555 1_555
C21 C22 1_555 1_555
Mo2A O4A 1_555 1_555
Mo2A O22A 1_555 1_555
Mo2A O23A 1_555 1_555
Mo3A O5A 1_555 1_555
Mo3A O14A 1_555 1_555
Mo3A O19A 1_555 1_555
Mo4A O8A 1_555 1_555
Mo4A O14A 1_555 1_555
Mo4A O18A 1_555 1_555
Mo4A O21A 1_555 1_555
Mo5A O4A 1_555 1_555
Mo5A O7A 1_555 1_555
Mo5A O14A 1_555 1_555
Mo5A O25A 1_555 1_555
Mo7A O4A 1_555 1_555
Mo7A O9A 1_555 1_555
Mo7A O20A 1_555 1_555
Mo7A O26A 1_555 1_555
Cu1A O8A 1_555 1_555
Cu1F O6F 1_555 1_555
Cu2A O12A 1_555 1_555
O4A O14A 1_555 1_555
O4A O20A 1_555 1_555
O14A O18A 1_555 1_555
C2F C5F 1_555 1_555
C3F C6F 1_555 1_555
C5F C15F 1_555 1_555
C9F C20F 1_555 1_555
C12F C19F 1_555 1_555
C14F C22F 1_555 1_555
C15F C19F 1_555 1_555
C17F C18F 1_555 1_555
C17F C21F 1_555 1_555
C21F C22F 1_555 1_555

#END
