
#######################################################################
#
#                 Cambridge Crystallographic Data Centre
#                                CCDC 
#
#######################################################################
#
# If this CIF has been generated from an entry in the Cambridge 
# Structural Database, then it will include bibliographic, chemical, 
# crystal, experimental, refinement or atomic coordinate data resulting 
# from the CCDC's data processing and validation procedures.
#
#######################################################################

data_TUCJUX
_symmetry_cell_setting           monoclinic
_symmetry_space_group_name_H-M   'C 2/c'
_symmetry_Int_Tables_number      15
_space_group_name_Hall           '-C 2yn'
loop_
_symmetry_equiv_pos_site_id
_symmetry_equiv_pos_as_xyz
1 x,y,z
2 -x,y,1/2-z
3 1/2+x,1/2+y,z
4 1/2-x,1/2+y,1/2-z
5 -x,-y,-z
6 x,-y,1/2+z
7 1/2-x,1/2-y,-z
8 1/2+x,1/2-y,1/2+z
_cell_length_a                   24.486(5)
_cell_length_b                   13.712(3)
_cell_length_c                   20.241(4)
_cell_angle_alpha                90
_cell_angle_beta                 118.18(3)
_cell_angle_gamma                90
_cell_volume                     5990.42
loop_
_atom_site_label
_atom_site_type_symbol
_atom_site_fract_x
_atom_site_fract_y
_atom_site_fract_z
Cu1 Cu 0.0000 0.0000 0.5000
N1 N 0.0397(4) 0.0485(7) 0.4481(5)
C1 C 0.0517(6) -0.0024(9) 0.3984(8)
H1 H 0.0414 -0.0674 0.3854
C2 C 0.0807(7) 0.0558(9) 0.3712(9)
H2 H 0.0937 0.0390 0.3363
N2 N 0.0872(5) 0.1450(7) 0.4053(6)
C3 C 0.0624(5) 0.1377(9) 0.4511(7)
H3 H 0.0610 0.1880 0.4811
C4 C 0.1185(6) 0.2292(8) 0.3948(8)
H4 H 0.0969 0.2876 0.3966
H5 H 0.1150 0.2255 0.3451
C5 C 0.1867(6) 0.2401(8) 0.4514(7)
C6 C 0.2266(6) 0.1588(8) 0.4727(7)
H6 H 0.2111 0.0969 0.4548
C7 C 0.2114(6) 0.3281(8) 0.4800(7)
H7 H 0.1854 0.3821 0.4671
Cu1B Cu 0.5000 0.5000 0.5000
N1F N 0.4603(4) 0.4515(7) 0.5519(5)
N1D N -0.0397(4) -0.0485(7) 0.5519(5)
C1F C 0.4483(6) 0.5024(9) 0.6016(8)
H1F H 0.4586 0.5674 0.6146
C2F C 0.4193(7) 0.4442(9) 0.6288(9)
H2F H 0.4063 0.4610 0.6637
N2F N 0.4128(5) 0.3550(7) 0.5947(6)
C3F C 0.4376(5) 0.3623(9) 0.5489(7)
H3F H 0.4390 0.3120 0.5189
C4F C 0.3815(6) 0.2708(8) 0.6052(8)
H4F H 0.4031 0.2124 0.6034
H5F H 0.3850 0.2745 0.6549
C5F C 0.3133(6) 0.2599(8) 0.5486(7)
C6F C 0.2734(6) 0.3412(8) 0.5273(7)
H6F H 0.2889 0.4031 0.5452
C7F C 0.2886(6) 0.1719(8) 0.5200(7)
H7F H 0.3146 0.1179 0.5329
Cu2 Cu 0.20381(7) 0.24670(9) 0.28568(8)
Mo1 Mo 0.55750(3) -0.03849(5) 0.47644(4)
Mo2 Mo 0.37842(3) 0.12083(5) 0.34153(4)
Mo3 Mo 0.08307(3) 0.39213(5) 0.13102(4)
Mo4 Mo 0.51957(3) 0.18923(5) 0.45171(4)
O1 O 0.5716(3) -0.0351(4) 0.4018(3)
O2 O 0.4714(2) 0.0356(4) 0.4281(3)
O3 O 0.3980(3) 0.1188(5) 0.2710(4)
O4 O 0.0001(3) 0.3513(4) 0.0509(3)
O5 O 0.5353(3) 0.1848(5) 0.3779(4)
O6 O 0.4344(3) 0.2217(4) 0.4027(3)
O7 O 0.3094(3) 0.1787(5) 0.3041(4)
O8 O 0.0652(3) 0.3970(5) 0.2036(4)
O9 O 0.1252(3) 0.2890(5) 0.1450(4)
O10 O 0.3793(3) 0.0996(4) 0.4545(3)
O11 O 0.0823(3) 0.4077(4) 0.0161(4)
O12 O 0.5498(3) 0.2960(5) 0.4953(4)
O13 O 0.3533(3) -0.0122(4) 0.3377(3)
N3 N 0.1721(4) 0.1178(6) 0.2584(4)
C8 C 0.1145(5) 0.0842(8) 0.2087(6)
H8 H 0.0814 0.1220 0.1753
C9 C 0.1143(6) -0.0144(9) 0.2169(7)
H9 H 0.0811 -0.0563 0.1908
N4 N 0.1715(4) -0.0396(6) 0.2700(4)
C10 C 0.2038(5) 0.0416(7) 0.2929(5)
H10 H 0.2450 0.0439 0.3298
C11 C 0.1927(6) -0.1367(7) 0.3008(6)
H11 H 0.2280 -0.1549 0.2938
H12 H 0.1599 -0.1837 0.2744
N5 N 0.2602(4) 0.1345(6) 0.6714(4)
C12 C 0.2857(5) 0.0487(7) 0.6679(5)
H13 H 0.3282 0.0383 0.6894
N6 N 0.2447(4) -0.0178(6) 0.6315(4)
C13 C 0.1883(5) 0.0232(9) 0.6066(6)
H14 H 0.1503 -0.0074 0.5785
C14 C 0.1968(5) 0.1155(9) 0.6295(5)
H15 H 0.1653 0.1606 0.6192
C15 C 0.2557(5) -0.1186(7) 0.6149(5)
H16 H 0.2987 -0.1359 0.6474
H17 H 0.2299 -0.1631 0.6252
C16 C 0.2415(4) -0.1289(6) 0.5339(5)
C17 C 0.2853(4) -0.1047(7) 0.5116(6)
H18 H 0.3246 -0.0842 0.5467
C18 C 0.2698(4) -0.1113(7) 0.4360(6)
H19 H 0.2997 -0.0974 0.4213
C19 C 0.2109(5) -0.1382(6) 0.3824(5)
C20 C 0.1675(4) -0.1625(7) 0.4062(5)
H20 H 0.1278 -0.1817 0.3711
C21 C 0.1828(4) -0.1584(7) 0.4808(6)
H21 H 0.1535 -0.1755 0.4958
Cu2F Cu 0.29619(7) 0.25330(9) 0.71432(8)
Mo1C Mo -0.05750(3) 0.46151(5) 0.02356(4)
Mo1D Mo 0.44250(3) 0.03849(5) 0.52356(4)
Mo1G Mo 0.05750(3) 0.53849(5) -0.02356(4)
Mo2F Mo 0.12158(3) 0.37917(5) 0.65847(4)
Mo2C Mo 0.12158(3) 0.62083(5) 0.15847(4)
Mo2D Mo 0.62158(3) -0.12083(5) 0.65847(4)
Mo3F Mo 0.41693(3) 0.10787(5) 0.86898(4)
Mo3C Mo 0.41693(3) -0.10787(5) 0.36898(4)
Mo3G Mo 0.58307(3) 0.10787(5) 0.63102(4)
Mo4C Mo -0.01957(3) 0.68923(5) 0.04829(4)
Mo4G Mo 0.01957(3) 0.31077(5) -0.04829(4)
Mo4D Mo 0.48043(3) -0.18923(5) 0.54829(4)
Mo4F Mo -0.01957(3) 0.31077(5) 0.54829(4)
O1C O -0.0716(3) 0.4649(4) 0.0982(3)
O2C O 0.0286(2) 0.5356(4) 0.0719(3)
O2D O 0.5286(2) -0.0356(4) 0.5719(3)
O2G O -0.0286(2) 0.4644(4) -0.0719(3)
O2F O 0.0286(2) 0.4644(4) 0.5719(3)
O2E O 0.4714(2) -0.0356(4) 0.9281(3)
O3F O 0.1020(3) 0.3812(5) 0.7290(4)
O4C O 0.4999(3) -0.1487(4) 0.4491(3)
O4G O 0.5001(3) 0.1487(4) 0.5509(3)
O4F O 0.4999(3) 0.1487(4) 0.9491(3)
O4D O -0.0001(3) 0.6487(4) -0.0509(3)
O5C O -0.0353(3) 0.6848(5) 0.1221(4)
O6F O 0.0656(3) 0.2783(4) 0.5973(3)
O6C O 0.0656(3) 0.7217(4) 0.0973(3)
O7F O 0.1906(3) 0.3213(5) 0.6959(4)
O8F O 0.4348(3) 0.1030(5) 0.7964(4)
O9F O 0.3748(3) 0.2110(5) 0.8550(4)
O10D O 0.6207(3) -0.0996(4) 0.5455(3)
O10G O -0.1207(3) 0.4004(4) -0.0455(3)
O10F O 0.1207(3) 0.4004(4) 0.5455(3)
O11G O 0.5823(3) 0.0923(4) 0.5161(4)
O11D O -0.0823(3) 0.5923(4) -0.0161(4)
O11F O 0.4177(3) 0.0923(4) 0.9839(4)
O12C O -0.0498(3) 0.7960(5) 0.0047(4)
O13C O 0.1467(3) 0.4878(4) 0.1623(3)
O13F O 0.1467(3) 0.5122(4) 0.6623(3)
O13E O 0.3533(3) 0.0122(4) 0.8377(3)
N3F N 0.3279(4) 0.3822(6) 0.7416(4)
C8F C 0.3855(5) 0.4158(8) 0.7913(6)
H8F H 0.4186 0.3780 0.8247
C9F C 0.3857(6) 0.5144(9) 0.7831(7)
H9F H 0.4189 0.5563 0.8092
N4F N 0.3285(4) 0.5396(6) 0.7300(4)
C10F C 0.2962(5) 0.4584(7) 0.7071(5)
H10F H 0.2550 0.4561 0.6702
C11F C 0.3073(6) 0.6367(7) 0.6992(6)
H11F H 0.2720 0.6549 0.7062
H12F H 0.3401 0.6837 0.7256
N5F N 0.2398(4) 0.3655(6) 0.3286(4)
C12F C 0.2143(5) 0.4513(7) 0.3321(5)
H13F H 0.1718 0.4617 0.3106
N6F N 0.2553(4) 0.5178(6) 0.3685(4)
C13F C 0.3117(5) 0.4768(9) 0.3934(6)
H14F H 0.3497 0.5074 0.4215
C14F C 0.3032(5) 0.3845(9) 0.3705(5)
H15F H 0.3347 0.3394 0.3808
C15F C 0.2443(5) 0.6186(7) 0.3851(5)
H16F H 0.2013 0.6359 0.3526
H17F H 0.2701 0.6631 0.3748
C16F C 0.2585(4) 0.6289(6) 0.4661(5)
C17F C 0.2147(4) 0.6047(7) 0.4884(6)
H18F H 0.1754 0.5842 0.4533
C18F C 0.2302(4) 0.6113(7) 0.5640(6)
H19F H 0.2003 0.5974 0.5787
C19F C 0.2891(5) 0.6382(6) 0.6176(5)
C20F C 0.3325(4) 0.6625(7) 0.5938(5)
H20F H 0.3722 0.6817 0.6289
C21F C 0.3172(4) 0.6584(7) 0.5192(6)
H21F H 0.3465 0.6755 0.5042
O14 O 0.0000 0.5416(8) 0.2500
O15 O 0.0000 0.1860(13) -0.2500
loop_
_geom_bond_atom_site_label_1
_geom_bond_atom_site_label_2
_geom_bond_site_symmetry_1
_geom_bond_site_symmetry_2
Cu1 N1 1_555 1_555
Cu2 O7 1_555 1_555
Mo1 O1 1_555 1_555
Mo2 O2 1_555 1_555
Mo3 O4 1_555 1_555
Mo4 O2 1_555 1_555
O2 Mo1 1_555 1_555
O3 Mo2 1_555 1_555
O4 Mo1C 1_555 1_555
O5 Mo4 1_555 1_555
O6 Mo2 1_555 1_555
O7 Mo2 1_555 1_555
O8 Mo3 1_555 1_555
O9 Cu2 1_555 1_555
O10 Mo2 1_555 1_555
O11 Mo3 1_555 1_555
O12 Mo4 1_555 1_555
O13 Mo2 1_555 1_555
N1 C1 1_555 1_555
C1 H1 1_555 1_555
C2 C1 1_555 1_555
H2 C2 1_555 1_555
N2 C2 1_555 1_555
C3 N1 1_555 1_555
H3 C3 1_555 1_555
C4 N2 1_555 1_555
H4 C4 1_555 1_555
H5 C4 1_555 1_555
C5 C4 1_555 1_555
C6 C5 1_555 1_555
H6 C6 1_555 1_555
C7 C5 1_555 1_555
H7 C7 1_555 1_555
N3 Cu2 1_555 1_555
C8 N3 1_555 1_555
H8 C8 1_555 1_555
C9 C8 1_555 1_555
H9 C9 1_555 1_555
N4 C9 1_555 1_555
C10 N3 1_555 1_555
H10 C10 1_555 1_555
C11 N4 1_555 1_555
H11 C11 1_555 1_555
H12 C11 1_555 1_555
N5 C12 1_555 1_555
C12 H13 1_555 1_555
N6 C12 1_555 1_555
C13 N6 1_555 1_555
H14 C13 1_555 1_555
C14 N5 1_555 1_555
H15 C14 1_555 1_555
C15 N6 1_555 1_555
H16 C15 1_555 1_555
H17 C15 1_555 1_555
C16 C15 1_555 1_555
C17 C16 1_555 1_555
H18 C17 1_555 1_555
C18 C17 1_555 1_555
H19 C18 1_555 1_555
C19 C11 1_555 1_555
C20 C19 1_555 1_555
H20 C20 1_555 1_555
C21 C16 1_555 1_555
H21 C21 1_555 1_555
Cu1B N1F 1_555 1_555
Cu2F N5 1_555 1_555
Mo1C O1C 1_555 1_555
Mo1D O2 1_555 1_555
Mo1G O11 1_555 1_555
Mo2F O2F 1_555 1_555
Mo2C O2C 1_555 1_555
Mo2D O2D 1_555 1_555
Mo3F O2E 1_555 1_555
Mo3C O2 1_555 1_555
Mo3G O2D 1_555 1_555
Mo4C O2C 1_555 1_555
Mo4G O4 1_555 1_555
Mo4D O2D 1_555 1_555
Mo4F O2F 1_555 1_555
O2C Mo3 1_555 1_555
O2D Mo1 1_555 1_555
O2G Mo1C 1_555 1_555
O3F Mo2F 1_555 1_555
O4C Mo1 1_555 1_555
O4G Mo4 1_555 1_555
O4F Mo3F 1_555 1_555
O4D Mo1G 1_555 1_555
O5C Mo4C 1_555 1_555
O6F Mo2F 1_555 1_555
O6C Mo2C 1_555 1_555
O7F Cu2F 1_555 1_555
O8F Mo3F 1_555 1_555
O9F Cu2F 1_555 1_555
O10D Mo1 1_555 1_555
O10G Mo1C 1_555 1_555
O10F Mo2F 1_555 1_555
O11G Mo1 1_555 1_555
O11D Mo1C 1_555 1_555
O11F Mo3F 1_555 1_555
O12C Mo4C 1_555 1_555
O13C Mo3 1_555 1_555
O13F Mo2F 1_555 1_555
O13E Mo3F 1_555 1_555
N1F C1F 1_555 1_555
N1D Cu1 1_555 1_555
C1F H1F 1_555 1_555
C2F C1F 1_555 1_555
H2F C2F 1_555 1_555
N2F C2F 1_555 1_555
C3F N1F 1_555 1_555
H3F C3F 1_555 1_555
C4F N2F 1_555 1_555
H4F C4F 1_555 1_555
H5F C4F 1_555 1_555
C5F C4F 1_555 1_555
C6F C7 1_555 1_555
H6F C6F 1_555 1_555
C7F C6 1_555 1_555
H7F C7F 1_555 1_555
N3F Cu2F 1_555 1_555
C8F N3F 1_555 1_555
H8F C8F 1_555 1_555
C9F C8F 1_555 1_555
H9F C9F 1_555 1_555
N4F C9F 1_555 1_555
C10F N3F 1_555 1_555
H10F C10F 1_555 1_555
C11F N4F 1_555 1_555
H11F C11F 1_555 1_555
H12F C11F 1_555 1_555
N5F Cu2 1_555 1_555
C12F N5F 1_555 1_555
H13F C12F 1_555 1_555
N6F C12F 1_555 1_555
C13F N6F 1_555 1_555
H14F C13F 1_555 1_555
C14F N5F 1_555 1_555
H15F C14F 1_555 1_555
C15F N6F 1_555 1_555
H16F C15F 1_555 1_555
H17F C15F 1_555 1_555
C16F C15F 1_555 1_555
C17F C16F 1_555 1_555
H18F C17F 1_555 1_555
C18F C17F 1_555 1_555
H19F C18F 1_555 1_555
C19F C11F 1_555 1_555
C20F C19F 1_555 1_555
H20F C20F 1_555 1_555
C21F C16F 1_555 1_555
H21F C21F 1_555 1_555
Mo3 O9 1_555 1_555
Mo4 O6 1_555 1_555
Mo4 O11G 1_555 1_555
O10 Mo1D 1_555 1_555
O11 Mo4G 1_555 1_555
O13 Mo3C 1_555 1_555
N2 C3 1_555 1_555
N4 C10 1_555 1_555
C13 C14 1_555 1_555
C18 C19 1_555 1_555
C20 C21 1_555 1_555
Mo1C O2C 1_555 1_555
Mo1D O2D 1_555 1_555
Mo1D O4G 1_555 1_555
Mo1G O2C 1_555 1_555
Mo1G O2G 1_555 1_555
Mo2F O7F 1_555 1_555
Mo2C O13C 1_555 1_555
Mo2D O10D 1_555 1_555
Mo3F O9F 1_555 1_555
Mo3C O4C 1_555 1_555
Mo3G O4G 1_555 1_555
Mo3G O11G 1_555 1_555
Mo4C O4D 1_555 1_555
Mo4C O6C 1_555 1_555
Mo4C O11D 1_555 1_555
Mo4G O2G 1_555 1_555
Mo4D O4C 1_555 1_555
Mo4F O6F 1_555 1_555
N2F C3F 1_555 1_555
C5F C6F 1_555 1_555
C5F C7F 1_555 1_555
N4F C10F 1_555 1_555
C13F C14F 1_555 1_555
C18F C19F 1_555 1_555
C20F C21F 1_555 1_555

#END
