
#######################################################################
#
#                 Cambridge Crystallographic Data Centre
#                                CCDC 
#
#######################################################################
#
# If this CIF has been generated from an entry in the Cambridge 
# Structural Database, then it will include bibliographic, chemical, 
# crystal, experimental, refinement or atomic coordinate data resulting 
# from the CCDC's data processing and validation procedures.
#
#######################################################################

data_TUCJEH
_symmetry_cell_setting           triclinic
_symmetry_space_group_name_H-M   'P -1'
_symmetry_Int_Tables_number      2
_space_group_name_Hall           '-P 1'
loop_
_symmetry_equiv_pos_site_id
_symmetry_equiv_pos_as_xyz
1 x,y,z
2 -x,-y,-z
_cell_length_a                   11.0472(4)
_cell_length_b                   12.4078(5)
_cell_length_c                   12.9445(5)
_cell_angle_alpha                69.753(2)
_cell_angle_beta                 84.208(2)
_cell_angle_gamma                71.960(2)
_cell_volume                     1582.81
loop_
_atom_site_label
_atom_site_type_symbol
_atom_site_fract_x
_atom_site_fract_y
_atom_site_fract_z
Fe1 Fe 0.55590(3) 0.50585(3) 0.37888(3)
S1 S 0.43684(6) 0.65313(5) 0.43762(5)
S2 S 0.71439(6) 0.57569(6) 0.38885(6)
C1 C 0.2886(2) 0.6774(2) 0.3807(2)
C2 C 0.2851(2) 0.6087(2) 0.3146(2)
C3 C 0.6459(2) 0.3648(2) 0.22811(19)
C4 C 0.5083(2) 0.3644(2) 0.2220(2)
C5 C 0.1679(3) 0.6240(3) 0.2737(2)
H1 H 0.1620 0.5780 0.2320
C6 C 0.8099(2) 0.3779(3) 0.3264(2)
C7 C 0.4125(2) 0.4871(2) 0.2132(2)
C8 C 0.1776(3) 0.7598(3) 0.4002(2)
H2 H 0.1816 0.8047 0.4436
C9 C 0.8400(2) 0.4596(3) 0.3651(2)
C10 C 0.0650(3) 0.7754(3) 0.3571(3)
H3 H -0.0080 0.8316 0.3696
C11 C 0.0588(3) 0.7067(3) 0.2937(2)
H4 H -0.0189 0.7163 0.2646
C12 C 0.9065(3) 0.2802(3) 0.3151(2)
H5 H 0.8877 0.2234 0.2929
C13 C 0.9660(3) 0.4459(3) 0.3855(3)
H6 H 0.9858 0.5011 0.4092
C14 C 1.0620(3) 0.3499(4) 0.3704(3)
H7 H 1.1465 0.3414 0.3828
C15 C 1.0325(3) 0.2677(4) 0.3372(3)
H8 H 1.0972 0.2023 0.3291
C16 C 0.4926(3) 0.3351(3) 0.1182(2)
H9 H 0.5125 0.3944 0.0539
H10 H 0.4064 0.3355 0.1131
H11 H 0.5492 0.2571 0.1231
C17 C 0.4731(3) 0.2711(2) 0.3265(2)
H12 H 0.4838 0.2914 0.3903
H13 H 0.3837 0.2782 0.3218
C18 C 0.5494(3) 0.1416(3) 0.3453(2)
C19 C 0.6669(3) 0.0970(3) 0.4009(2)
H14 H 0.6983 0.1496 0.4191
C20 C 0.6923(3) -0.1011(3) 0.4021(3)
H15 H 0.7389 -0.1819 0.4221
C21 C 0.5798(3) -0.0609(3) 0.3458(3)
H16 H 0.5511 -0.1143 0.3263
C22 C 0.7363(3) -0.0217(3) 0.4291(3)
H17 H 0.8133 -0.0488 0.4666
N1 N 0.40088(19) 0.52334(19) 0.30308(16)
N2 N 0.67699(19) 0.39914(19) 0.30912(16)
O1 O 0.34747(18) 0.54411(19) 0.12858(14)
O2 O 0.72338(17) 0.33424(18) 0.15959(15)
C23 C 0.5081(3) 0.0592(3) 0.3174(2)
C24 C 0.3010(4) -0.0121(4) 0.2881(4)
H18 H 0.2880 -0.0329 0.3662
H19 H 0.3602 -0.0794 0.2721
H20 H 0.2213 0.0084 0.2518
S3 S 0.36270(8) 0.11234(8) 0.24057(8)
Na1 Na 0.22457(10) 0.69752(10) 0.00144(8)
O3 O 0.2473(3) 0.8872(2) -0.0235(2)
N3 N 0.0204(3) 0.6565(4) 0.0327(2)
C25 C -0.0732(4) 0.6338(4) 0.0500(3)
C26 C -0.1928(4) 0.6046(5) 0.0719(4)
H21 H -0.2397 0.6381 0.1257
H22 H -0.1760 0.5188 0.0994
H23 H -0.2418 0.6374 0.0050
C27 C 0.4305(5) 0.8155(4) 0.0918(3)
H24 H 0.4675 0.7488 0.0659
H25 H 0.3776 0.7928 0.1542
H26 H 0.4969 0.8386 0.1130
C28 C 0.3522(6) 0.9183(4) 0.0027(4)
H27 H 0.3206 0.9881 0.0264
H28 H 0.4041 0.9383 -0.0621
C29 C 0.1689(6) 0.9837(4) -0.1108(4)
H29 H 0.2183 1.0011 -0.1776
H30 H 0.1381 1.0558 -0.0904
C30 C 0.0577(6) 0.9460(5) -0.1300(4)
H31 H 0.0105 0.9270 -0.0631
H32 H 0.0888 0.8764 -0.1528
H33 H 0.0032 1.0105 -0.1864
Fe1A Fe 0.44410(3) 0.49415(3) -0.37888(3)
Fe1_2 Fe 0.55590(3) 0.50585(3) -0.62112(3)
Fe1A_2 Fe 0.44410(3) 0.49415(3) 0.62112(3)
S1A S 0.56316(6) 0.34687(5) -0.43762(5)
S1_2 S 0.43684(6) 0.65313(5) -0.56238(5)
S1A_2 S 0.56316(6) 0.34687(5) 0.56238(5)
S2A S 0.28561(6) 0.42431(6) -0.38885(6)
C1A C 0.7114(2) 0.3226(2) -0.3807(2)
C2A C 0.7149(2) 0.3913(2) -0.3146(2)
C3A C 0.3541(2) 0.6352(2) -0.22811(19)
C4A C 0.4917(2) 0.6356(2) -0.2220(2)
C5A C 0.8321(3) 0.3760(3) -0.2737(2)
H1A H 0.8380 0.4220 -0.2320
C6A C 0.1901(2) 0.6221(3) -0.3264(2)
C7A C 0.5875(2) 0.5129(2) -0.2132(2)
C8A C 0.8224(3) 0.2402(3) -0.4002(2)
H2A H 0.8184 0.1953 -0.4436
C9A C 0.1600(2) 0.5404(3) -0.3651(2)
C10A C 0.9350(3) 0.2246(3) -0.3571(3)
H3A H 1.0080 0.1684 -0.3696
C11A C 0.9412(3) 0.2933(3) -0.2937(2)
H4A H 1.0189 0.2837 -0.2646
C12A C 0.0935(3) 0.7198(3) -0.3151(2)
H5A H 0.1123 0.7766 -0.2929
C13A C 0.0340(3) 0.5541(3) -0.3855(3)
H6A H 0.0142 0.4989 -0.4092
C14A C -0.0620(3) 0.6501(4) -0.3704(3)
H7A H -0.1465 0.6586 -0.3828
C15A C -0.0325(3) 0.7323(4) -0.3372(3)
H8A H -0.0972 0.7977 -0.3291
C16A C 0.5074(3) 0.6649(3) -0.1182(2)
H9A H 0.4875 0.6056 -0.0539
H10A H 0.5936 0.6645 -0.1131
H11A H 0.4508 0.7429 -0.1231
C17A C 0.5269(3) 0.7289(2) -0.3265(2)
H12A H 0.5162 0.7086 -0.3903
H13A H 0.6163 0.7218 -0.3218
C18A C 0.4506(3) 0.8584(3) -0.3453(2)
C19A C 0.3331(3) 0.9030(3) -0.4009(2)
H14A H 0.3017 0.8504 -0.4191
C20A C 0.3077(3) 1.1011(3) -0.4021(3)
H15A H 0.2611 1.1819 -0.4221
C21A C 0.4202(3) 1.0609(3) -0.3458(3)
H16A H 0.4489 1.1143 -0.3263
C22A C 0.2637(3) 1.0217(3) -0.4291(3)
H17A H 0.1867 1.0488 -0.4666
N1A N 0.59912(19) 0.47666(19) -0.30308(16)
N2A N 0.32301(19) 0.60086(19) -0.30912(16)
O1A O 0.65253(18) 0.45589(19) -0.12858(14)
O2A O 0.27662(17) 0.66576(18) -0.15959(15)
C23A C 0.4919(3) 0.9408(3) -0.3174(2)
C24A C 0.6990(4) 1.0121(4) -0.2881(4)
H18A H 0.7120 1.0329 -0.3662
H19A H 0.6398 1.0794 -0.2721
H20A H 0.7787 0.9916 -0.2518
S3A S 0.63730(8) 0.88766(8) -0.24057(8)
Na1A Na 0.77543(10) 0.30248(10) -0.00144(8)
O3A O 0.7527(3) 0.1128(2) 0.0235(2)
N3A N 0.9796(3) 0.3435(4) -0.0327(2)
C25A C 1.0732(4) 0.3662(4) -0.0500(3)
C26A C 1.1928(4) 0.3954(5) -0.0719(4)
H21A H 1.2397 0.3619 -0.1257
H22A H 1.1760 0.4812 -0.0994
H23A H 1.2418 0.3626 -0.0050
C27A C 0.5695(5) 0.1845(4) -0.0918(3)
H24A H 0.5325 0.2512 -0.0659
H25A H 0.6224 0.2072 -0.1542
H26A H 0.5031 0.1614 -0.1130
C28A C 0.6478(6) 0.0817(4) -0.0027(4)
H27A H 0.6794 0.0119 -0.0264
H28A H 0.5959 0.0617 0.0621
C29A C 0.8311(6) 0.0163(4) 0.1108(4)
H29A H 0.7817 -0.0011 0.1776
H30A H 0.8619 -0.0558 0.0904
C30A C 0.9423(6) 0.0540(5) 0.1300(4)
H31A H 0.9895 0.0730 0.0631
H32A H 0.9112 0.1236 0.1528
H33A H 0.9968 -0.0105 0.1864
loop_
_geom_bond_atom_site_label_1
_geom_bond_atom_site_label_2
_geom_bond_site_symmetry_1
_geom_bond_site_symmetry_2
Fe1 S1 1_555 1_555
S1 C1 1_555 1_555
S2 Fe1 1_555 1_555
C1 C2 1_555 1_555
C2 C5 1_555 1_555
C3 C4 1_555 1_555
C4 C7 1_555 1_555
C5 H1 1_555 1_555
C6 C9 1_555 1_555
C7 N1 1_555 1_555
C8 C1 1_555 1_555
H2 C8 1_555 1_555
C9 S2 1_555 1_555
C10 C8 1_555 1_555
H3 C10 1_555 1_555
C11 C5 1_555 1_555
H4 C11 1_555 1_555
C12 C6 1_555 1_555
H5 C12 1_555 1_555
C13 C9 1_555 1_555
H6 C13 1_555 1_555
C14 C13 1_555 1_555
H7 C14 1_555 1_555
C15 C12 1_555 1_555
H8 C15 1_555 1_555
C16 C4 1_555 1_555
H9 C16 1_555 1_555
H10 C16 1_555 1_555
H11 C16 1_555 1_555
C17 C4 1_555 1_555
H12 C17 1_555 1_555
H13 C17 1_555 1_555
C18 C17 1_555 1_555
C19 C18 1_555 1_555
H14 C19 1_555 1_555
C20 H15 1_555 1_555
C21 C20 1_555 1_555
H16 C21 1_555 1_555
C22 C19 1_555 1_555
H17 C22 1_555 1_555
N1 Fe1 1_555 1_555
N2 Fe1 1_555 1_555
O1 C7 1_555 1_555
O2 C3 1_555 1_555
C23 C18 1_555 1_555
C24 H18 1_555 1_555
H19 C24 1_555 1_555
H20 C24 1_555 1_555
S3 C23 1_555 1_555
Na1 O1 1_555 1_555
O3 Na1 1_555 1_555
N3 Na1 1_555 1_555
C25 N3 1_555 1_555
C26 C25 1_555 1_555
H21 C26 1_555 1_555
H22 C26 1_555 1_555
H23 C26 1_555 1_555
C27 H24 1_555 1_555
H25 C27 1_555 1_555
H26 C27 1_555 1_555
C28 O3 1_555 1_555
H27 C28 1_555 1_555
H28 C28 1_555 1_555
C29 O3 1_555 1_555
H29 C29 1_555 1_555
H30 C29 1_555 1_555
C30 C29 1_555 1_555
H31 C30 1_555 1_555
H32 C30 1_555 1_555
H33 C30 1_555 1_555
Fe1A S1A 1_555 1_555
Fe1_2 S1A 1_555 1_555
Fe1A_2 S1 1_555 1_555
S1A C1A 1_555 1_555
S1_2 Fe1A 1_555 1_555
S1A_2 Fe1 1_555 1_555
S2A Fe1A 1_555 1_555
C1A C2A 1_555 1_555
C2A C5A 1_555 1_555
C3A C4A 1_555 1_555
C4A C7A 1_555 1_555
C5A H1A 1_555 1_555
C6A C9A 1_555 1_555
C7A N1A 1_555 1_555
C8A C1A 1_555 1_555
H2A C8A 1_555 1_555
C9A S2A 1_555 1_555
C10A C8A 1_555 1_555
H3A C10A 1_555 1_555
C11A C5A 1_555 1_555
H4A C11A 1_555 1_555
C12A C6A 1_555 1_555
H5A C12A 1_555 1_555
C13A C9A 1_555 1_555
H6A C13A 1_555 1_555
C14A C13A 1_555 1_555
H7A C14A 1_555 1_555
C15A C12A 1_555 1_555
H8A C15A 1_555 1_555
C16A C4A 1_555 1_555
H9A C16A 1_555 1_555
H10A C16A 1_555 1_555
H11A C16A 1_555 1_555
C17A C4A 1_555 1_555
H12A C17A 1_555 1_555
H13A C17A 1_555 1_555
C18A C17A 1_555 1_555
C19A C18A 1_555 1_555
H14A C19A 1_555 1_555
C20A H15A 1_555 1_555
C21A C20A 1_555 1_555
H16A C21A 1_555 1_555
C22A C19A 1_555 1_555
H17A C22A 1_555 1_555
N1A Fe1A 1_555 1_555
N2A Fe1A 1_555 1_555
O1A C7A 1_555 1_555
O2A Na1 1_555 1_555
C23A C18A 1_555 1_555
C24A H18A 1_555 1_555
H19A C24A 1_555 1_555
H20A C24A 1_555 1_555
S3A C23A 1_555 1_555
Na1A O2 1_555 1_555
O3A Na1A 1_555 1_555
N3A Na1A 1_555 1_555
C25A N3A 1_555 1_555
C26A C25A 1_555 1_555
H21A C26A 1_555 1_555
H22A C26A 1_555 1_555
H23A C26A 1_555 1_555
C27A H24A 1_555 1_555
H25A C27A 1_555 1_555
H26A C27A 1_555 1_555
C28A O3A 1_555 1_555
H27A C28A 1_555 1_555
H28A C28A 1_555 1_555
C29A O3A 1_555 1_555
H29A C29A 1_555 1_555
H30A C29A 1_555 1_555
C30A C29A 1_555 1_555
H31A C30A 1_555 1_555
H32A C30A 1_555 1_555
H33A C30A 1_555 1_555
C2 N1 1_555 1_555
C3 N2 1_555 1_555
C6 N2 1_555 1_555
C10 C11 1_555 1_555
C14 C15 1_555 1_555
C20 C22 1_555 1_555
C21 C23 1_555 1_555
C24 S3 1_555 1_555
C27 C28 1_555 1_555
Fe1_2 S1_2 1_555 1_555
Fe1A_2 S1A_2 1_555 1_555
C2A N1A 1_555 1_555
C3A N2A 1_555 1_555
C3A O2A 1_555 1_555
C6A N2A 1_555 1_555
C10A C11A 1_555 1_555
C14A C15A 1_555 1_555
C20A C22A 1_555 1_555
C21A C23A 1_555 1_555
O1A Na1A 1_555 1_555
C24A S3A 1_555 1_555
C27A C28A 1_555 1_555

#END
