
#######################################################################
#
#                 Cambridge Crystallographic Data Centre
#                                CCDC 
#
#######################################################################
#
# If this CIF has been generated from an entry in the Cambridge 
# Structural Database, then it will include bibliographic, chemical, 
# crystal, experimental, refinement or atomic coordinate data resulting 
# from the CCDC's data processing and validation procedures.
#
#######################################################################

data_TUCKAE
_symmetry_cell_setting           triclinic
_symmetry_space_group_name_H-M   'P -1'
_symmetry_Int_Tables_number      2
_space_group_name_Hall           '-P 1'
loop_
_symmetry_equiv_pos_site_id
_symmetry_equiv_pos_as_xyz
1 x,y,z
2 -x,-y,-z
_cell_length_a                   10.041(2)
_cell_length_b                   10.979(2)
_cell_length_c                   21.964(4)
_cell_angle_alpha                91.68(3)
_cell_angle_beta                 96.02(3)
_cell_angle_gamma                101.91(3)
_cell_volume                     2352.89
loop_
_atom_site_label
_atom_site_type_symbol
_atom_site_fract_x
_atom_site_fract_y
_atom_site_fract_z
Cu1 Cu -0.1412(2) 0.5755(2) -0.01954(8)
Mo5 Mo -0.38369(11) 0.00730(10) 0.06827(5)
Mo6 Mo -0.30669(11) 0.20956(10) -0.03025(5)
Mo7 Mo -0.60435(11) 0.21270(10) 0.03256(5)
Mo8 Mo -0.32087(12) -0.00971(11) -0.13781(5)
O1 O -0.5446(11) 0.3651(9) 0.0370(5)
O2 O -0.3175(10) 0.1611(9) -0.1144(4)
O3 O -0.3107(9) 0.3599(7) -0.0350(4)
O4 O -0.1509(10) -0.0058(9) -0.1166(5)
O5 O -0.1405(9) 0.2080(8) -0.0045(4)
O6 O -0.3847(8) 0.1741(7) 0.0496(3)
O7 O -0.3906(9) -0.1757(8) -0.1165(4)
O8 O -0.2156(9) 0.0121(8) 0.0877(4)
O9 O -0.5456(9) 0.1725(8) -0.0478(4)
O10 O -0.3843(8) 0.0016(6) -0.0288(4)
O11 O -0.7755(9) 0.1972(9) 0.0093(4)
O12 O -0.5459(9) -0.0096(8) -0.1379(4)
O26 O -0.3372(12) -0.0161(11) -0.2144(5)
C1 C -0.289(3) 0.9796(19) 0.4741(14)
H1 H -0.3725 0.9270 0.4786
N1 N -0.198(2) 1.038(2) 0.5209(10)
C2 C -0.092(3) 1.112(2) 0.4934(11)
H2 H -0.0162 1.1658 0.5138
C3 C -0.120(2) 1.0912(16) 0.4326(10)
H3 H -0.0655 1.1271 0.4034
N2 N -0.2428(16) 1.0079(14) 0.4209(8)
C4 C -0.316(2) 0.967(2) 0.3604(10)
H4 H -0.3403 1.0384 0.3402
H5 H -0.3999 0.9077 0.3647
C5 C -0.2281(17) 0.9077(15) 0.3213(9)
C6 C -0.1583(16) 0.8196(14) 0.3446(7)
H6 H -0.1667 0.7953 0.3845
C7 C -0.0781(16) 0.7685(14) 0.3098(7)
H7 H -0.0301 0.7114 0.3269
C8 C -0.0652(15) 0.7983(14) 0.2500(7)
C9 C -0.138(2) 0.8821(16) 0.2260(8)
H8 H -0.1322 0.9029 0.1855
C10 C -0.2187(19) 0.9360(15) 0.2608(9)
H9 H -0.2674 0.9921 0.2433
C11 C 0.0237(17) 0.7435(16) 0.2120(8)
H10 H 0.0869 0.8108 0.1960
H11 H 0.0775 0.6975 0.2381
N3 N -0.0494(14) 0.6608(12) 0.1610(5)
C12 C -0.0458(17) 0.6833(15) 0.1022(7)
H12 H 0.0023 0.7560 0.0874
N4 N -0.1222(13) 0.5852(13) 0.0666(5)
C13 C -0.1711(15) 0.5003(15) 0.1068(6)
H13 H -0.2251 0.4217 0.0957
C14 C -0.1311(15) 0.5452(13) 0.1646(7)
H14 H -0.1542 0.5059 0.2001
N5 N -0.1467(13) 0.5872(13) -0.1048(5)
C15 C -0.0952(16) 0.6896(15) -0.1338(7)
H15 H -0.0514 0.7656 -0.1141
N6 N -0.1146(12) 0.6687(12) -0.1938(5)
C16 C -0.1781(15) 0.5477(15) -0.2052(7)
H16 H -0.2051 0.5068 -0.2436
C17 C -0.1947(14) 0.4979(14) -0.1507(7)
H17 H -0.2331 0.4149 -0.1452
C18 C -0.0534(16) 0.7529(15) -0.2395(7)
H18 H -0.0378 0.8390 -0.2241
H19 H -0.1147 0.7429 -0.2773
C19 C 0.0822(15) 0.7193(13) -0.2512(6)
C20 C 0.1950(15) 0.7646(14) -0.2088(7)
H20 H 0.1879 0.8179 -0.1761
C21 C 0.3172(16) 0.7309(14) -0.2148(7)
H21 H 0.3931 0.7632 -0.1867
C22 C 0.3289(15) 0.6503(15) -0.2618(7)
C23 C 0.2166(17) 0.6091(17) -0.3054(7)
H22 H 0.2242 0.5573 -0.3385
C24 C 0.0924(16) 0.6447(16) -0.2999(7)
H23 H 0.0177 0.6175 -0.3293
C25 C 0.4582(15) 0.5995(17) -0.2643(8)
H24 H 0.4601 0.5667 -0.3056
H25 H 0.5376 0.6670 -0.2547
N7 N 0.4663(12) 0.5016(13) -0.2217(5)
C26 C 0.4906(18) 0.522(2) -0.1626(7)
H26 H 0.5076 0.6001 -0.1424
N8 N 0.4880(16) 0.420(2) -0.1358(7)
C27 C 0.458(2) 0.321(2) -0.1807(13)
H27 H 0.4488 0.2363 -0.1745
C28 C 0.444(2) 0.3770(16) -0.2360(9)
H28 H 0.4238 0.3377 -0.2750
Cu1A Cu -0.8588(2) -0.5755(2) 0.01954(8)
Cu1A_2 Cu -0.8588(2) 0.4245(2) 0.01954(8)
Cu1_2 Cu -0.1412(2) -0.4245(2) -0.01954(8)
Mo5A Mo -0.61631(11) -0.00730(10) -0.06827(5)
Mo6A Mo -0.69331(11) -0.20956(10) 0.03025(5)
Mo7A Mo -0.39565(11) -0.21270(10) -0.03256(5)
Mo8A Mo -0.67913(12) 0.00971(11) 0.13781(5)
O1A O -0.4554(11) -0.3651(9) -0.0370(5)
O2A O -0.6825(10) -0.1611(9) 0.1144(4)
O3A O -0.6893(9) -0.3599(7) 0.0350(4)
O4A O -0.8491(10) 0.0058(9) 0.1166(5)
O5A O -0.8595(9) -0.2080(8) 0.0045(4)
O6A O -0.6153(8) -0.1741(7) -0.0496(3)
O7A O -0.6094(9) 0.1757(8) 0.1165(4)
O8A O -0.7844(9) -0.0121(8) -0.0877(4)
O9A O -0.4544(9) -0.1725(8) 0.0478(4)
O10A O -0.6157(8) -0.0016(6) 0.0288(4)
O11A O -0.2245(9) -0.1972(9) -0.0093(4)
O11A_2 O -0.2245(9) 0.8028(9) -0.0093(4)
O11_2 O -0.7755(9) -0.8028(9) 0.0093(4)
O12A O -0.4541(9) 0.0096(8) 0.1379(4)
O26A O -0.6628(12) 0.0161(11) 0.2144(5)
C1A C -0.711(3) -0.9796(19) -0.4741(14)
H1A H -0.6275 -0.9270 -0.4786
N1A N -0.802(2) -1.038(2) -0.5209(10)
C2A C -0.908(3) -1.112(2) -0.4934(11)
H2A H -0.9838 -1.1658 -0.5138
C3A C -0.880(2) -1.0912(16) -0.4326(10)
H3A H -0.9345 -1.1271 -0.4034
N2A N -0.7572(16) -1.0079(14) -0.4209(8)
C4A C -0.684(2) -0.967(2) -0.3604(10)
H4A H -0.6597 -1.0384 -0.3402
H5A H -0.6001 -0.9077 -0.3647
C5A C -0.7719(17) -0.9077(15) -0.3213(9)
C6A C -0.8417(16) -0.8196(14) -0.3446(7)
H6A H -0.8333 -0.7953 -0.3845
C7A C -0.9219(16) -0.7685(14) -0.3098(7)
H7A H -0.9699 -0.7114 -0.3269
C8A C -0.9348(15) -0.7983(14) -0.2500(7)
C9A C -0.862(2) -0.8821(16) -0.2260(8)
H8A H -0.8678 -0.9029 -0.1855
C10A C -0.7813(19) -0.9360(15) -0.2608(9)
H9A H -0.7326 -0.9921 -0.2433
C11A C -1.0237(17) -0.7435(16) -0.2120(8)
H10A H -1.0869 -0.8108 -0.1960
H11A H -1.0775 -0.6975 -0.2381
N3A N -0.9506(14) -0.6608(12) -0.1610(5)
C12A C -0.9542(17) -0.6833(15) -0.1022(7)
H12A H -1.0023 -0.7560 -0.0874
N4A N -0.8778(13) -0.5852(13) -0.0666(5)
C13A C -0.8289(15) -0.5003(15) -0.1068(6)
H13A H -0.7749 -0.4217 -0.0957
C14A C -0.8689(15) -0.5452(13) -0.1646(7)
H14A H -0.8458 -0.5059 -0.2001
N5A N -0.8533(13) -0.5872(13) 0.1048(5)
C15A C -0.9048(16) -0.6896(15) 0.1338(7)
H15A H -0.9486 -0.7656 0.1141
N6A N -0.8854(12) -0.6687(12) 0.1938(5)
C16A C -0.8219(15) -0.5477(15) 0.2052(7)
H16A H -0.7949 -0.5068 0.2436
C17A C -0.8053(14) -0.4979(14) 0.1507(7)
H17A H -0.7669 -0.4149 0.1452
C18A C -0.9466(16) -0.7529(15) 0.2395(7)
H18A H -0.9622 -0.8390 0.2241
H19A H -0.8853 -0.7429 0.2773
C19A C -1.0822(15) -0.7193(13) 0.2512(6)
C20A C -1.1950(15) -0.7646(14) 0.2088(7)
H20A H -1.1879 -0.8179 0.1761
C21A C -1.3172(16) -0.7309(14) 0.2148(7)
H21A H -1.3931 -0.7632 0.1867
C22A C -1.3289(15) -0.6503(15) 0.2618(7)
C23A C -1.2166(17) -0.6091(17) 0.3054(7)
H22A H -1.2242 -0.5573 0.3385
C24A C -1.0924(16) -0.6447(16) 0.2999(7)
H23A H -1.0177 -0.6175 0.3293
C25A C -1.4582(15) -0.5995(17) 0.2643(8)
H24A H -1.4601 -0.5667 0.3056
H25A H -1.5376 -0.6670 0.2547
N7A N -1.4663(12) -0.5016(13) 0.2217(5)
C26A C -1.4906(18) -0.522(2) 0.1626(7)
H26A H -1.5076 -0.6001 0.1424
N8A N -1.4880(16) -0.420(2) 0.1358(7)
C27A C -1.458(2) -0.321(2) 0.1807(13)
H27A H -1.4488 -0.2363 0.1745
C28A C -1.444(2) -0.3770(16) 0.2360(9)
H28A H -1.4238 -0.3377 0.2750
Mo1 Mo 0.38980(12) 0.42241(11) 0.55126(5)
Mo2 Mo 0.29925(13) 0.36700(12) 0.40714(5)
Mo3 Mo 0.68930(13) 0.33734(13) 0.60998(5)
Mo4 Mo 0.59509(13) 0.28477(12) 0.46328(5)
O13 O 0.2957(11) 0.2491(10) 0.3569(5)
O14 O 0.6056(11) 0.2221(9) 0.5428(4)
O15 O 0.1362(10) 0.3477(10) 0.4256(5)
O16 O 0.2237(10) 0.4048(10) 0.5626(4)
O17 O 0.3803(9) 0.3042(9) 0.4843(4)
O18 O 0.7630(10) 0.3192(10) 0.4502(4)
O19 O 0.4624(10) 0.3385(10) 0.6081(4)
O20 O 0.3069(10) 0.5010(10) 0.3536(4)
O21 O 0.8560(10) 0.3645(11) 0.5936(5)
O22 O 0.3855(9) 0.5380(7) 0.4736(4)
O23 O 0.4666(9) 0.5903(8) 0.5898(4)
O24 O 0.5275(13) 0.1559(11) 0.4205(5)
O25 O 0.6838(12) 0.2483(12) 0.6713(5)
Mo1A Mo 0.61020(12) 0.57759(11) 0.44874(5)
Mo2A Mo 0.70075(13) 0.63300(12) 0.59286(5)
Mo3A Mo 0.31070(13) 0.66266(13) 0.39002(5)
Mo4A Mo 0.40491(13) 0.71523(12) 0.53672(5)
O13A O 0.7043(11) 0.7509(10) 0.6431(5)
O14A O 0.3944(11) 0.7779(9) 0.4572(4)
O15A O 0.8638(10) 0.6523(10) 0.5744(5)
O16A O 0.7763(10) 0.5952(10) 0.4374(4)
O17A O 0.6197(9) 0.6958(9) 0.5157(4)
O18A O 0.2370(10) 0.6808(10) 0.5498(4)
O19A O 0.5376(10) 0.6615(10) 0.3919(4)
O20A O 0.6931(10) 0.4990(10) 0.6464(4)
O21A O 0.1440(10) 0.6355(11) 0.4064(5)
O22A O 0.6145(9) 0.4620(7) 0.5264(4)
O23A O 0.5334(9) 0.4097(8) 0.4102(4)
O24A O 0.4725(13) 0.8441(11) 0.5795(5)
O25A O 0.3162(12) 0.7517(12) 0.3287(5)
O27 O -1.0000 0.0000 0.0000
O28 O 1.0000 0.5000 0.5000
O29 O -0.2231(18) 1.0153(13) 0.6412(7)
loop_
_geom_bond_atom_site_label_1
_geom_bond_atom_site_label_2
_geom_bond_site_symmetry_1
_geom_bond_site_symmetry_2
Cu1 O3 1_555 1_555
Mo1 O16 1_555 1_555
Mo2 O13 1_555 1_555
Mo3 O14 1_555 1_555
Mo4 O14 1_555 1_555
Mo5 O6 1_555 1_555
Mo6 O2 1_555 1_555
Mo7 O1 1_555 1_555
Mo8 O2 1_555 1_555
O3 Mo6 1_555 1_555
O4 Mo8 1_555 1_555
O5 Mo6 1_555 1_555
O6 Mo6 1_555 1_555
O7 Mo8 1_555 1_555
O8 Mo5 1_555 1_555
O9 Mo6 1_555 1_555
O10 Mo5 1_555 1_555
O11 Mo7 1_555 1_555
O12 Mo8 1_555 1_555
O15 Mo2 1_555 1_555
O17 Mo1 1_555 1_555
O18 Mo4 1_555 1_555
O19 Mo1 1_555 1_555
O20 Mo2 1_555 1_555
O21 Mo3 1_555 1_555
O22 Mo1 1_555 1_555
O23 Mo1 1_555 1_555
O24 Mo4 1_555 1_555
O25 Mo3 1_555 1_555
O26 Mo8 1_555 1_555
C1 H1 1_555 1_555
N1 C1 1_555 1_555
C2 N1 1_555 1_555
H2 C2 1_555 1_555
C3 C2 1_555 1_555
H3 C3 1_555 1_555
N2 C1 1_555 1_555
C4 N2 1_555 1_555
H4 C4 1_555 1_555
H5 C4 1_555 1_555
C5 C4 1_555 1_555
C6 C5 1_555 1_555
H6 C6 1_555 1_555
C7 C6 1_555 1_555
H7 C7 1_555 1_555
C8 C7 1_555 1_555
C9 C8 1_555 1_555
H8 C9 1_555 1_555
C10 C5 1_555 1_555
H9 C10 1_555 1_555
C11 C8 1_555 1_555
H10 C11 1_555 1_555
H11 C11 1_555 1_555
N3 C11 1_555 1_555
C12 N3 1_555 1_555
H12 C12 1_555 1_555
N4 Cu1 1_555 1_555
C13 N4 1_555 1_555
H13 C13 1_555 1_555
C14 N3 1_555 1_555
H14 C14 1_555 1_555
N5 Cu1 1_555 1_555
C15 N5 1_555 1_555
H15 C15 1_555 1_555
N6 C15 1_555 1_555
C16 N6 1_555 1_555
H16 C16 1_555 1_555
C17 N5 1_555 1_555
H17 C17 1_555 1_555
C18 N6 1_555 1_555
H18 C18 1_555 1_555
H19 C18 1_555 1_555
C19 C18 1_555 1_555
C20 C19 1_555 1_555
H20 C20 1_555 1_555
C21 C20 1_555 1_555
H21 C21 1_555 1_555
C22 C21 1_555 1_555
C23 C22 1_555 1_555
H22 C23 1_555 1_555
C24 C19 1_555 1_555
H23 C24 1_555 1_555
C25 C22 1_555 1_555
H24 C25 1_555 1_555
H25 C25 1_555 1_555
N7 C25 1_555 1_555
C26 N7 1_555 1_555
H26 C26 1_555 1_555
N8 C26 1_555 1_555
C27 N8 1_555 1_555
H27 C27 1_555 1_555
C28 N7 1_555 1_555
H28 C28 1_555 1_555
Cu1A O3A 1_555 1_555
Cu1A_2 O11 1_555 1_555
Cu1_2 O11A 1_555 1_555
Mo1A O22 1_555 1_555
Mo2A O23 1_555 1_555
Mo3A O20 1_555 1_555
Mo4A O22 1_555 1_555
Mo5A O9 1_555 1_555
Mo6A O2A 1_555 1_555
Mo7A O7 1_555 1_555
Mo8A O2A 1_555 1_555
O1A Mo7A 1_555 1_555
O3A Mo6A 1_555 1_555
O4A Mo8A 1_555 1_555
O5A Mo6A 1_555 1_555
O6A Mo5A 1_555 1_555
O7A Mo7 1_555 1_555
O8A Mo5A 1_555 1_555
O9A Mo5 1_555 1_555
O10A Mo5 1_555 1_555
O11A Mo7A 1_555 1_555
O11A_2 Cu1 1_555 1_555
O11_2 Cu1A 1_555 1_555
O12A Mo5 1_555 1_555
O13A Mo2A 1_555 1_555
O14A Mo3A 1_555 1_555
O15A Mo2A 1_555 1_555
O16A Mo1A 1_555 1_555
O17A Mo1A 1_555 1_555
O18A Mo4A 1_555 1_555
O19A Mo1A 1_555 1_555
O20A Mo3 1_555 1_555
O21A Mo3A 1_555 1_555
O22A Mo1 1_555 1_555
O23A Mo2 1_555 1_555
O24A Mo4A 1_555 1_555
O25A Mo3A 1_555 1_555
O26A Mo8A 1_555 1_555
C1A H1A 1_555 1_555
N1A C1A 1_555 1_555
C2A N1A 1_555 1_555
H2A C2A 1_555 1_555
C3A C2A 1_555 1_555
H3A C3A 1_555 1_555
N2A C1A 1_555 1_555
C4A N2A 1_555 1_555
H4A C4A 1_555 1_555
H5A C4A 1_555 1_555
C5A C4A 1_555 1_555
C6A C5A 1_555 1_555
H6A C6A 1_555 1_555
C7A C6A 1_555 1_555
H7A C7A 1_555 1_555
C8A C7A 1_555 1_555
C9A C8A 1_555 1_555
H8A C9A 1_555 1_555
C10A C5A 1_555 1_555
H9A C10A 1_555 1_555
C11A C8A 1_555 1_555
H10A C11A 1_555 1_555
H11A C11A 1_555 1_555
N3A C11A 1_555 1_555
C12A N3A 1_555 1_555
H12A C12A 1_555 1_555
N4A Cu1A 1_555 1_555
C13A N4A 1_555 1_555
H13A C13A 1_555 1_555
C14A N3A 1_555 1_555
H14A C14A 1_555 1_555
N5A Cu1A 1_555 1_555
C15A N5A 1_555 1_555
H15A C15A 1_555 1_555
N6A C15A 1_555 1_555
C16A N6A 1_555 1_555
H16A C16A 1_555 1_555
C17A N5A 1_555 1_555
H17A C17A 1_555 1_555
C18A N6A 1_555 1_555
H18A C18A 1_555 1_555
H19A C18A 1_555 1_555
C19A C18A 1_555 1_555
C20A C19A 1_555 1_555
H20A C20A 1_555 1_555
C21A C20A 1_555 1_555
H21A C21A 1_555 1_555
C22A C21A 1_555 1_555
C23A C22A 1_555 1_555
H22A C23A 1_555 1_555
C24A C19A 1_555 1_555
H23A C24A 1_555 1_555
C25A C22A 1_555 1_555
H24A C25A 1_555 1_555
H25A C25A 1_555 1_555
N7A C25A 1_555 1_555
C26A N7A 1_555 1_555
H26A C26A 1_555 1_555
N8A C26A 1_555 1_555
C27A N8A 1_555 1_555
H27A C27A 1_555 1_555
C28A N7A 1_555 1_555
H28A C28A 1_555 1_555
Mo2 O17 1_555 1_555
Mo2 O22 1_555 1_555
Mo3 O19 1_555 1_555
Mo3 O22A 1_555 1_555
Mo4 O17 1_555 1_555
Mo4 O22A 1_555 1_555
Mo4 O23A 1_555 1_555
Mo6 O10 1_555 1_555
Mo7 O6 1_555 1_555
Mo7 O9 1_555 1_555
Mo7 O10A 1_555 1_555
O10 Mo5A 1_555 1_555
O10 Mo7A 1_555 1_555
O12 Mo5A 1_555 1_555
O22 Mo3A 1_555 1_555
O23 Mo4A 1_555 1_555
C3 N2 1_555 1_555
C9 C10 1_555 1_555
C12 N4 1_555 1_555
C13 C14 1_555 1_555
C16 C17 1_555 1_555
C23 C24 1_555 1_555
C27 C28 1_555 1_555
Mo1A O22A 1_555 1_555
Mo1A O23A 1_555 1_555
Mo2A O17A 1_555 1_555
Mo2A O20A 1_555 1_555
Mo2A O22A 1_555 1_555
Mo3A O19A 1_555 1_555
Mo4A O14A 1_555 1_555
Mo4A O17A 1_555 1_555
Mo5A O10A 1_555 1_555
Mo6A O6A 1_555 1_555
Mo6A O9A 1_555 1_555
Mo6A O10A 1_555 1_555
Mo7A O6A 1_555 1_555
Mo7A O9A 1_555 1_555
Mo8A O7A 1_555 1_555
Mo8A O12A 1_555 1_555
C3A N2A 1_555 1_555
C9A C10A 1_555 1_555
C12A N4A 1_555 1_555
C13A C14A 1_555 1_555
C16A C17A 1_555 1_555
C23A C24A 1_555 1_555
C27A C28A 1_555 1_555

#END
