
#######################################################################
#
#                 Cambridge Crystallographic Data Centre
#                                CCDC 
#
#######################################################################
#
# If this CIF has been generated from an entry in the Cambridge 
# Structural Database, then it will include bibliographic, chemical, 
# crystal, experimental, refinement or atomic coordinate data resulting 
# from the CCDC's data processing and validation procedures.
#
#######################################################################

data_TUCNOV
_symmetry_cell_setting           monoclinic
_symmetry_space_group_name_H-M   'P 21/n'
_symmetry_Int_Tables_number      14
_space_group_name_Hall           '-P 2yn'
loop_
_symmetry_equiv_pos_site_id
_symmetry_equiv_pos_as_xyz
1 x,y,z
2 1/2-x,1/2+y,1/2-z
3 -x,-y,-z
4 1/2+x,1/2-y,1/2+z
_cell_length_a                   12.3963(13)
_cell_length_b                   19.338(3)
_cell_length_c                   13.9545(16)
_cell_angle_alpha                90
_cell_angle_beta                 115.766(2)
_cell_angle_gamma                90
_cell_volume                     3012.58
loop_
_atom_site_label
_atom_site_type_symbol
_atom_site_fract_x
_atom_site_fract_y
_atom_site_fract_z
Nd1 Nd 0.46568(2) 0.111345(12) 0.81080(2)
N1 N 0.4211(4) 0.1271(2) 0.4545(3)
N2 N 0.3619(4) 0.2585(2) 0.5043(3)
N3 N 0.6362(4) 0.2368(2) 0.2823(4)
N4 N 0.5692(4) 0.3635(2) 0.3188(4)
N5 N 0.8141(4) 0.28147(19) 0.5711(3)
N6 N 0.7416(4) 0.39644(19) 0.6503(3)
N7 N 0.6125(4) 0.13143(19) 0.7174(3)
N8 N 0.5309(4) 0.24223(19) 0.7839(3)
O1 O 0.3910(3) 0.04879(16) 0.6424(3)
O2 O 0.2249(4) 0.04396(19) 0.4887(3)
O3 O 0.2867(3) 0.17217(18) 0.6819(3)
O4 O 0.1785(4) 0.25310(19) 0.5699(3)
O5 O 0.9633(3) 0.40829(17) 0.4946(3)
O6 O 0.8848(3) 0.31055(17) 0.4113(3)
O7 O 0.9206(3) 0.50489(16) 0.6524(3)
O8 O 0.7680(4) 0.50333(18) 0.4892(3)
H1 H 0.7251 0.4733 0.4494
O9 O 0.2993(3) 0.03556(18) 0.8029(3)
H2 H 0.2330 0.0458 0.7509
H3 H 0.2917 0.0364 0.8605
O10 O 0.6633(3) 0.13532(17) 0.9493(3)
H4 H 0.6928 0.0997 0.9874
H5 H 0.6611 0.1681 0.9889
C1 C 0.3214(5) 0.0694(2) 0.5511(4)
C2 C 0.3599(5) 0.1345(2) 0.5122(4)
C3 C 0.3311(5) 0.2008(2) 0.5376(4)
C4 C 0.2590(5) 0.2100(3) 0.6015(4)
C5 C 0.4557(5) 0.1860(2) 0.4233(4)
C6 C 0.4259(4) 0.2512(2) 0.4479(4)
C7 C 0.6679(5) 0.1758(3) 0.2575(5)
H10 H 0.7161 0.1746 0.2217
C8 C 0.6302(5) 0.1148(3) 0.2841(5)
H11 H 0.6513 0.0726 0.2649
C9 C 0.5617(5) 0.1164(3) 0.3387(4)
H12 H 0.5374 0.0753 0.3580
C10 C 0.5284(5) 0.1796(3) 0.3653(4)
C11 C 0.5661(5) 0.2410(3) 0.3351(4)
C12 C 0.5330(5) 0.3088(3) 0.3565(4)
C13 C 0.4618(5) 0.3140(3) 0.4116(4)
C14 C 0.4282(5) 0.3801(3) 0.4281(4)
H13 H 0.3819 0.3863 0.4650
C15 C 0.4647(5) 0.4359(3) 0.3888(5)
H14 H 0.4428 0.4804 0.3981
C16 C 0.5348(5) 0.4251(3) 0.3351(5)
H15 H 0.5588 0.4635 0.3091
C17 C 0.9019(5) 0.3552(2) 0.4823(4)
C18 C 0.8392(4) 0.3452(2) 0.5532(4)
C19 C 0.8055(4) 0.4032(2) 0.5952(4)
C20 C 0.8345(5) 0.4772(2) 0.5762(4)
C21 C 0.7521(4) 0.2737(2) 0.6290(4)
C22 C 0.7136(4) 0.3311(2) 0.6670(4)
C23 C 0.6529(5) 0.0771(3) 0.6852(4)
H16 H 0.6285 0.0334 0.6959
C24 C 0.7294(5) 0.0811(3) 0.6364(4)
H17 H 0.7569 0.0412 0.6170
C25 C 0.7632(5) 0.1448(2) 0.6174(4)
H18 H 0.8129 0.1490 0.5834
C26 C 0.7224(4) 0.2039(2) 0.6498(4)
C27 C 0.6481(4) 0.1952(2) 0.7009(4)
C28 C 0.6046(4) 0.2547(2) 0.7372(4)
C29 C 0.6378(4) 0.3215(2) 0.7220(4)
C30 C 0.5960(5) 0.3771(2) 0.7604(4)
H19 H 0.6181 0.4222 0.7537
C31 C 0.5223(5) 0.3644(3) 0.8080(5)
H20 H 0.4935 0.4006 0.8340
C32 C 0.4911(5) 0.2969(3) 0.8169(4)
H21 H 0.4392 0.2893 0.8479
Nd1C Nd 0.96568(2) 0.388655(12) 0.31080(2)
Nd1A Nd 1.03432(2) 0.611345(12) 0.68920(2)
O5C O 0.4633(3) 0.09171(17) 0.9946(3)
O6C O 0.3848(3) 0.18945(17) 0.9113(3)
O7A O 0.5794(3) 0.00489(16) 0.8476(3)
O11 O 0.0889(15) 0.0314(16) 0.6221(8)
H6 H 0.1316 0.0284 0.5882
H7 H 0.0519 0.0697 0.6062
O12 O 0.4780(7) 0.3307(4) 0.0449(6)
H8 H 0.5402 0.3086 0.0516
H9 H 0.4293 0.3023 0.0514
H22? H 0.1492 -0.0015 0.5658
H23? H 0.1735 -0.0043 0.6718
O13? O 0.125(3) -0.017(3) 0.6097(16)
loop_
_geom_bond_atom_site_label_1
_geom_bond_atom_site_label_2
_geom_bond_site_symmetry_1
_geom_bond_site_symmetry_2
Nd1 N7 1_555 1_555
N1 C2 1_555 1_555
N2 C3 1_555 1_555
N3 C7 1_555 1_555
N4 C12 1_555 1_555
N5 C18 1_555 1_555
N6 C19 1_555 1_555
N7 C23 1_555 1_555
N8 Nd1 1_555 1_555
O1 Nd1 1_555 1_555
O2 C1 1_555 1_555
O3 Nd1 1_555 1_555
O4 C4 1_555 1_555
O5 C17 1_555 1_555
O6 C17 1_555 1_555
O7 C20 1_555 1_555
O8 H1 1_555 1_555
O9 Nd1 1_555 1_555
H2 O9 1_555 1_555
H3 O9 1_555 1_555
O10 Nd1 1_555 1_555
H4 O10 1_555 1_555
H5 O10 1_555 1_555
O11 H6 1_555 1_555
H7 O11 1_555 1_555
O12 H8 1_555 1_555
H9 O12 1_555 1_555
C1 O1 1_555 1_555
C2 C1 1_555 1_555
C3 C2 1_555 1_555
C4 O3 1_555 1_555
C5 N1 1_555 1_555
C6 N2 1_555 1_555
C7 H10 1_555 1_555
C8 C7 1_555 1_555
H11 C8 1_555 1_555
C9 C8 1_555 1_555
H12 C9 1_555 1_555
C10 C5 1_555 1_555
C11 N3 1_555 1_555
C12 C11 1_555 1_555
C13 C6 1_555 1_555
C14 C13 1_555 1_555
H13 C14 1_555 1_555
C15 C14 1_555 1_555
H14 C15 1_555 1_555
C16 N4 1_555 1_555
H15 C16 1_555 1_555
C17 C18 1_555 1_555
C18 C19 1_555 1_555
C19 C20 1_555 1_555
C20 O8 1_555 1_555
C21 N5 1_555 1_555
C22 N6 1_555 1_555
C23 H16 1_555 1_555
C24 C23 1_555 1_555
H17 C24 1_555 1_555
C25 C24 1_555 1_555
H18 C25 1_555 1_555
C26 C21 1_555 1_555
C27 N7 1_555 1_555
C28 N8 1_555 1_555
C29 C22 1_555 1_555
C30 C29 1_555 1_555
H19 C30 1_555 1_555
C31 C30 1_555 1_555
H20 C31 1_555 1_555
C32 N8 1_555 1_555
H21 C32 1_555 1_555
Nd1C O5 1_555 1_555
Nd1A O7 1_555 1_555
O5C Nd1 1_555 1_555
O6C Nd1 1_555 1_555
O7A Nd1 1_555 1_555
O6 Nd1C 1_555 1_555
C3 C4 1_555 1_555
C5 C6 1_555 1_555
C9 C10 1_555 1_555
C10 C11 1_555 1_555
C12 C13 1_555 1_555
C15 C16 1_555 1_555
C21 C22 1_555 1_555
C25 C26 1_555 1_555
C26 C27 1_555 1_555
C27 C28 1_555 1_555
C28 C29 1_555 1_555
C31 C32 1_555 1_555

#END
