
#######################################################################
#
#                 Cambridge Crystallographic Data Centre
#                                CCDC 
#
#######################################################################
#
# If this CIF has been generated from an entry in the Cambridge 
# Structural Database, then it will include bibliographic, chemical, 
# crystal, experimental, refinement or atomic coordinate data resulting 
# from the CCDC's data processing and validation procedures.
#
#######################################################################

data_TUCQEP
_symmetry_cell_setting           orthorhombic
_symmetry_space_group_name_H-M   'P b c a'
_symmetry_Int_Tables_number      61
_space_group_name_Hall           '-P 2ac 2ab'
loop_
_symmetry_equiv_pos_site_id
_symmetry_equiv_pos_as_xyz
1 x,y,z
2 1/2-x,-y,1/2+z
3 -x,1/2+y,1/2-z
4 1/2+x,1/2-y,-z
5 -x,-y,-z
6 1/2+x,y,1/2-z
7 x,1/2-y,1/2+z
8 1/2-x,1/2+y,z
_cell_length_a                   12.941(4)
_cell_length_b                   6.9454(18)
_cell_length_c                   26.594(7)
_cell_angle_alpha                90
_cell_angle_beta                 90
_cell_angle_gamma                90
_cell_volume                     2390.28
loop_
_atom_site_label
_atom_site_type_symbol
_atom_site_fract_x
_atom_site_fract_y
_atom_site_fract_z
Pb1 Pb 0.136501(19) 0.23525(4) 0.685583(9)
N1 N 0.1272(5) -0.2016(10) 0.7347(2)
N2 N 0.8544(4) 0.1017(9) 0.5941(2)
N3 N 0.3592(4) 0.2052(10) 0.5595(2)
N4 N 0.2594(4) 0.1252(8) 0.62103(18)
C1 C 0.5289(5) 0.1063(8) 0.5945(2)
C2 C 0.6904(5) 0.1182(10) 0.5493(2)
H1 H 0.7260 0.1310 0.5191
C3 C 0.6906(5) 0.0816(10) 0.6386(2)
H2 H 0.7267 0.0654 0.6685
C4 C 0.7437(5) 0.0997(9) 0.5936(2)
N5 N 0.2617(5) 0.2110(8) 0.5768(2)
C5 C 0.5835(5) 0.0877(11) 0.6390(2)
H3 H 0.5482 0.0793 0.6693
C6 C 0.5836(5) 0.1178(10) 0.5496(2)
H4 H 0.5479 0.1254 0.5193
O1 O 0.1772(4) -0.1145(8) 0.7015(2)
C7 C 0.4154(5) 0.1202(10) 0.5950(2)
C8 C 0.9154(5) 0.1070(11) 0.6353(3)
H5 H 0.8912 0.1024 0.6682
O2 O 0.0451(5) -0.1360(9) 0.7492(2)
N6 N 0.3556(4) 0.0635(8) 0.6337(2)
N7 N 1.0138(4) 0.1196(8) 0.6228(2)
C9 C 1.0168(5) 0.1297(10) 0.5714(2)
H6 H 1.0763 0.1442 0.5521
C10 C 0.9195(5) 0.1152(10) 0.5530(2)
H7 H 0.9002 0.1145 0.5193
O3 O 0.1651(6) -0.3527(9) 0.7516(2)
Pb1_2 Pb 1.136501(19) 0.23525(4) 0.685583(9)
Pb1G Pb 0.363499(19) -0.26475(4) 0.685583(9)
O1G O 0.3228(4) 0.3855(8) 0.7015(2)
N6G N 0.1444(4) 0.5635(8) 0.6337(2)
N7_2 N 0.0138(4) 0.1196(8) 0.6228(2)
loop_
_geom_bond_atom_site_label_1
_geom_bond_atom_site_label_2
_geom_bond_site_symmetry_1
_geom_bond_site_symmetry_2
Pb1 N4 1_555 1_555
N1 O1 1_555 1_555
N2 C4 1_555 1_555
N3 N5 1_555 1_555
N4 N5 1_555 1_555
C1 C5 1_555 1_555
C2 H1 1_555 1_555
C3 H2 1_555 1_555
C4 C2 1_555 1_555
C5 C3 1_555 1_555
H3 C5 1_555 1_555
C6 C1 1_555 1_555
H4 C6 1_555 1_555
O1 Pb1 1_555 1_555
C7 N3 1_555 1_555
C8 N2 1_555 1_555
H5 C8 1_555 1_555
O2 N1 1_555 1_555
N6 N4 1_555 1_555
N7 C8 1_555 1_555
C9 N7 1_555 1_555
H6 C9 1_555 1_555
C10 N2 1_555 1_555
H7 C10 1_555 1_555
O3 N1 1_555 1_555
Pb1_2 N7 1_555 1_555
Pb1G O1 1_555 1_555
O1G Pb1 1_555 1_555
N6G Pb1 1_555 1_555
N7_2 Pb1 1_555 1_555
C1 C7 1_555 1_555
C2 C6 1_555 1_555
C3 C4 1_555 1_555
C7 N6 1_555 1_555
N6 Pb1G 1_555 1_555
C9 C10 1_555 1_555

#END
