
#######################################################################
#
#                 Cambridge Crystallographic Data Centre
#                                CCDC 
#
#######################################################################
#
# If this CIF has been generated from an entry in the Cambridge 
# Structural Database, then it will include bibliographic, chemical, 
# crystal, experimental, refinement or atomic coordinate data resulting 
# from the CCDC's data processing and validation procedures.
#
#######################################################################

data_TUCQAK
_symmetry_cell_setting           hexagonal
_symmetry_space_group_name_H-M   'P -6 2 c'
_symmetry_Int_Tables_number      190
_space_group_name_Hall           "P -6c -2'c"
loop_
_symmetry_equiv_pos_site_id
_symmetry_equiv_pos_as_xyz
1 x,y,z
2 -x+y,-x,1/2-z
3 -y,x-y,z
4 x,y,1/2-z
5 -x+y,-x,z
6 -y,x-y,1/2-z
7 y,x,1/2+z
8 x-y,-y,-z
9 -x,-x+y,1/2+z
10 y,x,-z
11 x-y,-y,1/2+z
12 -x,-x+y,-z
_cell_length_a                   9.9252(10)
_cell_length_b                   9.9252(10)
_cell_length_c                   15.729(3)
_cell_angle_alpha                90
_cell_angle_beta                 90
_cell_angle_gamma                120
_cell_volume                     1341.87
loop_
_atom_site_label
_atom_site_type_symbol
_atom_site_fract_x
_atom_site_fract_y
_atom_site_fract_z
Pb1 Pb 0.3333 0.6667 0.7500
Pb2 Pb 0.68442(8) 0.58646(9) 0.7500
Cl1 Cl 0.6667 0.3333 0.8678(4)
Cl2 Cl 0.3585(5) 0.3645(6) 0.7500
O1 O 0.5421(10) 0.6737(10) 0.8568(5)
O2 O 0.7922(10) 0.7988(12) 0.8941(5)
N1 N 0.7664(12) 1.0000 1.0000
H1 H 0.8435 1.0474 0.9617
C1 C 0.6582(14) 0.7773(13) 0.9006(7)
C2 C 0.6256(14) 0.8827(16) 0.9566(7)
H2 H 0.5841 0.9343 0.9220
H3 H 0.5476 0.8201 0.9987
Pb1G Pb 0.6666 1.3333 1.2500
Pb1H Pb 0.6667 0.3334 0.2500
Pb1F Pb -0.3333 0.3333 1.2500
Pb2G Pb 1.09796(12) 1.41354(9) 1.2500
Pb2A Pb -0.09796(12) 0.31558(8) 0.7500
Pb2B Pb 0.41354(9) 0.09796(12) 0.7500
Pb2A_2 Pb 0.90204(12) 0.31558(8) 0.7500
Pb2H Pb 0.31558(8) -0.09796(12) 0.2500
Pb2B_2 Pb 0.41354(9) 1.09796(12) 0.7500
Pb2F Pb -0.41354(9) 0.68442(8) 1.2500
Pb2H_2 Pb 1.31558(8) 1.90204(12) 1.2500
Cl1A Cl 0.6666 0.3333 0.6322(4)
Cl1G Cl 1.3334 1.6667 1.1322(4)
Cl1F Cl 1.3333 1.6667 1.3678(4)
Cl1A_2 Cl -0.3334 0.3333 0.6322(4)
Cl1B Cl -0.3333 0.3334 0.8678(4)
Cl2A Cl 1.0060(8) 0.6415(5) 0.7500
Cl2G Cl 0.9940(8) 1.6355(6) 1.2500
Cl2F Cl 1.3645(6) 1.3585(5) 1.2500
Cl2A_2 Cl 0.0060(8) 0.6415(5) 0.7500
Cl2B Cl -0.3645(6) -0.0060(8) 0.7500
O1G O 0.8684(14) 1.3263(10) 1.1432(5)
O1A O 0.1316(14) 0.4579(10) 0.6432(5)
O1H O 0.4579(10) 0.1316(14) 0.3568(5)
O1B O 0.3263(10) 0.8684(14) 0.8568(5)
O1I O -0.3263(10) 0.5421(10) 1.1432(5)
O1C O 0.5421(10) 0.6737(10) 0.6432(5)
O1D O 0.1316(14) 0.4579(10) 0.8568(5)
O1E O 0.3263(10) 0.8684(14) 0.6432(5)
O1J O 0.8684(14) 1.3263(10) 1.3568(5)
O2G O 0.9934(16) 1.2012(12) 1.1059(5)
O2A O 0.0066(16) 0.2078(10) 0.6059(5)
O2H O 0.2078(10) 0.0066(16) 0.3941(5)
O2B O 0.2012(12) 0.9934(16) 0.8941(5)
O2I O -0.2012(12) 0.7922(10) 1.1059(5)
O2C O 0.7922(10) 0.7988(12) 0.6059(5)
O2J O 0.9934(16) 1.2012(12) 1.3941(5)
O2D O 0.0066(16) 0.2078(10) 0.8941(5)
N1A N 0.2336(12) 0.2336(12) 0.5000
N1B N 0.0000 0.7664(12) 1.0000
H1G H 0.7961 0.9526 1.0383
H1A H 0.2039 0.1565 0.5383
H1H H 0.1565 0.2039 0.4617
H1B H -0.0474 0.7961 0.9617
H1I H 0.0474 0.8435 1.0383
C1G C 0.8809(19) 1.2227(13) 1.0994(7)
C1A C 0.1191(19) 0.3418(14) 0.5994(7)
C1H C 0.3418(14) 0.1191(19) 0.4006(7)
C1B C 0.2227(13) 0.8809(19) 0.9006(7)
C1I C -0.2227(13) 0.6582(14) 1.0994(7)
C2G C 0.7429(21) 1.1173(16) 1.0434(7)
C2A C 0.2571(21) 0.3744(14) 0.5434(7)
C2H C 0.3744(14) 0.2571(21) 0.4566(7)
C2B C 0.1173(16) 0.7429(21) 0.9566(7)
C2I C -0.1173(16) 0.6256(14) 1.0434(7)
H2G H 0.6498 1.0657 1.0780
H2A H 0.3502 0.4159 0.5780
H2H H 0.4159 0.3502 0.4220
H2B H 0.0657 0.6498 0.9220
H2I H -0.0657 0.5841 1.0780
H3G H 0.7275 1.1799 1.0013
H3A H 0.2725 0.4524 0.5013
H3H H 0.4524 0.2725 0.4987
H3B H 0.1799 0.7275 0.9987
H3I H -0.1799 0.5476 1.0013
loop_
_geom_bond_atom_site_label_1
_geom_bond_atom_site_label_2
_geom_bond_site_symmetry_1
_geom_bond_site_symmetry_2
Pb1 O1 1_555 1_555
Pb2 Cl1 1_555 1_555
Cl1 Pb2B 1_555 1_555
Cl2 Pb2 1_555 1_555
O1 Pb2 1_555 1_555
O2 Pb2 1_555 1_555
N1 H1 1_555 1_555
C1 O1 1_555 1_555
C2 N1 1_555 1_555
H2 C2 1_555 1_555
H3 C2 1_555 1_555
Pb1G O1G 1_555 1_555
Pb1H O1H 1_555 1_555
Pb1F O1I 1_555 1_555
Pb2G Cl1G 1_555 1_555
Pb2A Cl1A_2 1_555 1_555
Pb2B Cl2 1_555 1_555
Pb2A_2 Cl1 1_555 1_555
Pb2H O1H 1_555 1_555
Pb2B_2 O1B 1_555 1_555
Pb2F O1I 1_555 1_555
Pb2H_2 Cl1G 1_555 1_555
Cl1A Pb2 1_555 1_555
Cl1F Pb2G 1_555 1_555
Cl1B Pb2A 1_555 1_555
Cl2A Pb2 1_555 1_555
Cl2G Pb2G 1_555 1_555
Cl2F Pb2G 1_555 1_555
Cl2A_2 Pb2A 1_555 1_555
Cl2B Pb2A 1_555 1_555
O1G Pb2G 1_555 1_555
O1A Pb1 1_555 1_555
O1H C1H 1_555 1_555
O1B Pb1 1_555 1_555
O1I C1I 1_555 1_555
O1C Pb1 1_555 1_555
O1D Pb1 1_555 1_555
O1E Pb1 1_555 1_555
O1J Pb1G 1_555 1_555
O2G Pb2G 1_555 1_555
O2A Pb2A 1_555 1_555
O2H Pb2H 1_555 1_555
O2B Pb2B_2 1_555 1_555
O2I Pb2F 1_555 1_555
O2C Pb2 1_555 1_555
O2J Pb2G 1_555 1_555
O2D Pb2A 1_555 1_555
N1A H1A 1_555 1_555
N1B H1B 1_555 1_555
H1G N1 1_555 1_555
H1H N1A 1_555 1_555
H1I N1B 1_555 1_555
C1G O1G 1_555 1_555
C1A O1A 1_555 1_555
C1H O2H 1_555 1_555
C1B O1B 1_555 1_555
C1I O2I 1_555 1_555
C2G N1 1_555 1_555
C2A N1A 1_555 1_555
C2H N1A 1_555 1_555
C2B N1B 1_555 1_555
C2I N1B 1_555 1_555
H2G C2G 1_555 1_555
H2A C2A 1_555 1_555
H2H C2H 1_555 1_555
H2B C2B 1_555 1_555
H2I C2I 1_555 1_555
H3G C2G 1_555 1_555
H3A C2A 1_555 1_555
H3H C2H 1_555 1_555
H3B C2B 1_555 1_555
H3I C2I 1_555 1_555
Pb2 O1C 1_555 1_555
O2 C1 1_555 1_555
C1 C2 1_555 1_555
Pb2G O1J 1_555 1_555
Pb2A O1A 1_555 1_555
Pb2A O1D 1_555 1_555
Pb2B Cl1A 1_555 1_555
Pb2A_2 Cl1A 1_555 1_555
Pb2A_2 Cl2A 1_555 1_555
Pb2B_2 O1E 1_555 1_555
Pb2H_2 Cl1F 1_555 1_555
Pb2H_2 Cl2G 1_555 1_555
O2G C1G 1_555 1_555
O2A C1A 1_555 1_555
O2B C1B 1_555 1_555
C1G C2G 1_555 1_555
C1A C2A 1_555 1_555
C1H C2H 1_555 1_555
C1B C2B 1_555 1_555
C1I C2I 1_555 1_555

#END
