
#######################################################################
#
#                 Cambridge Crystallographic Data Centre
#                                CCDC 
#
#######################################################################
#
# If this CIF has been generated from an entry in the Cambridge 
# Structural Database, then it will include bibliographic, chemical, 
# crystal, experimental, refinement or atomic coordinate data resulting 
# from the CCDC's data processing and validation procedures.
#
#######################################################################

data_TUCQIT
_symmetry_cell_setting           monoclinic
_symmetry_space_group_name_H-M   'P 21/c'
_symmetry_Int_Tables_number      14
_space_group_name_Hall           '-P 2ybc'
loop_
_symmetry_equiv_pos_site_id
_symmetry_equiv_pos_as_xyz
1 x,y,z
2 -x,1/2+y,1/2-z
3 -x,-y,-z
4 x,1/2-y,1/2+z
_cell_length_a                   13.1322(11)
_cell_length_b                   7.3687(4)
_cell_length_c                   21.000(2)
_cell_angle_alpha                90
_cell_angle_beta                 106.060(5)
_cell_angle_gamma                90
_cell_volume                     1952.8
loop_
_atom_site_label
_atom_site_type_symbol
_atom_site_fract_x
_atom_site_fract_y
_atom_site_fract_z
Pb1 Pb 0.131306(16) 0.30661(3) 0.068224(11)
N1 N 0.0483(5) 0.7252(10) 0.0631(4)
N2 N 0.1423(5) 0.6742(9) 0.0545(4)
N3 N 0.3027(4) 0.3376(8) 0.1504(3)
N4 N 0.0527(5) 0.8975(9) 0.0790(3)
N5 N 0.3190(5) 0.2681(10) 0.2102(3)
C1 C 0.3137(5) 0.8239(8) 0.0642(3)
C2 C 0.2032(6) 0.8189(7) 0.0670(4)
C3 C 0.6535(5) 0.2286(9) 0.2475(3)
H1 H 0.6289 0.1573 0.2766
C4 C 0.5225(5) 0.8296(8) 0.0581(3)
C5 C 0.5822(5) 0.3360(8) 0.2013(3)
N6 N 0.3944(4) 0.3763(8) 0.1375(3)
C6 C 0.4680(5) 0.3289(8) 0.1932(3)
C7 C 0.3911(5) 0.9146(9) 0.1121(3)
H2 H 0.3731 0.9737 0.1466
C8 C 0.6219(5) 0.4431(8) 0.1593(3)
H3 H 0.5757 0.5170 0.1286
N7 N 0.4232(5) 0.2616(9) 0.2386(3)
C9 C 0.4964(5) 0.9178(9) 0.1089(3)
H4 H 0.5480 0.9792 0.1410
C10 C 0.4456(5) 0.7393(11) 0.0096(4)
H5 H 0.4637 0.6806 -0.0249
C11 C 0.7161(5) 0.9067(10) 0.0990(4)
H6 H 0.7163 0.9723 0.1368
N8 N 0.6296(4) 0.8273(7) 0.0552(3)
C12 C 0.3418(6) 0.7373(11) 0.0129(4)
H7 H 0.2902 0.6772 -0.0196
C13 C 0.8003(5) 0.8706(12) 0.0762(4)
H8 H 0.8693 0.9086 0.0960
N9 N 0.1504(4) 0.9600(8) 0.0824(3)
N10 N 0.7683(5) 0.7678(9) 0.0185(3)
C14 C 0.6660(6) 0.7467(11) 0.0082(3)
H9 H 0.6233 0.6832 -0.0276
C15 C 0.7601(6) 0.2261(10) 0.2507(3)
H10 H 0.8066 0.1540 0.2821
C16 C 0.7974(6) 0.3293(9) 0.2079(3)
N11 N 0.9057(5) 0.3220(7) 0.2078(3)
C17 C 0.7290(5) 0.4426(9) 0.1622(3)
H11 H 0.7546 0.5164 0.1341
C18 C 0.9920(6) 0.2857(11) 0.2612(4)
H12 H 0.9914 0.2651 0.3048
C19 C 0.9438(7) 0.3407(13) 0.1548(4)
H13 H 0.9019 0.3652 0.1122
C20 C 1.0783(6) 0.2865(11) 0.2369(4)
H14 H 1.1478 0.2669 0.2621
N12 N 1.0479(6) 0.3198(9) 0.1708(4)
Pb1_2 Pb 0.131306(16) 1.30661(3) 0.068224(11)
Pb1_3 Pb 1.131306(16) 0.30661(3) 0.068224(11)
Pb1B Pb 0.868694(16) 0.69339(3) -0.068224(11)
N9_2 N 0.1504(4) -0.0400(8) 0.0824(3)
N10B N 0.2317(5) 0.2322(9) -0.0185(3)
N12_2 N 0.0479(6) 0.3198(9) 0.1708(4)
loop_
_geom_bond_atom_site_label_1
_geom_bond_atom_site_label_2
_geom_bond_site_symmetry_1
_geom_bond_site_symmetry_2
Pb1 N2 1_555 1_555
N1 N2 1_555 1_555
N2 C2 1_555 1_555
N3 Pb1 1_555 1_555
N4 N1 1_555 1_555
N5 N3 1_555 1_555
C1 C2 1_555 1_555
C2 N9 1_555 1_555
C3 H1 1_555 1_555
C4 C9 1_555 1_555
C5 C3 1_555 1_555
N6 N3 1_555 1_555
C6 C5 1_555 1_555
C7 C1 1_555 1_555
H2 C7 1_555 1_555
C8 C5 1_555 1_555
H3 C8 1_555 1_555
N7 N5 1_555 1_555
C9 C7 1_555 1_555
H4 C9 1_555 1_555
C10 C4 1_555 1_555
H5 C10 1_555 1_555
C11 H6 1_555 1_555
N8 C4 1_555 1_555
C12 C1 1_555 1_555
H7 C12 1_555 1_555
C13 C11 1_555 1_555
H8 C13 1_555 1_555
N9 N4 1_555 1_555
N10 C13 1_555 1_555
C14 N8 1_555 1_555
H9 C14 1_555 1_555
C15 C3 1_555 1_555
H10 C15 1_555 1_555
C16 C15 1_555 1_555
N11 C16 1_555 1_555
C17 C8 1_555 1_555
H11 C17 1_555 1_555
C18 N11 1_555 1_555
H12 C18 1_555 1_555
C19 N11 1_555 1_555
H13 C19 1_555 1_555
C20 C18 1_555 1_555
H14 C20 1_555 1_555
N12 C19 1_555 1_555
Pb1_2 N9 1_555 1_555
Pb1_3 N12 1_555 1_555
Pb1B N10 1_555 1_555
N9_2 Pb1 1_555 1_555
N10B Pb1 1_555 1_555
N12_2 Pb1 1_555 1_555
N6 C6 1_555 1_555
C6 N7 1_555 1_555
C10 C12 1_555 1_555
C11 N8 1_555 1_555
N10 C14 1_555 1_555
C16 C17 1_555 1_555
C20 N12 1_555 1_555

#END
