
#######################################################################
#
#                 Cambridge Crystallographic Data Centre
#                                CCDC 
#
#######################################################################
#
# If this CIF has been generated from an entry in the Cambridge 
# Structural Database, then it will include bibliographic, chemical, 
# crystal, experimental, refinement or atomic coordinate data resulting 
# from the CCDC's data processing and validation procedures.
#
#######################################################################

data_TUDGIK
_symmetry_cell_setting           monoclinic
_symmetry_space_group_name_H-M   'P 21/c'
_symmetry_Int_Tables_number      14
_space_group_name_Hall           '-P 2ybc'
loop_
_symmetry_equiv_pos_site_id
_symmetry_equiv_pos_as_xyz
1 x,y,z
2 -x,1/2+y,1/2-z
3 -x,-y,-z
4 x,1/2-y,1/2+z
_cell_length_a                   17.168(8)
_cell_length_b                   10.925(6)
_cell_length_c                   9.623(7)
_cell_angle_alpha                90
_cell_angle_beta                 101.48(5)
_cell_angle_gamma                90
_cell_volume                     1768.79
loop_
_atom_site_label
_atom_site_type_symbol
_atom_site_fract_x
_atom_site_fract_y
_atom_site_fract_z
Sn1 Sn 0.60720(3) 0.17525(4) 0.46016(4)
O1 O 0.6100(3) 0.0330(4) 0.6233(4)
O2 O 0.6085(4) 0.1819(5) 0.7770(5)
O3 O 0.7424(4) -0.1740(5) 1.0676(5)
N1 N 0.7710(4) -0.2950(6) 0.8928(6)
C1 C 0.6193(5) 0.0723(6) 0.7502(7)
C2 C 0.6463(6) -0.0202(8) 0.8675(7)
H1 H 0.6818 0.0204 0.9448
H2 H 0.6002 -0.0475 0.9031
C3 C 0.6857(7) -0.1246(10) 0.8266(8)
H3 H 0.7204 -0.0974 0.7644
H4 H 0.6460 -0.1777 0.7713
C4 C 0.7346(5) -0.1998(7) 0.9434(7)
C5 C 0.8226(4) -0.3847(6) 0.9686(7)
C6 C 0.8401(4) -0.4852(7) 0.8928(8)
H5 H 0.8173 -0.4916 0.7970
C7 C 0.8907(4) -0.5758(7) 0.9564(9)
C8 C 0.9232(5) -0.5639(8) 1.0989(10)
H6 H 0.9571 -0.6246 1.1436
C9 C 0.9070(5) -0.4656(9) 1.1762(8)
C10 C 0.8564(5) -0.3723(8) 1.1112(7)
H7 H 0.8459 -0.3041 1.1623
C11 C 0.9099(6) -0.6874(9) 0.8777(12)
H8 H 0.9665 -0.6977 0.8932
H9 H 0.8890 -0.6773 0.7782
H10 H 0.8864 -0.7583 0.9117
C12 C 0.9419(7) -0.4514(11) 1.3338(10)
H11 H 0.9254 -0.5190 1.3849
H12 H 0.9234 -0.3763 1.3676
H13 H 0.9988 -0.4501 1.3482
C13 C 0.6025(5) 0.0360(7) 0.3054(7)
H14 H 0.5528 -0.0068 0.2946
H15 H 0.6454 -0.0205 0.3350
H16 H 0.6071 0.0720 0.2164
C14 C 0.7211(4) 0.2394(9) 0.5574(8)
H17 H 0.7467 0.2744 0.4868
H18 H 0.7523 0.1724 0.6029
H19 H 0.7159 0.3005 0.6267
C15 C 0.4974(5) 0.2539(8) 0.4781(8)
H20 H 0.4737 0.2919 0.3899
H21 H 0.5059 0.3142 0.5520
H22 H 0.4627 0.1912 0.5004
H23 H 0.758(4) -0.297(6) 0.796(8)
Sn1C Sn 0.60720(3) 0.32475(4) 0.96016(4)
O2C O 0.6085(4) 0.3181(5) 0.2770(5)
loop_
_geom_bond_atom_site_label_1
_geom_bond_atom_site_label_2
_geom_bond_site_symmetry_1
_geom_bond_site_symmetry_2
Sn1 O1 1_555 1_555
O1 C1 1_555 1_555
O2 C1 1_555 1_555
O3 C4 1_555 1_555
N1 C4 1_555 1_555
C1 C2 1_555 1_555
C2 H1 1_555 1_555
H2 C2 1_555 1_555
C3 C2 1_555 1_555
H3 C3 1_555 1_555
H4 C3 1_555 1_555
C4 C3 1_555 1_555
C5 N1 1_555 1_555
C6 C5 1_555 1_555
H5 C6 1_555 1_555
C7 C6 1_555 1_555
C8 C7 1_555 1_555
H6 C8 1_555 1_555
C9 C8 1_555 1_555
C10 C5 1_555 1_555
H7 C10 1_555 1_555
C11 C7 1_555 1_555
H8 C11 1_555 1_555
H9 C11 1_555 1_555
H10 C11 1_555 1_555
C12 C9 1_555 1_555
H11 C12 1_555 1_555
H12 C12 1_555 1_555
H13 C12 1_555 1_555
C13 Sn1 1_555 1_555
H14 C13 1_555 1_555
H15 C13 1_555 1_555
H16 C13 1_555 1_555
C14 Sn1 1_555 1_555
H17 C14 1_555 1_555
H18 C14 1_555 1_555
H19 C14 1_555 1_555
C15 Sn1 1_555 1_555
H20 C15 1_555 1_555
H21 C15 1_555 1_555
H22 C15 1_555 1_555
H23 N1 1_555 1_555
Sn1C O2 1_555 1_555
O2C Sn1 1_555 1_555
C9 C10 1_555 1_555

#END
