
#######################################################################
#
#                 Cambridge Crystallographic Data Centre
#                                CCDC 
#
#######################################################################
#
# If this CIF has been generated from an entry in the Cambridge 
# Structural Database, then it will include bibliographic, chemical, 
# crystal, experimental, refinement or atomic coordinate data resulting 
# from the CCDC's data processing and validation procedures.
#
#######################################################################

data_TUDHOP01
_symmetry_cell_setting           monoclinic
_symmetry_space_group_name_H-M   'C 2/c'
_symmetry_Int_Tables_number      15
_space_group_name_Hall           '-C 2yn'
loop_
_symmetry_equiv_pos_site_id
_symmetry_equiv_pos_as_xyz
1 x,y,z
2 1/2+x,1/2+y,z
3 x,-y,1/2+z
4 1/2+x,1/2-y,1/2+z
5 -x,-y,-z
6 1/2-x,1/2-y,-z
7 -x,y,1/2-z
8 1/2-x,1/2+y,1/2-z
_cell_length_a                   10.590(2)
_cell_length_b                   15.391(3)
_cell_length_c                   12.930(3)
_cell_angle_alpha                90
_cell_angle_beta                 93.34(3)
_cell_angle_gamma                90
_cell_volume                     2103.89
loop_
_atom_site_label
_atom_site_type_symbol
_atom_site_fract_x
_atom_site_fract_y
_atom_site_fract_z
Cu1 Cu 0.7500 0.2500 0.5000
O1 O 0.58620(16) 0.30359(12) 0.45126(14)
O2 O 0.65999(19) 0.42850(16) 0.3933(2)
C1 C 0.5723(2) 0.37817(18) 0.4142(2)
C2 C 0.4399(3) 0.4131(2) 0.3937(3)
H1 H 0.4339 0.4667 0.4326
H2 H 0.4303 0.4284 0.3208
C3 C 0.3313(2) 0.3591(2) 0.4171(3)
H3 H 0.3393 0.3414 0.4892
H4 H 0.3305 0.3071 0.3746
C4 C 0.2080(3) 0.4084(2) 0.3966(3)
H5 H 0.2136 0.4626 0.4348
H6 H 0.1995 0.4228 0.3235
C5 C 0.0943(3) 0.3635(2) 0.4238(3)
H7 H 0.1022 0.3497 0.4971
H8 H 0.0890 0.3089 0.3862
C6 C -0.0276(2) 0.41227(18) 0.4021(2)
O3 O -0.1262(2) 0.36687(14) 0.4184(2)
O4 O -0.03237(18) 0.48714(14) 0.37250(19)
N1 N 0.75322(19) 0.18388(13) 0.37026(16)
C7 C 0.6590(3) 0.1412(2) 0.3241(2)
H9 H 0.585(3) 0.141(2) 0.345(3)
N2 N 0.6968(2) 0.09771(17) 0.2424(2)
H10 H 0.664(3) 0.068(2) 0.211(3)
C8 C 0.8211(3) 0.1118(2) 0.2360(2)
H11 H 0.866(3) 0.087(2) 0.178(3)
C9 C 0.8561(3) 0.1652(2) 0.3150(2)
H12 H 0.939(3) 0.190(2) 0.334(3)
H13 H -0.200(5) 0.393(3) 0.401(4)
O3_2 O 0.8738(2) 0.36687(14) 0.4184(2)
Cu1_2 Cu -0.2500 0.2500 0.5000
O3E O 0.6262(2) 0.13313(14) 0.5816(2)
O1E O 0.91380(16) 0.19641(12) 0.54874(14)
N1E N 0.74678(19) 0.31612(13) 0.62974(16)
C7E C 0.8410(3) 0.3588(2) 0.6759(2)
H9E H 0.915(3) 0.359(2) 0.655(3)
N2E N 0.8032(2) 0.40229(17) 0.7576(2)
H10E H 0.836(3) 0.432(2) 0.789(3)
C8E C 0.6789(3) 0.3882(2) 0.7640(2)
H11E H 0.634(3) 0.413(2) 0.822(3)
C9E C 0.6439(3) 0.3348(2) 0.6850(2)
H12E H 0.561(3) 0.310(2) 0.666(3)
H13E H 0.700(5) 0.107(3) 0.599(4)
H13_2 H 0.800(5) 0.393(3) 0.401(4)
C1E C 0.9277(2) 0.12183(18) 0.5858(2)
O2E O 0.84001(19) 0.07150(16) 0.6067(2)
C2E C 1.0601(3) 0.0869(2) 0.6063(3)
H1E H 1.0661 0.0333 0.5674
H2E H 1.0697 0.0716 0.6792
C3E C 1.1687(2) 0.1409(2) 0.5829(3)
H3E H 1.1607 0.1586 0.5108
H4E H 1.1695 0.1929 0.6254
C4E C 1.2920(3) 0.0916(2) 0.6034(3)
H5E H 1.2864 0.0374 0.5652
H6E H 1.3005 0.0772 0.6765
C5E C 1.4057(3) 0.1365(2) 0.5762(3)
H7E H 1.3978 0.1503 0.5029
H8E H 1.4110 0.1911 0.6138
C6E C 1.5276(2) 0.08773(18) 0.5979(2)
O3E_2 O 1.6262(2) 0.13313(14) 0.5816(2)
O4E O 1.53237(18) 0.01286(14) 0.62750(19)
Cu1_3 Cu 1.7500 0.2500 0.5000
H13E_2 H 1.700(5) 0.107(3) 0.599(4)
loop_
_geom_bond_atom_site_label_1
_geom_bond_atom_site_label_2
_geom_bond_site_symmetry_1
_geom_bond_site_symmetry_2
Cu1 O1 1_555 1_555
O1 C1 1_555 1_555
O2 C1 1_555 1_555
C1 C2 1_555 1_555
C2 H1 1_555 1_555
H2 C2 1_555 1_555
C3 C2 1_555 1_555
H3 C3 1_555 1_555
H4 C3 1_555 1_555
C4 C3 1_555 1_555
H5 C4 1_555 1_555
H6 C4 1_555 1_555
C5 C4 1_555 1_555
H7 C5 1_555 1_555
H8 C5 1_555 1_555
C6 C5 1_555 1_555
O3 C6 1_555 1_555
O4 C6 1_555 1_555
N1 Cu1 1_555 1_555
C7 N1 1_555 1_555
H9 C7 1_555 1_555
N2 C7 1_555 1_555
H10 N2 1_555 1_555
C8 N2 1_555 1_555
H11 C8 1_555 1_555
C9 N1 1_555 1_555
H12 C9 1_555 1_555
H13 O3 1_555 1_555
O3_2 Cu1 1_555 1_555
Cu1_2 O3 1_555 1_555
O3E Cu1 1_555 1_555
O1E Cu1 1_555 1_555
N1E Cu1 1_555 1_555
C7E N1E 1_555 1_555
H9E C7E 1_555 1_555
N2E C7E 1_555 1_555
H10E N2E 1_555 1_555
C8E N2E 1_555 1_555
H11E C8E 1_555 1_555
C9E N1E 1_555 1_555
H12E C9E 1_555 1_555
H13E O3E 1_555 1_555
H13_2 O3_2 1_555 1_555
C1E O1E 1_555 1_555
O2E C1E 1_555 1_555
C2E C1E 1_555 1_555
H1E C2E 1_555 1_555
H2E C2E 1_555 1_555
C3E C2E 1_555 1_555
H3E C3E 1_555 1_555
H4E C3E 1_555 1_555
C4E C3E 1_555 1_555
H5E C4E 1_555 1_555
H6E C4E 1_555 1_555
C5E C4E 1_555 1_555
H7E C5E 1_555 1_555
H8E C5E 1_555 1_555
C6E C5E 1_555 1_555
O3E_2 C6E 1_555 1_555
O4E C6E 1_555 1_555
Cu1_3 O3E_2 1_555 1_555
H13E_2 O3E_2 1_555 1_555
C8 C9 1_555 1_555
C8E C9E 1_555 1_555

#END
