
#######################################################################
#
#                 Cambridge Crystallographic Data Centre
#                                CCDC 
#
#######################################################################
#
# If this CIF has been generated from an entry in the Cambridge 
# Structural Database, then it will include bibliographic, chemical, 
# crystal, experimental, refinement or atomic coordinate data resulting 
# from the CCDC's data processing and validation procedures.
#
#######################################################################

data_TUDWOE
_symmetry_cell_setting           orthorhombic
_symmetry_space_group_name_H-M   'P b c a'
_symmetry_Int_Tables_number      61
_space_group_name_Hall           '-P 2ac 2ab'
loop_
_symmetry_equiv_pos_site_id
_symmetry_equiv_pos_as_xyz
1 x,y,z
2 1/2-x,-y,1/2+z
3 1/2+x,1/2-y,-z
4 -x,1/2+y,1/2-z
5 -x,-y,-z
6 1/2+x,y,1/2-z
7 1/2-x,1/2+y,z
8 x,1/2-y,1/2+z
_cell_length_a                   7.811(6)
_cell_length_b                   34.67(3)
_cell_length_c                   7.481(6)
_cell_angle_alpha                90
_cell_angle_beta                 90
_cell_angle_gamma                90
_cell_volume                     2025.91
loop_
_atom_site_label
_atom_site_type_symbol
_atom_site_fract_x
_atom_site_fract_y
_atom_site_fract_z
Mn1 Mn 1.0000 0.5000 0.0000
O1 O 0.7900(3) 0.45925(7) 0.0333(3)
O2 O 0.8558(3) 0.51796(7) -0.2357(3)
O3 O 0.8590(5) 0.54104(10) 0.1626(4)
O4 O 0.5437(3) 0.40739(7) -0.0512(3)
Cl1 Cl 0.9115(2) 0.26155(4) 0.0572(2)
C1 C 0.6626(5) 0.45971(10) 0.1328(5)
C2 C 0.5108(5) 0.43373(11) 0.0927(5)
C3 C 0.6289(5) 0.37333(11) -0.0138(5)
C4 C 0.6848(6) 0.36241(13) 0.1538(6)
C5 C 0.7688(7) 0.32742(15) 0.1768(7)
C6 C 0.7940(6) 0.30400(13) 0.0330(7)
C7 C 0.7389(6) 0.31452(13) -0.1350(7)
C8 C 0.6583(5) 0.34958(11) -0.1627(5)
C9 C 0.6153(8) 0.36289(15) -0.3490(6)
H1 H 0.8943(78) 0.5593(16) 0.2265(87)
H2 H 0.7875(85) 0.5341(18) 0.2197(92)
H3 H 0.4847(46) 0.4200(9) 0.2026(46)
H4 H 0.4051(55) 0.4513(12) 0.0500(56)
H5 H 0.6751(54) 0.3792(11) 0.2507(66)
H6 H 0.7980(59) 0.3195(13) 0.2908(65)
H7 H 0.7562(62) 0.2985(12) -0.2382(73)
H8 H 0.6094(48) 0.3412(11) -0.4248(55)
H9 H 0.5052(64) 0.3733(13) -0.3629(64)
H10 H 0.7038(61) 0.3844(14) -0.3947(65)
O2A O 0.6442(3) 0.48204(7) 0.2643(3)
Mn1A Mn 0.5000 0.5000 0.5000
Mn1E Mn 1.5000 0.5000 0.5000
O1E O 1.2900(3) 0.45925(7) 0.4667(3)
C1E C 1.1626(5) 0.45971(10) 0.3672(5)
O2D O 1.1442(3) 0.48204(7) 0.2357(3)
O1D O 1.2100(3) 0.54075(7) -0.0333(3)
O3D O 1.1410(5) 0.45896(10) -0.1626(4)
H1D H 1.1057(78) 0.4407(16) -0.2265(87)
H2D H 1.2125(85) 0.4659(18) -0.2197(92)
C2E C 1.0108(5) 0.43373(11) 0.4073(5)
O4E O 1.0437(3) 0.40739(7) 0.5512(3)
C3E C 1.1289(5) 0.37333(11) 0.5138(5)
C4E C 1.1848(6) 0.36241(13) 0.3462(6)
C5E C 1.2688(7) 0.32742(15) 0.3232(7)
C6E C 1.2940(6) 0.30400(13) 0.4670(7)
Cl1E Cl 1.4115(2) 0.26155(4) 0.4428(2)
C7E C 1.2389(6) 0.31452(13) 0.6350(7)
C8E C 1.1583(5) 0.34958(11) 0.6627(5)
C9E C 1.1153(8) 0.36289(15) 0.8490(6)
H8E H 1.1094(48) 0.3412(11) 0.9248(55)
H9E H 1.0052(64) 0.3733(13) 0.8629(64)
H10E H 1.2038(61) 0.3844(14) 0.8947(65)
H7E H 1.2562(62) 0.2985(12) 0.7382(73)
H6E H 1.2980(59) 0.3195(13) 0.2092(65)
H5E H 1.1751(54) 0.3792(11) 0.2493(66)
H3E H 0.9847(46) 0.4200(9) 0.2974(46)
H4E H 0.9051(55) 0.4513(12) 0.4500(56)
loop_
_geom_bond_atom_site_label_1
_geom_bond_atom_site_label_2
_geom_bond_site_symmetry_1
_geom_bond_site_symmetry_2
Mn1 O1 1_555 1_555
O1 C1 1_555 1_555
O2 Mn1 1_555 1_555
O3 Mn1 1_555 1_555
O4 C2 1_555 1_555
Cl1 C6 1_555 1_555
C1 C2 1_555 1_555
C2 H3 1_555 1_555
C3 O4 1_555 1_555
C4 C3 1_555 1_555
C5 C4 1_555 1_555
C6 C5 1_555 1_555
C7 C6 1_555 1_555
C8 C3 1_555 1_555
C9 C8 1_555 1_555
H1 O3 1_555 1_555
H2 O3 1_555 1_555
H4 C2 1_555 1_555
H5 C4 1_555 1_555
H6 C5 1_555 1_555
H7 C7 1_555 1_555
H8 C9 1_555 1_555
H9 C9 1_555 1_555
H10 C9 1_555 1_555
O2A C1 1_555 1_555
Mn1A O2A 1_555 1_555
Mn1E O1E 1_555 1_555
O1E C1E 1_555 1_555
C1E O2D 1_555 1_555
O2D Mn1 1_555 1_555
O1D Mn1 1_555 1_555
O3D Mn1 1_555 1_555
H1D O3D 1_555 1_555
H2D O3D 1_555 1_555
C2E C1E 1_555 1_555
O4E C2E 1_555 1_555
C3E O4E 1_555 1_555
C4E C3E 1_555 1_555
C5E C4E 1_555 1_555
C6E C5E 1_555 1_555
Cl1E C6E 1_555 1_555
C7E C6E 1_555 1_555
C8E C3E 1_555 1_555
C9E C8E 1_555 1_555
H8E C9E 1_555 1_555
H9E C9E 1_555 1_555
H10E C9E 1_555 1_555
H7E C7E 1_555 1_555
H6E C5E 1_555 1_555
H5E C4E 1_555 1_555
H3E C2E 1_555 1_555
H4E C2E 1_555 1_555
C7 C8 1_555 1_555
C7E C8E 1_555 1_555

#END
