
#######################################################################
#
#                 Cambridge Crystallographic Data Centre
#                                CCDC 
#
#######################################################################
#
# If this CIF has been generated from an entry in the Cambridge 
# Structural Database, then it will include bibliographic, chemical, 
# crystal, experimental, refinement or atomic coordinate data resulting 
# from the CCDC's data processing and validation procedures.
#
#######################################################################

data_TUFFOQ
_symmetry_cell_setting           triclinic
_symmetry_space_group_name_H-M   'P -1'
_symmetry_Int_Tables_number      2
_space_group_name_Hall           '-P 1'
loop_
_symmetry_equiv_pos_site_id
_symmetry_equiv_pos_as_xyz
1 x,y,z
2 -x,-y,-z
_cell_length_a                   9.0776(3)
_cell_length_b                   9.9059(6)
_cell_length_c                   10.6343(6)
_cell_angle_alpha                115.523(5)
_cell_angle_beta                 91.855(4)
_cell_angle_gamma                94.671(4)
_cell_volume                     857.648
loop_
_atom_site_label
_atom_site_type_symbol
_atom_site_fract_x
_atom_site_fract_y
_atom_site_fract_z
Cd1 Cd -0.286720(19) 0.108240(19) 0.352100(19)
O1 O 0.54054(17) 0.07254(18) 0.17604(18)
O2 O 0.45525(18) -0.00915(19) 0.32360(18)
C1 C 0.4383(2) 0.0129(2) 0.2162(2)
C2 C 0.2877(2) -0.0265(3) 0.1357(3)
H1 H 0.2288 0.0598 0.1793
H2 H 0.3021 -0.0408 0.0391
C3 C 0.1999(2) -0.1654(3) 0.1295(2)
C4 C 0.2717(3) -0.3075(3) 0.0601(2)
O3 O 0.39200(18) -0.30744(18) 0.01493(19)
O4 O 0.19521(18) -0.42811(18) 0.05533(19)
H3 H 0.2484 -0.5148 0.0179
C5 C 0.0662(3) -0.1721(3) 0.1731(2)
H4 H 0.0208 -0.2696 0.1536
C6 C -0.0223(3) -0.0434(3) 0.2499(3)
O5 O -0.14984(18) -0.05417(18) 0.19352(18)
O6 O 0.02747(18) 0.05999(18) 0.36318(18)
O7 O -0.25670(18) -0.0079(2) 0.49132(19)
H5 H -0.1620 -0.0215 0.5320
H6 H -0.3251 0.0401 0.5687
N1 N -0.1733(2) 0.3179(2) 0.3341(2)
N2 N -0.3507(2) 0.3249(2) 0.5340(2)
C7 C -0.0802(3) 0.3080(3) 0.2376(3)
H9 H -0.0637 0.2110 0.1693
C8 C -0.0066(3) 0.4318(3) 0.2322(3)
H10 H 0.0592 0.4211 0.1616
C9 C -0.0307(3) 0.5717(3) 0.3320(3)
H11 H 0.0202 0.6595 0.3321
C10 C -0.1280(3) 0.5843(3) 0.4310(3)
H12 H -0.1467 0.6804 0.4994
C11 C -0.1990(3) 0.4542(3) 0.4298(3)
C12 C -0.3044(3) 0.4579(3) 0.5352(2)
C13 C -0.3531(3) 0.5902(3) 0.6302(3)
H13 H -0.3198 0.6834 0.6296
C14 C -0.4500(3) 0.5860(3) 0.7256(3)
H14 H -0.4839 0.6761 0.7916
C15 C -0.4971(3) 0.4500(3) 0.7243(3)
H15 H -0.5643 0.4443 0.7889
C16 C -0.4448(3) 0.3220(3) 0.6270(3)
H16 H -0.4770 0.2279 0.6262
Cd1_2 Cd 0.713280(19) 0.108240(19) 0.352100(19)
O1_2 O -0.45946(17) 0.07254(18) 0.17604(18)
O2_2 O -0.54475(18) -0.00915(19) 0.32360(18)
O8 O -0.6892(2) -0.6749(2) -0.0563(2)
H7 H -0.5788 -0.6683 -0.0567
H8 H -0.7415 -0.7774 -0.0837
loop_
_geom_bond_atom_site_label_1
_geom_bond_atom_site_label_2
_geom_bond_site_symmetry_1
_geom_bond_site_symmetry_2
Cd1 O5 1_555 1_555
O1 C1 1_555 1_555
O2 C1 1_555 1_555
C1 C2 1_555 1_555
C2 H1 1_555 1_555
H2 C2 1_555 1_555
C3 C2 1_555 1_555
C4 C3 1_555 1_555
O3 C4 1_555 1_555
O4 C4 1_555 1_555
H3 O4 1_555 1_555
C5 C3 1_555 1_555
H4 C5 1_555 1_555
C6 C5 1_555 1_555
O5 C6 1_555 1_555
O6 C6 1_555 1_555
O7 Cd1 1_555 1_555
H5 O7 1_555 1_555
H6 O7 1_555 1_555
O8 H7 1_555 1_555
H8 O8 1_555 1_555
N1 Cd1 1_555 1_555
N2 Cd1 1_555 1_555
C7 N1 1_555 1_555
H9 C7 1_555 1_555
C8 C7 1_555 1_555
H10 C8 1_555 1_555
C9 C8 1_555 1_555
H11 C9 1_555 1_555
C10 C9 1_555 1_555
H12 C10 1_555 1_555
C11 N1 1_555 1_555
C12 N2 1_555 1_555
C13 C12 1_555 1_555
H13 C13 1_555 1_555
C14 C13 1_555 1_555
H14 C14 1_555 1_555
C15 C14 1_555 1_555
H15 C15 1_555 1_555
C16 N2 1_555 1_555
H16 C16 1_555 1_555
Cd1_2 O1 1_555 1_555
O1_2 Cd1 1_555 1_555
O2_2 Cd1 1_555 1_555
O2 Cd1_2 1_555 1_555
C10 C11 1_555 1_555
C11 C12 1_555 1_555
C15 C16 1_555 1_555

#END
