
#######################################################################
#
#                 Cambridge Crystallographic Data Centre
#                                CCDC 
#
#######################################################################
#
# If this CIF has been generated from an entry in the Cambridge 
# Structural Database, then it will include bibliographic, chemical, 
# crystal, experimental, refinement or atomic coordinate data resulting 
# from the CCDC's data processing and validation procedures.
#
#######################################################################

data_TUFHUY
_symmetry_cell_setting           triclinic
_symmetry_space_group_name_H-M   'P -1'
_symmetry_Int_Tables_number      2
_space_group_name_Hall           '-P 1'
loop_
_symmetry_equiv_pos_site_id
_symmetry_equiv_pos_as_xyz
1 x,y,z
2 -x,-y,-z
_cell_length_a                   4.9548(10)
_cell_length_b                   5.5428(11)
_cell_length_c                   11.9985(24)
_cell_angle_alpha                86.746(30)
_cell_angle_beta                 78.977(30)
_cell_angle_gamma                86.931(30)
_cell_volume                     322.613
loop_
_atom_site_label
_atom_site_type_symbol
_atom_site_fract_x
_atom_site_fract_y
_atom_site_fract_z
Ni1 Ni 0.0000 0.5000 1.0000
O2 O 0.1344(4) 0.7291(4) 0.55529(18)
O3 O -0.0800(4) 0.9573(4) 0.81466(18)
O4 O -0.3143(5) 0.6705(4) 1.11092(19)
O5 O -0.2001(4) 0.5770(4) 0.86682(17)
N1 N -0.2748(5) 0.9336(5) 0.6147(2)
O6 O -0.2320(4) 0.1971(4) 1.0235(2)
C1 C -0.1980(6) 0.7683(5) 0.8034(2)
C2 C -0.0319(6) 0.9006(5) 0.5469(2)
C3 C -0.3615(6) 0.7598(5) 0.7078(2)
H1 H -0.3398 0.5953 0.6783
H2 H -0.5591 0.7917 0.7391
H3 H -0.457(10) 0.604(8) 1.111(4)
H4 H -0.387(9) 1.052(8) 0.606(4)
H7 H -0.226(8) 0.124(7) 0.970(4)
H8 H -0.189(10) 0.098(10) 1.078(5)
H9 H -0.303(9) 0.679(8) 1.177(4)
Ni1_2 Ni 0.0000 1.5000 0.0000
O2A O -0.1344(4) 1.2709(4) 0.44471(18)
O3A O 0.0800(4) 1.0427(4) 0.18534(18)
O4A O 0.3143(5) 0.3295(4) 0.88908(19)
O5A O 0.2001(4) 1.4230(4) 0.13318(17)
O5A_2 O 0.2001(4) 0.4230(4) 1.13318(17)
N1A N 0.2748(5) 1.0664(5) 0.3853(2)
O6A O 0.2320(4) 0.8029(4) 0.9765(2)
C1A C 0.1980(6) 1.2317(5) 0.1966(2)
C2A C 0.0319(6) 1.0994(5) 0.4531(2)
C3A C 0.3615(6) 1.2402(5) 0.2922(2)
H1A H 0.3398 1.4047 0.3217
H2A H 0.5591 1.2083 0.2609
H3A H 0.457(10) 0.396(8) 0.889(4)
H4A H 0.387(9) 0.948(8) 0.394(4)
H7A H 0.226(8) 0.876(7) 1.030(4)
H8A H 0.189(10) 0.902(10) 0.922(5)
H9A H 0.303(9) 0.321(8) 0.823(4)
O1 O 0.2397(5) 0.2834(4) 0.66934(19)
H5 H 0.086(9) 0.206(7) 0.690(3)
H6 H 0.191(10) 0.406(9) 0.637(4)
loop_
_geom_bond_atom_site_label_1
_geom_bond_atom_site_label_2
_geom_bond_site_symmetry_1
_geom_bond_site_symmetry_2
Ni1 O4 1_555 1_555
O1 H5 1_555 1_555
O2 C2 1_555 1_555
O3 C1 1_555 1_555
O4 H3 1_555 1_555
O5 Ni1 1_555 1_555
N1 C2 1_555 1_555
O6 Ni1 1_555 1_555
C1 O5 1_555 1_555
C2 C2A 1_555 1_555
C3 N1 1_555 1_555
H1 C3 1_555 1_555
H2 C3 1_555 1_555
H4 N1 1_555 1_555
H6 O1 1_555 1_555
H7 O6 1_555 1_555
H8 O6 1_555 1_555
H9 O4 1_555 1_555
Ni1_2 O5A 1_555 1_555
O2A C2A 1_555 1_555
O3A C1A 1_555 1_555
O4A Ni1 1_555 1_555
O5A C1A 1_555 1_555
O5A_2 Ni1 1_555 1_555
N1A C2A 1_555 1_555
O6A Ni1 1_555 1_555
C1A C3A 1_555 1_555
C3A N1A 1_555 1_555
H1A C3A 1_555 1_555
H2A C3A 1_555 1_555
H3A O4A 1_555 1_555
H4A N1A 1_555 1_555
H7A O6A 1_555 1_555
H8A O6A 1_555 1_555
H9A O4A 1_555 1_555
C1 C3 1_555 1_555

#END
