
#######################################################################
#
#                 Cambridge Crystallographic Data Centre
#                                CCDC 
#
#######################################################################
#
# If this CIF has been generated from an entry in the Cambridge 
# Structural Database, then it will include bibliographic, chemical, 
# crystal, experimental, refinement or atomic coordinate data resulting 
# from the CCDC's data processing and validation procedures.
#
#######################################################################

data_TUFTAR
_symmetry_cell_setting           triclinic
_symmetry_space_group_name_H-M   'P -1'
_symmetry_Int_Tables_number      2
_space_group_name_Hall           '-P 1'
loop_
_symmetry_equiv_pos_site_id
_symmetry_equiv_pos_as_xyz
1 x,y,z
2 -x,-y,-z
_cell_length_a                   7.7297(4)
_cell_length_b                   10.2725(5)
_cell_length_c                   16.0234(9)
_cell_angle_alpha                86.817(4)
_cell_angle_beta                 85.974(5)
_cell_angle_gamma                77.107(4)
_cell_volume                     1236.13
loop_
_atom_site_label
_atom_site_type_symbol
_atom_site_fract_x
_atom_site_fract_y
_atom_site_fract_z
Eu1 Eu 0.35439(5) 0.33627(4) 0.06325(2)
Eu2 Eu 0.61510(5) -0.13162(4) 0.32466(2)
O1 O 1.2064(6) 0.2973(5) -0.2226(3)
O2 O 1.0997(6) 0.0727(5) -0.2952(3)
O3 O 0.4905(7) 0.3560(5) -0.3481(3)
O4 O 0.6401(7) 0.1881(5) -0.2712(3)
O5 O 0.7595(7) 0.4435(5) -0.1180(3)
O6 O 0.5919(7) 0.3381(5) -0.0323(3)
O7 O -0.2141(6) 0.5157(5) 0.0485(3)
O8 O 0.0379(6) 0.3685(5) 0.0762(3)
O9 O 0.3378(6) -0.0295(5) 0.5759(3)
O10 O 0.4068(7) -0.1105(5) 0.4473(3)
O11 O 0.3973(7) 0.0883(5) 0.2995(3)
O12 O 0.6179(7) -0.0445(5) 0.1813(3)
O13 O 0.2908(7) 0.2475(5) 0.2030(3)
O14 O 0.5002(7) 0.1067(5) 0.0832(3)
O15 O 0.5957(7) 0.3625(5) 0.1452(3)
H1 H 0.611(7) 0.335(7) 0.1955(18)
H2 H 0.669(7) 0.411(6) 0.130(2)
O16 O 0.2739(8) 0.2104(5) -0.0481(3)
H3 H 0.341(6) 0.135(3) -0.061(3)
H4 H 0.240(9) 0.251(3) -0.0943(17)
O17 O 0.8047(7) -0.2672(5) 0.4234(3)
H5 H 0.784(5) -0.337(4) 0.450(4)
H6 H 0.908(4) -0.259(5) 0.434(4)
C1 C 1.0606(10) 0.4879(7) -0.2949(5)
H7 H 1.1632 0.5245 -0.2953
C2 C 0.9124(10) 0.5573(7) -0.3346(5)
H8 H 0.9105 0.6440 -0.3591
C3 C 0.7667(10) 0.5006(7) -0.3385(5)
H9 H 0.6678 0.5454 -0.3688
C4 C 0.7664(10) 0.3779(7) -0.2978(5)
C5 C 0.9117(10) 0.3150(7) -0.2533(5)
C6 C 0.6196(10) 0.3051(7) -0.3062(5)
C7 C 1.0182(10) -0.0336(7) -0.1715(5)
H10 H 1.0885 -0.1162 -0.1900
C8 C 0.9212(9) -0.0305(7) -0.0958(5)
H11 H 0.9233 -0.1103 -0.0627
C9 C 0.8210(9) 0.0897(7) -0.0689(5)
H12 H 0.7531 0.0927 -0.0170
C10 C 0.8188(10) 0.2063(7) -0.1170(5)
C11 C 0.9177(10) 0.1985(7) -0.1935(5)
C12 C 0.7149(10) 0.3388(7) -0.0878(5)
C13 C -0.0510(10) 0.4670(7) 0.0358(5)
C14 C 0.4254(10) -0.0417(7) 0.5080(5)
C15 C 0.5126(10) 0.0613(7) 0.1579(5)
C16 C 0.3895(10) 0.1386(7) 0.2254(5)
N1 N 1.0599(8) 0.3689(6) -0.2560(4)
N2 N 1.0149(8) 0.0788(6) -0.2195(4)
O7A O 0.2141(6) 0.4843(5) -0.0485(3)
O8A O -0.0379(6) 0.6315(5) -0.0762(3)
C13A C 0.0510(10) 0.5330(7) -0.0358(5)
O9A O 0.6622(6) 0.0295(5) 0.4241(3)
O10A O 0.5932(7) 0.1105(5) 0.5527(3)
C14A C 0.5746(10) 0.0417(7) 0.4920(5)
Eu1A Eu -0.35439(5) 0.66373(4) -0.06325(2)
Eu2A Eu -0.61510(5) 1.13162(4) -0.32466(2)
O1A O -1.2064(6) 0.7027(5) 0.2226(3)
O2A O -1.0997(6) 0.9273(5) 0.2952(3)
O3A O -0.4905(7) 0.6440(5) 0.3481(3)
O4A O -0.6401(7) 0.8119(5) 0.2712(3)
O5A O -0.7595(7) 0.5565(5) 0.1180(3)
O6A O -0.5919(7) 0.6619(5) 0.0323(3)
O11A O -0.3973(7) 0.9117(5) -0.2995(3)
O12A O -0.6179(7) 1.0445(5) -0.1813(3)
O13A O -0.2908(7) 0.7525(5) -0.2030(3)
O14A O -0.5002(7) 0.8933(5) -0.0832(3)
O15A O -0.5957(7) 0.6375(5) -0.1452(3)
H1A H -0.611(7) 0.665(7) -0.1955(18)
H2A H -0.669(7) 0.589(6) -0.130(2)
O16A O -0.2739(8) 0.7896(5) 0.0481(3)
H3A H -0.341(6) 0.865(3) 0.061(3)
H4A H -0.240(9) 0.749(3) 0.0943(17)
O17A O -0.8047(7) 1.2672(5) -0.4234(3)
H5A H -0.784(5) 1.337(4) -0.450(4)
H6A H -0.908(4) 1.259(5) -0.434(4)
C1A C -1.0606(10) 0.5121(7) 0.2949(5)
H7A H -1.1632 0.4755 0.2953
C2A C -0.9124(10) 0.4427(7) 0.3346(5)
H8A H -0.9105 0.3560 0.3591
C3A C -0.7667(10) 0.4994(7) 0.3385(5)
H9A H -0.6678 0.4546 0.3688
C4A C -0.7664(10) 0.6221(7) 0.2978(5)
C5A C -0.9117(10) 0.6850(7) 0.2533(5)
C6A C -0.6196(10) 0.6949(7) 0.3062(5)
C7A C -1.0182(10) 1.0336(7) 0.1715(5)
H10A H -1.0885 1.1162 0.1900
C8A C -0.9212(9) 1.0305(7) 0.0958(5)
H11A H -0.9233 1.1103 0.0627
C9A C -0.8210(9) 0.9103(7) 0.0689(5)
H12A H -0.7531 0.9073 0.0170
C10A C -0.8188(10) 0.7937(7) 0.1170(5)
C11A C -0.9177(10) 0.8015(7) 0.1935(5)
C12A C -0.7149(10) 0.6612(7) 0.0878(5)
C15A C -0.5126(10) 0.9387(7) -0.1579(5)
C16A C -0.3895(10) 0.8614(7) -0.2254(5)
N1A N -1.0599(8) 0.6311(6) 0.2560(4)
N2A N -1.0149(8) 0.9212(6) 0.2195(4)
Eu1_2 Eu -0.64561(5) 0.33627(4) 0.06325(2)
Eu1A_2 Eu 0.64561(5) 0.66373(4) -0.06325(2)
Eu2_2 Eu -1.38490(5) 0.86838(4) 0.32466(2)
Eu2_3 Eu -0.38490(5) 0.86838(4) 0.32466(2)
Eu2A_2 Eu 0.38490(5) 0.13162(4) -0.32466(2)
Eu2A_3 Eu 0.38490(5) 0.13162(4) 0.67534(2)
Eu2A_4 Eu 1.38490(5) 0.13162(4) -0.32466(2)
O1_2 O -0.7936(6) 1.2973(5) -0.2226(3)
O1A_2 O 0.7936(6) -0.2973(5) 0.2226(3)
O2_2 O -0.9003(6) 1.0727(5) -0.2952(3)
O2A_2 O 0.9003(6) -0.0727(5) 0.2952(3)
O3_2 O -0.5095(7) 1.3560(5) -0.3481(3)
O3A_2 O 0.5095(7) -0.3560(5) 0.3481(3)
O4_2 O -0.3599(7) 1.1881(5) -0.2712(3)
O4A_2 O 0.3599(7) -0.1881(5) 0.2712(3)
O5_2 O -0.2405(7) 0.4435(5) -0.1180(3)
O5A_2 O 0.2405(7) 0.5565(5) 0.1180(3)
O9_2 O -0.6622(6) 0.9705(5) -0.4241(3)
O10A_2 O -0.4068(7) 1.1105(5) -0.4473(3)
O18 O 0.6945(8) 0.2704(6) 0.3079(4)
H13 H 0.632(7) 0.224(6) 0.337(4)
H14 H 0.804(3) 0.235(7) 0.314(5)
O19 O 0.2955(9) 0.4963(5) -0.4750(4)
H15 H 0.372(8) 0.493(6) -0.439(4)
H16 H 0.230(8) 0.575(3) -0.476(5)
O20 O 0.9641(7) -0.1185(5) -0.3680(4)
H17 H 0.870(6) -0.129(7) -0.341(4)
H18 H 0.985(9) -0.043(4) -0.359(5)
O21 O 0.8846(7) 0.2343(5) -0.4867(4)
H19 H 0.939(8) 0.193(7) -0.529(3)
H20 H 0.789(6) 0.206(7) -0.477(4)
loop_
_geom_bond_atom_site_label_1
_geom_bond_atom_site_label_2
_geom_bond_site_symmetry_1
_geom_bond_site_symmetry_2
Eu1 O6 1_555 1_555
Eu2 O10 1_555 1_555
O1 N1 1_555 1_555
O2 N2 1_555 1_555
O3 C6 1_555 1_555
O4 C6 1_555 1_555
O5 C12 1_555 1_555
O6 C12 1_555 1_555
O7 C13 1_555 1_555
O8 Eu1 1_555 1_555
O9 C14 1_555 1_555
O10 C14 1_555 1_555
O11 Eu2 1_555 1_555
O12 Eu2 1_555 1_555
O13 Eu1 1_555 1_555
O14 Eu1 1_555 1_555
O15 Eu1 1_555 1_555
H1 O15 1_555 1_555
H2 O15 1_555 1_555
O16 Eu1 1_555 1_555
H3 O16 1_555 1_555
H4 O16 1_555 1_555
O17 Eu2 1_555 1_555
H5 O17 1_555 1_555
H6 O17 1_555 1_555
C1 H7 1_555 1_555
C2 C1 1_555 1_555
H8 C2 1_555 1_555
C3 C2 1_555 1_555
H9 C3 1_555 1_555
C4 C3 1_555 1_555
C5 C4 1_555 1_555
C6 C4 1_555 1_555
C7 H10 1_555 1_555
C8 C7 1_555 1_555
H11 C8 1_555 1_555
C9 C8 1_555 1_555
H12 C9 1_555 1_555
C10 C9 1_555 1_555
C11 C5 1_555 1_555
C12 C10 1_555 1_555
C13 O8 1_555 1_555
C14 C14A 1_555 1_555
C15 O12 1_555 1_555
C16 O11 1_555 1_555
N1 C1 1_555 1_555
N2 C7 1_555 1_555
O18 H13 1_555 1_555
H14 O18 1_555 1_555
O19 H15 1_555 1_555
H16 O19 1_555 1_555
O20 H17 1_555 1_555
H18 O20 1_555 1_555
O21 H19 1_555 1_555
H20 O21 1_555 1_555
O7A Eu1 1_555 1_555
O8A C13A 1_555 1_555
C13A C13 1_555 1_555
O9A Eu2 1_555 1_555
O10A C14A 1_555 1_555
C14A O9A 1_555 1_555
Eu1A O7 1_555 1_555
Eu2A O11A 1_555 1_555
O1A N1A 1_555 1_555
O2A N2A 1_555 1_555
O3A C6A 1_555 1_555
O4A C6A 1_555 1_555
O5A C12A 1_555 1_555
O6A Eu1A 1_555 1_555
O11A C16A 1_555 1_555
O12A Eu2A 1_555 1_555
O13A Eu1A 1_555 1_555
O14A Eu1A 1_555 1_555
O15A Eu1A 1_555 1_555
H1A O15A 1_555 1_555
H2A O15A 1_555 1_555
O16A Eu1A 1_555 1_555
H3A O16A 1_555 1_555
H4A O16A 1_555 1_555
O17A Eu2A 1_555 1_555
H5A O17A 1_555 1_555
H6A O17A 1_555 1_555
C1A H7A 1_555 1_555
C2A C1A 1_555 1_555
H8A C2A 1_555 1_555
C3A C2A 1_555 1_555
H9A C3A 1_555 1_555
C4A C3A 1_555 1_555
C5A C4A 1_555 1_555
C6A C4A 1_555 1_555
C7A H10A 1_555 1_555
C8A C7A 1_555 1_555
H11A C8A 1_555 1_555
C9A C8A 1_555 1_555
H12A C9A 1_555 1_555
C10A C9A 1_555 1_555
C11A C5A 1_555 1_555
C12A O6A 1_555 1_555
C15A O12A 1_555 1_555
C16A O13A 1_555 1_555
N1A C1A 1_555 1_555
N2A C7A 1_555 1_555
Eu1_2 O5A 1_555 1_555
Eu1A_2 O5 1_555 1_555
Eu2_2 O1A 1_555 1_555
Eu2_3 O3A 1_555 1_555
Eu2A_2 O3 1_555 1_555
Eu2A_3 O9 1_555 1_555
Eu2A_4 O1 1_555 1_555
O1_2 Eu2A 1_555 1_555
O1A_2 Eu2 1_555 1_555
O2_2 Eu2A 1_555 1_555
O2A_2 Eu2 1_555 1_555
O3_2 Eu2A 1_555 1_555
O3A_2 Eu2 1_555 1_555
O4_2 Eu2A 1_555 1_555
O4A_2 Eu2 1_555 1_555
O5_2 Eu1A 1_555 1_555
O5A_2 Eu1 1_555 1_555
O9_2 Eu2A 1_555 1_555
O10A_2 Eu2A 1_555 1_555
O2 Eu2A_4 1_555 1_555
O4 Eu2A_2 1_555 1_555
O13 C16 1_555 1_555
O14 C15 1_555 1_555
C5 N1 1_555 1_555
C10 C11 1_555 1_555
C11 N2 1_555 1_555
C15 C16 1_555 1_555
O7A C13A 1_555 1_555
O8A Eu1A 1_555 1_555
O10A Eu2A_3 1_555 1_555
O2A Eu2_2 1_555 1_555
O4A Eu2_3 1_555 1_555
O14A C15A 1_555 1_555
C5A N1A 1_555 1_555
C10A C11A 1_555 1_555
C10A C12A 1_555 1_555
C11A N2A 1_555 1_555
C15A C16A 1_555 1_555

#END
