
#######################################################################
#
#                 Cambridge Crystallographic Data Centre
#                                CCDC 
#
#######################################################################
#
# If this CIF has been generated from an entry in the Cambridge 
# Structural Database, then it will include bibliographic, chemical, 
# crystal, experimental, refinement or atomic coordinate data resulting 
# from the CCDC's data processing and validation procedures.
#
#######################################################################

data_TUGGUY
_symmetry_cell_setting           monoclinic
_symmetry_space_group_name_H-M   'P 21/c'
_symmetry_Int_Tables_number      14
_space_group_name_Hall           '-P 2ybc'
loop_
_symmetry_equiv_pos_site_id
_symmetry_equiv_pos_as_xyz
1 x,y,z
2 -x,1/2+y,1/2-z
3 -x,-y,-z
4 x,1/2-y,1/2+z
_cell_length_a                   23.3611(2)
_cell_length_b                   26.7539(2)
_cell_length_c                   16.34120(10)
_cell_angle_alpha                90
_cell_angle_beta                 90.5224(6)
_cell_angle_gamma                90
_cell_volume                     10212.8
loop_
_atom_site_label
_atom_site_type_symbol
_atom_site_fract_x
_atom_site_fract_y
_atom_site_fract_z
Pb1 Pb -0.376816(6) 0.220302(6) 0.393857(9)
Pb2 Pb -0.368310(6) 0.231360(6) 0.645960(9)
F1 F -0.18380(11) 0.32362(10) 0.5022(2)
F2 F -0.23097(14) 0.29711(17) 0.60414(19)
F3 F -0.19470(11) 0.24614(10) 0.5193(2)
F4 F -0.22474(12) 0.28509(11) 0.2194(2)
F5 F -0.18364(15) 0.27558(13) 0.3353(2)
F6 F -0.16126(10) 0.22890(10) 0.23516(16)
F7 F -0.54831(12) 0.35602(12) 0.08195(18)
F8 F -0.54358(14) 0.38478(11) 0.2023(2)
F9 F -0.60293(11) 0.32705(12) 0.1737(2)
F10 F -0.51197(13) 0.28515(14) 0.41486(17)
F11 F -0.54523(11) 0.24300(11) 0.51227(19)
F12 F -0.55718(11) 0.32141(11) 0.5102(2)
O1 O -0.30573(11) 0.24936(10) 0.48519(15)
O2 O -0.37873(11) 0.30977(11) 0.37796(17)
O3 O -0.30172(11) 0.23478(10) 0.29977(16)
O4 O -0.32068(11) 0.14097(10) 0.37901(17)
O5 O -0.45397(11) 0.32103(10) 0.17022(16)
O6 O -0.42693(10) 0.22954(9) 0.24247(15)
O7 O -0.43384(10) 0.25157(10) 0.54399(15)
O8 O -0.35847(11) 0.31996(10) 0.62404(16)
O17 O -0.37154(14) 0.15457(11) 0.53069(17)
H1 H -0.340(3) 0.140(2) 0.518(4)
C1 C -0.22143(18) 0.28943(17) 0.5256(3)
C2 C -0.27731(16) 0.29024(15) 0.4776(2)
C3 C -0.29183(16) 0.33396(15) 0.4397(2)
H3 H -0.2645 0.3602 0.4412
C4 C -0.34430(15) 0.34354(14) 0.3981(2)
C5 C -0.36243(16) 0.39588(15) 0.3791(2)
C6 C -0.40951(16) 0.40254(15) 0.3255(2)
H4 H -0.4269 0.3743 0.3004
C7 C -0.43033(17) 0.44912(16) 0.3094(3)
H5 H -0.4620 0.4528 0.2730
C8 C -0.40589(16) 0.49196(15) 0.3457(2)
C9 C -0.42657(19) 0.54084(17) 0.3310(3)
H6 H -0.4588 0.5454 0.2959
C10 C -0.4014(2) 0.58130(17) 0.3661(3)
H7 H -0.4159 0.6138 0.3549
C11 C -0.3539(2) 0.57553(16) 0.4187(3)
H8 H -0.3362 0.6041 0.4425
C12 C -0.33338(18) 0.52906(16) 0.4355(3)
H9 H -0.3019 0.5254 0.4723
C13 C -0.35798(16) 0.48586(14) 0.3991(2)
C14 C -0.33752(16) 0.43711(15) 0.4142(2)
H10 H -0.3055 0.4327 0.4497
C15 C -0.20571(18) 0.25155(18) 0.2716(3)
C16 C -0.25213(17) 0.21496(16) 0.2989(2)
C17 C -0.23534(17) 0.16745(16) 0.3189(2)
H11 H -0.1966 0.1585 0.3095
C18 C -0.27186(16) 0.13067(15) 0.3526(2)
C19 C -0.25368(16) 0.07698(15) 0.3572(2)
C20 C -0.20259(17) 0.05888(17) 0.3219(3)
H12 H -0.1770 0.0817 0.2966
C21 C -0.18963(19) 0.00948(18) 0.3237(3)
H13 H -0.1549 -0.0017 0.3000
C22 C -0.22681(18) -0.02589(16) 0.3601(3)
C23 C -0.2167(2) -0.07827(18) 0.3588(3)
H14 H -0.1832 -0.0908 0.3335
C24 C -0.2546(2) -0.11095(19) 0.3935(3)
H15 H -0.2476 -0.1459 0.3916
C25 C -0.3034(2) -0.09257(18) 0.4316(3)
H16 H -0.3293 -0.1153 0.4564
C26 C -0.3148(2) -0.04317(17) 0.4339(3)
H17 H -0.3481 -0.0316 0.4607
C27 C -0.27755(17) -0.00820(15) 0.3968(2)
C28 C -0.28926(16) 0.04319(15) 0.3943(2)
H18 H -0.3232 0.0551 0.4193
C29 C -0.5509(2) 0.34281(18) 0.1595(3)
C30 C -0.50371(17) 0.30519(15) 0.1829(2)
C31 C -0.52076(17) 0.25955(15) 0.2163(2)
H19 H -0.5605 0.2522 0.2185
C32 C -0.48199(16) 0.22442(14) 0.2465(2)
C33 C -0.50129(15) 0.17808(15) 0.2875(2)
C34 C -0.55534(16) 0.17374(17) 0.3256(2)
H20 H -0.5809 0.2014 0.3253
C35 C -0.57093(17) 0.13020(18) 0.3628(3)
H21 H -0.6072 0.1280 0.3885
C36 C -0.53417(18) 0.08845(17) 0.3637(2)
C37 C -0.5495(2) 0.0418(2) 0.3984(3)
H22 H -0.5856 0.0381 0.4241
C38 C -0.5130(3) 0.0024(2) 0.3953(3)
H23 H -0.5239 -0.0284 0.4197
C39 C -0.4596(2) 0.00582(18) 0.3572(3)
H24 H -0.4349 -0.0223 0.3553
C40 C -0.44367(19) 0.05010(16) 0.3227(3)
H25 H -0.4075 0.0527 0.2969
C41 C -0.48051(17) 0.09217(15) 0.3250(2)
C42 C -0.46517(16) 0.13764(15) 0.2890(2)
H26 H -0.4285 0.1406 0.2649
C43 C -0.51991(18) 0.28567(16) 0.4952(3)
C44 C -0.46290(16) 0.29233(15) 0.5403(2)
C45 C -0.44878(15) 0.33893(14) 0.5666(2)
H27 H -0.4765 0.3647 0.5605
C46 C -0.39498(16) 0.35162(15) 0.6028(2)
C47 C -0.38001(16) 0.40525(15) 0.6173(2)
C48 C -0.41623(17) 0.44424(15) 0.5985(2)
H28 H -0.4522 0.4373 0.5734
C49 C -0.40124(18) 0.49439(16) 0.6156(2)
C50 C -0.4386(2) 0.53464(17) 0.5973(3)
H29 H -0.4747 0.5281 0.5722
C51 C -0.4236(3) 0.58208(19) 0.6153(3)
H30 H -0.4494 0.6086 0.6038
C52 C -0.3704(3) 0.59241(19) 0.6508(3)
H31 H -0.3600 0.6261 0.6616
C53 C -0.3332(2) 0.55506(19) 0.6702(3)
H32 H -0.2975 0.5627 0.6956
C54 C -0.34778(19) 0.50465(16) 0.6523(2)
C55 C -0.31099(19) 0.46425(17) 0.6704(3)
H33 H -0.2748 0.4708 0.6951
C56 C -0.32576(18) 0.41643(16) 0.6537(2)
H34 H -0.2998 0.3901 0.6662
C113 C -0.4116(2) 0.1153(2) 0.5260(3)
H67 H -0.4074 0.0938 0.5742
H68 H -0.4049 0.0957 0.4764
H69 H -0.4504 0.1292 0.5243
Pb2C Pb -0.368310(6) 0.268640(6) 0.145960(9)
O3C O -0.30172(11) 0.26522(10) 0.79977(16)
O5C O -0.45397(11) 0.17897(10) 0.67022(16)
O6C O -0.42693(10) 0.27046(9) 0.74247(15)
Pb3 Pb 0.128264(6) 0.206248(6) 0.370474(9)
Pb4 Pb 0.133083(6) 0.264435(6) 0.124321(9)
F13 F 0.32855(10) 0.30290(11) 0.47216(19)
F14 F 0.32667(12) 0.24623(16) 0.38049(19)
F15 F 0.31145(11) 0.22768(10) 0.50419(19)
F16 F 0.28320(15) 0.26390(12) 0.2037(2)
F17 F 0.33587(10) 0.20066(11) 0.19432(19)
F18 F 0.26300(14) 0.20839(17) 0.11822(18)
F19 F -0.10080(12) 0.31779(12) 0.1597(3)
F20 F -0.04487(17) 0.37225(14) 0.2087(2)
F21 F -0.04550(12) 0.35788(12) 0.0835(2)
F22 F -0.05695(13) 0.31455(14) 0.4855(3)
F23 F -0.01137(15) 0.28112(17) 0.3876(2)
F24 F -0.04058(13) 0.23795(13) 0.4866(2)
O9 O 0.20690(11) 0.23204(10) 0.44664(17)
O10 O 0.12993(11) 0.29500(11) 0.35200(18)
O11 O 0.19652(11) 0.21290(10) 0.26410(16)
O12 O 0.18306(12) 0.12702(10) 0.36851(18)
O13 O 0.04735(11) 0.31400(10) 0.15494(16)
O14 O 0.07673(10) 0.21878(10) 0.21510(16)
O15 O 0.06958(11) 0.25077(10) 0.51766(16)
O16 O 0.14523(12) 0.32172(11) 0.58520(18)
O18 O 0.13203(13) 0.15047(12) 0.51983(18)
H2 H 0.158(2) 0.1372(18) 0.506(3)
C57 C 0.30165(18) 0.26196(18) 0.4488(3)
C58 C 0.23767(16) 0.27040(16) 0.4317(2)
C59 C 0.22162(16) 0.31621(15) 0.4010(2)
H35 H 0.2498 0.3418 0.3997
C60 C 0.16563(16) 0.32816(15) 0.3711(2)
C61 C 0.14676(16) 0.38090(15) 0.3608(2)
C62 C 0.17529(16) 0.42041(15) 0.3941(2)
H36 H 0.2106 0.4149 0.4219
C63 C 0.15331(17) 0.46989(15) 0.3881(2)
C64 C 0.1816(2) 0.51119(17) 0.4231(3)
H37 H 0.2167 0.5062 0.4518
C65 C 0.1595(2) 0.55849(18) 0.4166(3)
H38 H 0.1793 0.5859 0.4405
C66 C 0.1072(2) 0.56635(18) 0.3743(3)
H39 H 0.0917 0.5990 0.3699
C67 C 0.0795(2) 0.52694(18) 0.3402(3)
H40 H 0.0444 0.5326 0.3118
C68 C 0.10114(18) 0.47787(16) 0.3455(2)
C69 C 0.07350(18) 0.43676(17) 0.3096(3)
H41 H 0.0390 0.4420 0.2796
C70 C 0.09491(17) 0.38938(16) 0.3167(2)
H42 H 0.0751 0.3621 0.2922
C71 C 0.28263(18) 0.21575(18) 0.1938(3)
C72 C 0.24305(16) 0.18905(16) 0.2542(2)
C73 C 0.26097(16) 0.14387(16) 0.2838(2)
H43 H 0.2980 0.1327 0.2685
C74 C 0.22848(16) 0.11247(15) 0.3357(2)
C75 C 0.24474(16) 0.05901(15) 0.3479(2)
C76 C 0.29389(17) 0.03738(17) 0.3124(3)
H44 H 0.3198 0.0577 0.2827
C77 C 0.30403(19) -0.01228(18) 0.3208(3)
H45 H 0.3376 -0.0260 0.2974
C78 C 0.26652(18) -0.04415(16) 0.3630(3)
C79 C 0.2740(2) -0.09634(18) 0.3690(3)
H46 H 0.3059 -0.1115 0.3430
C80 C 0.2365(2) -0.12573(18) 0.4113(3)
H47 H 0.2422 -0.1608 0.4142
C81 C 0.19015(19) -0.10396(18) 0.4499(3)
H48 H 0.1646 -0.1243 0.4802
C82 C 0.18066(18) -0.05399(17) 0.4451(3)
H49 H 0.1485 -0.0398 0.4717
C83 C 0.21850(17) -0.02255(15) 0.4006(2)
C84 C 0.20886(17) 0.02900(15) 0.3915(2)
H50 H 0.1763 0.0435 0.4165
C85 C -0.04931(19) 0.33571(18) 0.1550(3)
C86 C -0.00165(17) 0.29715(15) 0.1686(2)
C87 C -0.01767(16) 0.25036(15) 0.1978(2)
H51 H -0.0573 0.2425 0.2004
C88 C 0.02217(16) 0.21435(14) 0.2233(2)
C89 C 0.00444(15) 0.16798(14) 0.2663(2)
C90 C -0.04717(16) 0.16452(16) 0.3115(2)
H52 H -0.0730 0.1919 0.3126
C91 C -0.05950(17) 0.12183(17) 0.3533(3)
H53 H -0.0933 0.1206 0.3851
C92 C -0.02373(17) 0.07941(16) 0.3510(2)
C93 C -0.0349(2) 0.03403(18) 0.3921(3)
H54 H -0.0683 0.0315 0.4248
C94 C 0.0003(2) -0.00594(18) 0.3866(3)
H55 H -0.0093 -0.0362 0.4135
C95 C 0.0509(2) -0.00290(16) 0.3411(3)
H56 H 0.0757 -0.0309 0.3379
C96 C 0.06428(18) 0.04036(16) 0.3015(2)
H57 H 0.0989 0.0423 0.2716
C97 C 0.02752(16) 0.08250(15) 0.3043(2)
C98 C 0.04033(16) 0.12738(14) 0.2642(2)
H58 H 0.0750 0.1298 0.2346
C99 C -0.0174(2) 0.28190(19) 0.4670(3)
C100 C 0.03968(17) 0.29054(16) 0.5103(2)
C101 C 0.05284(17) 0.33853(16) 0.5333(2)
H59 H 0.0245 0.3636 0.5258
C102 C 0.10646(19) 0.35274(16) 0.5676(2)
C103 C 0.1208(2) 0.40631(17) 0.5854(3)
C104 C 0.1766(2) 0.41723(19) 0.6173(3)
H60 H 0.2032 0.3907 0.6234
C105 C 0.1932(2) 0.4649(2) 0.6394(3)
H61 H 0.2305 0.4714 0.6602
C106 C 0.1540(2) 0.5020(2) 0.6302(3)
C107 C 0.1711(3) 0.5538(2) 0.6555(3)
H62 H 0.2081 0.5607 0.6773
C108 C 0.1323(3) 0.5898(2) 0.6463(4)
H63 H 0.1424 0.6230 0.6609
C109 C 0.0753(3) 0.5803(2) 0.6149(4)
H64 H 0.0488 0.6071 0.6103
C110 C 0.0588(3) 0.5327(2) 0.5912(3)
H65 H 0.0215 0.5261 0.5704
C111 C 0.0984(2) 0.49559(19) 0.5992(3)
C112 C 0.0819(2) 0.44397(17) 0.5754(3)
H66 H 0.0449 0.4373 0.5536
C114 C 0.0890(2) 0.11257(18) 0.5166(3)
H70 H 0.0913 0.0920 0.5661
H71 H 0.0949 0.0915 0.4683
H72 H 0.0511 0.1282 0.5130
Pb4C Pb 0.133083(6) 0.235565(6) 0.624321(9)
O15C O 0.06958(11) 0.24923(10) 0.01766(16)
O16C O 0.14523(12) 0.17828(11) 0.08520(18)
O18C O 0.13203(13) 0.34953(12) 0.01983(18)
H2C H 0.158(2) 0.3628(18) 0.006(3)
loop_
_geom_bond_atom_site_label_1
_geom_bond_atom_site_label_2
_geom_bond_site_symmetry_1
_geom_bond_site_symmetry_2
Pb1 O1 1_555 1_555
Pb2 O1 1_555 1_555
Pb3 O9 1_555 1_555
Pb4 O11 1_555 1_555
F1 C1 1_555 1_555
F2 C1 1_555 1_555
F3 C1 1_555 1_555
F4 C15 1_555 1_555
F5 C15 1_555 1_555
F6 C15 1_555 1_555
F7 C29 1_555 1_555
F8 C29 1_555 1_555
F9 C29 1_555 1_555
F10 C43 1_555 1_555
F11 C43 1_555 1_555
F12 C43 1_555 1_555
F13 C57 1_555 1_555
F14 C57 1_555 1_555
F15 C57 1_555 1_555
F16 C71 1_555 1_555
F17 C71 1_555 1_555
F18 C71 1_555 1_555
F19 C85 1_555 1_555
F20 C85 1_555 1_555
F21 C85 1_555 1_555
F22 C99 1_555 1_555
F23 C99 1_555 1_555
F24 C99 1_555 1_555
O1 C2 1_555 1_555
O2 Pb1 1_555 1_555
O3 Pb1 1_555 1_555
O4 Pb1 1_555 1_555
O5 C30 1_555 1_555
O6 Pb1 1_555 1_555
O7 Pb1 1_555 1_555
O8 Pb2 1_555 1_555
O9 C58 1_555 1_555
O10 Pb3 1_555 1_555
O11 Pb3 1_555 1_555
O12 Pb3 1_555 1_555
O13 Pb4 1_555 1_555
O14 Pb3 1_555 1_555
O15 Pb3 1_555 1_555
O16 C102 1_555 1_555
O17 Pb1 1_555 1_555
H1 O17 1_555 1_555
O18 Pb3 1_555 1_555
H2 O18 1_555 1_555
C1 C2 1_555 1_555
C2 C3 1_555 1_555
C3 H3 1_555 1_555
C4 O2 1_555 1_555
C5 C4 1_555 1_555
C6 C5 1_555 1_555
H4 C6 1_555 1_555
C7 C6 1_555 1_555
H5 C7 1_555 1_555
C8 C7 1_555 1_555
C9 C8 1_555 1_555
H6 C9 1_555 1_555
C10 C9 1_555 1_555
H7 C10 1_555 1_555
C11 C10 1_555 1_555
H8 C11 1_555 1_555
C12 C11 1_555 1_555
H9 C12 1_555 1_555
C13 C8 1_555 1_555
C14 C5 1_555 1_555
H10 C14 1_555 1_555
C15 C16 1_555 1_555
C16 O3 1_555 1_555
C17 C16 1_555 1_555
H11 C17 1_555 1_555
C18 O4 1_555 1_555
C19 C18 1_555 1_555
C20 C19 1_555 1_555
H12 C20 1_555 1_555
C21 C20 1_555 1_555
H13 C21 1_555 1_555
C22 C21 1_555 1_555
C23 C22 1_555 1_555
H14 C23 1_555 1_555
C24 C23 1_555 1_555
H15 C24 1_555 1_555
C25 C24 1_555 1_555
H16 C25 1_555 1_555
C26 C25 1_555 1_555
H17 C26 1_555 1_555
C27 C22 1_555 1_555
C28 C19 1_555 1_555
H18 C28 1_555 1_555
C29 C30 1_555 1_555
C30 C31 1_555 1_555
C31 H19 1_555 1_555
C32 O6 1_555 1_555
C33 C32 1_555 1_555
C34 C33 1_555 1_555
H20 C34 1_555 1_555
C35 C34 1_555 1_555
H21 C35 1_555 1_555
C36 C35 1_555 1_555
C37 C36 1_555 1_555
H22 C37 1_555 1_555
C38 C37 1_555 1_555
H23 C38 1_555 1_555
C39 C38 1_555 1_555
H24 C39 1_555 1_555
C40 C39 1_555 1_555
H25 C40 1_555 1_555
C41 C36 1_555 1_555
C42 C33 1_555 1_555
H26 C42 1_555 1_555
C43 C44 1_555 1_555
C44 O7 1_555 1_555
C45 C44 1_555 1_555
H27 C45 1_555 1_555
C46 O8 1_555 1_555
C47 C46 1_555 1_555
C48 C47 1_555 1_555
H28 C48 1_555 1_555
C49 C48 1_555 1_555
C50 C49 1_555 1_555
H29 C50 1_555 1_555
C51 C50 1_555 1_555
H30 C51 1_555 1_555
C52 C51 1_555 1_555
H31 C52 1_555 1_555
C53 C52 1_555 1_555
H32 C53 1_555 1_555
C54 C49 1_555 1_555
C55 C54 1_555 1_555
H33 C55 1_555 1_555
C56 C47 1_555 1_555
H34 C56 1_555 1_555
C57 C58 1_555 1_555
C58 C59 1_555 1_555
C59 H35 1_555 1_555
C60 O10 1_555 1_555
C61 C60 1_555 1_555
C62 C61 1_555 1_555
H36 C62 1_555 1_555
C63 C62 1_555 1_555
C64 C63 1_555 1_555
H37 C64 1_555 1_555
C65 C64 1_555 1_555
H38 C65 1_555 1_555
C66 C65 1_555 1_555
H39 C66 1_555 1_555
C67 C66 1_555 1_555
H40 C67 1_555 1_555
C68 C63 1_555 1_555
C69 C68 1_555 1_555
H41 C69 1_555 1_555
C70 C61 1_555 1_555
H42 C70 1_555 1_555
C71 C72 1_555 1_555
C72 O11 1_555 1_555
C73 C72 1_555 1_555
H43 C73 1_555 1_555
C74 O12 1_555 1_555
C75 C74 1_555 1_555
C76 C75 1_555 1_555
H44 C76 1_555 1_555
C77 C76 1_555 1_555
H45 C77 1_555 1_555
C78 C77 1_555 1_555
C79 C78 1_555 1_555
H46 C79 1_555 1_555
C80 C79 1_555 1_555
H47 C80 1_555 1_555
C81 C80 1_555 1_555
H48 C81 1_555 1_555
C82 C81 1_555 1_555
H49 C82 1_555 1_555
C83 C78 1_555 1_555
C84 C75 1_555 1_555
H50 C84 1_555 1_555
C85 C86 1_555 1_555
C86 O13 1_555 1_555
C87 C86 1_555 1_555
H51 C87 1_555 1_555
C88 O14 1_555 1_555
C89 C88 1_555 1_555
C90 C89 1_555 1_555
H52 C90 1_555 1_555
C91 C90 1_555 1_555
H53 C91 1_555 1_555
C92 C91 1_555 1_555
C93 C92 1_555 1_555
H54 C93 1_555 1_555
C94 C93 1_555 1_555
H55 C94 1_555 1_555
C95 C94 1_555 1_555
H56 C95 1_555 1_555
C96 C95 1_555 1_555
H57 C96 1_555 1_555
C97 C92 1_555 1_555
C98 C89 1_555 1_555
H58 C98 1_555 1_555
C99 C100 1_555 1_555
C100 O15 1_555 1_555
C101 C100 1_555 1_555
H59 C101 1_555 1_555
C102 C101 1_555 1_555
C103 C102 1_555 1_555
C104 C103 1_555 1_555
H60 C104 1_555 1_555
C105 C104 1_555 1_555
H61 C105 1_555 1_555
C106 C105 1_555 1_555
C107 C106 1_555 1_555
H62 C107 1_555 1_555
C108 C107 1_555 1_555
H63 C108 1_555 1_555
C109 C108 1_555 1_555
H64 C109 1_555 1_555
C110 C109 1_555 1_555
H65 C110 1_555 1_555
C111 C106 1_555 1_555
C112 C103 1_555 1_555
H66 C112 1_555 1_555
C113 O17 1_555 1_555
H67 C113 1_555 1_555
H68 C113 1_555 1_555
H69 C113 1_555 1_555
C114 O18 1_555 1_555
H70 C114 1_555 1_555
H71 C114 1_555 1_555
H72 C114 1_555 1_555
Pb2C O3 1_555 1_555
Pb4C O15 1_555 1_555
O3C Pb2 1_555 1_555
O5C Pb2 1_555 1_555
O6C Pb2 1_555 1_555
O15C Pb4 1_555 1_555
O16C Pb4 1_555 1_555
O18C Pb4 1_555 1_555
H2C O18C 1_555 1_555
Pb2 O7 1_555 1_555
Pb2 O17 1_555 1_555
Pb4 O14 1_555 1_555
O5 Pb2C 1_555 1_555
O6 Pb2C 1_555 1_555
O16 Pb4C 1_555 1_555
O18 Pb4C 1_555 1_555
C3 C4 1_555 1_555
C12 C13 1_555 1_555
C13 C14 1_555 1_555
C17 C18 1_555 1_555
C26 C27 1_555 1_555
C27 C28 1_555 1_555
C31 C32 1_555 1_555
C40 C41 1_555 1_555
C41 C42 1_555 1_555
C45 C46 1_555 1_555
C53 C54 1_555 1_555
C55 C56 1_555 1_555
C59 C60 1_555 1_555
C67 C68 1_555 1_555
C69 C70 1_555 1_555
C73 C74 1_555 1_555
C82 C83 1_555 1_555
C83 C84 1_555 1_555
C87 C88 1_555 1_555
C96 C97 1_555 1_555
C97 C98 1_555 1_555
C110 C111 1_555 1_555
C111 C112 1_555 1_555

#END
