
#######################################################################
#
#                 Cambridge Crystallographic Data Centre
#                                CCDC 
#
#######################################################################
#
# If this CIF has been generated from an entry in the Cambridge 
# Structural Database, then it will include bibliographic, chemical, 
# crystal, experimental, refinement or atomic coordinate data resulting 
# from the CCDC's data processing and validation procedures.
#
#######################################################################

data_TUGGOS
_symmetry_cell_setting           triclinic
_symmetry_space_group_name_H-M   'P -1'
_symmetry_Int_Tables_number      2
_space_group_name_Hall           '-P 1'
loop_
_symmetry_equiv_pos_site_id
_symmetry_equiv_pos_as_xyz
1 x,y,z
2 -x,-y,-z
_cell_length_a                   6.7962(8)
_cell_length_b                   11.8464(13)
_cell_length_c                   11.9762(10)
_cell_angle_alpha                94.311(3)
_cell_angle_beta                 101.151(4)
_cell_angle_gamma                101.558(5)
_cell_volume                     920.292
loop_
_atom_site_label
_atom_site_type_symbol
_atom_site_fract_x
_atom_site_fract_y
_atom_site_fract_z
Pr1 Pr 0.18297(3) 0.187602(18) 0.690167(16)
O1 O 0.3276(6) 0.0383(4) 0.5919(3)
H1 H 0.412(8) 0.007(5) 0.628(5)
H2 H 0.251(8) -0.013(5) 0.544(5)
O2 O -0.0888(5) -0.0002(3) 0.6358(3)
H3 H -0.180(8) -0.020(5) 0.672(5)
H4 H -0.063(9) -0.068(4) 0.623(5)
O5 O -0.1615(4) 0.2416(3) 0.6639(2)
O6 O -0.4425(4) 0.2581(3) 0.7248(3)
O7 O 0.3149(5) 0.0782(3) 0.8466(2)
O8 O 0.3731(5) 0.0528(3) 1.0297(3)
O9 O -0.1918(6) 0.2422(4) 1.1542(3)
H7 H -0.0936 0.2617 1.2087
O10 O 0.2979(5) 0.3535(3) 0.8445(2)
O11 O 0.4692(6) 0.5348(3) 0.9053(3)
O12 O 0.0934(5) 0.2040(3) 0.4821(2)
O13 O 0.1109(6) 0.3039(3) 0.3323(2)
O14 O 0.3684(5) 0.7235(3) 0.5406(3)
H8 H 0.3005 0.7275 0.4771
N1 N -0.0060(5) 0.1651(3) 0.8561(3)
N2 N 0.2503(5) 0.3912(3) 0.6280(3)
C1 C -0.1667(6) 0.2135(4) 0.8569(3)
C2 C -0.2332(6) 0.2402(4) 0.9551(4)
H9 H -0.3474 0.2728 0.9523
C3 C -0.1248(7) 0.2170(5) 1.0587(4)
C4 C 0.0446(6) 0.1676(4) 1.0599(4)
H10 H 0.1204 0.1518 1.1281
C5 C 0.0963(6) 0.1426(4) 0.9560(3)
C6 C -0.2687(6) 0.2392(4) 0.7405(3)
C7 C 0.2737(6) 0.0870(4) 0.9428(4)
C8 C 0.3306(6) 0.4840(4) 0.7060(3)
C9 C 0.3740(7) 0.5943(4) 0.6793(4)
H11 H 0.4323 0.6562 0.7364
C10 C 0.3295(6) 0.6127(4) 0.5649(3)
C11 C 0.2504(6) 0.5174(4) 0.4819(3)
H12 H 0.2225 0.5268 0.4044
C12 C 0.2150(6) 0.4095(4) 0.5173(3)
C13 C 0.3692(7) 0.4533(4) 0.8282(3)
C14 C 0.1313(6) 0.2967(4) 0.4363(3)
Pr1_2 Pr -0.81703(3) 0.187602(18) 0.690167(16)
O6_2 O 0.5575(4) 0.2581(3) 0.7248(3)
O3 O 0.5671(6) -0.0852(3) 0.7214(3)
H5 H 0.497(9) -0.154(4) 0.689(5)
H6 H 0.529(10) -0.089(5) 0.785(4)
O4 O 0.091(3) 0.4955(15) 0.159(2)
loop_
_geom_bond_atom_site_label_1
_geom_bond_atom_site_label_2
_geom_bond_site_symmetry_1
_geom_bond_site_symmetry_2
Pr1 O1 1_555 1_555
O1 H1 1_555 1_555
H2 O1 1_555 1_555
O2 Pr1 1_555 1_555
H3 O2 1_555 1_555
H4 O2 1_555 1_555
O3 H5 1_555 1_555
H6 O3 1_555 1_555
O5 Pr1 1_555 1_555
O6 C6 1_555 1_555
O7 Pr1 1_555 1_555
O8 C7 1_555 1_555
O9 H7 1_555 1_555
O10 Pr1 1_555 1_555
O11 C13 1_555 1_555
O12 Pr1 1_555 1_555
O13 C14 1_555 1_555
O14 H8 1_555 1_555
N1 Pr1 1_555 1_555
N2 Pr1 1_555 1_555
C1 N1 1_555 1_555
C2 C1 1_555 1_555
H9 C2 1_555 1_555
C3 O9 1_555 1_555
C4 C3 1_555 1_555
H10 C4 1_555 1_555
C5 N1 1_555 1_555
C6 O5 1_555 1_555
C7 O7 1_555 1_555
C8 N2 1_555 1_555
C9 C8 1_555 1_555
H11 C9 1_555 1_555
C10 O14 1_555 1_555
C11 C10 1_555 1_555
H12 C11 1_555 1_555
C12 N2 1_555 1_555
C13 O10 1_555 1_555
C14 O12 1_555 1_555
Pr1_2 O6 1_555 1_555
O6_2 Pr1 1_555 1_555
C1 C6 1_555 1_555
C2 C3 1_555 1_555
C4 C5 1_555 1_555
C5 C7 1_555 1_555
C8 C13 1_555 1_555
C9 C10 1_555 1_555
C11 C12 1_555 1_555
C12 C14 1_555 1_555

#END
