
#######################################################################
#
#                 Cambridge Crystallographic Data Centre
#                                CCDC 
#
#######################################################################
#
# If this CIF has been generated from an entry in the Cambridge 
# Structural Database, then it will include bibliographic, chemical, 
# crystal, experimental, refinement or atomic coordinate data resulting 
# from the CCDC's data processing and validation procedures.
#
#######################################################################

data_TUHCAC
_symmetry_cell_setting           triclinic
_symmetry_space_group_name_H-M   'P -1'
_symmetry_Int_Tables_number      2
_space_group_name_Hall           '-P 1'
loop_
_symmetry_equiv_pos_site_id
_symmetry_equiv_pos_as_xyz
1 x,y,z
2 -x,-y,-z
_cell_length_a                   10.433(4)
_cell_length_b                   12.249(5)
_cell_length_c                   12.591(5)
_cell_angle_alpha                63.977(4)
_cell_angle_beta                 67.941(5)
_cell_angle_gamma                89.447(5)
_cell_volume                     1316.63
loop_
_atom_site_label
_atom_site_type_symbol
_atom_site_fract_x
_atom_site_fract_y
_atom_site_fract_z
Zn1 Zn 0.11603(5) 0.29434(4) 0.05566(4)
N1 N 0.1385(3) 0.1404(3) 0.1982(3)
O1 O 0.1987(3) 0.4393(2) 0.0575(3)
N2 N 0.2450(3) 0.0184(3) 0.3151(3)
O2 O -0.0077(3) 0.3633(3) 0.2209(3)
N3 N 0.5997(3) -0.2406(3) 0.2572(3)
C1 C 0.1040(4) 0.4416(3) 0.1544(4)
C2 C 0.1069(4) -0.0411(3) 0.3738(4)
C3 C 0.0402(4) 0.0358(3) 0.3009(4)
C4 C 0.2590(4) 0.1269(4) 0.2105(4)
C5 C 0.1352(4) 0.5371(3) 0.1915(4)
H1 H 0.2016 0.5069 0.2313
C6 C -0.1023(4) 0.0028(4) 0.3363(4)
H2 H -0.1480 0.0529 0.2875
C7 C 0.6061(4) -0.3885(3) 0.2007(4)
C8 C 0.2127(4) 0.6625(3) 0.0736(4)
H3 H 0.3003 0.6490 0.0189
C9 C 0.0359(5) -0.1522(3) 0.4859(4)
H4 H 0.0817 -0.2025 0.5345
C10 C 0.3578(4) -0.0329(4) 0.3524(4)
H5 H 0.3191 -0.0881 0.4451
H6 H 0.4265 0.0335 0.3330
C11 C 0.5284(4) -0.3556(4) 0.2961(4)
C12 C 0.7148(4) -0.2089(4) 0.1443(4)
C13 C 0.5615(5) -0.5010(4) 0.2107(4)
H7 H 0.6107 -0.5243 0.1477
C14 C -0.1044(5) -0.1834(4) 0.5205(4)
H8 H -0.1555 -0.2569 0.5948
C15 C 0.2533(4) 0.7500(4) 0.1170(4)
H9 H 0.3202 0.7182 0.1545
H10 H 0.2987 0.8303 0.0422
C16 C 0.4062(4) -0.4315(4) 0.4027(4)
H11 H 0.3540 -0.4082 0.4649
C17 C 0.5452(4) -0.1623(4) 0.3191(4)
H12 H 0.6209 -0.0980 0.2927
H13 H 0.5074 -0.2118 0.4127
C18 C 0.0092(5) 0.5489(4) 0.2945(4)
H14 H -0.0318 0.4685 0.3704
H15 H -0.0616 0.5773 0.2613
C19 C 0.4296(5) -0.1038(4) 0.2792(4)
H16 H 0.3598 -0.1681 0.2964
H17 H 0.4703 -0.0477 0.1867
C20 C 0.3668(5) -0.5423(4) 0.4112(5)
H18 H 0.2870 -0.5966 0.4822
C21 C 0.1272(5) 0.7641(4) 0.2150(5)
H19 H 0.0626 0.8002 0.1762
H20 H 0.1566 0.8195 0.2413
C22 C -0.1734(5) -0.1077(4) 0.4473(4)
H21 H -0.2691 -0.1323 0.4738
C23 C 0.4420(5) -0.5757(4) 0.3176(5)
H22 H 0.4107 -0.6516 0.3271
C24 C 0.8177(5) -0.0915(4) 0.0724(5)
H23 H 0.8973 -0.0942 0.0039
H24 H 0.8484 -0.0806 0.1307
H25 H 0.7741 -0.0237 0.0362
C25 C 0.0532(5) 0.6400(4) 0.3329(4)
H26 H -0.0295 0.6507 0.3940
H27 H 0.1156 0.6068 0.3754
C26 C 0.3923(5) 0.2185(4) 0.1259(5)
H28 H 0.4469 0.2013 0.0563
H29 H 0.4447 0.2135 0.1758
H30 H 0.3716 0.3002 0.0907
C27 C 0.1339(6) 0.7235(4) -0.0102(4)
O3 O 0.0187(4) 0.6622(3) 0.0193(3)
O4 O 0.1843(6) 0.8276(3) -0.1013(4)
N4 N 0.7228(3) -0.2955(3) 0.1071(3)
Zn1A Zn -0.11603(5) 0.70566(4) -0.05566(4)
Zn1A_2 Zn 0.88397(5) -0.29434(4) -0.05566(4)
O3A O -0.0187(4) 0.3378(3) -0.0193(3)
N4A N 0.2772(3) 0.2955(3) -0.1071(3)
loop_
_geom_bond_atom_site_label_1
_geom_bond_atom_site_label_2
_geom_bond_site_symmetry_1
_geom_bond_site_symmetry_2
Zn1 N1 1_555 1_555
N1 C3 1_555 1_555
O1 Zn1 1_555 1_555
N2 C2 1_555 1_555
O2 Zn1 1_555 1_555
N3 C11 1_555 1_555
C1 O1 1_555 1_555
C2 C3 1_555 1_555
C3 C6 1_555 1_555
C4 N1 1_555 1_555
C5 C1 1_555 1_555
H1 C5 1_555 1_555
C6 H2 1_555 1_555
C7 C11 1_555 1_555
C8 C5 1_555 1_555
H3 C8 1_555 1_555
C9 C2 1_555 1_555
H4 C9 1_555 1_555
C10 N2 1_555 1_555
H5 C10 1_555 1_555
H6 C10 1_555 1_555
C11 C16 1_555 1_555
C12 N3 1_555 1_555
C13 C7 1_555 1_555
H7 C13 1_555 1_555
C14 C9 1_555 1_555
H8 C14 1_555 1_555
C15 C8 1_555 1_555
H9 C15 1_555 1_555
H10 C15 1_555 1_555
C16 H11 1_555 1_555
C17 N3 1_555 1_555
H12 C17 1_555 1_555
H13 C17 1_555 1_555
C18 C5 1_555 1_555
H14 C18 1_555 1_555
H15 C18 1_555 1_555
C19 C10 1_555 1_555
H16 C19 1_555 1_555
H17 C19 1_555 1_555
C20 C16 1_555 1_555
H18 C20 1_555 1_555
C21 C15 1_555 1_555
H19 C21 1_555 1_555
H20 C21 1_555 1_555
C22 C6 1_555 1_555
H21 C22 1_555 1_555
C23 C13 1_555 1_555
H22 C23 1_555 1_555
C24 C12 1_555 1_555
H23 C24 1_555 1_555
H24 C24 1_555 1_555
H25 C24 1_555 1_555
C25 C18 1_555 1_555
H26 C25 1_555 1_555
H27 C25 1_555 1_555
C26 C4 1_555 1_555
H28 C26 1_555 1_555
H29 C26 1_555 1_555
H30 C26 1_555 1_555
C27 C8 1_555 1_555
O3 C27 1_555 1_555
O4 C27 1_555 1_555
N4 C7 1_555 1_555
Zn1A O3 1_555 1_555
Zn1A_2 N4 1_555 1_555
O3A Zn1 1_555 1_555
N4A Zn1 1_555 1_555
N2 C4 1_555 1_555
O2 C1 1_555 1_555
C12 N4 1_555 1_555
C14 C22 1_555 1_555
C17 C19 1_555 1_555
C20 C23 1_555 1_555
C21 C25 1_555 1_555

#END
