
#######################################################################
#
#                 Cambridge Crystallographic Data Centre
#                                CCDC 
#
#######################################################################
#
# If this CIF has been generated from an entry in the Cambridge 
# Structural Database, then it will include bibliographic, chemical, 
# crystal, experimental, refinement or atomic coordinate data resulting 
# from the CCDC's data processing and validation procedures.
#
#######################################################################

data_TUHFUY
_symmetry_cell_setting           triclinic
_symmetry_space_group_name_H-M   'P -1'
_symmetry_Int_Tables_number      2
_space_group_name_Hall           '-P 1'
loop_
_symmetry_equiv_pos_site_id
_symmetry_equiv_pos_as_xyz
1 x,y,z
2 -x,-y,-z
_cell_length_a                   9.900(3)
_cell_length_b                   11.3155(18)
_cell_length_c                   14.205(3)
_cell_angle_alpha                67.776(14)
_cell_angle_beta                 79.95(2)
_cell_angle_gamma                69.534(18)
_cell_volume                     1378.46
loop_
_atom_site_label
_atom_site_type_symbol
_atom_site_fract_x
_atom_site_fract_y
_atom_site_fract_z
Cd1 Cd 0.48948(3) 0.32559(3) 0.59410(2)
C1 C 0.7718(5) 0.1629(4) 0.4790(3)
H1 H 0.8256 0.1800 0.5170
C2 C 0.8441(5) 0.1046(5) 0.4061(4)
H2 H 0.9441 0.0821 0.3969
C3 C 0.7664(6) 0.0811(4) 0.3487(3)
H3 H 0.8131 0.0436 0.2991
C4 C 0.6161(5) 0.1134(4) 0.3644(3)
C5 C 0.5267(6) 0.0957(5) 0.3053(3)
H4 H 0.5690 0.0593 0.2545
C6 C 0.3822(6) 0.1308(5) 0.3218(3)
H5 H 0.3264 0.1190 0.2819
C7 C 0.3136(5) 0.1856(4) 0.3996(3)
C8 C 0.1632(5) 0.2281(5) 0.4175(4)
H6 H 0.1040 0.2201 0.3775
C9 C 0.1026(5) 0.2807(5) 0.4924(4)
H7 H 0.0031 0.3082 0.5046
C10 C 0.1938(5) 0.2921(5) 0.5497(3)
H8 H 0.1526 0.3277 0.6011
C11 C 0.3973(4) 0.2035(4) 0.4605(3)
C12 C 0.5514(4) 0.1690(4) 0.4415(3)
C13 C 1.2847(4) -0.5023(4) 0.7259(3)
C14 C 1.1428(4) -0.4556(3) 0.7795(3)
C15 C 1.0279(4) -0.4927(4) 0.7724(3)
H9 H 1.0398 -0.5456 0.7330
C16 C 0.8930(4) -0.4539(4) 0.8223(3)
C17 C 0.7775(4) -0.4935(4) 0.8132(3)
H10 H 0.7892 -0.5416 0.7702
C18 C 0.6486(5) -0.4629(4) 0.8659(4)
H11 H 0.5740 -0.4920 0.8610
C19 C 0.6313(5) -0.3868(4) 0.9276(4)
H12 H 0.5436 -0.3651 0.9635
C20 C 0.7401(4) -0.3429(4) 0.9368(3)
H13 H 0.7245 -0.2924 0.9786
C21 C 0.8764(4) -0.3737(3) 0.8833(3)
C22 C 0.9937(4) -0.3320(3) 0.8899(3)
C23 C 1.1230(4) -0.3738(3) 0.8391(3)
C24 C 0.9856(4) -0.2506(4) 0.9564(3)
H14 H 1.0622 -0.3003 1.0039
H15 H 0.8945 -0.2422 0.9958
C25 C 0.9982(4) -0.1101(3) 0.8986(3)
C26 C 1.1147(4) -0.0710(4) 0.9102(3)
C27 C 1.2304(4) -0.1570(4) 0.9756(3)
H16 H 1.2322 -0.2449 1.0136
C28 C 1.3386(5) -0.1131(5) 0.9836(3)
H17 H 1.4115 -0.1715 1.0280
C29 C 1.3429(5) 0.0179(5) 0.9268(3)
H18 H 1.4187 0.0452 0.9322
C30 C 1.2346(4) 0.1039(4) 0.8638(3)
H19 H 1.2362 0.1910 0.8264
C31 C 1.1189(4) 0.0631(4) 0.8542(3)
C32 C 1.0066(4) 0.1528(4) 0.7891(3)
H20 H 1.0097 0.2394 0.7515
C33 C 0.8928(4) 0.1165(4) 0.7794(3)
C34 C 0.8879(4) -0.0166(4) 0.8370(3)
C35 C 0.7784(4) 0.2191(4) 0.7080(3)
N1 N 0.6296(3) 0.1950(3) 0.4964(2)
N2 N 0.3366(3) 0.2554(3) 0.5358(2)
O1 O 0.5680(3) 0.5029(3) 0.57800(19)
H21 H 0.6413 0.5152 0.5393
H22 H 0.5234 0.5557 0.6108
O2 O 0.7731(3) -0.0526(3) 0.8318(2)
H23 H 0.7135 0.0125 0.7954
O3 O 0.6600(3) 0.1930(3) 0.7133(2)
O4 O 0.8045(3) 0.3220(3) 0.6475(2)
O5 O 1.2344(3) -0.3355(3) 0.8492(2)
H24 H 1.3051 -0.3637 0.8148
O6 O 1.3845(3) -0.4583(3) 0.7269(2)
O7 O 1.2962(3) -0.5844(3) 0.6819(2)
Cd1A Cd 0.51052(3) 0.67441(3) 0.40590(2)
Cd1_2 Cd 1.48948(3) -0.67441(3) 0.59410(2)
O1A O 0.4320(3) 0.4971(3) 0.42200(19)
H21A H 0.3587 0.4848 0.4607
H22A H 0.4766 0.4443 0.3892
O7_2 O 0.2962(3) 0.4156(3) 0.6819(2)
loop_
_geom_bond_atom_site_label_1
_geom_bond_atom_site_label_2
_geom_bond_site_symmetry_1
_geom_bond_site_symmetry_2
Cd1 N1 1_555 1_555
C1 H1 1_555 1_555
C2 C1 1_555 1_555
H2 C2 1_555 1_555
C3 C2 1_555 1_555
H3 C3 1_555 1_555
C4 C3 1_555 1_555
C5 C4 1_555 1_555
H4 C5 1_555 1_555
C6 C5 1_555 1_555
H5 C6 1_555 1_555
C7 C6 1_555 1_555
C8 C7 1_555 1_555
H6 C8 1_555 1_555
C9 C8 1_555 1_555
H7 C9 1_555 1_555
C10 C9 1_555 1_555
H8 C10 1_555 1_555
C11 C7 1_555 1_555
C12 C4 1_555 1_555
C13 C14 1_555 1_555
C14 C15 1_555 1_555
C15 H9 1_555 1_555
C16 C15 1_555 1_555
C17 C16 1_555 1_555
H10 C17 1_555 1_555
C18 C17 1_555 1_555
H11 C18 1_555 1_555
C19 C18 1_555 1_555
H12 C19 1_555 1_555
C20 C19 1_555 1_555
H13 C20 1_555 1_555
C21 C16 1_555 1_555
C22 C21 1_555 1_555
C23 C14 1_555 1_555
C24 C22 1_555 1_555
H14 C24 1_555 1_555
H15 C24 1_555 1_555
C25 C24 1_555 1_555
C26 C25 1_555 1_555
C27 C26 1_555 1_555
H16 C27 1_555 1_555
C28 C27 1_555 1_555
H17 C28 1_555 1_555
C29 C28 1_555 1_555
H18 C29 1_555 1_555
C30 C29 1_555 1_555
H19 C30 1_555 1_555
C31 C26 1_555 1_555
C32 C31 1_555 1_555
H20 C32 1_555 1_555
C33 C32 1_555 1_555
C34 C25 1_555 1_555
C35 C33 1_555 1_555
N1 C1 1_555 1_555
N2 Cd1 1_555 1_555
O1 Cd1 1_555 1_555
H21 O1 1_555 1_555
H22 O1 1_555 1_555
O2 C34 1_555 1_555
H23 O2 1_555 1_555
O3 Cd1 1_555 1_555
O4 C35 1_555 1_555
O5 C23 1_555 1_555
H24 O5 1_555 1_555
O6 C13 1_555 1_555
O7 C13 1_555 1_555
Cd1A O1 1_555 1_555
Cd1_2 O7 1_555 1_555
O1A Cd1 1_555 1_555
H21A O1A 1_555 1_555
H22A O1A 1_555 1_555
O7_2 Cd1 1_555 1_555
C10 N2 1_555 1_555
C11 C12 1_555 1_555
C11 N2 1_555 1_555
C12 N1 1_555 1_555
C20 C21 1_555 1_555
C22 C23 1_555 1_555
C30 C31 1_555 1_555
C33 C34 1_555 1_555
C35 O3 1_555 1_555
Cd1A O1A 1_555 1_555

#END
