
#######################################################################
#
#                 Cambridge Crystallographic Data Centre
#                                CCDC 
#
#######################################################################
#
# If this CIF has been generated from an entry in the Cambridge 
# Structural Database, then it will include bibliographic, chemical, 
# crystal, experimental, refinement or atomic coordinate data resulting 
# from the CCDC's data processing and validation procedures.
#
#######################################################################

data_TUHGOS
_symmetry_cell_setting           monoclinic
_symmetry_space_group_name_H-M   'C 2/c'
_symmetry_Int_Tables_number      15
_space_group_name_Hall           '-C 2yn'
loop_
_symmetry_equiv_pos_site_id
_symmetry_equiv_pos_as_xyz
1 x,y,z
2 -x,y,1/2-z
3 1/2+x,1/2+y,z
4 1/2-x,1/2+y,1/2-z
5 -x,-y,-z
6 x,-y,1/2+z
7 1/2-x,1/2-y,-z
8 1/2+x,1/2-y,1/2+z
_cell_length_a                   18.268(4)
_cell_length_b                   5.938(3)
_cell_length_c                   19.166(5)
_cell_angle_alpha                90
_cell_angle_beta                 109.08(2)
_cell_angle_gamma                90
_cell_volume                     1964.82
loop_
_atom_site_label
_atom_site_type_symbol
_atom_site_fract_x
_atom_site_fract_y
_atom_site_fract_z
Cu1 Cu 0.5000 0.0702(1) 0.2500
Br1 Br 0.3699(1) -0.0136(1) 0.1581(1)
O1 O 0.4554(1) 0.0802(4) 0.3283(1)
O2 O 0.4497(2) -0.2924(4) 0.3442(1)
N1 N 0.3274(1) 0.0726(4) 0.3921(1)
C1 C 0.4388(2) -0.0946(5) 0.3577(2)
C2 C 0.4050(2) -0.0519(5) 0.4203(2)
C3 C 0.4633(2) 0.0716(5) 0.4848(2)
C4 C 0.2777(2) -0.0309(6) 0.3208(2)
C5 C 0.3363(2) 0.3183(6) 0.3798(2)
C6 C 0.2848(2) 0.0436(7) 0.4465(2)
O3 O 0.5000 0.4372(5) 0.2500
H1 H 0.3953 -0.1960 0.4382
H2 H 0.4763 0.2136 0.4679
H3 H 0.4409 0.0968 0.5230
H4 H 0.2745 -0.1904 0.3275
H5 H 0.3004 -0.0029 0.2829
H6 H 0.2267 0.0331 0.3065
H7 H 0.3641 0.3892 0.4259
H8 H 0.3643 0.3376 0.3457
H9 H 0.2860 0.3858 0.3598
H10 H 0.2804 -0.1137 0.4560
H11 H 0.2340 0.1083 0.4268
H12 H 0.3129 0.1188 0.4916
H13 H 0.4801 0.5135 0.2749
Br1A Br 0.6301(1) -0.0136(1) 0.3419(1)
C3D C 0.5367(2) -0.0716(5) 0.5152(2)
C2D C 0.5950(2) 0.0519(5) 0.5797(2)
N1D N 0.6726(1) -0.0726(4) 0.6079(1)
C4D C 0.7223(2) 0.0309(6) 0.6792(2)
H4D H 0.7255 0.1904 0.6725
H5D H 0.6996 0.0029 0.7171
H6D H 0.7733 -0.0331 0.6935
C5D C 0.6637(2) -0.3183(6) 0.6202(2)
H7D H 0.6359 -0.3892 0.5741
H8D H 0.6357 -0.3376 0.6543
H9D H 0.7140 -0.3858 0.6402
C6D C 0.7152(2) -0.0436(7) 0.5535(2)
H10D H 0.7196 0.1137 0.5440
H11D H 0.7660 -0.1083 0.5732
H12D H 0.6871 -0.1188 0.5084
C1D C 0.5612(2) 0.0946(5) 0.6423(2)
O1D O 0.5446(1) -0.0802(4) 0.6717(1)
Cu1D Cu 0.5000 -0.0702(1) 0.7500
O2D O 0.5503(2) 0.2924(4) 0.6558(1)
H1D H 0.6047 0.1960 0.5618
H2D H 0.5237 -0.2136 0.5321
H3D H 0.5591 -0.0968 0.4770
O1A O 0.5446(1) 0.0802(4) 0.1717(1)
H13A H 0.5199 0.5135 0.2251
O4 O 0.4018(2) 0.4403(5) 0.0579(2)
H14 H 0.4327 0.5340 0.0944
H15 H 0.4037 0.3237 0.0912
loop_
_geom_bond_atom_site_label_1
_geom_bond_atom_site_label_2
_geom_bond_site_symmetry_1
_geom_bond_site_symmetry_2
Cu1 Br1 1_555 1_555
O1 Cu1 1_555 1_555
O2 C1 1_555 1_555
N1 C2 1_555 1_555
C1 O1 1_555 1_555
C2 C1 1_555 1_555
C3 C2 1_555 1_555
C4 N1 1_555 1_555
C5 N1 1_555 1_555
C6 N1 1_555 1_555
O3 Cu1 1_555 1_555
H1 C2 1_555 1_555
H2 C3 1_555 1_555
H3 C3 1_555 1_555
H4 C4 1_555 1_555
H5 C4 1_555 1_555
H6 C4 1_555 1_555
H7 C5 1_555 1_555
H8 C5 1_555 1_555
H9 C5 1_555 1_555
H10 C6 1_555 1_555
H11 C6 1_555 1_555
H12 C6 1_555 1_555
H13 O3 1_555 1_555
O4 H14 1_555 1_555
H15 O4 1_555 1_555
Br1A Cu1 1_555 1_555
C3D C3 1_555 1_555
C2D C3D 1_555 1_555
N1D C2D 1_555 1_555
C4D N1D 1_555 1_555
H4D C4D 1_555 1_555
H5D C4D 1_555 1_555
H6D C4D 1_555 1_555
C5D N1D 1_555 1_555
H7D C5D 1_555 1_555
H8D C5D 1_555 1_555
H9D C5D 1_555 1_555
C6D N1D 1_555 1_555
H10D C6D 1_555 1_555
H11D C6D 1_555 1_555
H12D C6D 1_555 1_555
C1D C2D 1_555 1_555
O1D C1D 1_555 1_555
Cu1D O1D 1_555 1_555
O2D C1D 1_555 1_555
H1D C2D 1_555 1_555
H2D C3D 1_555 1_555
H3D C3D 1_555 1_555
O1A Cu1 1_555 1_555
H13A O3 1_555 1_555

#END
