
#######################################################################
#
#                 Cambridge Crystallographic Data Centre
#                                CCDC 
#
#######################################################################
#
# If this CIF has been generated from an entry in the Cambridge 
# Structural Database, then it will include bibliographic, chemical, 
# crystal, experimental, refinement or atomic coordinate data resulting 
# from the CCDC's data processing and validation procedures.
#
#######################################################################

data_TUHZED
_symmetry_cell_setting           monoclinic
_symmetry_space_group_name_H-M   'P 21/c'
_symmetry_Int_Tables_number      14
_space_group_name_Hall           '-P 2ybc'
loop_
_symmetry_equiv_pos_site_id
_symmetry_equiv_pos_as_xyz
1 x,y,z
2 -x,1/2+y,1/2-z
3 -x,-y,-z
4 x,1/2-y,1/2+z
_cell_length_a                   13.922(6)
_cell_length_b                   10.173(4)
_cell_length_c                   9.772(4)
_cell_angle_alpha                90
_cell_angle_beta                 105.705(6)
_cell_angle_gamma                90
_cell_volume                     1332.33
loop_
_atom_site_label
_atom_site_type_symbol
_atom_site_fract_x
_atom_site_fract_y
_atom_site_fract_z
Zn1 Zn 0.97416(3) 0.31362(3) 0.56174(4)
P1 P 0.94856(6) 0.59024(7) 0.69730(8)
O1 O 0.99828(16) 0.4593(2) 0.6884(2)
O2 O 0.95388(18) 0.6847(2) 0.5803(2)
O3 O 0.98675(16) 0.6473(2) 0.8450(2)
O4 O 0.82804(17) 0.2052(2) 0.9948(3)
O5 O 0.69377(19) 0.3313(3) 0.9258(3)
O6 O 0.4455(2) 0.7242(3) 0.9559(4)
H1 H 0.3965 0.7329 0.9864
O7 O 0.40686(18) 0.9294(3) 0.8797(3)
N1 N 0.77955(18) 0.5092(2) 0.7883(3)
H2 H 0.7145 0.4855 0.7527
C1 C 0.8135(2) 0.5632(3) 0.6656(3)
H3 H 0.7798 0.6462 0.6374
H4 H 0.7918 0.5032 0.5861
C2 C 0.8353(2) 0.3872(3) 0.8465(3)
H5 H 0.9002 0.4114 0.9077
H6 H 0.8461 0.3356 0.7685
C3 C 0.7806(2) 0.3031(3) 0.9308(3)
C4 C 0.7827(2) 0.6085(3) 0.9061(3)
H7 H 0.7653 0.5642 0.9840
H8 H 0.8504 0.6409 0.9416
C5 C 0.7134(2) 0.7241(3) 0.8598(3)
C6 C 0.6211(2) 0.7234(3) 0.8886(3)
H9 H 0.6007 0.6492 0.9287
C7 C 0.7423(3) 0.8367(3) 0.7993(4)
H10 H 0.8044 0.8391 0.7809
C8 C 0.6799(3) 0.9445(4) 0.7662(4)
H11 H 0.6994 1.0180 0.7238
C9 C 0.5883(3) 0.9430(4) 0.7962(4)
H12 H 0.5467 1.0160 0.7749
C10 C 0.5585(2) 0.8334(3) 0.8579(4)
C11 C 0.4627(3) 0.8346(4) 0.8977(4)
Zn1A Zn 1.02584(3) 0.81362(3) 0.93826(4)
Zn1B Zn 1.02584(3) 0.68638(3) 0.43826(4)
Zn1C Zn 0.97416(3) 0.18638(3) 1.06174(4)
O2B O 1.04612(18) 0.3153(2) 0.4197(2)
O3A O 1.01325(16) 0.1473(2) 0.6550(2)
O4C O 0.82804(17) 0.2948(2) 0.4948(3)
loop_
_geom_bond_atom_site_label_1
_geom_bond_atom_site_label_2
_geom_bond_site_symmetry_1
_geom_bond_site_symmetry_2
Zn1 O1 1_555 1_555
P1 O1 1_555 1_555
O2 P1 1_555 1_555
O3 P1 1_555 1_555
O4 C3 1_555 1_555
O5 C3 1_555 1_555
O6 H1 1_555 1_555
O7 C11 1_555 1_555
N1 H2 1_555 1_555
C1 P1 1_555 1_555
H3 C1 1_555 1_555
H4 C1 1_555 1_555
C2 N1 1_555 1_555
H5 C2 1_555 1_555
H6 C2 1_555 1_555
C3 C2 1_555 1_555
C4 N1 1_555 1_555
H7 C4 1_555 1_555
H8 C4 1_555 1_555
C5 C4 1_555 1_555
C6 C5 1_555 1_555
H9 C6 1_555 1_555
C7 C5 1_555 1_555
H10 C7 1_555 1_555
C8 C7 1_555 1_555
H11 C8 1_555 1_555
C9 C8 1_555 1_555
H12 C9 1_555 1_555
C10 C6 1_555 1_555
C11 O6 1_555 1_555
Zn1A O3 1_555 1_555
Zn1B O2 1_555 1_555
Zn1C O4 1_555 1_555
O2B Zn1 1_555 1_555
O3A Zn1 1_555 1_555
O4C Zn1 1_555 1_555
N1 C1 1_555 1_555
C9 C10 1_555 1_555
C10 C11 1_555 1_555

#END
