
#######################################################################
#
#                 Cambridge Crystallographic Data Centre
#                                CCDC 
#
#######################################################################
#
# If this CIF has been generated from an entry in the Cambridge 
# Structural Database, then it will include bibliographic, chemical, 
# crystal, experimental, refinement or atomic coordinate data resulting 
# from the CCDC's data processing and validation procedures.
#
#######################################################################

data_TUHZIH
_symmetry_cell_setting           monoclinic
_symmetry_space_group_name_H-M   'C 2/c'
_symmetry_Int_Tables_number      15
_space_group_name_Hall           '-C 2yn'
loop_
_symmetry_equiv_pos_site_id
_symmetry_equiv_pos_as_xyz
1 x,y,z
2 -x,y,1/2-z
3 1/2+x,1/2+y,z
4 1/2-x,1/2+y,1/2-z
5 -x,-y,-z
6 x,-y,1/2+z
7 1/2-x,1/2-y,-z
8 1/2+x,1/2-y,1/2+z
_cell_length_a                   32.637(18)
_cell_length_b                   8.417(4)
_cell_length_c                   9.855(6)
_cell_angle_alpha                90
_cell_angle_beta                 106.696(9)
_cell_angle_gamma                90
_cell_volume                     2593.09
loop_
_atom_site_label
_atom_site_type_symbol
_atom_site_fract_x
_atom_site_fract_y
_atom_site_fract_z
Mn1 Mn 0.2500 0.7500 0.0000
P1 P 0.28777(2) 1.02353(8) 0.27331(7)
O1 O 0.27299(6) 0.9425(2) 0.13340(18)
O2 O 0.25543(6) 1.1264(2) 0.31186(18)
O3 O 0.32983(6) 1.1159(2) 0.2782(2)
H1 H 0.3284 1.2063 0.3075
O4 O 0.31806(7) 0.3321(2) 0.5469(2)
O5 O 0.34099(8) 0.4028(2) 0.3624(2)
O6 O 0.46285(11) 0.5003(4) 0.8406(3)
O7 O 0.48968(10) 0.7051(4) 0.9838(3)
H2 H 0.5035 0.6337 1.0328
N1 N 0.32317(7) 0.7238(2) 0.3882(2)
H3 H 0.3082 0.6848 0.3021
C1 C 0.30100(9) 0.8730(3) 0.4124(3)
H4 H 0.3189 0.9230 0.4975
H5 H 0.2746 0.8421 0.4318
C2 C 0.31944(10) 0.6042(3) 0.4981(3)
H6 H 0.2909 0.6119 0.5093
H7 H 0.3396 0.6332 0.5880
C3 C 0.32750(9) 0.4320(3) 0.4665(3)
C4 C 0.36870(9) 0.7514(3) 0.3837(3)
H8 H 0.3802 0.6523 0.3603
H9 H 0.3684 0.8272 0.3094
C5 C 0.39760(10) 0.8129(4) 0.5225(3)
C6 C 0.40441(11) 0.9754(4) 0.5477(3)
H10 H 0.3907 1.0479 0.4781
C7 C 0.43119(12) 1.0302(5) 0.6745(4)
H11 H 0.4360 1.1387 0.6887
C8 C 0.45081(11) 0.9246(5) 0.7799(4)
H12 H 0.4681 0.9616 0.8662
C9 C 0.41860(10) 0.7071(4) 0.6277(3)
H13 H 0.4152 0.5984 0.6119
C10 C 0.44462(11) 0.7627(5) 0.7566(4)
C11 C 0.46694(12) 0.6473(6) 0.8665(4)
P1F P 0.21223(2) 0.47647(8) -0.27331(7)
O1F O 0.22701(6) 0.5575(2) -0.13340(18)
O2F O 0.24457(6) 0.3736(2) -0.31186(18)
O3F O 0.17017(6) 0.3841(2) -0.2782(2)
H1F H 0.1716 0.2937 -0.3075
O4F O 0.18194(7) 1.1679(2) -0.5469(2)
O5F O 0.15901(8) 1.0972(2) -0.3624(2)
O6F O 0.03715(11) 0.9997(4) -0.8406(3)
O7F O 0.01032(10) 0.7949(4) -0.9838(3)
H2F H -0.0035 0.8663 -1.0328
N1F N 0.17683(7) 0.7762(2) -0.3882(2)
H3F H 0.1918 0.8152 -0.3021
C1F C 0.19900(9) 0.6270(3) -0.4124(3)
H4F H 0.1811 0.5770 -0.4975
H5F H 0.2254 0.6579 -0.4318
C2F C 0.18056(10) 0.8958(3) -0.4981(3)
H6F H 0.2091 0.8881 -0.5093
H7F H 0.1604 0.8668 -0.5880
C3F C 0.17250(9) 1.0680(3) -0.4665(3)
C4F C 0.13130(9) 0.7486(3) -0.3837(3)
H8F H 0.1198 0.8477 -0.3603
H9F H 0.1316 0.6728 -0.3094
C5F C 0.10240(10) 0.6871(4) -0.5225(3)
C6F C 0.09559(11) 0.5246(4) -0.5477(3)
H10F H 0.1093 0.4521 -0.4781
C7F C 0.06881(12) 0.4698(5) -0.6745(4)
H11F H 0.0640 0.3613 -0.6887
C8F C 0.04919(11) 0.5754(5) -0.7799(4)
H12F H 0.0319 0.5384 -0.8662
C9F C 0.08140(10) 0.7929(4) -0.6277(3)
H13F H 0.0848 0.9016 -0.6119
C10F C 0.05538(11) 0.7373(5) -0.7566(4)
C11F C 0.03306(12) 0.8527(6) -0.8665(4)
Mn1C Mn 0.2500 0.2500 -0.5000
Mn1C_2 Mn 0.2500 0.2500 0.5000
Mn1C_3 Mn 0.2500 1.2500 -0.5000
Mn1C_4 Mn 0.2500 1.2500 0.5000
O2C O 0.24457(6) 0.6264(2) 0.18814(18)
O2E O 0.25543(6) 0.8736(2) -0.18814(18)
O4C O 0.18194(7) 0.8321(2) -0.0469(2)
O4E O 0.31806(7) 0.6679(2) 0.0469(2)
loop_
_geom_bond_atom_site_label_1
_geom_bond_atom_site_label_2
_geom_bond_site_symmetry_1
_geom_bond_site_symmetry_2
Mn1 O1 1_555 1_555
P1 O1 1_555 1_555
O2 P1 1_555 1_555
O3 P1 1_555 1_555
H1 O3 1_555 1_555
O4 C3 1_555 1_555
O5 C3 1_555 1_555
O6 C11 1_555 1_555
O7 H2 1_555 1_555
N1 H3 1_555 1_555
C1 P1 1_555 1_555
H4 C1 1_555 1_555
H5 C1 1_555 1_555
C2 N1 1_555 1_555
H6 C2 1_555 1_555
H7 C2 1_555 1_555
C3 C2 1_555 1_555
C4 N1 1_555 1_555
H8 C4 1_555 1_555
H9 C4 1_555 1_555
C5 C4 1_555 1_555
C6 C5 1_555 1_555
H10 C6 1_555 1_555
C7 C6 1_555 1_555
H11 C7 1_555 1_555
C8 C7 1_555 1_555
H12 C8 1_555 1_555
C9 C5 1_555 1_555
H13 C9 1_555 1_555
C10 C8 1_555 1_555
C11 O7 1_555 1_555
P1F O1F 1_555 1_555
O1F Mn1 1_555 1_555
O2F P1F 1_555 1_555
O3F P1F 1_555 1_555
H1F O3F 1_555 1_555
O4F C3F 1_555 1_555
O5F C3F 1_555 1_555
O6F C11F 1_555 1_555
O7F H2F 1_555 1_555
N1F H3F 1_555 1_555
C1F P1F 1_555 1_555
H4F C1F 1_555 1_555
H5F C1F 1_555 1_555
C2F N1F 1_555 1_555
H6F C2F 1_555 1_555
H7F C2F 1_555 1_555
C3F C2F 1_555 1_555
C4F N1F 1_555 1_555
H8F C4F 1_555 1_555
H9F C4F 1_555 1_555
C5F C4F 1_555 1_555
C6F C5F 1_555 1_555
H10F C6F 1_555 1_555
C7F C6F 1_555 1_555
H11F C7F 1_555 1_555
C8F C7F 1_555 1_555
H12F C8F 1_555 1_555
C9F C5F 1_555 1_555
H13F C9F 1_555 1_555
C10F C8F 1_555 1_555
C11F O7F 1_555 1_555
Mn1C O2F 1_555 1_555
Mn1C_2 O4 1_555 1_555
Mn1C_3 O4F 1_555 1_555
Mn1C_4 O2 1_555 1_555
O2C Mn1 1_555 1_555
O2E Mn1 1_555 1_555
O4C Mn1 1_555 1_555
O4E Mn1 1_555 1_555
N1 C1 1_555 1_555
C9 C10 1_555 1_555
C10 C11 1_555 1_555
N1F C1F 1_555 1_555
C9F C10F 1_555 1_555
C10F C11F 1_555 1_555

#END
