
#######################################################################
#
#                 Cambridge Crystallographic Data Centre
#                                CCDC 
#
#######################################################################
#
# If this CIF has been generated from an entry in the Cambridge 
# Structural Database, then it will include bibliographic, chemical, 
# crystal, experimental, refinement or atomic coordinate data resulting 
# from the CCDC's data processing and validation procedures.
#
#######################################################################

data_TUHZON
_symmetry_cell_setting           monoclinic
_symmetry_space_group_name_H-M   'C 2/c'
_symmetry_Int_Tables_number      15
_space_group_name_Hall           '-C 2yn'
loop_
_symmetry_equiv_pos_site_id
_symmetry_equiv_pos_as_xyz
1 x,y,z
2 -x,y,1/2-z
3 1/2+x,1/2+y,z
4 1/2-x,1/2+y,1/2-z
5 -x,-y,-z
6 x,-y,1/2+z
7 1/2-x,1/2-y,-z
8 1/2+x,1/2-y,1/2+z
_cell_length_a                   35.591(16)
_cell_length_b                   8.449(4)
_cell_length_c                   9.836(4)
_cell_angle_alpha                90
_cell_angle_beta                 101.970(7)
_cell_angle_gamma                90
_cell_volume                     2893.45
loop_
_atom_site_label
_atom_site_type_symbol
_atom_site_fract_x
_atom_site_fract_y
_atom_site_fract_z
Mn1 Mn 0.2500 0.2500 0.0000
P1 P 0.283960(14) -0.02174(5) 0.26414(5)
O1 O 0.27073(4) 0.05882(15) 0.12793(13)
O2 O 0.25482(4) -0.12478(15) 0.31161(12)
O3 O 0.32175(4) -0.11353(15) 0.25908(14)
H1 H 0.3200 -0.2047 0.2857
O4 O 0.31069(4) 0.66740(15) 0.52677(14)
O5 O 0.32990(5) 0.59833(16) 0.33249(16)
O6 O 0.48025(7) 0.1693(4) 0.9178(3)
O7 O 0.46905(7) -0.0838(4) 0.8593(2)
H2 H 0.4852 -0.0971 0.9309
N1 N 0.31486(4) 0.27820(16) 0.36610(15)
H3 H 0.3005 0.3174 0.2858
C1 C 0.29568(5) 0.1287(2) 0.39881(18)
H4 H 0.2720 0.1582 0.4267
H5 H 0.3122 0.0802 0.4788
C2 C 0.31275(6) 0.3966(2) 0.47893(19)
H6 H 0.3320 0.3689 0.5607
H7 H 0.2878 0.3874 0.5032
C3 C 0.31878(5) 0.5685(2) 0.44233(19)
C4 C 0.35501(5) 0.2520(2) 0.3410(2)
H8 H 0.3541 0.1715 0.2702
H9 H 0.3640 0.3493 0.3062
C5 C 0.38327(6) 0.2015(3) 0.4707(2)
C6 C 0.40476(8) 0.3137(4) 0.5552(3)
H10 H 0.4019 0.4202 0.5314
C7 C 0.43067(9) 0.2690(4) 0.6757(3)
H11 H 0.4447 0.3453 0.7329
C8 C 0.38860(7) 0.0431(3) 0.5061(3)
H12 H 0.3747 -0.0338 0.4494
C9 C 0.41460(8) -0.0017(4) 0.6256(3)
H13 H 0.4180 -0.1082 0.6486
C10 C 0.43528(7) 0.1110(4) 0.7095(3)
C11 C 0.46354(8) 0.0633(5) 0.8381(3)
P1F P 0.216040(14) 0.52174(5) -0.26414(5)
O1F O 0.22927(4) 0.44118(15) -0.12793(13)
O2F O 0.24518(4) 0.62478(15) -0.31161(12)
O3F O 0.17825(4) 0.61353(15) -0.25908(14)
H1F H 0.1800 0.7047 -0.2857
O4F O 0.18931(4) -0.16740(15) -0.52677(14)
O5F O 0.17010(5) -0.09833(16) -0.33249(16)
O6F O 0.01975(7) 0.3307(4) -0.9178(3)
O7F O 0.03095(7) 0.5838(4) -0.8593(2)
H2F H 0.0148 0.5971 -0.9309
N1F N 0.18514(4) 0.22180(16) -0.36610(15)
H3F H 0.1995 0.1826 -0.2858
C1F C 0.20432(5) 0.3713(2) -0.39881(18)
H4F H 0.2280 0.3418 -0.4267
H5F H 0.1878 0.4198 -0.4788
C2F C 0.18725(6) 0.1034(2) -0.47893(19)
H6F H 0.1680 0.1311 -0.5607
H7F H 0.2122 0.1126 -0.5032
C3F C 0.18122(5) -0.0685(2) -0.44233(19)
C4F C 0.14499(5) 0.2480(2) -0.3410(2)
H8F H 0.1459 0.3285 -0.2702
H9F H 0.1360 0.1507 -0.3062
C5F C 0.11673(6) 0.2985(3) -0.4707(2)
C6F C 0.09524(8) 0.1863(4) -0.5552(3)
H10F H 0.0981 0.0798 -0.5314
C7F C 0.06933(9) 0.2310(4) -0.6757(3)
H11F H 0.0553 0.1547 -0.7329
C8F C 0.11140(7) 0.4569(3) -0.5061(3)
H12F H 0.1253 0.5338 -0.4494
C9F C 0.08540(8) 0.5017(4) -0.6256(3)
H13F H 0.0820 0.6082 -0.6486
C10F C 0.06472(7) 0.3890(4) -0.7095(3)
C11F C 0.03646(8) 0.4367(5) -0.8381(3)
Mn1C Mn 0.2500 -0.2500 -0.5000
Mn1C_2 Mn 0.2500 -0.2500 0.5000
Mn1C_3 Mn 0.2500 0.7500 -0.5000
Mn1C_4 Mn 0.2500 0.7500 0.5000
O2C O 0.24518(4) 0.37522(15) 0.18839(12)
O2E O 0.25482(4) 0.12478(15) -0.18839(12)
O4C O 0.18931(4) 0.16740(15) -0.02677(14)
O4E O 0.31069(4) 0.33260(15) 0.02677(14)
loop_
_geom_bond_atom_site_label_1
_geom_bond_atom_site_label_2
_geom_bond_site_symmetry_1
_geom_bond_site_symmetry_2
Mn1 O1 1_555 1_555
P1 O1 1_555 1_555
O2 P1 1_555 1_555
O3 P1 1_555 1_555
H1 O3 1_555 1_555
O4 C3 1_555 1_555
O5 C3 1_555 1_555
O6 C11 1_555 1_555
O7 H2 1_555 1_555
N1 H3 1_555 1_555
C1 P1 1_555 1_555
H4 C1 1_555 1_555
H5 C1 1_555 1_555
C2 N1 1_555 1_555
H6 C2 1_555 1_555
H7 C2 1_555 1_555
C3 C2 1_555 1_555
C4 N1 1_555 1_555
H8 C4 1_555 1_555
H9 C4 1_555 1_555
C5 C4 1_555 1_555
C6 C5 1_555 1_555
H10 C6 1_555 1_555
C7 C6 1_555 1_555
H11 C7 1_555 1_555
C8 C5 1_555 1_555
H12 C8 1_555 1_555
C9 C8 1_555 1_555
H13 C9 1_555 1_555
C10 C7 1_555 1_555
C11 O7 1_555 1_555
P1F O1F 1_555 1_555
O1F Mn1 1_555 1_555
O2F P1F 1_555 1_555
O3F P1F 1_555 1_555
H1F O3F 1_555 1_555
O4F C3F 1_555 1_555
O5F C3F 1_555 1_555
O6F C11F 1_555 1_555
O7F H2F 1_555 1_555
N1F H3F 1_555 1_555
C1F P1F 1_555 1_555
H4F C1F 1_555 1_555
H5F C1F 1_555 1_555
C2F N1F 1_555 1_555
H6F C2F 1_555 1_555
H7F C2F 1_555 1_555
C3F C2F 1_555 1_555
C4F N1F 1_555 1_555
H8F C4F 1_555 1_555
H9F C4F 1_555 1_555
C5F C4F 1_555 1_555
C6F C5F 1_555 1_555
H10F C6F 1_555 1_555
C7F C6F 1_555 1_555
H11F C7F 1_555 1_555
C8F C5F 1_555 1_555
H12F C8F 1_555 1_555
C9F C8F 1_555 1_555
H13F C9F 1_555 1_555
C10F C7F 1_555 1_555
C11F O7F 1_555 1_555
Mn1C O4F 1_555 1_555
Mn1C_2 O2 1_555 1_555
Mn1C_3 O2F 1_555 1_555
Mn1C_4 O4 1_555 1_555
O2C Mn1 1_555 1_555
O2E Mn1 1_555 1_555
O4C Mn1 1_555 1_555
O4E Mn1 1_555 1_555
N1 C1 1_555 1_555
C9 C10 1_555 1_555
C10 C11 1_555 1_555
N1F C1F 1_555 1_555
C9F C10F 1_555 1_555
C10F C11F 1_555 1_555

#END
