
#######################################################################
#
#                 Cambridge Crystallographic Data Centre
#                                CCDC 
#
#######################################################################
#
# If this CIF has been generated from an entry in the Cambridge 
# Structural Database, then it will include bibliographic, chemical, 
# crystal, experimental, refinement or atomic coordinate data resulting 
# from the CCDC's data processing and validation procedures.
#
#######################################################################

data_TUJDEJ
_symmetry_cell_setting           monoclinic
_symmetry_space_group_name_H-M   'C 2/c'
_symmetry_Int_Tables_number      15
_space_group_name_Hall           '-C 2yn'
loop_
_symmetry_equiv_pos_site_id
_symmetry_equiv_pos_as_xyz
1 x,y,z
2 -x,y,1/2-z
3 1/2+x,1/2+y,z
4 1/2-x,1/2+y,1/2-z
5 -x,-y,-z
6 x,-y,1/2+z
7 1/2-x,1/2-y,-z
8 1/2+x,1/2-y,1/2+z
_cell_length_a                   36.374(8)
_cell_length_b                   10.049(2)
_cell_length_c                   9.784(3)
_cell_angle_alpha                90
_cell_angle_beta                 99.023(14)
_cell_angle_gamma                90
_cell_volume                     3532.02
loop_
_atom_site_label
_atom_site_type_symbol
_atom_site_fract_x
_atom_site_fract_y
_atom_site_fract_z
Zn1 Zn 0.239263(16) 0.44262(4) 0.56473(5)
P1 P 0.26946(4) 0.34207(9) 0.29862(10)
O1 O 0.26596(13) 0.4404(3) 0.4102(4)
O2 O 0.25216(10) 0.2090(3) 0.3196(3)
O3 O 0.25587(10) 0.3932(3) 0.1548(3)
O4 O 0.31472(12) -0.0347(4) -0.0223(4)
O5 O 0.36598(15) 0.0779(6) 0.0489(7)
N1 N 0.33309(13) 0.2609(4) 0.1875(4)
H1 H 0.3568 0.2323 0.2157
C1 C 0.31959(15) 0.3175(4) 0.3118(4)
H2 H 0.3317 0.4027 0.3328
H3 H 0.3276 0.2591 0.3897
C2 C 0.33296(18) 0.0561(5) 0.0456(7)
C3 C 0.31137(16) 0.1439(5) 0.1301(6)
H4 H 0.2888 0.1739 0.0722
H5 H 0.3042 0.0922 0.2054
C4 C 0.33486(17) 0.3659(6) 0.0747(5)
H6 H 0.3457 0.3254 0.0004
H7 H 0.3097 0.3923 0.0369
C5 C 0.3572(3) 0.4905(13) 0.1236(9)
C6 C 0.3414(2) 0.6135(7) 0.1761(6)
H8 H 0.3161 0.6091 0.1806
C7 C 0.3574(4) 0.7283(11) 0.2177(9)
H9 H 0.3439 0.7993 0.2455
C8 C 0.3988(4) 0.7363(17) 0.2170(11)
H10 H 0.4132 0.8105 0.2461
C9 C 0.4140(2) 0.6112(7) 0.1643(8)
C10 C 0.4520(2) 0.6141(10) 0.1596(12)
H11 H 0.4659 0.6893 0.1893
C11 C 0.46925(16) 0.5045(12) 0.1105(14)
H12 H 0.4947 0.5064 0.1073
C12 C 0.4485(2) 0.3920(10) 0.0661(12)
H13 H 0.4601 0.3187 0.0332
C13 C 0.4105(2) 0.3892(7) 0.0708(8)
H14 H 0.3967 0.3139 0.0411
C14 C 0.39328(16) 0.4988(7) 0.1199(7)
Zn1C Zn 0.260737(16) -0.05738(4) -0.06473(5)
Zn1E Zn 0.239263(16) 0.55738(4) 0.06473(5)
Zn1F Zn 0.260737(16) 0.05738(4) 0.43527(5)
O2F O 0.24784(10) 0.2910(3) 0.6804(3)
O3E O 0.25587(10) 0.6068(3) 0.6548(3)
O4C O 0.18528(12) 0.4653(4) 0.5223(4)
O6 O 0.39525(19) 0.1658(9) 0.3619(8)
O7 O 0.4289(3) 0.0090(14) 0.4763(14)
H15 H 0.4088 -0.0150 0.4954
C15 C 0.4611(4) 0.157(2) 0.3474(18)
H16 H 0.4577 0.2344 0.2887
H17 H 0.4689 0.0837 0.2966
H18 H 0.4797 0.1757 0.4260
C16 C 0.4241(3) 0.1230(17) 0.3970(12)
loop_
_geom_bond_atom_site_label_1
_geom_bond_atom_site_label_2
_geom_bond_site_symmetry_1
_geom_bond_site_symmetry_2
Zn1 O1 1_555 1_555
P1 O1 1_555 1_555
O2 P1 1_555 1_555
O3 P1 1_555 1_555
O4 C2 1_555 1_555
O5 C2 1_555 1_555
N1 H1 1_555 1_555
C1 P1 1_555 1_555
H2 C1 1_555 1_555
H3 C1 1_555 1_555
C2 C3 1_555 1_555
C3 N1 1_555 1_555
H4 C3 1_555 1_555
H5 C3 1_555 1_555
C4 N1 1_555 1_555
H6 C4 1_555 1_555
H7 C4 1_555 1_555
C5 C4 1_555 1_555
C6 C5 1_555 1_555
H8 C6 1_555 1_555
C7 C6 1_555 1_555
H9 C7 1_555 1_555
C8 C7 1_555 1_555
H10 C8 1_555 1_555
C9 C8 1_555 1_555
C10 C9 1_555 1_555
H11 C10 1_555 1_555
C11 C10 1_555 1_555
H12 C11 1_555 1_555
C12 C11 1_555 1_555
H13 C12 1_555 1_555
C13 C12 1_555 1_555
H14 C13 1_555 1_555
C14 C5 1_555 1_555
O6 C16 1_555 1_555
O7 H15 1_555 1_555
C15 H16 1_555 1_555
H17 C15 1_555 1_555
H18 C15 1_555 1_555
C16 O7 1_555 1_555
Zn1C O4 1_555 1_555
Zn1E O3 1_555 1_555
Zn1F O2 1_555 1_555
O2F Zn1 1_555 1_555
O3E Zn1 1_555 1_555
O4C Zn1 1_555 1_555
N1 C1 1_555 1_555
C9 C14 1_555 1_555
C13 C14 1_555 1_555
C15 C16 1_555 1_555

#END
