
#######################################################################
#
#                 Cambridge Crystallographic Data Centre
#                                CCDC 
#
#######################################################################
#
# If this CIF has been generated from an entry in the Cambridge 
# Structural Database, then it will include bibliographic, chemical, 
# crystal, experimental, refinement or atomic coordinate data resulting 
# from the CCDC's data processing and validation procedures.
#
#######################################################################

data_TUJSOH
_symmetry_cell_setting           monoclinic
_symmetry_space_group_name_H-M   'P 21/c'
_symmetry_Int_Tables_number      14
_space_group_name_Hall           '-P 2ybc'
loop_
_symmetry_equiv_pos_site_id
_symmetry_equiv_pos_as_xyz
1 x,y,z
2 -x,1/2+y,1/2-z
3 -x,-y,-z
4 x,1/2-y,1/2+z
_cell_length_a                   8.586(2)
_cell_length_b                   14.142(4)
_cell_length_c                   11.487(3)
_cell_angle_alpha                90
_cell_angle_beta                 105.175(3)
_cell_angle_gamma                90
_cell_volume                     1346.15
loop_
_atom_site_label
_atom_site_type_symbol
_atom_site_fract_x
_atom_site_fract_y
_atom_site_fract_z
Co1 Co 0.5000 0.5000 1.0000
S1 S 0.89959(12) 0.55348(6) 0.78242(10)
O1 O 0.9578(3) 0.2114(2) 0.9826(2)
N1 N 0.5980(2) 0.36255(14) 1.08706(19)
N2 N 1.3260(2) 0.07443(15) 1.3577(2)
N3 N 0.6648(3) 0.49956(15) 0.8974(2)
C1 C 0.5373(3) 0.31719(19) 1.1686(3)
H1 H 0.4441 0.3411 1.1845
C2 C 0.6055(3) 0.2376(2) 1.2296(3)
H2 H 0.5591 0.2090 1.2853
C3 C 0.7443(3) 0.2004(2) 1.2072(3)
H3 H 0.7940 0.1473 1.2484
C4 C 0.8068(3) 0.24458(18) 1.1217(2)
C5 C 0.7295(3) 0.32516(18) 1.0638(2)
H4 H 0.7718 0.3543 1.0062
C6 C 0.9503(4) 0.2071(2) 1.0861(3)
C7 C 1.2386(3) 0.14503(19) 1.3853(3)
H5 H 1.2600 0.1644 1.4653
C8 C 1.1174(3) 0.19075(19) 1.3004(3)
H6 H 1.0595 0.2398 1.3232
C9 C 1.0840(3) 0.16237(19) 1.1812(2)
C10 C 1.1765(3) 0.0909(2) 1.1508(3)
H7 H 1.1590 0.0713 1.0711
C11 C 1.2954(3) 0.0492(2) 1.2412(2)
H8 H 1.3573 0.0013 1.2204
C12 C 0.7639(3) 0.52186(17) 0.8504(3)
Co1A Co -0.5000 1.0000 0.5000
Co1A_2 Co 1.5000 0.0000 1.5000
S1B S 0.10041(12) 0.44652(6) 1.21758(10)
O1B O 0.0422(3) 0.7886(2) 1.0174(2)
N1B N 0.4020(2) 0.63745(14) 0.91294(19)
N2B N -0.3260(2) 0.92557(15) 0.6423(2)
N2A N 0.6740(2) 0.57443(15) 1.1423(2)
N2C N 0.3260(2) 0.42557(15) 0.8577(2)
N3B N 0.3352(3) 0.50044(15) 1.1026(2)
C1B C 0.4627(3) 0.68281(19) 0.8314(3)
H1B H 0.5559 0.6589 0.8155
C2B C 0.3945(3) 0.7624(2) 0.7704(3)
H2B H 0.4409 0.7910 0.7147
C3B C 0.2557(3) 0.7996(2) 0.7928(3)
H3B H 0.2060 0.8527 0.7516
C4B C 0.1932(3) 0.75542(18) 0.8783(2)
C5B C 0.2705(3) 0.67484(18) 0.9362(2)
H4B H 0.2282 0.6457 0.9938
C6B C 0.0497(4) 0.7929(2) 0.9139(3)
C7B C -0.2386(3) 0.85497(19) 0.6147(3)
H5B H -0.2600 0.8356 0.5347
C8B C -0.1174(3) 0.80925(19) 0.6996(3)
H6B H -0.0595 0.7602 0.6768
C9B C -0.0840(3) 0.83763(19) 0.8188(2)
C10B C -0.1765(3) 0.9091(2) 0.8492(3)
H7B H -0.1590 0.9287 0.9289
C11B C -0.2954(3) 0.9508(2) 0.7588(2)
H8B H -0.3573 0.9987 0.7796
C12B C 0.2361(3) 0.47814(17) 1.1496(3)
O2 O 1.515(3) -0.070(2) 1.0235(18)
loop_
_geom_bond_atom_site_label_1
_geom_bond_atom_site_label_2
_geom_bond_site_symmetry_1
_geom_bond_site_symmetry_2
Co1 N1 1_555 1_555
S1 C12 1_555 1_555
O1 C6 1_555 1_555
N1 C1 1_555 1_555
N2 C7 1_555 1_555
N3 Co1 1_555 1_555
C1 H1 1_555 1_555
C2 C1 1_555 1_555
H2 C2 1_555 1_555
C3 C2 1_555 1_555
H3 C3 1_555 1_555
C4 C3 1_555 1_555
C5 N1 1_555 1_555
H4 C5 1_555 1_555
C6 C4 1_555 1_555
C7 H5 1_555 1_555
C8 C7 1_555 1_555
H6 C8 1_555 1_555
C9 C6 1_555 1_555
C10 C9 1_555 1_555
H7 C10 1_555 1_555
C11 N2 1_555 1_555
H8 C11 1_555 1_555
C12 N3 1_555 1_555
Co1A N2B 1_555 1_555
Co1A_2 N2 1_555 1_555
S1B C12B 1_555 1_555
O1B C6B 1_555 1_555
N1B Co1 1_555 1_555
N2B C7B 1_555 1_555
N2A Co1 1_555 1_555
N2C Co1 1_555 1_555
N3B Co1 1_555 1_555
C1B N1B 1_555 1_555
H1B C1B 1_555 1_555
C2B C1B 1_555 1_555
H2B C2B 1_555 1_555
C3B C2B 1_555 1_555
H3B C3B 1_555 1_555
C4B C3B 1_555 1_555
C5B N1B 1_555 1_555
H4B C5B 1_555 1_555
C6B C4B 1_555 1_555
C7B H5B 1_555 1_555
C8B C7B 1_555 1_555
H6B C8B 1_555 1_555
C9B C6B 1_555 1_555
C10B C9B 1_555 1_555
H7B C10B 1_555 1_555
C11B N2B 1_555 1_555
H8B C11B 1_555 1_555
C12B N3B 1_555 1_555
C4 C5 1_555 1_555
C8 C9 1_555 1_555
C10 C11 1_555 1_555
C4B C5B 1_555 1_555
C8B C9B 1_555 1_555
C10B C11B 1_555 1_555

#END
