
#######################################################################
#
#                 Cambridge Crystallographic Data Centre
#                                CCDC 
#
#######################################################################
#
# If this CIF has been generated from an entry in the Cambridge 
# Structural Database, then it will include bibliographic, chemical, 
# crystal, experimental, refinement or atomic coordinate data resulting 
# from the CCDC's data processing and validation procedures.
#
#######################################################################

data_TUJSUN
_symmetry_cell_setting           orthorhombic
_symmetry_space_group_name_H-M   'P c c n'
_symmetry_Int_Tables_number      56
_space_group_name_Hall           '-P 2ab 2ac'
loop_
_symmetry_equiv_pos_site_id
_symmetry_equiv_pos_as_xyz
1 x,y,z
2 1/2-x,1/2-y,z
3 -x,1/2+y,1/2-z
4 1/2+x,-y,1/2-z
5 -x,-y,-z
6 1/2+x,1/2+y,-z
7 x,1/2-y,1/2+z
8 1/2-x,y,1/2+z
_cell_length_a                   16.1490(17)
_cell_length_b                   16.3307(17)
_cell_length_c                   21.078(2)
_cell_angle_alpha                90
_cell_angle_beta                 90
_cell_angle_gamma                90
_cell_volume                     5558.78
loop_
_atom_site_label
_atom_site_type_symbol
_atom_site_fract_x
_atom_site_fract_y
_atom_site_fract_z
Cd1 Cd 0.49862(3) 0.23279(2) 0.126546(16)
O5 O 0.4258(3) 0.1927(2) -0.18742(18)
O6 O 0.5566(3) 0.1594(2) 0.43959(19)
O7 O 0.3782(4) 0.2257(3) 0.1836(4)
H1 H 0.337(4) 0.208(6) 0.159(3)
H2 H 0.354(5) 0.235(5) 0.2204(19)
O8 O 0.6190(3) 0.2424(3) 0.0665(3)
H3 H 0.654(4) 0.225(5) 0.095(3)
H4 H 0.642(4) 0.248(5) 0.0292(17)
C1 C 0.4385(4) 0.1990(3) -0.0187(3)
H5 H 0.4754 0.1542 -0.0138
C2 C 0.4039(4) 0.2134(3) -0.0779(3)
C3 C 0.3514(4) 0.2800(3) -0.0853(3)
H6 H 0.3292 0.2930 -0.1258
C4 C 0.3319(4) 0.3272(4) -0.0332(3)
H7 H 0.2946 0.3719 -0.0368
C5 C 0.3679(4) 0.3080(4) 0.0241(3)
H8 H 0.3538 0.3402 0.0601
C6 C 0.4532(4) 0.0758(3) -0.1255(2)
C7 C 0.4141(4) 0.0258(3) -0.0807(3)
H9 H 0.3746 0.0476 -0.0519
C8 C 0.4347(4) -0.0566(3) -0.0797(3)
H10 H 0.4069 -0.0911 -0.0503
C9 C 0.5311(4) -0.0403(4) -0.1582(3)
H11 H 0.5738 -0.0627 -0.1839
C10 C 0.5126(4) 0.0416(3) -0.1643(3)
H12 H 0.5405 0.0742 -0.1949
C11 C 0.5518(4) -0.0855(4) 0.3245(3)
H13 H 0.5756 -0.1173 0.2914
C12 C 0.5692(4) -0.0030(3) 0.3271(3)
H14 H 0.6048 0.0212 0.2965
C13 C 0.5342(4) 0.0447(3) 0.3750(2)
C14 C 0.4817(4) 0.0066(3) 0.4175(3)
H15 H 0.4555 0.0371 0.4502
C15 C 0.4678(4) -0.0759(3) 0.4117(3)
H16 H 0.4316 -0.1015 0.4412
C16 C 0.5848(4) 0.1853(3) 0.3320(3)
C17 C 0.6392(4) 0.2497(4) 0.3441(3)
H17 H 0.6614 0.2582 0.3853
C18 C 0.6599(4) 0.3012(4) 0.2938(3)
H18 H 0.6981 0.3447 0.2998
C19 C 0.6246(4) 0.2881(4) 0.2358(3)
H19 H 0.6400 0.3230 0.2017
C20 C 0.5508(4) 0.1784(3) 0.2717(3)
H20 H 0.5122 0.1356 0.2640
C21 C 0.5580(4) 0.1326(3) 0.3860(3)
C22 C 0.4280(4) 0.1632(3) -0.1344(3)
N1 N 0.4219(3) 0.2459(3) 0.0319(2)
N2 N 0.4911(3) -0.0898(3) -0.1175(2)
N3 N 0.5028(3) -0.1222(3) 0.36667(18)
N4 N 0.5696(3) 0.2288(3) 0.2244(2)
Cd1D Cd 0.50138(3) -0.23279(2) -0.126546(16)
Cd1B Cd 0.50138(3) -0.26721(2) 0.373454(16)
N2D N 0.5089(3) 0.0898(3) 0.1175(2)
N3B N 0.4972(3) 0.3778(3) 0.13333(18)
Cl1 Cl 0.27567(14) 0.01554(19) 0.30482(10)
O9 O 0.2377(8) 0.0697(4) 0.2835(6)
O10 O 0.275(2) 0.0485(19) 0.3672(13)
O11 O 0.2290(5) -0.0650(5) 0.2971(4)
O12 O 0.3516(4) 0.0037(6) 0.2762(4)
Cl2 Cl 0.26865(18) 0.9692(2) 0.06502(15)
O1 O 0.2973(7) 1.0510(7) 0.0611(5)
O2 O 0.2345(7) 0.9485(8) 0.1215(6)
O3 O 0.2078(5) 0.9610(7) 0.0167(5)
O4 O 0.3350(9) 0.9178(8) 0.0514(5)
O17 O 0.2531(5) 0.1323(6) 0.1559(6)
H21 H 0.264(6) 0.0895(17) 0.1335(15)
H22 H 0.2444 0.1132 0.1947
O18 O 0.2550(6) -0.1412(6) 0.4134(8)
H23 H 0.256(11) -0.111(9) 0.377(5)
H24 H 0.295(7) -0.178(7) 0.407(7)
O13? O 0.231(2) 0.0975(11) 0.2717(15)
O14? O 0.273(6) 0.015(5) 0.367(3)
O15? O 0.2115(14) 0.0246(17) 0.2696(12)
O16? O 0.3516(10) 0.0879(14) 0.2891(8)
Cl3? Cl 0.2740(4) 0.9094(4) 0.0449(2)
O19? O 0.2338(15) 0.8579(18) 0.0106(11)
O20? O 0.3553(15) 0.8721(15) 0.0443(10)
O21? O 0.294(3) 0.9843(19) 0.0263(17)
O22? O 0.2448(13) 0.9062(10) 0.1101(9)
loop_
_geom_bond_atom_site_label_1
_geom_bond_atom_site_label_2
_geom_bond_site_symmetry_1
_geom_bond_site_symmetry_2
Cd1 O7 1_555 1_555
Cl1 O9 1_555 1_555
Cl2 O1 1_555 1_555
O2 Cl2 1_555 1_555
O3 Cl2 1_555 1_555
O4 Cl2 1_555 1_555
O5 C22 1_555 1_555
O6 C21 1_555 1_555
O7 H1 1_555 1_555
H2 O7 1_555 1_555
O8 Cd1 1_555 1_555
H3 O8 1_555 1_555
H4 O8 1_555 1_555
O10 Cl1 1_555 1_555
O11 Cl1 1_555 1_555
O12 Cl1 1_555 1_555
C1 H5 1_555 1_555
C2 C1 1_555 1_555
C3 C2 1_555 1_555
H6 C3 1_555 1_555
C4 C3 1_555 1_555
H7 C4 1_555 1_555
C5 C4 1_555 1_555
H8 C5 1_555 1_555
C6 C7 1_555 1_555
C7 H9 1_555 1_555
C8 C7 1_555 1_555
H10 C8 1_555 1_555
C9 H11 1_555 1_555
C10 C6 1_555 1_555
H12 C10 1_555 1_555
C11 H13 1_555 1_555
C12 C11 1_555 1_555
H14 C12 1_555 1_555
C13 C12 1_555 1_555
C14 C13 1_555 1_555
H15 C14 1_555 1_555
C15 C14 1_555 1_555
H16 C15 1_555 1_555
C16 C17 1_555 1_555
C17 H17 1_555 1_555
C18 C17 1_555 1_555
H18 C18 1_555 1_555
C19 C18 1_555 1_555
H19 C19 1_555 1_555
C20 C16 1_555 1_555
H20 C20 1_555 1_555
C21 C13 1_555 1_555
C22 C2 1_555 1_555
N1 Cd1 1_555 1_555
N2 C8 1_555 1_555
N3 C11 1_555 1_555
N4 Cd1 1_555 1_555
O17 H21 1_555 1_555
H22 O17 1_555 1_555
O18 H23 1_555 1_555
H24 O18 1_555 1_555
Cd1D N2 1_555 1_555
Cd1B N3 1_555 1_555
N2D Cd1 1_555 1_555
N3B Cd1 1_555 1_555
C1 N1 1_555 1_555
C5 N1 1_555 1_555
C6 C22 1_555 1_555
C9 C10 1_555 1_555
C9 N2 1_555 1_555
C15 N3 1_555 1_555
C16 C21 1_555 1_555
C19 N4 1_555 1_555
C20 N4 1_555 1_555

#END
