
#######################################################################
#
#                 Cambridge Crystallographic Data Centre
#                                CCDC 
#
#######################################################################
#
# If this CIF has been generated from an entry in the Cambridge 
# Structural Database, then it will include bibliographic, chemical, 
# crystal, experimental, refinement or atomic coordinate data resulting 
# from the CCDC's data processing and validation procedures.
#
#######################################################################

data_TUKCUZ
_symmetry_cell_setting           monoclinic
_symmetry_space_group_name_H-M   'P 21/n'
_symmetry_Int_Tables_number      14
_space_group_name_Hall           '-P 2yn'
loop_
_symmetry_equiv_pos_site_id
_symmetry_equiv_pos_as_xyz
1 x,y,z
2 1/2-x,1/2+y,1/2-z
3 -x,-y,-z
4 1/2+x,1/2-y,1/2+z
_cell_length_a                   9.8120(3)
_cell_length_b                   14.2830(5)
_cell_length_c                   19.5720(6)
_cell_angle_alpha                90
_cell_angle_beta                 96.9410(10)
_cell_angle_gamma                90
_cell_volume                     2722.81
loop_
_atom_site_label
_atom_site_type_symbol
_atom_site_fract_x
_atom_site_fract_y
_atom_site_fract_z
Cd1 Cd 0.73402(3) 0.249521(19) 0.348634(15)
C1 C 1.2606(5) -0.0133(3) 0.2766(2)
H1 H 1.2285 0.0031 0.2316
C2 C 1.1803(5) -0.0011(3) 0.3292(2)
C3 C 1.2242(5) -0.0258(3) 0.3964(2)
H2 H 1.1678 -0.0172 0.4308
C4 C 1.3542(5) -0.0637(3) 0.4113(2)
C5 C 1.4388(5) -0.0756(3) 0.3600(2)
H3 H 1.5268 -0.0999 0.3702
C6 C 1.3894(5) -0.0505(3) 0.2931(2)
C7 C 0.9944(5) 0.1118(4) 0.3455(2)
H4 H 1.0440 0.1463 0.3804
C8 C 0.8333(5) 0.0632(4) 0.2710(3)
H5 H 0.7480 0.0576 0.2449
C9 C 0.9426(5) 0.0071(4) 0.2658(3)
H6 H 0.9474 -0.0423 0.2352
C10 C 1.3232(5) -0.0983(4) 0.5324(2)
H7 H 1.2340 -0.0755 0.5302
C11 C 1.5162(5) -0.1609(4) 0.5689(3)
H8 H 1.5863 -0.1899 0.5975
C12 C 1.5252(5) -0.1344(4) 0.5033(3)
H9 H 1.6000 -0.1421 0.4788
C13 C 1.5666(5) -0.1359(3) 0.2380(3)
H10 H 1.5839 -0.1816 0.2718
C14 C 1.5724(5) -0.0565(3) 0.1459(2)
H11 H 1.5963 -0.0366 0.1037
C15 C 1.4773(5) -0.0155(4) 0.1802(2)
H12 H 1.4240 0.0365 0.1663
C16 C 0.5339(7) 0.2516(3) 0.2333(3)
C17 C 0.3162(5) 0.2069(4) -0.0105(2)
C18 C 0.3072(4) 0.2057(3) 0.0656(2)
C19 C 0.4213(5) 0.2279(3) 0.1121(2)
H13 H 0.5057 0.2389 0.0965
C20 C 0.4086(5) 0.2337(3) 0.1820(3)
C21 C 0.2836(5) 0.2189(4) 0.2047(2)
H14 H 0.2754 0.2238 0.2514
C22 C 0.1688(5) 0.1966(3) 0.1585(2)
C23 C 0.1814(5) 0.1881(3) 0.0891(2)
H15 H 0.1061 0.1708 0.0583
N1 N 0.8674(4) 0.1293(3) 0.3205(2)
N2 N 1.0443(4) 0.0374(3) 0.31424(19)
N3 N 1.3899(4) -0.1390(3) 0.5873(2)
N4 N 1.4011(4) -0.0938(3) 0.47990(19)
N5 N 1.6284(4) -0.1313(3) 0.1823(2)
N6 N 1.4751(4) -0.0664(3) 0.23996(19)
O1 O 0.6507(5) 0.2412(3) 0.2152(3)
O2 O 0.5172(4) 0.2747(3) 0.29322(18)
O3 O 0.4136(5) 0.2490(2) -0.0331(2)
O4 O 0.2196(4) 0.1699(3) -0.04975(16)
O5 O 0.0483(4) 0.1834(3) 0.18494(18)
H16 H -0.0102 0.1649 0.1545
Cd1A Cd 1.76598(3) -0.250479(19) 0.151366(15)
Cd1B Cd 1.26598(3) -0.249521(19) 0.651366(15)
Cd1C Cd 0.23402(3) 0.250479(19) -0.151366(15)
N3B N 0.6101(4) 0.1390(3) 0.4127(2)
N5A N 0.8716(4) 0.3687(3) 0.3177(2)
O3C O 0.9136(5) 0.2510(2) 0.4669(2)
O4C O 0.7196(4) 0.3301(3) 0.45025(16)
O6 O 0.1640(7) 0.8829(5) 0.1299(3)
O7 O 0.6986(6) 0.2112(7) 0.9692(4)
O8 O 0.8120(7) 0.1624(8) 0.1039(4)
O9 O 0.0499(10) 0.0790(6) 0.5175(5)
O10 O 0.0606(10) 0.0160(6) 0.9387(5)
O11? O 0.2270(13) 0.1197(18) 0.6167(8)
loop_
_geom_bond_atom_site_label_1
_geom_bond_atom_site_label_2
_geom_bond_site_symmetry_1
_geom_bond_site_symmetry_2
Cd1 N1 1_555 1_555
C1 H1 1_555 1_555
C2 C1 1_555 1_555
C3 C2 1_555 1_555
H2 C3 1_555 1_555
C4 C3 1_555 1_555
C5 C4 1_555 1_555
H3 C5 1_555 1_555
C6 C1 1_555 1_555
C7 H4 1_555 1_555
C8 H5 1_555 1_555
C9 C8 1_555 1_555
H6 C9 1_555 1_555
C10 H7 1_555 1_555
C11 H8 1_555 1_555
C12 C11 1_555 1_555
H9 C12 1_555 1_555
C13 H10 1_555 1_555
C14 H11 1_555 1_555
C15 C14 1_555 1_555
H12 C15 1_555 1_555
C16 C20 1_555 1_555
C17 C18 1_555 1_555
C18 C19 1_555 1_555
C19 H13 1_555 1_555
C20 C19 1_555 1_555
C21 C20 1_555 1_555
H14 C21 1_555 1_555
C22 C21 1_555 1_555
C23 C18 1_555 1_555
H15 C23 1_555 1_555
N1 C7 1_555 1_555
N2 C2 1_555 1_555
N3 C10 1_555 1_555
N4 C4 1_555 1_555
N5 C13 1_555 1_555
N6 C6 1_555 1_555
O1 Cd1 1_555 1_555
O2 Cd1 1_555 1_555
O3 C17 1_555 1_555
O4 C17 1_555 1_555
O5 C22 1_555 1_555
H16 O5 1_555 1_555
Cd1A N5 1_555 1_555
Cd1B N3 1_555 1_555
Cd1C O3 1_555 1_555
N3B Cd1 1_555 1_555
N5A Cd1 1_555 1_555
O3C Cd1 1_555 1_555
O4C Cd1 1_555 1_555
C5 C6 1_555 1_555
C7 N2 1_555 1_555
C8 N1 1_555 1_555
C9 N2 1_555 1_555
C10 N4 1_555 1_555
C11 N3 1_555 1_555
C12 N4 1_555 1_555
C13 N6 1_555 1_555
C14 N5 1_555 1_555
C15 N6 1_555 1_555
C16 O1 1_555 1_555
C16 O2 1_555 1_555
C22 C23 1_555 1_555
O4 Cd1C 1_555 1_555

#END
