
#######################################################################
#
#                 Cambridge Crystallographic Data Centre
#                                CCDC 
#
#######################################################################
#
# If this CIF has been generated from an entry in the Cambridge 
# Structural Database, then it will include bibliographic, chemical, 
# crystal, experimental, refinement or atomic coordinate data resulting 
# from the CCDC's data processing and validation procedures.
#
#######################################################################

data_TUKGOX
_symmetry_cell_setting           orthorhombic
_symmetry_space_group_name_H-M   'P 21 21 21'
_symmetry_Int_Tables_number      19
_space_group_name_Hall           'P 2ac 2ab'
loop_
_symmetry_equiv_pos_site_id
_symmetry_equiv_pos_as_xyz
1 x,y,z
2 1/2-x,-y,1/2+z
3 -x,1/2+y,1/2-z
4 1/2+x,1/2-y,-z
_cell_length_a                   10.4709(3)
_cell_length_b                   17.4983(5)
_cell_length_c                   18.6976(5)
_cell_angle_alpha                90
_cell_angle_beta                 90
_cell_angle_gamma                90
_cell_volume                     3425.83
loop_
_atom_site_label
_atom_site_type_symbol
_atom_site_fract_x
_atom_site_fract_y
_atom_site_fract_z
P1 P 0.83051(18) 0.47504(11) 0.14759(10)
O1 O 0.8272(4) 0.6229(3) 0.1958(2)
O2 O 0.6711(4) 0.4293(2) 0.3345(2)
O3 O 1.0525(4) 0.4179(2) 0.2060(2)
O4 O 1.0633(4) 0.5569(2) -0.0005(2)
N1 N 0.7472(5) 0.5341(3) 0.2726(3)
N2 N 0.7910(5) 0.4149(3) 0.2319(3)
N3 N 1.0773(5) 0.4912(3) 0.1070(3)
N4 N 0.8883(5) 0.5432(3) 0.0741(3)
Na1 Na 0.4890(2) 0.39951(15) 0.39054(13)
C1 C 0.8034(6) 0.5568(4) 0.2093(3)
C2 C 0.7340(6) 0.4538(4) 0.2822(4)
C3 C 0.7190(6) 0.5919(4) 0.3283(3)
H1 H 0.7403 0.6426 0.3067
C4 C 0.8052(6) 0.5829(4) 0.3924(3)
H2 H 0.8955 0.5832 0.3767
H3 H 0.7880 0.5333 0.4159
C5 C 0.7830(7) 0.6482(4) 0.4460(4)
H4 H 0.8348 0.6389 0.4894
H5 H 0.8119 0.6969 0.4245
O5 O 0.2864(4) 0.4355(2) 0.3489(2)
C6 C 0.6445(6) 0.6554(4) 0.4669(4)
H6 H 0.6336 0.7009 0.4978
H7 H 0.6191 0.6099 0.4950
O6 O 0.3951(4) 0.2918(2) 0.3415(2)
C7 C 0.5576(6) 0.6626(4) 0.4020(3)
H8 H 0.5751 0.7115 0.3773
H9 H 0.4673 0.6630 0.4178
C8 C 0.5787(6) 0.5961(4) 0.3498(3)
H10 H 0.5530 0.5475 0.3728
H11 H 0.5252 0.6035 0.3067
C9 C 0.7824(6) 0.3313(3) 0.2346(3)
H12 H 0.6952 0.3177 0.2524
C10 C 0.8789(6) 0.2994(4) 0.2873(3)
H13 H 0.8634 0.3222 0.3350
H14 H 0.9659 0.3143 0.2719
C11 C 0.8718(7) 0.2124(4) 0.2932(3)
H15 H 0.9396 0.1940 0.3258
H16 H 0.7882 0.1975 0.3136
C12 C 0.8881(6) 0.1758(4) 0.2205(3)
H17 H 0.8770 0.1198 0.2248
H18 H 0.9757 0.1856 0.2027
C13 C 0.7920(7) 0.2070(4) 0.1672(4)
H19 H 0.7048 0.1918 0.1819
H20 H 0.8088 0.1846 0.1195
C14 C 0.7995(7) 0.2944(4) 0.1623(3)
H21 H 0.8834 0.3094 0.1423
H22 H 0.7324 0.3132 0.1294
C15 C 1.0054(6) 0.4569(4) 0.1587(4)
C16 C 1.0085(7) 0.5342(4) 0.0551(4)
C17 C 1.2160(6) 0.4800(4) 0.0993(3)
H23 H 1.2459 0.5147 0.0603
C18 C 1.2493(6) 0.3994(4) 0.0777(4)
H24 H 1.2048 0.3865 0.0325
H25 H 1.2200 0.3634 0.1150
C19 C 1.3946(6) 0.3908(4) 0.0672(4)
H26 H 1.4151 0.3369 0.0559
H27 H 1.4225 0.4227 0.0263
C20 C 1.4658(7) 0.4148(4) 0.1340(4)
H28 H 1.4464 0.3784 0.1730
H29 H 1.5588 0.4126 0.1246
C21 C 1.4310(6) 0.4941(4) 0.1577(4)
H30 H 1.4611 0.5313 0.1216
H31 H 1.4749 0.5055 0.2033
C22 C 1.2858(6) 0.5036(4) 0.1680(3)
H32 H 1.2566 0.4714 0.2084
H33 H 1.2659 0.5576 0.1794
C23 C 0.8060(6) 0.5854(4) 0.0235(3)
H34 H 0.8264 0.5672 -0.0258
C24 C 0.6654(6) 0.5703(4) 0.0371(3)
H35 H 0.6431 0.5867 0.0863
H36 H 0.6483 0.5148 0.0332
C25 C 0.5825(7) 0.6136(4) -0.0168(3)
H37 H 0.5975 0.5927 -0.0653
H38 H 0.4913 0.6057 -0.0049
C26 C 0.6117(6) 0.6984(4) -0.0168(4)
H39 H 0.5623 0.7236 -0.0553
H40 H 0.5845 0.7208 0.0294
C27 C 0.7519(6) 0.7135(4) -0.0278(4)
H41 H 0.7684 0.7690 -0.0233
H42 H 0.7765 0.6977 -0.0768
C28 C 0.8332(7) 0.6704(4) 0.0264(4)
H43 H 0.9248 0.6795 0.0163
H44 H 0.8149 0.6898 0.0751
C29 C 0.2233(7) 0.4999(4) 0.3803(4)
H45 H 0.2080 0.4899 0.4312
H46 H 0.1416 0.5084 0.3560
H47 H 0.2772 0.5453 0.3752
C30 C 0.2097(7) 0.3687(4) 0.3514(4)
H48 H 0.1243 0.3797 0.3312
H49 H 0.1985 0.3521 0.4016
C31 C 0.2719(6) 0.3071(4) 0.3098(4)
H50 H 0.2185 0.2604 0.3108
H51 H 0.2825 0.3232 0.2594
C32 C 0.4583(7) 0.2290(4) 0.3082(4)
H52 H 0.4763 0.2416 0.2581
H53 H 0.4034 0.1837 0.3103
H54 H 0.5386 0.2186 0.3332
O4A O 0.4367(4) 0.4431(2) 0.4995(2)
Na1A Na 1.0110(2) 0.60049(15) -0.10946(13)
loop_
_geom_bond_atom_site_label_1
_geom_bond_atom_site_label_2
_geom_bond_site_symmetry_1
_geom_bond_site_symmetry_2
P1 N2 1_555 1_555
O1 C1 1_555 1_555
O2 Na1 1_555 1_555
O3 C15 1_555 1_555
O4 C16 1_555 1_555
N1 C1 1_555 1_555
N2 C2 1_555 1_555
N3 C15 1_555 1_555
N4 P1 1_555 1_555
Na1 O5 1_555 1_555
C1 P1 1_555 1_555
C2 O2 1_555 1_555
C3 N1 1_555 1_555
H1 C3 1_555 1_555
C4 C3 1_555 1_555
H2 C4 1_555 1_555
H3 C4 1_555 1_555
C5 C4 1_555 1_555
H4 C5 1_555 1_555
H5 C5 1_555 1_555
O5 C29 1_555 1_555
C6 C5 1_555 1_555
H6 C6 1_555 1_555
H7 C6 1_555 1_555
O6 Na1 1_555 1_555
C7 C6 1_555 1_555
H8 C7 1_555 1_555
H9 C7 1_555 1_555
C8 C3 1_555 1_555
H10 C8 1_555 1_555
H11 C8 1_555 1_555
C9 N2 1_555 1_555
H12 C9 1_555 1_555
C10 C9 1_555 1_555
H13 C10 1_555 1_555
H14 C10 1_555 1_555
C11 C10 1_555 1_555
H15 C11 1_555 1_555
H16 C11 1_555 1_555
C12 C11 1_555 1_555
H17 C12 1_555 1_555
H18 C12 1_555 1_555
C13 C12 1_555 1_555
H19 C13 1_555 1_555
H20 C13 1_555 1_555
C14 C9 1_555 1_555
H21 C14 1_555 1_555
H22 C14 1_555 1_555
C15 P1 1_555 1_555
C16 N3 1_555 1_555
C17 N3 1_555 1_555
H23 C17 1_555 1_555
C18 C17 1_555 1_555
H24 C18 1_555 1_555
H25 C18 1_555 1_555
C19 C18 1_555 1_555
H26 C19 1_555 1_555
H27 C19 1_555 1_555
C20 C19 1_555 1_555
H28 C20 1_555 1_555
H29 C20 1_555 1_555
C21 C20 1_555 1_555
H30 C21 1_555 1_555
H31 C21 1_555 1_555
C22 C17 1_555 1_555
H32 C22 1_555 1_555
H33 C22 1_555 1_555
C23 N4 1_555 1_555
H34 C23 1_555 1_555
C24 C23 1_555 1_555
H35 C24 1_555 1_555
H36 C24 1_555 1_555
C25 C24 1_555 1_555
H37 C25 1_555 1_555
H38 C25 1_555 1_555
C26 C25 1_555 1_555
H39 C26 1_555 1_555
H40 C26 1_555 1_555
C27 C26 1_555 1_555
H41 C27 1_555 1_555
H42 C27 1_555 1_555
C28 C23 1_555 1_555
H43 C28 1_555 1_555
H44 C28 1_555 1_555
C29 H45 1_555 1_555
H46 C29 1_555 1_555
H47 C29 1_555 1_555
C30 O5 1_555 1_555
H48 C30 1_555 1_555
H49 C30 1_555 1_555
C31 O6 1_555 1_555
H50 C31 1_555 1_555
H51 C31 1_555 1_555
C32 O6 1_555 1_555
H52 C32 1_555 1_555
H53 C32 1_555 1_555
H54 C32 1_555 1_555
O4A Na1 1_555 1_555
Na1A O4 1_555 1_555
N1 C2 1_555 1_555
N4 C16 1_555 1_555
C7 C8 1_555 1_555
C13 C14 1_555 1_555
C21 C22 1_555 1_555
C27 C28 1_555 1_555
C30 C31 1_555 1_555

#END
