
#######################################################################
#
#                 Cambridge Crystallographic Data Centre
#                                CCDC 
#
#######################################################################
#
# If this CIF has been generated from an entry in the Cambridge 
# Structural Database, then it will include bibliographic, chemical, 
# crystal, experimental, refinement or atomic coordinate data resulting 
# from the CCDC's data processing and validation procedures.
#
#######################################################################

data_TUKVEB
_symmetry_cell_setting           monoclinic
_symmetry_space_group_name_H-M   'C c'
_symmetry_Int_Tables_number      9
_space_group_name_Hall           'C -2yc'
loop_
_symmetry_equiv_pos_site_id
_symmetry_equiv_pos_as_xyz
1 x,y,z
2 x,-y,1/2+z
3 1/2+x,1/2+y,z
4 1/2+x,1/2-y,1/2+z
_cell_length_a                   13.6623(5)
_cell_length_b                   13.9688(6)
_cell_length_c                   18.0454(9)
_cell_angle_alpha                90
_cell_angle_beta                 111.235(3)
_cell_angle_gamma                90
_cell_volume                     3210.06
loop_
_atom_site_label
_atom_site_type_symbol
_atom_site_fract_x
_atom_site_fract_y
_atom_site_fract_z
B1 B 0.5485(4) 0.0930(4) 0.2400(3)
H1 H 0.473(3) 0.024(3) 0.237(2)
Li1 Li 0.7158(6) 0.1601(6) 0.5696(5)
N1 N 0.4777(4) 0.3697(3) 0.4935(3)
O1 O 0.6105(3) 0.2711(3) 0.5651(3)
C1 C 0.4487(7) 0.3995(8) 0.5534(6)
H3 H 0.3740 0.3927 0.5383
H4 H 0.4677 0.4655 0.5648
H5 H 0.4835 0.3615 0.5999
C2 C 0.4198(11) 0.4018(11) 0.4097(7)
H6 H 0.3557 0.3662 0.3875
H7 H 0.4627 0.3910 0.3785
H8 H 0.4040 0.4688 0.4093
C3 C 0.5591(5) 0.3068(6) 0.5022(5)
H9 H 0.5749 0.2914 0.4577
N2 N 0.4889(3) 0.1865(3) 0.2094(2)
N3 N 0.3624(3) 0.2879(3) 0.1392(3)
C4 C 0.4002(4) 0.1985(4) 0.1445(3)
C5 C 0.5105(4) 0.2774(4) 0.2451(3)
H10 H 0.5686 0.2925 0.2900
C6 C 0.4349(4) 0.3389(4) 0.2047(3)
H11 H 0.4305 0.4030 0.2170
C7 C 0.3519(5) 0.1250(5) 0.0861(4)
H12 H 0.4047 0.0808 0.0841
H13 H 0.3188 0.1540 0.0348
H14 H 0.3002 0.0915 0.1006
N4 N 0.6027(3) 0.0584(3) 0.1828(2)
N5 N 0.6777(3) -0.0397(3) 0.1199(3)
C8 C 0.6398(4) -0.0303(4) 0.1773(3)
C9 C 0.6222(4) 0.1115(4) 0.1238(3)
H15 H 0.6098 0.1764 0.1131
C10 C 0.6627(4) 0.0486(4) 0.0854(3)
H16 H 0.6785 0.0639 0.0408
C11 C 0.6390(5) -0.1124(4) 0.2319(4)
H17 H 0.6687 -0.0915 0.2862
H18 H 0.6796 -0.1646 0.2237
H19 H 0.5680 -0.1332 0.2204
N6 N 0.6284(3) 0.1086(3) 0.3240(2)
N7 N 0.6952(3) 0.1347(3) 0.4550(2)
C12 C 0.6117(3) 0.1124(3) 0.3931(3)
C13 C 0.7359(4) 0.1272(4) 0.3448(3)
H20 H 0.7748 0.1280 0.3119
C14 C 0.7699(4) 0.1436(4) 0.4238(3)
H21 H 0.8390 0.1597 0.4538
C15 C 0.5080(4) 0.0993(4) 0.3995(4)
H22 H 0.4738 0.1602 0.3947
H23 H 0.5167 0.0713 0.4501
H24 H 0.4659 0.0577 0.3577
Li1A Li 0.7158(6) -0.1601(6) 0.0696(5)
Li1C Li 0.2158(6) 0.3399(6) 0.0696(5)
N3C N 0.8624(3) 0.2121(3) 0.6392(3)
N5A N 0.6777(3) 0.0397(3) 0.6199(3)
B2 B 0.6689(4) 0.6560(4) 0.3951(4)
H2 H 0.717(3) 0.693(2) 0.397(2)
Li2 Li 0.8086(7) 0.3652(7) 0.2306(6)
N8 N 0.5572(3) 0.6803(3) 0.3389(2)
N9 N 0.4129(3) 0.7657(4) 0.2730(3)
C16 C 0.5055(4) 0.7629(4) 0.3332(3)
C17 C 0.4904(4) 0.6239(4) 0.2743(3)
H25 H 0.5033 0.5617 0.2617
C18 C 0.4055(3) 0.6770(4) 0.2351(3)
H26 H 0.3503 0.6579 0.1896
C19 C 0.5452(6) 0.8391(4) 0.3950(4)
H27 H 0.5895 0.8108 0.4442
H28 H 0.4869 0.8703 0.4025
H29 H 0.5848 0.8852 0.3779
N10 N 0.6716(3) 0.6433(3) 0.4816(2)
N11 N 0.7303(4) 0.6269(4) 0.6116(3)
C20 C 0.7509(4) 0.6427(4) 0.5485(3)
C21 C 0.5845(4) 0.6274(4) 0.5036(3)
H30 H 0.5144 0.6249 0.4700
C22 C 0.6237(4) 0.6164(4) 0.5843(3)
H31 H 0.5841 0.6037 0.6156
C23 C 0.8667(4) 0.6477(5) 0.5515(4)
H32 H 0.9126 0.6642 0.6044
H33 H 0.8720 0.6955 0.5149
H34 H 0.8867 0.5866 0.5372
N12 N 0.7040(3) 0.5581(3) 0.3672(2)
N13 N 0.7620(3) 0.4510(3) 0.3028(3)
C24 C 0.7363(4) 0.5419(4) 0.3065(3)
C25 C 0.7122(4) 0.4715(4) 0.4057(3)
H35 H 0.6962 0.4596 0.4507
C26 C 0.7474(4) 0.4088(4) 0.3664(4)
H36 H 0.7604 0.3446 0.3801
C27 C 0.7394(5) 0.6219(5) 0.2510(4)
H37 H 0.7790 0.6017 0.2194
H38 H 0.7721 0.6772 0.2816
H39 H 0.6691 0.6376 0.2169
Li2A Li 0.8086(7) 0.6348(7) 0.7306(6)
Li2B Li 0.3086(7) 0.8652(7) 0.2306(6)
N9B N 0.9129(3) 0.2657(4) 0.2730(3)
N11A N 0.7303(4) 0.3731(4) 0.1116(3)
loop_
_geom_bond_atom_site_label_1
_geom_bond_atom_site_label_2
_geom_bond_site_symmetry_1
_geom_bond_site_symmetry_2
B1 H1 1_555 1_555
B2 H2 1_555 1_555
Li1 O1 1_555 1_555
Li2 N13 1_555 1_555
N1 C1 1_555 1_555
O1 C3 1_555 1_555
C1 H3 1_555 1_555
H4 C1 1_555 1_555
H5 C1 1_555 1_555
C2 N1 1_555 1_555
H6 C2 1_555 1_555
H7 C2 1_555 1_555
H8 C2 1_555 1_555
C3 N1 1_555 1_555
H9 C3 1_555 1_555
N2 B1 1_555 1_555
N3 C4 1_555 1_555
C4 N2 1_555 1_555
C5 N2 1_555 1_555
H10 C5 1_555 1_555
C6 N3 1_555 1_555
H11 C6 1_555 1_555
C7 C4 1_555 1_555
H12 C7 1_555 1_555
H13 C7 1_555 1_555
H14 C7 1_555 1_555
N4 B1 1_555 1_555
N5 C8 1_555 1_555
C8 N4 1_555 1_555
C9 N4 1_555 1_555
H15 C9 1_555 1_555
C10 N5 1_555 1_555
H16 C10 1_555 1_555
C11 C8 1_555 1_555
H17 C11 1_555 1_555
H18 C11 1_555 1_555
H19 C11 1_555 1_555
N6 B1 1_555 1_555
N7 Li1 1_555 1_555
C12 N6 1_555 1_555
C13 N6 1_555 1_555
H20 C13 1_555 1_555
C14 N7 1_555 1_555
H21 C14 1_555 1_555
C15 C12 1_555 1_555
H22 C15 1_555 1_555
H23 C15 1_555 1_555
H24 C15 1_555 1_555
N8 B2 1_555 1_555
N9 C16 1_555 1_555
C16 N8 1_555 1_555
C17 N8 1_555 1_555
H25 C17 1_555 1_555
C18 N9 1_555 1_555
H26 C18 1_555 1_555
C19 C16 1_555 1_555
H27 C19 1_555 1_555
H28 C19 1_555 1_555
H29 C19 1_555 1_555
N10 B2 1_555 1_555
N11 C20 1_555 1_555
C20 N10 1_555 1_555
C21 N10 1_555 1_555
H30 C21 1_555 1_555
C22 N11 1_555 1_555
H31 C22 1_555 1_555
C23 C20 1_555 1_555
H32 C23 1_555 1_555
H33 C23 1_555 1_555
H34 C23 1_555 1_555
N12 B2 1_555 1_555
N13 C24 1_555 1_555
C24 N12 1_555 1_555
C25 N12 1_555 1_555
H35 C25 1_555 1_555
C26 N13 1_555 1_555
H36 C26 1_555 1_555
C27 C24 1_555 1_555
H37 C27 1_555 1_555
H38 C27 1_555 1_555
H39 C27 1_555 1_555
Li1A N5 1_555 1_555
Li1C N3 1_555 1_555
Li2A N11 1_555 1_555
Li2B N9 1_555 1_555
N3C Li1 1_555 1_555
N5A Li1 1_555 1_555
N9B Li2 1_555 1_555
N11A Li2 1_555 1_555
C5 C6 1_555 1_555
C9 C10 1_555 1_555
N7 C12 1_555 1_555
C13 C14 1_555 1_555
C17 C18 1_555 1_555
C21 C22 1_555 1_555
C25 C26 1_555 1_555

#END
