
#######################################################################
#
#                 Cambridge Crystallographic Data Centre
#                                CCDC 
#
#######################################################################
#
# If this CIF has been generated from an entry in the Cambridge 
# Structural Database, then it will include bibliographic, chemical, 
# crystal, experimental, refinement or atomic coordinate data resulting 
# from the CCDC's data processing and validation procedures.
#
#######################################################################

data_TULBIM
_symmetry_cell_setting           triclinic
_symmetry_space_group_name_H-M   'P -1'
_symmetry_Int_Tables_number      2
_space_group_name_Hall           '-P 1'
loop_
_symmetry_equiv_pos_site_id
_symmetry_equiv_pos_as_xyz
1 x,y,z
2 -x,-y,-z
_cell_length_a                   8.1509(2)
_cell_length_b                   12.1445(3)
_cell_length_c                   21.4385(5)
_cell_angle_alpha                77.4690(10)
_cell_angle_beta                 86.3790(10)
_cell_angle_gamma                79.9410(10)
_cell_volume                     2039.07
loop_
_atom_site_label
_atom_site_type_symbol
_atom_site_fract_x
_atom_site_fract_y
_atom_site_fract_z
Bi1 Bi 0.72146(7) 0.02496(5) 0.01096(2)
O1 O 0.7212(13) -0.1876(9) 0.0828(5)
O2 O 0.8428(12) -0.0556(9) 0.1094(5)
O3 O 0.5789(15) -0.4009(10) 0.2199(5)
O4 O 0.5492(15) -0.2171(10) 0.2066(5)
O5 O 0.9876(13) 0.1369(9) 0.0133(5)
O6 O 0.7373(12) 0.1768(8) 0.0549(4)
O7 O 0.5677(17) 0.3354(12) 0.1478(6)
O8 O 0.7410(16) 0.1848(11) 0.1885(6)
O9 O 0.5214(13) -0.0375(9) -0.0539(5)
O10 O 0.6118(13) 0.2000(9) -0.0722(5)
H1 H 0.5222 0.1935 -0.0874
N1 N 0.6335(15) -0.3107(11) 0.2125(6)
N2 N 0.7065(16) 0.2792(11) 0.1542(6)
C1 C 0.8086(18) -0.1556(13) 0.1182(7)
C2 C 0.8953(18) -0.2413(12) 0.1736(7)
C3 C 0.8166(19) -0.3214(13) 0.2154(7)
C4 C 0.8963(18) -0.4016(13) 0.2635(7)
H3 H 0.8365 -0.4534 0.2917
C5 C 1.0649(19) -0.4067(14) 0.2709(7)
H4 H 1.1225 -0.4625 0.3039
C6 C 1.149(2) -0.3294(14) 0.2295(7)
H5 H 1.2647 -0.3324 0.2342
C7 C 1.0657(18) -0.2483(13) 0.1816(7)
H6 H 1.1254 -0.1964 0.1535
C8 C 0.8901(18) 0.1904(13) 0.0458(7)
C9 C 0.9398(18) 0.2826(13) 0.0726(7)
C10 C 0.8461(19) 0.3307(13) 0.1206(7)
C11 C 0.8861(19) 0.4222(13) 0.1423(7)
H7 H 0.8208 0.4526 0.1748
C12 C 1.023(2) 0.4672(14) 0.1149(7)
H8 H 1.0523 0.5309 0.1283
C13 C 1.120(2) 0.4221(15) 0.0686(8)
H9 H 1.2172 0.4526 0.0516
C14 C 1.076(2) 0.3309(14) 0.0465(8)
H10 H 1.1399 0.3024 0.0132
C15 C 0.563(2) -0.0833(14) -0.1092(7)
H11 H 0.4671 -0.0612 -0.1381
H12 H 0.5856 -0.1678 -0.0968
C16 C 0.713(2) -0.0411(15) -0.1439(8)
H13 H 0.6861 0.0414 -0.1608
H14 H 0.7459 -0.0805 -0.1792
H15 H 0.8050 -0.0568 -0.1142
C17 C 0.6190(19) 0.3211(13) -0.0771(7)
H16 H 0.6158 0.3602 -0.1227
H17 H 0.7261 0.3282 -0.0602
C18 C 0.480(2) 0.3788(15) -0.0419(8)
H18 H 0.3740 0.3674 -0.0562
H19 H 0.4850 0.4608 -0.0500
H20 H 0.4904 0.3464 0.0040
Bi1A Bi 0.27854(7) -0.02496(5) -0.01096(2)
O9A O 0.4786(13) 0.0375(9) 0.0539(5)
Bi2 Bi 0.71759(7) 0.53760(5) 0.49092(3)
O11 O 0.5931(13) 0.6906(9) 0.5296(5)
O12 O 0.7905(13) 0.6204(9) 0.6010(5)
O13 O 0.6038(15) 0.5911(10) 0.7213(5)
O14 O 0.7874(17) 0.6710(12) 0.7552(6)
O15 O 0.7563(13) 0.6891(9) 0.4106(5)
O16 O 0.9985(14) 0.6472(10) 0.4577(5)
O17 O 0.9174(16) 0.8410(11) 0.5131(6)
O18 O 1.1560(16) 0.9001(11) 0.4984(6)
O19 O 0.4936(12) 0.5494(8) 0.4415(4)
O20 O 0.8473(14) 0.4297(9) 0.4021(5)
H2 H 0.9452 0.4017 0.4134
N3 N 0.6721(17) 0.6726(12) 0.7212(6)
N4 N 1.0327(17) 0.8765(12) 0.4778(6)
C19 C 0.6671(16) 0.6902(11) 0.5813(6)
C20 C 0.596(2) 0.7891(14) 0.6126(7)
C21 C 0.6110(19) 0.7811(14) 0.6788(7)
C22 C 0.555(2) 0.8733(15) 0.7065(8)
H21 H 0.5664 0.8666 0.7511
C23 C 0.483(2) 0.9757(16) 0.6693(8)
H22 H 0.4465 1.0401 0.6880
C24 C 0.464(2) 0.9844(16) 0.6050(8)
H23 H 0.4133 1.0549 0.5796
C25 C 0.5173(19) 0.8929(14) 0.5777(7)
H24 H 0.5000 0.9000 0.5334
C26 C 0.897(2) 0.7119(14) 0.4199(7)
C27 C 0.9352(18) 0.8243(13) 0.3826(7)
C28 C 1.0133(19) 0.8994(13) 0.4088(7)
C29 C 1.063(2) 0.9965(14) 0.3726(7)
H25 H 1.1163 1.0437 0.3918
C30 C 1.033(2) 1.0242(15) 0.3083(7)
H26 H 1.0673 1.0911 0.2828
C31 C 0.954(2) 0.9556(15) 0.2801(8)
H27 H 0.9330 0.9760 0.2357
C32 C 0.907(2) 0.8564(14) 0.3176(7)
H28 H 0.8538 0.8096 0.2980
C33 C 0.4644(19) 0.6051(13) 0.3763(7)
H29 H 0.3973 0.5617 0.3567
H30 H 0.5722 0.6065 0.3524
C34 C 0.374(2) 0.7245(15) 0.3719(8)
H31 H 0.2684 0.7231 0.3960
H32 H 0.3529 0.7605 0.3270
H33 H 0.4430 0.7683 0.3897
C35 C 0.767(2) 0.3420(17) 0.3872(9)
H34 H 0.6501 0.3753 0.3768
H35 H 0.7659 0.2807 0.4261
C36 C 0.842(3) 0.290(2) 0.3351(10)
H36 H 0.8599 0.3505 0.2978
H37 H 0.7684 0.2425 0.3239
H38 H 0.9498 0.2430 0.3482
Bi2A Bi 0.28241(7) 0.46240(5) 0.50908(3)
O19A O 0.5064(12) 0.4506(8) 0.5585(4)
loop_
_geom_bond_atom_site_label_1
_geom_bond_atom_site_label_2
_geom_bond_site_symmetry_1
_geom_bond_site_symmetry_2
Bi1 O1 1_555 1_555
Bi2 O11 1_555 1_555
O1 C1 1_555 1_555
O2 Bi1 1_555 1_555
O3 N1 1_555 1_555
O4 N1 1_555 1_555
O5 Bi1 1_555 1_555
O6 Bi1 1_555 1_555
O7 N2 1_555 1_555
O8 N2 1_555 1_555
O9 Bi1 1_555 1_555
O10 Bi1 1_555 1_555
H1 O10 1_555 1_555
O11 C19 1_555 1_555
O12 Bi2 1_555 1_555
O13 N3 1_555 1_555
O14 N3 1_555 1_555
O15 Bi2 1_555 1_555
O16 Bi2 1_555 1_555
O17 N4 1_555 1_555
O18 N4 1_555 1_555
O19 Bi2 1_555 1_555
O20 Bi2 1_555 1_555
H2 O20 1_555 1_555
N1 C3 1_555 1_555
N2 C10 1_555 1_555
N3 C21 1_555 1_555
N4 C28 1_555 1_555
C1 O2 1_555 1_555
C2 C1 1_555 1_555
C3 C2 1_555 1_555
C4 C3 1_555 1_555
H3 C4 1_555 1_555
C5 C4 1_555 1_555
H4 C5 1_555 1_555
C6 C5 1_555 1_555
H5 C6 1_555 1_555
C7 C2 1_555 1_555
H6 C7 1_555 1_555
C8 O5 1_555 1_555
C9 C8 1_555 1_555
C10 C9 1_555 1_555
C11 C10 1_555 1_555
H7 C11 1_555 1_555
C12 C11 1_555 1_555
H8 C12 1_555 1_555
C13 C12 1_555 1_555
H9 C13 1_555 1_555
C14 C9 1_555 1_555
H10 C14 1_555 1_555
C15 O9 1_555 1_555
H11 C15 1_555 1_555
H12 C15 1_555 1_555
C16 C15 1_555 1_555
H13 C16 1_555 1_555
H14 C16 1_555 1_555
H15 C16 1_555 1_555
C17 O10 1_555 1_555
H16 C17 1_555 1_555
H17 C17 1_555 1_555
C18 C17 1_555 1_555
H18 C18 1_555 1_555
H19 C18 1_555 1_555
H20 C18 1_555 1_555
C19 O12 1_555 1_555
C20 C19 1_555 1_555
C21 C20 1_555 1_555
C22 C21 1_555 1_555
H21 C22 1_555 1_555
C23 C22 1_555 1_555
H22 C23 1_555 1_555
C24 C23 1_555 1_555
H23 C24 1_555 1_555
C25 C20 1_555 1_555
H24 C25 1_555 1_555
C26 O15 1_555 1_555
C27 C26 1_555 1_555
C28 C27 1_555 1_555
C29 C28 1_555 1_555
H25 C29 1_555 1_555
C30 C29 1_555 1_555
H26 C30 1_555 1_555
C31 C30 1_555 1_555
H27 C31 1_555 1_555
C32 C27 1_555 1_555
H28 C32 1_555 1_555
C33 O19 1_555 1_555
H29 C33 1_555 1_555
H30 C33 1_555 1_555
C34 C33 1_555 1_555
H31 C34 1_555 1_555
H32 C34 1_555 1_555
H33 C34 1_555 1_555
C35 O20 1_555 1_555
H34 C35 1_555 1_555
H35 C35 1_555 1_555
C36 C35 1_555 1_555
H36 C36 1_555 1_555
H37 C36 1_555 1_555
H38 C36 1_555 1_555
Bi1A O9 1_555 1_555
Bi2A O19 1_555 1_555
O9A Bi1 1_555 1_555
O19A Bi2 1_555 1_555
O6 C8 1_555 1_555
O16 C26 1_555 1_555
C6 C7 1_555 1_555
C13 C14 1_555 1_555
C24 C25 1_555 1_555
C31 C32 1_555 1_555
Bi1A O9A 1_555 1_555
Bi2A O19A 1_555 1_555

#END
