
#######################################################################
#
#                 Cambridge Crystallographic Data Centre
#                                CCDC 
#
#######################################################################
#
# If this CIF has been generated from an entry in the Cambridge 
# Structural Database, then it will include bibliographic, chemical, 
# crystal, experimental, refinement or atomic coordinate data resulting 
# from the CCDC's data processing and validation procedures.
#
#######################################################################

data_TULBOS
_symmetry_cell_setting           monoclinic
_symmetry_space_group_name_H-M   'P 21/n'
_symmetry_Int_Tables_number      14
_space_group_name_Hall           '-P 2yn'
loop_
_symmetry_equiv_pos_site_id
_symmetry_equiv_pos_as_xyz
1 x,y,z
2 1/2-x,1/2+y,1/2-z
3 -x,-y,-z
4 1/2+x,1/2-y,1/2+z
_cell_length_a                   13.571(3)
_cell_length_b                   9.2657(19)
_cell_length_c                   13.700(3)
_cell_angle_alpha                90
_cell_angle_beta                 100.25(3)
_cell_angle_gamma                90
_cell_volume                     1695.21
loop_
_atom_site_label
_atom_site_type_symbol
_atom_site_fract_x
_atom_site_fract_y
_atom_site_fract_z
Bi1 Bi 0.293561(8) 0.645875(11) 0.227678(8)
O1 O 0.43489(15) 0.7734(2) 0.29830(15)
O2 O 0.32816(15) 0.9414(2) 0.33114(14)
O3 O 0.66183(18) 0.8062(3) 0.22736(18)
O4 O 0.52367(18) 0.8939(3) 0.14501(16)
N1 N 0.5900(2) 0.8881(3) 0.21841(19)
C1 C 0.4132(2) 0.9018(3) 0.3205(2)
C2 C 0.4992(2) 1.0060(3) 0.3402(2)
C3 C 0.5854(2) 0.9924(3) 0.2986(2)
C4 C 0.6679(2) 1.0811(3) 0.3245(2)
H1 H 0.7258 1.0685 0.2953
C5 C 0.6644(3) 1.1885(4) 0.3940(2)
H2 H 0.7203 1.2505 0.4129
C6 C 0.5796(2) 1.2056(3) 0.4359(2)
H3 H 0.5774 1.2796 0.4835
C7 C 0.4980(2) 1.1153(3) 0.4088(2)
H4 H 0.4401 1.1286 0.4379
C8 C 0.4032(2) 0.5022(3) 0.1716(2)
C9 C 0.5018(2) 0.4836(3) 0.2172(2)
H5 H 0.5259 0.5308 0.2783
C10 C 0.5658(3) 0.3971(4) 0.1748(3)
H6 H 0.6330 0.3837 0.2075
C11 C 0.5319(3) 0.3299(4) 0.0848(3)
H7 H 0.5761 0.2709 0.0556
C12 C 0.4343(3) 0.3482(4) 0.0374(3)
H8 H 0.4112 0.3029 -0.0247
C13 C 0.3695(3) 0.4340(4) 0.0812(2)
H9 H 0.3019 0.4458 0.0492
C14 C 0.2913(2) 0.5345(3) 0.3728(2)
C15 C 0.2017(2) 0.5431(3) 0.4089(2)
H10 H 0.1473 0.5970 0.3736
C16 C 0.1918(2) 0.4736(4) 0.4960(2)
H11 H 0.1303 0.4790 0.5198
C17 C 0.2712(3) 0.3959(4) 0.5486(2)
H12 H 0.2642 0.3482 0.6084
C18 C 0.3608(3) 0.3882(3) 0.5135(2)
H13 H 0.4157 0.3364 0.5499
C19 C 0.3703(2) 0.4561(3) 0.4252(2)
H14 H 0.4313 0.4488 0.4007
Bi1A Bi 0.206439(8) 1.145875(11) 0.272322(8)
O2A O 0.17184(15) 0.4414(2) 0.16886(14)
loop_
_geom_bond_atom_site_label_1
_geom_bond_atom_site_label_2
_geom_bond_site_symmetry_1
_geom_bond_site_symmetry_2
Bi1 O1 1_555 1_555
O1 C1 1_555 1_555
O2 C1 1_555 1_555
O3 N1 1_555 1_555
O4 N1 1_555 1_555
N1 C3 1_555 1_555
C1 C2 1_555 1_555
C2 C3 1_555 1_555
C3 C4 1_555 1_555
C4 H1 1_555 1_555
C5 C4 1_555 1_555
H2 C5 1_555 1_555
C6 C5 1_555 1_555
H3 C6 1_555 1_555
C7 C2 1_555 1_555
H4 C7 1_555 1_555
C8 Bi1 1_555 1_555
C9 C8 1_555 1_555
H5 C9 1_555 1_555
C10 C9 1_555 1_555
H6 C10 1_555 1_555
C11 C10 1_555 1_555
H7 C11 1_555 1_555
C12 C11 1_555 1_555
H8 C12 1_555 1_555
C13 C8 1_555 1_555
H9 C13 1_555 1_555
C14 Bi1 1_555 1_555
C15 C14 1_555 1_555
H10 C15 1_555 1_555
C16 C15 1_555 1_555
H11 C16 1_555 1_555
C17 C16 1_555 1_555
H12 C17 1_555 1_555
C18 C17 1_555 1_555
H13 C18 1_555 1_555
C19 C14 1_555 1_555
H14 C19 1_555 1_555
Bi1A O2 1_555 1_555
O2A Bi1 1_555 1_555
C6 C7 1_555 1_555
C12 C13 1_555 1_555
C18 C19 1_555 1_555

#END
