
#######################################################################
#
#                 Cambridge Crystallographic Data Centre
#                                CCDC 
#
#######################################################################
#
# If this CIF has been generated from an entry in the Cambridge 
# Structural Database, then it will include bibliographic, chemical, 
# crystal, experimental, refinement or atomic coordinate data resulting 
# from the CCDC's data processing and validation procedures.
#
#######################################################################

data_TULGOY
_symmetry_cell_setting           monoclinic
_symmetry_space_group_name_H-M   'C c'
_symmetry_Int_Tables_number      9
_space_group_name_Hall           'C -2yc'
loop_
_symmetry_equiv_pos_site_id
_symmetry_equiv_pos_as_xyz
1 x,y,z
2 x,-y,1/2+z
3 1/2+x,1/2+y,z
4 1/2+x,1/2-y,1/2+z
_cell_length_a                   13.533(3)
_cell_length_b                   12.990(3)
_cell_length_c                   25.768(5)
_cell_angle_alpha                90
_cell_angle_beta                 104.22(3)
_cell_angle_gamma                90
_cell_volume                     4391.06
loop_
_atom_site_label
_atom_site_type_symbol
_atom_site_fract_x
_atom_site_fract_y
_atom_site_fract_z
Pr1 Pr 0.135535(14) 0.210374(17) 0.217321(10)
O1 O -0.0031(3) 0.2682(3) 0.25638(15)
O2 O 0.2812(2) 0.3195(3) 0.21964(14)
O3 O 0.0748(3) 0.0505(3) 0.25424(16)
O4 O 0.2797(3) 0.0802(3) 0.22361(16)
O5 O -0.2795(3) 0.7025(2) 0.31248(14)
O6 O 0.5762(3) -0.1421(3) 0.16184(15)
O7 O -0.0228(3) 0.1321(3) 0.15515(15)
O8 O 0.1219(3) 0.1156(3) 0.13233(16)
C1 C 0.0202(3) 0.3542(3) 0.27891(19)
Pr2 Pr 0.258512(16) 0.493674(16) 0.281161(11)
C2 C 0.3734(3) 0.3472(3) 0.2259(2)
H1 H 0.020(5) 0.016(7) 0.244(4)
H2 H 0.103(7) 0.037(8) 0.2867(14)
H3 H 0.3358 0.1065 0.2409
H4 H 0.2918 0.0446 0.1983
C3 C 0.0297(4) 0.0922(4) 0.1271(2)
C4 C -0.0537(3) 0.4039(3) 0.30610(17)
O9 O 0.1022(2) 0.3994(3) 0.27836(14)
O10 O 0.4088(3) 0.4207(3) 0.25541(17)
O11 O -0.2638(3) -0.0498(3) -0.12841(13)
O12 O -0.3183(3) -0.1586(3) -0.19428(14)
O13 O 0.3332(3) 0.6295(3) 0.23042(14)
O14 O 0.4233(3) 0.5672(3) 0.34121(16)
O15 O -0.1953(3) 0.8483(2) 0.34054(14)
O16 O 0.6634(3) 0.0044(2) 0.18439(14)
C5 C 0.4405(4) 0.2935(3) 0.1964(2)
C6 C -0.0181(4) 0.0129(4) 0.0855(2)
C7 C -0.1462(4) 0.3564(3) 0.3055(2)
C8 C -0.0310(4) 0.4973(4) 0.3319(2)
H5 H 0.393(3) 0.653(8) 0.239(3)
H6 H 0.316(7) 0.614(8) 0.1975(12)
H7 H 0.486(2) 0.554(8) 0.344(4)
H8 H 0.418(7) 0.610(6) 0.365(3)
C9 C 0.5439(4) 0.3077(4) 0.2138(2)
C10 C 0.4012(4) 0.2316(4) 0.1522(2)
C11 C -0.1220(4) -0.0074(4) 0.0746(2)
C12 C 0.0422(5) -0.0379(5) 0.0567(2)
H9 H -0.1611 0.2910 0.2890
C13 C -0.2161(4) 0.4025(4) 0.3285(2)
C14 C -0.0996(4) 0.5440(4) 0.3564(2)
H10 H 0.0323 0.5298 0.3328
H11 H 0.5704 0.3486 0.2447
C15 C 0.6097(4) 0.2633(4) 0.1870(3)
C16 C 0.4672(4) 0.1870(4) 0.1257(2)
H12 H 0.3299 0.2202 0.1404
C17 C -0.1652(4) -0.0744(4) 0.0337(2)
H13 H -0.1629 0.0246 0.0951
C18 C -0.0024(4) -0.1022(4) 0.0153(2)
H14 H 0.1139 -0.0280 0.0658
H15 H -0.2795 0.3699 0.3271
C19 C -0.1937(4) 0.4979(4) 0.3541(2)
H16 H -0.0826 0.6074 0.3748
H17 H 0.6811 0.2741 0.1993
C20 C 0.5718(4) 0.2035(3) 0.1427(2)
H18 H 0.4410 0.1445 0.0954
H19 H -0.2361 -0.0889 0.0266
C21 C -0.1064(4) -0.1211(4) 0.00280(19)
H20 H 0.0386 -0.1342 -0.0052
C22 C -0.2733(4) 0.5472(4) 0.3773(2)
C23 C 0.6445(4) 0.1584(4) 0.1141(2)
C24 C -0.1512(4) -0.1842(4) -0.0452(2)
C25 C -0.2438(4) 0.6303(4) 0.4184(2)
O17 O -0.3608(3) 0.5148(3) 0.36524(16)
C26 C 0.6081(4) 0.0715(4) 0.07574(18)
O18 O 0.7278(3) 0.1951(3) 0.11792(15)
O19 O -0.1020(3) -0.2046(3) -0.07769(16)
C27 C -0.2584(4) -0.2233(4) -0.05560(18)
C28 C -0.2364(4) 0.6013(5) 0.4713(2)
C29 C -0.2230(4) 0.7312(4) 0.4059(2)
C30 C 0.5912(5) 0.0921(5) 0.0217(2)
C31 C 0.5898(4) -0.0286(4) 0.09245(19)
C32 C -0.3257(4) -0.2103(3) -0.10614(18)
C33 C -0.2884(4) -0.2855(4) -0.0180(2)
H21 H -0.2492 0.5322 0.4798
C34 C -0.2102(5) 0.6743(5) 0.5109(2)
C35 C -0.1980(5) 0.8024(5) 0.4470(2)
C36 C -0.2333(3) 0.7632(3) 0.3485(2)
H22 H 0.6045 0.1592 0.0103
C37 C 0.5553(6) 0.0167(5) -0.0161(3)
C38 C 0.5542(4) -0.1037(4) 0.0536(2)
C39 C 0.6110(4) -0.0567(4) 0.1504(2)
C40 C -0.3007(3) -0.1356(3) -0.14583(18)
C41 C -0.4179(4) -0.2622(4) -0.1185(2)
C42 C -0.3823(5) -0.3347(5) -0.0306(2)
H23 H -0.2440 -0.2943 0.0165
H24 H -0.2047 0.6549 0.5470
C43 C -0.1918(5) 0.7752(5) 0.4993(2)
H25 H -0.1848 0.8716 0.4389
H26 H 0.5433 0.0323 -0.0532
C44 C 0.5372(5) -0.0803(5) -0.0003(2)
H27 H 0.5416 -0.1715 0.0642
C45 C -0.4465(4) -0.3238(4) -0.0811(2)
H28 H -0.4621 -0.2551 -0.1532
H29 H -0.4025 -0.3758 -0.0045
H30 H -0.1752 0.8251 0.5270
H31 H 0.5127 -0.1320 -0.0263
H32 H -0.5101 -0.3588 -0.0901
Pr1B Pr -0.364465(14) 0.710374(17) 0.217321(10)
Pr1B_2 Pr 0.635535(14) -0.289626(17) 0.217321(10)
O5B O 0.2205(3) 0.2025(2) 0.31248(14)
O6B O 0.0762(3) 0.3579(3) 0.16184(15)
Pr2B Pr -0.241488(16) 0.993674(16) 0.281161(11)
Pr2B_2 Pr 0.758512(16) -0.006326(16) 0.281161(11)
Pr2C Pr -0.241488(16) 0.006326(16) -0.218839(11)
O11C O 0.2362(3) 0.5498(3) 0.37159(13)
O12C O 0.1817(3) 0.6586(3) 0.30572(14)
O15B O 0.3047(3) 0.3483(2) 0.34054(14)
O16B O 0.1634(3) 0.5044(2) 0.18439(14)
O20 O 0.8361(5) 0.5972(5) 0.6582(3)
loop_
_geom_bond_atom_site_label_1
_geom_bond_atom_site_label_2
_geom_bond_site_symmetry_1
_geom_bond_site_symmetry_2
Pr1 O1 1_555 1_555
O1 C1 1_555 1_555
O2 Pr1 1_555 1_555
O3 Pr1 1_555 1_555
O4 Pr1 1_555 1_555
O5 C36 1_555 1_555
O6 C39 1_555 1_555
O7 Pr1 1_555 1_555
O8 Pr1 1_555 1_555
C1 C4 1_555 1_555
Pr2 O9 1_555 1_555
C2 O2 1_555 1_555
H1 O3 1_555 1_555
H2 O3 1_555 1_555
H3 O4 1_555 1_555
H4 O4 1_555 1_555
C3 O7 1_555 1_555
C4 C7 1_555 1_555
O9 C1 1_555 1_555
O10 Pr2 1_555 1_555
O11 C40 1_555 1_555
O12 C40 1_555 1_555
O13 Pr2 1_555 1_555
O14 Pr2 1_555 1_555
O15 C36 1_555 1_555
O16 C39 1_555 1_555
C5 C2 1_555 1_555
C6 C3 1_555 1_555
C7 H9 1_555 1_555
C8 C4 1_555 1_555
H5 O13 1_555 1_555
H6 O13 1_555 1_555
H7 O14 1_555 1_555
H8 O14 1_555 1_555
C9 C5 1_555 1_555
C10 C5 1_555 1_555
C11 C6 1_555 1_555
C12 C6 1_555 1_555
C13 C7 1_555 1_555
C14 C8 1_555 1_555
H10 C8 1_555 1_555
H11 C9 1_555 1_555
C15 C9 1_555 1_555
C16 C10 1_555 1_555
H12 C10 1_555 1_555
C17 C11 1_555 1_555
H13 C11 1_555 1_555
C18 C12 1_555 1_555
H14 C12 1_555 1_555
H15 C13 1_555 1_555
C19 C13 1_555 1_555
H16 C14 1_555 1_555
H17 C15 1_555 1_555
C20 C15 1_555 1_555
H18 C16 1_555 1_555
H19 C17 1_555 1_555
C21 C17 1_555 1_555
H20 C18 1_555 1_555
C22 C19 1_555 1_555
C23 C20 1_555 1_555
C24 C21 1_555 1_555
C25 C22 1_555 1_555
O17 C22 1_555 1_555
C26 C23 1_555 1_555
O18 C23 1_555 1_555
O19 C24 1_555 1_555
C27 C24 1_555 1_555
C28 C25 1_555 1_555
C29 C25 1_555 1_555
C30 C26 1_555 1_555
C31 C26 1_555 1_555
C32 C27 1_555 1_555
C33 C27 1_555 1_555
H21 C28 1_555 1_555
C34 C28 1_555 1_555
C35 C29 1_555 1_555
C36 C29 1_555 1_555
H22 C30 1_555 1_555
C37 C30 1_555 1_555
C38 C31 1_555 1_555
C39 C31 1_555 1_555
C40 C32 1_555 1_555
C41 C32 1_555 1_555
C42 C33 1_555 1_555
H23 C33 1_555 1_555
H24 C34 1_555 1_555
C43 C34 1_555 1_555
H25 C35 1_555 1_555
H26 C37 1_555 1_555
C44 C37 1_555 1_555
H27 C38 1_555 1_555
C45 C41 1_555 1_555
H28 C41 1_555 1_555
H29 C42 1_555 1_555
H30 C43 1_555 1_555
H31 C44 1_555 1_555
H32 C45 1_555 1_555
Pr1B O5 1_555 1_555
Pr1B_2 O6 1_555 1_555
O5B Pr1 1_555 1_555
O6B Pr1 1_555 1_555
Pr2B O15 1_555 1_555
Pr2B_2 O16 1_555 1_555
Pr2C O11 1_555 1_555
O11C Pr2 1_555 1_555
O12C Pr2 1_555 1_555
O15B Pr2 1_555 1_555
O16B Pr2 1_555 1_555
O8 C3 1_555 1_555
C2 O10 1_555 1_555
O12 Pr2C 1_555 1_555
C14 C19 1_555 1_555
C16 C20 1_555 1_555
C18 C21 1_555 1_555
C35 C43 1_555 1_555
C38 C44 1_555 1_555
C42 C45 1_555 1_555

#END
