
#######################################################################
#
#                 Cambridge Crystallographic Data Centre
#                                CCDC 
#
#######################################################################
#
# If this CIF has been generated from an entry in the Cambridge 
# Structural Database, then it will include bibliographic, chemical, 
# crystal, experimental, refinement or atomic coordinate data resulting 
# from the CCDC's data processing and validation procedures.
#
#######################################################################

data_TULGIS
_symmetry_cell_setting           monoclinic
_symmetry_space_group_name_H-M   'C c'
_symmetry_Int_Tables_number      9
_space_group_name_Hall           'C -2yc'
loop_
_symmetry_equiv_pos_site_id
_symmetry_equiv_pos_as_xyz
1 x,y,z
2 x,-y,1/2+z
3 1/2+x,1/2+y,z
4 1/2+x,1/2-y,1/2+z
_cell_length_a                   13.5432(4)
_cell_length_b                   12.9981(4)
_cell_length_c                   25.7567(11)
_cell_angle_alpha                90
_cell_angle_beta                 104.028(4)
_cell_angle_gamma                90
_cell_volume                     4398.88
loop_
_atom_site_label
_atom_site_type_symbol
_atom_site_fract_x
_atom_site_fract_y
_atom_site_fract_z
Ce1 Ce 0.07411(5) 0.29023(6) 0.20827(4)
Ce2 Ce 0.19616(6) 0.00592(6) 0.27224(4)
O1 O -0.0862(9) 0.3683(9) 0.1462(6)
O2 O 0.0591(9) 0.3879(10) 0.1224(5)
O3 O -0.3270(9) 0.5495(9) -0.1373(5)
O4 O -0.3823(11) 0.6578(10) -0.2034(4)
O5 O -0.1664(10) 0.7039(11) -0.0866(5)
O6 O 0.0388(9) 0.1021(10) 0.2692(5)
O7 O -0.0657(9) 0.2346(8) 0.2472(5)
O8 O -0.2592(9) -0.3475(8) 0.3309(5)
O9 O -0.3394(10) -0.2000(8) 0.3056(5)
O10 O -0.4227(9) -0.0182(9) 0.3560(5)
O11 O 0.3500(9) 0.0801(9) 0.2482(6)
O12 O 0.2215(7) 0.1827(7) 0.2103(4)
O13 O 0.6019(9) 0.4968(9) 0.1758(5)
O14 O 0.5137(10) 0.6419(8) 0.1531(6)
O15 O 0.6655(9) 0.3054(10) 0.1084(5)
O16 O 0.0121(9) 0.4502(8) 0.2444(5)
H1 H -0.0521 0.4530 0.2398
H2 H 0.0507 0.4957 0.2625
O17 O 0.2202(11) 0.4224(11) 0.2148(5)
H3 H 0.2728 0.4540 0.2108
H4 H 0.1721 0.4122 0.1873
O18 O 0.3612(9) -0.0716(12) 0.3321(5)
H5 H 0.3224 -0.1188 0.3387
H6 H 0.4208 -0.0529 0.3484
O19 O 0.2716(9) -0.1283(9) 0.2200(5)
H7 H 0.3216 -0.0888 0.2202
H8 H 0.2070 -0.1249 0.2130
C1 C -0.0333(14) 0.4087(13) 0.1185(7)
C2 C -0.0815(14) 0.4847(14) 0.0776(8)
C3 C -0.0206(13) 0.5379(13) 0.0473(7)
H9 H 0.0494 0.5277 0.0555
C4 C -0.0653(14) 0.6036(14) 0.0065(8)
H10 H -0.0254 0.6364 -0.0133
C5 C -0.1696(13) 0.6214(12) -0.0056(6)
C6 C -0.2290(12) 0.5753(13) 0.0248(7)
H11 H -0.2985 0.5889 0.0175
C7 C -0.1842(12) 0.5081(15) 0.0665(7)
H12 H -0.2244 0.4787 0.0871
C8 C -0.2168(15) 0.6832(14) -0.0538(7)
C9 C -0.3241(12) 0.7237(12) -0.0652(7)
C10 C -0.3896(13) 0.7108(12) -0.1149(7)
C11 C -0.4809(12) 0.7623(12) -0.1272(8)
H13 H -0.5244 0.7573 -0.1611
C12 C -0.5069(13) 0.8221(15) -0.0879(8)
H14 H -0.5694 0.8558 -0.0960
C13 C -0.4460(16) 0.8333(14) -0.0389(8)
H15 H -0.4678 0.8722 -0.0134
C14 C -0.3513(14) 0.7876(13) -0.0257(7)
H16 H -0.3069 0.7980 0.0076
C15 C -0.3636(11) 0.6363(12) -0.1534(7)
C16 C -0.0429(12) 0.1472(11) 0.2706(7)
C17 C -0.1163(11) 0.1004(11) 0.2980(6)
C18 C -0.2095(11) 0.1422(11) 0.2956(7)
H17 H -0.2265 0.2041 0.2775
C19 C -0.2776(11) 0.0972(10) 0.3184(7)
H18 H -0.3406 0.1282 0.3156
C20 C -0.2560(13) 0.0069(14) 0.3454(7)
C21 C -0.1618(12) -0.0428(12) 0.3481(7)
H19 H -0.1462 -0.1034 0.3674
C22 C -0.0947(12) -0.0024(12) 0.3226(7)
H20 H -0.0364 -0.0383 0.3205
C23 C -0.3375(11) -0.0477(12) 0.3673(6)
C24 C -0.3033(12) -0.1295(13) 0.4099(7)
C25 C -0.2989(15) -0.1028(13) 0.4624(7)
H21 H -0.3140 -0.0358 0.4706
C26 C -0.2730(17) -0.1735(16) 0.5018(8)
H22 H -0.2692 -0.1539 0.5370
C27 C -0.2519(17) -0.2737(18) 0.4911(8)
H23 H -0.2333 -0.3221 0.5183
C28 C -0.2594(14) -0.2997(16) 0.4381(8)
H24 H -0.2460 -0.3673 0.4302
C29 C -0.2854(12) -0.2317(12) 0.3969(7)
C30 C -0.2954(12) -0.2636(12) 0.3414(7)
C31 C 0.3109(10) 0.1576(13) 0.2168(6)
C32 C 0.3786(13) 0.2070(14) 0.1873(7)
C33 C 0.4817(16) 0.1875(16) 0.2063(11)
H25 H 0.5080 0.1458 0.2358
C34 C 0.5470(13) 0.2404(11) 0.1746(6)
H26 H 0.6171 0.2319 0.1855
C35 C 0.5102(15) 0.2975(12) 0.1329(8)
C36 C 0.4043(13) 0.3126(13) 0.1156(7)
H27 H 0.3774 0.3528 0.0857
C37 C 0.3413(12) 0.2674(14) 0.1435(7)
H28 H 0.2715 0.2781 0.1322
C38 C 0.5801(12) 0.3421(14) 0.1043(7)
C39 C 0.5451(12) 0.4304(15) 0.0660(7)
C40 C 0.5296(15) 0.4107(16) 0.0127(8)
H29 H 0.5438 0.3451 0.0020
C41 C 0.4947(19) 0.4821(18) -0.0252(8)
H30 H 0.4849 0.4656 -0.0612
C42 C 0.4731(16) 0.5811(18) -0.0099(9)
H31 H 0.4469 0.6305 -0.0356
C43 C 0.4914(13) 0.6047(14) 0.0440(7)
H32 H 0.4791 0.6712 0.0543
C44 C 0.5277(13) 0.5314(13) 0.0828(6)
C45 C 0.5480(12) 0.5586(14) 0.1410(7)
Ce1B Ce -0.42589(5) -0.20977(6) 0.20827(4)
Ce1B_2 Ce 0.57411(5) 0.79023(6) 0.20827(4)
Ce2B Ce -0.30384(6) -0.49408(6) 0.27224(4)
Ce2B_2 Ce 0.69616(6) 0.50592(6) 0.27224(4)
Ce2C Ce -0.30384(6) 0.49408(6) -0.22776(4)
O3C O 0.1730(9) -0.0495(9) 0.3627(5)
O4C O 0.1177(11) -0.1578(10) 0.2966(4)
O8B O 0.2408(9) 0.1525(8) 0.3309(5)
O9B O 0.1606(10) 0.3000(8) 0.3056(5)
O13B O 0.1019(9) -0.0032(9) 0.1758(5)
O14B O 0.0137(10) 0.1419(8) 0.1531(6)
O20 O 0.2723(16) 0.5992(16) 0.1474(8)
H33 H 0.3073 0.6242 0.1766
H34 H 0.3161 0.6469 0.1498
loop_
_geom_bond_atom_site_label_1
_geom_bond_atom_site_label_2
_geom_bond_site_symmetry_1
_geom_bond_site_symmetry_2
Ce1 O1 1_555 1_555
Ce2 O6 1_555 1_555
O1 C1 1_555 1_555
O2 Ce1 1_555 1_555
O3 C15 1_555 1_555
O4 C15 1_555 1_555
O5 C8 1_555 1_555
O6 C16 1_555 1_555
O7 Ce1 1_555 1_555
O8 C30 1_555 1_555
O9 C30 1_555 1_555
O10 C23 1_555 1_555
O11 Ce2 1_555 1_555
O12 Ce1 1_555 1_555
O13 C45 1_555 1_555
O14 C45 1_555 1_555
O15 C38 1_555 1_555
O16 Ce1 1_555 1_555
H1 O16 1_555 1_555
H2 O16 1_555 1_555
O17 Ce1 1_555 1_555
H3 O17 1_555 1_555
H4 O17 1_555 1_555
O18 Ce2 1_555 1_555
H5 O18 1_555 1_555
H6 O18 1_555 1_555
O19 Ce2 1_555 1_555
H7 O19 1_555 1_555
H8 O19 1_555 1_555
C1 O2 1_555 1_555
C2 C1 1_555 1_555
C3 C2 1_555 1_555
H9 C3 1_555 1_555
C4 C3 1_555 1_555
H10 C4 1_555 1_555
C5 C4 1_555 1_555
C6 C5 1_555 1_555
H11 C6 1_555 1_555
C7 C2 1_555 1_555
H12 C7 1_555 1_555
C8 C5 1_555 1_555
C9 C8 1_555 1_555
C10 C9 1_555 1_555
C11 C10 1_555 1_555
H13 C11 1_555 1_555
C12 C11 1_555 1_555
H14 C12 1_555 1_555
C13 C12 1_555 1_555
H15 C13 1_555 1_555
C14 C9 1_555 1_555
H16 C14 1_555 1_555
C15 C10 1_555 1_555
C16 O7 1_555 1_555
C17 C16 1_555 1_555
C18 C17 1_555 1_555
H17 C18 1_555 1_555
C19 C18 1_555 1_555
H18 C19 1_555 1_555
C20 C19 1_555 1_555
C21 C20 1_555 1_555
H19 C21 1_555 1_555
C22 C17 1_555 1_555
H20 C22 1_555 1_555
C23 C20 1_555 1_555
C24 C23 1_555 1_555
C25 C24 1_555 1_555
H21 C25 1_555 1_555
C26 C25 1_555 1_555
H22 C26 1_555 1_555
C27 C26 1_555 1_555
H23 C27 1_555 1_555
C28 C27 1_555 1_555
H24 C28 1_555 1_555
C29 C24 1_555 1_555
C30 C29 1_555 1_555
C31 O11 1_555 1_555
C32 C31 1_555 1_555
C33 C32 1_555 1_555
H25 C33 1_555 1_555
C34 C33 1_555 1_555
H26 C34 1_555 1_555
C35 C34 1_555 1_555
C36 C35 1_555 1_555
H27 C36 1_555 1_555
C37 C32 1_555 1_555
H28 C37 1_555 1_555
C38 C35 1_555 1_555
C39 C38 1_555 1_555
C40 C39 1_555 1_555
H29 C40 1_555 1_555
C41 C40 1_555 1_555
H30 C41 1_555 1_555
C42 C41 1_555 1_555
H31 C42 1_555 1_555
C43 C42 1_555 1_555
H32 C43 1_555 1_555
C44 C39 1_555 1_555
C45 C44 1_555 1_555
O20 H33 1_555 1_555
H34 O20 1_555 1_555
Ce1B O9 1_555 1_555
Ce1B_2 O14 1_555 1_555
Ce2B O8 1_555 1_555
Ce2B_2 O13 1_555 1_555
Ce2C O3 1_555 1_555
O3C Ce2 1_555 1_555
O4C Ce2 1_555 1_555
O8B Ce2 1_555 1_555
O9B Ce1 1_555 1_555
O13B Ce2 1_555 1_555
O14B Ce1 1_555 1_555
O4 Ce2C 1_555 1_555
O12 C31 1_555 1_555
C6 C7 1_555 1_555
C13 C14 1_555 1_555
C21 C22 1_555 1_555
C28 C29 1_555 1_555
C36 C37 1_555 1_555
C43 C44 1_555 1_555

#END
