
#######################################################################
#
#                 Cambridge Crystallographic Data Centre
#                                CCDC 
#
#######################################################################
#
# If this CIF has been generated from an entry in the Cambridge 
# Structural Database, then it will include bibliographic, chemical, 
# crystal, experimental, refinement or atomic coordinate data resulting 
# from the CCDC's data processing and validation procedures.
#
#######################################################################

data_TULNUL
_symmetry_cell_setting           monoclinic
_symmetry_space_group_name_H-M   'P 21/c'
_symmetry_Int_Tables_number      14
_space_group_name_Hall           '-P 2ybc'
loop_
_symmetry_equiv_pos_site_id
_symmetry_equiv_pos_as_xyz
1 x,y,z
2 -x,1/2+y,1/2-z
3 -x,-y,-z
4 x,1/2-y,1/2+z
_cell_length_a                   14.550(3)
_cell_length_b                   10.115(2)
_cell_length_c                   7.4802(15)
_cell_angle_alpha                90
_cell_angle_beta                 95.76(3)
_cell_angle_gamma                90
_cell_volume                     1095.33
loop_
_atom_site_label
_atom_site_type_symbol
_atom_site_fract_x
_atom_site_fract_y
_atom_site_fract_z
Zn1 Zn 0.24963(6) 0.48273(8) 0.10960(12)
O1 O 0.3143(4) 0.5752(6) 0.3234(7)
O2 O 0.2024(4) 0.3405(5) 0.2818(8)
O3 O 0.1188(4) 0.5573(6) 0.1055(9)
O4 O 0.3084(5) 0.6200(6) -0.0415(8)
O5 O 0.2096(4) 0.3619(6) -0.1021(8)
N1 N 0.3752(5) 0.3131(7) 0.0784(10)
N2 N 0.0885(5) 0.6802(6) 0.0733(9)
H1 H 0.322(6) 0.609(9) -0.149(5)
H2 H 0.341(5) 0.682(6) 0.009(11)
C1 C 0.2393(5) 0.2470(8) -0.1153(10)
S1 S 0.46983(16) 0.2545(2) 0.1817(3)
C2 C 0.3279(5) 0.2106(8) 0.0010(10)
C3 C 0.1375(6) 0.7850(8) 0.1412(11)
C4 C 0.0059(5) 0.6974(8) -0.0224(11)
N3 N 0.4517(5) 0.0987(7) 0.1391(9)
C5 C 0.3721(5) 0.0876(8) 0.0367(10)
H3 H 0.1944 0.7723 0.2073
C6 C 0.1035(6) 0.9095(8) 0.1127(12)
H4 H -0.0275 0.6244 -0.0681
C7 C -0.0284(6) 0.8201(8) -0.0522(11)
C8 C 0.3406(5) -0.0502(8) -0.0153(11)
C9 C 0.0186(5) 0.9330(8) 0.0153(10)
H5 H 0.1382 0.9810 0.1598
H6 H -0.0852 0.8300 -0.1199
O6 O 0.3465(4) -0.1347(6) 0.1058(7)
O2C O 0.2024(4) 0.1595(5) -0.2182(8)
Zn1C Zn 0.24963(6) 0.01727(8) -0.39040(12)
O1C O 0.3143(4) -0.0752(6) -0.1766(7)
C9B C -0.0186(5) 1.0670(8) -0.0153(10)
C6B C -0.1035(6) 1.0905(8) -0.1127(12)
C7B C 0.0284(6) 1.1799(8) 0.0522(11)
C3B C -0.1375(6) 1.2150(8) -0.1412(11)
H5B H -0.1382 1.0190 -0.1598
C4B C -0.0059(5) 1.3026(8) 0.0224(11)
H6B H 0.0852 1.1700 0.1199
N2B N -0.0885(5) 1.3198(6) -0.0733(9)
H3B H -0.1944 1.2277 -0.2073
H4B H 0.0275 1.3756 0.0681
O3B O -0.1188(4) 1.4427(6) -0.1055(9)
Zn1B Zn -0.24963(6) 1.51727(8) -0.10960(12)
O1B O -0.3143(4) 1.4248(6) -0.3234(7)
O2B O -0.2024(4) 1.6595(5) -0.2818(8)
O4B O -0.3084(5) 1.3800(6) 0.0415(8)
O5B O -0.2096(4) 1.6381(6) 0.1021(8)
N1B N -0.3752(5) 1.6869(7) -0.0784(10)
H1B H -0.322(6) 1.391(9) 0.149(5)
H2B H -0.341(5) 1.318(6) -0.009(11)
C1B C -0.2393(5) 1.7530(8) 0.1153(10)
S1B S -0.46983(16) 1.7455(2) -0.1817(3)
C2B C -0.3279(5) 1.7894(8) -0.0010(10)
O2A O -0.2024(4) 1.8405(5) 0.2182(8)
N3B N -0.4517(5) 1.9013(7) -0.1391(9)
C5B C -0.3721(5) 1.9124(8) -0.0367(10)
Zn1A Zn -0.24963(6) 1.98273(8) 0.39040(12)
C8B C -0.3406(5) 2.0502(8) 0.0153(11)
O1A O -0.3143(4) 2.0752(6) 0.1766(7)
O6B O -0.3465(4) 2.1347(6) -0.1058(7)
loop_
_geom_bond_atom_site_label_1
_geom_bond_atom_site_label_2
_geom_bond_site_symmetry_1
_geom_bond_site_symmetry_2
Zn1 O1 1_555 1_555
O2 Zn1 1_555 1_555
O3 Zn1 1_555 1_555
O4 Zn1 1_555 1_555
O5 Zn1 1_555 1_555
N1 Zn1 1_555 1_555
N2 O3 1_555 1_555
H1 O4 1_555 1_555
H2 O4 1_555 1_555
C1 O5 1_555 1_555
S1 N1 1_555 1_555
C2 N1 1_555 1_555
C3 N2 1_555 1_555
C4 N2 1_555 1_555
N3 S1 1_555 1_555
C5 C2 1_555 1_555
H3 C3 1_555 1_555
C6 C3 1_555 1_555
H4 C4 1_555 1_555
C7 C4 1_555 1_555
C8 C5 1_555 1_555
C9 C6 1_555 1_555
H5 C6 1_555 1_555
H6 C7 1_555 1_555
O6 C8 1_555 1_555
O2C C1 1_555 1_555
Zn1C O2C 1_555 1_555
O1C C8 1_555 1_555
C9B C9 1_555 1_555
C6B C9B 1_555 1_555
C7B C9B 1_555 1_555
C3B C6B 1_555 1_555
H5B C6B 1_555 1_555
C4B C7B 1_555 1_555
H6B C7B 1_555 1_555
N2B C3B 1_555 1_555
H3B C3B 1_555 1_555
H4B C4B 1_555 1_555
O3B N2B 1_555 1_555
Zn1B O3B 1_555 1_555
O1B Zn1B 1_555 1_555
O2B Zn1B 1_555 1_555
O4B Zn1B 1_555 1_555
O5B Zn1B 1_555 1_555
N1B Zn1B 1_555 1_555
H1B O4B 1_555 1_555
H2B O4B 1_555 1_555
C1B O5B 1_555 1_555
S1B N1B 1_555 1_555
C2B N1B 1_555 1_555
O2A C1B 1_555 1_555
N3B S1B 1_555 1_555
C5B C2B 1_555 1_555
Zn1A O2A 1_555 1_555
C8B C5B 1_555 1_555
O1A Zn1A 1_555 1_555
O6B C8B 1_555 1_555
C1 C2 1_555 1_555
N3 C5 1_555 1_555
C7 C9 1_555 1_555
Zn1C O1C 1_555 1_555
C4B N2B 1_555 1_555
C1B C2B 1_555 1_555
N3B C5B 1_555 1_555
C8B O1A 1_555 1_555

#END
