
#######################################################################
#
#                 Cambridge Crystallographic Data Centre
#                                CCDC 
#
#######################################################################
#
# If this CIF has been generated from an entry in the Cambridge 
# Structural Database, then it will include bibliographic, chemical, 
# crystal, experimental, refinement or atomic coordinate data resulting 
# from the CCDC's data processing and validation procedures.
#
#######################################################################

data_TUMGOX
_symmetry_cell_setting           monoclinic
_symmetry_space_group_name_H-M   'P 21/n'
_symmetry_Int_Tables_number      14
_space_group_name_Hall           '-P 2yn'
loop_
_symmetry_equiv_pos_site_id
_symmetry_equiv_pos_as_xyz
1 x,y,z
2 1/2-x,1/2+y,1/2-z
3 -x,-y,-z
4 1/2+x,1/2-y,1/2+z
_cell_length_a                   8.627(2)
_cell_length_b                   13.218(2)
_cell_length_c                   9.650(1)
_cell_angle_alpha                90
_cell_angle_beta                 95.93(1)
_cell_angle_gamma                90
_cell_volume                     1094.52
loop_
_atom_site_label
_atom_site_type_symbol
_atom_site_fract_x
_atom_site_fract_y
_atom_site_fract_z
O1 O 0.6435(3) 0.1159(2) 0.8378(3)
O2 O 0.8222(3) 0.0082(2) 0.7795(3)
O3 O 0.4499(4) -0.0664(2) 0.8667(3)
O4 O 0.4524(3) -0.2041(2) 0.7412(3)
O5 O 0.7820(3) 0.2107(2) 0.5841(3)
O6 O 0.8477(3) 0.1250(2) 0.4035(3)
O7 O 0.3245(3) 0.1220(2) 0.8871(4)
O8 O 0.6501(4) 0.3180(2) 0.7989(3)
O9 O 0.6339(4) 0.3997(2) 1.1149(3)
O10 O 0.8200(4) 0.2158(3) 1.1073(4)
C1 C 0.5901(4) 0.0254(3) 0.6257(3)
C2 C 0.4725(4) -0.0486(3) 0.6234(3)
C3 C 0.6187(4) 0.0726(3) 0.5005(3)
C4 C 0.6933(4) 0.0514(3) 0.7596(3)
C5 C 0.4555(4) -0.1099(3) 0.7513(4)
C6 C 0.7558(4) 0.1419(3) 0.4957(4)
Ce1 Ce 0.54484(2) 0.23424(1) 0.99567(2)
H1 H 0.2287 0.1211 0.9205
H2 H 0.3741 0.0587 0.8824
H3 H 0.6574 0.3908 0.7621
H4 H 0.6940 0.2848 0.7490
H5 H 0.6380 0.4785 1.1234
H6 H 0.7077 0.3960 1.1878
H7 H 0.8350 0.1841 1.2102
H8 H 0.8984 0.2062 1.0392
C3B C 0.3813(4) -0.0726(3) 0.4995(3)
C1B C 0.4099(4) -0.0254(3) 0.3743(3)
C2B C 0.5275(4) 0.0486(3) 0.3766(3)
C5B C 0.5445(4) 0.1099(3) 0.2487(4)
O3B O 0.5501(4) 0.0664(2) 0.1333(3)
O4B O 0.5476(3) 0.2041(2) 0.2588(3)
C4B C 0.3067(4) -0.0514(3) 0.2404(3)
O1B O 0.3565(3) -0.1159(2) 0.1622(3)
O2B O 0.1778(3) -0.0082(2) 0.2205(3)
C6B C 0.2442(4) -0.1419(3) 0.5043(4)
O5B O 0.2180(3) -0.2107(2) 0.4159(3)
O6B O 0.1523(3) -0.1250(2) 0.5965(3)
Ce1B Ce 0.45516(2) -0.23424(1) 0.00433(2)
O7B O 0.6755(3) -0.1220(2) 0.1129(4)
H1B H 0.7713 -0.1211 0.0795
H2B H 0.6259 -0.0587 0.1176
O8B O 0.3499(4) -0.3180(2) 0.2011(3)
H3B H 0.3426 -0.3908 0.2379
H4B H 0.3060 -0.2848 0.2510
O9B O 0.3661(4) -0.3997(2) -0.1149(3)
H5B H 0.3620 -0.4785 -0.1234
H6B H 0.2923 -0.3960 -0.1878
O10B O 0.1800(4) -0.2158(3) -0.1073(4)
H7B H 0.1650 -0.1841 -0.2102
H8B H 0.1016 -0.2062 -0.0392
Ce1B_2 Ce 0.45516(2) -0.23424(1) 1.00433(2)
Ce1C Ce 1.04484(2) 0.26576(1) 0.49567(2)
O3B_2 O 0.5501(4) 0.0664(2) 1.1333(3)
O4B_2 O 0.5476(3) 0.2041(2) 1.2588(3)
O5C O 0.2820(3) 0.2893(2) 1.0841(3)
O6C O 0.3477(3) 0.3750(2) 0.9035(3)
Ce1_2 Ce 0.54484(2) 0.23424(1) -0.00433(2)
Ce1A Ce -0.04484(2) -0.26576(1) 0.50433(2)
O3_2 O 0.4499(4) -0.0664(2) -0.1333(3)
O4_2 O 0.4524(3) -0.2041(2) -0.2588(3)
O5A O 0.7180(3) -0.2893(2) -0.0841(3)
O6A O 0.6523(3) -0.3750(2) 0.0965(3)
O11 O 0.5179(4) 0.3633(3) 0.4395(3)
loop_
_geom_bond_atom_site_label_1
_geom_bond_atom_site_label_2
_geom_bond_site_symmetry_1
_geom_bond_site_symmetry_2
O1 C4 1_555 1_555
O2 C4 1_555 1_555
O3 C5 1_555 1_555
O4 C5 1_555 1_555
O5 C6 1_555 1_555
O6 C6 1_555 1_555
O7 Ce1 1_555 1_555
O8 Ce1 1_555 1_555
O9 Ce1 1_555 1_555
O10 Ce1 1_555 1_555
C1 C2 1_555 1_555
C2 C5 1_555 1_555
C3 C1 1_555 1_555
C4 C1 1_555 1_555
C6 C3 1_555 1_555
Ce1 O1 1_555 1_555
H1 O7 1_555 1_555
H2 O7 1_555 1_555
H3 O8 1_555 1_555
H4 O8 1_555 1_555
H5 O9 1_555 1_555
H6 O9 1_555 1_555
H7 O10 1_555 1_555
H8 O10 1_555 1_555
C3B C2 1_555 1_555
C1B C3B 1_555 1_555
C2B C3 1_555 1_555
C5B C2B 1_555 1_555
O3B C5B 1_555 1_555
O4B C5B 1_555 1_555
C4B C1B 1_555 1_555
O1B C4B 1_555 1_555
O2B C4B 1_555 1_555
C6B C3B 1_555 1_555
O5B C6B 1_555 1_555
O6B C6B 1_555 1_555
Ce1B O1B 1_555 1_555
O7B Ce1B 1_555 1_555
H1B O7B 1_555 1_555
H2B O7B 1_555 1_555
O8B Ce1B 1_555 1_555
H3B O8B 1_555 1_555
H4B O8B 1_555 1_555
O9B Ce1B 1_555 1_555
H5B O9B 1_555 1_555
H6B O9B 1_555 1_555
O10B Ce1B 1_555 1_555
H7B O10B 1_555 1_555
H8B O10B 1_555 1_555
Ce1B_2 O3 1_555 1_555
Ce1C O5 1_555 1_555
O3B_2 Ce1 1_555 1_555
O4B_2 Ce1 1_555 1_555
O5C Ce1 1_555 1_555
O6C Ce1 1_555 1_555
Ce1_2 O3B 1_555 1_555
Ce1A O5B 1_555 1_555
O3_2 Ce1B 1_555 1_555
O4_2 Ce1B 1_555 1_555
O5A Ce1B 1_555 1_555
O6A Ce1B 1_555 1_555
O4 Ce1B_2 1_555 1_555
O6 Ce1C 1_555 1_555
C1B C2B 1_555 1_555
O4B Ce1_2 1_555 1_555
O6B Ce1A 1_555 1_555

#END
