
#######################################################################
#
#                 Cambridge Crystallographic Data Centre
#                                CCDC 
#
#######################################################################
#
# If this CIF has been generated from an entry in the Cambridge 
# Structural Database, then it will include bibliographic, chemical, 
# crystal, experimental, refinement or atomic coordinate data resulting 
# from the CCDC's data processing and validation procedures.
#
#######################################################################

data_TUMVUU
_symmetry_cell_setting           monoclinic
_symmetry_space_group_name_H-M   'P 21/c'
_symmetry_Int_Tables_number      14
_space_group_name_Hall           '-P 2ybc'
loop_
_symmetry_equiv_pos_site_id
_symmetry_equiv_pos_as_xyz
1 x,y,z
2 -x,1/2+y,1/2-z
3 -x,-y,-z
4 x,1/2-y,1/2+z
_cell_length_a                   14.8105(2)
_cell_length_b                   13.94092(14)
_cell_length_c                   11.53789(19)
_cell_angle_alpha                90
_cell_angle_beta                 112.7419(18)
_cell_angle_gamma                90
_cell_volume                     2197.04
loop_
_atom_site_label
_atom_site_type_symbol
_atom_site_fract_x
_atom_site_fract_y
_atom_site_fract_z
Cd1 Cd 0.872734(15) 0.513318(14) 0.39469(2)
Br1 Br 0.58863(3) 0.70969(3) 0.11062(4)
Br2 Br 0.60657(3) 0.30875(3) 0.15612(4)
O1 O 0.69139(18) 0.52119(17) 0.3253(2)
O2 O 0.75926(17) 0.51449(16) 0.1842(2)
N1 N 0.8256(2) 0.20456(18) 0.4424(3)
C1 C 0.7242(3) 0.0597(2) 0.3932(3)
C2 C 0.7493(3) -0.0320(3) 0.3697(4)
C3 C 0.5458(2) 0.4186(2) 0.0638(3)
C4 C 0.5392(2) 0.5886(2) 0.0423(3)
N2 N 0.8650(2) -0.1703(2) 0.4197(3)
C5 C 0.6330(3) 0.0959(3) 0.3178(4)
H1 H 0.6155 0.1568 0.3346
C6 C 0.9020(3) 0.2866(2) 0.3461(3)
H2 H 0.9390 0.3028 0.2998
C7 C 0.5876(2) 0.5079(2) 0.1070(3)
C8 C 0.6868(2) 0.5158(2) 0.2155(3)
N3 N 0.8811(2) -0.32419(19) 0.3936(3)
N4 N 0.85879(19) 0.35085(18) 0.3995(2)
C9 C 0.7536(3) 0.3400(2) 0.5231(3)
H3 H 0.6885 0.3141 0.4878
H4 H 0.7507 0.4085 0.5142
H5 H 0.7833 0.3236 0.6106
C10 C 0.5682(3) 0.0452(3) 0.2200(5)
H6 H 0.5072 0.0707 0.1718
C11 C 0.7916(3) 0.1229(2) 0.4959(3)
H7 H 0.7575 0.1466 0.5469
H8 H 0.8476 0.0858 0.5496
C12 C 0.8125(2) 0.2997(2) 0.4566(3)
C13 C 0.9339(3) -0.2731(3) 0.3352(4)
H9 H 0.9690 -0.3004 0.2920
C14 C 0.8820(3) 0.1965(2) 0.3716(3)
H10 H 0.9023 0.1399 0.3464
C15 C 0.8420(3) -0.2594(3) 0.4414(4)
C16 C 0.9257(3) -0.1806(3) 0.3515(4)
H11 H 0.9544 -0.1313 0.3234
C17 C 0.6843(4) -0.0818(3) 0.2688(6)
H12 H 0.7014 -0.1425 0.2505
C18 C 0.5944(4) -0.0439(3) 0.1940(6)
H13 H 0.5517 -0.0788 0.1262
C19 C 0.8433(3) -0.0780(3) 0.4589(5)
H14 H 0.8973 -0.0349 0.4692
H15 H 0.8393 -0.0851 0.5404
C20 C 0.7773(3) -0.2810(4) 0.5053(5)
H16 H 0.7660 -0.2239 0.5441
H17 H 0.8070 -0.3289 0.5685
H18 H 0.7161 -0.3047 0.4457
Cl1 Cl 1.03369(6) 0.49636(5) 0.35171(8)
Br1B Br 0.41137(3) 0.29031(3) -0.11062(4)
Br2B Br 0.39343(3) 0.69125(3) -0.15612(4)
O1B O 0.30861(18) 0.47881(17) -0.3253(2)
O2B O 0.24074(17) 0.48551(16) -0.1842(2)
C3B C 0.4542(2) 0.5814(2) -0.0638(3)
C4B C 0.4608(2) 0.4114(2) -0.0423(3)
C7B C 0.4124(2) 0.4921(2) -0.1070(3)
C8B C 0.3132(2) 0.4842(2) -0.2155(3)
Cd1B Cd 0.127266(15) 0.486682(14) -0.39469(2)
N1B N 0.1744(2) 0.79544(18) -0.4424(3)
C1B C 0.2758(3) 0.9403(2) -0.3932(3)
C2B C 0.2507(3) 1.0320(3) -0.3697(4)
N2B N 0.1350(2) 1.1703(2) -0.4197(3)
C5B C 0.3670(3) 0.9041(3) -0.3178(4)
H1B H 0.3845 0.8432 -0.3346
C6B C 0.0980(3) 0.7134(2) -0.3461(3)
H2B H 0.0610 0.6972 -0.2998
N3B N 0.1189(2) 1.32419(19) -0.3936(3)
N4B N 0.14121(19) 0.64915(18) -0.3995(2)
C9B C 0.2464(3) 0.6600(2) -0.5231(3)
H3B H 0.3115 0.6859 -0.4878
H4B H 0.2493 0.5915 -0.5142
H5B H 0.2167 0.6764 -0.6106
C10B C 0.4318(3) 0.9548(3) -0.2200(5)
H6B H 0.4928 0.9293 -0.1718
C11B C 0.2084(3) 0.8771(2) -0.4959(3)
H7B H 0.2425 0.8534 -0.5469
H8B H 0.1524 0.9142 -0.5496
C12B C 0.1875(2) 0.7003(2) -0.4566(3)
C13B C 0.0661(3) 1.2731(3) -0.3352(4)
H9B H 0.0310 1.3004 -0.2920
C14B C 0.1180(3) 0.8035(2) -0.3716(3)
H10B H 0.0977 0.8601 -0.3464
C15B C 0.1580(3) 1.2594(3) -0.4414(4)
C16B C 0.0743(3) 1.1806(3) -0.3515(4)
H11B H 0.0456 1.1313 -0.3234
C17B C 0.3157(4) 1.0818(3) -0.2688(6)
H12B H 0.2986 1.1425 -0.2505
C18B C 0.4056(4) 1.0439(3) -0.1940(6)
H13B H 0.4483 1.0788 -0.1262
C19B C 0.1567(3) 1.0780(3) -0.4589(5)
H14B H 0.1027 1.0349 -0.4692
H15B H 0.1607 1.0851 -0.5404
C20B C 0.2227(3) 1.2810(4) -0.5053(5)
H16B H 0.2340 1.2239 -0.5441
H17B H 0.1930 1.3289 -0.5685
H18B H 0.2839 1.3047 -0.4457
Cl1B Cl -0.03369(6) 0.50364(5) -0.35171(8)
Cd1_2 Cd -0.127266(15) 0.513318(14) -0.60531(2)
Cd1_3 Cd 0.872734(15) -0.486682(14) 0.39469(2)
Cd1B_2 Cd 0.127266(15) 1.486682(14) -0.39469(2)
Cd1B_3 Cd 1.127266(15) 0.486682(14) 0.60531(2)
N3_2 N 0.8811(2) 0.67581(19) 0.3936(3)
N3B_2 N 0.1189(2) 0.32419(19) -0.3936(3)
Cl1_2 Cl 0.03369(6) 0.49636(5) -0.64829(8)
Cl1B_2 Cl 0.96631(6) 0.50364(5) 0.64829(8)
loop_
_geom_bond_atom_site_label_1
_geom_bond_atom_site_label_2
_geom_bond_site_symmetry_1
_geom_bond_site_symmetry_2
Cd1 O1 1_555 1_555
Br1 C4 1_555 1_555
Br2 C3 1_555 1_555
O1 C8 1_555 1_555
O2 Cd1 1_555 1_555
N1 C11 1_555 1_555
C1 C2 1_555 1_555
C2 C17 1_555 1_555
C3 C7 1_555 1_555
C4 C7 1_555 1_555
N2 C15 1_555 1_555
C5 C1 1_555 1_555
H1 C5 1_555 1_555
C6 H2 1_555 1_555
C7 C8 1_555 1_555
C8 O2 1_555 1_555
N3 C13 1_555 1_555
N4 Cd1 1_555 1_555
C9 H3 1_555 1_555
H4 C9 1_555 1_555
H5 C9 1_555 1_555
C10 C5 1_555 1_555
H6 C10 1_555 1_555
C11 C1 1_555 1_555
H7 C11 1_555 1_555
H8 C11 1_555 1_555
C12 N1 1_555 1_555
C13 H9 1_555 1_555
C14 N1 1_555 1_555
H10 C14 1_555 1_555
C15 N3 1_555 1_555
C16 N2 1_555 1_555
H11 C16 1_555 1_555
C17 H12 1_555 1_555
C18 C10 1_555 1_555
H13 C18 1_555 1_555
C19 C2 1_555 1_555
H14 C19 1_555 1_555
H15 C19 1_555 1_555
C20 C15 1_555 1_555
H16 C20 1_555 1_555
H17 C20 1_555 1_555
H18 C20 1_555 1_555
Cl1 Cd1 1_555 1_555
Br1B C4B 1_555 1_555
Br2B C3B 1_555 1_555
O1B C8B 1_555 1_555
O2B C8B 1_555 1_555
C3B C4 1_555 1_555
C4B C3 1_555 1_555
C7B C3B 1_555 1_555
C8B C7B 1_555 1_555
Cd1B O1B 1_555 1_555
N1B C11B 1_555 1_555
C1B C2B 1_555 1_555
C2B C17B 1_555 1_555
N2B C15B 1_555 1_555
C5B C1B 1_555 1_555
H1B C5B 1_555 1_555
C6B H2B 1_555 1_555
N3B C13B 1_555 1_555
N4B Cd1B 1_555 1_555
C9B H3B 1_555 1_555
H4B C9B 1_555 1_555
H5B C9B 1_555 1_555
C10B C5B 1_555 1_555
H6B C10B 1_555 1_555
C11B C1B 1_555 1_555
H7B C11B 1_555 1_555
H8B C11B 1_555 1_555
C12B N1B 1_555 1_555
C13B H9B 1_555 1_555
C14B N1B 1_555 1_555
H10B C14B 1_555 1_555
C15B N3B 1_555 1_555
C16B N2B 1_555 1_555
H11B C16B 1_555 1_555
C17B H12B 1_555 1_555
C18B C10B 1_555 1_555
H13B C18B 1_555 1_555
C19B C2B 1_555 1_555
H14B C19B 1_555 1_555
H15B C19B 1_555 1_555
C20B C15B 1_555 1_555
H16B C20B 1_555 1_555
H17B C20B 1_555 1_555
H18B C20B 1_555 1_555
Cl1B Cd1B 1_555 1_555
Cd1_2 Cl1B 1_555 1_555
Cd1_3 N3 1_555 1_555
Cd1B_2 N3B 1_555 1_555
Cd1B_3 Cl1 1_555 1_555
N3_2 Cd1 1_555 1_555
N3B_2 Cd1B 1_555 1_555
Cl1_2 Cd1B 1_555 1_555
Cl1B_2 Cd1 1_555 1_555
N2 C19 1_555 1_555
C6 N4 1_555 1_555
C6 C14 1_555 1_555
N4 C12 1_555 1_555
C9 C12 1_555 1_555
C13 C16 1_555 1_555
C17 C18 1_555 1_555
O2B Cd1B 1_555 1_555
C4B C7B 1_555 1_555
N2B C19B 1_555 1_555
C6B N4B 1_555 1_555
C6B C14B 1_555 1_555
N4B C12B 1_555 1_555
C9B C12B 1_555 1_555
C13B C16B 1_555 1_555
C17B C18B 1_555 1_555
Cd1_2 Cl1_2 1_555 1_555
Cd1B_3 Cl1B_2 1_555 1_555

#END
