
#######################################################################
#
#                 Cambridge Crystallographic Data Centre
#                                CCDC 
#
#######################################################################
#
# If this CIF has been generated from an entry in the Cambridge 
# Structural Database, then it will include bibliographic, chemical, 
# crystal, experimental, refinement or atomic coordinate data resulting 
# from the CCDC's data processing and validation procedures.
#
#######################################################################

data_TUNCAI
_symmetry_cell_setting           monoclinic
_symmetry_space_group_name_H-M   'P 21/c'
_symmetry_Int_Tables_number      14
_space_group_name_Hall           '-P 2ybc'
loop_
_symmetry_equiv_pos_site_id
_symmetry_equiv_pos_as_xyz
1 x,y,z
2 -x,1/2+y,1/2-z
3 -x,-y,-z
4 x,1/2-y,1/2+z
_cell_length_a                   14.1876(12)
_cell_length_b                   23.5853(19)
_cell_length_c                   19.2357(17)
_cell_angle_alpha                90
_cell_angle_beta                 106.356(2)
_cell_angle_gamma                90
_cell_volume                     6176.14
loop_
_atom_site_label
_atom_site_type_symbol
_atom_site_fract_x
_atom_site_fract_y
_atom_site_fract_z
C1 C 0.5442(6) -0.1260(3) 1.1802(4)
C2 C 0.4544(5) -0.1256(3) 1.1160(4)
C3 C 0.4666(5) -0.1345(3) 1.0479(4)
H1 H 0.5285 -0.1412 1.0419
C4 C 0.3613(6) -0.1149(3) 1.1241(4)
H2 H 0.3536 -0.1097 1.1701
C5 C 0.2805(5) -0.1120(3) 1.0640(4)
C6 C 0.2921(5) -0.1216(3) 0.9966(4)
H3 H 0.2379 -0.1204 0.9560
C7 C 0.3836(5) -0.1331(3) 0.9889(4)
C8 C 0.4562(5) -0.1736(3) 0.9025(4)
C9 C 0.4873(5) -0.1579(3) 0.8436(4)
H4 H 0.4649 -0.1243 0.8192
C10 C 0.5509(5) -0.1916(3) 0.8210(4)
H5 H 0.5721 -0.1805 0.7815
C11 C 0.4883(5) -0.2239(3) 0.9383(4)
H6 H 0.4676 -0.2344 0.9783
C12 C 0.5514(5) -0.2586(3) 0.9144(4)
C13 C 0.5843(5) -0.2418(3) 0.8558(4)
C14 C 0.6502(5) -0.2786(3) 0.8277(4)
C15 C 0.1100(6) -0.1043(5) 1.0150(5)
C16 C 0.0769(7) -0.0565(4) 0.9756(5)
C17 C -0.0031(6) -0.0615(4) 0.9140(5)
C18 C 0.0661(7) -0.1555(4) 0.9979(5)
C19 C -0.0123(6) -0.1611(3) 0.9368(5)
C20 C -0.0475(5) -0.1139(3) 0.8936(4)
C21 C -0.1309(5) -0.1199(4) 0.8254(4)
C22 C 1.0834(5) 0.3095(3) 1.2018(4)
C23 C 0.9783(5) 0.2873(3) 1.1753(4)
C24 C 0.9277(5) 0.2930(3) 1.1020(4)
H7 H 0.9576 0.3100 1.0701
H8 H 0.1074 -0.0225 0.9920
H9 H -0.0256 -0.0290 0.8873
H10 H -0.0412 -0.1965 0.9270
H11 H 0.0882 -0.1878 1.0275
H12 H 0.7212 0.2383 1.1083
C25 C 0.8330(5) 0.2730(3) 1.0779(4)
C26 C 0.9325(5) 0.2618(3) 1.2230(4)
H13 H 0.9654 0.2570 1.2719
C27 C 0.7862(5) 0.2497(3) 1.1243(4)
C28 C 0.8371(5) 0.2440(3) 1.1949(4)
C29 C 0.7912(5) 0.1619(3) 1.2507(4)
C30 C 0.7415(5) 0.1410(3) 1.2981(4)
H14 H 0.7110 0.1655 1.3229
C31 C 0.7383(5) 0.0831(3) 1.3077(4)
H15 H 0.7065 0.0689 1.3402
C32 C 0.8354(5) 0.1260(3) 1.2124(4)
H16 H 0.8682 0.1401 1.1805
C33 C 0.8289(5) 0.0672(3) 1.2233(4)
H17 H 0.8579 0.0424 1.1979
C34 C 0.7813(5) 0.0456(3) 1.2701(4)
C35 C 0.7739(5) -0.0167(3) 1.2784(4)
C36 C 0.6974(5) 0.2982(3) 0.9764(4)
C37 C 0.6735(6) 0.3488(3) 1.0037(4)
H18 H 0.7154 0.3647 1.0453
C38 C 0.5862(6) 0.3755(3) 0.9683(4)
H19 H 0.5710 0.4104 0.9849
C39 C 0.6335(5) 0.2722(3) 0.9186(4)
H20 H 0.6491 0.2374 0.9020
C40 C 0.5456(5) 0.2985(3) 0.8853(4)
H21 H 0.5014 0.2808 0.8463
C41 C 0.5218(5) 0.3508(3) 0.9089(3)
C42 C 0.4330(5) 0.3848(4) 0.8686(4)
C43 C 0.9240(5) -0.1497(3) 0.6595(4)
H22 H 0.9556 -0.1528 0.7087
C44 C 0.9719(5) -0.1236(3) 0.6156(4)
H23 H 1.0346 -0.1091 0.6360
C45 C 0.7950(6) -0.1653(4) 0.5634(4)
H24 H 0.7324 -0.1803 0.5441
C46 C 0.8374(6) -0.1403(3) 0.5164(4)
H25 H 0.8039 -0.1381 0.4675
H26 H 1.0779 -0.0030 0.2891
H27 H 0.9998 -0.0482 0.3611
H28 H 1.2310 -0.0151 0.5295
H29 H 1.3038 0.0270 0.4534
C47 C 0.9290(5) -0.1183(3) 0.5412(4)
C48 C 0.9754(6) -0.0904(3) 0.4910(4)
H30 H 0.9396 -0.0898 0.4424
C49 C 1.0600(5) -0.0667(3) 0.5072(4)
H31 H 1.0957 -0.0673 0.5558
C50 C 1.1078(5) -0.0382(3) 0.4565(4)
C51 C 1.1989(6) -0.0146(3) 0.4808(4)
C52 C 1.2430(6) 0.0105(3) 0.4354(4)
C53 C 1.0622(6) -0.0342(3) 0.3826(4)
C54 C 1.1114(6) -0.0077(3) 0.3395(4)
C55 C 0.4679(6) 0.4817(3) 0.7133(4)
H32 H 0.5033 0.4858 0.7617
C56 C 0.5149(6) 0.4904(3) 0.6609(5)
H33 H 0.5811 0.5001 0.6747
H34 H 0.5705 -0.2929 0.9364
C57 C 0.3246(6) 0.4615(3) 0.6275(4)
H35 H 0.2583 0.4519 0.6152
C58 C 0.3689(6) 0.4692(3) 0.5712(4)
H36 H 0.3330 0.4635 0.5232
C59 C 0.4663(6) 0.4852(3) 0.5884(4)
C60 C 0.5177(7) 0.4979(3) 0.5341(4)
H37 H 0.5851 0.5036 0.5519
Cd1 Cd 0.73548(3) -0.13010(2) 1.27889(3)
Cd2 Cd 0.75328(3) -0.21381(2) 0.70925(3)
Cd3 Cd 0.29377(4) 0.45931(2) 0.78751(3)
N1 N 0.8345(4) -0.1705(2) 0.6343(3)
N2 N 1.2017(4) 0.0144(2) 0.3640(3)
N3 N 0.3723(4) 0.4673(2) 0.6970(3)
O1 O 0.6268(4) -0.1326(2) 1.1679(3)
O2 O 0.5348(4) -0.1173(2) 1.2419(3)
O3 O 0.3873(3) -0.1384(2) 0.9185(2)
O4 O 0.6701(4) -0.2675(2) 0.7707(3)
O5 O 0.6804(3) -0.3252(2) 0.8633(3)
O6 O 0.1920(4) -0.0995(3) 1.0757(3)
O7 O -0.1600(4) -0.0749(3) 0.7906(3)
O8 O -0.1628(4) -0.1687(2) 0.8092(3)
O9 O 1.1101(3) 0.3438(2) 1.1642(3)
O10 O 1.1352(3) 0.2906(2) 1.2625(3)
O11 O 0.7918(4) 0.2211(2) 1.2453(3)
O12 O 0.7358(4) -0.0362(2) 1.3257(3)
O13 O 0.8028(4) -0.0498(2) 1.2367(3)
O14 O 0.7888(3) 0.2733(2) 1.0030(3)
O15 O 0.4275(4) 0.4358(2) 0.8792(3)
O16 O 0.3653(3) 0.35818(19) 0.8200(2)
O17 O 0.6718(3) -0.2694(2) 0.6121(2)
O18 O 0.3382(12) 0.5567(4) 0.8057(7)
C55B C 0.5321(6) 0.5183(3) 0.2867(4)
H32B H 0.4967 0.5142 0.2383
C56B C 0.4851(6) 0.5096(3) 0.3391(5)
H33B H 0.4189 0.4999 0.3253
C57B C 0.6754(6) 0.5385(3) 0.3725(4)
H35B H 0.7417 0.5481 0.3848
C58B C 0.6311(6) 0.5308(3) 0.4288(4)
H36B H 0.6670 0.5365 0.4768
C59B C 0.5337(6) 0.5148(3) 0.4116(4)
C60B C 0.4823(7) 0.5021(3) 0.4659(4)
H37B H 0.4149 0.4964 0.4481
N3B N 0.6277(4) 0.5327(2) 0.3030(3)
C1B C 0.4558(6) 1.1260(3) -0.1802(4)
C2B C 0.5456(5) 1.1256(3) -0.1160(4)
C3B C 0.5334(5) 1.1345(3) -0.0479(4)
H1B H 0.4715 1.1412 -0.0419
C4B C 0.6387(6) 1.1149(3) -0.1241(4)
H2B H 0.6464 1.1097 -0.1701
C5B C 0.7195(5) 1.1120(3) -0.0640(4)
C6B C 0.7079(5) 1.1216(3) 0.0034(4)
H3B H 0.7621 1.1204 0.0440
C7B C 0.6164(5) 1.1331(3) 0.0111(4)
C8B C 0.5438(5) 1.1736(3) 0.0975(4)
C9B C 0.5127(5) 1.1579(3) 0.1564(4)
H4B H 0.5351 1.1243 0.1808
C10B C 0.4491(5) 1.1916(3) 0.1790(4)
H5B H 0.4279 1.1805 0.2185
C11B C 0.5117(5) 1.2239(3) 0.0617(4)
H6B H 0.5324 1.2344 0.0217
C12B C 0.4486(5) 1.2586(3) 0.0856(4)
C13B C 0.4157(5) 1.2418(3) 0.1442(4)
C14B C 0.3498(5) 1.2786(3) 0.1723(4)
C15B C 0.8900(6) 1.1043(5) -0.0150(5)
C16B C 0.9231(7) 1.0565(4) 0.0244(5)
C17B C 1.0031(6) 1.0615(4) 0.0860(5)
C18B C 0.9339(7) 1.1555(4) 0.0021(5)
C19B C 1.0123(6) 1.1611(3) 0.0632(5)
C20B C 1.0475(5) 1.1139(3) 0.1064(4)
C21B C 1.1309(5) 1.1199(4) 0.1746(4)
C22B C -0.0834(5) 0.6905(3) -0.2018(4)
C23B C 0.0217(5) 0.7127(3) -0.1753(4)
C24B C 0.0723(5) 0.7070(3) -0.1020(4)
H7B H 0.0424 0.6900 -0.0701
H8B H 0.8926 1.0225 0.0080
H9B H 1.0256 1.0290 0.1127
H10B H 1.0412 1.1965 0.0730
H11B H 0.9118 1.1878 -0.0275
H12B H 0.2788 0.7617 -0.1083
C25B C 0.1670(5) 0.7270(3) -0.0779(4)
C26B C 0.0675(5) 0.7382(3) -0.2230(4)
H13B H 0.0346 0.7430 -0.2719
C27B C 0.2138(5) 0.7503(3) -0.1243(4)
C28B C 0.1629(5) 0.7560(3) -0.1949(4)
C29B C 0.2088(5) 0.8381(3) -0.2507(4)
C30B C 0.2585(5) 0.8590(3) -0.2981(4)
H14B H 0.2890 0.8345 -0.3229
C31B C 0.2617(5) 0.9169(3) -0.3077(4)
H15B H 0.2935 0.9311 -0.3402
C32B C 0.1646(5) 0.8740(3) -0.2124(4)
H16B H 0.1318 0.8599 -0.1805
C33B C 0.1711(5) 0.9328(3) -0.2233(4)
H17B H 0.1421 0.9576 -0.1979
C34B C 0.2187(5) 0.9544(3) -0.2701(4)
C35B C 0.2261(5) 1.0167(3) -0.2784(4)
C36B C 0.3026(5) 0.7018(3) 0.0236(4)
C37B C 0.3265(6) 0.6512(3) -0.0037(4)
H18B H 0.2846 0.6353 -0.0453
C38B C 0.4138(6) 0.6245(3) 0.0317(4)
H19B H 0.4290 0.5896 0.0151
C39B C 0.3665(5) 0.7278(3) 0.0814(4)
H20B H 0.3509 0.7626 0.0980
C40B C 0.4544(5) 0.7015(3) 0.1147(4)
H21B H 0.4986 0.7192 0.1537
C41B C 0.4782(5) 0.6492(3) 0.0911(3)
C42B C 0.5670(5) 0.6152(4) 0.1314(4)
C43B C 0.0760(5) 1.1497(3) 0.3405(4)
H22B H 0.0444 1.1528 0.2913
C44B C 0.0281(5) 1.1236(3) 0.3844(4)
H23B H -0.0346 1.1091 0.3640
C45B C 0.2050(6) 1.1653(4) 0.4366(4)
H24B H 0.2676 1.1803 0.4559
C46B C 0.1626(6) 1.1403(3) 0.4836(4)
H25B H 0.1961 1.1381 0.5325
H26B H -0.0779 1.0030 0.7109
H27B H 0.0002 1.0482 0.6389
H28B H -0.2310 1.0151 0.4705
H29B H -0.3038 0.9730 0.5466
C47B C 0.0710(5) 1.1183(3) 0.4588(4)
C48B C 0.0246(6) 1.0904(3) 0.5090(4)
H30B H 0.0604 1.0898 0.5576
C49B C -0.0600(5) 1.0667(3) 0.4928(4)
H31B H -0.0957 1.0673 0.4442
C50B C -0.1078(5) 1.0382(3) 0.5435(4)
C51B C -0.1989(6) 1.0146(3) 0.5192(4)
C52B C -0.2430(6) 0.9895(3) 0.5646(4)
C53B C -0.0622(6) 1.0342(3) 0.6174(4)
C54B C -0.1114(6) 1.0077(3) 0.6605(4)
H34B H 0.4295 1.2929 0.0636
Cd1B Cd 0.26452(3) 1.13010(2) -0.27889(3)
Cd2B Cd 0.24672(3) 1.21381(2) 0.29075(3)
Cd3B Cd 0.70623(4) 0.54069(2) 0.21249(3)
N1B N 0.1655(4) 1.1705(2) 0.3657(3)
N2B N -0.2017(4) 0.9856(2) 0.6360(3)
O1B O 0.3732(4) 1.1326(2) -0.1679(3)
O2B O 0.4652(4) 1.1173(2) -0.2419(3)
O3B O 0.6127(3) 1.1384(2) 0.0815(2)
O4B O 0.3299(4) 1.2675(2) 0.2293(3)
O5B O 0.3196(3) 1.3252(2) 0.1367(3)
O6B O 0.8080(4) 1.0995(3) -0.0757(3)
O7B O 1.1600(4) 1.0749(3) 0.2094(3)
O8B O 1.1628(4) 1.1687(2) 0.1908(3)
O9B O -0.1101(3) 0.6562(2) -0.1642(3)
O10B O -0.1352(3) 0.7094(2) -0.2625(3)
O11B O 0.2082(4) 0.7789(2) -0.2453(3)
O12B O 0.2642(4) 1.0362(2) -0.3257(3)
O13B O 0.1972(4) 1.0498(2) -0.2367(3)
O14B O 0.2112(3) 0.7267(2) -0.0030(3)
O15B O 0.5725(4) 0.5642(2) 0.1208(3)
O16B O 0.6347(3) 0.64182(19) 0.1800(2)
O17B O 0.3282(3) 1.2694(2) 0.3879(2)
O18B O 0.6618(12) 0.4433(4) 0.1943(7)
Cd1A Cd 0.26452(3) 1.36990(2) 0.22111(3)
Cd1A_2 Cd 1.26452(3) 0.36990(2) 1.22111(3)
Cd1C Cd -0.26452(3) 0.63010(2) -0.22111(3)
Cd1C_2 Cd 0.73548(3) -0.36990(2) 0.77889(3)
Cd2_2 Cd -0.24672(3) -0.21381(2) 0.70925(3)
Cd2_3 Cd -0.24672(3) 0.78619(2) -0.29075(3)
Cd2A Cd 0.24672(3) 0.28619(2) 0.79075(3)
Cd2B_2 Cd 1.24672(3) 0.21381(2) 1.29075(3)
Cd2B_3 Cd 1.24672(3) 1.21381(2) 0.29075(3)
Cd2C Cd 0.75328(3) 0.71381(2) 0.20925(3)
Cd3A Cd -0.29377(4) -0.04069(2) 0.71249(3)
Cd3A_2 Cd -0.29377(4) 0.95931(2) 0.71249(3)
Cd3C Cd 1.29377(4) 0.04069(2) 0.28751(3)
Cd3C_2 Cd 1.29377(4) 1.04069(2) 0.28751(3)
N2A N 0.7983(4) 0.5144(2) 0.1360(3)
N2C N 0.2017(4) 0.4856(2) 0.8640(3)
O4A O 0.3299(4) 1.2325(2) -0.2707(3)
O4C O 0.6701(4) -0.2325(2) 1.2707(3)
O5A O 0.3196(3) 1.1748(2) -0.3633(3)
O5C O 0.6804(3) -0.1748(2) 1.3633(3)
O7A O 0.1600(4) 0.4251(3) 0.7094(3)
O7C O 0.8400(4) 0.5749(3) 0.2906(3)
O8_2 O 0.8372(4) -0.1687(2) 0.8092(3)
O8B_2 O 0.1628(4) 1.1687(2) 0.1908(3)
O9A O 0.8899(3) -0.1562(2) 1.3358(3)
O9C O 0.1101(3) 1.1562(2) -0.3358(3)
O10_2 O 0.1352(3) 1.2906(2) 0.2625(3)
O10B_2 O 0.8648(3) -0.2906(2) 0.7375(3)
O16A O 0.6347(3) -0.14182(19) 0.6800(2)
O16C O 0.3653(3) 1.14182(19) 0.3200(2)
loop_
_geom_bond_atom_site_label_1
_geom_bond_atom_site_label_2
_geom_bond_site_symmetry_1
_geom_bond_site_symmetry_2
C1 C2 1_555 1_555
C2 C3 1_555 1_555
C3 H1 1_555 1_555
C4 C2 1_555 1_555
H2 C4 1_555 1_555
C5 C4 1_555 1_555
C6 C5 1_555 1_555
H3 C6 1_555 1_555
C7 C3 1_555 1_555
C8 C9 1_555 1_555
C9 H4 1_555 1_555
C10 C9 1_555 1_555
H5 C10 1_555 1_555
C11 C8 1_555 1_555
H6 C11 1_555 1_555
C12 C11 1_555 1_555
C13 C10 1_555 1_555
C14 C13 1_555 1_555
C15 C16 1_555 1_555
C16 C17 1_555 1_555
C17 C20 1_555 1_555
C18 C15 1_555 1_555
C19 C18 1_555 1_555
C20 C19 1_555 1_555
C21 C20 1_555 1_555
C22 C23 1_555 1_555
C23 C24 1_555 1_555
C24 H7 1_555 1_555
H8 C16 1_555 1_555
H9 C17 1_555 1_555
H10 C19 1_555 1_555
H11 C18 1_555 1_555
H12 C27 1_555 1_555
C25 C24 1_555 1_555
C26 C23 1_555 1_555
H13 C26 1_555 1_555
C27 C25 1_555 1_555
C28 C26 1_555 1_555
C29 C30 1_555 1_555
C30 H14 1_555 1_555
C31 C30 1_555 1_555
H15 C31 1_555 1_555
C32 C29 1_555 1_555
H16 C32 1_555 1_555
C33 C32 1_555 1_555
H17 C33 1_555 1_555
C34 C31 1_555 1_555
C35 C34 1_555 1_555
C36 C37 1_555 1_555
C37 H18 1_555 1_555
C38 C37 1_555 1_555
H19 C38 1_555 1_555
C39 C36 1_555 1_555
H20 C39 1_555 1_555
C40 C39 1_555 1_555
H21 C40 1_555 1_555
C41 C38 1_555 1_555
C42 C41 1_555 1_555
C43 H22 1_555 1_555
C44 C43 1_555 1_555
H23 C44 1_555 1_555
C45 H24 1_555 1_555
C46 C45 1_555 1_555
H25 C46 1_555 1_555
H26 C54 1_555 1_555
H27 C53 1_555 1_555
H28 C51 1_555 1_555
H29 C52 1_555 1_555
C47 C44 1_555 1_555
C48 C47 1_555 1_555
H30 C48 1_555 1_555
C49 C48 1_555 1_555
H31 C49 1_555 1_555
C50 C49 1_555 1_555
C51 C50 1_555 1_555
C52 C51 1_555 1_555
C53 C50 1_555 1_555
C54 C53 1_555 1_555
C55 H32 1_555 1_555
C56 C55 1_555 1_555
H33 C56 1_555 1_555
H34 C12 1_555 1_555
C57 H35 1_555 1_555
C58 C57 1_555 1_555
H36 C58 1_555 1_555
C59 C56 1_555 1_555
C60 C59 1_555 1_555
H37 C60 1_555 1_555
Cd1 O1 1_555 1_555
Cd2 N1 1_555 1_555
Cd3 N3 1_555 1_555
N1 C43 1_555 1_555
N2 C52 1_555 1_555
N3 C55 1_555 1_555
O1 C1 1_555 1_555
O2 C1 1_555 1_555
O3 C7 1_555 1_555
O4 C14 1_555 1_555
O5 C14 1_555 1_555
O6 C5 1_555 1_555
O7 C21 1_555 1_555
O8 C21 1_555 1_555
O9 C22 1_555 1_555
O10 C22 1_555 1_555
O11 C28 1_555 1_555
O12 C35 1_555 1_555
O13 C35 1_555 1_555
O14 C25 1_555 1_555
O15 C42 1_555 1_555
O16 C42 1_555 1_555
O17 Cd2 1_555 1_555
O18 Cd3 1_555 1_555
C55B H32B 1_555 1_555
C56B C55B 1_555 1_555
H33B C56B 1_555 1_555
C57B H35B 1_555 1_555
C58B C57B 1_555 1_555
H36B C58B 1_555 1_555
C59B C56B 1_555 1_555
C60B C60 1_555 1_555
H37B C60B 1_555 1_555
N3B C55B 1_555 1_555
C1B C2B 1_555 1_555
C2B C3B 1_555 1_555
C3B H1B 1_555 1_555
C4B C2B 1_555 1_555
H2B C4B 1_555 1_555
C5B C4B 1_555 1_555
C6B C5B 1_555 1_555
H3B C6B 1_555 1_555
C7B C3B 1_555 1_555
C8B C9B 1_555 1_555
C9B H4B 1_555 1_555
C10B C9B 1_555 1_555
H5B C10B 1_555 1_555
C11B C8B 1_555 1_555
H6B C11B 1_555 1_555
C12B C11B 1_555 1_555
C13B C10B 1_555 1_555
C14B C13B 1_555 1_555
C15B C16B 1_555 1_555
C16B C17B 1_555 1_555
C17B C20B 1_555 1_555
C18B C15B 1_555 1_555
C19B C18B 1_555 1_555
C20B C19B 1_555 1_555
C21B C20B 1_555 1_555
C22B C23B 1_555 1_555
C23B C24B 1_555 1_555
C24B H7B 1_555 1_555
H8B C16B 1_555 1_555
H9B C17B 1_555 1_555
H10B C19B 1_555 1_555
H11B C18B 1_555 1_555
H12B C27B 1_555 1_555
C25B C24B 1_555 1_555
C26B C23B 1_555 1_555
H13B C26B 1_555 1_555
C27B C25B 1_555 1_555
C28B C26B 1_555 1_555
C29B C30B 1_555 1_555
C30B H14B 1_555 1_555
C31B C30B 1_555 1_555
H15B C31B 1_555 1_555
C32B C29B 1_555 1_555
H16B C32B 1_555 1_555
C33B C32B 1_555 1_555
H17B C33B 1_555 1_555
C34B C31B 1_555 1_555
C35B C34B 1_555 1_555
C36B C37B 1_555 1_555
C37B H18B 1_555 1_555
C38B C37B 1_555 1_555
H19B C38B 1_555 1_555
C39B C36B 1_555 1_555
H20B C39B 1_555 1_555
C40B C39B 1_555 1_555
H21B C40B 1_555 1_555
C41B C38B 1_555 1_555
C42B C41B 1_555 1_555
C43B H22B 1_555 1_555
C44B C43B 1_555 1_555
H23B C44B 1_555 1_555
C45B H24B 1_555 1_555
C46B C45B 1_555 1_555
H25B C46B 1_555 1_555
H26B C54B 1_555 1_555
H27B C53B 1_555 1_555
H28B C51B 1_555 1_555
H29B C52B 1_555 1_555
C47B C44B 1_555 1_555
C48B C47B 1_555 1_555
H30B C48B 1_555 1_555
C49B C48B 1_555 1_555
H31B C49B 1_555 1_555
C50B C49B 1_555 1_555
C51B C50B 1_555 1_555
C52B C51B 1_555 1_555
C53B C50B 1_555 1_555
C54B C53B 1_555 1_555
H34B C12B 1_555 1_555
Cd1B O1B 1_555 1_555
Cd2B N1B 1_555 1_555
Cd3B N3B 1_555 1_555
N1B C43B 1_555 1_555
N2B C52B 1_555 1_555
O1B C1B 1_555 1_555
O2B C1B 1_555 1_555
O3B C7B 1_555 1_555
O4B C14B 1_555 1_555
O5B C14B 1_555 1_555
O6B C5B 1_555 1_555
O7B C21B 1_555 1_555
O8B C21B 1_555 1_555
O9B C22B 1_555 1_555
O10B C22B 1_555 1_555
O11B C28B 1_555 1_555
O12B C35B 1_555 1_555
O13B C35B 1_555 1_555
O14B C25B 1_555 1_555
O15B C42B 1_555 1_555
O16B C42B 1_555 1_555
O17B Cd2B 1_555 1_555
O18B Cd3B 1_555 1_555
Cd1A O4B 1_555 1_555
Cd1A_2 O9 1_555 1_555
Cd1C O9B 1_555 1_555
Cd1C_2 O4 1_555 1_555
Cd2_2 O8 1_555 1_555
Cd2_3 O10B 1_555 1_555
Cd2A O16 1_555 1_555
Cd2B_2 O10 1_555 1_555
Cd2B_3 O8B 1_555 1_555
Cd2C O16B 1_555 1_555
Cd3A O7 1_555 1_555
Cd3A_2 N2B 1_555 1_555
Cd3C N2 1_555 1_555
Cd3C_2 O7B 1_555 1_555
N2A Cd3B 1_555 1_555
N2C Cd3 1_555 1_555
O4A Cd1B 1_555 1_555
O4C Cd1 1_555 1_555
O5A Cd1B 1_555 1_555
O5C Cd1 1_555 1_555
O7A Cd3 1_555 1_555
O7C Cd3B 1_555 1_555
O8_2 Cd2 1_555 1_555
O8B_2 Cd2B 1_555 1_555
O9A Cd1 1_555 1_555
O9C Cd1B 1_555 1_555
O10_2 Cd2B 1_555 1_555
O10B_2 Cd2 1_555 1_555
O16A Cd2 1_555 1_555
O16C Cd2B 1_555 1_555
C6 C7 1_555 1_555
C8 O3 1_555 1_555
C12 C13 1_555 1_555
C15 O6 1_555 1_555
C27 C28 1_555 1_555
C29 O11 1_555 1_555
C33 C34 1_555 1_555
C36 O14 1_555 1_555
C40 C41 1_555 1_555
C45 N1 1_555 1_555
C46 C47 1_555 1_555
C54 N2 1_555 1_555
C57 N3 1_555 1_555
C58 C59 1_555 1_555
Cd1 O2 1_555 1_555
Cd1 O12 1_555 1_555
Cd1 O13 1_555 1_555
Cd2 O4 1_555 1_555
Cd3 O15 1_555 1_555
Cd3 O16 1_555 1_555
O5 Cd1C_2 1_555 1_555
C57B N3B 1_555 1_555
C58B C59B 1_555 1_555
C59B C60B 1_555 1_555
C6B C7B 1_555 1_555
C8B O3B 1_555 1_555
C12B C13B 1_555 1_555
C15B O6B 1_555 1_555
C27B C28B 1_555 1_555
C29B O11B 1_555 1_555
C33B C34B 1_555 1_555
C36B O14B 1_555 1_555
C40B C41B 1_555 1_555
C45B N1B 1_555 1_555
C46B C47B 1_555 1_555
C54B N2B 1_555 1_555
Cd1B O2B 1_555 1_555
Cd1B O12B 1_555 1_555
Cd1B O13B 1_555 1_555
Cd2B O4B 1_555 1_555
Cd3B O15B 1_555 1_555
Cd3B O16B 1_555 1_555
O5B Cd1A 1_555 1_555

#END
