
#######################################################################
#
#                 Cambridge Crystallographic Data Centre
#                                CCDC 
#
#######################################################################
#
# If this CIF has been generated from an entry in the Cambridge 
# Structural Database, then it will include bibliographic, chemical, 
# crystal, experimental, refinement or atomic coordinate data resulting 
# from the CCDC's data processing and validation procedures.
#
#######################################################################

data_TUNJUJ
_symmetry_cell_setting           triclinic
_symmetry_space_group_name_H-M   'P -1'
_symmetry_Int_Tables_number      2
_space_group_name_Hall           '-P 1'
loop_
_symmetry_equiv_pos_site_id
_symmetry_equiv_pos_as_xyz
1 x,y,z
2 -x,-y,-z
_cell_length_a                   8.9520(8)
_cell_length_b                   10.1519(9)
_cell_length_c                   11.7454(8)
_cell_angle_alpha                110.354(7)
_cell_angle_beta                 104.084(8)
_cell_angle_gamma                90.324(8)
_cell_volume                     965.892
loop_
_atom_site_label
_atom_site_type_symbol
_atom_site_fract_x
_atom_site_fract_y
_atom_site_fract_z
Cd1 Cd 0.0000 0.5000 0.0000
Br1 Br -0.32339(5) 0.60207(5) 0.37133(4)
Br2 Br 0.31901(5) 0.57305(5) 0.43516(4)
O1 O -0.0251(3) 0.5610(3) 0.2103(3)
O2 O -0.0016(4) 0.7751(3) 0.3605(3)
N1 N 0.2095(4) 0.1557(4) 0.1113(3)
C1 C 0.1342(4) 0.5284(4) 0.4706(3)
N2 N 0.2401(4) -0.3709(4) 0.0901(3)
C2 C -0.1368(4) 0.5421(4) 0.4474(3)
N3 N 0.0987(4) 0.2986(4) 0.0196(3)
C3 C 0.2907(5) 0.1048(6) 0.2078(5)
H1 H 0.2560 0.0059 0.1834
H2 H 0.2637 0.1560 0.2855
N4 N 0.4148(4) -0.1948(4) 0.2201(3)
C4 C -0.0037(4) 0.5710(4) 0.4150(3)
C5 C 0.5373(6) 0.2145(5) 0.1947(4)
H3 H 0.4771 0.2653 0.1516
C6 C 0.7168(5) 0.0642(5) 0.3187(4)
H4 H 0.7778 0.0136 0.3616
C7 C -0.0106(4) 0.6429(4) 0.3203(4)
C8 C 0.5571(5) 0.0416(4) 0.2921(4)
C9 C 0.1247(5) 0.1796(5) -0.0700(4)
H5 H 0.0997 0.1620 -0.1559
C10 C 0.4748(5) -0.2678(5) 0.1225(4)
H6 H 0.5714 -0.2481 0.1124
C11 C 0.1518(5) 0.2797(5) 0.1271(4)
H7 H 0.1494 0.3451 0.2049
C12 C 0.4653(5) 0.1207(5) 0.2318(4)
C13 C 0.4874(5) -0.0676(5) 0.3303(4)
H8 H 0.4102 -0.0268 0.3740
H9 H 0.5677 -0.0942 0.3879
C14 C 0.2743(5) -0.2618(5) 0.1956(4)
H10 H 0.2084 -0.2335 0.2480
C15 C 0.7881(6) 0.1585(5) 0.2839(4)
H11 H 0.8954 0.1713 0.3028
C16 C 0.3658(5) -0.3744(5) 0.0433(4)
H12 H 0.3754 -0.4405 -0.0321
C17 C 0.6984(6) 0.2339(5) 0.2208(4)
H13 H 0.7448 0.2975 0.1956
C18 C 0.1930(6) 0.0907(6) -0.0139(5)
H14 H 0.2227 0.0024 -0.0537
Br1A Br 0.32339(5) 0.39793(5) 0.62867(4)
Br2A Br -0.31901(5) 0.42695(5) 0.56484(4)
O1A O 0.0251(3) 0.4390(3) 0.7897(3)
O2A O 0.0016(4) 0.2249(3) 0.6395(3)
C1A C -0.1342(4) 0.4716(4) 0.5294(3)
C2A C 0.1368(4) 0.4579(4) 0.5526(3)
C4A C 0.0037(4) 0.4290(4) 0.5850(3)
C7A C 0.0106(4) 0.3571(4) 0.6797(4)
N1A N -0.2095(4) -0.1557(4) -0.1113(3)
N2A N -0.2401(4) 0.3709(4) -0.0901(3)
N3A N -0.0987(4) -0.2986(4) -0.0196(3)
C3A C -0.2907(5) -0.1048(6) -0.2078(5)
H1A H -0.2560 -0.0059 -0.1834
H2A H -0.2637 -0.1560 -0.2855
N4A N -0.4148(4) 0.1948(4) -0.2201(3)
C5A C -0.5373(6) -0.2145(5) -0.1947(4)
H3A H -0.4771 -0.2653 -0.1516
C6A C -0.7168(5) -0.0642(5) -0.3187(4)
H4A H -0.7778 -0.0136 -0.3616
C8A C -0.5571(5) -0.0416(4) -0.2921(4)
C9A C -0.1247(5) -0.1796(5) 0.0700(4)
H5A H -0.0997 -0.1620 0.1559
C10A C -0.4748(5) 0.2678(5) -0.1225(4)
H6A H -0.5714 0.2481 -0.1124
C11A C -0.1518(5) -0.2797(5) -0.1271(4)
H7A H -0.1494 -0.3451 -0.2049
C12A C -0.4653(5) -0.1207(5) -0.2318(4)
C13A C -0.4874(5) 0.0676(5) -0.3303(4)
H8A H -0.4102 0.0268 -0.3740
H9A H -0.5677 0.0942 -0.3879
C14A C -0.2743(5) 0.2618(5) -0.1956(4)
H10A H -0.2084 0.2335 -0.2480
C15A C -0.7881(6) -0.1585(5) -0.2839(4)
H11A H -0.8954 -0.1713 -0.3028
C16A C -0.3658(5) 0.3744(5) -0.0433(4)
H12A H -0.3754 0.4405 0.0321
C17A C -0.6984(6) -0.2339(5) -0.2208(4)
H13A H -0.7448 -0.2975 -0.1956
C18A C -0.1930(6) -0.0907(6) 0.0139(5)
H14A H -0.2227 -0.0024 0.0537
Cd1_2 Cd 0.0000 -0.5000 0.0000
Cd1_3 Cd 0.0000 0.5000 1.0000
O1A_2 O 0.0251(3) 0.4390(3) -0.2103(3)
N2_2 N 0.2401(4) 0.6291(4) 0.0901(3)
N3A_2 N -0.0987(4) 0.7014(4) -0.0196(3)
O3 O 0.1359(4) 0.0571(4) 0.4267(4)
H15 H 0.2277 0.0407 0.4223
H16 H 0.0830 -0.0199 0.4114
loop_
_geom_bond_atom_site_label_1
_geom_bond_atom_site_label_2
_geom_bond_site_symmetry_1
_geom_bond_site_symmetry_2
Cd1 O1 1_555 1_555
Br1 C2 1_555 1_555
Br2 C1 1_555 1_555
O1 C7 1_555 1_555
O2 C7 1_555 1_555
N1 C3 1_555 1_555
C1 C4 1_555 1_555
N2 C14 1_555 1_555
C2 C4 1_555 1_555
N3 Cd1 1_555 1_555
C3 H1 1_555 1_555
H2 C3 1_555 1_555
N4 C10 1_555 1_555
C4 C7 1_555 1_555
C5 H3 1_555 1_555
C6 H4 1_555 1_555
C8 C6 1_555 1_555
C9 N3 1_555 1_555
H5 C9 1_555 1_555
C10 H6 1_555 1_555
C11 N1 1_555 1_555
H7 C11 1_555 1_555
C12 C3 1_555 1_555
C13 N4 1_555 1_555
H8 C13 1_555 1_555
H9 C13 1_555 1_555
C14 N4 1_555 1_555
H10 C14 1_555 1_555
C15 C6 1_555 1_555
H11 C15 1_555 1_555
C16 N2 1_555 1_555
H12 C16 1_555 1_555
C17 C5 1_555 1_555
H13 C17 1_555 1_555
C18 N1 1_555 1_555
H14 C18 1_555 1_555
O3 H15 1_555 1_555
H16 O3 1_555 1_555
Br1A C2A 1_555 1_555
Br2A C1A 1_555 1_555
O1A C7A 1_555 1_555
O2A C7A 1_555 1_555
C1A C2 1_555 1_555
C2A C1 1_555 1_555
C4A C1A 1_555 1_555
C7A C4A 1_555 1_555
N1A C3A 1_555 1_555
N2A Cd1 1_555 1_555
N3A C9A 1_555 1_555
C3A H1A 1_555 1_555
H2A C3A 1_555 1_555
N4A C10A 1_555 1_555
C5A H3A 1_555 1_555
C6A H4A 1_555 1_555
C8A C6A 1_555 1_555
C9A H5A 1_555 1_555
C10A H6A 1_555 1_555
C11A N1A 1_555 1_555
H7A C11A 1_555 1_555
C12A C3A 1_555 1_555
C13A N4A 1_555 1_555
H8A C13A 1_555 1_555
H9A C13A 1_555 1_555
C14A N2A 1_555 1_555
H10A C14A 1_555 1_555
C15A C6A 1_555 1_555
H11A C15A 1_555 1_555
C16A N2A 1_555 1_555
H12A C16A 1_555 1_555
C17A C5A 1_555 1_555
H13A C17A 1_555 1_555
C18A N1A 1_555 1_555
H14A C18A 1_555 1_555
Cd1_2 N2 1_555 1_555
Cd1_3 O1A 1_555 1_555
O1A_2 Cd1 1_555 1_555
N2_2 Cd1 1_555 1_555
N3A_2 Cd1 1_555 1_555
N3 C11 1_555 1_555
C5 C12 1_555 1_555
C8 C12 1_555 1_555
C8 C13 1_555 1_555
C9 C18 1_555 1_555
C10 C16 1_555 1_555
C15 C17 1_555 1_555
C2A C4A 1_555 1_555
N3A C11A 1_555 1_555
N3A Cd1_2 1_555 1_555
N4A C14A 1_555 1_555
C5A C12A 1_555 1_555
C8A C12A 1_555 1_555
C8A C13A 1_555 1_555
C9A C18A 1_555 1_555
C10A C16A 1_555 1_555
C15A C17A 1_555 1_555

#END
