
#######################################################################
#
#                 Cambridge Crystallographic Data Centre
#                                CCDC 
#
#######################################################################
#
# If this CIF has been generated from an entry in the Cambridge 
# Structural Database, then it will include bibliographic, chemical, 
# crystal, experimental, refinement or atomic coordinate data resulting 
# from the CCDC's data processing and validation procedures.
#
#######################################################################

data_TUNKAQ
_symmetry_cell_setting           monoclinic
_symmetry_space_group_name_H-M   'P 2/c'
_symmetry_Int_Tables_number      13
_space_group_name_Hall           '-P 2yc'
loop_
_symmetry_equiv_pos_site_id
_symmetry_equiv_pos_as_xyz
1 x,y,z
2 -x,y,1/2-z
3 -x,-y,-z
4 x,-y,1/2+z
_cell_length_a                   18.3022(3)
_cell_length_b                   8.84836(16)
_cell_length_c                   17.5015(3)
_cell_angle_alpha                90
_cell_angle_beta                 93.8224(15)
_cell_angle_gamma                90
_cell_volume                     2827.97
loop_
_atom_site_label
_atom_site_type_symbol
_atom_site_fract_x
_atom_site_fract_y
_atom_site_fract_z
Cd1 Cd 0.19458(2) 0.50930(5) 0.54661(3)
Br1 Br 0.61573(4) 0.62868(11) 0.63512(4)
Br2 Br 0.44122(5) 0.56548(17) 0.66813(5)
Br3 Br 0.13174(6) 0.99605(11) 0.63531(6)
Br4 Br -0.01531(5) 0.71575(10) 0.38105(6)
O1 O 0.0845(3) 0.6465(6) 0.5680(4)
O2 O 0.1531(3) 0.7307(6) 0.4798(4)
O3 O 0.3232(3) 0.3422(8) 0.5496(4)
C1 C 0.4254(4) 0.4825(8) 0.5130(4)
O4 O 0.3068(3) 0.5833(8) 0.5163(4)
N1 N 0.2037(3) -0.4564(7) 0.1719(3)
N2 N 0.1561(3) 0.3311(7) 0.4635(4)
C2 C 0.5490(3) 0.5493(9) 0.5582(4)
C3 C 0.0484(3) 0.8787(7) 0.5074(4)
N3 N 0.2445(4) -0.3459(7) 0.2774(3)
C4 C 0.0548(4) 0.9992(7) 0.5573(4)
C5 C 0.4755(4) 0.5310(9) 0.5706(4)
C6 C -0.0065(3) 0.8803(7) 0.4495(4)
C7 C 0.0997(3) 0.7404(8) 0.5196(4)
N4 N 0.1567(4) 0.1290(8) 0.3924(4)
C8 C 0.1943(4) 0.2080(9) 0.4471(5)
C9 C 0.3449(4) 0.4650(11) 0.5275(4)
C10 C 0.2485(4) 0.1535(8) 0.2672(5)
C11 C 0.2554(4) -0.3710(9) 0.2033(4)
C12 C 0.3032(5) 0.1803(10) 0.2174(5)
C13 C 0.1823(5) -0.4185(10) 0.2931(4)
C14 C 0.2923(6) -0.2516(9) 0.3297(5)
C15 C 0.2451(5) 0.0170(8) 0.3059(5)
C16 C 0.0920(4) 0.3264(9) 0.4188(5)
C17 C 0.2979(4) -0.0948(9) 0.2967(4)
C18 C 0.0914(5) 0.2017(11) 0.3726(5)
C19 C 0.3569(6) 0.0731(13) 0.2100(6)
C20 C 0.1817(7) -0.0128(9) 0.3569(7)
C21 C 0.1573(5) -0.4881(9) 0.2276(5)
C22 C 0.3541(6) -0.0636(13) 0.2481(6)
Br1B Br 0.38427(4) 0.37132(11) 0.36488(4)
Br2B Br 0.55878(5) 0.43452(17) 0.33187(5)
O3B O 0.6768(3) 0.6578(8) 0.4504(4)
C1B C 0.5746(4) 0.5175(8) 0.4870(4)
O4B O 0.6932(3) 0.4167(8) 0.4837(4)
C2B C 0.4510(3) 0.4507(9) 0.4418(4)
C5B C 0.5245(4) 0.4690(9) 0.4294(4)
C9B C 0.6551(4) 0.5350(11) 0.4725(4)
Br3B Br -0.13174(6) 1.00395(11) 0.36469(6)
Br4B Br 0.01531(5) 1.28425(10) 0.61895(6)
O1B O -0.0845(3) 1.3535(6) 0.4320(4)
O2B O -0.1531(3) 1.2693(6) 0.5202(4)
C3B C -0.0484(3) 1.1213(7) 0.4926(4)
C4B C -0.0548(4) 1.0008(7) 0.4427(4)
C6B C 0.0065(3) 1.1197(7) 0.5505(4)
C7B C -0.0997(3) 1.2596(8) 0.4804(4)
Cd1B Cd -0.19458(2) 1.49070(5) 0.45339(3)
N1B N -0.2037(3) 2.4564(7) 0.8281(3)
N2B N -0.1561(3) 1.6689(7) 0.5365(4)
N3B N -0.2445(4) 2.3459(7) 0.7226(3)
N4B N -0.1567(4) 1.8710(8) 0.6076(4)
C8B C -0.1943(4) 1.7920(9) 0.5529(5)
C10B C -0.2485(4) 1.8465(8) 0.7328(5)
C11B C -0.2554(4) 2.3710(9) 0.7967(4)
C12B C -0.3032(5) 1.8197(10) 0.7826(5)
C13B C -0.1823(5) 2.4185(10) 0.7069(4)
C14B C -0.2923(6) 2.2516(9) 0.6703(5)
C15B C -0.2451(5) 1.9830(8) 0.6941(5)
C16B C -0.0920(4) 1.6736(9) 0.5812(5)
C17B C -0.2979(4) 2.0948(9) 0.7033(4)
C18B C -0.0914(5) 1.7983(11) 0.6274(5)
C19B C -0.3569(6) 1.9269(13) 0.7900(6)
C20B C -0.1817(7) 2.0128(9) 0.6431(7)
C21B C -0.1573(5) 2.4881(9) 0.7724(5)
C22B C -0.3541(6) 2.0636(13) 0.7519(6)
Cd1A Cd -0.19458(2) 2.50930(5) 0.95339(3)
Cd1B_2 Cd 0.80542(2) 0.49070(5) 0.45339(3)
Cd1C Cd 0.19458(2) -0.50930(5) 0.04661(3)
O3B_2 O -0.3232(3) 1.6578(8) 0.4504(4)
O4B_2 O -0.3068(3) 1.4167(8) 0.4837(4)
N1A N -0.2037(3) 1.5436(7) 0.3281(3)
N1C N 0.2037(3) 0.4564(7) 0.6719(3)
loop_
_geom_bond_atom_site_label_1
_geom_bond_atom_site_label_2
_geom_bond_site_symmetry_1
_geom_bond_site_symmetry_2
Cd1 O1 1_555 1_555
Br1 C2 1_555 1_555
Br2 C5 1_555 1_555
Br3 C4 1_555 1_555
Br4 C6 1_555 1_555
O1 C7 1_555 1_555
O2 Cd1 1_555 1_555
O3 Cd1 1_555 1_555
C1 C5 1_555 1_555
O4 Cd1 1_555 1_555
N1 C11 1_555 1_555
N2 Cd1 1_555 1_555
C2 C5 1_555 1_555
C3 C4 1_555 1_555
N3 C11 1_555 1_555
C4 C6B 1_555 1_555
C6 C3 1_555 1_555
C7 O2 1_555 1_555
N4 C8 1_555 1_555
C8 N2 1_555 1_555
C9 O3 1_555 1_555
C10 C12 1_555 1_555
C12 C19 1_555 1_555
C13 N3 1_555 1_555
C14 N3 1_555 1_555
C15 C10 1_555 1_555
C16 N2 1_555 1_555
C17 C14 1_555 1_555
C18 N4 1_555 1_555
C19 C22 1_555 1_555
C20 N4 1_555 1_555
C21 N1 1_555 1_555
C22 C17 1_555 1_555
Br1B C2B 1_555 1_555
Br2B C5B 1_555 1_555
O3B C9B 1_555 1_555
C1B C2 1_555 1_555
O4B C9B 1_555 1_555
C2B C1 1_555 1_555
C5B C1B 1_555 1_555
C9B C1B 1_555 1_555
Br3B C4B 1_555 1_555
Br4B C6B 1_555 1_555
O1B C7B 1_555 1_555
O2B C7B 1_555 1_555
C3B C4B 1_555 1_555
C4B C6 1_555 1_555
C6B C3B 1_555 1_555
C7B C3B 1_555 1_555
Cd1B O1B 1_555 1_555
N1B C11B 1_555 1_555
N2B Cd1B 1_555 1_555
N3B C11B 1_555 1_555
N4B C8B 1_555 1_555
C8B N2B 1_555 1_555
C10B C12B 1_555 1_555
C12B C19B 1_555 1_555
C13B N3B 1_555 1_555
C14B N3B 1_555 1_555
C15B C10B 1_555 1_555
C16B N2B 1_555 1_555
C17B C14B 1_555 1_555
C18B N4B 1_555 1_555
C19B C22B 1_555 1_555
C20B N4B 1_555 1_555
C21B N1B 1_555 1_555
C22B C17B 1_555 1_555
Cd1A N1B 1_555 1_555
Cd1B_2 O3B 1_555 1_555
Cd1C N1 1_555 1_555
O3B_2 Cd1B 1_555 1_555
O4B_2 Cd1B 1_555 1_555
N1A Cd1B 1_555 1_555
N1C Cd1 1_555 1_555
C1 C9 1_555 1_555
O4 C9 1_555 1_555
C3 C7 1_555 1_555
C13 C21 1_555 1_555
C15 C17 1_555 1_555
C15 C20 1_555 1_555
C16 C18 1_555 1_555
O4B Cd1B_2 1_555 1_555
C2B C5B 1_555 1_555
O2B Cd1B 1_555 1_555
C13B C21B 1_555 1_555
C15B C17B 1_555 1_555
C15B C20B 1_555 1_555
C16B C18B 1_555 1_555

#END
