
#######################################################################
#
#                 Cambridge Crystallographic Data Centre
#                                CCDC 
#
#######################################################################
#
# If this CIF has been generated from an entry in the Cambridge 
# Structural Database, then it will include bibliographic, chemical, 
# crystal, experimental, refinement or atomic coordinate data resulting 
# from the CCDC's data processing and validation procedures.
#
#######################################################################

data_TUNKEU
_symmetry_cell_setting           monoclinic
_symmetry_space_group_name_H-M   'P 21/c'
_symmetry_Int_Tables_number      14
_space_group_name_Hall           '-P 2ybc'
loop_
_symmetry_equiv_pos_site_id
_symmetry_equiv_pos_as_xyz
1 x,y,z
2 -x,1/2+y,1/2-z
3 -x,-y,-z
4 x,1/2-y,1/2+z
_cell_length_a                   9.974(5)
_cell_length_b                   18.987(5)
_cell_length_c                   18.342(5)
_cell_angle_alpha                90
_cell_angle_beta                 97.263(5)
_cell_angle_gamma                90
_cell_volume                     3445.67
loop_
_atom_site_label
_atom_site_type_symbol
_atom_site_fract_x
_atom_site_fract_y
_atom_site_fract_z
I1 I 0.67956(3) -0.081984(18) 0.580497(16)
I2 I 0.96452(3) -0.178876(16) 0.442628(18)
Zn1 Zn 0.75941(4) -0.10139(2) 0.45398(3)
Fe1 Fe 1.22270(7) 0.38804(3) 0.38703(4)
N1 N 0.4114(3) 0.36144(17) 0.10913(19)
C1 C 1.2623(5) 0.3032(3) 0.3266(3)
C2 C 0.4069(4) 0.3073(2) 0.1554(2)
H1 H 0.3240 0.2864 0.1597
C3 C 0.7689(4) 0.2855(2) 0.2396(2)
C4 C 1.3611(5) 0.3569(3) 0.3223(3)
H2 H 1.4535 0.3525 0.3369
N2 N 0.7960(3) -0.00532(17) 0.40822(19)
C5 C 0.5313(4) 0.3904(2) 0.1041(3)
H3 H 0.5356 0.4276 0.0715
C6 C 1.0028(4) 0.2941(2) 0.2909(2)
C7 C 0.8621(4) 0.1953(2) 0.3122(2)
C8 C 1.1333(4) 0.3318(2) 0.2987(2)
C9 C 0.6503(4) 0.3682(2) 0.1449(3)
H4 H 0.7318 0.3901 0.1395
C10 C 0.9869(4) 0.2291(2) 0.3237(2)
H5 H 1.0590 0.2084 0.3531
C11 C 0.6462(4) 0.31269(19) 0.1937(2)
N3 N 0.7532(3) 0.22290(17) 0.27169(18)
C12 C 0.8399(4) 0.1251(2) 0.3452(2)
C13 C 0.8901(4) 0.3215(2) 0.2474(2)
H6 H 0.8965 0.3644 0.2235
C14 C 0.9174(4) 0.0134(2) 0.3922(3)
H7 H 0.9884 -0.0182 0.4026
C15 C 1.2446(9) 0.3554(4) 0.4940(3)
H8 H 1.2693 0.3103 0.5104
C16 C 0.7138(5) 0.1052(2) 0.3607(3)
H9 H 0.6404 0.1352 0.3495
C17 C 0.5209(4) 0.2817(2) 0.1970(2)
H10 H 0.5140 0.2433 0.2277
C18 C 0.9434(4) 0.0772(2) 0.3611(3)
H11 H 1.0301 0.0879 0.3509
C19 C 1.3310(8) 0.4095(5) 0.4861(4)
H12 H 1.4245 0.4068 0.4971
C20 C 0.6963(5) 0.0410(3) 0.3925(4)
H13 H 0.6107 0.0293 0.4037
C21 C 1.1186(8) 0.3779(6) 0.4744(4)
H14 H 1.0408 0.3511 0.4755
C22 C 1.1545(6) 0.4023(3) 0.2782(3)
C23 C 1.2958(6) 0.4170(3) 0.2927(3)
C24 C 1.2642(13) 0.4664(4) 0.4606(5)
H15 H 1.3015 0.5097 0.4504
C25 C 1.1218(12) 0.4484(7) 0.4517(5)
H16 H 1.0490 0.4772 0.4347
H17 H 1.269(7) 0.256(4) 0.345(4)
H18 H 1.328(6) 0.465(3) 0.287(3)
H19 H 1.078(5) 0.432(2) 0.260(3)
Zn1A Zn 0.24059(4) 0.39861(2) 0.04602(3)
N1A N 0.5886(3) -0.13856(17) 0.39087(19)
Cl1 Cl 0.7307(2) 0.35659(12) 0.42632(11)
Cl2 Cl 0.5714(2) 0.24265(11) 0.47278(15)
Cl3 Cl 0.7278(4) 0.32951(13) 0.57955(13)
C26 C 0.7192(7) 0.2923(4) 0.4932(4)
H20 H 0.7965 0.2604 0.4930
Cl4 Cl 0.2155(5) -0.00959(15) 0.20041(18)
C27 C 0.2580(10) 0.0675(4) 0.1673(4)
H21 H 0.2429 0.0656 0.1135
Cl5 Cl 0.1765(5) 0.13830(19) 0.1955(2)
Cl6 Cl 0.4282(4) 0.0853(2) 0.1950(3)
loop_
_geom_bond_atom_site_label_1
_geom_bond_atom_site_label_2
_geom_bond_site_symmetry_1
_geom_bond_site_symmetry_2
I1 Zn1 1_555 1_555
I2 Zn1 1_555 1_555
Zn1 N2 1_555 1_555
Fe1 C1 1_555 1_555
N1 C2 1_555 1_555
C1 C4 1_555 1_555
C2 H1 1_555 1_555
C3 C11 1_555 1_555
C4 Fe1 1_555 1_555
H2 C4 1_555 1_555
N2 C14 1_555 1_555
C5 N1 1_555 1_555
H3 C5 1_555 1_555
C6 C8 1_555 1_555
C7 C10 1_555 1_555
C8 Fe1 1_555 1_555
C9 C5 1_555 1_555
H4 C9 1_555 1_555
C10 C6 1_555 1_555
H5 C10 1_555 1_555
C11 C9 1_555 1_555
N3 C3 1_555 1_555
C12 C7 1_555 1_555
C13 C3 1_555 1_555
H6 C13 1_555 1_555
C14 H7 1_555 1_555
C15 Fe1 1_555 1_555
H8 C15 1_555 1_555
C16 C12 1_555 1_555
H9 C16 1_555 1_555
C17 C2 1_555 1_555
H10 C17 1_555 1_555
C18 C12 1_555 1_555
H11 C18 1_555 1_555
C19 Fe1 1_555 1_555
H12 C19 1_555 1_555
C20 N2 1_555 1_555
H13 C20 1_555 1_555
C21 Fe1 1_555 1_555
H14 C21 1_555 1_555
C22 Fe1 1_555 1_555
C23 Fe1 1_555 1_555
C24 Fe1 1_555 1_555
H15 C24 1_555 1_555
C25 Fe1 1_555 1_555
H16 C25 1_555 1_555
H17 C1 1_555 1_555
H18 C23 1_555 1_555
H19 C22 1_555 1_555
Cl1 C26 1_555 1_555
Cl2 C26 1_555 1_555
Cl3 C26 1_555 1_555
C26 H20 1_555 1_555
Cl4 C27 1_555 1_555
C27 H21 1_555 1_555
Cl5 C27 1_555 1_555
Cl6 C27 1_555 1_555
Zn1A N1 1_555 1_555
N1A Zn1 1_555 1_555
C1 C8 1_555 1_555
C4 C23 1_555 1_555
C6 C13 1_555 1_555
C7 N3 1_555 1_555
C8 C22 1_555 1_555
C11 C17 1_555 1_555
C14 C18 1_555 1_555
C15 C19 1_555 1_555
C15 C21 1_555 1_555
C16 C20 1_555 1_555
C19 C24 1_555 1_555
C21 C25 1_555 1_555
C22 C23 1_555 1_555
C24 C25 1_555 1_555

#END
