
#######################################################################
#
#                 Cambridge Crystallographic Data Centre
#                                CCDC 
#
#######################################################################
#
# If this CIF has been generated from an entry in the Cambridge 
# Structural Database, then it will include bibliographic, chemical, 
# crystal, experimental, refinement or atomic coordinate data resulting 
# from the CCDC's data processing and validation procedures.
#
#######################################################################

data_TUNROL
_symmetry_cell_setting           monoclinic
_symmetry_space_group_name_H-M   'P 21'
_symmetry_Int_Tables_number      4
_space_group_name_Hall           'P 2yb'
loop_
_symmetry_equiv_pos_site_id
_symmetry_equiv_pos_as_xyz
1 x,y,z
2 -x,1/2+y,-z
_cell_length_a                   6.8863(9)
_cell_length_b                   10.0489(9)
_cell_length_c                   12.7212(13)
_cell_angle_alpha                90
_cell_angle_beta                 90.543(10)
_cell_angle_gamma                90
_cell_volume                     880.264
loop_
_atom_site_label
_atom_site_type_symbol
_atom_site_fract_x
_atom_site_fract_y
_atom_site_fract_z
Cd1 Cd 0.26221(18) 0.43677(17) 0.98738(6)
S1 S 0.6138(6) 0.2440(5) 0.8722(3)
O1 O 0.148(3) 0.8306(14) 0.3865(10)
H1 H 0.1518 0.7952 0.3285
O2 O 0.375(3) 0.1036(17) 1.6101(11)
H2 H 0.3859 0.1450 1.6654
O3 O 0.5716(19) 0.3661(12) 0.9354(10)
O4 O 0.4542(19) 0.2259(14) 0.7953(9)
O5 O 0.7916(16) 0.2587(15) 0.8180(9)
O6 O 0.618(2) 0.1298(14) 0.9425(9)
N1 N 0.210(2) 0.5534(14) 0.8335(11)
N2 N 0.162(2) 0.7348(18) 0.4633(12)
N3 N 0.296(2) 0.3350(14) 1.1484(9)
N4 N 0.360(3) 0.1914(17) 1.5278(12)
C1 C 0.210(3) 0.4966(18) 0.7383(12)
H3 H 0.2289 0.4052 0.7343
C2 C 0.183(3) 0.566(2) 0.6458(14)
H4 H 0.1700 0.5215 0.5819
C3 C 0.174(3) 0.705(2) 0.6510(13)
C4 C 0.178(2) 0.7648(18) 0.7483(13)
H5 H 0.1681 0.8568 0.7548
C5 C 0.198(3) 0.6855(17) 0.8356(14)
H6 H 0.2024 0.7271 0.9009
C6 C 0.156(3) 0.786(2) 0.5568(17)
H7 H 0.1402 0.8775 0.5638
C7 C 0.316(3) 0.2043(18) 1.1539(15)
H8 H 0.3272 0.1570 1.0915
C8 C 0.319(3) 0.135(2) 1.2464(14)
H9 H 0.3151 0.0423 1.2452
C9 C 0.329(2) 0.2006(18) 1.3410(13)
C10 C 0.318(3) 0.3426(19) 1.3362(14)
H10 H 0.3213 0.3935 1.3973
C11 C 0.302(3) 0.4019(18) 1.2396(12)
H11 H 0.2948 0.4942 1.2371
C12 C 0.343(3) 0.131(2) 1.4416(15)
H12 H 0.3398 0.0386 1.4419
O7 O -0.067(2) 0.4747(12) 1.0280(11)
H13 H -0.09(3) 0.551(10) 1.056(14)
H14 H -0.13(2) 0.46(2) 0.970(9)
O8 O 0.1411(18) 0.2373(13) 0.9106(9)
H15 H 0.021(7) 0.24(2) 0.889(11)
H16 H 0.227(16) 0.25(2) 0.862(9)
Cd1A Cd 0.73779(18) -0.06323(17) 1.01262(6)
O6A O 0.382(2) 0.6298(14) 1.0575(9)
loop_
_geom_bond_atom_site_label_1
_geom_bond_atom_site_label_2
_geom_bond_site_symmetry_1
_geom_bond_site_symmetry_2
Cd1 O3 1_555 1_555
S1 O3 1_555 1_555
O1 H1 1_555 1_555
O2 H2 1_555 1_555
O4 S1 1_555 1_555
O5 S1 1_555 1_555
O6 S1 1_555 1_555
N1 Cd1 1_555 1_555
N2 O1 1_555 1_555
N3 Cd1 1_555 1_555
N4 O2 1_555 1_555
C1 N1 1_555 1_555
H3 C1 1_555 1_555
C2 C1 1_555 1_555
H4 C2 1_555 1_555
C3 C2 1_555 1_555
C4 C3 1_555 1_555
H5 C4 1_555 1_555
C5 N1 1_555 1_555
H6 C5 1_555 1_555
C6 N2 1_555 1_555
H7 C6 1_555 1_555
C7 N3 1_555 1_555
H8 C7 1_555 1_555
C8 C7 1_555 1_555
H9 C8 1_555 1_555
C9 C8 1_555 1_555
C10 C9 1_555 1_555
H10 C10 1_555 1_555
C11 N3 1_555 1_555
H11 C11 1_555 1_555
C12 N4 1_555 1_555
H12 C12 1_555 1_555
O7 Cd1 1_555 1_555
H13 O7 1_555 1_555
H14 O7 1_555 1_555
O8 Cd1 1_555 1_555
H15 O8 1_555 1_555
H16 O8 1_555 1_555
Cd1A O6 1_555 1_555
O6A Cd1 1_555 1_555
C3 C6 1_555 1_555
C4 C5 1_555 1_555
C9 C12 1_555 1_555
C10 C11 1_555 1_555

#END
