
#######################################################################
#
#                 Cambridge Crystallographic Data Centre
#                                CCDC 
#
#######################################################################
#
# If this CIF has been generated from an entry in the Cambridge 
# Structural Database, then it will include bibliographic, chemical, 
# crystal, experimental, refinement or atomic coordinate data resulting 
# from the CCDC's data processing and validation procedures.
#
#######################################################################

data_TUPDIT01
_symmetry_cell_setting           orthorhombic
_symmetry_space_group_name_H-M   'P n n a'
_symmetry_Int_Tables_number      52
_space_group_name_Hall           '-P 2a 2bc'
loop_
_symmetry_equiv_pos_site_id
_symmetry_equiv_pos_as_xyz
1 x,y,z
2 1/2-x,-y,z
3 1/2-x,1/2+y,1/2-z
4 x,1/2-y,1/2-z
5 -x,-y,-z
6 1/2+x,y,-z
7 1/2+x,1/2-y,1/2+z
8 -x,1/2+y,1/2+z
_cell_length_a                   12.6285(9)
_cell_length_b                   10.0104(7)
_cell_length_c                   17.6492(10)
_cell_angle_alpha                90
_cell_angle_beta                 90
_cell_angle_gamma                90
_cell_volume                     2231.15
loop_
_atom_site_label
_atom_site_type_symbol
_atom_site_fract_x
_atom_site_fract_y
_atom_site_fract_z
Cu1 Cu 0.7500 0.0000 1.16423(3)
O1 O 0.6465(2) 0.0508(3) 1.08542(14)
O2 O 0.7242(2) 0.2364(3) 1.12234(16)
N1 N 0.4683(3) 0.4477(4) 0.83344(19)
N2 N 0.5220(4) 0.5424(5) 0.7943(3)
N3 N 0.3652(3) 0.5025(3) 0.74110(18)
C1 C 0.6638(3) 0.1750(4) 1.0789(2)
C2 C 0.6091(3) 0.2484(4) 1.0158(2)
C3 C 0.5239(4) 0.1950(4) 0.9792(3)
H1 H 0.4970 0.1130 0.9950
C4 C 0.4772(4) 0.2605(4) 0.9193(3)
H2 H 0.4196 0.2227 0.8944
C5 C 0.5157(4) 0.3808(4) 0.8969(2)
C6 C 0.5992(5) 0.4376(5) 0.9339(3)
H3 H 0.6250 0.5205 0.9188
C7 C 0.6449(4) 0.3709(5) 0.9937(3)
H4 H 0.7011 0.4100 1.0195
C8 C 0.4571(4) 0.5712(6) 0.7397(3)
H5 H 0.4726 0.6341 0.7025
C9 C 0.3758(3) 0.4263(4) 0.8018(2)
H6 H 0.3252 0.3663 0.8194
O1A O 0.8535(2) -0.0508(3) 1.08542(14)
O2A O 0.7758(2) -0.2364(3) 1.12234(16)
N1A N 1.0317(3) -0.4477(4) 0.83344(19)
N2A N 0.9780(4) -0.5424(5) 0.7943(3)
N3A N 1.1348(3) -0.5025(3) 0.74110(18)
C1A C 0.8362(3) -0.1750(4) 1.0789(2)
C2A C 0.8909(3) -0.2484(4) 1.0158(2)
C3A C 0.9761(4) -0.1950(4) 0.9792(3)
H1A H 1.0030 -0.1130 0.9950
C4A C 1.0228(4) -0.2605(4) 0.9193(3)
H2A H 1.0804 -0.2227 0.8944
C5A C 0.9843(4) -0.3808(4) 0.8969(2)
C6A C 0.9008(5) -0.4376(5) 0.9339(3)
H3A H 0.8750 -0.5205 0.9188
C7A C 0.8551(4) -0.3709(5) 0.9937(3)
H4A H 0.7989 -0.4100 1.0195
C8A C 1.0429(4) -0.5712(6) 0.7397(3)
H5A H 1.0274 -0.6341 0.7025
C9A C 1.1242(3) -0.4263(4) 0.8018(2)
H6A H 1.1748 -0.3663 0.8194
Cu1F Cu 0.2500 0.5000 0.66423(3)
Cu1F_2 Cu 1.2500 -0.5000 0.66423(3)
N3F N 0.8652(3) -0.0025(3) 1.24110(18)
N3G N 0.6348(3) 0.0025(3) 1.24110(18)
loop_
_geom_bond_atom_site_label_1
_geom_bond_atom_site_label_2
_geom_bond_site_symmetry_1
_geom_bond_site_symmetry_2
Cu1 O1 1_555 1_555
O1 C1 1_555 1_555
O2 Cu1 1_555 1_555
N1 N2 1_555 1_555
N2 C8 1_555 1_555
N3 C8 1_555 1_555
C1 O2 1_555 1_555
C2 C1 1_555 1_555
C3 C2 1_555 1_555
H1 C3 1_555 1_555
C4 C3 1_555 1_555
H2 C4 1_555 1_555
C5 N1 1_555 1_555
C6 C5 1_555 1_555
H3 C6 1_555 1_555
C7 C2 1_555 1_555
H4 C7 1_555 1_555
C8 H5 1_555 1_555
C9 N1 1_555 1_555
H6 C9 1_555 1_555
O1A Cu1 1_555 1_555
O2A Cu1 1_555 1_555
N1A N2A 1_555 1_555
N2A C8A 1_555 1_555
N3A C8A 1_555 1_555
C1A O1A 1_555 1_555
C2A C1A 1_555 1_555
C3A C2A 1_555 1_555
H1A C3A 1_555 1_555
C4A C3A 1_555 1_555
H2A C4A 1_555 1_555
C5A N1A 1_555 1_555
C6A C5A 1_555 1_555
H3A C6A 1_555 1_555
C7A C2A 1_555 1_555
H4A C7A 1_555 1_555
C8A H5A 1_555 1_555
C9A N1A 1_555 1_555
H6A C9A 1_555 1_555
Cu1F N3 1_555 1_555
Cu1F_2 N3A 1_555 1_555
N3F Cu1 1_555 1_555
N3G Cu1 1_555 1_555
N3 C9 1_555 1_555
C4 C5 1_555 1_555
C6 C7 1_555 1_555
O2A C1A 1_555 1_555
N3A C9A 1_555 1_555
C4A C5A 1_555 1_555
C6A C7A 1_555 1_555

#END
