
#######################################################################
#
#                 Cambridge Crystallographic Data Centre
#                                CCDC 
#
#######################################################################
#
# If this CIF has been generated from an entry in the Cambridge 
# Structural Database, then it will include bibliographic, chemical, 
# crystal, experimental, refinement or atomic coordinate data resulting 
# from the CCDC's data processing and validation procedures.
#
#######################################################################

data_TUPXUZ
_symmetry_cell_setting           monoclinic
_symmetry_space_group_name_H-M   'P 21/c'
_symmetry_Int_Tables_number      14
_space_group_name_Hall           '-P 2ybc'
loop_
_symmetry_equiv_pos_site_id
_symmetry_equiv_pos_as_xyz
1 x,y,z
2 -x,1/2+y,1/2-z
3 -x,-y,-z
4 x,1/2-y,1/2+z
_cell_length_a                   13.6927(6)
_cell_length_b                   38.9262(15)
_cell_length_c                   10.7667(4)
_cell_angle_alpha                90
_cell_angle_beta                 91.7880(10)
_cell_angle_gamma                90
_cell_volume                     5735.91
loop_
_atom_site_label
_atom_site_type_symbol
_atom_site_fract_x
_atom_site_fract_y
_atom_site_fract_z
Co1 Co 0.47207(4) 0.68626(2) 0.34996(4)
Co2 Co 0.36598(4) 0.57108(2) 0.42379(4)
Co3 Co 0.41655(4) 0.63006(2) 0.88552(4)
P1 P 0.42249(7) 0.64344(2) 0.58187(8)
P2 P 0.40821(7) 0.61459(2) 0.18808(8)
C1 C 0.3262(3) 0.67340(9) 0.5381(3)
H1 H 0.2637 0.6645 0.5632
H2 H 0.3374 0.6952 0.5799
C2 C 0.2527(3) 0.70445(9) 0.3567(3)
H3 H 0.2731 0.7266 0.3924
C3 C 0.2560(3) 0.70811(10) 0.2178(3)
H4 H 0.1997 0.7215 0.1899
H5 H 0.2491 0.6854 0.1814
C4 C 0.3468(3) 0.72468(9) 0.1668(3)
C5 C 0.1508(3) 0.69733(9) 0.4018(3)
C6 C 0.1105(4) 0.71884(12) 0.4887(4)
H6 H 0.1441 0.7384 0.5149
C7 C 0.0212(4) 0.71134(18) 0.5364(5)
H7 H -0.0054 0.7259 0.5949
C8 C -0.0290(4) 0.6825(2) 0.4987(6)
H8 H -0.0898 0.6776 0.5306
C9 C 0.0113(4) 0.66093(16) 0.4129(5)
H9 H -0.0220 0.6412 0.3871
C10 C 0.1006(3) 0.66847(12) 0.3658(4)
H10 H 0.1276 0.6537 0.3082
C11 C 0.5065(3) 0.58516(9) 0.2270(3)
H11 H 0.4941 0.5632 0.1872
H12 H 0.5675 0.5941 0.1972
C12 C 0.5871(3) 0.55465(9) 0.4030(3)
H13 H 0.5656 0.5325 0.3684
C13 C 0.5893(3) 0.55119(9) 0.5450(3)
H14 H 0.6470 0.5381 0.5699
H15 H 0.5966 0.5740 0.5806
C14 C 0.5011(3) 0.53422(9) 0.6017(3)
C15 C 0.6894(3) 0.56132(10) 0.3580(3)
C16 C 0.7249(3) 0.59425(11) 0.3385(4)
H16 H 0.6856 0.6131 0.3545
C17 C 0.8179(3) 0.59930(14) 0.2956(4)
H17 H 0.8404 0.6215 0.2822
C18 C 0.8770(4) 0.57187(17) 0.2726(4)
H18 H 0.9396 0.5753 0.2439
C19 C 0.8433(4) 0.53919(15) 0.2924(5)
H19 H 0.8834 0.5205 0.2772
C20 C 0.7500(3) 0.53385(11) 0.3346(4)
H20 H 0.7280 0.5116 0.3474
C21 C -0.3612(3) 0.71037(9) 1.1957(3)
H21 H -0.4060 0.7158 1.1320
C22 C -0.2981(3) 0.69061(10) 1.3641(4)
H22 H -0.2910 0.6798 1.4408
C23 C -0.2251(3) 0.70554(10) 1.3019(4)
H23 H -0.1595 0.7068 1.3269
C24 C -0.2179(3) 0.73663(10) 1.0953(4)
H24 H -0.1659 0.7508 1.1312
H25 H -0.2645 0.7517 1.0531
C25 C -0.1756(3) 0.71245(10) 1.0022(4)
C26 C -0.2192(3) 0.70828(12) 0.8868(4)
H26 H -0.2746 0.7210 0.8648
C27 C -0.1820(4) 0.68556(13) 0.8038(5)
H27 H -0.2114 0.6832 0.7252
C28 C -0.1016(4) 0.66619(12) 0.8357(5)
H28 H -0.0771 0.6507 0.7788
C29 C -0.0569(3) 0.66948(12) 0.9506(4)
C30 C -0.0938(3) 0.69305(11) 1.0335(4)
H29 H -0.0631 0.6959 1.1112
C31 C 0.0275(4) 0.64656(14) 0.9885(5)
H30 H 0.0394 0.6484 1.0776
H31 H 0.0102 0.6229 0.9701
C32 C 0.1971(3) 0.63521(11) 0.9251(4)
H32 H 0.2000 0.6133 0.9597
C33 C 0.2367(3) 0.68172(11) 0.8373(4)
H33 H 0.2732 0.6984 0.7977
C34 C 0.1436(4) 0.68553(11) 0.8694(4)
H34 H 0.1045 0.7048 0.8567
C35 C 0.5984(3) 0.58134(10) 0.8901(3)
H35 H 0.5619 0.5636 0.8542
C36 C 0.6407(3) 0.62931(11) 0.9660(4)
H36 H 0.6388 0.6519 0.9938
C37 C 0.7204(3) 0.60926(11) 0.9720(4)
H37 H 0.7822 0.6152 1.0030
C38 C 0.7503(3) 0.54697(11) 0.9162(5)
H38 H 0.7183 0.5316 0.8570
H39 H 0.7513 0.5358 0.9968
C39 C 0.8542(3) 0.55253(10) 0.8782(4)
C40 C 0.9293(4) 0.54141(12) 0.9545(4)
H40 H 0.9157 0.5312 1.0302
C41 C 1.0255(4) 0.54519(13) 0.9203(4)
H41 H 1.0762 0.5376 0.9727
C42 C 1.0458(3) 0.56035(12) 0.8080(5)
H42 H 1.1102 0.5628 0.7845
C43 C 0.9708(3) 0.57191(11) 0.7306(4)
C44 C 0.8752(3) 0.56790(10) 0.7661(4)
H43 H 0.8243 0.5756 0.7140
C45 C 0.9932(3) 0.59034(12) 0.6102(4)
H44 H 0.9348 0.5908 0.5570
H45 H 1.0116 0.6139 0.6288
C46 C 1.1644(3) 0.58489(10) 0.5354(4)
H46 H 1.1871 0.6055 0.5690
C47 C 1.1577(3) 0.53668(10) 0.4438(4)
H47 H 1.1757 0.5172 0.4002
C48 C 1.0673(3) 0.54283(12) 0.4862(4)
H48 H 1.0128 0.5287 0.4774
N1 N 0.3243(2) 0.67861(7) 0.4027(2)
H49 H 0.3037 0.6567 0.3658
N2 N 0.5142(2) 0.58052(7) 0.3634(2)
H50 H 0.5353 0.6025 0.3992
N3 N -0.3833(2) 0.69385(7) 1.2974(3)
N4 N 0.2703(2) 0.65003(8) 0.8708(3)
N5 N 0.5627(2) 0.61217(8) 0.9138(3)
N6 N 1.2189(2) 0.56343(8) 0.4743(3)
N7 N -0.2667(3) 0.71839(8) 1.1953(3)
N8 N 0.1176(3) 0.65529(9) 0.9248(3)
N9 N 0.6926(2) 0.57863(8) 0.9236(3)
N10 N 1.0720(2) 0.57372(9) 0.5441(3)
O1 O 0.38190(18) 0.60722(5) 0.56503(19)
O2 O 0.45137(18) 0.65084(6) 0.71644(19)
O3 O 0.50535(17) 0.65107(6) 0.49344(19)
O4 O 0.4240(2) 0.72618(6) 0.2334(2)
O5 O 0.3399(2) 0.73524(7) 0.0569(2)
O6 O 0.44681(18) 0.65106(6) 0.2057(2)
O7 O 0.32814(17) 0.60573(6) 0.27891(19)
O8 O 0.37703(18) 0.60779(6) 0.05365(19)
O9 O 0.4194(2) 0.53406(6) 0.5473(2)
O10 O 0.5171(2) 0.52050(6) 0.7070(2)
O11 O 0.5015(2) 0.72791(6) 0.4828(2)
H51 H 0.4620 0.7443 0.4674
H52 H 0.4935 0.7206 0.5562
O12 O 0.34231(19) 0.52916(6) 0.2921(2)
H53 H 0.3592 0.5088 0.3114
H54 H 0.2887 0.5280 0.2504
O13 O 0.46305(19) 0.67702(6) 0.9779(2)
H55 H 0.4939 0.6684 1.0402
H56 H 0.4290 0.6936 1.0040
O14 O 0.3629(2) 0.58321(6) 0.7958(2)
H57 H 0.4101 0.5728 0.7629
H58 H 0.3203 0.5884 0.7398
Co1_2 Co -0.52793(4) 0.68626(2) 1.34996(4)
Co2_2 Co 1.36598(4) 0.57108(2) 0.42379(4)
Co3_2 Co 0.41655(4) 0.63006(2) -0.11448(4)
N3_2 N 0.6167(2) 0.69385(7) 0.2974(3)
N6_2 N 0.2189(2) 0.56343(8) 0.4743(3)
O8_2 O 0.37703(18) 0.60779(6) 1.05365(19)
O15 O 0.5604(2) 0.71286(7) 0.7268(3)
H59 H 0.5319 0.6949 0.7519
H60 H 0.5530 0.7285 0.7810
O16 O 0.6831(3) 0.63498(9) 0.6291(3)
H61 H 0.6295 0.6416 0.5950
H62 H 0.6715 0.6236 0.6945
O17 O 0.2869(2) 0.54395(7) 0.0466(3)
H63 H 0.2928 0.5657 0.0479
H64 H 0.2786 0.5372 -0.0281
O18 O 0.5834(3) 0.49649(10) 0.0916(4)
H65 H 0.5680 0.5031 0.1637
H66 H 0.5660 0.5116 0.0385
O19 O 0.1363(2) 0.59145(9) 0.1892(3)
H67 H 0.1521 0.5882 0.2653
H68 H 0.1713 0.6074 0.1600
loop_
_geom_bond_atom_site_label_1
_geom_bond_atom_site_label_2
_geom_bond_site_symmetry_1
_geom_bond_site_symmetry_2
Co1 N1 1_555 1_555
Co2 N2 1_555 1_555
Co3 N4 1_555 1_555
P1 C1 1_555 1_555
P2 C11 1_555 1_555
C1 H1 1_555 1_555
H2 C1 1_555 1_555
C2 H3 1_555 1_555
C3 C2 1_555 1_555
H4 C3 1_555 1_555
H5 C3 1_555 1_555
C4 C3 1_555 1_555
C5 C2 1_555 1_555
C6 C5 1_555 1_555
H6 C6 1_555 1_555
C7 C6 1_555 1_555
H7 C7 1_555 1_555
C8 C7 1_555 1_555
H8 C8 1_555 1_555
C9 C8 1_555 1_555
H9 C9 1_555 1_555
C10 C5 1_555 1_555
H10 C10 1_555 1_555
C11 H11 1_555 1_555
H12 C11 1_555 1_555
C12 H13 1_555 1_555
C13 C12 1_555 1_555
H14 C13 1_555 1_555
H15 C13 1_555 1_555
C14 C13 1_555 1_555
C15 C12 1_555 1_555
C16 C15 1_555 1_555
H16 C16 1_555 1_555
C17 C16 1_555 1_555
H17 C17 1_555 1_555
C18 C17 1_555 1_555
H18 C18 1_555 1_555
C19 C18 1_555 1_555
H19 C19 1_555 1_555
C20 C15 1_555 1_555
H20 C20 1_555 1_555
C21 H21 1_555 1_555
C22 H22 1_555 1_555
C23 C22 1_555 1_555
H23 C23 1_555 1_555
C24 H24 1_555 1_555
H25 C24 1_555 1_555
C25 C24 1_555 1_555
C26 C25 1_555 1_555
H26 C26 1_555 1_555
C27 C26 1_555 1_555
H27 C27 1_555 1_555
C28 C27 1_555 1_555
H28 C28 1_555 1_555
C29 C28 1_555 1_555
C30 C25 1_555 1_555
H29 C30 1_555 1_555
C31 C29 1_555 1_555
H30 C31 1_555 1_555
H31 C31 1_555 1_555
C32 H32 1_555 1_555
C33 H33 1_555 1_555
C34 C33 1_555 1_555
H34 C34 1_555 1_555
C35 H35 1_555 1_555
C36 H36 1_555 1_555
C37 C36 1_555 1_555
H37 C37 1_555 1_555
C38 H38 1_555 1_555
H39 C38 1_555 1_555
C39 C38 1_555 1_555
C40 C39 1_555 1_555
H40 C40 1_555 1_555
C41 C40 1_555 1_555
H41 C41 1_555 1_555
C42 C41 1_555 1_555
H42 C42 1_555 1_555
C43 C42 1_555 1_555
C44 C39 1_555 1_555
H43 C44 1_555 1_555
C45 C43 1_555 1_555
H44 C45 1_555 1_555
H45 C45 1_555 1_555
C46 H46 1_555 1_555
C47 H47 1_555 1_555
C48 C47 1_555 1_555
H48 C48 1_555 1_555
N1 C1 1_555 1_555
H49 N1 1_555 1_555
N2 C11 1_555 1_555
H50 N2 1_555 1_555
N3 C21 1_555 1_555
N4 C32 1_555 1_555
N5 Co3 1_555 1_555
N6 C46 1_555 1_555
N7 C21 1_555 1_555
N8 C31 1_555 1_555
N9 C35 1_555 1_555
N10 C45 1_555 1_555
O1 Co2 1_555 1_555
O2 Co3 1_555 1_555
O3 Co1 1_555 1_555
O4 Co1 1_555 1_555
O5 C4 1_555 1_555
O6 Co1 1_555 1_555
O7 Co2 1_555 1_555
O8 P2 1_555 1_555
O9 Co2 1_555 1_555
O10 C14 1_555 1_555
O11 Co1 1_555 1_555
H51 O11 1_555 1_555
H52 O11 1_555 1_555
O12 Co2 1_555 1_555
H53 O12 1_555 1_555
H54 O12 1_555 1_555
O13 Co3 1_555 1_555
H55 O13 1_555 1_555
H56 O13 1_555 1_555
O14 Co3 1_555 1_555
H57 O14 1_555 1_555
H58 O14 1_555 1_555
O15 H59 1_555 1_555
H60 O15 1_555 1_555
O16 H61 1_555 1_555
H62 O16 1_555 1_555
O17 H63 1_555 1_555
H64 O17 1_555 1_555
O18 H65 1_555 1_555
H66 O18 1_555 1_555
O19 H67 1_555 1_555
H68 O19 1_555 1_555
Co1_2 N3 1_555 1_555
Co2_2 N6 1_555 1_555
Co3_2 O8 1_555 1_555
N3_2 Co1 1_555 1_555
N6_2 Co2 1_555 1_555
O8_2 Co3 1_555 1_555
P1 O1 1_555 1_555
P1 O2 1_555 1_555
P1 O3 1_555 1_555
P2 O6 1_555 1_555
P2 O7 1_555 1_555
C2 N1 1_555 1_555
C4 O4 1_555 1_555
C9 C10 1_555 1_555
C12 N2 1_555 1_555
C14 O9 1_555 1_555
C19 C20 1_555 1_555
C22 N3 1_555 1_555
C23 N7 1_555 1_555
C24 N7 1_555 1_555
C29 C30 1_555 1_555
C32 N8 1_555 1_555
C33 N4 1_555 1_555
C34 N8 1_555 1_555
C35 N5 1_555 1_555
C36 N5 1_555 1_555
C37 N9 1_555 1_555
C38 N9 1_555 1_555
C43 C44 1_555 1_555
C46 N10 1_555 1_555
C47 N6 1_555 1_555
C48 N10 1_555 1_555

#END
