
#######################################################################
#
#                 Cambridge Crystallographic Data Centre
#                                CCDC 
#
#######################################################################
#
# If this CIF has been generated from an entry in the Cambridge 
# Structural Database, then it will include bibliographic, chemical, 
# crystal, experimental, refinement or atomic coordinate data resulting 
# from the CCDC's data processing and validation procedures.
#
#######################################################################

data_TUQLUM
_symmetry_cell_setting           monoclinic
_symmetry_space_group_name_H-M   'P 21/n'
_symmetry_Int_Tables_number      14
_space_group_name_Hall           '-P 2yn'
loop_
_symmetry_equiv_pos_site_id
_symmetry_equiv_pos_as_xyz
1 x,y,z
2 1/2-x,1/2+y,1/2-z
3 -x,-y,-z
4 1/2+x,1/2-y,1/2+z
_cell_length_a                   11.542(3)
_cell_length_b                   18.228(4)
_cell_length_c                   12.620(3)
_cell_angle_alpha                90
_cell_angle_beta                 111.37(2)
_cell_angle_gamma                90
_cell_volume                     2472.55
loop_
_atom_site_label
_atom_site_type_symbol
_atom_site_fract_x
_atom_site_fract_y
_atom_site_fract_z
Cu1 Cu 0.20873(4) 0.02178(3) 0.00311(4)
O1 O 0.26822(23) -0.05718(14) -0.06711(21)
C1 C 0.37167(35) -0.08715(20) -0.03683(31)
C2 C 0.47436(33) -0.07488(19) 0.06518(30)
C3 C 0.46002(33) -0.02835(19) 0.15135(29)
N1 N 0.54286(27) -0.01388(17) 0.25561(24)
N2 N 0.49064(31) 0.03496(19) 0.30824(26)
N3 N 0.38080(32) 0.04836(19) 0.23774(28)
N4 N 0.35624(28) 0.01007(16) 0.13911(25)
O2 O 0.12971(22) 0.07959(14) 0.08539(20)
C4 C 0.02950(34) 0.11461(19) 0.05175(32)
C5 C -0.05835(33) 0.11839(19) -0.06191(30)
C6 C -0.03307(32) 0.08104(19) -0.15132(30)
N5 N -0.10178(28) 0.08023(16) -0.26386(25)
N6 N -0.04348(31) 0.03511(18) -0.31653(26)
N7 N 0.05576(30) 0.01137(17) -0.23957(27)
N8 N 0.06573(26) 0.03768(16) -0.13539(24)
C7 C -0.16465(36) 0.16289(21) -0.08186(31)
N9 N -0.25111(32) 0.19816(20) -0.09808(29)
C8 C 0.58967(36) -0.10444(21) 0.07322(31)
N10 N 0.31588(31) 0.12604(20) -0.07570(29)
O3 O 0.39417(25) -0.13663(15) -0.10498(21)
C9 C 0.29324(38) -0.15522(24) -0.20732(33)
H1 H 0.31992(38) -0.19099(24) -0.24943(33)
H2 H 0.26541(38) -0.11189(24) -0.25275(33)
H3 H 0.22618(38) -0.17501(24) -0.18835(33)
C10 C 0.66681(31) -0.04203(19) 0.31956(29)
H4 H 0.70465(31) -0.05497(19) 0.26584(29)
H5 H 0.71401(31) -0.00359(19) 0.36826(29)
C11 C 0.67139(35) -0.10989(21) 0.39320(31)
C12 C 0.58811(37) -0.17020(21) 0.32502(32)
H6 H 0.61268(37) -0.18328(21) 0.26256(32)
H7 H 0.50345(37) -0.15343(21) 0.29626(32)
H8 H 0.59514(37) -0.21229(21) 0.37270(32)
C13 C 0.80652(36) -0.13552(24) 0.43941(35)
H9 H 0.81483(36) -0.17793(24) 0.48672(35)
H10 H 0.85821(36) -0.09675(24) 0.48334(35)
H11 H 0.83173(36) -0.14766(24) 0.37697(35)
C14 C 0.63238(40) -0.08900(24) 0.49236(34)
H12 H 0.68530(40) -0.05060(24) 0.53605(34)
H13 H 0.63938(40) -0.13114(24) 0.53992(34)
H14 H 0.54769(40) -0.07228(24) 0.46349(34)
O4 O -0.00292(23) 0.15294(14) 0.12666(21)
C15 C 0.08013(36) 0.15225(21) 0.24378(30)
H15 H 0.04633(36) 0.18199(21) 0.28830(30)
H16 H 0.15938(36) 0.17158(21) 0.24895(30)
H17 H 0.09042(36) 0.10285(21) 0.27211(30)
C16 C -0.21594(32) 0.11685(20) -0.33555(30)
H18 H -0.26529(32) 0.08235(20) -0.39119(30)
H19 H -0.26012(32) 0.13152(20) -0.28764(30)
C17 C -0.19672(37) 0.18590(22) -0.39791(32)
C18 C -0.11286(42) 0.24070(23) -0.31578(36)
H20 H -0.14819(42) 0.25429(23) -0.26050(36)
H21 H -0.10434(42) 0.28355(23) -0.35656(36)
H22 H -0.03254(42) 0.21899(23) -0.27789(36)
C19 C -0.32448(37) 0.21808(23) -0.46024(36)
H23 H -0.31786(37) 0.26120(23) -0.50135(36)
H24 H -0.36124(37) 0.23079(23) -0.40564(36)
H25 H -0.37570(37) 0.18245(23) -0.51246(36)
C20 C -0.14002(40) 0.16489(25) -0.48553(35)
H26 H -0.05862(40) 0.14465(25) -0.44728(35)
H27 H -0.13383(40) 0.20757(25) -0.52773(35)
H28 H -0.19196(40) 0.12902(25) -0.53669(35)
Cu1B Cu 0.79127(4) -0.02178(3) -0.00311(4)
N10B N 0.68412(31) -0.12604(20) 0.07570(29)
loop_
_geom_bond_atom_site_label_1
_geom_bond_atom_site_label_2
_geom_bond_site_symmetry_1
_geom_bond_site_symmetry_2
Cu1 O1 1_555 1_555
O1 C1 1_555 1_555
C1 C2 1_555 1_555
C2 C3 1_555 1_555
C3 N1 1_555 1_555
N1 N2 1_555 1_555
N2 N3 1_555 1_555
N3 N4 1_555 1_555
N4 Cu1 1_555 1_555
O2 Cu1 1_555 1_555
C4 O2 1_555 1_555
C5 C4 1_555 1_555
C6 C5 1_555 1_555
N5 C6 1_555 1_555
N6 N5 1_555 1_555
N7 N6 1_555 1_555
N8 Cu1 1_555 1_555
C7 C5 1_555 1_555
N9 C7 1_555 1_555
C8 C2 1_555 1_555
N10 Cu1 1_555 1_555
O3 C1 1_555 1_555
C9 O3 1_555 1_555
H1 C9 1_555 1_555
H2 C9 1_555 1_555
H3 C9 1_555 1_555
C10 N1 1_555 1_555
H4 C10 1_555 1_555
H5 C10 1_555 1_555
C11 C10 1_555 1_555
C12 C11 1_555 1_555
H6 C12 1_555 1_555
H7 C12 1_555 1_555
H8 C12 1_555 1_555
C13 C11 1_555 1_555
H9 C13 1_555 1_555
H10 C13 1_555 1_555
H11 C13 1_555 1_555
C14 C11 1_555 1_555
H12 C14 1_555 1_555
H13 C14 1_555 1_555
H14 C14 1_555 1_555
O4 C4 1_555 1_555
C15 O4 1_555 1_555
H15 C15 1_555 1_555
H16 C15 1_555 1_555
H17 C15 1_555 1_555
C16 N5 1_555 1_555
H18 C16 1_555 1_555
H19 C16 1_555 1_555
C17 C16 1_555 1_555
C18 C17 1_555 1_555
H20 C18 1_555 1_555
H21 C18 1_555 1_555
H22 C18 1_555 1_555
C19 C17 1_555 1_555
H23 C19 1_555 1_555
H24 C19 1_555 1_555
H25 C19 1_555 1_555
C20 C17 1_555 1_555
H26 C20 1_555 1_555
H27 C20 1_555 1_555
H28 C20 1_555 1_555
Cu1B N10B 1_555 1_555
N10B C8 1_555 1_555
C3 N4 1_555 1_555
C6 N8 1_555 1_555
N7 N8 1_555 1_555

#END
