
#######################################################################
#
#                 Cambridge Crystallographic Data Centre
#                                CCDC 
#
#######################################################################
#
# If this CIF has been generated from an entry in the Cambridge 
# Structural Database, then it will include bibliographic, chemical, 
# crystal, experimental, refinement or atomic coordinate data resulting 
# from the CCDC's data processing and validation procedures.
#
#######################################################################

data_TURXIP
_symmetry_cell_setting           monoclinic
_symmetry_space_group_name_H-M   'P 21/c'
_symmetry_Int_Tables_number      14
_space_group_name_Hall           '-P 2ybc'
loop_
_symmetry_equiv_pos_site_id
_symmetry_equiv_pos_as_xyz
1 x,y,z
2 -x,1/2+y,1/2-z
3 -x,-y,-z
4 x,1/2-y,1/2+z
_cell_length_a                   7.491(2)
_cell_length_b                   28.692(9)
_cell_length_c                   14.709(4)
_cell_angle_alpha                90
_cell_angle_beta                 89.968(5)
_cell_angle_gamma                90
_cell_volume                     3161.43
loop_
_atom_site_label
_atom_site_type_symbol
_atom_site_fract_x
_atom_site_fract_y
_atom_site_fract_z
Pt1 Pt 0.23660(4) 0.734818(10) 0.485608(18)
Fe1 Fe 0.73645(14) 0.74078(4) 0.23453(7)
N1 N 0.5158(9) 0.7283(3) 0.3277(5)
N2 N 0.9531(10) 0.7541(3) 0.1419(5)
N3 N 0.9230(10) 0.7293(3) 0.3442(5)
N4 N 0.5480(10) 0.7535(3) 0.1268(5)
N5 N 0.7512(9) 0.6662(3) 0.1998(5)
N6 N 0.7258(10) 0.8152(3) 0.2734(5)
C1 C 0.4136(10) 0.7294(3) 0.3843(5)
C2 C 1.0572(11) 0.7585(3) 0.0857(6)
C3 C 0.4345(11) 0.7585(3) 0.0745(5)
C4 C 1.0362(10) 0.7301(3) 0.3964(6)
C5 C 0.7052(14) 0.6351(4) 0.2637(7)
C6 C 0.7187(14) 0.5882(4) 0.2535(7)
C7 C 0.8136(13) 0.6483(4) 0.1214(6)
C8 C 0.8304(13) 0.6012(4) 0.1051(6)
C9 C 0.7829(13) 0.5690(3) 0.1709(7)
C10 C 0.8029(14) 0.5187(4) 0.1547(7)
C11 C 0.7543(14) 0.4865(4) 0.2143(8)
C12 C 0.7712(14) 0.4350(4) 0.2050(8)
C13 C 0.7239(17) 0.4083(4) 0.2813(8)
C14 C 0.7347(18) 0.3600(4) 0.2799(10)
C15 C 0.8360(14) 0.4122(4) 0.1297(8)
C16 C 0.8478(16) 0.3645(4) 0.1288(10)
C17 C 0.7974(17) 0.3383(4) 0.2021(11)
C18 C 0.6719(13) 0.8312(4) 0.3545(7)
C19 C 0.6594(14) 0.8775(4) 0.3757(7)
C20 C 0.7679(15) 0.8479(4) 0.2126(7)
C21 C 0.7621(16) 0.8945(4) 0.2282(7)
C22 C 0.7068(13) 0.9112(4) 0.3146(7)
C23 C 0.6945(15) 0.9607(4) 0.3393(8)
C24 C 0.7483(14) 0.9951(4) 0.2846(8)
C25 C 0.7382(14) 1.0463(4) 0.3037(8)
C26 C 0.6782(15) 1.0661(4) 0.3830(9)
C27 C 0.6713(16) 1.1143(4) 0.3933(10)
C28 C 0.7932(17) 1.0761(4) 0.2326(9)
C29 C 0.7856(17) 1.1242(4) 0.2444(10)
C30 C 0.7265(15) 1.1432(4) 0.3249(10)
H1 H 0.6609 0.6466 0.3192
H2 H 0.6852 0.5683 0.3014
H3 H 0.8479 0.6692 0.0752
H4 H 0.8746 0.5908 0.0488
H5 H 0.6837 0.4234 0.3340
H6 H 0.6996 0.3422 0.3306
H7 H 0.8716 0.4295 0.0783
H8 H 0.8912 0.3495 0.0763
H9 H 0.8058 0.3057 0.1996
H10 H 0.6411 0.8093 0.3993
H11 H 0.6171 0.8864 0.4331
H12 H 0.8044 0.8378 0.1546
H13 H 0.7942 0.9155 0.1822
H14 H 0.6413 1.0468 0.4315
H15 H 0.6293 1.1271 0.4482
H16 H 0.8347 1.0635 0.1776
H17 H 0.8213 1.1439 0.1970
H18 H 0.7236 1.1757 0.3326
Pt1_2 Pt 1.23660(4) 0.734818(10) 0.485608(18)
Pt1C Pt 0.23660(4) 0.765182(10) -0.014392(18)
Pt1C_2 Pt 1.23660(4) 0.765182(10) -0.014392(18)
C2C C 0.0572(11) 0.7415(3) 0.5857(6)
C3C C 0.4345(11) 0.7415(3) 0.5745(5)
C4_2 C 0.0362(10) 0.7301(3) 0.3964(6)
loop_
_geom_bond_atom_site_label_1
_geom_bond_atom_site_label_2
_geom_bond_site_symmetry_1
_geom_bond_site_symmetry_2
Pt1 C1 1_555 1_555
Fe1 N1 1_555 1_555
N1 C1 1_555 1_555
N2 Fe1 1_555 1_555
N3 Fe1 1_555 1_555
N4 Fe1 1_555 1_555
N5 Fe1 1_555 1_555
N6 Fe1 1_555 1_555
C2 N2 1_555 1_555
C3 N4 1_555 1_555
C4 N3 1_555 1_555
C5 N5 1_555 1_555
C6 C5 1_555 1_555
C7 N5 1_555 1_555
C8 C7 1_555 1_555
C9 C6 1_555 1_555
C10 C9 1_555 1_555
C11 C10 1_555 1_555
C12 C11 1_555 1_555
C13 C12 1_555 1_555
C14 C13 1_555 1_555
C15 C12 1_555 1_555
C16 C15 1_555 1_555
C17 C14 1_555 1_555
C18 N6 1_555 1_555
C19 C18 1_555 1_555
C20 N6 1_555 1_555
C21 C20 1_555 1_555
C22 C19 1_555 1_555
C23 C22 1_555 1_555
C24 C23 1_555 1_555
C25 C24 1_555 1_555
C26 C25 1_555 1_555
C27 C26 1_555 1_555
C28 C25 1_555 1_555
C29 C28 1_555 1_555
C30 C27 1_555 1_555
H1 C5 1_555 1_555
H2 C6 1_555 1_555
H3 C7 1_555 1_555
H4 C8 1_555 1_555
H5 C13 1_555 1_555
H6 C14 1_555 1_555
H7 C15 1_555 1_555
H8 C16 1_555 1_555
H9 C17 1_555 1_555
H10 C18 1_555 1_555
H11 C19 1_555 1_555
H12 C20 1_555 1_555
H13 C21 1_555 1_555
H14 C26 1_555 1_555
H15 C27 1_555 1_555
H16 C28 1_555 1_555
H17 C29 1_555 1_555
H18 C30 1_555 1_555
Pt1_2 C4 1_555 1_555
Pt1C C3 1_555 1_555
Pt1C_2 C2 1_555 1_555
C2C Pt1 1_555 1_555
C3C Pt1 1_555 1_555
C4_2 Pt1 1_555 1_555
C8 C9 1_555 1_555
C16 C17 1_555 1_555
C21 C22 1_555 1_555
C29 C30 1_555 1_555

#END
