
#######################################################################
#
#                 Cambridge Crystallographic Data Centre
#                                CCDC 
#
#######################################################################
#
# If this CIF has been generated from an entry in the Cambridge 
# Structural Database, then it will include bibliographic, chemical, 
# crystal, experimental, refinement or atomic coordinate data resulting 
# from the CCDC's data processing and validation procedures.
#
#######################################################################

data_TURXAH
_symmetry_cell_setting           tetragonal
_symmetry_space_group_name_H-M   'P 4/n'
_symmetry_Int_Tables_number      85
_space_group_name_Hall           '-P 4a'
loop_
_symmetry_equiv_pos_site_id
_symmetry_equiv_pos_as_xyz
1 x,y,z
2 1/2-y,x,z
3 1/2-x,1/2-y,z
4 y,1/2-x,z
5 -x,-y,-z
6 1/2+y,-x,-z
7 1/2+x,1/2+y,-z
8 -y,1/2+x,-z
_cell_length_a                   14.1934(3)
_cell_length_b                   14.1934(3)
_cell_length_c                   13.7731(5)
_cell_angle_alpha                90
_cell_angle_beta                 90
_cell_angle_gamma                90
_cell_volume                     2774.63
loop_
_atom_site_label
_atom_site_type_symbol
_atom_site_fract_x
_atom_site_fract_y
_atom_site_fract_z
Pt1 Pt 0.2500 0.2500 0.05187(3)
Pt2 Pt -0.2500 0.2500 0.0000
Fe1 Fe 0.0000 0.0000 0.0000
N1 N 0.0914(3) 0.0959(3) 0.0379(4)
N2 N -0.1008(4) 0.0884(4) 0.0119(4)
N3 N 0.0150(3) 0.0430(4) -0.1364(4)
C1 C 0.1484(4) 0.1518(4) 0.0470(4)
C2 C -0.1568(4) 0.1462(4) 0.0056(4)
C3 C 0.0246(5) -0.0172(4) -0.2096(5)
C4 C 0.0265(5) 0.0101(5) -0.3059(5)
C5 C 0.0103(5) 0.1361(4) -0.1607(5)
C6 C 0.0115(6) 0.1674(5) -0.2548(5)
C7 C 0.0185(6) 0.1040(5) -0.3316(5)
C8 C 0.0139(8) 0.1310(7) -0.4378(6)
C9 C -0.0166(7) 0.2281(7) -0.4604(6)
C10 C -0.0198(6) 0.2476(5) -0.5683(5)
C11 C 0.0603(6) 0.2714(6) -0.6187(6)
C12 C 0.0581(6) 0.2876(6) -0.7170(6)
C13 C -0.1035(6) 0.2397(6) -0.6201(6)
C14 C -0.1056(6) 0.2538(6) -0.7191(6)
C15 C -0.0244(6) 0.2787(5) -0.7678(5)
H1 H 0.0303 -0.0824 -0.1949
H2 H 0.0334 -0.0363 -0.3551
H3 H 0.0061 0.1812 -0.1099
H4 H 0.0076 0.2331 -0.2677
H5 H 0.0772 0.1218 -0.4666
H6 H -0.0295 0.0870 -0.4712
H7 H 0.0268 0.2732 -0.4291
H8 H -0.0804 0.2384 -0.4327
H9 H 0.1185 0.2767 -0.5848
H10 H 0.1142 0.3052 -0.7499
H11 H -0.1601 0.2243 -0.5868
H12 H -0.1626 0.2462 -0.7538
H13 H -0.0258 0.2897 -0.8358
Fe1A Fe 0.5000 0.0000 0.0000
N1A N 0.4041(3) 0.0914(3) 0.0379(4)
N2A N 0.4116(4) -0.1008(4) 0.0119(4)
N3A N 0.4570(4) 0.0150(3) -0.1364(4)
C1A C 0.3482(4) 0.1484(4) 0.0470(4)
C2A C 0.3538(4) -0.1568(4) 0.0056(4)
C3A C 0.5172(4) 0.0246(5) -0.2096(5)
C4A C 0.4899(5) 0.0265(5) -0.3059(5)
C5A C 0.3639(4) 0.0103(5) -0.1607(5)
C6A C 0.3326(5) 0.0115(6) -0.2548(5)
C7A C 0.3960(5) 0.0185(6) -0.3316(5)
C8A C 0.3690(7) 0.0139(8) -0.4378(6)
C9A C 0.2719(7) -0.0166(7) -0.4604(6)
C10A C 0.2524(5) -0.0198(6) -0.5683(5)
C11A C 0.2286(6) 0.0603(6) -0.6187(6)
C12A C 0.2124(6) 0.0581(6) -0.7170(6)
C13A C 0.2603(6) -0.1035(6) -0.6201(6)
C14A C 0.2462(6) -0.1056(6) -0.7191(6)
C15A C 0.2213(5) -0.0244(6) -0.7678(5)
H1A H 0.5824 0.0303 -0.1949
H2A H 0.5363 0.0334 -0.3551
H3A H 0.3188 0.0061 -0.1099
H4A H 0.2669 0.0076 -0.2677
H5A H 0.3782 0.0772 -0.4666
H6A H 0.4130 -0.0295 -0.4712
H7A H 0.2268 0.0268 -0.4291
H8A H 0.2616 -0.0804 -0.4327
H9A H 0.2233 0.1185 -0.5848
H10A H 0.1948 0.1142 -0.7499
H11A H 0.2757 -0.1601 -0.5868
H12A H 0.2538 -0.1626 -0.7538
H13A H 0.2103 -0.0258 -0.8358
N2B N -0.3992(4) 0.4116(4) 0.0119(4)
C2B C -0.3432(4) 0.3538(4) 0.0056(4)
N3D N -0.0150(3) -0.0430(4) 0.1364(4)
C3D C -0.0246(5) 0.0172(4) 0.2096(5)
C4D C -0.0265(5) -0.0101(5) 0.3059(5)
C5D C -0.0103(5) -0.1361(4) 0.1607(5)
C6D C -0.0115(6) -0.1674(5) 0.2548(5)
C7D C -0.0185(6) -0.1040(5) 0.3316(5)
C8D C -0.0139(8) -0.1310(7) 0.4378(6)
C9D C 0.0166(7) -0.2281(7) 0.4604(6)
C10D C 0.0198(6) -0.2476(5) 0.5683(5)
C11D C -0.0603(6) -0.2714(6) 0.6187(6)
C12D C -0.0581(6) -0.2876(6) 0.7170(6)
C13D C 0.1035(6) -0.2397(6) 0.6201(6)
C14D C 0.1056(6) -0.2538(6) 0.7191(6)
C15D C 0.0244(6) -0.2787(5) 0.7678(5)
H1D H -0.0303 0.0824 0.1949
H2D H -0.0334 0.0363 0.3551
H3D H -0.0061 -0.1812 0.1099
H4D H -0.0076 -0.2331 0.2677
H5D H -0.0772 -0.1218 0.4666
H6D H 0.0295 -0.0870 0.4712
H7D H -0.0268 -0.2732 0.4291
H8D H 0.0804 -0.2384 0.4327
H9D H -0.1185 -0.2767 0.5848
H10D H -0.1142 -0.3052 0.7499
H11D H 0.1601 -0.2243 0.5868
H12D H 0.1626 -0.2462 0.7538
H13D H 0.0258 -0.2897 0.8358
N3E N 0.5430(4) -0.0150(3) 0.1364(4)
C3E C 0.4828(4) -0.0246(5) 0.2096(5)
C4E C 0.5101(5) -0.0265(5) 0.3059(5)
C5E C 0.6361(4) -0.0103(5) 0.1607(5)
C6E C 0.6674(5) -0.0115(6) 0.2548(5)
C7E C 0.6040(5) -0.0185(6) 0.3316(5)
C8E C 0.6310(7) -0.0139(8) 0.4378(6)
C9E C 0.7281(7) 0.0166(7) 0.4604(6)
C10E C 0.7476(5) 0.0198(6) 0.5683(5)
C11E C 0.7714(6) -0.0603(6) 0.6187(6)
C12E C 0.7876(6) -0.0581(6) 0.7170(6)
C13E C 0.7397(6) 0.1035(6) 0.6201(6)
C14E C 0.7538(6) 0.1056(6) 0.7191(6)
C15E C 0.7787(5) 0.0244(6) 0.7678(5)
H1E H 0.4176 -0.0303 0.1949
H2E H 0.4637 -0.0334 0.3551
H3E H 0.6812 -0.0061 0.1099
H4E H 0.7331 -0.0076 0.2677
H5E H 0.6218 -0.0772 0.4666
H6E H 0.5870 0.0295 0.4712
H7E H 0.7732 -0.0268 0.4291
H8E H 0.7384 0.0804 0.4327
H9E H 0.7767 -0.1185 0.5848
H10E H 0.8052 -0.1142 0.7499
H11E H 0.7243 0.1601 0.5868
H12E H 0.7462 0.1626 0.7538
H13E H 0.7897 0.0258 0.8358
N1B N 0.4086(3) 0.4041(3) 0.0379(4)
C1B C 0.3516(4) 0.3482(4) 0.0470(4)
N1C N 0.0959(3) 0.4086(3) 0.0379(4)
C1C C 0.1518(4) 0.3516(4) 0.0470(4)
N2G N -0.0884(4) 0.3992(4) -0.0119(4)
C2G C -0.1462(4) 0.3432(4) -0.0056(4)
Pt2A Pt 0.2500 -0.2500 0.0000
Fe1B Fe -0.5000 0.5000 0.0000
Fe1B_2 Fe 0.5000 0.5000 0.0000
Fe1C Fe 0.0000 0.5000 0.0000
N1D N -0.0914(3) -0.0959(3) -0.0379(4)
N1E N 0.5959(3) -0.0914(3) -0.0379(4)
N2D N 0.1008(4) -0.0884(4) -0.0119(4)
N2E N 0.5884(4) 0.1008(4) -0.0119(4)
C2E C -0.3538(4) 0.1568(4) -0.0056(4)
loop_
_geom_bond_atom_site_label_1
_geom_bond_atom_site_label_2
_geom_bond_site_symmetry_1
_geom_bond_site_symmetry_2
Pt1 C1 1_555 1_555
Pt2 C2 1_555 1_555
Fe1 N1 1_555 1_555
N1 C1 1_555 1_555
N2 Fe1 1_555 1_555
N3 Fe1 1_555 1_555
C2 N2 1_555 1_555
C3 N3 1_555 1_555
C4 C3 1_555 1_555
C5 N3 1_555 1_555
C6 C5 1_555 1_555
C7 C4 1_555 1_555
C8 C7 1_555 1_555
C9 C8 1_555 1_555
C10 C9 1_555 1_555
C11 C10 1_555 1_555
C12 C11 1_555 1_555
C13 C10 1_555 1_555
C14 C13 1_555 1_555
C15 C12 1_555 1_555
H1 C3 1_555 1_555
H2 C4 1_555 1_555
H3 C5 1_555 1_555
H4 C6 1_555 1_555
H5 C8 1_555 1_555
H6 C8 1_555 1_555
H7 C9 1_555 1_555
H8 C9 1_555 1_555
H9 C11 1_555 1_555
H10 C12 1_555 1_555
H11 C13 1_555 1_555
H12 C14 1_555 1_555
H13 C15 1_555 1_555
Fe1A N1A 1_555 1_555
N1A C1A 1_555 1_555
N2A Fe1A 1_555 1_555
N3A Fe1A 1_555 1_555
C1A Pt1 1_555 1_555
C2A N2A 1_555 1_555
C3A N3A 1_555 1_555
C4A C3A 1_555 1_555
C5A N3A 1_555 1_555
C6A C5A 1_555 1_555
C7A C4A 1_555 1_555
C8A C7A 1_555 1_555
C9A C8A 1_555 1_555
C10A C9A 1_555 1_555
C11A C10A 1_555 1_555
C12A C11A 1_555 1_555
C13A C10A 1_555 1_555
C14A C13A 1_555 1_555
C15A C12A 1_555 1_555
H1A C3A 1_555 1_555
H2A C4A 1_555 1_555
H3A C5A 1_555 1_555
H4A C6A 1_555 1_555
H5A C8A 1_555 1_555
H6A C8A 1_555 1_555
H7A C9A 1_555 1_555
H8A C9A 1_555 1_555
H9A C11A 1_555 1_555
H10A C12A 1_555 1_555
H11A C13A 1_555 1_555
H12A C14A 1_555 1_555
H13A C15A 1_555 1_555
N2B C2B 1_555 1_555
C2B Pt2 1_555 1_555
N3D Fe1 1_555 1_555
C3D N3D 1_555 1_555
C4D C3D 1_555 1_555
C5D N3D 1_555 1_555
C6D C5D 1_555 1_555
C7D C4D 1_555 1_555
C8D C7D 1_555 1_555
C9D C8D 1_555 1_555
C10D C9D 1_555 1_555
C11D C10D 1_555 1_555
C12D C11D 1_555 1_555
C13D C10D 1_555 1_555
C14D C13D 1_555 1_555
C15D C12D 1_555 1_555
H1D C3D 1_555 1_555
H2D C4D 1_555 1_555
H3D C5D 1_555 1_555
H4D C6D 1_555 1_555
H5D C8D 1_555 1_555
H6D C8D 1_555 1_555
H7D C9D 1_555 1_555
H8D C9D 1_555 1_555
H9D C11D 1_555 1_555
H10D C12D 1_555 1_555
H11D C13D 1_555 1_555
H12D C14D 1_555 1_555
H13D C15D 1_555 1_555
N3E Fe1A 1_555 1_555
C3E N3E 1_555 1_555
C4E C3E 1_555 1_555
C5E N3E 1_555 1_555
C6E C5E 1_555 1_555
C7E C4E 1_555 1_555
C8E C7E 1_555 1_555
C9E C8E 1_555 1_555
C10E C9E 1_555 1_555
C11E C10E 1_555 1_555
C12E C11E 1_555 1_555
C13E C10E 1_555 1_555
C14E C13E 1_555 1_555
C15E C12E 1_555 1_555
H1E C3E 1_555 1_555
H2E C4E 1_555 1_555
H3E C5E 1_555 1_555
H4E C6E 1_555 1_555
H5E C8E 1_555 1_555
H6E C8E 1_555 1_555
H7E C9E 1_555 1_555
H8E C9E 1_555 1_555
H9E C11E 1_555 1_555
H10E C12E 1_555 1_555
H11E C13E 1_555 1_555
H12E C14E 1_555 1_555
H13E C15E 1_555 1_555
N1B C1B 1_555 1_555
C1B Pt1 1_555 1_555
N1C C1C 1_555 1_555
C1C Pt1 1_555 1_555
N2G C2G 1_555 1_555
C2G Pt2 1_555 1_555
Pt2A C2A 1_555 1_555
Fe1B N2B 1_555 1_555
Fe1B_2 N1B 1_555 1_555
Fe1C N1C 1_555 1_555
N1D Fe1 1_555 1_555
N1E Fe1A 1_555 1_555
N2D Fe1 1_555 1_555
N2E Fe1A 1_555 1_555
C2E Pt2 1_555 1_555
C6 C7 1_555 1_555
C14 C15 1_555 1_555
C6A C7A 1_555 1_555
C14A C15A 1_555 1_555
C6D C7D 1_555 1_555
C14D C15D 1_555 1_555
C6E C7E 1_555 1_555
C14E C15E 1_555 1_555
N2G Fe1C 1_555 1_555

#END
