
#######################################################################
#
#                 Cambridge Crystallographic Data Centre
#                                CCDC 
#
#######################################################################
#
# If this CIF has been generated from an entry in the Cambridge 
# Structural Database, then it will include bibliographic, chemical, 
# crystal, experimental, refinement or atomic coordinate data resulting 
# from the CCDC's data processing and validation procedures.
#
#######################################################################

data_TURXAH01
_symmetry_cell_setting           tetragonal
_symmetry_space_group_name_H-M   'P 4/n'
_symmetry_Int_Tables_number      85
_space_group_name_Hall           '-P 4a'
loop_
_symmetry_equiv_pos_site_id
_symmetry_equiv_pos_as_xyz
1 x,y,z
2 1/2-y,x,z
3 1/2-x,1/2-y,z
4 y,1/2-x,z
5 -x,-y,-z
6 1/2+y,-x,-z
7 1/2+x,1/2+y,-z
8 -y,1/2+x,-z
_cell_length_a                   14.638(4)
_cell_length_b                   14.638(4)
_cell_length_c                   13.922(4)
_cell_angle_alpha                90
_cell_angle_beta                 90
_cell_angle_gamma                90
_cell_volume                     2983.08
loop_
_atom_site_label
_atom_site_type_symbol
_atom_site_fract_x
_atom_site_fract_y
_atom_site_fract_z
Pt1 Pt 0.2500 0.2500 0.05453(2)
Pt2 Pt -0.2500 0.2500 0.0000
Fe1 Fe 0.0000 0.0000 0.0000
N1 N 0.0927(3) 0.1056(3) 0.0458(4)
N2 N -0.1117(4) 0.0890(4) 0.0154(4)
N3 N 0.0154(3) 0.0514(4) -0.1473(4)
C1 C 0.1493(4) 0.1580(4) 0.0512(4)
C2 C -0.1628(4) 0.1469(4) 0.0068(4)
C3 C 0.0256(6) -0.0064(4) -0.2199(5)
C4 C 0.0283(6) 0.0198(5) -0.3141(5)
C5 C 0.0087(5) 0.1403(4) -0.1686(5)
C6 C 0.0112(7) 0.1720(5) -0.2608(6)
C7 C 0.0203(7) 0.1120(6) -0.3376(5)
C8 C 0.0201(12) 0.1406(8) -0.4423(6)
C9 C -0.0248(8) 0.2227(8) -0.4683(7)
C10 C -0.0246(7) 0.2428(6) -0.5738(5)
C11 C 0.0537(7) 0.2673(7) -0.6218(6)
C12 C 0.0513(7) 0.2845(7) -0.7184(6)
C13 C -0.1043(7) 0.2334(7) -0.6279(7)
C14 C -0.1044(6) 0.2495(7) -0.7250(7)
C15 C -0.0248(7) 0.2770(6) -0.7696(6)
H1 H 0.0317 -0.0689 -0.2056
H2 H 0.0355 -0.0243 -0.3627
H3 H 0.0021 0.1825 -0.1181
H4 H 0.0072 0.2352 -0.2723
H5 H 0.0840 0.1460 -0.4632
H6 H -0.0071 0.0908 -0.4798
H7 H -0.0888 0.2187 -0.4468
H8 H 0.0036 0.2735 -0.4345
H9 H 0.1093 0.2725 -0.5881
H10 H 0.1052 0.3024 -0.7494
H11 H -0.1589 0.2161 -0.5973
H12 H -0.1580 0.2413 -0.7608
H13 H -0.0246 0.2902 -0.8357
Fe1A Fe 0.5000 0.0000 0.0000
N1A N 0.3944(3) 0.0927(3) 0.0458(4)
N2A N 0.4110(4) -0.1117(4) 0.0154(4)
N3A N 0.4486(4) 0.0154(3) -0.1473(4)
C1A C 0.3420(4) 0.1493(4) 0.0512(4)
C2A C 0.3531(4) -0.1628(4) 0.0068(4)
C3A C 0.5064(4) 0.0256(6) -0.2199(5)
C4A C 0.4802(5) 0.0283(6) -0.3141(5)
C5A C 0.3597(4) 0.0087(5) -0.1686(5)
C6A C 0.3280(5) 0.0112(7) -0.2608(6)
C7A C 0.3880(6) 0.0203(7) -0.3376(5)
C8A C 0.3594(8) 0.0201(12) -0.4423(6)
C9A C 0.2773(8) -0.0248(8) -0.4683(7)
C10A C 0.2572(6) -0.0246(7) -0.5738(5)
C11A C 0.2327(7) 0.0537(7) -0.6218(6)
C12A C 0.2155(7) 0.0513(7) -0.7184(6)
C13A C 0.2666(7) -0.1043(7) -0.6279(7)
C14A C 0.2505(7) -0.1044(6) -0.7250(7)
C15A C 0.2230(6) -0.0248(7) -0.7696(6)
H1A H 0.5689 0.0317 -0.2056
H2A H 0.5243 0.0355 -0.3627
H3A H 0.3175 0.0021 -0.1181
H4A H 0.2648 0.0072 -0.2723
H5A H 0.3540 0.0840 -0.4632
H6A H 0.4092 -0.0071 -0.4798
H7A H 0.2813 -0.0888 -0.4468
H8A H 0.2265 0.0036 -0.4345
H9A H 0.2275 0.1093 -0.5881
H10A H 0.1976 0.1052 -0.7494
H11A H 0.2839 -0.1589 -0.5973
H12A H 0.2587 -0.1580 -0.7608
H13A H 0.2098 -0.0246 -0.8357
N2B N -0.3883(4) 0.4110(4) 0.0154(4)
C2B C -0.3372(4) 0.3531(4) 0.0068(4)
N3D N -0.0154(3) -0.0514(4) 0.1473(4)
C3D C -0.0256(6) 0.0064(4) 0.2199(5)
C4D C -0.0283(6) -0.0198(5) 0.3141(5)
C5D C -0.0087(5) -0.1403(4) 0.1686(5)
C6D C -0.0112(7) -0.1720(5) 0.2608(6)
C7D C -0.0203(7) -0.1120(6) 0.3376(5)
C8D C -0.0201(12) -0.1406(8) 0.4423(6)
C9D C 0.0248(8) -0.2227(8) 0.4683(7)
C10D C 0.0246(7) -0.2428(6) 0.5738(5)
C11D C -0.0537(7) -0.2673(7) 0.6218(6)
C12D C -0.0513(7) -0.2845(7) 0.7184(6)
C13D C 0.1043(7) -0.2334(7) 0.6279(7)
C14D C 0.1044(6) -0.2495(7) 0.7250(7)
C15D C 0.0248(7) -0.2770(6) 0.7696(6)
H1D H -0.0317 0.0689 0.2056
H2D H -0.0355 0.0243 0.3627
H3D H -0.0021 -0.1825 0.1181
H4D H -0.0072 -0.2352 0.2723
H5D H -0.0840 -0.1460 0.4632
H6D H 0.0071 -0.0908 0.4798
H7D H 0.0888 -0.2187 0.4468
H8D H -0.0036 -0.2735 0.4345
H9D H -0.1093 -0.2725 0.5881
H10D H -0.1052 -0.3024 0.7494
H11D H 0.1589 -0.2161 0.5973
H12D H 0.1580 -0.2413 0.7608
H13D H 0.0246 -0.2902 0.8357
N3E N 0.5514(4) -0.0154(3) 0.1473(4)
C3E C 0.4936(4) -0.0256(6) 0.2199(5)
C4E C 0.5198(5) -0.0283(6) 0.3141(5)
C5E C 0.6403(4) -0.0087(5) 0.1686(5)
C6E C 0.6720(5) -0.0112(7) 0.2608(6)
C7E C 0.6120(6) -0.0203(7) 0.3376(5)
C8E C 0.6406(8) -0.0201(12) 0.4423(6)
C9E C 0.7227(8) 0.0248(8) 0.4683(7)
C10E C 0.7428(6) 0.0246(7) 0.5738(5)
C11E C 0.7673(7) -0.0537(7) 0.6218(6)
C12E C 0.7845(7) -0.0513(7) 0.7184(6)
C13E C 0.7334(7) 0.1043(7) 0.6279(7)
C14E C 0.7495(7) 0.1044(6) 0.7250(7)
C15E C 0.7770(6) 0.0248(7) 0.7696(6)
H1E H 0.4311 -0.0317 0.2056
H2E H 0.4757 -0.0355 0.3627
H3E H 0.6825 -0.0021 0.1181
H4E H 0.7352 -0.0072 0.2723
H5E H 0.6460 -0.0840 0.4632
H6E H 0.5908 0.0071 0.4798
H7E H 0.7187 0.0888 0.4468
H8E H 0.7735 -0.0036 0.4345
H9E H 0.7725 -0.1093 0.5881
H10E H 0.8024 -0.1052 0.7494
H11E H 0.7161 0.1589 0.5973
H12E H 0.7413 0.1580 0.7608
H13E H 0.7902 0.0246 0.8357
N1B N 0.4073(3) 0.3944(3) 0.0458(4)
C1B C 0.3507(4) 0.3420(4) 0.0512(4)
N1C N 0.1056(3) 0.4073(3) 0.0458(4)
C1C C 0.1580(4) 0.3507(4) 0.0512(4)
N2G N -0.0890(4) 0.3883(4) -0.0154(4)
C2G C -0.1469(4) 0.3372(4) -0.0068(4)
Pt2A Pt 0.2500 -0.2500 0.0000
Fe1B Fe -0.5000 0.5000 0.0000
Fe1B_2 Fe 0.5000 0.5000 0.0000
Fe1C Fe 0.0000 0.5000 0.0000
N1D N -0.0927(3) -0.1056(3) -0.0458(4)
N1E N 0.6056(3) -0.0927(3) -0.0458(4)
N2D N 0.1117(4) -0.0890(4) -0.0154(4)
N2E N 0.5890(4) 0.1117(4) -0.0154(4)
C2E C -0.3531(4) 0.1628(4) -0.0068(4)
loop_
_geom_bond_atom_site_label_1
_geom_bond_atom_site_label_2
_geom_bond_site_symmetry_1
_geom_bond_site_symmetry_2
Pt1 C1 1_555 1_555
Pt2 C2 1_555 1_555
Fe1 N1 1_555 1_555
N1 C1 1_555 1_555
N2 Fe1 1_555 1_555
N3 Fe1 1_555 1_555
C2 N2 1_555 1_555
C3 N3 1_555 1_555
C4 C3 1_555 1_555
C5 N3 1_555 1_555
C6 C5 1_555 1_555
C7 C4 1_555 1_555
C8 C7 1_555 1_555
C9 C8 1_555 1_555
C10 C9 1_555 1_555
C11 C10 1_555 1_555
C12 C11 1_555 1_555
C13 C10 1_555 1_555
C14 C13 1_555 1_555
C15 C12 1_555 1_555
H1 C3 1_555 1_555
H2 C4 1_555 1_555
H3 C5 1_555 1_555
H4 C6 1_555 1_555
H5 C8 1_555 1_555
H6 C8 1_555 1_555
H7 C9 1_555 1_555
H8 C9 1_555 1_555
H9 C11 1_555 1_555
H10 C12 1_555 1_555
H11 C13 1_555 1_555
H12 C14 1_555 1_555
H13 C15 1_555 1_555
Fe1A N1A 1_555 1_555
N1A C1A 1_555 1_555
N2A Fe1A 1_555 1_555
N3A Fe1A 1_555 1_555
C1A Pt1 1_555 1_555
C2A N2A 1_555 1_555
C3A N3A 1_555 1_555
C4A C3A 1_555 1_555
C5A N3A 1_555 1_555
C6A C5A 1_555 1_555
C7A C4A 1_555 1_555
C8A C7A 1_555 1_555
C9A C8A 1_555 1_555
C10A C9A 1_555 1_555
C11A C10A 1_555 1_555
C12A C11A 1_555 1_555
C13A C10A 1_555 1_555
C14A C13A 1_555 1_555
C15A C12A 1_555 1_555
H1A C3A 1_555 1_555
H2A C4A 1_555 1_555
H3A C5A 1_555 1_555
H4A C6A 1_555 1_555
H5A C8A 1_555 1_555
H6A C8A 1_555 1_555
H7A C9A 1_555 1_555
H8A C9A 1_555 1_555
H9A C11A 1_555 1_555
H10A C12A 1_555 1_555
H11A C13A 1_555 1_555
H12A C14A 1_555 1_555
H13A C15A 1_555 1_555
N2B C2B 1_555 1_555
C2B Pt2 1_555 1_555
N3D Fe1 1_555 1_555
C3D N3D 1_555 1_555
C4D C3D 1_555 1_555
C5D N3D 1_555 1_555
C6D C5D 1_555 1_555
C7D C4D 1_555 1_555
C8D C7D 1_555 1_555
C9D C8D 1_555 1_555
C10D C9D 1_555 1_555
C11D C10D 1_555 1_555
C12D C11D 1_555 1_555
C13D C10D 1_555 1_555
C14D C13D 1_555 1_555
C15D C12D 1_555 1_555
H1D C3D 1_555 1_555
H2D C4D 1_555 1_555
H3D C5D 1_555 1_555
H4D C6D 1_555 1_555
H5D C8D 1_555 1_555
H6D C8D 1_555 1_555
H7D C9D 1_555 1_555
H8D C9D 1_555 1_555
H9D C11D 1_555 1_555
H10D C12D 1_555 1_555
H11D C13D 1_555 1_555
H12D C14D 1_555 1_555
H13D C15D 1_555 1_555
N3E Fe1A 1_555 1_555
C3E N3E 1_555 1_555
C4E C3E 1_555 1_555
C5E N3E 1_555 1_555
C6E C5E 1_555 1_555
C7E C4E 1_555 1_555
C8E C7E 1_555 1_555
C9E C8E 1_555 1_555
C10E C9E 1_555 1_555
C11E C10E 1_555 1_555
C12E C11E 1_555 1_555
C13E C10E 1_555 1_555
C14E C13E 1_555 1_555
C15E C12E 1_555 1_555
H1E C3E 1_555 1_555
H2E C4E 1_555 1_555
H3E C5E 1_555 1_555
H4E C6E 1_555 1_555
H5E C8E 1_555 1_555
H6E C8E 1_555 1_555
H7E C9E 1_555 1_555
H8E C9E 1_555 1_555
H9E C11E 1_555 1_555
H10E C12E 1_555 1_555
H11E C13E 1_555 1_555
H12E C14E 1_555 1_555
H13E C15E 1_555 1_555
N1B C1B 1_555 1_555
C1B Pt1 1_555 1_555
N1C C1C 1_555 1_555
C1C Pt1 1_555 1_555
N2G C2G 1_555 1_555
C2G Pt2 1_555 1_555
Pt2A C2A 1_555 1_555
Fe1B N2B 1_555 1_555
Fe1B_2 N1B 1_555 1_555
Fe1C N1C 1_555 1_555
N1D Fe1 1_555 1_555
N1E Fe1A 1_555 1_555
N2D Fe1 1_555 1_555
N2E Fe1A 1_555 1_555
C2E Pt2 1_555 1_555
C6 C7 1_555 1_555
C14 C15 1_555 1_555
C6A C7A 1_555 1_555
C14A C15A 1_555 1_555
C6D C7D 1_555 1_555
C14D C15D 1_555 1_555
C6E C7E 1_555 1_555
C14E C15E 1_555 1_555
N2G Fe1C 1_555 1_555

#END
