
#######################################################################
#
#                 Cambridge Crystallographic Data Centre
#                                CCDC 
#
#######################################################################
#
# If this CIF has been generated from an entry in the Cambridge 
# Structural Database, then it will include bibliographic, chemical, 
# crystal, experimental, refinement or atomic coordinate data resulting 
# from the CCDC's data processing and validation procedures.
#
#######################################################################

data_TUSFOD
_symmetry_cell_setting           monoclinic
_symmetry_space_group_name_H-M   'P 21/c'
_symmetry_Int_Tables_number      14
_space_group_name_Hall           '-P 2ybc'
loop_
_symmetry_equiv_pos_site_id
_symmetry_equiv_pos_as_xyz
1 x,y,z
2 -x,1/2+y,1/2-z
3 -x,-y,-z
4 x,1/2-y,1/2+z
_cell_length_a                   9.5891(5)
_cell_length_b                   16.8764(8)
_cell_length_c                   8.6411(4)
_cell_angle_alpha                90
_cell_angle_beta                 108.031(4)
_cell_angle_gamma                90
_cell_volume                     1329.71
loop_
_atom_site_label
_atom_site_type_symbol
_atom_site_fract_x
_atom_site_fract_y
_atom_site_fract_z
C1 C 0.0120(2) 0.12445(13) 0.5645(3)
C2 C 0.0524(2) 0.07739(13) 0.8290(3)
C3 C -0.1513(2) 0.02428(14) 0.6033(3)
C4 C -0.1054(2) 0.07714(14) 0.4988(3)
H1 H -0.1553 0.0789 0.3878
C5 C 0.0699(2) 0.17645(13) 0.4549(3)
C6 C 0.4875(3) 0.10467(16) 0.8810(4)
H2 H 0.4073 0.0729 0.8292
C7 C 0.6253(3) 0.07186(18) 0.9243(4)
H3 H 0.6379 0.0188 0.9024
C8 C 0.7431(3) 0.1180(2) 0.9996(4)
H4 H 0.8373 0.0968 1.0308
C9 C 0.7214(3) 0.19606(19) 1.0290(4)
H5 H 0.8009 0.2284 1.0798
C10 C 0.5802(3) 0.22672(15) 0.9828(3)
C11 C 0.5527(3) 0.31254(15) 1.0099(3)
H6 H 0.6421 0.3357 1.0811
H7 H 0.4786 0.3159 1.0647
C12 C 0.5021(3) 0.36091(15) 0.8529(3)
H8 H 0.5228 0.4165 0.8778
H9 H 0.5561 0.3443 0.7803
N1 N 0.0891(2) 0.12758(11) 0.7255(2)
N2 N -0.0653(2) 0.02737(11) 0.7648(2)
H10 H -0.0871 -0.0048 0.8310
N3 N 0.4641(2) 0.18091(12) 0.9106(3)
N4 N 0.3444(2) 0.35043(12) 0.7716(3)
H11 H 0.3283 0.3577 0.6643
H12 H 0.2975 0.3898 0.8055
O1 O 0.1765(2) 0.22242(10) 0.5249(2)
O2 O 0.0185(2) 0.17181(11) 0.3062(2)
O3 O 0.12089(19) 0.07439(10) 0.9763(2)
O4 O -0.25629(19) -0.02143(11) 0.5589(2)
Cd1 Cd 0.233415(17) 0.233945(10) 0.802337(19)
O1C O 0.1765(2) 0.27758(10) 1.0249(2)
O2C O 0.0185(2) 0.32819(11) 0.8062(2)
Cd1C Cd 0.233415(17) 0.266055(10) 0.302337(19)
loop_
_geom_bond_atom_site_label_1
_geom_bond_atom_site_label_2
_geom_bond_site_symmetry_1
_geom_bond_site_symmetry_2
C1 C4 1_555 1_555
C2 N1 1_555 1_555
C3 C4 1_555 1_555
C4 H1 1_555 1_555
C5 C1 1_555 1_555
C6 H2 1_555 1_555
C7 C6 1_555 1_555
H3 C7 1_555 1_555
C8 C7 1_555 1_555
H4 C8 1_555 1_555
C9 C8 1_555 1_555
H5 C9 1_555 1_555
C10 C9 1_555 1_555
C11 C10 1_555 1_555
H6 C11 1_555 1_555
H7 C11 1_555 1_555
C12 C11 1_555 1_555
H8 C12 1_555 1_555
H9 C12 1_555 1_555
N1 C1 1_555 1_555
N2 C2 1_555 1_555
H10 N2 1_555 1_555
N3 C6 1_555 1_555
N4 C12 1_555 1_555
H11 N4 1_555 1_555
H12 N4 1_555 1_555
O1 C5 1_555 1_555
O2 C5 1_555 1_555
O3 C2 1_555 1_555
O4 C3 1_555 1_555
Cd1 N1 1_555 1_555
O1C Cd1 1_555 1_555
O2C Cd1 1_555 1_555
Cd1C O1 1_555 1_555
C3 N2 1_555 1_555
C10 N3 1_555 1_555
N3 Cd1 1_555 1_555
N4 Cd1 1_555 1_555
O1 Cd1 1_555 1_555
O2 Cd1C 1_555 1_555

#END
