
#######################################################################
#
#                 Cambridge Crystallographic Data Centre
#                                CCDC 
#
#######################################################################
#
# If this CIF has been generated from an entry in the Cambridge 
# Structural Database, then it will include bibliographic, chemical, 
# crystal, experimental, refinement or atomic coordinate data resulting 
# from the CCDC's data processing and validation procedures.
#
#######################################################################

data_TUSGIX
_symmetry_cell_setting           orthorhombic
_symmetry_space_group_name_H-M   'F m m m'
_symmetry_Int_Tables_number      69
_space_group_name_Hall           '-F 2 2'
loop_
_symmetry_equiv_pos_site_id
_symmetry_equiv_pos_as_xyz
1 x,y,z
2 x,1/2+y,1/2+z
3 1/2+x,y,1/2+z
4 1/2+x,1/2+y,z
5 x,y,-z
6 -x,y,z
7 x,-y,z
8 x,1/2+y,1/2-z
9 -x,1/2+y,1/2+z
10 x,1/2-y,1/2+z
11 1/2+x,y,1/2-z
12 1/2-x,y,1/2+z
13 1/2+x,-y,1/2+z
14 1/2+x,1/2+y,-z
15 1/2-x,1/2+y,z
16 1/2+x,1/2-y,z
17 -x,-y,-z
18 -x,1/2-y,1/2-z
19 1/2-x,-y,1/2-z
20 1/2-x,1/2-y,-z
21 -x,-y,z
22 x,-y,-z
23 -x,y,-z
24 -x,1/2-y,1/2+z
25 x,1/2-y,1/2-z
26 -x,1/2+y,1/2-z
27 1/2-x,-y,1/2+z
28 1/2+x,-y,1/2-z
29 1/2-x,y,1/2-z
30 1/2-x,1/2-y,z
31 1/2+x,1/2-y,-z
32 1/2-x,1/2+y,-z
_cell_length_a                   28.770(13)
_cell_length_b                   29.035(13)
_cell_length_c                   56.46(3)
_cell_angle_alpha                90
_cell_angle_beta                 90
_cell_angle_gamma                90
_cell_volume                     47163.1
loop_
_atom_site_label
_atom_site_type_symbol
_atom_site_fract_x
_atom_site_fract_y
_atom_site_fract_z
Ag1 Ag 0.374091(16) 0.238742(11) 0.127364(6)
C1 C 0.37231(17) 0.08401(13) 0.04290(7)
C2 C 0.37363(19) 0.12092(12) 0.06160(6)
C3 C 0.37497(14) 0.09844(11) 0.23932(7)
C4 C 0.37599(15) 0.08359(12) 0.21611(7)
C5 C 0.37375(16) 0.03799(12) 0.05105(6)
C6 C 0.37543(15) 0.09866(11) 0.27904(6)
C7 C 0.37755(15) 0.08374(12) 0.30249(7)
C8 C 0.37133(16) 0.14558(13) 0.27090(8)
H1 H 0.3690 0.1716 0.2805
C9 C 0.36732(16) 0.14618(13) 0.01213(7)
H2 H 0.3657 0.1718 0.0220
C10 C 0.41119(17) 0.15016(15) 0.06472(7)
H3 H 0.4376 0.1471 0.0554
C11 C 0.37791(15) 0.03808(12) 0.31030(7)
C12 C 0.37752(15) 0.03783(12) 0.20812(6)
C13 C 0.37034(17) 0.09835(12) 0.01937(7)
C14 C 0.38104(15) 0.02268(12) 0.33452(7)
H4 H 0.3828 0.0415 0.3478
C15 C 0.37659(16) 0.02277(13) 0.07461(7)
H5 H 0.3782 0.0415 0.0879
C16 C 0.37703(19) 0.12119(12) 0.32126(7)
C17 C 0.38178(15) 0.02300(13) 0.18414(7)
H6 H 0.3841 0.0419 0.1709
C18 C 0.37444(17) 0.11891(13) 0.19683(7)
C19 C 0.33420(19) 0.12765(15) 0.07642(8)
H7 H 0.3081 0.1090 0.0747
C20 C 0.3402(2) 0.12992(16) 0.33512(9)
H8 H 0.3139 0.1114 0.3339
C21 C 0.37147(17) 0.14517(12) 0.24696(7)
H9 H 0.3696 0.1709 0.2372
C22 C 0.41179(17) 0.14959(15) 0.19359(8)
H10 H 0.4370 0.1485 0.2039
C23 C 0.4116(2) 0.18145(15) 0.17529(8)
H11 H 0.4368 0.2012 0.1734
C24 C 0.33774(17) 0.12299(14) 0.18135(8)
H12 H 0.3120 0.1038 0.1830
C25 C 0.3348(2) 0.16277(17) 0.09375(8)
H13 H 0.3095 0.1667 0.1038
C26 C 0.4088(2) 0.18365(16) 0.08177(8)
H14 H 0.4345 0.2027 0.0837
C27 C 0.33892(19) 0.15535(16) 0.16347(8)
H15 H 0.3135 0.1573 0.1533
C28 C 0.41425(19) 0.14967(18) 0.32365(9)
H16 H 0.4405 0.1458 0.3142
C29 C 0.3407(2) 0.16528(19) 0.35084(10)
H17 H 0.3144 0.1703 0.3601
C30 C 0.4123(2) 0.18499(16) 0.34057(10)
H18 H 0.4385 0.2035 0.3423
N1 N 0.37268(16) 0.19086(11) 0.09575(6)
N2 N 0.37464(17) 0.18419(12) 0.15993(6)
N3 N 0.37769(18) 0.19362(12) 0.35362(7)
N4 N 0.37762(11) 0.07098(9) 0.25929(5)
N5 N 0.37232(19) 0.07019(13) 0.0000
N6 N 0.37829(15) 0.0000 0.29556(8)
N7 N 0.37545(16) 0.0000 0.22304(7)
N8 N 0.37125(17) 0.0000 0.03671(7)
C15F C 0.37659(16) -0.02277(13) 0.07461(7)
C5F C 0.37375(16) -0.03799(12) 0.05105(6)
C1F C 0.37231(17) -0.08401(13) 0.04290(7)
C2F C 0.37363(19) -0.12092(12) 0.06160(6)
C10F C 0.41119(17) -0.15016(15) 0.06472(7)
H3F H 0.4376 -0.1471 0.0554
C26F C 0.4088(2) -0.18365(16) 0.08177(8)
H14F H 0.4345 -0.2027 0.0837
N1F N 0.37268(16) -0.19086(11) 0.09575(6)
C25F C 0.3348(2) -0.16277(17) 0.09375(8)
C19F C 0.33420(19) -0.12765(15) 0.07642(8)
H7F H 0.3081 -0.1090 0.0747
H13F H 0.3095 -0.1667 0.1038
C13F C 0.37034(17) -0.09835(12) 0.01937(7)
C9F C 0.36732(16) -0.14618(13) 0.01213(7)
C9U C 0.36732(16) -0.14618(13) -0.01213(7)
H2U H 0.3657 -0.1718 -0.0220
C13U C 0.37034(17) -0.09835(12) -0.01937(7)
C1U C 0.37231(17) -0.08401(13) -0.04290(7)
C2U C 0.37363(19) -0.12092(12) -0.06160(6)
C10U C 0.41119(17) -0.15016(15) -0.06472(7)
H3U H 0.4376 -0.1471 -0.0554
C26U C 0.4088(2) -0.18365(16) -0.08177(8)
H14U H 0.4345 -0.2027 -0.0837
N1U N 0.37268(16) -0.19086(11) -0.09575(6)
C25U C 0.3348(2) -0.16277(17) -0.09375(8)
C19U C 0.33420(19) -0.12765(15) -0.07642(8)
H7U H 0.3081 -0.1090 -0.0747
H13U H 0.3095 -0.1667 -0.1038
C5U C 0.37375(16) -0.03799(12) -0.05105(6)
C15U C 0.37659(16) -0.02277(13) -0.07461(7)
C15D C 0.37659(16) 0.02277(13) -0.07461(7)
C5D C 0.37375(16) 0.03799(12) -0.05105(6)
C1D C 0.37231(17) 0.08401(13) -0.04290(7)
C2D C 0.37363(19) 0.12092(12) -0.06160(6)
C10D C 0.41119(17) 0.15016(15) -0.06472(7)
H3D H 0.4376 0.1471 -0.0554
C26D C 0.4088(2) 0.18365(16) -0.08177(8)
H14D H 0.4345 0.2027 -0.0837
N1D N 0.37268(16) 0.19086(11) -0.09575(6)
C25D C 0.3348(2) 0.16277(17) -0.09375(8)
C19D C 0.33420(19) 0.12765(15) -0.07642(8)
H7D H 0.3081 0.1090 -0.0747
H13D H 0.3095 0.1667 -0.1038
C13D C 0.37034(17) 0.09835(12) -0.01937(7)
C9D C 0.36732(16) 0.14618(13) -0.01213(7)
H2D H 0.3657 0.1718 -0.0220
N8D N 0.37125(17) 0.0000 -0.03671(7)
H5D H 0.3782 0.0415 -0.0879
H5U H 0.3782 -0.0415 -0.0879
N5U N 0.37232(19) -0.07019(13) 0.0000
H2F H 0.3657 -0.1718 0.0220
H5F H 0.3782 -0.0415 0.0879
C17F C 0.38178(15) -0.02300(13) 0.18414(7)
C12F C 0.37752(15) -0.03783(12) 0.20812(6)
C4F C 0.37599(15) -0.08359(12) 0.21611(7)
C3F C 0.37497(14) -0.09844(11) 0.23932(7)
C21F C 0.37147(17) -0.14517(12) 0.24696(7)
C8F C 0.37133(16) -0.14558(13) 0.27090(8)
C6F C 0.37543(15) -0.09866(11) 0.27904(6)
C7F C 0.37755(15) -0.08374(12) 0.30249(7)
C11F C 0.37791(15) -0.03808(12) 0.31030(7)
C14F C 0.38104(15) -0.02268(12) 0.33452(7)
H4F H 0.3828 -0.0415 0.3478
C16F C 0.37703(19) -0.12119(12) 0.32126(7)
C20F C 0.3402(2) -0.12992(16) 0.33512(9)
H8F H 0.3139 -0.1114 0.3339
C29F C 0.3407(2) -0.16528(19) 0.35084(10)
H17F H 0.3144 -0.1703 0.3601
N3F N 0.37769(18) -0.19362(12) 0.35362(7)
C30F C 0.4123(2) -0.18499(16) 0.34057(10)
C28F C 0.41425(19) -0.14967(18) 0.32365(9)
H16F H 0.4405 -0.1458 0.3142
H18F H 0.4385 -0.2035 0.3423
N4F N 0.37762(11) -0.07098(9) 0.25929(5)
H1F H 0.3690 -0.1716 0.2805
H9F H 0.3696 -0.1709 0.2372
C18F C 0.37444(17) -0.11891(13) 0.19683(7)
C22F C 0.41179(17) -0.14959(15) 0.19359(8)
H10F H 0.4370 -0.1485 0.2039
C23F C 0.4116(2) -0.18145(15) 0.17529(8)
H11F H 0.4368 -0.2012 0.1734
N2F N 0.37464(17) -0.18419(12) 0.15993(6)
C27F C 0.33892(19) -0.15535(16) 0.16347(8)
C24F C 0.33774(17) -0.12299(14) 0.18135(8)
H12F H 0.3120 -0.1038 0.1830
H15F H 0.3135 -0.1573 0.1533
H6F H 0.3841 -0.0419 0.1709
C3X C 0.37497(14) 0.40156(11) 0.26068(7)
C4X C 0.37599(15) 0.41641(12) 0.28389(7)
C6X C 0.37543(15) 0.40134(11) 0.22096(6)
C7X C 0.37755(15) 0.41626(12) 0.19751(7)
C8X C 0.37133(16) 0.35442(13) 0.22910(8)
H1X H 0.3690 0.3284 0.2195
C11X C 0.37791(15) 0.46192(12) 0.18970(7)
C12X C 0.37752(15) 0.46217(12) 0.29188(6)
C14X C 0.38104(15) 0.47732(12) 0.16548(7)
H4X H 0.3828 0.4585 0.1522
C16X C 0.37703(19) 0.37881(12) 0.17874(7)
C17X C 0.38178(15) 0.47700(13) 0.31586(7)
H6X H 0.3841 0.4581 0.3291
C18X C 0.37444(17) 0.38109(13) 0.30317(7)
C20X C 0.3402(2) 0.37008(16) 0.16488(9)
H8X H 0.3139 0.3886 0.1661
C21X C 0.37147(17) 0.35483(12) 0.25304(7)
H9X H 0.3696 0.3291 0.2628
C22X C 0.41179(17) 0.35041(15) 0.30641(8)
H10X H 0.4370 0.3515 0.2961
C23X C 0.4116(2) 0.31855(15) 0.32471(8)
H11X H 0.4368 0.2988 0.3266
C24X C 0.33774(17) 0.37701(14) 0.31865(8)
H12X H 0.3120 0.3962 0.3170
C27X C 0.33892(19) 0.34465(16) 0.33653(8)
H15X H 0.3135 0.3427 0.3467
C28X C 0.41425(19) 0.35033(18) 0.17635(9)
H16X H 0.4405 0.3542 0.1858
C29X C 0.3407(2) 0.33472(19) 0.14916(10)
H17X H 0.3144 0.3297 0.1399
C30X C 0.4123(2) 0.31501(16) 0.15943(10)
H18X H 0.4385 0.2965 0.1577
N2X N 0.37464(17) 0.31581(12) 0.34007(6)
N3X N 0.37769(18) 0.30638(12) 0.14638(7)
N4X N 0.37762(11) 0.42902(9) 0.24071(5)
N6X N 0.37829(15) 0.5000 0.20444(8)
N7X N 0.37545(16) 0.5000 0.27696(7)
C17G C 0.38178(15) 0.52300(13) 0.31586(7)
C12G C 0.37752(15) 0.53783(12) 0.29188(6)
C4G C 0.37599(15) 0.58359(12) 0.28389(7)
C3G C 0.37497(14) 0.59844(11) 0.26068(7)
C21G C 0.37147(17) 0.64517(12) 0.25304(7)
C8G C 0.37133(16) 0.64558(13) 0.22910(8)
C6G C 0.37543(15) 0.59866(11) 0.22096(6)
C7G C 0.37755(15) 0.58374(12) 0.19751(7)
C11G C 0.37791(15) 0.53808(12) 0.18970(7)
C14G C 0.38104(15) 0.52268(12) 0.16548(7)
H4G H 0.3828 0.5415 0.1522
C16G C 0.37703(19) 0.62119(12) 0.17874(7)
C20G C 0.3402(2) 0.62992(16) 0.16488(9)
H8G H 0.3139 0.6114 0.1661
C29G C 0.3407(2) 0.66528(19) 0.14916(10)
H17G H 0.3144 0.6703 0.1399
N3G N 0.37769(18) 0.69362(12) 0.14638(7)
C30G C 0.4123(2) 0.68499(16) 0.15943(10)
C28G C 0.41425(19) 0.64967(18) 0.17635(9)
H16G H 0.4405 0.6458 0.1858
H18G H 0.4385 0.7035 0.1577
N4G N 0.37762(11) 0.57098(9) 0.24071(5)
H1G H 0.3690 0.6716 0.2195
H9G H 0.3696 0.6709 0.2628
C18G C 0.37444(17) 0.61891(13) 0.30317(7)
C22G C 0.41179(17) 0.64959(15) 0.30641(8)
H10G H 0.4370 0.6485 0.2961
C23G C 0.4116(2) 0.68145(15) 0.32471(8)
H11G H 0.4368 0.7012 0.3266
N2G N 0.37464(17) 0.68419(12) 0.34007(6)
C27G C 0.33892(19) 0.65535(16) 0.33653(8)
C24G C 0.33774(17) 0.62299(14) 0.31865(8)
H12G H 0.3120 0.6038 0.3170
H15G H 0.3135 0.6573 0.3467
H6G H 0.3841 0.5419 0.3291
Ag1F Ag 0.374091(16) -0.238742(11) 0.127364(6)
Ag1U Ag 0.374091(16) -0.238742(11) -0.127364(6)
Ag1D Ag 0.374091(16) 0.238742(11) -0.127364(6)
Ag1X Ag 0.374091(16) 0.261258(11) 0.372636(6)
Ag1G Ag 0.374091(16) -0.261258(11) 0.372636(6)
Ag1F_2 Ag 0.374091(16) 0.761258(11) 0.127364(6)
Ag1G_2 Ag 0.374091(16) 0.738742(11) 0.372636(6)
N3G_2 N 0.37769(18) -0.30638(12) 0.14638(7)
N2U N 0.37464(17) -0.18419(12) -0.15993(6)
N3A N 0.37769(18) -0.30638(12) -0.14638(7)
N2D N 0.37464(17) 0.18419(12) -0.15993(6)
N3I N 0.37769(18) 0.30638(12) -0.14638(7)
loop_
_geom_bond_atom_site_label_1
_geom_bond_atom_site_label_2
_geom_bond_site_symmetry_1
_geom_bond_site_symmetry_2
Ag1 N1 1_555 1_555
C1 C2 1_555 1_555
C2 C10 1_555 1_555
C3 C4 1_555 1_555
C4 C12 1_555 1_555
C5 C1 1_555 1_555
C6 C7 1_555 1_555
C7 C11 1_555 1_555
C8 C6 1_555 1_555
H1 C8 1_555 1_555
C9 H2 1_555 1_555
C10 H3 1_555 1_555
C11 C14 1_555 1_555
C12 C17 1_555 1_555
C13 C1 1_555 1_555
C14 H4 1_555 1_555
C15 C5 1_555 1_555
H5 C15 1_555 1_555
C16 C7 1_555 1_555
C17 H6 1_555 1_555
C18 C4 1_555 1_555
C19 C2 1_555 1_555
H7 C19 1_555 1_555
C20 C16 1_555 1_555
H8 C20 1_555 1_555
C21 C3 1_555 1_555
H9 C21 1_555 1_555
C22 C18 1_555 1_555
H10 C22 1_555 1_555
C23 C22 1_555 1_555
H11 C23 1_555 1_555
C24 C18 1_555 1_555
H12 C24 1_555 1_555
C25 C19 1_555 1_555
H13 C25 1_555 1_555
C26 C10 1_555 1_555
H14 C26 1_555 1_555
C27 C24 1_555 1_555
H15 C27 1_555 1_555
C28 C16 1_555 1_555
H16 C28 1_555 1_555
C29 C20 1_555 1_555
H17 C29 1_555 1_555
C30 C28 1_555 1_555
H18 C30 1_555 1_555
N1 C25 1_555 1_555
N2 Ag1 1_555 1_555
N3 C29 1_555 1_555
N4 C3 1_555 1_555
N5 C13 1_555 1_555
N6 C11 1_555 1_555
N7 C12 1_555 1_555
N8 C5 1_555 1_555
C15F C15 1_555 1_555
C5F N8 1_555 1_555
C1F C5F 1_555 1_555
C2F C1F 1_555 1_555
C10F C2F 1_555 1_555
H3F C10F 1_555 1_555
C26F C10F 1_555 1_555
H14F C26F 1_555 1_555
N1F C26F 1_555 1_555
C25F N1F 1_555 1_555
C19F C2F 1_555 1_555
H7F C19F 1_555 1_555
H13F C25F 1_555 1_555
C13F C1F 1_555 1_555
C9F C13F 1_555 1_555
C9U C9F 1_555 1_555
H2U C9U 1_555 1_555
C13U C9U 1_555 1_555
C1U C13U 1_555 1_555
C2U C1U 1_555 1_555
C10U C2U 1_555 1_555
H3U C10U 1_555 1_555
C26U C10U 1_555 1_555
H14U C26U 1_555 1_555
N1U C26U 1_555 1_555
C25U N1U 1_555 1_555
C19U C2U 1_555 1_555
H7U C19U 1_555 1_555
H13U C25U 1_555 1_555
C5U C1U 1_555 1_555
C15U C5U 1_555 1_555
C15D C15U 1_555 1_555
C5D C15D 1_555 1_555
C1D C5D 1_555 1_555
C2D C1D 1_555 1_555
C10D C2D 1_555 1_555
H3D C10D 1_555 1_555
C26D C10D 1_555 1_555
H14D C26D 1_555 1_555
N1D C26D 1_555 1_555
C25D N1D 1_555 1_555
C19D C2D 1_555 1_555
H7D C19D 1_555 1_555
H13D C25D 1_555 1_555
C13D N5 1_555 1_555
C9D C9 1_555 1_555
H2D C9D 1_555 1_555
N8D C5U 1_555 1_555
H5D C15D 1_555 1_555
H5U C15U 1_555 1_555
N5U C13F 1_555 1_555
H2F C9F 1_555 1_555
H5F C15F 1_555 1_555
C17F C17 1_555 1_555
C12F N7 1_555 1_555
C4F C12F 1_555 1_555
C3F C4F 1_555 1_555
C21F C3F 1_555 1_555
C8F C21F 1_555 1_555
C6F C8F 1_555 1_555
C7F C6F 1_555 1_555
C11F N6 1_555 1_555
C14F C14 1_555 1_555
H4F C14F 1_555 1_555
C16F C7F 1_555 1_555
C20F C16F 1_555 1_555
H8F C20F 1_555 1_555
C29F C20F 1_555 1_555
H17F C29F 1_555 1_555
N3F C29F 1_555 1_555
C30F N3F 1_555 1_555
C28F C16F 1_555 1_555
H16F C28F 1_555 1_555
H18F C30F 1_555 1_555
N4F C3F 1_555 1_555
H1F C8F 1_555 1_555
H9F C21F 1_555 1_555
C18F C4F 1_555 1_555
C22F C18F 1_555 1_555
H10F C22F 1_555 1_555
C23F C22F 1_555 1_555
H11F C23F 1_555 1_555
N2F C23F 1_555 1_555
C27F N2F 1_555 1_555
C24F C18F 1_555 1_555
H12F C24F 1_555 1_555
H15F C27F 1_555 1_555
H6F C17F 1_555 1_555
C3X C4X 1_555 1_555
C4X C12X 1_555 1_555
C6X C7X 1_555 1_555
C7X C11X 1_555 1_555
C8X C6X 1_555 1_555
H1X C8X 1_555 1_555
C11X C14X 1_555 1_555
C12X C17X 1_555 1_555
C14X H4X 1_555 1_555
C16X C7X 1_555 1_555
C17X H6X 1_555 1_555
C18X C4X 1_555 1_555
C20X C16X 1_555 1_555
H8X C20X 1_555 1_555
C21X C3X 1_555 1_555
H9X C21X 1_555 1_555
C22X C18X 1_555 1_555
H10X C22X 1_555 1_555
C23X C22X 1_555 1_555
H11X C23X 1_555 1_555
C24X C18X 1_555 1_555
H12X C24X 1_555 1_555
C27X C24X 1_555 1_555
H15X C27X 1_555 1_555
C28X C16X 1_555 1_555
H16X C28X 1_555 1_555
C29X C20X 1_555 1_555
H17X C29X 1_555 1_555
C30X C28X 1_555 1_555
H18X C30X 1_555 1_555
N2X C23X 1_555 1_555
N3X Ag1 1_555 1_555
N4X C3X 1_555 1_555
N6X C11X 1_555 1_555
N7X C12X 1_555 1_555
C17G C17X 1_555 1_555
C12G N7X 1_555 1_555
C4G C12G 1_555 1_555
C3G C4G 1_555 1_555
C21G C3G 1_555 1_555
C8G C21G 1_555 1_555
C6G C8G 1_555 1_555
C7G C6G 1_555 1_555
C11G N6X 1_555 1_555
C14G C14X 1_555 1_555
H4G C14G 1_555 1_555
C16G C7G 1_555 1_555
C20G C16G 1_555 1_555
H8G C20G 1_555 1_555
C29G C20G 1_555 1_555
H17G C29G 1_555 1_555
N3G C29G 1_555 1_555
C30G N3G 1_555 1_555
C28G C16G 1_555 1_555
H16G C28G 1_555 1_555
H18G C30G 1_555 1_555
N4G C3G 1_555 1_555
H1G C8G 1_555 1_555
H9G C21G 1_555 1_555
C18G C4G 1_555 1_555
C22G C18G 1_555 1_555
H10G C22G 1_555 1_555
C23G C22G 1_555 1_555
H11G C23G 1_555 1_555
N2G C23G 1_555 1_555
C27G N2G 1_555 1_555
C24G C18G 1_555 1_555
H12G C24G 1_555 1_555
H15G C27G 1_555 1_555
H6G C17G 1_555 1_555
Ag1F N1F 1_555 1_555
Ag1U N1U 1_555 1_555
Ag1D N1D 1_555 1_555
Ag1X N3 1_555 1_555
Ag1G N3F 1_555 1_555
Ag1F_2 N3G 1_555 1_555
Ag1G_2 N2G 1_555 1_555
N3G_2 Ag1F 1_555 1_555
N2U Ag1U 1_555 1_555
N3A Ag1U 1_555 1_555
N2D Ag1D 1_555 1_555
N3I Ag1D 1_555 1_555
C6 N4 1_555 1_555
C8 C21 1_555 1_555
C9 C13 1_555 1_555
C23 N2 1_555 1_555
C26 N1 1_555 1_555
C27 N2 1_555 1_555
C30 N3 1_555 1_555
C15F C5F 1_555 1_555
C25F C19F 1_555 1_555
C13U N5U 1_555 1_555
C25U C19U 1_555 1_555
C5D N8D 1_555 1_555
C1D C13D 1_555 1_555
C25D C19D 1_555 1_555
C13D C9D 1_555 1_555
C17F C12F 1_555 1_555
C6F N4F 1_555 1_555
C7F C11F 1_555 1_555
C11F C14F 1_555 1_555
C30F C28F 1_555 1_555
N2F Ag1F 1_555 1_555
C27F C24F 1_555 1_555
C6X N4X 1_555 1_555
C8X C21X 1_555 1_555
C27X N2X 1_555 1_555
C29X N3X 1_555 1_555
C30X N3X 1_555 1_555
N2X Ag1X 1_555 1_555
C17G C12G 1_555 1_555
C6G N4G 1_555 1_555
C7G C11G 1_555 1_555
C11G C14G 1_555 1_555
C30G C28G 1_555 1_555
C27G C24G 1_555 1_555

#END
