
#######################################################################
#
#                 Cambridge Crystallographic Data Centre
#                                CCDC 
#
#######################################################################
#
# If this CIF has been generated from an entry in the Cambridge 
# Structural Database, then it will include bibliographic, chemical, 
# crystal, experimental, refinement or atomic coordinate data resulting 
# from the CCDC's data processing and validation procedures.
#
#######################################################################

data_TUSLEY
_symmetry_cell_setting           monoclinic
_symmetry_space_group_name_H-M   'P 21/c'
_symmetry_Int_Tables_number      14
_space_group_name_Hall           '-P 2ybc'
loop_
_symmetry_equiv_pos_site_id
_symmetry_equiv_pos_as_xyz
1 x,y,z
2 x,1/2-y,1/2+z
3 -x,-y,-z
4 -x,1/2+y,1/2-z
_cell_length_a                   11.7082(7)
_cell_length_b                   16.282(1)
_cell_length_c                   12.1906(7)
_cell_angle_alpha                90
_cell_angle_beta                 98.729(1)
_cell_angle_gamma                90
_cell_volume                     2297.01
loop_
_atom_site_label
_atom_site_type_symbol
_atom_site_fract_x
_atom_site_fract_y
_atom_site_fract_z
Cd1 Cd 0.59098(2) 0.327022(14) 0.60177(2)
S1 S 0.66836(9) 0.19644(6) 0.69152(8)
S2 S 0.44393(8) 0.35250(6) 0.43534(8)
O1 O 0.7358(2) 0.2281(2) 0.5025(2)
O2 O 0.3617(2) 0.2805(2) 0.5952(2)
N1 N 0.7440(2) 0.4130(2) 0.5724(2)
C1 C 0.7453(3) 0.4511(3) 0.4785(4)
H1 H 0.6764(3) 0.4545(3) 0.4294(4)
C2 C 0.8426(3) 0.4866(3) 0.4475(4)
H2 H 0.8376(3) 0.5131(3) 0.3794(4)
C3 C 0.9457(3) 0.4830(2) 0.5160(3)
C4 C 0.9421(4) 0.4472(4) 0.6153(3)
H3 H 1.0086(4) 0.4456(4) 0.6679(3)
C5 C 0.8414(4) 0.4132(4) 0.6398(3)
H4 H 0.8431(4) 0.3887(4) 0.7090(3)
N2 N 0.5524(2) 0.4001(2) 0.7544(2)
C6 C 0.5117(3) 0.3595(2) 0.8353(3)
H5 H 0.4976(3) 0.3035(2) 0.8264(3)
C7 C 0.4898(3) 0.3963(2) 0.9309(3)
H6 H 0.4611(3) 0.3654(2) 0.9847(3)
C8 C 0.5100(2) 0.4791(2) 0.9477(2)
C9 C 0.5512(3) 0.5211(2) 0.8629(3)
H7 H 0.5656(3) 0.5772(2) 0.8694(3)
C10 C 0.5706(3) 0.4804(2) 0.7699(3)
H8 H 0.5981(3) 0.5101(2) 0.7143(3)
C11 C 0.7321(3) 0.1761(2) 0.5744(3)
C12 C 0.3385(3) 0.3098(2) 0.5015(3)
C13 C 0.7788(3) 0.0926(2) 0.5595(4)
C14 C 0.7716(4) 0.0303(3) 0.6334(4)
H9 H 0.7417(4) 0.0403(3) 0.6985(4)
C15 C 0.8099(5) -0.0493(3) 0.6106(7)
H10 H 0.8045(5) -0.0922(3) 0.6599(7)
C16 C 0.8542(6) -0.0621(4) 0.5162(9)
H11 H 0.8802(6) -0.1144(4) 0.5016(9)
C17 C 0.8620(5) 0.0000(4) 0.4408(7)
H12 H 0.8926(5) -0.0103(4) 0.3760(7)
C18 C 0.8235(4) 0.0778(3) 0.4630(5)
H13 H 0.8279(4) 0.1202(3) 0.4127(5)
C19 C 0.2174(3) 0.3056(2) 0.4420(3)
C20 C 0.1309(3) 0.2867(2) 0.5034(4)
H14 H 0.1493(3) 0.2775(2) 0.5793(4)
C21 C 0.0167(4) 0.2812(3) 0.4524(6)
H15 H -0.0410(4) 0.2679(3) 0.4941(6)
C22 C -0.0105(4) 0.2952(3) 0.3419(7)
H16 H -0.0869(4) 0.2907(3) 0.3077(7)
C23 C 0.0733(5) 0.3158(3) 0.2805(5)
H17 H 0.0533(5) 0.3267(3) 0.2051(5)
C24 C 0.1888(4) 0.3205(3) 0.3297(4)
H18 H 0.2459(4) 0.3337(3) 0.2873(4)
C3B C 1.0543(3) 0.5170(2) 0.4840(3)
C2B C 1.1574(3) 0.5134(3) 0.5525(4)
C1B C 1.2547(3) 0.5489(3) 0.5215(4)
N1B N 1.2560(2) 0.5870(2) 0.4276(2)
C5B C 1.1586(4) 0.5868(4) 0.3602(3)
C4B C 1.0579(4) 0.5528(4) 0.3847(3)
H3B H 0.9914(4) 0.5544(4) 0.3321(3)
H4B H 1.1569(4) 0.6113(4) 0.2910(3)
H1B H 1.3236(3) 0.5455(3) 0.5706(4)
H2B H 1.1624(3) 0.4869(3) 0.6206(4)
C8B C 0.4900(2) 0.5209(2) 1.0523(2)
C7B C 0.5102(3) 0.6037(2) 1.0691(3)
C6B C 0.4883(3) 0.6405(2) 1.1647(3)
N2B N 0.4476(2) 0.5999(2) 1.2456(2)
C10B C 0.4294(3) 0.5196(2) 1.2301(3)
C9B C 0.4488(3) 0.4789(2) 1.1371(3)
H7B H 0.4344(3) 0.4228(2) 1.1306(3)
H8B H 0.4019(3) 0.4899(2) 1.2857(3)
H5B H 0.5024(3) 0.6965(2) 1.1736(3)
H6B H 0.5389(3) 0.6346(2) 1.0153(3)
Cd1B Cd 1.40902(2) 0.672978(14) 0.39823(2)
S1B S 1.33164(9) 0.80356(6) 0.30848(8)
O1B O 1.2642(2) 0.7719(2) 0.4975(2)
C11B C 1.2679(3) 0.8239(2) 0.4256(3)
C13B C 1.2212(3) 0.9074(2) 0.4405(4)
C14B C 1.2284(4) 0.9697(3) 0.3666(4)
H9B H 1.2583(4) 0.9597(3) 0.3015(4)
C15B C 1.1901(5) 1.0493(3) 0.3894(7)
H10B H 1.1955(5) 1.0922(3) 0.3401(7)
C16B C 1.1458(6) 1.0621(4) 0.4838(9)
H11B H 1.1198(6) 1.1144(4) 0.4984(9)
C17B C 1.1380(5) 1.0000(4) 0.5592(7)
H12B H 1.1074(5) 1.0103(4) 0.6240(7)
C18B C 1.1765(4) 0.9222(3) 0.5370(5)
H13B H 1.1721(4) 0.8798(3) 0.5873(5)
S2B S 1.55607(8) 0.64750(6) 0.56466(8)
O2B O 1.6383(2) 0.7195(2) 0.4048(2)
C12B C 1.6615(3) 0.6902(2) 0.4985(3)
C19B C 1.7826(3) 0.6944(2) 0.5580(3)
C20B C 1.8691(3) 0.7133(2) 0.4966(4)
H14B H 1.8507(3) 0.7225(2) 0.4207(4)
C21B C 1.9833(4) 0.7188(3) 0.5476(6)
H15B H 2.0410(4) 0.7321(3) 0.5059(6)
C22B C 2.0105(4) 0.7048(3) 0.6581(7)
H16B H 2.0869(4) 0.7093(3) 0.6923(7)
C23B C 1.9267(5) 0.6842(3) 0.7195(5)
H17B H 1.9467(5) 0.6733(3) 0.7949(5)
C24B C 1.8112(4) 0.6795(3) 0.6703(4)
H18B H 1.7541(4) 0.6663(3) 0.7127(4)
Cd1B_2 Cd 0.40902(2) 0.672978(14) 1.39823(2)
N2B_2 N 1.4476(2) 0.5999(2) 0.2456(2)
loop_
_geom_bond_atom_site_label_1
_geom_bond_atom_site_label_2
_geom_bond_site_symmetry_1
_geom_bond_site_symmetry_2
Cd1 S1 1_555 1_555
S1 C11 1_555 1_555
S2 Cd1 1_555 1_555
O1 Cd1 1_555 1_555
O2 C12 1_555 1_555
N1 Cd1 1_555 1_555
C1 N1 1_555 1_555
H1 C1 1_555 1_555
C2 C1 1_555 1_555
H2 C2 1_555 1_555
C3 C2 1_555 1_555
C4 C3 1_555 1_555
H3 C4 1_555 1_555
C5 N1 1_555 1_555
H4 C5 1_555 1_555
N2 Cd1 1_555 1_555
C6 N2 1_555 1_555
H5 C6 1_555 1_555
C7 C6 1_555 1_555
H6 C7 1_555 1_555
C8 C7 1_555 1_555
C9 C8 1_555 1_555
H7 C9 1_555 1_555
C10 N2 1_555 1_555
H8 C10 1_555 1_555
C11 O1 1_555 1_555
C12 S2 1_555 1_555
C13 C11 1_555 1_555
C14 C13 1_555 1_555
H9 C14 1_555 1_555
C15 C14 1_555 1_555
H10 C15 1_555 1_555
C16 C15 1_555 1_555
H11 C16 1_555 1_555
C17 C16 1_555 1_555
H12 C17 1_555 1_555
C18 C13 1_555 1_555
H13 C18 1_555 1_555
C19 C12 1_555 1_555
C20 C19 1_555 1_555
H14 C20 1_555 1_555
C21 C20 1_555 1_555
H15 C21 1_555 1_555
C22 C21 1_555 1_555
H16 C22 1_555 1_555
C23 C22 1_555 1_555
H17 C23 1_555 1_555
C24 C19 1_555 1_555
H18 C24 1_555 1_555
C3B C3 1_555 1_555
C2B C3B 1_555 1_555
C1B C2B 1_555 1_555
N1B C1B 1_555 1_555
C5B N1B 1_555 1_555
C4B C3B 1_555 1_555
H3B C4B 1_555 1_555
H4B C5B 1_555 1_555
H1B C1B 1_555 1_555
H2B C2B 1_555 1_555
C8B C8 1_555 1_555
C7B C8B 1_555 1_555
C6B C7B 1_555 1_555
N2B C6B 1_555 1_555
C10B N2B 1_555 1_555
C9B C8B 1_555 1_555
H7B C9B 1_555 1_555
H8B C10B 1_555 1_555
H5B C6B 1_555 1_555
H6B C7B 1_555 1_555
Cd1B N1B 1_555 1_555
S1B Cd1B 1_555 1_555
O1B Cd1B 1_555 1_555
C11B S1B 1_555 1_555
C13B C11B 1_555 1_555
C14B C13B 1_555 1_555
H9B C14B 1_555 1_555
C15B C14B 1_555 1_555
H10B C15B 1_555 1_555
C16B C15B 1_555 1_555
H11B C16B 1_555 1_555
C17B C16B 1_555 1_555
H12B C17B 1_555 1_555
C18B C13B 1_555 1_555
H13B C18B 1_555 1_555
S2B Cd1B 1_555 1_555
O2B C12B 1_555 1_555
C12B S2B 1_555 1_555
C19B C12B 1_555 1_555
C20B C19B 1_555 1_555
H14B C20B 1_555 1_555
C21B C20B 1_555 1_555
H15B C21B 1_555 1_555
C22B C21B 1_555 1_555
H16B C22B 1_555 1_555
C23B C22B 1_555 1_555
H17B C23B 1_555 1_555
C24B C19B 1_555 1_555
H18B C24B 1_555 1_555
Cd1B_2 N2B 1_555 1_555
N2B_2 Cd1B 1_555 1_555
C4 C5 1_555 1_555
C9 C10 1_555 1_555
C17 C18 1_555 1_555
C23 C24 1_555 1_555
C5B C4B 1_555 1_555
C10B C9B 1_555 1_555
O1B C11B 1_555 1_555
C17B C18B 1_555 1_555
C23B C24B 1_555 1_555

#END
