
#######################################################################
#
#                 Cambridge Crystallographic Data Centre
#                                CCDC 
#
#######################################################################
#
# If this CIF has been generated from an entry in the Cambridge 
# Structural Database, then it will include bibliographic, chemical, 
# crystal, experimental, refinement or atomic coordinate data resulting 
# from the CCDC's data processing and validation procedures.
#
#######################################################################

data_TUTBEP
_symmetry_cell_setting           monoclinic
_symmetry_space_group_name_H-M   'P 21/c'
_symmetry_Int_Tables_number      14
_space_group_name_Hall           '-P 2ybc'
loop_
_symmetry_equiv_pos_site_id
_symmetry_equiv_pos_as_xyz
1 x,y,z
2 x,1/2-y,1/2+z
3 -x,-y,-z
4 -x,1/2+y,1/2-z
_cell_length_a                   14.4167(8)
_cell_length_b                   9.9921(5)
_cell_length_c                   9.9897(5)
_cell_angle_alpha                90
_cell_angle_beta                 97.0340(10)
_cell_angle_gamma                90
_cell_volume                     1428.22
loop_
_atom_site_label
_atom_site_type_symbol
_atom_site_fract_x
_atom_site_fract_y
_atom_site_fract_z
Ag1 Ag 0.00000(2) 0.26173(2) 0.05763(3)
Ag2 Ag -0.00410(2) 0.44174(3) -0.23888(3)
Ag3 Ag 0.18018(2) 0.49780(3) 0.02617(3)
F1 F 0.0000 0.5000 0.0000
C1 C -0.0013(3) 0.0383(4) 0.0391(4)
O1 O -0.1272(2) 0.1987(3) 0.3344(3)
O2 O -0.12342(19) 0.3568(3) 0.1757(3)
C2 C -0.1576(2) 0.2966(4) 0.2660(4)
C3 C -0.2543(4) 0.3487(4) 0.2940(4)
F2 F -0.2622(4) 0.4791(4) 0.2764(6)
F3 F -0.3220(2) 0.2905(6) 0.2121(6)
F4 F -0.2707(3) 0.3246(4) 0.4187(4)
O3 O 0.12367(19) 0.1966(3) 0.3757(3)
O4 O 0.12612(19) 0.3552(3) 0.2182(3)
C4 C 0.1580(2) 0.2913(3) 0.3205(4)
C5 C 0.2550(3) 0.3359(4) 0.3849(4)
F5 F 0.3209(2) 0.2742(6) 0.3265(7)
F6 F 0.2687(4) 0.3089(5) 0.5145(4)
F7 F 0.2693(3) 0.4653(3) 0.3734(5)
N1 N 0.3366(3) 0.5133(5) 0.0753(6)
C6 C 0.4069(4) 0.5377(8) 0.1255(8)
C7 C 0.4999(5) 0.5696(15) 0.1917(12)
C8 C 0.5070(6) 0.5770(16) 0.3330(12)
C1B C 0.0013(3) -0.0383(4) -0.0391(4)
Ag1B Ag 0.00000(2) 0.73827(2) -0.05763(3)
Ag2B Ag 0.00410(2) 0.55826(3) 0.23888(3)
Ag3B Ag -0.18018(2) 0.50220(3) -0.02617(3)
O1A O -0.1272(2) 0.3013(3) -0.1656(3)
O2A O -0.12342(19) 0.1432(3) -0.3243(3)
C2A C -0.1576(2) 0.2034(4) -0.2340(4)
C3A C -0.2543(4) 0.1513(4) -0.2060(4)
F2A F -0.2622(4) 0.0209(4) -0.2236(6)
F3A F -0.3220(2) 0.2095(6) -0.2879(6)
F4A F -0.2707(3) 0.1754(4) -0.0813(4)
O3A O 0.12367(19) 0.3034(3) -0.1243(3)
O4A O 0.12612(19) 0.1448(3) -0.2818(3)
C4A C 0.1580(2) 0.2087(3) -0.1795(4)
C5A C 0.2550(3) 0.1641(4) -0.1151(4)
F5A F 0.3209(2) 0.2258(6) -0.1735(7)
F6A F 0.2687(4) 0.1911(5) 0.0145(4)
F7A F 0.2693(3) 0.0347(3) -0.1266(5)
N1B N -0.3366(3) 0.4867(5) -0.0753(6)
C6B C -0.4069(4) 0.4623(8) -0.1255(8)
C7B C -0.4999(5) 0.4304(15) -0.1917(12)
C8B C -0.5070(6) 0.4230(16) -0.3330(12)
Ag2A Ag -0.00410(2) 0.05826(3) 0.26112(3)
Ag1A Ag 0.00000(2) 0.23827(2) -0.44237(3)
C1A C -0.0013(3) 0.4617(4) -0.4609(4)
O1C O 0.1272(2) 0.6987(3) 0.1656(3)
O2B O 0.12342(19) 0.6432(3) -0.1757(3)
Ag3C Ag -0.18018(2) -0.00220(3) 0.47383(3)
Ag3A Ag 0.18018(2) 0.00220(3) 0.52617(3)
Ag1B_2 Ag 0.00000(2) -0.26173(2) -0.05763(3)
Ag2C Ag 0.00410(2) -0.05826(3) -0.26112(3)
Ag2C_2 Ag 0.00410(2) 0.94174(3) -0.26112(3)
C1B_2 C 0.0013(3) 0.9617(4) -0.0391(4)
O4B O -0.12612(19) 0.6448(3) -0.2182(3)
Ag1C Ag 0.00000(2) 0.76173(2) 0.44237(3)
C1C C 0.0013(3) 0.5383(4) 0.4609(4)
O3C O -0.12367(19) 0.6966(3) 0.1243(3)
Ag3C_2 Ag -0.18018(2) -0.00220(3) -0.52617(3)
Ag3A_2 Ag 0.18018(2) 0.00220(3) -0.47383(3)
loop_
_geom_bond_atom_site_label_1
_geom_bond_atom_site_label_2
_geom_bond_site_symmetry_1
_geom_bond_site_symmetry_2
Ag1 F1 1_555 1_555
Ag2 F1 1_555 1_555
Ag3 F1 1_555 1_555
F1 Ag1B 1_555 1_555
C1 Ag1 1_555 1_555
O1 C2 1_555 1_555
O2 Ag1 1_555 1_555
C2 O2 1_555 1_555
C3 C2 1_555 1_555
F2 C3 1_555 1_555
F3 C3 1_555 1_555
F4 C3 1_555 1_555
O3 C4 1_555 1_555
O4 Ag1 1_555 1_555
C4 O4 1_555 1_555
C5 C4 1_555 1_555
F5 C5 1_555 1_555
F6 C5 1_555 1_555
F7 C5 1_555 1_555
N1 Ag3 1_555 1_555
C6 N1 1_555 1_555
C7 C6 1_555 1_555
C8 C7 1_555 1_555
C1B C1 1_555 1_555
Ag1B O2B 1_555 1_555
Ag2B F1 1_555 1_555
Ag3B F1 1_555 1_555
O1A Ag2 1_555 1_555
O2A C2A 1_555 1_555
C2A O1A 1_555 1_555
C3A C2A 1_555 1_555
F2A C3A 1_555 1_555
F3A C3A 1_555 1_555
F4A C3A 1_555 1_555
O3A Ag2 1_555 1_555
O4A C4A 1_555 1_555
C4A O3A 1_555 1_555
C5A C4A 1_555 1_555
F5A C5A 1_555 1_555
F6A C5A 1_555 1_555
F7A C5A 1_555 1_555
N1B Ag3B 1_555 1_555
C6B N1B 1_555 1_555
C7B C6B 1_555 1_555
C8B C7B 1_555 1_555
Ag2A Ag1 1_555 1_555
Ag1A Ag2 1_555 1_555
C1A Ag2 1_555 1_555
O1C Ag3 1_555 1_555
O2B Ag3 1_555 1_555
Ag3C O1 1_555 1_555
Ag3A O3 1_555 1_555
Ag1B_2 C1B 1_555 1_555
Ag2C C1B 1_555 1_555
Ag2C_2 Ag1B 1_555 1_555
C1B_2 Ag1B 1_555 1_555
O4B Ag1B 1_555 1_555
Ag1C Ag2B 1_555 1_555
C1C Ag2B 1_555 1_555
O3C Ag2B 1_555 1_555
Ag3C_2 O2A 1_555 1_555
Ag3A_2 O4A 1_555 1_555
Ag3 O4 1_555 1_555
Ag3 O3A 1_555 1_555
C1 Ag2A 1_555 1_555
O1 Ag2A 1_555 1_555
O2 Ag3B 1_555 1_555
O3 Ag2A 1_555 1_555
Ag2B O1C 1_555 1_555
Ag3B O1A 1_555 1_555
Ag3B O3C 1_555 1_555
Ag3B O4B 1_555 1_555
O2A Ag1A 1_555 1_555
O4A Ag1A 1_555 1_555
Ag1A C1A 1_555 1_555
Ag1B_2 Ag2C 1_555 1_555
Ag2C_2 C1B_2 1_555 1_555
Ag1C C1C 1_555 1_555

#END
