
#######################################################################
#
#                 Cambridge Crystallographic Data Centre
#                                CCDC 
#
#######################################################################
#
# If this CIF has been generated from an entry in the Cambridge 
# Structural Database, then it will include bibliographic, chemical, 
# crystal, experimental, refinement or atomic coordinate data resulting 
# from the CCDC's data processing and validation procedures.
#
#######################################################################

data_TUTGUL
_symmetry_cell_setting           monoclinic
_symmetry_space_group_name_H-M   'I 2/a'
_symmetry_Int_Tables_number      15
_space_group_name_Hall           '-I 2ya'
loop_
_symmetry_equiv_pos_site_id
_symmetry_equiv_pos_as_xyz
1 x,y,z
2 1/2-x,y,-z
3 1/2+x,1/2+y,1/2+z
4 -x,1/2+y,1/2-z
5 -x,-y,-z
6 1/2+x,-y,z
7 1/2-x,1/2-y,1/2-z
8 x,1/2-y,1/2+z
_cell_length_a                   16.386(5)
_cell_length_b                   14.990(3)
_cell_length_c                   18.184(6)
_cell_angle_alpha                90
_cell_angle_beta                 114.567(5)
_cell_angle_gamma                90
_cell_volume                     4062.14
loop_
_atom_site_label
_atom_site_type_symbol
_atom_site_fract_x
_atom_site_fract_y
_atom_site_fract_z
Mn1 Mn 0.72725(4) 0.10682(4) 0.27161(4)
O1 O 1.12436(18) 0.52014(18) 0.78493(18)
O2 O 1.22603(17) 0.44901(18) 0.75757(17)
O3 O 0.81643(17) 0.23095(18) 0.70549(19)
O4 O 0.83997(18) 0.37264(18) 0.74510(19)
C1 C 1.0951(3) 0.3682(3) 0.7449(2)
N1 N 0.8232(2) 0.0938(2) 0.4029(2)
N2 N 1.0961(2) 0.1388(2) 0.6700(2)
H1 H 1.1481 0.1368 0.6700
C2 C 0.9548(3) 0.2972(3) 0.7234(2)
C3 C 1.1231(3) 0.2900(3) 0.7216(3)
H2 H 1.1799 0.2878 0.7217
C4 C 1.0682(3) 0.2150(3) 0.6980(3)
C5 C 1.1525(3) 0.4498(3) 0.7642(2)
N3 N 0.6339(3) 0.1116(2) 0.1382(2)
C6 C 1.0106(3) 0.3719(2) 0.7460(2)
H3 H 0.9915 0.4241 0.7617
C7 C 0.9831(3) 0.2201(3) 0.6986(3)
H4 H 0.9450 0.1710 0.6822
C8 C 0.6068(6) 0.1054(5) -0.0010(4)
H5 H 0.6299 0.0991 -0.0396
C9 C 1.0364(3) 0.0631(3) 0.6423(3)
H6 H 1.0100 0.0521 0.6802
H7 H 1.0712 0.0108 0.6420
C10 C 0.8638(3) 0.3005(3) 0.7250(3)
C11 C 0.9619(3) 0.0753(3) 0.5586(3)
C12 C 0.8254(3) 0.0259(4) 0.4512(3)
H8 H 0.7798 -0.0164 0.4319
C13 C 0.9608(3) 0.1440(3) 0.5085(3)
H9 H 1.0070 0.1858 0.5256
C14 C 0.8920(3) 0.0154(3) 0.5287(3)
H10 H 0.8895 -0.0323 0.5604
C15 C 0.8915(4) 0.1512(3) 0.4330(3)
H11 H 0.8922 0.1991 0.4008
C16 C 0.5459(4) 0.1210(3) 0.1133(4)
H12 H 0.5234 0.1262 0.1524
C17 C 0.4860(4) 0.1235(4) 0.0333(4)
H13 H 0.4248 0.1300 0.0189
C19 C 0.6632(4) 0.1035(4) 0.0803(4)
H15 H 0.7245 0.0962 0.0953
C20 C 0.5186(6) 0.1163(4) -0.0238(4)
H16 H 0.4800 0.1189 -0.0784
Mn1A Mn 0.77275(4) 0.10682(4) 0.72839(4)
Mn1B Mn 1.22725(4) 0.60682(4) 0.77161(4)
Mn1C Mn 0.27275(4) 0.60682(4) 0.22839(4)
Mn1F Mn 0.77275(4) 0.39318(4) 0.22839(4)
Mn1G Mn 0.72725(4) 0.39318(4) 0.77161(4)
O1A O 0.37564(18) 0.52014(18) 0.21507(18)
O1B O 0.62436(18) 0.02014(18) 0.28493(18)
O1C O 0.87564(18) 0.02014(18) 0.71507(18)
O2A O 0.27397(17) 0.44901(18) 0.24243(17)
O2B O 0.72603(17) -0.05099(18) 0.25757(17)
O2C O 0.77397(17) -0.05099(18) 0.74243(17)
O3A O 0.68357(17) 0.23095(18) 0.29451(19)
O4A O 0.66003(18) 0.37264(18) 0.25490(19)
O4F O 0.66003(18) 0.12736(18) 0.75490(19)
O4G O 0.83997(18) 0.12736(18) 0.24510(19)
C1A C 0.4049(3) 0.3682(3) 0.2551(2)
N1A N 0.6768(2) 0.0938(2) 0.5971(2)
N2A N 0.4039(2) 0.1388(2) 0.3300(2)
H1A H 0.3519 0.1368 0.3300
C2A C 0.5452(3) 0.2972(3) 0.2766(2)
C3A C 0.3769(3) 0.2900(3) 0.2784(3)
H2A H 0.3201 0.2878 0.2783
C4A C 0.4318(3) 0.2150(3) 0.3020(3)
C5A C 0.3475(3) 0.4498(3) 0.2358(2)
N3A N 0.8661(3) 0.1116(2) 0.8618(2)
C6A C 0.4894(3) 0.3719(2) 0.2540(2)
H3A H 0.5085 0.4241 0.2383
C7A C 0.5169(3) 0.2201(3) 0.3014(3)
H4A H 0.5550 0.1710 0.3178
C8A C 0.8932(6) 0.1054(5) 1.0010(4)
H5A H 0.8701 0.0991 1.0396
C9A C 0.4636(3) 0.0631(3) 0.3577(3)
H6A H 0.4900 0.0521 0.3198
H7A H 0.4288 0.0108 0.3580
C10A C 0.6362(3) 0.3005(3) 0.2750(3)
C11A C 0.5381(3) 0.0753(3) 0.4414(3)
C12A C 0.6746(3) 0.0259(4) 0.5488(3)
H8A H 0.7202 -0.0164 0.5681
C13A C 0.5392(3) 0.1440(3) 0.4915(3)
H9A H 0.4930 0.1858 0.4744
C14A C 0.6080(3) 0.0154(3) 0.4713(3)
H10A H 0.6105 -0.0323 0.4396
C15A C 0.6085(4) 0.1512(3) 0.5670(3)
H11A H 0.6078 0.1991 0.5992
C16A C 0.9541(4) 0.1210(3) 0.8867(4)
H12A H 0.9766 0.1262 0.8476
C17A C 1.0140(4) 0.1235(4) 0.9667(4)
H13A H 1.0752 0.1300 0.9811
C19A C 0.8368(4) 0.1035(4) 0.9197(4)
H15A H 0.7755 0.0962 0.9047
C20A C 0.9814(6) 0.1163(4) 1.0238(4)
H16A H 1.0200 0.1189 1.0784
C18 C 0.7658(11) 0.7829(14) 0.0673(9)
H14 H 0.7754 0.7527 0.1148
N4 N 0.7500 0.9301(10) 0.0000
C21 C 0.7687(8) 0.8769(15) 0.0693(7)
H17 H 0.7835 0.9053 0.1187
C22 C 0.7500 0.7340(17) 0.0000
H18 H 0.7500 0.6719 0.0000
C18A C 0.7342(11) 0.7829(14) -0.0673(9)
H14A H 0.7246 0.7527 -0.1148
C21A C 0.7313(8) 0.8769(15) -0.0693(7)
H17A H 0.7165 0.9053 -0.1187
loop_
_geom_bond_atom_site_label_1
_geom_bond_atom_site_label_2
_geom_bond_site_symmetry_1
_geom_bond_site_symmetry_2
Mn1 N1 1_555 1_555
O1 C5 1_555 1_555
O2 C5 1_555 1_555
O3 C10 1_555 1_555
O4 C10 1_555 1_555
C1 C3 1_555 1_555
N1 C12 1_555 1_555
N2 H1 1_555 1_555
C2 C6 1_555 1_555
C3 H2 1_555 1_555
C4 N2 1_555 1_555
C5 C1 1_555 1_555
N3 Mn1 1_555 1_555
C6 C1 1_555 1_555
H3 C6 1_555 1_555
C7 C2 1_555 1_555
H4 C7 1_555 1_555
C8 H5 1_555 1_555
C9 N2 1_555 1_555
H6 C9 1_555 1_555
H7 C9 1_555 1_555
C10 C2 1_555 1_555
C11 C9 1_555 1_555
C12 H8 1_555 1_555
C13 C11 1_555 1_555
H9 C13 1_555 1_555
C14 C11 1_555 1_555
H10 C14 1_555 1_555
C15 N1 1_555 1_555
H11 C15 1_555 1_555
C16 N3 1_555 1_555
H12 C16 1_555 1_555
C17 C16 1_555 1_555
H13 C17 1_555 1_555
C18 H14 1_555 1_555
C19 N3 1_555 1_555
H15 C19 1_555 1_555
C20 C8 1_555 1_555
H16 C20 1_555 1_555
N4 C21 1_555 1_555
C21 C18 1_555 1_555
H17 C21 1_555 1_555
C22 C18 1_555 1_555
H18 C22 1_555 1_555
Mn1A O3 1_555 1_555
Mn1B O1 1_555 1_555
Mn1C O1A 1_555 1_555
Mn1F O4A 1_555 1_555
Mn1G O4 1_555 1_555
O1A C5A 1_555 1_555
O1B Mn1 1_555 1_555
O1C Mn1A 1_555 1_555
O2A Mn1C 1_555 1_555
O2B Mn1 1_555 1_555
O2C Mn1A 1_555 1_555
O3A Mn1 1_555 1_555
O4A C10A 1_555 1_555
O4F Mn1A 1_555 1_555
O4G Mn1 1_555 1_555
C1A C3A 1_555 1_555
N1A Mn1A 1_555 1_555
N2A H1A 1_555 1_555
C2A C6A 1_555 1_555
C3A H2A 1_555 1_555
C4A N2A 1_555 1_555
C5A O2A 1_555 1_555
N3A Mn1A 1_555 1_555
C6A C1A 1_555 1_555
H3A C6A 1_555 1_555
C7A C2A 1_555 1_555
H4A C7A 1_555 1_555
C8A H5A 1_555 1_555
C9A N2A 1_555 1_555
H6A C9A 1_555 1_555
H7A C9A 1_555 1_555
C10A O3A 1_555 1_555
C11A C9A 1_555 1_555
C12A N1A 1_555 1_555
H8A C12A 1_555 1_555
C13A C11A 1_555 1_555
H9A C13A 1_555 1_555
C14A C11A 1_555 1_555
H10A C14A 1_555 1_555
C15A N1A 1_555 1_555
H11A C15A 1_555 1_555
C16A N3A 1_555 1_555
H12A C16A 1_555 1_555
C17A C16A 1_555 1_555
H13A C17A 1_555 1_555
C18A C22 1_555 1_555
H14A C18A 1_555 1_555
C19A N3A 1_555 1_555
H15A C19A 1_555 1_555
C20A C8A 1_555 1_555
H16A C20A 1_555 1_555
C21A N4 1_555 1_555
H17A C21A 1_555 1_555
O2 Mn1B 1_555 1_555
C3 C4 1_555 1_555
C4 C7 1_555 1_555
C8 C19 1_555 1_555
C12 C14 1_555 1_555
C13 C15 1_555 1_555
C17 C20 1_555 1_555
C1A C5A 1_555 1_555
C2A C10A 1_555 1_555
C3A C4A 1_555 1_555
C4A C7A 1_555 1_555
C8A C19A 1_555 1_555
C12A C14A 1_555 1_555
C13A C15A 1_555 1_555
C17A C20A 1_555 1_555
C18A C21A 1_555 1_555

#END
