
#######################################################################
#
#                 Cambridge Crystallographic Data Centre
#                                CCDC 
#
#######################################################################
#
# If this CIF has been generated from an entry in the Cambridge 
# Structural Database, then it will include bibliographic, chemical, 
# crystal, experimental, refinement or atomic coordinate data resulting 
# from the CCDC's data processing and validation procedures.
#
#######################################################################

data_TUTHOG
_symmetry_cell_setting           monoclinic
_symmetry_space_group_name_H-M   'C 2/c'
_symmetry_Int_Tables_number      15
_space_group_name_Hall           '-C 2yn'
loop_
_symmetry_equiv_pos_site_id
_symmetry_equiv_pos_as_xyz
1 x,y,z
2 -x,y,1/2-z
3 1/2+x,1/2+y,z
4 1/2-x,1/2+y,1/2-z
5 -x,-y,-z
6 x,-y,1/2+z
7 1/2-x,1/2-y,-z
8 1/2+x,1/2-y,1/2+z
_cell_length_a                   18.596(6)
_cell_length_b                   15.005(5)
_cell_length_c                   16.246(4)
_cell_angle_alpha                90
_cell_angle_beta                 113.042(5)
_cell_angle_gamma                90
_cell_volume                     4171.51
loop_
_atom_site_label
_atom_site_type_symbol
_atom_site_fract_x
_atom_site_fract_y
_atom_site_fract_z
Mn1 Mn 0.77691(6) 0.61005(6) 0.04752(6)
O1 O 0.7376(3) 0.9568(3) 0.4653(3)
O2 O 0.7110(3) 1.0237(3) 0.3363(3)
O3 O 0.7439(3) 0.8668(3) 0.0881(3)
O4 O 0.8017(3) 0.7343(3) 0.1109(3)
C1 C 0.7478(4) 0.8722(4) 0.2603(4)
H1 H 0.7300 0.9221 0.2241
N2 N 0.8250(4) 0.6462(4) 0.4226(4)
H2 H 0.8233 0.6465 0.4747
N3 N 1.0949(4) 0.5946(4) 0.4261(4)
C2 C 0.7717(4) 0.7972(4) 0.2273(4)
C3 C 0.7996(4) 0.7201(4) 0.3684(4)
C4 C 0.9865(5) 0.6395(5) 0.4575(5)
H3 H 0.9680 0.6789 0.4889
C5 C 0.7505(4) 0.8728(4) 0.3473(4)
C6 C 0.7988(4) 0.7224(4) 0.2814(4)
H4 H 0.8166 0.6734 0.2598
C7 C 0.7311(4) 0.9550(4) 0.3854(4)
O5 O 0.6541(4) 0.6216(4) 0.0280(5)
C8 C 0.9377(4) 0.5786(4) 0.4035(4)
C9 C 0.7762(4) 0.7964(4) 0.4003(4)
H5 H 0.7775 0.7966 0.4581
C10 C 0.7721(4) 0.7992(4) 0.1350(4)
C11 C 0.9699(4) 0.5270(4) 0.3602(4)
H6 H 0.9398 0.4833 0.3214
C12 C 0.8542(4) 0.5687(4) 0.3935(5)
H7 H 0.8217 0.5572 0.3312
H8 H 0.8501 0.5176 0.4280
C14 C 1.0630(4) 0.6445(4) 0.4671(5)
H9 H 1.0944 0.6872 0.5062
C16 C 1.0476(4) 0.5375(4) 0.3724(5)
H13 H 1.0669 0.5009 0.3395
C17 C 0.6021(4) 0.6148(5) -0.0367(4)
H14 H 0.6114 0.6065 -0.0884
N4 N 0.5229(5) 0.6177(5) -0.0460(5)
C20 C 0.5081(5) 0.6290(4) 0.0321(4)
H17 H 0.4527 0.6295 0.0167
H18 H 0.5302 0.6844 0.0602
H19 H 0.5313 0.5808 0.0727
C21 C 0.4643(4) 0.6153(4) -0.1335(4)
H20 H 0.4137 0.6173 -0.1306
H21 H 0.4691 0.5612 -0.1626
H22 H 0.4702 0.6656 -0.1668
Mn1A Mn 1.22309(6) 0.61005(6) 0.45248(6)
Mn1B Mn 1.27691(6) 1.11005(6) 0.04752(6)
Mn1C Mn 0.72309(6) 1.11005(6) 0.45248(6)
Mn1F Mn 0.72309(6) 0.88995(6) -0.04752(6)
Mn1G Mn 1.27691(6) 0.88995(6) 0.54752(6)
O1A O 1.2624(3) 0.9568(3) 0.0347(3)
O1B O 1.2376(3) 0.4568(3) 0.4653(3)
O1C O 0.7624(3) 0.4568(3) 0.0347(3)
O2A O 1.2890(3) 1.0237(3) 0.1637(3)
O2B O 1.2110(3) 0.5237(3) 0.3363(3)
O2C O 0.7890(3) 0.5237(3) 0.1637(3)
O3A O 1.2561(3) 0.8668(3) 0.4119(3)
O3F O 0.7561(3) 0.6332(3) -0.0881(3)
O3G O 1.2439(3) 0.6332(3) 0.5881(3)
O4A O 1.1983(3) 0.7343(3) 0.3891(3)
C1A C 1.2522(4) 0.8722(4) 0.2397(4)
H1A H 1.2700 0.9221 0.2759
N2A N 1.1750(4) 0.6462(4) 0.0774(4)
H2A H 1.1767 0.6465 0.0253
N3A N 0.9051(4) 0.5946(4) 0.0739(4)
C2A C 1.2283(4) 0.7972(4) 0.2727(4)
C3A C 1.2004(4) 0.7201(4) 0.1316(4)
C4A C 1.0135(5) 0.6395(5) 0.0425(5)
H3A H 1.0320 0.6789 0.0111
C5A C 1.2495(4) 0.8728(4) 0.1527(4)
C6A C 1.2012(4) 0.7224(4) 0.2186(4)
H4A H 1.1834 0.6734 0.2402
C7A C 1.2689(4) 0.9550(4) 0.1146(4)
O5A O 1.3459(4) 0.6216(4) 0.4720(5)
C8A C 1.0623(4) 0.5786(4) 0.0965(4)
C9A C 1.2238(4) 0.7964(4) 0.0997(4)
H5A H 1.2225 0.7966 0.0419
C10A C 1.2279(4) 0.7992(4) 0.3650(4)
C11A C 1.0301(4) 0.5270(4) 0.1398(4)
H6A H 1.0602 0.4833 0.1786
C12A C 1.1458(4) 0.5687(4) 0.1065(5)
H7A H 1.1783 0.5572 0.1688
H8A H 1.1499 0.5176 0.0720
C14A C 0.9370(4) 0.6445(4) 0.0329(5)
H9A H 0.9056 0.6872 -0.0062
C16A C 0.9524(4) 0.5375(4) 0.1276(5)
H13A H 0.9331 0.5009 0.1605
C17A C 1.3979(4) 0.6148(5) 0.5367(4)
H14A H 1.3886 0.6065 0.5884
N4A N 1.4771(5) 0.6177(5) 0.5460(5)
C20A C 1.4919(5) 0.6290(4) 0.4679(4)
H17A H 1.5473 0.6295 0.4833
H18A H 1.4698 0.6844 0.4398
H19A H 1.4687 0.5808 0.4273
C21A C 1.5357(4) 0.6153(4) 0.6335(4)
H20A H 1.5863 0.6173 0.6306
H21A H 1.5309 0.5612 0.6626
H22A H 1.5298 0.6656 0.6668
N1 N 0.5000 0.5702(5) 0.2500
C13 C 0.5680(5) 0.6154(5) 0.2740(5)
C15 C 0.6406(5) 0.5614(5) 0.3004(5)
H10 H 0.6274 0.4992 0.2938
H11 H 0.6735 0.5736 0.3617
H12 H 0.6679 0.5765 0.2629
C18 C 0.5000 0.7560(5) 0.2500
H15 H 0.5000 0.8180 0.2500
C19 C 0.5685(5) 0.7070(5) 0.2760(5)
H16 H 0.6161 0.7369 0.2954
C13A C 0.4320(5) 0.6154(5) 0.2260(5)
C15A C 0.3594(5) 0.5614(5) 0.1996(5)
H10A H 0.3726 0.4992 0.2062
H11A H 0.3265 0.5736 0.1383
H12A H 0.3321 0.5765 0.2371
C19A C 0.4315(5) 0.7070(5) 0.2240(5)
H16A H 0.3839 0.7369 0.2046
loop_
_geom_bond_atom_site_label_1
_geom_bond_atom_site_label_2
_geom_bond_site_symmetry_1
_geom_bond_site_symmetry_2
Mn1 O4 1_555 1_555
O1 C7 1_555 1_555
O2 C7 1_555 1_555
O3 C10 1_555 1_555
O4 C10 1_555 1_555
N1 C13 1_555 1_555
C1 H1 1_555 1_555
N2 H2 1_555 1_555
N3 C14 1_555 1_555
C2 C1 1_555 1_555
C3 N2 1_555 1_555
C4 H3 1_555 1_555
C5 C1 1_555 1_555
C6 C2 1_555 1_555
H4 C6 1_555 1_555
C7 C5 1_555 1_555
O5 Mn1 1_555 1_555
C8 C4 1_555 1_555
C9 C3 1_555 1_555
H5 C9 1_555 1_555
C10 C2 1_555 1_555
C11 C8 1_555 1_555
H6 C11 1_555 1_555
C12 N2 1_555 1_555
H7 C12 1_555 1_555
H8 C12 1_555 1_555
C13 C15 1_555 1_555
C14 C4 1_555 1_555
H9 C14 1_555 1_555
C15 H10 1_555 1_555
H11 C15 1_555 1_555
H12 C15 1_555 1_555
C16 N3 1_555 1_555
H13 C16 1_555 1_555
C17 O5 1_555 1_555
H14 C17 1_555 1_555
N4 C17 1_555 1_555
C18 H15 1_555 1_555
C19 C13 1_555 1_555
H16 C19 1_555 1_555
C20 N4 1_555 1_555
H17 C20 1_555 1_555
H18 C20 1_555 1_555
H19 C20 1_555 1_555
C21 N4 1_555 1_555
H20 C21 1_555 1_555
H21 C21 1_555 1_555
H22 C21 1_555 1_555
Mn1A N3 1_555 1_555
Mn1B O1A 1_555 1_555
Mn1C O1 1_555 1_555
Mn1F O3 1_555 1_555
Mn1G O3A 1_555 1_555
O1A C7A 1_555 1_555
O1B Mn1A 1_555 1_555
O1C Mn1 1_555 1_555
O2A Mn1B 1_555 1_555
O2B Mn1A 1_555 1_555
O2C Mn1 1_555 1_555
O3A C10A 1_555 1_555
O3F Mn1 1_555 1_555
O3G Mn1A 1_555 1_555
O4A Mn1A 1_555 1_555
C1A H1A 1_555 1_555
N2A H2A 1_555 1_555
N3A Mn1 1_555 1_555
C2A C1A 1_555 1_555
C3A N2A 1_555 1_555
C4A H3A 1_555 1_555
C5A C1A 1_555 1_555
C6A C2A 1_555 1_555
H4A C6A 1_555 1_555
C7A O2A 1_555 1_555
O5A Mn1A 1_555 1_555
C8A C4A 1_555 1_555
C9A C3A 1_555 1_555
H5A C9A 1_555 1_555
C10A O4A 1_555 1_555
C11A C8A 1_555 1_555
H6A C11A 1_555 1_555
C12A N2A 1_555 1_555
H7A C12A 1_555 1_555
H8A C12A 1_555 1_555
C13A N1 1_555 1_555
C14A N3A 1_555 1_555
H9A C14A 1_555 1_555
C15A C13A 1_555 1_555
H10A C15A 1_555 1_555
H11A C15A 1_555 1_555
H12A C15A 1_555 1_555
C16A N3A 1_555 1_555
H13A C16A 1_555 1_555
C17A O5A 1_555 1_555
H14A C17A 1_555 1_555
N4A C17A 1_555 1_555
C19A C18 1_555 1_555
H16A C19A 1_555 1_555
C20A N4A 1_555 1_555
H17A C20A 1_555 1_555
H18A C20A 1_555 1_555
H19A C20A 1_555 1_555
C21A N4A 1_555 1_555
H20A C21A 1_555 1_555
H21A C21A 1_555 1_555
H22A C21A 1_555 1_555
O2 Mn1C 1_555 1_555
C3 C6 1_555 1_555
C5 C9 1_555 1_555
C8 C12 1_555 1_555
C11 C16 1_555 1_555
C18 C19 1_555 1_555
C2A C10A 1_555 1_555
C3A C6A 1_555 1_555
C4A C14A 1_555 1_555
C5A C7A 1_555 1_555
C5A C9A 1_555 1_555
C8A C12A 1_555 1_555
C11A C16A 1_555 1_555
C13A C19A 1_555 1_555

#END
