
#######################################################################
#
#                 Cambridge Crystallographic Data Centre
#                                CCDC 
#
#######################################################################
#
# If this CIF has been generated from an entry in the Cambridge 
# Structural Database, then it will include bibliographic, chemical, 
# crystal, experimental, refinement or atomic coordinate data resulting 
# from the CCDC's data processing and validation procedures.
#
#######################################################################

data_TUTZUD
_symmetry_cell_setting           monoclinic
_symmetry_space_group_name_H-M   'P 21/c'
_symmetry_Int_Tables_number      14
_space_group_name_Hall           '-P 2ybc'
loop_
_symmetry_equiv_pos_site_id
_symmetry_equiv_pos_as_xyz
1 x,y,z
2 x,1/2-y,1/2+z
3 -x,-y,-z
4 -x,1/2+y,1/2-z
_cell_length_a                   21.6200(2)
_cell_length_b                   9.97190(10)
_cell_length_c                   14.04530(10)
_cell_angle_alpha                90
_cell_angle_beta                 91.5840(10)
_cell_angle_gamma                90
_cell_volume                     3026.9
loop_
_atom_site_label
_atom_site_type_symbol
_atom_site_fract_x
_atom_site_fract_y
_atom_site_fract_z
Er1 Er 0.258545(16) 0.56656(4) 0.27364(3)
Er2 Er 0.249935(16) 0.75428(4) 0.02583(3)
O1 O 0.3587(4) 0.5188(9) 0.2152(6)
O2 O 0.3219(3) 0.6844(7) 0.1355(6)
O3 O 0.6902(3) 0.2364(7) 0.1349(5)
O4 O 0.7141(3) 0.4254(7) 0.0688(5)
O5 O 0.2103(4) 0.7662(9) 0.2398(8)
O6 O 0.1923(3) 0.8931(9) 0.1177(5)
O7 O -0.1507(3) 1.0140(10) 0.1982(5)
O8 O -0.1991(2) 1.1199(7) 0.0858(4)
O9 O 0.3104(3) 0.5637(8) 0.5345(5)
O10 O 0.3089(3) 0.4537(7) 0.3972(4)
O11 O 0.2172(3) 0.5476(8) 0.1160(4)
O12 O 0.1579(3) 0.6333(7) 0.0065(5)
C1 C 0.4785(4) 0.5535(14) 0.1240(7)
C2 C 0.4927(5) 0.4217(13) 0.1430(8)
H1 H 0.4625 0.3560 0.1351
C3 C 0.5518(4) 0.3868(11) 0.1737(7)
H2 H 0.5609 0.2972 0.1860
C4 C 0.5973(4) 0.4812(9) 0.1862(6)
C5 C 0.5826(5) 0.6135(10) 0.1685(7)
H3 H 0.6128 0.6792 0.1772
C6 C 0.5242(5) 0.6494(12) 0.1381(8)
H4 H 0.5151 0.7393 0.1268
C7 C 0.4161(5) 0.5946(18) 0.0825(9)
H5 H 0.4203 0.6829 0.0544
H6 H 0.4052 0.5330 0.0313
C8 C 0.3642(4) 0.5989(11) 0.1484(7)
C9 C 0.6624(4) 0.4403(10) 0.2150(6)
H7 H 0.6616 0.3858 0.2721
H8 H 0.6869 0.5197 0.2292
C10 C 0.6916(4) 0.3631(10) 0.1375(7)
C11 C 0.0805(4) 0.9791(9) 0.2079(6)
C12 C 0.0654(4) 1.1105(10) 0.1875(7)
H9 H 0.0928 1.1784 0.2058
C13 C 0.0106(4) 1.1433(10) 0.1407(7)
H10 H 0.0024 1.2325 0.1256
C14 C -0.0318(4) 1.0469(11) 0.1161(6)
C15 C -0.0165(4) 0.9154(11) 0.1353(7)
H11 H -0.0441 0.8478 0.1173
C16 C 0.0384(4) 0.8817(10) 0.1801(7)
H12 H 0.0474 0.7920 0.1920
C17 C 0.1399(4) 0.9426(12) 0.2599(7)
H13 H 0.1301 0.8934 0.3171
H14 H 0.1609 1.0244 0.2794
C18 C 0.1834(4) 0.8592(10) 0.2020(7)
C19 C -0.0916(4) 1.0829(13) 0.0647(7)
H15 H -0.0886 1.1749 0.0429
H16 H -0.0959 1.0264 0.0086
C20 C -0.1493(4) 1.0695(10) 0.1208(6)
C21 C 0.4408(4) 0.4455(9) 0.5102(6)
C22 C 0.4830(4) 0.4493(10) 0.5862(7)
H17 H 0.4719 0.4143 0.6446
C23 C 0.4589(4) 0.4961(10) 0.4228(7)
H18 H 0.4316 0.4931 0.3704
C24 C 0.3776(4) 0.3812(10) 0.5204(7)
H19 H 0.3704 0.3634 0.5870
H20 H 0.3762 0.2965 0.4863
C25 C 0.3281(4) 0.4740(9) 0.4804(6)
C26 C 0.0577(4) 0.4686(9) 0.0414(6)
C27 C 0.0123(4) 0.5289(9) 0.0941(6)
H21 H 0.0204 0.5499 0.1577
C28 C 0.0445(4) 0.4419(9) -0.0537(6)
H22 H 0.0747 0.4035 -0.0908
C29 C 0.1201(4) 0.4401(10) 0.0864(7)
H23 H 0.1158 0.4298 0.1545
H24 H 0.1354 0.3559 0.0617
C30 C 0.1667(4) 0.5481(10) 0.0684(6)
O13 O 0.2512(4) 0.3328(7) 0.2462(5)
C23B C 0.5411(4) 0.5039(10) 0.5772(7)
C21B C 0.5592(4) 0.5545(9) 0.4898(6)
C22B C 0.5170(4) 0.5507(10) 0.4138(7)
H17B H 0.5281 0.5857 0.3554
C24B C 0.6224(4) 0.6188(10) 0.4796(7)
H19B H 0.6296 0.6366 0.4130
H20B H 0.6238 0.7035 0.5137
C25B C 0.6719(4) 0.5260(9) 0.5196(6)
O9B O 0.6896(3) 0.4363(8) 0.4655(5)
O10B O 0.6911(3) 0.5463(7) 0.6028(4)
H18B H 0.5684 0.5069 0.6296
C28B C -0.0445(4) 0.5581(9) 0.0537(6)
C26B C -0.0577(4) 0.5314(9) -0.0414(6)
C27B C -0.0123(4) 0.4711(9) -0.0941(6)
H21B H -0.0204 0.4501 -0.1577
C29B C -0.1201(4) 0.5599(10) -0.0864(7)
H23B H -0.1158 0.5702 -0.1545
H24B H -0.1354 0.6441 -0.0617
C30B C -0.1667(4) 0.4519(10) -0.0684(6)
O11B O -0.2172(3) 0.4524(8) -0.1160(4)
O12B O -0.1579(3) 0.3667(7) -0.0065(5)
H22B H -0.0747 0.5965 0.0908
O1C O 0.6413(4) 1.0188(9) 0.2848(6)
O2C O 0.6781(3) 1.1844(7) 0.3645(6)
O3C O 0.3098(3) 0.7364(7) 0.3651(5)
O4C O 0.2859(3) 0.9254(7) 0.4312(5)
C1C C 0.5215(4) 1.0535(14) 0.3760(7)
C2C C 0.5073(5) 0.9217(13) 0.3570(8)
H1C H 0.5375 0.8560 0.3649
C3C C 0.4482(4) 0.8868(11) 0.3263(7)
H2C H 0.4391 0.7972 0.3140
C4C C 0.4027(4) 0.9812(9) 0.3138(6)
C5C C 0.4174(5) 1.1135(10) 0.3315(7)
H3C H 0.3872 1.1792 0.3228
C6C C 0.4758(5) 1.1494(12) 0.3619(8)
H4C H 0.4849 1.2393 0.3732
C7C C 0.5839(5) 1.0946(18) 0.4175(9)
H5C H 0.5797 1.1829 0.4456
H6C H 0.5948 1.0330 0.4687
C8C C 0.6358(4) 1.0989(11) 0.3516(7)
C9C C 0.3376(4) 0.9403(10) 0.2850(6)
H7C H 0.3384 0.8858 0.2279
H8C H 0.3131 1.0197 0.2708
C10C C 0.3084(4) 0.8631(10) 0.3625(7)
O5C O -0.2103(4) 0.2662(9) 0.2602(8)
O6C O -0.1923(3) 0.3931(9) 0.3823(5)
O7C O 0.1507(3) 0.5140(10) 0.3018(5)
O8C O 0.1991(2) 0.6199(7) 0.4142(4)
C11C C -0.0805(4) 0.4791(9) 0.2921(6)
C12C C -0.0654(4) 0.6105(10) 0.3125(7)
H9C H -0.0928 0.6784 0.2942
C13C C -0.0106(4) 0.6433(10) 0.3593(7)
H10C H -0.0024 0.7325 0.3744
C14C C 0.0318(4) 0.5469(11) 0.3839(6)
C15C C 0.0165(4) 0.4154(11) 0.3647(7)
H11C H 0.0441 0.3478 0.3827
C16C C -0.0384(4) 0.3817(10) 0.3199(7)
H12C H -0.0474 0.2920 0.3080
C17C C -0.1399(4) 0.4426(12) 0.2401(7)
H13C H -0.1301 0.3934 0.1829
H14C H -0.1609 0.5244 0.2206
C18C C -0.1834(4) 0.3592(10) 0.2980(7)
C19C C 0.0916(4) 0.5829(13) 0.4353(7)
H15C H 0.0886 0.6749 0.4571
H16C H 0.0959 0.5264 0.4914
C20C C 0.1493(4) 0.5695(10) 0.3792(6)
Er1C Er 0.741455(16) 1.06656(4) 0.22636(3)
Er2C Er 0.750065(16) 1.25428(4) 0.47417(3)
O13C O 0.7488(4) 0.8328(7) 0.2538(5)
O3B O 0.3098(3) 0.7636(7) -0.1349(5)
O4B O 0.2859(3) 0.5746(7) -0.0688(5)
O8B O 0.1991(2) 0.8801(7) -0.0858(4)
O9A O 0.3104(3) 0.9363(8) 0.0345(5)
Er1C_2 Er 0.741455(16) 0.06656(4) 0.22636(3)
Er2B Er 0.750065(16) 0.24572(4) -0.02583(3)
Er1C_3 Er -0.258545(16) 1.06656(4) 0.22636(3)
Er2B_2 Er -0.249935(16) 1.24572(4) -0.02583(3)
Er2A Er 0.249935(16) 0.74572(4) 0.52583(3)
Er2C_2 Er 0.750065(16) 0.25428(4) 0.47417(3)
Er1B Er 0.741455(16) 0.43344(4) 0.72636(3)
Er1B_2 Er -0.258545(16) 0.43344(4) -0.27364(3)
Er2B_3 Er -0.249935(16) 0.24572(4) -0.02583(3)
Er1C_4 Er -0.258545(16) 0.06656(4) 0.22636(3)
Er2C_3 Er -0.249935(16) 0.25428(4) 0.47417(3)
O3_2 O 0.6902(3) 1.2364(7) 0.1349(5)
O5C_2 O 0.7897(4) 1.2662(9) 0.2602(8)
O7_2 O 0.8493(3) 1.0140(10) 0.1982(5)
O8_2 O 0.8009(2) 1.1199(7) 0.0858(4)
O10C O 0.6911(3) 0.9537(7) 0.1028(4)
O11C O 0.7828(3) 1.0476(8) 0.3840(4)
O3A O 0.6902(3) 1.2636(7) 0.6349(5)
O4A O 0.7141(3) 1.0746(7) 0.5688(5)
O6C_2 O 0.8077(3) 1.3931(9) 0.3823(5)
O8A O 0.8009(2) 1.3801(7) 0.5858(4)
O9B_2 O 0.6896(3) 1.4363(8) 0.4655(5)
O12C O 0.8421(3) 1.1333(7) 0.4935(5)
O14 O 0.2379(5) 1.3161(9) -0.0845(7)
O15 O 0.2191(5) 1.1735(9) 0.0928(6)
loop_
_geom_bond_atom_site_label_1
_geom_bond_atom_site_label_2
_geom_bond_site_symmetry_1
_geom_bond_site_symmetry_2
Er1 O1 1_555 1_555
Er2 O2 1_555 1_555
O1 C8 1_555 1_555
O2 Er1 1_555 1_555
O3 C10 1_555 1_555
O4 C10 1_555 1_555
O5 Er1 1_555 1_555
O6 Er2 1_555 1_555
O7 C20 1_555 1_555
O8 C20 1_555 1_555
O9 C25 1_555 1_555
O10 Er1 1_555 1_555
O11 Er1 1_555 1_555
O12 Er2 1_555 1_555
C1 C2 1_555 1_555
C2 H1 1_555 1_555
C3 C2 1_555 1_555
H2 C3 1_555 1_555
C4 C3 1_555 1_555
C5 C4 1_555 1_555
H3 C5 1_555 1_555
C6 C1 1_555 1_555
H4 C6 1_555 1_555
C7 C1 1_555 1_555
H5 C7 1_555 1_555
H6 C7 1_555 1_555
C8 O2 1_555 1_555
C9 C4 1_555 1_555
H7 C9 1_555 1_555
H8 C9 1_555 1_555
C10 C9 1_555 1_555
C11 C12 1_555 1_555
C12 H9 1_555 1_555
C13 C12 1_555 1_555
H10 C13 1_555 1_555
C14 C13 1_555 1_555
C15 C14 1_555 1_555
H11 C15 1_555 1_555
C16 C11 1_555 1_555
H12 C16 1_555 1_555
C17 C11 1_555 1_555
H13 C17 1_555 1_555
H14 C17 1_555 1_555
C18 O5 1_555 1_555
C19 C14 1_555 1_555
H15 C19 1_555 1_555
H16 C19 1_555 1_555
C20 C19 1_555 1_555
C21 C22 1_555 1_555
C22 H17 1_555 1_555
C23 C21 1_555 1_555
H18 C23 1_555 1_555
C24 C21 1_555 1_555
H19 C24 1_555 1_555
H20 C24 1_555 1_555
C25 O10 1_555 1_555
C26 C27 1_555 1_555
C27 H21 1_555 1_555
C28 C26 1_555 1_555
H22 C28 1_555 1_555
C29 C26 1_555 1_555
H23 C29 1_555 1_555
H24 C29 1_555 1_555
C30 O11 1_555 1_555
O13 Er1 1_555 1_555
C23B C22 1_555 1_555
C21B C23B 1_555 1_555
C22B C23 1_555 1_555
H17B C22B 1_555 1_555
C24B C21B 1_555 1_555
H19B C24B 1_555 1_555
H20B C24B 1_555 1_555
C25B C24B 1_555 1_555
O9B C25B 1_555 1_555
O10B C25B 1_555 1_555
H18B C23B 1_555 1_555
C28B C27 1_555 1_555
C26B C28B 1_555 1_555
C27B C28 1_555 1_555
H21B C27B 1_555 1_555
C29B C26B 1_555 1_555
H23B C29B 1_555 1_555
H24B C29B 1_555 1_555
C30B C29B 1_555 1_555
O11B C30B 1_555 1_555
O12B C30B 1_555 1_555
H22B C28B 1_555 1_555
O1C C8C 1_555 1_555
O2C C8C 1_555 1_555
O3C Er1 1_555 1_555
O4C C10C 1_555 1_555
C1C C2C 1_555 1_555
C2C H1C 1_555 1_555
C3C C2C 1_555 1_555
H2C C3C 1_555 1_555
C4C C3C 1_555 1_555
C5C C4C 1_555 1_555
H3C C5C 1_555 1_555
C6C C1C 1_555 1_555
H4C C6C 1_555 1_555
C7C C1C 1_555 1_555
H5C C7C 1_555 1_555
H6C C7C 1_555 1_555
C8C C7C 1_555 1_555
C9C C4C 1_555 1_555
H7C C9C 1_555 1_555
H8C C9C 1_555 1_555
C10C O3C 1_555 1_555
O5C C18C 1_555 1_555
O6C C18C 1_555 1_555
O7C Er1 1_555 1_555
O8C Er1 1_555 1_555
C11C C12C 1_555 1_555
C12C H9C 1_555 1_555
C13C C12C 1_555 1_555
H10C C13C 1_555 1_555
C14C C13C 1_555 1_555
C15C C14C 1_555 1_555
H11C C15C 1_555 1_555
C16C C11C 1_555 1_555
H12C C16C 1_555 1_555
C17C C11C 1_555 1_555
H13C C17C 1_555 1_555
H14C C17C 1_555 1_555
C18C C17C 1_555 1_555
C19C C14C 1_555 1_555
H15C C19C 1_555 1_555
H16C C19C 1_555 1_555
C20C O7C 1_555 1_555
Er1C O1C 1_555 1_555
Er2C O2C 1_555 1_555
O13C Er1C 1_555 1_555
O3B Er2 1_555 1_555
O4B Er2 1_555 1_555
O8B Er2 1_555 1_555
O9A Er2 1_555 1_555
Er1C_2 O3 1_555 1_555
Er2B O3 1_555 1_555
Er1C_3 O7 1_555 1_555
Er2B_2 O8 1_555 1_555
Er2A O9 1_555 1_555
Er2C_2 O9B 1_555 1_555
Er1B O10B 1_555 1_555
Er1B_2 O11B 1_555 1_555
Er2B_3 O11B 1_555 1_555
Er1C_4 O5C 1_555 1_555
Er2C_3 O6C 1_555 1_555
O3_2 Er1C 1_555 1_555
O5C_2 Er1C 1_555 1_555
O7_2 Er1C 1_555 1_555
O8_2 Er1C 1_555 1_555
O10C Er1C 1_555 1_555
O11C Er1C 1_555 1_555
O3A Er2C 1_555 1_555
O4A Er2C 1_555 1_555
O6C_2 Er2C 1_555 1_555
O8A Er2C 1_555 1_555
O9B_2 Er2C 1_555 1_555
O12C Er2C 1_555 1_555
Er2 O11 1_555 1_555
O4 Er2B 1_555 1_555
O6 C18 1_555 1_555
O8 Er1C_3 1_555 1_555
O12 C30 1_555 1_555
C5 C6 1_555 1_555
C7 C8 1_555 1_555
C15 C16 1_555 1_555
C17 C18 1_555 1_555
C24 C25 1_555 1_555
C29 C30 1_555 1_555
C21B C22B 1_555 1_555
C26B C27B 1_555 1_555
O12B Er2B_3 1_555 1_555
O2C Er1C 1_555 1_555
O3C Er2A 1_555 1_555
O4C Er2A 1_555 1_555
C5C C6C 1_555 1_555
C9C C10C 1_555 1_555
O8C C20C 1_555 1_555
O8C Er2A 1_555 1_555
C15C C16C 1_555 1_555
C19C C20C 1_555 1_555
Er2C O11C 1_555 1_555

#END
