
#######################################################################
#
#                 Cambridge Crystallographic Data Centre
#                                CCDC 
#
#######################################################################
#
# If this CIF has been generated from an entry in the Cambridge 
# Structural Database, then it will include bibliographic, chemical, 
# crystal, experimental, refinement or atomic coordinate data resulting 
# from the CCDC's data processing and validation procedures.
#
#######################################################################

data_TUVKOL
_symmetry_cell_setting           monoclinic
_symmetry_space_group_name_H-M   'P 21/c'
_symmetry_Int_Tables_number      14
_space_group_name_Hall           '-P 2ybc'
loop_
_symmetry_equiv_pos_site_id
_symmetry_equiv_pos_as_xyz
1 x,y,z
2 -x,1/2+y,1/2-z
3 -x,-y,-z
4 x,1/2-y,1/2+z
_cell_length_a                   7.5198(5)
_cell_length_b                   17.7822(16)
_cell_length_c                   14.5604(9)
_cell_angle_alpha                90
_cell_angle_beta                 94.501(7)
_cell_angle_gamma                90
_cell_volume                     1940.99
loop_
_atom_site_label
_atom_site_type_symbol
_atom_site_fract_x
_atom_site_fract_y
_atom_site_fract_z
Hg1 Hg 0.61875(2) 0.791054(8) 0.058345(10)
S1 S 0.60952(13) 0.80751(5) 0.23748(6)
C1 C 0.4531(4) 0.87261(17) 0.2383(2)
N1 N 0.3465(4) 0.91917(16) 0.2417(2)
S2 S 0.93871(14) 0.79577(6) 0.02459(8)
C2 C 0.9806(4) 0.8792(2) 0.0741(2)
N2 N 1.0138(4) 0.9361(2) 0.1082(2)
S3 S 0.42827(13) 0.89764(6) -0.01506(7)
C3 C 0.5742(4) 0.92457(18) -0.0886(2)
N3 N 0.6677(4) 0.94508(17) -0.1419(2)
S4 S 0.44541(16) 0.67369(6) 0.01523(8)
C4 C 0.5516(5) 0.6134(2) 0.0874(3)
N4 N 0.6218(5) 0.5700(2) 0.1364(3)
Cu1 Cu 0.17245(5) 1.00449(2) 0.22495(3)
N5 N 0.0227(3) 0.96023(15) 0.32041(19)
N6 N -0.1506(3) 0.98002(15) 0.32717(19)
C5 C -0.2132(5) 0.9512(2) 0.4039(2)
H1 H -0.3277 0.9571 0.4228
C6 C -0.0770(5) 0.9117(2) 0.4487(3)
H2 H -0.0799 0.8851 0.5036
C7 C 0.0669(5) 0.9194(2) 0.3951(2)
H3 H 0.1792 0.8987 0.4096
C8 C -0.2431(4) 1.0223(2) 0.2533(2)
H4 H -0.3662 1.0299 0.2666
H5 H -0.2424 0.9943 0.1962
N7 N 0.0156(3) 1.09608(15) 0.22147(19)
N8 N -0.1574(3) 1.09436(15) 0.24325(19)
C9 C -0.2233(5) 1.1646(2) 0.2493(3)
H6 H -0.3381 1.1773 0.2632
C10 C -0.0912(6) 1.2135(2) 0.2315(3)
H7 H -0.0972 1.2657 0.2308
C11 C 0.0551(5) 1.1689(2) 0.2146(3)
H8 H 0.1653 1.1874 0.2004
N2_2 N 0.0138(4) 0.9361(2) 0.1082(2)
N3B N 0.3323(4) 1.05492(17) 0.1419(2)
N4A N 0.3782(5) 1.0700(2) 0.3636(3)
Cu1_2 Cu 1.17245(5) 1.00449(2) 0.22495(3)
Cu1B Cu 0.82755(5) 0.99551(2) -0.22495(3)
Cu1A Cu 0.82755(5) 0.50449(2) 0.27505(3)
loop_
_geom_bond_atom_site_label_1
_geom_bond_atom_site_label_2
_geom_bond_site_symmetry_1
_geom_bond_site_symmetry_2
Hg1 S1 1_555 1_555
S1 C1 1_555 1_555
C1 N1 1_555 1_555
N1 Cu1 1_555 1_555
S2 Hg1 1_555 1_555
C2 S2 1_555 1_555
N2 C2 1_555 1_555
S3 Hg1 1_555 1_555
C3 S3 1_555 1_555
N3 C3 1_555 1_555
S4 Hg1 1_555 1_555
C4 S4 1_555 1_555
N4 C4 1_555 1_555
Cu1 N5 1_555 1_555
N5 N6 1_555 1_555
N6 C5 1_555 1_555
C5 H1 1_555 1_555
C6 C5 1_555 1_555
H2 C6 1_555 1_555
C7 N5 1_555 1_555
H3 C7 1_555 1_555
C8 N6 1_555 1_555
H4 C8 1_555 1_555
H5 C8 1_555 1_555
N7 Cu1 1_555 1_555
N8 C8 1_555 1_555
C9 N8 1_555 1_555
H6 C9 1_555 1_555
C10 C9 1_555 1_555
H7 C10 1_555 1_555
C11 N7 1_555 1_555
H8 C11 1_555 1_555
N2_2 Cu1 1_555 1_555
N3B Cu1 1_555 1_555
N4A Cu1 1_555 1_555
Cu1_2 N2 1_555 1_555
Cu1B N3 1_555 1_555
Cu1A N4 1_555 1_555
C6 C7 1_555 1_555
N7 N8 1_555 1_555
C10 C11 1_555 1_555

#END
