
#######################################################################
#
#                 Cambridge Crystallographic Data Centre
#                                CCDC 
#
#######################################################################
#
# If this CIF has been generated from an entry in the Cambridge 
# Structural Database, then it will include bibliographic, chemical, 
# crystal, experimental, refinement or atomic coordinate data resulting 
# from the CCDC's data processing and validation procedures.
#
#######################################################################

data_TUVLAY
_symmetry_cell_setting           monoclinic
_symmetry_space_group_name_H-M   'P 21/n'
_symmetry_Int_Tables_number      14
_space_group_name_Hall           '-P 2yn'
loop_
_symmetry_equiv_pos_site_id
_symmetry_equiv_pos_as_xyz
1 x,y,z
2 1/2-x,1/2+y,1/2-z
3 -x,-y,-z
4 1/2+x,1/2-y,1/2+z
_cell_length_a                   7.4549(4)
_cell_length_b                   21.5045(11)
_cell_length_c                   13.0239(6)
_cell_angle_alpha                90
_cell_angle_beta                 103.314(4)
_cell_angle_gamma                90
_cell_volume                     2031.79
loop_
_atom_site_label
_atom_site_type_symbol
_atom_site_fract_x
_atom_site_fract_y
_atom_site_fract_z
Cu1 Cu 0.88425(7) 0.70497(3) 0.81777(4)
Hg1 Hg 0.45134(3) 0.892444(9) 0.901173(15)
S1 S 0.68384(16) 0.82510(7) 1.02011(10)
C1 C 0.5665(6) 0.8156(2) 1.1143(4)
N1 N 0.4887(6) 0.8075(2) 1.1791(3)
N2 N 0.4169(6) 0.9999(2) 0.6497(4)
C2 C 0.4747(7) 1.0004(2) 0.7395(4)
S2 S 0.5568(2) 1.00038(7) 0.86961(12)
N3 N 0.6515(6) 0.7496(2) 0.7564(4)
C3 C 0.5316(6) 0.7837(2) 0.7420(4)
S3 S 0.35662(16) 0.83335(6) 0.72100(10)
S4 S 0.12981(18) 0.90475(6) 0.93887(12)
N4 N -0.0083(5) 0.7880(2) 0.8643(3)
C4 C 0.0494(6) 0.8357(2) 0.8941(4)
N5 N 1.0947(5) 0.66464(18) 0.9171(3)
N6 N 0.7458(5) 0.62594(18) 0.8138(3)
N7 N 0.9012(5) 0.59853(18) 0.9858(3)
H1 H 0.8996 0.5692 1.0400
C5 C 1.2670(6) 0.6862(2) 0.9225(4)
H2 H 1.2863 0.7116 0.8682
C6 C 1.4135(7) 0.6726(2) 1.0028(5)
H3 H 1.5309 0.6873 1.0029
C7 C 1.3821(7) 0.6362(3) 1.0848(5)
H4 H 1.4778 0.6283 1.1431
C8 C 1.2131(7) 0.6123(2) 1.0804(4)
H5 H 1.1918 0.5871 1.1344
C9 C 1.0701(6) 0.6262(2) 0.9925(4)
C10 C 0.7633(6) 0.5885(2) 0.8975(4)
C11 C 0.6419(6) 0.5388(2) 0.8976(4)
H6 H 0.6524 0.5142 0.9573
C12 C 0.5088(7) 0.5271(2) 0.8095(5)
H7 H 0.4268 0.4945 0.8090
C13 C 0.4945(7) 0.5637(3) 0.7197(5)
H8 H 0.4076 0.5550 0.6578
C14 C 0.6121(7) 0.6125(2) 0.7258(4)
H9 H 0.6009 0.6381 0.6671
Cu1_2 Cu -0.11575(7) 0.70497(3) 0.81777(4)
Cu1C Cu 0.38425(7) 0.79503(3) 1.31777(4)
N1C N 0.9887(6) 0.6925(2) 0.6791(3)
N4_2 N 0.9917(5) 0.7880(2) 0.8643(3)
loop_
_geom_bond_atom_site_label_1
_geom_bond_atom_site_label_2
_geom_bond_site_symmetry_1
_geom_bond_site_symmetry_2
Cu1 N3 1_555 1_555
Hg1 S1 1_555 1_555
S1 C1 1_555 1_555
C1 N1 1_555 1_555
N1 Cu1C 1_555 1_555
N2 C2 1_555 1_555
C2 S2 1_555 1_555
S2 Hg1 1_555 1_555
N3 C3 1_555 1_555
C3 S3 1_555 1_555
S3 Hg1 1_555 1_555
S4 Hg1 1_555 1_555
N4 C4 1_555 1_555
C4 S4 1_555 1_555
N5 Cu1 1_555 1_555
N6 Cu1 1_555 1_555
N7 H1 1_555 1_555
C5 N5 1_555 1_555
H2 C5 1_555 1_555
C6 C5 1_555 1_555
H3 C6 1_555 1_555
C7 C6 1_555 1_555
H4 C7 1_555 1_555
C8 C7 1_555 1_555
H5 C8 1_555 1_555
C9 N5 1_555 1_555
C10 N6 1_555 1_555
C11 C10 1_555 1_555
H6 C11 1_555 1_555
C12 C11 1_555 1_555
H7 C12 1_555 1_555
C13 C12 1_555 1_555
H8 C13 1_555 1_555
C14 N6 1_555 1_555
H9 C14 1_555 1_555
Cu1_2 N4 1_555 1_555
N1C Cu1 1_555 1_555
N4_2 Cu1 1_555 1_555
N7 C9 1_555 1_555
N7 C10 1_555 1_555
C8 C9 1_555 1_555
C13 C14 1_555 1_555

#END
