
#######################################################################
#
#                 Cambridge Crystallographic Data Centre
#                                CCDC 
#
#######################################################################
#
# If this CIF has been generated from an entry in the Cambridge 
# Structural Database, then it will include bibliographic, chemical, 
# crystal, experimental, refinement or atomic coordinate data resulting 
# from the CCDC's data processing and validation procedures.
#
#######################################################################

data_TUXBUL
_symmetry_cell_setting           monoclinic
_symmetry_space_group_name_H-M   'P 21/c'
_symmetry_Int_Tables_number      14
_space_group_name_Hall           '-P 2ybc'
loop_
_symmetry_equiv_pos_site_id
_symmetry_equiv_pos_as_xyz
1 x,y,z
2 -x,1/2+y,1/2-z
3 -x,-y,-z
4 x,1/2-y,1/2+z
_cell_length_a                   14.5543(15)
_cell_length_b                   13.7932(12)
_cell_length_c                   19.3189(19)
_cell_angle_alpha                90
_cell_angle_beta                 106.463(4)
_cell_angle_gamma                90
_cell_volume                     3719.28
loop_
_atom_site_label
_atom_site_type_symbol
_atom_site_fract_x
_atom_site_fract_y
_atom_site_fract_z
Cd1 Cd 0.736053(2) 0.982325(2) 0.219003(2)
O1 O 0.77846(3) 0.99738(3) 0.34723(2)
N1 N 0.48921(2) 0.51592(2) 0.33701(2)
H1 H 0.4899 0.4667 0.3645
C1 C 0.89624(3) 1.16255(3) 0.24787(2)
C2 C 0.60670(3) 0.80034(3) 0.25950(2)
C3 C 0.90350(3) 1.25951(3) 0.22689(2)
C4 C 0.59717(3) 0.69946(3) 0.25021(2)
C5 C 0.56840(3) 0.55843(3) 0.32828(2)
C6 C 1.06979(3) 1.33413(3) 0.24184(2)
C7 C 0.43769(3) 0.63255(3) 0.26248(2)
C8 C 0.65131(3) 0.67495(3) 0.20481(2)
C9 C 0.36937(3) 0.70068(3) 0.21464(3)
H2 H 0.3534 0.7515 0.2432
H3 H 0.3122 0.6664 0.1896
H4 H 0.3983 0.7282 0.1803
C10 C 0.53733(3) 0.63354(3) 0.27985(2)
C11 C 0.82043(3) 1.27766(3) 0.17200(2)
C12 C 0.66717(3) 0.52326(4) 0.36649(3)
H5 H 0.6696 0.4540 0.3623
H6 H 0.6827 0.5409 0.4166
H7 H 0.7125 0.5524 0.3451
C13 C 0.98769(3) 1.39269(4) 0.31309(2)
C14 C 0.79028(4) 1.36585(4) 0.12814(3)
H8 H 0.7226 1.3753 0.1196
H9 H 0.8045 1.3588 0.0828
H10 H 0.8241 1.4209 0.1535
C15 C 0.96927(3) 1.10721(4) 0.30346(3)
H11 H 1.0265 1.1006 0.2885
H12 H 0.9446 1.0441 0.3091
H13 H 0.9838 1.1412 0.3486
C16 C 0.56246(3) 0.86448(4) 0.30405(2)
H14 H 0.6070 0.9144 0.3262
H15 H 0.5468 0.8265 0.3408
H16 H 0.5053 0.8935 0.2736
N2 N 0.66289(2) 0.83549(3) 0.221579(19)
N3 N 0.68895(2) 0.75806(2) 0.188808(18)
H17 H 0.7255 0.7615 0.1609
N4 N 1.12684(2) 1.40012(3) 0.284312(19)
N5 N 1.07392(2) 1.43511(3) 0.326928(19)
H18 H 1.0937 1.4794 0.3590
N6 N 0.40825(2) 0.56007(3) 0.297234(18)
N7 N 0.81415(2) 1.12406(3) 0.20848(2)
N8 N 0.76889(2) 1.19509(3) 0.163190(19)
H19 H 0.7136 1.1883 0.1323
C17 C 0.98274(3) 1.32647(3) 0.25846(2)
C18 C 0.91664(3) 1.41978(5) 0.35178(3)
H20 H 0.8992 1.4867 0.3425
H21 H 0.9442 1.4103 0.4027
H22 H 0.8606 1.3799 0.3351
C19 C 1.09991(3) 1.27885(4) 0.18628(3)
H23 H 1.0953 1.2107 0.1947
H24 H 1.1649 1.2950 0.1888
H25 H 1.0590 1.2950 0.1393
C20 C 0.66973(4) 0.57941(3) 0.17605(3)
H26 H 0.6926 0.5889 0.1346
H27 H 0.6114 0.5425 0.1625
H28 H 0.7171 0.5450 0.2125
O2 O 0.68443(2) 0.98360(2) 0.084132(18)
Cd1A Cd 0.263947(2) 0.482325(2) 0.280997(2)
Cd1A_2 Cd 1.263947(2) 1.482325(2) 0.280997(2)
N4A N 0.87316(2) 0.90012(3) 0.215688(19)
N6A N 0.59175(2) 1.06007(3) 0.202766(18)
S1 S 0.485411(9) 0.808185(8) 0.009619(6)
C21 C 0.53678(3) 0.52165(3) -0.01213(2)
C22 C 0.48004(3) 0.68028(3) 0.01201(2)
C23 C 0.54394(3) 0.62387(3) -0.01108(2)
H29 H 0.5924 0.6535 -0.0262
C24 C 0.40719(3) 0.63575(3) 0.03518(2)
H30 H 0.3640 0.6739 0.0504
O3 O 0.47675(3) 0.84132(3) 0.078808(19)
O4 O 0.57604(3) 0.83358(2) -0.00164(2)
O5 O 0.40423(3) 0.83692(2) -0.04992(2)
C25 C 0.39904(3) 0.53810(3) 0.03558(2)
H31 H 0.3506 0.5099 0.0515
S1B S 0.514589(9) 0.191815(8) -0.009619(6)
C21B C 0.46322(3) 0.47835(3) 0.01213(2)
C22B C 0.51996(3) 0.31972(3) -0.01201(2)
C23B C 0.45606(3) 0.37613(3) 0.01108(2)
H29B H 0.4076 0.3465 0.0262
C24B C 0.59281(3) 0.36425(3) -0.03518(2)
H30B H 0.6360 0.3261 -0.0504
O3B O 0.52325(3) 0.15868(3) -0.078808(19)
O4B O 0.42396(3) 0.16642(2) 0.00164(2)
O5B O 0.59577(3) 0.16308(2) 0.04992(2)
C25B C 0.60096(3) 0.46190(3) -0.03558(2)
H31B H 0.6494 0.4901 -0.0515
O6 O 0.22684(4) 0.25706(5) 0.42998(3)
O7 O 0.89429(6) 0.63445(6) 0.47640(5)
O8 O 0.07064(7) 0.73670(8) 0.49784(5)
N9 N 0.14090(15) 0.75190(14) 0.56212(12)
O9 O 0.14366(6) 0.85318(5) 0.55197(4)
O10 O 0.21306(6) 0.70755(7) 0.53533(5)
O11 O 0.84664(9) 0.88403(8) 0.47393(4)
O12 O 0.86392(5) 0.04476(4) 0.04061(3)
loop_
_geom_bond_atom_site_label_1
_geom_bond_atom_site_label_2
_geom_bond_site_symmetry_1
_geom_bond_site_symmetry_2
Cd1 O1 1_555 1_555
N1 H1 1_555 1_555
C1 C3 1_555 1_555
C2 C4 1_555 1_555
C3 C11 1_555 1_555
C4 C8 1_555 1_555
C5 N1 1_555 1_555
C6 N4 1_555 1_555
C7 C9 1_555 1_555
C8 N3 1_555 1_555
C9 H2 1_555 1_555
H3 C9 1_555 1_555
H4 C9 1_555 1_555
C10 C4 1_555 1_555
C11 C14 1_555 1_555
C12 C5 1_555 1_555
H5 C12 1_555 1_555
H6 C12 1_555 1_555
H7 C12 1_555 1_555
C13 N5 1_555 1_555
C14 H8 1_555 1_555
H9 C14 1_555 1_555
H10 C14 1_555 1_555
C15 C1 1_555 1_555
H11 C15 1_555 1_555
H12 C15 1_555 1_555
H13 C15 1_555 1_555
C16 C2 1_555 1_555
H14 C16 1_555 1_555
H15 C16 1_555 1_555
H16 C16 1_555 1_555
N2 Cd1 1_555 1_555
N3 N2 1_555 1_555
H17 N3 1_555 1_555
N4 N5 1_555 1_555
N5 H18 1_555 1_555
N6 N1 1_555 1_555
N7 Cd1 1_555 1_555
N8 C11 1_555 1_555
H19 N8 1_555 1_555
C17 C3 1_555 1_555
C18 C13 1_555 1_555
H20 C18 1_555 1_555
H21 C18 1_555 1_555
H22 C18 1_555 1_555
C19 C6 1_555 1_555
H23 C19 1_555 1_555
H24 C19 1_555 1_555
H25 C19 1_555 1_555
C20 C8 1_555 1_555
H26 C20 1_555 1_555
H27 C20 1_555 1_555
H28 C20 1_555 1_555
O2 Cd1 1_555 1_555
S1 C22 1_555 1_555
C21 C23 1_555 1_555
C22 C23 1_555 1_555
C23 H29 1_555 1_555
C24 C22 1_555 1_555
H30 C24 1_555 1_555
O3 S1 1_555 1_555
O4 S1 1_555 1_555
O5 S1 1_555 1_555
C25 C24 1_555 1_555
H31 C25 1_555 1_555
O8 N9 1_555 1_555
N9 O9 1_555 1_555
O10 N9 1_555 1_555
Cd1A N6 1_555 1_555
Cd1A_2 N4 1_555 1_555
N4A Cd1 1_555 1_555
N6A Cd1 1_555 1_555
S1B C22B 1_555 1_555
C21B C21 1_555 1_555
C22B C23B 1_555 1_555
C23B C21B 1_555 1_555
H29B C23B 1_555 1_555
C24B C22B 1_555 1_555
H30B C24B 1_555 1_555
O3B S1B 1_555 1_555
O4B S1B 1_555 1_555
O5B S1B 1_555 1_555
C25B C21 1_555 1_555
H31B C25B 1_555 1_555
C1 N7 1_555 1_555
C2 N2 1_555 1_555
C5 C10 1_555 1_555
C6 C17 1_555 1_555
C7 C10 1_555 1_555
C7 N6 1_555 1_555
C13 C17 1_555 1_555
N7 N8 1_555 1_555
C25 C21B 1_555 1_555
C24B C25B 1_555 1_555

#END
