
#######################################################################
#
#                 Cambridge Crystallographic Data Centre
#                                CCDC 
#
#######################################################################
#
# If this CIF has been generated from an entry in the Cambridge 
# Structural Database, then it will include bibliographic, chemical, 
# crystal, experimental, refinement or atomic coordinate data resulting 
# from the CCDC's data processing and validation procedures.
#
#######################################################################

data_TUXLAA
_symmetry_cell_setting           monoclinic
_symmetry_space_group_name_H-M   'P 21/c'
_symmetry_Int_Tables_number      14
_space_group_name_Hall           '-P 2ybc'
loop_
_symmetry_equiv_pos_site_id
_symmetry_equiv_pos_as_xyz
1 x,y,z
2 -x,1/2+y,1/2-z
3 -x,-y,-z
4 x,1/2-y,1/2+z
_cell_length_a                   6.6135(3)
_cell_length_b                   30.1060(10)
_cell_length_c                   8.2270(3)
_cell_angle_alpha                90
_cell_angle_beta                 90.386(2)
_cell_angle_gamma                90
_cell_volume                     1638.01
loop_
_atom_site_label
_atom_site_type_symbol
_atom_site_fract_x
_atom_site_fract_y
_atom_site_fract_z
Ca1 Ca 0.24456(13) 0.41285(3) 0.51461(11)
O1 O 0.2282(5) 0.48897(11) 0.6727(4)
H1 H 0.306(6) 0.5092(11) 0.636(5)
H2 H 0.117(4) 0.5027(14) 0.656(6)
O2 O 0.2253(5) 0.40203(11) 0.7973(4)
H3 H 0.221(7) 0.4252(10) 0.858(5)
H4 H 0.209(7) 0.3757(7) 0.835(5)
O3 O 0.3061(6) 0.38428(11) 0.2486(4)
H5 H 0.310(8) 0.3584(8) 0.204(6)
H6 H 0.293(8) 0.4052(12) 0.178(5)
N1 N 0.0674(5) 0.33353(13) 0.4931(4)
C1 C 0.1738(7) 0.29673(16) 0.5229(5)
C2 C 0.1033(7) 0.25392(15) 0.4809(5)
C3 C -0.0831(7) 0.25190(16) 0.3966(6)
H7 H -0.1334 0.2240 0.3602
C4 C -0.1921(7) 0.28977(16) 0.3669(6)
H8 H -0.3175 0.2884 0.3101
C5 C -0.1173(7) 0.32957(16) 0.4205(5)
H9 H -0.1974 0.3555 0.4064
C6 C 0.3799(7) 0.30846(16) 0.5978(6)
O4 O 0.4440(5) 0.34612(10) 0.5793(4)
O5 O 0.4776(5) 0.27845(11) 0.6769(4)
H10 H 0.440(7) 0.2517(7) 0.653(6)
C7 C 0.1995(8) 0.20927(17) 0.5136(6)
O6 O 0.1338(6) 0.17706(11) 0.4369(5)
O7 O 0.3410(5) 0.20606(11) 0.6217(4)
N2 N 0.2521(6) 0.54247(13) -0.0380(5)
H11 H 0.263(7) 0.5183(9) -0.100(5)
C8 C 0.2498(6) 0.53467(15) 0.1239(5)
C9 C 0.2598(6) 0.57057(16) 0.2292(5)
C10 C 0.2715(7) 0.61273(16) 0.1644(6)
H12 H 0.2798 0.6376 0.2350
C11 C 0.2713(7) 0.61914(17) -0.0014(6)
H13 H 0.2782 0.6483 -0.0451
C12 C 0.2610(7) 0.58321(18) -0.1027(7)
H14 H 0.2601 0.5871 -0.2173
C13 C 0.2381(7) 0.48606(16) 0.1740(6)
O8 O 0.2618(6) 0.45874(11) 0.0625(4)
O9 O 0.2032(5) 0.47840(10) 0.3200(4)
C14 C 0.2616(7) 0.56505(15) 0.4122(6)
O10 O 0.0995(4) 0.57026(10) 0.4862(4)
O11 O 0.4286(4) 0.55664(10) 0.4805(4)
Ca1B Ca -0.24456(13) 0.58715(3) 0.48539(11)
Ca1B_2 Ca 0.75544(13) 0.58715(3) 0.48539(11)
O10B O -0.0995(4) 0.42974(10) 0.5138(4)
O11B O 0.5714(4) 0.44336(10) 0.5195(4)
loop_
_geom_bond_atom_site_label_1
_geom_bond_atom_site_label_2
_geom_bond_site_symmetry_1
_geom_bond_site_symmetry_2
Ca1 O1 1_555 1_555
O1 H1 1_555 1_555
H2 O1 1_555 1_555
O2 Ca1 1_555 1_555
H3 O2 1_555 1_555
H4 O2 1_555 1_555
O3 Ca1 1_555 1_555
H5 O3 1_555 1_555
H6 O3 1_555 1_555
N1 Ca1 1_555 1_555
C1 N1 1_555 1_555
C2 C1 1_555 1_555
C3 C2 1_555 1_555
H7 C3 1_555 1_555
C4 C3 1_555 1_555
H8 C4 1_555 1_555
C5 N1 1_555 1_555
H9 C5 1_555 1_555
C6 C1 1_555 1_555
O4 Ca1 1_555 1_555
O5 C6 1_555 1_555
H10 O5 1_555 1_555
C7 C2 1_555 1_555
O6 C7 1_555 1_555
O7 C7 1_555 1_555
N2 H11 1_555 1_555
C8 N2 1_555 1_555
C9 C8 1_555 1_555
C10 C9 1_555 1_555
H12 C10 1_555 1_555
C11 C10 1_555 1_555
H13 C11 1_555 1_555
C12 N2 1_555 1_555
H14 C12 1_555 1_555
C13 C8 1_555 1_555
O8 C13 1_555 1_555
O9 Ca1 1_555 1_555
C14 C9 1_555 1_555
O10 C14 1_555 1_555
O11 C14 1_555 1_555
Ca1B O10 1_555 1_555
Ca1B_2 O11 1_555 1_555
O10B Ca1 1_555 1_555
O11B Ca1 1_555 1_555
C4 C5 1_555 1_555
C6 O4 1_555 1_555
C11 C12 1_555 1_555
C13 O9 1_555 1_555

#END
