
#######################################################################
#
#                 Cambridge Crystallographic Data Centre
#                                CCDC 
#
#######################################################################
#
# If this CIF has been generated from an entry in the Cambridge 
# Structural Database, then it will include bibliographic, chemical, 
# crystal, experimental, refinement or atomic coordinate data resulting 
# from the CCDC's data processing and validation procedures.
#
#######################################################################

data_TUYLUW
_symmetry_cell_setting           monoclinic
_symmetry_space_group_name_H-M   'C 2/c'
_symmetry_Int_Tables_number      15
_space_group_name_Hall           '-C 2yn'
loop_
_symmetry_equiv_pos_site_id
_symmetry_equiv_pos_as_xyz
1 x,y,z
2 -x,y,1/2-z
3 1/2+x,1/2+y,z
4 1/2-x,1/2+y,1/2-z
5 -x,-y,-z
6 x,-y,1/2+z
7 1/2-x,1/2-y,-z
8 1/2+x,1/2-y,1/2+z
_cell_length_a                   16.873(3)
_cell_length_b                   25.268(5)
_cell_length_c                   10.680(2)
_cell_angle_alpha                90
_cell_angle_beta                 119.457(2)
_cell_angle_gamma                90
_cell_volume                     3964.75
loop_
_atom_site_label
_atom_site_type_symbol
_atom_site_fract_x
_atom_site_fract_y
_atom_site_fract_z
Cu1 Cu 0.20670(2) 0.245297(13) 0.86000(4)
O1 O 0.28921(14) 0.30091(8) 0.8613(2)
O2 O 0.12894(14) 0.30247(8) 0.8663(2)
O3 O 0.20118(14) 0.30914(8) 1.1067(2)
O4 O 0.36203(14) 0.30920(8) 1.1011(2)
N1 N 0.12925(17) 0.23785(9) 0.6304(3)
C1 C 0.3447(2) 0.32379(11) 0.9775(3)
C2 C 0.3925(2) 0.37296(12) 0.9690(3)
H1 H 0.4590 0.3672 1.0265
H2 H 0.3769 0.4026 1.0138
C3 C 0.3695(3) 0.38938(13) 0.8177(4)
H3 H 0.3025 0.3887 0.7556
H4 H 0.3953 0.3628 0.7796
C4 C 0.4042(3) 0.44405(12) 0.8066(4)
H5 H 0.4708 0.4453 0.8726
H6 H 0.3936 0.4488 0.7076
C5 C 0.3604(2) 0.48996(12) 0.8420(4)
H7 H 0.3817 0.4899 0.9465
H8 H 0.2935 0.4851 0.7907
C6 C 0.3829(2) 0.54323(13) 0.7998(4)
H9 H 0.4498 0.5470 0.8470
H10 H 0.3589 0.5436 0.6946
C7 C 0.3440(3) 0.59044(14) 0.8405(4)
H11 H 0.2777 0.5869 0.7950
H12 H 0.3591 0.6231 0.8075
H13 H 0.3702 0.5916 0.9452
C8 C 0.1429(2) 0.32432(11) 0.9818(3)
C9 C 0.0902(2) 0.37372(11) 0.9711(3)
H14 H 0.0891 0.3791 1.0621
H15 H 0.0266 0.3699 0.8924
C10 C 0.1344(2) 0.42176(12) 0.9417(3)
H16 H 0.2007 0.4211 1.0092
H17 H 0.1250 0.4192 0.8428
C11 C 0.0956(2) 0.47403(12) 0.9580(4)
H18 H 0.1050 0.4763 1.0569
H19 H 0.0292 0.4743 0.8908
C12 C 0.1379(2) 0.52298(12) 0.9292(4)
H20 H 0.2049 0.5214 0.9907
H21 H 0.1238 0.5226 0.8276
C13 C 0.1031(3) 0.57431(12) 0.9586(4)
H22 H 0.1183 0.5749 1.0607
H23 H 0.0360 0.5753 0.8987
C14 C 0.1430(3) 0.62375(13) 0.9276(4)
H24 H 0.2096 0.6228 0.9854
H25 H 0.1200 0.6554 0.9523
H26 H 0.1250 0.6247 0.8253
C15 C 0.0410(2) 0.25034(11) 0.5615(3)
H27 H 0.0132 0.2598 0.6171
C16 C -0.0124(2) 0.25029(11) 0.4125(3)
H28 H -0.0751 0.2594 0.3680
C17 C 0.0271(2) 0.23681(11) 0.3298(3)
C18 C 0.1196(2) 0.22337(11) 0.4010(3)
H29 H 0.1492 0.2140 0.3481
C19 C 0.1669(2) 0.22408(11) 0.5495(3)
H30 H 0.2293 0.2143 0.5970
N1A N -0.12925(17) 0.23785(9) -0.1304(3)
C15A C -0.0410(2) 0.25034(11) -0.0615(3)
H27A H -0.0132 0.2598 -0.1171
C16A C 0.0124(2) 0.25029(11) 0.0875(3)
H28A H 0.0751 0.2594 0.1320
C17A C -0.0271(2) 0.23681(11) 0.1702(3)
C18A C -0.1196(2) 0.22337(11) 0.0990(3)
H29A H -0.1492 0.2140 0.1519
C19A C -0.1669(2) 0.22408(11) -0.0495(3)
H30A H -0.2293 0.2143 -0.0970
Cu1A Cu -0.20670(2) 0.245297(13) -0.36000(4)
O1A O -0.28921(14) 0.30091(8) -0.3613(2)
O2A O -0.12894(14) 0.30247(8) -0.3663(2)
O3A O -0.20118(14) 0.30914(8) -0.6067(2)
O4A O -0.36203(14) 0.30920(8) -0.6011(2)
C1A C -0.3447(2) 0.32379(11) -0.4775(3)
C2A C -0.3925(2) 0.37296(12) -0.4690(3)
H1A H -0.4590 0.3672 -0.5265
H2A H -0.3769 0.4026 -0.5138
C3A C -0.3695(3) 0.38938(13) -0.3177(4)
H3A H -0.3025 0.3887 -0.2556
H4A H -0.3953 0.3628 -0.2796
C4A C -0.4042(3) 0.44405(12) -0.3066(4)
H5A H -0.4708 0.4453 -0.3726
H6A H -0.3936 0.4488 -0.2076
C5A C -0.3604(2) 0.48996(12) -0.3420(4)
H7A H -0.3817 0.4899 -0.4465
H8A H -0.2935 0.4851 -0.2907
C6A C -0.3829(2) 0.54323(13) -0.2998(4)
H9A H -0.4498 0.5470 -0.3470
H10A H -0.3589 0.5436 -0.1946
C7A C -0.3440(3) 0.59044(14) -0.3405(4)
H11A H -0.2777 0.5869 -0.2950
H12A H -0.3591 0.6231 -0.3075
H13A H -0.3702 0.5916 -0.4452
C8A C -0.1429(2) 0.32432(11) -0.4818(3)
C9A C -0.0902(2) 0.37372(11) -0.4711(3)
H14A H -0.0891 0.3791 -0.5621
H15A H -0.0266 0.3699 -0.3924
C10A C -0.1344(2) 0.42176(12) -0.4417(3)
H16A H -0.2007 0.4211 -0.5092
H17A H -0.1250 0.4192 -0.3428
C11A C -0.0956(2) 0.47403(12) -0.4580(4)
H18A H -0.1050 0.4763 -0.5569
H19A H -0.0292 0.4743 -0.3908
C12A C -0.1379(2) 0.52298(12) -0.4292(4)
H20A H -0.2049 0.5214 -0.4907
H21A H -0.1238 0.5226 -0.3276
C13A C -0.1031(3) 0.57431(12) -0.4586(4)
H22A H -0.1183 0.5749 -0.5607
H23A H -0.0360 0.5753 -0.3987
C14A C -0.1430(3) 0.62375(13) -0.4276(4)
H24A H -0.2096 0.6228 -0.4854
H25A H -0.1200 0.6554 -0.4523
H26A H -0.1250 0.6247 -0.3253
Cu1F Cu 0.29330(2) 0.254703(13) 1.14000(4)
Cu1G Cu -0.29330(2) 0.254703(13) -0.64000(4)
O3F O 0.29882(14) 0.19086(8) 0.8933(2)
O3G O -0.29882(14) 0.19086(8) -0.3933(2)
O4F O 0.13797(14) 0.19080(8) 0.8989(2)
O4G O -0.13797(14) 0.19080(8) -0.3989(2)
loop_
_geom_bond_atom_site_label_1
_geom_bond_atom_site_label_2
_geom_bond_site_symmetry_1
_geom_bond_site_symmetry_2
Cu1 O1 1_555 1_555
O1 C1 1_555 1_555
O2 Cu1 1_555 1_555
O3 C8 1_555 1_555
O4 C1 1_555 1_555
N1 Cu1 1_555 1_555
C1 C2 1_555 1_555
C2 H1 1_555 1_555
H2 C2 1_555 1_555
C3 C2 1_555 1_555
H3 C3 1_555 1_555
H4 C3 1_555 1_555
C4 C3 1_555 1_555
H5 C4 1_555 1_555
H6 C4 1_555 1_555
C5 C4 1_555 1_555
H7 C5 1_555 1_555
H8 C5 1_555 1_555
C6 C5 1_555 1_555
H9 C6 1_555 1_555
H10 C6 1_555 1_555
C7 C6 1_555 1_555
H11 C7 1_555 1_555
H12 C7 1_555 1_555
H13 C7 1_555 1_555
C8 O2 1_555 1_555
C9 C8 1_555 1_555
H14 C9 1_555 1_555
H15 C9 1_555 1_555
C10 C9 1_555 1_555
H16 C10 1_555 1_555
H17 C10 1_555 1_555
C11 C10 1_555 1_555
H18 C11 1_555 1_555
H19 C11 1_555 1_555
C12 C11 1_555 1_555
H20 C12 1_555 1_555
H21 C12 1_555 1_555
C13 C12 1_555 1_555
H22 C13 1_555 1_555
H23 C13 1_555 1_555
C14 C13 1_555 1_555
H24 C14 1_555 1_555
H25 C14 1_555 1_555
H26 C14 1_555 1_555
C15 N1 1_555 1_555
H27 C15 1_555 1_555
C16 C15 1_555 1_555
H28 C16 1_555 1_555
C17 C16 1_555 1_555
C18 C17 1_555 1_555
H29 C18 1_555 1_555
C19 N1 1_555 1_555
H30 C19 1_555 1_555
N1A C15A 1_555 1_555
C15A H27A 1_555 1_555
C16A C15A 1_555 1_555
H28A C16A 1_555 1_555
C17A C17 1_555 1_555
C18A C17A 1_555 1_555
H29A C18A 1_555 1_555
C19A N1A 1_555 1_555
H30A C19A 1_555 1_555
Cu1A N1A 1_555 1_555
O1A Cu1A 1_555 1_555
O2A Cu1A 1_555 1_555
O3A C8A 1_555 1_555
O4A C1A 1_555 1_555
C1A O1A 1_555 1_555
C2A C1A 1_555 1_555
H1A C2A 1_555 1_555
H2A C2A 1_555 1_555
C3A C2A 1_555 1_555
H3A C3A 1_555 1_555
H4A C3A 1_555 1_555
C4A C3A 1_555 1_555
H5A C4A 1_555 1_555
H6A C4A 1_555 1_555
C5A C4A 1_555 1_555
H7A C5A 1_555 1_555
H8A C5A 1_555 1_555
C6A C5A 1_555 1_555
H9A C6A 1_555 1_555
H10A C6A 1_555 1_555
C7A C6A 1_555 1_555
H11A C7A 1_555 1_555
H12A C7A 1_555 1_555
H13A C7A 1_555 1_555
C8A O2A 1_555 1_555
C9A C8A 1_555 1_555
H14A C9A 1_555 1_555
H15A C9A 1_555 1_555
C10A C9A 1_555 1_555
H16A C10A 1_555 1_555
H17A C10A 1_555 1_555
C11A C10A 1_555 1_555
H18A C11A 1_555 1_555
H19A C11A 1_555 1_555
C12A C11A 1_555 1_555
H20A C12A 1_555 1_555
H21A C12A 1_555 1_555
C13A C12A 1_555 1_555
H22A C13A 1_555 1_555
H23A C13A 1_555 1_555
C14A C13A 1_555 1_555
H24A C14A 1_555 1_555
H25A C14A 1_555 1_555
H26A C14A 1_555 1_555
Cu1F Cu1 1_555 1_555
Cu1G Cu1A 1_555 1_555
O3F Cu1 1_555 1_555
O3G Cu1A 1_555 1_555
O4F Cu1 1_555 1_555
O4G Cu1A 1_555 1_555
O3 Cu1F 1_555 1_555
O4 Cu1F 1_555 1_555
C18 C19 1_555 1_555
C16A C17A 1_555 1_555
C18A C19A 1_555 1_555
O3A Cu1G 1_555 1_555
O4A Cu1G 1_555 1_555

#END
