
#######################################################################
#
#                 Cambridge Crystallographic Data Centre
#                                CCDC 
#
#######################################################################
#
# If this CIF has been generated from an entry in the Cambridge 
# Structural Database, then it will include bibliographic, chemical, 
# crystal, experimental, refinement or atomic coordinate data resulting 
# from the CCDC's data processing and validation procedures.
#
#######################################################################

data_TUYLEF
_symmetry_cell_setting           triclinic
_symmetry_space_group_name_H-M   'P -1'
_symmetry_Int_Tables_number      2
_space_group_name_Hall           '-P 1'
loop_
_symmetry_equiv_pos_site_id
_symmetry_equiv_pos_as_xyz
1 x,y,z
2 -x,-y,-z
_cell_length_a                   9.6967(6)
_cell_length_b                   10.4415(7)
_cell_length_c                   11.1027(7)
_cell_angle_alpha                95.090(3)
_cell_angle_beta                 92.821(4)
_cell_angle_gamma                107.231(3)
_cell_volume                     1066.07
loop_
_atom_site_label
_atom_site_type_symbol
_atom_site_fract_x
_atom_site_fract_y
_atom_site_fract_z
O1 O 0.8004(9) 0.8718(9) 0.2592(8)
H1 H 0.8140 0.8868 0.1866
H2 H 0.8381 0.9440 0.3056
O2 O 0.8752(9) 0.1815(10) 0.3191(8)
H3 H 0.8272 0.2305 0.3491
H4 H 0.9531 0.1951 0.3618
O3 O 0.0966(12) 0.1242(11) 0.4714(11)
H5 H 0.1105 0.0480 0.4591
H6 H 0.1561 0.1596 0.4239
Yb1 Yb 0.18007(4) 0.38661(3) 0.05492(3)
Yb2 Yb 0.37731(4) 0.93688(3) 0.23858(3)
P1 P 0.0655(2) 0.6386(2) 0.20855(19)
O4 O 0.0905(6) 0.5031(6) 0.1911(6)
O5 O 0.2015(6) 0.7517(6) 0.2132(5)
O6 O -0.0504(6) 0.6508(6) 0.1179(5)
O7 O 0.1771(6) 0.1611(6) 0.0057(5)
O8 O 0.2436(7) 0.2944(6) 0.2253(6)
O9 O 0.2192(6) -0.0179(6) 0.0792(6)
O10 O 0.2973(6) 0.1209(6) 0.2974(5)
O11 O 0.3561(6) 0.3825(6) -0.0855(5)
O12 O 0.5848(6) 0.4716(6) -0.1306(5)
O13 O 0.4303(6) 0.8456(6) 0.0535(5)
O14 O 0.4775(6) 0.8955(6) -0.1354(5)
O15 O 0.5782(6) 1.0554(6) 0.3694(5)
O16 O 0.6740(6) 1.0852(6) 0.5606(5)
O17 O -0.0563(6) 0.2440(6) 0.0937(6)
H7 H -0.0440 0.2037 0.1537
H8 H -0.1133 0.1809 0.0377
O18 O 0.2329(6) 0.6001(6) -0.0354(5)
H9 H 0.1582 0.6294 -0.0548
H10 H 0.3132 0.6616 -0.0006
O19 O 0.5058(7) 0.7834(6) 0.2859(6)
H11 H 0.4594 0.7053 0.2527
H12 H 0.5885 0.8080 0.2589
N1 N -0.2400(8) 0.4879(8) 0.2974(7)
H13 H -0.1933 0.4921 0.2191
C1 C -0.3632(10) 0.4027(10) 0.3175(10)
H14 H -0.4266 0.3525 0.2529
C2 C -0.3979(11) 0.3879(10) 0.4325(10)
H15 H -0.4869 0.3287 0.4465
C3 C -0.3083(11) 0.4558(10) 0.5259(9)
H16 H -0.3334 0.4447 0.6050
C4 C -0.1758(11) 0.5439(11) 0.5034(9)
H17 H -0.1101 0.5899 0.5682
C5 C -0.1406(9) 0.5640(9) 0.3868(8)
C6 C -0.0013(9) 0.6627(9) 0.3558(8)
H18 H 0.0741 0.6633 0.4168
H19 H -0.0136 0.7518 0.3643
C7 C 0.2538(9) 0.1775(9) 0.2149(8)
C8 C 0.2138(8) 0.1015(8) 0.0872(8)
C9 C 0.4837(9) 0.4587(8) -0.0623(8)
C10 C 0.4734(8) 0.9269(8) -0.0238(8)
C11 C 0.5723(8) 1.0408(7) 0.4796(7)
O11A O 0.6439(6) 0.6175(6) 0.0855(5)
O12A O 0.4152(6) 0.5284(6) 0.1306(5)
C9A C 0.5163(9) 0.5413(8) 0.0623(8)
O13A O 0.5697(6) 1.1544(6) -0.0535(5)
O14A O 0.5225(6) 1.1045(6) 0.1354(5)
C10A C 0.5266(8) 1.0731(8) 0.0238(8)
O15A O 0.4218(6) 0.9446(6) 0.6306(5)
O16A O 0.3260(6) 0.9148(6) 0.4394(5)
C11A C 0.4277(8) 0.9592(7) 0.5204(7)
Yb1A Yb -0.18007(4) 0.61339(3) -0.05492(3)
Yb2A Yb -0.37731(4) 0.06312(3) -0.23858(3)
P1A P -0.0655(2) 0.3614(2) -0.20855(19)
O4A O -0.0905(6) 0.4969(6) -0.1911(6)
O5A O -0.2015(6) 0.2483(6) -0.2132(5)
O6A O 0.0504(6) 0.3492(6) -0.1179(5)
O7A O -0.1771(6) 0.8389(6) -0.0057(5)
O8A O -0.2436(7) 0.7056(6) -0.2253(6)
O9A O -0.2192(6) 1.0179(6) -0.0792(6)
O10A O -0.2973(6) 0.8791(6) -0.2974(5)
O17A O 0.0563(6) 0.7560(6) -0.0937(6)
H7A H 0.0440 0.7963 -0.1537
H8A H 0.1133 0.8191 -0.0377
O18A O -0.2329(6) 0.3999(6) 0.0354(5)
H9A H -0.1582 0.3706 0.0548
H10A H -0.3132 0.3384 0.0006
O19A O -0.5058(7) 0.2166(6) -0.2859(6)
H11A H -0.4594 0.2947 -0.2527
H12A H -0.5885 0.1920 -0.2589
N1A N 0.2400(8) 0.5121(8) -0.2974(7)
H13A H 0.1933 0.5079 -0.2191
C1A C 0.3632(10) 0.5973(10) -0.3175(10)
H14A H 0.4266 0.6475 -0.2529
C2A C 0.3979(11) 0.6121(10) -0.4325(10)
H15A H 0.4869 0.6713 -0.4465
C3A C 0.3083(11) 0.5442(10) -0.5259(9)
H16A H 0.3334 0.5553 -0.6050
C4A C 0.1758(11) 0.4561(11) -0.5034(9)
H17A H 0.1101 0.4101 -0.5682
C5A C 0.1406(9) 0.4360(9) -0.3868(8)
C6A C 0.0013(9) 0.3373(9) -0.3558(8)
H18A H -0.0741 0.3367 -0.4168
H19A H 0.0136 0.2482 -0.3643
C7A C -0.2538(9) 0.8225(9) -0.2149(8)
C8A C -0.2138(8) 0.8985(8) -0.0872(8)
Yb1A_2 Yb 0.81993(4) 0.61339(3) -0.05492(3)
Yb2_2 Yb 0.37731(4) -0.06312(3) 0.23858(3)
Yb2A_2 Yb -0.37731(4) 1.06312(3) -0.23858(3)
Yb2A_3 Yb 0.62269(4) 1.06312(3) -0.23858(3)
Yb2A_4 Yb 0.62269(4) 1.06312(3) 0.76142(3)
O9_2 O 0.2192(6) 0.9821(6) 0.0792(6)
O9A_2 O -0.2192(6) 0.0179(6) -0.0792(6)
O10_2 O 0.2973(6) 1.1209(6) 0.2974(5)
O10A_2 O -0.2973(6) -0.1209(6) -0.2974(5)
O11A_2 O -0.3561(6) 0.6175(6) 0.0855(5)
O12_2 O -0.4152(6) 0.4716(6) -0.1306(5)
O13A_2 O -0.4303(6) 0.1544(6) -0.0535(5)
O14_2 O -0.5225(6) -0.1045(6) -0.1354(5)
O15A_2 O -0.5782(6) -0.0554(6) -0.3694(5)
O16_2 O -0.3260(6) 0.0852(6) -0.4394(5)
loop_
_geom_bond_atom_site_label_1
_geom_bond_atom_site_label_2
_geom_bond_site_symmetry_1
_geom_bond_site_symmetry_2
O1 H1 1_555 1_555
H2 O1 1_555 1_555
O2 H3 1_555 1_555
H4 O2 1_555 1_555
O3 H5 1_555 1_555
H6 O3 1_555 1_555
Yb1 O4 1_555 1_555
Yb2 O5 1_555 1_555
P1 O4 1_555 1_555
O5 P1 1_555 1_555
O6 P1 1_555 1_555
O7 Yb1 1_555 1_555
O8 Yb1 1_555 1_555
O9 C8 1_555 1_555
O10 C7 1_555 1_555
O11 Yb1 1_555 1_555
O12 C9 1_555 1_555
O13 Yb2 1_555 1_555
O14 C10 1_555 1_555
O15 Yb2 1_555 1_555
O16 C11 1_555 1_555
O17 Yb1 1_555 1_555
H7 O17 1_555 1_555
H8 O17 1_555 1_555
O18 Yb1 1_555 1_555
H9 O18 1_555 1_555
H10 O18 1_555 1_555
O19 Yb2 1_555 1_555
H11 O19 1_555 1_555
H12 O19 1_555 1_555
N1 H13 1_555 1_555
C1 N1 1_555 1_555
H14 C1 1_555 1_555
C2 C1 1_555 1_555
H15 C2 1_555 1_555
C3 C2 1_555 1_555
H16 C3 1_555 1_555
C4 C3 1_555 1_555
H17 C4 1_555 1_555
C5 N1 1_555 1_555
C6 P1 1_555 1_555
H18 C6 1_555 1_555
H19 C6 1_555 1_555
C7 O8 1_555 1_555
C8 O7 1_555 1_555
C9 O11 1_555 1_555
C10 O13 1_555 1_555
C11 O15 1_555 1_555
O11A C9A 1_555 1_555
O12A Yb1 1_555 1_555
C9A C9 1_555 1_555
O13A C10A 1_555 1_555
O14A Yb2 1_555 1_555
C10A C10 1_555 1_555
O15A C11A 1_555 1_555
O16A Yb2 1_555 1_555
C11A C11 1_555 1_555
Yb1A O6 1_555 1_555
Yb2A O5A 1_555 1_555
P1A O4A 1_555 1_555
O4A Yb1A 1_555 1_555
O5A P1A 1_555 1_555
O6A Yb1 1_555 1_555
O7A Yb1A 1_555 1_555
O8A Yb1A 1_555 1_555
O9A C8A 1_555 1_555
O10A C7A 1_555 1_555
O17A Yb1A 1_555 1_555
H7A O17A 1_555 1_555
H8A O17A 1_555 1_555
O18A Yb1A 1_555 1_555
H9A O18A 1_555 1_555
H10A O18A 1_555 1_555
O19A Yb2A 1_555 1_555
H11A O19A 1_555 1_555
H12A O19A 1_555 1_555
N1A H13A 1_555 1_555
C1A N1A 1_555 1_555
H14A C1A 1_555 1_555
C2A C1A 1_555 1_555
H15A C2A 1_555 1_555
C3A C2A 1_555 1_555
H16A C3A 1_555 1_555
C4A C3A 1_555 1_555
H17A C4A 1_555 1_555
C5A N1A 1_555 1_555
C6A P1A 1_555 1_555
H18A C6A 1_555 1_555
H19A C6A 1_555 1_555
C7A O8A 1_555 1_555
C8A O7A 1_555 1_555
Yb1A_2 O12 1_555 1_555
Yb2_2 O9 1_555 1_555
Yb2A_2 O9A 1_555 1_555
Yb2A_3 O14 1_555 1_555
Yb2A_4 O16 1_555 1_555
O9_2 Yb2 1_555 1_555
O9A_2 Yb2A 1_555 1_555
O10_2 Yb2 1_555 1_555
O10A_2 Yb2A 1_555 1_555
O11A_2 Yb1A 1_555 1_555
O12_2 Yb1A 1_555 1_555
O13A_2 Yb2A 1_555 1_555
O14_2 Yb2A 1_555 1_555
O15A_2 Yb2A 1_555 1_555
O16_2 Yb2A 1_555 1_555
O10 Yb2_2 1_555 1_555
C4 C5 1_555 1_555
C5 C6 1_555 1_555
C7 C8 1_555 1_555
O11A Yb1A_2 1_555 1_555
O12A C9A 1_555 1_555
O13A Yb2A_3 1_555 1_555
O14A C10A 1_555 1_555
O15A Yb2A_4 1_555 1_555
O16A C11A 1_555 1_555
P1A O6A 1_555 1_555
O10A Yb2A_2 1_555 1_555
C4A C5A 1_555 1_555
C5A C6A 1_555 1_555
C7A C8A 1_555 1_555

#END
