
#######################################################################
#
#                 Cambridge Crystallographic Data Centre
#                                CCDC 
#
#######################################################################
#
# If this CIF has been generated from an entry in the Cambridge 
# Structural Database, then it will include bibliographic, chemical, 
# crystal, experimental, refinement or atomic coordinate data resulting 
# from the CCDC's data processing and validation procedures.
#
#######################################################################

data_TUYNEI
_symmetry_cell_setting           orthorhombic
_symmetry_space_group_name_H-M   'P 21 21 21'
_symmetry_Int_Tables_number      19
_space_group_name_Hall           'P 2ac 2ab'
loop_
_symmetry_equiv_pos_site_id
_symmetry_equiv_pos_as_xyz
1 x,y,z
2 1/2-x,-y,1/2+z
3 -x,1/2+y,1/2-z
4 1/2+x,1/2-y,-z
_cell_length_a                   9.809(2)
_cell_length_b                   11.595(2)
_cell_length_c                   12.065(2)
_cell_angle_alpha                90
_cell_angle_beta                 90
_cell_angle_gamma                90
_cell_volume                     1372.22
loop_
_atom_site_label
_atom_site_type_symbol
_atom_site_fract_x
_atom_site_fract_y
_atom_site_fract_z
Cu1 Cu 0.18999(6) 1.25687(6) -0.07259(5)
O1 O 0.0045(4) 1.2607(4) -0.0160(3)
O2 O -0.1270(4) 1.2233(4) 0.1300(3)
O3 O 0.2263(3) 1.1945(3) 0.0786(3)
H1 H 0.3129 1.1832 0.0669
O4 O 0.3226(4) 0.9855(4) 0.1239(3)
H2 H 0.3897 0.9746 0.0872
O5 O 0.3214(4) 0.9270(3) 0.3497(3)
H3 H 0.3917 0.9236 0.3083
O6 O 0.2314(4) 1.1472(3) 0.4317(4)
H4 H 0.2108 1.0887 0.4677
C1 C -0.0143(5) 1.2203(4) 0.0802(5)
C2 C 0.1020(5) 1.1582(5) 0.1370(4)
C3 C 0.0805(6) 1.0272(5) 0.1233(5)
H5 H -0.0055 1.0053 0.1571
H6 H 0.0757 1.0084 0.0451
C4 C 0.1957(6) 0.9590(5) 0.1768(4)
H7 H 0.1771 0.8763 0.1698
C5 C 0.2112(5) 0.9905(5) 0.2999(4)
H8 H 0.1268 0.9686 0.3379
C6 C 0.2314(5) 1.1200(5) 0.3156(4)
H9 H 0.3193 1.1425 0.2836
C7 C 0.1178(5) 1.1895(5) 0.2597(4)
H10 H 0.0324 1.1750 0.2977
H11 H 0.1380 1.2711 0.2661
O7 O 0.2828(8) 1.4668(8) 0.0109(7)
O8 O 0.2259(7) 1.6388(6) 0.1014(6)
O9 O 0.1537(8) 1.4649(7) 0.1666(6)
O10 O 0.0628(6) 1.5374(7) 0.0054(6)
Cl1 Cl 0.18549(17) 1.52866(13) 0.06675(16)
O11 O 0.1200(5) 1.3367(5) -0.2034(4)
H12 H 0.1764 1.3218 -0.2529
H13 H 0.0565 1.2915 -0.2165
Cu1A Cu 0.31001(6) 0.74313(6) 0.42741(5)
Cu1C Cu -0.31001(6) 1.24313(6) 0.07259(5)
O2C O 0.3730(4) 1.2767(4) -0.1300(3)
O5A O 0.1786(4) 1.0730(3) -0.1503(3)
O12 O 0.0044(6) 1.7785(6) -0.0445(6)
H14 H 0.0816 1.7983 -0.0653
H15 H -0.0667 1.8124 -0.0676
O13 O 0.4316(5) 1.3853(6) 0.2547(5)
H16 H 0.4396 1.3341 0.3026
H17 H 0.3479 1.3849 0.2369
loop_
_geom_bond_atom_site_label_1
_geom_bond_atom_site_label_2
_geom_bond_site_symmetry_1
_geom_bond_site_symmetry_2
Cu1 O1 1_555 1_555
O1 C1 1_555 1_555
O2 C1 1_555 1_555
O3 Cu1 1_555 1_555
H1 O3 1_555 1_555
O4 H2 1_555 1_555
O5 H3 1_555 1_555
O6 H4 1_555 1_555
C1 C2 1_555 1_555
C2 O3 1_555 1_555
C3 C2 1_555 1_555
H5 C3 1_555 1_555
H6 C3 1_555 1_555
C4 O4 1_555 1_555
H7 C4 1_555 1_555
C5 O5 1_555 1_555
H8 C5 1_555 1_555
C6 O6 1_555 1_555
H9 C6 1_555 1_555
C7 C2 1_555 1_555
H10 C7 1_555 1_555
H11 C7 1_555 1_555
O7 Cu1 1_555 1_555
O8 Cl1 1_555 1_555
O9 Cl1 1_555 1_555
O10 Cl1 1_555 1_555
Cl1 O7 1_555 1_555
O11 Cu1 1_555 1_555
H12 O11 1_555 1_555
H13 O11 1_555 1_555
O12 H14 1_555 1_555
H15 O12 1_555 1_555
O13 H16 1_555 1_555
H17 O13 1_555 1_555
Cu1A O5 1_555 1_555
Cu1C O2 1_555 1_555
O2C Cu1 1_555 1_555
O5A Cu1 1_555 1_555
C3 C4 1_555 1_555
C4 C5 1_555 1_555
C5 C6 1_555 1_555
C6 C7 1_555 1_555

#END
