
#######################################################################
#
#                 Cambridge Crystallographic Data Centre
#                                CCDC 
#
#######################################################################
#
# If this CIF has been generated from an entry in the Cambridge 
# Structural Database, then it will include bibliographic, chemical, 
# crystal, experimental, refinement or atomic coordinate data resulting 
# from the CCDC's data processing and validation procedures.
#
#######################################################################

data_TUYWOA
_symmetry_cell_setting           monoclinic
_symmetry_space_group_name_H-M   'P 21/n'
_symmetry_Int_Tables_number      14
_space_group_name_Hall           '-P 2yn'
loop_
_symmetry_equiv_pos_site_id
_symmetry_equiv_pos_as_xyz
1 x,y,z
2 1/2-x,1/2+y,1/2-z
3 -x,-y,-z
4 1/2+x,1/2-y,1/2+z
_cell_length_a                   12.939(3)
_cell_length_b                   9.943(2)
_cell_length_c                   14.603(3)
_cell_angle_alpha                90
_cell_angle_beta                 97.10(3)
_cell_angle_gamma                90
_cell_volume                     1864.31
loop_
_atom_site_label
_atom_site_type_symbol
_atom_site_fract_x
_atom_site_fract_y
_atom_site_fract_z
Ag1 Ag -0.11989(2) -0.16507(3) 0.85518(2)
Ag2 Ag 0.42061(2) -0.16647(3) 1.10728(2)
C1 C 0.1703(3) -0.1588(4) 1.0756(3)
C2 C 0.2318(3) -0.1623(4) 0.9356(3)
H1 H 0.2875 -0.1679 0.9012
C3 C 0.0665(3) -0.1537(4) 1.0269(3)
H2 H 0.0101 -0.1520 1.0606
C4 C -0.4413(3) -0.1477(4) 0.9381(3)
H3 H -0.5066 -0.1321 0.9055
C5 C 0.1334(3) -0.1545(4) 0.8893(3)
H4 H 0.1239 -0.1511 0.8252
C6 C -0.3583(3) -0.1562(4) 0.8886(3)
H5 H -0.3681 -0.1460 0.8249
C7 C -0.3392(3) -0.1831(3) 1.0742(3)
C8 C -0.2535(3) -0.1927(4) 1.0232(3)
H6 H -0.1879 -0.2091 1.0551
C9 C -0.0265(3) -0.4511(4) 0.8020(3)
C10 C -0.0138(3) -0.4796(3) 0.9041(3)
C11 C -0.0983(3) -0.4766(4) 0.9544(3)
H7 H -0.1646 -0.4599 0.9241
C12 C -0.0506(3) -0.0217(4) 0.6871(3)
C13 C 0.0856(3) -0.5021(4) 0.9517(3)
H8 H 0.1433 -0.5027 0.9196
C14 C -0.0242(3) -0.0090(4) 0.5908(3)
C15 C 0.0762(3) 0.0303(4) 0.5740(3)
C16 C -0.1007(3) -0.0396(4) 0.5156(3)
N1 N -0.3266(3) -0.1933(4) 1.1659(3)
H9 H -0.3794 -0.1852 1.1960
H10 H -0.2657 -0.2080 1.1950
N2 N 0.1837(3) -0.1582(4) 1.1679(3)
H11 H 0.2455 -0.1603 1.1973
H12 H 0.1305 -0.1559 1.1978
N3 N -0.2615(2) -0.1795(3) 0.9332(3)
N4 N 0.2524(2) -0.1624(3) 1.0281(3)
N5 N 0.0493(2) -0.1516(3) 0.9368(3)
N6 N -0.4352(2) -0.1601(3) 1.0298(2)
O1 O -0.1078(2) -0.3901(3) 0.7682(2)
O2 O -0.1119(3) -0.1148(3) 0.7021(2)
O4 O 0.0439(2) -0.4850(3) 0.7558(2)
O5 O -0.0109(2) 0.0577(3) 0.7482(2)
Ag1B Ag 0.11989(2) -0.83493(3) 1.14482(2)
Ag1B_2 Ag 0.11989(2) 0.16507(3) 0.14482(2)
Ag1_2 Ag 0.88011(2) -0.16507(3) 0.85518(2)
Ag2_2 Ag -0.57939(2) -0.16647(3) 1.10728(2)
Ag2C Ag -0.07939(2) -0.33353(3) 0.60728(2)
Ag2A Ag 0.07939(2) -0.66647(3) 1.39272(2)
Ag2B Ag -0.42061(2) -0.83353(3) 0.89272(2)
C1B C -0.1703(3) -0.8412(4) 0.9244(3)
C2B C -0.2318(3) -0.8377(4) 1.0644(3)
H1B H -0.2875 -0.8321 1.0988
C3B C -0.0665(3) -0.8463(4) 0.9731(3)
H2B H -0.0101 -0.8480 0.9394
C4_2 C 0.5587(3) -0.1477(4) 0.9381(3)
H3_2 H 0.4934 -0.1321 0.9055
C5B C -0.1334(3) -0.8455(4) 1.1107(3)
H4B H -0.1239 -0.8489 1.1748
C6_2 C 0.6417(3) -0.1562(4) 0.8886(3)
H5_2 H 0.6319 -0.1460 0.8249
C7_2 C 0.6608(3) -0.1831(3) 1.0742(3)
C8_2 C 0.7465(3) -0.1927(4) 1.0232(3)
H6_2 H 0.8121 -0.2091 1.0551
C9B C 0.0265(3) -0.5489(4) 1.1980(3)
C10B C 0.0138(3) -0.5204(3) 1.0959(3)
C11B C 0.0983(3) -0.5234(4) 1.0456(3)
H7B H 0.1646 -0.5401 1.0759
C12B C 0.0506(3) 0.0217(4) 0.3129(3)
C13B C -0.0856(3) -0.4979(4) 1.0483(3)
H8B H -0.1433 -0.4973 1.0804
C14B C 0.0242(3) 0.0090(4) 0.4092(3)
C15B C -0.0762(3) -0.0303(4) 0.4260(3)
C16B C 0.1007(3) 0.0396(4) 0.4844(3)
N1_2 N 0.6734(3) -0.1933(4) 1.1659(3)
H9_2 H 0.6206 -0.1852 1.1960
H10_2 H 0.7343 -0.2080 1.1950
N2B N -0.1837(3) -0.8418(4) 0.8321(3)
H11B H -0.2455 -0.8397 0.8027
H12B H -0.1305 -0.8441 0.8022
N3_2 N 0.7385(2) -0.1795(3) 0.9332(3)
N3B N 0.2615(2) -0.8205(3) 1.0668(3)
N4B N -0.2524(2) -0.8376(3) 0.9719(3)
N4_2 N -0.7476(2) -0.1624(3) 1.0281(3)
N5B N -0.0493(2) -0.8484(3) 1.0632(3)
N6_2 N 0.5648(2) -0.1601(3) 1.0298(2)
O1B O 0.1078(2) -0.6099(3) 1.2318(2)
O1C O 0.3922(2) -0.1099(3) 1.2682(2)
O1C_2 O -0.6078(2) -0.1099(3) 1.2682(2)
O2B O 0.1119(3) 0.1148(3) 0.2979(2)
O2B_2 O 0.1119(3) -0.8852(3) 1.2979(2)
O4B O -0.0439(2) -0.5150(3) 1.2442(2)
O5B O 0.0109(2) -0.0577(3) 0.2518(2)
O3 O 0.1285(2) 0.2639(3) 0.7511(3)
H13 H 0.090(4) 0.201(5) 0.770(5)
H14 H 0.093(5) 0.326(5) 0.763(5)
loop_
_geom_bond_atom_site_label_1
_geom_bond_atom_site_label_2
_geom_bond_site_symmetry_1
_geom_bond_site_symmetry_2
Ag1 N3 1_555 1_555
Ag2 N4 1_555 1_555
C1 C3 1_555 1_555
C2 H1 1_555 1_555
C3 H2 1_555 1_555
C4 H3 1_555 1_555
C5 C2 1_555 1_555
H4 C5 1_555 1_555
C6 C4 1_555 1_555
H5 C6 1_555 1_555
C7 C8 1_555 1_555
C8 H6 1_555 1_555
C9 C10 1_555 1_555
C10 C11 1_555 1_555
C11 H7 1_555 1_555
C12 C14 1_555 1_555
C13 C10 1_555 1_555
H8 C13 1_555 1_555
C14 C15 1_555 1_555
C15 C16B 1_555 1_555
C16 C14 1_555 1_555
N1 C7 1_555 1_555
H9 N1 1_555 1_555
H10 N1 1_555 1_555
N2 C1 1_555 1_555
H11 N2 1_555 1_555
H12 N2 1_555 1_555
N3 C6 1_555 1_555
N4 C1 1_555 1_555
N5 Ag1 1_555 1_555
N6 C4 1_555 1_555
O1 Ag1 1_555 1_555
O2 Ag1 1_555 1_555
O3 H13 1_555 1_555
H14 O3 1_555 1_555
O4 C9 1_555 1_555
O5 C12 1_555 1_555
Ag1B N3B 1_555 1_555
Ag1B_2 O2B 1_555 1_555
Ag1_2 N3_2 1_555 1_555
Ag2_2 N6 1_555 1_555
Ag2C O1 1_555 1_555
Ag2A O1B 1_555 1_555
Ag2B N4B 1_555 1_555
C1B C3B 1_555 1_555
C2B H1B 1_555 1_555
C3B H2B 1_555 1_555
C4_2 H3_2 1_555 1_555
C5B C2B 1_555 1_555
H4B C5B 1_555 1_555
C6_2 C4_2 1_555 1_555
H5_2 C6_2 1_555 1_555
C7_2 C8_2 1_555 1_555
C8_2 H6_2 1_555 1_555
C9B C10B 1_555 1_555
C10B C11B 1_555 1_555
C11B C13 1_555 1_555
H7B C11B 1_555 1_555
C12B C14B 1_555 1_555
C13B C11 1_555 1_555
H8B C13B 1_555 1_555
C14B C15B 1_555 1_555
C15B C16 1_555 1_555
C16B C14B 1_555 1_555
N1_2 C7_2 1_555 1_555
H9_2 N1_2 1_555 1_555
H10_2 N1_2 1_555 1_555
N2B C1B 1_555 1_555
H11B N2B 1_555 1_555
H12B N2B 1_555 1_555
N3_2 C6_2 1_555 1_555
N4B C1B 1_555 1_555
N4_2 Ag2_2 1_555 1_555
N5B Ag1B 1_555 1_555
N6_2 Ag2 1_555 1_555
O1B Ag1B 1_555 1_555
O1C Ag2 1_555 1_555
O1C_2 Ag2_2 1_555 1_555
O2B C12B 1_555 1_555
O2B_2 Ag1B 1_555 1_555
O4B C9B 1_555 1_555
O5B C12B 1_555 1_555
C2 N4 1_555 1_555
C3 N5 1_555 1_555
C5 N5 1_555 1_555
C7 N6 1_555 1_555
C8 N3 1_555 1_555
C9 O1 1_555 1_555
C12 O2 1_555 1_555
C2B N4B 1_555 1_555
C3B N5B 1_555 1_555
C4_2 N6_2 1_555 1_555
C5B N5B 1_555 1_555
C7_2 N6_2 1_555 1_555
C8_2 N3_2 1_555 1_555
C9B O1B 1_555 1_555
C10B C13B 1_555 1_555

#END
