
#######################################################################
#
#                 Cambridge Crystallographic Data Centre
#                                CCDC 
#
#######################################################################
#
# If this CIF has been generated from an entry in the Cambridge 
# Structural Database, then it will include bibliographic, chemical, 
# crystal, experimental, refinement or atomic coordinate data resulting 
# from the CCDC's data processing and validation procedures.
#
#######################################################################

data_TUYWUG
_symmetry_cell_setting           monoclinic
_symmetry_space_group_name_H-M   'C 2/c'
_symmetry_Int_Tables_number      15
_space_group_name_Hall           '-C 2yn'
loop_
_symmetry_equiv_pos_site_id
_symmetry_equiv_pos_as_xyz
1 x,y,z
2 -x,y,1/2-z
3 1/2+x,1/2+y,z
4 1/2-x,1/2+y,1/2-z
5 -x,-y,-z
6 x,-y,1/2+z
7 1/2-x,1/2-y,-z
8 1/2+x,1/2-y,1/2+z
_cell_length_a                   10.1966(2)
_cell_length_b                   16.9504(3)
_cell_length_c                   26.4607(5)
_cell_angle_alpha                90
_cell_angle_beta                 90.392(2)
_cell_angle_gamma                90
_cell_volume                     4573.27
loop_
_atom_site_label
_atom_site_type_symbol
_atom_site_fract_x
_atom_site_fract_y
_atom_site_fract_z
Ag1 Ag 1.66263(4) 0.73580(2) 0.439259(15)
Ag2 Ag 1.16150(4) 0.74646(3) 0.629026(15)
C1 C 1.8132(6) 1.0498(4) 0.2616(2)
H1 H 1.8508 1.0730 0.2324
C2 C 1.3605(6) 0.8060(3) 0.5492(2)
H2 H 1.3215 0.8551 0.5578
C3 C 1.6991(6) 1.0032(4) 0.2566(2)
H3 H 1.6628 0.9930 0.2241
C4 C 1.8695(6) 1.0618(4) 0.3073(2)
H4 H 1.9473 1.0925 0.3096
C5 C 1.6416(5) 0.9731(3) 0.2984(2)
H5 H 1.5635 0.9430 0.2948
C6 C 1.5112(5) 0.9074(3) 0.38777(19)
C7 C 1.7016(5) 0.9597(3) 0.4367(2)
H6 H 1.6640 0.9361 0.4658
C8 C 1.8760(5) 1.0361(3) 0.4002(2)
C9 C 2.0000(5) 1.0832(3) 0.4091(2)
C10 C 1.8204(5) 1.0004(3) 0.4414(2)
H7 H 1.8630 1.0033 0.4734
C11 C 1.6954(5) 0.9857(3) 0.3471(2)
C12 C 1.8147(5) 1.0295(3) 0.3516(2)
C13 C 1.6384(5) 0.9531(3) 0.3910(2)
C14 C 1.9781(6) 0.8023(4) 0.3330(2)
H8 H 2.0083 0.8511 0.3197
C15 C 1.8788(6) 0.8010(3) 0.3673(2)
H9 H 1.8424 0.8497 0.3779
C16 C 1.9858(6) 0.6673(4) 0.3355(2)
H10 H 2.0221 0.6188 0.3243
C17 C 1.4597(6) 0.8065(3) 0.5154(2)
H11 H 1.4875 0.8547 0.5006
C18 C 1.3675(5) 0.6722(3) 0.5574(2)
C19 C 1.8820(5) 0.6656(3) 0.3707(2)
C20 C 1.1316(6) 0.7400(4) 0.7492(2)
C21 C 1.0608(7) 0.7401(4) 0.7943(2)
C22 C 1.4725(5) 0.6723(3) 0.52213(19)
H12 H 1.5100 0.6235 0.5122
N1 N 1.8365(5) 0.5971(3) 0.3880(2)
H13 H 1.7722 0.5965 0.4100
H14 H 1.8708 0.5524 0.3774
N2 N 1.3134(4) 0.7398(2) 0.57144(15)
N3 N 2.0337(5) 0.7331(4) 0.3178(2)
N4 N 1.0696(5) 0.7397(3) 0.70522(17)
N5 N 1.8291(4) 0.7328(2) 0.38701(16)
N6 N 1.2489(8) 0.7343(7) 0.7494(3)
N7 N 1.5190(5) 0.7382(3) 0.50302(17)
N8 N 1.3235(5) 0.6043(3) 0.57614(19)
H15 H 1.2586 0.6043 0.5978
H16 H 1.3595 0.5595 0.5668
O1 O 1.5135(4) 0.8385(2) 0.40491(15)
O2 O 2.0073(4) 1.1505(2) 0.38929(16)
O3 O 2.0864(4) 1.0535(2) 0.43707(14)
O4 O 1.4135(4) 0.9396(2) 0.36812(16)
Ag1B Ag 1.16263(4) 0.23580(2) 0.439259(15)
Ag1B_2 Ag 2.16263(4) 1.23580(2) 0.439259(15)
Ag2F Ag 1.33850(4) 0.75354(3) 0.370974(15)
Ag2D Ag 1.83850(4) 1.25354(3) 0.370974(15)
Ag2A Ag 0.83850(4) 0.74646(3) 0.870974(15)
Ag2D_2 Ag 0.83850(4) 0.25354(3) 0.370974(15)
Ag2B Ag 0.66150(4) 0.24646(3) 0.629026(15)
C1B C 1.3132(6) 0.5498(4) 0.2616(2)
H1B H 1.3508 0.5730 0.2324
C2B C 0.8605(6) 0.3060(3) 0.5492(2)
H2B H 0.8215 0.3551 0.5578
C3B C 1.1991(6) 0.5032(4) 0.2566(2)
H3B H 1.1628 0.4930 0.2241
C4B C 1.3695(6) 0.5618(4) 0.3073(2)
H4B H 1.4473 0.5925 0.3096
C5B C 1.1416(5) 0.4731(3) 0.2984(2)
H5B H 1.0635 0.4430 0.2948
C6B C 1.0112(5) 0.4074(3) 0.38777(19)
C7B C 1.2016(5) 0.4597(3) 0.4367(2)
H6B H 1.1640 0.4361 0.4658
C8B C 1.3760(5) 0.5361(3) 0.4002(2)
C9B C 1.5000(5) 0.5832(3) 0.4091(2)
C10B C 1.3204(5) 0.5004(3) 0.4414(2)
H7B H 1.3630 0.5033 0.4734
C11B C 1.1954(5) 0.4857(3) 0.3471(2)
C12B C 1.3147(5) 0.5295(3) 0.3516(2)
C13B C 1.1384(5) 0.4531(3) 0.3910(2)
C14B C 1.4781(6) 0.3023(4) 0.3330(2)
H8B H 1.5083 0.3511 0.3197
C15B C 1.3788(6) 0.3010(3) 0.3673(2)
H9B H 1.3424 0.3497 0.3779
C16B C 1.4858(6) 0.1673(4) 0.3355(2)
H10B H 1.5221 0.1188 0.3243
C17B C 0.9597(6) 0.3065(3) 0.5154(2)
H11B H 0.9875 0.3547 0.5006
C18B C 0.8675(5) 0.1722(3) 0.5574(2)
C19B C 1.3820(5) 0.1656(3) 0.3707(2)
C20A C 0.8684(6) 0.7400(4) 0.7508(2)
C21A C 0.9392(7) 0.7401(4) 0.7057(2)
C22B C 0.9725(5) 0.1723(3) 0.52213(19)
H12B H 1.0100 0.1235 0.5122
N1B N 1.3365(5) 0.0971(3) 0.3880(2)
H13B H 1.2722 0.0965 0.4100
H14B H 1.3708 0.0524 0.3774
N2B N 0.8134(4) 0.2398(2) 0.57144(15)
N2F N 1.1866(4) 0.7602(2) 0.42856(15)
N3B N 1.5337(5) 0.2331(4) 0.3178(2)
N4A N 0.9304(5) 0.7397(3) 0.79478(17)
N4F N 1.4304(5) 0.7603(3) 0.29478(17)
N5B N 1.3291(4) 0.2328(2) 0.38701(16)
N6A N 0.7511(8) 0.7343(7) 0.7506(3)
N7B N 1.0190(5) 0.2382(3) 0.50302(17)
N8B N 0.8235(5) 0.1043(3) 0.57614(19)
H15B H 0.7586 0.1043 0.5978
H16B H 0.8595 0.0595 0.5668
O1B O 1.0135(4) 0.3385(2) 0.40491(15)
O1F O 0.9865(4) 0.6615(2) 0.59509(15)
O2B O 1.5073(4) 0.6505(2) 0.38929(16)
O2D O 0.9927(4) 0.8495(2) 0.61071(16)
O2_2 O 1.0073(4) 0.1505(2) 0.38929(16)
O3B O 1.5864(4) 0.5535(2) 0.43707(14)
O4B O 0.9135(4) 0.4396(2) 0.36812(16)
loop_
_geom_bond_atom_site_label_1
_geom_bond_atom_site_label_2
_geom_bond_site_symmetry_1
_geom_bond_site_symmetry_2
Ag1 N5 1_555 1_555
Ag2 N2 1_555 1_555
C1 H1 1_555 1_555
C2 H2 1_555 1_555
C3 C1 1_555 1_555
H3 C3 1_555 1_555
C4 C1 1_555 1_555
H4 C4 1_555 1_555
C5 C3 1_555 1_555
H5 C5 1_555 1_555
C6 C13 1_555 1_555
C7 H6 1_555 1_555
C8 C9 1_555 1_555
C9 O2 1_555 1_555
C10 C7 1_555 1_555
H7 C10 1_555 1_555
C11 C5 1_555 1_555
C12 C4 1_555 1_555
C13 C7 1_555 1_555
C14 H8 1_555 1_555
C15 C14 1_555 1_555
H9 C15 1_555 1_555
C16 H10 1_555 1_555
C17 C2 1_555 1_555
H11 C17 1_555 1_555
C18 C22 1_555 1_555
C19 C16 1_555 1_555
C20 C21 1_555 1_555
C21 N4A 1_555 1_555
C22 H12 1_555 1_555
N1 C19 1_555 1_555
H13 N1 1_555 1_555
H14 N1 1_555 1_555
N2 C2 1_555 1_555
N3 C14 1_555 1_555
N4 Ag2 1_555 1_555
N5 C15 1_555 1_555
N6 C20 1_555 1_555
N7 Ag1 1_555 1_555
N8 C18 1_555 1_555
H15 N8 1_555 1_555
H16 N8 1_555 1_555
O1 Ag1 1_555 1_555
O2 Ag1B_2 1_555 1_555
O3 C9 1_555 1_555
O4 C6 1_555 1_555
Ag1B N5B 1_555 1_555
Ag2F O1 1_555 1_555
Ag2D O2 1_555 1_555
Ag2A N4A 1_555 1_555
Ag2D_2 O1B 1_555 1_555
Ag2B N2B 1_555 1_555
C1B H1B 1_555 1_555
C2B H2B 1_555 1_555
C3B C1B 1_555 1_555
H3B C3B 1_555 1_555
C4B C1B 1_555 1_555
H4B C4B 1_555 1_555
C5B C3B 1_555 1_555
H5B C5B 1_555 1_555
C6B C13B 1_555 1_555
C7B H6B 1_555 1_555
C8B C9B 1_555 1_555
C9B O2B 1_555 1_555
C10B C7B 1_555 1_555
H7B C10B 1_555 1_555
C11B C5B 1_555 1_555
C12B C4B 1_555 1_555
C13B C7B 1_555 1_555
C14B H8B 1_555 1_555
C15B C14B 1_555 1_555
H9B C15B 1_555 1_555
C16B H10B 1_555 1_555
C17B C2B 1_555 1_555
H11B C17B 1_555 1_555
C18B C22B 1_555 1_555
C19B C16B 1_555 1_555
C20A C21A 1_555 1_555
C21A N4 1_555 1_555
C22B H12B 1_555 1_555
N1B C19B 1_555 1_555
H13B N1B 1_555 1_555
H14B N1B 1_555 1_555
N2B C2B 1_555 1_555
N2F Ag2F 1_555 1_555
N3B C14B 1_555 1_555
N4A C20A 1_555 1_555
N4F Ag2F 1_555 1_555
N5B C15B 1_555 1_555
N6A C20A 1_555 1_555
N7B Ag1B 1_555 1_555
N8B C18B 1_555 1_555
H15B N8B 1_555 1_555
H16B N8B 1_555 1_555
O1B Ag1B 1_555 1_555
O1F Ag2 1_555 1_555
O2B Ag1 1_555 1_555
O2D Ag2 1_555 1_555
O2_2 Ag1B 1_555 1_555
O3B C9B 1_555 1_555
O4B C6B 1_555 1_555
C6 O1 1_555 1_555
C8 C10 1_555 1_555
C8 C12 1_555 1_555
C11 C12 1_555 1_555
C11 C13 1_555 1_555
C16 N3 1_555 1_555
C17 N7 1_555 1_555
C18 N2 1_555 1_555
C19 N5 1_555 1_555
C20 N4 1_555 1_555
C22 N7 1_555 1_555
Ag2F O2B 1_555 1_555
Ag2D_2 O2_2 1_555 1_555
C6B O1B 1_555 1_555
C8B C10B 1_555 1_555
C8B C12B 1_555 1_555
C11B C12B 1_555 1_555
C11B C13B 1_555 1_555
C16B N3B 1_555 1_555
C17B N7B 1_555 1_555
C18B N2B 1_555 1_555
C19B N5B 1_555 1_555
C22B N7B 1_555 1_555

#END
