
#######################################################################
#
#                 Cambridge Crystallographic Data Centre
#                                CCDC 
#
#######################################################################
#
# If this CIF has been generated from an entry in the Cambridge 
# Structural Database, then it will include bibliographic, chemical, 
# crystal, experimental, refinement or atomic coordinate data resulting 
# from the CCDC's data processing and validation procedures.
#
#######################################################################

data_TUZGUQ
_symmetry_cell_setting           triclinic
_symmetry_space_group_name_H-M   'P -1'
_symmetry_Int_Tables_number      2
_space_group_name_Hall           '-P 1'
loop_
_symmetry_equiv_pos_site_id
_symmetry_equiv_pos_as_xyz
1 x,y,z
2 -x,-y,-z
_cell_length_a                   7.653(5)
_cell_length_b                   10.486(7)
_cell_length_c                   12.943(8)
_cell_angle_alpha                103.24(1)
_cell_angle_beta                 104.55(1)
_cell_angle_gamma                110.11(1)
_cell_volume                     885.4
loop_
_atom_site_label
_atom_site_type_symbol
_atom_site_fract_x
_atom_site_fract_y
_atom_site_fract_z
Mn1 Mn 0.0000 0.0000 0.0000
Mn2 Mn 0.5000 0.5000 0.0000
O1 O 0.1629(2) -0.0415(2) 0.1093(1)
O2 O 0.2015(2) 0.1893(2) 0.0359(2)
O3 O 0.5113(2) 0.3451(2) 0.0921(2)
O4 O 0.2822(2) 0.3651(2) -0.1290(1)
O5 O 0.6843(2) 0.4621(2) -0.0638(1)
O6 O 0.7871(4) 0.3531(3) -0.1864(2)
C1 C 0.3245(3) 0.0564(1) 0.1987(2)
C2 C 0.3865(3) 0.0175(1) 0.2917(2)
C3 C 0.5552(4) 0.1179(3) 0.3869(2)
C4 C 0.6574(4) 0.2514(4) 0.3882(2)
C5 C 0.6051(4) 0.2893(3) 0.2966(2)
C6 C 0.4365(3) 0.1969(3) 0.1991(2)
C7 C 0.3858(3) 0.2468(2) 0.1052(2)
C8 C 0.2823(3) 0.3171(2) -0.2328(2)
C9 C 0.1038(4) 0.2590(3) -0.3244(2)
C10 C 0.0941(1) 0.2015(6) -0.4318(3)
C11 C 0.2543(5) 0.1932(5) -0.4589(3)
C12 C 0.4420(5) 0.2578(6) -0.3632(3)
C13 C 0.4529(3) 0.3171(3) -0.2533(2)
C14 C 0.6535(3) 0.3801(2) -0.1650(2)
C15 C 0.1896(6) -0.0266(1) -0.1974(3)
O7 O 0.1170(4) -0.0866(1) -0.1227(2)
O1A O -0.1629(2) 0.0415(2) -0.1093(1)
O2A O -0.2015(2) -0.1893(2) -0.0359(2)
O3A O -0.5113(2) -0.3451(2) -0.0921(2)
C1A C -0.3245(3) -0.0564(1) -0.1987(2)
C2A C -0.3865(3) -0.0175(1) -0.2917(2)
C3A C -0.5552(4) -0.1179(3) -0.3869(2)
C4A C -0.6574(4) -0.2514(4) -0.3882(2)
C5A C -0.6051(4) -0.2893(3) -0.2966(2)
C6A C -0.4365(3) -0.1969(3) -0.1991(2)
C7A C -0.3858(3) -0.2468(2) -0.1052(2)
C15A C -0.1896(6) 0.0266(1) 0.1974(3)
O7A O -0.1170(4) 0.0866(1) 0.1227(2)
O4A O 0.7178(2) 0.6349(2) 0.1290(1)
O5A O 0.3157(2) 0.5379(2) 0.0638(1)
O6A O 0.2129(4) 0.6469(3) 0.1864(2)
C8A C 0.7177(3) 0.6829(2) 0.2328(2)
C9A C 0.8962(4) 0.7410(3) 0.3244(2)
C10A C 0.9059(1) 0.7985(6) 0.4318(3)
C11A C 0.7457(5) 0.8068(5) 0.4589(3)
C12A C 0.5580(5) 0.7422(6) 0.3632(3)
C13A C 0.5471(3) 0.6829(3) 0.2533(2)
C14A C 0.3465(3) 0.6199(2) 0.1650(2)
O3A_2 O 0.4887(2) 0.6549(2) -0.0921(2)
Mn2_2 Mn -0.5000 -0.5000 0.0000
C16 C -0.2154(6) 0.6350(6) -0.3746(4)
O8 O -0.1571(4) 0.5284(3) -0.3407(2)
O9 O -0.0128(1) 0.6917(3) 0.0544(1)
O10 O -0.1112(3) 0.3348(2) 0.1037(2)
loop_
_geom_bond_atom_site_label_1
_geom_bond_atom_site_label_2
_geom_bond_site_symmetry_1
_geom_bond_site_symmetry_2
Mn1 O1 1_555 1_555
Mn2 O3 1_555 1_555
O1 C1 1_555 1_555
O2 Mn1 1_555 1_555
O3 C7 1_555 1_555
O4 Mn2 1_555 1_555
O5 Mn2 1_555 1_555
O6 C14 1_555 1_555
C1 C2 1_555 1_555
C2 C3 1_555 1_555
C3 C4 1_555 1_555
C4 C5 1_555 1_555
C5 C6 1_555 1_555
C6 C1 1_555 1_555
C7 O2 1_555 1_555
C8 O4 1_555 1_555
C9 C8 1_555 1_555
C10 C9 1_555 1_555
C11 C10 1_555 1_555
C12 C11 1_555 1_555
C13 C8 1_555 1_555
C14 O5 1_555 1_555
C15 O7 1_555 1_555
O7 Mn1 1_555 1_555
C16 O8 1_555 1_555
O1A Mn1 1_555 1_555
O2A Mn1 1_555 1_555
O3A C7A 1_555 1_555
C1A O1A 1_555 1_555
C2A C1A 1_555 1_555
C3A C2A 1_555 1_555
C4A C3A 1_555 1_555
C5A C4A 1_555 1_555
C6A C1A 1_555 1_555
C7A O2A 1_555 1_555
C15A O7A 1_555 1_555
O7A Mn1 1_555 1_555
O4A Mn2 1_555 1_555
O5A Mn2 1_555 1_555
O6A C14A 1_555 1_555
C8A O4A 1_555 1_555
C9A C8A 1_555 1_555
C10A C9A 1_555 1_555
C11A C10A 1_555 1_555
C12A C11A 1_555 1_555
C13A C8A 1_555 1_555
C14A O5A 1_555 1_555
O3A_2 Mn2 1_555 1_555
Mn2_2 O3A 1_555 1_555
C6 C7 1_555 1_555
C12 C13 1_555 1_555
C13 C14 1_555 1_555
C5A C6A 1_555 1_555
C6A C7A 1_555 1_555
C12A C13A 1_555 1_555
C13A C14A 1_555 1_555

#END
