
#######################################################################
#
#                 Cambridge Crystallographic Data Centre
#                                CCDC 
#
#######################################################################
#
# If this CIF has been generated from an entry in the Cambridge 
# Structural Database, then it will include bibliographic, chemical, 
# crystal, experimental, refinement or atomic coordinate data resulting 
# from the CCDC's data processing and validation procedures.
#
#######################################################################

data_TUZROW01
_symmetry_cell_setting           monoclinic
_symmetry_space_group_name_H-M   'P 21/c'
_symmetry_Int_Tables_number      14
_space_group_name_Hall           '-P 2ybc'
loop_
_symmetry_equiv_pos_site_id
_symmetry_equiv_pos_as_xyz
1 x,y,z
2 -x,1/2+y,1/2-z
3 -x,-y,-z
4 x,1/2-y,1/2+z
_cell_length_a                   14.5979(10)
_cell_length_b                   13.6986(11)
_cell_length_c                   21.6725(16)
_cell_angle_alpha                90
_cell_angle_beta                 103.250(6)
_cell_angle_gamma                90
_cell_volume                     4218.5
loop_
_atom_site_label
_atom_site_type_symbol
_atom_site_fract_x
_atom_site_fract_y
_atom_site_fract_z
Ru1 Ru 0.35869(6) 0.77750(7) 0.22140(4)
Zn1 Zn 0.24025(10) 0.27755(11) -0.04378(7)
C1 C 0.2836(7) 0.6141(9) 0.1422(5)
C2 C 0.2787(8) 0.5344(9) 0.0995(5)
H1 H 0.2205 0.5045 0.0822
C3 C 0.3589(8) 0.5011(9) 0.0837(5)
C4 C 0.4437(8) 0.5447(9) 0.1094(5)
H2 H 0.4990 0.5236 0.0983
C5 C 0.4459(7) 0.6213(8) 0.1526(5)
H3 H 0.5038 0.6507 0.1715
C6 C 0.2006(8) 0.6560(9) 0.1580(5)
C7 C 0.1112(7) 0.6265(9) 0.1344(5)
H4 H 0.1007 0.5694 0.1097
C8 C 0.0351(8) 0.6769(9) 0.1450(5)
C9 C 0.0560(8) 0.7605(9) 0.1830(5)
H5 H 0.0076 0.8006 0.1906
C10 C 0.1481(8) 0.7824(9) 0.2088(6)
H6 H 0.1598 0.8335 0.2385
C11 C 0.3006(7) 0.9645(9) 0.1549(6)
C12 C 0.2763(7) 1.0275(9) 0.1071(5)
H7 H 0.2590 1.0914 0.1157
C13 C 0.2756(7) 1.0021(9) 0.0460(6)
C14 C 0.2982(7) 0.9078(10) 0.0334(6)
H8 H 0.2945 0.8873 -0.0085
C15 C 0.3264(7) 0.8435(9) 0.0834(5)
H9 H 0.3458 0.7804 0.0751
C16 C 0.3030(7) 0.9837(9) 0.2219(5)
C17 C 0.2775(7) 1.0710(9) 0.2440(5)
H10 H 0.2559 1.1221 0.2154
C18 C 0.2831(7) 1.0845(9) 0.3069(6)
C19 C 0.3123(7) 1.0084(9) 0.3486(6)
H11 H 0.3170 1.0167 0.3923
C20 C 0.3345(7) 0.9202(10) 0.3252(5)
H12 H 0.3521 0.8675 0.3532
C21 C 0.5452(8) 0.7698(8) 0.3070(6)
C22 C 0.6391(8) 0.7848(8) 0.3326(6)
H13 H 0.6680 0.7569 0.3719
C23 C 0.6905(8) 0.8410(9) 0.3003(6)
H14 H 0.7547 0.8528 0.3173
C24 C 0.6458(8) 0.8801(9) 0.2419(6)
H15 H 0.6788 0.9183 0.2181
C25 C 0.5496(8) 0.8601(9) 0.2198(6)
H16 H 0.5186 0.8859 0.1804
C26 C 0.4857(8) 0.7046(9) 0.3354(5)
C27 C 0.5187(8) 0.6520(9) 0.3911(5)
H17 H 0.5809 0.6605 0.4144
C28 C 0.4597(9) 0.5871(9) 0.4121(6)
H18 H 0.4814 0.5506 0.4493
C29 C 0.3677(8) 0.5771(9) 0.3771(6)
H19 H 0.3264 0.5324 0.3895
C30 C 0.3387(8) 0.6332(9) 0.3246(6)
H20 H 0.2754 0.6284 0.3025
N1 N 0.3675(6) 0.6531(6) 0.1674(4)
N2 N 0.2225(6) 0.7386(7) 0.1959(4)
N3 N 0.3270(6) 0.8688(7) 0.1446(4)
N4 N 0.3314(5) 0.9079(7) 0.2635(5)
N5 N 0.4989(6) 0.8055(7) 0.2524(4)
N6 N 0.3961(6) 0.6964(7) 0.3019(4)
O1 O 0.4257(6) 0.3840(7) 0.0269(5)
O2 O 0.2697(5) 0.3871(6) 0.0148(4)
O3 O -0.1090(5) 0.7259(6) 0.0804(4)
O4 O -0.0980(5) 0.5744(7) 0.1197(4)
O5 O 0.2675(5) 1.1648(7) 0.0127(3)
O6 O 0.2174(5) 1.0502(6) -0.0621(4)
O7 O 0.1955(6) 1.2330(6) 0.2932(4)
O8 O 0.3000(5) 1.2073(5) 0.3856(4)
C31 C 0.3510(10) 0.4175(10) 0.0364(6)
C32 C -0.0641(9) 0.6599(12) 0.1120(6)
C33 C 0.2505(8) 1.0786(11) -0.0076(7)
C34 C 0.2557(9) 1.1846(10) 0.3297(7)
Zn1B Zn -0.24025(10) 0.72245(11) 0.04378(7)
Zn1_2 Zn 0.24025(10) 1.27755(11) -0.04378(7)
Zn1C Zn 0.24025(10) 1.22245(11) 0.45622(7)
O3B O 0.1090(5) 0.2741(6) -0.0804(4)
O5_2 O 0.2675(5) 0.1648(7) 0.0127(3)
O8C O 0.3000(5) 0.2927(5) -0.1144(4)
loop_
_geom_bond_atom_site_label_1
_geom_bond_atom_site_label_2
_geom_bond_site_symmetry_1
_geom_bond_site_symmetry_2
Ru1 N1 1_555 1_555
Zn1 O2 1_555 1_555
C1 C2 1_555 1_555
C2 H1 1_555 1_555
C3 C2 1_555 1_555
C4 C3 1_555 1_555
H2 C4 1_555 1_555
C5 C4 1_555 1_555
H3 C5 1_555 1_555
C6 C1 1_555 1_555
C7 C6 1_555 1_555
H4 C7 1_555 1_555
C8 C7 1_555 1_555
C9 C8 1_555 1_555
H5 C9 1_555 1_555
C10 C9 1_555 1_555
H6 C10 1_555 1_555
C11 C12 1_555 1_555
C12 H7 1_555 1_555
C13 C12 1_555 1_555
C14 C13 1_555 1_555
H8 C14 1_555 1_555
C15 C14 1_555 1_555
H9 C15 1_555 1_555
C16 C11 1_555 1_555
C17 C16 1_555 1_555
H10 C17 1_555 1_555
C18 C17 1_555 1_555
C19 C18 1_555 1_555
H11 C19 1_555 1_555
C20 C19 1_555 1_555
H12 C20 1_555 1_555
C21 C22 1_555 1_555
C22 H13 1_555 1_555
C23 C22 1_555 1_555
H14 C23 1_555 1_555
C24 C23 1_555 1_555
H15 C24 1_555 1_555
C25 C24 1_555 1_555
H16 C25 1_555 1_555
C26 C21 1_555 1_555
C27 C26 1_555 1_555
H17 C27 1_555 1_555
C28 C27 1_555 1_555
H18 C28 1_555 1_555
C29 C28 1_555 1_555
H19 C29 1_555 1_555
C30 C29 1_555 1_555
H20 C30 1_555 1_555
N1 C1 1_555 1_555
N2 Ru1 1_555 1_555
N3 Ru1 1_555 1_555
N4 Ru1 1_555 1_555
N5 Ru1 1_555 1_555
N6 Ru1 1_555 1_555
O1 C31 1_555 1_555
O2 C31 1_555 1_555
O3 C32 1_555 1_555
O4 C32 1_555 1_555
O5 C33 1_555 1_555
O6 C33 1_555 1_555
O7 C34 1_555 1_555
O8 C34 1_555 1_555
C31 C3 1_555 1_555
C32 C8 1_555 1_555
C33 C13 1_555 1_555
C34 C18 1_555 1_555
Zn1B O3 1_555 1_555
Zn1_2 O5 1_555 1_555
Zn1C O8 1_555 1_555
O3B Zn1 1_555 1_555
O5_2 Zn1 1_555 1_555
O8C Zn1 1_555 1_555
C5 N1 1_555 1_555
C6 N2 1_555 1_555
C10 N2 1_555 1_555
C11 N3 1_555 1_555
C15 N3 1_555 1_555
C16 N4 1_555 1_555
C20 N4 1_555 1_555
C21 N5 1_555 1_555
C25 N5 1_555 1_555
C26 N6 1_555 1_555
C30 N6 1_555 1_555

#END
