
#######################################################################
#
#                 Cambridge Crystallographic Data Centre
#                                CCDC 
#
#######################################################################
#
# If this CIF has been generated from an entry in the Cambridge 
# Structural Database, then it will include bibliographic, chemical, 
# crystal, experimental, refinement or atomic coordinate data resulting 
# from the CCDC's data processing and validation procedures.
#
#######################################################################

data_TUZZAQ
_symmetry_cell_setting           orthorhombic
_symmetry_space_group_name_H-M   'P b c a'
_symmetry_Int_Tables_number      61
_space_group_name_Hall           '-P 2ac 2ab'
loop_
_symmetry_equiv_pos_site_id
_symmetry_equiv_pos_as_xyz
1 x,y,z
2 1/2-x,-y,1/2+z
3 1/2+x,1/2-y,-z
4 -x,1/2+y,1/2-z
5 -x,-y,-z
6 1/2+x,y,1/2-z
7 1/2-x,1/2+y,z
8 x,1/2-y,1/2+z
_cell_length_a                   8.74511(16)
_cell_length_b                   9.83590(18)
_cell_length_c                   16.8469(4)
_cell_angle_alpha                90
_cell_angle_beta                 90
_cell_angle_gamma                90
_cell_volume                     1449.1
loop_
_atom_site_label
_atom_site_type_symbol
_atom_site_fract_x
_atom_site_fract_y
_atom_site_fract_z
Zn1 Zn 0.62792(24) -0.00326(22) 0.13189(16)
P1 P 0.3008(4) 0.13408(35) 0.14049(34)
O1 O 0.2188(9) 0.1540(8) 0.2938(5)
O2 O 0.3185(9) -0.0953(8) 0.3189(5)
O3 O 0.5011(9) -0.0788(9) 0.2284(6)
O4 O 0.2287(9) 0.2753(6) 0.1281(7)
O5 O 0.1810(6) 0.0207(7) 0.1228(6)
O6 O 0.4468(8) 0.1107(8) 0.0942(5)
O7 O 0.7634(10) 0.0823(9) 0.0466(7)
O8 O 0.5564(9) -0.1810(9) 0.0665(8)
C1 C 0.3418(9) 0.1165(8) 0.2460(4)
C2 C 0.3857(14) -0.0296(9) 0.2639(8)
Zn1E Zn 0.12792(24) -0.00326(22) 0.36811(16)
O1E O 0.7188(9) 0.1540(8) 0.2062(5)
O2E O 0.8185(9) -0.0953(8) 0.1811(5)
loop_
_geom_bond_atom_site_label_1
_geom_bond_atom_site_label_2
_geom_bond_site_symmetry_1
_geom_bond_site_symmetry_2
Zn1 O3 1_555 1_555
P1 O4 1_555 1_555
O1 C1 1_555 1_555
O2 C2 1_555 1_555
O3 C2 1_555 1_555
O5 P1 1_555 1_555
O6 Zn1 1_555 1_555
O7 Zn1 1_555 1_555
O8 Zn1 1_555 1_555
C1 P1 1_555 1_555
C2 C1 1_555 1_555
Zn1E O1 1_555 1_555
O1E Zn1 1_555 1_555
O2E Zn1 1_555 1_555
P1 O6 1_555 1_555
O2 Zn1E 1_555 1_555

#END
