
#######################################################################
#
#                 Cambridge Crystallographic Data Centre
#                                CCDC 
#
#######################################################################
#
# If this CIF has been generated from an entry in the Cambridge 
# Structural Database, then it will include bibliographic, chemical, 
# crystal, experimental, refinement or atomic coordinate data resulting 
# from the CCDC's data processing and validation procedures.
#
#######################################################################

data_TYRSCU11
_symmetry_cell_setting           orthorhombic
_symmetry_space_group_name_H-M   'P 21 21 21'
_symmetry_Int_Tables_number      19
_space_group_name_Hall           'P 2ac 2ab'
loop_
_symmetry_equiv_pos_site_id
_symmetry_equiv_pos_as_xyz
1 x,y,z
2 1/2-x,-y,1/2+z
3 -x,1/2+y,1/2-z
4 1/2+x,1/2-y,-z
_cell_length_a                   6.0753(12)
_cell_length_b                   12.948(3)
_cell_length_c                   22.037(4)
_cell_angle_alpha                90
_cell_angle_beta                 90
_cell_angle_gamma                90
_cell_volume                     1733.5
loop_
_atom_site_label
_atom_site_type_symbol
_atom_site_fract_x
_atom_site_fract_y
_atom_site_fract_z
Cu1 Cu -0.83915(8) 0.88872(4) 0.96637(2)
O1 O -1.1185(5) 0.8431(2) 0.99849(13)
O2 O -1.2801(5) 0.7749(3) 1.07855(14)
O3 O -0.1603(6) 0.8006(3) 1.29753(14)
H1 H -0.1360 0.8528 1.3176
O4 O -0.4097(6) 1.0309(3) 0.86058(15)
O5 O -0.5551(5) 0.9369(2) 0.93427(13)
O6 O -1.0261(7) 1.1277(3) 1.15360(15)
H2 H -0.9712 1.1795 1.1687
N1 N -0.7297(6) 0.8720(3) 1.05098(15)
H3 H -0.6001 0.8383 1.0508
H4 H -0.7090 0.9344 1.0681
N2 N -0.9532(6) 0.9382(3) 0.88603(16)
H5 H -0.9489 0.8871 0.8584
H6 H -1.0928 0.9606 0.8895
C1 C -1.1161(7) 0.8111(3) 1.05271(19)
C2 C -0.8945(6) 0.8126(3) 1.08622(18)
H7 H -0.8421 0.7411 1.0882
C3 C -0.9227(7) 0.8494(4) 1.15050(19)
H8 H -1.0418 0.8109 1.1691
H9 H -0.9657 0.9216 1.1497
C4 C -0.7194(7) 0.8385(4) 1.18969(18)
C5 C -0.6709(9) 0.7442(4) 1.21725(19)
H10 H -0.7652 0.6884 1.2116
C6 C -0.4841(9) 0.7320(4) 1.2530(2)
H11 H -0.4532 0.6685 1.2708
C7 C -0.3432(8) 0.8159(3) 1.26211(18)
C8 C -0.3885(8) 0.9101(3) 1.23473(19)
H12 H -0.2945 0.9660 1.2404
C9 C -0.5748(8) 0.9202(3) 1.19896(19)
H13 H -0.6040 0.9834 1.1806
C10 C -0.5711(7) 0.9951(3) 0.8882(2)
C11 C -0.8057(7) 1.0236(3) 0.86827(19)
H14 H -0.8098 1.0324 0.8241
C12 C -0.8797(7) 1.1247(3) 0.89951(19)
H15 H -0.7721 1.1779 0.8904
H16 H -1.0182 1.1461 0.8816
C13 C -0.9088(7) 1.1200(3) 0.96731(19)
C14 C -1.1084(8) 1.0870(3) 0.9927(2)
H17 H -1.2202 1.0642 0.9672
C15 C -1.1430(8) 1.0877(3) 1.0548(2)
H18 H -1.2745 1.0630 1.0708
C16 C -0.9807(8) 1.1253(3) 1.0928(2)
C17 C -0.7791(8) 1.1562(4) 1.0690(2)
H19 H -0.6673 1.1780 1.0949
C18 C -0.7445(8) 1.1547(4) 1.0067(2)
H20 H -0.6105 1.1770 0.9911
O2C O -0.7801(5) 0.7251(3) 0.92145(14)
Cu1C Cu -1.33915(8) 0.61128(4) 1.03363(2)
loop_
_geom_bond_atom_site_label_1
_geom_bond_atom_site_label_2
_geom_bond_site_symmetry_1
_geom_bond_site_symmetry_2
Cu1 O1 1_555 1_555
O1 C1 1_555 1_555
O2 C1 1_555 1_555
O3 H1 1_555 1_555
O4 C10 1_555 1_555
O5 Cu1 1_555 1_555
O6 H2 1_555 1_555
N1 Cu1 1_555 1_555
H3 N1 1_555 1_555
H4 N1 1_555 1_555
N2 Cu1 1_555 1_555
H5 N2 1_555 1_555
H6 N2 1_555 1_555
C1 C2 1_555 1_555
C2 N1 1_555 1_555
H7 C2 1_555 1_555
C3 C2 1_555 1_555
H8 C3 1_555 1_555
H9 C3 1_555 1_555
C4 C3 1_555 1_555
C5 C4 1_555 1_555
H10 C5 1_555 1_555
C6 C5 1_555 1_555
H11 C6 1_555 1_555
C7 O3 1_555 1_555
C8 C7 1_555 1_555
H12 C8 1_555 1_555
C9 C4 1_555 1_555
H13 C9 1_555 1_555
C10 O5 1_555 1_555
C11 N2 1_555 1_555
H14 C11 1_555 1_555
C12 C11 1_555 1_555
H15 C12 1_555 1_555
H16 C12 1_555 1_555
C13 C12 1_555 1_555
C14 C13 1_555 1_555
H17 C14 1_555 1_555
C15 C14 1_555 1_555
H18 C15 1_555 1_555
C16 O6 1_555 1_555
C17 C16 1_555 1_555
H19 C17 1_555 1_555
C18 C13 1_555 1_555
H20 C18 1_555 1_555
O2C Cu1 1_555 1_555
Cu1C O2 1_555 1_555
C6 C7 1_555 1_555
C8 C9 1_555 1_555
C10 C11 1_555 1_555
C15 C16 1_555 1_555
C17 C18 1_555 1_555

#END
