
#######################################################################
#
#                 Cambridge Crystallographic Data Centre
#                                CCDC 
#
#######################################################################
#
# If this CIF has been generated from an entry in the Cambridge 
# Structural Database, then it will include bibliographic, chemical, 
# crystal, experimental, refinement or atomic coordinate data resulting 
# from the CCDC's data processing and validation procedures.
#
#######################################################################

data_UBACUX
_symmetry_cell_setting           monoclinic
_symmetry_space_group_name_H-M   'C 2/c'
_symmetry_Int_Tables_number      15
_space_group_name_Hall           '-C 2yn'
loop_
_symmetry_equiv_pos_site_id
_symmetry_equiv_pos_as_xyz
1 x,y,z
2 -x,y,1/2-z
3 1/2+x,1/2+y,z
4 1/2-x,1/2+y,1/2-z
5 -x,-y,-z
6 x,-y,1/2+z
7 1/2-x,1/2-y,-z
8 1/2+x,1/2-y,1/2+z
_cell_length_a                   29.943(6)
_cell_length_b                   13.921(3)
_cell_length_c                   18.994(4)
_cell_angle_alpha                90
_cell_angle_beta                 115.81(3)
_cell_angle_gamma                90
_cell_volume                     7127.58
loop_
_atom_site_label
_atom_site_type_symbol
_atom_site_fract_x
_atom_site_fract_y
_atom_site_fract_z
C1 C 0.2111(3) 0.6666(8) 0.3190(5)
C2 C 0.1897(4) 0.5697(8) 0.3090(5)
C3 C 0.1404(4) 0.5536(9) 0.2898(6)
H1 H 0.1195 0.6056 0.2835
C4 C 0.1214(3) 0.4606(9) 0.2796(6)
H2 H 0.0876 0.4507 0.2636
C5 C 0.1525(4) 0.3841(9) 0.2933(6)
H3 H 0.1398 0.3221 0.2869
C6 C 0.2031(3) 0.3974(8) 0.3166(5)
C7 C 0.2226(4) 0.4894(8) 0.3245(5)
C8 C 0.2354(4) 0.3085(8) 0.3326(5)
C9 C 0.2759(3) 0.4791(8) 0.2229(5)
C10 C 0.3027(3) 0.5098(8) 0.3054(5)
C11 C 0.3523(4) 0.5303(9) 0.3356(6)
H4 H 0.3687 0.5238 0.3040
C12 C 0.3789(4) 0.5609(10) 0.4133(6)
H5 H 0.4124 0.5758 0.4328
C13 C 0.3548(4) 0.5688(10) 0.4604(5)
H6 H 0.3718 0.5924 0.5110
C14 C 0.3051(3) 0.5416(8) 0.4331(5)
C15 C 0.2781(3) 0.5128(7) 0.3542(5)
C16 C 0.2822(3) 0.5505(9) 0.4896(5)
C17 C 0.1613(4) 0.3660(11) -0.0104(7)
H7 H 0.1748 0.3853 -0.0439
C18 C 0.1098(4) 0.3654(11) -0.0377(7)
H8 H 0.0893 0.3834 -0.0889
C19 C 0.0899(4) 0.3385(10) 0.0111(8)
C20 C 0.1201(5) 0.3149(13) 0.0850(9)
H9 H 0.1074 0.3005 0.1205
C21 C 0.1709(4) 0.3121(11) 0.1076(8)
H10 H 0.1916 0.2898 0.1574
C22 C -0.1199(4) 0.2536(10) -0.1366(8)
H11 H -0.1394 0.1993 -0.1570
C23 C -0.0699(5) 0.2477(13) -0.1143(9)
H12 H -0.0563 0.1906 -0.1215
C24 C -0.0402(4) 0.3242(13) -0.0820(8)
C25 C -0.0610(4) 0.4074(12) -0.0754(7)
H13 H -0.0413 0.4615 -0.0551
C26 C -0.1132(4) 0.4128(10) -0.0994(7)
H14 H -0.1274 0.4702 -0.0940
N1 N 0.19124(7) 0.33986(16) 0.06142(12)
N2 N 0.03777(7) 0.34235(16) -0.00911(12)
N3 N 0.01247(7) 0.31287(16) -0.06067(12)
N4 N -0.14207(7) 0.33565(16) -0.12989(12)
O1 O 0.20480(7) 0.71913(16) 0.36997(12)
O2 O 0.23178(7) 0.69794(16) 0.27863(12)
O3 O 0.23513(7) 0.51734(16) 0.17729(12)
O4 O 0.29781(7) 0.41623(16) 0.20042(12)
O5 O 0.21470(7) 0.22584(16) 0.31850(12)
O6 O 0.28119(7) 0.31539(16) 0.35815(12)
O7 O 0.25702(7) 0.48031(16) 0.49476(12)
O8 O 0.29222(7) 0.62675(16) 0.52903(12)
O11 O -0.19791(7) 0.36633(16) -0.03907(12)
H29 H -0.1904 0.3271 -0.0013
H30 H -0.2145 0.4156 -0.0384
Zn1 Zn 0.26524(4) 0.34619(9) 0.10232(6)
Zn2 Zn -0.21737(4) 0.34128(9) -0.16064(6)
O1C O 0.29520(7) 0.21913(16) 0.13003(12)
O2D O -0.23178(7) 0.30206(16) -0.27863(12)
O3D O -0.23513(7) 0.48266(16) -0.17729(12)
O5G O -0.28530(7) 0.27416(16) -0.18150(12)
O6G O -0.21881(7) 0.18461(16) -0.14185(12)
O8E O 0.29222(7) 0.37325(16) 0.02903(12)
Zn1C Zn 0.23476(4) 0.84619(9) 0.39768(6)
Zn1E Zn 0.26524(4) 0.65381(9) 0.60232(6)
Zn2G Zn 0.28263(4) 0.15872(9) 0.33936(6)
Zn2D Zn 0.21737(4) 0.65872(9) 0.16064(6)
C27 C 0.0786(9) 0.2476(19) 0.4109(16)
H15 H 0.0839 0.2202 0.3687
H16 H 0.0798 0.1978 0.4466
H17 H 0.1040 0.2941 0.4379
C28 C -0.0168(9) 0.253(2) 0.3436(16)
H18 H -0.0397 0.2974 0.3485
H19 H -0.0180 0.1931 0.3678
H20 H -0.0255 0.2422 0.2892
C29 C 0.0405(14) 0.393(3) 0.381(2)
H21 H 0.0732 0.4144 0.4042
N6 N 0.03265(7) 0.29181(16) 0.38124(12)
O10 O 0.00854(7) 0.45540(16) 0.35437(12)
C30 C 0.4053(7) 0.4970(15) 0.1672(12)
H22 H 0.3729 0.4788 0.1611
H23 H 0.4022 0.5373 0.1243
H24 H 0.4223 0.5315 0.2154
C31 C 0.4794(8) 0.4270(18) 0.1417(13)
H25 H 0.5070 0.3876 0.1740
H26 H 0.4894 0.4932 0.1480
H27 H 0.4680 0.4087 0.0879
C32 C 0.41164(7) 0.33798(16) 0.19122(12)
H28 H 0.3832 0.3377 0.1995
N5 N 0.43312(7) 0.41242(16) 0.16840(12)
O9 O 0.44152(7) 0.27034(16) 0.19764(12)
O12 O 0.1878(3) 0.2004(7) 0.4500(4)
H31 H 0.1898 0.2065 0.4070
H32 H 0.1871 0.1394 0.4493
O13 O 0.5000 0.102(2) 0.2500
H33 H 0.5240 0.1409 0.2614
H33A H 0.4760 0.1409 0.2386
loop_
_geom_bond_atom_site_label_1
_geom_bond_atom_site_label_2
_geom_bond_site_symmetry_1
_geom_bond_site_symmetry_2
C1 C2 1_555 1_555
C2 C3 1_555 1_555
C3 H1 1_555 1_555
C4 C3 1_555 1_555
H2 C4 1_555 1_555
C5 C4 1_555 1_555
H3 C5 1_555 1_555
C6 C5 1_555 1_555
C7 C2 1_555 1_555
C8 C6 1_555 1_555
C9 C10 1_555 1_555
C10 C11 1_555 1_555
C11 H4 1_555 1_555
C12 C11 1_555 1_555
H5 C12 1_555 1_555
C13 C12 1_555 1_555
H6 C13 1_555 1_555
C14 C13 1_555 1_555
C15 C7 1_555 1_555
C16 C14 1_555 1_555
C17 H7 1_555 1_555
C18 C17 1_555 1_555
H8 C18 1_555 1_555
C19 C18 1_555 1_555
C20 C19 1_555 1_555
H9 C20 1_555 1_555
C21 C20 1_555 1_555
H10 C21 1_555 1_555
C22 H11 1_555 1_555
C23 C22 1_555 1_555
H12 C23 1_555 1_555
C24 C23 1_555 1_555
C25 C24 1_555 1_555
H13 C25 1_555 1_555
C26 C25 1_555 1_555
H14 C26 1_555 1_555
C27 H15 1_555 1_555
H16 C27 1_555 1_555
H17 C27 1_555 1_555
C28 H18 1_555 1_555
H19 C28 1_555 1_555
H20 C28 1_555 1_555
C29 H21 1_555 1_555
C30 H22 1_555 1_555
H23 C30 1_555 1_555
H24 C30 1_555 1_555
C31 H25 1_555 1_555
H26 C31 1_555 1_555
H27 C31 1_555 1_555
C32 H28 1_555 1_555
N1 C17 1_555 1_555
N2 C19 1_555 1_555
N3 C24 1_555 1_555
N4 C22 1_555 1_555
N5 C30 1_555 1_555
N6 C27 1_555 1_555
O1 C1 1_555 1_555
O2 C1 1_555 1_555
O3 C9 1_555 1_555
O4 C9 1_555 1_555
O5 C8 1_555 1_555
O6 C8 1_555 1_555
O7 C16 1_555 1_555
O8 C16 1_555 1_555
O9 C32 1_555 1_555
O10 C29 1_555 1_555
O11 H29 1_555 1_555
H30 O11 1_555 1_555
O12 H31 1_555 1_555
H32 O12 1_555 1_555
O13 H33 1_555 1_555
Zn1 N1 1_555 1_555
Zn2 N4 1_555 1_555
O1C Zn1 1_555 1_555
O2D Zn2 1_555 1_555
O3D Zn2 1_555 1_555
O5G Zn2 1_555 1_555
O6G Zn2 1_555 1_555
O8E Zn1 1_555 1_555
H33A O13 1_555 1_555
Zn1C O1 1_555 1_555
Zn1E O8 1_555 1_555
Zn2G O5 1_555 1_555
Zn2D O2 1_555 1_555
C6 C7 1_555 1_555
C10 C15 1_555 1_555
C14 C15 1_555 1_555
C21 N1 1_555 1_555
C26 N4 1_555 1_555
C28 N6 1_555 1_555
C29 N6 1_555 1_555
C31 N5 1_555 1_555
C32 N5 1_555 1_555
N2 N3 1_555 1_555
O3 Zn2D 1_555 1_555
O4 Zn1 1_555 1_555
O6 Zn2G 1_555 1_555
O11 Zn2 1_555 1_555

#END
