
#######################################################################
#
#                 Cambridge Crystallographic Data Centre
#                                CCDC 
#
#######################################################################
#
# If this CIF has been generated from an entry in the Cambridge 
# Structural Database, then it will include bibliographic, chemical, 
# crystal, experimental, refinement or atomic coordinate data resulting 
# from the CCDC's data processing and validation procedures.
#
#######################################################################

data_UBALEQ
_symmetry_cell_setting           orthorhombic
_symmetry_space_group_name_H-M   'F d d 2'
_symmetry_Int_Tables_number      43
_space_group_name_Hall           'F 2 -2d'
loop_
_symmetry_equiv_pos_site_id
_symmetry_equiv_pos_as_xyz
1 x,y,z
2 -x,-y,z
3 1/4+x,1/4-y,1/4+z
4 1/4-x,1/4+y,1/4+z
5 x,1/2+y,1/2+z
6 -x,1/2-y,1/2+z
7 1/4+x,3/4-y,3/4+z
8 1/4-x,3/4+y,3/4+z
9 1/2+x,y,1/2+z
10 1/2-x,-y,1/2+z
11 3/4+x,1/4-y,3/4+z
12 3/4-x,1/4+y,3/4+z
13 1/2+x,1/2+y,z
14 1/2-x,1/2-y,z
15 3/4+x,3/4-y,1/4+z
16 3/4-x,3/4+y,1/4+z
_cell_length_a                   36.285(15)
_cell_length_b                   37.132(14)
_cell_length_c                   9.665(4)
_cell_angle_alpha                90
_cell_angle_beta                 90
_cell_angle_gamma                90
_cell_volume                     13022
loop_
_atom_site_label
_atom_site_type_symbol
_atom_site_fract_x
_atom_site_fract_y
_atom_site_fract_z
S1 S 0.27834(7) 0.31252(5) 0.8142(2)
Cd1 Cd 0.298560(12) 0.496690(12) 0.82520(5)
Cd2 Cd 0.083940(13) 0.637310(13) 0.63253(4)
Cd3 Cd 0.162553(15) 0.272617(13) 0.27926(5)
C1 C 0.12685(19) 0.58512(16) 1.0665(7)
C2 C 0.17627(17) 0.57792(15) 0.9284(6)
C3 C 0.15527(17) 0.53184(16) 1.0508(6)
C4 C 0.0967(2) 0.64344(17) 1.0815(7)
H1 H 0.0780 0.6547 1.1386
H2 H 0.1199 0.6555 1.1007
C5 C 0.0868(2) 0.6497(2) 0.9300(8)
C6 C 0.07418(19) 0.59148(18) 1.2227(7)
H3 H 0.0494 0.5985 1.1963
H4 H 0.0754 0.5654 1.2194
C7 C 0.08116(16) 0.60366(17) 1.3702(6)
C8 C 0.19410(18) 0.62715(16) 0.7755(8)
H5 H 0.1943 0.6441 0.8519
H6 H 0.2144 0.6332 0.7146
C9 C 0.15789(19) 0.63094(18) 0.6961(7)
C10 C 0.22948(17) 0.56910(17) 0.7765(7)
H7 H 0.2257 0.5443 0.8053
H8 H 0.2289 0.5697 0.6762
C11 C 0.26691(17) 0.58126(15) 0.8245(7)
C12 C 0.12458(18) 0.47904(17) 1.1477(7)
H9 H 0.1049 0.4818 1.0805
H10 H 0.1287 0.4535 1.1614
C13 C 0.11299(18) 0.49618(16) 1.2843(7)
C14 C 0.18210(16) 0.47343(15) 1.0082(6)
H11 H 0.1810 0.4487 1.0408
H12 H 0.1731 0.4739 0.9138
C15 C 0.22160(17) 0.48598(15) 1.0102(6)
C16 C 0.1925(2) 0.2780(2) 0.5847(8)
H13 H 0.1700 0.2668 0.6010
C17 C 0.2148(2) 0.2869(2) 0.6969(8)
H14 H 0.2067 0.2824 0.7866
C18 C 0.2488(2) 0.30231(19) 0.6745(8)
C19 C 0.2593(2) 0.3083(2) 0.5380(8)
H15 H 0.2823 0.3180 0.5182
C20 C 0.2354(2) 0.2997(2) 0.4325(9)
H16 H 0.2426 0.3044 0.3419
C21 C 0.3210(2) 0.41090(18) 0.8601(7)
H17 H 0.3412 0.4204 0.9067
C22 C 0.3162(2) 0.37387(18) 0.8608(7)
H18 H 0.3331 0.3590 0.9053
C23 C 0.2861(2) 0.35956(18) 0.7946(7)
C24 C 0.2627(2) 0.38276(18) 0.7242(8)
H19 H 0.2426 0.3738 0.6753
C25 C 0.26964(19) 0.41891(18) 0.7281(8)
H20 H 0.2537 0.4342 0.6808
N1 N 0.15078(16) 0.60088(14) 0.9805(6)
N2 N 0.12647(15) 0.54980(13) 1.1017(5)
N3 N 0.18038(15) 0.54334(13) 0.9627(5)
N4 N 0.10007(17) 0.60611(14) 1.1222(6)
N5 N 0.19959(14) 0.59092(13) 0.8294(6)
N6 N 0.15830(14) 0.49576(13) 1.0943(5)
N7 N 0.20252(17) 0.28496(16) 0.4543(7)
N8 N 0.29818(15) 0.43376(14) 0.7962(6)
O1 O 0.09009(18) 0.68133(19) 0.8896(8)
O2 O 0.30570(13) 0.50656(12) 1.0681(5)
O3 O 0.07581(15) 0.62385(17) 0.8583(5)
O4 O 0.15876(16) 0.21301(13) 0.3581(6)
O5 O 0.07585(15) 0.58175(13) 1.4683(5)
O6 O 0.11439(15) 0.28323(13) 0.4232(5)
O7 O 0.09010(14) 0.63563(12) 1.3933(5)
O9 O 0.14737(16) 0.66213(13) 0.6661(6)
O10 O 0.13905(13) 0.60409(12) 0.6631(5)
O11 O 0.29434(12) 0.55966(11) 0.8216(6)
O12 O 0.27095(13) 0.61346(12) 0.8591(6)
O13 O 0.07942(12) 0.49897(13) 1.3125(5)
O14 O 0.13802(13) 0.50604(13) 1.3679(5)
O15 O 0.23958(13) 0.48148(13) 0.9012(5)
O16 O 0.23495(13) 0.49837(11) 1.1221(5)
S1I S 0.22166(7) 0.68748(5) 0.3142(2)
Cd1I Cd 0.201440(12) 0.503310(12) 0.32520(5)
Cd1I_2 Cd 0.201440(12) 0.503310(12) 1.32520(5)
Cd2I Cd 0.416060(13) 0.362690(13) 0.13253(4)
Cd2_2 Cd 0.083940(13) 0.637310(13) 1.63253(4)
Cd2B Cd 0.333940(13) 0.612690(13) 0.88253(4)
Cd2I_2 Cd 0.416060(13) 0.362690(13) 1.13253(4)
Cd2G Cd 0.166060(13) 0.387310(13) 0.38253(4)
Cd3C Cd 0.087447(15) 0.522617(13) 1.52926(5)
Cd3F Cd 0.412553(15) 0.477383(13) 1.02926(5)
Cd3I Cd 0.337447(15) 0.727383(13) -0.22074(5)
C1I C 0.37315(19) 0.41488(16) 0.5665(7)
C2I C 0.32373(17) 0.42208(15) 0.4284(6)
C3I C 0.34473(17) 0.46816(16) 0.5508(6)
C4I C 0.4033(2) 0.35656(17) 0.5815(7)
H1I H 0.4220 0.3453 0.6386
H2I H 0.3801 0.3445 0.6007
C5I C 0.4132(2) 0.3503(2) 0.4300(8)
C6I C 0.42582(19) 0.40852(18) 0.7227(7)
H3I H 0.4506 0.4015 0.6963
H4I H 0.4246 0.4346 0.7194
C7I C 0.41884(16) 0.39634(17) 0.8702(6)
C8I C 0.30590(18) 0.37285(16) 0.2755(8)
H5I H 0.3057 0.3559 0.3519
H6I H 0.2856 0.3668 0.2146
C9I C 0.34211(19) 0.36906(18) 0.1961(7)
C10I C 0.27052(17) 0.43090(17) 0.2765(7)
H7I H 0.2743 0.4557 0.3053
H8I H 0.2711 0.4303 0.1762
C11I C 0.23309(17) 0.41874(15) 0.3245(7)
C12I C 0.37542(18) 0.52096(17) 0.6477(7)
H9I H 0.3951 0.5182 0.5805
H10I H 0.3713 0.5465 0.6614
C13I C 0.38701(18) 0.50382(16) 0.7843(7)
C14I C 0.31790(16) 0.52657(15) 0.5082(6)
H11I H 0.3190 0.5513 0.5408
H12I H 0.3269 0.5261 0.4138
C15I C 0.27840(17) 0.51402(15) 0.5102(6)
C16I C 0.3075(2) 0.7220(2) 0.0847(8)
H13I H 0.3300 0.7332 0.1010
C17I C 0.2852(2) 0.7131(2) 0.1969(8)
H14I H 0.2933 0.7176 0.2866
C18I C 0.2512(2) 0.69769(19) 0.1745(8)
C19I C 0.2407(2) 0.6917(2) 0.0380(8)
H15I H 0.2177 0.6820 0.0182
C20I C 0.2646(2) 0.7003(2) -0.0675(9)
H16I H 0.2574 0.6956 -0.1581
C21I C 0.1790(2) 0.58910(18) 0.3601(7)
H17I H 0.1588 0.5796 0.4067
C22I C 0.1838(2) 0.62613(18) 0.3608(7)
H18I H 0.1669 0.6410 0.4053
C23I C 0.2139(2) 0.64044(18) 0.2946(7)
C24I C 0.2373(2) 0.61724(18) 0.2242(8)
H19I H 0.2574 0.6262 0.1753
C25I C 0.23036(19) 0.58109(18) 0.2281(8)
H20I H 0.2463 0.5658 0.1808
N1I N 0.34922(16) 0.39912(14) 0.4805(6)
N2I N 0.37353(15) 0.45020(13) 0.6017(5)
N3I N 0.31962(15) 0.45666(13) 0.4627(5)
N4I N 0.39993(17) 0.39389(14) 0.6222(6)
N5I N 0.30041(14) 0.40908(13) 0.3294(6)
N6I N 0.34170(14) 0.50424(13) 0.5943(5)
N7I N 0.29748(17) 0.71504(16) -0.0457(7)
N7C N 0.04748(17) 0.53496(16) 1.7043(7)
N8I N 0.20182(15) 0.56624(14) 0.2962(6)
O1I O 0.40991(18) 0.31867(19) 0.3896(8)
O2I O 0.19430(13) 0.49344(12) 0.5681(5)
O3I O 0.42419(15) 0.37615(17) 0.3583(5)
O4C O 0.09124(16) 0.46301(13) 1.6081(6)
O5I O 0.42415(15) 0.41825(13) 0.9683(5)
O5_2 O 0.07585(15) 0.58175(13) 0.4683(5)
O5G O 0.17415(15) 0.33175(13) 0.2183(5)
O5I_2 O 0.42415(15) 0.41825(13) -0.0317(5)
O6C O 0.13561(15) 0.53323(13) 1.6732(5)
O7I O 0.40990(14) 0.36437(12) 0.8933(5)
O7_2 O 0.09010(14) 0.63563(12) 0.3933(5)
O7I_2 O 0.40990(14) 0.36437(12) -0.1067(5)
O9I O 0.35263(16) 0.33787(13) 0.1661(6)
O10I O 0.36095(13) 0.39591(12) 0.1631(5)
O11I O 0.20566(12) 0.44034(11) 0.3216(6)
O11J O 0.04434(12) 0.69034(11) 0.5716(6)
O11O O 0.45566(12) 0.30966(11) 0.0716(6)
O12I O 0.22905(13) 0.38654(12) 0.3591(6)
O12J O 0.02095(13) 0.63654(12) 0.6091(6)
O12O O 0.47905(13) 0.36346(12) 0.1091(6)
O13I O 0.42058(12) 0.50103(13) 0.8125(5)
O13G O 0.17058(12) 0.24897(13) 0.0625(5)
O14I O 0.36198(13) 0.49396(13) 0.8679(5)
O14G O 0.11198(13) 0.25604(13) 0.1179(5)
O14_2 O 0.13802(13) 0.50604(13) 0.3679(5)
O15I O 0.26042(13) 0.51852(13) 0.4012(5)
O16I O 0.26505(13) 0.50163(11) 0.6221(5)
O16_2 O 0.23495(13) 0.49837(11) 0.1221(5)
O8 O 0.2500 0.2500 0.1321(14)
loop_
_geom_bond_atom_site_label_1
_geom_bond_atom_site_label_2
_geom_bond_site_symmetry_1
_geom_bond_site_symmetry_2
S1 C18 1_555 1_555
Cd1 N8 1_555 1_555
Cd2 O3 1_555 1_555
Cd3 N7 1_555 1_555
C1 N1 1_555 1_555
C2 N1 1_555 1_555
C3 N2 1_555 1_555
C4 H1 1_555 1_555
H2 C4 1_555 1_555
C5 C4 1_555 1_555
C6 H3 1_555 1_555
H4 C6 1_555 1_555
C7 C6 1_555 1_555
C8 H5 1_555 1_555
H6 C8 1_555 1_555
C9 C8 1_555 1_555
C10 H7 1_555 1_555
H8 C10 1_555 1_555
C11 C10 1_555 1_555
C12 H9 1_555 1_555
H10 C12 1_555 1_555
C13 C12 1_555 1_555
C14 H11 1_555 1_555
H12 C14 1_555 1_555
C15 C14 1_555 1_555
C16 H13 1_555 1_555
C17 C16 1_555 1_555
H14 C17 1_555 1_555
C18 C17 1_555 1_555
C19 C18 1_555 1_555
H15 C19 1_555 1_555
C20 C19 1_555 1_555
H16 C20 1_555 1_555
C21 H17 1_555 1_555
C22 C21 1_555 1_555
H18 C22 1_555 1_555
C23 S1 1_555 1_555
C24 C23 1_555 1_555
H19 C24 1_555 1_555
C25 C24 1_555 1_555
H20 C25 1_555 1_555
N2 C1 1_555 1_555
N3 C2 1_555 1_555
N4 C1 1_555 1_555
N5 C2 1_555 1_555
N6 C3 1_555 1_555
N7 C16 1_555 1_555
N8 C21 1_555 1_555
O1 C5 1_555 1_555
O2 Cd1 1_555 1_555
O3 C5 1_555 1_555
O4 Cd3 1_555 1_555
O5 C7 1_555 1_555
O6 Cd3 1_555 1_555
O7 C7 1_555 1_555
O9 Cd2 1_555 1_555
O10 Cd2 1_555 1_555
O11 Cd1 1_555 1_555
O12 C11 1_555 1_555
O13 C13 1_555 1_555
O14 C13 1_555 1_555
O15 Cd1 1_555 1_555
O16 C15 1_555 1_555
S1I C18I 1_555 1_555
Cd1I N8I 1_555 1_555
Cd1I_2 O14 1_555 1_555
Cd2I O3I 1_555 1_555
Cd2_2 O5 1_555 1_555
Cd2B O11 1_555 1_555
Cd2I_2 O5I 1_555 1_555
Cd2G O5G 1_555 1_555
Cd3C O5 1_555 1_555
Cd3F O5I 1_555 1_555
Cd3I N7I 1_555 1_555
C1I N1I 1_555 1_555
C2I N1I 1_555 1_555
C3I N2I 1_555 1_555
C4I H1I 1_555 1_555
H2I C4I 1_555 1_555
C5I C4I 1_555 1_555
C6I H3I 1_555 1_555
H4I C6I 1_555 1_555
C7I C6I 1_555 1_555
C8I H5I 1_555 1_555
H6I C8I 1_555 1_555
C9I C8I 1_555 1_555
C10I H7I 1_555 1_555
H8I C10I 1_555 1_555
C11I C10I 1_555 1_555
C12I H9I 1_555 1_555
H10I C12I 1_555 1_555
C13I C12I 1_555 1_555
C14I H11I 1_555 1_555
H12I C14I 1_555 1_555
C15I C14I 1_555 1_555
C16I H13I 1_555 1_555
C17I C16I 1_555 1_555
H14I C17I 1_555 1_555
C18I C17I 1_555 1_555
C19I C18I 1_555 1_555
H15I C19I 1_555 1_555
C20I C19I 1_555 1_555
H16I C20I 1_555 1_555
C21I H17I 1_555 1_555
C22I C21I 1_555 1_555
H18I C22I 1_555 1_555
C23I S1I 1_555 1_555
C24I C23I 1_555 1_555
H19I C24I 1_555 1_555
C25I C24I 1_555 1_555
H20I C25I 1_555 1_555
N2I C1I 1_555 1_555
N3I C2I 1_555 1_555
N4I C1I 1_555 1_555
N5I C2I 1_555 1_555
N6I C3I 1_555 1_555
N7I C16I 1_555 1_555
N7C Cd3C 1_555 1_555
N8I C21I 1_555 1_555
O1I C5I 1_555 1_555
O2I Cd1I 1_555 1_555
O3I C5I 1_555 1_555
O4C Cd3C 1_555 1_555
O5I C7I 1_555 1_555
O5_2 Cd2 1_555 1_555
O5G Cd3 1_555 1_555
O5I_2 Cd2I 1_555 1_555
O6C Cd3C 1_555 1_555
O7I Cd2I_2 1_555 1_555
O7_2 Cd2 1_555 1_555
O7I_2 Cd2I 1_555 1_555
O9I Cd2I 1_555 1_555
O10I Cd2I 1_555 1_555
O11I Cd1I 1_555 1_555
O11J Cd2 1_555 1_555
O11O Cd2I 1_555 1_555
O12I Cd2G 1_555 1_555
O12J Cd2 1_555 1_555
O12O Cd2I 1_555 1_555
O13I Cd3F 1_555 1_555
O13G Cd3 1_555 1_555
O14I Cd1 1_555 1_555
O14G Cd3 1_555 1_555
O14_2 Cd1I 1_555 1_555
O15I Cd1I 1_555 1_555
O16I Cd1 1_555 1_555
O16_2 Cd1I 1_555 1_555
C3 N3 1_555 1_555
C4 N4 1_555 1_555
C6 N4 1_555 1_555
C8 N5 1_555 1_555
C9 O9 1_555 1_555
C9 O10 1_555 1_555
C10 N5 1_555 1_555
C11 O11 1_555 1_555
C12 N6 1_555 1_555
C14 N6 1_555 1_555
C15 O15 1_555 1_555
C20 N7 1_555 1_555
C22 C23 1_555 1_555
C25 N8 1_555 1_555
O7 Cd2_2 1_555 1_555
O12 Cd2B 1_555 1_555
O13 Cd3C 1_555 1_555
O14 Cd3C 1_555 1_555
O16 Cd1I_2 1_555 1_555
Cd2G O11I 1_555 1_555
Cd3F O14I 1_555 1_555
C3I N3I 1_555 1_555
C4I N4I 1_555 1_555
C6I N4I 1_555 1_555
C7I O7I 1_555 1_555
C8I N5I 1_555 1_555
C9I O9I 1_555 1_555
C9I O10I 1_555 1_555
C10I N5I 1_555 1_555
C11I O11I 1_555 1_555
C11I O12I 1_555 1_555
C12I N6I 1_555 1_555
C13I O13I 1_555 1_555
C13I O14I 1_555 1_555
C14I N6I 1_555 1_555
C15I O15I 1_555 1_555
C15I O16I 1_555 1_555
C20I N7I 1_555 1_555
C22I C23I 1_555 1_555
C25I N8I 1_555 1_555

#END
