
#######################################################################
#
#                 Cambridge Crystallographic Data Centre
#                                CCDC 
#
#######################################################################
#
# If this CIF has been generated from an entry in the Cambridge 
# Structural Database, then it will include bibliographic, chemical, 
# crystal, experimental, refinement or atomic coordinate data resulting 
# from the CCDC's data processing and validation procedures.
#
#######################################################################

data_UBEFAI
_symmetry_cell_setting           triclinic
_symmetry_space_group_name_H-M   'P -1'
_symmetry_Int_Tables_number      2
_space_group_name_Hall           '-P 1'
loop_
_symmetry_equiv_pos_site_id
_symmetry_equiv_pos_as_xyz
1 x,y,z
2 -x,-y,-z
_cell_length_a                   9.649(5)
_cell_length_b                   12.365(9)
_cell_length_c                   16.083(8)
_cell_angle_alpha                100.02(6)
_cell_angle_beta                 101.64(5)
_cell_angle_gamma                104.75(7)
_cell_volume                     1765.27
loop_
_atom_site_label
_atom_site_type_symbol
_atom_site_fract_x
_atom_site_fract_y
_atom_site_fract_z
Ir1 Ir 0.0727(3) 0.2492(3) 0.2793(2)
N1 N 0.0540(40) 0.2694(34) 0.4077(14)
N2 N -0.1353(28) 0.1247(28) 0.2559(26)
C1 C -0.0931(48) 0.2000(42) 0.4130(32)
C2 C -0.0911(51) 0.1598(51) 0.4969(36)
C3 C -0.2515(51) 0.0938(44) 0.4853(38)
C4 C -0.3209(66) -0.0185(43) 0.4184(32)
C5 C -0.3211(52) 0.0203(49) 0.3337(37)
C6 C -0.1693(54) 0.0978(43) 0.3367(27)
N3 N -0.0241(36) 0.3828(24) 0.2685(28)
N4 N 0.2712(28) 0.3851(23) 0.3059(28)
C7 C 0.2520(47) 0.5017(32) 0.3209(38)
C8 C 0.3793(55) 0.6002(37) 0.3171(43)
C9 C 0.3178(55) 0.7012(45) 0.3200(40)
C10 C 0.1697(46) 0.7094(43) 0.2744(40)
C11 C 0.0634(60) 0.5981(37) 0.2804(43)
C12 C 0.0976(43) 0.4838(34) 0.2652(39)
N5 N 0.1643(41) 0.1110(25) 0.2845(26)
N6 N 0.0804(44) 0.2192(32) 0.1489(14)
C13 C 0.1233(59) 0.1119(40) 0.1277(30)
C14 C 0.2035(66) 0.1110(44) 0.0558(37)
C15 C 0.2450(62) 0.0006(44) 0.0322(36)
C16 C 0.3459(62) -0.0114(56) 0.1127(31)
C17 C 0.2925(65) 0.0053(46) 0.1952(35)
C18 C 0.2314(59) 0.1071(48) 0.2087(28)
H1 H 0.1257(40) 0.2480(34) 0.4397(14)
H2 H 0.0676(40) 0.3442(34) 0.4308(14)
H3 H -0.2066(28) 0.1506(28) 0.2285(26)
H4 H -0.1363(28) 0.0596(28) 0.2202(26)
H5 H -0.1565(48) 0.2506(42) 0.4114(32)
H6 H -0.0568(51) 0.2247(51) 0.5474(36)
H7 H -0.0279(51) 0.1106(51) 0.5038(36)
H8 H -0.3105(51) 0.1443(44) 0.4716(38)
H9 H -0.2615(51) 0.0791(44) 0.5414(38)
H10 H -0.2619(66) -0.0708(43) 0.4254(32)
H11 H -0.4208(66) -0.0553(43) 0.4213(32)
H12 H -0.3937(52) 0.0615(49) 0.3238(37)
H13 H -0.3495(52) -0.0467(49) 0.2853(37)
H14 H -0.1079(54) 0.0474(43) 0.3487(27)
H15 H -0.0987(36) 0.3619(24) 0.2196(28)
H16 H -0.0601(36) 0.4002(24) 0.3149(28)
H17 H 0.3350(28) 0.3807(23) 0.3535(28)
H18 H 0.3124(28) 0.3757(23) 0.2607(28)
H19 H 0.2443(47) 0.5187(32) 0.3813(38)
H20 H 0.4639(55) 0.6159(37) 0.3665(43)
H21 H 0.4094(55) 0.5829(37) 0.2635(43)
H22 H 0.3275(55) 0.7304(45) 0.3815(40)
H23 H 0.3897(55) 0.7589(45) 0.3040(40)
H24 H 0.1648(46) 0.7125(43) 0.2141(40)
H25 H 0.1489(46) 0.7764(43) 0.3042(40)
H26 H 0.0468(60) 0.6118(37) 0.3383(43)
H27 H -0.0305(60) 0.5870(37) 0.2393(43)
H28 H 0.1055(43) 0.4689(34) 0.2047(39)
H29 H 0.2336(41) 0.1253(25) 0.3350(26)
H30 H 0.0936(41) 0.0446(25) 0.2784(26)
H31 H -0.0090(44) 0.2110(32) 0.1139(14)
H32 H 0.1472(44) 0.2790(32) 0.1404(14)
H33 H 0.0352(59) 0.0444(40) 0.1112(30)
H34 H 0.2931(66) 0.1759(44) 0.0743(37)
H35 H 0.1407(66) 0.1205(44) 0.0040(37)
H36 H 0.1563(62) -0.0652(44) 0.0119(36)
H37 H 0.2953(62) 0.0040(44) -0.0142(36)
H38 H 0.3586(62) -0.0874(56) 0.1010(31)
H39 H 0.4425(62) 0.0444(56) 0.1234(31)
H40 H 0.3745(65) 0.0162(46) 0.2452(35)
H41 H 0.2158(65) -0.0642(46) 0.1929(35)
H42 H 0.3160(59) 0.1769(48) 0.2232(28)
P1 P 0.4144(14) 0.4221(12) 0.0998(10)
P2 P 0.8052(14) 0.7930(12) 0.1809(10)
Al1 Al 0.4956(15) 0.6703(12) 0.0703(10)
Al2 Al 0.1232(15) 0.3869(12) -0.0370(9)
P3 P 0.1777(14) 0.6536(11) -0.0145(10)
O1 O 0.1697(35) 0.7110(26) -0.0883(18)
O2 O 0.2464(22) 0.3929(28) 0.0581(16)
O3 O 0.4890(32) 0.5523(17) 0.1151(20)
O4 O 0.8115(34) 0.7642(28) 0.2672(17)
O5 O 0.9022(32) 0.9084(20) 0.1882(22)
O6 O 0.4744(33) 0.3556(26) 0.0324(15)
O7 O 0.6413(21) 0.7807(22) 0.1403(19)
O8 O 0.4390(34) 0.3852(27) 0.1827(17)
O9 O 0.0562(23) 0.6723(25) 0.0308(21)
O10 O 0.1378(34) 0.5234(15) -0.0527(20)
O11 O 0.3253(21) 0.6963(26) 0.0580(18)
O12 O 0.8456(33) 0.6966(22) 0.1251(17)
O6A O 0.5256(33) 0.6444(26) -0.0324(15)
O9A O -0.0562(23) 0.3277(25) -0.0308(21)
O12A O 0.1544(33) 0.3034(22) -0.1251(17)
Al1A Al 0.5044(15) 0.3297(12) -0.0703(10)
Al2A Al -0.1232(15) 0.6131(12) 0.0370(9)
Al2A_2 Al 0.8768(15) 0.6131(12) 0.0370(9)
O13 O -0.1077(39) 0.4787(31) 0.4632(25)
O14 O -0.3570(41) 0.2488(33) 0.1954(26)
O15 O -0.3083(46) -0.4398(37) 0.2993(29)
O16 O 0.4450(76) 0.2791(61) 0.4552(48)
loop_
_geom_bond_atom_site_label_1
_geom_bond_atom_site_label_2
_geom_bond_site_symmetry_1
_geom_bond_site_symmetry_2
Ir1 N1 1_555 1_555
N1 C1 1_555 1_555
N2 Ir1 1_555 1_555
C1 C2 1_555 1_555
C2 C3 1_555 1_555
C3 C4 1_555 1_555
C4 C5 1_555 1_555
C5 C6 1_555 1_555
C6 N2 1_555 1_555
N3 Ir1 1_555 1_555
N4 Ir1 1_555 1_555
C7 N4 1_555 1_555
C8 C7 1_555 1_555
C9 C8 1_555 1_555
C10 C9 1_555 1_555
C11 C10 1_555 1_555
C12 N3 1_555 1_555
N5 Ir1 1_555 1_555
N6 Ir1 1_555 1_555
C13 N6 1_555 1_555
C14 C13 1_555 1_555
C15 C14 1_555 1_555
C16 C15 1_555 1_555
C17 C16 1_555 1_555
C18 N5 1_555 1_555
P1 O2 1_555 1_555
P2 O4 1_555 1_555
Al1 O3 1_555 1_555
Al2 O2 1_555 1_555
P3 O1 1_555 1_555
O3 P1 1_555 1_555
O5 P2 1_555 1_555
O6 P1 1_555 1_555
O7 P2 1_555 1_555
O8 P1 1_555 1_555
O9 P3 1_555 1_555
O10 Al2 1_555 1_555
O11 Al1 1_555 1_555
O12 P2 1_555 1_555
H1 N1 1_555 1_555
H2 N1 1_555 1_555
H3 N2 1_555 1_555
H4 N2 1_555 1_555
H5 C1 1_555 1_555
H6 C2 1_555 1_555
H7 C2 1_555 1_555
H8 C3 1_555 1_555
H9 C3 1_555 1_555
H10 C4 1_555 1_555
H11 C4 1_555 1_555
H12 C5 1_555 1_555
H13 C5 1_555 1_555
H14 C6 1_555 1_555
H15 N3 1_555 1_555
H16 N3 1_555 1_555
H17 N4 1_555 1_555
H18 N4 1_555 1_555
H19 C7 1_555 1_555
H20 C8 1_555 1_555
H21 C8 1_555 1_555
H22 C9 1_555 1_555
H23 C9 1_555 1_555
H24 C10 1_555 1_555
H25 C10 1_555 1_555
H26 C11 1_555 1_555
H27 C11 1_555 1_555
H28 C12 1_555 1_555
H29 N5 1_555 1_555
H30 N5 1_555 1_555
H31 N6 1_555 1_555
H32 N6 1_555 1_555
H33 C13 1_555 1_555
H34 C14 1_555 1_555
H35 C14 1_555 1_555
H36 C15 1_555 1_555
H37 C15 1_555 1_555
H38 C16 1_555 1_555
H39 C16 1_555 1_555
H40 C17 1_555 1_555
H41 C17 1_555 1_555
H42 C18 1_555 1_555
O6A Al1 1_555 1_555
O9A Al2 1_555 1_555
O12A Al2 1_555 1_555
Al1A O6 1_555 1_555
Al2A O9 1_555 1_555
Al2A_2 O12 1_555 1_555
C1 C6 1_555 1_555
C7 C12 1_555 1_555
C11 C12 1_555 1_555
C13 C18 1_555 1_555
C17 C18 1_555 1_555
Al1 O7 1_555 1_555
P3 O10 1_555 1_555
P3 O11 1_555 1_555

#END
