
#######################################################################
#
#                 Cambridge Crystallographic Data Centre
#                                CCDC 
#
#######################################################################
#
# If this CIF has been generated from an entry in the Cambridge 
# Structural Database, then it will include bibliographic, chemical, 
# crystal, experimental, refinement or atomic coordinate data resulting 
# from the CCDC's data processing and validation procedures.
#
#######################################################################

data_UBEPIC
_symmetry_cell_setting           monoclinic
_symmetry_space_group_name_H-M   'P 21/n'
_symmetry_Int_Tables_number      14
_space_group_name_Hall           '-P 2yn'
loop_
_symmetry_equiv_pos_site_id
_symmetry_equiv_pos_as_xyz
1 x,y,z
2 1/2-x,1/2+y,1/2-z
3 -x,-y,-z
4 1/2+x,1/2-y,1/2+z
_cell_length_a                   15.273(2)
_cell_length_b                   21.836(3)
_cell_length_c                   16.089(2)
_cell_angle_alpha                90
_cell_angle_beta                 101.622(4)
_cell_angle_gamma                90
_cell_volume                     5255.69
loop_
_atom_site_label
_atom_site_type_symbol
_atom_site_fract_x
_atom_site_fract_y
_atom_site_fract_z
O1 O 0.1734(12) 0.1812(8) 0.6188(11)
O2 O 0.4545(11) 0.2374(8) 0.6402(13)
O3 O 0.4479(12) 0.1141(9) 0.5753(11)
O4 O 0.2700(13) 0.0723(8) 0.6622(13)
Sm1 Sm 0.33251(7) 0.16952(4) 0.62870(6)
C4 C 0.2633(14) 0.1235(9) 0.4147(13)
C5 C 0.2248(15) 0.0843(10) 0.2775(13)
H4 H 0.2514 0.0459 0.2609
C6 C 0.2881(15) 0.1394(10) 0.2786(13)
H5 H 0.3438 0.1277 0.2601
C7 C 0.1527(16) 0.1595(10) 0.1841(14)
C8 C 0.3675(14) 0.2068(10) 0.4016(14)
H6 H 0.3980 0.1953 0.4590
H7 H 0.4128 0.2106 0.3667
C9 C 0.2638(16) 0.2427(10) 0.2029(14)
H8 H 0.2329 0.2541 0.1455
H9 H 0.3280 0.2420 0.2034
C10 C 0.2900(14) 0.2850(9) 0.4716(13)
C11 C 0.3103(15) 0.3087(10) 0.3357(14)
H10 H 0.3673 0.3217 0.3208
C12 C 0.2628(14) 0.3626(9) 0.3706(13)
H11 H 0.2980 0.4009 0.3736
C13 C 0.1725(15) 0.3258(9) 0.2463(13)
C14 C 0.2185(15) 0.3773(9) 0.5150(13)
H12 H 0.2352 0.4202 0.5099
H13 H 0.2458 0.3635 0.5724
C15 C 0.1138(15) 0.4156(9) 0.3100(13)
H14 H 0.1447 0.4533 0.3323
H15 H 0.0832 0.4235 0.2513
C16 C 0.0811(16) 0.3364(9) 0.5534(13)
C17 C 0.0600(14) 0.4136(9) 0.4501(12)
H16 H 0.0740 0.4573 0.4628
C18 C -0.0324(15) 0.3951(9) 0.4701(13)
H17 H -0.0607 0.4296 0.4947
C19 C -0.0356(14) 0.3813(8) 0.3255(13)
C20 C -0.0730(16) 0.3152(10) 0.5723(14)
H18 H -0.0423 0.3036 0.6297
H19 H -0.1205 0.3442 0.5777
C21 C -0.1749(14) 0.3562(9) 0.3732(14)
H20 H -0.2048 0.3681 0.3157
H21 H -0.2059 0.3764 0.4133
C22 C -0.0749(16) 0.2046(10) 0.5459(14)
C23 C -0.1906(15) 0.2597(9) 0.4603(13)
H22 H -0.2451 0.2731 0.4797
C24 C -0.1963(16) 0.1906(10) 0.4333(14)
H23 H -0.2525 0.1718 0.4425
C25 C -0.1865(13) 0.2507(9) 0.3162(13)
C26 C -0.1044(17) 0.0986(10) 0.4960(16)
H24 H -0.0753 0.0894 0.5547
H25 H -0.1621 0.0772 0.4842
C27 C -0.2007(15) 0.1390(10) 0.2897(15)
H26 H -0.2439 0.1105 0.3060
H27 H -0.2239 0.1517 0.2310
C28 C 0.0405(16) 0.0679(9) 0.4648(14)
C29 C -0.0840(16) 0.0581(9) 0.3527(15)
H28 H -0.1287 0.0249 0.3488
C30 C 0.0008(16) 0.0359(10) 0.3228(14)
H29 H -0.0036 -0.0080 0.3069
C31 C -0.0695(16) 0.1124(10) 0.2305(14)
C32 C 0.1642(15) 0.0336(9) 0.3994(14)
H30 H 0.1688 -0.0043 0.3679
H31 H 0.1938 0.0265 0.4586
C33 C 0.0652(16) 0.0657(10) 0.1933(14)
H32 H 0.0817 0.0223 0.1934
H33 H 0.0347 0.0765 0.1356
N4 N 0.2115(13) 0.0818(8) 0.3646(11)
N5 N 0.3054(13) 0.1587(8) 0.3671(12)
N6 N 0.1459(14) 0.1021(8) 0.2159(11)
N7 N 0.2361(14) 0.1823(8) 0.2210(12)
N8 N 0.3249(13) 0.2655(8) 0.4052(12)
N9 N 0.2544(13) 0.3414(8) 0.4546(11)
N10 N 0.2462(13) 0.2895(8) 0.2619(11)
N11 N 0.1793(12) 0.3674(8) 0.3104(11)
N12 N 0.1221(12) 0.3734(7) 0.5044(11)
N13 N -0.0094(13) 0.3457(8) 0.5297(11)
N14 N 0.0481(12) 0.4007(8) 0.3597(11)
N15 N -0.0841(12) 0.3769(8) 0.3882(11)
N16 N -0.1129(13) 0.2611(8) 0.5285(11)
N17 N -0.1202(14) 0.1638(8) 0.4877(13)
N18 N -0.1817(13) 0.2901(8) 0.3822(11)
N19 N -0.1934(13) 0.1923(8) 0.3441(11)
N20 N -0.0500(14) 0.0755(8) 0.4402(12)
N21 N 0.0717(13) 0.0464(8) 0.3965(11)
N22 N -0.1167(13) 0.1077(8) 0.2940(12)
N23 N 0.0038(13) 0.0744(8) 0.2505(11)
O17 O 0.2688(10) 0.1277(7) 0.4920(9)
O18 O 0.2911(10) 0.2565(7) 0.5385(9)
O19 O 0.1195(11) 0.3026(7) 0.6099(10)
O20 O -0.0136(13) 0.1920(8) 0.6044(11)
O21 O 0.0848(12) 0.0760(7) 0.5360(10)
O22 O 0.0966(12) 0.1850(8) 0.1315(10)
O23 O 0.1108(11) 0.3228(7) 0.1844(10)
O24 O -0.0647(10) 0.3704(7) 0.2497(9)
O25 O -0.1864(11) 0.2650(7) 0.2423(9)
O26 O -0.0891(11) 0.1446(8) 0.1683(10)
Sm1C Sm -0.16749(7) 0.33048(4) 0.12870(6)
O24C O 0.4353(10) 0.1296(7) 0.7497(9)
O25C O 0.3136(11) 0.2350(7) 0.7423(9)
O5 O -0.324(6) 0.038(4) 0.403(7)
O6 O 0.101(3) -0.0902(17) 0.269(2)
C1 C -0.4085(16) 0.1916(11) 0.3869(19)
C2 C -0.414(3) 0.2262(14) 0.457(2)
H1 H -0.4070 0.2086 0.5108
C3 C -0.429(3) 0.2885(15) 0.444(2)
H2 H -0.4334 0.3144 0.4896
O7 O -0.392(3) 0.1234(11) 0.398(3)
H3 H -0.3878 0.1143 0.4492
C34 C -0.438(2) 0.3115(11) 0.364(2)
C35 C -0.433(3) 0.2768(15) 0.294(3)
C36 C -0.418(3) 0.2145(16) 0.307(2)
H34 H -0.4524 0.3888 0.3008
H35 H -0.4392 0.2944 0.2399
H36 H -0.4136 0.1887 0.2607
O27 O -0.455(3) 0.3796(11) 0.350(3)
N1 N -0.1317(18) 0.5193(9) 0.3406(16)
O8 O -0.0523(15) 0.5287(10) 0.3704(14)
O9 O -0.1827(17) 0.5023(11) 0.3870(18)
O10 O -0.158(2) 0.5241(12) 0.2610(17)
N2 N 0.243(2) 0.5542(10) 0.4285(18)
O11 O 0.2892(17) 0.5090(9) 0.4219(17)
O12 O 0.2729(16) 0.5990(10) 0.4711(15)
O13 O 0.164(2) 0.5556(13) 0.386(2)
N3 N -0.306(2) 0.0870(14) 0.5982(19)
O14 O -0.2470(16) 0.1253(12) 0.5934(17)
O15 O -0.300(3) 0.0538(12) 0.660(2)
O16 O -0.374(2) 0.083(2) 0.544(2)
loop_
_geom_bond_atom_site_label_1
_geom_bond_atom_site_label_2
_geom_bond_site_symmetry_1
_geom_bond_site_symmetry_2
O1 Sm1 1_555 1_555
O2 Sm1 1_555 1_555
O3 Sm1 1_555 1_555
O4 Sm1 1_555 1_555
C1 C2 1_555 1_555
C2 H1 1_555 1_555
C3 C2 1_555 1_555
H2 C3 1_555 1_555
O7 C1 1_555 1_555
H3 O7 1_555 1_555
N1 O8 1_555 1_555
N2 O11 1_555 1_555
N3 O14 1_555 1_555
O9 N1 1_555 1_555
O10 N1 1_555 1_555
O12 N2 1_555 1_555
O13 N2 1_555 1_555
O15 N3 1_555 1_555
O16 N3 1_555 1_555
Sm1 O17 1_555 1_555
C4 N4 1_555 1_555
C5 H4 1_555 1_555
C6 C5 1_555 1_555
H5 C6 1_555 1_555
C7 N6 1_555 1_555
C8 H6 1_555 1_555
H7 C8 1_555 1_555
C9 H8 1_555 1_555
H9 C9 1_555 1_555
C10 N8 1_555 1_555
C11 H10 1_555 1_555
C12 C11 1_555 1_555
H11 C12 1_555 1_555
C13 N10 1_555 1_555
C14 H12 1_555 1_555
H13 C14 1_555 1_555
C15 H14 1_555 1_555
H15 C15 1_555 1_555
C16 N12 1_555 1_555
C17 H16 1_555 1_555
C18 C17 1_555 1_555
H17 C18 1_555 1_555
C19 N14 1_555 1_555
C20 H18 1_555 1_555
H19 C20 1_555 1_555
C21 H20 1_555 1_555
H21 C21 1_555 1_555
C22 N16 1_555 1_555
C23 H22 1_555 1_555
C24 C23 1_555 1_555
H23 C24 1_555 1_555
C25 N18 1_555 1_555
C26 H24 1_555 1_555
H25 C26 1_555 1_555
C27 H26 1_555 1_555
H27 C27 1_555 1_555
C28 N20 1_555 1_555
C29 H28 1_555 1_555
C30 C29 1_555 1_555
H29 C30 1_555 1_555
C31 N22 1_555 1_555
C32 H30 1_555 1_555
H31 C32 1_555 1_555
C33 H32 1_555 1_555
H33 C33 1_555 1_555
N4 C5 1_555 1_555
N5 C4 1_555 1_555
N6 C5 1_555 1_555
N7 C6 1_555 1_555
N8 C8 1_555 1_555
N9 C10 1_555 1_555
N10 C9 1_555 1_555
N11 C12 1_555 1_555
N12 C14 1_555 1_555
N13 C16 1_555 1_555
N14 C15 1_555 1_555
N15 C18 1_555 1_555
N16 C20 1_555 1_555
N17 C22 1_555 1_555
N18 C21 1_555 1_555
N19 C24 1_555 1_555
N20 C26 1_555 1_555
N21 C28 1_555 1_555
N22 C27 1_555 1_555
N23 C30 1_555 1_555
O17 C4 1_555 1_555
O18 Sm1 1_555 1_555
O19 C16 1_555 1_555
O20 C22 1_555 1_555
O21 C28 1_555 1_555
O22 C7 1_555 1_555
O23 C13 1_555 1_555
O24 C19 1_555 1_555
O25 C25 1_555 1_555
O26 C31 1_555 1_555
C34 C3 1_555 1_555
C35 C34 1_555 1_555
C36 C1 1_555 1_555
H34 O27 1_555 1_555
H35 C35 1_555 1_555
H36 C36 1_555 1_555
O27 C34 1_555 1_555
Sm1C O24 1_555 1_555
O24C Sm1 1_555 1_555
O25C Sm1 1_555 1_555
C6 N5 1_555 1_555
C7 N7 1_555 1_555
C8 N5 1_555 1_555
C9 N7 1_555 1_555
C10 O18 1_555 1_555
C11 N8 1_555 1_555
C11 N10 1_555 1_555
C12 N9 1_555 1_555
C13 N11 1_555 1_555
C14 N9 1_555 1_555
C15 N11 1_555 1_555
C17 N12 1_555 1_555
C17 N14 1_555 1_555
C18 N13 1_555 1_555
C19 N15 1_555 1_555
C20 N13 1_555 1_555
C21 N15 1_555 1_555
C23 N16 1_555 1_555
C23 N18 1_555 1_555
C24 N17 1_555 1_555
C25 N19 1_555 1_555
C26 N17 1_555 1_555
C27 N19 1_555 1_555
C29 N20 1_555 1_555
C29 N22 1_555 1_555
C30 N21 1_555 1_555
C31 N23 1_555 1_555
C32 N4 1_555 1_555
C32 N21 1_555 1_555
C33 N6 1_555 1_555
C33 N23 1_555 1_555
O25 Sm1C 1_555 1_555
C35 C36 1_555 1_555

#END
