
#######################################################################
#
#                 Cambridge Crystallographic Data Centre
#                                CCDC 
#
#######################################################################
#
# If this CIF has been generated from an entry in the Cambridge 
# Structural Database, then it will include bibliographic, chemical, 
# crystal, experimental, refinement or atomic coordinate data resulting 
# from the CCDC's data processing and validation procedures.
#
#######################################################################

data_UBEYOP
_symmetry_cell_setting           monoclinic
_symmetry_space_group_name_H-M   'P 21/c'
_symmetry_Int_Tables_number      14
_space_group_name_Hall           '-P 2ybc'
loop_
_symmetry_equiv_pos_site_id
_symmetry_equiv_pos_as_xyz
1 x,y,z
2 x,1/2-y,1/2+z
3 -x,-y,-z
4 -x,1/2+y,1/2-z
_cell_length_a                   14.2670(4)
_cell_length_b                   25.9132(6)
_cell_length_c                   13.9140(4)
_cell_angle_alpha                90
_cell_angle_beta                 96.3380(10)
_cell_angle_gamma                90
_cell_volume                     5112.62
loop_
_atom_site_label
_atom_site_type_symbol
_atom_site_fract_x
_atom_site_fract_y
_atom_site_fract_z
Co1 Co 0.56165(6) 0.25474(3) 0.32938(6)
Co2 Co 0.5000 0.5000 0.5000
N1 N 0.7121(3) 0.2528(2) 0.3856(4)
N2 N 1.3430(4) 0.2035(3) 0.4836(5)
C1 C 0.7573(4) 0.2085(2) 0.3988(4)
H1 H 0.7226(4) 0.1780(2) 0.3952(4)
C2 C 0.8554(4) 0.2055(2) 0.4180(4)
H2 H 0.8851(4) 0.1736(2) 0.4266(4)
C3 C 0.8610(5) 0.2964(3) 0.4131(5)
H3 H 0.8942(5) 0.3273(3) 0.4193(5)
C4 C 0.7629(5) 0.2954(3) 0.3927(5)
H4 H 0.7315(5) 0.3268(3) 0.3836(5)
C5 C 0.9061(5) 0.2497(3) 0.4236(5)
N3 N 1.0092(4) 0.2526(3) 0.4405(5)
N4 N 1.0455(4) 0.2108(3) 0.4451(5)
C6 C 1.1471(5) 0.2117(3) 0.4595(5)
C7 C 1.2875(6) 0.1621(4) 0.4767(6)
H5 H 1.3163(6) 0.1299(4) 0.4790(6)
C8 C 1.1892(5) 0.1636(4) 0.4662(6)
H6 H 1.1535(5) 0.1335(4) 0.4637(6)
C9 C 1.2023(5) 0.2553(3) 0.4685(5)
H7 H 1.1754(5) 0.2880(3) 0.4661(5)
C10 C 1.3007(5) 0.2489(4) 0.4815(6)
H8 H 1.3382(5) 0.2782(4) 0.4891(6)
N5 N 0.4143(4) 0.2581(2) 0.2676(4)
N6 N -0.2192(4) 0.2878(3) 0.1553(5)
C11 C 0.3580(5) 0.2167(3) 0.2558(5)
H9 H 0.3848(5) 0.1841(3) 0.2643(5)
C12 C 0.2612(5) 0.2206(4) 0.2314(5)
H10 H 0.2240(5) 0.1910(4) 0.2243(5)
C13 C 0.2774(5) 0.3106(4) 0.2248(6)
H11 H 0.2520(5) 0.3433(4) 0.2130(6)
C14 C 0.3736(5) 0.3038(3) 0.2501(5)
H12 H 0.4118(5) 0.3329(3) 0.2551(5)
C15 C 0.2216(5) 0.2679(4) 0.2179(5)
N7 N 0.1077(7) 0.2911(3) 0.1966(6)
N8 N 0.0896(8) 0.2530(3) 0.1966(6)
C16 C -0.0252(6) 0.2748(6) 0.1778(6)
C17 C -0.1800(6) 0.2424(4) 0.1637(6)
H13 H -0.2187(6) 0.2135(4) 0.1634(6)
C18 C -0.0828(6) 0.2352(4) 0.1733(6)
H14 H -0.0584(6) 0.2018(4) 0.1766(6)
C19 C -0.0638(6) 0.3232(4) 0.1671(6)
H15 H -0.0257(6) 0.3523(4) 0.1670(6)
C20 C -0.1625(5) 0.3275(4) 0.1562(6)
H16 H -0.1889(5) 0.3603(4) 0.1493(6)
O1 O 0.3974(4) 0.5114(2) 0.4066(4)
O2 O 0.3077(5) 0.4726(3) 0.2871(5)
O3 O 0.5837(4) 0.5223(2) 0.4127(4)
O4 O 0.6919(4) 0.4924(2) 0.3212(5)
O5 O 0.5399(3) 0.3246(2) 0.3999(3)
O6 O 0.5618(4) 0.3026(2) 0.5558(4)
N9 N 0.5135(4) 0.4300(2) 0.4472(4)
C21 C 0.4303(5) 0.4246(3) 0.3715(6)
H17 H 0.4528(5) 0.4132(3) 0.3117(6)
H18 H 0.3891(5) 0.3979(3) 0.3918(6)
C22 C 0.3735(6) 0.4729(3) 0.3515(7)
C23 C 0.6043(5) 0.4320(3) 0.4032(6)
H19 H 0.5994(5) 0.4104(3) 0.3460(6)
H20 H 0.6544(5) 0.4183(3) 0.4488(6)
C24 C 0.6294(6) 0.4859(3) 0.3758(7)
C25 C 0.5176(6) 0.3889(2) 0.5207(5)
H21 H 0.4570(6) 0.3876(2) 0.5460(5)
H22 H 0.5641(6) 0.3987(2) 0.5737(5)
C26 C 0.5412(5) 0.3347(3) 0.4892(6)
O7 O 0.5996(3) 0.2941(2) 0.2083(3)
O8 O 0.5348(3) 0.2117(2) 0.4540(3)
O9 O 0.5817(3) 0.1860(2) 0.2511(3)
O1B O 0.6026(4) 0.4886(2) 0.5934(4)
O2B O 0.6923(5) 0.5274(3) 0.7129(5)
O3B O 0.4163(4) 0.4777(2) 0.5873(4)
O4B O 0.3081(4) 0.5076(2) 0.6788(5)
O5B O 0.4601(3) 0.6754(2) 0.6001(3)
O6B O 0.4382(4) 0.6974(2) 0.4442(4)
N9B N 0.4865(4) 0.5700(2) 0.5528(4)
C21B C 0.5697(5) 0.5754(3) 0.6285(6)
H17B H 0.5472(5) 0.5868(3) 0.6883(6)
H18B H 0.6109(5) 0.6021(3) 0.6082(6)
C22B C 0.6265(6) 0.5271(3) 0.6485(7)
C23B C 0.3957(5) 0.5680(3) 0.5968(6)
H19B H 0.4006(5) 0.5896(3) 0.6540(6)
H20B H 0.3456(5) 0.5817(3) 0.5512(6)
C24B C 0.3706(6) 0.5141(3) 0.6242(7)
C25B C 0.4824(6) 0.6111(2) 0.4793(5)
H21B H 0.5430(6) 0.6124(2) 0.4540(5)
H22B H 0.4359(6) 0.6013(2) 0.4263(5)
C26B C 0.4588(5) 0.6653(3) 0.5108(6)
Co1B Co 0.43835(6) 0.74526(3) 0.67062(6)
N1B N 0.2879(3) 0.7472(2) 0.6144(4)
N2B N -0.3430(4) 0.7965(3) 0.5164(5)
C1B C 0.2427(4) 0.7915(2) 0.6012(4)
H1B H 0.2774(4) 0.8220(2) 0.6048(4)
C2B C 0.1446(4) 0.7945(2) 0.5820(4)
H2B H 0.1149(4) 0.8264(2) 0.5734(4)
C3B C 0.1390(5) 0.7036(3) 0.5869(5)
H3B H 0.1058(5) 0.6727(3) 0.5807(5)
C4B C 0.2371(5) 0.7046(3) 0.6073(5)
H4B H 0.2685(5) 0.6732(3) 0.6164(5)
C5B C 0.0939(5) 0.7503(3) 0.5764(5)
N3B N -0.0092(4) 0.7474(3) 0.5595(5)
N4B N -0.0455(4) 0.7892(3) 0.5549(5)
C6B C -0.1471(5) 0.7883(3) 0.5405(5)
C7B C -0.2875(6) 0.8379(4) 0.5233(6)
H5B H -0.3163(6) 0.8701(4) 0.5210(6)
C8B C -0.1892(5) 0.8364(4) 0.5338(6)
H6B H -0.1535(5) 0.8665(4) 0.5363(6)
C9B C -0.2023(5) 0.7447(3) 0.5315(5)
H7B H -0.1754(5) 0.7120(3) 0.5339(5)
C10B C -0.3007(5) 0.7511(4) 0.5185(6)
H8B H -0.3382(5) 0.7218(4) 0.5109(6)
N5B N 0.5857(4) 0.7419(2) 0.7324(4)
N6B N 1.2192(4) 0.7122(3) 0.8447(5)
C11B C 0.6420(5) 0.7833(3) 0.7442(5)
H9B H 0.6152(5) 0.8159(3) 0.7357(5)
C12B C 0.7388(5) 0.7794(4) 0.7686(5)
H10B H 0.7760(5) 0.8090(4) 0.7757(5)
C13B C 0.7226(5) 0.6894(4) 0.7752(6)
H11B H 0.7480(5) 0.6567(4) 0.7870(6)
C14B C 0.6264(5) 0.6962(3) 0.7499(5)
H12B H 0.5882(5) 0.6671(3) 0.7449(5)
C15B C 0.7784(5) 0.7321(4) 0.7821(5)
N7B N 0.8923(7) 0.7089(3) 0.8034(6)
N8B N 0.9104(8) 0.7470(3) 0.8034(6)
C16B C 1.0252(6) 0.7252(6) 0.8222(6)
C17B C 1.1800(6) 0.7576(4) 0.8363(6)
H13B H 1.2187(6) 0.7865(4) 0.8366(6)
C18B C 1.0828(6) 0.7648(4) 0.8267(6)
H14B H 1.0584(6) 0.7982(4) 0.8234(6)
C19B C 1.0638(6) 0.6768(4) 0.8329(6)
H15B H 1.0257(6) 0.6477(4) 0.8330(6)
C20B C 1.1625(5) 0.6725(4) 0.8438(6)
H16B H 1.1889(5) 0.6397(4) 0.8507(6)
O7B O 0.4004(3) 0.7059(2) 0.7917(3)
O8B O 0.4652(3) 0.7883(2) 0.5460(3)
O9B O 0.4183(3) 0.8140(2) 0.7489(3)
Co3 Co 0.5000 0.5000 1.0000
Co4 Co 0.0000 0.5000 1.0000
N10 N 0.0006(4) 0.5233(2) 0.8496(4)
N11 N 0.0319(7) 0.6018(3) 0.2235(5)
N12 N -0.0135(6) 0.5709(3) 0.5591(6)
N13 N 0.0576(6) 0.5682(3) 0.5216(6)
C27 C -0.0742(6) 0.5468(3) 0.8042(6)
H23 H -0.1259(6) 0.5526(3) 0.8380(6)
C28 C -0.0792(6) 0.5632(3) 0.7087(6)
H24 H -0.1331(6) 0.5793(3) 0.6792(6)
C29 C -0.0022(6) 0.5551(3) 0.6587(6)
C30 C 0.0762(6) 0.5310(3) 0.7045(6)
H25 H 0.1293(6) 0.5254(3) 0.6725(6)
C31 C 0.0744(5) 0.5154(3) 0.7978(6)
H26 H 0.1270(5) 0.4983(3) 0.8278(6)
C32 C 0.1096(9) 0.5830(4) 0.2706(8)
H27 H 0.1603(9) 0.5765(4) 0.2356(8)
C33 C 0.1211(8) 0.5722(4) 0.3697(8)
H28 H 0.1772(8) 0.5588(4) 0.4002(8)
C34 C 0.0444(8) 0.5824(4) 0.4201(7)
C35 C -0.0368(8) 0.6017(3) 0.3740(7)
H29 H -0.0888(8) 0.6084(3) 0.4069(7)
C36 C -0.0389(8) 0.6109(3) 0.2756(7)
H30 H -0.0941(8) 0.6246(3) 0.2437(7)
N14 N 0.3831(3) 0.5381(2) 1.0101(4)
O10 O 0.5560(3) 0.5471(2) 1.0917(3)
O11 O 0.5242(3) 0.6070(2) 1.1963(4)
O12 O 0.5257(3) 0.5455(2) 0.9032(4)
O13 O 0.4701(4) 0.6132(2) 0.8207(4)
O14 O 0.1421(3) 0.4926(2) 1.0122(3)
O15 O 0.1968(3) 0.5739(2) 1.0137(4)
O16 O -0.0122(3) 0.4197(2) 0.9705(3)
C37 C 0.3966(5) 0.5647(3) 1.1051(6)
H31 H 0.3715(5) 0.5434(3) 1.1536(6)
H32 H 0.3621(5) 0.5971(3) 1.1009(6)
C38 C 0.4995(5) 0.5751(3) 1.1347(6)
C39 C 0.3730(5) 0.5744(3) 0.9268(6)
H33 H 0.3550(5) 0.6081(3) 0.9489(6)
H34 H 0.3230(5) 0.5623(3) 0.8792(6)
C40 C 0.4634(5) 0.5794(3) 0.8796(5)
C41 C 0.3015(4) 0.5016(3) 1.0072(7)
H35 H 0.3136(4) 0.4775(3) 1.0605(7)
H36 H 0.2988(4) 0.4819(3) 0.9477(7)
C42 C 0.2059(4) 0.5261(3) 1.0130(5)
N14B N 0.6169(3) 0.4619(2) 0.9899(4)
O10B O 0.4440(3) 0.4529(2) 0.9083(3)
O11B O 0.4758(3) 0.3930(2) 0.8037(4)
O12B O 0.4743(3) 0.4545(2) 1.0968(4)
O13B O 0.5299(4) 0.3868(2) 1.1793(4)
O14B O 0.8579(3) 0.5074(2) 0.9878(3)
O15B O 0.8032(3) 0.4261(2) 0.9863(4)
C37B C 0.6034(5) 0.4353(3) 0.8949(6)
H31B H 0.6285(5) 0.4566(3) 0.8464(6)
H32B H 0.6379(5) 0.4029(3) 0.8991(6)
C38B C 0.5005(5) 0.4249(3) 0.8653(6)
C39B C 0.6270(5) 0.4256(3) 1.0732(6)
H33B H 0.6450(5) 0.3919(3) 1.0511(6)
H34B H 0.6770(5) 0.4377(3) 1.1208(6)
C40B C 0.5366(5) 0.4206(3) 1.1204(5)
C41B C 0.6985(4) 0.4984(3) 0.9928(7)
H35B H 0.6864(4) 0.5225(3) 0.9395(7)
H36B H 0.7012(4) 0.5181(3) 1.0523(7)
C42B C 0.7941(4) 0.4739(3) 0.9870(5)
N10B N -0.0006(4) 0.4767(2) 1.1504(4)
N11B N -0.0319(7) 0.3982(3) 1.7765(5)
N12B N 0.0135(6) 0.4291(3) 1.4409(6)
N13B N -0.0576(6) 0.4318(3) 1.4784(6)
C27B C 0.0742(6) 0.4532(3) 1.1958(6)
H23B H 0.1259(6) 0.4474(3) 1.1620(6)
C28B C 0.0792(6) 0.4368(3) 1.2913(6)
H24B H 0.1331(6) 0.4207(3) 1.3208(6)
C29B C 0.0022(6) 0.4449(3) 1.3413(6)
C30B C -0.0762(6) 0.4690(3) 1.2955(6)
H25B H -0.1293(6) 0.4746(3) 1.3275(6)
C31B C -0.0744(5) 0.4846(3) 1.2022(6)
H26B H -0.1270(5) 0.5017(3) 1.1722(6)
C32B C -0.1096(9) 0.4170(4) 1.7294(8)
H27B H -0.1603(9) 0.4235(4) 1.7644(8)
C33B C -0.1211(8) 0.4278(4) 1.6303(8)
H28B H -0.1772(8) 0.4412(4) 1.5998(8)
C34B C -0.0444(8) 0.4176(4) 1.5799(7)
C35B C 0.0368(8) 0.3983(3) 1.6260(7)
H29B H 0.0888(8) 0.3916(3) 1.5931(7)
C36B C 0.0389(8) 0.3891(3) 1.7244(7)
H30B H 0.0941(8) 0.3754(3) 1.7563(7)
O16B O 0.0122(3) 0.5803(2) 1.0295(3)
O14B_2 O -0.1421(3) 0.5074(2) 0.9878(3)
Co4_2 Co 1.0000 0.5000 1.0000
O17 O 0.2733(5) 0.4117(3) 0.7430(6)
O18 O 0.2591(7) 0.3860(4) 0.5314(8)
loop_
_geom_bond_atom_site_label_1
_geom_bond_atom_site_label_2
_geom_bond_site_symmetry_1
_geom_bond_site_symmetry_2
Co1 N1 1_555 1_555
Co2 O1 1_555 1_555
N1 C1 1_555 1_555
N2 C7 1_555 1_555
C1 H1 1_555 1_555
C2 C1 1_555 1_555
H2 C2 1_555 1_555
C3 H3 1_555 1_555
C4 N1 1_555 1_555
H4 C4 1_555 1_555
C5 C2 1_555 1_555
N3 C5 1_555 1_555
N4 N3 1_555 1_555
C6 N4 1_555 1_555
C7 H5 1_555 1_555
C8 C6 1_555 1_555
H6 C8 1_555 1_555
C9 C6 1_555 1_555
H7 C9 1_555 1_555
C10 N2 1_555 1_555
H8 C10 1_555 1_555
N5 Co1 1_555 1_555
N6 C17 1_555 1_555
C11 N5 1_555 1_555
H9 C11 1_555 1_555
C12 C11 1_555 1_555
H10 C12 1_555 1_555
C13 H11 1_555 1_555
C14 N5 1_555 1_555
H12 C14 1_555 1_555
C15 C12 1_555 1_555
N7 C15 1_555 1_555
N8 N7 1_555 1_555
C16 N8 1_555 1_555
C17 H13 1_555 1_555
C18 C16 1_555 1_555
H14 C18 1_555 1_555
C19 C16 1_555 1_555
H15 C19 1_555 1_555
C20 N6 1_555 1_555
H16 C20 1_555 1_555
O1 C22 1_555 1_555
O2 C22 1_555 1_555
O3 Co2 1_555 1_555
O4 C24 1_555 1_555
O5 Co1 1_555 1_555
O6 C26 1_555 1_555
N9 Co2 1_555 1_555
C21 N9 1_555 1_555
H17 C21 1_555 1_555
H18 C21 1_555 1_555
C22 C21 1_555 1_555
C23 N9 1_555 1_555
H19 C23 1_555 1_555
H20 C23 1_555 1_555
C24 O3 1_555 1_555
C25 N9 1_555 1_555
H21 C25 1_555 1_555
H22 C25 1_555 1_555
C26 O5 1_555 1_555
O7 Co1 1_555 1_555
O8 Co1 1_555 1_555
O9 Co1 1_555 1_555
Co3 N14 1_555 1_555
Co4 N10 1_555 1_555
N10 C27 1_555 1_555
N11 C32 1_555 1_555
N12 N13 1_555 1_555
N13 C34 1_555 1_555
C27 H23 1_555 1_555
C28 C27 1_555 1_555
H24 C28 1_555 1_555
C29 N12 1_555 1_555
C30 C29 1_555 1_555
H25 C30 1_555 1_555
C31 N10 1_555 1_555
H26 C31 1_555 1_555
C32 H27 1_555 1_555
C33 C32 1_555 1_555
H28 C33 1_555 1_555
C34 C33 1_555 1_555
C35 C34 1_555 1_555
H29 C35 1_555 1_555
C36 N11 1_555 1_555
H30 C36 1_555 1_555
N14 C37 1_555 1_555
O10 Co3 1_555 1_555
O11 C38 1_555 1_555
O12 Co3 1_555 1_555
O13 C40 1_555 1_555
O14 Co4 1_555 1_555
O15 C42 1_555 1_555
O16 Co4 1_555 1_555
C37 H31 1_555 1_555
H32 C37 1_555 1_555
C38 O10 1_555 1_555
C39 N14 1_555 1_555
H33 C39 1_555 1_555
H34 C39 1_555 1_555
C40 O12 1_555 1_555
C41 N14 1_555 1_555
H35 C41 1_555 1_555
H36 C41 1_555 1_555
C42 O14 1_555 1_555
O1B Co2 1_555 1_555
O2B C22B 1_555 1_555
O3B Co2 1_555 1_555
O4B C24B 1_555 1_555
O5B C26B 1_555 1_555
O6B C26B 1_555 1_555
N9B Co2 1_555 1_555
C21B N9B 1_555 1_555
H17B C21B 1_555 1_555
H18B C21B 1_555 1_555
C22B O1B 1_555 1_555
C23B N9B 1_555 1_555
H19B C23B 1_555 1_555
H20B C23B 1_555 1_555
C24B O3B 1_555 1_555
C25B N9B 1_555 1_555
H21B C25B 1_555 1_555
H22B C25B 1_555 1_555
C26B C25B 1_555 1_555
Co1B O5B 1_555 1_555
N1B Co1B 1_555 1_555
N2B C7B 1_555 1_555
C1B N1B 1_555 1_555
H1B C1B 1_555 1_555
C2B C1B 1_555 1_555
H2B C2B 1_555 1_555
C3B H3B 1_555 1_555
C4B N1B 1_555 1_555
H4B C4B 1_555 1_555
C5B C2B 1_555 1_555
N3B C5B 1_555 1_555
N4B N3B 1_555 1_555
C6B N4B 1_555 1_555
C7B H5B 1_555 1_555
C8B C6B 1_555 1_555
H6B C8B 1_555 1_555
C9B C6B 1_555 1_555
H7B C9B 1_555 1_555
C10B N2B 1_555 1_555
H8B C10B 1_555 1_555
N5B Co1B 1_555 1_555
N6B C17B 1_555 1_555
C11B N5B 1_555 1_555
H9B C11B 1_555 1_555
C12B C11B 1_555 1_555
H10B C12B 1_555 1_555
C13B H11B 1_555 1_555
C14B N5B 1_555 1_555
H12B C14B 1_555 1_555
C15B C12B 1_555 1_555
N7B C15B 1_555 1_555
N8B N7B 1_555 1_555
C16B N8B 1_555 1_555
C17B H13B 1_555 1_555
C18B C16B 1_555 1_555
H14B C18B 1_555 1_555
C19B C16B 1_555 1_555
H15B C19B 1_555 1_555
C20B N6B 1_555 1_555
H16B C20B 1_555 1_555
O7B Co1B 1_555 1_555
O8B Co1B 1_555 1_555
O9B Co1B 1_555 1_555
N14B Co3 1_555 1_555
O10B Co3 1_555 1_555
O11B C38B 1_555 1_555
O12B Co3 1_555 1_555
O13B C40B 1_555 1_555
O14B C42B 1_555 1_555
O15B C42B 1_555 1_555
C37B N14B 1_555 1_555
H31B C37B 1_555 1_555
H32B C37B 1_555 1_555
C38B O10B 1_555 1_555
C39B N14B 1_555 1_555
H33B C39B 1_555 1_555
H34B C39B 1_555 1_555
C40B O12B 1_555 1_555
C41B N14B 1_555 1_555
H35B C41B 1_555 1_555
H36B C41B 1_555 1_555
C42B C41B 1_555 1_555
N10B Co4 1_555 1_555
N11B C32B 1_555 1_555
N12B N13B 1_555 1_555
N13B C34B 1_555 1_555
C27B N10B 1_555 1_555
H23B C27B 1_555 1_555
C28B C27B 1_555 1_555
H24B C28B 1_555 1_555
C29B N12B 1_555 1_555
C30B C29B 1_555 1_555
H25B C30B 1_555 1_555
C31B N10B 1_555 1_555
H26B C31B 1_555 1_555
C32B H27B 1_555 1_555
C33B C32B 1_555 1_555
H28B C33B 1_555 1_555
C34B C33B 1_555 1_555
C35B C34B 1_555 1_555
H29B C35B 1_555 1_555
C36B N11B 1_555 1_555
H30B C36B 1_555 1_555
O16B Co4 1_555 1_555
O14B_2 Co4 1_555 1_555
Co4_2 O14B 1_555 1_555
C3 C5 1_555 1_555
C3 C4 1_555 1_555
C7 C8 1_555 1_555
C9 C10 1_555 1_555
C13 C15 1_555 1_555
C13 C14 1_555 1_555
C17 C18 1_555 1_555
C19 C20 1_555 1_555
C23 C24 1_555 1_555
C25 C26 1_555 1_555
C28 C29 1_555 1_555
C30 C31 1_555 1_555
C35 C36 1_555 1_555
C37 C38 1_555 1_555
C39 C40 1_555 1_555
C41 C42 1_555 1_555
C21B C22B 1_555 1_555
C23B C24B 1_555 1_555
C3B C5B 1_555 1_555
C3B C4B 1_555 1_555
C7B C8B 1_555 1_555
C9B C10B 1_555 1_555
C13B C15B 1_555 1_555
C13B C14B 1_555 1_555
C17B C18B 1_555 1_555
C19B C20B 1_555 1_555
C37B C38B 1_555 1_555
C39B C40B 1_555 1_555
C28B C29B 1_555 1_555
C30B C31B 1_555 1_555
C35B C36B 1_555 1_555

#END
