
#######################################################################
#
#                 Cambridge Crystallographic Data Centre
#                                CCDC 
#
#######################################################################
#
# If this CIF has been generated from an entry in the Cambridge 
# Structural Database, then it will include bibliographic, chemical, 
# crystal, experimental, refinement or atomic coordinate data resulting 
# from the CCDC's data processing and validation procedures.
#
#######################################################################

data_UBOBES01
_symmetry_cell_setting           tetragonal
_symmetry_space_group_name_H-M   'P -4 b 2'
_symmetry_Int_Tables_number      117
_space_group_name_Hall           'P -4 -2ab'
loop_
_symmetry_equiv_pos_site_id
_symmetry_equiv_pos_as_xyz
1 x,y,z
2 -x,-y,z
3 y,-x,-z
4 -y,x,-z
5 1/2+x,1/2-y,z
6 1/2-x,1/2+y,z
7 1/2+y,1/2+x,-z
8 1/2-y,1/2-x,-z
_cell_length_a                   13.7958(4)
_cell_length_b                   13.7958(4)
_cell_length_c                   3.6371(2)
_cell_angle_alpha                90
_cell_angle_beta                 90
_cell_angle_gamma                90
_cell_volume                     692.228
loop_
_atom_site_label
_atom_site_type_symbol
_atom_site_fract_x
_atom_site_fract_y
_atom_site_fract_z
Zn1 Zn 1.0000 0.5000 0.5000
Cl1 Cl 0.913150(9) 0.413150(9) 0.0000
Cl2 Cl 1.391310(11) 0.370390(13) 0.75111(6)
N1 N 1.11239(3) 0.38761(3) 0.5000
C1 C 1.20365(4) 0.40926(5) 0.60068(18)
H1 H 1.2196 0.4760 0.6711
C2 C 1.27602(5) 0.33885(5) 0.60688(18)
C3 C 1.25604(4) 0.24396(4) 0.5000
H2 H 1.3063 0.1937 0.5000
Zn1_2 Zn 1.0000 0.5000 -0.5000
Cl1_2 Cl 0.913150(9) 0.413150(9) 1.0000
Cl1A Cl 1.086850(9) 0.586850(9) 0.0000
Cl1A_2 Cl 1.086850(9) 0.586850(9) 1.0000
Cl2G Cl 1.129610(13) 0.108690(11) 0.24889(6)
Cl2A Cl 0.608690(11) 0.629610(13) 0.75111(6)
Cl2F Cl 0.870390(13) 0.891310(11) 0.24889(6)
N1A N 0.88761(3) 0.61239(3) 0.5000
C1G C 1.09074(5) 0.29635(4) 0.39932(18)
C1A C 0.79635(4) 0.59074(5) 0.60068(18)
C1F C 0.90926(5) 0.70365(4) 0.39932(18)
H1G H 1.0240 0.2804 0.3289
H1A H 0.7804 0.5240 0.6711
H1F H 0.9760 0.7196 0.3289
C2G C 1.16115(5) 0.22398(5) 0.39312(18)
C2A C 0.72398(5) 0.66115(5) 0.60688(18)
C2F C 0.83885(5) 0.77602(5) 0.39312(18)
C3A C 0.74396(4) 0.75604(4) 0.5000
H2A H 0.6937 0.8063 0.5000
loop_
_geom_bond_atom_site_label_1
_geom_bond_atom_site_label_2
_geom_bond_site_symmetry_1
_geom_bond_site_symmetry_2
Zn1 Cl1 1_555 1_555
Cl1 Zn1_2 1_555 1_555
Cl2 C2 1_555 1_555
N1 Zn1 1_555 1_555
C1 N1 1_555 1_555
H1 C1 1_555 1_555
C2 C1 1_555 1_555
C3 C2 1_555 1_555
H2 C3 1_555 1_555
Zn1_2 Cl1A 1_555 1_555
Cl1_2 Zn1 1_555 1_555
Cl1A Zn1 1_555 1_555
Cl1A_2 Zn1 1_555 1_555
Cl2G C2G 1_555 1_555
Cl2A C2A 1_555 1_555
Cl2F C2F 1_555 1_555
N1A Zn1 1_555 1_555
C1G N1 1_555 1_555
C1A N1A 1_555 1_555
C1F N1A 1_555 1_555
H1G C1G 1_555 1_555
H1A C1A 1_555 1_555
H1F C1F 1_555 1_555
C2G C3 1_555 1_555
C2A C1A 1_555 1_555
C2F C1F 1_555 1_555
C3A C2A 1_555 1_555
H2A C3A 1_555 1_555
C1G C2G 1_555 1_555
C2F C3A 1_555 1_555

#END
