
#######################################################################
#
#                 Cambridge Crystallographic Data Centre
#                                CCDC 
#
#######################################################################
#
# If this CIF has been generated from an entry in the Cambridge 
# Structural Database, then it will include bibliographic, chemical, 
# crystal, experimental, refinement or atomic coordinate data resulting 
# from the CCDC's data processing and validation procedures.
#
#######################################################################

data_UBODUM
_symmetry_cell_setting           monoclinic
_symmetry_space_group_name_H-M   'P 21/c'
_symmetry_Int_Tables_number      14
_space_group_name_Hall           '-P 2ybc'
loop_
_symmetry_equiv_pos_site_id
_symmetry_equiv_pos_as_xyz
1 x,y,z
2 -x,1/2+y,1/2-z
3 -x,-y,-z
4 x,1/2-y,1/2+z
_cell_length_a                   10.938(2)
_cell_length_b                   20.601(4)
_cell_length_c                   8.6455(17)
_cell_angle_alpha                90
_cell_angle_beta                 99.75(3)
_cell_angle_gamma                90
_cell_volume                     1919.98
loop_
_atom_site_label
_atom_site_type_symbol
_atom_site_fract_x
_atom_site_fract_y
_atom_site_fract_z
C1 C 0.2621(4) 0.1273(2) -0.0818(5)
H1 H 0.1997 0.1481 -0.0334
H2 H 0.2236 0.0965 -0.1582
H3 H 0.3054 0.1593 -0.1325
C2 C 0.3511(3) 0.09319(17) 0.0396(4)
C3 C 0.5036(3) 0.07220(17) 0.2295(4)
C4 C 0.6072(4) 0.07526(19) 0.3469(4)
H4 H 0.6468 0.1144 0.3765
C5 C 0.6488(4) 0.0170(2) 0.4180(5)
H5 H 0.7172 0.0171 0.4982
C6 C 0.5906(4) -0.0413(2) 0.3719(5)
H6 H 0.6220 -0.0793 0.4213
C7 C 0.4878(4) -0.0448(2) 0.2555(5)
H7 H 0.4490 -0.0840 0.2256
C8 C 0.4455(3) 0.01340(18) 0.1854(4)
C9 C 0.2613(4) -0.0190(2) -0.0195(5)
H8 H 0.2854 -0.0622 0.0191
H9 H 0.2696 -0.0174 -0.1293
C10 C 0.1264(4) -0.00819(17) -0.0066(4)
C11 C 0.0358(4) -0.0297(2) -0.1260(5)
H10 H 0.0588 -0.0503 -0.2123
C12 C 0.0884(4) 0.0212(2) 0.1203(5)
H11 H 0.1475 0.0355 0.2035
C13 C 0.3273(3) 0.20566(17) 0.4735(4)
C14 C 0.2223(3) 0.17466(19) 0.3602(4)
H12 H 0.2466 0.1310 0.3359
H13 H 0.2089 0.1993 0.2632
C15 C 0.1023(3) 0.17142(18) 0.4238(4)
C16 C 0.0718(4) 0.11754(19) 0.5050(4)
H14 H 0.1234 0.0814 0.5160
C17 C -0.0360(4) 0.1176(2) 0.5699(5)
H15 H -0.0564 0.0811 0.6235
C18 C -0.1130(4) 0.1708(2) 0.5563(5)
H16 H -0.1845 0.1702 0.6011
C19 C -0.0837(3) 0.22557(18) 0.4754(4)
C20 C 0.0231(3) 0.22426(18) 0.4096(4)
H17 H 0.0424 0.2603 0.3536
C21 C -0.1677(4) 0.2840(2) 0.4610(5)
H18 H -0.1805 0.2965 0.5652
H19 H -0.1261 0.3197 0.4184
C22 C -0.2936(4) 0.2739(2) 0.3585(6)
Cd1 Cd 0.49275(2) 0.226872(13) 0.18156(3)
N1 N 0.4431(3) 0.12150(14) 0.1350(3)
N2 N 0.3469(3) 0.02821(14) 0.0670(4)
O1 O 0.4296(2) 0.21723(13) 0.4310(3)
O2 O 0.3109(3) 0.22012(13) 0.6089(3)
O3 O -0.3754(3) 0.31382(17) 0.3599(6)
O4 O -0.3105(3) 0.22346(16) 0.2769(4)
C1B C -0.2621(4) -0.1273(2) 0.0818(5)
H1B H -0.1997 -0.1481 0.0334
H2B H -0.2236 -0.0965 0.1582
H3B H -0.3054 -0.1593 0.1325
C2B C -0.3511(3) -0.09319(17) -0.0396(4)
C3B C -0.5036(3) -0.07220(17) -0.2295(4)
C4B C -0.6072(4) -0.07526(19) -0.3469(4)
H4B H -0.6468 -0.1144 -0.3765
C5B C -0.6488(4) -0.0170(2) -0.4180(5)
H5B H -0.7172 -0.0171 -0.4982
C6B C -0.5906(4) 0.0413(2) -0.3719(5)
H6B H -0.6220 0.0793 -0.4213
C7B C -0.4878(4) 0.0448(2) -0.2555(5)
H7B H -0.4490 0.0840 -0.2256
C8B C -0.4455(3) -0.01340(18) -0.1854(4)
C9B C -0.2613(4) 0.0190(2) 0.0195(5)
H8B H -0.2854 0.0622 -0.0191
H9B H -0.2696 0.0174 0.1293
C10B C -0.1264(4) 0.00819(17) 0.0066(4)
C11B C -0.0358(4) 0.0297(2) 0.1260(5)
H10B H -0.0588 0.0503 0.2123
C12B C -0.0884(4) -0.0212(2) -0.1203(5)
H11B H -0.1475 -0.0355 -0.2035
C13_2 C 1.3273(3) 0.20566(17) 0.4735(4)
C14_2 C 1.2223(3) 0.17466(19) 0.3602(4)
H12_2 H 1.2466 0.1310 0.3359
H13_2 H 1.2089 0.1993 0.2632
C15_2 C 1.1023(3) 0.17142(18) 0.4238(4)
C16_2 C 1.0718(4) 0.11754(19) 0.5050(4)
H14_2 H 1.1234 0.0814 0.5160
C17_2 C 0.9640(4) 0.1176(2) 0.5699(5)
H15_2 H 0.9436 0.0811 0.6235
C18_2 C 0.8870(4) 0.1708(2) 0.5563(5)
H16_2 H 0.8155 0.1702 0.6011
C19_2 C 0.9163(3) 0.22557(18) 0.4754(4)
C20_2 C 1.0231(3) 0.22426(18) 0.4096(4)
H17_2 H 1.0424 0.2603 0.3536
C21_2 C 0.8323(4) 0.2840(2) 0.4610(5)
H18_2 H 0.8195 0.2965 0.5652
H19_2 H 0.8739 0.3197 0.4184
C22_2 C 0.7064(4) 0.2739(2) 0.3585(6)
Cd1B Cd -0.49275(2) -0.226872(13) -0.18156(3)
Cd1C Cd 0.49275(2) 0.273128(13) 0.68156(3)
Cd1_2 Cd -0.50725(2) 0.226872(13) 0.18156(3)
Cd1_3 Cd 1.49275(2) 0.226872(13) 0.18156(3)
Cd1C_2 Cd 1.49275(2) 0.273128(13) 0.68156(3)
N1B N -0.4431(3) -0.12150(14) -0.1350(3)
N2B N -0.3469(3) -0.02821(14) -0.0670(4)
O1_2 O 1.4296(2) 0.21723(13) 0.4310(3)
O1C O 0.4296(2) 0.28277(13) -0.0690(3)
O1B O -0.4296(2) -0.21723(13) -0.4310(3)
O1A O -0.4296(2) -0.28277(13) 0.0690(3)
O2_2 O 1.3109(3) 0.22012(13) 0.6089(3)
O2C O 0.3109(3) 0.27988(13) 0.1089(3)
O2A O -0.3109(3) -0.27988(13) -0.1089(3)
O3_2 O 0.6246(3) 0.31382(17) 0.3599(6)
O3B O -0.6246(3) -0.31382(17) -0.3599(6)
O4_2 O 0.6895(3) 0.22346(16) 0.2769(4)
O4B O -0.6895(3) -0.22346(16) -0.2769(4)
loop_
_geom_bond_atom_site_label_1
_geom_bond_atom_site_label_2
_geom_bond_site_symmetry_1
_geom_bond_site_symmetry_2
C1 H1 1_555 1_555
H2 C1 1_555 1_555
H3 C1 1_555 1_555
C2 C1 1_555 1_555
C3 C4 1_555 1_555
C4 H4 1_555 1_555
C5 C4 1_555 1_555
H5 C5 1_555 1_555
C6 C5 1_555 1_555
H6 C6 1_555 1_555
C7 C6 1_555 1_555
H7 C7 1_555 1_555
C8 C3 1_555 1_555
C9 H8 1_555 1_555
H9 C9 1_555 1_555
C10 C9 1_555 1_555
C11 C10 1_555 1_555
H10 C11 1_555 1_555
C12 C10 1_555 1_555
H11 C12 1_555 1_555
C13 C14 1_555 1_555
C14 H12 1_555 1_555
H13 C14 1_555 1_555
C15 C14 1_555 1_555
C16 C15 1_555 1_555
H14 C16 1_555 1_555
C17 C16 1_555 1_555
H15 C17 1_555 1_555
C18 C17 1_555 1_555
H16 C18 1_555 1_555
C19 C18 1_555 1_555
C20 C15 1_555 1_555
H17 C20 1_555 1_555
C21 C19 1_555 1_555
H18 C21 1_555 1_555
H19 C21 1_555 1_555
C22 C21 1_555 1_555
Cd1 N1 1_555 1_555
N1 C2 1_555 1_555
N2 C2 1_555 1_555
O1 C13 1_555 1_555
O2 C13 1_555 1_555
O3 C22 1_555 1_555
O4 C22 1_555 1_555
C1B H1B 1_555 1_555
H2B C1B 1_555 1_555
H3B C1B 1_555 1_555
C2B C1B 1_555 1_555
C3B C4B 1_555 1_555
C4B H4B 1_555 1_555
C5B C4B 1_555 1_555
H5B C5B 1_555 1_555
C6B C5B 1_555 1_555
H6B C6B 1_555 1_555
C7B C6B 1_555 1_555
H7B C7B 1_555 1_555
C8B C3B 1_555 1_555
C9B H8B 1_555 1_555
H9B C9B 1_555 1_555
C10B C9B 1_555 1_555
C11B C12 1_555 1_555
H10B C11B 1_555 1_555
C12B C11 1_555 1_555
H11B C12B 1_555 1_555
C13_2 C14_2 1_555 1_555
C14_2 H12_2 1_555 1_555
H13_2 C14_2 1_555 1_555
C15_2 C14_2 1_555 1_555
C16_2 C15_2 1_555 1_555
H14_2 C16_2 1_555 1_555
C17_2 C16_2 1_555 1_555
H15_2 C17_2 1_555 1_555
C18_2 C17_2 1_555 1_555
H16_2 C18_2 1_555 1_555
C19_2 C18_2 1_555 1_555
C20_2 C15_2 1_555 1_555
H17_2 C20_2 1_555 1_555
C21_2 C19_2 1_555 1_555
H18_2 C21_2 1_555 1_555
H19_2 C21_2 1_555 1_555
C22_2 C21_2 1_555 1_555
Cd1B N1B 1_555 1_555
Cd1C O1 1_555 1_555
Cd1_2 O3 1_555 1_555
Cd1_3 O1_2 1_555 1_555
Cd1C_2 O1_2 1_555 1_555
N1B C2B 1_555 1_555
N2B C2B 1_555 1_555
O1_2 C13_2 1_555 1_555
O1C Cd1 1_555 1_555
O1B Cd1B 1_555 1_555
O1A Cd1B 1_555 1_555
O2_2 C13_2 1_555 1_555
O2C Cd1 1_555 1_555
O2A Cd1B 1_555 1_555
O3_2 Cd1 1_555 1_555
O3B Cd1B 1_555 1_555
O4_2 Cd1 1_555 1_555
O4B Cd1B 1_555 1_555
C3 N1 1_555 1_555
C7 C8 1_555 1_555
C8 N2 1_555 1_555
C9 N2 1_555 1_555
C19 C20 1_555 1_555
Cd1 O1 1_555 1_555
O2 Cd1C 1_555 1_555
O4 Cd1_2 1_555 1_555
C3B N1B 1_555 1_555
C7B C8B 1_555 1_555
C8B N2B 1_555 1_555
C9B N2B 1_555 1_555
C10B C11B 1_555 1_555
C10B C12B 1_555 1_555
C19_2 C20_2 1_555 1_555
C22_2 O3_2 1_555 1_555
C22_2 O4_2 1_555 1_555
Cd1C_2 O2_2 1_555 1_555

#END
