
#######################################################################
#
#                 Cambridge Crystallographic Data Centre
#                                CCDC 
#
#######################################################################
#
# If this CIF has been generated from an entry in the Cambridge 
# Structural Database, then it will include bibliographic, chemical, 
# crystal, experimental, refinement or atomic coordinate data resulting 
# from the CCDC's data processing and validation procedures.
#
#######################################################################

data_UBOFAU
_symmetry_cell_setting           triclinic
_symmetry_space_group_name_H-M   'P -1'
_symmetry_Int_Tables_number      2
_space_group_name_Hall           '-P 1'
loop_
_symmetry_equiv_pos_site_id
_symmetry_equiv_pos_as_xyz
1 x,y,z
2 -x,-y,-z
_cell_length_a                   9.900(2)
_cell_length_b                   10.868(2)
_cell_length_c                   15.037(3)
_cell_angle_alpha                90.00(3)
_cell_angle_beta                 102.16(3)
_cell_angle_gamma                109.35(3)
_cell_volume                     1487.96
loop_
_atom_site_label
_atom_site_type_symbol
_atom_site_fract_x
_atom_site_fract_y
_atom_site_fract_z
C1 C 0.6955(4) 0.5877(4) 0.4820(3)
H1 H 0.6506 0.4942 0.4761
H2 H 0.7192 0.6185 0.5451
H3 H 0.7837 0.6118 0.4592
C2 C 0.5928(4) 0.6469(3) 0.4291(2)
C3 C 0.4159(4) 0.6795(3) 0.3312(2)
C4 C 0.2917(4) 0.6678(4) 0.2627(3)
H4 H 0.2374 0.5892 0.2283
C5 C 0.2537(5) 0.7773(4) 0.2486(3)
H5 H 0.1703 0.7722 0.2045
C6 C 0.3362(5) 0.8970(4) 0.2985(3)
H6 H 0.3091 0.9701 0.2845
C7 C 0.4558(5) 0.9090(4) 0.3675(3)
H7 H 0.5092 0.9878 0.4019
C8 C 0.4931(4) 0.7976(3) 0.3834(2)
C9 C 0.7041(4) 0.8651(4) 0.5225(3)
H8 H 0.7116 0.8175 0.5769
H9 H 0.6614 0.9306 0.5335
C10 C 0.8566(4) 0.9336(3) 0.5080(2)
C11 C 0.9040(6) 0.9195(9) 0.4349(4)
H10 H 0.8385 0.8648 0.3857
C12 C 0.9519(6) 1.0173(8) 0.5722(4)
H11 H 0.9228 1.0353 0.6242
C13 C 0.6971(5) 0.6739(4) 0.1983(3)
H12 H 0.6983 0.7493 0.2321
H13 H 0.7759 0.6985 0.1668
H14 H 0.7091 0.6089 0.2395
C14 C 0.5539(4) 0.6193(3) 0.1306(3)
C15 C 0.3292(4) 0.5038(3) 0.0652(2)
C16 C 0.1882(5) 0.4156(4) 0.0407(3)
H15 H 0.1542 0.3492 0.0779
C17 C 0.0995(6) 0.4278(5) -0.0393(3)
H16 H 0.0031 0.3708 -0.0555
C18 C 0.1510(6) 0.5241(5) -0.0971(3)
H17 H 0.0888 0.5285 -0.1518
C19 C 0.2918(6) 0.6131(5) -0.0751(3)
H18 H 0.3264 0.6777 -0.1134
C20 C 0.3792(5) 0.6009(4) 0.0076(3)
C21 C 0.6144(5) 0.7851(4) 0.0128(3)
H19 H 0.6211 0.7594 -0.0475
H20 H 0.7127 0.8149 0.0513
C22 C 0.5531(5) 0.8957(4) 0.0063(3)
C23 C 0.5189(5) 0.9424(4) 0.0804(3)
H21 H 0.5319 0.9042 0.1354
C24 C 0.5347(5) 0.9546(4) -0.0744(3)
H22 H 0.5583 0.9249 -0.1251
C25 C 0.6537(4) 0.3047(4) 0.3472(3)
C26 C 0.7906(5) 0.2702(4) 0.3857(3)
H23 H 0.8305 0.2494 0.3364
H24 H 0.7663 0.1947 0.4212
C27 C 0.9029(4) 0.3879(4) 0.4460(3)
C28 C 0.9108(4) 0.4007(4) 0.5382(3)
H25 H 0.8499 0.3338 0.5649
C29 C 0.9931(4) 0.4898(4) 0.4081(3)
H26 H 0.9890 0.4844 0.3458
C30 C 0.1736(6) 0.2132(5) 0.2209(3)
C31 C 0.0235(6) 0.1082(6) 0.1833(4)
H27 H 0.0081 0.0386 0.2244
H28 H -0.0528 0.1463 0.1814
C32 C 0.0097(6) 0.0504(5) 0.0882(3)
C33 C 0.0825(6) -0.0333(5) 0.0735(4)
H29 H 0.1398 -0.0570 0.1232
C34 C -0.0728(6) 0.0828(5) 0.0127(4)
H30 H -0.1232 0.1393 0.0200
Cd1 Cd 0.43807(3) 0.40082(2) 0.271196(17)
N1 N 0.4813(3) 0.5871(3) 0.3601(2)
N2 N 0.6042(3) 0.7734(3) 0.4459(2)
N3 N 0.4435(3) 0.5180(3) 0.1423(2)
N4 N 0.5221(4) 0.6724(3) 0.0504(2)
O1 O 0.6567(3) 0.3722(3) 0.2795(2)
O2 O 0.5498(3) 0.2753(3) 0.3856(2)
O3 O 0.2841(4) 0.2021(3) 0.1977(3)
O4 O 0.1819(4) 0.3067(4) 0.2687(2)
C1A C 1.3045(4) 1.4123(4) 0.5180(3)
H1A H 1.3494 1.5058 0.5239
H2A H 1.2808 1.3815 0.4549
H3A H 1.2163 1.3882 0.5408
C2A C 1.4072(4) 1.3531(3) 0.5709(2)
C3A C 1.5841(4) 1.3205(3) 0.6688(2)
C4A C 1.7083(4) 1.3322(4) 0.7373(3)
H4A H 1.7626 1.4108 0.7717
C5A C 1.7463(5) 1.2227(4) 0.7514(3)
H5A H 1.8297 1.2278 0.7955
C6A C 1.6638(5) 1.1030(4) 0.7015(3)
H6A H 1.6909 1.0299 0.7155
C7A C 1.5442(5) 1.0910(4) 0.6325(3)
H7A H 1.4908 1.0122 0.5981
C8A C 1.5069(4) 1.2024(3) 0.6166(2)
C9A C 1.2959(4) 1.1349(4) 0.4775(3)
H8A H 1.2884 1.1825 0.4231
H9A H 1.3386 1.0694 0.4665
C10A C 1.1434(4) 1.0664(3) 0.4920(2)
C11A C 1.0960(6) 1.0805(9) 0.5651(4)
H10A H 1.1615 1.1352 0.6143
C12A C 1.0481(6) 0.9827(8) 0.4278(4)
H11A H 1.0772 0.9647 0.3758
C13A C 0.3029(5) 1.3261(4) -0.1983(3)
H12A H 0.3017 1.2507 -0.2321
H13A H 0.2241 1.3015 -0.1668
H14A H 0.2909 1.3911 -0.2395
C14A C 0.4461(4) 1.3807(3) -0.1306(3)
C15A C 0.6708(4) 1.4962(3) -0.0652(2)
C16A C 0.8118(5) 1.5844(4) -0.0407(3)
H15A H 0.8458 1.6508 -0.0779
C17A C 0.9005(6) 1.5722(5) 0.0393(3)
H16A H 0.9969 1.6292 0.0555
C18A C 0.8490(6) 1.4759(5) 0.0971(3)
H17A H 0.9112 1.4715 0.1518
C19A C 0.7082(6) 1.3869(5) 0.0751(3)
H18A H 0.6736 1.3223 0.1134
C20A C 0.6208(5) 1.3991(4) -0.0076(3)
C21A C 0.3856(5) 1.2149(4) -0.0128(3)
H19A H 0.3789 1.2406 0.0475
H20A H 0.2873 1.1851 -0.0513
C22A C 0.4469(5) 1.1043(4) -0.0063(3)
C23A C 0.4811(5) 1.0576(4) -0.0804(3)
H21A H 0.4681 1.0958 -0.1354
C24A C 0.4653(5) 1.0454(4) 0.0744(3)
H22A H 0.4417 1.0751 0.1251
C25A C 1.3463(4) 0.6953(4) 0.6528(3)
C26A C 1.2094(5) 0.7298(4) 0.6143(3)
H23A H 1.1695 0.7506 0.6636
H24A H 1.2337 0.8053 0.5788
C27A C 1.0971(4) 0.6121(4) 0.5540(3)
C28A C 1.0892(4) 0.5993(4) 0.4618(3)
H25A H 1.1501 0.6662 0.4351
C29A C 1.0069(4) 0.5102(4) 0.5919(3)
H26A H 1.0110 0.5156 0.6542
C30A C -0.1736(6) -0.2132(5) -0.2209(3)
C31A C -0.0235(6) -0.1082(6) -0.1833(4)
H27A H -0.0081 -0.0386 -0.2244
H28A H 0.0528 -0.1463 -0.1814
C32A C -0.0097(6) -0.0504(5) -0.0882(3)
C33A C -0.0825(6) 0.0333(5) -0.0735(4)
H29A H -0.1398 0.0570 -0.1232
C34A C 0.0728(6) -0.0828(5) -0.0127(4)
H30A H 0.1232 -0.1393 -0.0200
Cd1A Cd -0.43807(3) -0.40082(2) -0.271196(17)
Cd1A_2 Cd 0.56193(3) 1.59918(2) -0.271196(17)
Cd1A_3 Cd 1.56193(3) 0.59918(2) 0.728804(17)
Cd1A_4 Cd 1.56193(3) 1.59918(2) 0.728804(17)
N1A N 1.5187(3) 1.4129(3) 0.6399(2)
N1A_2 N -0.4813(3) -0.5871(3) -0.3601(2)
N2A N 1.3958(3) 1.2266(3) 0.5541(2)
N3A N 0.5565(3) 1.4820(3) -0.1423(2)
N3A_2 N -0.4435(3) -0.5180(3) -0.1423(2)
N4A N 0.4779(4) 1.3276(3) -0.0504(2)
O1A O 1.3433(3) 0.6278(3) 0.7205(2)
O1A_2 O -0.6567(3) -0.3722(3) -0.2795(2)
O2A O 1.4502(3) 0.7247(3) 0.6144(2)
O2A_2 O -0.5498(3) -0.2753(3) -0.3856(2)
O3A O -0.2841(4) -0.2021(3) -0.1977(3)
O4A O -0.1819(4) -0.3067(4) -0.2687(2)
loop_
_geom_bond_atom_site_label_1
_geom_bond_atom_site_label_2
_geom_bond_site_symmetry_1
_geom_bond_site_symmetry_2
C1 H1 1_555 1_555
H2 C1 1_555 1_555
H3 C1 1_555 1_555
C2 C1 1_555 1_555
C3 C4 1_555 1_555
C4 H4 1_555 1_555
C5 C4 1_555 1_555
H5 C5 1_555 1_555
C6 C5 1_555 1_555
H6 C6 1_555 1_555
C7 C6 1_555 1_555
H7 C7 1_555 1_555
C8 C3 1_555 1_555
C9 H8 1_555 1_555
H9 C9 1_555 1_555
C10 C9 1_555 1_555
C11 C10 1_555 1_555
H10 C11 1_555 1_555
C12 C10 1_555 1_555
H11 C12 1_555 1_555
C13 H12 1_555 1_555
H13 C13 1_555 1_555
H14 C13 1_555 1_555
C14 C13 1_555 1_555
C15 C16 1_555 1_555
C16 H15 1_555 1_555
C17 C16 1_555 1_555
H16 C17 1_555 1_555
C18 C17 1_555 1_555
H17 C18 1_555 1_555
C19 C18 1_555 1_555
H18 C19 1_555 1_555
C20 C15 1_555 1_555
C21 H19 1_555 1_555
H20 C21 1_555 1_555
C22 C21 1_555 1_555
C23 C22 1_555 1_555
H21 C23 1_555 1_555
C24 C22 1_555 1_555
H22 C24 1_555 1_555
C25 C26 1_555 1_555
C26 H23 1_555 1_555
H24 C26 1_555 1_555
C27 C26 1_555 1_555
C28 C27 1_555 1_555
H25 C28 1_555 1_555
C29 C27 1_555 1_555
H26 C29 1_555 1_555
C30 C31 1_555 1_555
C31 H27 1_555 1_555
H28 C31 1_555 1_555
C32 C31 1_555 1_555
C33 C32 1_555 1_555
H29 C33 1_555 1_555
C34 C32 1_555 1_555
H30 C34 1_555 1_555
Cd1 N1 1_555 1_555
N1 C2 1_555 1_555
N2 C2 1_555 1_555
N3 C14 1_555 1_555
N4 C14 1_555 1_555
O1 C25 1_555 1_555
O2 C25 1_555 1_555
O3 C30 1_555 1_555
O4 C30 1_555 1_555
C1A H1A 1_555 1_555
H2A C1A 1_555 1_555
H3A C1A 1_555 1_555
C2A C1A 1_555 1_555
C3A C4A 1_555 1_555
C4A H4A 1_555 1_555
C5A C4A 1_555 1_555
H5A C5A 1_555 1_555
C6A C5A 1_555 1_555
H6A C6A 1_555 1_555
C7A C6A 1_555 1_555
H7A C7A 1_555 1_555
C8A C3A 1_555 1_555
C9A H8A 1_555 1_555
H9A C9A 1_555 1_555
C10A C9A 1_555 1_555
C11A C12 1_555 1_555
H10A C11A 1_555 1_555
C12A C11 1_555 1_555
H11A C12A 1_555 1_555
C13A H12A 1_555 1_555
H13A C13A 1_555 1_555
H14A C13A 1_555 1_555
C14A C13A 1_555 1_555
C15A C16A 1_555 1_555
C16A H15A 1_555 1_555
C17A C16A 1_555 1_555
H16A C17A 1_555 1_555
C18A C17A 1_555 1_555
H17A C18A 1_555 1_555
C19A C18A 1_555 1_555
H18A C19A 1_555 1_555
C20A C15A 1_555 1_555
C21A H19A 1_555 1_555
H20A C21A 1_555 1_555
C22A C21A 1_555 1_555
C23A C24 1_555 1_555
H21A C23A 1_555 1_555
C24A C23 1_555 1_555
H22A C24A 1_555 1_555
C25A C26A 1_555 1_555
C26A H23A 1_555 1_555
H24A C26A 1_555 1_555
C27A C26A 1_555 1_555
C28A C29 1_555 1_555
H25A C28A 1_555 1_555
C29A C28 1_555 1_555
H26A C29A 1_555 1_555
C30A C31A 1_555 1_555
C31A H27A 1_555 1_555
H28A C31A 1_555 1_555
C32A C31A 1_555 1_555
C33A C34 1_555 1_555
H29A C33A 1_555 1_555
C34A C33 1_555 1_555
H30A C34A 1_555 1_555
Cd1A N1A_2 1_555 1_555
Cd1A_2 N3A 1_555 1_555
Cd1A_3 O1A 1_555 1_555
Cd1A_4 N1A 1_555 1_555
N1A C2A 1_555 1_555
N2A C2A 1_555 1_555
N3A C14A 1_555 1_555
N3A_2 Cd1A 1_555 1_555
N4A C14A 1_555 1_555
O1A C25A 1_555 1_555
O1A_2 Cd1A 1_555 1_555
O2A C25A 1_555 1_555
O2A_2 Cd1A 1_555 1_555
O3A C30A 1_555 1_555
O4A C30A 1_555 1_555
C3 N1 1_555 1_555
C7 C8 1_555 1_555
C8 N2 1_555 1_555
C9 N2 1_555 1_555
C15 N3 1_555 1_555
C19 C20 1_555 1_555
C20 N4 1_555 1_555
C21 N4 1_555 1_555
Cd1 N3 1_555 1_555
Cd1 O1 1_555 1_555
Cd1 O2 1_555 1_555
Cd1 O3 1_555 1_555
Cd1 O4 1_555 1_555
C3A N1A 1_555 1_555
C7A C8A 1_555 1_555
C8A N2A 1_555 1_555
C9A N2A 1_555 1_555
C10A C11A 1_555 1_555
C10A C12A 1_555 1_555
C15A N3A 1_555 1_555
C19A C20A 1_555 1_555
C20A N4A 1_555 1_555
C21A N4A 1_555 1_555
C22A C23A 1_555 1_555
C22A C24A 1_555 1_555
C27A C28A 1_555 1_555
C27A C29A 1_555 1_555
C32A C33A 1_555 1_555
C32A C34A 1_555 1_555
Cd1A O3A 1_555 1_555
Cd1A O4A 1_555 1_555
Cd1A_3 O2A 1_555 1_555

#END
