
#######################################################################
#
#                 Cambridge Crystallographic Data Centre
#                                CCDC 
#
#######################################################################
#
# If this CIF has been generated from an entry in the Cambridge 
# Structural Database, then it will include bibliographic, chemical, 
# crystal, experimental, refinement or atomic coordinate data resulting 
# from the CCDC's data processing and validation procedures.
#
#######################################################################

data_UBOFUO
_symmetry_cell_setting           triclinic
_symmetry_space_group_name_H-M   'P -1'
_symmetry_Int_Tables_number      2
_space_group_name_Hall           '-P 1'
loop_
_symmetry_equiv_pos_site_id
_symmetry_equiv_pos_as_xyz
1 x,y,z
2 -x,-y,-z
_cell_length_a                   10.1130(11)
_cell_length_b                   10.7154(12)
_cell_length_c                   10.7332(12)
_cell_angle_alpha                60.8610(10)
_cell_angle_beta                 80.4860(10)
_cell_angle_gamma                76.6040(10)
_cell_volume                     986.373
loop_
_atom_site_label
_atom_site_type_symbol
_atom_site_fract_x
_atom_site_fract_y
_atom_site_fract_z
U1 U 0.5000 0.0000 0.0000
U2 U 0.5000 0.0000 0.5000
Cu1 Cu 0.03369(10) -0.00652(9) 0.22679(10)
Cu2 Cu 1.0000 0.0000 0.5000
P1 P 0.31605(18) -0.14759(19) 0.34839(19)
P2 P 0.72954(18) 0.0788(2) 0.18355(19)
O1 O 0.6252(5) -0.1588(5) 0.0256(5)
O2 O 0.4023(5) 0.1605(6) 0.3729(5)
O3 O 0.3872(5) -0.1312(5) 0.2064(5)
O4 O 0.4105(5) -0.1371(6) 0.4381(5)
O5 O 0.1832(5) -0.0382(6) 0.3323(6)
O6 O 0.6892(5) 0.0241(6) 0.3424(5)
O7 O 0.8704(5) -0.0025(5) 0.1592(5)
O8 O 0.6239(5) 0.0570(5) 0.1136(5)
O9 O 0.1185(5) -0.1739(6) 0.1909(6)
O10 O 0.0661(7) -0.3785(7) 0.2296(7)
O11 O 0.9362(5) 0.1306(6) 0.3040(5)
O12 O 0.9603(7) 0.3454(7) 0.2718(7)
O13 O 0.0959(6) 0.1563(6) -0.0060(6)
O14 O 0.9194(6) -0.1505(6) 0.4970(7)
C1 C 0.2812(7) -0.3334(8) 0.4447(8)
C2 C 0.2032(8) -0.3928(8) 0.3989(9)
C3 C 0.1921(10) -0.5416(10) 0.4785(10)
H1 H 0.1394 -0.5819 0.4464
C4 C 0.2594(11) -0.6278(9) 0.6043(10)
H2 H 0.2515 -0.7273 0.6592
C5 C 0.3378(10) -0.5695(10) 0.6501(9)
H3 H 0.3845 -0.6295 0.7354
C6 C 0.3484(9) -0.4242(9) 0.5722(9)
H4 H 0.4017 -0.3851 0.6051
C7 C 0.1254(8) -0.3060(8) 0.2665(8)
C8 C 0.7327(7) 0.2731(8) 0.0913(8)
C9 C 0.8145(8) 0.3458(8) 0.1186(8)
C10 C 0.8093(9) 0.4943(9) 0.0363(9)
H5 H 0.8645 0.5415 0.0574
C11 C 0.7251(9) 0.5744(9) -0.0758(9)
H6 H 0.7226 0.6760 -0.1318
C12 C 0.6449(9) 0.5063(9) -0.1059(9)
H7 H 0.5879 0.5611 -0.1839
C13 C 0.6463(8) 0.3555(8) -0.0219(9)
H8 H 0.5886 0.3099 -0.0421
C14 C 0.9107(8) 0.2712(8) 0.2378(8)
U2_2 U 0.5000 0.0000 -0.5000
Cu1A Cu 0.96631(10) 0.00652(9) -0.22679(10)
Cu1_2 Cu 1.03369(10) -0.00652(9) 0.22679(10)
Cu1A_2 Cu -0.03369(10) 0.00652(9) -0.22679(10)
Cu2_2 Cu 0.0000 0.0000 -0.5000
P1A P 0.68395(18) 0.14759(19) -0.34839(19)
P2A P 0.27046(18) -0.0788(2) -0.18355(19)
O1A O 0.3748(5) 0.1588(5) -0.0256(5)
O2A O 0.5977(5) -0.1605(6) 0.6271(5)
O3A O 0.6128(5) 0.1312(5) -0.2064(5)
O4A O 0.5895(5) 0.1371(6) -0.4381(5)
O4A_2 O 0.5895(5) 0.1371(6) 0.5619(5)
O5A O 0.8168(5) 0.0382(6) -0.3323(6)
O6A O 0.3108(5) -0.0241(6) -0.3424(5)
O6A_2 O 0.3108(5) -0.0241(6) 0.6576(5)
O7A O 0.1296(5) 0.0025(5) -0.1592(5)
O7_2 O -0.1296(5) -0.0025(5) 0.1592(5)
O7A_2 O 1.1296(5) 0.0025(5) -0.1592(5)
O8A O 0.3761(5) -0.0570(5) -0.1136(5)
O9A O 0.8815(5) 0.1739(6) -0.1909(6)
O10A O 0.9339(7) 0.3785(7) -0.2296(7)
O11A O 0.0638(5) -0.1306(6) -0.3040(5)
O11_2 O -0.0638(5) 0.1306(6) 0.3040(5)
O11A_2 O 1.0638(5) -0.1306(6) 0.6960(5)
O11A_3 O 1.0638(5) -0.1306(6) -0.3040(5)
O12A O 0.0397(7) -0.3454(7) -0.2718(7)
O13A O 0.9041(6) -0.1563(6) 0.0060(6)
O14A O 1.0806(6) 0.1505(6) 0.5030(7)
C1A C 0.7188(7) 0.3334(8) -0.4447(8)
C2A C 0.7968(8) 0.3928(8) -0.3989(9)
C3A C 0.8079(10) 0.5416(10) -0.4785(10)
H1A H 0.8606 0.5819 -0.4464
C4A C 0.7406(11) 0.6278(9) -0.6043(10)
H2A H 0.7485 0.7273 -0.6592
C5A C 0.6622(10) 0.5695(10) -0.6501(9)
H3A H 0.6155 0.6295 -0.7354
C6A C 0.6516(9) 0.4242(9) -0.5722(9)
H4A H 0.5983 0.3851 -0.6051
C7A C 0.8746(8) 0.3060(8) -0.2665(8)
C8A C 0.2673(7) -0.2731(8) -0.0913(8)
C9A C 0.1855(8) -0.3458(8) -0.1186(8)
C10A C 0.1907(9) -0.4943(9) -0.0363(9)
H5A H 0.1355 -0.5415 -0.0574
C11A C 0.2749(9) -0.5744(9) 0.0758(9)
H6A H 0.2774 -0.6760 0.1318
C12A C 0.3551(9) -0.5063(9) 0.1059(9)
H7A H 0.4121 -0.5611 0.1839
C13A C 0.3537(8) -0.3555(8) 0.0219(9)
H8A H 0.4114 -0.3099 0.0421
C14A C 0.0893(8) -0.2712(8) -0.2378(8)
loop_
_geom_bond_atom_site_label_1
_geom_bond_atom_site_label_2
_geom_bond_site_symmetry_1
_geom_bond_site_symmetry_2
U1 O1 1_555 1_555
U2 O2 1_555 1_555
Cu1 O5 1_555 1_555
Cu2 O11 1_555 1_555
P1 O3 1_555 1_555
P2 O6 1_555 1_555
O3 U1 1_555 1_555
O4 U2 1_555 1_555
O5 P1 1_555 1_555
O6 U2 1_555 1_555
O7 P2 1_555 1_555
O8 U1 1_555 1_555
O9 Cu1 1_555 1_555
O10 C7 1_555 1_555
O11 C14 1_555 1_555
O12 C14 1_555 1_555
O13 Cu1 1_555 1_555
O14 Cu2 1_555 1_555
C1 P1 1_555 1_555
C2 C1 1_555 1_555
C3 C2 1_555 1_555
H1 C3 1_555 1_555
C4 C3 1_555 1_555
H2 C4 1_555 1_555
C5 C4 1_555 1_555
H3 C5 1_555 1_555
C6 C1 1_555 1_555
H4 C6 1_555 1_555
C7 O9 1_555 1_555
C8 P2 1_555 1_555
C9 C8 1_555 1_555
C10 C9 1_555 1_555
H5 C10 1_555 1_555
C11 C10 1_555 1_555
H6 C11 1_555 1_555
C12 C11 1_555 1_555
H7 C12 1_555 1_555
C13 C8 1_555 1_555
H8 C13 1_555 1_555
C14 C9 1_555 1_555
U2_2 O4A 1_555 1_555
Cu1A O5A 1_555 1_555
Cu1_2 O7 1_555 1_555
Cu1A_2 O7A 1_555 1_555
Cu2_2 O11A 1_555 1_555
P1A O3A 1_555 1_555
P2A O6A 1_555 1_555
O1A U1 1_555 1_555
O2A U2 1_555 1_555
O3A U1 1_555 1_555
O4A P1A 1_555 1_555
O4A_2 U2 1_555 1_555
O5A P1A 1_555 1_555
O6A U2_2 1_555 1_555
O6A_2 U2 1_555 1_555
O7A P2A 1_555 1_555
O7_2 Cu1 1_555 1_555
O7A_2 Cu1A 1_555 1_555
O8A U1 1_555 1_555
O9A Cu1A 1_555 1_555
O10A C7A 1_555 1_555
O11A Cu1A_2 1_555 1_555
O11_2 Cu1 1_555 1_555
O11A_2 Cu2 1_555 1_555
O11A_3 Cu1A 1_555 1_555
O12A C14A 1_555 1_555
O13A Cu1A 1_555 1_555
O14A Cu2 1_555 1_555
C1A P1A 1_555 1_555
C2A C1A 1_555 1_555
C3A C2A 1_555 1_555
H1A C3A 1_555 1_555
C4A C3A 1_555 1_555
H2A C4A 1_555 1_555
C5A C4A 1_555 1_555
H3A C5A 1_555 1_555
C6A C1A 1_555 1_555
H4A C6A 1_555 1_555
C7A O9A 1_555 1_555
C8A P2A 1_555 1_555
C9A C8A 1_555 1_555
C10A C9A 1_555 1_555
H5A C10A 1_555 1_555
C11A C10A 1_555 1_555
H6A C11A 1_555 1_555
C12A C11A 1_555 1_555
H7A C12A 1_555 1_555
C13A C8A 1_555 1_555
H8A C13A 1_555 1_555
C14A O11A 1_555 1_555
P1 O4 1_555 1_555
P2 O8 1_555 1_555
O11 Cu1_2 1_555 1_555
C2 C7 1_555 1_555
C5 C6 1_555 1_555
C12 C13 1_555 1_555
P2A O8A 1_555 1_555
C2A C7A 1_555 1_555
C5A C6A 1_555 1_555
C9A C14A 1_555 1_555
C12A C13A 1_555 1_555

#END
