
#######################################################################
#
#                 Cambridge Crystallographic Data Centre
#                                CCDC 
#
#######################################################################
#
# If this CIF has been generated from an entry in the Cambridge 
# Structural Database, then it will include bibliographic, chemical, 
# crystal, experimental, refinement or atomic coordinate data resulting 
# from the CCDC's data processing and validation procedures.
#
#######################################################################

data_UBOQEH
_symmetry_cell_setting           triclinic
_symmetry_space_group_name_H-M   'P -1'
_symmetry_Int_Tables_number      2
_space_group_name_Hall           '-P 1'
loop_
_symmetry_equiv_pos_site_id
_symmetry_equiv_pos_as_xyz
1 x,y,z
2 -x,-y,-z
_cell_length_a                   12.417(2)
_cell_length_b                   13.150(3)
_cell_length_c                   18.030(4)
_cell_angle_alpha                73.63(3)
_cell_angle_beta                 72.64(3)
_cell_angle_gamma                70.28(3)
_cell_volume                     2590.78
loop_
_atom_site_label
_atom_site_type_symbol
_atom_site_fract_x
_atom_site_fract_y
_atom_site_fract_z
Cu1 Cu 1.0000 0.0000 0.0000
Cu2 Cu 0.83288(4) 0.17033(3) 0.16265(2)
Cu3 Cu 0.66980(4) 0.34149(3) 0.32749(2)
Cu4 Cu 0.5000 0.5000 0.5000
C1 C 0.7406(3) 0.0464(3) 0.0089(2)
C2 C 0.6507(3) 0.1628(3) 0.0866(2)
N1 N 0.8202(3) 0.0609(2) 0.03560(16)
N2 N 0.7624(3) 0.1338(2) 0.08606(16)
N3 N 0.6334(3) 0.1087(2) 0.03950(17)
N4 N 0.5230(3) 0.1218(3) 0.02672(18)
C3 C 1.0961(3) 0.2180(3) -0.0313(2)
C4 C 0.9967(3) 0.3040(3) 0.0639(2)
N5 N 1.0197(3) 0.1639(2) 0.01268(17)
N6 N 0.9566(3) 0.2189(2) 0.07409(16)
N7 N 1.0841(3) 0.3043(2) -0.00077(17)
N8 N 1.1526(3) 0.3793(2) -0.03328(18)
C5 C 1.0702(3) -0.1680(3) 0.1404(2)
C6 C 0.9873(3) -0.0837(3) 0.2389(2)
N9 N 1.0112(3) -0.0685(2) 0.11297(16)
N10 N 0.9581(3) -0.0133(2) 0.17546(16)
N11 N 1.0564(3) -0.1806(2) 0.21922(17)
N12 N 1.1061(3) -0.2745(3) 0.27296(19)
C7 C 0.6761(3) 0.0324(3) 0.2664(2)
C8 C 0.5779(3) 0.1200(3) 0.3607(2)
N13 N 0.7098(3) 0.1213(2) 0.25232(17)
N14 N 0.6474(3) 0.1783(2) 0.31235(16)
N15 N 0.5937(3) 0.0294(3) 0.33316(18)
N16 N 0.5390(3) -0.0566(3) 0.3658(2)
C9 C 0.6942(3) 0.4163(3) 0.0866(2)
C10 C 0.6061(3) 0.5104(3) 0.1787(2)
N17 N 0.7159(3) 0.3509(2) 0.15302(17)
N18 N 0.6598(3) 0.4115(2) 0.21200(17)
N19 N 0.6262(3) 0.5164(2) 0.09938(17)
N20 N 0.5900(3) 0.6050(3) 0.03772(18)
C11 C 1.0140(3) 0.1685(3) 0.2427(2)
C12 C 0.9248(3) 0.2764(3) 0.3266(2)
N21 N 0.9030(3) 0.2030(2) 0.24002(16)
N22 N 0.8459(3) 0.2716(2) 0.29416(16)
N23 N 1.0305(3) 0.2123(2) 0.29585(17)
N24 N 1.1406(3) 0.1965(3) 0.31132(18)
C13 C 0.7454(3) 0.1724(3) 0.4686(2)
C14 C 0.6453(3) 0.2499(3) 0.5686(2)
N25 N 0.6810(3) 0.2706(2) 0.44154(16)
N26 N 0.6186(3) 0.3206(2) 0.50512(17)
N27 N 0.7235(3) 0.1575(2) 0.54823(17)
N28 N 0.7788(3) 0.0616(2) 0.59767(18)
C15 C 0.4171(3) 0.3987(3) 0.3292(2)
C16 C 0.3221(3) 0.5034(3) 0.4141(2)
N29 N 0.4937(3) 0.4068(2) 0.36182(16)
N30 N 0.4317(3) 0.4737(2) 0.41686(16)
N31 N 0.3090(3) 0.4585(2) 0.35913(17)
N32 N 0.2017(3) 0.4672(3) 0.34342(18)
C17 C 0.7596(3) 0.5598(3) 0.3035(2)
C18 C 0.6617(3) 0.6407(3) 0.4016(2)
N33 N 0.6880(3) 0.5015(2) 0.34882(17)
N34 N 0.6251(3) 0.5532(2) 0.41147(16)
N35 N 0.7451(3) 0.6457(2) 0.33538(18)
N36 N 0.8040(3) 0.7291(3) 0.30089(19)
H15 H 0.5389 0.1248 -0.0297
H16 H 0.5128 0.0517 0.0590
H17 H 1.1201 0.4390 -0.0723
H18 H 1.1502 0.4066 0.0114
H19 H 1.1029 -0.3386 0.2607
H20 H 1.1598 -0.2353 0.2737
H21 H 0.5512 -0.0813 0.4184
H22 H 0.4716 -0.0357 0.3428
H23 H 0.5958 0.6717 0.0452
H24 H 0.5076 0.6147 0.0456
H25 H 1.1533 0.2682 0.2926
H26 H 1.1251 0.1764 0.3682
H27 H 0.7563 0.0709 0.6515
H28 H 0.7552 -0.0006 0.5971
H29 H 0.1906 0.3930 0.3702
H30 H 0.2253 0.4796 0.2869
H31 H 0.8881 0.7059 0.2904
H32 H 0.7995 0.7561 0.3462
H33 H 0.7500 -0.0083 -0.0286
H34 H 0.5781 0.2181 0.1191
H35 H 1.1642 0.2015 -0.0832
H36 H 0.9670 0.3589 0.1047
H37 H 1.1155 -0.2253 0.1013
H38 H 0.9702 -0.0728 0.2989
H39 H 0.7071 -0.0266 0.2282
H40 H 0.5205 0.1355 0.4164
H41 H 0.7232 0.3927 0.0298
H42 H 0.5526 0.5776 0.2083
H43 H 1.0802 0.1168 0.2047
H44 H 0.9146 0.3202 0.3718
H45 H 0.8015 0.1095 0.4356
H46 H 0.6151 0.2557 0.6302
H47 H 0.4304 0.3496 0.2866
H48 H 0.2505 0.5575 0.4480
H49 H 0.8281 0.5411 0.2521
H50 H 0.6268 0.6994 0.4402
C1A C 1.2594(3) -0.0464(3) -0.0089(2)
C2A C 1.3493(3) -0.1628(3) -0.0866(2)
N1A N 1.1798(3) -0.0609(2) -0.03560(16)
N2A N 1.2376(3) -0.1338(2) -0.08606(16)
N3A N 1.3666(3) -0.1087(2) -0.03950(17)
N4A N 1.4770(3) -0.1218(3) -0.02672(18)
H15A H 1.4611 -0.1248 0.0297
H16A H 1.4872 -0.0517 -0.0590
H33A H 1.2500 0.0083 0.0286
H34A H 1.4219 -0.2181 -0.1191
C3A C 0.9039(3) -0.2180(3) 0.0313(2)
C4A C 1.0033(3) -0.3040(3) -0.0639(2)
N5A N 0.9803(3) -0.1639(2) -0.01268(17)
N6A N 1.0434(3) -0.2189(2) -0.07409(16)
N7A N 0.9159(3) -0.3043(2) 0.00077(17)
N8A N 0.8474(3) -0.3793(2) 0.03328(18)
H17A H 0.8799 -0.4390 0.0723
H18A H 0.8498 -0.4066 -0.0114
H35A H 0.8358 -0.2015 0.0832
H36A H 1.0330 -0.3589 -0.1047
C5A C 0.9298(3) 0.1680(3) -0.1404(2)
C6A C 1.0127(3) 0.0837(3) -0.2389(2)
N9A N 0.9888(3) 0.0685(2) -0.11297(16)
N10A N 1.0419(3) 0.0133(2) -0.17546(16)
N11A N 0.9436(3) 0.1806(2) -0.21922(17)
N12A N 0.8939(3) 0.2745(3) -0.27296(19)
H19A H 0.8971 0.3386 -0.2607
H20A H 0.8402 0.2353 -0.2737
H37A H 0.8845 0.2253 -0.1013
H38A H 1.0298 0.0728 -0.2989
Cu2A Cu 1.16712(4) -0.17033(3) -0.16265(2)
C7A C 1.3239(3) -0.0324(3) -0.2664(2)
C8A C 1.4221(3) -0.1200(3) -0.3607(2)
N13A N 1.2902(3) -0.1213(2) -0.25232(17)
N14A N 1.3526(3) -0.1783(2) -0.31235(16)
N15A N 1.4063(3) -0.0294(3) -0.33316(18)
N16A N 1.4610(3) 0.0566(3) -0.3658(2)
H21A H 1.4488 0.0813 -0.4184
H22A H 1.5284 0.0357 -0.3428
H39A H 1.2929 0.0266 -0.2282
H40A H 1.4795 -0.1355 -0.4164
C9A C 1.3058(3) -0.4163(3) -0.0866(2)
C10A C 1.3939(3) -0.5104(3) -0.1787(2)
N17A N 1.2841(3) -0.3509(2) -0.15302(17)
N18A N 1.3402(3) -0.4115(2) -0.21200(17)
N19A N 1.3738(3) -0.5164(2) -0.09938(17)
N20A N 1.4100(3) -0.6050(3) -0.03772(18)
H23A H 1.4042 -0.6717 -0.0452
H24A H 1.4924 -0.6147 -0.0456
H41A H 1.2768 -0.3927 -0.0298
H42A H 1.4474 -0.5776 -0.2083
C11A C 0.9860(3) -0.1685(3) -0.2427(2)
C12A C 1.0752(3) -0.2764(3) -0.3266(2)
N21A N 1.0970(3) -0.2030(2) -0.24002(16)
N22A N 1.1541(3) -0.2716(2) -0.29416(16)
N23A N 0.9695(3) -0.2123(2) -0.29585(17)
N24A N 0.8594(3) -0.1965(3) -0.31132(18)
H25A H 0.8467 -0.2682 -0.2926
H26A H 0.8749 -0.1764 -0.3682
H43A H 0.9198 -0.1168 -0.2047
H44A H 1.0854 -0.3202 -0.3718
Cu3A Cu 1.33020(4) -0.34149(3) -0.32749(2)
C13A C 1.2546(3) -0.1724(3) -0.4686(2)
C14A C 1.3547(3) -0.2499(3) -0.5686(2)
N25A N 1.3190(3) -0.2706(2) -0.44154(16)
N26A N 1.3814(3) -0.3206(2) -0.50512(17)
N27A N 1.2765(3) -0.1575(2) -0.54823(17)
N28A N 1.2212(3) -0.0616(2) -0.59767(18)
H27A H 1.2437 -0.0709 -0.6515
H28A H 1.2448 0.0006 -0.5971
H45A H 1.1985 -0.1095 -0.4356
H46A H 1.3849 -0.2557 -0.6302
C15A C 1.5829(3) -0.3987(3) -0.3292(2)
C16A C 1.6779(3) -0.5034(3) -0.4141(2)
N29A N 1.5063(3) -0.4068(2) -0.36182(16)
N30A N 1.5683(3) -0.4737(2) -0.41686(16)
N31A N 1.6910(3) -0.4585(2) -0.35913(17)
N32A N 1.7983(3) -0.4672(3) -0.34342(18)
H29A H 1.8094 -0.3930 -0.3702
H30A H 1.7747 -0.4796 -0.2869
H47A H 1.5696 -0.3496 -0.2866
H48A H 1.7495 -0.5575 -0.4480
C17A C 1.2404(3) -0.5598(3) -0.3035(2)
C18A C 1.3383(3) -0.6407(3) -0.4016(2)
N33A N 1.3120(3) -0.5015(2) -0.34882(17)
N34A N 1.3749(3) -0.5532(2) -0.41147(16)
N35A N 1.2549(3) -0.6457(2) -0.33538(18)
N36A N 1.1960(3) -0.7291(3) -0.30089(19)
H31A H 1.1119 -0.7059 -0.2904
H32A H 1.2005 -0.7561 -0.3462
H49A H 1.1719 -0.5411 -0.2521
H50A H 1.3732 -0.6994 -0.4402
N26A_2 N 0.3814(3) 0.6794(2) 0.49488(17)
N30A_2 N 0.5683(3) 0.5263(2) 0.58314(16)
N34A_2 N 0.3749(3) 0.4468(2) 0.58853(16)
Cu4_2 Cu 1.5000 -0.5000 -0.5000
Si1 Si 1.38689(11) -0.17293(9) 0.19963(6)
F1 F 1.3671(2) -0.2913(2) 0.25746(15)
F2 F 1.4505(2) -0.1546(2) 0.26266(14)
F3 F 1.4092(2) -0.05221(18) 0.13859(14)
F4 F 1.2572(2) -0.1023(2) 0.24642(14)
F5 F 1.5176(2) -0.2384(2) 0.15034(15)
F6 F 1.3208(2) -0.1854(2) 0.13490(13)
Si2 Si 1.74911(9) -0.17780(8) 0.51077(6)
F7 F 1.62354(19) -0.19411(19) 0.50363(12)
F8 F 1.6829(2) -0.04544(18) 0.51741(14)
F9 F 1.71267(19) -0.21624(18) 0.60982(12)
F10 F 1.7880(2) -0.14202(19) 0.41179(12)
F11 F 1.87747(19) -0.16453(18) 0.51867(12)
F12 F 1.8168(2) -0.31117(18) 0.50530(14)
Si3 Si 1.91089(9) 0.51348(8) -0.16658(6)
F13 F 2.04027(18) 0.52525(18) -0.16176(12)
F14 F 1.88479(19) 0.45811(18) -0.06981(12)
F15 F 1.93509(19) 0.56958(17) -0.26352(12)
F16 F 1.78058(19) 0.50214(18) -0.17300(12)
F17 F 1.9797(2) 0.38722(17) -0.18840(13)
F18 F 1.84224(19) 0.64035(18) -0.14570(13)
O1 O 1.9688(2) -0.0070(2) 0.40132(15)
H1 H 2.0536 -0.0185 0.4059
H2 H 1.9422 -0.0652 0.4415
O2 O 1.6704(3) 0.3515(2) -0.06957(16)
H3 H 1.6784 0.2958 -0.0937
H4 H 1.7194 0.4031 -0.1111
O3 O 1.5772(2) 0.6988(2) -0.18695(16)
H5 H 1.5773 0.7695 -0.2196
H6 H 1.6453 0.6445 -0.1557
O4 O 2.0957(3) -0.3509(2) 0.51658(17)
H7 H 2.0619 -0.4151 0.5438
H8 H 2.0198 -0.2926 0.4980
O5 O 1.0482(2) 0.4523(2) 0.58974(17)
H9 H 0.9656 0.4545 0.6039
H10 H 1.0603 0.3924 0.5620
O6 O 1.6125(3) -0.0893(2) -0.24583(18)
H11 H 1.6970 -0.1123 -0.2643
O7 O 1.7657(3) -0.1335(3) -0.10278(17)
H12 H 1.7088 -0.0628 -0.1325
O8 O 0.3052(3) 0.1418(2) 0.83145(16)
H13 H 0.2786 0.1865 0.7787
H14 H 0.3219 0.1742 0.8608
loop_
_geom_bond_atom_site_label_1
_geom_bond_atom_site_label_2
_geom_bond_site_symmetry_1
_geom_bond_site_symmetry_2
Cu1 N1 1_555 1_555
Cu2 N2 1_555 1_555
Cu3 N14 1_555 1_555
Cu4 N26 1_555 1_555
Si1 F1 1_555 1_555
F2 Si1 1_555 1_555
F3 Si1 1_555 1_555
F4 Si1 1_555 1_555
F5 Si1 1_555 1_555
F6 Si1 1_555 1_555
Si2 F7 1_555 1_555
F8 Si2 1_555 1_555
F9 Si2 1_555 1_555
F10 Si2 1_555 1_555
F11 Si2 1_555 1_555
F12 Si2 1_555 1_555
Si3 F13 1_555 1_555
F14 Si3 1_555 1_555
F15 Si3 1_555 1_555
F16 Si3 1_555 1_555
F17 Si3 1_555 1_555
F18 Si3 1_555 1_555
O1 H1 1_555 1_555
O2 H3 1_555 1_555
O3 H5 1_555 1_555
O4 H7 1_555 1_555
O5 H9 1_555 1_555
O6 H11 1_555 1_555
O7 H12 1_555 1_555
O8 H13 1_555 1_555
C1 N1 1_555 1_555
C2 N2 1_555 1_555
N1 N2 1_555 1_555
N3 C1 1_555 1_555
N4 N3 1_555 1_555
C3 N5 1_555 1_555
C4 N6 1_555 1_555
N5 Cu1 1_555 1_555
N6 Cu2 1_555 1_555
N7 C3 1_555 1_555
N8 N7 1_555 1_555
C5 N9 1_555 1_555
C6 N10 1_555 1_555
N9 Cu1 1_555 1_555
N10 Cu2 1_555 1_555
N11 C5 1_555 1_555
N12 N11 1_555 1_555
C7 N13 1_555 1_555
C8 N14 1_555 1_555
N13 Cu2 1_555 1_555
N14 N13 1_555 1_555
N15 C7 1_555 1_555
N16 N15 1_555 1_555
C9 N17 1_555 1_555
C10 N18 1_555 1_555
N17 Cu2 1_555 1_555
N18 Cu3 1_555 1_555
N19 C9 1_555 1_555
N20 N19 1_555 1_555
C11 N21 1_555 1_555
C12 N22 1_555 1_555
N21 Cu2 1_555 1_555
N22 Cu3 1_555 1_555
N23 C11 1_555 1_555
N24 N23 1_555 1_555
C13 N25 1_555 1_555
C14 N26 1_555 1_555
N25 Cu3 1_555 1_555
N26 N25 1_555 1_555
N27 C13 1_555 1_555
N28 N27 1_555 1_555
C15 N29 1_555 1_555
C16 N30 1_555 1_555
N29 Cu3 1_555 1_555
N30 Cu4 1_555 1_555
N31 C15 1_555 1_555
N32 N31 1_555 1_555
C17 N33 1_555 1_555
C18 N34 1_555 1_555
N33 Cu3 1_555 1_555
N34 Cu4 1_555 1_555
N35 C17 1_555 1_555
N36 N35 1_555 1_555
H2 O1 1_555 1_555
H4 O2 1_555 1_555
H6 O3 1_555 1_555
H8 O4 1_555 1_555
H10 O5 1_555 1_555
H14 O8 1_555 1_555
H15 N4 1_555 1_555
H16 N4 1_555 1_555
H17 N8 1_555 1_555
H18 N8 1_555 1_555
H19 N12 1_555 1_555
H20 N12 1_555 1_555
H21 N16 1_555 1_555
H22 N16 1_555 1_555
H23 N20 1_555 1_555
H24 N20 1_555 1_555
H25 N24 1_555 1_555
H26 N24 1_555 1_555
H27 N28 1_555 1_555
H28 N28 1_555 1_555
H29 N32 1_555 1_555
H30 N32 1_555 1_555
H31 N36 1_555 1_555
H32 N36 1_555 1_555
H33 C1 1_555 1_555
H34 C2 1_555 1_555
H35 C3 1_555 1_555
H36 C4 1_555 1_555
H37 C5 1_555 1_555
H38 C6 1_555 1_555
H39 C7 1_555 1_555
H40 C8 1_555 1_555
H41 C9 1_555 1_555
H42 C10 1_555 1_555
H43 C11 1_555 1_555
H44 C12 1_555 1_555
H45 C13 1_555 1_555
H46 C14 1_555 1_555
H47 C15 1_555 1_555
H48 C16 1_555 1_555
H49 C17 1_555 1_555
H50 C18 1_555 1_555
C1A N1A 1_555 1_555
C2A N2A 1_555 1_555
N1A Cu1 1_555 1_555
N2A N1A 1_555 1_555
N3A C1A 1_555 1_555
N4A N3A 1_555 1_555
H15A N4A 1_555 1_555
H16A N4A 1_555 1_555
H33A C1A 1_555 1_555
H34A C2A 1_555 1_555
C3A N5A 1_555 1_555
C4A N6A 1_555 1_555
N5A Cu1 1_555 1_555
N6A N5A 1_555 1_555
N7A C3A 1_555 1_555
N8A N7A 1_555 1_555
H17A N8A 1_555 1_555
H18A N8A 1_555 1_555
H35A C3A 1_555 1_555
H36A C4A 1_555 1_555
C5A N9A 1_555 1_555
C6A N10A 1_555 1_555
N9A Cu1 1_555 1_555
N10A N9A 1_555 1_555
N11A C5A 1_555 1_555
N12A N11A 1_555 1_555
H19A N12A 1_555 1_555
H20A N12A 1_555 1_555
H37A C5A 1_555 1_555
H38A C6A 1_555 1_555
Cu2A N2A 1_555 1_555
C7A N13A 1_555 1_555
C8A N14A 1_555 1_555
N13A Cu2A 1_555 1_555
N14A N13A 1_555 1_555
N15A C7A 1_555 1_555
N16A N15A 1_555 1_555
H21A N16A 1_555 1_555
H22A N16A 1_555 1_555
H39A C7A 1_555 1_555
H40A C8A 1_555 1_555
C9A N17A 1_555 1_555
C10A N18A 1_555 1_555
N17A Cu2A 1_555 1_555
N18A N17A 1_555 1_555
N19A C9A 1_555 1_555
N20A N19A 1_555 1_555
H23A N20A 1_555 1_555
H24A N20A 1_555 1_555
H41A C9A 1_555 1_555
H42A C10A 1_555 1_555
C11A N21A 1_555 1_555
C12A N22A 1_555 1_555
N21A Cu2A 1_555 1_555
N22A N21A 1_555 1_555
N23A C11A 1_555 1_555
N24A N23A 1_555 1_555
H25A N24A 1_555 1_555
H26A N24A 1_555 1_555
H43A C11A 1_555 1_555
H44A C12A 1_555 1_555
Cu3A N14A 1_555 1_555
C13A N25A 1_555 1_555
C14A N26A 1_555 1_555
N25A Cu3A 1_555 1_555
N26A N25A 1_555 1_555
N27A C13A 1_555 1_555
N28A N27A 1_555 1_555
H27A N28A 1_555 1_555
H28A N28A 1_555 1_555
H45A C13A 1_555 1_555
H46A C14A 1_555 1_555
C15A N29A 1_555 1_555
C16A N30A 1_555 1_555
N29A Cu3A 1_555 1_555
N30A N29A 1_555 1_555
N31A C15A 1_555 1_555
N32A N31A 1_555 1_555
H29A N32A 1_555 1_555
H30A N32A 1_555 1_555
H47A C15A 1_555 1_555
H48A C16A 1_555 1_555
C17A N33A 1_555 1_555
C18A N34A 1_555 1_555
N33A Cu3A 1_555 1_555
N34A N33A 1_555 1_555
N35A C17A 1_555 1_555
N36A N35A 1_555 1_555
H31A N36A 1_555 1_555
H32A N36A 1_555 1_555
H49A C17A 1_555 1_555
H50A C18A 1_555 1_555
N26A_2 Cu4 1_555 1_555
N30A_2 Cu4 1_555 1_555
N34A_2 Cu4 1_555 1_555
Cu4_2 N26A 1_555 1_555
C2 N3 1_555 1_555
C4 N7 1_555 1_555
N5 N6 1_555 1_555
C6 N11 1_555 1_555
N9 N10 1_555 1_555
C8 N15 1_555 1_555
C10 N19 1_555 1_555
N17 N18 1_555 1_555
C12 N23 1_555 1_555
N21 N22 1_555 1_555
C14 N27 1_555 1_555
C16 N31 1_555 1_555
N29 N30 1_555 1_555
C18 N35 1_555 1_555
N33 N34 1_555 1_555
C2A N3A 1_555 1_555
C4A N7A 1_555 1_555
N6A Cu2A 1_555 1_555
C6A N11A 1_555 1_555
N10A Cu2A 1_555 1_555
C8A N15A 1_555 1_555
C10A N19A 1_555 1_555
N18A Cu3A 1_555 1_555
C12A N23A 1_555 1_555
N22A Cu3A 1_555 1_555
C14A N27A 1_555 1_555
C16A N31A 1_555 1_555
N30A Cu4_2 1_555 1_555
C18A N35A 1_555 1_555
N34A Cu4_2 1_555 1_555

#END
