
#######################################################################
#
#                 Cambridge Crystallographic Data Centre
#                                CCDC 
#
#######################################################################
#
# If this CIF has been generated from an entry in the Cambridge 
# Structural Database, then it will include bibliographic, chemical, 
# crystal, experimental, refinement or atomic coordinate data resulting 
# from the CCDC's data processing and validation procedures.
#
#######################################################################

data_UBOVUE
_symmetry_cell_setting           monoclinic
_symmetry_space_group_name_H-M   'P 21/c'
_symmetry_Int_Tables_number      14
_space_group_name_Hall           '-P 2ybc'
loop_
_symmetry_equiv_pos_site_id
_symmetry_equiv_pos_as_xyz
1 x,y,z
2 -x,1/2+y,1/2-z
3 -x,-y,-z
4 x,1/2-y,1/2+z
_cell_length_a                   6.425(3)
_cell_length_b                   6.008(2)
_cell_length_c                   19.757(7)
_cell_angle_alpha                90
_cell_angle_beta                 92.187(9)
_cell_angle_gamma                90
_cell_volume                     762.092
loop_
_atom_site_label
_atom_site_type_symbol
_atom_site_fract_x
_atom_site_fract_y
_atom_site_fract_z
Mg1 Mg 0.42583(7) 0.84323(8) 0.20097(2)
C1 C 0.3224(2) 0.4877(2) 0.09839(6)
C2 C 0.2829(2) 0.4366(2) 0.02993(7)
H1 H 0.301(3) 0.293(3) 0.0069(10)
C3 C 0.2172(2) 0.6357(2) 0.00111(7)
C4 C 0.3960(2) 0.3557(2) 0.15814(7)
C5 C 0.1579(2) 0.7098(2) -0.06929(7)
O1 O 0.45075(15) 0.47206(17) 0.21021(5)
O2 O 0.39832(18) 0.14985(17) 0.15509(6)
O3 O 0.14400(19) 0.8400(2) 0.24745(6)
H2 H 0.135(4) 0.851(4) 0.2924(14)
H3 H 0.021(5) 0.832(5) 0.2288(16)
O4 O 0.72875(18) 0.82149(19) 0.16616(6)
H4 H 0.781(3) 0.922(4) 0.1352(11)
H5 H 0.761(4) 0.697(5) 0.1404(14)
O5 O 0.17117(17) 0.57286(19) -0.11656(5)
O6 O 0.10263(18) 0.90895(19) -0.07502(5)
N1 N 0.2842(2) 0.7026(2) 0.11054(6)
N2 N 0.2205(2) 0.7887(2) 0.05110(6)
H6 H 0.166(4) 0.925(4) 0.0486(11)
Mg1_2 Mg 0.42583(7) -0.15677(8) 0.20097(2)
Mg1A Mg 0.57417(7) 0.34323(8) 0.29903(2)
O1A O 0.54925(15) 0.97206(17) 0.28979(5)
O2_2 O 0.39832(18) 1.14985(17) 0.15509(6)
loop_
_geom_bond_atom_site_label_1
_geom_bond_atom_site_label_2
_geom_bond_site_symmetry_1
_geom_bond_site_symmetry_2
Mg1 O1 1_555 1_555
C1 C2 1_555 1_555
C2 H1 1_555 1_555
C3 C2 1_555 1_555
C4 C1 1_555 1_555
C5 C3 1_555 1_555
O1 C4 1_555 1_555
O2 C4 1_555 1_555
O3 Mg1 1_555 1_555
H2 O3 1_555 1_555
H3 O3 1_555 1_555
O4 Mg1 1_555 1_555
H4 O4 1_555 1_555
H5 O4 1_555 1_555
O5 C5 1_555 1_555
O6 C5 1_555 1_555
N1 Mg1 1_555 1_555
N2 C3 1_555 1_555
H6 N2 1_555 1_555
Mg1_2 O2 1_555 1_555
Mg1A O1 1_555 1_555
O1A Mg1 1_555 1_555
O2_2 Mg1 1_555 1_555
C1 N1 1_555 1_555
N1 N2 1_555 1_555

#END
