
#######################################################################
#
#                 Cambridge Crystallographic Data Centre
#                                CCDC 
#
#######################################################################
#
# If this CIF has been generated from an entry in the Cambridge 
# Structural Database, then it will include bibliographic, chemical, 
# crystal, experimental, refinement or atomic coordinate data resulting 
# from the CCDC's data processing and validation procedures.
#
#######################################################################

data_UBOWIT
_symmetry_cell_setting           monoclinic
_symmetry_space_group_name_H-M   'P 21/c'
_symmetry_Int_Tables_number      14
_space_group_name_Hall           '-P 2ybc'
loop_
_symmetry_equiv_pos_site_id
_symmetry_equiv_pos_as_xyz
1 x,y,z
2 -x,1/2+y,1/2-z
3 -x,-y,-z
4 x,1/2-y,1/2+z
_cell_length_a                   11.60250(10)
_cell_length_b                   10.89250(10)
_cell_length_c                   23.9419(2)
_cell_angle_alpha                90
_cell_angle_beta                 96.5780(10)
_cell_angle_gamma                90
_cell_volume                     3005.86
loop_
_atom_site_label
_atom_site_type_symbol
_atom_site_fract_x
_atom_site_fract_y
_atom_site_fract_z
Zn1 Zn 1.07529(3) 0.77664(3) 0.299839(13)
Zn2 Zn 0.82304(3) 0.66968(3) 0.392616(13)
Cl1 Cl 0.92688(5) 0.49629(6) 0.40152(3)
O1 O 0.90627(14) 0.78194(15) 0.34143(7)
N1 N 1.01081(16) 0.94180(18) 0.28023(8)
N2 N 0.80918(18) 0.74395(19) 0.46722(9)
C1 C 0.9122(2) 0.9783(2) 0.30150(9)
N3 N 1.18180(18) 0.76485(19) 0.37105(9)
C2 C 1.0384(2) 1.0330(2) 0.24707(10)
H1 H 1.1023 1.0313 0.2269
C3 C 0.8784(2) 0.7315(2) 0.51472(10)
H2 H 0.9454 0.6841 0.5189
N4 N 0.83888(18) 0.7962(2) 0.55596(9)
N5 N 1.26558(19) 0.7131(2) 0.45450(9)
C4 C 0.8035(2) 0.7396(3) 0.65066(10)
C5 C 1.2823(2) 0.8315(2) 0.38291(11)
H3 H 1.3105 0.8889 0.3591
C6 C 0.8559(2) 0.8863(2) 0.33563(9)
C7 C 0.8875(2) 0.7999(3) 0.61561(11)
H4 H 0.9007 0.8844 0.6275
H5 H 0.9613 0.7571 0.6206
C8 C 1.3335(2) 0.8005(3) 0.43437(12)
H6 H 1.4020 0.8327 0.4526
C9 C 1.1752(2) 0.6945(2) 0.41557(12)
H7 H 1.1154 0.6392 0.4193
C10 C 0.7205(2) 0.8199(3) 0.47940(11)
H8 H 0.6582 0.8447 0.4540
C11 C 0.7381(2) 0.8525(3) 0.53387(11)
H9 H 0.6912 0.9033 0.5528
Zn3 Zn 0.71541(3) 1.06947(3) 0.386052(15)
O2 O 0.70986(15) 1.16803(17) 0.31651(8)
C12 C 0.7868(2) 1.1850(2) 0.28480(10)
C13 C 1.5035(3) 0.6012(3) 0.53470(13)
H10 H 1.5065 0.6693 0.5582
N6 N 0.96428(17) 1.12666(18) 0.24595(8)
O3 O 0.76342(14) 0.90754(15) 0.35568(7)
C14 C 0.8833(2) 1.0939(2) 0.28084(9)
C15 C 1.2921(3) 0.6434(3) 0.50706(13)
H11 H 1.2272 0.5904 0.5127
H12 H 1.3040 0.6997 0.5386
C16 C 1.3995(3) 0.5671(3) 0.50453(11)
Cl2 Cl 0.53500(6) 1.04684(7) 0.40505(3)
Cl3 Cl 0.86317(7) 1.12289(8) 0.44670(4)
O4 O 0.78668(14) 1.27663(16) 0.25267(7)
C17 C 0.8039(2) 0.6141(3) 0.65769(11)
H13 H 0.8622 0.5672 0.6446
C18 C 1.3974(3) 0.4659(3) 0.47009(13)
H14 H 1.3278 0.4423 0.4497
C19 C 0.6299(2) 0.6240(2) 0.70392(10)
C20 C 0.7185(2) 0.5574(3) 0.68409(11)
H15 H 0.7205 0.4726 0.6887
C21 C 0.6302(3) 0.7500(3) 0.69750(12)
H16 H 0.5721 0.7970 0.7107
C22 C 0.7169(3) 0.8070(3) 0.67147(12)
H17 H 0.7167 0.8921 0.6680
N7 N 0.47335(18) 0.46692(19) 0.69943(9)
C23 C 0.5140(2) 0.3512(2) 0.68837(11)
H18 H 0.5871 0.3196 0.7004
C24 C 0.5363(2) 0.5633(3) 0.73309(11)
H19 H 0.5713 0.5279 0.7682
H20 H 0.4815 0.6254 0.7421
C25 C 0.3637(2) 0.4741(2) 0.67425(10)
H21 H 0.3163 0.5428 0.6750
C26 C 0.4274(2) 0.2935(2) 0.65699(11)
H22 H 0.4307 0.2139 0.6432
N8 N 0.33272(18) 0.37037(19) 0.64827(9)
Zn1A Zn 0.92471(3) 0.27664(3) 0.200161(13)
Zn1A_2 Zn 0.92471(3) 1.27664(3) 0.200161(13)
Zn1B Zn 1.92471(3) 0.22336(3) 0.700161(13)
Zn2A Zn 1.17696(3) 0.16968(3) 0.107384(13)
Zn2B Zn 0.17696(3) 0.33032(3) 0.607384(13)
Cl1A Cl 1.07312(5) -0.00371(6) 0.09848(3)
O1A O 1.09373(14) 0.28194(15) 0.15857(7)
N1A N 0.98919(16) 0.44180(18) 0.21977(8)
N2B N 0.19082(18) 0.25605(19) 0.53278(9)
N2A N 1.19082(18) 0.24395(19) 0.03278(9)
C1A C 1.0878(2) 0.4783(2) 0.19850(9)
N3B N 1.81820(18) 0.23515(19) 0.62895(9)
N3A N 0.81820(18) 0.26485(19) 0.12895(9)
C2A C 0.9616(2) 0.5330(2) 0.25293(10)
H1A H 0.8977 0.5313 0.2731
C3B C 0.1216(2) 0.2685(2) 0.48528(10)
H2B H 0.0546 0.3159 0.4811
N4B N 0.16112(18) 0.2038(2) 0.44404(9)
N5B N 1.73442(19) 0.2869(2) 0.54550(9)
C4B C 0.1965(2) 0.2604(3) 0.34934(10)
C5B C 1.7177(2) 0.1685(2) 0.61709(11)
H3B H 1.6895 0.1111 0.6409
C6A C 1.1441(2) 0.3863(2) 0.16437(9)
C7B C 0.1125(2) 0.2001(3) 0.38439(11)
H4B H 0.0993 0.1156 0.3725
H5B H 0.0387 0.2429 0.3794
C8B C 1.6665(2) 0.1995(3) 0.56563(12)
H6B H 1.5980 0.1673 0.5474
C9B C 1.8248(2) 0.3055(2) 0.58443(12)
H7B H 1.8846 0.3608 0.5807
C10B C 0.2795(2) 0.1801(3) 0.52060(11)
H8B H 0.3418 0.1553 0.5460
C11B C 0.2619(2) 0.1475(3) 0.46613(11)
H9B H 0.3088 0.0967 0.4472
Zn3A Zn 1.28459(3) 0.56947(3) 0.113948(15)
O2A O 1.29014(15) 0.66803(17) 0.18349(8)
C12A C 1.2132(2) 0.6850(2) 0.21520(10)
C13B C 1.4965(3) 0.3988(3) 0.46530(13)
H10B H 1.4935 0.3307 0.4418
N6A N 1.03572(17) 0.62666(18) 0.25405(8)
N6_2 N 0.96428(17) 0.12666(18) 0.24595(8)
O3A O 1.23658(14) 0.40754(15) 0.14432(7)
C14A C 1.1167(2) 0.5939(2) 0.21916(9)
C15B C 1.7079(3) 0.3566(3) 0.49294(13)
H11B H 1.7728 0.4096 0.4873
H12B H 1.6960 0.3003 0.4614
C16B C 1.6005(3) 0.4329(3) 0.49547(11)
Cl2A Cl 1.46500(6) 0.54684(7) 0.09495(3)
Cl3A Cl 1.13683(7) 0.62289(8) 0.05330(4)
O4A O 1.21332(14) 0.77663(16) 0.24733(7)
O4_2 O 0.78668(14) 0.27663(16) 0.25267(7)
C17B C 0.1961(2) 0.3859(3) 0.34231(11)
H13B H 0.1378 0.4328 0.3554
C18B C 1.6026(3) 0.5341(3) 0.52991(13)
H14B H 1.6722 0.5577 0.5503
C19B C 0.3701(2) 0.3760(2) 0.29608(10)
C20B C 0.2815(2) 0.4426(3) 0.31591(11)
H15B H 0.2795 0.5274 0.3113
C21B C 0.3698(3) 0.2500(3) 0.30250(12)
H16B H 0.4279 0.2030 0.2893
C22B C 0.2831(3) 0.1930(3) 0.32853(12)
H17B H 0.2833 0.1079 0.3320
N7B N 0.52665(18) 0.53308(19) 0.30057(9)
C23B C 0.4860(2) 0.6488(2) 0.31163(11)
H18B H 0.4129 0.6804 0.2996
C24B C 0.4637(2) 0.4367(3) 0.26691(11)
H19B H 0.4287 0.4721 0.2318
H20B H 0.5185 0.3746 0.2579
C25B C 0.6363(2) 0.5259(2) 0.32575(10)
H21B H 0.6837 0.4572 0.3250
C26B C 0.5726(2) 0.7065(2) 0.34301(11)
H22B H 0.5693 0.7861 0.3568
N8B N 0.66728(18) 0.62963(19) 0.35173(9)
N8C N 1.33272(18) 0.12963(19) 0.14827(9)
O5 O 0.9605(8) 0.0650(9) 0.5688(4)
H23 H 0.916(10) 0.066(14) 0.538(3)
H24 H 1.018(9) 0.017(13) 0.565(5)
loop_
_geom_bond_atom_site_label_1
_geom_bond_atom_site_label_2
_geom_bond_site_symmetry_1
_geom_bond_site_symmetry_2
Zn1 O1 1_555 1_555
Zn2 Cl1 1_555 1_555
O1 Zn2 1_555 1_555
N1 Zn1 1_555 1_555
N2 Zn2 1_555 1_555
C1 N1 1_555 1_555
N3 Zn1 1_555 1_555
C2 N1 1_555 1_555
H1 C2 1_555 1_555
C3 N2 1_555 1_555
H2 C3 1_555 1_555
N4 C3 1_555 1_555
N5 C8 1_555 1_555
C4 C7 1_555 1_555
C5 N3 1_555 1_555
H3 C5 1_555 1_555
C6 O1 1_555 1_555
C7 N4 1_555 1_555
H4 C7 1_555 1_555
H5 C7 1_555 1_555
C8 C5 1_555 1_555
H6 C8 1_555 1_555
C9 N3 1_555 1_555
H7 C9 1_555 1_555
C10 N2 1_555 1_555
H8 C10 1_555 1_555
C11 N4 1_555 1_555
H9 C11 1_555 1_555
Zn3 O2 1_555 1_555
O2 C12 1_555 1_555
C12 C14 1_555 1_555
C13 H10 1_555 1_555
N6 C2 1_555 1_555
O3 C6 1_555 1_555
C14 C1 1_555 1_555
C15 N5 1_555 1_555
H11 C15 1_555 1_555
H12 C15 1_555 1_555
C16 C13 1_555 1_555
Cl2 Zn3 1_555 1_555
Cl3 Zn3 1_555 1_555
O4 C12 1_555 1_555
C17 C4 1_555 1_555
H13 C17 1_555 1_555
C18 C16 1_555 1_555
H14 C18 1_555 1_555
C19 C20 1_555 1_555
C20 C17 1_555 1_555
H15 C20 1_555 1_555
C21 C19 1_555 1_555
H16 C21 1_555 1_555
C22 C4 1_555 1_555
H17 C22 1_555 1_555
N7 C23 1_555 1_555
C23 H18 1_555 1_555
C24 C19 1_555 1_555
H19 C24 1_555 1_555
H20 C24 1_555 1_555
C25 N7 1_555 1_555
H21 C25 1_555 1_555
C26 C23 1_555 1_555
H22 C26 1_555 1_555
N8 C25 1_555 1_555
O5 H23 1_555 1_555
H24 O5 1_555 1_555
Zn1A O1A 1_555 1_555
Zn1A_2 N6 1_555 1_555
Zn1B N3B 1_555 1_555
Zn2A Cl1A 1_555 1_555
Zn2B N8 1_555 1_555
O1A Zn2A 1_555 1_555
N1A Zn1A 1_555 1_555
N2B Zn2B 1_555 1_555
N2A Zn2A 1_555 1_555
C1A N1A 1_555 1_555
N3B C5B 1_555 1_555
N3A Zn1A 1_555 1_555
C2A N1A 1_555 1_555
H1A C2A 1_555 1_555
C3B N2B 1_555 1_555
H2B C3B 1_555 1_555
N4B C3B 1_555 1_555
N5B C8B 1_555 1_555
C4B C7B 1_555 1_555
C5B H3B 1_555 1_555
C6A O1A 1_555 1_555
C7B N4B 1_555 1_555
H4B C7B 1_555 1_555
H5B C7B 1_555 1_555
C8B C5B 1_555 1_555
H6B C8B 1_555 1_555
C9B N3B 1_555 1_555
H7B C9B 1_555 1_555
C10B N2B 1_555 1_555
H8B C10B 1_555 1_555
C11B N4B 1_555 1_555
H9B C11B 1_555 1_555
Zn3A O2A 1_555 1_555
O2A C12A 1_555 1_555
C12A C14A 1_555 1_555
C13B C18 1_555 1_555
H10B C13B 1_555 1_555
N6A Zn1 1_555 1_555
N6_2 Zn1A 1_555 1_555
O3A C6A 1_555 1_555
C14A C1A 1_555 1_555
C15B N5B 1_555 1_555
H11B C15B 1_555 1_555
H12B C15B 1_555 1_555
C16B C13B 1_555 1_555
Cl2A Zn3A 1_555 1_555
Cl3A Zn3A 1_555 1_555
O4A Zn1 1_555 1_555
O4_2 Zn1A 1_555 1_555
C17B C4B 1_555 1_555
H13B C17B 1_555 1_555
C18B C13 1_555 1_555
H14B C18B 1_555 1_555
C19B C20B 1_555 1_555
C20B C17B 1_555 1_555
H15B C20B 1_555 1_555
C21B C19B 1_555 1_555
H16B C21B 1_555 1_555
C22B C4B 1_555 1_555
H17B C22B 1_555 1_555
N7B C23B 1_555 1_555
C23B H18B 1_555 1_555
C24B C19B 1_555 1_555
H19B C24B 1_555 1_555
H20B C24B 1_555 1_555
C25B N7B 1_555 1_555
H21B C25B 1_555 1_555
C26B C23B 1_555 1_555
H22B C26B 1_555 1_555
N8B Zn2 1_555 1_555
N8C Zn2A 1_555 1_555
C1 C6 1_555 1_555
N5 C9 1_555 1_555
C10 C11 1_555 1_555
Zn3 O3 1_555 1_555
N6 C14 1_555 1_555
C15 C16 1_555 1_555
O4 Zn1A_2 1_555 1_555
C21 C22 1_555 1_555
N7 C24 1_555 1_555
C26 N8 1_555 1_555
C1A C6A 1_555 1_555
C2A N6A 1_555 1_555
N5B C9B 1_555 1_555
C10B C11B 1_555 1_555
Zn3A O3A 1_555 1_555
C12A O4A 1_555 1_555
N6A C14A 1_555 1_555
C15B C16B 1_555 1_555
C16B C18B 1_555 1_555
C21B C22B 1_555 1_555
N7B C24B 1_555 1_555
C25B N8B 1_555 1_555
C26B N8B 1_555 1_555

#END
