
#######################################################################
#
#                 Cambridge Crystallographic Data Centre
#                                CCDC 
#
#######################################################################
#
# If this CIF has been generated from an entry in the Cambridge 
# Structural Database, then it will include bibliographic, chemical, 
# crystal, experimental, refinement or atomic coordinate data resulting 
# from the CCDC's data processing and validation procedures.
#
#######################################################################

data_UBUQAJ
_symmetry_cell_setting           triclinic
_symmetry_space_group_name_H-M   'P -1'
_symmetry_Int_Tables_number      2
_space_group_name_Hall           '-P 1'
loop_
_symmetry_equiv_pos_site_id
_symmetry_equiv_pos_as_xyz
1 x,y,z
2 -x,-y,-z
_cell_length_a                   7.2911(6)
_cell_length_b                   8.6723(7)
_cell_length_c                   9.2316(7)
_cell_angle_alpha                90.4180(10)
_cell_angle_beta                 96.7470(10)
_cell_angle_gamma                97.6700(10)
_cell_volume                     574.334
loop_
_atom_site_label
_atom_site_type_symbol
_atom_site_fract_x
_atom_site_fract_y
_atom_site_fract_z
I1 I 0.5000 0.5000 0.5000
O1 O 0.2996(3) 0.1716(3) -0.0417(2)
O2 O -0.3047(3) -0.0151(2) -0.2119(2)
N1 N -0.0037(3) 0.2285(3) -0.2381(2)
C1 C 0.0588(4) 0.6695(3) -0.2208(3)
N2 N 0.0696(4) 0.7871(3) -0.1612(3)
C2 C -0.2432(4) 0.0186(4) -0.3503(3)
H1 H -0.1461 -0.0465 -0.3685
H2 H -0.3488 -0.0042 -0.4285
C3 C 0.0414(4) 0.5165(3) -0.2929(3)
H3 H -0.0646 0.5056 -0.3714
H4 H 0.1563 0.5063 -0.3376
C4 C 0.0094(4) 0.3860(3) -0.1798(3)
H5 H -0.1070 0.3970 -0.1375
H6 H 0.1132 0.4020 -0.0995
C5 C 0.1671(4) 0.1887(3) -0.2906(3)
H7 H 0.1864 0.2448 -0.3817
H8 H 0.1505 0.0758 -0.3141
C6 C -0.1645(4) 0.1894(4) -0.3496(3)
H9 H -0.2630 0.2529 -0.3314
H10 H -0.1263 0.2159 -0.4468
C7 C 0.3393(4) 0.2284(4) -0.1817(3)
H11 H 0.4438 0.1800 -0.2136
H12 H 0.3760 0.3425 -0.1754
C8 C 0.4623(4) 0.1974(4) 0.0624(4)
H13 H 0.5238 0.3058 0.0573
H14 H 0.5517 0.1261 0.0415
C9 C -0.4037(4) -0.1682(3) -0.2119(3)
H15 H -0.5148 -0.1782 -0.2859
H16 H -0.3230 -0.2455 -0.2363
Na1 Na 0.0000 0.0000 0.0000
C8A C -0.4623(4) -0.1974(4) -0.0624(4)
O1A O -0.2996(3) -0.1716(3) 0.0417(2)
C7A C -0.3393(4) -0.2284(4) 0.1817(3)
C5A C -0.1671(4) -0.1887(3) 0.2906(3)
N1A N 0.0037(3) -0.2285(3) 0.2381(2)
C4A C -0.0094(4) -0.3860(3) 0.1798(3)
C3A C -0.0414(4) -0.5165(3) 0.2929(3)
C1A C -0.0588(4) -0.6695(3) 0.2208(3)
N2A N -0.0696(4) -0.7871(3) 0.1612(3)
H3A H 0.0646 -0.5056 0.3714
H4A H -0.1563 -0.5063 0.3376
H5A H 0.1070 -0.3970 0.1375
H6A H -0.1132 -0.4020 0.0995
C6A C 0.1645(4) -0.1894(4) 0.3496(3)
C2A C 0.2432(4) -0.0186(4) 0.3503(3)
O2A O 0.3047(3) 0.0151(2) 0.2119(2)
C9A C 0.4037(4) 0.1682(3) 0.2119(3)
H15A H 0.5148 0.1782 0.2859
H16A H 0.3230 0.2455 0.2363
H1A H 0.1461 0.0465 0.3685
H2A H 0.3488 0.0042 0.4285
H9A H 0.2630 -0.2529 0.3314
H10A H 0.1263 -0.2159 0.4468
H7A H -0.1864 -0.2448 0.3817
H8A H -0.1505 -0.0758 0.3141
H11A H -0.4438 -0.1800 0.2136
H12A H -0.3760 -0.3425 0.1754
H13A H -0.5238 -0.3058 -0.0573
H14A H -0.5517 -0.1261 -0.0415
Na1_2 Na 0.0000 1.0000 0.0000
N2_2 N 0.0696(4) -0.2129(3) -0.1612(3)
N2A_2 N -0.0696(4) 0.2129(3) 0.1612(3)
Na1_3 Na 0.0000 -1.0000 0.0000
loop_
_geom_bond_atom_site_label_1
_geom_bond_atom_site_label_2
_geom_bond_site_symmetry_1
_geom_bond_site_symmetry_2
O1 C7 1_555 1_555
O2 C2 1_555 1_555
N1 C4 1_555 1_555
C1 N2 1_555 1_555
N2 Na1_2 1_555 1_555
C2 H1 1_555 1_555
H2 C2 1_555 1_555
C3 C1 1_555 1_555
H3 C3 1_555 1_555
H4 C3 1_555 1_555
C4 C3 1_555 1_555
H5 C4 1_555 1_555
H6 C4 1_555 1_555
C5 N1 1_555 1_555
H7 C5 1_555 1_555
H8 C5 1_555 1_555
C6 N1 1_555 1_555
H9 C6 1_555 1_555
H10 C6 1_555 1_555
C7 C5 1_555 1_555
H11 C7 1_555 1_555
H12 C7 1_555 1_555
C8 O1 1_555 1_555
H13 C8 1_555 1_555
H14 C8 1_555 1_555
C9 O2 1_555 1_555
H15 C9 1_555 1_555
H16 C9 1_555 1_555
Na1 O1 1_555 1_555
C8A C9 1_555 1_555
O1A Na1 1_555 1_555
C7A O1A 1_555 1_555
C5A C7A 1_555 1_555
N1A Na1 1_555 1_555
C4A N1A 1_555 1_555
C3A C4A 1_555 1_555
C1A C3A 1_555 1_555
N2A C1A 1_555 1_555
H3A C3A 1_555 1_555
H4A C3A 1_555 1_555
H5A C4A 1_555 1_555
H6A C4A 1_555 1_555
C6A N1A 1_555 1_555
C2A C6A 1_555 1_555
O2A Na1 1_555 1_555
C9A C8 1_555 1_555
H15A C9A 1_555 1_555
H16A C9A 1_555 1_555
H1A C2A 1_555 1_555
H2A C2A 1_555 1_555
H9A C6A 1_555 1_555
H10A C6A 1_555 1_555
H7A C5A 1_555 1_555
H8A C5A 1_555 1_555
H11A C7A 1_555 1_555
H12A C7A 1_555 1_555
H13A C8A 1_555 1_555
H14A C8A 1_555 1_555
N2_2 Na1 1_555 1_555
N2A_2 Na1 1_555 1_555
Na1_3 N2A 1_555 1_555
O2 Na1 1_555 1_555
N1 Na1 1_555 1_555
C2 C6 1_555 1_555
C8A O1A 1_555 1_555
C5A N1A 1_555 1_555
C2A O2A 1_555 1_555
O2A C9A 1_555 1_555

#END
