
#######################################################################
#
#                 Cambridge Crystallographic Data Centre
#                                CCDC 
#
#######################################################################
#
# If this CIF has been generated from an entry in the Cambridge 
# Structural Database, then it will include bibliographic, chemical, 
# crystal, experimental, refinement or atomic coordinate data resulting 
# from the CCDC's data processing and validation procedures.
#
#######################################################################

data_UBUTUI
_symmetry_cell_setting           monoclinic
_symmetry_space_group_name_H-M   'P 2/c'
_symmetry_Int_Tables_number      13
_space_group_name_Hall           '-P 2yc'
loop_
_symmetry_equiv_pos_site_id
_symmetry_equiv_pos_as_xyz
1 x,y,z
2 -x,y,1/2-z
3 -x,-y,-z
4 x,-y,1/2+z
_cell_length_a                   17.8253(4)
_cell_length_b                   11.3785(3)
_cell_length_c                   10.8753(2)
_cell_angle_alpha                90
_cell_angle_beta                 102.1870(10)
_cell_angle_gamma                90
_cell_volume                     2156.07
loop_
_atom_site_label
_atom_site_type_symbol
_atom_site_fract_x
_atom_site_fract_y
_atom_site_fract_z
Zn1 Zn 0.0000 0.46432(3) 0.2500
C1 C 0.46325(14) 0.2798(3) 0.0458(2)
C2 C 0.45660(16) 0.3475(3) -0.0608(3)
H1 H 0.4922 0.3401 -0.1116
C3 C 0.39713(17) 0.4261(3) -0.0917(3)
H2 H 0.3931 0.4717 -0.1638
C4 C 0.34347(15) 0.4389(2) -0.0187(3)
H3 H 0.3033 0.4920 -0.0416
C5 C 0.34976(12) 0.3717(2) 0.0898(2)
C6 C 0.41084(13) 0.2940(3) 0.1221(2)
H4 H 0.4166 0.2508 0.1962
C7 C 0.29262(13) 0.3773(2) 0.1693(2)
H5 H 0.3070 0.3452 0.2495
C8 C 0.22309(14) 0.4230(2) 0.1390(2)
H6 H 0.2083 0.4578 0.0603
C9 C 0.16686(13) 0.4225(2) 0.2222(2)
C10 C -0.04839(14) 0.7150(2) 0.3031(2)
H7 H -0.0829 0.6742 0.3405
C11 C -0.05026(13) 0.8360(2) 0.3058(2)
H8 H -0.0849 0.8747 0.3446
C12 C 0.0000 0.8994(3) 0.2500
C13 C 0.0000 1.0294(3) 0.2500
C14 C -0.02333(13) 1.09333(19) 0.3440(2)
H9 H -0.0400 1.0547 0.4088
C15 C -0.02172(13) 1.21369(19) 0.3409(2)
H10 H -0.0366 1.2548 0.4057
N1 N 0.0000 0.6522(2) 0.2500
N2 N 0.0000 1.2750(2) 0.2500
O1 O -0.06827(9) 0.44791(16) 0.06723(15)
H11 H -0.0802(15) 0.488(2) 0.002(2)
H12 H -0.1099(12) 0.427(2) 0.084(2)
O2 O 0.09964(8) 0.46081(13) 0.17179(14)
O3 O 0.18641(9) 0.38708(17) 0.33259(15)
O4 O 0.51999(12) 0.1984(2) 0.08169(17)
H13 H 0.5467(17) 0.188(3) 0.017(2)
Zn1_2 Zn 0.0000 1.46432(3) 0.2500
C1A C -0.46325(14) 0.2798(3) 0.4542(2)
C2A C -0.45660(16) 0.3475(3) 0.5608(3)
H1A H -0.4922 0.3401 0.6116
C3A C -0.39713(17) 0.4261(3) 0.5917(3)
H2A H -0.3931 0.4717 0.6638
C4A C -0.34347(15) 0.4389(2) 0.5187(3)
H3A H -0.3033 0.4920 0.5416
C5A C -0.34976(12) 0.3717(2) 0.4102(2)
C6A C -0.41084(13) 0.2940(3) 0.3779(2)
H4A H -0.4166 0.2508 0.3038
C7A C -0.29262(13) 0.3773(2) 0.3307(2)
H5A H -0.3070 0.3452 0.2505
C8A C -0.22309(14) 0.4230(2) 0.3610(2)
H6A H -0.2083 0.4578 0.4397
C9A C -0.16686(13) 0.4225(2) 0.2778(2)
C10A C 0.04839(14) 0.7150(2) 0.1969(2)
H7A H 0.0829 0.6742 0.1595
C11A C 0.05026(13) 0.8360(2) 0.1942(2)
H8A H 0.0849 0.8747 0.1554
C14A C 0.02333(13) 1.09333(19) 0.1560(2)
H9A H 0.0400 1.0547 0.0912
C15A C 0.02172(13) 1.21369(19) 0.1591(2)
H10A H 0.0366 1.2548 0.0943
N2_2 N 0.0000 0.2750(2) 0.2500
O1A O 0.06827(9) 0.44791(16) 0.43277(15)
H11A H 0.0802(15) 0.488(2) 0.498(2)
H12A H 0.1099(12) 0.427(2) 0.416(2)
O2A O -0.09964(8) 0.46081(13) 0.32821(14)
O3A O -0.18641(9) 0.38708(17) 0.16741(15)
O4A O -0.51999(12) 0.1984(2) 0.41831(17)
H13A H -0.5467(17) 0.188(3) 0.483(2)
C16 C 0.3446(2) 0.2306(4) 0.6214(3)
H14 H 0.3399 0.3050 0.5852
C17 C 0.29842(19) 0.2021(3) 0.7039(3)
H15 H 0.2627 0.2560 0.7210
C18 C 0.30549(15) 0.0932(3) 0.7609(2)
C19 C 0.25574(14) 0.0574(3) 0.8477(2)
C20 C 0.23155(15) 0.1376(3) 0.9260(2)
H16 H 0.2472 0.2156 0.9274
C21 C 0.18384(17) 0.0999(3) 1.0023(3)
H17 H 0.1680 0.1552 1.0545
C22 C 0.18268(16) -0.0857(3) 0.9311(3)
H18 H 0.1662 -0.1632 0.9320
C23 C 0.23035(16) -0.0572(3) 0.8515(3)
H19 H 0.2454 -0.1145 0.8006
C24 C 0.35981(18) 0.0184(3) 0.7318(3)
H20 H 0.3675 -0.0555 0.7690
C25 C 0.4028(2) 0.0540(4) 0.6468(4)
H21 H 0.4390 0.0022 0.6277
N3 N 0.39522(17) 0.1573(3) 0.5915(3)
N4 N 0.15875(14) -0.0094(2) 1.0068(2)
loop_
_geom_bond_atom_site_label_1
_geom_bond_atom_site_label_2
_geom_bond_site_symmetry_1
_geom_bond_site_symmetry_2
Zn1 N1 1_555 1_555
C1 C2 1_555 1_555
C2 H1 1_555 1_555
C3 C2 1_555 1_555
H2 C3 1_555 1_555
C4 C3 1_555 1_555
H3 C4 1_555 1_555
C5 C4 1_555 1_555
C6 C1 1_555 1_555
H4 C6 1_555 1_555
C7 C5 1_555 1_555
H5 C7 1_555 1_555
C8 C7 1_555 1_555
H6 C8 1_555 1_555
C9 C8 1_555 1_555
C10 H7 1_555 1_555
C11 C10 1_555 1_555
H8 C11 1_555 1_555
C12 C11 1_555 1_555
C13 C12 1_555 1_555
C14 C13 1_555 1_555
H9 C14 1_555 1_555
C15 C14 1_555 1_555
H10 C15 1_555 1_555
N1 C10 1_555 1_555
N2 C15 1_555 1_555
O1 Zn1 1_555 1_555
H11 O1 1_555 1_555
H12 O1 1_555 1_555
O2 Zn1 1_555 1_555
O3 C9 1_555 1_555
O4 C1 1_555 1_555
H13 O4 1_555 1_555
C16 H14 1_555 1_555
C17 C16 1_555 1_555
H15 C17 1_555 1_555
C18 C17 1_555 1_555
C19 C18 1_555 1_555
C20 C19 1_555 1_555
H16 C20 1_555 1_555
C21 C20 1_555 1_555
H17 C21 1_555 1_555
C22 H18 1_555 1_555
C23 C19 1_555 1_555
H19 C23 1_555 1_555
C24 C18 1_555 1_555
H20 C24 1_555 1_555
C25 C24 1_555 1_555
H21 C25 1_555 1_555
N3 C16 1_555 1_555
N4 C21 1_555 1_555
Zn1_2 N2 1_555 1_555
C1A C2A 1_555 1_555
C2A H1A 1_555 1_555
C3A C2A 1_555 1_555
H2A C3A 1_555 1_555
C4A C3A 1_555 1_555
H3A C4A 1_555 1_555
C5A C4A 1_555 1_555
C6A C1A 1_555 1_555
H4A C6A 1_555 1_555
C7A C5A 1_555 1_555
H5A C7A 1_555 1_555
C8A C7A 1_555 1_555
H6A C8A 1_555 1_555
C9A C8A 1_555 1_555
C10A N1 1_555 1_555
H7A C10A 1_555 1_555
C11A C12 1_555 1_555
H8A C11A 1_555 1_555
C14A C13 1_555 1_555
H9A C14A 1_555 1_555
C15A N2 1_555 1_555
H10A C15A 1_555 1_555
N2_2 Zn1 1_555 1_555
O1A Zn1 1_555 1_555
H11A O1A 1_555 1_555
H12A O1A 1_555 1_555
O2A Zn1 1_555 1_555
O3A C9A 1_555 1_555
O4A C1A 1_555 1_555
H13A O4A 1_555 1_555
C5 C6 1_555 1_555
C9 O2 1_555 1_555
C22 C23 1_555 1_555
C22 N4 1_555 1_555
C25 N3 1_555 1_555
C5A C6A 1_555 1_555
C9A O2A 1_555 1_555
C10A C11A 1_555 1_555
C14A C15A 1_555 1_555

#END
