
#######################################################################
#
#                 Cambridge Crystallographic Data Centre
#                                CCDC 
#
#######################################################################
#
# If this CIF has been generated from an entry in the Cambridge 
# Structural Database, then it will include bibliographic, chemical, 
# crystal, experimental, refinement or atomic coordinate data resulting 
# from the CCDC's data processing and validation procedures.
#
#######################################################################

data_UCAKAK
_symmetry_cell_setting           monoclinic
_symmetry_space_group_name_H-M   'P 21/a'
_symmetry_Int_Tables_number      14
_space_group_name_Hall           '-P 2yab'
loop_
_symmetry_equiv_pos_site_id
_symmetry_equiv_pos_as_xyz
1 x,y,z
2 1/2-x,1/2+y,-z
3 -x,-y,-z
4 1/2+x,1/2-y,z
_cell_length_a                   10.702(1)
_cell_length_b                   11.638(2)
_cell_length_c                   15.893(2)
_cell_angle_alpha                90
_cell_angle_beta                 104.94(1)
_cell_angle_gamma                90
_cell_volume                     1912.56
loop_
_atom_site_label
_atom_site_type_symbol
_atom_site_fract_x
_atom_site_fract_y
_atom_site_fract_z
Bi1 Bi -0.57143(4) 0.27421(4) 0.27200(2)
S1 S -0.3225(2) 0.0844(2) 0.3205(2)
O1 O -0.4324(6) 0.1218(6) 0.2483(4)
O2 O -0.2982(7) 0.1620(7) 0.3923(4)
O3 O -0.2105(6) 0.0620(6) 0.2849(4)
C1 C -0.4364(9) 0.4044(9) 0.2439(6)
C2 C -0.330(1) 0.4373(9) 0.3137(7)
C3 C -0.241(1) 0.517(1) 0.2978(9)
C4 C -0.257(1) 0.565(1) 0.2170(8)
C5 C -0.359(1) 0.535(1) 0.1511(7)
C6 C -0.448(1) 0.456(1) 0.1648(7)
C7 C -0.6781(8) 0.2491(8) 0.1322(6)
C8 C -0.778(1) 0.317(1) 0.0906(7)
C9 C -0.844(1) 0.294(1) 0.0073(8)
C10 C -0.807(1) 0.212(1) -0.0400(6)
C11 C -0.714(1) 0.146(1) -0.0016(8)
C12 C -0.647(1) 0.166(1) 0.0827(8)
C13 C -0.3669(8) -0.0490(8) 0.3569(6)
C14 C -0.379(1) -0.0573(9) 0.4417(6)
C15 C -0.423(1) -0.156(1) 0.4693(6)
C16 C -0.458(1) -0.2487(9) 0.4159(6)
C17 C -0.445(1) -0.240(1) 0.3324(6)
C18 C -0.3992(9) -0.1422(9) 0.2998(6)
C19 C -0.506(1) -0.355(1) 0.4515(8)
C20 C -0.391(1) -0.140(1) 0.2086(6)
H1 H -0.31(1) 0.397(9) 0.359(6)
H2 H -0.150(9) 0.535(8) 0.335(5)
H3 H -0.19(1) 0.62(1) 0.197(8)
H4 H -0.375(8) 0.562(7) 0.109(5)
H5 H -0.518(7) 0.449(6) 0.126(5)
H6 H -0.80(1) 0.371(9) 0.139(6)
H7 H -0.90(1) 0.33(1) -0.022(7)
H8 H -0.852(8) 0.187(7) -0.105(5)
H9 H -0.691(8) 0.102(7) -0.038(5)
H10 H -0.61(1) 0.12(1) 0.098(8)
H11 H -0.359(9) 0.000(8) 0.452(5)
H12 H -0.432(7) -0.157(7) 0.517(4)
H13 H -0.46(1) -0.308(8) 0.301(6)
H14 H -0.58(1) -0.326(9) 0.465(6)
H15 H -0.46(1) -0.416(9) 0.461(6)
H16 H -0.57(1) -0.393(9) 0.390(6)
H17 H -0.422(8) -0.071(7) 0.166(5)
H18 H -0.422(9) -0.205(8) 0.175(6)
H19 H -0.313(8) -0.121(7) 0.195(5)
O3C O -0.7105(6) 0.4380(6) 0.2849(4)
Bi1C Bi -0.07143(4) 0.22579(4) 0.27200(2)
loop_
_geom_bond_atom_site_label_1
_geom_bond_atom_site_label_2
_geom_bond_site_symmetry_1
_geom_bond_site_symmetry_2
Bi1 O1 1_555 1_555
S1 O1 1_555 1_555
O2 S1 1_555 1_555
O3 S1 1_555 1_555
C1 Bi1 1_555 1_555
C2 C1 1_555 1_555
C3 C2 1_555 1_555
C4 C3 1_555 1_555
C5 C4 1_555 1_555
C6 C1 1_555 1_555
C7 Bi1 1_555 1_555
C8 C7 1_555 1_555
C9 C8 1_555 1_555
C10 C9 1_555 1_555
C11 C10 1_555 1_555
C12 C7 1_555 1_555
C13 S1 1_555 1_555
C14 C13 1_555 1_555
C15 C14 1_555 1_555
C16 C15 1_555 1_555
C17 C16 1_555 1_555
C18 C13 1_555 1_555
C19 C16 1_555 1_555
C20 C18 1_555 1_555
H1 C2 1_555 1_555
H2 C3 1_555 1_555
H3 C4 1_555 1_555
H4 C5 1_555 1_555
H5 C6 1_555 1_555
H6 C8 1_555 1_555
H7 C9 1_555 1_555
H8 C10 1_555 1_555
H9 C11 1_555 1_555
H10 C12 1_555 1_555
H11 C14 1_555 1_555
H12 C15 1_555 1_555
H13 C17 1_555 1_555
H14 C19 1_555 1_555
H15 C19 1_555 1_555
H16 C19 1_555 1_555
H17 C20 1_555 1_555
H18 C20 1_555 1_555
H19 C20 1_555 1_555
O3C Bi1 1_555 1_555
Bi1C O3 1_555 1_555
C5 C6 1_555 1_555
C11 C12 1_555 1_555
C17 C18 1_555 1_555

#END
