
#######################################################################
#
#                 Cambridge Crystallographic Data Centre
#                                CCDC 
#
#######################################################################
#
# If this CIF has been generated from an entry in the Cambridge 
# Structural Database, then it will include bibliographic, chemical, 
# crystal, experimental, refinement or atomic coordinate data resulting 
# from the CCDC's data processing and validation procedures.
#
#######################################################################

data_UCAQOG
_symmetry_cell_setting           monoclinic
_symmetry_space_group_name_H-M   'P 21/c'
_symmetry_Int_Tables_number      14
_space_group_name_Hall           '-P 2ybc'
loop_
_symmetry_equiv_pos_site_id
_symmetry_equiv_pos_as_xyz
1 x,y,z
2 -x,1/2+y,1/2-z
3 -x,-y,-z
4 x,1/2-y,1/2+z
_cell_length_a                   7.754(3)
_cell_length_b                   7.1798(17)
_cell_length_c                   18.788(7)
_cell_angle_alpha                90
_cell_angle_beta                 112.99(3)
_cell_angle_gamma                90
_cell_volume                     962.891
loop_
_atom_site_label
_atom_site_type_symbol
_atom_site_fract_x
_atom_site_fract_y
_atom_site_fract_z
Ho1 Ho 0.896517(15) 0.011810(14) 0.244645(6)
C1 C 0.7047(4) 0.3181(3) 0.14727(14)
C2 C 0.6024(3) 0.4222(4) 0.07305(15)
C3 C 0.49172(9) 0.31108(9) 0.01165(4)
H1 H 0.4860 0.1837 0.0194
C4 C 0.61097(9) 0.61440(9) 0.06126(4)
C5 C 0.71832(9) 0.74574(9) 0.12457(4)
C6 C 0.84665(9) 0.34783(9) 0.35407(4)
C7 C 0.77663(9) 0.40850(9) 0.41504(4)
H2 H 0.7602 0.2992 0.4421
H3 H 0.6550 0.4670 0.3898
C8 C 0.90829(9) 0.54467(9) 0.47418(4)
H4 H 0.9344 0.6487 0.4470
H5 H 0.8460 0.5933 0.5061
O1 O 0.88396(9) 0.30060(9) 0.17254(4)
O2 O 0.70461(9) -0.17515(9) 0.28775(4)
H6 H 0.6692 -0.1323 0.3268
H7 H 0.6647 -0.2914 0.2656
O3 O 0.61299(9) 0.23393(9) 0.17788(4)
O4 O 0.83196(9) 0.68223(9) 0.18908(4)
O5 O 0.69335(9) 0.91669(9) 0.11477(4)
O6 O 0.84839(9) 0.17632(9) 0.34040(4)
O7 O 0.89616(9) 0.47319(9) 0.31821(4)
Ho1B Ho 0.103483(15) 0.988190(14) -0.244645(6)
Ho1A Ho 1.103483(15) 0.511810(14) 0.255355(6)
Ho1_2 Ho 0.896517(15) 1.011810(14) 0.244645(6)
Ho1C Ho -0.103483(15) 0.488190(14) -0.255355(6)
Ho1B_2 Ho 0.103483(15) -0.011810(14) -0.244645(6)
Ho1C_2 Ho 0.896517(15) 0.488190(14) 0.744645(6)
Ho1B_3 Ho 1.103483(15) 0.988190(14) 0.755355(6)
C1B C 0.2953(4) 0.6819(3) -0.14727(14)
C2B C 0.3976(3) 0.5778(4) -0.07305(15)
C3B C 0.50828(9) 0.68892(9) -0.01165(4)
H1B H 0.5140 0.8163 -0.0194
C4B C 0.38903(9) 0.38560(9) -0.06126(4)
C5B C 0.28168(9) 0.25426(9) -0.12457(4)
C6B C 1.15335(9) 0.65217(9) 0.64593(4)
C7B C 1.22337(9) 0.59150(9) 0.58496(4)
H2B H 1.2398 0.7008 0.5579
H3B H 1.3450 0.5330 0.6102
C8B C 1.09171(9) 0.45533(9) 0.52582(4)
H4B H 1.0656 0.3513 0.5530
H5B H 1.1540 0.4067 0.4939
O1B O 0.11604(9) 0.69940(9) -0.17254(4)
O1A O 1.11604(9) -0.19940(9) 0.32746(4)
O1C O -0.11604(9) 1.19940(9) -0.32746(4)
O2B O 0.29539(9) 1.17515(9) -0.28775(4)
H6B H 0.3308 1.1323 -0.3268
H7B H 0.3353 1.2914 -0.2656
O3B O 0.38701(9) 0.76607(9) -0.17788(4)
O4B O 0.16804(9) 0.31777(9) -0.18908(4)
O4_2 O 0.83196(9) -0.31777(9) 0.18908(4)
O4A O 1.16804(9) 0.18223(9) 0.31092(4)
O4B_2 O 0.16804(9) 1.31777(9) -0.18908(4)
O4C O -0.16804(9) 0.81777(9) -0.31092(4)
O5B O 0.30665(9) 0.08331(9) -0.11477(4)
O5_2 O 0.69335(9) -0.08331(9) 0.11477(4)
O5B_2 O 0.30665(9) 1.08331(9) -0.11477(4)
O6B O 1.15161(9) 0.82368(9) 0.65960(4)
O6B_2 O 0.15161(9) 0.82368(9) -0.34040(4)
O7B O 1.10384(9) 0.52681(9) 0.68179(4)
O7A O 1.10384(9) -0.02681(9) 0.18179(4)
O7C O -0.10384(9) 1.02681(9) -0.18179(4)
loop_
_geom_bond_atom_site_label_1
_geom_bond_atom_site_label_2
_geom_bond_site_symmetry_1
_geom_bond_site_symmetry_2
Ho1 O1 1_555 1_555
C1 C2 1_555 1_555
C2 C3 1_555 1_555
C3 H1 1_555 1_555
C4 C2 1_555 1_555
C5 C4 1_555 1_555
C6 C7 1_555 1_555
C7 H2 1_555 1_555
H3 C7 1_555 1_555
C8 C7 1_555 1_555
H4 C8 1_555 1_555
H5 C8 1_555 1_555
O1 C1 1_555 1_555
O2 Ho1 1_555 1_555
H6 O2 1_555 1_555
H7 O2 1_555 1_555
O3 Ho1 1_555 1_555
O4 C5 1_555 1_555
O5 C5 1_555 1_555
O6 Ho1 1_555 1_555
O7 C6 1_555 1_555
Ho1B O1B 1_555 1_555
Ho1A O1 1_555 1_555
Ho1_2 O4 1_555 1_555
Ho1C O1B 1_555 1_555
Ho1B_2 O4B 1_555 1_555
Ho1C_2 O7B 1_555 1_555
Ho1B_3 O6B 1_555 1_555
C1B C2B 1_555 1_555
C2B C3B 1_555 1_555
C3B C4 1_555 1_555
H1B C3B 1_555 1_555
C4B C3 1_555 1_555
C5B C4B 1_555 1_555
C6B C7B 1_555 1_555
C7B H2B 1_555 1_555
H3B C7B 1_555 1_555
C8B C8 1_555 1_555
H4B C8B 1_555 1_555
H5B C8B 1_555 1_555
O1B C1B 1_555 1_555
O1A Ho1 1_555 1_555
O1C Ho1B 1_555 1_555
O2B Ho1B 1_555 1_555
H6B O2B 1_555 1_555
H7B O2B 1_555 1_555
O3B Ho1B 1_555 1_555
O4B Ho1C 1_555 1_555
O4_2 Ho1 1_555 1_555
O4A Ho1 1_555 1_555
O4B_2 Ho1B 1_555 1_555
O4C Ho1B 1_555 1_555
O5B Ho1B_2 1_555 1_555
O5_2 Ho1 1_555 1_555
O5B_2 Ho1B 1_555 1_555
O6B C6B 1_555 1_555
O6B_2 Ho1B 1_555 1_555
O7B C6B 1_555 1_555
O7A Ho1 1_555 1_555
O7C Ho1B 1_555 1_555
C1 O3 1_555 1_555
C6 O6 1_555 1_555
O4 Ho1A 1_555 1_555
O5 Ho1_2 1_555 1_555
O7 Ho1A 1_555 1_555
Ho1A O4A 1_555 1_555
Ho1C O4C 1_555 1_555
C1B O3B 1_555 1_555
C2B C4B 1_555 1_555
C5B O4B 1_555 1_555
C5B O5B 1_555 1_555
C7B C8B 1_555 1_555

#END
