
#######################################################################
#
#                 Cambridge Crystallographic Data Centre
#                                CCDC 
#
#######################################################################
#
# If this CIF has been generated from an entry in the Cambridge 
# Structural Database, then it will include bibliographic, chemical, 
# crystal, experimental, refinement or atomic coordinate data resulting 
# from the CCDC's data processing and validation procedures.
#
#######################################################################

data_UCAQAS
_symmetry_cell_setting           monoclinic
_symmetry_space_group_name_H-M   'C 2/c'
_symmetry_Int_Tables_number      15
_space_group_name_Hall           '-C 2yn'
loop_
_symmetry_equiv_pos_site_id
_symmetry_equiv_pos_as_xyz
1 x,y,z
2 -x,y,1/2-z
3 1/2+x,1/2+y,z
4 1/2-x,1/2+y,1/2-z
5 -x,-y,-z
6 x,-y,1/2+z
7 1/2-x,1/2-y,-z
8 1/2+x,1/2-y,1/2+z
_cell_length_a                   15.731(3)
_cell_length_b                   14.165(3)
_cell_length_c                   14.395(3)
_cell_angle_alpha                90
_cell_angle_beta                 121.62(3)
_cell_angle_gamma                90
_cell_volume                     2731.44
loop_
_atom_site_label
_atom_site_type_symbol
_atom_site_fract_x
_atom_site_fract_y
_atom_site_fract_z
Ag1 Ag 0.46163(4) 0.51804(3) 0.08965(4)
Ag2 Ag 0.58552(4) 1.01932(3) 0.18097(4)
C1 C 0.4449(4) 0.7403(4) 0.0656(4)
H1 H 0.3832 0.7235 0.0058
C2 C 0.4666(4) 0.8353(4) 0.0907(4)
H2 H 0.4192 0.8805 0.0477
C3 C 0.6202(4) 0.7956(4) 0.2358(4)
H3 H 0.6822 0.8126 0.2951
C4 C 0.5975(4) 0.7009(4) 0.2115(4)
C5 C 0.5807(4) 0.3349(4) 0.1912(4)
H4 H 0.6297 0.3795 0.2325
C6 C 0.6026(4) 0.2403(4) 0.2132(4)
H5 H 0.6662 0.2228 0.2688
C7 C 0.4435(4) 0.2023(4) 0.0794(4)
C8 C 0.4210(4) 0.2970(4) 0.0564(4)
H6 H 0.3570 0.3149 0.0020
N1 N 0.5099(3) 0.6722(3) 0.1247(3)
N2 N 0.5548(4) 0.8629(3) 0.1758(4)
N3 N 0.4909(3) 0.3639(3) 0.1121(4)
N4 N 0.5353(3) 0.1728(3) 0.1572(3)
O1 O 0.6252(3) 0.5377(3) 0.3022(3)
O2 O 0.7303(3) 0.5807(3) 0.2328(4)
O3 O 0.7518(4) 0.6580(3) 0.3941(4)
O4 O 0.2750(3) 0.1611(3) -0.0885(4)
O5 O 0.3195(4) 0.0881(4) 0.0829(4)
O6 O 0.3998(3) 0.0387(3) -0.0127(3)
O7 O 0.3000(4) 0.5636(4) -0.0749(4)
S1 S 0.68498(10) 0.61077(9) 0.29359(11)
S2 S 0.35016(10) 0.11385(9) 0.00747(11)
H7 H 0.2740 0.5164 -0.1130
H8 H 0.2771 0.5802 -0.0373
Ag1A Ag 0.53837(4) 0.51804(3) 0.41035(4)
Ag2_2 Ag 0.58552(4) 0.01932(3) 0.18097(4)
N4_2 N 0.5353(3) 1.1728(3) 0.1572(3)
O1A O 0.3748(3) 0.5377(3) 0.1978(3)
loop_
_geom_bond_atom_site_label_1
_geom_bond_atom_site_label_2
_geom_bond_site_symmetry_1
_geom_bond_site_symmetry_2
Ag1 N1 1_555 1_555
Ag2 N2 1_555 1_555
C1 H1 1_555 1_555
C2 C1 1_555 1_555
H2 C2 1_555 1_555
C3 H3 1_555 1_555
C4 C3 1_555 1_555
C5 H4 1_555 1_555
C6 C5 1_555 1_555
H5 C6 1_555 1_555
C7 C8 1_555 1_555
C8 H6 1_555 1_555
N1 C1 1_555 1_555
N2 C2 1_555 1_555
N3 Ag1 1_555 1_555
N4 C6 1_555 1_555
O1 S1 1_555 1_555
O2 S1 1_555 1_555
O3 S1 1_555 1_555
O4 S2 1_555 1_555
O5 S2 1_555 1_555
O6 S2 1_555 1_555
O7 Ag1 1_555 1_555
S1 C4 1_555 1_555
S2 C7 1_555 1_555
H7 O7 1_555 1_555
H8 O7 1_555 1_555
Ag1A O1 1_555 1_555
Ag2_2 N4 1_555 1_555
N4_2 Ag2 1_555 1_555
O1A Ag1 1_555 1_555
C3 N2 1_555 1_555
C4 N1 1_555 1_555
C5 N3 1_555 1_555
C7 N4 1_555 1_555
C8 N3 1_555 1_555

#END
