
#######################################################################
#
#                 Cambridge Crystallographic Data Centre
#                                CCDC 
#
#######################################################################
#
# If this CIF has been generated from an entry in the Cambridge 
# Structural Database, then it will include bibliographic, chemical, 
# crystal, experimental, refinement or atomic coordinate data resulting 
# from the CCDC's data processing and validation procedures.
#
#######################################################################

data_UCECOU
_symmetry_cell_setting           triclinic
_symmetry_space_group_name_H-M   'P -1'
_symmetry_Int_Tables_number      2
_space_group_name_Hall           '-P 1'
loop_
_symmetry_equiv_pos_site_id
_symmetry_equiv_pos_as_xyz
1 x,y,z
2 -x,-y,-z
_cell_length_a                   8.6984(7)
_cell_length_b                   10.3068(8)
_cell_length_c                   11.1165(8)
_cell_angle_alpha                91.655(1)
_cell_angle_beta                 110.740(1)
_cell_angle_gamma                112.174(1)
_cell_volume                     847.771
loop_
_atom_site_label
_atom_site_type_symbol
_atom_site_fract_x
_atom_site_fract_y
_atom_site_fract_z
Mo1 Mo 0.0962(1) 0.6204(1) 0.1391(1)
Mo2 Mo -0.0402(1) 0.9098(1) 0.1105(1)
Zn1 Zn 0.0686(1) 0.2784(1) 0.1774(1)
O1 O 0.3063(6) 0.7172(5) 0.1412(5)
O2 O 0.1321(6) 0.6266(5) 0.3020(5)
O3 O -0.0568(6) 0.7172(5) 0.0929(5)
O4 O 0.0140(6) 0.4253(4) 0.0857(4)
O5 O -0.0075(6) 0.8992(5) -0.0599(5)
O6 O -0.2466(6) 0.8726(5) 0.1138(5)
O7 O 0.1205(6) 0.9727(5) 0.2675(5)
N1 N 0.3611(7) 0.3708(6) 0.2333(5)
N2 N 0.1731(7) 0.2668(5) 0.3728(5)
N3 N -0.1666(7) 0.1939(5) 0.2251(6)
C1 C 0.4481(9) 0.4301(7) 0.1582(8)
C2 C 0.6365(9) 0.4811(7) 0.2002(7)
C3 C 0.7349(9) 0.4711(7) 0.3252(7)
C4 C 0.6454(8) 0.4112(6) 0.4043(7)
C5 C 0.4579(8) 0.3627(6) 0.3552(6)
C6 C 0.3509(8) 0.3001(6) 0.4345(6)
C7 C 0.4208(9) 0.2747(6) 0.5593(7)
C8 C 0.3062(9) 0.2161(7) 0.6229(7)
C9 C 0.1227(9) 0.1825(7) 0.5582(7)
C10 C 0.0610(8) 0.2082(6) 0.4328(6)
C11 C -0.1346(8) 0.1695(6) 0.3491(6)
C12 C -0.2711(9) 0.1086(7) 0.3937(7)
C13 C -0.4513(9) 0.0675(7) 0.3058(7)
C14 C -0.4841(10) 0.0907(7) 0.1783(7)
C15 C -0.3389(8) 0.1558(7) 0.1426(7)
H1 H 0.3815 0.4381 0.0746
H2 H 0.6936 0.5207 0.1451
H3 H 0.8599 0.5041 0.3558
H4 H 0.7092 0.4035 0.4888
H5 H 0.5434 0.2966 0.6004
H6 H 0.3512 0.1994 0.7074
H7 H 0.0433 0.1436 0.5988
H8 H -0.2441 0.0953 0.4799
H9 H -0.5461 0.0257 0.3324
H10 H -0.6019 0.0630 0.1176
H11 H -0.3622 0.1737 0.0579
O4A O -0.0140(6) 0.5747(4) -0.0857(4)
O5A O 0.0075(6) 1.1008(5) 0.0599(5)
O5A_2 O 0.0075(6) 0.1008(5) 0.0599(5)
Mo1A Mo -0.0962(1) 0.3796(1) -0.1391(1)
Mo2A Mo 0.0402(1) 1.0902(1) -0.1105(1)
Zn1A Zn -0.0686(1) 0.7216(1) -0.1774(1)
loop_
_geom_bond_atom_site_label_1
_geom_bond_atom_site_label_2
_geom_bond_site_symmetry_1
_geom_bond_site_symmetry_2
Mo1 O1 1_555 1_555
Mo2 O3 1_555 1_555
Zn1 O4 1_555 1_555
O2 Mo1 1_555 1_555
O3 Mo1 1_555 1_555
O4 Mo1 1_555 1_555
O5 Mo2 1_555 1_555
O6 Mo2 1_555 1_555
O7 Mo2 1_555 1_555
N1 Zn1 1_555 1_555
N2 Zn1 1_555 1_555
N3 Zn1 1_555 1_555
C1 N1 1_555 1_555
C2 C1 1_555 1_555
C3 C2 1_555 1_555
C4 C3 1_555 1_555
C5 N1 1_555 1_555
C6 N2 1_555 1_555
C7 C6 1_555 1_555
C8 C7 1_555 1_555
C9 C8 1_555 1_555
C10 N2 1_555 1_555
C11 N3 1_555 1_555
C12 C11 1_555 1_555
C13 C12 1_555 1_555
C14 C13 1_555 1_555
C15 N3 1_555 1_555
H1 C1 1_555 1_555
H2 C2 1_555 1_555
H3 C3 1_555 1_555
H4 C4 1_555 1_555
H5 C7 1_555 1_555
H6 C8 1_555 1_555
H7 C9 1_555 1_555
H8 C12 1_555 1_555
H9 C13 1_555 1_555
H10 C14 1_555 1_555
H11 C15 1_555 1_555
O4A Mo1 1_555 1_555
O5A Mo2 1_555 1_555
O5A_2 Zn1 1_555 1_555
Mo1A O4 1_555 1_555
Mo2A O5 1_555 1_555
Zn1A O5 1_555 1_555
C4 C5 1_555 1_555
C5 C6 1_555 1_555
C9 C10 1_555 1_555
C10 C11 1_555 1_555
C14 C15 1_555 1_555
O4A Mo1A 1_555 1_555
O4A Zn1A 1_555 1_555
O5A Mo2A 1_555 1_555

#END
