
#######################################################################
#
#                 Cambridge Crystallographic Data Centre
#                                CCDC 
#
#######################################################################
#
# If this CIF has been generated from an entry in the Cambridge 
# Structural Database, then it will include bibliographic, chemical, 
# crystal, experimental, refinement or atomic coordinate data resulting 
# from the CCDC's data processing and validation procedures.
#
#######################################################################

data_UCEXOQ
_symmetry_cell_setting           triclinic
_symmetry_space_group_name_H-M   'P -1'
_symmetry_Int_Tables_number      2
_space_group_name_Hall           '-P 1'
loop_
_symmetry_equiv_pos_site_id
_symmetry_equiv_pos_as_xyz
1 x,y,z
2 -x,-y,-z
_cell_length_a                   10.7098(5)
_cell_length_b                   11.2449(5)
_cell_length_c                   26.0660(11)
_cell_angle_alpha                84.9980(10)
_cell_angle_beta                 88.1350(10)
_cell_angle_gamma                62.6600(10)
_cell_volume                     2777.77
loop_
_atom_site_label
_atom_site_type_symbol
_atom_site_fract_x
_atom_site_fract_y
_atom_site_fract_z
O1 O 0.57333(17) 1.78206(15) 0.46192(7)
O2 O 0.45718(18) 1.82038(15) 0.53543(7)
O3 O 0.66484(17) 1.85618(15) 0.36653(7)
O4 O 0.60506(16) 1.99252(14) 0.29425(7)
O5 O 0.56425(17) 1.38325(15) 0.24492(7)
O6 O 0.53721(17) 1.50158(16) 0.16995(7)
O7 O 0.75398(16) 2.04644(16) 0.39977(7)
O8 O 0.72575(16) 2.19485(16) 0.33426(7)
O9 O 1.37051(15) 2.04775(15) 0.47062(6)
O10 O 1.40537(15) 2.08890(18) 0.38947(6)
O11 O 0.84673(17) 1.79099(17) 0.45929(7)
O12 O 0.48796(16) 1.20515(17) 0.19572(7)
O13 O 0.39606(15) 1.35519(16) 0.12985(7)
O14 O -0.16167(16) 1.19848(18) 0.22591(7)
O15 O -0.20696(15) 1.26612(16) 0.14331(7)
O16 O 0.87789(18) 1.95863(19) 0.28343(9)
O17 O 0.43910(18) 2.25368(18) 0.30581(8)
O18 O 0.74152(18) 2.01177(17) 0.18771(8)
O19 O 0.64394(16) 1.15515(15) 0.08431(7)
O20 O 0.50248(16) 1.31309(14) 0.02826(7)
O21 O 0.74339(16) 1.37088(16) 0.02808(7)
O22 O 0.69761(16) 1.53119(16) 0.07902(7)
O23 O 0.41605(16) 1.58492(15) 0.05966(7)
Er1 Er 0.588471(9) 1.382831(9) 0.100274(4)
C1 C 0.5124(2) 1.7527(2) 0.49905(10)
C2 C 0.5054(2) 1.6214(2) 0.49896(10)
C3 C 0.4754(2) 1.5659(2) 0.54478(11)
H1 H 0.4585 1.6099 0.5748
C4 C 0.5288(3) 1.5549(2) 0.45497(10)
H2 H 0.5480 1.5923 0.4244
C5 C 0.6308(2) 1.8827(2) 0.31973(9)
C6 C 0.6160(2) 1.7778(2) 0.29248(9)
C7 C 0.5797(3) 1.8006(2) 0.24046(10)
H3 H 0.5667 1.8803 0.2221
C8 C 0.5630(3) 1.7035(2) 0.21603(10)
H4 H 0.5389 1.7185 0.1813
C9 C 0.6376(3) 1.6578(2) 0.31929(10)
H5 H 0.6639 1.6420 0.3539
C10 C 0.6206(2) 1.5608(2) 0.29515(10)
H6 H 0.6349 1.4808 0.3135
C11 C 0.5821(2) 1.5839(2) 0.24333(9)
C12 C 0.5600(2) 1.4809(2) 0.21722(9)
C13 C 0.7896(2) 2.1232(2) 0.37275(9)
C14 C 0.9229(2) 2.1229(2) 0.38861(10)
C15 C 0.9984(2) 2.0419(2) 0.43071(10)
H7 H 0.9624 1.9924 0.4508
C16 C 1.1277(2) 2.0328(2) 0.44381(10)
H8 H 1.1766 1.9798 0.4729
C17 C 0.9774(2) 2.1970(2) 0.35806(10)
H9 H 0.9263 2.2532 0.3299
C18 C 1.1076(2) 2.1862(2) 0.36999(10)
H10 H 1.1448 2.2339 0.3494
C19 C 1.1826(2) 2.1042(2) 0.41267(9)
C20 C 1.3263(2) 2.0824(2) 0.42515(9)
C21 C 0.3910(2) 1.2749(2) 0.16494(10)
C22 C 0.2577(2) 1.2594(2) 0.16858(10)
C23 C 0.1657(2) 1.2991(3) 0.12733(11)
H11 H 0.1866 1.3337 0.0964
C24 C 0.0424(2) 1.2877(3) 0.13178(12)
H12 H -0.0164 1.3107 0.1032
C25 C 0.2253(2) 1.2070(3) 0.21459(10)
H13 H 0.2882 1.1766 0.2422
C26 C 0.1002(2) 1.2000(3) 0.21933(10)
H14 H 0.0786 1.1666 0.2504
C27 C 0.0054(2) 1.2427(2) 0.17799(9)
C28 C -0.1309(2) 1.2343(2) 0.18283(10)
C29 C 0.5609(2) 1.1916(2) 0.04662(9)
C30 C 0.5294(2) 1.0920(2) 0.02269(10)
C31 C 0.4437(2) 1.1323(2) -0.02084(10)
H15 H 0.4052 1.2210 -0.0348
C32 C 0.5842(2) 0.9607(2) 0.04332(10)
H16 H 0.6406 0.9340 0.0727
C33 C 0.7660(2) 1.4645(2) 0.04394(10)
C34 C 0.8851(2) 1.4850(2) 0.01942(10)
C35 C 0.9660(2) 1.4081(2) -0.01858(11)
H17 H 0.9443 1.3446 -0.0309
C36 C 0.9208(2) 1.5767(2) 0.03885(11)
H18 H 0.8688 1.6276 0.0653
C37 C 0.9160(3) 1.6816(3) 0.44144(11)
H19 H 0.8731 1.6574 0.4167
C38 C 1.1268(5) 1.4724(4) 0.43118(18)
H20 H 1.0688 1.4583 0.4076
H21 H 1.1622 1.3994 0.4575
H22 H 1.2041 1.4768 0.4129
C39 C 1.1203(4) 1.6290(4) 0.49128(18)
H23 H 1.0591 1.7129 0.5049
H24 H 1.1982 1.6358 0.4745
H25 H 1.1547 1.5591 0.5188
Er2 Er 0.655740(9) 2.15410(1) 0.258290(4)
C40 C 1.0000(3) 1.9308(3) 0.27561(14)
H26 H 1.0207 1.9732 0.2468
C41 C 1.0795(5) 1.7720(4) 0.35037(16)
H27 H 0.9816 1.7945 0.3520
H28 H 1.1066 1.7965 0.3809
H29 H 1.1342 1.6772 0.3478
C42 C 1.2477(5) 1.8228(6) 0.2943(3)
H30 H 1.2482 1.8761 0.2635
H31 H 1.3064 1.7295 0.2896
H32 H 1.2829 1.8481 0.3226
N1 N 1.0440(3) 1.5979(3) 0.45469(11)
N2 N 1.1043(3) 1.8452(3) 0.30502(12)
Er3 Er 0.618670(8) 1.965150(8) 0.439750(4)
O1A O 0.42667(17) 1.21794(15) 0.53808(7)
O2A O 0.54282(18) 1.17962(15) 0.46457(7)
O2A_2 O 0.54282(18) 2.17962(15) 0.46457(7)
O2_2 O 0.45718(18) 0.82038(15) 0.53543(7)
O3_2 O 0.66484(17) 2.85618(15) 0.36653(7)
O3A O 0.33516(17) 1.14382(15) 0.63347(7)
O4_2 O 0.60506(16) 2.99252(14) 0.29425(7)
O4_3 O 0.60506(16) 0.99252(14) 0.29425(7)
O5_2 O 0.56425(17) 2.38325(15) 0.24492(7)
O6_2 O 0.53721(17) 2.50158(16) 0.16995(7)
O6_3 O 1.53721(17) 1.50158(16) 0.16995(7)
O7_2 O -0.24602(16) 2.04644(16) 0.39977(7)
O7A O 0.24602(16) 0.95356(16) 0.60023(7)
O8_2 O -0.27425(16) 2.19485(16) 0.33426(7)
O8_3 O 0.72575(16) 1.19485(16) 0.33426(7)
O9_2 O 0.37051(15) 2.04775(15) 0.47062(6)
O9A O 0.62949(15) 1.95225(15) 0.52938(6)
O9_3 O 0.37051(15) 1.04775(15) 0.47062(6)
O9A_2 O 0.62949(15) 0.95225(15) 0.52938(6)
O10_2 O 0.40537(15) 2.08890(18) 0.38947(6)
O10A O 0.59463(15) 0.91110(18) 0.61053(6)
O11A O 0.15327(17) 1.20901(17) 0.54071(7)
O12_2 O 1.48796(16) 1.20515(17) 0.19572(7)
O12_3 O 0.48796(16) 2.20515(17) 0.19572(7)
O13_2 O 1.39606(15) 1.35519(16) 0.12985(7)
O14_2 O 0.83833(16) 1.19848(18) 0.22591(7)
O14_3 O 0.83833(16) 2.19848(18) 0.22591(7)
O15_2 O 0.79304(15) 1.26612(16) 0.14331(7)
O15_3 O 1.79304(15) 1.26612(16) 0.14331(7)
O16_2 O 0.87789(18) 0.95863(19) 0.28343(9)
O17_2 O 0.43910(18) 1.25368(18) 0.30581(8)
O18_2 O 0.74152(18) 1.01177(17) 0.18771(8)
O19A O 0.35606(16) 0.84485(15) -0.08431(7)
O19_2 O 1.64394(16) 1.15515(15) 0.08431(7)
O20A O 0.49752(16) 0.68691(14) -0.02826(7)
O20_2 O 1.50248(16) 1.31309(14) 0.02826(7)
O21A O 1.25661(16) 1.62912(16) -0.02808(7)
O21_2 O 1.74339(16) 1.37088(16) 0.02808(7)
O22A O 1.30239(16) 1.46881(16) -0.07902(7)
O22_2 O 1.69761(16) 1.53119(16) 0.07902(7)
O23_2 O 1.41605(16) 1.58492(15) 0.05966(7)
Er1_2 Er 1.588471(9) 1.382831(9) 0.100274(4)
Er1_3 Er -0.411529(9) 1.382831(9) 0.100274(4)
Er1A Er 0.411529(9) 0.617169(9) -0.100274(4)
Er1A_2 Er 1.411529(9) 1.617169(9) -0.100274(4)
Er1_4 Er 0.588471(9) 2.382831(9) 0.100274(4)
C1A C 0.4876(2) 1.2473(2) 0.50095(10)
C2A C 0.4946(2) 1.3786(2) 0.50104(10)
C3A C 0.5246(2) 1.4341(2) 0.45522(11)
H1A H 0.5415 1.3901 0.4252
C4A C 0.4712(3) 1.4451(2) 0.54503(10)
H2A H 0.4520 1.4077 0.5756
C5_2 C 0.6308(2) 2.8827(2) 0.31973(9)
C6_2 C 0.6160(2) 2.7778(2) 0.29248(9)
C7_2 C 0.5797(3) 2.8006(2) 0.24046(10)
H3_2 H 0.5667 2.8803 0.2221
C8_2 C 0.5630(3) 2.7035(2) 0.21603(10)
H4_2 H 0.5389 2.7185 0.1813
C9_2 C 0.6376(3) 2.6578(2) 0.31929(10)
H5_2 H 0.6639 2.6420 0.3539
C10_2 C 0.6206(2) 2.5608(2) 0.29515(10)
H6_2 H 0.6349 2.4808 0.3135
C11_2 C 0.5821(2) 2.5839(2) 0.24333(9)
C12_2 C 0.5600(2) 2.4809(2) 0.21722(9)
C13_2 C -0.2104(2) 2.1232(2) 0.37275(9)
C14_2 C -0.0771(2) 2.1229(2) 0.38861(10)
C15_2 C -0.0016(2) 2.0419(2) 0.43071(10)
H7_2 H -0.0376 1.9924 0.4508
C16_2 C 0.1277(2) 2.0328(2) 0.44381(10)
H8_2 H 0.1766 1.9798 0.4729
C17_2 C -0.0226(2) 2.1970(2) 0.35806(10)
H9_2 H -0.0737 2.2532 0.3299
C18_2 C 0.1076(2) 2.1862(2) 0.36999(10)
H10_2 H 0.1448 2.2339 0.3494
C19_2 C 0.1826(2) 2.1042(2) 0.41267(9)
C20_2 C 0.3263(2) 2.0824(2) 0.42515(9)
C21_2 C 1.3910(2) 1.2749(2) 0.16494(10)
C22_2 C 1.2577(2) 1.2594(2) 0.16858(10)
C23_2 C 1.1657(2) 1.2991(3) 0.12733(11)
H11_2 H 1.1866 1.3337 0.0964
C24_2 C 1.0424(2) 1.2877(3) 0.13178(12)
H12_2 H 0.9836 1.3107 0.1032
C25_2 C 1.2253(2) 1.2070(3) 0.21459(10)
H13_2 H 1.2882 1.1766 0.2422
C26_2 C 1.1002(2) 1.2000(3) 0.21933(10)
H14_2 H 1.0786 1.1666 0.2504
C27_2 C 1.0054(2) 1.2427(2) 0.17799(9)
C28_2 C 0.8691(2) 1.2343(2) 0.18283(10)
C29A C 0.4391(2) 0.8084(2) -0.04662(9)
C30A C 0.4706(2) 0.9080(2) -0.02269(10)
C31A C 0.5563(2) 0.8677(2) 0.02084(10)
H15A H 0.5948 0.7790 0.0348
C32A C 0.4158(2) 1.0393(2) -0.04332(10)
H16A H 0.3594 1.0660 -0.0727
C33A C 1.2340(2) 1.5355(2) -0.04394(10)
C34A C 1.1149(2) 1.5150(2) -0.01942(10)
C35A C 1.0340(2) 1.5919(2) 0.01858(11)
H17A H 1.0557 1.6554 0.0309
C36A C 1.0792(2) 1.4233(2) -0.03885(11)
H18A H 1.1312 1.3724 -0.0653
C37A C 0.0840(3) 1.3184(3) 0.55856(11)
H19A H 0.1269 1.3426 0.5833
C38A C -0.1268(5) 1.5276(4) 0.56882(18)
H20A H -0.0688 1.5417 0.5924
H21A H -0.1622 1.6006 0.5425
H22A H -0.2041 1.5232 0.5871
C39A C -0.1203(4) 1.3710(4) 0.50872(18)
H23A H -0.0591 1.2871 0.4951
H24A H -0.1982 1.3642 0.5255
H25A H -0.1547 1.4409 0.4812
Er2_2 Er 0.655740(9) 1.15410(1) 0.258290(4)
Er2_3 Er -0.344260(9) 1.15410(1) 0.258290(4)
Er2_4 Er 1.655740(9) 1.15410(1) 0.258290(4)
Er2_5 Er 0.655740(9) 3.15410(1) 0.258290(4)
Er2_6 Er -0.344260(9) 2.15410(1) 0.258290(4)
C40_2 C 1.0000(3) 0.9308(3) 0.27561(14)
H26_2 H 1.0207 0.9732 0.2468
C41_2 C 1.0795(5) 0.7720(4) 0.35037(16)
H27_2 H 0.9816 0.7945 0.3520
H28_2 H 1.1066 0.7965 0.3809
H29_2 H 1.1342 0.6772 0.3478
C42_2 C 1.2477(5) 0.8228(6) 0.2943(3)
H30_2 H 1.2482 0.8761 0.2635
H31_2 H 1.3064 0.7295 0.2896
H32_2 H 1.2829 0.8481 0.3226
N1A N -0.0440(3) 1.4021(3) 0.54531(11)
N2_2 N 1.1043(3) 0.8452(3) 0.30502(12)
Er3A Er 0.381330(8) 1.034850(8) 0.560250(4)
Er3A_2 Er 0.381330(8) 2.034850(8) 0.560250(4)
Er3_2 Er 1.618670(8) 1.965150(8) 0.439750(4)
Er3A_3 Er 1.381330(8) 2.034850(8) 0.560250(4)
Er3_3 Er 0.618670(8) 0.965150(8) 0.439750(4)
Er3_4 Er 0.618670(8) 2.965150(8) 0.439750(4)
Er3_5 Er -0.381330(8) 1.965150(8) 0.439750(4)
O24 O 0.0079(3) 0.9282(3) 0.15235(11)
C43 C 0.0137(3) 0.9811(4) 0.11009(15)
H33 H -0.0702 1.0299 0.0918
C44 C 0.1207(6) 1.0484(6) 0.0362(2)
H34 H 0.0257 1.0895 0.0236
H35 H 0.1813 0.9860 0.0127
H36 H 0.1499 1.1164 0.0394
C45 C 0.2608(4) 0.9024(5) 0.1154(2)
H37 H 0.2464 0.8630 0.1478
H38 H 0.2982 0.9630 0.1214
H39 H 0.3257 0.8329 0.0952
N3 N 0.1289(3) 0.9749(3) 0.08827(13)
O25 O 0.142(2) 0.5801(8) 0.2156(6)
H40 H 0.1995 0.5407 0.2388
C46 C 0.0621(4) 0.5822(4) 0.22462(19)
H41 H 0.0302 0.6340 0.2545
H42 H 0.0815 0.4909 0.2361
C47 C -0.0530(10) 0.6330(10) 0.1898(4)
H43 H -0.1330 0.6318 0.2071
H44 H -0.0287 0.5780 0.1613
H45 H -0.0754 0.7235 0.1774
O26 O 0.1807(6) 0.4667(6) 0.2977(2)
loop_
_geom_bond_atom_site_label_1
_geom_bond_atom_site_label_2
_geom_bond_site_symmetry_1
_geom_bond_site_symmetry_2
O1 C1 1_555 1_555
O2 C1 1_555 1_555
O3 C5 1_555 1_555
O4 C5 1_555 1_555
O5 C12 1_555 1_555
O6 Er1 1_555 1_555
O7 C13 1_555 1_555
O8 C13 1_555 1_555
O9 C20 1_555 1_555
O10 C20 1_555 1_555
O11 C37 1_555 1_555
O12 C21 1_555 1_555
O13 Er1 1_555 1_555
O14 C28 1_555 1_555
O15 C28 1_555 1_555
O16 Er2 1_555 1_555
O17 Er2 1_555 1_555
O18 Er2 1_555 1_555
O19 Er1 1_555 1_555
O20 Er1 1_555 1_555
O21 Er1 1_555 1_555
O22 Er1 1_555 1_555
O23 Er1 1_555 1_555
Er1 O15_2 1_555 1_555
C1 C2 1_555 1_555
C2 C3 1_555 1_555
C3 H1 1_555 1_555
C4 C2 1_555 1_555
H2 C4 1_555 1_555
C5 C6 1_555 1_555
C6 C7 1_555 1_555
C7 H3 1_555 1_555
C8 C7 1_555 1_555
H4 C8 1_555 1_555
C9 C6 1_555 1_555
H5 C9 1_555 1_555
C10 C9 1_555 1_555
H6 C10 1_555 1_555
C11 C8 1_555 1_555
C12 O6 1_555 1_555
C13 C14 1_555 1_555
C14 C15 1_555 1_555
C15 H7 1_555 1_555
C16 C15 1_555 1_555
H8 C16 1_555 1_555
C17 C14 1_555 1_555
H9 C17 1_555 1_555
C18 C17 1_555 1_555
H10 C18 1_555 1_555
C19 C16 1_555 1_555
C20 C19 1_555 1_555
C21 O13 1_555 1_555
C22 C21 1_555 1_555
C23 C22 1_555 1_555
H11 C23 1_555 1_555
C24 C23 1_555 1_555
H12 C24 1_555 1_555
C25 C22 1_555 1_555
H13 C25 1_555 1_555
C26 C25 1_555 1_555
H14 C26 1_555 1_555
C27 C24 1_555 1_555
C28 C27 1_555 1_555
C29 O19 1_555 1_555
C30 C29 1_555 1_555
C31 C30 1_555 1_555
H15 C31 1_555 1_555
C32 C30 1_555 1_555
H16 C32 1_555 1_555
C33 O21 1_555 1_555
C34 C33 1_555 1_555
C35 C34 1_555 1_555
H17 C35 1_555 1_555
C36 C34 1_555 1_555
H18 C36 1_555 1_555
C37 H19 1_555 1_555
C38 H20 1_555 1_555
H21 C38 1_555 1_555
H22 C38 1_555 1_555
C39 H23 1_555 1_555
H24 C39 1_555 1_555
H25 C39 1_555 1_555
Er2 O4 1_555 1_555
C40 O16 1_555 1_555
H26 C40 1_555 1_555
C41 H27 1_555 1_555
H28 C41 1_555 1_555
H29 C41 1_555 1_555
C42 H30 1_555 1_555
H31 C42 1_555 1_555
H32 C42 1_555 1_555
N1 C37 1_555 1_555
N2 C40 1_555 1_555
Er3 O1 1_555 1_555
O24 C43 1_555 1_555
C43 H33 1_555 1_555
C44 H34 1_555 1_555
H35 C44 1_555 1_555
H36 C44 1_555 1_555
C45 H37 1_555 1_555
H38 C45 1_555 1_555
H39 C45 1_555 1_555
N3 C43 1_555 1_555
O25 H40 1_555 1_555
C46 O25 1_555 1_555
H41 C46 1_555 1_555
H42 C46 1_555 1_555
C47 C46 1_555 1_555
H43 C47 1_555 1_555
H44 C47 1_555 1_555
H45 C47 1_555 1_555
O1A C1A 1_555 1_555
O2A C1A 1_555 1_555
O2A_2 Er3 1_555 1_555
O2_2 Er3A 1_555 1_555
O3_2 C5_2 1_555 1_555
O3A Er3A 1_555 1_555
O4_2 C5_2 1_555 1_555
O4_3 Er2_2 1_555 1_555
O5_2 Er2 1_555 1_555
O6_2 Er1_4 1_555 1_555
O6_3 Er1_2 1_555 1_555
O7_2 C13_2 1_555 1_555
O7A Er3A 1_555 1_555
O8_2 C13_2 1_555 1_555
O8_3 Er2_2 1_555 1_555
O9_2 Er3 1_555 1_555
O9A Er3 1_555 1_555
O9_3 Er3A 1_555 1_555
O9A_2 Er3A 1_555 1_555
O10_2 Er3 1_555 1_555
O10A Er3A 1_555 1_555
O11A C37A 1_555 1_555
O12_2 C21_2 1_555 1_555
O12_3 Er2 1_555 1_555
O13_2 Er1_2 1_555 1_555
O14_2 C28_2 1_555 1_555
O14_3 Er2 1_555 1_555
O15_2 C28_2 1_555 1_555
O15_3 Er1_2 1_555 1_555
O16_2 Er2_2 1_555 1_555
O17_2 Er2_2 1_555 1_555
O18_2 Er2_2 1_555 1_555
O19A Er1A 1_555 1_555
O19_2 Er1_2 1_555 1_555
O20A Er1A 1_555 1_555
O20_2 Er1_2 1_555 1_555
O21A Er1A_2 1_555 1_555
O21_2 Er1_2 1_555 1_555
O22A Er1A_2 1_555 1_555
O22_2 Er1_2 1_555 1_555
O23_2 Er1_2 1_555 1_555
Er1_3 O15 1_555 1_555
C1A C2A 1_555 1_555
C2A C3A 1_555 1_555
C3A C4 1_555 1_555
H1A C3A 1_555 1_555
C4A C3 1_555 1_555
H2A C4A 1_555 1_555
C5_2 C6_2 1_555 1_555
C6_2 C7_2 1_555 1_555
C7_2 H3_2 1_555 1_555
C8_2 C7_2 1_555 1_555
H4_2 C8_2 1_555 1_555
C9_2 C6_2 1_555 1_555
H5_2 C9_2 1_555 1_555
C10_2 C9_2 1_555 1_555
H6_2 C10_2 1_555 1_555
C11_2 C8_2 1_555 1_555
C12_2 O5_2 1_555 1_555
C13_2 C14_2 1_555 1_555
C14_2 C15_2 1_555 1_555
C15_2 H7_2 1_555 1_555
C16_2 C15_2 1_555 1_555
H8_2 C16_2 1_555 1_555
C17_2 C14_2 1_555 1_555
H9_2 C17_2 1_555 1_555
C18_2 C17_2 1_555 1_555
H10_2 C18_2 1_555 1_555
C19_2 C16_2 1_555 1_555
C20_2 O9_2 1_555 1_555
C21_2 O13_2 1_555 1_555
C22_2 C21_2 1_555 1_555
C23_2 C22_2 1_555 1_555
H11_2 C23_2 1_555 1_555
C24_2 C23_2 1_555 1_555
H12_2 C24_2 1_555 1_555
C25_2 C22_2 1_555 1_555
H13_2 C25_2 1_555 1_555
C26_2 C25_2 1_555 1_555
H14_2 C26_2 1_555 1_555
C27_2 C24_2 1_555 1_555
C28_2 C27_2 1_555 1_555
C29A O19A 1_555 1_555
C30A C29A 1_555 1_555
C31A C32 1_555 1_555
H15A C31A 1_555 1_555
C32A C31 1_555 1_555
H16A C32A 1_555 1_555
C33A O21A 1_555 1_555
C34A C33A 1_555 1_555
C35A C36 1_555 1_555
H17A C35A 1_555 1_555
C36A C35 1_555 1_555
H18A C36A 1_555 1_555
C37A H19A 1_555 1_555
C38A H20A 1_555 1_555
H21A C38A 1_555 1_555
H22A C38A 1_555 1_555
C39A H23A 1_555 1_555
H24A C39A 1_555 1_555
H25A C39A 1_555 1_555
Er2_2 O5 1_555 1_555
Er2_3 O14 1_555 1_555
Er2_4 O12_2 1_555 1_555
Er2_5 O4_2 1_555 1_555
Er2_6 O8_2 1_555 1_555
C40_2 O16_2 1_555 1_555
H26_2 C40_2 1_555 1_555
C41_2 H27_2 1_555 1_555
H28_2 C41_2 1_555 1_555
H29_2 C41_2 1_555 1_555
C42_2 H30_2 1_555 1_555
H31_2 C42_2 1_555 1_555
H32_2 C42_2 1_555 1_555
N1A C37A 1_555 1_555
N2_2 C40_2 1_555 1_555
Er3A O1A 1_555 1_555
Er3A_2 O2 1_555 1_555
Er3_2 O9 1_555 1_555
Er3A_3 O9 1_555 1_555
Er3_3 O2A 1_555 1_555
Er3_4 O3_2 1_555 1_555
Er3_5 O7_2 1_555 1_555
O3 Er3 1_555 1_555
O7 Er3 1_555 1_555
O8 Er2 1_555 1_555
O10 Er3_2 1_555 1_555
O11 Er3 1_555 1_555
O12 Er2_2 1_555 1_555
O20 C29 1_555 1_555
O22 C33 1_555 1_555
C10 C11 1_555 1_555
C11 C12 1_555 1_555
C18 C19 1_555 1_555
C26 C27 1_555 1_555
C38 N1 1_555 1_555
C39 N1 1_555 1_555
C41 N2 1_555 1_555
C42 N2 1_555 1_555
C44 N3 1_555 1_555
C45 N3 1_555 1_555
O6_2 C12_2 1_555 1_555
O9_2 Er3A_2 1_555 1_555
O9A Er3A_2 1_555 1_555
O9_3 Er3_3 1_555 1_555
O9A_2 Er3_3 1_555 1_555
O10_2 C20_2 1_555 1_555
O11A Er3A 1_555 1_555
O14_2 Er2_2 1_555 1_555
O20A C29A 1_555 1_555
O22A C33A 1_555 1_555
C2A C4A 1_555 1_555
C10_2 C11_2 1_555 1_555
C11_2 C12_2 1_555 1_555
C18_2 C19_2 1_555 1_555
C19_2 C20_2 1_555 1_555
C26_2 C27_2 1_555 1_555
C30A C31A 1_555 1_555
C30A C32A 1_555 1_555
C34A C35A 1_555 1_555
C34A C36A 1_555 1_555
C38A N1A 1_555 1_555
C39A N1A 1_555 1_555
C41_2 N2_2 1_555 1_555
C42_2 N2_2 1_555 1_555

#END
