
#######################################################################
#
#                 Cambridge Crystallographic Data Centre
#                                CCDC 
#
#######################################################################
#
# If this CIF has been generated from an entry in the Cambridge 
# Structural Database, then it will include bibliographic, chemical, 
# crystal, experimental, refinement or atomic coordinate data resulting 
# from the CCDC's data processing and validation procedures.
#
#######################################################################

data_UCEXIK
_symmetry_cell_setting           triclinic
_symmetry_space_group_name_H-M   'P -1'
_symmetry_Int_Tables_number      2
_space_group_name_Hall           '-P 1'
loop_
_symmetry_equiv_pos_site_id
_symmetry_equiv_pos_as_xyz
1 x,y,z
2 -x,-y,-z
_cell_length_a                   10.741(2)
_cell_length_b                   11.284(3)
_cell_length_c                   26.152(6)
_cell_angle_alpha                84.970(4)
_cell_angle_beta                 87.963(4)
_cell_angle_gamma                62.568(4)
_cell_volume                     2802.38
loop_
_atom_site_label
_atom_site_type_symbol
_atom_site_fract_x
_atom_site_fract_y
_atom_site_fract_z
O1 O 0.5736(2) 0.7816(2) 0.46191(9)
O2 O 0.4565(2) 0.8205(2) 0.53571(8)
O3 O 0.36950(19) 1.0489(2) 0.47052(7)
O4 O 0.4062(2) 1.0884(2) 0.38942(8)
O5 O -0.2452(2) 1.0465(2) 0.39999(8)
O6 O 0.6653(2) 0.8558(2) 0.36681(8)
O7 O 0.8473(2) 0.7890(2) 0.45891(9)
O8 O 0.8409(2) 1.1969(2) 0.22597(8)
O9 O 0.7434(2) 1.0109(2) 0.18653(9)
O10 O 0.8775(2) 0.9602(3) 0.28329(10)
O11 O 0.6058(2) 0.9909(2) 0.29484(8)
O12 O -0.2730(2) 1.1943(2) 0.33417(8)
O13 O 0.4371(2) 1.2562(2) 0.30610(9)
O14 O 0.5631(2) 0.3827(2) 0.24529(9)
O15 O 1.4878(2) 1.2059(2) 0.19591(8)
O16 O 1.3947(2) 1.3553(2) 0.12996(8)
O17 O 0.7928(2) 1.2660(2) 0.14383(8)
O18 O 0.6444(2) 0.1540(2) 0.08427(8)
O19 O 0.5055(2) 0.3098(2) 0.02836(8)
O20 O 0.74385(19) 0.3718(2) 0.02814(8)
O21 O 0.6976(2) 0.5318(2) 0.07863(9)
O22 O 0.4166(2) 0.5845(2) 0.05888(8)
O23 O 0.5367(2) 0.5023(2) 0.16992(8)
C1 C 0.5113(3) 0.7529(3) 0.49934(13)
C2 C 0.5052(3) 0.6210(3) 0.49935(13)
C3 C 0.5286(3) 0.5543(3) 0.45501(13)
H2 H 0.5466 0.5919 0.4243
C4 C 0.4744(3) 0.5675(3) 0.54424(13)
H3 H 0.4557 0.6125 0.5739
C5 C 0.3249(3) 1.0847(3) 0.42452(12)
C6 C 0.6301(3) 0.8840(3) 0.31936(12)
C7 C 0.6178(3) 0.7750(3) 0.29240(12)
C8 C 0.6367(3) 0.6590(3) 0.31889(13)
H4 H 0.6611 0.6445 0.3535
C9 C 0.6199(3) 0.5607(3) 0.29498(12)
H5 H 0.6351 0.4802 0.3129
C10 C 0.5782(3) 0.8006(3) 0.24077(12)
H6 H 0.5611 0.8817 0.2230
C11 C 0.5648(3) 0.7014(3) 0.21631(12)
H7 H 0.5456 0.7137 0.1813
C12 C -0.2113(3) 1.1225(3) 0.37360(11)
C13 C -0.0752(3) 1.1215(3) 0.38853(12)
C14 C -0.0002(3) 1.0426(4) 0.43072(13)
H8 H -0.0361 0.9939 0.4511
C15 C 0.1271(3) 1.0342(3) 0.44335(12)
H9 H 0.1760 0.9819 0.4724
C16 C 0.1814(3) 1.1050(3) 0.41210(11)
C17 C 0.1093(3) 1.1847(3) 0.36951(12)
H10 H 0.1469 1.2313 0.3487
C18 C -0.0214(3) 1.1945(4) 0.35803(13)
H11 H -0.0725 1.2499 0.3299
C19 C 0.5798(3) 0.5876(3) 0.24341(12)
C20 C 0.5599(3) 0.4813(3) 0.21725(13)
C21 C 0.8704(3) 1.2338(3) 0.18335(13)
C22 C 1.0070(3) 1.2410(3) 0.17774(12)
C23 C 1.3873(3) 1.2765(3) 0.16444(12)
C24 C 1.2587(3) 1.2595(3) 0.16868(11)
C25 C 1.2265(3) 1.2065(4) 0.21418(13)
H12 H 1.2891 1.1758 0.2417
C26 C 1.0998(3) 1.1994(4) 0.21868(13)
H13 H 1.0776 1.1664 0.2496
C27 C 1.0413(3) 1.2887(4) 0.13246(13)
H14 H 0.9817 1.3135 0.1042
C28 C 1.1644(3) 1.3006(4) 0.12828(14)
H15 H 1.1839 1.3369 0.0976
C29 C 0.5624(3) 0.1920(3) 0.04726(12)
C30 C 0.5302(3) 0.0922(3) 0.02271(12)
C31 C 0.5829(3) -0.0382(3) 0.04331(13)
H16 H 0.6378 -0.0647 0.0729
C32 C 0.4442(3) 0.1311(3) -0.02084(12)
H17 H 0.4051 0.2195 -0.0348
C33 C 0.7697(3) 0.4605(3) 0.04334(12)
C34 C 0.8840(3) 0.4865(3) 0.02007(12)
C35 C 0.9215(3) 0.5756(4) 0.03816(13)
H18 H 0.8696 0.6260 0.0647
C36 C 0.9682(3) 0.4064(4) -0.01894(14)
H19 H 0.9482 0.3422 -0.0313
C37 C 0.9170(4) 0.6814(4) 0.44079(14)
H20 H 0.8756 0.6579 0.4155
C38 C 1.1201(4) 0.6287(5) 0.49288(18)
H21 H 1.0581 0.7133 0.5057
H22 H 1.2002 0.6336 0.4774
H23 H 1.1506 0.5600 0.5207
C39 C 1.1237(5) 0.4684(5) 0.43064(19)
H24 H 1.0633 0.4595 0.4068
H25 H 1.1539 0.3954 0.4568
H26 H 1.2041 0.4671 0.4129
C40 C 1.0822(5) 0.7712(5) 0.34956(18)
H27 H 0.9844 0.7938 0.3509
H28 H 1.1084 0.7955 0.3802
H29 H 1.1368 0.6767 0.3469
C41 C 1.0012(4) 0.9284(4) 0.27538(17)
H30 H 1.0234 0.9669 0.2459
C42 C 1.2472(5) 0.8227(7) 0.2956(3)
H31 H 1.2468 0.8777 0.2654
H32 H 1.3069 0.7303 0.2902
H33 H 1.2816 0.8469 0.3243
N1 N 1.0465(3) 0.5968(3) 0.45461(12)
N2 N 1.1072(3) 0.8422(3) 0.30600(13)
Ho1 Ho 0.619130(13) 0.964670(14) 0.439710(5)
Ho2 Ho 0.655820(14) 1.153840(14) 0.258200(6)
Ho3 Ho 0.588600(13) 0.382730(14) 0.100330(5)
O1A O 0.4264(2) 0.2184(2) 0.53809(9)
O2A O 0.5435(2) 0.1795(2) 0.46429(8)
O2A_2 O 0.5435(2) 1.1795(2) 0.46429(8)
O2_2 O 0.4565(2) -0.1795(2) 0.53571(8)
O3A O 0.63050(19) 0.9511(2) 0.52948(7)
O3_2 O 0.36950(19) 0.0489(2) 0.47052(7)
O3A_2 O 0.63050(19) -0.0489(2) 0.52948(7)
O4A O 0.5938(2) 0.9116(2) 0.61058(8)
O4A_2 O 0.5938(2) -0.0884(2) 0.61058(8)
O5A O 1.2452(2) 0.9535(2) 0.60001(8)
O5_2 O 0.7548(2) 1.0465(2) 0.39999(8)
O5A_2 O 0.2452(2) -0.0465(2) 0.60001(8)
O6_2 O 0.6653(2) 1.8558(2) 0.36681(8)
O6A O 0.3347(2) 0.1442(2) 0.63319(8)
O7A O 0.1527(2) 0.2110(2) 0.54109(9)
O8_2 O -0.1591(2) 1.1969(2) 0.22597(8)
O9_2 O -0.2566(2) 1.0109(2) 0.18653(9)
O10_2 O -0.1225(2) 0.9602(3) 0.28329(10)
O11_2 O 0.6058(2) 1.9909(2) 0.29484(8)
O11_3 O -0.3942(2) 0.9909(2) 0.29484(8)
O12A O 1.2730(2) 0.8057(2) 0.66583(8)
O12_2 O 0.7270(2) 1.1943(2) 0.33417(8)
O13_2 O -0.5629(2) 1.2562(2) 0.30610(9)
O14_2 O 0.5631(2) 1.3827(2) 0.24529(9)
O14_3 O -0.4369(2) 1.3827(2) 0.24529(9)
O15_2 O 0.4878(2) 1.2059(2) 0.19591(8)
O15_3 O -0.5122(2) 1.2059(2) 0.19591(8)
O16_2 O 0.3947(2) 1.3553(2) 0.12996(8)
O16_3 O 0.3947(2) 0.3553(2) 0.12996(8)
O17_2 O -0.2072(2) 1.2660(2) 0.14383(8)
O17_3 O 0.7928(2) 0.2660(2) 0.14383(8)
O17_4 O 1.7928(2) 1.2660(2) 0.14383(8)
O18A O 0.3556(2) -0.1540(2) -0.08427(8)
O18_2 O 1.6444(2) 1.1540(2) 0.08427(8)
O19A O 0.4945(2) -0.3098(2) -0.02836(8)
O19_2 O 1.5055(2) 1.3098(2) 0.02836(8)
O20A O 1.25615(19) 0.6282(2) -0.02814(8)
O20_2 O 1.74385(19) 1.3718(2) 0.02814(8)
O21A O 1.3024(2) 0.4682(2) -0.07863(9)
O21_2 O 1.6976(2) 1.5318(2) 0.07863(9)
O22_2 O 1.4166(2) 1.5845(2) 0.05888(8)
O23_2 O 0.5367(2) 1.5023(2) 0.16992(8)
O23_3 O 1.5367(2) 1.5023(2) 0.16992(8)
C1A C 0.4887(3) 0.2471(3) 0.50066(13)
C2A C 0.4948(3) 0.3790(3) 0.50065(13)
C3A C 0.4714(3) 0.4457(3) 0.54499(13)
H2A H 0.4534 0.4081 0.5757
C4A C 0.5256(3) 0.4325(3) 0.45576(13)
H3A H 0.5443 0.3875 0.4261
C5A C 0.6751(3) 0.9153(3) 0.57548(12)
C6_2 C 0.6301(3) 1.8840(3) 0.31936(12)
C7_2 C 0.6178(3) 1.7750(3) 0.29240(12)
C8_2 C 0.6367(3) 1.6590(3) 0.31889(13)
H4_2 H 0.6611 1.6445 0.3535
C9_2 C 0.6199(3) 1.5607(3) 0.29498(12)
H5_2 H 0.6351 1.4802 0.3129
C10_2 C 0.5782(3) 1.8006(3) 0.24077(12)
H6_2 H 0.5611 1.8817 0.2230
C11_2 C 0.5648(3) 1.7014(3) 0.21631(12)
H7_2 H 0.5456 1.7137 0.1813
C12A C 1.2113(3) 0.8775(3) 0.62640(11)
C13A C 1.0752(3) 0.8785(3) 0.61147(12)
C14A C 1.0002(3) 0.9574(4) 0.56928(13)
H8A H 1.0361 1.0061 0.5489
C15A C 0.8729(3) 0.9658(3) 0.55665(12)
H9A H 0.8240 1.0181 0.5276
C16A C 0.8186(3) 0.8950(3) 0.58790(11)
C17A C 0.8907(3) 0.8153(3) 0.63049(12)
H10A H 0.8531 0.7687 0.6513
C18A C 1.0214(3) 0.8055(4) 0.64197(13)
H11A H 1.0725 0.7501 0.6701
C19_2 C 0.5798(3) 1.5876(3) 0.24341(12)
C20_2 C 0.5599(3) 1.4813(3) 0.21725(13)
C21_2 C -0.1296(3) 1.2338(3) 0.18335(13)
C22_2 C 0.0070(3) 1.2410(3) 0.17774(12)
C23_2 C 0.3873(3) 1.2765(3) 0.16444(12)
C24_2 C 0.2587(3) 1.2595(3) 0.16868(11)
C25_2 C 0.2265(3) 1.2065(4) 0.21418(13)
H12_2 H 0.2891 1.1758 0.2417
C26_2 C 0.0998(3) 1.1994(4) 0.21868(13)
H13_2 H 0.0776 1.1664 0.2496
C27_2 C 0.0413(3) 1.2887(4) 0.13246(13)
H14_2 H -0.0183 1.3135 0.1042
C28_2 C 0.1644(3) 1.3006(4) 0.12828(14)
H15_2 H 0.1839 1.3369 0.0976
C29A C 0.4376(3) -0.1920(3) -0.04726(12)
C30A C 0.4698(3) -0.0922(3) -0.02271(12)
C31A C 0.4171(3) 0.0382(3) -0.04331(13)
H16A H 0.3622 0.0647 -0.0729
C32A C 0.5558(3) -0.1311(3) 0.02084(12)
H17A H 0.5949 -0.2195 0.0348
C33A C 1.2303(3) 0.5395(3) -0.04334(12)
C34A C 1.1160(3) 0.5135(3) -0.02007(12)
C35A C 1.0785(3) 0.4244(4) -0.03816(13)
H18A H 1.1304 0.3740 -0.0647
C36A C 1.0318(3) 0.5936(4) 0.01894(14)
H19A H 1.0518 0.6578 0.0313
C37A C 0.0830(4) 0.3186(4) 0.55921(14)
H20A H 0.1244 0.3421 0.5845
C38A C -0.1201(4) 0.3713(5) 0.50712(18)
H21A H -0.0581 0.2867 0.4943
H22A H -0.2002 0.3664 0.5226
H23A H -0.1506 0.4400 0.4793
C39A C -0.1237(5) 0.5316(5) 0.56936(19)
H24A H -0.0633 0.5405 0.5932
H25A H -0.1539 0.6046 0.5432
H26A H -0.2041 0.5329 0.5871
C40_2 C 0.0822(5) 0.7712(5) 0.34956(18)
H27_2 H -0.0156 0.7938 0.3509
H28_2 H 0.1084 0.7955 0.3802
H29_2 H 0.1368 0.6767 0.3469
C41_2 C 0.0012(4) 0.9284(4) 0.27538(17)
H30_2 H 0.0234 0.9669 0.2459
C42_2 C 0.2472(5) 0.8227(7) 0.2956(3)
H31_2 H 0.2468 0.8777 0.2654
H32_2 H 0.3069 0.7303 0.2902
H33_2 H 0.2816 0.8469 0.3243
N1A N -0.0465(3) 0.4032(3) 0.54539(12)
N2_2 N 0.1072(3) 0.8422(3) 0.30600(13)
Ho1A Ho 0.380870(13) 0.035330(14) 0.560290(5)
Ho1A_2 Ho 0.380870(13) 1.035330(14) 0.560290(5)
Ho1_2 Ho -0.380870(13) 0.964670(14) 0.439710(5)
Ho1_3 Ho 0.619130(13) -0.035330(14) 0.439710(5)
Ho1A_3 Ho 1.380870(13) 1.035330(14) 0.560290(5)
Ho1_4 Ho 0.619130(13) 1.964670(14) 0.439710(5)
Ho2_2 Ho -0.344180(14) 1.153840(14) 0.258200(6)
Ho2_3 Ho 0.655820(14) 0.153840(14) 0.258200(6)
Ho2_4 Ho 1.655820(14) 1.153840(14) 0.258200(6)
Ho2A Ho 1.344180(14) 0.846160(14) 0.741800(6)
Ho2_5 Ho 0.655820(14) 2.153840(14) 0.258200(6)
Ho3_2 Ho 1.588600(13) 1.382730(14) 0.100330(5)
Ho3_3 Ho 0.588600(13) 1.382730(14) 0.100330(5)
Ho3A Ho 0.411400(13) -0.382730(14) -0.100330(5)
Ho3A_2 Ho 1.411400(13) 0.617270(14) -0.100330(5)
Ho3_4 Ho -0.411400(13) 1.382730(14) 0.100330(5)
O24 O 0.0094(3) 0.9309(3) 0.15315(11)
C43 C 0.0143(4) 0.9824(5) 0.11032(17)
H34 H -0.0700 1.0316 0.0926
C44 C 0.2628(5) 0.9037(6) 0.1149(2)
H35 H 0.2519 0.8581 0.1461
H36 H 0.2939 0.9673 0.1228
H37 H 0.3309 0.8397 0.0936
C45 C 0.1281(5) 1.0426(6) 0.03880(18)
H38 H 0.0360 1.0824 0.0238
H39 H 0.1938 0.9799 0.0165
H40 H 0.1548 1.1113 0.0434
N3 N 0.1274(3) 0.9742(4) 0.08756(14)
O25 O -0.0502(7) 0.6180(12) 0.2416(6)
H1 H -0.0558 0.5542 0.2571
C46 C 0.0682(5) 0.5816(6) 0.2253(2)
H41 H 0.0435 0.6262 0.1910
H42 H 0.0901 0.4897 0.2205
C47 C 0.1962(8) 0.5652(12) 0.2265(4)
H43 H 0.2164 0.6022 0.1947
H44 H 0.2601 0.4714 0.2312
H45 H 0.2064 0.6100 0.2544
O26 O 0.1766(6) 0.4662(7) 0.2979(2)
loop_
_geom_bond_atom_site_label_1
_geom_bond_atom_site_label_2
_geom_bond_site_symmetry_1
_geom_bond_site_symmetry_2
O1 C1 1_555 1_555
O2 C1 1_555 1_555
O3 C5 1_555 1_555
O4 C5 1_555 1_555
O5 C12 1_555 1_555
O6 C6 1_555 1_555
O7 C37 1_555 1_555
O8 C21 1_555 1_555
O9 Ho2 1_555 1_555
O10 C41 1_555 1_555
O11 C6 1_555 1_555
O12 C12 1_555 1_555
O13 Ho2 1_555 1_555
O14 C20 1_555 1_555
O15 C23 1_555 1_555
O16 C23 1_555 1_555
O17 C21 1_555 1_555
O18 C29 1_555 1_555
O19 C29 1_555 1_555
O20 C33 1_555 1_555
O21 C33 1_555 1_555
O22 Ho3 1_555 1_555
O23 C20 1_555 1_555
O24 C43 1_555 1_555
O25 H1 1_555 1_555
C1 C2 1_555 1_555
C2 C3 1_555 1_555
C3 H2 1_555 1_555
C4 C2 1_555 1_555
H3 C4 1_555 1_555
C5 C16 1_555 1_555
C6 C7 1_555 1_555
C7 C8 1_555 1_555
C8 H4 1_555 1_555
C9 C8 1_555 1_555
H5 C9 1_555 1_555
C10 C7 1_555 1_555
H6 C10 1_555 1_555
C11 C10 1_555 1_555
H7 C11 1_555 1_555
C12 C13 1_555 1_555
C13 C14 1_555 1_555
C14 H8 1_555 1_555
C15 C14 1_555 1_555
H9 C15 1_555 1_555
C16 C15 1_555 1_555
C17 C16 1_555 1_555
H10 C17 1_555 1_555
C18 C13 1_555 1_555
H11 C18 1_555 1_555
C19 C9 1_555 1_555
C20 C19 1_555 1_555
C21 C22 1_555 1_555
C22 C26 1_555 1_555
C23 C24 1_555 1_555
C24 C25 1_555 1_555
C25 H12 1_555 1_555
C26 C25 1_555 1_555
H13 C26 1_555 1_555
C27 C22 1_555 1_555
H14 C27 1_555 1_555
C28 C24 1_555 1_555
H15 C28 1_555 1_555
C29 C30 1_555 1_555
C30 C31 1_555 1_555
C31 H16 1_555 1_555
C32 C30 1_555 1_555
H17 C32 1_555 1_555
C33 C34 1_555 1_555
C34 C35 1_555 1_555
C35 H18 1_555 1_555
C36 C34 1_555 1_555
H19 C36 1_555 1_555
C37 H20 1_555 1_555
C38 H21 1_555 1_555
H22 C38 1_555 1_555
H23 C38 1_555 1_555
C39 H24 1_555 1_555
H25 C39 1_555 1_555
H26 C39 1_555 1_555
C40 H27 1_555 1_555
H28 C40 1_555 1_555
H29 C40 1_555 1_555
C41 H30 1_555 1_555
C42 H31 1_555 1_555
H32 C42 1_555 1_555
H33 C42 1_555 1_555
C43 H34 1_555 1_555
C44 H35 1_555 1_555
H36 C44 1_555 1_555
H37 C44 1_555 1_555
C45 H38 1_555 1_555
H39 C45 1_555 1_555
H40 C45 1_555 1_555
C46 O25 1_555 1_555
H41 C46 1_555 1_555
H42 C46 1_555 1_555
C47 C46 1_555 1_555
H43 C47 1_555 1_555
H44 C47 1_555 1_555
H45 C47 1_555 1_555
N1 C37 1_555 1_555
N2 C40 1_555 1_555
N3 C43 1_555 1_555
Ho1 O1 1_555 1_555
Ho2 O8 1_555 1_555
Ho3 O18 1_555 1_555
O1A C1A 1_555 1_555
O2A C1A 1_555 1_555
O2A_2 Ho1 1_555 1_555
O2_2 Ho1A 1_555 1_555
O3A Ho1 1_555 1_555
O3_2 Ho1A 1_555 1_555
O3A_2 Ho1A 1_555 1_555
O4A C5A 1_555 1_555
O4A_2 Ho1A 1_555 1_555
O5A C12A 1_555 1_555
O5_2 Ho1 1_555 1_555
O5A_2 Ho1A 1_555 1_555
O6_2 C6_2 1_555 1_555
O6A Ho1A 1_555 1_555
O7A C37A 1_555 1_555
O8_2 C21_2 1_555 1_555
O9_2 Ho2_2 1_555 1_555
O10_2 C41_2 1_555 1_555
O11_2 C6_2 1_555 1_555
O11_3 Ho2_2 1_555 1_555
O12A C12A 1_555 1_555
O12_2 Ho2 1_555 1_555
O13_2 Ho2_2 1_555 1_555
O14_2 Ho2 1_555 1_555
O14_3 Ho2_2 1_555 1_555
O15_2 Ho2 1_555 1_555
O15_3 Ho2_2 1_555 1_555
O16_2 C23_2 1_555 1_555
O16_3 Ho3 1_555 1_555
O17_2 C21_2 1_555 1_555
O17_3 Ho3 1_555 1_555
O17_4 Ho3_2 1_555 1_555
O18A C29A 1_555 1_555
O18_2 Ho3_2 1_555 1_555
O19A C29A 1_555 1_555
O19_2 Ho3_2 1_555 1_555
O20A C33A 1_555 1_555
O20_2 Ho3_2 1_555 1_555
O21A C33A 1_555 1_555
O21_2 Ho3_2 1_555 1_555
O22_2 Ho3_2 1_555 1_555
O23_2 C20_2 1_555 1_555
O23_3 Ho3_2 1_555 1_555
C1A C2A 1_555 1_555
C2A C3A 1_555 1_555
C3A C4 1_555 1_555
H2A C3A 1_555 1_555
C4A C3 1_555 1_555
H3A C4A 1_555 1_555
C5A O3A 1_555 1_555
C6_2 C7_2 1_555 1_555
C7_2 C8_2 1_555 1_555
C8_2 H4_2 1_555 1_555
C9_2 C8_2 1_555 1_555
H5_2 C9_2 1_555 1_555
C10_2 C7_2 1_555 1_555
H6_2 C10_2 1_555 1_555
C11_2 C10_2 1_555 1_555
H7_2 C11_2 1_555 1_555
C12A C13A 1_555 1_555
C13A C14A 1_555 1_555
C14A H8A 1_555 1_555
C15A C14A 1_555 1_555
H9A C15A 1_555 1_555
C16A C5A 1_555 1_555
C17A C16A 1_555 1_555
H10A C17A 1_555 1_555
C18A C13A 1_555 1_555
H11A C18A 1_555 1_555
C19_2 C9_2 1_555 1_555
C20_2 O14_2 1_555 1_555
C21_2 C22_2 1_555 1_555
C22_2 C26_2 1_555 1_555
C23_2 O15_2 1_555 1_555
C24_2 C23_2 1_555 1_555
C25_2 C24_2 1_555 1_555
H12_2 C25_2 1_555 1_555
C26_2 C25_2 1_555 1_555
H13_2 C26_2 1_555 1_555
C27_2 C22_2 1_555 1_555
H14_2 C27_2 1_555 1_555
C28_2 C24_2 1_555 1_555
H15_2 C28_2 1_555 1_555
C29A C30A 1_555 1_555
C30A C31A 1_555 1_555
C31A C32 1_555 1_555
H16A C31A 1_555 1_555
C32A C31 1_555 1_555
H17A C32A 1_555 1_555
C33A C34A 1_555 1_555
C34A C35A 1_555 1_555
C35A C36 1_555 1_555
H18A C35A 1_555 1_555
C36A C35 1_555 1_555
H19A C36A 1_555 1_555
C37A H20A 1_555 1_555
C38A H21A 1_555 1_555
H22A C38A 1_555 1_555
H23A C38A 1_555 1_555
C39A H24A 1_555 1_555
H25A C39A 1_555 1_555
H26A C39A 1_555 1_555
C40_2 H27_2 1_555 1_555
H28_2 C40_2 1_555 1_555
H29_2 C40_2 1_555 1_555
C41_2 H30_2 1_555 1_555
C42_2 H31_2 1_555 1_555
H32_2 C42_2 1_555 1_555
H33_2 C42_2 1_555 1_555
N1A C37A 1_555 1_555
N2_2 C40_2 1_555 1_555
Ho1A O1A 1_555 1_555
Ho1A_2 O2 1_555 1_555
Ho1_2 O5 1_555 1_555
Ho1_3 O2A 1_555 1_555
Ho1A_3 O5A 1_555 1_555
Ho1_4 O6_2 1_555 1_555
Ho2_2 O12 1_555 1_555
Ho2_3 O14 1_555 1_555
Ho2_4 O15 1_555 1_555
Ho2A O12A 1_555 1_555
Ho2_5 O11_2 1_555 1_555
Ho3_2 O16 1_555 1_555
Ho3_3 O17 1_555 1_555
Ho3A O18A 1_555 1_555
Ho3A_2 O20A 1_555 1_555
Ho3_4 O17_2 1_555 1_555
O3 Ho1 1_555 1_555
O3 Ho1A_2 1_555 1_555
O4 Ho1 1_555 1_555
O6 Ho1 1_555 1_555
O7 Ho1 1_555 1_555
O10 Ho2 1_555 1_555
O11 Ho2 1_555 1_555
O19 Ho3 1_555 1_555
O20 Ho3 1_555 1_555
O21 Ho3 1_555 1_555
O23 Ho3 1_555 1_555
C11 C19 1_555 1_555
C17 C18 1_555 1_555
C27 C28 1_555 1_555
C38 N1 1_555 1_555
C39 N1 1_555 1_555
C41 N2 1_555 1_555
C42 N2 1_555 1_555
C44 N3 1_555 1_555
C45 N3 1_555 1_555
O3A Ho1A_2 1_555 1_555
O3_2 Ho1_3 1_555 1_555
O3A_2 Ho1_3 1_555 1_555
O4A Ho1A_2 1_555 1_555
O7A Ho1A 1_555 1_555
O8_2 Ho2_2 1_555 1_555
O10_2 Ho2_2 1_555 1_555
O16_2 Ho3_3 1_555 1_555
O19A Ho3A 1_555 1_555
O21A Ho3A_2 1_555 1_555
O23_2 Ho3_3 1_555 1_555
C2A C4A 1_555 1_555
C11_2 C19_2 1_555 1_555
C15A C16A 1_555 1_555
C17A C18A 1_555 1_555
C19_2 C20_2 1_555 1_555
C27_2 C28_2 1_555 1_555
C30A C32A 1_555 1_555
C34A C36A 1_555 1_555
C38A N1A 1_555 1_555
C39A N1A 1_555 1_555
C41_2 N2_2 1_555 1_555
C42_2 N2_2 1_555 1_555

#END
