
#######################################################################
#
#                 Cambridge Crystallographic Data Centre
#                                CCDC 
#
#######################################################################
#
# If this CIF has been generated from an entry in the Cambridge 
# Structural Database, then it will include bibliographic, chemical, 
# crystal, experimental, refinement or atomic coordinate data resulting 
# from the CCDC's data processing and validation procedures.
#
#######################################################################

data_UCIBUF
_symmetry_cell_setting           orthorhombic
_symmetry_space_group_name_H-M   'P 21 21 21'
_symmetry_Int_Tables_number      19
_space_group_name_Hall           'P 2ac 2ab'
loop_
_symmetry_equiv_pos_site_id
_symmetry_equiv_pos_as_xyz
1 x,y,z
2 1/2-x,-y,1/2+z
3 1/2+x,1/2-y,-z
4 -x,1/2+y,1/2-z
_cell_length_a                   8.8660(18)
_cell_length_b                   18.597(4)
_cell_length_c                   28.241(6)
_cell_angle_alpha                90
_cell_angle_beta                 90
_cell_angle_gamma                90
_cell_volume                     4656.4
loop_
_atom_site_label
_atom_site_type_symbol
_atom_site_fract_x
_atom_site_fract_y
_atom_site_fract_z
C1 C 0.5855(7) 0.1125(4) 0.6954(3)
C2 C 0.7098(9) 0.1158(4) 0.7334(3)
C3 C 0.4374(8) 0.3727(4) 0.7520(3)
C4 C 0.4732(9) 0.3501(4) 0.8036(3)
C5 C 0.3572(8) 0.1743(4) 0.6726(3)
C6 C 0.2593(8) 0.1147(4) 0.6796(3)
H1 H 0.2958 0.0724 0.6929
C7 C 0.1142(10) 0.1199(5) 0.6668(3)
H2 H 0.0514 0.0805 0.6717
C8 C 0.0525(9) 0.1821(5) 0.6464(3)
C9 C -0.1020(9) 0.1884(5) 0.6356(3)
H3 H -0.1666 0.1500 0.6415
C10 C -0.1564(10) 0.2489(6) 0.6170(4)
H4 H -0.2582 0.2515 0.6092
C11 C -0.0617(9) 0.3101(5) 0.6086(3)
H5 H -0.1020 0.3525 0.5964
C12 C 0.0917(10) 0.3052(5) 0.6189(3)
H6 H 0.1545 0.3441 0.6127
C13 C 0.1527(9) 0.2419(4) 0.6386(3)
C14 C 0.3084(8) 0.2336(4) 0.6511(3)
C15 C 0.4778(9) 0.3390(4) 0.6709(3)
C16 C 0.5722(9) 0.3966(4) 0.6568(3)
H7 H 0.6141 0.4259 0.6800
C17 C 0.6031(10) 0.4102(5) 0.6115(3)
H8 H 0.6662 0.4481 0.6031
C18 C 0.5369(10) 0.3650(5) 0.5758(3)
C19 C 0.5721(13) 0.3738(8) 0.5250(4)
H9 H 0.6355 0.4110 0.5155
C20 C 0.5149(16) 0.3295(10) 0.4926(4)
H10 H 0.5384 0.3361 0.4608
C21 C 0.4179(12) 0.2722(6) 0.5063(3)
H11 H 0.3765 0.2412 0.4839
C22 C 0.3879(11) 0.2643(6) 0.5529(3)
H12 H 0.3251 0.2265 0.5616
C23 C 0.4424(8) 0.3074(4) 0.5886(3)
C24 C 0.4136(8) 0.2945(4) 0.6382(3)
C25 C 0.0747(15) 0.1403(8) 0.7992(6)
H13 H 0.0588 0.1235 0.7675
H14 H -0.0182 0.1588 0.8117
H15 H 0.1090 0.1012 0.8187
C26 C 0.219(2) 0.2223(13) 0.8592(6)
H16 H 0.2904 0.2597 0.8662
H17 H 0.2505 0.1786 0.8744
H18 H 0.1214 0.2359 0.8706
C27 C 1.1090(14) -0.1740(7) 0.7584(4)
H19 H 1.0888 -0.2186 0.7426
H20 H 1.1441 -0.1835 0.7900
H21 H 1.1848 -0.1478 0.7413
C28 C 1.025(3) -0.0493(7) 0.7912(6)
H22 H 0.9494 -0.0132 0.7966
H23 H 1.1045 -0.0295 0.7723
H24 H 1.0647 -0.0654 0.8209
C29 C 1.131(2) -0.0643(12) 0.6151(14)
H25 H 1.1461 -0.0877 0.6450
H26 H 1.1580 -0.0144 0.6178
H27 H 1.1936 -0.0867 0.5916
C30 C 0.976(3) -0.0130(13) 0.5472(7)
H28 H 0.8866 -0.0078 0.5282
H29 H 1.0547 -0.0339 0.5285
H30 H 1.0071 0.0333 0.5585
Cu1 Cu 0.54200(10) 0.23360(5) 0.74857(4)
Mn1 Mn 0.72846(14) -0.02753(6) 0.68897(5)
N1 N 0.5044(7) 0.1712(3) 0.6952(3)
N2 N 0.4718(7) 0.3227(3) 0.7206(2)
O1 O 0.7111(6) 0.1659(3) 0.76190(19)
O2 O 0.8038(6) 0.0649(3) 0.7320(2)
O4 O 0.5734(6) 0.0573(3) 0.6704(2)
O6 O 0.5491(8) 0.2909(3) 0.8086(2)
O8 O 0.4227(8) 0.3861(3) 0.8355(2)
O10 O 0.3858(6) 0.4344(3) 0.7461(2)
O11 O 0.3566(8) 0.1714(4) 0.7866(3)
O12 O 0.9125(7) -0.0965(3) 0.7117(3)
O13 O 0.8460(8) -0.0164(4) 0.6245(3)
S1 S 0.2115(3) 0.20893(15) 0.79893(13)
S2 S 0.9429(3) -0.12268(14) 0.76109(10)
S3 S 0.9346(8) -0.0718(5) 0.5978(2)
Mn1C Mn 0.27154(14) 0.47247(6) 0.81103(5)
O8C O 0.5773(8) -0.1139(3) 0.6645(2)
O10C O 0.6142(6) -0.0656(3) 0.7539(2)
C31 C 0.524(4) 0.082(2) 0.4657(5)
H31 H 0.5646 0.1293 0.4618
H32 H 0.4384 0.0758 0.4453
H33 H 0.5999 0.0470 0.4575
C32 C 0.500(5) -0.0258(9) 0.5233(12)
H34 H 0.4911 -0.0458 0.5545
H35 H 0.6000 -0.0349 0.5114
H36 H 0.4275 -0.0477 0.5027
O14 O 0.6141(14) 0.0929(9) 0.5510(4)
S4 S 0.4681(7) 0.0690(3) 0.5257(3)
O3 O 0.8089(17) -0.0554(8) 0.3992(7)
O5 O 0.4105(17) 0.2705(12) 0.9731(4)
O7 O 0.8213(13) 0.2478(7) 0.8645(4)
O9 O 0.351(2) 0.0212(9) 0.7708(7)
loop_
_geom_bond_atom_site_label_1
_geom_bond_atom_site_label_2
_geom_bond_site_symmetry_1
_geom_bond_site_symmetry_2
C1 C2 1_555 1_555
C2 O1 1_555 1_555
C3 C4 1_555 1_555
C4 O6 1_555 1_555
C5 C6 1_555 1_555
C6 H1 1_555 1_555
C7 C6 1_555 1_555
H2 C7 1_555 1_555
C8 C7 1_555 1_555
C9 C8 1_555 1_555
H3 C9 1_555 1_555
C10 C9 1_555 1_555
H4 C10 1_555 1_555
C11 C10 1_555 1_555
H5 C11 1_555 1_555
C12 C11 1_555 1_555
H6 C12 1_555 1_555
C13 C8 1_555 1_555
C14 C5 1_555 1_555
C15 C16 1_555 1_555
C16 H7 1_555 1_555
C17 C16 1_555 1_555
H8 C17 1_555 1_555
C18 C17 1_555 1_555
C19 C18 1_555 1_555
H9 C19 1_555 1_555
C20 C19 1_555 1_555
H10 C20 1_555 1_555
C21 C20 1_555 1_555
H11 C21 1_555 1_555
C22 C21 1_555 1_555
H12 C22 1_555 1_555
C23 C18 1_555 1_555
C24 C14 1_555 1_555
C25 H13 1_555 1_555
H14 C25 1_555 1_555
H15 C25 1_555 1_555
C26 H16 1_555 1_555
H17 C26 1_555 1_555
H18 C26 1_555 1_555
C27 H19 1_555 1_555
H20 C27 1_555 1_555
H21 C27 1_555 1_555
C28 H22 1_555 1_555
H23 C28 1_555 1_555
H24 C28 1_555 1_555
C29 H25 1_555 1_555
H26 C29 1_555 1_555
H27 C29 1_555 1_555
C30 H28 1_555 1_555
H29 C30 1_555 1_555
H30 C30 1_555 1_555
C31 H31 1_555 1_555
H32 C31 1_555 1_555
H33 C31 1_555 1_555
C32 H34 1_555 1_555
H35 C32 1_555 1_555
H36 C32 1_555 1_555
Cu1 N1 1_555 1_555
Mn1 O2 1_555 1_555
N1 C1 1_555 1_555
N2 C3 1_555 1_555
O1 Cu1 1_555 1_555
O2 C2 1_555 1_555
O4 C1 1_555 1_555
O6 Cu1 1_555 1_555
O8 C4 1_555 1_555
O10 C3 1_555 1_555
O11 Cu1 1_555 1_555
O12 Mn1 1_555 1_555
O13 Mn1 1_555 1_555
O14 S4 1_555 1_555
S1 C25 1_555 1_555
S2 C27 1_555 1_555
S3 C29 1_555 1_555
S4 C31 1_555 1_555
Mn1C O8 1_555 1_555
O8C Mn1 1_555 1_555
O10C Mn1 1_555 1_555
C5 N1 1_555 1_555
C12 C13 1_555 1_555
C13 C14 1_555 1_555
C15 C24 1_555 1_555
C15 N2 1_555 1_555
C22 C23 1_555 1_555
C23 C24 1_555 1_555
C26 S1 1_555 1_555
C28 S2 1_555 1_555
C30 S3 1_555 1_555
C32 S4 1_555 1_555
Cu1 N2 1_555 1_555
Mn1 O4 1_555 1_555
O10 Mn1C 1_555 1_555
O11 S1 1_555 1_555
O12 S2 1_555 1_555
O13 S3 1_555 1_555

#END
