
#######################################################################
#
#                 Cambridge Crystallographic Data Centre
#                                CCDC 
#
#######################################################################
#
# If this CIF has been generated from an entry in the Cambridge 
# Structural Database, then it will include bibliographic, chemical, 
# crystal, experimental, refinement or atomic coordinate data resulting 
# from the CCDC's data processing and validation procedures.
#
#######################################################################

data_UCIJOG
_symmetry_cell_setting           triclinic
_symmetry_space_group_name_H-M   'P -1'
_symmetry_Int_Tables_number      2
_space_group_name_Hall           '-P 1'
loop_
_symmetry_equiv_pos_site_id
_symmetry_equiv_pos_as_xyz
1 x,y,z
2 -x,-y,-z
_cell_length_a                   10.070(1)
_cell_length_b                   15.755(2)
_cell_length_c                   19.134(2)
_cell_angle_alpha                68.085(2)
_cell_angle_beta                 76.940(2)
_cell_angle_gamma                84.169(2)
_cell_volume                     2742.96
loop_
_atom_site_label
_atom_site_type_symbol
_atom_site_fract_x
_atom_site_fract_y
_atom_site_fract_z
S1 S 0.31330(6) 0.59039(4) 0.76229(3)
S2 S 0.39390(6) 0.79950(4) 1.01361(3)
S3 S 1.02863(6) 0.47764(4) 1.33021(4)
S4 S 0.93306(6) 0.23264(4) 1.12072(3)
S5 S 0.58701(6) 0.88142(4) 0.48010(3)
S6 S -0.26761(6) 1.12186(4) 0.68085(3)
O1 O 0.5839(2) 0.51363(1) 0.8716(1)
O2 O 0.1717(2) 0.56862(1) 0.7956(1)
O3 O 0.3377(2) 0.67552(1) 0.6983(1)
O4 O 0.6630(2) 0.63466(1) 0.9857(1)
O5 O 0.2630(2) 0.76749(1) 1.0614(1)
O6 O 0.3906(2) 0.88904(1) 0.9548(1)
O7 O 1.2874(2) 0.31078(1) 1.2970(1)
O8 O 1.0270(2) 0.56852(1) 1.2731(1)
O9 O 0.8970(2) 0.44805(1) 1.3789(1)
O10 O 1.2340(2) 0.1739(2) 1.2051(1)
O11 O 0.9241(2) 0.3215(1) 1.0633(1)
O12 O 0.8035(2) 0.1921(2) 1.1623(1)
O13 O 0.9190(2) 0.8497(1) 0.5326(1)
O14 O 0.4789(2) 0.8278(1) 0.5380(1)
O15 O 0.5424(2) 0.9651(1) 0.4264(1)
O16 O 0.0095(2) 0.9653(1) 0.6454(1)
O17 O -0.3945(2) 1.0853(1) 0.7314(1)
O18 O -0.2797(2) 1.2114(1) 0.6241(1)
O19 O 0.6933(2) 0.4310(1) 1.0084(1)
O20 O 0.8678(2) 0.5716(1) 0.8737(1)
O21 O 1.5107(2) 0.2486(1) 1.1840(1)
O22 O 1.3924(2) 0.1076(1) 1.3258(1)
O23 O 0.0650(2) 0.7679(1) 0.6677(1)
O24 O 0.1944(2) 0.9145(1) 0.5190(1)
O25 O 0.2669(2) 0.7090(1) 0.5433(1)
O26 O 0.9394(2) 0.3719(1) 0.8945(1)
O27 O 0.3890(2) 0.9568(1) 0.7912(1)
O28 O 0.8860(2) 0.5256(1) 1.0447(1)
O29 O 0.2931(2) 0.8861(1) 0.6656(1)
N1 N 0.3946(2) 0.5862(1) 0.8274(1)
N2 N 0.4706(2) 0.7253(1) 0.9776(1)
N3 N 1.0976(2) 0.4043(2) 1.2919(1)
N4 N 1.0276(2) 0.2347(2) 1.1771(1)
N5 N 0.7011(2) 0.8998(1) 0.5191(1)
N6 N -0.1890(2) 1.0512(2) 0.6418(1)
C1 C 0.5009(2) 0.5255(2) 0.8303(1)
C2 C 0.5071(2) 0.4730(2) 0.7787(1)
C3 C 0.6013(3) 0.4064(2) 0.7680(2)
C4 C 0.5878(3) 0.3689(2) 0.7151(2)
C5 C 0.4833(3) 0.3962(2) 0.6752(2)
C6 C 0.3874(3) 0.4628(2) 0.6860(2)
C7 C 0.4039(2) 0.5006(2) 0.7379(1)
C8 C 0.5863(2) 0.6924(2) 1.0043(1)
C9 C 0.6121(2) 0.7322(2) 1.0596(1)
C10 C 0.7188(3) 0.7132(2) 1.0981(2)
C11 C 0.7187(3) 0.7581(2) 1.1488(2)
C12 C 0.6155(3) 0.8199(2) 1.1599(2)
C13 C 0.5098(3) 0.8408(2) 1.1204(1)
C14 C 0.5104(2) 0.7950(2) 1.0712(1)
C15 C 1.2142(3) 0.3677(2) 1.3175(2)
C16 C 1.2454(3) 0.4036(2) 1.3740(1)
C17 C 1.3541(3) 0.3806(2) 1.4111(2)
C18 C 1.3616(3) 0.4228(2) 1.4618(2)
C19 C 1.2640(3) 0.4863(2) 1.4753(2)
C20 C 1.1552(3) 0.5110(2) 1.4374(2)
C21 C 1.1484(2) 0.4678(2) 1.3873(1)
C22 C 1.1427(3) 0.1827(2) 1.1699(2)
C23 C 1.1491(2) 0.1367(2) 1.1136(1)
C24 C 1.2503(3) 0.0790(2) 1.0937(2)
C25 C 1.2348(3) 0.0447(2) 1.0390(2)
C26 C 1.1204(3) 0.0674(2) 1.0059(2)
C27 C 1.0177(3) 0.1250(2) 1.0260(2)
C28 C 1.0356(2) 0.1590(2) 1.0805(1)
C29 C 0.8178(2) 0.8516(2) 0.5060(1)
C30 C 0.8139(2) 0.8019(2) 0.4534(1)
C31 C 0.9161(3) 0.7504(2) 0.4256(2)
C32 C 0.8902(3) 0.7141(2) 0.3744(2)
C33 C 0.7657(3) 0.7288(2) 0.3517(2)
C34 C 0.6613(3) 0.7799(2) 0.3803(2)
C35 C 0.6892(2) 0.8154(2) 0.4316(1)
C36 C -0.0706(2) 1.0205(2) 0.6662(1)
C37 C -0.0432(2) 1.0604(2) 0.7211(1)
C38 C 0.0671(3) 1.0441(2) 0.7561(1)
C39 C 0.0703(3) 1.0898(2) 0.8056(2)
C40 C -0.0346(3) 1.1493(2) 0.8195(2)
C41 C -0.1458(3) 1.1664(2) 0.7841(1)
C42 C -0.1472(2) 1.1207(2) 0.7354(1)
Li1 Li 0.6763(4) 0.5515(3) 0.9290(2)
Li2 Li 1.3319(4) 0.2201(3) 1.2546(2)
Li3 Li 0.0160(4) 0.8830(3) 0.5901(2)
Li4 Li 0.2839(4) 0.7859(3) 0.6035(2)
Li5 Li 0.9179(4) 0.4392(3) 0.9704(3)
Li6 Li 0.3788(6) 0.8556(3) 0.7572(3)
H1 H 0.6594 0.3881 1.0017
H2 H 0.6646 0.4299 1.0540
H3 H 0.9016 0.6197 0.8721
H4 H 0.8833 0.5676 0.8294
H5 H 1.5092 0.2473 1.1402
H6 H 1.5391 0.3001 1.1786
H7 H 1.3859 0.1076 1.3709
H8 H 1.3587 0.0596 1.3269
H9 H 0.0283 0.7210 0.6689
H10 H 0.0530 0.7698 0.7125
H11 H 0.2257 0.9647 0.5148
H12 H 0.1973 0.9118 0.4752
H13 H 0.2556 0.7435 0.4987
H14 H 0.1988 0.6743 0.5662
H15 H 0.8729 0.3362 0.9076
H16 H 0.9406 0.4107 0.8493
H17 H 0.3940 0.9357 0.8384
H18 H 0.4593 0.9880 0.7646
H19 H 0.8352 0.5722 1.0285
H20 H 0.8529 0.4948 1.0915
H21 H 0.3327 0.9335 0.6315
H22 H 0.2112 0.9024 0.6790
H23 H 0.6726 0.3870 0.7960
H24 H 0.6518 0.3236 0.7060
H25 H 0.4765 0.3689 0.6395
H26 H 0.3147 0.4811 0.6591
H27 H 0.7898 0.6711 1.0902
H28 H 0.7905 0.7460 1.1762
H29 H 0.6174 0.8486 1.1953
H30 H 0.4404 0.8844 1.1269
H31 H 1.4217 0.3372 1.4020
H32 H 1.4353 0.4078 1.4880
H33 H 1.2713 0.5135 1.5110
H34 H 1.0887 0.5555 1.4456
H35 H 1.3281 0.0634 1.1167
H36 H 1.3032 0.0051 1.0239
H37 H 1.1123 0.0429 0.9687
H38 H 0.9392 0.1404 1.0036
H39 H 1.0013 0.7401 0.4412
H40 H 0.9590 0.6786 0.3543
H41 H 0.7513 0.7036 0.3161
H42 H 0.5756 0.7898 0.3654
H43 H 0.1388 1.0031 0.7469
H44 H 0.1455 1.0800 0.8302
H45 H -0.0303 1.1790 0.8539
H46 H -0.2174 1.2076 0.7930
O12A O 0.1965(2) 0.8079(2) 0.8377(1)
O13_2 O -0.0810(2) 0.8497(1) 0.5326(1)
O21A O 0.4893(2) 0.7514(1) 0.8160(1)
O22A O 0.6076(2) 0.8924(1) 0.6742(1)
O28A O 1.1140(2) 0.4744(1) 0.9553(1)
Li3_2 Li 1.0160(4) 0.8830(3) 0.5901(2)
Li5A Li 1.0821(4) 0.5608(3) 1.0296(3)
Li6A Li 0.6212(6) 0.1444(3) 1.2428(3)
Li6A_2 Li 1.6212(6) 0.1444(3) 1.2428(3)
H5A H 0.4908 0.7527 0.8598
H6A H 0.4609 0.6999 0.8214
H7A H 0.6141 0.8924 0.6291
H8A H 0.6413 0.9404 0.6731
H19A H 1.1648 0.4278 0.9715
H20A H 1.1471 0.5052 0.9085
loop_
_geom_bond_atom_site_label_1
_geom_bond_atom_site_label_2
_geom_bond_site_symmetry_1
_geom_bond_site_symmetry_2
S1 O2 1_555 1_555
S2 O5 1_555 1_555
S3 O8 1_555 1_555
S4 O11 1_555 1_555
S5 O14 1_555 1_555
S6 O17 1_555 1_555
O1 C1 1_555 1_555
O3 S1 1_555 1_555
O4 C8 1_555 1_555
O6 S2 1_555 1_555
O7 C15 1_555 1_555
O9 S3 1_555 1_555
O10 C22 1_555 1_555
O11 Li5 1_555 1_555
O12 S4 1_555 1_555
O13 C29 1_555 1_555
O14 Li4 1_555 1_555
O15 S5 1_555 1_555
O16 C36 1_555 1_555
O18 S6 1_555 1_555
O19 Li1 1_555 1_555
O20 Li1 1_555 1_555
O21 Li2 1_555 1_555
O22 Li2 1_555 1_555
O23 Li3 1_555 1_555
O24 Li3 1_555 1_555
O25 Li4 1_555 1_555
O26 Li5 1_555 1_555
O27 Li6 1_555 1_555
O28 Li5 1_555 1_555
O29 Li4 1_555 1_555
N1 S1 1_555 1_555
N2 S2 1_555 1_555
N3 S3 1_555 1_555
N4 S4 1_555 1_555
N5 S5 1_555 1_555
N6 S6 1_555 1_555
C1 N1 1_555 1_555
C2 C1 1_555 1_555
C3 C2 1_555 1_555
C4 C3 1_555 1_555
C5 C4 1_555 1_555
C6 C5 1_555 1_555
C7 S1 1_555 1_555
C8 N2 1_555 1_555
C9 C8 1_555 1_555
C10 C9 1_555 1_555
C11 C10 1_555 1_555
C12 C11 1_555 1_555
C13 C12 1_555 1_555
C14 S2 1_555 1_555
C15 N3 1_555 1_555
C16 C15 1_555 1_555
C17 C16 1_555 1_555
C18 C17 1_555 1_555
C19 C18 1_555 1_555
C20 C19 1_555 1_555
C21 S3 1_555 1_555
C22 N4 1_555 1_555
C23 C22 1_555 1_555
C24 C23 1_555 1_555
C25 C24 1_555 1_555
C26 C25 1_555 1_555
C27 C26 1_555 1_555
C28 S4 1_555 1_555
C29 N5 1_555 1_555
C30 C29 1_555 1_555
C31 C30 1_555 1_555
C32 C31 1_555 1_555
C33 C32 1_555 1_555
C34 C33 1_555 1_555
C35 S5 1_555 1_555
C36 N6 1_555 1_555
C37 C36 1_555 1_555
C38 C37 1_555 1_555
C39 C38 1_555 1_555
C40 C39 1_555 1_555
C41 C40 1_555 1_555
C42 S6 1_555 1_555
Li1 O1 1_555 1_555
Li2 O7 1_555 1_555
Li3 O16 1_555 1_555
Li4 O3 1_555 1_555
Li5 O19 1_555 1_555
Li6 O29 1_555 1_555
H1 O19 1_555 1_555
H2 O19 1_555 1_555
H3 O20 1_555 1_555
H4 O20 1_555 1_555
H5 O21 1_555 1_555
H6 O21 1_555 1_555
H7 O22 1_555 1_555
H8 O22 1_555 1_555
H9 O23 1_555 1_555
H10 O23 1_555 1_555
H11 O24 1_555 1_555
H12 O24 1_555 1_555
H13 O25 1_555 1_555
H14 O25 1_555 1_555
H15 O26 1_555 1_555
H16 O26 1_555 1_555
H17 O27 1_555 1_555
H18 O27 1_555 1_555
H19 O28 1_555 1_555
H20 O28 1_555 1_555
H21 O29 1_555 1_555
H22 O29 1_555 1_555
H23 C3 1_555 1_555
H24 C4 1_555 1_555
H25 C5 1_555 1_555
H26 C6 1_555 1_555
H27 C10 1_555 1_555
H28 C11 1_555 1_555
H29 C12 1_555 1_555
H30 C13 1_555 1_555
H31 C17 1_555 1_555
H32 C18 1_555 1_555
H33 C19 1_555 1_555
H34 C20 1_555 1_555
H35 C24 1_555 1_555
H36 C25 1_555 1_555
H37 C26 1_555 1_555
H38 C27 1_555 1_555
H39 C31 1_555 1_555
H40 C32 1_555 1_555
H41 C33 1_555 1_555
H42 C34 1_555 1_555
H43 C38 1_555 1_555
H44 C39 1_555 1_555
H45 C40 1_555 1_555
H46 C41 1_555 1_555
O12A Li6 1_555 1_555
O13_2 Li3 1_555 1_555
O21A Li6 1_555 1_555
O22A Li6 1_555 1_555
O28A Li5 1_555 1_555
Li3_2 O13 1_555 1_555
Li5A O28 1_555 1_555
Li6A O12 1_555 1_555
Li6A_2 O21 1_555 1_555
H5A O21A 1_555 1_555
H6A O21A 1_555 1_555
H7A O22A 1_555 1_555
H8A O22A 1_555 1_555
H19A O28A 1_555 1_555
H20A O28A 1_555 1_555
O4 Li1 1_555 1_555
O10 Li2 1_555 1_555
O20 Li5 1_555 1_555
O22 Li6A_2 1_555 1_555
O23 Li4 1_555 1_555
O24 Li4 1_555 1_555
C2 C7 1_555 1_555
C6 C7 1_555 1_555
C9 C14 1_555 1_555
C13 C14 1_555 1_555
C16 C21 1_555 1_555
C20 C21 1_555 1_555
C23 C28 1_555 1_555
C27 C28 1_555 1_555
C30 C35 1_555 1_555
C34 C35 1_555 1_555
C37 C42 1_555 1_555
C41 C42 1_555 1_555
O28A Li5A 1_555 1_555

#END
