
#######################################################################
#
#                 Cambridge Crystallographic Data Centre
#                                CCDC 
#
#######################################################################
#
# If this CIF has been generated from an entry in the Cambridge 
# Structural Database, then it will include bibliographic, chemical, 
# crystal, experimental, refinement or atomic coordinate data resulting 
# from the CCDC's data processing and validation procedures.
#
#######################################################################

data_UCISIJ
_symmetry_cell_setting           monoclinic
_symmetry_space_group_name_H-M   'P 21/n'
_symmetry_Int_Tables_number      14
_space_group_name_Hall           '-P 2yn'
loop_
_symmetry_equiv_pos_site_id
_symmetry_equiv_pos_as_xyz
1 x,y,z
2 1/2-x,1/2+y,1/2-z
3 -x,-y,-z
4 1/2+x,1/2-y,1/2+z
_cell_length_a                   9.2378(2)
_cell_length_b                   22.9315(5)
_cell_length_c                   17.3511(3)
_cell_angle_alpha                90
_cell_angle_beta                 94.206(2)
_cell_angle_gamma                90
_cell_volume                     3665.7
loop_
_atom_site_label
_atom_site_type_symbol
_atom_site_fract_x
_atom_site_fract_y
_atom_site_fract_z
C1 C 1.1852(5) 0.1350(2) 0.3758(3)
C2 C 1.1603(6) 0.1075(2) 0.4458(3)
H1 H 1.1418 0.0668 0.4455
C3 C 1.1612(5) 0.1373(2) 0.5157(3)
C4 C 1.1837(6) 0.1975(2) 0.5143(3)
C5 C 1.2124(6) 0.2252(2) 0.4470(3)
C6 C 1.2161(6) 0.1944(2) 0.3786(3)
C7 C 1.1395(6) 0.1075(2) 0.5923(3)
H2 H 1.2177 0.1217 0.6305
C8 C 0.9953(5) 0.1225(2) 0.6237(3)
C9 C 0.8658(6) 0.1222(2) 0.5769(3)
H3 H 0.8706 0.1166 0.5228
C10 C 0.7305(6) 0.1295(2) 0.6052(3)
C11 C 0.7243(6) 0.1370(2) 0.6840(3)
C12 C 0.8517(6) 0.1409(2) 0.7323(3)
C13 C 0.9856(6) 0.1326(2) 0.7026(3)
C14 C 0.5902(6) 0.1248(2) 0.5534(3)
H4 H 0.5138 0.1465 0.5796
C15 C 0.6023(6) 0.1532(2) 0.4747(3)
C16 C 0.6112(5) 0.1227(2) 0.4058(3)
H5 H 0.6154 0.0813 0.4078
C17 C 0.6141(5) 0.1499(2) 0.3344(3)
C18 C 0.6039(6) 0.2107(2) 0.3330(3)
C19 C 0.5962(7) 0.2424(2) 0.4011(3)
C20 C 0.5992(6) 0.2135(2) 0.4712(3)
C21 C 0.6270(6) 0.1178(2) 0.2583(3)
H6 H 0.5559 0.1362 0.2193
C22 C 0.7778(6) 0.1255(2) 0.2288(3)
C23 C 0.9050(6) 0.1168(2) 0.2754(3)
H7 H 0.8972 0.1098 0.3289
C24 C 1.0432(6) 0.1178(2) 0.2482(3)
C25 C 1.0529(6) 0.1289(2) 0.1694(3)
C26 C 0.9281(6) 0.1398(2) 0.1218(3)
C27 C 0.7921(6) 0.1373(2) 0.1510(3)
C28 C 1.1806(6) 0.1026(2) 0.2987(3)
H8 H 1.2654 0.1162 0.2709
C29 C 1.1505(6) 0.0405(3) 0.5899(3)
H9 H 1.0714 0.0249 0.5553
H10 H 1.1433 0.0248 0.6420
H11 H 1.2439 0.0293 0.5710
C30 C 0.5429(6) 0.0616(2) 0.5480(3)
H12 H 0.6200 0.0382 0.5275
H13 H 0.4544 0.0584 0.5135
H14 H 0.5237 0.0473 0.5995
C31 C 0.5904(6) 0.0532(3) 0.2609(3)
H15 H 0.6613 0.0333 0.2966
H16 H 0.5936 0.0364 0.2091
H17 H 0.4929 0.0482 0.2787
C32 C 1.1933(6) 0.0364(2) 0.3073(3)
H18 H 1.2017 0.0187 0.2564
H19 H 1.1068 0.0212 0.3299
H20 H 1.2797 0.0269 0.3412
O1 O 1.1766(5) 0.22818(17) 0.5821(2)
H21 H 1.1879 0.2639 0.5735
O2 O 1.2408(5) 0.28479(16) 0.4490(2)
H22 H 1.1712 0.3028 0.4260
O3 O 1.2469(4) 0.22265(17) 0.3107(2)
H23 H 1.2709 0.2573 0.3207
O4 O 0.5906(4) 0.14118(19) 0.7136(2)
H24 H 0.6016 0.1453 0.7618
O5 O 0.8363(4) 0.15322(18) 0.8091(2)
H25 H 0.9184 0.1590 0.8319
O6 O 1.1103(4) 0.13717(17) 0.7508(2)
H26 H 1.1109 0.1110 0.7847
O7 O 0.5982(4) 0.23871(17) 0.2628(2)
H27 H 0.6105 0.2747 0.2699
O8 O 0.5791(5) 0.30233(17) 0.3978(2)
H28 H 0.6568 0.3178 0.3859
O9 O 0.5955(5) 0.24468(17) 0.5397(2)
H29 H 0.5734 0.2795 0.5298
O10 O 1.1887(4) 0.12992(17) 0.1409(2)
H30 H 1.1802 0.1258 0.0927
O11 O 0.9475(4) 0.15115(19) 0.0446(2)
H31 H 0.8712 0.1657 0.0234
O12 O 0.6709(4) 0.14957(17) 0.1007(2)
H32 H 0.6546 0.1214 0.0704
Rb1 Rb 0.88099(7) 0.26775(3) 0.63197(3)
Cl1 Cl 0.82135(19) 0.37012(9) 0.48431(9)
O3C O 0.7469(4) 0.27735(17) 0.8107(2)
H23C H 0.7709 0.2427 0.8207
O7C O 1.0982(4) 0.26129(17) 0.7628(2)
H27C H 1.1105 0.2253 0.7699
O10C O 0.6887(4) 0.37008(17) 0.6409(2)
H30C H 0.6802 0.3742 0.5927
O12C O 1.1709(4) 0.35043(17) 0.6007(2)
H32C H 1.1546 0.3786 0.5704
Rb1C Rb 1.38099(7) 0.23225(3) 0.13197(3)
Rb1C_2 Rb 0.38099(7) 0.23225(3) 0.13197(3)
C33 C 0.9270(9) 0.2777(4) 0.3207(5)
H33 H 0.9531 0.2730 0.2673
H34 H 0.8240 0.2880 0.3208
H35 H 0.9448 0.2411 0.3489
O13 O 1.0158(5) 0.3245(2) 0.3586(2)
H36 H 0.9615 0.3484 0.3792
C34 C 0.6723(12) 0.0415(5) -0.0629(6)
H40 H 0.6868 0.0014 -0.0447
H41 H 0.5725 0.0462 -0.0854
H42 H 0.7403 0.0502 -0.1021
O16 O 0.6226(11) 0.0577(4) 0.0080(5)
H44 H 0.5507 0.0371 0.0172
C35 C 1.112(2) 0.0111(8) 0.8670(11)
H45 H 1.0854 -0.0106 0.8193
H46 H 1.0240 0.0202 0.8930
H47 H 1.1773 -0.0126 0.9011
O17 O 1.173(2) 0.0563(8) 0.8512(12)
H51 H 1.2395 0.0489 0.8224
O21 O 1.3443(18) 0.0813(7) 0.7500(10)
O14? O 0.9075(18) 0.2612(7) 0.2274(10)
H37? H 0.6945 0.0033 -0.0398
H38? H 0.7218 0.0456 -0.1106
H39? H 0.5672 0.0451 -0.0746
O15? O 0.709(2) 0.0758(8) -0.0223(12)
H43? H 0.7903 0.0666 -0.0006
H48? H 1.0875 0.0122 0.9210
H49? H 1.0229 0.0065 0.8332
H50? H 1.1770 -0.0218 0.8594
O18? O 1.254(3) 0.0269(13) 0.8926(18)
H52? H 1.2734 0.0602 0.9106
C36? C 1.0540(19) 0.0179(8) 0.8788(11)
H53? H 1.0234 0.0203 0.8236
H54? H 1.0065 0.0489 0.9066
H55? H 1.0265 -0.0201 0.8988
H56? H 1.0247 0.0172 0.8233
H57? H 1.0260 -0.0188 0.9024
H58? H 1.0058 0.0505 0.9031
O19? O 1.0884(13) 0.0691(5) 0.8741(6)
H59? H 1.1078 0.0808 0.9196
O20? O 0.996(3) 0.0715(9) 0.9085(14)
H60? H 0.9268 0.0814 0.8772
loop_
_geom_bond_atom_site_label_1
_geom_bond_atom_site_label_2
_geom_bond_site_symmetry_1
_geom_bond_site_symmetry_2
C1 C2 1_555 1_555
C2 H1 1_555 1_555
C3 C2 1_555 1_555
C4 C3 1_555 1_555
C5 C4 1_555 1_555
C6 C1 1_555 1_555
C7 C3 1_555 1_555
H2 C7 1_555 1_555
C8 C7 1_555 1_555
C9 C8 1_555 1_555
H3 C9 1_555 1_555
C10 C9 1_555 1_555
C11 C10 1_555 1_555
C12 C11 1_555 1_555
C13 C8 1_555 1_555
C14 C10 1_555 1_555
H4 C14 1_555 1_555
C15 C14 1_555 1_555
C16 C15 1_555 1_555
H5 C16 1_555 1_555
C17 C16 1_555 1_555
C18 C17 1_555 1_555
C19 C18 1_555 1_555
C20 C15 1_555 1_555
C21 C17 1_555 1_555
H6 C21 1_555 1_555
C22 C21 1_555 1_555
C23 C22 1_555 1_555
H7 C23 1_555 1_555
C24 C23 1_555 1_555
C25 C24 1_555 1_555
C26 C25 1_555 1_555
C27 C22 1_555 1_555
C28 C1 1_555 1_555
H8 C28 1_555 1_555
C29 C7 1_555 1_555
H9 C29 1_555 1_555
H10 C29 1_555 1_555
H11 C29 1_555 1_555
C30 C14 1_555 1_555
H12 C30 1_555 1_555
H13 C30 1_555 1_555
H14 C30 1_555 1_555
C31 C21 1_555 1_555
H15 C31 1_555 1_555
H16 C31 1_555 1_555
H17 C31 1_555 1_555
C32 C28 1_555 1_555
H18 C32 1_555 1_555
H19 C32 1_555 1_555
H20 C32 1_555 1_555
O1 C4 1_555 1_555
H21 O1 1_555 1_555
O2 C5 1_555 1_555
H22 O2 1_555 1_555
O3 C6 1_555 1_555
H23 O3 1_555 1_555
O4 C11 1_555 1_555
H24 O4 1_555 1_555
O5 C12 1_555 1_555
H25 O5 1_555 1_555
O6 C13 1_555 1_555
H26 O6 1_555 1_555
O7 C18 1_555 1_555
H27 O7 1_555 1_555
O8 C19 1_555 1_555
H28 O8 1_555 1_555
O9 C20 1_555 1_555
H29 O9 1_555 1_555
O10 C25 1_555 1_555
H30 O10 1_555 1_555
O11 C26 1_555 1_555
H31 O11 1_555 1_555
O12 C27 1_555 1_555
H32 O12 1_555 1_555
C33 H33 1_555 1_555
H34 C33 1_555 1_555
H35 C33 1_555 1_555
O13 C33 1_555 1_555
H36 O13 1_555 1_555
C34 H40 1_555 1_555
H41 C34 1_555 1_555
H42 C34 1_555 1_555
O16 C34 1_555 1_555
H44 O16 1_555 1_555
C35 H45 1_555 1_555
H46 C35 1_555 1_555
H47 C35 1_555 1_555
O17 C35 1_555 1_555
H51 O17 1_555 1_555
Rb1 C8 1_555 1_555
Cl1 Rb1 1_555 1_555
O3C Rb1 1_555 1_555
H23C O3C 1_555 1_555
O7C Rb1 1_555 1_555
H27C O7C 1_555 1_555
O10C Rb1 1_555 1_555
H30C O10C 1_555 1_555
O12C Rb1 1_555 1_555
H32C O12C 1_555 1_555
Rb1C O3 1_555 1_555
Rb1C_2 O7 1_555 1_555
C5 C6 1_555 1_555
C9 Rb1 1_555 1_555
C10 Rb1 1_555 1_555
C11 Rb1 1_555 1_555
C12 C13 1_555 1_555
C12 Rb1 1_555 1_555
C13 Rb1 1_555 1_555
C19 C20 1_555 1_555
C24 C28 1_555 1_555
C26 C27 1_555 1_555
O1 Rb1 1_555 1_555
O9 Rb1 1_555 1_555
O10 Rb1C 1_555 1_555
O12 Rb1C_2 1_555 1_555

#END
