
#######################################################################
#
#                 Cambridge Crystallographic Data Centre
#                                CCDC 
#
#######################################################################
#
# If this CIF has been generated from an entry in the Cambridge 
# Structural Database, then it will include bibliographic, chemical, 
# crystal, experimental, refinement or atomic coordinate data resulting 
# from the CCDC's data processing and validation procedures.
#
#######################################################################

data_UCOBUK
_symmetry_cell_setting           triclinic
_symmetry_space_group_name_H-M   'P -1'
_symmetry_Int_Tables_number      2
_space_group_name_Hall           '-P 1'
loop_
_symmetry_equiv_pos_site_id
_symmetry_equiv_pos_as_xyz
1 x,y,z
2 -x,-y,-z
_cell_length_a                   7.9116(7)
_cell_length_b                   10.4870(10)
_cell_length_c                   18.2493(17)
_cell_angle_alpha                86.088(2)
_cell_angle_beta                 79.784(2)
_cell_angle_gamma                70.605(2)
_cell_volume                     1405.49
loop_
_atom_site_label
_atom_site_type_symbol
_atom_site_fract_x
_atom_site_fract_y
_atom_site_fract_z
Sr1 Sr 0.76760(4) 0.44979(4) 0.012433(17)
O1 O 0.8918(3) 0.3797(3) 0.13485(14)
H1 H 0.976(4) 0.403(4) 0.139(2)
H2 H 0.819(5) 0.400(4) 0.1733(16)
O2 O 0.7381(3) 0.2360(3) -0.03646(15)
H3 H 0.641(4) 0.253(4) -0.049(2)
H4 H 0.815(5) 0.179(3) -0.065(2)
O3 O 0.5234(3) 0.5662(3) -0.08197(13)
O4 O 0.8107(3) 0.5425(3) -0.12268(13)
C1 C 0.5004(4) 0.5821(4) -0.24407(18)
C2 C 0.5251(4) 0.4451(4) -0.23561(19)
H5 H 0.5999 0.3940 -0.2029
C3 C 0.4399(5) 0.3828(4) -0.27514(18)
H6 H 0.4583 0.2907 -0.2685
C4 C 0.3282(5) 0.4564(4) -0.32417(18)
C5 C 0.3020(5) 0.5935(4) -0.33199(19)
H7 H 0.2263 0.6450 -0.3643
C6 C 0.3874(5) 0.6554(4) -0.29224(18)
H8 H 0.3678 0.7477 -0.2983
C7 C 0.6473(4) 0.5823(4) -0.13118(19)
C8 C 0.5944(6) 0.6549(4) -0.2032(2)
H9 H 0.5035 0.7425 -0.1884
C9 C 0.7462(8) 0.6859(7) -0.2536(3)
H10 H 0.7035 0.7314 -0.2975
H11 H 0.8430 0.6032 -0.2673
H12 H 0.7899 0.7429 -0.2283
C10 C 0.2412(7) 0.3893(5) -0.3721(2)
H13 H 0.1134 0.4414 -0.3690
H14 H 0.2500 0.2994 -0.3526
C11 C 0.3331(10) 0.3791(6) -0.4542(2)
H15 H 0.3255 0.4706 -0.4724
C12 C 0.2258(13) 0.3248(8) -0.4996(3)
H16 H 0.1013 0.3823 -0.4927
H17 H 0.2320 0.2348 -0.4830
H18 H 0.2773 0.3236 -0.5514
C13 C 0.5376(11) 0.2925(6) -0.4625(3)
H19 H 0.5984 0.3328 -0.4345
H20 H 0.5917 0.2887 -0.5141
H21 H 0.5488 0.2027 -0.4439
O5 O 0.8989(3) 0.6557(3) 0.02531(13)
O6 O 0.6074(3) 0.6942(3) 0.06225(14)
C14 C 0.8393(4) 0.8894(3) 0.12206(17)
C15 C 0.8892(5) 1.0051(4) 0.1233(2)
H22 H 0.8533 1.0742 0.0888
C16 C 0.9909(5) 1.0190(4) 0.1747(2)
H23 H 1.0230 1.0967 0.1742
C17 C 1.0450(5) 0.9188(4) 0.22697(19)
C18 C 0.9992(5) 0.8025(3) 0.22540(18)
H24 H 1.0367 0.7334 0.2596
C19 C 0.8985(4) 0.7874(3) 0.17374(18)
H25 H 0.8701 0.7082 0.1736
C20 C 0.7435(4) 0.7334(4) 0.05112(18)
C21 C 0.7215(5) 0.8792(4) 0.0677(2)
H26 H 0.7601 0.9207 0.0207
C22 C 0.5246(6) 0.9680(5) 0.0984(3)
H27 H 0.4450 0.9646 0.0650
H28 H 0.5207 1.0597 0.1026
H29 H 0.4862 0.9346 0.1465
C23 C 1.1434(6) 0.9389(4) 0.2874(2)
H30 H 1.2437 0.9697 0.2647
H31 H 1.1934 0.8530 0.3119
C24 C 1.0180(7) 1.0416(4) 0.3455(2)
H32 H 0.9715 1.1280 0.3196
C25 C 1.1266(9) 1.0630(5) 0.4018(3)
H33 H 1.2278 1.0883 0.3762
H34 H 1.1703 0.9807 0.4294
H35 H 1.0501 1.1335 0.4355
C26 C 0.8562(7) 1.0009(5) 0.3824(3)
H36 H 0.7930 0.9869 0.3449
H37 H 0.7757 1.0712 0.4152
H38 H 0.8973 0.9187 0.4103
Sr1A Sr 0.23240(4) 0.55021(4) -0.012433(17)
Sr1A_2 Sr 1.23240(4) 0.55021(4) -0.012433(17)
O3A O 0.4766(3) 0.4338(3) 0.08197(13)
O5A O 1.1011(3) 0.3443(3) -0.02531(13)
loop_
_geom_bond_atom_site_label_1
_geom_bond_atom_site_label_2
_geom_bond_site_symmetry_1
_geom_bond_site_symmetry_2
Sr1 O1 1_555 1_555
O1 H1 1_555 1_555
H2 O1 1_555 1_555
O2 Sr1 1_555 1_555
H3 O2 1_555 1_555
H4 O2 1_555 1_555
O3 Sr1 1_555 1_555
O4 Sr1 1_555 1_555
C1 C2 1_555 1_555
C2 H5 1_555 1_555
C3 C2 1_555 1_555
H6 C3 1_555 1_555
C4 C3 1_555 1_555
C5 C4 1_555 1_555
H7 C5 1_555 1_555
C6 C1 1_555 1_555
H8 C6 1_555 1_555
C7 O3 1_555 1_555
C8 C1 1_555 1_555
H9 C8 1_555 1_555
C9 C8 1_555 1_555
H10 C9 1_555 1_555
H11 C9 1_555 1_555
H12 C9 1_555 1_555
C10 C4 1_555 1_555
H13 C10 1_555 1_555
H14 C10 1_555 1_555
C11 C10 1_555 1_555
H15 C11 1_555 1_555
C12 C11 1_555 1_555
H16 C12 1_555 1_555
H17 C12 1_555 1_555
H18 C12 1_555 1_555
C13 C11 1_555 1_555
H19 C13 1_555 1_555
H20 C13 1_555 1_555
H21 C13 1_555 1_555
O5 Sr1 1_555 1_555
O6 Sr1 1_555 1_555
C14 C15 1_555 1_555
C15 H22 1_555 1_555
C16 C15 1_555 1_555
H23 C16 1_555 1_555
C17 C16 1_555 1_555
C18 C17 1_555 1_555
H24 C18 1_555 1_555
C19 C14 1_555 1_555
H25 C19 1_555 1_555
C20 O5 1_555 1_555
C21 C14 1_555 1_555
H26 C21 1_555 1_555
C22 C21 1_555 1_555
H27 C22 1_555 1_555
H28 C22 1_555 1_555
H29 C22 1_555 1_555
C23 C17 1_555 1_555
H30 C23 1_555 1_555
H31 C23 1_555 1_555
C24 C23 1_555 1_555
H32 C24 1_555 1_555
C25 C24 1_555 1_555
H33 C25 1_555 1_555
H34 C25 1_555 1_555
H35 C25 1_555 1_555
C26 C24 1_555 1_555
H36 C26 1_555 1_555
H37 C26 1_555 1_555
H38 C26 1_555 1_555
Sr1A O3 1_555 1_555
Sr1A_2 O5 1_555 1_555
O3A Sr1 1_555 1_555
O5A Sr1 1_555 1_555
O4 C7 1_555 1_555
C5 C6 1_555 1_555
C7 C8 1_555 1_555
O6 C20 1_555 1_555
C18 C19 1_555 1_555
C20 C21 1_555 1_555
Sr1A O3A 1_555 1_555
Sr1A_2 O5A 1_555 1_555

#END
