
#######################################################################
#
#                 Cambridge Crystallographic Data Centre
#                                CCDC 
#
#######################################################################
#
# If this CIF has been generated from an entry in the Cambridge 
# Structural Database, then it will include bibliographic, chemical, 
# crystal, experimental, refinement or atomic coordinate data resulting 
# from the CCDC's data processing and validation procedures.
#
#######################################################################

data_UCOCOF
_symmetry_cell_setting           monoclinic
_symmetry_space_group_name_H-M   'P 21/n'
_symmetry_Int_Tables_number      14
_space_group_name_Hall           '-P 2yn'
loop_
_symmetry_equiv_pos_site_id
_symmetry_equiv_pos_as_xyz
1 x,y,z
2 1/2-x,1/2+y,1/2-z
3 -x,-y,-z
4 1/2+x,1/2-y,1/2+z
_cell_length_a                   11.8324(8)
_cell_length_b                   7.3549(5)
_cell_length_c                   16.6078(12)
_cell_angle_alpha                90
_cell_angle_beta                 102.0700(10)
_cell_angle_gamma                90
_cell_volume                     1413.36
loop_
_atom_site_label
_atom_site_type_symbol
_atom_site_fract_x
_atom_site_fract_y
_atom_site_fract_z
Cu1 Cu 0.459959(10) -0.154372(16) 1.019814(7)
O1 O 0.33657(7) -0.09480(11) 0.92437(5)
O2 O 0.40551(7) 0.17257(11) 0.89016(5)
O3 O -0.11925(7) 0.51909(11) 0.59353(5)
O4 O -0.05620(7) 0.25169(11) 0.55558(5)
O5 O 0.36673(8) -0.40705(12) 1.02155(6)
H1 H 0.3962(18) -0.511(3) 1.0305(13)
H2 H 0.3251(19) -0.413(3) 0.9826(14)
C1 C 0.33259(9) 0.04468(15) 0.87923(6)
C2 C 0.23322(9) 0.05790(15) 0.80575(6)
H3 H 0.2168 -0.0653 0.7822
H4 H 0.2578 0.1341 0.7634
C3 C 0.12042(9) 0.13733(14) 0.82335(6)
C4 C -0.07844(9) 0.24039(14) 0.74730(6)
C5 C -0.05248(10) 0.09158(17) 0.88720(7)
H5 H -0.0892 0.0086 0.9220
C6 C 0.02359(10) 0.40548(16) 0.87510(7)
H6 H 0.0372 0.5272 0.9023
C7 C 0.06346(10) 0.01044(16) 0.87694(7)
H7 H 0.0504 -0.1107 0.8506
H8 H 0.1152 -0.0048 0.9316
C8 C 0.13964(9) 0.32396(15) 0.86570(6)
H9 H 0.1911 0.3105 0.9206
H10 H 0.1776 0.4068 0.8325
C9 C 0.03816(9) 0.15960(13) 0.73899(6)
H11 H 0.0745 0.2401 0.7039
H12 H 0.0252 0.0395 0.7117
C10 C -0.03292(10) 0.27862(19) 0.92850(7)
H13 H 0.0177 0.2664 0.9838
H14 H -0.1077 0.3302 0.9351
C11 C -0.13281(9) 0.11306(17) 0.80226(7)
H15 H -0.2079 0.1635 0.8089
H16 H -0.1472 -0.0075 0.7756
C12 C -0.05651(10) 0.42722(15) 0.78972(7)
H17 H -0.0203 0.5100 0.7554
H18 H -0.1309 0.4813 0.7958
C13 C -0.16241(9) 0.25212(14) 0.66237(6)
H19 H -0.1849 0.1276 0.6426
H20 H -0.2333 0.3170 0.6687
C14 C -0.11018(9) 0.34924(13) 0.59871(6)
Cu1B Cu 0.540041(10) 0.154372(16) 0.980186(7)
Cu1C Cu -0.040041(10) 0.654372(16) 0.519814(7)
Cu1A Cu 0.040041(10) 0.345628(16) 0.480186(7)
O2B O 0.59449(7) -0.17257(11) 1.10984(5)
O3C O 0.38075(7) -0.01909(11) 1.09353(5)
O4A O 0.55620(7) -0.24831(11) 0.94442(5)
loop_
_geom_bond_atom_site_label_1
_geom_bond_atom_site_label_2
_geom_bond_site_symmetry_1
_geom_bond_site_symmetry_2
Cu1 O1 1_555 1_555
O1 C1 1_555 1_555
O2 C1 1_555 1_555
O3 C14 1_555 1_555
O4 C14 1_555 1_555
O5 Cu1 1_555 1_555
H1 O5 1_555 1_555
H2 O5 1_555 1_555
C1 C2 1_555 1_555
C2 H3 1_555 1_555
H4 C2 1_555 1_555
C3 C2 1_555 1_555
C4 C9 1_555 1_555
C5 H5 1_555 1_555
C6 H6 1_555 1_555
C7 C3 1_555 1_555
H7 C7 1_555 1_555
H8 C7 1_555 1_555
C8 C3 1_555 1_555
H9 C8 1_555 1_555
H10 C8 1_555 1_555
C9 C3 1_555 1_555
H11 C9 1_555 1_555
H12 C9 1_555 1_555
C10 C5 1_555 1_555
H13 C10 1_555 1_555
H14 C10 1_555 1_555
C11 C4 1_555 1_555
H15 C11 1_555 1_555
H16 C11 1_555 1_555
C12 C4 1_555 1_555
H17 C12 1_555 1_555
H18 C12 1_555 1_555
C13 C4 1_555 1_555
H19 C13 1_555 1_555
H20 C13 1_555 1_555
C14 C13 1_555 1_555
Cu1B Cu1 1_555 1_555
Cu1C O3 1_555 1_555
Cu1A O4 1_555 1_555
O2B Cu1 1_555 1_555
O3C Cu1 1_555 1_555
O4A Cu1 1_555 1_555
O2 Cu1B 1_555 1_555
C5 C7 1_555 1_555
C5 C11 1_555 1_555
C6 C8 1_555 1_555
C6 C10 1_555 1_555
C6 C12 1_555 1_555
Cu1C Cu1A 1_555 1_555

#END
