
#######################################################################
#
#                 Cambridge Crystallographic Data Centre
#                                CCDC 
#
#######################################################################
#
# If this CIF has been generated from an entry in the Cambridge 
# Structural Database, then it will include bibliographic, chemical, 
# crystal, experimental, refinement or atomic coordinate data resulting 
# from the CCDC's data processing and validation procedures.
#
#######################################################################

data_UCOJIH
_symmetry_cell_setting           orthorhombic
_symmetry_space_group_name_H-M   'P b c a'
_symmetry_Int_Tables_number      61
_space_group_name_Hall           '-P 2ac 2ab'
loop_
_symmetry_equiv_pos_site_id
_symmetry_equiv_pos_as_xyz
1 x,y,z
2 1/2-x,-y,1/2+z
3 -x,1/2+y,1/2-z
4 1/2+x,1/2-y,-z
5 -x,-y,-z
6 1/2+x,y,1/2-z
7 x,1/2-y,1/2+z
8 1/2-x,1/2+y,z
_cell_length_a                   28.147(3)
_cell_length_b                   13.8926(13)
_cell_length_c                   44.028(4)
_cell_angle_alpha                90
_cell_angle_beta                 90
_cell_angle_gamma                90
_cell_volume                     17216.5
loop_
_atom_site_label
_atom_site_type_symbol
_atom_site_fract_x
_atom_site_fract_y
_atom_site_fract_z
C1 C 0.6726(4) 0.1937(6) 0.8644(2)
C2 C 0.6481(5) 0.1739(7) 0.8913(3)
H1 H 0.6659 0.1621 0.9093
C3 C 0.6018(6) 0.1710(9) 0.8930(4)
H2 H 0.5869 0.1599 0.9120
C4 C 0.5747(4) 0.1835(8) 0.8678(4)
H3 H 0.5411 0.1793 0.8693
C5 C 0.5959(4) 0.2028(8) 0.8393(4)
H4 H 0.5769 0.2109 0.8217
C6 C 0.6457(4) 0.2098(6) 0.8376(3)
C7 C 0.6703(4) 0.2354(6) 0.8085(2)
C8 C 0.6432(5) 0.2536(7) 0.7822(3)
H5 H 0.6097 0.2460 0.7826
C9 C 0.6655(5) 0.2823(8) 0.7561(3)
H6 H 0.6478 0.2933 0.7381
C10 C 0.7159(6) 0.2954(7) 0.7563(3)
H7 H 0.7314 0.3185 0.7385
C11 C 0.7420(4) 0.2753(7) 0.7816(3)
H8 H 0.7756 0.2819 0.7810
C12 C 0.7197(4) 0.2447(6) 0.8087(2)
C13 C 0.7475(4) 0.2190(6) 0.8361(3)
C14 C 0.7983(4) 0.2216(7) 0.8355(3)
H9 H 0.8138 0.2399 0.8172
C15 C 0.8241(5) 0.1999(8) 0.8590(4)
H10 H 0.8578 0.2009 0.8578
C16 C 0.8010(5) 0.1749(8) 0.8861(4)
H11 H 0.8195 0.1596 0.9035
C17 C 0.7524(5) 0.1720(7) 0.8880(3)
H12 H 0.7372 0.1535 0.9063
C18 C 0.7253(4) 0.1970(6) 0.8622(3)
C19 C 1.0125(4) 0.4872(8) 0.7668(3)
C20 C 0.9784(5) 0.4920(11) 0.7879(3)
H13 H 0.9835 0.4894 0.8092
C21 C 0.9900(4) 0.4949(7) 0.7357(3)
C22 C 0.9328(4) 0.5018(9) 0.7734(3)
C23 C 0.9064(4) 0.5101(11) 0.7172(3)
H14 H 0.9213 0.5054 0.6972
H15 H 0.8913 0.5733 0.7194
H16 H 0.8823 0.4595 0.7193
C24 C 1.0661(5) 0.4846(13) 0.7682(5)
H17 H 1.0762 0.4781 0.7894
H18 H 1.0790 0.5443 0.7597
H19 H 1.0778 0.4296 0.7565
N1 N 0.9423(3) 0.4983(6) 0.74067(18)
O1 O 1.0089(3) 0.4959(7) 0.71157(19)
O2 O 0.8930(3) 0.5087(7) 0.7825(2)
C25 C 0.4879(7) 0.2682(11) 0.1988(4)
C26 C 0.4438(7) 0.2527(11) 0.1964(4)
H20 H 0.4283 0.2478 0.1772
C27 C 0.5004(6) 0.2613(9) 0.2336(4)
C28 C 0.4195(5) 0.2433(12) 0.2241(5)
C29 C 0.4509(8) 0.2412(11) 0.2809(4)
H21 H 0.4825 0.2480 0.2900
H22 H 0.4381 0.1774 0.2857
H23 H 0.4298 0.2908 0.2892
C30 C 0.5315(9) 0.2844(14) 0.1775(4)
H24 H 0.5210 0.2848 0.1563
H25 H 0.5545 0.2323 0.1805
H26 H 0.5465 0.3462 0.1824
N2 N 0.4544(4) 0.2524(8) 0.2479(3)
O3 O 0.5358(4) 0.2715(8) 0.2448(2)
O4 O 0.3793(6) 0.2292(12) 0.2310(4)
C31 C 0.6970(11) 0.549(3) 1.0605(7)
Cl1 Cl 0.7577(7) 0.5442(18) 1.0459(5)
Cl2 Cl 0.6653(7) 0.4624(17) 1.0382(5)
Cl3 Cl 0.6594(9) 0.6493(17) 1.0517(5)
Cl4 Cl 0.7005(8) 0.5421(17) 1.1009(5)
Zn1 Zn 1.02212(3) 0.88888(7) 0.91023(2)
Zn2 Zn 0.54637(3) 0.86352(7) 0.90696(2)
Zn3 Zn 0.76073(3) 1.19089(6) 0.67546(2)
I1 I 1.00652(3) 0.80378(5) 0.961027(16)
I2 I 1.07090(2) 0.81224(5) 0.868470(19)
I3 I 0.55663(3) 0.68203(5) 0.908249(19)
I4 I 0.48174(2) 0.95110(5) 0.877134(14)
I5 I 0.67265(2) 1.19159(4) 0.662450(14)
I6 I 0.80338(2) 1.35164(4) 0.682030(14)
C32 C 0.9169(3) 0.9126(6) 0.90551(18)
H27 H 0.9177 0.8972 0.9265
C33 C 0.8729(3) 0.9262(6) 0.89157(19)
H28 H 0.8443 0.9200 0.9029
C34 C 0.8713(3) 0.9489(5) 0.86107(17)
C35 C 0.9133(3) 0.9580(6) 0.84546(19)
H29 H 0.9130 0.9741 0.8245
C36 C 0.9559(3) 0.9436(5) 0.86030(17)
H30 H 0.9846 0.9500 0.8491
C37 C 0.8121(3) 1.1128(7) 0.7292(2)
H31 H 0.8388 1.1409 0.7195
C38 C 0.8179(3) 1.0729(6) 0.75726(18)
H32 H 0.8485 1.0715 0.7664
C39 C 0.7787(3) 1.0337(5) 0.77273(17)
C40 C 0.7354(3) 1.0326(5) 0.75752(17)
H33 H 0.7082 1.0045 0.7667
C41 C 0.7322(3) 1.0729(5) 0.72882(17)
H34 H 0.7024 1.0715 0.7188
C42 C 0.6137(3) 0.9407(6) 0.86229(18)
H35 H 0.5849 0.9500 0.8514
C43 C 0.6561(3) 0.9578(6) 0.84732(17)
H36 H 0.6565 0.9773 0.8266
C44 C 0.6982(3) 0.9455(5) 0.86359(17)
C45 C 0.6962(3) 0.9196(6) 0.89393(17)
H37 H 0.7243 0.9133 0.9057
C46 C 0.6518(3) 0.9031(6) 0.90670(18)
H38 H 0.6503 0.8847 0.9275
C47 C 0.8240(3) 0.9620(5) 0.84532(17)
C48 C 0.7450(2) 0.9592(5) 0.84767(17)
C49 C 0.7817(3) 0.9987(5) 0.80411(17)
C50 C 1.0666(3) 1.6341(6) 1.02642(18)
H39 H 1.0725 1.7009 1.0292
C51 C 1.0772(3) 1.5926(6) 0.99904(18)
H40 H 1.0892 1.6313 0.9830
C52 C 1.0705(3) 1.4954(6) 0.99437(17)
C53 C 1.0503(3) 1.4425(6) 1.01853(17)
H41 H 1.0444 1.3755 1.0164
C54 C 1.0394(3) 1.4887(5) 1.04486(17)
H42 H 1.0249 1.4526 1.0607
C55 C 1.0425(3) 1.0618(6) 0.94880(19)
H43 H 1.0270 1.0250 0.9640
C56 C 1.0565(3) 1.1555(6) 0.95529(19)
H44 H 1.0505 1.1825 0.9747
C57 C 1.0796(3) 1.2100(6) 0.93287(18)
C58 C 1.0881(3) 1.1670(6) 0.90457(18)
H45 H 1.1049 1.2008 0.8892
C59 C 1.0717(3) 1.0745(6) 0.89952(18)
H46 H 1.0757 1.0473 0.8799
C60 C 1.2012(3) 1.5144(6) 0.85414(18)
H47 H 1.2183 1.4831 0.8384
C61 C 1.1770(4) 1.4594(6) 0.87553(19)
H48 H 1.1770 1.3912 0.8742
C62 C 1.1529(3) 1.5050(5) 0.89871(17)
C63 C 1.1524(4) 1.6051(6) 0.8990(2)
H49 H 1.1358 1.6391 0.9144
C64 C 1.1762(4) 1.6535(6) 0.8769(2)
H50 H 1.1749 1.7218 0.8768
C65 C 1.0863(3) 1.4471(6) 0.96619(18)
C66 C 1.1263(3) 1.4487(5) 0.92238(17)
C67 C 1.0925(3) 1.3114(6) 0.93806(17)
N3 N 0.9584(2) 0.9206(5) 0.89016(15)
N4 N 0.6108(2) 0.9119(5) 0.89110(15)
N5 N 0.7693(2) 1.1141(5) 0.71442(14)
N6 N 0.7850(2) 0.9456(4) 0.86244(14)
N7 N 0.7410(2) 0.9852(4) 0.81821(13)
N8 N 0.8255(2) 0.9875(4) 0.81676(14)
N9 N 1.0480(2) 1.5823(5) 1.04972(14)
N10 N 1.2008(2) 1.6098(5) 0.85537(14)
N11 N 1.0506(2) 1.0214(5) 0.92101(15)
N12 N 1.1108(2) 1.4989(4) 0.94617(14)
N13 N 1.1191(2) 1.3554(5) 0.91719(15)
N14 N 1.0751(2) 1.3524(5) 0.96277(14)
Zn2C Zn 1.04637(3) 1.63648(7) 1.09304(2)
Zn3B Zn 1.23927(3) 1.69089(6) 0.82454(2)
N9C N 0.5480(2) 0.9177(5) 0.95028(14)
N10B N 0.7992(2) 1.1098(5) 0.64463(14)
C68 C 0.8193(10) 0.712(2) 0.9831(6)
Cl5 Cl 0.8197(5) 0.5858(14) 0.9752(4)
Cl6 Cl 0.8110(7) 0.730(3) 1.0230(3)
Cl7 Cl 0.7756(8) 0.782(2) 0.9629(4)
Cl8 Cl 0.8725(6) 0.7657(11) 0.9717(3)
loop_
_geom_bond_atom_site_label_1
_geom_bond_atom_site_label_2
_geom_bond_site_symmetry_1
_geom_bond_site_symmetry_2
C1 C2 1_555 1_555
C2 H1 1_555 1_555
C3 C2 1_555 1_555
H2 C3 1_555 1_555
C4 C3 1_555 1_555
H3 C4 1_555 1_555
C5 C4 1_555 1_555
H4 C5 1_555 1_555
C6 C1 1_555 1_555
C7 C6 1_555 1_555
C8 C7 1_555 1_555
H5 C8 1_555 1_555
C9 C8 1_555 1_555
H6 C9 1_555 1_555
C10 C9 1_555 1_555
H7 C10 1_555 1_555
C11 C10 1_555 1_555
H8 C11 1_555 1_555
C12 C7 1_555 1_555
C13 C12 1_555 1_555
C14 C13 1_555 1_555
H9 C14 1_555 1_555
C15 C14 1_555 1_555
H10 C15 1_555 1_555
C16 C15 1_555 1_555
H11 C16 1_555 1_555
C17 C16 1_555 1_555
H12 C17 1_555 1_555
C18 C1 1_555 1_555
C19 C20 1_555 1_555
C20 H13 1_555 1_555
C21 C19 1_555 1_555
C22 C20 1_555 1_555
C23 H14 1_555 1_555
H15 C23 1_555 1_555
H16 C23 1_555 1_555
C24 C19 1_555 1_555
H17 C24 1_555 1_555
H18 C24 1_555 1_555
H19 C24 1_555 1_555
N1 C21 1_555 1_555
O1 C21 1_555 1_555
O2 C22 1_555 1_555
C25 C26 1_555 1_555
C26 H20 1_555 1_555
C27 C25 1_555 1_555
C28 C26 1_555 1_555
C29 H21 1_555 1_555
H22 C29 1_555 1_555
H23 C29 1_555 1_555
C30 C25 1_555 1_555
H24 C30 1_555 1_555
H25 C30 1_555 1_555
H26 C30 1_555 1_555
N2 C27 1_555 1_555
O3 C27 1_555 1_555
O4 C28 1_555 1_555
C31 Cl1 1_555 1_555
Cl2 C31 1_555 1_555
Cl3 C31 1_555 1_555
Cl4 C31 1_555 1_555
Zn1 I1 1_555 1_555
Zn2 I3 1_555 1_555
Zn3 I5 1_555 1_555
I2 Zn1 1_555 1_555
I4 Zn2 1_555 1_555
I6 Zn3 1_555 1_555
C32 H27 1_555 1_555
C33 C32 1_555 1_555
H28 C33 1_555 1_555
C34 C33 1_555 1_555
C35 C34 1_555 1_555
H29 C35 1_555 1_555
C36 C35 1_555 1_555
H30 C36 1_555 1_555
C37 H31 1_555 1_555
C38 C37 1_555 1_555
H32 C38 1_555 1_555
C39 C38 1_555 1_555
C40 C39 1_555 1_555
H33 C40 1_555 1_555
C41 C40 1_555 1_555
H34 C41 1_555 1_555
C42 H35 1_555 1_555
C43 C42 1_555 1_555
H36 C43 1_555 1_555
C44 C43 1_555 1_555
C45 C44 1_555 1_555
H37 C45 1_555 1_555
C46 C45 1_555 1_555
H38 C46 1_555 1_555
C47 C34 1_555 1_555
C48 C44 1_555 1_555
C49 C39 1_555 1_555
C50 H39 1_555 1_555
C51 C50 1_555 1_555
H40 C51 1_555 1_555
C52 C51 1_555 1_555
C53 C52 1_555 1_555
H41 C53 1_555 1_555
C54 C53 1_555 1_555
H42 C54 1_555 1_555
C55 H43 1_555 1_555
C56 C55 1_555 1_555
H44 C56 1_555 1_555
C57 C56 1_555 1_555
C58 C57 1_555 1_555
H45 C58 1_555 1_555
C59 C58 1_555 1_555
H46 C59 1_555 1_555
C60 H47 1_555 1_555
C61 C60 1_555 1_555
H48 C61 1_555 1_555
C62 C61 1_555 1_555
C63 C62 1_555 1_555
H49 C63 1_555 1_555
C64 C63 1_555 1_555
H50 C64 1_555 1_555
C65 C52 1_555 1_555
C66 C62 1_555 1_555
C67 C57 1_555 1_555
N3 Zn1 1_555 1_555
N4 Zn2 1_555 1_555
N5 Zn3 1_555 1_555
N6 C47 1_555 1_555
N7 C48 1_555 1_555
N8 C47 1_555 1_555
N9 C50 1_555 1_555
N10 C60 1_555 1_555
N11 Zn1 1_555 1_555
N12 C65 1_555 1_555
N13 C66 1_555 1_555
N14 C65 1_555 1_555
C68 Cl5 1_555 1_555
Cl6 C68 1_555 1_555
Cl7 C68 1_555 1_555
Cl8 C68 1_555 1_555
Zn2C N9 1_555 1_555
Zn3B N10 1_555 1_555
N9C Zn2 1_555 1_555
N10B Zn3 1_555 1_555
C5 C6 1_555 1_555
C11 C12 1_555 1_555
C13 C18 1_555 1_555
C17 C18 1_555 1_555
C22 N1 1_555 1_555
C23 N1 1_555 1_555
C28 N2 1_555 1_555
C29 N2 1_555 1_555
C32 N3 1_555 1_555
C36 N3 1_555 1_555
C37 N5 1_555 1_555
C41 N5 1_555 1_555
C42 N4 1_555 1_555
C46 N4 1_555 1_555
C48 N6 1_555 1_555
C49 N7 1_555 1_555
C49 N8 1_555 1_555
C54 N9 1_555 1_555
C55 N11 1_555 1_555
C59 N11 1_555 1_555
C64 N10 1_555 1_555
C66 N12 1_555 1_555
C67 N13 1_555 1_555
C67 N14 1_555 1_555

#END
