
#######################################################################
#
#                 Cambridge Crystallographic Data Centre
#                                CCDC 
#
#######################################################################
#
# If this CIF has been generated from an entry in the Cambridge 
# Structural Database, then it will include bibliographic, chemical, 
# crystal, experimental, refinement or atomic coordinate data resulting 
# from the CCDC's data processing and validation procedures.
#
#######################################################################

data_UCORIP
_symmetry_cell_setting           triclinic
_symmetry_space_group_name_H-M   'P -1'
_symmetry_Int_Tables_number      2
_space_group_name_Hall           '-P 1'
loop_
_symmetry_equiv_pos_site_id
_symmetry_equiv_pos_as_xyz
1 x,y,z
2 -x,-y,-z
_cell_length_a                   8.7916(2)
_cell_length_b                   9.8806(2)
_cell_length_c                   10.7660(3)
_cell_angle_alpha                72.875(2)
_cell_angle_beta                 89.817(1)
_cell_angle_gamma                64.172(1)
_cell_volume                     795.909
loop_
_atom_site_label
_atom_site_type_symbol
_atom_site_fract_x
_atom_site_fract_y
_atom_site_fract_z
Cu1 Cu 0.23806(4) 0.89156(3) 0.24465(3)
N1 N 0.1609(2) 0.7942(2) 0.13882(19)
C1 C 0.1317(3) 0.7284(3) 0.0791(2)
C2 C 0.0976(4) 0.6409(4) 0.0039(3)
H1 H 0.003(4) 0.712(4) -0.069(3)
H2 H 0.481(4) 1.262(4) 0.113(3)
H3 H 0.070(4) 0.563(4) 0.063(3)
N2 N 0.3444(3) 1.0256(2) 0.14134(19)
C3 C 0.4134(3) 1.1007(3) 0.1070(2)
C4 C 0.5031(4) 1.1966(4) 0.0644(3)
H4 H 0.613(5) 1.132(4) 0.074(3)
H5 H 0.193(4) 0.597(4) -0.034(3)
H6 H 0.458(4) 1.267(3) -0.024(3)
C5 C -0.1323(3) 1.3296(3) 0.4567(2)
C6 C -0.0145(3) 1.3042(3) 0.5591(2)
C7 C -0.1754(3) 1.4383(3) 0.5269(2)
C8 C -0.1750(3) 1.2846(2) 0.3593(2)
C9 C -0.0542(3) 1.1464(3) 0.3336(2)
N3 N 0.0448(2) 1.0381(2) 0.31049(18)
C10 C -0.3361(3) 1.3789(3) 0.2763(2)
N4 N -0.4636(3) 1.4560(2) 0.2074(2)
C11 C 0.1449(3) 1.2169(3) 0.6333(2)
C12 C 0.2652(3) 1.0716(3) 0.6164(2)
N5 N 0.3611(3) 0.9540(2) 0.6034(2)
C13 C 0.1871(3) 1.2687(3) 0.7325(2)
N6 N 0.2170(3) 1.3164(3) 0.8096(2)
C14 C -0.2894(3) 1.5771(3) 0.5448(2)
C15 C -0.2459(3) 1.6297(3) 0.6434(2)
N7 N -0.2003(3) 1.6672(2) 0.7217(2)
C16 C -0.4506(3) 1.6680(3) 0.4630(2)
N8 N -0.5760(2) 1.7369(2) 0.39209(18)
Cu1_2 Cu -0.76194(4) 1.89156(3) 0.24465(3)
N8_2 N 0.4240(2) 0.7369(2) 0.39209(18)
loop_
_geom_bond_atom_site_label_1
_geom_bond_atom_site_label_2
_geom_bond_site_symmetry_1
_geom_bond_site_symmetry_2
Cu1 N1 1_555 1_555
N1 C1 1_555 1_555
C1 C2 1_555 1_555
C2 H1 1_555 1_555
H2 C4 1_555 1_555
H3 C2 1_555 1_555
N2 Cu1 1_555 1_555
C3 N2 1_555 1_555
C4 C3 1_555 1_555
H4 C4 1_555 1_555
H5 C2 1_555 1_555
H6 C4 1_555 1_555
C5 C6 1_555 1_555
C6 C7 1_555 1_555
C7 C5 1_555 1_555
C8 C5 1_555 1_555
C9 C8 1_555 1_555
N3 Cu1 1_555 1_555
C10 C8 1_555 1_555
N4 C10 1_555 1_555
C11 C6 1_555 1_555
C12 C11 1_555 1_555
N5 C12 1_555 1_555
C13 C11 1_555 1_555
N6 C13 1_555 1_555
C14 C7 1_555 1_555
C15 C14 1_555 1_555
N7 C15 1_555 1_555
C16 C14 1_555 1_555
N8 C16 1_555 1_555
Cu1_2 N8 1_555 1_555
N8_2 Cu1 1_555 1_555
C9 N3 1_555 1_555

#END
