
#######################################################################
#
#                 Cambridge Crystallographic Data Centre
#                                CCDC 
#
#######################################################################
#
# If this CIF has been generated from an entry in the Cambridge 
# Structural Database, then it will include bibliographic, chemical, 
# crystal, experimental, refinement or atomic coordinate data resulting 
# from the CCDC's data processing and validation procedures.
#
#######################################################################

data_UCOZOD
_symmetry_cell_setting           monoclinic
_symmetry_space_group_name_H-M   'C 2/c'
_symmetry_Int_Tables_number      15
_space_group_name_Hall           '-C 2yn'
loop_
_symmetry_equiv_pos_site_id
_symmetry_equiv_pos_as_xyz
1 x,y,z
2 -x,y,1/2-z
3 1/2+x,1/2+y,z
4 1/2-x,1/2+y,1/2-z
5 -x,-y,-z
6 x,-y,1/2+z
7 1/2-x,1/2-y,-z
8 1/2+x,1/2-y,1/2+z
_cell_length_a                   16.639(4)
_cell_length_b                   12.961(3)
_cell_length_c                   14.088(4)
_cell_angle_alpha                90
_cell_angle_beta                 117.911(13)
_cell_angle_gamma                90
_cell_volume                     2684.78
loop_
_atom_site_label
_atom_site_type_symbol
_atom_site_fract_x
_atom_site_fract_y
_atom_site_fract_z
Sn1 Sn 0.469871(10) 0.035668(16) 0.599323(12)
Se1 Se 0.377277(16) 0.18140(2) 0.60321(2)
Se2 Se 0.609850(15) 0.07234(2) 0.573564(19)
Se3 Se 0.5000 -0.09456(3) 0.7500
Mn1 Mn 0.5000 0.30814(5) 0.7500
N1 N 0.40222(12) 0.36045(19) 0.81176(14)
N2 N 0.56461(12) 0.4531(2) 0.86363(15)
C1 C 0.32155(16) 0.3145(2) 0.78555(19)
H1 H 0.3129 0.2470 0.7603
C2 C 0.25152(15) 0.3627(3) 0.79445(18)
H2 H 0.1980 0.3275 0.7783
C3 C 0.26254(16) 0.4651(3) 0.82803(19)
H3 H 0.2155 0.4996 0.8325
C4 C 0.34411(15) 0.5157(2) 0.85481(17)
C5 C 0.35958(16) 0.6217(2) 0.88832(18)
H4 H 0.3144 0.6574 0.8957
C6 C 0.43825(17) 0.6716(3) 0.90962(19)
H5 H 0.4458 0.7407 0.9297
C7 C 0.51017(16) 0.6162(2) 0.90069(18)
C8 C 0.59434(17) 0.6638(2) 0.92292(18)
H6 H 0.6041 0.7336 0.9395
C9 C 0.66140(16) 0.6027(2) 0.91908(19)
H7 H 0.7180 0.6308 0.9362
C10 C 0.64389(15) 0.5010(2) 0.88994(18)
H8 H 0.6903 0.4624 0.8883
C11 C 0.49846(15) 0.5102(2) 0.87190(18)
C12 C 0.41308(15) 0.4591(2) 0.84611(17)
Sn1A Sn 0.530129(10) 0.035668(16) 0.900677(12)
Sn1D Sn 0.530129(10) -0.035668(16) 0.400677(12)
Se1A Se 0.622723(16) 0.18140(2) 0.89679(2)
Se2D Se 0.390150(15) -0.07234(2) 0.426436(19)
Se2A Se 0.390150(15) 0.07234(2) 0.926436(19)
Se2E Se 0.609850(15) -0.07234(2) 1.073564(19)
N1A N 0.59778(12) 0.36045(19) 0.68824(14)
N2A N 0.43539(12) 0.4531(2) 0.63637(15)
C1A C 0.67845(16) 0.3145(2) 0.71445(19)
H1A H 0.6871 0.2470 0.7397
C2A C 0.74848(15) 0.3627(3) 0.70555(18)
H2A H 0.8020 0.3275 0.7217
C3A C 0.73746(16) 0.4651(3) 0.67197(19)
H3A H 0.7845 0.4996 0.6675
C4A C 0.65589(15) 0.5157(2) 0.64519(17)
C5A C 0.64042(16) 0.6217(2) 0.61168(18)
H4A H 0.6856 0.6574 0.6043
C6A C 0.56175(17) 0.6716(3) 0.59038(19)
H5A H 0.5542 0.7407 0.5703
C7A C 0.48983(16) 0.6162(2) 0.59931(18)
C8A C 0.40566(17) 0.6638(2) 0.57708(18)
H6A H 0.3959 0.7336 0.5605
C9A C 0.33860(16) 0.6027(2) 0.58092(19)
H7A H 0.2820 0.6308 0.5638
C10A C 0.35611(15) 0.5010(2) 0.61006(18)
H8A H 0.3097 0.4624 0.6117
C11A C 0.50154(15) 0.5102(2) 0.62810(18)
C12A C 0.58692(15) 0.4591(2) 0.65389(17)
loop_
_geom_bond_atom_site_label_1
_geom_bond_atom_site_label_2
_geom_bond_site_symmetry_1
_geom_bond_site_symmetry_2
Sn1 Se1 1_555 1_555
Se1 Mn1 1_555 1_555
Se2 Sn1 1_555 1_555
Se3 Sn1 1_555 1_555
Mn1 N1 1_555 1_555
N1 C1 1_555 1_555
N2 Mn1 1_555 1_555
C1 H1 1_555 1_555
C2 C1 1_555 1_555
H2 C2 1_555 1_555
C3 C2 1_555 1_555
H3 C3 1_555 1_555
C4 C3 1_555 1_555
C5 C4 1_555 1_555
H4 C5 1_555 1_555
C6 C5 1_555 1_555
H5 C6 1_555 1_555
C7 C6 1_555 1_555
C8 C7 1_555 1_555
H6 C8 1_555 1_555
C9 C8 1_555 1_555
H7 C9 1_555 1_555
C10 N2 1_555 1_555
H8 C10 1_555 1_555
C11 N2 1_555 1_555
C12 N1 1_555 1_555
Sn1A Se3 1_555 1_555
Sn1D Se2 1_555 1_555
Se1A Mn1 1_555 1_555
Se2D Sn1 1_555 1_555
Se2A Sn1A 1_555 1_555
Se2E Sn1A 1_555 1_555
N1A Mn1 1_555 1_555
N2A Mn1 1_555 1_555
C1A N1A 1_555 1_555
H1A C1A 1_555 1_555
C2A C1A 1_555 1_555
H2A C2A 1_555 1_555
C3A C2A 1_555 1_555
H3A C3A 1_555 1_555
C4A C3A 1_555 1_555
C5A C4A 1_555 1_555
H4A C5A 1_555 1_555
C6A C5A 1_555 1_555
H5A C6A 1_555 1_555
C7A C6A 1_555 1_555
C8A C7A 1_555 1_555
H6A C8A 1_555 1_555
C9A C8A 1_555 1_555
H7A C9A 1_555 1_555
C10A N2A 1_555 1_555
H8A C10A 1_555 1_555
C11A N2A 1_555 1_555
C12A N1A 1_555 1_555
C4 C12 1_555 1_555
C7 C11 1_555 1_555
C9 C10 1_555 1_555
C11 C12 1_555 1_555
Sn1A Se1A 1_555 1_555
Sn1D Se2D 1_555 1_555
C4A C12A 1_555 1_555
C7A C11A 1_555 1_555
C9A C10A 1_555 1_555
C11A C12A 1_555 1_555

#END
