
#######################################################################
#
#                 Cambridge Crystallographic Data Centre
#                                CCDC 
#
#######################################################################
#
# If this CIF has been generated from an entry in the Cambridge 
# Structural Database, then it will include bibliographic, chemical, 
# crystal, experimental, refinement or atomic coordinate data resulting 
# from the CCDC's data processing and validation procedures.
#
#######################################################################

data_UCUCIF
_symmetry_cell_setting           triclinic
_symmetry_space_group_name_H-M   'P -1'
_symmetry_Int_Tables_number      2
_space_group_name_Hall           '-P 1'
loop_
_symmetry_equiv_pos_site_id
_symmetry_equiv_pos_as_xyz
1 x,y,z
2 -x,-y,-z
_cell_length_a                   10.835(2)
_cell_length_b                   24.500(5)
_cell_length_c                   9.3885(19)
_cell_angle_alpha                97.70(3)
_cell_angle_beta                 109.38(3)
_cell_angle_gamma                94.51(3)
_cell_volume                     2309.55
loop_
_atom_site_label
_atom_site_type_symbol
_atom_site_fract_x
_atom_site_fract_y
_atom_site_fract_z
Co1 Co -1.5000 0.0000 -1.5000
S1 S -1.0097(3) 0.11991(13) -0.8993(4)
S2 S -1.1180(5) 0.0936(2) -1.5523(7)
N1 N -1.4130(8) 0.0530(4) -1.2757(10)
N2 N -1.1422(8) 0.1937(3) -0.7885(9)
N3 N -0.9287(8) 0.2154(3) -0.7015(9)
N4 N -0.6067(8) 0.0707(3) -0.5754(9)
N5 N -1.3456(9) 0.0327(4) -1.5644(10)
O1 O -1.3536(7) 0.1803(4) -0.7966(9)
O2 O -0.7236(8) 0.2583(3) -0.6523(11)
C1 C -1.4256(13) 0.0382(5) -1.1480(16)
H1 H -1.4678 0.0031 -1.1533
C2 C -1.3774(13) 0.0738(6) -1.0095(13)
H2 H -1.3896 0.0628 -0.9236
C3 C -1.3119(10) 0.1253(4) -0.9971(11)
C4 C -1.2977(11) 0.1405(4) -1.1295(12)
H3 H -1.2523 0.1747 -1.1265
C5 C -1.3522(11) 0.1036(5) -1.2633(13)
H4 H -1.3463 0.1147 -1.3521
C6 C -1.2703(12) 0.1674(5) -0.8530(12)
C7 C -1.1151(10) 0.2436(4) -0.6738(11)
H5 H -1.1172 0.2347 -0.5769
H6 H -1.1774 0.2695 -0.7080
C8 C -0.9809(10) 0.2657(4) -0.6619(12)
H7 H -0.9831 0.2910 -0.7335
H8 H -0.9299 0.2846 -0.5588
C9 C -1.0274(10) 0.1758(4) -0.7950(12)
C10 C -0.7936(11) 0.2151(5) -0.6739(12)
C11 C -0.7011(11) 0.0845(5) -0.5208(12)
H9 H -0.7225 0.0631 -0.4556
C12 C -0.7696(10) 0.1299(4) -0.5573(13)
H10 H -0.8363 0.1379 -0.5191
C13 C -0.7358(10) 0.1624(4) -0.6510(11)
C14 C -0.6335(10) 0.1491(4) -0.7031(12)
H11 H -0.6054 0.1707 -0.7636
C15 C -0.5763(10) 0.1033(5) -0.6618(12)
H12 H -0.5093 0.0944 -0.6986
C16 C -1.2534(13) 0.0581(5) -1.5578(13)
Co1_2 Co -0.5000 0.0000 -0.5000
Co1_3 Co -2.5000 0.0000 -2.5000
S1A S -1.9903(3) -0.11991(13) -2.1007(4)
S2A S -1.8820(5) -0.0936(2) -1.4477(7)
N1A N -1.5870(8) -0.0530(4) -1.7243(10)
N2A N -1.8578(8) -0.1937(3) -2.2115(9)
N3A N -2.0713(8) -0.2154(3) -2.2985(9)
N4A N -2.3933(8) -0.0707(3) -2.4246(9)
N4_2 N -1.6067(8) 0.0707(3) -1.5754(9)
N4A_2 N -1.3933(8) -0.0707(3) -1.4246(9)
N5A N -1.6544(9) -0.0327(4) -1.4356(10)
O1A O -1.6464(7) -0.1803(4) -2.2034(9)
O2A O -2.2764(8) -0.2583(3) -2.3477(11)
C1A C -1.5744(13) -0.0382(5) -1.8520(16)
H1A H -1.5322 -0.0031 -1.8467
C2A C -1.6226(13) -0.0738(6) -1.9905(13)
H2A H -1.6104 -0.0628 -2.0764
C3A C -1.6881(10) -0.1253(4) -2.0029(11)
C4A C -1.7023(11) -0.1405(4) -1.8705(12)
H3A H -1.7477 -0.1747 -1.8735
C5A C -1.6478(11) -0.1036(5) -1.7367(13)
H4A H -1.6537 -0.1147 -1.6479
C6A C -1.7297(12) -0.1674(5) -2.1470(12)
C7A C -1.8849(10) -0.2436(4) -2.3262(11)
H5A H -1.8828 -0.2347 -2.4231
H6A H -1.8226 -0.2695 -2.2920
C8A C -2.0191(10) -0.2657(4) -2.3381(12)
H7A H -2.0169 -0.2910 -2.2665
H8A H -2.0701 -0.2846 -2.4412
C9A C -1.9726(10) -0.1758(4) -2.2050(12)
C10A C -2.2064(11) -0.2151(5) -2.3261(12)
C11A C -2.2989(11) -0.0845(5) -2.4792(12)
H9A H -2.2775 -0.0631 -2.5444
C12A C -2.2304(10) -0.1299(4) -2.4427(13)
H10A H -2.1637 -0.1379 -2.4809
C13A C -2.2642(10) -0.1624(4) -2.3490(11)
C14A C -2.3665(10) -0.1491(4) -2.2969(12)
H11A H -2.3946 -0.1707 -2.2364
C15A C -2.4237(10) -0.1033(5) -2.3382(12)
H12A H -2.4907 -0.0944 -2.3014
C16A C -1.7466(13) -0.0581(5) -1.4422(13)
Co2 Co 0.0000 0.5000 0.5000
S3 S -0.3985(3) 0.42220(11) -0.2163(3)
S4 S -0.0470(4) 0.33608(15) 0.6962(4)
N6 N -0.1123(8) 0.4457(4) 0.2864(9)
N7 N -0.3427(8) 0.3164(3) -0.2409(9)
N8 N -0.4441(8) 0.3425(3) -0.4602(9)
N9 N -0.8215(8) 0.4618(3) -0.5076(9)
N10 N -0.0479(10) 0.4405(4) 0.6245(12)
O3 O -0.2672(13) 0.2682(4) -0.0512(10)
O4 O -0.5073(8) 0.3631(4) -0.6964(9)
C17 C -0.0671(11) 0.4402(5) 0.1696(12)
H13 H 0.0043 0.4647 0.1733
C18 C -0.1238(11) 0.3992(5) 0.0447(12)
H14 H -0.0896 0.3960 -0.0343
C19 C -0.2293(11) 0.3632(4) 0.0344(11)
C20 C -0.2800(10) 0.3694(5) 0.1515(11)
H15 H -0.3538 0.3463 0.1475
C21 C -0.2172(11) 0.4110(5) 0.2739(11)
H16 H -0.2504 0.4151 0.3537
C22 C -0.2793(13) 0.3119(5) -0.0867(14)
C23 C -0.3682(12) 0.2669(4) -0.3581(11)
H17 H -0.4434 0.2420 -0.3611
H18 H -0.2918 0.2472 -0.3399
C24 C -0.3962(11) 0.2902(5) -0.5020(12)
H19 H -0.3171 0.2970 -0.5272
H20 H -0.4632 0.2659 -0.5873
C25 C -0.3971(9) 0.3604(4) -0.3058(11)
C26 C -0.5190(10) 0.3700(5) -0.5742(13)
C27 C -0.7420(11) 0.4795(4) -0.5784(11)
H21 H -0.7555 0.5125 -0.6167
C28 C -0.6400(10) 0.4520(5) -0.5990(11)
H22 H -0.5886 0.4661 -0.6513
C29 C -0.6164(9) 0.4040(4) -0.5413(11)
C30 C -0.6939(9) 0.3839(4) -0.4649(11)
H23 H -0.6793 0.3516 -0.4233
C31 C -0.7968(11) 0.4141(5) -0.4519(12)
H24 H -0.8506 0.4003 -0.4021
C32 C -0.0555(11) 0.4027(6) 0.6500(12)
Co2_2 Co -1.0000 0.5000 -0.5000
Co2_3 Co 1.0000 0.5000 1.5000
S3A S 0.3985(3) 0.57780(11) 1.2163(3)
S4A S 0.0470(4) 0.66392(15) 0.3038(4)
N6A N 0.1123(8) 0.5543(4) 0.7136(9)
N7A N 0.3427(8) 0.6836(3) 1.2409(9)
N8A N 0.4441(8) 0.6575(3) 1.4602(9)
N9A N 0.8215(8) 0.5382(3) 1.5076(9)
N9_2 N 0.1785(8) 0.4618(3) 0.4924(9)
N9A_2 N -0.1785(8) 0.5382(3) 0.5076(9)
N10A N 0.0479(10) 0.5595(4) 0.3755(12)
O3A O 0.2672(13) 0.7318(4) 1.0512(10)
O4A O 0.5073(8) 0.6369(4) 1.6964(9)
C17A C 0.0671(11) 0.5598(5) 0.8304(12)
H13A H -0.0043 0.5353 0.8267
C18A C 0.1238(11) 0.6008(5) 0.9553(12)
H14A H 0.0896 0.6040 1.0343
C19A C 0.2293(11) 0.6368(4) 0.9656(11)
C20A C 0.2800(10) 0.6306(5) 0.8485(11)
H15A H 0.3538 0.6537 0.8525
C21A C 0.2172(11) 0.5890(5) 0.7261(11)
H16A H 0.2504 0.5849 0.6463
C22A C 0.2793(13) 0.6881(5) 1.0867(14)
C23A C 0.3682(12) 0.7331(4) 1.3581(11)
H17A H 0.4434 0.7580 1.3611
H18A H 0.2918 0.7528 1.3399
C24A C 0.3962(11) 0.7098(5) 1.5020(12)
H19A H 0.3171 0.7030 1.5272
H20A H 0.4632 0.7341 1.5873
C25A C 0.3971(9) 0.6396(4) 1.3058(11)
C26A C 0.5190(10) 0.6300(5) 1.5742(13)
C27A C 0.7420(11) 0.5205(4) 1.5784(11)
H21A H 0.7555 0.4875 1.6167
C28A C 0.6400(10) 0.5480(5) 1.5990(11)
H22A H 0.5886 0.5339 1.6513
C29A C 0.6164(9) 0.5960(4) 1.5413(11)
C30A C 0.6939(9) 0.6161(4) 1.4649(11)
H23A H 0.6793 0.6484 1.4233
C31A C 0.7968(11) 0.5859(5) 1.4519(12)
H24A H 0.8506 0.5997 1.4021
C32A C 0.0555(11) 0.5973(6) 0.3500(12)
N11 N -0.962(3) 0.0278(11) -1.215(3)
C33 C -0.842(3) 0.0419(10) -1.143(3)
C34 C -0.735(3) 0.0812(11) -1.121(3)
O5 O -1.772(4) 0.4438(17) -2.001(4)
C35 C -1.680(5) 0.417(2) -2.035(6)
O6 O -1.670(3) 0.2666(11) -1.258(3)
C36 C -1.654(7) 0.235(2) -1.155(6)
loop_
_geom_bond_atom_site_label_1
_geom_bond_atom_site_label_2
_geom_bond_site_symmetry_1
_geom_bond_site_symmetry_2
Co1 N1 1_555 1_555
S1 C9 1_555 1_555
S2 C16 1_555 1_555
N1 C1 1_555 1_555
N2 C6 1_555 1_555
N3 C8 1_555 1_555
N4 C11 1_555 1_555
N5 Co1 1_555 1_555
O1 C6 1_555 1_555
O2 C10 1_555 1_555
C1 H1 1_555 1_555
C2 C1 1_555 1_555
H2 C2 1_555 1_555
C3 C2 1_555 1_555
C4 C3 1_555 1_555
H3 C4 1_555 1_555
C5 N1 1_555 1_555
H4 C5 1_555 1_555
C6 C3 1_555 1_555
C7 N2 1_555 1_555
H5 C7 1_555 1_555
H6 C7 1_555 1_555
C8 C7 1_555 1_555
H7 C8 1_555 1_555
H8 C8 1_555 1_555
C9 N2 1_555 1_555
C10 N3 1_555 1_555
C11 H9 1_555 1_555
C12 C11 1_555 1_555
H10 C12 1_555 1_555
C13 C10 1_555 1_555
C14 C13 1_555 1_555
H11 C14 1_555 1_555
C15 N4 1_555 1_555
H12 C15 1_555 1_555
C16 N5 1_555 1_555
Co2 N6 1_555 1_555
S3 C25 1_555 1_555
S4 C32 1_555 1_555
N6 C17 1_555 1_555
N7 C22 1_555 1_555
N8 C24 1_555 1_555
N9 C27 1_555 1_555
N10 Co2 1_555 1_555
O3 C22 1_555 1_555
O4 C26 1_555 1_555
C17 H13 1_555 1_555
C18 C17 1_555 1_555
H14 C18 1_555 1_555
C19 C18 1_555 1_555
C20 C19 1_555 1_555
H15 C20 1_555 1_555
C21 N6 1_555 1_555
H16 C21 1_555 1_555
C22 C19 1_555 1_555
C23 N7 1_555 1_555
H17 C23 1_555 1_555
H18 C23 1_555 1_555
C24 C23 1_555 1_555
H19 C24 1_555 1_555
H20 C24 1_555 1_555
C25 N7 1_555 1_555
C26 N8 1_555 1_555
C27 H21 1_555 1_555
C28 C27 1_555 1_555
H22 C28 1_555 1_555
C29 C26 1_555 1_555
C30 C29 1_555 1_555
H23 C30 1_555 1_555
C31 N9 1_555 1_555
H24 C31 1_555 1_555
C32 N10 1_555 1_555
N11 C33 1_555 1_555
C33 C34 1_555 1_555
O5 C35 1_555 1_555
O6 C36 1_555 1_555
Co1_2 N4 1_555 1_555
Co1_3 N4A 1_555 1_555
S1A C9A 1_555 1_555
S2A C16A 1_555 1_555
N1A Co1 1_555 1_555
N2A C6A 1_555 1_555
N3A C8A 1_555 1_555
N4A C11A 1_555 1_555
N4_2 Co1 1_555 1_555
N4A_2 Co1 1_555 1_555
N5A Co1 1_555 1_555
O1A C6A 1_555 1_555
O2A C10A 1_555 1_555
C1A N1A 1_555 1_555
H1A C1A 1_555 1_555
C2A C1A 1_555 1_555
H2A C2A 1_555 1_555
C3A C2A 1_555 1_555
C4A C3A 1_555 1_555
H3A C4A 1_555 1_555
C5A N1A 1_555 1_555
H4A C5A 1_555 1_555
C6A C3A 1_555 1_555
C7A N2A 1_555 1_555
H5A C7A 1_555 1_555
H6A C7A 1_555 1_555
C8A C7A 1_555 1_555
H7A C8A 1_555 1_555
H8A C8A 1_555 1_555
C9A N2A 1_555 1_555
C10A N3A 1_555 1_555
C11A H9A 1_555 1_555
C12A C11A 1_555 1_555
H10A C12A 1_555 1_555
C13A C10A 1_555 1_555
C14A C13A 1_555 1_555
H11A C14A 1_555 1_555
C15A N4A 1_555 1_555
H12A C15A 1_555 1_555
C16A N5A 1_555 1_555
Co2_2 N9 1_555 1_555
Co2_3 N9A 1_555 1_555
S3A C25A 1_555 1_555
S4A C32A 1_555 1_555
N6A Co2 1_555 1_555
N7A C22A 1_555 1_555
N8A C24A 1_555 1_555
N9A C27A 1_555 1_555
N9_2 Co2 1_555 1_555
N9A_2 Co2 1_555 1_555
N10A Co2 1_555 1_555
O3A C22A 1_555 1_555
O4A C26A 1_555 1_555
C17A N6A 1_555 1_555
H13A C17A 1_555 1_555
C18A C17A 1_555 1_555
H14A C18A 1_555 1_555
C19A C18A 1_555 1_555
C20A C19A 1_555 1_555
H15A C20A 1_555 1_555
C21A N6A 1_555 1_555
H16A C21A 1_555 1_555
C22A C19A 1_555 1_555
C23A N7A 1_555 1_555
H17A C23A 1_555 1_555
H18A C23A 1_555 1_555
C24A C23A 1_555 1_555
H19A C24A 1_555 1_555
H20A C24A 1_555 1_555
C25A N7A 1_555 1_555
C26A N8A 1_555 1_555
C27A H21A 1_555 1_555
C28A C27A 1_555 1_555
H22A C28A 1_555 1_555
C29A C26A 1_555 1_555
C30A C29A 1_555 1_555
H23A C30A 1_555 1_555
C31A N9A 1_555 1_555
H24A C31A 1_555 1_555
C32A N10A 1_555 1_555
N3 C9 1_555 1_555
C4 C5 1_555 1_555
C12 C13 1_555 1_555
C14 C15 1_555 1_555
N8 C25 1_555 1_555
C20 C21 1_555 1_555
C28 C29 1_555 1_555
C30 C31 1_555 1_555
N3A C9A 1_555 1_555
C4A C5A 1_555 1_555
C12A C13A 1_555 1_555
C14A C15A 1_555 1_555
N8A C25A 1_555 1_555
C20A C21A 1_555 1_555
C28A C29A 1_555 1_555
C30A C31A 1_555 1_555

#END
