
#######################################################################
#
#                 Cambridge Crystallographic Data Centre
#                                CCDC 
#
#######################################################################
#
# If this CIF has been generated from an entry in the Cambridge 
# Structural Database, then it will include bibliographic, chemical, 
# crystal, experimental, refinement or atomic coordinate data resulting 
# from the CCDC's data processing and validation procedures.
#
#######################################################################

data_UCUNEM
_symmetry_cell_setting           triclinic
_symmetry_space_group_name_H-M   'P -1'
_symmetry_Int_Tables_number      2
_space_group_name_Hall           '-P 1'
loop_
_symmetry_equiv_pos_site_id
_symmetry_equiv_pos_as_xyz
1 x,y,z
2 -x,-y,-z
_cell_length_a                   10.22180(10)
_cell_length_b                   10.32140(10)
_cell_length_c                   13.3150(2)
_cell_angle_alpha                71.8660(10)
_cell_angle_beta                 71.3660(10)
_cell_angle_gamma                65.06
_cell_volume                     1181.26
loop_
_atom_site_label
_atom_site_type_symbol
_atom_site_fract_x
_atom_site_fract_y
_atom_site_fract_z
Pb1 Pb 0.94242(8) 0.07256(8) 0.13669(6)
Pb2 Pb 1.45426(8) 0.29008(8) 0.19375(6)
Pb3 Pb 1.02668(8) 0.42979(8) 0.36335(6)
S1 S 1.7244(5) -0.5357(5) 0.0586(4)
S2 S 1.2602(5) 1.0447(5) 0.4208(4)
O1 O 1.1760(15) -0.1386(15) 0.1163(13)
O2 O 1.1856(15) 0.0400(16) 0.1652(12)
O3 O 1.6694(15) 0.0562(15) 0.1512(12)
O4 O 1.8771(14) -0.1112(15) 0.0888(12)
O5 O 1.6601(15) -0.6255(14) 0.1543(12)
O6 O 1.8794(15) -0.5783(14) 0.0469(13)
O7 O 1.6836(16) -0.5317(16) -0.0378(12)
O8 O 0.8570(18) 0.1784(16) 0.3166(12)
O9 O 0.9171(19) -0.1106(17) 0.3045(12)
O10 O 1.5455(18) 0.2070(18) 0.3448(15)
O11 O 1.2920(15) 0.4773(15) 0.3090(13)
O12 O 1.0949(15) 0.6079(15) 0.4151(11)
O13 O 1.7858(16) 0.4570(15) 0.3302(14)
O14 O 1.7920(16) 0.6328(16) 0.3884(14)
O15 O 1.3192(17) 1.1265(16) 0.3205(12)
O16 O 1.1014(17) 1.0918(15) 0.4382(15)
O17 O 1.310(2) 1.0495(16) 0.5084(13)
O18 O 1.0417(17) 0.6216(16) 0.1985(12)
O19 O 1.127(2) 0.3283(16) 0.1773(12)
C1 C 1.4127(19) -0.151(2) 0.1200(14)
C2 C 1.498(2) -0.080(2) 0.1255(16)
H1 H 1.4514 0.0136 0.1404
C3 C 1.649(2) -0.142(2) 0.1097(14)
C4 C 1.723(2) -0.284(2) 0.0863(14)
H2 H 1.8256 -0.3280 0.0756
C5 C 1.6385(19) -0.3558(19) 0.0800(14)
C6 C 1.485(2) -0.289(2) 0.0959(14)
H3 H 1.4300 -0.3381 0.0902
C7 C 1.249(2) -0.082(2) 0.1342(14)
C8 C 1.740(2) -0.060(2) 0.1152(15)
C9 C 1.321(2) 0.650(2) 0.3771(14)
C10 C 1.477(2) 0.582(2) 0.3625(15)
H4 H 1.5225 0.4885 0.3474
C11 C 1.561(2) 0.651(2) 0.3702(16)
C12 C 1.493(2) 0.789(2) 0.3942(14)
H5 H 1.5487 0.8347 0.4035
C13 C 1.336(2) 0.860(2) 0.4046(15)
C14 C 1.254(2) 0.789(2) 0.3992(15)
H6 H 1.1519 0.8335 0.4106
C15 C 1.232(2) 0.569(2) 0.3675(15)
C16 C 1.720(2) 0.575(2) 0.3623(15)
Pb1_2 Pb 1.94242(8) 0.07256(8) 0.13669(6)
Pb2_2 Pb 1.45426(8) -0.70992(8) 0.19375(6)
Pb2_3 Pb 1.45426(8) 1.29008(8) 0.19375(6)
Pb3_2 Pb 2.02668(8) 0.42979(8) 0.36335(6)
O4_2 O 0.8771(14) -0.1112(15) 0.0888(12)
O5_2 O 1.6601(15) 0.3745(14) 0.1543(12)
O13_2 O 0.7858(16) 0.4570(15) 0.3302(14)
O14_2 O 0.7920(16) 0.6328(16) 0.3884(14)
O15_2 O 1.3192(17) 0.1265(16) 0.3205(12)
loop_
_geom_bond_atom_site_label_1
_geom_bond_atom_site_label_2
_geom_bond_site_symmetry_1
_geom_bond_site_symmetry_2
Pb1 O1 1_555 1_555
Pb2 O3 1_555 1_555
Pb3 O12 1_555 1_555
S1 O5 1_555 1_555
S2 O15 1_555 1_555
O1 C7 1_555 1_555
O2 Pb1 1_555 1_555
O3 C8 1_555 1_555
O4 C8 1_555 1_555
O5 Pb2_2 1_555 1_555
O6 S1 1_555 1_555
O7 S1 1_555 1_555
O8 Pb1 1_555 1_555
O9 Pb1 1_555 1_555
O10 Pb2 1_555 1_555
O11 Pb2 1_555 1_555
O12 C15 1_555 1_555
O13 C16 1_555 1_555
O14 C16 1_555 1_555
O15 Pb2_3 1_555 1_555
O16 S2 1_555 1_555
O17 S2 1_555 1_555
O18 Pb3 1_555 1_555
O19 Pb3 1_555 1_555
C1 C2 1_555 1_555
C2 H1 1_555 1_555
C3 C2 1_555 1_555
C4 C3 1_555 1_555
H2 C4 1_555 1_555
C5 S1 1_555 1_555
C6 C1 1_555 1_555
H3 C6 1_555 1_555
C7 O2 1_555 1_555
C8 C3 1_555 1_555
C9 C10 1_555 1_555
C10 H4 1_555 1_555
C11 C10 1_555 1_555
C12 C11 1_555 1_555
H5 C12 1_555 1_555
C13 S2 1_555 1_555
C14 C9 1_555 1_555
H6 C14 1_555 1_555
C15 O11 1_555 1_555
C16 C11 1_555 1_555
Pb1_2 O4 1_555 1_555
Pb3_2 O13 1_555 1_555
O4_2 Pb1 1_555 1_555
O5_2 Pb2 1_555 1_555
O13_2 Pb3 1_555 1_555
O14_2 Pb3 1_555 1_555
O15_2 Pb2 1_555 1_555
O14 Pb3_2 1_555 1_555
C1 C7 1_555 1_555
C4 C5 1_555 1_555
C5 C6 1_555 1_555
C9 C15 1_555 1_555
C12 C13 1_555 1_555
C13 C14 1_555 1_555

#END
