
#######################################################################
#
#                 Cambridge Crystallographic Data Centre
#                                CCDC 
#
#######################################################################
#
# If this CIF has been generated from an entry in the Cambridge 
# Structural Database, then it will include bibliographic, chemical, 
# crystal, experimental, refinement or atomic coordinate data resulting 
# from the CCDC's data processing and validation procedures.
#
#######################################################################

data_UCUPIR
_symmetry_cell_setting           orthorhombic
_symmetry_space_group_name_H-M   'P n m a'
_symmetry_Int_Tables_number      62
_space_group_name_Hall           '-P 2ac 2n'
loop_
_symmetry_equiv_pos_site_id
_symmetry_equiv_pos_as_xyz
1 x,y,z
2 1/2+x,y,1/2-z
3 x,1/2-y,z
4 1/2-x,1/2+y,1/2+z
5 -x,-y,-z
6 1/2-x,-y,1/2+z
7 -x,1/2+y,-z
8 1/2+x,1/2-y,1/2-z
_cell_length_a                   10.3082(10)
_cell_length_b                   6.2577(6)
_cell_length_c                   16.486(2)
_cell_angle_alpha                90
_cell_angle_beta                 90
_cell_angle_gamma                90
_cell_volume                     1063.44
loop_
_atom_site_label
_atom_site_type_symbol
_atom_site_fract_x
_atom_site_fract_y
_atom_site_fract_z
Al1 Al 0.36908(14) 0.2500 0.58443(9)
P1 P 0.56368(12) 0.2500 0.42877(7)
O1 O 0.2469(4) 0.2500 0.6736(2)
O2 O 0.2256(4) 0.2500 0.5128(2)
O3 O 0.4997(3) 0.2500 0.6664(2)
O4 O 0.5014(4) 0.2500 0.5120(2)
O5 O 0.6479(2) 0.0521(4) 0.41601(14)
N1 N 0.4140(5) 0.2500 0.1200(3)
C1 C 0.3734(5) 0.2500 0.2072(3)
H1 H 0.3203(5) 0.1248 0.2174(3)
C2 C 0.4872(5) 0.2500 0.2663(3)
H2 H 0.5405(5) 0.3756 0.2572(3)
C3 C 0.4371(5) 0.2500 0.3532(3)
H3 H 0.3830(5) 0.1249 0.3612(3)
O5B O 0.6479(2) 0.4479(4) 0.41601(14)
H1B H 0.3203(5) 0.3752 0.2174(3)
H2B H 0.5405(5) 0.1244 0.2572(3)
H3B H 0.3830(5) 0.3751 0.3612(3)
O5D O 0.3521(2) -0.0521(4) 0.58399(14)
O5F O 0.3521(2) 0.5521(4) 0.58399(14)
Al1D Al 0.63092(14) -0.2500 0.41557(9)
Al1D_2 Al 0.63092(14) 0.7500 0.41557(9)
S1 S -0.11949(11) 0.2500 0.61767(7)
O6 O -0.0081(4) 0.2500 0.6745(2)
O7 O -0.2393(4) 0.2500 0.6661(2)
O8 O -0.1109(3) 0.0594(6) 0.5680(2)
O8B O -0.1109(3) 0.4406(6) 0.5680(2)
loop_
_geom_bond_atom_site_label_1
_geom_bond_atom_site_label_2
_geom_bond_site_symmetry_1
_geom_bond_site_symmetry_2
Al1 O1 1_555 1_555
S1 O6 1_555 1_555
P1 O4 1_555 1_555
O2 Al1 1_555 1_555
O3 Al1 1_555 1_555
O4 Al1 1_555 1_555
O5 P1 1_555 1_555
O7 S1 1_555 1_555
O8 S1 1_555 1_555
N1 C1 1_555 1_555
C1 H1 1_555 1_555
C2 C1 1_555 1_555
H2 C2 1_555 1_555
C3 P1 1_555 1_555
H3 C3 1_555 1_555
O8B S1 1_555 1_555
O5B P1 1_555 1_555
H1B C1 1_555 1_555
H2B C2 1_555 1_555
H3B C3 1_555 1_555
O5D Al1 1_555 1_555
O5F Al1 1_555 1_555
Al1D O5 1_555 1_555
Al1D_2 O5B 1_555 1_555
C2 C3 1_555 1_555

#END
