
#######################################################################
#
#                 Cambridge Crystallographic Data Centre
#                                CCDC 
#
#######################################################################
#
# If this CIF has been generated from an entry in the Cambridge 
# Structural Database, then it will include bibliographic, chemical, 
# crystal, experimental, refinement or atomic coordinate data resulting 
# from the CCDC's data processing and validation procedures.
#
#######################################################################

data_UCUQIT
_symmetry_cell_setting           monoclinic
_symmetry_space_group_name_H-M   'C 2/c'
_symmetry_Int_Tables_number      15
_space_group_name_Hall           '-C 2yn'
loop_
_symmetry_equiv_pos_site_id
_symmetry_equiv_pos_as_xyz
1 x,y,z
2 1/2+x,1/2+y,z
3 -x,y,1/2-z
4 1/2-x,1/2+y,1/2-z
5 -x,-y,-z
6 1/2-x,1/2-y,-z
7 x,-y,1/2+z
8 1/2+x,1/2-y,1/2+z
_cell_length_a                   16.9334(11)
_cell_length_b                   12.9383(9)
_cell_length_c                   13.4633(8)
_cell_angle_alpha                90
_cell_angle_beta                 102.1990(10)
_cell_angle_gamma                90
_cell_volume                     2883.06
loop_
_atom_site_label
_atom_site_type_symbol
_atom_site_fract_x
_atom_site_fract_y
_atom_site_fract_z
Cu1 Cu 0.55321(2) 0.40918(3) 0.44700(2)
O1 O 0.44698(12) 0.38779(15) 0.34828(16)
O2 O 0.49073(12) 0.41440(13) 0.55306(15)
N1 N 0.33577(16) 0.40643(16) -0.03349(19)
C1 C 0.26680(19) 0.3886(2) 0.0001(2)
C2 C 0.19459(19) 0.3725(2) -0.0696(2)
H1 H 0.1466 0.3592 -0.0458
N2 N 0.32441(15) 0.39047(17) 0.18743(19)
N3 N 0.40298(15) 0.39289(17) 0.17268(19)
O3 O 0.49586(13) 0.24460(16) 0.54655(16)
C3 C 0.1916(2) 0.3754(3) -0.1722(2)
H2 H 0.1424 0.3627 -0.2194
C4 C 0.2606(2) 0.3970(2) -0.2051(3)
H3 H 0.2601 0.4013 -0.2757
C5 C 0.3308(2) 0.4124(2) -0.1343(2)
H4 H 0.3786 0.4281 -0.1578
C6 C 0.26523(18) 0.3874(2) 0.1103(2)
C7 C 0.18454(19) 0.3836(3) 0.1387(3)
H5 H 0.1920 0.3832 0.2129
H6 H 0.1560 0.3207 0.1107
H7 H 0.1528 0.4444 0.1111
C8 C 0.45770(19) 0.39024(19) 0.2586(2)
C9 C 0.46888(18) 0.3242(2) 0.5774(2)
C10 C 0.4093(2) 0.3217(2) 0.6449(2)
H8 H 0.3969 0.2497 0.6585
H9 H 0.3597 0.3571 0.6113
H10 H 0.4323 0.3566 0.7091
Cu1B Cu 0.44679(2) 0.40918(3) 0.05300(2)
Cu1D Cu 0.44679(2) 0.59082(3) 0.55300(2)
O1B O 0.55302(12) 0.38779(15) 0.15172(16)
O2D O 0.50927(12) 0.58560(13) 0.44694(15)
O2F O 0.49073(12) 0.58560(13) 0.05306(15)
O2B O 0.50927(12) 0.41440(13) -0.05306(15)
N1B N 0.66423(16) 0.40643(16) 0.53349(19)
C1B C 0.73320(19) 0.3886(2) 0.4999(2)
C2B C 0.80541(19) 0.3725(2) 0.5696(2)
H1B H 0.8534 0.3592 0.5458
N2B N 0.67559(15) 0.39047(17) 0.31257(19)
N3B N 0.59702(15) 0.39289(17) 0.32732(19)
O3D O 0.50414(13) 0.75540(16) 0.45345(16)
C3B C 0.8084(2) 0.3754(3) 0.6722(2)
H2B H 0.8576 0.3627 0.7194
C4B C 0.7394(2) 0.3970(2) 0.7051(3)
H3B H 0.7399 0.4013 0.7757
C5B C 0.6692(2) 0.4124(2) 0.6343(2)
H4B H 0.6214 0.4281 0.6578
C6B C 0.73477(18) 0.3874(2) 0.3897(2)
C7B C 0.81546(19) 0.3836(3) 0.3613(3)
H5B H 0.8080 0.3832 0.2871
H6B H 0.8440 0.3207 0.3893
H7B H 0.8472 0.4444 0.3889
C8B C 0.54230(19) 0.39024(19) 0.2414(2)
C9D C 0.53112(18) 0.6758(2) 0.4226(2)
C10D C 0.5907(2) 0.6783(2) 0.3551(2)
H8D H 0.6031 0.7503 0.3415
H9D H 0.6403 0.6429 0.3887
H10D H 0.5677 0.6434 0.2909
O4 O 0.30652(18) 0.11316(19) 0.4929(2)
H11 H 0.3518 0.0942 0.5386
H12 H 0.3283 0.1538 0.4485
O5 O 0.20475(17) 0.2009(2) 0.6042(2)
H13 H 0.1794 0.1594 0.6475
H14 H 0.2311 0.1528 0.5837
O6 O 0.48778(16) 0.1429(2) 0.3523(2)
H15 H 0.4882 0.1909 0.4003
H16 H 0.5087 0.1554 0.3170
O7 O 0.4680(2) 0.0630(2) 0.6436(2)
H17 H 0.4952 0.0182 0.6185
H18 H 0.4882 0.1119 0.6062
loop_
_geom_bond_atom_site_label_1
_geom_bond_atom_site_label_2
_geom_bond_site_symmetry_1
_geom_bond_site_symmetry_2
Cu1 O1 1_555 1_555
O1 C8 1_555 1_555
O2 Cu1 1_555 1_555
N1 C1 1_555 1_555
C1 C2 1_555 1_555
C2 H1 1_555 1_555
N2 N3 1_555 1_555
N3 C8 1_555 1_555
O3 C9 1_555 1_555
C3 C2 1_555 1_555
H2 C3 1_555 1_555
C4 C3 1_555 1_555
H3 C4 1_555 1_555
C5 N1 1_555 1_555
H4 C5 1_555 1_555
C6 C1 1_555 1_555
C7 C6 1_555 1_555
H5 C7 1_555 1_555
H6 C7 1_555 1_555
H7 C7 1_555 1_555
C8 C8B 1_555 1_555
C9 O2 1_555 1_555
C10 C9 1_555 1_555
H8 C10 1_555 1_555
H9 C10 1_555 1_555
H10 C10 1_555 1_555
O4 H11 1_555 1_555
H12 O4 1_555 1_555
O5 H13 1_555 1_555
H14 O5 1_555 1_555
O6 H15 1_555 1_555
H16 O6 1_555 1_555
O7 H17 1_555 1_555
H18 O7 1_555 1_555
Cu1B N1 1_555 1_555
Cu1D O2 1_555 1_555
O1B Cu1B 1_555 1_555
O2D Cu1 1_555 1_555
O2F Cu1B 1_555 1_555
O2B Cu1B 1_555 1_555
N1B Cu1 1_555 1_555
C1B N1B 1_555 1_555
C2B C1B 1_555 1_555
H1B C2B 1_555 1_555
N2B N3B 1_555 1_555
N3B Cu1 1_555 1_555
O3D C9D 1_555 1_555
C3B C2B 1_555 1_555
H2B C3B 1_555 1_555
C4B C3B 1_555 1_555
H3B C4B 1_555 1_555
C5B N1B 1_555 1_555
H4B C5B 1_555 1_555
C6B C1B 1_555 1_555
C7B C6B 1_555 1_555
H5B C7B 1_555 1_555
H6B C7B 1_555 1_555
H7B C7B 1_555 1_555
C8B O1B 1_555 1_555
C9D O2D 1_555 1_555
C10D C9D 1_555 1_555
H8D C10D 1_555 1_555
H9D C10D 1_555 1_555
H10D C10D 1_555 1_555
N2 C6 1_555 1_555
N3 Cu1B 1_555 1_555
C4 C5 1_555 1_555
Cu1D O2D 1_555 1_555
N2B C6B 1_555 1_555
N3B C8B 1_555 1_555
C4B C5B 1_555 1_555

#END
