
#######################################################################
#
#                 Cambridge Crystallographic Data Centre
#                                CCDC 
#
#######################################################################
#
# If this CIF has been generated from an entry in the Cambridge 
# Structural Database, then it will include bibliographic, chemical, 
# crystal, experimental, refinement or atomic coordinate data resulting 
# from the CCDC's data processing and validation procedures.
#
#######################################################################

data_UCURIU
_symmetry_cell_setting           monoclinic
_symmetry_space_group_name_H-M   'P 21/n'
_symmetry_Int_Tables_number      14
_space_group_name_Hall           '-P 2yn'
loop_
_symmetry_equiv_pos_site_id
_symmetry_equiv_pos_as_xyz
1 x,y,z
2 1/2-x,1/2+y,1/2-z
3 -x,-y,-z
4 1/2+x,1/2-y,1/2+z
_cell_length_a                   12.8187(2)
_cell_length_b                   12.5064(2)
_cell_length_c                   13.2012(3)
_cell_angle_alpha                90
_cell_angle_beta                 91.6700(10)
_cell_angle_gamma                90
_cell_volume                     2115.46
loop_
_atom_site_label
_atom_site_type_symbol
_atom_site_fract_x
_atom_site_fract_y
_atom_site_fract_z
U1 U 1.32310(3) -0.40934(2) -0.34787(2)
U2 U 1.28727(2) -0.05316(2) -0.38771(2)
U3 U 1.24248(3) -0.70044(2) -0.36791(2)
O1 O 1.3992(6) -0.3361(5) -0.4986(5)
O2 O 1.3624(7) -0.1620(6) -0.5165(5)
O3 O 1.2694(6) 0.0453(5) -0.5444(5)
O4 O 1.3037(7) 0.2191(5) -0.5198(5)
O5 O 1.2499(5) -0.5506(4) -0.2750(4)
O6 O 1.3247(6) -0.5575(4) -0.4578(5)
O7 O 1.3483(5) -0.2222(4) -0.2982(4)
O8 O 1.1963(5) -0.3696(5) -0.3913(5)
O9 O 1.4558(5) -0.4364(5) -0.3101(5)
O10 O 1.4127(6) 0.0014(6) -0.3628(5)
O11 O 1.1625(6) -0.1099(5) -0.4214(5)
O12 O 1.3073(5) -0.3860(4) -0.1557(4)
O13 O 1.1197(6) -0.6721(5) -0.4274(5)
O14 O 1.3596(6) -0.7404(5) -0.3069(5)
N1 N 1.4537(6) -0.3628(6) -0.8016(6)
N2 N 1.3928(8) 0.2594(8) -0.8135(6)
C1 C 1.4310(7) -0.3563(7) -0.7021(7)
H1 H 1.4280 -0.4180 -0.6630
C2 C 1.4122(6) -0.2577(7) -0.6588(6)
C3 C 1.4228(7) -0.1667(7) -0.7184(7)
H2 H 1.4159 -0.0994 -0.6895
C4 C 1.4430(9) -0.1756(9) -0.8187(8)
H3 H 1.4454 -0.1150 -0.8594
C5 C 1.4601(9) -0.2768(9) -0.8599(7)
H4 H 1.4758 -0.2838 -0.9279
C6 C 1.3882(7) -0.2519(7) -0.5484(6)
C7 C 1.3689(9) 0.2440(8) -0.7156(7)
H5 H 1.3839 0.2973 -0.6683
C8 C 1.3218(7) 0.1490(7) -0.6838(6)
C9 C 1.3000(7) 0.0713(7) -0.7541(7)
H6 H 1.2680 0.0080 -0.7348
C10 C 1.3257(8) 0.0869(8) -0.8539(7)
H7 H 1.3122 0.0347 -0.9027
C11 C 1.3724(9) 0.1834(9) -0.8792(8)
H8 H 1.3900 0.1943 -0.9462
C12 C 1.2961(7) 0.1369(7) -0.5739(6)
U2A U 1.21273(2) -0.55316(2) -0.11229(2)
U3_2 U 1.24248(3) 0.29956(2) -0.36791(2)
U3A U 1.25752(3) -0.20044(2) -0.13209(2)
O4_2 O 1.3037(7) -0.7809(5) -0.5198(5)
O5A O 1.2501(5) -0.0506(4) -0.2250(4)
O7A O 1.1517(5) -0.7222(4) -0.2018(4)
O12A O 1.1927(5) 0.1140(4) -0.3443(4)
O12A_2 O 1.1927(5) -0.8860(4) -0.3443(4)
O15 O 1.0242(5) -0.0616(5) 0.4026(5)
loop_
_geom_bond_atom_site_label_1
_geom_bond_atom_site_label_2
_geom_bond_site_symmetry_1
_geom_bond_site_symmetry_2
U1 O1 1_555 1_555
U2 O2 1_555 1_555
U3 O5 1_555 1_555
O1 C6 1_555 1_555
O2 C6 1_555 1_555
O3 U2 1_555 1_555
O4 C12 1_555 1_555
O5 U1 1_555 1_555
O6 U1 1_555 1_555
O7 U1 1_555 1_555
O8 U1 1_555 1_555
O9 U1 1_555 1_555
O10 U2 1_555 1_555
O11 U2 1_555 1_555
O12 U1 1_555 1_555
O13 U3 1_555 1_555
O14 U3 1_555 1_555
N1 C1 1_555 1_555
N2 C7 1_555 1_555
C1 H1 1_555 1_555
C2 C1 1_555 1_555
C3 C2 1_555 1_555
H2 C3 1_555 1_555
C4 C3 1_555 1_555
H3 C4 1_555 1_555
C5 N1 1_555 1_555
H4 C5 1_555 1_555
C6 C2 1_555 1_555
C7 H5 1_555 1_555
C8 C7 1_555 1_555
C9 C8 1_555 1_555
H6 C9 1_555 1_555
C10 C9 1_555 1_555
H7 C10 1_555 1_555
C11 N2 1_555 1_555
H8 C11 1_555 1_555
C12 O3 1_555 1_555
U2A O5 1_555 1_555
U3_2 O4 1_555 1_555
U3A O7 1_555 1_555
O4_2 U3 1_555 1_555
O5A U2 1_555 1_555
O7A U3 1_555 1_555
O12A U2 1_555 1_555
O12A_2 U3 1_555 1_555
U2 O7 1_555 1_555
U3 O6 1_555 1_555
O12 U2A 1_555 1_555
O12 U3A 1_555 1_555
C4 C5 1_555 1_555
C8 C12 1_555 1_555
C10 C11 1_555 1_555
U2A O7A 1_555 1_555
U3_2 O12A 1_555 1_555
U3A O5A 1_555 1_555

#END
