
#######################################################################
#
#                 Cambridge Crystallographic Data Centre
#                                CCDC 
#
#######################################################################
#
# If this CIF has been generated from an entry in the Cambridge 
# Structural Database, then it will include bibliographic, chemical, 
# crystal, experimental, refinement or atomic coordinate data resulting 
# from the CCDC's data processing and validation procedures.
#
#######################################################################

data_UCUYIA
_symmetry_cell_setting           monoclinic
_symmetry_space_group_name_H-M   'C 2/c'
_symmetry_Int_Tables_number      15
_space_group_name_Hall           '-C 2yn'
loop_
_symmetry_equiv_pos_site_id
_symmetry_equiv_pos_as_xyz
1 x,y,z
2 1/2+x,1/2+y,z
3 x,-y,1/2+z
4 1/2+x,1/2-y,1/2+z
5 -x,-y,-z
6 1/2-x,1/2-y,-z
7 -x,y,1/2-z
8 1/2-x,1/2+y,1/2-z
_cell_length_a                   19.869(2)
_cell_length_b                   9.639(2)
_cell_length_c                   18.821(2)
_cell_angle_alpha                90
_cell_angle_beta                 95.72(2)
_cell_angle_gamma                90
_cell_volume                     3586.6
loop_
_atom_site_label
_atom_site_type_symbol
_atom_site_fract_x
_atom_site_fract_y
_atom_site_fract_z
Co1 Co 0.0000 0.30913(6) 0.2500
N1 N 0.04173(15) 0.3060(3) 0.15379(15)
C1 C 0.07505(15) 0.2933(3) 0.10712(16)
O1 O 0.10817(13) 0.2797(3) 0.05777(14)
N2 N -0.07366(14) 0.1492(3) 0.21200(14)
C2 C -0.11244(18) 0.1612(4) 0.14926(18)
C3 C -0.16573(18) 0.0740(4) 0.12911(18)
C4 C -0.18106(15) -0.0344(3) 0.17282(18)
C5 C -0.1399(2) -0.0495(4) 0.23632(19)
C6 C -0.0886(2) 0.0420(4) 0.25329(19)
C7 C -0.23933(17) -0.1311(4) 0.1520(2)
C8 C -0.21967(19) -0.2506(4) 0.1037(2)
C9 C -0.0580(2) -0.4485(4) 0.1539(2)
C10 C -0.1045(2) -0.3582(4) 0.1198(2)
C11 C -0.16788(17) -0.3476(3) 0.14078(18)
C12 C -0.18107(19) -0.4289(5) 0.1978(2)
C13 C -0.1322(2) -0.5161(4) 0.2295(2)
N3 N -0.07137(14) -0.5287(3) 0.20789(15)
H1 H -0.0978(17) 0.229(4) 0.1224(19)
H2 H -0.1923(18) 0.089(4) 0.0865(19)
H3 H -0.1482(18) -0.126(4) 0.2680(19)
H4 H -0.0583(18) 0.029(4) 0.2986(18)
H5 H -0.259(2) -0.182(5) 0.193(3)
H6 H -0.2755(19) -0.078(4) 0.1246(19)
H7 H -0.261(2) -0.298(4) 0.087(2)
H8 H -0.2015(19) -0.202(4) 0.057(2)
H9 H -0.010(2) -0.452(4) 0.141(2)
H10 H -0.090(2) -0.306(5) 0.085(3)
H11 H -0.225(2) -0.425(4) 0.212(2)
H12 H -0.140(2) -0.567(5) 0.270(2)
N1F N -0.04173(15) 0.3060(3) 0.34621(15)
C1F C -0.07505(15) 0.2933(3) 0.39288(16)
O1F O -0.10817(13) 0.2797(3) 0.44223(14)
N2F N 0.07366(14) 0.1492(3) 0.28800(14)
C2F C 0.11244(18) 0.1612(4) 0.35074(18)
C3F C 0.16573(18) 0.0740(4) 0.37089(18)
C4F C 0.18106(15) -0.0344(3) 0.32718(18)
C5F C 0.1399(2) -0.0495(4) 0.26368(19)
C6F C 0.0886(2) 0.0420(4) 0.24671(19)
C7F C 0.23933(17) -0.1311(4) 0.3480(2)
C8F C 0.21967(19) -0.2506(4) 0.3963(2)
C9F C 0.0580(2) -0.4485(4) 0.3461(2)
C10F C 0.1045(2) -0.3582(4) 0.3802(2)
C11F C 0.16788(17) -0.3476(3) 0.35922(18)
C12F C 0.18107(19) -0.4289(5) 0.3022(2)
C13F C 0.1322(2) -0.5161(4) 0.2705(2)
N3F N 0.07137(14) -0.5287(3) 0.29211(15)
H1F H 0.0978(17) 0.229(4) 0.3776(19)
H2F H 0.1923(18) 0.089(4) 0.4135(19)
H3F H 0.1482(18) -0.126(4) 0.2320(19)
H4F H 0.0583(18) 0.029(4) 0.2014(18)
H5F H 0.259(2) -0.182(5) 0.307(3)
H6F H 0.2755(19) -0.078(4) 0.3754(19)
H7F H 0.261(2) -0.298(4) 0.413(2)
H8F H 0.2015(19) -0.202(4) 0.443(2)
H9F H 0.010(2) -0.452(4) 0.359(2)
H10F H 0.090(2) -0.306(5) 0.415(3)
H11F H 0.225(2) -0.425(4) 0.288(2)
H12F H 0.140(2) -0.567(5) 0.230(2)
N3_2 N -0.07137(14) 0.4713(3) 0.20789(15)
N3F_2 N 0.07137(14) 0.4713(3) 0.29211(15)
Co1_2 Co 0.0000 -0.69087(6) 0.2500
N4 N 0.17809(19) 0.6929(4) 0.0591(2)
C14 C 0.1833(2) 0.8279(5) 0.0696(3)
C15 C 0.1298(2) 0.9194(5) 0.0625(2)
C16 C 0.06505(17) 0.8701(4) 0.04478(17)
C17 C 0.0592(2) 0.7289(4) 0.0330(2)
C18 C 0.1156(3) 0.6464(5) 0.0409(3)
C19 C 0.00430(18) 0.9659(4) 0.03661(19)
H13 H 0.227(3) 0.871(5) 0.078(2)
H14 H 0.137(2) 1.010(5) 0.069(2)
H15 H 0.020(2) 0.696(5) 0.016(3)
H16 H 0.112(2) 0.557(6) 0.031(3)
H17 H -0.038(2) 0.911(5) 0.042(2)
H18 H 0.010(2) 1.039(5) 0.074(2)
C19D C -0.00430(18) 1.0341(4) -0.03661(19)
C16D C -0.06505(17) 1.1299(4) -0.04478(17)
C15D C -0.1298(2) 1.0806(5) -0.0625(2)
C14D C -0.1833(2) 1.1721(5) -0.0696(3)
N4D N -0.17809(19) 1.3071(4) -0.0591(2)
C18D C -0.1156(3) 1.3536(5) -0.0409(3)
C17D C -0.0592(2) 1.2711(4) -0.0330(2)
H15D H -0.020(2) 1.304(5) -0.016(3)
H16D H -0.112(2) 1.443(6) -0.031(3)
H13D H -0.227(3) 1.129(5) -0.078(2)
H14D H -0.137(2) 0.990(5) -0.069(2)
H17D H 0.038(2) 1.089(5) -0.042(2)
H18D H -0.010(2) 0.961(5) -0.074(2)
loop_
_geom_bond_atom_site_label_1
_geom_bond_atom_site_label_2
_geom_bond_site_symmetry_1
_geom_bond_site_symmetry_2
Co1 N1 1_555 1_555
N1 C1 1_555 1_555
C1 O1 1_555 1_555
N2 Co1 1_555 1_555
C2 N2 1_555 1_555
C3 C2 1_555 1_555
C4 C3 1_555 1_555
C5 C4 1_555 1_555
C6 N2 1_555 1_555
C7 C4 1_555 1_555
C8 C7 1_555 1_555
C9 C10 1_555 1_555
C10 C11 1_555 1_555
C11 C8 1_555 1_555
C12 C11 1_555 1_555
C13 C12 1_555 1_555
N3 C9 1_555 1_555
N4 C14 1_555 1_555
C14 C15 1_555 1_555
C15 C16 1_555 1_555
C16 C17 1_555 1_555
C17 C18 1_555 1_555
C18 N4 1_555 1_555
C19 C16 1_555 1_555
H1 C2 1_555 1_555
H2 C3 1_555 1_555
H3 C5 1_555 1_555
H4 C6 1_555 1_555
H5 C7 1_555 1_555
H6 C7 1_555 1_555
H7 C8 1_555 1_555
H8 C8 1_555 1_555
H9 C9 1_555 1_555
H10 C10 1_555 1_555
H11 C12 1_555 1_555
H12 C13 1_555 1_555
H13 C14 1_555 1_555
H14 C15 1_555 1_555
H15 C17 1_555 1_555
H16 C18 1_555 1_555
H17 C19 1_555 1_555
H18 C19 1_555 1_555
C19D C19 1_555 1_555
C16D C19D 1_555 1_555
C15D C16D 1_555 1_555
C14D C15D 1_555 1_555
N4D C14D 1_555 1_555
C18D N4D 1_555 1_555
C17D C16D 1_555 1_555
H15D C17D 1_555 1_555
H16D C18D 1_555 1_555
H13D C14D 1_555 1_555
H14D C15D 1_555 1_555
H17D C19D 1_555 1_555
H18D C19D 1_555 1_555
N1F Co1 1_555 1_555
C1F N1F 1_555 1_555
O1F C1F 1_555 1_555
N2F Co1 1_555 1_555
C2F N2F 1_555 1_555
C3F C2F 1_555 1_555
C4F C3F 1_555 1_555
C5F C4F 1_555 1_555
C6F N2F 1_555 1_555
C7F C4F 1_555 1_555
C8F C7F 1_555 1_555
C9F C10F 1_555 1_555
C10F C11F 1_555 1_555
C11F C8F 1_555 1_555
C12F C11F 1_555 1_555
C13F C12F 1_555 1_555
N3F C9F 1_555 1_555
H1F C2F 1_555 1_555
H2F C3F 1_555 1_555
H3F C5F 1_555 1_555
H4F C6F 1_555 1_555
H5F C7F 1_555 1_555
H6F C7F 1_555 1_555
H7F C8F 1_555 1_555
H8F C8F 1_555 1_555
H9F C9F 1_555 1_555
H10F C10F 1_555 1_555
H11F C12F 1_555 1_555
H12F C13F 1_555 1_555
N3_2 Co1 1_555 1_555
N3F_2 Co1 1_555 1_555
Co1_2 N3 1_555 1_555
C5 C6 1_555 1_555
C13 N3 1_555 1_555
C18D C17D 1_555 1_555
C5F C6F 1_555 1_555
C13F N3F 1_555 1_555
N3F Co1_2 1_555 1_555

#END
