
#######################################################################
#
#                 Cambridge Crystallographic Data Centre
#                                CCDC 
#
#######################################################################
#
# If this CIF has been generated from an entry in the Cambridge 
# Structural Database, then it will include bibliographic, chemical, 
# crystal, experimental, refinement or atomic coordinate data resulting 
# from the CCDC's data processing and validation procedures.
#
#######################################################################

data_UDATIE
_symmetry_cell_setting           monoclinic
_symmetry_space_group_name_H-M   'C 2/c'
_symmetry_Int_Tables_number      15
_space_group_name_Hall           '-C 2yn'
loop_
_symmetry_equiv_pos_site_id
_symmetry_equiv_pos_as_xyz
1 x,y,z
2 -x,y,1/2-z
3 1/2+x,1/2+y,z
4 1/2-x,1/2+y,1/2-z
5 -x,-y,-z
6 x,-y,1/2+z
7 1/2-x,1/2-y,-z
8 1/2+x,1/2-y,1/2+z
_cell_length_a                   29.810(4)
_cell_length_b                   9.1745(12)
_cell_length_c                   8.3049(11)
_cell_angle_alpha                90
_cell_angle_beta                 105.891(2)
_cell_angle_gamma                90
_cell_volume                     2184.52
loop_
_atom_site_label
_atom_site_type_symbol
_atom_site_fract_x
_atom_site_fract_y
_atom_site_fract_z
Cu1 Cu 0.214765(15) -0.01235(5) 0.08214(6)
O1 O 0.0000 0.1162(5) 0.2500
O2 O 0.24469(9) 0.1692(3) 0.1856(3)
O3 O 0.27941(9) 0.3761(3) 0.1478(3)
O4 O 0.19200(9) -0.2011(3) -0.0246(3)
O5 O 0.22197(9) -0.4083(3) -0.0906(3)
N1 N 0.15087(11) 0.0538(4) 0.0892(4)
N2 N 0.02057(19) 0.3449(6) 0.2236(9)
C1 C 0.07033(15) 0.1506(5) 0.1586(6)
C2 C 0.08197(16) 0.0051(5) 0.1723(6)
H1 H 0.0630 -0.0621 0.2059
C3 C 0.12211(15) -0.0396(5) 0.1354(6)
H2 H 0.1295 -0.1383 0.1428
C4 C 0.13828(15) 0.1934(5) 0.0687(6)
H3 H 0.1573 0.2575 0.0305
C5 C 0.09889(16) 0.2470(5) 0.1011(7)
H4 H 0.0912 0.3452 0.0852
C6 C 0.03044(17) 0.2098(6) 0.2078(8)
C7 C 0.25714(12) 0.2634(4) 0.0961(4)
C8 C 0.22512(13) -0.2810(4) -0.0333(4)
Cu1F Cu 0.285235(15) 0.51235(5) -0.08214(6)
Cu1C Cu 0.285235(15) 0.48765(5) 0.41786(6)
Cu1F_2 Cu 0.285235(15) -0.48765(5) -0.08214(6)
Cu1A Cu -0.214765(15) -0.01235(5) 0.41786(6)
Cu1E Cu 0.214765(15) 0.01235(5) -0.41786(6)
O2F O 0.25531(9) 0.3308(3) -0.1856(3)
O3F O 0.22059(9) 0.1239(3) -0.1478(3)
O3C O 0.22059(9) -0.1239(3) 0.3522(3)
O3E O 0.27941(9) 0.6239(3) -0.3522(3)
O4F O 0.30800(9) -0.2989(3) 0.0246(3)
O4F_2 O 0.30800(9) 0.7011(3) 0.0246(3)
O5F O 0.27803(9) -0.0917(3) 0.0906(3)
O5_2 O 0.22197(9) 0.5917(3) -0.0906(3)
N1A N -0.15087(11) 0.0538(4) 0.4108(4)
N1F N 0.34913(11) 0.4462(4) -0.0892(4)
N2A N -0.02057(19) 0.3449(6) 0.2764(9)
C1A C -0.07033(15) 0.1506(5) 0.3414(6)
C2A C -0.08197(16) 0.0051(5) 0.3277(6)
H1A H -0.0630 -0.0621 0.2941
C3A C -0.12211(15) -0.0396(5) 0.3646(6)
H2A H -0.1295 -0.1383 0.3572
C4A C -0.13828(15) 0.1934(5) 0.4313(6)
H3A H -0.1573 0.2575 0.4695
C5A C -0.09889(16) 0.2470(5) 0.3989(7)
H4A H -0.0912 0.3452 0.4148
C6A C -0.03044(17) 0.2098(6) 0.2922(8)
C7F C 0.24286(12) 0.2366(4) -0.0961(4)
C8F C 0.27488(13) -0.2190(4) 0.0333(4)
O6 O 0.1478(2) 0.4280(7) 0.6702(8)
H5 H 0.1634 0.4961 0.7293
H6 H 0.1373 0.4438 0.5657
O7 O 0.0513(4) 0.3452(13) 0.6751(13)
H7 H 0.0734 0.3808 0.7529
H8 H 0.0491 0.3741 0.5760
loop_
_geom_bond_atom_site_label_1
_geom_bond_atom_site_label_2
_geom_bond_site_symmetry_1
_geom_bond_site_symmetry_2
Cu1 O2 1_555 1_555
O1 C6 1_555 1_555
O2 C7 1_555 1_555
O3 C7 1_555 1_555
O4 Cu1 1_555 1_555
O5 C8 1_555 1_555
N1 Cu1 1_555 1_555
N2 C6 1_555 1_555
C1 C2 1_555 1_555
C2 H1 1_555 1_555
C3 N1 1_555 1_555
H2 C3 1_555 1_555
C4 N1 1_555 1_555
H3 C4 1_555 1_555
C5 C1 1_555 1_555
H4 C5 1_555 1_555
C6 C1 1_555 1_555
C7 C7F 1_555 1_555
C8 O4 1_555 1_555
O6 H5 1_555 1_555
H6 O6 1_555 1_555
O7 H7 1_555 1_555
H8 O7 1_555 1_555
Cu1F O3 1_555 1_555
Cu1C O3 1_555 1_555
Cu1F_2 O5 1_555 1_555
Cu1A N1A 1_555 1_555
Cu1E O3F 1_555 1_555
O2F Cu1F 1_555 1_555
O3F Cu1 1_555 1_555
O3C Cu1 1_555 1_555
O3E Cu1F 1_555 1_555
O4F Cu1F_2 1_555 1_555
O4F_2 Cu1F 1_555 1_555
O5F Cu1 1_555 1_555
O5_2 Cu1F 1_555 1_555
N1A C3A 1_555 1_555
N1F Cu1F 1_555 1_555
N2A N2 1_555 1_555
C1A C2A 1_555 1_555
C2A H1A 1_555 1_555
C3A C2A 1_555 1_555
H2A C3A 1_555 1_555
C4A N1A 1_555 1_555
H3A C4A 1_555 1_555
C5A C1A 1_555 1_555
H4A C5A 1_555 1_555
C6A O1 1_555 1_555
C7F O2F 1_555 1_555
C8F C8 1_555 1_555
C2 C3 1_555 1_555
C4 C5 1_555 1_555
O3F C7F 1_555 1_555
O4F C8F 1_555 1_555
O5F C8F 1_555 1_555
N2A C6A 1_555 1_555
C1A C6A 1_555 1_555
C4A C5A 1_555 1_555

#END
