
#######################################################################
#
#                 Cambridge Crystallographic Data Centre
#                                CCDC 
#
#######################################################################
#
# If this CIF has been generated from an entry in the Cambridge 
# Structural Database, then it will include bibliographic, chemical, 
# crystal, experimental, refinement or atomic coordinate data resulting 
# from the CCDC's data processing and validation procedures.
#
#######################################################################

data_UDAVAY
_symmetry_cell_setting           triclinic
_symmetry_space_group_name_H-M   'P -1'
_symmetry_Int_Tables_number      2
_space_group_name_Hall           '-P 1'
loop_
_symmetry_equiv_pos_site_id
_symmetry_equiv_pos_as_xyz
1 x,y,z
2 -x,-y,-z
_cell_length_a                   14.188(7)
_cell_length_b                   15.174(8)
_cell_length_c                   16.069(7)
_cell_angle_alpha                76.896(10)
_cell_angle_beta                 79.473(10)
_cell_angle_gamma                66.342(9)
_cell_volume                     3069.86
loop_
_atom_site_label
_atom_site_type_symbol
_atom_site_fract_x
_atom_site_fract_y
_atom_site_fract_z
C1 C 0.0166(3) 0.4723(2) 0.6296(2)
C2 C -0.0896(3) 0.6449(2) 0.5063(2)
C3 C 0.1274(3) 0.5353(3) 0.4727(3)
C4 C 0.0071(3) 0.1374(3) 0.9594(2)
C5 C 0.1091(3) -0.0451(3) 0.9011(2)
C6 C -0.1153(3) 0.0376(3) 0.9212(2)
C7 C -0.1162(3) 0.4987(3) 0.9114(2)
C8 C -0.1245(3) 0.5684(3) 0.9584(2)
H1 H -0.0653 0.5697 0.9743
C9 C -0.2212(3) 0.6361(3) 0.9816(2)
H2 H -0.2268 0.6827 1.0130
C10 C -0.3096(3) 0.6341(3) 0.9577(2)
H3 H -0.3743 0.6794 0.9732
C11 C -0.3013(3) 0.5644(3) 0.9107(2)
H4 H -0.3605 0.5631 0.8948
C12 C -0.2046(3) 0.4967(3) 0.8876(2)
C13 C -0.2009(3) 0.4304(3) 0.8364(3)
H5 H -0.2636 0.4371 0.8207
C14 C -0.1280(3) 0.2928(3) 0.7620(3)
H6 H -0.1373 0.2380 0.8024
H7 H -0.1879 0.3251 0.7298
C15 C -0.0348(3) 0.2573(3) 0.7031(3)
H8 H -0.0404 0.3029 0.6494
H9 H -0.0263 0.1946 0.6910
C16 C 0.1424(3) 0.1909(3) 0.71916(19)
H10 H 0.1459 0.1545 0.6784
C17 C 0.2388(3) 0.1765(2) 0.7479(2)
C18 C 0.3289(3) 0.1071(3) 0.7150(3)
H11 H 0.3237 0.0718 0.6769
C19 C 0.4220(3) 0.0895(3) 0.7363(3)
H12 H 0.4809 0.0422 0.7141
C20 C 0.4289(3) 0.1433(3) 0.7922(3)
H13 H 0.4936 0.1323 0.8070
C21 C 0.3437(3) 0.2121(3) 0.8260(2)
H14 H 0.3512 0.2460 0.8642
C22 C 0.2428(3) 0.2331(2) 0.80393(19)
C23 C -0.4207(2) 0.8622(2) 0.6066(2)
C24 C -0.5210(3) 0.8988(3) 0.5796(3)
H15 H -0.5315 0.9327 0.5239
C25 C -0.6030(3) 0.8856(3) 0.6332(3)
H16 H -0.6680 0.9116 0.6135
C26 C -0.5907(3) 0.8339(3) 0.7167(2)
H17 H -0.6466 0.8250 0.7527
C27 C -0.4935(3) 0.7964(3) 0.7444(3)
H18 H -0.4847 0.7623 0.8002
C28 C -0.4075(3) 0.8079(2) 0.6913(2)
C29 C -0.3114(3) 0.7623(3) 0.7258(2)
H19 H -0.3078 0.7224 0.7793
C30 C -0.1285(3) 0.7175(3) 0.7235(2)
H20 H -0.0912 0.6582 0.6994
H21 H -0.1403 0.6999 0.7853
C31 C -0.0685(3) 0.7824(3) 0.7014(2)
H22 H -0.0954 0.8313 0.7384
H23 H 0.0035 0.7442 0.7103
C32 C -0.0018(3) 0.8416(3) 0.5633(2)
H24 H 0.0618 0.8165 0.5853
C33 C -0.0048(3) 0.8905(3) 0.4763(2)
C34 C 0.0878(3) 0.8886(3) 0.4327(2)
H25 H 0.1484 0.8547 0.4592
C35 C 0.0913(3) 0.9388(3) 0.3464(3)
H26 H 0.1544 0.9351 0.3152
C36 C 0.0017(3) 0.9918(3) 0.3104(2)
H27 H 0.0034 1.0271 0.2550
C37 C -0.0907(3) 0.9940(3) 0.3542(2)
H28 H -0.1514 1.0302 0.3283
C38 C -0.0953(3) 0.9411(2) 0.4398(2)
C39 C 0.2655(3) 0.6266(3) 0.6588(3)
C40 C 0.2385(3) 0.7085(3) 0.6947(3)
H29 H 0.2526 0.7615 0.6618
C41 C 0.1924(3) 0.7154(3) 0.7758(3)
H30 H 0.1766 0.7722 0.7974
C42 C 0.1678(3) 0.6372(3) 0.8285(3)
H31 H 0.1356 0.6413 0.8841
C43 C 0.1938(3) 0.5551(3) 0.7932(2)
H32 H 0.1776 0.5029 0.8256
C44 C 0.2434(3) 0.5471(3) 0.7108(2)
C45 C 0.2701(3) 0.4547(3) 0.6830(3)
H33 H 0.2515 0.4065 0.7205
C46 C 0.3406(3) 0.3397(3) 0.5864(3)
H34 H 0.3508 0.2900 0.6376
H35 H 0.2831 0.3419 0.5602
C47 C 0.4340(3) 0.3168(3) 0.5263(3)
H36 H 0.4396 0.2657 0.4965
H37 H 0.4948 0.2946 0.5566
C48 C 0.4644(3) 0.4047(3) 0.3834(3)
H38 H 0.4938 0.3439 0.3662
C49 C 0.4649(3) 0.4874(3) 0.3211(3)
C50 C 0.5006(3) 0.4734(3) 0.2339(3)
H39 H 0.5225 0.4114 0.2201
C51 C 0.5028(3) 0.5494(4) 0.1712(3)
H40 H 0.5249 0.5394 0.1147
C52 C 0.4722(3) 0.6425(3) 0.1910(3)
H41 H 0.4751 0.6941 0.1479
C53 C 0.4373(4) 0.6580(3) 0.2749(3)
H42 H 0.4143 0.7207 0.2875
C54 C 0.4368(3) 0.5782(3) 0.3421(3)
C55 C -0.3412(3) 1.0848(3) 0.6091(3)
H43 H -0.3316 1.0903 0.5477
H44 H -0.3099 1.1227 0.6259
H45 H -0.4139 1.1085 0.6280
Cr1 Cr 0.0000 0.5000 0.5000
Cr2 Cr 0.0000 0.0000 1.0000
Mn1 Mn 0.02302(4) 0.33597(3) 0.82762(3)
Mn2 Mn -0.21378(4) 0.85815(3) 0.57466(3)
Mn3 Mn 0.34819(5) 0.52810(4) 0.51202(4)
N1 N 0.0247(2) 0.4538(2) 0.70214(18)
N2 N -0.1386(2) 0.7238(2) 0.51031(19)
N3 N 0.2008(3) 0.5538(2) 0.46435(19)
N4 N 0.0127(2) 0.2118(2) 0.93345(18)
N5 N 0.1697(3) -0.0738(3) 0.8452(2)
N6 N -0.1770(3) 0.0564(3) 0.8775(2)
N7 N -0.1199(2) 0.3621(2) 0.80952(19)
N8 N 0.0542(2) 0.2475(2) 0.74372(18)
N9 N -0.2280(2) 0.7738(2) 0.68612(18)
N10 N -0.0765(2) 0.8289(2) 0.61345(18)
N11 N 0.3183(2) 0.4359(2) 0.60900(19)
N12 N 0.4252(2) 0.4082(2) 0.4641(2)
O1 O -0.0213(2) 0.43374(18) 0.89574(15)
O2 O 0.16440(17) 0.30090(16) 0.83544(14)
O3 O -0.34610(17) 0.87770(19) 0.55160(15)
O4 O -0.18723(18) 0.94295(16) 0.47635(14)
O5 O 0.3090(2) 0.62368(19) 0.57945(17)
O6 O 0.4033(2) 0.5985(2) 0.42142(17)
O7 O -0.2953(2) 0.98696(18) 0.64642(17)
H52 H -0.2498 0.9859 0.6749
C1A C -0.0166(3) 0.5277(2) 0.3704(2)
C2A C 0.0896(3) 0.3551(2) 0.4937(2)
C3A C -0.1274(3) 0.4647(3) 0.5273(3)
C4A C -0.0071(3) 0.8626(3) 0.0406(2)
C4A_2 C -0.0071(3) -0.1374(3) 1.0406(2)
C5A C -0.1091(3) 0.0451(3) 1.0989(2)
C6A C 0.1153(3) -0.0376(3) 1.0788(2)
C7A C 0.1162(3) 0.5013(3) 0.0886(2)
C8A C 0.1245(3) 0.4316(3) 0.0416(2)
H1A H 0.0653 0.4303 0.0257
C9A C 0.2212(3) 0.3639(3) 0.0184(2)
H2A H 0.2268 0.3173 -0.0130
C10A C 0.3096(3) 0.3659(3) 0.0423(2)
H3A H 0.3743 0.3206 0.0268
C11A C 0.3013(3) 0.4356(3) 0.0893(2)
H4A H 0.3605 0.4369 0.1052
C12A C 0.2046(3) 0.5033(3) 0.1124(2)
C13A C 0.2009(3) 0.5696(3) 0.1636(3)
H5A H 0.2636 0.5629 0.1793
C14A C 0.1280(3) 0.7072(3) 0.2380(3)
H6A H 0.1373 0.7620 0.1976
H7A H 0.1879 0.6749 0.2702
C15A C 0.0348(3) 0.7427(3) 0.2969(3)
H8A H 0.0404 0.6971 0.3506
H9A H 0.0263 0.8054 0.3090
C16A C -0.1424(3) 0.8091(3) 0.28084(19)
H10A H -0.1459 0.8455 0.3216
C17A C -0.2388(3) 0.8235(2) 0.2521(2)
C18A C -0.3289(3) 0.8929(3) 0.2850(3)
H11A H -0.3237 0.9282 0.3231
C19A C -0.4220(3) 0.9105(3) 0.2637(3)
H12A H -0.4809 0.9578 0.2859
C20A C -0.4289(3) 0.8567(3) 0.2078(3)
H13A H -0.4936 0.8677 0.1930
C21A C -0.3437(3) 0.7879(3) 0.1740(2)
H14A H -0.3512 0.7540 0.1358
C22A C -0.2428(3) 0.7669(2) 0.19607(19)
C23A C 0.4207(2) 0.1378(2) 0.3934(2)
C24A C 0.5210(3) 0.1012(3) 0.4204(3)
H15A H 0.5315 0.0673 0.4761
C25A C 0.6030(3) 0.1144(3) 0.3668(3)
H16A H 0.6680 0.0884 0.3865
C26A C 0.5907(3) 0.1661(3) 0.2833(2)
H17A H 0.6466 0.1750 0.2473
C27A C 0.4935(3) 0.2036(3) 0.2556(3)
H18A H 0.4847 0.2377 0.1998
C28A C 0.4075(3) 0.1921(2) 0.3087(2)
C29A C 0.3114(3) 0.2377(3) 0.2742(2)
H19A H 0.3078 0.2776 0.2207
C30A C 0.1285(3) 0.2825(3) 0.2765(2)
H20A H 0.0912 0.3418 0.3006
H21A H 0.1403 0.3001 0.2147
C31A C 0.0685(3) 0.2176(3) 0.2986(2)
H22A H 0.0954 0.1687 0.2616
H23A H -0.0035 0.2558 0.2897
C32A C 0.0018(3) 0.1584(3) 0.4367(2)
H24A H -0.0618 0.1835 0.4147
C33A C 0.0048(3) 0.1095(3) 0.5237(2)
C34A C -0.0878(3) 0.1114(3) 0.5673(2)
H25A H -0.1484 0.1453 0.5408
C35A C -0.0913(3) 0.0612(3) 0.6536(3)
H26A H -0.1544 0.0649 0.6848
C36A C -0.0017(3) 0.0082(3) 0.6896(2)
H27A H -0.0034 -0.0271 0.7450
C37A C 0.0907(3) 0.0060(3) 0.6458(2)
H28A H 0.1514 -0.0302 0.6717
C38A C 0.0953(3) 0.0589(2) 0.5602(2)
C39A C -0.2655(3) 0.3734(3) 0.3412(3)
C40A C -0.2385(3) 0.2915(3) 0.3053(3)
H29A H -0.2526 0.2385 0.3382
C41A C -0.1924(3) 0.2846(3) 0.2242(3)
H30A H -0.1766 0.2278 0.2026
C42A C -0.1678(3) 0.3628(3) 0.1715(3)
H31A H -0.1356 0.3587 0.1159
C43A C -0.1938(3) 0.4449(3) 0.2068(2)
H32A H -0.1776 0.4971 0.1744
C44A C -0.2434(3) 0.4529(3) 0.2892(2)
C45A C -0.2701(3) 0.5453(3) 0.3170(3)
H33A H -0.2515 0.5935 0.2795
C46A C -0.3406(3) 0.6603(3) 0.4136(3)
H34A H -0.3508 0.7100 0.3624
H35A H -0.2831 0.6581 0.4398
C47A C -0.4340(3) 0.6832(3) 0.4737(3)
H36A H -0.4396 0.7343 0.5035
H37A H -0.4948 0.7054 0.4434
C48A C -0.4644(3) 0.5953(3) 0.6166(3)
H38A H -0.4938 0.6561 0.6338
C49A C -0.4649(3) 0.5126(3) 0.6789(3)
C50A C -0.5006(3) 0.5266(3) 0.7661(3)
H39A H -0.5225 0.5886 0.7799
C51A C -0.5028(3) 0.4506(4) 0.8288(3)
H40A H -0.5249 0.4606 0.8853
C52A C -0.4722(3) 0.3575(3) 0.8090(3)
H41A H -0.4751 0.3059 0.8521
C53A C -0.4373(4) 0.3420(3) 0.7251(3)
H42A H -0.4143 0.2793 0.7125
C54A C -0.4368(3) 0.4218(3) 0.6579(3)
C55A C 0.3412(3) -0.0848(3) 0.3909(3)
H43A H 0.3316 -0.0903 0.4523
H44A H 0.3099 -0.1227 0.3741
H45A H 0.4139 -0.1085 0.3720
Cr2_2 Cr 0.0000 1.0000 0.0000
Mn1A Mn -0.02302(4) 0.66403(3) 0.17238(3)
Mn2A Mn 0.21378(4) 0.14185(3) 0.42534(3)
Mn3A Mn -0.34819(5) 0.47190(4) 0.48798(4)
N1A N -0.0247(2) 0.5462(2) 0.29786(18)
N2A N 0.1386(2) 0.2762(2) 0.48969(19)
N3A N -0.2008(3) 0.4462(2) 0.53565(19)
N4A N -0.0127(2) 0.7882(2) 0.06655(18)
N5A N -0.1697(3) 0.0738(3) 1.1548(2)
N6A N 0.1770(3) -0.0564(3) 1.1225(2)
N7A N 0.1199(2) 0.6379(2) 0.19048(19)
N8A N -0.0542(2) 0.7525(2) 0.25628(18)
N9A N 0.2280(2) 0.2262(2) 0.31388(18)
N10A N 0.0765(2) 0.1711(2) 0.38655(18)
N11A N -0.3183(2) 0.5641(2) 0.39100(19)
N12A N -0.4252(2) 0.5918(2) 0.5359(2)
O1A O 0.0213(2) 0.56626(18) 0.10426(15)
O2A O -0.16440(17) 0.69910(16) 0.16456(14)
O3A O 0.34610(17) 0.12230(19) 0.44840(15)
O4A O 0.18723(18) 0.05705(16) 0.52365(14)
O5A O -0.3090(2) 0.37632(19) 0.42055(17)
O6A O -0.4033(2) 0.4015(2) 0.57858(17)
O7A O 0.2953(2) 0.01304(18) 0.35358(17)
H52A H 0.2498 0.0141 0.3251
C56 C 0.6779(3) 0.9187(3) 0.8761(2)
H46 H 0.7383 0.8630 0.8930
H47 H 0.6324 0.8977 0.8553
H48 H 0.6429 0.9503 0.9246
O8 O 0.7065(2) 0.98490(18) 0.81042(15)
H53 H 0.7194 1.0225 0.8318
C57 C 0.4035(3) 0.6625(3) 0.9477(3)
H49 H 0.4498 0.5954 0.9587
H50 H 0.3762 0.6755 0.8939
H51 H 0.3477 0.6747 0.9929
O9 O 0.4578(2) 0.7241(2) 0.94431(18)
H54 H 0.4228 0.7685 0.9841
O10 O 0.4990(4) 0.8701(4) 0.9962(3)
H55 H 0.4971 0.8489 1.0499
H56 H 0.4688 0.9319 0.9873
loop_
_geom_bond_atom_site_label_1
_geom_bond_atom_site_label_2
_geom_bond_site_symmetry_1
_geom_bond_site_symmetry_2
C1 Cr1 1_555 1_555
C2 Cr1 1_555 1_555
C3 Cr1 1_555 1_555
C4 Cr2 1_555 1_555
C5 Cr2 1_555 1_555
C6 Cr2 1_555 1_555
C7 C8 1_555 1_555
C8 H1 1_555 1_555
C9 C8 1_555 1_555
H2 C9 1_555 1_555
C10 C9 1_555 1_555
H3 C10 1_555 1_555
C11 C10 1_555 1_555
H4 C11 1_555 1_555
C12 C7 1_555 1_555
C13 C12 1_555 1_555
H5 C13 1_555 1_555
C14 H6 1_555 1_555
H7 C14 1_555 1_555
C15 C14 1_555 1_555
H8 C15 1_555 1_555
H9 C15 1_555 1_555
C16 H10 1_555 1_555
C17 C16 1_555 1_555
C18 C17 1_555 1_555
H11 C18 1_555 1_555
C19 C18 1_555 1_555
H12 C19 1_555 1_555
C20 C19 1_555 1_555
H13 C20 1_555 1_555
C21 C20 1_555 1_555
H14 C21 1_555 1_555
C22 C17 1_555 1_555
C23 C24 1_555 1_555
C24 H15 1_555 1_555
C25 C24 1_555 1_555
H16 C25 1_555 1_555
C26 C25 1_555 1_555
H17 C26 1_555 1_555
C27 C26 1_555 1_555
H18 C27 1_555 1_555
C28 C23 1_555 1_555
C29 C28 1_555 1_555
H19 C29 1_555 1_555
C30 H20 1_555 1_555
H21 C30 1_555 1_555
C31 C30 1_555 1_555
H22 C31 1_555 1_555
H23 C31 1_555 1_555
C32 H24 1_555 1_555
C33 C32 1_555 1_555
C34 C33 1_555 1_555
H25 C34 1_555 1_555
C35 C34 1_555 1_555
H26 C35 1_555 1_555
C36 C35 1_555 1_555
H27 C36 1_555 1_555
C37 C36 1_555 1_555
H28 C37 1_555 1_555
C38 C33 1_555 1_555
C39 C40 1_555 1_555
C40 H29 1_555 1_555
C41 C40 1_555 1_555
H30 C41 1_555 1_555
C42 C41 1_555 1_555
H31 C42 1_555 1_555
C43 C42 1_555 1_555
H32 C43 1_555 1_555
C44 C39 1_555 1_555
C45 C44 1_555 1_555
H33 C45 1_555 1_555
C46 H34 1_555 1_555
H35 C46 1_555 1_555
C47 C46 1_555 1_555
H36 C47 1_555 1_555
H37 C47 1_555 1_555
C48 H38 1_555 1_555
C49 C48 1_555 1_555
C50 C49 1_555 1_555
H39 C50 1_555 1_555
C51 C50 1_555 1_555
H40 C51 1_555 1_555
C52 C51 1_555 1_555
H41 C52 1_555 1_555
C53 C52 1_555 1_555
H42 C53 1_555 1_555
C54 C49 1_555 1_555
C55 H43 1_555 1_555
H44 C55 1_555 1_555
H45 C55 1_555 1_555
C56 H46 1_555 1_555
H47 C56 1_555 1_555
H48 C56 1_555 1_555
C57 H49 1_555 1_555
H50 C57 1_555 1_555
H51 C57 1_555 1_555
Cr1 C1A 1_555 1_555
Cr2 C4A_2 1_555 1_555
Mn1 N1 1_555 1_555
Mn2 N2 1_555 1_555
Mn3 N3 1_555 1_555
N1 C1 1_555 1_555
N2 C2 1_555 1_555
N3 C3 1_555 1_555
N4 C4 1_555 1_555
N5 C5 1_555 1_555
N6 C6 1_555 1_555
N7 C13 1_555 1_555
N8 C15 1_555 1_555
N9 C29 1_555 1_555
N10 C31 1_555 1_555
N11 C45 1_555 1_555
N12 C47 1_555 1_555
O1 C7 1_555 1_555
O2 C22 1_555 1_555
O3 C23 1_555 1_555
O4 C38 1_555 1_555
O5 C39 1_555 1_555
O6 C54 1_555 1_555
O7 C55 1_555 1_555
H52 O7 1_555 1_555
O8 C56 1_555 1_555
H53 O8 1_555 1_555
O9 C57 1_555 1_555
H54 O9 1_555 1_555
O10 H55 1_555 1_555
H56 O10 1_555 1_555
C1A N1A 1_555 1_555
C2A Cr1 1_555 1_555
C3A Cr1 1_555 1_555
C4A Cr2_2 1_555 1_555
C5A Cr2 1_555 1_555
C6A Cr2 1_555 1_555
C7A C8A 1_555 1_555
C8A H1A 1_555 1_555
C9A C8A 1_555 1_555
H2A C9A 1_555 1_555
C10A C9A 1_555 1_555
H3A C10A 1_555 1_555
C11A C10A 1_555 1_555
H4A C11A 1_555 1_555
C12A C7A 1_555 1_555
C13A C12A 1_555 1_555
H5A C13A 1_555 1_555
C14A H6A 1_555 1_555
H7A C14A 1_555 1_555
C15A C14A 1_555 1_555
H8A C15A 1_555 1_555
H9A C15A 1_555 1_555
C16A H10A 1_555 1_555
C17A C16A 1_555 1_555
C18A C17A 1_555 1_555
H11A C18A 1_555 1_555
C19A C18A 1_555 1_555
H12A C19A 1_555 1_555
C20A C19A 1_555 1_555
H13A C20A 1_555 1_555
C21A C20A 1_555 1_555
H14A C21A 1_555 1_555
C22A C17A 1_555 1_555
C23A C24A 1_555 1_555
C24A H15A 1_555 1_555
C25A C24A 1_555 1_555
H16A C25A 1_555 1_555
C26A C25A 1_555 1_555
H17A C26A 1_555 1_555
C27A C26A 1_555 1_555
H18A C27A 1_555 1_555
C28A C23A 1_555 1_555
C29A C28A 1_555 1_555
H19A C29A 1_555 1_555
C30A H20A 1_555 1_555
H21A C30A 1_555 1_555
C31A C30A 1_555 1_555
H22A C31A 1_555 1_555
H23A C31A 1_555 1_555
C32A H24A 1_555 1_555
C33A C32A 1_555 1_555
C34A C33A 1_555 1_555
H25A C34A 1_555 1_555
C35A C34A 1_555 1_555
H26A C35A 1_555 1_555
C36A C35A 1_555 1_555
H27A C36A 1_555 1_555
C37A C36A 1_555 1_555
H28A C37A 1_555 1_555
C38A C33A 1_555 1_555
C39A C40A 1_555 1_555
C40A H29A 1_555 1_555
C41A C40A 1_555 1_555
H30A C41A 1_555 1_555
C42A C41A 1_555 1_555
H31A C42A 1_555 1_555
C43A C42A 1_555 1_555
H32A C43A 1_555 1_555
C44A C39A 1_555 1_555
C45A C44A 1_555 1_555
H33A C45A 1_555 1_555
C46A H34A 1_555 1_555
H35A C46A 1_555 1_555
C47A C46A 1_555 1_555
H36A C47A 1_555 1_555
H37A C47A 1_555 1_555
C48A H38A 1_555 1_555
C49A C48A 1_555 1_555
C50A C49A 1_555 1_555
H39A C50A 1_555 1_555
C51A C50A 1_555 1_555
H40A C51A 1_555 1_555
C52A C51A 1_555 1_555
H41A C52A 1_555 1_555
C53A C52A 1_555 1_555
H42A C53A 1_555 1_555
C54A C49A 1_555 1_555
C55A H43A 1_555 1_555
H44A C55A 1_555 1_555
H45A C55A 1_555 1_555
Mn1A N1A 1_555 1_555
Mn2A N2A 1_555 1_555
Mn3A N3A 1_555 1_555
N2A C2A 1_555 1_555
N3A C3A 1_555 1_555
N4A C4A 1_555 1_555
N5A C5A 1_555 1_555
N6A C6A 1_555 1_555
N7A C13A 1_555 1_555
N8A C15A 1_555 1_555
N9A C29A 1_555 1_555
N10A C31A 1_555 1_555
N11A C45A 1_555 1_555
N12A C47A 1_555 1_555
O1A C7A 1_555 1_555
O2A C22A 1_555 1_555
O3A C23A 1_555 1_555
O4A C38A 1_555 1_555
O5A C39A 1_555 1_555
O6A C54A 1_555 1_555
O7A C55A 1_555 1_555
H52A O7A 1_555 1_555
C11 C12 1_555 1_555
C14 N7 1_555 1_555
C16 N8 1_555 1_555
C21 C22 1_555 1_555
C27 C28 1_555 1_555
C30 N9 1_555 1_555
C32 N10 1_555 1_555
C37 C38 1_555 1_555
C43 C44 1_555 1_555
C46 N11 1_555 1_555
C48 N12 1_555 1_555
C53 C54 1_555 1_555
Mn1 N4 1_555 1_555
Mn1 N7 1_555 1_555
Mn1 N8 1_555 1_555
Mn1 O1 1_555 1_555
Mn1 O2 1_555 1_555
Mn2 N9 1_555 1_555
Mn2 N10 1_555 1_555
Mn2 O3 1_555 1_555
Mn2 O4 1_555 1_555
Mn2 O7 1_555 1_555
Mn3 N11 1_555 1_555
Mn3 N12 1_555 1_555
Mn3 O5 1_555 1_555
Mn3 O6 1_555 1_555
C11A C12A 1_555 1_555
C14A N7A 1_555 1_555
C16A N8A 1_555 1_555
C21A C22A 1_555 1_555
C27A C28A 1_555 1_555
C30A N9A 1_555 1_555
C32A N10A 1_555 1_555
C37A C38A 1_555 1_555
C43A C44A 1_555 1_555
C46A N11A 1_555 1_555
C48A N12A 1_555 1_555
C53A C54A 1_555 1_555
Mn1A N4A 1_555 1_555
Mn1A N7A 1_555 1_555
Mn1A N8A 1_555 1_555
Mn1A O1A 1_555 1_555
Mn1A O2A 1_555 1_555
Mn2A N9A 1_555 1_555
Mn2A N10A 1_555 1_555
Mn2A O3A 1_555 1_555
Mn2A O4A 1_555 1_555
Mn2A O7A 1_555 1_555
Mn3A N11A 1_555 1_555
Mn3A N12A 1_555 1_555
Mn3A O5A 1_555 1_555
Mn3A O6A 1_555 1_555

#END
