
#######################################################################
#
#                 Cambridge Crystallographic Data Centre
#                                CCDC 
#
#######################################################################
#
# If this CIF has been generated from an entry in the Cambridge 
# Structural Database, then it will include bibliographic, chemical, 
# crystal, experimental, refinement or atomic coordinate data resulting 
# from the CCDC's data processing and validation procedures.
#
#######################################################################

data_UDAYAB
_symmetry_cell_setting           monoclinic
_symmetry_space_group_name_H-M   'C 2/c'
_symmetry_Int_Tables_number      15
_space_group_name_Hall           '-C 2yn'
loop_
_symmetry_equiv_pos_site_id
_symmetry_equiv_pos_as_xyz
1 x,y,z
2 -x,y,1/2-z
3 1/2+x,1/2+y,z
4 1/2-x,1/2+y,1/2-z
5 -x,-y,-z
6 x,-y,1/2+z
7 1/2-x,1/2-y,-z
8 1/2+x,1/2-y,1/2+z
_cell_length_a                   19.2579(8)
_cell_length_b                   10.2493(4)
_cell_length_c                   28.8366(11)
_cell_angle_alpha                90
_cell_angle_beta                 105.266(2)
_cell_angle_gamma                90
_cell_volume                     5490.93
loop_
_atom_site_label
_atom_site_type_symbol
_atom_site_fract_x
_atom_site_fract_y
_atom_site_fract_z
Au1 Au 0.597518(13) 0.91360(2) 0.793600(8)
Cu1 Cu 0.73630(4) 0.89321(7) 0.78824(3)
C1 C 0.5845(3) 1.0231(5) 0.7329(2)
C2 C 0.5840(2) 1.1599(6) 0.73382(19)
C3 C 0.5746(3) 1.2386(5) 0.6936(2)
C4 C 0.5644(3) 1.1795(5) 0.6488(2)
C5 C 0.5630(3) 1.0440(6) 0.6453(2)
C6 C 0.5732(3) 0.9700(6) 0.6869(2)
Cl1 Cl 0.60012(9) 1.23712(15) 0.78967(5)
Cl2 Cl 0.57626(8) 1.40608(15) 0.69772(5)
Cl3 Cl 0.56028(9) 1.27373(16) 0.59843(6)
Cl4 Cl 0.55280(9) 0.97106(17) 0.58993(6)
Cl5 Cl 0.57730(8) 0.79953(15) 0.68188(6)
C7 C 0.6098(3) 0.8068(5) 0.8548(2)
C8 C 0.6038(3) 0.6705(5) 0.8553(2)
C9 C 0.6145(3) 0.5950(5) 0.8964(2)
C10 C 0.6328(3) 0.6563(6) 0.9413(2)
C11 C 0.6369(3) 0.7920(6) 0.9435(2)
C12 C 0.6273(3) 0.8626(6) 0.9012(2)
Cl6 Cl 0.57986(8) 0.59093(15) 0.79994(5)
Cl7 Cl 0.60913(9) 0.42683(15) 0.89376(6)
Cl8 Cl 0.64666(10) 0.56558(16) 0.99316(6)
Cl9 Cl 0.65406(11) 0.86800(17) 0.99888(6)
Cl10 Cl 0.63503(9) 1.03280(15) 0.90521(6)
N1 N 0.7795(3) 1.0070(5) 0.84331(19)
C13 C 0.8084(3) 1.0679(6) 0.8757(2)
C14 C 0.8447(3) 1.1438(6) 0.9172(2)
C15 C 0.8033(3) 1.2238(5) 0.9388(2)
H1 H 0.7536 1.2288 0.9262
C16 C 0.8366(3) 1.2945(6) 0.9787(2)
H2 H 0.8097 1.3476 0.9935
C17 C 0.9102(3) 1.2867(6) 0.9968(2)
H3 H 0.9327 1.3355 1.0237
C18 C 0.9518(3) 1.2069(6) 0.9754(2)
H4 H 1.0014 1.2019 0.9883
C19 C 0.9189(3) 1.1356(6) 0.9349(2)
H5 H 0.9459 1.0833 0.9199
N2 N 0.7487(2) 0.9874(5) 0.72851(17)
C20 C 0.7550(3) 1.1166(6) 0.7331(2)
H6 H 0.7628 1.1499 0.7641
N3 N 0.7512(2) 1.2028(5) 0.69811(17)
C21 C 0.7407(3) 1.1531(6) 0.6537(2)
H7 H 0.736 1.2097 0.6278
C22 C 0.7365(3) 1.0205(6) 0.6454(2)
H8 H 0.7312 0.9868 0.6148
C23 C 0.7404(3) 0.9392(6) 0.6844(2)
H9 H 0.7371 0.8494 0.6797
Cu1C Cu 0.76370(4) 1.39321(7) 0.71176(3)
N3C N 0.7488(2) 0.7028(5) 0.80189(17)
loop_
_geom_bond_atom_site_label_1
_geom_bond_atom_site_label_2
_geom_bond_site_symmetry_1
_geom_bond_site_symmetry_2
Au1 Cu1 1_555 1_555
Cu1 N1 1_555 1_555
C1 Au1 1_555 1_555
C2 C1 1_555 1_555
C3 C2 1_555 1_555
C4 C3 1_555 1_555
C5 C4 1_555 1_555
C6 C1 1_555 1_555
Cl1 C2 1_555 1_555
Cl2 C3 1_555 1_555
Cl3 C4 1_555 1_555
Cl4 C5 1_555 1_555
Cl5 C6 1_555 1_555
C7 Au1 1_555 1_555
C8 C7 1_555 1_555
C9 C8 1_555 1_555
C10 C9 1_555 1_555
C11 C10 1_555 1_555
C12 C7 1_555 1_555
Cl6 C8 1_555 1_555
Cl7 C9 1_555 1_555
Cl8 C10 1_555 1_555
Cl9 C11 1_555 1_555
Cl10 C12 1_555 1_555
N1 C13 1_555 1_555
C13 C14 1_555 1_555
C14 C15 1_555 1_555
C15 H1 1_555 1_555
C16 C15 1_555 1_555
H2 C16 1_555 1_555
C17 C16 1_555 1_555
H3 C17 1_555 1_555
C18 C17 1_555 1_555
H4 C18 1_555 1_555
C19 C14 1_555 1_555
H5 C19 1_555 1_555
N2 Cu1 1_555 1_555
C20 N2 1_555 1_555
H6 C20 1_555 1_555
N3 C20 1_555 1_555
C21 N3 1_555 1_555
H7 C21 1_555 1_555
C22 C21 1_555 1_555
H8 C22 1_555 1_555
C23 N2 1_555 1_555
H9 C23 1_555 1_555
Cu1C N3 1_555 1_555
N3C Cu1 1_555 1_555
C5 C6 1_555 1_555
C11 C12 1_555 1_555
C18 C19 1_555 1_555
C22 C23 1_555 1_555

#END
