
#######################################################################
#
#                 Cambridge Crystallographic Data Centre
#                                CCDC 
#
#######################################################################
#
# If this CIF has been generated from an entry in the Cambridge 
# Structural Database, then it will include bibliographic, chemical, 
# crystal, experimental, refinement or atomic coordinate data resulting 
# from the CCDC's data processing and validation procedures.
#
#######################################################################

data_UDEPIE
_symmetry_cell_setting           tetragonal
_symmetry_space_group_name_H-M   'I 41/a'
_symmetry_Int_Tables_number      88
_space_group_name_Hall           '-I 4ad'
loop_
_symmetry_equiv_pos_site_id
_symmetry_equiv_pos_as_xyz
1 x,y,z
2 3/4-y,1/4+x,1/4+z
3 1/2-x,-y,1/2+z
4 3/4+y,3/4-x,3/4+z
5 1/2+x,1/2+y,1/2+z
6 1/4-y,3/4+x,3/4+z
7 -x,1/2-y,z
8 1/4+y,1/4-x,1/4+z
9 -x,-y,-z
10 1/4+y,3/4-x,3/4-z
11 1/2+x,y,1/2-z
12 1/4-y,1/4+x,1/4-z
13 1/2-x,1/2-y,1/2-z
14 3/4+y,1/4-x,1/4-z
15 x,1/2+y,-z
16 3/4-y,3/4+x,3/4-z
_cell_length_a                   17.262(8)
_cell_length_b                   17.262(8)
_cell_length_c                   21.956(10)
_cell_angle_alpha                90
_cell_angle_beta                 90
_cell_angle_gamma                90
_cell_volume                     6542.38
loop_
_atom_site_label
_atom_site_type_symbol
_atom_site_fract_x
_atom_site_fract_y
_atom_site_fract_z
Pb1 Pb 0.42030(2) 1.095219(19) 0.426282(15)
C1 C 0.4131(8) 0.9026(6) 0.4190(5)
C2 C 0.3933(6) 0.9092(5) 0.4843(4)
C3 C 0.3804(6) 0.8511(5) 0.5263(4)
C4 C 0.3687(5) 0.9612(5) 0.5697(4)
C5 C 0.3866(6) 0.7663(6) 0.5259(5)
C6 C 0.3563(6) 1.0145(6) 0.6199(4)
C7 C 0.3672(10) 1.0933(7) 0.6146(5)
H1 H 0.3796 1.1158 0.5773
C8 C 0.3587(13) 1.1390(8) 0.6682(7)
H2 H 0.3647 1.1925 0.6667
C9 C 0.3414(13) 1.1026(9) 0.7224(6)
H3 H 0.3368 1.1312 0.7581
C10 C 0.3310(10) 1.0242(8) 0.7233(6)
H4 H 0.3178 1.0010 0.7601
N1 N 0.3863(5) 0.9784(4) 0.5114(3)
N2 N 0.3637(4) 0.8856(4) 0.5803(3)
N3 N 0.3385(6) 0.9795(5) 0.6749(4)
O1 O 0.4209(6) 0.9594(4) 0.3873(3)
O2 O 0.4221(7) 0.8326(4) 0.3971(4)
O3 O 0.4033(6) 0.7323(4) 0.4775(3)
O4 O 0.3756(5) 0.7333(4) 0.5764(3)
Pb1G Pb 0.345219(19) 0.82970(2) 0.676282(15)
Pb1N Pb 0.42030(2) 0.595219(19) 0.573718(15)
N2E N 0.3644(4) 1.1137(4) 0.3303(3)
N3E N 0.2705(5) 1.0885(6) 0.4249(4)
O4E O 0.5167(4) 1.1256(5) 0.3264(3)
O4N O 0.3756(5) 1.2333(4) 0.4236(3)
O5 O 0.4217(19) 0.9092(18) 0.2140(17)
loop_
_geom_bond_atom_site_label_1
_geom_bond_atom_site_label_2
_geom_bond_site_symmetry_1
_geom_bond_site_symmetry_2
Pb1 N1 1_555 1_555
C1 C2 1_555 1_555
C2 C3 1_555 1_555
C3 C5 1_555 1_555
C4 C6 1_555 1_555
C5 O3 1_555 1_555
C6 C7 1_555 1_555
C7 H1 1_555 1_555
C8 C7 1_555 1_555
H2 C8 1_555 1_555
C9 C8 1_555 1_555
H3 C9 1_555 1_555
C10 C9 1_555 1_555
H4 C10 1_555 1_555
N1 C2 1_555 1_555
N2 C3 1_555 1_555
N3 C6 1_555 1_555
O1 Pb1 1_555 1_555
O2 C1 1_555 1_555
O4 C5 1_555 1_555
Pb1G N2 1_555 1_555
Pb1N O4 1_555 1_555
N2E Pb1 1_555 1_555
N3E Pb1 1_555 1_555
O4E Pb1 1_555 1_555
O4N Pb1 1_555 1_555
C1 O1 1_555 1_555
C4 N1 1_555 1_555
C4 N2 1_555 1_555
C10 N3 1_555 1_555
N3 Pb1G 1_555 1_555
O4 Pb1G 1_555 1_555

#END
