
#######################################################################
#
#                 Cambridge Crystallographic Data Centre
#                                CCDC 
#
#######################################################################
#
# If this CIF has been generated from an entry in the Cambridge 
# Structural Database, then it will include bibliographic, chemical, 
# crystal, experimental, refinement or atomic coordinate data resulting 
# from the CCDC's data processing and validation procedures.
#
#######################################################################

data_UDEPOK
_symmetry_cell_setting           monoclinic
_symmetry_space_group_name_H-M   'P 21/c'
_symmetry_Int_Tables_number      14
_space_group_name_Hall           '-P 2ybc'
loop_
_symmetry_equiv_pos_site_id
_symmetry_equiv_pos_as_xyz
1 x,y,z
2 -x,1/2+y,1/2-z
3 -x,-y,-z
4 x,1/2-y,1/2+z
_cell_length_a                   15.3197(14)
_cell_length_b                   15.6843(15)
_cell_length_c                   15.1838(14)
_cell_angle_alpha                90
_cell_angle_beta                 116.3860(10)
_cell_angle_gamma                90
_cell_volume                     3268.26
loop_
_atom_site_label
_atom_site_type_symbol
_atom_site_fract_x
_atom_site_fract_y
_atom_site_fract_z
Pb1 Pb 0.98747(3) 0.38559(3) 0.39853(3)
Pb2 Pb 0.76340(4) 0.87714(3) 0.17470(4)
Pb3 Pb 0.25103(4) 0.90781(3) -0.00442(4)
C1 C 0.6298(11) 0.3026(10) -0.0500(11)
H1 H 0.5842 0.2729 -0.1038
C2 C 0.6118(12) 0.3866(9) -0.0389(11)
H2 H 0.5565 0.4140 -0.0848
C3 C 0.6764(12) 0.4274(9) 0.0400(11)
H3 H 0.6651 0.4841 0.0496
C4 C 0.7579(10) 0.3886(8) 0.1065(10)
H4 H 0.8022 0.4176 0.1618
C5 C 0.7730(9) 0.3054(7) 0.0900(8)
C6 C 0.8592(8) 0.2547(7) 0.1543(9)
C7 C 0.9915(8) 0.2112(8) 0.2710(8)
C8 C 0.9483(9) 0.1424(8) 0.2086(9)
C9 C 0.9706(9) 0.0512(7) 0.2129(9)
C10 C 1.0861(9) 0.2152(8) 0.3597(9)
C11 C 1.0906(12) 0.9338(11) 0.4982(11)
H5 H 1.0965 0.9892 0.4796
C12 C 1.1567(11) 0.8998(11) 0.5903(11)
H6 H 1.2086 0.9325 0.6339
C13 C 1.1436(12) 0.8171(11) 0.6150(10)
H7 H 1.1873 0.7956 0.6758
C14 C 1.0068(9) 0.8005(8) 0.4667(9)
C15 C 1.0172(10) 0.8807(9) 0.4381(10)
H8 H 0.9734 0.8998 0.3762
C16 C 0.9315(9) 0.7411(8) 0.4060(9)
C17 C 0.8483(9) 0.6239(7) 0.3632(9)
C18 C 0.8057(8) 0.6843(7) 0.2898(8)
C19 C 0.8256(10) 0.5343(8) 0.3716(10)
C20 C 0.7169(10) 0.6753(9) 0.1937(10)
C21 C 0.6287(13) 0.8506(11) 0.4130(11)
H9 H 0.6553 0.8396 0.4801
C22 C 0.6867(12) 0.8555(10) 0.3676(11)
H10 H 0.7533 0.8479 0.4059
C23 C 0.5575(10) 0.8787(8) 0.2170(9)
C24 C 0.4920(12) 0.8773(11) 0.2585(12)
H11 H 0.4258 0.8863 0.2198
C25 C 0.5284(13) 0.8622(13) 0.3587(13)
H12 H 0.4871 0.8598 0.3887
C26 C 0.5280(9) 0.8900(7) 0.1109(9)
C27 C 0.5455(9) 0.8985(7) -0.0206(8)
C28 C 0.4472(9) 0.9020(8) -0.0443(9)
C29 C 0.6019(10) 0.9049(9) -0.0770(10)
C30 C 0.3648(10) 0.9188(8) -0.1413(10)
N1 N 0.7095(8) 0.2611(6) 0.0126(8)
N2 N 0.8645(7) 0.1703(6) 0.1349(7)
N3 N 0.9355(7) 0.2815(6) 0.2367(7)
N4 N 1.0695(8) 0.7665(8) 0.5541(8)
N5 N 0.8567(7) 0.7596(6) 0.3164(7)
N6 N 0.9289(7) 0.6601(6) 0.4355(7)
N7 N 0.6554(8) 0.8707(7) 0.2705(8)
N8 N 0.4363(7) 0.8972(6) 0.0397(7)
N9 N 0.5950(7) 0.8920(6) 0.0776(7)
O1 O 0.9125(7) 0.0031(6) 0.1500(6)
O2 O 1.0531(7) 0.0244(5) 0.2801(7)
H13 H 1.0825 0.0642 0.3161
O3 O 1.1364(7) 0.1454(6) 0.3900(7)
O4 O 1.1150(6) 0.2846(5) 0.4023(6)
O5 O 0.8825(7) 0.4964(5) 0.4482(7)
O6 O 0.7543(7) 0.5002(5) 0.3016(7)
O7 O 0.6726(7) 0.6043(6) 0.1707(7)
O8 O 0.6929(6) 0.7373(5) 0.1349(6)
O9 O 0.6911(7) 0.9089(7) -0.0334(7)
O10 O 0.5571(7) 0.9080(7) -0.1728(7)
H14 H 0.4986 0.9002 -0.1916
O11 O 0.3774(7) 0.9166(7) -0.2174(7)
O12 O 0.2822(6) 0.9361(6) -0.1431(6)
Pb1A Pb 1.01253(3) -0.11441(3) 0.10147(3)
Pb1B Pb 1.01253(3) 0.61441(3) 0.60147(3)
Pb3A Pb 0.74897(4) 0.40781(3) 0.50442(4)
Pb3B Pb 0.74897(4) 0.09219(3) 0.00442(4)
N1B N 0.2905(8) 0.7389(6) -0.0126(8)
N2B N 0.1355(7) 0.8297(6) -0.1349(7)
N4B N 0.9305(8) 0.2335(8) 0.4459(8)
N6B N 1.0711(7) 0.3399(6) 0.5645(7)
O1A O 1.0875(7) 0.5031(6) 0.3500(6)
O1B O 0.0875(7) 0.9969(6) -0.1500(6)
O5A O 0.1175(7) 0.9964(5) 0.0518(7)
loop_
_geom_bond_atom_site_label_1
_geom_bond_atom_site_label_2
_geom_bond_site_symmetry_1
_geom_bond_site_symmetry_2
Pb1 N3 1_555 1_555
Pb2 N5 1_555 1_555
Pb3 N8 1_555 1_555
C1 H1 1_555 1_555
C2 C1 1_555 1_555
H2 C2 1_555 1_555
C3 C2 1_555 1_555
H3 C3 1_555 1_555
C4 C3 1_555 1_555
H4 C4 1_555 1_555
C5 C4 1_555 1_555
C6 C5 1_555 1_555
C7 C8 1_555 1_555
C8 C9 1_555 1_555
C9 O1 1_555 1_555
C10 C7 1_555 1_555
C11 H5 1_555 1_555
C12 C11 1_555 1_555
H6 C12 1_555 1_555
C13 C12 1_555 1_555
H7 C13 1_555 1_555
C14 C15 1_555 1_555
C15 C11 1_555 1_555
H8 C15 1_555 1_555
C16 C14 1_555 1_555
C17 C18 1_555 1_555
C18 C20 1_555 1_555
C19 C17 1_555 1_555
C20 O7 1_555 1_555
C21 H9 1_555 1_555
C22 C21 1_555 1_555
H10 C22 1_555 1_555
C23 C24 1_555 1_555
C24 H11 1_555 1_555
C25 C21 1_555 1_555
H12 C25 1_555 1_555
C26 C23 1_555 1_555
C27 C28 1_555 1_555
C28 C30 1_555 1_555
C29 C27 1_555 1_555
C30 O11 1_555 1_555
N1 C1 1_555 1_555
N2 C6 1_555 1_555
N3 C6 1_555 1_555
N4 C13 1_555 1_555
N5 C16 1_555 1_555
N6 C16 1_555 1_555
N7 Pb2 1_555 1_555
N8 C26 1_555 1_555
N9 Pb2 1_555 1_555
O1 Pb1A 1_555 1_555
O2 C9 1_555 1_555
H13 O2 1_555 1_555
O3 C10 1_555 1_555
O4 Pb1 1_555 1_555
O5 Pb1 1_555 1_555
O6 C19 1_555 1_555
O8 Pb2 1_555 1_555
O9 Pb2 1_555 1_555
O10 C29 1_555 1_555
H14 O10 1_555 1_555
O12 Pb3 1_555 1_555
Pb1B N4 1_555 1_555
Pb3A O5 1_555 1_555
Pb3B N1 1_555 1_555
N1B Pb3 1_555 1_555
N2B Pb3 1_555 1_555
N4B Pb1 1_555 1_555
N6B Pb1 1_555 1_555
O1A Pb1 1_555 1_555
O1B Pb3 1_555 1_555
O5A Pb3 1_555 1_555
C5 N1 1_555 1_555
C7 N3 1_555 1_555
C8 N2 1_555 1_555
C10 O4 1_555 1_555
C14 N4 1_555 1_555
C17 N6 1_555 1_555
C18 N5 1_555 1_555
C19 O5 1_555 1_555
C20 O8 1_555 1_555
C22 N7 1_555 1_555
C23 N7 1_555 1_555
C24 C25 1_555 1_555
C26 N9 1_555 1_555
C27 N9 1_555 1_555
C28 N8 1_555 1_555
C29 O9 1_555 1_555
C30 O12 1_555 1_555
N2 Pb3B 1_555 1_555
N6 Pb1B 1_555 1_555
O1 Pb3B 1_555 1_555

#END
