
#######################################################################
#
#                 Cambridge Crystallographic Data Centre
#                                CCDC 
#
#######################################################################
#
# If this CIF has been generated from an entry in the Cambridge 
# Structural Database, then it will include bibliographic, chemical, 
# crystal, experimental, refinement or atomic coordinate data resulting 
# from the CCDC's data processing and validation procedures.
#
#######################################################################

data_UDEPUQ
_symmetry_cell_setting           orthorhombic
_symmetry_space_group_name_H-M   'P b c a'
_symmetry_Int_Tables_number      61
_space_group_name_Hall           '-P 2ac 2ab'
loop_
_symmetry_equiv_pos_site_id
_symmetry_equiv_pos_as_xyz
1 x,y,z
2 1/2-x,-y,1/2+z
3 1/2+x,1/2-y,-z
4 -x,1/2+y,1/2-z
5 -x,-y,-z
6 1/2+x,y,1/2-z
7 1/2-x,1/2+y,z
8 x,1/2-y,1/2+z
_cell_length_a                   15.5063(17)
_cell_length_b                   11.4579(13)
_cell_length_c                   24.859(3)
_cell_angle_alpha                90
_cell_angle_beta                 90
_cell_angle_gamma                90
_cell_volume                     4416.69
loop_
_atom_site_label
_atom_site_type_symbol
_atom_site_fract_x
_atom_site_fract_y
_atom_site_fract_z
Pb1 Pb 0.54684(3) 0.66132(3) 0.111942(18)
N1 N 0.6237(8) 0.6771(8) 0.0255(5)
N2 N 0.6018(8) 0.4550(8) 0.0534(4)
O1 O 0.5848(8) 0.8785(8) 0.0756(4)
O2 O 0.5481(6) 0.5029(9) 0.1898(4)
N3 N 0.5633(6) 0.7799(9) 0.1912(4)
N4 N 0.6950(7) 0.6555(7) 0.1516(4)
C1 C 0.6345(8) 0.7790(10) 0.0005(5)
C2 C 0.6402(8) 0.5964(8) -0.0119(4)
C3 C 0.6259(8) 0.4723(9) 0.0026(5)
C4 C 0.5841(12) 0.3458(9) 0.0670(6)
C5 C 0.6161(11) 0.8849(10) 0.0305(6)
C6 C 0.4729(7) 0.4626(10) 0.1890(5)
C7 C 0.6619(7) 0.7603(9) -0.0506(5)
N5 N 0.6653(6) 0.6395(7) -0.0587(4)
C8 C 0.6302(8) 0.3827(10) -0.0344(5)
C9 C 0.5907(10) 0.2520(10) 0.0331(6)
O3 O 0.6312(8) 0.9847(8) 0.0079(5)
C10 C 0.4468(7) 0.3842(10) 0.2333(5)
O4 O 0.4232(6) 0.4849(9) 0.1520(4)
C11 C 0.6861(8) 0.8391(8) -0.0933(6)
Pb2 Pb 0.72678(3) 0.59102(3) -0.150635(18)
C12 C 0.6140(9) 0.2697(10) -0.0173(6)
C13 C 0.4897(8) 0.3493(9) 0.2787(5)
N6 N 0.3669(6) 0.3365(7) 0.2333(4)
O5 O 0.6796(7) 0.9471(7) -0.0851(4)
O6 O 0.7162(6) 0.7999(7) -0.1370(4)
O7 O 0.8981(6) 0.6760(9) -0.1588(4)
C14 C 0.5762(8) 0.3711(10) 0.3002(6)
C15 C 0.3648(7) 0.2744(9) 0.2799(4)
O8 O 0.6255(6) 0.4411(9) 0.2731(4)
C16 C 0.2922(7) 0.2050(9) 0.2990(5)
C17 C 0.2164(9) 0.1884(12) 0.2706(6)
C18 C 0.2394(9) 0.0929(9) 0.3689(6)
C19 C 0.1480(10) 0.1284(13) 0.2937(7)
C20 C 0.1610(10) 0.0792(12) 0.3439(6)
Pb2D Pb 0.27322(3) 0.40898(3) 0.150635(18)
N6D N 0.6331(6) 0.6635(7) -0.2333(4)
O5F O 0.8204(7) 0.4471(7) -0.0851(4)
O4D O 0.5768(6) 0.5151(9) -0.1520(4)
N3C N 0.4367(6) 0.2799(9) 0.3088(4)
Pb2F Pb 0.77322(3) 1.09102(3) -0.150635(18)
O7A O 0.6019(6) 0.3240(9) 0.3412(4)
Pb1C Pb 0.45316(3) 0.16132(3) 0.388058(18)
Pb2A Pb 0.77322(3) 0.40898(3) 0.349365(18)
N4C N 0.3050(7) 0.1555(7) 0.3484(4)
loop_
_geom_bond_atom_site_label_1
_geom_bond_atom_site_label_2
_geom_bond_site_symmetry_1
_geom_bond_site_symmetry_2
Pb1 N1 1_555 1_555
N1 C1 1_555 1_555
N2 Pb1 1_555 1_555
O1 Pb1 1_555 1_555
O2 Pb1 1_555 1_555
N3 Pb1 1_555 1_555
N4 Pb1 1_555 1_555
C1 C5 1_555 1_555
C2 N1 1_555 1_555
C3 N2 1_555 1_555
C4 N2 1_555 1_555
C5 O1 1_555 1_555
C6 O2 1_555 1_555
C7 C1 1_555 1_555
N5 C2 1_555 1_555
C8 C3 1_555 1_555
C9 C4 1_555 1_555
O3 C5 1_555 1_555
C10 C6 1_555 1_555
O4 C6 1_555 1_555
C11 C7 1_555 1_555
Pb2 N5 1_555 1_555
C12 C8 1_555 1_555
C13 C10 1_555 1_555
N6 C10 1_555 1_555
O5 C11 1_555 1_555
O6 C11 1_555 1_555
O7 Pb2 1_555 1_555
C14 C13 1_555 1_555
C15 N6 1_555 1_555
O8 C14 1_555 1_555
C16 C15 1_555 1_555
C17 C16 1_555 1_555
C18 C20 1_555 1_555
C19 C17 1_555 1_555
C20 C19 1_555 1_555
Pb2D O4 1_555 1_555
N6D Pb2 1_555 1_555
O5F Pb2 1_555 1_555
O4D Pb2 1_555 1_555
N3C C13 1_555 1_555
Pb2F O5 1_555 1_555
O7A C14 1_555 1_555
Pb1C N3C 1_555 1_555
Pb2A O7A 1_555 1_555
N4C C16 1_555 1_555
C2 C3 1_555 1_555
C7 N5 1_555 1_555
C9 C12 1_555 1_555
Pb2 O6 1_555 1_555
N6 Pb2D 1_555 1_555
C15 N3C 1_555 1_555
C18 N4C 1_555 1_555
Pb1C N4C 1_555 1_555

#END
