
#######################################################################
#
#                 Cambridge Crystallographic Data Centre
#                                CCDC 
#
#######################################################################
#
# If this CIF has been generated from an entry in the Cambridge 
# Structural Database, then it will include bibliographic, chemical, 
# crystal, experimental, refinement or atomic coordinate data resulting 
# from the CCDC's data processing and validation procedures.
#
#######################################################################

data_UDERIF
_symmetry_cell_setting           monoclinic
_symmetry_space_group_name_H-M   'C 2/c'
_symmetry_Int_Tables_number      15
_space_group_name_Hall           '-C 2yn'
loop_
_symmetry_equiv_pos_site_id
_symmetry_equiv_pos_as_xyz
1 x,y,z
2 1/2+x,1/2+y,z
3 -x,y,1/2-z
4 1/2-x,1/2+y,1/2-z
5 -x,-y,-z
6 1/2-x,1/2-y,-z
7 x,-y,1/2+z
8 1/2+x,1/2-y,1/2+z
_cell_length_a                   31.483(3)
_cell_length_b                   7.3937(8)
_cell_length_c                   28.160(3)
_cell_angle_alpha                90
_cell_angle_beta                 113.377(2)
_cell_angle_gamma                90
_cell_volume                     6016.9
loop_
_atom_site_label
_atom_site_type_symbol
_atom_site_fract_x
_atom_site_fract_y
_atom_site_fract_z
Ag1 Ag 1.02378(2) 1.07213(8) 0.11154(3)
N1 N 0.9805(2) 0.8223(9) 0.1097(3)
N2 N 0.9537(3) 0.2602(10) 0.1034(4)
N3 N 0.9062(3) 0.8906(10) 0.3347(3)
N4 N 0.9346(2) 0.3265(9) 0.3540(3)
C1 C 0.9520(3) 0.7163(11) 0.0988(3)
C2 C 0.9182(2) 0.5779(9) 0.0864(3)
C3 C 0.9372(3) 0.3994(12) 0.0949(4)
C4 C 0.8731(2) 0.6072(9) 0.0690(3)
H1 H 0.8545 0.5063 0.0654
C5 C 0.8496(2) 0.7816(9) 0.0549(2)
C6 C 0.8663(3) 0.9193(11) 0.0334(3)
H2 H 0.8932 0.9007 0.0279
C7 C 0.8439(3) 1.0820(11) 0.0202(3)
H3 H 0.8555 1.1730 0.0060
C8 C 0.8046(3) 1.1093(10) 0.0281(3)
H4 H 0.7901 1.2215 0.0204
C9 C 0.7859(2) 0.9750(10) 0.0472(3)
H5 H 0.7581 0.9948 0.0507
C10 C 0.8081(2) 0.8100(9) 0.0614(2)
C11 C 0.7513(2) 0.6892(11) 0.0889(3)
H6 H 0.7257 0.7112 0.0560
H7 H 0.7535 0.7904 0.1117
C12 C 0.7439(2) 0.5180(11) 0.1121(3)
H8 H 0.7127 0.5132 0.1108
H9 H 0.7485 0.4151 0.0933
C13 C 0.7812(2) 0.3637(9) 0.1940(3)
C14 C 0.7565(2) 0.2050(11) 0.1751(3)
H10 H 0.7354 0.1980 0.1410
C15 C 0.7637(3) 0.0583(11) 0.2075(3)
H11 H 0.7472 -0.0475 0.1946
C16 C 0.7945(3) 0.0638(10) 0.2580(3)
H12 H 0.7987 -0.0366 0.2793
C17 C 0.8195(2) 0.2219(9) 0.2772(3)
H13 H 0.8408 0.2269 0.3113
C18 C 0.8127(2) 0.3717(8) 0.2454(2)
C19 C 0.8360(2) 0.5409(8) 0.2654(3)
H14 H 0.8206 0.6442 0.2483
C20 C 0.8763(2) 0.5695(9) 0.3047(3)
C21 C 0.8932(3) 0.7506(11) 0.3214(3)
C22 C 0.9077(3) 0.4339(10) 0.3329(3)
O1 O 0.77718(16) 0.5142(7) 0.16533(17)
O2 O 0.79388(15) 0.6676(7) 0.08180(17)
Ag1_2 Ag 1.02378(2) 2.07213(8) 0.11154(3)
Ag1_3 Ag 1.02378(2) 0.07213(8) 0.11154(3)
Ag1B Ag 0.97622(2) 1.07213(8) 0.38846(3)
Ag1B_2 Ag 0.97622(2) 0.07213(8) 0.38846(3)
Ag1B_3 Ag 0.97622(2) 2.07213(8) 0.38846(3)
N1_2 N 0.9805(2) 1.8223(9) 0.1097(3)
N2_2 N 0.9537(3) 1.2602(10) 0.1034(4)
N2_3 N 0.9537(3) 2.2602(10) 0.1034(4)
N3_2 N 0.9062(3) 1.8906(10) 0.3347(3)
N3B N 1.0938(3) 0.8906(10) 0.1653(3)
N3B_2 N 1.0938(3) 1.8906(10) 0.1653(3)
N4_2 N 0.9346(2) 1.3265(9) 0.3540(3)
N4B N 1.0654(2) 1.3265(9) 0.1460(3)
N4B_2 N 1.0654(2) 2.3265(9) 0.1460(3)
C1_2 C 0.9520(3) 1.7163(11) 0.0988(3)
C2_2 C 0.9182(2) 1.5779(9) 0.0864(3)
C3_2 C 0.9372(3) 1.3994(12) 0.0949(4)
C4_2 C 0.8731(2) 1.6072(9) 0.0690(3)
H1_2 H 0.8545 1.5063 0.0654
C5_2 C 0.8496(2) 1.7816(9) 0.0549(2)
C6_2 C 0.8663(3) 1.9193(11) 0.0334(3)
H2_2 H 0.8932 1.9007 0.0279
C7_2 C 0.8439(3) 2.0820(11) 0.0202(3)
H3_2 H 0.8555 2.1730 0.0060
C8_2 C 0.8046(3) 2.1093(10) 0.0281(3)
H4_2 H 0.7901 2.2215 0.0204
C9_2 C 0.7859(2) 1.9750(10) 0.0472(3)
H5_2 H 0.7581 1.9948 0.0507
C10_2 C 0.8081(2) 1.8100(9) 0.0614(2)
C11_2 C 0.7513(2) 1.6892(11) 0.0889(3)
H6_2 H 0.7257 1.7112 0.0560
H7_2 H 0.7535 1.7904 0.1117
C12_2 C 0.7439(2) 1.5180(11) 0.1121(3)
H8_2 H 0.7127 1.5132 0.1108
H9_2 H 0.7485 1.4151 0.0933
C13_2 C 0.7812(2) 1.3637(9) 0.1940(3)
C14_2 C 0.7565(2) 1.2050(11) 0.1751(3)
H10_2 H 0.7354 1.1980 0.1410
C15_2 C 0.7637(3) 1.0583(11) 0.2075(3)
H11_2 H 0.7472 0.9525 0.1946
C16_2 C 0.7945(3) 1.0638(10) 0.2580(3)
H12_2 H 0.7987 0.9634 0.2793
C17_2 C 0.8195(2) 1.2219(9) 0.2772(3)
H13_2 H 0.8408 1.2269 0.3113
C18_2 C 0.8127(2) 1.3717(8) 0.2454(2)
C19_2 C 0.8360(2) 1.5409(8) 0.2654(3)
H14_2 H 0.8206 1.6442 0.2483
C20_2 C 0.8763(2) 1.5695(9) 0.3047(3)
C21_2 C 0.8932(3) 1.7506(11) 0.3214(3)
C22_2 C 0.9077(3) 1.4339(10) 0.3329(3)
O1_2 O 0.77718(16) 1.5142(7) 0.16533(17)
O2_2 O 0.79388(15) 1.6676(7) 0.08180(17)
C23 C 0.9897(12) 0.825(2) -0.0105(7)
H15 H 0.9835 0.7029 -0.0169
C24 C 0.9563(6) 0.942(4) -0.0293(5)
H16 H 0.9255 0.8999 -0.0339
C25 C 1.0355(8) 0.883(4) 0.0195(7)
H17 H 1.0594 0.7992 0.0322
C23D C 1.0103(12) 1.175(2) 0.0105(7)
H15D H 1.0165 1.2971 0.0169
C24D C 1.0437(6) 1.058(4) 0.0293(5)
H16D H 1.0745 1.1001 0.0339
C25D C 0.9645(8) 1.117(4) -0.0195(7)
H17D H 0.9406 1.2008 -0.0322
B1 B 0.8532(3) 0.4917(16) 0.4317(4)
F1 F 0.8958(2) 0.4716(11) 0.4685(3)
F2 F 0.8571(3) 0.6457(12) 0.4030(3)
F3 F 0.82161(18) 0.5354(8) 0.4517(2)
F4 F 0.8385(3) 0.3609(13) 0.3981(3)
loop_
_geom_bond_atom_site_label_1
_geom_bond_atom_site_label_2
_geom_bond_site_symmetry_1
_geom_bond_site_symmetry_2
Ag1 N1 1_555 1_555
N1 C1 1_555 1_555
N2 C3 1_555 1_555
N3 C21 1_555 1_555
N4 C22 1_555 1_555
C1 C2 1_555 1_555
C2 C3 1_555 1_555
C4 C2 1_555 1_555
H1 C4 1_555 1_555
C5 C4 1_555 1_555
C6 C5 1_555 1_555
H2 C6 1_555 1_555
C7 C6 1_555 1_555
H3 C7 1_555 1_555
C8 C7 1_555 1_555
H4 C8 1_555 1_555
C9 C8 1_555 1_555
H5 C9 1_555 1_555
C10 C5 1_555 1_555
C11 H6 1_555 1_555
H7 C11 1_555 1_555
C12 C11 1_555 1_555
H8 C12 1_555 1_555
H9 C12 1_555 1_555
C13 C14 1_555 1_555
C14 H10 1_555 1_555
C15 C14 1_555 1_555
H11 C15 1_555 1_555
C16 C15 1_555 1_555
H12 C16 1_555 1_555
C17 C16 1_555 1_555
H13 C17 1_555 1_555
C18 C13 1_555 1_555
C19 C18 1_555 1_555
H14 C19 1_555 1_555
C20 C19 1_555 1_555
C21 C20 1_555 1_555
C22 C20 1_555 1_555
C23 H15 1_555 1_555
C24 C23 1_555 1_555
H16 C24 1_555 1_555
C25 C23 1_555 1_555
H17 C25 1_555 1_555
O1 C12 1_555 1_555
O2 C10 1_555 1_555
B1 F1 1_555 1_555
F2 B1 1_555 1_555
F3 B1 1_555 1_555
F4 B1 1_555 1_555
Ag1_2 N1_2 1_555 1_555
Ag1_3 N2 1_555 1_555
Ag1B N3 1_555 1_555
Ag1B_2 N4 1_555 1_555
Ag1B_3 N3_2 1_555 1_555
N1_2 C1_2 1_555 1_555
N2_2 Ag1 1_555 1_555
N2_3 Ag1_2 1_555 1_555
N3_2 C21_2 1_555 1_555
N3B Ag1 1_555 1_555
N3B_2 Ag1_2 1_555 1_555
N4_2 Ag1B 1_555 1_555
N4B Ag1 1_555 1_555
N4B_2 Ag1_2 1_555 1_555
C1_2 C2_2 1_555 1_555
C2_2 C3_2 1_555 1_555
C3_2 N2_2 1_555 1_555
C4_2 C2_2 1_555 1_555
H1_2 C4_2 1_555 1_555
C5_2 C4_2 1_555 1_555
C6_2 C5_2 1_555 1_555
H2_2 C6_2 1_555 1_555
C7_2 C6_2 1_555 1_555
H3_2 C7_2 1_555 1_555
C8_2 C7_2 1_555 1_555
H4_2 C8_2 1_555 1_555
C9_2 C8_2 1_555 1_555
H5_2 C9_2 1_555 1_555
C10_2 C5_2 1_555 1_555
C11_2 H6_2 1_555 1_555
H7_2 C11_2 1_555 1_555
C12_2 C11_2 1_555 1_555
H8_2 C12_2 1_555 1_555
H9_2 C12_2 1_555 1_555
C13_2 C14_2 1_555 1_555
C14_2 H10_2 1_555 1_555
C15_2 C14_2 1_555 1_555
H11_2 C15_2 1_555 1_555
C16_2 C15_2 1_555 1_555
H12_2 C16_2 1_555 1_555
C17_2 C16_2 1_555 1_555
H13_2 C17_2 1_555 1_555
C18_2 C13_2 1_555 1_555
C19_2 C18_2 1_555 1_555
H14_2 C19_2 1_555 1_555
C20_2 C19_2 1_555 1_555
C21_2 C20_2 1_555 1_555
C22_2 N4_2 1_555 1_555
C23D H15D 1_555 1_555
C24D C25 1_555 1_555
H16D C24D 1_555 1_555
C25D C24 1_555 1_555
H17D C25D 1_555 1_555
O1_2 C12_2 1_555 1_555
O2_2 C10_2 1_555 1_555
C9 C10 1_555 1_555
C11 O2 1_555 1_555
C13 O1 1_555 1_555
C17 C18 1_555 1_555
C9_2 C10_2 1_555 1_555
C11_2 O2_2 1_555 1_555
C13_2 O1_2 1_555 1_555
C17_2 C18_2 1_555 1_555
C20_2 C22_2 1_555 1_555
C23D C24D 1_555 1_555
C23D C25D 1_555 1_555

#END
