
#######################################################################
#
#                 Cambridge Crystallographic Data Centre
#                                CCDC 
#
#######################################################################
#
# If this CIF has been generated from an entry in the Cambridge 
# Structural Database, then it will include bibliographic, chemical, 
# crystal, experimental, refinement or atomic coordinate data resulting 
# from the CCDC's data processing and validation procedures.
#
#######################################################################

data_UDETON
_symmetry_cell_setting           triclinic
_symmetry_space_group_name_H-M   'P -1'
_symmetry_Int_Tables_number      2
_space_group_name_Hall           '-P 1'
loop_
_symmetry_equiv_pos_site_id
_symmetry_equiv_pos_as_xyz
1 x,y,z
2 -x,-y,-z
_cell_length_a                   10.9719(10)
_cell_length_b                   11.2023(10)
_cell_length_c                   11.6848(11)
_cell_angle_alpha                87.827(2)
_cell_angle_beta                 86.995(2)
_cell_angle_gamma                75.919(2)
_cell_volume                     1390.65
loop_
_atom_site_label
_atom_site_type_symbol
_atom_site_fract_x
_atom_site_fract_y
_atom_site_fract_z
Ru1 Ru 0.0000 0.0000 0.0000
Ni1 Ni 0.01112(3) 0.45232(3) -0.12529(2)
O1 O -0.11780(15) 0.55100(16) -0.01203(14)
O2 O 0.05467(19) 0.62750(17) -0.17863(17)
H1 H 0.0563 0.6645 -0.1145
H2 H 0.1208 0.6192 -0.2114
O3 O -0.1530(2) -0.0140(2) -0.0804(2)
O4 O -0.1043(3) 0.0427(2) 0.1449(2)
N1 N -0.1170(2) 0.4814(2) -0.24605(18)
N2 N -0.1633(2) 0.6337(2) 0.22230(18)
N3 N -0.0278(2) 0.28439(19) -0.07142(19)
C1 C -0.2345(3) 0.5287(3) -0.2281(2)
H3 H -0.2844 0.5335 -0.2908
C2 C -0.2996(2) 0.5761(2) -0.1214(2)
C3 C -0.2397(2) 0.5866(2) -0.0191(2)
C4 C -0.3187(2) 0.6378(2) 0.0762(2)
C5 C -0.2758(2) 0.6586(2) 0.1874(2)
H4 H -0.3385 0.6950 0.2406
C6 C -0.1529(3) 0.6634(3) 0.3434(3)
H5 H -0.1763 0.6004 0.3929
H6 H -0.2120 0.7411 0.3601
C7 C -0.0226(3) 0.6727(3) 0.3707(3)
H7 H 0.0019 0.7326 0.3181
H8 H -0.0261 0.7039 0.4474
C8 C -0.0778(3) 0.4449(4) -0.3644(3)
H9 H -0.1503 0.4353 -0.4038
H10 H -0.0467 0.5101 -0.4040
C9 C -0.4313(2) 0.6131(3) -0.1255(3)
H11 H -0.4682 0.6052 -0.1938
C10 C -0.5082(2) 0.6605(3) -0.0327(3)
C11 C -0.4500(2) 0.6722(3) 0.0668(3)
H12 H -0.4999 0.7043 0.1305
C12 C -0.6504(3) 0.6955(3) -0.0382(3)
H13 H -0.6739 0.6703 -0.1098
H14 H -0.6805 0.7831 -0.0323
H15 H -0.6867 0.6553 0.0239
C13 C -0.3385(6) -0.0756(6) -0.1035(7)
H16 H -0.3940 -0.0023 -0.1330
H17 H -0.3868 -0.1251 -0.0618
H18 H -0.2916 -0.1214 -0.1660
C14 C -0.2492(4) -0.0410(3) -0.0247(6)
C15 C -0.2717(4) -0.0323(4) 0.0935(6)
H19 H -0.3393 -0.0612 0.1242
C16 C -0.2069(5) 0.0131(4) 0.1679(5)
C17 C -0.2579(8) 0.0332(6) 0.2884(6)
H20 H -0.2557 -0.0448 0.3262
H21 H -0.3432 0.0815 0.2882
H22 H -0.2077 0.0760 0.3283
C18 C -0.0244(2) 0.1835(2) -0.0477(2)
Ni1A Ni -0.01112(3) -0.45232(3) 0.12529(2)
Ni1A_2 Ni -0.01112(3) 0.54768(3) 0.12529(2)
O1A O 0.11780(15) 0.44900(16) 0.01203(14)
O1_2 O -0.11780(15) -0.44900(16) -0.01203(14)
O1A_2 O 0.11780(15) -0.55100(16) 0.01203(14)
O2A O -0.05467(19) -0.62750(17) 0.17863(17)
H1A H -0.0563 -0.6645 0.1145
H2A H -0.1208 -0.6192 0.2114
O3A O 0.1530(2) 0.0140(2) 0.0804(2)
O4A O 0.1043(3) -0.0427(2) -0.1449(2)
N1A N 0.1170(2) 0.5186(2) 0.24605(18)
N1A_2 N 0.1170(2) -0.4814(2) 0.24605(18)
N2A N 0.1633(2) 0.3663(2) -0.22230(18)
N2_2 N -0.1633(2) -0.3663(2) 0.22230(18)
N3A N 0.0278(2) -0.28439(19) 0.07142(19)
C1A C 0.2345(3) 0.4713(3) 0.2281(2)
H3A H 0.2844 0.4665 0.2908
C2A C 0.2996(2) 0.4239(2) 0.1214(2)
C3A C 0.2397(2) 0.4134(2) 0.0191(2)
C4A C 0.3187(2) 0.3622(2) -0.0762(2)
C5A C 0.2758(2) 0.3414(2) -0.1874(2)
H4A H 0.3385 0.3050 -0.2406
C6A C 0.1529(3) 0.3366(3) -0.3434(3)
H5A H 0.1763 0.3996 -0.3929
H6A H 0.2120 0.2589 -0.3601
C7A C 0.0226(3) 0.3273(3) -0.3707(3)
H7A H -0.0019 0.2674 -0.3181
H8A H 0.0261 0.2961 -0.4474
C8A C 0.0778(3) 0.5551(4) 0.3644(3)
H9A H 0.1503 0.5647 0.4038
H10A H 0.0467 0.4899 0.4040
C9A C 0.4313(2) 0.3869(3) 0.1255(3)
H11A H 0.4682 0.3948 0.1938
C10A C 0.5082(2) 0.3395(3) 0.0327(3)
C11A C 0.4500(2) 0.3278(3) -0.0668(3)
H12A H 0.4999 0.2957 -0.1305
C12A C 0.6504(3) 0.3045(3) 0.0382(3)
H13A H 0.6739 0.3297 0.1098
H14A H 0.6805 0.2169 0.0323
H15A H 0.6867 0.3447 -0.0239
C13A C 0.3385(6) 0.0756(6) 0.1035(7)
H16A H 0.3940 0.0023 0.1330
H17A H 0.3868 0.1251 0.0618
H18A H 0.2916 0.1214 0.1660
C14A C 0.2492(4) 0.0410(3) 0.0247(6)
C15A C 0.2717(4) 0.0323(4) -0.0935(6)
H19A H 0.3393 0.0612 -0.1242
C16A C 0.2069(5) -0.0131(4) -0.1679(5)
C17A C 0.2579(8) -0.0332(6) -0.2884(6)
H20A H 0.2557 0.0448 -0.3262
H21A H 0.3432 -0.0815 -0.2882
H22A H 0.2077 -0.0760 -0.3283
C18A C 0.0244(2) -0.1835(2) 0.0477(2)
Ru2 Ru 0.5000 0.5000 0.5000
O5 O 0.40431(19) 0.61455(19) 0.38146(17)
O6 O 0.58662(19) 0.62954(19) 0.54203(17)
N4 N 0.2711(3) 0.6116(3) 0.6773(3)
C19 C 0.2812(4) 0.8000(4) 0.3077(4)
H23 H 0.2605 0.7437 0.2563
H24 H 0.3115 0.8622 0.2643
H25 H 0.2075 0.8380 0.3531
C20 C 0.3820(3) 0.7306(3) 0.3855(3)
C21 C 0.4435(3) 0.7948(3) 0.4532(3)
H26 H 0.4160 0.8802 0.4509
C22 C 0.5411(3) 0.7445(3) 0.5234(3)
C23 C 0.6069(4) 0.8253(4) 0.5843(4)
H27 H 0.5857 0.8230 0.6650
H28 H 0.5808 0.9084 0.5550
H29 H 0.6963 0.7960 0.5717
C24 C 0.3539(3) 0.5709(3) 0.6158(3)
O5A O 0.59569(19) 0.38545(19) 0.61854(17)
O6A O 0.41338(19) 0.37046(19) 0.45797(17)
N4A N 0.7289(3) 0.3884(3) 0.3227(3)
C19A C 0.7188(4) 0.2000(4) 0.6923(4)
H23A H 0.7395 0.2563 0.7437
H24A H 0.6885 0.1378 0.7357
H25A H 0.7925 0.1620 0.6469
C20A C 0.6180(3) 0.2694(3) 0.6145(3)
C21A C 0.5565(3) 0.2052(3) 0.5468(3)
H26A H 0.5840 0.1198 0.5491
C22A C 0.4589(3) 0.2555(3) 0.4766(3)
C23A C 0.3931(4) 0.1747(4) 0.4157(4)
H27A H 0.4143 0.1770 0.3350
H28A H 0.4192 0.0916 0.4450
H29A H 0.3037 0.2040 0.4283
C24A C 0.6461(3) 0.4291(3) 0.3842(3)
O7 O -0.0906(8) 0.8400(8) -0.3057(7)
loop_
_geom_bond_atom_site_label_1
_geom_bond_atom_site_label_2
_geom_bond_site_symmetry_1
_geom_bond_site_symmetry_2
Ru1 O3 1_555 1_555
Ru2 O5 1_555 1_555
Ni1 O1 1_555 1_555
O1 C3 1_555 1_555
O2 Ni1 1_555 1_555
H1 O2 1_555 1_555
H2 O2 1_555 1_555
O3 C14 1_555 1_555
O4 Ru1 1_555 1_555
O5 C20 1_555 1_555
O6 Ru2 1_555 1_555
N1 Ni1 1_555 1_555
N2 C5 1_555 1_555
N3 Ni1 1_555 1_555
N4 C24 1_555 1_555
C1 N1 1_555 1_555
H3 C1 1_555 1_555
C2 C1 1_555 1_555
C3 C2 1_555 1_555
C4 C3 1_555 1_555
C5 C4 1_555 1_555
H4 C5 1_555 1_555
C6 N2 1_555 1_555
H5 C6 1_555 1_555
H6 C6 1_555 1_555
C7 C6 1_555 1_555
H7 C7 1_555 1_555
H8 C7 1_555 1_555
C8 N1 1_555 1_555
H9 C8 1_555 1_555
H10 C8 1_555 1_555
C9 C2 1_555 1_555
H11 C9 1_555 1_555
C10 C9 1_555 1_555
C11 C4 1_555 1_555
H12 C11 1_555 1_555
C12 C10 1_555 1_555
H13 C12 1_555 1_555
H14 C12 1_555 1_555
H15 C12 1_555 1_555
C13 H16 1_555 1_555
H17 C13 1_555 1_555
H18 C13 1_555 1_555
C14 C13 1_555 1_555
C15 C14 1_555 1_555
H19 C15 1_555 1_555
C16 O4 1_555 1_555
C17 C16 1_555 1_555
H20 C17 1_555 1_555
H21 C17 1_555 1_555
H22 C17 1_555 1_555
C18 Ru1 1_555 1_555
C19 H23 1_555 1_555
H24 C19 1_555 1_555
H25 C19 1_555 1_555
C20 C19 1_555 1_555
C21 C20 1_555 1_555
H26 C21 1_555 1_555
C22 O6 1_555 1_555
C23 C22 1_555 1_555
H27 C23 1_555 1_555
H28 C23 1_555 1_555
H29 C23 1_555 1_555
C24 Ru2 1_555 1_555
Ni1A O1_2 1_555 1_555
Ni1A_2 O1 1_555 1_555
O1A Ni1 1_555 1_555
O1A_2 Ni1A 1_555 1_555
O2A Ni1A 1_555 1_555
H1A O2A 1_555 1_555
H2A O2A 1_555 1_555
O3A Ru1 1_555 1_555
O4A Ru1 1_555 1_555
O5A Ru2 1_555 1_555
O6A Ru2 1_555 1_555
N1A Ni1A_2 1_555 1_555
N1A_2 Ni1A 1_555 1_555
N2A Ni1 1_555 1_555
N2_2 Ni1A 1_555 1_555
N3A Ni1A 1_555 1_555
N4A C24A 1_555 1_555
C1A N1A 1_555 1_555
H3A C1A 1_555 1_555
C2A C1A 1_555 1_555
C3A O1A 1_555 1_555
C4A C3A 1_555 1_555
C5A N2A 1_555 1_555
H4A C5A 1_555 1_555
C6A N2A 1_555 1_555
H5A C6A 1_555 1_555
H6A C6A 1_555 1_555
C7A C8 1_555 1_555
H7A C7A 1_555 1_555
H8A C7A 1_555 1_555
C8A C7 1_555 1_555
H9A C8A 1_555 1_555
H10A C8A 1_555 1_555
C9A C2A 1_555 1_555
H11A C9A 1_555 1_555
C10A C9A 1_555 1_555
C11A C4A 1_555 1_555
H12A C11A 1_555 1_555
C12A C10A 1_555 1_555
H13A C12A 1_555 1_555
H14A C12A 1_555 1_555
H15A C12A 1_555 1_555
C13A H16A 1_555 1_555
H17A C13A 1_555 1_555
H18A C13A 1_555 1_555
C14A O3A 1_555 1_555
C15A C14A 1_555 1_555
H19A C15A 1_555 1_555
C16A O4A 1_555 1_555
C17A C16A 1_555 1_555
H20A C17A 1_555 1_555
H21A C17A 1_555 1_555
H22A C17A 1_555 1_555
C18A Ru1 1_555 1_555
C19A H23A 1_555 1_555
H24A C19A 1_555 1_555
H25A C19A 1_555 1_555
C20A O5A 1_555 1_555
C21A C20A 1_555 1_555
H26A C21A 1_555 1_555
C22A O6A 1_555 1_555
C23A C22A 1_555 1_555
H27A C23A 1_555 1_555
H28A C23A 1_555 1_555
H29A C23A 1_555 1_555
C24A Ru2 1_555 1_555
N2 Ni1A_2 1_555 1_555
N3 C18 1_555 1_555
C10 C11 1_555 1_555
C15 C16 1_555 1_555
C21 C22 1_555 1_555
Ni1A_2 O1A 1_555 1_555
N1A C8A 1_555 1_555
N3A C18A 1_555 1_555
C2A C3A 1_555 1_555
C4A C5A 1_555 1_555
C6A C7A 1_555 1_555
C10A C11A 1_555 1_555
C13A C14A 1_555 1_555
C15A C16A 1_555 1_555
C19A C20A 1_555 1_555
C21A C22A 1_555 1_555

#END
