
#######################################################################
#
#                 Cambridge Crystallographic Data Centre
#                                CCDC 
#
#######################################################################
#
# If this CIF has been generated from an entry in the Cambridge 
# Structural Database, then it will include bibliographic, chemical, 
# crystal, experimental, refinement or atomic coordinate data resulting 
# from the CCDC's data processing and validation procedures.
#
#######################################################################

data_UDEWIK
_symmetry_cell_setting           monoclinic
_symmetry_space_group_name_H-M   'C c'
_symmetry_Int_Tables_number      9
_space_group_name_Hall           'C -2yc'
loop_
_symmetry_equiv_pos_site_id
_symmetry_equiv_pos_as_xyz
1 x,y,z
2 x,-y,1/2+z
3 1/2+x,1/2+y,z
4 1/2+x,1/2-y,1/2+z
_cell_length_a                   19.5105(14)
_cell_length_b                   10.5594(8)
_cell_length_c                   25.3401(18)
_cell_angle_alpha                90
_cell_angle_beta                 98.4480(10)
_cell_angle_gamma                90
_cell_volume                     5163.9
loop_
_atom_site_label
_atom_site_type_symbol
_atom_site_fract_x
_atom_site_fract_y
_atom_site_fract_z
Nd1 Nd 0.84401(2) -0.21219(4) 0.688006(18)
Nd2 Nd 1.01215(2) 0.00888(5) 0.219370(19)
Nd3 Nd 1.01769(2) -0.44553(4) 0.217480(19)
Nd4 Nd 0.84629(2) -0.74227(5) 0.682840(18)
S1 S 0.75125(16) -0.4825(3) 0.59568(12)
S2 S 0.86890(15) -0.5049(2) 0.28519(12)
S3 S 0.98963(15) -0.2179(2) 0.10827(11)
S4 S 1.11070(16) -0.2771(2) -0.20015(12)
S5 S 0.73664(16) 0.0133(2) 0.59509(12)
S6 S 0.86393(16) -0.0248(2) 0.29109(13)
S7 S 0.99485(15) -0.2698(2) 0.62317(11)
S8 S 1.11788(16) -0.2242(2) 0.31633(12)
O1 O 0.6770(5) -0.4633(10) 0.5921(4)
O2 O 0.7908(4) -0.3832(6) 0.6275(3)
O3 O 0.7749(4) -0.6080(6) 0.6138(3)
O4 O 0.8276(5) -0.4009(7) 0.2607(3)
O5 O 0.9441(4) -0.4840(9) 0.2908(3)
O6 O 0.8500(5) -0.6259(6) 0.2593(3)
O7 O 1.0163(4) -0.1014(7) 0.1327(3)
O8 O 0.9140(5) -0.2230(7) 0.1053(4)
O9 O 1.0249(4) -0.3295(7) 0.1327(3)
O10 O 1.1837(4) -0.3038(7) -0.1961(3)
O11 O 1.0668(4) -0.3745(6) -0.2280(3)
O12 O 1.0931(4) -0.1536(6) -0.2205(3)
O13 O 0.7664(4) 0.1234(6) 0.6247(3)
O14 O 0.7653(4) -0.1063(6) 0.6184(3)
O15 O 0.6602(4) 0.0158(8) 0.5874(4)
O16 O 0.8284(4) 0.0876(7) 0.2680(3)
O17 O 0.9393(4) -0.0202(6) 0.2948(3)
O18 O 0.8350(4) -0.1406(6) 0.2647(3)
O19 O 0.9191(5) -0.2590(9) 0.6193(3)
O20 O 1.0321(4) -0.1602(7) 0.6464(3)
O21 O 1.0184(5) -0.3890(6) 0.6481(3)
O22 O 1.0897(4) -0.3444(6) 0.2934(3)
O23 O 1.1918(5) -0.2187(8) 0.3210(4)
O24 O 1.0833(4) -0.1163(6) 0.2891(3)
O25 O 0.8943(4) 0.0023(7) 0.6756(3)
O26 O 0.9535(4) -0.2037(6) 0.7299(3)
O27 O 0.9059(4) -0.4471(6) 0.1751(3)
O28 O 0.9663(4) -0.2355(6) 0.2250(3)
O29 O 0.7182(5) -0.7299(8) 0.7045(3)
O30 O 1.1359(4) -0.4639(7) 0.1933(3)
O31 O 0.7220(4) -0.2509(7) 0.7174(3)
O32 O 1.1386(4) -0.0117(7) 0.1959(3)
C1 C 0.7706(6) -0.4695(9) 0.5309(5)
C2 C 0.7378(7) -0.3667(9) 0.4972(5)
H1 H 0.7091 -0.3082 0.5106
C3 C 0.7506(6) -0.3593(8) 0.4457(4)
H2 H 0.7303 -0.2942 0.4241
C4 C 0.7932(7) -0.4458(9) 0.4242(5)
C5 C 0.8068(6) -0.4325(9) 0.3703(5)
H3 H 0.7866 -0.3672 0.3488
C6 C 0.8513(5) -0.5205(8) 0.3507(4)
C7 C 0.8809(5) -0.6195(8) 0.3828(4)
H4 H 0.9090 -0.6782 0.3689
C8 C 0.8691(6) -0.6307(9) 0.4341(4)
H5 H 0.8905 -0.6953 0.4554
C9 C 0.8238(7) -0.5438(8) 0.4558(5)
C10 C 0.8129(7) -0.5521(9) 0.5091(5)
C11 C 1.0092 -0.2124 0.0415
C12 C 0.9779 -0.1142 0.0084
H6 H 0.9485 -0.0557 0.0209
C13 C 0.9926(6) -0.1085(10) -0.0431(4)
H7 H 0.9743 -0.0426 -0.0651
C14 C 1.0335(6) -0.1976(8) -0.0626(5)
C15 C 1.0509(6) -0.1922(9) -0.1158(4)
H8 H 1.0342 -0.1259 -0.1382
C16 C 1.0915(7) -0.2832(9) -0.1339(5)
C17 C 1.1193(6) -0.3814(9) -0.1008(5)
C18 C 1.1071(6) -0.3863(9) -0.0501(5)
H9 H 1.1275 -0.4503 -0.0279
C19 C 1.0639(6) -0.2962(8) -0.0294(5)
C20 C 0.7636(6) 0.0249(8) 0.5327(5)
C21 C 0.8045(7) -0.0617(10) 0.5131(5)
H10 H 0.8226 -0.1286 0.5347
C22 C 0.8200(7) -0.0526(9) 0.4616(5)
C23 C 0.8632(6) -0.1426(9) 0.4407(5)
H11 H 0.8827 -0.2086 0.4621
C24 C 0.8763(5) -0.1329(9) 0.3894(4)
H12 H 0.9042 -0.1932 0.3763
C25 C 0.8491(5) -0.0356(10) 0.3566(4)
C26 C 0.8054(6) 0.0585(10) 0.3751(5)
H13 H 0.7863 0.1234 0.3529
C27 C 0.7924(7) 0.0489(9) 0.4286(5)
C28 C 0.7509(6) 0.1403(9) 0.4496(4)
C29 C 0.7351(6) 0.1301(9) 0.5001(5)
H14 H 0.7066 0.1894 0.5132
C30 C 1.0144(6) -0.2784(11) 0.5572(4)
C31 C 0.9820(5) -0.3791(8) 0.5241(4)
H15 H 0.9534 -0.4377 0.5374
C32 C 0.9944(6) -0.3859(9) 0.4729(5)
H16 H 0.9746 -0.4514 0.4513
C33 C 1.0366(7) -0.2963(9) 0.4514(5)
C34 C 1.0540(6) -0.3070(10) 0.3985(5)
H17 H 1.0369 -0.3730 0.3761
C35 C 1.0971(7) -0.2164(9) 0.3821(5)
C36 C 1.1236(6) -0.1172(10) 0.4147(5)
H18 H 1.1508 -0.0562 0.4013
C37 C 1.1109(6) -0.1071(9) 0.4656(5)
H19 H 1.1305 -0.0415 0.4872
C38 C 1.0674(6) -0.1973(9) 0.4859(5)
C39 C 1.0526(6) -0.1914(9) 0.5379(4)
H20 H 1.0701 -0.1245 0.5597
C40 C 1.0482(6) -0.3003(8) 0.0241(4)
H21 H 1.0658 -0.3657 0.0468
H22 H 1.1445 -0.4488 -0.1221
H23 H 0.7421 0.2178 0.4235
H24 H 0.8886 0.0345 0.6466
H25 H 0.8303 -0.5986 0.5273
H26 H 0.9450 -0.2314 0.2564
H27 H 0.8822 -0.5136 0.1404
H28 H 0.9325 -0.2615 0.7559
H29 H 1.1604 -0.0448 0.2150
H30 H 1.1383 -0.0613 0.1667
H31 H 0.7048 -0.2945 0.7022
H32 H 0.7235 -0.2637 0.7473
H33 H 0.7162 -0.7068 0.7342
H34 H 0.7030 -0.7957 0.6906
H35 H 1.1762 -0.3941 0.1880
H36 H 1.1410 -0.5005 0.2150
Nd1A Nd 0.84401(2) -0.78781(4) 0.188006(18)
Nd1A_2 Nd 0.84401(2) 0.21219(4) 0.188006(18)
Nd2A Nd 1.01215(2) -0.00888(5) -0.280630(19)
Nd2A_2 Nd 1.01215(2) -0.00888(5) 0.719370(19)
Nd3A Nd 1.01769(2) -0.55447(4) -0.282520(19)
Nd3A_2 Nd 1.01769(2) -0.55447(4) 0.717480(19)
Nd4A Nd 0.84629(2) -0.25773(5) 0.182840(18)
Nd4_2 Nd 0.84629(2) 0.25773(5) 0.682840(18)
O4A O 0.8276(5) -0.5991(7) 0.7607(3)
O6A O 0.8500(5) -0.3741(6) 0.7593(3)
O8A O 0.9140(5) -0.7770(7) 0.6053(4)
O11A O 1.0668(4) -0.6255(6) 0.2720(3)
O12A O 1.0931(4) 0.1536(6) 0.2795(3)
O13_2 O 0.7664(4) -0.8766(6) 0.6247(3)
O16A O 0.8284(4) -0.0876(7) 0.7680(3)
O18A O 0.8350(4) -0.8594(6) 0.7647(3)
O20A O 1.0321(4) 0.1602(7) 0.1464(3)
O21A O 1.0184(5) -0.6110(6) 0.1481(3)
O25A O 0.8943(4) -0.0023(7) 0.1756(3)
O25_2 O 0.8943(4) -0.9977(7) 0.6756(3)
O26A O 0.9535(4) 0.2037(6) 0.2299(3)
O27A O 0.9059(4) -0.5529(6) 0.6751(3)
O28A O 0.9663(4) -0.7645(6) 0.7250(3)
H24A H 0.8886 -0.0345 0.1466
H24_2 H 0.8886 -0.9655 0.6466
H26A H 0.9450 -0.7686 0.7564
H27A H 0.8822 -0.4864 0.6404
H28A H 0.9325 0.2615 0.2559
loop_
_geom_bond_atom_site_label_1
_geom_bond_atom_site_label_2
_geom_bond_site_symmetry_1
_geom_bond_site_symmetry_2
Nd1 O2 1_555 1_555
Nd2 O7 1_555 1_555
Nd3 O5 1_555 1_555
Nd4 O3 1_555 1_555
S1 O1 1_555 1_555
S2 O4 1_555 1_555
S3 O7 1_555 1_555
S4 O10 1_555 1_555
S5 O13 1_555 1_555
S6 O16 1_555 1_555
S7 O19 1_555 1_555
S8 O22 1_555 1_555
O2 S1 1_555 1_555
O3 S1 1_555 1_555
O4 Nd4A 1_555 1_555
O5 S2 1_555 1_555
O6 S2 1_555 1_555
O8 S3 1_555 1_555
O9 Nd3 1_555 1_555
O11 S4 1_555 1_555
O12 S4 1_555 1_555
O13 Nd4_2 1_555 1_555
O14 Nd1 1_555 1_555
O15 S5 1_555 1_555
O16 Nd1A_2 1_555 1_555
O17 Nd2 1_555 1_555
O18 S6 1_555 1_555
O19 Nd1 1_555 1_555
O20 S7 1_555 1_555
O21 S7 1_555 1_555
O22 Nd3 1_555 1_555
O23 S8 1_555 1_555
O24 Nd2 1_555 1_555
O25 Nd1 1_555 1_555
O26 Nd1 1_555 1_555
O27 Nd3 1_555 1_555
O28 Nd2 1_555 1_555
O29 Nd4 1_555 1_555
O30 Nd3 1_555 1_555
O31 Nd1 1_555 1_555
O32 Nd2 1_555 1_555
C1 S1 1_555 1_555
C2 C1 1_555 1_555
H1 C2 1_555 1_555
C3 C2 1_555 1_555
H2 C3 1_555 1_555
C4 C3 1_555 1_555
C5 C4 1_555 1_555
H3 C5 1_555 1_555
C6 S2 1_555 1_555
C7 C6 1_555 1_555
H4 C7 1_555 1_555
C8 C7 1_555 1_555
H5 C8 1_555 1_555
C9 C4 1_555 1_555
C10 C1 1_555 1_555
C11 S3 1_555 1_555
C12 C11 1_555 1_555
H6 C12 1_555 1_555
C13 C12 1_555 1_555
H7 C13 1_555 1_555
C14 C13 1_555 1_555
C15 C14 1_555 1_555
H8 C15 1_555 1_555
C16 S4 1_555 1_555
C17 C16 1_555 1_555
C18 C17 1_555 1_555
H9 C18 1_555 1_555
C19 C14 1_555 1_555
C20 S5 1_555 1_555
C21 C20 1_555 1_555
H10 C21 1_555 1_555
C22 C21 1_555 1_555
C23 C22 1_555 1_555
H11 C23 1_555 1_555
C24 C23 1_555 1_555
H12 C24 1_555 1_555
C25 S6 1_555 1_555
C26 C25 1_555 1_555
H13 C26 1_555 1_555
C27 C22 1_555 1_555
C28 C27 1_555 1_555
C29 C20 1_555 1_555
H14 C29 1_555 1_555
C30 S7 1_555 1_555
C31 C30 1_555 1_555
H15 C31 1_555 1_555
C32 C31 1_555 1_555
H16 C32 1_555 1_555
C33 C32 1_555 1_555
C34 C33 1_555 1_555
H17 C34 1_555 1_555
C35 S8 1_555 1_555
C36 C35 1_555 1_555
H18 C36 1_555 1_555
C37 C36 1_555 1_555
H19 C37 1_555 1_555
C38 C33 1_555 1_555
C39 C30 1_555 1_555
H20 C39 1_555 1_555
C40 C11 1_555 1_555
H21 C40 1_555 1_555
H22 C17 1_555 1_555
H23 C28 1_555 1_555
H24 O25 1_555 1_555
H25 C10 1_555 1_555
H26 O28 1_555 1_555
H27 O27 1_555 1_555
H28 O26 1_555 1_555
H29 O32 1_555 1_555
H30 O32 1_555 1_555
H31 O31 1_555 1_555
H32 O31 1_555 1_555
H33 O29 1_555 1_555
H34 O29 1_555 1_555
H35 O30 1_555 1_555
H36 O30 1_555 1_555
Nd1A O6 1_555 1_555
Nd1A_2 O25A 1_555 1_555
Nd2A O12 1_555 1_555
Nd2A_2 O20 1_555 1_555
Nd3A O11 1_555 1_555
Nd3A_2 O21 1_555 1_555
Nd4A O8 1_555 1_555
Nd4_2 O25 1_555 1_555
O4A Nd4 1_555 1_555
O6A Nd1 1_555 1_555
O8A Nd4 1_555 1_555
O11A Nd3 1_555 1_555
O12A Nd2 1_555 1_555
O13_2 Nd4 1_555 1_555
O16A Nd1 1_555 1_555
O18A Nd4 1_555 1_555
O20A Nd2 1_555 1_555
O21A Nd3 1_555 1_555
O25A Nd2 1_555 1_555
O25_2 Nd4 1_555 1_555
O26A Nd2 1_555 1_555
O27A Nd4 1_555 1_555
O28A Nd4 1_555 1_555
H24A O25A 1_555 1_555
H24_2 O25_2 1_555 1_555
H26A O28A 1_555 1_555
H27A O27A 1_555 1_555
H28A O26A 1_555 1_555
Nd3 O28 1_555 1_555
S3 O9 1_555 1_555
S5 O14 1_555 1_555
S6 O17 1_555 1_555
S8 O24 1_555 1_555
O18 Nd4A 1_555 1_555
O25 Nd2A_2 1_555 1_555
O26 Nd2A_2 1_555 1_555
O27 Nd4A 1_555 1_555
O28 Nd4A 1_555 1_555
C5 C6 1_555 1_555
C8 C9 1_555 1_555
C9 C10 1_555 1_555
C15 C16 1_555 1_555
C18 C19 1_555 1_555
C19 C40 1_555 1_555
C24 C25 1_555 1_555
C26 C27 1_555 1_555
C28 C29 1_555 1_555
C34 C35 1_555 1_555
C37 C38 1_555 1_555
C38 C39 1_555 1_555
Nd1A_2 O26A 1_555 1_555
Nd3A_2 O27A 1_555 1_555
Nd3A_2 O28A 1_555 1_555
Nd4A O25A 1_555 1_555

#END
