
#######################################################################
#
#                 Cambridge Crystallographic Data Centre
#                                CCDC 
#
#######################################################################
#
# If this CIF has been generated from an entry in the Cambridge 
# Structural Database, then it will include bibliographic, chemical, 
# crystal, experimental, refinement or atomic coordinate data resulting 
# from the CCDC's data processing and validation procedures.
#
#######################################################################

data_UDEZUA
_symmetry_cell_setting           monoclinic
_symmetry_space_group_name_H-M   'P 21/c'
_symmetry_Int_Tables_number      14
_space_group_name_Hall           '-P 2ybc'
loop_
_symmetry_equiv_pos_site_id
_symmetry_equiv_pos_as_xyz
1 x,y,z
2 -x,1/2+y,1/2-z
3 -x,-y,-z
4 x,1/2-y,1/2+z
_cell_length_a                   10.787(19)
_cell_length_b                   23.30(4)
_cell_length_c                   9.916(17)
_cell_angle_alpha                90
_cell_angle_beta                 116.00(3)
_cell_angle_gamma                90
_cell_volume                     2240.03
loop_
_atom_site_label
_atom_site_type_symbol
_atom_site_fract_x
_atom_site_fract_y
_atom_site_fract_z
O1 O 0.3166(4) 0.11129(19) 0.2964(6)
H1 H 0.3045 0.0982 0.2116
H2 H 0.2396 0.1053 0.2984
N1 N 0.9394(5) 0.0920(2) 0.9496(7)
O2 O 0.7262(4) 0.01880(17) 1.1072(5)
Co1 Co 1.0000 0.0000 1.0000
O3 O 0.7930(4) -0.02181(17) 0.9101(5)
P1 P 0.67442(15) -0.00248(8) 0.9460(2)
Co2 Co 0.36793(8) -0.03109(4) 0.75437(11)
C1 C 0.5860(6) 0.0575(3) 0.8228(8)
H3 H 0.6261 0.0934 0.8717
H4 H 0.5967 0.0549 0.7309
C2 C 0.3461(6) 0.0938(3) 0.6634(7)
H5 H 0.4002 0.1072 0.6119
C3 C 0.2990(6) 0.1469(3) 0.7181(8)
C4 C 0.3329(6) 0.2015(3) 0.6894(8)
H6 H 0.3848 0.2056 0.6358
C5 C 0.2901(8) 0.2509(3) 0.7403(9)
H7 H 0.3107 0.2874 0.7180
C6 C 0.2176(7) 0.2439(3) 0.8232(9)
H8 H 0.1908 0.2761 0.8592
C7 C 0.1829(7) 0.1893(4) 0.8548(9)
H9 H 0.1340 0.1855 0.9117
C8 C 0.2220(6) 0.1406(3) 0.8005(8)
H10 H 0.1972 0.1043 0.8189
C9 C 0.8328(6) 0.3697(3) 0.8902(8)
H11 H 0.8906 0.3996 0.9432
C10 C 0.6249(6) 0.3385(3) 0.7130(9)
H12 H 0.5358 0.3464 0.6410
C11 C 0.9582(6) 0.1311(3) 1.0580(9)
H13 H 1.0010 0.1193 1.1576
C12 C 0.9162(6) 0.1883(3) 1.0273(9)
H14 H 0.9351 0.2141 1.1055
C13 C 0.8461(6) 0.2067(3) 0.8791(9)
C14 C 0.8237(6) 0.1660(3) 0.7685(9)
H15 H 0.7761 0.1761 0.6680
C15 C 0.8725(6) 0.1096(3) 0.8075(9)
H16 H 0.8576 0.0835 0.7311
C16 C 0.7998(6) 0.2681(3) 0.8447(8)
C17 C 0.6675(6) 0.2815(3) 0.7367(8)
H17 H 0.6080 0.2525 0.6808
C18 C 0.8838(6) 0.3140(3) 0.9212(8)
H18 H 0.9738 0.3074 0.9928
C19 C 0.2229(6) 0.0581(3) 0.5477(8)
N2 N 0.7041(5) 0.3826(2) 0.7873(6)
N3 N 0.4369(4) 0.0559(2) 0.7874(6)
H19 H 0.4305 0.0683 0.8702
O4 O 0.5642(4) -0.05033(17) 0.9058(5)
O5 O 0.2119(4) 0.0053(2) 0.5723(6)
O6 O 0.1456(4) 0.08523(19) 0.4316(5)
O7 O 0.4523(5) -0.0481(2) 0.5749(6)
H20 H 0.4134 -0.0251 0.5018
H21 H 0.5397 -0.0454 0.6151
O8 O 1.0001(4) 0.00531(17) 1.2140(5)
H22 H 1.0583 0.0305 1.2663
H23 H 0.9201 0.0149 1.2029
O2B O 0.2738(4) -0.01880(17) 0.8928(5)
O3B O 0.2070(4) 0.02181(17) 1.0899(5)
P1B P 0.32558(15) 0.00248(8) 1.0540(2)
Co2B Co 0.63207(8) 0.03109(4) 1.24563(11)
C1B C 0.4140(6) -0.0575(3) 1.1772(8)
H3B H 0.3739 -0.0934 1.1283
H4B H 0.4033 -0.0549 1.2691
C2B C 0.6539(6) -0.0938(3) 1.3366(7)
H5B H 0.5998 -0.1072 1.3881
C3B C 0.7010(6) -0.1469(3) 1.2819(8)
C4B C 0.6671(6) -0.2015(3) 1.3106(8)
H6B H 0.6152 -0.2056 1.3642
C5B C 0.7099(8) -0.2509(3) 1.2597(9)
H7B H 0.6893 -0.2874 1.2820
C6B C 0.7824(7) -0.2439(3) 1.1768(9)
H8B H 0.8092 -0.2761 1.1408
C7B C 0.8171(7) -0.1893(4) 1.1452(9)
H9B H 0.8660 -0.1855 1.0883
C8B C 0.7780(6) -0.1406(3) 1.1995(8)
H10B H 0.8028 -0.1043 1.1811
C19B C 0.7771(6) -0.0581(3) 1.4523(8)
N3B N 0.5631(4) -0.0559(2) 1.2126(6)
H19B H 0.5695 -0.0683 1.1298
O4B O 0.4358(4) 0.05033(17) 1.0942(5)
O5B O 0.7881(4) -0.0053(2) 1.4277(6)
O6B O 0.8544(4) -0.08523(19) 1.5684(5)
O7B O 0.5477(5) 0.0481(2) 1.4251(6)
H20B H 0.5866 0.0251 1.4982
H21B H 0.4603 0.0454 1.3849
N1B N 1.0606(5) -0.0920(2) 1.0504(7)
C9B C 1.1672(6) -0.3697(3) 1.1098(8)
H11B H 1.1094 -0.3996 1.0568
C10B C 1.3751(6) -0.3385(3) 1.2870(9)
H12B H 1.4642 -0.3464 1.3590
C11B C 1.0418(6) -0.1311(3) 0.9420(9)
H13B H 0.9990 -0.1193 0.8424
C12B C 1.0838(6) -0.1883(3) 0.9727(9)
H14B H 1.0649 -0.2141 0.8945
C13B C 1.1539(6) -0.2067(3) 1.1209(9)
C14B C 1.1763(6) -0.1660(3) 1.2315(9)
H15B H 1.2239 -0.1761 1.3320
C15B C 1.1275(6) -0.1096(3) 1.1925(9)
H16B H 1.1424 -0.0835 1.2689
C16B C 1.2002(6) -0.2681(3) 1.1553(8)
C17B C 1.3325(6) -0.2815(3) 1.2633(8)
H17B H 1.3920 -0.2525 1.3192
C18B C 1.1162(6) -0.3140(3) 1.0788(8)
H18B H 1.0262 -0.3074 1.0072
N2B N 1.2959(5) -0.3826(2) 1.2127(6)
O8B O 0.9999(4) -0.00531(17) 0.7860(5)
H22B H 0.9417 -0.0305 0.7337
H23B H 1.0799 -0.0149 0.7971
Co1_2 Co 0.0000 0.0000 1.0000
O3B_2 O 1.2070(4) 0.02181(17) 1.0899(5)
Co2A Co 0.63207(8) 0.46891(4) 0.74563(11)
Co2C Co 1.36793(8) -0.46891(4) 1.25437(11)
N2A N 0.2959(5) -0.1174(2) 0.7127(6)
N2C N 0.7041(5) 0.1174(2) 1.2873(6)
loop_
_geom_bond_atom_site_label_1
_geom_bond_atom_site_label_2
_geom_bond_site_symmetry_1
_geom_bond_site_symmetry_2
O1 H1 1_555 1_555
H2 O1 1_555 1_555
N1 Co1 1_555 1_555
O2 P1 1_555 1_555
Co1 O3 1_555 1_555
O3 P1 1_555 1_555
P1 C1 1_555 1_555
Co2 N3 1_555 1_555
C1 H3 1_555 1_555
H4 C1 1_555 1_555
C2 H5 1_555 1_555
C3 C2 1_555 1_555
C4 C3 1_555 1_555
H6 C4 1_555 1_555
C5 C4 1_555 1_555
H7 C5 1_555 1_555
C6 C5 1_555 1_555
H8 C6 1_555 1_555
C7 C6 1_555 1_555
H9 C7 1_555 1_555
C8 C3 1_555 1_555
H10 C8 1_555 1_555
C9 H11 1_555 1_555
C10 H12 1_555 1_555
C11 N1 1_555 1_555
H13 C11 1_555 1_555
C12 C11 1_555 1_555
H14 C12 1_555 1_555
C13 C12 1_555 1_555
C14 C13 1_555 1_555
H15 C14 1_555 1_555
C15 N1 1_555 1_555
H16 C15 1_555 1_555
C16 C13 1_555 1_555
C17 C10 1_555 1_555
H17 C17 1_555 1_555
C18 C9 1_555 1_555
H18 C18 1_555 1_555
C19 C2 1_555 1_555
N2 C9 1_555 1_555
N3 C1 1_555 1_555
H19 N3 1_555 1_555
O4 P1 1_555 1_555
O5 Co2 1_555 1_555
O6 C19 1_555 1_555
O7 Co2 1_555 1_555
H20 O7 1_555 1_555
H21 O7 1_555 1_555
O8 Co1 1_555 1_555
H22 O8 1_555 1_555
H23 O8 1_555 1_555
O2B Co2 1_555 1_555
O3B P1B 1_555 1_555
P1B O2B 1_555 1_555
Co2B O2 1_555 1_555
C1B P1B 1_555 1_555
H3B C1B 1_555 1_555
H4B C1B 1_555 1_555
C2B H5B 1_555 1_555
C3B C2B 1_555 1_555
C4B C3B 1_555 1_555
H6B C4B 1_555 1_555
C5B C4B 1_555 1_555
H7B C5B 1_555 1_555
C6B C5B 1_555 1_555
H8B C6B 1_555 1_555
C7B C6B 1_555 1_555
H9B C7B 1_555 1_555
C8B C3B 1_555 1_555
H10B C8B 1_555 1_555
C19B C2B 1_555 1_555
N3B Co2B 1_555 1_555
H19B N3B 1_555 1_555
O4B P1B 1_555 1_555
O5B Co2B 1_555 1_555
O6B C19B 1_555 1_555
O7B Co2B 1_555 1_555
H20B O7B 1_555 1_555
H21B O7B 1_555 1_555
N1B Co1 1_555 1_555
C9B H11B 1_555 1_555
C10B H12B 1_555 1_555
C11B N1B 1_555 1_555
H13B C11B 1_555 1_555
C12B C11B 1_555 1_555
H14B C12B 1_555 1_555
C13B C12B 1_555 1_555
C14B C13B 1_555 1_555
H15B C14B 1_555 1_555
C15B N1B 1_555 1_555
H16B C15B 1_555 1_555
C16B C13B 1_555 1_555
C17B C10B 1_555 1_555
H17B C17B 1_555 1_555
C18B C9B 1_555 1_555
H18B C18B 1_555 1_555
N2B C9B 1_555 1_555
O8B Co1 1_555 1_555
H22B O8B 1_555 1_555
H23B O8B 1_555 1_555
Co1_2 O3B 1_555 1_555
O3B_2 Co1 1_555 1_555
Co2A N2 1_555 1_555
Co2C N2B 1_555 1_555
N2A Co2 1_555 1_555
N2C Co2B 1_555 1_555
Co2 O4 1_555 1_555
C2 N3 1_555 1_555
C7 C8 1_555 1_555
C10 N2 1_555 1_555
C14 C15 1_555 1_555
C16 C17 1_555 1_555
C16 C18 1_555 1_555
C19 O5 1_555 1_555
Co2B O4B 1_555 1_555
C1B N3B 1_555 1_555
C2B N3B 1_555 1_555
C7B C8B 1_555 1_555
C19B O5B 1_555 1_555
C10B N2B 1_555 1_555
C14B C15B 1_555 1_555
C16B C17B 1_555 1_555
C16B C18B 1_555 1_555

#END
