
#######################################################################
#
#                 Cambridge Crystallographic Data Centre
#                                CCDC 
#
#######################################################################
#
# If this CIF has been generated from an entry in the Cambridge 
# Structural Database, then it will include bibliographic, chemical, 
# crystal, experimental, refinement or atomic coordinate data resulting 
# from the CCDC's data processing and validation procedures.
#
#######################################################################

data_UDIBOA
_symmetry_cell_setting           triclinic
_symmetry_space_group_name_H-M   'P -1'
_symmetry_Int_Tables_number      2
_space_group_name_Hall           '-P 1'
loop_
_symmetry_equiv_pos_site_id
_symmetry_equiv_pos_as_xyz
1 x,y,z
2 -x,-y,-z
_cell_length_a                   6.2249(12)
_cell_length_b                   6.9903(14)
_cell_length_c                   10.404(2)
_cell_angle_alpha                89.99(3)
_cell_angle_beta                 84.93(3)
_cell_angle_gamma                89.99(3)
_cell_volume                     450.948
loop_
_atom_site_label
_atom_site_type_symbol
_atom_site_fract_x
_atom_site_fract_y
_atom_site_fract_z
Bi1 Bi 0.4484(2) 0.72191(18) 0.11717(11)
O1 O 0.683(5) 0.516(4) 0.196(2)
C1 C 0.940(4) 0.267(6) 0.521(3)
C2 C 1.145(4) 0.247(3) 0.267(2)
C3 C 0.935(4) 0.318(4) 0.284(2)
C4 C 0.826(4) 0.323(4) 0.411(2)
H1 H 0.6825 0.3620 0.4237
C5 C 0.809(5) 0.372(4) 0.180(3)
O2 O 0.808(3) 0.266(3) 0.0816(19)
C6 C 1.153(5) 0.201(5) 0.499(3)
H2 H 1.2256 0.1635 0.5691
C7 C 1.259(4) 0.190(4) 0.377(3)
H3 H 1.4005 0.1461 0.3651
C8 C 1.267(4) 0.241(5) 0.139(2)
C9 C 0.822(4) 0.274(6) 0.652(2)
O3 O 1.304(4) 0.401(3) 0.079(2)
O4 O 0.621(3) 0.297(4) 0.660(2)
O5 O 1.344(4) 0.088(3) 0.095(2)
O6 O 0.916(4) 0.237(4) 0.7488(19)
O7 O 0.721(3) 0.912(3) 0.184(2)
Bi1_2 Bi 1.4484(2) -0.27809(18) 0.11717(11)
Bi1_3 Bi 1.4484(2) 0.72191(18) 0.11717(11)
Bi1A Bi 0.5516(2) 0.27809(18) -0.11717(11)
Bi1A_2 Bi 0.5516(2) 0.27809(18) 0.88283(11)
Bi1A_3 Bi 1.5516(2) 0.27809(18) -0.11717(11)
O2A O 0.192(3) 0.734(3) -0.0816(19)
O3_2 O 0.304(4) 0.401(3) 0.079(2)
O3A O 0.696(4) 0.599(3) -0.079(2)
O4A O 0.379(3) 0.703(4) 0.340(2)
O5_2 O 0.344(4) 1.088(3) 0.095(2)
O5A O 0.656(4) 0.912(3) -0.095(2)
O6A O 0.084(4) 0.763(4) 0.2512(19)
loop_
_geom_bond_atom_site_label_1
_geom_bond_atom_site_label_2
_geom_bond_site_symmetry_1
_geom_bond_site_symmetry_2
Bi1 O1 1_555 1_555
O1 C5 1_555 1_555
C1 C4 1_555 1_555
C2 C3 1_555 1_555
C3 C4 1_555 1_555
C4 H1 1_555 1_555
C5 C3 1_555 1_555
O2 C5 1_555 1_555
C6 C1 1_555 1_555
H2 C6 1_555 1_555
C7 C2 1_555 1_555
H3 C7 1_555 1_555
C8 C2 1_555 1_555
C9 C1 1_555 1_555
O3 C8 1_555 1_555
O4 C9 1_555 1_555
O5 C8 1_555 1_555
O6 C9 1_555 1_555
O7 Bi1 1_555 1_555
Bi1_2 O5 1_555 1_555
Bi1_3 O3 1_555 1_555
Bi1A O2 1_555 1_555
Bi1A_2 O4 1_555 1_555
Bi1A_3 O3 1_555 1_555
O2A Bi1 1_555 1_555
O3_2 Bi1 1_555 1_555
O3A Bi1 1_555 1_555
O4A Bi1 1_555 1_555
O5_2 Bi1 1_555 1_555
O5A Bi1 1_555 1_555
O6A Bi1 1_555 1_555
C6 C7 1_555 1_555
O5 Bi1A_3 1_555 1_555
O6 Bi1A_2 1_555 1_555
Bi1A O3_2 1_555 1_555
Bi1A O3A 1_555 1_555

#END
