
#######################################################################
#
#                 Cambridge Crystallographic Data Centre
#                                CCDC 
#
#######################################################################
#
# If this CIF has been generated from an entry in the Cambridge 
# Structural Database, then it will include bibliographic, chemical, 
# crystal, experimental, refinement or atomic coordinate data resulting 
# from the CCDC's data processing and validation procedures.
#
#######################################################################

data_UDICIV01
_symmetry_cell_setting           monoclinic
_symmetry_space_group_name_H-M   'P 21/a'
_symmetry_Int_Tables_number      14
_space_group_name_Hall           '-P 2yab'
loop_
_symmetry_equiv_pos_site_id
_symmetry_equiv_pos_as_xyz
1 x,y,z
2 1/2-x,1/2+y,-z
3 -x,-y,-z
4 1/2+x,1/2-y,z
_cell_length_a                   14.5135(2)
_cell_length_b                   7.0174(1)
_cell_length_c                   9.2957(2)
_cell_angle_alpha                90
_cell_angle_beta                 89.001(1)
_cell_angle_gamma                90
_cell_volume                     946.596
loop_
_atom_site_label
_atom_site_type_symbol
_atom_site_fract_x
_atom_site_fract_y
_atom_site_fract_z
Bi1 Bi 0.2779(1) 0.7522(9) 0.3654(2)
O1 O 0.3876(15) 0.753(12) 0.6132(25)
O2 O 0.3240(26) 1.1290(51) 0.4314(38)
O3 O 0.2963(24) 0.4225(50) 0.3945(41)
O4 O 0.3468(17) 0.7680(95) 0.1453(27)
O5 O 0.1629(26) 0.5689(43) 0.1898(37)
O6 O 0.1711(26) 0.8580(53) 0.2252(40)
O7 O 0.4532(17) 0.8080(41) 0.2670(27)
C1 C 0.4687(28) 0.7019(60) 0.6194(42)
O8 O 0.5188(19) 0.6579(36) 0.5182(31)
C2 C 0.5022(27) 0.762(15) 0.7661(35)
C3 C 0.5974(29) 0.754(19) 0.7798(41)
C4 C 0.4459(21) 0.752(21) 0.8882(42)
C5 C 0.6627(27) 0.726(12) 0.6455(39)
C6 C 0.6512(22) 0.749(18) 0.9063(42)
C7 C 0.4928(27) 0.743(16) 1.0179(39)
C8 C 0.5892(25) 0.743(22) 1.0207(42)
C9 C 0.4304(22) 0.742(17) 1.1517(38)
C10 C 0.6279(27) 0.773(11) 1.1716(43)
O2A O 0.1760(26) 0.6290(51) 0.5686(38)
O3A O 0.2037(24) 0.9225(50) 0.6055(41)
O2B O 0.6760(26) 0.8710(51) 0.5686(38)
O3B O 0.7037(24) 0.5775(50) 0.6055(41)
Bi1B Bi 0.7221(1) 1.2478(9) 0.6346(2)
Bi1C Bi 0.7779(1) 0.7478(9) 0.3654(2)
Bi1B_2 Bi 0.7221(1) 0.2478(9) 0.6346(2)
O4_2 O 0.3468(17) 0.7680(95) 1.1453(27)
O7_2 O 0.4532(17) 0.8080(41) 1.2670(27)
O5C O 0.6629(26) 0.9311(43) 1.1898(37)
O6C O 0.6711(26) 0.6420(53) 1.2252(40)
Bi1_2 Bi 0.2779(1) 0.7522(9) 1.3654(2)
Bi1C_2 Bi 0.7779(1) 0.7478(9) 1.3654(2)
loop_
_geom_bond_atom_site_label_1
_geom_bond_atom_site_label_2
_geom_bond_site_symmetry_1
_geom_bond_site_symmetry_2
Bi1 O1 1_555 1_555
O1 C1 1_555 1_555
O2 Bi1 1_555 1_555
O3 Bi1 1_555 1_555
O4 Bi1 1_555 1_555
O5 Bi1 1_555 1_555
O6 Bi1 1_555 1_555
O7 Bi1 1_555 1_555
C1 O8 1_555 1_555
C2 C1 1_555 1_555
C3 C2 1_555 1_555
C4 C2 1_555 1_555
C5 C3 1_555 1_555
C6 C3 1_555 1_555
C7 C4 1_555 1_555
C8 C6 1_555 1_555
C9 C7 1_555 1_555
C10 C8 1_555 1_555
O2A Bi1 1_555 1_555
O3A Bi1 1_555 1_555
O2B C5 1_555 1_555
O3B C5 1_555 1_555
Bi1B O2B 1_555 1_555
Bi1C O2B 1_555 1_555
Bi1B_2 O3B 1_555 1_555
O4_2 C9 1_555 1_555
O7_2 C9 1_555 1_555
O5C C10 1_555 1_555
O6C C10 1_555 1_555
Bi1_2 O4_2 1_555 1_555
Bi1C_2 O5C 1_555 1_555
C7 C8 1_555 1_555
O3B Bi1C 1_555 1_555
O7_2 Bi1_2 1_555 1_555
O6C Bi1C_2 1_555 1_555

#END
