
#######################################################################
#
#                 Cambridge Crystallographic Data Centre
#                                CCDC 
#
#######################################################################
#
# If this CIF has been generated from an entry in the Cambridge 
# Structural Database, then it will include bibliographic, chemical, 
# crystal, experimental, refinement or atomic coordinate data resulting 
# from the CCDC's data processing and validation procedures.
#
#######################################################################

data_UDICER
_symmetry_cell_setting           monoclinic
_symmetry_space_group_name_H-M   'P 21/c'
_symmetry_Int_Tables_number      14
_space_group_name_Hall           '-P 2ybc'
loop_
_symmetry_equiv_pos_site_id
_symmetry_equiv_pos_as_xyz
1 x,y,z
2 -x,1/2+y,1/2-z
3 -x,-y,-z
4 x,1/2-y,1/2+z
_cell_length_a                   9.89052(46)
_cell_length_b                   16.88087(77)
_cell_length_c                   7.20308(33)
_cell_angle_alpha                90
_cell_angle_beta                 70.7143(19)
_cell_angle_gamma                90
_cell_volume                     1135.14
loop_
_atom_site_label
_atom_site_type_symbol
_atom_site_fract_x
_atom_site_fract_y
_atom_site_fract_z
C1 C 0.839867 0.765126 0.819672
C2 C 0.735297 0.716770 0.951034
C3 C 0.611255 0.753876 1.082086
C4 C 0.600723 0.837780 1.091815
C5 C 0.715256 0.882874 0.978791
C6 C 0.829908 0.848538 0.832288
C7 C 0.937623 0.897541 0.692352
C8 C 0.474026 0.877168 1.230775
C9 C 0.745325 0.628112 0.940779
O1 O 1.0665(22) 0.8748(14) 0.6907(37)
O2 O 0.8969(19) 0.9780(13) 0.6941(25)
O3 O 0.8478(28) 0.5817(16) 0.8445(54)
O4 O 0.6520(33) 0.5840(16) 1.0667(47)
O5 O 0.3870(21) 0.8420(12) 1.3797(29)
O6 O 0.4576(36) 0.9536(15) 1.2111(46)
Bi1 Bi 1.22158(36) 0.95928(18) 0.47356(49)
O7 O 1.3332(37) 0.9461(26) 0.7292(50)
O2B O 1.1031(19) 1.0220(13) 0.3059(25)
O3A O 1.1522(28) 1.0817(16) 0.6555(54)
O4A O 1.3480(33) 1.0840(16) 0.4333(47)
O5_2 O 1.3870(21) 0.8420(12) 0.3797(29)
O6_2 O 1.4576(36) 0.9536(15) 0.2111(46)
Bi1B Bi 0.77842(36) 1.04072(18) 0.52644(49)
Bi1A Bi 0.77842(36) 0.45928(18) 1.02644(49)
Bi1_2 Bi 0.22158(36) 0.95928(18) 1.47356(49)
O8 O 0.2441(50) 0.8296(19) 0.9284(66)
loop_
_geom_bond_atom_site_label_1
_geom_bond_atom_site_label_2
_geom_bond_site_symmetry_1
_geom_bond_site_symmetry_2
C1 C2 1_555 1_555
C2 C3 1_555 1_555
C3 C4 1_555 1_555
C4 C5 1_555 1_555
C5 C6 1_555 1_555
C6 C1 1_555 1_555
C7 C6 1_555 1_555
C8 C4 1_555 1_555
C9 C2 1_555 1_555
O1 C7 1_555 1_555
O2 C7 1_555 1_555
O3 C9 1_555 1_555
O4 C9 1_555 1_555
O5 C8 1_555 1_555
O6 C8 1_555 1_555
Bi1 O1 1_555 1_555
O7 Bi1 1_555 1_555
O2B Bi1 1_555 1_555
O3A Bi1 1_555 1_555
O4A Bi1 1_555 1_555
O5_2 Bi1 1_555 1_555
O6_2 Bi1 1_555 1_555
Bi1B O2 1_555 1_555
Bi1A O3 1_555 1_555
Bi1_2 O5 1_555 1_555
O4 Bi1A 1_555 1_555
O6 Bi1_2 1_555 1_555

#END
