
#######################################################################
#
#                 Cambridge Crystallographic Data Centre
#                                CCDC 
#
#######################################################################
#
# If this CIF has been generated from an entry in the Cambridge 
# Structural Database, then it will include bibliographic, chemical, 
# crystal, experimental, refinement or atomic coordinate data resulting 
# from the CCDC's data processing and validation procedures.
#
#######################################################################

data_UDICAN
_symmetry_cell_setting           monoclinic
_symmetry_space_group_name_H-M   'P 21/c'
_symmetry_Int_Tables_number      14
_space_group_name_Hall           '-P 2ybc'
loop_
_symmetry_equiv_pos_site_id
_symmetry_equiv_pos_as_xyz
1 x,y,z
2 -x,1/2+y,1/2-z
3 -x,-y,-z
4 x,1/2-y,1/2+z
_cell_length_a                   12.127(2)
_cell_length_b                   25.055(5)
_cell_length_c                   10.628(2)
_cell_angle_alpha                90
_cell_angle_beta                 90.23(3)
_cell_angle_gamma                90
_cell_volume                     3229.21
loop_
_atom_site_label
_atom_site_type_symbol
_atom_site_fract_x
_atom_site_fract_y
_atom_site_fract_z
Bi1 Bi 0.92197(6) -0.00566(3) 0.14000(8)
Bi2 Bi 0.73424(6) 0.01436(3) -0.14937(8)
Bi3 Bi 0.58409(6) -0.01384(3) 0.13978(7)
Bi4 Bi 0.90319(5) 0.12870(3) -0.01431(7)
Bi5 Bi 0.73224(5) -0.12722(3) 0.02218(8)
Bi6 Bi 0.59210(6) 0.13307(3) -0.02419(8)
O1 O 0.5821(10) 0.0264(6) -0.0506(16)
O2 O 0.7705(11) -0.0255(6) 0.0260(15)
O3 O 0.7486(10) 0.0983(5) -0.0837(15)
O4 O 0.9420(13) 0.1387(6) 0.7821(16)
O5 O 0.9504(10) 0.0455(4) -0.0236(13)
O6 O 0.6975(14) -0.1047(8) -0.1884(18)
O7 O 0.5831(16) -0.0429(7) -0.261(2)
O8 O 0.5959(13) -0.3039(6) -0.5424(17)
O9 O 0.6914(14) -0.2879(7) -0.367(2)
O10 O 1.0690(13) 0.1292(5) 0.1438(15)
O11 O 1.0790(13) 0.0468(5) 0.2274(15)
O12 O 1.1325(17) 0.2754(7) 0.6227(18)
O13 O 1.0316(18) 0.2808(7) 0.448(3)
O14 O 1.250(2) 0.0353(10) 0.6649(19)
O15 O 0.4466(14) -0.0682(7) -0.704(2)
O16 O 0.4396(14) -0.1528(7) -0.7769(16)
O17 O 0.8416(14) 0.0835(6) 0.1955(17)
O18 O 0.6592(14) 0.0936(6) 0.2124(16)
O19 O 0.7639(16) 0.2970(7) 0.581(2)
O20 O 0.6477(17) 0.2814(7) 0.429(2)
O21 O 0.9265(16) 0.0592(7) 0.6960(17)
O22 O 1.190(4) 0.1011(11) 0.785(4)
O23 O 0.5846(11) -0.0929(6) 0.068(2)
C1 C 0.6207(18) -0.0895(8) -0.264(2)
C2 C 0.585(2) -0.1279(8) -0.366(2)
C3 C 0.6152(19) -0.1823(9) -0.358(2)
H1 H 0.6507 -0.1959 -0.2877
C4 C 0.5904(17) -0.2141(7) -0.4594(19)
C5 C 0.5381(17) -0.1944(9) -0.562(3)
H2 H 0.5199 -0.2174 -0.6272
C6 C 0.5340(17) -0.1063(8) -0.474(2)
H3 H 0.5167 -0.0702 -0.4789
C7 C 0.5107(16) -0.1407(8) -0.573(2)
C8 C 0.6279(15) -0.2714(8) -0.454(2)
C9 C 0.4623(18) -0.1183(7) -0.690(2)
C10 C 1.0809(17) 0.1750(8) 0.386(2)
H4 H 1.0462 0.1960 0.3254
C11 C 1.1102(15) 0.1974(8) 0.500(3)
C12 C 1.1490(15) 0.0903(8) 0.457(2)
H5 H 1.1618 0.0543 0.4427
C13 C 1.0809(15) 0.0976(7) 0.2355(19)
C14 C 1.0865(18) 0.2535(9) 0.523(2)
C15 C 1.1025(15) 0.1216(7) 0.3601(19)
C16 C 1.1757(19) 0.1118(9) 0.572(2)
C17 C 1.1575(19) 0.1674(9) 0.595(2)
H6 H 1.1769 0.1829 0.6714
C18 C 1.214(2) 0.0798(10) 0.679(3)
C19 C 0.7752(17) 0.1286(8) 0.375(2)
C20 C 0.8331(16) 0.1034(9) 0.476(2)
H7 H 0.8561 0.0681 0.4702
C21 C 0.7555(14) 0.0983(8) 0.253(3)
C22 C 0.7332(18) 0.1803(9) 0.390(2)
H8 H 0.6876 0.1949 0.3287
C23 C 0.7582(16) 0.2086(7) 0.4931(17)
C24 C 0.8539(19) 0.1343(8) 0.585(2)
C25 C 0.8194(19) 0.1859(9) 0.592(2)
H9 H 0.8363 0.2061 0.6633
C26 C 0.7218(18) 0.2659(8) 0.508(2)
C27 C 0.9095(17) 0.1074(8) 0.6921(19)
Bi1B Bi 1.07803(6) 0.00566(3) -0.14000(8)
Bi1B_2 Bi 1.07803(6) 0.00566(3) 0.86000(8)
Bi2B Bi 1.26576(6) -0.01436(3) 0.14937(8)
Bi3_2 Bi 0.58409(6) -0.01384(3) -0.86022(7)
Bi3B Bi 0.41591(6) 0.01384(3) -0.13978(7)
Bi3B_2 Bi 1.41591(6) 0.01384(3) 0.86022(7)
Bi4_2 Bi 0.90319(5) 0.12870(3) 0.98569(7)
Bi4C Bi 0.90319(5) 0.37130(3) 0.48569(7)
Bi5B Bi 1.26776(5) 0.12722(3) 0.97782(8)
Bi5C Bi 0.73224(5) -0.37278(3) -0.47782(8)
Bi6A Bi 0.40790(6) -0.36693(3) -0.47581(8)
Bi6B Bi 0.40790(6) -0.13307(3) -0.97581(8)
Bi6B_2 Bi 0.40790(6) -0.13307(3) 0.02419(8)
Bi6C Bi 0.59210(6) 0.36693(3) 0.47581(8)
O1B O 0.4179(10) -0.0264(6) 0.0506(16)
O4_2 O 0.9420(13) 0.1387(6) -0.2179(16)
O5B O 1.0496(10) -0.0455(4) 0.0236(13)
O7B O 0.4169(16) 0.0429(7) 0.261(2)
O8A O 0.4041(13) 0.1961(6) 0.0424(17)
O8C O 0.5959(13) -0.1961(6) -0.0424(17)
O9C O 0.6914(14) -0.2121(7) 0.133(2)
O11B O 0.9210(13) -0.0468(5) -0.2274(15)
O13C O 1.0316(18) 0.2192(7) -0.052(3)
O14B O 0.750(2) -0.0353(10) 0.3351(19)
O15_2 O 0.4466(14) -0.0682(7) 0.296(2)
O16B O 0.5604(14) 0.1528(7) -0.2231(16)
O19C O 0.7639(16) 0.2030(7) 0.081(2)
O20C O 0.6477(17) 0.2186(7) -0.071(2)
O21B O 1.0735(16) -0.0592(7) 0.3040(17)
O22B O 0.810(4) -0.1011(11) 0.215(4)
O23B O 0.4154(11) 0.0929(6) -0.068(2)
loop_
_geom_bond_atom_site_label_1
_geom_bond_atom_site_label_2
_geom_bond_site_symmetry_1
_geom_bond_site_symmetry_2
Bi1 O2 1_555 1_555
Bi2 O1 1_555 1_555
Bi3 O1 1_555 1_555
Bi4 O3 1_555 1_555
Bi5 O2 1_555 1_555
Bi6 O1 1_555 1_555
O1 Bi3B 1_555 1_555
O2 Bi2 1_555 1_555
O3 Bi2 1_555 1_555
O4 C27 1_555 1_555
O5 Bi1 1_555 1_555
O6 Bi5 1_555 1_555
O7 Bi2 1_555 1_555
O8 C8 1_555 1_555
O9 C8 1_555 1_555
O10 Bi4 1_555 1_555
O11 Bi1 1_555 1_555
O12 C14 1_555 1_555
O13 C14 1_555 1_555
O14 C18 1_555 1_555
O15 C9 1_555 1_555
O16 C9 1_555 1_555
O17 Bi1 1_555 1_555
O18 Bi6 1_555 1_555
O19 C26 1_555 1_555
O20 C26 1_555 1_555
O21 C27 1_555 1_555
O22 C18 1_555 1_555
O23 Bi3 1_555 1_555
C1 O6 1_555 1_555
C2 C1 1_555 1_555
C3 C2 1_555 1_555
H1 C3 1_555 1_555
C4 C3 1_555 1_555
C5 C4 1_555 1_555
H2 C5 1_555 1_555
C6 C2 1_555 1_555
H3 C6 1_555 1_555
C7 C5 1_555 1_555
C8 C4 1_555 1_555
C9 C7 1_555 1_555
C10 H4 1_555 1_555
C11 C10 1_555 1_555
C12 H5 1_555 1_555
C13 O10 1_555 1_555
C14 C11 1_555 1_555
C15 C10 1_555 1_555
C16 C12 1_555 1_555
C17 C11 1_555 1_555
H6 C17 1_555 1_555
C18 C16 1_555 1_555
C19 C20 1_555 1_555
C20 H7 1_555 1_555
C21 O17 1_555 1_555
C22 C19 1_555 1_555
H8 C22 1_555 1_555
C23 C22 1_555 1_555
C24 C20 1_555 1_555
C25 C23 1_555 1_555
H9 C25 1_555 1_555
C26 C23 1_555 1_555
C27 C24 1_555 1_555
Bi1B O5 1_555 1_555
Bi1B_2 O21 1_555 1_555
Bi2B O11 1_555 1_555
Bi3_2 O15 1_555 1_555
Bi3B O7 1_555 1_555
Bi3B_2 O14 1_555 1_555
Bi4_2 O4 1_555 1_555
Bi4C O13 1_555 1_555
Bi5B O22 1_555 1_555
Bi5C O8 1_555 1_555
Bi6A O8 1_555 1_555
Bi6B O16 1_555 1_555
Bi6B_2 O23 1_555 1_555
Bi6C O19 1_555 1_555
O1B Bi3 1_555 1_555
O4_2 Bi4 1_555 1_555
O5B Bi1 1_555 1_555
O7B Bi3 1_555 1_555
O8A Bi6 1_555 1_555
O8C Bi5 1_555 1_555
O9C Bi5 1_555 1_555
O11B Bi2 1_555 1_555
O13C Bi4 1_555 1_555
O14B Bi3 1_555 1_555
O15_2 Bi3 1_555 1_555
O16B Bi6 1_555 1_555
O19C Bi4 1_555 1_555
O20C Bi6 1_555 1_555
O21B Bi1 1_555 1_555
O22B Bi1 1_555 1_555
O23B Bi6 1_555 1_555
Bi3 O2 1_555 1_555
Bi4 O5 1_555 1_555
Bi4 O17 1_555 1_555
Bi5 O23 1_555 1_555
Bi5 O22B 1_555 1_555
Bi6 O3 1_555 1_555
Bi6 O19C 1_555 1_555
O7 C1 1_555 1_555
O9 Bi5C 1_555 1_555
O11 C13 1_555 1_555
O18 C21 1_555 1_555
O19 Bi4C 1_555 1_555
O20 Bi6C 1_555 1_555
O22 Bi1B_2 1_555 1_555
C6 C7 1_555 1_555
C12 C15 1_555 1_555
C13 C15 1_555 1_555
C16 C17 1_555 1_555
C19 C21 1_555 1_555
C24 C25 1_555 1_555
Bi1B O5B 1_555 1_555
Bi1B O11B 1_555 1_555
Bi3B O1B 1_555 1_555
Bi3B O23B 1_555 1_555
Bi6B_2 O1B 1_555 1_555
Bi6B_2 O8C 1_555 1_555

#END
