
#######################################################################
#
#                 Cambridge Crystallographic Data Centre
#                                CCDC 
#
#######################################################################
#
# If this CIF has been generated from an entry in the Cambridge 
# Structural Database, then it will include bibliographic, chemical, 
# crystal, experimental, refinement or atomic coordinate data resulting 
# from the CCDC's data processing and validation procedures.
#
#######################################################################

data_UDILUQ
_symmetry_cell_setting           monoclinic
_symmetry_space_group_name_H-M   'C 2/c'
_symmetry_Int_Tables_number      15
_space_group_name_Hall           '-C 2yn'
loop_
_symmetry_equiv_pos_site_id
_symmetry_equiv_pos_as_xyz
1 x,y,z
2 -x,y,1/2-z
3 1/2+x,1/2+y,z
4 1/2-x,1/2+y,1/2-z
5 -x,-y,-z
6 x,-y,1/2+z
7 1/2-x,1/2-y,-z
8 1/2+x,1/2-y,1/2+z
_cell_length_a                   25.655(8)
_cell_length_b                   11.570(4)
_cell_length_c                   7.024(2)
_cell_angle_alpha                90
_cell_angle_beta                 99.927(4)
_cell_angle_gamma                90
_cell_volume                     2053.71
loop_
_atom_site_label
_atom_site_type_symbol
_atom_site_fract_x
_atom_site_fract_y
_atom_site_fract_z
Mn1 Mn 0.5000 -0.12030(2) 0.7500
O1 O 0.56871(4) -0.02426(9) 0.72485(14)
N1 N 0.55113(5) -0.28498(10) 0.72527(16)
C1 C 0.52738(6) -0.38832(11) 0.7388(2)
C2 C 0.55387(7) -0.49443(12) 0.7302(2)
C3 C 0.56935(5) 0.07609(11) 0.65537(18)
C4 C 0.63138(8) -0.38538(16) 0.6999(3)
H1 H 0.6669 -0.3814 0.6883
C5 C 0.60150(6) -0.28378(14) 0.7056(2)
H2 H 0.6178 -0.2129 0.6950
C6 C 0.60753(8) -0.48923(15) 0.7118(3)
H3 H 0.6267 -0.5571 0.7076
C7 C 0.65686(6) 0.11691(12) 0.8497(2)
C8 C 0.62033(6) 0.14144(13) 0.7010(2)
C9 C 0.72292(6) 0.27322(15) 0.8160(2)
H4 H 0.7052 0.2893 0.6918
C10 C 0.70516(5) 0.18396(13) 0.9217(2)
C11 C 0.52521(8) -0.60116(14) 0.7403(3)
H5 H 0.5425 -0.6712 0.7330
C12 C 0.73313(6) 0.16161(15) 1.1054(3)
H6 H 0.7222 0.1017 1.1775
O2 O 0.53103(4) 0.12754(7) 0.55657(15)
H7 H 0.6513(7) 0.0541(16) 0.919(3)
H8 H 0.6231(6) 0.2089(15) 0.628(2)
O1F O 0.93129(4) 0.52426(9) 1.27515(14)
C3F C 0.93065(5) 0.42391(11) 1.34463(18)
C7F C 0.84314(6) 0.38309(12) 1.1503(2)
C8F C 0.87967(6) 0.35856(13) 1.2990(2)
C9F C 0.77708(6) 0.22678(15) 1.1840(2)
H4F H 0.7948 0.2107 1.3082
C10F C 0.79484(5) 0.31604(13) 1.0783(2)
C12F C 0.76687(6) 0.33839(15) 0.8946(3)
H6F H 0.7778 0.3983 0.8225
O2F O 0.96897(4) 0.37246(7) 1.44343(15)
H7F H 0.8487(7) 0.4459(16) 1.081(3)
H8F H 0.8769(6) 0.2911(15) 1.372(2)
N1A N 0.44887(5) -0.28498(10) 0.77473(16)
C1A C 0.47262(6) -0.38832(11) 0.7612(2)
C2A C 0.44613(7) -0.49443(12) 0.7698(2)
C4A C 0.36862(8) -0.38538(16) 0.8001(3)
H1A H 0.3331 -0.3814 0.8117
C5A C 0.39850(6) -0.28378(14) 0.7944(2)
H2A H 0.3822 -0.2129 0.8050
C6A C 0.39247(8) -0.48923(15) 0.7882(3)
H3A H 0.3733 -0.5571 0.7924
C11A C 0.47479(8) -0.60116(14) 0.7597(3)
H5A H 0.4575 -0.6712 0.7670
Mn1B Mn 1.0000 0.37970(2) 1.7500
Mn1D Mn 0.5000 0.12030(2) 0.2500
Mn1F Mn 1.0000 0.62030(2) 1.2500
O1A O 0.43129(4) -0.02426(9) 0.77515(14)
O2D O 0.46897(4) -0.12754(7) 0.44343(15)
O2E O 0.53103(4) -0.12754(7) 1.05657(15)
loop_
_geom_bond_atom_site_label_1
_geom_bond_atom_site_label_2
_geom_bond_site_symmetry_1
_geom_bond_site_symmetry_2
Mn1 O1 1_555 1_555
O1 C3 1_555 1_555
N1 Mn1 1_555 1_555
C1 N1 1_555 1_555
C2 C1 1_555 1_555
C3 C8 1_555 1_555
C4 H1 1_555 1_555
C5 N1 1_555 1_555
H2 C5 1_555 1_555
C6 C2 1_555 1_555
H3 C6 1_555 1_555
C7 C8 1_555 1_555
C8 H8 1_555 1_555
C9 H4 1_555 1_555
C10 C7 1_555 1_555
C11 C2 1_555 1_555
H5 C11 1_555 1_555
C12 C10 1_555 1_555
H6 C12 1_555 1_555
O2 C3 1_555 1_555
H7 C7 1_555 1_555
O1F C3F 1_555 1_555
C3F C8F 1_555 1_555
C7F C8F 1_555 1_555
C8F H8F 1_555 1_555
C9F C12 1_555 1_555
H4F C9F 1_555 1_555
C10F C7F 1_555 1_555
C12F C9 1_555 1_555
H6F C12F 1_555 1_555
O2F C3F 1_555 1_555
H7F C7F 1_555 1_555
N1A Mn1 1_555 1_555
C1A C1 1_555 1_555
C2A C1A 1_555 1_555
C4A H1A 1_555 1_555
C5A N1A 1_555 1_555
H2A C5A 1_555 1_555
C6A C2A 1_555 1_555
H3A C6A 1_555 1_555
C11A C11 1_555 1_555
H5A C11A 1_555 1_555
Mn1B O2F 1_555 1_555
Mn1D O2 1_555 1_555
Mn1F O1F 1_555 1_555
O1A Mn1 1_555 1_555
O2D Mn1 1_555 1_555
O2E Mn1 1_555 1_555
C4 C5 1_555 1_555
C4 C6 1_555 1_555
C9 C10 1_555 1_555
C9F C10F 1_555 1_555
C10F C12F 1_555 1_555
N1A C1A 1_555 1_555
C2A C11A 1_555 1_555
C4A C5A 1_555 1_555
C4A C6A 1_555 1_555

#END
