
#######################################################################
#
#                 Cambridge Crystallographic Data Centre
#                                CCDC 
#
#######################################################################
#
# If this CIF has been generated from an entry in the Cambridge 
# Structural Database, then it will include bibliographic, chemical, 
# crystal, experimental, refinement or atomic coordinate data resulting 
# from the CCDC's data processing and validation procedures.
#
#######################################################################

data_UDIQUU
_symmetry_cell_setting           monoclinic
_symmetry_space_group_name_H-M   'P 21/n'
_symmetry_Int_Tables_number      14
_space_group_name_Hall           '-P 2yn'
loop_
_symmetry_equiv_pos_site_id
_symmetry_equiv_pos_as_xyz
1 x,y,z
2 1/2-x,1/2+y,1/2-z
3 -x,-y,-z
4 1/2+x,1/2-y,1/2+z
_cell_length_a                   15.1489(11)
_cell_length_b                   8.7777(6)
_cell_length_c                   15.9117(11)
_cell_angle_alpha                90
_cell_angle_beta                 102.5330(10)
_cell_angle_gamma                90
_cell_volume                     2065.4
loop_
_atom_site_label
_atom_site_type_symbol
_atom_site_fract_x
_atom_site_fract_y
_atom_site_fract_z
Cd1 Cd -0.222780(19) -0.12049(4) 0.35071(2)
O1 O -0.2707(2) -0.6239(4) 0.29309(19)
O2 O -0.2349(2) -0.3826(4) 0.3189(2)
O3 O -0.2008(2) -0.1908(4) 0.4917(2)
O4 O -0.1103(2) -0.3925(4) 0.5221(3)
O5 O -0.2136(2) 0.1265(4) 0.3987(2)
H1 H -0.1613 0.1569 0.4254
H2 H -0.2458 0.1929 0.3662
N1 N -0.0681(2) -0.1471(4) 0.3555(2)
N2 N 0.2065(2) -0.2969(5) 0.2455(2)
N3 N 0.2964(2) -0.2862(5) 0.2399(2)
N4 N 0.2755(2) -0.1304(4) 0.3413(2)
N5 N 0.2959(3) -0.0283(5) 0.4108(3)
H3 H 0.2701 -0.0657 0.4517
H4 H 0.2658 0.0488 0.3810
N6 N 0.6201(2) -0.1123(5) 0.3298(2)
C1 C -0.0407(3) -0.2733(7) 0.3233(4)
H5 H -0.0818 -0.3528 0.3093
C2 C 0.0445(3) -0.2937(7) 0.3093(4)
H6 H 0.0598 -0.3848 0.2863
C3 C 0.1074(3) -0.1789(5) 0.3294(3)
C4 C 0.0811(3) -0.0507(6) 0.3667(4)
H7 H 0.1217 0.0288 0.3834
C5 C -0.0060(3) -0.0403(6) 0.3791(3)
H8 H -0.0220 0.0467 0.4056
C6 C 0.1953(3) -0.2004(5) 0.3065(3)
C7 C 0.3364(3) -0.1866(5) 0.2977(3)
C8 C 0.4336(3) -0.1519(5) 0.3103(3)
C9 C 0.4849(3) -0.0848(7) 0.3824(3)
H9 H 0.4580 -0.0502 0.4261
C10 C 0.5770(3) -0.0692(7) 0.3896(3)
H10 H 0.6108 -0.0256 0.4397
C11 C 0.5696(3) -0.1717(7) 0.2586(3)
H11 H 0.5979 -0.2004 0.2147
C12 C 0.4777(3) -0.1928(7) 0.2465(3)
H12 H 0.4453 -0.2347 0.1953
C13 C -0.2665(3) -0.5048(5) 0.3378(3)
C14 C -0.3037(3) -0.5164(5) 0.4182(3)
C15 C -0.2669(3) -0.4350(5) 0.4932(3)
C16 C -0.1854(3) -0.3325(6) 0.5020(3)
C17 C -0.3068(4) -0.4499(6) 0.5641(3)
H13 H -0.2831 -0.3966 0.6145
C18 C -0.3811(4) -0.5430(7) 0.5601(4)
H14 H -0.4075 -0.5508 0.6075
C19 C -0.4161(4) -0.6238(7) 0.4869(4)
H15 H -0.4660 -0.6867 0.4846
C20 C -0.3770(3) -0.6117(6) 0.4166(3)
H16 H -0.4002 -0.6683 0.3674
Cd1A Cd -0.277220(19) -0.62049(4) 0.14929(2)
Cd1_2 Cd 0.777220(19) -0.12049(4) 0.35071(2)
O1A O -0.2293(2) -0.1239(4) 0.20691(19)
N6_2 N -0.3799(2) -0.1123(5) 0.3298(2)
O6 O -0.4280(2) -0.1848(4) 0.0372(3)
H17 H -0.4106 -0.1083 0.0121
H18 H -0.4849 -0.1949 0.0323
loop_
_geom_bond_atom_site_label_1
_geom_bond_atom_site_label_2
_geom_bond_site_symmetry_1
_geom_bond_site_symmetry_2
Cd1 O2 1_555 1_555
O1 C13 1_555 1_555
O2 C13 1_555 1_555
O3 Cd1 1_555 1_555
O4 C16 1_555 1_555
O5 Cd1 1_555 1_555
H1 O5 1_555 1_555
H2 O5 1_555 1_555
N1 Cd1 1_555 1_555
N2 N3 1_555 1_555
N3 C7 1_555 1_555
N4 N5 1_555 1_555
N5 H3 1_555 1_555
H4 N5 1_555 1_555
N6 C10 1_555 1_555
C1 N1 1_555 1_555
H5 C1 1_555 1_555
C2 C1 1_555 1_555
H6 C2 1_555 1_555
C3 C2 1_555 1_555
C4 C3 1_555 1_555
H7 C4 1_555 1_555
C5 N1 1_555 1_555
H8 C5 1_555 1_555
C6 N2 1_555 1_555
C7 N4 1_555 1_555
C8 C7 1_555 1_555
C9 C8 1_555 1_555
H9 C9 1_555 1_555
C10 C9 1_555 1_555
H10 C10 1_555 1_555
C11 N6 1_555 1_555
H11 C11 1_555 1_555
C12 C8 1_555 1_555
H12 C12 1_555 1_555
C13 C14 1_555 1_555
C14 C15 1_555 1_555
C15 C16 1_555 1_555
C16 O3 1_555 1_555
C17 C15 1_555 1_555
H13 C17 1_555 1_555
C18 C17 1_555 1_555
H14 C18 1_555 1_555
C19 C18 1_555 1_555
H15 C19 1_555 1_555
C20 C14 1_555 1_555
H16 C20 1_555 1_555
O6 H17 1_555 1_555
H18 O6 1_555 1_555
Cd1A O1 1_555 1_555
Cd1_2 N6 1_555 1_555
O1A Cd1 1_555 1_555
N6_2 Cd1 1_555 1_555
N4 C6 1_555 1_555
C3 C6 1_555 1_555
C4 C5 1_555 1_555
C11 C12 1_555 1_555
C19 C20 1_555 1_555

#END
