
#######################################################################
#
#                 Cambridge Crystallographic Data Centre
#                                CCDC 
#
#######################################################################
#
# If this CIF has been generated from an entry in the Cambridge 
# Structural Database, then it will include bibliographic, chemical, 
# crystal, experimental, refinement or atomic coordinate data resulting 
# from the CCDC's data processing and validation procedures.
#
#######################################################################

data_UDIRUW
_symmetry_cell_setting           monoclinic
_symmetry_space_group_name_H-M   'P 21/n'
_symmetry_Int_Tables_number      14
_space_group_name_Hall           '-P 2yn'
loop_
_symmetry_equiv_pos_site_id
_symmetry_equiv_pos_as_xyz
1 x,y,z
2 1/2-x,1/2+y,1/2-z
3 -x,-y,-z
4 1/2+x,1/2-y,1/2+z
_cell_length_a                   8.2004(18)
_cell_length_b                   9.065(2)
_cell_length_c                   16.074(4)
_cell_angle_alpha                90
_cell_angle_beta                 93.925(3)
_cell_angle_gamma                90
_cell_volume                     1192.08
loop_
_atom_site_label
_atom_site_type_symbol
_atom_site_fract_x
_atom_site_fract_y
_atom_site_fract_z
Zn1 Zn 0.83201(3) 0.04701(3) 0.870779(18)
C1 C 0.5872(3) 0.3894(3) 0.96238(17)
C2 C 0.5387(4) 0.5146(3) 0.91821(18)
H1 H 0.5640 0.5246 0.8630
C3 C 0.4529(4) 0.6250(3) 0.95540(18)
H2 H 0.4219 0.7092 0.9253
C4 C 0.6845(3) 0.2727(3) 0.92181(17)
C5 C 0.9047(3) -0.3915(3) 1.03272(16)
H3 H 0.8405 -0.3184 1.0545
C6 C 0.9521(3) -0.3792(3) 0.95188(15)
C7 C 1.0475(3) -0.4884(3) 0.91916(17)
H4 H 1.0791 -0.4804 0.8649
C8 C 0.9008(3) -0.2479(3) 0.89990(17)
C9 C 1.3313(4) 0.0783(5) 0.8548(3)
H5 H 1.4366 0.0516 0.8741
C10 C 1.2920(5) 0.1739(5) 0.7927(3)
H6 H 1.3635 0.2245 0.7604
C11 C 1.1229(4) 0.1814(4) 0.7867(2)
H7 H 1.0610 0.2401 0.7491
N1 N 1.0619(3) 0.0925(3) 0.84251(14)
N2 N 1.1923(3) 0.0284(3) 0.88382(17)
O1 O 0.7139(2) 0.1527(2) 0.96029(13)
O2 O 0.7335(3) 0.2932(2) 0.85114(12)
O3 O 0.8763(3) -0.1294(2) 0.93936(12)
O4 O 0.8880(3) -0.2573(2) 0.82287(13)
O5 O 0.6943(3) 0.0040(2) 0.76752(13)
H8 H 0.660(5) 0.081(2) 0.745(2)
H9 H 0.727(5) -0.055(3) 0.7340(18)
C1B C 0.4128(3) 0.6106(3) 1.03762(17)
C2B C 0.4613(4) 0.4854(3) 1.08179(18)
H1B H 0.4360 0.4754 1.1370
C3B C 0.5471(4) 0.3750(3) 1.04460(18)
H2B H 0.5781 0.2908 1.0747
C4B C 0.3155(3) 0.7273(3) 1.07819(17)
O1B O 0.2861(2) 0.8473(2) 1.03971(13)
O2B O 0.2665(3) 0.7068(2) 1.14886(12)
C5B C 1.0953(3) -0.6085(3) 0.96728(16)
H3B H 1.1595 -0.6816 0.9455
C6B C 1.0479(3) -0.6208(3) 1.04812(15)
C7B C 0.9525(3) -0.5116(3) 1.08084(17)
H4B H 0.9209 -0.5196 1.1351
C8B C 1.0992(3) -0.7521(3) 1.10010(17)
O3B O 1.1237(3) -0.8706(2) 1.06064(12)
O4B O 1.1120(3) -0.7427(2) 1.17713(13)
Zn1B Zn 0.16799(3) 0.95299(3) 1.129221(18)
C9B C -0.3313(4) 0.9217(5) 1.1452(3)
H5B H -0.4366 0.9484 1.1259
C10B C -0.2920(5) 0.8261(5) 1.2073(3)
H6B H -0.3635 0.7755 1.2396
C11B C -0.1229(4) 0.8186(4) 1.2133(2)
H7B H -0.0610 0.7599 1.2509
N1B N -0.0619(3) 0.9075(3) 1.15749(14)
N2B N -0.1923(3) 0.9716(3) 1.11618(17)
O5B O 0.3057(3) 0.9960(2) 1.23248(13)
H8B H 0.340(5) 0.919(2) 1.255(2)
H9B H 0.273(5) 1.055(3) 1.2660(18)
Zn1B_2 Zn 1.16799(3) -1.04701(3) 1.129221(18)
O3B_2 O 0.1237(3) 1.1294(2) 1.06064(12)
loop_
_geom_bond_atom_site_label_1
_geom_bond_atom_site_label_2
_geom_bond_site_symmetry_1
_geom_bond_site_symmetry_2
Zn1 N1 1_555 1_555
C1 C2 1_555 1_555
C2 H1 1_555 1_555
C3 C2 1_555 1_555
H2 C3 1_555 1_555
C4 C1 1_555 1_555
C5 H3 1_555 1_555
C6 C5 1_555 1_555
C7 C6 1_555 1_555
H4 C7 1_555 1_555
C8 C6 1_555 1_555
C9 H5 1_555 1_555
C10 C9 1_555 1_555
H6 C10 1_555 1_555
C11 C10 1_555 1_555
H7 C11 1_555 1_555
N1 C11 1_555 1_555
N2 C9 1_555 1_555
O1 Zn1 1_555 1_555
O2 Zn1 1_555 1_555
O3 Zn1 1_555 1_555
O4 C8 1_555 1_555
O5 Zn1 1_555 1_555
H8 O5 1_555 1_555
H9 O5 1_555 1_555
C1B C3 1_555 1_555
C2B C1B 1_555 1_555
H1B C2B 1_555 1_555
C3B C1 1_555 1_555
H2B C3B 1_555 1_555
C4B C1B 1_555 1_555
O1B C4B 1_555 1_555
O2B C4B 1_555 1_555
C5B C7 1_555 1_555
H3B C5B 1_555 1_555
C6B C5B 1_555 1_555
C7B C5 1_555 1_555
H4B C7B 1_555 1_555
C8B C6B 1_555 1_555
O3B C8B 1_555 1_555
O4B C8B 1_555 1_555
Zn1B O1B 1_555 1_555
C9B H5B 1_555 1_555
C10B C9B 1_555 1_555
H6B C10B 1_555 1_555
C11B C10B 1_555 1_555
H7B C11B 1_555 1_555
N1B Zn1B 1_555 1_555
N2B C9B 1_555 1_555
O5B Zn1B 1_555 1_555
H8B O5B 1_555 1_555
H9B O5B 1_555 1_555
Zn1B_2 O3B 1_555 1_555
O3B_2 Zn1B 1_555 1_555
C4 O1 1_555 1_555
C4 O2 1_555 1_555
C8 O3 1_555 1_555
N1 N2 1_555 1_555
C2B C3B 1_555 1_555
O2B Zn1B 1_555 1_555
C6B C7B 1_555 1_555
C11B N1B 1_555 1_555
N1B N2B 1_555 1_555

#END
