
#######################################################################
#
#                 Cambridge Crystallographic Data Centre
#                                CCDC 
#
#######################################################################
#
# If this CIF has been generated from an entry in the Cambridge 
# Structural Database, then it will include bibliographic, chemical, 
# crystal, experimental, refinement or atomic coordinate data resulting 
# from the CCDC's data processing and validation procedures.
#
#######################################################################

data_UDITIM
_symmetry_cell_setting           monoclinic
_symmetry_space_group_name_H-M   'P 21/n'
_symmetry_Int_Tables_number      14
_space_group_name_Hall           '-P 2yn'
loop_
_symmetry_equiv_pos_site_id
_symmetry_equiv_pos_as_xyz
1 x,y,z
2 1/2-x,1/2+y,1/2-z
3 -x,-y,-z
4 1/2+x,1/2-y,1/2+z
_cell_length_a                   14.9711(18)
_cell_length_b                   7.2964(9)
_cell_length_c                   15.0080(18)
_cell_angle_alpha                90
_cell_angle_beta                 96.940(2)
_cell_angle_gamma                90
_cell_volume                     1627.39
loop_
_atom_site_label
_atom_site_type_symbol
_atom_site_fract_x
_atom_site_fract_y
_atom_site_fract_z
Mn1 Mn 0.5000 0.0000 0.5000
Br1 Br 0.530722(18) 0.17181(4) 0.351724(17)
N1 N 0.35592(15) 0.1293(3) 0.46543(15)
H1 H 0.3618 0.2265 0.4276
H2 H 0.3209 0.0433 0.4328
N2 N 0.36349(15) 0.5012(3) 0.51553(15)
H3 H 0.389(2) 0.573(5) 0.549(2)
N3 N 0.46285(14) 0.7364(3) 0.41466(14)
H4 H 0.4855 0.6362 0.4471
H5 H 0.4911 0.7421 0.3636
C1 C 0.30556(17) 0.1934(4) 0.53424(18)
C2 C 0.25402(18) 0.0704(4) 0.5778(2)
H6 H 0.2500 -0.0542 0.5595
C3 C 0.20872(19) 0.1296(5) 0.6477(2)
H7 H 0.1727 0.0460 0.6762
C4 C 0.2156(2) 0.3099(5) 0.6761(2)
H8 H 0.1856 0.3494 0.7250
C5 C 0.26653(19) 0.4330(4) 0.63286(19)
H9 H 0.2708 0.5572 0.6519
C6 C 0.31139(17) 0.3753(4) 0.56175(17)
C7 C 0.31819(17) 0.5966(3) 0.44006(17)
C8 C 0.22604(18) 0.5805(4) 0.41428(19)
H10 H 0.1911 0.5054 0.4485
C9 C 0.18398(19) 0.6724(4) 0.3392(2)
H11 H 0.1210 0.6600 0.3226
C10 C 0.2344(2) 0.7819(4) 0.28880(18)
H12 H 0.2064 0.8449 0.2375
C11 C 0.36873(17) 0.7078(4) 0.38859(17)
C12 C 0.32650(19) 0.7987(4) 0.31403(18)
H13 H 0.3611 0.8739 0.2795
Br1B Br 0.469278(18) -0.17181(4) 0.648276(17)
N1B N 0.64408(15) -0.1293(3) 0.53457(15)
H1B H 0.6382 -0.2265 0.5724
H2B H 0.6791 -0.0433 0.5672
N2B N 0.63651(15) -0.5012(3) 0.48447(15)
H3B H 0.611(2) -0.573(5) 0.451(2)
N3B N 0.53715(14) -0.7364(3) 0.58534(14)
H4B H 0.5145 -0.6362 0.5529
H5B H 0.5089 -0.7421 0.6364
C1B C 0.69444(17) -0.1934(4) 0.46576(18)
C2B C 0.74598(18) -0.0704(4) 0.4222(2)
H6B H 0.7500 0.0542 0.4405
C3B C 0.79128(19) -0.1296(5) 0.3523(2)
H7B H 0.8273 -0.0460 0.3238
C4B C 0.7844(2) -0.3099(5) 0.3239(2)
H8B H 0.8144 -0.3494 0.2750
C5B C 0.73347(19) -0.4330(4) 0.36714(19)
H9B H 0.7292 -0.5572 0.3481
C6B C 0.68861(17) -0.3753(4) 0.43825(17)
C7B C 0.68181(17) -0.5966(3) 0.55994(17)
C8B C 0.77396(18) -0.5805(4) 0.58572(19)
H10B H 0.8089 -0.5054 0.5515
C9B C 0.81602(19) -0.6724(4) 0.6608(2)
H11B H 0.8790 -0.6600 0.6774
C10B C 0.7656(2) -0.7819(4) 0.71120(18)
H12B H 0.7936 -0.8449 0.7625
C11B C 0.63127(17) -0.7078(4) 0.61141(17)
C12B C 0.67350(19) -0.7987(4) 0.68597(18)
H13B H 0.6389 -0.8739 0.7205
Mn1_2 Mn 0.5000 -1.0000 0.5000
Mn1_3 Mn 0.5000 1.0000 0.5000
N3_2 N 0.46285(14) -0.2636(3) 0.41466(14)
N3B_2 N 0.53715(14) 0.2636(3) 0.58534(14)
C13 C 0.4943(6) 0.2308(14) 0.9195(5)
H14 H 0.5193 0.1176 0.9491
H15 H 0.4558 0.2931 0.9594
C14 C 0.5685(5) 0.3563(10) 0.8955(4)
H16 H 0.5862 0.4453 0.9443
H17 H 0.6221 0.2852 0.8836
C15 C 0.4424(4) 0.1895(6) 0.8288(4)
H18 H 0.4535 0.0619 0.8105
H19 H 0.3771 0.2060 0.8307
C16 C 0.5291(3) 0.4456(6) 0.8175(3)
H20 H 0.5762 0.4906 0.7820
H21 H 0.4927 0.5513 0.8333
O1 O 0.4744(2) 0.3152(4) 0.76839(19)
loop_
_geom_bond_atom_site_label_1
_geom_bond_atom_site_label_2
_geom_bond_site_symmetry_1
_geom_bond_site_symmetry_2
Mn1 Br1 1_555 1_555
N1 Mn1 1_555 1_555
H1 N1 1_555 1_555
H2 N1 1_555 1_555
N2 H3 1_555 1_555
N3 H4 1_555 1_555
H5 N3 1_555 1_555
C1 N1 1_555 1_555
C2 C1 1_555 1_555
H6 C2 1_555 1_555
C3 C2 1_555 1_555
H7 C3 1_555 1_555
C4 C3 1_555 1_555
H8 C4 1_555 1_555
C5 C4 1_555 1_555
H9 C5 1_555 1_555
C6 N2 1_555 1_555
C7 N2 1_555 1_555
C8 C7 1_555 1_555
H10 C8 1_555 1_555
C9 C8 1_555 1_555
H11 C9 1_555 1_555
C10 C9 1_555 1_555
H12 C10 1_555 1_555
C11 N3 1_555 1_555
C12 C10 1_555 1_555
H13 C12 1_555 1_555
C13 H14 1_555 1_555
H15 C13 1_555 1_555
C14 C13 1_555 1_555
H16 C14 1_555 1_555
H17 C14 1_555 1_555
C15 C13 1_555 1_555
H18 C15 1_555 1_555
H19 C15 1_555 1_555
C16 C14 1_555 1_555
H20 C16 1_555 1_555
H21 C16 1_555 1_555
O1 C15 1_555 1_555
Br1B Mn1 1_555 1_555
N1B Mn1 1_555 1_555
H1B N1B 1_555 1_555
H2B N1B 1_555 1_555
N2B H3B 1_555 1_555
N3B H4B 1_555 1_555
H5B N3B 1_555 1_555
C1B N1B 1_555 1_555
C2B C1B 1_555 1_555
H6B C2B 1_555 1_555
C3B C2B 1_555 1_555
H7B C3B 1_555 1_555
C4B C3B 1_555 1_555
H8B C4B 1_555 1_555
C5B C4B 1_555 1_555
H9B C5B 1_555 1_555
C6B N2B 1_555 1_555
C7B N2B 1_555 1_555
C8B C7B 1_555 1_555
H10B C8B 1_555 1_555
C9B C8B 1_555 1_555
H11B C9B 1_555 1_555
C10B C9B 1_555 1_555
H12B C10B 1_555 1_555
C11B N3B 1_555 1_555
C12B C10B 1_555 1_555
H13B C12B 1_555 1_555
Mn1_2 N3B 1_555 1_555
Mn1_3 N3 1_555 1_555
N3_2 Mn1 1_555 1_555
N3B_2 Mn1 1_555 1_555
C1 C6 1_555 1_555
C5 C6 1_555 1_555
C7 C11 1_555 1_555
C11 C12 1_555 1_555
C16 O1 1_555 1_555
C1B C6B 1_555 1_555
C5B C6B 1_555 1_555
C7B C11B 1_555 1_555
C11B C12B 1_555 1_555

#END
