
#######################################################################
#
#                 Cambridge Crystallographic Data Centre
#                                CCDC 
#
#######################################################################
#
# If this CIF has been generated from an entry in the Cambridge 
# Structural Database, then it will include bibliographic, chemical, 
# crystal, experimental, refinement or atomic coordinate data resulting 
# from the CCDC's data processing and validation procedures.
#
#######################################################################

data_UDOKED
_symmetry_cell_setting           monoclinic
_symmetry_space_group_name_H-M   'C 2/c'
_symmetry_Int_Tables_number      15
_space_group_name_Hall           '-C 2yn'
loop_
_symmetry_equiv_pos_site_id
_symmetry_equiv_pos_as_xyz
1 x,y,z
2 x,-y,1/2+z
3 1/2+x,1/2+y,z
4 1/2+x,1/2-y,1/2+z
5 -x,-y,-z
6 -x,y,1/2-z
7 1/2-x,1/2-y,-z
8 1/2-x,1/2+y,1/2-z
_cell_length_a                   12.5527(9)
_cell_length_b                   7.4161(6)
_cell_length_c                   18.5198(12)
_cell_angle_alpha                90
_cell_angle_beta                 100.578(6)
_cell_angle_gamma                90
_cell_volume                     1694.75
loop_
_atom_site_label
_atom_site_type_symbol
_atom_site_fract_x
_atom_site_fract_y
_atom_site_fract_z
Cu1 Cu 0.429497(14) 0.18289(3) 0.449968(10)
O1 O 0.38655(9) 0.2823(2) 0.54108(7)
O2 O 0.57382(10) 0.2014(2) 0.51038(7)
O3 O 0.73007(10) 0.0904(2) 0.39254(7)
O4 O 0.44147(14) 0.4738(2) 0.38452(9)
N1 N 0.02570(11) 0.4468(2) 0.63403(8)
H1 H -0.00676(11) 0.3669(2) 0.65951(8)
H2 H -0.02425(11) 0.5298(2) 0.61564(8)
N2 N 0.22701(11) 0.3389(2) 0.58339(7)
C1 C 0.11290(15) 0.5386(3) 0.68615(10)
H3 H 0.13539(15) 0.6458(3) 0.66297(10)
H4 H 0.08460(15) 0.5763(3) 0.72910(10)
C2 C 0.21070(14) 0.4178(3) 0.71016(9)
H5 H 0.18567(14) 0.2978(3) 0.71957(9)
H6 H 0.25202(14) 0.4636(3) 0.75589(9)
C3 C 0.28485(13) 0.4045(3) 0.65415(9)
H7 H 0.34430(13) 0.3233(3) 0.67244(9)
H8 H 0.31518(13) 0.5224(3) 0.64763(9)
C4 C 0.28326(12) 0.2843(2) 0.53532(8)
C5 C 0.67047(12) 0.2279(2) 0.50259(8)
C6 C 0.73984(13) 0.1772(2) 0.45043(9)
H9 H 0.3844(26) 0.5199(39) 0.3841(15)
H10 H 0.4788(28) 0.5225(46) 0.4056(17)
C4F C 0.21674(12) 0.2157(2) 0.46468(8)
O1F O 0.11345(9) 0.2177(2) 0.45892(7)
N2F N 0.27299(11) 0.1611(2) 0.41661(7)
C3F C 0.21515(13) 0.0955(3) 0.34585(9)
C2F C 0.28930(14) 0.0822(3) 0.28984(9)
C1F C 0.38710(15) -0.0386(3) 0.31385(10)
N1F N 0.47430(11) 0.0532(2) 0.36597(8)
H1F H 0.50676(11) 0.1331(2) 0.34049(8)
H2F H 0.52425(11) -0.0298(2) 0.38436(8)
H3F H 0.36461(15) -0.1458(3) 0.33703(10)
H4F H 0.41540(15) -0.0763(3) 0.27090(10)
H5F H 0.31433(14) 0.2022(3) 0.28043(9)
H6F H 0.24798(14) 0.0364(3) 0.24411(9)
H7F H 0.15570(13) 0.1767(3) 0.32756(9)
H8F H 0.18482(13) -0.0224(3) 0.35237(9)
C5F C 0.82953(12) 0.2721(2) 0.49741(8)
O2F O 0.92618(10) 0.2986(2) 0.48962(7)
C6F C 0.76016(13) 0.3228(2) 0.54957(9)
O3F O 0.76993(10) 0.4096(2) 0.60746(7)
Cu1F Cu 0.070503(14) 0.31711(3) 0.550032(10)
O4F O 0.05853(14) 0.0262(2) 0.61548(9)
H9F H 0.1156(26) -0.0199(39) 0.6159(15)
H10F H 0.0212(28) -0.0225(46) 0.5944(17)
Cu1F_2 Cu 1.070503(14) 0.31711(3) 0.550032(10)
O2F_2 O -0.07382(10) 0.2986(2) 0.48962(7)
O5 O 0.5000 0.3507(3) 0.2500
H11 H 0.4783(24) 0.4156(41) 0.2768(15)
H11E H 0.5217(24) 0.4156(41) 0.2232(15)
loop_
_geom_bond_atom_site_label_1
_geom_bond_atom_site_label_2
_geom_bond_site_symmetry_1
_geom_bond_site_symmetry_2
Cu1 O1 1_555 1_555
O1 C4 1_555 1_555
O2 Cu1 1_555 1_555
O3 C6 1_555 1_555
O4 Cu1 1_555 1_555
O5 H11 1_555 1_555
N1 H1 1_555 1_555
H2 N1 1_555 1_555
N2 C3 1_555 1_555
C1 N1 1_555 1_555
H3 C1 1_555 1_555
H4 C1 1_555 1_555
C2 C1 1_555 1_555
H5 C2 1_555 1_555
H6 C2 1_555 1_555
C3 C2 1_555 1_555
H7 C3 1_555 1_555
H8 C3 1_555 1_555
C4 N2 1_555 1_555
C5 O2 1_555 1_555
C6 C5 1_555 1_555
H9 O4 1_555 1_555
H10 O4 1_555 1_555
C4F C4 1_555 1_555
O1F C4F 1_555 1_555
N2F Cu1 1_555 1_555
C3F N2F 1_555 1_555
C2F C3F 1_555 1_555
C1F C2F 1_555 1_555
N1F Cu1 1_555 1_555
H1F N1F 1_555 1_555
H2F N1F 1_555 1_555
H3F C1F 1_555 1_555
H4F C1F 1_555 1_555
H5F C2F 1_555 1_555
H6F C2F 1_555 1_555
H7F C3F 1_555 1_555
H8F C3F 1_555 1_555
C5F C6 1_555 1_555
O2F C5F 1_555 1_555
C6F C5 1_555 1_555
O3F C6F 1_555 1_555
H11E O5 1_555 1_555
Cu1F N1 1_555 1_555
O4F Cu1F 1_555 1_555
H9F O4F 1_555 1_555
H10F O4F 1_555 1_555
Cu1F_2 O2F 1_555 1_555
O2F_2 Cu1F 1_555 1_555
N2 Cu1F 1_555 1_555
C4F N2F 1_555 1_555
O1F Cu1F 1_555 1_555
C1F N1F 1_555 1_555
C5F C6F 1_555 1_555

#END
