
#######################################################################
#
#                 Cambridge Crystallographic Data Centre
#                                CCDC 
#
#######################################################################
#
# If this CIF has been generated from an entry in the Cambridge 
# Structural Database, then it will include bibliographic, chemical, 
# crystal, experimental, refinement or atomic coordinate data resulting 
# from the CCDC's data processing and validation procedures.
#
#######################################################################

data_UDOMAC
_symmetry_cell_setting           monoclinic
_symmetry_space_group_name_H-M   'P 21/c'
_symmetry_Int_Tables_number      14
_space_group_name_Hall           '-P 2ybc'
loop_
_symmetry_equiv_pos_site_id
_symmetry_equiv_pos_as_xyz
1 x,y,z
2 -x,1/2+y,1/2-z
3 -x,-y,-z
4 x,1/2-y,1/2+z
_cell_length_a                   10.4230(3)
_cell_length_b                   15.4308(5)
_cell_length_c                   26.7556(9)
_cell_angle_alpha                90
_cell_angle_beta                 77.211(1)
_cell_angle_gamma                90
_cell_volume                     4196.49
loop_
_atom_site_label
_atom_site_type_symbol
_atom_site_fract_x
_atom_site_fract_y
_atom_site_fract_z
C1 C 0.1438(4) 0.6104(3) 0.09332(18)
H1 H 0.1818 0.602 0.1233
H2 H 0.0591 0.5803 0.0986
H3 H 0.1305 0.6725 0.0885
C2 C 0.0716(5) 0.6069(3) -0.0024(2)
N1 N -0.0302(4) 0.6348(3) -0.0037(2)
Co1 Co 0.31224(4) -0.25824(3) -0.215640(16)
Co2 Co 0.50000 0.50000 0.00000
O1 O 0.1409(2) -0.31642(12) -0.17996(8)
O2 O 0.2024(2) -0.16172(12) -0.23902(8)
N2 N 0.3130(2) -0.08188(15) 0.03183(10)
O3 O 0.4207(2) -0.35586(13) -0.19321(8)
C5 C 0.3223(3) -0.03597(17) 0.07471(11)
C6 C 0.3505(3) 0.09492(17) 0.02646(11)
O4 O 0.4847(2) -0.20545(14) -0.25376(8)
C7 C 0.3232(3) -0.03836(17) -0.01338(11)
C8 C 0.3426(2) 0.04967(15) -0.01709(10)
H5 H 0.3498 0.0765 -0.0466
O5 O 0.3882(2) 0.51072(13) -0.05331(9)
C10 C 0.3152(3) -0.08333(17) 0.12364(11)
C12 C 0.3398(3) 0.05310(16) 0.07311(10)
H6 H 0.344 0.0824 0.1009
N5 N 0.3161(2) -0.18608(17) -0.14842(10)
C13 C 0.3174(3) -0.08802(17) -0.06037(11)
N6 N 0.3086(3) -0.17283(16) 0.21510(10)
C14 C -0.0091(3) -0.21491(18) -0.20112(11)
N7 N 0.4355(3) 0.36753(15) 0.01274(12)
C15 C 0.3764(3) 0.18980(17) 0.02233(12)
O6 O 0.3436(3) 0.54568(15) 0.05324(10)
C16 C 0.0807(3) -0.15548(18) -0.23052(11)
C17 C 0.2946(3) -0.04137(19) 0.17042(12)
H7 H 0.2833 0.0197 0.172
C18 C 0.3639(3) -0.05534(19) -0.10848(12)
H8 H 0.3978 0.002 -0.1126
C19 C 0.2734(4) 0.5374(2) -0.04763(17)
C20 C 0.3324(4) -0.17266(19) 0.12435(13)
H9 H 0.3464 -0.2052 0.0935
N8 N -0.2541(3) -0.17814(16) -0.18645(11)
C21 C 0.3287(4) -0.2132(2) 0.17058(14)
H10 H 0.3414 -0.2742 0.1703
C22 C 0.2906(3) -0.0878(2) 0.21471(12)
H11 H 0.2741 -0.0575 0.2464
C23 C 0.5348(4) -0.3787(2) -0.21473(13)
C24 C -0.1441(4) -0.19531(19) -0.19344(12)
C25 C 0.0255(3) -0.29280(19) -0.17825(11)
C26 C 0.4057(3) 0.23772(19) 0.06210(12)
H12 H 0.4071 0.2106 0.0939
C27 C 0.2676(4) -0.1713(2) -0.05761(13)
H13 H 0.2327 -0.1972 -0.0253
C28 C 0.1978(4) 0.5734(2) -0.00160(19)
C29 C 0.2690(4) -0.2163(2) -0.10212(15)
H14 H 0.2334 -0.2733 -0.0991
C30 C 0.3765(5) 0.2346(2) -0.02168(15)
H15 H 0.3551 0.2058 -0.0501
C31 C 0.4328(3) 0.3245(2) 0.05558(13)
H16 H 0.451 0.3558 0.0838
C32 C 0.6162(4) -0.3313(2) -0.25341(14)
C33 C 0.2139(4) 0.5268(2) -0.09461(16)
H17 H 0.2749 0.5498 -0.1249
H18 H 0.1304 0.5584 -0.0892
H19 H 0.1981 0.4652 -0.0998
C34 C 0.5895(4) -0.2447(2) -0.26993(12)
C35 C 0.2359(4) 0.5744(2) 0.04649(18)
C36 C 0.3618(3) -0.1053(2) -0.15088(12)
H20 H 0.3948 -0.0808 -0.1838
C37 C 0.0266(3) -0.07671(19) -0.25324(13)
H21 H -0.0155 -0.0376 -0.2256
H22 H -0.0383 -0.0955 -0.2725
H23 H 0.0987 -0.0463 -0.2763
C38 C 0.4074(5) 0.3217(2) -0.02497(17)
H24 H 0.4084 0.3505 -0.0565
C39 C -0.0823(3) -0.3504(2) -0.14817(14)
H25 H -0.1098 -0.3286 -0.113
H26 H -0.1577 -0.35 -0.1645
H27 H -0.0492 -0.4097 -0.1476
C40 C 0.7412(5) -0.3675(3) -0.27620(18)
C41 C 0.5832(4) -0.4636(2) -0.19679(15)
H28 H 0.5284 -0.4792 -0.1633
H29 H 0.6748 -0.457 -0.1939
H30 H 0.5777 -0.5094 -0.2216
C42 C 0.6945(4) -0.1988(3) -0.30938(15)
H31 H 0.6679 -0.1385 -0.3129
H32 H 0.778 -0.1998 -0.2982
H33 H 0.7055 -0.2283 -0.3425
N9 N 0.8414(5) -0.3965(3) -0.29504(18)
C1B C 0.8562(4) 0.3896(3) -0.09332(18)
H1B H 0.8182 0.398 -0.1233
H2B H 0.9409 0.4197 -0.0986
H3B H 0.8695 0.3275 -0.0885
C2B C 0.9284(5) 0.3931(3) 0.0024(2)
N1B N 1.0302(4) 0.3652(3) 0.0037(2)
Co1B Co 0.68776(4) 1.25824(3) 0.215640(16)
Co1C Co 0.31224(4) -0.24176(3) 0.284360(16)
Co1A Co 0.68776(4) 1.24176(3) -0.284360(16)
O1B O 0.8591(2) 1.31642(12) 0.17996(8)
O2B O 0.7976(2) 1.16172(12) 0.23902(8)
N2B N 0.6870(2) 1.08188(15) -0.03183(10)
O3B O 0.5793(2) 1.35586(13) 0.19321(8)
C5B C 0.6777(3) 1.03597(17) -0.07471(11)
C6B C 0.6495(3) 0.90508(17) -0.02646(11)
O4B O 0.5153(2) 1.20545(14) 0.25376(8)
C7B C 0.6768(3) 1.03836(17) 0.01338(11)
C8B C 0.6574(2) 0.95033(15) 0.01709(10)
H5B H 0.6502 0.9235 0.0466
O5B O 0.6118(2) 0.48928(13) 0.05331(9)
C10B C 0.6848(3) 1.08333(17) -0.12364(11)
C12B C 0.6602(3) 0.94690(16) -0.07311(10)
H6B H 0.656 0.9176 -0.1009
N5B N 0.6839(2) 1.18608(17) 0.14842(10)
C13B C 0.6826(3) 1.08802(17) 0.06037(11)
N6B N 0.6914(3) 1.17283(16) -0.21510(10)
N6C N 0.3086(3) -0.32717(16) -0.28490(10)
N6A N 0.6914(3) 1.32717(16) 0.28490(10)
C14B C 1.0091(3) 1.21491(18) 0.20112(11)
N7B N 0.5645(3) 0.63247(15) -0.01274(12)
C15B C 0.6236(3) 0.81020(17) -0.02233(12)
O6B O 0.6564(3) 0.45432(15) -0.05324(10)
C16B C 0.9193(3) 1.15548(18) 0.23052(11)
C17B C 0.7054(3) 1.04137(19) -0.17042(12)
H7B H 0.7167 0.9803 -0.172
C18B C 0.6361(3) 1.05534(19) 0.10848(12)
H8B H 0.6022 0.998 0.1126
C19B C 0.7266(4) 0.4626(2) 0.04763(17)
C20B C 0.6676(4) 1.17266(19) -0.12435(13)
H9B H 0.6536 1.2052 -0.0935
N8B N 1.2541(3) 1.17814(16) 0.18645(11)
C21B C 0.6713(4) 1.2132(2) -0.17058(14)
H10B H 0.6586 1.2742 -0.1703
C22B C 0.7094(3) 1.0878(2) -0.21471(12)
H11B H 0.7259 1.0575 -0.2464
C23B C 0.4652(4) 1.3787(2) 0.21473(13)
C24B C 1.1441(4) 1.19531(19) 0.19344(12)
C25B C 0.9745(3) 1.29280(19) 0.17825(11)
C26B C 0.5943(3) 0.76228(19) -0.06210(12)
H12B H 0.5929 0.7894 -0.0939
C27B C 0.7324(4) 1.1713(2) 0.05761(13)
H13B H 0.7673 1.1972 0.0253
C28B C 0.8022(4) 0.4266(2) 0.00160(19)
C29B C 0.7310(4) 1.2163(2) 0.10212(15)
H14B H 0.7666 1.2733 0.0991
C30B C 0.6235(5) 0.7654(2) 0.02168(15)
H15B H 0.6449 0.7942 0.0501
C31B C 0.5672(3) 0.6755(2) -0.05558(13)
H16B H 0.549 0.6442 -0.0838
C32B C 0.3838(4) 1.3313(2) 0.25341(14)
C33B C 0.7861(4) 0.4732(2) 0.09461(16)
H17B H 0.7251 0.4502 0.1249
H18B H 0.8696 0.4416 0.0892
H19B H 0.8019 0.5348 0.0998
C34B C 0.4105(4) 1.2447(2) 0.26993(12)
C35B C 0.7641(4) 0.4256(2) -0.04649(18)
C36B C 0.6382(3) 1.1053(2) 0.15088(12)
H20B H 0.6052 1.0808 0.1838
C37B C 0.9734(3) 1.07671(19) 0.25324(13)
H21B H 1.0155 1.0376 0.2256
H22B H 1.0383 1.0955 0.2725
H23B H 0.9013 1.0463 0.2763
C38B C 0.5926(5) 0.6783(2) 0.02497(17)
H24B H 0.5916 0.6495 0.0565
C39B C 1.0823(3) 1.3504(2) 0.14817(14)
H25B H 1.1098 1.3286 0.113
H26B H 1.1577 1.35 0.1645
H27B H 1.0492 1.4097 0.1476
C40B C 0.2588(5) 1.3675(3) 0.27620(18)
C41B C 0.4168(4) 1.4636(2) 0.19679(15)
H28B H 0.4716 1.4792 0.1633
H29B H 0.3252 1.457 0.1939
H30B H 0.4223 1.5094 0.2216
C42B C 0.3055(4) 1.1988(3) 0.30938(15)
H31B H 0.3321 1.1385 0.3129
H32B H 0.222 1.1998 0.2982
H33B H 0.2945 1.2283 0.3425
N9B N 0.1586(5) 1.3965(3) 0.29504(18)
O7 O 0.0084(10) 0.6711(4) 0.5635(3)
C44 C -0.0897(10) 0.6508(9) 0.5519(6)
H34 H -0.1599 0.6447 0.5828
H35 H -0.0767 0.5953 0.5336
H36 H -0.1142 0.6953 0.5296
O8 O 0.0292(7) 0.5418(8) 0.6195(3)
C43 C -0.0029(7) 0.4430(10) 0.6001(5)
C3? C 0.3130(2) -0.08188(15) 0.03183(10)
H4? H 0.2996 -0.1428 0.0335
C4? C 0.3130(2) -0.08188(15) 0.03183(10)
C9? C 0.3426(2) 0.04967(15) -0.01709(10)
N3? N 0.3426(2) 0.04967(15) -0.01709(10)
C11? C 0.3398(3) 0.05310(16) 0.07311(10)
N4? N 0.3398(3) 0.05310(16) 0.07311(10)
O9? O 0.0142(8) 0.4567(7) 0.5509(6)
loop_
_geom_bond_atom_site_label_1
_geom_bond_atom_site_label_2
_geom_bond_site_symmetry_1
_geom_bond_site_symmetry_2
C1 H1 1_555 1_555
H2 C1 1_555 1_555
H3 C1 1_555 1_555
C2 N1 1_555 1_555
Co1 O1 1_555 1_555
Co2 O5 1_555 1_555
O1 C25 1_555 1_555
O2 Co1 1_555 1_555
N2 C5 1_555 1_555
O3 Co1 1_555 1_555
C5 C10 1_555 1_555
C6 C8 1_555 1_555
O4 Co1 1_555 1_555
C7 N2 1_555 1_555
C8 C7 1_555 1_555
H5 C8 1_555 1_555
O5 C19 1_555 1_555
C10 C17 1_555 1_555
C12 C5 1_555 1_555
H6 C12 1_555 1_555
N5 Co1 1_555 1_555
C13 C7 1_555 1_555
N6 C21 1_555 1_555
C14 C16 1_555 1_555
N7 Co2 1_555 1_555
C15 C6 1_555 1_555
O6 Co2 1_555 1_555
C16 O2 1_555 1_555
C17 H7 1_555 1_555
C18 C13 1_555 1_555
H8 C18 1_555 1_555
C19 C28 1_555 1_555
C20 C10 1_555 1_555
H9 C20 1_555 1_555
N8 C24 1_555 1_555
C21 C20 1_555 1_555
H10 C21 1_555 1_555
C22 N6 1_555 1_555
H11 C22 1_555 1_555
C23 O3 1_555 1_555
C24 C14 1_555 1_555
C25 C14 1_555 1_555
C26 C15 1_555 1_555
H12 C26 1_555 1_555
C27 C13 1_555 1_555
H13 C27 1_555 1_555
C28 C2 1_555 1_555
C29 N5 1_555 1_555
H14 C29 1_555 1_555
C30 C15 1_555 1_555
H15 C30 1_555 1_555
C31 N7 1_555 1_555
H16 C31 1_555 1_555
C32 C23 1_555 1_555
C33 C19 1_555 1_555
H17 C33 1_555 1_555
H18 C33 1_555 1_555
H19 C33 1_555 1_555
C34 O4 1_555 1_555
C35 C1 1_555 1_555
C36 N5 1_555 1_555
H20 C36 1_555 1_555
C37 C16 1_555 1_555
H21 C37 1_555 1_555
H22 C37 1_555 1_555
H23 C37 1_555 1_555
C38 N7 1_555 1_555
H24 C38 1_555 1_555
C39 C25 1_555 1_555
H25 C39 1_555 1_555
H26 C39 1_555 1_555
H27 C39 1_555 1_555
C40 C32 1_555 1_555
C41 C23 1_555 1_555
H28 C41 1_555 1_555
H29 C41 1_555 1_555
H30 C41 1_555 1_555
C42 C34 1_555 1_555
H31 C42 1_555 1_555
H32 C42 1_555 1_555
H33 C42 1_555 1_555
N9 C40 1_555 1_555
O7 C44 1_555 1_555
O8 C43 1_555 1_555
C44 H34 1_555 1_555
H35 C44 1_555 1_555
H36 C44 1_555 1_555
C1B H1B 1_555 1_555
H2B C1B 1_555 1_555
H3B C1B 1_555 1_555
C2B N1B 1_555 1_555
Co1B O1B 1_555 1_555
Co1C N6 1_555 1_555
Co1A N6B 1_555 1_555
O1B C25B 1_555 1_555
O2B Co1B 1_555 1_555
N2B C5B 1_555 1_555
O3B Co1B 1_555 1_555
C5B C10B 1_555 1_555
C6B C8B 1_555 1_555
O4B Co1B 1_555 1_555
C7B N2B 1_555 1_555
C8B C7B 1_555 1_555
H5B C8B 1_555 1_555
O5B Co2 1_555 1_555
C10B C17B 1_555 1_555
C12B C5B 1_555 1_555
H6B C12B 1_555 1_555
N5B Co1B 1_555 1_555
C13B C7B 1_555 1_555
N6B C21B 1_555 1_555
N6C Co1 1_555 1_555
N6A Co1B 1_555 1_555
C14B C16B 1_555 1_555
N7B Co2 1_555 1_555
C15B C6B 1_555 1_555
O6B Co2 1_555 1_555
C16B O2B 1_555 1_555
C17B H7B 1_555 1_555
C18B C13B 1_555 1_555
H8B C18B 1_555 1_555
C19B O5B 1_555 1_555
C20B C10B 1_555 1_555
H9B C20B 1_555 1_555
N8B C24B 1_555 1_555
C21B C20B 1_555 1_555
H10B C21B 1_555 1_555
C22B N6B 1_555 1_555
H11B C22B 1_555 1_555
C23B O3B 1_555 1_555
C24B C14B 1_555 1_555
C25B C14B 1_555 1_555
C26B C15B 1_555 1_555
H12B C26B 1_555 1_555
C27B C13B 1_555 1_555
H13B C27B 1_555 1_555
C28B C2B 1_555 1_555
C29B N5B 1_555 1_555
H14B C29B 1_555 1_555
C30B C15B 1_555 1_555
H15B C30B 1_555 1_555
C31B N7B 1_555 1_555
H16B C31B 1_555 1_555
C32B C23B 1_555 1_555
C33B C19B 1_555 1_555
H17B C33B 1_555 1_555
H18B C33B 1_555 1_555
H19B C33B 1_555 1_555
C34B O4B 1_555 1_555
C35B C1B 1_555 1_555
C36B N5B 1_555 1_555
H20B C36B 1_555 1_555
C37B C16B 1_555 1_555
H21B C37B 1_555 1_555
H22B C37B 1_555 1_555
H23B C37B 1_555 1_555
C38B N7B 1_555 1_555
H24B C38B 1_555 1_555
C39B C25B 1_555 1_555
H25B C39B 1_555 1_555
H26B C39B 1_555 1_555
H27B C39B 1_555 1_555
C40B C32B 1_555 1_555
C41B C23B 1_555 1_555
H28B C41B 1_555 1_555
H29B C41B 1_555 1_555
H30B C41B 1_555 1_555
C42B C34B 1_555 1_555
H31B C42B 1_555 1_555
H32B C42B 1_555 1_555
H33B C42B 1_555 1_555
N9B C40B 1_555 1_555
C6 C12 1_555 1_555
O6 C35 1_555 1_555
C17 C22 1_555 1_555
C18 C36 1_555 1_555
C26 C31 1_555 1_555
C27 C29 1_555 1_555
C28 C35 1_555 1_555
C30 C38 1_555 1_555
C32 C34 1_555 1_555
C6B C12B 1_555 1_555
O6B C35B 1_555 1_555
C17B C22B 1_555 1_555
C18B C36B 1_555 1_555
C19B C28B 1_555 1_555
C26B C31B 1_555 1_555
C27B C29B 1_555 1_555
C28B C35B 1_555 1_555
C30B C38B 1_555 1_555
C32B C34B 1_555 1_555

#END
