
#######################################################################
#
#                 Cambridge Crystallographic Data Centre
#                                CCDC 
#
#######################################################################
#
# If this CIF has been generated from an entry in the Cambridge 
# Structural Database, then it will include bibliographic, chemical, 
# crystal, experimental, refinement or atomic coordinate data resulting 
# from the CCDC's data processing and validation procedures.
#
#######################################################################

data_UDOPUY
_symmetry_cell_setting           monoclinic
_symmetry_space_group_name_H-M   'C 2/c'
_symmetry_Int_Tables_number      15
_space_group_name_Hall           '-C 2yn'
loop_
_symmetry_equiv_pos_site_id
_symmetry_equiv_pos_as_xyz
1 x,y,z
2 1/2+x,1/2+y,z
3 x,-y,1/2+z
4 1/2+x,1/2-y,1/2+z
5 -x,-y,-z
6 1/2-x,1/2-y,-z
7 -x,y,1/2-z
8 1/2-x,1/2+y,1/2-z
_cell_length_a                   18.973(2)
_cell_length_b                   10.5682(13)
_cell_length_c                   19.633(2)
_cell_angle_alpha                90.00
_cell_angle_beta                 94.565(2)
_cell_angle_gamma                90.00
_cell_volume                     3924.13
loop_
_atom_site_label
_atom_site_type_symbol
_atom_site_fract_x
_atom_site_fract_y
_atom_site_fract_z
Cu1 Cu 0.04636(5) 0.05815(8) 0.06743(5)
Cu2 Cu 0.0000 0.18667(12) 0.2500
V1 V -0.03622(7) -0.19819(11) 0.10443(6)
V2 V -0.10921(7) -0.05376(12) 0.23763(7)
V3 V -0.13043(7) -0.19844(11) 0.38361(6)
O1 O -0.0291(3) -0.0695(5) 0.0532(3)
O2 O -0.1211(3) -0.0677(5) 0.4322(3)
O3 O -0.0544(3) -0.1495(5) 0.1884(3)
O4 O -0.0984(3) -0.2890(5) 0.0709(3)
O5 O 0.0464(3) -0.2819(5) 0.1087(3)
O6 O -0.1928(3) -0.2856(5) 0.4088(3)
O7 O -0.1510(3) -0.1546(5) 0.2947(3)
O8 O -0.0621(3) 0.0607(5) 0.2812(3)
O9 O -0.1700(3) 0.0133(5) 0.1872(3)
N1 N -0.0225(3) 0.1986(6) 0.0767(3)
N2 N 0.1152(3) 0.1987(6) 0.0797(3)
N3 N 0.0674(3) 0.3280(6) 0.2529(3)
C1 C -0.0935(4) 0.1872(7) 0.0746(4)
H1 H -0.1131 0.1065 0.0744
C2 C -0.1376(4) 0.2887(7) 0.0728(4)
H2 H -0.1863 0.2777 0.0717
C3 C -0.1079(4) 0.4118(7) 0.0725(4)
H3 H -0.1365 0.4834 0.0703
C4 C -0.0354(4) 0.4219(7) 0.0756(4)
H4 H -0.0144 0.5014 0.0756
C5 C 0.0063(4) 0.3148(7) 0.0787(4)
C6 C 0.1263(4) 0.4239(7) 0.0848(4)
H5 H 0.1048 0.5029 0.0855
C7 C 0.1993(4) 0.4134(7) 0.0879(4)
H6 H 0.2273 0.4856 0.0914
C8 C 0.2308(4) 0.2935(7) 0.0859(4)
H7 H 0.2797 0.2837 0.0882
C9 C 0.1857(4) 0.1906(7) 0.0805(4)
H8 H 0.2056 0.1106 0.0771
C10 C 0.0387(4) 0.4445(7) 0.2519(4)
C11 C 0.0802(4) 0.5556(8) 0.2545(4)
H9 H 0.0598 0.6357 0.2534
C12 C 0.1535(5) 0.5388(7) 0.2588(4)
H10 H 0.1827 0.6096 0.2603
C13 C 0.1836(4) 0.4209(8) 0.2608(4)
H11 H 0.2325 0.4111 0.2645
C14 C 0.1384(4) 0.3146(7) 0.2571(4)
H12 H 0.1579 0.2338 0.2575
C15 C 0.0864(4) 0.3159(7) 0.0806(4)
C10F C -0.0387(4) 0.4445(7) 0.2481(4)
N3F N -0.0674(3) 0.3280(6) 0.2471(3)
C14F C -0.1384(4) 0.3146(7) 0.2429(4)
C13F C -0.1836(4) 0.4209(8) 0.2392(4)
C12F C -0.1535(5) 0.5388(7) 0.2412(4)
C11F C -0.0802(4) 0.5556(8) 0.2455(4)
H9F H -0.0598 0.6357 0.2466
H10F H -0.1827 0.6096 0.2397
H11F H -0.2325 0.4111 0.2355
H12F H -0.1579 0.2338 0.2425
O8F O 0.0621(3) 0.0607(5) 0.2188(3)
V2F V 0.10921(7) -0.05376(12) 0.26237(7)
O3F O 0.0544(3) -0.1495(5) 0.3116(3)
O7F O 0.1510(3) -0.1546(5) 0.2053(3)
O9F O 0.1700(3) 0.0133(5) 0.3128(3)
V1F V 0.03622(7) -0.19819(11) 0.39557(6)
V3F V 0.13043(7) -0.19844(11) 0.11639(6)
O5F O -0.0464(3) -0.2819(5) 0.3913(3)
O1F O 0.0291(3) -0.0695(5) 0.4468(3)
O4F O 0.0984(3) -0.2890(5) 0.4291(3)
O2F O 0.1211(3) -0.0677(5) 0.0678(3)
O6F O 0.1928(3) -0.2856(5) 0.0912(3)
Cu1F Cu -0.04636(5) 0.05815(8) 0.43257(5)
N1F N 0.0225(3) 0.1986(6) 0.4233(3)
N2F N -0.1152(3) 0.1987(6) 0.4203(3)
C1F C 0.0935(4) 0.1872(7) 0.4254(4)
H1F H 0.1131 0.1065 0.4256
C2F C 0.1376(4) 0.2887(7) 0.4272(4)
H2F H 0.1863 0.2777 0.4283
C3F C 0.1079(4) 0.4118(7) 0.4275(4)
H3F H 0.1365 0.4834 0.4297
C4F C 0.0354(4) 0.4219(7) 0.4244(4)
H4F H 0.0144 0.5014 0.4244
C5F C -0.0063(4) 0.3148(7) 0.4213(4)
C6F C -0.1263(4) 0.4239(7) 0.4152(4)
H5F H -0.1048 0.5029 0.4145
C7F C -0.1993(4) 0.4134(7) 0.4121(4)
H6F H -0.2273 0.4856 0.4086
C8F C -0.2308(4) 0.2935(7) 0.4141(4)
H7F H -0.2797 0.2837 0.4118
C9F C -0.1857(4) 0.1906(7) 0.4195(4)
H8F H -0.2056 0.1106 0.4229
C15F C -0.0864(4) 0.3159(7) 0.4194(4)
O1D O 0.0291(3) 0.0695(5) -0.0532(3)
Cu1D Cu -0.04636(5) -0.05815(8) -0.06743(5)
Cu1B Cu 0.04636(5) -0.05815(8) 0.56743(5)
O1B O -0.0291(3) 0.0695(5) 0.5532(3)
loop_
_geom_bond_atom_site_label_1
_geom_bond_atom_site_label_2
_geom_bond_site_symmetry_1
_geom_bond_site_symmetry_2
Cu1 O1 1_555 1_555
Cu2 O8 1_555 1_555
V1 O1 1_555 1_555
V2 O3 1_555 1_555
V3 O2 1_555 1_555
O1 Cu1D 1_555 1_555
O2 Cu1F 1_555 1_555
O3 V1 1_555 1_555
O4 V1 1_555 1_555
O5 V1 1_555 1_555
O6 V3 1_555 1_555
O7 V2 1_555 1_555
O8 V2 1_555 1_555
O9 V2 1_555 1_555
N1 Cu1 1_555 1_555
N2 Cu1 1_555 1_555
N3 Cu2 1_555 1_555
C1 N1 1_555 1_555
H1 C1 1_555 1_555
C2 C1 1_555 1_555
H2 C2 1_555 1_555
C3 C2 1_555 1_555
H3 C3 1_555 1_555
C4 C3 1_555 1_555
H4 C4 1_555 1_555
C5 N1 1_555 1_555
C6 H5 1_555 1_555
C7 C6 1_555 1_555
H6 C7 1_555 1_555
C8 C7 1_555 1_555
H7 C8 1_555 1_555
C9 N2 1_555 1_555
H8 C9 1_555 1_555
C10 N3 1_555 1_555
C11 C10 1_555 1_555
H9 C11 1_555 1_555
C12 C11 1_555 1_555
H10 C12 1_555 1_555
C13 C12 1_555 1_555
H11 C13 1_555 1_555
C14 N3 1_555 1_555
H12 C14 1_555 1_555
C15 N2 1_555 1_555
C10F C10 1_555 1_555
N3F Cu2 1_555 1_555
C14F N3F 1_555 1_555
C13F C14F 1_555 1_555
C12F C13F 1_555 1_555
C11F C10F 1_555 1_555
H9F C11F 1_555 1_555
H10F C12F 1_555 1_555
H11F C13F 1_555 1_555
H12F C14F 1_555 1_555
O8F Cu2 1_555 1_555
V2F O8F 1_555 1_555
O3F V2F 1_555 1_555
O7F V2F 1_555 1_555
O9F V2F 1_555 1_555
V1F O3F 1_555 1_555
V3F O5 1_555 1_555
O5F V3 1_555 1_555
O1F V1F 1_555 1_555
O4F V1F 1_555 1_555
O2F Cu1 1_555 1_555
O6F V3F 1_555 1_555
Cu1F O1F 1_555 1_555
N1F Cu1F 1_555 1_555
N2F Cu1F 1_555 1_555
C1F N1F 1_555 1_555
H1F C1F 1_555 1_555
C2F C1F 1_555 1_555
H2F C2F 1_555 1_555
C3F C2F 1_555 1_555
H3F C3F 1_555 1_555
C4F C3F 1_555 1_555
H4F C4F 1_555 1_555
C5F N1F 1_555 1_555
C6F H5F 1_555 1_555
C7F C6F 1_555 1_555
H6F C7F 1_555 1_555
C8F C7F 1_555 1_555
H7F C8F 1_555 1_555
C9F N2F 1_555 1_555
H8F C9F 1_555 1_555
C15F N2F 1_555 1_555
O1D Cu1 1_555 1_555
Cu1D O1D 1_555 1_555
Cu1B O1F 1_555 1_555
O1B Cu1F 1_555 1_555
V3 O7 1_555 1_555
C4 C5 1_555 1_555
C5 C15 1_555 1_555
C6 C15 1_555 1_555
C8 C9 1_555 1_555
C13 C14 1_555 1_555
C10F N3F 1_555 1_555
C12F C11F 1_555 1_555
O7F V3F 1_555 1_555
V1F O5F 1_555 1_555
V3F O2F 1_555 1_555
C4F C5F 1_555 1_555
C5F C15F 1_555 1_555
C6F C15F 1_555 1_555
C8F C9F 1_555 1_555
Cu1B O1B 1_555 1_555

#END
