
#######################################################################
#
#                 Cambridge Crystallographic Data Centre
#                                CCDC 
#
#######################################################################
#
# If this CIF has been generated from an entry in the Cambridge 
# Structural Database, then it will include bibliographic, chemical, 
# crystal, experimental, refinement or atomic coordinate data resulting 
# from the CCDC's data processing and validation procedures.
#
#######################################################################

data_UDUGAD
_symmetry_cell_setting           triclinic
_symmetry_space_group_name_H-M   'P -1'
_symmetry_Int_Tables_number      2
_space_group_name_Hall           '-P 1'
loop_
_symmetry_equiv_pos_site_id
_symmetry_equiv_pos_as_xyz
1 x,y,z
2 -x,-y,-z
_cell_length_a                   9.102(2)
_cell_length_b                   9.300(2)
_cell_length_c                   10.527(2)
_cell_angle_alpha                80.50(3)
_cell_angle_beta                 75.46(3)
_cell_angle_gamma                77.45(3)
_cell_volume                     836.17
loop_
_atom_site_label
_atom_site_type_symbol
_atom_site_fract_x
_atom_site_fract_y
_atom_site_fract_z
Lu1 Lu 0.91216(15) 0.07168(15) 0.68083(12)
Co1 Co 1.0000 0.0000 1.0000
O1 O 1.1656(17) -0.0326(19) 0.6795(15)
O2 O 1.024(2) 0.2764(16) 0.5729(16)
C1 C 1.259(3) -0.060(2) 0.756(3)
O3 O 0.909(2) -0.106(2) 0.8867(17)
O4 O 0.933(2) 0.1815(19) 0.8598(15)
O5 O 0.6971(19) -0.018(2) 0.8180(18)
O6 O 0.742(2) 0.2893(19) 0.7731(19)
O7 O 1.061(2) 0.123(2) 0.4313(17)
C2 C 0.765(5) 0.388(4) 0.964(3)
H1 H 0.8388 0.3659 1.0189
H2 H 0.6645 0.3794 1.0174
H3 H 0.7635 0.4876 0.9204
O8 O 0.738(2) 0.149(2) 0.5591(16)
O9 O 1.2101(18) -0.0505(19) 0.8785(15)
C3 C 0.664(4) -0.184(3) 1.019(3)
H4 H 0.7283 -0.2391 1.0771
H5 H 0.6192 -0.2511 0.9868
H6 H 0.5834 -0.1147 1.0666
C4 C 0.811(3) 0.280(3) 0.861(3)
C5 C 0.756(3) -0.105(3) 0.909(3)
C6 C 1.420(3) -0.114(3) 0.712(3)
H7 H 1.4435 -0.1194 0.6185
H8 H 1.4459 -0.2118 0.7569
H9 H 1.4778 -0.0493 0.7311
C7 C 1.157(4) 0.346(3) 0.364(2)
H10 H 1.1943 0.3056 0.2816
H11 H 1.2415 0.3659 0.3934
H12 H 1.0847 0.4373 0.3530
C8 C 1.081(3) 0.244(3) 0.460(2)
H13 H 0.732(17) 0.110(14) 0.482(8)
H14 H 0.657(18) 0.234(14) 0.553(18)
Lu1A Lu 1.08784(15) -0.07168(15) 0.31917(12)
O1A O 0.8344(17) 0.0326(19) 0.3205(15)
O2A O 0.976(2) -0.2764(16) 0.4271(16)
C1A C 0.741(3) 0.060(2) 0.244(3)
O3A O 1.091(2) 0.106(2) 0.1133(17)
O4A O 1.067(2) -0.1815(19) 0.1402(15)
O5A O 1.3029(19) 0.018(2) 0.1820(18)
O6A O 1.258(2) -0.2893(19) 0.2269(19)
O7A O 0.939(2) -0.123(2) 0.5687(17)
C2A C 1.235(5) -0.388(4) 0.036(3)
H1A H 1.1612 -0.3659 -0.0189
H2A H 1.3355 -0.3794 -0.0174
H3A H 1.2365 -0.4876 0.0796
O8A O 1.262(2) -0.149(2) 0.4409(16)
O9A O 0.7899(18) 0.0505(19) 0.1215(15)
C3A C 1.336(4) 0.184(3) -0.019(3)
H4A H 1.2717 0.2391 -0.0771
H5A H 1.3808 0.2511 0.0132
H6A H 1.4166 0.1147 -0.0666
C4A C 1.189(3) -0.280(3) 0.139(3)
C5A C 1.244(3) 0.105(3) 0.091(3)
C6A C 0.580(3) 0.114(3) 0.288(3)
H7A H 0.5565 0.1194 0.3815
H8A H 0.5541 0.2118 0.2431
H9A H 0.5222 0.0493 0.2689
C7A C 0.843(4) -0.346(3) 0.636(2)
H10A H 0.8057 -0.3056 0.7184
H11A H 0.7585 -0.3659 0.6066
H12A H 0.9153 -0.4373 0.6470
C8A C 0.919(3) -0.244(3) 0.540(2)
H13A H 1.268(17) -0.110(14) 0.518(8)
H14A H 1.343(18) -0.234(14) 0.447(18)
Co1_2 Co 1.0000 0.0000 0.0000
O3A_2 O 1.091(2) 0.106(2) 1.1133(17)
O4A_2 O 1.067(2) -0.1815(19) 1.1402(15)
O9A_2 O 0.7899(18) 0.0505(19) 1.1215(15)
O10 O 0.468(2) 0.461(2) 0.753(2)
H15 H 0.5545 0.4097 0.7454
C9 C 0.398(4) 0.425(4) 0.674(4)
O11 O 0.459(3) 0.321(3) 0.606(3)
C10 C 0.240(3) 0.495(4) 0.675(3)
H16 H 0.2080 0.5699 0.7342
H17 H 0.1746 0.4217 0.7047
H18 H 0.2313 0.5392 0.5878
loop_
_geom_bond_atom_site_label_1
_geom_bond_atom_site_label_2
_geom_bond_site_symmetry_1
_geom_bond_site_symmetry_2
Lu1 O1 1_555 1_555
Co1 O3 1_555 1_555
O1 C1 1_555 1_555
O2 Lu1 1_555 1_555
C1 O9 1_555 1_555
O3 Lu1 1_555 1_555
O4 Lu1 1_555 1_555
O5 Lu1 1_555 1_555
O6 Lu1 1_555 1_555
O7 Lu1 1_555 1_555
C2 H1 1_555 1_555
H2 C2 1_555 1_555
H3 C2 1_555 1_555
O8 Lu1 1_555 1_555
O9 Co1 1_555 1_555
C3 H4 1_555 1_555
H5 C3 1_555 1_555
H6 C3 1_555 1_555
C4 O4 1_555 1_555
C5 O3 1_555 1_555
C6 C1 1_555 1_555
H7 C6 1_555 1_555
H8 C6 1_555 1_555
H9 C6 1_555 1_555
C7 H10 1_555 1_555
H11 C7 1_555 1_555
H12 C7 1_555 1_555
C8 O2 1_555 1_555
H13 O8 1_555 1_555
H14 O8 1_555 1_555
O10 H15 1_555 1_555
C9 O10 1_555 1_555
O11 C9 1_555 1_555
C10 C9 1_555 1_555
H16 C10 1_555 1_555
H17 C10 1_555 1_555
H18 C10 1_555 1_555
Lu1A O7 1_555 1_555
O1A Lu1A 1_555 1_555
O2A Lu1A 1_555 1_555
C1A O1A 1_555 1_555
O3A Lu1A 1_555 1_555
O4A Lu1A 1_555 1_555
O5A Lu1A 1_555 1_555
O6A Lu1A 1_555 1_555
O7A Lu1 1_555 1_555
C2A H1A 1_555 1_555
H2A C2A 1_555 1_555
H3A C2A 1_555 1_555
O8A Lu1A 1_555 1_555
O9A C1A 1_555 1_555
C3A H4A 1_555 1_555
H5A C3A 1_555 1_555
H6A C3A 1_555 1_555
C4A O4A 1_555 1_555
C5A O3A 1_555 1_555
C6A C1A 1_555 1_555
H7A C6A 1_555 1_555
H8A C6A 1_555 1_555
H9A C6A 1_555 1_555
C7A H10A 1_555 1_555
H11A C7A 1_555 1_555
H12A C7A 1_555 1_555
C8A O2A 1_555 1_555
H13A O8A 1_555 1_555
H14A O8A 1_555 1_555
Co1_2 O3A 1_555 1_555
O3A_2 Co1 1_555 1_555
O4A_2 Co1 1_555 1_555
O9A_2 Co1 1_555 1_555
Co1 O4 1_555 1_555
O5 C5 1_555 1_555
O6 C4 1_555 1_555
O7 C8 1_555 1_555
C2 C4 1_555 1_555
C3 C5 1_555 1_555
C7 C8 1_555 1_555
Lu1A O7A 1_555 1_555
O4A Co1_2 1_555 1_555
O5A C5A 1_555 1_555
O6A C4A 1_555 1_555
O7A C8A 1_555 1_555
C2A C4A 1_555 1_555
O9A Co1_2 1_555 1_555
C3A C5A 1_555 1_555
C7A C8A 1_555 1_555

#END
