
#######################################################################
#
#                 Cambridge Crystallographic Data Centre
#                                CCDC 
#
#######################################################################
#
# If this CIF has been generated from an entry in the Cambridge 
# Structural Database, then it will include bibliographic, chemical, 
# crystal, experimental, refinement or atomic coordinate data resulting 
# from the CCDC's data processing and validation procedures.
#
#######################################################################

data_UDUGUX
_symmetry_cell_setting           triclinic
_symmetry_space_group_name_H-M   'P -1'
_symmetry_Int_Tables_number      2
_space_group_name_Hall           '-P 1'
loop_
_symmetry_equiv_pos_site_id
_symmetry_equiv_pos_as_xyz
1 x,y,z
2 -x,-y,-z
_cell_length_a                   11.9098(17)
_cell_length_b                   13.301(2)
_cell_length_c                   13.5672(15)
_cell_angle_alpha                105.202(16)
_cell_angle_beta                 97.136(15)
_cell_angle_gamma                113.546(17)
_cell_volume                     1836.53
loop_
_atom_site_label
_atom_site_type_symbol
_atom_site_fract_x
_atom_site_fract_y
_atom_site_fract_z
Sm1 Sm 0.60300(9) 0.98506(9) 0.39313(8)
Sm2 Sm 0.62845(10) 0.97664(10) 0.09220(8)
O1 O 0.4740(12) 0.9438(12) 0.2029(10)
O2 O 0.4195(13) 0.9924(13) 0.0733(11)
C1 C 0.3992(16) 0.9693(18) 0.1531(17)
C2 C 0.2818(18) 0.969(2) 0.1880(17)
H1 H 0.2829 1.0448 0.1984
H2 H 0.2809 0.9545 0.2542
C3 C 0.164(3) 0.874(3) 0.101(3)
H3 H 0.0889 0.8714 0.1225
H4 H 0.1638 0.7994 0.0911
H5 H 0.1642 0.8899 0.0366
O3 O 0.5434(13) 0.7921(12) 0.2755(11)
O4 O 0.6432(15) 0.8233(13) 0.1504(13)
C4 C 0.5768(19) 0.7593(15) 0.1954(16)
C5 C 0.546(3) 0.6310(18) 0.148(2)
H6 H 0.5065 0.6033 0.0733
H7 H 0.6245 0.6243 0.1565
C6 C 0.459(4) 0.553(2) 0.198(3)
H8 H 0.4438 0.4740 0.1654
H9 H 0.3797 0.5571 0.1890
H10 H 0.4978 0.5787 0.2726
O5 O 0.7276(12) 1.0758(12) 0.2872(11)
O6 O 0.8566(12) 1.0892(15) 0.1848(13)
C7 C 0.8398(17) 1.118(2) 0.2730(18)
C8 C 0.948(2) 1.210(3) 0.369(2)
H11 H 0.9381 1.1866 0.4309
H12 H 1.0285 1.2174 0.3568
C9 C 0.945(6) 1.328(4) 0.390(4)
H13 H 1.0103 1.3843 0.4525
H14 H 0.8640 1.3197 0.4000
H15 H 0.9597 1.3531 0.3308
O7 O 0.6810(15) 1.1817(13) 0.1308(12)
O8 O 0.5421(16) 1.2095(14) 0.0289(13)
C10 C 0.648(2) 1.248(2) 0.102(2)
C11 C 0.754(3) 1.381(2) 0.140(9)
H16 H 0.8104 1.4069 0.2092
H17 H 0.8024 1.3986 0.0889
C12 C 0.655(3) 1.426(2) 0.141(3)
H18 H 0.6955 1.5094 0.1735
H19 H 0.5981 1.3923 0.1812
H20 H 0.6071 1.4042 0.0702
O9 O 0.5423(13) 1.1383(12) 0.3990(11)
O10 O 0.4038(14) 1.1400(12) 0.4964(11)
C13 C 0.474(2) 1.1779(17) 0.4342(16)
C14 C 0.449(5) 1.275(3) 0.408(3)
H21 H 0.3584 1.2485 0.3829
H22 H 0.4833 1.3449 0.4696
C15 C 0.515(9) 1.296(7) 0.322(7)
H23 H 0.5079 1.3585 0.3037
H24 H 0.4768 1.2263 0.2606
H25 H 0.6032 1.3164 0.3468
O11 O 0.7770(14) 1.1516(13) 0.5352(11)
O12 O 0.6048(11) 1.0929(12) 0.5869(11)
C16 C 0.7158(19) 1.1682(16) 0.5974(15)
C17 C 0.768(3) 1.280(2) 0.691(2)
H26 H 0.8403 1.2895 0.7406
H27 H 0.7033 1.2826 0.7279
C18 C 0.806(7) 1.374(4) 0.639(5)
H28 H 0.8414 1.4496 0.6923
H29 H 0.7322 1.3622 0.5904
H30 H 0.8674 1.3678 0.6015
O13 O 0.7441(15) 0.9013(14) -0.0185(12)
O14 O 0.764(2) 0.761(2) 0.022(2)
H31 H 0.7182 0.7704 0.0601
C19 C 0.780(2) 0.827(3) -0.0309(19)
C20 C 0.864(3) 0.816(3) -0.104(3)
H32 H 0.9498 0.8755 -0.0688
H33 H 0.8358 0.8295 -0.1670
C21 C 0.863(6) 0.697(4) -0.136(5)
H34 H 0.9184 0.6955 -0.1817
H35 H 0.7787 0.6372 -0.1726
H36 H 0.8924 0.6830 -0.0740
O15 O 0.7998(14) 0.9471(14) 0.4021(12)
O16 O 0.7621(18) 0.7926(17) 0.4420(15)
H37 H 0.7050 0.8050 0.4616
C22 C 0.822(2) 0.869(3) 0.4042(18)
C23 C 0.932(2) 0.854(3) 0.365(2)
H38 H 0.9942 0.8641 0.4248
H39 H 0.8996 0.7753 0.3159
C24 C 0.996(3) 0.941(4) 0.311(3)
H40 H 1.0627 0.9270 0.2876
H41 H 1.0302 1.0188 0.3603
H42 H 0.9345 0.9306 0.2516
Sm1A Sm 0.39700(9) 1.01494(9) 0.60687(8)
Sm2A Sm 0.37155(10) 1.02336(10) -0.09220(8)
O2A O 0.5805(13) 1.0076(13) -0.0733(11)
O8A O 0.4579(16) 0.7905(14) -0.0289(13)
O10A O 0.5962(14) 0.8600(12) 0.5036(11)
O12A O 0.3952(11) 0.9071(12) 0.4131(11)
loop_
_geom_bond_atom_site_label_1
_geom_bond_atom_site_label_2
_geom_bond_site_symmetry_1
_geom_bond_site_symmetry_2
Sm1 O1 1_555 1_555
Sm2 O1 1_555 1_555
O1 C1 1_555 1_555
O2 Sm2 1_555 1_555
C1 O2 1_555 1_555
C2 C1 1_555 1_555
H1 C2 1_555 1_555
H2 C2 1_555 1_555
C3 C2 1_555 1_555
H3 C3 1_555 1_555
H4 C3 1_555 1_555
H5 C3 1_555 1_555
O3 Sm1 1_555 1_555
O4 Sm2 1_555 1_555
C4 O3 1_555 1_555
C5 C4 1_555 1_555
H6 C5 1_555 1_555
H7 C5 1_555 1_555
C6 C5 1_555 1_555
H8 C6 1_555 1_555
H9 C6 1_555 1_555
H10 C6 1_555 1_555
O5 Sm1 1_555 1_555
O6 Sm2 1_555 1_555
C7 O5 1_555 1_555
C8 C7 1_555 1_555
H11 C8 1_555 1_555
H12 C8 1_555 1_555
C9 C8 1_555 1_555
H13 C9 1_555 1_555
H14 C9 1_555 1_555
H15 C9 1_555 1_555
O7 Sm2 1_555 1_555
O8 C10 1_555 1_555
C10 O7 1_555 1_555
C11 C10 1_555 1_555
H16 C11 1_555 1_555
H17 C11 1_555 1_555
C12 C11 1_555 1_555
H18 C12 1_555 1_555
H19 C12 1_555 1_555
H20 C12 1_555 1_555
O9 Sm1 1_555 1_555
O10 C13 1_555 1_555
C13 O9 1_555 1_555
C14 C13 1_555 1_555
H21 C14 1_555 1_555
H22 C14 1_555 1_555
C15 C14 1_555 1_555
H23 C15 1_555 1_555
H24 C15 1_555 1_555
H25 C15 1_555 1_555
O11 Sm1 1_555 1_555
O12 Sm1 1_555 1_555
C16 O11 1_555 1_555
C17 C16 1_555 1_555
H26 C17 1_555 1_555
H27 C17 1_555 1_555
C18 C17 1_555 1_555
H28 C18 1_555 1_555
H29 C18 1_555 1_555
H30 C18 1_555 1_555
O13 Sm2 1_555 1_555
O14 H31 1_555 1_555
C19 O13 1_555 1_555
C20 C19 1_555 1_555
H32 C20 1_555 1_555
H33 C20 1_555 1_555
C21 C20 1_555 1_555
H34 C21 1_555 1_555
H35 C21 1_555 1_555
H36 C21 1_555 1_555
O15 Sm1 1_555 1_555
O16 H37 1_555 1_555
C22 O15 1_555 1_555
C23 C22 1_555 1_555
H38 C23 1_555 1_555
H39 C23 1_555 1_555
C24 C23 1_555 1_555
H40 C24 1_555 1_555
H41 C24 1_555 1_555
H42 C24 1_555 1_555
Sm1A O10 1_555 1_555
Sm2A O2 1_555 1_555
O2A Sm2 1_555 1_555
O8A Sm2 1_555 1_555
O10A Sm1 1_555 1_555
O12A Sm1 1_555 1_555
Sm2 O5 1_555 1_555
O4 C4 1_555 1_555
O6 C7 1_555 1_555
O8 Sm2A 1_555 1_555
O12 C16 1_555 1_555
O12 Sm1A 1_555 1_555
O14 C19 1_555 1_555
O16 C22 1_555 1_555
Sm1A O12A 1_555 1_555
Sm2A O2A 1_555 1_555

#END
