
#######################################################################
#
#                 Cambridge Crystallographic Data Centre
#                                CCDC 
#
#######################################################################
#
# If this CIF has been generated from an entry in the Cambridge 
# Structural Database, then it will include bibliographic, chemical, 
# crystal, experimental, refinement or atomic coordinate data resulting 
# from the CCDC's data processing and validation procedures.
#
#######################################################################

data_UDUHIM
_symmetry_cell_setting           tetragonal
_symmetry_space_group_name_H-M   'I -4 2 d'
_symmetry_Int_Tables_number      122
_space_group_name_Hall           'I -4 2bw'
loop_
_symmetry_equiv_pos_site_id
_symmetry_equiv_pos_as_xyz
1 x,y,z
2 -x,-y,z
3 x,1/2-y,1/4-z
4 -x,1/2+y,1/4-z
5 y,1/2+x,1/4+z
6 -y,1/2-x,1/4+z
7 -y,x,-z
8 y,-x,-z
9 1/2+x,1/2+y,1/2+z
10 1/2-x,1/2-y,1/2+z
11 1/2+x,-y,3/4-z
12 1/2-x,y,3/4-z
13 1/2+y,x,3/4+z
14 1/2-y,-x,3/4+z
15 1/2-y,1/2+x,1/2-z
16 1/2+y,1/2-x,1/2-z
_cell_length_a                   23.568(2)
_cell_length_b                   23.568(2)
_cell_length_c                   13.4949(15)
_cell_angle_alpha                90
_cell_angle_beta                 90
_cell_angle_gamma                90
_cell_volume                     7495.75
loop_
_atom_site_label
_atom_site_type_symbol
_atom_site_fract_x
_atom_site_fract_y
_atom_site_fract_z
Tm1 Tm 1.2500 1.00337(3) 0.8750
Mn1 Mn 1.10295(4) 1.01842(4) 1.00434(9)
O1 O 1.2150(3) 1.0816(3) 0.7851(5)
O2 O 1.1638(2) 1.0561(3) 0.9090(5)
O3 O 1.2632(2) 0.9779(2) 0.7197(4)
O4 O 1.33791(15) 1.0053(3) 0.6319(4)
O5 O 1.1807(3) 0.9396(3) 0.8577(7)
O6 O 1.0996(2) 0.93224(19) 0.9386(4)
O7 O 1.0388(2) 0.97193(19) 1.0979(4)
C1 C 1.1730(4) 1.0887(4) 0.8365(9)
C2 C 1.1311(6) 1.1378(5) 0.8215(13)
H1 H 1.0928 1.1227 0.8175
H2 H 1.1329 1.1630 0.8781
C3 C 1.1444(7) 1.1712(8) 0.7269(17)
H3 H 1.1624 1.1483 0.6761
H4 H 1.1116 1.1907 0.7000
C4 C 1.1845(12) 1.2099(11) 0.778(2)
H5 H 1.1984 1.2374 0.7313
H6 H 1.2157 1.1884 0.8036
H7 H 1.1653 1.2288 0.8309
C5 C 1.2865(3) 0.9938(5) 0.6404(7)
C6 C 1.2509(4) 0.9972(8) 0.5484(6)
H8 H 1.2522 1.0359 0.5243
H9 H 1.2684 0.9734 0.4982
C7 C 1.1910(4) 0.9805(11) 0.5570(9)
H10 H 1.1770 0.9896 0.6227
H11 H 1.1872 0.9399 0.5471
C8 C 1.1572(8) 1.0115(16) 0.4809(13)
H12 H 1.1175 1.0048 0.4919
H13 H 1.1675 0.9983 0.4161
H14 H 1.1649 1.0514 0.4858
C9 C 1.1403(3) 0.9103(3) 0.8910(7)
C10 C 1.1406(5) 0.8483(5) 0.8646(14)
H15 H 1.1506 0.8275 0.9241
H16 H 1.1019 0.8379 0.8482
C11 C 1.1755(8) 0.8281(6) 0.7876(16)
H17 H 1.1852 0.7890 0.8023
H18 H 1.2106 0.8497 0.7887
C12 C 1.1527(17) 0.830(2) 0.6850(19)
H19 H 1.1825 0.8219 0.6388
H20 H 1.1377 0.8672 0.6720
H21 H 1.1230 0.8024 0.6781
C13 C 1.0000 1.0000 1.1410(8)
C14 C 0.9843(8) 0.9740(12) 1.2394(14)
C15 C 0.982(3) 1.0237(16) 1.309(3)
C16 C 1.0000 1.0000 1.407(3)
O7A O 0.9612(2) 1.02807(19) 1.0979(4)
C14A C 1.0157(8) 1.0260(12) 1.2394(14)
C15A C 1.018(3) 0.9763(16) 1.309(3)
Mn1A Mn 0.89705(4) 0.98158(4) 1.00434(9)
O1A O 0.7850(3) 0.9184(3) 0.7851(5)
O2A O 0.8362(2) 0.9439(3) 0.9090(5)
O5A O 0.8193(3) 1.0604(3) 0.8577(7)
O6A O 0.9004(2) 1.06776(19) 0.9386(4)
C1A C 0.8270(4) 0.9113(4) 0.8365(9)
C2A C 0.8689(6) 0.8622(5) 0.8215(13)
H1A H 0.9072 0.8773 0.8175
H2A H 0.8671 0.8370 0.8781
C3A C 0.8556(7) 0.8288(8) 0.7269(17)
H3A H 0.8376 0.8517 0.6761
H4A H 0.8884 0.8093 0.7000
C4A C 0.8155(12) 0.7901(11) 0.778(2)
H5A H 0.8016 0.7626 0.7313
H6A H 0.7843 0.8116 0.8036
H7A H 0.8347 0.7712 0.8309
C9A C 0.8597(3) 1.0897(3) 0.8910(7)
C10A C 0.8594(5) 1.1517(5) 0.8646(14)
H15A H 0.8494 1.1725 0.9241
H16A H 0.8981 1.1621 0.8482
C11A C 0.8245(8) 1.1719(6) 0.7876(16)
H17A H 0.8148 1.2110 0.8023
H18A H 0.7894 1.1503 0.7887
C12A C 0.8473(17) 1.170(2) 0.6850(19)
H19A H 0.8175 1.1781 0.6388
H20A H 0.8623 1.1328 0.6720
H21A H 0.8770 1.1976 0.6781
O3K O 1.2368(2) 0.9779(2) 1.0303(4)
O4K O 1.16209(15) 1.0053(3) 1.1181(4)
C5K C 1.2135(3) 0.9938(5) 1.1096(7)
C6K C 1.2491(4) 0.9972(8) 1.2016(6)
H8K H 1.2478 1.0359 1.2257
H9K H 1.2316 0.9734 1.2518
C7K C 1.3090(4) 0.9805(11) 1.1930(9)
H10K H 1.3230 0.9896 1.1273
H11K H 1.3128 0.9399 1.2029
C8K C 1.3428(8) 1.0115(16) 1.2691(13)
H12K H 1.3825 1.0048 1.2581
H13K H 1.3325 0.9983 1.3339
H14K H 1.3351 1.0514 1.2642
Tm1A Tm 0.7500 0.99663(3) 0.8750
Mn1F Mn 0.98158(4) 1.10295(4) 0.99566(9)
Mn1G Mn 1.01842(4) 0.89705(4) 0.99566(9)
Mn1K Mn 1.39705(4) 1.01842(4) 0.74566(9)
O1K O 1.2850(3) 1.0816(3) 0.9649(5)
O2K O 1.3362(2) 1.0561(3) 0.8410(5)
O4J O 0.83791(15) 0.9947(3) 1.1181(4)
O5K O 1.3193(3) 0.9396(3) 0.8923(7)
O6F O 1.06776(19) 1.0996(2) 1.0614(4)
O6G O 0.93224(19) 0.9004(2) 1.0614(4)
O7F O 1.02807(19) 1.0388(2) 0.9021(4)
O7G O 0.97193(19) 0.9612(2) 0.9021(4)
loop_
_geom_bond_atom_site_label_1
_geom_bond_atom_site_label_2
_geom_bond_site_symmetry_1
_geom_bond_site_symmetry_2
Tm1 O1 1_555 1_555
Mn1 O2 1_555 1_555
O1 C1 1_555 1_555
O2 Tm1 1_555 1_555
O3 Tm1 1_555 1_555
O4 C5 1_555 1_555
O5 Tm1 1_555 1_555
O6 Mn1 1_555 1_555
O7 Mn1 1_555 1_555
C1 O2 1_555 1_555
C2 C1 1_555 1_555
H1 C2 1_555 1_555
H2 C2 1_555 1_555
C3 C2 1_555 1_555
H3 C3 1_555 1_555
H4 C3 1_555 1_555
C4 C3 1_555 1_555
H5 C4 1_555 1_555
H6 C4 1_555 1_555
H7 C4 1_555 1_555
C5 O3 1_555 1_555
C6 C5 1_555 1_555
H8 C6 1_555 1_555
H9 C6 1_555 1_555
C7 C6 1_555 1_555
H10 C7 1_555 1_555
H11 C7 1_555 1_555
C8 C7 1_555 1_555
H12 C8 1_555 1_555
H13 C8 1_555 1_555
H14 C8 1_555 1_555
C9 O5 1_555 1_555
C10 C9 1_555 1_555
H15 C10 1_555 1_555
H16 C10 1_555 1_555
C11 C10 1_555 1_555
H17 C11 1_555 1_555
H18 C11 1_555 1_555
C12 C11 1_555 1_555
H19 C12 1_555 1_555
H20 C12 1_555 1_555
H21 C12 1_555 1_555
C13 O7 1_555 1_555
C14 C13 1_555 1_555
C15 C14 1_555 1_555
C16 C15 1_555 1_555
O7A C13 1_555 1_555
C14A C13 1_555 1_555
C15A C14 1_555 1_555
Mn1A O7A 1_555 1_555
O1A C1A 1_555 1_555
O2A Mn1A 1_555 1_555
O5A C9A 1_555 1_555
O6A Mn1A 1_555 1_555
C1A O2A 1_555 1_555
C2A C1A 1_555 1_555
H1A C2A 1_555 1_555
H2A C2A 1_555 1_555
C3A C2A 1_555 1_555
H3A C3A 1_555 1_555
H4A C3A 1_555 1_555
C4A C3A 1_555 1_555
H5A C4A 1_555 1_555
H6A C4A 1_555 1_555
H7A C4A 1_555 1_555
C9A O6A 1_555 1_555
C10A C9A 1_555 1_555
H15A C10A 1_555 1_555
H16A C10A 1_555 1_555
C11A C10A 1_555 1_555
H17A C11A 1_555 1_555
H18A C11A 1_555 1_555
C12A C11A 1_555 1_555
H19A C12A 1_555 1_555
H20A C12A 1_555 1_555
H21A C12A 1_555 1_555
O3K Tm1 1_555 1_555
O4K Mn1 1_555 1_555
C5K O3K 1_555 1_555
C6K C5K 1_555 1_555
H8K C6K 1_555 1_555
H9K C6K 1_555 1_555
C7K C6K 1_555 1_555
H10K C7K 1_555 1_555
H11K C7K 1_555 1_555
C8K C7K 1_555 1_555
H12K C8K 1_555 1_555
H13K C8K 1_555 1_555
H14K C8K 1_555 1_555
Tm1A O1A 1_555 1_555
Mn1F O7A 1_555 1_555
Mn1G O6 1_555 1_555
Mn1K O4 1_555 1_555
O1K Tm1 1_555 1_555
O2K Tm1 1_555 1_555
O4J Mn1A 1_555 1_555
O5K Tm1 1_555 1_555
O6F Mn1 1_555 1_555
O6G Mn1A 1_555 1_555
O7F Mn1 1_555 1_555
O7G Mn1A 1_555 1_555
O6 C9 1_555 1_555
O7 Mn1G 1_555 1_555
C14 C14A 1_555 1_555
C15 C14A 1_555 1_555
C15 C15A 1_555 1_555
C16 C15A 1_555 1_555
C14A C15A 1_555 1_555
O2A Tm1A 1_555 1_555
O5A Tm1A 1_555 1_555
O6A Mn1F 1_555 1_555
O4K C5K 1_555 1_555
Mn1F O6F 1_555 1_555
Mn1F O7F 1_555 1_555
Mn1G O6G 1_555 1_555
Mn1G O7G 1_555 1_555
Mn1K O2K 1_555 1_555

#END
