
#######################################################################
#
#                 Cambridge Crystallographic Data Centre
#                                CCDC 
#
#######################################################################
#
# If this CIF has been generated from an entry in the Cambridge 
# Structural Database, then it will include bibliographic, chemical, 
# crystal, experimental, refinement or atomic coordinate data resulting 
# from the CCDC's data processing and validation procedures.
#
#######################################################################

data_UDUHEI
_symmetry_cell_setting           tetragonal
_symmetry_space_group_name_H-M   'I -4 2 d'
_symmetry_Int_Tables_number      122
_space_group_name_Hall           'I -4 2bw'
loop_
_symmetry_equiv_pos_site_id
_symmetry_equiv_pos_as_xyz
1 x,y,z
2 -x,-y,z
3 x,1/2-y,1/4-z
4 -x,1/2+y,1/4-z
5 y,1/2+x,1/4+z
6 -y,1/2-x,1/4+z
7 -y,x,-z
8 y,-x,-z
9 1/2+x,1/2+y,1/2+z
10 1/2-x,1/2-y,1/2+z
11 1/2+x,-y,3/4-z
12 1/2-x,y,3/4-z
13 1/2+y,x,3/4+z
14 1/2-y,-x,3/4+z
15 1/2-y,1/2+x,1/2-z
16 1/2+y,1/2-x,1/2-z
_cell_length_a                   23.5358(13)
_cell_length_b                   23.5358(13)
_cell_length_c                   13.5170(12)
_cell_angle_alpha                90
_cell_angle_beta                 90
_cell_angle_gamma                90
_cell_volume                     7487.52
loop_
_atom_site_label
_atom_site_type_symbol
_atom_site_fract_x
_atom_site_fract_y
_atom_site_fract_z
Yb1 Yb 0.7500 0.496362(12) 0.3750
Mn1 Mn 0.89693(2) 0.48141(2) 0.24576(6)
O1 O 0.78520(18) 0.4183(2) 0.4654(4)
O2 O 0.83597(14) 0.44365(14) 0.3402(3)
O3 O 0.7373(2) 0.5221(2) 0.5325(4)
O4 O 0.66240(12) 0.49496(15) 0.6180(3)
O5 O 0.81936(16) 0.56083(16) 0.3922(4)
O6 O 0.89977(12) 0.56778(12) 0.3117(3)
O7 O 0.96176(11) 0.52776(12) 0.1514(2)
C1 C 0.8275(2) 0.4103(3) 0.4107(5)
C2 C 0.8667(4) 0.3611(4) 0.4290(10)
H1 H 0.9045 0.3762 0.4406
H2 H 0.8684 0.3386 0.3689
C3 C 0.8522(5) 0.3222(6) 0.5131(15)
H3 H 0.8836 0.2969 0.5278
H4 H 0.8429 0.3437 0.5722
C4 C 0.8020(10) 0.2897(8) 0.477(2)
H5 H 0.7902 0.2632 0.5272
H6 H 0.8119 0.2695 0.4181
H7 H 0.7714 0.3156 0.4634
C5 C 0.71410(19) 0.5065(2) 0.6102(4)
C6 C 0.7492(3) 0.5010(5) 0.7006(6)
H8 H 0.7323 0.5249 0.7513
H9 H 0.7463 0.4621 0.7234
C7 C 0.8095(4) 0.5153(10) 0.6943(10)
H10 H 0.8139 0.5563 0.6968
H11 H 0.8245 0.5022 0.6315
C8 C 0.8429(7) 0.4892(11) 0.7762(15)
H12 H 0.8826 0.4959 0.7654
H13 H 0.8358 0.4491 0.7780
H14 H 0.8317 0.5059 0.8380
C9 C 0.85880(19) 0.58911(19) 0.3613(4)
C10 C 0.8586(3) 0.6520(2) 0.3783(9)
H15 H 0.8428 0.6707 0.3205
H16 H 0.8974 0.6650 0.3862
C11 C 0.8240(6) 0.6693(4) 0.4700(15)
H17 H 0.8117 0.7085 0.4628
H18 H 0.7903 0.6457 0.4742
C12 C 0.8575(15) 0.6635(19) 0.563(2)
H19 H 0.8333 0.6709 0.6191
H20 H 0.8882 0.6903 0.5630
H21 H 0.8724 0.6257 0.5680
C13 C 1.0000 0.5000 0.1087(4)
C14 C 1.0159(7) 0.5237(7) 0.0083(8)
C15 C 1.020(3) 0.4756(13) -0.0636(17)
C16 C 1.0000 0.5000 -0.161(2)
O7A O 1.03824(11) 0.47224(12) 0.1514(2)
C14A C 0.9841(7) 0.4763(7) 0.0083(8)
C15A C 0.980(3) 0.5244(13) -0.0636(17)
Mn1A Mn 1.10307(2) 0.51859(2) 0.24576(6)
O1A O 1.21480(18) 0.5817(2) 0.4654(4)
O2A O 1.16403(14) 0.55635(14) 0.3402(3)
O5A O 1.18064(16) 0.43917(16) 0.3922(4)
O6A O 1.10023(12) 0.43222(12) 0.3117(3)
C1A C 1.1725(2) 0.5897(3) 0.4107(5)
C2A C 1.1333(4) 0.6389(4) 0.4290(10)
H1A H 1.0955 0.6238 0.4406
H2A H 1.1316 0.6614 0.3689
C3A C 1.1478(5) 0.6778(6) 0.5131(15)
H3A H 1.1164 0.7031 0.5278
H4A H 1.1571 0.6563 0.5722
C4A C 1.1980(10) 0.7103(8) 0.477(2)
H5A H 1.2098 0.7368 0.5272
H6A H 1.1881 0.7305 0.4181
H7A H 1.2286 0.6844 0.4634
C9A C 1.14120(19) 0.41089(19) 0.3613(4)
C10A C 1.1414(3) 0.3480(2) 0.3783(9)
H15A H 1.1572 0.3293 0.3205
H16A H 1.1026 0.3350 0.3862
C11A C 1.1760(6) 0.3307(4) 0.4700(15)
H17A H 1.1883 0.2915 0.4628
H18A H 1.2097 0.3543 0.4742
C12A C 1.1425(15) 0.3365(19) 0.563(2)
H19A H 1.1667 0.3291 0.6191
H20A H 1.1118 0.3097 0.5630
H21A H 1.1276 0.3743 0.5680
O3K O 0.7627(2) 0.5221(2) 0.2175(4)
O4K O 0.83760(12) 0.49496(15) 0.1320(3)
C5K C 0.78590(19) 0.5065(2) 0.1398(4)
C6K C 0.7508(3) 0.5010(5) 0.0494(6)
H8K H 0.7677 0.5249 -0.0013
H9K H 0.7537 0.4621 0.0266
C7K C 0.6905(4) 0.5153(10) 0.0557(10)
H10K H 0.6861 0.5563 0.0532
H11K H 0.6755 0.5022 0.1185
C8K C 0.6571(7) 0.4892(11) -0.0262(15)
H12K H 0.6174 0.4959 -0.0154
H13K H 0.6642 0.4491 -0.0280
H14K H 0.6683 0.5059 -0.0880
Yb1A Yb 1.2500 0.503638(12) 0.3750
Mn1K Mn 0.60307(2) 0.48141(2) 0.50424(6)
Mn1N Mn 1.01859(2) 0.39693(2) 0.25424(6)
Mn1O Mn 0.98141(2) 0.60307(2) 0.25424(6)
O1K O 0.71480(18) 0.4183(2) 0.2846(4)
O2K O 0.66403(14) 0.44365(14) 0.4098(3)
O4J O 1.16240(12) 0.50504(15) 0.1320(3)
O5K O 0.68064(16) 0.56083(16) 0.3578(4)
O6N O 0.93222(12) 0.39977(12) 0.1883(3)
O6O O 1.06778(12) 0.60023(12) 0.1883(3)
O7N O 0.97224(12) 0.46176(11) 0.3486(2)
O7O O 1.02776(12) 0.53824(11) 0.3486(2)
loop_
_geom_bond_atom_site_label_1
_geom_bond_atom_site_label_2
_geom_bond_site_symmetry_1
_geom_bond_site_symmetry_2
Yb1 O1 1_555 1_555
Mn1 O2 1_555 1_555
O1 C1 1_555 1_555
O2 Yb1 1_555 1_555
O3 Yb1 1_555 1_555
O4 C5 1_555 1_555
O5 Yb1 1_555 1_555
O6 Mn1 1_555 1_555
O7 Mn1 1_555 1_555
C1 O2 1_555 1_555
C2 C1 1_555 1_555
H1 C2 1_555 1_555
H2 C2 1_555 1_555
C3 C2 1_555 1_555
H3 C3 1_555 1_555
H4 C3 1_555 1_555
C4 C3 1_555 1_555
H5 C4 1_555 1_555
H6 C4 1_555 1_555
H7 C4 1_555 1_555
C5 O3 1_555 1_555
C6 C5 1_555 1_555
H8 C6 1_555 1_555
H9 C6 1_555 1_555
C7 C6 1_555 1_555
H10 C7 1_555 1_555
H11 C7 1_555 1_555
C8 C7 1_555 1_555
H12 C8 1_555 1_555
H13 C8 1_555 1_555
H14 C8 1_555 1_555
C9 O5 1_555 1_555
C10 C9 1_555 1_555
H15 C10 1_555 1_555
H16 C10 1_555 1_555
C11 C10 1_555 1_555
H17 C11 1_555 1_555
H18 C11 1_555 1_555
C12 C11 1_555 1_555
H19 C12 1_555 1_555
H20 C12 1_555 1_555
H21 C12 1_555 1_555
C13 O7 1_555 1_555
C14 C13 1_555 1_555
C15 C14 1_555 1_555
C16 C15 1_555 1_555
O7A C13 1_555 1_555
C14A C13 1_555 1_555
C15A C14 1_555 1_555
Mn1A O7A 1_555 1_555
O1A C1A 1_555 1_555
O2A Mn1A 1_555 1_555
O5A C9A 1_555 1_555
O6A Mn1A 1_555 1_555
C1A O2A 1_555 1_555
C2A C1A 1_555 1_555
H1A C2A 1_555 1_555
H2A C2A 1_555 1_555
C3A C2A 1_555 1_555
H3A C3A 1_555 1_555
H4A C3A 1_555 1_555
C4A C3A 1_555 1_555
H5A C4A 1_555 1_555
H6A C4A 1_555 1_555
H7A C4A 1_555 1_555
C9A O6A 1_555 1_555
C10A C9A 1_555 1_555
H15A C10A 1_555 1_555
H16A C10A 1_555 1_555
C11A C10A 1_555 1_555
H17A C11A 1_555 1_555
H18A C11A 1_555 1_555
C12A C11A 1_555 1_555
H19A C12A 1_555 1_555
H20A C12A 1_555 1_555
H21A C12A 1_555 1_555
O3K Yb1 1_555 1_555
O4K Mn1 1_555 1_555
C5K O3K 1_555 1_555
C6K C5K 1_555 1_555
H8K C6K 1_555 1_555
H9K C6K 1_555 1_555
C7K C6K 1_555 1_555
H10K C7K 1_555 1_555
H11K C7K 1_555 1_555
C8K C7K 1_555 1_555
H12K C8K 1_555 1_555
H13K C8K 1_555 1_555
H14K C8K 1_555 1_555
Yb1A O1A 1_555 1_555
Mn1K O4 1_555 1_555
Mn1N O7A 1_555 1_555
Mn1O O6 1_555 1_555
O1K Yb1 1_555 1_555
O2K Yb1 1_555 1_555
O4J Mn1A 1_555 1_555
O5K Yb1 1_555 1_555
O6N Mn1 1_555 1_555
O6O Mn1A 1_555 1_555
O7N Mn1 1_555 1_555
O7O Mn1A 1_555 1_555
O6 C9 1_555 1_555
O7 Mn1O 1_555 1_555
C14 C14A 1_555 1_555
C15 C14A 1_555 1_555
C15 C15A 1_555 1_555
C16 C15A 1_555 1_555
C14A C15A 1_555 1_555
O2A Yb1A 1_555 1_555
O5A Yb1A 1_555 1_555
O6A Mn1N 1_555 1_555
O4K C5K 1_555 1_555
Mn1K O2K 1_555 1_555
Mn1N O6N 1_555 1_555
Mn1N O7N 1_555 1_555
Mn1O O6O 1_555 1_555
Mn1O O7O 1_555 1_555

#END
