
#######################################################################
#
#                 Cambridge Crystallographic Data Centre
#                                CCDC 
#
#######################################################################
#
# If this CIF has been generated from an entry in the Cambridge 
# Structural Database, then it will include bibliographic, chemical, 
# crystal, experimental, refinement or atomic coordinate data resulting 
# from the CCDC's data processing and validation procedures.
#
#######################################################################

data_UDUHOS
_symmetry_cell_setting           tetragonal
_symmetry_space_group_name_H-M   'I -4 2 d'
_symmetry_Int_Tables_number      122
_space_group_name_Hall           'I -4 2bw'
loop_
_symmetry_equiv_pos_site_id
_symmetry_equiv_pos_as_xyz
1 x,y,z
2 -x,-y,z
3 x,1/2-y,1/4-z
4 -x,1/2+y,1/4-z
5 y,1/2+x,1/4+z
6 -y,1/2-x,1/4+z
7 -y,x,-z
8 y,-x,-z
9 1/2+x,1/2+y,1/2+z
10 1/2-x,1/2-y,1/2+z
11 1/2+x,-y,3/4-z
12 1/2-x,y,3/4-z
13 1/2+y,x,3/4+z
14 1/2-y,-x,3/4+z
15 1/2-y,1/2+x,1/2-z
16 1/2+y,1/2-x,1/2-z
_cell_length_a                   23.6506(14)
_cell_length_b                   23.6506(14)
_cell_length_c                   13.5373(13)
_cell_angle_alpha                90
_cell_angle_beta                 90
_cell_angle_gamma                90
_cell_volume                     7572.1
loop_
_atom_site_label
_atom_site_type_symbol
_atom_site_fract_x
_atom_site_fract_y
_atom_site_fract_z
Ho1 Ho 0.7500 0.497183(18) 0.3750
Mn1 Mn 0.89720(3) 0.48196(3) 0.24600(8)
O1 O 0.7860(2) 0.4187(2) 0.4654(5)
O2 O 0.83645(18) 0.44371(18) 0.3402(4)
O3 O 0.7366(3) 0.5232(3) 0.5340(4)
O4 O 0.66157(15) 0.4955(2) 0.6182(3)
O5 O 0.8208(2) 0.5613(2) 0.3926(6)
O6 O 0.90031(15) 0.56807(15) 0.3117(3)
O7 O 0.96215(15) 0.52789(16) 0.1515(3)
C1 C 0.8285(3) 0.4109(3) 0.4101(7)
C2 C 0.8671(5) 0.3617(5) 0.4277(13)
H1 H 0.9047 0.3765 0.4398
H2 H 0.8688 0.3397 0.3674
C3 C 0.8525(7) 0.3224(8) 0.511(2)
H3 H 0.8845 0.2986 0.5272
H4 H 0.8413 0.3434 0.5690
C4 C 0.8045(12) 0.2879(11) 0.472(3)
H5 H 0.7928 0.2614 0.5222
H6 H 0.8164 0.2677 0.4145
H7 H 0.7735 0.3123 0.4561
C5 C 0.7128(3) 0.5074(3) 0.6117(5)
C6 C 0.7481(3) 0.5015(6) 0.7014(7)
H8 H 0.7311 0.5243 0.7530
H9 H 0.7459 0.4624 0.7227
C7 C 0.8084(4) 0.5168(12) 0.6952(12)
H10 H 0.8123 0.5576 0.6999
H11 H 0.8234 0.5049 0.6318
C8 C 0.8410(8) 0.4893(14) 0.7763(18)
H12 H 0.8807 0.4957 0.7662
H13 H 0.8336 0.4494 0.7763
H14 H 0.8298 0.5052 0.8386
C9 C 0.8598(2) 0.5897(2) 0.3615(5)
C10 C 0.8598(4) 0.6520(3) 0.3793(12)
H15 H 0.8456 0.6708 0.3207
H16 H 0.8985 0.6644 0.3895
C11 C 0.8247(8) 0.6700(6) 0.4669(19)
H17 H 0.8116 0.7084 0.4568
H18 H 0.7917 0.6458 0.4718
C12 C 0.8573(19) 0.667(3) 0.561(3)
H19 H 0.8325 0.6745 0.6158
H20 H 0.8870 0.6947 0.5602
H21 H 0.8734 0.6300 0.5683
C13 C 1.0000 0.5000 0.1088(5)
C14 C 1.0150(8) 0.5235(9) 0.0084(9)
C15 C 1.020(3) 0.4753(15) -0.063(2)
C16 C 1.0000 0.5000 -0.159(3)
O7A O 1.03785(15) 0.47211(16) 0.1515(3)
C14A C 0.9850(8) 0.4765(9) 0.0084(9)
C15A C 0.980(3) 0.5247(15) -0.063(2)
Mn1A Mn 1.10280(3) 0.51804(3) 0.24600(8)
O1A O 1.2140(2) 0.5813(2) 0.4654(5)
O2A O 1.16355(18) 0.55629(18) 0.3402(4)
O5A O 1.1792(2) 0.4387(2) 0.3926(6)
O6A O 1.09969(15) 0.43193(15) 0.3117(3)
C1A C 1.1715(3) 0.5891(3) 0.4101(7)
C2A C 1.1329(5) 0.6383(5) 0.4277(13)
H1A H 1.0953 0.6235 0.4398
H2A H 1.1312 0.6603 0.3674
C3A C 1.1475(7) 0.6776(8) 0.511(2)
H3A H 1.1155 0.7014 0.5272
H4A H 1.1587 0.6566 0.5690
C4A C 1.1955(12) 0.7121(11) 0.472(3)
H5A H 1.2072 0.7386 0.5222
H6A H 1.1836 0.7323 0.4145
H7A H 1.2265 0.6877 0.4561
C9A C 1.1402(2) 0.4103(2) 0.3615(5)
C10A C 1.1402(4) 0.3480(3) 0.3793(12)
H15A H 1.1544 0.3292 0.3207
H16A H 1.1015 0.3356 0.3895
C11A C 1.1753(8) 0.3300(6) 0.4669(19)
H17A H 1.1884 0.2916 0.4568
H18A H 1.2083 0.3542 0.4718
C12A C 1.1427(19) 0.333(3) 0.561(3)
H19A H 1.1675 0.3255 0.6158
H20A H 1.1130 0.3053 0.5602
H21A H 1.1266 0.3700 0.5683
O3K O 0.7634(3) 0.5232(3) 0.2160(4)
O4K O 0.83843(15) 0.4955(2) 0.1318(3)
C5K C 0.7872(3) 0.5074(3) 0.1383(5)
C6K C 0.7519(3) 0.5015(6) 0.0486(7)
H8K H 0.7689 0.5243 -0.0030
H9K H 0.7541 0.4624 0.0273
C7K C 0.6916(4) 0.5168(12) 0.0548(12)
H10K H 0.6877 0.5576 0.0501
H11K H 0.6766 0.5049 0.1182
C8K C 0.6590(8) 0.4893(14) -0.0263(18)
H12K H 0.6193 0.4957 -0.0162
H13K H 0.6664 0.4494 -0.0263
H14K H 0.6702 0.5052 -0.0886
Ho1A Ho 1.2500 0.502817(18) 0.3750
Mn1K Mn 0.60280(3) 0.48196(3) 0.50400(8)
Mn1N Mn 1.01804(3) 0.39720(3) 0.25400(8)
Mn1O Mn 0.98196(3) 0.60280(3) 0.25400(8)
O1K O 0.7140(2) 0.4187(2) 0.2846(5)
O2K O 0.66355(18) 0.44371(18) 0.4098(4)
O4J O 1.16157(15) 0.5045(2) 0.1318(3)
O5K O 0.6792(2) 0.5613(2) 0.3574(6)
O6N O 0.93193(15) 0.40031(15) 0.1883(3)
O6O O 1.06807(15) 0.59969(15) 0.1883(3)
O7N O 0.97211(16) 0.46215(15) 0.3485(3)
O7O O 1.02789(16) 0.53785(15) 0.3485(3)
loop_
_geom_bond_atom_site_label_1
_geom_bond_atom_site_label_2
_geom_bond_site_symmetry_1
_geom_bond_site_symmetry_2
Ho1 O1 1_555 1_555
Mn1 O2 1_555 1_555
O1 C1 1_555 1_555
O2 Ho1 1_555 1_555
O3 Ho1 1_555 1_555
O4 C5 1_555 1_555
O5 Ho1 1_555 1_555
O6 Mn1 1_555 1_555
O7 Mn1 1_555 1_555
C1 O2 1_555 1_555
C2 C1 1_555 1_555
H1 C2 1_555 1_555
H2 C2 1_555 1_555
C3 C2 1_555 1_555
H3 C3 1_555 1_555
H4 C3 1_555 1_555
C4 C3 1_555 1_555
H5 C4 1_555 1_555
H6 C4 1_555 1_555
H7 C4 1_555 1_555
C5 O3 1_555 1_555
C6 C5 1_555 1_555
H8 C6 1_555 1_555
H9 C6 1_555 1_555
C7 C6 1_555 1_555
H10 C7 1_555 1_555
H11 C7 1_555 1_555
C8 C7 1_555 1_555
H12 C8 1_555 1_555
H13 C8 1_555 1_555
H14 C8 1_555 1_555
C9 O5 1_555 1_555
C10 C9 1_555 1_555
H15 C10 1_555 1_555
H16 C10 1_555 1_555
C11 C10 1_555 1_555
H17 C11 1_555 1_555
H18 C11 1_555 1_555
C12 C11 1_555 1_555
H19 C12 1_555 1_555
H20 C12 1_555 1_555
H21 C12 1_555 1_555
C13 O7 1_555 1_555
C14 C13 1_555 1_555
C15 C14 1_555 1_555
C16 C15 1_555 1_555
O7A C13 1_555 1_555
C14A C13 1_555 1_555
C15A C14 1_555 1_555
Mn1A O7A 1_555 1_555
O1A C1A 1_555 1_555
O2A Mn1A 1_555 1_555
O5A C9A 1_555 1_555
O6A Mn1A 1_555 1_555
C1A O2A 1_555 1_555
C2A C1A 1_555 1_555
H1A C2A 1_555 1_555
H2A C2A 1_555 1_555
C3A C2A 1_555 1_555
H3A C3A 1_555 1_555
H4A C3A 1_555 1_555
C4A C3A 1_555 1_555
H5A C4A 1_555 1_555
H6A C4A 1_555 1_555
H7A C4A 1_555 1_555
C9A O6A 1_555 1_555
C10A C9A 1_555 1_555
H15A C10A 1_555 1_555
H16A C10A 1_555 1_555
C11A C10A 1_555 1_555
H17A C11A 1_555 1_555
H18A C11A 1_555 1_555
C12A C11A 1_555 1_555
H19A C12A 1_555 1_555
H20A C12A 1_555 1_555
H21A C12A 1_555 1_555
O3K Ho1 1_555 1_555
O4K Mn1 1_555 1_555
C5K O3K 1_555 1_555
C6K C5K 1_555 1_555
H8K C6K 1_555 1_555
H9K C6K 1_555 1_555
C7K C6K 1_555 1_555
H10K C7K 1_555 1_555
H11K C7K 1_555 1_555
C8K C7K 1_555 1_555
H12K C8K 1_555 1_555
H13K C8K 1_555 1_555
H14K C8K 1_555 1_555
Ho1A O1A 1_555 1_555
Mn1K O4 1_555 1_555
Mn1N O7A 1_555 1_555
Mn1O O6 1_555 1_555
O1K Ho1 1_555 1_555
O2K Ho1 1_555 1_555
O4J Mn1A 1_555 1_555
O5K Ho1 1_555 1_555
O6N Mn1 1_555 1_555
O6O Mn1A 1_555 1_555
O7N Mn1 1_555 1_555
O7O Mn1A 1_555 1_555
O6 C9 1_555 1_555
O7 Mn1O 1_555 1_555
C14 C14A 1_555 1_555
C15 C14A 1_555 1_555
C15 C15A 1_555 1_555
C16 C15A 1_555 1_555
C14A C15A 1_555 1_555
O2A Ho1A 1_555 1_555
O5A Ho1A 1_555 1_555
O6A Mn1N 1_555 1_555
O4K C5K 1_555 1_555
Mn1K O2K 1_555 1_555
Mn1N O6N 1_555 1_555
Mn1N O7N 1_555 1_555
Mn1O O6O 1_555 1_555
Mn1O O7O 1_555 1_555

#END
