
#######################################################################
#
#                 Cambridge Crystallographic Data Centre
#                                CCDC 
#
#######################################################################
#
# If this CIF has been generated from an entry in the Cambridge 
# Structural Database, then it will include bibliographic, chemical, 
# crystal, experimental, refinement or atomic coordinate data resulting 
# from the CCDC's data processing and validation procedures.
#
#######################################################################

data_UDUJUA
_symmetry_cell_setting           triclinic
_symmetry_space_group_name_H-M   'P -1'
_symmetry_Int_Tables_number      2
_space_group_name_Hall           '-P 1'
loop_
_symmetry_equiv_pos_site_id
_symmetry_equiv_pos_as_xyz
1 x,y,z
2 -x,-y,-z
_cell_length_a                   9.168(2)
_cell_length_b                   9.303(3)
_cell_length_c                   10.731(2)
_cell_angle_alpha                80.57(3)
_cell_angle_beta                 74.94(3)
_cell_angle_gamma                77.56(3)
_cell_volume                     857.396
loop_
_atom_site_label
_atom_site_type_symbol
_atom_site_fract_x
_atom_site_fract_y
_atom_site_fract_z
Tm1 Tm 1.08831(4) -0.07206(4) 0.82136(4)
Mn1 Mn 1.0000 0.0000 0.5000
O1 O 1.0993(6) 0.1091(6) 0.6182(6)
C1 C 0.7454(8) 0.0582(9) 0.7495(8)
C2 C 0.9206(8) -0.2448(8) 1.0374(8)
C3 C 1.2426(9) 0.1014(9) 0.6055(8)
O2 O 1.0677(6) -0.1869(6) 0.6408(5)
O3 O 1.2633(6) -0.1558(7) 0.9461(6)
O4 O 0.9400(5) -0.1243(5) 1.0654(5)
O5 O 1.3056(6) 0.0215(7) 0.6897(6)
O6 O 0.8351(5) 0.0302(6) 0.8254(5)
C4 C 0.5780(9) 0.1113(13) 0.8064(10)
H1 H 0.5618 0.1130 0.8982
H2 H 0.5186 0.0456 0.7909
H3 H 0.5466 0.2093 0.7664
O7 O 0.9733(6) -0.2789(6) 0.9231(5)
O8 O 0.7848(5) 0.0511(7) 0.6302(5)
C5 C 1.1884(9) -0.2841(8) 0.6410(8)
O9 O 1.2629(6) -0.2887(6) 0.7276(6)
C6 C 1.3319(11) 0.1862(11) 0.4914(10)
H4 H 1.2652 0.2375 0.4362
H5 H 1.4137 0.1189 0.4435
H6 H 1.3740 0.2566 0.5212
C7 C 0.8323(10) -0.3453(10) 1.1355(10)
H7 H 0.7957 -0.3029 1.2162
H8 H 0.8975 -0.4396 1.1482
H9 H 0.7465 -0.3585 1.1056
C8 C 1.2408(13) -0.3911(11) 0.5398(10)
H10 H 1.3327 -0.4574 0.5534
H11 H 1.2614 -0.3370 0.4549
H12 H 1.1618 -0.4469 0.5468
H13 H 1.358(5) -0.226(7) 0.937(8)
H14 H 1.237(8) -0.103(7) 1.021(5)
Tm1A Tm 0.91169(4) 0.07206(4) 0.17864(4)
O1A O 0.9007(6) -0.1091(6) 0.3818(6)
C1A C 1.2546(8) -0.0582(9) 0.2505(8)
C2A C 1.0794(8) 0.2448(8) -0.0374(8)
C3A C 0.7574(9) -0.1014(9) 0.3945(8)
O2A O 0.9323(6) 0.1869(6) 0.3592(5)
O3A O 0.7367(6) 0.1558(7) 0.0539(6)
O4A O 1.0600(5) 0.1243(5) -0.0654(5)
O5A O 0.6944(6) -0.0215(7) 0.3103(6)
O6A O 1.1649(5) -0.0302(6) 0.1746(5)
C4A C 1.4220(9) -0.1113(13) 0.1936(10)
H1A H 1.4382 -0.1130 0.1018
H2A H 1.4814 -0.0456 0.2091
H3A H 1.4534 -0.2093 0.2336
O7A O 1.0267(6) 0.2789(6) 0.0769(5)
O8A O 1.2152(5) -0.0511(7) 0.3698(5)
C5A C 0.8116(9) 0.2841(8) 0.3590(8)
O9A O 0.7371(6) 0.2887(6) 0.2724(6)
C6A C 0.6681(11) -0.1862(11) 0.5086(10)
H4A H 0.7348 -0.2375 0.5638
H5A H 0.5863 -0.1189 0.5565
H6A H 0.6260 -0.2566 0.4788
C7A C 1.1677(10) 0.3453(10) -0.1355(10)
H7A H 1.2043 0.3029 -0.2162
H8A H 1.1025 0.4396 -0.1482
H9A H 1.2535 0.3585 -0.1056
C8A C 0.7592(13) 0.3911(11) 0.4602(10)
H10A H 0.6673 0.4574 0.4466
H11A H 0.7386 0.3370 0.5451
H12A H 0.8382 0.4469 0.4532
H13A H 0.642(5) 0.226(7) 0.063(8)
H14A H 0.763(8) 0.103(7) -0.021(5)
Tm1_2 Tm 1.08831(4) -0.07206(4) -0.17864(4)
Tm1A_2 Tm 0.91169(4) 0.07206(4) 1.17864(4)
O4_2 O 0.9400(5) -0.1243(5) 0.0654(5)
O4A_2 O 1.0600(5) 0.1243(5) 0.9346(5)
C9 C 0.6050(11) -0.4193(12) 0.8262(11)
O10 O 0.5363(7) -0.4574(7) 0.7463(7)
C10 C 0.7637(11) -0.5012(14) 0.8197(12)
H15 H 0.7833 -0.5820 0.7688
H16 H 0.7759 -0.5390 0.9059
H17 H 0.8350 -0.4356 0.7802
O11 O 0.5459(8) -0.3216(10) 0.8907(9)
H18 H 0.430(4) -0.413(14) 0.751(13)
loop_
_geom_bond_atom_site_label_1
_geom_bond_atom_site_label_2
_geom_bond_site_symmetry_1
_geom_bond_site_symmetry_2
Tm1 O1 1_555 1_555
Mn1 O1 1_555 1_555
O1 C3 1_555 1_555
C1 O6 1_555 1_555
C2 O4 1_555 1_555
C3 O5 1_555 1_555
O2 Tm1 1_555 1_555
O3 Tm1 1_555 1_555
O4 Tm1 1_555 1_555
O5 Tm1 1_555 1_555
O6 Tm1 1_555 1_555
C4 C1 1_555 1_555
H1 C4 1_555 1_555
H2 C4 1_555 1_555
H3 C4 1_555 1_555
O7 Tm1 1_555 1_555
O8 Mn1 1_555 1_555
C5 O2 1_555 1_555
O9 Tm1 1_555 1_555
C6 C3 1_555 1_555
H4 C6 1_555 1_555
H5 C6 1_555 1_555
H6 C6 1_555 1_555
C7 C2 1_555 1_555
H7 C7 1_555 1_555
H8 C7 1_555 1_555
H9 C7 1_555 1_555
C8 C5 1_555 1_555
H10 C8 1_555 1_555
H11 C8 1_555 1_555
H12 C8 1_555 1_555
H13 O3 1_555 1_555
H14 O3 1_555 1_555
C9 O10 1_555 1_555
O10 H18 1_555 1_555
C10 C9 1_555 1_555
H15 C10 1_555 1_555
H16 C10 1_555 1_555
H17 C10 1_555 1_555
O11 C9 1_555 1_555
Tm1A O1A 1_555 1_555
O1A Mn1 1_555 1_555
C1A O6A 1_555 1_555
C2A O4A 1_555 1_555
C3A O1A 1_555 1_555
O2A Mn1 1_555 1_555
O3A Tm1A 1_555 1_555
O4A Tm1A 1_555 1_555
O5A Tm1A 1_555 1_555
O6A Tm1A 1_555 1_555
C4A C1A 1_555 1_555
H1A C4A 1_555 1_555
H2A C4A 1_555 1_555
H3A C4A 1_555 1_555
O7A Tm1A 1_555 1_555
O8A Mn1 1_555 1_555
C5A O2A 1_555 1_555
O9A Tm1A 1_555 1_555
C6A C3A 1_555 1_555
H4A C6A 1_555 1_555
H5A C6A 1_555 1_555
H6A C6A 1_555 1_555
C7A C2A 1_555 1_555
H7A C7A 1_555 1_555
H8A C7A 1_555 1_555
H9A C7A 1_555 1_555
C8A C5A 1_555 1_555
H10A C8A 1_555 1_555
H11A C8A 1_555 1_555
H12A C8A 1_555 1_555
H13A O3A 1_555 1_555
H14A O3A 1_555 1_555
Tm1_2 O4A 1_555 1_555
Tm1A_2 O4 1_555 1_555
O4_2 Tm1A 1_555 1_555
O4A_2 Tm1 1_555 1_555
Mn1 O2 1_555 1_555
C1 O8 1_555 1_555
C2 O7 1_555 1_555
C5 O9 1_555 1_555
Tm1A O2A 1_555 1_555
C1A O8A 1_555 1_555
C2A O7A 1_555 1_555
C3A O5A 1_555 1_555
C5A O9A 1_555 1_555
Tm1_2 O4_2 1_555 1_555
Tm1A_2 O4A_2 1_555 1_555

#END
