
#######################################################################
#
#                 Cambridge Crystallographic Data Centre
#                                CCDC 
#
#######################################################################
#
# If this CIF has been generated from an entry in the Cambridge 
# Structural Database, then it will include bibliographic, chemical, 
# crystal, experimental, refinement or atomic coordinate data resulting 
# from the CCDC's data processing and validation procedures.
#
#######################################################################

data_UDUKEK
_symmetry_cell_setting           orthorhombic
_symmetry_space_group_name_H-M   'P b c n'
_symmetry_Int_Tables_number      60
_space_group_name_Hall           '-P 2n 2ab'
loop_
_symmetry_equiv_pos_site_id
_symmetry_equiv_pos_as_xyz
1 x,y,z
2 1/2-x,1/2-y,1/2+z
3 -x,y,1/2-z
4 1/2+x,1/2-y,-z
5 -x,-y,-z
6 1/2+x,1/2+y,1/2-z
7 x,-y,1/2+z
8 1/2-x,1/2+y,z
_cell_length_a                   25.8453(14)
_cell_length_b                   25.9396(15)
_cell_length_c                   11.8135(5)
_cell_angle_alpha                90
_cell_angle_beta                 90
_cell_angle_gamma                90
_cell_volume                     7919.97
loop_
_atom_site_label
_atom_site_type_symbol
_atom_site_fract_x
_atom_site_fract_y
_atom_site_fract_z
Yb1 Yb 0.141180(12) 0.781770(14) 0.82807(2)
Ru1 Ru 0.25773(2) 0.88180(2) 0.50765(4)
Ru2 Ru 0.0000 0.63645(4) 0.7500
C1 C 0.2145(3) 0.9661(3) 0.6714(6)
H1 H 0.1994 0.9388 0.7137
C2 C 0.2084(3) 1.0171(3) 0.7088(6)
H2 H 0.1892 1.0237 0.7758
C3 C 0.2296(3) 1.0572(3) 0.6508(6)
H3 H 0.2251 1.0916 0.6765
C4 C 0.2582(3) 1.0468(3) 0.5521(6)
C5 C 0.2839(4) 1.0855(3) 0.4873(6)
H4 H 0.2817 1.1205 0.5106
C6 C 0.3112(4) 1.0735(3) 0.3938(6)
H5 H 0.3271 1.1003 0.3514
C7 C 0.3165(3) 1.0216(3) 0.3575(5)
C8 C 0.3457(3) 1.0060(3) 0.2618(6)
H6 H 0.3619 1.0311 0.2151
C9 C 0.3505(3) 0.9553(3) 0.2372(6)
H7 H 0.3703 0.9448 0.1735
C10 C 0.3263(3) 0.9182(3) 0.3051(5)
H8 H 0.3306 0.8828 0.2871
C11 C 0.2930(3) 0.9822(3) 0.4206(6)
C12 C 0.2629(3) 0.9955(3) 0.5199(5)
C13 C 0.2168(3) 0.8437(3) 0.6215(6)
C14 C 0.1912(3) 0.8844(3) 0.4143(6)
C15 C 0.3234(3) 0.8754(3) 0.6008(5)
C16 C 0.2161(3) 0.6801(3) 0.9294(6)
C17 C 0.0435(3) 0.7887(4) 0.6304(6)
H9 H 0.0455 0.7523 0.6377
C18 C 0.0117(3) 0.8094(4) 0.5444(6)
H10 H -0.0081 0.7874 0.4970
C19 C 0.0100(3) 0.8615(4) 0.5307(7)
H11 H -0.0098 0.8763 0.4711
C20 C 0.0375(3) 0.8931(4) 0.6050(6)
C21 C 0.0362(3) 0.9478(4) 0.6003(7)
H12 H 0.0190 0.9640 0.5387
C22 C 0.0584(3) 0.9775(4) 0.6800(7)
H13 H 0.0564 1.0140 0.6745
C23 C 0.0849(3) 0.9543(4) 0.7725(6)
C24 C 0.1046(3) 0.9829(4) 0.8635(7)
H14 H 0.1002 1.0192 0.8659
C25 C 0.1303(3) 0.9580(4) 0.9488(7)
H15 H 0.1431 0.9767 1.0121
C26 C 0.1375(3) 0.9045(3) 0.9414(6)
H16 H 0.1571 0.8881 0.9991
C27 C 0.0914(3) 0.9004(3) 0.7758(6)
C28 C 0.0668(3) 0.8697(3) 0.6911(6)
C29 C 0.0440(3) 0.6899(3) 0.8214(5)
C30 C 0.0622(3) 0.5739(3) 0.9305(6)
H17 H 0.0734 0.6062 0.9598
C31 C 0.0771(3) 0.5289(3) 0.9867(6)
H18 H 0.0976 0.5311 1.0533
C32 C 0.0625(3) 0.4823(4) 0.9472(6)
H19 H 0.0729 0.4518 0.9854
C33 C 0.0316(3) 0.4793(3) 0.8479(6)
C34 C 0.0148(3) 0.4314(3) 0.7974(7)
H20 H 0.0245 0.3996 0.8310
C35 C 0.0173(3) 0.5260(3) 0.7992(6)
C36 C 0.0543(3) 0.6395(3) 0.6236(6)
N1 N 0.2412(2) 0.9551(3) 0.5773(5)
N2 N 0.2973(2) 0.9311(2) 0.3944(4)
N3 N 0.1908(2) 0.8247(3) 0.6894(5)
N4 N 0.1518(3) 0.8840(3) 0.3660(6)
N5 N 0.3620(2) 0.8689(3) 0.6510(5)
N6 N 0.1937(3) 0.7124(3) 0.8814(5)
N7 N 0.0706(2) 0.8172(3) 0.7009(5)
N8 N 0.1186(2) 0.8755(3) 0.8586(5)
N9 N 0.0733(2) 0.7210(3) 0.8493(5)
N10 N 0.0330(2) 0.5735(2) 0.8372(5)
N11 N 0.0842(3) 0.6449(3) 0.5521(5)
O1 O 0.1162(2) 0.7862(2) 1.0175(4)
H21 H 0.0983 0.7625 1.0480
H22 H 0.1168 0.8120 1.0619
O2 O 0.1468(2) 0.7300(2) 0.6570(4)
H23 H 0.1771 0.7225 0.6821
H24 H 0.1298 0.7020 0.6447
O3 O 0.21343(19) 0.8160(2) 0.9203(4)
H25 H 0.2376 0.8150 0.8716
H26 H 0.2260 0.8080 0.9845
Yb1B Yb -0.141180(12) 0.781770(14) 0.67193(2)
Ru1B Ru -0.25773(2) 0.88180(2) 0.99235(4)
Ru1A Ru 0.24227(2) 0.61820(2) 1.00765(4)
Ru1C Ru -0.24227(2) 0.61820(2) 0.49235(4)
C1B C -0.2145(3) 0.9661(3) 0.8286(6)
H1B H -0.1994 0.9388 0.7863
C2B C -0.2084(3) 1.0171(3) 0.7912(6)
H2B H -0.1892 1.0237 0.7242
C3B C -0.2296(3) 1.0572(3) 0.8492(6)
H3B H -0.2251 1.0916 0.8235
C4B C -0.2582(3) 1.0468(3) 0.9479(6)
C5B C -0.2839(4) 1.0855(3) 1.0127(6)
H4B H -0.2817 1.1205 0.9894
C6B C -0.3112(4) 1.0735(3) 1.1062(6)
H5B H -0.3271 1.1003 1.1486
C7B C -0.3165(3) 1.0216(3) 1.1425(5)
C8B C -0.3457(3) 1.0060(3) 1.2382(6)
H6B H -0.3619 1.0311 1.2849
C9B C -0.3505(3) 0.9553(3) 1.2628(6)
H7B H -0.3703 0.9448 1.3265
C10B C -0.3263(3) 0.9182(3) 1.1949(5)
H8B H -0.3306 0.8828 1.2129
C11B C -0.2930(3) 0.9822(3) 1.0794(6)
C12B C -0.2629(3) 0.9955(3) 0.9801(5)
C13B C -0.2168(3) 0.8437(3) 0.8785(6)
C14B C -0.1912(3) 0.8844(3) 1.0857(6)
C15B C -0.3234(3) 0.8754(3) 0.8992(5)
C16B C -0.2161(3) 0.6801(3) 0.5706(6)
C16A C 0.2839(3) 0.8199(3) 0.4294(6)
C16C C -0.2839(3) 0.8199(3) 1.0706(6)
C17B C -0.0435(3) 0.7887(4) 0.8696(6)
H9B H -0.0455 0.7523 0.8623
C18B C -0.0117(3) 0.8094(4) 0.9556(6)
H10B H 0.0081 0.7874 1.0030
C19B C -0.0100(3) 0.8615(4) 0.9693(7)
H11B H 0.0098 0.8763 1.0289
C20B C -0.0375(3) 0.8931(4) 0.8950(6)
C21B C -0.0362(3) 0.9478(4) 0.8997(7)
H12B H -0.0190 0.9640 0.9613
C22B C -0.0584(3) 0.9775(4) 0.8200(7)
H13B H -0.0564 1.0140 0.8255
C23B C -0.0849(3) 0.9543(4) 0.7275(6)
C24B C -0.1046(3) 0.9829(4) 0.6365(7)
H14B H -0.1002 1.0192 0.6341
C25B C -0.1303(3) 0.9580(4) 0.5512(7)
H15B H -0.1431 0.9767 0.4879
C26B C -0.1375(3) 0.9045(3) 0.5586(6)
H16B H -0.1571 0.8881 0.5009
C27B C -0.0914(3) 0.9004(3) 0.7242(6)
C28B C -0.0668(3) 0.8697(3) 0.8089(6)
C29B C -0.0440(3) 0.6899(3) 0.6786(5)
C30B C -0.0622(3) 0.5739(3) 0.5695(6)
H17B H -0.0734 0.6062 0.5402
C31B C -0.0771(3) 0.5289(3) 0.5133(6)
H18B H -0.0976 0.5311 0.4467
C32B C -0.0625(3) 0.4823(4) 0.5528(6)
H19B H -0.0729 0.4518 0.5146
C33B C -0.0316(3) 0.4793(3) 0.6521(6)
C34B C -0.0148(3) 0.4314(3) 0.7026(7)
H20B H -0.0245 0.3996 0.6690
C35B C -0.0173(3) 0.5260(3) 0.7008(6)
C36B C -0.0543(3) 0.6395(3) 0.8764(6)
N1B N -0.2412(2) 0.9551(3) 0.9227(5)
N2B N -0.2973(2) 0.9311(2) 1.1056(4)
N3B N -0.1908(2) 0.8247(3) 0.8106(5)
N4B N -0.1518(3) 0.8840(3) 1.1340(6)
N5B N -0.3620(2) 0.8689(3) 0.8490(5)
N6B N -0.1937(3) 0.7124(3) 0.6186(5)
N7B N -0.0706(2) 0.8172(3) 0.7991(5)
N8B N -0.1186(2) 0.8755(3) 0.6414(5)
N9B N -0.0733(2) 0.7210(3) 0.6507(5)
N10B N -0.0330(2) 0.5735(2) 0.6628(5)
N11B N -0.0842(3) 0.6449(3) 0.9479(5)
O1B O -0.1162(2) 0.7862(2) 0.4825(4)
H21B H -0.0983 0.7625 0.4520
H22B H -0.1168 0.8120 0.4381
O2B O -0.1468(2) 0.7300(2) 0.8430(4)
H23B H -0.1771 0.7225 0.8179
H24B H -0.1298 0.7020 0.8553
O3B O -0.21343(19) 0.8160(2) 0.5797(4)
H25B H -0.2376 0.8150 0.6284
H26B H -0.2260 0.8080 0.5155
O4 O 0.1365(2) 0.7705(2) 0.4423(4)
H27 H 0.1061 0.7804 0.4259
H28 H 0.1538 0.7974 0.4259
O6 O 0.0886(4) 0.8653(4) 0.1745(7)
O7 O 0.4348(2) 0.7917(2) 0.6454(4)
H29 H 0.4133 0.8163 0.6396
H30 H 0.4571 0.7909 0.5925
O8 O 0.0459(2) 0.7123(3) 0.3778(5)
O9 O 0.2403(3) 0.7898(4) 0.1375(5)
O10 O 0.1992(2) 0.7118(2) 0.2952(5)
H31 H 0.1803 0.7293 0.3398
H32 H 0.1764 0.6974 0.2540
O11 O 0.1603(9) 0.8337(9) 0.1691(14)
H33 H 0.1635 0.8016 0.1881
H34 H 0.1573 0.8525 0.2038
O12 O 0.0000 0.8075(5) 0.2500
H35 H 0.0336 0.7983 0.2468
H35B H -0.0336 0.7983 0.2532
O5? O 0.0536(12) 0.8979(15) 0.232(2)
H36? H -0.0159 0.8339 0.2553
loop_
_geom_bond_atom_site_label_1
_geom_bond_atom_site_label_2
_geom_bond_site_symmetry_1
_geom_bond_site_symmetry_2
Yb1 N3 1_555 1_555
Ru1 C13 1_555 1_555
Ru2 C29 1_555 1_555
C1 H1 1_555 1_555
C2 C1 1_555 1_555
H2 C2 1_555 1_555
C3 C2 1_555 1_555
H3 C3 1_555 1_555
C4 C3 1_555 1_555
C5 C4 1_555 1_555
H4 C5 1_555 1_555
C6 C5 1_555 1_555
H5 C6 1_555 1_555
C7 C6 1_555 1_555
C8 C7 1_555 1_555
H6 C8 1_555 1_555
C9 C8 1_555 1_555
H7 C9 1_555 1_555
C10 C9 1_555 1_555
H8 C10 1_555 1_555
C11 C7 1_555 1_555
C12 C4 1_555 1_555
C13 N3 1_555 1_555
C14 Ru1 1_555 1_555
C15 Ru1 1_555 1_555
C16 N6 1_555 1_555
C17 H9 1_555 1_555
C18 C17 1_555 1_555
H10 C18 1_555 1_555
C19 C18 1_555 1_555
H11 C19 1_555 1_555
C20 C19 1_555 1_555
C21 C20 1_555 1_555
H12 C21 1_555 1_555
C22 C21 1_555 1_555
H13 C22 1_555 1_555
C23 C22 1_555 1_555
C24 C23 1_555 1_555
H14 C24 1_555 1_555
C25 C24 1_555 1_555
H15 C25 1_555 1_555
C26 C25 1_555 1_555
H16 C26 1_555 1_555
C27 C23 1_555 1_555
C28 C20 1_555 1_555
C29 N9 1_555 1_555
C30 H17 1_555 1_555
C31 C30 1_555 1_555
H18 C31 1_555 1_555
C32 C31 1_555 1_555
H19 C32 1_555 1_555
C33 C32 1_555 1_555
C34 C33 1_555 1_555
H20 C34 1_555 1_555
C35 C33 1_555 1_555
C36 Ru2 1_555 1_555
N1 Ru1 1_555 1_555
N2 Ru1 1_555 1_555
N4 C14 1_555 1_555
N5 C15 1_555 1_555
N6 Yb1 1_555 1_555
N7 Yb1 1_555 1_555
N8 Yb1 1_555 1_555
N9 Yb1 1_555 1_555
N10 Ru2 1_555 1_555
N11 C36 1_555 1_555
O1 Yb1 1_555 1_555
H21 O1 1_555 1_555
H22 O1 1_555 1_555
O2 Yb1 1_555 1_555
H23 O2 1_555 1_555
H24 O2 1_555 1_555
O3 Yb1 1_555 1_555
H25 O3 1_555 1_555
H26 O3 1_555 1_555
O4 H27 1_555 1_555
H28 O4 1_555 1_555
O7 H29 1_555 1_555
H30 O7 1_555 1_555
O10 H31 1_555 1_555
H32 O10 1_555 1_555
O11 H33 1_555 1_555
H34 O11 1_555 1_555
O12 H35 1_555 1_555
Yb1B N3B 1_555 1_555
Ru1B C13B 1_555 1_555
Ru1A C16 1_555 1_555
Ru1C C16B 1_555 1_555
C1B H1B 1_555 1_555
C2B C1B 1_555 1_555
H2B C2B 1_555 1_555
C3B C2B 1_555 1_555
H3B C3B 1_555 1_555
C4B C3B 1_555 1_555
C5B C4B 1_555 1_555
H4B C5B 1_555 1_555
C6B C5B 1_555 1_555
H5B C6B 1_555 1_555
C7B C6B 1_555 1_555
C8B C7B 1_555 1_555
H6B C8B 1_555 1_555
C9B C8B 1_555 1_555
H7B C9B 1_555 1_555
C10B C9B 1_555 1_555
H8B C10B 1_555 1_555
C11B C7B 1_555 1_555
C12B C4B 1_555 1_555
C13B N3B 1_555 1_555
C14B Ru1B 1_555 1_555
C15B Ru1B 1_555 1_555
C16B N6B 1_555 1_555
C16A Ru1 1_555 1_555
C16C Ru1B 1_555 1_555
C17B H9B 1_555 1_555
C18B C17B 1_555 1_555
H10B C18B 1_555 1_555
C19B C18B 1_555 1_555
H11B C19B 1_555 1_555
C20B C19B 1_555 1_555
C21B C20B 1_555 1_555
H12B C21B 1_555 1_555
C22B C21B 1_555 1_555
H13B C22B 1_555 1_555
C23B C22B 1_555 1_555
C24B C23B 1_555 1_555
H14B C24B 1_555 1_555
C25B C24B 1_555 1_555
H15B C25B 1_555 1_555
C26B C25B 1_555 1_555
H16B C26B 1_555 1_555
C27B C23B 1_555 1_555
C28B C20B 1_555 1_555
C29B Ru2 1_555 1_555
C30B H17B 1_555 1_555
C31B C30B 1_555 1_555
H18B C31B 1_555 1_555
C32B C31B 1_555 1_555
H19B C32B 1_555 1_555
C33B C32B 1_555 1_555
C34B C34 1_555 1_555
H20B C34B 1_555 1_555
C35B C35 1_555 1_555
C36B Ru2 1_555 1_555
N1B Ru1B 1_555 1_555
N2B Ru1B 1_555 1_555
N4B C14B 1_555 1_555
N5B C15B 1_555 1_555
N6B Yb1B 1_555 1_555
N7B Yb1B 1_555 1_555
N8B Yb1B 1_555 1_555
N9B Yb1B 1_555 1_555
N10B Ru2 1_555 1_555
N11B C36B 1_555 1_555
O1B Yb1B 1_555 1_555
H21B O1B 1_555 1_555
H22B O1B 1_555 1_555
O2B Yb1B 1_555 1_555
H23B O2B 1_555 1_555
H24B O2B 1_555 1_555
O3B Yb1B 1_555 1_555
H25B O3B 1_555 1_555
H26B O3B 1_555 1_555
H35B O12 1_555 1_555
C1 N1 1_555 1_555
C10 N2 1_555 1_555
C11 C12 1_555 1_555
C11 N2 1_555 1_555
C12 N1 1_555 1_555
C17 N7 1_555 1_555
C26 N8 1_555 1_555
C27 C28 1_555 1_555
C27 N8 1_555 1_555
C28 N7 1_555 1_555
C30 N10 1_555 1_555
C35 N10 1_555 1_555
C1B N1B 1_555 1_555
C10B N2B 1_555 1_555
C11B C12B 1_555 1_555
C11B N2B 1_555 1_555
C12B N1B 1_555 1_555
C17B N7B 1_555 1_555
C26B N8B 1_555 1_555
C27B C28B 1_555 1_555
C27B N8B 1_555 1_555
C28B N7B 1_555 1_555
C29B N9B 1_555 1_555
C30B N10B 1_555 1_555
C33B C34B 1_555 1_555
C33B C35B 1_555 1_555
C35B N10B 1_555 1_555

#END
