
#######################################################################
#
#                 Cambridge Crystallographic Data Centre
#                                CCDC 
#
#######################################################################
#
# If this CIF has been generated from an entry in the Cambridge 
# Structural Database, then it will include bibliographic, chemical, 
# crystal, experimental, refinement or atomic coordinate data resulting 
# from the CCDC's data processing and validation procedures.
#
#######################################################################

data_UDUKIP
_symmetry_cell_setting           triclinic
_symmetry_space_group_name_H-M   'P -1'
_symmetry_Int_Tables_number      2
_space_group_name_Hall           '-P 1'
loop_
_symmetry_equiv_pos_site_id
_symmetry_equiv_pos_as_xyz
1 x,y,z
2 -x,-y,-z
_cell_length_a                   9.1266(14)
_cell_length_b                   9.2440(14)
_cell_length_c                   10.7392(15)
_cell_angle_alpha                80.888(12)
_cell_angle_beta                 75.047(12)
_cell_angle_gamma                77.889(12)
_cell_volume                     850.638
loop_
_atom_site_label
_atom_site_type_symbol
_atom_site_fract_x
_atom_site_fract_y
_atom_site_fract_z
Lu1 Lu 0.91154(2) 0.071867(18) 0.678719(15)
Mn1 Mn 1.0000 0.0000 1.0000
O1 O 1.1634(4) -0.0309(4) 0.6753(3)
O2 O 1.0240(4) 0.2787(4) 0.5764(3)
C1 C 1.2549(5) -0.0585(5) 0.7505(4)
O3 O 0.9001(4) -0.1098(4) 0.8831(3)
O4 O 0.9308(4) 0.1854(4) 0.8588(3)
O5 O 0.6961(4) -0.0203(4) 0.8116(3)
O6 O 0.7387(4) 0.2894(4) 0.7739(3)
O7 O 1.0598(4) 0.1225(3) 0.4350(3)
C2 C 0.7616(10) 0.3935(7) 0.9565(6)
H1 H 0.8322 0.3738 1.0121
H2 H 0.6601 0.3841 1.0074
H3 H 0.7604 0.4926 0.9130
O8 O 0.7384(4) 0.1551(4) 0.5535(3)
O9 O 1.2143(4) -0.0502(5) 0.8694(3)
C3 C 0.6612(9) -0.1875(7) 1.0047(6)
H4 H 0.7240 -0.2419 1.0619
H5 H 0.6191 -0.2557 0.9711
H6 H 0.5788 -0.1194 1.0516
C4 C 0.8115(6) 0.2841(5) 0.8581(4)
C5 C 0.7569(6) -0.1030(5) 0.8956(4)
C6 C 1.4224(6) -0.1091(9) 0.6930(6)
H7 H 1.4381 -0.1111 0.6013
H8 H 1.4555 -0.2071 0.7325
H9 H 1.4811 -0.0415 0.7082
C7 C 1.1670(7) 0.3457(6) 0.3642(6)
H10 H 1.2028 0.3021 0.2839
H11 H 1.2537 0.3602 0.3929
H12 H 1.1014 0.4399 0.3515
C8 C 1.0790(5) 0.2446(4) 0.4639(4)
H13 H 0.638(3) 0.211(6) 0.581(5)
H14 H 0.765(8) 0.116(7) 0.472(3)
Lu1A Lu 1.08846(2) -0.071867(18) 0.321281(15)
O1A O 0.8366(4) 0.0309(4) 0.3247(3)
O2A O 0.9760(4) -0.2787(4) 0.4236(3)
C1A C 0.7451(5) 0.0585(5) 0.2495(4)
O3A O 1.0999(4) 0.1098(4) 0.1169(3)
O4A O 1.0692(4) -0.1854(4) 0.1412(3)
O5A O 1.3039(4) 0.0203(4) 0.1884(3)
O6A O 1.2613(4) -0.2894(4) 0.2261(3)
O7A O 0.9402(4) -0.1225(3) 0.5650(3)
C2A C 1.2384(10) -0.3935(7) 0.0435(6)
H1A H 1.1678 -0.3738 -0.0121
H2A H 1.3399 -0.3841 -0.0074
H3A H 1.2396 -0.4926 0.0870
O8A O 1.2616(4) -0.1551(4) 0.4465(3)
O9A O 0.7857(4) 0.0502(5) 0.1306(3)
C3A C 1.3388(9) 0.1875(7) -0.0047(6)
H4A H 1.2760 0.2419 -0.0619
H5A H 1.3809 0.2557 0.0289
H6A H 1.4212 0.1194 -0.0516
C4A C 1.1885(6) -0.2841(5) 0.1419(4)
C5A C 1.2431(6) 0.1030(5) 0.1044(4)
C6A C 0.5776(6) 0.1091(9) 0.3070(6)
H7A H 0.5619 0.1111 0.3987
H8A H 0.5445 0.2071 0.2675
H9A H 0.5189 0.0415 0.2918
C7A C 0.8330(7) -0.3457(6) 0.6358(6)
H10A H 0.7972 -0.3021 0.7161
H11A H 0.7463 -0.3602 0.6071
H12A H 0.8986 -0.4399 0.6485
C8A C 0.9210(5) -0.2446(4) 0.5361(4)
H13A H 1.362(3) -0.211(6) 0.419(5)
H14A H 1.235(8) -0.116(7) 0.528(3)
Mn1_2 Mn 1.0000 0.0000 0.0000
O3A_2 O 1.0999(4) 0.1098(4) 1.1169(3)
O4A_2 O 1.0692(4) -0.1854(4) 1.1412(3)
O9A_2 O 0.7857(4) 0.0502(5) 1.1306(3)
O10 O 0.4646(5) 0.4582(5) 0.7548(4)
H15 H 0.5514 0.4085 0.7483
C9 C 0.3970(7) 0.4181(7) 0.6753(6)
O11 O 0.4549(6) 0.3209(7) 0.6076(6)
C10 C 0.2370(8) 0.5019(9) 0.6792(8)
H16 H 0.2119 0.5750 0.7392
H17 H 0.1655 0.4338 0.7065
H18 H 0.2308 0.5505 0.5943
loop_
_geom_bond_atom_site_label_1
_geom_bond_atom_site_label_2
_geom_bond_site_symmetry_1
_geom_bond_site_symmetry_2
Lu1 O1 1_555 1_555
Mn1 O3 1_555 1_555
O1 C1 1_555 1_555
O2 Lu1 1_555 1_555
C1 O9 1_555 1_555
O3 Lu1 1_555 1_555
O4 Lu1 1_555 1_555
O5 Lu1 1_555 1_555
O6 Lu1 1_555 1_555
O7 Lu1 1_555 1_555
C2 H1 1_555 1_555
H2 C2 1_555 1_555
H3 C2 1_555 1_555
O8 Lu1 1_555 1_555
O9 Mn1 1_555 1_555
C3 H4 1_555 1_555
H5 C3 1_555 1_555
H6 C3 1_555 1_555
C4 O4 1_555 1_555
C5 O3 1_555 1_555
C6 C1 1_555 1_555
H7 C6 1_555 1_555
H8 C6 1_555 1_555
H9 C6 1_555 1_555
C7 H10 1_555 1_555
H11 C7 1_555 1_555
H12 C7 1_555 1_555
C8 O2 1_555 1_555
H13 O8 1_555 1_555
H14 O8 1_555 1_555
O10 H15 1_555 1_555
C9 O10 1_555 1_555
O11 C9 1_555 1_555
C10 C9 1_555 1_555
H16 C10 1_555 1_555
H17 C10 1_555 1_555
H18 C10 1_555 1_555
Lu1A O7 1_555 1_555
O1A Lu1A 1_555 1_555
O2A Lu1A 1_555 1_555
C1A O1A 1_555 1_555
O3A Lu1A 1_555 1_555
O4A Lu1A 1_555 1_555
O5A Lu1A 1_555 1_555
O6A Lu1A 1_555 1_555
O7A Lu1 1_555 1_555
C2A H1A 1_555 1_555
H2A C2A 1_555 1_555
H3A C2A 1_555 1_555
O8A Lu1A 1_555 1_555
O9A C1A 1_555 1_555
C3A H4A 1_555 1_555
H5A C3A 1_555 1_555
H6A C3A 1_555 1_555
C4A O4A 1_555 1_555
C5A O3A 1_555 1_555
C6A C1A 1_555 1_555
H7A C6A 1_555 1_555
H8A C6A 1_555 1_555
H9A C6A 1_555 1_555
C7A H10A 1_555 1_555
H11A C7A 1_555 1_555
H12A C7A 1_555 1_555
C8A O2A 1_555 1_555
H13A O8A 1_555 1_555
H14A O8A 1_555 1_555
Mn1_2 O3A 1_555 1_555
O3A_2 Mn1 1_555 1_555
O4A_2 Mn1 1_555 1_555
O9A_2 Mn1 1_555 1_555
Mn1 O4 1_555 1_555
O5 C5 1_555 1_555
O6 C4 1_555 1_555
O7 C8 1_555 1_555
C2 C4 1_555 1_555
C3 C5 1_555 1_555
C7 C8 1_555 1_555
Lu1A O7A 1_555 1_555
O4A Mn1_2 1_555 1_555
O5A C5A 1_555 1_555
O6A C4A 1_555 1_555
O7A C8A 1_555 1_555
C2A C4A 1_555 1_555
O9A Mn1_2 1_555 1_555
C3A C5A 1_555 1_555
C7A C8A 1_555 1_555

#END
