
#######################################################################
#
#                 Cambridge Crystallographic Data Centre
#                                CCDC 
#
#######################################################################
#
# If this CIF has been generated from an entry in the Cambridge 
# Structural Database, then it will include bibliographic, chemical, 
# crystal, experimental, refinement or atomic coordinate data resulting 
# from the CCDC's data processing and validation procedures.
#
#######################################################################

data_UDUKUB
_symmetry_cell_setting           triclinic
_symmetry_space_group_name_H-M   'P -1'
_symmetry_Int_Tables_number      2
_space_group_name_Hall           '-P 1'
loop_
_symmetry_equiv_pos_site_id
_symmetry_equiv_pos_as_xyz
1 x,y,z
2 -x,-y,-z
_cell_length_a                   9.0973(12)
_cell_length_b                   9.2761(12)
_cell_length_c                   10.5220(14)
_cell_angle_alpha                80.039(10)
_cell_angle_beta                 75.352(10)
_cell_angle_gamma                77.424(10)
_cell_volume                     831.892
loop_
_atom_site_label
_atom_site_type_symbol
_atom_site_fract_x
_atom_site_fract_y
_atom_site_fract_z
Ho1 Ho 0.912078(14) 0.072474(14) 0.679354(12)
Co1 Co 1.0000 0.0000 1.0000
O1 O 1.1700(2) -0.0287(2) 0.6770(2)
O2 O 1.0212(3) 0.2873(2) 0.5756(2)
C1 C 1.2575(3) -0.0609(3) 0.7585(3)
O3 O 0.9079(2) -0.1086(2) 0.8854(2)
O4 O 0.9363(3) 0.1840(2) 0.8622(2)
O5 O 0.6920(3) -0.0213(3) 0.8195(2)
O6 O 0.7371(3) 0.2896(3) 0.7784(2)
O7 O 1.0577(2) 0.1252(2) 0.4371(2)
C2 C 0.7664(6) 0.3900(4) 0.9638(4)
H1 H 0.8389 0.3690 1.0198
H2 H 0.6654 0.3803 1.0166
H3 H 0.7641 0.4896 0.9192
O8 O 0.7315(3) 0.1552(3) 0.5510(2)
O9 O 1.2134(3) -0.0509(3) 0.8800(2)
C3 C 0.6759(4) -0.1930(4) 1.0182(3)
H4 H 0.7456 -0.2457 1.0727
H5 H 0.6339 -0.2630 0.9868
H6 H 0.5934 -0.1285 1.0692
C4 C 0.8141(4) 0.2826(3) 0.8638(3)
C5 C 0.7612(4) -0.1023(3) 0.9026(3)
C6 C 1.4264(4) -0.1180(5) 0.7056(4)
H7 H 1.4451 -0.1210 0.6120
H8 H 1.4552 -0.2163 0.7489
H9 H 1.4867 -0.0530 0.7220
C7 C 1.1690(5) 0.3458(4) 0.3577(4)
H10 H 1.2038 0.2995 0.2778
H11 H 1.2568 0.3590 0.3865
H12 H 1.1052 0.4410 0.3411
C8 C 1.0778(3) 0.2491(3) 0.4630(3)
H13 H 0.631(3) 0.214(5) 0.575(5)
H14 H 0.752(6) 0.106(5) 0.474(3)
Ho1A Ho 1.087922(14) -0.072474(14) 0.320646(12)
O1A O 0.8300(2) 0.0287(2) 0.3230(2)
O2A O 0.9788(3) -0.2873(2) 0.4244(2)
C1A C 0.7425(3) 0.0609(3) 0.2415(3)
O3A O 1.0921(2) 0.1086(2) 0.1146(2)
O4A O 1.0637(3) -0.1840(2) 0.1378(2)
O5A O 1.3080(3) 0.0213(3) 0.1805(2)
O6A O 1.2629(3) -0.2896(3) 0.2216(2)
O7A O 0.9423(2) -0.1252(2) 0.5629(2)
C2A C 1.2336(6) -0.3900(4) 0.0362(4)
H1A H 1.1611 -0.3690 -0.0198
H2A H 1.3346 -0.3803 -0.0166
H3A H 1.2359 -0.4896 0.0808
O8A O 1.2685(3) -0.1552(3) 0.4490(2)
O9A O 0.7866(3) 0.0509(3) 0.1200(2)
C3A C 1.3241(4) 0.1930(4) -0.0182(3)
H4A H 1.2544 0.2457 -0.0727
H5A H 1.3661 0.2630 0.0132
H6A H 1.4066 0.1285 -0.0692
C4A C 1.1859(4) -0.2826(3) 0.1362(3)
C5A C 1.2388(4) 0.1023(3) 0.0974(3)
C6A C 0.5736(4) 0.1180(5) 0.2944(4)
H7A H 0.5549 0.1210 0.3880
H8A H 0.5448 0.2163 0.2511
H9A H 0.5133 0.0530 0.2780
C7A C 0.8310(5) -0.3458(4) 0.6423(4)
H10A H 0.7962 -0.2995 0.7222
H11A H 0.7432 -0.3590 0.6135
H12A H 0.8948 -0.4410 0.6589
C8A C 0.9222(3) -0.2491(3) 0.5370(3)
H13A H 1.369(3) -0.214(5) 0.425(5)
H14A H 1.248(6) -0.106(5) 0.526(3)
Co1_2 Co 1.0000 0.0000 0.0000
O3A_2 O 1.0921(2) 0.1086(2) 1.1146(2)
O4A_2 O 1.0637(3) -0.1840(2) 1.1378(2)
O9A_2 O 0.7866(3) 0.0509(3) 1.1200(2)
O10 O 0.4640(3) 0.4613(3) 0.7526(3)
H15 H 0.5511 0.4112 0.7458
C9 C 0.3936(4) 0.4222(4) 0.6720(4)
O11 O 0.4510(4) 0.3234(4) 0.6037(4)
C10 C 0.2344(4) 0.5097(5) 0.6731(4)
H16 H 0.2103 0.5826 0.7334
H17 H 0.1611 0.4437 0.7009
H18 H 0.2296 0.5588 0.5857
loop_
_geom_bond_atom_site_label_1
_geom_bond_atom_site_label_2
_geom_bond_site_symmetry_1
_geom_bond_site_symmetry_2
Ho1 O1 1_555 1_555
Co1 O3 1_555 1_555
O1 C1 1_555 1_555
O2 Ho1 1_555 1_555
C1 O9 1_555 1_555
O3 Ho1 1_555 1_555
O4 Ho1 1_555 1_555
O5 Ho1 1_555 1_555
O6 Ho1 1_555 1_555
O7 Ho1 1_555 1_555
C2 H1 1_555 1_555
H2 C2 1_555 1_555
H3 C2 1_555 1_555
O8 Ho1 1_555 1_555
O9 Co1 1_555 1_555
C3 H4 1_555 1_555
H5 C3 1_555 1_555
H6 C3 1_555 1_555
C4 O4 1_555 1_555
C5 O3 1_555 1_555
C6 C1 1_555 1_555
H7 C6 1_555 1_555
H8 C6 1_555 1_555
H9 C6 1_555 1_555
C7 H10 1_555 1_555
H11 C7 1_555 1_555
H12 C7 1_555 1_555
C8 O2 1_555 1_555
H13 O8 1_555 1_555
H14 O8 1_555 1_555
O10 H15 1_555 1_555
C9 O10 1_555 1_555
O11 C9 1_555 1_555
C10 C9 1_555 1_555
H16 C10 1_555 1_555
H17 C10 1_555 1_555
H18 C10 1_555 1_555
Ho1A O7 1_555 1_555
O1A Ho1A 1_555 1_555
O2A Ho1A 1_555 1_555
C1A O1A 1_555 1_555
O3A Ho1A 1_555 1_555
O4A Ho1A 1_555 1_555
O5A Ho1A 1_555 1_555
O6A Ho1A 1_555 1_555
O7A Ho1 1_555 1_555
C2A H1A 1_555 1_555
H2A C2A 1_555 1_555
H3A C2A 1_555 1_555
O8A Ho1A 1_555 1_555
O9A C1A 1_555 1_555
C3A H4A 1_555 1_555
H5A C3A 1_555 1_555
H6A C3A 1_555 1_555
C4A O4A 1_555 1_555
C5A O3A 1_555 1_555
C6A C1A 1_555 1_555
H7A C6A 1_555 1_555
H8A C6A 1_555 1_555
H9A C6A 1_555 1_555
C7A H10A 1_555 1_555
H11A C7A 1_555 1_555
H12A C7A 1_555 1_555
C8A O2A 1_555 1_555
H13A O8A 1_555 1_555
H14A O8A 1_555 1_555
Co1_2 O3A 1_555 1_555
O3A_2 Co1 1_555 1_555
O4A_2 Co1 1_555 1_555
O9A_2 Co1 1_555 1_555
Co1 O4 1_555 1_555
O5 C5 1_555 1_555
O6 C4 1_555 1_555
O7 C8 1_555 1_555
C2 C4 1_555 1_555
C3 C5 1_555 1_555
C7 C8 1_555 1_555
Ho1A O7A 1_555 1_555
O4A Co1_2 1_555 1_555
O5A C5A 1_555 1_555
O6A C4A 1_555 1_555
O7A C8A 1_555 1_555
C2A C4A 1_555 1_555
O9A Co1_2 1_555 1_555
C3A C5A 1_555 1_555
C7A C8A 1_555 1_555

#END
