
#######################################################################
#
#                 Cambridge Crystallographic Data Centre
#                                CCDC 
#
#######################################################################
#
# If this CIF has been generated from an entry in the Cambridge 
# Structural Database, then it will include bibliographic, chemical, 
# crystal, experimental, refinement or atomic coordinate data resulting 
# from the CCDC's data processing and validation procedures.
#
#######################################################################

data_UDULOW
_symmetry_cell_setting           triclinic
_symmetry_space_group_name_H-M   'P -1'
_symmetry_Int_Tables_number      2
_space_group_name_Hall           '-P 1'
loop_
_symmetry_equiv_pos_site_id
_symmetry_equiv_pos_as_xyz
1 x,y,z
2 -x,-y,-z
_cell_length_a                   9.1836(18)
_cell_length_b                   9.2785(19)
_cell_length_c                   10.7273(19)
_cell_angle_alpha                80.516(15)
_cell_angle_beta                 74.916(15)
_cell_angle_gamma                77.417(16)
_cell_volume                     855.697
loop_
_atom_site_label
_atom_site_type_symbol
_atom_site_fract_x
_atom_site_fract_y
_atom_site_fract_z
Er1 Er 1.08824(3) -0.07234(3) 0.82171(2)
Mn1 Mn 1.0000 0.0000 0.5000
O1 O 1.0993(4) 0.1069(4) 0.6183(3)
C1 C 0.7439(6) 0.0587(6) 0.7491(5)
C2 C 0.9217(6) -0.2469(6) 1.0370(5)
C3 C 1.2434(7) 0.1009(7) 0.6056(5)
O2 O 1.0683(4) -0.1872(4) 0.6404(3)
O3 O 1.2639(4) -0.1569(4) 0.9481(3)
O4 O 0.9426(4) -0.1240(4) 1.0627(3)
O5 O 1.3057(4) 0.0197(5) 0.6890(3)
O6 O 0.8341(3) 0.0311(4) 0.8249(3)
C4 C 0.5766(6) 0.1094(9) 0.8058(6)
H1 H 0.5600 0.1112 0.8977
H2 H 0.5190 0.0420 0.7902
H3 H 0.5434 0.2073 0.7658
O7 O 0.9766(4) -0.2812(4) 0.9234(3)
O8 O 0.7860(4) 0.0507(4) 0.6290(3)
C5 C 1.1893(6) -0.2852(6) 0.6412(5)
O9 O 1.2627(4) -0.2888(4) 0.7247(3)
C6 C 1.3318(8) 0.1892(8) 0.4932(6)
H4 H 1.2654 0.2407 0.4378
H5 H 1.4153 0.1235 0.4448
H6 H 1.3715 0.2600 0.5248
C7 C 0.8316(7) -0.3428(7) 1.1364(6)
H7 H 0.7964 -0.2980 1.2160
H8 H 0.8947 -0.4383 1.1508
H9 H 0.7450 -0.3548 1.1073
C8 C 1.2417(9) -0.3943(7) 0.5440(6)
H10 H 1.3336 -0.4599 0.5588
H11 H 1.2622 -0.3423 0.4581
H12 H 1.1631 -0.4511 0.5526
H13 H 1.365(3) -0.214(6) 0.932(5)
H14 H 1.257(5) -0.113(5) 1.024(3)
Er1A Er 0.91176(3) 0.07234(3) 0.17829(2)
O1A O 0.9007(4) -0.1069(4) 0.3817(3)
C1A C 1.2561(6) -0.0587(6) 0.2509(5)
C2A C 1.0783(6) 0.2469(6) -0.0370(5)
C3A C 0.7566(7) -0.1009(7) 0.3944(5)
O2A O 0.9317(4) 0.1872(4) 0.3596(3)
O3A O 0.7361(4) 0.1569(4) 0.0519(3)
O4A O 1.0574(4) 0.1240(4) -0.0627(3)
O5A O 0.6943(4) -0.0197(5) 0.3110(3)
O6A O 1.1659(3) -0.0311(4) 0.1751(3)
C4A C 1.4234(6) -0.1094(9) 0.1942(6)
H1A H 1.4400 -0.1112 0.1023
H2A H 1.4810 -0.0420 0.2098
H3A H 1.4566 -0.2073 0.2342
O7A O 1.0234(4) 0.2812(4) 0.0766(3)
O8A O 1.2140(4) -0.0507(4) 0.3710(3)
C5A C 0.8107(6) 0.2852(6) 0.3588(5)
O9A O 0.7373(4) 0.2888(4) 0.2753(3)
C6A C 0.6682(8) -0.1892(8) 0.5068(6)
H4A H 0.7346 -0.2407 0.5622
H5A H 0.5847 -0.1235 0.5552
H6A H 0.6285 -0.2600 0.4752
C7A C 1.1684(7) 0.3428(7) -0.1364(6)
H7A H 1.2036 0.2980 -0.2160
H8A H 1.1053 0.4383 -0.1508
H9A H 1.2550 0.3548 -0.1073
C8A C 0.7583(9) 0.3943(7) 0.4560(6)
H10A H 0.6664 0.4599 0.4412
H11A H 0.7378 0.3423 0.5419
H12A H 0.8369 0.4511 0.4474
H13A H 0.635(3) 0.214(6) 0.068(5)
H14A H 0.743(5) 0.113(5) -0.024(3)
Er1_2 Er 1.08824(3) -0.07234(3) -0.17829(2)
Er1A_2 Er 0.91176(3) 0.07234(3) 1.17829(2)
O4_2 O 0.9426(4) -0.1240(4) 0.0627(3)
O4A_2 O 1.0574(4) 0.1240(4) 0.9373(3)
C9 C 0.6061(7) -0.4170(8) 0.8243(6)
O10 O 0.5376(5) -0.4573(5) 0.7457(4)
C10 C 0.7639(7) -0.4988(9) 0.8206(7)
H15 H 0.7851 -0.5803 0.7698
H16 H 0.7741 -0.5363 0.9074
H17 H 0.8353 -0.4331 0.7820
O11 O 0.5476(5) -0.3194(7) 0.8915(5)
H18 H 0.434(4) -0.403(11) 0.760(10)
loop_
_geom_bond_atom_site_label_1
_geom_bond_atom_site_label_2
_geom_bond_site_symmetry_1
_geom_bond_site_symmetry_2
Er1 O1 1_555 1_555
Mn1 O1 1_555 1_555
O1 C3 1_555 1_555
C1 O6 1_555 1_555
C2 O4 1_555 1_555
C3 O5 1_555 1_555
O2 Er1 1_555 1_555
O3 Er1 1_555 1_555
O4 Er1 1_555 1_555
O5 Er1 1_555 1_555
O6 Er1 1_555 1_555
C4 C1 1_555 1_555
H1 C4 1_555 1_555
H2 C4 1_555 1_555
H3 C4 1_555 1_555
O7 Er1 1_555 1_555
O8 Mn1 1_555 1_555
C5 O2 1_555 1_555
O9 Er1 1_555 1_555
C6 C3 1_555 1_555
H4 C6 1_555 1_555
H5 C6 1_555 1_555
H6 C6 1_555 1_555
C7 C2 1_555 1_555
H7 C7 1_555 1_555
H8 C7 1_555 1_555
H9 C7 1_555 1_555
C8 C5 1_555 1_555
H10 C8 1_555 1_555
H11 C8 1_555 1_555
H12 C8 1_555 1_555
H13 O3 1_555 1_555
H14 O3 1_555 1_555
C9 O10 1_555 1_555
O10 H18 1_555 1_555
C10 C9 1_555 1_555
H15 C10 1_555 1_555
H16 C10 1_555 1_555
H17 C10 1_555 1_555
O11 C9 1_555 1_555
Er1A O1A 1_555 1_555
O1A Mn1 1_555 1_555
C1A O6A 1_555 1_555
C2A O4A 1_555 1_555
C3A O1A 1_555 1_555
O2A Mn1 1_555 1_555
O3A Er1A 1_555 1_555
O4A Er1A 1_555 1_555
O5A Er1A 1_555 1_555
O6A Er1A 1_555 1_555
C4A C1A 1_555 1_555
H1A C4A 1_555 1_555
H2A C4A 1_555 1_555
H3A C4A 1_555 1_555
O7A Er1A 1_555 1_555
O8A Mn1 1_555 1_555
C5A O2A 1_555 1_555
O9A Er1A 1_555 1_555
C6A C3A 1_555 1_555
H4A C6A 1_555 1_555
H5A C6A 1_555 1_555
H6A C6A 1_555 1_555
C7A C2A 1_555 1_555
H7A C7A 1_555 1_555
H8A C7A 1_555 1_555
H9A C7A 1_555 1_555
C8A C5A 1_555 1_555
H10A C8A 1_555 1_555
H11A C8A 1_555 1_555
H12A C8A 1_555 1_555
H13A O3A 1_555 1_555
H14A O3A 1_555 1_555
Er1_2 O4A 1_555 1_555
Er1A_2 O4 1_555 1_555
O4_2 Er1A 1_555 1_555
O4A_2 Er1 1_555 1_555
Mn1 O2 1_555 1_555
C1 O8 1_555 1_555
C2 O7 1_555 1_555
C5 O9 1_555 1_555
Er1A O2A 1_555 1_555
C1A O8A 1_555 1_555
C2A O7A 1_555 1_555
C3A O5A 1_555 1_555
C5A O9A 1_555 1_555
Er1_2 O4_2 1_555 1_555
Er1A_2 O4A_2 1_555 1_555

#END
