
#######################################################################
#
#                 Cambridge Crystallographic Data Centre
#                                CCDC 
#
#######################################################################
#
# If this CIF has been generated from an entry in the Cambridge 
# Structural Database, then it will include bibliographic, chemical, 
# crystal, experimental, refinement or atomic coordinate data resulting 
# from the CCDC's data processing and validation procedures.
#
#######################################################################

data_UDUNEO
_symmetry_cell_setting           triclinic
_symmetry_space_group_name_H-M   'P -1'
_symmetry_Int_Tables_number      2
_space_group_name_Hall           '-P 1'
loop_
_symmetry_equiv_pos_site_id
_symmetry_equiv_pos_as_xyz
1 x,y,z
2 -x,-y,-z
_cell_length_a                   12.751(2)
_cell_length_b                   13.0367(17)
_cell_length_c                   20.712(3)
_cell_angle_alpha                75.661(10)
_cell_angle_beta                 75.157(11)
_cell_angle_gamma                69.067(11)
_cell_volume                     3061.59
loop_
_atom_site_label
_atom_site_type_symbol
_atom_site_fract_x
_atom_site_fract_y
_atom_site_fract_z
Dy1 Dy -0.10681(8) 0.59171(7) 0.67026(4)
Dy2 Dy -0.60835(8) 1.09343(7) 0.82948(4)
Dy3 Dy -0.86372(8) 1.33068(7) 0.74051(4)
Dy4 Dy -0.35958(8) 0.83408(7) 0.76467(4)
O1 O -0.8053(10) 1.1940(12) 0.8400(7)
O2 O -0.9899(11) 1.2699(15) 0.8392(7)
C1 C -0.894(3) 1.200(2) 0.8651(12)
C2 C -0.935(3) 1.142(3) 0.9411(11)
H1 H -0.9117 1.0627 0.9414
H2 H -0.8920 1.1526 0.9703
C3 C -1.051(3) 1.176(4) 0.9716(17)
H3 H -1.0608 1.1328 1.0163
H4 H -1.0951 1.1636 0.9448
H5 H -1.0751 1.2533 0.9744
O3 O -0.8176(14) 1.1651(11) 0.7040(7)
O4 O -0.6842(15) 1.0416(13) 0.7568(10)
C4 C -0.7582(17) 1.0679(15) 0.7250(11)
C5 C -0.792(4) 0.981(2) 0.711(2)
H6 H -0.8647 1.0176 0.6951
H7 H -0.7368 0.9514 0.6726
C6 C -0.805(5) 0.892(4) 0.7594(18)
H8 H -0.8184 0.8399 0.7398
H9 H -0.8686 0.9177 0.7945
H10 H -0.7367 0.8573 0.7782
O5 O -0.5461(17) 1.2551(12) 0.8015(9)
O6 O -0.6702(16) 1.2914(17) 0.7404(10)
C7 C -0.6045(17) 1.3222(19) 0.7586(11)
C8 C -0.585(3) 1.435(2) 0.7345(17)
H11 H -0.5184 1.4282 0.6988
H12 H -0.6504 1.4871 0.7151
C9 C -0.570(4) 1.482(3) 0.786(2)
H13 H -0.5645 1.5554 0.7678
H14 H -0.5016 1.4354 0.8029
H15 H -0.6345 1.4865 0.8231
O7 O -0.6662(15) 1.1793(16) 0.9288(8)
O8 O -0.5158(17) 1.1809(18) 0.9616(10)
H16 H -0.4835 1.1315 0.9387
C10 C -0.620(3) 1.217(2) 0.9594(12)
C11 C -0.690(3) 1.314(3) 1.0002(19)
H17 H -0.6889 1.2848 1.0480
H18 H -0.6498 1.3694 0.9870
C12 C -0.805(5) 1.369(4) 0.992(3)
H19 H -0.8389 1.4261 1.0202
H20 H -0.8460 1.3164 1.0059
H21 H -0.8070 1.4028 0.9457
O9 O -0.6724(11) 0.9586(13) 0.9151(7)
O10 O -0.5274(12) 0.8844(11) 0.8427(6)
C13 C -0.610(2) 0.8728(17) 0.8971(10)
C14 C -0.607(2) 0.760(2) 0.9333(14)
H22 H -0.5294 0.7158 0.9382
H23 H -0.6535 0.7642 0.9783
C15 C -0.650(4) 0.707(3) 0.8967(18)
H24 H -0.6497 0.6344 0.9216
H25 H -0.6023 0.7004 0.8529
H26 H -0.7267 0.7515 0.8914
O11 O -0.4589(11) 1.0402(10) 0.7415(6)
O12 O -0.358(2) 0.9537(13) 0.6559(7)
C16 C -0.4197(18) 1.0443(16) 0.6751(9)
C17 C -0.464(4) 1.149(2) 0.6282(11)
H27 H -0.4674 1.2116 0.6470
H28 H -0.5410 1.1569 0.6250
C18 C -0.391(4) 1.153(3) 0.5573(16)
H29 H -0.4200 1.2255 0.5306
H30 H -0.3945 1.0970 0.5363
H31 H -0.3136 1.1407 0.5602
O13 O -0.4868(11) 0.7869(13) 0.7163(8)
O14 O -0.3041(11) 0.6960(10) 0.6889(6)
C19 C -0.394(3) 0.7127(18) 0.6842(9)
C20 C -0.426(2) 0.664(3) 0.6309(15)
H32 H -0.3763 0.6756 0.5875
H33 H -0.4100 0.5843 0.6457
C21 C -0.551(2) 0.715(2) 0.6197(15)
H34 H -0.5631 0.6760 0.5896
H35 H -0.5664 0.7921 0.6002
H36 H -0.6022 0.7067 0.6624
O15 O -0.4420(12) 1.0411(10) 0.8794(6)
O16 O -0.2999(11) 0.9045(12) 0.8370(8)
C22 C -0.336(2) 0.9826(17) 0.8695(9)
C23 C -0.255(2) 1.016(3) 0.8922(15)
H37 H -0.2752 1.0959 0.8790
H38 H -0.2722 1.0006 0.9413
C24 C -0.140(5) 0.976(4) 0.875(2)
H39 H -0.1059 0.9992 0.9025
H40 H -0.1171 1.0049 0.8279
H41 H -0.1163 0.8962 0.8814
O17 O -0.3177(12) 0.6694(10) 0.8376(6)
O18 O -0.1808(13) 0.5428(10) 0.7819(6)
C25 C -0.2596(19) 0.5687(18) 0.8327(9)
C26 C -0.292(3) 0.478(2) 0.8847(14)
H42 H -0.2452 0.4594 0.9191
H43 H -0.3700 0.5101 0.9063
C27 C -0.285(4) 0.381(3) 0.870(2)
H44 H -0.3021 0.3312 0.9108
H45 H -0.2087 0.3471 0.8466
H46 H -0.3383 0.3941 0.8411
O19 O -0.1687(15) 0.7857(17) 0.7173(7)
O20 O -0.0444(16) 0.7503(12) 0.6312(8)
C28 C -0.0957(19) 0.8186(19) 0.6697(14)
C29 C -0.058(6) 0.924(3) 0.650(2)
H47 H -0.1251 0.9871 0.6602
H48 H -0.0066 0.9162 0.6798
C30 C -0.007(7) 0.950(6) 0.587(3)
H49 H 0.0049 1.0210 0.5815
H50 H -0.0545 0.9553 0.5565
H51 H 0.0651 0.8940 0.5778
O21 O 0.0418(13) 0.5380(10) 0.7279(8)
O22 O 0.1194(16) 0.4568(14) 0.8140(9)
C31 C 0.072(2) 0.5335(19) 0.7862(10)
C32 C 0.028(2) 0.651(2) 0.8106(14)
H52 H 0.0461 0.7064 0.7728
H53 H -0.0549 0.6726 0.8241
C33 C 0.078(3) 0.649(2) 0.8689(14)
H54 H 0.0477 0.7217 0.8820
H55 H 0.1600 0.6312 0.8553
H56 H 0.0604 0.5947 0.9066
O23 O -0.0272(11) 0.3823(11) 0.6969(6)
O24 O -0.1803(12) 0.4585(10) 0.6527(7)
C34 C -0.1119(16) 0.3732(14) 0.6783(8)
C35 C -0.1226(19) 0.2574(18) 0.6895(16)
H57 H -0.0634 0.2164 0.6569
H58 H -0.1073 0.2194 0.7343
C36 C -0.227(3) 0.251(2) 0.684(2)
H59 H -0.2243 0.1747 0.6934
H60 H -0.2416 0.2845 0.6393
H61 H -0.2867 0.2908 0.7165
O25 O -0.1611(13) 0.6763(13) 0.5591(7)
O26 O -0.0050(17) 0.6814(18) 0.4841(8)
H62 H 0.0276 0.6275 0.5100
C37 C -0.121(2) 0.7125(17) 0.5090(12)
C38 C -0.184(2) 0.812(3) 0.4576(11)
H63 H -0.1509 0.8718 0.4493
H64 H -0.1703 0.7874 0.4149
C39 C -0.308(5) 0.856(3) 0.4817(19)
H65 H -0.3409 0.9181 0.4491
H66 H -0.3220 0.8795 0.5244
H67 H -0.3418 0.7985 0.4874
O27 O 0.0600(14) 0.5353(12) 0.5844(6)
O28 O 0.1980(12) 0.3958(12) 0.6254(6)
C40 C 0.1614(18) 0.4759(16) 0.5835(9)
C41 C 0.245(2) 0.501(2) 0.5210(13)
H68 H 0.2620 0.4435 0.4943
H69 H 0.2048 0.5705 0.4952
C42 C 0.337(6) 0.509(8) 0.5238(18)
H70 H 0.3807 0.5191 0.4788
H71 H 0.3791 0.4418 0.5501
H72 H 0.3238 0.5713 0.5448
Dy3_2 Dy 0.13628(8) 0.33068(7) 0.74051(4)
O21_2 O -0.9582(13) 1.5380(10) 0.7279(8)
O22_2 O -0.8806(16) 1.4568(14) 0.8140(9)
O23_2 O -1.0272(11) 1.3823(11) 0.6969(6)
O28_2 O -0.8020(12) 1.3958(12) 0.6254(6)
loop_
_geom_bond_atom_site_label_1
_geom_bond_atom_site_label_2
_geom_bond_site_symmetry_1
_geom_bond_site_symmetry_2
Dy1 O14 1_555 1_555
Dy2 O1 1_555 1_555
Dy3 O1 1_555 1_555
Dy4 O10 1_555 1_555
O1 C1 1_555 1_555
O2 Dy3 1_555 1_555
C1 O2 1_555 1_555
C2 C1 1_555 1_555
H1 C2 1_555 1_555
H2 C2 1_555 1_555
C3 C2 1_555 1_555
H3 C3 1_555 1_555
H4 C3 1_555 1_555
H5 C3 1_555 1_555
O3 Dy3 1_555 1_555
O4 Dy2 1_555 1_555
C4 O3 1_555 1_555
C5 C4 1_555 1_555
H6 C5 1_555 1_555
H7 C5 1_555 1_555
C6 C5 1_555 1_555
H8 C6 1_555 1_555
H9 C6 1_555 1_555
H10 C6 1_555 1_555
O5 Dy2 1_555 1_555
O6 Dy2 1_555 1_555
C7 O5 1_555 1_555
C8 C7 1_555 1_555
H11 C8 1_555 1_555
H12 C8 1_555 1_555
C9 C8 1_555 1_555
H13 C9 1_555 1_555
H14 C9 1_555 1_555
H15 C9 1_555 1_555
O7 Dy2 1_555 1_555
O8 H16 1_555 1_555
C10 O7 1_555 1_555
C11 C10 1_555 1_555
H17 C11 1_555 1_555
H18 C11 1_555 1_555
C12 C11 1_555 1_555
H19 C12 1_555 1_555
H20 C12 1_555 1_555
H21 C12 1_555 1_555
O9 Dy2 1_555 1_555
O10 Dy2 1_555 1_555
C13 O9 1_555 1_555
C14 C13 1_555 1_555
H22 C14 1_555 1_555
H23 C14 1_555 1_555
C15 C14 1_555 1_555
H24 C15 1_555 1_555
H25 C15 1_555 1_555
H26 C15 1_555 1_555
O11 Dy2 1_555 1_555
O12 Dy4 1_555 1_555
C16 O11 1_555 1_555
C17 C16 1_555 1_555
H27 C17 1_555 1_555
H28 C17 1_555 1_555
C18 C17 1_555 1_555
H29 C18 1_555 1_555
H30 C18 1_555 1_555
H31 C18 1_555 1_555
O13 Dy4 1_555 1_555
O14 Dy4 1_555 1_555
C19 O13 1_555 1_555
C20 C19 1_555 1_555
H32 C20 1_555 1_555
H33 C20 1_555 1_555
C21 C20 1_555 1_555
H34 C21 1_555 1_555
H35 C21 1_555 1_555
H36 C21 1_555 1_555
O15 Dy2 1_555 1_555
O16 Dy4 1_555 1_555
C22 O15 1_555 1_555
C23 C22 1_555 1_555
H37 C23 1_555 1_555
H38 C23 1_555 1_555
C24 C23 1_555 1_555
H39 C24 1_555 1_555
H40 C24 1_555 1_555
H41 C24 1_555 1_555
O17 Dy4 1_555 1_555
O18 Dy1 1_555 1_555
C25 O17 1_555 1_555
C26 C25 1_555 1_555
H42 C26 1_555 1_555
H43 C26 1_555 1_555
C27 C26 1_555 1_555
H44 C27 1_555 1_555
H45 C27 1_555 1_555
H46 C27 1_555 1_555
O19 Dy1 1_555 1_555
O20 Dy1 1_555 1_555
C28 O19 1_555 1_555
C29 C28 1_555 1_555
H47 C29 1_555 1_555
H48 C29 1_555 1_555
C30 C29 1_555 1_555
H49 C30 1_555 1_555
H50 C30 1_555 1_555
H51 C30 1_555 1_555
O21 Dy1 1_555 1_555
O22 C31 1_555 1_555
C31 O21 1_555 1_555
C32 C31 1_555 1_555
H52 C32 1_555 1_555
H53 C32 1_555 1_555
C33 C32 1_555 1_555
H54 C33 1_555 1_555
H55 C33 1_555 1_555
H56 C33 1_555 1_555
O23 Dy1 1_555 1_555
O24 Dy1 1_555 1_555
C34 O23 1_555 1_555
C35 C34 1_555 1_555
H57 C35 1_555 1_555
H58 C35 1_555 1_555
C36 C35 1_555 1_555
H59 C36 1_555 1_555
H60 C36 1_555 1_555
H61 C36 1_555 1_555
O25 Dy1 1_555 1_555
O26 H62 1_555 1_555
C37 O25 1_555 1_555
C38 C37 1_555 1_555
H63 C38 1_555 1_555
H64 C38 1_555 1_555
C39 C38 1_555 1_555
H65 C39 1_555 1_555
H66 C39 1_555 1_555
H67 C39 1_555 1_555
O27 Dy1 1_555 1_555
O28 C40 1_555 1_555
C40 O27 1_555 1_555
C41 C40 1_555 1_555
H68 C41 1_555 1_555
H69 C41 1_555 1_555
C42 C41 1_555 1_555
H70 C42 1_555 1_555
H71 C42 1_555 1_555
H72 C42 1_555 1_555
Dy3_2 O21 1_555 1_555
O21_2 Dy3 1_555 1_555
O22_2 Dy3 1_555 1_555
O23_2 Dy3 1_555 1_555
O28_2 Dy3 1_555 1_555
Dy3 O6 1_555 1_555
Dy4 O11 1_555 1_555
Dy4 O19 1_555 1_555
O4 C4 1_555 1_555
O6 C7 1_555 1_555
O8 C10 1_555 1_555
O10 C13 1_555 1_555
O12 C16 1_555 1_555
O14 C19 1_555 1_555
O16 C22 1_555 1_555
O18 C25 1_555 1_555
O20 C28 1_555 1_555
O22 Dy3_2 1_555 1_555
O23 Dy3_2 1_555 1_555
O24 C34 1_555 1_555
O26 C37 1_555 1_555
O28 Dy3_2 1_555 1_555

#END
