
#######################################################################
#
#                 Cambridge Crystallographic Data Centre
#                                CCDC 
#
#######################################################################
#
# If this CIF has been generated from an entry in the Cambridge 
# Structural Database, then it will include bibliographic, chemical, 
# crystal, experimental, refinement or atomic coordinate data resulting 
# from the CCDC's data processing and validation procedures.
#
#######################################################################

data_UDUPAM
_symmetry_cell_setting           monoclinic
_symmetry_space_group_name_H-M   'P 21/n'
_symmetry_Int_Tables_number      14
_space_group_name_Hall           '-P 2yn'
loop_
_symmetry_equiv_pos_site_id
_symmetry_equiv_pos_as_xyz
1 x,y,z
2 1/2-x,1/2+y,1/2-z
3 -x,-y,-z
4 1/2+x,1/2-y,1/2+z
_cell_length_a                   11.4736(4)
_cell_length_b                   22.6480(8)
_cell_length_c                   22.7920(8)
_cell_angle_alpha                90
_cell_angle_beta                 95.317(3)
_cell_angle_gamma                90
_cell_volume                     5897.11
loop_
_atom_site_label
_atom_site_type_symbol
_atom_site_fract_x
_atom_site_fract_y
_atom_site_fract_z
Eu1 Eu 0.53427(2) 0.068629(10) 0.766516(12)
Eu2 Eu 0.83824(2) 0.387267(10) 0.786370(12)
Eu3 Eu 0.64188(2) 0.229057(10) 0.824115(12)
O1 O 0.7819(3) 0.31877(15) 0.85827(17)
O2 O 0.6376(3) 0.29342(15) 0.91017(17)
O3 O 0.5695(3) 0.17452(14) 0.73778(15)
O4 O 0.4474(3) 0.12240(15) 0.68004(16)
O5 O 0.5388(3) -0.00016(16) 0.84333(16)
O6 O 0.6775(3) 0.11719(14) 0.83185(15)
O7 O 0.4656(3) 0.19985(16) 0.85509(17)
O8 O 0.7434(3) 0.17355(15) 0.90513(16)
O9 O 0.6832(3) 0.04177(18) 0.71251(18)
O10 O 0.3980(3) 0.11330(15) 0.81993(17)
O11 O 0.7257(3) -0.03561(16) 0.65937(19)
O12 O 0.5421(3) 0.30369(16) 0.77300(18)
O13 O 0.8048(3) 0.21974(16) 0.77416(18)
O14 O 0.4213(3) -0.00232(15) 0.71594(17)
O15 O 0.4732(3) -0.08880(16) 0.68136(18)
O16 O 0.6241(3) -0.07364(18) 0.80051(17)
O17 O 0.6502(3) 0.3789(2) 0.7499(2)
O18 O 0.8986(4) 0.29963(16) 0.7522(2)
C1 C 0.7554(4) 0.0586(2) 0.6198(2)
C2 C 1.0721(7) 0.1142(3) 0.7208(4)
H1 H 1.0663 0.0732 0.7200
C3 C 0.2741(4) -0.0615(2) 0.6655(2)
C4 C 0.4495(4) 0.3828(2) 0.7195(2)
C5 C 0.7894(8) 0.1542(3) 0.5817(4)
H2 H 0.7886 0.1950 0.5863
C6 C 0.8920(4) 0.2452(2) 0.7566(2)
C7 C 0.9900(4) 0.2084(2) 0.7386(2)
C8 C 0.2730(4) 0.1718(2) 0.8724(2)
C9 C 0.7812(4) 0.0706(2) 0.9147(2)
C10 C 0.5546(5) 0.3530(2) 0.7495(2)
C11 C 0.5410(8) -0.1859(3) 0.9370(4)
H3 H 0.5444 -0.2267 0.9334
C12 C 0.5569(4) -0.0909(2) 0.8941(2)
C13 C 0.5018(4) 0.2168(2) 0.6446(2)
C14 C 0.7794(5) 0.3602(2) 0.9545(3)
C15 C 0.3976(4) -0.0499(2) 0.6894(2)
C16 C 0.9369(9) 0.4160(4) 1.0044(5)
H4 H 1.0141 0.4290 1.0066
C17 C 0.7327(4) 0.1231(2) 0.8828(2)
C18 C 0.5738(4) -0.0524(2) 0.8432(3)
C19 C 0.3868(4) 0.1608(2) 0.8478(2)
C20 C 0.7179(4) 0.0192(2) 0.6668(3)
C21 C 0.5045(4) 0.1692(2) 0.6890(2)
C22 C 0.5648(6) -0.1512(3) 0.8900(3)
H5 H 0.5861 -0.1685 0.8556
C23 C 0.7293(5) 0.3223(2) 0.9057(2)
C24 C 0.4100(6) 0.2203(3) 0.6007(3)
H6 H 0.3517 0.1916 0.5983
C25 C 0.7946(5) 0.0700(3) 0.9747(3)
H7 H 0.7797 0.1039 0.9958
C26 C 0.5243(5) -0.0674(3) 0.9461(3)
H8 H 0.5156 -0.0268 0.9492
C27 C 0.8225(8) 0.1303(4) 0.5314(4)
H9 H 0.8456 0.1547 0.5018
C28 C 0.7085(6) 0.3766(3) 0.9985(3)
H10 H 0.6319 0.3628 0.9972
C29 C 0.5862(7) 0.3026(3) 0.6039(3)
H11 H 0.6463 0.3303 0.6047
C30 C 0.7570(6) 0.1183(3) 0.6262(3)
H12 H 0.7360 0.1350 0.6610
C31 C 0.8113(4) 0.0210(2) 0.8842(3)
H13 H 0.8027 0.0211 0.8433
C32 C 0.4044(7) 0.2660(3) 0.5602(3)
H14 H 0.3406 0.2693 0.5321
C33 C 0.7878(5) 0.0346(3) 0.5678(3)
H15 H 0.7862 -0.0061 0.5624
C34 C 0.0798(5) -0.0260(3) 0.6400(3)
H16 H 0.0269 0.0052 0.6364
C35 C 0.1944(4) -0.0163(2) 0.6619(3)
H17 H 0.2178 0.0213 0.6745
C36 C 0.4943(8) 0.3067(3) 0.5619(3)
H18 H 0.4920 0.3369 0.5343
C37 C 0.5044(7) -0.1026(4) 0.9934(3)
H19 H 0.4854 -0.0858 1.0285
C38 C 0.8222(8) 0.0709(3) 0.5240(3)
H20 H 0.8452 0.0546 0.4894
C39 C 0.5912(5) 0.2581(2) 0.6453(3)
H21 H 0.6547 0.2557 0.6737
C40 C 0.9807(5) 0.1481(2) 0.7385(3)
H22 H 0.9138 0.1300 0.7502
C41 C 1.0907(5) 0.2337(3) 0.7252(4)
H23 H 1.0991 0.2745 0.7271
C42 C 0.4557(6) 0.4414(3) 0.7056(3)
H24 H 0.5249 0.4622 0.7147
C43 C 0.2366(5) -0.1165(2) 0.6481(3)
H25 H 0.2890 -0.1479 0.6498
C44 C 0.1889(5) 0.1312(3) 0.8698(3)
H26 H 0.2025 0.0943 0.8538
C45 C 0.5130(8) -0.1623(4) 0.9881(4)
H27 H 0.4996 -0.1866 1.0196
C46 C 0.1191(5) -0.1256(3) 0.6277(3)
H28 H 0.0935 -0.1634 0.6169
C47 C 0.8540(5) -0.0287(3) 0.9137(4)
H29 H 0.8784 -0.0610 0.8927
C48 C 0.7519(11) 0.4130(4) 1.0436(3)
H30 H 0.7040 0.4249 1.0722
C49 C 0.0446(5) -0.0814(3) 0.6237(3)
H31 H -0.0329 -0.0881 0.6096
C50 C 0.0572(6) 0.1948(4) 0.9121(4)
H32 H -0.0173 0.2036 0.9226
C51 C 0.8311(7) 0.0179(4) 1.0048(3)
H33 H 0.8355 0.0162 1.0457
C52 C 0.2521(6) 0.2236(3) 0.9002(4)
H34 H 0.3116 0.2513 0.9070
C53 C 0.8675(13) 0.4320(4) 1.0464(4)
H35 H 0.8972 0.4559 1.0774
C54 C 0.8929(6) 0.3796(3) 0.9574(3)
H36 H 0.9407 0.3688 0.9284
C55 C 0.2517(6) 0.3827(4) 0.6771(4)
H37 H 0.1826 0.3621 0.6671
C56 C 0.8601(6) -0.0304(4) 0.9726(4)
H38 H 0.8845 -0.0650 0.9922
C57 C 1.1818(6) 0.1989(4) 0.7087(5)
H39 H 1.2515 0.2166 0.7003
C58 C 0.3483(5) 0.3535(3) 0.7058(3)
H40 H 0.3426 0.3137 0.7154
C59 C 0.0804(6) 0.1430(4) 0.8909(4)
H41 H 0.0239 0.1134 0.8897
C60 C 0.2579(7) 0.4391(5) 0.6641(3)
H42 H 0.1929 0.4581 0.6454
C61 C 1.1708(6) 0.1414(3) 0.7047(4)
H43 H 1.2304 0.1190 0.6908
C62 C 0.3580(9) 0.4699(3) 0.6777(4)
H44 H 0.3615 0.5098 0.6685
C63 C 0.1431(8) 0.2349(4) 0.9183(5)
H45 H 0.1289 0.2713 0.9353
Eu2A Eu 0.66176(2) -0.112733(10) 0.713630(12)
O11A O 0.7743(3) 0.46439(16) 0.84063(19)
O15A O 1.0268(3) 0.41120(16) 0.81864(18)
O16A O 0.8759(3) 0.42636(18) 0.69949(17)
loop_
_geom_bond_atom_site_label_1
_geom_bond_atom_site_label_2
_geom_bond_site_symmetry_1
_geom_bond_site_symmetry_2
Eu1 O3 1_555 1_555
Eu2 O1 1_555 1_555
Eu3 O1 1_555 1_555
O1 C23 1_555 1_555
O2 Eu3 1_555 1_555
O3 Eu3 1_555 1_555
O4 Eu1 1_555 1_555
O5 Eu1 1_555 1_555
O6 Eu1 1_555 1_555
O7 Eu3 1_555 1_555
O8 Eu3 1_555 1_555
O9 Eu1 1_555 1_555
O10 Eu1 1_555 1_555
O11 C20 1_555 1_555
O12 Eu3 1_555 1_555
O13 Eu3 1_555 1_555
O14 Eu1 1_555 1_555
O15 C15 1_555 1_555
O16 C18 1_555 1_555
O17 Eu2 1_555 1_555
O18 Eu2 1_555 1_555
C1 C20 1_555 1_555
C2 H1 1_555 1_555
C3 C15 1_555 1_555
C4 C10 1_555 1_555
C5 H2 1_555 1_555
C6 O13 1_555 1_555
C7 C6 1_555 1_555
C8 C19 1_555 1_555
C9 C17 1_555 1_555
C10 O12 1_555 1_555
C11 H3 1_555 1_555
C12 C18 1_555 1_555
C13 C21 1_555 1_555
C14 C23 1_555 1_555
C15 O14 1_555 1_555
C16 H4 1_555 1_555
C17 O6 1_555 1_555
C18 O5 1_555 1_555
C19 O7 1_555 1_555
C20 O9 1_555 1_555
C21 O3 1_555 1_555
C22 C11 1_555 1_555
H5 C22 1_555 1_555
C23 O2 1_555 1_555
C24 C13 1_555 1_555
H6 C24 1_555 1_555
C25 C9 1_555 1_555
H7 C25 1_555 1_555
C26 C12 1_555 1_555
H8 C26 1_555 1_555
C27 C5 1_555 1_555
H9 C27 1_555 1_555
C28 C14 1_555 1_555
H10 C28 1_555 1_555
C29 H11 1_555 1_555
C30 C1 1_555 1_555
H12 C30 1_555 1_555
C31 C9 1_555 1_555
H13 C31 1_555 1_555
C32 C24 1_555 1_555
H14 C32 1_555 1_555
C33 C1 1_555 1_555
H15 C33 1_555 1_555
C34 H16 1_555 1_555
C35 C3 1_555 1_555
H17 C35 1_555 1_555
C36 C29 1_555 1_555
H18 C36 1_555 1_555
C37 C26 1_555 1_555
H19 C37 1_555 1_555
C38 C27 1_555 1_555
H20 C38 1_555 1_555
C39 C13 1_555 1_555
H21 C39 1_555 1_555
C40 C2 1_555 1_555
H22 C40 1_555 1_555
C41 C7 1_555 1_555
H23 C41 1_555 1_555
C42 C4 1_555 1_555
H24 C42 1_555 1_555
C43 C3 1_555 1_555
H25 C43 1_555 1_555
C44 C8 1_555 1_555
H26 C44 1_555 1_555
C45 C11 1_555 1_555
H27 C45 1_555 1_555
C46 C43 1_555 1_555
H28 C46 1_555 1_555
C47 C31 1_555 1_555
H29 C47 1_555 1_555
C48 C28 1_555 1_555
H30 C48 1_555 1_555
C49 C34 1_555 1_555
H31 C49 1_555 1_555
C50 H32 1_555 1_555
C51 C25 1_555 1_555
H33 C51 1_555 1_555
C52 C8 1_555 1_555
H34 C52 1_555 1_555
C53 C16 1_555 1_555
H35 C53 1_555 1_555
C54 C14 1_555 1_555
H36 C54 1_555 1_555
C55 H37 1_555 1_555
C56 C47 1_555 1_555
H38 C56 1_555 1_555
C57 C41 1_555 1_555
H39 C57 1_555 1_555
C58 C4 1_555 1_555
H40 C58 1_555 1_555
C59 C44 1_555 1_555
H41 C59 1_555 1_555
C60 C55 1_555 1_555
H42 C60 1_555 1_555
C61 C2 1_555 1_555
H43 C61 1_555 1_555
C62 C42 1_555 1_555
H44 C62 1_555 1_555
C63 C50 1_555 1_555
H45 C63 1_555 1_555
Eu2A O11 1_555 1_555
O11A Eu2 1_555 1_555
O15A Eu2 1_555 1_555
O16A Eu2 1_555 1_555
Eu3 O6 1_555 1_555
O4 C21 1_555 1_555
O8 C17 1_555 1_555
O10 C19 1_555 1_555
O15 Eu2A 1_555 1_555
O16 Eu2A 1_555 1_555
O17 C10 1_555 1_555
O18 C6 1_555 1_555
C5 C30 1_555 1_555
C7 C40 1_555 1_555
C12 C22 1_555 1_555
C16 C54 1_555 1_555
C29 C39 1_555 1_555
C32 C36 1_555 1_555
C33 C38 1_555 1_555
C34 C35 1_555 1_555
C37 C45 1_555 1_555
C46 C49 1_555 1_555
C48 C53 1_555 1_555
C50 C59 1_555 1_555
C51 C56 1_555 1_555
C52 C63 1_555 1_555
C55 C58 1_555 1_555
C57 C61 1_555 1_555
C60 C62 1_555 1_555

#END
