
#######################################################################
#
#                 Cambridge Crystallographic Data Centre
#                                CCDC 
#
#######################################################################
#
# If this CIF has been generated from an entry in the Cambridge 
# Structural Database, then it will include bibliographic, chemical, 
# crystal, experimental, refinement or atomic coordinate data resulting 
# from the CCDC's data processing and validation procedures.
#
#######################################################################

data_UFACAG
_symmetry_cell_setting           triclinic
_symmetry_space_group_name_H-M   'P -1'
_symmetry_Int_Tables_number      2
_space_group_name_Hall           '-P 1'
loop_
_symmetry_equiv_pos_site_id
_symmetry_equiv_pos_as_xyz
1 x,y,z
2 -x,-y,-z
_cell_length_a                   6.4168(4)
_cell_length_b                   8.0919(4)
_cell_length_c                   10.1493(7)
_cell_angle_alpha                113.184(1)
_cell_angle_beta                 99.946(3)
_cell_angle_gamma                98.995(2)
_cell_volume                     462.276
loop_
_atom_site_label
_atom_site_type_symbol
_atom_site_fract_x
_atom_site_fract_y
_atom_site_fract_z
Co1 Co 0.20196(5) 0.75115(5) 0.80493(3)
O1 O 0.3334(3) 0.7587(3) 1.0043(2)
O2 O 0.0480(3) 0.7490(3) 1.1034(2)
O3 O 0.1649(3) 0.7498(3) 1.5963(2)
O4 O 0.4927(3) 0.7870(3) 1.7282(2)
O5 O 0.2461(3) 1.0316(3) 0.9070(2)
O6 O -0.1152(3) 0.7068(3) 0.8195(2)
N1 N 0.8599(4) 0.5408(3) 1.2931(2)
H1 H 0.9255 0.5820 1.2341
H2 H 0.9611 0.5845 1.3828
C1 C 0.6858(4) 0.6275(4) 1.3193(3)
C2 C 0.5634(4) 0.6589(4) 1.2093(3)
H3 H 0.6017 0.6282 1.1177
C3 C 0.3855(4) 0.7345(4) 1.2307(3)
C4 C 0.3292(4) 0.7804(4) 1.3655(3)
H4 H 0.2093 0.8344 1.3818
C5 C 0.4502(4) 0.7464(4) 1.4759(3)
C6 C 0.6295(4) 0.6733(4) 1.4544(3)
H5 H 0.7143 0.6544 1.5313
C7 C 0.2434(4) 0.7523(3) 1.1053(3)
C8 C 0.3681(4) 0.7655(4) 1.6082(3)
H6 H 0.150(7) 1.097(6) 0.873(5)
H7 H 0.373(9) 1.097(7) 0.930(6)
H8 H -0.227(7) 0.764(6) 0.792(5)
H9 H -0.093(8) 0.719(6) 0.910(5)
Co1_2 Co 0.20196(5) 0.75115(5) 1.80493(3)
Co1A Co 0.79804(5) 0.24885(5) 1.19507(3)
O3_2 O 0.1649(3) 0.7498(3) 0.5963(2)
O4_2 O 0.4927(3) 0.7870(3) 0.7282(2)
N1A N 0.1401(4) 0.4592(3) 0.7069(2)
H1A H 0.0745 0.4180 0.7659
H2A H 0.0389 0.4155 0.6172
loop_
_geom_bond_atom_site_label_1
_geom_bond_atom_site_label_2
_geom_bond_site_symmetry_1
_geom_bond_site_symmetry_2
Co1 O1 1_555 1_555
O1 C7 1_555 1_555
O2 C7 1_555 1_555
O3 C8 1_555 1_555
O4 C8 1_555 1_555
O5 Co1 1_555 1_555
O6 Co1 1_555 1_555
N1 H1 1_555 1_555
H2 N1 1_555 1_555
C1 N1 1_555 1_555
C2 C1 1_555 1_555
H3 C2 1_555 1_555
C3 C2 1_555 1_555
C4 C3 1_555 1_555
H4 C4 1_555 1_555
C5 C4 1_555 1_555
C6 C1 1_555 1_555
H5 C6 1_555 1_555
C7 C3 1_555 1_555
C8 C5 1_555 1_555
H6 O5 1_555 1_555
H7 O5 1_555 1_555
H8 O6 1_555 1_555
H9 O6 1_555 1_555
Co1_2 O3 1_555 1_555
Co1A N1 1_555 1_555
O3_2 Co1 1_555 1_555
O4_2 Co1 1_555 1_555
N1A Co1 1_555 1_555
H1A N1A 1_555 1_555
H2A N1A 1_555 1_555
O4 Co1_2 1_555 1_555
C5 C6 1_555 1_555

#END
