
#######################################################################
#
#                 Cambridge Crystallographic Data Centre
#                                CCDC 
#
#######################################################################
#
# If this CIF has been generated from an entry in the Cambridge 
# Structural Database, then it will include bibliographic, chemical, 
# crystal, experimental, refinement or atomic coordinate data resulting 
# from the CCDC's data processing and validation procedures.
#
#######################################################################

data_UFADOV
_symmetry_cell_setting           monoclinic
_symmetry_space_group_name_H-M   'P 21/c'
_symmetry_Int_Tables_number      14
_space_group_name_Hall           '-P 2ybc'
loop_
_symmetry_equiv_pos_site_id
_symmetry_equiv_pos_as_xyz
1 x,y,z
2 -x,1/2+y,1/2-z
3 -x,-y,-z
4 x,1/2-y,1/2+z
_cell_length_a                   14.096(3)
_cell_length_b                   13.614(3)
_cell_length_c                   14.781(3)
_cell_angle_alpha                90
_cell_angle_beta                 114.53(3)
_cell_angle_gamma                90
_cell_volume                     2580.5
loop_
_atom_site_label
_atom_site_type_symbol
_atom_site_fract_x
_atom_site_fract_y
_atom_site_fract_z
Zn1 Zn 0.0000 0.5000 0.5000
Zn2 Zn -0.42512(3) -0.01650(3) 0.32550(4)
Zn3 Zn 0.05811(3) 0.60169(3) 0.27190(3)
Br1 Br -0.50694(3) 0.03530(3) 0.15671(4)
Br2 Br -0.02848(3) 0.54039(3) 0.11049(3)
O1 O -0.03829(18) 0.68376(18) 0.3020(2)
O2 O -0.10618(19) 0.56955(18) 0.3646(2)
O3 O -0.4360(2) 0.1908(2) 0.3990(3)
O4 O -0.32061(18) 0.07798(18) 0.4031(2)
O5 O -0.51221(19) -0.09748(19) 0.3679(2)
O6 O -0.6266(2) 0.0190(2) 0.3589(3)
O7 O 0.07644(19) 0.40797(18) 0.4283(2)
O8 O 0.15352(19) 0.49998(18) 0.3529(2)
N1 N -0.3216(2) 0.8718(2) 0.3338(2)
N2 N -0.1145(2) 0.3882(2) 0.4622(2)
N3 N -0.8323(2) -0.2916(2) 0.2982(2)
N4 N 0.3694(2) 0.2063(2) 0.4284(3)
H1 H 0.4172 0.1632 0.4369
C1 C -0.3497(3) 0.7771(2) 0.3181(3)
H2 H -0.4179 0.7602 0.3060
C2 C -0.2817(3) 0.7034(2) 0.3190(3)
H3 H -0.3031 0.6381 0.3099
C3 C -0.1811(2) 0.7288(2) 0.3338(3)
C4 C -0.1525(3) 0.8267(3) 0.3487(3)
H4 H -0.0858 0.8458 0.3580
C5 C -0.2234(3) 0.8955(2) 0.3498(3)
H5 H -0.2026 0.9608 0.3620
C6 C -0.1033(2) 0.6535(2) 0.3341(3)
C7 C -0.2650(2) 0.2425(2) 0.4292(3)
C8 C -0.1620(3) 0.2180(2) 0.4520(3)
H6 H -0.1416 0.1525 0.4569
C9 C -0.0904(3) 0.2923(2) 0.4674(3)
H7 H -0.0217 0.2751 0.4821
C10 C -0.2148(3) 0.4110(2) 0.4362(3)
H8 H -0.2339 0.4769 0.4283
C11 C -0.2909(3) 0.3415(3) 0.4205(3)
H9 H -0.3593 0.3608 0.4041
C12 C -0.3486(3) 0.1654(3) 0.4097(3)
C13 C 0.2260(2) 0.3467(2) 0.4124(3)
C14 C 0.2064(3) 0.2487(2) 0.4237(3)
H10 H 0.1442 0.2303 0.4267
C15 C 0.2793(3) 0.1791(3) 0.4305(3)
H11 H 0.2660 0.1131 0.4366
C16 C 0.3927(3) 0.3009(3) 0.4220(3)
H12 H 0.4573 0.3177 0.4236
C17 C 0.3216(3) 0.3721(3) 0.4132(3)
H13 H 0.3372 0.4376 0.4078
C18 C 0.1439(2) 0.4238(2) 0.3974(3)
C19 C -0.7326(3) -0.3143(3) 0.3206(3)
H14 H -0.7144 -0.3801 0.3220
C20 C -0.6564(3) -0.2445(3) 0.3415(3)
H15 H -0.5879 -0.2630 0.3568
C21 C -0.6821(3) -0.1466(2) 0.3394(3)
C22 C -0.7851(3) -0.1226(3) 0.3152(3)
H16 H -0.8054 -0.0572 0.3125
C23 C -0.8569(3) -0.1968(3) 0.2953(3)
H17 H -0.9261 -0.1801 0.2790
C24 C -0.6007(3) -0.0667(3) 0.3577(3)
Zn2B Zn 0.42512(3) 1.01650(3) 0.67450(4)
Zn2_2 Zn -0.42512(3) 0.98350(3) 0.32550(4)
Zn2B_2 Zn 0.42512(3) 0.01650(3) 0.67450(4)
Zn2_3 Zn 0.57488(3) 0.98350(3) 0.32550(4)
Zn3B Zn -0.05811(3) 0.39831(3) 0.72810(3)
Zn3_2 Zn -0.94189(3) -0.39831(3) 0.27190(3)
Br1B Br 0.50694(3) 0.96470(3) 0.84329(4)
Br2B Br 0.02848(3) 0.45961(3) 0.88951(3)
O1B O 0.03829(18) 0.31624(18) 0.6980(2)
O2B O 0.10618(19) 0.43045(18) 0.6354(2)
O3B O 0.4360(2) 0.8092(2) 0.6010(3)
O4B O 0.32061(18) 0.92202(18) 0.5969(2)
O5_2 O 0.48779(19) 0.90252(19) 0.3679(2)
O5B O 0.51221(19) 1.09748(19) 0.6321(2)
O6_2 O 0.3734(2) 1.0190(2) 0.3589(3)
O7B O -0.07644(19) 0.59203(18) 0.5717(2)
O8B O -0.15352(19) 0.50002(18) 0.6471(2)
N1B N 0.3216(2) 0.1282(2) 0.6662(2)
N1_2 N -0.3216(2) -0.1282(2) 0.3338(2)
N1B_2 N 0.3216(2) 1.1282(2) 0.6662(2)
N2B N 0.1145(2) 0.6118(2) 0.5378(2)
N3_2 N 0.1677(2) 0.7084(2) 0.2982(2)
N3B N -0.1677(2) 0.2916(2) 0.7018(2)
N4B N -0.3694(2) 0.7937(2) 0.5716(3)
H1B H -0.4172 0.8368 0.5631
C1B C 0.3497(3) 0.2229(2) 0.6819(3)
H2B H 0.4179 0.2398 0.6940
C2B C 0.2817(3) 0.2966(2) 0.6810(3)
H3B H 0.3031 0.3619 0.6901
C3B C 0.1811(2) 0.2712(2) 0.6662(3)
C4B C 0.1525(3) 0.1733(3) 0.6513(3)
H4B H 0.0858 0.1542 0.6420
C5B C 0.2234(3) 0.1045(2) 0.6502(3)
H5B H 0.2026 0.0392 0.6380
C6B C 0.1033(2) 0.3465(2) 0.6659(3)
C7B C 0.2650(2) 0.7575(2) 0.5708(3)
C8B C 0.1620(3) 0.7820(2) 0.5480(3)
H6B H 0.1416 0.8475 0.5431
C9B C 0.0904(3) 0.7077(2) 0.5326(3)
H7B H 0.0217 0.7249 0.5179
C10B C 0.2148(3) 0.5890(2) 0.5638(3)
H8B H 0.2339 0.5231 0.5717
C11B C 0.2909(3) 0.6585(3) 0.5795(3)
H9B H 0.3593 0.6392 0.5959
C12B C 0.3486(3) 0.8346(3) 0.5903(3)
C13B C -0.2260(2) 0.6533(2) 0.5876(3)
C14B C -0.2064(3) 0.7513(2) 0.5763(3)
H10B H -0.1442 0.7697 0.5733
C15B C -0.2793(3) 0.8209(3) 0.5695(3)
H11B H -0.2660 0.8869 0.5634
C16B C -0.3927(3) 0.6991(3) 0.5780(3)
H12B H -0.4573 0.6823 0.5764
C17B C -0.3216(3) 0.6279(3) 0.5868(3)
H13B H -0.3372 0.5624 0.5922
C18B C -0.1439(2) 0.5762(2) 0.6026(3)
C19_2 C 0.2674(3) 0.6857(3) 0.3206(3)
H14_2 H 0.2856 0.6199 0.3220
C20_2 C 0.3436(3) 0.7555(3) 0.3415(3)
H15_2 H 0.4121 0.7370 0.3568
C21_2 C 0.3179(3) 0.8534(2) 0.3394(3)
C22_2 C 0.2149(3) 0.8774(3) 0.3152(3)
H16_2 H 0.1946 0.9428 0.3125
C23_2 C 0.1431(3) 0.8032(3) 0.2953(3)
H17_2 H 0.0739 0.8199 0.2790
C24_2 C 0.3993(3) 0.9333(3) 0.3577(3)
loop_
_geom_bond_atom_site_label_1
_geom_bond_atom_site_label_2
_geom_bond_site_symmetry_1
_geom_bond_site_symmetry_2
Zn1 O2 1_555 1_555
Zn2 Br1 1_555 1_555
Zn3 Br2 1_555 1_555
O1 Zn3 1_555 1_555
O2 C6 1_555 1_555
O3 C12 1_555 1_555
O4 Zn2 1_555 1_555
O5 Zn2 1_555 1_555
O6 C24 1_555 1_555
O7 Zn1 1_555 1_555
O8 Zn3 1_555 1_555
N1 C1 1_555 1_555
N2 Zn1 1_555 1_555
N3 C19 1_555 1_555
N4 H1 1_555 1_555
C1 H2 1_555 1_555
C2 C1 1_555 1_555
H3 C2 1_555 1_555
C3 C2 1_555 1_555
C4 C3 1_555 1_555
H4 C4 1_555 1_555
C5 N1 1_555 1_555
H5 C5 1_555 1_555
C6 O1 1_555 1_555
C7 C8 1_555 1_555
C8 H6 1_555 1_555
C9 N2 1_555 1_555
H7 C9 1_555 1_555
C10 N2 1_555 1_555
H8 C10 1_555 1_555
C11 C7 1_555 1_555
H9 C11 1_555 1_555
C12 O4 1_555 1_555
C13 C14 1_555 1_555
C14 H10 1_555 1_555
C15 N4 1_555 1_555
H11 C15 1_555 1_555
C16 N4 1_555 1_555
H12 C16 1_555 1_555
C17 C13 1_555 1_555
H13 C17 1_555 1_555
C18 O7 1_555 1_555
C19 H14 1_555 1_555
C20 C19 1_555 1_555
H15 C20 1_555 1_555
C21 C20 1_555 1_555
C22 C21 1_555 1_555
H16 C22 1_555 1_555
C23 N3 1_555 1_555
H17 C23 1_555 1_555
C24 O5 1_555 1_555
Zn2B Br1B 1_555 1_555
Zn2_2 N1 1_555 1_555
Zn2B_2 N1B 1_555 1_555
Zn2_3 O5_2 1_555 1_555
Zn3B Br2B 1_555 1_555
Zn3_2 N3 1_555 1_555
O1B Zn3B 1_555 1_555
O2B Zn1 1_555 1_555
O3B C12B 1_555 1_555
O4B Zn2B 1_555 1_555
O5_2 C24_2 1_555 1_555
O5B Zn2B 1_555 1_555
O6_2 C24_2 1_555 1_555
O7B Zn1 1_555 1_555
O8B Zn3B 1_555 1_555
N1B C1B 1_555 1_555
N1_2 Zn2 1_555 1_555
N1B_2 Zn2B 1_555 1_555
N2B Zn1 1_555 1_555
N3_2 Zn3 1_555 1_555
N3B Zn3B 1_555 1_555
N4B H1B 1_555 1_555
C1B H2B 1_555 1_555
C2B C1B 1_555 1_555
H3B C2B 1_555 1_555
C3B C2B 1_555 1_555
C4B C3B 1_555 1_555
H4B C4B 1_555 1_555
C5B N1B 1_555 1_555
H5B C5B 1_555 1_555
C6B O1B 1_555 1_555
C7B C8B 1_555 1_555
C8B H6B 1_555 1_555
C9B N2B 1_555 1_555
H7B C9B 1_555 1_555
C10B N2B 1_555 1_555
H8B C10B 1_555 1_555
C11B C7B 1_555 1_555
H9B C11B 1_555 1_555
C12B O4B 1_555 1_555
C13B C14B 1_555 1_555
C14B H10B 1_555 1_555
C15B N4B 1_555 1_555
H11B C15B 1_555 1_555
C16B N4B 1_555 1_555
H12B C16B 1_555 1_555
C17B C13B 1_555 1_555
H13B C17B 1_555 1_555
C18B O7B 1_555 1_555
C19_2 N3_2 1_555 1_555
H14_2 C19_2 1_555 1_555
C20_2 C19_2 1_555 1_555
H15_2 C20_2 1_555 1_555
C21_2 C20_2 1_555 1_555
C22_2 C21_2 1_555 1_555
H16_2 C22_2 1_555 1_555
C23_2 N3_2 1_555 1_555
H17_2 C23_2 1_555 1_555
C24_2 C21_2 1_555 1_555
O8 C18 1_555 1_555
C3 C6 1_555 1_555
C4 C5 1_555 1_555
C7 C12 1_555 1_555
C8 C9 1_555 1_555
C10 C11 1_555 1_555
C13 C18 1_555 1_555
C14 C15 1_555 1_555
C16 C17 1_555 1_555
C21 C24 1_555 1_555
C22 C23 1_555 1_555
O2B C6B 1_555 1_555
O8B C18B 1_555 1_555
C3B C6B 1_555 1_555
C4B C5B 1_555 1_555
C7B C12B 1_555 1_555
C8B C9B 1_555 1_555
C10B C11B 1_555 1_555
C13B C18B 1_555 1_555
C14B C15B 1_555 1_555
C16B C17B 1_555 1_555
C22_2 C23_2 1_555 1_555

#END
