
#######################################################################
#
#                 Cambridge Crystallographic Data Centre
#                                CCDC 
#
#######################################################################
#
# If this CIF has been generated from an entry in the Cambridge 
# Structural Database, then it will include bibliographic, chemical, 
# crystal, experimental, refinement or atomic coordinate data resulting 
# from the CCDC's data processing and validation procedures.
#
#######################################################################

data_UFAYEF02
_symmetry_cell_setting           monoclinic
_symmetry_space_group_name_H-M   'C 2/c'
_symmetry_Int_Tables_number      15
_space_group_name_Hall           '-C 2yn'
loop_
_symmetry_equiv_pos_site_id
_symmetry_equiv_pos_as_xyz
1 x,y,z
2 -x,y,1/2-z
3 1/2+x,1/2+y,z
4 1/2-x,1/2+y,1/2-z
5 -x,-y,-z
6 x,-y,1/2+z
7 1/2-x,1/2-y,-z
8 1/2+x,1/2-y,1/2+z
_cell_length_a                   20.061(2)
_cell_length_b                   11.3404(12)
_cell_length_c                   15.6579(17)
_cell_angle_alpha                90
_cell_angle_beta                 95.449(2)
_cell_angle_gamma                90
_cell_volume                     3546.07
loop_
_atom_site_label
_atom_site_type_symbol
_atom_site_fract_x
_atom_site_fract_y
_atom_site_fract_z
Co1 Co 0.0000 1.00006(4) 0.2500
O1 O 0.00978(10) 1.00577(18) 0.11974(13)
H1 H 0.0292 0.9423 0.1037
H2 H -0.0292 1.0113 0.0907
O2 O -0.10730(10) 1.00914(18) 0.22443(14)
H3 H -0.1264 0.9497 0.2480
H4 H -0.1227 1.0743 0.2452
C1 C 0.05169(16) 1.3706(3) 0.2192(2)
H5 H 0.0875 1.4096 0.1981
C2 C 0.0000 1.4347(3) 0.2500
N1 N 0.0000 1.1874(3) 0.2500
C3 C 0.0000 1.5649(3) 0.2500
N2 N 0.0000 1.8113(3) 0.2500
C4 C 0.04979(17) 1.2494(3) 0.2201(2)
H6 H 0.0848 1.2083 0.1988
C5 C -0.05906(16) 1.6289(3) 0.2464(3)
H7 H -0.1000 1.5900 0.2447
C6 C -0.05702(17) 1.7490(3) 0.2452(3)
H8 H -0.0974 1.7900 0.2408
C1A C -0.05169(16) 1.3706(3) 0.2808(2)
H5A H -0.0875 1.4096 0.3019
C4A C -0.04979(17) 1.2494(3) 0.2799(2)
H6A H -0.0848 1.2083 0.3012
C5A C 0.05906(16) 1.6289(3) 0.2536(3)
H7A H 0.1000 1.5900 0.2553
C6A C 0.05702(17) 1.7490(3) 0.2548(3)
H8A H 0.0974 1.7900 0.2592
O1A O -0.00978(10) 1.00577(18) 0.38026(13)
H1A H -0.0292 0.9423 0.3963
H2A H 0.0292 1.0113 0.4093
O2A O 0.10730(10) 1.00914(18) 0.27557(14)
H3A H 0.1264 0.9497 0.2520
H4A H 0.1227 1.0743 0.2548
Co1_2 Co 0.0000 2.00006(4) 0.2500
N2_2 N 0.0000 0.8113(3) 0.2500
Co2 Co 0.2500 0.2500 0.0000
N3 N 0.34700(12) 0.1563(2) 0.01267(17)
C7 C 0.46832(14) 0.0324(3) 0.0042(2)
C8 C 0.35036(16) 0.0387(3) 0.0167(3)
H9 H 0.3112 -0.0027 0.0236
C9 C 0.40807(16) -0.0249(3) 0.0114(3)
H10 H 0.4067 -0.1068 0.0127
C10 C 0.46528(16) 0.1549(3) 0.0034(3)
H11 H 0.5042 0.1987 0.0006
C11 C 0.40469(16) 0.2118(3) 0.0068(3)
H12 H 0.4043 0.2938 0.0049
O3 O 0.28763(12) 0.3874(2) 0.07371(16)
H13 H 0.3075 0.4350 0.0427
H14 H 0.2556 0.4227 0.0949
O4 O 0.22152(13) 0.1717(2) 0.11526(15)
H15 H 0.1820 0.1993 0.1304
H16 H 0.2167 0.0931 0.1101
N3D N 0.65300(12) -0.1563(2) -0.01267(17)
C7D C 0.53168(14) -0.0324(3) -0.0042(2)
C8D C 0.64964(16) -0.0387(3) -0.0167(3)
H9D H 0.6888 0.0027 -0.0236
C9D C 0.59193(16) 0.0249(3) -0.0114(3)
H10D H 0.5933 0.1068 -0.0127
C10D C 0.53472(16) -0.1549(3) -0.0034(3)
H11D H 0.4958 -0.1987 -0.0006
C11D C 0.59531(16) -0.2118(3) -0.0068(3)
H12D H 0.5957 -0.2938 -0.0049
O3F O 0.21237(12) 0.1126(2) -0.07371(16)
H13F H 0.1925 0.0650 -0.0427
H14F H 0.2444 0.0773 -0.0949
O4F O 0.27848(13) 0.3283(2) -0.11526(15)
H15F H 0.3180 0.3007 -0.1304
H16F H 0.2833 0.4069 -0.1101
Co2B Co 0.7500 -0.2500 0.0000
N3F N 0.15300(12) 0.3437(2) -0.01267(17)
O5 O 0.08719(10) 0.84102(19) 0.05883(15)
O6 O 0.20442(11) 0.93752(19) 0.17533(14)
O7 O 0.11505(10) 0.96799(19) -0.04047(15)
C12 C 0.23245(13) 0.7873(2) 0.08012(17)
C13 C 0.12637(13) 0.8806(2) 0.00911(17)
C14 C 0.29011(13) 0.7206(2) 0.07350(17)
H17 H 0.3169 0.7005 0.1231
C15 C 0.19169(13) 0.8163(2) 0.00563(17)
C16 C 0.21764(14) 0.8298(3) 0.16713(18)
O8 O 0.22124(13) 0.7551(2) 0.22584(14)
O5F O 0.41281(10) 0.65898(19) -0.05883(15)
O6F O 0.29558(11) 0.56248(19) -0.17533(14)
O7F O 0.38495(10) 0.53201(19) 0.04047(15)
C12F C 0.26755(13) 0.7127(2) -0.08012(17)
C13F C 0.37363(13) 0.6194(2) -0.00911(17)
C14F C 0.20989(13) 0.7794(2) -0.07350(17)
H17F H 0.1831 0.7995 -0.1231
C15F C 0.30831(13) 0.6837(2) -0.00563(17)
C16F C 0.28236(14) 0.6702(3) -0.16713(18)
O8F O 0.27876(13) 0.7449(2) -0.22584(14)
O9 O 0.28882(14) 1.0087(2) 0.31847(17)
H18 H 0.2652 0.9825 0.2745
H19 H 0.2885 1.0836 0.3177
loop_
_geom_bond_atom_site_label_1
_geom_bond_atom_site_label_2
_geom_bond_site_symmetry_1
_geom_bond_site_symmetry_2
Co1 O1 1_555 1_555
O1 H1 1_555 1_555
H2 O1 1_555 1_555
O2 Co1 1_555 1_555
H3 O2 1_555 1_555
H4 O2 1_555 1_555
C1 H5 1_555 1_555
C2 C1 1_555 1_555
N1 Co1 1_555 1_555
C3 C2 1_555 1_555
N2 C6 1_555 1_555
C4 C1 1_555 1_555
H6 C4 1_555 1_555
C5 C3 1_555 1_555
H7 C5 1_555 1_555
C6 C5 1_555 1_555
H8 C6 1_555 1_555
Co2 N3 1_555 1_555
N3 C8 1_555 1_555
C7 C9 1_555 1_555
C8 H9 1_555 1_555
C9 C8 1_555 1_555
H10 C9 1_555 1_555
C10 C7 1_555 1_555
H11 C10 1_555 1_555
C11 N3 1_555 1_555
H12 C11 1_555 1_555
O3 Co2 1_555 1_555
H13 O3 1_555 1_555
H14 O3 1_555 1_555
O4 Co2 1_555 1_555
H15 O4 1_555 1_555
H16 O4 1_555 1_555
O5 C13 1_555 1_555
O6 C16 1_555 1_555
O7 C13 1_555 1_555
C12 C14 1_555 1_555
C13 C15 1_555 1_555
C14 H17 1_555 1_555
C15 C12 1_555 1_555
C16 C12 1_555 1_555
O8 C16 1_555 1_555
O9 H18 1_555 1_555
H19 O9 1_555 1_555
C1A C2 1_555 1_555
H5A C1A 1_555 1_555
C4A N1 1_555 1_555
H6A C4A 1_555 1_555
C5A C3 1_555 1_555
H7A C5A 1_555 1_555
C6A N2 1_555 1_555
H8A C6A 1_555 1_555
O1A Co1 1_555 1_555
H1A O1A 1_555 1_555
H2A O1A 1_555 1_555
O2A Co1 1_555 1_555
H3A O2A 1_555 1_555
H4A O2A 1_555 1_555
Co1_2 N2 1_555 1_555
N2_2 Co1 1_555 1_555
N3D C8D 1_555 1_555
C7D C7 1_555 1_555
C8D H9D 1_555 1_555
C9D C7D 1_555 1_555
H10D C9D 1_555 1_555
C10D C7D 1_555 1_555
H11D C10D 1_555 1_555
C11D N3D 1_555 1_555
H12D C11D 1_555 1_555
O3F Co2 1_555 1_555
H13F O3F 1_555 1_555
H14F O3F 1_555 1_555
O4F Co2 1_555 1_555
H15F O4F 1_555 1_555
H16F O4F 1_555 1_555
Co2B N3D 1_555 1_555
N3F Co2 1_555 1_555
O5F C13F 1_555 1_555
O6F C16F 1_555 1_555
O7F C13F 1_555 1_555
C12F C14F 1_555 1_555
C13F C15F 1_555 1_555
C14F C15 1_555 1_555
H17F C14F 1_555 1_555
C15F C14 1_555 1_555
C16F C12F 1_555 1_555
O8F C16F 1_555 1_555
N1 C4 1_555 1_555
C10 C11 1_555 1_555
C1A C4A 1_555 1_555
C5A C6A 1_555 1_555
C8D C9D 1_555 1_555
C10D C11D 1_555 1_555
C12F C15F 1_555 1_555

#END
