
#######################################################################
#
#                 Cambridge Crystallographic Data Centre
#                                CCDC 
#
#######################################################################
#
# If this CIF has been generated from an entry in the Cambridge 
# Structural Database, then it will include bibliographic, chemical, 
# crystal, experimental, refinement or atomic coordinate data resulting 
# from the CCDC's data processing and validation procedures.
#
#######################################################################

data_UFAYEF01
_symmetry_cell_setting           monoclinic
_symmetry_space_group_name_H-M   'C 2/c'
_symmetry_Int_Tables_number      15
_space_group_name_Hall           '-C 2yn'
loop_
_symmetry_equiv_pos_site_id
_symmetry_equiv_pos_as_xyz
1 x,y,z
2 1/2+x,1/2+y,z
3 -x,y,1/2-z
4 1/2-x,1/2+y,1/2-z
5 -x,-y,-z
6 1/2-x,1/2-y,-z
7 x,-y,1/2+z
8 1/2+x,1/2-y,1/2+z
_cell_length_a                   20.078(4)
_cell_length_b                   11.349(2)
_cell_length_c                   15.609(3)
_cell_angle_alpha                90
_cell_angle_beta                 95.33(3)
_cell_angle_gamma                90
_cell_volume                     3541.37
loop_
_atom_site_label
_atom_site_type_symbol
_atom_site_fract_x
_atom_site_fract_y
_atom_site_fract_z
Co1 Co 0.5000 0.50061(17) 0.2500
N1 N 0.5000 0.3123(9) 0.2500
N2 N 0.5000 -0.3104(9) 0.2500
O1 O 0.5096(3) 0.5052(6) 0.1180(4)
O2 O 0.6066(3) 0.5094(6) 0.2757(4)
C1 C 0.4445(5) 0.2491(9) 0.2455(8)
H1 H 0.4029 0.2914 0.2423
C2 C 0.4414(6) 0.1311(9) 0.2458(8)
H2 H 0.3993 0.0907 0.2423
C3 C 0.5000 0.0662(12) 0.2500
C4 C 0.5486(6) -0.2500(9) 0.2195(8)
H3 H 0.5838 -0.2933 0.1963
C5 C 0.5514(5) -0.1285(9) 0.2198(7)
H4 H 0.5891 -0.0889 0.1994
C6 C 0.5000 -0.0641(12) 0.2500
H5 H 0.6398(14) 0.484(6) 0.243(3)
H6 H 0.4676(11) 0.507(7) 0.091(4)
H7 H 0.611(5) 0.514(7) 0.3387(12)
H8 H 0.5349(17) 0.448(3) 0.101(4)
Co1_2 Co 0.5000 -0.49939(17) 0.2500
N2_2 N 0.5000 0.6896(9) 0.2500
O1B O 0.4904(3) 0.5052(6) 0.3820(4)
O2B O 0.3934(3) 0.5094(6) 0.2243(4)
C1B C 0.5555(5) 0.2491(9) 0.2545(8)
H1B H 0.5971 0.2914 0.2577
C2B C 0.5586(6) 0.1311(9) 0.2542(8)
H2B H 0.6007 0.0907 0.2577
C4B C 0.4514(6) -0.2500(9) 0.2805(8)
H3B H 0.4162 -0.2933 0.3037
C5B C 0.4486(5) -0.1285(9) 0.2802(7)
H4B H 0.4109 -0.0889 0.3006
H5B H 0.3602(14) 0.484(6) 0.257(3)
H6B H 0.5324(11) 0.507(7) 0.409(4)
H7B H 0.389(5) 0.514(7) 0.1613(12)
H8B H 0.4651(17) 0.448(3) 0.399(4)
Co2 Co 0.7500 -0.2500 0.0000
N3 N 0.6530(4) -0.1572(6) -0.0124(6)
O3 O 0.7129(3) -0.3861(6) -0.0752(5)
O4 O 0.7797(4) -0.1704(6) -0.1159(5)
C7 C 0.5955(5) -0.2114(9) -0.0080(8)
H9 H 0.5958 -0.2960 -0.0058
C8 C 0.5354(5) -0.1555(10) -0.0049(8)
H10 H 0.4950 -0.2005 -0.0041
C9 C 0.5321(5) -0.0322(9) -0.0040(7)
C10 C 0.5919(5) 0.0253(10) -0.0093(9)
H11 H 0.5932 0.1098 -0.0104
C11 C 0.6493(5) -0.0399(11) -0.0151(9)
H12 H 0.6898 0.0023 -0.0221
H13 H 0.6801(14) -0.434(3) -0.064(5)
H14 H 0.785(4) -0.091(2) -0.135(4)
H15 H 0.7328(15) -0.453(3) -0.0937(18)
H16 H 0.760(3) -0.206(5) -0.167(2)
Co2A Co 0.2500 0.2500 0.0000
N3D N 0.3470(4) 0.1572(6) 0.0124(6)
N3E N 0.8470(4) -0.3428(6) 0.0124(6)
O3E O 0.7871(3) -0.1139(6) 0.0752(5)
O4E O 0.7203(4) -0.3296(6) 0.1159(5)
C7D C 0.4045(5) 0.2114(9) 0.0080(8)
H9D H 0.4042 0.2960 0.0058
C8D C 0.4646(5) 0.1555(10) 0.0049(8)
H10D H 0.5050 0.2005 0.0041
C9D C 0.4679(5) 0.0322(9) 0.0040(7)
C10D C 0.4081(5) -0.0253(10) 0.0093(9)
H11D H 0.4068 -0.1098 0.0104
C11D C 0.3507(5) 0.0399(11) 0.0151(9)
H12D H 0.3102 -0.0023 0.0221
H13E H 0.8199(14) -0.066(3) 0.064(5)
H14E H 0.715(4) -0.409(2) 0.135(4)
H15E H 0.7672(15) -0.047(3) 0.0937(18)
H16E H 0.740(3) -0.294(5) 0.167(2)
O5 O 0.7862(3) 0.5029(5) 0.3145(4)
H17 H 0.7584(8) 0.5330(16) 0.2760(11)
H18 H 0.7828(16) 0.4299(7) 0.2946(14)
O6 O 0.7253(4) 0.2631(6) 0.2302(5)
O7 O 0.7048(3) 0.4412(6) 0.1771(4)
O8 O 0.6154(3) 0.4682(6) -0.0414(4)
O9 O 0.5871(3) 0.3414(5) 0.0588(4)
C12 C 0.7184(5) 0.3319(9) 0.1658(7)
C13 C 0.6266(5) 0.3803(8) 0.0093(7)
C14 C 0.7892(5) 0.2208(8) 0.0728(7)
H19 H 0.8171 0.2004 0.1239
C15 C 0.6925(4) 0.3160(8) 0.0052(7)
C16 C 0.7330(5) 0.2886(8) 0.0801(6)
O6E O 0.7747(4) 0.2369(6) -0.2302(5)
O7E O 0.7952(3) 0.0588(6) -0.1771(4)
O8E O 0.8846(3) 0.0318(6) 0.0414(4)
O9E O 0.9129(3) 0.1586(5) -0.0588(4)
C12E C 0.7816(5) 0.1681(9) -0.1658(7)
C13E C 0.8734(5) 0.1197(8) -0.0093(7)
C14E C 0.7108(5) 0.2792(8) -0.0728(7)
H19E H 0.6829 0.2996 -0.1239
C15E C 0.8075(4) 0.1840(8) -0.0052(7)
C16E C 0.7670(5) 0.2114(8) -0.0801(6)
loop_
_geom_bond_atom_site_label_1
_geom_bond_atom_site_label_2
_geom_bond_site_symmetry_1
_geom_bond_site_symmetry_2
Co1 N1 1_555 1_555
N1 C1 1_555 1_555
N2 C4 1_555 1_555
O1 Co1 1_555 1_555
O2 Co1 1_555 1_555
C1 H1 1_555 1_555
C2 C1 1_555 1_555
H2 C2 1_555 1_555
C3 C2 1_555 1_555
C4 H3 1_555 1_555
C5 C4 1_555 1_555
H4 C5 1_555 1_555
C6 C3 1_555 1_555
H5 O2 1_555 1_555
H6 O1 1_555 1_555
H7 O2 1_555 1_555
H8 O1 1_555 1_555
Co2 N3 1_555 1_555
N3 C7 1_555 1_555
O3 Co2 1_555 1_555
O4 Co2 1_555 1_555
C7 H9 1_555 1_555
C8 C7 1_555 1_555
H10 C8 1_555 1_555
C9 C8 1_555 1_555
C10 C9 1_555 1_555
H11 C10 1_555 1_555
C11 N3 1_555 1_555
H12 C11 1_555 1_555
H13 O3 1_555 1_555
H14 O4 1_555 1_555
H15 O3 1_555 1_555
H16 O4 1_555 1_555
O5 H17 1_555 1_555
H18 O5 1_555 1_555
O6 C12 1_555 1_555
O7 C12 1_555 1_555
O8 C13 1_555 1_555
O9 C13 1_555 1_555
C12 C16 1_555 1_555
C13 C15 1_555 1_555
C14 H19 1_555 1_555
C15 C16 1_555 1_555
C16 C14 1_555 1_555
Co1_2 N2 1_555 1_555
N2_2 Co1 1_555 1_555
O1B Co1 1_555 1_555
O2B Co1 1_555 1_555
C1B N1 1_555 1_555
H1B C1B 1_555 1_555
C2B C3 1_555 1_555
H2B C2B 1_555 1_555
C4B N2 1_555 1_555
H3B C4B 1_555 1_555
C5B C6 1_555 1_555
H4B C5B 1_555 1_555
H5B O2B 1_555 1_555
H6B O1B 1_555 1_555
H7B O2B 1_555 1_555
H8B O1B 1_555 1_555
Co2A N3D 1_555 1_555
N3D C7D 1_555 1_555
N3E Co2 1_555 1_555
O3E Co2 1_555 1_555
O4E Co2 1_555 1_555
C7D H9D 1_555 1_555
C8D C7D 1_555 1_555
H10D C8D 1_555 1_555
C9D C9 1_555 1_555
C10D C9D 1_555 1_555
H11D C10D 1_555 1_555
C11D N3D 1_555 1_555
H12D C11D 1_555 1_555
H13E O3E 1_555 1_555
H14E O4E 1_555 1_555
H15E O3E 1_555 1_555
H16E O4E 1_555 1_555
O6E C12E 1_555 1_555
O7E C12E 1_555 1_555
O8E C13E 1_555 1_555
O9E C13E 1_555 1_555
C12E C16E 1_555 1_555
C13E C15E 1_555 1_555
C14E C15 1_555 1_555
H19E C14E 1_555 1_555
C15E C14 1_555 1_555
C16E C14E 1_555 1_555
C5 C6 1_555 1_555
C10 C11 1_555 1_555
C1B C2B 1_555 1_555
C4B C5B 1_555 1_555
C8D C9D 1_555 1_555
C10D C11D 1_555 1_555
C15E C16E 1_555 1_555

#END
