
#######################################################################
#
#                 Cambridge Crystallographic Data Centre
#                                CCDC 
#
#######################################################################
#
# If this CIF has been generated from an entry in the Cambridge 
# Structural Database, then it will include bibliographic, chemical, 
# crystal, experimental, refinement or atomic coordinate data resulting 
# from the CCDC's data processing and validation procedures.
#
#######################################################################

data_UFELEY
_symmetry_cell_setting           monoclinic
_symmetry_space_group_name_H-M   'C 2/c'
_symmetry_Int_Tables_number      15
_space_group_name_Hall           '-C 2yn'
loop_
_symmetry_equiv_pos_site_id
_symmetry_equiv_pos_as_xyz
1 x,y,z
2 -x,y,1/2-z
3 1/2+x,1/2+y,z
4 1/2-x,1/2+y,1/2-z
5 -x,-y,-z
6 x,-y,1/2+z
7 1/2-x,1/2-y,-z
8 1/2+x,1/2-y,1/2+z
_cell_length_a                   26.9768(2)
_cell_length_b                   20.2540(3)
_cell_length_c                   19.6918(3)
_cell_angle_alpha                90
_cell_angle_beta                 131.5560(10)
_cell_angle_gamma                90
_cell_volume                     8051.32
loop_
_atom_site_label
_atom_site_type_symbol
_atom_site_fract_x
_atom_site_fract_y
_atom_site_fract_z
Cu1 Cu 0.16275(3) 0.13757(3) 0.26566(4)
N1 N 0.13100(18) 0.07140(18) 0.3056(3)
C1 C 0.1168(2) 0.0084(2) 0.2760(3)
H1 H 0.1211 -0.0047 0.2338
C2 C 0.0963(2) -0.0376(2) 0.3043(3)
H2 H 0.0859 -0.0813 0.2808
C3 C 0.0907(2) -0.0199(2) 0.3673(3)
C4 C 0.1048(2) 0.0450(2) 0.3968(3)
H3 H 0.1014 0.0593 0.4394
C5 C 0.1239(2) 0.0890(2) 0.3644(3)
H4 H 0.1323 0.1335 0.3845
C6 C 0.0776(2) -0.0699(2) 0.4100(3)
H5 H 0.0473 -0.1044 0.3650
H6 H 0.0559 -0.0482 0.4294
C7 C 0.1422(3) -0.1015(3) 0.4916(3)
H7 H 0.1749 -0.0663 0.5313
H8 H 0.1345 -0.1265 0.5270
C8 C 0.1706(3) -0.1476(3) 0.4639(4)
H9 H 0.1486 -0.1886 0.4374
C9 C 0.2223(3) -0.1360(3) 0.4730(4)
H10 H 0.2459 -0.0960 0.5015
C10 C 0.2471(3) -0.1826(3) 0.4410(4)
H11 H 0.2933 -0.1955 0.4935
H12 H 0.2197 -0.2231 0.4165
C11 C 0.2448(3) -0.1525(2) 0.3691(4)
H13 H 0.2739 -0.1132 0.3943
H14 H 0.1991 -0.1379 0.3175
C12 C 0.2670(2) -0.2010(2) 0.3352(3)
C13 C 0.2241(2) -0.2224(2) 0.2459(3)
H15 H 0.1803 -0.2053 0.2037
C14 C 0.2455(2) -0.2688(2) 0.2189(3)
H16 H 0.2150 -0.2839 0.1579
C15 C 0.3489(2) -0.2713(2) 0.3601(3)
H17 H 0.3931 -0.2873 0.4003
C16 C 0.3306(2) -0.2262(2) 0.3926(3)
H18 H 0.3617 -0.2126 0.4542
N2 N 0.30708(18) -0.29372(18) 0.2742(3)
N3 N 0.23957(19) 0.0780(2) 0.3124(3)
N4 N 0.4146(2) -0.30527(19) 0.2799(3)
C17 C 0.2540(3) 0.0641(3) 0.2614(4)
H19 H 0.2288 0.0838 0.2032
C18 C 0.3061(3) 0.0205(3) 0.2921(6)
H20 H 0.3165 0.0098 0.2558
C19 C 0.3427(3) -0.0069(3) 0.3814(6)
C20 C 0.3275(3) 0.0086(3) 0.4298(6)
H21 H 0.3522 -0.0090 0.4891
C21 C 0.2768(3) 0.0494(3) 0.3952(4)
H22 H 0.2660 0.0592 0.4314
C22 C 0.4037(6) -0.0547(5) 0.4187(8)
H23 H 0.4437 -0.0340 0.4748
H24 H 0.3963 -0.0962 0.4375
C23 C 0.4212(9) -0.0742(15) 0.3648(11)
H25 H 0.4274 -0.0355 0.3403
H26 H 0.3883 -0.1047 0.3148
C24 C 0.4881(7) -0.1094(8) 0.4425(12)
H27 H 0.4945 -0.1351 0.4882
C25 C 0.5341(5) -0.1003(5) 0.4390(9)
H28 H 0.5328 -0.0589 0.4153
C26 C 0.5890(5) -0.1457(7) 0.4669(9)
H29 H 0.5949 -0.1807 0.5068
H30 H 0.6309 -0.1203 0.5022
C27 C 0.5756(5) -0.1772(6) 0.3868(9)
H31 H 0.6154 -0.2014 0.4075
H32 H 0.5652 -0.1427 0.3434
C28 C 0.5178(4) -0.2246(5) 0.3404(7)
C29 C 0.5267(7) -0.2881(5) 0.3736(9)
H33 H 0.5699 -0.3047 0.4214
C30 C 0.4715(9) -0.3266(8) 0.336(2)
H34 H 0.4777 -0.3716 0.3534
C31 C 0.4011(5) -0.2450(7) 0.2369(8)
H35 H 0.3570 -0.2323 0.1863
C32 C 0.4537(4) -0.2046(5) 0.2702(8)
H36 H 0.4458 -0.1621 0.2442
O1 O 0.09854(16) 0.08273(16) 0.1192(2)
H37 H 0.1061 0.0434 0.1117
H38 H 0.0623 0.0943 0.0692
O2 O 0.2354(2) 0.1965(2) 0.4187(3)
H39 H 0.2514 0.1780 0.4689
H40 H 0.2521 0.2344 0.4321
Cu1C Cu 0.33725(3) -0.36243(3) 0.23434(4)
N2C N 0.19292(18) 0.20628(18) 0.2258(3)
N4C N 0.0854(2) 0.19473(19) 0.2201(3)
N5 N -0.0276(2) 0.1690(2) -0.0954(3)
O3 O -0.02279(18) 0.1257(2) -0.0453(3)
O4 O -0.07808(19) 0.1717(2) -0.1770(3)
O5 O 0.0190(2) 0.2074(2) -0.0635(3)
N6 N 0.2577(2) 0.3717(3) 0.4125(3)
O6 O 0.21487(19) 0.3702(2) 0.4213(3)
O7 O 0.2592(2) 0.4203(2) 0.3754(3)
O8 O 0.2978(2) 0.3252(2) 0.4432(3)
O9 O -0.1289(2) 0.04354(18) -0.1071(3)
H55 H -0.1037 0.0753 -0.0974
H56 H -0.1607 0.0611 -0.1154
O10 O 0.1215(4) 0.4775(6) 0.3413(8)
H57 H 0.1331 0.4394 0.3370
H58 H 0.1462 0.5051 0.3447
O11 O 0.0644(6) 0.2960(7) -0.1283(8)
O12 O -0.0695(9) 0.2920(7) -0.2440(11)
O13 O 0.4395(7) -0.0898(8) 0.6161(9)
O14 O 0.5052(7) -0.0235(7) 0.3276(10)
O15 O -0.1487(8) 0.3867(8) -0.2977(10)
H41? H 0.3864 -0.0910 0.3744
H42? H 0.4353 -0.0293 0.4193
C33? C 0.4414(6) -0.0848(6) 0.5096(8)
H43? H 0.4107 -0.1106 0.5105
H44? H 0.4607 -0.0493 0.5554
C34? C 0.4970(6) -0.1301(6) 0.5352(10)
H45? H 0.5069 -0.1682 0.5705
C35? C 0.5319(5) -0.1201(5) 0.5121(10)
H46? H 0.5200 -0.0841 0.4728
C36? C 0.5907(4) -0.1627(5) 0.5444(7)
H47? H 0.6323 -0.1392 0.5932
H48? H 0.5900 -0.2043 0.5700
C37? C 0.5895(5) -0.1785(5) 0.4686(8)
H49? H 0.6313 -0.2008 0.4938
H50? H 0.5862 -0.1370 0.4393
C38? C 0.5313(4) -0.2229(4) 0.3985(7)
C39? C 0.5366(6) -0.2911(4) 0.4087(9)
H51? H 0.5786 -0.3112 0.4536
C40? C 0.4801(8) -0.3292(7) 0.353(2)
H52? H 0.4851 -0.3754 0.3638
C41? C 0.4151(5) -0.2384(7) 0.2767(8)
H53? H 0.3733 -0.2176 0.2335
C42? C 0.4692(4) -0.1974(5) 0.3289(8)
H54? H 0.4639 -0.1513 0.3169
loop_
_geom_bond_atom_site_label_1
_geom_bond_atom_site_label_2
_geom_bond_site_symmetry_1
_geom_bond_site_symmetry_2
Cu1 N1 1_555 1_555
N1 C1 1_555 1_555
C1 H1 1_555 1_555
C2 C1 1_555 1_555
H2 C2 1_555 1_555
C3 C2 1_555 1_555
C4 C3 1_555 1_555
H3 C4 1_555 1_555
C5 N1 1_555 1_555
H4 C5 1_555 1_555
C6 C3 1_555 1_555
H5 C6 1_555 1_555
H6 C6 1_555 1_555
C7 C6 1_555 1_555
H7 C7 1_555 1_555
H8 C7 1_555 1_555
C8 C7 1_555 1_555
H9 C8 1_555 1_555
C9 C8 1_555 1_555
H10 C9 1_555 1_555
C10 C9 1_555 1_555
H11 C10 1_555 1_555
H12 C10 1_555 1_555
C11 C10 1_555 1_555
H13 C11 1_555 1_555
H14 C11 1_555 1_555
C12 C11 1_555 1_555
C13 C12 1_555 1_555
H15 C13 1_555 1_555
C14 C13 1_555 1_555
H16 C14 1_555 1_555
C15 H17 1_555 1_555
C16 C12 1_555 1_555
H18 C16 1_555 1_555
N2 C14 1_555 1_555
N3 Cu1 1_555 1_555
N4 C30 1_555 1_555
C17 N3 1_555 1_555
H19 C17 1_555 1_555
C18 C17 1_555 1_555
H20 C18 1_555 1_555
C19 C18 1_555 1_555
C20 C19 1_555 1_555
H21 C20 1_555 1_555
C21 N3 1_555 1_555
H22 C21 1_555 1_555
C22 C19 1_555 1_555
H23 C22 1_555 1_555
H24 C22 1_555 1_555
C23 C22 1_555 1_555
H25 C23 1_555 1_555
H26 C23 1_555 1_555
C24 C23 1_555 1_555
H27 C24 1_555 1_555
C25 C24 1_555 1_555
H28 C25 1_555 1_555
C26 C25 1_555 1_555
H29 C26 1_555 1_555
H30 C26 1_555 1_555
C27 C26 1_555 1_555
H31 C27 1_555 1_555
H32 C27 1_555 1_555
C28 C27 1_555 1_555
C29 C28 1_555 1_555
H33 C29 1_555 1_555
C30 C29 1_555 1_555
H34 C30 1_555 1_555
C31 N4 1_555 1_555
H35 C31 1_555 1_555
C32 C28 1_555 1_555
H36 C32 1_555 1_555
O1 Cu1 1_555 1_555
H37 O1 1_555 1_555
H38 O1 1_555 1_555
O2 Cu1 1_555 1_555
H39 O2 1_555 1_555
H40 O2 1_555 1_555
N5 O3 1_555 1_555
O4 N5 1_555 1_555
O5 N5 1_555 1_555
N6 O6 1_555 1_555
O7 N6 1_555 1_555
O8 N6 1_555 1_555
O9 H55 1_555 1_555
H56 O9 1_555 1_555
O10 H57 1_555 1_555
H58 O10 1_555 1_555
Cu1C N2 1_555 1_555
N2C Cu1 1_555 1_555
N4C Cu1 1_555 1_555
C4 C5 1_555 1_555
C15 C16 1_555 1_555
C15 N2 1_555 1_555
N4 Cu1C 1_555 1_555
C20 C21 1_555 1_555
C31 C32 1_555 1_555

#END
