
#######################################################################
#
#                 Cambridge Crystallographic Data Centre
#                                CCDC 
#
#######################################################################
#
# If this CIF has been generated from an entry in the Cambridge 
# Structural Database, then it will include bibliographic, chemical, 
# crystal, experimental, refinement or atomic coordinate data resulting 
# from the CCDC's data processing and validation procedures.
#
#######################################################################

data_UFEMAU
_symmetry_cell_setting           monoclinic
_symmetry_space_group_name_H-M   'P 21/n'
_symmetry_Int_Tables_number      14
_space_group_name_Hall           '-P 2yn'
loop_
_symmetry_equiv_pos_site_id
_symmetry_equiv_pos_as_xyz
1 x,y,z
2 1/2-x,1/2+y,1/2-z
3 -x,-y,-z
4 1/2+x,1/2-y,1/2+z
_cell_length_a                   9.5640(6)
_cell_length_b                   24.3600(14)
_cell_length_c                   11.4620(7)
_cell_angle_alpha                90
_cell_angle_beta                 92.564(3)
_cell_angle_gamma                90
_cell_volume                     2667.73
loop_
_atom_site_label
_atom_site_type_symbol
_atom_site_fract_x
_atom_site_fract_y
_atom_site_fract_z
B1 B 1.0057(2) 0.41088(9) 0.17900(18)
H1 H 1.0404 0.4364 0.1209
C1 C 0.7513(2) 0.44328(8) 0.11554(16)
H2 H 0.7729 0.4722 0.0667
C2 C 0.6185(2) 0.42694(8) 0.14324(17)
C3 C 0.6381(2) 0.38127(8) 0.21817(17)
C4 C 0.4848(2) 0.44807(9) 0.10433(18)
C5 C 0.5365(2) 0.34446(9) 0.27044(19)
C6 C 0.4225(2) 0.36475(11) 0.3269(2)
H3 H 0.4068 0.4024 0.3297
C7 C 0.3319(3) 0.32899(12) 0.3794(2)
H4 H 0.2553 0.3426 0.4173
C8 C 0.3553(3) 0.27347(13) 0.3754(3)
H5 H 0.2950 0.2496 0.4117
C9 C 0.4670(3) 0.25283(12) 0.3183(3)
H6 H 0.4813 0.2151 0.3152
C10 C 0.5578(3) 0.28795(10) 0.2654(2)
H7 H 0.6332 0.2739 0.2264
C11 C 1.1519(2) 0.46685(8) 0.33184(17)
H8 H 1.1987 0.4889 0.2802
C12 C 1.1691(2) 0.46783(8) 0.45243(17)
C13 C 1.0744(2) 0.42818(8) 0.49219(16)
C14 C 1.2633(2) 0.50281(9) 0.51787(19)
C15 C 1.0387(2) 0.41601(8) 0.61326(17)
C16 C 1.1319(2) 0.42837(10) 0.70627(19)
H9 H 1.2205 0.4416 0.6916
C17 C 1.0940(3) 0.42115(10) 0.82054(19)
H10 H 1.1570 0.4297 0.8820
C18 C 0.9642(3) 0.40158(10) 0.84311(18)
H11 H 0.9386 0.3972 0.9199
C19 C 0.8707(2) 0.38819(9) 0.75191(19)
H12 H 0.7830 0.3742 0.7674
C20 C 0.9078(2) 0.39570(9) 0.63770(17)
H13 H 0.8442 0.3870 0.5767
C21 C 1.1527(2) 0.33617(8) 0.07827(16)
H14 H 1.1969 0.3588 0.0260
C22 C 1.1679(2) 0.27986(8) 0.08729(16)
C23 C 1.0818(2) 0.26387(8) 0.17855(16)
C24 C 1.2533(2) 0.24550(8) 0.02055(17)
C25 C 1.0520(2) 0.20806(8) 0.22040(17)
C26 C 1.0404(2) 0.16435(9) 0.1416(2)
H15 H 1.0540 0.1704 0.0628
C27 C 1.0086(3) 0.11213(10) 0.1800(2)
H16 H 1.0008 0.0832 0.1271
C28 C 0.9887(3) 0.10309(10) 0.2971(3)
H17 H 0.9681 0.0679 0.3230
C29 C 0.9991(3) 0.14586(10) 0.3757(2)
H18 H 0.9846 0.1395 0.4542
C30 C 1.0310(2) 0.19819(9) 0.33821(19)
H19 H 1.0386 0.2268 0.3917
Cu1 Cu 0.89780(2) 0.331070(10) 0.35924(2)
N1 N 0.77413(17) 0.37198(7) 0.23528(14)
N2 N 0.84345(17) 0.40995(7) 0.17163(13)
N3 N 0.3758(2) 0.46291(8) 0.07442(18)
N4 N 1.00910(16) 0.40389(7) 0.40020(13)
N5 N 1.05698(16) 0.42890(6) 0.30284(13)
N6 N 1.3410(2) 0.53053(9) 0.56805(19)
N7 N 1.02158(16) 0.30830(6) 0.22170(13)
N8 N 1.06352(17) 0.35234(7) 0.15743(13)
N9 N 1.31885(18) 0.21680(7) -0.03359(14)
Cu1C Cu 1.39780(2) 0.168930(10) -0.14076(2)
N9C N 0.81885(18) 0.28320(7) 0.46641(14)
loop_
_geom_bond_atom_site_label_1
_geom_bond_atom_site_label_2
_geom_bond_site_symmetry_1
_geom_bond_site_symmetry_2
B1 H1 1_555 1_555
C1 H2 1_555 1_555
C2 C1 1_555 1_555
C3 C2 1_555 1_555
C4 C2 1_555 1_555
C5 C3 1_555 1_555
C6 C5 1_555 1_555
H3 C6 1_555 1_555
C7 C6 1_555 1_555
H4 C7 1_555 1_555
C8 C7 1_555 1_555
H5 C8 1_555 1_555
C9 C8 1_555 1_555
H6 C9 1_555 1_555
C10 C5 1_555 1_555
H7 C10 1_555 1_555
C11 H8 1_555 1_555
C12 C11 1_555 1_555
C13 C12 1_555 1_555
C14 C12 1_555 1_555
C15 C13 1_555 1_555
C16 C15 1_555 1_555
H9 C16 1_555 1_555
C17 C16 1_555 1_555
H10 C17 1_555 1_555
C18 C17 1_555 1_555
H11 C18 1_555 1_555
C19 C18 1_555 1_555
H12 C19 1_555 1_555
C20 C15 1_555 1_555
H13 C20 1_555 1_555
C21 H14 1_555 1_555
C22 C21 1_555 1_555
C23 C22 1_555 1_555
C24 C22 1_555 1_555
C25 C23 1_555 1_555
C26 C25 1_555 1_555
H15 C26 1_555 1_555
C27 C26 1_555 1_555
H16 C27 1_555 1_555
C28 C27 1_555 1_555
H17 C28 1_555 1_555
C29 C28 1_555 1_555
H18 C29 1_555 1_555
C30 C25 1_555 1_555
H19 C30 1_555 1_555
Cu1 N1 1_555 1_555
N1 C3 1_555 1_555
N2 B1 1_555 1_555
N3 C4 1_555 1_555
N4 C13 1_555 1_555
N5 B1 1_555 1_555
N6 C14 1_555 1_555
N7 C23 1_555 1_555
N8 B1 1_555 1_555
N9 C24 1_555 1_555
Cu1C N9 1_555 1_555
N9C Cu1 1_555 1_555
C1 N2 1_555 1_555
C9 C10 1_555 1_555
C11 N5 1_555 1_555
C19 C20 1_555 1_555
C21 N8 1_555 1_555
C29 C30 1_555 1_555
Cu1 N4 1_555 1_555
Cu1 N7 1_555 1_555
N1 N2 1_555 1_555
N4 N5 1_555 1_555
N7 N8 1_555 1_555

#END
