
#######################################################################
#
#                 Cambridge Crystallographic Data Centre
#                                CCDC 
#
#######################################################################
#
# If this CIF has been generated from an entry in the Cambridge 
# Structural Database, then it will include bibliographic, chemical, 
# crystal, experimental, refinement or atomic coordinate data resulting 
# from the CCDC's data processing and validation procedures.
#
#######################################################################

data_UFEMUO
_symmetry_cell_setting           monoclinic
_symmetry_space_group_name_H-M   'C 2/c'
_symmetry_Int_Tables_number      15
_space_group_name_Hall           '-C 2yn'
loop_
_symmetry_equiv_pos_site_id
_symmetry_equiv_pos_as_xyz
1 x,y,z
2 1/2+x,1/2+y,z
3 -x,y,1/2-z
4 1/2-x,1/2+y,1/2-z
5 -x,-y,-z
6 1/2-x,1/2-y,-z
7 x,-y,1/2+z
8 1/2+x,1/2-y,1/2+z
_cell_length_a                   13.491(3)
_cell_length_b                   6.6105(16)
_cell_length_c                   8.882(2)
_cell_angle_alpha                90
_cell_angle_beta                 129.631(3)
_cell_angle_gamma                90
_cell_volume                     610.063
loop_
_atom_site_label
_atom_site_type_symbol
_atom_site_fract_x
_atom_site_fract_y
_atom_site_fract_z
Ni1 Ni 0.5000 0.73670(9) 0.2500
O1 O 0.3920(2) 0.4992(4) 0.2451(3)
C1 C 0.4411(3) 0.4396(5) 0.4129(5)
O2 O 0.4052(2) 0.2914(3) 0.4546(3)
N1 N 0.3646(3) 0.9430(5) 0.1904(5)
H1 H 0.3051 0.8801 0.1876
H2 H 0.3275 1.0005 0.0749
H3 H 0.4027 1.0377 0.2829
Ni1F Ni 0.5000 0.26330(9) 0.7500
O1D O 0.6080(2) 0.5008(4) 0.7549(3)
O1B O 0.6080(2) 0.4992(4) 0.2549(3)
C1D C 0.5589(3) 0.5604(5) 0.5871(5)
O2D O 0.5948(2) 0.7086(3) 0.5454(3)
O2F O 0.4052(2) 0.7086(3) -0.0454(3)
N1B N 0.6354(3) 0.9430(5) 0.3096(5)
H1B H 0.6949 0.8801 0.3124
H2B H 0.6725 1.0005 0.4251
H3B H 0.5973 1.0377 0.2171
loop_
_geom_bond_atom_site_label_1
_geom_bond_atom_site_label_2
_geom_bond_site_symmetry_1
_geom_bond_site_symmetry_2
Ni1 O1 1_555 1_555
O1 C1 1_555 1_555
C1 O2 1_555 1_555
O2 Ni1F 1_555 1_555
N1 Ni1 1_555 1_555
H1 N1 1_555 1_555
H2 N1 1_555 1_555
H3 N1 1_555 1_555
Ni1F O1D 1_555 1_555
O1D C1D 1_555 1_555
O1B Ni1 1_555 1_555
C1D C1 1_555 1_555
O2D Ni1 1_555 1_555
O2F Ni1 1_555 1_555
N1B Ni1 1_555 1_555
H1B N1B 1_555 1_555
H2B N1B 1_555 1_555
H3B N1B 1_555 1_555
C1D O2D 1_555 1_555

#END
