
#######################################################################
#
#                 Cambridge Crystallographic Data Centre
#                                CCDC 
#
#######################################################################
#
# If this CIF has been generated from an entry in the Cambridge 
# Structural Database, then it will include bibliographic, chemical, 
# crystal, experimental, refinement or atomic coordinate data resulting 
# from the CCDC's data processing and validation procedures.
#
#######################################################################

data_UFETUV
_symmetry_cell_setting           monoclinic
_symmetry_space_group_name_H-M   'C 2/c'
_symmetry_Int_Tables_number      15
_space_group_name_Hall           '-C 2yn'
loop_
_symmetry_equiv_pos_site_id
_symmetry_equiv_pos_as_xyz
1 x,y,z
2 1/2+x,1/2+y,z
3 -x,y,1/2-z
4 1/2-x,1/2+y,1/2-z
5 -x,-y,-z
6 1/2-x,1/2-y,-z
7 x,-y,1/2+z
8 1/2+x,1/2-y,1/2+z
_cell_length_a                   29.534(10)
_cell_length_b                   8.242(3)
_cell_length_c                   26.163(9)
_cell_angle_alpha                90
_cell_angle_beta                 101.380(7)
_cell_angle_gamma                90
_cell_volume                     6243.37
loop_
_atom_site_label
_atom_site_type_symbol
_atom_site_fract_x
_atom_site_fract_y
_atom_site_fract_z
Yb1 Yb 0.049930(8) -0.09671(3) 0.303830(10)
Yb2 Yb -0.038380(7) -0.77001(3) 0.297190(10)
Cu1 Cu 0.24510(3) -0.09357(10) 0.10465(4)
Cu2 Cu 0.20777(3) 0.20226(12) 0.51110(4)
I1 I 0.185340(16) 0.09559(5) 0.047020(19)
I2 I 0.262020(14) -0.39115(5) 0.076440(18)
C1 C 0.13099(18) 0.0229(7) 0.2415(2)
C2 C 0.17549(19) -0.0506(7) 0.2339(3)
C3 C 0.1887(2) -0.0471(7) 0.1870(3)
H1 H 0.1697 0.0075 0.1598
C4 C 0.2544(3) -0.1908(10) 0.2164(3)
H2 H 0.2809 -0.2413 0.2102
C5 C 0.2449(3) -0.1964(11) 0.2678(3)
H3 H 0.2656 -0.2444 0.2949
C6 C 0.2048(2) -0.1302(9) 0.2761(3)
H4 H 0.1968 -0.1367 0.3086
C7 C 0.0388(2) 0.1340(7) 0.3982(2)
C8 C 0.0679(2) 0.2470(7) 0.4359(3)
C9 C 0.1140(2) 0.2103(8) 0.4530(3)
H5 H 0.1245 0.1120 0.4423
C10 C 0.1285(3) 0.4478(8) 0.4966(3)
H6 H 0.1492 0.5187 0.5167
C11 C 0.0836(3) 0.4953(10) 0.4819(3)
H7 H 0.0743 0.5961 0.4921
C12 C 0.0519(2) 0.3935(8) 0.4520(3)
H8 H 0.0208 0.4218 0.4429
C13 C -0.00871(19) -0.4171(6) 0.3412(2)
C14 C -0.0552(2) -0.4297(7) 0.3572(3)
C15 C -0.0756(3) -0.2991(9) 0.3762(3)
H9 H -0.0590 -0.2032 0.3835
C16 C -0.1389(3) -0.4451(10) 0.3768(4)
H10 H -0.1688 -0.4542 0.3830
C17 C -0.1193(2) -0.5815(9) 0.3599(3)
H11 H -0.1354 -0.6791 0.3558
C18 C 0.08681(18) -0.4459(7) 0.2779(2)
C19 C 0.12064(18) -0.4120(6) 0.3278(2)
C20 C 0.1579(2) -0.5129(7) 0.3451(3)
H12 H 0.1597 -0.6112 0.3282
C21 C 0.1843(2) -0.3380(8) 0.4117(3)
H13 H 0.2058 -0.3086 0.4412
C22 C 0.1463(2) -0.2426(7) 0.3961(3)
H14 H 0.1421 -0.1525 0.4161
N1 N 0.22667(18) -0.1160(6) 0.1771(2)
N2 N 0.14445(19) 0.3035(7) 0.4835(2)
N3 N -0.07619(16) -0.5719(6) 0.3493(2)
N4 N -0.1191(2) -0.3071(9) 0.3845(3)
N5 N 0.19168(17) -0.4723(6) 0.3858(2)
N6 N 0.11483(16) -0.2751(6) 0.3530(2)
O1 O 0.10991(14) 0.1129(5) 0.20649(19)
O2 O 0.11842(13) -0.0104(5) 0.28394(18)
O3 O 0.05889(14) 0.0127(5) 0.38327(17)
O4 O -0.00333(14) 0.1695(5) 0.38219(17)
O5 O 0.00486(13) -0.5417(5) 0.32089(17)
O6 O 0.01283(14) -0.2851(5) 0.34895(18)
O7 O 0.06188(14) -0.3282(5) 0.25928(16)
O8 O 0.08722(13) -0.5849(4) 0.25900(18)
O9 O 0.03653(12) 0.1792(4) 0.28828(15)
O10 O 0.02748(12) -0.0459(5) 0.21506(16)
Yb1B Yb -0.049930(8) -0.09671(3) 0.196170(10)
Yb2B Yb 0.038380(7) 0.22999(3) 0.202810(10)
Yb2_2 Yb -0.038380(7) 0.22999(3) 0.297190(10)
Yb2B_2 Yb 0.038380(7) -0.77001(3) 0.202810(10)
Cu1C Cu 0.25490(3) -0.59357(10) 0.39535(4)
Cu2F Cu 0.20777(3) -0.20226(12) 0.01110(4)
Cu2C Cu 0.29223(3) -0.29774(12) -0.01110(4)
I1F I 0.185340(16) -0.09559(5) 0.547020(19)
I2F I 0.262020(14) 0.39115(5) 0.576440(18)
I2C I 0.237980(14) 0.10885(5) 0.423560(18)
N5C N 0.30832(17) 0.0277(6) 0.1142(2)
O1B O -0.10991(14) -0.8871(5) 0.29351(19)
O4_2 O -0.00333(14) -0.8305(5) 0.38219(17)
O8B O -0.08722(13) -0.5849(4) 0.24100(18)
O9_2 O 0.03653(12) -0.8208(4) 0.28828(15)
O9B O -0.03653(12) -0.8208(4) 0.21172(15)
O10B O -0.02748(12) -0.0459(5) 0.28494(16)
O10B_2 O -0.02748(12) -1.0459(5) 0.28494(16)
loop_
_geom_bond_atom_site_label_1
_geom_bond_atom_site_label_2
_geom_bond_site_symmetry_1
_geom_bond_site_symmetry_2
Yb1 N6 1_555 1_555
Yb2 N3 1_555 1_555
Cu1 I1 1_555 1_555
Cu2 N2 1_555 1_555
I1 Cu2F 1_555 1_555
I2 Cu1 1_555 1_555
C1 C2 1_555 1_555
C2 C3 1_555 1_555
C3 H1 1_555 1_555
C4 H2 1_555 1_555
C5 C4 1_555 1_555
H3 C5 1_555 1_555
C6 C2 1_555 1_555
H4 C6 1_555 1_555
C7 C8 1_555 1_555
C8 C9 1_555 1_555
C9 H5 1_555 1_555
C10 H6 1_555 1_555
C11 C10 1_555 1_555
H7 C11 1_555 1_555
C12 C8 1_555 1_555
H8 C12 1_555 1_555
C13 C14 1_555 1_555
C14 C15 1_555 1_555
C15 H9 1_555 1_555
C16 H10 1_555 1_555
C17 C16 1_555 1_555
H11 C17 1_555 1_555
C18 C19 1_555 1_555
C19 C20 1_555 1_555
C20 H12 1_555 1_555
C21 H13 1_555 1_555
C22 C21 1_555 1_555
H14 C22 1_555 1_555
N1 Cu1 1_555 1_555
N2 C9 1_555 1_555
N3 C14 1_555 1_555
N4 C15 1_555 1_555
N5 C20 1_555 1_555
N6 C19 1_555 1_555
O1 C1 1_555 1_555
O2 Yb1 1_555 1_555
O3 Yb1 1_555 1_555
O4 C7 1_555 1_555
O5 Yb2 1_555 1_555
O6 Yb1 1_555 1_555
O7 Yb1 1_555 1_555
O8 C18 1_555 1_555
O9 Yb1 1_555 1_555
O10 Yb1 1_555 1_555
Yb1B O10 1_555 1_555
Yb2B O1 1_555 1_555
Yb2_2 O4 1_555 1_555
Yb2B_2 O8 1_555 1_555
Cu1C N5 1_555 1_555
Cu2F I2 1_555 1_555
Cu2C I2 1_555 1_555
I1F Cu2 1_555 1_555
I2F Cu2 1_555 1_555
I2C Cu2 1_555 1_555
N5C Cu1 1_555 1_555
O1B Yb2 1_555 1_555
O4_2 Yb2 1_555 1_555
O8B Yb2 1_555 1_555
O9_2 Yb2 1_555 1_555
O9B Yb2 1_555 1_555
O10B Yb1 1_555 1_555
O10B_2 Yb2 1_555 1_555
C1 O2 1_555 1_555
C3 N1 1_555 1_555
C4 N1 1_555 1_555
C5 C6 1_555 1_555
C7 O3 1_555 1_555
C10 N2 1_555 1_555
C11 C12 1_555 1_555
C13 O5 1_555 1_555
C13 O6 1_555 1_555
C16 N4 1_555 1_555
C17 N3 1_555 1_555
C18 O7 1_555 1_555
C21 N5 1_555 1_555
C22 N6 1_555 1_555
O9 Yb2B 1_555 1_555
O9 Yb2_2 1_555 1_555
O10 Yb2B 1_555 1_555
Yb1B O10B 1_555 1_555
Yb2_2 O10B 1_555 1_555
Yb2B_2 O9_2 1_555 1_555
Yb2B_2 O9B 1_555 1_555

#END
