
#######################################################################
#
#                 Cambridge Crystallographic Data Centre
#                                CCDC 
#
#######################################################################
#
# If this CIF has been generated from an entry in the Cambridge 
# Structural Database, then it will include bibliographic, chemical, 
# crystal, experimental, refinement or atomic coordinate data resulting 
# from the CCDC's data processing and validation procedures.
#
#######################################################################

data_UFETAB
_symmetry_cell_setting           orthorhombic
_symmetry_space_group_name_H-M   'P c a 21'
_symmetry_Int_Tables_number      29
_space_group_name_Hall           'P 2c -2ac'
loop_
_symmetry_equiv_pos_site_id
_symmetry_equiv_pos_as_xyz
1 x,y,z
2 -x,-y,1/2+z
3 1/2+x,-y,z
4 1/2-x,y,1/2+z
_cell_length_a                   7.4412(16)
_cell_length_b                   6.3884(13)
_cell_length_c                   12.680(3)
_cell_angle_alpha                90
_cell_angle_beta                 90
_cell_angle_gamma                90
_cell_volume                     602.774
loop_
_atom_site_label
_atom_site_type_symbol
_atom_site_fract_x
_atom_site_fract_y
_atom_site_fract_z
Ag1 Ag -0.13217(3) 0.58539(4) 0.17573(6)
C1 C -0.2294(5) -0.0193(6) 0.0214(3)
H1 H -0.2770 -0.1002 -0.0327
C2 C -0.1066(5) 0.0782(6) 0.1627(9)
H2 H -0.0513 0.0752 0.2284
C3 C -0.2639(8) 0.3313(6) -0.0629(3)
H3 H -0.2844 0.4690 -0.0330
H4 H -0.3737 0.2876 -0.0977
C4 C -0.1127(5) 0.3447(8) -0.1444(3)
N1 N -0.2231(4) 0.1859(5) 0.0211(2)
N2 N -0.1426(4) 0.2527(6) 0.1113(3)
N3 N -0.1582(4) -0.0963(5) 0.1100(3)
O1 O -0.1154(3) 0.5032(6) -0.2030(3)
O2 O -0.0031(4) 0.1989(5) -0.1476(3)
Ag1_2 Ag -0.13217(3) -0.41461(4) 0.17573(6)
Ag1A Ag 0.13217(3) 0.41461(4) -0.32427(6)
Ag1C Ag -0.36783(3) 0.58539(4) -0.32427(6)
N3_2 N -0.1582(4) 0.9037(5) 0.1100(3)
O1A O 0.1154(3) 0.4968(6) 0.2970(3)
O1C O -0.3846(3) 0.5032(6) 0.2970(3)
loop_
_geom_bond_atom_site_label_1
_geom_bond_atom_site_label_2
_geom_bond_site_symmetry_1
_geom_bond_site_symmetry_2
Ag1 N2 1_555 1_555
C1 H1 1_555 1_555
C2 H2 1_555 1_555
C3 H3 1_555 1_555
H4 C3 1_555 1_555
C4 C3 1_555 1_555
N1 C1 1_555 1_555
N2 C2 1_555 1_555
N3 C1 1_555 1_555
O1 C4 1_555 1_555
O2 C4 1_555 1_555
Ag1_2 N3 1_555 1_555
Ag1A O1 1_555 1_555
Ag1C O1 1_555 1_555
N3_2 Ag1 1_555 1_555
O1A Ag1 1_555 1_555
O1C Ag1 1_555 1_555
C2 N3 1_555 1_555
C3 N1 1_555 1_555
N1 N2 1_555 1_555

#END
