
#######################################################################
#
#                 Cambridge Crystallographic Data Centre
#                                CCDC 
#
#######################################################################
#
# If this CIF has been generated from an entry in the Cambridge 
# Structural Database, then it will include bibliographic, chemical, 
# crystal, experimental, refinement or atomic coordinate data resulting 
# from the CCDC's data processing and validation procedures.
#
#######################################################################

data_UFETOP
_symmetry_cell_setting           monoclinic
_symmetry_space_group_name_H-M   'C 2/c'
_symmetry_Int_Tables_number      15
_space_group_name_Hall           '-C 2yn'
loop_
_symmetry_equiv_pos_site_id
_symmetry_equiv_pos_as_xyz
1 x,y,z
2 1/2+x,1/2+y,z
3 -x,y,1/2-z
4 1/2-x,1/2+y,1/2-z
5 -x,-y,-z
6 1/2-x,1/2-y,-z
7 x,-y,1/2+z
8 1/2+x,1/2-y,1/2+z
_cell_length_a                   29.587(9)
_cell_length_b                   8.280(2)
_cell_length_c                   26.108(8)
_cell_angle_alpha                90
_cell_angle_beta                 101.285(6)
_cell_angle_gamma                90
_cell_volume                     6272.29
loop_
_atom_site_label
_atom_site_type_symbol
_atom_site_fract_x
_atom_site_fract_y
_atom_site_fract_z
Er1 Er 0.050150(7) -0.09353(2) 0.304520(9)
Er2 Er -0.038830(6) -0.76641(2) 0.297770(9)
Cu1 Cu 0.24556(2) -0.09189(8) 0.10481(3)
Cu2 Cu 0.20798(3) 0.20265(10) 0.51150(3)
I1 I 0.185680(13) 0.09416(4) 0.046850(17)
I2 I 0.262470(12) -0.38843(4) 0.077000(15)
C1 C 0.13186(16) 0.0264(6) 0.2420(2)
C2 C 0.17601(17) -0.0462(6) 0.2352(2)
C3 C 0.18911(17) -0.0426(6) 0.1871(2)
H1 H 0.1703 0.0117 0.1598
C4 C 0.2545(2) -0.1883(8) 0.2172(3)
H2 H 0.2810 -0.2387 0.2110
C5 C 0.2449(2) -0.1952(9) 0.2681(3)
H3 H 0.2652 -0.2452 0.2952
C6 C 0.2050(2) -0.1265(8) 0.2766(3)
H4 H 0.1971 -0.1327 0.3093
C7 C 0.03908(17) 0.1391(6) 0.3999(2)
C8 C 0.06878(19) 0.2504(6) 0.4366(2)
C9 C 0.11448(18) 0.2115(7) 0.4542(2)
H5 H 0.1247 0.1125 0.4441
C10 C 0.1299(2) 0.4493(7) 0.4969(3)
H6 H 0.1508 0.5205 0.5162
C11 C 0.0846(2) 0.4975(8) 0.4821(3)
H7 H 0.0755 0.5977 0.4925
C12 C 0.0536(2) 0.3993(7) 0.4525(3)
H8 H 0.0229 0.4298 0.4429
C13 C -0.00876(16) -0.4128(5) 0.34190(19)
C14 C -0.05517(17) -0.4263(6) 0.3578(2)
C15 C -0.0756(2) -0.2946(7) 0.3768(3)
H9 H -0.0588 -0.1997 0.3842
C16 C -0.1400(2) -0.4372(10) 0.3761(3)
H10 H -0.1703 -0.4439 0.3807
C17 C -0.11952(19) -0.5740(8) 0.3600(3)
H11 H -0.1354 -0.6714 0.3563
C18 C 0.08710(15) -0.4419(5) 0.2780(2)
C19 C 0.12094(15) -0.4100(5) 0.3280(2)
C20 C 0.15798(16) -0.5098(6) 0.3455(2)
H12 H 0.1597 -0.6083 0.3288
C21 C 0.18492(17) -0.3360(6) 0.4116(2)
H13 H 0.2067 -0.3060 0.4408
C22 C 0.14676(18) -0.2418(6) 0.3963(2)
H14 H 0.1426 -0.1528 0.4166
N1 N 0.22747(16) -0.1133(6) 0.1778(2)
N2 N 0.14498(15) 0.3054(6) 0.4847(2)
N3 N -0.07669(14) -0.5660(5) 0.34992(19)
N4 N -0.1185(2) -0.3005(8) 0.3848(3)
N5 N 0.19158(14) -0.4704(5) 0.38566(19)
N6 N 0.11539(14) -0.2721(5) 0.35355(17)
O1 O 0.11077(12) 0.1167(4) 0.20633(16)
O2 O 0.11878(11) -0.0071(5) 0.28397(15)
O3 O 0.05894(12) 0.0164(4) 0.38514(15)
O4 O -0.00264(12) 0.1741(5) 0.38401(15)
O5 O 0.00472(11) -0.5371(4) 0.32144(15)
O6 O 0.01256(12) -0.2826(4) 0.34976(15)
O7 O 0.06236(12) -0.3262(4) 0.25908(14)
O8 O 0.08729(11) -0.5810(4) 0.25899(15)
O9 O 0.03645(10) 0.1830(4) 0.28853(13)
O10 O 0.02748(10) -0.0431(4) 0.21460(14)
Er1B Er -0.050150(7) -0.09353(2) 0.195480(9)
Er2B Er 0.038830(6) 0.23359(2) 0.202230(9)
Er2_2 Er -0.038830(6) 0.23359(2) 0.297770(9)
Er2B_2 Er 0.038830(6) -0.76641(2) 0.202230(9)
Cu1C Cu 0.25444(2) -0.59189(8) 0.39519(3)
Cu2F Cu 0.20798(3) -0.20265(10) 0.01150(3)
Cu2C Cu 0.29202(3) -0.29735(10) -0.01150(3)
I1F I 0.185680(13) -0.09416(4) 0.546850(17)
I2F I 0.262470(12) 0.38843(4) 0.577000(15)
I2C I 0.237530(12) 0.11157(4) 0.423000(15)
N5C N 0.30842(14) 0.0296(5) 0.11434(19)
O1B O -0.11077(12) -0.8833(4) 0.29367(16)
O4_2 O -0.00264(12) -0.8259(5) 0.38401(15)
O8B O -0.08729(11) -0.5810(4) 0.24101(15)
O9_2 O 0.03645(10) -0.8170(4) 0.28853(13)
O9B O -0.03645(10) -0.8170(4) 0.21147(13)
O10B O -0.02748(10) -0.0431(4) 0.28540(14)
O10B_2 O -0.02748(10) -1.0431(4) 0.28540(14)
loop_
_geom_bond_atom_site_label_1
_geom_bond_atom_site_label_2
_geom_bond_site_symmetry_1
_geom_bond_site_symmetry_2
Er1 N6 1_555 1_555
Er2 N3 1_555 1_555
Cu1 I1 1_555 1_555
Cu2 N2 1_555 1_555
I1 Cu2F 1_555 1_555
I2 Cu1 1_555 1_555
C1 C2 1_555 1_555
C2 C3 1_555 1_555
C3 H1 1_555 1_555
C4 H2 1_555 1_555
C5 C4 1_555 1_555
H3 C5 1_555 1_555
C6 C2 1_555 1_555
H4 C6 1_555 1_555
C7 C8 1_555 1_555
C8 C9 1_555 1_555
C9 H5 1_555 1_555
C10 H6 1_555 1_555
C11 C10 1_555 1_555
H7 C11 1_555 1_555
C12 C8 1_555 1_555
H8 C12 1_555 1_555
C13 C14 1_555 1_555
C14 C15 1_555 1_555
C15 H9 1_555 1_555
C16 H10 1_555 1_555
C17 C16 1_555 1_555
H11 C17 1_555 1_555
C18 C19 1_555 1_555
C19 C20 1_555 1_555
C20 H12 1_555 1_555
C21 H13 1_555 1_555
C22 C21 1_555 1_555
H14 C22 1_555 1_555
N1 Cu1 1_555 1_555
N2 C9 1_555 1_555
N3 C14 1_555 1_555
N4 C15 1_555 1_555
N5 C20 1_555 1_555
N6 C19 1_555 1_555
O1 C1 1_555 1_555
O2 Er1 1_555 1_555
O3 Er1 1_555 1_555
O4 C7 1_555 1_555
O5 Er2 1_555 1_555
O6 Er1 1_555 1_555
O7 Er1 1_555 1_555
O8 C18 1_555 1_555
O9 Er1 1_555 1_555
O10 Er1 1_555 1_555
Er1B O10 1_555 1_555
Er2B O1 1_555 1_555
Er2_2 O4 1_555 1_555
Er2B_2 O8 1_555 1_555
Cu1C N5 1_555 1_555
Cu2F I2 1_555 1_555
Cu2C I2 1_555 1_555
I1F Cu2 1_555 1_555
I2F Cu2 1_555 1_555
I2C Cu2 1_555 1_555
N5C Cu1 1_555 1_555
O1B Er2 1_555 1_555
O4_2 Er2 1_555 1_555
O8B Er2 1_555 1_555
O9_2 Er2 1_555 1_555
O9B Er2 1_555 1_555
O10B Er1 1_555 1_555
O10B_2 Er2 1_555 1_555
C1 O2 1_555 1_555
C3 N1 1_555 1_555
C4 N1 1_555 1_555
C5 C6 1_555 1_555
C7 O3 1_555 1_555
C10 N2 1_555 1_555
C11 C12 1_555 1_555
C13 O5 1_555 1_555
C13 O6 1_555 1_555
C16 N4 1_555 1_555
C17 N3 1_555 1_555
C18 O7 1_555 1_555
C21 N5 1_555 1_555
C22 N6 1_555 1_555
O9 Er2B 1_555 1_555
O9 Er2_2 1_555 1_555
O10 Er2B 1_555 1_555
Er1B O10B 1_555 1_555
Er2_2 O10B 1_555 1_555
Er2B_2 O9_2 1_555 1_555
Er2B_2 O9B 1_555 1_555

#END
