
#######################################################################
#
#                 Cambridge Crystallographic Data Centre
#                                CCDC 
#
#######################################################################
#
# If this CIF has been generated from an entry in the Cambridge 
# Structural Database, then it will include bibliographic, chemical, 
# crystal, experimental, refinement or atomic coordinate data resulting 
# from the CCDC's data processing and validation procedures.
#
#######################################################################

data_UFETEF
_symmetry_cell_setting           monoclinic
_symmetry_space_group_name_H-M   'P 21/n'
_symmetry_Int_Tables_number      14
_space_group_name_Hall           '-P 2yn'
loop_
_symmetry_equiv_pos_site_id
_symmetry_equiv_pos_as_xyz
1 x,y,z
2 1/2-x,1/2+y,1/2-z
3 -x,-y,-z
4 1/2+x,1/2-y,1/2+z
_cell_length_a                   13.977(3)
_cell_length_b                   4.4046(8)
_cell_length_c                   14.760(3)
_cell_angle_alpha                90
_cell_angle_beta                 110.365(3)
_cell_angle_gamma                90
_cell_volume                     851.875
loop_
_atom_site_label
_atom_site_type_symbol
_atom_site_fract_x
_atom_site_fract_y
_atom_site_fract_z
Ag1 Ag -0.21485(2) 0.29713(8) 0.65967(2)
C1 C -0.2343(2) -0.1657(8) 0.4843(3)
C2 C -0.1330(3) -0.1789(9) 0.4889(3)
H1 H -0.0816 -0.0747 0.5362
C3 C -0.1127(3) -0.3501(9) 0.4215(3)
H2 H -0.0463 -0.3575 0.4214
C4 C -0.1897(3) -0.5179(10) 0.3513(3)
H3 H -0.1721 -0.6346 0.3069
C5 C -0.2888(2) -0.5139(10) 0.3466(2)
H4 H -0.3392 -0.6273 0.3013
C6 C -0.3097(2) -0.3286(7) 0.4141(2)
C7 C -0.5018(2) -0.3548(8) 0.3775(3)
H5 H -0.5012 -0.5622 0.3556
H6 H -0.5407 -0.3511 0.4206
C8 C -0.5549(2) -0.1512(8) 0.2897(2)
N1 N -0.2803(2) -0.0069(7) 0.5379(2)
N2 N -0.3786(2) -0.0638(7) 0.5048(2)
N3 N -0.3973(2) -0.2589(6) 0.4306(2)
O1 O -0.65100(17) -0.1906(6) 0.25540(19)
O2 O -0.50605(18) 0.0248(6) 0.25944(18)
Ag1C Ag -0.71485(2) 0.20287(8) 0.15967(2)
O1C O -0.15100(17) 0.6906(6) 0.75540(19)
loop_
_geom_bond_atom_site_label_1
_geom_bond_atom_site_label_2
_geom_bond_site_symmetry_1
_geom_bond_site_symmetry_2
Ag1 N1 1_555 1_555
C1 C2 1_555 1_555
C2 H1 1_555 1_555
C3 C2 1_555 1_555
H2 C3 1_555 1_555
C4 C3 1_555 1_555
H3 C4 1_555 1_555
C5 C4 1_555 1_555
H4 C5 1_555 1_555
C6 C1 1_555 1_555
C7 H5 1_555 1_555
H6 C7 1_555 1_555
C8 C7 1_555 1_555
N1 C1 1_555 1_555
N2 N1 1_555 1_555
N3 C6 1_555 1_555
O1 C8 1_555 1_555
O2 C8 1_555 1_555
Ag1C O1 1_555 1_555
O1C Ag1 1_555 1_555
C5 C6 1_555 1_555
C7 N3 1_555 1_555
N2 N3 1_555 1_555

#END
