
#######################################################################
#
#                 Cambridge Crystallographic Data Centre
#                                CCDC 
#
#######################################################################
#
# If this CIF has been generated from an entry in the Cambridge 
# Structural Database, then it will include bibliographic, chemical, 
# crystal, experimental, refinement or atomic coordinate data resulting 
# from the CCDC's data processing and validation procedures.
#
#######################################################################

data_UFEVAD
_symmetry_cell_setting           rhombohedral
_symmetry_space_group_name_H-M   'R -3'
_symmetry_Int_Tables_number      148
_space_group_name_Hall           '-R 3'
loop_
_symmetry_equiv_pos_site_id
_symmetry_equiv_pos_as_xyz
1 x,y,z
2 -y,x-y,z
3 -x+y,-x,z
4 2/3+x,1/3+y,1/3+z
5 2/3-y,1/3+x-y,1/3+z
6 2/3-x+y,1/3-x,1/3+z
7 1/3+x,2/3+y,2/3+z
8 1/3-y,2/3+x-y,2/3+z
9 1/3-x+y,2/3-x,2/3+z
10 -x,-y,-z
11 y,-x+y,-z
12 x-y,x,-z
13 1/3-x,2/3-y,2/3-z
14 1/3+y,2/3-x+y,2/3-z
15 1/3+x-y,2/3+x,2/3-z
16 2/3-x,1/3-y,1/3-z
17 2/3+y,1/3-x+y,1/3-z
18 2/3+x-y,1/3+x,1/3-z
_cell_length_a                   9.8988(5)
_cell_length_b                   9.8988(5)
_cell_length_c                   36.629(4)
_cell_angle_alpha                90
_cell_angle_beta                 90
_cell_angle_gamma                120
_cell_volume                     3108.28
loop_
_atom_site_label
_atom_site_type_symbol
_atom_site_fract_x
_atom_site_fract_y
_atom_site_fract_z
C1 C 1.0011(4) 0.2146(4) 0.06952(9)
H1 H 1.0431 0.1688 0.0844
C2 C 0.9054(5) 0.2695(5) 0.02427(11)
H2 H 0.8663 0.2683 0.0011
C3 C 0.9155(4) 0.3636(4) 0.05126(12)
H3 H 0.8868 0.4398 0.0503
C4 C 1.0181(4) 0.4059(4) 0.11639(9)
H4 H 1.0088 0.3319 0.1350
H5 H 0.9463 0.4423 0.1225
C5 C 1.1819(3) 0.5417(3) 0.11618(8)
C6 C 1.2090(4) 0.6920(4) 0.11617(8)
H6 H 1.1250 0.7095 0.1162
N1 N 0.9611(3) 0.1741(3) 0.03564(7)
N2 N 0.9758(3) 0.3274(3) 0.08059(8)
Cd1 Cd 1.0000 0.0000 0.0000
C1B C 1.2135(6) 0.9989(4) 0.06952(9)
C1A C 1.7854(4) 0.7865(6) 0.06952(9)
C1A_2 C 0.7854(4) -0.2135(6) 0.06952(9)
C1_2 C 0.0011(4) -0.7854(4) 0.06952(9)
C1B_2 C 0.2135(6) -0.0011(4) 0.06952(9)
H1B H 1.1257 0.9569 0.0844
H1A H 1.8312 0.8743 0.0844
H1A_2 H 0.8312 -0.1257 0.0844
H1_2 H 0.0431 -0.8312 0.0844
H1B_2 H 0.1257 -0.0431 0.0844
C2B C 1.3641(7) 1.0946(5) 0.02427(11)
C2A C 1.7305(5) 0.6359(7) 0.02427(11)
C2A_2 C 0.7305(5) -0.3641(7) 0.02427(11)
C2_2 C -0.0946(5) -0.7305(5) 0.02427(11)
C2B_2 C 0.3641(7) 0.0946(5) 0.02427(11)
H2B H 1.4020 1.1337 0.0011
H2A H 1.7317 0.5980 0.0011
H2A_2 H 0.7317 -0.4020 0.0011
H2_2 H -0.1337 -0.7317 0.0011
H2B_2 H 0.4020 0.1337 0.0011
C3B C 1.4481(6) 1.0845(4) 0.05126(12)
C3A C 1.6364(4) 0.5519(6) 0.05126(12)
C3A_2 C 0.6364(4) -0.4481(6) 0.05126(12)
C3_2 C -0.0845(4) -0.6364(4) 0.05126(12)
C3B_2 C 0.4481(6) 0.0845(4) 0.05126(12)
H3B H 1.5530 1.1132 0.0503
H3A H 1.5602 0.4470 0.0503
H3A_2 H 0.5602 -0.5530 0.0503
H3_2 H -0.1132 -0.5602 0.0503
H3B_2 H 0.5530 0.1132 0.0503
C4B C 1.3878(6) 0.9819(4) 0.11639(9)
C4A C 1.5941(4) 0.6122(6) 0.11639(9)
C4A_2 C 0.5941(4) -0.3878(6) 0.11639(9)
C4_2 C 0.0181(4) -0.5941(4) 0.11639(9)
C4B_2 C 0.3878(6) -0.0181(4) 0.11639(9)
H4B H 1.3231 0.9912 0.1350
H4A H 1.6681 0.6769 0.1350
H4A_2 H 0.6681 -0.3231 0.1350
H4_2 H 0.0088 -0.6681 0.1350
H4B_2 H 0.3231 -0.0088 0.1350
H5B H 1.4960 1.0537 0.1225
H5A H 1.5577 0.5040 0.1225
H5A_2 H 0.5577 -0.4960 0.1225
H5_2 H -0.0537 -0.5577 0.1225
H5B_2 H 0.4960 0.0537 0.1225
C5B C 1.3598(4) 0.8181(3) 0.11618(8)
C5A C 1.4583(3) 0.6402(4) 0.11618(8)
C5A_2 C 0.4583(3) -0.3598(4) 0.11618(8)
C5_2 C 0.1819(3) -0.4583(3) 0.11618(8)
C5B_2 C 0.3598(4) -0.1819(3) 0.11618(8)
C6B C 1.4830(6) 0.7910(4) 0.11617(8)
C6A C 1.3080(4) 0.5170(6) 0.11617(8)
C6A_2 C 0.3080(4) -0.4830(6) 0.11617(8)
C6_2 C 0.2090(4) -0.3080(4) 0.11617(8)
C6B_2 C 0.4830(6) -0.2090(4) 0.11617(8)
H6A H 1.2905 0.4155 0.1162
H6B H 1.5845 0.8750 0.1162
H6A_2 H 0.2905 -0.5845 0.1162
H6B_2 H 0.5845 -0.1250 0.1162
H6_2 H 0.1250 -0.2905 0.1162
N1B N 1.2130(4) 1.0389(3) 0.03564(7)
N1A N 1.8259(3) 0.7870(4) 0.03564(7)
N1A_2 N 0.8259(3) -0.2130(4) 0.03564(7)
N1_2 N -0.0389(3) -0.8259(3) 0.03564(7)
N1B_2 N 0.2130(4) 0.0389(3) 0.03564(7)
N1B_3 N 1.2130(4) 0.0389(3) 0.03564(7)
N1I N 1.0389(3) -0.1741(3) -0.03564(7)
N1J N 1.1741(3) 0.2130(4) -0.03564(7)
N1K N 0.7870(4) -0.0389(3) -0.03564(7)
N2B N 1.3516(4) 1.0242(3) 0.08059(8)
N2A N 1.6726(3) 0.6484(4) 0.08059(8)
N2A_2 N 0.6726(3) -0.3516(4) 0.08059(8)
N2_2 N -0.0242(3) -0.6726(3) 0.08059(8)
N2B_2 N 0.3516(4) 0.0242(3) 0.08059(8)
Cd1_2 Cd 1.0000 1.0000 0.0000
Cd1_3 Cd 2.0000 1.0000 0.0000
Cd1_4 Cd 0.0000 -1.0000 0.0000
Cd1_5 Cd 0.0000 0.0000 0.0000
B1 B 0.0000 0.0000 0.15817(18)
F1 F 0.1321(2) 0.1286(2) 0.14488(6)
F2 F 0.0000 0.0000 0.19574(9)
F1A F -0.1286(2) 0.0035(3) 0.14488(6)
F1B F -0.0035(3) -0.1321(2) 0.14488(6)
loop_
_geom_bond_atom_site_label_1
_geom_bond_atom_site_label_2
_geom_bond_site_symmetry_1
_geom_bond_site_symmetry_2
C1 H1 1_555 1_555
C2 H2 1_555 1_555
C3 C2 1_555 1_555
H3 C3 1_555 1_555
C4 H4 1_555 1_555
H5 C4 1_555 1_555
C5 C4 1_555 1_555
C6 C5 1_555 1_555
H6 C6 1_555 1_555
N1 C1 1_555 1_555
N2 C1 1_555 1_555
Cd1 N1 1_555 1_555
B1 F1 1_555 1_555
F2 B1 1_555 1_555
C1B H1B 1_555 1_555
C1A H1A 1_555 1_555
C1A_2 H1A_2 1_555 1_555
C1_2 H1_2 1_555 1_555
C1B_2 H1B_2 1_555 1_555
C2B H2B 1_555 1_555
C2A H2A 1_555 1_555
C2A_2 H2A_2 1_555 1_555
C2_2 H2_2 1_555 1_555
C2B_2 H2B_2 1_555 1_555
C3B C2B 1_555 1_555
C3A C2A 1_555 1_555
C3A_2 C2A_2 1_555 1_555
C3_2 C2_2 1_555 1_555
C3B_2 C2B_2 1_555 1_555
H3B C3B 1_555 1_555
H3A C3A 1_555 1_555
H3A_2 C3A_2 1_555 1_555
H3_2 C3_2 1_555 1_555
H3B_2 C3B_2 1_555 1_555
C4B H4B 1_555 1_555
C4A H4A 1_555 1_555
C4A_2 H4A_2 1_555 1_555
C4_2 H4_2 1_555 1_555
C4B_2 H4B_2 1_555 1_555
H5B C4B 1_555 1_555
H5A C4A 1_555 1_555
H5A_2 C4A_2 1_555 1_555
H5_2 C4_2 1_555 1_555
H5B_2 C4B_2 1_555 1_555
C5B C6 1_555 1_555
C5A C4A 1_555 1_555
C5A_2 C4A_2 1_555 1_555
C5_2 C4_2 1_555 1_555
C5B_2 C4B_2 1_555 1_555
C6B C5B 1_555 1_555
C6A C5 1_555 1_555
C6A_2 C5A_2 1_555 1_555
C6_2 C5_2 1_555 1_555
C6B_2 C5A_2 1_555 1_555
H6A C6A 1_555 1_555
H6B C6B 1_555 1_555
H6A_2 C6A_2 1_555 1_555
H6B_2 C6B_2 1_555 1_555
H6_2 C6_2 1_555 1_555
N1B C1B 1_555 1_555
N1A C1A 1_555 1_555
N1A_2 Cd1 1_555 1_555
N1_2 C1_2 1_555 1_555
N1B_2 C1B_2 1_555 1_555
N1B_3 Cd1 1_555 1_555
N1I Cd1 1_555 1_555
N1J Cd1 1_555 1_555
N1K Cd1 1_555 1_555
N2B C1B 1_555 1_555
N2A C1A 1_555 1_555
N2A_2 C1A_2 1_555 1_555
N2_2 C1_2 1_555 1_555
N2B_2 C1B_2 1_555 1_555
Cd1_2 N1B 1_555 1_555
Cd1_3 N1A 1_555 1_555
Cd1_4 N1_2 1_555 1_555
Cd1_5 N1B_2 1_555 1_555
F1A B1 1_555 1_555
F1B B1 1_555 1_555
C2 N1 1_555 1_555
C3 N2 1_555 1_555
C4 N2 1_555 1_555
C1A_2 N1A_2 1_555 1_555
C2B N1B 1_555 1_555
C2A N1A 1_555 1_555
C2A_2 N1A_2 1_555 1_555
C2_2 N1_2 1_555 1_555
C2B_2 N1B_2 1_555 1_555
C3B N2B 1_555 1_555
C3A N2A 1_555 1_555
C3A_2 N2A_2 1_555 1_555
C3_2 N2_2 1_555 1_555
C3B_2 N2B_2 1_555 1_555
C4B C5B 1_555 1_555
C4B N2B 1_555 1_555
C4A N2A 1_555 1_555
C4A_2 N2A_2 1_555 1_555
C4_2 N2_2 1_555 1_555
C4B_2 N2B_2 1_555 1_555
C5A C6B 1_555 1_555
C5A C6A 1_555 1_555
C5_2 C6A_2 1_555 1_555
C5B_2 C6_2 1_555 1_555
C5B_2 C6B_2 1_555 1_555

#END
