
#######################################################################
#
#                 Cambridge Crystallographic Data Centre
#                                CCDC 
#
#######################################################################
#
# If this CIF has been generated from an entry in the Cambridge 
# Structural Database, then it will include bibliographic, chemical, 
# crystal, experimental, refinement or atomic coordinate data resulting 
# from the CCDC's data processing and validation procedures.
#
#######################################################################

data_UFEVIL
_symmetry_cell_setting           monoclinic
_symmetry_space_group_name_H-M   'C 2/c'
_symmetry_Int_Tables_number      15
_space_group_name_Hall           '-C 2yn'
loop_
_symmetry_equiv_pos_site_id
_symmetry_equiv_pos_as_xyz
1 x,y,z
2 1/2+x,1/2+y,z
3 -x,y,1/2-z
4 1/2-x,1/2+y,1/2-z
5 -x,-y,-z
6 1/2-x,1/2-y,-z
7 x,-y,1/2+z
8 1/2+x,1/2-y,1/2+z
_cell_length_a                   14.294(2)
_cell_length_b                   17.334(3)
_cell_length_c                   22.245(2)
_cell_angle_alpha                90
_cell_angle_beta                 99.827(8)
_cell_angle_gamma                90
_cell_volume                     5430.82
loop_
_atom_site_label
_atom_site_type_symbol
_atom_site_fract_x
_atom_site_fract_y
_atom_site_fract_z
Cd1 Cd 0.726030(12) 0.427675(10) 0.632563(7)
O1 O 0.86359(12) 0.36667(10) 0.67540(8)
O2 O 0.81044(15) 0.30986(11) 0.58793(8)
O3 O 0.73482(13) 0.52652(11) 0.69980(8)
O4 O 0.58423(15) 0.52891(12) 0.65883(9)
N1 N 0.47307(14) 0.39500(11) 0.49537(9)
N2 N 0.61480(14) 0.41002(12) 0.55030(9)
N3 N 0.41298(14) 0.06474(11) 0.52163(9)
N4 N 0.33304(14) 0.00360(11) 0.58386(9)
N5 N 0.13950(14) 0.20887(11) 0.28224(9)
N6 N 0.15699(16) 0.15749(13) 0.19417(9)
C1 C 0.34379(16) 0.30490(13) 0.45328(10)
C2 C 0.39990(16) 0.24057(13) 0.46974(10)
H1 H 0.4576 0.2457 0.4978
C3 C 0.37227(16) 0.16829(13) 0.44534(10)
C4 C 0.28743(17) 0.16081(13) 0.40505(11)
H2 H 0.2689 0.1116 0.3883
C5 C 0.22899(16) 0.22430(13) 0.38870(10)
C6 C 0.25843(16) 0.29614(13) 0.41269(10)
H3 H 0.2197 0.3401 0.4012
C7 C 0.37078(17) 0.38434(14) 0.47897(12)
H4 H 0.3449 0.4237 0.4483
H5 H 0.3413 0.3926 0.5156
C8 C 0.52317(17) 0.40615(14) 0.55110(11)
H6 H 0.4959 0.4107 0.5870
C9 C 0.62370(18) 0.40115(15) 0.49003(11)
H7 H 0.6820 0.4011 0.4749
C10 C 0.53684(18) 0.39255(15) 0.45577(11)
H8 H 0.5227 0.3861 0.4128
C11 C 0.43347(18) 0.09841(14) 0.46462(12)
H9 H 0.4223 0.0591 0.4319
H10 H 0.5012 0.1135 0.4703
C12 C 0.33889(17) 0.01830(13) 0.52626(11)
H11 H 0.2961 -0.0014 0.4923
C13 C 0.40775(18) 0.04295(14) 0.61735(12)
H12 H 0.4226 0.0432 0.6606
C14 C 0.45723(18) 0.08139(14) 0.57995(12)
H13 H 0.5113 0.1133 0.5917
C15 C 0.13379(18) 0.21479(15) 0.34727(11)
H14 H 0.1026 0.1678 0.3597
H15 H 0.0931 0.2594 0.3533
C16 C 0.1535(2) 0.14414(15) 0.25206(11)
H16 H 0.1601 0.0944 0.2703
C17 C 0.1431(2) 0.23528(16) 0.18699(12)
H17 H 0.1412 0.2625 0.1497
C18 C 0.1323(2) 0.26773(16) 0.24042(13)
H18 H 0.1219 0.3208 0.2477
C19 C 0.87010(19) 0.31537(15) 0.63611(12)
C20 C 0.9515(3) 0.2602(2) 0.65013(16)
H19 H 0.9296 0.2121 0.6662
H20 H 1.0014 0.2831 0.6806
H21 H 0.9769 0.2493 0.6128
C21 C 0.65199(19) 0.55455(14) 0.69513(11)
C22 C 0.6390(2) 0.62241(18) 0.73485(14)
H22 H 0.6474 0.6703 0.7130
H23 H 0.6862 0.6201 0.7724
H24 H 0.5751 0.6211 0.7451
Cd1A Cd 1.226030(12) 0.927675(10) 0.632563(7)
Cd1A_2 Cd 0.226030(12) -0.072325(10) 0.632563(7)
Cd1G Cd 0.226030(12) 0.072325(10) 0.132563(7)
Cd1F Cd 0.726030(12) 0.572325(10) 0.132563(7)
O1A O 1.36359(12) 0.86667(10) 0.67540(8)
O2A O 1.31044(15) 0.80986(11) 0.58793(8)
O3A O 1.23482(13) 1.02652(11) 0.69980(8)
O4A O 1.08423(15) 1.02891(12) 0.65883(9)
N1A N 0.97307(14) 0.89500(11) 0.49537(9)
N2A N 1.11480(14) 0.91002(12) 0.55030(9)
N3A N 0.91298(14) 0.56474(11) 0.52163(9)
N4A N 0.83304(14) 0.50360(11) 0.58386(9)
N4_2 N 1.33304(14) 1.00360(11) 0.58386(9)
N5A N 0.63950(14) 0.70887(11) 0.28224(9)
N6A N 0.65699(16) 0.65749(13) 0.19417(9)
N6G N 0.65699(16) 0.34251(13) 0.69417(9)
N6F N 1.15699(16) 0.84251(13) 0.69417(9)
C1A C 0.84379(16) 0.80490(13) 0.45328(10)
C2A C 0.89990(16) 0.74057(13) 0.46974(10)
H1A H 0.9576 0.7457 0.4978
C3A C 0.87227(16) 0.66829(13) 0.44534(10)
C4A C 0.78743(17) 0.66081(13) 0.40505(11)
H2A H 0.7689 0.6116 0.3883
C5A C 0.72899(16) 0.72430(13) 0.38870(10)
C6A C 0.75843(16) 0.79614(13) 0.41269(10)
H3A H 0.7197 0.8401 0.4012
C7A C 0.87078(17) 0.88434(14) 0.47897(12)
H4A H 0.8449 0.9237 0.4483
H5A H 0.8413 0.8926 0.5156
C8A C 1.02317(17) 0.90615(14) 0.55110(11)
H6A H 0.9959 0.9107 0.5870
C9A C 1.12370(18) 0.90115(15) 0.49003(11)
H7A H 1.1820 0.9011 0.4749
C10A C 1.03684(18) 0.89255(15) 0.45577(11)
H8A H 1.0227 0.8861 0.4128
C11A C 0.93347(18) 0.59841(14) 0.46462(12)
H9A H 0.9223 0.5591 0.4319
H10A H 1.0012 0.6135 0.4703
C12A C 0.83889(17) 0.51830(13) 0.52626(11)
H11A H 0.7961 0.4986 0.4923
C13A C 0.90775(18) 0.54295(14) 0.61735(12)
H12A H 0.9226 0.5432 0.6606
C14A C 0.95723(18) 0.58139(14) 0.57995(12)
H13A H 1.0113 0.6133 0.5917
C15A C 0.63379(18) 0.71479(15) 0.34727(11)
H14A H 0.6026 0.6678 0.3597
H15A H 0.5931 0.7594 0.3533
C16A C 0.6535(2) 0.64414(15) 0.25206(11)
H16A H 0.6601 0.5944 0.2703
C17A C 0.6431(2) 0.73528(16) 0.18699(12)
H17A H 0.6412 0.7625 0.1497
C18A C 0.6323(2) 0.76773(16) 0.24042(13)
H18A H 0.6219 0.8208 0.2477
C19A C 1.37010(19) 0.81537(15) 0.63611(12)
C20A C 1.4515(3) 0.7602(2) 0.65013(16)
H19A H 1.4296 0.7121 0.6662
H20A H 1.5014 0.7831 0.6806
H21A H 1.4769 0.7493 0.6128
C21A C 1.15199(19) 1.05455(14) 0.69513(11)
C22A C 1.1390(2) 1.12241(18) 0.73485(14)
H22A H 1.1474 1.1703 0.7130
H23A H 1.1862 1.1201 0.7724
H24A H 1.0751 1.1211 0.7451
O5 O 1.0000 0.44377(16) 0.7500
H25 H 0.958(2) 0.4112(17) 0.7269(13)
H25B H 1.042(2) 0.4112(17) 0.7731(13)
O6 O 0.83638(16) 0.30101(13) 0.46292(10)
H26 H 0.832(2) 0.3025(19) 0.5012(16)
H27 H 0.798(2) 0.269(2) 0.4477(15)
O7 O 0.77917(16) 0.56401(14) 0.89233(10)
H28 H 0.812(3) 0.5558(19) 0.8630(16)
H29 H 0.796(3) 0.603(2) 0.9083(16)
O8 O 0.39078(17) 0.47969(13) 0.64871(11)
H30 H 0.445(3) 0.504(2) 0.6578(15)
H31 H 0.346(3) 0.514(2) 0.6385(15)
O9 O 0.87399(17) 0.54367(16) 0.79707(11)
H32 H 0.904(3) 0.508(2) 0.7926(17)
H33 H 0.823(3) 0.538(2) 0.7649(17)
loop_
_geom_bond_atom_site_label_1
_geom_bond_atom_site_label_2
_geom_bond_site_symmetry_1
_geom_bond_site_symmetry_2
Cd1 O1 1_555 1_555
O1 C19 1_555 1_555
O2 Cd1 1_555 1_555
O3 Cd1 1_555 1_555
O4 C21 1_555 1_555
N1 C7 1_555 1_555
N2 Cd1 1_555 1_555
N3 C11 1_555 1_555
N4 C12 1_555 1_555
N5 C15 1_555 1_555
N6 C16 1_555 1_555
C1 C2 1_555 1_555
C2 H1 1_555 1_555
C3 C2 1_555 1_555
C4 C3 1_555 1_555
H2 C4 1_555 1_555
C5 C4 1_555 1_555
C6 C1 1_555 1_555
H3 C6 1_555 1_555
C7 C1 1_555 1_555
H4 C7 1_555 1_555
H5 C7 1_555 1_555
C8 N1 1_555 1_555
H6 C8 1_555 1_555
C9 N2 1_555 1_555
H7 C9 1_555 1_555
C10 N1 1_555 1_555
H8 C10 1_555 1_555
C11 C3 1_555 1_555
H9 C11 1_555 1_555
H10 C11 1_555 1_555
C12 N3 1_555 1_555
H11 C12 1_555 1_555
C13 N4 1_555 1_555
H12 C13 1_555 1_555
C14 N3 1_555 1_555
H13 C14 1_555 1_555
C15 C5 1_555 1_555
H14 C15 1_555 1_555
H15 C15 1_555 1_555
C16 N5 1_555 1_555
H16 C16 1_555 1_555
C17 N6 1_555 1_555
H17 C17 1_555 1_555
C18 N5 1_555 1_555
H18 C18 1_555 1_555
C19 O2 1_555 1_555
C20 C19 1_555 1_555
H19 C20 1_555 1_555
H20 C20 1_555 1_555
H21 C20 1_555 1_555
C21 O3 1_555 1_555
C22 C21 1_555 1_555
H22 C22 1_555 1_555
H23 C22 1_555 1_555
H24 C22 1_555 1_555
O5 H25 1_555 1_555
O6 H26 1_555 1_555
H27 O6 1_555 1_555
O7 H28 1_555 1_555
H29 O7 1_555 1_555
O8 H30 1_555 1_555
H31 O8 1_555 1_555
O9 H32 1_555 1_555
H33 O9 1_555 1_555
Cd1A O1A 1_555 1_555
Cd1A_2 N4 1_555 1_555
Cd1G N6 1_555 1_555
Cd1F N6A 1_555 1_555
O1A C19A 1_555 1_555
O2A Cd1A 1_555 1_555
O3A Cd1A 1_555 1_555
O4A C21A 1_555 1_555
N1A C7A 1_555 1_555
N2A Cd1A 1_555 1_555
N3A C11A 1_555 1_555
N4A Cd1 1_555 1_555
N4_2 Cd1A 1_555 1_555
N5A C15A 1_555 1_555
N6A C16A 1_555 1_555
N6G Cd1 1_555 1_555
N6F Cd1A 1_555 1_555
C1A C2A 1_555 1_555
C2A H1A 1_555 1_555
C3A C2A 1_555 1_555
C4A C3A 1_555 1_555
H2A C4A 1_555 1_555
C5A C4A 1_555 1_555
C6A C1A 1_555 1_555
H3A C6A 1_555 1_555
C7A C1A 1_555 1_555
H4A C7A 1_555 1_555
H5A C7A 1_555 1_555
C8A N1A 1_555 1_555
H6A C8A 1_555 1_555
C9A N2A 1_555 1_555
H7A C9A 1_555 1_555
C10A N1A 1_555 1_555
H8A C10A 1_555 1_555
C11A C3A 1_555 1_555
H9A C11A 1_555 1_555
H10A C11A 1_555 1_555
C12A N3A 1_555 1_555
H11A C12A 1_555 1_555
C13A N4A 1_555 1_555
H12A C13A 1_555 1_555
C14A N3A 1_555 1_555
H13A C14A 1_555 1_555
C15A C5A 1_555 1_555
H14A C15A 1_555 1_555
H15A C15A 1_555 1_555
C16A N5A 1_555 1_555
H16A C16A 1_555 1_555
C17A N6A 1_555 1_555
H17A C17A 1_555 1_555
C18A N5A 1_555 1_555
H18A C18A 1_555 1_555
C19A O2A 1_555 1_555
C20A C19A 1_555 1_555
H19A C20A 1_555 1_555
H20A C20A 1_555 1_555
H21A C20A 1_555 1_555
C21A O3A 1_555 1_555
C22A C21A 1_555 1_555
H22A C22A 1_555 1_555
H23A C22A 1_555 1_555
H24A C22A 1_555 1_555
H25B O5 1_555 1_555
N2 C8 1_555 1_555
C5 C6 1_555 1_555
C9 C10 1_555 1_555
C13 C14 1_555 1_555
C17 C18 1_555 1_555
N2A C8A 1_555 1_555
N4A C12A 1_555 1_555
C5A C6A 1_555 1_555
C9A C10A 1_555 1_555
C13A C14A 1_555 1_555
C17A C18A 1_555 1_555

#END
