
#######################################################################
#
#                 Cambridge Crystallographic Data Centre
#                                CCDC 
#
#######################################################################
#
# If this CIF has been generated from an entry in the Cambridge 
# Structural Database, then it will include bibliographic, chemical, 
# crystal, experimental, refinement or atomic coordinate data resulting 
# from the CCDC's data processing and validation procedures.
#
#######################################################################

data_UFEWOS
_symmetry_cell_setting           monoclinic
_symmetry_space_group_name_H-M   'P c'
_symmetry_Int_Tables_number      7
_space_group_name_Hall           'P -2yc'
loop_
_symmetry_equiv_pos_site_id
_symmetry_equiv_pos_as_xyz
1 x,y,z
2 x,-y,1/2+z
_cell_length_a                   5.4220(3)
_cell_length_b                   6.2926(4)
_cell_length_c                   14.5732(10)
_cell_angle_alpha                90
_cell_angle_beta                 98.472(4)
_cell_angle_gamma                90
_cell_volume                     491.79
loop_
_atom_site_label
_atom_site_type_symbol
_atom_site_fract_x
_atom_site_fract_y
_atom_site_fract_z
U1 U 0.56618(11) 0.698714(18) 0.93822(9)
O1 O 0.8516(8) 0.8289(6) 0.9684(3)
O2 O 0.2779(7) 0.5670(6) 0.9065(3)
O3 O 0.5190(8) 0.8569(6) 0.7896(3)
O4 O 0.6480(7) 0.9185(6) 0.6529(2)
O5 O 0.7389(6) 0.6138(5) 0.5066(2)
O6 O 1.1038(9) 0.7630(8) 0.5671(4)
O7 O 0.3853(7) 1.0535(5) 0.9505(2)
H1 H 0.4875 1.1833 0.9614
H2 H 0.2557 1.0967 0.9817
O8 O 0.4603(8) 0.7298(6) 1.0903(3)
H3 H 0.3582 0.6867 1.1294
H4 H 0.5268 0.8630 1.1156
N1 N 0.7615(7) 0.4883(7) 0.8077(3)
N2 N 1.0509(9) 0.3567(7) 0.6754(3)
C1 C 0.7710(9) 0.6008(8) 0.7298(3)
C2 C 0.9119(9) 0.5342(8) 0.6626(4)
C3 C 1.0367(10) 0.2416(10) 0.7518(5)
H5 H 1.1294 0.1173 0.7619
C4 C 0.8861(13) 0.3043(7) 0.8167(4)
H6 H 0.8720 0.2167 0.8670
C5 C 0.6340(11) 0.8096(7) 0.7218(4)
C6 C 0.9224(10) 0.6522(8) 0.5726(4)
U1A U 0.56618(11) 0.301286(18) 0.43822(9)
O5A O 0.7389(6) 0.3862(5) 1.0066(2)
loop_
_geom_bond_atom_site_label_1
_geom_bond_atom_site_label_2
_geom_bond_site_symmetry_1
_geom_bond_site_symmetry_2
U1 O1 1_555 1_555
O2 U1 1_555 1_555
O3 U1 1_555 1_555
O4 C5 1_555 1_555
O5 C6 1_555 1_555
O6 C6 1_555 1_555
O7 U1 1_555 1_555
H1 O7 1_555 1_555
H2 O7 1_555 1_555
O8 U1 1_555 1_555
H3 O8 1_555 1_555
H4 O8 1_555 1_555
N1 U1 1_555 1_555
N2 C2 1_555 1_555
C1 N1 1_555 1_555
C2 C1 1_555 1_555
C3 N2 1_555 1_555
H5 C3 1_555 1_555
C4 N1 1_555 1_555
H6 C4 1_555 1_555
C5 O3 1_555 1_555
C6 C2 1_555 1_555
U1A O5 1_555 1_555
O5A U1 1_555 1_555
C1 C5 1_555 1_555
C3 C4 1_555 1_555

#END
