
#######################################################################
#
#                 Cambridge Crystallographic Data Centre
#                                CCDC 
#
#######################################################################
#
# If this CIF has been generated from an entry in the Cambridge 
# Structural Database, then it will include bibliographic, chemical, 
# crystal, experimental, refinement or atomic coordinate data resulting 
# from the CCDC's data processing and validation procedures.
#
#######################################################################

data_UFEXAF
_symmetry_cell_setting           monoclinic
_symmetry_space_group_name_H-M   'P 21/c'
_symmetry_Int_Tables_number      14
_space_group_name_Hall           '-P 2ybc'
loop_
_symmetry_equiv_pos_site_id
_symmetry_equiv_pos_as_xyz
1 x,y,z
2 -x,1/2+y,1/2-z
3 -x,-y,-z
4 x,1/2-y,1/2+z
_cell_length_a                   7.8884(5)
_cell_length_b                   30.599(2)
_cell_length_c                   8.2540(4)
_cell_angle_alpha                90
_cell_angle_beta                 90.070(4)
_cell_angle_gamma                90
_cell_volume                     1992.33
loop_
_atom_site_label
_atom_site_type_symbol
_atom_site_fract_x
_atom_site_fract_y
_atom_site_fract_z
U1 U 0.73032(2) 0.117968(7) 0.38762(2)
U2 U 0.61564(2) -0.160370(7) 0.24643(2)
Cs1 Cs 0.95061(4) 0.085065(13) 0.92941(4)
O1 O 0.7942(4) 0.10270(14) 0.5852(4)
O2 O 0.6661(4) 0.13506(13) 0.1923(4)
O3 O 0.8288(4) -0.14930(13) 0.3010(4)
O4 O 0.4003(4) -0.16933(13) 0.1915(4)
O5 O 0.8266(4) 0.05248(13) 0.2809(4)
O6 O 0.8028(5) -0.01276(14) 0.1602(5)
O7 O 0.5706(5) -0.08476(14) 0.2578(4)
O8 O 0.4612(5) -0.06348(14) 0.0209(4)
O9 O 1.0143(4) 0.13456(14) 0.3143(4)
O10 O 1.2433(4) 0.17738(13) 0.2949(4)
O11 O 1.3456(4) 0.22661(13) 0.6017(4)
O12 O 1.3196(4) 0.28347(13) 0.4375(4)
O13 O 0.4914(4) 0.14829(13) 0.4919(4)
H1 H 0.4460 0.1673 0.4407
O14 O 0.6823(4) -0.12899(13) -0.0191(4)
H2 H 0.6481 -0.1020 -0.0213
H3 H 0.6961 -0.1393 -0.1186
N1 N 0.5050(5) 0.05570(16) 0.3541(5)
N2 N 0.2773(5) -0.01068(17) 0.2660(5)
N3 N 0.8325(5) 0.19809(16) 0.4404(5)
N4 N 0.9745(5) 0.27614(16) 0.5460(5)
C1 C 0.5585(7) 0.0194(2) 0.2820(6)
C2 C 0.4463(7) -0.0146(2) 0.2417(6)
C3 C 0.2267(7) 0.0257(2) 0.3364(6)
H4 H 0.1114 0.0293 0.3556
C4 C 0.3370(7) 0.0591(2) 0.3837(6)
H5 H 0.2947 0.0838 0.4358
C5 C 0.7441(7) 0.0182(2) 0.2350(6)
C6 C 0.4991(6) -0.0573(2) 0.1647(7)
C7 C 1.0012(6) 0.20469(19) 0.4328(6)
C8 C 1.0709(7) 0.2432(2) 0.4919(6)
C9 C 0.8084(7) 0.2697(2) 0.5438(6)
H6 H 0.7375 0.2924 0.5758
C10 C 0.7357(7) 0.2303(2) 0.4957(6)
H7 H 0.6189 0.2265 0.5023
C11 C 1.0963(7) 0.1694(2) 0.3411(6)
C12 C 1.2595(7) 0.2510(2) 0.5086(6)
U1_2 U 0.73032(2) 0.117968(7) 1.38762(2)
U2B U 1.38436(2) 0.160370(7) 0.75357(2)
U2A U 1.38436(2) 0.339630(7) 0.25357(2)
U2B_2 U 0.38436(2) 0.160370(7) 0.75357(2)
Cs1_2 Cs 0.95061(4) 0.085065(13) -0.07059(4)
Cs1B Cs 1.04939(4) -0.085065(13) 1.07059(4)
Cs1B_2 Cs 1.04939(4) -0.085065(13) 0.07059(4)
Cs1B_3 Cs 0.04939(4) -0.085065(13) 0.07059(4)
O2_2 O 0.6661(4) 0.13506(13) 1.1923(4)
O3B O 1.1712(4) 0.14930(13) 0.6990(4)
O5_2 O 0.8266(4) 0.05248(13) 1.2809(4)
O6_2 O 0.8028(5) -0.01276(14) 1.1602(5)
O6B O 1.1972(5) 0.01276(14) 0.8398(5)
O8B O 0.5388(5) 0.06348(14) 0.9791(4)
O9_2 O 1.0143(4) 0.13456(14) 1.3143(4)
O11B O 0.6544(4) -0.22661(13) 0.3983(4)
O12A O 0.6804(4) -0.21653(13) 0.0625(4)
O13B O 0.5086(4) -0.14829(13) 0.5081(4)
H1B H 0.5540 -0.1673 0.5593
O14B O 1.3177(4) 0.12899(13) 1.0191(4)
H2B H 1.3519 0.1020 1.0213
H3B H 1.3039 0.1393 1.1186
N2B N 0.7227(5) 0.01068(17) 0.7340(5)
loop_
_geom_bond_atom_site_label_1
_geom_bond_atom_site_label_2
_geom_bond_site_symmetry_1
_geom_bond_site_symmetry_2
U1 O1 1_555 1_555
U2 O3 1_555 1_555
Cs1 O1 1_555 1_555
O2 U1 1_555 1_555
O3 Cs1B_2 1_555 1_555
O4 U2 1_555 1_555
O5 U1 1_555 1_555
O6 C5 1_555 1_555
O7 U2 1_555 1_555
O8 C6 1_555 1_555
O9 U1 1_555 1_555
O10 C11 1_555 1_555
O11 C12 1_555 1_555
O12 C12 1_555 1_555
O13 U1 1_555 1_555
H1 O13 1_555 1_555
O14 U2 1_555 1_555
H2 O14 1_555 1_555
H3 O14 1_555 1_555
N1 U1 1_555 1_555
N2 C2 1_555 1_555
N3 U1 1_555 1_555
N4 C8 1_555 1_555
C1 N1 1_555 1_555
C2 C1 1_555 1_555
C3 N2 1_555 1_555
H4 C3 1_555 1_555
C4 N1 1_555 1_555
H5 C4 1_555 1_555
C5 O5 1_555 1_555
C6 O7 1_555 1_555
C7 N3 1_555 1_555
C8 C7 1_555 1_555
C9 N4 1_555 1_555
H6 C9 1_555 1_555
C10 N3 1_555 1_555
H7 C10 1_555 1_555
C11 O9 1_555 1_555
C12 C8 1_555 1_555
U1_2 O2_2 1_555 1_555
U2B O11 1_555 1_555
U2A O12 1_555 1_555
U2B_2 O13 1_555 1_555
Cs1_2 O2 1_555 1_555
Cs1B O6_2 1_555 1_555
Cs1B_2 O6 1_555 1_555
Cs1B_3 O8 1_555 1_555
O2_2 Cs1 1_555 1_555
O3B Cs1 1_555 1_555
O5_2 Cs1 1_555 1_555
O6_2 Cs1 1_555 1_555
O6B Cs1 1_555 1_555
O8B Cs1 1_555 1_555
O9_2 Cs1 1_555 1_555
O11B U2 1_555 1_555
O12A U2 1_555 1_555
O13B U2 1_555 1_555
H1B O13B 1_555 1_555
O14B Cs1 1_555 1_555
H2B O14B 1_555 1_555
H3B O14B 1_555 1_555
N2B Cs1 1_555 1_555
O5 Cs1_2 1_555 1_555
O6 Cs1_2 1_555 1_555
O9 Cs1_2 1_555 1_555
O14 Cs1B_2 1_555 1_555
N2 Cs1B_3 1_555 1_555
C1 C5 1_555 1_555
C2 C6 1_555 1_555
C3 C4 1_555 1_555
C7 C11 1_555 1_555
C9 C10 1_555 1_555
U1_2 O5_2 1_555 1_555
U1_2 O9_2 1_555 1_555
U2B O3B 1_555 1_555
U2B O14B 1_555 1_555
Cs1B O6B 1_555 1_555

#END
