
#######################################################################
#
#                 Cambridge Crystallographic Data Centre
#                                CCDC 
#
#######################################################################
#
# If this CIF has been generated from an entry in the Cambridge 
# Structural Database, then it will include bibliographic, chemical, 
# crystal, experimental, refinement or atomic coordinate data resulting 
# from the CCDC's data processing and validation procedures.
#
#######################################################################

data_UFEZAH01
_symmetry_cell_setting           orthorhombic
_symmetry_space_group_name_H-M   'C m c a'
_symmetry_Int_Tables_number      64
_space_group_name_Hall           '-C 2ac 2'
loop_
_symmetry_equiv_pos_site_id
_symmetry_equiv_pos_as_xyz
1 x,y,z
2 1/2+x,1/2+y,z
3 -x,1/2-y,1/2+z
4 -x,1/2+y,1/2-z
5 x,-y,-z
6 1/2-x,-y,1/2+z
7 1/2-x,y,1/2-z
8 1/2+x,1/2-y,-z
9 -x,-y,-z
10 1/2-x,1/2-y,-z
11 x,1/2+y,1/2-z
12 x,1/2-y,1/2+z
13 -x,y,z
14 1/2+x,y,1/2-z
15 1/2+x,-y,1/2+z
16 1/2-x,1/2+y,z
_cell_length_a                   13.26520(70)
_cell_length_b                   15.24010(80)
_cell_length_c                   8.36370(50)
_cell_angle_alpha                90
_cell_angle_beta                 90
_cell_angle_gamma                90
_cell_volume                     1690.83
loop_
_atom_site_label
_atom_site_type_symbol
_atom_site_fract_x
_atom_site_fract_y
_atom_site_fract_z
Na1 Na 0.0000 0.39686(12) -0.3252(2)
N1 N 0.0000 0.3960(3) -0.6077(5)
C1 C 0.0855(3) 0.4178(2) -0.6904(4)
H1 H 0.1472 0.4051 -0.6403
C2 C 0.0907(2) 0.4558(2) -0.8371(3)
H2 H 0.1542 0.4673 -0.8823
C3 C 0.0000 0.4793(3) -0.9263(5)
N2 N -0.1216(2) 0.3135(2) -0.1607(4)
H3 H -0.1069 0.3269 -0.0572
H4 H -0.1054 0.2560 -0.1738
C4 C -0.2326(4) 0.3185(5) -0.1745(6)
H5 H -0.2620 0.2685 -0.1176
H6 H -0.2557 0.3721 -0.1212
Na1D Na 0.0000 0.60314(12) -1.6748(2)
Na1F Na -0.5000 0.39686(12) -0.1748(2)
Na1F_2 Na 0.5000 0.39686(12) -0.1748(2)
N1D N 0.0000 0.6040(3) -1.3923(5)
C1L C -0.0855(3) 0.4178(2) -0.6904(4)
C1H C -0.0855(3) 0.5822(2) -1.3096(4)
C1D C 0.0855(3) 0.5822(2) -1.3096(4)
H1L H -0.1472 0.4051 -0.6403
H1D H 0.1472 0.5949 -1.3597
H1H H -0.1472 0.5949 -1.3597
C2L C -0.0907(2) 0.4558(2) -0.8371(3)
C2H C -0.0907(2) 0.5442(2) -1.1629(3)
C2D C 0.0907(2) 0.5442(2) -1.1629(3)
H2L H -0.1542 0.4673 -0.8823
H2D H 0.1542 0.5327 -1.1177
H2H H -0.1542 0.5327 -1.1177
C3D C 0.0000 0.5207(3) -1.0737(5)
N2F N -0.3784(2) 0.3135(2) -0.3393(4)
N2L N 0.1216(2) 0.3135(2) -0.1607(4)
N2M N 0.3784(2) 0.3135(2) -0.3393(4)
N2H N 0.1216(2) 0.6865(2) -1.8393(4)
N2D N -0.1216(2) 0.6865(2) -1.8393(4)
H3F H -0.3931 0.3269 -0.4428
H3L H 0.1069 0.3269 -0.0572
H3M H 0.3931 0.3269 -0.4428
H3H H 0.1069 0.6731 -1.9428
H3D H -0.1069 0.6731 -1.9428
H4F H -0.3946 0.2560 -0.3262
H4L H 0.1054 0.2560 -0.1738
H4M H 0.3946 0.2560 -0.3262
H4H H 0.1054 0.7440 -1.8262
H4D H -0.1054 0.7440 -1.8262
C4F C -0.2674(4) 0.3185(5) -0.3255(6)
C4L C 0.2326(4) 0.3185(5) -0.1745(6)
C4M C 0.2674(4) 0.3185(5) -0.3255(6)
H5F H -0.2380 0.2685 -0.3824
H5L H 0.2620 0.2685 -0.1176
H5M H 0.2380 0.2685 -0.3824
H6F H -0.2443 0.3721 -0.3788
H6L H 0.2557 0.3721 -0.1212
H6M H 0.2443 0.3721 -0.3788
loop_
_geom_bond_atom_site_label_1
_geom_bond_atom_site_label_2
_geom_bond_site_symmetry_1
_geom_bond_site_symmetry_2
Na1 N1 1_555 1_555
N1 C1 1_555 1_555
C1 H1 1_555 1_555
C2 C1 1_555 1_555
H2 C2 1_555 1_555
C3 C2 1_555 1_555
N2 Na1 1_555 1_555
H3 N2 1_555 1_555
H4 N2 1_555 1_555
C4 N2 1_555 1_555
H5 C4 1_555 1_555
H6 C4 1_555 1_555
Na1D N1D 1_555 1_555
Na1F N2F 1_555 1_555
Na1F_2 N2M 1_555 1_555
N1D C1H 1_555 1_555
C1L N1 1_555 1_555
C1H H1H 1_555 1_555
C1D N1D 1_555 1_555
H1L C1L 1_555 1_555
H1D C1D 1_555 1_555
C2L C3 1_555 1_555
C2H C1H 1_555 1_555
C2D C1D 1_555 1_555
H2L C2L 1_555 1_555
H2D C2D 1_555 1_555
H2H C2H 1_555 1_555
C3D C3 1_555 1_555
N2F H3F 1_555 1_555
N2L Na1 1_555 1_555
N2M H3M 1_555 1_555
N2H Na1D 1_555 1_555
N2D Na1D 1_555 1_555
H3L N2L 1_555 1_555
H3H N2H 1_555 1_555
H3D N2D 1_555 1_555
H4F N2F 1_555 1_555
H4L N2L 1_555 1_555
H4M N2M 1_555 1_555
H4H N2H 1_555 1_555
H4D N2D 1_555 1_555
C4F C4 1_555 1_555
C4L N2L 1_555 1_555
C4M N2M 1_555 1_555
H5F C4F 1_555 1_555
H5L C4L 1_555 1_555
H5M C4M 1_555 1_555
H6F C4F 1_555 1_555
H6L C4L 1_555 1_555
H6M C4M 1_555 1_555
C1L C2L 1_555 1_555
C2H C3D 1_555 1_555
C2D C3D 1_555 1_555
N2F C4F 1_555 1_555
C4L C4M 1_555 1_555

#END
