
#######################################################################
#
#                 Cambridge Crystallographic Data Centre
#                                CCDC 
#
#######################################################################
#
# If this CIF has been generated from an entry in the Cambridge 
# Structural Database, then it will include bibliographic, chemical, 
# crystal, experimental, refinement or atomic coordinate data resulting 
# from the CCDC's data processing and validation procedures.
#
#######################################################################

data_UFIJOK
_symmetry_cell_setting           triclinic
_symmetry_space_group_name_H-M   'P -1'
_symmetry_Int_Tables_number      2
_space_group_name_Hall           '-P 1'
loop_
_symmetry_equiv_pos_site_id
_symmetry_equiv_pos_as_xyz
1 x,y,z
2 -x,-y,-z
_cell_length_a                   7.3545(3)
_cell_length_b                   10.5336(4)
_cell_length_c                   11.7338(5)
_cell_angle_alpha                76.921(4)
_cell_angle_beta                 80.641(4)
_cell_angle_gamma                88.730(4)
_cell_volume                     873.542
loop_
_atom_site_label
_atom_site_type_symbol
_atom_site_fract_x
_atom_site_fract_y
_atom_site_fract_z
H1 H 0.564(6) 0.446(4) 0.213(5)
H2 H 0.499(8) 0.315(2) 0.196(5)
H3 H 0.075(8) 0.685(3) 0.305(7)
H4 H -0.090(4) 0.614(5) 0.283(5)
C1 C 0.3291(4) -0.1852(3) 0.4794(3)
C2 C 0.4036(4) 0.0203(3) 0.3415(3)
C3 C 0.2260(4) 0.0194(3) 0.5228(3)
C4 C 0.0807(4) 0.2344(3) 0.1017(3)
C5 C 0.1884(4) 0.0309(3) 0.0594(3)
C6 C 0.2644(4) 0.2365(3) -0.0782(3)
N1 N 0.1670(4) 0.3017(2) -0.0035(2)
N2 N 0.3105(4) 0.0861(2) 0.4171(2)
N3 N 0.2417(3) -0.1148(2) 0.5537(2)
H5 H 0.1931 -0.1552 0.6239
N4 N 0.2753(4) 0.1029(2) -0.0447(2)
H6 H 0.3413 0.0630 -0.0929
N5 N 0.4072(4) -0.1148(2) 0.3734(2)
H7 H 0.4626 -0.1556 0.3223
N6 N 0.0887(4) 0.1012(2) 0.1303(2)
H8 H 0.0273 0.0601 0.1966
O1 O 0.4800(4) 0.4040(2) 0.1824(3)
O2 O 0.0259(5) 0.6019(3) 0.3078(3)
S1 S 0.33871(13) -0.34822(7) 0.51878(8)
S2 S -0.04312(11) 0.31067(7) 0.20032(7)
S3 S 0.20487(12) -0.12986(7) 0.09902(8)
S4 S 0.10185(11) 0.09255(7) 0.62316(7)
S5 S 0.52130(11) 0.09416(7) 0.20874(7)
S6 S 0.37770(12) 0.31301(7) -0.21211(7)
Rb1 Rb 0.23506(5) 0.56971(3) 0.05206(3)
Rb2 Rb 0.20331(5) 0.37046(3) 0.41882(3)
N1A N -0.1670(4) 0.6983(2) 0.0035(2)
O1A O 0.5200(4) 0.5960(2) -0.1824(3)
O2A O -0.0259(5) 0.3981(3) 0.6922(3)
S1_2 S 0.33871(13) 0.65178(7) 0.51878(8)
S1A S 0.66129(13) 0.34822(7) 0.48122(8)
S2A S 0.04312(11) 0.68933(7) -0.20032(7)
S3_2 S 0.20487(12) 0.87014(7) 0.09902(8)
Rb1_2 Rb 0.23506(5) -0.43029(3) 0.05206(3)
Rb1A Rb -0.23506(5) 0.43029(3) -0.05206(3)
Rb1A_2 Rb 0.76494(5) 0.43029(3) -0.05206(3)
Rb2_2 Rb 0.20331(5) -0.62954(3) 0.41882(3)
Rb2A Rb -0.20331(5) 0.62954(3) 0.58118(3)
Rb2A_2 Rb 0.79669(5) -0.37046(3) 0.58118(3)
loop_
_geom_bond_atom_site_label_1
_geom_bond_atom_site_label_2
_geom_bond_site_symmetry_1
_geom_bond_site_symmetry_2
H1 O1 1_555 1_555
H2 O1 1_555 1_555
H3 O2 1_555 1_555
H4 O2 1_555 1_555
C1 N3 1_555 1_555
C2 N2 1_555 1_555
C3 N2 1_555 1_555
C4 N1 1_555 1_555
C5 N4 1_555 1_555
C6 N1 1_555 1_555
N1 Rb1 1_555 1_555
N2 Rb2 1_555 1_555
N3 C3 1_555 1_555
H5 N3 1_555 1_555
N4 C6 1_555 1_555
H6 N4 1_555 1_555
N5 C1 1_555 1_555
H7 N5 1_555 1_555
N6 C4 1_555 1_555
H8 N6 1_555 1_555
O1 Rb1 1_555 1_555
O2 Rb1 1_555 1_555
S1 C1 1_555 1_555
S2 C4 1_555 1_555
S3 C5 1_555 1_555
S4 C3 1_555 1_555
S5 C2 1_555 1_555
S6 C6 1_555 1_555
Rb1 S2 1_555 1_555
Rb2 O1 1_555 1_555
N1A Rb1 1_555 1_555
O1A Rb1 1_555 1_555
O2A Rb2 1_555 1_555
S1_2 Rb2 1_555 1_555
S1A Rb2 1_555 1_555
S2A Rb1 1_555 1_555
S3_2 Rb1 1_555 1_555
Rb1_2 S3 1_555 1_555
Rb1A N1 1_555 1_555
Rb1A_2 O1 1_555 1_555
Rb2_2 S1 1_555 1_555
Rb2A O2 1_555 1_555
Rb2A_2 S1 1_555 1_555
C2 N5 1_555 1_555
C5 N6 1_555 1_555
O2 Rb2 1_555 1_555
S2 Rb2 1_555 1_555
S2 Rb1A 1_555 1_555
S4 Rb2 1_555 1_555
N1A Rb1A 1_555 1_555
O1A Rb1A_2 1_555 1_555
O2A Rb2A 1_555 1_555
S2A Rb1A 1_555 1_555

#END
