
#######################################################################
#
#                 Cambridge Crystallographic Data Centre
#                                CCDC 
#
#######################################################################
#
# If this CIF has been generated from an entry in the Cambridge 
# Structural Database, then it will include bibliographic, chemical, 
# crystal, experimental, refinement or atomic coordinate data resulting 
# from the CCDC's data processing and validation procedures.
#
#######################################################################

data_UFIROR
_symmetry_cell_setting           orthorhombic
_symmetry_space_group_name_H-M   'P m n a'
_symmetry_Int_Tables_number      53
_space_group_name_Hall           '-P 2ac 2'
loop_
_symmetry_equiv_pos_site_id
_symmetry_equiv_pos_as_xyz
1 x,y,z
2 1/2-x,-y,1/2+z
3 1/2-x,y,1/2-z
4 x,-y,-z
5 -x,-y,-z
6 1/2+x,y,1/2-z
7 1/2+x,-y,1/2+z
8 -x,y,z
_cell_length_a                   7.101(2)
_cell_length_b                   3.8416(11)
_cell_length_c                   20.570(6)
_cell_angle_alpha                90
_cell_angle_beta                 90
_cell_angle_gamma                90
_cell_volume                     561.133
loop_
_atom_site_label
_atom_site_type_symbol
_atom_site_fract_x
_atom_site_fract_y
_atom_site_fract_z
C1 C 0.0000 0.1853(9) 0.36603(15)
C2 C 0.0000 0.0905(10) 0.43570(15)
C3 C 0.1670(4) 0.0458(10) 0.46787(12)
H1 H 0.2804 0.0775 0.4461
O1 O 0.0000 0.2124(6) 0.21471(11)
H2 H 0.0000 0.100(16) 0.1809(19)
O2 O 0.1575(2) 0.2206(5) 0.33954(8)
O3 O 0.2500 -0.2849(7) 0.2500
V1 V 0.2500 0.29889(14) 0.2500
C1D C 0.0000 -0.1853(9) 0.63397(15)
C2D C 0.0000 -0.0905(10) 0.56430(15)
C3C C 0.1670(4) -0.0458(10) 0.53213(12)
C3D C -0.1670(4) -0.0458(10) 0.53213(12)
C3G C -0.1670(4) 0.0458(10) 0.46787(12)
H1G H -0.2804 0.0775 0.4461
H1D H -0.2804 -0.0775 0.5539
H1C H 0.2804 -0.0775 0.5539
O1E O 0.5000 0.2124(6) 0.28529(11)
O1_2 O 1.0000 0.2124(6) 0.21471(11)
H2E H 0.5000 0.100(16) 0.3191(19)
H2_2 H 1.0000 0.100(16) 0.1809(19)
O2C O 0.1575(2) -0.2206(5) 0.66046(8)
O2D O -0.1575(2) -0.2206(5) 0.66046(8)
O2G O -0.1575(2) 0.2206(5) 0.33954(8)
O2B O 0.3425(2) 0.2206(5) 0.16046(8)
O2E O 0.6575(2) 0.2206(5) 0.16046(8)
O2G_2 O 0.8425(2) 0.2206(5) 0.33954(8)
O3_2 O 0.2500 0.7151(7) 0.2500
O3E O 0.7500 -0.2849(7) 0.2500
O3E_2 O 0.7500 0.7151(7) 0.2500
V1E V 0.7500 0.29889(14) 0.2500
V1E_2 V -0.2500 0.29889(14) 0.2500
V1_2 V 0.2500 -0.70111(14) 0.2500
V1A V 0.2500 -0.29889(14) 0.7500
V1F V -0.2500 -0.29889(14) 0.7500
V1_3 V 0.2500 1.29889(14) 0.2500
O4 O 0.0000 0.703(2) 0.1130(4)
F1? F 0.0000 0.2124(6) 0.21471(11)
loop_
_geom_bond_atom_site_label_1
_geom_bond_atom_site_label_2
_geom_bond_site_symmetry_1
_geom_bond_site_symmetry_2
C1 C2 1_555 1_555
C2 C3 1_555 1_555
C3 H1 1_555 1_555
O1 H2 1_555 1_555
O2 C1 1_555 1_555
O3 V1 1_555 1_555
V1 O1 1_555 1_555
C1D C2D 1_555 1_555
C2D C3C 1_555 1_555
C3C C3 1_555 1_555
C3D C2D 1_555 1_555
C3G C2 1_555 1_555
H1G C3G 1_555 1_555
H1D C3D 1_555 1_555
H1C C3C 1_555 1_555
O1E V1 1_555 1_555
O1_2 H2_2 1_555 1_555
H2E O1E 1_555 1_555
O2C C1D 1_555 1_555
O2D C1D 1_555 1_555
O2G C1 1_555 1_555
O2B V1 1_555 1_555
O2E V1E 1_555 1_555
O2G_2 V1E 1_555 1_555
O3_2 V1 1_555 1_555
O3E V1E 1_555 1_555
O3E_2 V1E 1_555 1_555
V1E O1E 1_555 1_555
V1E_2 O1 1_555 1_555
V1_2 O3 1_555 1_555
V1A O2C 1_555 1_555
V1F O2D 1_555 1_555
V1_3 O3_2 1_555 1_555
O2 V1 1_555 1_555
C3D C3G 1_555 1_555
O1_2 V1E 1_555 1_555
O2G V1E_2 1_555 1_555

#END
