
#######################################################################
#
#                 Cambridge Crystallographic Data Centre
#                                CCDC 
#
#######################################################################
#
# If this CIF has been generated from an entry in the Cambridge 
# Structural Database, then it will include bibliographic, chemical, 
# crystal, experimental, refinement or atomic coordinate data resulting 
# from the CCDC's data processing and validation procedures.
#
#######################################################################

data_UFITUZ
_symmetry_cell_setting           triclinic
_symmetry_space_group_name_H-M   'P -1'
_symmetry_Int_Tables_number      2
_space_group_name_Hall           '-P 1'
loop_
_symmetry_equiv_pos_site_id
_symmetry_equiv_pos_as_xyz
1 x,y,z
2 -x,-y,-z
_cell_length_a                   5.7019(6)
_cell_length_b                   7.1424(7)
_cell_length_c                   16.2794(16)
_cell_angle_alpha                80.694(2)
_cell_angle_beta                 89.951(2)
_cell_angle_gamma                79.607(2)
_cell_volume                     643.249
loop_
_atom_site_label
_atom_site_type_symbol
_atom_site_fract_x
_atom_site_fract_y
_atom_site_fract_z
C1 C 0.4106(4) 0.7024(3) 0.89209(15)
H1 H 0.5003 0.6869 0.9427
C2 C 0.5152(4) 0.6176(3) 0.82711(15)
H2 H 0.6735 0.5462 0.8333
C3 C 0.3861(4) 0.6378(3) 0.75274(15)
H3 H 0.4533 0.5808 0.7072
C4 C 0.1551(4) 0.7445(3) 0.74728(14)
C5 C 0.0622(4) 0.8260(3) 0.81565(14)
H4 H -0.0957 0.8982 0.8113
C6 C 0.0079(4) 0.7795(3) 0.67106(14)
C7 C -0.0789(4) 0.7839(3) 0.54404(14)
C8 C 0.0310(5) 0.6973(3) 0.29870(15)
H5 H 0.0568 0.6796 0.2426
C9 C -0.1953(5) 0.7829(3) 0.31910(15)
H6 H -0.3208 0.8197 0.2781
C10 C -0.2347(4) 0.8135(3) 0.40024(15)
H7 H -0.3869 0.8730 0.4162
C11 C -0.0444(4) 0.7543(3) 0.45787(14)
C12 C 0.1763(4) 0.6673(3) 0.43170(15)
H8 H 0.3046 0.6268 0.4715
C13 C 0.5865(4) 0.8151(3) 1.08758(14)
Hg1 Hg 0.0000 1.0000 1.0000
N1 N 0.1870(4) 0.8061(3) 0.88671(12)
N2 N -0.2135(4) 0.8628(3) 0.65990(13)
N3 N -0.2707(4) 0.8656(3) 0.57587(13)
N4 N 0.2155(4) 0.6383(3) 0.35351(14)
N5 N 0.3942(4) 0.8841(3) 1.10097(14)
O1 O 0.1076(3) 0.7243(2) 0.60035(10)
S1 S 0.86194(10) 0.70842(8) 1.06734(4)
C1A C -0.4106(4) 1.2976(3) 1.10791(15)
H1A H -0.5003 1.3131 1.0573
C2A C -0.5152(4) 1.3824(3) 1.17289(15)
H2A H -0.6735 1.4538 1.1667
C3A C -0.3861(4) 1.3622(3) 1.24726(15)
H3A H -0.4533 1.4192 1.2928
C4A C -0.1551(4) 1.2555(3) 1.25272(14)
C5A C -0.0622(4) 1.1740(3) 1.18435(14)
H4A H 0.0957 1.1018 1.1887
C6A C -0.0079(4) 1.2205(3) 1.32894(14)
C7A C 0.0789(4) 1.2161(3) 1.45596(14)
C8A C -0.0310(5) 1.3027(3) 1.70130(15)
H5A H -0.0568 1.3204 1.7574
C9A C 0.1953(5) 1.2171(3) 1.68090(15)
H6A H 0.3208 1.1803 1.7219
C10A C 0.2347(4) 1.1865(3) 1.59976(15)
H7A H 0.3869 1.1270 1.5838
C11A C 0.0444(4) 1.2457(3) 1.54213(14)
C12A C -0.1763(4) 1.3327(3) 1.56830(15)
H8A H -0.3046 1.3732 1.5285
C13A C -0.5865(4) 1.1849(3) 0.91242(14)
Hg1_2 Hg 1.0000 1.0000 1.0000
Hg1_3 Hg -1.0000 1.0000 1.0000
N1A N -0.1870(4) 1.1939(3) 1.11329(12)
N2A N 0.2135(4) 1.1372(3) 1.34010(13)
N3A N 0.2707(4) 1.1344(3) 1.42413(13)
N4A N -0.2155(4) 1.3617(3) 1.64649(14)
N5A N -0.3942(4) 1.1159(3) 0.89903(14)
O1A O -0.1076(3) 1.2757(2) 1.39965(10)
S1A S -0.86194(10) 1.29158(8) 0.93266(4)
S1_2 S -0.13806(10) 0.70842(8) 1.06734(4)
S1A_2 S 0.13806(10) 1.29158(8) 0.93266(4)
loop_
_geom_bond_atom_site_label_1
_geom_bond_atom_site_label_2
_geom_bond_site_symmetry_1
_geom_bond_site_symmetry_2
C1 H1 1_555 1_555
C2 C1 1_555 1_555
H2 C2 1_555 1_555
C3 C2 1_555 1_555
H3 C3 1_555 1_555
C4 C3 1_555 1_555
C5 C4 1_555 1_555
H4 C5 1_555 1_555
C6 C4 1_555 1_555
C7 C11 1_555 1_555
C8 H5 1_555 1_555
C9 C8 1_555 1_555
H6 C9 1_555 1_555
C10 C9 1_555 1_555
H7 C10 1_555 1_555
C11 C10 1_555 1_555
C12 C11 1_555 1_555
H8 C12 1_555 1_555
C13 N5 1_555 1_555
Hg1 N1 1_555 1_555
N1 C1 1_555 1_555
N2 C6 1_555 1_555
N3 C7 1_555 1_555
N4 C8 1_555 1_555
N5 Hg1 1_555 1_555
O1 C6 1_555 1_555
S1 C13 1_555 1_555
C1A H1A 1_555 1_555
C2A C1A 1_555 1_555
H2A C2A 1_555 1_555
C3A C2A 1_555 1_555
H3A C3A 1_555 1_555
C4A C3A 1_555 1_555
C5A C4A 1_555 1_555
H4A C5A 1_555 1_555
C6A C4A 1_555 1_555
C7A C11A 1_555 1_555
C8A H5A 1_555 1_555
C9A C8A 1_555 1_555
H6A C9A 1_555 1_555
C10A C9A 1_555 1_555
H7A C10A 1_555 1_555
C11A C10A 1_555 1_555
C12A C11A 1_555 1_555
H8A C12A 1_555 1_555
C13A N5A 1_555 1_555
Hg1_2 S1 1_555 1_555
Hg1_3 S1A 1_555 1_555
N1A Hg1 1_555 1_555
N2A C6A 1_555 1_555
N3A C7A 1_555 1_555
N4A C8A 1_555 1_555
N5A Hg1 1_555 1_555
O1A C6A 1_555 1_555
S1A C13A 1_555 1_555
S1_2 Hg1 1_555 1_555
S1A_2 Hg1 1_555 1_555
C5 N1 1_555 1_555
C7 O1 1_555 1_555
C12 N4 1_555 1_555
N2 N3 1_555 1_555
C1A N1A 1_555 1_555
C5A N1A 1_555 1_555
C7A O1A 1_555 1_555
C12A N4A 1_555 1_555
N2A N3A 1_555 1_555

#END
