
#######################################################################
#
#                 Cambridge Crystallographic Data Centre
#                                CCDC 
#
#######################################################################
#
# If this CIF has been generated from an entry in the Cambridge 
# Structural Database, then it will include bibliographic, chemical, 
# crystal, experimental, refinement or atomic coordinate data resulting 
# from the CCDC's data processing and validation procedures.
#
#######################################################################

data_UFIWIR
_symmetry_cell_setting           monoclinic
_symmetry_space_group_name_H-M   'P 21/n'
_symmetry_Int_Tables_number      14
_space_group_name_Hall           '-P 2yn'
loop_
_symmetry_equiv_pos_site_id
_symmetry_equiv_pos_as_xyz
1 x,y,z
2 1/2-x,1/2+y,1/2-z
3 -x,-y,-z
4 1/2+x,1/2-y,1/2+z
_cell_length_a                   9.118(2)
_cell_length_b                   15.223(4)
_cell_length_c                   12.154(3)
_cell_angle_alpha                90
_cell_angle_beta                 109.432(5)
_cell_angle_gamma                90
_cell_volume                     1590.92
loop_
_atom_site_label
_atom_site_type_symbol
_atom_site_fract_x
_atom_site_fract_y
_atom_site_fract_z
Dy1 Dy 0.74577(3) 0.009940(19) 0.25298(2)
Cl1 Cl 0.78104(18) 0.17959(10) 0.32655(13)
O1 O 0.5894(5) -0.0833(3) 0.0984(3)
O2 O 0.8935(5) 0.0174(3) 0.1293(4)
H1 H 0.9785 -0.0101 0.1412
H2 H 0.8531 0.0507 0.0710
O3 O 0.4114(4) -0.0914(3) -0.0823(3)
O4 O 0.5082(5) 0.0121(3) 0.2863(4)
H3 H 0.4785 0.0584 0.3117
H4 H 0.4512 -0.0336 0.2729
O5 O 1.0174(5) 0.0099(3) 0.3623(3)
O6 O 0.7921(5) -0.1383(3) 0.2955(4)
H5 H 0.8438 -0.1543 0.3645
H6 H 0.7574 -0.1764 0.2421
O7 O 1.2013(5) 0.0076(3) 0.5381(3)
C1 C 0.4999(6) -0.0517(4) 0.0043(4)
C2 C 1.0637(8) 0.0053(4) 0.4705(5)
O1B O 0.4106(5) 0.0833(3) -0.0984(3)
O3B O 0.5886(4) 0.0914(3) 0.0823(3)
C1B C 0.5001(6) 0.0517(4) -0.0043(4)
O5B O 0.9826(5) -0.0099(3) 0.6377(3)
O7B O 0.7987(5) -0.0076(3) 0.4619(3)
C2B C 0.9363(8) -0.0053(4) 0.5295(5)
Dy1B Dy 0.25423(3) -0.009940(19) -0.25298(2)
Cl1B Cl 0.21896(18) -0.17959(10) -0.32655(13)
O2B O 0.1065(5) -0.0174(3) -0.1293(4)
H1B H 0.0215 0.0101 -0.1412
H2B H 0.1469 -0.0507 -0.0710
O4B O 0.4918(5) -0.0121(3) -0.2863(4)
H3B H 0.5215 -0.0584 -0.3117
H4B H 0.5488 0.0336 -0.2729
O6B O 0.2079(5) 0.1383(3) -0.2955(4)
H5B H 0.1562 0.1543 -0.3645
H6B H 0.2426 0.1764 -0.2421
Dy1B_2 Dy 1.25423(3) -0.009940(19) 0.74702(2)
O5B_2 O -0.0174(5) -0.0099(3) -0.3623(3)
O7_2 O 0.2013(5) 0.0076(3) -0.4619(3)
Cl2 Cl 1.29600(18) -0.56679(10) 0.37105(12)
O8 O 1.0888(5) -0.4066(3) 0.0492(4)
H7 H 1.1484 -0.4420 0.0303
N1 N 0.8035(7) -0.2427(3) -0.1335(5)
C3 C 0.8747(8) -0.2178(5) -0.2246(5)
H8 H 0.8290 -0.1625 -0.2617
H9 H 0.8542 -0.2642 -0.2837
H10 H 0.9872 -0.2104 -0.1876
C4 C 0.6323(8) -0.2548(4) -0.1903(6)
H11 H 0.5851 -0.1992 -0.2251
H12 H 0.5865 -0.2736 -0.1317
H13 H 0.6130 -0.2997 -0.2513
C5 C 0.8296(8) -0.1698(4) -0.0451(6)
H14 H 0.7754 -0.1167 -0.0835
H15 H 0.9412 -0.1576 -0.0113
H16 H 0.7891 -0.1875 0.0168
C6 C 0.8703(7) -0.3285(4) -0.0741(5)
H17 H 0.8237 -0.3411 -0.0129
H18 H 0.8392 -0.3764 -0.1323
C7 C 1.0460(7) -0.3293(4) -0.0189(6)
H19 H 1.0952 -0.3285 -0.0802
H20 H 1.0811 -0.2767 0.0310
O9 O 0.8923(6) -0.2316(3) 0.4909(4)
H21 H 0.8408 -0.2788 0.4861
H22 H 0.9658 -0.2194 0.5534
loop_
_geom_bond_atom_site_label_1
_geom_bond_atom_site_label_2
_geom_bond_site_symmetry_1
_geom_bond_site_symmetry_2
Dy1 Cl1 1_555 1_555
O1 Dy1 1_555 1_555
O2 Dy1 1_555 1_555
H1 O2 1_555 1_555
H2 O2 1_555 1_555
O3 C1 1_555 1_555
O4 Dy1 1_555 1_555
H3 O4 1_555 1_555
H4 O4 1_555 1_555
O5 Dy1 1_555 1_555
O6 Dy1 1_555 1_555
H5 O6 1_555 1_555
H6 O6 1_555 1_555
O7 C2 1_555 1_555
C1 O1 1_555 1_555
C2 O5 1_555 1_555
O8 H7 1_555 1_555
N1 C3 1_555 1_555
C3 H8 1_555 1_555
H9 C3 1_555 1_555
H10 C3 1_555 1_555
C4 N1 1_555 1_555
H11 C4 1_555 1_555
H12 C4 1_555 1_555
H13 C4 1_555 1_555
C5 N1 1_555 1_555
H14 C5 1_555 1_555
H15 C5 1_555 1_555
H16 C5 1_555 1_555
C6 N1 1_555 1_555
H17 C6 1_555 1_555
H18 C6 1_555 1_555
C7 O8 1_555 1_555
H19 C7 1_555 1_555
H20 C7 1_555 1_555
O9 H21 1_555 1_555
H22 O9 1_555 1_555
O1B C1B 1_555 1_555
O3B Dy1 1_555 1_555
C1B C1 1_555 1_555
O5B C2B 1_555 1_555
O7B Dy1 1_555 1_555
C2B C2 1_555 1_555
Dy1B O3 1_555 1_555
Cl1B Dy1B 1_555 1_555
O2B Dy1B 1_555 1_555
H1B O2B 1_555 1_555
H2B O2B 1_555 1_555
O4B Dy1B 1_555 1_555
H3B O4B 1_555 1_555
H4B O4B 1_555 1_555
O6B Dy1B 1_555 1_555
H5B O6B 1_555 1_555
H6B O6B 1_555 1_555
Dy1B_2 O7 1_555 1_555
O5B_2 Dy1B 1_555 1_555
O7_2 Dy1B 1_555 1_555
C6 C7 1_555 1_555
O1B Dy1B 1_555 1_555
O3B C1B 1_555 1_555
O5B Dy1B_2 1_555 1_555
O7B C2B 1_555 1_555

#END
