
#######################################################################
#
#                 Cambridge Crystallographic Data Centre
#                                CCDC 
#
#######################################################################
#
# If this CIF has been generated from an entry in the Cambridge 
# Structural Database, then it will include bibliographic, chemical, 
# crystal, experimental, refinement or atomic coordinate data resulting 
# from the CCDC's data processing and validation procedures.
#
#######################################################################

data_UFOCUP
_symmetry_cell_setting           rhombohedral
_symmetry_space_group_name_H-M   'R 3 2'
_symmetry_Int_Tables_number      155
_space_group_name_Hall           'R 3 2"'
loop_
_symmetry_equiv_pos_site_id
_symmetry_equiv_pos_as_xyz
1 x,y,z
2 -y,x-y,z
3 -x+y,-x,z
4 y,x,-z
5 x-y,-y,-z
6 -x,-x+y,-z
7 2/3+x,1/3+y,1/3+z
8 2/3-y,1/3+x-y,1/3+z
9 2/3-x+y,1/3-x,1/3+z
10 2/3+y,1/3+x,1/3-z
11 2/3+x-y,1/3-y,1/3-z
12 2/3-x,1/3-x+y,1/3-z
13 1/3+x,2/3+y,2/3+z
14 1/3-y,2/3+x-y,2/3+z
15 1/3-x+y,2/3-x,2/3+z
16 1/3+y,2/3+x,2/3-z
17 1/3+x-y,2/3-y,2/3-z
18 1/3-x,2/3-x+y,2/3-z
_cell_length_a                   9.6493(9)
_cell_length_b                   9.6493(9)
_cell_length_c                   20.500(4)
_cell_angle_alpha                90
_cell_angle_beta                 90
_cell_angle_gamma                120
_cell_volume                     1653.01
loop_
_atom_site_label
_atom_site_type_symbol
_atom_site_fract_x
_atom_site_fract_y
_atom_site_fract_z
Tb1 Tb 0.6667 0.3333 0.599683(6)
O1 O 0.86380(19) 0.47654(19) 0.51344(8)
H1 H 0.839(4) 0.516(4) 0.4837(12)
O2 O 0.6532(2) 0.1537(2) 0.68136(10)
H2 H 0.577(2) 0.091(3) 0.7035(14)
H3 H 0.738(2) 0.159(4) 0.6961(18)
O3 O 0.8971(2) 0.2970(2) 0.59446(8)
O4 O 1.1537(2) 0.3887(2) 0.56880(9)
C1 C 1.0000 0.4643(3) 0.5000
C2 C 1.0203(3) 0.3778(3) 0.56023(11)
O1E O 1.13620(19) 0.61274(27) 0.48656(8)
H1E H 1.161(4) 0.677(6) 0.5163(12)
O3E O 1.1029(2) 0.3999(3) 0.40554(8)
O4E O 0.8463(2) 0.2350(3) 0.43120(9)
C2E C 0.9797(3) 0.3575(4) 0.43977(11)
O2A O 0.8463(2) 0.4995(3) 0.68136(10)
H2A H 0.909(3) 0.486(4) 0.7035(14)
H3A H 0.841(4) 0.579(4) 0.6961(18)
O2B O 0.5005(3) 0.3468(2) 0.68136(10)
H2B H 0.514(4) 0.423(2) 0.7035(14)
H3B H 0.421(4) 0.262(2) 0.6961(18)
Tb1C Tb 0.3333 -0.3333 0.400317(6)
O1C O 0.47654(19) -0.13620(19) 0.48656(8)
H1C H 0.516(4) -0.161(4) 0.5163(12)
O2C O 0.1537(2) -0.3468(2) 0.31864(10)
H2C H 0.091(3) -0.423(2) 0.2965(14)
H3C H 0.159(4) -0.262(2) 0.3039(18)
O3C O 0.2970(2) -0.1029(2) 0.40554(8)
O4C O 0.3887(2) 0.1537(2) 0.43120(9)
C1B C 0.4643(3) 0.0000 0.5000
C2C C 0.3778(3) 0.0203(3) 0.43977(11)
O1B O 0.61274(27) 0.13620(19) 0.51344(8)
H1B H 0.677(6) 0.161(4) 0.4837(12)
O3B O 0.3999(3) 0.1029(2) 0.59446(8)
O4B O 0.2350(3) -0.1537(2) 0.56880(9)
C2B C 0.3575(4) -0.0203(3) 0.56023(11)
O1A O 0.52346(19) 0.38726(27) 0.51344(8)
H1A H 0.484(4) 0.323(6) 0.4837(12)
O3A O 0.7030(2) 0.6001(3) 0.59446(8)
O4A O 0.6113(2) 0.7650(3) 0.56880(9)
C1A C 0.5357(3) 0.5357(3) 0.5000
C2A C 0.6222(3) 0.6425(4) 0.56023(11)
O1D O 0.38726(27) 0.52346(19) 0.48656(8)
H1D H 0.323(6) 0.484(4) 0.5163(12)
O3D O 0.6001(3) 0.7030(2) 0.40554(8)
O4D O 0.7650(3) 0.6113(2) 0.43120(9)
C2D C 0.6425(4) 0.6222(3) 0.43977(11)
O2D O 0.4995(3) -0.1537(2) 0.31864(10)
H2D H 0.486(4) -0.091(3) 0.2965(14)
H3D H 0.579(4) -0.159(4) 0.3039(18)
O2E O 0.3468(2) -0.4995(3) 0.31864(10)
H2E H 0.423(2) -0.486(4) 0.2965(14)
H3E H 0.262(2) -0.579(4) 0.3039(18)
Tb1C_2 Tb 0.3333 0.6667 0.400317(6)
Tb1C_3 Tb 1.3333 0.6667 0.400317(6)
O1D_2 O 0.38726(27) -0.47654(19) 0.48656(8)
O1E_2 O 0.13620(19) -0.38726(27) 0.48656(8)
O3D_2 O 0.6001(3) -0.2970(2) 0.40554(8)
O3E_2 O 0.1029(2) -0.6001(3) 0.40554(8)
O5 O 0.6667 0.3333 0.8333
loop_
_geom_bond_atom_site_label_1
_geom_bond_atom_site_label_2
_geom_bond_site_symmetry_1
_geom_bond_site_symmetry_2
Tb1 O1 1_555 1_555
O1 H1 1_555 1_555
O2 Tb1 1_555 1_555
H2 O2 1_555 1_555
H3 O2 1_555 1_555
O3 Tb1 1_555 1_555
O4 C2 1_555 1_555
C1 O1 1_555 1_555
C2 O3 1_555 1_555
O1E C1 1_555 1_555
H1E O1E 1_555 1_555
O3E C2E 1_555 1_555
O4E C2E 1_555 1_555
C2E C1 1_555 1_555
O2A Tb1 1_555 1_555
H2A O2A 1_555 1_555
H3A O2A 1_555 1_555
O2B Tb1 1_555 1_555
H2B O2B 1_555 1_555
H3B O2B 1_555 1_555
Tb1C O1C 1_555 1_555
O1C H1C 1_555 1_555
O2C Tb1C 1_555 1_555
H2C O2C 1_555 1_555
H3C O2C 1_555 1_555
O3C Tb1C 1_555 1_555
O4C C2C 1_555 1_555
C1B O1C 1_555 1_555
C2C O3C 1_555 1_555
O1B Tb1 1_555 1_555
H1B O1B 1_555 1_555
O3B Tb1 1_555 1_555
O4B C2B 1_555 1_555
C2B C1B 1_555 1_555
O1A Tb1 1_555 1_555
H1A O1A 1_555 1_555
O3A Tb1 1_555 1_555
O4A C2A 1_555 1_555
C1A O1A 1_555 1_555
C2A O3A 1_555 1_555
O1D C1A 1_555 1_555
H1D O1D 1_555 1_555
O3D C2D 1_555 1_555
O4D C2D 1_555 1_555
C2D C1A 1_555 1_555
O2D Tb1C 1_555 1_555
H2D O2D 1_555 1_555
H3D O2D 1_555 1_555
O2E Tb1C 1_555 1_555
H2E O2E 1_555 1_555
H3E O2E 1_555 1_555
Tb1C_2 O1D 1_555 1_555
Tb1C_3 O1E 1_555 1_555
O1D_2 Tb1C 1_555 1_555
O1E_2 Tb1C 1_555 1_555
O3D_2 Tb1C 1_555 1_555
O3E_2 Tb1C 1_555 1_555
C1 C2 1_555 1_555
O3E Tb1C_3 1_555 1_555
C1B C2C 1_555 1_555
C1B O1B 1_555 1_555
O3B C2B 1_555 1_555
C1A C2A 1_555 1_555
O3D Tb1C_2 1_555 1_555

#END
