
#######################################################################
#
#                 Cambridge Crystallographic Data Centre
#                                CCDC 
#
#######################################################################
#
# If this CIF has been generated from an entry in the Cambridge 
# Structural Database, then it will include bibliographic, chemical, 
# crystal, experimental, refinement or atomic coordinate data resulting 
# from the CCDC's data processing and validation procedures.
#
#######################################################################

data_UFODIE
_symmetry_cell_setting           rhombohedral
_symmetry_space_group_name_H-M   'R 3 2'
_symmetry_Int_Tables_number      155
_space_group_name_Hall           'R 3 2"'
loop_
_symmetry_equiv_pos_site_id
_symmetry_equiv_pos_as_xyz
1 x,y,z
2 -y,x-y,z
3 -x+y,-x,z
4 y,x,-z
5 x-y,-y,-z
6 -x,-x+y,-z
7 2/3+x,1/3+y,1/3+z
8 2/3-y,1/3+x-y,1/3+z
9 2/3-x+y,1/3-x,1/3+z
10 2/3+y,1/3+x,1/3-z
11 2/3+x-y,1/3-y,1/3-z
12 2/3-x,1/3-x+y,1/3-z
13 1/3+x,2/3+y,2/3+z
14 1/3-y,2/3+x-y,2/3+z
15 1/3-x+y,2/3-x,2/3+z
16 1/3+y,2/3+x,2/3-z
17 1/3+x-y,2/3-y,2/3-z
18 1/3-x,2/3-x+y,2/3-z
_cell_length_a                   9.7313(2)
_cell_length_b                   9.7313(2)
_cell_length_c                   21.0345(8)
_cell_angle_alpha                90
_cell_angle_beta                 90
_cell_angle_gamma                120
_cell_volume                     1725.06
loop_
_atom_site_label
_atom_site_type_symbol
_atom_site_fract_x
_atom_site_fract_y
_atom_site_fract_z
Pr1 Pr 0.6667 0.3333 0.601952(4)
O1 O 0.86607(11) 0.47531(11) 0.51359(5)
H1 H 0.846(3) 0.516(2) 0.4825(9)
O2 O 0.65745(15) 0.15324(15) 0.68577(7)
H2 H 0.5794(19) 0.092(3) 0.7068(11)
H3 H 0.7392(19) 0.159(3) 0.7032(13)
O3 O 0.90310(13) 0.29936(15) 0.59357(5)
O4 O 1.15462(13) 0.38642(15) 0.56565(6)
C1 C 1.0000 0.46225(17) 0.5000
C2 C 1.02259(15) 0.37756(16) 0.55870(7)
O1E O 1.13393(11) 0.60924(16) 0.48641(5)
H1E H 1.154(3) 0.670(4) 0.5175(9)
O3E O 1.09690(13) 0.39626(20) 0.40643(5)
O4E O 0.84538(13) 0.23180(20) 0.43435(6)
C2E C 0.97741(15) 0.35497(22) 0.44130(7)
O2A O 0.84676(15) 0.50421(21) 0.68577(7)
H2A H 0.908(3) 0.4874(36) 0.7068(11)
H3A H 0.841(3) 0.5802(36) 0.7032(13)
O2B O 0.49579(21) 0.34255(15) 0.68577(7)
H2B H 0.5126(36) 0.4206(19) 0.7068(11)
H3B H 0.4198(36) 0.2608(19) 0.7032(13)
Pr1C Pr 0.3333 -0.3333 0.398048(4)
O1C O 0.47531(11) -0.13393(11) 0.48641(5)
H1C H 0.516(2) -0.154(3) 0.5175(9)
O2C O 0.15324(15) -0.34255(15) 0.31423(7)
H2C H 0.092(3) -0.4206(19) 0.2932(11)
H3C H 0.159(3) -0.2608(19) 0.2968(13)
O3C O 0.29936(15) -0.09690(13) 0.40643(5)
O4C O 0.38642(15) 0.15462(13) 0.43435(6)
C1B C 0.46225(17) 0.0000 0.5000
C2C C 0.37756(16) 0.02259(15) 0.44130(7)
O1B O 0.60924(16) 0.13393(11) 0.51359(5)
H1B H 0.670(4) 0.154(3) 0.4825(9)
O3B O 0.39626(20) 0.09690(13) 0.59357(5)
O4B O 0.23180(20) -0.15462(13) 0.56565(6)
C2B C 0.35497(22) -0.02259(15) 0.55870(7)
O1A O 0.52469(11) 0.39076(16) 0.51359(5)
H1A H 0.484(2) 0.330(4) 0.4825(9)
O3A O 0.70064(15) 0.60374(20) 0.59357(5)
O4A O 0.61358(15) 0.76820(20) 0.56565(6)
C1A C 0.53775(17) 0.53775(17) 0.5000
C2A C 0.62244(16) 0.64503(22) 0.55870(7)
O1D O 0.39076(16) 0.52469(11) 0.48641(5)
H1D H 0.330(4) 0.484(2) 0.5175(9)
O3D O 0.60374(20) 0.70064(15) 0.40643(5)
O4D O 0.76820(20) 0.61358(15) 0.43435(6)
C2D C 0.64503(22) 0.62244(16) 0.44130(7)
O2D O 0.50421(21) -0.15324(15) 0.31423(7)
H2D H 0.4874(36) -0.092(3) 0.2932(11)
H3D H 0.5802(36) -0.159(3) 0.2968(13)
O2E O 0.34255(15) -0.50421(21) 0.31423(7)
H2E H 0.4206(19) -0.4874(36) 0.2932(11)
H3E H 0.2608(19) -0.5802(36) 0.2968(13)
Pr1C_2 Pr 0.3333 0.6667 0.398048(4)
Pr1C_3 Pr 1.3333 0.6667 0.398048(4)
O1D_2 O 0.39076(16) -0.47531(11) 0.48641(5)
O1E_2 O 0.13393(11) -0.39076(16) 0.48641(5)
O3D_2 O 0.60374(20) -0.29936(15) 0.40643(5)
O3E_2 O 0.09690(13) -0.60374(20) 0.40643(5)
O5 O 0.6667 0.3333 0.8333
loop_
_geom_bond_atom_site_label_1
_geom_bond_atom_site_label_2
_geom_bond_site_symmetry_1
_geom_bond_site_symmetry_2
Pr1 O1 1_555 1_555
O1 H1 1_555 1_555
O2 Pr1 1_555 1_555
H2 O2 1_555 1_555
H3 O2 1_555 1_555
O3 Pr1 1_555 1_555
O4 C2 1_555 1_555
C1 O1 1_555 1_555
C2 O3 1_555 1_555
O1E C1 1_555 1_555
H1E O1E 1_555 1_555
O3E C2E 1_555 1_555
O4E C2E 1_555 1_555
C2E C1 1_555 1_555
O2A Pr1 1_555 1_555
H2A O2A 1_555 1_555
H3A O2A 1_555 1_555
O2B Pr1 1_555 1_555
H2B O2B 1_555 1_555
H3B O2B 1_555 1_555
Pr1C O1C 1_555 1_555
O1C H1C 1_555 1_555
O2C Pr1C 1_555 1_555
H2C O2C 1_555 1_555
H3C O2C 1_555 1_555
O3C Pr1C 1_555 1_555
O4C C2C 1_555 1_555
C1B O1C 1_555 1_555
C2C O3C 1_555 1_555
O1B Pr1 1_555 1_555
H1B O1B 1_555 1_555
O3B Pr1 1_555 1_555
O4B C2B 1_555 1_555
C2B C1B 1_555 1_555
O1A Pr1 1_555 1_555
H1A O1A 1_555 1_555
O3A Pr1 1_555 1_555
O4A C2A 1_555 1_555
C1A O1A 1_555 1_555
C2A O3A 1_555 1_555
O1D C1A 1_555 1_555
H1D O1D 1_555 1_555
O3D C2D 1_555 1_555
O4D C2D 1_555 1_555
C2D C1A 1_555 1_555
O2D Pr1C 1_555 1_555
H2D O2D 1_555 1_555
H3D O2D 1_555 1_555
O2E Pr1C 1_555 1_555
H2E O2E 1_555 1_555
H3E O2E 1_555 1_555
Pr1C_2 O1D 1_555 1_555
Pr1C_3 O1E 1_555 1_555
O1D_2 Pr1C 1_555 1_555
O1E_2 Pr1C 1_555 1_555
O3D_2 Pr1C 1_555 1_555
O3E_2 Pr1C 1_555 1_555
C1 C2 1_555 1_555
O3E Pr1C_3 1_555 1_555
C1B C2C 1_555 1_555
C1B O1B 1_555 1_555
O3B C2B 1_555 1_555
C1A C2A 1_555 1_555
O3D Pr1C_2 1_555 1_555

#END
