
#######################################################################
#
#                 Cambridge Crystallographic Data Centre
#                                CCDC 
#
#######################################################################
#
# If this CIF has been generated from an entry in the Cambridge 
# Structural Database, then it will include bibliographic, chemical, 
# crystal, experimental, refinement or atomic coordinate data resulting 
# from the CCDC's data processing and validation procedures.
#
#######################################################################

data_UFOFAY
_symmetry_cell_setting           rhombohedral
_symmetry_space_group_name_H-M   'R 3 2'
_symmetry_Int_Tables_number      155
_space_group_name_Hall           'R 3 2"'
loop_
_symmetry_equiv_pos_site_id
_symmetry_equiv_pos_as_xyz
1 x,y,z
2 -y,x-y,z
3 -x+y,-x,z
4 y,x,-z
5 x-y,-y,-z
6 -x,-x+y,-z
7 2/3+x,1/3+y,1/3+z
8 2/3-y,1/3+x-y,1/3+z
9 2/3-x+y,1/3-x,1/3+z
10 2/3+y,1/3+x,1/3-z
11 2/3+x-y,1/3-y,1/3-z
12 2/3-x,1/3-x+y,1/3-z
13 1/3+x,2/3+y,2/3+z
14 1/3-y,2/3+x-y,2/3+z
15 1/3-x+y,2/3-x,2/3+z
16 1/3+y,2/3+x,2/3-z
17 1/3+x-y,2/3-y,2/3-z
18 1/3-x,2/3-x+y,2/3-z
_cell_length_a                   9.7612(2)
_cell_length_b                   9.7612(2)
_cell_length_c                   21.2994(7)
_cell_angle_alpha                90
_cell_angle_beta                 90
_cell_angle_gamma                120
_cell_volume                     1757.54
loop_
_atom_site_label
_atom_site_type_symbol
_atom_site_fract_x
_atom_site_fract_y
_atom_site_fract_z
La1 La 0.6667 0.3333 0.602935(6)
O1 O 0.6586(2) 0.1519(2) 0.68778(9)
H1 H 0.604(4) 0.097(4) 0.7170(14)
O2 O 0.86697(16) 0.47407(17) 0.51369(7)
H2 H 0.840(4) 0.517(3) 0.4875(12)
O3 O 1.15538(18) 0.3852(2) 0.56378(8)
O4 O 0.90607(19) 0.3003(2) 0.59298(8)
C1 C 1.0000 0.4615(2) 0.5000
C2 C 1.0242(2) 0.3771(2) 0.55796(9)
O2E O 1.13303(16) 0.60710(23) 0.48631(7)
H2E H 1.160(4) 0.677(5) 0.5125(12)
O3E O 0.84462(18) 0.22982(27) 0.43622(8)
O4E O 1.09393(19) 0.39423(28) 0.40702(8)
C2E C 0.9758(2) 0.3529(3) 0.44204(9)
O1A O 0.8481(2) 0.5067(3) 0.68778(9)
H1A H 0.903(4) 0.507(6) 0.7170(14)
O1B O 0.4933(3) 0.3414(2) 0.68778(9)
H1B H 0.493(6) 0.396(4) 0.7170(14)
La1C La 0.3333 -0.3333 0.397065(6)
O1C O 0.1519(2) -0.3414(2) 0.31222(9)
H1C H 0.097(4) -0.396(4) 0.2830(14)
O2C O 0.47407(17) -0.13303(16) 0.48631(7)
H2C H 0.517(3) -0.160(4) 0.5125(12)
O3C O 0.3852(2) 0.15538(18) 0.43622(8)
O4C O 0.3003(2) -0.09393(19) 0.40702(8)
C1B C 0.4615(2) 0.0000 0.5000
C2C C 0.3771(2) 0.0242(2) 0.44204(9)
O2B O 0.60710(23) 0.13303(16) 0.51369(7)
H2B H 0.677(5) 0.160(4) 0.4875(12)
O3B O 0.22982(27) -0.15538(18) 0.56378(8)
O4B O 0.39423(28) 0.09393(19) 0.59298(8)
C2B C 0.3529(3) -0.0242(2) 0.55796(9)
O2A O 0.52593(17) 0.39290(23) 0.51369(7)
H2A H 0.483(3) 0.323(5) 0.4875(12)
O3A O 0.6148(2) 0.77018(27) 0.56378(8)
O4A O 0.6997(2) 0.60577(28) 0.59298(8)
C1A C 0.5385(2) 0.5385(2) 0.5000
C2A C 0.6229(2) 0.6471(3) 0.55796(9)
O2D O 0.39290(23) 0.52593(17) 0.48631(7)
H2D H 0.323(5) 0.483(3) 0.5125(12)
O3D O 0.77018(27) 0.6148(2) 0.43622(8)
O4D O 0.60577(28) 0.6997(2) 0.40702(8)
C2D C 0.6471(3) 0.6229(2) 0.44204(9)
O1D O 0.5067(3) -0.1519(2) 0.31222(9)
H1D H 0.507(6) -0.097(4) 0.2830(14)
O1E O 0.3414(2) -0.5067(3) 0.31222(9)
H1E H 0.396(4) -0.507(6) 0.2830(14)
La1C_2 La 0.3333 0.6667 0.397065(6)
La1C_3 La 1.3333 0.6667 0.397065(6)
O2D_2 O 0.39290(23) -0.47407(17) 0.48631(7)
O2E_2 O 0.13303(16) -0.39290(23) 0.48631(7)
O4D_2 O 0.60577(28) -0.3003(2) 0.40702(8)
O4E_2 O 0.09393(19) -0.60577(28) 0.40702(8)
loop_
_geom_bond_atom_site_label_1
_geom_bond_atom_site_label_2
_geom_bond_site_symmetry_1
_geom_bond_site_symmetry_2
La1 O1 1_555 1_555
O1 H1 1_555 1_555
O2 La1 1_555 1_555
H2 O2 1_555 1_555
O3 C2 1_555 1_555
O4 La1 1_555 1_555
C1 O2 1_555 1_555
C2 O4 1_555 1_555
O2E C1 1_555 1_555
H2E O2E 1_555 1_555
O3E C2E 1_555 1_555
O4E C2E 1_555 1_555
C2E C1 1_555 1_555
O1A La1 1_555 1_555
H1A O1A 1_555 1_555
O1B La1 1_555 1_555
H1B O1B 1_555 1_555
La1C O1C 1_555 1_555
O1C H1C 1_555 1_555
O2C La1C 1_555 1_555
H2C O2C 1_555 1_555
O3C C2C 1_555 1_555
O4C La1C 1_555 1_555
C1B O2C 1_555 1_555
C2C O4C 1_555 1_555
O2B La1 1_555 1_555
H2B O2B 1_555 1_555
O3B C2B 1_555 1_555
O4B La1 1_555 1_555
C2B C1B 1_555 1_555
O2A La1 1_555 1_555
H2A O2A 1_555 1_555
O3A C2A 1_555 1_555
O4A La1 1_555 1_555
C1A O2A 1_555 1_555
C2A O4A 1_555 1_555
O2D C1A 1_555 1_555
H2D O2D 1_555 1_555
O3D C2D 1_555 1_555
O4D C2D 1_555 1_555
C2D C1A 1_555 1_555
O1D La1C 1_555 1_555
H1D O1D 1_555 1_555
O1E La1C 1_555 1_555
H1E O1E 1_555 1_555
La1C_2 O2D 1_555 1_555
La1C_3 O2E 1_555 1_555
O2D_2 La1C 1_555 1_555
O2E_2 La1C 1_555 1_555
O4D_2 La1C 1_555 1_555
O4E_2 La1C 1_555 1_555
C1 C2 1_555 1_555
O4E La1C_3 1_555 1_555
C1B C2C 1_555 1_555
C1B O2B 1_555 1_555
O4B C2B 1_555 1_555
C1A C2A 1_555 1_555
O4D La1C_2 1_555 1_555

#END
