
#######################################################################
#
#                 Cambridge Crystallographic Data Centre
#                                CCDC 
#
#######################################################################
#
# If this CIF has been generated from an entry in the Cambridge 
# Structural Database, then it will include bibliographic, chemical, 
# crystal, experimental, refinement or atomic coordinate data resulting 
# from the CCDC's data processing and validation procedures.
#
#######################################################################

data_UFOGAZ
_symmetry_cell_setting           rhombohedral
_symmetry_space_group_name_H-M   'R 3 2'
_symmetry_Int_Tables_number      155
_space_group_name_Hall           'R 3 2"'
loop_
_symmetry_equiv_pos_site_id
_symmetry_equiv_pos_as_xyz
1 x,y,z
2 -y,x-y,z
3 -x+y,-x,z
4 y,x,-z
5 x-y,-y,-z
6 -x,-x+y,-z
7 2/3+x,1/3+y,1/3+z
8 2/3-y,1/3+x-y,1/3+z
9 2/3-x+y,1/3-x,1/3+z
10 2/3+y,1/3+x,1/3-z
11 2/3+x-y,1/3-y,1/3-z
12 2/3-x,1/3-x+y,1/3-z
13 1/3+x,2/3+y,2/3+z
14 1/3-y,2/3+x-y,2/3+z
15 1/3-x+y,2/3-x,2/3+z
16 1/3+y,2/3+x,2/3-z
17 1/3+x-y,2/3-y,2/3-z
18 1/3-x,2/3-x+y,2/3-z
_cell_length_a                   9.61380(10)
_cell_length_b                   9.61380(10)
_cell_length_c                   20.4885(6)
_cell_angle_alpha                90
_cell_angle_beta                 90
_cell_angle_gamma                120
_cell_volume                     1639.95
loop_
_atom_site_label
_atom_site_type_symbol
_atom_site_fract_x
_atom_site_fract_y
_atom_site_fract_z
Dy1 Dy 0.6667 0.3333 0.599367(2)
O1 O 0.86371(9) 0.47715(10) 0.51322(4)
H1 H 0.847(2) 0.528(2) 0.4828(7)
O2 O 0.65342(12) 0.15382(13) 0.68070(5)
H2 H 0.5780(17) 0.098(2) 0.7038(8)
H3 H 0.7368(17) 0.171(2) 0.7009(9)
O3 O 0.89639(11) 0.29715(12) 0.59450(4)
O4 O 1.15371(11) 0.38885(13) 0.56942(4)
C1 C 1.0000 0.46486(14) 0.5000
C2 C 1.01991(13) 0.37808(13) 0.56034(5)
O1E O 1.13629(9) 0.61344(13) 0.48678(4)
H1E H 1.153(2) 0.681(3) 0.5172(7)
O3E O 1.10361(11) 0.40076(16) 0.40550(4)
O4E O 0.84629(11) 0.23514(17) 0.43058(4)
C2E C 0.98009(13) 0.35817(18) 0.43966(5)
O2A O 0.84618(13) 0.49960(18) 0.68070(5)
H2A H 0.902(2) 0.4800(26) 0.7038(8)
H3A H 0.829(2) 0.5658(26) 0.7009(9)
O2B O 0.50040(18) 0.34658(12) 0.68070(5)
H2B H 0.5200(26) 0.4220(17) 0.7038(8)
H3B H 0.4342(26) 0.2632(17) 0.7009(9)
Dy1C Dy 0.3333 -0.3333 0.400633(2)
O1C O 0.47715(10) -0.13629(9) 0.48678(4)
H1C H 0.528(2) -0.153(2) 0.5172(7)
O2C O 0.15382(13) -0.34658(12) 0.31930(5)
H2C H 0.098(2) -0.4220(17) 0.2962(8)
H3C H 0.171(2) -0.2632(17) 0.2991(9)
O3C O 0.29715(12) -0.10361(11) 0.40550(4)
O4C O 0.38885(13) 0.15371(11) 0.43058(4)
C1B C 0.46486(14) 0.0000 0.5000
C2C C 0.37808(13) 0.01991(13) 0.43966(5)
O1B O 0.61344(13) 0.13629(9) 0.51322(4)
H1B H 0.681(3) 0.153(2) 0.4828(7)
O3B O 0.40076(16) 0.10361(11) 0.59450(4)
O4B O 0.23514(17) -0.15371(11) 0.56942(4)
C2B C 0.35817(18) -0.01991(13) 0.56034(5)
O1A O 0.52285(10) 0.38656(13) 0.51322(4)
H1A H 0.472(2) 0.319(3) 0.4828(7)
O3A O 0.70285(12) 0.59924(16) 0.59450(4)
O4A O 0.61115(13) 0.76486(17) 0.56942(4)
C1A C 0.53514(14) 0.53514(14) 0.5000
C2A C 0.62192(13) 0.64183(18) 0.56034(5)
O1D O 0.38656(13) 0.52285(10) 0.48678(4)
H1D H 0.319(3) 0.472(2) 0.5172(7)
O3D O 0.59924(16) 0.70285(12) 0.40550(4)
O4D O 0.76486(17) 0.61115(13) 0.43058(4)
C2D C 0.64183(18) 0.62192(13) 0.43966(5)
O2D O 0.49960(18) -0.15382(13) 0.31930(5)
H2D H 0.4800(26) -0.098(2) 0.2962(8)
H3D H 0.5658(26) -0.171(2) 0.2991(9)
O2E O 0.34658(12) -0.49960(18) 0.31930(5)
H2E H 0.4220(17) -0.4800(26) 0.2962(8)
H3E H 0.2632(17) -0.5658(26) 0.2991(9)
Dy1C_2 Dy 0.3333 0.6667 0.400633(2)
Dy1C_3 Dy 1.3333 0.6667 0.400633(2)
O1D_2 O 0.38656(13) -0.47715(10) 0.48678(4)
O1E_2 O 0.13629(9) -0.38656(13) 0.48678(4)
O3D_2 O 0.59924(16) -0.29715(12) 0.40550(4)
O3E_2 O 0.10361(11) -0.59924(16) 0.40550(4)
O5 O 0.6667 0.3333 0.8333
loop_
_geom_bond_atom_site_label_1
_geom_bond_atom_site_label_2
_geom_bond_site_symmetry_1
_geom_bond_site_symmetry_2
Dy1 O1 1_555 1_555
O1 H1 1_555 1_555
O2 Dy1 1_555 1_555
H2 O2 1_555 1_555
H3 O2 1_555 1_555
O3 Dy1 1_555 1_555
O4 C2 1_555 1_555
C1 O1 1_555 1_555
C2 O3 1_555 1_555
O1E C1 1_555 1_555
H1E O1E 1_555 1_555
O3E C2E 1_555 1_555
O4E C2E 1_555 1_555
C2E C1 1_555 1_555
O2A Dy1 1_555 1_555
H2A O2A 1_555 1_555
H3A O2A 1_555 1_555
O2B Dy1 1_555 1_555
H2B O2B 1_555 1_555
H3B O2B 1_555 1_555
Dy1C O1C 1_555 1_555
O1C H1C 1_555 1_555
O2C Dy1C 1_555 1_555
H2C O2C 1_555 1_555
H3C O2C 1_555 1_555
O3C Dy1C 1_555 1_555
O4C C2C 1_555 1_555
C1B O1C 1_555 1_555
C2C O3C 1_555 1_555
O1B Dy1 1_555 1_555
H1B O1B 1_555 1_555
O3B Dy1 1_555 1_555
O4B C2B 1_555 1_555
C2B C1B 1_555 1_555
O1A Dy1 1_555 1_555
H1A O1A 1_555 1_555
O3A Dy1 1_555 1_555
O4A C2A 1_555 1_555
C1A O1A 1_555 1_555
C2A O3A 1_555 1_555
O1D C1A 1_555 1_555
H1D O1D 1_555 1_555
O3D C2D 1_555 1_555
O4D C2D 1_555 1_555
C2D C1A 1_555 1_555
O2D Dy1C 1_555 1_555
H2D O2D 1_555 1_555
H3D O2D 1_555 1_555
O2E Dy1C 1_555 1_555
H2E O2E 1_555 1_555
H3E O2E 1_555 1_555
Dy1C_2 O1D 1_555 1_555
Dy1C_3 O1E 1_555 1_555
O1D_2 Dy1C 1_555 1_555
O1E_2 Dy1C 1_555 1_555
O3D_2 Dy1C 1_555 1_555
O3E_2 Dy1C 1_555 1_555
C1 C2 1_555 1_555
O3E Dy1C_3 1_555 1_555
C1B C2C 1_555 1_555
C1B O1B 1_555 1_555
O3B C2B 1_555 1_555
C1A C2A 1_555 1_555
O3D Dy1C_2 1_555 1_555

#END
