
#######################################################################
#
#                 Cambridge Crystallographic Data Centre
#                                CCDC 
#
#######################################################################
#
# If this CIF has been generated from an entry in the Cambridge 
# Structural Database, then it will include bibliographic, chemical, 
# crystal, experimental, refinement or atomic coordinate data resulting 
# from the CCDC's data processing and validation procedures.
#
#######################################################################

data_UFOMAD
_symmetry_cell_setting           tetragonal
_symmetry_space_group_name_H-M   'P 4/n'
_symmetry_Int_Tables_number      85
_space_group_name_Hall           '-P 4a'
loop_
_symmetry_equiv_pos_site_id
_symmetry_equiv_pos_as_xyz
1 x,y,z
2 1/2-y,x,z
3 1/2-x,1/2-y,z
4 y,1/2-x,z
5 -x,-y,-z
6 1/2+y,-x,-z
7 1/2+x,1/2+y,-z
8 -y,1/2+x,-z
_cell_length_a                   20.6507(18)
_cell_length_b                   20.6507(18)
_cell_length_c                   12.0714(17)
_cell_angle_alpha                90
_cell_angle_beta                 90
_cell_angle_gamma                90
_cell_volume                     5147.87
loop_
_atom_site_label
_atom_site_type_symbol
_atom_site_fract_x
_atom_site_fract_y
_atom_site_fract_z
C76 C 0.5165(6) 0.4160(6) 0.2980(9)
Cl1 Cl 0.4675(5) 0.4838(6) 0.3248(10)
Cl2 Cl 0.5800(6) 0.4072(5) 0.3972(9)
C77 C 0.5444(6) 0.4191(6) 0.1812(9)
Cl3 Cl 0.5846(11) 0.3454(7) 0.1516(15)
Cl4 Cl 0.5966(11) 0.4869(8) 0.1661(14)
H11 H 0.4890 0.3774 0.3026
H12 H 0.5084 0.4239 0.1289
Pb1 Pb 0.2500 0.7500 0.5000
N2 N 0.3747(9) 0.7575(10) 0.4770(20)
C6 C 0.4025(11) 0.7354(12) 0.3840(20)
C7 C 0.4694(12) 0.7325(11) 0.3714(15)
C8 C 0.5100(9) 0.7529(6) 0.4566(17)
C9 C 0.4803(10) 0.7758(12) 0.5525(17)
C10 C 0.4133(10) 0.7773(13) 0.5600(20)
C11 C 0.5837(2) 0.7501(5) 0.4446(4)
C12 C 0.6149(5) 0.8096(5) 0.4438(8)
C13 C 0.5860(7) 0.8729(6) 0.4465(15)
C14 C 0.6289(6) 0.9216(7) 0.4427(15)
C15 C 0.6132(5) 0.6896(5) 0.4424(9)
N3 N 0.6799(4) 0.8210(4) 0.4416(3)
N4 N 0.2500 0.7500 0.7563(7)
O1 O 0.2002(3) 0.7507(10) 0.7088(5)
O2 O 0.2500 0.7500 0.8640(7)
H5 H 0.3762 0.7216 0.3264
H6 H 0.4871 0.7169 0.3058
H7 H 0.5054 0.7900 0.6116
H8 H 0.3945 0.7927 0.6247
H9 H 0.5415 0.8795 0.4506
H10 H 0.6215 0.9660 0.4407
C15C C 0.6896(5) 0.8868(5) 0.4424(9)
C11C C 0.7501(5) 0.9163(2) 0.4446(4)
C8C C 0.7529(6) 0.9900(9) 0.4566(17)
C7C C 0.7325(11) 1.0306(12) 0.3714(15)
C6C C 0.7354(12) 1.0975(11) 0.3840(20)
N2C N 0.7575(10) 1.1253(9) 0.4770(20)
C10C C 0.7773(13) 1.0867(10) 0.5600(20)
C9C C 0.7758(12) 1.0197(10) 0.5525(17)
H7C H 0.7900 0.9946 0.6116
H8C H 0.7927 1.1055 0.6247
H5C H 0.7216 1.1238 0.3264
H6C H 0.7169 1.0129 0.3058
C12C C 0.8096(5) 0.8851(5) 0.4438(8)
C13C C 0.8729(6) 0.9140(7) 0.4465(15)
C14C C 0.9216(7) 0.8711(6) 0.4427(15)
C15B C 0.8868(5) 0.8104(5) 0.4424(9)
C11B C 0.9163(2) 0.7499(5) 0.4446(4)
C8B C 0.9900(9) 0.7471(6) 0.4566(17)
C7B C 1.0306(12) 0.7675(11) 0.3714(15)
C6B C 1.0975(11) 0.7646(12) 0.3840(20)
N2B N 1.1253(9) 0.7425(10) 0.4770(20)
C10B C 1.0867(10) 0.7227(13) 0.5600(20)
C9B C 1.0197(10) 0.7242(12) 0.5525(17)
H7B H 0.9946 0.7100 0.6116
H8B H 1.1055 0.7073 0.6247
H5B H 1.1238 0.7784 0.3264
H6B H 1.0129 0.7831 0.3058
C12B C 0.8851(5) 0.6904(5) 0.4438(8)
C13B C 0.9140(7) 0.6271(6) 0.4465(15)
C14B C 0.8711(6) 0.5784(7) 0.4427(15)
C15A C 0.8104(5) 0.6132(5) 0.4424(9)
C11A C 0.7499(5) 0.5837(2) 0.4446(4)
C8A C 0.7471(6) 0.5100(9) 0.4566(17)
C7A C 0.7675(11) 0.4694(12) 0.3714(15)
C6A C 0.7646(12) 0.4025(11) 0.3840(20)
N2A N 0.7425(10) 0.3747(9) 0.4770(20)
C10A C 0.7227(13) 0.4133(10) 0.5600(20)
C9A C 0.7242(12) 0.4803(10) 0.5525(17)
H7A H 0.7100 0.5054 0.6116
H8A H 0.7073 0.3945 0.6247
H5A H 0.7784 0.3762 0.3264
H6A H 0.7831 0.4871 0.3058
C12A C 0.6904(5) 0.6149(5) 0.4438(8)
C13A C 0.6271(6) 0.5860(7) 0.4465(15)
C14A C 0.5784(7) 0.6289(6) 0.4427(15)
N3A N 0.6790(4) 0.6799(4) 0.4416(3)
H10A H 0.5340 0.6215 0.4407
H9A H 0.6205 0.5415 0.4506
N3B N 0.8201(4) 0.6790(4) 0.4416(3)
H10B H 0.8785 0.5340 0.4407
H9B H 0.9585 0.6205 0.4506
N3C N 0.8210(4) 0.8201(4) 0.4416(3)
H10C H 0.9660 0.8785 0.4407
H9C H 0.8795 0.9585 0.4506
O1B O 0.2998(3) 0.7493(10) 0.7088(5)
N4E N 0.2500 0.7500 0.2437(7)
O1E O 0.2507(10) 0.7998(3) 0.2912(5)
O2E O 0.2500 0.7500 0.1360(7)
O1G O 0.2493(10) 0.7002(3) 0.2912(5)
N2B_2 N 0.1253(9) 0.7425(10) 0.4770(20)
N2E N 0.2575(10) 0.6253(9) 0.5230(20)
N2G N 0.2425(10) 0.8747(9) 0.5230(20)
Pb1A Pb 0.7500 1.2500 0.5000
Pb1_2 Pb 1.2500 0.7500 0.5000
Pb1A_2 Pb 0.7500 0.2500 0.5000
N1? N 0.3792(8) 0.7447(11) 0.4680(20)
C1? C 0.4078(12) 0.7604(11) 0.3720(20)
C2? C 0.4747(12) 0.7602(10) 0.3593(16)
C3? C 0.5144(9) 0.7434(10) 0.4481(17)
C4? C 0.4838(10) 0.7273(12) 0.5471(17)
C5? C 0.4167(10) 0.7285(12) 0.5540(20)
C16? C 0.3877(7) 0.1489(8) 0.0427(9)
C17? C 0.4026(7) 0.1884(8) 0.1388(9)
C18? C 0.4189(7) 0.2530(8) 0.1008(9)
C19? C 0.4154(7) 0.2533(8) -0.0196(9)
C20? C 0.3957(7) 0.1891(8) -0.0550(9)
C21? C 0.3384(6) 0.1036(8) 0.0474(9)
C22? C 0.2941(6) 0.0964(9) -0.0453(10)
C23? C 0.2299(6) 0.0837(8) -0.0022(10)
C24? C 0.2341(6) 0.0837(9) 0.1184(10)
C25? C 0.3010(6) 0.0958(8) 0.1484(9)
C26? C 0.3669(7) 0.1808(8) 0.2351(9)
C27? C 0.3153(7) 0.1334(8) 0.2399(10)
C28? C 0.2629(6) 0.1606(8) 0.3056(10)
C29? C 0.2825(7) 0.2248(8) 0.3412(9)
C30? C 0.3467(7) 0.2374(8) 0.2974(9)
C31? C 0.4004(7) 0.3067(8) 0.1605(9)
C32? C 0.3631(7) 0.2987(8) 0.2617(9)
C33? C 0.3160(6) 0.3507(8) 0.2674(10)
C34? C 0.3240(6) 0.3907(8) 0.1691(10)
C35? C 0.3762(7) 0.3637(8) 0.1035(10)
C36? C 0.3918(7) 0.3075(8) -0.0734(10)
C37? C 0.3716(7) 0.3636(8) -0.0108(10)
C38? C 0.3154(6) 0.3915(8) -0.0647(10)
C39? C 0.3006(7) 0.3522(8) -0.1612(10)
C40? C 0.3480(7) 0.3002(8) -0.1666(10)
C41? C 0.3539(7) 0.1821(8) -0.1435(11)
C42? C 0.3294(7) 0.2391(8) -0.2002(10)
C43? C 0.2624(6) 0.2268(8) -0.2299(9)
C44? C 0.2455(6) 0.1623(8) -0.1920(10)
C45? C 0.3019(6) 0.1349(8) -0.1381(10)
C46? C 0.1761(6) 0.1102(8) -0.0530(10)
C47? C 0.1842(7) 0.1502(8) -0.1509(10)
C48? C 0.1370(7) 0.2022(8) -0.1454(9)
C49? C 0.0999(7) 0.1944(8) -0.0441(9)
C50? C 0.1242(7) 0.1375(8) 0.0129(10)
C51? C 0.1992(7) 0.1487(8) 0.2773(10)
C52? C 0.1845(7) 0.1094(8) 0.1807(10)
C53? C 0.1279(7) 0.1369(8) 0.1272(10)
C54? C 0.1077(7) 0.1933(8) 0.1900(10)
C55? C 0.1519(7) 0.2007(8) 0.2826(10)
C56? C 0.2546(6) 0.3385(8) 0.3083(10)
C57? C 0.2376(6) 0.2741(8) 0.3462(9)
C58? C 0.1707(7) 0.2617(8) 0.3165(10)
C59? C 0.1462(6) 0.3189(8) 0.2599(10)
C60? C 0.1981(6) 0.3661(8) 0.2546(10)
C61? C 0.2658(6) 0.4175(8) -0.0023(10)
C62? C 0.2702(6) 0.4167(9) 0.1181(10)
C63? C 0.2059(6) 0.4044(8) 0.1618(9)
C64? C 0.1616(6) 0.3973(8) 0.0693(9)
C65? C 0.1989(6) 0.4049(8) -0.0320(9)
C66? C 0.2175(7) 0.2761(8) -0.2248(9)
C67? C 0.2369(6) 0.3403(8) -0.1893(10)
C68? C 0.1846(7) 0.3674(8) -0.1234(10)
C69? C 0.1330(7) 0.3201(8) -0.1187(9)
C70? C 0.1530(7) 0.2636(8) -0.1814(9)
C71? C 0.0807(7) 0.2480(8) 0.0153(9)
C72? C 0.0848(7) 0.2475(8) 0.1359(9)
C73? C 0.1043(7) 0.3117(8) 0.1714(9)
C74? C 0.1122(7) 0.3521(8) 0.0739(9)
C75? C 0.0974(7) 0.3125(8) -0.0224(8)
C78? C 0.3883(4) 0.5372(6) 0.2754(9)
Cl5? Cl 0.4035(5) 0.5790(5) 0.4013(7)
Cl6? Cl 0.3422(6) 0.5803(7) 0.1765(10)
C79? C 0.4525(5) 0.5164(5) 0.2210(10)
Cl7? Cl 0.4965(5) 0.5861(5) 0.1800(8)
Cl8? Cl 0.4951(6) 0.4649(6) 0.3097(12)
C80? C 0.3777(8) 0.6804(6) -0.0276(12)
Cl9? Cl 0.4351(7) 0.6392(10) -0.1110(17)
Cl10? Cl 0.4131(9) 0.7351(6) 0.0658(12)
C81? C 0.3346(7) 0.6317(7) 0.0340(12)
Cl11? Cl 0.3811(9) 0.5858(8) 0.1297(11)
Cl12? Cl 0.2980(6) 0.5799(6) -0.0653(11)
C82? C 0.3410(11) 0.6354(12) -0.0369(19)
Cl13? Cl 0.2804(14) 0.5787(13) 0.0050(20)
Cl14? Cl 0.3990(15) 0.5965(19) -0.1230(30)
C83? C 0.3722(13) 0.6650(11) 0.0650(20)
Cl15? Cl 0.3980(20) 0.7454(10) 0.0430(30)
Cl16? Cl 0.4333(14) 0.6156(13) 0.1210(20)
C84? C 0.3762(16) 0.6357(17) 0.1490(20)
Cl17? Cl 0.4616(16) 0.6382(19) 0.1590(30)
Cl18? Cl 0.3480(20) 0.5581(17) 0.1070(40)
C85? C 0.3513(15) 0.6867(15) 0.0680(20)
Cl19? Cl 0.3540(20) 0.6556(16) -0.0690(20)
Cl20? Cl 0.3950(30) 0.7599(15) 0.0820(30)
H1? H 0.3821 0.7717 0.3117
H2? H 0.4930 0.7713 0.2915
H3? H 0.5084 0.7158 0.6086
H4? H 0.3971 0.7177 0.6210
H13? H 0.3643 0.4977 0.2938
H14? H 0.4419 0.4919 0.1539
H15? H 0.3497 0.7054 -0.0773
H16? H 0.3007 0.6552 0.0742
H17? H 0.3201 0.6699 -0.0796
H18? H 0.3382 0.6671 0.1212
H19? H 0.3580(20) 0.6450(20) 0.2220(20)
H20? H 0.3061(17) 0.6950(20) 0.0860(30)
loop_
_geom_bond_atom_site_label_1
_geom_bond_atom_site_label_2
_geom_bond_site_symmetry_1
_geom_bond_site_symmetry_2
Pb1 N2 1_555 1_555
N2 C6 1_555 1_555
C6 C7 1_555 1_555
C7 C8 1_555 1_555
C8 C9 1_555 1_555
C9 C10 1_555 1_555
C10 N2 1_555 1_555
C11 C8 1_555 1_555
C12 C11 1_555 1_555
C13 C12 1_555 1_555
C14 C13 1_555 1_555
C15 C11 1_555 1_555
N3 C12 1_555 1_555
N4 O1 1_555 1_555
O1 Pb1 1_555 1_555
O2 N4 1_555 1_555
C76 Cl1 1_555 1_555
Cl2 C76 1_555 1_555
C77 C76 1_555 1_555
Cl3 C77 1_555 1_555
Cl4 C77 1_555 1_555
H5 C6 1_555 1_555
H6 C7 1_555 1_555
H7 C9 1_555 1_555
H8 C10 1_555 1_555
H9 C13 1_555 1_555
H10 C14 1_555 1_555
H11 C76 1_555 1_555
H12 C77 1_555 1_555
C15C C14 1_555 1_555
C11C C15C 1_555 1_555
C8C C11C 1_555 1_555
C7C C8C 1_555 1_555
C6C C7C 1_555 1_555
N2C C6C 1_555 1_555
C10C N2C 1_555 1_555
C9C C8C 1_555 1_555
H7C C9C 1_555 1_555
H8C C10C 1_555 1_555
H5C C6C 1_555 1_555
H6C C7C 1_555 1_555
C12C C11C 1_555 1_555
C13C C12C 1_555 1_555
C14C C13C 1_555 1_555
C15B C14C 1_555 1_555
C11B C15B 1_555 1_555
C8B C11B 1_555 1_555
C7B C8B 1_555 1_555
C6B C7B 1_555 1_555
N2B C6B 1_555 1_555
C10B N2B 1_555 1_555
C9B C8B 1_555 1_555
H7B C9B 1_555 1_555
H8B C10B 1_555 1_555
H5B C6B 1_555 1_555
H6B C7B 1_555 1_555
C12B C11B 1_555 1_555
C13B C12B 1_555 1_555
C14B C13B 1_555 1_555
C15A C14B 1_555 1_555
C11A C15A 1_555 1_555
C8A C11A 1_555 1_555
C7A C8A 1_555 1_555
C6A C7A 1_555 1_555
N2A C6A 1_555 1_555
C10A N2A 1_555 1_555
C9A C8A 1_555 1_555
H7A C9A 1_555 1_555
H8A C10A 1_555 1_555
H5A C6A 1_555 1_555
H6A C7A 1_555 1_555
C12A C11A 1_555 1_555
C13A C12A 1_555 1_555
C14A C15 1_555 1_555
N3A C15 1_555 1_555
H10A C14A 1_555 1_555
H9A C13A 1_555 1_555
N3B C12B 1_555 1_555
H10B C14B 1_555 1_555
H9B C13B 1_555 1_555
N3C C12C 1_555 1_555
H10C C14C 1_555 1_555
H9C C13C 1_555 1_555
O1B Pb1 1_555 1_555
N4E O1E 1_555 1_555
O1E Pb1 1_555 1_555
O2E N4E 1_555 1_555
O1G Pb1 1_555 1_555
N2B_2 Pb1 1_555 1_555
N2E Pb1 1_555 1_555
N2G Pb1 1_555 1_555
Pb1A N2C 1_555 1_555
Pb1_2 N2B 1_555 1_555
Pb1A_2 N2A 1_555 1_555
N3 C15C 1_555 1_555
N4 O1B 1_555 1_555
C10C C9C 1_555 1_555
C15B N3C 1_555 1_555
C10B C9B 1_555 1_555
C15A N3B 1_555 1_555
C10A C9A 1_555 1_555
C12A N3A 1_555 1_555
C13A C14A 1_555 1_555
N4E O1G 1_555 1_555

#END
