
#######################################################################
#
#                 Cambridge Crystallographic Data Centre
#                                CCDC 
#
#######################################################################
#
# If this CIF has been generated from an entry in the Cambridge 
# Structural Database, then it will include bibliographic, chemical, 
# crystal, experimental, refinement or atomic coordinate data resulting 
# from the CCDC's data processing and validation procedures.
#
#######################################################################

data_UFOPAG
_symmetry_cell_setting           triclinic
_symmetry_space_group_name_H-M   'P -1'
_symmetry_Int_Tables_number      2
_space_group_name_Hall           '-P 1'
loop_
_symmetry_equiv_pos_site_id
_symmetry_equiv_pos_as_xyz
1 x,y,z
2 -x,-y,-z
_cell_length_a                   10.328(2)
_cell_length_b                   10.763(2)
_cell_length_c                   8.574(2)
_cell_angle_alpha                112.88(1)
_cell_angle_beta                 99.29(2)
_cell_angle_gamma                94.19(2)
_cell_volume                     856.859
loop_
_atom_site_label
_atom_site_type_symbol
_atom_site_fract_x
_atom_site_fract_y
_atom_site_fract_z
Fe1 Fe 0.0000 0.5000 0.0000
Mn1 Mn 0.5000 0.0000 0.5000
S1 S 0.1863(2) 0.4841(2) 0.3379(2)
F1 F 0.8726(5) 0.0496(5) 0.1360(5)
F2 F 0.9369(4) 0.0295(6) 0.3640(10)
F3 F 0.8760(4) 0.2080(4) 0.3728(6)
F4 F 0.5341(5) -0.3250(8) -0.1430(8)
F5 F 0.3648(9) -0.2528(6) -0.1340(8)
F6 F 0.406(1) -0.3788(5) -0.0338(7)
O1 O 0.6738(3) 0.0744(3) 0.4300(4)
O2 O 0.4430(3) -0.1324(3) 0.2306(3)
N1 N 0.3841(4) 0.1579(4) 0.4537(5)
C1 C 0.4234(6) 0.2927(5) 0.5485(6)
C2 C 0.3640(7) 0.3920(5) 0.5163(7)
C3 C 0.2560(5) 0.3529(5) 0.3787(6)
C4 C 0.2116(5) 0.2151(5) 0.2819(6)
C5 C 0.2793(5) 0.1223(4) 0.3231(6)
C6 C 0.0959(5) 0.3988(5) 0.1246(8)
C7 C -0.0383(6) 0.3475(7) 0.075(1)
C8 C -0.0718(10) 0.2990(7) -0.103(2)
C9 C 0.038(1) 0.3198(7) -0.1653(10)
C10 C 0.1456(6) 0.3833(6) -0.0245(8)
C11 C 0.8495(5) 0.0769(5) 0.2916(7)
C12 C 0.7104(4) 0.0177(4) 0.2909(5)
C13 C 0.6431(5) -0.0924(5) 0.1402(6)
C14 C 0.5169(4) -0.1564(4) 0.1232(5)
C15 C 0.4583(5) -0.2768(6) -0.0497(6)
H1 H 0.4981 0.3188 0.6415
H2 H 0.3950 0.4867 0.5879
H3 H 0.1367 0.1851 0.1870
H4 H 0.2491 0.0258 0.2539
H5 H -0.0979 0.3435 0.1517
H6 H -0.1597 0.2580 -0.1775
H7 H 0.0398 0.2973 -0.2859
H8 H 0.2373 0.4105 -0.0279
H9 H 0.6865 -0.1249 0.0447
C6A C -0.0959(5) 0.6012(5) -0.1246(8)
S1A S -0.1863(2) 0.5159(2) -0.3379(2)
C3A C -0.2560(5) 0.6471(5) -0.3787(6)
C2A C -0.3640(7) 0.6080(5) -0.5163(7)
C1A C -0.4234(6) 0.7073(5) -0.5485(6)
N1A N -0.3841(4) 0.8421(4) -0.4537(5)
C5A C -0.2793(5) 0.8777(4) -0.3231(6)
C4A C -0.2116(5) 0.7849(5) -0.2819(6)
H3A H -0.1367 0.8149 -0.1870
H4A H -0.2491 0.9742 -0.2539
H1A H -0.4981 0.6812 -0.6415
H2A H -0.3950 0.5133 -0.5879
C7A C 0.0383(6) 0.6525(7) -0.075(1)
C8A C 0.0718(10) 0.7010(7) 0.103(2)
H5A H 0.0979 0.6565 -0.1517
C9A C -0.038(1) 0.6802(7) 0.1653(10)
C10A C -0.1456(6) 0.6167(6) 0.0245(8)
H7A H -0.0398 0.7027 0.2859
H8A H -0.2373 0.5895 0.0279
H6A H 0.1597 0.7420 0.1775
F1A F 0.1274(5) -0.0496(5) 0.8640(5)
F2A F 0.0631(4) -0.0295(6) 0.6360(10)
F3A F 0.1240(4) -0.2080(4) 0.6272(6)
F4A F 0.4659(5) 0.3250(8) 1.1430(8)
F5A F 0.6352(9) 0.2528(6) 1.1340(8)
F6A F 0.594(1) 0.3788(5) 1.0338(7)
O1A O 0.3262(3) -0.0744(3) 0.5700(4)
O2A O 0.5570(3) 0.1324(3) 0.7694(3)
C11A C 0.1505(5) -0.0769(5) 0.7084(7)
C12A C 0.2896(4) -0.0177(4) 0.7091(5)
C13A C 0.3569(5) 0.0924(5) 0.8598(6)
C14A C 0.4831(4) 0.1564(4) 0.8768(5)
C15A C 0.5417(5) 0.2768(6) 1.0497(6)
H9A H 0.3135 0.1249 0.9553
N1A_2 N 0.6159(4) -0.1579(4) 0.5463(5)
Mn1_2 Mn -0.5000 1.0000 -0.5000
loop_
_geom_bond_atom_site_label_1
_geom_bond_atom_site_label_2
_geom_bond_site_symmetry_1
_geom_bond_site_symmetry_2
Fe1 C6 1_555 1_555
Mn1 O1 1_555 1_555
S1 C3 1_555 1_555
F1 C11 1_555 1_555
F2 C11 1_555 1_555
F3 C11 1_555 1_555
F4 C15 1_555 1_555
F5 C15 1_555 1_555
F6 C15 1_555 1_555
O1 C12 1_555 1_555
O2 Mn1 1_555 1_555
N1 Mn1 1_555 1_555
C1 N1 1_555 1_555
C2 C1 1_555 1_555
C3 C2 1_555 1_555
C4 C3 1_555 1_555
C5 N1 1_555 1_555
C6 S1 1_555 1_555
C7 Fe1 1_555 1_555
C8 Fe1 1_555 1_555
C9 Fe1 1_555 1_555
C10 Fe1 1_555 1_555
C11 C12 1_555 1_555
C12 C13 1_555 1_555
C13 C14 1_555 1_555
C14 O2 1_555 1_555
C15 C14 1_555 1_555
H1 C1 1_555 1_555
H2 C2 1_555 1_555
H3 C4 1_555 1_555
H4 C5 1_555 1_555
H5 C7 1_555 1_555
H6 C8 1_555 1_555
H7 C9 1_555 1_555
H8 C10 1_555 1_555
H9 C13 1_555 1_555
C6A Fe1 1_555 1_555
S1A C6A 1_555 1_555
C3A S1A 1_555 1_555
C2A C3A 1_555 1_555
C1A C2A 1_555 1_555
N1A C1A 1_555 1_555
C5A N1A 1_555 1_555
C4A C3A 1_555 1_555
H3A C4A 1_555 1_555
H4A C5A 1_555 1_555
H1A C1A 1_555 1_555
H2A C2A 1_555 1_555
C7A Fe1 1_555 1_555
C8A Fe1 1_555 1_555
H5A C7A 1_555 1_555
C9A Fe1 1_555 1_555
C10A Fe1 1_555 1_555
H7A C9A 1_555 1_555
H8A C10A 1_555 1_555
H6A C8A 1_555 1_555
F1A C11A 1_555 1_555
F2A C11A 1_555 1_555
F3A C11A 1_555 1_555
F4A C15A 1_555 1_555
F5A C15A 1_555 1_555
F6A C15A 1_555 1_555
O1A Mn1 1_555 1_555
O2A Mn1 1_555 1_555
C11A C12A 1_555 1_555
C12A O1A 1_555 1_555
C13A C12A 1_555 1_555
C14A O2A 1_555 1_555
C15A C14A 1_555 1_555
H9A C13A 1_555 1_555
N1A_2 Mn1 1_555 1_555
Mn1_2 N1A 1_555 1_555
C4 C5 1_555 1_555
C6 C7 1_555 1_555
C6 C10 1_555 1_555
C7 C8 1_555 1_555
C8 C9 1_555 1_555
C9 C10 1_555 1_555
C6A C7A 1_555 1_555
C6A C10A 1_555 1_555
C5A C4A 1_555 1_555
C7A C8A 1_555 1_555
C8A C9A 1_555 1_555
C9A C10A 1_555 1_555
C13A C14A 1_555 1_555

#END
