
#######################################################################
#
#                 Cambridge Crystallographic Data Centre
#                                CCDC 
#
#######################################################################
#
# If this CIF has been generated from an entry in the Cambridge 
# Structural Database, then it will include bibliographic, chemical, 
# crystal, experimental, refinement or atomic coordinate data resulting 
# from the CCDC's data processing and validation procedures.
#
#######################################################################

data_UFOPEK
_symmetry_cell_setting           triclinic
_symmetry_space_group_name_H-M   'P -1'
_symmetry_Int_Tables_number      2
_space_group_name_Hall           '-P 1'
loop_
_symmetry_equiv_pos_site_id
_symmetry_equiv_pos_as_xyz
1 x,y,z
2 -x,-y,-z
_cell_length_a                   14.006(3)
_cell_length_b                   14.234(3)
_cell_length_c                   7.265(3)
_cell_angle_alpha                103.07(3)
_cell_angle_beta                 93.77(2)
_cell_angle_gamma                94.48(2)
_cell_volume                     1401.33
loop_
_atom_site_label
_atom_site_type_symbol
_atom_site_fract_x
_atom_site_fract_y
_atom_site_fract_z
Ag1 Ag 0.44268(3) 0.04531(3) 0.18340(6)
Fe1 Fe 0.20944(4) -0.51980(4) 0.51331(8)
S1 S 0.40122(8) -0.38847(8) 0.4115(2)
S2 S 0.35340(10) -0.55547(8) 0.8758(2)
N1 N 0.4307(3) -0.0928(2) 0.2666(5)
N2 N 0.4113(3) -0.8257(2) 1.0833(5)
C1 C 0.5048(3) -0.1277(3) 0.3442(6)
C2 C 0.4980(3) -0.2165(3) 0.3926(6)
C3 C 0.4097(3) -0.2729(3) 0.3577(5)
C4 C 0.3325(3) -0.2366(3) 0.2770(7)
C5 C 0.3470(3) -0.1467(3) 0.2351(7)
C6 C 0.2794(3) -0.4023(3) 0.4512(6)
C7 C 0.2409(4) -0.3762(3) 0.6334(7)
C8 C 0.1400(4) -0.3983(4) 0.6003(10)
C9 C 0.1161(4) -0.4367(4) 0.4082(9)
C10 C 0.2008(3) -0.4406(3) 0.3140(7)
C11 C 0.4724(3) -0.7451(3) 1.1270(6)
C12 C 0.4554(3) -0.6622(3) 1.0679(6)
C13 C 0.3723(3) -0.6623(3) 0.9533(6)
C14 C 0.3091(3) -0.7448(3) 0.9087(6)
C15 C 0.3313(3) -0.8240(3) 0.9779(6)
C16 C 0.2723(3) -0.6002(3) 0.6765(6)
C17 C 0.2967(3) -0.6289(3) 0.4851(7)
C18 C 0.2100(4) -0.6608(3) 0.3670(7)
C19 C 0.1328(3) -0.6520(3) 0.4836(8)
C20 C 0.1694(3) -0.6150(3) 0.6726(7)
H1 H 0.5664 -0.0890 0.3681
H2 H 0.5527 -0.2396 0.4484
H3 H 0.2702 -0.2724 0.2529
H4 H 0.2934 -0.1200 0.1849
H5 H 0.2781 -0.3480 0.7551
H6 H 0.0949 -0.3900 0.6986
H7 H 0.0523 -0.4602 0.3472
H8 H 0.2052 -0.4644 0.1803
H9 H 0.5309 -0.7450 1.2068
H10 H 0.4997 -0.6043 1.1075
H11 H 0.2501 -0.7478 0.8286
H12 H 0.2872 -0.8813 0.9482
H13 H 0.3604 -0.6268 0.4448
H14 H 0.2053 -0.6834 0.2310
H15 H 0.0654 -0.6662 0.4410
H16 H 0.1322 -0.6023 0.7792
N2_2 N 0.4113(3) 0.1743(2) 0.0833(5)
Ag1_2 Ag 0.44268(3) -0.95469(3) 1.18340(6)
P1 P 0.9704(1) 0.2198(1) 0.9119(2)
F1 F 1.0594(5) 0.1710(7) 0.8778(9)
F2 F 1.0310(7) 0.3182(6) 0.9754(10)
F3 F 0.9620(5) 0.2324(6) 0.7091(7)
F4 F 0.8759(4) 0.2683(6) 0.9513(8)
F5 F 0.9081(6) 0.1276(4) 0.857(1)
F6 F 0.9798(3) 0.2209(4) 1.1266(6)
N3 N 0.6325(4) 0.0814(4) 0.2251(8)
C21 C 0.7114(4) 0.0951(4) 0.2702(8)
C22 C 0.8124(5) 0.1124(6) 0.328(1)
H17 H 0.8508 0.0903 0.2283
H18 H 0.8307 0.1818 0.3772
H19 H 0.8288 0.0823 0.4311
N4 N 0.2741(5) 0.0872(5) 0.418(1)
C23 C 0.1957(5) 0.0881(4) 0.3925(9)
C24 C 0.0938(5) 0.0934(5) 0.368(1)
H20 H 0.0772 0.1585 0.3894
H21 H 0.0664 0.0592 0.2439
H22 H 0.0605 0.0634 0.4581
loop_
_geom_bond_atom_site_label_1
_geom_bond_atom_site_label_2
_geom_bond_site_symmetry_1
_geom_bond_site_symmetry_2
Ag1 N1 1_555 1_555
Fe1 C6 1_555 1_555
S1 C3 1_555 1_555
S2 C13 1_555 1_555
P1 F1 1_555 1_555
F2 P1 1_555 1_555
F3 P1 1_555 1_555
F4 P1 1_555 1_555
F5 P1 1_555 1_555
F6 P1 1_555 1_555
N1 C1 1_555 1_555
N2 C11 1_555 1_555
N3 C21 1_555 1_555
N4 C23 1_555 1_555
C1 C2 1_555 1_555
C2 C3 1_555 1_555
C3 C4 1_555 1_555
C4 C5 1_555 1_555
C5 N1 1_555 1_555
C6 S1 1_555 1_555
C7 Fe1 1_555 1_555
C8 Fe1 1_555 1_555
C9 Fe1 1_555 1_555
C10 Fe1 1_555 1_555
C11 C12 1_555 1_555
C12 C13 1_555 1_555
C13 C14 1_555 1_555
C14 C15 1_555 1_555
C15 N2 1_555 1_555
C16 Fe1 1_555 1_555
C17 Fe1 1_555 1_555
C18 Fe1 1_555 1_555
C19 Fe1 1_555 1_555
C20 Fe1 1_555 1_555
C21 C22 1_555 1_555
C22 H17 1_555 1_555
C23 C24 1_555 1_555
C24 H20 1_555 1_555
H1 C1 1_555 1_555
H2 C2 1_555 1_555
H3 C4 1_555 1_555
H4 C5 1_555 1_555
H5 C7 1_555 1_555
H6 C8 1_555 1_555
H7 C9 1_555 1_555
H8 C10 1_555 1_555
H9 C11 1_555 1_555
H10 C12 1_555 1_555
H11 C14 1_555 1_555
H12 C15 1_555 1_555
H13 C17 1_555 1_555
H14 C18 1_555 1_555
H15 C19 1_555 1_555
H16 C20 1_555 1_555
H18 C22 1_555 1_555
H19 C22 1_555 1_555
H21 C24 1_555 1_555
H22 C24 1_555 1_555
N2_2 Ag1 1_555 1_555
Ag1_2 N2 1_555 1_555
S2 C16 1_555 1_555
C6 C7 1_555 1_555
C6 C10 1_555 1_555
C7 C8 1_555 1_555
C8 C9 1_555 1_555
C9 C10 1_555 1_555
C16 C17 1_555 1_555
C16 C20 1_555 1_555
C17 C18 1_555 1_555
C18 C19 1_555 1_555
C19 C20 1_555 1_555

#END
