
#######################################################################
#
#                 Cambridge Crystallographic Data Centre
#                                CCDC 
#
#######################################################################
#
# If this CIF has been generated from an entry in the Cambridge 
# Structural Database, then it will include bibliographic, chemical, 
# crystal, experimental, refinement or atomic coordinate data resulting 
# from the CCDC's data processing and validation procedures.
#
#######################################################################

data_UFOPIO
_symmetry_cell_setting           orthorhombic
_symmetry_space_group_name_H-M   'P b c n'
_symmetry_Int_Tables_number      60
_space_group_name_Hall           '-P 2n 2ab'
loop_
_symmetry_equiv_pos_site_id
_symmetry_equiv_pos_as_xyz
1 x,y,z
2 1/2+x,1/2+y,1/2-z
3 1/2-x,1/2+y,z
4 x,-y,1/2+z
5 -x,-y,-z
6 1/2-x,1/2-y,1/2+z
7 1/2+x,1/2-y,-z
8 -x,y,1/2-z
_cell_length_a                   10.401(3)
_cell_length_b                   26.428(3)
_cell_length_c                   8.065(4)
_cell_angle_alpha                90
_cell_angle_beta                 90
_cell_angle_gamma                90
_cell_volume                     2216.89
loop_
_atom_site_label
_atom_site_type_symbol
_atom_site_fract_x
_atom_site_fract_y
_atom_site_fract_z
Cu1 Cu 0.0000 0.0000 0.0000
Fe1 Fe 0.0000 0.21557(4) 0.2500
S1 S -0.0224(2) 0.11104(7) 0.0349(3)
N1 N -0.1301(5) 0.0360(2) -0.1163(5)
C1 C -0.0731(5) 0.1743(2) 0.0636(7)
C2 C -0.1727(5) 0.1879(2) 0.1739(9)
C3 C -0.1729(6) 0.2408(2) 0.174(1)
C4 C -0.0840(9) 0.2603(2) 0.076(1)
C5 C -0.0152(7) 0.2184(3) 0.0001(8)
C6 C -0.1408(6) 0.0864(2) -0.1008(7)
C7 C -0.2321(6) 0.1139(2) -0.1818(8)
C8 C -0.3167(7) 0.0886(2) -0.2866(7)
C9 C -0.3072(7) 0.0375(3) -0.2997(8)
C10 C -0.2166(6) 0.0121(2) -0.2162(8)
H1 H -0.2271 0.1664 0.2363
H2 H -0.2372 0.2613 0.2464
H3 H -0.0579 0.2946 0.0560
H4 H 0.0612 0.2204 -0.0785
H5 H -0.2349 0.1498 -0.1713
H6 H -0.3866 0.1055 -0.3437
H7 H -0.3701 0.0187 -0.3717
H8 H -0.2047 -0.0243 -0.2311
C1G C 0.0731(5) 0.1743(2) 0.4364(7)
S1G S 0.0224(2) 0.11104(7) 0.4651(3)
C6G C 0.1408(6) 0.0864(2) 0.6008(7)
N1G N 0.1301(5) 0.0360(2) 0.6163(5)
C10G C 0.2166(6) 0.0121(2) 0.7162(8)
C9G C 0.3072(7) 0.0375(3) 0.7997(8)
C8G C 0.3167(7) 0.0886(2) 0.7866(7)
C7G C 0.2321(6) 0.1139(2) 0.6818(8)
H5G H 0.2349 0.1498 0.6713
H6G H 0.3866 0.1055 0.8437
H7G H 0.3701 0.0187 0.8717
H8G H 0.2047 -0.0243 0.7311
C2G C 0.1727(5) 0.1879(2) 0.3261(9)
C3G C 0.1729(6) 0.2408(2) 0.326(1)
H1G H 0.2271 0.1664 0.2637
C4G C 0.0840(9) 0.2603(2) 0.424(1)
C5G C 0.0152(7) 0.2184(3) 0.4999(8)
H3G H 0.0579 0.2946 0.4440
H4G H -0.0612 0.2204 0.5785
H2G H 0.2372 0.2613 0.2536
N1D N 0.1301(5) -0.0360(2) 0.1163(5)
Cu1C Cu 0.0000 0.0000 0.5000
P1 P 0.5000 0.1009(1) 0.2500
F1 F 0.5212(6) 0.1400(2) 0.1155(8)
F2 F 0.3561(4) 0.1003(2) 0.2054(7)
F3 F 0.5143(5) 0.0578(2) 0.1175(6)
F1G F 0.4788(6) 0.1400(2) 0.3845(8)
F2G F 0.6439(4) 0.1003(2) 0.2946(7)
F3G F 0.4857(5) 0.0578(2) 0.3825(6)
loop_
_geom_bond_atom_site_label_1
_geom_bond_atom_site_label_2
_geom_bond_site_symmetry_1
_geom_bond_site_symmetry_2
Cu1 N1 1_555 1_555
Fe1 C1 1_555 1_555
S1 C1 1_555 1_555
P1 F1 1_555 1_555
F2 P1 1_555 1_555
F3 P1 1_555 1_555
N1 C6 1_555 1_555
C1 C2 1_555 1_555
C2 Fe1 1_555 1_555
C3 Fe1 1_555 1_555
C4 Fe1 1_555 1_555
C5 Fe1 1_555 1_555
C6 S1 1_555 1_555
C7 C6 1_555 1_555
C8 C7 1_555 1_555
C9 C8 1_555 1_555
C10 N1 1_555 1_555
H1 C2 1_555 1_555
H2 C3 1_555 1_555
H3 C4 1_555 1_555
H4 C5 1_555 1_555
H5 C7 1_555 1_555
H6 C8 1_555 1_555
H7 C9 1_555 1_555
H8 C10 1_555 1_555
C1G Fe1 1_555 1_555
S1G C1G 1_555 1_555
C6G S1G 1_555 1_555
N1G C6G 1_555 1_555
C10G N1G 1_555 1_555
C9G C10G 1_555 1_555
C8G C9G 1_555 1_555
C7G C6G 1_555 1_555
H5G C7G 1_555 1_555
H6G C8G 1_555 1_555
H7G C9G 1_555 1_555
H8G C10G 1_555 1_555
C2G Fe1 1_555 1_555
C3G Fe1 1_555 1_555
H1G C2G 1_555 1_555
C4G Fe1 1_555 1_555
C5G Fe1 1_555 1_555
H3G C4G 1_555 1_555
H4G C5G 1_555 1_555
H2G C3G 1_555 1_555
F1G P1 1_555 1_555
F2G P1 1_555 1_555
F3G P1 1_555 1_555
N1D Cu1 1_555 1_555
Cu1C N1G 1_555 1_555
C1 C5 1_555 1_555
C2 C3 1_555 1_555
C3 C4 1_555 1_555
C4 C5 1_555 1_555
C9 C10 1_555 1_555
C1G C2G 1_555 1_555
C1G C5G 1_555 1_555
C8G C7G 1_555 1_555
C2G C3G 1_555 1_555
C3G C4G 1_555 1_555
C4G C5G 1_555 1_555

#END
