
#######################################################################
#
#                 Cambridge Crystallographic Data Centre
#                                CCDC 
#
#######################################################################
#
# If this CIF has been generated from an entry in the Cambridge 
# Structural Database, then it will include bibliographic, chemical, 
# crystal, experimental, refinement or atomic coordinate data resulting 
# from the CCDC's data processing and validation procedures.
#
#######################################################################

data_UFUMEP
_symmetry_cell_setting           monoclinic
_symmetry_space_group_name_H-M   'P 21/c'
_symmetry_Int_Tables_number      14
_space_group_name_Hall           '-P 2ybc'
loop_
_symmetry_equiv_pos_site_id
_symmetry_equiv_pos_as_xyz
1 x,y,z
2 -x,1/2+y,1/2-z
3 -x,-y,-z
4 x,1/2-y,1/2+z
_cell_length_a                   11.922(2)
_cell_length_b                   14.355(3)
_cell_length_c                   13.754(3)
_cell_angle_alpha                90
_cell_angle_beta                 100.06(3)
_cell_angle_gamma                90
_cell_volume                     2317.67
loop_
_atom_site_label
_atom_site_type_symbol
_atom_site_fract_x
_atom_site_fract_y
_atom_site_fract_z
Zn1 Zn 1.05819(3) 1.06511(3) 0.93538(3)
O1 O 0.1343(3) 0.5656(2) 0.4369(3)
O2 O 0.9215(2) 1.0110(2) 0.8394(2)
O3 O 0.8395(3) 0.9136(2) 0.9330(2)
C1 C 0.7549(3) 0.9329(3) 0.7661(3)
N1 N 1.1427(3) 1.1273(2) 0.8371(3)
O4 O 0.0564(2) 0.6617(2) 0.5341(2)
O5 O 0.5211(3) 0.8688(3) 0.5150(2)
C2 C 0.2350(3) 0.7016(3) 0.4939(3)
C3 C 0.7424(3) 0.9863(3) 0.6806(3)
H1 H 0.7899 1.0372 0.6776
C4 C 1.2535(3) 1.1017(3) 0.8265(3)
C5 C 1.3426(4) 1.0668(4) 0.8948(4)
H2 H 1.3342 1.0549 0.9596
N2 N 1.1655(3) 1.1590(3) 0.6837(3)
C6 C 0.5927(3) 0.8886(3) 0.6027(3)
C7 C 0.1336(3) 0.6378(3) 0.4868(3)
C8 C 0.8459(4) 0.9542(3) 0.8530(3)
C9 C 0.6020(4) 0.8342(3) 0.6869(3)
H3 H 0.5551 0.7826 0.6885
C10 C 0.6609(4) 0.9647(4) 0.6006(3)
H4 H 0.6521 1.0021 0.5446
C11 C 1.0953(4) 1.1619(3) 0.7510(3)
C12 C 0.4264(4) 0.8109(3) 0.5130(3)
C13 C 1.2672(4) 1.1199(3) 0.7297(3)
C14 C 0.6820(4) 0.8577(3) 0.7684(3)
H5 H 0.6872 0.8226 0.8258
C15 C 0.3146(4) 0.6889(4) 0.4330(4)
H6 H 0.3030 0.6426 0.3850
C16 C 0.3480(4) 0.8272(4) 0.5731(4)
H7 H 0.3594 0.8746 0.6199
C17 C 0.2519(4) 0.7717(3) 0.5628(3)
H8 H 0.1980 0.7821 0.6030
C18 C 1.1382(5) 1.1831(4) 0.5784(3)
H9 H 1.2041 1.2124 0.5586
H10 H 1.0763 1.2279 0.5684
C19 C 0.9791(4) 1.2056(4) 0.7308(4)
H11 H 0.9408 1.1941 0.7855
H12 H 0.9358 1.1792 0.6719
H13 H 0.9866 1.2716 0.7223
C20 C 1.3693(4) 1.1022(4) 0.6966(4)
H14 H 1.3776 1.1137 0.6317
C21 C 1.4563(5) 1.0669(4) 0.7646(5)
H15 H 1.5255 1.0536 0.7451
C22 C 1.4448(4) 1.0502(4) 0.8629(5)
H16 H 1.5066 1.0276 0.9073
C23 C 0.4106(4) 0.7438(4) 0.4423(4)
H17 H 0.4637 0.7351 0.4010
C24 C 1.1044(6) 1.0991(5) 0.5140(4)
H18 H 1.0870 1.1205 0.4461
H19 H 1.1706 1.0589 0.5191
C25 C 1.0123(7) 1.0441(5) 0.5317(5)
H20 H 0.9443 1.0825 0.5215
H21 H 1.0267 1.0256 0.6006
N1B N 0.8573(3) 0.8727(2) 0.1629(3)
C4B C 0.7465(3) 0.8983(3) 0.1735(3)
C5B C 0.6574(4) 0.9332(4) 0.1052(4)
H2B H 0.6658 0.9451 0.0404
N2B N 0.8345(3) 0.8410(3) 0.3163(3)
C11B C 0.9047(4) 0.8381(3) 0.2490(3)
C13B C 0.7328(4) 0.8801(3) 0.2703(3)
C18B C 0.8618(5) 0.8169(4) 0.4216(3)
H9B H 0.7959 0.7876 0.4414
H10B H 0.9237 0.7721 0.4316
C19B C 1.0209(4) 0.7944(4) 0.2692(4)
H11B H 1.0592 0.8059 0.2145
H12B H 1.0642 0.8208 0.3281
H13B H 1.0134 0.7284 0.2777
C20B C 0.6307(4) 0.8978(4) 0.3034(4)
H14B H 0.6224 0.8863 0.3683
C21B C 0.5437(5) 0.9331(4) 0.2354(5)
H15B H 0.4745 0.9464 0.2549
C22B C 0.5552(4) 0.9498(4) 0.1371(5)
H16B H 0.4934 0.9724 0.0927
C24B C 0.8956(6) 0.9009(5) 0.4860(4)
H18B H 0.9130 0.8795 0.5539
H19B H 0.8294 0.9411 0.4809
C25B C 0.9877(7) 0.9559(5) 0.4683(5)
H20B H 1.0557 0.9175 0.4785
H21B H 0.9733 0.9744 0.3994
Zn1B Zn 0.94181(3) 0.93489(3) 0.06462(3)
O1B O 1.8657(3) 1.4344(2) 0.5631(3)
O2B O 1.0785(2) 0.9890(2) 0.1606(2)
O3B O 1.1605(3) 1.0864(2) 0.0670(2)
C1B C 1.2451(3) 1.0671(3) 0.2339(3)
O4B O 1.9436(2) 1.3383(2) 0.4659(2)
O5B O 1.4789(3) 1.1312(3) 0.4850(2)
C2B C 1.7650(3) 1.2984(3) 0.5061(3)
C3B C 1.2576(3) 1.0137(3) 0.3194(3)
H1B H 1.2101 0.9628 0.3224
C6B C 1.4073(3) 1.1114(3) 0.3973(3)
C7B C 1.8664(3) 1.3622(3) 0.5132(3)
C8B C 1.1541(4) 1.0458(3) 0.1470(3)
C9B C 1.3980(4) 1.1658(3) 0.3131(3)
H3B H 1.4449 1.2174 0.3115
C10B C 1.3391(4) 1.0353(4) 0.3994(3)
H4B H 1.3479 0.9979 0.4554
C12B C 1.5736(4) 1.1891(3) 0.4870(3)
C14B C 1.3180(4) 1.1423(3) 0.2316(3)
H5B H 1.3128 1.1774 0.1742
C15B C 1.6854(4) 1.3111(4) 0.5670(4)
H6B H 1.6970 1.3574 0.6150
C16B C 1.6520(4) 1.1728(4) 0.4269(4)
H7B H 1.6406 1.1254 0.3801
C17B C 1.7481(4) 1.2283(3) 0.4372(3)
H8B H 1.8020 1.2179 0.3970
C23B C 1.5894(4) 1.2562(4) 0.5577(4)
H17B H 1.5363 1.2649 0.5990
Zn1_2 Zn 1.05819(3) 1.06511(3) -0.06462(3)
Zn1A Zn -0.05819(3) 0.56511(3) 0.56462(3)
Zn1A_2 Zn 1.94181(3) 1.56511(3) 0.56462(3)
Zn1B_2 Zn 0.94181(3) 0.93489(3) 1.06462(3)
Zn1C Zn 0.05819(3) 0.43489(3) 0.43538(3)
Zn1C_2 Zn 2.05819(3) 1.43489(3) 0.43538(3)
O1A O 0.8657(3) 1.0656(2) 0.0631(3)
O1C O 1.1343(3) 0.9344(2) 0.9369(3)
O3_2 O 0.8395(3) 0.9136(2) -0.0670(2)
O3B_2 O 1.1605(3) 1.0864(2) 1.0670(2)
O4A O 0.9436(2) 1.1617(2) 0.9659(2)
O4C O 1.0564(2) 0.8383(2) 0.0341(2)
loop_
_geom_bond_atom_site_label_1
_geom_bond_atom_site_label_2
_geom_bond_site_symmetry_1
_geom_bond_site_symmetry_2
Zn1 O2 1_555 1_555
O1 C7 1_555 1_555
O2 C8 1_555 1_555
O3 C8 1_555 1_555
C1 C3 1_555 1_555
N1 Zn1 1_555 1_555
O4 C7 1_555 1_555
O5 C6 1_555 1_555
C2 C7 1_555 1_555
C3 H1 1_555 1_555
C4 N1 1_555 1_555
C5 C4 1_555 1_555
H2 C5 1_555 1_555
N2 C11 1_555 1_555
C6 C9 1_555 1_555
C8 C1 1_555 1_555
C9 H3 1_555 1_555
C10 C3 1_555 1_555
H4 C10 1_555 1_555
C11 N1 1_555 1_555
C12 O5 1_555 1_555
C13 C4 1_555 1_555
C14 C1 1_555 1_555
H5 C14 1_555 1_555
C15 C2 1_555 1_555
H6 C15 1_555 1_555
C16 C12 1_555 1_555
H7 C16 1_555 1_555
C17 C2 1_555 1_555
H8 C17 1_555 1_555
C18 N2 1_555 1_555
H9 C18 1_555 1_555
H10 C18 1_555 1_555
C19 C11 1_555 1_555
H11 C19 1_555 1_555
H12 C19 1_555 1_555
H13 C19 1_555 1_555
C20 C13 1_555 1_555
H14 C20 1_555 1_555
C21 C20 1_555 1_555
H15 C21 1_555 1_555
C22 C5 1_555 1_555
H16 C22 1_555 1_555
C23 C12 1_555 1_555
H17 C23 1_555 1_555
C24 C18 1_555 1_555
H18 C24 1_555 1_555
H19 C24 1_555 1_555
C25 C24 1_555 1_555
H20 C25 1_555 1_555
H21 C25 1_555 1_555
N1B C4B 1_555 1_555
C4B C5B 1_555 1_555
C5B H2B 1_555 1_555
N2B C11B 1_555 1_555
C11B N1B 1_555 1_555
C13B C4B 1_555 1_555
C18B N2B 1_555 1_555
H9B C18B 1_555 1_555
H10B C18B 1_555 1_555
C19B C11B 1_555 1_555
H11B C19B 1_555 1_555
H12B C19B 1_555 1_555
H13B C19B 1_555 1_555
C20B C13B 1_555 1_555
H14B C20B 1_555 1_555
C21B C20B 1_555 1_555
H15B C21B 1_555 1_555
C22B C5B 1_555 1_555
H16B C22B 1_555 1_555
C24B C18B 1_555 1_555
H18B C24B 1_555 1_555
H19B C24B 1_555 1_555
C25B C25 1_555 1_555
H20B C25B 1_555 1_555
H21B C25B 1_555 1_555
Zn1B N1B 1_555 1_555
O1B C7B 1_555 1_555
O2B Zn1B 1_555 1_555
O3B C8B 1_555 1_555
C1B C3B 1_555 1_555
O4B C7B 1_555 1_555
O5B C6B 1_555 1_555
C2B C7B 1_555 1_555
C3B H1B 1_555 1_555
C6B C9B 1_555 1_555
C8B O2B 1_555 1_555
C9B H3B 1_555 1_555
C10B C3B 1_555 1_555
H4B C10B 1_555 1_555
C12B O5B 1_555 1_555
C14B C1B 1_555 1_555
H5B C14B 1_555 1_555
C15B C2B 1_555 1_555
H6B C15B 1_555 1_555
C16B C12B 1_555 1_555
H7B C16B 1_555 1_555
C17B C2B 1_555 1_555
H8B C17B 1_555 1_555
C23B C12B 1_555 1_555
H17B C23B 1_555 1_555
Zn1_2 O3B 1_555 1_555
Zn1A O4 1_555 1_555
Zn1A_2 O1B 1_555 1_555
Zn1B_2 O3 1_555 1_555
Zn1C O1 1_555 1_555
Zn1C_2 O4B 1_555 1_555
O1A Zn1B 1_555 1_555
O1C Zn1 1_555 1_555
O3_2 Zn1B 1_555 1_555
O3B_2 Zn1 1_555 1_555
O4A Zn1 1_555 1_555
O4C Zn1B 1_555 1_555
N2 C13 1_555 1_555
C6 C10 1_555 1_555
C9 C14 1_555 1_555
C15 C23 1_555 1_555
C16 C17 1_555 1_555
C21 C22 1_555 1_555
N2B C13B 1_555 1_555
C21B C22B 1_555 1_555
C24B C25B 1_555 1_555
C1B C8B 1_555 1_555
C6B C10B 1_555 1_555
C9B C14B 1_555 1_555
C15B C23B 1_555 1_555
C16B C17B 1_555 1_555

#END
