
#######################################################################
#
#                 Cambridge Crystallographic Data Centre
#                                CCDC 
#
#######################################################################
#
# If this CIF has been generated from an entry in the Cambridge 
# Structural Database, then it will include bibliographic, chemical, 
# crystal, experimental, refinement or atomic coordinate data resulting 
# from the CCDC's data processing and validation procedures.
#
#######################################################################

data_UFUMIT
_symmetry_cell_setting           monoclinic
_symmetry_space_group_name_H-M   'P 21/c'
_symmetry_Int_Tables_number      14
_space_group_name_Hall           '-P 2ybc'
loop_
_symmetry_equiv_pos_site_id
_symmetry_equiv_pos_as_xyz
1 x,y,z
2 -x,1/2+y,1/2-z
3 -x,-y,-z
4 x,1/2-y,1/2+z
_cell_length_a                   12.224(2)
_cell_length_b                   13.993(3)
_cell_length_c                   14.160(3)
_cell_angle_alpha                90
_cell_angle_beta                 99.42(3)
_cell_angle_gamma                90
_cell_volume                     2389.41
loop_
_atom_site_label
_atom_site_type_symbol
_atom_site_fract_x
_atom_site_fract_y
_atom_site_fract_z
Cd1 Cd 0.440904(13) 0.570303(12) 0.063418(12)
N1 N 0.34694(18) 0.63275(17) 0.16978(16)
N2 N 0.32352(19) 0.65606(16) 0.32017(15)
C1 C 0.5040(2) 0.7109(2) 0.2754(2)
H1 H 0.5364 0.7119 0.2181
H2 H 0.5507 0.6751 0.3240
H3 H 0.4966 0.7751 0.2973
C2 C 0.3929(2) 0.66526(19) 0.25501(19)
C3 C 0.2409(2) 0.6027(2) 0.1797(2)
C4 C 0.1553(3) 0.5669(2) 0.1115(3)
H4 H 0.1645 0.5570 0.0484
C5 C 0.0565(3) 0.5470(3) 0.1423(3)
H5 H -0.0025 0.5239 0.0985
C6 C 0.0425(3) 0.5603(2) 0.2364(3)
H6 H -0.0255 0.5453 0.2541
C7 C 0.1258(3) 0.5949(2) 0.3043(2)
H7 H 0.1164 0.6036 0.3676
C8 C 0.2255(2) 0.61628(19) 0.27350(19)
C9 C 0.3475(3) 0.6779(2) 0.4227(2)
H8 H 0.2823 0.7063 0.4421
H9 H 0.4069 0.7245 0.4339
C10 C 0.3808(3) 0.5904(3) 0.4836(2)
H10 H 0.3877 0.6084 0.5505
H11 H 0.3217 0.5436 0.4708
C11 C 0.4861(3) 0.5446(3) 0.4679(3)
H12 H 0.5461 0.5905 0.4817
H13 H 0.4800 0.5260 0.4013
C12 C 0.6635(2) 0.4555(2) 0.1505(2)
C13 C 0.7510(2) 0.43439(17) 0.2356(2)
C14 C 0.8221(2) 0.3572(2) 0.2342(2)
H14 H 0.8191 0.3216 0.1783
C15 C 0.8971(2) 0.3322(2) 0.3142(2)
H15 H 0.9421 0.2787 0.3134
C16 C 0.9042(2) 0.3877(2) 0.39521(19)
C17 C 0.8382(2) 0.4675(2) 0.3966(2)
H16 H 0.8462 0.5063 0.4506
C18 C 0.7605(2) 0.4896(2) 0.31800(19)
H17 H 0.7140 0.5418 0.3201
C19 C 1.0671(2) 0.3135(2) 0.48323(19)
C20 C 1.1415(2) 0.3335(2) 0.4231(2)
H18 H 1.1259 0.3803 0.3761
C21 C 1.2402(2) 0.2829(2) 0.4334(2)
H19 H 1.2915 0.2960 0.3934
C22 C 1.2630(2) 0.2133(2) 0.5024(2)
C23 C 1.1869(3) 0.1945(2) 0.5626(2)
H20 H 1.2017 0.1475 0.6093
C24 C 1.0890(3) 0.2458(3) 0.5531(2)
H21 H 1.0383 0.2341 0.5941
C25 C 1.3674(2) 0.1545(2) 0.5097(2)
O1 O 1.44043(17) 0.18385(15) 0.46366(17)
O2 O 0.59018(16) 0.51409(15) 0.16238(15)
O3 O 1.3741(2) 0.08094(16) 0.56046(19)
O4 O 0.67148(18) 0.41209(15) 0.07408(15)
O5 O 0.97027(17) 0.3660(2) 0.48100(14)
N1B N 0.65306(18) 0.36725(17) 0.83022(16)
N2B N 0.67648(19) 0.34394(16) 0.67983(15)
C1B C 0.4960(2) 0.2891(2) 0.7246(2)
H1B H 0.4636 0.2881 0.7819
H2B H 0.4493 0.3249 0.6760
H3B H 0.5034 0.2249 0.7027
C2B C 0.6071(2) 0.33474(19) 0.74499(19)
C3B C 0.7591(2) 0.3973(2) 0.8203(2)
C4B C 0.8447(3) 0.4331(2) 0.8885(3)
H4B H 0.8355 0.4430 0.9516
C5B C 0.9435(3) 0.4530(3) 0.8577(3)
H5B H 1.0025 0.4761 0.9015
C6B C 0.9575(3) 0.4397(2) 0.7636(3)
H6B H 1.0255 0.4547 0.7459
C7B C 0.8742(3) 0.4051(2) 0.6957(2)
H7B H 0.8836 0.3964 0.6324
C8B C 0.7745(2) 0.38372(19) 0.72650(19)
C9B C 0.6525(3) 0.3221(2) 0.5773(2)
H8B H 0.7177 0.2937 0.5579
H9B H 0.5931 0.2755 0.5661
C10B C 0.6192(3) 0.4096(3) 0.5164(2)
H10B H 0.6123 0.3916 0.4495
H11B H 0.6783 0.4564 0.5292
C11B C 0.5139(3) 0.4554(3) 0.5321(3)
H12B H 0.4539 0.4095 0.5183
H13B H 0.5200 0.4740 0.5987
Cd1B Cd 0.559096(13) 0.429697(12) -0.063418(12)
C12B C 0.3365(2) 0.5445(2) -0.1505(2)
C13B C 0.2490(2) 0.56561(17) -0.2356(2)
C14B C 0.1779(2) 0.6428(2) -0.2342(2)
H14B H 0.1809 0.6784 -0.1783
C15B C 0.1029(2) 0.6678(2) -0.3142(2)
H15B H 0.0579 0.7213 -0.3134
C16B C 0.0958(2) 0.6123(2) -0.39521(19)
C17B C 0.1618(2) 0.5325(2) -0.3966(2)
H16B H 0.1538 0.4937 -0.4506
C18B C 0.2395(2) 0.5104(2) -0.31800(19)
H17B H 0.2860 0.4582 -0.3201
C19B C -0.0671(2) 0.6865(2) -0.48323(19)
C20B C -0.1415(2) 0.6665(2) -0.4231(2)
H18B H -0.1259 0.6197 -0.3761
C21B C -0.2402(2) 0.7171(2) -0.4334(2)
H19B H -0.2915 0.7040 -0.3934
C22B C -0.2630(2) 0.7867(2) -0.5024(2)
C23B C -0.1869(3) 0.8055(2) -0.5626(2)
H20B H -0.2017 0.8525 -0.6093
C24B C -0.0890(3) 0.7542(3) -0.5531(2)
H21B H -0.0383 0.7659 -0.5941
C25B C -0.3674(2) 0.8455(2) -0.5097(2)
O1B O -0.44043(17) 0.81615(15) -0.46366(17)
O2B O 0.40982(16) 0.48591(15) -0.16238(15)
O3B O -0.3741(2) 0.91906(16) -0.56046(19)
O4B O 0.32852(18) 0.58791(15) -0.07408(15)
O5B O 0.02973(17) 0.6340(2) -0.48100(14)
Cd1A Cd -0.440904(13) 1.070303(12) -0.563418(12)
Cd1A_2 Cd 1.559096(13) 0.070303(12) 0.436582(12)
Cd1B_2 Cd 0.559096(13) 0.429697(12) 0.936582(12)
Cd1C Cd -0.559096(13) 0.929697(12) -0.436582(12)
Cd1C_2 Cd 1.440904(13) -0.070303(12) 0.563418(12)
N1B_2 N 0.65306(18) 0.36725(17) -0.16978(16)
O1A O 0.55957(17) 0.68385(15) 0.03634(17)
O1C O 0.44043(17) 0.31615(15) -0.03634(17)
O3A O 0.6259(2) 0.58094(16) -0.06046(19)
O3C O 0.3741(2) 0.41906(16) 0.06046(19)
loop_
_geom_bond_atom_site_label_1
_geom_bond_atom_site_label_2
_geom_bond_site_symmetry_1
_geom_bond_site_symmetry_2
Cd1 N1 1_555 1_555
N1 C2 1_555 1_555
N2 C2 1_555 1_555
C1 H1 1_555 1_555
H2 C1 1_555 1_555
H3 C1 1_555 1_555
C2 C1 1_555 1_555
C3 N1 1_555 1_555
C4 C3 1_555 1_555
H4 C4 1_555 1_555
C5 C4 1_555 1_555
H5 C5 1_555 1_555
C6 C5 1_555 1_555
H6 C6 1_555 1_555
C7 C6 1_555 1_555
H7 C7 1_555 1_555
C8 N2 1_555 1_555
C9 N2 1_555 1_555
H8 C9 1_555 1_555
H9 C9 1_555 1_555
C10 C9 1_555 1_555
H10 C10 1_555 1_555
H11 C10 1_555 1_555
C11 C10 1_555 1_555
H12 C11 1_555 1_555
H13 C11 1_555 1_555
C12 C13 1_555 1_555
C13 C14 1_555 1_555
C14 H14 1_555 1_555
C15 C14 1_555 1_555
H15 C15 1_555 1_555
C16 C15 1_555 1_555
C17 C16 1_555 1_555
H16 C17 1_555 1_555
C18 C13 1_555 1_555
H17 C18 1_555 1_555
C19 C20 1_555 1_555
C20 H18 1_555 1_555
C21 C20 1_555 1_555
H19 C21 1_555 1_555
C22 C21 1_555 1_555
C23 C22 1_555 1_555
H20 C23 1_555 1_555
C24 C19 1_555 1_555
H21 C24 1_555 1_555
C25 C22 1_555 1_555
O1 C25 1_555 1_555
O2 Cd1 1_555 1_555
O3 C25 1_555 1_555
O4 C12 1_555 1_555
O5 C16 1_555 1_555
N1B C2B 1_555 1_555
N2B C2B 1_555 1_555
C1B H1B 1_555 1_555
H2B C1B 1_555 1_555
H3B C1B 1_555 1_555
C2B C1B 1_555 1_555
C3B N1B 1_555 1_555
C4B C3B 1_555 1_555
H4B C4B 1_555 1_555
C5B C4B 1_555 1_555
H5B C5B 1_555 1_555
C6B C5B 1_555 1_555
H6B C6B 1_555 1_555
C7B C6B 1_555 1_555
H7B C7B 1_555 1_555
C8B N2B 1_555 1_555
C9B N2B 1_555 1_555
H8B C9B 1_555 1_555
H9B C9B 1_555 1_555
C10B C9B 1_555 1_555
H10B C10B 1_555 1_555
H11B C10B 1_555 1_555
C11B C11 1_555 1_555
H12B C11B 1_555 1_555
H13B C11B 1_555 1_555
Cd1B O4 1_555 1_555
C12B C13B 1_555 1_555
C13B C14B 1_555 1_555
C14B H14B 1_555 1_555
C15B C14B 1_555 1_555
H15B C15B 1_555 1_555
C16B C15B 1_555 1_555
C17B C16B 1_555 1_555
H16B C17B 1_555 1_555
C18B C13B 1_555 1_555
H17B C18B 1_555 1_555
C19B C20B 1_555 1_555
C20B H18B 1_555 1_555
C21B C20B 1_555 1_555
H19B C21B 1_555 1_555
C22B C21B 1_555 1_555
C23B C22B 1_555 1_555
H20B C23B 1_555 1_555
C24B C19B 1_555 1_555
H21B C24B 1_555 1_555
C25B C22B 1_555 1_555
O1B C25B 1_555 1_555
O2B Cd1B 1_555 1_555
O3B C25B 1_555 1_555
O4B Cd1 1_555 1_555
O5B C16B 1_555 1_555
Cd1A O3B 1_555 1_555
Cd1A_2 O1 1_555 1_555
Cd1B_2 N1B 1_555 1_555
Cd1C O1B 1_555 1_555
Cd1C_2 O3 1_555 1_555
N1B_2 Cd1B 1_555 1_555
O1A Cd1 1_555 1_555
O1C Cd1B 1_555 1_555
O3A Cd1B 1_555 1_555
O3C Cd1 1_555 1_555
C3 C8 1_555 1_555
C7 C8 1_555 1_555
C12 O2 1_555 1_555
C17 C18 1_555 1_555
C19 O5 1_555 1_555
C23 C24 1_555 1_555
C3B C8B 1_555 1_555
C7B C8B 1_555 1_555
C10B C11B 1_555 1_555
C12B O2B 1_555 1_555
C12B O4B 1_555 1_555
C17B C18B 1_555 1_555
C19B O5B 1_555 1_555
C23B C24B 1_555 1_555

#END
