
#######################################################################
#
#                 Cambridge Crystallographic Data Centre
#                                CCDC 
#
#######################################################################
#
# If this CIF has been generated from an entry in the Cambridge 
# Structural Database, then it will include bibliographic, chemical, 
# crystal, experimental, refinement or atomic coordinate data resulting 
# from the CCDC's data processing and validation procedures.
#
#######################################################################

data_UFUMEP01
_symmetry_cell_setting           monoclinic
_symmetry_space_group_name_H-M   'P 21/c'
_symmetry_Int_Tables_number      14
_space_group_name_Hall           '-P 2ybc'
loop_
_symmetry_equiv_pos_site_id
_symmetry_equiv_pos_as_xyz
1 x,y,z
2 -x,1/2+y,1/2-z
3 -x,-y,-z
4 x,1/2-y,1/2+z
_cell_length_a                   11.936(2)
_cell_length_b                   14.277(3)
_cell_length_c                   13.726(3)
_cell_angle_alpha                90
_cell_angle_beta                 99.86(3)
_cell_angle_gamma                90
_cell_volume                     2304.5
loop_
_atom_site_label
_atom_site_type_symbol
_atom_site_fract_x
_atom_site_fract_y
_atom_site_fract_z
Zn1 Zn 0.55807(3) 0.06528(3) 0.43522(3)
O1 O 0.5791(2) -0.0120(2) 0.6609(2)
O2 O 0.6602(2) 0.0864(2) 0.56726(19)
O3 O 0.9783(2) 0.1317(2) 0.9849(2)
O4 O 1.3671(2) 0.43401(19) 1.0635(2)
O5 O 1.4444(2) 0.33730(19) 0.9657(2)
N1 N 0.6436(2) 0.1279(2) 0.3372(2)
N2 N 0.6662(3) 0.1588(2) 0.1835(2)
C1 C 0.4810(4) 0.2071(3) 0.2310(3)
H1 H 0.4436 0.1973 0.2868
H2 H 0.4367 0.1794 0.1732
H3 H 0.4888 0.2731 0.2205
C2 C 0.5960(3) 0.1628(3) 0.2506(3)
C3 C 0.7533(3) 0.1010(3) 0.3265(3)
C4 C 0.8427(3) 0.0659(3) 0.3950(3)
H4 H 0.8345 0.0543 0.4601
C5 C 0.9436(4) 0.0492(4) 0.3628(4)
H5 H 1.0050 0.0261 0.4073
C6 C 0.9568(4) 0.0658(4) 0.2654(4)
H6 H 1.0262 0.0527 0.2464
C7 C 0.8697(4) 0.1010(3) 0.1969(3)
H7 H 0.8783 0.1122 0.1318
C8 C 0.7678(3) 0.1191(3) 0.2300(3)
C9 C 0.6395(4) 0.1831(3) 0.0781(3)
H8 H 0.7056 0.2120 0.0583
H9 H 0.5782 0.2286 0.0682
C10 C 0.6054(5) 0.0998(4) 0.0143(3)
H10 H 0.5873 0.1218 -0.0534
H11 H 0.6717 0.0598 0.0183
C11 C 0.5136(5) 0.0428(4) 0.0321(4)
H12 H 0.4459 0.0816 0.0247
H13 H 0.5296 0.0224 0.1005
C12 C 0.6543(3) 0.0451(2) 0.6470(3)
C13 C 0.7454(3) 0.0670(3) 0.7339(3)
C14 C 0.7573(3) 0.0126(3) 0.8193(3)
H14 H 0.7101 -0.0388 0.8222
C15 C 0.8388(3) 0.0351(3) 0.8997(3)
H15 H 0.8477 -0.0021 0.9561
C16 C 0.9067(3) 0.1116(3) 0.8969(3)
C17 C 0.8978(3) 0.1664(3) 0.8131(3)
H16 H 0.9443 0.2184 0.8115
C18 C 0.8182(3) 0.1422(3) 0.7317(3)
H17 H 0.8133 0.1773 0.6741
C19 C 1.0729(3) 0.1885(3) 0.9868(3)
C20 C 1.0903(4) 0.2559(3) 1.0586(3)
H18 H 1.0379 0.2644 1.1008
C21 C 1.1867(3) 0.3113(3) 1.0679(3)
H19 H 1.1984 0.3579 1.1159
C22 C 1.2660(3) 0.2979(3) 1.0063(3)
C23 C 1.2478(3) 0.2278(3) 0.9361(3)
H20 H 1.3012 0.2176 0.8953
C24 C 1.1510(3) 0.1723(3) 0.9256(3)
H21 H 1.1390 0.1252 0.8782
C25 C 1.3674(3) 0.3613(3) 1.0131(3)
N1B N 0.3564(2) -0.1279(2) -0.3372(2)
N2B N 0.3338(3) -0.1588(2) -0.1835(2)
C1B C 0.5190(4) -0.2071(3) -0.2310(3)
H1B H 0.5564 -0.1973 -0.2868
H2B H 0.5633 -0.1794 -0.1732
H3B H 0.5112 -0.2731 -0.2205
C2B C 0.4040(3) -0.1628(3) -0.2506(3)
C3B C 0.2467(3) -0.1010(3) -0.3265(3)
C4B C 0.1573(3) -0.0659(3) -0.3950(3)
H4B H 0.1655 -0.0543 -0.4601
C5B C 0.0564(4) -0.0492(4) -0.3628(4)
H5B H -0.0050 -0.0261 -0.4073
C6B C 0.0432(4) -0.0658(4) -0.2654(4)
H6B H -0.0262 -0.0527 -0.2464
C7B C 0.1303(4) -0.1010(3) -0.1969(3)
H7B H 0.1217 -0.1122 -0.1318
C8B C 0.2322(3) -0.1191(3) -0.2300(3)
C9B C 0.3605(4) -0.1831(3) -0.0781(3)
H8B H 0.2944 -0.2120 -0.0583
H9B H 0.4218 -0.2286 -0.0682
C10B C 0.3946(5) -0.0998(4) -0.0143(3)
H10B H 0.4127 -0.1218 0.0534
H11B H 0.3283 -0.0598 -0.0183
C11B C 0.4864(5) -0.0428(4) -0.0321(4)
H12B H 0.5541 -0.0816 -0.0247
H13B H 0.4704 -0.0224 -0.1005
Zn1B Zn 0.44193(3) -0.06528(3) -0.43522(3)
O1B O 0.4209(2) 0.0120(2) -0.6609(2)
O2B O 0.3398(2) -0.0864(2) -0.56726(19)
O3B O 0.0217(2) -0.1317(2) -0.9849(2)
O4B O -0.3671(2) -0.43401(19) -1.0635(2)
O5B O -0.4444(2) -0.33730(19) -0.9657(2)
C12B C 0.3457(3) -0.0451(2) -0.6470(3)
C13B C 0.2546(3) -0.0670(3) -0.7339(3)
C14B C 0.2427(3) -0.0126(3) -0.8193(3)
H14B H 0.2899 0.0388 -0.8222
C15B C 0.1612(3) -0.0351(3) -0.8997(3)
H15B H 0.1523 0.0021 -0.9561
C16B C 0.0933(3) -0.1116(3) -0.8969(3)
C17B C 0.1022(3) -0.1664(3) -0.8131(3)
H16B H 0.0557 -0.2184 -0.8115
C18B C 0.1818(3) -0.1422(3) -0.7317(3)
H17B H 0.1867 -0.1773 -0.6741
C19B C -0.0729(3) -0.1885(3) -0.9868(3)
C20B C -0.0903(4) -0.2559(3) -1.0586(3)
H18B H -0.0379 -0.2644 -1.1008
C21B C -0.1867(3) -0.3113(3) -1.0679(3)
H19B H -0.1984 -0.3579 -1.1159
C22B C -0.2660(3) -0.2979(3) -1.0063(3)
C23B C -0.2478(3) -0.2278(3) -0.9361(3)
H20B H -0.3012 -0.2176 -0.8953
C24B C -0.1510(3) -0.1723(3) -0.9256(3)
H21B H -0.1390 -0.1252 -0.8782
C25B C -0.3674(3) -0.3613(3) -1.0131(3)
Zn1_2 Zn 0.55807(3) 0.06528(3) -0.56478(3)
Zn1A Zn -0.55807(3) -0.43472(3) -0.93522(3)
Zn1A_2 Zn 1.44193(3) 0.56528(3) 1.06478(3)
Zn1B_2 Zn 0.44193(3) -0.06528(3) 0.56478(3)
Zn1C Zn -0.44193(3) -0.56528(3) -1.06478(3)
Zn1C_2 Zn 1.55807(3) 0.43472(3) 0.93522(3)
O1_2 O 0.5791(2) -0.0120(2) -0.3391(2)
O1B_2 O 0.4209(2) 0.0120(2) 0.3391(2)
O4A O 0.6329(2) -0.06599(19) 0.4365(2)
O4C O 0.3671(2) 0.06599(19) -0.4365(2)
O5A O 0.5556(2) -0.16270(19) -0.4657(2)
O5C O 0.4444(2) 0.16270(19) 0.4657(2)
loop_
_geom_bond_atom_site_label_1
_geom_bond_atom_site_label_2
_geom_bond_site_symmetry_1
_geom_bond_site_symmetry_2
Zn1 O2 1_555 1_555
O1 C12 1_555 1_555
O2 C12 1_555 1_555
O3 C16 1_555 1_555
O4 C25 1_555 1_555
O5 C25 1_555 1_555
N1 Zn1 1_555 1_555
N2 C2 1_555 1_555
C1 H1 1_555 1_555
H2 C1 1_555 1_555
H3 C1 1_555 1_555
C2 N1 1_555 1_555
C3 N1 1_555 1_555
C4 C3 1_555 1_555
H4 C4 1_555 1_555
C5 C4 1_555 1_555
H5 C5 1_555 1_555
C6 C5 1_555 1_555
H6 C6 1_555 1_555
C7 C6 1_555 1_555
H7 C7 1_555 1_555
C8 N2 1_555 1_555
C9 N2 1_555 1_555
H8 C9 1_555 1_555
H9 C9 1_555 1_555
C10 C9 1_555 1_555
H10 C10 1_555 1_555
H11 C10 1_555 1_555
C11 C10 1_555 1_555
H12 C11 1_555 1_555
H13 C11 1_555 1_555
C12 C13 1_555 1_555
C13 C14 1_555 1_555
C14 H14 1_555 1_555
C15 C14 1_555 1_555
H15 C15 1_555 1_555
C16 C15 1_555 1_555
C17 C16 1_555 1_555
H16 C17 1_555 1_555
C18 C13 1_555 1_555
H17 C18 1_555 1_555
C19 O3 1_555 1_555
C20 C19 1_555 1_555
H18 C20 1_555 1_555
C21 C20 1_555 1_555
H19 C21 1_555 1_555
C22 C21 1_555 1_555
C23 C22 1_555 1_555
H20 C23 1_555 1_555
C24 C19 1_555 1_555
H21 C24 1_555 1_555
C25 C22 1_555 1_555
N1B C2B 1_555 1_555
N2B C2B 1_555 1_555
C1B H1B 1_555 1_555
H2B C1B 1_555 1_555
H3B C1B 1_555 1_555
C2B C1B 1_555 1_555
C3B N1B 1_555 1_555
C4B C3B 1_555 1_555
H4B C4B 1_555 1_555
C5B C4B 1_555 1_555
H5B C5B 1_555 1_555
C6B C5B 1_555 1_555
H6B C6B 1_555 1_555
C7B C6B 1_555 1_555
H7B C7B 1_555 1_555
C8B N2B 1_555 1_555
C9B N2B 1_555 1_555
H8B C9B 1_555 1_555
H9B C9B 1_555 1_555
C10B C9B 1_555 1_555
H10B C10B 1_555 1_555
H11B C10B 1_555 1_555
C11B C11 1_555 1_555
H12B C11B 1_555 1_555
H13B C11B 1_555 1_555
Zn1B N1B 1_555 1_555
O1B C12B 1_555 1_555
O2B Zn1B 1_555 1_555
O3B C16B 1_555 1_555
O4B C25B 1_555 1_555
O5B C25B 1_555 1_555
C12B O2B 1_555 1_555
C13B C12B 1_555 1_555
C14B C13B 1_555 1_555
H14B C14B 1_555 1_555
C15B C14B 1_555 1_555
H15B C15B 1_555 1_555
C16B C15B 1_555 1_555
C17B C16B 1_555 1_555
H16B C17B 1_555 1_555
C18B C13B 1_555 1_555
H17B C18B 1_555 1_555
C19B O3B 1_555 1_555
C20B C19B 1_555 1_555
H18B C20B 1_555 1_555
C21B C20B 1_555 1_555
H19B C21B 1_555 1_555
C22B C21B 1_555 1_555
C23B C22B 1_555 1_555
H20B C23B 1_555 1_555
C24B C19B 1_555 1_555
H21B C24B 1_555 1_555
C25B C22B 1_555 1_555
Zn1_2 O1B 1_555 1_555
Zn1A O5B 1_555 1_555
Zn1A_2 O4 1_555 1_555
Zn1B_2 O1 1_555 1_555
Zn1C O4B 1_555 1_555
Zn1C_2 O5 1_555 1_555
O1_2 Zn1B 1_555 1_555
O1B_2 Zn1 1_555 1_555
O4A Zn1 1_555 1_555
O4C Zn1B 1_555 1_555
O5A Zn1B 1_555 1_555
O5C Zn1 1_555 1_555
C1 C2 1_555 1_555
C3 C8 1_555 1_555
C7 C8 1_555 1_555
C17 C18 1_555 1_555
C23 C24 1_555 1_555
C3B C8B 1_555 1_555
C7B C8B 1_555 1_555
C10B C11B 1_555 1_555
C17B C18B 1_555 1_555
C23B C24B 1_555 1_555

#END
