
#######################################################################
#
#                 Cambridge Crystallographic Data Centre
#                                CCDC 
#
#######################################################################
#
# If this CIF has been generated from an entry in the Cambridge 
# Structural Database, then it will include bibliographic, chemical, 
# crystal, experimental, refinement or atomic coordinate data resulting 
# from the CCDC's data processing and validation procedures.
#
#######################################################################

data_UFUMAL01
_symmetry_cell_setting           monoclinic
_symmetry_space_group_name_H-M   'P 2/c'
_symmetry_Int_Tables_number      13
_space_group_name_Hall           '-P 2yc'
loop_
_symmetry_equiv_pos_site_id
_symmetry_equiv_pos_as_xyz
1 x,y,z
2 -x,y,1/2-z
3 -x,-y,-z
4 x,-y,1/2+z
_cell_length_a                   9.0575(18)
_cell_length_b                   10.338(2)
_cell_length_c                   17.427(5)
_cell_angle_alpha                90
_cell_angle_beta                 115.35(2)
_cell_angle_gamma                90
_cell_volume                     1474.67
loop_
_atom_site_label
_atom_site_type_symbol
_atom_site_fract_x
_atom_site_fract_y
_atom_site_fract_z
Cd1 Cd 0.5000 0.40895(4) 0.2500
O1 O 0.2510(4) 0.3317(3) 0.2227(2)
O2 O 0.3551(4) 0.2204(3) 0.1515(2)
N1 N 0.4870(4) 0.5575(3) 0.1506(2)
N2 N 0.5845(4) 0.6903(3) 0.0826(2)
C1 C 0.2509(5) 0.2364(4) 0.1783(3)
C2 C 0.1161(6) 0.1374(5) 0.1614(3)
H1 H 0.1551 0.0739 0.2067
H2 H 0.0235 0.1811 0.1638
C3 C 0.0573(6) 0.0667(4) 0.0776(3)
C4 C 0.1027(6) -0.0598(5) 0.0731(3)
H3 H 0.1727 -0.1018 0.1225
C5 C -0.0463(6) 0.1251(5) 0.0033(3)
H4 H -0.0791 0.2101 0.0044
C6 C 0.7574(6) 0.6550(5) 0.2386(3)
H5 H 0.8151 0.7299 0.2335
H6 H 0.8270 0.5805 0.2504
H7 H 0.7259 0.6677 0.2841
C7 C 0.6089(5) 0.6346(4) 0.1578(3)
C8 C 0.3748(5) 0.5643(4) 0.0658(3)
C9 C 0.2253(5) 0.5022(4) 0.0231(3)
H8 H 0.1838 0.4472 0.0513
C10 C 0.1412(6) 0.5256(5) -0.0627(3)
H9 H 0.0401 0.4866 -0.0928
C11 C 0.2046(6) 0.6069(5) -0.1054(3)
H10 H 0.1455 0.6189 -0.1635
C12 C 0.3511(6) 0.6692(4) -0.0642(3)
H11 H 0.3922 0.7237 -0.0929
C13 C 0.4355(5) 0.6471(4) 0.0225(3)
C14 C 0.6945(6) 0.7823(4) 0.0688(3)
H12 H 0.6709 0.7827 0.0090
H13 H 0.8064 0.7536 0.1003
C15 C 0.6780(7) 0.9178(4) 0.0959(4)
H14 H 0.7625 0.9710 0.0917
H15 H 0.6974 0.9159 0.1551
C16 C 0.5143(7) 0.9809(5) 0.0450(3)
H16 H 0.5058 1.0577 0.0748
H17 H 0.4286 0.9218 0.0416
O1B O -0.2510(4) -0.3317(3) -0.2227(2)
O2B O -0.3551(4) -0.2204(3) -0.1515(2)
C1B C -0.2509(5) -0.2364(4) -0.1783(3)
C2B C -0.1161(6) -0.1374(5) -0.1614(3)
H1B H -0.1551 -0.0739 -0.2067
H2B H -0.0235 -0.1811 -0.1638
C3B C -0.0573(6) -0.0667(4) -0.0776(3)
C4B C -0.1027(6) 0.0598(5) -0.0731(3)
H3B H -0.1727 0.1018 -0.1225
C5B C 0.0463(6) -0.1251(5) -0.0033(3)
H4B H 0.0791 -0.2101 -0.0044
N1B N 0.5130(4) 1.4425(3) -0.1506(2)
N2B N 0.4155(4) 1.3097(3) -0.0826(2)
C6B C 0.2426(6) 1.3450(5) -0.2386(3)
H5B H 0.1849 1.2701 -0.2335
H6B H 0.1730 1.4195 -0.2504
H7B H 0.2741 1.3323 -0.2841
C7B C 0.3911(5) 1.3654(4) -0.1578(3)
C8B C 0.6252(5) 1.4357(4) -0.0658(3)
C9B C 0.7747(5) 1.4978(4) -0.0231(3)
H8B H 0.8162 1.5528 -0.0513
C10B C 0.8588(6) 1.4744(5) 0.0627(3)
H9B H 0.9599 1.5134 0.0928
C11B C 0.7954(6) 1.3931(5) 0.1054(3)
H10B H 0.8545 1.3811 0.1635
C12B C 0.6489(6) 1.3308(4) 0.0642(3)
H11B H 0.6078 1.2763 0.0929
C13B C 0.5645(5) 1.3529(4) -0.0225(3)
C14B C 0.3055(6) 1.2177(4) -0.0688(3)
H12B H 0.3291 1.2173 -0.0090
H13B H 0.1936 1.2464 -0.1003
C15B C 0.3220(7) 1.0822(4) -0.0959(4)
H14B H 0.2375 1.0290 -0.0917
H15B H 0.3026 1.0841 -0.1551
C16B C 0.4857(7) 1.0191(5) -0.0450(3)
H16B H 0.4942 0.9423 -0.0748
H17B H 0.5714 1.0782 -0.0416
Cd1B Cd -0.5000 -0.40895(4) -0.2500
Cd1B_2 Cd 0.5000 1.59105(4) -0.2500
O1A O 0.7490(4) 0.3317(3) 0.2773(2)
O2A O 0.6449(4) 0.2204(3) 0.3485(2)
N1A N 0.5130(4) 0.5575(3) 0.3494(2)
O3 O 0.5000 0.9640(12) 0.2500
H18 H 0.5077 0.9967 0.2065
H18A H 0.4923 0.9967 0.2935
loop_
_geom_bond_atom_site_label_1
_geom_bond_atom_site_label_2
_geom_bond_site_symmetry_1
_geom_bond_site_symmetry_2
Cd1 O1 1_555 1_555
O1 C1 1_555 1_555
O2 Cd1 1_555 1_555
N1 Cd1 1_555 1_555
N2 C7 1_555 1_555
C1 O2 1_555 1_555
C2 C1 1_555 1_555
H1 C2 1_555 1_555
H2 C2 1_555 1_555
C3 C2 1_555 1_555
C4 C3 1_555 1_555
H3 C4 1_555 1_555
C5 C3 1_555 1_555
H4 C5 1_555 1_555
C6 H5 1_555 1_555
H6 C6 1_555 1_555
H7 C6 1_555 1_555
C7 N1 1_555 1_555
C8 N1 1_555 1_555
C9 C8 1_555 1_555
H8 C9 1_555 1_555
C10 C9 1_555 1_555
H9 C10 1_555 1_555
C11 C10 1_555 1_555
H10 C11 1_555 1_555
C12 C11 1_555 1_555
H11 C12 1_555 1_555
C13 N2 1_555 1_555
C14 N2 1_555 1_555
H12 C14 1_555 1_555
H13 C14 1_555 1_555
C15 C14 1_555 1_555
H14 C15 1_555 1_555
H15 C15 1_555 1_555
C16 C15 1_555 1_555
H16 C16 1_555 1_555
H17 C16 1_555 1_555
O3 H18 1_555 1_555
O1B C1B 1_555 1_555
O2B C1B 1_555 1_555
C1B C2B 1_555 1_555
C2B H1B 1_555 1_555
H2B C2B 1_555 1_555
C3B C2B 1_555 1_555
C4B C5 1_555 1_555
H3B C4B 1_555 1_555
C5B C4 1_555 1_555
H4B C5B 1_555 1_555
N1B C7B 1_555 1_555
N2B C7B 1_555 1_555
C6B H5B 1_555 1_555
H6B C6B 1_555 1_555
H7B C6B 1_555 1_555
C7B C6B 1_555 1_555
C8B N1B 1_555 1_555
C9B C8B 1_555 1_555
H8B C9B 1_555 1_555
C10B C9B 1_555 1_555
H9B C10B 1_555 1_555
C11B C10B 1_555 1_555
H10B C11B 1_555 1_555
C12B C11B 1_555 1_555
H11B C12B 1_555 1_555
C13B N2B 1_555 1_555
C14B N2B 1_555 1_555
H12B C14B 1_555 1_555
H13B C14B 1_555 1_555
C15B C14B 1_555 1_555
H14B C15B 1_555 1_555
H15B C15B 1_555 1_555
C16B C16 1_555 1_555
H16B C16B 1_555 1_555
H17B C16B 1_555 1_555
Cd1B O1B 1_555 1_555
Cd1B_2 N1B 1_555 1_555
O1A Cd1 1_555 1_555
O2A Cd1 1_555 1_555
N1A Cd1 1_555 1_555
H18A O3 1_555 1_555
C6 C7 1_555 1_555
C8 C13 1_555 1_555
C12 C13 1_555 1_555
O2B Cd1B 1_555 1_555
C3B C4B 1_555 1_555
C3B C5B 1_555 1_555
C8B C13B 1_555 1_555
C12B C13B 1_555 1_555
C15B C16B 1_555 1_555

#END
