
#######################################################################
#
#                 Cambridge Crystallographic Data Centre
#                                CCDC 
#
#######################################################################
#
# If this CIF has been generated from an entry in the Cambridge 
# Structural Database, then it will include bibliographic, chemical, 
# crystal, experimental, refinement or atomic coordinate data resulting 
# from the CCDC's data processing and validation procedures.
#
#######################################################################

data_UFUMIT01
_symmetry_cell_setting           monoclinic
_symmetry_space_group_name_H-M   'P 21/c'
_symmetry_Int_Tables_number      14
_space_group_name_Hall           '-P 2ybc'
loop_
_symmetry_equiv_pos_site_id
_symmetry_equiv_pos_as_xyz
1 x,y,z
2 -x,1/2+y,1/2-z
3 -x,-y,-z
4 x,1/2-y,1/2+z
_cell_length_a                   12.241(2)
_cell_length_b                   14.012(3)
_cell_length_c                   14.167(3)
_cell_angle_alpha                90
_cell_angle_beta                 99.53(3)
_cell_angle_gamma                90
_cell_volume                     2396.4
loop_
_atom_site_label
_atom_site_type_symbol
_atom_site_fract_x
_atom_site_fract_y
_atom_site_fract_z
Cd1 Cd 0.55915(2) -0.07027(2) 0.43666(2)
O1 O 0.3289(3) 0.0880(2) 0.4258(2)
O2 O 0.4102(2) -0.0141(2) 0.3375(2)
O3 O 0.0296(3) 0.1339(3) 0.0188(2)
O4 O -0.3738(3) 0.4190(3) -0.0600(3)
O5 O -0.4401(3) 0.3166(2) 0.0363(3)
N1 N 0.6535(3) -0.1331(3) 0.3306(3)
N2 N 0.6757(3) -0.1563(3) 0.1797(3)
C1 C 0.4963(4) -0.2108(4) 0.2246(4)
H1 H 0.4624 -0.2096 0.2811
H2 H 0.5043 -0.2758 0.2052
H3 H 0.4505 -0.1767 0.1741
C2 C 0.6073(3) -0.1649(3) 0.2454(3)
C3 C 0.7592(3) -0.1021(3) 0.3199(3)
C4 C 0.8450(4) -0.0670(4) 0.3875(4)
H4 H 0.8357 -0.0576 0.4507
C5 C 0.9441(4) -0.0464(4) 0.3583(4)
H5 H 1.0029 -0.0234 0.4025
C6 C 0.9575(4) -0.0596(4) 0.2641(4)
H6 H 1.0251 -0.0442 0.2462
C7 C 0.8739(4) -0.0948(4) 0.1960(4)
H7 H 0.8836 -0.1036 0.1328
C8 C 0.7743(4) -0.1165(3) 0.2261(3)
C9 C 0.6516(4) -0.1782(4) 0.0774(3)
H8 H 0.5917 -0.2242 0.0658
H9 H 0.7164 -0.2070 0.0579
C10 C 0.6193(5) -0.0898(4) 0.0175(4)
H10 H 0.6785 -0.0433 0.0318
H11 H 0.6135 -0.1068 -0.0495
C11 C 0.5146(5) -0.0441(4) 0.0318(4)
H12 H 0.5204 -0.0254 0.0984
H13 H 0.4551 -0.0903 0.0182
C12 C 0.3367(3) 0.0447(3) 0.3496(3)
C13 C 0.2493(3) 0.0663(3) 0.2645(3)
C14 C 0.1785(3) 0.1431(3) 0.2658(3)
H14 H 0.1817 0.1789 0.3215
C15 C 0.1033(4) 0.1676(3) 0.1857(3)
H15 H 0.0580 0.2208 0.1866
C16 C 0.0964(3) 0.1125(4) 0.1051(3)
C17 C 0.1618(3) 0.0328(4) 0.1030(3)
H16 H 0.1538 -0.0057 0.0489
C18 C 0.2395(3) 0.0108(4) 0.1824(3)
H17 H 0.2856 -0.0418 0.1807
C19 C -0.0673(4) 0.1864(4) 0.0167(3)
C20 C -0.1418(4) 0.1668(4) 0.0767(3)
H18 H -0.1261 0.1203 0.1238
C21 C -0.2403(4) 0.2170(4) 0.0662(3)
H19 H -0.2917 0.2031 0.1059
C22 C -0.2633(3) 0.2872(3) -0.0019(3)
C23 C -0.1880(4) 0.3053(4) -0.0629(4)
H20 H -0.2033 0.3518 -0.1100
C24 C -0.0893(4) 0.2539(4) -0.0535(4)
H21 H -0.0389 0.2655 -0.0946
C25 C -0.3668(4) 0.3456(4) -0.0096(4)
N1B N 0.3465(3) 0.1331(3) -0.3306(3)
N2B N 0.3243(3) 0.1563(3) -0.1797(3)
C1B C 0.5037(4) 0.2108(4) -0.2246(4)
H1B H 0.5376 0.2096 -0.2811
H2B H 0.4957 0.2758 -0.2052
H3B H 0.5495 0.1767 -0.1741
C2B C 0.3927(3) 0.1649(3) -0.2454(3)
C3B C 0.2408(3) 0.1021(3) -0.3199(3)
C4B C 0.1550(4) 0.0670(4) -0.3875(4)
H4B H 0.1643 0.0576 -0.4507
C5B C 0.0559(4) 0.0464(4) -0.3583(4)
H5B H -0.0029 0.0234 -0.4025
C6B C 0.0425(4) 0.0596(4) -0.2641(4)
H6B H -0.0251 0.0442 -0.2462
C7B C 0.1261(4) 0.0948(4) -0.1960(4)
H7B H 0.1164 0.1036 -0.1328
C8B C 0.2257(4) 0.1165(3) -0.2261(3)
C9B C 0.3484(4) 0.1782(4) -0.0774(3)
H8B H 0.4083 0.2242 -0.0658
H9B H 0.2836 0.2070 -0.0579
C10B C 0.3807(5) 0.0898(4) -0.0175(4)
H10B H 0.3215 0.0433 -0.0318
H11B H 0.3865 0.1068 0.0495
C11B C 0.4854(5) 0.0441(4) -0.0318(4)
H12B H 0.4796 0.0254 -0.0984
H13B H 0.5449 0.0903 -0.0182
Cd1B Cd 0.44085(2) 0.07027(2) -0.43666(2)
O1B O 0.6711(3) -0.0880(2) -0.4258(2)
O2B O 0.5898(2) 0.0141(2) -0.3375(2)
O3B O 0.9704(3) -0.1339(3) -0.0188(2)
O4B O 1.3738(3) -0.4190(3) 0.0600(3)
O5B O 1.4401(3) -0.3166(2) -0.0363(3)
C12B C 0.6633(3) -0.0447(3) -0.3496(3)
C13B C 0.7507(3) -0.0663(3) -0.2645(3)
C14B C 0.8215(3) -0.1431(3) -0.2658(3)
H14B H 0.8183 -0.1789 -0.3215
C15B C 0.8967(4) -0.1676(3) -0.1857(3)
H15B H 0.9420 -0.2208 -0.1866
C16B C 0.9036(3) -0.1125(4) -0.1051(3)
C17B C 0.8382(3) -0.0328(4) -0.1030(3)
H16B H 0.8462 0.0057 -0.0489
C18B C 0.7605(3) -0.0108(4) -0.1824(3)
H17B H 0.7144 0.0418 -0.1807
C19B C 1.0673(4) -0.1864(4) -0.0167(3)
C20B C 1.1418(4) -0.1668(4) -0.0767(3)
H18B H 1.1261 -0.1203 -0.1238
C21B C 1.2403(4) -0.2170(4) -0.0662(3)
H19B H 1.2917 -0.2031 -0.1059
C22B C 1.2633(3) -0.2872(3) 0.0019(3)
C23B C 1.1880(4) -0.3053(4) 0.0629(4)
H20B H 1.2033 -0.3518 0.1100
C24B C 1.0893(4) -0.2539(4) 0.0535(4)
H21B H 1.0389 -0.2655 0.0946
C25B C 1.3668(4) -0.3456(4) 0.0096(4)
Cd1_2 Cd 0.55915(2) -0.07027(2) -0.56334(2)
Cd1A Cd -0.55915(2) 0.42973(2) 0.06334(2)
Cd1A_2 Cd 1.44085(2) -0.57027(2) 0.06334(2)
Cd1B_2 Cd 0.44085(2) 0.07027(2) 0.56334(2)
Cd1C Cd -0.44085(2) 0.57027(2) -0.06334(2)
Cd1C_2 Cd 1.55915(2) -0.42973(2) -0.06334(2)
O1_2 O 0.3289(3) 0.0880(2) -0.5742(2)
O1B_2 O 0.6711(3) -0.0880(2) 0.5742(2)
O4A O 0.3738(3) -0.0810(3) -0.4400(3)
O4C O 0.6262(3) 0.0810(3) 0.4400(3)
O5A O 0.4401(3) -0.1834(2) 0.4637(3)
O5C O 0.5599(3) 0.1834(2) -0.4637(3)
loop_
_geom_bond_atom_site_label_1
_geom_bond_atom_site_label_2
_geom_bond_site_symmetry_1
_geom_bond_site_symmetry_2
Cd1 O2 1_555 1_555
O1 C12 1_555 1_555
O2 C12 1_555 1_555
O3 C16 1_555 1_555
O4 C25 1_555 1_555
O5 C25 1_555 1_555
N1 Cd1 1_555 1_555
N2 C2 1_555 1_555
C1 H1 1_555 1_555
H2 C1 1_555 1_555
H3 C1 1_555 1_555
C2 N1 1_555 1_555
C3 N1 1_555 1_555
C4 C3 1_555 1_555
H4 C4 1_555 1_555
C5 C4 1_555 1_555
H5 C5 1_555 1_555
C6 C5 1_555 1_555
H6 C6 1_555 1_555
C7 C6 1_555 1_555
H7 C7 1_555 1_555
C8 N2 1_555 1_555
C9 N2 1_555 1_555
H8 C9 1_555 1_555
H9 C9 1_555 1_555
C10 C9 1_555 1_555
H10 C10 1_555 1_555
H11 C10 1_555 1_555
C11 C10 1_555 1_555
H12 C11 1_555 1_555
H13 C11 1_555 1_555
C12 C13 1_555 1_555
C13 C14 1_555 1_555
C14 H14 1_555 1_555
C15 C14 1_555 1_555
H15 C15 1_555 1_555
C16 C15 1_555 1_555
C17 C16 1_555 1_555
H16 C17 1_555 1_555
C18 C13 1_555 1_555
H17 C18 1_555 1_555
C19 O3 1_555 1_555
C20 C19 1_555 1_555
H18 C20 1_555 1_555
C21 C20 1_555 1_555
H19 C21 1_555 1_555
C22 C21 1_555 1_555
C23 C22 1_555 1_555
H20 C23 1_555 1_555
C24 C19 1_555 1_555
H21 C24 1_555 1_555
C25 C22 1_555 1_555
N1B C2B 1_555 1_555
N2B C2B 1_555 1_555
C1B H1B 1_555 1_555
H2B C1B 1_555 1_555
H3B C1B 1_555 1_555
C2B C1B 1_555 1_555
C3B N1B 1_555 1_555
C4B C3B 1_555 1_555
H4B C4B 1_555 1_555
C5B C4B 1_555 1_555
H5B C5B 1_555 1_555
C6B C5B 1_555 1_555
H6B C6B 1_555 1_555
C7B C6B 1_555 1_555
H7B C7B 1_555 1_555
C8B N2B 1_555 1_555
C9B N2B 1_555 1_555
H8B C9B 1_555 1_555
H9B C9B 1_555 1_555
C10B C9B 1_555 1_555
H10B C10B 1_555 1_555
H11B C10B 1_555 1_555
C11B C11 1_555 1_555
H12B C11B 1_555 1_555
H13B C11B 1_555 1_555
Cd1B N1B 1_555 1_555
O1B C12B 1_555 1_555
O2B Cd1B 1_555 1_555
O3B C16B 1_555 1_555
O4B C25B 1_555 1_555
O5B C25B 1_555 1_555
C12B O2B 1_555 1_555
C13B C12B 1_555 1_555
C14B C13B 1_555 1_555
H14B C14B 1_555 1_555
C15B C14B 1_555 1_555
H15B C15B 1_555 1_555
C16B C15B 1_555 1_555
C17B C16B 1_555 1_555
H16B C17B 1_555 1_555
C18B C13B 1_555 1_555
H17B C18B 1_555 1_555
C19B O3B 1_555 1_555
C20B C19B 1_555 1_555
H18B C20B 1_555 1_555
C21B C20B 1_555 1_555
H19B C21B 1_555 1_555
C22B C21B 1_555 1_555
C23B C22B 1_555 1_555
H20B C23B 1_555 1_555
C24B C19B 1_555 1_555
H21B C24B 1_555 1_555
C25B C22B 1_555 1_555
Cd1_2 O1B 1_555 1_555
Cd1A O5 1_555 1_555
Cd1A_2 O4B 1_555 1_555
Cd1B_2 O1 1_555 1_555
Cd1C O4 1_555 1_555
Cd1C_2 O5B 1_555 1_555
O1_2 Cd1B 1_555 1_555
O1B_2 Cd1 1_555 1_555
O4A Cd1B 1_555 1_555
O4C Cd1 1_555 1_555
O5A Cd1 1_555 1_555
O5C Cd1B 1_555 1_555
C1 C2 1_555 1_555
C3 C8 1_555 1_555
C7 C8 1_555 1_555
C17 C18 1_555 1_555
C23 C24 1_555 1_555
C3B C8B 1_555 1_555
C7B C8B 1_555 1_555
C10B C11B 1_555 1_555
C17B C18B 1_555 1_555
C23B C24B 1_555 1_555

#END
