
#######################################################################
#
#                 Cambridge Crystallographic Data Centre
#                                CCDC 
#
#######################################################################
#
# If this CIF has been generated from an entry in the Cambridge 
# Structural Database, then it will include bibliographic, chemical, 
# crystal, experimental, refinement or atomic coordinate data resulting 
# from the CCDC's data processing and validation procedures.
#
#######################################################################

data_UFUTOE
_symmetry_cell_setting           monoclinic
_symmetry_space_group_name_H-M   'C 2/c'
_symmetry_Int_Tables_number      15
_space_group_name_Hall           '-C 2yn'
loop_
_symmetry_equiv_pos_site_id
_symmetry_equiv_pos_as_xyz
1 x,y,z
2 1/2+x,1/2+y,z
3 x,-y,1/2+z
4 1/2+x,1/2-y,1/2+z
5 -x,-y,-z
6 1/2-x,1/2-y,-z
7 -x,y,1/2-z
8 1/2-x,1/2+y,1/2-z
_cell_length_a                   10.6553(6)
_cell_length_b                   24.2016(13)
_cell_length_c                   18.8409(10)
_cell_angle_alpha                90.00
_cell_angle_beta                 94.3560(10)
_cell_angle_gamma                90.00
_cell_volume                     4844.57
loop_
_atom_site_label
_atom_site_type_symbol
_atom_site_fract_x
_atom_site_fract_y
_atom_site_fract_z
Mo1 Mo -0.30343(8) 0.16885(3) 0.89155(4)
Mo2 Mo -0.13493(8) 0.28647(3) 0.87416(4)
Mo3 Mo -0.09884(8) 0.22426(3) 1.02710(4)
Mo4 Mo -0.26672(10) 0.10485(3) 1.04461(5)
Cu1 Cu 0.17250(13) 0.29558(7) 1.15018(7)
Cu2 Cu 0.08204(17) 0.39904(7) 0.89981(7)
O1 O -0.1147(6) 0.2133(2) 0.9242(3)
O2 O -0.3313(6) 0.2509(2) 0.8855(3)
O3 O 0.0526(6) 0.2464(3) 1.0402(3)
O4 O -0.1402(6) 0.2671(2) 0.7878(3)
O5 O 0.0149(7) 0.3116(3) 0.8924(3)
O6 O -0.2527(6) 0.1557(2) 0.8106(3)
O7 O -0.4602(7) 0.1520(3) 0.8831(3)
O8 O -0.0901(7) 0.1544(3) 1.0499(3)
O9 O -0.2235(7) 0.3541(2) 0.8681(3)
O10 O -0.2336(7) 0.1088(3) 0.9453(3)
O11 O -0.3115(6) 0.2008(2) 1.0075(3)
O12 O -0.4249(8) 0.0884(3) 1.0327(4)
O13 O -0.1947(10) 0.0454(3) 1.0715(4)
N1 N 0.0846(7) 0.2510(3) 1.2127(4)
N2 N 0.2515(9) 0.3435(5) 1.0868(5)
N3 N 0.2136(10) 0.3911(5) 0.9761(5)
N4 N 0.0216(12) 0.4358(4) 0.8134(5)
C1 C 0.0000 0.2756(5) 1.2500
H1 H 0.0000 0.3140 1.2500
C2 C 0.0859(12) 0.1949(5) 1.2127(7)
C3 C 0.0000 0.1666(6) 1.2500
H2 H 0.0000 0.1282 1.2500
C4 C 0.1808(14) 0.1668(6) 1.1724(8)
H3 H 0.2313 0.1939 1.1506
H4 H 0.1391 0.1439 1.1363
H5 H 0.2336 0.1443 1.2042
C5 C 0.3646(13) 0.3699(5) 1.1005(7)
C6 C 0.4015(14) 0.4065(5) 1.0505(7)
H6 H 0.4788 0.4242 1.0584
C7 C 0.3300(13) 0.4176(5) 0.9903(7)
C8 C 0.1814(12) 0.3555(6) 1.0265(6)
H7 H 0.1042 0.3377 1.0189
C9 C 0.4363(13) 0.3599(6) 1.1669(7)
H8 H 0.3938 0.3331 1.1939
H9 H 0.4451 0.3938 1.1934
H10 H 0.5182 0.3463 1.1578
C10 C 0.3649(14) 0.4587(5) 0.9344(7)
H11 H 0.3000 0.4595 0.8962
H12 H 0.4430 0.4478 0.9162
H13 H 0.3739 0.4948 0.9553
C11 C 0.0000 0.4115(6) 0.7500
H14 H 0.0000 0.3731 0.7500
C12 C 0.0120(14) 0.4934(6) 0.8129(8)
C13 C 0.0000 0.5205(10) 0.7500
H15 H 0.0000 0.5590 0.7500
C14 C 0.0279(15) 0.5196(6) 0.8874(8)
H16 H 0.0345 0.4910 0.9228
H17 H -0.0438 0.5424 0.8946
H18 H 0.1028 0.5418 0.8912
N1F N -0.0846(7) 0.2510(3) 1.2873(4)
C2F C -0.0859(12) 0.1949(5) 1.2873(7)
C4F C -0.1808(14) 0.1668(6) 1.3276(8)
H3F H -0.2313 0.1939 1.3494
H4F H -0.1391 0.1439 1.3637
H5F H -0.2336 0.1443 1.2958
N4F N -0.0216(12) 0.4358(4) 0.6866(5)
C12F C -0.0120(14) 0.4934(6) 0.6871(8)
C14F C -0.0279(15) 0.5196(6) 0.6126(8)
H16F H -0.0345 0.4910 0.5772
H17F H 0.0438 0.5424 0.6054
H18F H -0.1028 0.5418 0.6088
Mo2E Mo -0.36507(8) 0.21353(3) 1.12584(4)
Mo3E Mo -0.40116(8) 0.27574(3) 0.97290(4)
O11E O -0.1885(6) 0.2992(2) 0.9925(3)
O2E O -0.1687(6) 0.2491(2) 1.1145(3)
O9E O -0.2765(7) 0.1459(2) 1.1319(3)
O1E O -0.3853(6) 0.2867(2) 1.0758(3)
O4E O -0.3598(6) 0.2329(2) 1.2122(3)
O5E O -0.5149(7) 0.1884(3) 1.1076(3)
O3E O -0.5526(6) 0.2536(3) 0.9598(3)
O8E O -0.4099(7) 0.3456(3) 0.9501(3)
Mo1E Mo -0.19657(8) 0.33115(3) 1.10845(4)
Mo4E Mo -0.23328(10) 0.39515(3) 0.95539(5)
Cu2E Cu -0.58204(17) 0.10096(7) 1.10019(7)
O12E O -0.0751(8) 0.4116(3) 0.9673(4)
O6E O -0.2473(6) 0.3443(2) 1.1894(3)
O7E O -0.0398(7) 0.3480(3) 1.1169(3)
O10E O -0.2664(7) 0.3912(3) 1.0547(3)
O13E O -0.3053(10) 0.4546(3) 0.9285(4)
N2E N -0.7515(9) 0.1565(5) 0.9132(5)
N3E N -0.7136(10) 0.1089(5) 1.0239(5)
C5E C -0.8646(13) 0.1301(5) 0.8995(7)
C6E C -0.9015(14) 0.0935(5) 0.9495(7)
H6E H -0.9788 0.0758 0.9416
C7E C -0.8300(13) 0.0824(5) 1.0097(7)
C8E C -0.6814(12) 0.1445(6) 0.9735(6)
H7E H -0.6042 0.1623 0.9811
C9E C -0.9363(13) 0.1401(6) 0.8331(7)
H8E H -0.8938 0.1669 0.8061
H9E H -0.9451 0.1062 0.8066
H10E H -1.0182 0.1537 0.8422
C10E C -0.8649(14) 0.0413(5) 1.0656(7)
H11E H -0.8000 0.0405 1.1038
H12E H -0.9430 0.0522 1.0838
H13E H -0.8739 0.0052 1.0447
Cu1E Cu -0.67250(13) 0.20442(7) 0.84982(7)
Cu1F Cu -0.17250(13) 0.29558(7) 1.34982(7)
Cu2F Cu -0.08204(17) 0.39904(7) 0.60019(7)
N4E N -0.5216(12) 0.0642(4) 1.1866(5)
N1E N -0.5846(7) 0.2490(3) 0.7873(4)
loop_
_geom_bond_atom_site_label_1
_geom_bond_atom_site_label_2
_geom_bond_site_symmetry_1
_geom_bond_site_symmetry_2
Mo1 O1 1_555 1_555
Mo2 O1 1_555 1_555
Mo3 O1 1_555 1_555
Mo4 O8 1_555 1_555
Cu1 N1 1_555 1_555
Cu2 O5 1_555 1_555
O2 Mo1 1_555 1_555
O3 Mo3 1_555 1_555
O4 Mo2 1_555 1_555
O5 Mo2 1_555 1_555
O6 Mo1 1_555 1_555
O7 Mo1 1_555 1_555
O8 Mo3 1_555 1_555
O9 Mo2 1_555 1_555
O10 Mo1 1_555 1_555
O11 Mo1 1_555 1_555
O12 Mo4 1_555 1_555
O13 Mo4 1_555 1_555
N1 C1 1_555 1_555
N2 Cu1 1_555 1_555
N3 Cu2 1_555 1_555
N4 Cu2 1_555 1_555
C1 H1 1_555 1_555
C2 N1 1_555 1_555
C3 C2 1_555 1_555
H2 C3 1_555 1_555
C4 C2 1_555 1_555
H3 C4 1_555 1_555
H4 C4 1_555 1_555
H5 C4 1_555 1_555
C5 N2 1_555 1_555
C6 C5 1_555 1_555
H6 C6 1_555 1_555
C7 N3 1_555 1_555
C8 N2 1_555 1_555
H7 C8 1_555 1_555
C9 C5 1_555 1_555
H8 C9 1_555 1_555
H9 C9 1_555 1_555
H10 C9 1_555 1_555
C10 C7 1_555 1_555
H11 C10 1_555 1_555
H12 C10 1_555 1_555
H13 C10 1_555 1_555
C11 N4 1_555 1_555
H14 C11 1_555 1_555
C12 N4 1_555 1_555
C13 C12 1_555 1_555
H15 C13 1_555 1_555
C14 C12 1_555 1_555
H16 C14 1_555 1_555
H17 C14 1_555 1_555
H18 C14 1_555 1_555
N1F C1 1_555 1_555
C2F C3 1_555 1_555
C4F C2F 1_555 1_555
H3F C4F 1_555 1_555
H4F C4F 1_555 1_555
H5F C4F 1_555 1_555
N4F C11 1_555 1_555
C12F C13 1_555 1_555
C14F C12F 1_555 1_555
H16F C14F 1_555 1_555
H17F C14F 1_555 1_555
H18F C14F 1_555 1_555
Mo2E O11 1_555 1_555
Mo3E O2 1_555 1_555
O11E Mo2 1_555 1_555
O2E Mo3 1_555 1_555
O9E Mo4 1_555 1_555
O1E Mo2E 1_555 1_555
O4E Mo2E 1_555 1_555
O5E Mo2E 1_555 1_555
O3E Mo3E 1_555 1_555
O8E Mo3E 1_555 1_555
Mo1E O11E 1_555 1_555
Mo4E O9 1_555 1_555
Cu2E O12 1_555 1_555
O12E Cu2 1_555 1_555
O6E Mo1E 1_555 1_555
O7E Mo1E 1_555 1_555
O10E Mo1E 1_555 1_555
O13E Mo4E 1_555 1_555
N2E C5E 1_555 1_555
N3E Cu2E 1_555 1_555
C5E C6E 1_555 1_555
C6E H6E 1_555 1_555
C7E N3E 1_555 1_555
C8E N2E 1_555 1_555
H7E C8E 1_555 1_555
C9E C5E 1_555 1_555
H8E C9E 1_555 1_555
H9E C9E 1_555 1_555
H10E C9E 1_555 1_555
C10E C7E 1_555 1_555
H11E C10E 1_555 1_555
H12E C10E 1_555 1_555
H13E C10E 1_555 1_555
Cu1E N2E 1_555 1_555
Cu1F N1F 1_555 1_555
Cu2F N4F 1_555 1_555
N4E Cu2E 1_555 1_555
N1E Cu1E 1_555 1_555
Mo2 O2 1_555 1_555
Mo3 O11 1_555 1_555
Mo3 O11E 1_555 1_555
Mo4 O10 1_555 1_555
Mo4 O11 1_555 1_555
O11 Mo3E 1_555 1_555
N3 C8 1_555 1_555
C6 C7 1_555 1_555
N1F C2F 1_555 1_555
N4F C12F 1_555 1_555
Mo2E O2E 1_555 1_555
Mo2E O9E 1_555 1_555
Mo3E O1E 1_555 1_555
Mo3E O11E 1_555 1_555
O11E Mo4E 1_555 1_555
O2E Mo1E 1_555 1_555
O1E Mo1E 1_555 1_555
O5E Cu2E 1_555 1_555
O8E Mo4E 1_555 1_555
Mo4E O10E 1_555 1_555
Mo4E O12E 1_555 1_555
N3E C8E 1_555 1_555
C6E C7E 1_555 1_555

#END
