
#######################################################################
#
#                 Cambridge Crystallographic Data Centre
#                                CCDC 
#
#######################################################################
#
# If this CIF has been generated from an entry in the Cambridge 
# Structural Database, then it will include bibliographic, chemical, 
# crystal, experimental, refinement or atomic coordinate data resulting 
# from the CCDC's data processing and validation procedures.
#
#######################################################################

data_UGAFIR01
_symmetry_cell_setting           monoclinic
_symmetry_space_group_name_H-M   'P 21'
_symmetry_Int_Tables_number      4
_space_group_name_Hall           'P 2yb'
loop_
_symmetry_equiv_pos_site_id
_symmetry_equiv_pos_as_xyz
1 x,y,z
2 -x,1/2+y,-z
_cell_length_a                   5.762(1)
_cell_length_b                   9.006(2)
_cell_length_c                   8.406(1)
_cell_angle_alpha                90
_cell_angle_beta                 105.54(1)
_cell_angle_gamma                90
_cell_volume                     420.263
loop_
_atom_site_label
_atom_site_type_symbol
_atom_site_fract_x
_atom_site_fract_y
_atom_site_fract_z
Ni1 Ni 0.97275(4) 0.85680(3) 0.33400(2)
O1 O 0.3839(3) 0.6542(2) 0.0512(2)
O2 O 0.6223(3) 0.79917(19) 0.23826(19)
C1 C 0.5854(3) 0.7054(3) 0.1222(2)
C2 C 0.8072(4) 0.6505(3) 0.0727(2)
H1 H 0.748(5) 0.629(4) -0.046(3)
O3 O 0.9794(3) 0.76859(18) 0.10594(18)
H2 H 1.110(7) 0.743(4) 0.086(5)
C3 C 0.9074(4) 0.5089(3) 0.1663(3)
H3 H 0.787(6) 0.432(4) 0.137(4)
H4 H 1.034(5) 0.471(4) 0.124(4)
C4 C 1.0060(4) 0.5216(3) 0.3535(2)
O4 O 1.0420(3) 0.40027(16) 0.42993(18)
O5 O 1.0508(3) 0.64609(18) 0.42329(19)
O6 O 1.3290(3) 0.9166(2) 0.3987(2)
H5 H 1.343(5) 1.010(4) 0.397(3)
H6 H 1.426(6) 0.863(6) 0.344(4)
O7 O 0.8955(3) 1.0710(2) 0.2512(2)
H7 H 0.760(7) 1.078(5) 0.153(5)
H8 H 0.885(10) 1.123(7) 0.326(6)
O4A O 0.9580(3) 0.90027(16) 0.57007(18)
Ni1A Ni 1.02725(4) 0.35680(3) 0.66600(2)
O8 O 0.4042(4) 1.2109(3) 0.3472(3)
H9 H 0.260(10) 1.250(6) 0.360(6)
H10 H 0.525(10) 1.258(7) 0.423(7)
loop_
_geom_bond_atom_site_label_1
_geom_bond_atom_site_label_2
_geom_bond_site_symmetry_1
_geom_bond_site_symmetry_2
Ni1 O2 1_555 1_555
O1 C1 1_555 1_555
O2 C1 1_555 1_555
C1 C2 1_555 1_555
C2 H1 1_555 1_555
O3 Ni1 1_555 1_555
H2 O3 1_555 1_555
C3 C2 1_555 1_555
H3 C3 1_555 1_555
H4 C3 1_555 1_555
C4 C3 1_555 1_555
O4 C4 1_555 1_555
O5 Ni1 1_555 1_555
O6 Ni1 1_555 1_555
H5 O6 1_555 1_555
H6 O6 1_555 1_555
O7 Ni1 1_555 1_555
H7 O7 1_555 1_555
H8 O7 1_555 1_555
O8 H9 1_555 1_555
H10 O8 1_555 1_555
O4A Ni1 1_555 1_555
Ni1A O4 1_555 1_555
C2 O3 1_555 1_555
C4 O5 1_555 1_555

#END
