
#######################################################################
#
#                 Cambridge Crystallographic Data Centre
#                                CCDC 
#
#######################################################################
#
# If this CIF has been generated from an entry in the Cambridge 
# Structural Database, then it will include bibliographic, chemical, 
# crystal, experimental, refinement or atomic coordinate data resulting 
# from the CCDC's data processing and validation procedures.
#
#######################################################################

data_UGAFIR
_symmetry_cell_setting           monoclinic
_symmetry_space_group_name_H-M   'P 21'
_symmetry_Int_Tables_number      4
_space_group_name_Hall           'P 2yb'
loop_
_symmetry_equiv_pos_site_id
_symmetry_equiv_pos_as_xyz
1 x,y,z
2 -x,1/2+y,-z
_cell_length_a                   5.7574(9)
_cell_length_b                   8.990(2)
_cell_length_c                   8.396(2)
_cell_angle_alpha                90
_cell_angle_beta                 105.54(2)
_cell_angle_gamma                90
_cell_volume                     418.683
loop_
_atom_site_label
_atom_site_type_symbol
_atom_site_fract_x
_atom_site_fract_y
_atom_site_fract_z
Ni1 Ni 0.4727(1) 0.077 0.83399(7)
O1 O 0.4806(6) -0.0110(5) 0.6060(5)
O2 O 0.1236(7) 0.0189(5) 0.7394(5)
O3 O 0.5500(8) -0.1338(5) 0.9249(5)
O4 O 0.5414(8) -0.3807(4) 0.9303(5)
O5 O 0.8293(7) 0.1363(5) 0.8983(5)
O6 O 0.3947(7) 0.2915(5) 0.7517(5)
O7 O -0.1168(7) -0.1260(6) 0.5511(5)
C1 C 0.3074(9) -0.1307(6) 0.5720(6)
C2 C 0.0853(8) -0.0749(7) 0.6222(6)
C3 C 0.406(1) -0.2716(6) 0.6671(6)
C4 C 0.5058(9) -0.2575(6) 0.8531(6)
H1 H 0.6253 -0.0656 0.6093
H2 H 0.2718 -0.3423 0.6538
H3 H 0.5356 -0.3175 0.6197
H4 H 0.2586 -0.1205 0.4567
H5 H 0.9221 0.0848 0.8487
H6 H 0.8308 0.2319 0.8847
H7 H 0.2799 0.3048 0.6699
H8 H 0.3550 0.3438 0.8370
O4A O 0.4586(8) 0.1193(4) 1.0697(5)
Ni1A Ni 0.5273(1) -0.423 1.16601(7)
O8 O 0.9045(9) 0.4314(6) 0.8485(7)
H9 H 1.0111 0.4840 0.9468
H10 H 0.8120 0.4810 0.7077
loop_
_geom_bond_atom_site_label_1
_geom_bond_atom_site_label_2
_geom_bond_site_symmetry_1
_geom_bond_site_symmetry_2
Ni1 O1 1_555 1_555
O1 C1 1_555 1_555
O2 Ni1 1_555 1_555
O3 Ni1 1_555 1_555
O4 C4 1_555 1_555
O5 Ni1 1_555 1_555
O6 Ni1 1_555 1_555
O7 C2 1_555 1_555
O8 H9 1_555 1_555
C1 C2 1_555 1_555
C2 O2 1_555 1_555
C3 C1 1_555 1_555
C4 O3 1_555 1_555
H1 O1 1_555 1_555
H2 C3 1_555 1_555
H3 C3 1_555 1_555
H4 C1 1_555 1_555
H5 O5 1_555 1_555
H6 O5 1_555 1_555
H7 O6 1_555 1_555
H8 O6 1_555 1_555
H10 O8 1_555 1_555
O4A Ni1 1_555 1_555
Ni1A O4 1_555 1_555
C3 C4 1_555 1_555

#END
