
#######################################################################
#
#                 Cambridge Crystallographic Data Centre
#                                CCDC 
#
#######################################################################
#
# If this CIF has been generated from an entry in the Cambridge 
# Structural Database, then it will include bibliographic, chemical, 
# crystal, experimental, refinement or atomic coordinate data resulting 
# from the CCDC's data processing and validation procedures.
#
#######################################################################

data_UGAJES
_symmetry_cell_setting           monoclinic
_symmetry_space_group_name_H-M   'P 21/c'
_symmetry_Int_Tables_number      14
_space_group_name_Hall           '-P 2ybc'
loop_
_symmetry_equiv_pos_site_id
_symmetry_equiv_pos_as_xyz
1 x,y,z
2 -x,1/2+y,1/2-z
3 -x,-y,-z
4 x,1/2-y,1/2+z
_cell_length_a                   13.3610(10)
_cell_length_b                   8.3673(7)
_cell_length_c                   14.2686(11)
_cell_angle_alpha                90
_cell_angle_beta                 102.001(2)
_cell_angle_gamma                90
_cell_volume                     1560.3
loop_
_atom_site_label
_atom_site_type_symbol
_atom_site_fract_x
_atom_site_fract_y
_atom_site_fract_z
C1 C 0.4137(2) 1.6695(4) 0.8317(2)
H1 H 0.4469 1.7731 0.8368
H2 H 0.4581 1.5964 0.8739
C2 C 0.4006(2) 1.6107(3) 0.7301(2)
C3 C 0.3491(2) 1.4692(3) 0.7012(2)
H3 H 0.3220 1.4121 0.7460
C4 C 0.3768(2) 1.4946(4) 0.5489(2)
H4 H 0.3685 1.4559 0.4866
C5 C 0.4292(2) 1.6337(4) 0.5718(2)
H5 H 0.4565 1.6878 0.5260
C6 C 0.4415(2) 1.6935(4) 0.6630(2)
H6 H 0.4770 1.7885 0.6795
C7 C -0.0360(2) 1.7404(4) 0.9500(2)
H7 H -0.0490 1.7079 0.8863
C8 C 0.0621(2) 1.7849(4) 0.9916(2)
C9 C 0.0813(3) 1.8330(5) 1.0858(3)
H8 H 0.1469 1.8635 1.1166
C10 C 0.0020(3) 1.8352(5) 1.1337(3)
H9 H 0.0130 1.8693 1.1970
C11 C -0.0934(3) 1.7866(4) 1.0874(2)
H10 H -0.1460 1.7853 1.1210
C12 C 0.1456(2) 1.7775(4) 0.9347(3)
H11 H 0.1909 1.8686 0.9502
H12 H 0.1157 1.7806 0.8667
C13 C 0.2875(2) 1.5888(3) 0.9274(2)
Cu1 Cu 0.26574(3) 1.19634(5) 0.57370(3)
N1 N 0.20322(18) 1.6290(3) 0.95837(19)
H13 H 0.1810 1.5623 0.9952
N2 N 0.31731(18) 1.6836(3) 0.86364(17)
H14 H 0.2765 1.7593 0.8393
N3 N 0.33636(18) 1.4107(3) 0.61266(18)
N4 N -0.11373(19) 1.7409(3) 0.9956(2)
S1 S 0.35264(6) 1.42007(10) 0.96956(6)
I1 I 0.24731(2) 1.03780(3) 0.728706(18)
Cu1A Cu -0.26574(3) 1.69634(5) 0.92630(3)
Cu1C Cu 0.26574(3) 1.30366(5) 1.07370(3)
N4A N 0.11373(19) 1.2409(3) 0.5044(2)
S1C S 0.35264(6) 1.07993(10) 0.46956(6)
loop_
_geom_bond_atom_site_label_1
_geom_bond_atom_site_label_2
_geom_bond_site_symmetry_1
_geom_bond_site_symmetry_2
C1 H1 1_555 1_555
H2 C1 1_555 1_555
C2 C1 1_555 1_555
C3 C2 1_555 1_555
H3 C3 1_555 1_555
C4 H4 1_555 1_555
C5 C4 1_555 1_555
H5 C5 1_555 1_555
C6 C2 1_555 1_555
H6 C6 1_555 1_555
C7 H7 1_555 1_555
C8 C7 1_555 1_555
C9 C8 1_555 1_555
H8 C9 1_555 1_555
C10 C9 1_555 1_555
H9 C10 1_555 1_555
C11 C10 1_555 1_555
H10 C11 1_555 1_555
C12 C8 1_555 1_555
H11 C12 1_555 1_555
H12 C12 1_555 1_555
C13 N1 1_555 1_555
Cu1 N3 1_555 1_555
N1 C12 1_555 1_555
H13 N1 1_555 1_555
N2 C1 1_555 1_555
H14 N2 1_555 1_555
N3 C3 1_555 1_555
N4 C7 1_555 1_555
S1 C13 1_555 1_555
I1 Cu1 1_555 1_555
Cu1A N4 1_555 1_555
Cu1C S1 1_555 1_555
N4A Cu1 1_555 1_555
S1C Cu1 1_555 1_555
C4 N3 1_555 1_555
C5 C6 1_555 1_555
C11 N4 1_555 1_555
C13 N2 1_555 1_555

#END
