
#######################################################################
#
#                 Cambridge Crystallographic Data Centre
#                                CCDC 
#
#######################################################################
#
# If this CIF has been generated from an entry in the Cambridge 
# Structural Database, then it will include bibliographic, chemical, 
# crystal, experimental, refinement or atomic coordinate data resulting 
# from the CCDC's data processing and validation procedures.
#
#######################################################################

data_UGAQUO
_symmetry_cell_setting           triclinic
_symmetry_space_group_name_H-M   'P -1'
_symmetry_Int_Tables_number      2
_space_group_name_Hall           '-P 1'
loop_
_symmetry_equiv_pos_site_id
_symmetry_equiv_pos_as_xyz
1 x,y,z
2 -x,-y,-z
_cell_length_a                   10.6468(6)
_cell_length_b                   14.2195(7)
_cell_length_c                   14.2906(7)
_cell_angle_alpha                73.4660(10)
_cell_angle_beta                 89.0200(10)
_cell_angle_gamma                71.5970(10)
_cell_volume                     1961.66
loop_
_atom_site_label
_atom_site_type_symbol
_atom_site_fract_x
_atom_site_fract_y
_atom_site_fract_z
Cu1 Cu 0.98976(3) 0.85650(2) 0.45828(2)
Cu2 Cu 0.49490(3) 0.65048(2) 0.04952(2)
P1 P 0.72681(6) 0.84179(5) 0.36568(5)
P2 P 0.76002(6) 0.65964(5) 0.15172(5)
P3 P 1.02322(6) 0.61287(5) 0.57284(5)
P4 P 0.47893(6) 0.89122(5) -0.07965(5)
O1 O 0.82359(16) 0.89497(14) 0.38413(13)
O2 O 0.70004(17) 0.76423(14) 0.45458(13)
O3 O 0.58979(18) 0.92630(15) 0.32149(14)
O4 O 1.04367(18) 0.69329(14) 0.48468(14)
O5 O 1.11302(18) 0.58798(15) 0.66374(14)
O6 O 0.87448(19) 0.64576(16) 0.59998(15)
O7 O 0.89190(17) 0.56844(15) 0.19638(14)
O8 O 0.79554(17) 0.73478(14) 0.06617(13)
O9 O 0.65585(17) 0.61516(14) 0.12841(13)
O10 O 0.42995(17) 0.81817(14) 0.00004(13)
O11 O 0.41324(19) 0.91944(14) -0.18131(14)
O12 O 0.63317(18) 0.84487(15) -0.08628(14)
N1 N 1.1039(2) 0.87599(16) 0.34282(16)
N2 N 1.1468(2) 0.86226(16) 0.52231(15)
N3 N 0.9204(2) 0.86989(16) 0.59008(16)
N4 N 0.5722(2) 0.62786(16) -0.07782(16)
N5 N 0.3430(2) 0.63831(16) -0.01462(16)
N6 N 0.3750(2) 0.63753(16) 0.16222(15)
C1 C 1.0697(3) 0.8871(2) 0.24966(19)
H1 H 0.9828 0.8936 0.2324
C2 C 1.1590(3) 0.8894(2) 0.17795(19)
H2 H 1.1326 0.8973 0.1137
C3 C 1.2888(3) 0.8795(2) 0.2040(2)
H3 H 1.3507 0.8797 0.1573
C4 C 1.3258(3) 0.8693(2) 0.3002(2)
H4 H 1.4119 0.8634 0.3187
C5 C 1.2301(2) 0.86817(19) 0.36807(19)
C6 C 1.2541(2) 0.86240(19) 0.47183(19)
C7 C 1.3698(3) 0.8621(2) 0.5162(2)
H5 H 1.4453 0.8607 0.4822
C8 C 1.3687(3) 0.8638(2) 0.6130(2)
H6 H 1.4447 0.8637 0.6442
C9 C 1.2557(3) 0.8656(2) 0.6641(2)
H7 H 1.2547 0.8679 0.7285
C10 C 1.1444(2) 0.86395(19) 0.61567(19)
C11 C 1.0137(2) 0.86744(19) 0.65546(19)
C12 C 0.9861(3) 0.8685(2) 0.75086(19)
H8 H 1.0507 0.8674 0.7945
C13 C 0.8600(3) 0.8711(2) 0.77938(19)
H9 H 0.8395 0.8713 0.8429
C14 C 0.7647(3) 0.8734(2) 0.7130(2)
H10 H 0.6798 0.8753 0.7311
C15 C 0.7989(2) 0.8728(2) 0.6186(2)
H11 H 0.7353 0.8745 0.5738
C16 C 0.6945(2) 0.62378(19) -0.10440(19)
H12 H 0.7561 0.6243 -0.0593
C17 C 0.7332(3) 0.6187(2) -0.19730(19)
H13 H 0.8187 0.6166 -0.2140
C18 C 0.6418(3) 0.6170(2) -0.2638(2)
H14 H 0.6650 0.6137 -0.3261
C19 C 0.5145(3) 0.62019(19) -0.23671(19)
H15 H 0.4519 0.6185 -0.2803
C20 C 0.4826(2) 0.62594(19) -0.14335(19)
C21 C 0.3501(2) 0.63084(19) -0.10636(18)
C22 C 0.2421(3) 0.6256(2) -0.1554(2)
H16 H 0.2469 0.6195 -0.2185
C23 C 0.1263(3) 0.6298(2) -0.1072(2)
H17 H 0.0522 0.6276 -0.1390
C24 C 0.1203(2) 0.6371(2) -0.0117(2)
H18 H 0.0435 0.6392 0.0208
C25 C 0.2325(2) 0.64125(19) 0.03339(19)
C26 C 0.2510(2) 0.64094(19) 0.13570(19)
C27 C 0.1539(3) 0.6394(2) 0.20216(19)
H19 H 0.0692 0.6427 0.1828
C28 C 0.1866(3) 0.6326(2) 0.2985(2)
H20 H 0.1231 0.6327 0.3440
C29 C 0.3137(3) 0.6258(2) 0.3260(2)
H21 H 0.3376 0.6191 0.3905
C30 C 0.4054(3) 0.6292(2) 0.25536(19)
H22 H 0.4907 0.6256 0.2736
C31 C 1.0500(2) 0.49471(19) 0.54103(18)
H23 H 1.1392 0.4730 0.5203
H24 H 1.0441 0.4409 0.5988
C32 C 0.7879(2) 0.7803(2) 0.27140(19)
H25 H 0.7931 0.8330 0.2125
H26 H 0.8771 0.7326 0.2927
C33 C 0.7016(2) 0.7206(2) 0.24638(18)
H27 H 0.6122 0.7682 0.2258
H28 H 0.6970 0.6675 0.3053
C34 C 0.4556(2) 1.00833(19) -0.04546(18)
H29 H 0.4742 1.0596 -0.1000
H30 H 0.3634 1.0359 -0.0328
H31 H 0.595(3) 0.976(3) 0.276(3)
H32 H 0.828(4) 0.680(3) 0.562(3)
H33 H 0.896(4) 0.516(3) 0.244(3)
H34 H 0.676(5) 0.812(4) -0.037(4)
C31A C 0.9500(2) 0.50529(19) 0.45897(18)
P3A P 0.97678(6) 0.38713(5) 0.42716(5)
O4A O 0.95633(18) 0.30671(14) 0.51532(14)
O5A O 0.88698(18) 0.41202(15) 0.33626(14)
O6A O 1.12552(19) 0.35424(16) 0.40002(15)
H32A H 1.172(4) 0.320(3) 0.438(3)
H23A H 0.8608 0.5270 0.4797
H24A H 0.9559 0.5591 0.4012
C34A C 0.5444(2) 0.99167(19) 0.04546(18)
P4A P 0.52107(6) 1.10878(5) 0.07965(5)
O10A O 0.57005(17) 1.18183(14) -0.00004(13)
O11A O 0.58676(19) 1.08056(14) 0.18131(14)
O12A O 0.36683(18) 1.15513(15) 0.08628(14)
H34A H 0.324(5) 1.188(4) 0.037(4)
H29A H 0.5258 0.9404 0.1000
H30A H 0.6366 0.9641 0.0328
Cu1A Cu 1.01024(3) 0.14350(2) 0.54172(2)
P1A P 1.27319(6) 0.15821(5) 0.63432(5)
P2A P 1.23998(6) 0.34036(5) 0.84828(5)
O1A O 1.17641(16) 0.10503(14) 0.61587(13)
O2A O 1.29996(17) 0.23577(14) 0.54542(13)
O3A O 1.41021(18) 0.07370(15) 0.67851(14)
O7A O 1.10810(17) 0.43156(15) 0.80362(14)
O8A O 1.20446(17) 0.26522(14) 0.93383(13)
O9A O 1.34415(17) 0.38484(14) 0.87159(13)
C32A C 1.2121(2) 0.2197(2) 0.72860(19)
H25A H 1.2069 0.1670 0.7875
H26A H 1.1229 0.2674 0.7073
C33A C 1.2984(2) 0.2794(2) 0.75362(18)
H27A H 1.3878 0.2318 0.7742
H28A H 1.3030 0.3325 0.6947
H31A H 1.405(3) 0.024(3) 0.724(3)
H33A H 1.104(4) 0.484(3) 0.756(3)
N1A N 0.8961(2) 0.12401(16) 0.65718(16)
N2A N 0.8532(2) 0.13774(16) 0.47769(15)
N3A N 1.0796(2) 0.13011(16) 0.40992(16)
C1A C 0.9303(3) 0.1129(2) 0.75034(19)
H1A H 1.0172 0.1064 0.7676
C2A C 0.8410(3) 0.1106(2) 0.82205(19)
H2A H 0.8674 0.1027 0.8863
C3A C 0.7112(3) 0.1205(2) 0.7960(2)
H3A H 0.6493 0.1203 0.8427
C4A C 0.6742(3) 0.1307(2) 0.6998(2)
H4A H 0.5881 0.1366 0.6813
C5A C 0.7699(2) 0.13183(19) 0.63193(19)
C6A C 0.7459(2) 0.13760(19) 0.52817(19)
C7A C 0.6302(3) 0.1379(2) 0.4838(2)
H5A H 0.5547 0.1393 0.5178
C8A C 0.6313(3) 0.1362(2) 0.3870(2)
H6A H 0.5553 0.1363 0.3558
C9A C 0.7443(3) 0.1344(2) 0.3359(2)
H7A H 0.7453 0.1321 0.2715
C10A C 0.8556(2) 0.13605(19) 0.38433(19)
C11A C 0.9863(2) 0.13256(19) 0.34454(19)
C12A C 1.0139(3) 0.1315(2) 0.24914(19)
H8A H 0.9493 0.1326 0.2055
C13A C 1.1400(3) 0.1289(2) 0.22062(19)
H9A H 1.1605 0.1287 0.1571
C14A C 1.2353(3) 0.1266(2) 0.2870(2)
H10A H 1.3202 0.1247 0.2689
C15A C 1.2011(2) 0.1272(2) 0.3814(2)
H11A H 1.2647 0.1255 0.4262
Cu2A Cu 1.50510(3) 0.34952(2) 0.95048(2)
N4A N 1.4278(2) 0.37214(16) 1.07782(16)
N5A N 1.6570(2) 0.36169(16) 1.01462(16)
N6A N 1.6250(2) 0.36247(16) 0.83778(15)
C16A C 1.3055(2) 0.37622(19) 1.10440(19)
H12A H 1.2439 0.3757 1.0593
C17A C 1.2668(3) 0.3813(2) 1.19730(19)
H13A H 1.1813 0.3834 1.2140
C18A C 1.3582(3) 0.3830(2) 1.2638(2)
H14A H 1.3350 0.3863 1.3261
C19A C 1.4855(3) 0.37981(19) 1.23671(19)
H15A H 1.5481 0.3815 1.2803
C20A C 1.5174(2) 0.37406(19) 1.14335(19)
C21A C 1.6499(2) 0.36916(19) 1.10636(18)
C22A C 1.7579(3) 0.3744(2) 1.1554(2)
H16A H 1.7531 0.3805 1.2185
C23A C 1.8737(3) 0.3702(2) 1.1072(2)
H17A H 1.9478 0.3724 1.1390
C24A C 1.8797(2) 0.3629(2) 1.0117(2)
H18A H 1.9565 0.3608 0.9792
C25A C 1.7675(2) 0.35875(19) 0.96661(19)
C26A C 1.7490(2) 0.35906(19) 0.86430(19)
C27A C 1.8461(3) 0.3606(2) 0.79784(19)
H19A H 1.9308 0.3573 0.8172
C28A C 1.8134(3) 0.3674(2) 0.7015(2)
H20A H 1.8769 0.3673 0.6560
C29A C 1.6863(3) 0.3742(2) 0.6740(2)
H21A H 1.6624 0.3809 0.6095
C30A C 1.5946(3) 0.3708(2) 0.74464(19)
H22A H 1.5093 0.3744 0.7264
Cu2A_2 Cu 0.50510(3) 1.34952(2) -0.04952(2)
O10A_2 O 1.57005(17) 0.18183(14) 0.99996(13)
O13 O 0.9100(2) 0.89308(17) 0.03770(17)
H35 H 0.969(3) 0.886(2) 0.012(2)
H39 H 0.888(5) 0.842(4) 0.038(4)
O14 O 0.5734(3) 0.61584(19) 0.46886(19)
H36 H 0.595(4) 0.663(4) 0.477(3)
H40 H 0.527(3) 0.619(3) 0.500(3)
O15 O 0.1427(2) 0.90424(19) 0.93674(16)
H38 H 0.224(4) 0.871(3) 0.950(3)
H42 H 0.131(4) 0.964(3) 0.930(3)
O16 O 0.3700(2) 0.5698(2) 0.58401(17)
H37 H 0.374(4) 0.518(3) 0.563(3)
H41 H 0.292(5) 0.589(4) 0.597(4)
loop_
_geom_bond_atom_site_label_1
_geom_bond_atom_site_label_2
_geom_bond_site_symmetry_1
_geom_bond_site_symmetry_2
Cu1 O1 1_555 1_555
Cu2 O9 1_555 1_555
P1 O1 1_555 1_555
P2 O7 1_555 1_555
P3 O4 1_555 1_555
P4 O10 1_555 1_555
O2 P1 1_555 1_555
O3 P1 1_555 1_555
O4 Cu1 1_555 1_555
O5 P3 1_555 1_555
O6 P3 1_555 1_555
O7 H33 1_555 1_555
O8 P2 1_555 1_555
O9 P2 1_555 1_555
O10 Cu2 1_555 1_555
O11 P4 1_555 1_555
O12 P4 1_555 1_555
O13 H35 1_555 1_555
O14 H36 1_555 1_555
O15 H38 1_555 1_555
O16 H37 1_555 1_555
N1 Cu1 1_555 1_555
N2 Cu1 1_555 1_555
N3 Cu1 1_555 1_555
N4 Cu2 1_555 1_555
N5 Cu2 1_555 1_555
N6 Cu2 1_555 1_555
C1 N1 1_555 1_555
H1 C1 1_555 1_555
C2 C1 1_555 1_555
H2 C2 1_555 1_555
C3 C2 1_555 1_555
H3 C3 1_555 1_555
C4 C3 1_555 1_555
H4 C4 1_555 1_555
C5 N1 1_555 1_555
C6 N2 1_555 1_555
C7 C6 1_555 1_555
H5 C7 1_555 1_555
C8 C7 1_555 1_555
H6 C8 1_555 1_555
C9 C8 1_555 1_555
H7 C9 1_555 1_555
C10 N2 1_555 1_555
C11 N3 1_555 1_555
C12 C11 1_555 1_555
H8 C12 1_555 1_555
C13 C12 1_555 1_555
H9 C13 1_555 1_555
C14 C13 1_555 1_555
H10 C14 1_555 1_555
C15 N3 1_555 1_555
H11 C15 1_555 1_555
C16 N4 1_555 1_555
H12 C16 1_555 1_555
C17 C16 1_555 1_555
H13 C17 1_555 1_555
C18 C17 1_555 1_555
H14 C18 1_555 1_555
C19 C18 1_555 1_555
H15 C19 1_555 1_555
C20 N4 1_555 1_555
C21 N5 1_555 1_555
C22 C21 1_555 1_555
H16 C22 1_555 1_555
C23 C22 1_555 1_555
H17 C23 1_555 1_555
C24 C23 1_555 1_555
H18 C24 1_555 1_555
C25 N5 1_555 1_555
C26 N6 1_555 1_555
C27 C26 1_555 1_555
H19 C27 1_555 1_555
C28 C27 1_555 1_555
H20 C28 1_555 1_555
C29 C28 1_555 1_555
H21 C29 1_555 1_555
C30 N6 1_555 1_555
H22 C30 1_555 1_555
C31 P3 1_555 1_555
H23 C31 1_555 1_555
H24 C31 1_555 1_555
C32 P1 1_555 1_555
H25 C32 1_555 1_555
H26 C32 1_555 1_555
C33 P2 1_555 1_555
H27 C33 1_555 1_555
H28 C33 1_555 1_555
C34 P4 1_555 1_555
H29 C34 1_555 1_555
H30 C34 1_555 1_555
H31 O3 1_555 1_555
H32 O6 1_555 1_555
H34 O12 1_555 1_555
H39 O13 1_555 1_555
H40 O14 1_555 1_555
H41 O16 1_555 1_555
H42 O15 1_555 1_555
C31A C31 1_555 1_555
P3A C31A 1_555 1_555
O4A P3A 1_555 1_555
O5A P3A 1_555 1_555
O6A P3A 1_555 1_555
H32A O6A 1_555 1_555
H23A C31A 1_555 1_555
H24A C31A 1_555 1_555
C34A C34 1_555 1_555
P4A C34A 1_555 1_555
O10A P4A 1_555 1_555
O11A P4A 1_555 1_555
O12A P4A 1_555 1_555
H34A O12A 1_555 1_555
H29A C34A 1_555 1_555
H30A C34A 1_555 1_555
Cu1A O4A 1_555 1_555
P1A O1A 1_555 1_555
P2A O7A 1_555 1_555
O1A Cu1A 1_555 1_555
O2A P1A 1_555 1_555
O3A P1A 1_555 1_555
O7A H33A 1_555 1_555
O8A P2A 1_555 1_555
O9A P2A 1_555 1_555
C32A P1A 1_555 1_555
H25A C32A 1_555 1_555
H26A C32A 1_555 1_555
C33A P2A 1_555 1_555
H27A C33A 1_555 1_555
H28A C33A 1_555 1_555
H31A O3A 1_555 1_555
N1A Cu1A 1_555 1_555
N2A Cu1A 1_555 1_555
N3A Cu1A 1_555 1_555
C1A N1A 1_555 1_555
H1A C1A 1_555 1_555
C2A C1A 1_555 1_555
H2A C2A 1_555 1_555
C3A C2A 1_555 1_555
H3A C3A 1_555 1_555
C4A C3A 1_555 1_555
H4A C4A 1_555 1_555
C5A N1A 1_555 1_555
C6A N2A 1_555 1_555
C7A C6A 1_555 1_555
H5A C7A 1_555 1_555
C8A C7A 1_555 1_555
H6A C8A 1_555 1_555
C9A C8A 1_555 1_555
H7A C9A 1_555 1_555
C10A N2A 1_555 1_555
C11A N3A 1_555 1_555
C12A C11A 1_555 1_555
H8A C12A 1_555 1_555
C13A C12A 1_555 1_555
H9A C13A 1_555 1_555
C14A C13A 1_555 1_555
H10A C14A 1_555 1_555
C15A N3A 1_555 1_555
H11A C15A 1_555 1_555
Cu2A O9A 1_555 1_555
N4A Cu2A 1_555 1_555
N5A Cu2A 1_555 1_555
N6A Cu2A 1_555 1_555
C16A N4A 1_555 1_555
H12A C16A 1_555 1_555
C17A C16A 1_555 1_555
H13A C17A 1_555 1_555
C18A C17A 1_555 1_555
H14A C18A 1_555 1_555
C19A C18A 1_555 1_555
H15A C19A 1_555 1_555
C20A N4A 1_555 1_555
C21A N5A 1_555 1_555
C22A C21A 1_555 1_555
H16A C22A 1_555 1_555
C23A C22A 1_555 1_555
H17A C23A 1_555 1_555
C24A C23A 1_555 1_555
H18A C24A 1_555 1_555
C25A N5A 1_555 1_555
C26A N6A 1_555 1_555
C27A C26A 1_555 1_555
H19A C27A 1_555 1_555
C28A C27A 1_555 1_555
H20A C28A 1_555 1_555
C29A C28A 1_555 1_555
H21A C29A 1_555 1_555
C30A N6A 1_555 1_555
H22A C30A 1_555 1_555
Cu2A_2 O10A 1_555 1_555
O10A_2 Cu2A 1_555 1_555
C4 C5 1_555 1_555
C5 C6 1_555 1_555
C9 C10 1_555 1_555
C10 C11 1_555 1_555
C14 C15 1_555 1_555
C19 C20 1_555 1_555
C20 C21 1_555 1_555
C24 C25 1_555 1_555
C25 C26 1_555 1_555
C29 C30 1_555 1_555
C32 C33 1_555 1_555
C32A C33A 1_555 1_555
C4A C5A 1_555 1_555
C5A C6A 1_555 1_555
C9A C10A 1_555 1_555
C10A C11A 1_555 1_555
C14A C15A 1_555 1_555
C19A C20A 1_555 1_555
C20A C21A 1_555 1_555
C24A C25A 1_555 1_555
C25A C26A 1_555 1_555
C29A C30A 1_555 1_555

#END
