
#######################################################################
#
#                 Cambridge Crystallographic Data Centre
#                                CCDC 
#
#######################################################################
#
# If this CIF has been generated from an entry in the Cambridge 
# Structural Database, then it will include bibliographic, chemical, 
# crystal, experimental, refinement or atomic coordinate data resulting 
# from the CCDC's data processing and validation procedures.
#
#######################################################################

data_UGARID01
_symmetry_cell_setting           orthorhombic
_symmetry_space_group_name_H-M   'P n m a'
_symmetry_Int_Tables_number      62
_space_group_name_Hall           '-P 2ac 2n'
loop_
_symmetry_equiv_pos_site_id
_symmetry_equiv_pos_as_xyz
1 x,y,z
2 1/2-x,-y,1/2+z
3 1/2+x,1/2-y,1/2-z
4 -x,1/2+y,-z
5 -x,-y,-z
6 1/2+x,y,1/2-z
7 1/2-x,1/2+y,1/2+z
8 x,1/2-y,z
_cell_length_a                   26.1445(14)
_cell_length_b                   6.7607(4)
_cell_length_c                   9.2496(5)
_cell_angle_alpha                90
_cell_angle_beta                 90
_cell_angle_gamma                90
_cell_volume                     1634.91
loop_
_atom_site_label
_atom_site_type_symbol
_atom_site_fract_x
_atom_site_fract_y
_atom_site_fract_z
Mo1 Mo 0.11295 0.25000 0.71539
V1 V 0.13924 0.75000 0.83849
O1 O 0.15297 0.75000 1.0074
O2 O 0.1368 0.46255 0.80955
O3 O 0.13009 0.25000 0.53610
O4 O 0.04663 0.25000 0.7214
N1 N 0.05765 0.75000 0.811
N2 N 0.12505 0.75000 0.6045
N3 N 0.21223 0.75000 0.7379
C1 C 0.02464 0.75000 0.9214
C2 C -0.02810 0.75000 0.9016
C3 C -0.04725 0.75000 0.7633
C4 C -0.01391 0.75000 0.6476
C5 C 0.03822 0.75000 0.6736
C6 C 0.07722 0.75000 0.5567
C7 C 0.06654 0.75000 0.40830
C8 C 0.10781 0.75000 0.3152
C9 C 0.15778 0.75000 0.3659
C10 C 0.21514 0.75000 0.591
C11 C 0.26209 0.75000 0.52140
C12 C 0.30676 0.75000 0.603
C13 C 0.30332 0.75000 0.7514
C14 C 0.25554 0.75000 0.8147
C15 C 0.1652 0.75000 0.5146
H1 H 0.0374 0.75000 1.0151
H2 H -0.04990 0.75000 0.9798
H3 H -0.08210 0.75000 0.7483
H4 H -0.02630 0.75000 0.5534
H5 H 0.0332 0.75000 0.3743
H6 H 0.102 0.75000 0.216
H7 H 0.1854 0.75000 0.3024
H8 H 0.2636 0.75000 0.4212
H9 H 0.3385 0.75000 0.5585
H10 H 0.3324 0.75000 0.8072
H11 H 0.2534 0.75000 0.9144
V1_2 V 0.13924 -0.25000 0.83849
O2G O 0.1368 0.03745 0.80955
O2G_2 O 0.1368 1.03745 0.80955
loop_
_geom_bond_atom_site_label_1
_geom_bond_atom_site_label_2
_geom_bond_site_symmetry_1
_geom_bond_site_symmetry_2
Mo1 O2 1_555 1_555
V1 O1 1_555 1_555
O2 V1 1_555 1_555
O3 Mo1 1_555 1_555
O4 Mo1 1_555 1_555
N1 V1 1_555 1_555
N2 V1 1_555 1_555
N3 V1 1_555 1_555
C1 N1 1_555 1_555
C2 C1 1_555 1_555
C3 C2 1_555 1_555
C4 C3 1_555 1_555
C5 N1 1_555 1_555
C6 N2 1_555 1_555
C7 C6 1_555 1_555
C8 C7 1_555 1_555
C9 C8 1_555 1_555
C10 N3 1_555 1_555
C11 C10 1_555 1_555
C12 C11 1_555 1_555
C13 C12 1_555 1_555
C14 N3 1_555 1_555
C15 N2 1_555 1_555
H1 C1 1_555 1_555
H2 C2 1_555 1_555
H3 C3 1_555 1_555
H4 C4 1_555 1_555
H5 C7 1_555 1_555
H6 C8 1_555 1_555
H7 C9 1_555 1_555
H8 C11 1_555 1_555
H9 C12 1_555 1_555
H10 C13 1_555 1_555
H11 C14 1_555 1_555
V1_2 O2G 1_555 1_555
O2G Mo1 1_555 1_555
O2G_2 V1 1_555 1_555
C4 C5 1_555 1_555
C5 C6 1_555 1_555
C9 C15 1_555 1_555
C10 C15 1_555 1_555
C13 C14 1_555 1_555

#END
