
#######################################################################
#
#                 Cambridge Crystallographic Data Centre
#                                CCDC 
#
#######################################################################
#
# If this CIF has been generated from an entry in the Cambridge 
# Structural Database, then it will include bibliographic, chemical, 
# crystal, experimental, refinement or atomic coordinate data resulting 
# from the CCDC's data processing and validation procedures.
#
#######################################################################

data_UGATIG
_symmetry_cell_setting           triclinic
_symmetry_space_group_name_H-M   'P -1'
_symmetry_Int_Tables_number      2
_space_group_name_Hall           '-P 1'
loop_
_symmetry_equiv_pos_site_id
_symmetry_equiv_pos_as_xyz
1 x,y,z
2 -x,-y,-z
_cell_length_a                   7.9167(6)
_cell_length_b                   9.7419(7)
_cell_length_c                   10.6027(7)
_cell_angle_alpha                108.077(2)
_cell_angle_beta                 98.405(2)
_cell_angle_gamma                107.605(2)
_cell_volume                     714.482
loop_
_atom_site_label
_atom_site_type_symbol
_atom_site_fract_x
_atom_site_fract_y
_atom_site_fract_z
Mn1 Mn 0.69124(4) 0.51766(4) 0.60405(3)
O1 O 0.8584(2) 0.3728(2) 0.55961(17)
O2 O 1.1070(2) 0.3652(2) 0.48559(18)
N1 N 0.8778(3) 0.6731(2) 0.8174(2)
N2 N 0.5884(3) 0.4037(2) 0.7451(2)
N3 N 0.4795(3) 0.3475(3) 0.4118(2)
N4 N 0.5056(3) 0.2543(2) 0.3200(2)
N5 N 0.5321(4) 0.1659(3) 0.2324(3)
C1 C 1.0224(4) 0.8028(3) 0.8517(3)
H1 H 1.0487 0.8422 0.7823
C2 C 1.1390(4) 0.8849(3) 0.9861(3)
H2 H 1.2413 0.9774 1.0062
C3 C 1.1037(4) 0.8304(3) 1.0871(3)
H3 H 1.1802 0.8849 1.1785
C4 C 0.9082(4) 0.6250(3) 1.1530(3)
H4 H 0.9804 0.6766 1.2458
C5 C 0.7651(4) 0.4888(4) 1.1163(3)
H5 H 0.7389 0.4463 1.1838
C6 C 0.5057(4) 0.2651(3) 0.9333(3)
H6 H 0.4769 0.2170 0.9969
C7 C 0.4042(4) 0.1953(3) 0.7993(3)
H7 H 0.3049 0.0982 0.7684
C8 C 0.4493(3) 0.2695(3) 0.7082(3)
H8 H 0.3768 0.2214 0.6154
C9 C 0.8430(3) 0.6168(3) 0.9175(2)
C10 C 0.9521(3) 0.6921(3) 1.0540(2)
C11 C 0.6896(3) 0.4726(3) 0.8786(2)
C12 C 0.6521(3) 0.4077(3) 0.9769(3)
C13 C 0.9898(3) 0.4241(3) 0.5129(2)
Mn1A Mn 1.30876(4) 0.48234(4) 0.39595(3)
Mn1A_2 Mn 0.30876(4) 0.48234(4) 0.39595(3)
O1A O 1.1416(2) 0.6272(2) 0.44039(17)
O2A O 0.8930(2) 0.6348(2) 0.51441(18)
N1A N 1.1222(3) 0.3269(2) 0.1826(2)
N2A N 1.4116(3) 0.5963(2) 0.2549(2)
N3A N 0.5205(3) 0.6525(3) 0.5882(2)
N3A_2 N 1.5205(3) 0.6525(3) 0.5882(2)
N3_2 N 1.4795(3) 0.3475(3) 0.4118(2)
N4A N 0.4944(3) 0.7457(2) 0.6800(2)
N5A N 0.4679(4) 0.8341(3) 0.7676(3)
C1A C 0.9776(4) 0.1972(3) 0.1483(3)
H1A H 0.9513 0.1578 0.2177
C2A C 0.8610(4) 0.1151(3) 0.0139(3)
H2A H 0.7587 0.0226 -0.0062
C3A C 0.8963(4) 0.1696(3) -0.0871(3)
H3A H 0.8198 0.1151 -0.1785
C4A C 1.0918(4) 0.3750(3) -0.1530(3)
H4A H 1.0196 0.3234 -0.2458
C5A C 1.2349(4) 0.5112(4) -0.1163(3)
H5A H 1.2611 0.5537 -0.1838
C6A C 1.4943(4) 0.7349(3) 0.0667(3)
H6A H 1.5231 0.7830 0.0031
C7A C 1.5958(4) 0.8047(3) 0.2007(3)
H7A H 1.6951 0.9018 0.2316
C8A C 1.5507(3) 0.7305(3) 0.2918(3)
H8A H 1.6232 0.7786 0.3846
C9A C 1.1570(3) 0.3832(3) 0.0825(2)
C10A C 1.0479(3) 0.3079(3) -0.0540(2)
C11A C 1.3104(3) 0.5274(3) 0.1214(2)
C12A C 1.3479(3) 0.5923(3) 0.0231(3)
C13A C 1.0102(3) 0.5759(3) 0.4871(2)
O3 O 0.6882(4) 0.0710(3) 0.5614(3)
O4 O -0.0520(6) -0.0491(4) 0.5922(5)
loop_
_geom_bond_atom_site_label_1
_geom_bond_atom_site_label_2
_geom_bond_site_symmetry_1
_geom_bond_site_symmetry_2
Mn1 O1 1_555 1_555
O1 C13 1_555 1_555
O2 C13 1_555 1_555
N1 Mn1 1_555 1_555
N2 Mn1 1_555 1_555
N3 Mn1 1_555 1_555
N4 N3 1_555 1_555
N5 N4 1_555 1_555
C1 N1 1_555 1_555
H1 C1 1_555 1_555
C2 C1 1_555 1_555
H2 C2 1_555 1_555
C3 C2 1_555 1_555
H3 C3 1_555 1_555
C4 H4 1_555 1_555
C5 C4 1_555 1_555
H5 C5 1_555 1_555
C6 H6 1_555 1_555
C7 C6 1_555 1_555
H7 C7 1_555 1_555
C8 N2 1_555 1_555
H8 C8 1_555 1_555
C9 N1 1_555 1_555
C10 C3 1_555 1_555
C11 N2 1_555 1_555
C12 C5 1_555 1_555
C13 C13A 1_555 1_555
Mn1A O2 1_555 1_555
Mn1A_2 N3 1_555 1_555
O1A Mn1A 1_555 1_555
O2A Mn1 1_555 1_555
N1A Mn1A 1_555 1_555
N2A Mn1A 1_555 1_555
N3A Mn1 1_555 1_555
N3A_2 Mn1A 1_555 1_555
N3_2 Mn1A 1_555 1_555
N4A N3A 1_555 1_555
N5A N4A 1_555 1_555
C1A N1A 1_555 1_555
H1A C1A 1_555 1_555
C2A C1A 1_555 1_555
H2A C2A 1_555 1_555
C3A C2A 1_555 1_555
H3A C3A 1_555 1_555
C4A H4A 1_555 1_555
C5A C4A 1_555 1_555
H5A C5A 1_555 1_555
C6A H6A 1_555 1_555
C7A C6A 1_555 1_555
H7A C7A 1_555 1_555
C8A N2A 1_555 1_555
H8A C8A 1_555 1_555
C9A N1A 1_555 1_555
C10A C3A 1_555 1_555
C11A N2A 1_555 1_555
C12A C5A 1_555 1_555
C13A O1A 1_555 1_555
C4 C10 1_555 1_555
C6 C12 1_555 1_555
C7 C8 1_555 1_555
C9 C10 1_555 1_555
C9 C11 1_555 1_555
C11 C12 1_555 1_555
Mn1A_2 N3A 1_555 1_555
O2A C13A 1_555 1_555
C4A C10A 1_555 1_555
C6A C12A 1_555 1_555
C7A C8A 1_555 1_555
C9A C10A 1_555 1_555
C9A C11A 1_555 1_555
C11A C12A 1_555 1_555

#END
