
#######################################################################
#
#                 Cambridge Crystallographic Data Centre
#                                CCDC 
#
#######################################################################
#
# If this CIF has been generated from an entry in the Cambridge 
# Structural Database, then it will include bibliographic, chemical, 
# crystal, experimental, refinement or atomic coordinate data resulting 
# from the CCDC's data processing and validation procedures.
#
#######################################################################

data_UGAVAA
_symmetry_cell_setting           monoclinic
_symmetry_space_group_name_H-M   'P 21/n'
_symmetry_Int_Tables_number      14
_space_group_name_Hall           '-P 2yn'
loop_
_symmetry_equiv_pos_site_id
_symmetry_equiv_pos_as_xyz
1 x,y,z
2 1/2-x,1/2+y,1/2-z
3 -x,-y,-z
4 1/2+x,1/2-y,1/2+z
_cell_length_a                   8.4748(17)
_cell_length_b                   19.334(4)
_cell_length_c                   12.025(2)
_cell_angle_alpha                90
_cell_angle_beta                 98.86(3)
_cell_angle_gamma                90
_cell_volume                     1946.81
loop_
_atom_site_label
_atom_site_type_symbol
_atom_site_fract_x
_atom_site_fract_y
_atom_site_fract_z
Cd1 Cd 0.82661(2) 0.161534(10) 0.685880(16)
O1 O 0.9040(3) 0.25530(14) 0.5485(2)
O2 O 1.0751(3) 0.21074(11) 0.68273(18)
C1 C 1.0432(4) 0.25043(16) 0.6004(2)
C2 C 1.1748(4) 0.29220(16) 0.5602(3)
H1 H 1.1915 0.2752 0.4870
H2 H 1.2733 0.2855 0.6120
C3 C 1.1370(4) 0.36915(16) 0.5513(3)
H3 H 1.1195 0.3860 0.6243
H4 H 1.0388 0.3758 0.4992
C4 C 1.2697(4) 0.41187(15) 0.5114(2)
H5 H 1.3694 0.4044 0.5631
C5 C 1.2913(4) 0.38714(14) 0.3948(2)
O3 O 1.4210(3) 0.35915(13) 0.38111(18)
O4 O 1.1811(3) 0.39428(13) 0.31547(17)
C6 C 1.2295(5) 0.48838(18) 0.5091(3)
H6 H 1.3147 0.5141 0.4846
H7 H 1.2160 0.5032 0.5833
H8 H 1.1323 0.4962 0.4581
O5 O 0.6554(3) 0.24876(15) 0.7212(2)
H9 H 0.635(5) 0.279(2) 0.674(3)
H10 H 0.571(5) 0.2399(19) 0.740(3)
N1 N 0.8826(3) 0.04546(13) 0.64117(19)
N2 N 0.6691(3) 0.13037(13) 0.5146(2)
C7 C 0.9829(4) 0.00368(18) 0.7042(3)
H11 H 1.0424 0.0215 0.7693
C8 C 1.0041(4) -0.06547(19) 0.6784(3)
H12 H 1.0759 -0.0931 0.7251
C9 C 0.9175(5) -0.09174(17) 0.5833(3)
H13 H 0.9305 -0.1378 0.5641
C10 C 0.8084(4) -0.04969(16) 0.5139(3)
C11 C 0.7106(4) -0.07400(19) 0.4134(3)
H14 H 0.7201 -0.1197 0.3910
C12 C 0.6059(4) -0.0323(2) 0.3511(3)
H15 H 0.5439 -0.0495 0.2865
C13 C 0.5879(4) 0.03810(17) 0.3824(2)
C14 C 0.4769(4) 0.0837(2) 0.3211(3)
H16 H 0.4101 0.0682 0.2573
C15 C 0.4680(4) 0.1503(2) 0.3555(3)
H17 H 0.3981 0.1811 0.3139
C16 C 0.5643(4) 0.17205(17) 0.4533(3)
H18 H 0.5553 0.2175 0.4770
C17 C 0.6810(3) 0.06459(15) 0.4805(2)
C18 C 0.7948(3) 0.01958(15) 0.5472(2)
Cd1C Cd 1.32661(2) 0.338466(10) 0.185880(16)
O3C O 0.9210(3) 0.14085(13) 0.88111(18)
O4C O 0.6811(3) 0.10572(13) 0.81547(17)
O6 O 0.8757(4) 0.2609(2) 0.3116(3)
H19 H 0.8807 0.2662 0.3780
H20 H 0.8015 0.2710 0.2649
O7 O 1.1561(4) 0.15010(13) 1.0663(3)
H21 H 1.2245 0.1702 1.0421
H22 H 1.0981 0.1502 1.0082
loop_
_geom_bond_atom_site_label_1
_geom_bond_atom_site_label_2
_geom_bond_site_symmetry_1
_geom_bond_site_symmetry_2
Cd1 O1 1_555 1_555
O1 C1 1_555 1_555
O2 Cd1 1_555 1_555
C1 O2 1_555 1_555
C2 C1 1_555 1_555
H1 C2 1_555 1_555
H2 C2 1_555 1_555
C3 C2 1_555 1_555
H3 C3 1_555 1_555
H4 C3 1_555 1_555
C4 C3 1_555 1_555
H5 C4 1_555 1_555
C5 C4 1_555 1_555
O3 C5 1_555 1_555
O4 C5 1_555 1_555
C6 C4 1_555 1_555
H6 C6 1_555 1_555
H7 C6 1_555 1_555
H8 C6 1_555 1_555
O5 Cd1 1_555 1_555
H9 O5 1_555 1_555
H10 O5 1_555 1_555
N1 Cd1 1_555 1_555
N2 Cd1 1_555 1_555
C7 N1 1_555 1_555
H11 C7 1_555 1_555
C8 C7 1_555 1_555
H12 C8 1_555 1_555
C9 C8 1_555 1_555
H13 C9 1_555 1_555
C10 C9 1_555 1_555
C11 C10 1_555 1_555
H14 C11 1_555 1_555
C12 C11 1_555 1_555
H15 C12 1_555 1_555
C13 C12 1_555 1_555
C14 C13 1_555 1_555
H16 C14 1_555 1_555
C15 C14 1_555 1_555
H17 C15 1_555 1_555
C16 N2 1_555 1_555
H18 C16 1_555 1_555
C17 N2 1_555 1_555
C18 N1 1_555 1_555
O6 H19 1_555 1_555
H20 O6 1_555 1_555
O7 H21 1_555 1_555
H22 O7 1_555 1_555
Cd1C O3 1_555 1_555
O3C Cd1 1_555 1_555
O4C Cd1 1_555 1_555
O4 Cd1C 1_555 1_555
C10 C18 1_555 1_555
C13 C17 1_555 1_555
C15 C16 1_555 1_555
C17 C18 1_555 1_555

#END
