
#######################################################################
#
#                 Cambridge Crystallographic Data Centre
#                                CCDC 
#
#######################################################################
#
# If this CIF has been generated from an entry in the Cambridge 
# Structural Database, then it will include bibliographic, chemical, 
# crystal, experimental, refinement or atomic coordinate data resulting 
# from the CCDC's data processing and validation procedures.
#
#######################################################################

data_UGAVOO
_symmetry_cell_setting           orthorhombic
_symmetry_space_group_name_H-M   'P c a 21'
_symmetry_Int_Tables_number      29
_space_group_name_Hall           'P 2c -2ac'
loop_
_symmetry_equiv_pos_site_id
_symmetry_equiv_pos_as_xyz
1 x,y,z
2 -x,-y,1/2+z
3 1/2-x,y,1/2+z
4 1/2+x,-y,z
_cell_length_a                   7.6166(15)
_cell_length_b                   11.083(2)
_cell_length_c                   21.141(4)
_cell_angle_alpha                90
_cell_angle_beta                 90
_cell_angle_gamma                90
_cell_volume                     1784.61
loop_
_atom_site_label
_atom_site_type_symbol
_atom_site_fract_x
_atom_site_fract_y
_atom_site_fract_z
C1 C 0.8626(17) 0.0331(12) 0.0624(6)
C2 C 0.9348(14) 0.0112(10) -0.0066(6)
C3 C 0.9655(17) -0.0950(10) -0.0300(5)
H1 H 0.9449 -0.1635 -0.0057
C4 C 1.0295(16) -0.1061(11) -0.0918(6)
H2 H 1.0518 -0.1818 -0.1091
C5 C 1.0589(17) -0.0022(9) -0.1266(6)
C6 C 1.0363(14) 0.1085(10) -0.0959(5)
H3 H 1.0696 0.1788 -0.1167
C7 C 1.1289(16) -0.0039(9) -0.1917(7)
C8 C 0.8940(15) 0.4718(12) 0.1438(6)
C9 C 0.8296(14) 0.4777(12) 0.2095(6)
C10 C 0.7949(16) 0.5934(11) 0.2394(6)
H4 H 0.8195 0.6652 0.2184
C11 C 0.7255(14) 0.5946(10) 0.2990(5)
H5 H 0.7045 0.6673 0.3196
C12 C 0.6875(13) 0.4882(8) 0.3278(5)
C13 C 0.7285(13) 0.3838(10) 0.2997(4)
H6 H 0.7115 0.3130 0.3225
C14 C 0.6031(15) 0.4823(12) 0.3958(6)
C15 C 1.3179(12) 0.1986(7) 0.1886(12)
C16 C 1.4005(12) 0.3078(7) 0.0170(14)
H7 H 1.4541 0.3106 0.0581
H8 H 1.4537 0.3673 -0.0098
H9 H 1.4170 0.2291 -0.0010
Cd1 Cd 0.91920(8) 0.30145(5) 0.01747(3)
Cd2 Cd 0.83914(10) 0.19645(6) 0.18768(3)
H10 H 1.171(13) 0.403(5) 0.012(5)
N1 N 0.9674(13) 0.1174(8) -0.0366(4)
N2 N 0.7923(12) 0.3746(8) 0.2412(4)
O1 O 0.8442(12) 0.1366(10) 0.0813(5)
O2 O 0.8298(11) -0.0650(11) 0.0910(5)
O3 O 1.1606(12) 0.0903(9) -0.2207(6)
O4 O 1.1615(11) -0.1066(9) -0.2157(5)
O5 O 0.9137(10) 0.3661(10) 0.1211(5)
O6 O 0.9281(12) 0.5619(11) 0.1149(6)
O7 O 0.5781(11) 0.3794(10) 0.4177(5)
O8 O 0.5811(10) 0.5863(10) 0.4215(5)
O9 O 1.1221(10) 0.1329(9) 0.1874(6)
O10 O 1.2093(10) 0.3331(6) 0.0230(5)
O11 O 0.5513(10) 0.1692(9) 0.1819(5)
O12 O 0.6477(7) 0.3709(7) 0.0186(5)
Cd1B Cd 0.58080(8) 0.30145(5) 0.51747(3)
Cd2A Cd 1.16086(10) -0.19645(6) -0.31232(3)
O4A O 0.8385(11) 0.1066(9) 0.2843(5)
O7B O 0.9219(11) 0.3794(10) -0.0823(5)
O13 O 0.6584(10) 0.1993(5) 0.3510(3)
loop_
_geom_bond_atom_site_label_1
_geom_bond_atom_site_label_2
_geom_bond_site_symmetry_1
_geom_bond_site_symmetry_2
C1 C2 1_555 1_555
C2 C3 1_555 1_555
C3 H1 1_555 1_555
C4 C3 1_555 1_555
H2 C4 1_555 1_555
C5 C4 1_555 1_555
C6 C5 1_555 1_555
H3 C6 1_555 1_555
C7 C5 1_555 1_555
C8 C9 1_555 1_555
C9 C10 1_555 1_555
C10 H4 1_555 1_555
C11 C10 1_555 1_555
H5 C11 1_555 1_555
C12 C11 1_555 1_555
C13 C12 1_555 1_555
H6 C13 1_555 1_555
C14 C12 1_555 1_555
C15 O9 1_555 1_555
C16 H7 1_555 1_555
H8 C16 1_555 1_555
H9 C16 1_555 1_555
Cd1 N1 1_555 1_555
Cd2 N2 1_555 1_555
H10 O10 1_555 1_555
N1 C2 1_555 1_555
N2 C9 1_555 1_555
O1 C1 1_555 1_555
O2 C1 1_555 1_555
O3 C7 1_555 1_555
O4 C7 1_555 1_555
O5 C8 1_555 1_555
O6 C8 1_555 1_555
O7 C14 1_555 1_555
O8 C14 1_555 1_555
O9 Cd2 1_555 1_555
O10 C16 1_555 1_555
O11 Cd2 1_555 1_555
O12 Cd1 1_555 1_555
Cd1B O7 1_555 1_555
Cd2A O4 1_555 1_555
O4A Cd2 1_555 1_555
O7B Cd1 1_555 1_555
C6 N1 1_555 1_555
C13 N2 1_555 1_555
Cd1 O1 1_555 1_555
Cd1 O5 1_555 1_555
Cd1 O10 1_555 1_555
Cd2 O1 1_555 1_555
Cd2 O5 1_555 1_555

#END
