
#######################################################################
#
#                 Cambridge Crystallographic Data Centre
#                                CCDC 
#
#######################################################################
#
# If this CIF has been generated from an entry in the Cambridge 
# Structural Database, then it will include bibliographic, chemical, 
# crystal, experimental, refinement or atomic coordinate data resulting 
# from the CCDC's data processing and validation procedures.
#
#######################################################################

data_UGAWEF
_symmetry_cell_setting           triclinic
_symmetry_space_group_name_H-M   'P -1'
_symmetry_Int_Tables_number      2
_space_group_name_Hall           '-P 1'
loop_
_symmetry_equiv_pos_site_id
_symmetry_equiv_pos_as_xyz
1 x,y,z
2 -x,-y,-z
_cell_length_a                   13.6290(10)
_cell_length_b                   14.3990(10)
_cell_length_c                   14.4181(10)
_cell_angle_alpha                73.7210(10)
_cell_angle_beta                 86.5670(10)
_cell_angle_gamma                62.3100(10)
_cell_volume                     2396.71
loop_
_atom_site_label
_atom_site_type_symbol
_atom_site_fract_x
_atom_site_fract_y
_atom_site_fract_z
O1 O 0.9205(5) 0.4241(5) 0.4315(4)
O3 O 1.1108(6) 0.4450(5) 0.7558(4)
O5 O 1.3279(5) 0.0446(5) 1.0594(4)
O7 O 1.1288(5) 0.3558(5) 0.4520(4)
O9 O 1.4545(5) 0.1047(5) 0.9352(4)
O10 O 1.2202(5) 0.2571(6) 0.9391(5)
O11 O 1.2450(5) 0.3626(5) 0.5984(5)
O12 O 1.3977(5) 0.2768(5) 1.0007(5)
O13 O 1.6133(5) 0.1350(5) 1.0050(5)
O14 O 1.4260(6) 0.1343(6) 0.7282(5)
O15 O 1.4832(5) 0.0645(5) 1.1282(4)
O16 O 1.2886(5) 0.0626(5) 0.8662(5)
O17 O 1.5786(5) 0.1687(5) 0.8164(5)
O18 O 1.0123(5) 0.4277(5) 0.5905(4)
O19 O 0.8900(6) 0.4949(5) 0.7316(5)
O20 O 0.9396(6) 0.2799(5) 0.6150(5)
O21 O 0.9526(6) 0.6562(6) 0.7180(5)
O22 O 0.7932(5) 0.4920(5) 0.5777(5)
O23 O 1.2565(6) 0.2301(6) 1.1298(5)
O24 O 1.0625(6) 0.1911(5) 0.4718(5)
O26 O 1.6471(6) -0.0016(6) 0.7322(5)
O27 O 1.5330(7) 0.3503(6) 0.8795(7)
O28 O 1.0258(7) 0.2754(6) 0.7819(5)
O34 O 0.8018(7) 0.3463(7) 0.7634(5)
O36 O 1.3683(6) 0.3316(6) 0.8033(5)
O37 O 1.1693(6) 0.1933(5) 0.6227(5)
Na1 Na 1.2275(3) 0.2517(3) 0.7636(3)
Mo1 Mo 1.05940(7) 0.27428(6) 0.53820(5)
Mo2 Mo 0.99627(6) 0.54207(6) 0.68011(5)
Mo3 Mo 1.32184(6) 0.19051(6) 1.03229(6)
Mo4 Mo 1.54534(6) 0.05806(6) 0.80336(5)
Mo5 Mo 1.47939(7) 0.26307(6) 0.88802(6)
Mo6 Mo 0.90896(7) 0.36350(7) 0.70598(6)
Mo7 Mo 1.14515(8) 0.45192(8) 0.51332(7)
Mo8 Mo 1.39274(8) -0.01336(8) 0.95055(7)
O1A O 1.0795(5) 0.5759(5) 0.5685(4)
O5A O 1.6721(5) -0.0446(5) 0.9406(4)
O7A O 0.8712(5) 0.6442(5) 0.5480(4)
O9A O 1.5455(5) -0.1047(5) 1.0648(4)
O13A O 1.3867(5) -0.1350(5) 0.9950(5)
O15A O 1.5168(5) -0.0645(5) 0.8718(4)
O18A O 0.9877(5) 0.5723(5) 0.4095(4)
O22A O 1.2068(5) 0.5080(5) 0.4223(5)
Mo2A Mo 1.00373(6) 0.45793(6) 0.31989(5)
Mo4A Mo 1.45466(6) -0.05806(6) 1.19664(5)
Mo7A Mo 0.85485(8) 0.54808(8) 0.48668(7)
Mo8A Mo 1.60726(8) 0.01336(8) 1.04945(7)
O2 O 0.4135(11) 0.1233(10) 0.5346(7)
O4 O 0.7098(9) 0.9682(9) 0.5420(7)
O6 O 0.2592(7) 0.6939(8) 0.0435(6)
O8 O 0.8795(6) 0.8500(6) 0.7557(5)
O25 O 1.1437(6) 0.8342(6) 0.8836(6)
O29 O 0.8799(7) 0.9551(7) 0.9148(6)
O33 O 1.0922(7) 0.7856(7) 0.6814(6)
C7 C 0.9971(10) 0.9847(10) 0.6392(8)
C8 C 1.0959(11) 0.8827(12) 0.6284(8)
C9 C 1.0768(9) 1.0093(9) 0.7730(9)
C10 C 1.1230(9) 0.9440(9) 0.8768(9)
C11 C 0.8710(10) 1.0730(9) 0.7552(10)
C12 C 0.8514(10) 1.0683(10) 0.8587(11)
C13 C 1.1128(12) 0.5974(10) 0.8896(12)
C14 C 1.0742(17) 0.572(2) 1.0507(13)
C15 C 1.0302(13) 0.6681(15) 1.0068(10)
N2 N 0.9880(7) 0.9864(7) 0.7433(6)
N3 N 1.0523(8) 0.6911(7) 0.9136(6)
N5 N 1.1289(18) 0.5152(12) 0.978(2)
Cu1 Cu 1.01070(10) 0.83793(9) 0.82814(8)
O30 O 0.4035(7) 0.2816(8) 0.3904(7)
O31 O 0.6526(7) 0.1310(7) 0.3692(6)
O32 O 0.6192(10) 0.3828(9) 0.2857(7)
C1 C 0.3748(10) 0.3433(10) 0.2183(9)
C2 C 0.3466(10) 0.2806(11) 0.3089(10)
C3 C 0.5710(11) 0.1995(9) 0.2089(9)
C4 C 0.6049(10) 0.1045(9) 0.3003(9)
C5 C 0.5176(11) 0.3945(11) 0.1530(9)
C6 C 0.6276(11) 0.3866(10) 0.1867(9)
C16 C 0.6574(14) 0.3093(14) 0.5213(13)
C17 C 0.5147(15) 0.3757(15) 0.6135(11)
C18 C 0.4802(17) 0.3610(17) 0.5393(13)
N1 N 0.4972(8) 0.3097(7) 0.2246(7)
N4 N 0.5602(10) 0.3209(10) 0.4818(7)
N6 N 0.631(2) 0.3384(14) 0.6074(12)
Cu2 Cu 0.53548(12) 0.30768(12) 0.35663(10)
O35 O 0.2750(8) 0.5336(7) 0.6667(7)
loop_
_geom_bond_atom_site_label_1
_geom_bond_atom_site_label_2
_geom_bond_site_symmetry_1
_geom_bond_site_symmetry_2
O1 Mo1 1_555 1_555
O3 Na1 1_555 1_555
O5 Mo3 1_555 1_555
O7 Mo1 1_555 1_555
O8 Cu1 1_555 1_555
O9 Mo3 1_555 1_555
O10 Na1 1_555 1_555
O11 Na1 1_555 1_555
O12 Mo3 1_555 1_555
O13 Mo5 1_555 1_555
O14 Na1 1_555 1_555
O15 Mo3 1_555 1_555
O16 Na1 1_555 1_555
O17 Mo4 1_555 1_555
O18 Mo1 1_555 1_555
O19 Mo2 1_555 1_555
O20 Mo1 1_555 1_555
O21 Mo2 1_555 1_555
O22 Mo6 1_555 1_555
O23 Mo3 1_555 1_555
O24 Mo1 1_555 1_555
O25 C10 1_555 1_555
O26 Mo4 1_555 1_555
O27 Mo5 1_555 1_555
O28 Na1 1_555 1_555
O29 C12 1_555 1_555
O30 C2 1_555 1_555
O31 C4 1_555 1_555
O32 C6 1_555 1_555
O33 C8 1_555 1_555
O34 Mo6 1_555 1_555
O36 Na1 1_555 1_555
O37 Na1 1_555 1_555
C1 C2 1_555 1_555
C3 C4 1_555 1_555
C5 C6 1_555 1_555
C7 C8 1_555 1_555
C9 C10 1_555 1_555
C11 C12 1_555 1_555
C13 N3 1_555 1_555
C14 C15 1_555 1_555
C15 N3 1_555 1_555
C16 N4 1_555 1_555
C17 C18 1_555 1_555
C18 N4 1_555 1_555
N1 C1 1_555 1_555
N2 C7 1_555 1_555
N3 Cu1 1_555 1_555
N4 Cu2 1_555 1_555
N5 C13 1_555 1_555
N6 C16 1_555 1_555
Mo1 O37 1_555 1_555
Mo2 O3 1_555 1_555
Mo3 O10 1_555 1_555
Mo4 O9 1_555 1_555
Mo5 O9 1_555 1_555
Mo6 O18 1_555 1_555
Mo7 O7 1_555 1_555
Mo8 O5 1_555 1_555
Cu1 O25 1_555 1_555
Cu2 O30 1_555 1_555
O1A Mo2 1_555 1_555
O5A Mo4 1_555 1_555
O7A Mo2 1_555 1_555
O9A Mo8 1_555 1_555
O13A Mo8 1_555 1_555
O15A Mo4 1_555 1_555
O18A Mo7 1_555 1_555
O22A Mo7 1_555 1_555
Mo2A O1 1_555 1_555
Mo4A O5 1_555 1_555
Mo7A O1 1_555 1_555
Mo8A O9 1_555 1_555
O7 Mo2A 1_555 1_555
O9 Mo8 1_555 1_555
O11 Mo7 1_555 1_555
O12 Mo5 1_555 1_555
O13 Mo8A 1_555 1_555
O14 Mo4 1_555 1_555
O15 Mo4A 1_555 1_555
O15 Mo8A 1_555 1_555
O16 Mo8 1_555 1_555
O17 Mo5 1_555 1_555
O18 Mo2 1_555 1_555
O18 Mo7 1_555 1_555
O18 Mo7A 1_555 1_555
O19 Mo6 1_555 1_555
O20 Mo6 1_555 1_555
O22 Mo7A 1_555 1_555
O28 Mo6 1_555 1_555
O29 Cu1 1_555 1_555
O31 Cu2 1_555 1_555
O32 Cu2 1_555 1_555
O33 Cu1 1_555 1_555
O36 Mo5 1_555 1_555
C3 N1 1_555 1_555
C5 N1 1_555 1_555
C9 N2 1_555 1_555
C11 N2 1_555 1_555
C14 N5 1_555 1_555
C17 N6 1_555 1_555
N1 Cu2 1_555 1_555
N2 Cu1 1_555 1_555
Mo7 O1A 1_555 1_555
Mo8 O15A 1_555 1_555
O5A Mo8A 1_555 1_555
O7A Mo7A 1_555 1_555
O9A Mo4A 1_555 1_555
O9A Mo8A 1_555 1_555
O18A Mo2A 1_555 1_555
O18A Mo7A 1_555 1_555

#END
