
#######################################################################
#
#                 Cambridge Crystallographic Data Centre
#                                CCDC 
#
#######################################################################
#
# If this CIF has been generated from an entry in the Cambridge 
# Structural Database, then it will include bibliographic, chemical, 
# crystal, experimental, refinement or atomic coordinate data resulting 
# from the CCDC's data processing and validation procedures.
#
#######################################################################

data_UGECEO01
_symmetry_cell_setting           monoclinic
_symmetry_space_group_name_H-M   'C 2/m'
_symmetry_Int_Tables_number      12
_space_group_name_Hall           '-C 2y'
loop_
_symmetry_equiv_pos_site_id
_symmetry_equiv_pos_as_xyz
1 x,y,z
2 1/2+x,1/2+y,z
3 -x,y,-z
4 1/2-x,1/2+y,-z
5 -x,-y,-z
6 1/2-x,1/2-y,-z
7 x,-y,z
8 1/2+x,1/2-y,z
_cell_length_a                   6.1269(12)
_cell_length_b                   17.476(3)
_cell_length_c                   4.5541(9)
_cell_angle_alpha                90
_cell_angle_beta                 115.531(3)
_cell_angle_gamma                90
_cell_volume                     440.009
loop_
_atom_site_label
_atom_site_type_symbol
_atom_site_fract_x
_atom_site_fract_y
_atom_site_fract_z
Co1 Co 0.0000 0.21029(3) 0.5000
O1 O 0.2396(4) 0.29996(12) 0.7108(5)
O2 O 0.2938(4) 0.36611(12) 1.1573(5)
C1 C 0.2130(5) 0.35962(17) 0.8544(7)
C2 C 0.0909(5) 0.43015(17) 0.6608(7)
C3 C 0.1758(8) 0.5000 0.8147(10)
H1 H 0.303(10) 0.5000 1.036(14)
C2B C -0.0909(5) 0.43015(17) 0.3392(7)
C1B C -0.2130(5) 0.35962(17) 0.1456(7)
O1B O -0.2396(4) 0.29996(12) 0.2892(5)
O2B O -0.2938(4) 0.36611(12) -0.1573(5)
C3B C -0.1758(8) 0.5000 0.1853(10)
C2D C -0.0909(5) 0.56985(17) 0.3392(7)
C1D C -0.2130(5) 0.64038(17) 0.1456(7)
O1D O -0.2396(4) 0.70004(12) 0.2892(5)
O2D O -0.2938(4) 0.63389(12) -0.1573(5)
C2F C 0.0909(5) 0.56985(17) 0.6608(7)
C1F C 0.2130(5) 0.64038(17) 0.8544(7)
O1F O 0.2396(4) 0.70004(12) 0.7108(5)
O2F O 0.2938(4) 0.63389(12) 1.1573(5)
H1B H -0.303(10) 0.5000 -0.036(14)
Co1D Co 0.0000 0.78971(3) 0.5000
O1G O -0.2604(4) 0.20004(12) 0.7108(5)
O1E O 0.2604(4) 0.20004(12) 0.2892(5)
O2G O -0.2062(4) 0.13389(12) 0.1573(5)
O2E O 0.2062(4) 0.13389(12) 0.8427(5)
Co1G Co 0.5000 0.28971(3) 0.5000
Co1G_2 Co 0.5000 0.28971(3) 1.5000
Co1G_3 Co -0.5000 0.28971(3) 0.5000
Co1G_4 Co -0.5000 0.28971(3) -0.5000
Co1A Co -0.5000 0.71029(3) 0.5000
Co1A_2 Co -0.5000 0.71029(3) -0.5000
Co1A_3 Co 0.5000 0.71029(3) 0.5000
Co1A_4 Co 0.5000 0.71029(3) 1.5000
O1A O -0.2604(4) 0.79996(12) 0.7108(5)
O1C O 0.2604(4) 0.79996(12) 0.2892(5)
O2A O -0.2062(4) 0.86611(12) 0.1573(5)
O2C O 0.2062(4) 0.86611(12) 0.8427(5)
loop_
_geom_bond_atom_site_label_1
_geom_bond_atom_site_label_2
_geom_bond_site_symmetry_1
_geom_bond_site_symmetry_2
Co1 O1 1_555 1_555
O1 C1 1_555 1_555
O2 C1 1_555 1_555
C1 C2 1_555 1_555
C2 C3 1_555 1_555
C3 H1 1_555 1_555
C2B C2 1_555 1_555
C1B C2B 1_555 1_555
O1B Co1 1_555 1_555
O2B C1B 1_555 1_555
C3B C2B 1_555 1_555
C2D C3B 1_555 1_555
C1D C2D 1_555 1_555
O1D C1D 1_555 1_555
O2D C1D 1_555 1_555
C2F C3 1_555 1_555
C1F C2F 1_555 1_555
O1F C1F 1_555 1_555
O2F C1F 1_555 1_555
H1B C3B 1_555 1_555
Co1D O1D 1_555 1_555
O1G Co1 1_555 1_555
O1E Co1 1_555 1_555
O2G Co1 1_555 1_555
O2E Co1 1_555 1_555
Co1G O1 1_555 1_555
Co1G_2 O2 1_555 1_555
Co1G_3 O1B 1_555 1_555
Co1G_4 O2B 1_555 1_555
Co1A O1D 1_555 1_555
Co1A_2 O2D 1_555 1_555
Co1A_3 O1F 1_555 1_555
Co1A_4 O2F 1_555 1_555
O1A Co1D 1_555 1_555
O1C Co1D 1_555 1_555
O2A Co1D 1_555 1_555
O2C Co1D 1_555 1_555
C1B O1B 1_555 1_555
C2D C2F 1_555 1_555
O1F Co1D 1_555 1_555
O1G Co1G_3 1_555 1_555
O1E Co1G 1_555 1_555
Co1A O1A 1_555 1_555
Co1A_3 O1C 1_555 1_555

#END
