
#######################################################################
#
#                 Cambridge Crystallographic Data Centre
#                                CCDC 
#
#######################################################################
#
# If this CIF has been generated from an entry in the Cambridge 
# Structural Database, then it will include bibliographic, chemical, 
# crystal, experimental, refinement or atomic coordinate data resulting 
# from the CCDC's data processing and validation procedures.
#
#######################################################################

data_UGECEO
_symmetry_cell_setting           monoclinic
_symmetry_space_group_name_H-M   'C 2/m'
_symmetry_Int_Tables_number      12
_space_group_name_Hall           '-C 2y'
loop_
_symmetry_equiv_pos_site_id
_symmetry_equiv_pos_as_xyz
1 x,y,z
2 1/2+x,1/2+y,z
3 -x,y,-z
4 1/2-x,1/2+y,-z
5 -x,-y,-z
6 1/2-x,1/2-y,-z
7 x,-y,z
8 1/2+x,1/2-y,z
_cell_length_a                   6.1609(14)
_cell_length_b                   17.478(4)
_cell_length_c                   4.5536(11)
_cell_angle_alpha                90
_cell_angle_beta                 115.735(4)
_cell_angle_gamma                90
_cell_volume                     441.697
loop_
_atom_site_label
_atom_site_type_symbol
_atom_site_fract_x
_atom_site_fract_y
_atom_site_fract_z
Co1 Co 0.0000 0.28969(4) 0.0000
O1 O 0.2607(5) 0.30035(14) -0.2105(6)
O2 O 0.2047(5) 0.3659(2) -0.6576(6)
C1 C 0.2881(7) 0.3597(2) -0.3530(9)
C2 C 0.4080(7) 0.4301(2) -0.1618(8)
C3 C 0.3252(9) 0.5000 -0.3121(13)
H1 H 0.209(15) 0.5000 -0.514(18)
C2B C 0.5920(7) 0.4301(2) 0.1618(8)
C1B C 0.7119(7) 0.3597(2) 0.3530(9)
O1B O 0.7393(5) 0.30035(14) 0.2105(6)
O2B O 0.7953(5) 0.3659(2) 0.6576(6)
C3B C 0.6748(9) 0.5000 0.3121(13)
C2D C 0.5920(7) 0.5699(2) 0.1618(8)
C1D C 0.7119(7) 0.6403(2) 0.3530(9)
O1D O 0.7393(5) 0.69965(14) 0.2105(6)
O2D O 0.7953(5) 0.6341(2) 0.6576(6)
C2F C 0.4080(7) 0.5699(2) -0.1618(8)
C1F C 0.2881(7) 0.6403(2) -0.3530(9)
O1F O 0.2607(5) 0.69965(14) -0.2105(6)
O2F O 0.2047(5) 0.6341(2) -0.6576(6)
H1B H 0.791(15) 0.5000 0.514(18)
Co1B Co 1.0000 0.28969(4) 0.0000
O1G O -0.2393(5) 0.19965(14) -0.2105(6)
O1E O 0.2393(5) 0.19965(14) 0.2105(6)
O1B_2 O -0.2607(5) 0.30035(14) 0.2105(6)
O2_2 O 0.2047(5) 0.3659(2) 0.3424(6)
O2B_2 O -0.2047(5) 0.3659(2) -0.3424(6)
Co1G Co 0.5000 0.21031(4) 0.0000
Co1_2 Co 0.0000 0.28969(4) -1.0000
Co1_3 Co 1.0000 0.28969(4) 1.0000
Co1A Co 0.5000 0.78969(4) 0.0000
Co1F Co 1.0000 0.71031(4) 0.0000
Co1F_2 Co 1.0000 0.71031(4) 1.0000
Co1F_3 Co 0.0000 0.71031(4) 0.0000
Co1F_4 Co 0.0000 0.71031(4) -1.0000
O1_2 O 1.2607(5) 0.30035(14) -0.2105(6)
O1G_2 O 0.7607(5) 0.19965(14) -0.2105(6)
O1E_2 O 1.2393(5) 0.19965(14) 0.2105(6)
O2_3 O 1.2047(5) 0.3659(2) 0.3424(6)
O2B_3 O 0.7953(5) 0.3659(2) -0.3424(6)
loop_
_geom_bond_atom_site_label_1
_geom_bond_atom_site_label_2
_geom_bond_site_symmetry_1
_geom_bond_site_symmetry_2
Co1 O1 1_555 1_555
O1 C1 1_555 1_555
O2 C1 1_555 1_555
C1 C2 1_555 1_555
C2 C3 1_555 1_555
C3 H1 1_555 1_555
C2B C2 1_555 1_555
C1B C2B 1_555 1_555
O1B C1B 1_555 1_555
O2B C1B 1_555 1_555
C3B C2B 1_555 1_555
C2D C3B 1_555 1_555
C1D C2D 1_555 1_555
O1D C1D 1_555 1_555
O2D C1D 1_555 1_555
C2F C3 1_555 1_555
C1F C2F 1_555 1_555
O1F C1F 1_555 1_555
O2F C1F 1_555 1_555
H1B C3B 1_555 1_555
Co1B O1B 1_555 1_555
O1G Co1 1_555 1_555
O1E Co1 1_555 1_555
O1B_2 Co1 1_555 1_555
O2_2 Co1 1_555 1_555
O2B_2 Co1 1_555 1_555
Co1G O1 1_555 1_555
Co1_2 O2 1_555 1_555
Co1_3 O2B 1_555 1_555
Co1A O1D 1_555 1_555
Co1F O1D 1_555 1_555
Co1F_2 O2D 1_555 1_555
Co1F_3 O1F 1_555 1_555
Co1F_4 O2F 1_555 1_555
O1_2 Co1B 1_555 1_555
O1G_2 Co1B 1_555 1_555
O1E_2 Co1B 1_555 1_555
O2_3 Co1B 1_555 1_555
O2B_3 Co1B 1_555 1_555
O1B Co1G 1_555 1_555
C2D C2F 1_555 1_555
O1F Co1A 1_555 1_555
O1E Co1G 1_555 1_555
Co1G O1G_2 1_555 1_555

#END
