
#######################################################################
#
#                 Cambridge Crystallographic Data Centre
#                                CCDC 
#
#######################################################################
#
# If this CIF has been generated from an entry in the Cambridge 
# Structural Database, then it will include bibliographic, chemical, 
# crystal, experimental, refinement or atomic coordinate data resulting 
# from the CCDC's data processing and validation procedures.
#
#######################################################################

data_UGEKUM
_symmetry_cell_setting           monoclinic
_symmetry_space_group_name_H-M   'P 21/n'
_symmetry_Int_Tables_number      14
_space_group_name_Hall           '-P 2yn'
loop_
_symmetry_equiv_pos_site_id
_symmetry_equiv_pos_as_xyz
1 x,y,z
2 1/2+x,1/2-y,1/2+z
3 -x,-y,-z
4 1/2-x,1/2+y,1/2-z
_cell_length_a                   8.905(2)
_cell_length_b                   6.404(2)
_cell_length_c                   15.355(1)
_cell_angle_alpha                90
_cell_angle_beta                 97.86(1)
_cell_angle_gamma                90
_cell_volume                     867.432
loop_
_atom_site_label
_atom_site_type_symbol
_atom_site_fract_x
_atom_site_fract_y
_atom_site_fract_z
Ag1 Ag -0.35555(4) 0.24798(7) -0.07520(2)
Ag2 Ag 0.32765(4) 0.36505(7) 0.26256(2)
O1 O 0.6574(4) 0.2662(8) 0.2318(2)
O2 O 0.5424(3) 0.3745(6) 0.3435(2)
O3 O 0.1075(4) 0.3955(7) 0.1920(2)
O4 O 0.1694(4) 0.2339(6) 0.0728(2)
N1 N -0.1329(4) 0.2080(6) -0.0028(3)
N2 N 0.9389(4) 0.2551(7) 0.3336(3)
C1 C 0.8044(5) 0.3129(8) 0.3723(3)
C2 C 0.6571(5) 0.3150(7) 0.3087(3)
C3 C 0.0773(5) 0.3169(7) 0.1156(3)
C4 C -0.0879(5) 0.3372(7) 0.0757(3)
H1 H -0.0586 0.2212 -0.0411
H2 H 0.9232 0.1195 0.3091
H3 H 0.9507 0.3523 0.2882
H4 H 0.8200 0.4500 0.3964
H5 H 0.7933 0.2175 0.4181
H6 H -0.1498 0.3420 0.1213
H7 H -0.1012 0.4614 0.0418
H8 H -0.1254 0.0702 0.0227
N2A N -0.5611(4) 0.2449(7) -0.1664(3)
Ag1A Ag 1.14445(4) 0.25202(7) 0.42480(2)
H2A H -0.5768 0.3805 -0.1909
H3A H -0.5493 0.1477 -0.2118
O5 O -0.5168(5) 0.2688(8) 0.0690(3)
loop_
_geom_bond_atom_site_label_1
_geom_bond_atom_site_label_2
_geom_bond_site_symmetry_1
_geom_bond_site_symmetry_2
Ag1 N1 1_555 1_555
Ag2 O2 1_555 1_555
O1 C2 1_555 1_555
O2 C2 1_555 1_555
O3 Ag2 1_555 1_555
O4 C3 1_555 1_555
N1 C4 1_555 1_555
N2 C1 1_555 1_555
C1 C2 1_555 1_555
C3 O3 1_555 1_555
C4 C3 1_555 1_555
H1 N1 1_555 1_555
H2 N2 1_555 1_555
H3 N2 1_555 1_555
H4 C1 1_555 1_555
H5 C1 1_555 1_555
H6 C4 1_555 1_555
H7 C4 1_555 1_555
H8 N1 1_555 1_555
N2A Ag1 1_555 1_555
Ag1A N2 1_555 1_555
H2A N2A 1_555 1_555
H3A N2A 1_555 1_555

#END
