
#######################################################################
#
#                 Cambridge Crystallographic Data Centre
#                                CCDC 
#
#######################################################################
#
# If this CIF has been generated from an entry in the Cambridge 
# Structural Database, then it will include bibliographic, chemical, 
# crystal, experimental, refinement or atomic coordinate data resulting 
# from the CCDC's data processing and validation procedures.
#
#######################################################################

data_UGEMUQ
_symmetry_cell_setting           monoclinic
_symmetry_space_group_name_H-M   'P 21/c'
_symmetry_Int_Tables_number      14
_space_group_name_Hall           '-P 2ybc'
loop_
_symmetry_equiv_pos_site_id
_symmetry_equiv_pos_as_xyz
1 x,y,z
2 -x,1/2+y,1/2-z
3 -x,-y,-z
4 x,1/2-y,1/2+z
_cell_length_a                   12.2891(5)
_cell_length_b                   10.3566(4)
_cell_length_c                   9.3372(3)
_cell_angle_alpha                90
_cell_angle_beta                 105.211(4)
_cell_angle_gamma                90
_cell_volume                     1146.74
loop_
_atom_site_label
_atom_site_type_symbol
_atom_site_fract_x
_atom_site_fract_y
_atom_site_fract_z
C1 C 0.8911(3) 0.3562(4) 0.3673(3)
C2 C 0.8612(3) 0.4756(4) 0.4123(4)
H1 H 0.8955 0.5500 0.3894
C3 C 0.7801(3) 0.4847(5) 0.4914(4)
H2 H 0.7600 0.5644 0.5225
C4 C 0.7302(3) 0.3726(5) 0.5226(4)
C5 C 0.7588(3) 0.2529(4) 0.4804(4)
H3 H 0.7239 0.1789 0.5034
C6 C 0.8404(3) 0.2443(4) 0.4031(3)
H4 H 0.8616 0.1639 0.3750
C7 C 0.9758(3) 0.3463(3) 0.2823(3)
C8 C 0.6639(4) 0.6100(6) 0.1132(5)
C9 C 0.5754(6) 0.6470(8) 0.1835(8)
H5 H 0.5357 0.5712 0.2010
H6 H 0.5236 0.7049 0.1195
H7 H 0.6086 0.6891 0.2762
Cu1 Cu 0.90126(4) 0.58565(4) 0.07626(4)
N1 N 0.9865(2) 0.4307(3) 0.1770(3)
N2 N 1.0718(2) 0.3826(3) 0.1259(3)
N3 N 1.1112(2) 0.2773(3) 0.1972(3)
N4 N 1.0519(2) 0.2515(3) 0.2965(3)
N5 N 0.6420(3) 0.3811(5) 0.6034(4)
N6 N 0.7349(3) 0.5853(4) 0.0683(4)
O1 O 0.5947(3) 0.2821(4) 0.6240(4)
O2 O 0.6213(4) 0.4879(5) 0.6456(5)
Cu1A Cu 1.09874(4) 0.08565(4) 0.42374(4)
Cu1B Cu 1.09874(4) 0.41435(4) -0.07626(4)
N2B N 0.9282(2) 0.6174(3) -0.1259(3)
N4A N 0.9481(2) 0.7515(3) 0.2035(3)
loop_
_geom_bond_atom_site_label_1
_geom_bond_atom_site_label_2
_geom_bond_site_symmetry_1
_geom_bond_site_symmetry_2
C1 C2 1_555 1_555
C2 H1 1_555 1_555
C3 C2 1_555 1_555
H2 C3 1_555 1_555
C4 C3 1_555 1_555
C5 C4 1_555 1_555
H3 C5 1_555 1_555
C6 C1 1_555 1_555
H4 C6 1_555 1_555
C7 C1 1_555 1_555
C8 C9 1_555 1_555
C9 H5 1_555 1_555
H6 C9 1_555 1_555
H7 C9 1_555 1_555
Cu1 N1 1_555 1_555
N1 C7 1_555 1_555
N2 N1 1_555 1_555
N3 N2 1_555 1_555
N4 C7 1_555 1_555
N5 C4 1_555 1_555
N6 C8 1_555 1_555
O1 N5 1_555 1_555
O2 N5 1_555 1_555
Cu1A N4 1_555 1_555
Cu1B N2 1_555 1_555
N2B Cu1 1_555 1_555
N4A Cu1 1_555 1_555
C5 C6 1_555 1_555
Cu1 N6 1_555 1_555
N3 N4 1_555 1_555

#END
