
#######################################################################
#
#                 Cambridge Crystallographic Data Centre
#                                CCDC 
#
#######################################################################
#
# If this CIF has been generated from an entry in the Cambridge 
# Structural Database, then it will include bibliographic, chemical, 
# crystal, experimental, refinement or atomic coordinate data resulting 
# from the CCDC's data processing and validation procedures.
#
#######################################################################

data_UGEMAV
_symmetry_cell_setting           monoclinic
_symmetry_space_group_name_H-M   'P 21/n'
_symmetry_Int_Tables_number      14
_space_group_name_Hall           '-P 2yn'
loop_
_symmetry_equiv_pos_site_id
_symmetry_equiv_pos_as_xyz
1 x,y,z
2 1/2-x,1/2+y,1/2-z
3 -x,-y,-z
4 1/2+x,1/2-y,1/2+z
_cell_length_a                   10.347(2)
_cell_length_b                   8.9420(18)
_cell_length_c                   22.583(5)
_cell_angle_alpha                90
_cell_angle_beta                 94.503(2)
_cell_angle_gamma                90
_cell_volume                     2082.99
loop_
_atom_site_label
_atom_site_type_symbol
_atom_site_fract_x
_atom_site_fract_y
_atom_site_fract_z
O1 O 0.5328(3) -0.0583(3) 0.92291(13)
O2 O 0.2902(2) -0.0822(3) 0.97143(12)
Nd1 Nd 0.527779(15) 0.253598(18) 1.012893(7)
O3 O 0.5596(2) 0.5350(3) 1.05248(10)
O4 O 0.3166(2) 0.1676(3) 0.97000(12)
O5 O 0.3380(3) 0.3557(3) 1.07360(13)
O6 O 0.6410(3) 0.3534(3) 1.11042(11)
O7 O 0.7345(3) 0.3861(3) 0.98711(14)
C1 C 0.6241(3) 0.4890(4) 1.09921(14)
C2 C 0.6801(5) 0.6079(4) 1.14200(18)
H1 H 0.7471 0.6625 1.1234
H2 H 0.6123 0.6783 1.1500
C3 C 0.2569(3) 0.0477(4) 0.95798(15)
N1 N -0.0585(3) -0.0880(4) 0.93588(16)
O8 O 0.5745(3) 0.1833(3) 0.91099(11)
N2 N 0.0532(3) -0.0670(4) 0.91102(14)
N3 N 0.7345(4) 0.5449(4) 1.19766(14)
C4 C 0.5794(3) 0.0495(4) 0.89605(14)
C5 C 0.1282(3) 0.0707(4) 0.92029(17)
H3 H 0.0765 0.1436 0.9397
H4 H 0.1464 0.1112 0.8820
N4 N 0.7135(4) 0.1300(4) 0.81469(15)
N5 N 0.6594(5) 0.5076(7) 1.2409(2)
C6 C 0.6468(4) 0.0070(4) 0.84105(17)
H5 H 0.7090 -0.0716 0.8515
H6 H 0.5828 -0.0332 0.8116
N6 N -0.0993(3) -0.2194(4) 0.91891(18)
N7 N -0.0153(4) -0.2866(5) 0.8833(2)
C7 C 0.0788(4) -0.1879(5) 0.8792(2)
H7 H 0.1510 -0.2007 0.8577
N8 N 0.8416(5) 0.1498(7) 0.8253(2)
C8 C 0.8543(5) 0.4985(7) 1.2137(2)
H8 H 0.9254 0.5094 1.1913
N9 N 0.7621(8) 0.3294(7) 0.7675(3)
N10 N 0.8563(5) 0.4346(6) 1.2665(2)
N11 N 0.8688(8) 0.2720(8) 0.7970(3)
N12 N 0.7345(6) 0.4416(7) 1.2816(2)
C9 C 0.6681(7) 0.2395(6) 0.7796(2)
H9 H 0.5817 0.2510 0.7656
C10 C 0.3447(4) 0.4085(5) 1.13399(19)
H10 H 0.2598 0.4382 1.1438
H11 H 0.4023 0.4926 1.1382
H12 H 0.3763 0.3299 1.1602
C11 C 0.8504(4) 0.3371(6) 0.9636(2)
H13 H 0.9070 0.4209 0.9596
H14 H 0.8300 0.2923 0.9254
H15 H 0.8926 0.2647 0.9899
H16 H 0.711(5) 0.455(6) 0.978(2)
H17 H 0.284(5) 0.317(7) 1.066(3)
O1B O 0.4672(3) 0.0583(3) 1.07709(13)
O2B O 0.7098(2) 0.0822(3) 1.02857(12)
Nd1B Nd 0.472221(15) -0.253598(18) 0.987107(7)
Nd1B_2 Nd 0.472221(15) 0.746402(18) 0.987107(7)
O3B O 0.4404(2) 0.4650(3) 0.94752(10)
loop_
_geom_bond_atom_site_label_1
_geom_bond_atom_site_label_2
_geom_bond_site_symmetry_1
_geom_bond_site_symmetry_2
O1 C4 1_555 1_555
O2 C3 1_555 1_555
Nd1 O3 1_555 1_555
O3 C1 1_555 1_555
O4 Nd1 1_555 1_555
O5 Nd1 1_555 1_555
O6 Nd1 1_555 1_555
O7 Nd1 1_555 1_555
C1 O6 1_555 1_555
C2 C1 1_555 1_555
H1 C2 1_555 1_555
H2 C2 1_555 1_555
C3 O4 1_555 1_555
N1 N2 1_555 1_555
O8 Nd1 1_555 1_555
N2 C5 1_555 1_555
N3 C2 1_555 1_555
C4 O8 1_555 1_555
C5 C3 1_555 1_555
H3 C5 1_555 1_555
H4 C5 1_555 1_555
N4 C6 1_555 1_555
N5 N3 1_555 1_555
C6 C4 1_555 1_555
H5 C6 1_555 1_555
H6 C6 1_555 1_555
N6 N1 1_555 1_555
N7 N6 1_555 1_555
C7 N2 1_555 1_555
H7 C7 1_555 1_555
N8 N4 1_555 1_555
C8 N3 1_555 1_555
H8 C8 1_555 1_555
N9 N11 1_555 1_555
N10 C8 1_555 1_555
N11 N8 1_555 1_555
N12 N5 1_555 1_555
C9 N4 1_555 1_555
H9 C9 1_555 1_555
C10 O5 1_555 1_555
H10 C10 1_555 1_555
H11 C10 1_555 1_555
H12 C10 1_555 1_555
C11 O7 1_555 1_555
H13 C11 1_555 1_555
H14 C11 1_555 1_555
H15 C11 1_555 1_555
H16 O7 1_555 1_555
H17 O5 1_555 1_555
O1B Nd1 1_555 1_555
O2B Nd1 1_555 1_555
Nd1B O1 1_555 1_555
Nd1B_2 O3 1_555 1_555
O3B Nd1 1_555 1_555
O2 Nd1B 1_555 1_555
N7 C7 1_555 1_555
N9 C9 1_555 1_555
N10 N12 1_555 1_555
Nd1B_2 O3B 1_555 1_555

#END
