
#######################################################################
#
#                 Cambridge Crystallographic Data Centre
#                                CCDC 
#
#######################################################################
#
# If this CIF has been generated from an entry in the Cambridge 
# Structural Database, then it will include bibliographic, chemical, 
# crystal, experimental, refinement or atomic coordinate data resulting 
# from the CCDC's data processing and validation procedures.
#
#######################################################################

data_UGEXOU
_symmetry_cell_setting           tetragonal
_symmetry_space_group_name_H-M   'I 41/a'
_symmetry_Int_Tables_number      88
_space_group_name_Hall           '-I 4ad'
loop_
_symmetry_equiv_pos_site_id
_symmetry_equiv_pos_as_xyz
1 x,y,z
2 1/2-x,-y,1/2+z
3 3/4-y,1/4+x,1/4+z
4 3/4+y,3/4-x,3/4+z
5 1/2+x,1/2+y,1/2+z
6 -x,1/2-y,z
7 1/4-y,3/4+x,3/4+z
8 1/4+y,1/4-x,1/4+z
9 -x,-y,-z
10 1/2+x,y,1/2-z
11 1/4+y,3/4-x,3/4-z
12 1/4-y,1/4+x,1/4-z
13 1/2-x,1/2-y,1/2-z
14 x,1/2+y,-z
15 3/4+y,1/4-x,1/4-z
16 3/4-y,3/4+x,3/4-z
_cell_length_a                   15.1837(11)
_cell_length_b                   15.1837(11)
_cell_length_c                   28.146(4)
_cell_angle_alpha                90
_cell_angle_beta                 90
_cell_angle_gamma                90
_cell_volume                     6488.91
loop_
_atom_site_label
_atom_site_type_symbol
_atom_site_fract_x
_atom_site_fract_y
_atom_site_fract_z
Co1 Co 0.5000 0.2500 0.117776(17)
S1 S 0.25327(8) 0.45108(9) 0.11947(4)
N1 N 0.54556(13) 0.33770(13) 0.06289(7)
N2 N 0.91140(15) 0.30421(13) -0.07785(8)
N3 N 0.38002(16) 0.31931(16) 0.11885(8)
N4 N 0.64403(14) 0.40838(14) 0.01825(8)
C1 C 0.50657(17) 0.35925(15) 0.01917(9)
C2 C 0.3262(2) 0.3724(2) 0.11937(9)
C3 C 0.56829(18) 0.40302(16) -0.00901(9)
C4 C 0.62611(18) 0.36862(17) 0.06006(10)
C5 C 0.42256(19) 0.34314(18) 0.00207(11)
C6 C 0.4035(2) 0.37015(19) -0.04351(11)
C7 C 0.82681(19) 0.28153(18) -0.07602(11)
C8 C 0.7264(2) 0.4518(2) 0.00573(13)
C9 C 0.78945(17) 0.39580(17) -0.02191(9)
C10 C 0.9353(2) 0.3713(2) -0.05041(12)
C11 C 0.76528(19) 0.32441(19) -0.04873(11)
C12 C 0.4662(2) 0.4129(2) -0.07162(12)
C13 C 0.5495(2) 0.4303(2) -0.05508(11)
C14 C 0.8776(2) 0.4179(2) -0.02254(12)
H1 H 0.7542(17) 0.4733(17) 0.0353(10)
H2 H 0.7096(19) 0.5033(19) -0.0115(10)
H3 H 0.8073(17) 0.2351(17) -0.0966(9)
H4 H 0.4518(17) 0.4308(18) -0.1020(11)
H5 H 0.6688(15) 0.3654(15) 0.0850(8)
H6 H 0.3813(16) 0.3204(16) 0.0208(9)
H7 H 0.346(2) 0.3627(19) -0.0573(10)
H8 H 0.7080(19) 0.304(2) -0.0489(10)
H9 H 0.897(2) 0.465(2) -0.0018(11)
H10 H 0.5873(18) 0.4609(18) -0.0737(9)
H11 H 0.996(2) 0.385(3) -0.0511(12)
Co1C Co 0.0000 0.2500 -0.132224(17)
Co1C_2 Co 1.0000 0.2500 -0.132224(17)
S1E S 0.74673(8) 0.04892(9) 0.11947(4)
N1E N 0.45444(13) 0.16230(13) 0.06289(7)
N2E N 0.08860(15) 0.19579(13) -0.07785(8)
N2B N 0.44579(13) 0.16140(15) 0.17215(8)
N2G N 0.55421(13) 0.33860(15) 0.17215(8)
N3E N 0.61998(16) 0.18069(16) 0.11885(8)
N4E N 0.35597(14) 0.09162(14) 0.01825(8)
C1E C 0.49343(17) 0.14075(15) 0.01917(9)
C2E C 0.6738(2) 0.1276(2) 0.11937(9)
C3E C 0.43171(18) 0.09698(16) -0.00901(9)
C4E C 0.37389(18) 0.13138(17) 0.06006(10)
C5E C 0.57744(19) 0.15686(18) 0.00207(11)
C6E C 0.5965(2) 0.12985(19) -0.04351(11)
C7E C 0.17319(19) 0.21847(18) -0.07602(11)
C8E C 0.2736(2) 0.0482(2) 0.00573(13)
C9E C 0.21055(17) 0.10420(17) -0.02191(9)
C10E C 0.0647(2) 0.1287(2) -0.05041(12)
C11E C 0.23472(19) 0.17559(19) -0.04873(11)
C12E C 0.5338(2) 0.0871(2) -0.07162(12)
C13E C 0.4505(2) 0.0697(2) -0.05508(11)
C14E C 0.1224(2) 0.0821(2) -0.02254(12)
H1E H 0.2458(17) 0.0267(17) 0.0353(10)
H2E H 0.2904(19) -0.0033(19) -0.0115(10)
H3E H 0.1927(17) 0.2649(17) -0.0966(9)
H4E H 0.5482(17) 0.0692(18) -0.1020(11)
H5E H 0.3312(15) 0.1346(15) 0.0850(8)
H6E H 0.6187(16) 0.1796(16) 0.0208(9)
H7E H 0.654(2) 0.1373(19) -0.0573(10)
H8E H 0.2920(19) 0.196(2) -0.0489(10)
H9E H 0.103(2) 0.035(2) -0.0018(11)
H10E H 0.4127(18) 0.0391(18) -0.0737(9)
H11E H 0.004(2) 0.115(3) -0.0511(12)
loop_
_geom_bond_atom_site_label_1
_geom_bond_atom_site_label_2
_geom_bond_site_symmetry_1
_geom_bond_site_symmetry_2
Co1 N1 1_555 1_555
S1 C2 1_555 1_555
N1 C1 1_555 1_555
N2 C7 1_555 1_555
N3 Co1 1_555 1_555
N4 C3 1_555 1_555
C1 C3 1_555 1_555
C2 N3 1_555 1_555
C3 C13 1_555 1_555
C4 N1 1_555 1_555
C5 C1 1_555 1_555
C6 C5 1_555 1_555
C7 C11 1_555 1_555
C8 N4 1_555 1_555
C9 C8 1_555 1_555
C10 N2 1_555 1_555
C11 C9 1_555 1_555
C12 C6 1_555 1_555
C13 C12 1_555 1_555
C14 C9 1_555 1_555
H1 C8 1_555 1_555
H2 C8 1_555 1_555
H3 C7 1_555 1_555
H4 C12 1_555 1_555
H5 C4 1_555 1_555
H6 C5 1_555 1_555
H7 C6 1_555 1_555
H8 C11 1_555 1_555
H9 C14 1_555 1_555
H10 C13 1_555 1_555
H11 C10 1_555 1_555
Co1C N2E 1_555 1_555
Co1C_2 N2 1_555 1_555
S1E C2E 1_555 1_555
N1E Co1 1_555 1_555
N2E C7E 1_555 1_555
N2B Co1 1_555 1_555
N2G Co1 1_555 1_555
N3E Co1 1_555 1_555
N4E C3E 1_555 1_555
C1E N1E 1_555 1_555
C2E N3E 1_555 1_555
C3E C1E 1_555 1_555
C4E N1E 1_555 1_555
C5E C1E 1_555 1_555
C6E C5E 1_555 1_555
C7E C11E 1_555 1_555
C8E N4E 1_555 1_555
C9E C8E 1_555 1_555
C10E N2E 1_555 1_555
C11E C9E 1_555 1_555
C12E C6E 1_555 1_555
C13E C3E 1_555 1_555
C14E C9E 1_555 1_555
H1E C8E 1_555 1_555
H2E C8E 1_555 1_555
H3E C7E 1_555 1_555
H4E C12E 1_555 1_555
H5E C4E 1_555 1_555
H6E C5E 1_555 1_555
H7E C6E 1_555 1_555
H8E C11E 1_555 1_555
H9E C14E 1_555 1_555
H10E C13E 1_555 1_555
H11E C10E 1_555 1_555
N4 C4 1_555 1_555
C10 C14 1_555 1_555
N4E C4E 1_555 1_555
C10E C14E 1_555 1_555
C12E C13E 1_555 1_555

#END
