
#######################################################################
#
#                 Cambridge Crystallographic Data Centre
#                                CCDC 
#
#######################################################################
#
# If this CIF has been generated from an entry in the Cambridge 
# Structural Database, then it will include bibliographic, chemical, 
# crystal, experimental, refinement or atomic coordinate data resulting 
# from the CCDC's data processing and validation procedures.
#
#######################################################################

data_UGEYOW
_symmetry_cell_setting           monoclinic
_symmetry_space_group_name_H-M   'P 21/n'
_symmetry_Int_Tables_number      14
_space_group_name_Hall           '-P 2yn'
loop_
_symmetry_equiv_pos_site_id
_symmetry_equiv_pos_as_xyz
1 x,y,z
2 1/2-x,1/2+y,1/2-z
3 -x,-y,-z
4 1/2+x,1/2-y,1/2+z
_cell_length_a                   10.2180(5)
_cell_length_b                   16.1024(9)
_cell_length_c                   17.0282(10)
_cell_angle_alpha                90
_cell_angle_beta                 107.3500(10)
_cell_angle_gamma                90
_cell_volume                     2674.25
loop_
_atom_site_label
_atom_site_type_symbol
_atom_site_fract_x
_atom_site_fract_y
_atom_site_fract_z
Cd1 Cd 0.03014(2) 0.159439(15) 0.532869(15)
N1 N 0.0853(3) 0.24375(18) 0.65031(17)
C1 C -0.2289(3) 0.1087(2) 0.5552(2)
O1 O -0.0273(2) 0.07325(15) 0.41752(15)
H1 H -0.0345 0.0959 0.3713
H2 H 0.0201 0.0293 0.4206
O2 O -0.7417(3) 0.15426(18) 0.52556(19)
C2 C -0.3355(3) 0.0685(2) 0.5870(2)
N2 N 0.0501(3) 0.23072(19) 0.85948(17)
H3 H 0.0784 0.2602 0.9034
O3 O -0.7953(2) 0.06014(17) 0.60353(16)
O4 O -0.1082(2) 0.07850(15) 0.58052(15)
N3 N -0.2870(3) -0.03819(19) 1.08215(19)
H4 H -0.2386 -0.0140 1.1263
C3 C -0.3005(4) 0.0020(3) 0.6412(2)
H5 H -0.2107 -0.0175 0.6577
O5 O -0.2572(2) 0.16906(16) 0.50789(16)
N4 N -0.4982(3) -0.22691(18) 1.05004(17)
C4 C -0.3977(4) -0.0355(3) 0.6710(3)
H6 H -0.3740 -0.0811 0.7059
C5 C -0.5292(4) -0.0053(2) 0.6490(2)
H7 H -0.5941 -0.0300 0.6700
C6 C -0.5660(3) 0.0612(2) 0.5961(2)
O6 O -0.0904(4) 0.1255(3) 0.80019(19)
O7 O -0.3307(3) -0.04420(18) 0.94453(16)
C7 C -0.7099(3) 0.0938(2) 0.5729(2)
C8 C -0.4691(3) 0.0976(2) 0.5648(2)
H8 H -0.4941 0.1420 0.5285
C9 C 0.1928(4) 0.2946(3) 0.6653(2)
H9 H 0.2281 0.3078 0.6224
C10 C 0.2533(4) 0.3283(3) 0.7414(2)
H10 H 0.3267 0.3648 0.7494
C11 C 0.2048(4) 0.3077(2) 0.8056(2)
H11 H 0.2460 0.3290 0.8579
C12 C 0.0937(4) 0.2548(2) 0.7916(2)
C13 C 0.0347(4) 0.2259(2) 0.7123(2)
H12 H -0.0432 0.1928 0.7017
C14 C -0.0325(4) 0.1652(3) 0.8618(2)
C15 C -0.0461(4) 0.1407(2) 0.9437(2)
C16 C 0.0366(4) 0.1712(2) 1.0183(2)
H13 H 0.1015 0.2117 1.0185
C17 C 0.0243(4) 0.1424(2) 1.0923(2)
C18 C 0.1175(5) 0.1745(3) 1.1724(3)
H14 H 0.0946 0.1486 1.2173
H15 H 0.1065 0.2336 1.1751
H16 H 0.2109 0.1620 1.1759
C19 C -0.0731(4) 0.0819(2) 1.0901(2)
H17 H -0.0813 0.0614 1.1394
C20 C -0.1592(4) 0.0509(2) 1.0163(2)
C21 C -0.1438(4) 0.0803(2) 0.9432(2)
H18 H -0.1991 0.0596 0.8934
C22 C -0.2667(4) -0.0144(2) 1.0102(2)
C23 C -0.3806(4) -0.0992(2) 1.0906(2)
C24 C -0.4384(4) -0.0932(3) 1.1546(2)
H19 H -0.4187 -0.0479 1.1900
C25 C -0.5252(4) -0.1548(3) 1.1652(3)
H20 H -0.5639 -0.1519 1.2081
C26 C -0.5535(4) -0.2204(2) 1.1116(2)
H21 H -0.6130 -0.2617 1.1182
C27 C -0.4132(4) -0.1674(2) 1.0399(2)
H22 H -0.3748 -0.1724 0.9970
Cd1_2 Cd -0.96986(2) 0.159439(15) 0.532869(15)
Cd1A Cd -0.53014(2) -0.340561(15) 0.967131(15)
O2_2 O 0.2583(3) 0.15426(18) 0.52556(19)
O3_2 O 0.2047(2) 0.06014(17) 0.60353(16)
N4A N -0.0018(3) 0.27309(18) 0.44996(17)
O8 O -0.1184(4) -0.0248(2) 1.25112(17)
H23 H -0.0493 -0.0565 1.2582
H24 H -0.1724 -0.0474 1.2743
loop_
_geom_bond_atom_site_label_1
_geom_bond_atom_site_label_2
_geom_bond_site_symmetry_1
_geom_bond_site_symmetry_2
Cd1 N1 1_555 1_555
N1 C9 1_555 1_555
C1 C2 1_555 1_555
O1 Cd1 1_555 1_555
H1 O1 1_555 1_555
H2 O1 1_555 1_555
O2 C7 1_555 1_555
C2 C3 1_555 1_555
N2 H3 1_555 1_555
O3 C7 1_555 1_555
O4 Cd1 1_555 1_555
N3 H4 1_555 1_555
C3 H5 1_555 1_555
O5 C1 1_555 1_555
N4 C26 1_555 1_555
C4 C3 1_555 1_555
H6 C4 1_555 1_555
C5 C4 1_555 1_555
H7 C5 1_555 1_555
C6 C5 1_555 1_555
O6 C14 1_555 1_555
O7 C22 1_555 1_555
C7 C6 1_555 1_555
C8 C2 1_555 1_555
H8 C8 1_555 1_555
C9 H9 1_555 1_555
C10 C9 1_555 1_555
H10 C10 1_555 1_555
C11 C10 1_555 1_555
H11 C11 1_555 1_555
C12 N2 1_555 1_555
C13 N1 1_555 1_555
H12 C13 1_555 1_555
C14 N2 1_555 1_555
C15 C14 1_555 1_555
C16 C15 1_555 1_555
H13 C16 1_555 1_555
C17 C16 1_555 1_555
C18 C17 1_555 1_555
H14 C18 1_555 1_555
H15 C18 1_555 1_555
H16 C18 1_555 1_555
C19 C17 1_555 1_555
H17 C19 1_555 1_555
C20 C19 1_555 1_555
C21 C15 1_555 1_555
H18 C21 1_555 1_555
C22 N3 1_555 1_555
C23 N3 1_555 1_555
C24 C23 1_555 1_555
H19 C24 1_555 1_555
C25 C24 1_555 1_555
H20 C25 1_555 1_555
C26 C25 1_555 1_555
H21 C26 1_555 1_555
C27 N4 1_555 1_555
H22 C27 1_555 1_555
O8 H23 1_555 1_555
H24 O8 1_555 1_555
Cd1_2 O2 1_555 1_555
Cd1A N4 1_555 1_555
O2_2 Cd1 1_555 1_555
O3_2 Cd1 1_555 1_555
N4A Cd1 1_555 1_555
C1 O4 1_555 1_555
O3 Cd1_2 1_555 1_555
C6 C8 1_555 1_555
C11 C12 1_555 1_555
C12 C13 1_555 1_555
C20 C21 1_555 1_555
C20 C22 1_555 1_555
C23 C27 1_555 1_555

#END
