
#######################################################################
#
#                 Cambridge Crystallographic Data Centre
#                                CCDC 
#
#######################################################################
#
# If this CIF has been generated from an entry in the Cambridge 
# Structural Database, then it will include bibliographic, chemical, 
# crystal, experimental, refinement or atomic coordinate data resulting 
# from the CCDC's data processing and validation procedures.
#
#######################################################################

data_UGEZEN
_symmetry_cell_setting           monoclinic
_symmetry_space_group_name_H-M   'P 21/c'
_symmetry_Int_Tables_number      14
_space_group_name_Hall           '-P 2ybc'
loop_
_symmetry_equiv_pos_site_id
_symmetry_equiv_pos_as_xyz
1 x,y,z
2 -x,1/2+y,1/2-z
3 -x,-y,-z
4 x,1/2-y,1/2+z
_cell_length_a                   10.0515(6)
_cell_length_b                   15.8875(10)
_cell_length_c                   16.6212(10)
_cell_angle_alpha                90
_cell_angle_beta                 105.3710(10)
_cell_angle_gamma                90
_cell_volume                     2559.35
loop_
_atom_site_label
_atom_site_type_symbol
_atom_site_fract_x
_atom_site_fract_y
_atom_site_fract_z
Zn1 Zn 0.49535(4) 0.15607(2) 0.46870(3)
S1 S 0.96051(8) 0.12152(6) 0.45971(6)
C1 C 0.6938(3) 0.0656(2) 0.3980(2)
N1 N 0.5459(3) 0.26215(18) 0.54446(18)
O1 O 0.6716(2) 0.12115(18) 0.44724(17)
O2 O 0.5620(2) 0.07930(15) 0.57890(16)
H1 H 0.4991 0.0515 0.5926
H2 H 0.6389 0.0564 0.6024
O3 O 0.6079(3) 0.01768(18) 0.35403(17)
N2 N 0.3716(3) 0.45759(19) 0.57845(19)
H3 H 0.3650 0.4827 0.6231
C2 C 0.8405(3) 0.0602(2) 0.3944(2)
O4 O 1.3268(2) 0.08112(14) 0.42829(15)
C3 C 0.8981(4) 0.0104(2) 0.3459(2)
H4 H 0.8482 -0.0273 0.3065
N3 N -0.1889(3) 0.7273(2) 0.35226(19)
H5 H -0.1772 0.7571 0.3968
C4 C 1.0412(3) 0.0224(2) 0.3620(2)
H6 H 1.0966 -0.0065 0.3345
O5 O 1.2519(2) 0.17418(16) 0.50448(17)
N4 N -0.4361(3) 0.73181(19) 0.14389(18)
C5 C 1.0899(3) 0.0808(2) 0.4222(2)
O6 O 0.2886(3) 0.45479(18) 0.43820(17)
C6 C 1.2312(3) 0.1143(2) 0.4548(2)
O7 O -0.0955(4) 0.6236(3) 0.29251(19)
C7 C 0.6593(4) 0.2655(2) 0.6089(2)
H7 H 0.7235 0.2221 0.6160
C8 C 0.6834(4) 0.3312(2) 0.6646(3)
H8 H 0.7627 0.3320 0.7088
C9 C 0.5881(4) 0.3963(2) 0.6543(2)
H9 H 0.6024 0.4411 0.6917
C10 C 0.4717(4) 0.3933(2) 0.5878(2)
C11 C 0.4552(4) 0.3254(2) 0.5339(2)
H10 H 0.3778 0.3237 0.4885
C12 C 0.2845(4) 0.4833(2) 0.5051(2)
C13 C 0.1789(4) 0.5493(2) 0.5115(2)
C14 C 0.1591(4) 0.5778(2) 0.5867(2)
H11 H 0.2160 0.5577 0.6366
C15 C 0.0569(4) 0.6352(2) 0.5892(2)
C16 C 0.0314(6) 0.6639(3) 0.6704(3)
H12 H 0.0978 0.6383 0.7162
H13 H -0.0599 0.6477 0.6720
H14 H 0.0400 0.7241 0.6747
C17 C -0.0271(4) 0.6644(2) 0.5141(2)
H15 H -0.0971 0.7026 0.5146
C18 C -0.0083(4) 0.6373(2) 0.4379(2)
C19 C 0.0945(4) 0.5784(2) 0.4380(2)
H16 H 0.1059 0.5587 0.3876
C20 C -0.0994(4) 0.6621(3) 0.3548(2)
C21 C -0.2981(4) 0.7504(2) 0.2841(2)
C22 C -0.3885(4) 0.8112(3) 0.2964(3)
H17 H -0.3729 0.8389 0.3473
C23 C -0.5021(5) 0.8304(3) 0.2320(3)
H18 H -0.5642 0.8712 0.2393
C24 C -0.5240(4) 0.7891(3) 0.1570(3)
H19 H -0.6024 0.8016 0.1144
C25 C -0.3239(4) 0.7146(2) 0.2051(2)
H20 H -0.2598 0.6769 0.1946
Zn1_2 Zn 1.49535(4) 0.15607(2) 0.46870(3)
Zn1A Zn -0.49535(4) 0.65607(2) 0.03130(3)
O4_2 O 0.3268(2) 0.08112(14) 0.42829(15)
N4A N 0.4361(3) 0.23181(19) 0.35611(18)
O8 O 0.3472(4) 0.0188(2) 0.2474(2)
H21 H 0.4288 0.0383 0.2588
H22 H 0.3035 0.0385 0.2002
loop_
_geom_bond_atom_site_label_1
_geom_bond_atom_site_label_2
_geom_bond_site_symmetry_1
_geom_bond_site_symmetry_2
Zn1 N1 1_555 1_555
S1 C2 1_555 1_555
C1 O1 1_555 1_555
N1 C7 1_555 1_555
O1 Zn1 1_555 1_555
O2 Zn1 1_555 1_555
H1 O2 1_555 1_555
H2 O2 1_555 1_555
O3 C1 1_555 1_555
N2 H3 1_555 1_555
C2 C1 1_555 1_555
O4 C6 1_555 1_555
C3 C2 1_555 1_555
H4 C3 1_555 1_555
N3 H5 1_555 1_555
C4 C3 1_555 1_555
H6 C4 1_555 1_555
O5 C6 1_555 1_555
N4 C24 1_555 1_555
C5 S1 1_555 1_555
O6 C12 1_555 1_555
C6 C5 1_555 1_555
O7 C20 1_555 1_555
C7 H7 1_555 1_555
C8 C7 1_555 1_555
H8 C8 1_555 1_555
C9 C8 1_555 1_555
H9 C9 1_555 1_555
C10 N2 1_555 1_555
C11 N1 1_555 1_555
H10 C11 1_555 1_555
C12 N2 1_555 1_555
C13 C12 1_555 1_555
C14 C13 1_555 1_555
H11 C14 1_555 1_555
C15 C14 1_555 1_555
C16 C15 1_555 1_555
H12 C16 1_555 1_555
H13 C16 1_555 1_555
H14 C16 1_555 1_555
C17 C15 1_555 1_555
H15 C17 1_555 1_555
C18 C17 1_555 1_555
C19 C13 1_555 1_555
H16 C19 1_555 1_555
C20 N3 1_555 1_555
C21 N3 1_555 1_555
C22 C21 1_555 1_555
H17 C22 1_555 1_555
C23 C22 1_555 1_555
H18 C23 1_555 1_555
C24 C23 1_555 1_555
H19 C24 1_555 1_555
C25 N4 1_555 1_555
H20 C25 1_555 1_555
O8 H21 1_555 1_555
H22 O8 1_555 1_555
Zn1_2 O4 1_555 1_555
Zn1A N4 1_555 1_555
O4_2 Zn1 1_555 1_555
N4A Zn1 1_555 1_555
C4 C5 1_555 1_555
C9 C10 1_555 1_555
C10 C11 1_555 1_555
C18 C19 1_555 1_555
C18 C20 1_555 1_555
C21 C25 1_555 1_555

#END
