
#######################################################################
#
#                 Cambridge Crystallographic Data Centre
#                                CCDC 
#
#######################################################################
#
# If this CIF has been generated from an entry in the Cambridge 
# Structural Database, then it will include bibliographic, chemical, 
# crystal, experimental, refinement or atomic coordinate data resulting 
# from the CCDC's data processing and validation procedures.
#
#######################################################################

data_UGEZOX
_symmetry_cell_setting           monoclinic
_symmetry_space_group_name_H-M   'P 21/c'
_symmetry_Int_Tables_number      14
_space_group_name_Hall           '-P 2ybc'
loop_
_symmetry_equiv_pos_site_id
_symmetry_equiv_pos_as_xyz
1 x,y,z
2 -x,1/2+y,1/2-z
3 -x,-y,-z
4 x,1/2-y,1/2+z
_cell_length_a                   9.879(7)
_cell_length_b                   16.440(11)
_cell_length_c                   16.678(11)
_cell_angle_alpha                90
_cell_angle_beta                 104.334(12)
_cell_angle_gamma                90
_cell_volume                     2624.36
loop_
_atom_site_label
_atom_site_type_symbol
_atom_site_fract_x
_atom_site_fract_y
_atom_site_fract_z
Zn1 Zn 0.00920(8) 0.34501(5) 0.03035(5)
O1 O 0.2922(5) 0.3260(3) -0.0124(3)
O2 O -0.0668(5) 0.4259(3) -0.0748(3)
H1 H -0.1143 0.4693 -0.0779
H2 H 0.0002 0.4485 -0.0744
N1 N -0.0294(5) 0.2444(3) -0.0452(3)
C1 C 0.0584(7) 0.1825(4) -0.0348(4)
H3 H 0.1405 0.1856 0.0070
O3 O 0.1820(4) 0.4103(3) 0.0528(3)
N2 N 0.1290(6) 0.0497(3) -0.0735(4)
H4 H 0.1333 0.0234 -0.1174
C2 C 0.0338(7) 0.1139(4) -0.0829(4)
O4 O 0.8095(5) 0.3548(3) 0.0404(4)
N3 N 0.6805(6) -0.2113(3) 0.1504(4)
H5 H 0.6608 -0.2436 0.1086
C3 C -0.0900(8) 0.1088(5) -0.1439(5)
H6 H -0.1112 0.0627 -0.1770
O5 O 0.9166(5) 0.4529(3) 0.1201(4)
N4 N 0.9221(6) -0.2245(3) 0.3574(3)
C4 C -0.1801(8) 0.1733(4) -0.1543(5)
H7 H -0.2628 0.1720 -0.1956
C5 C -0.1492(7) 0.2386(4) -0.1047(4)
H8 H -0.2128 0.2813 -0.1117
C6 C 0.2171(8) 0.0258(5) -0.0006(5)
C7 C 0.3087(7) -0.0442(4) -0.0052(4)
C8 C 0.2988(7) -0.0922(4) -0.0758(4)
H9 H 0.2318 -0.0794 -0.1240
O6 O 0.2190(7) 0.0593(3) 0.0638(4)
C9 C 0.3848(7) -0.1572(4) -0.0759(4)
O7 O 0.6216(6) -0.0952(4) 0.2012(3)
C10 C 0.3699(8) -0.2099(4) -0.1504(4)
H10 H 0.3187 -0.1811 -0.1985
H11 H 0.3206 -0.2587 -0.1435
H12 H 0.4608 -0.2237 -0.1571
C11 C 0.4856(7) -0.1744(4) -0.0040(5)
H13 H 0.5452 -0.2184 -0.0028
C12 C 0.4987(7) -0.1273(4) 0.0655(4)
C13 C 0.4097(7) -0.0634(4) 0.0650(4)
H14 H 0.4177 -0.0326 0.1128
C14 C 0.6054(8) -0.1430(5) 0.1455(5)
C15 C 0.7899(7) -0.2354(4) 0.2181(4)
C16 C 0.8733(8) -0.2978(4) 0.2052(5)
H15 H 0.8576 -0.3225 0.1536
C17 C 0.9816(8) -0.3240(5) 0.2697(5)
H16 H 1.0380 -0.3674 0.2629
C18 C 1.0032(7) -0.2845(4) 0.3431(5)
H17 H 1.0787 -0.3002 0.3856
C19 C 0.8164(7) -0.2009(4) 0.2950(4)
H18 H 0.7584 -0.1593 0.3043
C20 C 0.2911(6) 0.3846(4) 0.0343(4)
C21 C 0.4255(7) 0.4264(4) 0.0752(4)
C22 C 0.5491(7) 0.4045(4) 0.0600(4)
H19 H 0.5505 0.3645 0.0208
C23 C 0.6723(7) 0.4402(4) 0.1014(4)
C24 C 0.8083(7) 0.4150(5) 0.0873(5)
C25 C 0.6688(7) 0.5019(4) 0.1577(4)
H20 H 0.7517 0.5271 0.1851
C26 C 0.5465(8) 0.5263(5) 0.1734(4)
C27 C 0.5421(9) 0.5915(5) 0.2347(6)
H21 H 0.6333 0.5980 0.2712
H22 H 0.4767 0.5768 0.2663
H23 H 0.5136 0.6417 0.2062
C28 C 0.4242(8) 0.4877(4) 0.1312(4)
H24 H 0.3395 0.5037 0.1412
Zn1_2 Zn 1.00920(8) 0.34501(5) 0.03035(5)
Zn1A Zn 0.99080(8) -0.15499(5) 0.46965(5)
O4_2 O -0.1905(5) 0.3548(3) 0.0404(4)
N4A N 0.0779(6) 0.2755(3) 0.1426(3)
O8 O 0.1253(7) 0.4935(3) 0.2593(3)
H25 H 0.0588 0.4642 0.2320
H26 H 0.2014 0.4715 0.2562
loop_
_geom_bond_atom_site_label_1
_geom_bond_atom_site_label_2
_geom_bond_site_symmetry_1
_geom_bond_site_symmetry_2
Zn1 O2 1_555 1_555
O1 C20 1_555 1_555
O2 H1 1_555 1_555
H2 O2 1_555 1_555
N1 Zn1 1_555 1_555
C1 N1 1_555 1_555
H3 C1 1_555 1_555
O3 Zn1 1_555 1_555
N2 H4 1_555 1_555
C2 C1 1_555 1_555
O4 C24 1_555 1_555
N3 H5 1_555 1_555
C3 C2 1_555 1_555
H6 C3 1_555 1_555
O5 C24 1_555 1_555
N4 C18 1_555 1_555
C4 C3 1_555 1_555
H7 C4 1_555 1_555
C5 N1 1_555 1_555
H8 C5 1_555 1_555
C6 N2 1_555 1_555
C7 C6 1_555 1_555
C8 C7 1_555 1_555
H9 C8 1_555 1_555
O6 C6 1_555 1_555
C9 C8 1_555 1_555
O7 C14 1_555 1_555
C10 C9 1_555 1_555
H10 C10 1_555 1_555
H11 C10 1_555 1_555
H12 C10 1_555 1_555
C11 C9 1_555 1_555
H13 C11 1_555 1_555
C12 C11 1_555 1_555
C13 C7 1_555 1_555
H14 C13 1_555 1_555
C14 N3 1_555 1_555
C15 N3 1_555 1_555
C16 C15 1_555 1_555
H15 C16 1_555 1_555
C17 C16 1_555 1_555
H16 C17 1_555 1_555
C18 C17 1_555 1_555
H17 C18 1_555 1_555
C19 N4 1_555 1_555
H18 C19 1_555 1_555
C20 O3 1_555 1_555
C21 C20 1_555 1_555
C22 C21 1_555 1_555
H19 C22 1_555 1_555
C23 C22 1_555 1_555
C24 C23 1_555 1_555
C25 C23 1_555 1_555
H20 C25 1_555 1_555
C26 C25 1_555 1_555
C27 C26 1_555 1_555
H21 C27 1_555 1_555
H22 C27 1_555 1_555
H23 C27 1_555 1_555
C28 C21 1_555 1_555
H24 C28 1_555 1_555
O8 H25 1_555 1_555
H26 O8 1_555 1_555
Zn1_2 O4 1_555 1_555
Zn1A N4 1_555 1_555
O4_2 Zn1 1_555 1_555
N4A Zn1 1_555 1_555
N2 C2 1_555 1_555
C4 C5 1_555 1_555
C12 C13 1_555 1_555
C12 C14 1_555 1_555
C15 C19 1_555 1_555
C26 C28 1_555 1_555

#END
