
#######################################################################
#
#                 Cambridge Crystallographic Data Centre
#                                CCDC 
#
#######################################################################
#
# If this CIF has been generated from an entry in the Cambridge 
# Structural Database, then it will include bibliographic, chemical, 
# crystal, experimental, refinement or atomic coordinate data resulting 
# from the CCDC's data processing and validation procedures.
#
#######################################################################

data_UGIFAT
_symmetry_cell_setting           monoclinic
_symmetry_space_group_name_H-M   'P 21/c'
_symmetry_Int_Tables_number      14
_space_group_name_Hall           '-P 2ybc'
loop_
_symmetry_equiv_pos_site_id
_symmetry_equiv_pos_as_xyz
1 x,y,z
2 -x,1/2+y,1/2-z
3 -x,-y,-z
4 x,1/2-y,1/2+z
_cell_length_a                   7.618(5)
_cell_length_b                   8.871(5)
_cell_length_c                   14.105(5)
_cell_angle_alpha                90
_cell_angle_beta                 111.75(2)
_cell_angle_gamma                90
_cell_volume                     885.347
loop_
_atom_site_label
_atom_site_type_symbol
_atom_site_fract_x
_atom_site_fract_y
_atom_site_fract_z
Cu1 Cu 0.500 0.500 0.500
O1 O 0.32264(17) 0.42759(14) 0.55936(9)
N1 N 0.2984(2) 0.10591(17) 0.82661(11)
N2 N 0.5352(2) 0.22937(17) 0.61561(11)
N3 N 0.6072(2) 0.28743(17) 0.54367(11)
C1 C 0.1362(3) 0.1727(2) 0.82033(14)
H1 H 0.0812 0.1438 0.868
C2 C 0.0449(3) 0.2808(2) 0.74867(14)
H2 H -0.072 0.3224 0.7456
C3 C 0.1286(3) 0.3273(2) 0.68098(13)
H3 H 0.0716 0.404 0.6322
C4 C 0.2965(2) 0.26029(19) 0.68555(13)
C5 C 0.3737(2) 0.1481(2) 0.75865(13)
H4 H 0.4857 0.0991 0.7603
C6 C 0.3916(2) 0.31021(19) 0.61531(12)
C7 C 0.7129(2) 0.1944(2) 0.51821(13)
C8 C 0.7945(3) 0.2383(2) 0.44070(15)
H5 H 0.7655 0.3443 0.422
H6 H 0.7397 0.175 0.3798
H7 H 0.9319 0.2242 0.4695
C9 C 0.7586(3) 0.0381(2) 0.56066(16)
H8 H 0.7212 0.0272 0.6197
H9 H 0.8948 0.0204 0.5819
H10 H 0.6898 -0.0354 0.5082
O1B O 0.67736(17) 0.57241(14) 0.44064(9)
N1B N 0.7016(2) 0.89409(17) 0.17339(11)
N2B N 0.4648(2) 0.77063(17) 0.38439(11)
N3B N 0.3928(2) 0.71257(17) 0.45633(11)
C1B C 0.8638(3) 0.8273(2) 0.17967(14)
H1B H 0.9188 0.8562 0.132
C2B C 0.9551(3) 0.7192(2) 0.25133(14)
H2B H 1.072 0.6776 0.2544
C3B C 0.8714(3) 0.6727(2) 0.31902(13)
H3B H 0.9284 0.596 0.3678
C4B C 0.7035(2) 0.73971(19) 0.31445(13)
C5B C 0.6263(2) 0.8519(2) 0.24135(13)
H4B H 0.5143 0.9009 0.2397
C6B C 0.6084(2) 0.68979(19) 0.38469(12)
C7B C 0.2871(2) 0.8056(2) 0.48179(13)
C8B C 0.2055(3) 0.7617(2) 0.55930(15)
H5B H 0.2345 0.6557 0.578
H6B H 0.2603 0.825 0.6202
H7B H 0.0681 0.7758 0.5305
C9B C 0.2414(3) 0.9619(2) 0.43934(16)
H8B H 0.2788 0.9728 0.3803
H9B H 0.1052 0.9796 0.4181
H10B H 0.3102 1.0354 0.4918
Cu1A Cu 0.500 0.000 1.000
Cu1A_2 Cu 0.500 1.000 0.000
N1A N 0.7016(2) 0.60591(17) 0.67339(11)
N1C N 0.2984(2) 0.39409(17) 0.32661(11)
loop_
_geom_bond_atom_site_label_1
_geom_bond_atom_site_label_2
_geom_bond_site_symmetry_1
_geom_bond_site_symmetry_2
Cu1 O1 1_555 1_555
O1 C6 1_555 1_555
N1 C1 1_555 1_555
N2 N3 1_555 1_555
N3 Cu1 1_555 1_555
C1 H1 1_555 1_555
C2 C1 1_555 1_555
H2 C2 1_555 1_555
C3 C2 1_555 1_555
H3 C3 1_555 1_555
C4 C3 1_555 1_555
C5 N1 1_555 1_555
H4 C5 1_555 1_555
C6 N2 1_555 1_555
C7 N3 1_555 1_555
C8 C7 1_555 1_555
H5 C8 1_555 1_555
H6 C8 1_555 1_555
H7 C8 1_555 1_555
C9 C7 1_555 1_555
H8 C9 1_555 1_555
H9 C9 1_555 1_555
H10 C9 1_555 1_555
O1B Cu1 1_555 1_555
N1B C1B 1_555 1_555
N2B N3B 1_555 1_555
N3B Cu1 1_555 1_555
C1B H1B 1_555 1_555
C2B C1B 1_555 1_555
H2B C2B 1_555 1_555
C3B C2B 1_555 1_555
H3B C3B 1_555 1_555
C4B C3B 1_555 1_555
C5B N1B 1_555 1_555
H4B C5B 1_555 1_555
C6B O1B 1_555 1_555
C7B N3B 1_555 1_555
C8B C7B 1_555 1_555
H5B C8B 1_555 1_555
H6B C8B 1_555 1_555
H7B C8B 1_555 1_555
C9B C7B 1_555 1_555
H8B C9B 1_555 1_555
H9B C9B 1_555 1_555
H10B C9B 1_555 1_555
Cu1A N1 1_555 1_555
Cu1A_2 N1B 1_555 1_555
N1A Cu1 1_555 1_555
N1C Cu1 1_555 1_555
C4 C5 1_555 1_555
C4 C6 1_555 1_555
N2B C6B 1_555 1_555
C4B C5B 1_555 1_555
C4B C6B 1_555 1_555

#END
