
#######################################################################
#
#                 Cambridge Crystallographic Data Centre
#                                CCDC 
#
#######################################################################
#
# If this CIF has been generated from an entry in the Cambridge 
# Structural Database, then it will include bibliographic, chemical, 
# crystal, experimental, refinement or atomic coordinate data resulting 
# from the CCDC's data processing and validation procedures.
#
#######################################################################

data_UGIGOI
_symmetry_cell_setting           monoclinic
_symmetry_space_group_name_H-M   'P 21'
_symmetry_Int_Tables_number      4
_space_group_name_Hall           'P 2yb'
loop_
_symmetry_equiv_pos_site_id
_symmetry_equiv_pos_as_xyz
1 x,y,z
2 -x,1/2+y,-z
_cell_length_a                   6.8741(18)
_cell_length_b                   16.612(5)
_cell_length_c                   9.609(3)
_cell_angle_alpha                90
_cell_angle_beta                 93.585(4)
_cell_angle_gamma                90
_cell_volume                     1095.13
loop_
_atom_site_label
_atom_site_type_symbol
_atom_site_fract_x
_atom_site_fract_y
_atom_site_fract_z
Zn1 Zn 0.68048(10) 0.36218(4) 0.27501(7)
C1 C 0.8165(11) 0.4779(5) 0.4993(8)
C2 C 1.1012(11) 0.5224(6) 0.4392(8)
H1 H 1.2172 0.5511 0.4370
C3 C 1.0405(11) 0.4633(6) 0.3510(8)
H2 H 1.1083 0.4438 0.2773
C4 C 0.9707(13) 0.5896(5) 0.6493(8)
H3 H 0.8424 0.5969 0.6841
H4 H 1.0147 0.6414 0.6165
C5 C 0.6355(14) 0.4689(7) 0.5754(10)
H5 H 0.5294 0.4539 0.5109
H6 H 0.6058 0.5190 0.6190
H7 H 0.6546 0.4279 0.6454
N1 N 0.8583(9) 0.4361(4) 0.3886(7)
N2 N 0.9585(9) 0.5327(4) 0.5342(6)
N3 N 0.8413(10) 0.2939(4) 0.1523(6)
C6 C 0.7859(12) 0.2616(5) 0.0277(8)
C7 C 0.5894(15) 0.2703(8) -0.0442(11)
H8 H 0.6021 0.2781 -0.1422
H9 H 0.5244 0.3158 -0.0068
H10 H 0.5147 0.2225 -0.0300
C8 C 1.0313(12) 0.2716(5) 0.1818(8)
H11 H 1.1072 0.2854 0.2618
O1 O 1.6983(10) 0.2146(5) -0.5059(9)
N4 N 0.9349(11) 0.2213(4) -0.0221(7)
O2 O 1.4989(11) 0.3056(5) -0.6070(7)
C9 C 1.0909(13) 0.2257(6) 0.0743(10)
H12 H 1.2128 0.2021 0.0677
C10 C 1.3839(10) 0.2323(5) -0.4223(7)
C11 C 1.5430(12) 0.2512(6) -0.5179(8)
C12 C 1.2342(12) 0.2875(5) -0.4035(9)
H13 H 1.2316 0.3367 -0.4497
C13 C 1.3877(11) 0.1608(5) -0.3495(8)
H14 H 1.4904 0.1251 -0.3587
C14 C 0.9307(16) 0.1735(6) -0.1506(10)
H15 H 0.8061 0.1812 -0.2020
H16 H 0.9425 0.1169 -0.1267
C15 C 1.2402(13) 0.1411(5) -0.2621(8)
H17 H 1.2413 0.0914 -0.2174
C16 C 1.0910(13) 0.1961(5) -0.2418(8)
C17 C 1.0872(12) 0.2675(6) -0.3134(10)
H18 H 0.9858 0.3035 -0.3024
O3 O 1.4682(9) 0.4192(4) 1.1679(6)
C18 C 1.3813(11) 0.5002(5) 0.9693(7)
C19 C 1.5313(11) 0.4647(6) 1.0716(8)
C20 C 1.1904(11) 0.4698(6) 0.9557(9)
H19 H 1.1534 0.4288 1.0144
O4 O 1.7066(9) 0.4801(5) 1.0566(7)
C21 C 1.2986(13) 0.5921(6) 0.7801(9)
H20 H 1.3342 0.6340 0.7226
C22 C 1.4324(12) 0.5607(5) 0.8817(8)
H21 H 1.5584 0.5813 0.8900
C23 C 1.0577(13) 0.5003(6) 0.8562(9)
H22 H 0.9308 0.4806 0.8495
C24 C 1.1110(13) 0.5597(5) 0.7664(8)
Zn1_2 Zn 1.68048(10) 0.36218(4) -0.72499(7)
Zn1_3 Zn 1.68048(10) 0.36218(4) 1.27501(7)
O2_2 O 0.4989(11) 0.3056(5) 0.3930(7)
O3_2 O 0.4682(9) 0.4192(4) 0.1679(6)
loop_
_geom_bond_atom_site_label_1
_geom_bond_atom_site_label_2
_geom_bond_site_symmetry_1
_geom_bond_site_symmetry_2
Zn1 N1 1_555 1_555
C1 C5 1_555 1_555
C2 H1 1_555 1_555
C3 C2 1_555 1_555
H2 C3 1_555 1_555
C4 H3 1_555 1_555
H4 C4 1_555 1_555
C5 H5 1_555 1_555
H6 C5 1_555 1_555
H7 C5 1_555 1_555
N1 C1 1_555 1_555
N2 C1 1_555 1_555
N3 Zn1 1_555 1_555
C6 N3 1_555 1_555
C7 C6 1_555 1_555
H8 C7 1_555 1_555
H9 C7 1_555 1_555
H10 C7 1_555 1_555
C8 N3 1_555 1_555
H11 C8 1_555 1_555
O1 C11 1_555 1_555
N4 C6 1_555 1_555
O2 C11 1_555 1_555
C9 C8 1_555 1_555
H12 C9 1_555 1_555
C10 C11 1_555 1_555
C12 C10 1_555 1_555
H13 C12 1_555 1_555
C13 C10 1_555 1_555
H14 C13 1_555 1_555
C14 N4 1_555 1_555
H15 C14 1_555 1_555
H16 C14 1_555 1_555
C15 C13 1_555 1_555
H17 C15 1_555 1_555
C16 C14 1_555 1_555
C17 C12 1_555 1_555
H18 C17 1_555 1_555
O3 C19 1_555 1_555
C18 C19 1_555 1_555
C19 O4 1_555 1_555
C20 C18 1_555 1_555
H19 C20 1_555 1_555
C21 H20 1_555 1_555
C22 C18 1_555 1_555
H21 C22 1_555 1_555
C23 C20 1_555 1_555
H22 C23 1_555 1_555
C24 C4 1_555 1_555
Zn1_2 O2 1_555 1_555
Zn1_3 O3 1_555 1_555
O2_2 Zn1 1_555 1_555
O3_2 Zn1 1_555 1_555
C2 N2 1_555 1_555
C3 N1 1_555 1_555
C4 N2 1_555 1_555
N4 C9 1_555 1_555
C15 C16 1_555 1_555
C16 C17 1_555 1_555
C21 C22 1_555 1_555
C21 C24 1_555 1_555
C23 C24 1_555 1_555

#END
