
#######################################################################
#
#                 Cambridge Crystallographic Data Centre
#                                CCDC 
#
#######################################################################
#
# If this CIF has been generated from an entry in the Cambridge 
# Structural Database, then it will include bibliographic, chemical, 
# crystal, experimental, refinement or atomic coordinate data resulting 
# from the CCDC's data processing and validation procedures.
#
#######################################################################

data_UGIGUO
_symmetry_cell_setting           monoclinic
_symmetry_space_group_name_H-M   'P 21'
_symmetry_Int_Tables_number      4
_space_group_name_Hall           'P 2yb'
loop_
_symmetry_equiv_pos_site_id
_symmetry_equiv_pos_as_xyz
1 x,y,z
2 -x,1/2+y,-z
_cell_length_a                   6.8694(14)
_cell_length_b                   16.599(4)
_cell_length_c                   9.5874(19)
_cell_angle_alpha                90
_cell_angle_beta                 93.485(3)
_cell_angle_gamma                90
_cell_volume                     1091.18
loop_
_atom_site_label
_atom_site_type_symbol
_atom_site_fract_x
_atom_site_fract_y
_atom_site_fract_z
C1 C -0.0331(8) -0.0560(4) -0.0726(6)
C2 C 0.1182(8) -0.0916(3) 0.0307(5)
C3 C 0.3068(8) -0.0613(4) 0.0441(6)
H1 H 0.3450 -0.0211 -0.0160
C4 C 0.4394(9) -0.0912(5) 0.1480(6)
H2 H 0.5642 -0.0694 0.1585
C5 C 0.3878(10) -0.1515(4) 0.2335(6)
C6 C 0.2031(9) -0.1851(4) 0.2176(6)
H3 H 0.1705 -0.2286 0.2727
C7 C 0.0682(8) -0.1540(3) 0.1201(6)
H4 H -0.0579 -0.1746 0.1135
C8 C -0.0423(8) 0.1556(4) 1.5202(6)
C9 C 0.1180(7) 0.1743(3) 1.4210(5)
C10 C 0.1111(8) 0.2472(3) 1.3468(5)
H5 H 0.0082 0.2828 1.3561
C11 C 0.2580(11) 0.2659(4) 1.2597(6)
H6 H 0.2556 0.3148 1.2124
C12 C 0.4087(9) 0.2118(4) 1.2427(6)
C13 C 0.4100(9) 0.1398(4) 1.3099(6)
H7 H 0.5074 0.1023 1.2954
C14 C 0.2668(9) 0.1225(4) 1.3995(6)
H8 H 0.2717 0.0736 1.4471
C15 C 0.4681(8) 0.1369(4) 0.8190(5)
H9 H 0.3919 0.1238 0.7387
C16 C 0.4093(9) 0.1809(4) 0.9242(7)
H10 H 0.2864 0.2035 0.9312
C17 C 0.7138(8) 0.1450(4) 0.9711(5)
C18 C 0.9088(10) 0.1349(6) 1.0475(7)
H11 H 1.0003 0.1144 0.9845
H12 H 0.8978 0.0978 1.1233
H13 H 0.9534 0.1861 1.0835
C19 C 0.5687(10) 0.2355(4) 1.1508(6)
H14 H 0.5550 0.2920 1.1265
H15 H 0.6938 0.2285 1.2019
C20 C 0.4600(8) -0.0562(4) 0.6524(6)
H16 H 0.3934 -0.0381 0.7280
C21 C 0.3994(8) -0.1138(4) 0.5615(6)
H17 H 0.2825 -0.1420 0.5623
C22 C 0.6831(8) -0.0718(4) 0.5008(6)
C23 C 0.8629(9) -0.0611(5) 0.4174(7)
H18 H 0.9176 -0.1129 0.3984
H19 H 0.9578 -0.0292 0.4704
H20 H 0.8269 -0.0343 0.3309
C24 C 0.5283(9) -0.1813(4) 0.3465(6)
H21 H 0.6561 -0.1876 0.3101
H22 H 0.4862 -0.2336 0.3784
N1 N 0.6587(7) 0.1137(3) 0.8467(4)
N2 N 0.5644(7) 0.1866(3) 1.0207(5)
N3 N 0.6388(6) -0.0286(3) 0.6138(4)
N4 N 0.5412(6) -0.1240(3) 0.4664(4)
O1 O 0.0299(6) -0.0122(3) -0.1672(4)
O2 O -0.2073(6) -0.0703(3) -0.0574(5)
O3 O 0.0024(7) 0.1002(3) 1.6115(5)
O4 O -0.1978(7) 0.1920(4) 1.5065(6)
Zn1 Zn 0.81970(7) 0.04527(3) 0.72549(5)
O1_2 O 1.0299(6) -0.0122(3) 0.8328(4)
O3_2 O 1.0024(7) 0.1002(3) 0.6115(5)
Zn1_2 Zn -0.18030(7) 0.04527(3) -0.27451(5)
Zn1_3 Zn -0.18030(7) 0.04527(3) 1.72549(5)
loop_
_geom_bond_atom_site_label_1
_geom_bond_atom_site_label_2
_geom_bond_site_symmetry_1
_geom_bond_site_symmetry_2
C1 C2 1_555 1_555
C2 C3 1_555 1_555
C3 H1 1_555 1_555
C4 C3 1_555 1_555
H2 C4 1_555 1_555
C5 C4 1_555 1_555
C6 C5 1_555 1_555
H3 C6 1_555 1_555
C7 C2 1_555 1_555
H4 C7 1_555 1_555
C8 C9 1_555 1_555
C9 C10 1_555 1_555
C10 H5 1_555 1_555
C11 C10 1_555 1_555
H6 C11 1_555 1_555
C12 C11 1_555 1_555
C13 C12 1_555 1_555
H7 C13 1_555 1_555
C14 C9 1_555 1_555
H8 C14 1_555 1_555
C15 H9 1_555 1_555
C16 C15 1_555 1_555
H10 C16 1_555 1_555
C17 C18 1_555 1_555
C18 H11 1_555 1_555
H12 C18 1_555 1_555
H13 C18 1_555 1_555
C19 C12 1_555 1_555
H14 C19 1_555 1_555
H15 C19 1_555 1_555
C20 H16 1_555 1_555
C21 C20 1_555 1_555
H17 C21 1_555 1_555
C22 C23 1_555 1_555
C23 H18 1_555 1_555
H19 C23 1_555 1_555
H20 C23 1_555 1_555
C24 C5 1_555 1_555
H21 C24 1_555 1_555
H22 C24 1_555 1_555
N1 C15 1_555 1_555
N2 C16 1_555 1_555
N3 C20 1_555 1_555
N4 C21 1_555 1_555
O1 C1 1_555 1_555
O2 C1 1_555 1_555
O3 C8 1_555 1_555
O4 C8 1_555 1_555
Zn1 N1 1_555 1_555
O1_2 Zn1 1_555 1_555
O3_2 Zn1 1_555 1_555
Zn1_2 O1 1_555 1_555
Zn1_3 O3 1_555 1_555
C6 C7 1_555 1_555
C13 C14 1_555 1_555
C17 N1 1_555 1_555
C17 N2 1_555 1_555
C19 N2 1_555 1_555
C22 N3 1_555 1_555
C22 N4 1_555 1_555
C24 N4 1_555 1_555
N3 Zn1 1_555 1_555

#END
