
#######################################################################
#
#                 Cambridge Crystallographic Data Centre
#                                CCDC 
#
#######################################################################
#
# If this CIF has been generated from an entry in the Cambridge 
# Structural Database, then it will include bibliographic, chemical, 
# crystal, experimental, refinement or atomic coordinate data resulting 
# from the CCDC's data processing and validation procedures.
#
#######################################################################

data_UGIGEY
_symmetry_cell_setting           rhombohedral
_symmetry_space_group_name_H-M   'R 3 c'
_symmetry_Int_Tables_number      161
_space_group_name_Hall           'R 3 -2"c'
loop_
_symmetry_equiv_pos_site_id
_symmetry_equiv_pos_as_xyz
1 x,y,z
2 -y,x-y,z
3 -x+y,-x,z
4 -y,-x,1/2+z
5 -x+y,y,1/2+z
6 x,x-y,1/2+z
7 2/3+x,1/3+y,1/3+z
8 2/3-y,1/3+x-y,1/3+z
9 2/3-x+y,1/3-x,1/3+z
10 2/3-y,1/3-x,5/6+z
11 2/3-x+y,1/3+y,5/6+z
12 2/3+x,1/3+x-y,5/6+z
13 1/3+x,2/3+y,2/3+z
14 1/3-y,2/3+x-y,2/3+z
15 1/3-x+y,2/3-x,2/3+z
16 1/3-y,2/3-x,1/6+z
17 1/3-x+y,2/3+y,1/6+z
18 1/3+x,2/3+x-y,1/6+z
_cell_length_a                   28.8047(19)
_cell_length_b                   28.8047(19)
_cell_length_c                   8.8493(8)
_cell_angle_alpha                90
_cell_angle_beta                 90
_cell_angle_gamma                120
_cell_volume                     6358.67
loop_
_atom_site_label
_atom_site_type_symbol
_atom_site_fract_x
_atom_site_fract_y
_atom_site_fract_z
Mn1 Mn 0.66747(3) 0.75939(3) 0.14597(12)
C1 C 0.8124(2) 0.8905(2) 0.2539(7)
C2 C 0.77050(19) 0.89088(19) 0.1577(6)
N1 N 0.72875(17) 0.84877(17) 0.0938(5)
N2 N 0.77219(18) 0.93623(17) 0.1128(6)
C3 C 0.7317(2) 0.9245(2) 0.0149(6)
C4 C 0.7043(2) 0.86883(19) 0.0030(6)
C5 C 0.8640(2) 0.8501(2) 0.3284(9)
C6 C 0.7278(2) 0.9701(2) -0.0563(7)
C7 C 0.8227(2) 0.8489(2) 0.2434(7)
H1 H 0.8022 0.8201 0.1798
C8 C 0.8848(3) 0.9357(3) 0.4298(8)
H2 H 0.9060 0.9651 0.4907
O1 O 0.75523(15) 1.01467(14) 0.0085(4)
C9 C 0.8429(2) 0.9341(2) 0.3477(7)
H3 H 0.8353 0.9618 0.3553
O2 O 0.87659(18) 0.8105(2) 0.3312(7)
H4 H 0.8561 0.7859 0.2757
O3 O 0.69956(16) 0.96188(16) -0.1708(5)
C10 C 0.8950(3) 0.8943(3) 0.4216(10)
H5 H 0.9228 0.8955 0.4782
O4 O 0.63237(16) 0.78251(15) -0.0336(5)
C11 C 0.6543(2) 0.8302(2) -0.0801(6)
O5 O 0.63627(14) 0.84491(16) -0.1852(5)
O6 O 0.69538(18) 0.72225(17) -0.0141(6)
H6 H 0.7265 0.7436 -0.0376
H7 H 0.7960(15) 0.9674(9) 0.144(6)
Mn1E Mn 0.66747(3) 0.90808(4) -0.35403(12)
Mn1J Mn 0.75859(4) 1.09272(3) -0.02070(12)
O1P O 0.59277(21) 0.68134(14) 0.1752(4)
O3E O 0.69956(16) 0.73768(23) 0.3292(5)
O5E O 0.63627(14) 0.79136(21) 0.3148(5)
O7 O 0.8396(2) 1.03977(19) 0.2321(7)
H8 H 0.8551(16) 1.054(3) 0.147(3)
O8 O 0.7971(3) 1.0546(3) 0.5098(7)
H9 H 0.8047(14) 1.049(2) 0.420(3)
loop_
_geom_bond_atom_site_label_1
_geom_bond_atom_site_label_2
_geom_bond_site_symmetry_1
_geom_bond_site_symmetry_2
Mn1 N1 1_555 1_555
C1 C2 1_555 1_555
C2 N1 1_555 1_555
N1 C4 1_555 1_555
N2 C2 1_555 1_555
C3 N2 1_555 1_555
C4 C3 1_555 1_555
C5 C7 1_555 1_555
C6 C3 1_555 1_555
C7 C1 1_555 1_555
H1 C7 1_555 1_555
C8 H2 1_555 1_555
O1 C6 1_555 1_555
C9 C1 1_555 1_555
H3 C9 1_555 1_555
O2 C5 1_555 1_555
H4 O2 1_555 1_555
O3 C6 1_555 1_555
C10 C5 1_555 1_555
H5 C10 1_555 1_555
O4 Mn1 1_555 1_555
C11 C4 1_555 1_555
O5 C11 1_555 1_555
O6 Mn1 1_555 1_555
H6 O6 1_555 1_555
H7 N2 1_555 1_555
O7 H8 1_555 1_555
O8 H9 1_555 1_555
Mn1E O3 1_555 1_555
Mn1J O1 1_555 1_555
O1P Mn1 1_555 1_555
O3E Mn1 1_555 1_555
O5E Mn1 1_555 1_555
C8 C9 1_555 1_555
C8 C10 1_555 1_555
O4 C11 1_555 1_555
O5 Mn1E 1_555 1_555

#END
