
#######################################################################
#
#                 Cambridge Crystallographic Data Centre
#                                CCDC 
#
#######################################################################
#
# If this CIF has been generated from an entry in the Cambridge 
# Structural Database, then it will include bibliographic, chemical, 
# crystal, experimental, refinement or atomic coordinate data resulting 
# from the CCDC's data processing and validation procedures.
#
#######################################################################

data_UGIHEZ
_symmetry_cell_setting           monoclinic
_symmetry_space_group_name_H-M   'P 21/c'
_symmetry_Int_Tables_number      14
_space_group_name_Hall           '-P 2ybc'
loop_
_symmetry_equiv_pos_site_id
_symmetry_equiv_pos_as_xyz
1 x,y,z
2 -x,1/2+y,1/2-z
3 -x,-y,-z
4 x,1/2-y,1/2+z
_cell_length_a                   10.0929(15)
_cell_length_b                   14.736(2)
_cell_length_c                   16.010(2)
_cell_angle_alpha                90
_cell_angle_beta                 99.655(2)
_cell_angle_gamma                90
_cell_volume                     2347.42
loop_
_atom_site_label
_atom_site_type_symbol
_atom_site_fract_x
_atom_site_fract_y
_atom_site_fract_z
Cd1 Cd 0.18726(2) 0.18094(2) 0.02188(2)
N1 N 0.1189(3) 0.1231(2) 0.13926(18)
N2 N 0.1174(3) 0.0691(2) 0.2676(2)
N3 N 0.3632(3) -0.0706(2) -0.06469(19)
N4 N 0.2799(3) 0.0435(2) -0.00262(18)
O1 O 0.6170(3) -0.2329(2) 0.52758(19)
O2 O 0.6926(3) -0.2013(2) 0.4111(2)
O3 O -0.0722(3) -0.3177(2) -0.3832(2)
O4 O 0.0114(3) -0.2349(3) -0.47400(19)
C1 C 0.1734(3) 0.1312(2) 0.2218(2)
C2 C 0.0247(4) 0.0198(3) 0.2133(3)
H1 H -0.0275 -0.0279 0.2277
C3 C 0.2777(5) 0.1965(3) 0.2588(3)
H2 H 0.3079 0.2302 0.2141
H3 H 0.3522 0.1644 0.2907
H4 H 0.2410 0.2376 0.2955
C4 C 0.1553(4) 0.0535(3) 0.3587(2)
H5 H 0.0784 0.0291 0.3803
H6 H 0.1781 0.1112 0.3865
C5 C 0.0240(4) 0.0539(3) 0.1352(3)
H7 H -0.0313 0.0344 0.0862
C6 C 0.3267(3) 0.0178(2) -0.0710(2)
C7 C 0.2848(4) -0.0330(3) 0.0483(2)
H8 H 0.2571 -0.0353 0.1008
C8 C 0.3356(4) -0.1033(3) 0.0104(3)
H9 H 0.3491 -0.1622 0.0311
C9 C 0.3408(4) 0.0766(3) -0.1460(3)
H10 H 0.2936 0.0492 -0.1969
H11 H 0.4341 0.0826 -0.1502
H12 H 0.3036 0.1355 -0.1388
C10 C 0.4206(4) -0.1231(3) -0.1293(2)
H13 H 0.4728 -0.1733 -0.1018
H14 H 0.4810 -0.0843 -0.1544
C11 C 0.6093(4) -0.1896(2) 0.4606(3)
C12 C 0.4931(3) -0.1265(2) 0.4336(2)
C13 C 0.2725(3) -0.0108(2) 0.3815(2)
C14 C 0.3572(4) -0.0373(3) 0.3249(2)
H15 H 0.3397 -0.0173 0.2690
C15 C 0.3003(4) -0.0435(3) 0.4644(2)
H16 H 0.2456 -0.0267 0.5032
C16 C 0.4661(4) -0.0927(3) 0.3514(2)
H17 H 0.5229 -0.1079 0.3134
C17 C 0.4093(4) -0.1011(3) 0.4897(2)
H18 H 0.4260 -0.1227 0.5450
C18 C 0.0137(4) -0.2629(2) -0.4005(2)
C19 C 0.1185(3) -0.2284(2) -0.3289(2)
C20 C 0.2154(5) -0.1683(4) -0.3475(3)
H19 H 0.2171 -0.1513 -0.4032
C21 C 0.1189(4) -0.2543(3) -0.2463(3)
H20 H 0.0546 -0.2950 -0.2337
C22 C 0.2147(4) -0.2199(3) -0.1814(2)
H21 H 0.2132 -0.2369 -0.1256
C23 C 0.3110(4) -0.1336(3) -0.2811(3)
H22 H 0.3741 -0.0918 -0.2931
C24 C 0.3127(4) -0.1603(3) -0.1996(2)
Cd1A Cd -0.18726(2) -0.31906(2) -0.52188(2)
Cd1A_2 Cd 0.81274(2) -0.31906(2) 0.47812(2)
O1A O 0.3830(3) 0.2671(2) -0.02758(19)
O2A O 0.3074(3) 0.2987(2) 0.0889(2)
O3A O 0.0722(3) 0.1823(2) -0.1168(2)
O4A O -0.0114(3) 0.2651(3) -0.02600(19)
O5 O 0.0706(8) 0.4021(5) 0.1084(5)
H23 H 0.152(3) 0.392(8) 0.109(5)
H24 H 0.049(7) 0.411(7) 0.0569(19)
loop_
_geom_bond_atom_site_label_1
_geom_bond_atom_site_label_2
_geom_bond_site_symmetry_1
_geom_bond_site_symmetry_2
Cd1 N1 1_555 1_555
N1 C1 1_555 1_555
N2 C1 1_555 1_555
N3 C6 1_555 1_555
N4 Cd1 1_555 1_555
O1 C11 1_555 1_555
O2 C11 1_555 1_555
O3 C18 1_555 1_555
O4 C18 1_555 1_555
C1 C3 1_555 1_555
C2 N2 1_555 1_555
H1 C2 1_555 1_555
C3 H2 1_555 1_555
H3 C3 1_555 1_555
H4 C3 1_555 1_555
C4 N2 1_555 1_555
H5 C4 1_555 1_555
H6 C4 1_555 1_555
C5 N1 1_555 1_555
H7 C5 1_555 1_555
C6 N4 1_555 1_555
C7 N4 1_555 1_555
H8 C7 1_555 1_555
C8 N3 1_555 1_555
H9 C8 1_555 1_555
C9 C6 1_555 1_555
H10 C9 1_555 1_555
H11 C9 1_555 1_555
H12 C9 1_555 1_555
C10 N3 1_555 1_555
H13 C10 1_555 1_555
H14 C10 1_555 1_555
C11 C12 1_555 1_555
C12 C16 1_555 1_555
C13 C4 1_555 1_555
C14 C13 1_555 1_555
H15 C14 1_555 1_555
C15 C13 1_555 1_555
H16 C15 1_555 1_555
C16 C14 1_555 1_555
H17 C16 1_555 1_555
C17 C12 1_555 1_555
H18 C17 1_555 1_555
C18 C19 1_555 1_555
C19 C20 1_555 1_555
C20 H19 1_555 1_555
C21 C19 1_555 1_555
H20 C21 1_555 1_555
C22 C21 1_555 1_555
H21 C22 1_555 1_555
C23 C20 1_555 1_555
H22 C23 1_555 1_555
C24 C10 1_555 1_555
O5 H23 1_555 1_555
H24 O5 1_555 1_555
Cd1A O3 1_555 1_555
Cd1A_2 O1 1_555 1_555
O1A Cd1 1_555 1_555
O2A Cd1 1_555 1_555
O3A Cd1 1_555 1_555
O4A Cd1 1_555 1_555
O2 Cd1A_2 1_555 1_555
O4 Cd1A 1_555 1_555
C2 C5 1_555 1_555
C7 C8 1_555 1_555
C15 C17 1_555 1_555
C22 C24 1_555 1_555
C23 C24 1_555 1_555

#END
