
#######################################################################
#
#                 Cambridge Crystallographic Data Centre
#                                CCDC 
#
#######################################################################
#
# If this CIF has been generated from an entry in the Cambridge 
# Structural Database, then it will include bibliographic, chemical, 
# crystal, experimental, refinement or atomic coordinate data resulting 
# from the CCDC's data processing and validation procedures.
#
#######################################################################

data_UGILED
_symmetry_cell_setting           triclinic
_symmetry_space_group_name_H-M   'P -1'
_symmetry_Int_Tables_number      2
_space_group_name_Hall           '-P 1'
loop_
_symmetry_equiv_pos_site_id
_symmetry_equiv_pos_as_xyz
1 x,y,z
2 -x,-y,-z
_cell_length_a                   7.5828(15)
_cell_length_b                   10.146(2)
_cell_length_c                   10.267(2)
_cell_angle_alpha                109.24(3)
_cell_angle_beta                 102.92(3)
_cell_angle_gamma                106.82(3)
_cell_volume                     667.937
loop_
_atom_site_label
_atom_site_type_symbol
_atom_site_fract_x
_atom_site_fract_y
_atom_site_fract_z
C1 C 0.9079(2) 0.12552(19) 0.27784(18)
C2 C 1.1510(2) 0.16744(18) 0.48447(19)
C3 C 0.4070(3) 0.26687(18) 0.1940(2)
H1 H 0.3332 0.2038 0.2275
C4 C 0.5870(3) 0.3497(2) 0.0826(3)
H2 H 0.6627 0.3541 0.0231
C5 C 0.5516(3) 0.4679(2) 0.1644(3)
H3 H 0.5967 0.5662 0.1707
C6 C 0.3586(3) 0.50250(19) 0.3339(2)
H4 H 0.4606 0.6028 0.3973
H5 H 0.3235 0.4531 0.3961
C7 C 0.1796(3) 0.5188(2) 0.2512(2)
H6 H 0.0695 0.4207 0.2014
H7 H 0.2071 0.5522 0.1770
C8 C 0.1240(3) 0.6328(2) 0.3555(2)
H8 H -0.0117 0.6151 0.3078
H9 H 0.1318 0.6145 0.4432
C9 C 0.2528(3) 0.79829(18) 0.40188(19)
H10 H 0.2150 0.8629 0.4738
H11 H 0.3890 0.8165 0.4486
C10 C 0.0687(3) 0.8338(2) 0.1858(2)
H12 H -0.0564 0.8039 0.1914
C11 C 0.1220(3) 0.8808(2) 0.0863(2)
H13 H 0.0373 0.8876 0.0102
C12 C 0.3830(2) 0.89022(17) 0.23031(17)
H14 H 0.5126 0.9048 0.2742
Co1 Co 0.5000 0.0000 0.0000
N1 N 0.7610(2) 0.06849(18) 0.18152(17)
N2 N 1.0810(3) 0.2048(2) 0.3808(2)
N3 N 1.2312(3) 0.1511(2) 0.5834(2)
N4 N 0.4942(2) 0.22234(15) 0.10082(16)
N5 N 0.4370(2) 0.41444(15) 0.23542(17)
N6 N 0.2358(2) 0.83913(15) 0.27674(15)
N7 N 0.3206(2) 0.91727(15) 0.11446(15)
C1A C 0.0921(2) -0.12552(19) -0.27784(18)
C2A C -0.1510(2) -0.16744(18) -0.48447(19)
C3A C 0.5930(3) -0.26687(18) -0.1940(2)
H1A H 0.6668 -0.2038 -0.2275
C4A C 0.4130(3) -0.3497(2) -0.0826(3)
H2A H 0.3373 -0.3541 -0.0231
C5A C 0.4484(3) -0.4679(2) -0.1644(3)
H3A H 0.4033 -0.5662 -0.1707
C6A C 0.6414(3) -0.50250(19) -0.3339(2)
H4A H 0.5394 -0.6028 -0.3973
H5A H 0.6765 -0.4531 -0.3961
C7A C 0.8204(3) -0.5188(2) -0.2512(2)
H6A H 0.9305 -0.4207 -0.2014
H7A H 0.7929 -0.5522 -0.1770
C8A C 0.8760(3) -0.6328(2) -0.3555(2)
H8A H 1.0117 -0.6151 -0.3078
H9A H 0.8682 -0.6145 -0.4432
C9A C 0.7472(3) -0.79829(18) -0.40188(19)
H10A H 0.7850 -0.8629 -0.4738
H11A H 0.6110 -0.8165 -0.4486
C10A C 0.9313(3) -0.8338(2) -0.1858(2)
H12A H 1.0564 -0.8039 -0.1914
C11A C 0.8780(3) -0.8808(2) -0.0863(2)
H13A H 0.9627 -0.8876 -0.0102
C12A C 0.6170(2) -0.89022(17) -0.23031(17)
H14A H 0.4874 -0.9048 -0.2742
N1A N 0.2390(2) -0.06849(18) -0.18152(17)
N2A N -0.0810(3) -0.2048(2) -0.3808(2)
N3A N -0.2312(3) -0.1511(2) -0.5834(2)
N4A N 0.5058(2) -0.22234(15) -0.10082(16)
N5A N 0.5630(2) -0.41444(15) -0.23542(17)
N6A N 0.7642(2) -0.83913(15) -0.27674(15)
N7A N 0.6794(2) -0.91727(15) -0.11446(15)
Co1_2 Co 0.5000 -1.0000 0.0000
Co1_3 Co 0.5000 1.0000 0.0000
N7_2 N 0.3206(2) -0.08273(15) 0.11446(15)
N7A_2 N 0.6794(2) 0.08273(15) -0.11446(15)
loop_
_geom_bond_atom_site_label_1
_geom_bond_atom_site_label_2
_geom_bond_site_symmetry_1
_geom_bond_site_symmetry_2
C1 N1 1_555 1_555
C2 N2 1_555 1_555
C3 H1 1_555 1_555
C4 H2 1_555 1_555
C5 C4 1_555 1_555
H3 C5 1_555 1_555
C6 H4 1_555 1_555
H5 C6 1_555 1_555
C7 C6 1_555 1_555
H6 C7 1_555 1_555
H7 C7 1_555 1_555
C8 C7 1_555 1_555
H8 C8 1_555 1_555
H9 C8 1_555 1_555
C9 C8 1_555 1_555
H10 C9 1_555 1_555
H11 C9 1_555 1_555
C10 H12 1_555 1_555
C11 C10 1_555 1_555
H13 C11 1_555 1_555
C12 H14 1_555 1_555
Co1 N1 1_555 1_555
N2 C1 1_555 1_555
N3 C2 1_555 1_555
N4 C3 1_555 1_555
N5 C3 1_555 1_555
N6 C9 1_555 1_555
N7 C11 1_555 1_555
C1A N1A 1_555 1_555
C2A N2A 1_555 1_555
C3A H1A 1_555 1_555
C4A H2A 1_555 1_555
C5A C4A 1_555 1_555
H3A C5A 1_555 1_555
C6A H4A 1_555 1_555
H5A C6A 1_555 1_555
C7A C6A 1_555 1_555
H6A C7A 1_555 1_555
H7A C7A 1_555 1_555
C8A C7A 1_555 1_555
H8A C8A 1_555 1_555
H9A C8A 1_555 1_555
C9A C8A 1_555 1_555
H10A C9A 1_555 1_555
H11A C9A 1_555 1_555
C10A H12A 1_555 1_555
C11A C10A 1_555 1_555
H13A C11A 1_555 1_555
C12A H14A 1_555 1_555
N1A Co1 1_555 1_555
N2A C1A 1_555 1_555
N3A C2A 1_555 1_555
N4A Co1 1_555 1_555
N5A C3A 1_555 1_555
N6A C9A 1_555 1_555
N7A C11A 1_555 1_555
Co1_2 N7A 1_555 1_555
Co1_3 N7 1_555 1_555
N7_2 Co1 1_555 1_555
N7A_2 Co1 1_555 1_555
C4 N4 1_555 1_555
C5 N5 1_555 1_555
C6 N5 1_555 1_555
C10 N6 1_555 1_555
C12 N6 1_555 1_555
C12 N7 1_555 1_555
Co1 N4 1_555 1_555
C3A N4A 1_555 1_555
C4A N4A 1_555 1_555
C5A N5A 1_555 1_555
C6A N5A 1_555 1_555
C10A N6A 1_555 1_555
C12A N6A 1_555 1_555
C12A N7A 1_555 1_555

#END
