
#######################################################################
#
#                 Cambridge Crystallographic Data Centre
#                                CCDC 
#
#######################################################################
#
# If this CIF has been generated from an entry in the Cambridge 
# Structural Database, then it will include bibliographic, chemical, 
# crystal, experimental, refinement or atomic coordinate data resulting 
# from the CCDC's data processing and validation procedures.
#
#######################################################################

data_UGOKUY
_symmetry_cell_setting           triclinic
_symmetry_space_group_name_H-M   'P -1'
_symmetry_Int_Tables_number      2
_space_group_name_Hall           '-P 1'
loop_
_symmetry_equiv_pos_site_id
_symmetry_equiv_pos_as_xyz
1 x,y,z
2 -x,-y,-z
_cell_length_a                   5.3065(1)
_cell_length_b                   6.63728(13)
_cell_length_c                   9.13815(16)
_cell_angle_alpha                91.7935(14)
_cell_angle_beta                 97.5826(15)
_cell_angle_gamma                93.3231(13)
_cell_volume                     318.255
loop_
_atom_site_label
_atom_site_type_symbol
_atom_site_fract_x
_atom_site_fract_y
_atom_site_fract_z
Fe1 Fe 0.4767(7) 0.2932(5) 0.2402(4)
C1 C 0.1217(11) 0.0709(9) 0.0116(7)
C2 C 0.3783(11) 0.4393(9) 0.5137(7)
C3 C 0.3823(11) 0.5561(8) 0.0121(7)
O1 O 0.2081(13) 0.1577(9) -0.0926(8)
O2 O 0.2318(13) 0.0870(8) 0.1491(7)
O3 O 0.2838(11) 0.3073(8) 0.4159(7)
O4 O 0.2906(13) 0.4803(9) 0.6345(7)
O5 O 0.2927(11) 0.5127(9) 0.1302(7)
O6 O 0.2950(13) 0.6773(9) -0.0780(8)
O7 O 0.6917(14) 0.0816(10) 0.3325(9)
H1 H 0.784(3) 0.113(2) 0.431(2)
H2 H 0.786(3) -0.008(3) 0.2641(17)
C1A C -0.1217(11) -0.0709(9) -0.0116(7)
O2A O -0.2318(13) -0.0870(8) -0.1491(7)
O1A O -0.2081(13) -0.1577(9) 0.0926(8)
C2A C 0.6217(11) 0.5607(9) 0.4863(7)
O3A O 0.7162(11) 0.6927(8) 0.5841(7)
O4A O 0.7094(13) 0.5197(9) 0.3655(7)
C3A C 0.6177(11) 0.4439(8) -0.0121(7)
O5A O 0.7073(11) 0.4873(9) -0.1302(7)
O6A O 0.7050(13) 0.3227(9) 0.0780(8)
Fe1A Fe -0.4767(7) -0.2932(5) -0.2402(4)
O7A O -0.6917(14) -0.0816(10) -0.3325(9)
H1A H -0.784(3) -0.113(2) -0.431(2)
H2A H -0.786(3) 0.008(3) -0.2641(17)
Fe1A_2 Fe 0.5233(7) 0.7068(5) -0.2402(4)
Fe1A_3 Fe 0.5233(7) 0.7068(5) 0.7598(4)
O3A_2 O -0.2838(11) -0.3073(8) -0.4159(7)
O4_2 O -0.7094(13) -0.5197(9) -0.3655(7)
O5A_2 O -0.2927(11) -0.5127(9) -0.1302(7)
O6_2 O -0.7050(13) -0.3227(9) -0.0780(8)
O8 O 0.1614(15) 0.7980(11) 0.3891(8)
H3 H 0.202(2) 0.850(2) 0.3011(15)
H4 H 0.002(2) 0.698(2) 0.3548(16)
loop_
_geom_bond_atom_site_label_1
_geom_bond_atom_site_label_2
_geom_bond_site_symmetry_1
_geom_bond_site_symmetry_2
Fe1 O2 1_555 1_555
C1 O1 1_555 1_555
C2 O3 1_555 1_555
C3 O5 1_555 1_555
O2 C1 1_555 1_555
O3 Fe1 1_555 1_555
O4 C2 1_555 1_555
O5 Fe1 1_555 1_555
O6 C3 1_555 1_555
O7 Fe1 1_555 1_555
H1 O7 1_555 1_555
H2 O7 1_555 1_555
O8 H3 1_555 1_555
H4 O8 1_555 1_555
C1A C1 1_555 1_555
O2A C1A 1_555 1_555
O1A C1A 1_555 1_555
C2A C2 1_555 1_555
O3A C2A 1_555 1_555
O4A Fe1 1_555 1_555
C3A C3 1_555 1_555
O5A C3A 1_555 1_555
O6A Fe1 1_555 1_555
Fe1A O2A 1_555 1_555
O7A Fe1A 1_555 1_555
H1A O7A 1_555 1_555
H2A O7A 1_555 1_555
Fe1A_2 O6 1_555 1_555
Fe1A_3 O4 1_555 1_555
O3A_2 Fe1A 1_555 1_555
O4_2 Fe1A 1_555 1_555
O5A_2 Fe1A 1_555 1_555
O6_2 Fe1A 1_555 1_555
C2A O4A 1_555 1_555
O3A Fe1A_3 1_555 1_555
C3A O6A 1_555 1_555
O5A Fe1A_2 1_555 1_555

#END
