
#######################################################################
#
#                 Cambridge Crystallographic Data Centre
#                                CCDC 
#
#######################################################################
#
# If this CIF has been generated from an entry in the Cambridge 
# Structural Database, then it will include bibliographic, chemical, 
# crystal, experimental, refinement or atomic coordinate data resulting 
# from the CCDC's data processing and validation procedures.
#
#######################################################################

data_UGOSIS
_symmetry_cell_setting           monoclinic
_symmetry_space_group_name_H-M   'P 21/c'
_symmetry_Int_Tables_number      14
_space_group_name_Hall           '-P 2ybc'
loop_
_symmetry_equiv_pos_site_id
_symmetry_equiv_pos_as_xyz
1 x,y,z
2 x,1/2-y,1/2+z
3 -x,-y,-z
4 -x,1/2+y,1/2-z
_cell_length_a                   6.5762(5)
_cell_length_b                   16.1888(11)
_cell_length_c                   11.6530(8)
_cell_angle_alpha                90
_cell_angle_beta                 91.3370(10)
_cell_angle_gamma                90
_cell_volume                     1240.25
loop_
_atom_site_label
_atom_site_type_symbol
_atom_site_fract_x
_atom_site_fract_y
_atom_site_fract_z
Cu1 Cu 0.5000 0.5000 0.5000
C1 C 0.4292(5) 0.49444(16) 0.2487(3)
H1 H 0.5646 0.5110 0.2505
C2 C 0.3354(5) 0.48060(18) 0.1429(3)
C3 C 0.1344(5) 0.4546(2) 0.1402(3)
H2 H 0.0668 0.4439 0.0708
C4 C 0.0365(5) 0.4451(2) 0.2435(3)
H3 H -0.0985 0.4279 0.2440
C5 C 0.1389(5) 0.4609(2) 0.3445(3)
H4 H 0.0706 0.4546 0.4129
C6 C 0.4492(6) 0.49371(18) 0.0410(3)
C7 C 0.3412(5) 0.34741(19) 0.5958(2)
C8 C 0.4789(5) 0.2936(2) 0.5505(3)
H5 H 0.4687 0.2381 0.5699
C9 C 0.6350(5) 0.31721(19) 0.4763(3)
C10 C 0.1903(6) 0.3146(2) 0.6824(3)
C11 C 0.7625(7) 0.2475(2) 0.4252(4)
N1 N 0.3348(4) 0.48516(14) 0.3489(2)
O1 O 0.3177(3) 0.42371(12) 0.57908(16)
O2 O 0.6800(3) 0.38696(13) 0.44449(18)
F1 F 0.0021(4) 0.33520(19) 0.6551(2)
F2 F 0.2239(4) 0.34842(17) 0.78365(19)
F3 F 0.1968(6) 0.23503(15) 0.6972(3)
F4 F 0.7767(6) 0.18239(18) 0.4929(4)
F5 F 0.9500(4) 0.26967(17) 0.4114(3)
F6 F 0.6921(6) 0.2235(3) 0.3314(4)
C6B C 0.5508(6) 0.50629(18) -0.0410(3)
C2B C 0.6646(5) 0.51940(18) -0.1429(3)
C1B C 0.5708(5) 0.50556(16) -0.2487(3)
H1B H 0.4354 0.4890 -0.2505
N1B N 0.6652(4) 0.51484(14) -0.3489(2)
C5B C 0.8611(5) 0.5391(2) -0.3445(3)
C4B C 0.9635(5) 0.5549(2) -0.2435(3)
C3B C 0.8656(5) 0.5454(2) -0.1402(3)
H2B H 0.9332 0.5561 -0.0708
H3B H 1.0985 0.5721 -0.2440
H4B H 0.9294 0.5454 -0.4129
C7B C 0.6588(5) 0.65259(19) 0.4042(2)
C8B C 0.5211(5) 0.7064(2) 0.4495(3)
H5B H 0.5313 0.7619 0.4301
C9B C 0.3650(5) 0.68279(19) 0.5237(3)
C10B C 0.8097(6) 0.6854(2) 0.3176(3)
C11B C 0.2375(7) 0.7525(2) 0.5748(4)
O1B O 0.6823(3) 0.57629(12) 0.42092(16)
O2B O 0.3200(3) 0.61304(13) 0.55551(18)
F1B F 0.9979(4) 0.66480(19) 0.3449(2)
F2B F 0.7761(4) 0.65158(17) 0.21635(19)
F3B F 0.8032(6) 0.76497(15) 0.3028(3)
F4B F 0.2233(6) 0.81761(18) 0.5071(4)
F5B F 0.0500(4) 0.73033(17) 0.5886(3)
F6B F 0.3079(6) 0.7765(3) 0.6686(4)
N1B_2 N 0.6652(4) 0.51484(14) 0.6511(2)
Cu1_2 Cu 0.5000 0.5000 -0.5000
loop_
_geom_bond_atom_site_label_1
_geom_bond_atom_site_label_2
_geom_bond_site_symmetry_1
_geom_bond_site_symmetry_2
Cu1 N1 1_555 1_555
C1 H1 1_555 1_555
C2 C1 1_555 1_555
C3 C2 1_555 1_555
H2 C3 1_555 1_555
C4 C3 1_555 1_555
H3 C4 1_555 1_555
C5 C4 1_555 1_555
H4 C5 1_555 1_555
C6 C2 1_555 1_555
C7 C8 1_555 1_555
C8 H5 1_555 1_555
C9 C8 1_555 1_555
C10 C7 1_555 1_555
C11 C9 1_555 1_555
N1 C1 1_555 1_555
O1 Cu1 1_555 1_555
O2 Cu1 1_555 1_555
F1 C10 1_555 1_555
F2 C10 1_555 1_555
F3 C10 1_555 1_555
F4 C11 1_555 1_555
F5 C11 1_555 1_555
F6 C11 1_555 1_555
C6B C6 1_555 1_555
C2B C6B 1_555 1_555
C1B C2B 1_555 1_555
H1B C1B 1_555 1_555
N1B C1B 1_555 1_555
C5B N1B 1_555 1_555
C4B C5B 1_555 1_555
C3B C2B 1_555 1_555
H2B C3B 1_555 1_555
H3B C4B 1_555 1_555
H4B C5B 1_555 1_555
C7B C8B 1_555 1_555
C8B H5B 1_555 1_555
C9B C8B 1_555 1_555
C10B C7B 1_555 1_555
C11B C9B 1_555 1_555
O1B Cu1 1_555 1_555
O2B Cu1 1_555 1_555
F1B C10B 1_555 1_555
F2B C10B 1_555 1_555
F3B C10B 1_555 1_555
F4B C11B 1_555 1_555
F5B C11B 1_555 1_555
F6B C11B 1_555 1_555
N1B_2 Cu1 1_555 1_555
Cu1_2 N1B 1_555 1_555
C5 N1 1_555 1_555
C7 O1 1_555 1_555
C9 O2 1_555 1_555
C4B C3B 1_555 1_555
C7B O1B 1_555 1_555
C9B O2B 1_555 1_555

#END
