
#######################################################################
#
#                 Cambridge Crystallographic Data Centre
#                                CCDC 
#
#######################################################################
#
# If this CIF has been generated from an entry in the Cambridge 
# Structural Database, then it will include bibliographic, chemical, 
# crystal, experimental, refinement or atomic coordinate data resulting 
# from the CCDC's data processing and validation procedures.
#
#######################################################################

data_UGOSAK
_symmetry_cell_setting           orthorhombic
_symmetry_space_group_name_H-M   'F d d d'
_symmetry_Int_Tables_number      70
_space_group_name_Hall           '-F 2uv 2vw'
loop_
_symmetry_equiv_pos_site_id
_symmetry_equiv_pos_as_xyz
1 x,y,z
2 x,1/2+y,1/2+z
3 x,1/4-y,1/4-z
4 1/2+x,y,1/2+z
5 1/4-x,y,1/4-z
6 1/2+x,1/2+y,z
7 1/4-x,1/4-y,z
8 1/4+x,1/4+y,-z
9 1/4+x,-y,1/4+z
10 -x,1/4+y,1/4+z
11 1/4+x,3/4+y,1/2-z
12 1/4+x,1/2-y,3/4+z
13 3/4+x,1/4+y,1/2-z
14 1/2-x,1/4+y,3/4+z
15 3/4+x,1/2-y,1/4+z
16 1/2-x,3/4+y,1/4+z
17 -x,-y,-z
18 -x,1/2-y,1/2-z
19 -x,3/4+y,3/4+z
20 1/2-x,-y,1/2-z
21 3/4+x,-y,3/4+z
22 1/2-x,1/2-y,-z
23 3/4+x,3/4+y,-z
24 3/4-x,3/4-y,z
25 3/4-x,y,3/4-z
26 x,3/4-y,3/4-z
27 3/4-x,1/4-y,1/2+z
28 3/4-x,1/2+y,1/4-z
29 1/4-x,3/4-y,1/2+z
30 1/2+x,3/4-y,1/4-z
31 1/4-x,1/2+y,3/4-z
32 1/2+x,1/4-y,3/4-z
_cell_length_a                   9.248(4)
_cell_length_b                   19.982(7)
_cell_length_c                   35.093(16)
_cell_angle_alpha                90
_cell_angle_beta                 90
_cell_angle_gamma                90
_cell_volume                     6484.96
loop_
_atom_site_label
_atom_site_type_symbol
_atom_site_fract_x
_atom_site_fract_y
_atom_site_fract_z
N2 N 0.1250 0.6250 0.5537(2)
O2 O 0.2403(6) 0.5925(3) 0.5617(2)
O3 O 0.0478(6) 0.5882(4) 0.5319(2)
O4 O 0.078(3) 0.6794(6) 0.5636(7)
O4F O 0.172(3) 0.5706(6) 0.5636(7)
O2F O 0.0097(6) 0.6575(3) 0.5617(2)
O3F O 0.2022(6) 0.6618(4) 0.5319(2)
C7 C 0.059(6) 0.7790(19) 0.6380(10)
O5 O -0.036(3) 0.8364(12) 0.6521(5)
C7D C 0.191(6) 0.7790(19) 0.6120(10)
O5D O 0.286(3) 0.8364(12) 0.5979(5)
Co1 Co 0.6250 0.6250 0.6250
C1 C 0.5295(3) 0.49803(12) 0.58131(7)
H1 H 0.4623 0.4958 0.6010
C2 C 0.5278(3) 0.44857(13) 0.55374(8)
C3 C 0.6292(3) 0.45088(18) 0.52457(11)
H2 H 0.6304 0.4185 0.5055
C4 C 0.7282(4) 0.50259(17) 0.52463(10)
H3 H 0.7990 0.5049 0.5059
C5 C 0.7214(3) 0.55032(15) 0.55244(9)
H4 H 0.7874 0.5854 0.5517
C6 C 0.4199(4) 0.39651(16) 0.55473(9)
N1 N 0.6239(2) 0.54900(11) 0.58089(7)
O1 O 0.8519(3) 0.6250 0.6250
H5 H 0.911(4) 0.646(2) 0.6113(13)
C6W C 0.3301(4) 0.35349(16) 0.55473(9)
C2W C 0.2222(3) 0.30143(13) 0.55374(8)
C1W C 0.2205(3) 0.25197(12) 0.58131(7)
H1W H 0.2877 0.2542 0.6010
N1W N 0.1261(2) 0.20100(11) 0.58089(7)
C5W C 0.0286(3) 0.19968(15) 0.55244(9)
C4W C 0.0218(4) 0.24741(17) 0.52463(10)
C3W C 0.1208(3) 0.29912(18) 0.52457(11)
H2W H 0.1196 0.3315 0.5055
H3W H -0.0490 0.2451 0.5059
H4W H -0.0374 0.1646 0.5517
H5B H 0.911(4) 0.604(2) 0.6387(13)
C1B C 0.5295(3) 0.75197(12) 0.66869(7)
H1B H 0.4623 0.7542 0.6490
C2B C 0.5278(3) 0.80143(13) 0.69626(8)
C3B C 0.6292(3) 0.79912(18) 0.72543(11)
H2B H 0.6304 0.8315 0.7445
C4B C 0.7282(4) 0.74741(17) 0.72537(10)
H3B H 0.7990 0.7451 0.7441
C5B C 0.7214(3) 0.69968(15) 0.69756(9)
H4B H 0.7874 0.6646 0.6983
C6B C 0.4199(4) 0.85349(16) 0.69527(9)
N1B N 0.6239(2) 0.70100(11) 0.66911(7)
C6AA C 0.3301(4) 0.89651(16) 0.69527(9)
C2AA C 0.2222(3) 0.94857(13) 0.69626(8)
C1AA C 0.2205(3) 0.99803(12) 0.66869(7)
H1AA H 0.2877 0.9958 0.6490
N1AA N 0.1261(2) 1.04900(11) 0.66911(7)
C5AA C 0.0286(3) 1.05032(15) 0.69756(9)
C4AA C 0.0218(4) 1.00259(17) 0.72537(10)
C3AA C 0.1208(3) 0.95088(18) 0.72543(11)
H2AA H 0.1196 0.9185 0.7445
H3AA H -0.0490 1.0049 0.7441
H4AA H -0.0374 1.0854 0.6983
O1D O 0.3981(3) 0.6250 0.6250
H5D H 0.339(4) 0.646(2) 0.6387(13)
H5F H 0.339(4) 0.604(2) 0.6113(13)
N1D N 0.6261(2) 0.54900(11) 0.66911(7)
N1F N 0.6261(2) 0.70100(11) 0.58089(7)
Co1E Co 0.1250 0.1250 0.6250
Co1E_2 Co 0.1250 1.1250 0.6250
loop_
_geom_bond_atom_site_label_1
_geom_bond_atom_site_label_2
_geom_bond_site_symmetry_1
_geom_bond_site_symmetry_2
Co1 N1 1_555 1_555
C1 H1 1_555 1_555
C2 C1 1_555 1_555
C3 C2 1_555 1_555
H2 C3 1_555 1_555
C4 C3 1_555 1_555
H3 C4 1_555 1_555
C5 C4 1_555 1_555
H4 C5 1_555 1_555
C6 C2 1_555 1_555
N1 C1 1_555 1_555
O1 Co1 1_555 1_555
H5 O1 1_555 1_555
N2 O2 1_555 1_555
O2 O4F 1_555 1_555
O3 N2 1_555 1_555
O4 N2 1_555 1_555
C7 O5 1_555 1_555
C6W C6 1_555 1_555
C2W C6W 1_555 1_555
C1W C2W 1_555 1_555
H1W C1W 1_555 1_555
N1W C1W 1_555 1_555
C5W N1W 1_555 1_555
C4W C5W 1_555 1_555
C3W C2W 1_555 1_555
H2W C3W 1_555 1_555
H3W C4W 1_555 1_555
H4W C5W 1_555 1_555
H5B O1 1_555 1_555
O4F N2 1_555 1_555
O2F N2 1_555 1_555
O3F N2 1_555 1_555
C7D C7 1_555 1_555
O5D C7D 1_555 1_555
C1B H1B 1_555 1_555
C2B C1B 1_555 1_555
C3B C2B 1_555 1_555
H2B C3B 1_555 1_555
C4B C3B 1_555 1_555
H3B C4B 1_555 1_555
C5B C4B 1_555 1_555
H4B C5B 1_555 1_555
C6B C2B 1_555 1_555
N1B Co1 1_555 1_555
C6AA C6B 1_555 1_555
C2AA C6AA 1_555 1_555
C1AA C2AA 1_555 1_555
H1AA C1AA 1_555 1_555
N1AA C1AA 1_555 1_555
C5AA N1AA 1_555 1_555
C4AA C5AA 1_555 1_555
C3AA C2AA 1_555 1_555
H2AA C3AA 1_555 1_555
H3AA C4AA 1_555 1_555
H4AA C5AA 1_555 1_555
O1D Co1 1_555 1_555
H5D O1D 1_555 1_555
H5F O1D 1_555 1_555
N1D Co1 1_555 1_555
N1F Co1 1_555 1_555
Co1E N1W 1_555 1_555
Co1E_2 N1AA 1_555 1_555
C5 N1 1_555 1_555
O4 O2F 1_555 1_555
C4W C3W 1_555 1_555
C1B N1B 1_555 1_555
C5B N1B 1_555 1_555
C4AA C3AA 1_555 1_555

#END
