
#######################################################################
#
#                 Cambridge Crystallographic Data Centre
#                                CCDC 
#
#######################################################################
#
# If this CIF has been generated from an entry in the Cambridge 
# Structural Database, then it will include bibliographic, chemical, 
# crystal, experimental, refinement or atomic coordinate data resulting 
# from the CCDC's data processing and validation procedures.
#
#######################################################################

data_UGOTOZ
_symmetry_cell_setting           monoclinic
_symmetry_space_group_name_H-M   'C 2/c'
_symmetry_Int_Tables_number      15
_space_group_name_Hall           '-C 2yn'
loop_
_symmetry_equiv_pos_site_id
_symmetry_equiv_pos_as_xyz
1 x,y,z
2 1/2+x,1/2+y,z
3 x,-y,1/2+z
4 1/2+x,1/2-y,1/2+z
5 -x,-y,-z
6 1/2-x,1/2-y,-z
7 -x,y,1/2-z
8 1/2-x,1/2+y,1/2-z
_cell_length_a                   28.589(1)
_cell_length_b                   7.223(1)
_cell_length_c                   14.983(1)
_cell_angle_alpha                90
_cell_angle_beta                 118.90(1)
_cell_angle_gamma                90
_cell_volume                     2708.66
loop_
_atom_site_label
_atom_site_type_symbol
_atom_site_fract_x
_atom_site_fract_y
_atom_site_fract_z
C9 C 0.7242(3) 0.2480(11) 0.5564(5)
C10 C 0.7144(2) 0.1076(10) 0.4847(5)
H9 H 0.6898 0.0113 0.4752
C11 C 0.7601(3) 0.3902(10) 0.5703(5)
H10 H 0.7665 0.4851 0.6188
C12 C 0.6976(4) 0.2529(17) 0.6082(8)
C11E C 0.7399(3) 0.1098(10) 0.4297(5)
C9E C 0.7758(3) 0.2520(11) 0.4436(5)
C10E C 0.7856(2) 0.3924(10) 0.5153(5)
H9E H 0.8102 0.4887 0.5248
C12E C 0.8024(4) 0.2471(17) 0.3918(8)
H10E H 0.7335 0.0149 0.3812
Yb1 Yb 0.5000 0.30079(3) 0.2500
Co1 Co 0.58925(2) -0.21349(6) 0.52619(4)
C1 C 0.57403(15) -0.0464(5) 0.4320(3)
O1 O 0.56268(12) 0.0623(4) 0.3669(2)
C2 C 0.56106(15) 0.1599(5) 0.1044(3)
O2 O 0.54211(12) 0.1314(4) 0.1559(2)
C3 C 0.66014(19) -0.2315(6) 0.6042(4)
O3 O 0.70548(14) -0.2421(6) 0.6538(3)
C4 C 0.56265(15) 0.5735(5) 0.4680(3)
O4 O 0.54283(12) 0.4356(4) 0.4273(2)
O5 O 0.56953(10) 0.5023(4) 0.2612(2)
C5 C 0.56662(18) 0.6722(6) 0.2081(3)
H1 H 0.5431 0.7623 0.2170
H2 H 0.5520 0.6481 0.1344
C6 C 0.6222(2) 0.7465(8) 0.2529(5)
H3 H 0.6288 0.8005 0.1993
H4 H 0.6285 0.8428 0.3046
C7 C 0.6567(2) 0.5843(8) 0.3002(5)
H5 H 0.6668 0.5265 0.2520
H6 H 0.6898 0.6216 0.3623
C8 C 0.62574(17) 0.4536(7) 0.3263(3)
H7 H 0.6325 0.3246 0.3131
H8 H 0.6356 0.4653 0.3991
C1F C 0.42597(15) -0.0464(5) 0.0680(3)
O1F O 0.43732(12) 0.0623(4) 0.1331(2)
C2F C 0.43894(15) 0.1599(5) 0.3956(3)
O2F O 0.45789(12) 0.1314(4) 0.3441(2)
C4F C 0.43735(15) 0.5735(5) 0.0320(3)
O4F O 0.45717(12) 0.4356(4) 0.0727(2)
O5F O 0.43047(10) 0.5023(4) 0.2388(2)
C5F C 0.43338(18) 0.6722(6) 0.2919(3)
H1F H 0.4569 0.7623 0.2830
H2F H 0.4480 0.6481 0.3656
C6F C 0.3778(2) 0.7465(8) 0.2471(5)
H3F H 0.3712 0.8005 0.3007
H4F H 0.3715 0.8428 0.1954
C7F C 0.3433(2) 0.5843(8) 0.1998(5)
H5F H 0.3332 0.5265 0.2480
H6F H 0.3102 0.6216 0.1377
C8F C 0.37426(17) 0.4536(7) 0.1737(3)
H7F H 0.3675 0.3246 0.1869
H8F H 0.3644 0.4653 0.1009
Co1F Co 0.41075(2) -0.21349(6) -0.02619(4)
C3F C 0.33986(19) -0.2315(6) -0.1042(4)
O3F O 0.29452(14) -0.2421(6) -0.1538(3)
C2B C 0.56106(15) -0.1599(5) 0.6044(3)
C4_2 C 0.56265(15) -0.4265(5) 0.4680(3)
Co1B Co 0.58925(2) 0.21349(6) 0.02619(4)
Co1_2 Co 0.58925(2) 0.78651(6) 0.52619(4)
Co1D Co 0.41075(2) 0.21349(6) 0.47381(4)
Co1F_2 Co 0.41075(2) 0.78651(6) -0.02619(4)
C2D C 0.43894(15) -0.1599(5) -0.1044(3)
C4F_2 C 0.43735(15) -0.4265(5) 0.0320(3)
loop_
_geom_bond_atom_site_label_1
_geom_bond_atom_site_label_2
_geom_bond_site_symmetry_1
_geom_bond_site_symmetry_2
Yb1 O1 1_555 1_555
Co1 C1 1_555 1_555
C1 O1 1_555 1_555
C2 O2 1_555 1_555
O2 Yb1 1_555 1_555
C3 Co1 1_555 1_555
O3 C3 1_555 1_555
C4 O4 1_555 1_555
O4 Yb1 1_555 1_555
O5 Yb1 1_555 1_555
C5 O5 1_555 1_555
H1 C5 1_555 1_555
H2 C5 1_555 1_555
C6 C5 1_555 1_555
H3 C6 1_555 1_555
H4 C6 1_555 1_555
C7 C6 1_555 1_555
H5 C7 1_555 1_555
H6 C7 1_555 1_555
C8 O5 1_555 1_555
H7 C8 1_555 1_555
H8 C8 1_555 1_555
C9 C10 1_555 1_555
C10 H9 1_555 1_555
C11 C9 1_555 1_555
H10 C11 1_555 1_555
C12 C9 1_555 1_555
C11E C10 1_555 1_555
C9E C11E 1_555 1_555
C10E C11 1_555 1_555
H9E C10E 1_555 1_555
C12E C9E 1_555 1_555
H10E C11E 1_555 1_555
C1F O1F 1_555 1_555
O1F Yb1 1_555 1_555
C2F O2F 1_555 1_555
O2F Yb1 1_555 1_555
C4F O4F 1_555 1_555
O4F Yb1 1_555 1_555
O5F Yb1 1_555 1_555
C5F O5F 1_555 1_555
H1F C5F 1_555 1_555
H2F C5F 1_555 1_555
C6F C5F 1_555 1_555
H3F C6F 1_555 1_555
H4F C6F 1_555 1_555
C7F C6F 1_555 1_555
H5F C7F 1_555 1_555
H6F C7F 1_555 1_555
C8F O5F 1_555 1_555
H7F C8F 1_555 1_555
H8F C8F 1_555 1_555
Co1F C1F 1_555 1_555
C3F Co1F 1_555 1_555
O3F C3F 1_555 1_555
C2B Co1 1_555 1_555
C4_2 Co1 1_555 1_555
Co1B C2 1_555 1_555
Co1_2 C4 1_555 1_555
Co1D C2F 1_555 1_555
Co1F_2 C4F 1_555 1_555
C2D Co1F 1_555 1_555
C4F_2 Co1F 1_555 1_555
C7 C8 1_555 1_555
C9E C10E 1_555 1_555
C7F C8F 1_555 1_555

#END
