
#######################################################################
#
#                 Cambridge Crystallographic Data Centre
#                                CCDC 
#
#######################################################################
#
# If this CIF has been generated from an entry in the Cambridge 
# Structural Database, then it will include bibliographic, chemical, 
# crystal, experimental, refinement or atomic coordinate data resulting 
# from the CCDC's data processing and validation procedures.
#
#######################################################################

data_UGOXIX
_symmetry_cell_setting           triclinic
_symmetry_space_group_name_H-M   'P -1'
_symmetry_Int_Tables_number      2
_space_group_name_Hall           '-P 1'
loop_
_symmetry_equiv_pos_site_id
_symmetry_equiv_pos_as_xyz
1 x,y,z
2 -x,-y,-z
_cell_length_a                   7.7501(15)
_cell_length_b                   8.0181(16)
_cell_length_c                   21.348(4)
_cell_angle_alpha                94.950(4)
_cell_angle_beta                 90.845(4)
_cell_angle_gamma                97.586(3)
_cell_volume                     1309.61
loop_
_atom_site_label
_atom_site_type_symbol
_atom_site_fract_x
_atom_site_fract_y
_atom_site_fract_z
Cd1 Cd 0.77644(3) 0.74950(3) -0.002560(10)
Cd2 Cd 1.0000 0.5000 0.5000
Cd3 Cd 0.5000 0.0000 0.5000
S1 S 0.60947(10) 0.40298(11) 0.08748(4)
S2 S 0.64209(10) 0.34281(11) 0.40565(4)
S3 S 0.87369(10) 0.16261(11) 0.58666(4)
S4 S 0.87746(10) 0.08269(11) 0.90521(4)
O1 O 0.6294(4) 0.5568(4) 0.05615(12)
O2 O 0.4354(3) 0.3092(4) 0.07844(12)
O3 O 0.7429(4) 0.2953(4) 0.07197(13)
O4 O 0.5076(4) 0.4479(4) 0.42244(13)
O5 O 0.8161(3) 0.4377(4) 0.41460(12)
O6 O 0.6254(4) 0.1876(4) 0.43629(13)
O7 O 0.8371(3) 0.3103(3) 0.55651(12)
O8 O 1.0498(3) 0.1252(4) 0.57872(12)
O9 O 0.7458(3) 0.0150(3) 0.56642(11)
O10 O 1.0026(3) 0.2327(3) 0.92557(11)
O11 O 0.6998(3) 0.1148(4) 0.91247(12)
O12 O 0.9203(3) -0.0634(3) 0.93536(11)
O13 O 0.9199(4) 0.5689(4) -0.06045(13)
O14 O 0.6481(3) 0.9413(4) 0.05395(14)
O15 O 1.1709(4) 0.3235(3) 0.45321(14)
O16 O 0.5982(3) -0.1965(3) 0.43521(13)
C1 C 0.6351(4) 0.4661(4) 0.16878(15)
C2 C 0.6867(4) 0.6348(4) 0.18669(16)
H1 H 0.7010 0.7121 0.1565
C3 C 0.7176(4) 0.6897(4) 0.25049(16)
H2 H 0.7527 0.8036 0.2624
C4 C 0.6967(4) 0.5779(4) 0.29543(15)
H3 H 0.7194 0.6166 0.3374
C5 C 0.6409(4) 0.4036(4) 0.27909(14)
C6 C 0.6144(4) 0.2815(4) 0.32429(15)
C7 C 0.5629(4) 0.1133(4) 0.30649(16)
H4 H 0.5483 0.0359 0.3366
C8 C 0.5324(4) 0.0590(4) 0.24259(16)
H5 H 0.4968 -0.0548 0.2307
C9 C 0.5542(4) 0.1701(4) 0.19785(15)
H6 H 0.5324 0.1311 0.1558
C10 C 0.6096(4) 0.3450(4) 0.21407(15)
C11 C 0.8463(4) 0.2101(4) 0.66823(15)
C12 C 0.7900(5) 0.3626(4) 0.68710(16)
H7 H 0.7649 0.4345 0.6573
C13 C 0.7708(5) 0.4089(4) 0.75129(17)
H8 H 0.7312 0.5110 0.7636
C14 C 0.9066(4) 0.0357(4) 0.82343(15)
C15 C 0.9621(5) -0.1160(4) 0.80512(16)
H9 H 0.9874 -0.1873 0.8351
C16 C 0.9808(5) -0.1637(5) 0.74055(17)
H10 H 1.0203 -0.2659 0.7283
C17 C 0.9414(4) -0.0611(4) 0.69595(15)
H11 H 0.9516 -0.0958 0.6536
C18 C 0.8851(4) 0.0973(4) 0.71324(15)
C19 C 0.8676(4) 0.1488(4) 0.77873(15)
C20 C 0.8095(4) 0.3064(4) 0.79591(16)
H12 H 0.7976 0.3405 0.8382
S1A S 1.39053(10) 0.59702(11) 0.91252(4)
S2A S 1.35791(10) 0.65719(11) 0.59435(4)
O1A O 1.3706(4) 0.4432(4) 0.94385(12)
O2A O 1.5646(3) 0.6908(4) 0.92156(12)
O3A O 1.2571(4) 0.7047(4) 0.92803(13)
O4A O 1.4924(4) 0.5521(4) 0.57756(13)
O5A O 1.1839(3) 0.5623(4) 0.58540(12)
O6A O 1.3746(4) 0.8124(4) 0.56371(13)
C1A C 1.3649(4) 0.5339(4) 0.83122(15)
C2A C 1.3133(4) 0.3652(4) 0.81331(16)
H1A H 1.2990 0.2879 0.8435
C3A C 1.2824(4) 0.3103(4) 0.74951(16)
H2A H 1.2473 0.1964 0.7376
C4A C 1.3033(4) 0.4221(4) 0.70457(15)
H3A H 1.2806 0.3834 0.6626
C5A C 1.3591(4) 0.5964(4) 0.72091(14)
C6A C 1.3856(4) 0.7185(4) 0.67571(15)
C7A C 1.4371(4) 0.8867(4) 0.69351(16)
H4A H 1.4517 0.9641 0.6634
C8A C 1.4676(4) 0.9410(4) 0.75741(16)
H5A H 1.5032 1.0548 0.7693
C9A C 1.4458(4) 0.8299(4) 0.80215(15)
H6A H 1.4676 0.8689 0.8442
C10A C 1.3904(4) 0.6550(4) 0.78593(15)
S3A S 1.12631(10) 0.83739(11) 0.41334(4)
S4A S 1.12254(10) 0.91731(11) 0.09479(4)
O7A O 1.1629(3) 0.6897(3) 0.44349(12)
O8A O 0.9502(3) 0.8748(4) 0.42128(12)
O9A O 1.2542(3) 0.9850(3) 0.43358(11)
O10A O 0.9974(3) 0.7673(3) 0.07443(11)
O11A O 1.3002(3) 0.8852(4) 0.08753(12)
O12A O 1.0797(3) 1.0634(3) 0.06464(11)
C11A C 1.1537(4) 0.7899(4) 0.33177(15)
C12A C 1.2100(5) 0.6374(4) 0.31290(16)
H7A H 1.2351 0.5655 0.3427
C13A C 1.2292(5) 0.5911(4) 0.24871(17)
H8A H 1.2688 0.4890 0.2364
C14A C 1.0934(4) 0.9643(4) 0.17657(15)
C15A C 1.0379(5) 1.1160(4) 0.19488(16)
H9A H 1.0126 1.1873 0.1649
C16A C 1.0192(5) 1.1637(5) 0.25945(17)
H10A H 0.9797 1.2659 0.2717
C17A C 1.0586(4) 1.0611(4) 0.30405(15)
H11A H 1.0484 1.0958 0.3464
C18A C 1.1149(4) 0.9027(4) 0.28676(15)
C19A C 1.1324(4) 0.8512(4) 0.22127(15)
C20A C 1.1905(4) 0.6936(4) 0.20409(16)
H12A H 1.2024 0.6595 0.1618
O15A O 0.8291(4) 0.6765(3) 0.54679(14)
Cd1A Cd 1.22356(3) 0.25050(3) 1.002560(10)
O16A O 0.4018(3) 0.1965(3) 0.56479(13)
O13A O 1.0801(4) 0.4311(4) 1.06045(13)
O14A O 1.3519(3) 0.0587(4) 0.94605(14)
O2A_2 O 0.5646(3) 0.6908(4) -0.07844(12)
O12_2 O 0.9203(3) 0.9366(3) -0.06464(11)
O6A_2 O 0.3746(4) -0.1876(4) 0.56371(13)
O9A_2 O 0.2542(3) -0.0150(3) 0.43358(11)
Cd1A_2 Cd 0.22356(3) 0.25050(3) 0.002560(10)
Cd1_2 Cd 0.77644(3) -0.25050(3) 0.997440(10)
Cd1_3 Cd 1.77644(3) 0.74950(3) 0.997440(10)
Cd3_2 Cd 1.5000 1.0000 0.5000
Cd1A_3 Cd 1.22356(3) 1.25050(3) 0.002560(10)
O2_2 O 1.4354(3) 0.3092(4) 1.07844(12)
O12A_2 O 1.0797(3) 0.0634(3) 1.06464(11)
loop_
_geom_bond_atom_site_label_1
_geom_bond_atom_site_label_2
_geom_bond_site_symmetry_1
_geom_bond_site_symmetry_2
Cd1 O1 1_555 1_555
Cd2 O5 1_555 1_555
Cd3 O6 1_555 1_555
S1 O1 1_555 1_555
S2 O4 1_555 1_555
S3 O7 1_555 1_555
S4 O10 1_555 1_555
O2 S1 1_555 1_555
O3 S1 1_555 1_555
O5 S2 1_555 1_555
O6 S2 1_555 1_555
O7 Cd2 1_555 1_555
O8 S3 1_555 1_555
O9 Cd3 1_555 1_555
O10 Cd1A 1_555 1_555
O11 S4 1_555 1_555
O12 S4 1_555 1_555
O13 Cd1 1_555 1_555
O14 Cd1 1_555 1_555
O15 Cd2 1_555 1_555
O16 Cd3 1_555 1_555
C1 S1 1_555 1_555
C2 C1 1_555 1_555
H1 C2 1_555 1_555
C3 C2 1_555 1_555
H2 C3 1_555 1_555
C4 C3 1_555 1_555
H3 C4 1_555 1_555
C5 C4 1_555 1_555
C6 S2 1_555 1_555
C7 C6 1_555 1_555
H4 C7 1_555 1_555
C8 C7 1_555 1_555
H5 C8 1_555 1_555
C9 C8 1_555 1_555
H6 C9 1_555 1_555
C10 C1 1_555 1_555
C11 S3 1_555 1_555
C12 C11 1_555 1_555
H7 C12 1_555 1_555
C13 C12 1_555 1_555
H8 C13 1_555 1_555
C14 S4 1_555 1_555
C15 C14 1_555 1_555
H9 C15 1_555 1_555
C16 C15 1_555 1_555
H10 C16 1_555 1_555
C17 C16 1_555 1_555
H11 C17 1_555 1_555
C18 C11 1_555 1_555
C19 C14 1_555 1_555
C20 C13 1_555 1_555
H12 C20 1_555 1_555
S1A O1A 1_555 1_555
S2A O4A 1_555 1_555
O1A Cd1A 1_555 1_555
O2A S1A 1_555 1_555
O3A S1A 1_555 1_555
O5A Cd2 1_555 1_555
O6A S2A 1_555 1_555
C1A S1A 1_555 1_555
C2A C1A 1_555 1_555
H1A C2A 1_555 1_555
C3A C2A 1_555 1_555
H2A C3A 1_555 1_555
C4A C3A 1_555 1_555
H3A C4A 1_555 1_555
C5A C4A 1_555 1_555
C6A S2A 1_555 1_555
C7A C6A 1_555 1_555
H4A C7A 1_555 1_555
C8A C7A 1_555 1_555
H5A C8A 1_555 1_555
C9A C8A 1_555 1_555
H6A C9A 1_555 1_555
C10A C1A 1_555 1_555
S3A O7A 1_555 1_555
S4A O10A 1_555 1_555
O7A Cd2 1_555 1_555
O8A S3A 1_555 1_555
O9A S3A 1_555 1_555
O10A Cd1 1_555 1_555
O11A S4A 1_555 1_555
O12A S4A 1_555 1_555
C11A S3A 1_555 1_555
C12A C11A 1_555 1_555
H7A C12A 1_555 1_555
C13A C12A 1_555 1_555
H8A C13A 1_555 1_555
C14A S4A 1_555 1_555
C15A C14A 1_555 1_555
H9A C15A 1_555 1_555
C16A C15A 1_555 1_555
H10A C16A 1_555 1_555
C17A C16A 1_555 1_555
H11A C17A 1_555 1_555
C18A C11A 1_555 1_555
C19A C14A 1_555 1_555
C20A C13A 1_555 1_555
H12A C20A 1_555 1_555
O15A Cd2 1_555 1_555
Cd1A O13A 1_555 1_555
O16A Cd3 1_555 1_555
O14A Cd1A 1_555 1_555
O2A_2 Cd1 1_555 1_555
O12_2 Cd1 1_555 1_555
O6A_2 Cd3 1_555 1_555
O9A_2 Cd3 1_555 1_555
Cd1A_2 O2 1_555 1_555
Cd1_2 O12 1_555 1_555
Cd1_3 O2A 1_555 1_555
Cd3_2 O6A 1_555 1_555
Cd1A_3 O12A 1_555 1_555
O2_2 Cd1A 1_555 1_555
O12A_2 Cd1A 1_555 1_555
S3 O9 1_555 1_555
C5 C6 1_555 1_555
C5 C10 1_555 1_555
C9 C10 1_555 1_555
C17 C18 1_555 1_555
C18 C19 1_555 1_555
C19 C20 1_555 1_555
S2A O5A 1_555 1_555
C5A C6A 1_555 1_555
C5A C10A 1_555 1_555
C9A C10A 1_555 1_555
O9A Cd3_2 1_555 1_555
C17A C18A 1_555 1_555
C18A C19A 1_555 1_555
C19A C20A 1_555 1_555

#END
