
#######################################################################
#
#                 Cambridge Crystallographic Data Centre
#                                CCDC 
#
#######################################################################
#
# If this CIF has been generated from an entry in the Cambridge 
# Structural Database, then it will include bibliographic, chemical, 
# crystal, experimental, refinement or atomic coordinate data resulting 
# from the CCDC's data processing and validation procedures.
#
#######################################################################

data_UGOXET
_symmetry_cell_setting           triclinic
_symmetry_space_group_name_H-M   'P -1'
_symmetry_Int_Tables_number      2
_space_group_name_Hall           '-P 1'
loop_
_symmetry_equiv_pos_site_id
_symmetry_equiv_pos_as_xyz
1 x,y,z
2 -x,-y,-z
_cell_length_a                   12.970(7)
_cell_length_b                   15.006(8)
_cell_length_c                   16.528(9)
_cell_angle_alpha                66.000(9)
_cell_angle_beta                 84.437(10)
_cell_angle_gamma                76.130(9)
_cell_volume                     2853.01
loop_
_atom_site_label
_atom_site_type_symbol
_atom_site_fract_x
_atom_site_fract_y
_atom_site_fract_z
Cd1 Cd 0.21264(2) 0.444764(17) 0.041651(15)
Cd2 Cd 0.69549(2) -0.544910(18) 0.489330(16)
S1 S 0.02907(7) 0.38323(6) -0.07383(6)
S2 S 0.47025(7) 0.31700(6) 0.00762(6)
S3 S -0.06092(8) -0.28251(7) 0.42630(6)
S4 S 0.49941(7) -0.37407(6) 0.57418(6)
O1 O 0.1100(2) 0.36701(19) -0.01085(18)
O2 O -0.0555(2) 0.47060(18) -0.08383(18)
O3 O 0.3542(2) 0.34712(19) 0.00116(16)
O4 O 0.1069(3) 0.8936(2) -0.3547(2)
O5 O 0.2005(3) -0.02119(19) 0.41318(18)
O6 O 0.0736(3) 0.3854(2) -0.15731(18)
O7 O -0.1726(3) 0.0381(2) 0.0731(2)
O8 O -0.0003(2) -0.2439(2) 0.46886(19)
O9 O 0.0021(2) -0.3693(2) 0.4127(2)
O10 O -0.1594(2) -0.2994(2) 0.4722(2)
O11 O 0.5159(3) 0.3997(2) -0.0040(2)
O12 O 0.5127(2) 0.2659(2) -0.04972(18)
O13 O 0.5721(3) 0.0328(2) 0.37655(18)
O14 O 0.5616(3) -0.4370(2) 0.5318(2)
O15 O 0.5305(3) -0.4030(2) 0.66372(18)
O16 O 0.3872(2) -0.36814(19) 0.56702(18)
O17 O 0.7358(3) -1.0130(2) 0.87018(19)
O18 O 0.6303(3) -0.08220(19) 0.10323(18)
O21 O 0.3197(3) 0.5070(3) 0.0955(2)
H5 H 0.309(4) 0.516(4) 0.140(4)
H6 H 0.372(4) 0.534(4) 0.076(3)
O22 O 0.8382(2) -0.6170(2) 0.4258(2)
H7 H 0.894(4) -0.670(4) 0.460(3)
H8 H 0.878(4) -0.584(4) 0.397(3)
O23 O 0.8093(3) -0.4926(3) 0.5519(2)
H9 H 0.866(5) -0.532(4) 0.564(4)
H10 H 0.828(5) -0.438(5) 0.527(4)
N1 N 0.2034(2) 0.5688(2) -0.09714(18)
N2 N 0.2353(3) 0.8091(3) -0.4143(2)
H11 H 0.2304 0.8585 -0.4651
H12 H 0.2807 0.7540 -0.4064
N3 N 0.1985(2) 0.3157(2) 0.17641(18)
N4 N 0.1042(3) 0.0745(2) 0.4804(2)
H13 H 0.0963 0.0235 0.5275
H14 H 0.0765 0.1339 0.4773
N5 N 0.6951(2) -0.6763(2) 0.62297(18)
N6 N 0.6293(3) -0.9168(2) 0.9327(2)
H15 H 0.6269 -0.9668 0.9822
H16 H 0.5953 -0.8577 0.9266
N7 N 0.6772(2) -0.4136(2) 0.35597(18)
N8 N 0.7211(3) -0.1822(2) 0.0385(2)
H17 H 0.7239 -0.1330 -0.0115
H18 H 0.7498 -0.2423 0.0441
C1 C 0.2897(3) 0.5886(3) -0.1467(3)
H19 H 0.3559 0.5491 -0.1243
C2 C 0.2841(3) 0.6654(3) -0.2294(3)
H20 H 0.3452 0.6748 -0.2633
C3 C 0.1871(3) 0.7281(3) -0.2615(2)
C4 C 0.0985(3) 0.7082(3) -0.2103(2)
H21 H 0.0319 0.7491 -0.2295
C5 C 0.1098(3) 0.6271(3) -0.1306(2)
H22 H 0.0489 0.6122 -0.0983
C6 C 0.1733(3) 0.8177(3) -0.3486(2)
C7 C 0.2267(3) 0.2221(3) 0.1810(2)
H23 H 0.2562 0.2117 0.1311
C8 C 0.2142(3) 0.1400(3) 0.2565(2)
H24 H 0.2344 0.0761 0.2567
C9 C 0.1715(3) 0.1534(2) 0.3317(2)
C10 C 0.1445(3) 0.2501(3) 0.3283(2)
H25 H 0.1177 0.2619 0.3782
C11 C 0.1580(3) 0.3293(3) 0.2494(2)
H26 H 0.1382 0.3941 0.2472
C12 C 0.1592(3) 0.0616(3) 0.4126(2)
C13 C 0.6204(3) -0.6713(3) 0.6831(2)
H27 H 0.5702 -0.6116 0.6709
C14 C 0.6140(3) -0.7504(3) 0.7626(3)
H28 H 0.5607 -0.7435 0.8029
C15 C 0.6872(3) -0.8398(2) 0.7820(2)
C16 C 0.7642(3) -0.8453(3) 0.7200(3)
H29 H 0.8148 -0.9043 0.7305
C17 C 0.7660(3) -0.7628(3) 0.6422(3)
H30 H 0.8191 -0.7677 0.6012
C18 C 0.6851(3) -0.9307(3) 0.8663(2)
C19 C 0.6718(3) -0.3211(3) 0.3504(2)
H31 H 0.6694 -0.3106 0.4024
C20 C 0.6697(3) -0.2407(3) 0.2702(2)
H32 H 0.6647 -0.1772 0.2687
C21 C 0.6751(3) -0.2548(2) 0.1930(2)
C22 C 0.6808(3) -0.3506(3) 0.1983(2)
H33 H 0.6844 -0.3629 0.1472
C23 C 0.6812(3) -0.4268(3) 0.2804(2)
H34 H 0.6845 -0.4908 0.2836
C24 C 0.6729(3) -0.1654(3) 0.1061(2)
C25 C -0.1209(4) 0.2812(3) -0.0642(3)
H35 H -0.1507 0.3372 -0.1132
C26 C -0.1684(4) 0.1999(3) -0.0284(3)
H36 H -0.2311 0.2016 -0.0524
C27 C -0.1215(4) 0.1163(3) 0.0432(3)
C28 C -0.0286(4) 0.1127(3) 0.0791(3)
H37 H 0.0031 0.0555 0.1265
C29 C 0.0170(3) 0.1946(3) 0.0443(3)
H38 H 0.0794 0.1932 0.0687
C30 C -0.0296(3) 0.2788(3) -0.0268(2)
C31 C -0.1442(4) -0.0372(3) 0.1567(3)
C32 C -0.1745(4) -0.0176(3) 0.2311(3)
H39 H -0.2120 0.0456 0.2261
C33 C -0.1481(4) -0.0934(3) 0.3129(3)
H40 H -0.1672 -0.0814 0.3638
C34 C -0.0935(3) -0.1872(3) 0.3199(2)
C35 C -0.0917(4) -0.1289(3) 0.1622(3)
H41 H -0.0735 -0.1406 0.1109
C36 C -0.0651(4) -0.2057(3) 0.2447(3)
H42 H -0.0284 -0.2689 0.2492
C37 C 0.4973(3) 0.2289(2) 0.1184(2)
C38 C 0.5230(3) 0.1279(3) 0.1375(3)
H43 H 0.5255 0.1055 0.0924
C39 C 0.5450(4) 0.0601(3) 0.2235(3)
H44 H 0.5625 -0.0082 0.2365
C40 C 0.5407(3) 0.0940(3) 0.2901(2)
C41 C 0.5120(4) 0.1954(3) 0.2709(3)
H45 H 0.5073 0.2179 0.3162
C42 C 0.4904(4) 0.2629(3) 0.1851(3)
H46 H 0.4712 0.3311 0.1721
C43 C 0.5520(3) -0.0616(3) 0.4178(2)
C44 C 0.6230(3) -0.1303(3) 0.4831(3)
H47 H 0.6823 -0.1126 0.4947
C45 C 0.6062(3) -0.2247(3) 0.5309(2)
H48 H 0.6539 -0.2707 0.5751
C46 C 0.5188(3) -0.2517(3) 0.5136(2)
C47 C 0.4479(3) -0.1826(3) 0.4487(3)
H49 H 0.3887 -0.2005 0.4373
C48 C 0.4636(3) -0.0868(3) 0.4001(3)
H50 H 0.4155 -0.0403 0.3565
O2A O 0.0555(2) 0.52940(18) 0.08383(18)
O16A O 0.6128(2) -0.63186(19) 0.43298(18)
Cd1A Cd -0.21264(2) 0.555236(17) -0.041651(15)
Cd2A Cd 0.30451(2) -0.455090(18) 0.510670(16)
O19 O 0.0288(3) 0.4994(3) 0.6668(2)
H1 H 0.0336 0.4709 0.7159
H2 H 0.0372 0.4539 0.6481
O20 O 0.7291(4) 0.4856(3) 0.7406(3)
H3 H 0.6505 0.5315 0.7111
H4 H 0.7776 0.4822 0.7008
loop_
_geom_bond_atom_site_label_1
_geom_bond_atom_site_label_2
_geom_bond_site_symmetry_1
_geom_bond_site_symmetry_2
Cd1 O1 1_555 1_555
Cd2 O14 1_555 1_555
S1 O1 1_555 1_555
S2 O3 1_555 1_555
S3 O8 1_555 1_555
S4 O14 1_555 1_555
O2 S1 1_555 1_555
O3 Cd1 1_555 1_555
O4 C6 1_555 1_555
O5 C12 1_555 1_555
O6 S1 1_555 1_555
O7 C27 1_555 1_555
O9 S3 1_555 1_555
O10 S3 1_555 1_555
O11 S2 1_555 1_555
O12 S2 1_555 1_555
O13 C40 1_555 1_555
O15 S4 1_555 1_555
O16 S4 1_555 1_555
O17 C18 1_555 1_555
O18 C24 1_555 1_555
O19 H1 1_555 1_555
H2 O19 1_555 1_555
O20 H3 1_555 1_555
H4 O20 1_555 1_555
O21 Cd1 1_555 1_555
H5 O21 1_555 1_555
H6 O21 1_555 1_555
O22 Cd2 1_555 1_555
H7 O22 1_555 1_555
H8 O22 1_555 1_555
O23 Cd2 1_555 1_555
H9 O23 1_555 1_555
H10 O23 1_555 1_555
N1 Cd1 1_555 1_555
N2 H11 1_555 1_555
H12 N2 1_555 1_555
N3 Cd1 1_555 1_555
N4 H13 1_555 1_555
H14 N4 1_555 1_555
N5 Cd2 1_555 1_555
N6 H15 1_555 1_555
H16 N6 1_555 1_555
N7 Cd2 1_555 1_555
N8 H17 1_555 1_555
H18 N8 1_555 1_555
C1 N1 1_555 1_555
H19 C1 1_555 1_555
C2 C1 1_555 1_555
H20 C2 1_555 1_555
C3 C2 1_555 1_555
C4 C3 1_555 1_555
H21 C4 1_555 1_555
C5 N1 1_555 1_555
H22 C5 1_555 1_555
C6 N2 1_555 1_555
C7 N3 1_555 1_555
H23 C7 1_555 1_555
C8 C7 1_555 1_555
H24 C8 1_555 1_555
C9 C8 1_555 1_555
C10 C9 1_555 1_555
H25 C10 1_555 1_555
C11 N3 1_555 1_555
H26 C11 1_555 1_555
C12 N4 1_555 1_555
C13 N5 1_555 1_555
H27 C13 1_555 1_555
C14 C13 1_555 1_555
H28 C14 1_555 1_555
C15 C14 1_555 1_555
C16 C15 1_555 1_555
H29 C16 1_555 1_555
C17 N5 1_555 1_555
H30 C17 1_555 1_555
C18 N6 1_555 1_555
C19 N7 1_555 1_555
H31 C19 1_555 1_555
C20 C19 1_555 1_555
H32 C20 1_555 1_555
C21 C20 1_555 1_555
C22 C21 1_555 1_555
H33 C22 1_555 1_555
C23 N7 1_555 1_555
H34 C23 1_555 1_555
C24 N8 1_555 1_555
C25 H35 1_555 1_555
C26 C25 1_555 1_555
H36 C26 1_555 1_555
C27 C26 1_555 1_555
C28 C27 1_555 1_555
H37 C28 1_555 1_555
C29 C28 1_555 1_555
H38 C29 1_555 1_555
C30 S1 1_555 1_555
C31 O7 1_555 1_555
C32 C31 1_555 1_555
H39 C32 1_555 1_555
C33 C32 1_555 1_555
H40 C33 1_555 1_555
C34 S3 1_555 1_555
C35 C31 1_555 1_555
H41 C35 1_555 1_555
C36 C34 1_555 1_555
H42 C36 1_555 1_555
C37 S2 1_555 1_555
C38 C37 1_555 1_555
H43 C38 1_555 1_555
C39 C38 1_555 1_555
H44 C39 1_555 1_555
C40 C39 1_555 1_555
C41 C40 1_555 1_555
H45 C41 1_555 1_555
C42 C37 1_555 1_555
H46 C42 1_555 1_555
C43 O13 1_555 1_555
C44 C43 1_555 1_555
H47 C44 1_555 1_555
C45 C44 1_555 1_555
H48 C45 1_555 1_555
C46 S4 1_555 1_555
C47 C46 1_555 1_555
H49 C47 1_555 1_555
C48 C43 1_555 1_555
H50 C48 1_555 1_555
O2A Cd1 1_555 1_555
O16A Cd2 1_555 1_555
Cd1A O2 1_555 1_555
Cd2A O16 1_555 1_555
C3 C6 1_555 1_555
C4 C5 1_555 1_555
C9 C12 1_555 1_555
C10 C11 1_555 1_555
C15 C18 1_555 1_555
C16 C17 1_555 1_555
C21 C24 1_555 1_555
C22 C23 1_555 1_555
C25 C30 1_555 1_555
C29 C30 1_555 1_555
C33 C34 1_555 1_555
C35 C36 1_555 1_555
C41 C42 1_555 1_555
C45 C46 1_555 1_555
C47 C48 1_555 1_555

#END
