
#######################################################################
#
#                 Cambridge Crystallographic Data Centre
#                                CCDC 
#
#######################################################################
#
# If this CIF has been generated from an entry in the Cambridge 
# Structural Database, then it will include bibliographic, chemical, 
# crystal, experimental, refinement or atomic coordinate data resulting 
# from the CCDC's data processing and validation procedures.
#
#######################################################################

data_UGOYEU
_symmetry_cell_setting           orthorhombic
_symmetry_space_group_name_H-M   'F d d 2'
_symmetry_Int_Tables_number      43
_space_group_name_Hall           'F 2 -2d'
loop_
_symmetry_equiv_pos_site_id
_symmetry_equiv_pos_as_xyz
1 x,y,z
2 -x,-y,z
3 1/4-x,1/4+y,1/4+z
4 1/4+x,1/4-y,1/4+z
5 x,1/2+y,1/2+z
6 -x,1/2-y,1/2+z
7 1/4-x,3/4+y,3/4+z
8 1/4+x,3/4-y,3/4+z
9 1/2+x,y,1/2+z
10 1/2-x,-y,1/2+z
11 3/4-x,1/4+y,3/4+z
12 3/4+x,1/4-y,3/4+z
13 1/2+x,1/2+y,z
14 1/2-x,1/2-y,z
15 3/4-x,3/4+y,1/4+z
16 3/4+x,3/4-y,1/4+z
_cell_length_a                   16.1105(16)
_cell_length_b                   54.694(6)
_cell_length_c                   13.8204(13)
_cell_angle_alpha                90
_cell_angle_beta                 90
_cell_angle_gamma                90
_cell_volume                     12177.8
loop_
_atom_site_label
_atom_site_type_symbol
_atom_site_fract_x
_atom_site_fract_y
_atom_site_fract_z
Ni1 Ni 0.38008(5) 0.004592(14) -0.22483(14)
P1 P 0.52195(12) 0.03604(3) -0.3549(3)
P2 P 0.40435(13) 0.04773(3) -0.0595(3)
O1 O 0.5000 0.0000 -0.1528(10)
O2 O 0.4403(3) 0.02875(8) -0.3126(7)
O3 O 0.5991(3) 0.02491(8) -0.3147(6)
O4 O 0.5148(4) 0.03146(10) -0.4693(10)
O5 O 0.3528(3) 0.03221(7) -0.1248(7)
O6 O 0.4938(3) 0.04060(9) -0.0486(8)
O7 O 0.3572(4) 0.04727(10) 0.0420(10)
N1 N 0.4430(3) 0.23062(9) -0.3890(8)
N2 N 0.5225(3) 0.23419(9) -0.0470(8)
C1 C 0.4379(5) 0.20618(12) -0.3864(11)
H1 H 0.3901 0.1991 -0.4117
C2 C 0.4973(5) 0.19046(12) -0.3493(11)
C3 C 0.5652(5) 0.20138(13) -0.3016(12)
H2 H 0.6062 0.1918 -0.2734
C4 C 0.5699(5) 0.22675(12) -0.2972(11)
H3 H 0.6135 0.2344 -0.2651
C5 C 0.5088(5) 0.24023(12) -0.3415(11)
H4 H 0.5130 0.2572 -0.3385
C6 C 0.4864(5) 0.16376(11) -0.3565(11)
H5 H 0.4342 0.1579 -0.3734
C7 C 0.5462(5) 0.14769(12) -0.3403(12)
H6 H 0.5978 0.1540 -0.3237
C8 C 0.5396(5) 0.12061(11) -0.3458(10)
C9 C 0.6103(4) 0.10655(12) -0.3360(11)
H7 H 0.6615 0.1141 -0.3276
C10 C 0.6052(5) 0.08089(13) -0.3387(11)
H8 H 0.6537 0.0717 -0.3342
C11 C 0.5306(4) 0.06905(11) -0.3479(10)
C12 C 0.4595(4) 0.08342(12) -0.3545(11)
H9 H 0.4080 0.0759 -0.3595
C13 C 0.4638(5) 0.10879(12) -0.3538(11)
H10 H 0.4153 0.1179 -0.3587
C14 C 0.5797(8) 0.0366(2) -0.5353(17)
H11 H 0.6138 0.0495 -0.5083
H12 H 0.6144 0.0222 -0.5408
C15 C 0.5581(14) 0.0428(8) -0.618(2)
H13 H 0.6063 0.0464 -0.6557
H14 H 0.5235 0.0571 -0.6135
H15 H 0.5275 0.0297 -0.6472
C16 C 0.5093(4) 0.21021(12) -0.0473(10)
H16 H 0.5463 0.2002 -0.0140
C17 C 0.4423(5) 0.19921(12) -0.0952(11)
C18 C 0.3861(5) 0.21422(14) -0.1431(12)
H17 H 0.3408 0.2076 -0.1755
C19 C 0.3990(5) 0.23939(14) -0.1417(11)
H18 H 0.3627 0.2500 -0.1731
C20 C 0.4684(5) 0.24839(12) -0.0913(10)
H19 H 0.4766 0.2652 -0.0892
C21 C 0.4406(5) 0.17220(12) -0.0923(11)
H20 H 0.4855 0.1646 -0.0626
C22 C 0.3818(5) 0.15748(13) -0.1277(13)
H21 H 0.3361 0.1644 -0.1584
C23 C 0.3872(5) 0.13047(11) -0.1195(11)
C24 C 0.3167(5) 0.11622(13) -0.1219(12)
H22 H 0.2653 0.1234 -0.1334
C25 C 0.3217(5) 0.09090(12) -0.1072(12)
H23 H 0.2736 0.0815 -0.1086
C26 C 0.3979(5) 0.07967(12) -0.0906(11)
C27 C 0.4691(5) 0.09362(13) -0.0947(11)
H24 H 0.5208 0.0862 -0.0883
C28 C 0.4636(5) 0.11876(13) -0.1086(13)
H25 H 0.5121 0.1280 -0.1106
C29 C 0.4008(8) 0.0581(3) 0.1285(18)
H26 H 0.4053 0.0458 0.1788
H27 H 0.4566 0.0629 0.1101
C30 C 0.3614(12) 0.0768(4) 0.162(3)
H28 H 0.3913 0.0835 0.2154
H29 H 0.3071 0.0719 0.1823
H30 H 0.3565 0.0889 0.1116
P1A P 0.47805(12) -0.03604(3) -0.3549(3)
O2A O 0.5597(3) -0.02875(8) -0.3126(7)
O3A O 0.4009(3) -0.02491(8) -0.3147(6)
O4A O 0.4852(4) -0.03146(10) -0.4693(10)
N1A N 0.5570(3) -0.23062(9) -0.3890(8)
C1A C 0.5621(5) -0.20618(12) -0.3864(11)
H1A H 0.6099 -0.1991 -0.4117
C2A C 0.5027(5) -0.19046(12) -0.3493(11)
C3A C 0.4348(5) -0.20138(13) -0.3016(12)
H2A H 0.3938 -0.1918 -0.2734
C4A C 0.4301(5) -0.22675(12) -0.2972(11)
H3A H 0.3865 -0.2344 -0.2651
C5A C 0.4912(5) -0.24023(12) -0.3415(11)
H4A H 0.4870 -0.2572 -0.3385
C6A C 0.5136(5) -0.16376(11) -0.3565(11)
H5A H 0.5658 -0.1579 -0.3734
C7A C 0.4538(5) -0.14769(12) -0.3403(12)
H6A H 0.4022 -0.1540 -0.3237
C8A C 0.4604(5) -0.12061(11) -0.3458(10)
C9A C 0.3897(4) -0.10655(12) -0.3360(11)
H7A H 0.3385 -0.1141 -0.3276
C10A C 0.3948(5) -0.08089(13) -0.3387(11)
H8A H 0.3463 -0.0717 -0.3342
C11A C 0.4694(4) -0.06905(11) -0.3479(10)
C12A C 0.5405(4) -0.08342(12) -0.3545(11)
H9A H 0.5920 -0.0759 -0.3595
C13A C 0.5362(5) -0.10879(12) -0.3538(11)
H10A H 0.5847 -0.1179 -0.3587
C14A C 0.4203(8) -0.0366(2) -0.5353(17)
H11A H 0.3862 -0.0495 -0.5083
H12A H 0.3856 -0.0222 -0.5408
C15A C 0.4419(14) -0.0428(8) -0.618(2)
H13A H 0.3937 -0.0464 -0.6557
H14A H 0.4765 -0.0571 -0.6135
H15A H 0.4725 -0.0297 -0.6472
P2K P 0.15435(13) 0.20227(3) -0.3095(3)
O5K O 0.1028(3) 0.21779(7) -0.3748(7)
O6K O 0.2438(3) 0.20940(9) -0.2986(8)
O7K O 0.1072(4) 0.20273(10) -0.2080(10)
N2K N 0.2725(3) 0.01581(9) -0.2970(8)
C16K C 0.2593(4) 0.03979(12) -0.2973(10)
H16K H 0.2963 0.0498 -0.2640
C17K C 0.1923(5) 0.05079(12) -0.3452(11)
C18K C 0.1361(5) 0.03578(14) -0.3931(12)
H17K H 0.0908 0.0424 -0.4255
C19K C 0.1490(5) 0.01061(14) -0.3917(11)
H18K H 0.1127 0.0000 -0.4231
C20K C 0.2184(5) 0.00161(12) -0.3413(10)
H19K H 0.2266 -0.0152 -0.3392
C21K C 0.1906(5) 0.07780(12) -0.3423(11)
H20K H 0.2355 0.0854 -0.3126
C22K C 0.1318(5) 0.09252(13) -0.3777(13)
H21K H 0.0861 0.0856 -0.4084
C23K C 0.1372(5) 0.11953(11) -0.3695(11)
C24K C 0.0667(5) 0.13378(13) -0.3719(12)
H22K H 0.0153 0.1266 -0.3834
C25K C 0.0717(5) 0.15910(12) -0.3572(12)
H23K H 0.0236 0.1685 -0.3586
C26K C 0.1479(5) 0.17033(12) -0.3406(11)
C27K C 0.2191(5) 0.15638(13) -0.3447(11)
H24K H 0.2708 0.1638 -0.3383
C28K C 0.2136(5) 0.13124(13) -0.3586(13)
H25K H 0.2621 0.1220 -0.3606
C29K C 0.1508(8) 0.1919(3) -0.1215(18)
H26K H 0.1553 0.2042 -0.0712
H27K H 0.2066 0.1871 -0.1399
C30K C 0.1114(12) 0.1732(4) -0.088(3)
H28K H 0.1413 0.1665 -0.0346
H29K H 0.0571 0.1781 -0.0677
H30K H 0.1065 0.1611 -0.1384
Ni1A Ni 0.61992(5) -0.004592(14) -0.22483(14)
N1N N 0.3070(3) -0.01938(9) -0.1390(8)
Ni1J Ni 0.36992(5) 0.254592(14) -0.47483(14)
Ni1C Ni 0.63008(5) 0.245408(14) 0.02517(14)
Ni1G Ni 0.63008(5) -0.254592(14) -0.47483(14)
Ni1K Ni 0.13008(5) 0.245408(14) -0.47483(14)
O5A O 0.6472(3) -0.03221(7) -0.1248(7)
N1C N 0.6930(3) 0.01938(9) -0.1390(8)
N2F N 0.7275(3) -0.01581(9) -0.2970(8)
loop_
_geom_bond_atom_site_label_1
_geom_bond_atom_site_label_2
_geom_bond_site_symmetry_1
_geom_bond_site_symmetry_2
Ni1 O1 1_555 1_555
P1 O2 1_555 1_555
P2 O5 1_555 1_555
O1 Ni1A 1_555 1_555
O2 Ni1 1_555 1_555
O3 P1 1_555 1_555
O4 P1 1_555 1_555
O5 Ni1 1_555 1_555
O6 P2 1_555 1_555
O7 P2 1_555 1_555
N1 C1 1_555 1_555
N2 C16 1_555 1_555
C1 H1 1_555 1_555
C2 C1 1_555 1_555
C3 C2 1_555 1_555
H2 C3 1_555 1_555
C4 C3 1_555 1_555
H3 C4 1_555 1_555
C5 N1 1_555 1_555
H4 C5 1_555 1_555
C6 C2 1_555 1_555
H5 C6 1_555 1_555
C7 C6 1_555 1_555
H6 C7 1_555 1_555
C8 C7 1_555 1_555
C9 C8 1_555 1_555
H7 C9 1_555 1_555
C10 C9 1_555 1_555
H8 C10 1_555 1_555
C11 P1 1_555 1_555
C12 C11 1_555 1_555
H9 C12 1_555 1_555
C13 C8 1_555 1_555
H10 C13 1_555 1_555
C14 O4 1_555 1_555
H11 C14 1_555 1_555
H12 C14 1_555 1_555
C15 C14 1_555 1_555
H13 C15 1_555 1_555
H14 C15 1_555 1_555
H15 C15 1_555 1_555
C16 H16 1_555 1_555
C17 C16 1_555 1_555
C18 C17 1_555 1_555
H17 C18 1_555 1_555
C19 C18 1_555 1_555
H18 C19 1_555 1_555
C20 N2 1_555 1_555
H19 C20 1_555 1_555
C21 C17 1_555 1_555
H20 C21 1_555 1_555
C22 C21 1_555 1_555
H21 C22 1_555 1_555
C23 C22 1_555 1_555
C24 C23 1_555 1_555
H22 C24 1_555 1_555
C25 C24 1_555 1_555
H23 C25 1_555 1_555
C26 P2 1_555 1_555
C27 C26 1_555 1_555
H24 C27 1_555 1_555
C28 C23 1_555 1_555
H25 C28 1_555 1_555
C29 O7 1_555 1_555
H26 C29 1_555 1_555
H27 C29 1_555 1_555
C30 C29 1_555 1_555
H28 C30 1_555 1_555
H29 C30 1_555 1_555
H30 C30 1_555 1_555
P1A O2A 1_555 1_555
O2A Ni1A 1_555 1_555
O3A Ni1 1_555 1_555
O4A P1A 1_555 1_555
N1A C1A 1_555 1_555
C1A H1A 1_555 1_555
C2A C1A 1_555 1_555
C3A C2A 1_555 1_555
H2A C3A 1_555 1_555
C4A C3A 1_555 1_555
H3A C4A 1_555 1_555
C5A N1A 1_555 1_555
H4A C5A 1_555 1_555
C6A C2A 1_555 1_555
H5A C6A 1_555 1_555
C7A C6A 1_555 1_555
H6A C7A 1_555 1_555
C8A C7A 1_555 1_555
C9A C8A 1_555 1_555
H7A C9A 1_555 1_555
C10A C9A 1_555 1_555
H8A C10A 1_555 1_555
C11A P1A 1_555 1_555
C12A C11A 1_555 1_555
H9A C12A 1_555 1_555
C13A C8A 1_555 1_555
H10A C13A 1_555 1_555
C14A O4A 1_555 1_555
H11A C14A 1_555 1_555
H12A C14A 1_555 1_555
C15A C14A 1_555 1_555
H13A C15A 1_555 1_555
H14A C15A 1_555 1_555
H15A C15A 1_555 1_555
P2K O5K 1_555 1_555
O5K Ni1K 1_555 1_555
O6K P2K 1_555 1_555
O7K P2K 1_555 1_555
N2K Ni1 1_555 1_555
C16K N2K 1_555 1_555
H16K C16K 1_555 1_555
C17K C16K 1_555 1_555
C18K C17K 1_555 1_555
H17K C18K 1_555 1_555
C19K C18K 1_555 1_555
H18K C19K 1_555 1_555
C20K N2K 1_555 1_555
H19K C20K 1_555 1_555
C21K C17K 1_555 1_555
H20K C21K 1_555 1_555
C22K C21K 1_555 1_555
H21K C22K 1_555 1_555
C23K C22K 1_555 1_555
C24K C23K 1_555 1_555
H22K C24K 1_555 1_555
C25K C24K 1_555 1_555
H23K C25K 1_555 1_555
C26K P2K 1_555 1_555
C27K C26K 1_555 1_555
H24K C27K 1_555 1_555
C28K C23K 1_555 1_555
H25K C28K 1_555 1_555
C29K O7K 1_555 1_555
H26K C29K 1_555 1_555
H27K C29K 1_555 1_555
C30K C29K 1_555 1_555
H28K C30K 1_555 1_555
H29K C30K 1_555 1_555
H30K C30K 1_555 1_555
Ni1A O3 1_555 1_555
N1N Ni1 1_555 1_555
Ni1J N1 1_555 1_555
Ni1C N2 1_555 1_555
Ni1G N1A 1_555 1_555
O5A Ni1A 1_555 1_555
N1C Ni1A 1_555 1_555
N2F Ni1A 1_555 1_555
C4 C5 1_555 1_555
C10 C11 1_555 1_555
C12 C13 1_555 1_555
C19 C20 1_555 1_555
C25 C26 1_555 1_555
C27 C28 1_555 1_555
P1A O3A 1_555 1_555
C4A C5A 1_555 1_555
C10A C11A 1_555 1_555
C12A C13A 1_555 1_555
C19K C20K 1_555 1_555
C25K C26K 1_555 1_555
C27K C28K 1_555 1_555

#END
