
#######################################################################
#
#                 Cambridge Crystallographic Data Centre
#                                CCDC 
#
#######################################################################
#
# If this CIF has been generated from an entry in the Cambridge 
# Structural Database, then it will include bibliographic, chemical, 
# crystal, experimental, refinement or atomic coordinate data resulting 
# from the CCDC's data processing and validation procedures.
#
#######################################################################

data_UGOYAQ
_symmetry_cell_setting           orthorhombic
_symmetry_space_group_name_H-M   'F d d 2'
_symmetry_Int_Tables_number      43
_space_group_name_Hall           'F 2 -2d'
loop_
_symmetry_equiv_pos_site_id
_symmetry_equiv_pos_as_xyz
1 x,y,z
2 -x,-y,z
3 1/4-x,1/4+y,1/4+z
4 1/4+x,1/4-y,1/4+z
5 x,1/2+y,1/2+z
6 -x,1/2-y,1/2+z
7 1/4-x,3/4+y,3/4+z
8 1/4+x,3/4-y,3/4+z
9 1/2+x,y,1/2+z
10 1/2-x,-y,1/2+z
11 3/4-x,1/4+y,3/4+z
12 3/4+x,1/4-y,3/4+z
13 1/2+x,1/2+y,z
14 1/2-x,1/2-y,z
15 3/4-x,3/4+y,1/4+z
16 3/4+x,3/4-y,1/4+z
_cell_length_a                   16.2240(10)
_cell_length_b                   54.869(3)
_cell_length_c                   13.801
_cell_angle_alpha                90
_cell_angle_beta                 90
_cell_angle_gamma                90
_cell_volume                     12285.6
loop_
_atom_site_label
_atom_site_type_symbol
_atom_site_fract_x
_atom_site_fract_y
_atom_site_fract_z
Co1 Co 0.12979(3) 0.245257(10) 0.12419(5)
P1 P 0.27187(7) 0.213546(18) -0.00470(10)
P2 P 0.15276(8) 0.20270(2) 0.29187(11)
O1 O 0.2500 0.2500 0.1992(4)
O2 O 0.1907(2) 0.22099(5) 0.0349(3)
O3 O 0.34852(19) 0.22465(5) 0.0352(3)
O4 O 0.2659(2) 0.21807(6) -0.1180(3)
O5 O 0.10158(19) 0.21809(5) 0.2262(3)
O6 O 0.2413(2) 0.20961(6) 0.3035(3)
O7 O 0.1065(3) 0.20319(7) 0.3937(3)
N1 N 0.1969(2) 0.01982(6) -0.0390(3)
N2 N 0.2700(2) 0.01645(6) 0.2993(3)
C1 C 0.1905(3) 0.04416(7) -0.0388(4)
H1 H 0.1440 0.0510 -0.0670
C2 C 0.2492(3) 0.05990(7) 0.0011(4)
C3 C 0.3170(3) 0.04900(9) 0.0457(5)
H2 H 0.3582 0.0587 0.0725
C4 C 0.3234(3) 0.02396(8) 0.0503(5)
H3 H 0.3672 0.0165 0.0820
C5 C 0.2622(3) 0.01017(8) 0.0060(4)
H4 H 0.2669 -0.0067 0.0078
C6 C 0.2386(3) 0.08634(7) -0.0063(4)
H5 H 0.1866 0.0921 -0.0231
C7 C 0.2977(3) 0.10272(8) 0.0092(5)
H6 H 0.3496 0.0967 0.0243
C8 C 0.2894(3) 0.12939(7) 0.0050(4)
C9 C 0.2137(3) 0.14115(7) -0.0045(5)
H7 H 0.1658 0.1320 -0.0102
C10 C 0.2090(3) 0.16633(8) -0.0056(5)
H8 H 0.1578 0.1738 -0.0118
C11 C 0.2802(3) 0.18071(7) 0.0025(4)
C12 C 0.3551(3) 0.16898(8) 0.0117(5)
H9 H 0.4032 0.1781 0.0169
C13 C 0.3595(3) 0.14370(8) 0.0134(6)
H10 H 0.4106 0.1362 0.0202
C14 C 0.3329(4) 0.21258(14) -0.1825(5)
H11 H 0.3734 0.2256 -0.1788
H12 H 0.3593 0.1976 -0.1616
C15 C 0.3092(8) 0.2101(5) -0.2724(10)
H13 H 0.3559 0.2062 -0.3122
H14 H 0.2850 0.2251 -0.2944
H15 H 0.2692 0.1973 -0.2766
C16 C 0.2152(3) 0.00245(8) 0.2534(4)
H16 H 0.2229 -0.0144 0.2535
C17 C 0.1472(3) 0.01206(9) 0.2056(5)
H17 H 0.1098 0.0018 0.1748
C18 C 0.1355(3) 0.03724(9) 0.2045(4)
H18 H 0.0905 0.0440 0.1726
C19 C 0.1922(3) 0.05197(8) 0.2516(4)
C20 C 0.2580(3) 0.04059(7) 0.2978(4)
H19 H 0.2960 0.0504 0.3298
C21 C 0.1898(3) 0.07874(8) 0.2556(5)
H20 H 0.2350 0.0863 0.2843
C22 C 0.1313(3) 0.09344(7) 0.2235(5)
H21 H 0.0845 0.0867 0.1952
C23 C 0.1378(3) 0.12025(7) 0.2311(4)
C24 C 0.0664(3) 0.13426(8) 0.2299(6)
H22 H 0.0155 0.1269 0.2197
C25 C 0.0711(3) 0.15962(8) 0.2440(5)
H23 H 0.0231 0.1689 0.2433
C26 C 0.1470(3) 0.17106(7) 0.2590(4)
C27 C 0.2179(3) 0.15685(8) 0.2557(5)
H24 H 0.2693 0.1642 0.2628
C28 C 0.2129(3) 0.13204(9) 0.2420(5)
H25 H 0.2612 0.1229 0.2399
C29 C 0.1485(6) 0.19273(17) 0.4784(6)
H26 H 0.2038 0.1880 0.4596
H27 H 0.1534 0.2052 0.5278
C30 C 0.1110(9) 0.1736(3) 0.5165(11)
H28 H 0.1433 0.1674 0.5691
H29 H 0.1046 0.1612 0.4679
H30 H 0.0577 0.1784 0.5401
P1M P 0.22813(7) 0.286454(18) -0.00470(10)
O2M O 0.3093(2) 0.27901(5) 0.0349(3)
O3M O 0.15148(19) 0.27535(5) 0.0352(3)
O4M O 0.2341(2) 0.28193(6) -0.1180(3)
N1M N 0.3031(2) 0.48018(6) -0.0390(3)
C1M C 0.3095(3) 0.45584(7) -0.0388(4)
H1M H 0.3560 0.4490 -0.0670
C2M C 0.2508(3) 0.44010(7) 0.0011(4)
C3M C 0.1830(3) 0.45100(9) 0.0457(5)
H2M H 0.1418 0.4413 0.0725
C4M C 0.1766(3) 0.47604(8) 0.0503(5)
H3M H 0.1328 0.4835 0.0820
C5M C 0.2378(3) 0.48983(8) 0.0060(4)
H4M H 0.2331 0.5067 0.0078
C6M C 0.2614(3) 0.41366(7) -0.0063(4)
H5M H 0.3134 0.4079 -0.0231
C7M C 0.2023(3) 0.39728(8) 0.0092(5)
H6M H 0.1504 0.4033 0.0243
C8M C 0.2106(3) 0.37061(7) 0.0050(4)
C9M C 0.2863(3) 0.35885(7) -0.0045(5)
H7M H 0.3342 0.3680 -0.0102
C10M C 0.2910(3) 0.33367(8) -0.0056(5)
H8M H 0.3422 0.3262 -0.0118
C11M C 0.2198(3) 0.31929(7) 0.0025(4)
C12M C 0.1449(3) 0.33102(8) 0.0117(5)
H9M H 0.0968 0.3219 0.0169
C13M C 0.1405(3) 0.35630(8) 0.0134(6)
H10M H 0.0894 0.3638 0.0202
C14M C 0.1671(4) 0.28742(14) -0.1825(5)
H11M H 0.1266 0.2744 -0.1788
H12M H 0.1407 0.3024 -0.1616
C15M C 0.1908(8) 0.2899(5) -0.2724(10)
H13M H 0.1441 0.2938 -0.3122
H14M H 0.2150 0.2749 -0.2944
H15M H 0.2308 0.3027 -0.2766
P2K P -0.09724(8) 0.04730(2) 0.04187(11)
O5K O -0.14842(19) 0.03191(5) -0.0238(3)
O6K O -0.0087(2) 0.04039(6) 0.0535(3)
O7K O -0.1435(3) 0.04681(7) 0.1437(3)
N2K N 0.0200(2) 0.23355(6) 0.0493(3)
C16K C -0.0348(3) 0.24755(8) 0.0034(4)
H16K H -0.0271 0.2644 0.0035
C17K C -0.1028(3) 0.23794(9) -0.0444(5)
H17K H -0.1402 0.2482 -0.0752
C18K C -0.1145(3) 0.21276(9) -0.0455(4)
H18K H -0.1595 0.2060 -0.0774
C19K C -0.0578(3) 0.19803(8) 0.0016(4)
C20K C 0.0080(3) 0.20941(7) 0.0478(4)
H19K H 0.0460 0.1996 0.0798
C21K C -0.0602(3) 0.17126(8) 0.0056(5)
H20K H -0.0150 0.1637 0.0343
C22K C -0.1187(3) 0.15656(7) -0.0265(5)
H21K H -0.1655 0.1633 -0.0548
C23K C -0.1122(3) 0.12975(7) -0.0189(4)
C24K C -0.1836(3) 0.11574(8) -0.0201(6)
H22K H -0.2345 0.1231 -0.0303
C25K C -0.1789(3) 0.09038(8) -0.0060(5)
H23K H -0.2269 0.0811 -0.0067
C26K C -0.1030(3) 0.07894(7) 0.0090(4)
C27K C -0.0321(3) 0.09315(8) 0.0057(5)
H24K H 0.0193 0.0858 0.0128
C28K C -0.0371(3) 0.11796(9) -0.0080(5)
H25K H 0.0112 0.1271 -0.0101
C29K C -0.1015(6) 0.05727(17) 0.2284(6)
H26K H -0.0462 0.0620 0.2096
H27K H -0.0966 0.0448 0.2778
C30K C -0.1390(9) 0.0764(3) 0.2665(11)
H28K H -0.1067 0.0826 0.3191
H29K H -0.1454 0.0888 0.2179
H30K H -0.1923 0.0716 0.2901
Co1M Co 0.37021(3) 0.254743(10) 0.12419(5)
N1B N 0.0531(2) 0.26982(6) 0.2110(3)
Co1F Co 0.12021(3) -0.004743(10) -0.12581(5)
Co1C Co 0.37979(3) 0.004743(10) 0.37419(5)
Co1G Co 0.37979(3) 0.504743(10) -0.12581(5)
Co1K Co -0.12021(3) 0.004743(10) -0.12581(5)
O5M O 0.39842(19) 0.28191(5) 0.2262(3)
N1C N 0.4469(2) 0.23018(6) 0.2110(3)
N2J N 0.4800(2) 0.26645(6) 0.0493(3)
loop_
_geom_bond_atom_site_label_1
_geom_bond_atom_site_label_2
_geom_bond_site_symmetry_1
_geom_bond_site_symmetry_2
Co1 O1 1_555 1_555
P1 O2 1_555 1_555
P2 O5 1_555 1_555
O1 Co1M 1_555 1_555
O2 Co1 1_555 1_555
O3 P1 1_555 1_555
O4 P1 1_555 1_555
O5 Co1 1_555 1_555
O6 P2 1_555 1_555
O7 P2 1_555 1_555
N1 C1 1_555 1_555
N2 C16 1_555 1_555
C1 H1 1_555 1_555
C2 C1 1_555 1_555
C3 C2 1_555 1_555
H2 C3 1_555 1_555
C4 C3 1_555 1_555
H3 C4 1_555 1_555
C5 N1 1_555 1_555
H4 C5 1_555 1_555
C6 C2 1_555 1_555
H5 C6 1_555 1_555
C7 C6 1_555 1_555
H6 C7 1_555 1_555
C8 C7 1_555 1_555
C9 C8 1_555 1_555
H7 C9 1_555 1_555
C10 C9 1_555 1_555
H8 C10 1_555 1_555
C11 P1 1_555 1_555
C12 C11 1_555 1_555
H9 C12 1_555 1_555
C13 C8 1_555 1_555
H10 C13 1_555 1_555
C14 O4 1_555 1_555
H11 C14 1_555 1_555
H12 C14 1_555 1_555
C15 C14 1_555 1_555
H13 C15 1_555 1_555
H14 C15 1_555 1_555
H15 C15 1_555 1_555
C16 H16 1_555 1_555
C17 C16 1_555 1_555
H17 C17 1_555 1_555
C18 C17 1_555 1_555
H18 C18 1_555 1_555
C19 C18 1_555 1_555
C20 N2 1_555 1_555
H19 C20 1_555 1_555
C21 C19 1_555 1_555
H20 C21 1_555 1_555
C22 C21 1_555 1_555
H21 C22 1_555 1_555
C23 C22 1_555 1_555
C24 C23 1_555 1_555
H22 C24 1_555 1_555
C25 C24 1_555 1_555
H23 C25 1_555 1_555
C26 P2 1_555 1_555
C27 C26 1_555 1_555
H24 C27 1_555 1_555
C28 C23 1_555 1_555
H25 C28 1_555 1_555
C29 O7 1_555 1_555
H26 C29 1_555 1_555
H27 C29 1_555 1_555
C30 C29 1_555 1_555
H28 C30 1_555 1_555
H29 C30 1_555 1_555
H30 C30 1_555 1_555
P1M O2M 1_555 1_555
O2M Co1M 1_555 1_555
O3M Co1 1_555 1_555
O4M P1M 1_555 1_555
N1M C1M 1_555 1_555
C1M H1M 1_555 1_555
C2M C1M 1_555 1_555
C3M C2M 1_555 1_555
H2M C3M 1_555 1_555
C4M C3M 1_555 1_555
H3M C4M 1_555 1_555
C5M N1M 1_555 1_555
H4M C5M 1_555 1_555
C6M C2M 1_555 1_555
H5M C6M 1_555 1_555
C7M C6M 1_555 1_555
H6M C7M 1_555 1_555
C8M C7M 1_555 1_555
C9M C8M 1_555 1_555
H7M C9M 1_555 1_555
C10M C9M 1_555 1_555
H8M C10M 1_555 1_555
C11M P1M 1_555 1_555
C12M C11M 1_555 1_555
H9M C12M 1_555 1_555
C13M C8M 1_555 1_555
H10M C13M 1_555 1_555
C14M O4M 1_555 1_555
H11M C14M 1_555 1_555
H12M C14M 1_555 1_555
C15M C14M 1_555 1_555
H13M C15M 1_555 1_555
H14M C15M 1_555 1_555
H15M C15M 1_555 1_555
P2K O5K 1_555 1_555
O5K Co1K 1_555 1_555
O6K P2K 1_555 1_555
O7K P2K 1_555 1_555
N2K Co1 1_555 1_555
C16K N2K 1_555 1_555
H16K C16K 1_555 1_555
C17K C16K 1_555 1_555
H17K C17K 1_555 1_555
C18K C17K 1_555 1_555
H18K C18K 1_555 1_555
C19K C18K 1_555 1_555
C20K N2K 1_555 1_555
H19K C20K 1_555 1_555
C21K C19K 1_555 1_555
H20K C21K 1_555 1_555
C22K C21K 1_555 1_555
H21K C22K 1_555 1_555
C23K C22K 1_555 1_555
C24K C23K 1_555 1_555
H22K C24K 1_555 1_555
C25K C24K 1_555 1_555
H23K C25K 1_555 1_555
C26K P2K 1_555 1_555
C27K C26K 1_555 1_555
H24K C27K 1_555 1_555
C28K C23K 1_555 1_555
H25K C28K 1_555 1_555
C29K O7K 1_555 1_555
H26K C29K 1_555 1_555
H27K C29K 1_555 1_555
C30K C29K 1_555 1_555
H28K C30K 1_555 1_555
H29K C30K 1_555 1_555
H30K C30K 1_555 1_555
Co1M O3 1_555 1_555
N1B Co1 1_555 1_555
Co1F N1 1_555 1_555
Co1C N2 1_555 1_555
Co1G N1M 1_555 1_555
O5M Co1M 1_555 1_555
N1C Co1M 1_555 1_555
N2J Co1M 1_555 1_555
C4 C5 1_555 1_555
C10 C11 1_555 1_555
C12 C13 1_555 1_555
C19 C20 1_555 1_555
C25 C26 1_555 1_555
C27 C28 1_555 1_555
P1M O3M 1_555 1_555
C4M C5M 1_555 1_555
C10M C11M 1_555 1_555
C12M C13M 1_555 1_555
C19K C20K 1_555 1_555
C25K C26K 1_555 1_555
C27K C28K 1_555 1_555

#END
