
#######################################################################
#
#                 Cambridge Crystallographic Data Centre
#                                CCDC 
#
#######################################################################
#
# If this CIF has been generated from an entry in the Cambridge 
# Structural Database, then it will include bibliographic, chemical, 
# crystal, experimental, refinement or atomic coordinate data resulting 
# from the CCDC's data processing and validation procedures.
#
#######################################################################

data_UGOZIB
_symmetry_cell_setting           triclinic
_symmetry_space_group_name_H-M   'P -1'
_symmetry_Int_Tables_number      2
_space_group_name_Hall           '-P 1'
loop_
_symmetry_equiv_pos_site_id
_symmetry_equiv_pos_as_xyz
1 x,y,z
2 -x,-y,-z
_cell_length_a                   10.6994(4)
_cell_length_b                   12.5806(5)
_cell_length_c                   14.3433(5)
_cell_angle_alpha                105.1090(10)
_cell_angle_beta                 93.3900(10)
_cell_angle_gamma                93.6440(10)
_cell_volume                     1854.42
loop_
_atom_site_label
_atom_site_type_symbol
_atom_site_fract_x
_atom_site_fract_y
_atom_site_fract_z
C1 C 0.05188(17) 0.80872(14) -0.02322(12)
H1 H 0.1250 0.7852 -0.0513
C2 C -0.08515(14) 0.50088(14) 0.13258(12)
H2 H -0.0983 0.4398 0.0746
H3 H -0.1326 0.5606 0.1223
C3 C 0.24766(15) 0.84055(14) 0.45854(11)
C4 C 0.02789(15) 0.79103(12) 0.06911(11)
C5 C 0.23074(15) 0.90010(13) 0.38679(11)
C6 C -0.16637(16) 0.88271(14) 0.05975(13)
H4 H -0.2385 0.9098 0.0870
C7 C 0.31983(15) 0.39599(13) 0.05926(12)
H5 H 0.2724 0.3343 0.0200
C8 C 0.31297(17) 0.89305(17) 0.54689(12)
H6 H 0.3250 0.8542 0.5933
C9 C 0.52276(15) 0.49048(15) 0.12220(13)
H7 H 0.6099 0.4917 0.1249
C10 C -0.03702(18) 0.53212(17) 0.38730(13)
H8 H -0.0565 0.4571 0.3911
H9 H -0.0580 0.5818 0.4472
C11 C 0.44890(16) 0.39923(13) 0.06363(12)
C12 C 0.34566(17) 1.06180(15) 0.49906(14)
H10 H 0.3784 1.1350 0.5131
C13 C 0.25937(14) 0.48402(12) 0.11298(11)
C14 C 0.36028(16) 1.00210(16) 0.56686(13)
C15 C -0.13823(18) 0.89649(14) -0.02941(14)
C16 C 0.46612(15) 0.57749(14) 0.17522(13)
H11 H 0.5159 0.6376 0.2146
C17 C -0.08664(15) 0.82810(13) 0.10916(12)
C18 C 0.10268(17) 0.54964(15) 0.37762(13)
H12 H 0.1493 0.5366 0.4331
H13 H 0.1254 0.4971 0.3199
C19 C 0.20126(16) 0.72549(15) 0.44471(12)
H14 H 0.2214 0.6946 0.4954
C20 C 0.33314(14) 0.57969(12) 0.17254(11)
C21 C 0.28265(18) 1.01225(14) 0.41142(13)
H15 H 0.2732 1.0529 0.3662
C22 C -0.12727(15) 0.81079(14) 0.19946(12)
H16 H -0.2008 0.8417 0.2202
C23 C 0.12300(14) 0.47155(12) 0.10502(11)
H17 H 0.0855 0.4076 0.0616
C24 C -0.13758(18) 0.75098(16) 0.33952(13)
H18 H -0.2008 0.8039 0.3510
H19 H -0.0771 0.7693 0.3956
C25 C -0.02986(19) 0.85916(15) -0.07098(13)
H20 H -0.0129 0.8685 -0.1313
C26 C -0.13075(16) 0.46427(15) 0.21862(13)
H21 H -0.2192 0.4392 0.2055
H22 H -0.0855 0.4023 0.2263
C27 C -0.19987(17) 0.63459(18) 0.32620(14)
H23 H -0.2408 0.6321 0.3842
H24 H -0.2642 0.6189 0.2728
N1 N 0.04884(12) 0.53827(11) 0.15079(9)
N2 N -0.07384(13) 0.75824(11) 0.25347(9)
N3 N 0.13650(13) 0.66230(12) 0.37155(10)
N4 N -0.11375(14) 0.55085(13) 0.30742(11)
N5 N 0.50887(15) 0.30989(12) 0.00541(12)
N6 N 0.42771(16) 1.05335(17) 0.65872(13)
N7 N -0.22133(18) 0.95323(14) -0.07817(14)
O1 O 0.28598(10) 0.66565(9) 0.22024(8)
O2 O 0.10677(10) 0.74312(9) 0.10977(8)
O3 O 0.17409(11) 0.85847(9) 0.30335(8)
O4 O 0.44463(14) 0.23395(12) -0.05295(12)
O5 O -0.31005(17) 0.99580(16) -0.03657(15)
O6 O 0.62439(13) 0.31096(12) 0.01383(12)
O7 O 0.4475(2) 0.99858(18) 0.71597(12)
O8 O -0.20000(19) 0.96050(15) -0.15960(13)
O9 O 0.46604(17) 1.15107(14) 0.67727(13)
K1 K 0.34571(3) 0.85338(3) 0.16307(3)
Ni1 Ni 0.104025(16) 0.698843(15) 0.237338(12)
O4A O 0.55537(14) 0.76605(12) 0.05295(12)
O5A O 0.31005(17) 1.00420(16) 0.03657(15)
O6A O 0.37561(13) 0.68904(12) -0.01383(12)
O7A O 0.5525(2) 1.00142(18) 0.28403(12)
O8A O 0.20000(19) 1.03950(15) 0.15960(13)
O9A O 0.53396(17) 0.84893(14) 0.32273(13)
K1A K -0.34571(3) 1.14662(3) -0.16307(3)
K1A_2 K 0.65429(3) 0.14662(3) -0.16307(3)
K1A_3 K 0.65429(3) 1.14662(3) 0.83693(3)
C28 C 0.0183(4) 0.9318(4) 0.6604(4)
H25 H 0.0246 0.9563 0.6028
H26 H 0.1009 0.9326 0.6908
H27 H -0.0307 0.9801 0.7043
C29 C -0.0412(5) 0.8213(4) 0.6357(3)
N8 N -0.0914(8) 0.7348(4) 0.6140(5)
loop_
_geom_bond_atom_site_label_1
_geom_bond_atom_site_label_2
_geom_bond_site_symmetry_1
_geom_bond_site_symmetry_2
C1 H1 1_555 1_555
C2 H2 1_555 1_555
H3 C2 1_555 1_555
C3 C5 1_555 1_555
C4 C1 1_555 1_555
C5 C21 1_555 1_555
C6 H4 1_555 1_555
C7 H5 1_555 1_555
C8 C3 1_555 1_555
H6 C8 1_555 1_555
C9 H7 1_555 1_555
C10 H8 1_555 1_555
H9 C10 1_555 1_555
C11 C7 1_555 1_555
C12 H10 1_555 1_555
C13 C7 1_555 1_555
C14 C8 1_555 1_555
C15 C6 1_555 1_555
C16 C9 1_555 1_555
H11 C16 1_555 1_555
C17 C4 1_555 1_555
C18 C10 1_555 1_555
H12 C18 1_555 1_555
H13 C18 1_555 1_555
C19 C3 1_555 1_555
H14 C19 1_555 1_555
C20 C13 1_555 1_555
C21 C12 1_555 1_555
H15 C21 1_555 1_555
C22 C17 1_555 1_555
H16 C22 1_555 1_555
C23 C13 1_555 1_555
H17 C23 1_555 1_555
C24 H18 1_555 1_555
H19 C24 1_555 1_555
C25 C1 1_555 1_555
H20 C25 1_555 1_555
C26 C2 1_555 1_555
H21 C26 1_555 1_555
H22 C26 1_555 1_555
C27 C24 1_555 1_555
H23 C27 1_555 1_555
H24 C27 1_555 1_555
N1 C2 1_555 1_555
N2 C22 1_555 1_555
N3 C18 1_555 1_555
N4 C10 1_555 1_555
N5 C11 1_555 1_555
N6 C14 1_555 1_555
N7 C15 1_555 1_555
O1 C20 1_555 1_555
O2 C4 1_555 1_555
O3 C5 1_555 1_555
O4 N5 1_555 1_555
O5 N7 1_555 1_555
O6 N5 1_555 1_555
O7 N6 1_555 1_555
O8 N7 1_555 1_555
O9 N6 1_555 1_555
K1 O1 1_555 1_555
Ni1 N1 1_555 1_555
C28 H25 1_555 1_555
H26 C28 1_555 1_555
H27 C28 1_555 1_555
C29 C28 1_555 1_555
N8 C29 1_555 1_555
O4A K1 1_555 1_555
O5A K1 1_555 1_555
O6A K1 1_555 1_555
O7A K1 1_555 1_555
O8A K1 1_555 1_555
O9A K1 1_555 1_555
K1A O5 1_555 1_555
K1A_2 O4 1_555 1_555
K1A_3 O7 1_555 1_555
C6 C17 1_555 1_555
C9 C11 1_555 1_555
C12 C14 1_555 1_555
C15 C25 1_555 1_555
C16 C20 1_555 1_555
C19 N3 1_555 1_555
C23 N1 1_555 1_555
C24 N2 1_555 1_555
C26 N4 1_555 1_555
C27 N4 1_555 1_555
N2 Ni1 1_555 1_555
N3 Ni1 1_555 1_555
O1 Ni1 1_555 1_555
O2 K1 1_555 1_555
O2 Ni1 1_555 1_555
O3 K1 1_555 1_555
O3 Ni1 1_555 1_555
O6 K1A_2 1_555 1_555
O8 K1A 1_555 1_555
O9 K1A_3 1_555 1_555

#END
