
#######################################################################
#
#                 Cambridge Crystallographic Data Centre
#                                CCDC 
#
#######################################################################
#
# If this CIF has been generated from an entry in the Cambridge 
# Structural Database, then it will include bibliographic, chemical, 
# crystal, experimental, refinement or atomic coordinate data resulting 
# from the CCDC's data processing and validation procedures.
#
#######################################################################

data_UGUFAD
_symmetry_cell_setting           triclinic
_symmetry_space_group_name_H-M   'P -1'
_symmetry_Int_Tables_number      2
_space_group_name_Hall           '-P 1'
loop_
_symmetry_equiv_pos_site_id
_symmetry_equiv_pos_as_xyz
1 x,y,z
2 -x,-y,-z
_cell_length_a                   7.916(4)
_cell_length_b                   12.114(6)
_cell_length_c                   13.280(7)
_cell_angle_alpha                106.19(2)
_cell_angle_beta                 98.180(10)
_cell_angle_gamma                95.43(2)
_cell_volume                     1198.39
loop_
_atom_site_label
_atom_site_type_symbol
_atom_site_fract_x
_atom_site_fract_y
_atom_site_fract_z
S1 S 0.40949(13) 0.35563(7) -0.07946(7)
N1 N 0.3175(4) 0.1299(2) -0.1883(2)
O1 O 0.4022(3) 0.10627(19) -0.10342(17)
C1 C 0.3009(4) 0.2423(3) -0.1851(3)
C2 C 0.1925(5) 0.2561(3) -0.2734(3)
H1 H 0.1688 0.3302 -0.2723
C3 C 0.1217(5) 0.1654(3) -0.3599(3)
H2 H 0.0524 0.1777 -0.4173
C4 C 0.1529(5) 0.0553(3) -0.3621(3)
H3 H 0.1093 -0.0075 -0.4220
C5 C 0.2489(5) 0.0396(3) -0.2749(3)
H4 H 0.2677 -0.0351 -0.2750
S2 S 0.92024(12) 0.20546(8) -0.06565(7)
N2 N 0.8714(3) -0.0046(2) -0.2068(2)
O2 O 0.9744(3) -0.0356(2) -0.13287(18)
C6 C 0.8312(4) 0.1057(3) -0.1845(3)
C7 C 0.7170(5) 0.1290(3) -0.2652(3)
H5 H 0.6846 0.2028 -0.2533
C8 C 0.6530(5) 0.0478(4) -0.3593(3)
H6 H 0.5773 0.0662 -0.4105
C9 C 0.6995(5) -0.0624(3) -0.3797(3)
H7 H 0.6582 -0.1187 -0.4446
C10 C 0.8084(5) -0.0855(3) -0.3010(3)
H8 H 0.8402 -0.1594 -0.3128
Na1 Na 0.62101(17) 0.22453(11) 0.03299(10)
Na2 Na 0.18860(17) 0.09622(12) 0.01362(10)
Na3 Na 1.00845(19) 0.40613(12) 0.16714(11)
O4 O 0.4638(3) 0.1000(2) 0.12169(19)
H13 H 0.492(6) 0.147(3) 0.180(2)
H14 H 0.506(6) 0.041(3) 0.116(3)
O5 O 0.8616(4) 0.2286(2) 0.17947(19)
H15 H 0.914(6) 0.173(3) 0.166(3)
H16 H 0.835(6) 0.239(4) 0.238(2)
O6 O 0.7024(4) 0.4217(2) 0.1515(2)
H17 H 0.679(7) 0.423(4) 0.210(2)
H18 H 0.662(6) 0.475(3) 0.134(3)
O7 O 1.2636(4) 0.3154(3) 0.1353(2)
H19 H 1.345(4) 0.324(5) 0.184(3)
H20 H 1.301(5) 0.341(4) 0.091(3)
O8 O 1.0088(5) 0.4861(3) 0.3495(2)
H21 H 1.040(6) 0.547(3) 0.396(3)
H22 H 0.951(6) 0.442(3) 0.372(3)
O9 O 1.1572(6) 0.5610(4) 0.1329(4)
H23 H 1.102(5) 0.602(4) 0.106(4)
H24 H 1.257(3) 0.570(4) 0.124(4)
Na2_2 Na 1.18860(17) 0.09622(12) 0.01362(10)
Na2A Na 0.81140(17) -0.09622(12) -0.01362(10)
S2_2 S -0.07976(12) 0.20546(8) -0.06565(7)
O2_2 O -0.0256(3) -0.0356(2) -0.13287(18)
O2A O 0.0256(3) 0.0356(2) 0.13287(18)
S3 S 0.85021(12) 0.27850(8) 0.43341(7)
N3 N 0.5290(4) 0.3313(2) 0.3939(2)
O3 O 0.5486(3) 0.3138(2) 0.29239(18)
C11 C 0.6583(4) 0.3166(3) 0.4672(3)
C12 C 0.6248(5) 0.3356(3) 0.5712(3)
H9 H 0.7086 0.3244 0.6226
C13 C 0.4761(5) 0.3692(4) 0.6000(3)
H10 H 0.4591 0.3820 0.6700
C14 C 0.3498(5) 0.3841(4) 0.5232(3)
H11 H 0.2458 0.4063 0.5407
C15 C 0.3801(5) 0.3658(3) 0.4212(3)
H12 H 0.2965 0.3772 0.3698
loop_
_geom_bond_atom_site_label_1
_geom_bond_atom_site_label_2
_geom_bond_site_symmetry_1
_geom_bond_site_symmetry_2
S1 C1 1_555 1_555
N1 O1 1_555 1_555
O1 Na1 1_555 1_555
C1 N1 1_555 1_555
C2 C1 1_555 1_555
H1 C2 1_555 1_555
C3 C2 1_555 1_555
H2 C3 1_555 1_555
C4 C3 1_555 1_555
H3 C4 1_555 1_555
C5 N1 1_555 1_555
H4 C5 1_555 1_555
S2 C6 1_555 1_555
N2 O2 1_555 1_555
O2 Na2_2 1_555 1_555
C6 N2 1_555 1_555
C7 C6 1_555 1_555
H5 C7 1_555 1_555
C8 C7 1_555 1_555
H6 C8 1_555 1_555
C9 C8 1_555 1_555
H7 C9 1_555 1_555
C10 N2 1_555 1_555
H8 C10 1_555 1_555
S3 C11 1_555 1_555
N3 O3 1_555 1_555
C11 N3 1_555 1_555
C12 C11 1_555 1_555
H9 C12 1_555 1_555
C13 C12 1_555 1_555
H10 C13 1_555 1_555
C14 C13 1_555 1_555
H11 C14 1_555 1_555
C15 N3 1_555 1_555
H12 C15 1_555 1_555
Na1 S1 1_555 1_555
Na2 O1 1_555 1_555
Na3 O5 1_555 1_555
O4 Na1 1_555 1_555
H13 O4 1_555 1_555
H14 O4 1_555 1_555
O5 Na1 1_555 1_555
H15 O5 1_555 1_555
H16 O5 1_555 1_555
O6 Na1 1_555 1_555
H17 O6 1_555 1_555
H18 O6 1_555 1_555
O7 Na3 1_555 1_555
H19 O7 1_555 1_555
H20 O7 1_555 1_555
O8 Na3 1_555 1_555
H21 O8 1_555 1_555
H22 O8 1_555 1_555
O9 Na3 1_555 1_555
H23 O9 1_555 1_555
H24 O9 1_555 1_555
Na2_2 S2 1_555 1_555
Na2A O2 1_555 1_555
S2_2 Na2 1_555 1_555
O2_2 Na2 1_555 1_555
O2A Na2 1_555 1_555
C4 C5 1_555 1_555
S2 Na1 1_555 1_555
C9 C10 1_555 1_555
C14 C15 1_555 1_555
Na2 O4 1_555 1_555
Na3 O6 1_555 1_555

#END
