
#######################################################################
#
#                 Cambridge Crystallographic Data Centre
#                                CCDC 
#
#######################################################################
#
# If this CIF has been generated from an entry in the Cambridge 
# Structural Database, then it will include bibliographic, chemical, 
# crystal, experimental, refinement or atomic coordinate data resulting 
# from the CCDC's data processing and validation procedures.
#
#######################################################################

data_UGUHAG
_symmetry_cell_setting           monoclinic
_symmetry_space_group_name_H-M   'P 21/c'
_symmetry_Int_Tables_number      14
_space_group_name_Hall           '-P 2ybc'
loop_
_symmetry_equiv_pos_site_id
_symmetry_equiv_pos_as_xyz
1 x,y,z
2 -x,1/2+y,1/2-z
3 -x,-y,-z
4 x,1/2-y,1/2+z
_cell_length_a                   9.1432(18)
_cell_length_b                   22.304(5)
_cell_length_c                   13.692(3)
_cell_angle_alpha                90
_cell_angle_beta                 90.43(3)
_cell_angle_gamma                90
_cell_volume                     2792.13
loop_
_atom_site_label
_atom_site_type_symbol
_atom_site_fract_x
_atom_site_fract_y
_atom_site_fract_z
Lu1 Lu 1.03682(7) 0.67100(2) 1.02048(4)
Lu2 Lu 0.53264(7) 0.57534(3) 0.77077(5)
O1 O 1.2084(12) 0.7448(4) 1.0034(7)
O2 O 1.3510(12) 0.8057(4) 0.9132(7)
O3 O 1.2230(13) 0.8945(4) 0.7915(7)
O4 O 1.2045(12) 0.8658(4) 0.6326(7)
O5 O 0.8776(13) 0.7465(4) 0.5318(8)
O6 O 0.8710(13) 0.6504(5) 0.5828(7)
O7 O 0.7360(12) 0.6393(4) 0.7680(7)
O8 O 0.8541(12) 0.6377(5) 0.9095(7)
O9 O 0.8630(12) 0.6277(4) 1.1258(7)
O10 O 0.8303(13) 0.5513(4) 1.2303(7)
O11 O 0.6723(11) 0.4554(4) 1.1399(7)
O12 O 0.7929(12) 0.3743(4) 1.0809(7)
O13 O 0.4680(12) 0.6662(4) 0.8417(8)
H1 H 0.3978 0.6865 0.8177
H2 H 0.5136 0.6789 0.8919
O14 O 0.6162(13) 0.5623(5) 0.9300(7)
H3 H 0.5653 0.5756 0.9770
H4 H 0.6968 0.5446 0.9415
O15 O 0.7333(14) 0.5105(5) 0.7643(9)
H5 H 0.7531 0.4922 0.7115
H6 H 0.7867 0.5053 0.8147
O16 O 0.4326(13) 0.4920(5) 0.6983(8)
H7 H 0.3579 0.4955 0.6614
H8 H 0.4703 0.4576 0.7080
O17 O 0.6108(14) 0.5860(5) 0.6125(8)
H9 H 0.5543 0.6003 0.5688
H10 H 0.6971 0.5753 0.5978
O18 O 0.3363(15) 0.6164(5) 0.6807(9)
H11 H 0.3453 0.6503 0.6532
H12 H 0.2560 0.5973 0.6762
N1 N 1.0348(13) 0.7217(5) 0.8571(8)
N2 N 1.0448(13) 0.7756(5) 0.6792(8)
N3 N 1.0282(14) 0.5589(5) 1.0148(8)
C1 C 1.2419(16) 0.7754(6) 0.9258(10)
C2 C 1.1286(17) 0.7668(6) 0.8437(10)
C3 C 1.1237(15) 0.7972(6) 0.7522(9)
C4 C 1.1933(18) 0.8584(6) 0.7246(11)
C5 C 0.8984(16) 0.7048(6) 0.5935(9)
C6 C 0.9554(16) 0.7255(6) 0.6912(10)
C7 C 0.9472(15) 0.7014(6) 0.7844(10)
C8 C 0.8341(17) 0.6561(6) 0.8225(10)
C9 C 0.8631(17) 0.5733(6) 1.1511(11)
C10 C 0.9246(16) 0.5326(6) 1.0703(10)
C11 C 0.8948(17) 0.4689(6) 1.0536(10)
C12 C 0.7774(18) 0.4305(6) 1.0945(10)
Lu1C Lu 1.03682(7) 0.82900(2) 1.52048(4)
Lu1C_2 Lu 1.03682(7) 0.82900(2) 0.52048(4)
Lu1B Lu 0.96318(7) 0.32900(2) 0.97952(4)
Lu2C Lu 0.53264(7) 0.92466(3) 1.27077(5)
Lu2B Lu 0.46736(7) 0.42466(3) 1.22923(5)
Lu2_2 Lu 1.53264(7) 0.57534(3) 0.77077(5)
O1C O 1.2084(12) 0.7552(4) 1.5034(7)
O2C O 1.3510(12) 0.6943(4) 1.4132(7)
O3C O 1.2230(13) 0.6055(4) 1.2915(7)
O4C O 1.2045(12) 0.6342(4) 1.1326(7)
O4_2 O 1.2045(12) 0.8658(4) 1.6326(7)
O5C O 0.8776(13) 0.7535(4) 1.0318(8)
O5_2 O 0.8776(13) 0.7465(4) 1.5318(8)
O6C O 0.8710(13) 0.8496(5) 1.0828(7)
O7C O 0.7360(12) 0.8607(4) 1.2680(7)
O8C O 0.8541(12) 0.8623(5) 1.4095(7)
O9B O 1.1370(12) 0.3723(4) 0.8742(7)
O9C O 0.8630(12) 0.8723(4) 1.6258(7)
O10B O 1.1697(13) 0.4487(4) 0.7697(7)
O11B O 1.3277(11) 0.5446(4) 0.8601(7)
O11B_2 O 0.3277(11) 0.5446(4) 0.8601(7)
O11A O 0.3277(11) 0.9554(4) 1.3601(7)
O12B O 1.2071(12) 0.6257(4) 0.9191(7)
O12A O 1.2071(12) 0.8743(4) 1.4191(7)
O13C O 0.4680(12) 0.8338(4) 1.3417(8)
H1C H 0.3978 0.8135 1.3177
H2C H 0.5136 0.8211 1.3919
O14C O 0.6162(13) 0.9377(5) 1.4300(7)
H3C H 0.5653 0.9244 1.4770
H4C H 0.6968 0.9554 1.4415
O15C O 0.7333(14) 0.9895(5) 1.2643(9)
H5C H 0.7531 1.0078 1.2115
H6C H 0.7867 0.9947 1.3147
O16C O 0.4326(13) 1.0080(5) 1.1983(8)
H7C H 0.3579 1.0045 1.1614
H8C H 0.4703 1.0424 1.2080
O17C O 0.6108(14) 0.9140(5) 1.1125(8)
H9C H 0.5543 0.8997 1.0688
H10C H 0.6971 0.9247 1.0978
O18C O 0.3363(15) 0.8836(5) 1.1807(9)
H11C H 0.3453 0.8497 1.1532
H12C H 0.2560 0.9027 1.1762
N1C N 1.0348(13) 0.7783(5) 1.3571(8)
N2C N 1.0448(13) 0.7244(5) 1.1792(8)
N2_2 N 1.0448(13) 0.7756(5) 1.6792(8)
N3B N 0.9718(14) 0.4411(5) 0.9852(8)
N3C N 1.0282(14) 0.9411(5) 1.5148(8)
C1C C 1.2419(16) 0.7246(6) 1.4258(10)
C2C C 1.1286(17) 0.7332(6) 1.3437(10)
C3C C 1.1237(15) 0.7028(6) 1.2522(9)
C4C C 1.1933(18) 0.6416(6) 1.2246(11)
C5C C 0.8984(16) 0.7952(6) 1.0935(9)
C6C C 0.9554(16) 0.7745(6) 1.1912(10)
C7C C 0.9472(15) 0.7986(6) 1.2844(10)
C8C C 0.8341(17) 0.8439(6) 1.3225(10)
C9B C 1.1369(17) 0.4267(6) 0.8489(11)
C10B C 1.0754(16) 0.4674(6) 0.9297(10)
C11B C 1.1052(17) 0.5311(6) 0.9464(10)
C12B C 1.2226(18) 0.5695(6) 0.9055(10)
O19 O 0.9155(15) 0.9278(5) 0.9253(8)
O20 O 0.6335(13) 0.7627(5) 0.9079(8)
O21 O 0.638(2) 0.8012(10) 0.7120(11)
O22 O 0.452(4) 0.7225(13) 0.617(2)
O23 O 0.483(3) 0.5886(11) 0.1000(18)
O24 O 0.5533(14) 0.4234(5) 0.5563(8)
O25 O 0.9979(15) 0.4416(5) 0.2746(8)
O26 O 0.8181(14) 0.0464(5) 0.9760(8)
O27? O 0.389(4) 0.7327(12) 0.661(2)
loop_
_geom_bond_atom_site_label_1
_geom_bond_atom_site_label_2
_geom_bond_site_symmetry_1
_geom_bond_site_symmetry_2
Lu1 O1 1_555 1_555
Lu2 O7 1_555 1_555
O1 C1 1_555 1_555
O2 C1 1_555 1_555
O3 C4 1_555 1_555
O4 C4 1_555 1_555
O5 C5 1_555 1_555
O6 C5 1_555 1_555
O7 C8 1_555 1_555
O8 Lu1 1_555 1_555
O9 Lu1 1_555 1_555
O10 C9 1_555 1_555
O11 C12 1_555 1_555
O12 C12 1_555 1_555
O13 Lu2 1_555 1_555
H1 O13 1_555 1_555
H2 O13 1_555 1_555
O14 Lu2 1_555 1_555
H3 O14 1_555 1_555
H4 O14 1_555 1_555
O15 Lu2 1_555 1_555
H5 O15 1_555 1_555
H6 O15 1_555 1_555
O16 Lu2 1_555 1_555
H7 O16 1_555 1_555
H8 O16 1_555 1_555
O17 Lu2 1_555 1_555
H9 O17 1_555 1_555
H10 O17 1_555 1_555
O18 Lu2 1_555 1_555
H11 O18 1_555 1_555
H12 O18 1_555 1_555
N1 Lu1 1_555 1_555
N2 C3 1_555 1_555
N3 Lu1 1_555 1_555
C1 C2 1_555 1_555
C2 N1 1_555 1_555
C3 C2 1_555 1_555
C4 C3 1_555 1_555
C5 C6 1_555 1_555
C6 N2 1_555 1_555
C7 N1 1_555 1_555
C8 O8 1_555 1_555
C9 O9 1_555 1_555
C10 N3 1_555 1_555
C11 C10 1_555 1_555
C12 C11 1_555 1_555
Lu1C O1C 1_555 1_555
Lu1C_2 O4 1_555 1_555
Lu1B O12 1_555 1_555
Lu2C O7C 1_555 1_555
Lu2B O11 1_555 1_555
Lu2_2 O11B 1_555 1_555
O1C C1C 1_555 1_555
O2C C1C 1_555 1_555
O3C C4C 1_555 1_555
O4C Lu1 1_555 1_555
O4_2 Lu1C 1_555 1_555
O5C Lu1 1_555 1_555
O5_2 Lu1C 1_555 1_555
O6C C5C 1_555 1_555
O7C C8C 1_555 1_555
O8C Lu1C 1_555 1_555
O9B Lu1B 1_555 1_555
O9C Lu1C 1_555 1_555
O10B C9B 1_555 1_555
O11B C12B 1_555 1_555
O11B_2 Lu2 1_555 1_555
O11A Lu2C 1_555 1_555
O12B Lu1 1_555 1_555
O12A Lu1C 1_555 1_555
O13C Lu2C 1_555 1_555
H1C O13C 1_555 1_555
H2C O13C 1_555 1_555
O14C Lu2C 1_555 1_555
H3C O14C 1_555 1_555
H4C O14C 1_555 1_555
O15C Lu2C 1_555 1_555
H5C O15C 1_555 1_555
H6C O15C 1_555 1_555
O16C Lu2C 1_555 1_555
H7C O16C 1_555 1_555
H8C O16C 1_555 1_555
O17C Lu2C 1_555 1_555
H9C O17C 1_555 1_555
H10C O17C 1_555 1_555
O18C Lu2C 1_555 1_555
H11C O18C 1_555 1_555
H12C O18C 1_555 1_555
N1C Lu1C 1_555 1_555
N2C Lu1 1_555 1_555
N2_2 Lu1C 1_555 1_555
N3B C11 1_555 1_555
N3C Lu1C 1_555 1_555
C1C C2C 1_555 1_555
C2C N1C 1_555 1_555
C3C N2C 1_555 1_555
C4C O4C 1_555 1_555
C5C O5C 1_555 1_555
C6C N2C 1_555 1_555
C7C N1C 1_555 1_555
C8C O8C 1_555 1_555
C9B O9B 1_555 1_555
C10B N3B 1_555 1_555
C11B N3 1_555 1_555
C12B O12B 1_555 1_555
O5 Lu1C_2 1_555 1_555
N2 Lu1C_2 1_555 1_555
C6 C7 1_555 1_555
C7 C8 1_555 1_555
C9 C10 1_555 1_555
Lu1B N3B 1_555 1_555
C2C C3C 1_555 1_555
C3C C4C 1_555 1_555
C5C C6C 1_555 1_555
C6C C7C 1_555 1_555
C7C C8C 1_555 1_555
C9B C10B 1_555 1_555
C10B C11B 1_555 1_555
C11B C12B 1_555 1_555

#END
