
#######################################################################
#
#                 Cambridge Crystallographic Data Centre
#                                CCDC 
#
#######################################################################
#
# If this CIF has been generated from an entry in the Cambridge 
# Structural Database, then it will include bibliographic, chemical, 
# crystal, experimental, refinement or atomic coordinate data resulting 
# from the CCDC's data processing and validation procedures.
#
#######################################################################

data_UGUHUA
_symmetry_cell_setting           monoclinic
_symmetry_space_group_name_H-M   'P 21/c'
_symmetry_Int_Tables_number      14
_space_group_name_Hall           '-P 2ybc'
loop_
_symmetry_equiv_pos_site_id
_symmetry_equiv_pos_as_xyz
1 x,y,z
2 -x,1/2+y,1/2-z
3 -x,-y,-z
4 x,1/2-y,1/2+z
_cell_length_a                   14.0403(8)
_cell_length_b                   9.0493(5)
_cell_length_c                   17.2277(10)
_cell_angle_alpha                90
_cell_angle_beta                 106.9620(10)
_cell_angle_gamma                90
_cell_volume                     2093.64
loop_
_atom_site_label
_atom_site_type_symbol
_atom_site_fract_x
_atom_site_fract_y
_atom_site_fract_z
Cu1 Cu -0.095570(15) -0.12438(2) 0.236840(12)
N1 N -0.18153(11) -0.30463(16) 0.20147(9)
N2 N -0.05453(11) -0.18002(17) 0.13859(9)
C1 C -0.24389(14) -0.3614(2) 0.23942(12)
H1 H -0.2406 -0.3279 0.2912
C2 C -0.18475(14) -0.3544(2) 0.12704(11)
C3 C 0.02260(15) -0.1225(2) 0.11789(12)
H2 H 0.0600 -0.0478 0.1496
C4 C -0.10791(14) -0.2902(2) 0.09368(11)
C5 C -0.31283(15) -0.4681(2) 0.20400(13)
H3 H -0.3541 -0.5085 0.2320
C6 C -0.25422(15) -0.4579(2) 0.08706(12)
H4 H -0.2571 -0.4893 0.0350
C7 C 0.04780(17) -0.1715(2) 0.05050(13)
H5 H 0.1027 -0.1322 0.0379
C8 C -0.31946(15) -0.5138(2) 0.12651(14)
H6 H -0.3677 -0.5821 0.1006
C9 C -0.00906(18) -0.2789(2) 0.00227(13)
H7 H 0.0055 -0.3105 -0.0444
C10 C -0.08828(17) -0.3396(2) 0.02386(12)
H8 H -0.1277 -0.4123 -0.0081
O1 O -0.04115(9) 0.29437(14) 0.17777(7)
N3 N -0.24214(10) 0.05464(17) 0.16986(8)
O2 O -0.48047(11) -0.26338(18) -0.13141(9)
O3 O -0.54420(10) -0.22713(17) 0.20996(8)
C11 C -0.33066(13) -0.0545(2) 0.03880(10)
H9 H -0.2842 -0.0138 0.0160
O4 O -0.62516(11) -0.29144(19) 0.08322(9)
C12 C -0.25371(13) 0.11954(19) 0.24435(11)
H10 H -0.3239 0.1389 0.2363
H11 H -0.2194 0.2139 0.2533
O5 O -0.35536(11) -0.10830(17) -0.12753(9)
C13 C -0.39552(13) -0.0871(2) 0.15195(11)
H12 H -0.3917 -0.0712 0.2061
C14 C -0.18172(13) 0.1417(2) 0.13066(11)
H13 H -0.2154 0.2341 0.1116
H14 H -0.1747 0.0882 0.0839
C15 C -0.07859(13) 0.1744(2) 0.18822(10)
C16 C -0.55042(14) -0.2322(2) 0.13802(11)
C17 C -0.40638(14) -0.1420(2) -0.00853(11)
C18 C -0.47279(13) -0.1705(2) 0.10343(11)
C19 C -0.32270(12) -0.02619(19) 0.12014(10)
C20 C -0.47885(14) -0.1998(2) 0.02318(11)
H15 H -0.5305 -0.2570 -0.0089
C21 C -0.41001(14) -0.1676(2) -0.09488(11)
O6 O -0.24257(10) 0.06146(17) 0.38124(8)
O7 O -0.03752(9) 0.07755(14) 0.23980(8)
C22 C -0.21473(13) 0.0256(2) 0.32128(11)
O8 O -0.15516(9) -0.07900(14) 0.32303(7)
H16 H -0.6657(17) -0.326(2) 0.1004(13)
H17 H -0.4847(16) -0.263(2) -0.1758(14)
Cu1A Cu 0.095570(15) 0.37562(2) 0.263160(12)
O1A O 0.04115(9) -0.20563(14) 0.32223(7)
loop_
_geom_bond_atom_site_label_1
_geom_bond_atom_site_label_2
_geom_bond_site_symmetry_1
_geom_bond_site_symmetry_2
Cu1 N1 1_555 1_555
N1 C1 1_555 1_555
N2 Cu1 1_555 1_555
C1 H1 1_555 1_555
C2 N1 1_555 1_555
C3 N2 1_555 1_555
H2 C3 1_555 1_555
C4 N2 1_555 1_555
C5 C1 1_555 1_555
H3 C5 1_555 1_555
C6 C2 1_555 1_555
H4 C6 1_555 1_555
C7 C3 1_555 1_555
H5 C7 1_555 1_555
C8 C5 1_555 1_555
H6 C8 1_555 1_555
C9 C7 1_555 1_555
H7 C9 1_555 1_555
C10 C4 1_555 1_555
H8 C10 1_555 1_555
O1 C15 1_555 1_555
N3 Cu1 1_555 1_555
O2 C21 1_555 1_555
O3 C16 1_555 1_555
C11 H9 1_555 1_555
O4 C16 1_555 1_555
C12 N3 1_555 1_555
H10 C12 1_555 1_555
H11 C12 1_555 1_555
O5 C21 1_555 1_555
C13 H12 1_555 1_555
C14 N3 1_555 1_555
H13 C14 1_555 1_555
H14 C14 1_555 1_555
C15 C14 1_555 1_555
C16 C18 1_555 1_555
C17 C11 1_555 1_555
C18 C13 1_555 1_555
C19 N3 1_555 1_555
C20 C17 1_555 1_555
H15 C20 1_555 1_555
C21 C17 1_555 1_555
O6 C22 1_555 1_555
O7 Cu1 1_555 1_555
C22 C12 1_555 1_555
O8 Cu1 1_555 1_555
H16 O4 1_555 1_555
H17 O2 1_555 1_555
Cu1A O1 1_555 1_555
O1A Cu1 1_555 1_555
C2 C4 1_555 1_555
C6 C8 1_555 1_555
C9 C10 1_555 1_555
C11 C19 1_555 1_555
C13 C19 1_555 1_555
C15 O7 1_555 1_555
C18 C20 1_555 1_555
C22 O8 1_555 1_555

#END
