
#######################################################################
#
#                 Cambridge Crystallographic Data Centre
#                                CCDC 
#
#######################################################################
#
# If this CIF has been generated from an entry in the Cambridge 
# Structural Database, then it will include bibliographic, chemical, 
# crystal, experimental, refinement or atomic coordinate data resulting 
# from the CCDC's data processing and validation procedures.
#
#######################################################################

data_UGUJUC
_symmetry_cell_setting           triclinic
_symmetry_space_group_name_H-M   'P -1'
_symmetry_Int_Tables_number      2
_space_group_name_Hall           '-P 1'
loop_
_symmetry_equiv_pos_site_id
_symmetry_equiv_pos_as_xyz
1 x,y,z
2 -x,-y,-z
_cell_length_a                   9.7277(3)
_cell_length_b                   9.7907(3)
_cell_length_c                   23.6034(10)
_cell_angle_alpha                78.835(2)
_cell_angle_beta                 78.848(2)
_cell_angle_gamma                88.953(2)
_cell_volume                     2163.39
loop_
_atom_site_label
_atom_site_type_symbol
_atom_site_fract_x
_atom_site_fract_y
_atom_site_fract_z
Zn1 Zn 0.59403(7) 1.40484(7) -0.05748(3)
Zn2 Zn 0.95219(7) 0.90072(7) -0.05462(3)
F1 F 0.6562(9) 1.4261(9) -0.4065(4)
F2 F 1.0931(9) 0.9861(9) -0.4110(4)
O1 O 0.6223(6) 1.4710(6) -0.1429(2)
O2 O 0.5519(6) 1.2521(6) -0.1292(2)
O3 O 0.9835(6) 0.9746(5) -0.1387(2)
O4 O 1.0613(6) 0.7625(6) -0.1376(3)
N1 N 0.8539(5) 1.0686(5) -0.0261(2)
N2 N 0.8880(5) 1.1424(5) 0.0125(2)
N3 N 0.7271(5) 1.2574(5) -0.0303(2)
N4 N 0.3994(5) 1.3608(5) -0.0115(2)
N5 N 0.3347(5) 1.4262(5) 0.0325(2)
N6 N 0.2008(5) 1.2475(5) 0.0302(2)
C1 C 0.7574(7) 1.1396(6) -0.0513(3)
H1 H 0.7161 1.1120 -0.0798
C2 C 0.8092(7) 1.2541(6) 0.0093(3)
H2 H 0.8107 1.3220 0.0318
C3 C 0.3160(7) 1.2566(6) -0.0115(3)
H3 H 0.3353 1.1959 -0.0377
C4 C 0.2156(6) 1.3553(7) 0.0558(3)
H4 H 0.1496 1.3782 0.0865
C5 C 0.6420(13) 1.4094(13) -0.3442(6)
C6 C 0.6253(12) 1.5243(12) -0.3231(5)
H5 H 0.6212 1.6110 -0.3472
C7 C 0.6141(12) 1.5085(9) -0.2625(4)
H6 H 0.6084 1.5872 -0.2456
C8 C 0.6114(7) 1.3796(7) -0.2273(3)
C9 C 0.6290(11) 1.2661(9) -0.2531(4)
H7 H 0.6265 1.1782 -0.2294
C10 C 0.6501(14) 1.2770(10) -0.3125(4)
H8 H 0.6686 1.2002 -0.3304
C11 C 0.5926(7) 1.3645(8) -0.1624(3)
C12 C 1.0842(12) 0.9589(13) -0.3482(5)
C13 C 1.0538(13) 1.0683(13) -0.3214(6)
H9 H 1.0432 1.1573 -0.3425
C14 C 1.0388(12) 1.0406(10) -0.2600(4)
H10 H 1.0183 1.1124 -0.2392
C15 C 1.0542(8) 0.9082(8) -0.2306(3)
C16 C 1.0860(10) 0.8030(10) -0.2617(5)
H11 H 1.0994 0.7132 -0.2422
C17 C 1.0980(12) 0.8315(12) -0.3227(5)
H12 H 1.1153 0.7611 -0.3443
C18 C 1.0342(7) 0.8781(8) -0.1650(3)
Zn1A Zn 0.40597(7) 1.59516(7) 0.05748(3)
Zn2A Zn 1.04781(7) 1.09928(7) 0.05462(3)
Zn2A_2 Zn 0.04781(7) 1.09928(7) 0.05462(3)
N2A N 1.1120(5) 0.8576(5) -0.0125(2)
N5A N 0.6653(5) 1.5738(5) -0.0325(2)
N6A N 0.7992(5) 0.7525(5) -0.0302(2)
Zn3 Zn -0.10406(7) 0.45526(7) 0.44571(3)
Zn4 Zn -0.40545(7) -0.09416(7) 0.55802(3)
F3 F -0.0985(9) 0.7381(9) 0.0984(4)
F4 F -0.4907(8) -0.1195(8) 0.9084(4)
O5 O -0.0448(6) 0.4959(6) 0.3601(2)
O6 O -0.2595(6) 0.5746(6) 0.3754(3)
O7 O -0.2745(6) -0.0605(6) 0.6356(3)
O8 O -0.4917(6) -0.1218(6) 0.6414(2)
N7 N -0.3590(5) 0.0977(5) 0.5125(2)
N8 N -0.4292(5) 0.1668(5) 0.4707(3)
N9 N -0.2496(5) 0.3008(5) 0.4726(2)
N10 N 0.0691(5) 0.3590(5) 0.4702(2)
N11 N 0.1411(5) 0.3878(5) 0.5106(2)
N12 N 0.2554(5) 0.2265(6) 0.4677(3)
C19 C -0.2527(6) 0.1820(7) 0.5126(3)
H13 H -0.1884 0.1611 0.5373
C20 C -0.3612(6) 0.2856(6) 0.4479(3)
H14 H -0.3871 0.3519 0.4181
C21 C 0.1409(6) 0.2631(7) 0.4456(3)
H15 H 0.1145 0.2251 0.4160
C22 C 0.2522(6) 0.3064(6) 0.5083(3)
H16 H 0.3190 0.3049 0.5318
C23 C -0.1077(14) 0.6791(14) 0.1595(6)
C24 C -0.0007(12) 0.6282(13) 0.1784(4)
H17 H 0.0832 0.6213 0.1526
C25 C -0.0118(9) 0.5831(9) 0.2389(4)
H18 H 0.0645 0.5427 0.2536
C26 C -0.1343(8) 0.5977(8) 0.2765(3)
C27 C -0.2468(10) 0.6592(12) 0.2529(4)
H19 H -0.3312 0.6686 0.2781
C28 C -0.2358(13) 0.7066(13) 0.1929(6)
H20 H -0.3075 0.7526 0.1764
C29 C -0.1490(9) 0.5552(7) 0.3407(4)
C30 C -0.4662(12) -0.1162(13) 0.8486(4)
C31 C -0.3380(10) -0.1106(11) 0.8198(4)
H21 H -0.2639 -0.1102 0.8395
C32 C -0.3117(8) -0.1053(10) 0.7597(4)
H22 H -0.2198 -0.1025 0.7391
C33 C -0.4201(8) -0.1040(8) 0.7305(3)
C34 C -0.5519(10) -0.1122(16) 0.7612(4)
H23 H -0.6270 -0.1171 0.7425
C35 C -0.5756(16) -0.1133(15) 0.8226(7)
H24 H -0.6662 -0.1120 0.8442
C36 C -0.3915(8) -0.0953(7) 0.6647(3)
Zn3A Zn 0.10406(7) 0.54474(7) 0.55429(3)
Zn4A Zn -0.59455(7) 0.09416(7) 0.44198(3)
Zn4A_2 Zn 0.40545(7) 0.09416(7) 0.44198(3)
N8A N -0.5708(5) -0.1668(5) 0.5293(3)
N11A N -0.1411(5) 0.6122(5) 0.4894(2)
N12A N -0.2554(5) -0.2265(6) 0.5323(3)
O9 O 1.281(3) 0.564(2) -0.1129(10)
O10 O -0.408(3) 0.831(3) 0.3883(13)
loop_
_geom_bond_atom_site_label_1
_geom_bond_atom_site_label_2
_geom_bond_site_symmetry_1
_geom_bond_site_symmetry_2
Zn1 O1 1_555 1_555
Zn2 O3 1_555 1_555
Zn3 O5 1_555 1_555
Zn4 O8 1_555 1_555
F1 C5 1_555 1_555
F2 C12 1_555 1_555
F3 C23 1_555 1_555
F4 C30 1_555 1_555
O1 C11 1_555 1_555
O2 C11 1_555 1_555
O3 C18 1_555 1_555
O4 C18 1_555 1_555
O5 C29 1_555 1_555
O6 C29 1_555 1_555
O7 C36 1_555 1_555
O8 C36 1_555 1_555
N1 Zn2 1_555 1_555
N2 N1 1_555 1_555
N3 Zn1 1_555 1_555
N4 Zn1 1_555 1_555
N5 N4 1_555 1_555
N6 C3 1_555 1_555
N7 Zn4 1_555 1_555
N8 N7 1_555 1_555
N9 Zn3 1_555 1_555
N10 Zn3 1_555 1_555
N11 N10 1_555 1_555
N12 C21 1_555 1_555
C1 N1 1_555 1_555
H1 C1 1_555 1_555
C2 N2 1_555 1_555
H2 C2 1_555 1_555
C3 N4 1_555 1_555
H3 C3 1_555 1_555
C4 N5 1_555 1_555
H4 C4 1_555 1_555
C5 C6 1_555 1_555
C6 H5 1_555 1_555
C7 C6 1_555 1_555
H6 C7 1_555 1_555
C8 C7 1_555 1_555
C9 C8 1_555 1_555
H7 C9 1_555 1_555
C10 C5 1_555 1_555
H8 C10 1_555 1_555
C11 C8 1_555 1_555
C12 C13 1_555 1_555
C13 H9 1_555 1_555
C14 C13 1_555 1_555
H10 C14 1_555 1_555
C15 C14 1_555 1_555
C16 C15 1_555 1_555
H11 C16 1_555 1_555
C17 C12 1_555 1_555
H12 C17 1_555 1_555
C18 C15 1_555 1_555
C19 N7 1_555 1_555
H13 C19 1_555 1_555
C20 N8 1_555 1_555
H14 C20 1_555 1_555
C21 N10 1_555 1_555
H15 C21 1_555 1_555
C22 N11 1_555 1_555
H16 C22 1_555 1_555
C23 C24 1_555 1_555
C24 H17 1_555 1_555
C25 C24 1_555 1_555
H18 C25 1_555 1_555
C26 C25 1_555 1_555
C27 C26 1_555 1_555
H19 C27 1_555 1_555
C28 C23 1_555 1_555
H20 C28 1_555 1_555
C29 C26 1_555 1_555
C30 C31 1_555 1_555
C31 H21 1_555 1_555
C32 C31 1_555 1_555
H22 C32 1_555 1_555
C33 C32 1_555 1_555
C34 C33 1_555 1_555
H23 C34 1_555 1_555
C35 C30 1_555 1_555
H24 C35 1_555 1_555
C36 C33 1_555 1_555
Zn1A N5 1_555 1_555
Zn2A N2 1_555 1_555
Zn2A_2 N6 1_555 1_555
Zn3A N11 1_555 1_555
Zn4A N8 1_555 1_555
Zn4A_2 N12 1_555 1_555
N2A Zn2 1_555 1_555
N5A Zn1 1_555 1_555
N6A Zn2 1_555 1_555
N8A Zn4 1_555 1_555
N11A Zn3 1_555 1_555
N12A Zn4 1_555 1_555
N3 C1 1_555 1_555
N3 C2 1_555 1_555
N6 C4 1_555 1_555
N9 C19 1_555 1_555
N9 C20 1_555 1_555
N12 C22 1_555 1_555
C9 C10 1_555 1_555
C16 C17 1_555 1_555
C27 C28 1_555 1_555
C34 C35 1_555 1_555

#END
