
#######################################################################
#
#                 Cambridge Crystallographic Data Centre
#                                CCDC 
#
#######################################################################
#
# If this CIF has been generated from an entry in the Cambridge 
# Structural Database, then it will include bibliographic, chemical, 
# crystal, experimental, refinement or atomic coordinate data resulting 
# from the CCDC's data processing and validation procedures.
#
#######################################################################

data_UGUJOW01
_symmetry_cell_setting           monoclinic
_symmetry_space_group_name_H-M   'P 21/c'
_symmetry_Int_Tables_number      14
_space_group_name_Hall           '-P 2ybc'
loop_
_symmetry_equiv_pos_site_id
_symmetry_equiv_pos_as_xyz
1 x,y,z
2 -x,1/2+y,1/2-z
3 -x,-y,-z
4 x,1/2-y,1/2+z
_cell_length_a                   11.288(2)
_cell_length_b                   9.6710(19)
_cell_length_c                   10.281(2)
_cell_angle_alpha                90
_cell_angle_beta                 97.79(3)
_cell_angle_gamma                90
_cell_volume                     1111.98
loop_
_atom_site_label
_atom_site_type_symbol
_atom_site_fract_x
_atom_site_fract_y
_atom_site_fract_z
C1 C -0.21948(17) 0.8921(2) 0.0358(2)
C2 C -0.02583(16) 0.7648(2) 0.07347(19)
H1 H 0.0100 0.8395 0.0374
C3 C -0.14806(17) 0.7678(2) 0.08161(19)
C4 C 0.04278(16) 0.6516(2) 0.11854(18)
C5 C 0.47874(18) 0.33443(18) 0.24332(17)
H2 H 0.4358 0.3588 0.3110
C6 C 0.17390(17) 0.6507(2) 0.10702(18)
C7 C -0.1333(2) 0.5419(2) 0.1786(2)
H3 H -0.1692 0.4667 0.2138
C8 C 0.58790(17) 0.22717(18) 0.12907(17)
H4 H 0.6372 0.1602 0.0998
C9 C -0.20126(18) 0.6552(2) 0.1342(2)
H5 H -0.2828 0.6561 0.1396
C10 C -0.01131(18) 0.5395(2) 0.1708(2)
H6 H 0.0341 0.4628 0.2007
H7 H -0.189(3) 1.070(3) -0.019(3)
N1 N 0.48276(14) 0.41049(13) 0.13797(15)
N2 N 0.55484(13) 0.34051(14) 0.06358(13)
N3 N 0.54275(13) 0.21882(14) 0.24272(14)
O1 O 0.23414(12) 0.54343(14) 0.14357(14)
O2 O 0.22318(13) 0.75288(16) 0.06246(16)
O3 O -0.32692(13) 0.90023(16) 0.02748(18)
O4 O -0.15147(14) 0.99486(18) 0.0081(2)
Zn1 Zn 0.397206(17) 0.593532(18) 0.106514(17)
N2B N 0.44516(13) 0.65949(14) -0.06358(13)
N3A N 0.45725(13) 0.71882(14) 0.25728(14)
Zn1B Zn 0.602794(17) 0.406468(18) -0.106514(17)
Zn1A Zn 0.602794(17) 0.093532(18) 0.393486(17)
loop_
_geom_bond_atom_site_label_1
_geom_bond_atom_site_label_2
_geom_bond_site_symmetry_1
_geom_bond_site_symmetry_2
C1 C3 1_555 1_555
C2 H1 1_555 1_555
C3 C2 1_555 1_555
C4 C2 1_555 1_555
C5 H2 1_555 1_555
C6 C4 1_555 1_555
C7 H3 1_555 1_555
C8 H4 1_555 1_555
C9 C3 1_555 1_555
H5 C9 1_555 1_555
C10 C4 1_555 1_555
H6 C10 1_555 1_555
H7 O4 1_555 1_555
N1 C5 1_555 1_555
N2 C8 1_555 1_555
N3 C5 1_555 1_555
O1 C6 1_555 1_555
O2 C6 1_555 1_555
O3 C1 1_555 1_555
O4 C1 1_555 1_555
Zn1 N1 1_555 1_555
N2B Zn1 1_555 1_555
N3A Zn1 1_555 1_555
Zn1B N2 1_555 1_555
Zn1A N3 1_555 1_555
C7 C9 1_555 1_555
C7 C10 1_555 1_555
C8 N3 1_555 1_555
N1 N2 1_555 1_555
O1 Zn1 1_555 1_555

#END
