
#######################################################################
#
#                 Cambridge Crystallographic Data Centre
#                                CCDC 
#
#######################################################################
#
# If this CIF has been generated from an entry in the Cambridge 
# Structural Database, then it will include bibliographic, chemical, 
# crystal, experimental, refinement or atomic coordinate data resulting 
# from the CCDC's data processing and validation procedures.
#
#######################################################################

data_UGUKUD
_symmetry_cell_setting           monoclinic
_symmetry_space_group_name_H-M   'P 21/c'
_symmetry_Int_Tables_number      14
_space_group_name_Hall           '-P 2ybc'
loop_
_symmetry_equiv_pos_site_id
_symmetry_equiv_pos_as_xyz
1 x,y,z
2 -x,1/2+y,1/2-z
3 -x,-y,-z
4 x,1/2-y,1/2+z
_cell_length_a                   5.8011(10)
_cell_length_b                   19.139(4)
_cell_length_c                   8.5616(15)
_cell_angle_alpha                90
_cell_angle_beta                 102.086(4)
_cell_angle_gamma                90
_cell_volume                     929.501
loop_
_atom_site_label
_atom_site_type_symbol
_atom_site_fract_x
_atom_site_fract_y
_atom_site_fract_z
Zn1 Zn 0.74131(13) 0.52791(4) 0.96838(10)
Zn2 Zn 0.35176(13) 0.49628(4) 0.63750(9)
P1 P 0.1137(3) 0.93370(9) 0.8043(2)
O1 O 0.6511(9) 0.6182(2) 0.8649(6)
O2 O 0.3006(9) 0.5901(3) 0.7121(7)
O3 O 0.0457(8) 0.9639(2) 0.6328(5)
O4 O -0.0920(8) 0.9315(2) 0.8857(5)
O5 O 0.3206(8) 0.9761(2) 0.8990(6)
F1 F 0.4709(7) 0.4621(2) 0.8719(5)
C1 C 0.4436(13) 0.6327(4) 0.7868(8)
C2 C 0.3687(14) 0.7069(4) 0.7868(9)
C3 C 0.1435(15) 0.7267(4) 0.7073(11)
H1 H 0.0402 0.6935 0.6525
C4 C 0.0736(14) 0.7955(4) 0.7097(11)
H2 H -0.0758 0.8080 0.6535
C5 C 0.2165(12) 0.8459(3) 0.7919(8)
C6 C 0.4422(14) 0.8253(4) 0.8730(10)
H3 H 0.5438 0.8582 0.9308
C7 C 0.5134(14) 0.7581(4) 0.8679(10)
H4 H 0.6649 0.7461 0.9209
Zn1A Zn 0.25869(13) 1.02791(4) 0.53162(10)
Zn1C Zn -0.25869(13) 0.97209(4) 0.46838(10)
Zn1B Zn 0.25869(13) 0.47209(4) 1.03162(10)
Zn2A Zn -0.35176(13) 0.99628(4) 0.86250(9)
Zn2C Zn 0.35176(13) 1.00372(4) 1.13750(9)
Zn2A_2 Zn 0.64824(13) 0.99628(4) 0.86250(9)
O3A O 0.9543(8) 0.4639(2) 0.8672(5)
O3C O 1.0457(8) 0.5361(2) 1.1328(5)
O4A O 0.0920(8) 0.4315(2) 0.6143(5)
O5C O 0.3206(8) 0.5239(2) 0.3990(6)
O5A O 0.6794(8) 0.4761(2) 0.6010(6)
F1B F 0.5291(7) 0.5379(2) 1.1281(5)
loop_
_geom_bond_atom_site_label_1
_geom_bond_atom_site_label_2
_geom_bond_site_symmetry_1
_geom_bond_site_symmetry_2
Zn1 O1 1_555 1_555
Zn2 O2 1_555 1_555
P1 O3 1_555 1_555
O1 C1 1_555 1_555
O2 C1 1_555 1_555
O3 Zn1A 1_555 1_555
O4 P1 1_555 1_555
O5 P1 1_555 1_555
F1 Zn1 1_555 1_555
C1 C2 1_555 1_555
C2 C3 1_555 1_555
C3 H1 1_555 1_555
C4 C3 1_555 1_555
H2 C4 1_555 1_555
C5 P1 1_555 1_555
C6 C5 1_555 1_555
H3 C6 1_555 1_555
C7 C2 1_555 1_555
H4 C7 1_555 1_555
Zn1C O3 1_555 1_555
Zn1B F1 1_555 1_555
Zn2A O4 1_555 1_555
Zn2C O5 1_555 1_555
Zn2A_2 O5 1_555 1_555
O3A Zn1 1_555 1_555
O3C Zn1 1_555 1_555
O4A Zn2 1_555 1_555
O5C Zn2 1_555 1_555
O5A Zn2 1_555 1_555
F1B Zn1 1_555 1_555
Zn2 F1 1_555 1_555
C4 C5 1_555 1_555
C6 C7 1_555 1_555
Zn1B F1B 1_555 1_555

#END
