
#######################################################################
#
#                 Cambridge Crystallographic Data Centre
#                                CCDC 
#
#######################################################################
#
# If this CIF has been generated from an entry in the Cambridge 
# Structural Database, then it will include bibliographic, chemical, 
# crystal, experimental, refinement or atomic coordinate data resulting 
# from the CCDC's data processing and validation procedures.
#
#######################################################################

data_UGUKAJ
_symmetry_cell_setting           monoclinic
_symmetry_space_group_name_H-M   'C c'
_symmetry_Int_Tables_number      9
_space_group_name_Hall           'C -2yc'
loop_
_symmetry_equiv_pos_site_id
_symmetry_equiv_pos_as_xyz
1 x,y,z
2 x,-y,1/2+z
3 1/2+x,1/2+y,z
4 1/2+x,1/2-y,1/2+z
_cell_length_a                   13.7305(9)
_cell_length_b                   13.7537(12)
_cell_length_c                   23.967(2)
_cell_angle_alpha                90
_cell_angle_beta                 92.890(5)
_cell_angle_gamma                90
_cell_volume                     4520.3
loop_
_atom_site_label
_atom_site_type_symbol
_atom_site_fract_x
_atom_site_fract_y
_atom_site_fract_z
Zn1 Zn -0.70329(10) 0.14604(11) -0.22289(7)
Zn2 Zn -0.90336(9) 0.09347(11) -0.33190(7)
Zn3 Zn -0.83350(10) 0.52500(11) -0.33078(7)
Zn4 Zn -0.77104(10) -0.28382(11) -0.22164(7)
Cl1 Cl -0.6557(5) 0.1886(6) 0.1299(3)
Cl2 Cl -0.9800(5) 0.0331(6) -0.6840(3)
Cl3 Cl -0.9408(5) 0.5583(5) -0.6826(2)
Cl4 Cl -0.6263(5) -0.2694(5) 0.1274(2)
O1 O -0.7179(9) 0.1213(11) -0.1438(5)
O2 O -0.6521(12) 0.2643(12) -0.1475(6)
O3 O -0.8946(10) 0.1146(11) -0.4126(6)
O4 O -0.9613(11) -0.0280(10) -0.4054(7)
O5 O -0.9598(12) 0.4795(10) -0.4072(7)
O6 O -0.8197(10) 0.5500(11) -0.4095(6)
O7 O -0.6365(12) -0.2328(11) -0.1530(6)
O8 O -0.7818(9) -0.3005(10) -0.1409(6)
N1 N -0.7812(8) 0.2464(9) -0.2644(5)
N2 N -0.8507(8) 0.2249(8) -0.3064(5)
N3 N -0.8288(10) 0.3856(9) -0.3063(6)
N4 N -0.7529(9) 0.0130(8) -0.2510(6)
N5 N -0.8236(8) -0.0077(9) -0.2926(5)
N6 N -0.7787(9) -0.1451(8) -0.2502(6)
N7 N -0.4041(8) 0.1663(9) -0.2476(6)
N8 N -0.4293(8) 0.1001(8) -0.2909(6)
N9 N -0.5655(11) 0.1439(9) -0.2478(6)
N10 N -1.1974(8) 0.0719(9) -0.3037(6)
N11 N -1.1748(9) 0.1403(8) -0.2646(5)
N12 N -1.0407(9) 0.0983(9) -0.3049(6)
C1 C -0.7707(11) 0.3399(11) -0.2654(7)
H1 H -0.7281 0.3733 -0.2408
C2 C -0.8752(10) 0.3101(11) -0.3292(8)
H2 H -0.9212 0.3161 -0.3588
C3 C -0.7261(10) -0.0702(11) -0.2272(7)
H3 H -0.6781 -0.0765 -0.1987
C4 C -0.8390(12) -0.1043(10) -0.2898(7)
H4 H -0.8849 -0.1382 -0.3121
C5 C -0.4871(11) 0.1907(11) -0.2232(7)
H5 H -0.4904 0.2338 -0.1935
C6 C -0.5289(11) 0.0910(11) -0.2882(7)
H6 H -0.5668 0.0517 -0.3123
C7 C -1.1177(11) 0.0527(12) -0.3266(7)
H7 H -1.1144 0.0096 -0.3564
C8 C -1.0801(12) 0.1531(11) -0.2649(8)
H8 H -1.0447 0.1944 -0.2407
C9 C -0.6650(17) 0.1928(19) 0.0587(10)
C10 C -0.7157(19) 0.126(2) 0.0317(13)
H9 H -0.7458 0.0770 0.0516
C11 C -0.7254(16) 0.1260(17) -0.0279(11)
H10 H -0.7625 0.0786 -0.0467
C12 C -0.6792(13) 0.1970(15) -0.0574(10)
C13 C -0.6195(18) 0.2572(14) -0.0274(8)
H11 H -0.5831 0.3021 -0.0465
C14 C -0.6096(17) 0.2557(18) 0.0297(9)
H12 H -0.5656 0.2971 0.0486
C15 C -0.6814(11) 0.1985(15) -0.1210(7)
C16 C -0.965(2) 0.0323(18) -0.6108(10)
C17 C -0.9035(18) 0.0962(17) -0.5872(9)
H13 H -0.8668 0.1370 -0.6088
C18 C -0.8954(14) 0.1003(15) -0.5291(9)
H14 H -0.8580 0.1489 -0.5116
C19 C -0.9426(14) 0.0323(13) -0.4967(9)
C20 C -0.9876(14) -0.0408(15) -0.5217(10)
H15 H -1.0141 -0.0899 -0.5005
C21 C -0.9958(18) -0.0453(18) -0.5800(12)
H16 H -1.0216 -0.1004 -0.5977
C22 C -0.9322(15) 0.0354(16) -0.4366(9)
C23 C -0.9275(15) 0.5438(16) -0.6083(10)
C24 C -0.9873(15) 0.4872(15) -0.5836(8)
H17 H -1.0344 0.4525 -0.6045
C25 C -0.9805(13) 0.4787(13) -0.5251(8)
H18 H -1.0239 0.4401 -0.5064
C26 C -0.9081(15) 0.5290(13) -0.4966(8)
C27 C -0.8393(17) 0.5817(17) -0.5247(9)
H19 H -0.7874 0.6122 -0.5053
C28 C -0.8504(14) 0.5871(17) -0.5820(7)
H20 H -0.8051 0.6205 -0.6023
C29 C -0.8941(14) 0.5187(11) -0.4358(9)
C30 C -0.6480(15) -0.2700(14) 0.0550(8)
C31 C -0.5828(17) -0.2198(17) 0.0226(11)
H21 H -0.5309 -0.1865 0.0401
C32 C -0.5943(17) -0.2189(18) -0.0351(12)
H22 H -0.5494 -0.1886 -0.0572
C33 C -0.6817(14) -0.2687(12) -0.0600(8)
C34 C -0.7397(14) -0.3197(14) -0.0257(9)
H23 H -0.7939 -0.3528 -0.0408
C35 C -0.7186(16) -0.3223(19) 0.0309(12)
H24 H -0.7553 -0.3624 0.0530
C36 C -0.6947(16) -0.2651(14) -0.1233(8)
Zn3B Zn -0.33350(10) 0.02500(11) -0.33078(7)
Zn3B_2 Zn -1.33350(10) 0.02500(11) -0.33078(7)
Zn4B Zn -0.27104(10) 0.21618(11) -0.22164(7)
Zn4B_2 Zn -1.27104(10) 0.21618(11) -0.22164(7)
N7B N -0.9041(8) -0.3337(9) -0.2476(6)
N8B N -0.9293(8) 0.6001(8) -0.2909(6)
N10B N -0.6974(8) 0.5719(9) -0.3037(6)
N11B N -0.6748(9) -0.3597(8) -0.2646(5)
loop_
_geom_bond_atom_site_label_1
_geom_bond_atom_site_label_2
_geom_bond_site_symmetry_1
_geom_bond_site_symmetry_2
Zn1 O1 1_555 1_555
Zn2 O3 1_555 1_555
Zn3 O6 1_555 1_555
Zn4 O8 1_555 1_555
Cl1 C9 1_555 1_555
Cl2 C16 1_555 1_555
Cl3 C23 1_555 1_555
Cl4 C30 1_555 1_555
O1 C15 1_555 1_555
O2 C15 1_555 1_555
O3 C22 1_555 1_555
O4 C22 1_555 1_555
O5 C29 1_555 1_555
O6 C29 1_555 1_555
O7 C36 1_555 1_555
O8 C36 1_555 1_555
N1 Zn1 1_555 1_555
N2 Zn2 1_555 1_555
N3 Zn3 1_555 1_555
N4 Zn1 1_555 1_555
N5 Zn2 1_555 1_555
N6 Zn4 1_555 1_555
N7 N8 1_555 1_555
N8 C6 1_555 1_555
N9 Zn1 1_555 1_555
N10 N11 1_555 1_555
N11 C8 1_555 1_555
N12 Zn2 1_555 1_555
C1 N1 1_555 1_555
H1 C1 1_555 1_555
C2 N2 1_555 1_555
H2 C2 1_555 1_555
C3 N4 1_555 1_555
H3 C3 1_555 1_555
C4 N5 1_555 1_555
H4 C4 1_555 1_555
C5 N7 1_555 1_555
H5 C5 1_555 1_555
C6 N9 1_555 1_555
H6 C6 1_555 1_555
C7 N10 1_555 1_555
H7 C7 1_555 1_555
C8 N12 1_555 1_555
H8 C8 1_555 1_555
C9 C10 1_555 1_555
C10 H9 1_555 1_555
C11 C10 1_555 1_555
H10 C11 1_555 1_555
C12 C11 1_555 1_555
C13 C12 1_555 1_555
H11 C13 1_555 1_555
C14 C9 1_555 1_555
H12 C14 1_555 1_555
C15 C12 1_555 1_555
C16 C17 1_555 1_555
C17 H13 1_555 1_555
C18 C17 1_555 1_555
H14 C18 1_555 1_555
C19 C18 1_555 1_555
C20 C19 1_555 1_555
H15 C20 1_555 1_555
C21 C16 1_555 1_555
H16 C21 1_555 1_555
C22 C19 1_555 1_555
C23 C24 1_555 1_555
C24 H17 1_555 1_555
C25 C24 1_555 1_555
H18 C25 1_555 1_555
C26 C25 1_555 1_555
C27 C26 1_555 1_555
H19 C27 1_555 1_555
C28 C23 1_555 1_555
H20 C28 1_555 1_555
C29 C26 1_555 1_555
C30 C31 1_555 1_555
C31 H21 1_555 1_555
C32 C31 1_555 1_555
H22 C32 1_555 1_555
C33 C32 1_555 1_555
C34 C33 1_555 1_555
H23 C34 1_555 1_555
C35 C30 1_555 1_555
H24 C35 1_555 1_555
C36 C33 1_555 1_555
Zn3B N8 1_555 1_555
Zn3B_2 N10 1_555 1_555
Zn4B N7 1_555 1_555
Zn4B_2 N11 1_555 1_555
N7B Zn4 1_555 1_555
N8B Zn3 1_555 1_555
N10B Zn3 1_555 1_555
N11B Zn4 1_555 1_555
N1 N2 1_555 1_555
N3 C1 1_555 1_555
N3 C2 1_555 1_555
N4 N5 1_555 1_555
N6 C3 1_555 1_555
N6 C4 1_555 1_555
N9 C5 1_555 1_555
N12 C7 1_555 1_555
C13 C14 1_555 1_555
C20 C21 1_555 1_555
C27 C28 1_555 1_555
C34 C35 1_555 1_555

#END
