
#######################################################################
#
#                 Cambridge Crystallographic Data Centre
#                                CCDC 
#
#######################################################################
#
# If this CIF has been generated from an entry in the Cambridge 
# Structural Database, then it will include bibliographic, chemical, 
# crystal, experimental, refinement or atomic coordinate data resulting 
# from the CCDC's data processing and validation procedures.
#
#######################################################################

data_UGUKIR
_symmetry_cell_setting           monoclinic
_symmetry_space_group_name_H-M   'P 21/c'
_symmetry_Int_Tables_number      14
_space_group_name_Hall           '-P 2ybc'
loop_
_symmetry_equiv_pos_site_id
_symmetry_equiv_pos_as_xyz
1 x,y,z
2 -x,1/2+y,1/2-z
3 -x,-y,-z
4 x,1/2-y,1/2+z
_cell_length_a                   3.577(2)
_cell_length_b                   17.335(10)
_cell_length_c                   11.596(7)
_cell_angle_alpha                90
_cell_angle_beta                 90.726(10)
_cell_angle_gamma                90
_cell_volume                     718.979
loop_
_atom_site_label
_atom_site_type_symbol
_atom_site_fract_x
_atom_site_fract_y
_atom_site_fract_z
Ag1 Ag 1.35522(14) 0.53058(2) 0.60189(4)
O1 O 0.9255(11) 0.56070(19) 0.7558(3)
O2 O 0.4929(11) 0.85927(18) 1.0198(3)
O3 O 0.7323(11) 0.9093(2) 0.8595(3)
N1 N 0.8647(12) 0.6306(2) 0.7964(4)
C1 C 0.9548(14) 0.6929(3) 0.7322(4)
H1 H 1.0614 0.6862 0.6602
C2 C 0.8896(13) 0.7652(3) 0.7729(4)
H2 H 0.9545 0.8078 0.7287
C3 C 0.7273(13) 0.7758(3) 0.8796(4)
C4 C 0.6421(15) 0.7105(3) 0.9444(5)
H3 H 0.5372 0.7159 1.0169
C5 C 0.7125(14) 0.6389(3) 0.9014(5)
H4 H 0.6553 0.5954 0.9448
C6 C 0.6439(14) 0.8555(3) 0.9239(4)
Ag1B Ag 1.64478(14) 0.46942(2) 0.39811(4)
Ag1_2 Ag 0.35522(14) 0.53058(2) 0.60189(4)
Ag1C Ag 0.35522(14) 0.96942(2) 1.10189(4)
Ag1A Ag 0.64478(14) 1.03058(2) 0.89811(4)
O1_2 O 1.9255(11) 0.56070(19) 0.7558(3)
O2C O 1.4929(11) 0.64073(18) 0.5198(3)
O3A O 1.2677(11) 0.4093(2) 0.6405(3)
O4 O 0.6684(13) 0.4208(3) 0.8689(4)
H5 H 0.4545 0.4417 0.8786
H6 H 0.8415 0.4493 0.8431
loop_
_geom_bond_atom_site_label_1
_geom_bond_atom_site_label_2
_geom_bond_site_symmetry_1
_geom_bond_site_symmetry_2
Ag1 O1 1_555 1_555
O1 N1 1_555 1_555
O2 C6 1_555 1_555
O3 C6 1_555 1_555
N1 C1 1_555 1_555
C1 H1 1_555 1_555
C2 C1 1_555 1_555
H2 C2 1_555 1_555
C3 C2 1_555 1_555
C4 C3 1_555 1_555
H3 C4 1_555 1_555
C5 N1 1_555 1_555
H4 C5 1_555 1_555
C6 C3 1_555 1_555
O4 H5 1_555 1_555
H6 O4 1_555 1_555
Ag1B Ag1 1_555 1_555
Ag1_2 O1 1_555 1_555
Ag1C O2 1_555 1_555
Ag1A O3 1_555 1_555
O1_2 Ag1 1_555 1_555
O2C Ag1 1_555 1_555
O3A Ag1 1_555 1_555
C4 C5 1_555 1_555
Ag1C Ag1A 1_555 1_555

#END
