
#######################################################################
#
#                 Cambridge Crystallographic Data Centre
#                                CCDC 
#
#######################################################################
#
# If this CIF has been generated from an entry in the Cambridge 
# Structural Database, then it will include bibliographic, chemical, 
# crystal, experimental, refinement or atomic coordinate data resulting 
# from the CCDC's data processing and validation procedures.
#
#######################################################################

data_UGUNOZ
_symmetry_cell_setting           monoclinic
_symmetry_space_group_name_H-M   'P 21/c'
_symmetry_Int_Tables_number      14
_space_group_name_Hall           '-P 2ybc'
loop_
_symmetry_equiv_pos_site_id
_symmetry_equiv_pos_as_xyz
1 x,y,z
2 x,1/2-y,1/2+z
3 -x,-y,-z
4 -x,1/2+y,1/2-z
_cell_length_a                   8.284(2)
_cell_length_b                   10.488(2)
_cell_length_c                   10.916(2)
_cell_angle_alpha                90
_cell_angle_beta                 103.25(2)
_cell_angle_gamma                90
_cell_volume                     923.163
loop_
_atom_site_label
_atom_site_type_symbol
_atom_site_fract_x
_atom_site_fract_y
_atom_site_fract_z
S1 S 0.62753(4) 0.20423(3) -0.04879(3)
Na1 Na 0.41137(7) -0.03354(5) -0.23651(5)
O1 O 1.33869(13) 0.33975(11) 0.13065(11)
O2 O 0.62324(13) 0.08738(11) -0.12015(11)
O3 O 0.56791(13) 0.18555(10) 0.06713(10)
O4 O 0.54382(13) 0.31155(10) -0.12117(10)
N1 N 1.11475(14) 0.49135(11) 0.19225(11)
C1 C 1.00318(18) 0.57073(14) 0.21803(13)
C2 C 0.83086(19) 0.55232(14) 0.17862(14)
C3 C 0.77215(17) 0.44641(13) 0.10996(13)
C4 C 0.83967(16) 0.24662(12) 0.00206(12)
C5 C 0.95901(17) 0.16969(13) -0.02792(13)
C6 C 1.12987(18) 0.19806(13) 0.01441(14)
C7 C 1.17851(16) 0.30424(12) 0.08708(13)
C8 C 1.05738(16) 0.38597(12) 0.12076(12)
C9 C 0.88590(16) 0.35824(12) 0.07735(12)
H1 H 1.401(2) 0.2898(18) 0.1096(17)
H2 H 1.049(2) 0.6485(19) 0.2615(17)
H3 H 0.765(2) 0.6107(18) 0.1993(16)
H4 H 0.657(2) 0.4366(16) 0.0846(17)
H5 H 0.918(2) 0.0955(18) -0.0790(16)
H6 H 1.208(2) 0.1434(16) -0.0072(15)
O3B O 0.43209(13) -0.18555(10) -0.06713(10)
O4C O 0.45618(13) -0.18845(10) -0.37883(10)
N1A N 0.11475(14) 0.00865(11) -0.30775(11)
Na1B Na 0.58863(7) 0.03354(5) 0.23651(5)
Na1C Na 0.58863(7) 0.46646(5) -0.26349(5)
Na1A Na 1.41137(7) 0.53354(5) 0.26349(5)
loop_
_geom_bond_atom_site_label_1
_geom_bond_atom_site_label_2
_geom_bond_site_symmetry_1
_geom_bond_site_symmetry_2
S1 O2 1_555 1_555
Na1 O2 1_555 1_555
O1 C7 1_555 1_555
O3 S1 1_555 1_555
O4 S1 1_555 1_555
N1 C1 1_555 1_555
C1 C2 1_555 1_555
C2 C3 1_555 1_555
C3 C9 1_555 1_555
C4 S1 1_555 1_555
C5 C4 1_555 1_555
C6 C5 1_555 1_555
C7 C6 1_555 1_555
C8 N1 1_555 1_555
C9 C4 1_555 1_555
H1 O1 1_555 1_555
H2 C1 1_555 1_555
H3 C2 1_555 1_555
H4 C3 1_555 1_555
H5 C5 1_555 1_555
H6 C6 1_555 1_555
O3B Na1 1_555 1_555
O4C Na1 1_555 1_555
N1A Na1 1_555 1_555
Na1B O3 1_555 1_555
Na1C O4 1_555 1_555
Na1A N1 1_555 1_555
C7 C8 1_555 1_555
C8 C9 1_555 1_555

#END
