
#######################################################################
#
#                 Cambridge Crystallographic Data Centre
#                                CCDC 
#
#######################################################################
#
# If this CIF has been generated from an entry in the Cambridge 
# Structural Database, then it will include bibliographic, chemical, 
# crystal, experimental, refinement or atomic coordinate data resulting 
# from the CCDC's data processing and validation procedures.
#
#######################################################################

data_UGUXUP
_symmetry_cell_setting           orthorhombic
_symmetry_space_group_name_H-M   'P b c a'
_symmetry_Int_Tables_number      61
_space_group_name_Hall           '-P 2ac 2ab'
loop_
_symmetry_equiv_pos_site_id
_symmetry_equiv_pos_as_xyz
1 x,y,z
2 1/2+x,y,1/2-z
3 x,1/2-y,1/2+z
4 1/2-x,1/2+y,z
5 -x,-y,-z
6 1/2-x,-y,1/2+z
7 -x,1/2+y,1/2-z
8 1/2+x,1/2-y,-z
_cell_length_a                   10.7106(4)
_cell_length_b                   6.8922(3)
_cell_length_c                   17.0335(5)
_cell_angle_alpha                90
_cell_angle_beta                 90
_cell_angle_gamma                90
_cell_volume                     1257.41
loop_
_atom_site_label
_atom_site_type_symbol
_atom_site_fract_x
_atom_site_fract_y
_atom_site_fract_z
Cd1 Cd 0.16424(3) 0.01366(4) 0.46581(2)
Cd2 Cd 0.5000 0.0000 0.5000
O1 O 0.2370(3) 0.0693(4) 0.3428(2)
O2 O 0.5449(3) -0.0753(4) 0.9263(2)
O3 O 0.3892(3) 0.2024(4) 0.4135(2)
O4 O 0.5677(3) -0.3752(4) 0.8809(2)
O5 O 0.3238(2) -0.1767(4) 0.5131(2)
H1 H 0.3258(45) -0.1887(73) 0.5709(7)
C1 C 0.5801(3) -0.1972(6) 0.8745(2)
C2 C 0.3399(4) 0.1526(6) 0.3475(3)
C3 C 0.4097(4) 0.2039(7) 0.2737(2)
H2 H 0.4960(38) 0.1715(52) 0.2805(20)
H3 H 0.4163(33) 0.3343(64) 0.2722(23)
C4 C 0.3566(4) 0.1182(7) 0.1990(3)
H4 H 0.2693(48) 0.1513(77) 0.1939(27)
H5 H 0.3716(38) -0.0196(59) 0.1997(28)
Cd1C Cd 0.33576(3) -0.48634(4) 0.46581(2)
O3C O 0.1108(3) -0.2976(4) 0.4135(2)
O2E O -0.0449(3) 0.0753(4) 0.4263(2)
Cd1A Cd 0.66424(3) 0.01366(4) 1.03419(2)
Cd1E Cd 0.33576(3) -0.01366(4) 0.96581(2)
Cd1G Cd 0.66424(3) 0.48634(4) 0.53419(2)
Cd1C_2 Cd 0.33576(3) 0.51366(4) 0.46581(2)
O4F O 0.4323(3) 0.1248(4) 0.6191(2)
O3D O 0.6108(3) -0.2024(4) 0.5865(2)
Cd1G_2 Cd 0.66424(3) -0.51366(4) 0.53419(2)
C2D C 0.6601(4) -0.1526(6) 0.6525(3)
O4B O 0.5677(3) -0.1248(4) 0.3809(2)
O5D O 0.6762(2) 0.1767(4) 0.4869(2)
Cd1D Cd 0.83576(3) -0.01366(4) 0.53419(2)
O1D O 0.7630(3) -0.0693(4) 0.6572(2)
O2A O 1.0449(3) -0.0753(4) 0.5737(2)
O2E_2 O 0.9551(3) 0.0753(4) 0.4263(2)
O3G O 0.8892(3) 0.2976(4) 0.5865(2)
O5G O 0.8238(2) -0.3233(4) 0.4869(2)
H1G H 0.8258(45) -0.3113(73) 0.4291(7)
H1D H 0.6742(45) 0.1887(73) 0.4291(7)
Cd2B Cd 0.5000 -0.5000 1.0000
O2A_2 O 0.0449(3) -0.0753(4) 0.5737(2)
O5C O 0.1762(2) 0.3233(4) 0.5131(2)
H1C H 0.1742(45) 0.3113(73) 0.5709(7)
C3D C 0.5903(4) -0.2039(7) 0.7263(2)
Cd1A_2 Cd 0.66424(3) 0.01366(4) 0.03419(2)
H2D H 0.5040(38) -0.1715(52) 0.7195(20)
H3D H 0.5837(33) -0.3343(64) 0.7278(23)
C4D C 0.6434(4) -0.1182(7) 0.8010(3)
C1D C 0.4199(3) 0.1972(6) 0.1255(2)
H4D H 0.7307(48) -0.1513(77) 0.8061(27)
H5D H 0.6284(38) 0.0196(59) 0.8003(28)
O2D O 0.4551(3) 0.0753(4) 0.0737(2)
O4D O 0.4323(3) 0.3752(4) 0.1191(2)
Cd1E_2 Cd 0.33576(3) -0.01366(4) -0.03419(2)
Cd2B_2 Cd 0.5000 0.5000 0.0000
loop_
_geom_bond_atom_site_label_1
_geom_bond_atom_site_label_2
_geom_bond_site_symmetry_1
_geom_bond_site_symmetry_2
Cd1 O1 1_555 1_555
Cd2 O3 1_555 1_555
O1 C2 1_555 1_555
O2 C1 1_555 1_555
O3 C2 1_555 1_555
O4 C1 1_555 1_555
O5 Cd1 1_555 1_555
H1 O5 1_555 1_555
C1 C4D 1_555 1_555
C2 C3 1_555 1_555
C3 H2 1_555 1_555
H3 C3 1_555 1_555
C4 C3 1_555 1_555
H4 C4 1_555 1_555
H5 C4 1_555 1_555
Cd1C O5 1_555 1_555
O3C Cd1 1_555 1_555
O2E Cd1 1_555 1_555
Cd1A O2 1_555 1_555
Cd1E O2 1_555 1_555
Cd1G O5D 1_555 1_555
Cd1C_2 O3 1_555 1_555
O4F Cd2 1_555 1_555
O3D Cd2 1_555 1_555
Cd1G_2 O3D 1_555 1_555
C2D O3D 1_555 1_555
O4B Cd2 1_555 1_555
O5D Cd2 1_555 1_555
Cd1D O5D 1_555 1_555
O1D C2D 1_555 1_555
O2A Cd1D 1_555 1_555
O2E_2 Cd1D 1_555 1_555
O3G Cd1D 1_555 1_555
O5G Cd1G_2 1_555 1_555
H1G O5G 1_555 1_555
H1D O5D 1_555 1_555
Cd2B O4 1_555 1_555
O2A_2 Cd1 1_555 1_555
O5C Cd1 1_555 1_555
H1C O5C 1_555 1_555
C3D C2D 1_555 1_555
Cd1A_2 O2D 1_555 1_555
H2D C3D 1_555 1_555
H3D C3D 1_555 1_555
C4D C3D 1_555 1_555
C1D C4 1_555 1_555
H4D C4D 1_555 1_555
H5D C4D 1_555 1_555
O2D C1D 1_555 1_555
O4D C1D 1_555 1_555
Cd1E_2 O2D 1_555 1_555
Cd2B_2 O4D 1_555 1_555
Cd2 O5 1_555 1_555
Cd1C_2 O5C 1_555 1_555
Cd1D O1D 1_555 1_555
Cd1D O5G 1_555 1_555

#END
