
#######################################################################
#
#                 Cambridge Crystallographic Data Centre
#                                CCDC 
#
#######################################################################
#
# If this CIF has been generated from an entry in the Cambridge 
# Structural Database, then it will include bibliographic, chemical, 
# crystal, experimental, refinement or atomic coordinate data resulting 
# from the CCDC's data processing and validation procedures.
#
#######################################################################

data_UGUXUP01
_symmetry_cell_setting           orthorhombic
_symmetry_space_group_name_H-M   'P b c a'
_symmetry_Int_Tables_number      61
_space_group_name_Hall           '-P 2ac 2ab'
loop_
_symmetry_equiv_pos_site_id
_symmetry_equiv_pos_as_xyz
1 x,y,z
2 1/2+x,y,1/2-z
3 x,1/2-y,1/2+z
4 1/2-x,1/2+y,z
5 -x,-y,-z
6 1/2-x,-y,1/2+z
7 -x,1/2+y,1/2-z
8 1/2+x,1/2-y,-z
_cell_length_a                   10.6790(10)
_cell_length_b                   6.8730(10)
_cell_length_c                   16.996(2)
_cell_angle_alpha                90
_cell_angle_beta                 90
_cell_angle_gamma                90
_cell_volume                     1247.45
loop_
_atom_site_label
_atom_site_type_symbol
_atom_site_fract_x
_atom_site_fract_y
_atom_site_fract_z
Cd1 Cd 0.33575(2) 0.51373(3) 0.534280(13)
Cd2 Cd 0.5000 0.0000 0.5000
O1 O 0.3899(2) 0.2032(4) 0.58681(13)
O2 O 0.2370(3) 0.0697(4) 0.65712(14)
C1 C 0.3400(3) 0.1533(5) 0.65260(18)
C2 C 0.4107(3) 0.2035(5) 0.7261(2)
C3 C 0.3561(3) 0.1189(6) 0.8012(2)
C4 C 0.4194(3) 0.1969(5) 0.87412(19)
O3 O 0.4318(2) 0.3756(4) 0.88087(15)
O4 O 0.4549(2) 0.0753(4) 0.92631(14)
O5 O 0.3238(2) -0.1768(3) 0.48758(14)
H1 H 0.503(4) 0.167(6) 0.719(2)
H2 H 0.417(3) 0.340(7) 0.725(2)
H3 H 0.268(4) 0.166(6) 0.807(2)
H4 H 0.362(5) -0.011(7) 0.795(4)
H5 H 0.321(3) -0.202(6) 0.441(2)
O1D O 0.6101(2) -0.2032(4) 0.41319(13)
O2D O 0.7630(3) -0.0697(4) 0.34288(14)
C1D C 0.6600(3) -0.1533(5) 0.34740(18)
C2D C 0.5893(3) -0.2035(5) 0.2739(2)
C3D C 0.6439(3) -0.1189(6) 0.1988(2)
C4D C 0.5806(3) -0.1969(5) 0.12588(19)
O3D O 0.5682(2) -0.3756(4) 0.11913(15)
O4D O 0.5451(2) -0.0753(4) 0.07369(14)
H1D H 0.497(4) -0.167(6) 0.281(2)
H2D H 0.583(3) -0.340(7) 0.275(2)
H3D H 0.732(4) -0.166(6) 0.193(2)
H4D H 0.638(5) 0.011(7) 0.205(4)
O5D O 0.6762(2) 0.1768(3) 0.51242(14)
H5D H 0.679(3) 0.202(6) 0.559(2)
Cd1D Cd 0.66425(2) -0.51373(3) 0.465720(13)
O2C O 0.2630(3) 0.5697(4) 0.65712(14)
O4B O 0.4549(2) 0.4247(4) 0.42631(14)
O4F O 0.5451(2) 0.5753(4) 0.57369(14)
O5_2 O 0.3238(2) 0.8232(3) 0.48758(14)
O5C O 0.1762(2) 0.3232(3) 0.48758(14)
O3B O 0.4318(2) 0.1244(4) 0.38087(15)
O3F O 0.5682(2) -0.1244(4) 0.61913(15)
Cd1C Cd 0.16425(2) 0.01373(3) 0.534280(13)
Cd2B Cd 0.5000 0.5000 1.0000
Cd1B Cd 0.33575(2) -0.01373(3) 1.034280(13)
Cd1F Cd 0.66425(2) 0.01373(3) 0.965720(13)
Cd1_2 Cd 0.33575(2) -0.48627(3) 0.534280(13)
Cd1G Cd 0.83575(2) -0.01373(3) 0.465720(13)
Cd2B_2 Cd 0.5000 -0.5000 0.0000
Cd1B_2 Cd 0.33575(2) -0.01373(3) 0.034280(13)
Cd1F_2 Cd 0.66425(2) 0.01373(3) -0.034280(13)
Cd1D_2 Cd 0.66425(2) 0.48627(3) 0.465720(13)
O2G O 0.7370(3) -0.5697(4) 0.34288(14)
O4B_2 O 0.4549(2) -0.5753(4) 0.42631(14)
O4F_2 O 0.5451(2) -0.4247(4) 0.57369(14)
O5D_2 O 0.6762(2) -0.8232(3) 0.51242(14)
O5G O 0.8238(2) -0.3232(3) 0.51242(14)
H5_2 H 0.321(3) 0.798(6) 0.441(2)
H5C H 0.179(3) 0.298(6) 0.441(2)
H5D_2 H 0.679(3) -0.798(6) 0.559(2)
H5G H 0.821(3) -0.298(6) 0.559(2)
loop_
_geom_bond_atom_site_label_1
_geom_bond_atom_site_label_2
_geom_bond_site_symmetry_1
_geom_bond_site_symmetry_2
Cd1 O1 1_555 1_555
Cd2 O1 1_555 1_555
O1 C1 1_555 1_555
O2 C1 1_555 1_555
C1 C2 1_555 1_555
C2 C3 1_555 1_555
C3 C4 1_555 1_555
C4 O3 1_555 1_555
O3 Cd2B 1_555 1_555
O4 C4 1_555 1_555
O5 Cd2 1_555 1_555
H1 C2 1_555 1_555
H2 C2 1_555 1_555
H3 C3 1_555 1_555
H4 C3 1_555 1_555
H5 O5 1_555 1_555
O1D Cd2 1_555 1_555
O2D C1D 1_555 1_555
C1D O1D 1_555 1_555
C2D C1D 1_555 1_555
C3D C2D 1_555 1_555
C4D C3D 1_555 1_555
O3D C4D 1_555 1_555
O4D C4D 1_555 1_555
H1D C2D 1_555 1_555
H2D C2D 1_555 1_555
H3D C3D 1_555 1_555
H4D C3D 1_555 1_555
O5D Cd2 1_555 1_555
H5D O5D 1_555 1_555
Cd1D O1D 1_555 1_555
O2C Cd1 1_555 1_555
O4B Cd1 1_555 1_555
O4F Cd1 1_555 1_555
O5_2 Cd1 1_555 1_555
O5C Cd1 1_555 1_555
O3B Cd2 1_555 1_555
O3F Cd2 1_555 1_555
Cd1C O2 1_555 1_555
Cd1B O4 1_555 1_555
Cd1F O4 1_555 1_555
Cd1_2 O5 1_555 1_555
Cd1G O2D 1_555 1_555
Cd2B_2 O3D 1_555 1_555
Cd1B_2 O4D 1_555 1_555
Cd1F_2 O4D 1_555 1_555
Cd1D_2 O5D 1_555 1_555
O2G Cd1D 1_555 1_555
O4B_2 Cd1D 1_555 1_555
O4F_2 Cd1D 1_555 1_555
O5D_2 Cd1D 1_555 1_555
O5G Cd1D 1_555 1_555
H5_2 O5_2 1_555 1_555
H5C O5C 1_555 1_555
H5D_2 O5D_2 1_555 1_555
H5G O5G 1_555 1_555
O5 Cd1C 1_555 1_555
O5D Cd1G 1_555 1_555
O4B Cd1D_2 1_555 1_555
O4F Cd1D_2 1_555 1_555
O5C Cd1C 1_555 1_555
Cd1_2 O4B_2 1_555 1_555
Cd1_2 O4F_2 1_555 1_555
Cd1G O5G 1_555 1_555

#END
