
#######################################################################
#
#                 Cambridge Crystallographic Data Centre
#                                CCDC 
#
#######################################################################
#
# If this CIF has been generated from an entry in the Cambridge 
# Structural Database, then it will include bibliographic, chemical, 
# crystal, experimental, refinement or atomic coordinate data resulting 
# from the CCDC's data processing and validation procedures.
#
#######################################################################

data_UGUXEZ
_symmetry_cell_setting           monoclinic
_symmetry_space_group_name_H-M   'P 21/c'
_symmetry_Int_Tables_number      14
_space_group_name_Hall           '-P 2ybc'
loop_
_symmetry_equiv_pos_site_id
_symmetry_equiv_pos_as_xyz
1 x,y,z
2 x,1/2-y,1/2+z
3 -x,-y,-z
4 -x,1/2+y,1/2-z
_cell_length_a                   9.0509(2)
_cell_length_b                   13.86510(10)
_cell_length_c                   15.7025(3)
_cell_angle_alpha                90
_cell_angle_beta                 106.0150(10)
_cell_angle_gamma                90
_cell_volume                     1894.06
loop_
_atom_site_label
_atom_site_type_symbol
_atom_site_fract_x
_atom_site_fract_y
_atom_site_fract_z
Cd1 Cd -0.72677(4) 0.57619(2) -0.38672(2)
Cd2 Cd 0.19626(4) 0.90640(2) -0.37375(2)
O1 O -0.4984(4) 0.6554(2) -0.3692(2)
O2 O -0.8667(4) 0.4292(2) -0.4213(2)
O3 O -0.6188(4) 0.4065(2) -0.3617(3)
O4 O -0.6989(6) 0.5706(3) -0.2369(3)
H1 H -0.7750(82) 0.5332(54) -0.2174(49)
H2 H -0.6453(92) 0.5460(60) -0.2143(57)
O5 O -0.9732(4) 0.6301(3) -0.4027(3)
H3 H -0.9942(59) 0.6901(44) -0.4020(34)
H4 H -1.0179(77) 0.6194(45) -0.4553(45)
O6 O -0.0236(4) 0.8223(2) -0.3920(2)
O7 O -0.6732(4) 0.7658(2) -0.3720(2)
O8 O -0.8370(4) 0.0719(2) -0.3874(3)
O9 O -0.5956(4) 0.0299(2) -0.3591(3)
O10 O 0.1409(5) 0.9039(3) -0.5272(3)
H5 H 0.1531(70) 0.9506(47) -0.5545(42)
H6 H 0.048(11) 0.8884(60) -0.5456(63)
O11 O -0.1574(4) 0.9406(2) -0.3554(3)
C1 C -0.7862(6) 0.2682(3) -0.3873(4)
H7 H -0.8861(6) 0.2460(3) -0.3957(4)
H8 H -0.8435(56) 0.2560(34) -0.4433(36)
C2 C -0.7520(6) 0.3739(3) -0.3896(3)
C3 C -0.6515(6) 0.1987(3) -0.3708(3)
H9 H -0.5815(6) 0.2124(3) -0.3132(3)
H10 H -0.5966(6) 0.2099(3) -0.4149(3)
C4 C -0.5377(5) 0.7423(3) -0.3699(3)
C5 C -0.1420(5) 0.8551(3) -0.3735(3)
C6 C -0.6972(7) 0.0940(3) -0.3739(3)
C7 C -0.4194(5) 0.8193(3) -0.3689(4)
H11 H -0.4586(5) 0.8617(3) -0.4192(4)
H12 H -0.4051(5) 0.8576(3) -0.3155(4)
C8 C -0.2648(6) 0.7803(4) -0.3723(4)
H13 H -0.2852(58) 0.7447(35) -0.4267(38)
H14 H -0.2116(57) 0.7397(36) -0.3233(37)
N1 N -0.7792(5) 0.5859(3) -0.5427(3)
C9 C -0.7084(6) 0.5080(3) -0.5818(3)
H15 H -0.5976(6) 0.5160(3) -0.5637(3)
H16 H -0.7318(6) 0.4465(3) -0.5591(3)
C10 C -0.7482(7) 0.6786(4) -0.5808(3)
H17 H -0.8011(7) 0.7297(4) -0.5590(3)
H18 H -0.6388(7) 0.6919(4) -0.5608(3)
N2 N -0.7331(5) 0.5992(3) -0.7206(3)
C11 C -0.7989(6) 0.6794(3) -0.6814(3)
H19 H -0.7683(6) 0.7400(3) -0.7023(3)
H20 H -0.9102(6) 0.6755(3) -0.7014(3)
C12 C -0.7636(6) 0.5064(3) -0.6815(3)
H21 H -0.7124(6) 0.4547(3) -0.7037(3)
H22 H -0.8732(6) 0.4935(3) -0.6998(3)
N2A N 0.2669(5) 0.9008(3) -0.2206(3)
Cd2_2 Cd -0.80374(4) 0.90640(2) -0.37375(2)
Cd2A Cd -0.80374(4) 0.59360(2) -0.87375(2)
O7_2 O 0.3268(4) 0.7658(2) -0.3720(2)
O8_2 O 0.1630(4) 1.0719(2) -0.3874(3)
O9_2 O 0.4044(4) 1.0299(2) -0.3591(3)
Cd2_3 Cd -0.80374(4) -0.09360(2) -0.37375(2)
loop_
_geom_bond_atom_site_label_1
_geom_bond_atom_site_label_2
_geom_bond_site_symmetry_1
_geom_bond_site_symmetry_2
Cd1 O1 1_555 1_555
Cd2 O6 1_555 1_555
O1 C4 1_555 1_555
O2 Cd1 1_555 1_555
O3 Cd1 1_555 1_555
O4 Cd1 1_555 1_555
H1 O4 1_555 1_555
H2 O4 1_555 1_555
O5 Cd1 1_555 1_555
H3 O5 1_555 1_555
H4 O5 1_555 1_555
O6 C5 1_555 1_555
O7 Cd1 1_555 1_555
O8 C6 1_555 1_555
O9 C6 1_555 1_555
O10 Cd2 1_555 1_555
H5 O10 1_555 1_555
H6 O10 1_555 1_555
O11 C5 1_555 1_555
C1 H7 1_555 1_555
H8 C1 1_555 1_555
C2 O2 1_555 1_555
C3 C1 1_555 1_555
H9 C3 1_555 1_555
H10 C3 1_555 1_555
C4 O7 1_555 1_555
C5 C8 1_555 1_555
C6 C3 1_555 1_555
C7 C4 1_555 1_555
H11 C7 1_555 1_555
H12 C7 1_555 1_555
C8 C7 1_555 1_555
H13 C8 1_555 1_555
H14 C8 1_555 1_555
N1 Cd1 1_555 1_555
C9 N1 1_555 1_555
H15 C9 1_555 1_555
H16 C9 1_555 1_555
C10 N1 1_555 1_555
H17 C10 1_555 1_555
H18 C10 1_555 1_555
N2 C11 1_555 1_555
C11 C10 1_555 1_555
H19 C11 1_555 1_555
H20 C11 1_555 1_555
C12 C9 1_555 1_555
H21 C12 1_555 1_555
H22 C12 1_555 1_555
N2A Cd2 1_555 1_555
Cd2_2 O7 1_555 1_555
Cd2A N2 1_555 1_555
O7_2 Cd2 1_555 1_555
O8_2 Cd2 1_555 1_555
O9_2 Cd2 1_555 1_555
Cd2_3 O8 1_555 1_555
O3 C2 1_555 1_555
O9 Cd2_3 1_555 1_555
C1 C2 1_555 1_555
N2 C12 1_555 1_555

#END
