
#######################################################################
#
#                 Cambridge Crystallographic Data Centre
#                                CCDC 
#
#######################################################################
#
# If this CIF has been generated from an entry in the Cambridge 
# Structural Database, then it will include bibliographic, chemical, 
# crystal, experimental, refinement or atomic coordinate data resulting 
# from the CCDC's data processing and validation procedures.
#
#######################################################################

data_UHAFEQ
_symmetry_cell_setting           monoclinic
_symmetry_space_group_name_H-M   'P 21'
_symmetry_Int_Tables_number      4
_space_group_name_Hall           'P 2yb'
loop_
_symmetry_equiv_pos_site_id
_symmetry_equiv_pos_as_xyz
1 x,y,z
2 -x,1/2+y,-z
_cell_length_a                   14.3313(2)
_cell_length_b                   13.8416(2)
_cell_length_c                   15.6365(3)
_cell_angle_alpha                90
_cell_angle_beta                 90.728(2)
_cell_angle_gamma                90
_cell_volume                     3101.53
loop_
_atom_site_label
_atom_site_type_symbol
_atom_site_fract_x
_atom_site_fract_y
_atom_site_fract_z
Tb1 Tb -0.818499(19) -0.00839(3) 2.009261(16)
N1 N -0.4832(4) -0.5726(5) 1.7129(4)
N2 N -0.8724(4) -0.7020(4) 1.7573(4)
N3 N -0.8000(4) -0.2573(4) 1.6833(3)
N4 N -0.4444(4) -0.4919(5) 2.2927(3)
N5 N -0.8046(4) -0.7551(4) 2.3358(3)
N6 N -0.8239(5) -0.2976(4) 2.2785(4)
O1 O -0.3182(4) -0.5673(5) 1.9274(4)
O2 O -0.8547(4) -0.8443(4) 1.9849(3)
O3 O -0.8541(4) -0.0749(3) 1.8807(3)
O4 O -0.3025(4) -0.4512(5) 2.0717(4)
O5 O -0.8410(4) -0.9486(3) 2.1415(3)
O6 O -0.8580(4) -0.1698(4) 2.0447(3)
C1 C -0.5803(6) -0.3780(7) 1.6127(5)
H1 H -0.6065 -0.3147 1.6058
H2 H -0.5456 -0.3946 1.5627
H3 H -0.5394 -0.3787 1.6619
C2 C -0.6875(9) -0.7244(6) 1.6626(6)
H4 H -0.7444 -0.7593 1.6718
H5 H -0.6469 -0.7321 1.7114
H6 H -0.6575 -0.7491 1.6127
C3 C -0.9220(6) -0.4512(7) 1.6515(5)
H7 H -0.9248 -0.3826 1.6424
H8 H -0.9448 -0.4661 1.7074
H9 H -0.9599 -0.4832 1.6091
C4 C -0.6582(6) -0.4510(6) 1.6251(5)
C5 C -0.6368(6) -0.5496(7) 1.6370(5)
C6 C -0.7102(7) -0.6142(5) 1.6495(4)
C7 C -0.8006(5) -0.5828(5) 1.6559(4)
C8 C -0.8227(5) -0.4849(5) 1.6444(4)
C9 C -0.7515(5) -0.4209(5) 1.6271(4)
C10 C -0.5371(6) -0.5832(8) 1.6305(5)
H10 H -0.5366 -0.6505 1.6134
H11 H -0.5064 -0.5462 1.5864
C11 C -0.5220(6) -0.5748(7) 1.7894(5)
H12 H -0.5866 -0.5780 1.7928
C12 C -0.4700(6) -0.5725(8) 1.8638(5)
H13 H -0.5000 -0.5741 1.9162
C13 C -0.3685(6) -0.5675(6) 1.8618(6)
C14 C -0.3334(6) -0.5638(6) 1.7787(5)
H14 H -0.2691 -0.5596 1.7717
C15 C -0.3885(6) -0.5662(6) 1.7085(5)
H15 H -0.3610 -0.5633 1.6550
C16 C -0.8799(7) -0.6531(8) 1.6738(6)
H16 H -0.9385 -0.6182 1.6711
H17 H -0.8815 -0.7017 1.6291
C17 C -0.8348(6) -0.6578(6) 1.8273(5)
H18 H -0.8124 -0.5950 1.8226
C18 C -0.8294(6) -0.7029(5) 1.9029(5)
H19 H -0.8036 -0.6709 1.9498
C19 C -0.8622(6) -0.7984(5) 1.9126(5)
C20 C -0.9033(6) -0.8394(5) 1.8397(5)
H20 H -0.9289 -0.9010 1.8435
C21 C -0.9069(5) -0.7930(5) 1.7646(4)
H21 H -0.9334 -0.8233 1.7171
C22 C -0.7747(6) -0.3171(5) 1.6068(4)
H22 H -0.7215 -0.2877 1.5793
H23 H -0.8265 -0.3159 1.5663
C23 C -0.7514(6) -0.2655(5) 1.7584(4)
H24 H -0.7053 -0.3125 1.7636
C24 C -0.7684(6) -0.2073(5) 1.8253(4)
H25 H -0.7341 -0.2153 1.8757
C25 C -0.8371(5) -0.1345(5) 1.8208(4)
C26 C -0.8872(6) -0.1316(6) 1.7417(5)
H26 H -0.9353 -0.0871 1.7348
C27 C -0.8673(6) -0.1907(5) 1.6772(5)
H27 H -0.9013 -0.1855 1.6264
C28 C -0.5981(6) -0.3263(6) 2.3491(5)
H28 H -0.6427 -0.2746 2.3460
H29 H -0.5652 -0.3302 2.2961
H30 H -0.5545 -0.3142 2.3950
C29 C -0.5831(6) -0.6877(6) 2.3907(5)
H31 H -0.5181 -0.6724 2.3850
H32 H -0.6019 -0.7311 2.3458
H33 H -0.5931 -0.7178 2.4451
C30 C -0.8959(5) -0.5179(8) 2.3815(5)
H34 H -0.9159 -0.5833 2.3903
H35 H -0.9199 -0.4949 2.3275
H36 H -0.9190 -0.4778 2.4267
C31 C -0.6485(7) -0.4208(7) 2.3651(6)
C32 C -0.5964(4) -0.5063(9) 2.3740(3)
C33 C -0.6408(6) -0.5950(6) 2.3846(5)
C34 C -0.7387(6) -0.5983(6) 2.3908(5)
C35 C -0.7914(4) -0.5141(8) 2.3814(3)
C36 C -0.7445(6) -0.4254(5) 2.3689(4)
C37 C -0.4915(4) -0.5009(10) 2.3777(4)
H37 H -0.4737 -0.4459 2.4127
H38 H -0.4681 -0.5585 2.4060
C38 C -0.3527(5) -0.4740(6) 2.2939(5)
H39 H -0.3223 -0.4696 2.3466
C39 C -0.3025(5) -0.4621(6) 2.2230(5)
H40 H -0.2388 -0.4502 2.2270
C40 C -0.3477(6) -0.4678(6) 2.1411(5)
C41 C -0.4423(5) -0.4874(7) 2.1424(5)
H41 H -0.4746 -0.4930 2.0907
C42 C -0.4904(5) -0.4990(9) 2.2174(4)
H42 H -0.5542 -0.5116 2.2160
C43 C -0.7858(5) -0.6919(5) 2.4129(4)
H43 H -0.8444 -0.6780 2.4406
H44 H -0.7467 -0.7271 2.4533
C44 C -0.7861(6) -0.7302(5) 2.2540(4)
H45 H -0.7632 -0.6686 2.2432
C45 C -0.7995(5) -0.7916(5) 2.1873(4)
H46 H -0.7863 -0.7716 2.1320
C46 C -0.8335(5) -0.8860(5) 2.2018(4)
C47 C -0.8539(5) -0.9104(5) 2.2889(4)
H47 H -0.8774 -0.9712 2.3020
C48 C -0.8387(5) -0.8445(5) 2.3522(4)
H48 H -0.8522 -0.8612 2.4083
C49 C -0.8004(5) -0.3312(5) 2.3666(4)
H49 H -0.8578 -0.3404 2.3978
H50 H -0.7647 -0.2813 2.3957
C50 C -0.8708(5) -0.2129(5) 2.2709(5)
H51 H -0.8933 -0.1835 2.3200
C51 C -0.8858(6) -0.1694(5) 2.1940(5)
H52 H -0.9177 -0.1110 2.1915
C52 C -0.8532(6) -0.2127(5) 2.1164(5)
C53 C -0.8124(6) -0.3054(5) 2.1266(5)
H53 H -0.7945 -0.3399 2.0785
C54 C -0.7988(6) -0.3450(5) 2.2061(4)
H54 H -0.7716 -0.4059 2.2107
O7 O -0.9837(3) -0.0042(7) 2.0077(3)
Tb1_2 Tb -0.818499(19) -1.00839(3) 2.009261(16)
Tb1A Tb -0.181501(19) -0.50839(3) 1.990739(16)
O1A O -0.6818(4) -0.0673(5) 2.0726(4)
O2_2 O -0.8547(4) 0.1557(4) 1.9849(3)
O4A O -0.6975(4) 0.0488(5) 1.9283(4)
O5_2 O -0.8410(4) 0.0514(3) 2.1415(3)
Cl1 Cl -0.67343(18) -0.1268(2) 0.49835(15)
Cl2 Cl -0.30157(11) -0.05288(12) -0.09844(10)
Cl3 Cl -0.99707(18) -0.2599(2) 0.48688(11)
C55 C -1.4783(8) -0.8156(7) 0.0804(9)
C56 C -1.4416(13) -0.7882(12) -0.0023(9)
H55 H -1.3760 -0.8022 -0.0036
H56 H -1.4512 -0.7203 -0.0113
H57 H -1.4732 -0.8239 -0.0465
C57 C -1.5750(10) -0.7989(11) 0.1023(14)
H58 H -1.5848 -0.8179 0.1606
H59 H -1.6148 -0.8363 0.0652
H60 H -1.5894 -0.7316 0.0957
O8 O -1.4230(5) -0.8506(5) 0.1339(5)
O9 O -1.9955(4) -0.2493(4) -0.0793(3)
O10 O -1.0808(4) -0.0663(4) 0.8665(4)
O11 O -1.0899(4) 0.0763(4) 2.1309(4)
O12 O -0.6795(5) 0.1045(6) 0.4982(4)
O13 O -1.2763(5) 0.0292(4) 2.0912(4)
O14 O -1.8612(5) 0.0855(4) -0.4235(4)
O15 O -1.8826(4) -0.0697(4) -0.5384(4)
loop_
_geom_bond_atom_site_label_1
_geom_bond_atom_site_label_2
_geom_bond_site_symmetry_1
_geom_bond_site_symmetry_2
Tb1 O3 1_555 1_555
N1 C10 1_555 1_555
N2 C16 1_555 1_555
N3 C22 1_555 1_555
N4 C37 1_555 1_555
N5 C43 1_555 1_555
N6 C49 1_555 1_555
O1 C13 1_555 1_555
O2 C19 1_555 1_555
O3 C25 1_555 1_555
O4 C40 1_555 1_555
O5 C46 1_555 1_555
O6 Tb1 1_555 1_555
C1 H1 1_555 1_555
H2 C1 1_555 1_555
H3 C1 1_555 1_555
C2 H4 1_555 1_555
H5 C2 1_555 1_555
H6 C2 1_555 1_555
C3 H7 1_555 1_555
H8 C3 1_555 1_555
H9 C3 1_555 1_555
C4 C1 1_555 1_555
C5 C4 1_555 1_555
C6 C2 1_555 1_555
C7 C6 1_555 1_555
C8 C3 1_555 1_555
C9 C4 1_555 1_555
C10 C5 1_555 1_555
H10 C10 1_555 1_555
H11 C10 1_555 1_555
C11 N1 1_555 1_555
H12 C11 1_555 1_555
C12 C11 1_555 1_555
H13 C12 1_555 1_555
C13 C12 1_555 1_555
C14 C13 1_555 1_555
H14 C14 1_555 1_555
C15 N1 1_555 1_555
H15 C15 1_555 1_555
C16 C7 1_555 1_555
H16 C16 1_555 1_555
H17 C16 1_555 1_555
C17 N2 1_555 1_555
H18 C17 1_555 1_555
C18 C17 1_555 1_555
H19 C18 1_555 1_555
C19 C18 1_555 1_555
C20 C19 1_555 1_555
H20 C20 1_555 1_555
C21 N2 1_555 1_555
H21 C21 1_555 1_555
C22 C9 1_555 1_555
H22 C22 1_555 1_555
H23 C22 1_555 1_555
C23 N3 1_555 1_555
H24 C23 1_555 1_555
C24 C23 1_555 1_555
H25 C24 1_555 1_555
C25 C24 1_555 1_555
C26 C25 1_555 1_555
H26 C26 1_555 1_555
C27 N3 1_555 1_555
H27 C27 1_555 1_555
C28 H28 1_555 1_555
H29 C28 1_555 1_555
H30 C28 1_555 1_555
C29 H31 1_555 1_555
H32 C29 1_555 1_555
H33 C29 1_555 1_555
C30 H34 1_555 1_555
H35 C30 1_555 1_555
H36 C30 1_555 1_555
C31 C28 1_555 1_555
C32 C31 1_555 1_555
C33 C29 1_555 1_555
C34 C33 1_555 1_555
C35 C30 1_555 1_555
C36 C31 1_555 1_555
C37 C32 1_555 1_555
H37 C37 1_555 1_555
H38 C37 1_555 1_555
C38 N4 1_555 1_555
H39 C38 1_555 1_555
C39 C38 1_555 1_555
H40 C39 1_555 1_555
C40 C39 1_555 1_555
C41 C40 1_555 1_555
H41 C41 1_555 1_555
C42 N4 1_555 1_555
H42 C42 1_555 1_555
C43 C34 1_555 1_555
H43 C43 1_555 1_555
H44 C43 1_555 1_555
C44 N5 1_555 1_555
H45 C44 1_555 1_555
C45 C44 1_555 1_555
H46 C45 1_555 1_555
C46 C45 1_555 1_555
C47 C46 1_555 1_555
H47 C47 1_555 1_555
C48 N5 1_555 1_555
H48 C48 1_555 1_555
C49 C36 1_555 1_555
H49 C49 1_555 1_555
H50 C49 1_555 1_555
C50 N6 1_555 1_555
H51 C50 1_555 1_555
C51 C50 1_555 1_555
H52 C51 1_555 1_555
C52 O6 1_555 1_555
C53 C52 1_555 1_555
H53 C53 1_555 1_555
C54 N6 1_555 1_555
H54 C54 1_555 1_555
O7 Tb1 1_555 1_555
C55 C56 1_555 1_555
C56 H55 1_555 1_555
H56 C56 1_555 1_555
H57 C56 1_555 1_555
C57 C55 1_555 1_555
H58 C57 1_555 1_555
H59 C57 1_555 1_555
H60 C57 1_555 1_555
O8 C55 1_555 1_555
Tb1_2 O2 1_555 1_555
Tb1A O1 1_555 1_555
O1A Tb1 1_555 1_555
O2_2 Tb1 1_555 1_555
O4A Tb1 1_555 1_555
O5_2 Tb1 1_555 1_555
O4 Tb1A 1_555 1_555
O5 Tb1_2 1_555 1_555
C5 C6 1_555 1_555
C7 C8 1_555 1_555
C8 C9 1_555 1_555
C14 C15 1_555 1_555
C20 C21 1_555 1_555
C26 C27 1_555 1_555
C32 C33 1_555 1_555
C34 C35 1_555 1_555
C35 C36 1_555 1_555
C41 C42 1_555 1_555
C47 C48 1_555 1_555
C51 C52 1_555 1_555
C53 C54 1_555 1_555

#END
