
#######################################################################
#
#                 Cambridge Crystallographic Data Centre
#                                CCDC 
#
#######################################################################
#
# If this CIF has been generated from an entry in the Cambridge 
# Structural Database, then it will include bibliographic, chemical, 
# crystal, experimental, refinement or atomic coordinate data resulting 
# from the CCDC's data processing and validation procedures.
#
#######################################################################

data_UHAFOA
_symmetry_cell_setting           monoclinic
_symmetry_space_group_name_H-M   'P 21'
_symmetry_Int_Tables_number      4
_space_group_name_Hall           'P 2yb'
loop_
_symmetry_equiv_pos_site_id
_symmetry_equiv_pos_as_xyz
1 x,y,z
2 -x,1/2+y,-z
_cell_length_a                   14.3406(2)
_cell_length_b                   13.8448(2)
_cell_length_c                   15.6676(2)
_cell_angle_alpha                90
_cell_angle_beta                 90.7020(10)
_cell_angle_gamma                90
_cell_volume                     3110.45
loop_
_atom_site_label
_atom_site_type_symbol
_atom_site_fract_x
_atom_site_fract_y
_atom_site_fract_z
Gd1 Gd -0.318691(18) 1.02190(2) 1.009320(17)
O1 O 0.1978(3) 0.4657(4) 1.0740(3)
O2 O -0.3424(3) 0.9608(3) 1.1430(3)
O3 O -0.3587(4) 0.1843(3) 1.0439(3)
O4 O -0.1808(3) 1.0798(4) 1.0720(3)
O5 O 0.3542(3) 0.5901(3) 1.1198(3)
O6 O 0.3559(4) 1.3566(3) 1.0145(3)
N1 N 0.0553(3) 0.5059(4) 1.2930(3)
N2 N -0.3049(3) 0.7678(4) 1.3369(3)
N3 N -0.3244(4) 0.3116(4) 1.2781(3)
N4 N -0.0182(4) 1.0842(5) 1.2882(3)
N5 N 0.3011(4) 0.7715(4) 1.3173(3)
N6 N 0.3717(4) 1.2173(4) 1.2441(4)
C1 C -0.1017(6) 0.3376(6) 1.3483(5)
H1 H -0.0354 0.3469 1.3469
H2 H -0.1230 0.3122 1.2945
H3 H -0.1167 0.2929 1.3929
C2 C -0.0850(5) 0.7007(6) 1.3906(5)
H4 H -0.0198 0.6861 1.3861
H5 H -0.0962 0.7320 1.4442
H6 H -0.1036 0.7426 1.3447
C3 C -0.3969(4) 0.5311(7) 1.3805(4)
H7 H -0.4225 0.4675 1.3732
H8 H -0.4177 0.5717 1.3343
H9 H -0.4174 0.5577 1.4336
C4 C -0.1492(5) 0.4336(5) 1.3650(4)
C5 C -0.0968(4) 0.5182(6) 1.3742(3)
C6 C -0.1412(5) 0.6073(5) 1.3857(4)
C7 C -0.2396(4) 0.6107(5) 1.3910(4)
C8 C -0.2915(4) 0.5255(6) 1.3808(3)
C9 C -0.2455(5) 0.4367(5) 1.3698(4)
C10 C 0.0082(4) 0.5130(7) 1.3779(4)
H10 H 0.0314 0.5701 1.4071
H11 H 0.0261 0.4574 1.4119
C11 C 0.1479(4) 0.4884(5) 1.2949(4)
H12 H 0.1788 0.4853 1.3474
C12 C 0.1967(4) 0.4753(5) 1.2232(4)
H13 H 0.2603 0.4625 1.2268
C13 C 0.1520(5) 0.4809(5) 1.1413(5)
C14 C 0.0572(5) 0.5016(6) 1.1424(4)
H14 H 0.0249 0.5080 1.0909
C15 C 0.0100(4) 0.5130(7) 1.2171(4)
H15 H -0.0537 0.5257 1.2156
C16 C -0.2855(5) 0.7052(5) 1.4124(4)
H16 H -0.3438 0.6920 1.4409
H17 H -0.2456 0.7402 1.4522
C17 C -0.2861(5) 0.7422(5) 1.2547(4)
H18 H -0.2637 0.6804 1.2439
C18 C -0.2989(4) 0.8034(5) 1.1890(4)
H19 H -0.2854 0.7833 1.1339
C19 C -0.3333(4) 0.8991(5) 1.2029(4)
C20 C -0.3547(4) 0.9222(4) 1.2890(4)
H20 H -0.3790 0.9827 1.3018
C21 C -0.3401(4) 0.8574(4) 1.3524(4)
H21 H -0.3545 0.8745 1.4081
C22 C -0.3011(5) 0.3438(5) 1.3662(4)
H22 H -0.2657 0.2933 1.3947
H23 H -0.3585 0.3528 1.3973
C23 C -0.3707(4) 0.2248(5) 1.2709(4)
H24 H -0.3915 0.1938 1.3198
C24 C -0.3864(5) 0.1843(5) 1.1935(4)
H25 H -0.4193 0.1265 1.1902
C25 C -0.3543(5) 0.2274(5) 1.1172(4)
C26 C -0.3124(5) 0.3198(5) 1.1259(5)
H26 H -0.2943 0.3543 1.0779
C27 C -0.2990(5) 0.3579(5) 1.2060(4)
H27 H -0.2712 0.4183 1.2109
C28 C 0.1833(9) 1.2363(6) 1.3392(6)
H28 H 0.2393 1.2727 1.3304
H29 H 0.1529 1.2591 1.3896
H30 H 0.1422 1.2440 1.2908
C29 C 0.0801(5) 0.8929(7) 1.3875(5)
H31 H 0.0215 0.9265 1.3863
H32 H 0.0881 0.8612 1.4416
H33 H 0.0808 0.8457 1.3427
C30 C 0.4214(5) 0.9657(7) 1.3498(5)
H34 H 0.4243 0.8973 1.3598
H35 H 0.4592 0.9985 1.3916
H36 H 0.4441 0.9797 1.2938
C31 C 0.2077(5) 1.1298(5) 1.3499(4)
C32 C 0.1351(5) 1.0618(5) 1.3637(4)
C33 C 0.1577(5) 0.9634(5) 1.3750(4)
C34 C 0.2512(4) 0.9345(4) 1.3732(4)
C35 C 0.3212(4) 0.9996(5) 1.3566(3)
C36 C 0.2992(5) 1.0975(5) 1.3442(4)
C37 C 0.0364(5) 1.0954(7) 1.3701(4)
H37 H 0.0361 1.1629 1.3868
H38 H 0.0058 1.0589 1.4146
C38 C -0.1121(5) 1.0773(5) 1.2939(5)
H39 H -0.1395 1.0735 1.3472
C39 C -0.1660(5) 1.0758(6) 1.2229(5)
H40 H -0.2303 1.0712 1.2289
C40 C -0.1294(5) 1.0809(5) 1.1403(4)
C41 C -0.0327(5) 1.0870(7) 1.1376(5)
H41 H -0.0038 1.0918 1.0850
C42 C 0.0215(5) 1.0863(6) 1.2108(5)
H42 H 0.0861 1.0873 1.2067
C43 C 0.2756(6) 0.8308(5) 1.3937(4)
H43 H 0.3275 0.8301 1.4340
H44 H 0.2227 0.8008 1.4213
C44 C 0.3675(5) 0.7043(5) 1.3229(4)
H45 H 0.4004 0.6977 1.3740
C45 C 0.3887(6) 0.6454(6) 1.2573(5)
H46 H 0.4380 0.6022 1.2631
C46 C 0.3374(5) 0.6484(4) 1.1802(4)
C47 C 0.2692(5) 0.7208(5) 1.1748(4)
H47 H 0.2354 0.7289 1.1242
C48 C 0.2516(5) 0.7794(5) 1.2429(4)
H48 H 0.2048 0.8257 1.2383
C49 C 0.3770(7) 1.1694(7) 1.3277(5)
H49 H 0.3760 1.2184 1.3719
H50 H 0.4363 1.1359 1.3324
C50 C 0.3337(5) 1.1718(5) 1.1732(5)
H51 H 0.3108 1.1092 1.1780
C51 C 0.3293(6) 1.2172(5) 1.0969(5)
H52 H 0.3040 1.1850 1.0499
C52 C 0.3624(5) 1.3129(5) 1.0870(4)
C53 C 0.4051(5) 1.3549(5) 1.1602(4)
H53 H 0.4323 1.4157 1.1564
C54 C 0.4066(4) 1.3070(5) 1.2359(4)
H54 H 0.4325 1.3372 1.2836
O7 O -0.4859(3) 1.0192(5) 1.0072(3)
Gd1_2 Gd -0.318691(18) 0.02190(2) 1.009320(17)
Gd1A Gd 0.318691(18) 0.52190(2) 0.990680(17)
Gd1A_2 Gd 0.318691(18) 1.52190(2) 0.990680(17)
O1A O -0.1978(3) 0.9657(4) 0.9260(3)
O3_2 O -0.3587(4) 1.1843(3) 1.0439(3)
O5A O -0.3542(3) 1.0901(3) 0.8802(3)
O6A O -0.3559(4) 0.8566(3) 0.9855(3)
Cl1 Cl 0.17360(12) 0.64003(14) 1.50162(11)
Cl2 Cl 0.19727(8) 0.06578(11) 0.90325(9)
Cl3 Cl 0.49676(12) 0.77323(15) 1.51192(10)
C55 C 0.0226(6) -0.1718(7) 1.0825(8)
C56 C 0.0548(11) -0.1940(13) 1.0002(10)
H55 H 0.1199 -0.1786 0.9967
H56 H 0.0205 -0.1569 0.9586
H57 H 0.0459 -0.2616 0.9892
C57 C -0.0732(9) -0.1897(12) 1.1077(14)
H58 H -0.0810 -0.1704 1.1661
H59 H -0.0869 -0.2572 1.1020
H60 H -0.1148 -0.1531 1.0718
O8 O 0.0764(4) -0.1376(5) 1.1349(5)
O9 O 0.2248(4) -0.0145(5) 1.0915(5)
O10 O 0.6386(4) 0.9276(4) 1.5765(4)
O11 O -0.4962(3) 1.2620(4) 0.9204(3)
O12 O -0.5896(4) 0.9377(4) 1.1313(3)
O13 O 0.6191(4) 1.0838(4) 1.4613(3)
O14 O -0.5810(4) 1.0790(4) 0.8666(3)
O15 O 0.8214(4) 0.9091(5) 1.4985(3)
loop_
_geom_bond_atom_site_label_1
_geom_bond_atom_site_label_2
_geom_bond_site_symmetry_1
_geom_bond_site_symmetry_2
Gd1 O2 1_555 1_555
O1 C13 1_555 1_555
O2 C19 1_555 1_555
O3 C25 1_555 1_555
O4 Gd1 1_555 1_555
O5 C46 1_555 1_555
O6 C52 1_555 1_555
N1 C10 1_555 1_555
N2 C16 1_555 1_555
N3 C22 1_555 1_555
N4 C37 1_555 1_555
N5 C43 1_555 1_555
N6 C49 1_555 1_555
C1 H1 1_555 1_555
H2 C1 1_555 1_555
H3 C1 1_555 1_555
C2 H4 1_555 1_555
H5 C2 1_555 1_555
H6 C2 1_555 1_555
C3 H7 1_555 1_555
H8 C3 1_555 1_555
H9 C3 1_555 1_555
C4 C1 1_555 1_555
C5 C4 1_555 1_555
C6 C2 1_555 1_555
C7 C6 1_555 1_555
C8 C3 1_555 1_555
C9 C4 1_555 1_555
C10 C5 1_555 1_555
H10 C10 1_555 1_555
H11 C10 1_555 1_555
C11 N1 1_555 1_555
H12 C11 1_555 1_555
C12 C11 1_555 1_555
H13 C12 1_555 1_555
C13 C12 1_555 1_555
C14 C13 1_555 1_555
H14 C14 1_555 1_555
C15 N1 1_555 1_555
H15 C15 1_555 1_555
C16 C7 1_555 1_555
H16 C16 1_555 1_555
H17 C16 1_555 1_555
C17 N2 1_555 1_555
H18 C17 1_555 1_555
C18 C17 1_555 1_555
H19 C18 1_555 1_555
C19 C18 1_555 1_555
C20 C19 1_555 1_555
H20 C20 1_555 1_555
C21 N2 1_555 1_555
H21 C21 1_555 1_555
C22 C9 1_555 1_555
H22 C22 1_555 1_555
H23 C22 1_555 1_555
C23 N3 1_555 1_555
H24 C23 1_555 1_555
C24 C23 1_555 1_555
H25 C24 1_555 1_555
C25 C24 1_555 1_555
C26 C25 1_555 1_555
H26 C26 1_555 1_555
C27 N3 1_555 1_555
H27 C27 1_555 1_555
C28 H28 1_555 1_555
H29 C28 1_555 1_555
H30 C28 1_555 1_555
C29 H31 1_555 1_555
H32 C29 1_555 1_555
H33 C29 1_555 1_555
C30 H34 1_555 1_555
H35 C30 1_555 1_555
H36 C30 1_555 1_555
C31 C28 1_555 1_555
C32 C31 1_555 1_555
C33 C29 1_555 1_555
C34 C33 1_555 1_555
C35 C30 1_555 1_555
C36 C31 1_555 1_555
C37 C32 1_555 1_555
H37 C37 1_555 1_555
H38 C37 1_555 1_555
C38 N4 1_555 1_555
H39 C38 1_555 1_555
C39 C38 1_555 1_555
H40 C39 1_555 1_555
C40 O4 1_555 1_555
C41 C40 1_555 1_555
H41 C41 1_555 1_555
C42 N4 1_555 1_555
H42 C42 1_555 1_555
C43 C34 1_555 1_555
H43 C43 1_555 1_555
H44 C43 1_555 1_555
C44 N5 1_555 1_555
H45 C44 1_555 1_555
C45 C44 1_555 1_555
H46 C45 1_555 1_555
C46 C45 1_555 1_555
C47 C46 1_555 1_555
H47 C47 1_555 1_555
C48 N5 1_555 1_555
H48 C48 1_555 1_555
C49 C36 1_555 1_555
H49 C49 1_555 1_555
H50 C49 1_555 1_555
C50 N6 1_555 1_555
H51 C50 1_555 1_555
C51 C50 1_555 1_555
H52 C51 1_555 1_555
C52 C51 1_555 1_555
C53 C52 1_555 1_555
H53 C53 1_555 1_555
C54 N6 1_555 1_555
H54 C54 1_555 1_555
O7 Gd1 1_555 1_555
C55 C56 1_555 1_555
C56 H55 1_555 1_555
H56 C56 1_555 1_555
H57 C56 1_555 1_555
C57 C55 1_555 1_555
H58 C57 1_555 1_555
H59 C57 1_555 1_555
H60 C57 1_555 1_555
O8 C55 1_555 1_555
Gd1_2 O3 1_555 1_555
Gd1A O1 1_555 1_555
Gd1A_2 O6 1_555 1_555
O1A Gd1 1_555 1_555
O3_2 Gd1 1_555 1_555
O5A Gd1 1_555 1_555
O6A Gd1 1_555 1_555
O5 Gd1A 1_555 1_555
C5 C6 1_555 1_555
C7 C8 1_555 1_555
C8 C9 1_555 1_555
C14 C15 1_555 1_555
C20 C21 1_555 1_555
C26 C27 1_555 1_555
C32 C33 1_555 1_555
C34 C35 1_555 1_555
C35 C36 1_555 1_555
C39 C40 1_555 1_555
C41 C42 1_555 1_555
C47 C48 1_555 1_555
C53 C54 1_555 1_555

#END
