
#######################################################################
#
#                 Cambridge Crystallographic Data Centre
#                                CCDC 
#
#######################################################################
#
# If this CIF has been generated from an entry in the Cambridge 
# Structural Database, then it will include bibliographic, chemical, 
# crystal, experimental, refinement or atomic coordinate data resulting 
# from the CCDC's data processing and validation procedures.
#
#######################################################################

data_UHAKOF
_symmetry_cell_setting           orthorhombic
_symmetry_space_group_name_H-M   'C m c m'
_symmetry_Int_Tables_number      63
_space_group_name_Hall           '-C 2n 2'
loop_
_symmetry_equiv_pos_site_id
_symmetry_equiv_pos_as_xyz
1 x,y,z
2 -x,-y,1/2+z
3 -x,y,1/2-z
4 x,-y,-z
5 1/2+x,1/2+y,z
6 1/2-x,1/2-y,1/2+z
7 1/2-x,1/2+y,1/2-z
8 1/2+x,1/2-y,-z
9 -x,-y,-z
10 x,y,1/2-z
11 x,-y,1/2+z
12 -x,y,z
13 1/2-x,1/2-y,-z
14 1/2+x,1/2+y,1/2-z
15 1/2+x,1/2-y,1/2+z
16 1/2-x,1/2+y,z
_cell_length_a                   12.747(3)
_cell_length_b                   9.520(2)
_cell_length_c                   17.420(4)
_cell_angle_alpha                90
_cell_angle_beta                 90
_cell_angle_gamma                90
_cell_volume                     2113.94
loop_
_atom_site_label
_atom_site_type_symbol
_atom_site_fract_x
_atom_site_fract_y
_atom_site_fract_z
Ni1 Ni 0.0000 0.0000 0.5000
C1 C 0.2727(4) 0.0298(6) 0.7500
H1 H 0.3404 0.0762 0.7500
H2 H 0.2848 -0.0708 0.7500
C2 C 0.1559(3) -0.0113(4) 0.6363(2)
H3 H 0.1451 -0.1072 0.6430
C3 C 0.1531(4) 0.1953(4) 0.5954(2)
H4 H 0.1371 0.2727 0.5650
C4 C 0.0000 0.3094(5) 0.4249(3)
N1 N 0.1147(2) 0.0646(3) 0.58076(16)
N2 N 0.2152(2) 0.0688(3) 0.68124(16)
N3 N 0.2140(3) 0.2035(3) 0.6551(2)
N4 N 0.0000 0.2003(4) 0.4533(2)
S1 S 0.0000 0.46200(18) 0.38158(12)
C2I C 0.1559(3) -0.0113(4) 0.8637(2)
H3I H 0.1451 -0.1072 0.8570
C3I C 0.1531(4) 0.1953(4) 0.9046(2)
H4I H 0.1371 0.2727 0.9350
N1I N 0.1147(2) 0.0646(3) 0.91924(16)
N2I N 0.2152(2) 0.0688(3) 0.81876(16)
N3I N 0.2140(3) 0.2035(3) 0.8449(2)
C1B C -0.2727(4) 0.0298(6) 0.7500
H1B H -0.3404 0.0762 0.7500
H2B H -0.2848 -0.0708 0.7500
C2B C -0.1559(3) -0.0113(4) 0.8637(2)
H3B H -0.1451 -0.1072 0.8570
C3B C -0.1531(4) 0.1953(4) 0.9046(2)
H4B H -0.1371 0.2727 0.9350
N1B N -0.1147(2) 0.0646(3) 0.91924(16)
N2B N -0.2152(2) 0.0688(3) 0.81876(16)
N3B N -0.2140(3) 0.2035(3) 0.8449(2)
C2K C -0.1559(3) -0.0113(4) 0.6363(2)
H3K H -0.1451 -0.1072 0.6430
C3K C -0.1531(4) 0.1953(4) 0.5954(2)
H4K H -0.1371 0.2727 0.5650
N1K N -0.1147(2) 0.0646(3) 0.58076(16)
N2K N -0.2152(2) 0.0688(3) 0.68124(16)
N3K N -0.2140(3) 0.2035(3) 0.6551(2)
C4C C 0.0000 -0.3094(5) 0.5751(3)
N4C N 0.0000 -0.2003(4) 0.5467(2)
S1C S 0.0000 -0.46200(18) 0.61842(12)
Ni1A Ni 0.0000 0.0000 1.0000
N1C N 0.1147(2) -0.0646(3) 0.41924(16)
N1H N -0.1147(2) -0.0646(3) 0.41924(16)
O1 O 0.0000 0.209(2) 0.2500
H5 H 0.0000 0.2652 0.2880
H5B H 0.0000 0.2652 0.2120
loop_
_geom_bond_atom_site_label_1
_geom_bond_atom_site_label_2
_geom_bond_site_symmetry_1
_geom_bond_site_symmetry_2
Ni1 N1 1_555 1_555
C1 H1 1_555 1_555
H2 C1 1_555 1_555
C2 H3 1_555 1_555
C3 H4 1_555 1_555
C4 N4 1_555 1_555
N1 C2 1_555 1_555
N2 C1 1_555 1_555
N3 C3 1_555 1_555
N4 Ni1 1_555 1_555
S1 C4 1_555 1_555
O1 H5 1_555 1_555
C2I H3I 1_555 1_555
C3I H4I 1_555 1_555
N1I C2I 1_555 1_555
N2I C1 1_555 1_555
N3I C3I 1_555 1_555
C1B H1B 1_555 1_555
H2B C1B 1_555 1_555
C2B H3B 1_555 1_555
C3B H4B 1_555 1_555
N1B C2B 1_555 1_555
N2B C1B 1_555 1_555
N3B C3B 1_555 1_555
C2K H3K 1_555 1_555
C3K H4K 1_555 1_555
N1K Ni1 1_555 1_555
N2K C1B 1_555 1_555
N3K C3K 1_555 1_555
C4C N4C 1_555 1_555
N4C Ni1 1_555 1_555
S1C C4C 1_555 1_555
Ni1A N1I 1_555 1_555
N1C Ni1 1_555 1_555
N1H Ni1 1_555 1_555
H5B O1 1_555 1_555
C2 N2 1_555 1_555
C3 N1 1_555 1_555
N2 N3 1_555 1_555
C2I N2I 1_555 1_555
C3I N1I 1_555 1_555
N2I N3I 1_555 1_555
C2B N2B 1_555 1_555
C3B N1B 1_555 1_555
N1B Ni1A 1_555 1_555
N2B N3B 1_555 1_555
C2K N1K 1_555 1_555
C2K N2K 1_555 1_555
C3K N1K 1_555 1_555
N2K N3K 1_555 1_555

#END
