
#######################################################################
#
#                 Cambridge Crystallographic Data Centre
#                                CCDC 
#
#######################################################################
#
# If this CIF has been generated from an entry in the Cambridge 
# Structural Database, then it will include bibliographic, chemical, 
# crystal, experimental, refinement or atomic coordinate data resulting 
# from the CCDC's data processing and validation procedures.
#
#######################################################################

data_UHEQEE
_symmetry_cell_setting           monoclinic
_symmetry_space_group_name_H-M   'P 21/c'
_symmetry_Int_Tables_number      14
_space_group_name_Hall           '-P 2ybc'
loop_
_symmetry_equiv_pos_site_id
_symmetry_equiv_pos_as_xyz
1 x,y,z
2 -x,1/2+y,1/2-z
3 -x,-y,-z
4 x,1/2-y,1/2+z
_cell_length_a                   10.4684(4)
_cell_length_b                   6.3564(3)
_cell_length_c                   23.0087(11)
_cell_angle_alpha                90
_cell_angle_beta                 97.552(2)
_cell_angle_gamma                90
_cell_volume                     1517.75
loop_
_atom_site_label
_atom_site_type_symbol
_atom_site_fract_x
_atom_site_fract_y
_atom_site_fract_z
Bi1 Bi 0.11142(4) 0.73428(7) 0.34686(2)
S1 S -0.0815(3) 1.1803(5) 0.31805(14)
O1 O 0.0498(9) 1.1145(12) 0.3429(4)
O2 O -0.1674(9) 1.0002(13) 0.3079(4)
O3 O -0.0808(9) 1.3156(14) 0.2660(4)
O4 O -0.0928(9) 1.1819(14) 0.5516(4)
O5 O -0.1918(9) 1.4702(14) 0.5722(4)
O6 O -0.2906(11) 1.7153(15) 0.4898(5)
H1 H -0.2716 1.6664 0.5238
O7 O 0.2250(10) 0.4344(14) 0.3105(4)
C1 C -0.1386(12) 1.3417(19) 0.3724(5)
C2 C -0.1199(12) 1.285(2) 0.4293(6)
H2 H -0.0733 1.1597 0.4407
C3 C -0.1683(12) 1.4065(17) 0.4712(5)
C4 C -0.2424(14) 1.594(2) 0.4520(6)
C5 C -0.2608(14) 1.642(2) 0.3938(6)
H3 H -0.3111 1.7615 0.3808
C6 C -0.2077(13) 1.520(2) 0.3533(6)
H4 H -0.2186 1.5580 0.3130
C7 C -0.1485(14) 1.351(2) 0.5342(6)
C8 C 0.3039(13) 0.8922(19) 0.3519(6)
C9 C 0.3680(13) 0.890(2) 0.3040(6)
H5 H 0.3338 0.8122 0.2702
C10 C 0.4822(13) 0.998(2) 0.3040(7)
H6 H 0.5263 0.9956 0.2705
C11 C 0.5316(15) 1.111(2) 0.3531(8)
H7 H 0.6086 1.1897 0.3527
C12 C 0.4691(16) 1.110(2) 0.4036(8)
H8 H 0.5049 1.1822 0.4381
C13 C 0.3521(14) 1.000(2) 0.4015(6)
H9 H 0.3064 1.0004 0.4345
H10 H 0.190(13) 0.334(14) 0.326(6)
H11 H 0.218(14) 0.41(2) 0.2744(14)
Bi1A Bi -0.11142(4) 1.23428(7) 0.15314(2)
Bi1B Bi -0.11142(4) 1.26572(7) 0.65314(2)
O3A O 0.0808(9) 0.8156(14) 0.2340(4)
O4B O 0.0928(9) 0.8181(14) 0.4484(4)
O5B O 0.1918(9) 0.5298(14) 0.4278(4)
loop_
_geom_bond_atom_site_label_1
_geom_bond_atom_site_label_2
_geom_bond_site_symmetry_1
_geom_bond_site_symmetry_2
Bi1 O1 1_555 1_555
S1 O1 1_555 1_555
O2 S1 1_555 1_555
O3 S1 1_555 1_555
O4 C7 1_555 1_555
O5 C7 1_555 1_555
O6 H1 1_555 1_555
O7 Bi1 1_555 1_555
C1 S1 1_555 1_555
C2 C1 1_555 1_555
H2 C2 1_555 1_555
C3 C2 1_555 1_555
C4 O6 1_555 1_555
C5 C4 1_555 1_555
H3 C5 1_555 1_555
C6 C1 1_555 1_555
H4 C6 1_555 1_555
C7 C3 1_555 1_555
C8 Bi1 1_555 1_555
C9 C8 1_555 1_555
H5 C9 1_555 1_555
C10 C9 1_555 1_555
H6 C10 1_555 1_555
C11 C10 1_555 1_555
H7 C11 1_555 1_555
C12 C11 1_555 1_555
H8 C12 1_555 1_555
C13 C8 1_555 1_555
H9 C13 1_555 1_555
H10 O7 1_555 1_555
H11 O7 1_555 1_555
Bi1A O3 1_555 1_555
Bi1B O4 1_555 1_555
O3A Bi1 1_555 1_555
O4B Bi1 1_555 1_555
O5B Bi1 1_555 1_555
O5 Bi1B 1_555 1_555
C3 C4 1_555 1_555
C5 C6 1_555 1_555
C12 C13 1_555 1_555

#END
