
#######################################################################
#
#                 Cambridge Crystallographic Data Centre
#                                CCDC 
#
#######################################################################
#
# If this CIF has been generated from an entry in the Cambridge 
# Structural Database, then it will include bibliographic, chemical, 
# crystal, experimental, refinement or atomic coordinate data resulting 
# from the CCDC's data processing and validation procedures.
#
#######################################################################

data_UHESEH
_symmetry_cell_setting           triclinic
_symmetry_space_group_name_H-M   'P -1'
_symmetry_Int_Tables_number      2
_space_group_name_Hall           '-P 1'
loop_
_symmetry_equiv_pos_site_id
_symmetry_equiv_pos_as_xyz
1 x,y,z
2 -x,-y,-z
_cell_length_a                   10.629(2)
_cell_length_b                   11.146(2)
_cell_length_c                   11.671(2)
_cell_angle_alpha                77.54(3)
_cell_angle_beta                 87.24(3)
_cell_angle_gamma                85.65(3)
_cell_volume                     1345.5
loop_
_atom_site_label
_atom_site_type_symbol
_atom_site_fract_x
_atom_site_fract_y
_atom_site_fract_z
Pr1 Pr 0.49906(7) 0.21207(6) 0.31639(6)
O1 O 0.4872(9) 0.5798(8) -0.1772(8)
O2 O 0.5044(9) 0.5679(8) -0.3619(8)
O3 O 0.2535(9) 0.3746(9) -0.4535(8)
H1 H 0.2929 0.3163 -0.4742
O4 O 0.2418(9) 0.4526(9) -0.2945(8)
O5 O 0.4079(9) 0.1771(8) -0.4850(7)
O6 O 0.4180(10) -0.0005(7) -0.3549(8)
O7 O 0.1726(9) 0.0726(10) -0.0805(8)
H2 H 0.1581 0.0640 0.0036
O8 O 0.1824(10) 0.1668(11) -0.2674(9)
O9 O 0.3302(10) 0.0390(9) 0.0841(8)
O10 O 0.4391(11) 0.1801(8) 0.1319(8)
O11 O 0.2063(8) 0.3162(8) -0.0341(8)
O12 O 0.2872(9) 0.4978(8) -0.0564(8)
H3 H 0.3514 0.5637 -0.1033
O13 O 0.6788(11) 0.2118(12) 0.4540(13)
O14 O 0.2763(9) 0.2967(10) 0.3149(9)
O15 O 0.6982(12) 0.2147(11) 0.1969(12)
O16 O 0.3316(16) 0.0460(16) 0.3352(15)
H4 H 0.3199 0.0329 0.2680
N1 N 0.8004(18) 0.257(2) 0.5953(16)
N2 N 0.0889(11) 0.3947(12) 0.2545(11)
N3 N 0.8942(13) 0.1746(13) 0.1344(15)
C1 C 0.4839(12) 0.3766(11) -0.2228(11)
H5 H 0.5723 0.3443 -0.2185
C2 C 0.4286(12) 0.3228(10) -0.3193(11)
H6 H 0.4829 0.3465 -0.3896
C3 C 0.4426(11) 0.1812(10) -0.2846(10)
H7 H 0.5329 0.1627 -0.2709
C4 C 0.3781(11) 0.1271(11) -0.1646(10)
H8 H 0.4081 0.0400 -0.1458
C5 C 0.4335(12) 0.1850(10) -0.0705(10)
H9 H 0.5243 0.1626 -0.0751
C6 C 0.4249(11) 0.3279(10) -0.0966(10)
H10 H 0.4827 0.3495 -0.0425
C7 C 0.4898(13) 0.5184(13) -0.2574(11)
C8 C 0.2969(12) 0.3875(11) -0.3498(11)
C9 C 0.4178(12) 0.1143(12) -0.3816(11)
C10 C 0.2352(12) 0.1276(10) -0.1754(12)
C11 C 0.3948(13) 0.1309(12) 0.0590(11)
C12 C 0.2970(12) 0.3811(11) -0.0647(11)
C13 C 0.7200(15) 0.2801(16) 0.5102(14)
H11 H 0.6891 0.3619 0.4891
C14 C 0.839(3) 0.365(4) 0.646(3)
H12 H 0.8969 0.3339 0.7082
H13 H 0.7658 0.4045 0.6762
H14 H 0.8799 0.4228 0.5853
C15 C 0.857(5) 0.146(5) 0.635(4)
H15 H 0.8229 0.0873 0.5969
H16 H 0.8418 0.1215 0.7181
H17 H 0.9459 0.1478 0.6177
C16 C 0.2100(13) 0.3643(15) 0.2393(13)
H18 H 0.2483 0.3959 0.1669
C17 C 0.0155(15) 0.4724(16) 0.1632(14)
H19 H 0.0692 0.4992 0.0954
H20 H -0.0213 0.5429 0.1906
H21 H -0.0502 0.4271 0.1428
C18 C 0.0184(16) 0.348(2) 0.3631(15)
H22 H 0.0744 0.2974 0.4188
H23 H -0.0473 0.2998 0.3474
H24 H -0.0182 0.4158 0.3947
C19 C 0.8026(16) 0.1698(17) 0.2139(18)
H25 H 0.7796 0.1655 0.3131
C20 C 1.0140(17) 0.1157(18) 0.1662(18)
H26 H 1.0158 0.0888 0.2501
H27 H 1.0781 0.1725 0.1398
H28 H 1.0292 0.0458 0.1305
C21 C 0.874(2) 0.217(2) 0.018(2)
H29 H 0.7901 0.2549 0.0079
H30 H 0.8847 0.1502 -0.0218
H31 H 0.9339 0.2773 -0.0142
Pr1_2 Pr 0.49906(7) 0.21207(6) -0.68361(6)
Pr1A Pr 0.50094(7) -0.21207(6) -0.31639(6)
Pr1A_2 Pr 0.50094(7) 0.78793(6) -0.31639(6)
O1A O 0.5128(9) 0.4202(8) 0.1772(8)
O2A O 0.4956(9) 0.4321(8) 0.3619(8)
O5_2 O 0.4079(9) 0.1771(8) 0.5150(7)
O6A O 0.5820(10) 0.0005(7) 0.3549(8)
loop_
_geom_bond_atom_site_label_1
_geom_bond_atom_site_label_2
_geom_bond_site_symmetry_1
_geom_bond_site_symmetry_2
Pr1 O10 1_555 1_555
O1 C7 1_555 1_555
O2 C7 1_555 1_555
O3 H1 1_555 1_555
O4 C8 1_555 1_555
O5 C9 1_555 1_555
O6 C9 1_555 1_555
O7 H2 1_555 1_555
O8 C10 1_555 1_555
O9 C11 1_555 1_555
O10 C11 1_555 1_555
O11 C12 1_555 1_555
O12 H3 1_555 1_555
O13 Pr1 1_555 1_555
O14 Pr1 1_555 1_555
O15 Pr1 1_555 1_555
O16 Pr1 1_555 1_555
H4 O16 1_555 1_555
N1 C13 1_555 1_555
N2 C16 1_555 1_555
N3 C19 1_555 1_555
C1 H5 1_555 1_555
C2 C1 1_555 1_555
H6 C2 1_555 1_555
C3 C2 1_555 1_555
H7 C3 1_555 1_555
C4 C3 1_555 1_555
H8 C4 1_555 1_555
C5 C4 1_555 1_555
H9 C5 1_555 1_555
C6 C1 1_555 1_555
H10 C6 1_555 1_555
C7 C1 1_555 1_555
C8 O3 1_555 1_555
C9 C3 1_555 1_555
C10 O7 1_555 1_555
C11 C5 1_555 1_555
C12 O12 1_555 1_555
C13 O13 1_555 1_555
H11 C13 1_555 1_555
C14 N1 1_555 1_555
H12 C14 1_555 1_555
H13 C14 1_555 1_555
H14 C14 1_555 1_555
C15 N1 1_555 1_555
H15 C15 1_555 1_555
H16 C15 1_555 1_555
H17 C15 1_555 1_555
C16 O14 1_555 1_555
H18 C16 1_555 1_555
C17 N2 1_555 1_555
H19 C17 1_555 1_555
H20 C17 1_555 1_555
H21 C17 1_555 1_555
C18 N2 1_555 1_555
H22 C18 1_555 1_555
H23 C18 1_555 1_555
H24 C18 1_555 1_555
C19 O15 1_555 1_555
H25 C19 1_555 1_555
C20 N3 1_555 1_555
H26 C20 1_555 1_555
H27 C20 1_555 1_555
H28 C20 1_555 1_555
C21 N3 1_555 1_555
H29 C21 1_555 1_555
H30 C21 1_555 1_555
H31 C21 1_555 1_555
Pr1_2 O5 1_555 1_555
Pr1A O6 1_555 1_555
Pr1A_2 O1 1_555 1_555
O1A Pr1 1_555 1_555
O2A Pr1 1_555 1_555
O5_2 Pr1 1_555 1_555
O6A Pr1 1_555 1_555
O2 Pr1A_2 1_555 1_555
C2 C8 1_555 1_555
C4 C10 1_555 1_555
C5 C6 1_555 1_555
C6 C12 1_555 1_555

#END
