
#######################################################################
#
#                 Cambridge Crystallographic Data Centre
#                                CCDC 
#
#######################################################################
#
# If this CIF has been generated from an entry in the Cambridge 
# Structural Database, then it will include bibliographic, chemical, 
# crystal, experimental, refinement or atomic coordinate data resulting 
# from the CCDC's data processing and validation procedures.
#
#######################################################################

data_UHETAD
_symmetry_cell_setting           orthorhombic
_symmetry_space_group_name_H-M   'P b c n'
_symmetry_Int_Tables_number      60
_space_group_name_Hall           '-P 2n 2ab'
loop_
_symmetry_equiv_pos_site_id
_symmetry_equiv_pos_as_xyz
1 x,y,z
2 1/2-x,1/2-y,1/2+z
3 -x,y,1/2-z
4 1/2+x,1/2-y,-z
5 -x,-y,-z
6 1/2+x,1/2+y,1/2-z
7 x,-y,1/2+z
8 1/2-x,1/2+y,z
_cell_length_a                   26.3680(10)
_cell_length_b                   20.8457(8)
_cell_length_c                   16.2776(7)
_cell_angle_alpha                90
_cell_angle_beta                 90
_cell_angle_gamma                90
_cell_volume                     8947.14
loop_
_atom_site_label
_atom_site_type_symbol
_atom_site_fract_x
_atom_site_fract_y
_atom_site_fract_z
Zn1 Zn 0.20293(2) 0.07780(3) 0.35765(4)
Br1 Br 0.19661(2) 0.19045(3) 0.34283(5)
Br2 Br 0.21877(2) 0.02077(3) 0.23484(4)
C1 C 0.46383(16) 0.0968(2) 0.3055(3)
C2 C 0.41262(19) 0.0805(3) 0.3085(3)
C3 C 0.37984(17) 0.1167(3) 0.3593(4)
C4 C 0.39689(18) 0.1640(3) 0.4080(3)
C5 C 0.44923(18) 0.1802(2) 0.4097(3)
C6 C 0.48212(16) 0.1436(3) 0.3594(3)
C7 C 0.3924(2) 0.0250(3) 0.2551(4)
H1 H 0.3841 0.0411 0.2002
H2 H 0.3619 0.0069 0.2806
H3 H 0.4184 -0.0084 0.2507
C8 C 0.32311(18) 0.1014(3) 0.3596(4)
H4 H 0.3038 0.1421 0.3580
H5 H 0.3147 0.0770 0.3092
N1 N 0.30700(14) 0.0646(2) 0.4306(3)
N2 N 0.25629(15) 0.0529(2) 0.4394(3)
C9 C 0.2529(2) 0.0213(3) 0.5097(4)
H6 H 0.2219 0.0059 0.5318
C10 C 0.2992(2) 0.0133(3) 0.5472(4)
H7 H 0.3064 -0.0075 0.5978
C11 C 0.3328(2) 0.0426(4) 0.4935(4)
H8 H 0.3685 0.0462 0.5009
C12 C 0.3608(2) 0.1998(3) 0.4643(4)
H9 H 0.3569 0.2440 0.4448
H10 H 0.3746 0.2002 0.5202
H11 H 0.3277 0.1784 0.4643
C13 C 0.53910(16) 0.1589(3) 0.3661(3)
H12 H 0.5472 0.1958 0.3311
H13 H 0.5588 0.1216 0.3480
H14 H 0.5476 0.1690 0.4232
C14 C 0.47060(18) 0.2309(3) 0.4666(3)
H15 H 0.4418 0.2497 0.4973
H16 H 0.4924 0.2088 0.5072
C15 C 0.50056(17) 0.2851(2) 0.4314(3)
C16 C 0.54597(19) 0.3046(3) 0.4740(3)
C17 C 0.57572(17) 0.3541(3) 0.4391(3)
C18 C 0.56262(17) 0.3820(2) 0.3663(3)
C19 C 0.51754(18) 0.3639(2) 0.3262(3)
C20 C 0.48624(16) 0.3180(2) 0.3618(3)
C21 C 0.5592(2) 0.2756(3) 0.5565(4)
H17 H 0.5723 0.2321 0.5486
H18 H 0.5288 0.2741 0.5911
H19 H 0.5851 0.3020 0.5834
C22 C 0.62112(18) 0.3771(3) 0.4874(3)
H20 H 0.6326 0.3429 0.5253
H21 H 0.6493 0.3871 0.4494
N3 N 0.60714(13) 0.4355(2) 0.5350(3)
N4 N 0.63981(15) 0.4604(2) 0.5910(3)
C23 C 0.61983(19) 0.5164(3) 0.6151(4)
H22 H 0.6352 0.5454 0.6527
C24 C 0.5729(2) 0.5258(3) 0.5766(4)
H23 H 0.5499 0.5603 0.5848
C25 C 0.56708(19) 0.4756(3) 0.5257(4)
H24 H 0.5395 0.4693 0.4891
C26 C 0.5969(2) 0.4352(3) 0.3306(4)
H25 H 0.6074 0.4642 0.3748
H26 H 0.5781 0.4594 0.2890
H27 H 0.6270 0.4158 0.3054
C27 C 0.43376(16) 0.3056(3) 0.3256(3)
H28 H 0.4357 0.2698 0.2865
H29 H 0.4219 0.3441 0.2972
H30 H 0.4101 0.2947 0.3699
C28 C 0.5000 0.4014(4) 0.2500
H31 H 0.4717 0.4297 0.2671
C29 C 0.5000 0.0601(4) 0.2500
H32 H 0.4792 0.0318 0.2145
Zn1B Zn 0.79707(2) 0.07780(3) 0.14235(4)
Zn1A Zn 0.29707(2) 0.42220(3) -0.14235(4)
Zn1C Zn 0.70293(2) 0.42220(3) 0.64235(4)
Br1B Br 0.80339(2) 0.19045(3) 0.15717(5)
Br2B Br 0.78123(2) 0.02077(3) 0.26516(4)
C1B C 0.53617(16) 0.0968(2) 0.1945(3)
C2B C 0.58738(19) 0.0805(3) 0.1915(3)
C3B C 0.62016(17) 0.1167(3) 0.1407(4)
C4B C 0.60311(18) 0.1640(3) 0.0920(3)
C5B C 0.55077(18) 0.1802(2) 0.0903(3)
C6B C 0.51788(16) 0.1436(3) 0.1406(3)
C7B C 0.6076(2) 0.0250(3) 0.2449(4)
H1B H 0.6159 0.0411 0.2998
H2B H 0.6381 0.0069 0.2194
H3B H 0.5816 -0.0084 0.2493
C8B C 0.67689(18) 0.1014(3) 0.1404(4)
H4B H 0.6962 0.1421 0.1420
H5B H 0.6853 0.0770 0.1908
N1B N 0.69300(14) 0.0646(2) 0.0694(3)
N2B N 0.74371(15) 0.0529(2) 0.0606(3)
C9B C 0.7471(2) 0.0213(3) -0.0097(4)
H6B H 0.7781 0.0059 -0.0318
C10B C 0.7008(2) 0.0133(3) -0.0472(4)
H7B H 0.6936 -0.0075 -0.0978
C11B C 0.6672(2) 0.0426(4) 0.0065(4)
H8B H 0.6315 0.0462 -0.0009
C12B C 0.6392(2) 0.1998(3) 0.0357(4)
H9B H 0.6431 0.2440 0.0552
H10B H 0.6254 0.2002 -0.0202
H11B H 0.6723 0.1784 0.0357
C13B C 0.46090(16) 0.1589(3) 0.1339(3)
H12B H 0.4528 0.1958 0.1689
H13B H 0.4412 0.1216 0.1520
H14B H 0.4524 0.1690 0.0768
C14B C 0.52940(18) 0.2309(3) 0.0334(3)
H15B H 0.5582 0.2497 0.0027
H16B H 0.5076 0.2088 -0.0072
C15B C 0.49944(17) 0.2851(2) 0.0686(3)
C16B C 0.45403(19) 0.3046(3) 0.0260(3)
C17B C 0.42428(17) 0.3541(3) 0.0609(3)
C18B C 0.43738(17) 0.3820(2) 0.1337(3)
C19B C 0.48246(18) 0.3639(2) 0.1738(3)
C20B C 0.51376(16) 0.3180(2) 0.1382(3)
C21B C 0.4408(2) 0.2756(3) -0.0565(4)
H17B H 0.4277 0.2321 -0.0486
H18B H 0.4712 0.2741 -0.0911
H19B H 0.4149 0.3020 -0.0834
C22B C 0.37888(18) 0.3771(3) 0.0126(3)
H20B H 0.3674 0.3429 -0.0253
H21B H 0.3507 0.3871 0.0506
N3B N 0.39286(13) 0.4355(2) -0.0350(3)
N4B N 0.36019(15) 0.4604(2) -0.0910(3)
N4A N 0.86019(15) 0.0396(2) 0.0910(3)
N4C N 0.13981(15) 0.0396(2) 0.4090(3)
C23B C 0.38017(19) 0.5164(3) -0.1151(4)
H22B H 0.3648 0.5454 -0.1527
C24B C 0.4271(2) 0.5258(3) -0.0766(4)
H23B H 0.4501 0.5603 -0.0848
C25B C 0.43292(19) 0.4756(3) -0.0257(4)
H24B H 0.4605 0.4693 0.0109
C26B C 0.4031(2) 0.4352(3) 0.1694(4)
H25B H 0.3926 0.4642 0.1252
H26B H 0.4219 0.4594 0.2110
H27B H 0.3730 0.4158 0.1946
C27B C 0.56624(16) 0.3056(3) 0.1744(3)
H28B H 0.5643 0.2698 0.2135
H29B H 0.5781 0.3441 0.2028
H30B H 0.5899 0.2947 0.1301
H31B H 0.5283 0.4297 0.2329
H32B H 0.5208 0.0318 0.2855
loop_
_geom_bond_atom_site_label_1
_geom_bond_atom_site_label_2
_geom_bond_site_symmetry_1
_geom_bond_site_symmetry_2
Zn1 Br1 1_555 1_555
Br2 Zn1 1_555 1_555
C1 C2 1_555 1_555
C2 C3 1_555 1_555
C3 C4 1_555 1_555
C4 C5 1_555 1_555
C5 C6 1_555 1_555
C6 C1 1_555 1_555
C7 C2 1_555 1_555
H1 C7 1_555 1_555
H2 C7 1_555 1_555
H3 C7 1_555 1_555
C8 C3 1_555 1_555
H4 C8 1_555 1_555
H5 C8 1_555 1_555
N1 C8 1_555 1_555
N2 Zn1 1_555 1_555
C9 N2 1_555 1_555
H6 C9 1_555 1_555
C10 C9 1_555 1_555
H7 C10 1_555 1_555
C11 N1 1_555 1_555
H8 C11 1_555 1_555
C12 C4 1_555 1_555
H9 C12 1_555 1_555
H10 C12 1_555 1_555
H11 C12 1_555 1_555
C13 C6 1_555 1_555
H12 C13 1_555 1_555
H13 C13 1_555 1_555
H14 C13 1_555 1_555
C14 C5 1_555 1_555
H15 C14 1_555 1_555
H16 C14 1_555 1_555
C15 C14 1_555 1_555
C16 C15 1_555 1_555
C17 C16 1_555 1_555
C18 C17 1_555 1_555
C19 C18 1_555 1_555
C20 C15 1_555 1_555
C21 C16 1_555 1_555
H17 C21 1_555 1_555
H18 C21 1_555 1_555
H19 C21 1_555 1_555
C22 C17 1_555 1_555
H20 C22 1_555 1_555
H21 C22 1_555 1_555
N3 C22 1_555 1_555
N4 N3 1_555 1_555
C23 N4 1_555 1_555
H22 C23 1_555 1_555
C24 C23 1_555 1_555
H23 C24 1_555 1_555
C25 N3 1_555 1_555
H24 C25 1_555 1_555
C26 C18 1_555 1_555
H25 C26 1_555 1_555
H26 C26 1_555 1_555
H27 C26 1_555 1_555
C27 C20 1_555 1_555
H28 C27 1_555 1_555
H29 C27 1_555 1_555
H30 C27 1_555 1_555
C28 C19 1_555 1_555
H31 C28 1_555 1_555
C29 C1 1_555 1_555
H32 C29 1_555 1_555
Zn1B Br1B 1_555 1_555
Zn1A N4B 1_555 1_555
Zn1C N4 1_555 1_555
Br2B Zn1B 1_555 1_555
C1B C29 1_555 1_555
C2B C1B 1_555 1_555
C3B C2B 1_555 1_555
C4B C3B 1_555 1_555
C5B C4B 1_555 1_555
C6B C1B 1_555 1_555
C7B C2B 1_555 1_555
H1B C7B 1_555 1_555
H2B C7B 1_555 1_555
H3B C7B 1_555 1_555
C8B C3B 1_555 1_555
H4B C8B 1_555 1_555
H5B C8B 1_555 1_555
N1B C8B 1_555 1_555
N2B Zn1B 1_555 1_555
C9B N2B 1_555 1_555
H6B C9B 1_555 1_555
C10B C9B 1_555 1_555
H7B C10B 1_555 1_555
C11B N1B 1_555 1_555
H8B C11B 1_555 1_555
C12B C4B 1_555 1_555
H9B C12B 1_555 1_555
H10B C12B 1_555 1_555
H11B C12B 1_555 1_555
C13B C6B 1_555 1_555
H12B C13B 1_555 1_555
H13B C13B 1_555 1_555
H14B C13B 1_555 1_555
C14B C5B 1_555 1_555
H15B C14B 1_555 1_555
H16B C14B 1_555 1_555
C15B C14B 1_555 1_555
C16B C15B 1_555 1_555
C17B C16B 1_555 1_555
C18B C17B 1_555 1_555
C19B C28 1_555 1_555
C20B C15B 1_555 1_555
C21B C16B 1_555 1_555
H17B C21B 1_555 1_555
H18B C21B 1_555 1_555
H19B C21B 1_555 1_555
C22B C17B 1_555 1_555
H20B C22B 1_555 1_555
H21B C22B 1_555 1_555
N3B C22B 1_555 1_555
N4B N3B 1_555 1_555
N4A Zn1B 1_555 1_555
N4C Zn1 1_555 1_555
C23B N4B 1_555 1_555
H22B C23B 1_555 1_555
C24B C23B 1_555 1_555
H23B C24B 1_555 1_555
C25B N3B 1_555 1_555
H24B C25B 1_555 1_555
C26B C18B 1_555 1_555
H25B C26B 1_555 1_555
H26B C26B 1_555 1_555
H27B C26B 1_555 1_555
C27B C20B 1_555 1_555
H28B C27B 1_555 1_555
H29B C27B 1_555 1_555
H30B C27B 1_555 1_555
H31B C28 1_555 1_555
H32B C29 1_555 1_555
N1 N2 1_555 1_555
C10 C11 1_555 1_555
C19 C20 1_555 1_555
C24 C25 1_555 1_555
C5B C6B 1_555 1_555
N1B N2B 1_555 1_555
C10B C11B 1_555 1_555
C18B C19B 1_555 1_555
C19B C20B 1_555 1_555
C24B C25B 1_555 1_555

#END
