
#######################################################################
#
#                 Cambridge Crystallographic Data Centre
#                                CCDC 
#
#######################################################################
#
# If this CIF has been generated from an entry in the Cambridge 
# Structural Database, then it will include bibliographic, chemical, 
# crystal, experimental, refinement or atomic coordinate data resulting 
# from the CCDC's data processing and validation procedures.
#
#######################################################################

data_UHIVEN01
_symmetry_cell_setting           triclinic
_symmetry_space_group_name_H-M   'P -1'
_symmetry_Int_Tables_number      2
_space_group_name_Hall           '-P 1'
loop_
_symmetry_equiv_pos_site_id
_symmetry_equiv_pos_as_xyz
1 x,y,z
2 -x,-y,-z
_cell_length_a                   9.624(3)
_cell_length_b                   9.493(3)
_cell_length_c                   11.471(4)
_cell_angle_alpha                89.643(6)
_cell_angle_beta                 103.304(6)
_cell_angle_gamma                88.861(6)
_cell_volume                     1019.61
loop_
_atom_site_label
_atom_site_type_symbol
_atom_site_fract_x
_atom_site_fract_y
_atom_site_fract_z
C1 C 0.2285(5) 0.3691(5) 0.4612(4)
C2 C 0.3851(5) 0.3526(6) 0.4728(5)
C3 C 0.2882(5) 0.2324(5) 0.4334(5)
C4 C 0.0460(5) 0.3132(5) 0.5752(4)
C5 C 0.2396(5) 0.4594(5) 0.6614(5)
C6 C 0.1963(5) 0.4783(5) 0.7670(4)
C7 C 0.2845(5) 0.5734(5) 0.8569(4)
C8 C 0.0717(5) 0.4067(5) 0.7839(4)
C9 C -0.0035(5) 0.3251(5) 0.6802(4)
C10 C -0.1265(6) 0.2506(6) 0.6878(5)
C11 C -0.1969(5) 0.1762(5) 0.5928(5)
C12 C -0.1529(5) 0.1657(5) 0.4846(4)
C13 C -0.1646(6) 0.0548(6) 0.2908(5)
C14 C -0.2493(6) -0.0568(6) 0.2090(5)
C15 C -0.4651(5) 0.0168(6) 0.2656(5)
C16 C -0.3843(6) 0.1288(6) 0.3462(5)
C17 C -0.0297(5) 0.2365(5) 0.4779(5)
O1 O 0.4107(4) 0.5955(4) 0.8488(3)
O2 O 0.2260(4) 0.6307(4) 0.9331(3)
O3 O 0.0260(4) 0.4108(4) 0.8776(3)
N1 N 0.1721(4) 0.3804(4) 0.5688(4)
N2 N -0.2314(4) 0.0830(4) 0.3910(4)
N3 N -0.4018(5) -0.0189(5) 0.1637(4)
F1 F -0.3115(3) 0.1004(3) 0.6058(3)
Na1 Na 0.1723(2) 0.4563(2) 1.07331(18)
O4 O 0.0613(4) 0.2838(4) 1.1679(3)
O5 O 0.3701(4) 0.5497(4) 1.2209(3)
O6 O 0.3483(4) 0.2866(4) 1.0248(3)
H1 H 0.1785 0.4229 0.3940
H2 H 0.4483 0.3507 0.5499
H3 H 0.4294 0.3984 0.4175
H4 H 0.2899 0.1537 0.4853
H5 H 0.2709 0.2014 0.3529
H6 H 0.3236 0.5056 0.6531
H7 H -0.1600 0.2526 0.7596
H8 H -0.0693 0.0212 0.3210
H9 H -0.1637 0.1394 0.2462
H10 H -0.2428 -0.1428 0.2529
H11 H -0.2075 -0.0696 0.1423
H12 H -0.5603 0.0503 0.2350
H13 H -0.4659 -0.0661 0.3121
H14 H -0.4267 0.1429 0.4123
H15 H -0.3887 0.2145 0.3021
H16 H 0.0036 0.2327 0.4062
H17 H -0.4101 0.0542 0.1148
H18 H 0.0920 0.2079 1.1428
H19 H -0.0170 0.3158 1.1310
H20 H 0.3844 0.6279 1.1915
H21 H 0.4366 0.5107 1.1962
H22 H 0.3671 0.2561 0.9620
H23 H 0.4264 0.3255 1.0496
O3A O -0.0260(4) 0.5892(4) 1.1224(3)
Na1A Na -0.1723(2) 0.5437(2) 0.92669(18)
O7 O 0.1730(8) 0.0607(8) 1.0772(6)
H24 H 0.2299 0.1241 1.0676
O8 O -0.3425(4) 0.1816(4) -0.0976(4)
H25 H -0.3324 0.2382 -0.0418
H26 H -0.4185 0.1442 -0.0888
H27? H 0.1963 -0.0225 1.0737
O9? O 0.0911(9) -0.0004(9) 1.0804(8)
loop_
_geom_bond_atom_site_label_1
_geom_bond_atom_site_label_2
_geom_bond_site_symmetry_1
_geom_bond_site_symmetry_2
C1 C2 1_555 1_555
C2 C3 1_555 1_555
C3 C1 1_555 1_555
C4 C9 1_555 1_555
C5 C6 1_555 1_555
C6 C7 1_555 1_555
C7 O1 1_555 1_555
C8 C6 1_555 1_555
C9 C8 1_555 1_555
C10 C9 1_555 1_555
C11 C10 1_555 1_555
C12 C11 1_555 1_555
C13 C14 1_555 1_555
C14 N3 1_555 1_555
C15 C16 1_555 1_555
C16 N2 1_555 1_555
C17 C4 1_555 1_555
O2 C7 1_555 1_555
O3 C8 1_555 1_555
N1 C1 1_555 1_555
N2 C12 1_555 1_555
N3 C15 1_555 1_555
F1 C11 1_555 1_555
Na1 O2 1_555 1_555
O4 Na1 1_555 1_555
O5 Na1 1_555 1_555
O6 Na1 1_555 1_555
H1 C1 1_555 1_555
H2 C2 1_555 1_555
H3 C2 1_555 1_555
H4 C3 1_555 1_555
H5 C3 1_555 1_555
H6 C5 1_555 1_555
H7 C10 1_555 1_555
H8 C13 1_555 1_555
H9 C13 1_555 1_555
H10 C14 1_555 1_555
H11 C14 1_555 1_555
H12 C15 1_555 1_555
H13 C15 1_555 1_555
H14 C16 1_555 1_555
H15 C16 1_555 1_555
H16 C17 1_555 1_555
H17 N3 1_555 1_555
H18 O4 1_555 1_555
H19 O4 1_555 1_555
H20 O5 1_555 1_555
H21 O5 1_555 1_555
H22 O6 1_555 1_555
H23 O6 1_555 1_555
O7 H24 1_555 1_555
O8 H25 1_555 1_555
H26 O8 1_555 1_555
O3A Na1 1_555 1_555
Na1A O3 1_555 1_555
C4 N1 1_555 1_555
C5 N1 1_555 1_555
C12 C17 1_555 1_555
C13 N2 1_555 1_555
O3 Na1 1_555 1_555
O3A Na1A 1_555 1_555

#END
