
#######################################################################
#
#                 Cambridge Crystallographic Data Centre
#                                CCDC 
#
#######################################################################
#
# If this CIF has been generated from an entry in the Cambridge 
# Structural Database, then it will include bibliographic, chemical, 
# crystal, experimental, refinement or atomic coordinate data resulting 
# from the CCDC's data processing and validation procedures.
#
#######################################################################

data_UHIYIU
_symmetry_cell_setting           triclinic
_symmetry_space_group_name_H-M   'P -1'
_symmetry_Int_Tables_number      2
_space_group_name_Hall           '-P 1'
loop_
_symmetry_equiv_pos_site_id
_symmetry_equiv_pos_as_xyz
1 x,y,z
2 -x,-y,-z
_cell_length_a                   8.1942(7)
_cell_length_b                   10.0010(9)
_cell_length_c                   14.8220(13)
_cell_angle_alpha                75.664(3)
_cell_angle_beta                 85.553(3)
_cell_angle_gamma                85.294(3)
_cell_volume                     1170.81
loop_
_atom_site_label
_atom_site_type_symbol
_atom_site_fract_x
_atom_site_fract_y
_atom_site_fract_z
Cu1 Cu 0.5000 0.0000 0.5000
S1 S 0.66794(13) 0.12590(11) 0.19107(6)
N1 N 0.6095(3) -0.0049(3) 0.37781(15)
C1 C 0.6351(3) 0.0494(3) 0.29981(19)
N2 N 0.2917(3) -0.0697(2) 0.46134(14)
N3 N 0.0814(3) -0.0361(2) 0.24731(13)
H1 H 0.0876 0.0502 0.2204
C2 C 0.1131(3) -0.0801(2) 0.34320(16)
C3 C 0.2504(3) -0.0361(3) 0.37200(17)
H2 H 0.3181 0.0196 0.3275
C4 C 0.1937(3) -0.1522(3) 0.52399(18)
H3 H 0.2210 -0.1783 0.5859
C5 C 0.0547(3) -0.1994(3) 0.49997(18)
H4 H -0.0106 -0.2562 0.5453
C6 C 0.0116(3) -0.1625(3) 0.40815(18)
H5 H -0.0831 -0.1925 0.3909
O1 O 0.0252(3) -0.24429(18) 0.22775(12)
C7 C 0.0421(3) -0.1208(3) 0.19579(17)
C8 C 0.0221(3) -0.0550(2) 0.09417(16)
C9 C 0.1130(3) 0.0521(3) 0.04430(17)
H6 H 0.1898 0.0871 0.0738
C10 C -0.0905(3) -0.1073(3) 0.04913(17)
H7 H -0.1513 -0.1803 0.0822
N4 N 0.4019(3) 0.2582(2) 0.42964(15)
N5 N 0.1790(3) 0.4655(2) 0.22928(14)
H8 H 0.1653 0.5529 0.2054
C11 C 0.2455(3) 0.4229(3) 0.31822(17)
C12 C 0.3449(3) 0.3022(3) 0.34477(18)
H9 H 0.3729 0.2497 0.3014
C13 C 0.3669(4) 0.3381(3) 0.4886(2)
H10 H 0.4063 0.3087 0.5479
C14 C 0.2761(4) 0.4610(3) 0.4671(2)
H11 H 0.2573 0.5147 0.5103
C15 C 0.2127(4) 0.5045(3) 0.3806(2)
H12 H 0.1489 0.5873 0.3646
O2 O 0.1554(3) 0.25344(19) 0.20477(14)
C16 C 0.1356(3) 0.3797(3) 0.17897(18)
C17 C 0.0632(3) 0.4463(3) 0.08731(17)
C18 C 0.0980(3) 0.5782(3) 0.03585(18)
H13 H 0.1640 0.6312 0.0596
C19 C -0.0347(3) 0.3694(3) 0.05057(17)
H14 H -0.0583 0.2810 0.0845
Cu1_2 Cu -0.5000 0.0000 -0.5000
Cu1_3 Cu -0.5000 1.0000 -0.5000
S1A S 0.33206(13) -0.12590(11) 0.80893(6)
N1A N 0.3905(3) 0.0049(3) 0.62219(15)
C1A C 0.3649(3) -0.0494(3) 0.70019(19)
N2A N -0.2917(3) 0.0697(2) -0.46134(14)
N2A_2 N 0.7083(3) 0.0697(2) 0.53866(14)
N3A N -0.0814(3) 0.0361(2) -0.24731(13)
H1A H -0.0876 -0.0502 -0.2204
C2A C -0.1131(3) 0.0801(2) -0.34320(16)
C3A C -0.2504(3) 0.0361(3) -0.37200(17)
H2A H -0.3181 -0.0196 -0.3275
C4A C -0.1937(3) 0.1522(3) -0.52399(18)
H3A H -0.2210 0.1783 -0.5859
C5A C -0.0547(3) 0.1994(3) -0.49997(18)
H4A H 0.0106 0.2562 -0.5453
C6A C -0.0116(3) 0.1625(3) -0.40815(18)
H5A H 0.0831 0.1925 -0.3909
O1A O -0.0252(3) 0.24429(18) -0.22775(12)
C7A C -0.0421(3) 0.1208(3) -0.19579(17)
C8A C -0.0221(3) 0.0550(2) -0.09417(16)
C9A C -0.1130(3) -0.0521(3) -0.04430(17)
H6A H -0.1898 -0.0871 -0.0738
C10A C 0.0905(3) 0.1073(3) -0.04913(17)
H7A H 0.1513 0.1803 -0.0822
N4A N -0.4019(3) 0.7418(2) -0.42964(15)
N4A_2 N 0.5981(3) -0.2582(2) 0.57036(15)
N5A N -0.1790(3) 0.5345(2) -0.22928(14)
H8A H -0.1653 0.4471 -0.2054
C11A C -0.2455(3) 0.5771(3) -0.31822(17)
C12A C -0.3449(3) 0.6978(3) -0.34477(18)
H9A H -0.3729 0.7503 -0.3014
C13A C -0.3669(4) 0.6619(3) -0.4886(2)
H10A H -0.4063 0.6913 -0.5479
C14A C -0.2761(4) 0.5390(3) -0.4671(2)
H11A H -0.2573 0.4853 -0.5103
C15A C -0.2127(4) 0.4955(3) -0.3806(2)
H12A H -0.1489 0.4127 -0.3646
O2A O -0.1554(3) 0.74656(19) -0.20477(14)
C16A C -0.1356(3) 0.6203(3) -0.17897(18)
C17A C -0.0632(3) 0.5537(3) -0.08731(17)
C18A C -0.0980(3) 0.4218(3) -0.03585(18)
H13A H -0.1640 0.3688 -0.0596
C19A C 0.0347(3) 0.6306(3) -0.05057(17)
H14A H 0.0583 0.7190 -0.0845
N6 N 0.7885(5) 0.4469(4) 0.3196(2)
C20 C 0.7123(5) 0.5199(4) 0.2649(2)
C21 C 0.6216(4) 0.6141(3) 0.1937(2)
C22 C 0.6106(4) 0.5843(4) 0.1090(2)
H15 H 0.6559 0.5007 0.0986
C23 C 0.5316(4) 0.6797(4) 0.0390(2)
H16 H 0.5265 0.6610 -0.0191
C24 C 0.4614(4) 0.8006(4) 0.0549(3)
H17 H 0.4074 0.8640 0.0079
C25 C 0.4704(4) 0.8288(4) 0.1401(3)
H18 H 0.4218 0.9111 0.1509
C26 C 0.5500(4) 0.7372(4) 0.2090(2)
H19 H 0.5562 0.7575 0.2665
loop_
_geom_bond_atom_site_label_1
_geom_bond_atom_site_label_2
_geom_bond_site_symmetry_1
_geom_bond_site_symmetry_2
Cu1 N1 1_555 1_555
S1 C1 1_555 1_555
N1 C1 1_555 1_555
N2 Cu1 1_555 1_555
N3 H1 1_555 1_555
C2 N3 1_555 1_555
C3 N2 1_555 1_555
H2 C3 1_555 1_555
C4 N2 1_555 1_555
H3 C4 1_555 1_555
C5 C4 1_555 1_555
H4 C5 1_555 1_555
C6 C2 1_555 1_555
H5 C6 1_555 1_555
O1 C7 1_555 1_555
C7 N3 1_555 1_555
C8 C7 1_555 1_555
C9 C8 1_555 1_555
H6 C9 1_555 1_555
C10 C8 1_555 1_555
H7 C10 1_555 1_555
N4 Cu1 1_555 1_555
N5 H8 1_555 1_555
C11 N5 1_555 1_555
C12 N4 1_555 1_555
H9 C12 1_555 1_555
C13 N4 1_555 1_555
H10 C13 1_555 1_555
C14 C13 1_555 1_555
H11 C14 1_555 1_555
C15 C11 1_555 1_555
H12 C15 1_555 1_555
O2 C16 1_555 1_555
C16 N5 1_555 1_555
C17 C16 1_555 1_555
C18 C17 1_555 1_555
H13 C18 1_555 1_555
C19 C17 1_555 1_555
H14 C19 1_555 1_555
N6 C20 1_555 1_555
C20 C21 1_555 1_555
C21 C22 1_555 1_555
C22 H15 1_555 1_555
C23 C22 1_555 1_555
H16 C23 1_555 1_555
C24 C23 1_555 1_555
H17 C24 1_555 1_555
C25 C24 1_555 1_555
H18 C25 1_555 1_555
C26 C21 1_555 1_555
H19 C26 1_555 1_555
Cu1_2 N2A 1_555 1_555
Cu1_3 N4A 1_555 1_555
S1A C1A 1_555 1_555
N1A Cu1 1_555 1_555
C1A N1A 1_555 1_555
N2A C3A 1_555 1_555
N2A_2 Cu1 1_555 1_555
N3A H1A 1_555 1_555
C2A N3A 1_555 1_555
C3A C2A 1_555 1_555
H2A C3A 1_555 1_555
C4A N2A 1_555 1_555
H3A C4A 1_555 1_555
C5A C4A 1_555 1_555
H4A C5A 1_555 1_555
C6A C2A 1_555 1_555
H5A C6A 1_555 1_555
O1A C7A 1_555 1_555
C7A N3A 1_555 1_555
C8A C7A 1_555 1_555
C9A C10 1_555 1_555
H6A C9A 1_555 1_555
C10A C9 1_555 1_555
H7A C10A 1_555 1_555
N4A C12A 1_555 1_555
N4A_2 Cu1 1_555 1_555
N5A H8A 1_555 1_555
C11A N5A 1_555 1_555
C12A C11A 1_555 1_555
H9A C12A 1_555 1_555
C13A N4A 1_555 1_555
H10A C13A 1_555 1_555
C14A C13A 1_555 1_555
H11A C14A 1_555 1_555
C15A C11A 1_555 1_555
H12A C15A 1_555 1_555
O2A C16A 1_555 1_555
C16A N5A 1_555 1_555
C17A C16A 1_555 1_555
C18A C19 1_555 1_555
H13A C18A 1_555 1_555
C19A C18 1_555 1_555
H14A C19A 1_555 1_555
C2 C3 1_555 1_555
C5 C6 1_555 1_555
C11 C12 1_555 1_555
C14 C15 1_555 1_555
C25 C26 1_555 1_555
C5A C6A 1_555 1_555
C8A C9A 1_555 1_555
C8A C10A 1_555 1_555
C14A C15A 1_555 1_555
C17A C18A 1_555 1_555
C17A C19A 1_555 1_555

#END
