
#######################################################################
#
#                 Cambridge Crystallographic Data Centre
#                                CCDC 
#
#######################################################################
#
# If this CIF has been generated from an entry in the Cambridge 
# Structural Database, then it will include bibliographic, chemical, 
# crystal, experimental, refinement or atomic coordinate data resulting 
# from the CCDC's data processing and validation procedures.
#
#######################################################################

data_UHIYER
_symmetry_cell_setting           monoclinic
_symmetry_space_group_name_H-M   'C 2/c'
_symmetry_Int_Tables_number      15
_space_group_name_Hall           '-C 2yn'
loop_
_symmetry_equiv_pos_site_id
_symmetry_equiv_pos_as_xyz
1 x,y,z
2 -x,y,1/2-z
3 1/2+x,1/2+y,z
4 1/2-x,1/2+y,1/2-z
5 -x,-y,-z
6 x,-y,1/2+z
7 1/2-x,1/2-y,-z
8 1/2+x,1/2-y,1/2+z
_cell_length_a                   16.8729(12)
_cell_length_b                   9.8999(7)
_cell_length_c                   21.7246(19)
_cell_angle_alpha                90
_cell_angle_beta                 112.248(4)
_cell_angle_gamma                90
_cell_volume                     3358.72
loop_
_atom_site_label
_atom_site_type_symbol
_atom_site_fract_x
_atom_site_fract_y
_atom_site_fract_z
Mn1 Mn 0.0000 0.79694(6) 0.2500
O1 O 0.05422(12) 0.6308(2) 0.31638(9)
H1 H 0.0874(16) 0.639(3) 0.3566(9)
H2 H 0.0217(16) 0.565(2) 0.3138(14)
O2 O 0.06573(11) 0.9495(2) 0.32894(9)
H3 H 0.0508(16) 0.945(3) 0.3622(11)
H4 H 0.1210(11) 0.950(3) 0.3473(13)
N1 N 0.11539(13) 0.8234(2) 0.22282(10)
N2 N 0.27317(13) 0.7620(2) 0.07123(10)
C1 C 0.13242(16) 0.9395(3) 0.19849(13)
H5 H 0.1011 1.0179 0.2007
C2 C 0.19308(16) 0.9510(3) 0.17034(13)
H6 H 0.2026 1.0353 0.1534
C3 C 0.23981(16) 0.8378(3) 0.16713(12)
C4 C 0.22511(17) 0.7194(3) 0.19513(14)
H7 H 0.2579 0.6409 0.1960
C5 C 0.16306(17) 0.7158(3) 0.22152(14)
H8 H 0.1534 0.6331 0.2398
C6 C 0.30217(16) 0.8452(3) 0.13213(13)
H9 H 0.3080 0.9403 0.1204
H10 H 0.3591 0.8135 0.1627
C7 C 0.33708(16) 0.7722(3) 0.04024(13)
H11 H 0.3932 0.7394 0.0718
H12 H 0.3438 0.8680 0.0300
C8 C 0.18988(16) 0.8103(3) 0.02316(13)
H13 H 0.1946 0.9067 0.0128
H14 H 0.1460 0.8024 0.0429
N1F N 0.38461(13) 0.6766(2) -0.22282(10)
N2F N 0.22683(13) 0.7380(2) -0.07123(10)
C1F C 0.36758(16) 0.5605(3) -0.19849(13)
H5F H 0.3989 0.4821 -0.2007
C2F C 0.30692(16) 0.5490(3) -0.17034(13)
H6F H 0.2974 0.4647 -0.1534
C3F C 0.26019(16) 0.6622(3) -0.16713(12)
C4F C 0.27489(17) 0.7806(3) -0.19513(14)
H7F H 0.2421 0.8591 -0.1960
C5F C 0.33694(17) 0.7842(3) -0.22152(14)
H8F H 0.3466 0.8669 -0.2398
C6F C 0.19783(16) 0.6548(3) -0.13213(13)
H9F H 0.1920 0.5597 -0.1204
H10F H 0.1409 0.6865 -0.1627
C7F C 0.16292(16) 0.7278(3) -0.04024(13)
H11F H 0.1068 0.7606 -0.0718
H12F H 0.1562 0.6320 -0.0300
C8F C 0.31012(16) 0.6897(3) -0.02316(13)
H13F H 0.3054 0.5933 -0.0128
H14F H 0.3540 0.6976 -0.0429
O1A O -0.05422(12) 0.6308(2) 0.18362(9)
H1A H -0.0874(16) 0.639(3) 0.1434(9)
H2A H -0.0217(16) 0.565(2) 0.1862(14)
O2A O -0.06573(11) 0.9495(2) 0.17106(9)
H3A H -0.0508(16) 0.945(3) 0.1378(11)
H4A H -0.1210(11) 0.950(3) 0.1527(13)
Mn1F Mn 0.5000 0.70306(6) -0.2500
N1A N -0.11539(13) 0.8234(2) 0.27718(10)
Mn2 Mn 0.08379(2) 0.74994(4) 0.503773(19)
O3 O 0.08730(11) 0.57252(18) 0.56414(9)
O4 O 0.02593(11) 0.37031(18) 0.55854(9)
O5 O 0.03553(11) 0.92794(18) 0.44177(9)
O6 O -0.02910(11) 1.12612(18) 0.43923(8)
O7 O 0.15489(10) 0.68117(18) 0.44450(8)
O8 O 0.28546(11) 0.68305(18) 0.44059(8)
C9 C 0.03249(15) 0.4824(3) 0.53565(13)
C10 C 0.23345(15) 0.7108(2) 0.46670(12)
C11 C 0.00164(15) 1.0166(3) 0.46548(12)
O3D O -0.08730(11) 0.42748(18) 0.43586(9)
O4D O -0.02593(11) 0.62969(18) 0.44146(9)
C9D C -0.03249(15) 0.5176(3) 0.46435(13)
O5D O -0.03553(11) 1.07206(18) 0.55823(9)
O6D O 0.02910(11) 0.87388(18) 0.56077(8)
C11D C -0.00164(15) 0.9834(3) 0.53452(12)
O7F O 0.34511(10) 0.81883(18) 0.55550(8)
O8F O 0.21454(11) 0.81695(18) 0.55941(8)
C10F C 0.26655(15) 0.7892(2) 0.53330(12)
Mn2D Mn -0.08379(2) 0.25006(4) 0.496227(19)
Mn2D_2 Mn -0.08379(2) 1.25006(4) 0.496227(19)
Mn2F Mn 0.41621(2) 0.75006(4) 0.496227(19)
O5D_2 O -0.03553(11) 0.07206(18) 0.55823(9)
O6_2 O -0.02910(11) 0.12612(18) 0.43923(8)
O7D O -0.15489(10) 0.31883(18) 0.55550(8)
O8B O -0.21454(11) 0.18305(18) 0.44059(8)
O9 O 0.23058(12) 0.9860(2) 0.39966(11)
H15 H 0.2793(13) 0.960(3) 0.4023(15)
H16 H 0.2308(18) 1.0686(19) 0.4087(15)
O10 O -0.04953(17) 0.4120(2) 0.31155(12)
H17 H -0.046(2) 0.330(2) 0.2979(17)
H18 H -0.075(2) 0.396(3) 0.3380(15)
O11 O 0.0000 1.1819(3) 0.2500
H19 H 0.0291(18) 1.130(2) 0.2823(9)
H19A H -0.0291(18) 1.130(2) 0.2177(9)
loop_
_geom_bond_atom_site_label_1
_geom_bond_atom_site_label_2
_geom_bond_site_symmetry_1
_geom_bond_site_symmetry_2
Mn1 O1 1_555 1_555
O1 H1 1_555 1_555
H2 O1 1_555 1_555
O2 Mn1 1_555 1_555
H3 O2 1_555 1_555
H4 O2 1_555 1_555
N1 Mn1 1_555 1_555
N2 C6 1_555 1_555
C1 N1 1_555 1_555
H5 C1 1_555 1_555
C2 C1 1_555 1_555
H6 C2 1_555 1_555
C3 C2 1_555 1_555
C4 C3 1_555 1_555
H7 C4 1_555 1_555
C5 N1 1_555 1_555
H8 C5 1_555 1_555
C6 C3 1_555 1_555
H9 C6 1_555 1_555
H10 C6 1_555 1_555
C7 N2 1_555 1_555
H11 C7 1_555 1_555
H12 C7 1_555 1_555
C8 N2 1_555 1_555
H13 C8 1_555 1_555
H14 C8 1_555 1_555
Mn2 O3 1_555 1_555
O3 C9 1_555 1_555
O4 C9 1_555 1_555
O5 Mn2 1_555 1_555
O6 C11 1_555 1_555
O7 Mn2 1_555 1_555
O8 C10 1_555 1_555
C9 C9D 1_555 1_555
C10 O7 1_555 1_555
C11 O5 1_555 1_555
O9 H15 1_555 1_555
H16 O9 1_555 1_555
O10 H17 1_555 1_555
H18 O10 1_555 1_555
O11 H19 1_555 1_555
N1F C1F 1_555 1_555
N2F C6F 1_555 1_555
C1F H5F 1_555 1_555
C2F C1F 1_555 1_555
H6F C2F 1_555 1_555
C3F C2F 1_555 1_555
C4F C3F 1_555 1_555
H7F C4F 1_555 1_555
C5F N1F 1_555 1_555
H8F C5F 1_555 1_555
C6F C3F 1_555 1_555
H9F C6F 1_555 1_555
H10F C6F 1_555 1_555
C7F C8 1_555 1_555
H11F C7F 1_555 1_555
H12F C7F 1_555 1_555
C8F C7 1_555 1_555
H13F C8F 1_555 1_555
H14F C8F 1_555 1_555
O1A Mn1 1_555 1_555
H1A O1A 1_555 1_555
H2A O1A 1_555 1_555
O2A Mn1 1_555 1_555
H3A O2A 1_555 1_555
H4A O2A 1_555 1_555
Mn1F N1F 1_555 1_555
N1A Mn1 1_555 1_555
O3D C9D 1_555 1_555
O4D Mn2 1_555 1_555
C9D O4D 1_555 1_555
O5D C11D 1_555 1_555
O6D Mn2 1_555 1_555
C11D C11 1_555 1_555
O7F C10F 1_555 1_555
O8F Mn2 1_555 1_555
C10F C10 1_555 1_555
Mn2D O4 1_555 1_555
Mn2D_2 O6 1_555 1_555
Mn2F O8 1_555 1_555
O5D_2 Mn2D 1_555 1_555
O6_2 Mn2D 1_555 1_555
O7D Mn2D 1_555 1_555
O8B Mn2D 1_555 1_555
H19A O11 1_555 1_555
C4 C5 1_555 1_555
N2F C7F 1_555 1_555
N2F C8F 1_555 1_555
C4F C5F 1_555 1_555
O3D Mn2D 1_555 1_555
O5D Mn2D_2 1_555 1_555
O6D C11D 1_555 1_555
O7F Mn2F 1_555 1_555
O8F C10F 1_555 1_555

#END
