
#######################################################################
#
#                 Cambridge Crystallographic Data Centre
#                                CCDC 
#
#######################################################################
#
# If this CIF has been generated from an entry in the Cambridge 
# Structural Database, then it will include bibliographic, chemical, 
# crystal, experimental, refinement or atomic coordinate data resulting 
# from the CCDC's data processing and validation procedures.
#
#######################################################################

data_UHOCUQ
_symmetry_cell_setting           monoclinic
_symmetry_space_group_name_H-M   'P 21/c'
_symmetry_Int_Tables_number      14
_space_group_name_Hall           '-P 2ybc'
loop_
_symmetry_equiv_pos_site_id
_symmetry_equiv_pos_as_xyz
1 x,y,z
2 -x,1/2+y,1/2-z
3 -x,-y,-z
4 x,1/2-y,1/2+z
_cell_length_a                   13.1128(3)
_cell_length_b                   10.5193(2)
_cell_length_c                   26.7038(8)
_cell_angle_alpha                90
_cell_angle_beta                 103.0310(10)
_cell_angle_gamma                90
_cell_volume                     3588.6
loop_
_atom_site_label
_atom_site_type_symbol
_atom_site_fract_x
_atom_site_fract_y
_atom_site_fract_z
C1 C 0.4300(4) 0.5149(5) 0.6979(2)
C2 C 0.4244(4) 0.3884(5) 0.6899(2)
C3 C 0.6215(4) 0.4372(4) 0.7198(2)
C4 C 0.7277(4) 0.4335(4) 0.7241(2)
C5 C 0.9086(4) 0.5037(5) 0.7136(2)
C6 C 0.9022(4) 0.3769(5) 0.7021(2)
C7 C 0.3698(5) 0.7432(5) 0.6522(2)
H1 H 0.3272 0.8186 0.6522
H2 H 0.4413 0.7646 0.6690
C8 C 0.3660(5) 0.7044(5) 0.5973(3)
H3 H 0.4135 0.6339 0.5971
H4 H 0.2958 0.6760 0.5814
C9 C 0.3950(5) 0.8102(6) 0.5675(3)
C10 C 0.3323(4) 0.2326(5) 0.6113(3)
H5 H 0.3991 0.1889 0.6192
H6 H 0.2785 0.1697 0.5987
C11 C 0.3329(4) 0.3283(6) 0.5690(2)
H7 H 0.3877 0.3903 0.5810
H8 H 0.3487 0.2848 0.5397
C12 C 0.2320(6) 0.3948(6) 0.5528(3)
C13 C 0.9518(5) 0.7402(5) 0.6795(2)
H9 H 0.9118 0.7764 0.7024
H10 H 1.0053 0.8013 0.6762
C14 C 0.8796(4) 0.7212(5) 0.6272(2)
H11 H 0.8200 0.6705 0.6310
H12 H 0.8535 0.8033 0.6134
C15 C 0.9321(5) 0.6576(6) 0.5906(3)
C16 C 0.9307(5) 0.1658(5) 0.6449(3)
H13 H 0.9814 0.1069 0.6367
H14 H 0.8923 0.1212 0.6667
C17 C 0.8546(5) 0.2025(6) 0.5955(3)
H15 H 0.8254 0.1259 0.5777
H16 H 0.7974 0.2505 0.6038
C18 C 0.9031(5) 0.2785(6) 0.5612(3)
N1 N 0.4184(4) 0.8898(5) 0.5448(2)
N2 N 0.1536(5) 0.4449(6) 0.5405(2)
N3 N 0.9706(5) 0.6096(5) 0.5618(2)
N4 N 0.9374(4) 0.3404(5) 0.5342(2)
S1 S 0.32350(11) 0.61885(13) 0.68809(6)
S2 S 0.30912(11) 0.30074(14) 0.67011(6)
S3 S 0.55475(10) 0.57664(12) 0.72330(6)
S4 S 0.54227(10) 0.30523(12) 0.70526(6)
S5 S 0.80362(11) 0.56898(12) 0.73458(6)
S6 S 0.79249(10) 0.29786(12) 0.71320(6)
S7 S 1.01553(11) 0.59654(13) 0.70860(6)
S8 S 1.00066(11) 0.29629(14) 0.68118(6)
Zn1 Zn 1.0000 0.5000 0.5000
Zn2 Zn 0.5000 1.0000 0.5000
O1 O 0.6286(3) 0.8852(4) 0.52979(18)
O2 O 0.5471(4) 1.1325(4) 0.56125(18)
C1B C 0.5700(4) 0.4851(5) 0.3021(2)
C2B C 0.5756(4) 0.6116(5) 0.3101(2)
C3B C 0.3785(4) 0.5628(4) 0.2802(2)
C4B C 0.2723(4) 0.5665(4) 0.2759(2)
C5B C 0.0914(4) 0.4963(5) 0.2864(2)
C6B C 0.0978(4) 0.6231(5) 0.2979(2)
C7B C 0.6302(5) 0.2568(5) 0.3478(2)
H1B H 0.6728 0.1814 0.3478
H2B H 0.5587 0.2354 0.3310
C8B C 0.6340(5) 0.2956(5) 0.4027(3)
H3B H 0.5865 0.3661 0.4029
H4B H 0.7042 0.3240 0.4186
C9B C 0.6050(5) 0.1898(6) 0.4325(3)
C10B C 0.6677(4) 0.7674(5) 0.3887(3)
H5B H 0.6009 0.8111 0.3808
H6B H 0.7215 0.8303 0.4013
C11B C 0.6671(4) 0.6717(6) 0.4310(2)
H7B H 0.6123 0.6097 0.4190
H8B H 0.6513 0.7152 0.4603
C12B C 0.7680(6) 0.6052(6) 0.4472(3)
C13B C 0.0482(5) 0.2598(5) 0.3205(2)
H9B H 0.0882 0.2236 0.2976
H10B H -0.0053 0.1987 0.3238
C14B C 0.1204(4) 0.2788(5) 0.3728(2)
H11B H 0.1800 0.3295 0.3690
H12B H 0.1465 0.1967 0.3866
C15B C 0.0679(5) 0.3424(6) 0.4094(3)
C16B C 0.0693(5) 0.8342(5) 0.3551(3)
H13B H 0.0186 0.8931 0.3633
H14B H 0.1077 0.8788 0.3333
C17B C 0.1454(5) 0.7975(6) 0.4045(3)
H15B H 0.1746 0.8741 0.4223
H16B H 0.2026 0.7495 0.3962
C18B C 0.0969(5) 0.7215(6) 0.4388(3)
N1B N 0.5816(4) 0.1102(5) 0.4552(2)
N1B_2 N 0.5816(4) 1.1102(5) 0.4552(2)
N2B N 0.8464(5) 0.5551(6) 0.4595(2)
N2_2 N 1.1536(5) 0.4449(6) 0.5405(2)
N3B N 0.0294(5) 0.3904(5) 0.4382(2)
N3B_2 N 1.0294(5) 0.3904(5) 0.4382(2)
N4B N 0.0626(4) 0.6596(5) 0.4658(2)
N4B_2 N 1.0626(4) 0.6596(5) 0.4658(2)
S1B S 0.67650(11) 0.38115(13) 0.31191(6)
S2B S 0.69088(11) 0.69926(14) 0.32989(6)
S3B S 0.44525(10) 0.42336(12) 0.27670(6)
S4B S 0.45773(10) 0.69477(12) 0.29474(6)
S5B S 0.19638(11) 0.43102(12) 0.26542(6)
S6B S 0.20751(10) 0.70214(12) 0.28680(6)
S7B S -0.01553(11) 0.40346(13) 0.29140(6)
S8B S -0.00066(11) 0.70371(14) 0.31882(6)
Zn1_2 Zn 0.0000 0.5000 0.5000
Zn2_2 Zn 0.5000 0.0000 0.5000
O1B O 0.3714(3) 1.1148(4) 0.47021(18)
O2B O 0.4529(4) 0.8675(4) 0.43875(18)
Cl1 Cl 0.63682(12) 0.47884(13) 0.56874(6)
O4 O 0.5561(5) 0.4732(9) 0.5949(3)
O5 O 0.6325(7) 0.5935(6) 0.5434(3)
O6 O 0.7332(4) 0.4711(5) 0.6053(2)
O7 O 0.6276(6) 0.3785(6) 0.5343(3)
Cl2 Cl 1.11964(16) 0.9354(2) 0.60119(10)
O8 O 1.1428(11) 1.0523(15) 0.6147(9)
O9 O 1.0127(4) 0.9272(5) 0.5850(3)
O10 O 1.1449(7) 0.857(2) 0.6430(5)
O11 O 1.1804(6) 0.9017(7) 0.5675(3)
Cl3 Cl 0.66722(13) -0.06889(14) 0.67305(7)
O12 O 0.7003(7) 0.0248(7) 0.6443(3)
O13 O 0.7393(7) -0.0861(7) 0.7192(3)
O14 O 0.5717(6) -0.0259(8) 0.6830(3)
O15 O 0.6463(5) -0.1817(5) 0.6424(3)
O3 O 1.1817(4) 1.0795(6) 0.4879(3)
loop_
_geom_bond_atom_site_label_1
_geom_bond_atom_site_label_2
_geom_bond_site_symmetry_1
_geom_bond_site_symmetry_2
C1 C2 1_555 1_555
C2 S2 1_555 1_555
C3 C4 1_555 1_555
C4 S5 1_555 1_555
C5 C6 1_555 1_555
C6 S6 1_555 1_555
C7 H1 1_555 1_555
H2 C7 1_555 1_555
C8 C7 1_555 1_555
H3 C8 1_555 1_555
H4 C8 1_555 1_555
C9 C8 1_555 1_555
C10 H5 1_555 1_555
H6 C10 1_555 1_555
C11 C10 1_555 1_555
H7 C11 1_555 1_555
H8 C11 1_555 1_555
C12 C11 1_555 1_555
C13 H9 1_555 1_555
H10 C13 1_555 1_555
C14 C13 1_555 1_555
H11 C14 1_555 1_555
H12 C14 1_555 1_555
C15 C14 1_555 1_555
C16 H13 1_555 1_555
H14 C16 1_555 1_555
C17 C16 1_555 1_555
H15 C17 1_555 1_555
H16 C17 1_555 1_555
C18 C17 1_555 1_555
N1 C9 1_555 1_555
N2 C12 1_555 1_555
N3 C15 1_555 1_555
N4 C18 1_555 1_555
S1 C1 1_555 1_555
S2 C10 1_555 1_555
S3 C1 1_555 1_555
S4 C2 1_555 1_555
S5 C5 1_555 1_555
S6 C4 1_555 1_555
S7 C5 1_555 1_555
S8 C6 1_555 1_555
Zn1 N3 1_555 1_555
Zn2 N1 1_555 1_555
Cl1 O4 1_555 1_555
Cl2 O8 1_555 1_555
Cl3 O12 1_555 1_555
O1 Zn2 1_555 1_555
O2 Zn2 1_555 1_555
O5 Cl1 1_555 1_555
O6 Cl1 1_555 1_555
O7 Cl1 1_555 1_555
O9 Cl2 1_555 1_555
O10 Cl2 1_555 1_555
O11 Cl2 1_555 1_555
O13 Cl3 1_555 1_555
O14 Cl3 1_555 1_555
O15 Cl3 1_555 1_555
C1B C2B 1_555 1_555
C2B S2B 1_555 1_555
C3B C4B 1_555 1_555
C4B S5B 1_555 1_555
C5B C6B 1_555 1_555
C6B S6B 1_555 1_555
C7B H1B 1_555 1_555
H2B C7B 1_555 1_555
C8B C7B 1_555 1_555
H3B C8B 1_555 1_555
H4B C8B 1_555 1_555
C9B C8B 1_555 1_555
C10B H5B 1_555 1_555
H6B C10B 1_555 1_555
C11B C10B 1_555 1_555
H7B C11B 1_555 1_555
H8B C11B 1_555 1_555
C12B C11B 1_555 1_555
C13B H9B 1_555 1_555
H10B C13B 1_555 1_555
C14B C13B 1_555 1_555
H11B C14B 1_555 1_555
H12B C14B 1_555 1_555
C15B C14B 1_555 1_555
C16B H13B 1_555 1_555
H14B C16B 1_555 1_555
C17B C16B 1_555 1_555
H15B C17B 1_555 1_555
H16B C17B 1_555 1_555
C18B C17B 1_555 1_555
N1B C9B 1_555 1_555
N1B_2 Zn2 1_555 1_555
N2B Zn1 1_555 1_555
N2_2 Zn1 1_555 1_555
N3B C15B 1_555 1_555
N3B_2 Zn1 1_555 1_555
N4B C18B 1_555 1_555
N4B_2 Zn1 1_555 1_555
S1B C1B 1_555 1_555
S2B C10B 1_555 1_555
S3B C1B 1_555 1_555
S4B C2B 1_555 1_555
S5B C5B 1_555 1_555
S6B C4B 1_555 1_555
S7B C5B 1_555 1_555
S8B C6B 1_555 1_555
Zn1_2 N2 1_555 1_555
Zn2_2 N1B 1_555 1_555
O1B Zn2 1_555 1_555
O2B Zn2 1_555 1_555
C3 S3 1_555 1_555
C3 S4 1_555 1_555
C7 S1 1_555 1_555
C13 S7 1_555 1_555
C16 S8 1_555 1_555
N4 Zn1 1_555 1_555
C3B S3B 1_555 1_555
C3B S4B 1_555 1_555
C7B S1B 1_555 1_555
C12B N2B 1_555 1_555
C13B S7B 1_555 1_555
C16B S8B 1_555 1_555
N3B Zn1_2 1_555 1_555
N4B Zn1_2 1_555 1_555

#END
