
#######################################################################
#
#                 Cambridge Crystallographic Data Centre
#                                CCDC 
#
#######################################################################
#
# If this CIF has been generated from an entry in the Cambridge 
# Structural Database, then it will include bibliographic, chemical, 
# crystal, experimental, refinement or atomic coordinate data resulting 
# from the CCDC's data processing and validation procedures.
#
#######################################################################

data_UHOCEA01
_symmetry_cell_setting           monoclinic
_symmetry_space_group_name_H-M   'P 21/c'
_symmetry_Int_Tables_number      14
_space_group_name_Hall           '-P 2ybc'
loop_
_symmetry_equiv_pos_site_id
_symmetry_equiv_pos_as_xyz
1 x,y,z
2 -x,1/2+y,1/2-z
3 -x,-y,-z
4 x,1/2-y,1/2+z
_cell_length_a                   12.9754(13)
_cell_length_b                   10.1439(9)
_cell_length_c                   26.480(3)
_cell_angle_alpha                90
_cell_angle_beta                 102.775(5)
_cell_angle_gamma                90
_cell_volume                     3399.05
loop_
_atom_site_label
_atom_site_type_symbol
_atom_site_fract_x
_atom_site_fract_y
_atom_site_fract_z
C1 C 0.4255(2) 0.5083(3) 0.70012(11)
C2 C 0.4202(2) 0.3772(3) 0.69098(11)
C3 C 0.6184(2) 0.4284(3) 0.71930(11)
C4 C 0.7265(2) 0.4262(3) 0.72419(12)
C5 C 0.9087(2) 0.4982(3) 0.71290(12)
C6 C 0.9031(2) 0.3685(3) 0.70141(11)
C7 C 0.3639(3) 0.7456(3) 0.65595(12)
H1 H 0.3183 0.8242 0.6551
H2 H 0.4368 0.7704 0.6736
C8 C 0.3627(3) 0.7011(3) 0.60042(13)
H3 H 0.4117 0.6259 0.6014
H4 H 0.2908 0.6708 0.5836
C9 C 0.3940(3) 0.8083(3) 0.56990(13)
C10 C 0.3286(3) 0.2164(3) 0.61113(13)
H5 H 0.3968 0.1685 0.6191
H6 H 0.2724 0.1518 0.5970
C11 C 0.3322(3) 0.3208(3) 0.56996(13)
H7 H 0.3888 0.3851 0.5838
H8 H 0.3496 0.2780 0.5393
C12 C 0.2314(3) 0.3907(3) 0.55418(12)
C13 C 0.9479(3) 0.7471(3) 0.68062(12)
H9 H 0.9068 0.7815 0.7051
H10 H 1.0012 0.8144 0.6772
C14 C 0.8733(3) 0.7265(4) 0.62778(12)
H11 H 0.8121 0.6732 0.6324
H12 H 0.8462 0.8133 0.6136
C15 C 0.9237(3) 0.6607(3) 0.59041(12)
C16 C 0.9293(3) 0.1505(3) 0.64306(13)
H13 H 0.9804 0.0878 0.6336
H14 H 0.8905 0.1032 0.6658
C17 C 0.8502(3) 0.1917(3) 0.59353(12)
H15 H 0.8188 0.1116 0.5749
H16 H 0.7923 0.2429 0.6031
C18 C 0.8990(3) 0.2717(4) 0.55867(13)
N1 N 0.4194(2) 0.8908(3) 0.54619(11)
N2 N 0.1528(2) 0.4436(3) 0.54166(11)
N3 N 0.9616(2) 0.6081(3) 0.56108(10)
N4 N 0.9358(2) 0.3355(3) 0.53209(11)
O1 O 0.62995(18) 0.8839(2) 0.53097(9)
O2 O 0.54667(18) 1.1372(2) 0.56043(9)
S1 S 0.31684(6) 0.61407(8) 0.69186(3)
S2 S 0.30378(6) 0.28545(8) 0.67100(3)
S3 S 0.55161(6) 0.57273(8) 0.72413(3)
S4 S 0.53976(6) 0.29140(8) 0.70377(3)
S5 S 0.80341(6) 0.56557(8) 0.73564(3)
S6 S 0.79257(6) 0.28508(8) 0.71286(3)
S7 S 1.01578(6) 0.59743(8) 0.70742(3)
S8 S 1.00196(6) 0.28457(8) 0.67931(3)
Co1 Co 1.0000 0.5000 0.5000
Co2 Co 0.5000 1.0000 0.5000
C1B C 0.5745(2) 0.4917(3) 0.29988(11)
C2B C 0.5798(2) 0.6228(3) 0.30902(11)
C3B C 0.3816(2) 0.5716(3) 0.28070(11)
C4B C 0.2735(2) 0.5738(3) 0.27581(12)
C5B C 0.0913(2) 0.5018(3) 0.28710(12)
C6B C 0.0969(2) 0.6315(3) 0.29859(11)
C7B C 0.6361(3) 0.2544(3) 0.34405(12)
H1B H 0.6817 0.1758 0.3449
H2B H 0.5632 0.2296 0.3264
C8B C 0.6373(3) 0.2989(3) 0.39958(13)
H3B H 0.5883 0.3741 0.3986
H4B H 0.7092 0.3292 0.4164
C9B C 0.6060(3) 0.1917(3) 0.43010(13)
C10B C 0.6714(3) 0.7836(3) 0.38887(13)
H5B H 0.6032 0.8315 0.3809
H6B H 0.7276 0.8482 0.4030
C11B C 0.6678(3) 0.6792(3) 0.43004(13)
H7B H 0.6112 0.6149 0.4162
H8B H 0.6504 0.7220 0.4607
C12B C 0.7686(3) 0.6093(3) 0.44582(12)
C13B C 0.0521(3) 0.2529(3) 0.31938(12)
H9B H 0.0932 0.2185 0.2949
H10B H -0.0012 0.1856 0.3228
C14B C 0.1267(3) 0.2735(4) 0.37222(12)
H11B H 0.1879 0.3268 0.3676
H12B H 0.1538 0.1867 0.3864
C15B C 0.0763(3) 0.3393(3) 0.40959(12)
C16B C 0.0707(3) 0.8495(3) 0.35694(13)
H13B H 0.0196 0.9122 0.3664
H14B H 0.1095 0.8968 0.3342
C17B C 0.1498(3) 0.8083(3) 0.40647(12)
H15B H 0.1812 0.8884 0.4251
H16B H 0.2077 0.7571 0.3969
C18B C 0.1010(3) 0.7283(4) 0.44133(13)
N1B N 0.5806(2) 0.1092(3) 0.45381(11)
N1B_2 N 0.5806(2) 1.1092(3) 0.45381(11)
N2B N 0.8472(2) 0.5564(3) 0.45834(11)
N2_2 N 1.1528(2) 0.4436(3) 0.54166(11)
N3B N 0.0384(2) 0.3919(3) 0.43892(10)
N3B_2 N 1.0384(2) 0.3919(3) 0.43892(10)
N4B N 0.0642(2) 0.6645(3) 0.46791(11)
N4B_2 N 1.0642(2) 0.6645(3) 0.46791(11)
O1B O 0.37005(18) 1.1161(2) 0.46903(9)
O2B O 0.45333(18) 0.8628(2) 0.43957(9)
S1B S 0.68316(6) 0.38593(8) 0.30814(3)
S2B S 0.69622(6) 0.71455(8) 0.32900(3)
S3B S 0.44839(6) 0.42727(8) 0.27587(3)
S4B S 0.46024(6) 0.70860(8) 0.29623(3)
S5B S 0.19659(6) 0.43443(8) 0.26436(3)
S6B S 0.20743(6) 0.71492(8) 0.28714(3)
S7B S -0.01578(6) 0.40257(8) 0.29258(3)
S8B S -0.00196(6) 0.71543(8) 0.32069(3)
Co1_2 Co 0.0000 0.5000 0.5000
Co2_2 Co 0.5000 0.0000 0.5000
O3 O 1.1806(2) 1.0895(3) 0.49296(11)
F1 F 0.55422(18) 0.4843(2) 0.59651(9)
F2 F 0.6431(2) 0.5974(2) 0.54476(9)
F3 F 0.73127(17) 0.4645(2) 0.60789(8)
F4 F 0.62641(19) 0.3733(2) 0.53700(8)
B1 B 0.6378(3) 0.4814(4) 0.57120(15)
F5 F 1.1539(2) 1.0088(3) 0.63321(12)
F6 F 1.01222(16) 0.9232(2) 0.57755(8)
F7 F 1.1305(2) 0.7915(3) 0.62941(12)
F8 F 1.17876(19) 0.8970(2) 0.56395(9)
B2 B 1.1187(3) 0.9100(5) 0.60086(17)
F9 F 0.69111(18) 0.0242(2) 0.64123(8)
F10 F 0.7335(2) -0.0997(2) 0.71433(9)
F11 F 0.56293(19) -0.0388(3) 0.68211(9)
F12 F 0.63940(19) -0.1899(2) 0.63876(9)
B3 B 0.6571(3) -0.0783(4) 0.67004(15)
loop_
_geom_bond_atom_site_label_1
_geom_bond_atom_site_label_2
_geom_bond_site_symmetry_1
_geom_bond_site_symmetry_2
C1 C2 1_555 1_555
C2 S2 1_555 1_555
C3 C4 1_555 1_555
C4 S5 1_555 1_555
C5 C6 1_555 1_555
C6 S6 1_555 1_555
C7 H1 1_555 1_555
H2 C7 1_555 1_555
C8 C7 1_555 1_555
H3 C8 1_555 1_555
H4 C8 1_555 1_555
C9 C8 1_555 1_555
C10 H5 1_555 1_555
H6 C10 1_555 1_555
C11 C10 1_555 1_555
H7 C11 1_555 1_555
H8 C11 1_555 1_555
C12 C11 1_555 1_555
C13 H9 1_555 1_555
H10 C13 1_555 1_555
C14 C13 1_555 1_555
H11 C14 1_555 1_555
H12 C14 1_555 1_555
C15 C14 1_555 1_555
C16 H13 1_555 1_555
H14 C16 1_555 1_555
C17 C16 1_555 1_555
H15 C17 1_555 1_555
H16 C17 1_555 1_555
C18 C17 1_555 1_555
N1 C9 1_555 1_555
N2 C12 1_555 1_555
N3 C15 1_555 1_555
N4 C18 1_555 1_555
O1 Co2 1_555 1_555
O2 Co2 1_555 1_555
F1 B1 1_555 1_555
F2 B1 1_555 1_555
F3 B1 1_555 1_555
F4 B1 1_555 1_555
F5 B2 1_555 1_555
F6 B2 1_555 1_555
F7 B2 1_555 1_555
F8 B2 1_555 1_555
F9 B3 1_555 1_555
F10 B3 1_555 1_555
F11 B3 1_555 1_555
F12 B3 1_555 1_555
S1 C1 1_555 1_555
S2 C10 1_555 1_555
S3 C1 1_555 1_555
S4 C2 1_555 1_555
S5 C5 1_555 1_555
S6 C4 1_555 1_555
S7 C5 1_555 1_555
S8 C6 1_555 1_555
Co1 N3 1_555 1_555
Co2 N1 1_555 1_555
C1B C2B 1_555 1_555
C2B S2B 1_555 1_555
C3B C4B 1_555 1_555
C4B S5B 1_555 1_555
C5B C6B 1_555 1_555
C6B S6B 1_555 1_555
C7B H1B 1_555 1_555
H2B C7B 1_555 1_555
C8B C7B 1_555 1_555
H3B C8B 1_555 1_555
H4B C8B 1_555 1_555
C9B C8B 1_555 1_555
C10B H5B 1_555 1_555
H6B C10B 1_555 1_555
C11B C10B 1_555 1_555
H7B C11B 1_555 1_555
H8B C11B 1_555 1_555
C12B C11B 1_555 1_555
C13B H9B 1_555 1_555
H10B C13B 1_555 1_555
C14B C13B 1_555 1_555
H11B C14B 1_555 1_555
H12B C14B 1_555 1_555
C15B C14B 1_555 1_555
C16B H13B 1_555 1_555
H14B C16B 1_555 1_555
C17B C16B 1_555 1_555
H15B C17B 1_555 1_555
H16B C17B 1_555 1_555
C18B C17B 1_555 1_555
N1B C9B 1_555 1_555
N1B_2 Co2 1_555 1_555
N2B Co1 1_555 1_555
N2_2 Co1 1_555 1_555
N3B C15B 1_555 1_555
N3B_2 Co1 1_555 1_555
N4B C18B 1_555 1_555
N4B_2 Co1 1_555 1_555
O1B Co2 1_555 1_555
O2B Co2 1_555 1_555
S1B C1B 1_555 1_555
S2B C10B 1_555 1_555
S3B C1B 1_555 1_555
S4B C2B 1_555 1_555
S5B C5B 1_555 1_555
S6B C4B 1_555 1_555
S7B C5B 1_555 1_555
S8B C6B 1_555 1_555
Co1_2 N2 1_555 1_555
Co2_2 N1B 1_555 1_555
C3 S3 1_555 1_555
C3 S4 1_555 1_555
C7 S1 1_555 1_555
C13 S7 1_555 1_555
C16 S8 1_555 1_555
N4 Co1 1_555 1_555
C3B S3B 1_555 1_555
C3B S4B 1_555 1_555
C7B S1B 1_555 1_555
C12B N2B 1_555 1_555
C13B S7B 1_555 1_555
C16B S8B 1_555 1_555
N3B Co1_2 1_555 1_555
N4B Co1_2 1_555 1_555

#END
