
#######################################################################
#
#                 Cambridge Crystallographic Data Centre
#                                CCDC 
#
#######################################################################
#
# If this CIF has been generated from an entry in the Cambridge 
# Structural Database, then it will include bibliographic, chemical, 
# crystal, experimental, refinement or atomic coordinate data resulting 
# from the CCDC's data processing and validation procedures.
#
#######################################################################

data_UHOKOR
_symmetry_cell_setting           monoclinic
_symmetry_space_group_name_H-M   'C 2/m'
_symmetry_Int_Tables_number      12
_space_group_name_Hall           '-C 2y'
loop_
_symmetry_equiv_pos_site_id
_symmetry_equiv_pos_as_xyz
1 x,y,z
2 x,-y,z
3 1/2+x,1/2+y,z
4 1/2+x,1/2-y,z
5 -x,-y,-z
6 -x,y,-z
7 1/2-x,1/2-y,-z
8 1/2-x,1/2+y,-z
_cell_length_a                   11.197(1)
_cell_length_b                   11.956(1)
_cell_length_c                   7.5049(8)
_cell_angle_alpha                90
_cell_angle_beta                 130.645(3)
_cell_angle_gamma                90
_cell_volume                     762.319
loop_
_atom_site_label
_atom_site_type_symbol
_atom_site_fract_x
_atom_site_fract_y
_atom_site_fract_z
Co1 Co 0.7500 0.2500 0.0000
N1 N 0.7571(2) 0.0990(1) 0.1659(3)
N2 N 0.8640(2) 0.1662(1) -0.1027(3)
N3 N 1.0000 0.1679(2) 0.0000
N4 N 0.9676(2) 0.3081(2) 0.3158(3)
N5 N 1.0000 0.3076(2) 0.5000
C1 C 0.7520(4) 0.0000 0.0805(6)
C2 C 0.7673(2) 0.0986(2) 0.3552(4)
C3 C 0.7735(4) 0.0000 0.4569(6)
H1 H 0.740(4) 0.0000 -0.070(7)
H2 H 0.770(3) 0.172(2) 0.411(5)
H3 H 0.792(4) 0.0000 0.622(7)
N1A N 0.7571(2) -0.0990(1) 0.1659(3)
C2A C 0.7673(2) -0.0986(2) 0.3552(4)
H2A H 0.770(3) -0.172(2) 0.411(5)
N2E N 1.1360(2) 0.1662(1) 0.1027(3)
N4E N 1.0324(2) 0.3081(2) 0.6842(3)
N1F N 0.7429(2) 0.4010(1) -0.1659(3)
N2F N 0.6360(2) 0.3338(1) 0.1027(3)
N4F N 0.5324(2) 0.1919(2) -0.3158(3)
Co1A Co 0.7500 -0.2500 0.0000
Co1C Co 1.2500 0.2500 0.0000
Co1C_2 Co 1.2500 0.2500 1.0000
loop_
_geom_bond_atom_site_label_1
_geom_bond_atom_site_label_2
_geom_bond_site_symmetry_1
_geom_bond_site_symmetry_2
Co1 N1 1_555 1_555
N1 C1 1_555 1_555
N2 Co1 1_555 1_555
N3 N2 1_555 1_555
N4 Co1 1_555 1_555
N5 N4 1_555 1_555
C1 H1 1_555 1_555
C2 N1 1_555 1_555
C3 C2 1_555 1_555
H2 C2 1_555 1_555
H3 C3 1_555 1_555
N1A C1 1_555 1_555
C2A C3 1_555 1_555
H2A C2A 1_555 1_555
N2E N3 1_555 1_555
N4E N5 1_555 1_555
N1F Co1 1_555 1_555
N2F Co1 1_555 1_555
N4F Co1 1_555 1_555
Co1A N1A 1_555 1_555
Co1C N2E 1_555 1_555
Co1C_2 N4E 1_555 1_555
N1A C2A 1_555 1_555

#END
