
#######################################################################
#
#                 Cambridge Crystallographic Data Centre
#                                CCDC 
#
#######################################################################
#
# If this CIF has been generated from an entry in the Cambridge 
# Structural Database, then it will include bibliographic, chemical, 
# crystal, experimental, refinement or atomic coordinate data resulting 
# from the CCDC's data processing and validation procedures.
#
#######################################################################

data_UHOMIP
_symmetry_cell_setting           monoclinic
_symmetry_space_group_name_H-M   'P 21'
_symmetry_Int_Tables_number      4
_space_group_name_Hall           'P 2yb'
loop_
_symmetry_equiv_pos_site_id
_symmetry_equiv_pos_as_xyz
1 x,y,z
2 -x,1/2+y,-z
_cell_length_a                   5.2954(6)
_cell_length_b                   21.7207(18)
_cell_length_c                   18.731(2)
_cell_angle_alpha                90
_cell_angle_beta                 97.633(8)
_cell_angle_gamma                90
_cell_volume                     2135.35
loop_
_atom_site_label
_atom_site_type_symbol
_atom_site_fract_x
_atom_site_fract_y
_atom_site_fract_z
Zn1 Zn -0.35512(18) -0.16013(4) -0.74061(5)
Zn2 Zn -0.50711(17) -0.07980(4) -1.23230(5)
C1 C -0.321(2) -0.0283(5) -0.7880(6)
H1 H -0.4679 -0.0383 -0.8186
C2 C -0.244(2) 0.0309(4) -0.7859(6)
H2 H -0.3377 0.0604 -0.8141
C3 C -0.0164(19) 0.0481(4) -0.7402(5)
C4 C 0.1053(17) -0.0006(4) -0.7001(5)
H3 H 0.2536 0.0071 -0.6689
C5 C 0.0104(18) -0.0595(4) -0.7060(5)
H4 H 0.0982 -0.0904 -0.6787
C6 C 0.087(2) 0.1103(5) -0.7312(6)
H5 H 0.2387 0.1155 -0.7007
C7 C -0.018(2) 0.1589(5) -0.7628(5)
H6 H -0.1757 0.1542 -0.7908
C8 C 0.097(2) 0.2218(4) -0.7574(5)
C9 C -0.0171(18) 0.2695(4) -0.8008(5)
H7 H -0.1694 0.2634 -0.8310
C10 C 0.1033(16) 0.3252(4) -0.7974(4)
H8 H 0.0259 0.3562 -0.8268
C11 C 0.4293(17) 0.2936(4) -0.7157(5)
H9 H 0.5841 0.3011 -0.6874
C12 C 0.3221(19) 0.2350(4) -0.7138(5)
H10 H 0.4018 0.2050 -0.6833
C13 C -0.6726(15) -0.1515(4) -0.8655(4)
C14 C -0.8890(13) -0.1241(4) -0.9153(4)
H11 H -0.9100 -0.0814 -0.9019
H12 H -1.0447 -0.1458 -0.9090
C15 C -0.8512(13) -0.1268(3) -0.9949(4)
H13 H -1.0038 -0.1114 -1.0238
H14 H -0.8292 -0.1694 -1.0082
C16 C -0.6203(12) -0.0893(3) -1.0127(4)
H15 H -0.4717 -0.1024 -0.9794
C17 C -0.5668(15) -0.1044(4) -1.0891(4)
C18 C -0.4671(19) 0.0159(4) -0.9965(4)
C19 C -0.5340(18) 0.0814(4) -0.9852(5)
C20 C -0.388(2) 0.1263(5) -1.0118(5)
H16 H -0.2538 0.1153 -1.0366
C21 C -0.441(3) 0.1893(5) -1.0012(7)
H17 H -0.3464 0.2195 -1.0206
C22 C -0.625(3) 0.2051(6) -0.9641(7)
H18 H -0.6529 0.2466 -0.9556
C23 C -0.771(2) 0.1627(6) -0.9384(7)
H19 H -0.9048 0.1748 -0.9142
C24 C -0.724(2) 0.1006(5) -0.9477(6)
H20 H -0.8235 0.0715 -0.9280
C25 C -0.0689(16) -0.2561(4) -0.8150(5)
H21 H -0.1836 -0.2458 -0.8552
C26 C 0.1186(15) -0.2983(4) -0.8235(5)
H22 H 0.1232 -0.3167 -0.8681
C27 C 0.3014(15) -0.3139(3) -0.7658(5)
C28 C 0.2745(16) -0.2859(4) -0.7011(5)
H23 H 0.3902 -0.2943 -0.6605
C29 C 0.0738(16) -0.2448(4) -0.6966(5)
H24 H 0.0578 -0.2277 -0.6520
C30 C 0.4975(16) -0.3575(4) -0.7765(5)
H25 H 0.4983 -0.3718 -0.8233
C31 C 0.6754(18) -0.3793(4) -0.7275(5)
H26 H 0.6711 -0.3656 -0.6807
C32 C 0.8835(15) -0.4234(4) -0.7378(5)
C33 C 1.0595(16) -0.4413(4) -0.6802(4)
H27 H 1.0517 -0.4246 -0.6348
C34 C 1.2468(15) -0.4836(4) -0.6899(4)
H28 H 1.3628 -0.4951 -0.6504
C35 C 1.0998(16) -0.4907(4) -0.8108(5)
H29 H 1.1138 -0.5072 -0.8559
C36 C 0.9106(16) -0.4489(4) -0.8043(5)
H30 H 0.7994 -0.4374 -0.8448
C37 C -0.4104(15) -0.1350(4) -0.5965(4)
C38 C -0.3658(13) -0.1494(4) -0.5152(4)
H31 H -0.5124 -0.1346 -0.4932
C39 C -0.1245(14) -0.1144(3) -0.4812(4)
H32 H 0.0214 -0.1297 -0.5022
H33 H -0.1441 -0.0711 -0.4931
C40 C -0.0732(15) -0.1210(4) -0.4013(4)
H34 H -0.0552 -0.1646 -0.3901
H35 H -0.2217 -0.1064 -0.3811
C41 C 0.1587(14) -0.0880(4) -0.3632(4)
C42 C -0.5372(19) -0.2524(4) -0.4956(5)
C43 C -0.4933(19) -0.3203(4) -0.4871(5)
C44 C -0.3055(19) -0.3512(4) -0.5171(5)
H36 H -0.1896 -0.3293 -0.5404
C45 C -0.289(2) -0.4142(5) -0.5128(6)
H37 H -0.1645 -0.4343 -0.5347
C46 C -0.450(2) -0.4486(5) -0.4771(6)
H38 H -0.4412 -0.4913 -0.4756
C47 C -0.626(2) -0.4164(6) -0.4438(6)
H39 H -0.7315 -0.4377 -0.4166
C48 C -0.6487(18) -0.3534(5) -0.4499(5)
H40 H -0.7732 -0.3332 -0.4281
N1 N -0.1980(13) -0.0741(3) -0.7483(4)
N2 N 0.3192(12) 0.3396(4) -0.7566(4)
N3 N -0.6592(13) -0.0247(3) -1.0003(4)
H41 H -0.8094 -0.0119 -0.9951
N4 N -0.0962(12) -0.2289(3) -0.7526(4)
N5 N 1.2665(13) -0.5086(3) -0.7537(4)
N6 N -0.3343(13) -0.2158(3) -0.5011(3)
H42 H -0.1841 -0.2316 -0.4962
O1 O -0.6812(10) -0.1437(3) -0.7977(3)
O2 O -0.5021(11) -0.1795(3) -0.8877(3)
O3 O -0.5801(11) -0.0611(3) -1.1349(3)
O4 O -0.5205(12) -0.1584(3) -1.1029(3)
O5 O -0.2456(11) -0.0001(3) -1.0013(3)
O6 O -0.3585(10) -0.1774(3) -0.6387(3)
O7 O -0.4912(11) -0.0838(3) -0.6132(3)
O8 O 0.1850(10) -0.0927(3) -0.2947(3)
O9 O 0.3062(12) -0.0616(3) -0.3967(3)
O10 O -0.7551(12) -0.2317(3) -0.4987(4)
Zn2_2 Zn 0.49289(17) -0.07980(4) -0.23230(5)
Zn2A Zn 0.50711(17) 0.42020(4) -0.76770(5)
Zn2A_2 Zn 1.50711(17) -0.57980(4) -0.76770(5)
N2A N -0.3192(12) -0.1604(4) -1.2434(4)
N5A N -0.2665(13) -0.0086(3) -1.2463(4)
O8_2 O -0.8150(10) -0.0927(3) -1.2947(3)
loop_
_geom_bond_atom_site_label_1
_geom_bond_atom_site_label_2
_geom_bond_site_symmetry_1
_geom_bond_site_symmetry_2
Zn1 N1 1_555 1_555
Zn2 O3 1_555 1_555
C1 H1 1_555 1_555
C2 C1 1_555 1_555
H2 C2 1_555 1_555
C3 C2 1_555 1_555
C4 C3 1_555 1_555
H3 C4 1_555 1_555
C5 C4 1_555 1_555
H4 C5 1_555 1_555
C6 C3 1_555 1_555
H5 C6 1_555 1_555
C7 C6 1_555 1_555
H6 C7 1_555 1_555
C8 C7 1_555 1_555
C9 C8 1_555 1_555
H7 C9 1_555 1_555
C10 C9 1_555 1_555
H8 C10 1_555 1_555
C11 H9 1_555 1_555
C12 C8 1_555 1_555
H10 C12 1_555 1_555
C13 C14 1_555 1_555
C14 H11 1_555 1_555
H12 C14 1_555 1_555
C15 C14 1_555 1_555
H13 C15 1_555 1_555
H14 C15 1_555 1_555
C16 C15 1_555 1_555
H15 C16 1_555 1_555
C17 C16 1_555 1_555
C18 C19 1_555 1_555
C19 C20 1_555 1_555
C20 H16 1_555 1_555
C21 C20 1_555 1_555
H17 C21 1_555 1_555
C22 C21 1_555 1_555
H18 C22 1_555 1_555
C23 C22 1_555 1_555
H19 C23 1_555 1_555
C24 C19 1_555 1_555
H20 C24 1_555 1_555
C25 H21 1_555 1_555
C26 C25 1_555 1_555
H22 C26 1_555 1_555
C27 C26 1_555 1_555
C28 C27 1_555 1_555
H23 C28 1_555 1_555
C29 C28 1_555 1_555
H24 C29 1_555 1_555
C30 C27 1_555 1_555
H25 C30 1_555 1_555
C31 C30 1_555 1_555
H26 C31 1_555 1_555
C32 C31 1_555 1_555
C33 C32 1_555 1_555
H27 C33 1_555 1_555
C34 C33 1_555 1_555
H28 C34 1_555 1_555
C35 H29 1_555 1_555
C36 C32 1_555 1_555
H30 C36 1_555 1_555
C37 C38 1_555 1_555
C38 H31 1_555 1_555
C39 C38 1_555 1_555
H32 C39 1_555 1_555
H33 C39 1_555 1_555
C40 C39 1_555 1_555
H34 C40 1_555 1_555
H35 C40 1_555 1_555
C41 C40 1_555 1_555
C42 C43 1_555 1_555
C43 C44 1_555 1_555
C44 H36 1_555 1_555
C45 C44 1_555 1_555
H37 C45 1_555 1_555
C46 C45 1_555 1_555
H38 C46 1_555 1_555
C47 C46 1_555 1_555
H39 C47 1_555 1_555
C48 C43 1_555 1_555
H40 C48 1_555 1_555
N1 C1 1_555 1_555
N2 C10 1_555 1_555
N3 C16 1_555 1_555
H41 N3 1_555 1_555
N4 Zn1 1_555 1_555
N5 C34 1_555 1_555
N6 C38 1_555 1_555
H42 N6 1_555 1_555
O1 Zn1 1_555 1_555
O2 C13 1_555 1_555
O3 C17 1_555 1_555
O4 C17 1_555 1_555
O5 C18 1_555 1_555
O6 Zn1 1_555 1_555
O7 C37 1_555 1_555
O8 C41 1_555 1_555
O9 C41 1_555 1_555
O10 C42 1_555 1_555
Zn2_2 O8 1_555 1_555
Zn2A N2 1_555 1_555
Zn2A_2 N5 1_555 1_555
N2A Zn2 1_555 1_555
N5A Zn2 1_555 1_555
O8_2 Zn2 1_555 1_555
C5 N1 1_555 1_555
C11 C12 1_555 1_555
C11 N2 1_555 1_555
C13 O1 1_555 1_555
C18 N3 1_555 1_555
C23 C24 1_555 1_555
C25 N4 1_555 1_555
C29 N4 1_555 1_555
C35 C36 1_555 1_555
C35 N5 1_555 1_555
C37 O6 1_555 1_555
C42 N6 1_555 1_555
C47 C48 1_555 1_555

#END
