
#######################################################################
#
#                 Cambridge Crystallographic Data Centre
#                                CCDC 
#
#######################################################################
#
# If this CIF has been generated from an entry in the Cambridge 
# Structural Database, then it will include bibliographic, chemical, 
# crystal, experimental, refinement or atomic coordinate data resulting 
# from the CCDC's data processing and validation procedures.
#
#######################################################################

data_UHUTIB
_symmetry_cell_setting           orthorhombic
_symmetry_space_group_name_H-M   'P b c a'
_symmetry_Int_Tables_number      61
_space_group_name_Hall           '-P 2ac 2ab'
loop_
_symmetry_equiv_pos_site_id
_symmetry_equiv_pos_as_xyz
1 x,y,z
2 1/2-x,-y,1/2+z
3 -x,1/2+y,1/2-z
4 1/2+x,1/2-y,-z
5 -x,-y,-z
6 1/2+x,y,1/2-z
7 x,1/2-y,1/2+z
8 1/2-x,1/2+y,z
_cell_length_a                   8.950(3)
_cell_length_b                   8.558(3)
_cell_length_c                   22.461(7)
_cell_angle_alpha                90
_cell_angle_beta                 90
_cell_angle_gamma                90
_cell_volume                     1720.38
loop_
_atom_site_label
_atom_site_type_symbol
_atom_site_fract_x
_atom_site_fract_y
_atom_site_fract_z
Ni1 Ni 0.62600(5) 0.37451(5) 0.49221(2)
P1 P 0.37409(8) 0.29530(10) 0.58596(4)
O1 O 0.6389(3) 0.1527(3) 0.51977(12)
O2 O 0.7387(3) -0.0571(3) 0.56071(11)
O3 O 0.4344(2) 0.4047(3) 0.53885(10)
O4 O 0.3016(2) 0.1465(3) 0.56422(11)
O5 O 0.2551(3) 0.3903(3) 0.62298(12)
H1 H 0.2308 0.4688 0.6044
O6 O 0.4936(3) 0.2865(3) 0.42116(11)
H2 H 0.4112 0.2355 0.4292
H3 H 0.5517 0.2315 0.3970
C1 C 0.6693(3) 0.0707(4) 0.56410(15)
C2 C 0.6276(4) 0.1261(4) 0.62610(16)
C3 C 0.7154(4) 0.0701(5) 0.67195(17)
H4 H 0.7898 -0.0025 0.6636
C4 C 0.6950(5) 0.1197(5) 0.73007(18)
H5 H 0.7552 0.0806 0.7604
C5 C 0.5847(5) 0.2277(5) 0.74281(17)
H6 H 0.5718 0.2635 0.7816
C6 C 0.4938(4) 0.2823(4) 0.69764(16)
H7 H 0.4184 0.3533 0.7066
C7 C 0.5127(3) 0.2331(4) 0.63896(15)
Ni1G Ni 0.87400(5) -0.12549(5) 0.49221(2)
Ni1D Ni 0.37400(5) 0.62549(5) 0.50779(2)
Ni1C Ni 0.12600(5) 0.12549(5) 0.50779(2)
O2G O 0.7613(3) 0.4429(3) 0.56071(11)
O3D O 0.5656(2) 0.5953(3) 0.46115(10)
O4C O 0.8016(2) 0.3535(3) 0.43578(11)
loop_
_geom_bond_atom_site_label_1
_geom_bond_atom_site_label_2
_geom_bond_site_symmetry_1
_geom_bond_site_symmetry_2
Ni1 O1 1_555 1_555
P1 O3 1_555 1_555
O1 C1 1_555 1_555
O2 C1 1_555 1_555
O3 Ni1 1_555 1_555
O4 P1 1_555 1_555
O5 P1 1_555 1_555
H1 O5 1_555 1_555
O6 Ni1 1_555 1_555
H2 O6 1_555 1_555
H3 O6 1_555 1_555
C1 C2 1_555 1_555
C2 C3 1_555 1_555
C3 H4 1_555 1_555
C4 C3 1_555 1_555
H5 C4 1_555 1_555
C5 C4 1_555 1_555
H6 C5 1_555 1_555
C6 C5 1_555 1_555
H7 C6 1_555 1_555
C7 P1 1_555 1_555
Ni1G O2 1_555 1_555
Ni1D O3 1_555 1_555
Ni1C O4 1_555 1_555
O2G Ni1 1_555 1_555
O3D Ni1 1_555 1_555
O4C Ni1 1_555 1_555
C2 C7 1_555 1_555
C6 C7 1_555 1_555
Ni1D O3D 1_555 1_555

#END
