
#######################################################################
#
#                 Cambridge Crystallographic Data Centre
#                                CCDC 
#
#######################################################################
#
# If this CIF has been generated from an entry in the Cambridge 
# Structural Database, then it will include bibliographic, chemical, 
# crystal, experimental, refinement or atomic coordinate data resulting 
# from the CCDC's data processing and validation procedures.
#
#######################################################################

data_UHUVOI
_symmetry_cell_setting           orthorhombic
_symmetry_space_group_name_H-M   'P b c a'
_symmetry_Int_Tables_number      61
_space_group_name_Hall           '-P 2ac 2ab'
loop_
_symmetry_equiv_pos_site_id
_symmetry_equiv_pos_as_xyz
1 x,y,z
2 1/2+x,y,1/2-z
3 x,1/2-y,1/2+z
4 1/2-x,1/2+y,z
5 -x,-y,-z
6 1/2-x,-y,1/2+z
7 -x,1/2+y,1/2-z
8 1/2+x,1/2-y,-z
_cell_length_a                   9.705(5)
_cell_length_b                   18.277(10)
_cell_length_c                   25.653(15)
_cell_angle_alpha                90
_cell_angle_beta                 90
_cell_angle_gamma                90
_cell_volume                     4550.29
loop_
_atom_site_label
_atom_site_type_symbol
_atom_site_fract_x
_atom_site_fract_y
_atom_site_fract_z
Ag1 Ag 0.02184(8) 0.10403(3) 0.74412(2)
S1 S -0.18493(17) 0.00725(7) 0.73026(6)
S2 S -0.21502(16) -0.29381(7) 0.73692(6)
N1 N 0.0077(5) 0.0906(3) 0.6553(2)
N2 N -0.0145(4) -0.3794(2) 0.6668(2)
C1 C -0.0894(6) 0.0479(3) 0.6318(2)
C2 C 0.0909(7) 0.1298(4) 0.6259(3)
H1 H 0.1562 0.1591 0.6422
C3 C 0.0859(9) 0.1297(4) 0.5714(3)
H2 H 0.1471 0.1580 0.5521
C4 C -0.0098(8) 0.0873(4) 0.5472(3)
H3 H -0.0150 0.0866 0.5110
C5 C -0.0998(7) 0.0451(3) 0.5766(2)
C6 C -0.2024(8) 0.0017(4) 0.5530(3)
H4 H -0.2079 -0.0008 0.5168
C7 C -0.2922(8) -0.0359(4) 0.5823(3)
H5 H -0.3592 -0.0644 0.5662
C8 C -0.2864(7) -0.0329(3) 0.6364(3)
H6 H -0.3515 -0.0581 0.6560
C9 C -0.1853(6) 0.0070(3) 0.6613(2)
C10 C -0.0903(7) -0.0771(3) 0.7443(2)
H7 H -0.0066 -0.0784 0.7237
H8 H -0.0645 -0.0779 0.7809
C11 C -0.1772(7) -0.1440(3) 0.7320(2)
H9 H -0.2664 -0.1391 0.7487
H10 H -0.1919 -0.1468 0.6947
C12 C -0.1088(6) -0.2132(3) 0.7505(2)
H11 H -0.0922 -0.2098 0.7877
H12 H -0.0204 -0.2185 0.7332
C13 C -0.2087(5) -0.2961(3) 0.6679(2)
C14 C -0.3050(6) -0.2565(3) 0.6407(3)
H13 H -0.3722 -0.2308 0.6589
C15 C -0.3041(7) -0.2541(4) 0.5862(3)
H14 H -0.3688 -0.2258 0.5687
C16 C -0.2093(7) -0.2927(4) 0.5588(3)
H15 H -0.2092 -0.2909 0.5226
C17 C -0.1100(6) -0.3361(3) 0.5853(2)
C18 C -0.0133(7) -0.3793(4) 0.5592(3)
H16 H -0.0124 -0.3796 0.5229
C19 C 0.0779(7) -0.4201(4) 0.5851(3)
H17 H 0.1421 -0.4488 0.5676
C20 C 0.0739(7) -0.4184(3) 0.6393(3)
H18 H 0.1378 -0.4466 0.6573
C21 C -0.1086(5) -0.3380(3) 0.6406(2)
S2F S 0.21502(16) 0.20619(7) 0.76308(6)
N2F N 0.0145(4) 0.1206(2) 0.8332(2)
Ag1F Ag -0.02184(8) -0.39597(3) 0.75588(2)
S3 S -0.2852(2) 0.38238(12) 0.89649(8)
F1 F -0.0260(6) 0.3525(5) 0.9019(4)
F2 F -0.1490(8) 0.2749(4) 0.9349(2)
F3 F -0.1361(7) 0.2833(4) 0.8526(2)
O1 O -0.3957(7) 0.3445(5) 0.8813(4)
O2 O -0.2845(8) 0.4148(4) 0.9455(2)
O3 O -0.2411(10) 0.4317(4) 0.8535(3)
C22 C -0.1409(9) 0.3233(5) 0.8957(3)
loop_
_geom_bond_atom_site_label_1
_geom_bond_atom_site_label_2
_geom_bond_site_symmetry_1
_geom_bond_site_symmetry_2
Ag1 S1 1_555 1_555
S1 C9 1_555 1_555
S2 C12 1_555 1_555
S3 O1 1_555 1_555
F1 C22 1_555 1_555
F2 C22 1_555 1_555
F3 C22 1_555 1_555
O2 S3 1_555 1_555
O3 S3 1_555 1_555
N1 Ag1 1_555 1_555
N2 C20 1_555 1_555
C1 N1 1_555 1_555
C2 N1 1_555 1_555
H1 C2 1_555 1_555
C3 C2 1_555 1_555
H2 C3 1_555 1_555
C4 C3 1_555 1_555
H3 C4 1_555 1_555
C5 C1 1_555 1_555
C6 C5 1_555 1_555
H4 C6 1_555 1_555
C7 C6 1_555 1_555
H5 C7 1_555 1_555
C8 C7 1_555 1_555
H6 C8 1_555 1_555
C9 C1 1_555 1_555
C10 S1 1_555 1_555
H7 C10 1_555 1_555
H8 C10 1_555 1_555
C11 C10 1_555 1_555
H9 C11 1_555 1_555
H10 C11 1_555 1_555
C12 C11 1_555 1_555
H11 C12 1_555 1_555
H12 C12 1_555 1_555
C13 S2 1_555 1_555
C14 C13 1_555 1_555
H13 C14 1_555 1_555
C15 C14 1_555 1_555
H14 C15 1_555 1_555
C16 C15 1_555 1_555
H15 C16 1_555 1_555
C17 C16 1_555 1_555
C18 C17 1_555 1_555
H16 C18 1_555 1_555
C19 C18 1_555 1_555
H17 C19 1_555 1_555
C20 C19 1_555 1_555
H18 C20 1_555 1_555
C21 N2 1_555 1_555
C22 S3 1_555 1_555
S2F Ag1 1_555 1_555
N2F Ag1 1_555 1_555
Ag1F S2 1_555 1_555
N2 Ag1F 1_555 1_555
C4 C5 1_555 1_555
C8 C9 1_555 1_555
C13 C21 1_555 1_555
C17 C21 1_555 1_555

#END
