
#######################################################################
#
#                 Cambridge Crystallographic Data Centre
#                                CCDC 
#
#######################################################################
#
# If this CIF has been generated from an entry in the Cambridge 
# Structural Database, then it will include bibliographic, chemical, 
# crystal, experimental, refinement or atomic coordinate data resulting 
# from the CCDC's data processing and validation procedures.
#
#######################################################################

data_UHUXOM
_symmetry_cell_setting           monoclinic
_symmetry_space_group_name_H-M   'C 2/c'
_symmetry_Int_Tables_number      15
_space_group_name_Hall           '-C 2yn'
loop_
_symmetry_equiv_pos_site_id
_symmetry_equiv_pos_as_xyz
1 x,y,z
2 -x,y,1/2-z
3 1/2+x,1/2+y,z
4 1/2-x,1/2+y,1/2-z
5 -x,-y,-z
6 x,-y,1/2+z
7 1/2-x,1/2-y,-z
8 1/2+x,1/2-y,1/2+z
_cell_length_a                   19.3620(8)
_cell_length_b                   15.4927(8)
_cell_length_c                   6.2923(3)
_cell_angle_alpha                90
_cell_angle_beta                 103.085(4)
_cell_angle_gamma                90
_cell_volume                     1838.49
loop_
_atom_site_label
_atom_site_type_symbol
_atom_site_fract_x
_atom_site_fract_y
_atom_site_fract_z
Na1 Na 0.5000 0.56177(5) -0.2500
O1 O 0.46407(5) 0.58060(6) 0.08749(15)
O2 O 0.11222(6) 0.87108(9) -0.59264(19)
O3 O 0.16628(6) 0.89838(10) -0.86267(19)
H1 H 0.1230(9) 0.9044(14) -0.944(3)
O4 O 0.43990(5) 0.89949(7) -0.11781(17)
C1 C 0.5000 0.62010(12) 0.2500
C2 C 0.5000 0.71700(12) 0.2500
C3 C 0.46680(6) 0.76151(9) 0.0629(2)
H2 H 0.4450 0.7317 -0.0627
C4 C 0.46675(7) 0.85079(9) 0.0665(2)
C5 C 0.5000 0.89637(13) 0.2500
H3 H 0.5000 0.9564 0.2500
C6 C 0.37251(7) 0.88586(9) -0.2441(2)
C7 C 0.31714(8) 0.85098(10) -0.1666(2)
H4 H 0.3249 0.8289 -0.0257
C8 C 0.24975(8) 0.84954(11) -0.3031(2)
H5 H 0.2119 0.8270 -0.2527
C9 C 0.23868(7) 0.88145(9) -0.5134(2)
C10 C 0.29521(8) 0.91505(10) -0.5889(2)
H6 H 0.2880 0.9361 -0.7307
C11 C 0.36212(8) 0.91723(10) -0.4535(2)
H7 H 0.4000 0.9398 -0.5036
C12 C 0.16599(8) 0.88290(10) -0.6568(2)
O1A O 0.53593(5) 0.58060(6) 0.41251(15)
O2A O 0.88778(6) 0.87108(9) 1.09264(19)
O3A O 0.83372(6) 0.89838(10) 1.36267(19)
H1A H 0.8770(9) 0.9044(14) 1.444(3)
O4A O 0.56010(5) 0.89949(7) 0.61781(17)
C3A C 0.53320(6) 0.76151(9) 0.4371(2)
H2A H 0.5550 0.7317 0.5627
C4A C 0.53325(7) 0.85079(9) 0.4335(2)
C6A C 0.62749(7) 0.88586(9) 0.7441(2)
C7A C 0.68286(8) 0.85098(10) 0.6666(2)
H4A H 0.6751 0.8289 0.5257
C8A C 0.75025(8) 0.84954(11) 0.8031(2)
H5A H 0.7881 0.8270 0.7527
C9A C 0.76132(7) 0.88145(9) 1.0134(2)
C10A C 0.70479(8) 0.91505(10) 1.0889(2)
H6A H 0.7120 0.9361 1.2307
C11A C 0.63788(8) 0.91723(10) 0.9535(2)
H7A H 0.6000 0.9398 1.0036
C12A C 0.83401(8) 0.88290(10) 1.1568(2)
Na1_2 Na 0.5000 0.56177(5) 0.7500
Na1D Na 0.5000 0.43823(5) 0.2500
Na1F Na 0.0000 0.93823(5) -0.7500
Na1F_2 Na 1.0000 0.93823(5) 1.2500
O1A_2 O 0.53593(5) 0.58060(6) -0.58749(15)
O1D O 0.53593(5) 0.41940(6) -0.08749(15)
O1E O 0.46407(5) 0.41940(6) -0.41251(15)
O2F O 0.38778(6) 0.62892(9) -0.40736(19)
O2G O 0.61222(6) 0.62892(9) -0.09264(19)
loop_
_geom_bond_atom_site_label_1
_geom_bond_atom_site_label_2
_geom_bond_site_symmetry_1
_geom_bond_site_symmetry_2
Na1 O1 1_555 1_555
O1 C1 1_555 1_555
O2 C12 1_555 1_555
O3 H1 1_555 1_555
O4 C4 1_555 1_555
C1 C2 1_555 1_555
C2 C3 1_555 1_555
C3 H2 1_555 1_555
C4 C3 1_555 1_555
C5 C4 1_555 1_555
H3 C5 1_555 1_555
C6 O4 1_555 1_555
C7 C6 1_555 1_555
H4 C7 1_555 1_555
C8 C7 1_555 1_555
H5 C8 1_555 1_555
C9 C8 1_555 1_555
C10 C9 1_555 1_555
H6 C10 1_555 1_555
C11 C6 1_555 1_555
H7 C11 1_555 1_555
C12 O3 1_555 1_555
O1A C1 1_555 1_555
O2A C12A 1_555 1_555
O3A H1A 1_555 1_555
O4A C4A 1_555 1_555
C3A C2 1_555 1_555
H2A C3A 1_555 1_555
C4A C5 1_555 1_555
C6A O4A 1_555 1_555
C7A C6A 1_555 1_555
H4A C7A 1_555 1_555
C8A C7A 1_555 1_555
H5A C8A 1_555 1_555
C9A C8A 1_555 1_555
C10A C9A 1_555 1_555
H6A C10A 1_555 1_555
C11A C6A 1_555 1_555
H7A C11A 1_555 1_555
C12A O3A 1_555 1_555
Na1_2 O1A 1_555 1_555
Na1D O1 1_555 1_555
Na1F O2 1_555 1_555
Na1F_2 O2A 1_555 1_555
O1A_2 Na1 1_555 1_555
O1D Na1 1_555 1_555
O1E Na1 1_555 1_555
O2F Na1 1_555 1_555
O2G Na1 1_555 1_555
C9 C12 1_555 1_555
C10 C11 1_555 1_555
O1A Na1D 1_555 1_555
C3A C4A 1_555 1_555
C9A C12A 1_555 1_555
C10A C11A 1_555 1_555
Na1D O1D 1_555 1_555

#END
