
#######################################################################
#
#                 Cambridge Crystallographic Data Centre
#                                CCDC 
#
#######################################################################
#
# If this CIF has been generated from an entry in the Cambridge 
# Structural Database, then it will include bibliographic, chemical, 
# crystal, experimental, refinement or atomic coordinate data resulting 
# from the CCDC's data processing and validation procedures.
#
#######################################################################

data_UJACEN
_symmetry_cell_setting           triclinic
_symmetry_space_group_name_H-M   'P -1'
_symmetry_Int_Tables_number      2
_space_group_name_Hall           '-P 1'
loop_
_symmetry_equiv_pos_site_id
_symmetry_equiv_pos_as_xyz
1 x,y,z
2 -x,-y,-z
_cell_length_a                   10.5952(3)
_cell_length_b                   12.3357(3)
_cell_length_c                   12.9904(4)
_cell_angle_alpha                103.4941(15)
_cell_angle_beta                 113.9738(16)
_cell_angle_gamma                97.7399(14)
_cell_volume                     1457.35
loop_
_atom_site_label
_atom_site_type_symbol
_atom_site_fract_x
_atom_site_fract_y
_atom_site_fract_z
Mn1 Mn 0.03525(5) 0.14806(4) 0.05097(4)
Mn2 Mn -0.02477(5) 0.35405(4) 0.44335(4)
N1 N 0.2393(3) 0.1743(2) 0.0323(2)
N2 N 0.0300(3) 0.2837(2) -0.0506(2)
N3 N -0.2298(3) 0.3032(2) 0.4569(2)
N4 N 0.0034(3) 0.2172(2) 0.5459(2)
N5 N -0.1543(3) 0.1529(3) 0.0806(2)
N6 N -0.1495(3) 0.1870(2) 0.1747(3)
N7 N -0.1507(3) 0.2187(3) 0.2656(3)
N8 N 0.1679(3) 0.2727(3) 0.2325(3)
N9 N 0.1606(3) 0.3204(2) 0.3182(3)
N10 N 0.1601(3) 0.3714(3) 0.4057(3)
N11 N 0.0820(3) -0.0020(2) 0.1155(2)
N12 N 0.1363(3) -0.0017(2) 0.2164(3)
N13 N 0.1887(4) -0.0012(3) 0.3128(3)
N14 N -0.0916(3) 0.5024(2) 0.3860(2)
N15 N -0.1669(3) 0.5036(2) 0.2891(3)
N16 N -0.2412(4) 0.5044(3) 0.1955(3)
C1 C 0.3476(4) 0.1278(3) 0.0781(3)
H1 H 0.3346 0.0707 0.1113
C2 C 0.4775(4) 0.1598(4) 0.0789(3)
H2 H 0.5502 0.1255 0.1127
C3 C 0.4984(4) 0.2423(4) 0.0296(4)
H3 H 0.5857 0.2658 0.0298
C4 C 0.3868(4) 0.2906(3) -0.0211(3)
H4 H 0.3973 0.3458 -0.0571
C5 C 0.2609(3) 0.2555(3) -0.0171(3)
C6 C 0.1418(4) 0.3080(3) -0.0632(3)
H5 H 0.1487 0.3607 -0.1027
C7 C -0.0824(3) 0.3378(3) -0.1007(3)
C8 C -0.1062(4) 0.3688(3) -0.2018(3)
H6 H -0.0486 0.3549 -0.2390
C9 C -0.2157(4) 0.4201(3) -0.2472(3)
H7 H -0.2308 0.4405 -0.3150
C10 C -0.3022(4) 0.4417(3) -0.1944(3)
C11 C -0.2763(4) 0.4121(3) -0.0927(3)
H8 H -0.3329 0.4270 -0.0547
C12 C -0.1666(4) 0.3606(3) -0.0467(3)
H9 H -0.1504 0.3413 0.0218
C13 C -0.4233(4) 0.4971(3) -0.2471(3)
H10 H -0.4233 0.5128 -0.3161
H11 H -0.4098 0.5679 -0.1892
H12 H -0.5130 0.4454 -0.2693
C14 C -0.3451(4) 0.3420(3) 0.4148(3)
H13 H -0.3388 0.4053 0.3881
C15 C -0.4739(4) 0.2929(3) 0.4086(3)
H14 H -0.5525 0.3224 0.3777
C16 C -0.4850(4) 0.2014(4) 0.4480(3)
H15 H -0.5709 0.1670 0.4446
C17 C -0.3659(4) 0.1603(3) 0.4933(3)
H16 H -0.3703 0.0982 0.5219
C18 C -0.2414(3) 0.2116(3) 0.4959(3)
C19 C -0.1124(4) 0.1721(3) 0.5447(3)
H17 H -0.1150 0.1118 0.5760
C20 C 0.1289(3) 0.1787(3) 0.6012(3)
C21 C 0.1332(4) 0.0906(3) 0.6511(3)
H18 H 0.0502 0.0511 0.6485
C22 C 0.2607(4) 0.0611(3) 0.7050(3)
H19 H 0.2613 0.0023 0.7387
C23 C 0.3845(4) 0.1153(3) 0.7100(3)
C24 C 0.3806(4) 0.2025(3) 0.6612(3)
H20 H 0.4641 0.2415 0.6642
C25 C 0.2543(4) 0.2341(3) 0.6071(3)
H21 H 0.2549 0.2936 0.5745
C26 C 0.5238(4) 0.0834(4) 0.7698(3)
H22 H 0.5059 0.0167 0.7928
H23 H 0.5898 0.1467 0.8390
H24 H 0.5639 0.0667 0.7154
N11A N -0.0820(3) 0.0020(2) -0.1155(2)
N14A N 0.0916(3) 0.4976(2) 0.6140(2)
Mn1A Mn -0.03525(5) -0.14806(4) -0.05097(4)
Mn2A Mn 0.02477(5) 0.64595(4) 0.55665(4)
loop_
_geom_bond_atom_site_label_1
_geom_bond_atom_site_label_2
_geom_bond_site_symmetry_1
_geom_bond_site_symmetry_2
Mn1 N1 1_555 1_555
Mn2 N3 1_555 1_555
N1 C1 1_555 1_555
N2 Mn1 1_555 1_555
N3 C14 1_555 1_555
N4 Mn2 1_555 1_555
N5 Mn1 1_555 1_555
N6 N5 1_555 1_555
N7 Mn2 1_555 1_555
N8 Mn1 1_555 1_555
N9 N8 1_555 1_555
N10 Mn2 1_555 1_555
N11 Mn1 1_555 1_555
N12 N11 1_555 1_555
N13 N12 1_555 1_555
N14 Mn2 1_555 1_555
N15 N14 1_555 1_555
N16 N15 1_555 1_555
C1 H1 1_555 1_555
C2 C1 1_555 1_555
H2 C2 1_555 1_555
C3 C2 1_555 1_555
H3 C3 1_555 1_555
C4 C3 1_555 1_555
H4 C4 1_555 1_555
C5 N1 1_555 1_555
C6 N2 1_555 1_555
H5 C6 1_555 1_555
C7 N2 1_555 1_555
C8 C7 1_555 1_555
H6 C8 1_555 1_555
C9 C8 1_555 1_555
H7 C9 1_555 1_555
C10 C9 1_555 1_555
C11 C10 1_555 1_555
H8 C11 1_555 1_555
C12 C7 1_555 1_555
H9 C12 1_555 1_555
C13 C10 1_555 1_555
H10 C13 1_555 1_555
H11 C13 1_555 1_555
H12 C13 1_555 1_555
C14 H13 1_555 1_555
C15 C14 1_555 1_555
H14 C15 1_555 1_555
C16 C15 1_555 1_555
H15 C16 1_555 1_555
C17 C16 1_555 1_555
H16 C17 1_555 1_555
C18 N3 1_555 1_555
C19 N4 1_555 1_555
H17 C19 1_555 1_555
C20 N4 1_555 1_555
C21 C20 1_555 1_555
H18 C21 1_555 1_555
C22 C21 1_555 1_555
H19 C22 1_555 1_555
C23 C22 1_555 1_555
C24 C23 1_555 1_555
H20 C24 1_555 1_555
C25 C20 1_555 1_555
H21 C25 1_555 1_555
C26 C23 1_555 1_555
H22 C26 1_555 1_555
H23 C26 1_555 1_555
H24 C26 1_555 1_555
N11A Mn1 1_555 1_555
N14A Mn2 1_555 1_555
Mn1A N11 1_555 1_555
Mn2A N14 1_555 1_555
N6 N7 1_555 1_555
N9 N10 1_555 1_555
C4 C5 1_555 1_555
C5 C6 1_555 1_555
C11 C12 1_555 1_555
C17 C18 1_555 1_555
C18 C19 1_555 1_555
C24 C25 1_555 1_555
N11A Mn1A 1_555 1_555
N14A Mn2A 1_555 1_555

#END
