
#######################################################################
#
#                 Cambridge Crystallographic Data Centre
#                                CCDC 
#
#######################################################################
#
# If this CIF has been generated from an entry in the Cambridge 
# Structural Database, then it will include bibliographic, chemical, 
# crystal, experimental, refinement or atomic coordinate data resulting 
# from the CCDC's data processing and validation procedures.
#
#######################################################################

data_UJAPEB
_symmetry_cell_setting           monoclinic
_symmetry_space_group_name_H-M   'P 21/c'
_symmetry_Int_Tables_number      14
_space_group_name_Hall           '-P 2ybc'
loop_
_symmetry_equiv_pos_site_id
_symmetry_equiv_pos_as_xyz
1 x,y,z
2 -x,1/2+y,1/2-z
3 -x,-y,-z
4 x,1/2-y,1/2+z
_cell_length_a                   13.853(3)
_cell_length_b                   13.391(3)
_cell_length_c                   18.438(7)
_cell_angle_alpha                90
_cell_angle_beta                 119.54(2)
_cell_angle_gamma                90
_cell_volume                     2975.75
loop_
_atom_site_label
_atom_site_type_symbol
_atom_site_fract_x
_atom_site_fract_y
_atom_site_fract_z
Co1 Co 0.21879(2) 0.47919(2) 0.726584(17)
Co2 Co 0.5000 0.5000 1.0000
F1 F 0.67898(13) 0.47955(13) 0.68824(11)
C1 C -0.12294(18) 0.51494(17) 0.90981(13)
C2 C -0.06174(19) 0.58607(18) 0.89415(14)
H1 H -0.0608 0.6522 0.9100
C3 C -0.00283(19) 0.55830(18) 0.85518(14)
H2 H 0.0380 0.6059 0.8451
C4 C -0.00380(18) 0.45998(18) 0.83078(13)
C5 C -0.06655(19) 0.38975(18) 0.84486(13)
H3 H -0.0690 0.3241 0.8275
C6 C -0.12537(19) 0.41655(18) 0.88446(13)
H4 H -0.1665 0.3689 0.8942
C7 C -0.18061(18) 0.54554(18) 0.95619(13)
C8 C 0.06440(19) 0.42744(18) 0.79115(13)
C9 C 0.45888(18) 0.69287(15) 0.79702(12)
C10 C 0.56953(18) 0.69294(16) 0.81683(13)
H5 H 0.6207 0.6548 0.8615
C11 C 0.60462(18) 0.74908(16) 0.77094(12)
H6 H 0.6788 0.7479 0.7845
C12 C 0.52880(17) 0.80717(15) 0.70454(12)
C13 C 0.41873(18) 0.80909(16) 0.68573(12)
H7 H 0.3680 0.8488 0.6422
C14 C 0.38366(18) 0.75226(16) 0.73145(12)
H8 H 0.3096 0.7539 0.7182
C15 C 0.42259(18) 0.62927(15) 0.84677(12)
C16 C 0.56566(18) 0.86557(15) 0.65239(12)
C17 C 0.10461(17) 0.61012(16) 0.57418(12)
C18 C 0.21001(18) 0.67634(17) 0.51143(13)
H9 H 0.1460 0.7131 0.4788
C19 C 0.20781(18) 0.61094(16) 0.56796(13)
C20 C 0.30518(18) 0.55338(15) 0.61883(12)
C21 C 0.39790(18) 0.56912(16) 0.60436(12)
C22 C 0.39382(17) 0.63725(16) 0.54481(12)
C23 C 0.2792(2) 0.76473(18) 0.43356(14)
H10 H 0.2404 0.8227 0.4378
H11 H 0.3509 0.7866 0.4422
C24 C 0.2148(3) 0.7211(2) 0.34920(17)
H12 H 0.2055 0.7702 0.3083
H13 H 0.1434 0.7004 0.3401
H14 H 0.2538 0.6645 0.3444
C25 C 0.49720(19) 0.51712(17) 0.65273(14)
H15 H 0.5023 0.4711 0.6923
C26 C 0.58568(19) 0.53379(18) 0.64192(14)
C27 C 0.58516(18) 0.60271(16) 0.58376(13)
C28 C 0.48652(18) 0.65311(16) 0.53524(13)
H16 H 0.4819 0.6985 0.4955
C29 C 0.78201(19) 0.6446(2) 0.65324(14)
H17 H 0.7891 0.6053 0.6998
H18 H 0.7769 0.7144 0.6650
C30 C 0.88330(19) 0.62888(19) 0.64331(14)
H19 H 0.9492 0.6511 0.6933
H20 H 0.8917 0.5584 0.6357
C31 C 0.66748(18) 0.67379(17) 0.50516(13)
H21 H 0.6606 0.7440 0.5148
H22 H 0.6007 0.6535 0.4550
C32 C 0.76695(18) 0.65829(18) 0.49391(13)
H23 H 0.7705 0.5888 0.4805
H24 H 0.7591 0.6987 0.4476
N1 N 0.87128(16) 0.68575(16) 0.57035(12)
N2 N 0.68004(15) 0.61475(14) 0.57623(11)
N3 N 0.29585(15) 0.69165(14) 0.49927(11)
O1 O -0.24044(15) 0.47322(13) 0.96317(11)
H25 H -0.2695 0.4932 0.9918
O2 O -0.17360(14) 0.62797(13) 0.98506(10)
O3 O 0.05907(17) 0.33848(14) 0.77075(13)
O4 O 0.12314(13) 0.49365(12) 0.78301(9)
O5 O 0.32462(12) 0.59783(11) 0.81311(9)
O6 O 0.49451(12) 0.61429(11) 0.92218(9)
O7 O 0.49168(12) 0.89745(11) 0.58325(8)
O8 O 0.66916(12) 0.87644(11) 0.68010(9)
O9 O 0.10466(13) 0.56984(13) 0.63576(9)
O10 O 0.02042(13) 0.65368(13) 0.51787(9)
O11 O 0.31527(13) 0.49020(11) 0.67306(9)
O12 O 0.12951(13) 0.35017(12) 0.65826(9)
H26 H 0.1016 0.3349 0.6888
H27 H 0.0797 0.3552 0.6074
O13 O 0.67497(12) 0.51273(11) 1.06130(9)
H28 H 0.6919 0.4650 1.0959
H29 H 0.6908 0.5578 1.0980
H30 H 0.930(2) 0.671(2) 0.5585(16)
H31 H 0.870(2) 0.747(2) 0.5761(15)
Co1B Co 0.78121(2) 0.52081(2) 1.273416(17)
Co1A Co 0.78121(2) 0.97919(2) 0.773416(17)
Co1C Co 0.21879(2) 0.02081(2) 1.226584(17)
Co2A Co 0.5000 1.0000 0.5000
Co2A_2 Co 0.5000 0.0000 1.5000
F1B F 0.32102(13) 0.52045(13) 1.31176(11)
C1B C 1.12294(18) 0.48506(17) 1.09019(13)
C2B C 1.06174(19) 0.41393(18) 1.10585(14)
H1B H 1.0608 0.3478 1.0900
C3B C 1.00283(19) 0.44170(18) 1.14482(14)
H2B H 0.9620 0.3941 1.1549
C4B C 1.00380(18) 0.54002(18) 1.16922(13)
C5B C 1.06655(19) 0.61025(18) 1.15514(13)
H3B H 1.0690 0.6759 1.1725
C6B C 1.12537(19) 0.58345(18) 1.11554(13)
H4B H 1.1665 0.6311 1.1058
C7B C 1.18061(18) 0.45446(18) 1.04381(13)
C8B C 0.93560(19) 0.57256(18) 1.20885(13)
C9B C 0.54112(18) 0.30713(15) 1.20298(12)
C10B C 0.43047(18) 0.30706(16) 1.18317(13)
H5B H 0.3793 0.3452 1.1385
C11B C 0.39538(18) 0.25092(16) 1.22906(12)
H6B H 0.3212 0.2521 1.2155
C12B C 0.47120(17) 0.19283(15) 1.29546(12)
C13B C 0.58127(18) 0.19091(16) 1.31427(12)
H7B H 0.6320 0.1512 1.3578
C14B C 0.61634(18) 0.24774(16) 1.26855(12)
H8B H 0.6904 0.2461 1.2818
C15B C 0.57741(18) 0.37073(15) 1.15323(12)
C16B C 0.43434(18) 0.13443(15) 1.34761(12)
C17B C 0.89539(17) 0.38988(16) 1.42582(12)
C18B C 0.78999(18) 0.32366(17) 1.48857(13)
H9B H 0.8540 0.2869 1.5212
C19B C 0.79219(18) 0.38906(16) 1.43204(13)
C20B C 0.69482(18) 0.44662(15) 1.38117(12)
C21B C 0.60210(18) 0.43088(16) 1.39564(12)
C22B C 0.60618(17) 0.36275(16) 1.45519(12)
C23B C 0.7208(2) 0.23527(18) 1.56644(14)
H10B H 0.7596 0.1773 1.5622
H11B H 0.6491 0.2134 1.5578
C24B C 0.7852(3) 0.2789(2) 1.65080(17)
H12B H 0.7945 0.2298 1.6917
H13B H 0.8566 0.2996 1.6599
H14B H 0.7462 0.3355 1.6556
C25B C 0.50280(19) 0.48288(17) 1.34727(14)
H15B H 0.4977 0.5289 1.3077
C26B C 0.41432(19) 0.46621(18) 1.35808(14)
C27B C 0.41484(18) 0.39729(16) 1.41624(13)
C28B C 0.51348(18) 0.34689(16) 1.46476(13)
H16B H 0.5181 0.3015 1.5045
C29B C 0.21799(19) 0.3554(2) 1.34676(14)
H17B H 0.2109 0.3947 1.3002
H18B H 0.2231 0.2856 1.3350
C30B C 0.11670(19) 0.37112(19) 1.35669(14)
H19B H 0.0508 0.3489 1.3067
H20B H 0.1083 0.4416 1.3643
C31B C 0.33252(18) 0.32621(17) 1.49484(13)
H21B H 0.3394 0.2560 1.4852
H22B H 0.3993 0.3465 1.5450
C32B C 0.23305(18) 0.34171(18) 1.50609(13)
H23B H 0.2295 0.4112 1.5195
H24B H 0.2409 0.3013 1.5524
N1B N 0.12872(16) 0.31425(16) 1.42965(12)
N2B N 0.31996(15) 0.38525(14) 1.42377(11)
N3B N 0.70415(15) 0.30835(14) 1.50073(11)
O1B O 1.24044(15) 0.52678(13) 1.03683(11)
H25B H 1.2695 0.5068 1.0082
O2B O 1.17360(14) 0.37203(13) 1.01494(10)
O3B O 0.94093(17) 0.66152(14) 1.22925(13)
O4B O 0.87686(13) 0.50635(12) 1.21699(9)
O5B O 0.67538(12) 0.40217(11) 1.18689(9)
O6B O 0.50549(12) 0.38571(11) 1.07782(9)
O7B O 0.50832(12) 0.10255(11) 1.41675(8)
O7A O 0.50832(12) 0.39745(11) 0.91675(8)
O7C O 0.49168(12) 0.60255(11) 1.08325(8)
O8B O 0.33084(12) 0.12356(11) 1.31990(9)
O8A O 0.33084(12) 0.37644(11) 0.81990(9)
O8C O 0.66916(12) 0.62356(11) 1.18010(9)
O9B O 0.89534(13) 0.43016(13) 1.36424(9)
O10B O 0.97958(13) 0.34632(13) 1.48213(9)
O11B O 0.68473(13) 0.50980(11) 1.32694(9)
O12B O 0.87049(13) 0.64983(12) 1.34174(9)
H26B H 0.8984 0.6651 1.3112
H27B H 0.9203 0.6448 1.3926
O13B O 0.32503(12) 0.48727(11) 0.93870(9)
H28B H 0.3081 0.5350 0.9041
H29B H 0.3092 0.4422 0.9020
H30B H 0.070(2) 0.329(2) 1.4415(16)
H31B H 0.130(2) 0.253(2) 1.4239(15)
loop_
_geom_bond_atom_site_label_1
_geom_bond_atom_site_label_2
_geom_bond_site_symmetry_1
_geom_bond_site_symmetry_2
Co1 O4 1_555 1_555
Co2 O6 1_555 1_555
F1 C26 1_555 1_555
C1 C2 1_555 1_555
C2 H1 1_555 1_555
C3 C2 1_555 1_555
H2 C3 1_555 1_555
C4 C3 1_555 1_555
C5 C4 1_555 1_555
H3 C5 1_555 1_555
C6 C1 1_555 1_555
H4 C6 1_555 1_555
C7 C1 1_555 1_555
C8 C4 1_555 1_555
C9 C10 1_555 1_555
C10 H5 1_555 1_555
C11 C10 1_555 1_555
H6 C11 1_555 1_555
C12 C11 1_555 1_555
C13 C12 1_555 1_555
H7 C13 1_555 1_555
C14 C9 1_555 1_555
H8 C14 1_555 1_555
C15 C9 1_555 1_555
C16 C12 1_555 1_555
C17 C19 1_555 1_555
C18 H9 1_555 1_555
C19 C18 1_555 1_555
C20 C19 1_555 1_555
C21 C20 1_555 1_555
C22 C21 1_555 1_555
C23 H10 1_555 1_555
H11 C23 1_555 1_555
C24 C23 1_555 1_555
H12 C24 1_555 1_555
H13 C24 1_555 1_555
H14 C24 1_555 1_555
C25 C21 1_555 1_555
H15 C25 1_555 1_555
C26 C25 1_555 1_555
C27 C26 1_555 1_555
C28 C22 1_555 1_555
H16 C28 1_555 1_555
C29 H17 1_555 1_555
H18 C29 1_555 1_555
C30 C29 1_555 1_555
H19 C30 1_555 1_555
H20 C30 1_555 1_555
C31 H21 1_555 1_555
H22 C31 1_555 1_555
C32 C31 1_555 1_555
H23 C32 1_555 1_555
H24 C32 1_555 1_555
N1 C30 1_555 1_555
N2 C27 1_555 1_555
N3 C18 1_555 1_555
O1 C7 1_555 1_555
H25 O1 1_555 1_555
O2 C7 1_555 1_555
O3 C8 1_555 1_555
O4 C8 1_555 1_555
O5 Co1 1_555 1_555
O6 C15 1_555 1_555
O7 C16 1_555 1_555
O8 C16 1_555 1_555
O9 Co1 1_555 1_555
O10 C17 1_555 1_555
O11 Co1 1_555 1_555
O12 Co1 1_555 1_555
H26 O12 1_555 1_555
H27 O12 1_555 1_555
O13 Co2 1_555 1_555
H28 O13 1_555 1_555
H29 O13 1_555 1_555
H30 N1 1_555 1_555
H31 N1 1_555 1_555
Co1B O4B 1_555 1_555
Co1A O8 1_555 1_555
Co1C O8B 1_555 1_555
Co2A O7 1_555 1_555
Co2A_2 O7B 1_555 1_555
F1B C26B 1_555 1_555
C1B C2B 1_555 1_555
C2B H1B 1_555 1_555
C3B C2B 1_555 1_555
H2B C3B 1_555 1_555
C4B C3B 1_555 1_555
C5B C4B 1_555 1_555
H3B C5B 1_555 1_555
C6B C1B 1_555 1_555
H4B C6B 1_555 1_555
C7B C1B 1_555 1_555
C8B C4B 1_555 1_555
C9B C10B 1_555 1_555
C10B H5B 1_555 1_555
C11B C10B 1_555 1_555
H6B C11B 1_555 1_555
C12B C11B 1_555 1_555
C13B C12B 1_555 1_555
H7B C13B 1_555 1_555
C14B C9B 1_555 1_555
H8B C14B 1_555 1_555
C15B C9B 1_555 1_555
C16B C12B 1_555 1_555
C17B C19B 1_555 1_555
C18B H9B 1_555 1_555
C19B C18B 1_555 1_555
C20B C19B 1_555 1_555
C21B C20B 1_555 1_555
C22B C21B 1_555 1_555
C23B H10B 1_555 1_555
H11B C23B 1_555 1_555
C24B C23B 1_555 1_555
H12B C24B 1_555 1_555
H13B C24B 1_555 1_555
H14B C24B 1_555 1_555
C25B C21B 1_555 1_555
H15B C25B 1_555 1_555
C26B C25B 1_555 1_555
C27B C26B 1_555 1_555
C28B C22B 1_555 1_555
H16B C28B 1_555 1_555
C29B H17B 1_555 1_555
H18B C29B 1_555 1_555
C30B C29B 1_555 1_555
H19B C30B 1_555 1_555
H20B C30B 1_555 1_555
C31B H21B 1_555 1_555
H22B C31B 1_555 1_555
C32B C31B 1_555 1_555
H23B C32B 1_555 1_555
H24B C32B 1_555 1_555
N1B C30B 1_555 1_555
N2B C27B 1_555 1_555
N3B C18B 1_555 1_555
O1B C7B 1_555 1_555
H25B O1B 1_555 1_555
O2B C7B 1_555 1_555
O3B C8B 1_555 1_555
O4B C8B 1_555 1_555
O5B Co1B 1_555 1_555
O6B Co2 1_555 1_555
O7B C16B 1_555 1_555
O7A Co2 1_555 1_555
O7C Co2 1_555 1_555
O8B C16B 1_555 1_555
O8A Co1 1_555 1_555
O8C Co1B 1_555 1_555
O9B Co1B 1_555 1_555
O10B C17B 1_555 1_555
O11B Co1B 1_555 1_555
O12B Co1B 1_555 1_555
H26B O12B 1_555 1_555
H27B O12B 1_555 1_555
O13B Co2 1_555 1_555
H28B O13B 1_555 1_555
H29B O13B 1_555 1_555
H30B N1B 1_555 1_555
H31B N1B 1_555 1_555
C5 C6 1_555 1_555
C13 C14 1_555 1_555
C15 O5 1_555 1_555
C17 O9 1_555 1_555
C20 O11 1_555 1_555
C22 N3 1_555 1_555
C23 N3 1_555 1_555
C27 C28 1_555 1_555
C29 N2 1_555 1_555
C31 N2 1_555 1_555
C32 N1 1_555 1_555
C5B C6B 1_555 1_555
C13B C14B 1_555 1_555
C15B O5B 1_555 1_555
C15B O6B 1_555 1_555
C17B O9B 1_555 1_555
C20B O11B 1_555 1_555
C22B N3B 1_555 1_555
C23B N3B 1_555 1_555
C27B C28B 1_555 1_555
C29B N2B 1_555 1_555
C31B N2B 1_555 1_555
C32B N1B 1_555 1_555

#END
