
#######################################################################
#
#                 Cambridge Crystallographic Data Centre
#                                CCDC 
#
#######################################################################
#
# If this CIF has been generated from an entry in the Cambridge 
# Structural Database, then it will include bibliographic, chemical, 
# crystal, experimental, refinement or atomic coordinate data resulting 
# from the CCDC's data processing and validation procedures.
#
#######################################################################

data_UJAPUR
_symmetry_cell_setting           monoclinic
_symmetry_space_group_name_H-M   'P 21/c'
_symmetry_Int_Tables_number      14
_space_group_name_Hall           '-P 2ybc'
loop_
_symmetry_equiv_pos_site_id
_symmetry_equiv_pos_as_xyz
1 x,y,z
2 -x,1/2+y,1/2-z
3 -x,-y,-z
4 x,1/2-y,1/2+z
_cell_length_a                   10.8788(2)
_cell_length_b                   30.1049(6)
_cell_length_c                   8.5449(2)
_cell_angle_alpha                90
_cell_angle_beta                 111.3600(14)
_cell_angle_gamma                90
_cell_volume                     2606.27
loop_
_atom_site_label
_atom_site_type_symbol
_atom_site_fract_x
_atom_site_fract_y
_atom_site_fract_z
Zn1 Zn 0.33259(4) 0.063122(13) 0.00261(5)
Zn2 Zn -0.66626(4) 0.147370(13) -0.44558(5)
O1 O 0.1916(2) 0.10409(8) 0.0131(3)
O2 O 0.0524(2) 0.05631(9) -0.1578(4)
C1 C 0.0742(3) 0.09033(11) -0.0733(4)
C2 C -0.0379(3) 0.11942(11) -0.0672(4)
C3 C -0.1682(3) 0.10580(11) -0.1495(4)
H1 H -0.1868 0.0779 -0.2050
C4 C -0.2708(3) 0.13339(11) -0.1496(4)
C5 C -0.2446(3) 0.17470(11) -0.0709(4)
H2 H -0.3150 0.1940 -0.0752
C6 C -0.1142(3) 0.18741(11) 0.0141(4)
C7 C -0.0118(3) 0.15978(11) 0.0161(4)
H3 H 0.0770 0.1686 0.0751
C8 C -0.4123(3) 0.11977(11) -0.2429(4)
O3 O -0.4997(2) 0.14975(7) -0.2558(3)
O4 O -0.4393(2) 0.08182(8) -0.3030(3)
O5 O -0.0781(2) 0.22806(7) 0.0941(3)
C9 C -0.1758(3) 0.25221(11) 0.1316(4)
H4 H -0.1315 0.2739 0.2216
H5 H -0.2257 0.2313 0.1757
O6 O -0.2658(2) 0.27517(7) -0.0066(3)
C10 C -0.2256(3) 0.31550(10) -0.0503(4)
C11 C -0.3255(3) 0.34283(11) -0.1541(4)
H6 H -0.4151 0.3340 -0.1852
C12 C -0.2949(3) 0.38289(11) -0.2124(4)
C13 C -0.1644(3) 0.39689(11) -0.1611(4)
H7 H -0.1432 0.4246 -0.1983
C14 C -0.0650(3) 0.36987(11) -0.0546(4)
C15 C -0.0950(3) 0.32851(11) -0.0026(4)
H8 H -0.0264 0.3095 0.0647
C16 C 0.0776(3) 0.38417(12) -0.0014(4)
O7 O 0.1635(2) 0.35469(8) 0.0799(3)
O8 O 0.1060(2) 0.42133(8) -0.0383(3)
O9 O -0.6608(3) 0.10426(11) -0.6205(4)
H9 H -0.5882 0.1037 -0.6586
H10 H -0.7364 0.1009 -0.7206
N1 N -0.6715(3) 0.21258(10) -0.5120(4)
C17 C -0.5596(4) 0.23669(12) -0.4678(5)
H11 H -0.4773 0.2221 -0.4152
C18 C -0.5606(4) 0.28210(12) -0.4966(5)
H12 H -0.4800 0.2981 -0.4646
C19 C -0.6786(4) 0.30365(12) -0.5717(5)
H13 H -0.6812 0.3348 -0.5908
C20 C -0.7947(4) 0.27889(13) -0.6194(5)
H14 H -0.8780 0.2927 -0.6737
C21 C -0.7863(4) 0.23368(12) -0.5863(5)
H15 H -0.8657 0.2169 -0.6177
C22 C -0.4038(3) 0.41118(11) -0.3336(4)
O10 O -0.3761(2) 0.44515(8) -0.3944(3)
O11 O -0.5219(2) 0.39679(7) -0.3671(3)
O12 O 0.3288(3) 0.04224(9) -0.2209(3)
H16 H 0.2421 0.0513 -0.3044
H17 H 0.4100 0.0567 -0.2230
O13 O 0.3446(3) 0.00960(10) 0.1491(4)
H18 H 0.4327 0.0084 0.2397
H19 H 0.2688 0.0066 0.1866
Zn1C Zn -0.66741(4) 0.436878(13) -0.49739(5)
Zn2C Zn 0.33374(4) 0.352630(13) 0.05442(5)
O7C O -0.8365(2) 0.14531(8) -0.4201(3)
O11C O 0.4781(2) 0.10321(7) 0.1329(3)
O14 O 0.6055(3) 0.02808(10) 0.4521(3)
H20 H 0.6848 0.0187 0.5244
H21 H 0.5928 0.0418 0.5366
O15 O 0.1462(3) 0.00106(9) 0.3240(4)
H22 H 0.1031 0.0255 0.3518
H23 H 0.0757 -0.0203 0.2657
loop_
_geom_bond_atom_site_label_1
_geom_bond_atom_site_label_2
_geom_bond_site_symmetry_1
_geom_bond_site_symmetry_2
Zn1 O1 1_555 1_555
Zn2 O3 1_555 1_555
O1 C1 1_555 1_555
O2 C1 1_555 1_555
C1 C2 1_555 1_555
C2 C3 1_555 1_555
C3 H1 1_555 1_555
C4 C3 1_555 1_555
C5 C4 1_555 1_555
H2 C5 1_555 1_555
C6 C5 1_555 1_555
C7 C2 1_555 1_555
H3 C7 1_555 1_555
C8 C4 1_555 1_555
O3 C8 1_555 1_555
O4 C8 1_555 1_555
O5 C6 1_555 1_555
C9 O5 1_555 1_555
H4 C9 1_555 1_555
H5 C9 1_555 1_555
O6 C9 1_555 1_555
C10 O6 1_555 1_555
C11 C10 1_555 1_555
H6 C11 1_555 1_555
C12 C11 1_555 1_555
C13 C12 1_555 1_555
H7 C13 1_555 1_555
C14 C13 1_555 1_555
C15 C10 1_555 1_555
H8 C15 1_555 1_555
C16 C14 1_555 1_555
O7 C16 1_555 1_555
O8 C16 1_555 1_555
O9 Zn2 1_555 1_555
H9 O9 1_555 1_555
H10 O9 1_555 1_555
N1 Zn2 1_555 1_555
C17 N1 1_555 1_555
H11 C17 1_555 1_555
C18 C17 1_555 1_555
H12 C18 1_555 1_555
C19 C18 1_555 1_555
H13 C19 1_555 1_555
C20 C19 1_555 1_555
H14 C20 1_555 1_555
C21 N1 1_555 1_555
H15 C21 1_555 1_555
C22 C12 1_555 1_555
O10 C22 1_555 1_555
O11 C22 1_555 1_555
O12 Zn1 1_555 1_555
H16 O12 1_555 1_555
H17 O12 1_555 1_555
O13 Zn1 1_555 1_555
H18 O13 1_555 1_555
H19 O13 1_555 1_555
O14 H20 1_555 1_555
H21 O14 1_555 1_555
O15 H22 1_555 1_555
H23 O15 1_555 1_555
Zn1C O11 1_555 1_555
Zn2C O7 1_555 1_555
O7C Zn2 1_555 1_555
O11C Zn1 1_555 1_555
C6 C7 1_555 1_555
C14 C15 1_555 1_555
C20 C21 1_555 1_555

#END
