
#######################################################################
#
#                 Cambridge Crystallographic Data Centre
#                                CCDC 
#
#######################################################################
#
# If this CIF has been generated from an entry in the Cambridge 
# Structural Database, then it will include bibliographic, chemical, 
# crystal, experimental, refinement or atomic coordinate data resulting 
# from the CCDC's data processing and validation procedures.
#
#######################################################################

data_UJAQOM
_symmetry_cell_setting           monoclinic
_symmetry_space_group_name_H-M   'C 2/c'
_symmetry_Int_Tables_number      15
_space_group_name_Hall           '-C 2yn'
loop_
_symmetry_equiv_pos_site_id
_symmetry_equiv_pos_as_xyz
1 x,y,z
2 -x,y,1/2-z
3 1/2+x,1/2+y,z
4 1/2-x,1/2+y,1/2-z
5 -x,-y,-z
6 x,-y,1/2+z
7 1/2-x,1/2-y,-z
8 1/2+x,1/2-y,1/2+z
_cell_length_a                   13.8667(4)
_cell_length_b                   14.8068(4)
_cell_length_c                   14.6050(4)
_cell_angle_alpha                90
_cell_angle_beta                 114.1755(12)
_cell_angle_gamma                90
_cell_volume                     2735.72
loop_
_atom_site_label
_atom_site_type_symbol
_atom_site_fract_x
_atom_site_fract_y
_atom_site_fract_z
Cd1 Cd 0.0000 0.568598(13) 0.2500
O1 O 0.12361(17) 0.45098(15) 0.24514(17)
O2 O 0.13184(14) 0.49622(12) 0.39049(15)
C1 C 0.1633(2) 0.44707(16) 0.3387(2)
C2 C 0.25142(18) 0.38059(16) 0.39089(19)
C3 C 0.28441(18) 0.32196(16) 0.33439(19)
H1 H 0.2524 0.3243 0.2632
C4 C 0.36458(18) 0.26015(15) 0.3834(2)
C5 C 0.40246(18) 0.19693(16) 0.3246(2)
O3 O 0.36710(17) 0.19967(16) 0.23323(17)
O4 O 0.47186(15) 0.13917(12) 0.37516(16)
H2 H 0.5126 0.1546 0.3467
C6 C 0.41051(17) 0.25649(15) 0.4878(2)
H3 H 0.4649 0.2139 0.5211
C7 C 0.37744(19) 0.31448(16) 0.54315(19)
C8 C 0.29716(19) 0.37679(16) 0.4950(2)
H4 H 0.2740 0.4163 0.5331
O5 O 0.41851(15) 0.31570(12) 0.64593(14)
C9 C 0.4919(2) 0.24513(19) 0.6947(2)
H5 H 0.5598 0.2561 0.6895
H6 H 0.4635 0.1862 0.6633
Cd1B Cd 0.5000 0.068598(13) 0.2500
Cd1_2 Cd 1.0000 0.568598(13) 1.2500
Cd1B_2 Cd 0.5000 0.068598(13) 1.2500
O1A O 0.87639(17) 0.45098(15) 1.25486(17)
O1A_2 O -0.12361(17) 0.45098(15) 0.25486(17)
O2A O 0.86816(14) 0.49622(12) 1.10951(15)
O2A_2 O -0.13184(14) 0.49622(12) 0.10951(15)
C1A C 0.8367(2) 0.44707(16) 1.1613(2)
C2A C 0.74858(18) 0.38059(16) 1.10911(19)
C3A C 0.71559(18) 0.32196(16) 1.16561(19)
H1A H 0.7476 0.3243 1.2368
C4A C 0.63542(18) 0.26015(15) 1.1166(2)
C5A C 0.59754(18) 0.19693(16) 1.1754(2)
O3A O 0.63290(17) 0.19967(16) 1.26677(17)
O3B O -0.13290(17) 0.69967(16) 0.23323(17)
O3C O 0.13290(17) 0.69967(16) 0.26677(17)
O4A O 0.52814(15) 0.13917(12) 1.12484(16)
O4B O -0.02814(15) 0.63917(12) 0.37516(16)
O4C O 0.02814(15) 0.63917(12) 0.12484(16)
H2A H 0.4874 0.1546 1.1533
H2B H 0.0126 0.6546 0.3467
H2C H -0.0126 0.6546 0.1533
C6A C 0.58949(17) 0.25649(15) 1.0122(2)
H3A H 0.5351 0.2139 0.9789
C7A C 0.62256(19) 0.31448(16) 0.95685(19)
C8A C 0.70284(19) 0.37679(16) 1.0050(2)
H4A H 0.7260 0.4163 0.9669
O5A O 0.58149(15) 0.31570(12) 0.85407(14)
C9A C 0.5081(2) 0.24513(19) 0.8053(2)
H5A H 0.4402 0.2561 0.8105
H6A H 0.5365 0.1862 0.8367
loop_
_geom_bond_atom_site_label_1
_geom_bond_atom_site_label_2
_geom_bond_site_symmetry_1
_geom_bond_site_symmetry_2
Cd1 O1 1_555 1_555
O1 C1 1_555 1_555
O2 Cd1 1_555 1_555
C1 O2 1_555 1_555
C2 C1 1_555 1_555
C3 C2 1_555 1_555
H1 C3 1_555 1_555
C4 C3 1_555 1_555
C5 C4 1_555 1_555
O3 C5 1_555 1_555
O4 C5 1_555 1_555
H2 O4 1_555 1_555
C6 C4 1_555 1_555
H3 C6 1_555 1_555
C7 C6 1_555 1_555
C8 C2 1_555 1_555
H4 C8 1_555 1_555
O5 C7 1_555 1_555
C9 O5 1_555 1_555
H5 C9 1_555 1_555
H6 C9 1_555 1_555
Cd1B O3 1_555 1_555
Cd1_2 O1A 1_555 1_555
Cd1B_2 O3A 1_555 1_555
O1A C1A 1_555 1_555
O1A_2 Cd1 1_555 1_555
O2A Cd1_2 1_555 1_555
O2A_2 Cd1 1_555 1_555
C1A O2A 1_555 1_555
C2A C1A 1_555 1_555
C3A C2A 1_555 1_555
H1A C3A 1_555 1_555
C4A C3A 1_555 1_555
C5A C4A 1_555 1_555
O3A C5A 1_555 1_555
O3B Cd1 1_555 1_555
O3C Cd1 1_555 1_555
O4A Cd1B_2 1_555 1_555
O4B Cd1 1_555 1_555
O4C Cd1 1_555 1_555
H2A O4A 1_555 1_555
H2B O4B 1_555 1_555
H2C O4C 1_555 1_555
C6A C4A 1_555 1_555
H3A C6A 1_555 1_555
C7A C6A 1_555 1_555
C8A C2A 1_555 1_555
H4A C8A 1_555 1_555
O5A C7A 1_555 1_555
C9A C9 1_555 1_555
H5A C9A 1_555 1_555
H6A C9A 1_555 1_555
O4 Cd1B 1_555 1_555
C7 C8 1_555 1_555
C5A O4A 1_555 1_555
C7A C8A 1_555 1_555
O5A C9A 1_555 1_555

#END
