
#######################################################################
#
#                 Cambridge Crystallographic Data Centre
#                                CCDC 
#
#######################################################################
#
# If this CIF has been generated from an entry in the Cambridge 
# Structural Database, then it will include bibliographic, chemical, 
# crystal, experimental, refinement or atomic coordinate data resulting 
# from the CCDC's data processing and validation procedures.
#
#######################################################################

data_UJARIH
_symmetry_cell_setting           monoclinic
_symmetry_space_group_name_H-M   'P 21/c'
_symmetry_Int_Tables_number      14
_space_group_name_Hall           '-P 2ybc'
loop_
_symmetry_equiv_pos_site_id
_symmetry_equiv_pos_as_xyz
1 x,y,z
2 -x,1/2+y,1/2-z
3 -x,-y,-z
4 x,1/2-y,1/2+z
_cell_length_a                   16.4370(2)
_cell_length_b                   14.6990(2)
_cell_length_c                   17.5061(2)
_cell_angle_alpha                90
_cell_angle_beta                 109.3792(10)
_cell_angle_gamma                90
_cell_volume                     3989.97
loop_
_atom_site_label
_atom_site_type_symbol
_atom_site_fract_x
_atom_site_fract_y
_atom_site_fract_z
Zn1 Zn 0.47174(2) 0.15165(3) -0.351786(19)
Zn2 Zn 0.00351(2) -0.14605(3) 0.32363(2)
O1 O 0.44417(14) 0.14641(15) -0.24691(11)
O2 O 0.33667(15) 0.04449(17) -0.28575(12)
C1 C 0.39014(19) 0.0923(2) -0.23330(16)
C2 C 0.39194(18) 0.0843(2) -0.14683(15)
C3 C 0.41762(18) 0.1560(2) -0.09286(16)
H1 H 0.4331 0.2127 -0.1102
C4 C 0.42052(19) 0.1444(2) -0.01297(17)
C5 C 0.44256(19) 0.2221(2) 0.04630(16)
O3 O 0.42663(14) 0.21354(17) 0.11151(12)
O4 O 0.47427(14) 0.29404(16) 0.02934(12)
C6 C 0.39939(19) 0.0602(2) 0.01272(17)
H2 H 0.4023 0.0519 0.0674
C7 C 0.37435(19) -0.0107(2) -0.04179(17)
C8 C 0.36898(19) 0.0014(2) -0.12178(16)
H3 H 0.3496 -0.0470 -0.1595
O5 O 0.34966(14) -0.09633(16) -0.02320(12)
C9 C 0.3724(2) -0.1191(3) 0.05914(18)
H4 H 0.4335 -0.1024 0.0868
H5 H 0.3673 -0.1858 0.0641
O6 O 0.32075(14) -0.07550(17) 0.09829(12)
C10 C 0.24255(19) -0.1145(2) 0.09060(16)
C11 C 0.2084(2) -0.0941(2) 0.15153(16)
H6 H 0.2382 -0.0533 0.1936
C12 C 0.13182(18) -0.1326(2) 0.15126(16)
C13 C 0.0990(2) -0.1111(3) 0.21985(18)
O7 O 0.03211(15) -0.15253(17) 0.22154(13)
O8 O 0.1389(2) -0.0575(3) 0.27202(18)
C14 C 0.08810(18) -0.1924(2) 0.08956(15)
H7 H 0.0369 -0.2215 0.0907
C15 C 0.11969(18) -0.2094(2) 0.02608(16)
C16 C 0.07068(19) -0.2687(2) -0.04378(16)
O9 O 0.09004(14) -0.26422(16) -0.10789(11)
O10 O 0.01092(15) -0.31900(17) -0.03897(12)
C17 C 0.19749(19) -0.1709(2) 0.02688(16)
H8 H 0.2196 -0.1832 -0.0158
N1 N 0.53098(18) 0.02279(19) -0.34727(15)
C18 C 0.5502(2) -0.0276(2) -0.27947(19)
H9 H 0.5176 -0.0176 -0.2445
C19 C 0.6138(2) -0.0925(2) -0.25744(18)
H10 H 0.6245 -0.1258 -0.2086
C20 C 0.6622(2) -0.1087(2) -0.30771(18)
C21 C 0.6396(2) -0.0606(2) -0.37993(18)
H11 H 0.6690 -0.0717 -0.4175
C22 C 0.5752(2) 0.0026(2) -0.39704(18)
H12 H 0.5609 0.0341 -0.4472
C23 C 0.7395(2) -0.1694(2) -0.28107(18)
C24 C 0.7456(2) -0.2388(2) -0.22577(19)
H13 H 0.6990 -0.2507 -0.2064
C25 C 0.8194(2) -0.2903(3) -0.1992(2)
H14 H 0.8218 -0.3380 -0.1618
N2 N 0.88852(17) -0.27748(19) -0.22283(15)
C26 C 0.8816(2) -0.2112(3) -0.2775(2)
H15 H 0.9285 -0.2012 -0.2968
C27 C 0.8096(3) -0.1574(3) -0.3069(2)
H16 H 0.8080 -0.1113 -0.3454
N3 N 0.59873(16) 0.21085(18) -0.29616(14)
C28 C 0.6595(2) 0.2081(2) -0.33148(17)
H17 H 0.6510 0.1689 -0.3766
C29 C 0.73444(19) 0.2598(2) -0.30535(17)
H18 H 0.7762 0.2552 -0.3319
C30 C 0.74769(19) 0.3185(2) -0.23981(17)
C31 C 0.6849(2) 0.3195(2) -0.20228(17)
H19 H 0.6922 0.3574 -0.1565
C32 C 0.6121(2) 0.2656(2) -0.23156(17)
H20 H 0.5701 0.2674 -0.2051
C33 C 0.82162(19) 0.3825(2) -0.21531(17)
C34 C 0.8464(2) 0.4283(2) -0.14134(17)
H21 H 0.8215 0.4124 -0.1013
C35 C 0.9067(2) 0.4965(2) -0.12648(17)
H22 H 0.9223 0.5268 -0.0757
N4 N 0.94464(17) 0.52242(18) -0.17987(14)
C36 C 0.9259(2) 0.4735(2) -0.24879(19)
H23 H 0.9556 0.4873 -0.2856
C37 C 0.8663(2) 0.4050(2) -0.26814(19)
H24 H 0.8552 0.3727 -0.3175
O11 O 0.34076(15) 0.10568(19) -0.42311(13)
H25 H 0.3323 0.0799 -0.3795
H26 H 0.3055 0.1536 -0.4419
Zn1C Zn 0.47174(2) 0.34835(3) 0.148214(19)
Zn2C Zn 0.00351(2) -0.35395(3) -0.17637(2)
Zn2C_2 Zn 1.00351(2) -0.35395(3) -0.17637(2)
Zn2C_3 Zn 1.00351(2) 0.64605(3) -0.17637(2)
O3C O 0.42663(14) 0.28646(17) -0.38849(12)
O4C O 0.47427(14) 0.20596(16) -0.47066(12)
O9C O 0.09004(14) -0.23578(16) 0.39211(11)
O10C O 0.01092(15) -0.18100(17) 0.46103(12)
N2C N -0.11148(17) -0.22252(19) 0.27717(15)
N4C N -0.05536(17) -0.02242(18) 0.32013(14)
S1 S 0.21669(6) 0.14874(8) 0.02846(6)
O12 O 0.21463(17) 0.2507(2) 0.02121(16)
C38 C 0.1215(3) 0.1152(3) 0.0504(3)
H27 H 0.1291 0.1288 0.1072
H28 H 0.1120 0.0497 0.0409
H29 H 0.0716 0.1487 0.0152
C39 C 0.1834(3) 0.1071(4) -0.0730(2)
H30 H 0.2267 0.1233 -0.0980
H31 H 0.1279 0.1343 -0.1040
H32 H 0.1775 0.0407 -0.0726
O13 O 0.08422(18) 0.36904(19) -0.05843(15)
H33 H 0.1385 0.3474 -0.0387
H34 H 0.0515 0.3512 -0.0288
loop_
_geom_bond_atom_site_label_1
_geom_bond_atom_site_label_2
_geom_bond_site_symmetry_1
_geom_bond_site_symmetry_2
Zn1 O1 1_555 1_555
Zn2 O7 1_555 1_555
O1 C1 1_555 1_555
O2 C1 1_555 1_555
C1 C2 1_555 1_555
C2 C3 1_555 1_555
C3 H1 1_555 1_555
C4 C3 1_555 1_555
C5 C4 1_555 1_555
O3 C5 1_555 1_555
O4 C5 1_555 1_555
C6 C4 1_555 1_555
H2 C6 1_555 1_555
C7 C6 1_555 1_555
C8 C2 1_555 1_555
H3 C8 1_555 1_555
O5 C7 1_555 1_555
C9 O5 1_555 1_555
H4 C9 1_555 1_555
H5 C9 1_555 1_555
O6 C9 1_555 1_555
C10 O6 1_555 1_555
C11 C10 1_555 1_555
H6 C11 1_555 1_555
C12 C11 1_555 1_555
C13 C12 1_555 1_555
O7 C13 1_555 1_555
O8 C13 1_555 1_555
C14 C12 1_555 1_555
H7 C14 1_555 1_555
C15 C14 1_555 1_555
C16 C15 1_555 1_555
O9 C16 1_555 1_555
O10 C16 1_555 1_555
C17 C10 1_555 1_555
H8 C17 1_555 1_555
N1 Zn1 1_555 1_555
C18 N1 1_555 1_555
H9 C18 1_555 1_555
C19 C18 1_555 1_555
H10 C19 1_555 1_555
C20 C19 1_555 1_555
C21 C20 1_555 1_555
H11 C21 1_555 1_555
C22 N1 1_555 1_555
H12 C22 1_555 1_555
C23 C20 1_555 1_555
C24 C23 1_555 1_555
H13 C24 1_555 1_555
C25 C24 1_555 1_555
H14 C25 1_555 1_555
N2 C25 1_555 1_555
C26 N2 1_555 1_555
H15 C26 1_555 1_555
C27 C23 1_555 1_555
H16 C27 1_555 1_555
N3 Zn1 1_555 1_555
C28 N3 1_555 1_555
H17 C28 1_555 1_555
C29 C28 1_555 1_555
H18 C29 1_555 1_555
C30 C29 1_555 1_555
C31 C30 1_555 1_555
H19 C31 1_555 1_555
C32 N3 1_555 1_555
H20 C32 1_555 1_555
C33 C30 1_555 1_555
C34 C33 1_555 1_555
H21 C34 1_555 1_555
C35 C34 1_555 1_555
H22 C35 1_555 1_555
N4 C35 1_555 1_555
C36 N4 1_555 1_555
H23 C36 1_555 1_555
C37 C33 1_555 1_555
H24 C37 1_555 1_555
O11 Zn1 1_555 1_555
H25 O11 1_555 1_555
H26 O11 1_555 1_555
S1 O12 1_555 1_555
C38 S1 1_555 1_555
H27 C38 1_555 1_555
H28 C38 1_555 1_555
H29 C38 1_555 1_555
C39 S1 1_555 1_555
H30 C39 1_555 1_555
H31 C39 1_555 1_555
H32 C39 1_555 1_555
O13 H33 1_555 1_555
H34 O13 1_555 1_555
Zn1C O3 1_555 1_555
Zn2C O9 1_555 1_555
Zn2C_2 N2 1_555 1_555
Zn2C_3 N4 1_555 1_555
O3C Zn1 1_555 1_555
O4C Zn1 1_555 1_555
O9C Zn2 1_555 1_555
O10C Zn2 1_555 1_555
N2C Zn2 1_555 1_555
N4C Zn2 1_555 1_555
O4 Zn1C 1_555 1_555
C7 C8 1_555 1_555
C15 C17 1_555 1_555
O10 Zn2C 1_555 1_555
C21 C22 1_555 1_555
C26 C27 1_555 1_555
C31 C32 1_555 1_555
C36 C37 1_555 1_555

#END
