
#######################################################################
#
#                 Cambridge Crystallographic Data Centre
#                                CCDC 
#
#######################################################################
#
# If this CIF has been generated from an entry in the Cambridge 
# Structural Database, then it will include bibliographic, chemical, 
# crystal, experimental, refinement or atomic coordinate data resulting 
# from the CCDC's data processing and validation procedures.
#
#######################################################################

data_UJATIJ
_symmetry_cell_setting           monoclinic
_symmetry_space_group_name_H-M   'P 21/c'
_symmetry_Int_Tables_number      14
_space_group_name_Hall           '-P 2ybc'
loop_
_symmetry_equiv_pos_site_id
_symmetry_equiv_pos_as_xyz
1 x,y,z
2 -x,1/2+y,1/2-z
3 -x,-y,-z
4 x,1/2-y,1/2+z
_cell_length_a                   14.8422(3)
_cell_length_b                   20.2605(3)
_cell_length_c                   7.22730(10)
_cell_angle_alpha                90
_cell_angle_beta                 103.6300(5)
_cell_angle_gamma                90
_cell_volume                     2112.12
loop_
_atom_site_label
_atom_site_type_symbol
_atom_site_fract_x
_atom_site_fract_y
_atom_site_fract_z
Eu1 Eu 0.864849(12) 0.141278(8) 0.19196(2)
O1 O 0.70856(19) 0.12725(13) 0.2539(4)
O2 O 0.74590(18) 0.22706(12) 0.1787(3)
C1 C 0.6879(2) 0.18816(17) 0.2233(5)
C2 C 0.5958(3) 0.21324(18) 0.2400(5)
C3 C 0.5803(3) 0.28117(18) 0.2359(5)
H1 H 0.6271 0.3109 0.2181
C4 C 0.4948(3) 0.30501(19) 0.2584(5)
C5 C 0.4819(3) 0.3776(2) 0.2651(5)
O3 O 0.4016(2) 0.39465(15) 0.2972(5)
H2 H 0.4007 0.4356 0.3143
O4 O 0.5414(2) 0.41759(14) 0.2479(4)
C6 C 0.4251(3) 0.26199(19) 0.2775(5)
H3 H 0.3673 0.2786 0.2916
C7 C 0.4404(3) 0.19408(19) 0.2760(5)
C8 C 0.5257(3) 0.16962(19) 0.2601(5)
H4 H 0.5364 0.1234 0.2629
O5 O 0.37549(19) 0.14758(12) 0.2940(4)
C9 C 0.2886(3) 0.1711(2) 0.3195(5)
H5 H 0.2996 0.2005 0.4320
H6 H 0.2513 0.1331 0.3449
O6 O 0.23791(18) 0.20595(13) 0.1586(4)
C10 C 0.1853(3) 0.16997(19) 0.0092(5)
C11 C 0.2006(3) 0.10375(18) -0.0211(5)
H7 H 0.2507 0.0809 0.0596
C12 C 0.1410(2) 0.07112(19) -0.1726(5)
C13 C 0.1506(3) -0.00243(18) -0.1907(5)
O7 O 0.11676(19) -0.03153(13) -0.3471(4)
O8 O 0.1905(2) -0.03476(13) -0.0445(4)
C14 C 0.0678(3) 0.10404(18) -0.2916(5)
H8 H 0.0287 0.0816 -0.3956
C15 C 0.0521(2) 0.17055(18) -0.2571(5)
C16 C -0.0324(3) 0.20547(17) -0.3709(5)
O9 O -0.04515(19) 0.26470(13) -0.3320(4)
O10 O -0.08694(19) 0.17245(13) -0.4968(4)
C17 C 0.1113(3) 0.20345(19) -0.1072(5)
H9 H 0.1013 0.2487 -0.0845
O11 O 0.8151(2) 0.15779(14) -0.1403(4)
H10 H 0.7898 0.1314 -0.2334
H11 H 0.8025 0.2059 -0.1984
O12 O 1.0046(3) 0.0984(2) 0.1348(7)
H12 H 1.0452 0.0699 0.1874
H13 H 0.9518 0.0794 0.1050
Eu1B Eu 0.135151(12) -0.141278(8) -0.19196(2)
Eu1C Eu -0.135151(12) 0.358722(8) -0.30804(2)
Eu1_2 Eu -0.135151(12) 0.141278(8) -0.80804(2)
O7B O 0.88324(19) 0.03153(13) 0.3471(4)
O8B O 0.8095(2) 0.03476(13) 0.0445(4)
O9C O 0.95485(19) 0.23530(13) 0.1680(4)
O10_2 O 0.91306(19) 0.17245(13) 0.5032(4)
O13 O 0.3985(2) -0.01551(15) 0.9009(4)
H14 H 0.3642 -0.0512 0.8501
H15 H 0.4184 -0.0374 1.0106
O14 O 0.29002(19) -0.07023(14) 1.3827(4)
H16 H 0.2900 -0.0862 1.4922
H17 H 0.3397 -0.0732 1.3433
O15 O 0.1030(5) -0.0050(5) 1.2645(10)
H18 H 0.1039 -0.0076 1.3775
H19 H 0.1534 -0.0034 1.2463
O16? O 0.1382(4) 0.0285(3) 1.3202(8)
loop_
_geom_bond_atom_site_label_1
_geom_bond_atom_site_label_2
_geom_bond_site_symmetry_1
_geom_bond_site_symmetry_2
Eu1 O1 1_555 1_555
O1 C1 1_555 1_555
O2 Eu1 1_555 1_555
C1 O2 1_555 1_555
C2 C1 1_555 1_555
C3 C2 1_555 1_555
H1 C3 1_555 1_555
C4 C3 1_555 1_555
C5 C4 1_555 1_555
O3 C5 1_555 1_555
H2 O3 1_555 1_555
O4 C5 1_555 1_555
C6 C4 1_555 1_555
H3 C6 1_555 1_555
C7 C6 1_555 1_555
C8 C2 1_555 1_555
H4 C8 1_555 1_555
O5 C7 1_555 1_555
C9 O5 1_555 1_555
H5 C9 1_555 1_555
H6 C9 1_555 1_555
O6 C9 1_555 1_555
C10 O6 1_555 1_555
C11 C10 1_555 1_555
H7 C11 1_555 1_555
C12 C11 1_555 1_555
C13 C12 1_555 1_555
O7 C13 1_555 1_555
O8 C13 1_555 1_555
C14 C12 1_555 1_555
H8 C14 1_555 1_555
C15 C14 1_555 1_555
C16 C15 1_555 1_555
O9 C16 1_555 1_555
O10 C16 1_555 1_555
C17 C10 1_555 1_555
H9 C17 1_555 1_555
O11 Eu1 1_555 1_555
H10 O11 1_555 1_555
H11 O11 1_555 1_555
O12 Eu1 1_555 1_555
H12 O12 1_555 1_555
H13 O12 1_555 1_555
O13 H14 1_555 1_555
H15 O13 1_555 1_555
O14 H16 1_555 1_555
H17 O14 1_555 1_555
O15 H18 1_555 1_555
H19 O15 1_555 1_555
Eu1B O7 1_555 1_555
Eu1C O9 1_555 1_555
Eu1_2 O10 1_555 1_555
O7B Eu1 1_555 1_555
O8B Eu1 1_555 1_555
O9C Eu1 1_555 1_555
O10_2 Eu1 1_555 1_555
C7 C8 1_555 1_555
O8 Eu1B 1_555 1_555
C15 C17 1_555 1_555

#END
