
#######################################################################
#
#                 Cambridge Crystallographic Data Centre
#                                CCDC 
#
#######################################################################
#
# If this CIF has been generated from an entry in the Cambridge 
# Structural Database, then it will include bibliographic, chemical, 
# crystal, experimental, refinement or atomic coordinate data resulting 
# from the CCDC's data processing and validation procedures.
#
#######################################################################

data_UJAVAD
_symmetry_cell_setting           triclinic
_symmetry_space_group_name_H-M   'P -1'
_symmetry_Int_Tables_number      2
_space_group_name_Hall           '-P 1'
loop_
_symmetry_equiv_pos_site_id
_symmetry_equiv_pos_as_xyz
1 x,y,z
2 -x,-y,-z
_cell_length_a                   8.5589(2)
_cell_length_b                   9.9686(3)
_cell_length_c                   12.5240(4)
_cell_angle_alpha                91.3986(13)
_cell_angle_beta                 94.9577(12)
_cell_angle_gamma                93.4852(11)
_cell_volume                     1062.11
loop_
_atom_site_label
_atom_site_type_symbol
_atom_site_fract_x
_atom_site_fract_y
_atom_site_fract_z
Sm1 Sm 0.40285(3) 0.60437(2) -0.322458(18)
O1 O 0.3603(4) 0.7348(3) -0.1518(3)
O2 O 0.4726(4) 0.8397(3) -0.2810(3)
C1 C 0.4076(6) 0.8419(5) -0.1944(4)
C2 C 0.3795(5) 0.9756(5) -0.1444(4)
C3 C 0.4212(5) 1.0912(4) -0.1984(4)
H1 H 0.4709 1.0851 -0.2632
C4 C 0.3890(5) 1.2155(5) -0.1558(4)
C5 C 0.4180(6) 1.3417(4) -0.2164(4)
O3 O 0.5084(4) 1.3488(3) -0.2911(3)
O4 O 0.3434(4) 1.4426(3) -0.1906(3)
C6 C 0.3194(6) 1.2245(5) -0.0601(4)
H2 H 0.2975 1.3099 -0.0316
C7 C 0.2814(6) 1.1080(5) -0.0057(4)
C8 C 0.3111(5) 0.9821(5) -0.0476(4)
H3 H 0.2853 0.9026 -0.0109
O5 O 0.2136(4) 1.1288(3) 0.0896(3)
C9 C 0.1574(6) 1.0108(5) 0.1396(4)
H4 H 0.2466 0.9599 0.1685
H5 H 0.0903 0.9521 0.0870
C10 C 0.0637(6) 1.0553(5) 0.2290(4)
H6 H 0.1301 1.1121 0.2832
H7 H -0.0263 1.1061 0.2012
O6 O 0.0108(4) 0.9304(3) 0.2736(3)
C11 C -0.0882(5) 0.9327(5) 0.3541(4)
C12 C -0.1372(5) 0.8065(4) 0.3883(4)
H8 H -0.0992 0.7279 0.3580
C13 C -0.2425(5) 0.7957(4) 0.4672(4)
C14 C -0.3032(5) 0.6563(4) 0.4960(4)
O7 O -0.2616(4) 0.5573(3) 0.4425(3)
O8 O -0.3928(4) 0.6459(3) 0.5696(3)
C15 C -0.2936(5) 0.9107(4) 0.5154(4)
H9 H -0.3618 0.9037 0.5712
C16 C -0.2427(5) 1.0365(4) 0.4799(4)
C17 C -0.2964(5) 1.1633(4) 0.5261(4)
O9 O -0.2874(4) 1.2712(3) 0.4810(3)
O10 O -0.3501(4) 1.1494(3) 0.6209(3)
H10 H -0.3985 1.2172 0.6361
C18 C -0.1411(5) 1.0482(5) 0.3981(4)
H11 H -0.1091 1.1341 0.3734
O11 O 0.1221(4) 0.6312(3) -0.2965(3)
H12 H 0.1070 0.6448 -0.2269
H13 H 0.0405 0.5847 -0.3332
O12 O 0.6572(4) 0.6023(3) -0.2034(3)
H14 H 0.7058 0.6828 -0.1848
H15 H 0.6477 0.5490 -0.1474
Sm1_2 Sm 0.40285(3) 1.60437(2) -0.322458(18)
Sm1A Sm -0.40285(3) 0.39563(2) 0.322458(18)
Sm1_3 Sm -0.59715(3) 0.60437(2) 0.677542(18)
Sm1A_2 Sm -0.40285(3) 1.39563(2) 0.322458(18)
O3_2 O 0.5084(4) 0.3488(3) -0.2911(3)
O4_2 O 0.3434(4) 0.4426(3) -0.1906(3)
O7A O 0.2616(4) 0.4427(3) -0.4425(3)
O8_2 O 0.6072(4) 0.6459(3) -0.4304(3)
O9A O 0.2874(4) 0.7288(3) -0.4810(3)
O13 O 0.3270(6) 0.5673(4) 0.0386(4)
H16 H 0.4092 0.6140 0.0157
H17 H 0.2436 0.5503 -0.0096
O14 O 0.1386(4) 0.5453(4) 0.3403(3)
H18 H 0.1828 0.4774 0.3080
H19 H 0.0651 0.5826 0.2972
O15 O 0.0474(11) 0.5748(9) 0.9180(7)
O16 O -0.0760(14) 0.3142(12) 0.8461(10)
loop_
_geom_bond_atom_site_label_1
_geom_bond_atom_site_label_2
_geom_bond_site_symmetry_1
_geom_bond_site_symmetry_2
Sm1 O1 1_555 1_555
O1 C1 1_555 1_555
O2 Sm1 1_555 1_555
C1 O2 1_555 1_555
C2 C1 1_555 1_555
C3 C2 1_555 1_555
H1 C3 1_555 1_555
C4 C3 1_555 1_555
C5 C4 1_555 1_555
O3 C5 1_555 1_555
O4 C5 1_555 1_555
C6 C4 1_555 1_555
H2 C6 1_555 1_555
C7 C6 1_555 1_555
C8 C2 1_555 1_555
H3 C8 1_555 1_555
O5 C7 1_555 1_555
C9 O5 1_555 1_555
H4 C9 1_555 1_555
H5 C9 1_555 1_555
C10 C9 1_555 1_555
H6 C10 1_555 1_555
H7 C10 1_555 1_555
O6 C10 1_555 1_555
C11 O6 1_555 1_555
C12 C11 1_555 1_555
H8 C12 1_555 1_555
C13 C12 1_555 1_555
C14 C13 1_555 1_555
O7 C14 1_555 1_555
O8 C14 1_555 1_555
C15 C13 1_555 1_555
H9 C15 1_555 1_555
C16 C15 1_555 1_555
C17 C16 1_555 1_555
O9 C17 1_555 1_555
O10 C17 1_555 1_555
H10 O10 1_555 1_555
C18 C11 1_555 1_555
H11 C18 1_555 1_555
O11 Sm1 1_555 1_555
H12 O11 1_555 1_555
H13 O11 1_555 1_555
O12 Sm1 1_555 1_555
H14 O12 1_555 1_555
H15 O12 1_555 1_555
O13 H16 1_555 1_555
H17 O13 1_555 1_555
O14 H18 1_555 1_555
H19 O14 1_555 1_555
Sm1_2 O3 1_555 1_555
Sm1A O7 1_555 1_555
Sm1_3 O8 1_555 1_555
Sm1A_2 O9 1_555 1_555
O3_2 Sm1 1_555 1_555
O4_2 Sm1 1_555 1_555
O7A Sm1 1_555 1_555
O8_2 Sm1 1_555 1_555
O9A Sm1 1_555 1_555
O4 Sm1_2 1_555 1_555
C7 C8 1_555 1_555
C16 C18 1_555 1_555

#END
