
#######################################################################
#
#                 Cambridge Crystallographic Data Centre
#                                CCDC 
#
#######################################################################
#
# If this CIF has been generated from an entry in the Cambridge 
# Structural Database, then it will include bibliographic, chemical, 
# crystal, experimental, refinement or atomic coordinate data resulting 
# from the CCDC's data processing and validation procedures.
#
#######################################################################

data_UJAZAG
_symmetry_cell_setting           monoclinic
_symmetry_space_group_name_H-M   'P 21/c'
_symmetry_Int_Tables_number      14
_space_group_name_Hall           '-P 2ybc'
loop_
_symmetry_equiv_pos_site_id
_symmetry_equiv_pos_as_xyz
1 x,y,z
2 x,1/2-y,1/2+z
3 -x,-y,-z
4 -x,1/2+y,1/2-z
_cell_length_a                   22.3308(11)
_cell_length_b                   7.8991(4)
_cell_length_c                   18.5781(9)
_cell_angle_alpha                90
_cell_angle_beta                 96.296(1)
_cell_angle_gamma                90
_cell_volume                     3257.29
loop_
_atom_site_label
_atom_site_type_symbol
_atom_site_fract_x
_atom_site_fract_y
_atom_site_fract_z
Zn1 Zn 0.125106(11) 0.21461(3) 0.372791(13)
N1 N 0.14344(9) 0.5949(2) 0.33743(11)
O1 O 0.15466(8) 0.4404(2) 0.32326(9)
O2 O 0.10411(8) 0.6295(2) 0.37729(10)
O3 O 0.17207(9) 0.7070(2) 0.31005(11)
N2 N 0.22073(9) 0.2814(3) 0.47004(11)
O4 O 0.16480(7) 0.3095(2) 0.47310(10)
O5 O 0.23428(9) 0.1943(2) 0.41817(10)
O6 O 0.25785(8) 0.3407(3) 0.51668(11)
O13 O 0.12947(8) -0.0319(2) 0.42231(9)
H1 H 0.1210(13) -0.120(3) 0.3988(15)
H2 H 0.1626(8) -0.053(4) 0.4463(14)
C1 C -0.06513(10) 0.3459(3) 0.46116(12)
H5 H -0.1007 0.3746 0.4821
C2 C -0.01892(11) 0.2617(3) 0.50133(12)
H6 H -0.0222 0.2311 0.5502
C3 C 0.03274(11) 0.2220(3) 0.46912(12)
H7 H 0.0642 0.1624 0.4970
N5 N 0.04032(8) 0.2635(2) 0.40117(10)
C4 C 0.00309(10) 0.3919(3) 0.28747(12)
H8 H 0.0394 0.3615 0.2685
C5 C -0.04006(10) 0.4765(3) 0.24511(12)
H9 H -0.0335 0.5056 0.1970
N6 N -0.13753(8) 0.6109(2) 0.22727(10)
C6 C -0.19038(10) 0.6468(3) 0.25126(12)
H10 H -0.2196 0.7070 0.2202
C7 C -0.20457(10) 0.6000(3) 0.31959(12)
H11 H -0.2431 0.6251 0.3340
C8 C -0.16225(10) 0.5173(3) 0.36590(12)
H12 H -0.1708 0.4877 0.4133
C9 C -0.10625(10) 0.4768(3) 0.34285(12)
C10 C -0.05918(10) 0.3893(3) 0.38882(11)
C11 C -0.00497(10) 0.3477(3) 0.36037(12)
C12 C -0.09558(10) 0.5226(3) 0.27184(12)
N6C N 0.13753(8) 0.1109(2) 0.27273(10)
Zn1C Zn -0.125106(11) 0.71461(3) 0.127209(13)
Zn2 Zn 0.369982(11) 0.81047(3) 0.132378(13)
N3 N 0.35207(9) 0.4423(3) 0.14802(11)
O7 O 0.35343(8) 0.5750(2) 0.18536(9)
O8 O 0.35512(11) 0.4549(3) 0.08161(11)
O9 O 0.34428(10) 0.3034(2) 0.17769(11)
N4 N 0.27220(9) 0.7753(3) 0.02590(11)
O10 O 0.28013(8) 0.7911(2) 0.09463(9)
O11 O 0.31591(9) 0.7944(3) -0.00926(11)
O12 O 0.22119(9) 0.7480(3) -0.00372(11)
O14 O 0.37247(8) 1.0550(2) 0.08557(9)
H3 H 0.3467(11) 1.068(4) 0.0494(10)
H4 H 0.3650(13) 1.133(3) 0.1143(12)
C13 C 0.34687(10) 0.9860(3) 0.37830(12)
H13 H 0.3409 1.0110 0.4270
C14 C 0.30307(10) 0.9030(3) 0.33429(12)
H14 H 0.2661 0.8725 0.3517
C15 C 0.31352(10) 0.8641(3) 0.26374(12)
H15 H 0.2832 0.8047 0.2340
N7 N 0.36415(8) 0.9061(2) 0.23574(10)
C16 C 0.46152(10) 1.0412(3) 0.24860(12)
H16 H 0.4657 1.0154 0.1995
C17 C 0.50650(10) 1.1235(3) 0.28921(12)
H17 H 0.5418 1.1541 0.2681
N8 N 0.54830(8) 1.2491(2) 0.40231(10)
C18 C 0.54238(11) 1.2917(3) 0.47078(12)
H18 H 0.5747 1.3498 0.4978
C19 C 0.49128(11) 1.2551(3) 0.50453(13)
H19 H 0.4889 1.2887 0.5532
C20 C 0.44458(11) 1.1704(3) 0.46676(12)
H20 H 0.4095 1.1438 0.4892
C21 C 0.44869(10) 1.1225(3) 0.39452(12)
C22 C 0.40061(10) 1.0338(3) 0.35104(12)
C23 C 0.40778(10) 0.9925(3) 0.27860(12)
C24 C 0.50172(10) 1.1653(3) 0.36337(12)
N8C N 0.45170(8) 0.7491(2) 0.09769(10)
Zn2C Zn 0.630018(11) 1.31047(3) 0.367622(13)
N9 N 0.07014(11) 0.4270(3) 0.13859(12)
C25 C 0.11874(13) 0.4717(3) 0.14137(14)
C26 C 0.18097(13) 0.5305(4) 0.14373(17)
H21 H 0.1821 0.6355 0.1158
H22 H 0.2053 0.4439 0.1229
H23 H 0.1972 0.5517 0.1941
N10 N 0.57129(11) 1.0686(3) 0.14054(12)
C27 C 0.61919(12) 1.0193(3) 0.14662(13)
C28 C 0.68044(13) 0.9525(4) 0.15448(16)
H24 H 0.6921 0.9218 0.2052
H25 H 0.7081 1.0389 0.1397
H26 H 0.6823 0.8520 0.1239
loop_
_geom_bond_atom_site_label_1
_geom_bond_atom_site_label_2
_geom_bond_site_symmetry_1
_geom_bond_site_symmetry_2
Zn1 O1 1_555 1_555
Zn2 O7 1_555 1_555
N1 O1 1_555 1_555
O2 N1 1_555 1_555
O3 N1 1_555 1_555
N2 O4 1_555 1_555
O4 Zn1 1_555 1_555
O5 N2 1_555 1_555
O6 N2 1_555 1_555
N3 O7 1_555 1_555
O8 N3 1_555 1_555
O9 N3 1_555 1_555
N4 O10 1_555 1_555
O10 Zn2 1_555 1_555
O11 N4 1_555 1_555
O12 N4 1_555 1_555
O13 Zn1 1_555 1_555
H1 O13 1_555 1_555
H2 O13 1_555 1_555
O14 Zn2 1_555 1_555
H3 O14 1_555 1_555
H4 O14 1_555 1_555
C1 H5 1_555 1_555
C2 C1 1_555 1_555
H6 C2 1_555 1_555
C3 C2 1_555 1_555
H7 C3 1_555 1_555
N5 Zn1 1_555 1_555
C4 H8 1_555 1_555
C5 C4 1_555 1_555
H9 C5 1_555 1_555
N6 C6 1_555 1_555
C6 H10 1_555 1_555
C7 C6 1_555 1_555
H11 C7 1_555 1_555
C8 C7 1_555 1_555
H12 C8 1_555 1_555
C9 C8 1_555 1_555
C10 C1 1_555 1_555
C11 N5 1_555 1_555
C12 C5 1_555 1_555
C13 H13 1_555 1_555
C14 C13 1_555 1_555
H14 C14 1_555 1_555
C15 C14 1_555 1_555
H15 C15 1_555 1_555
N7 Zn2 1_555 1_555
C16 H16 1_555 1_555
C17 C16 1_555 1_555
H17 C17 1_555 1_555
N8 C18 1_555 1_555
C18 H18 1_555 1_555
C19 C18 1_555 1_555
H19 C19 1_555 1_555
C20 C19 1_555 1_555
H20 C20 1_555 1_555
C21 C20 1_555 1_555
C22 C13 1_555 1_555
C23 N7 1_555 1_555
C24 C17 1_555 1_555
N9 C25 1_555 1_555
C25 C26 1_555 1_555
C26 H21 1_555 1_555
H22 C26 1_555 1_555
H23 C26 1_555 1_555
N10 C27 1_555 1_555
C27 C28 1_555 1_555
C28 H24 1_555 1_555
H25 C28 1_555 1_555
H26 C28 1_555 1_555
N6C Zn1 1_555 1_555
N8C Zn2 1_555 1_555
Zn1C N6 1_555 1_555
Zn2C N8 1_555 1_555
C3 N5 1_555 1_555
C4 C11 1_555 1_555
N6 C12 1_555 1_555
C9 C10 1_555 1_555
C9 C12 1_555 1_555
C10 C11 1_555 1_555
C15 N7 1_555 1_555
C16 C23 1_555 1_555
N8 C24 1_555 1_555
C21 C22 1_555 1_555
C21 C24 1_555 1_555
C22 C23 1_555 1_555

#END
