
#######################################################################
#
#                 Cambridge Crystallographic Data Centre
#                                CCDC 
#
#######################################################################
#
# If this CIF has been generated from an entry in the Cambridge 
# Structural Database, then it will include bibliographic, chemical, 
# crystal, experimental, refinement or atomic coordinate data resulting 
# from the CCDC's data processing and validation procedures.
#
#######################################################################

data_UJEGAR
_symmetry_cell_setting           monoclinic
_symmetry_space_group_name_H-M   'P 2/c'
_symmetry_Int_Tables_number      13
_space_group_name_Hall           '-P 2yc'
loop_
_symmetry_equiv_pos_site_id
_symmetry_equiv_pos_as_xyz
1 x,y,z
2 x,-y,1/2+z
3 -x,-y,-z
4 -x,y,1/2-z
_cell_length_a                   15.505(2)
_cell_length_b                   11.280(1)
_cell_length_c                   21.938(2)
_cell_angle_alpha                90
_cell_angle_beta                 107.268(2)
_cell_angle_gamma                90
_cell_volume                     3663.94
loop_
_atom_site_label
_atom_site_type_symbol
_atom_site_fract_x
_atom_site_fract_y
_atom_site_fract_z
I1 I 0.65664(3) 1.26162(4) 0.70876(2)
I2 I 0.63446(3) 1.20194(4) 0.82443(3)
I3 I 0.59340(4) 1.19579(4) 0.97376(2)
I4 I 0.75216(3) 1.02928(5) 1.01037(2)
I5 I 0.89967(4) 0.86649(7) 1.04055(3)
I6 I 1.05845(3) 0.70800(4) 0.97499(2)
I7 I 1.18284(3) 0.54003(4) 0.94997(2)
I8 I 0.68391(3) 1.35674(4) 0.56792(2)
I9 I 1.01370(3) 0.75098(4) 0.814422(19)
I8C I 1.31609(3) 0.35674(4) 0.93208(2)
I7C I 0.81716(3) 1.54003(4) 0.55003(2)
I9C I 0.98630(3) 0.75098(4) 0.685578(19)
I1C I 1.34336(3) 0.26162(4) 0.79124(2)
I2C I 1.36554(3) 0.20194(4) 0.67557(3)
I3C I 1.40660(4) 0.19579(4) 0.52624(2)
I4C I 1.24784(3) 0.02928(5) 0.48963(2)
I5C I 1.10033(4) -0.13351(7) 0.45945(3)
I6C I 0.94155(3) -0.29200(4) 0.52501(2)
I7C_2 I 0.81716(3) -0.45997(4) 0.55003(2)
I9C_2 I 0.98630(3) -0.24902(4) 0.685578(19)
I8_2 I 0.68391(3) -0.64326(4) 0.56792(2)
I9_2 I 1.01370(3) -0.24902(4) 0.814422(19)
Zn1 Zn 0.68138(4) 0.72811(5) 0.77365(3)
N1 N 0.5735(3) 0.6258(4) 0.7058(2)
N2 N 0.6490(3) 0.6893(4) 0.6340(2)
H1 H 0.6627 0.6819 0.5980
N3 N 0.6956(3) 0.7613(4) 0.6818(2)
N4 N 0.7734(3) 0.8817(4) 0.7851(2)
N5 N 0.5893(3) 0.8245(4) 0.8161(2)
N6 N 0.6888(3) 0.7564(4) 0.9107(2)
H2 H 0.7121 0.7585 0.9525
N7 N 0.7280(3) 0.6931(4) 0.8731(2)
N8 N 0.7865(3) 0.5863(4) 0.7871(2)
C1 C 0.5018(4) 0.5702(4) 0.7164(3)
C2 C 0.4348(4) 0.5158(5) 0.6685(3)
H3 H 0.3851 0.4786 0.6777
C3 C 0.4415(4) 0.5163(5) 0.6069(3)
H4 H 0.3970 0.4777 0.5735
C4 C 0.5133(4) 0.5734(5) 0.5943(3)
H5 H 0.5189 0.5758 0.5524
C5 C 0.5776(3) 0.6277(5) 0.6458(2)
C6 C 0.7531(4) 0.8391(5) 0.6752(3)
H6 H 0.7674 0.8488 0.6363
C7 C 0.7947(4) 0.9112(5) 0.7314(3)
C8 C 0.8509(4) 1.0050(5) 0.7288(3)
H7 H 0.8639 1.0242 0.6903
C9 C 0.8883(5) 1.0710(6) 0.7847(4)
H8 H 0.9278 1.1354 0.7847
C10 C 0.8669(4) 1.0414(6) 0.8398(4)
H9 H 0.8910 1.0851 0.8781
C11 C 0.8091(4) 0.9460(6) 0.8374(3)
H10 H 0.7944 0.9257 0.8752
C12 C 0.5125(3) 0.8832(4) 0.7857(2)
C13 C 0.4579(4) 0.9383(5) 0.8166(3)
H11 H 0.4050 0.9797 0.7935
C14 C 0.4832(4) 0.9310(5) 0.8834(3)
H12 H 0.4482 0.9695 0.9064
C15 C 0.5584(4) 0.8683(5) 0.9151(3)
H13 H 0.5750 0.8596 0.9602
C16 C 0.6107(4) 0.8170(5) 0.8800(3)
C17 C 0.7973(4) 0.6269(5) 0.8959(3)
H14 H 0.8262 0.6207 0.9405
C18 C 0.8290(4) 0.5615(5) 0.8491(3)
C19 C 0.8983(4) 0.4788(5) 0.8672(3)
H15 H 0.9274 0.4629 0.9110
C20 C 0.9241(4) 0.4198(6) 0.8197(3)
H16 H 0.9717 0.3633 0.8307
C21 C 0.8803(4) 0.4440(6) 0.7566(3)
H17 H 0.8963 0.4038 0.7234
C22 C 0.8123(4) 0.5284(5) 0.7426(3)
H18 H 0.7826 0.5458 0.6990
C1C C 0.4982(4) 0.5702(4) 0.7836(3)
C12C C 0.4875(3) 0.8832(4) 0.7143(2)
N5C N 0.4107(3) 0.8245(4) 0.6839(2)
C13C C 0.5421(4) 0.9383(5) 0.6834(3)
H11C H 0.5950 0.9797 0.7065
C14C C 0.5168(4) 0.9310(5) 0.6166(3)
Zn1C Zn 0.31862(4) 0.72811(5) 0.72635(3)
C16C C 0.3893(4) 0.8170(5) 0.6200(3)
N6C N 0.3112(3) 0.7564(4) 0.5893(2)
C15C C 0.4416(4) 0.8683(5) 0.5849(3)
H12C H 0.5518 0.9695 0.5936
H13C H 0.4250 0.8596 0.5398
H2C H 0.2879 0.7585 0.5475
N7C N 0.2720(3) 0.6931(4) 0.6269(2)
C17C C 0.2027(4) 0.6269(5) 0.6041(3)
H14C H 0.1738 0.6207 0.5595
C18C C 0.1710(4) 0.5615(5) 0.6509(3)
N8C N 0.2135(3) 0.5863(4) 0.7129(2)
C19C C 0.1017(4) 0.4788(5) 0.6328(3)
H15C H 0.0726 0.4629 0.5890
C20C C 0.0759(4) 0.4198(6) 0.6803(3)
C22C C 0.1877(4) 0.5284(5) 0.7574(3)
H16C H 0.0283 0.3633 0.6693
C21C C 0.1197(4) 0.4440(6) 0.7434(3)
H18C H 0.2174 0.5458 0.8010
H17C H 0.1037 0.4038 0.7766
N1C N 0.4265(3) 0.6258(4) 0.7942(2)
C2C C 0.5652(4) 0.5158(5) 0.8315(3)
H3C H 0.6149 0.4786 0.8223
C3C C 0.5585(4) 0.5163(5) 0.8931(3)
C5C C 0.4224(3) 0.6277(5) 0.8542(2)
N2C N 0.3510(3) 0.6893(4) 0.8660(2)
C4C C 0.4867(4) 0.5734(5) 0.9057(3)
H4C H 0.6030 0.4777 0.9265
H1C H 0.3373 0.6819 0.9020
N3C N 0.3044(3) 0.7613(4) 0.8182(2)
C6C C 0.2469(4) 0.8391(5) 0.8248(3)
H6C H 0.2326 0.8488 0.8637
C7C C 0.2053(4) 0.9112(5) 0.7686(3)
N4C N 0.2266(3) 0.8817(4) 0.7149(2)
C8C C 0.1491(4) 1.0050(5) 0.7712(3)
C11C C 0.1909(4) 0.9460(6) 0.6626(3)
H7C H 0.1361 1.0242 0.8097
C9C C 0.1117(5) 1.0710(6) 0.7153(4)
H8C H 0.0722 1.1354 0.7153
C10C C 0.1331(4) 1.0414(6) 0.6602(4)
H10C H 0.2056 0.9257 0.6248
H9C H 0.1090 1.0851 0.6219
H5C H 0.4811 0.5758 0.9476
loop_
_geom_bond_atom_site_label_1
_geom_bond_atom_site_label_2
_geom_bond_site_symmetry_1
_geom_bond_site_symmetry_2
I1 I2 1_555 1_555
I2 I3 1_555 1_555
I3 I4 1_555 1_555
I4 I5 1_555 1_555
I5 I6 1_555 1_555
I6 I7 1_555 1_555
I7 I8C 1_555 1_555
I8 I1 1_555 1_555
I9 I6 1_555 1_555
Zn1 N1 1_555 1_555
N1 C1 1_555 1_555
N2 H1 1_555 1_555
N3 Zn1 1_555 1_555
N4 Zn1 1_555 1_555
N5 Zn1 1_555 1_555
N6 H2 1_555 1_555
N7 Zn1 1_555 1_555
N8 Zn1 1_555 1_555
C1 C2 1_555 1_555
C2 H3 1_555 1_555
C3 C2 1_555 1_555
H4 C3 1_555 1_555
C4 C3 1_555 1_555
H5 C4 1_555 1_555
C5 N1 1_555 1_555
C6 N3 1_555 1_555
H6 C6 1_555 1_555
C7 N4 1_555 1_555
C8 C7 1_555 1_555
H7 C8 1_555 1_555
C9 C8 1_555 1_555
H8 C9 1_555 1_555
C10 C9 1_555 1_555
H9 C10 1_555 1_555
C11 N4 1_555 1_555
H10 C11 1_555 1_555
C12 N5 1_555 1_555
C13 C12 1_555 1_555
H11 C13 1_555 1_555
C14 C13 1_555 1_555
H12 C14 1_555 1_555
C15 C14 1_555 1_555
H13 C15 1_555 1_555
C16 N5 1_555 1_555
C17 N7 1_555 1_555
H14 C17 1_555 1_555
C18 N8 1_555 1_555
C19 C18 1_555 1_555
H15 C19 1_555 1_555
C20 C19 1_555 1_555
H16 C20 1_555 1_555
C21 C20 1_555 1_555
H17 C21 1_555 1_555
C22 N8 1_555 1_555
H18 C22 1_555 1_555
I8C I1C 1_555 1_555
I7C I8 1_555 1_555
I9C I9 1_555 1_555
C1C C1 1_555 1_555
C12C C12 1_555 1_555
I1C I2C 1_555 1_555
I2C I3C 1_555 1_555
I3C I4C 1_555 1_555
I4C I5C 1_555 1_555
I5C I6C 1_555 1_555
I6C I7C_2 1_555 1_555
I7C_2 I8_2 1_555 1_555
I9C_2 I6C 1_555 1_555
I9_2 I9C_2 1_555 1_555
N5C C12C 1_555 1_555
C13C C12C 1_555 1_555
H11C C13C 1_555 1_555
C14C C13C 1_555 1_555
Zn1C N5C 1_555 1_555
C16C N5C 1_555 1_555
N6C C16C 1_555 1_555
C15C C14C 1_555 1_555
H12C C14C 1_555 1_555
H13C C15C 1_555 1_555
H2C N6C 1_555 1_555
N7C Zn1C 1_555 1_555
C17C N7C 1_555 1_555
H14C C17C 1_555 1_555
C18C C17C 1_555 1_555
N8C Zn1C 1_555 1_555
C19C C18C 1_555 1_555
H15C C19C 1_555 1_555
C20C C19C 1_555 1_555
C22C N8C 1_555 1_555
H16C C20C 1_555 1_555
C21C C20C 1_555 1_555
H18C C22C 1_555 1_555
H17C C21C 1_555 1_555
N1C C1C 1_555 1_555
C2C C1C 1_555 1_555
H3C C2C 1_555 1_555
C3C C2C 1_555 1_555
C5C N1C 1_555 1_555
N2C C5C 1_555 1_555
C4C C3C 1_555 1_555
H4C C3C 1_555 1_555
H1C N2C 1_555 1_555
N3C Zn1C 1_555 1_555
C6C N3C 1_555 1_555
H6C C6C 1_555 1_555
C7C C6C 1_555 1_555
N4C Zn1C 1_555 1_555
C8C C7C 1_555 1_555
C11C N4C 1_555 1_555
H7C C8C 1_555 1_555
C9C C8C 1_555 1_555
H8C C9C 1_555 1_555
C10C C11C 1_555 1_555
H10C C11C 1_555 1_555
H9C C10C 1_555 1_555
H5C C4C 1_555 1_555
N2 N3 1_555 1_555
N2 C5 1_555 1_555
N6 N7 1_555 1_555
N6 C16 1_555 1_555
C4 C5 1_555 1_555
C6 C7 1_555 1_555
C10 C11 1_555 1_555
C15 C16 1_555 1_555
C17 C18 1_555 1_555
C21 C22 1_555 1_555
Zn1C N1C 1_555 1_555
C16C C15C 1_555 1_555
N6C N7C 1_555 1_555
C18C N8C 1_555 1_555
C22C C21C 1_555 1_555
C5C C4C 1_555 1_555
N2C N3C 1_555 1_555
C7C N4C 1_555 1_555
C9C C10C 1_555 1_555

#END
