
#######################################################################
#
#                 Cambridge Crystallographic Data Centre
#                                CCDC 
#
#######################################################################
#
# If this CIF has been generated from an entry in the Cambridge 
# Structural Database, then it will include bibliographic, chemical, 
# crystal, experimental, refinement or atomic coordinate data resulting 
# from the CCDC's data processing and validation procedures.
#
#######################################################################

data_UJEMUS
_symmetry_cell_setting           monoclinic
_symmetry_space_group_name_H-M   'P 21'
_symmetry_Int_Tables_number      4
_space_group_name_Hall           'P 2yb'
loop_
_symmetry_equiv_pos_site_id
_symmetry_equiv_pos_as_xyz
1 x,y,z
2 -x,1/2+y,-z
_cell_length_a                   7.8327(16)
_cell_length_b                   19.556(4)
_cell_length_c                   12.624(3)
_cell_angle_alpha                90
_cell_angle_beta                 97.82(3)
_cell_angle_gamma                90
_cell_volume                     1915.71
loop_
_atom_site_label
_atom_site_type_symbol
_atom_site_fract_x
_atom_site_fract_y
_atom_site_fract_z
S1 S 0.5691(5) 0.32613(18) 0.1275(3)
O1 O 0.6310(11) 0.3354(5) 0.0262(7)
F1 F 0.8873(10) 0.3026(6) 0.2173(8)
F2 F 0.6930(11) 0.2610(7) 0.3022(8)
O2 O 0.4177(12) 0.2817(5) 0.1251(8)
F3 F 0.7526(13) 0.2167(5) 0.1565(12)
C1 C 0.726(2) 0.2748(9) 0.2048(12)
O3 O 0.5683(16) 0.3858(5) 0.1881(9)
S2 S 0.2764(5) 0.6280(2) 0.3363(3)
O4 O 0.2608(12) 0.6307(5) 0.4462(7)
F4 F 0.3590(12) 0.7243(5) 0.2103(8)
F5 F 0.5086(15) 0.7188(8) 0.3695(10)
F6 F 0.2527(17) 0.7593(6) 0.3472(9)
O5 O 0.419(2) 0.5839(8) 0.3128(13)
C2 C 0.352(2) 0.7084(11) 0.3216(17)
O6 O 0.129(2) 0.6234(10) 0.2590(11)
Cu1 Cu 0.95289(14) 0.45050(6) 0.64413(10)
N1 N -0.1620(10) 0.5678(4) 0.9594(6)
O7 O 0.8229(7) 0.4664(3) 0.7612(5)
N2 N 1.1118(10) 0.4287(4) 0.5322(6)
C3 C -0.0568(13) 0.6523(6) 0.6783(9)
H1 H 0.0529 0.6390 0.6612
C4 C 1.0069(14) 0.3436(6) 0.8059(11)
H2 H 0.9041 0.3610 0.8279
N3 N 0.7988(10) 0.5122(4) 0.5499(7)
N4 N 0.1641(10) 0.4952(4) 0.9485(7)
C5 C 0.8584(13) 0.5372(7) 0.4492(9)
H3 H 0.9576 0.5684 0.4672
H4 H 0.7644 0.5631 0.4067
C6 C 0.1229(13) 0.4804(7) 1.0553(11)
H5 H 0.1494 0.5211 1.1014
H6 H 0.1961 0.4422 1.0866
C7 C 0.6519(11) 0.4804(5) 0.7515(8)
C8 C 0.6498(11) 0.5352(5) 0.5690(8)
H7 H 0.5898 0.5656 0.5183
O8 O -0.1062(8) 0.6263(4) 0.7597(6)
O9 O 1.0571(9) 0.3707(4) 0.7260(6)
C9 C 0.5615(10) 0.4632(5) 0.8339(7)
H8 H 0.6165 0.4371 0.8923
C10 C 0.3119(11) 0.4719(5) 0.9269(8)
H9 H 0.3753 0.4441 0.9801
C11 C 0.3044(11) 0.5187(5) 0.7468(8)
N5 N -0.1437(11) 0.6956(5) 0.6164(8)
C12 C -0.2772(13) 0.6168(7) 0.9399(9)
H10 H -0.2720 0.6459 0.8801
C13 C 0.5680(11) 0.5175(5) 0.6633(7)
C14 C 0.3882(10) 0.4837(5) 0.8329(8)
N6 N 1.0821(13) 0.2945(5) 0.8608(9)
C15 C -0.4219(14) 0.5842(6) 1.0863(10)
H11 H -0.5103 0.5909 1.1298
C16 C 0.3949(10) 0.5368(5) 0.6604(7)
H12 H 0.3386 0.5618 0.6012
C17 C 1.0830(12) 0.4449(7) 0.4288(8)
C18 C -0.4075(13) 0.6276(6) 1.0043(9)
H13 H -0.4847 0.6650 0.9905
C19 C 1.3655(16) 0.4040(7) 0.4018(13)
H14 H 1.4541 0.3974 0.3584
C20 C 1.3882(14) 0.3836(6) 0.5062(11)
H15 H 1.4906 0.3605 0.5352
C21 C -0.1793(15) 0.5218(6) 1.0363(10)
C22 C -0.3106(13) 0.5313(6) 1.1063(9)
H16 H -0.3181 0.5012 1.1645
C23 C 1.2617(14) 0.3968(6) 0.5691(10)
H17 H 1.2804 0.3830 0.6418
C24 C -0.3224(16) 0.7190(8) 0.6384(13)
H18 H -0.3811 0.6809 0.6688
H19 H -0.3903 0.7338 0.5714
H20 H -0.3099 0.7571 0.6892
C25 C -0.0754(17) 0.7293(7) 0.5258(11)
H21 H -0.0751 0.7790 0.5360
H22 H -0.1483 0.7177 0.4588
H23 H 0.0425 0.7135 0.5225
C26 C 1.0130(18) 0.2620(8) 0.9527(11)
H24 H 1.0878 0.2731 1.0191
H25 H 1.0092 0.2122 0.9429
H26 H 0.8965 0.2791 0.9566
C27 C 0.9111(14) 0.4780(7) 0.3838(9)
H27 H 0.9192 0.4944 0.3104
H28 H 0.8198 0.4427 0.3787
C28 C -0.0633(12) 0.4616(6) 1.0537(8)
H29 H -0.0962 0.4279 0.9961
H30 H -0.0787 0.4398 1.1225
C29 C 1.2075(16) 0.4352(6) 0.3591(11)
H31 H 1.1862 0.4491 0.2864
C30 C 1.2490(17) 0.2679(8) 0.8354(13)
H32 H 1.2851 0.2944 0.7764
H33 H 1.2361 0.2197 0.8146
H34 H 1.3362 0.2721 0.8985
Cu2 Cu 0.00460(14) 0.54938(6) 0.84928(10)
O10 O 0.1354(7) 0.5331(3) 0.7337(5)
Cu1_2 Cu -0.04711(14) 0.45050(6) 0.64413(10)
O7_2 O -0.1771(7) 0.4664(3) 0.7612(5)
Cu2_2 Cu 1.00460(14) 0.54938(6) 0.84928(10)
O10_2 O 1.1354(7) 0.5331(3) 0.7337(5)
loop_
_geom_bond_atom_site_label_1
_geom_bond_atom_site_label_2
_geom_bond_site_symmetry_1
_geom_bond_site_symmetry_2
S1 O1 1_555 1_555
F1 C1 1_555 1_555
F2 C1 1_555 1_555
O2 S1 1_555 1_555
F3 C1 1_555 1_555
C1 S1 1_555 1_555
O3 S1 1_555 1_555
S2 O4 1_555 1_555
F4 C2 1_555 1_555
F5 C2 1_555 1_555
F6 C2 1_555 1_555
O5 S2 1_555 1_555
C2 S2 1_555 1_555
O6 S2 1_555 1_555
Cu1 O7 1_555 1_555
N1 C12 1_555 1_555
O7 C7 1_555 1_555
N2 Cu1 1_555 1_555
C3 H1 1_555 1_555
C4 H2 1_555 1_555
N3 Cu1 1_555 1_555
N4 C6 1_555 1_555
C5 N3 1_555 1_555
H3 C5 1_555 1_555
H4 C5 1_555 1_555
C6 H5 1_555 1_555
H6 C6 1_555 1_555
C7 C9 1_555 1_555
C8 N3 1_555 1_555
H7 C8 1_555 1_555
O8 C3 1_555 1_555
O9 Cu1 1_555 1_555
C9 H8 1_555 1_555
C10 N4 1_555 1_555
H9 C10 1_555 1_555
C11 C14 1_555 1_555
N5 C3 1_555 1_555
C12 H10 1_555 1_555
C13 C7 1_555 1_555
C14 C9 1_555 1_555
N6 C4 1_555 1_555
C15 H11 1_555 1_555
C16 C11 1_555 1_555
H12 C16 1_555 1_555
C17 N2 1_555 1_555
C18 C12 1_555 1_555
H13 C18 1_555 1_555
C19 H14 1_555 1_555
C20 C19 1_555 1_555
H15 C20 1_555 1_555
C21 N1 1_555 1_555
C22 C15 1_555 1_555
H16 C22 1_555 1_555
C23 N2 1_555 1_555
H17 C23 1_555 1_555
C24 N5 1_555 1_555
H18 C24 1_555 1_555
H19 C24 1_555 1_555
H20 C24 1_555 1_555
C25 N5 1_555 1_555
H21 C25 1_555 1_555
H22 C25 1_555 1_555
H23 C25 1_555 1_555
C26 N6 1_555 1_555
H24 C26 1_555 1_555
H25 C26 1_555 1_555
H26 C26 1_555 1_555
C27 C5 1_555 1_555
H27 C27 1_555 1_555
H28 C27 1_555 1_555
C28 C6 1_555 1_555
H29 C28 1_555 1_555
H30 C28 1_555 1_555
C29 C17 1_555 1_555
H31 C29 1_555 1_555
C30 N6 1_555 1_555
H32 C30 1_555 1_555
H33 C30 1_555 1_555
H34 C30 1_555 1_555
Cu2 N1 1_555 1_555
O10 C11 1_555 1_555
Cu1_2 O10 1_555 1_555
O7_2 Cu2 1_555 1_555
Cu2_2 O7 1_555 1_555
O10_2 Cu1 1_555 1_555
C4 O9 1_555 1_555
N4 Cu2 1_555 1_555
C8 C13 1_555 1_555
O8 Cu2 1_555 1_555
C10 C14 1_555 1_555
C13 C16 1_555 1_555
C15 C18 1_555 1_555
C17 C27 1_555 1_555
C19 C29 1_555 1_555
C20 C23 1_555 1_555
C21 C22 1_555 1_555
C21 C28 1_555 1_555
Cu2 O10 1_555 1_555
Cu1_2 O7_2 1_555 1_555
Cu2_2 O10_2 1_555 1_555

#END
