
#######################################################################
#
#                 Cambridge Crystallographic Data Centre
#                                CCDC 
#
#######################################################################
#
# If this CIF has been generated from an entry in the Cambridge 
# Structural Database, then it will include bibliographic, chemical, 
# crystal, experimental, refinement or atomic coordinate data resulting 
# from the CCDC's data processing and validation procedures.
#
#######################################################################

data_UJERUX
_symmetry_cell_setting           triclinic
_symmetry_space_group_name_H-M   'P -1'
_symmetry_Int_Tables_number      2
_space_group_name_Hall           '-P 1'
loop_
_symmetry_equiv_pos_site_id
_symmetry_equiv_pos_as_xyz
1 x,y,z
2 -x,-y,-z
_cell_length_a                   6.930(2)
_cell_length_b                   9.658(3)
_cell_length_c                   13.022(4)
_cell_angle_alpha                93.719(6)
_cell_angle_beta                 99.179(6)
_cell_angle_gamma                94.856(7)
_cell_volume                     854.588
loop_
_atom_site_label
_atom_site_type_symbol
_atom_site_fract_x
_atom_site_fract_y
_atom_site_fract_z
C1 C 0.8579(7) 0.2951(5) -0.1185(4)
C2 C 0.8374(7) 0.3330(5) -0.0070(3)
C3 C 0.7462(7) 0.4493(5) 0.0192(4)
H1 H 0.6946 0.5043 -0.0324
C4 C 0.7318(7) 0.4840(5) 0.1244(4)
H2 H 0.6751 0.5634 0.1439
C5 C 0.8069(7) 0.3933(5) 0.1995(4)
C6 C 0.8919(7) 0.2738(5) 0.1730(4)
H3 H 0.9346 0.2149 0.2239
C7 C 0.9128(8) 0.2425(5) 0.0695(4)
H4 H 0.9741 0.1650 0.0507
C8 C 0.7849(7) 0.4277(5) 0.3120(4)
C9 C 0.7963(8) 0.5644(5) 0.3554(4)
H5 H 0.8206 0.6381 0.3152
C10 C 0.7716(7) 0.5911(5) 0.4588(3)
C11 C 0.7399(7) 0.4815(5) 0.5200(4)
H6 H 0.7293 0.4992 0.5898
C12 C 0.7243(7) 0.3466(5) 0.4766(4)
C13 C 0.7493(7) 0.3136(5) 0.3720(4)
H7 H 0.7427 0.2219 0.3442
C14 C 0.7706(8) 0.7377(5) 0.5015(4)
C15 C 0.6863(7) 0.2279(5) 0.5402(4)
C16 C 0.4701(7) 1.0626(5) 0.7688(4)
H8 H 0.4183 1.1217 0.7202
C17 C 0.4325(7) 1.0824(5) 0.8723(4)
H9 H 0.3580 1.1521 0.8922
C18 C 0.5145(7) 0.9901(5) 0.9439(3)
C19 C 0.6183(8) 0.8834(6) 0.9097(4)
H10 H 0.6673 0.8194 0.9550
C20 C 0.6468(7) 0.8749(5) 0.8064(4)
H11 H 0.7179 0.8051 0.7832
Co1 Co 0.67711(10) 0.95672(7) 0.59388(5)
N1 N 0.5733(6) 0.9660(4) 0.7380(3)
O1 O 0.9536(5) 0.2030(4) -0.1433(2)
O2 O 0.7624(5) 0.3737(4) -0.1834(3)
H12 H 0.7799 0.3492 -0.2444
O3 O 0.7212(5) 0.7534(3) 0.5903(2)
O4 O 0.8026(5) 0.8383(4) 0.4526(3)
O5 O 0.6351(5) 0.1084(3) 0.4944(2)
O6 O 0.7042(5) 0.2486(3) 0.6360(2)
O7 O 0.9629(5) 1.0257(4) 0.6691(3)
H13 H 0.9369 1.0323 0.7301
H14 H 1.0023 1.1095 0.6665
C1_2 C 0.8579(7) 1.2951(5) -0.1185(4)
C2_2 C 0.8374(7) 1.3330(5) -0.0070(3)
C3_2 C 0.7462(7) 1.4493(5) 0.0192(4)
H1_2 H 0.6946 1.5043 -0.0324
C4_2 C 0.7318(7) 1.4840(5) 0.1244(4)
H2_2 H 0.6751 1.5634 0.1439
C5_2 C 0.8069(7) 1.3933(5) 0.1995(4)
C6_2 C 0.8919(7) 1.2738(5) 0.1730(4)
H3_2 H 0.9346 1.2149 0.2239
C7_2 C 0.9128(8) 1.2425(5) 0.0695(4)
H4_2 H 0.9741 1.1650 0.0507
C8_2 C 0.7849(7) 1.4277(5) 0.3120(4)
C9_2 C 0.7963(8) 1.5644(5) 0.3554(4)
H5_2 H 0.8206 1.6381 0.3152
C10_2 C 0.7716(7) 1.5911(5) 0.4588(3)
C11_2 C 0.7399(7) 1.4815(5) 0.5200(4)
H6_2 H 0.7293 1.4992 0.5898
C12_2 C 0.7243(7) 1.3466(5) 0.4766(4)
C13_2 C 0.7493(7) 1.3136(5) 0.3720(4)
H7_2 H 0.7427 1.2219 0.3442
C14_2 C 0.7706(8) 1.7377(5) 0.5015(4)
C15_2 C 0.6863(7) 1.2279(5) 0.5402(4)
C16A C 0.5299(7) 0.9374(5) 1.2312(4)
H8A H 0.5817 0.8783 1.2798
C17A C 0.5675(7) 0.9176(5) 1.1277(4)
H9A H 0.6420 0.8479 1.1078
C18A C 0.4855(7) 1.0099(5) 1.0561(3)
C19A C 0.3817(8) 1.1166(6) 1.0903(4)
H10A H 0.3327 1.1806 1.0450
C20A C 0.3532(7) 1.1251(5) 1.1936(4)
H11A H 0.2821 1.1949 1.2168
Co1A Co 0.32289(10) 1.04328(7) 1.40612(5)
Co1_2 Co 0.67711(10) -0.04328(7) 0.59388(5)
Co1A_2 Co 0.32289(10) 0.04328(7) 0.40612(5)
Co1_3 Co 0.67711(10) 1.95672(7) 0.59388(5)
Co1A_3 Co 0.32289(10) 1.04328(7) 0.40612(5)
N1A N 0.4267(6) 1.0340(4) 1.2620(3)
O1_2 O 0.9536(5) 1.2030(4) -0.1433(2)
O2_2 O 0.7624(5) 1.3737(4) -0.1834(3)
H12_2 H 0.7799 1.3492 -0.2444
O3_2 O 0.7212(5) 1.7534(3) 0.5903(2)
O3A O 0.2788(5) 1.2466(3) 1.4097(2)
O4_2 O 0.8026(5) 1.8383(4) 0.4526(3)
O4A O 0.1974(5) 1.1617(4) 1.5474(3)
O5_2 O 0.6351(5) 1.1084(3) 0.4944(2)
O5A O 0.3649(5) 0.8916(3) 0.5056(2)
O5A_2 O 0.3649(5) 0.8916(3) 1.5056(2)
O5_3 O 0.6351(5) 1.1084(3) 1.4944(2)
O6_2 O 0.7042(5) 1.2486(3) 0.6360(2)
O7A O 0.0371(5) 0.9743(4) 1.3309(3)
H13A H 0.0631 0.9677 1.2699
H14A H -0.0023 0.8905 1.3335
loop_
_geom_bond_atom_site_label_1
_geom_bond_atom_site_label_2
_geom_bond_site_symmetry_1
_geom_bond_site_symmetry_2
C1 C2 1_555 1_555
C2 C3 1_555 1_555
C3 H1 1_555 1_555
C4 C3 1_555 1_555
H2 C4 1_555 1_555
C5 C4 1_555 1_555
C6 C5 1_555 1_555
H3 C6 1_555 1_555
C7 C2 1_555 1_555
H4 C7 1_555 1_555
C8 C5 1_555 1_555
C9 C8 1_555 1_555
H5 C9 1_555 1_555
C10 C9 1_555 1_555
C11 C10 1_555 1_555
H6 C11 1_555 1_555
C12 C11 1_555 1_555
C13 C8 1_555 1_555
H7 C13 1_555 1_555
C14 C10 1_555 1_555
C15 C12 1_555 1_555
C16 H8 1_555 1_555
C17 C16 1_555 1_555
H9 C17 1_555 1_555
C18 C17 1_555 1_555
C19 C18 1_555 1_555
H10 C19 1_555 1_555
C20 C19 1_555 1_555
H11 C20 1_555 1_555
Co1 N1 1_555 1_555
N1 C16 1_555 1_555
O1 C1 1_555 1_555
O2 C1 1_555 1_555
H12 O2 1_555 1_555
O3 C14 1_555 1_555
O4 C14 1_555 1_555
O5 C15 1_555 1_555
O6 C15 1_555 1_555
O7 Co1 1_555 1_555
H13 O7 1_555 1_555
H14 O7 1_555 1_555
C1_2 C2_2 1_555 1_555
C2_2 C3_2 1_555 1_555
C3_2 H1_2 1_555 1_555
C4_2 C3_2 1_555 1_555
H2_2 C4_2 1_555 1_555
C5_2 C4_2 1_555 1_555
C6_2 C5_2 1_555 1_555
H3_2 C6_2 1_555 1_555
C7_2 C2_2 1_555 1_555
H4_2 C7_2 1_555 1_555
C8_2 C5_2 1_555 1_555
C9_2 C8_2 1_555 1_555
H5_2 C9_2 1_555 1_555
C10_2 C9_2 1_555 1_555
C11_2 C10_2 1_555 1_555
H6_2 C11_2 1_555 1_555
C12_2 C11_2 1_555 1_555
C13_2 C8_2 1_555 1_555
H7_2 C13_2 1_555 1_555
C14_2 C10_2 1_555 1_555
C15_2 C12_2 1_555 1_555
C16A H8A 1_555 1_555
C17A C16A 1_555 1_555
H9A C17A 1_555 1_555
C18A C18 1_555 1_555
C19A C18A 1_555 1_555
H10A C19A 1_555 1_555
C20A C19A 1_555 1_555
H11A C20A 1_555 1_555
Co1A N1A 1_555 1_555
Co1_2 O5 1_555 1_555
Co1A_2 O5 1_555 1_555
Co1_3 O3_2 1_555 1_555
Co1A_3 O5_2 1_555 1_555
N1A C16A 1_555 1_555
O1_2 C1_2 1_555 1_555
O2_2 C1_2 1_555 1_555
H12_2 O2_2 1_555 1_555
O3_2 C14_2 1_555 1_555
O3A Co1A 1_555 1_555
O4_2 C14_2 1_555 1_555
O4A Co1A 1_555 1_555
O5_2 Co1 1_555 1_555
O5A Co1 1_555 1_555
O5A_2 Co1A 1_555 1_555
O5_3 Co1A 1_555 1_555
O6_2 C15_2 1_555 1_555
O7A Co1A 1_555 1_555
H13A O7A 1_555 1_555
H14A O7A 1_555 1_555
C6 C7 1_555 1_555
C12 C13 1_555 1_555
C20 N1 1_555 1_555
Co1 O3 1_555 1_555
Co1 O4 1_555 1_555
C6_2 C7_2 1_555 1_555
C12_2 C13_2 1_555 1_555
C15_2 O5_2 1_555 1_555
C17A C18A 1_555 1_555
C20A N1A 1_555 1_555
Co1_3 O4_2 1_555 1_555
Co1A_3 O5A 1_555 1_555

#END
