
#######################################################################
#
#                 Cambridge Crystallographic Data Centre
#                                CCDC 
#
#######################################################################
#
# If this CIF has been generated from an entry in the Cambridge 
# Structural Database, then it will include bibliographic, chemical, 
# crystal, experimental, refinement or atomic coordinate data resulting 
# from the CCDC's data processing and validation procedures.
#
#######################################################################

data_UJEVEL
_symmetry_cell_setting           monoclinic
_symmetry_space_group_name_H-M   'C 2/c'
_symmetry_Int_Tables_number      15
_space_group_name_Hall           '-C 2yn'
loop_
_symmetry_equiv_pos_site_id
_symmetry_equiv_pos_as_xyz
1 x,y,z
2 -x,y,1/2-z
3 1/2+x,1/2+y,z
4 1/2-x,1/2+y,1/2-z
5 -x,-y,-z
6 x,-y,1/2+z
7 1/2-x,1/2-y,-z
8 1/2+x,1/2-y,1/2+z
_cell_length_a                   18.746(7)
_cell_length_b                   9.869(6)
_cell_length_c                   13.914(4)
_cell_angle_alpha                90
_cell_angle_beta                 107.58(3)
_cell_angle_gamma                90
_cell_volume                     2453.93
loop_
_atom_site_label
_atom_site_type_symbol
_atom_site_fract_x
_atom_site_fract_y
_atom_site_fract_z
Ni1 Ni 0.5000 0.00874(12) 0.2500
N1 N 0.4337(3) 0.1616(5) 0.1541(4)
N2 N 0.4418(3) 0.8492(4) 0.1528(4)
N3 N 0.4217(2) 0.0171(5) 0.3281(3)
C1 C 0.3357(3) 0.7090(6) 0.0791(5)
H1 H 0.2886 0.6803 0.0799
C2 C 0.2817(3) 0.4455(6) -0.0399(5)
H2 H 0.2486 0.4842 -0.0054
H3 H 0.2511 0.3993 -0.0997
C3 C 0.4043(3) 0.2648(6) 0.1914(4)
H4 H 0.4176 0.2742 0.2611
C4 C 0.3327(3) 0.3448(6) 0.0281(4)
C5 C 0.3255(4) 0.5595(6) -0.0713(4)
H5 H 0.3609 0.5189 -0.1013
H6 H 0.2907 0.613 -0.1231
C6 C 0.3675(3) 0.6529(5) 0.0112(4)
C7 C 0.4395(3) 0.6910(7) 0.0213(5)
H7 H 0.4652 0.6511 -0.019
C8 C 0.3553(3) 0.3581(6) 0.1329(5)
H8 H 0.3376 0.4294 0.163
C9 C 0.3635(4) 0.0464(6) 0.3337(4)
C10 C 0.3625(3) 0.2373(6) -0.0097(4)
H9 H 0.3496 0.2243 -0.079
O1 O 0.3030(3) 0.0733(6) 0.3404(4)
C11 C 0.3729(3) 0.8073(6) 0.1463(5)
H10 H 0.3488 0.8461 0.1889
C12 C 0.4118(3) 0.1481(6) 0.0545(4)
H11 H 0.4303 0.0756 0.0265
C13 C 0.4742(4) 0.7881(7) 0.0908(5)
H12 H 0.5229 0.8127 0.095
Ni1_2 Ni 0.5000 1.00874(12) 0.2500
N1A N 0.5663(3) 0.1616(5) 0.3459(4)
N2A N 0.5582(3) 0.8492(4) 0.3472(4)
N2_2 N 0.4418(3) -0.1508(4) 0.1528(4)
N2A_2 N 0.5582(3) -0.1508(4) 0.3472(4)
N3A N 0.5783(2) 0.0171(5) 0.1719(3)
C1A C 0.6643(3) 0.7090(6) 0.4209(5)
H1A H 0.7114 0.6803 0.4201
C2A C 0.7183(3) 0.4455(6) 0.5399(5)
H2A H 0.7514 0.4842 0.5054
H3A H 0.7489 0.3993 0.5997
C3A C 0.5957(3) 0.2648(6) 0.3086(4)
H4A H 0.5824 0.2742 0.2389
C4A C 0.6673(3) 0.3448(6) 0.4719(4)
C5A C 0.6745(4) 0.5595(6) 0.5713(4)
H5A H 0.6391 0.5189 0.6013
H6A H 0.7093 0.613 0.6231
C6A C 0.6325(3) 0.6529(5) 0.4888(4)
C7A C 0.5605(3) 0.6910(7) 0.4787(5)
H7A H 0.5348 0.6511 0.519
C8A C 0.6447(3) 0.3581(6) 0.3671(5)
H8A H 0.6624 0.4294 0.337
C9A C 0.6365(4) 0.0464(6) 0.1663(4)
C10A C 0.6375(3) 0.2373(6) 0.5097(4)
H9A H 0.6504 0.2243 0.579
O1A O 0.6970(3) 0.0733(6) 0.1596(4)
C11A C 0.6271(3) 0.8073(6) 0.3537(5)
H10A H 0.6512 0.8461 0.3111
C12A C 0.5882(3) 0.1481(6) 0.4455(4)
H11A H 0.5697 0.0756 0.4735
C13A C 0.5258(4) 0.7881(7) 0.4092(5)
H12A H 0.4771 0.8127 0.405
loop_
_geom_bond_atom_site_label_1
_geom_bond_atom_site_label_2
_geom_bond_site_symmetry_1
_geom_bond_site_symmetry_2
Ni1 N1 1_555 1_555
N1 C3 1_555 1_555
N2 C11 1_555 1_555
N3 Ni1 1_555 1_555
C1 H1 1_555 1_555
C2 H2 1_555 1_555
H3 C2 1_555 1_555
C3 H4 1_555 1_555
C4 C2 1_555 1_555
C5 C2 1_555 1_555
H5 C5 1_555 1_555
H6 C5 1_555 1_555
C6 C1 1_555 1_555
C7 C6 1_555 1_555
H7 C7 1_555 1_555
C8 C3 1_555 1_555
H8 C8 1_555 1_555
C9 N3 1_555 1_555
C10 C4 1_555 1_555
H9 C10 1_555 1_555
O1 C9 1_555 1_555
C11 C1 1_555 1_555
H10 C11 1_555 1_555
C12 N1 1_555 1_555
H11 C12 1_555 1_555
C13 N2 1_555 1_555
H12 C13 1_555 1_555
Ni1_2 N2 1_555 1_555
N1A Ni1 1_555 1_555
N2A Ni1_2 1_555 1_555
N2_2 Ni1 1_555 1_555
N2A_2 Ni1 1_555 1_555
N3A Ni1 1_555 1_555
C1A H1A 1_555 1_555
C2A H2A 1_555 1_555
H3A C2A 1_555 1_555
C3A N1A 1_555 1_555
H4A C3A 1_555 1_555
C4A C2A 1_555 1_555
C5A C2A 1_555 1_555
H5A C5A 1_555 1_555
H6A C5A 1_555 1_555
C6A C1A 1_555 1_555
C7A C6A 1_555 1_555
H7A C7A 1_555 1_555
C8A C3A 1_555 1_555
H8A C8A 1_555 1_555
C9A N3A 1_555 1_555
C10A C4A 1_555 1_555
H9A C10A 1_555 1_555
O1A C9A 1_555 1_555
C11A N2A 1_555 1_555
H10A C11A 1_555 1_555
C12A N1A 1_555 1_555
H11A C12A 1_555 1_555
C13A N2A 1_555 1_555
H12A C13A 1_555 1_555
C4 C8 1_555 1_555
C5 C6 1_555 1_555
C7 C13 1_555 1_555
C10 C12 1_555 1_555
C1A C11A 1_555 1_555
C4A C8A 1_555 1_555
C5A C6A 1_555 1_555
C7A C13A 1_555 1_555
C10A C12A 1_555 1_555

#END
