
#######################################################################
#
#                 Cambridge Crystallographic Data Centre
#                                CCDC 
#
#######################################################################
#
# If this CIF has been generated from an entry in the Cambridge 
# Structural Database, then it will include bibliographic, chemical, 
# crystal, experimental, refinement or atomic coordinate data resulting 
# from the CCDC's data processing and validation procedures.
#
#######################################################################

data_UJIGAV
_symmetry_cell_setting           monoclinic
_symmetry_space_group_name_H-M   'P 21/c'
_symmetry_Int_Tables_number      14
_space_group_name_Hall           '-P 2ybc'
loop_
_symmetry_equiv_pos_site_id
_symmetry_equiv_pos_as_xyz
1 x,y,z
2 x,1/2-y,1/2+z
3 -x,-y,-z
4 -x,1/2+y,1/2-z
_cell_length_a                   9.9329(12)
_cell_length_b                   13.7791(16)
_cell_length_c                   11.0195(13)
_cell_angle_alpha                90
_cell_angle_beta                 91.222(3)
_cell_angle_gamma                90
_cell_volume                     1507.86
loop_
_atom_site_label
_atom_site_type_symbol
_atom_site_fract_x
_atom_site_fract_y
_atom_site_fract_z
Cu1 Cu 0.65009(9) -0.18803(5) 0.08428(8)
Cu2 Cu 0.5000 0.0000 0.0000
S1 S 0.4674(3) -0.24616(12) -0.19054(15)
O1 O 0.7959(5) -0.1168(4) 0.0017(6)
O2 O 0.6782(5) 0.0118(3) -0.0733(5)
O3 O 0.4224(5) 0.0676(3) -0.1319(4)
H1 H 0.4200 0.0446 -0.2113
O4 O 0.4956(6) -0.1793(3) -0.0915(4)
O5 O 0.4785(6) -0.3482(3) -0.1606(4)
N1 N 0.7240(6) -0.1878(4) -0.4751(6)
N2 N 0.5567(7) -0.2246(3) -0.3043(5)
C1 C 0.8147(10) -0.1775(6) -0.5637(12)
H2 H 0.8497 -0.2323 -0.6009
C2 C 0.8556(13) -0.0872(7) -0.5992(17)
H3 H 0.9195 -0.0812 -0.6593
C3 C 0.8034(12) -0.0062(7) -0.5474(15)
H4 H 0.8315 0.0550 -0.5718
C4 C 0.7101(9) -0.0153(5) -0.4597(9)
H5 H 0.6739 0.0393 -0.4231
C5 C 0.6704(7) -0.1067(5) -0.4265(7)
C6 C 0.5630(9) -0.1208(4) -0.3378(6)
H6 H 0.4772 -0.1003 -0.3729
H7 H 0.5815 -0.0819 -0.2661
C7 C 0.2960(10) -0.2268(5) -0.2276(7)
C8 C 0.2355(16) -0.2762(7) -0.3187(12)
H8 H 0.2856 -0.3201 -0.3632
C9 C 0.1037(17) -0.2636(8) -0.3471(14)
H9 H 0.0655 -0.2972 -0.4124
C10 C 0.0293(13) -0.2050(10) -0.2841(9)
H10 H -0.0635 -0.2031 -0.2971
C11 C 0.0875(12) -0.1481(14) -0.2013(12)
H11 H 0.0379 -0.0998 -0.1639
C12 C 0.2238(11) -0.1611(12) -0.1703(11)
H12 H 0.2637 -0.1234 -0.1094
C13 C 0.7808(10) -0.0363(6) -0.0526(10)
H13 H 0.8597 -0.0092 -0.0814
O1B O 0.2041(5) 0.1168(4) -0.0017(6)
O2B O 0.3218(5) -0.0118(3) 0.0733(5)
C13B C 0.2192(10) 0.0363(6) 0.0526(10)
H13B H 0.1403 0.0092 0.0814
O3B O 0.5776(5) -0.0676(3) 0.1319(4)
H1B H 0.5800 -0.0446 0.2113
Cu1B Cu 0.34991(9) 0.18803(5) -0.08428(8)
S1A S 0.4674(3) -0.25384(12) 0.30946(15)
O4A O 0.4956(6) -0.3207(3) 0.4085(4)
O5A O 0.4785(6) -0.1518(3) 0.3394(4)
N1A N 0.7240(6) -0.3122(4) 0.0249(6)
N2A N 0.5567(7) -0.2754(3) 0.1957(5)
C1A C 0.8147(10) -0.3225(6) -0.0637(12)
H2A H 0.8497 -0.2677 -0.1009
C2A C 0.8556(13) -0.4128(7) -0.0992(17)
H3A H 0.9195 -0.4188 -0.1593
C3A C 0.8034(12) -0.4938(7) -0.0474(15)
H4A H 0.8315 -0.5550 -0.0718
C4A C 0.7101(9) -0.4847(5) 0.0403(9)
H5A H 0.6739 -0.5393 0.0769
C5A C 0.6704(7) -0.3933(5) 0.0735(7)
C6A C 0.5630(9) -0.3792(4) 0.1622(6)
H6A H 0.4772 -0.3997 0.1271
H7A H 0.5815 -0.4181 0.2339
C7A C 0.2960(10) -0.2732(5) 0.2724(7)
C8A C 0.2355(16) -0.2238(7) 0.1813(12)
H8A H 0.2856 -0.1799 0.1368
C9A C 0.1037(17) -0.2364(8) 0.1529(14)
H9A H 0.0655 -0.2028 0.0876
C10A C 0.0293(13) -0.2950(10) 0.2159(9)
H10A H -0.0635 -0.2969 0.2029
C11A C 0.0875(12) -0.3519(14) 0.2987(12)
H11A H 0.0379 -0.4002 0.3361
C12A C 0.2238(11) -0.3389(12) 0.3297(11)
H12A H 0.2637 -0.3766 0.3906
Cu1A Cu 0.65009(9) -0.31197(5) -0.41572(8)
O4B O 0.5044(6) 0.1793(3) 0.0915(4)
N1C N 0.2760(6) 0.3122(4) -0.0249(6)
N2C N 0.4433(7) 0.2754(3) -0.1957(5)
Cu1A_2 Cu 0.65009(9) -0.31197(5) 0.58428(8)
loop_
_geom_bond_atom_site_label_1
_geom_bond_atom_site_label_2
_geom_bond_site_symmetry_1
_geom_bond_site_symmetry_2
Cu1 O1 1_555 1_555
Cu2 O2 1_555 1_555
S1 O4 1_555 1_555
O1 C13 1_555 1_555
O2 C13 1_555 1_555
O3 Cu2 1_555 1_555
H1 O3 1_555 1_555
O4 Cu1 1_555 1_555
O5 S1 1_555 1_555
N1 C1 1_555 1_555
N2 S1 1_555 1_555
C1 H2 1_555 1_555
C2 C1 1_555 1_555
H3 C2 1_555 1_555
C3 C2 1_555 1_555
H4 C3 1_555 1_555
C4 C3 1_555 1_555
H5 C4 1_555 1_555
C5 N1 1_555 1_555
C6 N2 1_555 1_555
H6 C6 1_555 1_555
H7 C6 1_555 1_555
C7 S1 1_555 1_555
C8 C7 1_555 1_555
H8 C8 1_555 1_555
C9 C8 1_555 1_555
H9 C9 1_555 1_555
C10 C9 1_555 1_555
H10 C10 1_555 1_555
C11 C10 1_555 1_555
H11 C11 1_555 1_555
C12 C7 1_555 1_555
H12 C12 1_555 1_555
C13 H13 1_555 1_555
O1B C13B 1_555 1_555
O2B Cu2 1_555 1_555
C13B O2B 1_555 1_555
H13B C13B 1_555 1_555
O3B Cu1 1_555 1_555
H1B O3B 1_555 1_555
Cu1B O3 1_555 1_555
S1A O4A 1_555 1_555
O4A Cu1A_2 1_555 1_555
O5A S1A 1_555 1_555
N1A Cu1 1_555 1_555
N2A Cu1 1_555 1_555
C1A N1A 1_555 1_555
H2A C1A 1_555 1_555
C2A C1A 1_555 1_555
H3A C2A 1_555 1_555
C3A C2A 1_555 1_555
H4A C3A 1_555 1_555
C4A C3A 1_555 1_555
H5A C4A 1_555 1_555
C5A N1A 1_555 1_555
C6A N2A 1_555 1_555
H6A C6A 1_555 1_555
H7A C6A 1_555 1_555
C7A S1A 1_555 1_555
C8A C7A 1_555 1_555
H8A C8A 1_555 1_555
C9A C8A 1_555 1_555
H9A C9A 1_555 1_555
C10A C9A 1_555 1_555
H10A C10A 1_555 1_555
C11A C10A 1_555 1_555
H11A C11A 1_555 1_555
C12A C7A 1_555 1_555
H12A C12A 1_555 1_555
Cu1A N1 1_555 1_555
O4B Cu1B 1_555 1_555
N1C Cu1B 1_555 1_555
N2C Cu1B 1_555 1_555
Cu2 O3B 1_555 1_555
N2 Cu1A 1_555 1_555
C4 C5 1_555 1_555
C5 C6 1_555 1_555
C11 C12 1_555 1_555
O1B Cu1B 1_555 1_555
S1A N2A 1_555 1_555
C4A C5A 1_555 1_555
C5A C6A 1_555 1_555
C11A C12A 1_555 1_555

#END
