
#######################################################################
#
#                 Cambridge Crystallographic Data Centre
#                                CCDC 
#
#######################################################################
#
# If this CIF has been generated from an entry in the Cambridge 
# Structural Database, then it will include bibliographic, chemical, 
# crystal, experimental, refinement or atomic coordinate data resulting 
# from the CCDC's data processing and validation procedures.
#
#######################################################################

data_UJIPEJ
_symmetry_cell_setting           triclinic
_symmetry_space_group_name_H-M   'P -1'
_symmetry_Int_Tables_number      2
_space_group_name_Hall           '-P 1'
loop_
_symmetry_equiv_pos_site_id
_symmetry_equiv_pos_as_xyz
1 x,y,z
2 -x,-y,-z
_cell_length_a                   7.8454(16)
_cell_length_b                   10.887(2)
_cell_length_c                   22.266(5)
_cell_angle_alpha                76.14(3)
_cell_angle_beta                 89.01(3)
_cell_angle_gamma                88.52(3)
_cell_volume                     1845.69
loop_
_atom_site_label
_atom_site_type_symbol
_atom_site_fract_x
_atom_site_fract_y
_atom_site_fract_z
Pb1 Pb 0.24562(2) 0.909439(15) -0.004695(8)
O1 O 0.1707(5) 0.7322(4) 0.07954(18)
N1 N 0.1649(6) 0.7594(4) -0.0838(2)
C1 C 0.6179(7) 0.7211(5) 0.0056(3)
H1 H 0.6367 0.7708 0.0345
Fe1 Fe -0.11348(12) 0.73605(8) 0.40818(4)
O2 O -0.0584(5) 0.8522(4) 0.05152(18)
N2 N 0.4720(5) 0.7365(4) -0.0240(2)
C2 C 0.7470(7) 0.6353(6) -0.0032(3)
H2 H 0.8514 0.6288 0.0184
Fe2 Fe 0.44538(12) 1.26854(8) 0.36165(4)
O3 O 0.4830(5) 0.9420(4) 0.07382(18)
C3 C 0.7198(8) 0.5615(5) -0.0435(3)
H3 H 0.8041 0.5010 -0.0492
O4 O 0.2167(5) 0.9948(4) 0.0926(2)
C4 C 0.5675(7) 0.5750(5) -0.0765(3)
C5 C 0.4443(6) 0.6628(4) -0.0649(2)
C6 C 0.5332(9) 0.5037(5) -0.1211(3)
H4 H 0.6167 0.4447 -0.1290
C7 C 0.3860(9) 0.5183(5) -0.1518(3)
H5 H 0.3675 0.4701 -0.1814
C8 C 0.2560(8) 0.6051(5) -0.1409(3)
C9 C 0.2838(7) 0.6778(4) -0.0972(2)
C10 C 0.1003(9) 0.6240(6) -0.1718(3)
H6 H 0.0763 0.5776 -0.2017
C11 C -0.0167(9) 0.7091(7) -0.1590(3)
H7 H -0.1224 0.7230 -0.1800
C12 C 0.0207(8) 0.7758(6) -0.1145(3)
H8 H -0.0613 0.8354 -0.1060
C13 C 0.0255(7) 0.7750(5) 0.0915(2)
C14 C -0.0417(7) 0.7351(5) 0.1562(2)
C15 C -0.2053(7) 0.7684(5) 0.1710(3)
H9 H -0.2790 0.8118 0.1390
C16 C -0.2638(7) 0.7395(5) 0.2317(3)
H10 H -0.3768 0.7634 0.2409
C17 C -0.1583(7) 0.6753(5) 0.2797(2)
C18 C 0.0039(8) 0.6376(6) 0.2648(3)
H11 H 0.0761 0.5912 0.2965
C19 C 0.0611(7) 0.6673(5) 0.2040(3)
H12 H 0.1727 0.6410 0.1945
C20 C -0.2165(8) 0.6508(6) 0.3451(3)
C21 C -0.3438(8) 0.7216(6) 0.3696(3)
H13 H -0.4104 0.7902 0.3464
C22 C -0.3539(9) 0.6716(7) 0.4351(3)
H14 H -0.4293 0.7002 0.4630
C23 C -0.2324(10) 0.5728(7) 0.4507(3)
H15 H -0.2106 0.5231 0.4912
C24 C -0.1469(9) 0.5594(6) 0.3952(3)
H16 H -0.0586 0.4995 0.3926
C25 C 0.1377(12) 0.7649(12) 0.4079(8)
H17 H 0.2244 0.7053 0.4031
C26 C 0.0603(17) 0.8524(12) 0.3609(5)
H18 H 0.0814 0.8640 0.3178
C27 C -0.0547(15) 0.9201(8) 0.3890(8)
H19 H -0.1271 0.9883 0.3687
C28 C -0.0445(17) 0.8705(13) 0.4514(7)
H20 H -0.1091 0.8978 0.4825
C29 C 0.0712(19) 0.7780(14) 0.4607(7)
H21 H 0.1023 0.7276 0.5002
C30 C 0.3721(7) 0.9795(5) 0.1067(2)
C31 C 0.4213(7) 1.0106(4) 0.1667(2)
C32 C 0.2983(8) 1.0150(6) 0.2120(3)
H22 H 0.1838 0.9945 0.2061
C33 C 0.3422(8) 1.0490(6) 0.2652(3)
H23 H 0.2575 1.0501 0.2961
C34 C 0.5079(8) 1.0818(5) 0.2747(3)
C35 C 0.6292(8) 1.0770(5) 0.2294(3)
H24 H 0.7433 1.0992 0.2348
C36 C 0.5866(7) 1.0403(5) 0.1760(3)
H25 H 0.6720 1.0356 0.1459
C37 C 0.5548(8) 1.1202(5) 0.3314(3)
C38 C 0.4781(11) 1.0774(6) 0.3913(3)
H26 H 0.3893 1.0181 0.4020
C39 C 0.5596(12) 1.1403(7) 0.4320(3)
H27 H 0.5355 1.1286 0.4749
C40 C 0.6802(10) 1.2216(7) 0.3984(4)
H28 H 0.7513 1.2752 0.4144
C41 C 0.6789(8) 1.2108(6) 0.3363(3)
H29 H 0.7487 1.2561 0.3036
C42 C 0.2450(11) 1.3537(8) 0.3952(4)
H30 H 0.1983 1.3267 0.4357
C43 C 0.3730(10) 1.4404(7) 0.3771(4)
H31 H 0.4279 1.4847 0.4030
C44 C 0.4081(10) 1.4519(7) 0.3138(4)
H32 H 0.4910 1.5050 0.2898
C45 C 0.3002(11) 1.3719(8) 0.2921(4)
H33 H 0.2985 1.3604 0.2511
C46 C 0.1953(10) 1.3118(8) 0.3413(5)
H34 H 0.1077 1.2542 0.3396
Pb1A Pb -0.24562(2) 1.090561(15) 0.004695(8)
Pb1A_2 Pb 0.75438(2) 1.090561(15) 0.004695(8)
O2A O 0.0584(5) 1.1478(4) -0.05152(18)
O3A O 0.5170(5) 1.0580(4) -0.07382(18)
loop_
_geom_bond_atom_site_label_1
_geom_bond_atom_site_label_2
_geom_bond_site_symmetry_1
_geom_bond_site_symmetry_2
Pb1 O1 1_555 1_555
O1 C13 1_555 1_555
N1 Pb1 1_555 1_555
C1 H1 1_555 1_555
Fe1 C20 1_555 1_555
O2 Pb1 1_555 1_555
N2 Pb1 1_555 1_555
C2 C1 1_555 1_555
H2 C2 1_555 1_555
Fe2 C37 1_555 1_555
O3 Pb1 1_555 1_555
C3 C2 1_555 1_555
H3 C3 1_555 1_555
O4 Pb1 1_555 1_555
C4 C3 1_555 1_555
C5 N2 1_555 1_555
C6 C4 1_555 1_555
H4 C6 1_555 1_555
C7 C6 1_555 1_555
H5 C7 1_555 1_555
C8 C7 1_555 1_555
C9 N1 1_555 1_555
C10 C8 1_555 1_555
H6 C10 1_555 1_555
C11 C10 1_555 1_555
H7 C11 1_555 1_555
C12 N1 1_555 1_555
H8 C12 1_555 1_555
C13 O2 1_555 1_555
C14 C13 1_555 1_555
C15 C14 1_555 1_555
H9 C15 1_555 1_555
C16 C15 1_555 1_555
H10 C16 1_555 1_555
C17 C16 1_555 1_555
C18 C17 1_555 1_555
H11 C18 1_555 1_555
C19 C14 1_555 1_555
H12 C19 1_555 1_555
C20 C17 1_555 1_555
C21 Fe1 1_555 1_555
H13 C21 1_555 1_555
C22 Fe1 1_555 1_555
H14 C22 1_555 1_555
C23 Fe1 1_555 1_555
H15 C23 1_555 1_555
C24 Fe1 1_555 1_555
H16 C24 1_555 1_555
C25 Fe1 1_555 1_555
H17 C25 1_555 1_555
C26 Fe1 1_555 1_555
H18 C26 1_555 1_555
C27 Fe1 1_555 1_555
H19 C27 1_555 1_555
C28 Fe1 1_555 1_555
H20 C28 1_555 1_555
C29 Fe1 1_555 1_555
H21 C29 1_555 1_555
C30 O3 1_555 1_555
C31 C30 1_555 1_555
C32 C31 1_555 1_555
H22 C32 1_555 1_555
C33 C32 1_555 1_555
H23 C33 1_555 1_555
C34 C33 1_555 1_555
C35 C34 1_555 1_555
H24 C35 1_555 1_555
C36 C31 1_555 1_555
H25 C36 1_555 1_555
C37 C34 1_555 1_555
C38 Fe2 1_555 1_555
H26 C38 1_555 1_555
C39 Fe2 1_555 1_555
H27 C39 1_555 1_555
C40 Fe2 1_555 1_555
H28 C40 1_555 1_555
C41 Fe2 1_555 1_555
H29 C41 1_555 1_555
C42 Fe2 1_555 1_555
H30 C42 1_555 1_555
C43 Fe2 1_555 1_555
H31 C43 1_555 1_555
C44 Fe2 1_555 1_555
H32 C44 1_555 1_555
C45 Fe2 1_555 1_555
H33 C45 1_555 1_555
C46 Fe2 1_555 1_555
H34 C46 1_555 1_555
Pb1A O2 1_555 1_555
Pb1A_2 O3 1_555 1_555
O2A Pb1 1_555 1_555
O3A Pb1 1_555 1_555
C1 N2 1_555 1_555
O4 C30 1_555 1_555
C4 C5 1_555 1_555
C5 C9 1_555 1_555
C8 C9 1_555 1_555
C11 C12 1_555 1_555
C18 C19 1_555 1_555
C20 C21 1_555 1_555
C20 C24 1_555 1_555
C21 C22 1_555 1_555
C22 C23 1_555 1_555
C23 C24 1_555 1_555
C25 C26 1_555 1_555
C25 C29 1_555 1_555
C26 C27 1_555 1_555
C27 C28 1_555 1_555
C28 C29 1_555 1_555
C35 C36 1_555 1_555
C37 C38 1_555 1_555
C37 C41 1_555 1_555
C38 C39 1_555 1_555
C39 C40 1_555 1_555
C40 C41 1_555 1_555
C42 C43 1_555 1_555
C42 C46 1_555 1_555
C43 C44 1_555 1_555
C44 C45 1_555 1_555
C45 C46 1_555 1_555
Pb1A O2A 1_555 1_555
Pb1A_2 O3A 1_555 1_555

#END
