
#######################################################################
#
#                 Cambridge Crystallographic Data Centre
#                                CCDC 
#
#######################################################################
#
# If this CIF has been generated from an entry in the Cambridge 
# Structural Database, then it will include bibliographic, chemical, 
# crystal, experimental, refinement or atomic coordinate data resulting 
# from the CCDC's data processing and validation procedures.
#
#######################################################################

data_UJOCAX
_symmetry_cell_setting           monoclinic
_symmetry_space_group_name_H-M   'C 2'
_symmetry_Int_Tables_number      5
_space_group_name_Hall           'C 2y'
loop_
_symmetry_equiv_pos_site_id
_symmetry_equiv_pos_as_xyz
1 x,y,z
2 -x,y,-z
3 1/2+x,1/2+y,z
4 1/2-x,1/2+y,-z
_cell_length_a                   19.886(4)
_cell_length_b                   13.060(3)
_cell_length_c                   9.961(2)
_cell_angle_alpha                90
_cell_angle_beta                 99.71(3)
_cell_angle_gamma                90
_cell_volume                     2549.92
loop_
_atom_site_label
_atom_site_type_symbol
_atom_site_fract_x
_atom_site_fract_y
_atom_site_fract_z
Cu1 Cu -0.04267(4) 0.37947(6) 0.75224(8)
Cl1 Cl 0.06597(8) 0.42011(13) 0.85032(15)
Cu2 Cu 0.12064(6) 0.29121(9) 0.76430(12)
Cl2 Cl 0.10969(12) 0.12610(16) 0.8193(2)
Cu3 Cu 0.19326(5) 0.19635(8) 0.59484(10)
Cl3 Cl 0.21317(11) 0.34799(17) 0.6652(2)
Cl4 Cl 0.17648(12) 0.05379(16) 0.4935(2)
Cl5 Cl 0.0000 0.25693(18) 0.5000
Cu4 Cu 0.06309(7) 0.10969(11) 0.59594(14)
N1 N -0.0738(3) 0.5039(4) 0.6435(5)
C1 C -0.0805(3) 0.5979(5) 0.7004(6)
O1 O -0.0905(3) 0.8716(4) 0.9091(5)
C2 C -0.0892(3) 0.7866(5) 0.8329(6)
C3 C -0.0954(3) 0.7833(5) 0.6939(6)
H1 H -0.1018 0.8440 0.6444
C4 C -0.0925(3) 0.6896(5) 0.6242(6)
C5 C -0.0985(3) 0.6816(5) 0.4790(6)
C6 C -0.0911(3) 0.5860(5) 0.4238(7)
H2 H -0.0936 0.5787 0.3302
C7 C -0.0794(3) 0.6937(6) 0.9079(6)
H3 H -0.0762 0.6954 1.0021
C8 C -0.0800(3) 0.5003(5) 0.5087(7)
H4 H -0.0766 0.4368 0.4683
C9 C -0.0748(3) 0.6036(5) 0.8455(6)
H5 H -0.0678 0.5441 0.8971
C10 C -0.0965(8) 0.9691(6) 0.8428(10)
H6 H -0.0967 1.0221 0.9094
H7 H -0.1382 0.9715 0.7785
H8 H -0.0586 0.9790 0.7960
C11 C -0.1122(3) 0.7731(5) 0.3857(6)
H9 H -0.0924 0.8344 0.4335
O2 O -0.0827(2) 0.7579(4) 0.2657(4)
H10 H -0.0414 0.7499 0.2872
C12 C -0.1896(3) 0.7879(5) 0.3432(6)
H11 H -0.2090 0.7900 0.4272
N2 N -0.2059(2) 0.8903(4) 0.2719(5)
H12 H -0.1815 0.9404 0.3216
C13 C -0.2269(3) 0.7041(5) 0.2549(7)
H13 H -0.2544 0.6644 0.3078
H14 H -0.1941 0.6584 0.2243
C14 C -0.2731(3) 0.7516(5) 0.1308(6)
H15 H -0.2986 0.6976 0.0757
C15 C -0.3233(3) 0.8302(5) 0.1753(6)
H16 H -0.3462 0.8657 0.0936
C16 C -0.2279(4) 0.8098(7) 0.0456(7)
H17 H -0.1955 0.7630 0.0159
H18 H -0.2560 0.8385 -0.0347
C17 C -0.1908(3) 0.8930(6) 0.1282(6)
H19 H -0.2046 0.9587 0.0870
H20 H -0.1422 0.8852 0.1302
C18 C -0.3775(3) 0.7804(5) 0.2433(7)
H21 H -0.3608 0.7447 0.3289
C19 C -0.2810(3) 0.9099(5) 0.2680(7)
H22 H -0.2924 0.9782 0.2335
H23 H -0.2916 0.9054 0.3593
C20 C -0.4354(3) 0.7414(5) 0.1683(8)
H24 H -0.4545 0.6812 0.2048
H25 H -0.4370 0.7388 0.0705
Cl6 Cl 0.0000 -0.0261(2) 0.5000
N1C N -0.4262(3) 0.0039(4) 0.3565(5)
C1C C -0.4195(3) 0.0979(5) 0.2996(6)
O1C O -0.4095(3) 0.3716(4) 0.0909(5)
C2C C -0.4108(3) 0.2866(5) 0.1671(6)
C3C C -0.4046(3) 0.2833(5) 0.3061(6)
H1C H -0.3982 0.3440 0.3556
C4C C -0.4075(3) 0.1896(5) 0.3758(6)
C5C C -0.4015(3) 0.1816(5) 0.5210(6)
C6C C -0.4089(3) 0.0860(5) 0.5762(7)
H2C H -0.4064 0.0787 0.6698
C7C C -0.4206(3) 0.1937(6) 0.0921(6)
H3C H -0.4238 0.1954 -0.0021
C8C C -0.4200(3) 0.0003(5) 0.4913(7)
H4C H -0.4234 -0.0632 0.5317
C9C C -0.4252(3) 0.1036(5) 0.1545(6)
H5C H -0.4322 0.0441 0.1029
C10C C -0.4035(8) 0.4691(6) 0.1572(10)
H6C H -0.4033 0.5221 0.0906
H7C H -0.3618 0.4715 0.2215
H8C H -0.4414 0.4790 0.2040
C11C C -0.3878(3) 0.2731(5) 0.6143(6)
H9C H -0.4076 0.3344 0.5665
O2C O -0.4173(2) 0.2579(4) 0.7343(4)
H10C H -0.4586 0.2499 0.7128
C12C C -0.3104(3) 0.2879(5) 0.6568(6)
H11C H -0.2910 0.2900 0.5728
N2C N -0.2941(2) 0.3903(4) 0.7281(5)
H12C H -0.3185 0.4404 0.6784
C13C C -0.2731(3) 0.2041(5) 0.7451(7)
H13C H -0.2456 0.1644 0.6922
H14C H -0.3059 0.1584 0.7757
C14C C -0.2269(3) 0.2516(5) 0.8692(6)
H15C H -0.2014 0.1976 0.9243
C15C C -0.1767(3) 0.3302(5) 0.8247(6)
H16C H -0.1538 0.3657 0.9064
C16C C -0.2721(4) 0.3098(7) 0.9544(7)
H17C H -0.3045 0.2630 0.9841
H18C H -0.2440 0.3385 1.0347
C17C C -0.3092(3) 0.3930(6) 0.8718(6)
H19C H -0.2954 0.4587 0.9130
H20C H -0.3578 0.3852 0.8698
C18C C -0.1225(3) 0.2804(5) 0.7567(7)
H21C H -0.1392 0.2447 0.6711
C19C C -0.2190(3) 0.4099(5) 0.7320(7)
H22C H -0.2076 0.4782 0.7665
H23C H -0.2084 0.4054 0.6407
C20C C -0.0646(3) 0.2414(5) 0.8317(8)
H24C H -0.0455 0.1812 0.7952
H25C H -0.0630 0.2388 0.9295
Cu1C Cu -0.45733(4) -0.12053(6) 0.24776(8)
Cu4A Cu -0.06309(7) 0.10969(11) 0.40406(14)
Cu1C_2 Cu -0.45733(4) 0.87947(6) 0.24776(8)
Cl2A Cl -0.10969(12) 0.12610(16) 0.1807(2)
Cu2A Cu -0.12064(6) 0.29121(9) 0.23570(12)
Cl1A Cl -0.06597(8) 0.42011(13) 0.14968(15)
Cl3A Cl -0.21317(11) 0.34799(17) 0.3348(2)
Cu3A Cu -0.19326(5) 0.19635(8) 0.40516(10)
Cu1A Cu 0.04267(4) 0.37947(6) 0.24776(8)
N1A N 0.0738(3) 0.5039(4) 0.3565(5)
C18B C 0.1225(3) 0.2804(5) 0.2433(7)
C20B C 0.0646(3) 0.2414(5) 0.1683(8)
Cl4A Cl -0.17648(12) 0.05379(16) 0.5065(2)
H21B H 0.1392 0.2447 0.3289
H24B H 0.0455 0.1812 0.2048
H25B H 0.0630 0.2388 0.0705
loop_
_geom_bond_atom_site_label_1
_geom_bond_atom_site_label_2
_geom_bond_site_symmetry_1
_geom_bond_site_symmetry_2
Cu1 Cl1 1_555 1_555
Cl1 Cu2 1_555 1_555
Cu2 Cl2 1_555 1_555
Cl2 Cu4 1_555 1_555
Cu3 Cl3 1_555 1_555
Cl3 Cu2 1_555 1_555
Cl4 Cu3 1_555 1_555
Cl5 Cu4 1_555 1_555
Cu4 Cl6 1_555 1_555
N1 Cu1 1_555 1_555
C1 N1 1_555 1_555
O1 C2 1_555 1_555
C2 C3 1_555 1_555
C3 H1 1_555 1_555
C4 C1 1_555 1_555
C5 C4 1_555 1_555
C6 C5 1_555 1_555
H2 C6 1_555 1_555
C7 C2 1_555 1_555
H3 C7 1_555 1_555
C8 N1 1_555 1_555
H4 C8 1_555 1_555
C9 C1 1_555 1_555
H5 C9 1_555 1_555
C10 O1 1_555 1_555
H6 C10 1_555 1_555
H7 C10 1_555 1_555
H8 C10 1_555 1_555
C11 C5 1_555 1_555
H9 C11 1_555 1_555
O2 C11 1_555 1_555
H10 O2 1_555 1_555
C12 C11 1_555 1_555
H11 C12 1_555 1_555
N2 C12 1_555 1_555
H12 N2 1_555 1_555
C13 C12 1_555 1_555
H13 C13 1_555 1_555
H14 C13 1_555 1_555
C14 C13 1_555 1_555
H15 C14 1_555 1_555
C15 C14 1_555 1_555
H16 C15 1_555 1_555
C16 C14 1_555 1_555
H17 C16 1_555 1_555
H18 C16 1_555 1_555
C17 N2 1_555 1_555
H19 C17 1_555 1_555
H20 C17 1_555 1_555
C18 C15 1_555 1_555
H21 C18 1_555 1_555
C19 N2 1_555 1_555
H22 C19 1_555 1_555
H23 C19 1_555 1_555
C20 C18 1_555 1_555
H24 C20 1_555 1_555
H25 C20 1_555 1_555
Cl6 Cu4A 1_555 1_555
N1C C1C 1_555 1_555
C1C C4C 1_555 1_555
O1C C2C 1_555 1_555
C2C C3C 1_555 1_555
C3C H1C 1_555 1_555
C4C C3C 1_555 1_555
C5C C4C 1_555 1_555
C6C C5C 1_555 1_555
H2C C6C 1_555 1_555
C7C C2C 1_555 1_555
H3C C7C 1_555 1_555
C8C N1C 1_555 1_555
H4C C8C 1_555 1_555
C9C C1C 1_555 1_555
H5C C9C 1_555 1_555
C10C O1C 1_555 1_555
H6C C10C 1_555 1_555
H7C C10C 1_555 1_555
H8C C10C 1_555 1_555
C11C C5C 1_555 1_555
H9C C11C 1_555 1_555
O2C C11C 1_555 1_555
H10C O2C 1_555 1_555
C12C C11C 1_555 1_555
H11C C12C 1_555 1_555
N2C C12C 1_555 1_555
H12C N2C 1_555 1_555
C13C C12C 1_555 1_555
H13C C13C 1_555 1_555
H14C C13C 1_555 1_555
C14C C13C 1_555 1_555
H15C C14C 1_555 1_555
C15C C14C 1_555 1_555
H16C C15C 1_555 1_555
C16C C14C 1_555 1_555
H17C C16C 1_555 1_555
H18C C16C 1_555 1_555
C17C N2C 1_555 1_555
H19C C17C 1_555 1_555
H20C C17C 1_555 1_555
C18C Cu1 1_555 1_555
H21C C18C 1_555 1_555
C19C N2C 1_555 1_555
H22C C19C 1_555 1_555
H23C C19C 1_555 1_555
C20C Cu1 1_555 1_555
H24C C20C 1_555 1_555
H25C C20C 1_555 1_555
Cu1C N1C 1_555 1_555
Cu4A Cl5 1_555 1_555
Cu1C_2 C18 1_555 1_555
Cl2A Cu4A 1_555 1_555
Cu2A Cl2A 1_555 1_555
Cl1A Cu2A 1_555 1_555
Cl3A Cu2A 1_555 1_555
Cu3A Cl3A 1_555 1_555
Cu1A Cl1A 1_555 1_555
N1A Cu1A 1_555 1_555
C18B Cu1A 1_555 1_555
C20B Cu1A 1_555 1_555
Cl4A Cu3A 1_555 1_555
H21B C18B 1_555 1_555
H24B C20B 1_555 1_555
H25B C20B 1_555 1_555
C3 C4 1_555 1_555
C6 C8 1_555 1_555
C7 C9 1_555 1_555
C15 C19 1_555 1_555
C16 C17 1_555 1_555
C20 Cu1C_2 1_555 1_555
C6C C8C 1_555 1_555
C7C C9C 1_555 1_555
C15C C19C 1_555 1_555
C15C C18C 1_555 1_555
C16C C17C 1_555 1_555
C18C C20C 1_555 1_555
C18B C20B 1_555 1_555

#END
