
#######################################################################
#
#                 Cambridge Crystallographic Data Centre
#                                CCDC 
#
#######################################################################
#
# If this CIF has been generated from an entry in the Cambridge 
# Structural Database, then it will include bibliographic, chemical, 
# crystal, experimental, refinement or atomic coordinate data resulting 
# from the CCDC's data processing and validation procedures.
#
#######################################################################

data_UJOLUA
_symmetry_cell_setting           triclinic
_symmetry_space_group_name_H-M   'P -1'
_symmetry_Int_Tables_number      2
_space_group_name_Hall           '-P 1'
loop_
_symmetry_equiv_pos_site_id
_symmetry_equiv_pos_as_xyz
1 x,y,z
2 -x,-y,-z
_cell_length_a                   10.1001(8)
_cell_length_b                   11.0760(8)
_cell_length_c                   22.919(2)
_cell_angle_alpha                99.774(4)
_cell_angle_beta                 91.441(4)
_cell_angle_gamma                115.304(4)
_cell_volume                     2270.49
loop_
_atom_site_label
_atom_site_type_symbol
_atom_site_fract_x
_atom_site_fract_y
_atom_site_fract_z
Zn1 Zn 0.84254(7) 0.71191(6) 0.85504(3)
Zn2 Zn 0.87593(7) 0.69707(6) 1.35370(3)
O1 O 0.7156(5) 0.4983(4) 1.3359(2)
H1 H 0.641(5) 0.509(6) 1.345(3)
H2 H 0.695(7) 0.415(3) 1.323(4)
N1 N 0.8377(5) 0.7078(4) 0.9491(2)
N2 N 0.8749(6) 0.7046(5) 1.2592(2)
N3 N 0.8580(5) 0.7069(4) 0.76005(19)
N4 N 0.8819(5) 0.6970(4) 0.44874(19)
N5 N 0.7290(5) 0.4870(4) 0.83165(19)
N6 N 0.3633(6) -0.2267(5) 0.7093(3)
N7 N 0.5768(7) 1.2175(5) 0.9665(3)
N8 N 1.6376(7) 1.1970(6) 1.4541(3)
O2 O 0.7876(5) 0.8903(6) 0.8715(2)
O3 O 0.5977(7) 0.6921(5) 0.8523(3)
O4 O 0.0887(5) 0.6638(4) 0.8488(2)
O5 O 0.0620(4) 0.8543(4) 0.87186(18)
O6 O 0.4933(7) 1.2698(6) 0.9763(4)
O7 O 0.7073(6) 1.2764(5) 0.9820(3)
O8 O 1.0945(4) 0.8886(4) 1.37400(17)
O9 O 1.0786(4) 0.6789(4) 1.35465(18)
O10 O 1.5375(5) 0.6177(5) 1.3542(3)
O11 O 1.7540(4) 0.8036(4) 1.36477(18)
O12 O 1.7687(6) 1.2417(6) 1.4634(4)
O13 O 1.5722(7) 1.2651(6) 1.4676(4)
C1 C 0.6523(8) 0.8181(8) 0.8685(3)
C2 C 0.5521(6) 0.8839(5) 0.8864(2)
C3 C 0.3986(6) 0.8106(5) 0.8711(2)
H3 H 0.3599 0.7204 0.8509
C4 C 0.3041(6) 0.8693(5) 0.8855(2)
C5 C 0.1382(6) 0.7870(6) 0.8669(3)
C6 C 0.3641(7) 1.0058(6) 0.9167(3)
H4 H 0.3034 1.0482 0.9265
C7 C 0.5136(7) 1.0752(5) 0.9324(2)
C8 C 0.6097(6) 1.0177(6) 0.9178(3)
H5 H 0.7105 1.0677 0.9289
C9 C 1.1536(6) 0.8078(5) 1.3703(2)
C10 C 1.3166(6) 0.8645(5) 1.3860(2)
C11 C 1.3881(6) 0.7825(5) 1.3733(2)
H6 H 1.3330 0.6904 1.3569
C12 C 1.5413(6) 0.8346(6) 1.3845(3)
C13 C 1.6155(7) 0.7421(6) 1.3667(3)
C14 C 1.6242(7) 0.9722(6) 1.4101(3)
H7 H 1.7263 1.0099 1.4173
C15 C 1.5494(7) 1.0506(6) 1.4244(3)
C16 C 1.3997(7) 1.0031(6) 1.4130(3)
H8 H 1.3545 1.0603 1.4227
C17 C 0.9366(7) 0.8173(5) 0.9894(2)
H9 H 1.0029 0.8915 0.9750
C18 C 0.9447(7) 0.8250(5) 1.0504(2)
H10 H 1.0137 0.9024 1.0762
C19 C 0.8452(6) 0.7123(5) 1.0724(2)
C20 C 0.7410(7) 0.6012(5) 1.0313(3)
H11 H 0.6720 0.5259 1.0442
C21 C 0.7419(6) 0.6046(6) 0.9715(2)
H12 H 0.6710 0.5302 0.9450
C22 C 0.9033(7) 0.8215(5) 1.2403(2)
H13 H 0.9295 0.9007 1.2689
C23 C 0.8956(7) 0.8301(5) 1.1813(2)
H14 H 0.9168 0.9132 1.1705
C24 C 0.8550(6) 0.7114(5) 1.1372(2)
C25 C 0.8298(8) 0.5914(6) 1.1564(3)
H15 H 0.8049 0.5110 1.1288
C26 C 0.8423(8) 0.5928(6) 1.2169(3)
H16 H 0.8273 0.5122 1.2288
C27 C 0.8481(7) 0.8049(5) 0.7355(2)
H17 H 0.8344 0.8734 0.7602
C28 C 0.8570(7) 0.8106(6) 0.6758(2)
H18 H 0.8505 0.8818 0.6614
C29 C 0.8758(6) 0.7073(5) 0.6371(2)
C30 C 0.8894(6) 0.6068(5) 0.6630(2)
H19 H 0.9041 0.5371 0.6397
C31 C 0.8806(7) 0.6119(5) 0.7233(2)
H20 H 0.8912 0.5446 0.7394
C32 C 0.9099(8) 0.8118(6) 0.4880(3)
H21 H 0.9306 0.8908 0.4736
C33 C 0.9098(8) 0.8193(5) 0.5485(2)
H22 H 0.9294 0.9018 0.5736
C34 C 0.8806(6) 0.7047(5) 0.5724(2)
C35 C 0.8510(8) 0.5848(6) 0.5314(3)
H23 H 0.8303 0.5045 0.5447
C36 C 0.8525(9) 0.5855(6) 0.4713(3)
H24 H 0.8320 0.5042 0.4451
C37 C 0.7923(7) 0.4062(5) 0.8407(3)
H25 H 0.8846 0.4449 0.8625
C38 C 0.7246(7) 0.2660(5) 0.8185(3)
H26 H 0.7730 0.2138 0.8251
C39 C 0.5857(6) 0.2036(5) 0.7866(2)
C40 C 0.5205(7) 0.2885(5) 0.7786(3)
H27 H 0.4267 0.2518 0.7583
C41 C 0.5943(7) 0.4269(5) 0.8007(3)
H28 H 0.5488 0.4814 0.7938
C42 C 0.2901(7) -0.1551(6) 0.7269(3)
H29 H 0.1877 -0.1998 0.7217
C43 C 0.3575(7) -0.0157(6) 0.7527(3)
H30 H 0.3002 0.0292 0.7648
C44 C 0.5083(6) 0.0541(5) 0.7601(2)
C45 C 0.5865(7) -0.0211(6) 0.7433(3)
H31 H 0.6890 0.0201 0.7487
C46 C 0.5086(8) -0.1594(6) 0.7183(4)
H32 H 0.5628 -0.2079 0.7072
O5_2 O 1.0620(4) 0.8543(4) 0.87186(18)
N4_2 N 0.8819(5) 0.6970(4) 1.44874(19)
O11_2 O 0.7540(4) 0.8036(4) 1.36477(18)
Zn2_2 Zn 0.87593(7) 0.69707(6) 0.35370(3)
Zn1_2 Zn -0.15746(7) 0.71191(6) 0.85504(3)
Zn2_3 Zn 1.87593(7) 0.69707(6) 1.35370(3)
loop_
_geom_bond_atom_site_label_1
_geom_bond_atom_site_label_2
_geom_bond_site_symmetry_1
_geom_bond_site_symmetry_2
Zn1 N1 1_555 1_555
Zn2 O1 1_555 1_555
O1 H1 1_555 1_555
H2 O1 1_555 1_555
N1 C17 1_555 1_555
N2 Zn2 1_555 1_555
N3 Zn1 1_555 1_555
N4 C32 1_555 1_555
N5 Zn1 1_555 1_555
N6 C42 1_555 1_555
N7 O6 1_555 1_555
N8 O12 1_555 1_555
O2 Zn1 1_555 1_555
O3 Zn1 1_555 1_555
O4 C5 1_555 1_555
O5 C5 1_555 1_555
O7 N7 1_555 1_555
O8 Zn2 1_555 1_555
O9 Zn2 1_555 1_555
O10 C13 1_555 1_555
O11 C13 1_555 1_555
O13 N8 1_555 1_555
C1 O2 1_555 1_555
C2 C1 1_555 1_555
C3 C2 1_555 1_555
H3 C3 1_555 1_555
C4 C3 1_555 1_555
C5 C4 1_555 1_555
C6 C4 1_555 1_555
H4 C6 1_555 1_555
C7 N7 1_555 1_555
C8 C2 1_555 1_555
H5 C8 1_555 1_555
C9 O8 1_555 1_555
C10 C9 1_555 1_555
C11 C10 1_555 1_555
H6 C11 1_555 1_555
C12 C11 1_555 1_555
C13 C12 1_555 1_555
C14 C12 1_555 1_555
H7 C14 1_555 1_555
C15 N8 1_555 1_555
C16 C10 1_555 1_555
H8 C16 1_555 1_555
C17 H9 1_555 1_555
C18 C17 1_555 1_555
H10 C18 1_555 1_555
C19 C18 1_555 1_555
C20 C19 1_555 1_555
H11 C20 1_555 1_555
C21 N1 1_555 1_555
H12 C21 1_555 1_555
C22 N2 1_555 1_555
H13 C22 1_555 1_555
C23 C22 1_555 1_555
H14 C23 1_555 1_555
C24 C19 1_555 1_555
C25 C24 1_555 1_555
H15 C25 1_555 1_555
C26 N2 1_555 1_555
H16 C26 1_555 1_555
C27 N3 1_555 1_555
H17 C27 1_555 1_555
C28 C27 1_555 1_555
H18 C28 1_555 1_555
C29 C28 1_555 1_555
C30 C29 1_555 1_555
H19 C30 1_555 1_555
C31 N3 1_555 1_555
H20 C31 1_555 1_555
C32 H21 1_555 1_555
C33 C32 1_555 1_555
H22 C33 1_555 1_555
C34 C29 1_555 1_555
C35 C34 1_555 1_555
H23 C35 1_555 1_555
C36 N4 1_555 1_555
H24 C36 1_555 1_555
C37 N5 1_555 1_555
H25 C37 1_555 1_555
C38 C37 1_555 1_555
H26 C38 1_555 1_555
C39 C38 1_555 1_555
C40 C39 1_555 1_555
H27 C40 1_555 1_555
C41 N5 1_555 1_555
H28 C41 1_555 1_555
C42 H29 1_555 1_555
C43 C42 1_555 1_555
H30 C43 1_555 1_555
C44 C39 1_555 1_555
C45 C44 1_555 1_555
H31 C45 1_555 1_555
C46 N6 1_555 1_555
H32 C46 1_555 1_555
O5_2 Zn1 1_555 1_555
N4_2 Zn2 1_555 1_555
O11_2 Zn2 1_555 1_555
Zn2_2 N4 1_555 1_555
Zn1_2 O5 1_555 1_555
Zn2_3 O11 1_555 1_555
O3 C1 1_555 1_555
O9 C9 1_555 1_555
C6 C7 1_555 1_555
C7 C8 1_555 1_555
C14 C15 1_555 1_555
C15 C16 1_555 1_555
C20 C21 1_555 1_555
C23 C24 1_555 1_555
C25 C26 1_555 1_555
C30 C31 1_555 1_555
C33 C34 1_555 1_555
C35 C36 1_555 1_555
C40 C41 1_555 1_555
C43 C44 1_555 1_555
C45 C46 1_555 1_555

#END
