
#######################################################################
#
#                 Cambridge Crystallographic Data Centre
#                                CCDC 
#
#######################################################################
#
# If this CIF has been generated from an entry in the Cambridge 
# Structural Database, then it will include bibliographic, chemical, 
# crystal, experimental, refinement or atomic coordinate data resulting 
# from the CCDC's data processing and validation procedures.
#
#######################################################################

data_UJONIQ
_symmetry_cell_setting           triclinic
_symmetry_space_group_name_H-M   'P -1'
_symmetry_Int_Tables_number      2
_space_group_name_Hall           '-P 1'
loop_
_symmetry_equiv_pos_site_id
_symmetry_equiv_pos_as_xyz
1 x,y,z
2 -x,-y,-z
_cell_length_a                   13.547(3)
_cell_length_b                   13.622(3)
_cell_length_c                   14.126(3)
_cell_angle_alpha                68.55(3)
_cell_angle_beta                 64.58(3)
_cell_angle_gamma                87.69(3)
_cell_volume                     2170.12
loop_
_atom_site_label
_atom_site_type_symbol
_atom_site_fract_x
_atom_site_fract_y
_atom_site_fract_z
Re1 Re -0.23672(6) 0.29834(6) 0.66779(6)
Re2 Re -0.41789(6) 0.28116(6) 0.87205(6)
Re3 Re -0.26176(6) 0.46551(6) 0.74384(6)
Re4 Re -0.20475(6) 0.27412(6) 0.85812(6)
Se1 Se -0.08481(14) 0.39913(14) 0.66144(15)
Se2 Se -0.34291(15) 0.37504(15) 0.95283(15)
Se3 Se -0.30733(15) 0.13710(15) 0.84548(15)
Se4 Se -0.38651(15) 0.40939(15) 0.68248(16)
C1 C -0.1689(15) 0.3953(16) 0.4915(17)
C2 C -0.3207(19) 0.2172(16) 0.6156(16)
C3 C -0.1150(14) 0.2044(14) 0.6045(14)
C4 C -0.5327(15) 0.1999(16) 0.8549(17)
C5 C 0.5013(14) -0.1679(15) -0.0370(16)
C6 C -0.5620(17) 0.3577(16) 0.9329(16)
C7 C -0.3713(15) 0.5740(17) 0.7746(16)
C8 C -0.2017(15) 0.5888(18) 0.5842(17)
C9 C -0.1666(16) 0.5641(16) 0.7697(17)
C10 C -0.0897(16) 0.3366(17) 0.8969(15)
C11 C 0.2517(15) -0.1654(18) -0.0246(18)
C12 C -0.0825(16) 0.1761(15) 0.8313(16)
N1 N -0.1326(13) 0.4392(15) 0.3951(15)
N2 N -0.3615(17) 0.1781(16) 0.5801(16)
N3 N -0.0512(15) 0.1551(14) 0.5680(13)
N4 N -0.5973(14) 0.1546(16) 0.8440(17)
N5 N 0.5559(15) -0.1073(17) -0.1285(16)
N6 N -0.632(2) 0.3989(16) 0.9592(18)
N7 N -0.4306(15) 0.6392(16) 0.7854(18)
N8 N -0.1682(15) 0.6603(15) 0.4926(16)
N9 N -0.1129(15) 0.6163(15) 0.7824(14)
N10 N 0.0284(12) -0.3653(15) 0.0794(14)
N11 N 0.2670(16) -0.1103(17) -0.1149(17)
N12 N -0.0137(15) 0.1200(15) 0.8223(16)
K1 K -0.5346(4) 0.0113(4) 0.7236(4)
Cu1 Cu 0.0000 0.0000 0.5000
Cu2 Cu 0.1449(2) 0.35078(19) -0.0679(2)
C13 C 0.226(2) 0.291(2) -0.2631(18)
H1 H 0.1671 0.3043 -0.2854
H2 H 0.2717 0.2453 -0.2983
C14 C 0.200(2) 0.5759(19) -0.141(2)
H3 H 0.2384 0.6307 -0.1349
H4 H 0.1387 0.6039 -0.1548
C15 C 0.295(2) 0.394(2) -0.299(2)
H5 H 0.3589 0.3796 -0.2851
H6 H 0.3197 0.4346 -0.3798
C16 C 0.161(2) 0.1697(16) 0.1260(17)
H7 H 0.2226 0.2100 0.1189
H8 H 0.1899 0.1356 0.0719
C17 C 0.277(2) 0.5454(19) -0.2351(19)
H9 H 0.2965 0.6044 -0.3073
H10 H 0.3441 0.5290 -0.2273
C18 C 0.2352(17) 0.0543(18) 0.3958(18)
H11 H 0.2979 0.0743 0.4045
H12 H 0.2574 0.0094 0.3525
C19 C 0.1952(16) 0.1537(15) 0.3355(16)
H13 H 0.1810 0.2021 0.3744
H14 H 0.2509 0.1903 0.2578
C20 C 0.1089(17) 0.0849(14) 0.2422(16)
H15 H 0.0384 0.0547 0.2553
H16 H 0.1553 0.0288 0.2445
N13 N 0.1803(15) 0.2383(15) -0.1366(16)
H17 H 0.2296 0.2003 -0.1178
H18 H 0.1185 0.1935 -0.1087
N14 N 0.1596(15) 0.4806(14) -0.0342(13)
H19 H 0.0937 0.4876 0.0161
H20 H 0.2072 0.4728 -0.0037
N15 N 0.2246(13) 0.4535(13) -0.2326(13)
H21 H 0.1727 0.4757 -0.2576
N16 N 0.0892(13) 0.2455(11) 0.0930(12)
H22 H 0.0697 0.2827 0.1379
H23 H 0.0271 0.2070 0.1100
N17 N 0.1415(12) -0.0028(12) 0.5084(12)
H24 H 0.1525 -0.0709 0.5364
H25 H 0.1386 0.0274 0.5564
N18 N 0.0903(12) 0.1175(12) 0.3368(12)
H26 H 0.0514 0.1737 0.3304
O2 O -0.6193(14) 0.0584(15) 0.5706(15)
O4 O -0.5010(12) -0.1710(13) 0.6702(14)
C3A C 0.1150(14) -0.2044(14) 0.3955(14)
N3A N 0.0512(15) -0.1551(14) 0.4320(13)
C16A C -0.161(2) -0.1697(16) 0.8740(17)
H7A H -0.2226 -0.2100 0.8811
H8A H -0.1899 -0.1356 0.9281
C18A C -0.2352(17) -0.0543(18) 0.6042(18)
H11A H -0.2979 -0.0743 0.5955
H12A H -0.2574 -0.0094 0.6475
C19A C -0.1952(16) -0.1537(15) 0.6645(16)
H13A H -0.1810 -0.2021 0.6256
H14A H -0.2509 -0.1903 0.7422
C20A C -0.1089(17) -0.0849(14) 0.7578(16)
H15A H -0.0384 -0.0547 0.7447
H16A H -0.1553 -0.0288 0.7555
N16A N -0.0892(13) -0.2455(11) 0.9070(12)
H22A H -0.0697 -0.2827 0.8621
H23A H -0.0271 -0.2070 0.8900
N17A N -0.1415(12) 0.0028(12) 0.4916(12)
H24A H -0.1525 0.0709 0.4636
H25A H -0.1386 -0.0274 0.4436
N18A N -0.0903(12) -0.1175(12) 0.6632(12)
H26A H -0.0514 -0.1737 0.6696
Re1A Re 0.23672(6) -0.29834(6) 0.33221(6)
Cu2A Cu -0.1449(2) -0.35078(19) 1.0679(2)
Se1A Se 0.08481(14) -0.39913(14) 0.33856(15)
Se3A Se 0.30733(15) -0.13710(15) 0.15452(15)
Se4A Se 0.38651(15) -0.40939(15) 0.31752(16)
C1A C 0.1689(15) -0.3953(16) 0.5085(17)
N1A N 0.1326(13) -0.4392(15) 0.6049(15)
C2A C 0.3207(19) -0.2172(16) 0.3844(16)
N2A N 0.3615(17) -0.1781(16) 0.4199(16)
N10_2 N 0.0284(12) -0.3653(15) 1.0794(14)
C13A C -0.226(2) -0.291(2) 1.2631(18)
H1A H -0.1671 -0.3043 1.2854
H2A H -0.2717 -0.2453 1.2983
C14A C -0.200(2) -0.5759(19) 1.141(2)
H3A H -0.2384 -0.6307 1.1349
H4A H -0.1387 -0.6039 1.1548
C15A C -0.295(2) -0.394(2) 1.299(2)
H5A H -0.3589 -0.3796 1.2851
H6A H -0.3197 -0.4346 1.3798
C17A C -0.277(2) -0.5454(19) 1.2351(19)
H9A H -0.2965 -0.6044 1.3073
H10A H -0.3441 -0.5290 1.2273
N13A N -0.1803(15) -0.2383(15) 1.1366(16)
H17A H -0.2296 -0.2003 1.1178
H18A H -0.1185 -0.1935 1.1087
N14A N -0.1596(15) -0.4806(14) 1.0342(13)
H19A H -0.0937 -0.4876 0.9839
H20A H -0.2072 -0.4728 1.0037
N15A N -0.2246(13) -0.4535(13) 1.2326(13)
H21A H -0.1727 -0.4757 1.2576
Re2A Re 0.41789(6) -0.28116(6) 0.12795(6)
Re3A Re 0.26176(6) -0.46551(6) 0.25616(6)
Re4A Re 0.20475(6) -0.27412(6) 0.14188(6)
K1A K 0.5346(4) -0.0113(4) 0.2764(4)
N5_2 N -0.4441(15) -0.1073(17) 0.8715(16)
N11_2 N -0.7330(16) -0.1103(17) 0.8851(17)
Se2A Se 0.34291(15) -0.37504(15) 0.04717(15)
C4A C 0.5327(15) -0.1999(16) 0.1451(17)
N4A N 0.5973(14) -0.1546(16) 0.1560(17)
C6A C 0.5620(17) -0.3577(16) 0.0671(16)
N6A N 0.632(2) -0.3989(16) 0.0408(18)
C7A C 0.3713(15) -0.5740(17) 0.2254(16)
N7A N 0.4306(15) -0.6392(16) 0.2146(18)
C8A C 0.2017(15) -0.5888(18) 0.4158(17)
N8A N 0.1682(15) -0.6603(15) 0.5074(16)
C9A C 0.1666(16) -0.5641(16) 0.2303(17)
N9A N 0.1129(15) -0.6163(15) 0.2176(14)
C12A C 0.0825(16) -0.1761(15) 0.1687(16)
N12A N 0.0137(15) -0.1200(15) 0.1777(16)
O2A O 0.6193(14) -0.0584(15) 0.4294(15)
O4A O 0.5010(12) 0.1710(13) 0.3298(14)
C5A C -0.5013(14) 0.1679(15) 1.0370(16)
C10A C 0.0897(16) -0.3366(17) 0.1031(15)
C11A C -0.2517(15) 0.1654(18) 1.0246(18)
N5A N 0.4441(15) 0.1073(17) 0.1285(16)
N11A N 0.7330(16) 0.1103(17) 0.1149(17)
K1_2 K 0.4654(4) 0.0113(4) -0.2764(4)
N10A N -0.0284(12) 0.3653(15) -0.0794(14)
Cu2A_2 Cu -0.1449(2) -0.35078(19) 0.0679(2)
N11A_2 N -0.2670(16) 0.1103(17) 1.1149(17)
N5A_2 N -0.5559(15) 0.1073(17) 1.1285(16)
N10A_2 N -0.0284(12) 0.3653(15) 0.9206(14)
Cu2_2 Cu 0.1449(2) 0.35078(19) 0.9321(2)
K1A_2 K -0.4654(4) -0.0113(4) 1.2764(4)
O1 O 0.1055(13) -0.2427(14) -0.3180(14)
O3 O 0.1749(12) -0.8723(11) 0.6231(12)
O5 O -0.0337(16) 0.0867(15) 0.0777(19)
O6 O 0.3150(17) -0.1581(18) -0.3672(19)
loop_
_geom_bond_atom_site_label_1
_geom_bond_atom_site_label_2
_geom_bond_site_symmetry_1
_geom_bond_site_symmetry_2
Re1 Se1 1_555 1_555
Re2 Se2 1_555 1_555
Re3 Se1 1_555 1_555
Re4 Se1 1_555 1_555
Se2 Re3 1_555 1_555
Se3 Re1 1_555 1_555
Se4 Re1 1_555 1_555
C1 Re1 1_555 1_555
C2 Re1 1_555 1_555
C3 Re1 1_555 1_555
C4 Re2 1_555 1_555
C5 N5 1_555 1_555
C6 Re2 1_555 1_555
C7 Re3 1_555 1_555
C8 Re3 1_555 1_555
C9 Re3 1_555 1_555
C10 Re4 1_555 1_555
C11 N11 1_555 1_555
C12 Re4 1_555 1_555
N1 C1 1_555 1_555
N2 C2 1_555 1_555
N3 C3 1_555 1_555
N4 C4 1_555 1_555
N5 K1_2 1_555 1_555
N6 C6 1_555 1_555
N7 C7 1_555 1_555
N8 C8 1_555 1_555
N9 C9 1_555 1_555
N10 C10A 1_555 1_555
N11 K1_2 1_555 1_555
N12 C12 1_555 1_555
K1 N2 1_555 1_555
Cu1 N3 1_555 1_555
Cu2 N13 1_555 1_555
C13 H1 1_555 1_555
H2 C13 1_555 1_555
C14 H3 1_555 1_555
H4 C14 1_555 1_555
C15 C13 1_555 1_555
H5 C15 1_555 1_555
H6 C15 1_555 1_555
C16 H7 1_555 1_555
H8 C16 1_555 1_555
C17 C14 1_555 1_555
H9 C17 1_555 1_555
H10 C17 1_555 1_555
C18 H11 1_555 1_555
H12 C18 1_555 1_555
C19 C18 1_555 1_555
H13 C19 1_555 1_555
H14 C19 1_555 1_555
C20 C16 1_555 1_555
H15 C20 1_555 1_555
H16 C20 1_555 1_555
N13 C13 1_555 1_555
H17 N13 1_555 1_555
H18 N13 1_555 1_555
N14 Cu2 1_555 1_555
H19 N14 1_555 1_555
H20 N14 1_555 1_555
N15 Cu2 1_555 1_555
H21 N15 1_555 1_555
N16 Cu2 1_555 1_555
H22 N16 1_555 1_555
H23 N16 1_555 1_555
N17 Cu1 1_555 1_555
H24 N17 1_555 1_555
H25 N17 1_555 1_555
N18 Cu1 1_555 1_555
H26 N18 1_555 1_555
O2 K1 1_555 1_555
O4 K1 1_555 1_555
C3A N3A 1_555 1_555
N3A Cu1 1_555 1_555
C16A H7A 1_555 1_555
H8A C16A 1_555 1_555
C18A H11A 1_555 1_555
H12A C18A 1_555 1_555
C19A C18A 1_555 1_555
H13A C19A 1_555 1_555
H14A C19A 1_555 1_555
C20A C16A 1_555 1_555
H15A C20A 1_555 1_555
H16A C20A 1_555 1_555
N16A C16A 1_555 1_555
H22A N16A 1_555 1_555
H23A N16A 1_555 1_555
N17A Cu1 1_555 1_555
H24A N17A 1_555 1_555
H25A N17A 1_555 1_555
N18A Cu1 1_555 1_555
H26A N18A 1_555 1_555
Re1A C3A 1_555 1_555
Cu2A N16A 1_555 1_555
Se1A Re1A 1_555 1_555
Se3A Re1A 1_555 1_555
Se4A Re1A 1_555 1_555
C1A Re1A 1_555 1_555
N1A C1A 1_555 1_555
C2A Re1A 1_555 1_555
N2A C2A 1_555 1_555
N10_2 Cu2A 1_555 1_555
C13A H1A 1_555 1_555
H2A C13A 1_555 1_555
C14A H3A 1_555 1_555
H4A C14A 1_555 1_555
C15A C13A 1_555 1_555
H5A C15A 1_555 1_555
H6A C15A 1_555 1_555
C17A C14A 1_555 1_555
H9A C17A 1_555 1_555
H10A C17A 1_555 1_555
N13A Cu2A 1_555 1_555
H17A N13A 1_555 1_555
H18A N13A 1_555 1_555
N14A Cu2A 1_555 1_555
H19A N14A 1_555 1_555
H20A N14A 1_555 1_555
N15A Cu2A 1_555 1_555
H21A N15A 1_555 1_555
Re2A C5 1_555 1_555
Re3A Se1A 1_555 1_555
Re4A C11 1_555 1_555
K1A N2A 1_555 1_555
N5_2 K1 1_555 1_555
N11_2 K1 1_555 1_555
Se2A Re2A 1_555 1_555
C4A Re2A 1_555 1_555
N4A K1A 1_555 1_555
C6A Re2A 1_555 1_555
N6A C6A 1_555 1_555
C7A Re3A 1_555 1_555
N7A C7A 1_555 1_555
C8A Re3A 1_555 1_555
N8A C8A 1_555 1_555
C9A Re3A 1_555 1_555
N9A C9A 1_555 1_555
C12A Re4A 1_555 1_555
N12A C12A 1_555 1_555
O2A K1A 1_555 1_555
O4A K1A 1_555 1_555
C5A Re2 1_555 1_555
C10A Re4A 1_555 1_555
C11A Re4 1_555 1_555
N5A K1A 1_555 1_555
N11A K1A 1_555 1_555
N10A Cu2 1_555 1_555
Cu2A_2 N10 1_555 1_555
N11A_2 C11A 1_555 1_555
N5A_2 C5A 1_555 1_555
N10A_2 C10 1_555 1_555
Cu2_2 N10A_2 1_555 1_555
K1A_2 N11A_2 1_555 1_555
Re2 Se3 1_555 1_555
Re2 Se4 1_555 1_555
Re3 Se4 1_555 1_555
Re4 Se3 1_555 1_555
Re4 Se2 1_555 1_555
N4 K1 1_555 1_555
C14 N14 1_555 1_555
C15 N15 1_555 1_555
C16 N16 1_555 1_555
C17 N15 1_555 1_555
C18 N17 1_555 1_555
C19 N18 1_555 1_555
C20 N18 1_555 1_555
C18A N17A 1_555 1_555
C19A N18A 1_555 1_555
C20A N18A 1_555 1_555
Se1A Re4A 1_555 1_555
Se3A Re2A 1_555 1_555
Se3A Re4A 1_555 1_555
Se4A Re3A 1_555 1_555
Se4A Re2A 1_555 1_555
C13A N13A 1_555 1_555
C14A N14A 1_555 1_555
C15A N15A 1_555 1_555
C17A N15A 1_555 1_555
Re3A Se2A 1_555 1_555
Re4A Se2A 1_555 1_555
C4A N4A 1_555 1_555
N5A_2 K1A_2 1_555 1_555

#END
