
#######################################################################
#
#                 Cambridge Crystallographic Data Centre
#                                CCDC 
#
#######################################################################
#
# If this CIF has been generated from an entry in the Cambridge 
# Structural Database, then it will include bibliographic, chemical, 
# crystal, experimental, refinement or atomic coordinate data resulting 
# from the CCDC's data processing and validation procedures.
#
#######################################################################

data_UJOYOI
_symmetry_cell_setting           triclinic
_symmetry_space_group_name_H-M   'P -1'
_symmetry_Int_Tables_number      2
_space_group_name_Hall           '-P 1'
loop_
_symmetry_equiv_pos_site_id
_symmetry_equiv_pos_as_xyz
1 x,y,z
2 -x,-y,-z
_cell_length_a                   11.2011(4)
_cell_length_b                   20.4224(7)
_cell_length_c                   21.3284(7)
_cell_angle_alpha                87.517(1)
_cell_angle_beta                 88.430(1)
_cell_angle_gamma                74.111(1)
_cell_volume                     4687.52
loop_
_atom_site_label
_atom_site_type_symbol
_atom_site_fract_x
_atom_site_fract_y
_atom_site_fract_z
N1 N 0.2143(5) -0.2129(2) 0.3887(2)
C1 C -0.1110(6) -0.3495(3) 0.5447(3)
C2 C -0.0936(7) -0.4110(4) 0.4495(4)
H1 H -0.0690 -0.4165 0.4076
C3 C -0.0907(7) -0.2953(4) 0.5850(3)
C4 C -0.1633(7) -0.3983(4) 0.5747(4)
H2 H -0.1849 -0.3948 0.6171
C5 C -0.1825(8) -0.4506(4) 0.5422(4)
H3 H -0.2194 -0.4818 0.5620
C6 C -0.1471(8) -0.4570(4) 0.4799(5)
H4 H -0.1595 -0.4930 0.4580
O1 O 0.0214(4) -0.3038(2) 0.6009(2)
O2 O -0.1820(5) -0.2504(3) 0.6039(2)
Ni1 Ni 0.39844(7) -0.21463(4) 0.17112(4)
Ni2 Ni 0.26572(7) -0.24689(4) 0.25291(4)
Ni3 Ni 0.13945(8) -0.27852(4) 0.33732(4)
Ni4 Ni 0.36094(8) -0.21841(4) -0.16867(4)
Ni5 Ni 0.10882(8) -0.27294(4) -0.33053(4)
Ni6 Ni 0.23484(7) -0.24615(4) -0.24896(4)
O6 O 0.4824(4) -0.1766(2) 0.0998(2)
O7 O 0.0440(4) -0.3218(2) 0.3996(2)
N2 N 0.2210(5) -0.3234(2) -0.1993(2)
O8 O 0.4601(4) -0.1800(2) -0.1120(2)
N3 N 0.2471(5) -0.1689(2) -0.2991(2)
N4 N 0.1703(5) -0.1554(2) 0.2571(2)
N5 N -0.0241(5) -0.2539(3) -0.2583(2)
N6 N 0.2981(5) -0.3604(2) 0.3487(2)
N7 N 0.3821(5) -0.3000(2) -0.2873(2)
N8 N 0.2272(5) -0.1911(2) 0.1216(2)
N9 N 0.0891(5) -0.1929(2) -0.2084(2)
N10 N 0.4313(5) -0.3146(2) 0.1478(2)
N11 N 0.3624(5) -0.3386(2) 0.2482(2)
N12 N 0.3736(5) -0.2322(2) 0.3146(2)
N13 N 0.1709(5) -0.3710(2) -0.2884(2)
N14 N 0.1563(5) -0.2607(2) 0.1924(2)
N15 N 0.4268(5) -0.1715(2) -0.2462(2)
N16 N 0.3375(5) -0.1215(2) 0.2142(2)
N17 N 0.5349(5) -0.2494(2) 0.2411(2)
N18 N 0.2068(5) -0.1343(3) -0.1586(3)
C7 C -0.0762(6) -0.3564(3) 0.4815(3)
N19 N 0.2785(5) -0.2929(3) -0.3819(2)
C8 C 0.1036(6) -0.3143(3) 0.2033(3)
N20 N 0.0094(5) -0.1910(2) 0.3050(2)
N21 N 0.0984(4) -0.3352(2) 0.2641(2)
N22 N 0.4814(5) -0.3106(2) -0.1926(2)
C9 C 0.6062(6) -0.1360(3) 0.0240(3)
N23 N 0.2730(5) -0.2760(2) -0.1102(2)
C10 C 0.1321(6) -0.2176(3) 0.1400(3)
C11 C 0.2113(6) -0.3805(3) -0.2290(3)
N24 N 0.0730(5) -0.1706(3) -0.3549(2)
C12 C 0.5725(6) -0.1384(3) -0.0389(3)
C13 C 0.4993(6) -0.2506(3) 0.3021(3)
C14 C -0.0285(6) -0.3025(3) 0.4461(3)
O9 O -0.0656(5) -0.2432(2) 0.4632(2)
C15 C 0.4798(6) -0.3349(3) -0.2514(3)
C16 C 0.3885(6) -0.3015(3) -0.3521(3)
C17 C 0.2319(6) -0.1058(3) 0.2499(3)
C18 C -0.0129(6) -0.2195(3) -0.2070(3)
C19 C 0.4108(6) -0.3622(3) 0.1906(3)
C20 C 0.0448(6) -0.1416(3) 0.2711(3)
C21 C 0.1532(6) -0.1351(3) -0.3381(3)
C22 C 0.0389(7) -0.4106(4) 0.1703(4)
H5 H 0.0163 -0.4351 0.1391
C23 C 0.3626(6) -0.1551(3) -0.2998(3)
C24 C 0.2140(6) -0.3194(3) -0.1348(3)
C25 C 0.3834(6) -0.3791(3) 0.3017(3)
C26 C 0.4970(6) -0.3051(3) -0.3867(3)
H6 H 0.5705 -0.3075 -0.3663
C27 C 0.1483(7) -0.3532(3) -0.0946(3)
H7 H 0.1039 -0.3806 -0.1113
C28 C 0.0913(6) -0.1376(3) -0.1750(3)
C29 C 0.2086(7) -0.1466(3) 0.0722(3)
H8 H 0.2718 -0.1271 0.0600
C30 C 0.5442(7) -0.1669(3) -0.2469(3)
H9 H 0.5887 -0.1789 -0.2100
C31 C -0.1799(7) -0.2521(4) -0.1542(4)
H10 H -0.2326 -0.2510 -0.1196
C32 C -0.0908(6) -0.2179(4) -0.1542(3)
H11 H -0.0819 -0.1939 -0.1194
C33 C 0.2691(7) -0.2698(4) -0.0479(3)
H12 H 0.3074 -0.2394 -0.0314
C34 C 0.5218(7) -0.1945(3) -0.0608(3)
C35 C 0.6027(7) -0.1458(4) -0.2973(4)
H13 H 0.6845 -0.1439 -0.2954
C36 C 0.5627(6) -0.3481(3) -0.1502(3)
H14 H 0.5584 -0.3330 -0.1095
C37 C 0.6547(6) -0.2757(3) 0.2258(4)
H15 H 0.6778 -0.2758 0.1835
C38 C 0.0177(6) -0.1990(3) 0.1091(3)
H16 H -0.0475 -0.2161 0.1235
C39 C 0.0424(7) -0.4336(4) 0.2322(4)
H17 H 0.0254 -0.4748 0.2430
C40 C 0.1966(7) -0.0436(3) 0.2799(3)
H18 H 0.1236 -0.0318 0.3036
C41 C 0.3239(7) -0.2016(3) 0.3687(3)
C42 C 0.1624(6) -0.4255(3) -0.3205(3)
H19 H 0.1369 -0.4186 -0.3619
C43 C 0.3853(7) -0.2997(4) -0.4809(3)
H20 H 0.3829 -0.3012 -0.5243
O10 O 0.5441(6) -0.2490(3) -0.0314(2)
C44 C 0.0711(6) -0.3952(3) 0.2776(3)
H21 H 0.0720 -0.4108 0.3193
C45 C 0.5914(7) -0.0888(4) -0.0819(3)
H22 H 0.5693 -0.0897 -0.1235
C46 C 0.5894(8) -0.1869(4) 0.0756(3)
C47 C 0.4151(7) -0.1314(3) -0.3540(3)
H23 H 0.3696 -0.1188 -0.3905
C48 C 0.0695(7) -0.3506(4) 0.1552(3)
H24 H 0.0676 -0.3343 0.1137
C49 C 0.6536(6) -0.4292(3) -0.2255(4)
H25 H 0.7136 -0.4682 -0.2374
C50 C -0.0019(7) -0.0313(3) -0.1287(3)
H26 H -0.0722 0.0029 -0.1179
C51 C 0.3162(7) -0.3966(3) 0.4035(3)
H27 H 0.2576 -0.3831 0.4355
C52 C 0.2440(6) -0.4464(3) -0.2010(3)
H28 H 0.2747 -0.4534 -0.1604
C53 C 0.4953(7) -0.3050(4) -0.4514(3)
H29 H 0.5679 -0.3086 -0.4748
C54 C 0.5867(7) -0.2755(4) 0.3485(3)
H30 H 0.5625 -0.2746 0.3906
C55 C -0.0495(8) -0.0709(4) -0.4102(4)
H31 H -0.1182 -0.0502 -0.4345
C56 C 0.4143(7) -0.4515(4) 0.4153(4)
H32 H 0.4214 -0.4756 0.4536
C57 C 0.3735(7) -0.1575(4) 0.4005(3)
H33 H 0.4503 -0.1516 0.3882
C58 C 0.4090(7) -0.0781(3) 0.2102(3)
H34 H 0.4814 -0.0898 0.1859
C59 C 0.5680(6) -0.3937(3) -0.2684(3)
H35 H 0.5694 -0.4092 -0.3089
C60 C 0.2145(7) -0.0787(3) -0.1298(3)
H36 H 0.2930 -0.0751 -0.1205
C61 C 0.1324(7) -0.0665(3) -0.3580(3)
H37 H 0.1870 -0.0423 -0.3465
C62 C 0.1122(8) -0.0260(3) -0.1129(4)
H38 H 0.1211 0.0112 -0.0917
C63 C -0.0273(7) -0.1381(4) -0.3891(3)
H39 H -0.0837 -0.1619 -0.3990
C64 C 0.4327(7) -0.4298(3) 0.1726(4)
H40 H 0.4173 -0.4626 0.2008
C65 C 0.2796(7) -0.2921(3) -0.4453(3)
H41 H 0.2048 -0.2861 -0.4657
O11 O 0.6832(6) -0.2333(3) 0.0901(3)
C66 C -0.2041(7) -0.1270(4) 0.2954(4)
H42 H -0.2875 -0.1240 0.3033
C67 C -0.1683(7) -0.0756(4) 0.2622(4)
H43 H -0.2277 -0.0364 0.2487
C68 C 0.6513(7) -0.4073(4) -0.1642(4)
H44 H 0.7069 -0.4315 -0.1343
C69 C 0.1982(8) -0.1330(4) 0.4686(4)
H45 H 0.1538 -0.1100 0.5023
C70 C 0.7085(8) -0.3011(4) 0.3317(4)
H46 H 0.7674 -0.3179 0.3625
C71 C 0.4876(7) -0.4341(3) 0.3117(3)
H47 H 0.5467 -0.4463 0.2798
C72 C 0.0991(7) -0.1285(4) 0.0386(3)
H48 H 0.0907 -0.0986 0.0038
C73 C 0.1527(7) -0.1773(3) 0.4370(3)
H49 H 0.0760 -0.1832 0.4494
C74 C -0.1125(7) -0.2876(4) -0.2564(3)
H50 H -0.1207 -0.3119 -0.2911
C75 C 0.0038(7) -0.1551(4) 0.0573(3)
H51 H -0.0699 -0.1437 0.0352
C76 C 0.4726(7) -0.3336(4) 0.0903(3)
H52 H 0.4851 -0.3004 0.0616
C77 C 0.4769(8) -0.4473(4) 0.1136(4)
H53 H 0.4929 -0.4924 0.1022
C78 C 0.1484(8) -0.3467(4) -0.0311(3)
H54 H 0.1058 -0.3700 -0.0043
C79 C -0.0449(7) -0.0828(3) 0.2495(3)
H55 H -0.0204 -0.0488 0.2266
C80 C 0.4979(8) -0.3995(4) 0.0707(4)
H56 H 0.5277 -0.4110 0.0304
C81 C -0.0152(7) -0.0853(3) -0.1599(3)
H57 H -0.0934 -0.0878 -0.1712
C82 C 0.6428(7) -0.0381(4) -0.0638(4)
H58 H 0.6573 -0.0063 -0.0935
C83 C 0.6723(7) -0.0349(4) -0.0020(4)
H59 H 0.7047 -0.0003 0.0106
C84 C 0.2307(6) -0.5002(3) -0.2335(4)
H60 H 0.2490 -0.5436 -0.2146
C85 C 0.3098(9) -0.1225(4) 0.4502(4)
H61 H 0.3419 -0.0922 0.4711
C86 C 0.6532(7) -0.0835(4) 0.0411(4)
H62 H 0.6726 -0.0809 0.0829
C87 C 0.5042(7) -0.4706(4) 0.3678(4)
H63 H 0.5739 -0.5072 0.3742
C88 C -0.1913(7) -0.2879(4) -0.2054(4)
H64 H -0.2508 -0.3119 -0.2060
C89 C 0.3809(9) -0.0176(4) 0.2401(4)
H65 H 0.4337 0.0105 0.2378
C90 C -0.1131(7) -0.1823(4) 0.3163(3)
H66 H -0.1369 -0.2162 0.3398
C91 C 0.5354(8) -0.1275(4) -0.3513(4)
H67 H 0.5720 -0.1123 -0.3867
C92 C 0.2706(8) -0.0004(4) 0.2739(4)
H68 H 0.2462 0.0414 0.2929
C93 C 0.0335(8) -0.0352(4) -0.3939(4)
H69 H 0.0214 0.0100 -0.4075
C94 C 0.1895(7) -0.4895(4) -0.2949(4)
H70 H 0.1808 -0.5256 -0.3179
C95 C 0.2126(8) -0.3050(4) -0.0075(3)
H71 H 0.2172 -0.3011 0.0356
C96 C 0.7452(7) -0.3025(4) 0.2690(4)
H72 H 0.8276 -0.3207 0.2568
O1_2 O 0.0214(4) -0.3038(2) -0.3991(2)
Ni5_2 Ni 0.10882(8) -0.27294(4) 0.66947(4)
O3 O -0.3159(8) -0.1853(5) 0.4976(4)
O4 O -0.3696(19) -0.0457(8) 0.4712(10)
O5 O 0.8234(13) -0.3344(9) 0.0138(7)
O12? O 0.892(4) -0.451(2) 0.010(3)
loop_
_geom_bond_atom_site_label_1
_geom_bond_atom_site_label_2
_geom_bond_site_symmetry_1
_geom_bond_site_symmetry_2
N1 Ni3 1_555 1_555
C1 C3 1_555 1_555
C2 H1 1_555 1_555
C3 O1 1_555 1_555
C4 C1 1_555 1_555
H2 C4 1_555 1_555
C5 C4 1_555 1_555
H3 C5 1_555 1_555
C6 C2 1_555 1_555
H4 C6 1_555 1_555
O1 Ni5_2 1_555 1_555
O2 C3 1_555 1_555
Ni1 Ni2 1_555 1_555
Ni2 Ni3 1_555 1_555
Ni3 O7 1_555 1_555
Ni4 Ni6 1_555 1_555
Ni5 Ni6 1_555 1_555
Ni6 N2 1_555 1_555
O6 Ni1 1_555 1_555
O7 C14 1_555 1_555
N2 C11 1_555 1_555
O8 Ni4 1_555 1_555
N3 Ni6 1_555 1_555
N4 Ni2 1_555 1_555
N5 Ni5 1_555 1_555
N6 Ni3 1_555 1_555
N7 Ni6 1_555 1_555
N8 Ni1 1_555 1_555
N9 Ni6 1_555 1_555
N10 Ni1 1_555 1_555
N11 Ni2 1_555 1_555
N12 Ni2 1_555 1_555
N13 Ni5 1_555 1_555
N14 Ni2 1_555 1_555
N15 Ni4 1_555 1_555
N16 Ni1 1_555 1_555
N17 Ni1 1_555 1_555
N18 Ni4 1_555 1_555
C7 C1 1_555 1_555
N19 Ni5 1_555 1_555
C8 N14 1_555 1_555
N20 Ni3 1_555 1_555
N21 Ni3 1_555 1_555
N22 Ni4 1_555 1_555
C9 C12 1_555 1_555
N23 Ni4 1_555 1_555
C10 N8 1_555 1_555
C11 N13 1_555 1_555
N24 Ni5 1_555 1_555
C12 C34 1_555 1_555
C13 N12 1_555 1_555
C14 C7 1_555 1_555
O9 C14 1_555 1_555
C15 N7 1_555 1_555
C16 N7 1_555 1_555
C17 N4 1_555 1_555
C18 N5 1_555 1_555
C19 N10 1_555 1_555
C20 N4 1_555 1_555
C21 N3 1_555 1_555
C22 H5 1_555 1_555
C23 N3 1_555 1_555
C24 N2 1_555 1_555
C25 N6 1_555 1_555
C26 C16 1_555 1_555
H6 C26 1_555 1_555
C27 C24 1_555 1_555
H7 C27 1_555 1_555
C28 N9 1_555 1_555
C29 N8 1_555 1_555
H8 C29 1_555 1_555
C30 N15 1_555 1_555
H9 C30 1_555 1_555
C31 H10 1_555 1_555
C32 C18 1_555 1_555
H11 C32 1_555 1_555
C33 N23 1_555 1_555
H12 C33 1_555 1_555
C34 O8 1_555 1_555
C35 C30 1_555 1_555
H13 C35 1_555 1_555
C36 N22 1_555 1_555
H14 C36 1_555 1_555
C37 N17 1_555 1_555
H15 C37 1_555 1_555
C38 C10 1_555 1_555
H16 C38 1_555 1_555
C39 C22 1_555 1_555
H17 C39 1_555 1_555
C40 C17 1_555 1_555
H18 C40 1_555 1_555
C41 N1 1_555 1_555
C42 N13 1_555 1_555
H19 C42 1_555 1_555
C43 H20 1_555 1_555
O10 C34 1_555 1_555
C44 N21 1_555 1_555
H21 C44 1_555 1_555
C45 C12 1_555 1_555
H22 C45 1_555 1_555
C46 O6 1_555 1_555
C47 C23 1_555 1_555
H23 C47 1_555 1_555
C48 C8 1_555 1_555
H24 C48 1_555 1_555
C49 H25 1_555 1_555
C50 H26 1_555 1_555
C51 N6 1_555 1_555
H27 C51 1_555 1_555
C52 C11 1_555 1_555
H28 C52 1_555 1_555
C53 C26 1_555 1_555
H29 C53 1_555 1_555
C54 C13 1_555 1_555
H30 C54 1_555 1_555
C55 H31 1_555 1_555
C56 C51 1_555 1_555
H32 C56 1_555 1_555
C57 C41 1_555 1_555
H33 C57 1_555 1_555
C58 N16 1_555 1_555
H34 C58 1_555 1_555
C59 C15 1_555 1_555
H35 C59 1_555 1_555
C60 N18 1_555 1_555
H36 C60 1_555 1_555
C61 C21 1_555 1_555
H37 C61 1_555 1_555
C62 C50 1_555 1_555
H38 C62 1_555 1_555
C63 N24 1_555 1_555
H39 C63 1_555 1_555
C64 C19 1_555 1_555
H40 C64 1_555 1_555
C65 N19 1_555 1_555
H41 C65 1_555 1_555
O11 C46 1_555 1_555
C66 H42 1_555 1_555
C67 C66 1_555 1_555
H43 C67 1_555 1_555
C68 C36 1_555 1_555
H44 C68 1_555 1_555
C69 H45 1_555 1_555
C70 C54 1_555 1_555
H46 C70 1_555 1_555
C71 C25 1_555 1_555
H47 C71 1_555 1_555
C72 C29 1_555 1_555
H48 C72 1_555 1_555
C73 N1 1_555 1_555
H49 C73 1_555 1_555
C74 N5 1_555 1_555
H50 C74 1_555 1_555
C75 C38 1_555 1_555
H51 C75 1_555 1_555
C76 N10 1_555 1_555
H52 C76 1_555 1_555
C77 C64 1_555 1_555
H53 C77 1_555 1_555
C78 C27 1_555 1_555
H54 C78 1_555 1_555
C79 C20 1_555 1_555
H55 C79 1_555 1_555
C80 C76 1_555 1_555
H56 C80 1_555 1_555
C81 C28 1_555 1_555
H57 C81 1_555 1_555
C82 C45 1_555 1_555
H58 C82 1_555 1_555
C83 C82 1_555 1_555
H59 C83 1_555 1_555
C84 C52 1_555 1_555
H60 C84 1_555 1_555
C85 C57 1_555 1_555
H61 C85 1_555 1_555
C86 C9 1_555 1_555
H62 C86 1_555 1_555
C87 C56 1_555 1_555
H63 C87 1_555 1_555
C88 C31 1_555 1_555
H64 C88 1_555 1_555
C89 C58 1_555 1_555
H65 C89 1_555 1_555
C90 N20 1_555 1_555
H66 C90 1_555 1_555
C91 C35 1_555 1_555
H67 C91 1_555 1_555
C92 C40 1_555 1_555
H68 C92 1_555 1_555
C93 C55 1_555 1_555
H69 C93 1_555 1_555
C94 C42 1_555 1_555
H70 C94 1_555 1_555
C95 C33 1_555 1_555
H71 C95 1_555 1_555
C96 C37 1_555 1_555
H72 C96 1_555 1_555
O1_2 Ni5 1_555 1_555
C2 C7 1_555 1_555
C5 C6 1_555 1_555
N9 C18 1_555 1_555
N11 C19 1_555 1_555
N11 C25 1_555 1_555
N12 C41 1_555 1_555
N14 C10 1_555 1_555
N15 C23 1_555 1_555
N16 C17 1_555 1_555
N17 C13 1_555 1_555
N18 C28 1_555 1_555
N19 C16 1_555 1_555
C8 N21 1_555 1_555
N20 C20 1_555 1_555
N22 C15 1_555 1_555
C9 C46 1_555 1_555
N23 C24 1_555 1_555
N24 C21 1_555 1_555
C22 C48 1_555 1_555
C31 C32 1_555 1_555
C39 C44 1_555 1_555
C43 C53 1_555 1_555
C43 C65 1_555 1_555
C47 C91 1_555 1_555
C49 C59 1_555 1_555
C49 C68 1_555 1_555
C50 C81 1_555 1_555
C55 C63 1_555 1_555
C60 C62 1_555 1_555
C61 C93 1_555 1_555
C66 C90 1_555 1_555
C67 C79 1_555 1_555
C69 C73 1_555 1_555
C69 C85 1_555 1_555
C70 C96 1_555 1_555
C71 C87 1_555 1_555
C72 C75 1_555 1_555
C74 C88 1_555 1_555
C77 C80 1_555 1_555
C78 C95 1_555 1_555
C83 C86 1_555 1_555
C84 C94 1_555 1_555
C89 C92 1_555 1_555

#END
