
#######################################################################
#
#                 Cambridge Crystallographic Data Centre
#                                CCDC 
#
#######################################################################
#
# If this CIF has been generated from an entry in the Cambridge 
# Structural Database, then it will include bibliographic, chemical, 
# crystal, experimental, refinement or atomic coordinate data resulting 
# from the CCDC's data processing and validation procedures.
#
#######################################################################

data_UJOYUO
_symmetry_cell_setting           triclinic
_symmetry_space_group_name_H-M   'P -1'
_symmetry_Int_Tables_number      2
_space_group_name_Hall           '-P 1'
loop_
_symmetry_equiv_pos_site_id
_symmetry_equiv_pos_as_xyz
1 x,y,z
2 -x,-y,-z
_cell_length_a                   11.3122(3)
_cell_length_b                   20.4198(5)
_cell_length_c                   21.5152(5)
_cell_angle_alpha                93.457(1)
_cell_angle_beta                 90.374(1)
_cell_angle_gamma                104.830(1)
_cell_volume                     4794.32
loop_
_atom_site_label
_atom_site_type_symbol
_atom_site_fract_x
_atom_site_fract_y
_atom_site_fract_z
O1 O 0.3008(2) 0.32962(14) -0.10672(12)
O2 O -0.2668(3) 0.18119(15) 0.59576(13)
N1 N -0.0239(3) 0.22386(17) 0.10537(15)
C1 C 0.4482(3) 0.3611(2) -0.02545(18)
O3 O 0.4032(4) 0.25373(18) -0.08284(16)
C2 C -0.1193(4) 0.1771(2) 0.12786(18)
C3 C -0.1788(4) 0.3122(2) -0.1135(2)
H1 H -0.2593 0.2966 -0.1281
C4 C 0.0711(4) 0.1888(2) 0.34055(18)
C5 C -0.3124(4) 0.1118(2) -0.2810(2)
H2 H -0.3229 0.0939 -0.3221
C6 C 0.3780(4) 0.3089(2) -0.07561(19)
C7 C 0.1778(4) 0.1862(2) 0.3730(2)
H3 H 0.2478 0.1843 0.3514
C8 C -0.2070(3) 0.1960(2) -0.20836(18)
C9 C -0.0254(4) 0.1962(2) 0.4344(2)
H4 H -0.0941 0.2009 0.4560
C10 C -0.1511(5) 0.3551(2) -0.0605(2)
H5 H -0.2132 0.3669 -0.0380
C11 C -0.2788(4) 0.1622(2) -0.1611(2)
H6 H -0.2676 0.1800 -0.1200
C12 C -0.2180(4) 0.1433(2) 0.0882(2)
H7 H -0.2848 0.1128 0.1041
C13 C 0.0585(4) 0.3614(2) -0.07583(19)
H8 H 0.1399 0.3795 -0.0635
C14 C -0.0845(4) 0.2922(2) -0.14530(18)
O4 O 0.2648(3) 0.31931(16) 0.11162(14)
O5 O -0.3019(3) 0.25015(17) 0.52580(15)
C15 C 0.4135(4) 0.3604(2) 0.03654(19)
C16 C -0.3220(4) 0.1952(2) 0.54965(19)
O6 O 0.5631(3) 0.3681(2) -0.14197(17)
C17 C 0.5507(4) 0.4116(2) -0.04020(19)
C18 C -0.4275(4) 0.1371(2) 0.52304(18)
N2 N 0.5895(3) 0.4173(2) -0.1060(2)
C19 C 0.4839(4) 0.4068(2) 0.0809(2)
H9 H 0.4613 0.4054 0.1224
O7 O 0.2542(4) 0.2602(3) 0.02245(19)
C20 C -0.3813(4) 0.0756(2) -0.2364(2)
H10 H -0.4369 0.0341 -0.2467
C21 C 0.2988(4) 0.3107(3) 0.0581(2)
C22 C 0.6208(4) 0.4579(2) 0.0032(2)
H11 H 0.6893 0.4904 -0.0087
C23 C -0.0092(4) 0.0778(2) -0.1788(2)
H12 H -0.0546 0.0453 -0.2078
C24 C 0.0754(5) 0.1093(3) -0.0759(2)
H13 H 0.0886 0.0983 -0.0356
C25 C -0.3656(4) 0.1025(3) -0.1761(2)
H14 H -0.4140 0.0802 -0.1451
C26 C 0.5872(4) 0.4550(3) 0.0644(2)
H15 H 0.6336 0.4854 0.0947
C27 C 0.1215(4) 0.1736(2) -0.0948(2)
H16 H 0.1650 0.2066 -0.0657
C28 C 0.0085(5) 0.0617(3) -0.1194(2)
H17 H -0.0253 0.0177 -0.1080
C29 C 0.4527(5) 0.2119(3) -0.2707(3)
H18 H 0.5202 0.1977 -0.2578
N3 N -0.6070(4) 0.06434(19) 0.37729(18)
C30 C -0.4641(3) 0.1305(2) 0.46015(18)
C31 C -0.5673(4) 0.0783(2) 0.44308(18)
C32 C -0.4008(4) 0.1810(2) 0.41313(18)
C33 C -0.4940(4) 0.0917(2) 0.56411(19)
H19 H -0.4666 0.0950 0.6053
C34 C -0.6354(4) 0.0358(2) 0.4846(2)
H20 H -0.7057 0.0030 0.4712
C35 C -0.5979(4) 0.0426(2) 0.5462(2)
H21 H -0.6421 0.0144 0.5750
C36 C 0.1784(5) 0.1866(3) 0.4360(2)
H22 H 0.2480 0.1836 0.4577
C37 C 0.0514(5) 0.4689(2) 0.1210(2)
H23 H 0.0947 0.5063 0.1008
C38 C -0.0257(4) 0.2351(3) 0.0449(2)
H24 H 0.0396 0.2673 0.0298
C39 C 0.0746(5) 0.1916(3) 0.4680(2)
H25 H 0.0732 0.1918 0.5112
O8 O 0.6472(5) 0.4718(2) -0.1208(2)
C40 C -0.2163(5) 0.1551(3) 0.0263(2)
H26 H -0.2803 0.1320 -0.0005
C41 C -0.1174(5) 0.2022(3) 0.0041(2)
H27 H -0.1136 0.2112 -0.0378
O9 O -0.4575(3) 0.22115(16) 0.39698(14)
O10 O -0.7156(3) 0.0401(2) 0.36554(17)
O11 O -0.5310(4) 0.0732(2) 0.33742(16)
C42 C -0.0306(5) 0.3803(2) -0.0410(2)
H28 H -0.0101 0.4093 -0.0054
O12 O -0.2978(3) 0.17442(15) 0.39463(13)
Ni1 Ni 0.12081(5) 0.27932(3) 0.16475(2)
Ni2 Ni -0.13148(5) 0.22464(3) -0.34193(2)
Ni3 Ni -0.18354(5) 0.21147(3) 0.32490(2)
Ni4 Ni -0.03242(4) 0.24527(2) 0.24388(2)
Ni5 Ni 0.02039(4) 0.25864(2) -0.25838(2)
Ni6 Ni 0.17745(4) 0.29085(3) -0.17623(2)
N4 N 0.1435(3) 0.27027(17) -0.31918(15)
N5 N 0.0646(3) 0.19170(16) 0.27648(14)
N6 N -0.1041(3) 0.24860(17) -0.19831(15)
N7 N -0.0301(3) 0.19432(17) 0.37193(15)
N8 N -0.1157(3) 0.16951(16) 0.19103(14)
N9 N 0.0172(3) 0.35034(16) -0.26324(15)
N10 N 0.0251(3) 0.16669(17) -0.25353(15)
N11 N -0.1279(3) 0.29853(17) 0.20904(15)
N12 N -0.1268(3) 0.31322(17) 0.35556(15)
N13 N 0.0492(3) 0.32114(17) 0.29768(15)
N14 N -0.1746(3) 0.31464(17) -0.31201(15)
N15 N 0.0072(3) 0.28555(18) -0.39366(15)
C43 C 0.1243(4) 0.2975(2) -0.37380(18)
N16 N 0.0435(3) 0.36119(16) 0.16108(15)
N17 N 0.0337(3) 0.31801(16) -0.12697(14)
N18 N 0.2278(3) 0.32454(17) 0.24463(15)
N19 N -0.0560(3) 0.14193(17) -0.35390(15)
C44 C -0.0675(5) 0.4636(2) 0.1388(2)
H29 H -0.1053 0.4977 0.1306
N20 N 0.1571(3) 0.18797(16) 0.18117(14)
C45 C 0.1754(4) 0.3390(2) 0.29870(19)
C46 C 0.0427(4) 0.1445(2) -0.19530(19)
C47 C 0.1309(3) 0.1604(2) 0.23721(18)
C48 C 0.4238(5) 0.2110(3) -0.3327(3)
H30 H 0.4729 0.1970 -0.3625
C49 C 0.3719(5) 0.3719(3) 0.3500(2)
H31 H 0.4207 0.3884 0.3853
N21 N 0.1076(3) 0.19188(17) -0.15310(15)
C50 C -0.0498(5) 0.4483(2) 0.3995(2)
H32 H -0.0237 0.4934 0.4147
C51 C 0.2506(4) 0.2535(2) -0.30570(19)
C52 C -0.1778(4) 0.1100(2) 0.21636(19)
C53 C -0.2348(5) 0.4333(3) -0.2733(3)
H33 H -0.2555 0.4730 -0.2599
C54 C 0.2179(5) 0.3412(3) -0.4054(2)
H34 H 0.2990 0.3488 -0.3920
C55 C -0.4520(4) 0.2451(3) 0.1600(2)
H35 H -0.5037 0.2482 0.1271
C56 C -0.0719(4) 0.1032(2) -0.4079(2)
H36 H -0.1147 0.1158 -0.4402
C57 C -0.0914(4) 0.3649(2) -0.27902(18)
C58 C 0.3803(4) 0.2343(2) -0.2285(2)
H37 H 0.3999 0.2345 -0.1864
N22 N 0.2820(3) 0.25604(17) -0.24410(15)
C59 C 0.0549(5) 0.0675(2) -0.3151(2)
H38 H 0.1001 0.0561 -0.2831
N23 N -0.2104(3) 0.11635(16) 0.27666(15)
N24 N 0.2120(3) 0.38306(16) -0.21956(15)
C60 C 0.0680(5) 0.3611(3) -0.4749(2)
H39 H 0.0463 0.3821 -0.5087
C61 C -0.4182(4) 0.2041(3) 0.2555(2)
H40 H -0.4489 0.1780 0.2885
C62 C 0.2715(5) 0.5009(2) -0.2822(2)
H41 H 0.2912 0.5409 -0.3027
C63 C 0.0354(5) 0.0287(3) -0.3708(3)
H42 H 0.0661 -0.0094 -0.3762
C64 C 0.1669(4) 0.1012(2) 0.2492(2)
H43 H 0.1509 0.0825 0.2876
C65 C -0.2538(4) 0.2721(2) 0.20822(18)
C66 C -0.0729(4) 0.3556(2) 0.17898(18)
C67 C 0.4246(4) 0.3561(3) 0.2954(2)
H44 H 0.5085 0.3609 0.2934
C68 C -0.2678(4) 0.0597(2) 0.3045(2)
H45 H -0.2884 0.0641 0.3461
N25 N -0.2299(3) 0.17211(16) -0.26845(15)
C69 C -0.4980(4) 0.2089(3) 0.2093(2)
H46 H -0.5811 0.1881 0.2115
C70 C 0.3500(4) 0.3334(2) 0.2447(2)
H47 H 0.3855 0.3233 0.2077
C71 C -0.0295(5) 0.0467(3) -0.4181(2)
H48 H -0.0441 0.0212 -0.4560
C72 C -0.3296(4) 0.2771(2) 0.1584(2)
H49 H -0.2979 0.3017 0.1246
C73 C 0.1265(4) 0.3992(2) -0.25543(18)
C74 C 0.2087(4) 0.1548(2) 0.1368(2)
H50 H 0.2211 0.1724 0.0978
C75 C 0.1558(4) 0.4589(2) -0.2876(2)
H51 H 0.0969 0.4698 -0.3125
N26 N -0.2984(3) 0.23464(18) 0.25640(15)
C76 C -0.1623(5) 0.4085(3) 0.4159(2)
H52 H -0.2129 0.4263 0.4421
C77 C 0.1041(4) 0.4176(2) 0.1338(2)
H53 H 0.1853 0.4219 0.1233
C78 C 0.3221(4) 0.2307(3) -0.3510(2)
H54 H 0.3008 0.2288 -0.3930
C79 C -0.0192(5) 0.3181(2) -0.4426(2)
H55 H -0.1007 0.3108 -0.4550
C80 C 0.2432(4) 0.0970(2) 0.1465(2)
H56 H 0.2779 0.0756 0.1148
C81 C 0.2482(4) 0.3633(3) 0.3524(2)
H57 H 0.2126 0.3736 0.3894
C82 C -0.0160(4) 0.3519(2) 0.33857(19)
C83 C 0.3591(5) 0.4837(2) -0.2461(2)
H58 H 0.4385 0.5113 -0.2423
C84 C -0.3185(5) 0.3824(3) -0.3071(3)
H59 H -0.3956 0.3872 -0.3175
C85 C -0.1299(4) 0.4080(2) 0.1685(2)
H60 H -0.2092 0.4048 0.1817
C86 C 0.0231(5) 0.4208(2) 0.3604(2)
H61 H 0.0980 0.4475 0.3484
C87 C -0.2016(4) 0.0455(2) 0.1851(2)
H62 H -0.1755 0.0409 0.1446
C88 C -0.1218(5) 0.4254(2) -0.2597(2)
H63 H -0.0647 0.4601 -0.2376
C89 C 0.0067(4) 0.1239(2) -0.30677(19)
C90 C -0.1977(5) 0.3422(3) 0.3929(2)
H64 H -0.2740 0.3159 0.4034
C91 C 0.1892(5) 0.3727(3) -0.4562(2)
H65 H 0.2505 0.4013 -0.4777
C92 C 0.2253(4) 0.0706(2) 0.2047(2)
H66 H 0.2526 0.0329 0.2136
C93 C -0.2635(4) -0.0109(2) 0.2143(2)
H67 H -0.2822 -0.0535 0.1932
C94 C 0.3253(4) 0.4245(2) -0.2158(2)
H68 H 0.3839 0.4127 -0.1914
C95 C -0.2843(4) 0.3243(3) -0.3249(2)
H69 H -0.3409 0.2896 -0.3473
C96 C -0.2974(4) -0.0035(2) 0.2752(2)
H70 H -0.3395 -0.0409 0.2958
O2_2 O -0.2668(3) 0.18119(15) -0.40424(13)
Ni2_2 Ni -0.13148(5) 0.22464(3) 0.65807(2)
O13 O -0.4907(6) 0.3148(3) -0.5029(3)
O14 O 0.4587(17) 0.1612(9) -0.0127(5)
O15 O -0.4266(15) 0.4567(7) -0.4809(9)
loop_
_geom_bond_atom_site_label_1
_geom_bond_atom_site_label_2
_geom_bond_site_symmetry_1
_geom_bond_site_symmetry_2
O1 C6 1_555 1_555
O2 C16 1_555 1_555
N1 C2 1_555 1_555
C1 C6 1_555 1_555
O3 C6 1_555 1_555
C2 C12 1_555 1_555
C3 H1 1_555 1_555
C4 C7 1_555 1_555
C5 H2 1_555 1_555
C7 H3 1_555 1_555
C8 C11 1_555 1_555
C9 H4 1_555 1_555
C10 C3 1_555 1_555
H5 C10 1_555 1_555
C11 H6 1_555 1_555
C12 H7 1_555 1_555
C13 H8 1_555 1_555
C14 C3 1_555 1_555
O4 C21 1_555 1_555
O5 C16 1_555 1_555
C15 C1 1_555 1_555
C16 C18 1_555 1_555
O6 N2 1_555 1_555
C17 C1 1_555 1_555
C18 C30 1_555 1_555
N2 C17 1_555 1_555
C19 C15 1_555 1_555
H9 C19 1_555 1_555
O7 C21 1_555 1_555
C20 C5 1_555 1_555
H10 C20 1_555 1_555
C21 C15 1_555 1_555
C22 C17 1_555 1_555
H11 C22 1_555 1_555
C23 H12 1_555 1_555
C24 H13 1_555 1_555
C25 C11 1_555 1_555
H14 C25 1_555 1_555
C26 C19 1_555 1_555
H15 C26 1_555 1_555
C27 C24 1_555 1_555
H16 C27 1_555 1_555
C28 C23 1_555 1_555
H17 C28 1_555 1_555
C29 H18 1_555 1_555
N3 C31 1_555 1_555
C30 C31 1_555 1_555
C31 C34 1_555 1_555
C32 C30 1_555 1_555
C33 C18 1_555 1_555
H19 C33 1_555 1_555
C34 H20 1_555 1_555
C35 C33 1_555 1_555
H21 C35 1_555 1_555
C36 C7 1_555 1_555
H22 C36 1_555 1_555
C37 H23 1_555 1_555
C38 N1 1_555 1_555
H24 C38 1_555 1_555
C39 C9 1_555 1_555
H25 C39 1_555 1_555
O8 N2 1_555 1_555
C40 C12 1_555 1_555
H26 C40 1_555 1_555
C41 C38 1_555 1_555
H27 C41 1_555 1_555
O9 C32 1_555 1_555
O10 N3 1_555 1_555
O11 N3 1_555 1_555
C42 C10 1_555 1_555
H28 C42 1_555 1_555
O12 C32 1_555 1_555
Ni1 N1 1_555 1_555
Ni2 Ni5 1_555 1_555
Ni3 O12 1_555 1_555
Ni4 Ni1 1_555 1_555
Ni5 Ni6 1_555 1_555
Ni6 O1 1_555 1_555
N4 Ni5 1_555 1_555
N5 C4 1_555 1_555
N6 C8 1_555 1_555
N7 C4 1_555 1_555
N8 C2 1_555 1_555
N9 Ni5 1_555 1_555
N10 Ni5 1_555 1_555
N11 Ni4 1_555 1_555
N12 Ni3 1_555 1_555
N13 Ni4 1_555 1_555
N14 Ni2 1_555 1_555
N15 Ni2 1_555 1_555
C43 N4 1_555 1_555
N16 Ni1 1_555 1_555
N17 C13 1_555 1_555
N18 Ni1 1_555 1_555
N19 Ni2 1_555 1_555
C44 C37 1_555 1_555
H29 C44 1_555 1_555
N20 Ni1 1_555 1_555
C45 N13 1_555 1_555
C46 C23 1_555 1_555
C47 N5 1_555 1_555
C48 C29 1_555 1_555
H30 C48 1_555 1_555
C49 H31 1_555 1_555
N21 C27 1_555 1_555
C50 H32 1_555 1_555
C51 N4 1_555 1_555
C52 N8 1_555 1_555
C53 H33 1_555 1_555
C54 C43 1_555 1_555
H34 C54 1_555 1_555
C55 H35 1_555 1_555
C56 N19 1_555 1_555
H36 C56 1_555 1_555
C57 N9 1_555 1_555
C58 C29 1_555 1_555
H37 C58 1_555 1_555
N22 Ni6 1_555 1_555
C59 H38 1_555 1_555
N23 Ni3 1_555 1_555
N24 Ni6 1_555 1_555
C60 H39 1_555 1_555
C61 H40 1_555 1_555
C62 H41 1_555 1_555
C63 C59 1_555 1_555
H42 C63 1_555 1_555
C64 C47 1_555 1_555
H43 C64 1_555 1_555
C65 N11 1_555 1_555
C66 N11 1_555 1_555
C67 C49 1_555 1_555
H44 C67 1_555 1_555
C68 N23 1_555 1_555
H45 C68 1_555 1_555
N25 C5 1_555 1_555
C69 C55 1_555 1_555
H46 C69 1_555 1_555
C70 N18 1_555 1_555
H47 C70 1_555 1_555
C71 C56 1_555 1_555
H48 C71 1_555 1_555
C72 C55 1_555 1_555
H49 C72 1_555 1_555
C73 N9 1_555 1_555
C74 N20 1_555 1_555
H50 C74 1_555 1_555
C75 C62 1_555 1_555
H51 C75 1_555 1_555
N26 Ni3 1_555 1_555
C76 C50 1_555 1_555
H52 C76 1_555 1_555
C77 C37 1_555 1_555
H53 C77 1_555 1_555
C78 C48 1_555 1_555
H54 C78 1_555 1_555
C79 N15 1_555 1_555
H55 C79 1_555 1_555
C80 C74 1_555 1_555
H56 C80 1_555 1_555
C81 C45 1_555 1_555
H57 C81 1_555 1_555
C82 N12 1_555 1_555
C83 C62 1_555 1_555
H58 C83 1_555 1_555
C84 C53 1_555 1_555
H59 C84 1_555 1_555
C85 C44 1_555 1_555
H60 C85 1_555 1_555
C86 C50 1_555 1_555
H61 C86 1_555 1_555
C87 C52 1_555 1_555
H62 C87 1_555 1_555
C88 C53 1_555 1_555
H63 C88 1_555 1_555
C89 N10 1_555 1_555
C90 N12 1_555 1_555
H64 C90 1_555 1_555
C91 C54 1_555 1_555
H65 C91 1_555 1_555
C92 C64 1_555 1_555
H66 C92 1_555 1_555
C93 C87 1_555 1_555
H67 C93 1_555 1_555
C94 N24 1_555 1_555
H68 C94 1_555 1_555
C95 N14 1_555 1_555
H69 C95 1_555 1_555
C96 C68 1_555 1_555
H70 C96 1_555 1_555
O2_2 Ni2 1_555 1_555
Ni2_2 O2 1_555 1_555
C8 N25 1_555 1_555
C9 N7 1_555 1_555
C13 C42 1_555 1_555
C14 N6 1_555 1_555
C14 N17 1_555 1_555
O4 Ni1 1_555 1_555
C20 C25 1_555 1_555
C22 C26 1_555 1_555
C24 C28 1_555 1_555
C34 C35 1_555 1_555
C36 C39 1_555 1_555
C40 C41 1_555 1_555
Ni2 N25 1_555 1_555
Ni3 Ni4 1_555 1_555
Ni3 N7 1_555 1_555
Ni4 N5 1_555 1_555
Ni4 N8 1_555 1_555
Ni5 N6 1_555 1_555
Ni6 N17 1_555 1_555
Ni6 N21 1_555 1_555
N10 C46 1_555 1_555
N13 C82 1_555 1_555
N14 C57 1_555 1_555
N15 C43 1_555 1_555
N16 C66 1_555 1_555
N16 C77 1_555 1_555
N18 C45 1_555 1_555
N19 C89 1_555 1_555
N20 C47 1_555 1_555
C46 N21 1_555 1_555
C49 C81 1_555 1_555
C51 N22 1_555 1_555
C51 C78 1_555 1_555
C52 N23 1_555 1_555
C57 C88 1_555 1_555
C58 N22 1_555 1_555
C59 C89 1_555 1_555
N24 C73 1_555 1_555
C60 C79 1_555 1_555
C60 C91 1_555 1_555
C61 C69 1_555 1_555
C61 N26 1_555 1_555
C63 C71 1_555 1_555
C65 C72 1_555 1_555
C65 N26 1_555 1_555
C66 C85 1_555 1_555
C67 C70 1_555 1_555
C73 C75 1_555 1_555
C76 C90 1_555 1_555
C80 C92 1_555 1_555
C82 C86 1_555 1_555
C83 C94 1_555 1_555
C84 C95 1_555 1_555
C93 C96 1_555 1_555

#END
