
#######################################################################
#
#                 Cambridge Crystallographic Data Centre
#                                CCDC 
#
#######################################################################
#
# If this CIF has been generated from an entry in the Cambridge 
# Structural Database, then it will include bibliographic, chemical, 
# crystal, experimental, refinement or atomic coordinate data resulting 
# from the CCDC's data processing and validation procedures.
#
#######################################################################

data_UJUBIK
_symmetry_cell_setting           monoclinic
_symmetry_space_group_name_H-M   'P 21/n'
_symmetry_Int_Tables_number      14
_space_group_name_Hall           '-P 2yn'
loop_
_symmetry_equiv_pos_site_id
_symmetry_equiv_pos_as_xyz
1 x,y,z
2 1/2+x,1/2-y,1/2+z
3 -x,-y,-z
4 1/2-x,1/2+y,1/2-z
_cell_length_a                   9.9344(2)
_cell_length_b                   15.6519(3)
_cell_length_c                   14.7961(3)
_cell_angle_alpha                90
_cell_angle_beta                 104.4136(7)
_cell_angle_gamma                90
_cell_volume                     2228.26
loop_
_atom_site_label
_atom_site_type_symbol
_atom_site_fract_x
_atom_site_fract_y
_atom_site_fract_z
U1 U 0.0000 0.0000 1.0000
O1 O 0.0545(4) 0.1073(3) 1.0017(3)
C1 C 0.2036(5) -0.0476(3) 0.9016(3)
O2 O 0.2335(4) -0.0451(3) 0.9898(2)
O3 O -0.0800(4) 0.0292(3) 1.1439(2)
C2 C 0.3126(5) -0.0705(3) 0.8528(3)
C3 C 0.2816(5) -0.0785(3) 0.7560(3)
C4 C 0.3875(5) -0.0970(4) 0.7124(3)
C5 C 0.3576(5) -0.1055(4) 0.6096(3)
O4 O 0.2328(4) -0.1023(3) 0.5603(3)
O5 O 0.4549(4) -0.1169(3) 0.5689(3)
C6 C 0.5232(5) -0.1070(4) 0.7656(4)
C7 C 0.4494(5) -0.0825(4) 0.9056(3)
U2 U 0.296869(17) -0.123472(12) 0.411933(12)
O6 O 0.2870(4) -0.0114(3) 0.3971(3)
O7 O 0.3043(4) -0.2359(2) 0.4223(3)
C8 C 0.5108(5) -0.1289(3) 0.3136(3)
O8 O 0.3835(3) -0.1297(3) 0.2688(2)
O9 O 0.5424(3) -0.1205(3) 0.4010(2)
C9 C 0.6209(5) -0.1416(3) 0.2622(3)
C10 C 0.7606(5) -0.1355(4) 0.3096(3)
C11 C 0.8634(5) -0.1501(4) 0.2619(4)
C12 C 1.0116(5) -0.1405(4) 0.3120(4)
O10 O 0.0459(4) -0.1307(4) 0.3993(3)
O11 O 0.1060(3) -0.1434(3) 0.2678(2)
C13 C 0.8260(5) -0.1727(3) 0.1678(4)
C14 C 0.6864(5) -0.1771(4) 0.1207(4)
C15 C 0.5847(5) -0.1601(4) 0.1674(4)
O12 O -0.1681(4) 0.0274(3) 0.8499(3)
C16 C 0.5548(6) -0.1006(4) 0.8628(4)
H1 H 0.5995 -0.1194 0.7339
H2 H 0.6521 -0.1103 0.9011
H3 H 0.4710 -0.0772 0.9754
H4 H 0.1845 -0.0712 0.7179
H5 H 0.8998 -0.1858 0.1343
H6 H 0.7870 -0.1214 0.3774
H7 H 0.6595 -0.1931 0.0526
H8 H 0.4846 -0.1603 0.1328
H9 H -0.1398 0.0197 0.7902
H10 H -0.2650 0.0457 0.8487
O1B O -0.0545(4) -0.1073(3) 0.9983(3)
O3B O 0.0800(4) -0.0292(3) 0.8561(2)
O2B O -0.2335(4) 0.0451(3) 1.0102(2)
C1B C -0.2036(5) 0.0476(3) 1.0984(3)
O12B O 0.1681(4) -0.0274(3) 1.1501(3)
H9B H 0.1398 -0.0197 1.2098
H10B H 0.2650 -0.0457 1.1513
C2B C -0.3126(5) 0.0705(3) 1.1472(3)
C3B C -0.2816(5) 0.0785(3) 1.2440(3)
C4B C -0.3875(5) 0.0970(4) 1.2876(3)
C5B C -0.3576(5) 0.1055(4) 1.3904(3)
O4B O -0.2328(4) 0.1023(3) 1.4397(3)
U2B U -0.296869(17) 0.123472(12) 1.588067(12)
O5B O -0.4549(4) 0.1169(3) 1.4311(3)
O6B O -0.2870(4) 0.0114(3) 1.6029(3)
O7B O -0.3043(4) 0.2359(2) 1.5777(3)
O8B O -0.3835(3) 0.1297(3) 1.7312(2)
O9B O -0.5424(3) 0.1205(3) 1.5990(2)
O10B O -0.0459(4) 0.1307(4) 1.6007(3)
O11B O -0.1060(3) 0.1434(3) 1.7322(2)
C6B C -0.5232(5) 0.1070(4) 1.2344(4)
C16B C -0.5548(6) 0.1006(4) 1.1372(4)
C7B C -0.4494(5) 0.0825(4) 1.0944(3)
H3B H -0.4710 0.0772 1.0246
H2B H -0.6521 0.1103 1.0989
H1B H -0.5995 0.1194 1.2661
H4B H -0.1845 0.0712 1.2821
C12_2 C 0.0116(5) -0.1405(4) 0.3120(4)
C11_2 C -0.1366(5) -0.1501(4) 0.2619(4)
C10_2 C -0.2394(5) -0.1355(4) 0.3096(3)
C9_2 C -0.3791(5) -0.1416(3) 0.2622(3)
C8_2 C -0.4892(5) -0.1289(3) 0.3136(3)
O8_2 O -0.6165(3) -0.1297(3) 0.2688(2)
O9_2 O -0.4576(3) -0.1205(3) 0.4010(2)
C15_2 C -0.4153(5) -0.1601(4) 0.1674(4)
C14_2 C -0.3136(5) -0.1771(4) 0.1207(4)
C13_2 C -0.1740(5) -0.1727(3) 0.1678(4)
H5_2 H -0.1002 -0.1858 0.1343
H7_2 H -0.3405 -0.1931 0.0526
H8_2 H -0.5154 -0.1603 0.1328
H6_2 H -0.2130 -0.1214 0.3774
O10_2 O 1.0459(4) -0.1307(4) 0.3993(3)
O11_2 O 1.1060(3) -0.1434(3) 0.2678(2)
U2_2 U -0.703131(17) -0.123472(12) 0.411933(12)
U2_3 U 1.296869(17) -0.123472(12) 0.411933(12)
N1 N 0.2463(5) -0.3362(3) 1.0838(5)
C17 C 0.2065(7) -0.2469(5) 1.0654(5)
C18 C 0.390(1) -0.3461(8) 1.0621(8)
O14 O 0.369(1) -0.3452(5) 1.2697(5)
C19 C 0.3287(17) -0.3320(11) 1.198(1)
O13 O 0.4349(11) -0.4299(8) 1.0432(9)
loop_
_geom_bond_atom_site_label_1
_geom_bond_atom_site_label_2
_geom_bond_site_symmetry_1
_geom_bond_site_symmetry_2
U1 O1 1_555 1_555
C1 O2 1_555 1_555
O2 U1 1_555 1_555
O3 U1 1_555 1_555
C2 C1 1_555 1_555
C3 C2 1_555 1_555
C4 C3 1_555 1_555
C5 C4 1_555 1_555
O4 C5 1_555 1_555
O5 C5 1_555 1_555
C6 C4 1_555 1_555
C7 C2 1_555 1_555
U2 O4 1_555 1_555
O6 U2 1_555 1_555
O7 U2 1_555 1_555
C8 O8 1_555 1_555
O8 U2 1_555 1_555
O9 U2 1_555 1_555
C9 C8 1_555 1_555
C10 C9 1_555 1_555
C11 C10 1_555 1_555
C12 C11 1_555 1_555
O10 U2 1_555 1_555
O11 U2 1_555 1_555
C13 C11 1_555 1_555
C14 C13 1_555 1_555
C15 C9 1_555 1_555
O12 U1 1_555 1_555
C16 C6 1_555 1_555
N1 C17 1_555 1_555
C18 N1 1_555 1_555
H1 C6 1_555 1_555
H2 C16 1_555 1_555
H3 C7 1_555 1_555
H4 C3 1_555 1_555
H5 C13 1_555 1_555
H6 C10 1_555 1_555
H7 C14 1_555 1_555
H8 C15 1_555 1_555
O14 C19 1_555 1_555
H9 O12 1_555 1_555
H10 O12 1_555 1_555
C19 N1 1_555 1_555
O1B U1 1_555 1_555
O3B U1 1_555 1_555
O2B U1 1_555 1_555
C1B O3 1_555 1_555
O12B U1 1_555 1_555
H9B O12B 1_555 1_555
H10B O12B 1_555 1_555
C2B C1B 1_555 1_555
C3B C2B 1_555 1_555
C4B C3B 1_555 1_555
C5B C4B 1_555 1_555
O4B C5B 1_555 1_555
U2B O4B 1_555 1_555
O5B C5B 1_555 1_555
O6B U2B 1_555 1_555
O7B U2B 1_555 1_555
O8B U2B 1_555 1_555
O9B U2B 1_555 1_555
O10B U2B 1_555 1_555
O11B U2B 1_555 1_555
C6B C4B 1_555 1_555
C16B C6B 1_555 1_555
C7B C2B 1_555 1_555
H3B C7B 1_555 1_555
H2B C16B 1_555 1_555
H1B C6B 1_555 1_555
H4B C3B 1_555 1_555
C12_2 O10 1_555 1_555
C11_2 C12_2 1_555 1_555
C10_2 C11_2 1_555 1_555
C9_2 C10_2 1_555 1_555
C8_2 C9_2 1_555 1_555
O8_2 C8_2 1_555 1_555
O9_2 C8_2 1_555 1_555
C15_2 C9_2 1_555 1_555
C14_2 C15_2 1_555 1_555
C13_2 C11_2 1_555 1_555
H5_2 C13_2 1_555 1_555
H7_2 C14_2 1_555 1_555
H8_2 C15_2 1_555 1_555
H6_2 C10_2 1_555 1_555
O10_2 C12 1_555 1_555
O11_2 C12 1_555 1_555
U2_2 O8_2 1_555 1_555
U2_3 O10_2 1_555 1_555
C1 O3B 1_555 1_555
O5 U2 1_555 1_555
C7 C16 1_555 1_555
C8 O9 1_555 1_555
O11 C12_2 1_555 1_555
C14 C15 1_555 1_555
O2B C1B 1_555 1_555
U2B O5B 1_555 1_555
C16B C7B 1_555 1_555
O9_2 U2_2 1_555 1_555
C14_2 C13_2 1_555 1_555
O11_2 U2_3 1_555 1_555

#END
