
#######################################################################
#
#                 Cambridge Crystallographic Data Centre
#                                CCDC 
#
#######################################################################
#
# If this CIF has been generated from an entry in the Cambridge 
# Structural Database, then it will include bibliographic, chemical, 
# crystal, experimental, refinement or atomic coordinate data resulting 
# from the CCDC's data processing and validation procedures.
#
#######################################################################

data_UJUDIM
_symmetry_cell_setting           monoclinic
_symmetry_space_group_name_H-M   'C 2/c'
_symmetry_Int_Tables_number      15
_space_group_name_Hall           '-C 2yn'
loop_
_symmetry_equiv_pos_site_id
_symmetry_equiv_pos_as_xyz
1 x,y,z
2 1/2+x,1/2+y,z
3 x,-y,1/2+z
4 1/2+x,1/2-y,1/2+z
5 -x,-y,-z
6 1/2-x,1/2-y,-z
7 -x,y,1/2-z
8 1/2-x,1/2+y,1/2-z
_cell_length_a                   24.1294(11)
_cell_length_b                   8.3304(4)
_cell_length_c                   15.7117(7)
_cell_angle_alpha                90
_cell_angle_beta                 117.4350(10)
_cell_angle_gamma                90
_cell_volume                     2802.98
loop_
_atom_site_label
_atom_site_type_symbol
_atom_site_fract_x
_atom_site_fract_y
_atom_site_fract_z
Cu1 Cu -0.164240(11) -0.32975(3) 0.078510(17)
Cl1 Cl -0.24035(2) -0.44739(6) 0.09617(4)
P1 P 0.0000 -0.47615(9) 0.2500
F1 F -0.00286(6) -0.33679(15) 0.32400(9)
F2 F 0.08000(5) -0.47837(15) 0.30822(9)
F3 F -0.00039(6) -0.62303(15) 0.32531(9)
C1 C -0.17570(10) -0.6369(3) -0.03418(15)
C2 C -0.15751(10) -0.7417(3) -0.08560(15)
C3 C -0.11475(10) -0.6904(2) -0.11504(15)
C4 C -0.09088(9) -0.5360(2) -0.09291(14)
C5 C -0.11084(9) -0.4386(2) -0.04090(14)
C6 C -0.08707(9) -0.2745(2) -0.00964(14)
C7 C -0.04442(9) -0.1953(2) -0.03043(14)
C8 C -0.02315(9) -0.0439(2) 0.00986(14)
C9 C 0.04592(10) -0.0224(2) -0.06942(14)
C10 C 0.09006(9) 0.0626(2) -0.08475(13)
C11 C 0.12134(9) 0.0083(2) -0.14116(14)
C12 C 0.11432(10) -0.1445(3) -0.17975(15)
C13 C 0.14911(10) -0.1851(3) -0.22672(15)
C14 C 0.18881(10) -0.0719(3) -0.23452(15)
C15 C 0.19283(10) 0.0782(3) -0.19424(14)
N1 N -0.15317(8) -0.4882(2) -0.01178(12)
N2 N 0.10942(8) 0.2073(2) -0.04501(12)
N3 N 0.16007(8) 0.1192(2) -0.14834(12)
H1 H 0.2054(11) 0.665(3) 0.0139(16)
H2 H 0.1750(12) 0.834(3) 0.0996(18)
H3 H 0.1016(11) 0.755(3) 0.1486(17)
H4 H 0.0629(15) 0.501(4) 0.111(2)
H5 H 0.0309(12) 0.242(3) 0.0679(18)
H6 H 0.0295(12) -0.123(3) -0.1048(18)
H7 H 0.0870(12) -0.213(3) -0.1743(18)
H8 H 0.1452(11) -0.288(3) -0.2504(17)
H9 H 0.2133(12) -0.092(3) -0.2622(17)
H10 H 0.2178(12) 0.151(3) -0.1987(18)
F1F F 0.00286(6) -0.33679(15) 0.17600(9)
F2F F -0.08000(5) -0.47837(15) 0.19178(9)
Cu1F Cu 0.164240(11) -0.32975(3) 0.421490(17)
C8D C 0.02315(9) 0.0439(2) -0.00986(14)
C7D C 0.04442(9) 0.1953(2) 0.03043(14)
C6D C 0.08707(9) 0.2745(2) 0.00964(14)
C5D C 0.11084(9) 0.4386(2) 0.04090(14)
C4D C 0.09088(9) 0.5360(2) 0.09291(14)
C3D C 0.11475(10) 0.6904(2) 0.11504(15)
C2D C 0.15751(10) 0.7417(3) 0.08560(15)
C1D C 0.17570(10) 0.6369(3) 0.03418(15)
N1D N 0.15317(8) 0.4882(2) 0.01178(12)
Cu1D Cu 0.164240(11) 0.32975(3) -0.078510(17)
Cl1D Cl 0.24035(2) 0.44739(6) -0.09617(4)
F2B F 0.08000(5) 0.47837(15) -0.19178(9)
C9D C -0.04592(10) 0.0224(2) 0.06942(14)
C10D C -0.09006(9) -0.0626(2) 0.08475(13)
C11D C -0.12134(9) -0.0083(2) 0.14116(14)
C12D C -0.11432(10) 0.1445(3) 0.17975(15)
C13D C -0.14911(10) 0.1851(3) 0.22672(15)
C14D C -0.18881(10) 0.0719(3) 0.23452(15)
C15D C -0.19283(10) -0.0782(3) 0.19424(14)
N3D N -0.16007(8) -0.1192(2) 0.14834(12)
N2D N -0.10942(8) -0.2073(2) 0.04501(12)
H10D H -0.2178(12) -0.151(3) 0.1987(18)
H9D H -0.2133(12) 0.092(3) 0.2622(17)
H8D H -0.1452(11) 0.288(3) 0.2504(17)
H7D H -0.0870(12) 0.213(3) 0.1743(18)
H6D H -0.0295(12) 0.123(3) 0.1048(18)
H5D H -0.0309(12) -0.242(3) -0.0679(18)
H4D H -0.0629(15) -0.501(4) -0.111(2)
H3D H -0.1016(11) -0.755(3) -0.1486(17)
H2D H -0.1750(12) -0.834(3) -0.0996(18)
H1D H -0.2054(11) -0.665(3) -0.0139(16)
F3F F 0.00039(6) -0.62303(15) 0.17469(9)
loop_
_geom_bond_atom_site_label_1
_geom_bond_atom_site_label_2
_geom_bond_site_symmetry_1
_geom_bond_site_symmetry_2
Cu1 Cl1 1_555 1_555
P1 F1 1_555 1_555
F2 P1 1_555 1_555
F3 P1 1_555 1_555
C1 C2 1_555 1_555
C2 C3 1_555 1_555
C3 C4 1_555 1_555
C4 C5 1_555 1_555
C5 C6 1_555 1_555
C6 C7 1_555 1_555
C7 C8 1_555 1_555
C8 C8D 1_555 1_555
C9 C10 1_555 1_555
C10 C11 1_555 1_555
C11 C12 1_555 1_555
C12 C13 1_555 1_555
C13 C14 1_555 1_555
C14 C15 1_555 1_555
C15 N3 1_555 1_555
N1 Cu1 1_555 1_555
N2 C10 1_555 1_555
N3 C11 1_555 1_555
H1 C1D 1_555 1_555
H2 C2D 1_555 1_555
H3 C3D 1_555 1_555
H4 C4D 1_555 1_555
H5 C7D 1_555 1_555
H6 C9 1_555 1_555
H7 C12 1_555 1_555
H8 C13 1_555 1_555
H9 C14 1_555 1_555
H10 C15 1_555 1_555
F1F P1 1_555 1_555
F2F Cu1 1_555 1_555
Cu1F F2 1_555 1_555
C8D C9 1_555 1_555
C7D C8D 1_555 1_555
C6D N2 1_555 1_555
C5D C6D 1_555 1_555
C4D C5D 1_555 1_555
C3D C4D 1_555 1_555
C2D C3D 1_555 1_555
C1D C2D 1_555 1_555
N1D C5D 1_555 1_555
Cu1D N2 1_555 1_555
Cl1D Cu1D 1_555 1_555
F2B Cu1D 1_555 1_555
C9D C8 1_555 1_555
C10D C9D 1_555 1_555
C11D C10D 1_555 1_555
C12D C11D 1_555 1_555
C13D C12D 1_555 1_555
C14D C13D 1_555 1_555
C15D C14D 1_555 1_555
N3D Cu1 1_555 1_555
N2D Cu1 1_555 1_555
H10D C15D 1_555 1_555
H9D C14D 1_555 1_555
H8D C13D 1_555 1_555
H7D C12D 1_555 1_555
H6D C9D 1_555 1_555
H5D C7 1_555 1_555
H4D C4 1_555 1_555
H3D C3 1_555 1_555
H2D C2 1_555 1_555
H1D C1 1_555 1_555
F3F P1 1_555 1_555
P1 F2F 1_555 1_555
C1 N1 1_555 1_555
C5 N1 1_555 1_555
C6 N2D 1_555 1_555
N3 Cu1D 1_555 1_555
C7D C6D 1_555 1_555
C1D N1D 1_555 1_555
N1D Cu1D 1_555 1_555
C10D N2D 1_555 1_555
C11D N3D 1_555 1_555
C15D N3D 1_555 1_555

#END
