
#######################################################################
#
#                 Cambridge Crystallographic Data Centre
#                                CCDC 
#
#######################################################################
#
# If this CIF has been generated from an entry in the Cambridge 
# Structural Database, then it will include bibliographic, chemical, 
# crystal, experimental, refinement or atomic coordinate data resulting 
# from the CCDC's data processing and validation procedures.
#
#######################################################################

data_UJUDUY
_symmetry_cell_setting           triclinic
_symmetry_space_group_name_H-M   'P -1'
_symmetry_Int_Tables_number      2
_space_group_name_Hall           '-P 1'
loop_
_symmetry_equiv_pos_site_id
_symmetry_equiv_pos_as_xyz
1 x,y,z
2 -x,-y,-z
_cell_length_a                   8.4235(4)
_cell_length_b                   9.4824(5)
_cell_length_c                   10.1292(5)
_cell_angle_alpha                63.3290(10)
_cell_angle_beta                 72.1850(10)
_cell_angle_gamma                67.2250(10)
_cell_volume                     657.98
loop_
_atom_site_label
_atom_site_type_symbol
_atom_site_fract_x
_atom_site_fract_y
_atom_site_fract_z
Zn1 Zn 0.90254(3) 0.63369(3) 0.64119(3)
S1 S 0.94553(7) 0.25866(6) 0.70010(6)
O1 O 0.7598(2) 0.2931(2) 0.75796(19)
O2 O 1.0080(2) 0.4008(2) 0.66872(19)
O3 O 1.0501(2) 0.1107(2) 0.80244(19)
O4 O 1.0211(2) 0.7595(2) 0.44740(18)
N1 N 0.6405(2) 0.7053(2) 0.6050(2)
N2 N 0.7557(2) 0.7821(2) 0.7665(2)
N3 N 1.0760(2) 0.6008(2) 0.7826(2)
C1 C 0.5942(3) 0.6652(3) 0.5137(3)
H1 H 0.6762 0.5881 0.4751
C2 C 0.4287(3) 0.7345(3) 0.4748(3)
H2 H 0.4003 0.7050 0.4108
C3 C 0.3068(3) 0.8486(3) 0.5332(3)
H3 H 0.1953 0.8975 0.5080
C4 C 0.3519(3) 0.8895(3) 0.6295(2)
H4 H 0.2713 0.9654 0.6702
C5 C 0.5205(3) 0.8144(3) 0.6638(2)
C6 C 0.5839(3) 0.8479(3) 0.7656(2)
C7 C 0.4776(3) 0.9334(3) 0.8573(2)
H5 H 0.3577 0.9752 0.8581
C8 C 0.5540(3) 0.9557(3) 0.9489(2)
C9 C 0.7350(3) 0.8903(3) 0.9441(3)
H6 H 0.7904 0.9074 0.9998
C10 C 0.8303(3) 0.7995(3) 0.8546(2)
C11 C 1.0163(3) 0.7009(3) 0.8594(2)
C12 C 1.1162(3) 0.7005(3) 0.9462(3)
H7 H 1.0725 0.7717 0.9974
C13 C 1.2831(3) 0.5908(3) 0.9543(3)
H8 H 1.3525 0.5864 1.0128
C14 C 1.3463(3) 0.4878(3) 0.8751(3)
H9 H 1.4585 0.4149 0.8779
C15 C 1.2371(3) 0.4968(3) 0.7915(3)
H10 H 1.2780 0.4271 0.7391
O4A O 0.9789(2) 0.2405(2) 0.55260(18)
Zn1A Zn 1.09746(3) 0.36631(3) 0.35881(3)
O2A O 0.9920(2) 0.5992(2) 0.33128(19)
S1A S 1.05447(7) 0.74134(6) 0.29990(6)
O1A O 1.2402(2) 0.7069(2) 0.24204(19)
O3A O 0.9499(2) 0.8893(2) 0.19756(19)
C8A C 0.4460(3) 1.0443(3) 1.0511(2)
C7A C 0.5224(3) 1.0666(3) 1.1427(2)
C6A C 0.4161(3) 1.1521(3) 1.2344(2)
N2A N 0.2443(2) 1.2179(2) 1.2335(2)
Zn1A_2 Zn 0.09746(3) 1.36631(3) 1.35881(3)
O2A_2 O -0.0080(2) 1.5992(2) 1.33128(19)
O4A_2 O -0.0211(2) 1.2405(2) 1.55260(18)
N1A N 0.3595(2) 1.2947(2) 1.3950(2)
C1A C 0.4058(3) 1.3348(3) 1.4863(3)
H1A H 0.3238 1.4119 1.5249
C2A C 0.5713(3) 1.2655(3) 1.5252(3)
H2A H 0.5997 1.2950 1.5892
C3A C 0.6932(3) 1.1514(3) 1.4668(3)
H3A H 0.8047 1.1025 1.4920
C4A C 0.6481(3) 1.1105(3) 1.3705(2)
H4A H 0.7287 1.0346 1.3298
C5A C 0.4795(3) 1.1856(3) 1.3362(2)
N3A N -0.0760(2) 1.3992(2) 1.2174(2)
C11A C -0.0163(3) 1.2991(3) 1.1406(2)
C10A C 0.1697(3) 1.2005(3) 1.1454(2)
C9A C 0.2650(3) 1.1097(3) 1.0559(3)
H6A H 0.2096 1.0926 1.0002
C12A C -0.1162(3) 1.2995(3) 1.0538(3)
H7A H -0.0725 1.2283 1.0026
C13A C -0.2831(3) 1.4092(3) 1.0457(3)
H8A H -0.3525 1.4136 0.9872
C14A C -0.3463(3) 1.5122(3) 1.1249(3)
H9A H -0.4585 1.5851 1.1221
C15A C -0.2371(3) 1.5032(3) 1.2085(3)
H10A H -0.2780 1.5729 1.2609
H5A H 0.6423 1.0248 1.1419
loop_
_geom_bond_atom_site_label_1
_geom_bond_atom_site_label_2
_geom_bond_site_symmetry_1
_geom_bond_site_symmetry_2
Zn1 O2 1_555 1_555
S1 O1 1_555 1_555
O2 S1 1_555 1_555
O3 S1 1_555 1_555
O4 Zn1 1_555 1_555
N1 Zn1 1_555 1_555
N2 Zn1 1_555 1_555
N3 Zn1 1_555 1_555
C1 N1 1_555 1_555
H1 C1 1_555 1_555
C2 C1 1_555 1_555
H2 C2 1_555 1_555
C3 C2 1_555 1_555
H3 C3 1_555 1_555
C4 C3 1_555 1_555
H4 C4 1_555 1_555
C5 N1 1_555 1_555
C6 N2 1_555 1_555
C7 C6 1_555 1_555
H5 C7 1_555 1_555
C8 C7 1_555 1_555
C9 C8 1_555 1_555
H6 C9 1_555 1_555
C10 N2 1_555 1_555
C11 N3 1_555 1_555
C12 C11 1_555 1_555
H7 C12 1_555 1_555
C13 C12 1_555 1_555
H8 C13 1_555 1_555
C14 C13 1_555 1_555
H9 C14 1_555 1_555
C15 N3 1_555 1_555
H10 C15 1_555 1_555
O4A S1 1_555 1_555
Zn1A O4A 1_555 1_555
O2A Zn1A 1_555 1_555
S1A O4 1_555 1_555
O1A S1A 1_555 1_555
O3A S1A 1_555 1_555
C8A C8 1_555 1_555
C7A C8A 1_555 1_555
C6A C7A 1_555 1_555
N2A C6A 1_555 1_555
Zn1A_2 N2A 1_555 1_555
O2A_2 Zn1A_2 1_555 1_555
O4A_2 Zn1A_2 1_555 1_555
N1A Zn1A_2 1_555 1_555
C1A N1A 1_555 1_555
H1A C1A 1_555 1_555
C2A C1A 1_555 1_555
H2A C2A 1_555 1_555
C3A C2A 1_555 1_555
H3A C3A 1_555 1_555
C4A C3A 1_555 1_555
H4A C4A 1_555 1_555
C5A C6A 1_555 1_555
N3A Zn1A_2 1_555 1_555
C11A N3A 1_555 1_555
C10A N2A 1_555 1_555
C9A C8A 1_555 1_555
H6A C9A 1_555 1_555
C12A C11A 1_555 1_555
H7A C12A 1_555 1_555
C13A C12A 1_555 1_555
H8A C13A 1_555 1_555
C14A C13A 1_555 1_555
H9A C14A 1_555 1_555
C15A N3A 1_555 1_555
H10A C15A 1_555 1_555
H5A C7A 1_555 1_555
C4 C5 1_555 1_555
C5 C6 1_555 1_555
C9 C10 1_555 1_555
C10 C11 1_555 1_555
C14 C15 1_555 1_555
O2A S1A 1_555 1_555
N1A C5A 1_555 1_555
C4A C5A 1_555 1_555
C11A C10A 1_555 1_555
C10A C9A 1_555 1_555
C14A C15A 1_555 1_555

#END
