
#######################################################################
#
#                 Cambridge Crystallographic Data Centre
#                                CCDC 
#
#######################################################################
#
# If this CIF has been generated from an entry in the Cambridge 
# Structural Database, then it will include bibliographic, chemical, 
# crystal, experimental, refinement or atomic coordinate data resulting 
# from the CCDC's data processing and validation procedures.
#
#######################################################################

data_UJUFIO
_symmetry_cell_setting           triclinic
_symmetry_space_group_name_H-M   'P -1'
_symmetry_Int_Tables_number      2
_space_group_name_Hall           '-P 1'
loop_
_symmetry_equiv_pos_site_id
_symmetry_equiv_pos_as_xyz
1 x,y,z
2 -x,-y,-z
_cell_length_a                   8.3172(8)
_cell_length_b                   9.5885(9)
_cell_length_c                   10.6764(10)
_cell_angle_alpha                64.206(2)
_cell_angle_beta                 71.601(2)
_cell_angle_gamma                69.262(2)
_cell_volume                     703.616
loop_
_atom_site_label
_atom_site_type_symbol
_atom_site_fract_x
_atom_site_fract_y
_atom_site_fract_z
Mo1 Mo -0.42462(8) 0.74657(8) 0.29675(7)
Zn1 Zn -0.40696(11) 0.34254(10) 0.35202(9)
O1 O -0.4781(7) 0.7781(6) 0.4623(6)
O2 O -0.5495(7) 0.9046(6) 0.1783(6)
O3 O -0.4747(7) 0.5674(6) 0.3272(6)
O4 O -0.2045(7) 0.7340(7) 0.2243(6)
C1 C -0.7373(10) 0.4823(9) 0.2112(8)
H1 H -0.7813 0.5438 0.2702
C2 C -0.8416(10) 0.5003(9) 0.1246(8)
H2 H -0.9544 0.5728 0.1227
C3 C -0.7753(10) 0.4082(9) 0.0401(9)
H3 H -0.8431 0.4181 -0.0216
C4 C -0.6116(10) 0.3022(9) 0.0452(8)
H4 H -0.5671 0.2363 -0.0098
C5 C -0.5143(9) 0.2949(9) 0.1327(8)
C6 C -0.3283(9) 0.1998(8) 0.1348(8)
C7 C -0.2326(9) 0.1137(8) 0.0482(8)
H5 H -0.2882 0.1011 -0.0101
C8 C -0.0534(9) 0.0450(8) 0.0468(8)
C9 C -0.0204(10) -0.0651(9) -0.1371(8)
H6 H -0.1422 -0.0214 -0.1380
C10 C 0.0835(9) -0.1486(9) -0.2254(8)
C11 C 0.0217(9) -0.1763(8) -0.3269(8)
C12 C -0.1431(10) -0.1064(9) -0.3564(8)
H7 H -0.2260 -0.0375 -0.3101
C13 C -0.1878(10) -0.1371(9) -0.4548(8)
H8 H -0.3019 -0.0894 -0.4767
C14 C -0.0637(10) -0.2390(10) -0.5216(8)
H9 H -0.0910 -0.2627 -0.5890
C15 C 0.1015(10) -0.3046(10) -0.4857(8)
H10 H 0.1874 -0.3739 -0.5302
N1 N -0.5760(8) 0.3818(7) 0.2164(6)
N2 N 0.2548(8) -0.2138(7) -0.2227(6)
N3 N 0.1442(8) -0.2739(7) -0.3907(7)
O3A O -0.5253(7) 0.4326(6) 0.6728(6)
Mo1A Mo -0.57538(8) 0.25343(8) 0.70325(7)
O1A O -0.5219(7) 0.2219(6) 0.5377(6)
Zn1A Zn -0.59304(11) 0.65746(10) 0.64798(9)
C8A C 0.0534(9) -0.0450(8) -0.0468(8)
C7A C 0.2326(9) -0.1137(8) -0.0482(8)
C6A C 0.3283(9) -0.1998(8) -0.1348(8)
C5A C 0.5143(9) -0.2949(9) -0.1327(8)
C4A C 0.6116(10) -0.3022(9) -0.0452(8)
C3A C 0.7753(10) -0.4082(9) -0.0401(9)
C2A C 0.8416(10) -0.5003(9) -0.1246(8)
C1A C 0.7373(10) -0.4823(9) -0.2112(8)
H1A H 0.7813 -0.5438 -0.2702
N1A N 0.5760(8) -0.3818(7) -0.2164(6)
Zn1A_2 Zn 0.40696(11) -0.34254(10) -0.35202(9)
O1_2 O 0.5219(7) -0.2219(6) -0.5377(6)
O3A_2 O 0.4747(7) -0.5674(6) -0.3272(6)
H2A H 0.9544 -0.5728 -0.1227
H3A H 0.8431 -0.4181 0.0216
H4A H 0.5671 -0.2363 0.0098
H5A H 0.2882 -0.1011 0.0101
C9A C 0.0204(10) 0.0651(9) 0.1371(8)
H6A H 0.1422 0.0214 0.1380
C10A C -0.0835(9) 0.1486(9) 0.2254(8)
C11A C -0.0217(9) 0.1763(8) 0.3269(8)
C12A C 0.1431(10) 0.1064(9) 0.3564(8)
H7A H 0.2260 0.0375 0.3101
C13A C 0.1878(10) 0.1371(9) 0.4548(8)
H8A H 0.3019 0.0894 0.4767
C14A C 0.0637(10) 0.2390(10) 0.5216(8)
H9A H 0.0910 0.2627 0.5890
C15A C -0.1015(10) 0.3046(10) 0.4857(8)
H10A H -0.1874 0.3739 0.5302
N3A N -0.1442(8) 0.2739(7) 0.3907(7)
N2A N -0.2548(8) 0.2138(7) 0.2227(6)
O2A O -0.4505(7) 0.0954(6) 0.8217(6)
O4A O -0.7955(7) 0.2660(7) 0.7757(6)
loop_
_geom_bond_atom_site_label_1
_geom_bond_atom_site_label_2
_geom_bond_site_symmetry_1
_geom_bond_site_symmetry_2
Mo1 O1 1_555 1_555
Zn1 O3 1_555 1_555
O1 Zn1A 1_555 1_555
O2 Mo1 1_555 1_555
O3 Mo1 1_555 1_555
O4 Mo1 1_555 1_555
C1 H1 1_555 1_555
C2 C1 1_555 1_555
H2 C2 1_555 1_555
C3 C2 1_555 1_555
H3 C3 1_555 1_555
C4 C3 1_555 1_555
H4 C4 1_555 1_555
C5 C4 1_555 1_555
C6 C5 1_555 1_555
C7 C6 1_555 1_555
H5 C7 1_555 1_555
C8 C7 1_555 1_555
C9 H6 1_555 1_555
C10 C9 1_555 1_555
C11 C10 1_555 1_555
C12 C11 1_555 1_555
H7 C12 1_555 1_555
C13 C12 1_555 1_555
H8 C13 1_555 1_555
C14 C13 1_555 1_555
H9 C14 1_555 1_555
C15 C14 1_555 1_555
H10 C15 1_555 1_555
N1 Zn1 1_555 1_555
N2 C10 1_555 1_555
N3 C11 1_555 1_555
O3A Mo1A 1_555 1_555
Mo1A O1A 1_555 1_555
O1A Zn1 1_555 1_555
Zn1A O3A 1_555 1_555
C8A C8 1_555 1_555
C7A C8A 1_555 1_555
C6A N2 1_555 1_555
C5A C6A 1_555 1_555
C4A C5A 1_555 1_555
C3A C4A 1_555 1_555
C2A C3A 1_555 1_555
C1A C2A 1_555 1_555
H1A C1A 1_555 1_555
N1A C5A 1_555 1_555
Zn1A_2 N2 1_555 1_555
O1_2 Zn1A_2 1_555 1_555
O3A_2 Zn1A_2 1_555 1_555
H2A C2A 1_555 1_555
H3A C3A 1_555 1_555
H4A C4A 1_555 1_555
H5A C7A 1_555 1_555
C9A C8 1_555 1_555
H6A C9A 1_555 1_555
C10A C9A 1_555 1_555
C11A C10A 1_555 1_555
C12A C11A 1_555 1_555
H7A C12A 1_555 1_555
C13A C12A 1_555 1_555
H8A C13A 1_555 1_555
C14A C13A 1_555 1_555
H9A C14A 1_555 1_555
C15A C14A 1_555 1_555
H10A C15A 1_555 1_555
N3A Zn1 1_555 1_555
N2A Zn1 1_555 1_555
O2A Mo1A 1_555 1_555
O4A Mo1A 1_555 1_555
C1 N1 1_555 1_555
C5 N1 1_555 1_555
C6 N2A 1_555 1_555
C9 C8A 1_555 1_555
C15 N3 1_555 1_555
N3 Zn1A_2 1_555 1_555
C7A C6A 1_555 1_555
C1A N1A 1_555 1_555
N1A Zn1A_2 1_555 1_555
C10A N2A 1_555 1_555
C11A N3A 1_555 1_555
C15A N3A 1_555 1_555

#END
