
#######################################################################
#
#                 Cambridge Crystallographic Data Centre
#                                CCDC 
#
#######################################################################
#
# If this CIF has been generated from an entry in the Cambridge 
# Structural Database, then it will include bibliographic, chemical, 
# crystal, experimental, refinement or atomic coordinate data resulting 
# from the CCDC's data processing and validation procedures.
#
#######################################################################

data_UJUHUD
_symmetry_cell_setting           monoclinic
_symmetry_space_group_name_H-M   'P 21'
_symmetry_Int_Tables_number      4
_space_group_name_Hall           'P 2yb'
loop_
_symmetry_equiv_pos_site_id
_symmetry_equiv_pos_as_xyz
1 x,y,z
2 -x,1/2+y,-z
_cell_length_a                   16.5120(10)
_cell_length_b                   21.4370(10)
_cell_length_c                   19.5470(10)
_cell_angle_alpha                90
_cell_angle_beta                 103.945(2)
_cell_angle_gamma                90
_cell_volume                     6715.09
loop_
_atom_site_label
_atom_site_type_symbol
_atom_site_fract_x
_atom_site_fract_y
_atom_site_fract_z
Ni1 Ni 0.63487(8) 0.20155(11) 1.23681(6)
N1 N 0.5836(9) 0.3298(8) 1.3150(7)
N2 N 0.6756(8) 0.2923(7) 1.2416(6)
H1 H 0.6450 0.3121 1.2027
N3 N 0.7347(6) 0.1835(8) 1.1956(5)
H2 H 0.7754 0.1674 1.2311
N4 N 0.6844(8) 0.0751(8) 1.1576(6)
N5 N 0.5946(7) 0.1133(7) 1.2334(6)
H3 H 0.6272 0.0929 1.2709
N6 N 0.5359(6) 0.2229(7) 1.2785(5)
H4 H 0.4944 0.2378 1.2428
C1 C 0.5533(10) 0.2718(12) 1.3360(7)
H5 H 0.5023 0.2797 1.3509
H6 H 0.5941 0.2554 1.3762
C2 C 0.6684(11) 0.3305(11) 1.3049(10)
H7 H 0.7065 0.3140 1.3467
H8 H 0.6846 0.3732 1.2986
C3 C 0.7629(10) 0.2871(10) 1.2325(9)
H9 H 0.7817 0.3274 1.2200
H10 H 0.8001 0.2737 1.2764
C4 C 0.7649(10) 0.2418(11) 1.1769(9)
H11 H 0.7303 0.2562 1.1323
H12 H 0.8216 0.2370 1.1717
C5 C 0.7144(10) 0.1345(12) 1.1389(7)
H13 H 0.6725 0.1515 1.0997
H14 H 0.7642 0.1270 1.1221
C6 C 0.6006(10) 0.0781(9) 1.1674(8)
H15 H 0.5648 0.0983 1.1268
H16 H 0.5800 0.0360 1.1700
C7 C 0.5081(10) 0.1159(11) 1.2446(11)
H17 H 0.4923 0.0756 1.2598
H18 H 0.4685 0.1272 1.2011
C8 C 0.5083(10) 0.1643(12) 1.3001(9)
H19 H 0.4525 0.1687 1.3074
H20 H 0.5452 0.1513 1.3443
C9 C 0.5210(14) 0.3627(13) 1.2604(12)
H21 H 0.5086 0.3393 1.2160
C10 C 0.439(2) 0.3751(16) 1.2863(14)
C11 C 0.3694(19) 0.3606(16) 1.2450(14)
H22 H 0.3614 0.3417 1.2011
C12 C 0.3094(19) 0.3778(15) 1.2777(14)
H23 H 0.2551 0.3740 1.2504
C13 C 0.315(2) 0.3952(16) 1.3302(15)
H24 H 0.2643 0.4028 1.3420
C14 C 0.3703(19) 0.4052(16) 1.3716(14)
H25 H 0.3702 0.4202 1.4162
C15 C 0.4393(18) 0.3928(15) 1.3488(13)
H26 H 0.4907 0.3974 1.3808
C16 C 0.562(2) 0.4338(16) 1.2503(18)
H27 H 0.5803 0.4536 1.2954
H28 H 0.5208 0.4592 1.2199
H29 H 0.6092 0.4287 1.2297
C17 C 0.7419(15) 0.0371(15) 1.2094(12)
H30 H 0.7481 0.0554 1.2563
C18 C 0.7069(13) -0.0301(11) 1.2092(9)
C19 C 0.6893(14) -0.0513(18) 1.2672(12)
H31 H 0.6958 -0.0258 1.3066
C20 C 0.658(2) -0.1183(18) 1.269(2)
H32 H 0.6573 -0.1370 1.3118
C21 C 0.633(2) -0.1479(18) 1.212(3)
H33 H 0.5995 -0.1831 1.2080
C22 C 0.6612(18) -0.123(3) 1.151(2)
H34 H 0.6555 -0.1479 1.1113
C23 C 0.6958(17) -0.0641(14) 1.1504(18)
H35 H 0.7107 -0.0489 1.1105
C24 C 0.826(2) 0.0323(17) 1.1933(19)
H36 H 0.8648 0.0127 1.2321
H37 H 0.8462 0.0733 1.1861
H38 H 0.8222 0.0079 1.1515
Ni2 Ni 0.13729(8) 0.18495(13) 0.73561(7)
N7 N 0.0572(15) 0.3135(14) 0.781(2)
N8 N 0.0701(7) 0.2000(13) 0.8096(6)
H39 H 0.1079 0.2077 0.8510
N9 N 0.1221(8) 0.0920(10) 0.7500(8)
H40 H 0.0818 0.0766 0.7136
N10 N 0.2273(11) 0.0604(11) 0.6913(9)
N11 N 0.2032(6) 0.1745(9) 0.6623(5)
H41 H 0.1656 0.1658 0.6211
N12 N 0.1515(9) 0.2800(11) 0.7156(8)
H42 H 0.1941 0.2949 0.7504
C25 C 0.0808(14) 0.3138(15) 0.7178(16)
H43 H 0.0896 0.3568 0.7058
H44 H 0.0347 0.2977 0.6815
C26 C 0.0136(11) 0.2566(16) 0.7947(9)
H45 H -0.0103 0.2638 0.8347
H46 H -0.0318 0.2480 0.7541
C27 C 0.0285(11) 0.1363(18) 0.8185(9)
H47 H 0.0113 0.1352 0.8625
H48 H -0.0200 0.1293 0.7799
C28 C 0.0915(16) 0.0897(18) 0.8182(12)
H49 H 0.0688 0.0487 0.8231
H50 H 0.1384 0.0965 0.8582
C29 C 0.1974(17) 0.0589(16) 0.7551(13)
H51 H 0.2399 0.0763 0.7935
H52 H 0.1890 0.0157 0.7668
C30 C 0.2636(9) 0.1179(12) 0.6779(9)
H53 H 0.2881 0.1122 0.6380
H54 H 0.3085 0.1280 0.7184
C31 C 0.2420(9) 0.2309(11) 0.6515(8)
H55 H 0.2614 0.2286 0.6085
H56 H 0.2896 0.2388 0.6905
C32 C 0.1814(13) 0.2801(14) 0.6462(11)
H57 H 0.1346 0.2730 0.6062
H58 H 0.2064 0.3200 0.6400
C33 C 0.0741(15) 0.3571(14) 0.8275(12)
H59 H 0.1160 0.3816 0.8113
C34 C -0.009(4) 0.406(4) 0.811(5)
C35 C -0.032(3) 0.399(3) 0.868(5)
H60 H -0.0441 0.3593 0.8822
C36 C -0.039(3) 0.446(6) 0.905(4)
H61 H -0.0556 0.4411 0.9469
C37 C -0.022(4) 0.500(4) 0.886(5)
H62 H -0.0272 0.5345 0.9129
C38 C 0.001(4) 0.507(3) 0.829(6)
H63 H 0.0127 0.5462 0.8143
C39 C 0.007(3) 0.459(5) 0.791(4)
H64 H 0.0243 0.4644 0.7497
C40 C 0.115(3) 0.340(4) 0.890(2)
H65 H 0.0828 0.3498 0.9232
H66 H 0.1674 0.3608 0.9020
H67 H 0.1238 0.2954 0.8897
C41 C 0.1647(15) 0.0345(14) 0.6189(11)
H68 H 0.1182 0.0634 0.6020
C42 C 0.2164(10) 0.0299(11) 0.5691(11)
C43 C 0.2894(14) -0.0079(13) 0.5831(14)
H69 H 0.3072 -0.0277 0.6265
C44 C 0.3354(16) -0.0155(14) 0.5307(17)
H70 H 0.3831 -0.0401 0.5398
C45 C 0.3082(18) 0.0148(16) 0.4643(16)
H71 H 0.3382 0.0098 0.4300
C46 C 0.2352(17) 0.0526(17) 0.4503(12)
H72 H 0.2175 0.0723 0.4069
C47 C 0.1893(12) 0.0601(13) 0.5027(11)
H73 H 0.1416 0.0848 0.4936
C48 C 0.131(2) -0.0350(17) 0.6298(18)
H74 H 0.1074 -0.0535 0.5846
H75 H 0.0887 -0.0324 0.6561
H76 H 0.1763 -0.0602 0.6551
Ni3 Ni 0.63865(7) 0.18490(9) 0.73932(7)
N13 N 0.5000(10) 0.2895(9) 0.6521(8)
N14 N 0.6456(7) 0.2799(7) 0.7191(7)
H77 H 0.6631 0.2842 0.6786
N15 N 0.7475(6) 0.1986(9) 0.8131(5)
H78 H 0.7341 0.2023 0.8555
N16 N 0.7675(10) 0.0844(11) 0.8333(7)
N17 N 0.6299(7) 0.0932(7) 0.7546(6)
H79 H 0.6062 0.0891 0.7918
N18 N 0.5280(6) 0.1756(7) 0.6630(5)
H80 H 0.5406 0.1748 0.6202
C49 C 0.4678(7) 0.2281(9) 0.6626(7)
H81 H 0.4515 0.2280 0.7071
H82 H 0.4180 0.2206 0.6255
C50 C 0.5654(12) 0.3086(11) 0.7086(11)
H83 H 0.5467 0.3029 0.7516
H84 H 0.5731 0.3530 0.7034
C51 C 0.7138(12) 0.3024(10) 0.7788(10)
H85 H 0.6907 0.3118 0.8188
H86 H 0.7368 0.3407 0.7649
C52 C 0.7822(10) 0.2553(13) 0.8003(10)
H87 H 0.8114 0.2504 0.7631
H88 H 0.8220 0.2693 0.8425
C53 C 0.8032(10) 0.1423(13) 0.8179(9)
H89 H 0.8191 0.1378 0.7735
H90 H 0.8538 0.1498 0.8542
C54 C 0.7140(12) 0.0584(9) 0.7754(9)
H91 H 0.7039 0.0151 0.7855
H92 H 0.7401 0.0590 0.7360
C55 C 0.5685(10) 0.0680(9) 0.6929(8)
H93 H 0.5490 0.0274 0.7038
H94 H 0.5937 0.0636 0.6531
C56 C 0.4957(9) 0.1145(9) 0.6752(8)
H95 H 0.4549 0.1009 0.6335
H96 H 0.4685 0.1168 0.7140
C57 C 0.5067(14) 0.3015(14) 0.5794(11)
H97 H 0.5516 0.2746 0.5715
C58 C 0.4348(14) 0.284(2) 0.5304(13)
C59 C 0.4312(15) 0.233(2) 0.4830(13)
H98 H 0.4837 0.2164 0.4840
C60 C 0.3632(13) 0.199(2) 0.4323(12)
H99 H 0.3661 0.1618 0.4091
C61 C 0.2860(15) 0.243(2) 0.4274(14)
H100 H 0.2382 0.2342 0.3923
C62 C 0.2840(15) 0.293(2) 0.4720(13)
H101 H 0.2348 0.3154 0.4664
C63 C 0.3595(14) 0.312(2) 0.5300(13)
H102 H 0.3549 0.3409 0.5639
C64 C 0.537(2) 0.3712(16) 0.5751(18)
H103 H 0.5462 0.3788 0.5292
H104 H 0.5880 0.3777 0.6102
H105 H 0.4951 0.3993 0.5833
C65 C 0.7469(15) 0.0755(15) 0.9017(11)
H106 H 0.6996 0.1042 0.8968
C66 C 0.708(3) 0.0151(17) 0.9194(12)
C67 C 0.626(3) 0.004(2) 0.927(2)
H107 H 0.5887 0.0370 0.9238
C68 C 0.602(4) -0.057(3) 0.941(2)
H108 H 0.5479 -0.0641 0.9460
C69 C 0.658(4) -0.107(2) 0.9460(15)
H109 H 0.6422 -0.1469 0.9548
C70 C 0.740(4) -0.096(2) 0.938(2)
H110 H 0.7773 -0.1287 0.9416
C71 C 0.764(3) -0.0348(19) 0.925(2)
H111 H 0.8181 -0.0276 0.9194
C72 C 0.812(2) 0.1079(17) 0.9605(17)
H112 H 0.8649 0.1078 0.9487
H113 H 0.8161 0.0860 1.0041
H114 H 0.7946 0.1501 0.9654
O1 O 0.4334(6) 0.2401(8) 1.1339(4)
O2 O 0.5651(5) 0.2236(6) 1.1334(4)
O3 O 0.6519(5) 0.2252(8) 0.9143(5)
O4 O 0.5618(5) 0.1988(6) 0.8141(4)
O5 O 0.2568(5) 0.1941(7) 0.8129(4)
O6 O 0.2232(6) 0.2022(15) 0.9141(5)
O7 O 0.7033(5) 0.1845(6) 1.3407(4)
O8 O 0.8311(5) 0.1568(7) 1.3375(4)
O9 O 0.7144(5) 0.1722(7) 1.6652(4)
O10 O 0.6225(5) 0.1622(8) 1.5630(4)
O11 O 1.0513(5) 0.1685(9) 1.5580(4)
O12 O 1.0193(4) 0.1800(7) 1.6602(4)
C73 C 0.3845(6) 0.2169(8) 0.9872(5)
H115 H 0.3423 0.2195 1.0112
C74 C 0.4684(6) 0.2235(7) 1.0258(5)
C75 C 0.5286(6) 0.2206(7) 0.9883(5)
H116 H 0.5841 0.2248 1.0125
C76 C 0.5107(6) 0.2118(7) 0.9168(5)
C77 C 0.4286(6) 0.2029(8) 0.8804(5)
H117 H 0.4158 0.1942 0.8323
C78 C 0.3636(6) 0.2072(10) 0.9171(6)
C79 C 0.4901(7) 0.2307(8) 1.1034(6)
C80 C 0.5799(7) 0.2087(8) 0.8793(5)
C81 C 0.2725(7) 0.2008(14) 0.8759(7)
C82 C 0.7790(7) 0.1673(8) 1.3681(5)
C83 C 0.6938(7) 0.1672(9) 1.5982(6)
C84 C 0.7634(6) 0.1709(7) 1.5610(5)
C85 C 0.8471(6) 0.1718(6) 1.5953(5)
H118 H 0.8629 0.1738 1.6443
C86 C 0.9085(6) 0.1698(7) 1.5565(5)
C87 C 0.8848(6) 0.1682(8) 1.4856(5)
H119 H 0.9256 0.1674 1.4600
C88 C 0.8011(6) 0.1677(7) 1.4496(6)
C89 C 0.7422(6) 0.1698(7) 1.4873(5)
H120 H 0.6861 0.1705 1.4636
C90 C 1.0005(7) 0.1721(8) 1.5946(6)
Ni2_2 Ni 1.13729(8) 0.18495(13) 1.73561(7)
Ni3_2 Ni 0.63865(7) 0.18490(9) 1.73932(7)
O9_2 O 0.7144(5) 0.1722(7) 0.6652(4)
O12_2 O 0.0193(4) 0.1800(7) 0.6602(4)
loop_
_geom_bond_atom_site_label_1
_geom_bond_atom_site_label_2
_geom_bond_site_symmetry_1
_geom_bond_site_symmetry_2
Ni1 N2 1_555 1_555
N1 C1 1_555 1_555
N2 H1 1_555 1_555
N3 Ni1 1_555 1_555
H2 N3 1_555 1_555
N4 C5 1_555 1_555
N5 Ni1 1_555 1_555
H3 N5 1_555 1_555
N6 Ni1 1_555 1_555
H4 N6 1_555 1_555
C1 N6 1_555 1_555
H5 C1 1_555 1_555
H6 C1 1_555 1_555
C2 N1 1_555 1_555
H7 C2 1_555 1_555
H8 C2 1_555 1_555
C3 N2 1_555 1_555
H9 C3 1_555 1_555
H10 C3 1_555 1_555
C4 N3 1_555 1_555
H11 C4 1_555 1_555
H12 C4 1_555 1_555
C5 N3 1_555 1_555
H13 C5 1_555 1_555
H14 C5 1_555 1_555
C6 N4 1_555 1_555
H15 C6 1_555 1_555
H16 C6 1_555 1_555
C7 N5 1_555 1_555
H17 C7 1_555 1_555
H18 C7 1_555 1_555
C8 N6 1_555 1_555
H19 C8 1_555 1_555
H20 C8 1_555 1_555
C9 N1 1_555 1_555
H21 C9 1_555 1_555
C10 C9 1_555 1_555
C11 C10 1_555 1_555
H22 C11 1_555 1_555
C12 C11 1_555 1_555
H23 C12 1_555 1_555
C13 C12 1_555 1_555
H24 C13 1_555 1_555
C14 C13 1_555 1_555
H25 C14 1_555 1_555
C15 C10 1_555 1_555
H26 C15 1_555 1_555
C16 C9 1_555 1_555
H27 C16 1_555 1_555
H28 C16 1_555 1_555
H29 C16 1_555 1_555
C17 N4 1_555 1_555
H30 C17 1_555 1_555
C18 C17 1_555 1_555
C19 C18 1_555 1_555
H31 C19 1_555 1_555
C20 C19 1_555 1_555
H32 C20 1_555 1_555
C21 C20 1_555 1_555
H33 C21 1_555 1_555
C22 C21 1_555 1_555
H34 C22 1_555 1_555
C23 C18 1_555 1_555
H35 C23 1_555 1_555
C24 C17 1_555 1_555
H36 C24 1_555 1_555
H37 C24 1_555 1_555
H38 C24 1_555 1_555
Ni2 N8 1_555 1_555
N7 C25 1_555 1_555
N8 H39 1_555 1_555
N9 Ni2 1_555 1_555
H40 N9 1_555 1_555
N10 C29 1_555 1_555
N11 Ni2 1_555 1_555
H41 N11 1_555 1_555
N12 Ni2 1_555 1_555
H42 N12 1_555 1_555
C25 N12 1_555 1_555
H43 C25 1_555 1_555
H44 C25 1_555 1_555
C26 N7 1_555 1_555
H45 C26 1_555 1_555
H46 C26 1_555 1_555
C27 N8 1_555 1_555
H47 C27 1_555 1_555
H48 C27 1_555 1_555
C28 N9 1_555 1_555
H49 C28 1_555 1_555
H50 C28 1_555 1_555
C29 N9 1_555 1_555
H51 C29 1_555 1_555
H52 C29 1_555 1_555
C30 N10 1_555 1_555
H53 C30 1_555 1_555
H54 C30 1_555 1_555
C31 N11 1_555 1_555
H55 C31 1_555 1_555
H56 C31 1_555 1_555
C32 N12 1_555 1_555
H57 C32 1_555 1_555
H58 C32 1_555 1_555
C33 N7 1_555 1_555
H59 C33 1_555 1_555
C34 C33 1_555 1_555
C35 C34 1_555 1_555
H60 C35 1_555 1_555
C36 C35 1_555 1_555
H61 C36 1_555 1_555
C37 C36 1_555 1_555
H62 C37 1_555 1_555
C38 C37 1_555 1_555
H63 C38 1_555 1_555
C39 C34 1_555 1_555
H64 C39 1_555 1_555
C40 C33 1_555 1_555
H65 C40 1_555 1_555
H66 C40 1_555 1_555
H67 C40 1_555 1_555
C41 N10 1_555 1_555
H68 C41 1_555 1_555
C42 C41 1_555 1_555
C43 C42 1_555 1_555
H69 C43 1_555 1_555
C44 C43 1_555 1_555
H70 C44 1_555 1_555
C45 C44 1_555 1_555
H71 C45 1_555 1_555
C46 C45 1_555 1_555
H72 C46 1_555 1_555
C47 C42 1_555 1_555
H73 C47 1_555 1_555
C48 C41 1_555 1_555
H74 C48 1_555 1_555
H75 C48 1_555 1_555
H76 C48 1_555 1_555
Ni3 N14 1_555 1_555
N13 C49 1_555 1_555
N14 H77 1_555 1_555
N15 Ni3 1_555 1_555
H78 N15 1_555 1_555
N16 C53 1_555 1_555
N17 Ni3 1_555 1_555
H79 N17 1_555 1_555
N18 Ni3 1_555 1_555
H80 N18 1_555 1_555
C49 N18 1_555 1_555
H81 C49 1_555 1_555
H82 C49 1_555 1_555
C50 N13 1_555 1_555
H83 C50 1_555 1_555
H84 C50 1_555 1_555
C51 N14 1_555 1_555
H85 C51 1_555 1_555
H86 C51 1_555 1_555
C52 N15 1_555 1_555
H87 C52 1_555 1_555
H88 C52 1_555 1_555
C53 N15 1_555 1_555
H89 C53 1_555 1_555
H90 C53 1_555 1_555
C54 N16 1_555 1_555
H91 C54 1_555 1_555
H92 C54 1_555 1_555
C55 N17 1_555 1_555
H93 C55 1_555 1_555
H94 C55 1_555 1_555
C56 N18 1_555 1_555
H95 C56 1_555 1_555
H96 C56 1_555 1_555
C57 N13 1_555 1_555
H97 C57 1_555 1_555
C58 C57 1_555 1_555
C59 C58 1_555 1_555
H98 C59 1_555 1_555
C60 C59 1_555 1_555
H99 C60 1_555 1_555
C61 C60 1_555 1_555
H100 C61 1_555 1_555
C62 C61 1_555 1_555
H101 C62 1_555 1_555
C63 C58 1_555 1_555
H102 C63 1_555 1_555
C64 C57 1_555 1_555
H103 C64 1_555 1_555
H104 C64 1_555 1_555
H105 C64 1_555 1_555
C65 N16 1_555 1_555
H106 C65 1_555 1_555
C66 C65 1_555 1_555
C67 C66 1_555 1_555
H107 C67 1_555 1_555
C68 C67 1_555 1_555
H108 C68 1_555 1_555
C69 C68 1_555 1_555
H109 C69 1_555 1_555
C70 C69 1_555 1_555
H110 C70 1_555 1_555
C71 C66 1_555 1_555
H111 C71 1_555 1_555
C72 C65 1_555 1_555
H112 C72 1_555 1_555
H113 C72 1_555 1_555
H114 C72 1_555 1_555
O1 C79 1_555 1_555
O2 Ni1 1_555 1_555
O3 C80 1_555 1_555
O4 Ni3 1_555 1_555
O5 Ni2 1_555 1_555
O6 C81 1_555 1_555
O7 Ni1 1_555 1_555
O8 C82 1_555 1_555
O9 C83 1_555 1_555
O10 C83 1_555 1_555
O11 C90 1_555 1_555
O12 C90 1_555 1_555
C73 H115 1_555 1_555
C74 C73 1_555 1_555
C75 C74 1_555 1_555
H116 C75 1_555 1_555
C76 C75 1_555 1_555
C77 C76 1_555 1_555
H117 C77 1_555 1_555
C78 C73 1_555 1_555
C79 O2 1_555 1_555
C80 O4 1_555 1_555
C81 O5 1_555 1_555
C82 O7 1_555 1_555
C83 C84 1_555 1_555
C84 C85 1_555 1_555
C85 H118 1_555 1_555
C86 C85 1_555 1_555
C87 C86 1_555 1_555
H119 C87 1_555 1_555
C88 C82 1_555 1_555
C89 C84 1_555 1_555
H120 C89 1_555 1_555
C90 C86 1_555 1_555
Ni2_2 O12 1_555 1_555
Ni3_2 O9 1_555 1_555
O9_2 Ni3 1_555 1_555
O12_2 Ni2 1_555 1_555
N2 C2 1_555 1_555
N5 C6 1_555 1_555
C3 C4 1_555 1_555
C7 C8 1_555 1_555
C14 C15 1_555 1_555
C22 C23 1_555 1_555
N8 C26 1_555 1_555
N11 C30 1_555 1_555
C27 C28 1_555 1_555
C31 C32 1_555 1_555
C38 C39 1_555 1_555
C46 C47 1_555 1_555
N14 C50 1_555 1_555
N17 C54 1_555 1_555
C51 C52 1_555 1_555
C55 C56 1_555 1_555
C62 C63 1_555 1_555
C70 C71 1_555 1_555
C74 C79 1_555 1_555
C76 C80 1_555 1_555
C77 C78 1_555 1_555
C78 C81 1_555 1_555
C87 C88 1_555 1_555
C88 C89 1_555 1_555

#END
