
#######################################################################
#
#                 Cambridge Crystallographic Data Centre
#                                CCDC 
#
#######################################################################
#
# If this CIF has been generated from an entry in the Cambridge 
# Structural Database, then it will include bibliographic, chemical, 
# crystal, experimental, refinement or atomic coordinate data resulting 
# from the CCDC's data processing and validation procedures.
#
#######################################################################

data_UJUJOY
_symmetry_cell_setting           hexagonal
_symmetry_space_group_name_H-M   'P 61 2 2'
_symmetry_Int_Tables_number      178
_space_group_name_Hall           "P 61 2' (0,0,5)"
loop_
_symmetry_equiv_pos_site_id
_symmetry_equiv_pos_as_xyz
1 x,y,z
2 x-y,x,1/6+z
3 -y,x-y,1/3+z
4 -x,-y,1/2+z
5 -x+y,-x,2/3+z
6 y,-x+y,5/6+z
7 x-y,-y,-z
8 -x,-x+y,2/3-z
9 y,x,1/3-z
10 -y,-x,5/6-z
11 -x+y,y,1/2-z
12 x,x-y,1/6-z
_cell_length_a                   12.5741(6)
_cell_length_b                   12.5741(6)
_cell_length_c                   60.399(4)
_cell_angle_alpha                90
_cell_angle_beta                 90
_cell_angle_gamma                120
_cell_volume                     8270.17
loop_
_atom_site_label
_atom_site_type_symbol
_atom_site_fract_x
_atom_site_fract_y
_atom_site_fract_z
Tb1 Tb 0.90148(5) 0.47311(6) 0.996110(10)
Na1 Na 1.2022(6) 0.5877(6) 0.96529(10)
O2 O 1.1668(16) 0.5105(15) 0.9300(2)
O3 O 1.0741(9) 0.6533(8) 0.98116(14)
O4 O 0.7124(7) 0.4817(8) 0.99713(12)
O5 O 0.9801(8) 0.4061(8) 0.96769(13)
O6 O 0.7882(9) 0.3895(10) 1.02824(16)
O7 O 1.2282(11) 0.8423(10) 0.9835(2)
O8 O 0.5529(8) 0.4783(9) 0.98104(15)
O9 O 0.9570(10) 0.2902(11) 0.93816(15)
O10 O 0.6997(18) 0.2535(17) 1.0543(3)
N1 N 0.9638(11) 0.6749(10) 1.01720(15)
N2 N 0.8359(11) 0.5367(13) 0.95948(19)
N3 N 0.7406(10) 0.2741(11) 0.9771(2)
N4 N 0.9069(10) 0.2780(10) 1.01277(17)
C1 C 0.9157(15) 0.6880(16) 1.0356(3)
H1 H 0.8447 0.6204 1.0410
C2 C 0.9043(16) 0.5721(18) 0.9406(2)
H2 H 0.9838 0.5848 0.9406
C3 C 0.6263(15) 0.2031(13) 0.9831(3)
H3 H 0.5999 0.2243 0.9959
C4 C 0.9711(14) 0.2281(14) 1.0061(3)
H4 H 1.0111 0.2536 0.9925
C5 C 0.9647(17) 0.797(2) 1.0476(3)
H5 H 0.9227 0.8022 1.0598
C6 C 0.8536(17) 0.5892(19) 0.9209(3)
H6 H 0.8981 0.6076 0.9078
C7 C 0.5452(13) 0.1035(15) 0.9723(3)
H7 H 0.4629 0.0615 0.9764
C8 C 0.984(2) 0.141(2) 1.0176(4)
H8 H 1.0323 0.1100 1.0123
C9 C 1.0705(17) 0.8931(17) 1.0417(3)
H9 H 1.1059 0.9659 1.0497
C10 C 0.7428(15) 0.5796(19) 0.9209(3)
H10 H 0.7131 0.5969 0.9081
C11 C 0.5875(16) 0.0642(16) 0.9548(3)
H11 H 0.5367 -0.0111 0.9481
C12 C 0.919(2) 0.099(2) 1.0384(4)
H12 H 0.9216 0.0386 1.0467
C13 C 1.1263(13) 0.8792(13) 1.0227(2)
H13 H 1.2007 0.9442 1.0178
C14 C 0.6727(15) 0.5439(18) 0.9399(2)
H14 H 0.5942 0.5338 0.9401
C15 C 0.7072(14) 0.1388(16) 0.9473(3)
H15 H 0.7347 0.1221 0.9342
C16 C 0.8539(19) 0.1508(17) 1.0452(3)
H16 H 0.8120 0.1263 1.0586
C17 C 1.0734(13) 0.7727(12) 1.0113(2)
C18 C 0.7248(12) 0.5238(14) 0.9586(2)
C19 C 0.7820(12) 0.2372(12) 0.9601(2)
C20 C 0.8478(14) 0.2396(14) 1.0328(3)
C21 C 1.1294(14) 0.7557(14) 0.9905(2)
C22 C 0.6590(12) 0.4926(12) 0.9815(2)
C23 C 0.9184(14) 0.3179(14) 0.9551(2)
C24 C 0.7779(18) 0.300(2) 1.0402(3)
O8F O 1.0746(12) 0.5217(9) 1.01896(15)
O4F O 1.2307(11) 0.5183(8) 1.00287(12)
O6F O 1.3987(13) 0.6105(10) 0.97176(16)
Na1F Na 0.6145(8) 0.4123(6) 1.03471(10)
Tb1F Tb 0.42837(8) 0.52689(6) 1.003890(10)
O1 O 0.9224(13) 0.0776(13) 0.9167
loop_
_geom_bond_atom_site_label_1
_geom_bond_atom_site_label_2
_geom_bond_site_symmetry_1
_geom_bond_site_symmetry_2
Tb1 O3 1_555 1_555
Na1 O2 1_555 1_555
O3 Na1 1_555 1_555
O4 Tb1 1_555 1_555
O5 Tb1 1_555 1_555
O6 Tb1 1_555 1_555
O7 C21 1_555 1_555
O8 C22 1_555 1_555
O9 C23 1_555 1_555
O10 C24 1_555 1_555
N1 Tb1 1_555 1_555
N2 Tb1 1_555 1_555
N3 Tb1 1_555 1_555
N4 Tb1 1_555 1_555
C1 N1 1_555 1_555
H1 C1 1_555 1_555
C2 N2 1_555 1_555
H2 C2 1_555 1_555
C3 N3 1_555 1_555
H3 C3 1_555 1_555
C4 N4 1_555 1_555
H4 C4 1_555 1_555
C5 C1 1_555 1_555
H5 C5 1_555 1_555
C6 C2 1_555 1_555
H6 C6 1_555 1_555
C7 C3 1_555 1_555
H7 C7 1_555 1_555
C8 C4 1_555 1_555
H8 C8 1_555 1_555
C9 C5 1_555 1_555
H9 C9 1_555 1_555
C10 C6 1_555 1_555
H10 C10 1_555 1_555
C11 C7 1_555 1_555
H11 C11 1_555 1_555
C12 C8 1_555 1_555
H12 C12 1_555 1_555
C13 C9 1_555 1_555
H13 C13 1_555 1_555
C14 C10 1_555 1_555
H14 C14 1_555 1_555
C15 C11 1_555 1_555
H15 C15 1_555 1_555
C16 C12 1_555 1_555
H16 C16 1_555 1_555
C17 N1 1_555 1_555
C18 N2 1_555 1_555
C19 N3 1_555 1_555
C20 N4 1_555 1_555
C21 O3 1_555 1_555
C22 O4 1_555 1_555
C23 O5 1_555 1_555
C24 O6 1_555 1_555
O8F Tb1 1_555 1_555
O4F Na1 1_555 1_555
O6F Na1 1_555 1_555
Na1F O4 1_555 1_555
Tb1F O8 1_555 1_555
Na1 O5 1_555 1_555
O6 Na1F 1_555 1_555
C13 C17 1_555 1_555
C14 C18 1_555 1_555
C15 C19 1_555 1_555
C16 C20 1_555 1_555
C17 C21 1_555 1_555
C18 C22 1_555 1_555
C19 C23 1_555 1_555
C20 C24 1_555 1_555

#END
