
#######################################################################
#
#                 Cambridge Crystallographic Data Centre
#                                CCDC 
#
#######################################################################
#
# If this CIF has been generated from an entry in the Cambridge 
# Structural Database, then it will include bibliographic, chemical, 
# crystal, experimental, refinement or atomic coordinate data resulting 
# from the CCDC's data processing and validation procedures.
#
#######################################################################

data_UJUJUF06
_symmetry_cell_setting           tetragonal
_symmetry_space_group_name_H-M   'I 41/a'
_symmetry_Int_Tables_number      88
_space_group_name_Hall           '-I 4ad'
loop_
_symmetry_equiv_pos_site_id
_symmetry_equiv_pos_as_xyz
1 x,y,z
2 1/2-x,-y,1/2+z
3 3/4-y,1/4+x,1/4+z
4 3/4+y,3/4-x,3/4+z
5 1/2+x,1/2+y,1/2+z
6 -x,1/2-y,z
7 1/4-y,3/4+x,3/4+z
8 1/4+y,1/4-x,1/4+z
9 -x,-y,-z
10 1/2+x,y,1/2-z
11 1/4+y,3/4-x,3/4-z
12 1/4-y,1/4+x,1/4-z
13 1/2-x,1/2-y,1/2-z
14 x,1/2+y,-z
15 3/4+y,1/4-x,1/4-z
16 3/4-y,3/4+x,3/4-z
_cell_length_a                   21.537(2)
_cell_length_b                   21.537(2)
_cell_length_c                   9.417(3)
_cell_angle_alpha                90
_cell_angle_beta                 90
_cell_angle_gamma                90
_cell_volume                     4368
loop_
_atom_site_label
_atom_site_type_symbol
_atom_site_fract_x
_atom_site_fract_y
_atom_site_fract_z
O1 O 0.5603(3) 0.8688(3) 0.1973(14)
H1 H 0.545(5) 0.868(5) 0.105(4)
H2 H 0.542(4) 0.840(4) 0.258(8)
C1 C 0.5149(4) 0.8475(4) 0.5535(16)
C2 C 0.4404(4) 0.7604(4) 0.4286(16)
C3 C 0.6708(5) 1.0016(5) 0.2455(18)
H3 H 0.6976 0.9816 0.1830
C4 C 0.6806(5) 1.0563(5) 0.313(2)
H4 H 0.7154 1.0817 0.3052
C5 C 0.6279(4) 1.0668(4) 0.3955(18)
H5 H 0.6218 1.1014 0.4529
C6 C 0.4276(6) 1.0179(6) 0.079(2)
H6 H 0.4222 1.0436 0.0001
C7 C 0.4115(5) 0.9571(5) 0.0843(19)
H7 H 0.3940 0.9326 0.0137
C8 C 0.4271(5) 0.9413(4) 0.2169(19)
H8 H 0.4216 0.9017 0.2541
Mn1 Mn 0.5000 1.0000 0.5000
N1 N 0.5206(4) 0.8987(3) 0.5183(15)
N2 N 0.4113(4) 0.7672(4) 0.3287(17)
N3 N 0.5872(3) 1.0198(3) 0.3807(12)
N4 N 0.6135(4) 0.9819(3) 0.2882(16)
H9 H 0.5963 0.9483 0.2582
N5 N 0.4510(3) 0.9877(3) 0.2890(14)
N6 N 0.4514(5) 1.0347(4) 0.1981(17)
H10 H 0.4655 1.0712 0.2163
Nb1 Nb 0.5000 0.7500 0.6250
C1E C 0.4851(4) 0.6525(4) 0.5535(16)
C2E C 0.5596(4) 0.7396(4) 0.4286(16)
C3E C 0.3292(5) 0.4984(5) 0.2455(18)
H3E H 0.3024 0.5184 0.1830
C4E C 0.3194(5) 0.4437(5) 0.313(2)
H4E H 0.2846 0.4183 0.3052
C5E C 0.3721(4) 0.4332(4) 0.3955(18)
H5E H 0.3782 0.3986 0.4529
C6E C 0.5724(6) 0.4821(6) 0.079(2)
H6E H 0.5778 0.4564 0.0001
C7E C 0.5885(5) 0.5429(5) 0.0843(19)
H7E H 0.6060 0.5674 0.0137
C8E C 0.5729(5) 0.5587(4) 0.2169(19)
H8E H 0.5784 0.5983 0.2541
Mn1E Mn 0.5000 0.5000 0.5000
N1E N 0.4794(4) 0.6013(3) 0.5183(15)
N2E N 0.5887(4) 0.7328(4) 0.3287(17)
N3E N 0.4128(3) 0.4802(3) 0.3807(12)
N4E N 0.3865(4) 0.5181(3) 0.2882(16)
H9E H 0.4037 0.5517 0.2582
N5E N 0.5490(3) 0.5123(3) 0.2890(14)
N6E N 0.5486(5) 0.4653(4) 0.1981(17)
H10E H 0.5345 0.4288 0.2163
C1K C 0.4025(4) 0.7649(4) 0.6965(16)
C2K C 0.4896(4) 0.6904(4) 0.8214(16)
N1K N 0.3513(3) 0.7706(4) 0.7317(15)
N2K N 0.4828(4) 0.6613(4) 0.9213(17)
C1N C 0.5975(4) 0.7351(4) 0.6965(16)
C2N C 0.5104(4) 0.8096(4) 0.8214(16)
N1N N 0.6487(3) 0.7294(4) 0.7317(15)
N2N N 0.5172(4) 0.8387(4) 0.9213(17)
C3H C 0.3292(5) 0.9984(5) 0.7545(18)
H3H H 0.3024 1.0184 0.8170
C4H C 0.3194(5) 0.9437(5) 0.687(2)
H4H H 0.2846 0.9183 0.6948
C5H C 0.3721(4) 0.9332(4) 0.6045(18)
H5H H 0.3782 0.8986 0.5471
N3H N 0.4128(3) 0.9802(3) 0.6193(12)
N4H N 0.3865(4) 1.0181(3) 0.7118(16)
H9H H 0.4037 1.0517 0.7418
C6H C 0.5724(6) 0.9821(6) 0.921(2)
H6H H 0.5778 0.9564 0.9999
C7H C 0.5885(5) 1.0429(5) 0.9157(19)
H7H H 0.6060 1.0674 0.9863
C8H C 0.5729(5) 1.0587(4) 0.7831(19)
H8H H 0.5784 1.0983 0.7459
N5H N 0.5490(3) 1.0123(3) 0.7110(14)
N6H N 0.5486(5) 0.9653(4) 0.8019(17)
H10H H 0.5345 0.9288 0.7837
C3M C 0.6708(5) 0.5016(5) 0.7545(18)
H3M H 0.6976 0.4816 0.8170
C4M C 0.6806(5) 0.5563(5) 0.687(2)
H4M H 0.7154 0.5817 0.6948
C5M C 0.6279(4) 0.5668(4) 0.6045(18)
H5M H 0.6218 0.6014 0.5471
N3M N 0.5872(3) 0.5198(3) 0.6193(12)
N4M N 0.6135(4) 0.4819(3) 0.7118(16)
H9M H 0.5963 0.4483 0.7418
C6M C 0.4276(6) 0.5179(6) 0.921(2)
H6M H 0.4222 0.5436 0.9999
C7M C 0.4115(5) 0.4571(5) 0.9157(19)
H7M H 0.3940 0.4326 0.9863
C8M C 0.4271(5) 0.4413(4) 0.7831(19)
H8M H 0.4216 0.4017 0.7459
N5M N 0.4510(3) 0.4877(3) 0.7110(14)
N6M N 0.4514(5) 0.5347(4) 0.8019(17)
H10M H 0.4655 0.5712 0.7837
Mn1B Mn 0.7500 0.7500 0.7500
Mn1G Mn 0.2500 0.7500 0.7500
N1H N 0.4794(4) 1.1013(3) 0.4817(15)
N1M N 0.5206(4) 0.3987(3) 0.4817(15)
loop_
_geom_bond_atom_site_label_1
_geom_bond_atom_site_label_2
_geom_bond_site_symmetry_1
_geom_bond_site_symmetry_2
O1 H1 1_555 1_555
H2 O1 1_555 1_555
C1 N1 1_555 1_555
C2 N2 1_555 1_555
C3 H3 1_555 1_555
C4 C3 1_555 1_555
H4 C4 1_555 1_555
C5 C4 1_555 1_555
H5 C5 1_555 1_555
C6 H6 1_555 1_555
C7 C6 1_555 1_555
H7 C7 1_555 1_555
C8 C7 1_555 1_555
H8 C8 1_555 1_555
Mn1 N1 1_555 1_555
N3 C5 1_555 1_555
N4 C3 1_555 1_555
H9 N4 1_555 1_555
N5 C8 1_555 1_555
N6 C6 1_555 1_555
H10 N6 1_555 1_555
Nb1 C1 1_555 1_555
C1E Nb1 1_555 1_555
C2E Nb1 1_555 1_555
C3E H3E 1_555 1_555
C4E C3E 1_555 1_555
H4E C4E 1_555 1_555
C5E C4E 1_555 1_555
H5E C5E 1_555 1_555
C6E H6E 1_555 1_555
C7E C6E 1_555 1_555
H7E C7E 1_555 1_555
C8E C7E 1_555 1_555
H8E C8E 1_555 1_555
Mn1E N1E 1_555 1_555
N1E C1E 1_555 1_555
N2E C2E 1_555 1_555
N3E C5E 1_555 1_555
N4E C3E 1_555 1_555
H9E N4E 1_555 1_555
N5E C8E 1_555 1_555
N6E C6E 1_555 1_555
H10E N6E 1_555 1_555
C1K Nb1 1_555 1_555
C2K Nb1 1_555 1_555
N1K C1K 1_555 1_555
N2K C2K 1_555 1_555
C1N Nb1 1_555 1_555
C2N Nb1 1_555 1_555
N1N C1N 1_555 1_555
N2N C2N 1_555 1_555
C3H H3H 1_555 1_555
C4H C3H 1_555 1_555
H4H C4H 1_555 1_555
C5H C4H 1_555 1_555
H5H C5H 1_555 1_555
N3H Mn1 1_555 1_555
N4H C3H 1_555 1_555
H9H N4H 1_555 1_555
C6H H6H 1_555 1_555
C7H C6H 1_555 1_555
H7H C7H 1_555 1_555
C8H C7H 1_555 1_555
H8H C8H 1_555 1_555
N5H Mn1 1_555 1_555
N6H C6H 1_555 1_555
H10H N6H 1_555 1_555
C3M H3M 1_555 1_555
C4M C3M 1_555 1_555
H4M C4M 1_555 1_555
C5M C4M 1_555 1_555
H5M C5M 1_555 1_555
N3M Mn1E 1_555 1_555
N4M C3M 1_555 1_555
H9M N4M 1_555 1_555
C6M H6M 1_555 1_555
C7M C6M 1_555 1_555
H7M C7M 1_555 1_555
C8M C7M 1_555 1_555
H8M C8M 1_555 1_555
N5M Mn1E 1_555 1_555
N6M C6M 1_555 1_555
H10M N6M 1_555 1_555
Mn1B N1N 1_555 1_555
Mn1G N1K 1_555 1_555
N1H Mn1 1_555 1_555
N1M Mn1E 1_555 1_555
C2 Nb1 1_555 1_555
Mn1 N3 1_555 1_555
Mn1 N5 1_555 1_555
N3 N4 1_555 1_555
N5 N6 1_555 1_555
Mn1E N3E 1_555 1_555
Mn1E N5E 1_555 1_555
N3E N4E 1_555 1_555
N5E N6E 1_555 1_555
C5H N3H 1_555 1_555
N3H N4H 1_555 1_555
C8H N5H 1_555 1_555
N5H N6H 1_555 1_555
C5M N3M 1_555 1_555
N3M N4M 1_555 1_555
C8M N5M 1_555 1_555
N5M N6M 1_555 1_555

#END
