
#######################################################################
#
#                 Cambridge Crystallographic Data Centre
#                                CCDC 
#
#######################################################################
#
# If this CIF has been generated from an entry in the Cambridge 
# Structural Database, then it will include bibliographic, chemical, 
# crystal, experimental, refinement or atomic coordinate data resulting 
# from the CCDC's data processing and validation procedures.
#
#######################################################################

data_UJUJUF08
_symmetry_cell_setting           tetragonal
_symmetry_space_group_name_H-M   'I 41/a'
_symmetry_Int_Tables_number      88
_space_group_name_Hall           '-I 4ad'
loop_
_symmetry_equiv_pos_site_id
_symmetry_equiv_pos_as_xyz
1 x,y,z
2 1/2-x,-y,1/2+z
3 3/4-y,1/4+x,1/4+z
4 3/4+y,3/4-x,3/4+z
5 1/2+x,1/2+y,1/2+z
6 -x,1/2-y,z
7 1/4-y,3/4+x,3/4+z
8 1/4+y,1/4-x,1/4+z
9 -x,-y,-z
10 1/2+x,y,1/2-z
11 1/4+y,3/4-x,3/4-z
12 1/4-y,1/4+x,1/4-z
13 1/2-x,1/2-y,1/2-z
14 x,1/2+y,-z
15 3/4+y,1/4-x,1/4-z
16 3/4-y,3/4+x,3/4-z
_cell_length_a                   21.3237(18)
_cell_length_b                   21.3237(18)
_cell_length_c                   9.287(2)
_cell_angle_alpha                90
_cell_angle_beta                 90
_cell_angle_gamma                90
_cell_volume                     4222.8
loop_
_atom_site_label
_atom_site_type_symbol
_atom_site_fract_x
_atom_site_fract_y
_atom_site_fract_z
O1 O 0.5597(3) 0.8699(3) 0.1991(15)
H1 H 0.534(4) 0.851(5) 0.129(8)
H2 H 0.554(5) 0.854(5) 0.291(4)
C1 C 0.5172(4) 0.8486(4) 0.5537(16)
C2 C 0.4406(4) 0.7610(4) 0.4264(16)
C3 C 0.6730(5) 1.0038(5) 0.2487(17)
H3 H 0.7008 0.9838 0.1867
C4 C 0.6814(5) 1.0589(5) 0.316(2)
H4 H 0.7165 1.0847 0.3100
C5 C 0.6280(5) 1.0699(4) 0.3978(17)
H5 H 0.6213 1.1046 0.4562
C6 C 0.4258(6) 1.0180(6) 0.072(2)
H6 H 0.4196 1.0444 -0.0063
C7 C 0.4094(5) 0.9562(5) 0.078(2)
H7 H 0.3918 0.9312 0.0068
C8 C 0.4252(5) 0.9400(4) 0.2167(18)
H8 H 0.4183 0.9005 0.2561
Mn1 Mn 0.5000 1.0000 0.5000
N1 N 0.5232(4) 0.8997(3) 0.5162(14)
N2 N 0.4111(4) 0.7678(4) 0.3242(17)
N3 N 0.5873(3) 1.0225(3) 0.3790(11)
N4 N 0.6150(4) 0.9834(3) 0.2903(15)
H9 H 0.5985 0.9488 0.2615
N5 N 0.4513(3) 0.9870(3) 0.2876(14)
N6 N 0.4515(5) 1.0341(3) 0.1936(17)
H10 H 0.4667 1.0706 0.2110
Nb1 Nb 0.5000 0.7500 0.6250
C1E C 0.4828(4) 0.6514(4) 0.5537(16)
C2E C 0.5594(4) 0.7390(4) 0.4264(16)
C3E C 0.3270(5) 0.4962(5) 0.2487(17)
H3E H 0.2992 0.5162 0.1867
C4E C 0.3186(5) 0.4411(5) 0.316(2)
H4E H 0.2835 0.4153 0.3100
C5E C 0.3720(5) 0.4301(4) 0.3978(17)
H5E H 0.3787 0.3954 0.4562
C6E C 0.5742(6) 0.4820(6) 0.072(2)
H6E H 0.5804 0.4556 -0.0063
C7E C 0.5906(5) 0.5438(5) 0.078(2)
H7E H 0.6082 0.5688 0.0068
C8E C 0.5748(5) 0.5600(4) 0.2167(18)
H8E H 0.5817 0.5995 0.2561
Mn1E Mn 0.5000 0.5000 0.5000
N1E N 0.4768(4) 0.6003(3) 0.5162(14)
N2E N 0.5889(4) 0.7322(4) 0.3242(17)
N3E N 0.4127(3) 0.4775(3) 0.3790(11)
N4E N 0.3850(4) 0.5166(3) 0.2903(15)
H9E H 0.4015 0.5512 0.2615
N5E N 0.5487(3) 0.5130(3) 0.2876(14)
N6E N 0.5485(5) 0.4659(3) 0.1936(17)
H10E H 0.5333 0.4294 0.2110
C1K C 0.4014(4) 0.7672(4) 0.6963(16)
C2K C 0.4890(4) 0.6906(4) 0.8236(16)
N1K N 0.3503(3) 0.7732(4) 0.7338(14)
N2K N 0.4822(4) 0.6611(4) 0.9258(17)
C1N C 0.5986(4) 0.7328(4) 0.6963(16)
C2N C 0.5110(4) 0.8094(4) 0.8236(16)
N1N N 0.6497(3) 0.7268(4) 0.7338(14)
N2N N 0.5178(4) 0.8389(4) 0.9258(17)
C3H C 0.3270(5) 0.9962(5) 0.7513(17)
H3H H 0.2992 1.0162 0.8133
C4H C 0.3186(5) 0.9411(5) 0.684(2)
H4H H 0.2835 0.9153 0.6900
C5H C 0.3720(5) 0.9301(4) 0.6022(17)
H5H H 0.3787 0.8954 0.5438
N3H N 0.4127(3) 0.9775(3) 0.6210(11)
N4H N 0.3850(4) 1.0166(3) 0.7097(15)
H9H H 0.4015 1.0512 0.7385
C6H C 0.5742(6) 0.9820(6) 0.928(2)
H6H H 0.5804 0.9556 1.0063
C7H C 0.5906(5) 1.0438(5) 0.922(2)
H7H H 0.6082 1.0688 0.9932
C8H C 0.5748(5) 1.0600(4) 0.7833(18)
H8H H 0.5817 1.0995 0.7439
N5H N 0.5487(3) 1.0130(3) 0.7124(14)
N6H N 0.5485(5) 0.9659(3) 0.8064(17)
H10H H 0.5333 0.9294 0.7890
C3M C 0.6730(5) 0.5038(5) 0.7513(17)
H3M H 0.7008 0.4838 0.8133
C4M C 0.6814(5) 0.5589(5) 0.684(2)
H4M H 0.7165 0.5847 0.6900
C5M C 0.6280(5) 0.5699(4) 0.6022(17)
H5M H 0.6213 0.6046 0.5438
N3M N 0.5873(3) 0.5225(3) 0.6210(11)
N4M N 0.6150(4) 0.4834(3) 0.7097(15)
H9M H 0.5985 0.4488 0.7385
C6M C 0.4258(6) 0.5180(6) 0.928(2)
H6M H 0.4196 0.5444 1.0063
C7M C 0.4094(5) 0.4562(5) 0.922(2)
H7M H 0.3918 0.4312 0.9932
C8M C 0.4252(5) 0.4400(4) 0.7833(18)
H8M H 0.4183 0.4005 0.7439
N5M N 0.4513(3) 0.4870(3) 0.7124(14)
N6M N 0.4515(5) 0.5341(3) 0.8064(17)
H10M H 0.4667 0.5706 0.7890
Mn1B Mn 0.7500 0.7500 0.7500
Mn1G Mn 0.2500 0.7500 0.7500
N1H N 0.4768(4) 1.1003(3) 0.4838(14)
N1M N 0.5232(4) 0.3997(3) 0.4838(14)
loop_
_geom_bond_atom_site_label_1
_geom_bond_atom_site_label_2
_geom_bond_site_symmetry_1
_geom_bond_site_symmetry_2
O1 H1 1_555 1_555
H2 O1 1_555 1_555
C1 N1 1_555 1_555
C2 N2 1_555 1_555
C3 H3 1_555 1_555
C4 C3 1_555 1_555
H4 C4 1_555 1_555
C5 C4 1_555 1_555
H5 C5 1_555 1_555
C6 H6 1_555 1_555
C7 C6 1_555 1_555
H7 C7 1_555 1_555
C8 C7 1_555 1_555
H8 C8 1_555 1_555
Mn1 N1 1_555 1_555
N3 C5 1_555 1_555
N4 C3 1_555 1_555
H9 N4 1_555 1_555
N5 C8 1_555 1_555
N6 C6 1_555 1_555
H10 N6 1_555 1_555
Nb1 C1 1_555 1_555
C1E Nb1 1_555 1_555
C2E Nb1 1_555 1_555
C3E H3E 1_555 1_555
C4E C3E 1_555 1_555
H4E C4E 1_555 1_555
C5E C4E 1_555 1_555
H5E C5E 1_555 1_555
C6E H6E 1_555 1_555
C7E C6E 1_555 1_555
H7E C7E 1_555 1_555
C8E C7E 1_555 1_555
H8E C8E 1_555 1_555
Mn1E N1E 1_555 1_555
N1E C1E 1_555 1_555
N2E C2E 1_555 1_555
N3E C5E 1_555 1_555
N4E C3E 1_555 1_555
H9E N4E 1_555 1_555
N5E C8E 1_555 1_555
N6E C6E 1_555 1_555
H10E N6E 1_555 1_555
C1K Nb1 1_555 1_555
C2K Nb1 1_555 1_555
N1K C1K 1_555 1_555
N2K C2K 1_555 1_555
C1N Nb1 1_555 1_555
C2N Nb1 1_555 1_555
N1N C1N 1_555 1_555
N2N C2N 1_555 1_555
C3H H3H 1_555 1_555
C4H C3H 1_555 1_555
H4H C4H 1_555 1_555
C5H C4H 1_555 1_555
H5H C5H 1_555 1_555
N3H Mn1 1_555 1_555
N4H C3H 1_555 1_555
H9H N4H 1_555 1_555
C6H H6H 1_555 1_555
C7H C6H 1_555 1_555
H7H C7H 1_555 1_555
C8H C7H 1_555 1_555
H8H C8H 1_555 1_555
N5H Mn1 1_555 1_555
N6H C6H 1_555 1_555
H10H N6H 1_555 1_555
C3M H3M 1_555 1_555
C4M C3M 1_555 1_555
H4M C4M 1_555 1_555
C5M C4M 1_555 1_555
H5M C5M 1_555 1_555
N3M Mn1E 1_555 1_555
N4M C3M 1_555 1_555
H9M N4M 1_555 1_555
C6M H6M 1_555 1_555
C7M C6M 1_555 1_555
H7M C7M 1_555 1_555
C8M C7M 1_555 1_555
H8M C8M 1_555 1_555
N5M Mn1E 1_555 1_555
N6M C6M 1_555 1_555
H10M N6M 1_555 1_555
Mn1B N1N 1_555 1_555
Mn1G N1K 1_555 1_555
N1H Mn1 1_555 1_555
N1M Mn1E 1_555 1_555
C2 Nb1 1_555 1_555
Mn1 N3 1_555 1_555
Mn1 N5 1_555 1_555
N3 N4 1_555 1_555
N5 N6 1_555 1_555
Mn1E N3E 1_555 1_555
Mn1E N5E 1_555 1_555
N3E N4E 1_555 1_555
N5E N6E 1_555 1_555
C5H N3H 1_555 1_555
N3H N4H 1_555 1_555
C8H N5H 1_555 1_555
N5H N6H 1_555 1_555
C5M N3M 1_555 1_555
N3M N4M 1_555 1_555
C8M N5M 1_555 1_555
N5M N6M 1_555 1_555

#END
