
#######################################################################
#
#                 Cambridge Crystallographic Data Centre
#                                CCDC 
#
#######################################################################
#
# If this CIF has been generated from an entry in the Cambridge 
# Structural Database, then it will include bibliographic, chemical, 
# crystal, experimental, refinement or atomic coordinate data resulting 
# from the CCDC's data processing and validation procedures.
#
#######################################################################

data_UJUJAL
_symmetry_cell_setting           monoclinic
_symmetry_space_group_name_H-M   'P 21/n'
_symmetry_Int_Tables_number      14
_space_group_name_Hall           '-P 2yn'
loop_
_symmetry_equiv_pos_site_id
_symmetry_equiv_pos_as_xyz
1 x,y,z
2 1/2-x,1/2+y,1/2-z
3 -x,-y,-z
4 1/2+x,1/2-y,1/2+z
_cell_length_a                   8.8823(11)
_cell_length_b                   21.903(3)
_cell_length_c                   10.1255(13)
_cell_angle_alpha                90
_cell_angle_beta                 109.547(3)
_cell_angle_gamma                90
_cell_volume                     1856.38
loop_
_atom_site_label
_atom_site_type_symbol
_atom_site_fract_x
_atom_site_fract_y
_atom_site_fract_z
Mn1 Mn 0.45227(5) 0.220813(19) 0.82117(5)
S1 S 0.76079(9) 0.45902(3) 0.91690(10)
S2 S 1.08547(9) 0.40565(3) 1.01697(10)
O1 O 0.6373(2) 0.28708(9) 0.8775(2)
O2 O 1.0411(3) 0.26551(10) 0.9324(3)
O4 O 0.4962(3) 0.37333(10) 0.8618(3)
O5 O 0.4766(4) 0.21904(14) 1.0454(3)
O6 O 0.2585(3) 0.29012(10) 0.7918(3)
O7 O 0.9485(3) 0.26395(9) 1.1108(2)
N1 N 0.2926(3) 0.13705(11) 0.7752(3)
N2 N 0.6170(3) 0.13979(11) 0.8693(3)
C1 C 0.7771(3) 0.37922(12) 0.9337(3)
C2 C 0.9672(3) 0.47235(13) 0.9863(4)
C3 C 0.3860(4) -0.02965(15) 0.8011(4)
H1 H 0.3335 -0.0676 0.7846
C4 C 0.5438(4) 0.08428(13) 0.8482(3)
C5 C 0.9239(3) 0.35582(13) 0.9802(3)
C6 C 0.6305(4) 0.02924(14) 0.8751(3)
C7 C 0.2936(4) 0.02577(14) 0.7736(4)
C8 C 0.9730(3) 0.28931(13) 1.0095(3)
C9 C 0.3725(4) 0.08250(14) 0.7976(3)
C10 C 0.6223(3) 0.34436(13) 0.8877(3)
C11 C 0.5477(4) -0.02777(14) 0.8505(4)
H2 H 0.6061 -0.0644 0.8687
C12 C 0.1270(4) 0.02620(16) 0.7221(4)
H3 H 0.0699 -0.0108 0.7048
C13 C 0.1345(4) 0.13517(16) 0.7258(4)
H4 H 0.0780 0.1723 0.7091
C14 C 0.7750(4) 0.14167(15) 0.9210(4)
H5 H 0.8253 0.1800 0.9358
C15 C 0.0472(4) 0.08041(16) 0.6970(4)
H6 H -0.0650 0.0812 0.6609
C16 C 0.7979(4) 0.03380(15) 0.9288(4)
H7 H 0.8605 -0.0018 0.9470
C17 C 0.8703(4) 0.08965(15) 0.9546(4)
H8 H 0.9819 0.0929 0.9941
H11 H 0.201(4) 0.2912(18) 0.840(4)
H12 H 0.555(6) 0.2139(19) 1.099(5)
H13 H 0.321(4) 0.3205(14) 0.807(4)
H14 H 0.399(6) 0.2023(17) 1.075(4)
Mn1B Mn 1.54773(5) 0.779187(19) 1.17883(5)
Mn1A Mn 1.04773(5) 0.720813(19) 0.67883(5)
Mn1C Mn 0.95227(5) 0.279187(19) 1.32117(5)
S1B S 1.23921(9) 0.54098(3) 1.08310(10)
S2B S 0.91453(9) 0.59435(3) 0.98303(10)
O1B O 1.3627(2) 0.71292(9) 1.1225(2)
O2B O 0.9589(3) 0.73449(10) 1.0676(3)
O4B O 1.5038(3) 0.62667(10) 1.1382(3)
O5B O 1.5234(4) 0.78096(14) 0.9546(3)
O6B O 1.7415(3) 0.70988(10) 1.2082(3)
O7B O 1.0515(3) 0.73605(9) 0.8892(2)
O7A O 1.5515(3) 0.76395(9) 1.3892(2)
O7C O 0.4485(3) 0.23605(9) 0.6108(2)
N1B N 1.7074(3) 0.86295(11) 1.2248(3)
N2B N 1.3830(3) 0.86021(11) 1.1307(3)
C1B C 1.2229(3) 0.62078(12) 1.0663(3)
C2B C 1.0328(3) 0.52765(13) 1.0137(4)
C3B C 1.6140(4) 1.02965(15) 1.1989(4)
H1B H 1.6665 1.0676 1.2154
C4B C 1.4562(4) 0.91572(13) 1.1518(3)
C5B C 1.0761(3) 0.64418(13) 1.0198(3)
C6B C 1.3695(4) 0.97076(14) 1.1249(3)
C7B C 1.7064(4) 0.97423(14) 1.2264(4)
C8B C 1.0270(3) 0.71069(13) 0.9905(3)
C9B C 1.6275(4) 0.91750(14) 1.2024(3)
C10B C 1.3777(3) 0.65564(13) 1.1123(3)
C11B C 1.4523(4) 1.02777(14) 1.1495(4)
H2B H 1.3939 1.0644 1.1313
C12B C 1.8730(4) 0.97380(16) 1.2779(4)
H3B H 1.9301 1.0108 1.2952
C13B C 1.8655(4) 0.86483(16) 1.2742(4)
H4B H 1.9220 0.8277 1.2909
C14B C 1.2250(4) 0.85833(15) 1.0790(4)
H5B H 1.1747 0.8200 1.0642
C15B C 1.9528(4) 0.91959(16) 1.3030(4)
H6B H 2.0650 0.9188 1.3391
C16B C 1.2021(4) 0.96620(15) 1.0712(4)
H7B H 1.1395 1.0018 1.0530
C17B C 1.1297(4) 0.91035(15) 1.0454(4)
H8B H 1.0181 0.9071 1.0059
H11B H 1.799(4) 0.7088(18) 1.160(4)
H12B H 1.445(6) 0.7861(19) 0.901(5)
H13B H 1.679(4) 0.6795(14) 1.193(4)
H14B H 1.601(6) 0.7977(17) 0.925(4)
O3 O 0.7259(4) 0.32572(14) 0.6077(4)
H9 H 0.737(7) 0.320(3) 0.694(3)
H10 H 0.672(7) 0.2974(19) 0.553(5)
loop_
_geom_bond_atom_site_label_1
_geom_bond_atom_site_label_2
_geom_bond_site_symmetry_1
_geom_bond_site_symmetry_2
Mn1 O1 1_555 1_555
S1 C1 1_555 1_555
S2 C2 1_555 1_555
O1 C10 1_555 1_555
O2 C8 1_555 1_555
O3 H9 1_555 1_555
O4 C10 1_555 1_555
O5 Mn1 1_555 1_555
O6 Mn1 1_555 1_555
O7 C8 1_555 1_555
N1 Mn1 1_555 1_555
N2 Mn1 1_555 1_555
C1 C5 1_555 1_555
C2 S1 1_555 1_555
C3 H1 1_555 1_555
C4 N2 1_555 1_555
C5 S2 1_555 1_555
C6 C4 1_555 1_555
C7 C3 1_555 1_555
C8 C5 1_555 1_555
C9 N1 1_555 1_555
C10 C1 1_555 1_555
C11 C3 1_555 1_555
H2 C11 1_555 1_555
C12 C7 1_555 1_555
H3 C12 1_555 1_555
C13 N1 1_555 1_555
H4 C13 1_555 1_555
C14 N2 1_555 1_555
H5 C14 1_555 1_555
C15 C12 1_555 1_555
H6 C15 1_555 1_555
C16 C6 1_555 1_555
H7 C16 1_555 1_555
C17 C14 1_555 1_555
H8 C17 1_555 1_555
H10 O3 1_555 1_555
H11 O6 1_555 1_555
H12 O5 1_555 1_555
H13 O6 1_555 1_555
H14 O5 1_555 1_555
Mn1B O1B 1_555 1_555
Mn1A O7B 1_555 1_555
Mn1C O7 1_555 1_555
S1B C1B 1_555 1_555
S2B C2B 1_555 1_555
O1B C10B 1_555 1_555
O2B C8B 1_555 1_555
O4B C10B 1_555 1_555
O5B Mn1B 1_555 1_555
O6B Mn1B 1_555 1_555
O7B C8B 1_555 1_555
O7A Mn1B 1_555 1_555
O7C Mn1 1_555 1_555
N1B Mn1B 1_555 1_555
N2B Mn1B 1_555 1_555
C1B C5B 1_555 1_555
C2B C2 1_555 1_555
C3B H1B 1_555 1_555
C4B N2B 1_555 1_555
C5B S2B 1_555 1_555
C6B C4B 1_555 1_555
C7B C3B 1_555 1_555
C8B C5B 1_555 1_555
C9B N1B 1_555 1_555
C10B C1B 1_555 1_555
C11B C3B 1_555 1_555
H2B C11B 1_555 1_555
C12B C7B 1_555 1_555
H3B C12B 1_555 1_555
C13B N1B 1_555 1_555
H4B C13B 1_555 1_555
C14B N2B 1_555 1_555
H5B C14B 1_555 1_555
C15B C12B 1_555 1_555
H6B C15B 1_555 1_555
C16B C6B 1_555 1_555
H7B C16B 1_555 1_555
C17B C14B 1_555 1_555
H8B C17B 1_555 1_555
H11B O6B 1_555 1_555
H12B O5B 1_555 1_555
H13B O6B 1_555 1_555
H14B O5B 1_555 1_555
C4 C9 1_555 1_555
C6 C11 1_555 1_555
C7 C9 1_555 1_555
C13 C15 1_555 1_555
C16 C17 1_555 1_555
S1B C2B 1_555 1_555
C4B C9B 1_555 1_555
C6B C11B 1_555 1_555
C7B C9B 1_555 1_555
C13B C15B 1_555 1_555
C16B C17B 1_555 1_555

#END
