
#######################################################################
#
#                 Cambridge Crystallographic Data Centre
#                                CCDC 
#
#######################################################################
#
# If this CIF has been generated from an entry in the Cambridge 
# Structural Database, then it will include bibliographic, chemical, 
# crystal, experimental, refinement or atomic coordinate data resulting 
# from the CCDC's data processing and validation procedures.
#
#######################################################################

data_UJUKAM11
_symmetry_cell_setting           tetragonal
_symmetry_space_group_name_H-M   'I 41/a'
_symmetry_Int_Tables_number      88
_space_group_name_Hall           '-I 4ad'
loop_
_symmetry_equiv_pos_site_id
_symmetry_equiv_pos_as_xyz
1 x,y,z
2 1/2-x,-y,1/2+z
3 3/4-y,1/4+x,1/4+z
4 3/4+y,3/4-x,3/4+z
5 1/2+x,1/2+y,1/2+z
6 -x,1/2-y,z
7 1/4-y,3/4+x,3/4+z
8 1/4+y,1/4-x,1/4+z
9 -x,-y,-z
10 1/2+x,y,1/2-z
11 1/4+y,3/4-x,3/4-z
12 1/4-y,1/4+x,1/4-z
13 1/2-x,1/2-y,1/2-z
14 x,1/2+y,-z
15 3/4+y,1/4-x,1/4-z
16 3/4-y,3/4+x,3/4-z
_cell_length_a                   20.470(4)
_cell_length_b                   20.470(4)
_cell_length_c                   9.10(10)
_cell_angle_alpha                90
_cell_angle_beta                 90
_cell_angle_gamma                90
_cell_volume                     3813.09
loop_
_atom_site_label
_atom_site_type_symbol
_atom_site_fract_x
_atom_site_fract_y
_atom_site_fract_z
Nb1 Nb 0.5000 0.7500 0.6250
Fe1 Fe 0.2500 0.7500 0.7500
C1 C 0.4000(7) 0.7673(6) 0.673(5)
N1 N 0.3436(6) 0.7687(5) 0.747(5)
C2 C 0.5610(6) 0.7384(6) 0.426(6)
N2 N 0.5940(9) 0.7338(8) 0.303(6)
N3 N 0.2272(6) 0.8350(7) 0.839(5)
N4 N 0.2667(8) 0.8614(6) 0.929(5)
H1 H 0.3037 0.8437 0.9497
C3 C 0.2475(8) 0.9210(8) 0.995(5)
H2 H 0.2691 0.9470 1.0628
C4 C 0.1885(7) 0.9296(8) 0.930(5)
H3 H 0.1604 0.9650 0.9396
C5 C 0.1797(7) 0.8774(7) 0.850(5)
H4 H 0.1401 0.8704 0.8025
N5 N 0.2348(9) 0.7935(9) 0.576(7)
N6 N 0.2815(9) 0.7954(9) 0.463(8)
H5 H 0.3202 0.7819 0.4848
C6 C 0.2690(13) 0.8212(13) 0.292(9)
H6 H 0.2925 0.8218 0.2041
C7 C 0.2073(11) 0.8416(9) 0.339(4)
H7 H 0.1810 0.8667 0.2773
C8 C 0.1868(8) 0.8251(8) 0.470(4)
H8 H 0.1438 0.8326 0.4981
Fe1E Fe 0.7500 0.7500 0.7500
C1E C 0.6000(7) 0.7327(6) 0.673(5)
N1E N 0.6564(6) 0.7313(5) 0.747(5)
C2E C 0.4390(6) 0.7616(6) 0.426(6)
N2E N 0.4060(9) 0.7662(8) 0.303(6)
N3E N 0.7728(6) 0.6650(7) 0.839(5)
N4E N 0.7333(8) 0.6386(6) 0.929(5)
H1E H 0.6963 0.6563 0.9497
C3E C 0.7525(8) 0.5790(8) 0.995(5)
H2E H 0.7309 0.5530 1.0628
C4E C 0.8115(7) 0.5704(8) 0.930(5)
H3E H 0.8396 0.5350 0.9396
C5E C 0.8203(7) 0.6226(7) 0.850(5)
H4E H 0.8599 0.6296 0.8025
N5E N 0.7652(9) 0.7065(9) 0.576(7)
N6E N 0.7185(9) 0.7046(9) 0.463(8)
H5E H 0.6798 0.7181 0.4848
C6E C 0.7310(13) 0.6788(13) 0.292(9)
H6E H 0.7075 0.6782 0.2041
C7E C 0.7927(11) 0.6584(9) 0.339(4)
H7E H 0.8190 0.6333 0.2773
C8E C 0.8132(8) 0.6749(8) 0.470(4)
H8E H 0.8562 0.6674 0.4981
C1K C 0.4827(6) 0.6500(7) 0.577(5)
N1K N 0.4813(5) 0.5936(6) 0.503(5)
C2K C 0.5116(6) 0.8110(6) 0.824(6)
N2K N 0.5162(8) 0.8440(9) 0.947(6)
C1N C 0.5173(6) 0.8500(7) 0.577(5)
N1N N 0.5187(5) 0.9064(6) 0.503(5)
C2N C 0.4884(6) 0.6890(6) 0.824(6)
N2N N 0.4838(8) 0.6560(9) 0.947(6)
N3L N 0.2728(6) 0.6650(7) 0.661(5)
N4L N 0.2333(8) 0.6386(6) 0.571(5)
H1L H 0.1963 0.6563 0.5503
C3L C 0.2525(8) 0.5790(8) 0.505(5)
H2L H 0.2309 0.5530 0.4372
C4L C 0.3115(7) 0.5704(8) 0.570(5)
H3L H 0.3396 0.5350 0.5604
C5L C 0.3203(7) 0.6226(7) 0.650(5)
H4L H 0.3599 0.6296 0.6975
N5L N 0.2652(9) 0.7065(9) 0.924(7)
N6L N 0.2185(9) 0.7046(9) 1.037(8)
H5L H 0.1798 0.7181 1.0152
C6L C 0.2310(13) 0.6788(13) 1.208(9)
H6L H 0.2075 0.6782 1.2959
C7L C 0.2927(11) 0.6584(9) 1.161(4)
H7L H 0.3190 0.6333 1.2227
C8L C 0.3132(8) 0.6749(8) 1.030(4)
H8L H 0.3562 0.6674 1.0019
N3I N 0.7272(6) 0.8350(7) 0.661(5)
N4I N 0.7667(8) 0.8614(6) 0.571(5)
H1I H 0.8037 0.8437 0.5503
C3I C 0.7475(8) 0.9210(8) 0.505(5)
H2I H 0.7691 0.9470 0.4372
C4I C 0.6885(7) 0.9296(8) 0.570(5)
H3I H 0.6604 0.9650 0.5604
C5I C 0.6797(7) 0.8774(7) 0.650(5)
H4I H 0.6401 0.8704 0.6975
N5I N 0.7348(9) 0.7935(9) 0.924(7)
N6I N 0.7815(9) 0.7954(9) 1.037(8)
H5I H 0.8202 0.7819 1.0152
C6I C 0.7690(13) 0.8212(13) 1.208(9)
H6I H 0.7925 0.8218 1.2959
C7I C 0.7073(11) 0.8416(9) 1.161(4)
H7I H 0.6810 0.8667 1.2227
C8I C 0.6868(8) 0.8251(8) 1.030(4)
H8I H 0.6438 0.8326 1.0019
Fe1C Fe 0.5000 0.5000 0.5000
Fe1F Fe 0.5000 1.0000 0.5000
N1I N 0.8436(6) 0.7687(5) 0.753(5)
N1L N 0.1564(6) 0.7313(5) 0.753(5)
O1 O 0.3838(5) 0.8060(6) 1.036(4)
H9 H 0.409(4) 0.788(7) 1.111(9)
H10 H 0.408(4) 0.8255(11) 0.961(7)
loop_
_geom_bond_atom_site_label_1
_geom_bond_atom_site_label_2
_geom_bond_site_symmetry_1
_geom_bond_site_symmetry_2
Nb1 C1 1_555 1_555
Fe1 N1 1_555 1_555
C1 N1 1_555 1_555
C2 Nb1 1_555 1_555
N2 C2 1_555 1_555
N3 Fe1 1_555 1_555
N4 N3 1_555 1_555
H1 N4 1_555 1_555
C3 N4 1_555 1_555
H2 C3 1_555 1_555
C4 C3 1_555 1_555
H3 C4 1_555 1_555
C5 N3 1_555 1_555
H4 C5 1_555 1_555
N5 Fe1 1_555 1_555
N6 N5 1_555 1_555
H5 N6 1_555 1_555
C6 N6 1_555 1_555
H6 C6 1_555 1_555
C7 C6 1_555 1_555
H7 C7 1_555 1_555
C8 N5 1_555 1_555
H8 C8 1_555 1_555
O1 H9 1_555 1_555
H10 O1 1_555 1_555
Fe1E N1E 1_555 1_555
C1E Nb1 1_555 1_555
N1E C1E 1_555 1_555
C2E Nb1 1_555 1_555
N2E C2E 1_555 1_555
N3E Fe1E 1_555 1_555
N4E N3E 1_555 1_555
H1E N4E 1_555 1_555
C3E N4E 1_555 1_555
H2E C3E 1_555 1_555
C4E C3E 1_555 1_555
H3E C4E 1_555 1_555
C5E N3E 1_555 1_555
H4E C5E 1_555 1_555
N5E Fe1E 1_555 1_555
N6E N5E 1_555 1_555
H5E N6E 1_555 1_555
C6E N6E 1_555 1_555
H6E C6E 1_555 1_555
C7E C6E 1_555 1_555
H7E C7E 1_555 1_555
C8E N5E 1_555 1_555
H8E C8E 1_555 1_555
C1K Nb1 1_555 1_555
N1K C1K 1_555 1_555
C2K Nb1 1_555 1_555
N2K C2K 1_555 1_555
C1N Nb1 1_555 1_555
N1N C1N 1_555 1_555
C2N Nb1 1_555 1_555
N2N C2N 1_555 1_555
N3L Fe1 1_555 1_555
N4L N3L 1_555 1_555
H1L N4L 1_555 1_555
C3L N4L 1_555 1_555
H2L C3L 1_555 1_555
C4L C3L 1_555 1_555
H3L C4L 1_555 1_555
C5L N3L 1_555 1_555
H4L C5L 1_555 1_555
N5L Fe1 1_555 1_555
N6L N5L 1_555 1_555
H5L N6L 1_555 1_555
C6L N6L 1_555 1_555
H6L C6L 1_555 1_555
C7L C6L 1_555 1_555
H7L C7L 1_555 1_555
C8L N5L 1_555 1_555
H8L C8L 1_555 1_555
N3I Fe1E 1_555 1_555
N4I N3I 1_555 1_555
H1I N4I 1_555 1_555
C3I N4I 1_555 1_555
H2I C3I 1_555 1_555
C4I C3I 1_555 1_555
H3I C4I 1_555 1_555
C5I N3I 1_555 1_555
H4I C5I 1_555 1_555
N5I Fe1E 1_555 1_555
N6I N5I 1_555 1_555
H5I N6I 1_555 1_555
C6I N6I 1_555 1_555
H6I C6I 1_555 1_555
C7I C6I 1_555 1_555
H7I C7I 1_555 1_555
C8I N5I 1_555 1_555
H8I C8I 1_555 1_555
Fe1C N1K 1_555 1_555
Fe1F N1N 1_555 1_555
N1I Fe1E 1_555 1_555
N1L Fe1 1_555 1_555
C4 C5 1_555 1_555
C7 C8 1_555 1_555
C4E C5E 1_555 1_555
C7E C8E 1_555 1_555
C4L C5L 1_555 1_555
C7L C8L 1_555 1_555
C4I C5I 1_555 1_555
C7I C8I 1_555 1_555

#END
