
#######################################################################
#
#                 Cambridge Crystallographic Data Centre
#                                CCDC 
#
#######################################################################
#
# If this CIF has been generated from an entry in the Cambridge 
# Structural Database, then it will include bibliographic, chemical, 
# crystal, experimental, refinement or atomic coordinate data resulting 
# from the CCDC's data processing and validation procedures.
#
#######################################################################

data_UJUKEQ
_symmetry_cell_setting           tetragonal
_symmetry_space_group_name_H-M   'I 41/a'
_symmetry_Int_Tables_number      88
_space_group_name_Hall           '-I 4ad'
loop_
_symmetry_equiv_pos_site_id
_symmetry_equiv_pos_as_xyz
1 x,y,z
2 -x,1/2-y,z
3 3/4-y,1/4+x,1/4+z
4 1/4+y,1/4-x,1/4+z
5 1/2+x,1/2+y,1/2+z
6 1/2-x,-y,1/2+z
7 1/4-y,3/4+x,3/4+z
8 3/4+y,3/4-x,3/4+z
9 -x,-y,-z
10 x,1/2+y,-z
11 1/4+y,3/4-x,3/4-z
12 3/4-y,3/4+x,3/4-z
13 1/2-x,1/2-y,1/2-z
14 1/2+x,y,1/2-z
15 3/4+y,1/4-x,1/4-z
16 1/4-y,1/4+x,1/4-z
_cell_length_a                   21.5920(4)
_cell_length_b                   21.5920(4)
_cell_length_c                   9.6120(2)
_cell_angle_alpha                90
_cell_angle_beta                 90
_cell_angle_gamma                90
_cell_volume                     4481.25
loop_
_atom_site_label
_atom_site_type_symbol
_atom_site_fract_x
_atom_site_fract_y
_atom_site_fract_z
Nb1 Nb 0.00000 0.25000 0.125
Co1 Co 0.25000 0.25000 0.2500
C1 C 0.00900(12) 0.30993(11) 0.3160(3)
C2 C 0.29298(15) 0.16476(16) -0.1487(3)
H1 H 0.3181 0.1471 -0.2165
N1 N 0.15077(10) 0.23573(10) 0.2295(2)
N2 N 0.23518(10) 0.33353(10) 0.1400(2)
C3 C 0.25266(17) 0.40981(16) -0.0093(3)
H2 H 0.2717 0.4336 -0.0777
N3 N 0.26204(10) 0.20532(10) 0.0534(2)
N4 N 0.01417(13) 0.33923(11) 0.4142(2)
C4 C 0.09939(11) 0.23828(11) 0.1953(2)
N5 N 0.27369(11) 0.35634(11) 0.0428(2)
H3 H 0.3076 0.3388 0.0174
C5 C 0.18891(13) 0.37455(14) 0.1469(3)
H4 H 0.1548 0.3709 0.2055
C6 C 0.23262(16) 0.17954(17) -0.1599(3)
H5 H 0.2078 0.174 -0.238
N6 N 0.21511(11) 0.20355(12) -0.0384(2)
H6 H 0.1782 0.2164 -0.0209
C7 C 0.30954(13) 0.18137(14) -0.0150(3)
H7 H 0.349 0.1764 0.0221
C8 C 0.19832(16) 0.42309(16) 0.0560(4)
H8 H 0.173 0.4574 0.0423
Co1G Co 0.00000 0.50000 0.0000
Co1F Co 0.00000 0.00000 0.0000
Co1A Co -0.25000 0.25000 0.2500
C1A C -0.00900(12) 0.19007(11) 0.3160(3)
C1N C 0.05993(11) 0.24100(12) -0.0660(3)
C1O C -0.05993(11) 0.25900(12) -0.0660(3)
C2O C 0.08524(16) 0.54298(15) 0.3987(3)
C2L C 0.20702(15) 0.33524(16) 0.6487(3)
C2G C -0.08524(16) 0.45702(15) -0.3987(3)
H1O H 0.1029 0.5681 0.4665
H1L H 0.1819 0.3529 0.7165
H1G H -0.1029 0.4319 -0.4665
N1A N -0.15077(10) 0.26427(10) 0.2295(2)
N1N N -0.01427(10) 0.09923(10) 0.0205(2)
N1O N 0.01427(10) 0.40077(10) 0.0205(2)
N1G N -0.01427(10) 0.59923(10) -0.0205(2)
N1L N 0.34923(10) 0.26427(10) 0.2705(2)
N2O N -0.08353(10) 0.48518(10) 0.1100(2)
N2L N 0.26482(10) 0.16647(10) 0.3600(2)
N2G N 0.08353(10) 0.51482(10) -0.1100(2)
C3O C -0.15981(16) 0.50266(17) 0.2593(3)
C3L C 0.24734(17) 0.09019(16) 0.5093(3)
C3G C 0.15981(16) 0.49734(17) -0.2593(3)
H2O H -0.1836 0.5217 0.3277
H2L H 0.2283 0.0664 0.5777
H2G H 0.1836 0.4783 -0.3277
N3O N 0.04468(10) 0.51204(10) 0.1966(2)
N3L N 0.23796(10) 0.29468(10) 0.4466(2)
N3G N -0.04468(10) 0.48796(10) -0.1966(2)
N4A N -0.01417(13) 0.16077(11) 0.4142(2)
N4N N 0.08923(11) 0.23583(13) -0.1642(2)
N4O N -0.08923(11) 0.26417(13) -0.1642(2)
C4A C -0.09939(11) 0.26172(11) 0.1953(2)
C4N C -0.01172(11) 0.15061(11) 0.0547(2)
C4O C 0.01172(11) 0.34939(11) 0.0547(2)
N5O N -0.10634(11) 0.52369(11) 0.2072(2)
N5L N 0.22631(11) 0.14366(11) 0.4572(2)
N5G N 0.10634(11) 0.47631(11) -0.2072(2)
H3O H -0.0888 0.5576 0.2326
H3L H 0.1924 0.1612 0.4826
H3G H 0.0888 0.4424 -0.2326
C5O C -0.12455(14) 0.43891(13) 0.1031(3)
C5L C 0.31109(13) 0.12545(14) 0.3531(3)
C5G C 0.12455(14) 0.56109(13) -0.1031(3)
H4O H -0.1209 0.4048 0.0445
H4L H 0.3452 0.1291 0.2945
H4G H 0.1209 0.5952 -0.0445
C6O C 0.07046(17) 0.48262(16) 0.4099(3)
C6L C 0.26738(16) 0.32046(17) 0.6599(3)
C6G C -0.07046(17) 0.51738(16) -0.4099(3)
H5O H 0.076 0.4578 0.488
H5L H 0.2922 0.326 0.738
H5G H -0.076 0.5422 -0.488
N6O N 0.04645(12) 0.46511(11) 0.2884(2)
N6L N 0.28489(11) 0.29645(12) 0.5384(2)
N6G N -0.04645(12) 0.53489(11) -0.2884(2)
H6O H 0.0336 0.4282 0.2709
H6L H 0.3218 0.2836 0.5209
H6G H -0.0336 0.5718 -0.2709
C7O C 0.06863(14) 0.55954(13) 0.2650(3)
C7L C 0.19046(13) 0.31863(14) 0.5150(3)
C7G C -0.06863(14) 0.44046(13) -0.2650(3)
H7O H 0.0736 0.599 0.2279
H7L H 0.151 0.3236 0.4779
H7G H -0.0736 0.401 -0.2279
C8O C -0.17309(16) 0.44832(16) 0.1940(4)
C8L C 0.30168(16) 0.07691(16) 0.4440(4)
C8G C 0.17309(16) 0.55168(16) -0.1940(4)
H8O H -0.2074 0.423 0.2077
H8L H 0.327 0.0426 0.4577
H8G H 0.2074 0.577 -0.2077
O1 O 0.38546(11) 0.30901(12) -0.0594(2)
H9 H 0.3944(17) 0.2884(16) -0.141(3)
H10 H 0.4212(15) 0.315(2) -0.010(5)
loop_
_geom_bond_atom_site_label_1
_geom_bond_atom_site_label_2
_geom_bond_site_symmetry_1
_geom_bond_site_symmetry_2
Nb1 C1 1_555 1_555
Co1 N1 1_555 1_555
C1 N4 1_555 1_555
C2 H1 1_555 1_555
N1 C4 1_555 1_555
N2 Co1 1_555 1_555
C3 H2 1_555 1_555
N3 Co1 1_555 1_555
C4 Nb1 1_555 1_555
O1 H9 1_555 1_555
N5 N2 1_555 1_555
H3 N5 1_555 1_555
C5 N2 1_555 1_555
H4 C5 1_555 1_555
C6 C2 1_555 1_555
H5 C6 1_555 1_555
N6 N3 1_555 1_555
H6 N6 1_555 1_555
C7 C2 1_555 1_555
H7 C7 1_555 1_555
C8 C3 1_555 1_555
H8 C8 1_555 1_555
H10 O1 1_555 1_555
Co1G N1O 1_555 1_555
Co1F N1N 1_555 1_555
Co1A N1A 1_555 1_555
C1A Nb1 1_555 1_555
C1N Nb1 1_555 1_555
C1O Nb1 1_555 1_555
C2O H1O 1_555 1_555
C2L H1L 1_555 1_555
C2G H1G 1_555 1_555
N1A C4A 1_555 1_555
N1N C4N 1_555 1_555
N1O C4O 1_555 1_555
N1G Co1G 1_555 1_555
N1L Co1 1_555 1_555
N2O Co1G 1_555 1_555
N2L Co1 1_555 1_555
N2G Co1G 1_555 1_555
C3O H2O 1_555 1_555
C3L H2L 1_555 1_555
C3G H2G 1_555 1_555
N3O Co1G 1_555 1_555
N3L Co1 1_555 1_555
N3G Co1G 1_555 1_555
N4A C1A 1_555 1_555
N4N C1N 1_555 1_555
N4O C1O 1_555 1_555
C4A Nb1 1_555 1_555
C4N Nb1 1_555 1_555
C4O Nb1 1_555 1_555
N5O N2O 1_555 1_555
N5L N2L 1_555 1_555
N5G N2G 1_555 1_555
H3O N5O 1_555 1_555
H3L N5L 1_555 1_555
H3G N5G 1_555 1_555
C5O N2O 1_555 1_555
C5L N2L 1_555 1_555
C5G N2G 1_555 1_555
H4O C5O 1_555 1_555
H4L C5L 1_555 1_555
H4G C5G 1_555 1_555
C6O C2O 1_555 1_555
C6L C2L 1_555 1_555
C6G C2G 1_555 1_555
H5O C6O 1_555 1_555
H5L C6L 1_555 1_555
H5G C6G 1_555 1_555
N6O N3O 1_555 1_555
N6L N3L 1_555 1_555
N6G N3G 1_555 1_555
H6O N6O 1_555 1_555
H6L N6L 1_555 1_555
H6G N6G 1_555 1_555
C7O C2O 1_555 1_555
C7L C2L 1_555 1_555
C7G C2G 1_555 1_555
H7O C7O 1_555 1_555
H7L C7L 1_555 1_555
H7G C7G 1_555 1_555
C8O C3O 1_555 1_555
C8L C3L 1_555 1_555
C8G C3G 1_555 1_555
H8O C8O 1_555 1_555
H8L C8L 1_555 1_555
H8G C8G 1_555 1_555
C3 N5 1_555 1_555
N3 C7 1_555 1_555
C5 C8 1_555 1_555
C6 N6 1_555 1_555
C3O N5O 1_555 1_555
C3L N5L 1_555 1_555
C3G N5G 1_555 1_555
N3O C7O 1_555 1_555
N3L C7L 1_555 1_555
N3G C7G 1_555 1_555
C5O C8O 1_555 1_555
C5L C8L 1_555 1_555
C5G C8G 1_555 1_555
C6O N6O 1_555 1_555
C6L N6L 1_555 1_555
C6G N6G 1_555 1_555

#END
