
#######################################################################
#
#                 Cambridge Crystallographic Data Centre
#                                CCDC 
#
#######################################################################
#
# If this CIF has been generated from an entry in the Cambridge 
# Structural Database, then it will include bibliographic, chemical, 
# crystal, experimental, refinement or atomic coordinate data resulting 
# from the CCDC's data processing and validation procedures.
#
#######################################################################

data_UJUKAM10
_symmetry_cell_setting           tetragonal
_symmetry_space_group_name_H-M   'I 41/a'
_symmetry_Int_Tables_number      88
_space_group_name_Hall           '-I 4ad'
loop_
_symmetry_equiv_pos_site_id
_symmetry_equiv_pos_as_xyz
1 x,y,z
2 1/2-x,-y,1/2+z
3 3/4-y,1/4+x,1/4+z
4 3/4+y,3/4-x,3/4+z
5 1/2+x,1/2+y,1/2+z
6 -x,1/2-y,z
7 1/4-y,3/4+x,3/4+z
8 1/4+y,1/4-x,1/4+z
9 -x,-y,-z
10 1/2+x,y,1/2-z
11 1/4+y,3/4-x,3/4-z
12 1/4-y,1/4+x,1/4-z
13 1/2-x,1/2-y,1/2-z
14 x,1/2+y,-z
15 3/4+y,1/4-x,1/4-z
16 3/4-y,3/4+x,3/4-z
_cell_length_a                   20.47(2)
_cell_length_b                   20.47(2)
_cell_length_c                   9.24(2)
_cell_angle_alpha                90
_cell_angle_beta                 90
_cell_angle_gamma                90
_cell_volume                     3871.75
loop_
_atom_site_label
_atom_site_type_symbol
_atom_site_fract_x
_atom_site_fract_y
_atom_site_fract_z
Nb1 Nb 0.5000 0.2500 0.3750
Fe1 Fe 0.7500 0.2500 0.2500
N1 N 0.6558(7) 0.2677(6) 0.267(3)
N2 N 0.5188(8) 0.1589(9) 0.059(4)
C1 C 0.6012(9) 0.2665(8) 0.306(4)
C2 C 0.5142(9) 0.1873(10) 0.173(5)
N3 N 0.7670(8) 0.1378(7) 0.453(4)
H1 H 0.7999 0.1576 0.4908
N4 N 0.7287(7) 0.1663(7) 0.345(3)
C3 C 0.7497(9) 0.0796(8) 0.494(4)
H2 H 0.7729 0.0517 0.5546
C4 C 0.6897(8) 0.0671(9) 0.429(4)
H3 H 0.6630 0.0308 0.4419
C5 C 0.6786(8) 0.1205(8) 0.340(4)
H4 H 0.6414 0.1253 0.2833
N5 N 0.7629(7) 0.2934(8) 0.438(3)
N6 N 0.7162(8) 0.2935(8) 0.542(3)
H5 H 0.6782 0.2769 0.5272
C6 C 0.7324(10) 0.3215(10) 0.675(4)
H6 H 0.7037 0.3267 0.7521
C7 C 0.7955(11) 0.3399(10) 0.675(4)
H7 H 0.8204 0.3580 0.7490
C8 C 0.8127(9) 0.3247(9) 0.537(4)
H8 H 0.8547 0.3335 0.5037
Fe1E Fe 0.2500 0.2500 0.2500
N1E N 0.3442(7) 0.2323(6) 0.267(3)
N2E N 0.4812(8) 0.3411(9) 0.059(4)
C1E C 0.3988(9) 0.2335(8) 0.306(4)
C2E C 0.4858(9) 0.3127(10) 0.173(5)
N3E N 0.2330(8) 0.3622(7) 0.453(4)
H1E H 0.2001 0.3424 0.4908
N4E N 0.2713(7) 0.3337(7) 0.345(3)
C3E C 0.2503(9) 0.4204(8) 0.494(4)
H2E H 0.2271 0.4483 0.5546
C4E C 0.3103(8) 0.4329(9) 0.429(4)
H3E H 0.3370 0.4692 0.4419
C5E C 0.3214(8) 0.3795(8) 0.340(4)
H4E H 0.3586 0.3747 0.2833
N5E N 0.2371(7) 0.2066(8) 0.438(3)
N6E N 0.2838(8) 0.2065(8) 0.542(3)
H5E H 0.3218 0.2231 0.5272
C6E C 0.2676(10) 0.1785(10) 0.675(4)
H6E H 0.2963 0.1733 0.7521
C7E C 0.2045(11) 0.1601(10) 0.675(4)
H7E H 0.1796 0.1420 0.7490
C8E C 0.1873(9) 0.1753(9) 0.537(4)
H8E H 0.1453 0.1665 0.5037
N1J N 0.5177(6) 0.0942(7) 0.483(3)
N2J N 0.4089(9) 0.2312(8) 0.691(4)
C1J C 0.5165(8) 0.1488(9) 0.444(4)
C2J C 0.4373(10) 0.2358(9) 0.577(5)
N1O N 0.4823(6) 0.4058(7) 0.483(3)
N2O N 0.5911(9) 0.2688(8) 0.691(4)
C1O C 0.4835(8) 0.3512(9) 0.444(4)
C2O C 0.5627(10) 0.2642(9) 0.577(5)
N3L N 0.7330(8) 0.3622(7) 0.047(4)
H1L H 0.7001 0.3424 0.0092
N4L N 0.7713(7) 0.3337(7) 0.155(3)
C3L C 0.7503(9) 0.4204(8) 0.006(4)
H2L H 0.7271 0.4483 -0.0546
C4L C 0.8103(8) 0.4329(9) 0.071(4)
H3L H 0.8370 0.4692 0.0581
C5L C 0.8214(8) 0.3795(8) 0.160(4)
H4L H 0.8586 0.3747 0.2167
N5L N 0.7371(7) 0.2066(8) 0.062(3)
N6L N 0.7838(8) 0.2065(8) -0.042(3)
H5L H 0.8218 0.2231 -0.0272
C6L C 0.7676(10) 0.1785(10) -0.175(4)
H6L H 0.7963 0.1733 -0.2521
C7L C 0.7045(11) 0.1601(10) -0.175(4)
H7L H 0.6796 0.1420 -0.2490
C8L C 0.6873(9) 0.1753(9) -0.037(4)
H8L H 0.6453 0.1665 -0.0037
N3I N 0.2670(8) 0.1378(7) 0.047(4)
H1I H 0.2999 0.1576 0.0092
N4I N 0.2287(7) 0.1663(7) 0.155(3)
C3I C 0.2497(9) 0.0796(8) 0.006(4)
H2I H 0.2729 0.0517 -0.0546
C4I C 0.1897(8) 0.0671(9) 0.071(4)
H3I H 0.1630 0.0308 0.0581
C5I C 0.1786(8) 0.1205(8) 0.160(4)
H4I H 0.1414 0.1253 0.2167
N5I N 0.2629(7) 0.2934(8) 0.062(3)
N6I N 0.2162(8) 0.2935(8) -0.042(3)
H5I H 0.1782 0.2769 -0.0272
C6I C 0.2324(10) 0.3215(10) -0.175(4)
H6I H 0.2037 0.3267 -0.2521
C7I C 0.2955(11) 0.3399(10) -0.175(4)
H7I H 0.3204 0.3580 -0.2490
C8I C 0.3127(9) 0.3247(9) -0.037(4)
H8I H 0.3547 0.3335 -0.0037
Fe1B Fe 0.5000 0.0000 0.5000
Fe1G Fe 0.5000 0.5000 0.5000
N1I N 0.1558(7) 0.2677(6) 0.233(3)
N1L N 0.8442(7) 0.2323(6) 0.233(3)
O1 O 0.3862(6) 0.1921(7) -0.047(3)
H9 H 0.380(8) 0.214(9) -0.142(9)
H10 H 0.422(8) 0.210(5) 0.01(2)
loop_
_geom_bond_atom_site_label_1
_geom_bond_atom_site_label_2
_geom_bond_site_symmetry_1
_geom_bond_site_symmetry_2
Nb1 C1 1_555 1_555
Fe1 N1 1_555 1_555
N1 C1 1_555 1_555
N2 C2 1_555 1_555
C2 Nb1 1_555 1_555
N3 H1 1_555 1_555
N4 Fe1 1_555 1_555
C3 N3 1_555 1_555
H2 C3 1_555 1_555
C4 C3 1_555 1_555
H3 C4 1_555 1_555
C5 N4 1_555 1_555
H4 C5 1_555 1_555
N5 Fe1 1_555 1_555
N6 N5 1_555 1_555
H5 N6 1_555 1_555
C6 N6 1_555 1_555
H6 C6 1_555 1_555
C7 C6 1_555 1_555
H7 C7 1_555 1_555
C8 N5 1_555 1_555
H8 C8 1_555 1_555
O1 H9 1_555 1_555
H10 O1 1_555 1_555
Fe1E N1E 1_555 1_555
N1E C1E 1_555 1_555
N2E C2E 1_555 1_555
C1E Nb1 1_555 1_555
C2E Nb1 1_555 1_555
N3E H1E 1_555 1_555
N4E Fe1E 1_555 1_555
C3E N3E 1_555 1_555
H2E C3E 1_555 1_555
C4E C3E 1_555 1_555
H3E C4E 1_555 1_555
C5E N4E 1_555 1_555
H4E C5E 1_555 1_555
N5E Fe1E 1_555 1_555
N6E N5E 1_555 1_555
H5E N6E 1_555 1_555
C6E N6E 1_555 1_555
H6E C6E 1_555 1_555
C7E C6E 1_555 1_555
H7E C7E 1_555 1_555
C8E N5E 1_555 1_555
H8E C8E 1_555 1_555
N1J C1J 1_555 1_555
N2J C2J 1_555 1_555
C1J Nb1 1_555 1_555
C2J Nb1 1_555 1_555
N1O C1O 1_555 1_555
N2O C2O 1_555 1_555
C1O Nb1 1_555 1_555
C2O Nb1 1_555 1_555
N3L H1L 1_555 1_555
N4L Fe1 1_555 1_555
C3L N3L 1_555 1_555
H2L C3L 1_555 1_555
C4L C3L 1_555 1_555
H3L C4L 1_555 1_555
C5L N4L 1_555 1_555
H4L C5L 1_555 1_555
N5L Fe1 1_555 1_555
N6L N5L 1_555 1_555
H5L N6L 1_555 1_555
C6L N6L 1_555 1_555
H6L C6L 1_555 1_555
C7L C6L 1_555 1_555
H7L C7L 1_555 1_555
C8L N5L 1_555 1_555
H8L C8L 1_555 1_555
N3I H1I 1_555 1_555
N4I Fe1E 1_555 1_555
C3I N3I 1_555 1_555
H2I C3I 1_555 1_555
C4I C3I 1_555 1_555
H3I C4I 1_555 1_555
C5I N4I 1_555 1_555
H4I C5I 1_555 1_555
N5I Fe1E 1_555 1_555
N6I N5I 1_555 1_555
H5I N6I 1_555 1_555
C6I N6I 1_555 1_555
H6I C6I 1_555 1_555
C7I C6I 1_555 1_555
H7I C7I 1_555 1_555
C8I N5I 1_555 1_555
H8I C8I 1_555 1_555
Fe1B N1J 1_555 1_555
Fe1G N1O 1_555 1_555
N1I Fe1E 1_555 1_555
N1L Fe1 1_555 1_555
N3 N4 1_555 1_555
C4 C5 1_555 1_555
C7 C8 1_555 1_555
N3E N4E 1_555 1_555
C4E C5E 1_555 1_555
C7E C8E 1_555 1_555
N3L N4L 1_555 1_555
C4L C5L 1_555 1_555
C7L C8L 1_555 1_555
N3I N4I 1_555 1_555
C4I C5I 1_555 1_555
C7I C8I 1_555 1_555

#END
