
#######################################################################
#
#                 Cambridge Crystallographic Data Centre
#                                CCDC 
#
#######################################################################
#
# If this CIF has been generated from an entry in the Cambridge 
# Structural Database, then it will include bibliographic, chemical, 
# crystal, experimental, refinement or atomic coordinate data resulting 
# from the CCDC's data processing and validation procedures.
#
#######################################################################

data_UJUKAM04
_symmetry_cell_setting           tetragonal
_symmetry_space_group_name_H-M   'I 41/a'
_symmetry_Int_Tables_number      88
_space_group_name_Hall           '-I 4ad'
loop_
_symmetry_equiv_pos_site_id
_symmetry_equiv_pos_as_xyz
1 x,y,z
2 1/2-x,-y,1/2+z
3 3/4-y,1/4+x,1/4+z
4 3/4+y,3/4-x,3/4+z
5 1/2+x,1/2+y,1/2+z
6 -x,1/2-y,z
7 1/4-y,3/4+x,3/4+z
8 1/4+y,1/4-x,1/4+z
9 -x,-y,-z
10 1/2+x,y,1/2-z
11 1/4+y,3/4-x,3/4-z
12 1/4-y,1/4+x,1/4-z
13 1/2-x,1/2-y,1/2-z
14 x,1/2+y,-z
15 3/4+y,1/4-x,1/4-z
16 3/4-y,3/4+x,3/4-z
_cell_length_a                   21.400(3)
_cell_length_b                   21.400(3)
_cell_length_c                   9.438(2)
_cell_angle_alpha                90
_cell_angle_beta                 90
_cell_angle_gamma                90
_cell_volume                     4322.23
loop_
_atom_site_label
_atom_site_type_symbol
_atom_site_fract_x
_atom_site_fract_y
_atom_site_fract_z
Nb1 Nb 0.5000 0.7500 0.6250
Fe1 Fe 0.2500 0.7500 0.7500
C1 C 0.3987(6) 0.7636(5) 0.6979(16)
N1 N 0.3489(5) 0.7689(5) 0.7331(12)
C2 C 0.5592(6) 0.7413(5) 0.4294(16)
N2 N 0.5904(5) 0.7344(5) 0.3353(15)
N3 N 0.2306(5) 0.8361(5) 0.8648(12)
N4 N 0.2704(4) 0.8611(5) 0.9623(13)
H1 H 0.3045 0.8440 0.9913
C3 C 0.2479(7) 0.9167(7) 1.0061(16)
H2 H 0.2659 0.9430 1.0732
C4 C 0.1946(6) 0.9270(6) 0.9344(16)
H3 H 0.1695 0.9625 0.9380
C5 C 0.1853(5) 0.8768(6) 0.8585(14)
H4 H 0.1494 0.8705 0.8046
N5 N 0.2385(4) 0.7961(4) 0.5499(13)
N6 N 0.2857(5) 0.7973(5) 0.4566(15)
H5 H 0.3225 0.7830 0.4731
C6 C 0.2678(7) 0.8237(7) 0.3332(17)
H6 H 0.2937 0.8322 0.2564
C7 C 0.2070(6) 0.8355(6) 0.3404(16)
H7 H 0.1812 0.8500 0.2683
C8 C 0.1904(6) 0.8213(5) 0.4787(16)
H8 H 0.1511 0.8285 0.5173
Fe1E Fe 0.7500 0.7500 0.7500
C1E C 0.6013(6) 0.7364(5) 0.6979(16)
N1E N 0.6511(5) 0.7311(5) 0.7331(12)
C2E C 0.4408(6) 0.7587(5) 0.4294(16)
N2E N 0.4096(5) 0.7656(5) 0.3353(15)
N3E N 0.7694(5) 0.6639(5) 0.8648(12)
N4E N 0.7296(4) 0.6389(5) 0.9623(13)
H1E H 0.6955 0.6560 0.9913
C3E C 0.7521(7) 0.5833(7) 1.0061(16)
H2E H 0.7341 0.5570 1.0732
C4E C 0.8054(6) 0.5730(6) 0.9344(16)
H3E H 0.8305 0.5375 0.9380
C5E C 0.8147(5) 0.6232(6) 0.8585(14)
H4E H 0.8506 0.6295 0.8046
N5E N 0.7615(4) 0.7039(4) 0.5499(13)
N6E N 0.7143(5) 0.7027(5) 0.4566(15)
H5E H 0.6775 0.7170 0.4731
C6E C 0.7322(7) 0.6763(7) 0.3332(17)
H6E H 0.7063 0.6678 0.2564
C7E C 0.7930(6) 0.6645(6) 0.3404(16)
H7E H 0.8188 0.6500 0.2683
C8E C 0.8096(6) 0.6787(5) 0.4787(16)
H8E H 0.8489 0.6715 0.5173
C1K C 0.4864(5) 0.6487(6) 0.5521(16)
N1K N 0.4811(5) 0.5989(5) 0.5169(12)
C2K C 0.5087(5) 0.8092(6) 0.8206(16)
N2K N 0.5156(5) 0.8404(5) 0.9147(15)
C1N C 0.5136(5) 0.8513(6) 0.5521(16)
N1N N 0.5189(5) 0.9011(5) 0.5169(12)
C2N C 0.4913(5) 0.6908(6) 0.8206(16)
N2N N 0.4844(5) 0.6596(5) 0.9147(15)
N3L N 0.2694(5) 0.6639(5) 0.6352(12)
N4L N 0.2296(4) 0.6389(5) 0.5377(13)
H1L H 0.1955 0.6560 0.5087
C3L C 0.2521(7) 0.5833(7) 0.4939(16)
H2L H 0.2341 0.5570 0.4268
C4L C 0.3054(6) 0.5730(6) 0.5656(16)
H3L H 0.3305 0.5375 0.5620
C5L C 0.3147(5) 0.6232(6) 0.6415(14)
H4L H 0.3506 0.6295 0.6954
N5L N 0.2615(4) 0.7039(4) 0.9501(13)
N6L N 0.2143(5) 0.7027(5) 1.0434(15)
H5L H 0.1775 0.7170 1.0269
C6L C 0.2322(7) 0.6763(7) 1.1668(17)
H6L H 0.2063 0.6678 1.2436
C7L C 0.2930(6) 0.6645(6) 1.1596(16)
H7L H 0.3188 0.6500 1.2317
C8L C 0.3096(6) 0.6787(5) 1.0213(16)
H8L H 0.3489 0.6715 0.9827
N3I N 0.7306(5) 0.8361(5) 0.6352(12)
N4I N 0.7704(4) 0.8611(5) 0.5377(13)
H1I H 0.8045 0.8440 0.5087
C3I C 0.7479(7) 0.9167(7) 0.4939(16)
H2I H 0.7659 0.9430 0.4268
C4I C 0.6946(6) 0.9270(6) 0.5656(16)
H3I H 0.6695 0.9625 0.5620
C5I C 0.6853(5) 0.8768(6) 0.6415(14)
H4I H 0.6494 0.8705 0.6954
N5I N 0.7385(4) 0.7961(4) 0.9501(13)
N6I N 0.7857(5) 0.7973(5) 1.0434(15)
H5I H 0.8225 0.7830 1.0269
C6I C 0.7678(7) 0.8237(7) 1.1668(17)
H6I H 0.7937 0.8322 1.2436
C7I C 0.7070(6) 0.8355(6) 1.1596(16)
H7I H 0.6812 0.8500 1.2317
C8I C 0.6904(6) 0.8213(5) 1.0213(16)
H8I H 0.6511 0.8285 0.9827
Fe1C Fe 0.5000 0.5000 0.5000
Fe1F Fe 0.5000 1.0000 0.5000
N1I N 0.8489(5) 0.7689(5) 0.7669(12)
N1L N 0.1511(5) 0.7311(5) 0.7669(12)
O1 O 0.3837(4) 0.8093(4) 1.0551(11)
H9 H 0.392(5) 0.792(5) 1.144(5)
H10 H 0.418(3) 0.793(5) 1.009(9)
loop_
_geom_bond_atom_site_label_1
_geom_bond_atom_site_label_2
_geom_bond_site_symmetry_1
_geom_bond_site_symmetry_2
Nb1 C1 1_555 1_555
Fe1 N1 1_555 1_555
C1 N1 1_555 1_555
C2 Nb1 1_555 1_555
N2 C2 1_555 1_555
N3 Fe1 1_555 1_555
N4 N3 1_555 1_555
H1 N4 1_555 1_555
C3 N4 1_555 1_555
H2 C3 1_555 1_555
C4 C3 1_555 1_555
H3 C4 1_555 1_555
C5 N3 1_555 1_555
H4 C5 1_555 1_555
N5 Fe1 1_555 1_555
N6 N5 1_555 1_555
H5 N6 1_555 1_555
C6 N6 1_555 1_555
H6 C6 1_555 1_555
C7 C6 1_555 1_555
H7 C7 1_555 1_555
C8 N5 1_555 1_555
H8 C8 1_555 1_555
O1 H9 1_555 1_555
H10 O1 1_555 1_555
Fe1E N1E 1_555 1_555
C1E Nb1 1_555 1_555
N1E C1E 1_555 1_555
C2E Nb1 1_555 1_555
N2E C2E 1_555 1_555
N3E Fe1E 1_555 1_555
N4E N3E 1_555 1_555
H1E N4E 1_555 1_555
C3E N4E 1_555 1_555
H2E C3E 1_555 1_555
C4E C3E 1_555 1_555
H3E C4E 1_555 1_555
C5E N3E 1_555 1_555
H4E C5E 1_555 1_555
N5E Fe1E 1_555 1_555
N6E N5E 1_555 1_555
H5E N6E 1_555 1_555
C6E N6E 1_555 1_555
H6E C6E 1_555 1_555
C7E C6E 1_555 1_555
H7E C7E 1_555 1_555
C8E N5E 1_555 1_555
H8E C8E 1_555 1_555
C1K Nb1 1_555 1_555
N1K C1K 1_555 1_555
C2K Nb1 1_555 1_555
N2K C2K 1_555 1_555
C1N Nb1 1_555 1_555
N1N C1N 1_555 1_555
C2N Nb1 1_555 1_555
N2N C2N 1_555 1_555
N3L Fe1 1_555 1_555
N4L N3L 1_555 1_555
H1L N4L 1_555 1_555
C3L N4L 1_555 1_555
H2L C3L 1_555 1_555
C4L C3L 1_555 1_555
H3L C4L 1_555 1_555
C5L N3L 1_555 1_555
H4L C5L 1_555 1_555
N5L Fe1 1_555 1_555
N6L N5L 1_555 1_555
H5L N6L 1_555 1_555
C6L N6L 1_555 1_555
H6L C6L 1_555 1_555
C7L C6L 1_555 1_555
H7L C7L 1_555 1_555
C8L N5L 1_555 1_555
H8L C8L 1_555 1_555
N3I Fe1E 1_555 1_555
N4I N3I 1_555 1_555
H1I N4I 1_555 1_555
C3I N4I 1_555 1_555
H2I C3I 1_555 1_555
C4I C3I 1_555 1_555
H3I C4I 1_555 1_555
C5I N3I 1_555 1_555
H4I C5I 1_555 1_555
N5I Fe1E 1_555 1_555
N6I N5I 1_555 1_555
H5I N6I 1_555 1_555
C6I N6I 1_555 1_555
H6I C6I 1_555 1_555
C7I C6I 1_555 1_555
H7I C7I 1_555 1_555
C8I N5I 1_555 1_555
H8I C8I 1_555 1_555
Fe1C N1K 1_555 1_555
Fe1F N1N 1_555 1_555
N1I Fe1E 1_555 1_555
N1L Fe1 1_555 1_555
C4 C5 1_555 1_555
C7 C8 1_555 1_555
C4E C5E 1_555 1_555
C7E C8E 1_555 1_555
C4L C5L 1_555 1_555
C7L C8L 1_555 1_555
C4I C5I 1_555 1_555
C7I C8I 1_555 1_555

#END
