
#######################################################################
#
#                 Cambridge Crystallographic Data Centre
#                                CCDC 
#
#######################################################################
#
# If this CIF has been generated from an entry in the Cambridge 
# Structural Database, then it will include bibliographic, chemical, 
# crystal, experimental, refinement or atomic coordinate data resulting 
# from the CCDC's data processing and validation procedures.
#
#######################################################################

data_UJUKAM01
_symmetry_cell_setting           tetragonal
_symmetry_space_group_name_H-M   'I 41/a'
_symmetry_Int_Tables_number      88
_space_group_name_Hall           '-I 4ad'
loop_
_symmetry_equiv_pos_site_id
_symmetry_equiv_pos_as_xyz
1 x,y,z
2 1/2-x,-y,1/2+z
3 3/4-y,1/4+x,1/4+z
4 3/4+y,3/4-x,3/4+z
5 1/2+x,1/2+y,1/2+z
6 -x,1/2-y,z
7 1/4-y,3/4+x,3/4+z
8 1/4+y,1/4-x,1/4+z
9 -x,-y,-z
10 1/2+x,y,1/2-z
11 1/4+y,3/4-x,3/4-z
12 1/4-y,1/4+x,1/4-z
13 1/2-x,1/2-y,1/2-z
14 x,1/2+y,-z
15 3/4+y,1/4-x,1/4-z
16 3/4-y,3/4+x,3/4-z
_cell_length_a                   21.6737(2)
_cell_length_b                   21.6737(2)
_cell_length_c                   9.6282(2)
_cell_angle_alpha                90
_cell_angle_beta                 90
_cell_angle_gamma                90
_cell_volume                     4522.84
loop_
_atom_site_label
_atom_site_type_symbol
_atom_site_fract_x
_atom_site_fract_y
_atom_site_fract_z
Nb1 Nb 0.5000 0.7500 0.6250
Fe1 Fe 0.2500 0.7500 0.7500
C1 C 0.40088(8) 0.76174(9) 0.6943(2)
N1 N 0.35004(7) 0.76499(8) 0.72859(18)
C2 C 0.55947(8) 0.74073(9) 0.4347(2)
N2 N 0.58873(9) 0.73539(10) 0.3360(2)
N3 N 0.23542(8) 0.83467(8) 0.86373(18)
N4 N 0.27388(9) 0.85774(8) 0.96056(19)
H1 H 0.3076 0.8404 0.9868
C3 C 0.25245(13) 0.91158(12) 1.0108(2)
H2 H 0.2714 0.9358 1.0781
C4 C 0.19849(12) 0.92421(11) 0.9460(3)
H3 H 0.1731 0.9583 0.9590
C5 C 0.18940(10) 0.87511(12) 0.8558(3)
H4 H 0.1555 0.8710 0.7973
N5 N 0.23884(7) 0.79586(8) 0.54994(19)
N6 N 0.28543(8) 0.79759(10) 0.4584(2)
H5 H 0.3223 0.7853 0.4766
C6 C 0.26818(12) 0.82045(14) 0.3368(3)
H6 H 0.2929 0.8255 0.2587
C7 C 0.20731(12) 0.83511(13) 0.3481(3)
H7 H 0.1821 0.8523 0.2802
C8 C 0.19127(10) 0.81913(11) 0.4808(3)
H8 H 0.1520 0.8240 0.5179
Fe1E Fe 0.7500 0.7500 0.7500
C1E C 0.59912(8) 0.73826(9) 0.6943(2)
N1E N 0.64996(7) 0.73501(8) 0.72859(18)
C2E C 0.44053(8) 0.75927(9) 0.4347(2)
N2E N 0.41127(9) 0.76461(10) 0.3360(2)
N3E N 0.76458(8) 0.66533(8) 0.86373(18)
N4E N 0.72612(9) 0.64226(8) 0.96056(19)
H1E H 0.6924 0.6596 0.9868
C3E C 0.74755(13) 0.58842(12) 1.0108(2)
H2E H 0.7286 0.5642 1.0781
C4E C 0.80151(12) 0.57579(11) 0.9460(3)
H3E H 0.8269 0.5417 0.9590
C5E C 0.81060(10) 0.62489(12) 0.8558(3)
H4E H 0.8445 0.6290 0.7973
N5E N 0.76116(7) 0.70414(8) 0.54994(19)
N6E N 0.71457(8) 0.70241(10) 0.4584(2)
H5E H 0.6777 0.7147 0.4766
C6E C 0.73182(12) 0.67955(14) 0.3368(3)
H6E H 0.7071 0.6745 0.2587
C7E C 0.79269(12) 0.66489(13) 0.3481(3)
H7E H 0.8179 0.6477 0.2802
C8E C 0.80873(10) 0.68087(11) 0.4808(3)
H8E H 0.8480 0.6760 0.5179
C1K C 0.48826(9) 0.65088(8) 0.5557(2)
N1K N 0.48501(8) 0.60004(7) 0.52141(18)
C2K C 0.50927(9) 0.80947(8) 0.8153(2)
N2K N 0.51461(10) 0.83873(9) 0.9140(2)
C1N C 0.51174(9) 0.84912(8) 0.5557(2)
N1N N 0.51499(8) 0.89996(7) 0.52141(18)
C2N C 0.49073(9) 0.69053(8) 0.8153(2)
N2N N 0.48539(10) 0.66127(9) 0.9140(2)
N3L N 0.26458(8) 0.66533(8) 0.63627(18)
N4L N 0.22612(9) 0.64226(8) 0.53944(19)
H1L H 0.1924 0.6596 0.5132
C3L C 0.24755(13) 0.58842(12) 0.4892(2)
H2L H 0.2286 0.5642 0.4219
C4L C 0.30151(12) 0.57579(11) 0.5540(3)
H3L H 0.3269 0.5417 0.5410
C5L C 0.31060(10) 0.62489(12) 0.6442(3)
H4L H 0.3445 0.6290 0.7027
N5L N 0.26116(7) 0.70414(8) 0.95006(19)
N6L N 0.21457(8) 0.70241(10) 1.0416(2)
H5L H 0.1777 0.7147 1.0234
C6L C 0.23182(12) 0.67955(14) 1.1632(3)
H6L H 0.2071 0.6745 1.2413
C7L C 0.29269(12) 0.66489(13) 1.1519(3)
H7L H 0.3179 0.6477 1.2198
C8L C 0.30873(10) 0.68087(11) 1.0192(3)
H8L H 0.3480 0.6760 0.9821
N3I N 0.73542(8) 0.83467(8) 0.63627(18)
N4I N 0.77388(9) 0.85774(8) 0.53944(19)
H1I H 0.8076 0.8404 0.5132
C3I C 0.75245(13) 0.91158(12) 0.4892(2)
H2I H 0.7714 0.9358 0.4219
C4I C 0.69849(12) 0.92421(11) 0.5540(3)
H3I H 0.6731 0.9583 0.5410
C5I C 0.68940(10) 0.87511(12) 0.6442(3)
H4I H 0.6555 0.8710 0.7027
N5I N 0.73884(7) 0.79586(8) 0.95006(19)
N6I N 0.78543(8) 0.79759(10) 1.0416(2)
H5I H 0.8223 0.7853 1.0234
C6I C 0.76818(12) 0.82045(14) 1.1632(3)
H6I H 0.7929 0.8255 1.2413
C7I C 0.70731(12) 0.83511(13) 1.1519(3)
H7I H 0.6821 0.8523 1.2198
C8I C 0.69127(10) 0.81913(11) 1.0192(3)
H8I H 0.6520 0.8240 0.9821
Fe1C Fe 0.5000 0.5000 0.5000
Fe1F Fe 0.5000 1.0000 0.5000
N1I N 0.85004(7) 0.76499(8) 0.77141(18)
N1L N 0.14996(7) 0.73501(8) 0.77141(18)
O1 O 0.38497(8) 0.80924(8) 1.05980(18)
H9 H 0.3978(9) 0.7972(11) 1.1475(10)
H10 H 0.4232(5) 0.8092(13) 1.0165(19)
loop_
_geom_bond_atom_site_label_1
_geom_bond_atom_site_label_2
_geom_bond_site_symmetry_1
_geom_bond_site_symmetry_2
Nb1 C1 1_555 1_555
Fe1 N1 1_555 1_555
C1 N1 1_555 1_555
C2 Nb1 1_555 1_555
N2 C2 1_555 1_555
N3 Fe1 1_555 1_555
N4 N3 1_555 1_555
H1 N4 1_555 1_555
C3 N4 1_555 1_555
H2 C3 1_555 1_555
C4 C3 1_555 1_555
H3 C4 1_555 1_555
C5 N3 1_555 1_555
H4 C5 1_555 1_555
N5 Fe1 1_555 1_555
N6 N5 1_555 1_555
H5 N6 1_555 1_555
C6 N6 1_555 1_555
H6 C6 1_555 1_555
C7 C6 1_555 1_555
H7 C7 1_555 1_555
C8 N5 1_555 1_555
H8 C8 1_555 1_555
O1 H9 1_555 1_555
H10 O1 1_555 1_555
Fe1E N1E 1_555 1_555
C1E Nb1 1_555 1_555
N1E C1E 1_555 1_555
C2E Nb1 1_555 1_555
N2E C2E 1_555 1_555
N3E Fe1E 1_555 1_555
N4E N3E 1_555 1_555
H1E N4E 1_555 1_555
C3E N4E 1_555 1_555
H2E C3E 1_555 1_555
C4E C3E 1_555 1_555
H3E C4E 1_555 1_555
C5E N3E 1_555 1_555
H4E C5E 1_555 1_555
N5E Fe1E 1_555 1_555
N6E N5E 1_555 1_555
H5E N6E 1_555 1_555
C6E N6E 1_555 1_555
H6E C6E 1_555 1_555
C7E C6E 1_555 1_555
H7E C7E 1_555 1_555
C8E N5E 1_555 1_555
H8E C8E 1_555 1_555
C1K Nb1 1_555 1_555
N1K C1K 1_555 1_555
C2K Nb1 1_555 1_555
N2K C2K 1_555 1_555
C1N Nb1 1_555 1_555
N1N C1N 1_555 1_555
C2N Nb1 1_555 1_555
N2N C2N 1_555 1_555
N3L Fe1 1_555 1_555
N4L N3L 1_555 1_555
H1L N4L 1_555 1_555
C3L N4L 1_555 1_555
H2L C3L 1_555 1_555
C4L C3L 1_555 1_555
H3L C4L 1_555 1_555
C5L N3L 1_555 1_555
H4L C5L 1_555 1_555
N5L Fe1 1_555 1_555
N6L N5L 1_555 1_555
H5L N6L 1_555 1_555
C6L N6L 1_555 1_555
H6L C6L 1_555 1_555
C7L C6L 1_555 1_555
H7L C7L 1_555 1_555
C8L N5L 1_555 1_555
H8L C8L 1_555 1_555
N3I Fe1E 1_555 1_555
N4I N3I 1_555 1_555
H1I N4I 1_555 1_555
C3I N4I 1_555 1_555
H2I C3I 1_555 1_555
C4I C3I 1_555 1_555
H3I C4I 1_555 1_555
C5I N3I 1_555 1_555
H4I C5I 1_555 1_555
N5I Fe1E 1_555 1_555
N6I N5I 1_555 1_555
H5I N6I 1_555 1_555
C6I N6I 1_555 1_555
H6I C6I 1_555 1_555
C7I C6I 1_555 1_555
H7I C7I 1_555 1_555
C8I N5I 1_555 1_555
H8I C8I 1_555 1_555
Fe1C N1K 1_555 1_555
Fe1F N1N 1_555 1_555
N1I Fe1E 1_555 1_555
N1L Fe1 1_555 1_555
C4 C5 1_555 1_555
C7 C8 1_555 1_555
C4E C5E 1_555 1_555
C7E C8E 1_555 1_555
C4L C5L 1_555 1_555
C7L C8L 1_555 1_555
C4I C5I 1_555 1_555
C7I C8I 1_555 1_555

#END
