
#######################################################################
#
#                 Cambridge Crystallographic Data Centre
#                                CCDC 
#
#######################################################################
#
# If this CIF has been generated from an entry in the Cambridge 
# Structural Database, then it will include bibliographic, chemical, 
# crystal, experimental, refinement or atomic coordinate data resulting 
# from the CCDC's data processing and validation procedures.
#
#######################################################################

data_UJUKAM05
_symmetry_cell_setting           tetragonal
_symmetry_space_group_name_H-M   'I 41/a'
_symmetry_Int_Tables_number      88
_space_group_name_Hall           '-I 4ad'
loop_
_symmetry_equiv_pos_site_id
_symmetry_equiv_pos_as_xyz
1 x,y,z
2 1/2-x,-y,1/2+z
3 3/4-y,1/4+x,1/4+z
4 3/4+y,3/4-x,3/4+z
5 1/2+x,1/2+y,1/2+z
6 -x,1/2-y,z
7 1/4-y,3/4+x,3/4+z
8 1/4+y,1/4-x,1/4+z
9 -x,-y,-z
10 1/2+x,y,1/2-z
11 1/4+y,3/4-x,3/4-z
12 1/4-y,1/4+x,1/4-z
13 1/2-x,1/2-y,1/2-z
14 x,1/2+y,-z
15 3/4+y,1/4-x,1/4-z
16 3/4-y,3/4+x,3/4-z
_cell_length_a                   21.116(3)
_cell_length_b                   21.116(3)
_cell_length_c                   9.50(3)
_cell_angle_alpha                90
_cell_angle_beta                 90
_cell_angle_gamma                90
_cell_volume                     4235.91
loop_
_atom_site_label
_atom_site_type_symbol
_atom_site_fract_x
_atom_site_fract_y
_atom_site_fract_z
Nb1 Nb 0.5000 0.7500 0.6250
Fe1 Fe 0.2500 0.7500 0.7500
C1 C 0.4017(8) 0.7651(6) 0.708(5)
N1 N 0.3479(5) 0.7703(5) 0.720(4)
C2 C 0.5625(8) 0.7399(7) 0.419(5)
N2 N 0.5910(7) 0.7323(7) 0.333(5)
N3 N 0.2302(6) 0.8345(5) 0.861(4)
N4 N 0.2690(6) 0.8607(6) 0.959(4)
H1 H 0.3040 0.8435 0.9848
C3 C 0.2477(8) 0.9167(8) 1.012(5)
H2 H 0.2673 0.9415 1.0796
C4 C 0.1920(7) 0.9290(8) 0.945(5)
H3 H 0.1660 0.9644 0.9520
C5 C 0.1842(7) 0.8756(7) 0.866(5)
H4 H 0.1469 0.8687 0.8157
N5 N 0.2369(6) 0.7955(6) 0.548(5)
N6 N 0.2836(7) 0.7966(7) 0.441(5)
H5 H 0.3204 0.7801 0.4531
C6 C 0.2680(10) 0.8239(9) 0.323(7)
H6 H 0.2951 0.8324 0.2477
C7 C 0.2071(10) 0.8372(10) 0.328(7)
H7 H 0.1811 0.8512 0.2552
C8 C 0.1896(9) 0.8246(9) 0.477(7)
H8 H 0.1508 0.8355 0.5167
Fe1E Fe 0.7500 0.7500 0.7500
C1E C 0.5983(8) 0.7349(6) 0.708(5)
N1E N 0.6521(5) 0.7297(5) 0.720(4)
C2E C 0.4375(8) 0.7601(7) 0.419(5)
N2E N 0.4090(7) 0.7677(7) 0.333(5)
N3E N 0.7698(6) 0.6655(5) 0.861(4)
N4E N 0.7310(6) 0.6393(6) 0.959(4)
H1E H 0.6960 0.6565 0.9848
C3E C 0.7523(8) 0.5833(8) 1.012(5)
H2E H 0.7327 0.5585 1.0796
C4E C 0.8080(7) 0.5710(8) 0.945(5)
H3E H 0.8340 0.5356 0.9520
C5E C 0.8158(7) 0.6244(7) 0.866(5)
H4E H 0.8531 0.6313 0.8157
N5E N 0.7631(6) 0.7045(6) 0.548(5)
N6E N 0.7164(7) 0.7034(7) 0.441(5)
H5E H 0.6796 0.7199 0.4531
C6E C 0.7320(10) 0.6761(9) 0.323(7)
H6E H 0.7049 0.6676 0.2477
C7E C 0.7929(10) 0.6628(10) 0.328(7)
H7E H 0.8189 0.6488 0.2552
C8E C 0.8104(9) 0.6754(9) 0.477(7)
H8E H 0.8492 0.6645 0.5167
C1K C 0.4849(6) 0.6517(8) 0.542(5)
N1K N 0.4797(5) 0.5979(5) 0.530(4)
C2K C 0.5101(7) 0.8125(8) 0.831(5)
N2K N 0.5177(7) 0.8410(7) 0.917(5)
C1N C 0.5151(6) 0.8483(8) 0.542(5)
N1N N 0.5203(5) 0.9021(5) 0.530(4)
C2N C 0.4899(7) 0.6875(8) 0.831(5)
N2N N 0.4823(7) 0.6590(7) 0.917(5)
N3L N 0.2698(6) 0.6655(5) 0.639(4)
N4L N 0.2310(6) 0.6393(6) 0.541(4)
H1L H 0.1960 0.6565 0.5152
C3L C 0.2523(8) 0.5833(8) 0.488(5)
H2L H 0.2327 0.5585 0.4204
C4L C 0.3080(7) 0.5710(8) 0.555(5)
H3L H 0.3340 0.5356 0.5480
C5L C 0.3158(7) 0.6244(7) 0.634(5)
H4L H 0.3531 0.6313 0.6843
N5L N 0.2631(6) 0.7045(6) 0.952(5)
N6L N 0.2164(7) 0.7034(7) 1.059(5)
H5L H 0.1796 0.7199 1.0469
C6L C 0.2320(10) 0.6761(9) 1.177(7)
H6L H 0.2049 0.6676 1.2523
C7L C 0.2929(10) 0.6628(10) 1.172(7)
H7L H 0.3189 0.6488 1.2448
C8L C 0.3104(9) 0.6754(9) 1.023(7)
H8L H 0.3492 0.6645 0.9833
N3I N 0.7302(6) 0.8345(5) 0.639(4)
N4I N 0.7690(6) 0.8607(6) 0.541(4)
H1I H 0.8040 0.8435 0.5152
C3I C 0.7477(8) 0.9167(8) 0.488(5)
H2I H 0.7673 0.9415 0.4204
C4I C 0.6920(7) 0.9290(8) 0.555(5)
H3I H 0.6660 0.9644 0.5480
C5I C 0.6842(7) 0.8756(7) 0.634(5)
H4I H 0.6469 0.8687 0.6843
N5I N 0.7369(6) 0.7955(6) 0.952(5)
N6I N 0.7836(7) 0.7966(7) 1.059(5)
H5I H 0.8204 0.7801 1.0469
C6I C 0.7680(10) 0.8239(9) 1.177(7)
H6I H 0.7951 0.8324 1.2523
C7I C 0.7071(10) 0.8372(10) 1.172(7)
H7I H 0.6811 0.8512 1.2448
C8I C 0.6896(9) 0.8246(9) 1.023(7)
H8I H 0.6508 0.8355 0.9833
Fe1C Fe 0.5000 0.5000 0.5000
Fe1F Fe 0.5000 1.0000 0.5000
N1I N 0.8479(5) 0.7703(5) 0.780(4)
N1L N 0.1521(5) 0.7297(5) 0.780(4)
O1 O 0.3818(5) 0.8083(6) 1.057(4)
H9 H 0.393(9) 0.782(7) 1.132(10)
H10 H 0.407(5) 0.807(9) 0.978(8)
loop_
_geom_bond_atom_site_label_1
_geom_bond_atom_site_label_2
_geom_bond_site_symmetry_1
_geom_bond_site_symmetry_2
Nb1 C1 1_555 1_555
Fe1 N1 1_555 1_555
C1 N1 1_555 1_555
C2 Nb1 1_555 1_555
N2 C2 1_555 1_555
N3 Fe1 1_555 1_555
N4 N3 1_555 1_555
H1 N4 1_555 1_555
C3 N4 1_555 1_555
H2 C3 1_555 1_555
C4 C3 1_555 1_555
H3 C4 1_555 1_555
C5 N3 1_555 1_555
H4 C5 1_555 1_555
N5 Fe1 1_555 1_555
N6 N5 1_555 1_555
H5 N6 1_555 1_555
C6 N6 1_555 1_555
H6 C6 1_555 1_555
C7 C6 1_555 1_555
H7 C7 1_555 1_555
C8 N5 1_555 1_555
H8 C8 1_555 1_555
O1 H9 1_555 1_555
H10 O1 1_555 1_555
Fe1E N1E 1_555 1_555
C1E Nb1 1_555 1_555
N1E C1E 1_555 1_555
C2E Nb1 1_555 1_555
N2E C2E 1_555 1_555
N3E Fe1E 1_555 1_555
N4E N3E 1_555 1_555
H1E N4E 1_555 1_555
C3E N4E 1_555 1_555
H2E C3E 1_555 1_555
C4E C3E 1_555 1_555
H3E C4E 1_555 1_555
C5E N3E 1_555 1_555
H4E C5E 1_555 1_555
N5E Fe1E 1_555 1_555
N6E N5E 1_555 1_555
H5E N6E 1_555 1_555
C6E N6E 1_555 1_555
H6E C6E 1_555 1_555
C7E C6E 1_555 1_555
H7E C7E 1_555 1_555
C8E N5E 1_555 1_555
H8E C8E 1_555 1_555
C1K Nb1 1_555 1_555
N1K C1K 1_555 1_555
C2K Nb1 1_555 1_555
N2K C2K 1_555 1_555
C1N Nb1 1_555 1_555
N1N C1N 1_555 1_555
C2N Nb1 1_555 1_555
N2N C2N 1_555 1_555
N3L Fe1 1_555 1_555
N4L N3L 1_555 1_555
H1L N4L 1_555 1_555
C3L N4L 1_555 1_555
H2L C3L 1_555 1_555
C4L C3L 1_555 1_555
H3L C4L 1_555 1_555
C5L N3L 1_555 1_555
H4L C5L 1_555 1_555
N5L Fe1 1_555 1_555
N6L N5L 1_555 1_555
H5L N6L 1_555 1_555
C6L N6L 1_555 1_555
H6L C6L 1_555 1_555
C7L C6L 1_555 1_555
H7L C7L 1_555 1_555
C8L N5L 1_555 1_555
H8L C8L 1_555 1_555
N3I Fe1E 1_555 1_555
N4I N3I 1_555 1_555
H1I N4I 1_555 1_555
C3I N4I 1_555 1_555
H2I C3I 1_555 1_555
C4I C3I 1_555 1_555
H3I C4I 1_555 1_555
C5I N3I 1_555 1_555
H4I C5I 1_555 1_555
N5I Fe1E 1_555 1_555
N6I N5I 1_555 1_555
H5I N6I 1_555 1_555
C6I N6I 1_555 1_555
H6I C6I 1_555 1_555
C7I C6I 1_555 1_555
H7I C7I 1_555 1_555
C8I N5I 1_555 1_555
H8I C8I 1_555 1_555
Fe1C N1K 1_555 1_555
Fe1F N1N 1_555 1_555
N1I Fe1E 1_555 1_555
N1L Fe1 1_555 1_555
C4 C5 1_555 1_555
C7 C8 1_555 1_555
C4E C5E 1_555 1_555
C7E C8E 1_555 1_555
C4L C5L 1_555 1_555
C7L C8L 1_555 1_555
C4I C5I 1_555 1_555
C7I C8I 1_555 1_555

#END
