
#######################################################################
#
#                 Cambridge Crystallographic Data Centre
#                                CCDC 
#
#######################################################################
#
# If this CIF has been generated from an entry in the Cambridge 
# Structural Database, then it will include bibliographic, chemical, 
# crystal, experimental, refinement or atomic coordinate data resulting 
# from the CCDC's data processing and validation procedures.
#
#######################################################################

data_UJUNOD
_symmetry_cell_setting           triclinic
_symmetry_space_group_name_H-M   'P -1'
_symmetry_Int_Tables_number      2
_space_group_name_Hall           '-P 1'
loop_
_symmetry_equiv_pos_site_id
_symmetry_equiv_pos_as_xyz
1 x,y,z
2 -x,-y,-z
_cell_length_a                   9.5789(4)
_cell_length_b                   13.5173(5)
_cell_length_c                   14.4943(6)
_cell_angle_alpha                108.983(2)
_cell_angle_beta                 96.689(2)
_cell_angle_gamma                101.066(2)
_cell_volume                     1709
loop_
_atom_site_label
_atom_site_type_symbol
_atom_site_fract_x
_atom_site_fract_y
_atom_site_fract_z
Ni1 Ni -0.70816(5) -0.52651(4) 0.42287(4)
Ni2 Ni -0.31374(6) -0.52734(4) 0.06283(4)
Cl1 Cl 0.00296(12) -0.50510(11) -0.25108(8)
C1 C -0.5437(5) -0.4848(4) 0.1678(3)
H1 H -0.6097 -0.5314 0.1042
H2 H -0.5903 -0.4274 0.2020
C2 C -0.4558(5) -0.4818(4) 0.3416(3)
H3 H -0.4166 -0.5263 0.3755
H4 H -0.3740 -0.4234 0.3435
C3 C -0.6762(5) -0.6218(4) 0.2225(3)
H5 H -0.7489 -0.5837 0.2067
H6 H -0.6926 -0.6910 0.1663
C4 C -0.4149(5) -0.6232(4) 0.1986(3)
H7 H -0.3178 -0.5863 0.2408
H8 H -0.4470 -0.6926 0.2083
C5 C -0.5222(5) -0.5524(4) 0.2327(3)
C6 C -0.7764(5) -0.7805(4) 0.3827(3)
C7 C -0.8282(5) -0.7137(3) 0.4605(3)
C8 C -0.7284(5) -0.7436(4) 0.3062(3)
H9 H -0.7184 -0.7963 0.2468
C9 C -0.8780(6) -0.8609(4) 0.5215(4)
H10 H -0.9110 -0.8882 0.5698
C10 C -0.8796(5) -0.7559(4) 0.5309(3)
H11 H -0.9150 -0.7125 0.5844
C11 C -0.8295(6) -0.9272(4) 0.4435(4)
H12 H -0.8307 -0.9994 0.4379
C12 C -0.7796(6) -0.8874(4) 0.3742(4)
H13 H -0.7471 -0.9327 0.3202
C13 C -0.7198(5) -0.3130(4) 0.5351(3)
C14 C -0.5369(5) -0.3293(4) 0.4271(3)
H14 H -0.4586 -0.2913 0.4075
C15 C -0.6180(5) -0.2666(4) 0.4883(3)
C16 C -0.7885(5) -0.2444(4) 0.5999(4)
H15 H -0.8528 -0.2727 0.6354
C17 C -0.6650(6) -0.0914(4) 0.5649(4)
H16 H -0.6490 -0.0171 0.5739
C18 C -0.5913(6) -0.1551(4) 0.5052(4)
H17 H -0.5214 -0.1239 0.4748
C19 C -0.7630(6) -0.1364(4) 0.6122(4)
H18 H -0.8137 -0.0920 0.6538
C20 C -0.1633(5) -0.3137(4) 0.0902(3)
C21 C -0.3659(5) -0.3310(4) 0.1816(3)
H19 H -0.4232 -0.2936 0.2231
C22 C -0.2427(5) -0.2669(4) 0.1633(3)
C23 C -0.4365(5) -0.7446(4) 0.0358(3)
H20 H -0.4842 -0.7972 0.0594
C24 C -0.4058(5) -0.7818(4) -0.0626(3)
C25 C -0.0491(5) -0.2446(4) 0.0727(4)
H21 H 0.0022 -0.2731 0.0219
C26 C -0.3080(5) -0.7139(4) -0.0945(3)
C27 C -0.2024(6) -0.1550(4) 0.2156(4)
H22 H -0.2569 -0.1238 0.2630
C28 C -0.3440(6) -0.8637(5) -0.2500(4)
H23 H -0.3244 -0.8917 -0.3150
C29 C -0.2797(6) -0.7577(4) -0.1917(3)
H24 H -0.2163 -0.7139 -0.2166
C30 C -0.0097(6) -0.1350(4) 0.1286(4)
H25 H 0.0712 -0.0900 0.1180
C31 C -0.0873(6) -0.0902(4) 0.2000(4)
H26 H -0.0601 -0.0150 0.2376
C32 C -0.4362(6) -0.9302(5) -0.2164(4)
H27 H -0.4778 -1.0034 -0.2577
C33 C -0.4675(6) -0.8910(4) -0.1238(4)
H28 H -0.5305 -0.9368 -0.1005
O1 O -0.8328(3) -0.6131(2) 0.4703(2)
O2 O -0.2413(3) -0.6140(2) -0.0394(2)
O3 O -0.1933(3) -0.4168(2) 0.0392(2)
O4 O -0.7523(3) -0.4163(2) 0.5218(2)
N1 N -0.5608(4) -0.4336(3) 0.3957(2)
N2 N -0.4064(4) -0.4351(3) 0.1469(2)
N3 N -0.6980(4) -0.6444(3) 0.3128(3)
N4 N -0.4042(4) -0.6449(3) 0.0946(3)
Na1 Na 0.0000 -0.5000 0.0000
O5 O 0.0308(6) -0.4415(5) -0.3084(4)
O6 O 0.1108(5) -0.5651(4) -0.2519(3)
Na2 Na 1.0000 -0.5000 -0.5000
O7 O -0.0049(6) -0.4499(6) -0.1537(3)
O8 O -0.1412(6) -0.5754(5) -0.2958(4)
Ni1A Ni 0.70816(5) -0.47349(4) -0.42287(4)
Ni2A Ni 0.31374(6) -0.47266(4) -0.06283(4)
Cl1A Cl -0.00296(12) -0.49490(11) 0.25108(8)
C1A C 0.5437(5) -0.5152(4) -0.1678(3)
H1A H 0.6097 -0.4686 -0.1042
H2A H 0.5903 -0.5726 -0.2020
C2A C 0.4558(5) -0.5182(4) -0.3416(3)
H3A H 0.4166 -0.4737 -0.3755
H4A H 0.3740 -0.5766 -0.3435
C3A C 0.6762(5) -0.3782(4) -0.2225(3)
H5A H 0.7489 -0.4163 -0.2067
H6A H 0.6926 -0.3090 -0.1663
C4A C 0.4149(5) -0.3768(4) -0.1986(3)
H7A H 0.3178 -0.4137 -0.2408
H8A H 0.4470 -0.3074 -0.2083
C5A C 0.5222(5) -0.4476(4) -0.2327(3)
C6A C 0.7764(5) -0.2195(4) -0.3827(3)
C7A C 0.8282(5) -0.2863(3) -0.4605(3)
C8A C 0.7284(5) -0.2564(4) -0.3062(3)
H9A H 0.7184 -0.2037 -0.2468
C9A C 0.8780(6) -0.1391(4) -0.5215(4)
H10A H 0.9110 -0.1118 -0.5698
C10A C 0.8796(5) -0.2441(4) -0.5309(3)
H11A H 0.9150 -0.2875 -0.5844
C11A C 0.8295(6) -0.0728(4) -0.4435(4)
H12A H 0.8307 -0.0006 -0.4379
C12A C 0.7796(6) -0.1126(4) -0.3742(4)
H13A H 0.7471 -0.0673 -0.3202
C13A C 0.7198(5) -0.6870(4) -0.5351(3)
C14A C 0.5369(5) -0.6707(4) -0.4271(3)
H14A H 0.4586 -0.7087 -0.4075
C15A C 0.6180(5) -0.7334(4) -0.4883(3)
C16A C 0.7885(5) -0.7556(4) -0.5999(4)
H15A H 0.8528 -0.7273 -0.6354
C17A C 0.6650(6) -0.9086(4) -0.5649(4)
H16A H 0.6490 -0.9829 -0.5739
C18A C 0.5913(6) -0.8449(4) -0.5052(4)
H17A H 0.5214 -0.8761 -0.4748
C19A C 0.7630(6) -0.8636(4) -0.6122(4)
H18A H 0.8137 -0.9080 -0.6538
C20A C 0.1633(5) -0.6863(4) -0.0902(3)
C21A C 0.3659(5) -0.6690(4) -0.1816(3)
H19A H 0.4232 -0.7064 -0.2231
C22A C 0.2427(5) -0.7331(4) -0.1633(3)
C23A C 0.4365(5) -0.2554(4) -0.0358(3)
H20A H 0.4842 -0.2028 -0.0594
C24A C 0.4058(5) -0.2182(4) 0.0626(3)
C25A C 0.0491(5) -0.7554(4) -0.0727(4)
H21A H -0.0022 -0.7269 -0.0219
C26A C 0.3080(5) -0.2861(4) 0.0945(3)
C27A C 0.2024(6) -0.8450(4) -0.2156(4)
H22A H 0.2569 -0.8762 -0.2630
C28A C 0.3440(6) -0.1363(5) 0.2500(4)
H23A H 0.3244 -0.1083 0.3150
C29A C 0.2797(6) -0.2423(4) 0.1917(3)
H24A H 0.2163 -0.2861 0.2166
C30A C 0.0097(6) -0.8650(4) -0.1286(4)
H25A H -0.0712 -0.9100 -0.1180
C31A C 0.0873(6) -0.9098(4) -0.2000(4)
H26A H 0.0601 -0.9850 -0.2376
C32A C 0.4362(6) -0.0698(5) 0.2164(4)
H27A H 0.4778 0.0034 0.2577
C33A C 0.4675(6) -0.1090(4) 0.1238(4)
H28A H 0.5305 -0.0632 0.1005
O1A O 0.8328(3) -0.3869(2) -0.4703(2)
O1_2 O 1.1672(3) -0.6131(2) -0.5297(2)
O2A O 0.2413(3) -0.3860(2) 0.0394(2)
O3A O 0.1933(3) -0.5832(2) -0.0392(2)
O4A O 0.7523(3) -0.5837(2) -0.5218(2)
O4_2 O 1.2477(3) -0.4163(2) -0.4782(2)
N1A N 0.5608(4) -0.5664(3) -0.3957(2)
N2A N 0.4064(4) -0.5649(3) -0.1469(2)
N3A N 0.6980(4) -0.3556(3) -0.3128(3)
N4A N 0.4042(4) -0.3551(3) -0.0946(3)
O5A O -0.0308(6) -0.5585(5) 0.3084(4)
O5_2 O 1.0308(6) -0.4415(5) -0.3084(4)
O5A_2 O 0.9692(6) -0.5585(5) -0.6916(4)
O6A O -0.1108(5) -0.4349(4) 0.2519(3)
Na2_2 Na -1.0000 -0.5000 0.5000
Na2_3 Na 0.0000 -0.5000 0.5000
Na2_4 Na 0.0000 -0.5000 -0.5000
O7A O 0.0049(6) -0.5501(6) 0.1537(3)
O8A O 0.1412(6) -0.4246(5) 0.2958(4)
C34 C -0.8598(14) -0.1188(10) 0.8999(8)
H29 H -0.9419 -0.1602 0.9171
H30 H -0.7874 -0.1611 0.8854
H31 H -0.8939 -0.1027 0.8412
N5 N -0.7449(11) 0.0620(9) 1.0490(8)
C35 C -0.7952(11) -0.0188(10) 0.9826(9)
loop_
_geom_bond_atom_site_label_1
_geom_bond_atom_site_label_2
_geom_bond_site_symmetry_1
_geom_bond_site_symmetry_2
Ni1 O1 1_555 1_555
Ni2 O2 1_555 1_555
Cl1 O5 1_555 1_555
C1 H1 1_555 1_555
H2 C1 1_555 1_555
C2 H3 1_555 1_555
H4 C2 1_555 1_555
C3 H5 1_555 1_555
H6 C3 1_555 1_555
C4 H7 1_555 1_555
H8 C4 1_555 1_555
C5 C1 1_555 1_555
C6 C7 1_555 1_555
C7 C10 1_555 1_555
C8 C6 1_555 1_555
H9 C8 1_555 1_555
C9 H10 1_555 1_555
C10 C9 1_555 1_555
H11 C10 1_555 1_555
C11 C9 1_555 1_555
H12 C11 1_555 1_555
C12 C6 1_555 1_555
H13 C12 1_555 1_555
C13 C15 1_555 1_555
C14 H14 1_555 1_555
C15 C14 1_555 1_555
C16 C13 1_555 1_555
H15 C16 1_555 1_555
C17 H16 1_555 1_555
C18 C15 1_555 1_555
H17 C18 1_555 1_555
C19 C16 1_555 1_555
H18 C19 1_555 1_555
C20 C22 1_555 1_555
C21 H19 1_555 1_555
C22 C21 1_555 1_555
C23 H20 1_555 1_555
C24 C23 1_555 1_555
C25 C20 1_555 1_555
H21 C25 1_555 1_555
C26 C24 1_555 1_555
C27 C22 1_555 1_555
H22 C27 1_555 1_555
C28 H23 1_555 1_555
C29 C26 1_555 1_555
H24 C29 1_555 1_555
C30 C25 1_555 1_555
H25 C30 1_555 1_555
C31 C27 1_555 1_555
H26 C31 1_555 1_555
C32 C28 1_555 1_555
H27 C32 1_555 1_555
C33 C24 1_555 1_555
H28 C33 1_555 1_555
O1 C7 1_555 1_555
O2 C26 1_555 1_555
O3 Ni2 1_555 1_555
O4 Ni1 1_555 1_555
N1 Ni1 1_555 1_555
N2 Ni2 1_555 1_555
N3 Ni1 1_555 1_555
N4 Ni2 1_555 1_555
Na1 O2 1_555 1_555
O5 Na2_4 1_555 1_555
O6 Cl1 1_555 1_555
Na2 O1A 1_555 1_555
O7 Cl1 1_555 1_555
O8 Cl1 1_555 1_555
C34 H29 1_555 1_555
H30 C34 1_555 1_555
H31 C34 1_555 1_555
N5 C35 1_555 1_555
C35 C34 1_555 1_555
Ni1A O1A 1_555 1_555
Ni2A O2A 1_555 1_555
Cl1A O5A 1_555 1_555
C1A H1A 1_555 1_555
H2A C1A 1_555 1_555
C2A H3A 1_555 1_555
H4A C2A 1_555 1_555
C3A H5A 1_555 1_555
H6A C3A 1_555 1_555
C4A H7A 1_555 1_555
H8A C4A 1_555 1_555
C5A C1A 1_555 1_555
C6A C7A 1_555 1_555
C7A C10A 1_555 1_555
C8A C6A 1_555 1_555
H9A C8A 1_555 1_555
C9A H10A 1_555 1_555
C10A C9A 1_555 1_555
H11A C10A 1_555 1_555
C11A C9A 1_555 1_555
H12A C11A 1_555 1_555
C12A C6A 1_555 1_555
H13A C12A 1_555 1_555
C13A C15A 1_555 1_555
C14A H14A 1_555 1_555
C15A C14A 1_555 1_555
C16A C13A 1_555 1_555
H15A C16A 1_555 1_555
C17A H16A 1_555 1_555
C18A C15A 1_555 1_555
H17A C18A 1_555 1_555
C19A C16A 1_555 1_555
H18A C19A 1_555 1_555
C20A C22A 1_555 1_555
C21A H19A 1_555 1_555
C22A C21A 1_555 1_555
C23A H20A 1_555 1_555
C24A C23A 1_555 1_555
C25A C20A 1_555 1_555
H21A C25A 1_555 1_555
C26A C24A 1_555 1_555
C27A C22A 1_555 1_555
H22A C27A 1_555 1_555
C28A H23A 1_555 1_555
C29A C26A 1_555 1_555
H24A C29A 1_555 1_555
C30A C25A 1_555 1_555
H25A C30A 1_555 1_555
C31A C27A 1_555 1_555
H26A C31A 1_555 1_555
C32A C28A 1_555 1_555
H27A C32A 1_555 1_555
C33A C24A 1_555 1_555
H28A C33A 1_555 1_555
O1A C7A 1_555 1_555
O1_2 Na2 1_555 1_555
O2A Na1 1_555 1_555
O3A Na1 1_555 1_555
O4A Na2 1_555 1_555
O4_2 Na2 1_555 1_555
N1A Ni1A 1_555 1_555
N2A Ni2A 1_555 1_555
N3A Ni1A 1_555 1_555
N4A Ni2A 1_555 1_555
O5A Na2_3 1_555 1_555
O5_2 Na2 1_555 1_555
O5A_2 Na2 1_555 1_555
O6A Cl1A 1_555 1_555
Na2_2 O1 1_555 1_555
O7A Na1 1_555 1_555
O8A Cl1A 1_555 1_555
C1 N2 1_555 1_555
C2 C5 1_555 1_555
C2 N1 1_555 1_555
C3 C5 1_555 1_555
C3 N3 1_555 1_555
C4 C5 1_555 1_555
C4 N4 1_555 1_555
C8 N3 1_555 1_555
C11 C12 1_555 1_555
C13 O4 1_555 1_555
C14 N1 1_555 1_555
C17 C18 1_555 1_555
C17 C19 1_555 1_555
C20 O3 1_555 1_555
C21 N2 1_555 1_555
C23 N4 1_555 1_555
C28 C29 1_555 1_555
C30 C31 1_555 1_555
C32 C33 1_555 1_555
O3 Na1 1_555 1_555
O4 Na2_2 1_555 1_555
Na1 O7 1_555 1_555
Ni1A O4A 1_555 1_555
Ni2A O3A 1_555 1_555
Cl1A O7A 1_555 1_555
C1A N2A 1_555 1_555
C2A C5A 1_555 1_555
C2A N1A 1_555 1_555
C3A C5A 1_555 1_555
C3A N3A 1_555 1_555
C4A C5A 1_555 1_555
C4A N4A 1_555 1_555
C8A N3A 1_555 1_555
C11A C12A 1_555 1_555
C13A O4A 1_555 1_555
C14A N1A 1_555 1_555
C17A C18A 1_555 1_555
C17A C19A 1_555 1_555
C20A O3A 1_555 1_555
C21A N2A 1_555 1_555
C23A N4A 1_555 1_555
C26A O2A 1_555 1_555
C28A C29A 1_555 1_555
C30A C31A 1_555 1_555
C32A C33A 1_555 1_555

#END
