
#######################################################################
#
#                 Cambridge Crystallographic Data Centre
#                                CCDC 
#
#######################################################################
#
# If this CIF has been generated from an entry in the Cambridge 
# Structural Database, then it will include bibliographic, chemical, 
# crystal, experimental, refinement or atomic coordinate data resulting 
# from the CCDC's data processing and validation procedures.
#
#######################################################################

data_UKASOO
_symmetry_cell_setting           monoclinic
_symmetry_space_group_name_H-M   'C 2/c'
_symmetry_Int_Tables_number      15
_space_group_name_Hall           '-C 2yn'
loop_
_symmetry_equiv_pos_site_id
_symmetry_equiv_pos_as_xyz
1 x,y,z
2 1/2+x,1/2+y,z
3 x,-y,1/2+z
4 1/2+x,1/2-y,1/2+z
5 -x,-y,-z
6 1/2-x,1/2-y,-z
7 -x,y,1/2-z
8 1/2-x,1/2+y,1/2-z
_cell_length_a                   37.704(2)
_cell_length_b                   7.9790(10)
_cell_length_c                   24.713(2)
_cell_angle_alpha                90
_cell_angle_beta                 101.840(10)
_cell_angle_gamma                90
_cell_volume                     7276.49
loop_
_atom_site_label
_atom_site_type_symbol
_atom_site_fract_x
_atom_site_fract_y
_atom_site_fract_z
Ag1 Ag 0.124374(14) 0.28324(7) 0.13928(2)
Ag2 Ag 0.147790(14) 1.04579(7) 0.35780(2)
C1 C 0.19395(17) 0.0998(9) 0.1958(2)
H1 H 0.2132 0.0200 0.1950
H2 H 0.1862 0.0865 0.2306
C2 C 0.20796(16) 0.2771(9) 0.1915(3)
H3 H 0.2279 0.2997 0.2222
H4 H 0.2166 0.2901 0.1573
C3 C 0.04306(16) 0.3463(8) 0.0953(3)
H5 H 0.0193 0.3884 0.0978
H6 H 0.0400 0.2348 0.0793
C4 C 0.05931(17) 0.4579(9) 0.0588(2)
H7 H 0.0436 0.4627 0.0225
H8 H 0.0616 0.5704 0.0740
C5 C 0.16560(17) -0.0549(9) 0.1184(3)
H9 H 0.1867 -0.1186 0.1258
C6 C 0.13769(18) -0.1044(9) 0.0708(3)
C7 C 0.14748(19) -0.2025(9) 0.0298(3)
H10 H 0.1715 -0.2376 0.0350
N1 N 0.1250(2) -0.2497(8) -0.0162(3)
C8 C 0.0913(2) -0.2005(11) -0.0211(3)
H11 H 0.0750 -0.2324 -0.0530
C9 C 0.10230(19) -0.0604(8) 0.0635(3)
H12 H 0.0943 0.0017 0.0905
C10 C 0.18425(18) 0.5172(9) 0.2249(3)
H13 H 0.2073 0.5294 0.2469
C11 C 0.15673(19) 0.6407(9) 0.2293(3)
C12 C 0.1266(2) 0.6645(9) 0.1884(3)
H14 H 0.1243 0.6090 0.1548
C13 C 0.1055(2) 0.8581(9) 0.2459(3)
H15 H 0.0871 0.9298 0.2516
N2 N 0.13520(19) 0.8468(8) 0.2852(3)
C14 C 0.1603(2) 0.7400(10) 0.2756(3)
H16 H 0.1817 0.7318 0.3020
C15 C 0.05265(17) 0.3857(8) 0.1899(3)
H17 H 0.0289 0.4246 0.1818
C16 C 0.07153(17) 0.3860(8) 0.2481(2)
C17 C 0.06073(17) 0.4922(8) 0.2848(3)
H18 H 0.0410 0.5629 0.2731
C18 C 0.0788(2) 0.4949(9) 0.3388(3)
H19 H 0.0721 0.5695 0.3638
C19 C 0.1066(2) 0.3871(10) 0.3549(3)
H20 H 0.1191 0.3914 0.3915
C20 C 0.10060(17) 0.2845(8) 0.2685(3)
H21 H 0.1094 0.2173 0.2435
C21 C 0.09964(18) 0.3620(8) 0.0055(3)
H22 H 0.0804 0.3805 -0.0240
C22 C 0.13008(18) 0.1918(9) -0.0528(3)
H23 H 0.1071 0.1740 -0.0744
C23 C 0.13329(18) 0.2957(8) -0.0066(3)
C24 C 0.1666(2) 0.3268(8) 0.0248(3)
H24 H 0.1694 0.3945 0.0560
C25 C 0.19623(19) 0.2560(10) 0.0094(3)
H25 H 0.2195 0.2778 0.0292
C26 C 0.19073(19) 0.1508(9) -0.0365(3)
H26 H 0.2109 0.1017 -0.0461
C27 C 0.2276(3) 1.3290(13) 0.4031(5)
F1 F 0.25253(14) 1.4292(7) 0.4246(2)
F2 F 0.20963(17) 1.2854(8) 0.4397(2)
F3 F 0.20348(19) 1.4224(8) 0.3692(3)
N3 N 0.16349(14) 0.0662(7) 0.1500(2)
N4 N 0.17803(14) 0.3942(8) 0.1926(2)
N5 N 0.06607(13) 0.3374(6) 0.1506(2)
N6 N 0.09507(14) 0.3960(7) 0.0538(2)
C29 C 0.07810(19) -0.1075(9) 0.0161(3)
H27 H 0.0538 -0.0767 0.0100
C30 C 0.1004(2) 0.7699(10) 0.1977(3)
H28 H 0.0791 0.7822 0.1713
N7 N 0.11720(14) 0.2748(7) 0.3215(2)
N8 N 0.15840(16) 0.1164(7) -0.0675(2)
O1 O 0.21120(13) 1.0612(7) 0.3473(2)
O2 O 0.26804(16) 1.0804(8) 0.4066(2)
O3 O 0.25651(15) 1.2384(7) 0.3249(2)
S1 S 0.24200(6) 1.1592(3) 0.36583(9)
N7_2 N 0.11720(14) 1.2748(7) 0.3215(2)
N8B N 0.15840(16) 0.8836(7) 0.4325(2)
Ag2_2 Ag 0.147790(14) 0.04579(7) 0.35780(2)
Ag2B Ag 0.147790(14) -0.04579(7) -0.14220(2)
C28 C 0.9836(3) 0.993(2) 0.1604(5)
F4 F 1.0112(2) 1.0434(9) 0.1947(3)
F5 F 0.9564(2) 0.9577(11) 0.1797(3)
F6 F 0.9755(2) 1.1286(10) 0.1297(4)
O4 O 0.96254(18) 0.7944(9) 0.0836(3)
O5 O 1.02321(18) 0.8837(11) 0.1002(3)
O6 O 1.00378(19) 0.7109(9) 0.1628(4)
S2 S 0.99384(7) 0.8295(4) 0.11720(12)
loop_
_geom_bond_atom_site_label_1
_geom_bond_atom_site_label_2
_geom_bond_site_symmetry_1
_geom_bond_site_symmetry_2
Ag1 N3 1_555 1_555
Ag2 N2 1_555 1_555
C1 H1 1_555 1_555
H2 C1 1_555 1_555
C2 C1 1_555 1_555
H3 C2 1_555 1_555
H4 C2 1_555 1_555
C3 H5 1_555 1_555
H6 C3 1_555 1_555
C4 C3 1_555 1_555
H7 C4 1_555 1_555
H8 C4 1_555 1_555
C5 H9 1_555 1_555
C6 C5 1_555 1_555
C7 C6 1_555 1_555
H10 C7 1_555 1_555
N1 C7 1_555 1_555
C8 N1 1_555 1_555
H11 C8 1_555 1_555
C9 C6 1_555 1_555
H12 C9 1_555 1_555
C10 H13 1_555 1_555
C11 C10 1_555 1_555
C12 C11 1_555 1_555
H14 C12 1_555 1_555
C13 H15 1_555 1_555
N2 C13 1_555 1_555
C14 C11 1_555 1_555
H16 C14 1_555 1_555
C15 H17 1_555 1_555
C16 C15 1_555 1_555
C17 C16 1_555 1_555
H18 C17 1_555 1_555
C18 C17 1_555 1_555
H19 C18 1_555 1_555
C19 C18 1_555 1_555
H20 C19 1_555 1_555
C20 C16 1_555 1_555
H21 C20 1_555 1_555
C21 H22 1_555 1_555
C22 H23 1_555 1_555
C23 C21 1_555 1_555
C24 C23 1_555 1_555
H24 C24 1_555 1_555
C25 C24 1_555 1_555
H25 C25 1_555 1_555
C26 C25 1_555 1_555
H26 C26 1_555 1_555
C27 F1 1_555 1_555
C28 F4 1_555 1_555
F2 C27 1_555 1_555
F3 C27 1_555 1_555
F5 C28 1_555 1_555
F6 C28 1_555 1_555
N3 C1 1_555 1_555
N4 Ag1 1_555 1_555
N5 Ag1 1_555 1_555
N6 Ag1 1_555 1_555
C29 C8 1_555 1_555
H27 C29 1_555 1_555
C30 C12 1_555 1_555
H28 C30 1_555 1_555
N7 C19 1_555 1_555
N8 C22 1_555 1_555
O1 Ag2 1_555 1_555
O2 S1 1_555 1_555
O3 S1 1_555 1_555
O4 S2 1_555 1_555
O5 S2 1_555 1_555
O6 S2 1_555 1_555
S1 C27 1_555 1_555
S2 C28 1_555 1_555
N7_2 Ag2 1_555 1_555
N8B Ag2 1_555 1_555
Ag2_2 N7 1_555 1_555
Ag2B N8 1_555 1_555
C2 N4 1_555 1_555
C3 N5 1_555 1_555
C4 N6 1_555 1_555
C5 N3 1_555 1_555
C9 C29 1_555 1_555
C10 N4 1_555 1_555
C13 C30 1_555 1_555
N2 C14 1_555 1_555
C15 N5 1_555 1_555
C20 N7 1_555 1_555
C21 N6 1_555 1_555
C22 C23 1_555 1_555
C26 N8 1_555 1_555
O1 S1 1_555 1_555

#END
