
#######################################################################
#
#                 Cambridge Crystallographic Data Centre
#                                CCDC 
#
#######################################################################
#
# If this CIF has been generated from an entry in the Cambridge 
# Structural Database, then it will include bibliographic, chemical, 
# crystal, experimental, refinement or atomic coordinate data resulting 
# from the CCDC's data processing and validation procedures.
#
#######################################################################

data_UKAVUX
_symmetry_cell_setting           triclinic
_symmetry_space_group_name_H-M   'P -1'
_symmetry_Int_Tables_number      2
_space_group_name_Hall           '-P 1'
loop_
_symmetry_equiv_pos_site_id
_symmetry_equiv_pos_as_xyz
1 x,y,z
2 -x,-y,-z
_cell_length_a                   12.892(1)
_cell_length_b                   15.965(1)
_cell_length_c                   17.471(1)
_cell_angle_alpha                72.90(3)
_cell_angle_beta                 81.44(3)
_cell_angle_gamma                77.17(3)
_cell_volume                     3337.63
loop_
_atom_site_label
_atom_site_type_symbol
_atom_site_fract_x
_atom_site_fract_y
_atom_site_fract_z
Gd1 Gd 0.33668(5) 0.73663(4) 0.20480(4)
Cu1 Cu 0.67860(13) 0.51812(10) 0.05960(10)
Cu2 Cu 0.26068(14) 1.02294(11) 0.35238(10)
Cu3 Cu 0.08494(14) 0.89542(11) -0.06783(11)
Cr1 Cr 0.93860(17) 0.28913(13) 0.25942(12)
Cu4 Cu 0.29177(18) 0.54615(14) 0.53622(11)
O1 O 0.5226(6) 0.7191(5) 0.1495(5)
O2 O 0.2615(8) 0.6231(6) 0.2991(5)
O3 O 0.4210(7) 0.6892(6) 0.3296(6)
O4 O 0.3933(7) 0.6022(6) 0.1638(5)
O5 O 0.3346(7) 0.8151(6) 0.0627(5)
O6 O 0.1675(7) 0.7630(6) 0.1550(5)
O7 O 0.2196(7) 0.8087(6) 0.2987(5)
O8 O 0.3734(7) 0.8784(6) 0.1967(5)
N1 N 0.2289(9) 0.8804(7) -0.0460(6)
C1 C 0.5556(10) 0.6531(8) 0.1173(7)
C2 C 0.8530(12) 0.4104(10) 0.1970(8)
N2 N 0.6450(9) 0.6402(7) 0.0728(6)
N3 N 0.7981(9) 0.5407(7) -0.0284(7)
H1 H 0.7664 0.5670 -0.0750
N4 N 0.1216(12) 0.6413(8) 0.5826(8)
N5 N 0.0493(8) 0.7733(7) -0.0980(7)
N6 N 0.3345(9) 0.9975(7) 0.2525(6)
N7 N 0.5367(8) 0.5098(7) 0.1162(6)
C3 C 0.2484(11) 0.8383(8) 0.0294(9)
C4 C 0.0923(11) 0.6703(8) 0.6364(8)
N8 N 0.2451(10) 0.5471(9) 0.4344(7)
C5 C 0.1538(11) 0.8120(9) 0.0827(9)
N9 N 0.2297(10) 1.0285(8) 0.4679(7)
H2 H 0.2907 1.0000 0.4919
N10 N 0.0617(8) 0.8415(7) 0.0476(6)
N11 N 0.2925(9) 1.1455(8) 0.3278(8)
H3 H 0.2336 1.1838 0.3069
N12 N 0.2232(9) 0.9085(6) 0.3713(6)
N13 N 0.1097(11) 0.9540(8) -0.1881(7)
H4 H 0.1079 0.9105 -0.2117
N14 N 0.7111(10) 0.3925(7) 0.0478(7)
H5 H 0.7528 0.3607 0.0883
N15 N 0.8029(10) 0.4698(8) 0.1597(7)
C6 C 0.0457(10) 0.7470(8) -0.1529(8)
C7 C 0.3707(12) 0.6422(10) 0.3907(9)
N16 N 0.3790(10) 0.6246(8) 0.4688(8)
C8 C 0.2851(11) 0.6016(9) 0.3691(9)
C9 C 0.4882(10) 0.5848(8) 0.1336(7)
C10 C 0.2514(11) 0.8720(9) 0.3126(8)
N17 N 0.7237(11) 0.2072(10) 0.3045(9)
C11 C 0.0250(11) 1.1623(9) 0.3086(8)
C12 C -0.0352(11) 0.8137(9) 0.0879(10)
H6 H -0.0329 0.8001 0.1455
H7 H -0.0419 0.7599 0.0754
C13 C 0.7977(13) 0.2361(10) 0.2896(9)
C14 C 0.150(2) 0.4203(14) 0.5728(12)
H8 H 0.0900 0.4655 0.5831
H9 H 0.1355 0.3632 0.6065
C15 C 0.3261(10) 0.9210(9) 0.2483(8)
C16 C 1.0808(13) 0.3317(10) 0.2327(9)
C17 C 0.4015(13) 1.0482(10) 0.1933(9)
H10 H 0.3934 1.0425 0.1409
H11 H 0.4754 1.0245 0.2045
C18 C 0.3203(11) 0.9101(9) -0.1025(7)
H12 H 0.3858 0.8687 -0.0868
H13 H 0.3271 0.9684 -0.0997
C19 C -0.1513(11) 0.9154(10) -0.0256(11)
H14 H -0.1549 0.8633 -0.0422
H15 H -0.2197 0.9557 -0.0328
N18 N -0.0680(10) 0.9598(8) -0.0773(8)
H16 H -0.0721 1.0107 -0.0626
C20 C 0.7822(12) 0.3912(10) -0.0259(10)
H17 H 0.7407 0.4106 -0.0720
H18 H 0.8212 0.3310 -0.0226
C21 C -0.0853(15) 0.9890(10) -0.1622(10)
H19 H -0.1473 1.0368 -0.1712
H20 H -0.0990 0.9398 -0.1787
C22 C 0.3387(15) 0.4508(14) 0.6985(11)
H21 H 0.4013 0.4074 0.6888
H22 H 0.3355 0.4542 0.7534
N19 N 0.2427(14) 0.4360(10) 0.5992(8)
H23 H 0.2961 0.3918 0.5887
C23 C 0.6263(13) 0.3447(10) 0.0586(10)
H24 H 0.6564 0.2826 0.0615
H25 H 0.5850 0.3688 0.0123
C24 C -0.1325(12) 0.8870(10) 0.0618(10)
H26 H -0.1957 0.8667 0.0925
H27 H -0.1255 0.9393 0.0768
C25 C 0.1628(13) 0.8857(10) 0.5153(9)
H28 H 0.1128 0.8568 0.5562
H29 H 0.2343 0.8568 0.5301
C26 C 0.1492(12) 0.8713(9) 0.4355(8)
H30 H 0.1587 0.8078 0.4415
H31 H 0.0769 0.8983 0.4215
C27 C 0.7196(11) 0.6987(9) 0.0542(8)
H32 H 0.7609 0.6857 0.0999
H33 H 0.6809 0.7598 0.0453
C28 C 0.8604(11) 0.6014(9) -0.0207(9)
H34 H 0.9163 0.6077 -0.0647
H35 H 0.8946 0.5764 0.0291
C29 C 0.7968(13) 0.6902(10) -0.0210(9)
H36 H 0.7552 0.7106 -0.0671
H37 H 0.8458 0.7308 -0.0291
C30 C 0.1459(13) 0.9820(10) 0.5152(8)
H38 H 0.0780 1.0127 0.4941
H39 H 0.1415 0.9851 0.5702
C31 C 0.2178(13) 1.1202(10) 0.4671(9)
H40 H 0.2264 1.1238 0.5202
H41 H 0.1467 1.1517 0.4534
C32 C 0.0135(14) 1.0220(10) -0.2123(10)
H42 H 0.0068 1.0320 -0.2691
H43 H 0.0194 1.0779 -0.2036
N20 N 0.3438(12) 0.5411(11) 0.6400(8)
H44 H 0.2934 0.5802 0.6610
C33 C 0.3749(13) 1.1468(9) 0.1917(9)
H45 H 0.4224 1.1781 0.1502
H46 H 0.3026 1.1708 0.1766
C34 C 0.2110(14) 0.9822(12) -0.2208(10)
H47 H 0.2109 1.0381 -0.2094
H48 H 0.2180 0.9925 -0.2787
C35 C 0.8582(12) 0.4520(9) -0.0349(8)
H49 H 0.9073 0.4272 0.0066
H50 H 0.8995 0.4581 -0.0868
C36 C 0.3012(13) 1.1642(11) 0.4059(10)
H51 H 0.2871 1.2280 0.3997
H52 H 0.3723 1.1393 0.4233
N21 N 1.1627(13) 0.3514(10) 0.2223(10)
C37 C 0.1596(17) 0.5062(13) 0.4272(11)
H53 H 0.1690 0.4956 0.3745
H54 H 0.0926 0.5476 0.4307
N22 N 0.0793(10) 1.0928(8) 0.3311(7)
C38 C 0.3834(12) 1.1660(10) 0.2682(10)
H55 H 0.4492 1.1310 0.2903
H56 H 0.3865 1.2286 0.2576
C39 C 0.5505(13) 0.3503(9) 0.1364(9)
H57 H 0.5074 0.3046 0.1486
H58 H 0.5939 0.3371 0.1809
C40 C 0.3047(14) 0.9149(11) -0.1867(8)
H59 H 0.2965 0.8565 -0.1884
H60 H 0.3687 0.9286 -0.2208
C41 C 0.4394(19) 0.5707(16) 0.6347(12)
H61 H 0.4971 0.5266 0.6194
H62 H 0.4502 0.5723 0.6880
C42 C 0.4495(15) 0.6601(16) 0.5777(12)
H63 H 0.5119 0.6774 0.5889
H64 H 0.3876 0.7033 0.5891
C43 C 0.2455(18) 0.4261(13) 0.6860(10)
H65 H 0.1830 0.4636 0.7050
H66 H 0.2444 0.3647 0.7162
C44 C 0.4588(13) 0.6661(13) 0.4889(11)
H67 H 0.4496 0.7284 0.4584
H68 H 0.5298 0.6368 0.4734
C45 C 0.1523(17) 0.4195(13) 0.4900(12)
H69 H 0.0881 0.4006 0.4841
H70 H 0.2127 0.3749 0.4790
C46 C 0.4774(11) 0.4391(9) 0.1310(9)
H71 H 0.4319 0.4519 0.0878
H72 H 0.4319 0.4363 0.1808
C4A C 0.9077(11) 0.3297(8) 0.3636(8)
C6A C 0.9543(10) 0.2530(8) 0.1529(8)
C11_2 C 1.0250(11) 0.1623(9) 0.3086(8)
Cr1A Cr 0.06140(17) 0.71087(13) 0.74058(12)
Cr1A_2 Cr 0.06140(17) 0.71087(13) -0.25942(12)
Cr1_2 Cr -0.06140(17) 1.28913(13) 0.25942(12)
O9 O 0.5126(16) -0.0661(12) 0.4197(11)
O10 O 0.5961(10) 0.0845(8) 0.4173(8)
O11 O 0.6120(13) 0.8515(14) 0.1747(19)
O12 O 0.4252(18) 0.1980(16) 0.6744(15)
O13 O 0.0186(14) 0.7483(11) 0.3248(14)
O14 O 0.519(2) 0.9195(16) 0.0301(17)
O15 O 0.306(2) 0.418(2) 0.301(2)
loop_
_geom_bond_atom_site_label_1
_geom_bond_atom_site_label_2
_geom_bond_site_symmetry_1
_geom_bond_site_symmetry_2
Gd1 O1 1_555 1_555
Cu1 N2 1_555 1_555
Cu2 N6 1_555 1_555
Cu3 N1 1_555 1_555
Cr1 C2 1_555 1_555
Cu4 N4 1_555 1_555
O1 C1 1_555 1_555
O2 Gd1 1_555 1_555
O3 Gd1 1_555 1_555
O4 Gd1 1_555 1_555
O5 Gd1 1_555 1_555
O6 Gd1 1_555 1_555
O7 Gd1 1_555 1_555
O8 Gd1 1_555 1_555
N1 C3 1_555 1_555
C1 N2 1_555 1_555
C2 N15 1_555 1_555
N2 C27 1_555 1_555
N3 Cu1 1_555 1_555
H1 N3 1_555 1_555
N4 C4 1_555 1_555
N5 Cu3 1_555 1_555
N6 C15 1_555 1_555
N7 Cu1 1_555 1_555
C3 O5 1_555 1_555
C4 Cr1A 1_555 1_555
N8 Cu4 1_555 1_555
C5 O6 1_555 1_555
N9 Cu2 1_555 1_555
H2 N9 1_555 1_555
N10 Cu3 1_555 1_555
N11 Cu2 1_555 1_555
H3 N11 1_555 1_555
N12 Cu2 1_555 1_555
N13 Cu3 1_555 1_555
H4 N13 1_555 1_555
N14 Cu1 1_555 1_555
H5 N14 1_555 1_555
N15 Cu1 1_555 1_555
C6 N5 1_555 1_555
C7 O3 1_555 1_555
N16 Cu4 1_555 1_555
C8 O2 1_555 1_555
C9 O4 1_555 1_555
C10 O7 1_555 1_555
N17 C13 1_555 1_555
C11 N22 1_555 1_555
C12 N10 1_555 1_555
H6 C12 1_555 1_555
H7 C12 1_555 1_555
C13 Cr1 1_555 1_555
C14 H8 1_555 1_555
H9 C14 1_555 1_555
C15 O8 1_555 1_555
C16 Cr1 1_555 1_555
C17 N6 1_555 1_555
H10 C17 1_555 1_555
H11 C17 1_555 1_555
C18 N1 1_555 1_555
H12 C18 1_555 1_555
H13 C18 1_555 1_555
C19 H14 1_555 1_555
H15 C19 1_555 1_555
N18 Cu3 1_555 1_555
H16 N18 1_555 1_555
C20 N14 1_555 1_555
H17 C20 1_555 1_555
H18 C20 1_555 1_555
C21 N18 1_555 1_555
H19 C21 1_555 1_555
H20 C21 1_555 1_555
C22 H21 1_555 1_555
H22 C22 1_555 1_555
N19 Cu4 1_555 1_555
H23 N19 1_555 1_555
C23 N14 1_555 1_555
H24 C23 1_555 1_555
H25 C23 1_555 1_555
C24 C12 1_555 1_555
H26 C24 1_555 1_555
H27 C24 1_555 1_555
C25 H28 1_555 1_555
H29 C25 1_555 1_555
C26 N12 1_555 1_555
H30 C26 1_555 1_555
H31 C26 1_555 1_555
C27 H32 1_555 1_555
H33 C27 1_555 1_555
C28 N3 1_555 1_555
H34 C28 1_555 1_555
H35 C28 1_555 1_555
C29 C27 1_555 1_555
H36 C29 1_555 1_555
H37 C29 1_555 1_555
C30 N9 1_555 1_555
H38 C30 1_555 1_555
H39 C30 1_555 1_555
C31 N9 1_555 1_555
H40 C31 1_555 1_555
H41 C31 1_555 1_555
C32 N13 1_555 1_555
H42 C32 1_555 1_555
H43 C32 1_555 1_555
N20 Cu4 1_555 1_555
H44 N20 1_555 1_555
C33 C17 1_555 1_555
H45 C33 1_555 1_555
H46 C33 1_555 1_555
C34 N13 1_555 1_555
H47 C34 1_555 1_555
H48 C34 1_555 1_555
C35 N3 1_555 1_555
H49 C35 1_555 1_555
H50 C35 1_555 1_555
C36 N11 1_555 1_555
H51 C36 1_555 1_555
H52 C36 1_555 1_555
N21 C16 1_555 1_555
C37 N8 1_555 1_555
H53 C37 1_555 1_555
H54 C37 1_555 1_555
N22 Cu2 1_555 1_555
C38 N11 1_555 1_555
H55 C38 1_555 1_555
H56 C38 1_555 1_555
C39 C23 1_555 1_555
H57 C39 1_555 1_555
H58 C39 1_555 1_555
C40 C18 1_555 1_555
H59 C40 1_555 1_555
H60 C40 1_555 1_555
C41 N20 1_555 1_555
H61 C41 1_555 1_555
H62 C41 1_555 1_555
C42 C41 1_555 1_555
H63 C42 1_555 1_555
H64 C42 1_555 1_555
C43 C22 1_555 1_555
H65 C43 1_555 1_555
H66 C43 1_555 1_555
C44 N16 1_555 1_555
H67 C44 1_555 1_555
H68 C44 1_555 1_555
C45 C14 1_555 1_555
H69 C45 1_555 1_555
H70 C45 1_555 1_555
C46 N7 1_555 1_555
H71 C46 1_555 1_555
H72 C46 1_555 1_555
C4A Cr1 1_555 1_555
C6A Cr1 1_555 1_555
C11_2 Cr1 1_555 1_555
Cr1A_2 C6 1_555 1_555
Cr1_2 C11 1_555 1_555
C1 C9 1_555 1_555
N7 C9 1_555 1_555
C3 C5 1_555 1_555
N8 C8 1_555 1_555
C5 N10 1_555 1_555
N12 C10 1_555 1_555
C7 N16 1_555 1_555
C7 C8 1_555 1_555
C10 C15 1_555 1_555
C14 N19 1_555 1_555
C19 N18 1_555 1_555
C19 C24 1_555 1_555
C20 C35 1_555 1_555
C21 C32 1_555 1_555
C22 N20 1_555 1_555
N19 C43 1_555 1_555
C25 C26 1_555 1_555
C25 C30 1_555 1_555
C28 C29 1_555 1_555
C31 C36 1_555 1_555
C33 C38 1_555 1_555
C34 C40 1_555 1_555
C37 C45 1_555 1_555
C39 C46 1_555 1_555
C42 C44 1_555 1_555

#END
