
#######################################################################
#
#                 Cambridge Crystallographic Data Centre
#                                CCDC 
#
#######################################################################
#
# If this CIF has been generated from an entry in the Cambridge 
# Structural Database, then it will include bibliographic, chemical, 
# crystal, experimental, refinement or atomic coordinate data resulting 
# from the CCDC's data processing and validation procedures.
#
#######################################################################

data_UKAYIO
_symmetry_cell_setting           orthorhombic
_symmetry_space_group_name_H-M   'P c c n'
_symmetry_Int_Tables_number      56
_space_group_name_Hall           '-P 2ab 2ac'
loop_
_symmetry_equiv_pos_site_id
_symmetry_equiv_pos_as_xyz
1 x,y,z
2 1/2+x,1/2+y,-z
3 x,1/2-y,1/2+z
4 1/2-x,y,1/2+z
5 -x,-y,-z
6 1/2-x,1/2-y,z
7 -x,1/2+y,1/2-z
8 1/2+x,-y,1/2-z
_cell_length_a                   20.949(3)
_cell_length_b                   17.470(3)
_cell_length_c                   20.345(3)
_cell_angle_alpha                90
_cell_angle_beta                 90
_cell_angle_gamma                90
_cell_volume                     7445.84
loop_
_atom_site_label
_atom_site_type_symbol
_atom_site_fract_x
_atom_site_fract_y
_atom_site_fract_z
Sn1 Sn 0.58346(4) 0.34504(5) 0.16440(4)
Sn2 Sn 0.58117(4) 0.09203(5) 0.32726(4)
O1 O 0.6112(4) 0.2520(5) 0.2419(4)
O2 O 0.6621(4) 0.1671(5) 0.3018(5)
O3 O 0.5566(4) 0.4235(5) 0.0845(4)
O4 O 0.4969(4) 0.5012(5) 0.1432(4)
C1 C 0.6597(7) 0.2289(8) 0.2689(7)
C2 C 0.7212(5) 0.2751(6) 0.2676(6)
C3 C 0.5202(7) 0.4811(7) 0.0904(7)
C4 C 0.5080(7) 0.5252(7) 0.0259(6)
C5 C 0.6215(8) 0.4338(8) 0.2283(8)
C6 C 0.6757(14) 0.4792(13) 0.1831(14)
C7 C 0.6978(17) 0.533(3) 0.2242(19)
C8 C 0.7462(19) 0.581(2) 0.188(2)
C9 C 0.4880(8) 0.3081(11) 0.1869(10)
C10 C 0.4509(11) 0.2828(14) 0.1254(15)
C11 C 0.3856(16) 0.257(2) 0.152(2)
C12 C 0.352(2) 0.235(3) 0.105(3)
C13 C 0.6454(8) 0.2896(10) 0.0954(8)
C14 C 0.6124(11) 0.2406(15) 0.0495(10)
C15 C 0.6652(19) 0.197(2) 0.0099(17)
C16 C 0.6355(18) 0.171(2) -0.0402(16)
C17 C 0.5276(7) 0.1848(8) 0.3680(8)
C18 C 0.4554(9) 0.1791(10) 0.3562(10)
C19 C 0.4298(11) 0.250(2) 0.394(2)
C20 C 0.370(2) 0.251(2) 0.388(3)
C21 C 0.5552(19) 0.0648(17) 0.2275(14)
C22 C 0.575(3) 0.021(3) 0.202(2)
C23 C 0.566(4) -0.005(4) 0.116(5)
C24 C 0.503(4) 0.021(4) 0.107(3)
C25 C 0.6483(12) 0.0116(14) 0.3726(14)
C26 C 0.6785(16) 0.0480(13) 0.4106(15)
C27 C 0.745(3) -0.011(3) 0.443(2)
C28 C 0.7231(17) -0.043(3) 0.478(2)
C2E C 0.7788(5) 0.2249(6) 0.2676(6)
C1E C 0.8403(7) 0.2711(8) 0.2689(7)
O1E O 0.8888(4) 0.2480(5) 0.2419(4)
O2E O 0.8379(4) 0.3329(5) 0.3018(5)
C4D C 0.4920(7) 0.4748(7) -0.0259(6)
C3D C 0.4798(7) 0.5189(7) -0.0904(7)
O3D O 0.4434(4) 0.5765(5) -0.0845(4)
O4D O 0.5031(4) 0.4988(5) -0.1432(4)
Sn1E Sn 0.91654(4) 0.15496(5) 0.16440(4)
Sn2E Sn 0.91883(4) 0.40797(5) 0.32726(4)
C5E C 0.8785(8) 0.0662(8) 0.2283(8)
C6E C 0.8243(14) 0.0208(13) 0.1831(14)
C7E C 0.8022(17) -0.033(3) 0.2242(19)
C8E C 0.7538(19) -0.081(2) 0.188(2)
C9E C 1.0120(8) 0.1919(11) 0.1869(10)
C10E C 1.0491(11) 0.2172(14) 0.1254(15)
C11E C 1.1144(16) 0.243(2) 0.152(2)
C12E C 1.148(2) 0.265(3) 0.105(3)
C13E C 0.8546(8) 0.2104(10) 0.0954(8)
C14E C 0.8876(11) 0.2594(15) 0.0495(10)
C15E C 0.8348(19) 0.303(2) 0.0099(17)
C16E C 0.8645(18) 0.329(2) -0.0402(16)
C17E C 0.9724(7) 0.3152(8) 0.3680(8)
C18E C 1.0446(9) 0.3209(10) 0.3562(10)
C19E C 1.0702(11) 0.250(2) 0.394(2)
C20E C 1.130(2) 0.249(2) 0.388(3)
C21E C 0.9448(19) 0.4352(17) 0.2275(14)
C22E C 0.925(3) 0.479(3) 0.202(2)
C23E C 0.934(4) 0.505(4) 0.116(5)
C24E C 0.997(4) 0.479(4) 0.107(3)
C25E C 0.8517(12) 0.4884(14) 0.3726(14)
C26E C 0.8215(16) 0.4520(13) 0.4106(15)
C27E C 0.755(3) 0.511(3) 0.443(2)
C28E C 0.7769(17) 0.543(3) 0.478(2)
O4F O 0.5031(4) 0.0012(5) 0.3568(4)
Sn2F Sn 0.41883(4) 0.59203(5) 0.17274(4)
Sn1D Sn 0.41654(4) 0.65496(5) -0.16440(4)
Sn2B Sn 0.58117(4) 0.40797(5) -0.17274(4)
O3E O 0.9434(4) 0.0765(5) 0.0845(4)
O4G O 0.9969(4) 0.4988(5) 0.3568(4)
loop_
_geom_bond_atom_site_label_1
_geom_bond_atom_site_label_2
_geom_bond_site_symmetry_1
_geom_bond_site_symmetry_2
Sn1 O1 1_555 1_555
Sn2 O2 1_555 1_555
O1 C1 1_555 1_555
O2 C1 1_555 1_555
O3 Sn1 1_555 1_555
O4 C3 1_555 1_555
C1 C2 1_555 1_555
C2 C2E 1_555 1_555
C3 O3 1_555 1_555
C4 C3 1_555 1_555
C5 Sn1 1_555 1_555
C6 C5 1_555 1_555
C7 C6 1_555 1_555
C8 C7 1_555 1_555
C9 Sn1 1_555 1_555
C10 C9 1_555 1_555
C11 C10 1_555 1_555
C12 C11 1_555 1_555
C13 Sn1 1_555 1_555
C14 C13 1_555 1_555
C15 C14 1_555 1_555
C16 C15 1_555 1_555
C17 Sn2 1_555 1_555
C18 C17 1_555 1_555
C19 C18 1_555 1_555
C20 C19 1_555 1_555
C21 Sn2 1_555 1_555
C22 C21 1_555 1_555
C23 C22 1_555 1_555
C24 C23 1_555 1_555
C25 Sn2 1_555 1_555
C26 C25 1_555 1_555
C27 C26 1_555 1_555
C28 C27 1_555 1_555
C2E C1E 1_555 1_555
C1E O1E 1_555 1_555
O1E Sn1E 1_555 1_555
O2E C1E 1_555 1_555
C4D C4 1_555 1_555
C3D C4D 1_555 1_555
O3D C3D 1_555 1_555
O4D C3D 1_555 1_555
Sn1E C5E 1_555 1_555
Sn2E O2E 1_555 1_555
C5E C6E 1_555 1_555
C6E C7E 1_555 1_555
C7E C8E 1_555 1_555
C9E Sn1E 1_555 1_555
C10E C9E 1_555 1_555
C11E C10E 1_555 1_555
C12E C11E 1_555 1_555
C13E Sn1E 1_555 1_555
C14E C13E 1_555 1_555
C15E C14E 1_555 1_555
C16E C15E 1_555 1_555
C17E Sn2E 1_555 1_555
C18E C17E 1_555 1_555
C19E C18E 1_555 1_555
C20E C19E 1_555 1_555
C21E Sn2E 1_555 1_555
C22E C21E 1_555 1_555
C23E C22E 1_555 1_555
C24E C23E 1_555 1_555
C25E Sn2E 1_555 1_555
C26E C25E 1_555 1_555
C27E C26E 1_555 1_555
C28E C27E 1_555 1_555
O4F Sn2 1_555 1_555
Sn2F O4 1_555 1_555
Sn1D O3D 1_555 1_555
Sn2B O4D 1_555 1_555
O3E Sn1E 1_555 1_555
O4G Sn2E 1_555 1_555

#END
