
#######################################################################
#
#                 Cambridge Crystallographic Data Centre
#                                CCDC 
#
#######################################################################
#
# If this CIF has been generated from an entry in the Cambridge 
# Structural Database, then it will include bibliographic, chemical, 
# crystal, experimental, refinement or atomic coordinate data resulting 
# from the CCDC's data processing and validation procedures.
#
#######################################################################

data_UKETIN
_symmetry_cell_setting           triclinic
_symmetry_space_group_name_H-M   'P -1'
_symmetry_Int_Tables_number      2
_space_group_name_Hall           '-P 1'
loop_
_symmetry_equiv_pos_site_id
_symmetry_equiv_pos_as_xyz
1 x,y,z
2 -x,-y,-z
_cell_length_a                   6.2435(17)
_cell_length_b                   7.100(2)
_cell_length_c                   11.998(3)
_cell_angle_alpha                84.400(4)
_cell_angle_beta                 86.060(5)
_cell_angle_gamma                81.580(4)
_cell_volume                     522.813
loop_
_atom_site_label
_atom_site_type_symbol
_atom_site_fract_x
_atom_site_fract_y
_atom_site_fract_z
Cu1 Cu 0.0000 0.0000 0.5000
Cu2 Cu 0.42660(7) -0.10300(6) 0.80983(4)
Na1 Na -0.1875(3) -0.3984(2) 0.58887(14)
P1 P -0.06765(17) -0.05571(14) 0.75889(8)
P2 P 0.20235(17) 0.23602(14) 0.65572(9)
O1 O -0.0568(5) -0.1366(4) 0.6453(2)
O2 O 0.1258(4) -0.1325(4) 0.8289(2)
O3 O -0.2759(5) -0.0828(4) 0.8264(2)
O4 O 0.2270(5) 0.1140(4) 0.5556(2)
O5 O 0.3792(4) 0.1615(4) 0.7372(2)
O6 O 0.1904(5) 0.4452(4) 0.6175(2)
O7 O -0.2217(5) 0.2771(4) 0.6486(3)
H1 H -0.336(8) 0.235(7) 0.690(4)
O8 O 0.4576(5) -0.2750(5) 0.6444(3)
H2 H 0.418(8) -0.170(7) 0.604(4)
H3 H 0.388(9) -0.353(8) 0.639(4)
N1 N 0.4751(5) -0.3418(5) 0.9218(3)
C1 C -0.0586(6) 0.2004(6) 0.7292(3)
C2 C -0.0973(8) 0.3020(7) 0.8353(4)
H4 H -0.2347 0.2796 0.8711
H5 H -0.0978 0.4367 0.8170
H6 H 0.0160 0.2541 0.8852
C3 C 0.3579(7) -0.4857(6) 0.9206(4)
H7 H 0.269(8) -0.477(7) 0.869(4)
C4 C 0.6167(7) -0.3577(6) 1.0017(3)
H8 H 0.686(7) -0.255(6) 1.005(3)
C4A C 0.3833(7) -0.6423(6) 0.9983(3)
N1A N 0.5249(5) -0.6582(5) 1.0782(3)
C3A C 0.6421(7) -0.5143(6) 1.0794(4)
H7A H 0.731(8) -0.523(7) 1.131(4)
H8A H 0.314(7) -0.745(6) 0.995(3)
P1A P 0.06765(17) 0.05571(14) 0.24111(8)
P2A P -0.20235(17) -0.23602(14) 0.34428(9)
O1A O 0.0568(5) 0.1366(4) 0.3547(2)
O2A O -0.1258(4) 0.1325(4) 0.1711(2)
O3A O 0.2759(5) 0.0828(4) 0.1736(2)
O4A O -0.2270(5) -0.1140(4) 0.4444(2)
O5A O -0.3792(4) -0.1615(4) 0.2628(2)
O6A O -0.1904(5) -0.4452(4) 0.3825(2)
O7A O 0.2217(5) -0.2771(4) 0.3514(3)
H1A H 0.336(8) -0.235(7) 0.310(4)
C1A C 0.0586(6) -0.2004(6) 0.2708(3)
C2A C 0.0973(8) -0.3020(7) 0.1647(4)
H4A H 0.2347 -0.2796 0.1289
H5A H 0.0978 -0.4367 0.1830
H6A H -0.0160 -0.2541 0.1148
Cu2A Cu -0.42660(7) 0.10300(6) 0.19017(4)
Na1A Na 0.1875(3) 0.3984(2) 0.41113(14)
O8_2 O -0.5424(5) -0.2750(5) 0.6444(3)
H2_2 H -0.582(8) -0.170(7) 0.604(4)
H3_2 H -0.612(9) -0.353(8) 0.639(4)
O3_2 O 0.7241(5) -0.0828(4) 0.8264(2)
O6_2 O 0.1904(5) -0.5548(4) 0.6175(2)
O7_2 O -0.2217(5) -0.7229(4) 0.6486(3)
Cu2_2 Cu -0.57340(7) -0.10300(6) 0.80983(4)
Na1_2 Na -0.1875(3) 0.6016(2) 0.58887(14)
Na1_3 Na 0.8125(3) -0.3984(2) 0.58887(14)
Cu2A_2 Cu 0.57340(7) -0.89700(6) 1.19017(4)
Cu2A_3 Cu 0.57340(7) 0.10300(6) 0.19017(4)
Na1A_2 Na 0.1875(3) -0.6016(2) 0.41113(14)
O3A_2 O -0.7241(5) 0.0828(4) 0.1736(2)
O8A O -0.4576(5) 0.2750(5) 0.3556(3)
N1A_2 N -0.4751(5) 0.3418(5) 0.0782(3)
O6A_2 O -0.1904(5) 0.5548(4) 0.3825(2)
O7A_2 O 0.2217(5) 0.7229(4) 0.3514(3)
O8A_2 O 0.5424(5) 0.2750(5) 0.3556(3)
H1_2 H -0.336(8) -0.765(7) 0.690(4)
H2A H -0.418(8) 0.170(7) 0.396(4)
H3A H -0.388(9) 0.353(8) 0.361(4)
H1A_2 H 0.336(8) 0.765(7) 0.310(4)
H2A_2 H 0.582(8) 0.170(7) 0.396(4)
H3A_2 H 0.612(9) 0.353(8) 0.361(4)
loop_
_geom_bond_atom_site_label_1
_geom_bond_atom_site_label_2
_geom_bond_site_symmetry_1
_geom_bond_site_symmetry_2
Cu1 O1 1_555 1_555
Cu2 O2 1_555 1_555
Na1 O1 1_555 1_555
P1 O1 1_555 1_555
P2 O4 1_555 1_555
O2 P1 1_555 1_555
O3 P1 1_555 1_555
O4 Cu1 1_555 1_555
O5 Cu2 1_555 1_555
O6 P2 1_555 1_555
O7 H1 1_555 1_555
O8 Cu2 1_555 1_555
H2 O8 1_555 1_555
H3 O8 1_555 1_555
N1 Cu2 1_555 1_555
C1 P1 1_555 1_555
C2 C1 1_555 1_555
H4 C2 1_555 1_555
H5 C2 1_555 1_555
H6 C2 1_555 1_555
C3 N1 1_555 1_555
H7 C3 1_555 1_555
C4 N1 1_555 1_555
H8 C4 1_555 1_555
C4A C3 1_555 1_555
N1A C4A 1_555 1_555
C3A C4 1_555 1_555
H7A C3A 1_555 1_555
H8A C4A 1_555 1_555
P1A O1A 1_555 1_555
P2A O4A 1_555 1_555
O1A Cu1 1_555 1_555
O2A P1A 1_555 1_555
O3A P1A 1_555 1_555
O4A Cu1 1_555 1_555
O5A P2A 1_555 1_555
O6A Na1 1_555 1_555
O7A H1A 1_555 1_555
C1A P1A 1_555 1_555
C2A C1A 1_555 1_555
H4A C2A 1_555 1_555
H5A C2A 1_555 1_555
H6A C2A 1_555 1_555
Cu2A O2A 1_555 1_555
Na1A O4 1_555 1_555
O8_2 Na1 1_555 1_555
H2_2 O8_2 1_555 1_555
H3_2 O8_2 1_555 1_555
O3_2 Cu2 1_555 1_555
O6_2 Na1 1_555 1_555
O7_2 Na1 1_555 1_555
Cu2_2 O3 1_555 1_555
Na1_2 O6 1_555 1_555
Na1_3 O8 1_555 1_555
Cu2A_2 N1A 1_555 1_555
Cu2A_3 O3A 1_555 1_555
Na1A_2 O6A 1_555 1_555
O3A_2 Cu2A 1_555 1_555
O8A Cu2A 1_555 1_555
N1A_2 Cu2A 1_555 1_555
O6A_2 Na1A 1_555 1_555
O7A_2 Na1A 1_555 1_555
O8A_2 Na1A 1_555 1_555
H1_2 O7_2 1_555 1_555
H2A O8A 1_555 1_555
H3A O8A 1_555 1_555
H1A_2 O7A_2 1_555 1_555
H2A_2 O8A_2 1_555 1_555
H3A_2 O8A_2 1_555 1_555
Na1 O4A 1_555 1_555
P2 C1 1_555 1_555
P2 O5 1_555 1_555
O6 Na1A 1_555 1_555
O7 C1 1_555 1_555
O7 Na1_2 1_555 1_555
N1A C3A 1_555 1_555
P2A C1A 1_555 1_555
P2A O6A 1_555 1_555
O1A Na1A 1_555 1_555
O5A Cu2A 1_555 1_555
O7A C1A 1_555 1_555
O7A Na1A_2 1_555 1_555
O8_2 Cu2_2 1_555 1_555
O6_2 Na1A_2 1_555 1_555
Na1_2 O6A_2 1_555 1_555
Cu2A_3 O8A_2 1_555 1_555

#END
