
#######################################################################
#
#                 Cambridge Crystallographic Data Centre
#                                CCDC 
#
#######################################################################
#
# If this CIF has been generated from an entry in the Cambridge 
# Structural Database, then it will include bibliographic, chemical, 
# crystal, experimental, refinement or atomic coordinate data resulting 
# from the CCDC's data processing and validation procedures.
#
#######################################################################

data_UKEWIR
_symmetry_cell_setting           orthorhombic
_symmetry_space_group_name_H-M   'C 2 2 21'
_symmetry_Int_Tables_number      20
_space_group_name_Hall           'C 2n 2'
loop_
_symmetry_equiv_pos_site_id
_symmetry_equiv_pos_as_xyz
1 x,y,z
2 -x,-y,1/2+z
3 -x,y,1/2-z
4 x,-y,-z
5 1/2+x,1/2+y,z
6 1/2-x,1/2-y,1/2+z
7 1/2-x,1/2+y,1/2-z
8 1/2+x,1/2-y,-z
_cell_length_a                   6.8854(2)
_cell_length_b                   30.3859(7)
_cell_length_c                   7.4741(2)
_cell_angle_alpha                90
_cell_angle_beta                 90
_cell_angle_gamma                90
_cell_volume                     1563.72
loop_
_atom_site_label
_atom_site_type_symbol
_atom_site_fract_x
_atom_site_fract_y
_atom_site_fract_z
C1 C 0.0000 0.60606(14) 0.7500
O1 O -0.0464(5) 0.75801(9) 0.5689(4)
O2 O -0.1871(5) 0.78840(9) 0.3297(4)
O3 O -0.1580(4) 0.62688(7) 0.7550(8)
C2 C 0.0000 0.55660(15) 0.7500
C3 C 0.0000 0.46560(15) 0.7500
O4 O -0.0066(10) 0.89696(15) 0.5158(5)
C4 C -0.1711(7) 0.48824(12) 0.7467(17)
H1 H -0.288 0.473 0.743
C5 C -0.0908(7) 0.71275(13) 0.3127(6)
C6 C -0.1096(7) 0.75636(14) 0.4118(6)
C7 C -0.1720(6) 0.53437(12) 0.7487(17)
H2 H -0.289 0.5497 0.7491
C8 C 0.0000 0.41569(16) 0.7500
O5 O 0.1532(5) 0.39615(9) 0.7944(5)
H3 H -0.063(8) 0.8697(11) 0.559(7)
H4 H 0.106(6) 0.8982(18) 0.599(6)
H5 H -0.108(10) 0.6571(17) 0.400(8)
H6 H -0.216(7) 0.7078(12) 0.263(12)
Y1 Y 0.0000 0.696414(14) 0.7500
Na1 Na 0.0000 0.85803(7) 0.2500
O6 O -0.0689(5) 0.67951(10) 0.4459(4)
O1B O 0.0464(5) 0.75801(9) -0.0689(4)
O1B_2 O 0.0464(5) 0.75801(9) 0.9311(4)
O2B O 0.1871(5) 0.78840(9) 0.1703(4)
O2G O 0.3129(5) 0.71160(9) 0.6703(4)
O2E O -0.3129(5) 0.71160(9) 0.8297(4)
O3B O 0.1580(4) 0.62688(7) 0.7450(8)
O3G O 0.3420(4) 0.87312(7) 0.2450(8)
O3E O -0.3420(4) 0.87312(7) 0.2550(8)
O4B O 0.0066(10) 0.89696(15) -0.0158(5)
C4B C 0.1711(7) 0.48824(12) 0.7533(17)
H1B H 0.288 0.473 0.757
C5B C 0.0908(7) 0.71275(13) 0.1873(6)
C6B C 0.1096(7) 0.75636(14) 0.0882(6)
C7B C 0.1720(6) 0.53437(12) 0.7513(17)
H2B H 0.289 0.5497 0.7509
O5B O -0.1532(5) 0.39615(9) 0.7056(5)
H3B H 0.063(8) 0.8697(11) -0.059(7)
H4B H -0.106(6) 0.8982(18) -0.099(6)
H5B H 0.108(10) 0.6571(17) 0.100(8)
H5B_2 H 0.108(10) 0.6571(17) 1.100(8)
H6B H 0.216(7) 0.7078(12) 0.237(12)
Y1E Y -0.5000 0.803586(14) 0.2500
Y1_2 Y 0.0000 0.696414(14) -0.2500
Y1E_2 Y 0.5000 0.803586(14) 0.2500
Na1E Na -0.5000 0.64197(7) 0.7500
Na1E_2 Na 0.5000 0.64197(7) 0.7500
O6B O 0.0689(5) 0.67951(10) 0.0541(4)
O6B_2 O 0.0689(5) 0.67951(10) 1.0541(4)
loop_
_geom_bond_atom_site_label_1
_geom_bond_atom_site_label_2
_geom_bond_site_symmetry_1
_geom_bond_site_symmetry_2
C1 O3 1_555 1_555
O1 C6 1_555 1_555
O2 C6 1_555 1_555
O3 Y1 1_555 1_555
C2 C1 1_555 1_555
C3 C4 1_555 1_555
O4 H3 1_555 1_555
C4 H1 1_555 1_555
C5 C6 1_555 1_555
C7 C2 1_555 1_555
H2 C7 1_555 1_555
C8 C3 1_555 1_555
O5 C8 1_555 1_555
H4 O4 1_555 1_555
H5 O6 1_555 1_555
H6 C5 1_555 1_555
Y1 O1 1_555 1_555
Na1 O2 1_555 1_555
O6 C5 1_555 1_555
O1B C6B 1_555 1_555
O1B_2 Y1 1_555 1_555
O2B Na1 1_555 1_555
O2G Y1 1_555 1_555
O2E Y1 1_555 1_555
O3B C1 1_555 1_555
O3G Na1 1_555 1_555
O3E Na1 1_555 1_555
O4B Na1 1_555 1_555
C4B C3 1_555 1_555
H1B C4B 1_555 1_555
C5B C5 1_555 1_555
C6B O2B 1_555 1_555
C7B C2 1_555 1_555
H2B C7B 1_555 1_555
O5B C8 1_555 1_555
H3B O4B 1_555 1_555
H4B O4B 1_555 1_555
H5B O6B 1_555 1_555
H5B_2 O6B_2 1_555 1_555
H6B C5B 1_555 1_555
Y1E O2 1_555 1_555
Y1_2 O1B 1_555 1_555
Y1E_2 O2B 1_555 1_555
Na1E O3 1_555 1_555
Na1E_2 O2G 1_555 1_555
O6B C5B 1_555 1_555
O6B_2 Y1 1_555 1_555
O4 Na1 1_555 1_555
C4 C7 1_555 1_555
Y1 O6 1_555 1_555
Y1 O3B 1_555 1_555
O2E Na1E 1_555 1_555
O3B Na1E_2 1_555 1_555
O3G Y1E_2 1_555 1_555
O3E Y1E 1_555 1_555
C4B C7B 1_555 1_555
C5B C6B 1_555 1_555
Y1_2 O6B 1_555 1_555

#END
