
#######################################################################
#
#                 Cambridge Crystallographic Data Centre
#                                CCDC 
#
#######################################################################
#
# If this CIF has been generated from an entry in the Cambridge 
# Structural Database, then it will include bibliographic, chemical, 
# crystal, experimental, refinement or atomic coordinate data resulting 
# from the CCDC's data processing and validation procedures.
#
#######################################################################

data_UKULOB
_symmetry_cell_setting           monoclinic
_symmetry_space_group_name_H-M   'P 21/c'
_symmetry_Int_Tables_number      14
_space_group_name_Hall           '-P 2ybc'
loop_
_symmetry_equiv_pos_site_id
_symmetry_equiv_pos_as_xyz
1 x,y,z
2 x,1/2-y,1/2+z
3 -x,-y,-z
4 -x,1/2+y,1/2-z
_cell_length_a                   14.2584(4)
_cell_length_b                   13.0528(3)
_cell_length_c                   7.4930(2)
_cell_angle_alpha                90
_cell_angle_beta                 92.0550(10)
_cell_angle_gamma                90
_cell_volume                     1393.64
loop_
_atom_site_label
_atom_site_type_symbol
_atom_site_fract_x
_atom_site_fract_y
_atom_site_fract_z
Ag1 Ag 0.240681(16) 0.755382(16) -0.72949(3)
Ag2 Ag 0.216765(15) 0.555167(17) 0.03605(3)
Fe1 Fe 0.0000 0.5000 -0.5000
Fe2 Fe 0.5000 1.0000 -1.0000
O1 O 0.44088(14) 1.13262(16) -0.8868(3)
H1 H 0.3854(14) 1.139(3) -0.914(5)
H2 H 0.445(3) 1.139(3) -0.776(3)
N1 N 0.08161(16) 0.59814(17) -0.6090(3)
N2 N 0.05831(16) 0.53596(18) -0.2722(3)
N3 N -0.09519(16) 0.61024(17) -0.4732(3)
N4 N -0.25283(16) 0.6686(2) -0.5162(3)
N5 N 0.40604(18) 0.9022(2) -0.8536(3)
N6 N 0.39620(18) 0.50056(19) 0.2872(3)
C1 C 0.1349(2) 0.6573(2) -0.6583(4)
C2 C 0.1062(2) 0.5533(2) -0.1486(4)
C3 C -0.0695(2) 0.7058(2) -0.4239(4)
H5 H -0.005(3) 0.712(3) -0.387(5)
C4 C -0.1332(2) 0.7852(2) -0.4215(4)
H6 H -0.113(3) 0.847(3) -0.382(5)
C5 C -0.2253(2) 0.7631(2) -0.4708(4)
H7 H -0.265(3) 0.804(3) -0.478(5)
C6 C -0.18737(19) 0.5959(2) -0.5146(4)
H8 H -0.209(2) 0.521(3) -0.541(4)
C7 C 0.3485(2) 0.8492(2) -0.8049(4)
C8 C 0.3346(2) 0.5198(2) 0.1919(4)
N1B N -0.08161(16) 0.40186(17) -0.3910(3)
C1B C -0.1349(2) 0.3427(2) -0.3417(4)
N2B N -0.05831(16) 0.46404(18) -0.7278(3)
C2B C -0.1062(2) 0.4467(2) -0.8514(4)
N3B N 0.09519(16) 0.38976(17) -0.5268(3)
N4B N 0.25283(16) 0.3314(2) -0.4838(3)
C3B C 0.0695(2) 0.2942(2) -0.5761(4)
H5B H 0.005(3) 0.288(3) -0.613(5)
C4B C 0.1332(2) 0.2148(2) -0.5785(4)
H6B H 0.113(3) 0.153(3) -0.618(5)
C5B C 0.2253(2) 0.2369(2) -0.5292(4)
H7B H 0.265(3) 0.196(3) -0.522(5)
C6B C 0.18737(19) 0.4041(2) -0.4854(4)
H8B H 0.209(2) 0.479(3) -0.459(4)
Ag1B Ag -0.240681(16) 0.244618(16) -0.27051(3)
Ag2B Ag -0.216765(15) 0.444833(17) -1.03605(3)
N5B N -0.40604(18) 0.0978(2) -0.1464(3)
C7B C -0.3485(2) 0.1508(2) -0.1951(4)
N6B N -0.39620(18) 0.49944(19) -1.2872(3)
C8B C -0.3346(2) 0.4802(2) -1.1919(4)
O1B O 0.55912(14) 0.86738(16) -1.1132(3)
H1B H 0.6146(14) 0.861(3) -1.086(5)
H2B H 0.555(3) 0.861(3) -1.224(3)
Ag2_2 Ag 0.216765(15) 0.555167(17) -0.96395(3)
Ag2A Ag 0.216765(15) 0.944833(17) -0.46395(3)
Ag1_2 Ag 0.240681(16) 0.755382(16) 0.27051(3)
Ag1A Ag 0.240681(16) 0.744618(16) -0.22949(3)
N5B_2 N 0.59396(18) 1.0978(2) -1.1464(3)
N6A N 0.39620(18) 0.99944(19) -1.2128(3)
N6C N 0.60380(18) 1.00056(19) -0.7872(3)
Fe2A Fe 0.5000 0.5000 0.5000
Ag2B_2 Ag -0.216765(15) 0.444833(17) -0.03605(3)
Ag2C Ag -0.216765(15) 0.055167(17) -0.53605(3)
Ag1B_2 Ag -0.240681(16) 0.244618(16) -1.27051(3)
Ag1C Ag -0.240681(16) 0.255382(16) -0.77051(3)
Fe2_2 Fe -0.5000 0.0000 0.0000
Fe2A_2 Fe -0.5000 0.5000 -1.5000
O2 O 0.54306(19) 0.66452(18) 0.0321(3)
H3 H 0.526(3) 0.722(2) -0.005(6)
H4 H 0.528(3) 0.625(3) -0.051(4)
loop_
_geom_bond_atom_site_label_1
_geom_bond_atom_site_label_2
_geom_bond_site_symmetry_1
_geom_bond_site_symmetry_2
Ag1 C1 1_555 1_555
Ag2 C2 1_555 1_555
Fe1 N1 1_555 1_555
Fe2 O1 1_555 1_555
O1 H1 1_555 1_555
H2 O1 1_555 1_555
O2 H3 1_555 1_555
H4 O2 1_555 1_555
N1 C1 1_555 1_555
N2 Fe1 1_555 1_555
N3 Fe1 1_555 1_555
N4 C5 1_555 1_555
N5 Fe2 1_555 1_555
N6 C8 1_555 1_555
C2 N2 1_555 1_555
C3 N3 1_555 1_555
H5 C3 1_555 1_555
C4 C3 1_555 1_555
H6 C4 1_555 1_555
C5 C4 1_555 1_555
H7 C5 1_555 1_555
C6 N3 1_555 1_555
H8 C6 1_555 1_555
C7 Ag1 1_555 1_555
C8 Ag2 1_555 1_555
N1B Fe1 1_555 1_555
C1B N1B 1_555 1_555
N2B Fe1 1_555 1_555
C2B N2B 1_555 1_555
N3B Fe1 1_555 1_555
N4B C5B 1_555 1_555
C3B N3B 1_555 1_555
H5B C3B 1_555 1_555
C4B C3B 1_555 1_555
H6B C4B 1_555 1_555
C5B C4B 1_555 1_555
H7B C5B 1_555 1_555
C6B N3B 1_555 1_555
H8B C6B 1_555 1_555
Ag1B C1B 1_555 1_555
Ag2B C2B 1_555 1_555
N5B C7B 1_555 1_555
C7B Ag1B 1_555 1_555
N6B C8B 1_555 1_555
C8B Ag2B 1_555 1_555
O1B Fe2 1_555 1_555
H1B O1B 1_555 1_555
H2B O1B 1_555 1_555
Ag2_2 Ag1 1_555 1_555
Ag2A Ag1 1_555 1_555
Ag1_2 Ag2 1_555 1_555
Ag1A Ag2 1_555 1_555
N5B_2 Fe2 1_555 1_555
N6A Fe2 1_555 1_555
N6C Fe2 1_555 1_555
Fe2A N6 1_555 1_555
Ag2B_2 Ag1B 1_555 1_555
Ag2C Ag1B 1_555 1_555
Ag1B_2 Ag2B 1_555 1_555
Ag1C Ag2B 1_555 1_555
Fe2_2 N5B 1_555 1_555
Fe2A_2 N6B 1_555 1_555
N4 C6 1_555 1_555
N5 C7 1_555 1_555
N4B C6B 1_555 1_555
Ag2A Ag1A 1_555 1_555
Ag2C Ag1C 1_555 1_555

#END
