
#######################################################################
#
#                 Cambridge Crystallographic Data Centre
#                                CCDC 
#
#######################################################################
#
# If this CIF has been generated from an entry in the Cambridge 
# Structural Database, then it will include bibliographic, chemical, 
# crystal, experimental, refinement or atomic coordinate data resulting 
# from the CCDC's data processing and validation procedures.
#
#######################################################################

data_UKULOB01
_symmetry_cell_setting           monoclinic
_symmetry_space_group_name_H-M   'P 21/c'
_symmetry_Int_Tables_number      14
_space_group_name_Hall           '-P 2ybc'
loop_
_symmetry_equiv_pos_site_id
_symmetry_equiv_pos_as_xyz
1 x,y,z
2 x,1/2-y,1/2+z
3 -x,-y,-z
4 -x,1/2+y,1/2-z
_cell_length_a                   14.7035(5)
_cell_length_b                   13.2962(5)
_cell_length_c                   7.3852(3)
_cell_angle_alpha                90
_cell_angle_beta                 91.441(2)
_cell_angle_gamma                90
_cell_volume                     1443.35
loop_
_atom_site_label
_atom_site_type_symbol
_atom_site_fract_x
_atom_site_fract_y
_atom_site_fract_z
Ag1 Ag 0.250318(13) 0.755001(14) -0.73004(3)
Ag2 Ag 0.228905(13) 0.556725(14) 0.02823(3)
Fe1 Fe 0.0000 0.5000 -0.5000
Fe2 Fe 0.5000 1.0000 -1.0000
O1 O 0.44012(11) 1.12852(13) -0.8843(2)
H1 H 0.3859(12) 1.139(2) -0.910(4)
H2 H 0.4516(19) 1.140(2) -0.778(2)
N1 N 0.08974(13) 0.60574(14) -0.6208(3)
N2 N 0.05785(13) 0.54668(14) -0.2460(3)
N3 N -0.10440(12) 0.62054(13) -0.4855(3)
N4 N -0.25752(13) 0.67357(16) -0.5320(3)
N5 N 0.41002(14) 0.90088(16) -0.8528(3)
N6 N 0.40021(13) 0.50170(15) 0.2843(3)
C1 C 0.14517(16) 0.66094(17) -0.6612(3)
C2 C 0.11497(16) 0.55736(16) -0.1402(3)
C3 C -0.07943(17) 0.71622(18) -0.4594(4)
H5 H -0.019(2) 0.731(2) -0.435(4)
C4 C -0.14148(19) 0.7934(2) -0.4707(5)
H6 H -0.122(2) 0.857(3) -0.447(4)
C5 C -0.23067(19) 0.7687(2) -0.5076(4)
H7 H -0.274(2) 0.815(3) -0.523(4)
C6 C -0.19279(14) 0.60384(17) -0.5190(3)
H8 H -0.2067(19) 0.537(2) -0.539(3)
C7 C 0.35499(17) 0.84786(19) -0.8055(4)
C8 C 0.34174(16) 0.52092(18) 0.1864(3)
N1B N -0.08974(13) 0.39426(14) -0.3792(3)
C1B C -0.14517(16) 0.33906(17) -0.3388(3)
N2B N -0.05785(13) 0.45332(14) -0.7540(3)
C2B C -0.11497(16) 0.44264(16) -0.8598(3)
N3B N 0.10440(12) 0.37946(13) -0.5145(3)
N4B N 0.25752(13) 0.32643(16) -0.4680(3)
C3B C 0.07943(17) 0.28378(18) -0.5406(4)
H5B H 0.019(2) 0.269(2) -0.565(4)
C4B C 0.14148(19) 0.2066(2) -0.5293(5)
H6B H 0.122(2) 0.143(3) -0.553(4)
C5B C 0.23067(19) 0.2313(2) -0.4924(4)
H7B H 0.274(2) 0.185(3) -0.477(4)
C6B C 0.19279(14) 0.39616(17) -0.4810(3)
H8B H 0.2067(19) 0.463(2) -0.461(3)
Ag1B Ag -0.250318(13) 0.244999(14) -0.26996(3)
Ag2B Ag -0.228905(13) 0.443275(14) -1.02823(3)
N5B N -0.41002(14) 0.09912(16) -0.1472(3)
C7B C -0.35499(17) 0.15214(19) -0.1945(4)
N6B N -0.40021(13) 0.49830(15) -1.2843(3)
C8B C -0.34174(16) 0.47908(18) -1.1864(3)
O1B O 0.55988(11) 0.87148(13) -1.1157(2)
H1B H 0.6141(12) 0.861(2) -1.090(4)
H2B H 0.5484(19) 0.860(2) -1.222(2)
Ag2_2 Ag 0.228905(13) 0.556725(14) -0.97177(3)
Ag2A Ag 0.228905(13) 0.943275(14) -0.47177(3)
Ag1_2 Ag 0.250318(13) 0.755001(14) 0.26996(3)
Ag1A Ag 0.250318(13) 0.744999(14) -0.23004(3)
N5B_2 N 0.58998(14) 1.09912(16) -1.1472(3)
N6A N 0.40021(13) 0.99830(15) -1.2157(3)
N6C N 0.59979(13) 1.00170(15) -0.7843(3)
Fe2A Fe 0.5000 0.5000 0.5000
Ag2B_2 Ag -0.228905(13) 0.443275(14) -0.02823(3)
Ag2C Ag -0.228905(13) 0.056725(14) -0.52823(3)
Ag1B_2 Ag -0.250318(13) 0.244999(14) -1.26996(3)
Ag1C Ag -0.250318(13) 0.255001(14) -0.76996(3)
Fe2_2 Fe -0.5000 0.0000 0.0000
Fe2A_2 Fe -0.5000 0.5000 -1.5000
O2 O 0.54068(17) 0.66898(15) 0.0282(3)
H3 H 0.527(2) 0.7268(16) -0.002(5)
H4 H 0.522(2) 0.638(2) -0.060(3)
loop_
_geom_bond_atom_site_label_1
_geom_bond_atom_site_label_2
_geom_bond_site_symmetry_1
_geom_bond_site_symmetry_2
Ag1 C1 1_555 1_555
Ag2 C2 1_555 1_555
Fe1 N1 1_555 1_555
Fe2 O1 1_555 1_555
O1 H1 1_555 1_555
H2 O1 1_555 1_555
O2 H3 1_555 1_555
H4 O2 1_555 1_555
N1 C1 1_555 1_555
N2 Fe1 1_555 1_555
N3 Fe1 1_555 1_555
N4 C5 1_555 1_555
N5 Fe2 1_555 1_555
N6 C8 1_555 1_555
C2 N2 1_555 1_555
C3 N3 1_555 1_555
H5 C3 1_555 1_555
C4 C3 1_555 1_555
H6 C4 1_555 1_555
C5 C4 1_555 1_555
H7 C5 1_555 1_555
C6 N3 1_555 1_555
H8 C6 1_555 1_555
C7 Ag1 1_555 1_555
C8 Ag2 1_555 1_555
N1B Fe1 1_555 1_555
C1B N1B 1_555 1_555
N2B Fe1 1_555 1_555
C2B N2B 1_555 1_555
N3B Fe1 1_555 1_555
N4B C5B 1_555 1_555
C3B N3B 1_555 1_555
H5B C3B 1_555 1_555
C4B C3B 1_555 1_555
H6B C4B 1_555 1_555
C5B C4B 1_555 1_555
H7B C5B 1_555 1_555
C6B N3B 1_555 1_555
H8B C6B 1_555 1_555
Ag1B C1B 1_555 1_555
Ag2B C2B 1_555 1_555
N5B C7B 1_555 1_555
C7B Ag1B 1_555 1_555
N6B C8B 1_555 1_555
C8B Ag2B 1_555 1_555
O1B Fe2 1_555 1_555
H1B O1B 1_555 1_555
H2B O1B 1_555 1_555
Ag2_2 Ag1 1_555 1_555
Ag2A Ag1 1_555 1_555
Ag1_2 Ag2 1_555 1_555
Ag1A Ag2 1_555 1_555
N5B_2 Fe2 1_555 1_555
N6A Fe2 1_555 1_555
N6C Fe2 1_555 1_555
Fe2A N6 1_555 1_555
Ag2B_2 Ag1B 1_555 1_555
Ag2C Ag1B 1_555 1_555
Ag1B_2 Ag2B 1_555 1_555
Ag1C Ag2B 1_555 1_555
Fe2_2 N5B 1_555 1_555
Fe2A_2 N6B 1_555 1_555
N4 C6 1_555 1_555
N5 C7 1_555 1_555
N4B C6B 1_555 1_555
Ag2A Ag1A 1_555 1_555
Ag2C Ag1C 1_555 1_555

#END
