
#######################################################################
#
#                 Cambridge Crystallographic Data Centre
#                                CCDC 
#
#######################################################################
#
# If this CIF has been generated from an entry in the Cambridge 
# Structural Database, then it will include bibliographic, chemical, 
# crystal, experimental, refinement or atomic coordinate data resulting 
# from the CCDC's data processing and validation procedures.
#
#######################################################################

data_UKUNOE
_symmetry_cell_setting           monoclinic
_symmetry_space_group_name_H-M   'C 2/c'
_symmetry_Int_Tables_number      15
_space_group_name_Hall           '-C 2yn'
loop_
_symmetry_equiv_pos_site_id
_symmetry_equiv_pos_as_xyz
1 x,y,z
2 -x,y,1/2-z
3 1/2+x,1/2+y,z
4 1/2-x,1/2+y,1/2-z
5 -x,-y,-z
6 x,-y,1/2+z
7 1/2-x,1/2-y,-z
8 1/2+x,1/2-y,1/2+z
_cell_length_a                   17.0825(2)
_cell_length_b                   11.50480(10)
_cell_length_c                   9.53150(10)
_cell_angle_alpha                90
_cell_angle_beta                 92.6290(10)
_cell_angle_gamma                90
_cell_volume                     1871.26
loop_
_atom_site_label
_atom_site_type_symbol
_atom_site_fract_x
_atom_site_fract_y
_atom_site_fract_z
Co1 Co 0.0000 0.96938(2) 0.2500
S1 S 0.27283(3) 1.02214(5) 0.52721(6)
O1 O 0.06728(6) 0.96093(9) 0.43289(12)
N1 N 0.0000 1.16105(15) 0.2500
N2 N 0.0000 1.77857(15) 0.2500
C1 C 0.25852(10) 0.87033(17) 0.50934(19)
C2 C 0.22280(11) 0.81989(18) 0.3898(2)
H1 H 0.2044 0.8666 0.3158
C3 C 0.28531(10) 0.79900(18) 0.6186(2)
H2 H 0.3091 0.8320 0.6988
C4 C 0.18244(10) 1.07710(16) 0.44519(19)
H3 H 0.1805 1.1608 0.4564
H4 H 0.1813 1.0601 0.3454
C5 C 0.11105(8) 1.02253(12) 0.50982(16)
C6 C -0.05967(9) 1.22240(14) 0.29853(17)
H5 H -0.1017 1.1819 0.3335
C7 C -0.06235(10) 1.34249(14) 0.29958(18)
H6 H -0.1056 1.3808 0.3332
C8 C 0.0000 1.40560(17) 0.2500
C9 C 0.0000 1.53429(17) 0.2500
C10 C 0.03174(10) 1.59757(14) 0.14248(18)
H7 H 0.0546 1.5593 0.0688
C11 C 0.02924(10) 1.71757(14) 0.14531(17)
H8 H 0.0490 1.7581 0.0702
O2 O 0.10279(6) 1.04084(9) 0.63835(11)
Co1_2 Co 0.0000 1.96938(2) 0.2500
Co1D Co 0.0000 1.03062(2) 0.7500
Co1F Co 0.5000 0.53062(2) 0.7500
Co1B Co 0.5000 0.46938(2) 0.2500
S1F S 0.22717(3) 0.47786(5) 0.47279(6)
O1F O 0.43272(6) 0.53907(9) 0.56711(12)
O1A O -0.06728(6) 0.96093(9) 0.06711(12)
N2_2 N 0.0000 0.77857(15) 0.2500
C1F C 0.24148(10) 0.62967(17) 0.49066(19)
C2F C 0.27720(11) 0.68011(18) 0.6102(2)
H1F H 0.2956 0.6334 0.6842
C3F C 0.21469(10) 0.70100(18) 0.3814(2)
H2F H 0.1909 0.6680 0.3012
C4F C 0.31756(10) 0.42290(16) 0.55481(19)
H3F H 0.3195 0.3392 0.5436
H4F H 0.3187 0.4399 0.6546
C5F C 0.38895(8) 0.47747(12) 0.49018(16)
C6A C 0.05967(9) 1.22240(14) 0.20147(17)
H5A H 0.1017 1.1819 0.1665
C7A C 0.06235(10) 1.34249(14) 0.20042(18)
H6A H 0.1056 1.3808 0.1668
C10A C -0.03174(10) 1.59757(14) 0.35752(18)
H7A H -0.0546 1.5593 0.4312
C11A C -0.02924(10) 1.71757(14) 0.35469(17)
H8A H -0.0490 1.7581 0.4298
O2F O 0.39721(6) 0.45916(9) 0.36165(11)
O2D O -0.10279(6) 0.95916(9) 0.36165(11)
O2E O 0.10279(6) 0.95916(9) 0.13835(11)
loop_
_geom_bond_atom_site_label_1
_geom_bond_atom_site_label_2
_geom_bond_site_symmetry_1
_geom_bond_site_symmetry_2
Co1 O1 1_555 1_555
S1 C1 1_555 1_555
O1 C5 1_555 1_555
N1 Co1 1_555 1_555
N2 C11 1_555 1_555
C1 C2 1_555 1_555
C2 H1 1_555 1_555
C3 C1 1_555 1_555
H2 C3 1_555 1_555
C4 S1 1_555 1_555
H3 C4 1_555 1_555
H4 C4 1_555 1_555
C5 C4 1_555 1_555
C6 N1 1_555 1_555
H5 C6 1_555 1_555
C7 C6 1_555 1_555
H6 C7 1_555 1_555
C8 C7 1_555 1_555
C9 C8 1_555 1_555
C10 C9 1_555 1_555
H7 C10 1_555 1_555
C11 C10 1_555 1_555
H8 C11 1_555 1_555
O2 C5 1_555 1_555
Co1_2 N2 1_555 1_555
Co1D O2 1_555 1_555
Co1F O1F 1_555 1_555
Co1B O2F 1_555 1_555
S1F C1F 1_555 1_555
O1F C5F 1_555 1_555
O1A Co1 1_555 1_555
N2_2 Co1 1_555 1_555
C1F C2F 1_555 1_555
C2F C3 1_555 1_555
H1F C2F 1_555 1_555
C3F C2 1_555 1_555
H2F C3F 1_555 1_555
C4F S1F 1_555 1_555
H3F C4F 1_555 1_555
H4F C4F 1_555 1_555
C5F C4F 1_555 1_555
C6A N1 1_555 1_555
H5A C6A 1_555 1_555
C7A C8 1_555 1_555
H6A C7A 1_555 1_555
C10A C9 1_555 1_555
H7A C10A 1_555 1_555
C11A N2 1_555 1_555
H8A C11A 1_555 1_555
O2F C5F 1_555 1_555
O2D Co1 1_555 1_555
O2E Co1 1_555 1_555
C1F C3F 1_555 1_555
C6A C7A 1_555 1_555
C10A C11A 1_555 1_555

#END
