
#######################################################################
#
#                 Cambridge Crystallographic Data Centre
#                                CCDC 
#
#######################################################################
#
# If this CIF has been generated from an entry in the Cambridge 
# Structural Database, then it will include bibliographic, chemical, 
# crystal, experimental, refinement or atomic coordinate data resulting 
# from the CCDC's data processing and validation procedures.
#
#######################################################################

data_UKUVOL03
_symmetry_cell_setting           hexagonal
_symmetry_space_group_name_H-M   'P 61 2 2'
_symmetry_Int_Tables_number      178
_space_group_name_Hall           "P 61 2' (0,0,5)"
loop_
_symmetry_equiv_pos_site_id
_symmetry_equiv_pos_as_xyz
1 x,y,z
2 -y,x-y,1/3+z
3 -x+y,-x,2/3+z
4 -x,-y,1/2+z
5 y,-x+y,5/6+z
6 x-y,x,1/6+z
7 y,x,1/3-z
8 x-y,-y,-z
9 -x,-x+y,2/3-z
10 -y,-x,5/6-z
11 -x+y,y,1/2-z
12 x,x-y,1/6-z
_cell_length_a                   11.0816(9)
_cell_length_b                   11.0816(9)
_cell_length_c                   25.014(3)
_cell_angle_alpha                90
_cell_angle_beta                 90
_cell_angle_gamma                120
_cell_volume                     2660.23
loop_
_atom_site_label
_atom_site_type_symbol
_atom_site_fract_x
_atom_site_fract_y
_atom_site_fract_z
Cu1 Cu 0.48510(9) 1.0000 0.0000
N1 N 0.3035(7) 1.0000 0.0000
C1 C 0.1842(8) 0.8849(8) -0.0097(3)
H1 H 0.1858 0.8029 -0.0157
C2 C 0.0558(9) 0.8800(8) -0.0113(3)
H2 H -0.0254 0.7979 -0.0199
C3 C 0.0530(9) 1.0000 0.0000
C4 C -0.0820(8) 1.0000 0.0000
C5 C -0.2087(8) 0.8787(9) 0.0088(4)
H3 H -0.2108 0.7950 0.0152
C6 C -0.3314(7) 0.8830(8) 0.0079(4)
H4 H -0.4153 0.8007 0.0130
N2 N -0.3338(7) 1.0000 0.0000
O1 O 0.3659(7) 0.9062(7) 0.1200(3)
O2 O 0.3943(6) 0.8273(5) 0.0423(2)
C7 C 0.3377(8) 0.8130(8) 0.0874(3)
C8 C 0.2192(8) 0.6675(9) 0.0995(3)
H5 H 0.2229 0.6485 0.1371
H6 H 0.1318 0.6654 0.0933
O4 O 0.5681(6) 1.1558(6) 0.0819(3)
H9 H 0.6447 1.1917 0.1026
H10 H 0.5058 1.0776 0.0989
Cu1_2 Cu -0.51490(9) 1.0000 0.0000
Cu1E Cu 0.48510(9) 0.48510(9) 0.1667
C1G C 0.2993(11) 1.1151(8) 0.0097(3)
H1G H 0.3829 1.1971 0.0157
C2G C 0.1758(12) 1.1200(8) 0.0113(3)
H2G H 0.1767 1.2021 0.0199
C5G C -0.0874(12) 1.1213(9) -0.0088(4)
H3G H -0.0058 1.2050 -0.0152
C6G C -0.2144(11) 1.1170(8) -0.0079(4)
H4G H -0.2160 1.1993 -0.0130
N2_2 N 0.6662(7) 1.0000 0.0000
O1K O 0.3659(7) 0.4597(10) 0.0467(3)
O2K O 0.3943(6) 0.5670(8) 0.1244(2)
O2G O 0.5670(8) 1.1727(5) -0.0423(2)
C7K C 0.3377(8) 0.5247(11) 0.0793(3)
C8K C 0.2192(8) 0.5517(12) 0.0672(3)
H5K H 0.2229 0.5744 0.0296
H6K H 0.1318 0.4664 0.0734
O4G O 0.4123(8) 0.8442(6) -0.0819(3)
H9G H 0.4530 0.8083 -0.1026
H10G H 0.4282 0.9224 -0.0989
O3 O 0.8564(8) 1.3083(10) 0.1055(3)
H7 H 0.8587 1.3385 0.1351
H8 H 0.8099 1.3194 0.0782
loop_
_geom_bond_atom_site_label_1
_geom_bond_atom_site_label_2
_geom_bond_site_symmetry_1
_geom_bond_site_symmetry_2
Cu1 N1 1_555 1_555
N1 C1 1_555 1_555
C1 H1 1_555 1_555
C2 C1 1_555 1_555
H2 C2 1_555 1_555
C3 C2 1_555 1_555
C4 C3 1_555 1_555
C5 C4 1_555 1_555
H3 C5 1_555 1_555
C6 C5 1_555 1_555
H4 C6 1_555 1_555
N2 C6 1_555 1_555
O1 C7 1_555 1_555
O2 Cu1 1_555 1_555
C7 O2 1_555 1_555
C8 C7 1_555 1_555
H5 C8 1_555 1_555
H6 C8 1_555 1_555
O3 H7 1_555 1_555
H8 O3 1_555 1_555
O4 Cu1 1_555 1_555
H9 O4 1_555 1_555
H10 O4 1_555 1_555
Cu1_2 N2 1_555 1_555
Cu1E O2K 1_555 1_555
C1G N1 1_555 1_555
H1G C1G 1_555 1_555
C2G C3 1_555 1_555
H2G C2G 1_555 1_555
C5G C4 1_555 1_555
H3G C5G 1_555 1_555
C6G N2 1_555 1_555
H4G C6G 1_555 1_555
N2_2 Cu1 1_555 1_555
O1K C7K 1_555 1_555
O2K C7K 1_555 1_555
O2G Cu1 1_555 1_555
C7K C8K 1_555 1_555
C8K C8 1_555 1_555
H5K C8K 1_555 1_555
H6K C8K 1_555 1_555
O4G Cu1 1_555 1_555
H9G O4G 1_555 1_555
H10G O4G 1_555 1_555
C1G C2G 1_555 1_555
C5G C6G 1_555 1_555

#END
