
#######################################################################
#
#                 Cambridge Crystallographic Data Centre
#                                CCDC 
#
#######################################################################
#
# If this CIF has been generated from an entry in the Cambridge 
# Structural Database, then it will include bibliographic, chemical, 
# crystal, experimental, refinement or atomic coordinate data resulting 
# from the CCDC's data processing and validation procedures.
#
#######################################################################

data_UKUVOL09
_symmetry_cell_setting           hexagonal
_symmetry_space_group_name_H-M   'P 61 2 2'
_symmetry_Int_Tables_number      178
_space_group_name_Hall           "P 61 2' (0,0,5)"
loop_
_symmetry_equiv_pos_site_id
_symmetry_equiv_pos_as_xyz
1 x,y,z
2 -y,x-y,1/3+z
3 -x+y,-x,2/3+z
4 -x,-y,1/2+z
5 y,-x+y,5/6+z
6 x-y,x,1/6+z
7 y,x,1/3-z
8 x-y,-y,-z
9 -x,-x+y,2/3-z
10 -y,-x,5/6-z
11 -x+y,y,1/2-z
12 x,x-y,1/6-z
_cell_length_a                   11.0775(10)
_cell_length_b                   11.0775(10)
_cell_length_c                   24.974(5)
_cell_angle_alpha                90
_cell_angle_beta                 90
_cell_angle_gamma                120
_cell_volume                     2654.01
loop_
_atom_site_label
_atom_site_type_symbol
_atom_site_fract_x
_atom_site_fract_y
_atom_site_fract_z
Cu1 Cu 0.48536(5) 1.0000 0.0000
C1 C 0.1763(4) 1.1202(4) 0.01114(17)
H1 H 0.1776 1.2027 0.0194
C2 C -0.2142(4) 1.1172(4) -0.00750(19)
H2 H -0.2154 1.1998 -0.0124
O1 O 0.3951(3) 0.8281(3) 0.04213(11)
N1 N 0.3029(3) 1.0000 0.0000
C3 C 0.2187(4) 0.6661(4) 0.09944(16)
H3 H 0.2235 0.6471 0.1371
H4 H 0.1308 0.6634 0.0937
C4 C 0.0509(4) 1.0000 0.0000
C5 C -0.0818(4) 1.0000 0.0000
O2 O 0.3654(4) 0.9067(3) 0.12011(12)
N2 N -0.3343(3) 1.0000 0.0000
C6 C -0.0871(4) 1.1211(4) -0.0084(2)
H5 H -0.0054 1.2049 -0.0146
C7 C 0.2991(4) 1.1165(4) 0.00979(16)
H6 H 0.3825 1.1986 0.0160
O3 O 0.5678(3) 1.1558(3) 0.08195(13)
H7 H 0.6412 1.1756 0.0995
H8 H 0.4999 1.0846 0.0963
C8 C 0.3364(4) 0.8121(4) 0.08710(16)
Cu1_2 Cu -0.51464(5) 1.0000 0.0000
Cu1E Cu 0.48536(5) 0.48536(5) 0.1667
C1G C 0.0561(6) 0.8798(4) -0.01114(17)
H1G H -0.0251 0.7973 -0.0194
C2G C -0.3314(6) 0.8828(4) 0.00750(19)
H2G H -0.4152 0.8002 0.0124
O1K O 0.3951(3) 0.5670(4) 0.12454(11)
O1G O 0.5670(4) 1.1719(3) -0.04213(11)
C3K C 0.2187(4) 0.5526(6) 0.06723(16)
H3K H 0.2235 0.5764 0.0296
H4K H 0.1308 0.4674 0.0730
O2K O 0.3654(4) 0.4587(5) 0.04656(12)
N2_2 N 0.6657(3) 1.0000 0.0000
C6G C -0.2082(6) 0.8789(4) 0.0084(2)
H5G H -0.2103 0.7951 0.0146
C7G C 0.1826(6) 0.8835(4) -0.00979(16)
H6G H 0.1839 0.8014 -0.0160
O3G O 0.4120(4) 0.8442(3) -0.08195(13)
H7G H 0.4656 0.8244 -0.0995
H8G H 0.4153 0.9154 -0.0963
C8K C 0.3364(4) 0.5243(6) 0.07957(16)
O4 O 0.3079(6) 0.8568(4) 0.22740(16)
H9 H 0.3063 0.8356 0.2602
H10 H 0.3525 0.8253 0.2102
loop_
_geom_bond_atom_site_label_1
_geom_bond_atom_site_label_2
_geom_bond_site_symmetry_1
_geom_bond_site_symmetry_2
Cu1 O1 1_555 1_555
C1 H1 1_555 1_555
C2 H2 1_555 1_555
O1 C8 1_555 1_555
N1 Cu1 1_555 1_555
C3 H3 1_555 1_555
H4 C3 1_555 1_555
C4 C1 1_555 1_555
C5 C4 1_555 1_555
O2 C8 1_555 1_555
N2 C2 1_555 1_555
C6 C2 1_555 1_555
H5 C6 1_555 1_555
C7 C1 1_555 1_555
H6 C7 1_555 1_555
O3 Cu1 1_555 1_555
H7 O3 1_555 1_555
H8 O3 1_555 1_555
O4 H9 1_555 1_555
H10 O4 1_555 1_555
C8 C3 1_555 1_555
Cu1_2 N2 1_555 1_555
Cu1E O1K 1_555 1_555
C1G C4 1_555 1_555
H1G C1G 1_555 1_555
C2G N2 1_555 1_555
H2G C2G 1_555 1_555
O1K C8K 1_555 1_555
O1G Cu1 1_555 1_555
C3K C3 1_555 1_555
H3K C3K 1_555 1_555
H4K C3K 1_555 1_555
O2K C8K 1_555 1_555
N2_2 Cu1 1_555 1_555
C6G C5 1_555 1_555
H5G C6G 1_555 1_555
C7G N1 1_555 1_555
H6G C7G 1_555 1_555
O3G Cu1 1_555 1_555
H7G O3G 1_555 1_555
H8G O3G 1_555 1_555
C8K C3K 1_555 1_555
N1 C7 1_555 1_555
C5 C6 1_555 1_555
C1G C7G 1_555 1_555
C2G C6G 1_555 1_555

#END
