
#######################################################################
#
#                 Cambridge Crystallographic Data Centre
#                                CCDC 
#
#######################################################################
#
# If this CIF has been generated from an entry in the Cambridge 
# Structural Database, then it will include bibliographic, chemical, 
# crystal, experimental, refinement or atomic coordinate data resulting 
# from the CCDC's data processing and validation procedures.
#
#######################################################################

data_UKUVOL14
_symmetry_cell_setting           hexagonal
_symmetry_space_group_name_H-M   'P 61 2 2'
_symmetry_Int_Tables_number      178
_space_group_name_Hall           "P 61 2' (0,0,5)"
loop_
_symmetry_equiv_pos_site_id
_symmetry_equiv_pos_as_xyz
1 x,y,z
2 -y,x-y,1/3+z
3 -x+y,-x,2/3+z
4 -x,-y,1/2+z
5 y,-x+y,5/6+z
6 x-y,x,1/6+z
7 y,x,1/3-z
8 x-y,-y,-z
9 -x,-x+y,2/3-z
10 -y,-x,5/6-z
11 -x+y,y,1/2-z
12 x,x-y,1/6-z
_cell_length_a                   11.0342(9)
_cell_length_b                   11.0342(9)
_cell_length_c                   24.924(4)
_cell_angle_alpha                90
_cell_angle_beta                 90
_cell_angle_gamma                120
_cell_volume                     2628.03
loop_
_atom_site_label
_atom_site_type_symbol
_atom_site_fract_x
_atom_site_fract_y
_atom_site_fract_z
Cu1 Cu 0.51461(2) 0.51461(2) 0.1667
N1 N 0.33407(18) 0.33407(18) 0.1667
O1 O 0.43158(18) 0.58654(19) 0.08492(7)
H1 H 0.4888 0.5843 0.0627
H2 H 0.3993 0.6357 0.0717
C1 C 0.3310(2) 0.2135(2) 0.15892(11)
H3 H 0.4150 0.2146 0.1537
C2 C 0.2079(2) 0.0867(2) 0.15830(11)
H4 H 0.2098 0.0046 0.1522
O2 O 0.6352(2) 0.5425(2) 0.04678(7)
C3 C 0.7815(2) 0.4481(2) 0.06698(9)
H5 H 0.7763 0.4239 0.0293
H6 H 0.8698 0.5337 0.0726
C4 C 0.6641(2) 0.4757(2) 0.07961(9)
C5 C -0.0510(2) -0.0510(2) 0.1667
C6 C 0.0818(2) 0.0818(2) 0.1667
C7 C -0.0564(2) -0.1766(2) 0.17755(9)
H7 H 0.0252 -0.1781 0.1854
N2 N -0.30300(19) -0.30300(19) 0.1667
C8 C -0.1827(2) -0.2990(2) 0.17669(9)
H10 H -0.1841 -0.3826 0.1834
O4 O 0.60527(15) 0.43308(15) 0.12450(6)
Cu1_2 Cu -0.48539(2) -0.48539(2) 0.1667
Cu1D Cu 0.51461(2) 0.00000(3) 0.0000
O1F O 0.58654(19) 0.43158(18) 0.24841(7)
H1F H 0.5843 0.4888 0.2706
H2F H 0.6357 0.3993 0.2616
C1F C 0.2135(2) 0.3310(2) 0.17441(11)
H3F H 0.2146 0.4150 0.1796
C2F C 0.0867(2) 0.2079(2) 0.17503(11)
H4F H 0.0046 0.2098 0.1811
O2K O 0.6352(2) 0.0927(3) 0.11989(7)
C3K C 0.7815(2) 0.3334(3) 0.09969(9)
H5K H 0.7763 0.3524 0.1374
H6K H 0.8698 0.3361 0.0941
C4K C 0.6641(2) 0.1884(3) 0.08706(9)
C7F C -0.1766(2) -0.0564(2) 0.15578(9)
H7F H -0.1781 0.0252 0.1479
N2_2 N 0.69700(19) 0.69700(19) 0.1667
C8F C -0.2990(2) -0.1827(2) 0.15664(9)
H10F H -0.3826 -0.1841 0.1499
O4K O 0.60527(15) 0.17219(21) 0.04217(6)
O4F O 0.43308(15) 0.60527(15) 0.20883(6)
O3 O 0.1434(2) 0.6890(3) 0.10479(8)
H8 H 0.1266 0.6496 0.1353
H9 H 0.2156 0.7696 0.1075
loop_
_geom_bond_atom_site_label_1
_geom_bond_atom_site_label_2
_geom_bond_site_symmetry_1
_geom_bond_site_symmetry_2
Cu1 N1 1_555 1_555
N1 C1 1_555 1_555
O1 Cu1 1_555 1_555
H1 O1 1_555 1_555
H2 O1 1_555 1_555
C1 H3 1_555 1_555
C2 C1 1_555 1_555
H4 C2 1_555 1_555
O2 C4 1_555 1_555
C3 H5 1_555 1_555
H6 C3 1_555 1_555
C4 C3 1_555 1_555
C5 C6 1_555 1_555
C6 C2 1_555 1_555
C7 C5 1_555 1_555
H7 C7 1_555 1_555
O3 H8 1_555 1_555
H9 O3 1_555 1_555
N2 C8 1_555 1_555
C8 C7 1_555 1_555
H10 C8 1_555 1_555
O4 Cu1 1_555 1_555
Cu1_2 N2 1_555 1_555
Cu1D O4K 1_555 1_555
O1F Cu1 1_555 1_555
H1F O1F 1_555 1_555
H2F O1F 1_555 1_555
C1F N1 1_555 1_555
H3F C1F 1_555 1_555
C2F C6 1_555 1_555
H4F C2F 1_555 1_555
O2K C4K 1_555 1_555
C3K C3 1_555 1_555
H5K C3K 1_555 1_555
H6K C3K 1_555 1_555
C4K C3K 1_555 1_555
C7F C5 1_555 1_555
H7F C7F 1_555 1_555
N2_2 Cu1 1_555 1_555
C8F N2 1_555 1_555
H10F C8F 1_555 1_555
O4K C4K 1_555 1_555
O4F Cu1 1_555 1_555
C4 O4 1_555 1_555
C1F C2F 1_555 1_555
C7F C8F 1_555 1_555

#END
