
#######################################################################
#
#                 Cambridge Crystallographic Data Centre
#                                CCDC 
#
#######################################################################
#
# If this CIF has been generated from an entry in the Cambridge 
# Structural Database, then it will include bibliographic, chemical, 
# crystal, experimental, refinement or atomic coordinate data resulting 
# from the CCDC's data processing and validation procedures.
#
#######################################################################

data_UKUVOL06
_symmetry_cell_setting           hexagonal
_symmetry_space_group_name_H-M   'P 61 2 2'
_symmetry_Int_Tables_number      178
_space_group_name_Hall           "P 61 2' (0,0,5)"
loop_
_symmetry_equiv_pos_site_id
_symmetry_equiv_pos_as_xyz
1 x,y,z
2 -y,x-y,1/3+z
3 -x+y,-x,2/3+z
4 -x,-y,1/2+z
5 y,-x+y,5/6+z
6 x-y,x,1/6+z
7 y,x,1/3-z
8 x-y,-y,-z
9 -x,-x+y,2/3-z
10 -y,-x,5/6-z
11 -x+y,y,1/2-z
12 x,x-y,1/6-z
_cell_length_a                   11.0560(9)
_cell_length_b                   11.0560(9)
_cell_length_c                   24.969(4)
_cell_angle_alpha                90
_cell_angle_beta                 90
_cell_angle_gamma                120
_cell_volume                     2643.19
loop_
_atom_site_label
_atom_site_type_symbol
_atom_site_fract_x
_atom_site_fract_y
_atom_site_fract_z
Cu1 Cu 0.48536(4) 1.0000 0.0000
C1 C 1.0509(3) 1.0000 0.0000
C2 C 1.1769(3) 1.1205(3) 0.01110(13)
H1 H 1.1785 1.2033 0.0192
C3 C 1.2990(3) 1.1162(3) 0.00995(13)
H2 H 1.3825 1.1983 0.0164
O1 O 0.3947(2) 0.8277(2) 0.04202(9)
N1 N 0.6657(3) 1.0000 0.0000
C4 C 0.3359(3) 0.8118(3) 0.08699(12)
C5 C 0.2185(3) 0.6668(3) 0.09947(12)
H3 H 0.1306 0.6642 0.0936
H4 H 0.2232 0.6481 0.1371
N2 N 1.3032(3) 1.0000 0.0000
O2 O 0.4132(3) 0.8454(3) -0.08178(10)
H5 H 0.3873 0.7687 -0.0980
H6 H 0.4206 0.9060 -0.1045
O3 O 0.3651(3) 0.9069(3) 0.12023(10)
C6 C 0.9182(3) 1.0000 0.0000
C7 C 0.6688(3) 0.8827(3) 0.00763(15)
H9 H 0.5849 0.7999 0.0126
C8 C 0.7917(3) 0.8788(3) 0.00848(16)
H10 H 0.7897 0.7948 0.0147
Cu1_2 Cu 1.48536(4) 1.0000 0.0000
Cu1E Cu 0.48536(4) 0.48536(4) 0.1667
C2G C 1.0564(4) 0.8795(3) -0.01110(13)
H1G H 0.9752 0.7967 -0.0192
C3G C 1.1828(4) 0.8838(3) -0.00995(13)
H2G H 1.1842 0.8017 -0.0164
O1K O 0.3947(2) 0.5670(3) 0.12465(9)
O1G O 0.5670(3) 1.1723(2) -0.04202(9)
C4K C 0.3359(3) 0.5241(4) 0.07968(12)
C5K C 0.2185(3) 0.5517(4) 0.06720(12)
H3K H 0.1306 0.4664 0.0731
H4K H 0.2232 0.5751 0.0296
N2_2 N 0.3032(3) 1.0000 0.0000
O2G O 0.5678(4) 1.1546(3) 0.08178(10)
H5G H 0.6186 1.2313 0.0980
H6G H 0.5146 1.0940 0.1045
O3K O 0.3651(3) 0.4582(4) 0.04644(10)
C7G C 0.7861(4) 1.1173(3) -0.00763(15)
H9G H 0.7850 1.2001 -0.0126
C8G C 0.9129(4) 1.1212(3) -0.00848(16)
H10G H 0.9949 1.2052 -0.0147
O4 O -0.1442(4) 0.5480(4) 0.06120(12)
H7 H -0.1347 0.5449 0.0275
H8 H -0.1433 0.4782 0.0750
loop_
_geom_bond_atom_site_label_1
_geom_bond_atom_site_label_2
_geom_bond_site_symmetry_1
_geom_bond_site_symmetry_2
Cu1 O1 1_555 1_555
C1 C2 1_555 1_555
C2 H1 1_555 1_555
C3 C2 1_555 1_555
H2 C3 1_555 1_555
O1 C4 1_555 1_555
N1 Cu1 1_555 1_555
C4 C5 1_555 1_555
C5 H3 1_555 1_555
H4 C5 1_555 1_555
N2 C3 1_555 1_555
O2 Cu1 1_555 1_555
H5 O2 1_555 1_555
H6 O2 1_555 1_555
O3 C4 1_555 1_555
C6 C1 1_555 1_555
O4 H7 1_555 1_555
H8 O4 1_555 1_555
C7 N1 1_555 1_555
H9 C7 1_555 1_555
C8 C6 1_555 1_555
H10 C8 1_555 1_555
Cu1_2 N2 1_555 1_555
Cu1E O1K 1_555 1_555
C2G C1 1_555 1_555
H1G C2G 1_555 1_555
C3G N2 1_555 1_555
H2G C3G 1_555 1_555
O1K C4K 1_555 1_555
O1G Cu1 1_555 1_555
C4K C5K 1_555 1_555
C5K C5 1_555 1_555
H3K C5K 1_555 1_555
H4K C5K 1_555 1_555
N2_2 Cu1 1_555 1_555
O2G Cu1 1_555 1_555
H5G O2G 1_555 1_555
H6G O2G 1_555 1_555
O3K C4K 1_555 1_555
C7G N1 1_555 1_555
H9G C7G 1_555 1_555
C8G C6 1_555 1_555
H10G C8G 1_555 1_555
C7 C8 1_555 1_555
C2G C3G 1_555 1_555
C7G C8G 1_555 1_555

#END
