
#######################################################################
#
#                 Cambridge Crystallographic Data Centre
#                                CCDC 
#
#######################################################################
#
# If this CIF has been generated from an entry in the Cambridge 
# Structural Database, then it will include bibliographic, chemical, 
# crystal, experimental, refinement or atomic coordinate data resulting 
# from the CCDC's data processing and validation procedures.
#
#######################################################################

data_UKUVOL
_symmetry_cell_setting           hexagonal
_symmetry_space_group_name_H-M   'P 61'
_symmetry_Int_Tables_number      169
_space_group_name_Hall           'P 61'
loop_
_symmetry_equiv_pos_site_id
_symmetry_equiv_pos_as_xyz
1 x,y,z
2 -y,x-y,1/3+z
3 -x+y,-x,2/3+z
4 -x,-y,1/2+z
5 y,-x+y,5/6+z
6 x-y,x,1/6+z
_cell_length_a                   11.0660(16)
_cell_length_b                   11.0660(16)
_cell_length_c                   24.965(5)
_cell_angle_alpha                90
_cell_angle_beta                 90
_cell_angle_gamma                120
_cell_volume                     2647.55
loop_
_atom_site_label
_atom_site_type_symbol
_atom_site_fract_x
_atom_site_fract_y
_atom_site_fract_z
Cu1 Cu 0.48542(9) 0.00000(12) 0.16981(9)
N1 N 0.6652(6) 0.0007(7) 0.1695(4)
C1 C 0.6687(9) -0.1171(10) 0.1775(5)
H1 H 0.5851 -0.1998 0.1830
C2 C 0.7918(8) -0.1203(9) 0.1780(5)
H2 H 0.7902 -0.2040 0.1840
C3 C 0.9178(7) 0.0008(10) 0.1693(5)
C4 C 0.9128(8) 0.1192(9) 0.1614(5)
H3 H 0.9950 0.2029 0.1555
C5 C 0.7879(9) 0.1171(10) 0.1620(5)
H4 H 0.7884 0.2006 0.1570
N2 N 1.3034(6) 0.0002(7) 0.1692(4)
C6 C 1.1832(8) -0.1155(10) 0.1596(4)
H5 H 1.1843 -0.1977 0.1531
C7 C 1.0574(8) -0.1192(9) 0.1588(4)
H6 H 0.9761 -0.2023 0.1511
C8 C 1.0511(8) 0.0005(10) 0.1695(5)
C9 C 1.1771(8) 0.1208(9) 0.1802(4)
H7 H 1.1792 0.2042 0.1875
C10 C 1.2986(8) 0.1156(10) 0.1797(4)
H8 H 1.3819 0.1971 0.1872
O1 O 0.4159(7) -0.1557(6) 0.0876(3)
O2 O 0.5708(6) 0.1558(7) 0.2512(4)
O3 O 0.5672(5) 0.1716(6) 0.1276(3)
O4 O 0.4576(8) 0.0926(7) 0.0499(3)
C11 C 0.5248(8) 0.1879(9) 0.0829(4)
C12 C 0.5523(9) 0.3340(8) 0.0697(4)
H9 H 0.5773 0.3527 0.0321
H10 H 0.4667 0.3364 0.0749
C13 C 0.6668(9) 0.4489(9) 0.1030(4)
H11 H 0.6646 0.5345 0.0974
H12 H 0.6476 0.4245 0.1406
C14 C 0.8110(9) 0.4756(8) 0.0903(4)
O5 O 0.8279(6) 0.4330(5) 0.0448(3)
O6 O 0.9075(6) 0.5421(7) 0.1226(3)
H13 H 0.4259 -0.0862 0.0720
H14 H 0.3316 -0.2100 0.0933
H15 H 0.5067 0.0854 0.2657
H16 H 0.5425 0.2007 0.2536
N2_2 N 0.3034(6) 0.0002(7) 0.1692(4)
O5E O 0.3949(8) -0.1721(6) 0.2115(3)
Cu1_2 Cu 1.48542(9) 0.00000(12) 0.16981(9)
Cu1D Cu 1.00000(12) 0.51458(15) 0.00314(9)
O7 O 0.5480(10) 0.6932(11) 0.0652(4)
H17 H 0.4795 0.6308 0.0742
H18 H 0.5445 0.6744 0.0303
O8 O 0.3109(11) 0.4545(10) 0.1080(4)
H19 H 0.2439 0.4643 0.1058
H20 H 0.3261 0.4528 0.1427
loop_
_geom_bond_atom_site_label_1
_geom_bond_atom_site_label_2
_geom_bond_site_symmetry_1
_geom_bond_site_symmetry_2
Cu1 N1 1_555 1_555
N1 C1 1_555 1_555
C1 H1 1_555 1_555
C2 C1 1_555 1_555
H2 C2 1_555 1_555
C3 C2 1_555 1_555
C4 C3 1_555 1_555
H3 C4 1_555 1_555
C5 N1 1_555 1_555
H4 C5 1_555 1_555
N2 C6 1_555 1_555
C6 H5 1_555 1_555
C7 C6 1_555 1_555
H6 C7 1_555 1_555
C8 C3 1_555 1_555
C9 C8 1_555 1_555
H7 C9 1_555 1_555
C10 N2 1_555 1_555
H8 C10 1_555 1_555
O1 Cu1 1_555 1_555
O2 Cu1 1_555 1_555
O3 Cu1 1_555 1_555
O4 C11 1_555 1_555
C11 O3 1_555 1_555
C12 C11 1_555 1_555
H9 C12 1_555 1_555
H10 C12 1_555 1_555
C13 C12 1_555 1_555
H11 C13 1_555 1_555
H12 C13 1_555 1_555
C14 C13 1_555 1_555
O5 C14 1_555 1_555
O6 C14 1_555 1_555
O7 H17 1_555 1_555
O8 H19 1_555 1_555
H13 O1 1_555 1_555
H14 O1 1_555 1_555
H15 O2 1_555 1_555
H16 O2 1_555 1_555
H18 O7 1_555 1_555
H20 O8 1_555 1_555
N2_2 Cu1 1_555 1_555
O5E Cu1 1_555 1_555
Cu1_2 N2 1_555 1_555
Cu1D O5 1_555 1_555
C4 C5 1_555 1_555
C7 C8 1_555 1_555
C9 C10 1_555 1_555

#END
