
#######################################################################
#
#                 Cambridge Crystallographic Data Centre
#                                CCDC 
#
#######################################################################
#
# If this CIF has been generated from an entry in the Cambridge 
# Structural Database, then it will include bibliographic, chemical, 
# crystal, experimental, refinement or atomic coordinate data resulting 
# from the CCDC's data processing and validation procedures.
#
#######################################################################

data_ULAVOT
_symmetry_cell_setting           triclinic
_symmetry_space_group_name_H-M   'P -1'
_symmetry_Int_Tables_number      2
_space_group_name_Hall           '-P 1'
loop_
_symmetry_equiv_pos_site_id
_symmetry_equiv_pos_as_xyz
1 x,y,z
2 -x,-y,-z
_cell_length_a                   10.4688(12)
_cell_length_b                   11.6327(14)
_cell_length_c                   12.8300(15)
_cell_angle_alpha                78.672(3)
_cell_angle_beta                 87.609(3)
_cell_angle_gamma                67.571(3)
_cell_volume                     1415.16
loop_
_atom_site_label
_atom_site_type_symbol
_atom_site_fract_x
_atom_site_fract_y
_atom_site_fract_z
C1 C 0.7599(3) 1.0000(3) 0.5809(2)
H1 H 0.7594 0.9263 0.6281
C2 C 0.8641(3) 1.0426(3) 0.5935(2)
H2 H 0.9329 0.9984 0.6488
C3 C 0.8680(3) 1.1497(3) 0.5255(2)
C4 C 0.7680(3) 1.2070(3) 0.4436(2)
H3 H 0.7692 1.2784 0.3932
C5 C 0.6665(3) 1.1597(3) 0.4355(2)
H4 H 0.5990 1.1999 0.3789
C6 C 0.9755(3) 1.2030(3) 0.5399(3)
H5 H 0.9338 1.2775 0.5729
H6 H 1.0100 1.2278 0.4704
H7 H 1.0523 1.1385 0.5856
C7 C 0.6771(3) 0.7248(3) 0.5052(2)
H8 H 0.6453 0.7125 0.5754
C8 C 0.7656(4) 0.6209(3) 0.4678(2)
H9 H 0.7943 0.5392 0.5123
C9 C 0.8136(3) 0.6346(3) 0.3647(2)
C10 C 0.9073(4) 0.5230(3) 0.3195(3)
H10 H 0.8548 0.4736 0.3050
H11 H 0.9834 0.4695 0.3709
H12 H 0.9449 0.5532 0.2533
C11 C 0.7700(3) 0.7568(3) 0.3053(2)
H13 H 0.8015 0.7715 0.2353
C12 C 0.6808(3) 0.8575(3) 0.3476(2)
H14 H 0.6517 0.9402 0.3048
C13 C 0.4334(3) 0.8651(3) 0.2020(2)
H15 H 0.3870 0.9490 0.2138
C14 C 0.4296(3) 0.7646(3) 0.2792(2)
H16 H 0.3811 0.7806 0.3424
C15 C 0.4963(3) 0.6413(3) 0.2645(2)
C16 C 0.5674(4) 0.6247(3) 0.1714(2)
H17 H 0.6166 0.5416 0.1585
C17 C 0.5667(3) 0.7287(3) 0.0975(2)
H18 H 0.6156 0.7150 0.0342
C18 C 0.4934(4) 0.5303(3) 0.3466(2)
H19 H 0.5735 0.5000 0.3960
H20 H 0.4967 0.4620 0.3112
H21 H 0.4082 0.5569 0.3860
C19 C 0.7394(3) 1.0233(3) 0.0928(2)
H22 H 0.6692 1.0967 0.1105
C20 C 0.8748(3) 0.9916(3) 0.1272(2)
H23 H 0.8958 1.0428 0.1676
C21 C 0.9792(3) 0.8852(3) 0.1023(2)
C22 C 0.9428(3) 0.8158(3) 0.0406(2)
H24 H 1.0113 0.7430 0.0207
C23 C 0.8054(3) 0.8539(3) 0.0084(2)
H25 H 0.7822 0.8067 -0.0349
C24 C 1.1264(3) 0.8448(3) 0.1420(2)
H26 H 1.1478 0.9201 0.1405
H27 H 1.1893 0.7918 0.0962
H28 H 1.1378 0.7964 0.2150
Cu1 Cu 0.5000 1.0000 0.5000
Cu2 Cu 0.5000 1.0000 0.0000
N1 N 0.6596(2) 1.0589(2) 0.50462(17)
N2 N 0.6332(2) 0.8438(2) 0.44667(17)
N3 N 0.5002(2) 0.8479(2) 0.11114(17)
N4 N 0.7039(2) 0.9544(2) 0.03565(17)
O1 O 0.4432(2) 1.11465(19) 0.32076(14)
O2 O 0.4297(2) 1.1372(2) 0.13099(15)
O3 O 0.2438(2) 1.2743(2) 0.21897(18)
O4 O 0.4641(3) 1.2969(2) 0.20710(19)
S1 S 0.39467(7) 1.20521(6) 0.21937(5)
C1A C 0.2401(3) 1.0000(3) 0.4191(2)
H1A H 0.2406 1.0737 0.3719
C2A C 0.1359(3) 0.9574(3) 0.4065(2)
H2A H 0.0671 1.0016 0.3512
C3A C 0.1320(3) 0.8503(3) 0.4745(2)
C4A C 0.2320(3) 0.7930(3) 0.5564(2)
H3A H 0.2308 0.7216 0.6068
C5A C 0.3335(3) 0.8403(3) 0.5645(2)
H4A H 0.4010 0.8001 0.6211
C6A C 0.0245(3) 0.7970(3) 0.4601(3)
H5A H 0.0662 0.7225 0.4271
H6A H -0.0100 0.7722 0.5296
H7A H -0.0523 0.8615 0.4144
C7A C 0.3229(3) 1.2752(3) 0.4948(2)
H8A H 0.3547 1.2875 0.4246
C8A C 0.2344(4) 1.3791(3) 0.5322(2)
H9A H 0.2057 1.4608 0.4877
C9A C 0.1864(3) 1.3654(3) 0.6353(2)
C10A C 0.0927(4) 1.4770(3) 0.6805(3)
H10A H 0.1452 1.5264 0.6950
H11A H 0.0166 1.5305 0.6291
H12A H 0.0551 1.4468 0.7467
C11A C 0.2300(3) 1.2432(3) 0.6947(2)
H13A H 0.1985 1.2285 0.7647
C12A C 0.3192(3) 1.1425(3) 0.6524(2)
H14A H 0.3483 1.0598 0.6952
C13A C 0.5666(3) 1.1349(3) -0.2020(2)
H15A H 0.6130 1.0510 -0.2138
C14A C 0.5704(3) 1.2354(3) -0.2792(2)
H16A H 0.6189 1.2194 -0.3424
C15A C 0.5037(3) 1.3587(3) -0.2645(2)
C16A C 0.4326(4) 1.3753(3) -0.1714(2)
H17A H 0.3834 1.4584 -0.1585
C17A C 0.4333(3) 1.2713(3) -0.0975(2)
H18A H 0.3844 1.2850 -0.0342
C18A C 0.5066(4) 1.4697(3) -0.3466(2)
H19A H 0.4265 1.5000 -0.3960
H20A H 0.5033 1.5380 -0.3112
H21A H 0.5918 1.4431 -0.3860
C19A C 0.2606(3) 0.9767(3) -0.0928(2)
H22A H 0.3308 0.9033 -0.1105
C20A C 0.1252(3) 1.0084(3) -0.1272(2)
H23A H 0.1042 0.9572 -0.1676
C21A C 0.0208(3) 1.1148(3) -0.1023(2)
C22A C 0.0572(3) 1.1842(3) -0.0406(2)
H24A H -0.0113 1.2570 -0.0207
C23A C 0.1946(3) 1.1461(3) -0.0084(2)
H25A H 0.2178 1.1933 0.0349
C24A C -0.1264(3) 1.1552(3) -0.1420(2)
H26A H -0.1478 1.0799 -0.1405
H27A H -0.1893 1.2082 -0.0962
H28A H -0.1378 1.2036 -0.2150
Cu1_2 Cu 0.5000 1.0000 -0.5000
N1A N 0.3404(2) 0.9411(2) 0.49538(17)
N2A N 0.3668(2) 1.1562(2) 0.55333(17)
N3A N 0.4998(2) 1.1521(2) -0.11114(17)
N4A N 0.2961(2) 1.0456(2) -0.03565(17)
O1A O 0.5568(2) 0.88535(19) -0.32076(14)
O1A_2 O 0.5568(2) 0.88535(19) 0.67924(14)
O2A O 0.5703(2) 0.8628(2) -0.13099(15)
O3A O 0.7562(2) 0.7257(2) -0.21897(18)
O4A O 0.5359(3) 0.7031(2) -0.20710(19)
S1A S 0.60533(7) 0.79479(6) -0.21937(5)
O5 O 0.7247(3) 0.3043(2) 0.1438(2)
H29 H 0.7007 0.3519 0.0826
H30 H 0.6529 0.2956 0.1714
O6 O 0.3674(3) 0.5172(3) 0.0548(2)
H31 H 0.4103 0.5011 -0.0008
H32 H 0.4034 0.4467 0.0972
O7 O 0.9960(3) 0.2146(3) 0.2479(2)
H33 H 0.9293 0.2632 0.2054
H34 H 1.0552 0.2449 0.2228
O8 O 0.1306(4) 0.4630(4) 0.0397(4)
H35 H 0.1109 0.4722 0.1027
H36 H 0.1842 0.5027 0.0261
O9 O 0.2000(7) 0.5327(6) 0.2704(5)
H37 H 0.2311 0.5640 0.2151
H38 H 0.2166 0.4593 0.2590
H39? H 0.2905 0.5147 0.0399
H40? H 0.0507 0.4844 0.0125
loop_
_geom_bond_atom_site_label_1
_geom_bond_atom_site_label_2
_geom_bond_site_symmetry_1
_geom_bond_site_symmetry_2
C1 H1 1_555 1_555
C2 C1 1_555 1_555
H2 C2 1_555 1_555
C3 C2 1_555 1_555
C4 C3 1_555 1_555
H3 C4 1_555 1_555
C5 C4 1_555 1_555
H4 C5 1_555 1_555
C6 C3 1_555 1_555
H5 C6 1_555 1_555
H6 C6 1_555 1_555
H7 C6 1_555 1_555
C7 H8 1_555 1_555
C8 C7 1_555 1_555
H9 C8 1_555 1_555
C9 C8 1_555 1_555
C10 C9 1_555 1_555
H10 C10 1_555 1_555
H11 C10 1_555 1_555
H12 C10 1_555 1_555
C11 C9 1_555 1_555
H13 C11 1_555 1_555
C12 C11 1_555 1_555
H14 C12 1_555 1_555
C13 H15 1_555 1_555
C14 C13 1_555 1_555
H16 C14 1_555 1_555
C15 C14 1_555 1_555
C16 C15 1_555 1_555
H17 C16 1_555 1_555
C17 C16 1_555 1_555
H18 C17 1_555 1_555
C18 C15 1_555 1_555
H19 C18 1_555 1_555
H20 C18 1_555 1_555
H21 C18 1_555 1_555
C19 H22 1_555 1_555
C20 C19 1_555 1_555
H23 C20 1_555 1_555
C21 C20 1_555 1_555
C22 C21 1_555 1_555
H24 C22 1_555 1_555
C23 C22 1_555 1_555
H25 C23 1_555 1_555
C24 C21 1_555 1_555
H26 C24 1_555 1_555
H27 C24 1_555 1_555
H28 C24 1_555 1_555
Cu1 N1 1_555 1_555
Cu2 N3 1_555 1_555
N1 C1 1_555 1_555
N2 C7 1_555 1_555
N3 C13 1_555 1_555
N4 C19 1_555 1_555
O1 Cu1 1_555 1_555
O2 Cu2 1_555 1_555
O3 S1 1_555 1_555
O4 S1 1_555 1_555
O5 H29 1_555 1_555
H30 O5 1_555 1_555
O6 H31 1_555 1_555
H32 O6 1_555 1_555
O7 H33 1_555 1_555
H34 O7 1_555 1_555
O8 H35 1_555 1_555
H36 O8 1_555 1_555
O9 H37 1_555 1_555
H38 O9 1_555 1_555
S1 O1 1_555 1_555
C1A H1A 1_555 1_555
C2A C1A 1_555 1_555
H2A C2A 1_555 1_555
C3A C2A 1_555 1_555
C4A C3A 1_555 1_555
H3A C4A 1_555 1_555
C5A C4A 1_555 1_555
H4A C5A 1_555 1_555
C6A C3A 1_555 1_555
H5A C6A 1_555 1_555
H6A C6A 1_555 1_555
H7A C6A 1_555 1_555
C7A H8A 1_555 1_555
C8A C7A 1_555 1_555
H9A C8A 1_555 1_555
C9A C8A 1_555 1_555
C10A C9A 1_555 1_555
H10A C10A 1_555 1_555
H11A C10A 1_555 1_555
H12A C10A 1_555 1_555
C11A C9A 1_555 1_555
H13A C11A 1_555 1_555
C12A C11A 1_555 1_555
H14A C12A 1_555 1_555
C13A H15A 1_555 1_555
C14A C13A 1_555 1_555
H16A C14A 1_555 1_555
C15A C14A 1_555 1_555
C16A C15A 1_555 1_555
H17A C16A 1_555 1_555
C17A C16A 1_555 1_555
H18A C17A 1_555 1_555
C18A C15A 1_555 1_555
H19A C18A 1_555 1_555
H20A C18A 1_555 1_555
H21A C18A 1_555 1_555
C19A H22A 1_555 1_555
C20A C19A 1_555 1_555
H23A C20A 1_555 1_555
C21A C20A 1_555 1_555
C22A C21A 1_555 1_555
H24A C22A 1_555 1_555
C23A C22A 1_555 1_555
H25A C23A 1_555 1_555
C24A C21A 1_555 1_555
H26A C24A 1_555 1_555
H27A C24A 1_555 1_555
H28A C24A 1_555 1_555
Cu1_2 O1A 1_555 1_555
N1A Cu1 1_555 1_555
N2A Cu1 1_555 1_555
N3A Cu2 1_555 1_555
N4A Cu2 1_555 1_555
O1A S1A 1_555 1_555
O1A_2 Cu1 1_555 1_555
O2A Cu2 1_555 1_555
O3A S1A 1_555 1_555
O4A S1A 1_555 1_555
S1A O2A 1_555 1_555
C5 N1 1_555 1_555
C12 N2 1_555 1_555
C17 N3 1_555 1_555
C23 N4 1_555 1_555
Cu1 N2 1_555 1_555
Cu2 N4 1_555 1_555
O2 S1 1_555 1_555
C1A N1A 1_555 1_555
C5A N1A 1_555 1_555
C7A N2A 1_555 1_555
C12A N2A 1_555 1_555
C13A N3A 1_555 1_555
C17A N3A 1_555 1_555
C19A N4A 1_555 1_555
C23A N4A 1_555 1_555

#END
