
#######################################################################
#
#                 Cambridge Crystallographic Data Centre
#                                CCDC 
#
#######################################################################
#
# If this CIF has been generated from an entry in the Cambridge 
# Structural Database, then it will include bibliographic, chemical, 
# crystal, experimental, refinement or atomic coordinate data resulting 
# from the CCDC's data processing and validation procedures.
#
#######################################################################

data_ULAXUB
_symmetry_cell_setting           triclinic
_symmetry_space_group_name_H-M   'P -1'
_symmetry_Int_Tables_number      2
_space_group_name_Hall           '-P 1'
loop_
_symmetry_equiv_pos_site_id
_symmetry_equiv_pos_as_xyz
1 x,y,z
2 -x,-y,-z
_cell_length_a                   10.5552(2)
_cell_length_b                   12.0275(2)
_cell_length_c                   12.4612(2)
_cell_angle_alpha                105.6860(10)
_cell_angle_beta                 96.7480(10)
_cell_angle_gamma                92.9490(10)
_cell_volume                     1506.78
loop_
_atom_site_label
_atom_site_type_symbol
_atom_site_fract_x
_atom_site_fract_y
_atom_site_fract_z
Ce1 Ce 0.969885(19) 0.972983(17) 0.817505(16)
Ce2 Ce 0.693423(19) 0.963262(18) 0.545875(17)
C1 C 0.8215(4) 0.1335(3) 0.3896(3)
C2 C 0.7819(4) 0.2362(3) 0.3509(3)
H1 H 0.7153 0.2093 0.2869
H2 H 0.8547 0.2688 0.3253
C3 C 0.7333(4) 0.3315(3) 0.4388(3)
C4 C 0.6200(4) 0.3156(3) 0.4807(4)
H3 H 0.5704 0.2452 0.4533
C5 C 0.5802(4) 0.4039(4) 0.5630(4)
H4 H 0.5045 0.3925 0.5915
C6 C 0.6527(4) 0.5085(4) 0.6023(4)
H5 H 0.6257 0.5673 0.6580
C7 C 0.7643(4) 0.5279(3) 0.5609(4)
C8 C 0.8041(4) 0.4383(3) 0.4799(4)
H6 H 0.8803 0.4500 0.4523
C9 C 0.8450(4) 0.6422(4) 0.6046(5)
H7 H 0.8711 0.6550 0.6846
H8 H 0.9222 0.6352 0.5689
C10 C 0.7854(4) 0.7485(3) 0.5882(3)
C11 C 0.6407(4) 0.9107(4) 0.8043(3)
C12 C 0.5345(4) 0.8419(4) 0.8368(4)
H9 H 0.4669 0.8925 0.8557
H10 H 0.4994 0.7798 0.7706
C13 C 0.5660(4) 0.7886(4) 0.9325(3)
C14 C 0.6567(5) 0.7105(4) 0.9286(4)
H11 H 0.7021 0.6910 0.8675
C15 C 0.6803(6) 0.6612(5) 1.0154(5)
H12 H 0.7429 0.6093 1.0131
C16 C 0.6130(5) 0.6871(5) 1.1058(4)
H13 H 0.6291 0.6509 1.1625
C17 C 0.5223(4) 0.7657(4) 1.1136(3)
C18 C 0.4988(4) 0.8160(4) 1.0256(3)
H14 H 0.4371 0.8688 1.0286
C19 C 0.4520(4) 0.7942(4) 1.2146(3)
H15 H 0.4176 0.7223 1.2255
H16 H 0.3802 0.8372 1.1991
C20 C 0.5324(4) 0.8637(4) 1.3227(3)
C21 C 0.9293(4) 1.1831(3) 0.7398(3)
C22 C 0.8979(4) 1.2973(3) 0.7189(4)
H17 H 0.8243 1.3228 0.7557
H18 H 0.8735 1.2846 0.6387
C23 C 1.0052(4) 1.3934(3) 0.7592(3)
C24 C 1.1166(4) 1.3857(4) 0.7107(4)
H19 H 1.1258 1.3210 0.6521
C25 C 1.2141(5) 1.4732(4) 0.7485(4)
H20 H 1.2887 1.4673 0.7151
C26 C 1.2020(4) 1.5698(4) 0.8358(4)
H21 H 1.2692 1.6277 0.8615
C27 C 1.0919(4) 1.5808(3) 0.8847(3)
C28 C 0.9938(4) 1.4923(3) 0.8464(3)
H22 H 0.9189 1.4990 0.8793
C29 C 1.0769(5) 1.6894(3) 0.9753(3)
H23 H 1.1572 1.7125 1.0253
H24 H 1.0124 1.6723 1.0193
C30 C 1.0393(4) 1.7894(3) 0.9306(3)
H25 H 1.231(4) 1.050(4) 0.9665(10)
H26 H 1.245(5) 1.061(5) 0.856(3)
H27 H 0.905(4) 0.933(4) 0.408(3)
H28 H 0.965(3) 0.898(5) 0.502(4)
O1 O 0.9012(3) 0.0713(2) 0.3390(2)
O2 O 0.7753(3) 0.1133(2) 0.4708(3)
O3 O 0.8387(2) 0.8457(2) 0.6504(2)
O4 O 0.6920(3) 0.7436(2) 0.5162(2)
O5 O 0.6106(3) 0.9377(2) 0.7151(2)
O6 O 0.7483(3) 0.9369(3) 0.8664(2)
O7 O 0.6493(3) 0.8820(3) 1.3289(2)
O8 O 0.4748(2) 0.8997(2) 1.4094(2)
O9 O 1.0327(3) 1.1711(2) 0.7907(2)
O10 O 0.8427(3) 1.0968(2) 0.7048(2)
O11 O 1.0126(3) 1.7751(2) 0.8285(2)
O12 O 1.0372(3) 1.8880(2) 0.9995(2)
O13 O 1.2073(3) 1.0241(3) 0.8950(3)
O14 O 0.8946(3) 0.8976(3) 0.4580(3)
Ce1A Ce 1.030115(19) 0.027017(17) 0.182495(16)
Ce1_2 Ce 0.969885(19) 1.972983(17) 0.817505(16)
Ce1A_2 Ce 1.030115(19) 2.027017(17) 1.182495(16)
Ce2_2 Ce 0.693423(19) -0.036738(18) 0.545875(17)
Ce2_3 Ce 0.693423(19) 0.963262(18) 1.545875(17)
Ce2A Ce 0.306577(19) 1.036738(18) 1.454125(17)
O1A O 1.0988(3) 0.9287(2) 0.6610(2)
O2_2 O 0.7753(3) 1.1133(2) 0.4708(3)
O7_2 O 0.6493(3) 0.8820(3) 0.3289(2)
O8A O 0.5252(2) 1.1003(2) 0.5906(2)
O8_2 O 0.4748(2) 0.8997(2) 0.4094(2)
O11_2 O 1.0126(3) 0.7751(2) 0.8285(2)
O12A O 0.9628(3) 1.1120(2) 1.0005(2)
O12_2 O 1.0372(3) 0.8880(2) 0.9995(2)
loop_
_geom_bond_atom_site_label_1
_geom_bond_atom_site_label_2
_geom_bond_site_symmetry_1
_geom_bond_site_symmetry_2
Ce1 O3 1_555 1_555
Ce2 O3 1_555 1_555
C1 C2 1_555 1_555
C2 H1 1_555 1_555
H2 C2 1_555 1_555
C3 C2 1_555 1_555
C4 C3 1_555 1_555
H3 C4 1_555 1_555
C5 C4 1_555 1_555
H4 C5 1_555 1_555
C6 C5 1_555 1_555
H5 C6 1_555 1_555
C7 C6 1_555 1_555
C8 C3 1_555 1_555
H6 C8 1_555 1_555
C9 C7 1_555 1_555
H7 C9 1_555 1_555
H8 C9 1_555 1_555
C10 C9 1_555 1_555
C11 C12 1_555 1_555
C12 H9 1_555 1_555
H10 C12 1_555 1_555
C13 C12 1_555 1_555
C14 C13 1_555 1_555
H11 C14 1_555 1_555
C15 C14 1_555 1_555
H12 C15 1_555 1_555
C16 C15 1_555 1_555
H13 C16 1_555 1_555
C17 C16 1_555 1_555
C18 C13 1_555 1_555
H14 C18 1_555 1_555
C19 C17 1_555 1_555
H15 C19 1_555 1_555
H16 C19 1_555 1_555
C20 C19 1_555 1_555
C21 C22 1_555 1_555
C22 H17 1_555 1_555
H18 C22 1_555 1_555
C23 C22 1_555 1_555
C24 C23 1_555 1_555
H19 C24 1_555 1_555
C25 C24 1_555 1_555
H20 C25 1_555 1_555
C26 C25 1_555 1_555
H21 C26 1_555 1_555
C27 C26 1_555 1_555
C28 C23 1_555 1_555
H22 C28 1_555 1_555
C29 C27 1_555 1_555
H23 C29 1_555 1_555
H24 C29 1_555 1_555
C30 C29 1_555 1_555
H25 O13 1_555 1_555
H26 O13 1_555 1_555
H27 O14 1_555 1_555
H28 O14 1_555 1_555
O1 C1 1_555 1_555
O2 C1 1_555 1_555
O3 C10 1_555 1_555
O4 Ce2 1_555 1_555
O5 Ce2 1_555 1_555
O6 Ce1 1_555 1_555
O7 C20 1_555 1_555
O8 C20 1_555 1_555
O9 Ce1 1_555 1_555
O10 Ce1 1_555 1_555
O11 C30 1_555 1_555
O12 C30 1_555 1_555
O13 Ce1 1_555 1_555
O14 Ce2 1_555 1_555
Ce1A O1 1_555 1_555
Ce1_2 O11 1_555 1_555
Ce1A_2 O12 1_555 1_555
Ce2_2 O2 1_555 1_555
Ce2_3 O7 1_555 1_555
Ce2A O8 1_555 1_555
O1A Ce1 1_555 1_555
O2_2 Ce2 1_555 1_555
O7_2 Ce2 1_555 1_555
O8A Ce2 1_555 1_555
O8_2 Ce2 1_555 1_555
O11_2 Ce1 1_555 1_555
O12A Ce1 1_555 1_555
O12_2 Ce1 1_555 1_555
Ce2 O10 1_555 1_555
C7 C8 1_555 1_555
C10 O4 1_555 1_555
C11 O5 1_555 1_555
C11 O6 1_555 1_555
C17 C18 1_555 1_555
C21 O9 1_555 1_555
C21 O10 1_555 1_555
C27 C28 1_555 1_555
O8 Ce2_3 1_555 1_555
O12 Ce1_2 1_555 1_555

#END
