
#######################################################################
#
#                 Cambridge Crystallographic Data Centre
#                                CCDC 
#
#######################################################################
#
# If this CIF has been generated from an entry in the Cambridge 
# Structural Database, then it will include bibliographic, chemical, 
# crystal, experimental, refinement or atomic coordinate data resulting 
# from the CCDC's data processing and validation procedures.
#
#######################################################################

data_ULAYIQ01
_symmetry_cell_setting           monoclinic
_symmetry_space_group_name_H-M   'P 21/c'
_symmetry_Int_Tables_number      14
_space_group_name_Hall           '-P 2ybc'
loop_
_symmetry_equiv_pos_site_id
_symmetry_equiv_pos_as_xyz
1 x,y,z
2 -x,1/2+y,1/2-z
3 -x,-y,-z
4 x,1/2-y,1/2+z
_cell_length_a                   10.006(2)
_cell_length_b                   7.5808(16)
_cell_length_c                   16.146(3)
_cell_angle_alpha                90
_cell_angle_beta                 111.636(9)
_cell_angle_gamma                90
_cell_volume                     1138.44
loop_
_atom_site_label
_atom_site_type_symbol
_atom_site_fract_x
_atom_site_fract_y
_atom_site_fract_z
Tb1 Tb 0.245723(11) 0.677549(17) 0.746808(7)
O1 O 0.4871(2) 0.6290(3) 0.85585(12)
O2 O 0.6516(2) 0.6398(3) 0.99409(13)
O3 O 0.3531(2) 0.9488(3) 1.15639(12)
O4 O 0.0464(2) 0.8265(3) 0.76739(14)
O5 O -0.0448(2) 1.0000(3) 0.84595(12)
O6 O 0.2262(3) 0.4245(3) 0.82850(16)
O7 O 0.3763(3) 0.9384(3) 0.74045(16)
O8 O 0.1135(3) 0.8381(3) 0.61124(17)
N1 N 0.2953(2) 0.7986(3) 0.89829(14)
C1 C 0.5292(3) 0.6708(3) 0.93757(18)
C2 C 0.4202(3) 0.7670(3) 0.96634(16)
C3 C 0.4462(3) 0.8164(3) 1.05359(18)
H1 H 0.5345 0.7926 1.0983
C4 C 0.3366(3) 0.9036(3) 1.07405(16)
C5 C 0.2071(3) 0.9379(4) 1.00158(17)
H2 H 0.1326 0.9971 1.0110
C6 C 0.1912(3) 0.8841(3) 0.91720(16)
C7 C 0.0539(3) 0.9069(4) 0.83795(17)
H3 H 0.151(5) 0.371(6) 0.809(3)
H4 H 0.266(5) 0.403(6) 0.886(3)
H5 H 0.380(5) 0.990(6) 0.695(3)
H6 H 0.117(4) 0.953(6) 0.602(3)
H7 H 0.462(5) 0.958(6) 0.779(3)
H8 H 0.051(6) 0.814(6) 0.575(4)
Tb1A Tb -0.245723(11) 1.177549(17) 0.753192(7)
Tb1C Tb 0.245723(11) 0.822451(17) 1.246808(7)
O3C O 0.3531(2) 0.5512(3) 0.65639(12)
O5A O 0.0448(2) 0.5000(3) 0.65405(12)
O9 O 0.8693(3) 0.8218(3) 0.4336(2)
H9 H 0.794(6) 0.838(6) 0.454(4)
H10 H 0.826(7) 0.752(9) 0.387(4)
loop_
_geom_bond_atom_site_label_1
_geom_bond_atom_site_label_2
_geom_bond_site_symmetry_1
_geom_bond_site_symmetry_2
Tb1 O1 1_555 1_555
O1 C1 1_555 1_555
O2 C1 1_555 1_555
O3 C4 1_555 1_555
O4 Tb1 1_555 1_555
O5 C7 1_555 1_555
O6 Tb1 1_555 1_555
O7 Tb1 1_555 1_555
O8 Tb1 1_555 1_555
N1 Tb1 1_555 1_555
C1 C2 1_555 1_555
C2 N1 1_555 1_555
C3 C2 1_555 1_555
H1 C3 1_555 1_555
C4 C3 1_555 1_555
C5 C4 1_555 1_555
H2 C5 1_555 1_555
C6 N1 1_555 1_555
C7 O4 1_555 1_555
H3 O6 1_555 1_555
H4 O6 1_555 1_555
H5 O7 1_555 1_555
H6 O8 1_555 1_555
H7 O7 1_555 1_555
H8 O8 1_555 1_555
O9 H9 1_555 1_555
H10 O9 1_555 1_555
Tb1A O5 1_555 1_555
Tb1C O3 1_555 1_555
O3C Tb1 1_555 1_555
O5A Tb1 1_555 1_555
C5 C6 1_555 1_555
C6 C7 1_555 1_555

#END
