
#######################################################################
#
#                 Cambridge Crystallographic Data Centre
#                                CCDC 
#
#######################################################################
#
# If this CIF has been generated from an entry in the Cambridge 
# Structural Database, then it will include bibliographic, chemical, 
# crystal, experimental, refinement or atomic coordinate data resulting 
# from the CCDC's data processing and validation procedures.
#
#######################################################################

data_ULAZAJ
_symmetry_cell_setting           triclinic
_symmetry_space_group_name_H-M   'P -1'
_symmetry_Int_Tables_number      2
_space_group_name_Hall           '-P 1'
loop_
_symmetry_equiv_pos_site_id
_symmetry_equiv_pos_as_xyz
1 x,y,z
2 -x,-y,-z
_cell_length_a                   10.4846(13)
_cell_length_b                   11.9660(16)
_cell_length_c                   12.3514(16)
_cell_angle_alpha                105.619(5)
_cell_angle_beta                 97.202(5)
_cell_angle_gamma                92.625(6)
_cell_volume                     1475.45
loop_
_atom_site_label
_atom_site_type_symbol
_atom_site_fract_x
_atom_site_fract_y
_atom_site_fract_z
Nd1 Nd 0.029517(16) 0.026539(14) 0.183517(13)
Nd2 Nd 0.306439(16) 0.036922(15) 0.455279(14)
C1 C 0.0706(3) 0.8190(3) 0.2608(3)
C2 C 0.1023(4) 0.7042(3) 0.2819(3)
H1 H 0.1766 0.6787 0.2453
H2 H 0.1270 0.7169 0.3629
C3 C -0.0041(4) 0.6073(3) 0.2411(3)
C4 C -0.1173(4) 0.6146(3) 0.2887(3)
H3 H -0.1275 0.6802 0.3468
C5 C -0.2149(4) 0.5267(3) 0.2516(4)
H4 H -0.2897 0.5324 0.2853
C6 C -0.2021(4) 0.4299(3) 0.1643(3)
H5 H -0.2691 0.3714 0.1383
C7 C -0.0910(4) 0.4192(3) 0.1154(3)
C8 C 0.0082(4) 0.5078(3) 0.1549(3)
H6 H 0.0843 0.5002 0.1230
C9 C -0.0755(4) 0.3102(3) 0.0240(3)
H7 H -0.1557 0.2884 -0.0279
H8 H -0.0092 0.3272 -0.0188
C10 C -0.0404(3) 0.2088(3) 0.0679(3)
C11 C -0.2153(3) 0.7492(3) 0.5878(3)
C12 C -0.1546(4) 0.6428(3) 0.6052(4)
H9 H -0.0771 0.6353 0.5692
H10 H -0.1280 0.6558 0.6860
C13 C -0.2359(4) 0.5289(3) 0.5614(3)
C14 C -0.3482(4) 0.5093(3) 0.6035(3)
H11 H -0.3755 0.5681 0.6597
C15 C -0.4198(4) 0.4044(3) 0.5636(3)
H12 H -0.4955 0.3927 0.5924
C16 C -0.3801(3) 0.3155(3) 0.4805(3)
H13 H -0.4301 0.2449 0.4526
C17 C -0.2661(3) 0.3315(3) 0.4388(3)
C18 C -0.1952(3) 0.4387(3) 0.4794(3)
H14 H -0.1190 0.4506 0.4512
C19 C -0.2165(3) 0.2365(3) 0.3508(3)
H15 H -0.1419 0.2690 0.3271
H16 H -0.2825 0.2110 0.2848
C20 C -0.1792(3) 0.1314(3) 0.3893(3)
C21 C 0.4696(3) 0.1360(3) -0.3232(3)
C22 C 0.5520(3) 0.2052(3) -0.2133(3)
H17 H 0.6237 0.1609 -0.1973
H18 H 0.5873 0.2772 -0.2238
C23 C 0.4804(3) 0.2339(3) -0.1121(3)
C24 C 0.3884(5) 0.3138(4) -0.1054(4)
H19 H 0.3733 0.3507 -0.1626
H20 H -0.2406 0.0218 0.0635
H21 H -0.2406 -0.0802 0.1125
H22 H 0.1094 0.0990 0.6110
H23 H 0.0294 0.0896 0.5035
C25 C 0.3193(5) 0.3397(4) -0.0164(4)
H24 H 0.2561 0.3919 -0.0146
C26 C 0.3432(4) 0.2885(4) 0.0707(3)
H25 H 0.2972 0.3075 0.1319
C27 C 0.4349(3) 0.2093(3) 0.0676(3)
C28 C 0.5025(3) 0.1825(3) -0.0248(3)
H26 H 0.5641 0.1286 -0.0278
C29 C 0.4652(4) 0.1561(4) 0.1644(3)
H27 H 0.5015 0.2183 0.2310
H28 H 0.5324 0.1040 0.1459
C30 C 0.3579(3) 0.0892(3) 0.1978(3)
O1 O 0.1566(2) 0.9053(2) 0.2968(2)
O2 O -0.0342(2) 0.8302(2) 0.2080(2)
O3 O -0.0371(3) 0.10987(19) -0.0009(2)
O4 O -0.0146(3) 0.2218(2) 0.1716(2)
O5 O -0.1595(2) 0.84733(19) 0.64899(19)
O6 O -0.3093(2) 0.7452(2) 0.5148(2)
O7 O -0.0998(2) 0.0686(2) 0.3388(2)
O8 O -0.2271(3) 0.1114(2) 0.4695(2)
O9 O 0.5273(2) 0.1006(2) -0.41110(18)
O10 O 0.3524(3) 0.1179(3) -0.3299(2)
O11 O 0.3881(2) 0.0619(2) 0.2879(2)
O12 O 0.2492(2) 0.0633(2) 0.1359(2)
O13 O -0.2057(2) -0.0221(2) 0.1036(2)
O14 O 0.1067(2) 0.1022(2) 0.5416(2)
Nd1_2 Nd 0.029517(16) 1.026539(14) 0.183517(13)
Nd1A Nd -0.029517(16) -0.026539(14) -0.183517(13)
Nd1A_2 Nd -0.029517(16) 0.973461(14) 0.816483(13)
Nd2_2 Nd 0.306439(16) 1.036922(15) 0.455279(14)
Nd2A Nd -0.306439(16) 0.963078(15) 0.544721(14)
Nd2A_2 Nd -0.306439(16) -0.036922(15) 0.544721(14)
Nd2A_3 Nd 0.693561(16) -0.036922(15) -0.455279(14)
Nd2_3 Nd 0.306439(16) 0.036922(15) -0.544721(14)
O1_2 O 0.1566(2) -0.0947(2) 0.2968(2)
O2_2 O -0.0342(2) -0.1698(2) 0.2080(2)
O3A O 0.0371(3) -0.10987(19) 0.0009(2)
O5A O 0.1595(2) 0.15267(19) 0.35101(19)
O6A O 0.3093(2) 0.2548(2) 0.4852(2)
O8A O 0.2271(3) -0.1114(2) 0.5305(2)
O9A O 0.4727(2) -0.1006(2) 0.41110(18)
O9_2 O 0.5273(2) 0.1006(2) 0.58890(18)
O10_2 O 0.3524(3) 0.1179(3) 0.6701(2)
loop_
_geom_bond_atom_site_label_1
_geom_bond_atom_site_label_2
_geom_bond_site_symmetry_1
_geom_bond_site_symmetry_2
Nd1 O3 1_555 1_555
Nd2 O11 1_555 1_555
C1 C2 1_555 1_555
C2 H1 1_555 1_555
H2 C2 1_555 1_555
C3 C2 1_555 1_555
C4 C3 1_555 1_555
H3 C4 1_555 1_555
C5 C4 1_555 1_555
H4 C5 1_555 1_555
C6 C5 1_555 1_555
H5 C6 1_555 1_555
C7 C6 1_555 1_555
C8 C3 1_555 1_555
H6 C8 1_555 1_555
C9 C7 1_555 1_555
H7 C9 1_555 1_555
H8 C9 1_555 1_555
C10 C9 1_555 1_555
C11 C12 1_555 1_555
C12 H9 1_555 1_555
H10 C12 1_555 1_555
C13 C12 1_555 1_555
C14 C13 1_555 1_555
H11 C14 1_555 1_555
C15 C14 1_555 1_555
H12 C15 1_555 1_555
C16 C15 1_555 1_555
H13 C16 1_555 1_555
C17 C16 1_555 1_555
C18 C13 1_555 1_555
H14 C18 1_555 1_555
C19 C17 1_555 1_555
H15 C19 1_555 1_555
H16 C19 1_555 1_555
C20 C19 1_555 1_555
C21 C22 1_555 1_555
C22 H17 1_555 1_555
H18 C22 1_555 1_555
C23 C22 1_555 1_555
C24 C23 1_555 1_555
H19 C24 1_555 1_555
H20 O13 1_555 1_555
H21 O13 1_555 1_555
H22 O14 1_555 1_555
H23 O14 1_555 1_555
C25 C24 1_555 1_555
H24 C25 1_555 1_555
C26 C25 1_555 1_555
H25 C26 1_555 1_555
C27 C26 1_555 1_555
C28 C23 1_555 1_555
H26 C28 1_555 1_555
C29 C27 1_555 1_555
H27 C29 1_555 1_555
H28 C29 1_555 1_555
C30 C29 1_555 1_555
O1 C1 1_555 1_555
O2 C1 1_555 1_555
O3 C10 1_555 1_555
O4 Nd1 1_555 1_555
O5 C11 1_555 1_555
O6 C11 1_555 1_555
O7 Nd1 1_555 1_555
O8 C20 1_555 1_555
O9 C21 1_555 1_555
O10 C21 1_555 1_555
O11 C30 1_555 1_555
O12 Nd1 1_555 1_555
O13 Nd1 1_555 1_555
O14 Nd2 1_555 1_555
Nd1_2 O1 1_555 1_555
Nd1A O3 1_555 1_555
Nd1A_2 O5 1_555 1_555
Nd2_2 O1 1_555 1_555
Nd2A O5 1_555 1_555
Nd2A_2 O8 1_555 1_555
Nd2A_3 O9 1_555 1_555
Nd2_3 O9 1_555 1_555
O1_2 Nd1 1_555 1_555
O2_2 Nd1 1_555 1_555
O3A Nd1 1_555 1_555
O5A Nd1 1_555 1_555
O6A Nd2 1_555 1_555
O8A Nd2 1_555 1_555
O9A Nd2 1_555 1_555
O9_2 Nd2 1_555 1_555
O10_2 Nd2 1_555 1_555
Nd2 O1_2 1_555 1_555
Nd2 O5A 1_555 1_555
C7 C8 1_555 1_555
C10 O4 1_555 1_555
C17 C18 1_555 1_555
C20 O7 1_555 1_555
C27 C28 1_555 1_555
C30 O12 1_555 1_555
O2 Nd1_2 1_555 1_555
O6 Nd2A 1_555 1_555
O10 Nd2_3 1_555 1_555
Nd1A O3A 1_555 1_555

#END
