
#######################################################################
#
#                 Cambridge Crystallographic Data Centre
#                                CCDC 
#
#######################################################################
#
# If this CIF has been generated from an entry in the Cambridge 
# Structural Database, then it will include bibliographic, chemical, 
# crystal, experimental, refinement or atomic coordinate data resulting 
# from the CCDC's data processing and validation procedures.
#
#######################################################################

data_ULICIB
_symmetry_cell_setting           monoclinic
_symmetry_space_group_name_H-M   'P 21/a'
_symmetry_Int_Tables_number      14
_space_group_name_Hall           '-P 2yab'
loop_
_symmetry_equiv_pos_site_id
_symmetry_equiv_pos_as_xyz
1 x,y,z
2 1/2+x,1/2-y,z
3 -x,-y,-z
4 1/2-x,1/2+y,-z
_cell_length_a                   17.500(4)
_cell_length_b                   7.399(4)
_cell_length_c                   19.485(4)
_cell_angle_alpha                90
_cell_angle_beta                 97.98(3)
_cell_angle_gamma                90
_cell_volume                     2498.54
loop_
_atom_site_label
_atom_site_type_symbol
_atom_site_fract_x
_atom_site_fract_y
_atom_site_fract_z
Zn1 Zn 0.20681(3) 0.15975(9) 0.28212(3)
N1 N 0.3111(2) 0.2471(6) 0.3418(2)
C1 C 0.3366(3) 0.2152(7) 0.4072(2)
H1 H 0.3071 0.1716 0.4397
N2 N 0.4116(2) 0.2550(6) 0.4198(2)
N3 N 0.4364(3) 0.3147(7) 0.3611(2)
C2 C 0.3744(3) 0.3074(8) 0.3166(3)
H2 H 0.3736 0.3411 0.2705
N4 N 0.4294(2) 0.1583(6) 0.5316(2)
C3 C 0.4725(3) 0.1426(7) 0.5925(2)
C4 C 0.5479(3) 0.1999(8) 0.6066(3)
H3 H 0.5760 0.1863 0.6504
C5 C 0.5798(3) 0.2779(8) 0.5534(3)
H4 H 0.6308 0.3164 0.5607
C6 C 0.5364(3) 0.2994(7) 0.4892(3)
H5 H 0.5565 0.3531 0.4524
C7 C 0.4617(3) 0.2369(7) 0.4828(3)
N5 N 0.3594(2) -0.1144(6) 0.6933(2)
C8 C 0.3724(3) -0.0487(8) 0.6336(3)
H6 H 0.3422 -0.0706 0.5913
N6 N 0.4355(2) 0.0545(6) 0.6426(2)
N7 N 0.4651(3) 0.0600(7) 0.7108(2)
C9 C 0.4172(3) -0.0427(9) 0.7384(3)
H7 H 0.4224 -0.0653 0.7858
N8 N 0.1064(2) 0.0378(6) 0.2306(2)
C10 C 0.0368(3) 0.0147(8) 0.2511(3)
H8 H 0.0274 0.0442 0.2956
N9 N -0.0160(2) -0.0513(7) 0.2051(2)
N10 N 0.0229(2) -0.0754(6) 0.1507(2)
C11 C 0.0959(3) -0.0219(7) 0.1665(2)
H9 H 0.1333 -0.0262 0.1370
N11 N 0.0351(2) -0.1911(6) 0.0431(2)
C12 C -0.0125(3) -0.1525(7) 0.0878(2)
C13 C -0.0906(3) -0.1810(8) 0.0774(3)
H10 H -0.1215 -0.1486 0.1106
C14 C -0.1212(3) -0.2596(9) 0.0158(3)
H11 H -0.1738 -0.2841 0.0070
C15 C -0.0745(3) -0.3014(8) -0.0322(3)
H12 H -0.0942 -0.3527 -0.0745
C16 C 0.0029(3) -0.2649(7) -0.0156(3)
N12 N 0.0551(2) -0.3022(6) -0.0630(2)
C17 C 0.1299(3) -0.2611(8) -0.0608(3)
H13 H 0.1592 -0.1989 -0.0249
N13 N 0.1560(3) -0.3208(7) -0.1165(2)
C18 C 0.0932(3) -0.3991(9) -0.1520(3)
H14 H 0.0943 -0.4544 -0.1947
N14 N 0.0303(3) -0.3924(7) -0.1224(2)
N15 N 0.2071(3) -0.0762(8) 0.4171(3)
O1 O 0.1742(2) 0.0488(7) 0.3805(2)
O2 O 0.2123(3) -0.0633(8) 0.4805(2)
O3 O 0.2352(3) -0.2042(7) 0.3898(3)
O7 O 0.2297(3) 0.2719(7) 0.1919(2)
H15 H 0.259(3) 0.240(8) 0.162(2)
H16 H 0.232(4) 0.3867(15) 0.186(3)
O8 O 0.2711(3) -0.0790(7) 0.2659(2)
H17 H 0.252(4) -0.139(8) 0.230(2)
H18 H 0.270(4) -0.117(9) 0.3075(14)
N5C N 0.1406(2) 0.3856(6) 0.3067(2)
Zn1C Zn 0.29319(3) -0.34025(9) 0.71788(3)
N16 N 0.2245(3) -0.3254(8) 0.1165(3)
O4 O 0.2254(3) -0.4433(6) 0.0730(2)
O5 O 0.2358(3) -0.1667(6) 0.1033(3)
O6 O 0.2131(4) -0.3645(7) 0.1762(3)
loop_
_geom_bond_atom_site_label_1
_geom_bond_atom_site_label_2
_geom_bond_site_symmetry_1
_geom_bond_site_symmetry_2
Zn1 N1 1_555 1_555
N1 C1 1_555 1_555
C1 H1 1_555 1_555
N2 C1 1_555 1_555
N3 N2 1_555 1_555
C2 N1 1_555 1_555
H2 C2 1_555 1_555
N4 C3 1_555 1_555
C3 C4 1_555 1_555
C4 H3 1_555 1_555
C5 C4 1_555 1_555
H4 C5 1_555 1_555
C6 C5 1_555 1_555
H5 C6 1_555 1_555
C7 N2 1_555 1_555
N5 C8 1_555 1_555
C8 H6 1_555 1_555
N6 C3 1_555 1_555
N7 N6 1_555 1_555
C9 N5 1_555 1_555
H7 C9 1_555 1_555
N8 Zn1 1_555 1_555
C10 N8 1_555 1_555
H8 C10 1_555 1_555
N9 C10 1_555 1_555
N10 N9 1_555 1_555
C11 N8 1_555 1_555
H9 C11 1_555 1_555
N11 C12 1_555 1_555
C12 N10 1_555 1_555
C13 C12 1_555 1_555
H10 C13 1_555 1_555
C14 C13 1_555 1_555
H11 C14 1_555 1_555
C15 C14 1_555 1_555
H12 C15 1_555 1_555
C16 N11 1_555 1_555
N12 C16 1_555 1_555
C17 N12 1_555 1_555
H13 C17 1_555 1_555
N13 C17 1_555 1_555
C18 N13 1_555 1_555
H14 C18 1_555 1_555
N14 N12 1_555 1_555
N15 O1 1_555 1_555
O1 Zn1 1_555 1_555
O2 N15 1_555 1_555
O3 N15 1_555 1_555
N16 O4 1_555 1_555
O5 N16 1_555 1_555
O6 N16 1_555 1_555
O7 Zn1 1_555 1_555
H15 O7 1_555 1_555
H16 O7 1_555 1_555
O8 Zn1 1_555 1_555
H17 O8 1_555 1_555
H18 O8 1_555 1_555
N5C Zn1 1_555 1_555
Zn1C N5 1_555 1_555
N3 C2 1_555 1_555
N4 C7 1_555 1_555
C6 C7 1_555 1_555
C8 N6 1_555 1_555
N7 C9 1_555 1_555
N10 C11 1_555 1_555
C15 C16 1_555 1_555
C18 N14 1_555 1_555

#END
