
#######################################################################
#
#                 Cambridge Crystallographic Data Centre
#                                CCDC 
#
#######################################################################
#
# If this CIF has been generated from an entry in the Cambridge 
# Structural Database, then it will include bibliographic, chemical, 
# crystal, experimental, refinement or atomic coordinate data resulting 
# from the CCDC's data processing and validation procedures.
#
#######################################################################

data_ULIGEB
_symmetry_cell_setting           monoclinic
_symmetry_space_group_name_H-M   'P 21/c'
_symmetry_Int_Tables_number      14
_space_group_name_Hall           '-P 2ybc'
loop_
_symmetry_equiv_pos_site_id
_symmetry_equiv_pos_as_xyz
1 x,y,z
2 -x,1/2+y,1/2-z
3 -x,-y,-z
4 x,1/2-y,1/2+z
_cell_length_a                   10.3830(3)
_cell_length_b                   10.4260(3)
_cell_length_c                   16.5870(4)
_cell_angle_alpha                90
_cell_angle_beta                 94.1980(10)
_cell_angle_gamma                90
_cell_volume                     1790.78
loop_
_atom_site_label
_atom_site_type_symbol
_atom_site_fract_x
_atom_site_fract_y
_atom_site_fract_z
C1 C 0.0621(3) 0.6598(3) 0.33701(18)
C2 C 0.0215(4) 0.8559(3) 0.4130(2)
H1 H -0.0099 0.9424 0.3995
H2 H 0.1077 0.8613 0.4412
H3 H -0.0377 0.8140 0.4482
C3 C 0.5359(3) 0.4510(3) 0.34526(17)
C4 C 0.6815(4) 0.6097(4) 0.4152(3)
H4 H 0.7692 0.6083 0.4414
H5 H 0.6204 0.6343 0.4549
H6 H 0.6770 0.6720 0.3709
C5 C 0.2125(3) 0.2604(3) 0.35364(17)
C6 C 0.2650(3) 0.1359(3) 0.38692(17)
C7 C 0.2656(3) 0.1126(3) 0.46981(17)
H7 H 0.2328 0.1758 0.5042
C8 C 0.3136(3) -0.0021(3) 0.50263(17)
C9 C 0.3626(3) -0.0945(3) 0.45256(18)
H8 H 0.3941 -0.1735 0.4746
C10 C 0.3654(3) -0.0710(3) 0.37028(19)
H9 H 0.4010 -0.1331 0.3363
C11 C 0.3163(3) 0.0435(3) 0.33746(18)
H10 H 0.3176 0.0588 0.2811
C12 C 0.3040(3) -0.0295(3) 0.59123(17)
N1 N 0.0955(3) 0.5971(3) 0.40391(16)
H11 H 0.107(4) 0.633(4) 0.4525(15)
H12 H 0.108(4) 0.5137(19) 0.399(2)
N2 N 0.0282(3) 0.7813(3) 0.33904(17)
H13 H 0.004(4) 0.815(4) 0.2933(17)
N3 N 0.5199(3) 0.3314(3) 0.31841(17)
H14 H 0.577(3) 0.273(3) 0.333(2)
H15 H 0.442(2) 0.306(3) 0.2990(18)
N4 N 0.6482(3) 0.4820(3) 0.38324(18)
H16 H 0.705(3) 0.421(3) 0.394(2)
O1 O 0.2458(2) 0.29153(19) 0.28320(12)
O2 O 0.1442(2) 0.3277(2) 0.39575(12)
O3 O 0.2879(2) 0.06756(19) 0.63658(12)
O4 O 0.3079(2) -0.14262(19) 0.61550(12)
S1 S 0.05821(8) 0.58621(8) 0.24256(5)
S2 S 0.41840(8) 0.56750(7) 0.33061(5)
Zn1 Zn 0.25269(4) 0.47469(3) 0.24858(2)
Zn1C Zn 0.25269(4) 0.02531(3) 0.74858(2)
O3C O 0.2879(2) 0.43244(19) 0.13658(12)
O5 O 0.1229(3) 0.6759(2) 0.57438(14)
H17 H 0.043(2) 0.677(5) 0.588(3)
H18 H 0.161(4) 0.748(3) 0.585(2)
loop_
_geom_bond_atom_site_label_1
_geom_bond_atom_site_label_2
_geom_bond_site_symmetry_1
_geom_bond_site_symmetry_2
C1 N1 1_555 1_555
C2 H1 1_555 1_555
H2 C2 1_555 1_555
H3 C2 1_555 1_555
C3 N3 1_555 1_555
C4 H4 1_555 1_555
H5 C4 1_555 1_555
H6 C4 1_555 1_555
C5 C6 1_555 1_555
C6 C7 1_555 1_555
C7 H7 1_555 1_555
C8 C7 1_555 1_555
C9 C8 1_555 1_555
H8 C9 1_555 1_555
C10 C9 1_555 1_555
H9 C10 1_555 1_555
C11 C6 1_555 1_555
H10 C11 1_555 1_555
C12 C8 1_555 1_555
N1 H11 1_555 1_555
H12 N1 1_555 1_555
N2 C1 1_555 1_555
H13 N2 1_555 1_555
N3 H14 1_555 1_555
H15 N3 1_555 1_555
N4 C3 1_555 1_555
H16 N4 1_555 1_555
O1 C5 1_555 1_555
O2 C5 1_555 1_555
O3 C12 1_555 1_555
O4 C12 1_555 1_555
S1 C1 1_555 1_555
S2 C3 1_555 1_555
Zn1 O1 1_555 1_555
O5 H17 1_555 1_555
H18 O5 1_555 1_555
Zn1C O3 1_555 1_555
O3C Zn1 1_555 1_555
C2 N2 1_555 1_555
C4 N4 1_555 1_555
C10 C11 1_555 1_555
S1 Zn1 1_555 1_555
S2 Zn1 1_555 1_555

#END
