
#######################################################################
#
#                 Cambridge Crystallographic Data Centre
#                                CCDC 
#
#######################################################################
#
# If this CIF has been generated from an entry in the Cambridge 
# Structural Database, then it will include bibliographic, chemical, 
# crystal, experimental, refinement or atomic coordinate data resulting 
# from the CCDC's data processing and validation procedures.
#
#######################################################################

data_ULIHIG
_symmetry_cell_setting           orthorhombic
_symmetry_space_group_name_H-M   'P n a 21'
_symmetry_Int_Tables_number      33
_space_group_name_Hall           'P 2c -2n'
loop_
_symmetry_equiv_pos_site_id
_symmetry_equiv_pos_as_xyz
1 x,y,z
2 -x,-y,1/2+z
3 1/2+x,1/2-y,z
4 1/2-x,1/2+y,1/2+z
_cell_length_a                   15.9784(3)
_cell_length_b                   15.1177(2)
_cell_length_c                   7.45660(10)
_cell_angle_alpha                90
_cell_angle_beta                 90
_cell_angle_gamma                90
_cell_volume                     1801.19
loop_
_atom_site_label
_atom_site_type_symbol
_atom_site_fract_x
_atom_site_fract_y
_atom_site_fract_z
Zn1 Zn 0.238106(11) 0.233186(10) 0.00358(3)
S1 S 0.14437(2) 0.11459(2) -0.00642(6)
S2 S 0.13502(3) 0.34347(3) -0.03838(6)
N1 N 0.27449(9) 0.00406(9) -0.0008(3)
H1 H 0.2999(15) 0.0474(13) 0.056(3)
N2 N 0.15494(10) -0.04968(10) -0.1313(2)
H2 H 0.1826(14) -0.0994(12) -0.150(3)
N3 N 0.15380(10) 0.51246(10) 0.0473(2)
H3 H 0.1839(13) 0.5619(12) 0.046(3)
N4 N 0.27090(10) 0.44487(11) -0.0649(2)
H4 H 0.2951(15) 0.3950(12) -0.103(3)
O1 O 0.32995(9) 0.26722(8) -0.16058(18)
O2 O 0.35200(9) 0.13537(9) -0.8025(2)
O3 O 0.28016(8) 0.18549(9) -0.38643(17)
O4 O 0.29659(9) 0.26915(8) -0.76678(17)
C1 C 0.19596(12) 0.01574(11) -0.0500(2)
C2 C 0.31928(11) -0.07971(11) -0.0186(2)
H5 H 0.2893 -0.1259 0.0474
H6 H 0.3759 -0.0734 0.0305
H7 H 0.3227 -0.0960 -0.1456
C3 C 0.06757(12) -0.04484(12) -0.1881(3)
H8 H 0.0312 -0.0620 -0.0881
H9 H 0.0585 -0.0851 -0.2893
H10 H 0.0544 0.0158 -0.2249
C4 C 0.19057(11) 0.44089(10) -0.0158(2)
C5 C 0.06606(14) 0.51774(14) 0.0978(3)
H11 H 0.0325 0.5336 -0.0075
H12 H 0.0589 0.5629 0.1908
H13 H 0.0476 0.4603 0.1441
C6 C 0.32057(12) 0.52581(12) -0.0580(3)
H14 H 0.2948 0.5709 -0.1346
H15 H 0.3774 0.5135 -0.1005
H16 H 0.3229 0.5474 0.0658
C7 C 0.35000(11) 0.20874(12) -0.7288(2)
C8 C 0.42093(13) 0.23312(10) -0.6052(3)
C9 C 0.49888(12) 0.23860(11) -0.6883(3)
H17 H 0.5039 0.2245 -0.8120
C10 C 0.56976(13) 0.26455(11) -0.5921(3)
H18 H 0.6227 0.2677 -0.6498
C11 C 0.56249(13) 0.28576(13) -0.4117(3)
H19 H 0.6102 0.3046 -0.3461
C12 C 0.48526(12) 0.27933(11) -0.3272(2)
H20 H 0.4808 0.2935 -0.2035
C13 C 0.41388(12) 0.25226(12) -0.4215(2)
C14 C 0.33449(12) 0.23370(10) -0.3196(2)
O4_2 O 0.29659(9) 0.26915(8) 0.23322(17)
Zn1_2 Zn 0.238106(11) 0.233186(10) -0.99642(3)
loop_
_geom_bond_atom_site_label_1
_geom_bond_atom_site_label_2
_geom_bond_site_symmetry_1
_geom_bond_site_symmetry_2
Zn1 S1 1_555 1_555
S1 C1 1_555 1_555
S2 Zn1 1_555 1_555
N1 H1 1_555 1_555
N2 H2 1_555 1_555
N3 H3 1_555 1_555
N4 H4 1_555 1_555
O1 Zn1 1_555 1_555
O2 C7 1_555 1_555
O3 C14 1_555 1_555
O4 C7 1_555 1_555
C1 N1 1_555 1_555
C2 N1 1_555 1_555
H5 C2 1_555 1_555
H6 C2 1_555 1_555
H7 C2 1_555 1_555
C3 N2 1_555 1_555
H8 C3 1_555 1_555
H9 C3 1_555 1_555
H10 C3 1_555 1_555
C4 S2 1_555 1_555
C5 N3 1_555 1_555
H11 C5 1_555 1_555
H12 C5 1_555 1_555
H13 C5 1_555 1_555
C6 N4 1_555 1_555
H14 C6 1_555 1_555
H15 C6 1_555 1_555
H16 C6 1_555 1_555
C7 C8 1_555 1_555
C8 C9 1_555 1_555
C9 H17 1_555 1_555
C10 C9 1_555 1_555
H18 C10 1_555 1_555
C11 C10 1_555 1_555
H19 C11 1_555 1_555
C12 C11 1_555 1_555
H20 C12 1_555 1_555
C13 C8 1_555 1_555
C14 O1 1_555 1_555
O4_2 Zn1 1_555 1_555
Zn1_2 O4 1_555 1_555
N2 C1 1_555 1_555
N3 C4 1_555 1_555
N4 C4 1_555 1_555
C12 C13 1_555 1_555
C13 C14 1_555 1_555

#END
