
#######################################################################
#
#                 Cambridge Crystallographic Data Centre
#                                CCDC 
#
#######################################################################
#
# If this CIF has been generated from an entry in the Cambridge 
# Structural Database, then it will include bibliographic, chemical, 
# crystal, experimental, refinement or atomic coordinate data resulting 
# from the CCDC's data processing and validation procedures.
#
#######################################################################

data_ULISEN
_symmetry_cell_setting           orthorhombic
_symmetry_space_group_name_H-M   'C m c m'
_symmetry_Int_Tables_number      63
_space_group_name_Hall           '-C 2n 2'
loop_
_symmetry_equiv_pos_site_id
_symmetry_equiv_pos_as_xyz
1 x,y,z
2 -x,y,z
3 x,-y,1/2+z
4 x,y,1/2-z
5 1/2+x,1/2+y,z
6 1/2-x,1/2+y,z
7 1/2+x,1/2-y,1/2+z
8 1/2+x,1/2+y,1/2-z
9 -x,-y,-z
10 x,-y,-z
11 -x,y,1/2-z
12 -x,-y,1/2+z
13 1/2-x,1/2-y,-z
14 1/2+x,1/2-y,-z
15 1/2-x,1/2+y,1/2-z
16 1/2-x,1/2-y,1/2+z
_cell_length_a                   8.26990(11)
_cell_length_b                   11.0102(3)
_cell_length_c                   8.16917(11)
_cell_angle_alpha                90
_cell_angle_beta                 90
_cell_angle_gamma                90
_cell_volume                     743.83
loop_
_atom_site_label
_atom_site_type_symbol
_atom_site_fract_x
_atom_site_fract_y
_atom_site_fract_z
K1 K 0.0000 -0.0696(3) -0.2500
B1 B 0.0000 0.4268(8) -0.2500
C1 C 0.0000 0.2322(4) -0.3443(3)
O1 O 0.0000 0.1443(4) -0.4294(5)
O2 O 0.0000 0.3481(3) -0.3950(4)
C2 C 0.0914(3) 0.6254(4) -0.2500
O3 O 0.1399(4) 0.5105(4) -0.2500
O4 O 0.1741(5) 0.7148(4) -0.2500
K1B K 0.0000 0.0696(3) -0.7500
O1H O 0.0000 -0.1443(4) -0.5706(5)
O1B O 0.0000 -0.1443(4) 0.0706(5)
O1C O 0.0000 0.1443(4) -0.0706(5)
O3E O 0.3601(4) 0.0105(4) -0.2500
O4A O -0.1741(5) -0.2852(4) -0.2500
O2C O 0.0000 0.3481(3) -0.1050(4)
O3D O -0.3601(4) 0.0105(4) -0.2500
O3A O -0.1399(4) 0.5105(4) -0.2500
C1C C 0.0000 0.2322(4) -0.1557(3)
K1B_2 K 0.0000 0.0696(3) 0.2500
K1D K 0.5000 0.4304(3) -0.2500
K1D_2 K -0.5000 0.4304(3) -0.2500
C2A C -0.0914(3) 0.6254(4) -0.2500
O4_2 O 0.1741(5) -0.2852(4) -0.2500
O4A_2 O -0.1741(5) 0.7148(4) -0.2500
K1_2 K 0.0000 0.9304(3) -0.2500
loop_
_geom_bond_atom_site_label_1
_geom_bond_atom_site_label_2
_geom_bond_site_symmetry_1
_geom_bond_site_symmetry_2
K1 O1 1_555 1_555
B1 O2 1_555 1_555
C1 O1 1_555 1_555
O1 K1B 1_555 1_555
O2 C1 1_555 1_555
C2 O3 1_555 1_555
O3 B1 1_555 1_555
O4 C2 1_555 1_555
K1B O1H 1_555 1_555
O1H K1 1_555 1_555
O1B K1 1_555 1_555
O1C K1 1_555 1_555
O3E K1 1_555 1_555
O4A K1 1_555 1_555
O2C B1 1_555 1_555
O3D K1 1_555 1_555
O3A B1 1_555 1_555
C1C C1 1_555 1_555
K1B_2 O1B 1_555 1_555
K1D O3 1_555 1_555
K1D_2 O3A 1_555 1_555
C2A C2 1_555 1_555
O4_2 K1 1_555 1_555
O4A_2 C2A 1_555 1_555
K1_2 O4 1_555 1_555
O1C C1C 1_555 1_555
O1C K1B_2 1_555 1_555
O2C C1C 1_555 1_555
O3A C2A 1_555 1_555
O4A_2 K1_2 1_555 1_555

#END
