
#######################################################################
#
#                 Cambridge Crystallographic Data Centre
#                                CCDC 
#
#######################################################################
#
# If this CIF has been generated from an entry in the Cambridge 
# Structural Database, then it will include bibliographic, chemical, 
# crystal, experimental, refinement or atomic coordinate data resulting 
# from the CCDC's data processing and validation procedures.
#
#######################################################################

data_ULISIR
_symmetry_cell_setting           orthorhombic
_symmetry_space_group_name_H-M   'C m c m'
_symmetry_Int_Tables_number      63
_space_group_name_Hall           '-C 2n 2'
loop_
_symmetry_equiv_pos_site_id
_symmetry_equiv_pos_as_xyz
1 x,y,z
2 -x,y,z
3 x,-y,1/2+z
4 x,y,1/2-z
5 1/2+x,1/2+y,z
6 1/2-x,1/2+y,z
7 1/2+x,1/2-y,1/2+z
8 1/2+x,1/2+y,1/2-z
9 -x,-y,-z
10 x,-y,-z
11 -x,y,1/2-z
12 -x,-y,1/2+z
13 1/2-x,1/2-y,-z
14 1/2+x,1/2-y,-z
15 1/2-x,1/2+y,1/2-z
16 1/2-x,1/2-y,1/2+z
_cell_length_a                   8.12756(8)
_cell_length_b                   10.3399(2)
_cell_length_c                   7.82108(10)
_cell_angle_alpha                90
_cell_angle_beta                 90
_cell_angle_gamma                90
_cell_volume                     657.269
loop_
_atom_site_label
_atom_site_type_symbol
_atom_site_fract_x
_atom_site_fract_y
_atom_site_fract_z
Na1 Na 0.0000 -0.0682(3) -0.2500
B1 B 0.0000 0.4273(6) -0.2500
C1 C 0.0000 0.2220(3) -0.3484(3)
O1 O 0.0000 0.1269(2) -0.4358(3)
O2 O 0.0000 0.3440(2) -0.4007(3)
C2 C 0.0949(3) 0.6388(3) -0.2500
O3 O 0.1440(3) 0.5173(2) -0.2500
O4 O 0.1756(3) 0.7345(2) -0.2500
Na1B Na 0.0000 0.0682(3) -0.7500
O1H O 0.0000 -0.1269(2) -0.5642(3)
O1B O 0.0000 -0.1269(2) 0.0642(3)
O1C O 0.0000 0.1269(2) -0.0642(3)
O3E O 0.3560(3) 0.0173(2) -0.2500
O4A O -0.1756(3) -0.2655(2) -0.2500
O2C O 0.0000 0.3440(2) -0.0993(3)
O3D O -0.3560(3) 0.0173(2) -0.2500
O3A O -0.1440(3) 0.5173(2) -0.2500
C1C C 0.0000 0.2220(3) -0.1516(3)
Na1B_2 Na 0.0000 0.0682(3) 0.2500
Na1D Na 0.5000 0.4318(3) -0.2500
Na1D_2 Na -0.5000 0.4318(3) -0.2500
C2A C -0.0949(3) 0.6388(3) -0.2500
O4_2 O 0.1756(3) -0.2655(2) -0.2500
O4A_2 O -0.1756(3) 0.7345(2) -0.2500
Na1_2 Na 0.0000 0.9318(3) -0.2500
loop_
_geom_bond_atom_site_label_1
_geom_bond_atom_site_label_2
_geom_bond_site_symmetry_1
_geom_bond_site_symmetry_2
Na1 O1 1_555 1_555
B1 O2 1_555 1_555
C1 O1 1_555 1_555
O1 Na1B 1_555 1_555
O2 C1 1_555 1_555
C2 O3 1_555 1_555
O3 B1 1_555 1_555
O4 C2 1_555 1_555
Na1B O1H 1_555 1_555
O1H Na1 1_555 1_555
O1B Na1 1_555 1_555
O1C Na1 1_555 1_555
O3E Na1 1_555 1_555
O4A Na1 1_555 1_555
O2C B1 1_555 1_555
O3D Na1 1_555 1_555
O3A B1 1_555 1_555
C1C C1 1_555 1_555
Na1B_2 O1B 1_555 1_555
Na1D O3 1_555 1_555
Na1D_2 O3A 1_555 1_555
C2A C2 1_555 1_555
O4_2 Na1 1_555 1_555
O4A_2 C2A 1_555 1_555
Na1_2 O4 1_555 1_555
O1C C1C 1_555 1_555
O1C Na1B_2 1_555 1_555
O2C C1C 1_555 1_555
O3A C2A 1_555 1_555
O4A_2 Na1_2 1_555 1_555

#END
