
#######################################################################
#
#                 Cambridge Crystallographic Data Centre
#                                CCDC 
#
#######################################################################
#
# If this CIF has been generated from an entry in the Cambridge 
# Structural Database, then it will include bibliographic, chemical, 
# crystal, experimental, refinement or atomic coordinate data resulting 
# from the CCDC's data processing and validation procedures.
#
#######################################################################

data_ULOLOW
_symmetry_cell_setting           monoclinic
_symmetry_space_group_name_H-M   'P 21/c'
_symmetry_Int_Tables_number      14
_space_group_name_Hall           '-P 2ybc'
loop_
_symmetry_equiv_pos_site_id
_symmetry_equiv_pos_as_xyz
1 x,y,z
2 x,1/2-y,1/2+z
3 -x,-y,-z
4 -x,1/2+y,1/2-z
_cell_length_a                   15.653(2)
_cell_length_b                   9.8786(16)
_cell_length_c                   15.2018(15)
_cell_angle_alpha                90
_cell_angle_beta                 98.981(11)
_cell_angle_gamma                90
_cell_volume                     2321.83
loop_
_atom_site_label
_atom_site_type_symbol
_atom_site_fract_x
_atom_site_fract_y
_atom_site_fract_z
Cu1 Cu 0.5000 0.0000 0.5000
Cu2 Cu 0.0000 0.0000 0.5000
O1 O 0.3573(2) 0.2597(4) 0.5737(3)
O2 O 0.3694(2) 0.0331(4) 0.5793(3)
O3 O 0.2200(2) 0.0849(4) 0.4182(2)
O4 O 0.0842(2) 0.0244(4) 0.4210(2)
N1 N 0.5128(2) 0.2014(4) 0.4897(2)
H1 H 0.4713 0.2387 0.5179
N2 N 0.5980(2) 0.0177(4) 0.6051(2)
H2 H 0.6463 -0.0025 0.5813
N3 N 0.2404(3) 0.1581(5) 0.6988(3)
N4 N 0.0951(3) 0.0632(4) 0.5912(3)
C1 C 0.5968(3) 0.2419(5) 0.5419(3)
H3 H 0.6426 0.2137 0.5086
C2 C 0.6060(3) 0.3936(5) 0.5583(4)
H4 H 0.5597 0.4252 0.5887
H5 H 0.6015 0.4407 0.5018
C3 C 0.6933(4) 0.4251(6) 0.6149(4)
H6 H 0.7394 0.4000 0.5822
H7 H 0.6975 0.5217 0.6263
C4 C 0.7048(4) 0.3494(6) 0.7030(4)
H8 H 0.6618 0.3797 0.7382
H9 H 0.7616 0.3682 0.7363
C5 C 0.6949(3) 0.1977(6) 0.6860(4)
H10 H 0.6987 0.1506 0.7424
H11 H 0.7419 0.1662 0.6565
C6 C 0.6083(3) 0.1638(5) 0.6279(3)
H12 H 0.5617 0.1899 0.6608
C7 C 0.6027(3) -0.0760(5) 0.6837(3)
H13 H 0.6613 -0.0688 0.7173
C8 C 0.5408(4) -0.0357(6) 0.7457(4)
H14 H 0.5513 0.0567 0.7638
H15 H 0.5494 -0.0932 0.7973
H16 H 0.4825 -0.0449 0.7156
C9 C 0.5907(3) -0.2206(5) 0.6518(3)
H17 H 0.6029 -0.2799 0.7031
H18 H 0.6333 -0.2397 0.6134
C10 C 0.4983(3) 0.2562(5) 0.3985(3)
H19 H 0.5044 0.3539 0.4011
H20 H 0.5421 0.2208 0.3661
C11 C 0.3309(3) 0.1426(7) 0.5851(3)
C12 C 0.2419(3) 0.1291(5) 0.6125(3)
C13 C 0.1659(3) 0.1379(6) 0.7287(3)
H21 H 0.1627 0.1592 0.7877
C14 C 0.0948(3) 0.0880(6) 0.6773(3)
H22 H 0.0452 0.0707 0.7021
C15 C 0.1684(3) 0.0857(5) 0.5583(3)
C16 C 0.1589(3) 0.0625(6) 0.4577(3)
O5 O -0.0410(4) 0.2471(6) 0.4866(4)
C10B C 0.5017(3) -0.2562(5) 0.6015(3)
N1B N 0.4872(2) -0.2014(4) 0.5103(2)
H1B H 0.5287 -0.2387 0.4821
C1B C 0.4032(3) -0.2419(5) 0.4581(3)
H3B H 0.3574 -0.2137 0.4914
C2B C 0.3940(3) -0.3936(5) 0.4417(4)
H4B H 0.4403 -0.4252 0.4113
H5B H 0.3985 -0.4407 0.4982
C3B C 0.3067(4) -0.4251(6) 0.3851(4)
H6B H 0.2606 -0.4000 0.4178
H7B H 0.3025 -0.5217 0.3737
C4B C 0.2952(4) -0.3494(6) 0.2970(4)
H8B H 0.3382 -0.3797 0.2618
H9B H 0.2384 -0.3682 0.2637
C5B C 0.3051(3) -0.1977(6) 0.3140(4)
H10B H 0.3013 -0.1506 0.2576
H11B H 0.2581 -0.1662 0.3435
C6B C 0.3917(3) -0.1638(5) 0.3721(3)
N2B N 0.4020(2) -0.0177(4) 0.3949(2)
H2B H 0.3537 0.0025 0.4187
C7B C 0.3973(3) 0.0760(5) 0.3163(3)
H13B H 0.3387 0.0688 0.2827
C8B C 0.4592(4) 0.0357(6) 0.2543(4)
H14B H 0.4487 -0.0567 0.2362
H15B H 0.4506 0.0932 0.2027
H16B H 0.5175 0.0449 0.2844
C9B C 0.4093(3) 0.2206(5) 0.3482(3)
H17B H 0.3971 0.2799 0.2969
H18B H 0.3667 0.2397 0.3866
H12B H 0.4383 -0.1899 0.3392
H19B H 0.4956 -0.3539 0.5989
H20B H 0.4579 -0.2208 0.6339
O1B O 0.6427(2) -0.2597(4) 0.4263(3)
O2B O 0.6306(2) -0.0331(4) 0.4207(3)
O3B O 0.7800(2) -0.0849(4) 0.5818(2)
O4B O 0.9158(2) -0.0244(4) 0.5790(2)
N3B N 0.7596(3) -0.1581(5) 0.3012(3)
N4B N 0.9049(3) -0.0632(4) 0.4088(3)
C11B C 0.6691(3) -0.1426(7) 0.4149(3)
C12B C 0.7581(3) -0.1291(5) 0.3875(3)
C13B C 0.8341(3) -0.1379(6) 0.2713(3)
H21B H 0.8373 -0.1592 0.2123
C14B C 0.9052(3) -0.0880(6) 0.3227(3)
H22B H 0.9548 -0.0707 0.2979
C15B C 0.8316(3) -0.0857(5) 0.4417(3)
C16B C 0.8411(3) -0.0625(6) 0.5423(3)
O5B O 0.0410(4) -0.2471(6) 0.5134(4)
O4B_2 O -0.0842(2) -0.0244(4) 0.5790(2)
N4B_2 N -0.0951(3) -0.0632(4) 0.4088(3)
Cu2_2 Cu 1.0000 0.0000 0.5000
O6 O -0.1365(3) -0.0334(4) 0.7716(3)
O7 O -0.2291(5) 0.2444(7) 0.4195(4)
O8 O -0.0303(3) 0.3742(5) 0.6548(3)
O9 O -0.0790(4) 0.2346(6) 0.7941(4)
O10 O 0.2389(3) 0.4617(5) 0.5908(3)
O11 O 0.1026(4) 0.4004(6) 0.4456(4)
loop_
_geom_bond_atom_site_label_1
_geom_bond_atom_site_label_2
_geom_bond_site_symmetry_1
_geom_bond_site_symmetry_2
Cu1 O2 1_555 1_555
Cu2 O4 1_555 1_555
O1 C11 1_555 1_555
O2 C11 1_555 1_555
O3 C16 1_555 1_555
O4 C16 1_555 1_555
N1 Cu1 1_555 1_555
H1 N1 1_555 1_555
N2 Cu1 1_555 1_555
H2 N2 1_555 1_555
N3 C12 1_555 1_555
N4 Cu2 1_555 1_555
C1 N1 1_555 1_555
H3 C1 1_555 1_555
C2 C1 1_555 1_555
H4 C2 1_555 1_555
H5 C2 1_555 1_555
C3 C2 1_555 1_555
H6 C3 1_555 1_555
H7 C3 1_555 1_555
C4 C3 1_555 1_555
H8 C4 1_555 1_555
H9 C4 1_555 1_555
C5 C4 1_555 1_555
H10 C5 1_555 1_555
H11 C5 1_555 1_555
C6 N2 1_555 1_555
H12 C6 1_555 1_555
C7 N2 1_555 1_555
H13 C7 1_555 1_555
C8 C7 1_555 1_555
H14 C8 1_555 1_555
H15 C8 1_555 1_555
H16 C8 1_555 1_555
C9 C7 1_555 1_555
H17 C9 1_555 1_555
H18 C9 1_555 1_555
C10 N1 1_555 1_555
H19 C10 1_555 1_555
H20 C10 1_555 1_555
C11 C12 1_555 1_555
C12 C15 1_555 1_555
C13 N3 1_555 1_555
H21 C13 1_555 1_555
C14 N4 1_555 1_555
H22 C14 1_555 1_555
C15 N4 1_555 1_555
C16 C15 1_555 1_555
O5 Cu2 1_555 1_555
C10B C9 1_555 1_555
N1B Cu1 1_555 1_555
H1B N1B 1_555 1_555
C1B N1B 1_555 1_555
H3B C1B 1_555 1_555
C2B C1B 1_555 1_555
H4B C2B 1_555 1_555
H5B C2B 1_555 1_555
C3B C2B 1_555 1_555
H6B C3B 1_555 1_555
H7B C3B 1_555 1_555
C4B C3B 1_555 1_555
H8B C4B 1_555 1_555
H9B C4B 1_555 1_555
C5B C4B 1_555 1_555
H10B C5B 1_555 1_555
H11B C5B 1_555 1_555
C6B C1B 1_555 1_555
N2B Cu1 1_555 1_555
H2B N2B 1_555 1_555
C7B N2B 1_555 1_555
H13B C7B 1_555 1_555
C8B C7B 1_555 1_555
H14B C8B 1_555 1_555
H15B C8B 1_555 1_555
H16B C8B 1_555 1_555
C9B C10 1_555 1_555
H17B C9B 1_555 1_555
H18B C9B 1_555 1_555
H12B C6B 1_555 1_555
H19B C10B 1_555 1_555
H20B C10B 1_555 1_555
O1B C11B 1_555 1_555
O2B Cu1 1_555 1_555
O3B C16B 1_555 1_555
O4B C16B 1_555 1_555
N3B C12B 1_555 1_555
N4B C14B 1_555 1_555
C11B O2B 1_555 1_555
C12B C11B 1_555 1_555
C13B N3B 1_555 1_555
H21B C13B 1_555 1_555
C14B C13B 1_555 1_555
H22B C14B 1_555 1_555
C15B N4B 1_555 1_555
C16B C15B 1_555 1_555
O5B Cu2 1_555 1_555
O4B_2 Cu2 1_555 1_555
N4B_2 Cu2 1_555 1_555
Cu2_2 O4B 1_555 1_555
C1 C6 1_555 1_555
C5 C6 1_555 1_555
C13 C14 1_555 1_555
C10B N1B 1_555 1_555
C5B C6B 1_555 1_555
C6B N2B 1_555 1_555
C7B C9B 1_555 1_555
N4B Cu2_2 1_555 1_555
C12B C15B 1_555 1_555

#END
