
#######################################################################
#
#                 Cambridge Crystallographic Data Centre
#                                CCDC 
#
#######################################################################
#
# If this CIF has been generated from an entry in the Cambridge 
# Structural Database, then it will include bibliographic, chemical, 
# crystal, experimental, refinement or atomic coordinate data resulting 
# from the CCDC's data processing and validation procedures.
#
#######################################################################

data_ULOMUD
_symmetry_cell_setting           triclinic
_symmetry_space_group_name_H-M   'P -1'
_symmetry_Int_Tables_number      2
_space_group_name_Hall           '-P 1'
loop_
_symmetry_equiv_pos_site_id
_symmetry_equiv_pos_as_xyz
1 x,y,z
2 -x,-y,-z
_cell_length_a                   11.5407(6)
_cell_length_b                   14.5687(7)
_cell_length_c                   23.5786(11)
_cell_angle_alpha                74.2030(10)
_cell_angle_beta                 80.5300(10)
_cell_angle_gamma                83.9980(10)
_cell_volume                     3755.16
loop_
_atom_site_label
_atom_site_type_symbol
_atom_site_fract_x
_atom_site_fract_y
_atom_site_fract_z
Cu1 Cu 0.33717(6) 0.28428(5) 0.33916(3)
P1 P 0.51804(13) 0.22554(11) 0.32234(7)
N1 N 0.2404(4) 0.3952(3) 0.35969(19)
C1 C 0.6344(5) 0.3036(5) 0.2808(3)
Cu2 Cu 0.05060(5) 0.14872(4) 0.09798(3)
N2 N -0.0153(4) 0.6373(3) 0.1907(2)
C2 C 0.6059(7) 0.3940(6) 0.2508(3)
H1 H 0.5255 0.4163 0.2508
Cu3 Cu 0.04522(5) 0.65184(4) 0.10005(3)
N3 N 0.2126(4) 0.1843(3) 0.36009(19)
C3 C 0.6946(8) 0.4549(7) 0.2196(4)
H2 H 0.6735 0.5181 0.1982
N4 N -0.0056(4) 0.0975(3) 0.18951(19)
C4 C 0.8085(7) 0.4257(7) 0.2194(3)
H3 H 0.8678 0.4688 0.2000
N5 N 0.2034(4) 0.0860(3) 0.07949(18)
C5 C 0.8380(7) 0.3345(7) 0.2470(5)
H4 H 0.9185 0.3123 0.2454
N6 N 0.2001(4) -0.2987(3) 0.08776(19)
C6 C 0.7512(6) 0.2727(6) 0.2778(4)
H5 H 0.7731 0.2084 0.2970
N7 N -0.0844(4) 0.2327(3) 0.07219(18)
C7 C 0.5674(5) 0.1675(4) 0.3938(3)
N8 N -0.0810(3) 0.6158(3) 0.06667(17)
C8 C 0.5240(6) 0.2018(6) 0.4421(3)
H6 H 0.4688 0.2555 0.4374
C9 C 0.5577(8) 0.1612(7) 0.4974(3)
H7 H 0.5267 0.1875 0.5299
C10 C 0.6343(7) 0.0843(7) 0.5053(3)
H8 H 0.6584 0.0574 0.5433
C11 C 0.6799(7) 0.0426(6) 0.4573(3)
H9 H 0.7331 -0.0125 0.4629
C12 C 0.6442(6) 0.0848(6) 0.4023(3)
H10 H 0.6720 0.0576 0.3699
C13 C 0.5300(5) 0.1310(5) 0.2839(3)
C14 C 0.4787(9) 0.0459(6) 0.3129(4)
H11 H 0.4381 0.0374 0.3523
C15 C 0.4863(11) -0.0277(7) 0.2845(4)
H12 H 0.4536 -0.0868 0.3055
C16 C 0.5386(8) -0.0165(7) 0.2285(4)
H13 H 0.5465 -0.0677 0.2100
C17 C 0.5801(7) 0.0692(6) 0.1987(3)
H14 H 0.6120 0.0797 0.1578
C18 C 0.5773(6) 0.1416(5) 0.2259(3)
H15 H 0.6091 0.2005 0.2037
C19 C 0.2226(6) 0.4012(5) 0.4160(3)
H16 H 0.2677 0.3588 0.4437
C20 C 0.1405(7) 0.4671(5) 0.4358(3)
H17 H 0.1313 0.4690 0.4762
C21 C 0.0743(7) 0.5278(5) 0.3981(3)
H18 H 0.0186 0.5726 0.4119
C22 C 0.0882(5) 0.5245(4) 0.3376(2)
C23 C 0.1732(5) 0.4581(4) 0.3202(2)
C24 C 0.1943(5) 0.4519(4) 0.2599(2)
H19 H 0.2527 0.4069 0.2483
C25 C 0.1307(5) 0.5103(4) 0.2193(2)
H20 H 0.1446 0.5052 0.1794
C26 C 0.0439(5) 0.5786(4) 0.2351(2)
C27 C 0.0209(5) 0.5857(4) 0.2941(2)
C28 C -0.0698(6) 0.6540(5) 0.3078(3)
H21 H -0.0901 0.6597 0.3475
C29 C -0.1267(7) 0.7108(5) 0.2635(3)
H22 H -0.1858 0.7577 0.2718
C30 C -0.0977(5) 0.6995(5) 0.2055(3)
H23 H -0.1397 0.7388 0.1753
C31 C 0.1784(6) 0.1479(5) 0.4182(3)
H24 H 0.2153 0.1671 0.4458
C32 C 0.0909(7) 0.0828(6) 0.4401(3)
H25 H 0.0698 0.0576 0.4817
C33 C 0.0355(7) 0.0555(6) 0.4001(3)
H26 H -0.0228 0.0100 0.4142
C34 C 0.0653(5) 0.0949(4) 0.3387(2)
C35 C 0.1585(5) 0.1584(4) 0.3206(2)
C36 C 0.1962(5) 0.1962(4) 0.2583(2)
H27 H 0.2596 0.2371 0.2458
C37 C 0.1424(5) 0.1745(4) 0.2166(2)
H28 H 0.1695 0.1997 0.1754
C38 C 0.0465(5) 0.1145(4) 0.2340(2)
C39 C 0.0080(5) 0.0729(4) 0.2942(2)
C40 C -0.0859(5) 0.0117(4) 0.3086(3)
H29 H -0.1122 -0.0193 0.3490
C41 C -0.1382(5) -0.0025(4) 0.2644(3)
H30 H -0.2028 -0.0420 0.2738
C42 C -0.0970(5) 0.0409(4) 0.2059(3)
H31 H -0.1349 0.0303 0.1756
C43 C 0.3036(5) 0.1264(4) 0.0770(2)
H32 H 0.3000 0.1917 0.0772
C44 C 0.4124(5) 0.0766(4) 0.0741(3)
H33 H 0.4817 0.1083 0.0715
C45 C 0.4206(4) -0.0185(4) 0.0749(3)
H34 H 0.4949 -0.0533 0.0738
C46 C 0.3171(4) -0.0635(4) 0.0774(2)
C47 C 0.2104(4) -0.0080(3) 0.0781(2)
C48 C 0.1035(4) -0.0496(4) 0.0782(2)
H35 H 0.0317 -0.0111 0.0771
C49 C 0.1033(4) -0.1425(4) 0.0797(2)
H36 H 0.0315 -0.1682 0.0787
C50 C 0.2072(4) -0.2025(3) 0.0829(2)
C51 C 0.3162(4) -0.1651(4) 0.0806(2)
C52 C 0.4167(5) -0.2273(4) 0.0845(3)
H37 H 0.4910 -0.2044 0.0841
C53 C 0.4063(5) -0.3223(4) 0.0890(3)
H38 H 0.4739 -0.3656 0.0915
C54 C 0.2978(5) -0.3546(4) 0.0899(3)
H39 H 0.2931 -0.4203 0.0922
C55 C -0.1797(5) 0.1962(4) 0.0643(2)
H40 H -0.1753 0.1309 0.0640
C56 C -0.2858(5) 0.2504(4) 0.0562(2)
H41 H -0.3529 0.2211 0.0525
C57 C -0.2929(4) 0.3448(4) 0.0539(2)
H42 H -0.3646 0.3821 0.0481
C58 C -0.1922(4) 0.3875(3) 0.0601(2)
C59 C -0.0906(4) 0.3276(3) 0.0709(2)
C60 C 0.0125(4) 0.3654(3) 0.0802(2)
H43 H 0.0815 0.3248 0.0870
C61 C 0.0121(4) 0.4576(3) 0.0792(2)
H44 H 0.0807 0.4808 0.0864
C62 C -0.0883(4) 0.5222(3) 0.0678(2)
C63 C -0.1908(4) 0.4883(3) 0.0567(2)
C64 C -0.2854(4) 0.5560(4) 0.0418(2)
H45 H -0.3558 0.5368 0.0337
C65 C -0.2737(5) 0.6499(4) 0.0393(2)
H46 H -0.3357 0.6965 0.0284
C66 C -0.1734(5) 0.6763(4) 0.0523(2)
H47 H -0.1688 0.7416 0.0511
N6_2 N 0.2001(4) 0.7013(3) 0.08776(19)
Cu3_2 Cu 0.04522(5) -0.34816(4) 0.10005(3)
F1 F 0.8830(4) 0.7016(3) 0.43865(17)
B1 B 0.8178(7) 0.7864(5) 0.4324(3)
F2 F 0.7872(4) 0.8186(3) 0.37512(15)
F3 F 0.8832(4) 0.8561(3) 0.44186(16)
F4 F 0.7176(3) 0.7761(3) 0.47441(16)
O1 O -0.2061(13) 0.3896(10) 0.3948(6)
C67 C -0.1166(13) 0.3039(11) 0.4066(6)
H48 H -0.1423 0.2514 0.3933
H49 H -0.0394 0.3224 0.3831
C68 C -0.1034(14) 0.2697(10) 0.4702(7)
H50 H -0.1384 0.2073 0.4882
H51 H -0.0193 0.2626 0.4755
C69 C -0.1663(17) 0.3435(13) 0.4972(6)
H52 H -0.2346 0.3169 0.5261
H53 H -0.1135 0.3672 0.5184
C70 C -0.2055(13) 0.4203(10) 0.4498(6)
H54 H -0.1530 0.4736 0.4408
H55 H -0.2859 0.4444 0.4632
O2 O 0.2057(19) -0.2167(17) 0.2329(9)
C71 C 0.287(3) -0.2700(17) 0.2705(12)
H56 H 0.3672 -0.2463 0.2572
H57 H 0.2909 -0.3389 0.2722
C72 C 0.235(2) -0.2517(16) 0.3295(8)
H58 H 0.1799 -0.3007 0.3522
H59 H 0.2976 -0.2514 0.3537
C73 C 0.1724(19) -0.1552(16) 0.3131(9)
H60 H 0.2054 -0.1092 0.3293
H61 H 0.0873 -0.1585 0.3283
C74 C 0.1928(18) -0.1267(13) 0.2459(9)
H62 H 0.1248 -0.0873 0.2294
H63 H 0.2649 -0.0911 0.2303
B2 B 0.7486(6) 0.9211(5) 0.0889(3)
F5 F 0.8497(3) 0.9064(3) 0.05129(19)
F6 F 0.7782(6) 0.9118(4) 0.1437(2)
F7 F 0.6953(3) 1.0106(2) 0.06839(16)
F8 F 0.6738(3) 0.8528(3) 0.0909(3)
B3 B 0.3861(5) 0.3735(5) 0.1133(3)
F9 F 0.4031(4) 0.3472(4) 0.17177(18)
F10 F 0.4427(3) 0.4533(3) 0.0833(2)
F11 F 0.4279(3) 0.3011(3) 0.0862(2)
F12 F 0.2651(3) 0.3912(3) 0.11213(19)
loop_
_geom_bond_atom_site_label_1
_geom_bond_atom_site_label_2
_geom_bond_site_symmetry_1
_geom_bond_site_symmetry_2
Cu1 P1 1_555 1_555
P1 C1 1_555 1_555
F1 B1 1_555 1_555
O1 C67 1_555 1_555
N1 Cu1 1_555 1_555
C1 C2 1_555 1_555
B1 F2 1_555 1_555
Cu2 N4 1_555 1_555
O2 C71 1_555 1_555
N2 Cu3 1_555 1_555
C2 H1 1_555 1_555
B2 F5 1_555 1_555
Cu3 N8 1_555 1_555
F3 B1 1_555 1_555
N3 Cu1 1_555 1_555
C3 C2 1_555 1_555
H2 C3 1_555 1_555
B3 F9 1_555 1_555
F4 B1 1_555 1_555
N4 C38 1_555 1_555
C4 C3 1_555 1_555
H3 C4 1_555 1_555
N5 Cu2 1_555 1_555
C5 C4 1_555 1_555
H4 C5 1_555 1_555
F6 B2 1_555 1_555
N6 C50 1_555 1_555
C6 C1 1_555 1_555
H5 C6 1_555 1_555
F7 B2 1_555 1_555
N7 Cu2 1_555 1_555
C7 P1 1_555 1_555
F8 B2 1_555 1_555
N8 C62 1_555 1_555
C8 C7 1_555 1_555
H6 C8 1_555 1_555
C9 C8 1_555 1_555
H7 C9 1_555 1_555
F10 B3 1_555 1_555
C10 C9 1_555 1_555
H8 C10 1_555 1_555
F11 B3 1_555 1_555
C11 C10 1_555 1_555
H9 C11 1_555 1_555
F12 B3 1_555 1_555
C12 C7 1_555 1_555
H10 C12 1_555 1_555
C13 P1 1_555 1_555
C14 C13 1_555 1_555
H11 C14 1_555 1_555
C15 C14 1_555 1_555
H12 C15 1_555 1_555
C16 C15 1_555 1_555
H13 C16 1_555 1_555
C17 C16 1_555 1_555
H14 C17 1_555 1_555
C18 C13 1_555 1_555
H15 C18 1_555 1_555
C19 N1 1_555 1_555
H16 C19 1_555 1_555
C20 C19 1_555 1_555
H17 C20 1_555 1_555
C21 C20 1_555 1_555
H18 C21 1_555 1_555
C22 C21 1_555 1_555
C23 N1 1_555 1_555
C24 C23 1_555 1_555
H19 C24 1_555 1_555
C25 C24 1_555 1_555
H20 C25 1_555 1_555
C26 N2 1_555 1_555
C27 C22 1_555 1_555
C28 C27 1_555 1_555
H21 C28 1_555 1_555
C29 C28 1_555 1_555
H22 C29 1_555 1_555
C30 N2 1_555 1_555
H23 C30 1_555 1_555
C31 N3 1_555 1_555
H24 C31 1_555 1_555
C32 C31 1_555 1_555
H25 C32 1_555 1_555
C33 C32 1_555 1_555
H26 C33 1_555 1_555
C34 C33 1_555 1_555
C35 N3 1_555 1_555
C36 C35 1_555 1_555
H27 C36 1_555 1_555
C37 C36 1_555 1_555
H28 C37 1_555 1_555
C38 C37 1_555 1_555
C39 C34 1_555 1_555
C40 C39 1_555 1_555
H29 C40 1_555 1_555
C41 C40 1_555 1_555
H30 C41 1_555 1_555
C42 N4 1_555 1_555
H31 C42 1_555 1_555
C43 N5 1_555 1_555
H32 C43 1_555 1_555
C44 C43 1_555 1_555
H33 C44 1_555 1_555
C45 C44 1_555 1_555
H34 C45 1_555 1_555
C46 C45 1_555 1_555
C47 N5 1_555 1_555
C48 C47 1_555 1_555
H35 C48 1_555 1_555
C49 C48 1_555 1_555
H36 C49 1_555 1_555
C50 C49 1_555 1_555
C51 C46 1_555 1_555
C52 C51 1_555 1_555
H37 C52 1_555 1_555
C53 C52 1_555 1_555
H38 C53 1_555 1_555
C54 N6 1_555 1_555
H39 C54 1_555 1_555
C55 N7 1_555 1_555
H40 C55 1_555 1_555
C56 C55 1_555 1_555
H41 C56 1_555 1_555
C57 C56 1_555 1_555
H42 C57 1_555 1_555
C58 C57 1_555 1_555
C59 N7 1_555 1_555
C60 C59 1_555 1_555
H43 C60 1_555 1_555
C61 C60 1_555 1_555
H44 C61 1_555 1_555
C62 C61 1_555 1_555
C63 C58 1_555 1_555
C64 C63 1_555 1_555
H45 C64 1_555 1_555
C65 C64 1_555 1_555
H46 C65 1_555 1_555
C66 N8 1_555 1_555
H47 C66 1_555 1_555
C67 H48 1_555 1_555
H49 C67 1_555 1_555
C68 C67 1_555 1_555
H50 C68 1_555 1_555
H51 C68 1_555 1_555
C69 C68 1_555 1_555
H52 C69 1_555 1_555
H53 C69 1_555 1_555
C70 O1 1_555 1_555
H54 C70 1_555 1_555
H55 C70 1_555 1_555
C71 H56 1_555 1_555
H57 C71 1_555 1_555
C72 C71 1_555 1_555
H58 C72 1_555 1_555
H59 C72 1_555 1_555
C73 C72 1_555 1_555
H60 C73 1_555 1_555
H61 C73 1_555 1_555
C74 O2 1_555 1_555
H62 C74 1_555 1_555
H63 C74 1_555 1_555
N6_2 Cu3 1_555 1_555
Cu3_2 N6 1_555 1_555
C5 C6 1_555 1_555
C11 C12 1_555 1_555
C17 C18 1_555 1_555
C22 C23 1_555 1_555
C25 C26 1_555 1_555
C26 C27 1_555 1_555
C29 C30 1_555 1_555
C34 C35 1_555 1_555
C38 C39 1_555 1_555
C41 C42 1_555 1_555
C46 C47 1_555 1_555
C50 C51 1_555 1_555
C53 C54 1_555 1_555
C58 C59 1_555 1_555
C62 C63 1_555 1_555
C65 C66 1_555 1_555
C69 C70 1_555 1_555
C73 C74 1_555 1_555

#END
