
#######################################################################
#
#                 Cambridge Crystallographic Data Centre
#                                CCDC 
#
#######################################################################
#
# If this CIF has been generated from an entry in the Cambridge 
# Structural Database, then it will include bibliographic, chemical, 
# crystal, experimental, refinement or atomic coordinate data resulting 
# from the CCDC's data processing and validation procedures.
#
#######################################################################

data_ULOQUH
_symmetry_cell_setting           triclinic
_symmetry_space_group_name_H-M   'P -1'
_symmetry_Int_Tables_number      2
_space_group_name_Hall           '-P 1'
loop_
_symmetry_equiv_pos_site_id
_symmetry_equiv_pos_as_xyz
1 x,y,z
2 -x,-y,-z
_cell_length_a                   5.936(8)
_cell_length_b                   8.980(14)
_cell_length_c                   15.84(2)
_cell_angle_alpha                101.327(10)
_cell_angle_beta                 95.879(10)
_cell_angle_gamma                101.496(10)
_cell_volume                     802.446
loop_
_atom_site_label
_atom_site_type_symbol
_atom_site_fract_x
_atom_site_fract_y
_atom_site_fract_z
Cd1 Cd 0.5000 0.5000 0.0000
Cd2 Cd 0.55630(9) 0.82655(5) -0.32724(3)
S1 S 0.6642(3) 0.2335(2) -0.00972(10)
C1 C 0.9437(12) 0.3047(8) 0.0002(4)
N1 N 1.1453(12) 0.3562(8) 0.0088(4)
S2 S 0.8758(4) 0.9513(2) -0.18461(12)
C2 C 1.1162(14) 0.9289(8) -0.2229(5)
N2 N 1.2853(13) 0.9120(8) -0.2502(4)
N3 N 0.8150(13) 0.7474(8) -0.4150(4)
C3 C 0.9829(14) 0.7375(9) -0.4391(4)
S3 S 1.2266(4) 0.7177(2) -0.47784(11)
N4 N 0.4300(10) 0.5778(6) -0.2838(3)
C4 C 0.1688(11) 0.5278(7) -0.3043(4)
H1 H 0.1011 0.6090 -0.2741
H2 H 0.1221 0.5145 -0.3663
C5 C 0.5223(13) 0.4469(8) -0.3311(4)
H3 H 0.4729 0.4306 -0.3932
H4 H 0.6909 0.4749 -0.3207
C6 C 0.4948(10) 0.5979(7) -0.1888(3)
H5 H 0.6624 0.6317 -0.1740
H6 H 0.4267 0.6786 -0.1584
N5 N 0.0808(11) 0.3839(7) -0.2788(3)
N6 N 0.4423(11) 0.3043(6) -0.3035(3)
N7 N 0.4161(8) 0.4534(5) -0.1600(3)
C7 C 0.1890(12) 0.2582(8) -0.3229(4)
H7 H 0.1347 0.1633 -0.3034
H8 H 0.1417 0.2372 -0.3853
C8 C 0.1522(11) 0.4067(8) -0.1828(4)
H9 H 0.0943 0.3108 -0.1647
H10 H 0.0847 0.4873 -0.1518
C9 C 0.5154(11) 0.3270(7) -0.2079(4)
H11 H 0.6837 0.3550 -0.1948
H12 H 0.4608 0.2308 -0.1897
O1 O 0.6290(14) 1.0568(8) -0.3801(4)
S1A S 0.3358(3) 0.7665(2) 0.00972(10)
C1A C 0.0563(12) 0.6953(8) -0.0002(4)
N1A N -0.1453(12) 0.6438(8) -0.0088(4)
N4A N 0.5700(10) 0.4222(6) 0.2838(3)
C4A C 0.8312(11) 0.4722(7) 0.3043(4)
H1A H 0.8989 0.3910 0.2741
H2A H 0.8779 0.4855 0.3663
C5A C 0.4777(13) 0.5531(8) 0.3311(4)
H3A H 0.5271 0.5694 0.3932
H4A H 0.3091 0.5251 0.3207
C6A C 0.5052(10) 0.4021(7) 0.1888(3)
H5A H 0.3376 0.3683 0.1740
H6A H 0.5733 0.3214 0.1584
N5A N 0.9192(11) 0.6161(7) 0.2788(3)
N6A N 0.5577(11) 0.6957(6) 0.3035(3)
N7A N 0.5839(8) 0.5466(5) 0.1600(3)
C7A C 0.8110(12) 0.7418(8) 0.3229(4)
H7A H 0.8653 0.8367 0.3034
H8A H 0.8583 0.7628 0.3853
C8A C 0.8478(11) 0.5933(8) 0.1828(4)
H9A H 0.9057 0.6892 0.1647
H10A H 0.9153 0.5127 0.1518
C9A C 0.4846(11) 0.6730(7) 0.2079(4)
H11A H 0.3163 0.6450 0.1948
H12A H 0.5392 0.7692 0.1897
Cd2A Cd 0.44370(9) 0.17345(5) 0.32724(3)
S2_2 S -0.1242(4) 0.9513(2) -0.18461(12)
C2_2 C 0.1162(14) 0.9289(8) -0.2229(5)
N2_2 N 0.2853(13) 0.9120(8) -0.2502(4)
N3_2 N -0.1850(13) 0.7474(8) -0.4150(4)
C3_2 C -0.0171(14) 0.7375(9) -0.4391(4)
S3_2 S 0.2266(4) 0.7177(2) -0.47784(11)
O1A O 0.3710(14) -0.0568(8) 0.3801(4)
N1_2 N 0.1453(12) 0.3562(8) 0.0088(4)
N1A_2 N 0.8547(12) 0.6438(8) -0.0088(4)
Cd1_2 Cd 1.5000 0.5000 0.0000
Cd2_2 Cd 1.55630(9) 0.82655(5) -0.32724(3)
Cd1_3 Cd -0.5000 0.5000 0.0000
S2A S 0.1242(4) 0.0487(2) 0.18461(12)
N2A N 0.7147(13) 0.0880(8) 0.2502(4)
N3A N 0.1850(13) 0.2526(8) 0.4150(4)
S3A S 0.7734(4) 0.2823(2) 0.47784(11)
Cd2_3 Cd -0.44370(9) 0.82655(5) -0.32724(3)
loop_
_geom_bond_atom_site_label_1
_geom_bond_atom_site_label_2
_geom_bond_site_symmetry_1
_geom_bond_site_symmetry_2
Cd1 S1 1_555 1_555
Cd2 S2 1_555 1_555
S1 C1 1_555 1_555
C1 N1 1_555 1_555
N1 Cd1_2 1_555 1_555
S2 C2 1_555 1_555
C2 N2 1_555 1_555
N2 Cd2_2 1_555 1_555
N3 Cd2 1_555 1_555
C3 N3 1_555 1_555
S3 C3 1_555 1_555
N4 Cd2 1_555 1_555
C4 N4 1_555 1_555
H1 C4 1_555 1_555
H2 C4 1_555 1_555
C5 N4 1_555 1_555
H3 C5 1_555 1_555
H4 C5 1_555 1_555
C6 N4 1_555 1_555
H5 C6 1_555 1_555
H6 C6 1_555 1_555
N5 C4 1_555 1_555
N6 C5 1_555 1_555
N7 Cd1 1_555 1_555
C7 N5 1_555 1_555
H7 C7 1_555 1_555
H8 C7 1_555 1_555
C8 N5 1_555 1_555
H9 C8 1_555 1_555
H10 C8 1_555 1_555
C9 N6 1_555 1_555
H11 C9 1_555 1_555
H12 C9 1_555 1_555
O1 Cd2 1_555 1_555
S1A Cd1 1_555 1_555
C1A S1A 1_555 1_555
N1A C1A 1_555 1_555
N4A C4A 1_555 1_555
C4A H1A 1_555 1_555
H2A C4A 1_555 1_555
C5A N4A 1_555 1_555
H3A C5A 1_555 1_555
H4A C5A 1_555 1_555
C6A N4A 1_555 1_555
H5A C6A 1_555 1_555
H6A C6A 1_555 1_555
N5A C4A 1_555 1_555
N6A C5A 1_555 1_555
N7A Cd1 1_555 1_555
C7A N5A 1_555 1_555
H7A C7A 1_555 1_555
H8A C7A 1_555 1_555
C8A N5A 1_555 1_555
H9A C8A 1_555 1_555
H10A C8A 1_555 1_555
C9A N6A 1_555 1_555
H11A C9A 1_555 1_555
H12A C9A 1_555 1_555
Cd2A N4A 1_555 1_555
S2_2 C2_2 1_555 1_555
C2_2 N2_2 1_555 1_555
N2_2 Cd2 1_555 1_555
N3_2 C3_2 1_555 1_555
C3_2 S3_2 1_555 1_555
S3_2 Cd2 1_555 1_555
O1A Cd2A 1_555 1_555
N1_2 Cd1 1_555 1_555
N1A_2 Cd1 1_555 1_555
Cd2_2 S3 1_555 1_555
Cd1_3 N1A 1_555 1_555
S2A Cd2A 1_555 1_555
N2A Cd2A 1_555 1_555
N3A Cd2A 1_555 1_555
S3A Cd2A 1_555 1_555
Cd2_3 S2_2 1_555 1_555
C6 N7 1_555 1_555
N6 C7 1_555 1_555
N7 C8 1_555 1_555
N7 C9 1_555 1_555
C6A N7A 1_555 1_555
N6A C7A 1_555 1_555
N7A C8A 1_555 1_555
N7A C9A 1_555 1_555
N3_2 Cd2_3 1_555 1_555

#END
