
#######################################################################
#
#                 Cambridge Crystallographic Data Centre
#                                CCDC 
#
#######################################################################
#
# If this CIF has been generated from an entry in the Cambridge 
# Structural Database, then it will include bibliographic, chemical, 
# crystal, experimental, refinement or atomic coordinate data resulting 
# from the CCDC's data processing and validation procedures.
#
#######################################################################

data_ULUBAE
_symmetry_cell_setting           monoclinic
_symmetry_space_group_name_H-M   'C 2/c'
_symmetry_Int_Tables_number      15
_space_group_name_Hall           '-C 2yn'
loop_
_symmetry_equiv_pos_site_id
_symmetry_equiv_pos_as_xyz
1 x,y,z
2 1/2+x,1/2+y,z
3 x,-y,1/2+z
4 1/2+x,1/2-y,1/2+z
5 -x,-y,-z
6 1/2-x,1/2-y,-z
7 -x,y,1/2-z
8 1/2-x,1/2+y,1/2-z
_cell_length_a                   17.5696(8)
_cell_length_b                   11.4101(5)
_cell_length_c                   24.479(1)
_cell_angle_alpha                90
_cell_angle_beta                 93.065(1)
_cell_angle_gamma                90
_cell_volume                     4900.31
loop_
_atom_site_label
_atom_site_type_symbol
_atom_site_fract_x
_atom_site_fract_y
_atom_site_fract_z
Ni1 Ni 0.0000 0.42097(5) 0.7500
O1 O -0.10705(16) 0.4207(2) 0.71132(11)
H1 H -0.117(4) 0.472(6) 0.679(3)
H2 H -0.145(3) 0.413(4) 0.725(2)
N1 N 0.0000 0.2345(3) 0.7500
N2 N 0.0000 -0.3877(3) 0.7500
C1 C 0.0636(2) 0.1733(3) 0.74257(17)
H3 H 0.106(2) 0.219(4) 0.7371(15)
C2 C 0.0659(2) 0.0528(3) 0.74234(18)
H4 H 0.108(3) 0.017(5) 0.734(2)
C3 C 0.0000 -0.0107(4) 0.7500
C4 C 0.0000 -0.1411(4) 0.7500
C5 C 0.0643(2) -0.2054(3) 0.76699(16)
H5 H 0.107(3) -0.170(4) 0.7806(17)
C6 C 0.0620(2) -0.3258(3) 0.76638(15)
H6 H 0.106(3) -0.370(4) 0.7778(18)
N3 N -0.04479(17) 0.4164(2) 0.82847(12)
N4 N -0.1216(2) 0.4755(3) 1.10940(13)
C7 C -0.0146(2) 0.3430(3) 0.86651(15)
H7 H 0.020(3) 0.288(4) 0.8544(18)
C8 C -0.0320(2) 0.3463(3) 0.92074(15)
H8 H -0.006(3) 0.306(5) 0.941(2)
C9 C -0.0831(2) 0.4295(3) 0.93848(14)
C10 C -0.1165(2) 0.5023(4) 0.89870(16)
H9 H -0.151(3) 0.568(4) 0.908(2)
C11 C -0.0960(2) 0.4929(3) 0.84497(15)
H10 H -0.116(3) 0.537(4) 0.820(2)
C12 C -0.0985(2) 0.4432(3) 0.99748(14)
C13 C -0.0652(2) 0.3705(4) 1.03735(15)
H11 H -0.032(3) 0.307(4) 1.026(2)
C14 C -0.0774(2) 0.3906(4) 1.09214(16)
H12 H -0.049(4) 0.332(5) 1.120(2)
C15 C -0.1559(3) 0.5424(5) 1.07086(19)
H13 H -0.185(4) 0.599(6) 1.085(3)
C16 C -0.1457(3) 0.5302(5) 1.01538(17)
H14 H -0.169(3) 0.580(4) 0.993(2)
C2F C -0.0659(2) 0.0528(3) 0.75766(18)
C1F C -0.0636(2) 0.1733(3) 0.75743(17)
H3F H -0.106(2) 0.219(4) 0.7629(15)
H4F H -0.108(3) 0.017(5) 0.766(2)
C6F C -0.0620(2) -0.3258(3) 0.73362(15)
C5F C -0.0643(2) -0.2054(3) 0.73301(16)
H5F H -0.107(3) -0.170(4) 0.7194(17)
H6F H -0.106(3) -0.370(4) 0.7222(18)
O1F O 0.10705(16) 0.4207(2) 0.78868(11)
H1F H 0.117(4) 0.472(6) 0.821(3)
H2F H 0.145(3) 0.413(4) 0.775(2)
N3F N 0.04479(17) 0.4164(2) 0.67153(12)
N4F N 0.1216(2) 0.4755(3) 0.39060(13)
C7F C 0.0146(2) 0.3430(3) 0.63349(15)
H7F H -0.020(3) 0.288(4) 0.6456(18)
C8F C 0.0320(2) 0.3463(3) 0.57926(15)
H8F H 0.006(3) 0.306(5) 0.559(2)
C9F C 0.0831(2) 0.4295(3) 0.56152(14)
C10F C 0.1165(2) 0.5023(4) 0.60130(16)
H9F H 0.151(3) 0.568(4) 0.592(2)
C11F C 0.0960(2) 0.4929(3) 0.65503(15)
H10F H 0.116(3) 0.537(4) 0.680(2)
C12F C 0.0985(2) 0.4432(3) 0.50252(14)
C13F C 0.0652(2) 0.3705(4) 0.46265(15)
H11F H 0.032(3) 0.307(4) 0.474(2)
C14F C 0.0774(2) 0.3906(4) 0.40786(16)
H12F H 0.049(4) 0.332(5) 0.380(2)
C15F C 0.1559(3) 0.5424(5) 0.42914(19)
H13F H 0.185(4) 0.599(6) 0.415(3)
C16F C 0.1457(3) 0.5302(5) 0.48462(17)
H14F H 0.169(3) 0.580(4) 0.507(2)
N2_2 N 0.0000 0.6123(3) 0.7500
Ni1_2 Ni 0.0000 -0.57903(5) 0.7500
N5 N -0.2649(6) 0.3081(9) 0.8550(4)
C19 C -0.2570(6) 0.2690(9) 0.9691(4)
C20 C -0.2952(7) 0.3620(13) 0.9448(5)
H17 H -0.3204 0.4174 0.9671
C21 C -0.2977(6) 0.3760(11) 0.8918(4)
H18 H -0.3259 0.4423 0.8775
C25 C -0.2062(11) 0.1952(15) 0.8835(7)
H21 H -0.1761 0.1436 0.8625
C26 C -0.2032(9) 0.1797(12) 0.9389(6)
H22 H -0.1713 0.1189 0.9547
C19E C -0.2430(6) 0.2310(9) 1.0309(4)
C20E C -0.2048(7) 0.1380(13) 1.0552(5)
H17E H -0.1796 0.0826 1.0329
C21E C -0.2023(6) 0.1240(11) 1.1082(4)
N5E N -0.2351(6) 0.1919(9) 1.1450(4)
C25E C -0.2938(11) 0.3048(15) 1.1165(7)
H21E H -0.3239 0.3564 1.1375
C26E C -0.2968(9) 0.3203(12) 1.0611(6)
H22E H -0.3287 0.3811 1.0453
H18E H -0.1741 0.0577 1.1225
Cl1 Cl -0.1640(5) 0.7980(8) 0.8699(4)
O2 O -0.1890(15) 0.7709(17) 0.9214(8)
O3 O -0.1718(10) 0.9273(15) 0.8635(8)
O4 O -0.211(2) 0.753(4) 0.8387(12)
O5 O -0.0768(10) 0.7752(14) 0.8811(10)
N7 N 0.1201(10) 1.1160(18) 0.9041(8)
C27 C 0.1382(11) 1.1340(18) 0.9594(8)
H23 H 0.1828 1.1782 0.9707
C28 C 0.0918(15) 1.088(2) 0.9984(6)
H24 H 0.1043 1.1006 1.0366
C29 C 0.0272(14) 1.024(2) 0.9820(8)
C30 C 0.0090(11) 1.006(2) 0.9267(9)
C31 C 0.0555(11) 1.0520(17) 0.8877(6)
H26 H 0.0430 1.0396 0.8495
C29D C -0.0272(14) 0.976(2) 1.0180(8)
C28D C -0.0918(15) 0.912(2) 1.0016(6)
C27D C -0.1382(11) 0.8660(18) 1.0406(8)
N7D N -0.1201(10) 0.8840(18) 1.0959(8)
C31D C -0.0555(11) 0.9480(17) 1.1123(6)
C30D C -0.0090(11) 0.994(2) 1.0733(9)
H26D H -0.0430 0.9604 1.1505
H23D H -0.1828 0.8218 1.0293
H24D H -0.1043 0.8994 0.9634
O11 O -0.2401(11) 0.378(2) 0.7508(7)
N6? N -0.2541(6) 0.2261(11) 1.1421(4)
C17? C -0.2255(7) 0.2137(11) 0.8769(5)
H15? H -0.1992 0.1618 0.8535
C18? C -0.2230(7) 0.1928(10) 0.9328(5)
H16? H -0.1976 0.1239 0.9470
C22? C -0.2568(7) 0.2561(11) 1.0289(5)
C23? C -0.2119(10) 0.1666(16) 1.0544(7)
H19? H -0.1807 0.1155 1.0339
C24? C -0.2151(10) 0.1554(16) 1.1158(7)
H20? H -0.1871 0.0943 1.1349
Cl2? Cl -0.0807(13) 0.8933(17) 0.9188(7)
Cl3? Cl -0.1262(6) 0.8528(7) 0.8884(3)
O6? O -0.039(3) 0.839(3) 0.8814(13)
O7? O -0.135(6) 0.857(9) 0.9445(15)
O8? O -0.118(2) 0.965(2) 0.8953(18)
O9? O -0.1934(19) 0.736(2) 0.8257(9)
Cl4? Cl -0.0323(9) 0.9430(14) 0.9215(5)
H25? H -0.0355 0.9619 0.9153
O10? O -0.2469(19) 0.387(2) 0.7553(15)
O12? O -0.2677(19) 0.612(3) 0.8024(14)
loop_
_geom_bond_atom_site_label_1
_geom_bond_atom_site_label_2
_geom_bond_site_symmetry_1
_geom_bond_site_symmetry_2
Ni1 O1 1_555 1_555
O1 H1 1_555 1_555
H2 O1 1_555 1_555
N1 Ni1 1_555 1_555
N2 C6 1_555 1_555
C1 N1 1_555 1_555
H3 C1 1_555 1_555
C2 C1 1_555 1_555
H4 C2 1_555 1_555
C3 C2 1_555 1_555
C4 C3 1_555 1_555
C5 C4 1_555 1_555
H5 C5 1_555 1_555
C6 C5 1_555 1_555
H6 C6 1_555 1_555
N3 Ni1 1_555 1_555
N4 C14 1_555 1_555
C7 N3 1_555 1_555
H7 C7 1_555 1_555
C8 C7 1_555 1_555
H8 C8 1_555 1_555
C9 C8 1_555 1_555
C10 C9 1_555 1_555
H9 C10 1_555 1_555
C11 N3 1_555 1_555
H10 C11 1_555 1_555
C12 C9 1_555 1_555
C13 C12 1_555 1_555
H11 C13 1_555 1_555
C14 C13 1_555 1_555
H12 C14 1_555 1_555
C15 N4 1_555 1_555
H13 C15 1_555 1_555
C16 C12 1_555 1_555
H14 C16 1_555 1_555
N5 C21 1_555 1_555
C19 C20 1_555 1_555
C20 H17 1_555 1_555
C21 C20 1_555 1_555
H18 C21 1_555 1_555
C25 N5 1_555 1_555
H21 C25 1_555 1_555
C26 C19 1_555 1_555
H22 C26 1_555 1_555
Cl1 O2 1_555 1_555
O3 Cl1 1_555 1_555
O4 Cl1 1_555 1_555
O5 Cl1 1_555 1_555
N7 C27 1_555 1_555
C27 H23 1_555 1_555
C28 C27 1_555 1_555
H24 C28 1_555 1_555
C29 C28 1_555 1_555
C30 C29 1_555 1_555
C31 N7 1_555 1_555
H26 C31 1_555 1_555
C2F C3 1_555 1_555
C1F N1 1_555 1_555
H3F C1F 1_555 1_555
H4F C2F 1_555 1_555
C6F N2 1_555 1_555
C5F C4 1_555 1_555
H5F C5F 1_555 1_555
H6F C6F 1_555 1_555
C19E C19 1_555 1_555
C20E C19E 1_555 1_555
H17E C20E 1_555 1_555
C21E C20E 1_555 1_555
N5E C21E 1_555 1_555
C25E N5E 1_555 1_555
H21E C25E 1_555 1_555
C26E C19E 1_555 1_555
H22E C26E 1_555 1_555
H18E C21E 1_555 1_555
C29D C29 1_555 1_555
C28D C29D 1_555 1_555
C27D C28D 1_555 1_555
N7D C27D 1_555 1_555
C31D N7D 1_555 1_555
C30D C29D 1_555 1_555
H26D C31D 1_555 1_555
H23D C27D 1_555 1_555
H24D C28D 1_555 1_555
O1F Ni1 1_555 1_555
H1F O1F 1_555 1_555
H2F O1F 1_555 1_555
N3F Ni1 1_555 1_555
N4F C14F 1_555 1_555
C7F N3F 1_555 1_555
H7F C7F 1_555 1_555
C8F C7F 1_555 1_555
H8F C8F 1_555 1_555
C9F C8F 1_555 1_555
C10F C9F 1_555 1_555
H9F C10F 1_555 1_555
C11F N3F 1_555 1_555
H10F C11F 1_555 1_555
C12F C9F 1_555 1_555
C13F C12F 1_555 1_555
H11F C13F 1_555 1_555
C14F C13F 1_555 1_555
H12F C14F 1_555 1_555
C15F N4F 1_555 1_555
H13F C15F 1_555 1_555
C16F C12F 1_555 1_555
H14F C16F 1_555 1_555
N2_2 Ni1 1_555 1_555
Ni1_2 N2 1_555 1_555
C10 C11 1_555 1_555
C15 C16 1_555 1_555
C25 C26 1_555 1_555
C30 C31 1_555 1_555
C2F C1F 1_555 1_555
C6F C5F 1_555 1_555
C25E C26E 1_555 1_555
C31D C30D 1_555 1_555
C10F C11F 1_555 1_555
C15F C16F 1_555 1_555

#END
