
#######################################################################
#
#                 Cambridge Crystallographic Data Centre
#                                CCDC 
#
#######################################################################
#
# If this CIF has been generated from an entry in the Cambridge 
# Structural Database, then it will include bibliographic, chemical, 
# crystal, experimental, refinement or atomic coordinate data resulting 
# from the CCDC's data processing and validation procedures.
#
#######################################################################

data_ULUBEI
_symmetry_cell_setting           monoclinic
_symmetry_space_group_name_H-M   'C 2/c'
_symmetry_Int_Tables_number      15
_space_group_name_Hall           '-C 2yn'
loop_
_symmetry_equiv_pos_site_id
_symmetry_equiv_pos_as_xyz
1 x,y,z
2 1/2+x,1/2+y,z
3 x,-y,1/2+z
4 1/2+x,1/2-y,1/2+z
5 -x,-y,-z
6 1/2-x,1/2-y,-z
7 -x,y,1/2-z
8 1/2-x,1/2+y,1/2-z
_cell_length_a                   17.614(2)
_cell_length_b                   11.514(1)
_cell_length_c                   24.604(2)
_cell_angle_alpha                90
_cell_angle_beta                 92.448(2)
_cell_angle_gamma                90
_cell_volume                     4985.32
loop_
_atom_site_label
_atom_site_type_symbol
_atom_site_fract_x
_atom_site_fract_y
_atom_site_fract_z
Co1 Co 0.0000 0.42238(5) 0.7500
O1 O -0.10684(16) 0.4244(2) 0.71247(11)
H1 H -0.116(3) 0.468(6) 0.688(3)
H2 H -0.142(3) 0.416(4) 0.727(2)
N1 N 0.0000 0.2331(3) 0.7500
N2 N 0.0000 -0.3838(3) 0.7500
C1 C 0.0635(2) 0.1727(3) 0.74200(17)
H3 H 0.106(2) 0.216(4) 0.7319(17)
C2 C 0.0658(2) 0.0529(3) 0.74155(18)
H4 H 0.1121 0.0136 0.7355
C3 C 0.0000 -0.0099(4) 0.7500
C4 C 0.0000 -0.1394(4) 0.7500
C5 C 0.0645(2) -0.2022(3) 0.76578(16)
H5 H 0.107(3) -0.170(4) 0.7776(19)
C6 C 0.0623(2) -0.3223(3) 0.76518(14)
H6 H 0.105(2) -0.371(4) 0.7782(17)
N3 N -0.04614(16) 0.4164(2) 0.83026(11)
N4 N -0.12167(19) 0.4766(3) 1.11063(13)
C7 C -0.0160(2) 0.3439(3) 0.86794(15)
H7 H 0.019(3) 0.292(4) 0.8565(18)
C8 C -0.0332(2) 0.3476(3) 0.92226(14)
H8 H -0.010(3) 0.299(5) 0.949(2)
C9 C -0.0835(2) 0.4303(3) 0.94031(14)
C10 C -0.1169(2) 0.5022(4) 0.90087(15)
H9 H -0.148(3) 0.566(5) 0.909(2)
C11 C -0.0968(2) 0.4926(4) 0.84731(15)
H10 H -0.117(3) 0.543(5) 0.822(2)
C12 C -0.0989(2) 0.4438(3) 0.99910(14)
C13 C -0.0651(2) 0.3723(3) 1.03850(15)
H11 H -0.025(3) 0.303(5) 1.025(2)
C14 C -0.0776(3) 0.3929(4) 1.09315(15)
H12 H -0.047(3) 0.342(5) 1.122(2)
C15 C -0.1560(3) 0.5432(5) 1.07254(18)
H13 H -0.177(5) 0.645(7) 1.083(3)
C16 C -0.1463(3) 0.5305(5) 1.01706(16)
H14 H -0.169(3) 0.595(5) 0.989(2)
C2F C -0.0658(2) 0.0529(3) 0.75845(18)
C1F C -0.0635(2) 0.1727(3) 0.75800(17)
H3F H -0.106(2) 0.216(4) 0.7681(17)
H4F H -0.1121 0.0136 0.7645
C6F C -0.0623(2) -0.3223(3) 0.73482(14)
C5F C -0.0645(2) -0.2022(3) 0.73422(16)
H5F H -0.107(3) -0.170(4) 0.7224(19)
H6F H -0.105(2) -0.371(4) 0.7218(17)
O1F O 0.10684(16) 0.4244(2) 0.78753(11)
H1F H 0.116(3) 0.468(6) 0.812(3)
H2F H 0.142(3) 0.416(4) 0.773(2)
N3F N 0.04614(16) 0.4164(2) 0.66974(11)
N4F N 0.12167(19) 0.4766(3) 0.38937(13)
C7F C 0.0160(2) 0.3439(3) 0.63206(15)
H7F H -0.019(3) 0.292(4) 0.6435(18)
C8F C 0.0332(2) 0.3476(3) 0.57774(14)
H8F H 0.010(3) 0.299(5) 0.551(2)
C9F C 0.0835(2) 0.4303(3) 0.55969(14)
C10F C 0.1169(2) 0.5022(4) 0.59913(15)
H9F H 0.148(3) 0.566(5) 0.591(2)
C11F C 0.0968(2) 0.4926(4) 0.65269(15)
H10F H 0.117(3) 0.543(5) 0.678(2)
C12F C 0.0989(2) 0.4438(3) 0.50090(14)
C13F C 0.0651(2) 0.3723(3) 0.46150(15)
H11F H 0.025(3) 0.303(5) 0.475(2)
C14F C 0.0776(3) 0.3929(4) 0.40685(15)
H12F H 0.047(3) 0.342(5) 0.378(2)
C15F C 0.1560(3) 0.5432(5) 0.42746(18)
H13F H 0.177(5) 0.645(7) 0.417(3)
C16F C 0.1463(3) 0.5305(5) 0.48294(16)
H14F H 0.169(3) 0.595(5) 0.511(2)
N2_2 N 0.0000 0.6162(3) 0.7500
Co1_2 Co 0.0000 -0.57762(5) 0.7500
N5 N -0.2633(6) 0.3059(9) 0.8558(4)
C17 C -0.2250(7) 0.2104(10) 0.8776(4)
C18 C -0.2233(6) 0.1897(8) 0.9333(4)
H16 H -0.1996 0.1206 0.9478
C22 C -0.2424(6) 0.2443(10) 0.9715(4)
C23 C -0.2897(8) 0.3279(15) 0.9455(6)
H19 H -0.3227 0.3768 0.9654
C24 C -0.2853(10) 0.3390(16) 0.8852(7)
H20 H -0.3157 0.3960 0.8659
H21 H -0.1685 0.1454 0.8633
C22E C -0.2576(6) 0.2557(10) 1.0285(4)
C18E C -0.2767(6) 0.3103(8) 1.0667(4)
C17E C -0.2750(7) 0.2896(10) 1.1224(4)
N5E N -0.2367(6) 0.1941(9) 1.1442(4)
C24E C -0.2147(10) 0.1610(16) 1.1148(7)
C23E C -0.2103(8) 0.1721(15) 1.0545(6)
H19E H -0.1773 0.1232 1.0346
H20E H -0.1843 0.1040 1.1341
H21E H -0.3315 0.3546 1.1367
H16E H -0.3004 0.3794 1.0522
Cl1 Cl -0.1616(3) 0.8005(5) 0.8717(2)
O2 O -0.1949(8) 0.7641(12) 0.9210(5)
O3 O -0.1697(8) 0.9217(10) 0.8637(6)
O4 O -0.1952(9) 0.7453(17) 0.8269(5)
O5 O -0.0789(7) 0.7766(10) 0.8781(7)
N7 N 0.1241(8) 1.1180(13) 0.9013(6)
C27 C 0.1414(8) 1.1350(14) 0.9564(6)
H23 H 0.1857 1.1787 0.9678
C28 C 0.0945(9) 1.0887(15) 0.9949(5)
H24 H 0.1064 1.1004 1.0330
C29 C 0.0304(8) 1.0255(14) 0.9784(5)
C30 C 0.0131(7) 1.0086(13) 0.9233(6)
H26 H -0.0312 0.9649 0.9119
C31 C 0.0600(9) 1.0548(14) 0.8848(4)
H27 H 0.0481 1.0431 0.8467
C29D C -0.0304(8) 0.9745(14) 1.0216(5)
C28D C -0.0945(9) 0.9113(15) 1.0051(5)
C27D C -0.1414(8) 0.8650(14) 1.0436(6)
N7D N -0.1241(8) 0.8820(13) 1.0987(6)
C31D C -0.0600(9) 0.9452(14) 1.1152(4)
C30D C -0.0131(7) 0.9914(13) 1.0767(6)
H26D H 0.0312 1.0351 1.0881
H27D H -0.0481 0.9569 1.1533
H23D H -0.1857 0.8213 1.0322
H24D H -0.1064 0.8996 0.9670
O10 O -0.2404(12) 0.391(6) 0.757(2)
O12 O -0.2703(16) 0.613(3) 0.8026(11)
N6? N -0.2575(6) 0.2283(10) 1.1416(4)
H15? H -0.1989 0.1581 0.8545
C19? C -0.2577(5) 0.2693(9) 0.9688(3)
C20? C -0.2926(6) 0.3632(12) 0.9445(5)
H17? H -0.3163 0.4210 0.9662
C21? C -0.2930(7) 0.3747(12) 0.8911(5)
H18? H -0.3193 0.4415 0.8764
C25? C -0.2994(10) 0.3053(13) 1.1162(6)
C26? C -0.3011(8) 0.3193(11) 1.0596(5)
H22? H -0.3338 0.3771 1.0431
Cl2? Cl -0.0829(13) 0.8874(15) 0.9178(7)
O6? O -0.027(4) 0.846(5) 0.8831(15)
O7? O -0.124(5) 0.896(10) 0.9491(16)
O8? O -0.108(2) 0.969(2) 0.9001(18)
O9? O -0.017(3) 0.880(3) 0.9646(13)
Cl3? Cl -0.1216(9) 0.8585(10) 0.8957(7)
Cl4? Cl -0.0343(10) 0.9341(14) 0.9176(5)
H25? H -0.0020 0.9936 1.0050
O11? O -0.2427(18) 0.369(9) 0.749(3)
O13? O -0.225(2) 0.720(3) 0.8357(15)
loop_
_geom_bond_atom_site_label_1
_geom_bond_atom_site_label_2
_geom_bond_site_symmetry_1
_geom_bond_site_symmetry_2
Co1 O1 1_555 1_555
O1 H1 1_555 1_555
H2 O1 1_555 1_555
N1 Co1 1_555 1_555
N2 C6 1_555 1_555
C1 N1 1_555 1_555
H3 C1 1_555 1_555
C2 C1 1_555 1_555
H4 C2 1_555 1_555
C3 C2 1_555 1_555
C4 C3 1_555 1_555
C5 C4 1_555 1_555
H5 C5 1_555 1_555
C6 C5 1_555 1_555
H6 C6 1_555 1_555
N3 Co1 1_555 1_555
N4 C14 1_555 1_555
C7 N3 1_555 1_555
H7 C7 1_555 1_555
C8 C7 1_555 1_555
H8 C8 1_555 1_555
C9 C8 1_555 1_555
C10 C9 1_555 1_555
H9 C10 1_555 1_555
C11 N3 1_555 1_555
H10 C11 1_555 1_555
C12 C9 1_555 1_555
C13 C12 1_555 1_555
H11 C13 1_555 1_555
C14 C13 1_555 1_555
H12 C14 1_555 1_555
C15 N4 1_555 1_555
H13 C15 1_555 1_555
C16 C12 1_555 1_555
H14 C16 1_555 1_555
N5 C17 1_555 1_555
C17 C18 1_555 1_555
C18 H16 1_555 1_555
C22 C18 1_555 1_555
C23 C22 1_555 1_555
H19 C23 1_555 1_555
C24 N5 1_555 1_555
H20 C24 1_555 1_555
H21 C17 1_555 1_555
Cl1 O2 1_555 1_555
O3 Cl1 1_555 1_555
O4 Cl1 1_555 1_555
O5 Cl1 1_555 1_555
N7 C27 1_555 1_555
C27 H23 1_555 1_555
C28 C27 1_555 1_555
H24 C28 1_555 1_555
C29 C28 1_555 1_555
C30 C29 1_555 1_555
H26 C30 1_555 1_555
C31 N7 1_555 1_555
H27 C31 1_555 1_555
C2F C3 1_555 1_555
C1F N1 1_555 1_555
H3F C1F 1_555 1_555
H4F C2F 1_555 1_555
C6F N2 1_555 1_555
C5F C4 1_555 1_555
H5F C5F 1_555 1_555
H6F C6F 1_555 1_555
C22E C22 1_555 1_555
C18E C22E 1_555 1_555
C17E C18E 1_555 1_555
N5E C17E 1_555 1_555
C24E N5E 1_555 1_555
C23E C22E 1_555 1_555
H19E C23E 1_555 1_555
H20E C24E 1_555 1_555
H21E C17E 1_555 1_555
H16E C18E 1_555 1_555
C29D C29 1_555 1_555
C28D C29D 1_555 1_555
C27D C28D 1_555 1_555
N7D C27D 1_555 1_555
C31D N7D 1_555 1_555
C30D C29D 1_555 1_555
H26D C30D 1_555 1_555
H27D C31D 1_555 1_555
H23D C27D 1_555 1_555
H24D C28D 1_555 1_555
O1F Co1 1_555 1_555
H1F O1F 1_555 1_555
H2F O1F 1_555 1_555
N3F Co1 1_555 1_555
N4F C14F 1_555 1_555
C7F N3F 1_555 1_555
H7F C7F 1_555 1_555
C8F C7F 1_555 1_555
H8F C8F 1_555 1_555
C9F C8F 1_555 1_555
C10F C9F 1_555 1_555
H9F C10F 1_555 1_555
C11F N3F 1_555 1_555
H10F C11F 1_555 1_555
C12F C9F 1_555 1_555
C13F C12F 1_555 1_555
H11F C13F 1_555 1_555
C14F C13F 1_555 1_555
H12F C14F 1_555 1_555
C15F N4F 1_555 1_555
H13F C15F 1_555 1_555
C16F C12F 1_555 1_555
H14F C16F 1_555 1_555
N2_2 Co1 1_555 1_555
Co1_2 N2 1_555 1_555
C10 C11 1_555 1_555
C15 C16 1_555 1_555
C23 C24 1_555 1_555
C30 C31 1_555 1_555
C2F C1F 1_555 1_555
C6F C5F 1_555 1_555
C24E C23E 1_555 1_555
C31D C30D 1_555 1_555
C10F C11F 1_555 1_555
C15F C16F 1_555 1_555

#END
