
#######################################################################
#
#                 Cambridge Crystallographic Data Centre
#                                CCDC 
#
#######################################################################
#
# If this CIF has been generated from an entry in the Cambridge 
# Structural Database, then it will include bibliographic, chemical, 
# crystal, experimental, refinement or atomic coordinate data resulting 
# from the CCDC's data processing and validation procedures.
#
#######################################################################

data_ULUKOB
_symmetry_cell_setting           monoclinic
_symmetry_space_group_name_H-M   'P 2/c'
_symmetry_Int_Tables_number      13
_space_group_name_Hall           '-P 2yc'
loop_
_symmetry_equiv_pos_site_id
_symmetry_equiv_pos_as_xyz
1 x,y,z
2 x,-y,1/2+z
3 -x,-y,-z
4 -x,y,1/2-z
_cell_length_a                   10.122(2)
_cell_length_b                   9.867(2)
_cell_length_c                   15.367(3)
_cell_angle_alpha                90
_cell_angle_beta                 102.83(3)
_cell_angle_gamma                90
_cell_volume                     1496.44
loop_
_atom_site_label
_atom_site_type_symbol
_atom_site_fract_x
_atom_site_fract_y
_atom_site_fract_z
V1 V 0.71496(7) 0.91445(7) -0.04722(4)
V2 V 0.17209(7) 0.82598(8) -0.25607(4)
As1 As 0.40361(4) 1.03052(5) -0.13650(3)
O1 O 0.2890(4) 0.9009(5) -0.1597(2)
O2 O 0.3639(4) 1.1434(4) -0.2217(2)
O3 O 0.7887(4) 1.0519(3) -0.0110(2)
O4 O 0.0000 0.8467(6) -0.2500
O5 O 0.2107(4) 0.6682(4) -0.2541(3)
O6 O 0.8047(3) 0.8917(3) -0.1488(2)
O7 O 0.5572(3) 0.9712(4) -0.1392(2)
O8 O 0.3969(3) 1.1118(3) -0.0435(2)
N1 N 0.6472(4) 0.6924(4) -0.0746(2)
N2 N 0.8667(4) 0.7940(4) 0.0359(2)
C1 C 0.5033(6) 0.5069(6) -0.1345(4)
H1 H 0.4247 0.4773 -0.1735
C2 C 0.7994(7) 0.3776(6) 0.0340(4)
H2 H 0.7827 0.2849 0.0341
C3 C 0.9114(7) 0.4287(7) 0.0895(4)
H3 H 0.9712 0.3702 0.1261
C4 C 0.5861(7) 0.4170(6) -0.0829(4)
H4 H 0.5642 0.3253 -0.0856
C5 C 0.8477(4) 0.6567(5) 0.0369(3)
C6 C 0.7069(6) 0.4634(5) -0.0244(4)
C7 C 0.5365(5) 0.6449(6) -0.1291(3)
H5 H 0.4787 0.7056 -0.1652
C8 C 0.9390(5) 0.5699(6) 0.0929(3)
C9 C 0.7306(4) 0.6034(4) -0.0225(3)
C10 C 0.9746(4) 0.8464(6) 0.0918(3)
H6 H 0.9871 0.9398 0.0925
C11 C 1.0695(5) 0.7663(7) 0.1494(3)
H7 H 1.1444 0.8059 0.1869
C12 C 1.0514(5) 0.6302(7) 0.1502(3)
H8 H 1.1136 0.5764 0.1889
As1B As 0.59639(4) 0.96948(5) 0.13650(3)
O1B O 0.7110(4) 1.0991(5) 0.1597(2)
O2B O 0.6361(4) 0.8566(4) 0.2217(2)
O7B O 0.4428(3) 1.0288(4) 0.1392(2)
O8B O 0.6031(3) 0.8882(3) 0.0435(2)
V1B V 0.28504(7) 1.08555(7) 0.04722(4)
V2B V 0.82791(7) 1.17402(8) 0.25607(4)
O6C O 0.1953(3) 0.8917(3) -0.3512(2)
O3B O 0.2113(4) 0.9481(3) 0.0110(2)
N1B N 0.3528(4) 1.3076(4) 0.0746(2)
N2B N 0.1333(4) 1.2060(4) -0.0359(2)
C1B C 0.4967(6) 1.4931(6) 0.1345(4)
H1B H 0.5753 1.5227 0.1735
C2B C 0.2006(7) 1.6224(6) -0.0340(4)
H2B H 0.2173 1.7151 -0.0341
C3B C 0.0886(7) 1.5713(7) -0.0895(4)
H3B H 0.0288 1.6298 -0.1261
C4B C 0.4139(7) 1.5830(6) 0.0829(4)
H4B H 0.4358 1.6747 0.0856
C5B C 0.1523(4) 1.3433(5) -0.0369(3)
C6B C 0.2931(6) 1.5366(5) 0.0244(4)
C7B C 0.4635(5) 1.3551(6) 0.1291(3)
H5B H 0.5213 1.2944 0.1652
C8B C 0.0610(5) 1.4301(6) -0.0929(3)
C9B C 0.2694(4) 1.3966(4) 0.0225(3)
C10B C 0.0254(4) 1.1536(6) -0.0918(3)
H6B H 0.0129 1.0602 -0.0925
C11B C -0.0695(5) 1.2337(7) -0.1494(3)
H7B H -0.1444 1.1941 -0.1869
C12B C -0.0514(5) 1.3698(7) -0.1502(3)
H8B H -0.1136 1.4236 -0.1889
O5B O 0.7893(4) 1.3318(4) 0.2541(3)
V2C V -0.17209(7) 0.82598(8) -0.24393(4)
V2C_2 V 0.82791(7) 0.82598(8) -0.24393(4)
O6B O 0.1953(3) 1.1083(3) 0.1488(2)
O4A O 1.0000 1.1533(6) 0.2500
O6A O 0.8047(3) 1.1083(3) 0.3512(2)
V1C V 0.28504(7) 0.91445(7) -0.45278(4)
loop_
_geom_bond_atom_site_label_1
_geom_bond_atom_site_label_2
_geom_bond_site_symmetry_1
_geom_bond_site_symmetry_2
V1 O3 1_555 1_555
V2 O1 1_555 1_555
As1 O1 1_555 1_555
O2 As1 1_555 1_555
O4 V2 1_555 1_555
O5 V2 1_555 1_555
O6 V1 1_555 1_555
O7 V1 1_555 1_555
O8 As1 1_555 1_555
N1 V1 1_555 1_555
N2 V1 1_555 1_555
C1 H1 1_555 1_555
C2 H2 1_555 1_555
C3 C2 1_555 1_555
H3 C3 1_555 1_555
C4 C1 1_555 1_555
H4 C4 1_555 1_555
C5 N2 1_555 1_555
C6 C2 1_555 1_555
C7 N1 1_555 1_555
H5 C7 1_555 1_555
C8 C3 1_555 1_555
C9 N1 1_555 1_555
C10 N2 1_555 1_555
H6 C10 1_555 1_555
C11 C10 1_555 1_555
H7 C11 1_555 1_555
C12 C8 1_555 1_555
H8 C12 1_555 1_555
As1B O1B 1_555 1_555
O1B V2B 1_555 1_555
O2B As1B 1_555 1_555
O7B As1B 1_555 1_555
O8B V1 1_555 1_555
V1B O8 1_555 1_555
V2B O5B 1_555 1_555
O6C V2 1_555 1_555
O3B V1B 1_555 1_555
N1B V1B 1_555 1_555
N2B V1B 1_555 1_555
C1B H1B 1_555 1_555
C2B H2B 1_555 1_555
C3B C2B 1_555 1_555
H3B C3B 1_555 1_555
C4B C1B 1_555 1_555
H4B C4B 1_555 1_555
C5B N2B 1_555 1_555
C6B C2B 1_555 1_555
C7B N1B 1_555 1_555
H5B C7B 1_555 1_555
C8B C3B 1_555 1_555
C9B N1B 1_555 1_555
C10B N2B 1_555 1_555
H6B C10B 1_555 1_555
C11B C10B 1_555 1_555
H7B C11B 1_555 1_555
C12B C8B 1_555 1_555
H8B C12B 1_555 1_555
V2C O4 1_555 1_555
V2C_2 O6 1_555 1_555
O6B V1B 1_555 1_555
O4A V2B 1_555 1_555
O6A V2B 1_555 1_555
V1C O6C 1_555 1_555
As1 O7 1_555 1_555
C1 C7 1_555 1_555
C4 C6 1_555 1_555
C5 C8 1_555 1_555
C5 C9 1_555 1_555
C6 C9 1_555 1_555
C11 C12 1_555 1_555
As1B O8B 1_555 1_555
O7B V1B 1_555 1_555
C1B C7B 1_555 1_555
C4B C6B 1_555 1_555
C5B C8B 1_555 1_555
C5B C9B 1_555 1_555
C6B C9B 1_555 1_555
C11B C12B 1_555 1_555

#END
