
#######################################################################
#
#                 Cambridge Crystallographic Data Centre
#                                CCDC 
#
#######################################################################
#
# If this CIF has been generated from an entry in the Cambridge 
# Structural Database, then it will include bibliographic, chemical, 
# crystal, experimental, refinement or atomic coordinate data resulting 
# from the CCDC's data processing and validation procedures.
#
#######################################################################

data_UMARIJ
_symmetry_cell_setting           triclinic
_symmetry_space_group_name_H-M   'P -1'
_symmetry_Int_Tables_number      2
_space_group_name_Hall           '-P 1'
loop_
_symmetry_equiv_pos_site_id
_symmetry_equiv_pos_as_xyz
1 x,y,z
2 -x,-y,-z
_cell_length_a                   10.219(2)
_cell_length_b                   10.441(2)
_cell_length_c                   16.094(3)
_cell_angle_alpha                79.49(2)
_cell_angle_beta                 89.55(2)
_cell_angle_gamma                73.32(1)
_cell_volume                     1615.52
loop_
_atom_site_label
_atom_site_type_symbol
_atom_site_fract_x
_atom_site_fract_y
_atom_site_fract_z
W1 W 0.21283(2) 0.13637(2) 0.29411(1)
Cu1 Cu 0.5000 0.0000 0.0000
Cu2 Cu -0.28294(5) 0.11705(5) 0.37457(3)
O1 O 0.3147(4) 0.0134(4) -0.0368(3)
N1 N 0.4179(5) 0.0455(5) 0.1408(3)
N2 N -0.0961(4) 0.1309(4) 0.3511(3)
N3 N 0.5233(4) 0.1285(4) 0.3542(3)
N4 N 0.2461(4) -0.0267(4) 0.4925(3)
N5 N 0.1174(6) 0.3715(5) 0.4136(4)
N6 N 0.2494(7) 0.4238(5) 0.1850(4)
N7 N 0.2328(7) -0.1833(6) 0.2868(4)
N8 N 0.0149(6) 0.1851(8) 0.1245(4)
N9 N 0.5340(5) -0.2076(4) 0.0418(3)
N10 N 0.6380(8) -0.7333(6) 0.1830(5)
N11 N -0.3356(4) 0.3107(4) 0.3986(3)
N12 N -0.4390(7) 0.8187(6) 0.4530(4)
N13 N -0.2260(4) -0.0619(4) 0.3333(3)
N14 N -0.1329(8) -0.5383(6) 0.2336(5)
C1 C 0.3488(5) 0.0775(5) 0.1949(3)
C2 C 0.0101(5) 0.1336(5) 0.3311(3)
C3 C 0.4142(4) 0.1300(5) 0.3372(3)
C4 C 0.2378(4) 0.0279(5) 0.4238(3)
C5 C 0.1528(5) 0.2915(5) 0.3715(3)
C6 C 0.2351(6) 0.3252(5) 0.2214(3)
C7 C 0.2248(5) -0.0726(5) 0.2895(3)
C8 C 0.0828(6) 0.1713(6) 0.1830(3)
C9 C 0.6242(6) -0.3008(6) 0.0083(4)
C10 C 0.6519(7) -0.4398(6) 0.0399(4)
C11 C 0.5838(6) -0.4808(6) 0.1084(4)
C12 C 0.4867(6) -0.3856(6) 0.1422(4)
C13 C 0.4641(6) -0.2492(6) 0.1074(4)
C14 C 0.6146(7) -0.6239(6) 0.1477(4)
C15 C -0.2529(6) 0.3429(6) 0.4488(4)
C16 C -0.2766(6) 0.4722(6) 0.4659(4)
C17 C -0.3907(6) 0.5725(5) 0.4282(4)
C18 C -0.4801(6) 0.5400(5) 0.3760(4)
C19 C -0.4480(5) 0.4072(5) 0.3628(3)
C20 C -0.4180(7) 0.7098(6) 0.4422(4)
C21 C -0.1368(5) -0.1716(5) 0.3784(4)
C22 C -0.1021(6) -0.2979(6) 0.3546(4)
C23 C -0.1653(5) -0.3090(5) 0.2808(3)
C24 C -0.2570(6) -0.1955(6) 0.2337(4)
C25 C -0.2835(5) -0.0725(5) 0.2615(3)
C26 C -0.1412(7) -0.4398(6) 0.2561(4)
H1 H 0.6718(6) -0.2717(6) -0.0390(4)
H2 H 0.7166(7) -0.5046(6) 0.0144(4)
H3 H 0.4362(6) -0.4129(6) 0.1885(4)
H4 H 0.3972(6) -0.1829(6) 0.1305(4)
H5 H -0.1737(6) 0.2739(6) 0.4742(4)
H6 H -0.2158(6) 0.4917(6) 0.5029(4)
H7 H -0.5604(6) 0.6068(5) 0.3504(4)
H8 H -0.5076(5) 0.3838(5) 0.3272(3)
H9 H -0.0954(5) -0.1629(5) 0.4289(4)
H10 H -0.0374(6) -0.3742(6) 0.3875(4)
H11 H -0.3011(6) -0.2013(6) 0.1834(4)
H12 H -0.3443(5) 0.0066(5) 0.2284(3)
H13 H 0.282(7) -0.057(5) -0.022(4)
H14 H 0.243(4) 0.087(4) -0.048(3)
O1A O 0.6853(4) -0.0134(4) 0.0368(3)
H13A H 0.718(7) 0.057(5) 0.022(4)
H14A H 0.757(4) -0.087(4) 0.048(3)
N1A N 0.5821(5) -0.0455(5) -0.1408(3)
C1A C 0.6512(5) -0.0775(5) -0.1949(3)
N9A N 0.4660(5) 0.2076(4) -0.0418(3)
N10A N 0.3620(8) 0.7333(6) -0.1830(5)
C9A C 0.3758(6) 0.3008(6) -0.0083(4)
C10A C 0.3481(7) 0.4398(6) -0.0399(4)
C11A C 0.4162(6) 0.4808(6) -0.1084(4)
C12A C 0.5133(6) 0.3856(6) -0.1422(4)
C13A C 0.5359(6) 0.2492(6) -0.1074(4)
C14A C 0.3854(7) 0.6239(6) -0.1477(4)
H1A H 0.3282(6) 0.2717(6) 0.0390(4)
H2A H 0.2834(7) 0.5046(6) -0.0144(4)
H3A H 0.5638(6) 0.4129(6) -0.1885(4)
H4A H 0.6028(6) 0.1829(6) -0.1305(4)
W1A W 0.78717(2) -0.13637(2) -0.29411(1)
N2A N 1.0961(4) -0.1309(4) -0.3511(3)
C2A C 0.9899(5) -0.1336(5) -0.3311(3)
N3A N 0.4767(4) -0.1285(4) -0.3542(3)
C3A C 0.5858(4) -0.1300(5) -0.3372(3)
N4A N 0.7539(4) 0.0267(4) -0.4925(3)
C4A C 0.7622(4) -0.0279(5) -0.4238(3)
N5A N 0.8826(6) -0.3715(5) -0.4136(4)
C5A C 0.8472(5) -0.2915(5) -0.3715(3)
N6A N 0.7506(7) -0.4238(5) -0.1850(4)
C6A C 0.7649(6) -0.3252(5) -0.2214(3)
N7A N 0.7672(7) 0.1833(6) -0.2868(4)
C7A C 0.7752(5) 0.0726(5) -0.2895(3)
N8A N 0.9851(6) -0.1851(8) -0.1245(4)
C8A C 0.9172(6) -0.1713(6) -0.1830(3)
Cu2A Cu 1.28294(5) -0.11705(5) -0.37457(3)
N11A N 1.3356(4) -0.3107(4) -0.3986(3)
N12A N 1.4390(7) -0.8187(6) -0.4530(4)
C15A C 1.2529(6) -0.3429(6) -0.4488(4)
C16A C 1.2766(6) -0.4722(6) -0.4659(4)
C17A C 1.3907(6) -0.5725(5) -0.4282(4)
C18A C 1.4801(6) -0.5400(5) -0.3760(4)
C19A C 1.4480(5) -0.4072(5) -0.3628(3)
C20A C 1.4180(7) -0.7098(6) -0.4422(4)
H5A H 1.1737(6) -0.2739(6) -0.4742(4)
H6A H 1.2158(6) -0.4917(6) -0.5029(4)
H7A H 1.5604(6) -0.6068(5) -0.3504(4)
H8A H 1.5076(5) -0.3838(5) -0.3272(3)
N13A N 1.2260(4) 0.0619(4) -0.3333(3)
N14A N 1.1329(8) 0.5383(6) -0.2336(5)
C21A C 1.1368(5) 0.1716(5) -0.3784(4)
C22A C 1.1021(6) 0.2979(6) -0.3546(4)
C23A C 1.1653(5) 0.3090(5) -0.2808(3)
C24A C 1.2570(6) 0.1955(6) -0.2337(4)
C25A C 1.2835(5) 0.0725(5) -0.2615(3)
C26A C 1.1412(7) 0.4398(6) -0.2561(4)
H9A H 1.0954(5) 0.1629(5) -0.4289(4)
H10A H 1.0374(6) 0.3742(6) -0.3875(4)
H11A H 1.3011(6) 0.2013(6) -0.1834(4)
H12A H 1.3443(5) -0.0066(5) -0.2284(3)
N3_2 N -0.4767(4) 0.1285(4) 0.3542(3)
N4A_2 N -0.2461(4) 0.0267(4) 0.5075(3)
Cu2_2 Cu 0.71706(5) 0.11705(5) 0.37457(3)
Cu2A_2 Cu 0.28294(5) -0.11705(5) 0.62543(3)
Cu2A_3 Cu 0.28294(5) -0.11705(5) -0.37457(3)
Cu2_3 Cu 0.71706(5) 0.11705(5) -0.62543(3)
N3A_2 N 1.4767(4) -0.1285(4) -0.3542(3)
N4_2 N 1.2461(4) -0.0267(4) -0.5075(3)
O2 O 0.2126(6) -0.1985(6) -0.0104(3)
H15 H 0.17(1) -0.19(1) 0.037(4)
H16 H 0.15(1) -0.17(1) -0.056(5)
O3 O 0.1099(5) 0.2402(6) -0.0528(4)
O4 O 0.1236(5) -0.2889(5) 0.1532(3)
H17 H 0.166(8) -0.268(8) 0.196(4)
H18 H 0.170(8) -0.377(3) 0.168(5)
loop_
_geom_bond_atom_site_label_1
_geom_bond_atom_site_label_2
_geom_bond_site_symmetry_1
_geom_bond_site_symmetry_2
W1 C1 1_555 1_555
Cu1 O1 1_555 1_555
Cu2 N2 1_555 1_555
O1 H13 1_555 1_555
O2 H15 1_555 1_555
O4 H17 1_555 1_555
N1 Cu1 1_555 1_555
N2 C2 1_555 1_555
N3 C3 1_555 1_555
N4 C4 1_555 1_555
N5 C5 1_555 1_555
N6 C6 1_555 1_555
N7 C7 1_555 1_555
N8 C8 1_555 1_555
N9 Cu1 1_555 1_555
N10 C14 1_555 1_555
N11 Cu2 1_555 1_555
N12 C20 1_555 1_555
N13 Cu2 1_555 1_555
N14 C26 1_555 1_555
C1 N1 1_555 1_555
C2 W1 1_555 1_555
C3 W1 1_555 1_555
C4 W1 1_555 1_555
C5 W1 1_555 1_555
C6 W1 1_555 1_555
C7 W1 1_555 1_555
C8 W1 1_555 1_555
C9 N9 1_555 1_555
C10 C9 1_555 1_555
C11 C10 1_555 1_555
C12 C11 1_555 1_555
C13 N9 1_555 1_555
C14 C11 1_555 1_555
C15 N11 1_555 1_555
C16 C15 1_555 1_555
C17 C16 1_555 1_555
C18 C17 1_555 1_555
C19 N11 1_555 1_555
C20 C17 1_555 1_555
C21 N13 1_555 1_555
C22 C21 1_555 1_555
C23 C22 1_555 1_555
C24 C23 1_555 1_555
C25 N13 1_555 1_555
C26 C23 1_555 1_555
H1 C9 1_555 1_555
H2 C10 1_555 1_555
H3 C12 1_555 1_555
H4 C13 1_555 1_555
H5 C15 1_555 1_555
H6 C16 1_555 1_555
H7 C18 1_555 1_555
H8 C19 1_555 1_555
H9 C21 1_555 1_555
H10 C22 1_555 1_555
H11 C24 1_555 1_555
H12 C25 1_555 1_555
H14 O1 1_555 1_555
H16 O2 1_555 1_555
H18 O4 1_555 1_555
O1A Cu1 1_555 1_555
H13A O1A 1_555 1_555
H14A O1A 1_555 1_555
N1A Cu1 1_555 1_555
C1A N1A 1_555 1_555
N9A Cu1 1_555 1_555
N10A C14A 1_555 1_555
C9A N9A 1_555 1_555
C10A C9A 1_555 1_555
C11A C10A 1_555 1_555
C12A C11A 1_555 1_555
C13A N9A 1_555 1_555
C14A C11A 1_555 1_555
H1A C9A 1_555 1_555
H2A C10A 1_555 1_555
H3A C12A 1_555 1_555
H4A C13A 1_555 1_555
W1A C1A 1_555 1_555
N2A C2A 1_555 1_555
C2A W1A 1_555 1_555
N3A C3A 1_555 1_555
C3A W1A 1_555 1_555
N4A C4A 1_555 1_555
C4A W1A 1_555 1_555
N5A C5A 1_555 1_555
C5A W1A 1_555 1_555
N6A C6A 1_555 1_555
C6A W1A 1_555 1_555
N7A C7A 1_555 1_555
C7A W1A 1_555 1_555
N8A C8A 1_555 1_555
C8A W1A 1_555 1_555
Cu2A N2A 1_555 1_555
N11A Cu2A 1_555 1_555
N12A C20A 1_555 1_555
C15A N11A 1_555 1_555
C16A C15A 1_555 1_555
C17A C16A 1_555 1_555
C18A C17A 1_555 1_555
C19A N11A 1_555 1_555
C20A C17A 1_555 1_555
H5A C15A 1_555 1_555
H6A C16A 1_555 1_555
H7A C18A 1_555 1_555
H8A C19A 1_555 1_555
N13A Cu2A 1_555 1_555
N14A C26A 1_555 1_555
C21A N13A 1_555 1_555
C22A C21A 1_555 1_555
C23A C22A 1_555 1_555
C24A C23A 1_555 1_555
C25A N13A 1_555 1_555
C26A C23A 1_555 1_555
H9A C21A 1_555 1_555
H10A C22A 1_555 1_555
H11A C24A 1_555 1_555
H12A C25A 1_555 1_555
N3_2 Cu2 1_555 1_555
N4A_2 Cu2 1_555 1_555
Cu2_2 N3 1_555 1_555
Cu2A_2 N4 1_555 1_555
Cu2A_3 N3A 1_555 1_555
Cu2_3 N4A 1_555 1_555
N3A_2 Cu2A 1_555 1_555
N4_2 Cu2A 1_555 1_555
C12 C13 1_555 1_555
C18 C19 1_555 1_555
C24 C25 1_555 1_555
C12A C13A 1_555 1_555
C18A C19A 1_555 1_555
C24A C25A 1_555 1_555

#END
