
#######################################################################
#
#                 Cambridge Crystallographic Data Centre
#                                CCDC 
#
#######################################################################
#
# If this CIF has been generated from an entry in the Cambridge 
# Structural Database, then it will include bibliographic, chemical, 
# crystal, experimental, refinement or atomic coordinate data resulting 
# from the CCDC's data processing and validation procedures.
#
#######################################################################

data_UMAREG
_symmetry_cell_setting           monoclinic
_symmetry_space_group_name_H-M   'P 21/n'
_symmetry_Int_Tables_number      14
_space_group_name_Hall           '-P 2yn'
loop_
_symmetry_equiv_pos_site_id
_symmetry_equiv_pos_as_xyz
1 x,y,z
2 1/2-x,1/2+y,1/2-z
3 -x,-y,-z
4 1/2+x,1/2-y,1/2+z
_cell_length_a                   3.8929(13)
_cell_length_b                   12.593(4)
_cell_length_c                   19.667(6)
_cell_angle_alpha                90
_cell_angle_beta                 94.034(5)
_cell_angle_gamma                90
_cell_volume                     961.752
loop_
_atom_site_label
_atom_site_type_symbol
_atom_site_fract_x
_atom_site_fract_y
_atom_site_fract_z
C1 C -0.145(3) 0.3869(8) 0.0648(6)
C2 C -0.113(2) 0.3205(8) 0.1764(5)
C3 C 0.066(3) 0.4036(8) 0.2046(5)
C4 C 0.178(3) 0.4854(8) 0.1598(6)
C5 C -0.029(3) 0.2963(7) 0.2844(5)
H1 H -0.0342 0.2642 0.3280
C6 C -0.356(3) 0.1492(8) 0.2124(5)
H2 H -0.5567 0.1447 0.2405
H3 H -0.1995 0.0894 0.2251
C7 C -0.476(3) 0.1412(8) 0.1380(5)
C8 C -0.412(3) 0.2139(7) 0.0906(5)
H4 H -0.4917 0.2030 0.0444
N1 N 0.055(2) 0.4694(7) 0.0921(4)
N2 N -0.240(2) 0.3828(6) 0.0042(4)
H5 H -0.1807 0.4333 -0.0236
H6 H -0.3667 0.3292 -0.0116
N3 N -0.224(2) 0.3072(6) 0.1098(4)
N4 N 0.119(2) 0.3879(7) 0.2749(4)
N5 N -0.175(2) 0.2503(6) 0.2259(4)
O1 O 0.345(2) 0.5647(6) 0.1758(4)
Cl1 Cl -1.0969(7) -0.1270(2) 0.05928(13)
Hg1 Hg -0.75036(10) 0.00786(3) 0.105766(19)
N4A N -0.619(2) -0.1121(7) 0.2251(4)
Hg1A Hg 0.25036(10) 0.50786(3) 0.394234(19)
loop_
_geom_bond_atom_site_label_1
_geom_bond_atom_site_label_2
_geom_bond_site_symmetry_1
_geom_bond_site_symmetry_2
C1 N1 1_555 1_555
C2 C3 1_555 1_555
C3 C4 1_555 1_555
C4 N1 1_555 1_555
C5 H1 1_555 1_555
C6 H2 1_555 1_555
H3 C6 1_555 1_555
C7 C6 1_555 1_555
C8 C7 1_555 1_555
H4 C8 1_555 1_555
N2 C1 1_555 1_555
H5 N2 1_555 1_555
H6 N2 1_555 1_555
N3 C1 1_555 1_555
N4 C3 1_555 1_555
N5 C2 1_555 1_555
O1 C4 1_555 1_555
Cl1 Hg1 1_555 1_555
Hg1 C7 1_555 1_555
N4A Hg1 1_555 1_555
Hg1A N4 1_555 1_555
C2 N3 1_555 1_555
C5 N4 1_555 1_555
C5 N5 1_555 1_555
C6 N5 1_555 1_555
C8 N3 1_555 1_555

#END
