
#######################################################################
#
#                 Cambridge Crystallographic Data Centre
#                                CCDC 
#
#######################################################################
#
# If this CIF has been generated from an entry in the Cambridge 
# Structural Database, then it will include bibliographic, chemical, 
# crystal, experimental, refinement or atomic coordinate data resulting 
# from the CCDC's data processing and validation procedures.
#
#######################################################################

data_UMAVUZ
_symmetry_cell_setting           monoclinic
_symmetry_space_group_name_H-M   'P 21/c'
_symmetry_Int_Tables_number      14
_space_group_name_Hall           '-P 2ybc'
loop_
_symmetry_equiv_pos_site_id
_symmetry_equiv_pos_as_xyz
1 x,y,z
2 x,1/2-y,1/2+z
3 -x,-y,-z
4 -x,1/2+y,1/2-z
_cell_length_a                   6.9245(14)
_cell_length_b                   22.460(5)
_cell_length_c                   9.6878(19)
_cell_angle_alpha                90
_cell_angle_beta                 98.24(3)
_cell_angle_gamma                90
_cell_volume                     1491.13
loop_
_atom_site_label
_atom_site_type_symbol
_atom_site_fract_x
_atom_site_fract_y
_atom_site_fract_z
Co1 Co 0.0000 0.5000 0.5000
O1 O 0.2462(4) 0.46773(10) 0.4210(3)
O2 O 0.1846(4) -0.03279(10) 0.1781(3)
N1 N 0.2912(4) 0.40994(13) 0.4173(3)
N2 N 0.2670(4) 0.00703(12) 0.2713(3)
C1 C 0.1556(6) 0.36948(17) 0.3683(4)
H1 H 0.0286 0.3816 0.3367
C2 C 0.2039(6) 0.31033(18) 0.3646(5)
H2 H 0.1086 0.2828 0.3307
C3 C 0.3921(6) 0.29093(17) 0.4105(4)
C4 C 0.5269(6) 0.33430(17) 0.4572(4)
H3 H 0.6555 0.3233 0.4875
C5 C 0.4758(6) 0.39290(17) 0.4600(4)
H4 H 0.5696 0.4212 0.4918
C6 C 0.4486(7) 0.22571(17) 0.4097(4)
H5 H 0.3624 0.2051 0.3375
H6 H 0.5808 0.2222 0.3884
C7 C 0.4361(10) 0.19729(18) 0.5482(5)
H7 H 0.2999 0.1938 0.5602
H8 H 0.4992 0.2231 0.6215
C8 C 0.5318(10) 0.13480(19) 0.5652(5)
H9 H 0.6681 0.1383 0.5535
H10 H 0.5264 0.1206 0.6591
C9 C 0.4355(8) 0.08953(17) 0.4628(4)
C10 C 0.5318(7) 0.06837(17) 0.3573(4)
H11 H 0.6563 0.0824 0.3503
C11 C 0.4475(6) 0.02697(17) 0.2625(4)
H12 H 0.5152 0.0129 0.1928
C12 C 0.1694(7) 0.02654(19) 0.3716(5)
H13 H 0.0441 0.0125 0.3763
C13 C 0.2527(8) 0.0670(2) 0.4673(5)
H14 H 0.1835 0.0795 0.5375
N3 N 0.0431(5) 0.57962(13) 0.4004(4)
C14 C 0.0559(5) 0.62085(17) 0.3331(5)
S1 S 0.0794(2) 0.67854(6) 0.2339(2)
O1B O -0.2462(4) 0.53227(10) 0.5790(3)
O2B O -0.1846(4) 1.03279(10) 0.8219(3)
N1B N -0.2912(4) 0.59006(13) 0.5827(3)
N2B N -0.2670(4) 0.99297(12) 0.7287(3)
C1B C -0.1556(6) 0.63052(17) 0.6317(4)
H1B H -0.0286 0.6184 0.6633
C2B C -0.2039(6) 0.68967(18) 0.6354(5)
H2B H -0.1086 0.7172 0.6693
C3B C -0.3921(6) 0.70907(17) 0.5895(4)
C4B C -0.5269(6) 0.66570(17) 0.5428(4)
H3B H -0.6555 0.6767 0.5125
C5B C -0.4758(6) 0.60710(17) 0.5400(4)
H4B H -0.5696 0.5788 0.5082
C6B C -0.4486(7) 0.77429(17) 0.5903(4)
H5B H -0.3624 0.7949 0.6625
H6B H -0.5808 0.7778 0.6116
C7B C -0.4361(10) 0.80271(18) 0.4518(5)
H7B H -0.2999 0.8062 0.4398
H8B H -0.4992 0.7769 0.3785
C8B C -0.5318(10) 0.86520(19) 0.4348(5)
H9B H -0.6681 0.8617 0.4465
H10B H -0.5264 0.8794 0.3409
C9B C -0.4355(8) 0.91047(17) 0.5372(4)
C10B C -0.5318(7) 0.93163(17) 0.6427(4)
H11B H -0.6563 0.9176 0.6497
C11B C -0.4475(6) 0.97303(17) 0.7375(4)
H12B H -0.5152 0.9871 0.8072
C12B C -0.1694(7) 0.97346(19) 0.6284(5)
H13B H -0.0441 0.9875 0.6237
C13B C -0.2527(8) 0.9330(2) 0.5327(5)
H14B H -0.1835 0.9205 0.4625
N3B N -0.0431(5) 0.42038(13) 0.5996(4)
C14B C -0.0559(5) 0.37915(17) 0.6669(5)
S1B S -0.0794(2) 0.32146(6) 0.7661(2)
O2A O 0.1846(4) 0.53279(10) 0.6781(3)
O2C O -0.1846(4) 0.46721(10) 0.3219(3)
Co1A Co 0.0000 0.0000 0.0000
Co1A_2 Co 0.0000 1.0000 1.0000
loop_
_geom_bond_atom_site_label_1
_geom_bond_atom_site_label_2
_geom_bond_site_symmetry_1
_geom_bond_site_symmetry_2
Co1 O1 1_555 1_555
O1 N1 1_555 1_555
O2 N2 1_555 1_555
N1 C1 1_555 1_555
N2 C11 1_555 1_555
C1 H1 1_555 1_555
C2 C1 1_555 1_555
H2 C2 1_555 1_555
C3 C2 1_555 1_555
C4 C3 1_555 1_555
H3 C4 1_555 1_555
C5 N1 1_555 1_555
H4 C5 1_555 1_555
C6 C3 1_555 1_555
H5 C6 1_555 1_555
H6 C6 1_555 1_555
C7 C6 1_555 1_555
H7 C7 1_555 1_555
H8 C7 1_555 1_555
C8 C7 1_555 1_555
H9 C8 1_555 1_555
H10 C8 1_555 1_555
C9 C8 1_555 1_555
C10 C9 1_555 1_555
H11 C10 1_555 1_555
C11 C10 1_555 1_555
H12 C11 1_555 1_555
C12 N2 1_555 1_555
H13 C12 1_555 1_555
C13 C9 1_555 1_555
H14 C13 1_555 1_555
N3 Co1 1_555 1_555
C14 N3 1_555 1_555
S1 C14 1_555 1_555
O1B Co1 1_555 1_555
O2B N2B 1_555 1_555
N1B O1B 1_555 1_555
N2B C11B 1_555 1_555
C1B N1B 1_555 1_555
H1B C1B 1_555 1_555
C2B C1B 1_555 1_555
H2B C2B 1_555 1_555
C3B C2B 1_555 1_555
C4B C3B 1_555 1_555
H3B C4B 1_555 1_555
C5B N1B 1_555 1_555
H4B C5B 1_555 1_555
C6B C3B 1_555 1_555
H5B C6B 1_555 1_555
H6B C6B 1_555 1_555
C7B C6B 1_555 1_555
H7B C7B 1_555 1_555
H8B C7B 1_555 1_555
C8B C7B 1_555 1_555
H9B C8B 1_555 1_555
H10B C8B 1_555 1_555
C9B C8B 1_555 1_555
C10B C9B 1_555 1_555
H11B C10B 1_555 1_555
C11B C10B 1_555 1_555
H12B C11B 1_555 1_555
C12B N2B 1_555 1_555
H13B C12B 1_555 1_555
C13B C9B 1_555 1_555
H14B C13B 1_555 1_555
N3B Co1 1_555 1_555
C14B N3B 1_555 1_555
S1B C14B 1_555 1_555
O2A Co1 1_555 1_555
O2C Co1 1_555 1_555
Co1A O2 1_555 1_555
Co1A_2 O2B 1_555 1_555
C4 C5 1_555 1_555
C12 C13 1_555 1_555
C4B C5B 1_555 1_555
C12B C13B 1_555 1_555

#END
