
#######################################################################
#
#                 Cambridge Crystallographic Data Centre
#                                CCDC 
#
#######################################################################
#
# If this CIF has been generated from an entry in the Cambridge 
# Structural Database, then it will include bibliographic, chemical, 
# crystal, experimental, refinement or atomic coordinate data resulting 
# from the CCDC's data processing and validation procedures.
#
#######################################################################

data_UMAVIN
_symmetry_cell_setting           monoclinic
_symmetry_space_group_name_H-M   'P 21/c'
_symmetry_Int_Tables_number      14
_space_group_name_Hall           '-P 2ybc'
loop_
_symmetry_equiv_pos_site_id
_symmetry_equiv_pos_as_xyz
1 x,y,z
2 x,1/2-y,1/2+z
3 -x,-y,-z
4 -x,1/2+y,1/2-z
_cell_length_a                   12.544(3)
_cell_length_b                   12.644(3)
_cell_length_c                   13.219(3)
_cell_angle_alpha                90
_cell_angle_beta                 114.18(3)
_cell_angle_gamma                90
_cell_volume                     1912.67
loop_
_atom_site_label
_atom_site_type_symbol
_atom_site_fract_x
_atom_site_fract_y
_atom_site_fract_z
Mn1 Mn 0.01758(5) 0.91768(5) 0.61397(5)
O1 O 0.0402(3) 1.0796(3) 0.6954(3)
H1 H 0.091(4) 1.102(4) 0.742(4)
H2 H 0.033(5) 1.124(5) 0.644(5)
S1 S -0.28694(11) 0.70567(10) 0.63345(11)
C1 C -0.1852(4) 0.7930(3) 0.6506(3)
N1 N -0.1122(3) 0.8544(3) 0.6633(3)
S2 S 0.39104(12) 0.79479(15) 0.88526(13)
C2 C 0.2646(4) 0.8310(3) 0.7955(3)
N2 N 0.1738(3) 0.8583(3) 0.7340(3)
O2 O -0.0106(2) 0.7916(2) 0.4878(2)
O3 O 0.8890(2) 0.4967(2) 0.9783(2)
N3 N 0.0471(3) 0.6995(2) 0.5180(2)
N4 N 0.7715(3) 0.4996(2) 0.9405(2)
C3 C 0.1037(4) 0.6604(3) 0.4590(3)
H3 H 0.1014 0.6964 0.3967
C4 C 0.1645(4) 0.5680(3) 0.4906(3)
H4 H 0.2041 0.5423 0.4497
C5 C 0.1688(3) 0.5112(3) 0.5820(3)
C6 C 0.1083(3) 0.5538(3) 0.6391(3)
H5 H 0.1082 0.5185 0.7008
C7 C 0.0482(3) 0.6473(3) 0.6067(3)
H6 H 0.0080 0.6745 0.6464
C8 C 0.2372(3) 0.4102(3) 0.6174(3)
H7 H 0.2243 0.3678 0.5523
H8 H 0.2088 0.3705 0.6641
C9 C 0.3685(3) 0.4300(4) 0.6809(4)
H9 H 0.4088 0.3626 0.6955
H10 H 0.3960 0.4710 0.6344
C10 C 0.4005(3) 0.4880(4) 0.7903(4)
H11 H 0.3662 0.5581 0.7764
H12 H 0.3695 0.4499 0.8360
C11 C 0.5314(3) 0.4966(3) 0.8502(3)
C12 C 0.5921(4) 0.5823(3) 0.8389(4)
H13 H 0.5516 0.6411 0.7997
C13 C 0.7131(4) 0.5828(3) 0.8849(4)
H14 H 0.7532 0.6417 0.8766
C14 C 0.5955(4) 0.4142(4) 0.9131(4)
H15 H 0.5574 0.3560 0.9258
C15 C 0.7153(4) 0.4168(3) 0.9575(4)
H16 H 0.7577 0.3602 0.9999
O3A O -0.1110(2) 1.0033(2) 0.4783(2)
O3C O 0.1110(2) 0.9967(2) 0.5217(2)
Mn1A Mn 1.01758(5) 0.58232(5) 1.11397(5)
Mn1C Mn 0.98242(5) 0.41768(5) 0.88603(5)
loop_
_geom_bond_atom_site_label_1
_geom_bond_atom_site_label_2
_geom_bond_site_symmetry_1
_geom_bond_site_symmetry_2
Mn1 O1 1_555 1_555
O1 H1 1_555 1_555
H2 O1 1_555 1_555
S1 C1 1_555 1_555
C1 N1 1_555 1_555
N1 Mn1 1_555 1_555
S2 C2 1_555 1_555
C2 N2 1_555 1_555
N2 Mn1 1_555 1_555
O2 Mn1 1_555 1_555
O3 N4 1_555 1_555
N3 O2 1_555 1_555
N4 C13 1_555 1_555
C3 N3 1_555 1_555
H3 C3 1_555 1_555
C4 C3 1_555 1_555
H4 C4 1_555 1_555
C5 C4 1_555 1_555
C6 C5 1_555 1_555
H5 C6 1_555 1_555
C7 N3 1_555 1_555
H6 C7 1_555 1_555
C8 C5 1_555 1_555
H7 C8 1_555 1_555
H8 C8 1_555 1_555
C9 C8 1_555 1_555
H9 C9 1_555 1_555
H10 C9 1_555 1_555
C10 C9 1_555 1_555
H11 C10 1_555 1_555
H12 C10 1_555 1_555
C11 C10 1_555 1_555
C12 C11 1_555 1_555
H13 C12 1_555 1_555
C13 C12 1_555 1_555
H14 C13 1_555 1_555
C14 C11 1_555 1_555
H15 C14 1_555 1_555
C15 N4 1_555 1_555
H16 C15 1_555 1_555
O3A Mn1 1_555 1_555
O3C Mn1 1_555 1_555
Mn1A O3 1_555 1_555
Mn1C O3 1_555 1_555
C6 C7 1_555 1_555
C14 C15 1_555 1_555

#END
