
#######################################################################
#
#                 Cambridge Crystallographic Data Centre
#                                CCDC 
#
#######################################################################
#
# If this CIF has been generated from an entry in the Cambridge 
# Structural Database, then it will include bibliographic, chemical, 
# crystal, experimental, refinement or atomic coordinate data resulting 
# from the CCDC's data processing and validation procedures.
#
#######################################################################

data_UMAWAG
_symmetry_cell_setting           monoclinic
_symmetry_space_group_name_H-M   'P 21/c'
_symmetry_Int_Tables_number      14
_space_group_name_Hall           '-P 2ybc'
loop_
_symmetry_equiv_pos_site_id
_symmetry_equiv_pos_as_xyz
1 x,y,z
2 x,1/2-y,1/2+z
3 -x,-y,-z
4 -x,1/2+y,1/2-z
_cell_length_a                   7.1151(12)
_cell_length_b                   22.521(4)
_cell_length_c                   9.7076(17)
_cell_angle_alpha                90
_cell_angle_beta                 99.210(3)
_cell_angle_gamma                90
_cell_volume                     1535.48
loop_
_atom_site_label
_atom_site_type_symbol
_atom_site_fract_x
_atom_site_fract_y
_atom_site_fract_z
Cd1 Cd 0.0000 0.5000 0.5000
O1 O 0.2648(3) 0.46768(9) 0.4141(3)
O2 O 0.1930(3) -0.03520(9) 0.1983(2)
N1 N 0.3075(3) 0.41030(10) 0.4125(3)
N2 N 0.2750(5) 0.00634(10) 0.2844(3)
C1 C 0.1749(5) 0.37032(14) 0.3612(4)
H1 H 0.0518 0.3829 0.3270
C2 C 0.2190(5) 0.31135(14) 0.3586(4)
H2 H 0.1251 0.2841 0.3236
C3 C 0.4025(5) 0.29159(13) 0.4077(3)
C4 C 0.5343(5) 0.33440(15) 0.4583(4)
H3 H 0.6591 0.3231 0.4915
C5 C 0.4853(4) 0.39311(16) 0.4605(4)
H4 H 0.5764 0.4212 0.4958
C6 C 0.4572(6) 0.22702(15) 0.4090(4)
H5 H 0.3704 0.2060 0.3383
H6 H 0.5845 0.2233 0.3861
C7 C 0.4519(9) 0.19923(16) 0.5487(4)
H7 H 0.3203 0.1960 0.5626
H8 H 0.5169 0.2252 0.6207
C8 C 0.5440(9) 0.13741(17) 0.5658(4)
H9 H 0.6753 0.1406 0.5512
H10 H 0.5447 0.1240 0.6609
C9 C 0.4439(7) 0.09124(15) 0.4665(3)
C10 C 0.5306(6) 0.06962(15) 0.3600(4)
H11 H 0.6501 0.0838 0.3492
C11 C 0.4440(5) 0.02745(14) 0.2696(3)
H12 H 0.5043 0.0136 0.1977
C12 C 0.1864(6) 0.02682(19) 0.3844(4)
H13 H 0.0659 0.0126 0.3922
C13 C 0.2699(8) 0.06879(18) 0.4765(4)
H14 H 0.2061 0.0821 0.5471
N3 N 0.0335(4) 0.58690(12) 0.3927(3)
C14 C 0.0470(5) 0.62536(14) 0.3214(4)
S1 S 0.07586(19) 0.67876(6) 0.2148(2)
O1B O -0.2648(3) 0.53232(9) 0.5859(3)
O2B O -0.1930(3) 1.03520(9) 0.8017(2)
N1B N -0.3075(3) 0.58970(10) 0.5875(3)
N2B N -0.2750(5) 0.99366(10) 0.7156(3)
C1B C -0.1749(5) 0.62968(14) 0.6388(4)
H1B H -0.0518 0.6171 0.6730
C2B C -0.2190(5) 0.68865(14) 0.6414(4)
H2B H -0.1251 0.7159 0.6764
C3B C -0.4025(5) 0.70841(13) 0.5923(3)
C4B C -0.5343(5) 0.66560(15) 0.5417(4)
H3B H -0.6591 0.6769 0.5085
C5B C -0.4853(4) 0.60689(16) 0.5395(4)
H4B H -0.5764 0.5788 0.5042
C6B C -0.4572(6) 0.77298(15) 0.5910(4)
H5B H -0.3704 0.7940 0.6617
H6B H -0.5845 0.7767 0.6139
C7B C -0.4519(9) 0.80077(16) 0.4513(4)
H7B H -0.3203 0.8040 0.4374
H8B H -0.5169 0.7748 0.3793
C8B C -0.5440(9) 0.86259(17) 0.4342(4)
H9B H -0.6753 0.8594 0.4488
H10B H -0.5447 0.8760 0.3391
C9B C -0.4439(7) 0.90876(15) 0.5335(3)
C10B C -0.5306(6) 0.93038(15) 0.6400(4)
H11B H -0.6501 0.9162 0.6508
C11B C -0.4440(5) 0.97255(14) 0.7304(3)
H12B H -0.5043 0.9864 0.8023
C12B C -0.1864(6) 0.97318(19) 0.6156(4)
H13B H -0.0659 0.9874 0.6078
C13B C -0.2699(8) 0.93121(18) 0.5235(4)
H14B H -0.2061 0.9179 0.4529
N3B N -0.0335(4) 0.41310(12) 0.6073(3)
C14B C -0.0470(5) 0.37464(14) 0.6786(4)
S1B S -0.07586(19) 0.32124(6) 0.7852(2)
O2A O 0.1930(3) 0.53520(9) 0.6983(2)
O2C O -0.1930(3) 0.46480(9) 0.3017(2)
Cd1A Cd 0.0000 0.0000 0.0000
Cd1A_2 Cd 0.0000 1.0000 1.0000
loop_
_geom_bond_atom_site_label_1
_geom_bond_atom_site_label_2
_geom_bond_site_symmetry_1
_geom_bond_site_symmetry_2
Cd1 O1 1_555 1_555
O1 N1 1_555 1_555
O2 N2 1_555 1_555
N1 C1 1_555 1_555
N2 C11 1_555 1_555
C1 H1 1_555 1_555
C2 C1 1_555 1_555
H2 C2 1_555 1_555
C3 C2 1_555 1_555
C4 C3 1_555 1_555
H3 C4 1_555 1_555
C5 N1 1_555 1_555
H4 C5 1_555 1_555
C6 C3 1_555 1_555
H5 C6 1_555 1_555
H6 C6 1_555 1_555
C7 C6 1_555 1_555
H7 C7 1_555 1_555
H8 C7 1_555 1_555
C8 C7 1_555 1_555
H9 C8 1_555 1_555
H10 C8 1_555 1_555
C9 C8 1_555 1_555
C10 C9 1_555 1_555
H11 C10 1_555 1_555
C11 C10 1_555 1_555
H12 C11 1_555 1_555
C12 N2 1_555 1_555
H13 C12 1_555 1_555
C13 C9 1_555 1_555
H14 C13 1_555 1_555
N3 Cd1 1_555 1_555
C14 N3 1_555 1_555
S1 C14 1_555 1_555
O1B Cd1 1_555 1_555
O2B N2B 1_555 1_555
N1B O1B 1_555 1_555
N2B C11B 1_555 1_555
C1B N1B 1_555 1_555
H1B C1B 1_555 1_555
C2B C1B 1_555 1_555
H2B C2B 1_555 1_555
C3B C2B 1_555 1_555
C4B C3B 1_555 1_555
H3B C4B 1_555 1_555
C5B N1B 1_555 1_555
H4B C5B 1_555 1_555
C6B C3B 1_555 1_555
H5B C6B 1_555 1_555
H6B C6B 1_555 1_555
C7B C6B 1_555 1_555
H7B C7B 1_555 1_555
H8B C7B 1_555 1_555
C8B C7B 1_555 1_555
H9B C8B 1_555 1_555
H10B C8B 1_555 1_555
C9B C8B 1_555 1_555
C10B C9B 1_555 1_555
H11B C10B 1_555 1_555
C11B C10B 1_555 1_555
H12B C11B 1_555 1_555
C12B N2B 1_555 1_555
H13B C12B 1_555 1_555
C13B C9B 1_555 1_555
H14B C13B 1_555 1_555
N3B Cd1 1_555 1_555
C14B N3B 1_555 1_555
S1B C14B 1_555 1_555
O2A Cd1 1_555 1_555
O2C Cd1 1_555 1_555
Cd1A O2 1_555 1_555
Cd1A_2 O2B 1_555 1_555
C4 C5 1_555 1_555
C12 C13 1_555 1_555
C4B C5B 1_555 1_555
C12B C13B 1_555 1_555

#END
