
#######################################################################
#
#                 Cambridge Crystallographic Data Centre
#                                CCDC 
#
#######################################################################
#
# If this CIF has been generated from an entry in the Cambridge 
# Structural Database, then it will include bibliographic, chemical, 
# crystal, experimental, refinement or atomic coordinate data resulting 
# from the CCDC's data processing and validation procedures.
#
#######################################################################

data_UMAZAJ
_symmetry_cell_setting           monoclinic
_symmetry_space_group_name_H-M   'P 21'
_symmetry_Int_Tables_number      4
_space_group_name_Hall           'P 2yb'
loop_
_symmetry_equiv_pos_site_id
_symmetry_equiv_pos_as_xyz
1 x,y,z
2 -x,1/2+y,-z
_cell_length_a                   14.3
_cell_length_b                   27.3
_cell_length_c                   6.4
_cell_angle_alpha                90
_cell_angle_beta                 147.2
_cell_angle_gamma                90
_cell_volume                     1353.46
loop_
_atom_site_label
_atom_site_type_symbol
_atom_site_fract_x
_atom_site_fract_y
_atom_site_fract_z
Cd1 Cd 0.117 0.000 0.072
O1 O -0.363 -0.045 0.941
O2 O -0.369 -0.224 -0.13
O3 O -0.387 -0.292 0.035
O4 O 0.374 0.01 0.588
N1 N 0.186 -0.01 0.881
N2 N 0.057 0.075 0.885
N3 N -0.089 0.011 0.895
N4 N 0.046 -0.077 0.947
C1 C 0.234 -0.052 0.907
C2 C -0.11 0.095 0.871
C3 C -0.143 0.052 0.894
C4 C -0.232 0.039 0.902
C5 C -0.227 -0.01 0.915
C6 C -0.142 -0.026 0.912
C7 C -0.126 -0.075 0.925
C8 C -0.042 -0.097 0.925
C9 C -0.045 -0.152 0.893
C10 C 0.085 -0.158 0.956
C11 C 0.115 -0.106 0.946
C12 C 0.323 -0.042 0.897
C13 C 0.202 -0.095 0.935
C14 C 0.416 -0.079 0.936
C15 C 0.124 0.184 0.714
C16 C -0.088 0.196 0.722
C17 C -0.278 0.2 0.3
C18 C -0.319 0.072 0.894
C19 C -0.284 -0.047 0.929
C20 C -0.224 -0.094 0.928
C21 C 0.319 0.006 0.857
C22 C -0.225 -0.171 0.494
C23 C -0.229 -0.227 0.471
C24 C 0.251 -0.184 1.334
C25 C -0.338 -0.246 0.087
C26 C 0.232 0.026 0.856
C27 C 0.201 0.074 0.835
C28 C 0.118 0.095 0.839
C29 C 0.081 0.143 0.786
C30 C -0.011 0.149 0.789
C31 C -0.024 0.104 0.853
C32 C -0.473 -0.317 -0.288
C33 C 0.401 0.033 0.831
H1 H -0.166 0.127 0.848
H2 H 0.000 -0.17 1.125
H3 H 0.026 -0.178 0.711
H4 H 0.250 -0.127 0.942
H5 H 0.549 -0.065 1.148
H6 H 0.434 -0.115 1.045
H7 H 0.346 -0.085 0.656
H8 H 0.153 0.171 0.608
H9 H 0.013 0.21 0.489
H10 H 0.238 0.205 0.985
H11 H -0.074 0.2 0.92
H12 H -0.015 0.228 0.795
H13 H -0.337 0.235 0.247
H14 H -0.293 0.199 0.1
H15 H -0.356 0.169 0.221
H16 H -0.269 0.11 0.985
H17 H -0.46 0.073 0.599
H18 H -0.299 0.057 1.092
H19 H -0.138 -0.116 1.193
H20 H -0.341 -0.116 0.668
H21 H -0.325 -0.159 0.422
H22 H -0.265 -0.153 0.27
H23 H -0.098 -0.242 0.687
H24 H -0.273 -0.243 0.54
H25 H 0.225 -0.224 1.322
H26 H 0.349 -0.184 1.391
H27 H 0.311 -0.168 1.587
H28 H 0.249 0.099 0.805
H29 H -0.508 -0.353 -0.291
H30 H -0.591 -0.296 -0.557
H31 H -0.384 -0.321 -0.256
H32 H 0.35 0.071 0.713
H33 H 0.543 0.035 1.121
H34 H 0.427 -0.021 0.687
N1_2 N 0.186 -0.01 -0.119
N2_2 N 0.057 0.075 -0.115
N3_2 N -0.089 0.011 -0.105
N4_2 N 0.046 -0.077 -0.053
Cd1_2 Cd 0.117 0.000 1.072
loop_
_geom_bond_atom_site_label_1
_geom_bond_atom_site_label_2
_geom_bond_site_symmetry_1
_geom_bond_site_symmetry_2
Cd1 O4 1_555 1_555
O1 C19 1_555 1_555
O2 C25 1_555 1_555
O3 C25 1_555 1_555
O4 C33 1_555 1_555
N1 C1 1_555 1_555
N2 C28 1_555 1_555
N3 C3 1_555 1_555
N4 C8 1_555 1_555
C1 C12 1_555 1_555
C2 C3 1_555 1_555
C3 C4 1_555 1_555
C4 C5 1_555 1_555
C5 C6 1_555 1_555
C6 N3 1_555 1_555
C7 C6 1_555 1_555
C8 C7 1_555 1_555
C9 C8 1_555 1_555
C10 C9 1_555 1_555
C11 N4 1_555 1_555
C12 C14 1_555 1_555
C13 C1 1_555 1_555
C14 H5 1_555 1_555
C15 C29 1_555 1_555
C16 C17 1_555 1_555
C17 H13 1_555 1_555
C18 C4 1_555 1_555
C19 C5 1_555 1_555
C20 C7 1_555 1_555
C21 C12 1_555 1_555
C22 C9 1_555 1_555
C23 C22 1_555 1_555
C24 C10 1_555 1_555
C25 C23 1_555 1_555
C26 N1 1_555 1_555
C27 C26 1_555 1_555
C28 C27 1_555 1_555
C29 C28 1_555 1_555
C30 C16 1_555 1_555
C31 N2 1_555 1_555
C32 O3 1_555 1_555
C33 C21 1_555 1_555
H1 C2 1_555 1_555
H2 C9 1_555 1_555
H3 C10 1_555 1_555
H4 C13 1_555 1_555
H6 C14 1_555 1_555
H7 C14 1_555 1_555
H8 C15 1_555 1_555
H9 C15 1_555 1_555
H10 C15 1_555 1_555
H11 C16 1_555 1_555
H12 C16 1_555 1_555
H14 C17 1_555 1_555
H15 C17 1_555 1_555
H16 C18 1_555 1_555
H17 C18 1_555 1_555
H18 C18 1_555 1_555
H19 C20 1_555 1_555
H20 C20 1_555 1_555
H21 C22 1_555 1_555
H22 C22 1_555 1_555
H23 C23 1_555 1_555
H24 C23 1_555 1_555
H25 C24 1_555 1_555
H26 C24 1_555 1_555
H27 C24 1_555 1_555
H28 C27 1_555 1_555
H29 C32 1_555 1_555
H30 C32 1_555 1_555
H31 C32 1_555 1_555
H32 C33 1_555 1_555
H33 C33 1_555 1_555
H34 O4 1_555 1_555
N1_2 Cd1 1_555 1_555
N2_2 Cd1 1_555 1_555
N3_2 Cd1 1_555 1_555
N4_2 Cd1 1_555 1_555
Cd1_2 N1 1_555 1_555
N2 Cd1_2 1_555 1_555
N3 Cd1_2 1_555 1_555
N4 Cd1_2 1_555 1_555
C2 C31 1_555 1_555
C10 C11 1_555 1_555
C11 C13 1_555 1_555
C19 C20 1_555 1_555
C21 C26 1_555 1_555
C29 C30 1_555 1_555
C30 C31 1_555 1_555

#END
