
#######################################################################
#
#                 Cambridge Crystallographic Data Centre
#                                CCDC 
#
#######################################################################
#
# If this CIF has been generated from an entry in the Cambridge 
# Structural Database, then it will include bibliographic, chemical, 
# crystal, experimental, refinement or atomic coordinate data resulting 
# from the CCDC's data processing and validation procedures.
#
#######################################################################

data_UMETIQ
_symmetry_cell_setting           triclinic
_symmetry_space_group_name_H-M   'P -1'
_symmetry_Int_Tables_number      2
_space_group_name_Hall           '-P 1'
loop_
_symmetry_equiv_pos_site_id
_symmetry_equiv_pos_as_xyz
1 x,y,z
2 -x,-y,-z
_cell_length_a                   8.9673(5)
_cell_length_b                   9.3183(7)
_cell_length_c                   10.8132(10)
_cell_angle_alpha                76.910(6)
_cell_angle_beta                 73.410(6)
_cell_angle_gamma                75.28(5)
_cell_volume                     825.888
loop_
_atom_site_label
_atom_site_type_symbol
_atom_site_fract_x
_atom_site_fract_y
_atom_site_fract_z
Zn1 Zn 0.60358(6) 0.63399(6) 0.80686(5)
O1 O 0.3944(3) 0.5946(3) 0.9021(3)
O2 O 0.3264(4) 0.5955(6) 0.7205(3)
O3 O 0.2456(3) 0.5558(3) 1.2047(3)
O4 O 0.1353(4) 0.7790(3) 1.1077(4)
N1 N 0.6438(4) 0.7600(4) 0.9216(3)
N2 N 0.6420(4) 0.7462(4) 1.6196(3)
C1 C 0.5350(5) 0.7825(5) 1.0357(4)
H5 H 0.4411 0.7479 1.0545
C2 C 0.5580(5) 0.8542(5) 1.1245(4)
H6 H 0.4801 0.8702 1.2008
C3 C 0.7017(5) 0.9029(4) 1.0979(4)
C4 C 0.8130(5) 0.8811(5) 0.9807(4)
H7 H 0.9085 0.9134 0.9600
C5 C 0.7790(5) 0.8110(5) 0.8961(4)
H8 H 0.8530 0.7982 0.8172
C6 C 0.6365(5) 0.6837(5) 1.5207(4)
H9 H 0.6119 0.5887 1.5409
C7 C 0.6652(6) 0.7518(5) 1.3911(4)
H10 H 0.6617 0.7031 1.3261
C8 C 0.6996(5) 0.8957(5) 1.3600(4)
C9 C 0.7072(6) 0.9604(5) 1.4616(4)
H11 H 0.7310 1.0555 1.4445
C10 C 0.6795(5) 0.8832(5) 1.5867(4)
H12 H 0.6869 0.9279 1.6529
C11 C 0.2979(5) 0.5822(5) 0.8403(4)
C12 C 0.1433(4) 0.5443(4) 0.9241(4)
C13 C 0.1641(5) 0.6405(5) 1.1243(4)
C14 C 0.0864(4) 0.5626(4) 1.0559(4)
C15 C 0.0535(5) 0.4808(4) 0.8704(4)
H13 H 0.0895 0.4679 0.7832
S1 S 0.74090(15) 1.00456(13) 1.20184(11)
Zn1A Zn -0.60358(6) 0.36601(6) 1.19314(5)
Zn1A_2 Zn 0.39642(6) 0.36601(6) 1.19314(5)
Zn1_2 Zn 0.60358(6) 0.63399(6) 1.80686(5)
Zn1_3 Zn -0.39642(6) 0.63399(6) 0.80686(5)
Zn1A_3 Zn -0.60358(6) 0.36601(6) 0.19314(5)
O1A O -0.3944(3) 0.4054(3) 1.0979(3)
O2A O -0.3264(4) 0.4045(6) 1.2795(3)
O3A O -0.2456(3) 0.4442(3) 0.7953(3)
O3A_2 O 0.7544(3) 0.4442(3) 0.7953(3)
O3_2 O -0.7544(3) 0.5558(3) 1.2047(3)
O4A O -0.1353(4) 0.2210(3) 0.8923(4)
N1A N -0.6438(4) 0.2400(4) 1.0784(3)
N2_2 N 0.6420(4) 0.7462(4) 0.6196(3)
N2A N -0.6420(4) 0.2538(4) 1.3804(3)
N2A_2 N -0.6420(4) 0.2538(4) 0.3804(3)
C1A C -0.5350(5) 0.2175(5) 0.9643(4)
H5A H -0.4411 0.2521 0.9455
C2A C -0.5580(5) 0.1458(5) 0.8755(4)
H6A H -0.4801 0.1298 0.7992
C3A C -0.7017(5) 0.0971(4) 0.9021(4)
C4A C -0.8130(5) 0.1189(5) 1.0193(4)
H7A H -0.9085 0.0866 1.0400
C5A C -0.7790(5) 0.1890(5) 1.1039(4)
H8A H -0.8530 0.2018 1.1828
C6A C -0.6365(5) 0.3163(5) 0.4793(4)
H9A H -0.6119 0.4113 0.4591
C7A C -0.6652(6) 0.2482(5) 0.6089(4)
H10A H -0.6617 0.2969 0.6739
C8A C -0.6996(5) 0.1043(5) 0.6400(4)
C9A C -0.7072(6) 0.0396(5) 0.5384(4)
H11A H -0.7310 -0.0555 0.5555
C10A C -0.6795(5) 0.1168(5) 0.4133(4)
H12A H -0.6869 0.0721 0.3471
C11A C -0.2979(5) 0.4178(5) 1.1597(4)
C12A C -0.1433(4) 0.4557(4) 1.0759(4)
C13A C -0.1641(5) 0.3595(5) 0.8757(4)
C14A C -0.0864(4) 0.4374(4) 0.9441(4)
C15A C -0.0535(5) 0.5192(4) 1.1296(4)
H13A H -0.0895 0.5321 1.2168
S1A S -0.74090(15) -0.00456(13) 0.79816(11)
O5 O 0.8382(8) 0.1047(6) 0.6754(5)
H1 H 0.8240 0.1678 0.6207
H2 H 0.8561 0.1079 0.7359
O6 O 0.0602(10) 0.7678(12) 0.6029(9)
O7? O 0.0180(18) 0.5568(13) 0.4679(15)
H3? H 0.0755 0.5541 0.3996
H4? H 0.0247 0.5976 0.5275
O8? O 0.1023(17) 0.687(2) 0.5660(14)
loop_
_geom_bond_atom_site_label_1
_geom_bond_atom_site_label_2
_geom_bond_site_symmetry_1
_geom_bond_site_symmetry_2
Zn1 O1 1_555 1_555
O1 C11 1_555 1_555
O2 C11 1_555 1_555
O3 C13 1_555 1_555
O4 C13 1_555 1_555
O5 H1 1_555 1_555
H2 O5 1_555 1_555
N1 Zn1 1_555 1_555
N2 C6 1_555 1_555
C1 N1 1_555 1_555
H5 C1 1_555 1_555
C2 C1 1_555 1_555
H6 C2 1_555 1_555
C3 C2 1_555 1_555
C4 C3 1_555 1_555
H7 C4 1_555 1_555
C5 N1 1_555 1_555
H8 C5 1_555 1_555
C6 H9 1_555 1_555
C7 C6 1_555 1_555
H10 C7 1_555 1_555
C8 C7 1_555 1_555
C9 C8 1_555 1_555
H11 C9 1_555 1_555
C10 N2 1_555 1_555
H12 C10 1_555 1_555
C11 C12 1_555 1_555
C12 C14 1_555 1_555
C13 C14 1_555 1_555
C14 C15A 1_555 1_555
C15 C12 1_555 1_555
H13 C15 1_555 1_555
S1 C3 1_555 1_555
Zn1A O1A 1_555 1_555
Zn1A_2 O3 1_555 1_555
Zn1_2 N2 1_555 1_555
Zn1_3 O3A 1_555 1_555
Zn1A_3 N2A_2 1_555 1_555
O1A C11A 1_555 1_555
O2A C11A 1_555 1_555
O3A C13A 1_555 1_555
O3A_2 Zn1 1_555 1_555
O3_2 Zn1A 1_555 1_555
O4A C13A 1_555 1_555
N1A Zn1A 1_555 1_555
N2_2 Zn1 1_555 1_555
N2A Zn1A 1_555 1_555
N2A_2 C6A 1_555 1_555
C1A N1A 1_555 1_555
H5A C1A 1_555 1_555
C2A C1A 1_555 1_555
H6A C2A 1_555 1_555
C3A C2A 1_555 1_555
C4A C3A 1_555 1_555
H7A C4A 1_555 1_555
C5A N1A 1_555 1_555
H8A C5A 1_555 1_555
C6A H9A 1_555 1_555
C7A C6A 1_555 1_555
H10A C7A 1_555 1_555
C8A C7A 1_555 1_555
C9A C8A 1_555 1_555
H11A C9A 1_555 1_555
C10A N2A_2 1_555 1_555
H12A C10A 1_555 1_555
C11A C12A 1_555 1_555
C12A C14A 1_555 1_555
C13A C14A 1_555 1_555
C14A C15 1_555 1_555
C15A C12A 1_555 1_555
H13A C15A 1_555 1_555
S1A C3A 1_555 1_555
C4 C5 1_555 1_555
C8 S1 1_555 1_555
C9 C10 1_555 1_555
C4A C5A 1_555 1_555
C8A S1A 1_555 1_555
C9A C10A 1_555 1_555

#END
