
#######################################################################
#
#                 Cambridge Crystallographic Data Centre
#                                CCDC 
#
#######################################################################
#
# If this CIF has been generated from an entry in the Cambridge 
# Structural Database, then it will include bibliographic, chemical, 
# crystal, experimental, refinement or atomic coordinate data resulting 
# from the CCDC's data processing and validation procedures.
#
#######################################################################

data_UMOWID
_symmetry_cell_setting           monoclinic
_symmetry_space_group_name_H-M   'C 2/c'
_symmetry_Int_Tables_number      15
_space_group_name_Hall           '-C 2yn'
loop_
_symmetry_equiv_pos_site_id
_symmetry_equiv_pos_as_xyz
1 x,y,z
2 -x,y,1/2-z
3 1/2+x,1/2+y,z
4 1/2-x,1/2+y,1/2-z
5 -x,-y,-z
6 x,-y,1/2+z
7 1/2-x,1/2-y,-z
8 1/2+x,1/2-y,1/2+z
_cell_length_a                   14.214(4)
_cell_length_b                   11.158(4)
_cell_length_c                   12.611(4)
_cell_angle_alpha                90
_cell_angle_beta                 113.564(5)
_cell_angle_gamma                90
_cell_volume                     1833.32
loop_
_atom_site_label
_atom_site_type_symbol
_atom_site_fract_x
_atom_site_fract_y
_atom_site_fract_z
Ni1 Ni 0.2500 0.2500 0.0000
O1 O 0.42693(19) -0.1858(2) -0.11453(19)
O2 O 0.4045(2) -0.3552(2) -0.0351(2)
H1 H 0.4061 -0.3844 -0.0940
O3 O 0.29085(18) -0.17623(19) 0.37283(17)
O4 O 0.3485(3) -0.3424(2) 0.3264(2)
O5 O 0.35536(18) 0.3863(2) 0.0352(2)
H2 H 0.4160 0.3764 0.0859
H3 H 0.3385 0.4524 -0.0009
N1 N 0.36797(19) 0.1460(2) 0.1278(2)
H6 H 0.4274 0.1670 0.1234
H7 H 0.3718 0.1716 0.1971
C1 C 0.4084(3) -0.2375(3) -0.0404(3)
C2 C 0.3876(2) -0.1727(3) 0.0512(2)
C3 C 0.3871(2) -0.0483(3) 0.0481(2)
H8 H 0.4000 -0.0083 -0.0094
C4 C 0.3670(2) 0.0169(3) 0.1315(2)
C5 C 0.3455(2) -0.0438(3) 0.2152(2)
H9 H 0.3298 -0.0009 0.2692
C6 C 0.3473(2) -0.1679(3) 0.2188(2)
C7 C 0.3679(3) -0.2339(3) 0.1365(3)
H10 H 0.3685 -0.3173 0.1386
C8 C 0.3279(3) -0.2343(3) 0.3129(3)
Ni1C Ni 0.2500 -0.2500 0.5000
Ni1C_2 Ni 0.2500 0.7500 -0.5000
O1F O 0.07307(19) 0.6858(2) 0.11453(19)
O2F O 0.0955(2) 0.8552(2) 0.0351(2)
H1F H 0.0939 0.8844 0.0940
O3F O 0.20915(18) 0.67623(19) -0.37283(17)
O3C O 0.20915(18) 0.32377(19) 0.12717(17)
O3E O 0.29085(18) 0.17623(19) -0.12717(17)
O4F O 0.1515(3) 0.8424(2) -0.3264(2)
O5F O 0.14464(18) 0.1137(2) -0.0352(2)
H2F H 0.0840 0.1236 -0.0859
H3F H 0.1615 0.0476 0.0009
N1F N 0.13203(19) 0.3540(2) -0.1278(2)
H6F H 0.0726 0.3330 -0.1234
H7F H 0.1282 0.3284 -0.1971
C1F C 0.0916(3) 0.7375(3) 0.0404(3)
C2F C 0.1124(2) 0.6727(3) -0.0512(2)
C3F C 0.1129(2) 0.5483(3) -0.0481(2)
H8F H 0.1000 0.5083 0.0094
C4F C 0.1330(2) 0.4831(3) -0.1315(2)
C5F C 0.1545(2) 0.5438(3) -0.2152(2)
H9F H 0.1702 0.5009 -0.2692
C6F C 0.1527(2) 0.6679(3) -0.2188(2)
C7F C 0.1321(3) 0.7339(3) -0.1365(3)
H10F H 0.1315 0.8173 -0.1386
C8F C 0.1721(3) 0.7343(3) -0.3129(3)
O6 O 0.0900(2) 0.9530(2) 0.2250(2)
H4 H 0.1212 0.9761 0.2946
H5 H 0.0435 0.9968 0.1768
loop_
_geom_bond_atom_site_label_1
_geom_bond_atom_site_label_2
_geom_bond_site_symmetry_1
_geom_bond_site_symmetry_2
Ni1 O5 1_555 1_555
O1 C1 1_555 1_555
O2 H1 1_555 1_555
O3 C8 1_555 1_555
O4 C8 1_555 1_555
O5 H2 1_555 1_555
H3 O5 1_555 1_555
O6 H4 1_555 1_555
H5 O6 1_555 1_555
N1 Ni1 1_555 1_555
H6 N1 1_555 1_555
H7 N1 1_555 1_555
C1 O2 1_555 1_555
C2 C1 1_555 1_555
C3 C2 1_555 1_555
H8 C3 1_555 1_555
C4 N1 1_555 1_555
C5 C4 1_555 1_555
H9 C5 1_555 1_555
C6 C5 1_555 1_555
C7 C2 1_555 1_555
H10 C7 1_555 1_555
C8 C6 1_555 1_555
Ni1C O3 1_555 1_555
Ni1C_2 O3F 1_555 1_555
O1F C1F 1_555 1_555
O2F H1F 1_555 1_555
O3F C8F 1_555 1_555
O3C Ni1 1_555 1_555
O3E Ni1 1_555 1_555
O4F C8F 1_555 1_555
O5F Ni1 1_555 1_555
H2F O5F 1_555 1_555
H3F O5F 1_555 1_555
N1F Ni1 1_555 1_555
H6F N1F 1_555 1_555
H7F N1F 1_555 1_555
C1F O2F 1_555 1_555
C2F C1F 1_555 1_555
C3F C2F 1_555 1_555
H8F C3F 1_555 1_555
C4F N1F 1_555 1_555
C5F C4F 1_555 1_555
H9F C5F 1_555 1_555
C6F C5F 1_555 1_555
C7F C2F 1_555 1_555
H10F C7F 1_555 1_555
C8F C6F 1_555 1_555
C3 C4 1_555 1_555
C6 C7 1_555 1_555
C3F C4F 1_555 1_555
C6F C7F 1_555 1_555

#END
