
#######################################################################
#
#                 Cambridge Crystallographic Data Centre
#                                CCDC 
#
#######################################################################
#
# If this CIF has been generated from an entry in the Cambridge 
# Structural Database, then it will include bibliographic, chemical, 
# crystal, experimental, refinement or atomic coordinate data resulting 
# from the CCDC's data processing and validation procedures.
#
#######################################################################

data_UMOYIF
_symmetry_cell_setting           triclinic
_symmetry_space_group_name_H-M   'P -1'
_symmetry_Int_Tables_number      2
_space_group_name_Hall           '-P 1'
loop_
_symmetry_equiv_pos_site_id
_symmetry_equiv_pos_as_xyz
1 x,y,z
2 -x,-y,-z
_cell_length_a                   8.8190(3)
_cell_length_b                   11.4750(3)
_cell_length_c                   11.7590(5)
_cell_angle_alpha                86.2450(10)
_cell_angle_beta                 72.7850(10)
_cell_angle_gamma                89.4840(10)
_cell_volume                     1134.17
loop_
_atom_site_label
_atom_site_type_symbol
_atom_site_fract_x
_atom_site_fract_y
_atom_site_fract_z
C1 C 0.0481(7) 0.2354(5) 0.8684(5)
C2 C -0.0460(7) 0.3462(5) 0.8932(5)
C3 C -0.1675(7) 0.3618(5) 0.9980(5)
C4 C -0.2276(7) 0.2654(5) 1.0966(6)
C5 C -0.2382(8) 0.4710(6) 1.0114(6)
H1 H -0.3203 0.4842 1.0799
C6 C -0.1868(8) 0.5597(6) 0.9236(6)
H2 H -0.2321 0.6333 0.9329
C7 C -0.0671(7) 0.5373(5) 0.8217(6)
H3 H -0.0315 0.5971 0.7627
C8 C 0.7178(7) 0.3948(5) 0.4349(5)
C9 C 0.6014(7) 0.4452(5) 0.3745(5)
C10 C 0.4666(7) 0.3860(5) 0.3687(5)
C11 C 0.4158(7) 0.2660(5) 0.4283(5)
C12 C 0.3679(8) 0.4431(5) 0.3109(6)
H4 H 0.2780 0.4052 0.3051
C13 C 0.4025(7) 0.5553(5) 0.2623(6)
H5 H 0.3377 0.5935 0.2225
C14 C 0.5363(7) 0.6106(5) 0.2736(5)
H6 H 0.5588 0.6872 0.2422
N1 N -0.0007(6) 0.4323(4) 0.8054(4)
N2 N 0.6342(6) 0.5571(4) 0.3284(4)
O1 O 0.1412(5) 0.2302(3) 0.7644(4)
O2 O 0.0333(5) 0.1583(4) 0.9501(4)
O3 O -0.0240(5) 0.3187(4) 0.5804(4)
H7 H -0.0746 0.2669 0.6035
H8 H -0.0887 0.3744 0.5355
O4 O -0.1859(6) 0.2710(4) 1.1875(4)
O5 O -0.3631(5) -0.0497(4) 1.3172(4)
H9 H -0.4582 -0.0744 1.3603
H10 H -0.2943 -0.1081 1.3104
O6 O -0.3243(6) 0.1927(4) 1.0806(4)
O7 O -0.3044(6) 0.0319(4) 1.5403(4)
H11 H -0.2576 0.0550 1.5860
H12 H -0.3360 -0.0390 1.5463
O8 O 0.8234(5) 0.4638(4) 0.4453(4)
O9 O 0.0138(6) 0.1768(4) 1.3679(4)
H13 H 0.0835 0.1855 1.2936
H14 H 0.0451 0.1149 1.4072
O10 O 0.7038(5) 0.2901(3) 0.4725(4)
O11 O -0.0388(6) 0.0370(4) 1.1887(4)
H15 H -0.0469 -0.0299 1.1467
H16 H -0.0138 0.0949 1.1279
O12 O 0.4814(5) 0.1764(4) 0.3779(4)
O14 O 0.3008(5) 0.2604(4) 0.5213(4)
Co1 Co 0.16268(10) 0.37237(7) 0.64185(7)
Ca1 Ca -0.24453(15) 0.12788(10) 1.34641(11)
N2A N 0.3658(6) 0.4429(4) 0.6716(4)
O8A O 0.1766(5) 0.5362(4) 0.5547(4)
O10_2 O -0.2962(5) 0.2901(3) 1.4725(4)
O12_2 O -0.5186(5) 0.1764(4) 1.3779(4)
Co1A Co 0.83732(10) 0.62763(7) 0.35815(7)
Ca1_2 Ca 0.75547(15) 0.12788(10) 0.34641(11)
O13 O -0.1745(6) 0.1203(4) 0.7028(4)
H17 H -0.2782 0.1203 0.7536
H18 H -0.1243 0.0777 0.7469
O15 O -0.6928(6) 0.1575(5) 1.1934(5)
H19 H -0.5899 0.1659 1.1890
H20 H -0.6973 0.1152 1.1327
O16 O 0.3095(6) 0.0470(4) 0.9790(4)
H21 H 0.2455 0.0844 0.9538
H22 H 0.3006 -0.0176 0.9697
O17 O -0.4212(6) 0.1877(4) 0.8806(4)
H23 H -0.3847 0.1914 0.9443
H24 H -0.5040 0.1370 0.9020
loop_
_geom_bond_atom_site_label_1
_geom_bond_atom_site_label_2
_geom_bond_site_symmetry_1
_geom_bond_site_symmetry_2
C1 C2 1_555 1_555
C2 C3 1_555 1_555
C3 C4 1_555 1_555
C4 O4 1_555 1_555
C5 C3 1_555 1_555
H1 C5 1_555 1_555
C6 C5 1_555 1_555
H2 C6 1_555 1_555
C7 C6 1_555 1_555
H3 C7 1_555 1_555
C8 C9 1_555 1_555
C9 C10 1_555 1_555
C10 C11 1_555 1_555
C11 O12 1_555 1_555
C12 C10 1_555 1_555
H4 C12 1_555 1_555
C13 C12 1_555 1_555
H5 C13 1_555 1_555
C14 C13 1_555 1_555
H6 C14 1_555 1_555
N1 C2 1_555 1_555
N2 C9 1_555 1_555
O1 C1 1_555 1_555
O2 C1 1_555 1_555
O3 H7 1_555 1_555
H8 O3 1_555 1_555
O4 Ca1 1_555 1_555
O5 H9 1_555 1_555
H10 O5 1_555 1_555
O6 C4 1_555 1_555
O7 H11 1_555 1_555
H12 O7 1_555 1_555
O8 C8 1_555 1_555
O9 H13 1_555 1_555
H14 O9 1_555 1_555
O10 C8 1_555 1_555
O11 H15 1_555 1_555
H16 O11 1_555 1_555
O12 Ca1_2 1_555 1_555
O13 H17 1_555 1_555
H18 O13 1_555 1_555
O14 C11 1_555 1_555
O15 H19 1_555 1_555
H20 O15 1_555 1_555
O16 H21 1_555 1_555
H22 O16 1_555 1_555
O17 H23 1_555 1_555
H24 O17 1_555 1_555
Co1 N1 1_555 1_555
Ca1 O5 1_555 1_555
N2A Co1 1_555 1_555
O8A Co1 1_555 1_555
O10_2 Ca1 1_555 1_555
O12_2 Ca1 1_555 1_555
Co1A N2 1_555 1_555
Ca1_2 O10 1_555 1_555
C7 N1 1_555 1_555
C14 N2 1_555 1_555
O1 Co1 1_555 1_555
O3 Co1 1_555 1_555
O7 Ca1 1_555 1_555
O8 Co1A 1_555 1_555
O9 Ca1 1_555 1_555
O11 Ca1 1_555 1_555
O14 Co1 1_555 1_555

#END
