
#######################################################################
#
#                 Cambridge Crystallographic Data Centre
#                                CCDC 
#
#######################################################################
#
# If this CIF has been generated from an entry in the Cambridge 
# Structural Database, then it will include bibliographic, chemical, 
# crystal, experimental, refinement or atomic coordinate data resulting 
# from the CCDC's data processing and validation procedures.
#
#######################################################################

data_UMUFAJ
_symmetry_cell_setting           monoclinic
_symmetry_space_group_name_H-M   'P 21/c'
_symmetry_Int_Tables_number      14
_space_group_name_Hall           '-P 2ybc'
loop_
_symmetry_equiv_pos_site_id
_symmetry_equiv_pos_as_xyz
1 x,y,z
2 x,1/2-y,1/2+z
3 -x,-y,-z
4 -x,1/2+y,1/2-z
_cell_length_a                   13.689(4)
_cell_length_b                   11.158(3)
_cell_length_c                   17.080(1)
_cell_angle_alpha                90
_cell_angle_beta                 101.038(1)
_cell_angle_gamma                90
_cell_volume                     2560.57
loop_
_atom_site_label
_atom_site_type_symbol
_atom_site_fract_x
_atom_site_fract_y
_atom_site_fract_z
Cu1 Cu 0.08140(5) 0.00892(5) 0.11251(4)
O1 O 0.2247(2) 0.0023(3) 0.1662(2)
O2 O 0.1479(3) -0.0232(4) 0.2673(2)
O3 O 0.2478(5) -0.0763(5) 0.4062(3)
O4 O -0.0572(2) 0.0201(3) 0.1255(2)
O5 O -0.1443(2) -0.0074(3) 0.0033(2)
O6 O -0.3389(3) 0.0120(4) -0.0215(2)
N1 N 0.0855(3) 0.1914(3) 0.1119(3)
N2 N 0.0781(3) 0.8277(3) 0.1065(3)
C1 C 0.2256(4) -0.0174(4) 0.2392(3)
C2 C 0.3235(4) -0.0352(4) 0.2936(3)
C3 C 0.3285(6) -0.0635(6) 0.3733(4)
C4 C 0.4203(8) -0.0818(7) 0.4231(5)
C5 C 0.5058(8) -0.0667(8) 0.3931(6)
C6 C 0.5023(6) -0.0387(8) 0.3141(6)
C7 C 0.4109(5) -0.0233(6) 0.2640(4)
C8 C -0.1376(4) 0.0200(4) 0.0749(3)
C9 C -0.2292(4) 0.0601(4) 0.1032(3)
C10 C -0.3229(4) 0.0538(5) 0.0550(4)
C11 C -0.4071(5) 0.0896(6) 0.0834(4)
C12 C -0.3971(6) 0.1361(6) 0.1599(4)
C13 C -0.3055(5) 0.1432(6) 0.2093(4)
C14 C -0.2218(5) 0.1045(5) 0.1809(4)
C15 C 0.1331(5) 0.2534(4) 0.0639(4)
C16 C 0.1343(5) 0.3766(5) 0.0621(4)
C17 C 0.0856(4) 0.4430(4) 0.1108(3)
C18 C 0.0396(5) 0.3784(5) 0.1635(4)
C19 C 0.0400(5) 0.2549(4) 0.1604(4)
C20 C 0.1499(4) 0.7658(5) 0.0802(4)
C21 C 0.1533(5) 0.6425(4) 0.0800(4)
C22 C 0.0838(4) 0.5759(4) 0.1089(3)
C23 C 0.0108(5) 0.6404(5) 0.1353(4)
C24 C 0.0095(5) 0.7636(4) 0.1329(4)
H1 H 0.179(7) -0.070(8) 0.368(6)
H2 H 0.402(6) -0.106(7) 0.481(5)
H3 H 0.575(6) -0.081(6) 0.424(5)
H4 H 0.568(5) -0.033(6) 0.291(4)
H5 H 0.411(3) -0.012(4) 0.205(3)
H6 H -0.280(5) 0.008(6) -0.033(4)
H7 H -0.478(5) 0.089(5) 0.047(4)
H8 H -0.468(4) 0.159(5) 0.177(3)
H9 H -0.296(4) 0.177(5) 0.265(4)
H10 H -0.142(5) 0.109(5) 0.216(4)
H11 H 0.174(4) 0.204(4) 0.031(3)
H12 H 0.163(4) 0.406(4) 0.030(3)
H13 H 0.004(4) 0.414(5) 0.194(4)
H14 H 0.012(4) 0.210(5) 0.199(3)
H15 H 0.196(4) 0.809(4) 0.059(3)
H16 H 0.201(4) 0.608(4) 0.057(3)
H17 H -0.031(4) 0.614(4) 0.152(3)
H18 H -0.041(3) 0.801(4) 0.146(3)
O5B O 0.1443(2) 0.0074(3) -0.0033(2)
N2_2 N 0.0781(3) -0.1723(3) 0.1065(3)
Cu1B Cu -0.08140(5) -0.00892(5) -0.11251(4)
Cu1_2 Cu 0.08140(5) 1.00892(5) 0.11251(4)
O7 O 0.2281(7) 0.2329(6) 0.4069(5)
N3 N 0.3613(5) 0.2675(5) 0.3550(4)
C25 C 0.3216(9) 0.2425(8) 0.4178(8)
C26 C 0.3043(7) 0.2888(7) 0.2759(5)
C27 C 0.4669(7) 0.2789(8) 0.3701(6)
H19 H 0.2620 0.3548 0.2772
H20 H 0.2667 0.2194 0.2577
H21 H 0.3497 0.3051 0.2412
H22 H 0.4883 0.2949 0.3206
H23 H 0.4965 0.2024 0.3893
H24 H 0.4886 0.3381 0.4070
loop_
_geom_bond_atom_site_label_1
_geom_bond_atom_site_label_2
_geom_bond_site_symmetry_1
_geom_bond_site_symmetry_2
Cu1 O1 1_555 1_555
O1 C1 1_555 1_555
O2 C1 1_555 1_555
O3 C3 1_555 1_555
O4 Cu1 1_555 1_555
O5 C8 1_555 1_555
O6 C10 1_555 1_555
O7 C25 1_555 1_555
N1 Cu1 1_555 1_555
N2 C20 1_555 1_555
N3 C25 1_555 1_555
C1 C2 1_555 1_555
C2 C3 1_555 1_555
C3 C4 1_555 1_555
C4 C5 1_555 1_555
C5 C6 1_555 1_555
C6 C7 1_555 1_555
C7 C2 1_555 1_555
C8 O4 1_555 1_555
C9 C8 1_555 1_555
C10 C9 1_555 1_555
C11 C10 1_555 1_555
C12 C11 1_555 1_555
C13 C12 1_555 1_555
C14 C9 1_555 1_555
C15 N1 1_555 1_555
C16 C15 1_555 1_555
C17 C16 1_555 1_555
C18 C17 1_555 1_555
C19 N1 1_555 1_555
C20 C21 1_555 1_555
C21 C22 1_555 1_555
C22 C17 1_555 1_555
C23 C22 1_555 1_555
C24 N2 1_555 1_555
C26 N3 1_555 1_555
C27 N3 1_555 1_555
H1 O3 1_555 1_555
H2 C4 1_555 1_555
H3 C5 1_555 1_555
H4 C6 1_555 1_555
H5 C7 1_555 1_555
H6 O6 1_555 1_555
H7 C11 1_555 1_555
H8 C12 1_555 1_555
H9 C13 1_555 1_555
H10 C14 1_555 1_555
H11 C15 1_555 1_555
H12 C16 1_555 1_555
H13 C18 1_555 1_555
H14 C19 1_555 1_555
H15 C20 1_555 1_555
H16 C21 1_555 1_555
H17 C23 1_555 1_555
H18 C24 1_555 1_555
H19 C26 1_555 1_555
H20 C26 1_555 1_555
H21 C26 1_555 1_555
H22 C27 1_555 1_555
H23 C27 1_555 1_555
H24 C27 1_555 1_555
O5B Cu1 1_555 1_555
N2_2 Cu1 1_555 1_555
Cu1B O5 1_555 1_555
Cu1_2 N2 1_555 1_555
C13 C14 1_555 1_555
C18 C19 1_555 1_555
C23 C24 1_555 1_555

#END
