
#######################################################################
#
#                 Cambridge Crystallographic Data Centre
#                                CCDC 
#
#######################################################################
#
# If this CIF has been generated from an entry in the Cambridge 
# Structural Database, then it will include bibliographic, chemical, 
# crystal, experimental, refinement or atomic coordinate data resulting 
# from the CCDC's data processing and validation procedures.
#
#######################################################################

data_UMUYEH
_symmetry_cell_setting           monoclinic
_symmetry_space_group_name_H-M   'C 2/c'
_symmetry_Int_Tables_number      15
_space_group_name_Hall           '-C 2yn'
loop_
_symmetry_equiv_pos_site_id
_symmetry_equiv_pos_as_xyz
1 x,y,z
2 -x,y,1/2-z
3 1/2+x,1/2+y,z
4 1/2-x,1/2+y,1/2-z
5 -x,-y,-z
6 x,-y,1/2+z
7 1/2-x,1/2-y,-z
8 1/2+x,1/2-y,1/2+z
_cell_length_a                   17.659(4)
_cell_length_b                   13.109(3)
_cell_length_c                   12.019(2)
_cell_angle_alpha                90
_cell_angle_beta                 122.62(3)
_cell_angle_gamma                90
_cell_volume                     2343.43
loop_
_atom_site_label
_atom_site_type_symbol
_atom_site_fract_x
_atom_site_fract_y
_atom_site_fract_z
Cu1 Cu 0.7500 0.7500 1.0000
S1 S 1.05733(14) 0.58333(15) 0.9014(2)
N1 N 0.8421(5) 0.7024(4) 0.9644(6)
C1 C 1.0000 0.5123(7) 0.7500
H1 H 0.9564 0.4684 0.7516
C2 C 0.8801(6) 0.6113(5) 0.8294(8)
H2 H 0.8606 0.5727 0.7537
C3 C 0.8189(5) 0.6503(5) 0.8564(7)
H3 H 0.7580 0.6393 0.7952
C4 C 0.9948(6) 0.6874(5) 1.0278(7)
H4 H 1.0548 0.7031 1.0882
C5 C 0.9288(6) 0.7201(5) 1.0479(7)
H5 H 0.9463 0.7567 1.1244
C6 C 0.9695(5) 0.6302(5) 0.9154(7)
Cl1 Cl 0.79859(15) 0.63365(16) 1.1650(2)
Cu1A Cu 1.2500 0.7500 0.5000
S1A S 0.94267(14) 0.58333(15) 0.5986(2)
N1A N 1.1579(5) 0.7024(4) 0.5356(6)
N1F N 0.6579(5) 0.7976(4) 1.0356(6)
H1A H 1.0436 0.4684 0.7484
C2A C 1.1199(6) 0.6113(5) 0.6706(8)
H2A H 1.1394 0.5727 0.7463
C3A C 1.1811(5) 0.6503(5) 0.6436(7)
H3A H 1.2420 0.6393 0.7048
C4A C 1.0052(6) 0.6874(5) 0.4722(7)
H4A H 0.9452 0.7031 0.4118
C5A C 1.0712(6) 0.7201(5) 0.4521(7)
H5A H 1.0537 0.7567 0.3756
C6A C 1.0305(5) 0.6302(5) 0.5846(7)
Cl1F Cl 0.70141(15) 0.86635(16) 0.8350(2)
O1 O 0.6255(7) 0.6089(7) 0.8151(12)
N2 N 0.6306(8) 0.4433(8) 0.8532(15)
C7 C 0.6255(12) 0.5359(13) 0.8696(18)
H6 H 0.6207 0.5498 0.9415
C8 C 0.640(2) 0.3648(18) 0.935(3)
H7 H 0.6771 0.3863 1.0255
H8 H 0.6668 0.3072 0.9203
H9 H 0.5816 0.3458 0.9171
C9 C 0.637(2) 0.412(2) 0.757(3)
H10 H 0.6142 0.4635 0.6903
H11 H 0.6017 0.3508 0.7211
H12 H 0.6984 0.3978 0.7891
loop_
_geom_bond_atom_site_label_1
_geom_bond_atom_site_label_2
_geom_bond_site_symmetry_1
_geom_bond_site_symmetry_2
Cu1 N1 1_555 1_555
S1 C1 1_555 1_555
N1 C3 1_555 1_555
C1 H1 1_555 1_555
C2 H2 1_555 1_555
C3 C2 1_555 1_555
H3 C3 1_555 1_555
C4 H4 1_555 1_555
C5 N1 1_555 1_555
H5 C5 1_555 1_555
C6 S1 1_555 1_555
O1 C7 1_555 1_555
N2 C7 1_555 1_555
C7 H6 1_555 1_555
Cl1 Cu1 1_555 1_555
C8 N2 1_555 1_555
H7 C8 1_555 1_555
H8 C8 1_555 1_555
H9 C8 1_555 1_555
C9 N2 1_555 1_555
H10 C9 1_555 1_555
H11 C9 1_555 1_555
H12 C9 1_555 1_555
Cu1A N1A 1_555 1_555
S1A C1 1_555 1_555
N1A C3A 1_555 1_555
N1F Cu1 1_555 1_555
H1A C1 1_555 1_555
C2A H2A 1_555 1_555
C3A C2A 1_555 1_555
H3A C3A 1_555 1_555
C4A H4A 1_555 1_555
C5A N1A 1_555 1_555
H5A C5A 1_555 1_555
C6A S1A 1_555 1_555
Cl1F Cu1 1_555 1_555
C2 C6 1_555 1_555
C4 C5 1_555 1_555
C4 C6 1_555 1_555
C2A C6A 1_555 1_555
C4A C5A 1_555 1_555
C4A C6A 1_555 1_555

#END
