
#######################################################################
#
#                 Cambridge Crystallographic Data Centre
#                                CCDC 
#
#######################################################################
#
# If this CIF has been generated from an entry in the Cambridge 
# Structural Database, then it will include bibliographic, chemical, 
# crystal, experimental, refinement or atomic coordinate data resulting 
# from the CCDC's data processing and validation procedures.
#
#######################################################################

data_UNAFOE02
_symmetry_cell_setting           monoclinic
_symmetry_space_group_name_H-M   'P 21/c'
_symmetry_Int_Tables_number      14
_space_group_name_Hall           '-P 2ybc'
loop_
_symmetry_equiv_pos_site_id
_symmetry_equiv_pos_as_xyz
1 x,y,z
2 -x,1/2+y,1/2-z
3 -x,-y,-z
4 x,1/2-y,1/2+z
_cell_length_a                   7.5251(2)
_cell_length_b                   14.4513(2)
_cell_length_c                   7.7358(2)
_cell_angle_alpha                90
_cell_angle_beta                 99.590(2)
_cell_angle_gamma                90
_cell_volume                     829.492
loop_
_atom_site_label
_atom_site_type_symbol
_atom_site_fract_x
_atom_site_fract_y
_atom_site_fract_z
C1 C 0.0610(3) 0.37935(15) -0.0504(3)
C2 C -0.0329(3) 0.40346(16) -0.2314(3)
C3 C -0.1762(3) 0.36026(15) -0.3158(3)
C4 C -0.2690(3) 0.39051(16) -0.4928(3)
O1 O 0.4764(2) 0.50135(12) 0.2159(2)
O2 O 0.3588(2) 0.21761(11) 0.1895(2)
O3 O 0.6090(2) 0.34291(11) 0.0320(2)
O4 O 0.2192(2) 0.37298(11) 0.3640(2)
O5 O 0.2333(2) 0.37601(11) -0.0325(2)
O6 O -0.0271(2) 0.36627(12) 0.0698(2)
O7 O -0.3855(2) 0.33484(11) -0.5763(2)
O8 O -0.2321(2) 0.46799(11) -0.5504(2)
Co1 Co 0.41930(4) 0.360206(18) 0.20001(4)
H1 H 0.5823(19) 0.506(2) 0.271(3)
H2 H 0.457(5) 0.5409(18) 0.136(3)
H3 H 0.309(4) 0.1924(19) 0.097(2)
H4 H 0.315(4) 0.1897(17) 0.267(3)
H5 H 0.7201(16) 0.3537(16) 0.061(4)
H6 H 0.609(4) 0.2877(10) -0.002(4)
H7 H 0.123(3) 0.3640(17) 0.294(3)
H8 H 0.222(4) 0.4250(11) 0.413(3)
H9 H 0.025(3) 0.4487(13) -0.288(3)
H10 H -0.230(3) 0.3077(11) -0.271(3)
O7_2 O 0.6145(2) 0.33484(11) 0.4237(2)
Co1_2 Co -0.58070(4) 0.360206(18) -0.79999(4)
loop_
_geom_bond_atom_site_label_1
_geom_bond_atom_site_label_2
_geom_bond_site_symmetry_1
_geom_bond_site_symmetry_2
C1 C2 1_555 1_555
C2 C3 1_555 1_555
C3 C4 1_555 1_555
C4 O7 1_555 1_555
O1 Co1 1_555 1_555
O2 Co1 1_555 1_555
O3 Co1 1_555 1_555
O4 Co1 1_555 1_555
O5 C1 1_555 1_555
O6 C1 1_555 1_555
O7 Co1_2 1_555 1_555
O8 C4 1_555 1_555
Co1 O5 1_555 1_555
H1 O1 1_555 1_555
H2 O1 1_555 1_555
H3 O2 1_555 1_555
H4 O2 1_555 1_555
H5 O3 1_555 1_555
H6 O3 1_555 1_555
H7 O4 1_555 1_555
H8 O4 1_555 1_555
H9 C2 1_555 1_555
H10 C3 1_555 1_555
O7_2 Co1 1_555 1_555

#END
