
#######################################################################
#
#                 Cambridge Crystallographic Data Centre
#                                CCDC 
#
#######################################################################
#
# If this CIF has been generated from an entry in the Cambridge 
# Structural Database, then it will include bibliographic, chemical, 
# crystal, experimental, refinement or atomic coordinate data resulting 
# from the CCDC's data processing and validation procedures.
#
#######################################################################

data_UNAJIC
_symmetry_cell_setting           triclinic
_symmetry_space_group_name_H-M   'P 1'
_symmetry_Int_Tables_number      1
_space_group_name_Hall           'P 1'
loop_
_symmetry_equiv_pos_site_id
_symmetry_equiv_pos_as_xyz
1 x,y,z
_cell_length_a                   8.319(3)
_cell_length_b                   9.695(5)
_cell_length_c                   12.362(7)
_cell_angle_alpha                108.59(5)
_cell_angle_beta                 94.42(4)
_cell_angle_gamma                102.85(4)
_cell_volume                     909.453
loop_
_atom_site_label
_atom_site_type_symbol
_atom_site_fract_x
_atom_site_fract_y
_atom_site_fract_z
Zn1 Zn -1.05474(11) 0.09970(9) 0.17606(8)
Zn2 Zn -0.41708(10) 0.39195(9) 0.80973(7)
Cl1 Cl -1.2734(3) -0.1007(2) 0.12842(17)
Cl2 Cl -0.8159(3) 0.0433(2) 0.1259(2)
Cl3 Cl -0.5987(3) 0.2538(3) 0.88200(19)
Cl4 Cl -0.1526(2) 0.3826(2) 0.85171(17)
O1 O -1.0223(8) 0.1974(6) 0.3492(5)
O2 O -0.0977(7) 0.2740(6) 0.1423(5)
O3 O -0.4413(7) 0.5966(7) 0.8414(6)
O4 O -0.4743(8) 0.3253(6) 0.6382(5)
C1 C -0.9767(9) 0.1479(8) 0.4251(7)
C2 C -0.9215(10) 0.0135(8) 0.4042(7)
H1 H -0.9219 -0.0468 0.3286
C3 C -0.8688(11) -0.0268(9) 0.4930(9)
H2 H -0.8324 -0.1142 0.4777
C4 C -0.8680(12) 0.0595(11) 0.6056(8)
H3 H -0.8305 0.0318 0.6665
C5 C -0.9226(11) 0.1851(10) 0.6262(7)
H4 H -0.9233 0.2436 0.7021
N1 N -0.9764(7) 0.2278(7) 0.5389(5)
C6 C -1.0340(9) 0.3693(9) 0.5681(7)
H5 H -1.0887 0.3799 0.6357
H6 H -1.1154 0.3614 0.5043
C7 C -0.8915(9) 0.5081(8) 0.5918(7)
C8 C -0.8348(9) 0.5468(9) 0.5004(7)
H7 H -0.8856 0.4889 0.4249
C9 C -0.7028(10) 0.6712(9) 0.5218(8)
H8 H -0.6647 0.6980 0.4607
C10 C -0.6263(10) 0.7573(9) 0.6352(8)
H9 H -0.5374 0.8414 0.6493
C11 C -0.6815(9) 0.7186(9) 0.7271(7)
C12 C -0.8142(9) 0.5915(8) 0.7038(7)
H10 H -0.8511 0.5626 0.7644
C13 C -0.5939(10) 0.8097(11) 0.8487(8)
H11 H -0.6246 0.9045 0.8745
H12 H -0.6291 0.7551 0.9000
N2 N -0.4106(8) 0.8399(8) 0.8543(6)
C14 C -0.3169(12) 0.9790(10) 0.8659(8)
H13 H -0.3662 1.0586 0.8772
C15 C -0.1490(12) 1.0021(11) 0.8608(8)
H14 H -0.0848 1.0970 0.8674
C16 C -0.0756(12) 0.8830(12) 0.8458(9)
H15 H 0.0374 0.8970 0.8404
C17 C -0.1715(11) 0.7446(11) 0.8390(8)
H16 H -0.1218 0.6656 0.8304
C18 C -0.3426(10) 0.7198(9) 0.8447(7)
C19 C -0.4537(9) 0.2072(8) 0.5639(7)
C20 C -0.3871(10) 0.0969(9) 0.5896(7)
H17 H -0.3564 0.1073 0.6664
C21 C -0.3678(11) -0.0232(9) 0.5043(8)
H18 H -0.3230 -0.0944 0.5223
C22 C -0.4145(13) -0.0403(10) 0.3907(9)
H19 H -0.4021 -0.1237 0.3320
C23 C -0.4771(12) 0.0616(10) 0.3645(7)
H20 H -0.5072 0.0493 0.2873
N3 N -0.4985(7) 0.1861(7) 0.4504(5)
C24 C -0.5688(9) 0.2969(9) 0.4168(7)
H21 H -0.6254 0.3461 0.4777
H22 H -0.6506 0.2445 0.3471
C25 C -0.4354(9) 0.4142(8) 0.3958(6)
C26 C -0.3404(9) 0.5393(8) 0.4896(7)
H23 H -0.3621 0.5516 0.5644
C27 C -0.2150(10) 0.6435(8) 0.4698(7)
H24 H -0.1499 0.7252 0.5317
C28 C -0.1851(10) 0.6271(9) 0.3577(7)
H25 H -0.1009 0.6981 0.3446
C29 C -0.2806(9) 0.5052(9) 0.2661(7)
C30 C -0.4036(9) 0.3992(8) 0.2849(6)
H26 H -0.4663 0.3165 0.2227
C31 C -0.2464(10) 0.4901(9) 0.1436(7)
H27 H -0.3097 0.3919 0.0905
H28 H -0.2839 0.5660 0.1206
N4 N -0.0677(9) 0.5080(8) 0.1357(6)
C32 C 0.0252(11) 0.6399(9) 0.1264(8)
H29 H -0.0261 0.7155 0.1252
C33 C 0.1886(13) 0.6604(11) 0.1190(10)
H30 H 0.2509 0.7498 0.1139
C34 C 0.2626(13) 0.5447(14) 0.1193(13)
H31 H 0.3758 0.5575 0.1150
C35 C 0.1701(12) 0.4118(11) 0.1258(10)
H32 H 0.2211 0.3350 0.1238
C36 C -0.0006(11) 0.3902(10) 0.1355(7)
O2_2 O -1.0977(7) 0.2740(6) 0.1423(5)
Zn1_2 Zn -0.05474(11) 0.09970(9) 0.17606(8)
loop_
_geom_bond_atom_site_label_1
_geom_bond_atom_site_label_2
_geom_bond_site_symmetry_1
_geom_bond_site_symmetry_2
Zn1 Cl1 1_555 1_555
Zn2 Cl3 1_555 1_555
Cl2 Zn1 1_555 1_555
Cl4 Zn2 1_555 1_555
O1 Zn1 1_555 1_555
O2 C36 1_555 1_555
O3 Zn2 1_555 1_555
O4 Zn2 1_555 1_555
C1 O1 1_555 1_555
C2 C1 1_555 1_555
H1 C2 1_555 1_555
C3 C2 1_555 1_555
H2 C3 1_555 1_555
C4 C3 1_555 1_555
H3 C4 1_555 1_555
C5 C4 1_555 1_555
H4 C5 1_555 1_555
N1 C1 1_555 1_555
C6 N1 1_555 1_555
H5 C6 1_555 1_555
H6 C6 1_555 1_555
C7 C6 1_555 1_555
C8 C7 1_555 1_555
H7 C8 1_555 1_555
C9 C8 1_555 1_555
H8 C9 1_555 1_555
C10 C9 1_555 1_555
H9 C10 1_555 1_555
C11 C10 1_555 1_555
C12 C7 1_555 1_555
H10 C12 1_555 1_555
C13 C11 1_555 1_555
H11 C13 1_555 1_555
H12 C13 1_555 1_555
N2 C13 1_555 1_555
C14 N2 1_555 1_555
H13 C14 1_555 1_555
C15 C14 1_555 1_555
H14 C15 1_555 1_555
C16 C15 1_555 1_555
H15 C16 1_555 1_555
C17 C16 1_555 1_555
H16 C17 1_555 1_555
C18 O3 1_555 1_555
C19 O4 1_555 1_555
C20 C19 1_555 1_555
H17 C20 1_555 1_555
C21 C20 1_555 1_555
H18 C21 1_555 1_555
C22 C21 1_555 1_555
H19 C22 1_555 1_555
C23 C22 1_555 1_555
H20 C23 1_555 1_555
N3 C19 1_555 1_555
C24 N3 1_555 1_555
H21 C24 1_555 1_555
H22 C24 1_555 1_555
C25 C24 1_555 1_555
C26 C25 1_555 1_555
H23 C26 1_555 1_555
C27 C26 1_555 1_555
H24 C27 1_555 1_555
C28 C27 1_555 1_555
H25 C28 1_555 1_555
C29 C28 1_555 1_555
C30 C25 1_555 1_555
H26 C30 1_555 1_555
C31 C29 1_555 1_555
H27 C31 1_555 1_555
H28 C31 1_555 1_555
N4 C31 1_555 1_555
C32 N4 1_555 1_555
H29 C32 1_555 1_555
C33 C32 1_555 1_555
H30 C33 1_555 1_555
C34 C33 1_555 1_555
H31 C34 1_555 1_555
C35 C34 1_555 1_555
H32 C35 1_555 1_555
C36 N4 1_555 1_555
O2_2 Zn1 1_555 1_555
Zn1_2 O2 1_555 1_555
C5 N1 1_555 1_555
C11 C12 1_555 1_555
N2 C18 1_555 1_555
C17 C18 1_555 1_555
C23 N3 1_555 1_555
C29 C30 1_555 1_555
C35 C36 1_555 1_555

#END
