
#######################################################################
#
#                 Cambridge Crystallographic Data Centre
#                                CCDC 
#
#######################################################################
#
# If this CIF has been generated from an entry in the Cambridge 
# Structural Database, then it will include bibliographic, chemical, 
# crystal, experimental, refinement or atomic coordinate data resulting 
# from the CCDC's data processing and validation procedures.
#
#######################################################################

data_UNASIL
_symmetry_cell_setting           monoclinic
_symmetry_space_group_name_H-M   'C 2/c'
_symmetry_Int_Tables_number      15
_space_group_name_Hall           '-C 2yn'
loop_
_symmetry_equiv_pos_site_id
_symmetry_equiv_pos_as_xyz
1 x,y,z
2 1/2+x,1/2+y,z
3 -x,y,1/2-z
4 1/2-x,1/2+y,1/2-z
5 -x,-y,-z
6 1/2-x,1/2-y,-z
7 x,-y,1/2+z
8 1/2+x,1/2-y,1/2+z
_cell_length_a                   24.4085(8)
_cell_length_b                   12.9198(6)
_cell_length_c                   7.8169(4)
_cell_angle_alpha                90
_cell_angle_beta                 95.396(2)
_cell_angle_gamma                90
_cell_volume                     2454.16
loop_
_atom_site_label
_atom_site_type_symbol
_atom_site_fract_x
_atom_site_fract_y
_atom_site_fract_z
Cd1 Cd 0.5000 -0.14199(5) 0.7500
P1 P 0.42626(6) -0.07922(11) 0.36279(18)
P2 P 0.45292(6) -0.35591(12) -0.04671(17)
N1 N 0.40624(19) -0.2835(4) 0.2512(6)
H1 H 0.4409 -0.2941 0.3015
C1 C 0.2267(3) -0.4111(7) 0.2168(11)
H2 H 0.2103 -0.4743 0.1869
C2 C 0.2750(3) -0.2257(5) 0.3088(8)
H3 H 0.2910 -0.1622 0.3401
C3 C 0.2192(3) -0.2305(6) 0.2533(9)
H4 H 0.1983 -0.1702 0.2471
C4 C 0.2827(3) -0.4072(6) 0.2694(11)
H5 H 0.3037 -0.4673 0.2719
C5 C 0.1952(3) -0.3220(7) 0.2085(9)
H6 H 0.1578 -0.3251 0.1725
C6 C 0.3069(2) -0.3140(5) 0.3177(7)
C7 C 0.3667(2) -0.3114(5) 0.3851(7)
H7 H 0.3713 -0.2614 0.4780
H8 H 0.3768 -0.3788 0.4328
C8 C 0.4029(2) -0.1717(4) 0.1962(7)
H9 H 0.4247 -0.1627 0.0998
H10 H 0.3650 -0.1560 0.1562
C9 C 0.3984(2) -0.3559(4) 0.1006(6)
H11 H 0.3949 -0.4257 0.1442
H12 H 0.3639 -0.3387 0.0350
O1 O 0.37690(16) -0.0722(3) 0.4798(5)
H13 H 0.3888 -0.0563 0.5779
O2 O 0.43059(16) 0.0219(3) 0.2707(5)
O3 O 0.47639(16) -0.1230(3) 0.4613(5)
O4 O 0.43821(16) -0.4596(3) -0.1492(5)
H14 H 0.4578 -0.5067 -0.1082
O5 O 0.50740(15) -0.3685(3) 0.0580(5)
O6 O 0.44334(16) -0.2662(3) -0.1648(5)
Cd1F Cd 0.5000 0.14199(5) 0.2500
O2F O 0.43059(16) -0.0219(3) 0.7707(5)
O2D O 0.56941(16) -0.0219(3) 0.7293(5)
Cd1D Cd 0.5000 0.14199(5) 1.2500
O2B O 0.56941(16) 0.0219(3) 1.2293(5)
P1B P 0.57374(6) -0.07922(11) 1.13721(18)
C8B C 0.5971(2) -0.1717(4) 1.3038(7)
N1B N 0.59376(19) -0.2835(4) 1.2488(6)
H1B H 0.5591 -0.2941 1.1985
C7B C 0.6333(2) -0.3114(5) 1.1149(7)
C6B C 0.6931(2) -0.3140(5) 1.1823(7)
C2B C 0.7250(3) -0.2257(5) 1.1912(8)
H3B H 0.7090 -0.1622 1.1599
C3B C 0.7808(3) -0.2305(6) 1.2467(9)
H4B H 0.8017 -0.1702 1.2529
C5B C 0.8048(3) -0.3220(7) 1.2915(9)
C1B C 0.7733(3) -0.4111(7) 1.2832(11)
H2B H 0.7897 -0.4743 1.3131
C4B C 0.7173(3) -0.4072(6) 1.2306(11)
H5B H 0.6963 -0.4673 1.2281
H6B H 0.8422 -0.3251 1.3275
H7B H 0.6287 -0.2614 1.0220
H8B H 0.6232 -0.3788 1.0672
C9B C 0.6016(2) -0.3559(4) 1.3994(6)
P2B P 0.54708(6) -0.35591(12) 1.54671(17)
H11B H 0.6051 -0.4257 1.3558
H12B H 0.6361 -0.3387 1.4650
H9B H 0.5753 -0.1627 1.4002
H10B H 0.6350 -0.1560 1.3438
O1B O 0.62310(16) -0.0722(3) 1.0202(5)
H13B H 0.6112 -0.0563 0.9221
O3B O 0.52361(16) -0.1230(3) 1.0387(5)
O6B O 0.55666(16) -0.2662(3) 0.6648(5)
O6_2 O 0.44334(16) -0.2662(3) 0.8352(5)
O4B O 0.56179(16) -0.4596(3) 1.6492(5)
O5B O 0.49260(15) -0.3685(3) 1.4420(5)
O6B_2 O 0.55666(16) -0.2662(3) 1.6648(5)
Cd1_2 Cd 0.5000 -0.14199(5) 1.7500
Cd1_3 Cd 0.5000 -0.14199(5) -0.2500
H14B H 0.5422 -0.5067 1.6082
loop_
_geom_bond_atom_site_label_1
_geom_bond_atom_site_label_2
_geom_bond_site_symmetry_1
_geom_bond_site_symmetry_2
Cd1 O3 1_555 1_555
P1 C8 1_555 1_555
P2 C9 1_555 1_555
N1 H1 1_555 1_555
C1 H2 1_555 1_555
C2 H3 1_555 1_555
C3 C2 1_555 1_555
H4 C3 1_555 1_555
C4 C1 1_555 1_555
H5 C4 1_555 1_555
C5 C1 1_555 1_555
H6 C5 1_555 1_555
C6 C2 1_555 1_555
C7 N1 1_555 1_555
H7 C7 1_555 1_555
H8 C7 1_555 1_555
C8 N1 1_555 1_555
H9 C8 1_555 1_555
H10 C8 1_555 1_555
C9 N1 1_555 1_555
H11 C9 1_555 1_555
H12 C9 1_555 1_555
O1 P1 1_555 1_555
H13 O1 1_555 1_555
O2 P1 1_555 1_555
O3 P1 1_555 1_555
O4 P2 1_555 1_555
H14 O4 1_555 1_555
O5 P2 1_555 1_555
O6 P2 1_555 1_555
Cd1F O2 1_555 1_555
O2F Cd1 1_555 1_555
O2D Cd1 1_555 1_555
Cd1D O2B 1_555 1_555
O2B P1B 1_555 1_555
P1B C8B 1_555 1_555
C8B N1B 1_555 1_555
N1B H1B 1_555 1_555
C7B N1B 1_555 1_555
C6B C7B 1_555 1_555
C2B C6B 1_555 1_555
H3B C2B 1_555 1_555
C3B C2B 1_555 1_555
H4B C3B 1_555 1_555
C5B C3B 1_555 1_555
C1B C5B 1_555 1_555
H2B C1B 1_555 1_555
C4B C6B 1_555 1_555
H5B C4B 1_555 1_555
H6B C5B 1_555 1_555
H7B C7B 1_555 1_555
H8B C7B 1_555 1_555
C9B N1B 1_555 1_555
P2B C9B 1_555 1_555
H11B C9B 1_555 1_555
H12B C9B 1_555 1_555
H9B C8B 1_555 1_555
H10B C8B 1_555 1_555
O1B P1B 1_555 1_555
H13B O1B 1_555 1_555
O3B Cd1 1_555 1_555
O6B Cd1 1_555 1_555
O6_2 Cd1 1_555 1_555
O4B P2B 1_555 1_555
O5B P2B 1_555 1_555
O6B_2 P2B 1_555 1_555
Cd1_2 O6B_2 1_555 1_555
Cd1_3 O6 1_555 1_555
H14B O4B 1_555 1_555
C3 C5 1_555 1_555
C4 C6 1_555 1_555
C6 C7 1_555 1_555
P1B O3B 1_555 1_555
C1B C4B 1_555 1_555

#END
