
#######################################################################
#
#                 Cambridge Crystallographic Data Centre
#                                CCDC 
#
#######################################################################
#
# If this CIF has been generated from an entry in the Cambridge 
# Structural Database, then it will include bibliographic, chemical, 
# crystal, experimental, refinement or atomic coordinate data resulting 
# from the CCDC's data processing and validation procedures.
#
#######################################################################

data_UNASEH
_symmetry_cell_setting           monoclinic
_symmetry_space_group_name_H-M   'P 21/c'
_symmetry_Int_Tables_number      14
_space_group_name_Hall           '-P 2ybc'
loop_
_symmetry_equiv_pos_site_id
_symmetry_equiv_pos_as_xyz
1 x,y,z
2 -x,1/2+y,1/2-z
3 -x,-y,-z
4 x,1/2-y,1/2+z
_cell_length_a                   16.3010(19)
_cell_length_b                   8.7567(10)
_cell_length_c                   10.3038(12)
_cell_angle_alpha                90
_cell_angle_beta                 94.037(2)
_cell_angle_gamma                90
_cell_volume                     1467.15
loop_
_atom_site_label
_atom_site_type_symbol
_atom_site_fract_x
_atom_site_fract_y
_atom_site_fract_z
Cd1 Cd 0.0000 0.0000 0.5000
P1 P 0.06920(11) -0.27200(19) 0.27000(17)
P2 P 0.17689(11) 0.3174(2) 0.11138(18)
N1 N 0.1348(3) 0.0177(6) 0.1967(5)
H1 H 0.1055 0.0626 0.2583
C1 C 0.5062(6) -0.1491(17) 0.3927(12)
H2 H 0.5562 -0.1599 0.4411
C2 C 0.4976(6) -0.0405(15) 0.2992(11)
H3 H 0.5416 0.0226 0.2828
C3 C 0.4234(5) -0.0246(11) 0.2289(9)
H4 H 0.4173 0.0512 0.1658
C4 C 0.3575(5) -0.1192(9) 0.2501(8)
C5 C 0.3688(6) -0.2283(12) 0.3448(10)
H5 H 0.3257 -0.2937 0.3606
C6 C 0.4419(7) -0.2433(15) 0.4164(11)
H6 H 0.4481 -0.3171 0.4812
C7 C 0.2755(4) -0.0998(9) 0.1746(7)
H7 H 0.2528 -0.1989 0.1501
H8 H 0.2822 -0.0416 0.0960
C8 C 0.2176(4) -0.0159(8) 0.2606(6)
H9 H 0.2109 -0.0771 0.3376
H10 H 0.2432 0.0796 0.2888
C9 C 0.0875(4) -0.1228(7) 0.1529(6)
H11 H 0.1161 -0.1691 0.0834
H12 H 0.0343 -0.0895 0.1150
C10 C 0.1330(4) 0.1281(7) 0.0830(6)
H13 H 0.0761 0.1408 0.0505
H14 H 0.1616 0.0804 0.0142
O1 O 0.0418(3) -0.2020(5) 0.3921(4)
O2 O 0.0089(3) -0.3752(5) 0.1965(4)
O3 O 0.1537(3) -0.3540(5) 0.3026(5)
H15 H 0.1500 -0.4438 0.2805
O4 O 0.1343(3) 0.4164(5) 0.0103(5)
O5 O 0.1720(3) 0.3622(5) 0.2510(5)
O6 O 0.2725(3) 0.3023(6) 0.0942(5)
H16 H 0.2795 0.2564 0.0266
O4C O 0.1343(3) 0.0836(5) 0.5103(5)
Cd1C Cd 0.0000 0.5000 0.0000
Cd1A Cd 0.0000 -0.5000 0.0000
O4A O -0.1343(3) -0.0836(5) 0.4897(5)
O1B O -0.0418(3) 0.2020(5) 0.6079(4)
O2A O -0.0089(3) 0.1248(5) 0.3035(4)
O2C O 0.0089(3) -0.1248(5) 0.6965(4)
P1B P -0.06920(11) 0.27200(19) 0.73000(17)
Cd1C_2 Cd 0.0000 -0.5000 1.0000
C9B C -0.0875(4) 0.1228(7) 0.8471(6)
O2B O -0.0089(3) 0.3752(5) 0.8035(4)
O3B O -0.1537(3) 0.3540(5) 0.6974(5)
N1B N -0.1348(3) -0.0177(6) 0.8033(5)
H11B H -0.1161 0.1691 0.9166
H12B H -0.0343 0.0895 0.8850
Cd1C_3 Cd 0.0000 0.5000 1.0000
H15B H -0.1500 0.4438 0.7195
H1B H -0.1055 -0.0626 0.7417
C8B C -0.2176(4) 0.0159(8) 0.7394(6)
C10B C -0.1330(4) -0.1281(7) 0.9170(6)
C7B C -0.2755(4) 0.0998(9) 0.8254(7)
H9B H -0.2109 0.0771 0.6624
H10B H -0.2432 -0.0796 0.7112
P2B P -0.17689(11) -0.3174(2) 0.88862(18)
H13B H -0.0761 -0.1408 0.9495
H14B H -0.1616 -0.0804 0.9858
C4B C -0.3575(5) 0.1192(9) 0.7499(8)
H7B H -0.2528 0.1989 0.8499
H8B H -0.2822 0.0416 0.9040
O4B O -0.1343(3) -0.4164(5) 0.9897(5)
O5B O -0.1720(3) -0.3622(5) 0.7490(5)
O6B O -0.2725(3) -0.3023(6) 0.9058(5)
C3B C -0.4234(5) 0.0246(11) 0.7711(9)
C5B C -0.3688(6) 0.2283(12) 0.6552(10)
H16B H -0.2795 -0.2564 0.9734
C2B C -0.4976(6) 0.0405(15) 0.7008(11)
H4B H -0.4173 -0.0512 0.8342
H5B H -0.3257 0.2937 0.6394
C6B C -0.4419(7) 0.2433(15) 0.5836(11)
C1B C -0.5062(6) 0.1491(17) 0.6073(12)
H3B H -0.5416 -0.0226 0.7172
H6B H -0.4481 0.3171 0.5188
H2B H -0.5562 0.1599 0.5589
O7 O 0.3252(4) 0.1602(8) -0.1129(6)
loop_
_geom_bond_atom_site_label_1
_geom_bond_atom_site_label_2
_geom_bond_site_symmetry_1
_geom_bond_site_symmetry_2
Cd1 O1 1_555 1_555
P1 C9 1_555 1_555
P2 C10 1_555 1_555
N1 H1 1_555 1_555
C1 H2 1_555 1_555
C2 C1 1_555 1_555
H3 C2 1_555 1_555
C3 C2 1_555 1_555
H4 C3 1_555 1_555
C4 C3 1_555 1_555
C5 C4 1_555 1_555
H5 C5 1_555 1_555
C6 C1 1_555 1_555
H6 C6 1_555 1_555
C7 C4 1_555 1_555
H7 C7 1_555 1_555
H8 C7 1_555 1_555
C8 N1 1_555 1_555
H9 C8 1_555 1_555
H10 C8 1_555 1_555
C9 N1 1_555 1_555
H11 C9 1_555 1_555
H12 C9 1_555 1_555
C10 N1 1_555 1_555
H13 C10 1_555 1_555
H14 C10 1_555 1_555
O1 P1 1_555 1_555
O2 P1 1_555 1_555
O3 P1 1_555 1_555
H15 O3 1_555 1_555
O4 P2 1_555 1_555
O5 P2 1_555 1_555
O6 P2 1_555 1_555
H16 O6 1_555 1_555
O4C Cd1 1_555 1_555
Cd1C O4 1_555 1_555
Cd1A O2 1_555 1_555
O4A Cd1 1_555 1_555
O1B Cd1 1_555 1_555
O2A Cd1 1_555 1_555
O2C Cd1 1_555 1_555
P1B O1B 1_555 1_555
Cd1C_2 O4B 1_555 1_555
C9B P1B 1_555 1_555
O2B P1B 1_555 1_555
O3B P1B 1_555 1_555
N1B C9B 1_555 1_555
H11B C9B 1_555 1_555
H12B C9B 1_555 1_555
Cd1C_3 O2B 1_555 1_555
H15B O3B 1_555 1_555
H1B N1B 1_555 1_555
C8B N1B 1_555 1_555
C10B N1B 1_555 1_555
C7B C8B 1_555 1_555
H9B C8B 1_555 1_555
H10B C8B 1_555 1_555
P2B C10B 1_555 1_555
H13B C10B 1_555 1_555
H14B C10B 1_555 1_555
C4B C7B 1_555 1_555
H7B C7B 1_555 1_555
H8B C7B 1_555 1_555
O4B P2B 1_555 1_555
O5B P2B 1_555 1_555
O6B P2B 1_555 1_555
C3B C4B 1_555 1_555
C5B C4B 1_555 1_555
H16B O6B 1_555 1_555
C2B C3B 1_555 1_555
H4B C3B 1_555 1_555
H5B C5B 1_555 1_555
C6B C5B 1_555 1_555
C1B C2B 1_555 1_555
H3B C2B 1_555 1_555
H6B C6B 1_555 1_555
H2B C1B 1_555 1_555
C5 C6 1_555 1_555
C7 C8 1_555 1_555
C6B C1B 1_555 1_555

#END
