
#######################################################################
#
#                 Cambridge Crystallographic Data Centre
#                                CCDC 
#
#######################################################################
#
# If this CIF has been generated from an entry in the Cambridge 
# Structural Database, then it will include bibliographic, chemical, 
# crystal, experimental, refinement or atomic coordinate data resulting 
# from the CCDC's data processing and validation procedures.
#
#######################################################################

data_UNAXOX
_symmetry_cell_setting           monoclinic
_symmetry_space_group_name_H-M   'P 21/n'
_symmetry_Int_Tables_number      14
_space_group_name_Hall           '-P 2yn'
loop_
_symmetry_equiv_pos_site_id
_symmetry_equiv_pos_as_xyz
1 x,y,z
2 1/2-x,1/2+y,1/2-z
3 -x,-y,-z
4 1/2+x,1/2-y,1/2+z
_cell_length_a                   10.997(6)
_cell_length_b                   14.578(8)
_cell_length_c                   12.963(7)
_cell_angle_alpha                90
_cell_angle_beta                 105.993(6)
_cell_angle_gamma                90
_cell_volume                     1997.72
loop_
_atom_site_label
_atom_site_type_symbol
_atom_site_fract_x
_atom_site_fract_y
_atom_site_fract_z
Zn1 Zn 0.85140(3) 0.12501(2) 0.53287(2)
Br1 Br 1.28123(3) 0.17303(3) 0.64279(3)
O1 O 0.88176(19) -0.00095(14) 0.59615(16)
H1 H 0.9235 0.0001 0.6602
H2 H 0.9123 -0.0379 0.5615
O2 O 1.00498(19) 0.14135(14) 0.48486(17)
O3 O 0.9521(2) 0.28564(18) 0.4400(2)
O4 O 1.1650(2) 0.34861(19) 0.13430(18)
O5 O 1.3604(2) 0.29886(15) 0.15691(16)
N1 N 0.7074(2) 0.10239(18) 0.40049(18)
N2 N 0.0316(3) 0.0004(2) -0.2003(2)
C1 C 1.0271(3) 0.2220(2) 0.4538(2)
C2 C 1.1527(3) 0.2319(2) 0.4281(2)
C3 C 1.1531(3) 0.2650(2) 0.3280(2)
H3 H 1.0778 0.2859 0.2818
C4 C 1.2627(3) 0.2677(2) 0.2948(2)
C5 C 1.3755(3) 0.2364(2) 0.3649(2)
H4 H 1.4490 0.2352 0.3427
C6 C 1.3786(3) 0.2072(2) 0.4669(2)
H5 H 1.4544 0.1886 0.5144
C7 C 1.2685(3) 0.2060(2) 0.4977(2)
C8 C 1.2602(3) 0.3078(2) 0.1871(2)
C9 C 0.7127(3) 0.1300(3) 0.3041(3)
H6 H 0.7802 0.1665 0.2990
C10 C 0.6217(4) 0.1065(3) 0.2114(3)
H7 H 0.6290 0.1273 0.1456
C11 C 0.5204(3) 0.0528(2) 0.2151(2)
C12 C 0.5143(3) 0.0252(2) 0.3154(3)
H8 H 0.4469 -0.0104 0.3225
C13 C 0.6088(3) 0.0508(2) 0.4054(2)
H9 H 0.6034 0.0312 0.4723
C14 C 0.4229(3) 0.0247(3) 0.1125(3)
H10 H 0.4421 0.0549 0.0522
H11 H 0.4287 -0.0410 0.1027
C15 C 0.2899(3) 0.0482(3) 0.1125(3)
H12 H 0.2857 0.1123 0.1314
H13 H 0.2657 0.0115 0.1661
C16 C 0.1981(3) 0.0306(3) 0.0029(3)
C17 C 0.1363(4) -0.0513(3) -0.0236(3)
H14 H 0.1494 -0.0987 0.0262
C18 C 0.0546(3) -0.0630(3) -0.1243(3)
H15 H 0.0130 -0.1189 -0.1399
C19 C 0.0945(4) 0.0787(3) -0.1753(3)
H16 H 0.0819 0.1238 -0.2279
C20 C 0.1772(4) 0.0974(3) -0.0769(3)
H17 H 0.2184 0.1537 -0.0638
Zn1C Zn 1.35140(3) 0.37499(2) 0.03287(2)
O5C O 0.8604(2) 0.20114(15) 0.65691(16)
loop_
_geom_bond_atom_site_label_1
_geom_bond_atom_site_label_2
_geom_bond_site_symmetry_1
_geom_bond_site_symmetry_2
Zn1 O1 1_555 1_555
Br1 C7 1_555 1_555
O1 H1 1_555 1_555
H2 O1 1_555 1_555
O2 Zn1 1_555 1_555
O3 C1 1_555 1_555
O4 C8 1_555 1_555
O5 C8 1_555 1_555
N1 Zn1 1_555 1_555
N2 C18 1_555 1_555
C1 O2 1_555 1_555
C2 C1 1_555 1_555
C3 C2 1_555 1_555
H3 C3 1_555 1_555
C4 C3 1_555 1_555
C5 C4 1_555 1_555
H4 C5 1_555 1_555
C6 C5 1_555 1_555
H5 C6 1_555 1_555
C7 C2 1_555 1_555
C8 C4 1_555 1_555
C9 N1 1_555 1_555
H6 C9 1_555 1_555
C10 C9 1_555 1_555
H7 C10 1_555 1_555
C11 C10 1_555 1_555
C12 C11 1_555 1_555
H8 C12 1_555 1_555
C13 N1 1_555 1_555
H9 C13 1_555 1_555
C14 C11 1_555 1_555
H10 C14 1_555 1_555
H11 C14 1_555 1_555
C15 C14 1_555 1_555
H12 C15 1_555 1_555
H13 C15 1_555 1_555
C16 C15 1_555 1_555
C17 C16 1_555 1_555
H14 C17 1_555 1_555
C18 C17 1_555 1_555
H15 C18 1_555 1_555
C19 N2 1_555 1_555
H16 C19 1_555 1_555
C20 C16 1_555 1_555
H17 C20 1_555 1_555
Zn1C O5 1_555 1_555
O5C Zn1 1_555 1_555
C6 C7 1_555 1_555
C12 C13 1_555 1_555
C19 C20 1_555 1_555

#END
