
#######################################################################
#
#                 Cambridge Crystallographic Data Centre
#                                CCDC 
#
#######################################################################
#
# If this CIF has been generated from an entry in the Cambridge 
# Structural Database, then it will include bibliographic, chemical, 
# crystal, experimental, refinement or atomic coordinate data resulting 
# from the CCDC's data processing and validation procedures.
#
#######################################################################

data_UNAXEN
_symmetry_cell_setting           orthorhombic
_symmetry_space_group_name_H-M   'P n n a'
_symmetry_Int_Tables_number      52
_space_group_name_Hall           '-P 2a 2bc'
loop_
_symmetry_equiv_pos_site_id
_symmetry_equiv_pos_as_xyz
1 x,y,z
2 1/2-x,-y,z
3 1/2-x,1/2+y,1/2-z
4 x,1/2-y,1/2-z
5 -x,-y,-z
6 1/2+x,y,-z
7 1/2+x,1/2-y,1/2+z
8 -x,1/2+y,1/2+z
_cell_length_a                   7.9942(11)
_cell_length_b                   17.413(3)
_cell_length_c                   14.575(2)
_cell_angle_alpha                90
_cell_angle_beta                 90
_cell_angle_gamma                90
_cell_volume                     2028.88
loop_
_atom_site_label
_atom_site_type_symbol
_atom_site_fract_x
_atom_site_fract_y
_atom_site_fract_z
Zn1 Zn 0.93574(7) 0.2500 0.2500
Br1 Br 1.2500 0.5000 -0.11820(3)
O1 O 1.0372(3) 0.31955(13) 0.16068(16)
O2 O 1.1174(4) 0.37229(17) 0.29037(17)
N1 N 0.7697(3) 0.30510(14) 0.33623(17)
C1 C 1.1096(5) 0.3719(2) 0.2061(2)
C2 C 1.1845(4) 0.43734(19) 0.1526(2)
C3 C 1.2500 0.5000 0.1982(3)
H1 H 1.2500 0.5000 0.2620
C4 C 1.1846(4) 0.43773(19) 0.0574(2)
H2 H 1.1409 0.3964 0.0248
C5 C 1.2500 0.5000 0.0117(3)
C6 C 0.6792(5) 0.3628(2) 0.3022(2)
H3 H 0.6705 0.3673 0.2388
C7 C 0.5982(5) 0.4160(2) 0.3558(2)
H4 H 0.5382 0.4557 0.3287
C8 C 0.6064(4) 0.41009(17) 0.4502(2)
C9 C 0.6925(4) 0.34756(16) 0.4849(2)
H5 H 0.6958 0.3393 0.5479
C10 C 0.7728(4) 0.29780(17) 0.4270(2)
H6 H 0.8322 0.2571 0.4523
C11 C 0.5327(4) 0.46668(16) 0.5130(2)
H7 H 0.5317 0.4550 0.5753
Zn1A Zn 1.56426(7) 0.7500 0.2500
Zn1D Zn 0.06426(7) 0.7500 0.7500
O1A O 1.4628(3) 0.68045(13) 0.16068(16)
O1C O 1.0372(3) 0.18045(13) 0.33932(16)
O2A O 1.3826(4) 0.62771(17) 0.29037(17)
N1D N 0.2303(3) 0.69490(14) 0.66377(17)
N1C N 0.7697(3) 0.19490(14) 0.16377(17)
C1A C 1.3904(5) 0.6281(2) 0.2061(2)
C2A C 1.3155(4) 0.56266(19) 0.1526(2)
C4A C 1.3154(4) 0.56227(19) 0.0574(2)
H2A H 1.3591 0.6036 0.0248
C6D C 0.3208(5) 0.6372(2) 0.6978(2)
H3D H 0.3295 0.6327 0.7612
C7D C 0.4018(5) 0.5840(2) 0.6442(2)
H4D H 0.4618 0.5443 0.6713
C8D C 0.3936(4) 0.58991(17) 0.5498(2)
C9D C 0.3075(4) 0.65244(16) 0.5151(2)
H5D H 0.3042 0.6607 0.4521
C10D C 0.2272(4) 0.70220(17) 0.5730(2)
H6D H 0.1678 0.7429 0.5477
C11D C 0.4673(4) 0.53332(16) 0.4870(2)
H7D H 0.4683 0.5450 0.4247
loop_
_geom_bond_atom_site_label_1
_geom_bond_atom_site_label_2
_geom_bond_site_symmetry_1
_geom_bond_site_symmetry_2
Zn1 O1 1_555 1_555
Br1 C5 1_555 1_555
O1 C1 1_555 1_555
O2 C1 1_555 1_555
N1 Zn1 1_555 1_555
C1 C2 1_555 1_555
C2 C3 1_555 1_555
C3 H1 1_555 1_555
C4 C2 1_555 1_555
H2 C4 1_555 1_555
C5 C4 1_555 1_555
C6 N1 1_555 1_555
H3 C6 1_555 1_555
C7 C6 1_555 1_555
H4 C7 1_555 1_555
C8 C7 1_555 1_555
C9 C8 1_555 1_555
H5 C9 1_555 1_555
C10 N1 1_555 1_555
H6 C10 1_555 1_555
C11 C8 1_555 1_555
H7 C11 1_555 1_555
Zn1A O1A 1_555 1_555
Zn1D N1D 1_555 1_555
O1A C1A 1_555 1_555
O1C Zn1 1_555 1_555
O2A C1A 1_555 1_555
N1D C6D 1_555 1_555
N1C Zn1 1_555 1_555
C1A C2A 1_555 1_555
C2A C3 1_555 1_555
C4A C5 1_555 1_555
H2A C4A 1_555 1_555
C6D H3D 1_555 1_555
C7D C6D 1_555 1_555
H4D C7D 1_555 1_555
C8D C7D 1_555 1_555
C9D C8D 1_555 1_555
H5D C9D 1_555 1_555
C10D N1D 1_555 1_555
H6D C10D 1_555 1_555
C11D C11 1_555 1_555
H7D C11D 1_555 1_555
C9 C10 1_555 1_555
C2A C4A 1_555 1_555
C8D C11D 1_555 1_555
C9D C10D 1_555 1_555

#END
