
#######################################################################
#
#                 Cambridge Crystallographic Data Centre
#                                CCDC 
#
#######################################################################
#
# If this CIF has been generated from an entry in the Cambridge 
# Structural Database, then it will include bibliographic, chemical, 
# crystal, experimental, refinement or atomic coordinate data resulting 
# from the CCDC's data processing and validation procedures.
#
#######################################################################

data_UNAXIR
_symmetry_cell_setting           monoclinic
_symmetry_space_group_name_H-M   'P 21/c'
_symmetry_Int_Tables_number      14
_space_group_name_Hall           '-P 2ybc'
loop_
_symmetry_equiv_pos_site_id
_symmetry_equiv_pos_as_xyz
1 x,y,z
2 -x,1/2+y,1/2-z
3 -x,-y,-z
4 x,1/2-y,1/2+z
_cell_length_a                   10.0154(16)
_cell_length_b                   14.546(2)
_cell_length_c                   9.2314(15)
_cell_angle_alpha                90
_cell_angle_beta                 97.496(2)
_cell_angle_gamma                90
_cell_volume                     1333.37
loop_
_atom_site_label
_atom_site_type_symbol
_atom_site_fract_x
_atom_site_fract_y
_atom_site_fract_z
Zn1 Zn 0.90508(5) 0.23456(3) 1.01698(5)
Br1 Br 0.66862(7) -0.29871(4) 0.64389(7)
O1 O 0.8852(4) 0.1149(2) 0.9267(4)
O2 O 0.6934(5) 0.1077(3) 1.0211(6)
O3 O 0.9377(3) -0.2007(2) 0.5490(3)
O4 O 1.0513(3) -0.2179(2) 0.7675(3)
N1 N 0.7613(4) 0.3336(2) 1.0111(4)
C1 C 0.7749(5) 0.0749(3) 0.9475(5)
C2 C 0.7527(5) -0.0164(3) 0.8755(5)
C3 C 0.8568(4) -0.0634(3) 0.8202(5)
H3 H 0.9428 -0.0381 0.8312
C4 C 0.8340(4) -0.1472(3) 0.7490(4)
C5 C 0.7039(5) -0.1836(3) 0.7352(5)
C6 C 0.6000(5) -0.1387(3) 0.7907(5)
H4 H 0.5146 -0.1648 0.7814
C7 C 0.6234(5) -0.0551(3) 0.8599(5)
H5 H 0.5534 -0.0244 0.8962
C8 C 0.9469(4) -0.1926(3) 0.6855(5)
C9 C 0.6532(6) 0.3204(4) 1.0773(7)
H6 H 0.6462 0.2656 1.1276
C10 C 0.5502(6) 0.3838(4) 1.0754(7)
H7 H 0.4765 0.3707 1.1235
C11 C 0.5557(4) 0.4654(3) 1.0034(5)
C12 C 0.6702(6) 0.4813(4) 0.9410(8)
H8 H 0.6820 0.5375 0.8962
C13 C 0.7685(5) 0.4141(4) 0.9445(8)
H9 H 0.8434 0.4260 0.8977
Zn1B Zn 0.09492(5) 0.76544(3) 0.98302(5)
Zn1_2 Zn -0.09492(5) 1.23456(3) 1.01698(5)
Zn1A Zn 1.09492(5) -0.26544(3) 0.48302(5)
Zn1B_2 Zn 1.09492(5) -0.23456(3) 0.98302(5)
Zn1C Zn -0.09492(5) 1.26544(3) 1.51698(5)
Br1B Br 0.33138(7) 1.29871(4) 1.35611(7)
O1B O 0.1148(4) 0.8851(2) 1.0733(4)
O2B O 0.3066(5) 0.8923(3) 0.9789(6)
O3B O 0.0623(3) 1.2007(2) 1.4510(3)
O3A O 1.0623(3) 0.2993(2) 0.9510(3)
O3C O -0.0623(3) 0.7007(2) 1.0490(3)
O4B O -0.0513(3) 1.2179(2) 1.2325(3)
O4_2 O 0.0513(3) 0.7821(2) 0.7675(3)
O4B_2 O 0.9487(3) 0.2179(2) 1.2325(3)
N1B N 0.2387(4) 0.6664(2) 0.9889(4)
C1B C 0.2251(5) 0.9251(3) 1.0525(5)
C2B C 0.2473(5) 1.0164(3) 1.1245(5)
C3B C 0.1432(4) 1.0634(3) 1.1798(5)
H3B H 0.0572 1.0381 1.1688
C4B C 0.1660(4) 1.1472(3) 1.2510(4)
C5B C 0.2961(5) 1.1836(3) 1.2648(5)
C6B C 0.4000(5) 1.1387(3) 1.2093(5)
H4B H 0.4854 1.1648 1.2186
C7B C 0.3766(5) 1.0551(3) 1.1401(5)
H5B H 0.4466 1.0244 1.1038
C8B C 0.0531(4) 1.1926(3) 1.3145(5)
C9B C 0.3468(6) 0.6796(4) 0.9227(7)
H6B H 0.3538 0.7344 0.8724
C10B C 0.4498(6) 0.6162(4) 0.9246(7)
H7B H 0.5235 0.6293 0.8765
C11B C 0.4443(4) 0.5346(3) 0.9966(5)
C12B C 0.3298(6) 0.5187(4) 1.0590(8)
H8B H 0.3180 0.4625 1.1038
C13B C 0.2315(5) 0.5859(4) 1.0555(8)
H9B H 0.1566 0.5740 1.1023
O5 O 0.9384(18) 0.9353(14) 0.308(2)
H1 H 0.8880 0.9330 0.2288
H2 H 1.0156 0.9178 0.2977
loop_
_geom_bond_atom_site_label_1
_geom_bond_atom_site_label_2
_geom_bond_site_symmetry_1
_geom_bond_site_symmetry_2
Zn1 O1 1_555 1_555
Br1 C5 1_555 1_555
O1 C1 1_555 1_555
O2 C1 1_555 1_555
O3 C8 1_555 1_555
O4 C8 1_555 1_555
O5 H1 1_555 1_555
H2 O5 1_555 1_555
N1 Zn1 1_555 1_555
C1 C2 1_555 1_555
C2 C3 1_555 1_555
C3 H3 1_555 1_555
C4 C3 1_555 1_555
C5 C4 1_555 1_555
C6 C5 1_555 1_555
H4 C6 1_555 1_555
C7 C2 1_555 1_555
H5 C7 1_555 1_555
C8 C4 1_555 1_555
C9 N1 1_555 1_555
H6 C9 1_555 1_555
C10 C9 1_555 1_555
H7 C10 1_555 1_555
C11 C10 1_555 1_555
C12 C11 1_555 1_555
H8 C12 1_555 1_555
C13 N1 1_555 1_555
H9 C13 1_555 1_555
Zn1B O1B 1_555 1_555
Zn1_2 O4B 1_555 1_555
Zn1A O3 1_555 1_555
Zn1B_2 O4 1_555 1_555
Zn1C O3B 1_555 1_555
Br1B C5B 1_555 1_555
O1B C1B 1_555 1_555
O2B C1B 1_555 1_555
O3B C8B 1_555 1_555
O3A Zn1 1_555 1_555
O3C Zn1B 1_555 1_555
O4B C8B 1_555 1_555
O4_2 Zn1B 1_555 1_555
O4B_2 Zn1 1_555 1_555
N1B Zn1B 1_555 1_555
C1B C2B 1_555 1_555
C2B C3B 1_555 1_555
C3B H3B 1_555 1_555
C4B C3B 1_555 1_555
C5B C4B 1_555 1_555
C6B C5B 1_555 1_555
H4B C6B 1_555 1_555
C7B C2B 1_555 1_555
H5B C7B 1_555 1_555
C8B C4B 1_555 1_555
C9B N1B 1_555 1_555
H6B C9B 1_555 1_555
C10B C9B 1_555 1_555
H7B C10B 1_555 1_555
C11B C11 1_555 1_555
C12B C11B 1_555 1_555
H8B C12B 1_555 1_555
C13B N1B 1_555 1_555
H9B C13B 1_555 1_555
C6 C7 1_555 1_555
C12 C13 1_555 1_555
C6B C7B 1_555 1_555
C10B C11B 1_555 1_555
C12B C13B 1_555 1_555

#END
