
#######################################################################
#
#                 Cambridge Crystallographic Data Centre
#                                CCDC 
#
#######################################################################
#
# If this CIF has been generated from an entry in the Cambridge 
# Structural Database, then it will include bibliographic, chemical, 
# crystal, experimental, refinement or atomic coordinate data resulting 
# from the CCDC's data processing and validation procedures.
#
#######################################################################

data_UNAXAJ
_symmetry_cell_setting           monoclinic
_symmetry_space_group_name_H-M   'C 2/c'
_symmetry_Int_Tables_number      15
_space_group_name_Hall           '-C 2yn'
loop_
_symmetry_equiv_pos_site_id
_symmetry_equiv_pos_as_xyz
1 x,y,z
2 -x,y,1/2-z
3 1/2+x,1/2+y,z
4 1/2-x,1/2+y,1/2-z
5 -x,-y,-z
6 x,-y,1/2+z
7 1/2-x,1/2-y,-z
8 1/2+x,1/2-y,1/2+z
_cell_length_a                   14.3379(15)
_cell_length_b                   18.9193(19)
_cell_length_c                   16.5885(17)
_cell_angle_alpha                90
_cell_angle_beta                 100.7390(10)
_cell_angle_gamma                90
_cell_volume                     4421.04
loop_
_atom_site_label
_atom_site_type_symbol
_atom_site_fract_x
_atom_site_fract_y
_atom_site_fract_z
Cd1 Cd 0.37316(2) 0.083498(16) 1.039848(18)
Br1 Br 0.36487(7) 0.34069(3) 0.65556(5)
O1 O 0.3834(2) 0.19092(18) 0.94038(19)
O2 O 0.3925(2) 0.07829(17) 0.90896(17)
O3 O 0.3659(3) 0.00222(18) 0.6297(2)
O4 O 0.3487(2) 0.0761(2) 0.52526(19)
O5 O 0.5368(2) 0.06377(16) 1.08408(17)
H1 H 0.5710 0.0709 1.0492
H2 H 0.5382 0.0211 1.0966
N1 N 0.2066(2) 0.07844(18) 0.9914(2)
N2 N -0.1356(2) 0.33407(18) 0.6388(2)
C1 C 0.3820(3) 0.1614(2) 0.8008(2)
C2 C 0.3776(3) 0.1085(2) 0.7435(2)
H3 H 0.3816 0.0617 0.7612
C3 C 0.3674(3) 0.1223(2) 0.6602(2)
C4 C 0.3647(3) 0.1919(2) 0.6343(3)
H4 H 0.3593 0.2026 0.5789
C5 C 0.3700(3) 0.2452(2) 0.6918(3)
C6 C 0.3784(3) 0.2310(2) 0.7749(3)
H5 H 0.3817 0.2677 0.8126
C7 C 0.3879(3) 0.1436(3) 0.8904(3)
C8 C 0.3606(3) 0.0625(3) 0.5996(3)
C9 C 0.1442(3) 0.1173(2) 1.0216(3)
H6 H 0.1668 0.1493 1.0631
C10 C 0.0478(4) 0.1126(3) 0.9944(3)
H7 H 0.0071 0.1406 1.0183
C11 C 0.0111(3) 0.0666(3) 0.9321(3)
C12 C 0.0768(3) 0.0264(2) 0.9010(3)
H8 H 0.0561 -0.0056 0.8589
C13 C 0.1724(3) 0.0330(2) 0.9316(3)
H9 H 0.2148 0.0049 0.9098
C14 C -0.0931(3) 0.0614(3) 0.8961(3)
H10 H -0.1299 0.0769 0.9363
H11 H -0.1094 0.0125 0.8824
C15 C -0.1180(3) 0.1075(2) 0.8180(3)
H12 H -0.0740 0.0971 0.7817
H13 H -0.1814 0.0956 0.7893
C16 C -0.1139(3) 0.1853(2) 0.8374(3)
H14 H -0.0535 0.1950 0.8728
H15 H -0.1632 0.1957 0.8684
C17 C -0.1235(3) 0.3539(2) 0.7170(3)
H16 H -0.1184 0.4020 0.7290
C18 C -0.1181(3) 0.3071(2) 0.7809(3)
H17 H -0.1098 0.3237 0.8345
C19 C -0.1251(3) 0.2354(2) 0.7657(3)
C20 C -0.1395(3) 0.2151(2) 0.6850(3)
H18 H -0.1462 0.1675 0.6714
C21 C -0.1440(3) 0.2652(2) 0.6238(3)
H19 H -0.1533 0.2500 0.5695
Cd1E Cd 0.37316(2) -0.083498(16) 0.539848(18)
Cd1G Cd -0.12684(2) 0.416502(16) 0.539848(18)
O3E O 0.3659(3) -0.00222(18) 1.1297(2)
N2G N 0.3644(2) 0.16593(18) 1.1388(2)
loop_
_geom_bond_atom_site_label_1
_geom_bond_atom_site_label_2
_geom_bond_site_symmetry_1
_geom_bond_site_symmetry_2
Cd1 O1 1_555 1_555
Br1 C5 1_555 1_555
O1 C7 1_555 1_555
O2 Cd1 1_555 1_555
O3 C8 1_555 1_555
O4 C8 1_555 1_555
O5 Cd1 1_555 1_555
H1 O5 1_555 1_555
H2 O5 1_555 1_555
N1 Cd1 1_555 1_555
N2 C17 1_555 1_555
C1 C2 1_555 1_555
C2 H3 1_555 1_555
C3 C2 1_555 1_555
C4 C3 1_555 1_555
H4 C4 1_555 1_555
C5 C4 1_555 1_555
C6 C1 1_555 1_555
H5 C6 1_555 1_555
C7 O2 1_555 1_555
C8 C3 1_555 1_555
C9 N1 1_555 1_555
H6 C9 1_555 1_555
C10 C9 1_555 1_555
H7 C10 1_555 1_555
C11 C10 1_555 1_555
C12 C11 1_555 1_555
H8 C12 1_555 1_555
C13 N1 1_555 1_555
H9 C13 1_555 1_555
C14 C11 1_555 1_555
H10 C14 1_555 1_555
H11 C14 1_555 1_555
C15 C14 1_555 1_555
H12 C15 1_555 1_555
H13 C15 1_555 1_555
C16 C15 1_555 1_555
H14 C16 1_555 1_555
H15 C16 1_555 1_555
C17 H16 1_555 1_555
C18 C17 1_555 1_555
H17 C18 1_555 1_555
C19 C16 1_555 1_555
C20 C19 1_555 1_555
H18 C20 1_555 1_555
C21 N2 1_555 1_555
H19 C21 1_555 1_555
Cd1E O3 1_555 1_555
Cd1G N2 1_555 1_555
O3E Cd1 1_555 1_555
N2G Cd1 1_555 1_555
C1 C7 1_555 1_555
C5 C6 1_555 1_555
C12 C13 1_555 1_555
C18 C19 1_555 1_555
C20 C21 1_555 1_555

#END
