
#######################################################################
#
#                 Cambridge Crystallographic Data Centre
#                                CCDC 
#
#######################################################################
#
# If this CIF has been generated from an entry in the Cambridge 
# Structural Database, then it will include bibliographic, chemical, 
# crystal, experimental, refinement or atomic coordinate data resulting 
# from the CCDC's data processing and validation procedures.
#
#######################################################################

data_UNENOR
_symmetry_cell_setting           monoclinic
_symmetry_space_group_name_H-M   'C 2/c'
_symmetry_Int_Tables_number      15
_space_group_name_Hall           '-C 2yn'
loop_
_symmetry_equiv_pos_site_id
_symmetry_equiv_pos_as_xyz
1 x,y,z
2 -x,y,1/2-z
3 1/2+x,1/2+y,z
4 1/2-x,1/2+y,1/2-z
5 -x,-y,-z
6 x,-y,1/2+z
7 1/2-x,1/2-y,-z
8 1/2+x,1/2-y,1/2+z
_cell_length_a                   19.290(11)
_cell_length_b                   12.027(7)
_cell_length_c                   14.865(8)
_cell_angle_alpha                90
_cell_angle_beta                 125.648(8)
_cell_angle_gamma                90
_cell_volume                     2802.45
loop_
_atom_site_label
_atom_site_type_symbol
_atom_site_fract_x
_atom_site_fract_y
_atom_site_fract_z
C1 C 0.17428(16) -0.3633(2) -0.28008(19)
H1 H 0.1454 -0.3281 -0.3512
H2 H 0.1339 -0.3803 -0.2641
H3 H 0.2006 -0.4308 -0.2807
C2 C 0.24018(14) -0.28780(18) -0.19454(18)
C3 C 0.35468(14) -0.19472(17) -0.03561(18)
C4 C 0.44122(15) -0.00883(19) 0.0775(2)
H4 H 0.4952 0.0217 0.1384
H5 H 0.4359 0.0065 0.0097
C5 C 0.36968(14) 0.04954(18) 0.07275(17)
C6 C 0.40109(15) 0.27685(19) 0.24489(18)
H6 H 0.4039 0.2002 0.2395
C7 C 0.45980(15) 0.3270(2) 0.34518(17)
H7 H 0.5016 0.2843 0.4047
C8 C 0.45670(13) 0.4387(2) 0.35730(17)
C9 C 0.39479(16) 0.4968(2) 0.2639(2)
H8 H 0.3911 0.5736 0.2669
C10 C 0.33903(15) 0.44134(19) 0.16701(18)
H9 H 0.2976 0.4824 0.1057
C11 C 0.51627(15) 0.4988(2) 0.46498(19)
H10 H 0.5715 0.4624 0.5057
H11 H 0.5240 0.5744 0.4497
Co1 Co 0.2500 0.2500 0.0000
N1 N 0.25647(13) -0.19203(16) -0.21550(14)
N2 N 0.32283(14) -0.13684(16) -0.12407(16)
N3 N 0.34084(10) 0.33232(13) 0.15572(13)
O1 O 0.34815(9) 0.14245(11) 0.02658(11)
O2 O 0.33840(15) 0.00273(15) 0.11513(19)
O3 O 0.21778(9) 0.13538(12) 0.07630(11)
H12 H 0.2260 0.1554 0.1425
H13 H 0.2574 0.0773 0.0966
S1 S 0.30494(4) -0.31980(5) -0.05580(5)
S2 S 0.44266(4) -0.15731(5) 0.09507(5)
C1F C 0.32572(16) 0.8633(2) 0.28008(19)
H1F H 0.3546 0.8281 0.3512
H2F H 0.3661 0.8803 0.2641
H3F H 0.2994 0.9308 0.2807
C2F C 0.25982(14) 0.78780(18) 0.19454(18)
C3F C 0.14532(14) 0.69472(17) 0.03561(18)
C4F C 0.05878(15) 0.50883(19) -0.0775(2)
H4F H 0.0048 0.4783 -0.1384
H5F H 0.0641 0.4935 -0.0097
C5F C 0.13032(14) 0.45046(18) -0.07275(17)
C6D C 0.59891(15) 0.72315(19) 0.75511(18)
H6D H 0.5961 0.7998 0.7605
C7D C 0.54020(15) 0.6730(2) 0.65482(17)
H7D H 0.4984 0.7157 0.5953
C8D C 0.54330(13) 0.5613(2) 0.64270(17)
C9D C 0.60521(16) 0.5032(2) 0.7361(2)
H8D H 0.6089 0.4264 0.7331
C10D C 0.66097(15) 0.55866(19) 0.83299(18)
H9D H 0.7024 0.5176 0.8943
C11D C 0.48373(15) 0.5012(2) 0.53502(19)
H10D H 0.4285 0.5376 0.4943
H11D H 0.4760 0.4256 0.5503
Co1B Co 0.7500 0.7500 1.0000
N1F N 0.24353(13) 0.69203(16) 0.21550(14)
N2F N 0.17717(14) 0.63684(16) 0.12407(16)
N3D N 0.65916(10) 0.66768(13) 0.84428(13)
N3F N 0.15916(10) 0.16768(13) -0.15572(13)
O1F O 0.15185(9) 0.35755(11) -0.02658(11)
O2F O 0.16160(15) 0.49727(15) -0.11513(19)
O3F O 0.28222(9) 0.36462(12) -0.07630(11)
H12F H 0.2740 0.3446 -0.1425
H13F H 0.2426 0.4227 -0.0966
S1F S 0.19506(4) 0.81980(5) 0.05580(5)
S2F S 0.05734(4) 0.65731(5) -0.09507(5)
loop_
_geom_bond_atom_site_label_1
_geom_bond_atom_site_label_2
_geom_bond_site_symmetry_1
_geom_bond_site_symmetry_2
C1 H1 1_555 1_555
H2 C1 1_555 1_555
H3 C1 1_555 1_555
C2 C1 1_555 1_555
C3 N2 1_555 1_555
C4 H4 1_555 1_555
H5 C4 1_555 1_555
C5 C4 1_555 1_555
C6 H6 1_555 1_555
C7 C6 1_555 1_555
H7 C7 1_555 1_555
C8 C7 1_555 1_555
C9 C8 1_555 1_555
H8 C9 1_555 1_555
C10 C9 1_555 1_555
H9 C10 1_555 1_555
C11 C8 1_555 1_555
H10 C11 1_555 1_555
H11 C11 1_555 1_555
Co1 N3 1_555 1_555
N1 C2 1_555 1_555
N2 N1 1_555 1_555
N3 C6 1_555 1_555
O1 C5 1_555 1_555
O2 C5 1_555 1_555
O3 Co1 1_555 1_555
H12 O3 1_555 1_555
H13 O3 1_555 1_555
S1 C2 1_555 1_555
S2 C3 1_555 1_555
C1F H1F 1_555 1_555
H2F C1F 1_555 1_555
H3F C1F 1_555 1_555
C2F C1F 1_555 1_555
C3F N2F 1_555 1_555
C4F H4F 1_555 1_555
H5F C4F 1_555 1_555
C5F C4F 1_555 1_555
C6D H6D 1_555 1_555
C7D C6D 1_555 1_555
H7D C7D 1_555 1_555
C8D C7D 1_555 1_555
C9D C8D 1_555 1_555
H8D C9D 1_555 1_555
C10D C9D 1_555 1_555
H9D C10D 1_555 1_555
C11D C11 1_555 1_555
H10D C11D 1_555 1_555
H11D C11D 1_555 1_555
Co1B N3D 1_555 1_555
N1F C2F 1_555 1_555
N2F N1F 1_555 1_555
N3D C6D 1_555 1_555
N3F Co1 1_555 1_555
O1F Co1 1_555 1_555
O2F C5F 1_555 1_555
O3F Co1 1_555 1_555
H12F O3F 1_555 1_555
H13F O3F 1_555 1_555
S1F C2F 1_555 1_555
S2F C3F 1_555 1_555
C3 S1 1_555 1_555
C4 S2 1_555 1_555
C10 N3 1_555 1_555
Co1 O1 1_555 1_555
C3F S1F 1_555 1_555
C4F S2F 1_555 1_555
C5F O1F 1_555 1_555
C8D C11D 1_555 1_555
C10D N3D 1_555 1_555

#END
