
#######################################################################
#
#                 Cambridge Crystallographic Data Centre
#                                CCDC 
#
#######################################################################
#
# If this CIF has been generated from an entry in the Cambridge 
# Structural Database, then it will include bibliographic, chemical, 
# crystal, experimental, refinement or atomic coordinate data resulting 
# from the CCDC's data processing and validation procedures.
#
#######################################################################

data_UNEYES
_symmetry_cell_setting           triclinic
_symmetry_space_group_name_H-M   'P -1'
_symmetry_Int_Tables_number      2
_space_group_name_Hall           '-P 1'
loop_
_symmetry_equiv_pos_site_id
_symmetry_equiv_pos_as_xyz
1 x,y,z
2 -x,-y,-z
_cell_length_a                   8.671(11)
_cell_length_b                   9.631(13)
_cell_length_c                   13.505(17)
_cell_angle_alpha                74.014(15)
_cell_angle_beta                 74.102(16)
_cell_angle_gamma                68.061(15)
_cell_volume                     987.008
loop_
_atom_site_label
_atom_site_type_symbol
_atom_site_fract_x
_atom_site_fract_y
_atom_site_fract_z
Zn1 Zn 0.48886(16) 0.45911(14) 0.26116(10)
Cl1 Cl 0.4850(4) 0.3429(4) 0.1404(2)
Cl2 Cl 0.3411(4) 0.4268(3) 0.4224(2)
N1 N 0.7404(12) 0.4008(10) 0.2658(8)
C1 C 0.8573(16) 0.4044(13) 0.1751(9)
H1 H 0.8229 0.4293 0.1112
C2 C 1.0248(14) 0.3720(13) 0.1761(9)
H2 H 1.1023 0.3786 0.1133
C3 C 1.0783(15) 0.3294(13) 0.2712(9)
H3 H 1.1919 0.3049 0.2733
C4 C 0.9579(14) 0.3241(12) 0.3633(9)
C5 C 0.7879(15) 0.3622(11) 0.3586(10)
H4 H 0.7072 0.3609 0.4203
N2 N 1.0097(11) 0.2825(10) 0.4592(7)
H5 H 1.0871 0.3147 0.4636
C6 C 0.9457(15) 0.1936(12) 0.5471(9)
O1 O 0.8330(11) 0.1437(10) 0.5477(6)
C7 C 1.0139(13) 0.1672(13) 0.6435(9)
C8 C 1.0599(16) 0.2766(13) 0.6651(10)
H6 H 1.0563 0.3678 0.6174
C9 C 1.1116(15) 0.2483(13) 0.7591(10)
H7 H 1.1348 0.3245 0.7765
C10 C 1.1293(14) 0.1120(14) 0.8266(9)
C11 C 1.0901(15) 0.0008(13) 0.8031(10)
H8 H 1.1036 -0.0934 0.8483
C12 C 1.0300(14) 0.0295(13) 0.7115(10)
H9 H 1.0007 -0.0448 0.6963
C13 C 1.1787(16) 0.0952(14) 0.9271(10)
O2 O 1.1506(13) 0.2036(10) 0.9673(7)
N3 N 1.2615(12) -0.0518(11) 0.9743(7)
H10 H 1.2766 -0.1230 0.9423
C14 C 1.3237(14) -0.0991(14) 1.0679(9)
C15 C 1.3505(15) -0.0027(13) 1.1158(9)
H11 H 1.3261 0.1010 1.0875
C16 C 1.4146(15) -0.0650(14) 1.2068(11)
H12 H 1.4357 -0.0040 1.2407
C17 C 1.4465(15) -0.2170(15) 1.2465(9)
H13 H 1.4844 -0.2563 1.3098
N4 N 1.4263(12) -0.3133(10) 1.1995(8)
C18 C 1.3637(16) -0.2542(13) 1.1105(9)
H14 H 1.3469 -0.3183 1.0770
Zn1_2 Zn 1.48886(16) -0.54089(14) 1.26116(10)
N4_2 N 0.4263(12) 0.6867(10) 0.1995(8)
O3 O 0.653(2) 0.9470(17) 0.5751(11)
C19 C 0.486(2) 1.000(3) 0.5572(6)
O3A O 0.347(2) 1.0530(17) 0.4249(11)
C19A C 0.514(2) 1.000(3) 0.4428(6)
loop_
_geom_bond_atom_site_label_1
_geom_bond_atom_site_label_2
_geom_bond_site_symmetry_1
_geom_bond_site_symmetry_2
Zn1 Cl1 1_555 1_555
Cl2 Zn1 1_555 1_555
N1 Zn1 1_555 1_555
C1 N1 1_555 1_555
H1 C1 1_555 1_555
C2 C1 1_555 1_555
H2 C2 1_555 1_555
C3 C2 1_555 1_555
H3 C3 1_555 1_555
C4 C3 1_555 1_555
C5 N1 1_555 1_555
H4 C5 1_555 1_555
N2 C4 1_555 1_555
H5 N2 1_555 1_555
C6 N2 1_555 1_555
O1 C6 1_555 1_555
C7 C6 1_555 1_555
C8 C7 1_555 1_555
H6 C8 1_555 1_555
C9 C8 1_555 1_555
H7 C9 1_555 1_555
C10 C9 1_555 1_555
C11 C10 1_555 1_555
H8 C11 1_555 1_555
C12 C7 1_555 1_555
H9 C12 1_555 1_555
C13 C10 1_555 1_555
O2 C13 1_555 1_555
N3 C13 1_555 1_555
H10 N3 1_555 1_555
C14 N3 1_555 1_555
C15 C14 1_555 1_555
H11 C15 1_555 1_555
C16 C15 1_555 1_555
H12 C16 1_555 1_555
C17 C16 1_555 1_555
H13 C17 1_555 1_555
N4 C17 1_555 1_555
C18 C14 1_555 1_555
H14 C18 1_555 1_555
O3 C19 1_555 1_555
C19 C19A 1_555 1_555
Zn1_2 N4 1_555 1_555
N4_2 Zn1 1_555 1_555
O3A C19A 1_555 1_555
C4 C5 1_555 1_555
C11 C12 1_555 1_555
N4 C18 1_555 1_555

#END
