
#######################################################################
#
#                 Cambridge Crystallographic Data Centre
#                                CCDC 
#
#######################################################################
#
# If this CIF has been generated from an entry in the Cambridge 
# Structural Database, then it will include bibliographic, chemical, 
# crystal, experimental, refinement or atomic coordinate data resulting 
# from the CCDC's data processing and validation procedures.
#
#######################################################################

data_UNINEL
_symmetry_cell_setting           monoclinic
_symmetry_space_group_name_H-M   'P 21/c'
_symmetry_Int_Tables_number      14
_space_group_name_Hall           '-P 2ybc'
loop_
_symmetry_equiv_pos_site_id
_symmetry_equiv_pos_as_xyz
1 x,y,z
2 -x,1/2+y,1/2-z
3 -x,-y,-z
4 x,1/2-y,1/2+z
_cell_length_a                   18.942(2)
_cell_length_b                   7.3043(9)
_cell_length_c                   7.1343(6)
_cell_angle_alpha                90
_cell_angle_beta                 94.013(9)
_cell_angle_gamma                90
_cell_volume                     984.668
loop_
_atom_site_label
_atom_site_type_symbol
_atom_site_fract_x
_atom_site_fract_y
_atom_site_fract_z
Cd1 Cd 0.545808(16) 0.83262(5) 0.35124(4)
C1 C 0.4065(2) 0.9035(6) 0.2576(5)
C2 C 0.3305(2) 0.9513(5) 0.2101(5)
C3 C 0.2824(2) 0.9189(5) 0.3416(5)
H1 H 0.2982 0.8717 0.4582
C4 C 0.2100(2) 0.9554(5) 0.3046(5)
C5 C 0.1591(2) 0.9188(6) 0.4388(6)
H2 H 0.1738 0.8712 0.5561
C6 C 0.0897(3) 0.9534(7) 0.3957(7)
H3 H 0.0569 0.9266 0.4830
C7 C 0.0662(3) 1.0289(7) 0.2213(7)
H4 H 0.0184 1.0532 0.1950
C8 C 0.1127(2) 1.0666(6) 0.0917(6)
H5 H 0.0964 1.1159 -0.0235
C9 C 0.1859(2) 1.0323(6) 0.1284(6)
C10 C 0.2365(2) 1.0637(5) -0.0036(5)
H6 H 0.2217 1.1108 -0.1209
C11 C 0.3065(2) 1.0273(5) 0.0349(5)
C12 C 0.3582(2) 1.0753(5) -0.1072(5)
O1 O 0.44561(13) 1.0188(4) 0.3537(3)
O2 O 0.43064(14) 0.7561(4) 0.2089(4)
O3 O 0.42336(14) 1.0999(3) -0.0463(3)
O4 O 0.33897(13) 1.0955(3) -0.2751(3)
Cd1B Cd 0.454192(16) 1.16738(5) 0.64876(4)
Cd1A Cd 0.454192(16) 1.33262(5) 0.14876(4)
Cd1B_2 Cd 0.454192(16) 1.16738(5) -0.35124(4)
O1B O 0.55439(13) 0.9812(4) 0.6463(3)
O3A O 0.57664(14) 0.5999(3) 0.5463(3)
O3B O 0.57664(14) 0.9001(3) 0.0463(3)
O4B O 0.66103(13) 0.9045(3) 0.2751(3)
loop_
_geom_bond_atom_site_label_1
_geom_bond_atom_site_label_2
_geom_bond_site_symmetry_1
_geom_bond_site_symmetry_2
Cd1 O1 1_555 1_555
C1 C2 1_555 1_555
C2 C3 1_555 1_555
C3 H1 1_555 1_555
C4 C3 1_555 1_555
C5 C4 1_555 1_555
H2 C5 1_555 1_555
C6 C5 1_555 1_555
H3 C6 1_555 1_555
C7 C6 1_555 1_555
H4 C7 1_555 1_555
C8 C7 1_555 1_555
H5 C8 1_555 1_555
C9 C4 1_555 1_555
C10 C9 1_555 1_555
H6 C10 1_555 1_555
C11 C2 1_555 1_555
C12 C11 1_555 1_555
O1 C1 1_555 1_555
O2 Cd1 1_555 1_555
O3 C12 1_555 1_555
O4 C12 1_555 1_555
Cd1B O1 1_555 1_555
Cd1A O3 1_555 1_555
Cd1B_2 O3 1_555 1_555
O1B Cd1 1_555 1_555
O3A Cd1 1_555 1_555
O3B Cd1 1_555 1_555
O4B Cd1 1_555 1_555
C1 O2 1_555 1_555
C8 C9 1_555 1_555
C10 C11 1_555 1_555
O4 Cd1B_2 1_555 1_555
Cd1B O1B 1_555 1_555

#END
