
#######################################################################
#
#                 Cambridge Crystallographic Data Centre
#                                CCDC 
#
#######################################################################
#
# If this CIF has been generated from an entry in the Cambridge 
# Structural Database, then it will include bibliographic, chemical, 
# crystal, experimental, refinement or atomic coordinate data resulting 
# from the CCDC's data processing and validation procedures.
#
#######################################################################

data_UNIPEN
_symmetry_cell_setting           orthorhombic
_symmetry_space_group_name_H-M   'P 21 21 21'
_symmetry_Int_Tables_number      19
_space_group_name_Hall           'P 2ac 2ab'
loop_
_symmetry_equiv_pos_site_id
_symmetry_equiv_pos_as_xyz
1 x,y,z
2 1/2-x,-y,1/2+z
3 -x,1/2+y,1/2-z
4 1/2+x,1/2-y,-z
_cell_length_a                   10.4451(6)
_cell_length_b                   12.4548(10)
_cell_length_c                   28.6487(17)
_cell_angle_alpha                90
_cell_angle_beta                 90
_cell_angle_gamma                90
_cell_volume                     3726.96
loop_
_atom_site_label
_atom_site_type_symbol
_atom_site_fract_x
_atom_site_fract_y
_atom_site_fract_z
Cd1 Cd 0.76681(7) 1.15171(6) 0.93909(2)
C1 C 0.6099(10) 1.0595(10) 1.0052(4)
C2 C 0.5555(10) 1.0054(8) 1.0476(3)
C3 C 0.4802(10) 1.0585(8) 1.0805(3)
C4 C 0.4463(11) 1.0123(9) 1.1212(4)
H1 H 0.4013 1.0509 1.1436
C5 C 0.4805(11) 0.9040(10) 1.1292(4)
C6 C 0.4424(11) 0.8505(12) 1.1723(4)
H2 H 0.3928 0.8860 1.1944
C7 C 0.4808(13) 0.7482(11) 1.1794(5)
H3 H 0.4613 0.7152 1.2077
C8 C 0.5490(12) 0.6904(12) 1.1457(5)
H4 H 0.5697 0.6188 1.1510
C9 C 0.5850(13) 0.7389(10) 1.1051(5)
H5 H 0.6319 0.7011 1.0830
C10 C 0.5502(10) 0.8484(10) 1.0968(4)
C11 C 0.5869(9) 0.9007(8) 1.0553(4)
H6 H 0.6333 0.8632 1.0329
C12 C 0.4226(10) 1.1703(10) 1.0727(4)
C13 C 1.0439(11) 1.0833(10) 0.9828(4)
H7 H 1.0608 1.1554 0.9769
C14 C 0.9113(11) 0.9397(11) 0.9783(4)
H8 H 0.8343 0.9091 0.9690
C15 C 0.9984(11) 0.8750(9) 1.0007(5)
H9 H 0.9774 0.8038 1.0070
C16 C 1.1352(12) 1.0228(10) 1.0049(5)
H10 H 1.2116 1.0551 1.0140
C17 C 1.1166(12) 0.9143(9) 1.0141(5)
C18 C 1.2100(10) 0.8491(11) 1.0382(4)
H11 H 1.2817 0.8946 1.0467
H12 H 1.2417 0.7954 1.0166
C19 C 1.1644(14) 0.7935(11) 1.0809(5)
H13 H 1.0973 0.7435 1.0721
H14 H 1.2346 0.7520 1.0937
C20 C 1.1150(14) 0.8647(12) 1.1173(5)
H15 H 1.0588 0.9167 1.1027
H16 H 1.1867 0.9040 1.1304
C21 C 1.0428(15) 0.8127(12) 1.1572(6)
C22 C 0.9339(15) 0.7519(17) 1.1488(6)
H17 H 0.9051 0.7437 1.1183
C23 C 0.8671(16) 0.7031(17) 1.1847(6)
H18 H 0.7963 0.6607 1.1777
C24 C 1.0698(15) 0.8227(13) 1.2029(5)
H19 H 1.1416 0.8612 1.2123
C25 C 0.9940(17) 0.7778(15) 1.2348(5)
H20 H 1.0118 0.7949 1.2657
C26 C 0.1374(14) 1.5524(11) 0.6571(5)
H21 H 0.0589 1.5732 0.6447
C27 C 0.1444(19) 1.5191(13) 0.7045(6)
H22 H 0.0721 1.5270 0.7231
C28 C 0.3431(12) 1.5165(12) 0.6496(6)
H23 H 0.4155 1.5160 0.6308
C29 C 0.3565(16) 1.4773(15) 0.6945(5)
H24 H 0.4340 1.4512 0.7057
C30 C 0.2431(17) 1.4796(14) 0.7225(4)
C31 C 0.265(2) 1.4222(15) 0.7710(5)
H25 H 0.1904 1.3801 0.7793
H26 H 0.3383 1.3744 0.7691
C32 C 0.289(2) 1.5077(15) 0.8074(5)
H27 H 0.3700 1.5428 0.8016
H28 H 0.2216 1.5614 0.8061
C33 C 0.2901(16) 1.4552(14) 0.8546(4)
H29 H 0.2120 1.4134 0.8570
H30 H 0.2837 1.5123 0.8775
C34 C 0.4019(13) 1.3808(10) 0.8704(4)
C35 C 0.5200(13) 1.3725(10) 0.8494(4)
H31 H 0.5364 1.4108 0.8222
C36 C 0.6102(13) 1.3110(11) 0.8674(4)
H32 H 0.6882 1.3079 0.8518
C37 C 0.3870(12) 1.3218(11) 0.9098(4)
H33 H 0.3093 1.3240 0.9256
C38 C 0.4864(11) 1.2574(10) 0.9270(3)
H34 H 0.4724 1.2170 0.9539
N1 N 0.9294(8) 1.0414(8) 0.9692(3)
N2 N 0.9022(12) 0.7157(13) 1.2284(5)
N3 N 0.5983(10) 1.2522(8) 0.9066(4)
N4 N 0.2365(10) 1.5544(7) 0.6312(3)
O1 O 0.6137(8) 1.0112(7) 0.9667(3)
O2 O 0.6600(6) 1.1508(7) 1.0113(2)
O3 O 0.3754(7) 1.1884(6) 1.0326(3)
O4 O 0.4209(8) 1.2363(7) 1.1044(3)
Cd1B Cd 0.23319(7) 1.65171(6) 0.56091(2)
Cd1C Cd 0.26681(7) 1.34829(6) 1.06091(2)
N4B N 0.7635(10) 1.0544(7) 0.8688(3)
O3C O 0.8754(7) 1.3116(6) 0.9674(3)
O4C O 0.9209(8) 1.2637(7) 0.8956(3)
O5 O 0.6966(10) 0.5849(9) 1.2685(4)
H35 H 0.6413 0.5745 1.2472
H36 H 0.7584 0.6238 1.2592
O6 O 0.3815(14) -0.0762(15) 0.9378(6)
H37 H 0.3368 -0.0371 0.9197
H38 H 0.4620 -0.0753 0.9422
O7 O 1.0025(13) 0.7832(9) 0.6958(4)
H39 H 1.0413 0.7376 0.6788
H40 H 0.9631 0.7525 0.7180
loop_
_geom_bond_atom_site_label_1
_geom_bond_atom_site_label_2
_geom_bond_site_symmetry_1
_geom_bond_site_symmetry_2
Cd1 N1 1_555 1_555
C1 C2 1_555 1_555
C2 C3 1_555 1_555
C3 C4 1_555 1_555
C4 H1 1_555 1_555
C5 C4 1_555 1_555
C6 C5 1_555 1_555
H2 C6 1_555 1_555
C7 C6 1_555 1_555
H3 C7 1_555 1_555
C8 C7 1_555 1_555
H4 C8 1_555 1_555
C9 C8 1_555 1_555
H5 C9 1_555 1_555
C10 C5 1_555 1_555
C11 C2 1_555 1_555
H6 C11 1_555 1_555
C12 C3 1_555 1_555
C13 H7 1_555 1_555
C14 H8 1_555 1_555
C15 C14 1_555 1_555
H9 C15 1_555 1_555
C16 C13 1_555 1_555
H10 C16 1_555 1_555
C17 C15 1_555 1_555
C18 C17 1_555 1_555
H11 C18 1_555 1_555
H12 C18 1_555 1_555
C19 C18 1_555 1_555
H13 C19 1_555 1_555
H14 C19 1_555 1_555
C20 C19 1_555 1_555
H15 C20 1_555 1_555
H16 C20 1_555 1_555
C21 C20 1_555 1_555
C22 C21 1_555 1_555
H17 C22 1_555 1_555
C23 C22 1_555 1_555
H18 C23 1_555 1_555
C24 C21 1_555 1_555
H19 C24 1_555 1_555
C25 C24 1_555 1_555
H20 C25 1_555 1_555
C26 H21 1_555 1_555
C27 C26 1_555 1_555
H22 C27 1_555 1_555
C28 H23 1_555 1_555
C29 C28 1_555 1_555
H24 C29 1_555 1_555
C30 C27 1_555 1_555
C31 C30 1_555 1_555
H25 C31 1_555 1_555
H26 C31 1_555 1_555
C32 C31 1_555 1_555
H27 C32 1_555 1_555
H28 C32 1_555 1_555
C33 C32 1_555 1_555
H29 C33 1_555 1_555
H30 C33 1_555 1_555
C34 C33 1_555 1_555
C35 C34 1_555 1_555
H31 C35 1_555 1_555
C36 C35 1_555 1_555
H32 C36 1_555 1_555
C37 C34 1_555 1_555
H33 C37 1_555 1_555
C38 C37 1_555 1_555
H34 C38 1_555 1_555
N1 C13 1_555 1_555
N2 C23 1_555 1_555
N3 Cd1 1_555 1_555
N4 C26 1_555 1_555
O1 Cd1 1_555 1_555
O2 Cd1 1_555 1_555
O3 C12 1_555 1_555
O4 C12 1_555 1_555
O5 H35 1_555 1_555
H36 O5 1_555 1_555
O6 H37 1_555 1_555
H38 O6 1_555 1_555
O7 H39 1_555 1_555
H40 O7 1_555 1_555
Cd1B N4 1_555 1_555
Cd1C O3 1_555 1_555
N4B Cd1 1_555 1_555
O3C Cd1 1_555 1_555
O4C Cd1 1_555 1_555
C1 O1 1_555 1_555
C1 O2 1_555 1_555
C9 C10 1_555 1_555
C10 C11 1_555 1_555
C14 N1 1_555 1_555
C16 C17 1_555 1_555
C25 N2 1_555 1_555
C28 N4 1_555 1_555
C29 C30 1_555 1_555
C36 N3 1_555 1_555
C38 N3 1_555 1_555
O4 Cd1C 1_555 1_555

#END
