
#######################################################################
#
#                 Cambridge Crystallographic Data Centre
#                                CCDC 
#
#######################################################################
#
# If this CIF has been generated from an entry in the Cambridge 
# Structural Database, then it will include bibliographic, chemical, 
# crystal, experimental, refinement or atomic coordinate data resulting 
# from the CCDC's data processing and validation procedures.
#
#######################################################################

data_UNIPOX
_symmetry_cell_setting           triclinic
_symmetry_space_group_name_H-M   'P -1'
_symmetry_Int_Tables_number      2
_space_group_name_Hall           '-P 1'
loop_
_symmetry_equiv_pos_site_id
_symmetry_equiv_pos_as_xyz
1 x,y,z
2 -x,-y,-z
_cell_length_a                   8.712(3)
_cell_length_b                   10.869(5)
_cell_length_c                   12.553(6)
_cell_angle_alpha                114.25(4)
_cell_angle_beta                 92.97(4)
_cell_angle_gamma                111.84(4)
_cell_volume                     976.141
loop_
_atom_site_label
_atom_site_type_symbol
_atom_site_fract_x
_atom_site_fract_y
_atom_site_fract_z
Zn1 Zn 0.51604(13) 0.40735(12) 0.72073(11)
C1 C 0.2094(9) 0.4465(8) 0.6484(8)
C2 C 0.1047(8) 0.4764(8) 0.5721(7)
C3 C 0.1139(9) 0.4418(8) 0.4534(7)
H1 H 0.1892 0.4028 0.4215
C4 C -0.0099(9) 0.5345(8) 0.6182(7)
H2 H -0.0173 0.5577 0.6972
C5 C 0.7223(9) 0.6989(9) 0.9028(9)
C6 C 0.8644(9) 0.8550(8) 0.9506(7)
C7 C 0.9708(9) 0.8961(9) 0.8801(7)
H3 H 0.9528 0.8282 0.8002
C8 C 0.8961(10) 0.9611(9) 1.0704(8)
H4 H 0.8258 0.9353 1.1183
C9 C 0.5737(10) 0.2222(9) 0.4633(8)
C10 C 0.4900(10) 0.2540(9) 0.3846(8)
H5 H 0.4373 0.3178 0.4110
C11 C 0.4936(11) 0.1827(11) 0.2663(9)
H6 H 0.4438 0.2010 0.2105
C12 C 0.5686(13) 0.0836(12) 0.2257(10)
H7 H 0.5653 0.0386 0.1441
C13 C 0.6461(12) 0.0495(12) 0.2994(9)
H8 H 0.6928 -0.0187 0.2713
C14 C 0.6494(10) 0.1230(9) 0.4163(9)
C15 C 0.6854(9) 0.2138(8) 0.6170(7)
C16 C 0.7368(11) 0.2511(10) 0.7458(9)
C17 C 0.8453(15) 0.2100(14) 0.7900(10)
H9 H 0.8983 0.1581 0.7394
C18 C 0.8770(17) 0.2475(17) 0.9154(13)
H10 H 0.9488 0.2194 0.9475
C19 C 0.7977(14) 0.3260(14) 0.9856(9)
H11 H 0.8105 0.3491 1.0665
C20 C 0.6997(12) 0.3699(10) 0.9353(9)
H12 H 0.6529 0.4296 0.9848
C21 C 0.7866(10) 0.0080(9) 0.5117(9)
H13 H 0.7223 -0.0847 0.4385
H14 H 0.7705 -0.0133 0.5792
C22 C 0.9719(9) 0.0624(8) 0.5117(9)
H15 H 1.0389 0.1480 0.5888
H16 H 0.9914 0.0939 0.4497
N1 N 0.5959(8) 0.2765(7) 0.5883(7)
N2 N 0.7168(9) 0.1177(8) 0.5201(7)
N3 N 0.6674(9) 0.3309(8) 0.8169(7)
O1 O 0.3310(6) 0.4143(5) 0.6123(5)
O2 O 0.1705(8) 0.4526(8) 0.7460(6)
O3 O 0.6910(6) 0.6161(6) 0.7894(5)
O4 O 0.6436(7) 0.6631(6) 0.9727(6)
O5 O 0.3230(7) 0.3111(6) 0.7931(5)
H17 H 0.267(11) 0.352(10) 0.776(9)
H18 H 0.384(10) 0.380(8) 0.862(4)
Zn1A Zn 1.48396(13) -0.40735(12) 0.27927(11)
Zn1A_2 Zn -0.51604(13) 0.59265(12) 0.27927(11)
Zn1A_3 Zn 1.48396(13) 1.59265(12) 1.27927(11)
C1A C -0.2094(9) 0.5535(8) 0.3516(8)
C2A C -0.1047(8) 0.5236(8) 0.4279(7)
C3A C -0.1139(9) 0.5582(8) 0.5466(7)
H1A H -0.1892 0.5972 0.5785
C4A C 0.0099(9) 0.4655(8) 0.3818(7)
H2A H 0.0173 0.4423 0.3028
C5A C 1.2777(9) 1.3011(9) 1.0972(9)
C6A C 1.1356(9) 1.1450(8) 1.0494(7)
C7A C 1.0292(9) 1.1039(9) 1.1199(7)
H3A H 1.0472 1.1718 1.1998
C8A C 1.1039(10) 1.0389(9) 0.9296(8)
H4A H 1.1742 1.0647 0.8817
C9A C 1.4263(10) -0.2222(9) 0.5367(8)
C10A C 1.5100(10) -0.2540(9) 0.6154(8)
H5A H 1.5627 -0.3178 0.5890
C11A C 1.5064(11) -0.1827(11) 0.7337(9)
H6A H 1.5562 -0.2010 0.7895
C12A C 1.4314(13) -0.0836(12) 0.7743(10)
H7A H 1.4347 -0.0386 0.8559
C13A C 1.3539(12) -0.0495(12) 0.7006(9)
H8A H 1.3072 0.0187 0.7287
C14A C 1.3506(10) -0.1230(9) 0.5837(9)
C15A C 1.3146(9) -0.2138(8) 0.3830(7)
C16A C 1.2632(11) -0.2511(10) 0.2542(9)
C17A C 1.1547(15) -0.2100(14) 0.2100(10)
H9A H 1.1017 -0.1581 0.2606
C18A C 1.1230(17) -0.2475(17) 0.0846(13)
H10A H 1.0512 -0.2194 0.0525
C19A C 1.2023(14) -0.3260(14) 0.0144(9)
H11A H 1.1895 -0.3491 -0.0665
C20A C 1.3003(12) -0.3699(10) 0.0647(9)
H12A H 1.3471 -0.4296 0.0152
C21A C 1.2134(10) -0.0080(9) 0.4883(9)
H13A H 1.2777 0.0847 0.5615
H14A H 1.2295 0.0133 0.4208
C22A C 1.0281(9) -0.0624(8) 0.4883(9)
H15A H 0.9611 -0.1480 0.4112
H16A H 1.0086 -0.0939 0.5503
N1A N 1.4041(8) -0.2765(7) 0.4117(7)
N1A_2 N -0.5959(8) 0.7235(7) 0.4117(7)
N2A N 1.2832(9) -0.1177(8) 0.4799(7)
N3A N 1.3326(9) -0.3309(8) 0.1831(7)
N3A_2 N -0.6674(9) 0.6691(8) 0.1831(7)
O1A O -0.3310(6) 0.5857(5) 0.3877(5)
O2A O -0.1705(8) 0.5474(8) 0.2540(6)
O3A O 1.3090(6) 1.3839(6) 1.2106(5)
O3A_2 O -0.6910(6) 0.3839(6) 0.2106(5)
O4A O 1.3564(7) 1.3369(6) 1.0273(6)
O5A O -0.3230(7) 0.6889(6) 0.2069(5)
H17A H -0.267(11) 0.648(10) 0.224(9)
H18A H -0.384(10) 0.620(8) 0.138(4)
loop_
_geom_bond_atom_site_label_1
_geom_bond_atom_site_label_2
_geom_bond_site_symmetry_1
_geom_bond_site_symmetry_2
Zn1 N1 1_555 1_555
C1 C2 1_555 1_555
C2 C3 1_555 1_555
C3 H1 1_555 1_555
C4 C2 1_555 1_555
H2 C4 1_555 1_555
C5 C6 1_555 1_555
C6 C7 1_555 1_555
C7 H3 1_555 1_555
C8 C6 1_555 1_555
H4 C8 1_555 1_555
C9 C10 1_555 1_555
C10 H5 1_555 1_555
C11 C10 1_555 1_555
H6 C11 1_555 1_555
C12 C11 1_555 1_555
H7 C12 1_555 1_555
C13 C12 1_555 1_555
H8 C13 1_555 1_555
C14 C9 1_555 1_555
C15 C16 1_555 1_555
C16 C17 1_555 1_555
C17 H9 1_555 1_555
C18 C17 1_555 1_555
H10 C18 1_555 1_555
C19 C18 1_555 1_555
H11 C19 1_555 1_555
C20 C19 1_555 1_555
H12 C20 1_555 1_555
C21 H13 1_555 1_555
H14 C21 1_555 1_555
C22 C21 1_555 1_555
H15 C22 1_555 1_555
H16 C22 1_555 1_555
N1 C9 1_555 1_555
N2 C14 1_555 1_555
N3 Zn1 1_555 1_555
O1 Zn1 1_555 1_555
O2 C1 1_555 1_555
O3 Zn1 1_555 1_555
O4 C5 1_555 1_555
O5 Zn1 1_555 1_555
H17 O5 1_555 1_555
H18 O5 1_555 1_555
Zn1A N1A 1_555 1_555
Zn1A_2 N1A_2 1_555 1_555
Zn1A_3 O3A 1_555 1_555
C1A C2A 1_555 1_555
C2A C3A 1_555 1_555
C3A C4 1_555 1_555
H1A C3A 1_555 1_555
C4A C3 1_555 1_555
H2A C4A 1_555 1_555
C5A C6A 1_555 1_555
C6A C7A 1_555 1_555
C7A C8 1_555 1_555
H3A C7A 1_555 1_555
C8A C7 1_555 1_555
H4A C8A 1_555 1_555
C9A C10A 1_555 1_555
C10A H5A 1_555 1_555
C11A C10A 1_555 1_555
H6A C11A 1_555 1_555
C12A C11A 1_555 1_555
H7A C12A 1_555 1_555
C13A C12A 1_555 1_555
H8A C13A 1_555 1_555
C14A C9A 1_555 1_555
C15A C16A 1_555 1_555
C16A C17A 1_555 1_555
C17A H9A 1_555 1_555
C18A C17A 1_555 1_555
H10A C18A 1_555 1_555
C19A C18A 1_555 1_555
H11A C19A 1_555 1_555
C20A C19A 1_555 1_555
H12A C20A 1_555 1_555
C21A H13A 1_555 1_555
H14A C21A 1_555 1_555
C22A C22 1_555 1_555
H15A C22A 1_555 1_555
H16A C22A 1_555 1_555
N1A C9A 1_555 1_555
N2A C14A 1_555 1_555
N3A Zn1A 1_555 1_555
N3A_2 Zn1A_2 1_555 1_555
O1A Zn1A_2 1_555 1_555
O2A C1A 1_555 1_555
O3A C5A 1_555 1_555
O3A_2 Zn1A_2 1_555 1_555
O4A C5A 1_555 1_555
O5A Zn1A_2 1_555 1_555
H17A O5A 1_555 1_555
H18A O5A 1_555 1_555
C1 O1 1_555 1_555
C5 O3 1_555 1_555
C13 C14 1_555 1_555
C15 N1 1_555 1_555
C15 N2 1_555 1_555
C16 N3 1_555 1_555
C20 N3 1_555 1_555
C21 N2 1_555 1_555
C1A O1A 1_555 1_555
C2A C4A 1_555 1_555
C6A C8A 1_555 1_555
C13A C14A 1_555 1_555
C15A N1A 1_555 1_555
C15A N2A 1_555 1_555
C16A N3A 1_555 1_555
C20A N3A 1_555 1_555
C21A C22A 1_555 1_555
C21A N2A 1_555 1_555

#END
