
#######################################################################
#
#                 Cambridge Crystallographic Data Centre
#                                CCDC 
#
#######################################################################
#
# If this CIF has been generated from an entry in the Cambridge 
# Structural Database, then it will include bibliographic, chemical, 
# crystal, experimental, refinement or atomic coordinate data resulting 
# from the CCDC's data processing and validation procedures.
#
#######################################################################

data_UNIQEO
_symmetry_cell_setting           monoclinic
_symmetry_space_group_name_H-M   'P 21/n'
_symmetry_Int_Tables_number      14
_space_group_name_Hall           '-P 2yn'
loop_
_symmetry_equiv_pos_site_id
_symmetry_equiv_pos_as_xyz
1 x,y,z
2 1/2-x,1/2+y,1/2-z
3 -x,-y,-z
4 1/2+x,1/2-y,1/2+z
_cell_length_a                   10.811(5)
_cell_length_b                   15.391(5)
_cell_length_c                   15.011(5)
_cell_angle_alpha                90
_cell_angle_beta                 110.388(5)
_cell_angle_gamma                90
_cell_volume                     2341.24
loop_
_atom_site_label
_atom_site_type_symbol
_atom_site_fract_x
_atom_site_fract_y
_atom_site_fract_z
Zn1 Zn 0.09600(4) 0.07045(3) 0.42666(3)
C1 C -0.1056(4) 0.1784(3) 0.3126(5)
C2 C -0.1969(4) 0.2532(3) 0.3038(3)
C3 C -0.2494(3) 0.2996(2) 0.2192(3)
H1 H -0.2287 0.2834 0.1664
C4 C -0.3320(3) 0.3696(2) 0.2132(3)
C5 C -0.3633(5) 0.3922(3) 0.2910(4)
H2 H -0.4200 0.4387 0.2869
C6 C -0.3118(5) 0.3472(4) 0.3750(4)
H3 H -0.3332 0.3633 0.4275
C7 C -0.2289(5) 0.2787(3) 0.3808(4)
H4 H -0.1936 0.2487 0.4379
C8 C -0.3900(3) 0.4192(2) 0.1233(3)
C9 C 0.1804(5) 0.2716(3) 0.4132(4)
H5 H 0.1127 0.2842 0.4360
C10 C 0.2412(5) 0.3403(3) 0.3859(4)
H6 H 0.2159 0.3973 0.3913
C11 C 0.3385(5) 0.3231(3) 0.3509(4)
H7 H 0.3811 0.3676 0.3311
C12 C 0.3728(4) 0.2358(3) 0.3458(3)
H8 H 0.4384 0.2214 0.3215
C13 C 0.3098(3) 0.1725(2) 0.3765(3)
C14 C 0.3357(3) 0.0784(2) 0.3767(3)
C15 C 0.2985(4) -0.0591(2) 0.3889(3)
C16 C 0.2505(4) -0.1412(3) 0.4003(3)
H9 H 0.1695 -0.1479 0.4084
C17 C 0.3277(4) -0.2110(3) 0.3992(4)
H10 H 0.2986 -0.2665 0.4067
C18 C 0.4496(4) -0.2015(3) 0.3870(3)
H11 H 0.4990 -0.2509 0.3867
C19 C 0.4980(4) -0.1226(3) 0.3756(3)
H12 H 0.5793 -0.1164 0.3681
C20 C 0.4192(4) -0.0519(2) 0.3760(3)
C21 C 0.5661(4) 0.0701(3) 0.3606(3)
H13 H 0.6393 0.0423 0.4093
H14 H 0.5718 0.1320 0.3735
C22 C 0.5794(5) 0.0545(3) 0.2643(4)
H15 H 0.6713 0.0620 0.2712
H16 H 0.5562 -0.0055 0.2464
C23 C 0.5001(5) 0.1099(4) 0.1868(4)
H17 H 0.5175 0.1703 0.2053
H18 H 0.4073 0.0988 0.1745
C24 C 0.5314(6) 0.0932(4) 0.0933(4)
H19 H 0.4902 0.1388 0.0480
H20 H 0.6260 0.0977 0.1083
C25 C 0.4859(6) 0.0067(4) 0.0468(4)
H21 H 0.3917 0.0013 0.0333
H22 H 0.5294 -0.0391 0.0910
N1 N 0.4406(3) 0.0368(2) 0.3671(2)
N2 N 0.2481(3) 0.0237(2) 0.3892(2)
N3 N 0.2124(3) 0.1890(2) 0.4091(3)
O1 O -0.3286(2) 0.41712(17) 0.0662(2)
O2 O -0.4962(2) 0.45720(18) 0.1099(2)
O3 O -0.0807(3) 0.1550(2) 0.2421(3)
O4 O -0.0580(3) 0.1460(2) 0.3947(3)
Zn1B Zn 0.90400(4) -0.07045(3) -0.42666(3)
Zn1C Zn -0.40400(4) 0.42955(3) -0.07334(3)
Zn1A Zn -0.59600(4) 0.57045(3) 0.07334(3)
Zn1A_2 Zn 1.40400(4) -0.42955(3) 0.07334(3)
Zn1C_2 Zn 1.59600(4) -0.57045(3) -0.07334(3)
C1B C 1.1056(4) -0.1784(3) -0.3126(5)
C2B C 1.1969(4) -0.2532(3) -0.3038(3)
C3B C 1.2494(3) -0.2996(2) -0.2192(3)
H1B H 1.2287 -0.2834 -0.1664
C4B C 1.3320(3) -0.3696(2) -0.2132(3)
C5B C 1.3633(5) -0.3922(3) -0.2910(4)
H2B H 1.4200 -0.4387 -0.2869
C6B C 1.3118(5) -0.3472(4) -0.3750(4)
H3B H 1.3332 -0.3633 -0.4275
C7B C 1.2289(5) -0.2787(3) -0.3808(4)
H4B H 1.1936 -0.2487 -0.4379
C8B C 1.3900(3) -0.4192(2) -0.1233(3)
C9B C 0.8196(5) -0.2716(3) -0.4132(4)
H5B H 0.8873 -0.2842 -0.4360
C10B C 0.7588(5) -0.3403(3) -0.3859(4)
H6B H 0.7841 -0.3973 -0.3913
C11B C 0.6615(5) -0.3231(3) -0.3509(4)
H7B H 0.6189 -0.3676 -0.3311
C12B C 0.6272(4) -0.2358(3) -0.3458(3)
H8B H 0.5616 -0.2214 -0.3215
C13B C 0.6902(3) -0.1725(2) -0.3765(3)
C14B C 0.6643(3) -0.0784(2) -0.3767(3)
C15B C 0.7015(4) 0.0591(2) -0.3889(3)
C16B C 0.7495(4) 0.1412(3) -0.4003(3)
H9B H 0.8305 0.1479 -0.4084
C17B C 0.6723(4) 0.2110(3) -0.3992(4)
H10B H 0.7014 0.2665 -0.4067
C18B C 0.5504(4) 0.2015(3) -0.3870(3)
H11B H 0.5010 0.2509 -0.3867
C19B C 0.5020(4) 0.1226(3) -0.3756(3)
H12B H 0.4207 0.1164 -0.3681
C20B C 0.5808(4) 0.0519(2) -0.3760(3)
C21B C 0.4339(4) -0.0701(3) -0.3606(3)
H13B H 0.3607 -0.0423 -0.4093
H14B H 0.4282 -0.1320 -0.3735
C22B C 0.4206(5) -0.0545(3) -0.2643(4)
H15B H 0.3287 -0.0620 -0.2712
H16B H 0.4438 0.0055 -0.2464
C23B C 0.4999(5) -0.1099(4) -0.1868(4)
H17B H 0.4825 -0.1703 -0.2053
H18B H 0.5927 -0.0988 -0.1745
C24B C 0.4686(6) -0.0932(4) -0.0933(4)
H19B H 0.5098 -0.1388 -0.0480
H20B H 0.3740 -0.0977 -0.1083
C25B C 0.5141(6) -0.0067(4) -0.0468(4)
H21B H 0.6083 -0.0013 -0.0333
H22B H 0.4706 0.0391 -0.0910
N1B N 0.5594(3) -0.0368(2) -0.3671(2)
N2B N 0.7519(3) -0.0237(2) -0.3892(2)
N3B N 0.7876(3) -0.1890(2) -0.4091(3)
O1A O 0.8286(2) -0.08288(17) -0.5662(2)
O1C O 0.1714(2) 0.08288(17) 0.5662(2)
O1B O 1.3286(2) -0.41712(17) -0.0662(2)
O2A O -0.0038(2) -0.04280(18) 0.3901(2)
O2C O 1.0038(2) 0.04280(18) -0.3901(2)
O2B O 1.4962(2) -0.45720(18) -0.1099(2)
O3B O 1.0807(3) -0.1550(2) -0.2421(3)
O4B O 1.0580(3) -0.1460(2) -0.3947(3)
O5 O 0.0823(9) 0.0565(4) 0.1515(7)
O6? O -0.013(2) 0.0583(9) 0.0899(11)
loop_
_geom_bond_atom_site_label_1
_geom_bond_atom_site_label_2
_geom_bond_site_symmetry_1
_geom_bond_site_symmetry_2
Zn1 N2 1_555 1_555
C1 C2 1_555 1_555
C2 C3 1_555 1_555
C3 H1 1_555 1_555
C4 C3 1_555 1_555
C5 C4 1_555 1_555
H2 C5 1_555 1_555
C6 C5 1_555 1_555
H3 C6 1_555 1_555
C7 C2 1_555 1_555
H4 C7 1_555 1_555
C8 C4 1_555 1_555
C9 H5 1_555 1_555
C10 C9 1_555 1_555
H6 C10 1_555 1_555
C11 C10 1_555 1_555
H7 C11 1_555 1_555
C12 C11 1_555 1_555
H8 C12 1_555 1_555
C13 C12 1_555 1_555
C14 C13 1_555 1_555
C15 C16 1_555 1_555
C16 H9 1_555 1_555
C17 C16 1_555 1_555
H10 C17 1_555 1_555
C18 C17 1_555 1_555
H11 C18 1_555 1_555
C19 C18 1_555 1_555
H12 C19 1_555 1_555
C20 C15 1_555 1_555
C21 H13 1_555 1_555
H14 C21 1_555 1_555
C22 C21 1_555 1_555
H15 C22 1_555 1_555
H16 C22 1_555 1_555
C23 C22 1_555 1_555
H17 C23 1_555 1_555
H18 C23 1_555 1_555
C24 C23 1_555 1_555
H19 C24 1_555 1_555
H20 C24 1_555 1_555
C25 C24 1_555 1_555
H21 C25 1_555 1_555
H22 C25 1_555 1_555
N1 C14 1_555 1_555
N2 C14 1_555 1_555
N3 Zn1 1_555 1_555
O1 C8 1_555 1_555
O2 C8 1_555 1_555
O3 C1 1_555 1_555
O4 Zn1 1_555 1_555
Zn1B N2B 1_555 1_555
Zn1C O1 1_555 1_555
Zn1A O2 1_555 1_555
Zn1A_2 O1B 1_555 1_555
Zn1C_2 O2B 1_555 1_555
C1B C2B 1_555 1_555
C2B C3B 1_555 1_555
C3B H1B 1_555 1_555
C4B C3B 1_555 1_555
C5B C4B 1_555 1_555
H2B C5B 1_555 1_555
C6B C5B 1_555 1_555
H3B C6B 1_555 1_555
C7B C2B 1_555 1_555
H4B C7B 1_555 1_555
C8B C4B 1_555 1_555
C9B H5B 1_555 1_555
C10B C9B 1_555 1_555
H6B C10B 1_555 1_555
C11B C10B 1_555 1_555
H7B C11B 1_555 1_555
C12B C11B 1_555 1_555
H8B C12B 1_555 1_555
C13B C12B 1_555 1_555
C14B C13B 1_555 1_555
C15B C16B 1_555 1_555
C16B H9B 1_555 1_555
C17B C16B 1_555 1_555
H10B C17B 1_555 1_555
C18B C17B 1_555 1_555
H11B C18B 1_555 1_555
C19B C18B 1_555 1_555
H12B C19B 1_555 1_555
C20B C15B 1_555 1_555
C21B H13B 1_555 1_555
H14B C21B 1_555 1_555
C22B C21B 1_555 1_555
H15B C22B 1_555 1_555
H16B C22B 1_555 1_555
C23B C22B 1_555 1_555
H17B C23B 1_555 1_555
H18B C23B 1_555 1_555
C24B C23B 1_555 1_555
H19B C24B 1_555 1_555
H20B C24B 1_555 1_555
C25B C25 1_555 1_555
H21B C25B 1_555 1_555
H22B C25B 1_555 1_555
N1B C14B 1_555 1_555
N2B C14B 1_555 1_555
N3B Zn1B 1_555 1_555
O1A Zn1B 1_555 1_555
O1C Zn1 1_555 1_555
O1B C8B 1_555 1_555
O2A Zn1 1_555 1_555
O2C Zn1B 1_555 1_555
O2B C8B 1_555 1_555
O3B C1B 1_555 1_555
O4B Zn1B 1_555 1_555
C1 O4 1_555 1_555
C6 C7 1_555 1_555
C9 N3 1_555 1_555
C13 N3 1_555 1_555
C15 N2 1_555 1_555
C19 C20 1_555 1_555
C20 N1 1_555 1_555
C21 N1 1_555 1_555
C1B O4B 1_555 1_555
C6B C7B 1_555 1_555
C9B N3B 1_555 1_555
C13B N3B 1_555 1_555
C15B N2B 1_555 1_555
C19B C20B 1_555 1_555
C20B N1B 1_555 1_555
C21B N1B 1_555 1_555
C24B C25B 1_555 1_555

#END
