
#######################################################################
#
#                 Cambridge Crystallographic Data Centre
#                                CCDC 
#
#######################################################################
#
# If this CIF has been generated from an entry in the Cambridge 
# Structural Database, then it will include bibliographic, chemical, 
# crystal, experimental, refinement or atomic coordinate data resulting 
# from the CCDC's data processing and validation procedures.
#
#######################################################################

data_UNIRUF
_symmetry_cell_setting           orthorhombic
_symmetry_space_group_name_H-M   'P 21 21 21'
_symmetry_Int_Tables_number      19
_space_group_name_Hall           'P 2ac 2ab'
loop_
_symmetry_equiv_pos_site_id
_symmetry_equiv_pos_as_xyz
1 x,y,z
2 1/2-x,-y,1/2+z
3 1/2+x,1/2-y,-z
4 -x,1/2+y,1/2-z
_cell_length_a                   5.0445(3)
_cell_length_b                   14.9300(12)
_cell_length_c                   16.1053(12)
_cell_angle_alpha                90
_cell_angle_beta                 90
_cell_angle_gamma                90
_cell_volume                     1212.96
loop_
_atom_site_label
_atom_site_type_symbol
_atom_site_fract_x
_atom_site_fract_y
_atom_site_fract_z
O1 O 0.0226(4) 0.03328(16) 0.09152(14)
C1 C 0.1904(6) -0.0241(2) 0.0446(2)
Li1 Li -0.0797(11) 0.0375(4) 0.2112(4)
C2 C 0.0567(7) -0.1141(2) 0.02624(19)
C3 C 0.2714(6) 0.0199(2) -0.0381(2)
O2 O -0.2377(4) -0.07657(13) 0.24151(14)
O3 O 0.2691(4) 0.06386(13) 0.25335(14)
O4 O -0.3504(4) 0.12498(16) 0.20893(16)
O5 O 0.2044(4) -0.18005(16) 0.01002(14)
O6 O -0.1920(4) -0.11459(16) 0.02760(15)
O7 O 0.0530(4) 0.02839(16) -0.09365(14)
C4 C 0.4014(7) 0.1111(2) -0.02112(19)
Li2 Li 0.4137(11) -0.0506(4) 0.2882(4)
C5 C 0.4062(6) 0.1269(2) 0.22413(19)
Li3 Li 0.5631(11) -0.2109(4) 0.0413(3)
O8 O 0.2588(4) 0.18025(14) -0.01873(14)
O9 O 0.6482(4) 0.11261(17) -0.01091(14)
O10 O 0.1588(4) -0.14155(14) 0.24972(16)
C6 C 0.2633(6) 0.2149(2) 0.2053(2)
O11 O -0.4403(5) -0.22737(16) 0.16417(14)
Li4 Li -0.1086(11) 0.2097(4) -0.0333(4)
O12 O 0.4228(5) 0.26889(16) 0.15191(14)
C7 C 0.2091(6) 0.2654(2) 0.2868(2)
C8 C 0.0866(6) 0.3562(2) 0.26396(19)
Li3B Li 0.0631(11) -0.2891(4) -0.0413(3)
Li3_2 Li -0.4369(11) -0.2109(4) 0.0413(3)
Li2A Li 0.0863(11) 0.0506(4) -0.2118(4)
O7A O 0.4470(4) -0.02839(16) 0.40635(14)
O2_2 O 0.7623(4) -0.07657(13) 0.24151(14)
O4_2 O 0.6496(4) 0.12498(16) 0.20893(16)
O5B O -0.2956(4) -0.31995(16) -0.01002(14)
O5_2 O -0.7956(4) -0.18005(16) 0.01002(14)
Li4B Li 0.3914(11) 0.2903(4) 0.0333(4)
Li4_2 Li 0.8914(11) 0.2097(4) -0.0333(4)
Li1_2 Li 0.9203(11) 0.0375(4) 0.2112(4)
O8B O 0.7588(4) 0.31975(14) 0.01873(14)
O12B O 0.9228(5) 0.23111(16) -0.15191(14)
O8_2 O 1.2588(4) 0.18025(14) -0.01873(14)
O11C O 0.4403(5) 0.27263(16) 0.33583(14)
O10C O -0.1588(4) 0.35845(14) 0.25028(16)
O2C O 0.2377(4) 0.42343(13) 0.25849(14)
Li3C Li 0.4369(11) 0.2891(4) 0.4587(3)
Li2C Li -0.4137(11) 0.4494(4) 0.2118(4)
Li1C Li 0.0797(11) 0.5375(4) 0.2888(4)
Li2C_2 Li 0.5863(11) 0.4494(4) 0.2118(4)
loop_
_geom_bond_atom_site_label_1
_geom_bond_atom_site_label_2
_geom_bond_site_symmetry_1
_geom_bond_site_symmetry_2
O1 C1 1_555 1_555
C1 C2 1_555 1_555
Li1 O1 1_555 1_555
C2 O5 1_555 1_555
C3 C1 1_555 1_555
O2 Li1 1_555 1_555
O3 Li1 1_555 1_555
O4 Li1 1_555 1_555
O5 Li3 1_555 1_555
O6 C2 1_555 1_555
O7 C3 1_555 1_555
C4 C3 1_555 1_555
Li2 O3 1_555 1_555
C5 O3 1_555 1_555
O8 C4 1_555 1_555
O9 C4 1_555 1_555
O10 Li2 1_555 1_555
C6 C5 1_555 1_555
O11 Li3_2 1_555 1_555
Li4 O8 1_555 1_555
O12 C6 1_555 1_555
C7 C6 1_555 1_555
C8 C7 1_555 1_555
Li3B O5 1_555 1_555
Li3_2 O6 1_555 1_555
Li2A O7 1_555 1_555
O7A Li2 1_555 1_555
O2_2 Li2 1_555 1_555
O4_2 C5 1_555 1_555
O5B Li3B 1_555 1_555
O5_2 Li3_2 1_555 1_555
Li4B O8 1_555 1_555
Li4_2 O9 1_555 1_555
Li1_2 O2_2 1_555 1_555
O8B Li4B 1_555 1_555
O12B Li4_2 1_555 1_555
O8_2 Li4_2 1_555 1_555
O11C C7 1_555 1_555
O10C C8 1_555 1_555
O2C C8 1_555 1_555
Li3C O11C 1_555 1_555
Li2C O10C 1_555 1_555
Li1C O2C 1_555 1_555
Li2C_2 O2C 1_555 1_555
O12 Li4B 1_555 1_555
Li3_2 O5B 1_555 1_555
O4_2 Li1_2 1_555 1_555
Li4_2 O8B 1_555 1_555

#END
