
#######################################################################
#
#                 Cambridge Crystallographic Data Centre
#                                CCDC 
#
#######################################################################
#
# If this CIF has been generated from an entry in the Cambridge 
# Structural Database, then it will include bibliographic, chemical, 
# crystal, experimental, refinement or atomic coordinate data resulting 
# from the CCDC's data processing and validation procedures.
#
#######################################################################

data_UNISIU01
_symmetry_cell_setting           monoclinic
_symmetry_space_group_name_H-M   'P 21/c'
_symmetry_Int_Tables_number      14
_space_group_name_Hall           '-P 2ybc'
loop_
_symmetry_equiv_pos_site_id
_symmetry_equiv_pos_as_xyz
1 x,y,z
2 -x,1/2+y,1/2-z
3 -x,-y,-z
4 x,1/2-y,1/2+z
_cell_length_a                   12.0809(15)
_cell_length_b                   4.9703(6)
_cell_length_c                   9.4471(11)
_cell_angle_alpha                90
_cell_angle_beta                 91.241(11)
_cell_angle_gamma                90
_cell_volume                     567.125
loop_
_atom_site_label
_atom_site_type_symbol
_atom_site_fract_x
_atom_site_fract_y
_atom_site_fract_z
Li1 Li 0.4253(3) -0.6902(9) 0.7589(4)
Li2 Li 0.0598(4) 0.5561(9) 0.2928(4)
O1 O 0.33543(14) 0.1625(3) 0.42509(14)
H1 H 0.342(2) 0.271(5) 0.493(2)
O2 O 0.36559(15) -0.4476(3) 0.62065(14)
O3 O 0.17711(15) 0.0627(3) 0.66212(15)
H2 H 0.170(3) 0.229(2) 0.641(3)
O4 O 0.08388(15) 0.3069(4) 0.44385(15)
O5 O 0.07885(15) -0.0617(3) 0.30885(14)
O6 O 0.43119(14) -0.0436(3) 0.67289(15)
C1 C 0.3722(2) -0.2014(5) 0.6004(2)
C2 C 0.1807(2) -0.0752(5) 0.5298(2)
H3 H 0.1528 -0.2587 0.5421
C3 C 0.10820(19) 0.0701(5) 0.4189(2)
C4 C 0.2989(2) -0.0879(5) 0.4775(2)
H4 H 0.3004 -0.2176 0.3994
Li1_2 Li 0.4253(3) 0.3098(9) 0.7589(4)
Li1A Li 0.5747(3) -0.1902(9) 0.7411(4)
Li1C Li 0.4253(3) 0.1902(9) 0.2589(4)
Li2_2 Li 0.0598(4) -0.4439(9) 0.2928(4)
Li2A Li -0.0598(4) 0.0561(9) 0.2072(4)
Li2C Li 0.0598(4) -0.0561(9) 0.7928(4)
O1C O 0.33543(14) -0.6625(3) 0.92509(14)
O3C O 0.17711(15) 0.4373(3) 0.16212(15)
O5_2 O 0.07885(15) 0.9383(3) 0.30885(14)
O5A O -0.07885(15) 0.4383(3) 0.19115(14)
O6_2 O 0.43119(14) -1.0436(3) 0.67289(15)
O6A O 0.56881(14) -0.5436(3) 0.82711(15)
loop_
_geom_bond_atom_site_label_1
_geom_bond_atom_site_label_2
_geom_bond_site_symmetry_1
_geom_bond_site_symmetry_2
Li1 O2 1_555 1_555
Li2 O4 1_555 1_555
O1 H1 1_555 1_555
O2 C1 1_555 1_555
O3 H2 1_555 1_555
O4 C3 1_555 1_555
O5 C3 1_555 1_555
O6 C1 1_555 1_555
C1 C4 1_555 1_555
C2 O3 1_555 1_555
H3 C2 1_555 1_555
C3 C2 1_555 1_555
C4 O1 1_555 1_555
H4 C4 1_555 1_555
Li1_2 O6 1_555 1_555
Li1A O6 1_555 1_555
Li1C O1 1_555 1_555
Li2_2 O5 1_555 1_555
Li2A O5 1_555 1_555
Li2C O3 1_555 1_555
O1C Li1 1_555 1_555
O3C Li2 1_555 1_555
O5_2 Li2 1_555 1_555
O5A Li2 1_555 1_555
O6_2 Li1 1_555 1_555
O6A Li1 1_555 1_555
C2 C4 1_555 1_555
Li1A O6A 1_555 1_555
Li2A O5A 1_555 1_555

#END
