
#######################################################################
#
#                 Cambridge Crystallographic Data Centre
#                                CCDC 
#
#######################################################################
#
# If this CIF has been generated from an entry in the Cambridge 
# Structural Database, then it will include bibliographic, chemical, 
# crystal, experimental, refinement or atomic coordinate data resulting 
# from the CCDC's data processing and validation procedures.
#
#######################################################################

data_UNIYAS
_symmetry_cell_setting           monoclinic
_symmetry_space_group_name_H-M   'P 21/n'
_symmetry_Int_Tables_number      14
_space_group_name_Hall           '-P 2yn'
loop_
_symmetry_equiv_pos_site_id
_symmetry_equiv_pos_as_xyz
1 x,y,z
2 1/2-x,1/2+y,1/2-z
3 -x,-y,-z
4 1/2+x,1/2-y,1/2+z
_cell_length_a                   7.415(3)
_cell_length_b                   11.426(4)
_cell_length_c                   10.950(4)
_cell_angle_alpha                90
_cell_angle_beta                 97.307(7)
_cell_angle_gamma                90
_cell_volume                     920.191
loop_
_atom_site_label
_atom_site_type_symbol
_atom_site_fract_x
_atom_site_fract_y
_atom_site_fract_z
C1 C 0.0496(8) 0.7389(5) -0.0578(7)
H1 H -0.0705 0.7450 -0.0939
C2 C 0.1365(8) 0.6328(5) -0.0637(7)
H2 H 0.0758 0.5697 -0.1038
C3 C 0.3181(8) 0.6207(5) -0.0086(7)
C4 C 0.3954(8) 0.7169(5) 0.0524(7)
H3 H 0.5137 0.7129 0.0923
C5 C 0.2991(7) 0.8183(5) 0.0544(7)
H4 H 0.3542 0.8814 0.0981
C6 C 0.4117(9) 0.5087(5) -0.0174(8)
H5 H 0.3429 0.4452 -0.0495
N1 N 0.1284(6) 0.8326(4) -0.0032(5)
Ni1 Ni 0.0000 1.0000 0.0000
O1 O 0.0809(9) 1.0135(4) 0.1951(7)
H6 H 0.098(12) 0.946(4) 0.242(7)
H7 H 0.200(4) 1.036(7) 0.189(9)
O2 O 0.2381(6) 1.0811(4) -0.0466(7)
H8 H 0.226(11) 1.148(5) -0.095(7)
H9 H 0.306(10) 1.024(6) -0.080(9)
C1B C 0.9504(8) 0.2611(5) 0.0578(7)
H1B H 1.0705 0.2550 0.0939
C2B C 0.8635(8) 0.3672(5) 0.0637(7)
H2B H 0.9242 0.4303 0.1038
C3B C 0.6819(8) 0.3793(5) 0.0086(7)
C4B C 0.6046(8) 0.2831(5) -0.0524(7)
H3B H 0.4863 0.2871 -0.0923
C5B C 0.7009(7) 0.1817(5) -0.0544(7)
H4B H 0.6458 0.1186 -0.0981
C6B C 0.5883(9) 0.4913(5) 0.0174(8)
H5B H 0.6571 0.5548 0.0495
N1B N 0.8716(6) 0.1674(4) 0.0032(5)
N1B_2 N -0.1284(6) 1.1674(4) 0.0032(5)
Ni1_2 Ni 1.0000 0.0000 0.0000
O1B O -0.0809(9) 0.9865(4) -0.1951(7)
H6B H -0.098(12) 1.054(4) -0.242(7)
H7B H -0.200(4) 0.964(7) -0.189(9)
O2B O -0.2381(6) 0.9189(4) 0.0466(7)
H8B H -0.226(11) 0.852(5) 0.095(7)
H9B H -0.306(10) 0.976(6) 0.080(9)
N2 N 0.4686(7) 0.8286(5) 0.7660(6)
O3 O 0.4935(7) 0.9318(4) 0.8009(6)
O4 O 0.5938(8) 0.7571(5) 0.7875(7)
O5 O 0.3209(7) 0.7990(5) 0.7106(7)
loop_
_geom_bond_atom_site_label_1
_geom_bond_atom_site_label_2
_geom_bond_site_symmetry_1
_geom_bond_site_symmetry_2
C1 H1 1_555 1_555
C2 C1 1_555 1_555
H2 C2 1_555 1_555
C3 C2 1_555 1_555
C4 C3 1_555 1_555
H3 C4 1_555 1_555
C5 C4 1_555 1_555
H4 C5 1_555 1_555
C6 C3 1_555 1_555
H5 C6 1_555 1_555
N1 C1 1_555 1_555
Ni1 N1 1_555 1_555
O1 Ni1 1_555 1_555
H6 O1 1_555 1_555
H7 O1 1_555 1_555
O2 Ni1 1_555 1_555
H8 O2 1_555 1_555
H9 O2 1_555 1_555
N2 O3 1_555 1_555
O4 N2 1_555 1_555
O5 N2 1_555 1_555
C1B H1B 1_555 1_555
C2B C1B 1_555 1_555
H2B C2B 1_555 1_555
C3B C2B 1_555 1_555
C4B C3B 1_555 1_555
H3B C4B 1_555 1_555
C5B C4B 1_555 1_555
H4B C5B 1_555 1_555
C6B C6 1_555 1_555
H5B C6B 1_555 1_555
N1B C1B 1_555 1_555
N1B_2 Ni1 1_555 1_555
Ni1_2 N1B 1_555 1_555
O1B Ni1 1_555 1_555
H6B O1B 1_555 1_555
H7B O1B 1_555 1_555
O2B Ni1 1_555 1_555
H8B O2B 1_555 1_555
H9B O2B 1_555 1_555
C5 N1 1_555 1_555
C3B C6B 1_555 1_555
C5B N1B 1_555 1_555

#END
