
#######################################################################
#
#                 Cambridge Crystallographic Data Centre
#                                CCDC 
#
#######################################################################
#
# If this CIF has been generated from an entry in the Cambridge 
# Structural Database, then it will include bibliographic, chemical, 
# crystal, experimental, refinement or atomic coordinate data resulting 
# from the CCDC's data processing and validation procedures.
#
#######################################################################

data_UNOCUW
_symmetry_cell_setting           orthorhombic
_symmetry_space_group_name_H-M   'P b c n'
_symmetry_Int_Tables_number      60
_space_group_name_Hall           '-P 2n 2ab'
loop_
_symmetry_equiv_pos_site_id
_symmetry_equiv_pos_as_xyz
1 x,y,z
2 1/2-x,1/2-y,1/2+z
3 -x,y,1/2-z
4 1/2+x,1/2-y,-z
5 -x,-y,-z
6 1/2+x,1/2+y,1/2-z
7 x,-y,1/2+z
8 1/2-x,1/2+y,z
_cell_length_a                   18.9148(12)
_cell_length_b                   23.7112(16)
_cell_length_c                   7.8701(4)
_cell_angle_alpha                90
_cell_angle_beta                 90
_cell_angle_gamma                90
_cell_volume                     3529.68
loop_
_atom_site_label
_atom_site_type_symbol
_atom_site_fract_x
_atom_site_fract_y
_atom_site_fract_z
Mn1 Mn 0.714708(13) 0.679735(11) 0.66543(3)
N1 N 0.63968(9) 0.50825(7) 0.6050(2)
H1 H 0.6084 0.4848 0.5691
N2 N 0.69188(8) 0.59024(6) 0.66113(19)
O1 O 0.87986(7) 0.76794(5) 0.66947(17)
O2 O 0.82557(7) 0.68414(6) 0.66449(17)
O3 O 1.10704(7) 0.78800(6) 0.35783(17)
O4 O 1.17794(7) 0.71432(7) 0.34280(16)
O5 O 0.71498(6) 0.68148(5) 0.94037(17)
H2 H 0.7534 0.6897 1.0001
H3 H 0.6793 0.6937 1.0010
O6 O 0.71830(6) 0.69029(5) 0.39202(17)
H4 H 0.7572 0.6963 0.3418
H5 H 0.6861 0.7025 0.3247
C1 C 0.63681(10) 0.56472(8) 0.5930(2)
H10 H 0.5996 0.5839 0.5417
C2 C 0.79996(10) 0.54864(8) 0.8052(2)
H11 H 0.8220 0.5827 0.8297
C3 C 0.83029(11) 0.49747(9) 0.8501(3)
H12 H 0.8739 0.4972 0.9049
C4 C 0.79648(12) 0.44598(9) 0.8146(3)
H13 H 0.8180 0.4125 0.8482
C5 C 0.73256(12) 0.44362(8) 0.7318(3)
H14 H 0.7106 0.4094 0.7077
C6 C 0.70224(11) 0.49489(8) 0.6857(2)
C7 C 0.73497(10) 0.54671(7) 0.7219(2)
C8 C 0.87791(9) 0.71565(8) 0.6380(2)
C9 C 0.94298(9) 0.68872(7) 0.5625(2)
C10 C 0.99726(9) 0.72230(7) 0.4988(2)
H15 H 0.9924 0.7613 0.4997
C11 C 1.05886(9) 0.69817(8) 0.4339(2)
C12 C 1.06567(10) 0.63953(8) 0.4316(2)
H16 H 1.1069 0.6230 0.3905
C13 C 1.01092(11) 0.60590(8) 0.4908(3)
H17 H 1.0152 0.5669 0.4866
C14 C 0.94988(10) 0.63001(8) 0.5563(2)
H18 H 0.9135 0.6071 0.5962
C15 C 1.11786(9) 0.73519(8) 0.3725(2)
Mn1C Mn 0.214708(13) 0.820265(11) 0.33457(3)
Mn1C_2 Mn 1.214708(13) 0.820265(11) 0.33457(3)
N1C N 0.13968(9) 0.99175(7) 0.3950(2)
H1C H 0.1084 1.0152 0.4309
N2C N 0.19188(8) 0.90976(6) 0.33887(19)
O1C O 0.37986(7) 0.73206(5) 0.33053(17)
O2C O 0.32557(7) 0.81586(6) 0.33551(17)
O3C O 0.60704(7) 0.71200(6) 0.64217(17)
O3_2 O 0.10704(7) 0.78800(6) 0.35783(17)
O4C O 0.67794(7) 0.78568(7) 0.65720(16)
O4_2 O 0.17794(7) 0.71432(7) 0.34280(16)
O5C O 0.21498(6) 0.81852(5) 0.05963(17)
H2C H 0.2534 0.8103 -0.0001
H3C H 0.1793 0.8063 -0.0010
O6C O 0.21830(6) 0.80971(5) 0.60798(17)
H4C H 0.2572 0.8037 0.6582
H5C H 0.1861 0.7975 0.6753
C1C C 0.13681(10) 0.93528(8) 0.4070(2)
H10C H 0.0996 0.9161 0.4583
C2C C 0.29996(10) 0.95136(8) 0.1948(2)
H11C H 0.3220 0.9173 0.1703
C3C C 0.33029(11) 1.00253(9) 0.1499(3)
H12C H 0.3739 1.0028 0.0951
C4C C 0.29648(12) 1.05402(9) 0.1854(3)
H13C H 0.3180 1.0875 0.1518
C5C C 0.23256(12) 1.05638(8) 0.2682(3)
H14C H 0.2106 1.0906 0.2923
C6C C 0.20224(11) 1.00511(8) 0.3143(2)
C7C C 0.23497(10) 0.95329(7) 0.2781(2)
C8C C 0.37791(9) 0.78435(8) 0.3620(2)
C9C C 0.44298(9) 0.81128(7) 0.4375(2)
C10C C 0.49726(9) 0.77770(7) 0.5012(2)
H15C H 0.4924 0.7387 0.5003
C11C C 0.55886(9) 0.80183(8) 0.5661(2)
C12C C 0.56567(10) 0.86047(8) 0.5684(2)
H16C H 0.6069 0.8770 0.6095
C13C C 0.51092(11) 0.89410(8) 0.5092(3)
H17C H 0.5152 0.9331 0.5134
C14C C 0.44988(10) 0.86999(8) 0.4437(2)
H18C H 0.4135 0.8929 0.4038
C15C C 0.61786(9) 0.76481(8) 0.6275(2)
O7 O 0.5000 0.66207(9) 0.2500
H6 H 0.4605 0.6869 0.2419
H6B H 0.5395 0.6869 0.2581
O8 O 0.5000 0.64354(8) 0.7500
H7 H 0.5364 0.6685 0.7171
H7B H 0.4636 0.6685 0.7829
O9 O 0.45942(9) 0.57472(7) 0.4780(2)
H8 H 0.4713 0.5996 0.3886
H9 H 0.4773 0.5905 0.5737
loop_
_geom_bond_atom_site_label_1
_geom_bond_atom_site_label_2
_geom_bond_site_symmetry_1
_geom_bond_site_symmetry_2
Mn1 N2 1_555 1_555
N1 H1 1_555 1_555
N2 C1 1_555 1_555
O1 C8 1_555 1_555
O2 Mn1 1_555 1_555
O3 C15 1_555 1_555
O4 C15 1_555 1_555
O5 Mn1 1_555 1_555
H2 O5 1_555 1_555
H3 O5 1_555 1_555
O6 Mn1 1_555 1_555
H4 O6 1_555 1_555
H5 O6 1_555 1_555
O7 H6 1_555 1_555
O8 H7 1_555 1_555
O9 H8 1_555 1_555
H9 O9 1_555 1_555
C1 N1 1_555 1_555
H10 C1 1_555 1_555
C2 H11 1_555 1_555
C3 C2 1_555 1_555
H12 C3 1_555 1_555
C4 C3 1_555 1_555
H13 C4 1_555 1_555
C5 C4 1_555 1_555
H14 C5 1_555 1_555
C6 N1 1_555 1_555
C7 N2 1_555 1_555
C8 O2 1_555 1_555
C9 C8 1_555 1_555
C10 C9 1_555 1_555
H15 C10 1_555 1_555
C11 C10 1_555 1_555
C12 C11 1_555 1_555
H16 C12 1_555 1_555
C13 C12 1_555 1_555
H17 C13 1_555 1_555
C14 C9 1_555 1_555
H18 C14 1_555 1_555
C15 C11 1_555 1_555
Mn1C N2C 1_555 1_555
Mn1C_2 O3 1_555 1_555
N1C H1C 1_555 1_555
N2C C1C 1_555 1_555
O1C C8C 1_555 1_555
O2C Mn1C 1_555 1_555
O3C Mn1 1_555 1_555
O3_2 Mn1C 1_555 1_555
O4C Mn1 1_555 1_555
O4_2 Mn1C 1_555 1_555
O5C Mn1C 1_555 1_555
H2C O5C 1_555 1_555
H3C O5C 1_555 1_555
O6C Mn1C 1_555 1_555
H4C O6C 1_555 1_555
H5C O6C 1_555 1_555
H6B O7 1_555 1_555
H7B O8 1_555 1_555
C1C N1C 1_555 1_555
H10C C1C 1_555 1_555
C2C H11C 1_555 1_555
C3C C2C 1_555 1_555
H12C C3C 1_555 1_555
C4C C3C 1_555 1_555
H13C C4C 1_555 1_555
C5C C4C 1_555 1_555
H14C C5C 1_555 1_555
C6C N1C 1_555 1_555
C7C N2C 1_555 1_555
C8C O2C 1_555 1_555
C9C C8C 1_555 1_555
C10C C9C 1_555 1_555
H15C C10C 1_555 1_555
C11C C10C 1_555 1_555
C12C C11C 1_555 1_555
H16C C12C 1_555 1_555
C13C C12C 1_555 1_555
H17C C13C 1_555 1_555
C14C C9C 1_555 1_555
H18C C14C 1_555 1_555
C15C O3C 1_555 1_555
O4 Mn1C_2 1_555 1_555
C2 C7 1_555 1_555
C5 C6 1_555 1_555
C6 C7 1_555 1_555
C13 C14 1_555 1_555
O4C C15C 1_555 1_555
C2C C7C 1_555 1_555
C5C C6C 1_555 1_555
C6C C7C 1_555 1_555
C11C C15C 1_555 1_555
C13C C14C 1_555 1_555

#END
