
#######################################################################
#
#                 Cambridge Crystallographic Data Centre
#                                CCDC 
#
#######################################################################
#
# If this CIF has been generated from an entry in the Cambridge 
# Structural Database, then it will include bibliographic, chemical, 
# crystal, experimental, refinement or atomic coordinate data resulting 
# from the CCDC's data processing and validation procedures.
#
#######################################################################

data_UNOKAK
_symmetry_cell_setting           triclinic
_symmetry_space_group_name_H-M   'P -1'
_symmetry_Int_Tables_number      2
_space_group_name_Hall           '-P 1'
loop_
_symmetry_equiv_pos_site_id
_symmetry_equiv_pos_as_xyz
1 x,y,z
2 -x,-y,-z
_cell_length_a                   9.4944(6)
_cell_length_b                   9.7810(7)
_cell_length_c                   24.4049(9)
_cell_angle_alpha                84.111(4)
_cell_angle_beta                 88.765(4)
_cell_angle_gamma                63.245(7)
_cell_volume                     2012.26
loop_
_atom_site_label
_atom_site_type_symbol
_atom_site_fract_x
_atom_site_fract_y
_atom_site_fract_z
C1 C 0.4668(4) 0.6968(4) 0.36130(15)
H1 H 0.4077 0.8025 0.3622
C2 C 0.5853(4) 0.6290(4) 0.32737(14)
H2 H 0.6228 0.6782 0.3006
C3 C 0.5543(3) 0.4537(4) 0.38025(12)
H3 H 0.5684 0.3582 0.3967
C4 C 0.7804(4) 0.3517(4) 0.31781(13)
H4 H 0.8024 0.2545 0.3390
H5 H 0.8700 0.3721 0.3228
C5 C 0.7643(3) 0.3364(4) 0.25806(12)
C6 C 0.7031(4) 0.2437(4) 0.24143(14)
H6 H 0.6644 0.1941 0.2676
C7 C 0.6983(4) 0.2230(4) 0.18644(14)
H7 H 0.6568 0.1593 0.1761
C8 C 0.7542(3) 0.2957(4) 0.14689(12)
C9 C 0.8099(4) 0.3932(4) 0.16302(13)
H8 H 0.8429 0.4473 0.1366
C10 C 0.8176(4) 0.4119(4) 0.21810(13)
H9 H 0.8590 0.4758 0.2284
C11 C 0.7589(3) 0.2668(4) 0.08728(13)
H10 H 0.6876 0.2234 0.0809
H11 H 0.7233 0.3638 0.0642
C12 C 1.0059(4) 0.1906(4) 0.03344(13)
H12 H 0.9732 0.2842 0.0118
C13 C 1.0080(4) 0.0133(4) 0.09413(14)
H13 H 0.9794 -0.0401 0.1223
C14 C 1.1443(4) -0.0405(4) 0.06767(14)
H14 H 1.2268 -0.1392 0.0743
C15 C 1.4332(4) 0.1450(5) -0.14000(15)
H15 H 1.3515 0.2445 -0.1411
C16 C 1.5447(4) 0.0934(5) -0.17812(14)
H16 H 1.5539 0.1493 -0.2100
C17 C 1.5860(4) -0.0903(4) -0.11316(13)
H17 H 1.6319 -0.1859 -0.0924
C18 C 1.7908(4) -0.1566(5) -0.18476(13)
H18 H 1.8364 -0.2558 -0.1628
H19 H 1.8631 -0.1120 -0.1825
C19 C 1.7766(3) -0.1816(4) -0.24384(12)
C20 C 1.7362(4) -0.2936(4) -0.25662(13)
H20 H 1.7087 -0.3481 -0.2286
C21 C 1.7358(4) -0.3263(4) -0.31030(14)
H21 H 1.7089 -0.4030 -0.3178
C22 C 1.7748(3) -0.2467(4) -0.35278(11)
C23 C 1.8106(3) -0.1309(4) -0.34061(12)
H22 H 1.8338 -0.0736 -0.3689
C24 C 1.8123(4) -0.0996(4) -0.28692(13)
H23 H 1.8378 -0.0219 -0.2794
C25 C 1.7813(3) -0.2857(4) -0.41137(13)
H24 H 1.7261 -0.3475 -0.4142
H25 H 1.7272 -0.1913 -0.4356
C26 C 2.1755(4) -0.5495(4) -0.44614(14)
H26 H 2.2632 -0.6446 -0.4467
C27 C 2.0211(3) -0.3084(4) -0.46087(12)
H27 H 1.9806 -0.2044 -0.4733
C28 C 2.0419(4) -0.5236(4) -0.41991(14)
H28 H 2.0203 -0.5966 -0.3990
N1 N 0.4465(3) 0.5863(3) 0.39436(11)
N2 N 0.6407(3) 0.4737(3) 0.33959(9)
N3 N 0.9191(3) 0.1608(3) 0.07206(10)
N4 N 1.1436(3) 0.0707(3) 0.02991(11)
N5 N 1.4586(3) 0.0284(4) -0.09930(11)
N6 N 1.6413(3) -0.0567(3) -0.16084(10)
N7 N 1.9436(3) -0.3701(3) -0.42960(9)
N8 N 2.1618(3) -0.4131(3) -0.47186(11)
Ag1 Ag 1.31507(3) 0.04951(4) -0.029910(12)
Ag2 Ag 0.31551(3) 0.61261(4) 0.467482(11)
N8_2 N 0.1618(3) 0.5869(3) 0.52814(11)
Ag2_2 Ag 2.31551(3) -0.38739(4) -0.532518(11)
C29 C 0.2536(4) -0.4939(4) 0.08366(14)
C30 C 0.1939(4) -0.4119(4) 0.13444(12)
C31 C 0.0345(4) -0.3561(4) 0.14751(13)
H29 H -0.0344 -0.3669 0.1238
C32 C -0.0219(4) -0.2866(4) 0.19416(13)
H30 H -0.1287 -0.2482 0.2015
C33 C 0.0808(4) -0.2725(4) 0.23113(12)
C34 C 0.2384(4) -0.3263(4) 0.21846(13)
H31 H 0.3074 -0.3169 0.2425
C35 C 0.2940(4) -0.3936(4) 0.17063(13)
H32 H 0.3998 -0.4272 0.1624
C36 C -0.1512(3) -0.1055(3) 0.34361(12)
C37 C -0.3088(4) -0.0543(4) 0.35628(13)
H33 H -0.3767 -0.0666 0.3326
C38 C -0.3646(3) 0.0141(4) 0.40339(13)
H34 H -0.4707 0.0482 0.4112
C39 C -0.2665(3) 0.0341(3) 0.44001(11)
C40 C -0.1073(3) -0.0219(3) 0.42703(12)
H35 H -0.0386 -0.0129 0.4513
C41 C -0.0499(3) -0.0888(3) 0.38049(12)
H36 H 0.0564 -0.1237 0.3729
C42 C -0.3288(4) 0.1177(4) 0.49038(12)
N9 N 0.0353(3) -0.2065(3) 0.28132(11)
N10 N -0.1040(3) -0.1731(3) 0.29367(10)
O1 O -0.4632(3) 0.2259(3) 0.48619(10)
O2 O -0.2369(3) 0.0773(3) 0.53134(9)
O3 O 0.1669(3) -0.5339(4) 0.06016(11)
O4 O 0.3891(3) -0.5200(5) 0.06974(12)
O5 O 0.1940(4) 0.3750(4) -0.04740(11)
H37 H 0.1640 0.4002 -0.0154
H38 H 0.2938 0.3250 -0.0444
O6 O 0.5129(4) -0.7010(4) -0.01539(14)
H39 H 0.4571 -0.6378 0.0069
H40 H 0.5218 -0.6454 -0.0430
loop_
_geom_bond_atom_site_label_1
_geom_bond_atom_site_label_2
_geom_bond_site_symmetry_1
_geom_bond_site_symmetry_2
C1 H1 1_555 1_555
C2 C1 1_555 1_555
H2 C2 1_555 1_555
C3 H3 1_555 1_555
C4 H4 1_555 1_555
H5 C4 1_555 1_555
C5 C4 1_555 1_555
C6 C5 1_555 1_555
H6 C6 1_555 1_555
C7 C6 1_555 1_555
H7 C7 1_555 1_555
C8 C7 1_555 1_555
C9 C8 1_555 1_555
H8 C9 1_555 1_555
C10 C5 1_555 1_555
H9 C10 1_555 1_555
C11 C8 1_555 1_555
H10 C11 1_555 1_555
H11 C11 1_555 1_555
C12 H12 1_555 1_555
C13 H13 1_555 1_555
C14 C13 1_555 1_555
H14 C14 1_555 1_555
C15 H15 1_555 1_555
C16 C15 1_555 1_555
H16 C16 1_555 1_555
C17 H17 1_555 1_555
C18 H18 1_555 1_555
H19 C18 1_555 1_555
C19 C18 1_555 1_555
C20 C19 1_555 1_555
H20 C20 1_555 1_555
C21 C20 1_555 1_555
H21 C21 1_555 1_555
C22 C21 1_555 1_555
C23 C22 1_555 1_555
H22 C23 1_555 1_555
C24 C19 1_555 1_555
H23 C24 1_555 1_555
C25 C22 1_555 1_555
H24 C25 1_555 1_555
H25 C25 1_555 1_555
C26 H26 1_555 1_555
C27 H27 1_555 1_555
C28 C26 1_555 1_555
H28 C28 1_555 1_555
C29 C30 1_555 1_555
C30 C31 1_555 1_555
C31 H29 1_555 1_555
C32 C31 1_555 1_555
H30 C32 1_555 1_555
C33 C32 1_555 1_555
C34 C33 1_555 1_555
H31 C34 1_555 1_555
C35 C30 1_555 1_555
H32 C35 1_555 1_555
C36 C37 1_555 1_555
C37 H33 1_555 1_555
C38 C37 1_555 1_555
H34 C38 1_555 1_555
C39 C38 1_555 1_555
C40 C39 1_555 1_555
H35 C40 1_555 1_555
C41 C36 1_555 1_555
H36 C41 1_555 1_555
C42 C39 1_555 1_555
N1 C1 1_555 1_555
N2 C2 1_555 1_555
N3 C11 1_555 1_555
N4 C12 1_555 1_555
N5 C15 1_555 1_555
N6 C16 1_555 1_555
N7 C25 1_555 1_555
N8 C26 1_555 1_555
N9 C33 1_555 1_555
N10 C36 1_555 1_555
O1 C42 1_555 1_555
O2 C42 1_555 1_555
O3 C29 1_555 1_555
O4 C29 1_555 1_555
Ag1 N4 1_555 1_555
Ag2 N1 1_555 1_555
O5 H37 1_555 1_555
H38 O5 1_555 1_555
O6 H39 1_555 1_555
H40 O6 1_555 1_555
N8_2 Ag2 1_555 1_555
Ag2_2 N8 1_555 1_555
C3 N1 1_555 1_555
C3 N2 1_555 1_555
C4 N2 1_555 1_555
C9 C10 1_555 1_555
C12 N3 1_555 1_555
C13 N3 1_555 1_555
C14 N4 1_555 1_555
C17 N5 1_555 1_555
C17 N6 1_555 1_555
C18 N6 1_555 1_555
C23 C24 1_555 1_555
C27 N7 1_555 1_555
C27 N8 1_555 1_555
C28 N7 1_555 1_555
C34 C35 1_555 1_555
C40 C41 1_555 1_555
N5 Ag1 1_555 1_555
N9 N10 1_555 1_555

#END
