
#######################################################################
#
#                 Cambridge Crystallographic Data Centre
#                                CCDC 
#
#######################################################################
#
# If this CIF has been generated from an entry in the Cambridge 
# Structural Database, then it will include bibliographic, chemical, 
# crystal, experimental, refinement or atomic coordinate data resulting 
# from the CCDC's data processing and validation procedures.
#
#######################################################################

data_UNOMUG
_symmetry_cell_setting           monoclinic
_symmetry_space_group_name_H-M   'C 2/c'
_symmetry_Int_Tables_number      15
_space_group_name_Hall           '-C 2yn'
loop_
_symmetry_equiv_pos_site_id
_symmetry_equiv_pos_as_xyz
1 x,y,z
2 -x,y,1/2-z
3 1/2+x,1/2+y,z
4 1/2-x,1/2+y,1/2-z
5 -x,-y,-z
6 x,-y,1/2+z
7 1/2-x,1/2-y,-z
8 1/2+x,1/2-y,1/2+z
_cell_length_a                   12.878(3)
_cell_length_b                   15.181(3)
_cell_length_c                   11.136(2)
_cell_angle_alpha                90
_cell_angle_beta                 91.37(3)
_cell_angle_gamma                90
_cell_volume                     2176.48
loop_
_atom_site_label
_atom_site_type_symbol
_atom_site_fract_x
_atom_site_fract_y
_atom_site_fract_z
Co1 Co 0.0000 0.40291(3) 0.7500
Cl1 Cl 0.03587(6) 0.32578(5) 0.91836(7)
N1 N 0.24698(16) 0.52363(14) 0.58018(19)
N2 N 0.11781(16) 0.48022(14) 0.69588(19)
C1 C 0.31898(18) 0.52081(17) 0.4838(2)
C2 C 0.46103(18) 0.51614(17) 0.2986(2)
C3 C 0.1150(2) 0.61615(17) 0.8273(2)
H1 H 0.0601 0.5985 0.8743
C4 C 0.4046(2) 0.59193(17) 0.3225(2)
H2 H 0.4150 0.6419 0.2761
C5 C 0.23231(19) 0.59156(16) 0.6623(2)
C6 C 0.3332(2) 0.59502(17) 0.4139(2)
H3 H 0.2955 0.6461 0.4278
C7 C 0.17714(19) 0.45999(17) 0.6047(2)
H4 H 0.1715 0.4075 0.5620
C8 C 0.44322(18) 0.44110(17) 0.3680(2)
H5 H 0.4781 0.3890 0.3514
C9 C 0.37368(19) 0.44371(17) 0.4617(2)
H6 H 0.3638 0.3942 0.5093
C10 C 0.15099(19) 0.56315(17) 0.7347(2)
C11 C 0.2823(2) 0.67174(17) 0.6813(2)
H7 H 0.3365 0.6901 0.6336
C12 C 0.1643(2) 0.69603(18) 0.8462(2)
H8 H 0.1423 0.7328 0.9073
C13 C 0.2473(2) 0.72257(17) 0.7745(2)
H9 H 0.2795 0.7762 0.7905
Co1_2 Co 1.0000 0.40291(3) -0.2500
Cl1A Cl -0.03587(6) 0.32578(5) 0.58164(7)
N1A N 0.75302(16) 0.52363(14) -0.08018(19)
N2A N 0.88219(16) 0.48022(14) -0.19588(19)
N2A_2 N -0.11781(16) 0.48022(14) 0.80412(19)
C1A C 0.68102(18) 0.52081(17) 0.0162(2)
C2A C 0.53897(18) 0.51614(17) 0.2014(2)
C3A C 0.8850(2) 0.61615(17) -0.3273(2)
H1A H 0.9399 0.5985 -0.3743
C4A C 0.5954(2) 0.59193(17) 0.1775(2)
H2A H 0.5850 0.6419 0.2239
C5A C 0.76769(19) 0.59156(16) -0.1623(2)
C6A C 0.6668(2) 0.59502(17) 0.0861(2)
H3A H 0.7045 0.6461 0.0722
C7A C 0.82286(19) 0.45999(17) -0.1047(2)
H4A H 0.8285 0.4075 -0.0620
C8A C 0.55678(18) 0.44110(17) 0.1320(2)
H5A H 0.5219 0.3890 0.1486
C9A C 0.62632(19) 0.44371(17) 0.0383(2)
H6A H 0.6362 0.3942 -0.0093
C10A C 0.84901(19) 0.56315(17) -0.2347(2)
C11A C 0.7177(2) 0.67174(17) -0.1813(2)
H7A H 0.6635 0.6901 -0.1336
C12A C 0.8357(2) 0.69603(18) -0.3462(2)
H8A H 0.8577 0.7328 -0.4073
C13A C 0.7527(2) 0.72257(17) -0.2745(2)
H9A H 0.7205 0.7762 -0.2905
loop_
_geom_bond_atom_site_label_1
_geom_bond_atom_site_label_2
_geom_bond_site_symmetry_1
_geom_bond_site_symmetry_2
Co1 Cl1 1_555 1_555
N1 C1 1_555 1_555
N2 Co1 1_555 1_555
C1 C6 1_555 1_555
C2 C4 1_555 1_555
C3 H1 1_555 1_555
C4 H2 1_555 1_555
C5 N1 1_555 1_555
C6 C4 1_555 1_555
H3 C6 1_555 1_555
C7 N1 1_555 1_555
H4 C7 1_555 1_555
C8 C2 1_555 1_555
H5 C8 1_555 1_555
C9 C1 1_555 1_555
H6 C9 1_555 1_555
C10 N2 1_555 1_555
C11 C5 1_555 1_555
H7 C11 1_555 1_555
C12 C3 1_555 1_555
H8 C12 1_555 1_555
C13 C11 1_555 1_555
H9 C13 1_555 1_555
Co1_2 N2A 1_555 1_555
Cl1A Co1 1_555 1_555
N1A C1A 1_555 1_555
N2A C7A 1_555 1_555
N2A_2 Co1 1_555 1_555
C1A C6A 1_555 1_555
C2A C2 1_555 1_555
C3A H1A 1_555 1_555
C4A C2A 1_555 1_555
H2A C4A 1_555 1_555
C5A N1A 1_555 1_555
C6A C4A 1_555 1_555
H3A C6A 1_555 1_555
C7A N1A 1_555 1_555
H4A C7A 1_555 1_555
C8A C2A 1_555 1_555
H5A C8A 1_555 1_555
C9A C1A 1_555 1_555
H6A C9A 1_555 1_555
C10A N2A 1_555 1_555
C11A C5A 1_555 1_555
H7A C11A 1_555 1_555
C12A C3A 1_555 1_555
H8A C12A 1_555 1_555
C13A C11A 1_555 1_555
H9A C13A 1_555 1_555
N2 C7 1_555 1_555
C3 C10 1_555 1_555
C5 C10 1_555 1_555
C8 C9 1_555 1_555
C12 C13 1_555 1_555
C3A C10A 1_555 1_555
C5A C10A 1_555 1_555
C8A C9A 1_555 1_555
C12A C13A 1_555 1_555

#END
