
#######################################################################
#
#                 Cambridge Crystallographic Data Centre
#                                CCDC 
#
#######################################################################
#
# If this CIF has been generated from an entry in the Cambridge 
# Structural Database, then it will include bibliographic, chemical, 
# crystal, experimental, refinement or atomic coordinate data resulting 
# from the CCDC's data processing and validation procedures.
#
#######################################################################

data_UNOQUK
_symmetry_cell_setting           monoclinic
_symmetry_space_group_name_H-M   'P 21/n'
_symmetry_Int_Tables_number      14
_space_group_name_Hall           '-P 2yn'
loop_
_symmetry_equiv_pos_site_id
_symmetry_equiv_pos_as_xyz
1 x,y,z
2 1/2-x,1/2+y,1/2-z
3 -x,-y,-z
4 1/2+x,1/2-y,1/2+z
_cell_length_a                   9.829(3)
_cell_length_b                   7.559(2)
_cell_length_c                   15.350(5)
_cell_angle_alpha                90
_cell_angle_beta                 105.589(3)
_cell_angle_gamma                90
_cell_volume                     1098.51
loop_
_atom_site_label
_atom_site_type_symbol
_atom_site_fract_x
_atom_site_fract_y
_atom_site_fract_z
Tm1 Tm 0.498130(19) 0.67912(3) 0.252028(12)
C1 C 0.2175(5) 0.9137(7) 0.1631(3)
C2 C 0.2755(5) 0.8881(6) 0.0829(3)
C3 C 0.2046(5) 0.9447(6) -0.0015(3)
H1 H 0.1204 1.0072 -0.0105
C4 C 0.2614(5) 0.9069(6) -0.0753(3)
C5 C 0.3907(5) 0.8160(6) -0.0544(3)
H2 H 0.4336 0.7888 -0.0999
C6 C 0.4537(5) 0.7675(6) 0.0335(3)
C7 C 0.5906(5) 0.6682(6) 0.0630(4)
N1 N 0.3961(5) 0.8002(5) 0.1020(3)
O1 O 0.2806(4) 0.8294(5) 0.2333(3)
O2 O 0.1121(4) 1.0091(5) 0.1562(2)
O3 O 0.1933(4) 0.9514(5) -0.1587(2)
O4 O 0.6311(4) 0.6267(5) 0.1454(2)
O5 O 0.6587(4) 0.6359(5) 0.0068(2)
O6 O 0.6355(4) 0.9322(5) 0.2582(3)
O7 O 0.3975(5) 0.4312(5) 0.1720(3)
H3 H 0.3923 0.3823 0.1140
O8 O 0.5064(5) 0.8348(4) 0.3875(3)
H4 H 0.4593 0.8051 0.4279
H5 H 0.5247 0.9565 0.4025
H8 H 0.689(5) 0.940(7) 0.218(3)
H9 H 0.689(5) 0.964(7) 0.307(3)
H10 H 0.318(5) 0.393(6) 0.184(3)
Tm1A Tm 0.001870(19) 1.17912(3) 0.247972(12)
Tm1C Tm -0.001870(19) 0.82088(3) -0.247972(12)
O2A O 0.3879(4) 0.5091(5) 0.3438(2)
O3C O 0.6933(4) 0.5486(5) 0.3413(2)
O9 O 0.5599(5) 0.1768(5) 0.4284(3)
H6 H 0.6306 0.1698 0.4728
H7 H 0.5610 0.2542 0.3853
loop_
_geom_bond_atom_site_label_1
_geom_bond_atom_site_label_2
_geom_bond_site_symmetry_1
_geom_bond_site_symmetry_2
Tm1 N1 1_555 1_555
C1 C2 1_555 1_555
C2 C3 1_555 1_555
C3 H1 1_555 1_555
C4 C3 1_555 1_555
C5 C4 1_555 1_555
H2 C5 1_555 1_555
C6 C5 1_555 1_555
C7 C6 1_555 1_555
N1 C2 1_555 1_555
O1 Tm1 1_555 1_555
O2 C1 1_555 1_555
O3 C4 1_555 1_555
O4 Tm1 1_555 1_555
O5 C7 1_555 1_555
O6 Tm1 1_555 1_555
O7 Tm1 1_555 1_555
H3 O7 1_555 1_555
O8 Tm1 1_555 1_555
H4 O8 1_555 1_555
H5 O8 1_555 1_555
O9 H6 1_555 1_555
H7 O9 1_555 1_555
H8 O6 1_555 1_555
H9 O6 1_555 1_555
H10 O7 1_555 1_555
Tm1A O2 1_555 1_555
Tm1C O3 1_555 1_555
O2A Tm1 1_555 1_555
O3C Tm1 1_555 1_555
C1 O1 1_555 1_555
C6 N1 1_555 1_555
C7 O4 1_555 1_555

#END
