
#######################################################################
#
#                 Cambridge Crystallographic Data Centre
#                                CCDC 
#
#######################################################################
#
# If this CIF has been generated from an entry in the Cambridge 
# Structural Database, then it will include bibliographic, chemical, 
# crystal, experimental, refinement or atomic coordinate data resulting 
# from the CCDC's data processing and validation procedures.
#
#######################################################################

data_UNOTAT
_symmetry_cell_setting           monoclinic
_symmetry_space_group_name_H-M   'C 2/c'
_symmetry_Int_Tables_number      15
_space_group_name_Hall           '-C 2yn'
loop_
_symmetry_equiv_pos_site_id
_symmetry_equiv_pos_as_xyz
1 x,y,z
2 -x,y,1/2-z
3 1/2+x,1/2+y,z
4 1/2-x,1/2+y,1/2-z
5 -x,-y,-z
6 x,-y,1/2+z
7 1/2-x,1/2-y,-z
8 1/2+x,1/2-y,1/2+z
_cell_length_a                   23.7249(5)
_cell_length_b                   10.5067(2)
_cell_length_c                   15.2460(3)
_cell_angle_alpha                90
_cell_angle_beta                 116.9880(10)
_cell_angle_gamma                90
_cell_volume                     3386.52
loop_
_atom_site_label
_atom_site_type_symbol
_atom_site_fract_x
_atom_site_fract_y
_atom_site_fract_z
Cu1 Cu 0.022690(9) 0.53850(2) 0.116076(15)
Cl1 Cl 0.362651(19) 0.48963(5) 0.38428(4)
Cl2 Cl -0.31688(2) 0.50558(5) -0.08067(4)
O1 O 0.09481(6) 0.63334(13) 0.20125(10)
O2 O -0.04854(6) 0.44838(12) 0.01836(9)
N1 N 0.06650(7) 0.37212(14) 0.17172(10)
N2 N -0.03106(6) 0.69745(15) 0.09189(10)
C1 C 0.15334(8) 0.59527(17) 0.24600(12)
C2 C 0.20162(8) 0.68856(17) 0.28841(13)
H1 H 0.1904 0.7735 0.2877
C3 C 0.26477(8) 0.65589(18) 0.33059(13)
H2 H 0.2956 0.7187 0.3563
C4 C 0.28228(8) 0.52825(17) 0.33464(13)
C5 C 0.23719(8) 0.43461(18) 0.30031(13)
H3 H 0.2495 0.3497 0.3064
C6 C 0.17232(8) 0.46601(17) 0.25576(12)
C7 C 0.12726(8) 0.36225(17) 0.22349(12)
H4 H 0.1435 0.2806 0.2417
C8 C 0.02982(8) 0.25245(18) 0.14935(13)
H5 H 0.0587 0.1812 0.1749
H6 H 0.0064 0.2424 0.0785
C9 C -0.01643(8) 0.25036(18) 0.19396(12)
H7 H -0.0438 0.3242 0.1709
H8 H -0.0428 0.1751 0.1709
C10 C -0.10753(8) 0.46309(17) 0.00258(12)
C11 C -0.14972(8) 0.35895(18) -0.03223(13)
H9 H -0.1347 0.2802 -0.0402
C12 C -0.21273(8) 0.37172(19) -0.05460(13)
H10 H -0.2396 0.3018 -0.0766
C13 C -0.23591(8) 0.48954(19) -0.04415(13)
C14 C -0.19608(8) 0.59274(18) -0.00739(12)
H11 H -0.2119 0.6704 0.0009
C15 C -0.13129(7) 0.58023(17) 0.01757(12)
C16 C -0.09196(8) 0.69309(17) 0.05320(12)
H12 H -0.1128 0.7699 0.0475
C17 C -0.00209(8) 0.82531(17) 0.12060(12)
H13 H -0.0338 0.8894 0.0852
H14 H 0.0315 0.8335 0.1015
C18 C 0.02494(8) 0.85016(17) 0.23129(12)
H15 H 0.0563 0.7854 0.2665
H16 H 0.0463 0.9319 0.2462
Cu1A Cu -0.022690(9) 0.53850(2) 0.383924(15)
Cu1D Cu -0.022690(9) 0.46150(2) -0.116076(15)
Cu1E Cu 0.022690(9) 0.46150(2) 0.616076(15)
Cl1A Cl -0.362651(19) 0.48963(5) 0.11572(4)
Cl2A Cl 0.31688(2) 0.50558(5) 0.58067(4)
O1A O -0.09481(6) 0.63334(13) 0.29875(10)
O2A O 0.04854(6) 0.44838(12) 0.48164(9)
O2D O 0.04854(6) 0.55162(12) -0.01836(9)
O2E O -0.04854(6) 0.55162(12) 0.51836(9)
N1A N -0.06650(7) 0.37212(14) 0.32828(10)
N2A N 0.03106(6) 0.69745(15) 0.40811(10)
C1A C -0.15334(8) 0.59527(17) 0.25400(12)
C2A C -0.20162(8) 0.68856(17) 0.21159(13)
H1A H -0.1904 0.7735 0.2123
C3A C -0.26477(8) 0.65589(18) 0.16941(13)
H2A H -0.2956 0.7187 0.1437
C4A C -0.28228(8) 0.52825(17) 0.16536(13)
C5A C -0.23719(8) 0.43461(18) 0.19969(13)
H3A H -0.2495 0.3497 0.1936
C6A C -0.17232(8) 0.46601(17) 0.24424(12)
C7A C -0.12726(8) 0.36225(17) 0.27651(12)
H4A H -0.1435 0.2806 0.2583
C8A C -0.02982(8) 0.25245(18) 0.35065(13)
H5A H -0.0587 0.1812 0.3251
H6A H -0.0064 0.2424 0.4215
C9A C 0.01643(8) 0.25036(18) 0.30604(12)
H7A H 0.0438 0.3242 0.3291
H8A H 0.0428 0.1751 0.3291
C10A C 0.10753(8) 0.46309(17) 0.49742(12)
C11A C 0.14972(8) 0.35895(18) 0.53223(13)
H9A H 0.1347 0.2802 0.5402
C12A C 0.21273(8) 0.37172(19) 0.55460(13)
H10A H 0.2396 0.3018 0.5766
C13A C 0.23591(8) 0.48954(19) 0.54415(13)
C14A C 0.19608(8) 0.59274(18) 0.50739(12)
H11A H 0.2119 0.6704 0.4991
C15A C 0.13129(7) 0.58023(17) 0.48243(12)
C16A C 0.09196(8) 0.69309(17) 0.44680(12)
H12A H 0.1128 0.7699 0.4525
C17A C 0.00209(8) 0.82531(17) 0.37940(12)
H13A H 0.0338 0.8894 0.4148
H14A H -0.0315 0.8335 0.3985
C18A C -0.02494(8) 0.85016(17) 0.26871(12)
H15A H -0.0563 0.7854 0.2335
H16A H -0.0463 0.9319 0.2538
loop_
_geom_bond_atom_site_label_1
_geom_bond_atom_site_label_2
_geom_bond_site_symmetry_1
_geom_bond_site_symmetry_2
Cu1 O1 1_555 1_555
Cl1 C4 1_555 1_555
Cl2 C13 1_555 1_555
O1 C1 1_555 1_555
O2 Cu1 1_555 1_555
N1 Cu1 1_555 1_555
N2 Cu1 1_555 1_555
C1 C2 1_555 1_555
C2 H1 1_555 1_555
C3 C2 1_555 1_555
H2 C3 1_555 1_555
C4 C3 1_555 1_555
C5 C4 1_555 1_555
H3 C5 1_555 1_555
C6 C1 1_555 1_555
C7 N1 1_555 1_555
H4 C7 1_555 1_555
C8 N1 1_555 1_555
H5 C8 1_555 1_555
H6 C8 1_555 1_555
C9 C8 1_555 1_555
H7 C9 1_555 1_555
H8 C9 1_555 1_555
C10 O2 1_555 1_555
C11 C10 1_555 1_555
H9 C11 1_555 1_555
C12 C11 1_555 1_555
H10 C12 1_555 1_555
C13 C12 1_555 1_555
C14 C13 1_555 1_555
H11 C14 1_555 1_555
C15 C10 1_555 1_555
C16 N2 1_555 1_555
H12 C16 1_555 1_555
C17 N2 1_555 1_555
H13 C17 1_555 1_555
H14 C17 1_555 1_555
C18 C17 1_555 1_555
H15 C18 1_555 1_555
H16 C18 1_555 1_555
Cu1A O1A 1_555 1_555
Cu1D O2 1_555 1_555
Cu1E O2A 1_555 1_555
Cl1A C4A 1_555 1_555
Cl2A C13A 1_555 1_555
O1A C1A 1_555 1_555
O2A Cu1A 1_555 1_555
O2D Cu1 1_555 1_555
O2E Cu1A 1_555 1_555
N1A Cu1A 1_555 1_555
N2A Cu1A 1_555 1_555
C1A C2A 1_555 1_555
C2A H1A 1_555 1_555
C3A C2A 1_555 1_555
H2A C3A 1_555 1_555
C4A C3A 1_555 1_555
C5A C4A 1_555 1_555
H3A C5A 1_555 1_555
C6A C1A 1_555 1_555
C7A N1A 1_555 1_555
H4A C7A 1_555 1_555
C8A N1A 1_555 1_555
H5A C8A 1_555 1_555
H6A C8A 1_555 1_555
C9A C9 1_555 1_555
H7A C9A 1_555 1_555
H8A C9A 1_555 1_555
C10A O2A 1_555 1_555
C11A C10A 1_555 1_555
H9A C11A 1_555 1_555
C12A C11A 1_555 1_555
H10A C12A 1_555 1_555
C13A C12A 1_555 1_555
C14A C13A 1_555 1_555
H11A C14A 1_555 1_555
C15A C10A 1_555 1_555
C16A N2A 1_555 1_555
H12A C16A 1_555 1_555
C17A N2A 1_555 1_555
H13A C17A 1_555 1_555
H14A C17A 1_555 1_555
C18A C18 1_555 1_555
H15A C18A 1_555 1_555
H16A C18A 1_555 1_555
C5 C6 1_555 1_555
C6 C7 1_555 1_555
C14 C15 1_555 1_555
C15 C16 1_555 1_555
Cu1D O2D 1_555 1_555
Cu1E O2E 1_555 1_555
C5A C6A 1_555 1_555
C6A C7A 1_555 1_555
C8A C9A 1_555 1_555
C14A C15A 1_555 1_555
C15A C16A 1_555 1_555
C17A C18A 1_555 1_555

#END
