
#######################################################################
#
#                 Cambridge Crystallographic Data Centre
#                                CCDC 
#
#######################################################################
#
# If this CIF has been generated from an entry in the Cambridge 
# Structural Database, then it will include bibliographic, chemical, 
# crystal, experimental, refinement or atomic coordinate data resulting 
# from the CCDC's data processing and validation procedures.
#
#######################################################################

data_UPEKIK
_symmetry_cell_setting           monoclinic
_symmetry_space_group_name_H-M   'C c'
_symmetry_Int_Tables_number      9
_space_group_name_Hall           'C -2yc'
loop_
_symmetry_equiv_pos_site_id
_symmetry_equiv_pos_as_xyz
1 x,y,z
2 x,-y,1/2+z
3 1/2+x,1/2+y,z
4 1/2+x,1/2-y,1/2+z
_cell_length_a                   14.915(2)
_cell_length_b                   17.492(3)
_cell_length_c                   15.390(5)
_cell_angle_alpha                90
_cell_angle_beta                 126.199(12)
_cell_angle_gamma                90
_cell_volume                     3240.1
loop_
_atom_site_label
_atom_site_type_symbol
_atom_site_fract_x
_atom_site_fract_y
_atom_site_fract_z
Mn1 Mn 0.35908(7) 0.07935(9) 0.68926(7)
Mn2 Mn 0.32956(8) -0.07911(9) 0.78600(7)
O1 O 0.3043(6) -0.0203(4) 0.6320(6)
O2 O 0.3863(6) 0.0215(4) 0.8452(6)
O3 O 0.1830(8) -0.0567(5) 0.7324(8)
O4 O 0.3256(10) 0.1253(6) 0.5474(7)
O5 O 0.3651(8) 0.1261(5) 0.4306(7)
O6 O 0.5075(8) 0.0557(5) 0.7486(7)
N1 N 0.3998(9) 0.1812(5) 0.7591(8)
N2 N 0.2094(9) 0.1080(6) 0.6479(9)
N3 N 0.4777(9) -0.1067(6) 0.8283(8)
C1 C 0.2016(9) -0.0308(6) 0.5387(9)
C2 C 0.5017(11) 0.0903(7) 1.0068(11)
H1 H 0.4403 0.1190 0.9884
N4 N 0.2924(10) -0.1809(6) 0.7211(9)
C3 C 0.5650(12) -0.0764(6) 0.9010(12)
H2 H 0.6301 -0.0954 0.9139
C4 C 0.3414(17) 0.0969(3) 0.4881(16)
H3 H 0.3350 0.0439 0.4836
C5 C 0.1095(10) 0.0159(7) 0.5086(10)
C6 C 0.4846(10) 0.0328(7) 0.9390(10)
C7 C 0.4692(11) -0.1720(7) 0.7627(11)
H4 H 0.5410 -0.1969 0.7990
H5 H 0.4484 -0.1535 0.6936
C8 C 0.1925(11) -0.2104(7) 0.6635(10)
C9 C 0.5768(11) -0.0115(8) 0.9713(10)
C10 C 0.3001(13) 0.2246(7) 0.7286(12)
H6 H 0.2712 0.2525 0.6625
H7 H 0.3202 0.2614 0.7845
C11 C 0.1911(11) -0.0949(7) 0.4745(9)
H8 H 0.2511 -0.1263 0.4952
C12 C 0.6013(13) 0.1091(8) 1.0992(12)
H9 H 0.6087 0.1501 1.1414
C13 C 0.6988(15) 0.0693(10) 0.8344(14)
H10 H 0.7091 0.0191 0.8223
C14 C 0.6960(10) 0.0618(8) 1.1290(11)
H11 H 0.7655 0.0727 1.1921
C15 C -0.0029(14) -0.0671(8) 0.3480(12)
H12 H -0.0722 -0.0789 0.2852
C16 C 0.5903(11) 0.1030(8) 0.8013(10)
C17 C 0.0150(11) -0.0010(9) 0.4199(12)
H13 H -0.0459 0.0294 0.3989
C18 C 0.0871(10) -0.1069(7) 0.3808(11)
H14 H 0.0795 -0.1465 0.3366
C19 C 0.0900(12) -0.1679(9) 0.6414(13)
H15 H 0.0221 -0.1931 0.6007
C20 C 0.0915(13) -0.0989(8) 0.6755(12)
C21 C 0.2082(13) 0.1697(9) 0.7120(14)
H16 H 0.2272 0.1509 0.7802
H17 H 0.1364 0.1948 0.6732
C22 C 0.6862(9) 0.0066(8) 1.0712(10)
H18 H 0.7479 -0.0226 1.0918
C23 C 0.1142(11) 0.0781(7) 0.5674(12)
H19 H 0.0482 0.0994 0.5495
C24 C 0.3887(12) -0.2259(8) 0.7462(12)
H20 H 0.3671 -0.2599 0.6870
H21 H 0.4185 -0.2563 0.8105
C25 C 0.4950(14) 0.2122(8) 0.8085(12)
H22 H 0.5010 0.2630 0.8293
C26 C 0.5841(11) 0.1786(6) 0.8321(9)
C27 C -0.0056(11) -0.0654(10) 0.6574(14)
H23 H 0.0105 -0.0139 0.6840
H24 H -0.0644 -0.0652 0.5816
H25 H -0.0280 -0.0947 0.6943
C28 C 0.7798(8) 0.1235(7) 0.8848(9)
H26 H 0.8479 0.1095 0.9001
C29 C 0.7748(9) 0.2008(6) 0.9184(9)
H27 H 0.8375 0.2317 0.9578
C30 C 0.1572(8) -0.2893(4) 0.6161(7)
H28 H 0.2195 -0.3158 0.6269
H29 H 0.1307 -0.3170 0.6506
H30 H 0.0990 -0.2856 0.5403
C31 C 0.6742(8) 0.2250(6) 0.8891(8)
H31 H 0.6668 0.2738 0.9082
Mn2A Mn 0.32956(8) 0.07911(9) 0.28600(7)
O5A O 0.3651(8) -0.1261(5) 0.9306(7)
Cl1 Cl 0.3446(4) -0.31711(7) 0.4870(4)
O7 O 0.3589(14) -0.3660(8) 0.5640(12)
O8 O 0.4399(10) -0.2729(6) 0.5308(13)
O9 O 0.2604(11) -0.2704(7) 0.4578(15)
O10 O 0.3152(11) -0.3636(6) 0.4013(9)
loop_
_geom_bond_atom_site_label_1
_geom_bond_atom_site_label_2
_geom_bond_site_symmetry_1
_geom_bond_site_symmetry_2
Mn1 O1 1_555 1_555
Mn2 O1 1_555 1_555
Cl1 O7 1_555 1_555
O1 C1 1_555 1_555
O2 Mn1 1_555 1_555
O3 Mn2 1_555 1_555
O4 Mn1 1_555 1_555
O5 C4 1_555 1_555
O6 Mn1 1_555 1_555
N1 Mn1 1_555 1_555
N2 Mn1 1_555 1_555
N3 Mn2 1_555 1_555
C1 C5 1_555 1_555
C2 H1 1_555 1_555
N4 Mn2 1_555 1_555
C3 N3 1_555 1_555
H2 C3 1_555 1_555
C4 O4 1_555 1_555
H3 C4 1_555 1_555
C5 C17 1_555 1_555
C6 O2 1_555 1_555
C7 N3 1_555 1_555
H4 C7 1_555 1_555
H5 C7 1_555 1_555
C8 N4 1_555 1_555
O8 Cl1 1_555 1_555
C9 C3 1_555 1_555
C10 N1 1_555 1_555
H6 C10 1_555 1_555
H7 C10 1_555 1_555
C11 C1 1_555 1_555
H8 C11 1_555 1_555
C12 C2 1_555 1_555
H9 C12 1_555 1_555
C13 H10 1_555 1_555
C14 C12 1_555 1_555
H11 C14 1_555 1_555
C15 H12 1_555 1_555
C16 O6 1_555 1_555
C17 C15 1_555 1_555
H13 C17 1_555 1_555
C18 C11 1_555 1_555
H14 C18 1_555 1_555
C19 C8 1_555 1_555
H15 C19 1_555 1_555
C20 O3 1_555 1_555
C21 N2 1_555 1_555
H16 C21 1_555 1_555
H17 C21 1_555 1_555
C22 C9 1_555 1_555
H18 C22 1_555 1_555
C23 N2 1_555 1_555
H19 C23 1_555 1_555
C24 N4 1_555 1_555
H20 C24 1_555 1_555
H21 C24 1_555 1_555
C25 N1 1_555 1_555
H22 C25 1_555 1_555
O9 Cl1 1_555 1_555
C26 C16 1_555 1_555
O10 Cl1 1_555 1_555
C27 C20 1_555 1_555
H23 C27 1_555 1_555
H24 C27 1_555 1_555
H25 C27 1_555 1_555
C28 C13 1_555 1_555
H26 C28 1_555 1_555
C29 C28 1_555 1_555
H27 C29 1_555 1_555
C30 C8 1_555 1_555
H28 C30 1_555 1_555
H29 C30 1_555 1_555
H30 C30 1_555 1_555
C31 C26 1_555 1_555
H31 C31 1_555 1_555
Mn2A O5 1_555 1_555
O5A Mn2 1_555 1_555
Mn2 O2 1_555 1_555
C2 C6 1_555 1_555
C5 C23 1_555 1_555
C6 C9 1_555 1_555
C7 C24 1_555 1_555
C10 C21 1_555 1_555
C13 C16 1_555 1_555
C14 C22 1_555 1_555
C15 C18 1_555 1_555
C19 C20 1_555 1_555
C25 C26 1_555 1_555
C29 C31 1_555 1_555

#END
