
#######################################################################
#
#                 Cambridge Crystallographic Data Centre
#                                CCDC 
#
#######################################################################
#
# If this CIF has been generated from an entry in the Cambridge 
# Structural Database, then it will include bibliographic, chemical, 
# crystal, experimental, refinement or atomic coordinate data resulting 
# from the CCDC's data processing and validation procedures.
#
#######################################################################

data_UPIMIQ
_symmetry_cell_setting           monoclinic
_symmetry_space_group_name_H-M   'P 21/c'
_symmetry_Int_Tables_number      14
_space_group_name_Hall           '-P 2ybc'
loop_
_symmetry_equiv_pos_site_id
_symmetry_equiv_pos_as_xyz
1 x,y,z
2 -x,1/2+y,1/2-z
3 -x,-y,-z
4 x,1/2-y,1/2+z
_cell_length_a                   12.1087(3)
_cell_length_b                   26.9287(8)
_cell_length_c                   14.9896(4)
_cell_angle_alpha                90
_cell_angle_beta                 127.683(2)
_cell_angle_gamma                90
_cell_volume                     3868.14
loop_
_atom_site_label
_atom_site_type_symbol
_atom_site_fract_x
_atom_site_fract_y
_atom_site_fract_z
Pt1 Pt 0.54508(4) 0.706413(17) 0.47922(4)
Cu1 Cu 0.04561(15) 0.75119(6) 0.22949(13)
S1 S 0.1196(3) 0.63378(13) 0.2192(3)
S2 S 0.9698(3) 0.63167(14) 0.7329(3)
P1 P 0.3681(3) 0.76046(13) 0.3746(3)
P2 P 0.7243(3) 0.75927(12) 0.5822(3)
N1 N 0.2248(10) 0.7242(4) 0.3012(9)
N2 N 0.3789(10) 0.6561(4) 0.3823(8)
N3 N 0.8658(10) 0.7225(4) 0.6580(9)
N4 N 0.7083(10) 0.6550(4) 0.5775(8)
C1 C 0.2543(11) 0.6760(5) 0.3097(9)
C2 C 0.3800(13) 0.6027(5) 0.3649(12)
H1 H 0.4420 0.5861 0.4370
H2 H 0.4135 0.5966 0.3213
C3 C 0.2323(14) 0.5826(5) 0.3021(12)
H3 H 0.2160 0.5715 0.3548
H4 H 0.2167 0.5550 0.2541
C4 C 0.3614(12) 0.7982(5) 0.2718(10)
C5 C 0.4630(14) 0.7924(5) 0.2550(10)
H5 H 0.5355 0.7698 0.2977
C6 C 0.4532(16) 0.8212(6) 0.1736(12)
H6 H 0.5215 0.8181 0.1636
C7 C 0.3467(18) 0.8536(6) 0.1082(13)
H7 H 0.3430 0.8726 0.0545
C8 C 0.2403(18) 0.8585(7) 0.1218(14)
H8 H 0.1651 0.8798 0.0760
C9 C 0.2518(15) 0.8314(6) 0.2033(12)
H9 H 0.1841 0.8350 0.2139
C10 C 0.3292(12) 0.8035(5) 0.4447(11)
C11 C 0.2641(13) 0.7860(5) 0.4896(10)
H10 H 0.2410 0.7526 0.4831
C12 C 0.2335(15) 0.8187(6) 0.5444(12)
H11 H 0.1877 0.8073 0.5726
C13 C 0.2710(16) 0.8671(7) 0.5561(14)
H12 H 0.2505 0.8887 0.5927
C14 C 0.3400(17) 0.8854(6) 0.5143(13)
H13 H 0.3655 0.9187 0.5229
C15 C 0.3690(14) 0.8527(5) 0.4600(11)
H14 H 0.4163 0.8640 0.4332
C16 C 0.8354(12) 0.6745(5) 0.6466(10)
C17 C 0.7039(15) 0.6014(5) 0.5882(13)
H15 H 0.6506 0.5862 0.5141
H16 H 0.6579 0.5939 0.6215
C18 C 0.8519(15) 0.5800(6) 0.6622(14)
H17 H 0.8707 0.5625 0.6162
H18 H 0.8629 0.5569 0.7168
C19 C 0.7636(12) 0.7991(5) 0.5083(10)
C20 C 0.8317(13) 0.7778(6) 0.4669(11)
H19 H 0.8571 0.7445 0.4786
C21 C 0.8588(15) 0.8091(6) 0.4077(13)
H20 H 0.9007 0.7960 0.3776
C22 C 0.8251(17) 0.8585(7) 0.3929(13)
H21 H 0.8501 0.8788 0.3576
C23 C 0.7545(15) 0.8787(6) 0.4298(13)
H22 H 0.7262 0.9117 0.4145
C24 C 0.7263(14) 0.8494(5) 0.4898(11)
H23 H 0.6825 0.8631 0.5177
C25 C 0.7304(13) 0.7981(5) 0.6836(11)
C26 C 0.6304(12) 0.7950(5) 0.6999(11)
H24 H 0.5559 0.7732 0.6565
C27 C 0.6400(16) 0.8244(6) 0.7810(12)
H25 H 0.5723 0.8221 0.7918
C28 C 0.7522(17) 0.8575(6) 0.8462(12)
H26 H 0.7586 0.8773 0.9001
C29 C 0.8493(18) 0.8607(7) 0.8308(14)
H27 H 0.9233 0.8827 0.8745
C30 C 0.8422(14) 0.8314(6) 0.7497(12)
H28 H 0.9108 0.8340 0.7399
Cu1C Cu 1.04561(15) 0.74881(6) 0.72949(13)
N3C N -0.1342(10) 0.7775(4) 0.1580(9)
P3 P 1.0000 1.0000 0.5000
F1 F 0.8412(13) 0.9959(6) 0.4018(12)
F2 F 0.9814(11) 0.9614(4) 0.5701(9)
F3 F 1.026(2) 0.9566(6) 0.4464(19)
F1B F 1.1588(13) 1.0041(6) 0.5982(12)
F2B F 1.0186(11) 1.0386(4) 0.4299(9)
F3B F 0.974(2) 1.0434(6) 0.5536(19)
P4 P 0.0000 1.0000 0.0000
F4 F 0.0543(12) 0.9697(4) -0.0582(10)
F5 F 0.1422(15) 1.0292(6) 0.0731(14)
F6 F 0.0628(18) 0.9590(6) 0.0918(14)
F4B F -0.0543(12) 1.0303(4) 0.0582(10)
F5B F -0.1422(15) 0.9708(6) -0.0731(14)
F6B F -0.0628(18) 1.0410(6) -0.0918(14)
N5 N 0.579(3) 0.9493(8) 0.496(3)
C31 C 0.672(3) 0.9703(11) 0.569(3)
C32 C 0.794(3) 0.9954(12) 0.662(2)
H29 H 0.8400 0.9749 0.7283
H30 H 0.7671 1.0262 0.6763
H31 H 0.8562 1.0019 0.6443
Cl1 Cl 0.4707(17) 1.0319(8) 0.2662(12)
Cl2 Cl 0.4584(13) 0.9832(4) 0.0928(11)
C33 C 0.438(3) 0.9755(8) 0.198(2)
H32 H 0.3444 0.9645 0.1654
H33 H 0.5034 0.9506 0.2521
loop_
_geom_bond_atom_site_label_1
_geom_bond_atom_site_label_2
_geom_bond_site_symmetry_1
_geom_bond_site_symmetry_2
Pt1 P1 1_555 1_555
Cu1 N1 1_555 1_555
S1 C1 1_555 1_555
S2 C16 1_555 1_555
P1 N1 1_555 1_555
P2 Pt1 1_555 1_555
N1 C1 1_555 1_555
N2 Pt1 1_555 1_555
N3 P2 1_555 1_555
N4 Pt1 1_555 1_555
C1 N2 1_555 1_555
C2 N2 1_555 1_555
H1 C2 1_555 1_555
H2 C2 1_555 1_555
C3 S1 1_555 1_555
H3 C3 1_555 1_555
H4 C3 1_555 1_555
C4 P1 1_555 1_555
C5 C4 1_555 1_555
H5 C5 1_555 1_555
C6 C5 1_555 1_555
H6 C6 1_555 1_555
C7 C6 1_555 1_555
H7 C7 1_555 1_555
C8 C7 1_555 1_555
H8 C8 1_555 1_555
C9 C4 1_555 1_555
H9 C9 1_555 1_555
C10 P1 1_555 1_555
C11 C10 1_555 1_555
H10 C11 1_555 1_555
C12 C11 1_555 1_555
H11 C12 1_555 1_555
C13 C12 1_555 1_555
H12 C13 1_555 1_555
C14 C13 1_555 1_555
H13 C14 1_555 1_555
C15 C10 1_555 1_555
H14 C15 1_555 1_555
C16 N3 1_555 1_555
C17 N4 1_555 1_555
H15 C17 1_555 1_555
H16 C17 1_555 1_555
C18 S2 1_555 1_555
H17 C18 1_555 1_555
H18 C18 1_555 1_555
C19 P2 1_555 1_555
C20 C19 1_555 1_555
H19 C20 1_555 1_555
C21 C20 1_555 1_555
H20 C21 1_555 1_555
C22 C21 1_555 1_555
H21 C22 1_555 1_555
C23 C22 1_555 1_555
H22 C23 1_555 1_555
C24 C19 1_555 1_555
H23 C24 1_555 1_555
C25 P2 1_555 1_555
C26 C25 1_555 1_555
H24 C26 1_555 1_555
C27 C26 1_555 1_555
H25 C27 1_555 1_555
C28 C27 1_555 1_555
H26 C28 1_555 1_555
C29 C28 1_555 1_555
H27 C29 1_555 1_555
C30 C25 1_555 1_555
H28 C30 1_555 1_555
P3 F1 1_555 1_555
F2 P3 1_555 1_555
F3 P3 1_555 1_555
P4 F4 1_555 1_555
F5 P4 1_555 1_555
F6 P4 1_555 1_555
N5 C31 1_555 1_555
C31 C32 1_555 1_555
C32 H29 1_555 1_555
H30 C32 1_555 1_555
H31 C32 1_555 1_555
Cl1 C33 1_555 1_555
Cl2 C33 1_555 1_555
C33 H32 1_555 1_555
H33 C33 1_555 1_555
Cu1C N3 1_555 1_555
N3C Cu1 1_555 1_555
F1B P3 1_555 1_555
F2B P3 1_555 1_555
F3B P3 1_555 1_555
F4B P4 1_555 1_555
F5B P4 1_555 1_555
F6B P4 1_555 1_555
N4 C16 1_555 1_555
C2 C3 1_555 1_555
C8 C9 1_555 1_555
C14 C15 1_555 1_555
C17 C18 1_555 1_555
C23 C24 1_555 1_555
C29 C30 1_555 1_555

#END
