
#######################################################################
#
#                 Cambridge Crystallographic Data Centre
#                                CCDC 
#
#######################################################################
#
# If this CIF has been generated from an entry in the Cambridge 
# Structural Database, then it will include bibliographic, chemical, 
# crystal, experimental, refinement or atomic coordinate data resulting 
# from the CCDC's data processing and validation procedures.
#
#######################################################################

data_UPOQOG
_symmetry_cell_setting           monoclinic
_symmetry_space_group_name_H-M   'P 21/n'
_symmetry_Int_Tables_number      14
_space_group_name_Hall           '-P 2yn'
loop_
_symmetry_equiv_pos_site_id
_symmetry_equiv_pos_as_xyz
1 x,y,z
2 1/2-x,1/2+y,1/2-z
3 -x,-y,-z
4 1/2+x,1/2-y,1/2+z
_cell_length_a                   13.151(2)
_cell_length_b                   7.9995(13)
_cell_length_c                   18.864(3)
_cell_angle_alpha                90
_cell_angle_beta                 95.464(4)
_cell_angle_gamma                90
_cell_volume                     1975.5
loop_
_atom_site_label
_atom_site_type_symbol
_atom_site_fract_x
_atom_site_fract_y
_atom_site_fract_z
Cu1 Cu 0.61652(4) 0.27989(7) 0.83122(2)
N1 N 0.5003(2) 0.3202(4) 0.89101(17)
C1 C 0.4477(3) 0.4651(5) 0.8852(2)
H1 H 0.4583 0.5381 0.8483
C2 C 0.3777(3) 0.5080(5) 0.9334(2)
C3 C 0.3634(3) 0.3971(5) 0.9877(2)
H2 H 0.3175 0.4226 1.0208
C4 C 0.4164(4) 0.2505(5) 0.9930(2)
H3 H 0.4067 0.1747 1.0292
C5 C 0.4850(3) 0.2164(5) 0.9435(2)
H4 H 0.5216 0.1168 0.9473
N2 N 0.3244(2) 0.6597(4) 0.93144(17)
H5 H 0.2945 0.6835 0.9688
C6 C 0.3140(3) 0.7738(5) 0.8780(2)
O1 O 0.3555(3) 0.7605(4) 0.82329(17)
C7 C 0.2438(3) 0.9171(5) 0.8890(2)
C8 C 0.1967(3) 0.9973(5) 0.8290(2)
H6 H 0.2146 0.9690 0.7840
C9 C 0.1242(3) 1.1177(6) 0.8359(2)
H7 H 0.0919 1.1685 0.7955
C10 C 0.0985(3) 1.1644(5) 0.9029(2)
H8 H 0.0480 1.2441 0.9071
C11 C 0.1479(3) 1.0924(5) 0.9631(2)
C12 C 0.2197(3) 0.9669(5) 0.9554(2)
H9 H 0.2518 0.9158 0.9957
C13 C 0.1294(3) 1.1369(5) 1.0376(2)
O2 O 0.1907(3) 1.0956(6) 1.08699(17)
N3 N 0.0439(3) 1.2214(4) 1.04847(17)
H10 H 0.0040 1.2472 1.0113
C14 C 0.0130(3) 1.2718(5) 1.1144(2)
C15 C -0.0682(3) 1.3825(5) 1.1145(2)
H11 H -0.0997 1.4238 1.0719
C16 C -0.1019(3) 1.4307(5) 1.1785(2)
H12 H -0.1574 1.5026 1.1794
C17 C -0.0524(3) 1.3709(5) 1.2407(2)
H13 H -0.0750 1.4036 1.2839
N4 N 0.0271(3) 1.2676(4) 1.24127(17)
C18 C 0.0587(3) 1.2184(5) 1.1797(2)
H14 H 0.1138 1.1452 1.1805
O3 O 0.7400(2) 0.2670(4) 0.78191(15)
C19 C 0.8217(3) 0.3025(6) 0.8210(2)
O4 O 0.9055(2) 0.3210(5) 0.79972(17)
C20 C 0.8071(3) 0.3196(5) 0.9014(2)
O5 O 0.7149(2) 0.3059(4) 0.91619(14)
O6 O 0.8799(2) 0.3443(4) 0.94523(15)
O7 O 0.6175(2) -0.0258(4) 0.84826(16)
O8 O 0.6403(3) 0.5868(5) 0.8164(2)
Cu1C Cu 0.11652(4) 1.22011(7) 1.33122(2)
N4C N 0.5271(3) 0.2324(4) 0.74127(17)
loop_
_geom_bond_atom_site_label_1
_geom_bond_atom_site_label_2
_geom_bond_site_symmetry_1
_geom_bond_site_symmetry_2
Cu1 N1 1_555 1_555
N1 C1 1_555 1_555
C1 H1 1_555 1_555
C2 C1 1_555 1_555
C3 C2 1_555 1_555
H2 C3 1_555 1_555
C4 C3 1_555 1_555
H3 C4 1_555 1_555
C5 N1 1_555 1_555
H4 C5 1_555 1_555
N2 C2 1_555 1_555
H5 N2 1_555 1_555
C6 N2 1_555 1_555
O1 C6 1_555 1_555
C7 C6 1_555 1_555
C8 C7 1_555 1_555
H6 C8 1_555 1_555
C9 C8 1_555 1_555
H7 C9 1_555 1_555
C10 C9 1_555 1_555
H8 C10 1_555 1_555
C11 C10 1_555 1_555
C12 C7 1_555 1_555
H9 C12 1_555 1_555
C13 C11 1_555 1_555
O2 C13 1_555 1_555
N3 C13 1_555 1_555
H10 N3 1_555 1_555
C14 N3 1_555 1_555
C15 C14 1_555 1_555
H11 C15 1_555 1_555
C16 C15 1_555 1_555
H12 C16 1_555 1_555
C17 C16 1_555 1_555
H13 C17 1_555 1_555
N4 C17 1_555 1_555
C18 C14 1_555 1_555
H14 C18 1_555 1_555
O3 Cu1 1_555 1_555
C19 O3 1_555 1_555
O4 C19 1_555 1_555
C20 C19 1_555 1_555
O5 Cu1 1_555 1_555
O6 C20 1_555 1_555
O7 Cu1 1_555 1_555
O8 Cu1 1_555 1_555
Cu1C N4 1_555 1_555
N4C Cu1 1_555 1_555
C4 C5 1_555 1_555
C11 C12 1_555 1_555
N4 C18 1_555 1_555
C20 O5 1_555 1_555

#END
