
#######################################################################
#
#                 Cambridge Crystallographic Data Centre
#                                CCDC 
#
#######################################################################
#
# If this CIF has been generated from an entry in the Cambridge 
# Structural Database, then it will include bibliographic, chemical, 
# crystal, experimental, refinement or atomic coordinate data resulting 
# from the CCDC's data processing and validation procedures.
#
#######################################################################

data_UPORIB
_symmetry_cell_setting           triclinic
_symmetry_space_group_name_H-M   'P -1'
_symmetry_Int_Tables_number      2
_space_group_name_Hall           '-P 1'
loop_
_symmetry_equiv_pos_site_id
_symmetry_equiv_pos_as_xyz
1 x,y,z
2 -x,-y,-z
_cell_length_a                   12.1211(5)
_cell_length_b                   13.0168(5)
_cell_length_c                   14.4926(5)
_cell_angle_alpha                108.003(1)
_cell_angle_beta                 98.586(1)
_cell_angle_gamma                106.562(1)
_cell_volume                     2012.52
loop_
_atom_site_label
_atom_site_type_symbol
_atom_site_fract_x
_atom_site_fract_y
_atom_site_fract_z
O8 O 0.20016(19) 0.74476(18) 0.25712(16)
C31 C 0.1460(3) 0.6423(3) 0.2074(2)
H21 H 0.1909 0.5968 0.1857
N5 N 0.0286(2) 0.5906(2) 0.18176(19)
C32 C -0.0489(3) 0.6523(4) 0.2126(3)
H22 H -0.0021 0.7290 0.2592
H23 H -0.1011 0.6129 0.2443
H24 H -0.0954 0.6562 0.1549
C33 C -0.0284(4) 0.4692(3) 0.1207(3)
H25 H 0.0311 0.4342 0.1123
H26 H -0.0723 0.4603 0.0561
H27 H -0.0819 0.4325 0.1531
O9 O 0.53462(19) 0.44976(17) 0.22110(14)
C34 C 0.4859(2) 0.3720(2) 0.2490(2)
H28 H 0.4918 0.3001 0.2189
N6 N 0.4267(2) 0.3824(2) 0.31756(19)
C35 C 0.4111(4) 0.4915(3) 0.3655(3)
H29 H 0.4795 0.5540 0.3698
H30 H 0.4026 0.4989 0.4318
H31 H 0.3410 0.4935 0.3264
C36 C 0.3706(3) 0.2855(3) 0.3452(3)
H32 H 0.3902 0.2203 0.3099
H33 H 0.2857 0.2661 0.3276
H34 H 0.3990 0.3063 0.4163
Cu1 Cu 0.78970(3) 0.91119(2) 0.40324(2)
N1 N 0.69146(18) 0.80900(17) 0.23656(15)
C1 C 0.6693(2) 0.6956(2) 0.19916(18)
H1 H 0.6657 0.6565 0.2433
C2 C 0.6513(2) 0.6327(2) 0.09802(18)
C3 C 0.6545(2) 0.6899(2) 0.03205(19)
H2 H 0.6420 0.6504 -0.0363
C4 C 0.6765(3) 0.8070(2) 0.0700(2)
H3 H 0.6789 0.8477 0.0272
C5 C 0.6950(2) 0.8637(2) 0.17196(19)
H4 H 0.7105 0.9427 0.1966
N2 N 0.63092(19) 0.51341(17) 0.07071(15)
H5 H 0.5995 0.4805 0.1084
C6 C 0.6562(2) 0.4459(2) -0.00942(19)
O1 O 0.69100(19) 0.47925(16) -0.07367(14)
C7 C 0.6400(2) 0.3255(2) -0.01423(18)
C8 C 0.6493(3) 0.2968(2) 0.07110(19)
H6 H 0.6669 0.3541 0.1341
C9 C 0.6329(3) 0.1857(2) 0.0636(2)
H7 H 0.6392 0.1679 0.1211
C10 C 0.6069(2) 0.0999(2) -0.0299(2)
H8 H 0.5946 0.0242 -0.0351
C11 C 0.5990(2) 0.1263(2) -0.11594(18)
C12 C 0.6167(2) 0.2392(2) -0.10778(18)
H9 H 0.6129 0.2574 -0.1651
C13 C 0.5647(2) 0.0273(2) -0.21479(19)
O2 O 0.50225(18) -0.06974(15) -0.22524(13)
N3 N 0.60767(19) 0.05407(17) -0.28894(14)
H10 H 0.6526 0.1240 -0.2755
C14 C 0.5821(2) -0.0276(2) -0.38734(18)
C15 C 0.6715(2) -0.0218(2) -0.43698(18)
H11 H 0.7464 0.0346 -0.4041
N4 N 0.65356(18) -0.09500(16) -0.53112(15)
C16 C 0.5453(2) -0.1768(2) -0.57731(19)
H12 H 0.5326 -0.2288 -0.6419
C17 C 0.4528(2) -0.1865(2) -0.53250(19)
H13 H 0.3787 -0.2437 -0.5669
C18 C 0.4699(2) -0.1111(2) -0.43619(18)
H14 H 0.4079 -0.1161 -0.4049
O3 O 0.79039(15) 1.05502(13) 0.38848(12)
C19 C 0.8483(2) 1.1489(2) 0.46398(19)
O4 O 0.91080(15) 1.15591(14) 0.54356(13)
C20 C 0.8345(2) 1.2566(2) 0.45454(18)
C21 C 0.7747(2) 1.2548(2) 0.36253(19)
H15 H 0.7441 1.1863 0.3066
C22 C 0.7614(2) 1.3527(2) 0.35488(19)
H16 H 0.7219 1.3500 0.2935
C23 C 0.8066(2) 1.4581(2) 0.43842(18)
C24 C 0.7970(2) 1.5615(2) 0.43227(19)
H17 H 0.7575 1.5607 0.3717
C25 C 0.8451(2) 1.6632(2) 0.51411(18)
C26 C 0.8397(2) 1.7741(2) 0.5058(2)
O5 O 0.79242(15) 1.76827(13) 0.41890(12)
O6 O 0.88076(15) 1.86409(14) 0.58337(13)
C27 C 0.9041(2) 1.6644(2) 0.60655(19)
H18 H 0.9369 1.7334 0.6620
C28 C 0.9135(2) 1.5662(2) 0.61508(18)
H19 H 0.9513 1.5685 0.6768
C29 C 0.8664(2) 1.4600(2) 0.53138(18)
C30 C 0.8786(2) 1.3573(2) 0.53678(18)
H20 H 0.9174 1.3581 0.5975
O7 O 0.94741(17) 0.93260(17) 0.37329(14)
H35 H 0.992(3) 0.904(2) 0.401(2)
H36 H 0.986(3) 0.995(3) 0.385(2)
Cu1_2 Cu 0.78970(3) -0.08881(2) -0.59676(2)
Cu1_3 Cu 0.78970(3) 1.91119(2) 0.40324(2)
N4_2 N 0.65356(18) 0.90500(16) 0.46888(15)
O5_2 O 0.79242(15) 0.76827(13) 0.41890(12)
loop_
_geom_bond_atom_site_label_1
_geom_bond_atom_site_label_2
_geom_bond_site_symmetry_1
_geom_bond_site_symmetry_2
Cu1 N1 1_555 1_555
N1 C1 1_555 1_555
C1 H1 1_555 1_555
C2 C1 1_555 1_555
C3 C2 1_555 1_555
H2 C3 1_555 1_555
C4 C3 1_555 1_555
H3 C4 1_555 1_555
C5 N1 1_555 1_555
H4 C5 1_555 1_555
N2 C2 1_555 1_555
H5 N2 1_555 1_555
C6 N2 1_555 1_555
O1 C6 1_555 1_555
C7 C6 1_555 1_555
C8 C7 1_555 1_555
H6 C8 1_555 1_555
C9 C8 1_555 1_555
H7 C9 1_555 1_555
C10 C9 1_555 1_555
H8 C10 1_555 1_555
C11 C10 1_555 1_555
C12 C7 1_555 1_555
H9 C12 1_555 1_555
C13 C11 1_555 1_555
O2 C13 1_555 1_555
N3 C13 1_555 1_555
H10 N3 1_555 1_555
C14 N3 1_555 1_555
C15 C14 1_555 1_555
H11 C15 1_555 1_555
N4 C15 1_555 1_555
C16 N4 1_555 1_555
H12 C16 1_555 1_555
C17 C16 1_555 1_555
H13 C17 1_555 1_555
C18 C14 1_555 1_555
H14 C18 1_555 1_555
O3 Cu1 1_555 1_555
C19 O3 1_555 1_555
O4 C19 1_555 1_555
C20 C19 1_555 1_555
C21 C20 1_555 1_555
H15 C21 1_555 1_555
C22 C21 1_555 1_555
H16 C22 1_555 1_555
C23 C22 1_555 1_555
C24 C23 1_555 1_555
H17 C24 1_555 1_555
C25 C24 1_555 1_555
C26 C25 1_555 1_555
O5 C26 1_555 1_555
O6 C26 1_555 1_555
C27 C25 1_555 1_555
H18 C27 1_555 1_555
C28 C27 1_555 1_555
H19 C28 1_555 1_555
C29 C23 1_555 1_555
C30 C20 1_555 1_555
H20 C30 1_555 1_555
O7 Cu1 1_555 1_555
O8 C31 1_555 1_555
C31 H21 1_555 1_555
N5 C31 1_555 1_555
C32 N5 1_555 1_555
H22 C32 1_555 1_555
H23 C32 1_555 1_555
H24 C32 1_555 1_555
C33 N5 1_555 1_555
H25 C33 1_555 1_555
H26 C33 1_555 1_555
H27 C33 1_555 1_555
O9 C34 1_555 1_555
C34 H28 1_555 1_555
N6 C34 1_555 1_555
C35 N6 1_555 1_555
H29 C35 1_555 1_555
H30 C35 1_555 1_555
H31 C35 1_555 1_555
C36 N6 1_555 1_555
H32 C36 1_555 1_555
H33 C36 1_555 1_555
H34 C36 1_555 1_555
H35 O7 1_555 1_555
H36 O7 1_555 1_555
Cu1_2 N4 1_555 1_555
Cu1_3 O5 1_555 1_555
N4_2 Cu1 1_555 1_555
O5_2 Cu1 1_555 1_555
C4 C5 1_555 1_555
C11 C12 1_555 1_555
C17 C18 1_555 1_555
C28 C29 1_555 1_555
C29 C30 1_555 1_555

#END
