
#######################################################################
#
#                 Cambridge Crystallographic Data Centre
#                                CCDC 
#
#######################################################################
#
# If this CIF has been generated from an entry in the Cambridge 
# Structural Database, then it will include bibliographic, chemical, 
# crystal, experimental, refinement or atomic coordinate data resulting 
# from the CCDC's data processing and validation procedures.
#
#######################################################################

data_UPUCEO
_symmetry_cell_setting           monoclinic
_symmetry_space_group_name_H-M   'C 2/c'
_symmetry_Int_Tables_number      15
_space_group_name_Hall           '-C 2yn'
loop_
_symmetry_equiv_pos_site_id
_symmetry_equiv_pos_as_xyz
1 x,y,z
2 -x,y,1/2-z
3 1/2+x,1/2+y,z
4 1/2-x,1/2+y,1/2-z
5 -x,-y,-z
6 x,-y,1/2+z
7 1/2-x,1/2-y,-z
8 1/2+x,1/2-y,1/2+z
_cell_length_a                   24.830(5)
_cell_length_b                   6.4993(10)
_cell_length_c                   15.346(3)
_cell_angle_alpha                90
_cell_angle_beta                 110.230(4)
_cell_angle_gamma                90
_cell_volume                     2323.73
loop_
_atom_site_label
_atom_site_type_symbol
_atom_site_fract_x
_atom_site_fract_y
_atom_site_fract_z
O1 O 0.22256(13) 0.3151(4) 0.09745(18)
C1 C 0.21960(17) 0.4957(6) 0.0692(3)
N1 N 0.13522(15) 0.3858(6) -0.0667(2)
C2 C 0.0407(2) 0.2755(8) -0.0889(3)
H1 H 0.0055 0.2984 -0.0816
C3 C 0.04889(18) 0.0991(7) -0.1323(3)
C4 C 0.0014(2) -0.0539(8) -0.1658(3)
H2 H -0.0348 0.0190 -0.1811
H3 H 0.0040 -0.1469 -0.1150
C5 C 0.0000 -0.1825(11) -0.2500
H4 H -0.0336 -0.2706 -0.2675
C6 C 0.14358(19) 0.2156(7) -0.1079(3)
H5 H 0.1790 0.1951 -0.1148
C7 C 0.0840(2) 0.4185(8) -0.0559(3)
H6 H 0.0780 0.5369 -0.0264
C8 C 0.10211(19) 0.0697(7) -0.1405(3)
H7 H 0.1095 -0.0491 -0.1682
C9 C 0.1809(2) 0.5377(8) -0.0309(3)
H8 H 0.1638 0.6730 -0.0341
H9 H 0.2042 0.5390 -0.0703
O2 O 0.24472(14) 0.6505(5) 0.11284(19)
N2 N 0.18731(14) 0.4872(4) 0.2487(2)
N3 N 0.31590(14) 0.4670(5) 0.2987(2)
Mn1 Mn 0.25551(2) 0.72595(8) 0.25539(3)
C10 C 0.1393(2) 0.4825(7) 0.2192(3)
C11 C 0.35516(18) 0.4294(7) 0.3670(3)
O3 O 0.08628(19) 0.4829(9) 0.1848(5)
O4 O 0.39541(17) 0.3827(8) 0.4347(3)
O1A O -0.22256(13) 0.3151(4) -0.59745(18)
O1B O -0.27744(13) 0.8151(4) -0.90255(18)
O1C O 0.27744(13) 0.8151(4) 0.40255(18)
C1A C -0.21960(17) 0.4957(6) -0.5692(3)
N1A N -0.13522(15) 0.3858(6) -0.4333(2)
C2A C -0.0407(2) 0.2755(8) -0.4111(3)
H1A H -0.0055 0.2984 -0.4184
C3A C -0.04889(18) 0.0991(7) -0.3677(3)
C4A C -0.0014(2) -0.0539(8) -0.3342(3)
H2A H 0.0348 0.0190 -0.3189
H3A H -0.0040 -0.1469 -0.3850
H4A H 0.0336 -0.2706 -0.2325
C6A C -0.14358(19) 0.2156(7) -0.3921(3)
H5A H -0.1790 0.1951 -0.3852
C7A C -0.0840(2) 0.4185(8) -0.4441(3)
H6A H -0.0780 0.5369 -0.4736
C8A C -0.10211(19) 0.0697(7) -0.3595(3)
H7A H -0.1095 -0.0491 -0.3318
C9A C -0.1809(2) 0.5377(8) -0.4691(3)
H8A H -0.1638 0.6730 -0.4659
H9A H -0.2042 0.5390 -0.4297
O2A O -0.24472(14) 0.6505(5) -0.61284(19)
N2A N -0.18731(14) 0.4872(4) -0.7487(2)
N2B N -0.31269(14) 0.9872(4) -0.7513(2)
N2C N 0.31269(14) 0.9872(4) 0.2513(2)
N3A N -0.31590(14) 0.4670(5) -0.7987(2)
N3B N -0.18410(14) 0.9670(5) -0.7013(2)
N3C N 0.18410(14) 0.9670(5) 0.2013(2)
Mn1A Mn -0.25551(2) 0.72595(8) -0.75539(3)
Mn1B Mn -0.24449(2) 0.22595(8) -0.74461(3)
Mn1C Mn 0.24449(2) 0.22595(8) 0.24461(3)
C10A C -0.1393(2) 0.4825(7) -0.7192(3)
C11A C -0.35516(18) 0.4294(7) -0.8670(3)
O3A O -0.08628(19) 0.4829(9) -0.6848(5)
O4A O -0.39541(17) 0.3827(8) -0.9347(3)
loop_
_geom_bond_atom_site_label_1
_geom_bond_atom_site_label_2
_geom_bond_site_symmetry_1
_geom_bond_site_symmetry_2
O1 C1 1_555 1_555
C1 C9 1_555 1_555
N1 C6 1_555 1_555
C2 H1 1_555 1_555
C3 C2 1_555 1_555
C4 C3 1_555 1_555
H2 C4 1_555 1_555
H3 C4 1_555 1_555
C5 C4 1_555 1_555
H4 C5 1_555 1_555
C6 H5 1_555 1_555
C7 N1 1_555 1_555
H6 C7 1_555 1_555
C8 C3 1_555 1_555
H7 C8 1_555 1_555
C9 N1 1_555 1_555
H8 C9 1_555 1_555
H9 C9 1_555 1_555
O2 C1 1_555 1_555
N2 Mn1 1_555 1_555
N3 Mn1 1_555 1_555
Mn1 O2 1_555 1_555
C10 N2 1_555 1_555
C11 N3 1_555 1_555
O3 C10 1_555 1_555
O4 C11 1_555 1_555
O1A C1A 1_555 1_555
O1B Mn1A 1_555 1_555
O1C Mn1 1_555 1_555
C1A C9A 1_555 1_555
N1A C6A 1_555 1_555
C2A H1A 1_555 1_555
C3A C2A 1_555 1_555
C4A C5 1_555 1_555
H2A C4A 1_555 1_555
H3A C4A 1_555 1_555
H4A C5 1_555 1_555
C6A H5A 1_555 1_555
C7A N1A 1_555 1_555
H6A C7A 1_555 1_555
C8A C3A 1_555 1_555
H7A C8A 1_555 1_555
C9A N1A 1_555 1_555
H8A C9A 1_555 1_555
H9A C9A 1_555 1_555
O2A C1A 1_555 1_555
N2A Mn1A 1_555 1_555
N2B Mn1A 1_555 1_555
N2C Mn1 1_555 1_555
N3A Mn1A 1_555 1_555
N3B Mn1A 1_555 1_555
N3C Mn1 1_555 1_555
Mn1A O2A 1_555 1_555
Mn1B O1A 1_555 1_555
Mn1C O1 1_555 1_555
C10A N2A 1_555 1_555
C11A N3A 1_555 1_555
O3A C10A 1_555 1_555
O4A C11A 1_555 1_555
C2 C7 1_555 1_555
C6 C8 1_555 1_555
N2 Mn1C 1_555 1_555
N3 Mn1C 1_555 1_555
C2A C7A 1_555 1_555
C3A C4A 1_555 1_555
C6A C8A 1_555 1_555
N2A Mn1B 1_555 1_555
N3A Mn1B 1_555 1_555

#END
