
#######################################################################
#
#                 Cambridge Crystallographic Data Centre
#                                CCDC 
#
#######################################################################
#
# If this CIF has been generated from an entry in the Cambridge 
# Structural Database, then it will include bibliographic, chemical, 
# crystal, experimental, refinement or atomic coordinate data resulting 
# from the CCDC's data processing and validation procedures.
#
#######################################################################

data_UPUTAB
_symmetry_cell_setting           monoclinic
_symmetry_space_group_name_H-M   'P 21/c'
_symmetry_Int_Tables_number      14
_space_group_name_Hall           '-P 2ybc'
loop_
_symmetry_equiv_pos_site_id
_symmetry_equiv_pos_as_xyz
1 x,y,z
2 -x,1/2+y,1/2-z
3 -x,-y,-z
4 x,1/2-y,1/2+z
_cell_length_a                   6.561(5)
_cell_length_b                   17.986(5)
_cell_length_c                   9.411(5)
_cell_angle_alpha                90
_cell_angle_beta                 95.558(5)
_cell_angle_gamma                90
_cell_volume                     1105.33
loop_
_atom_site_label
_atom_site_type_symbol
_atom_site_fract_x
_atom_site_fract_y
_atom_site_fract_z
C1 C 0.1828(5) 0.0831(2) 0.4006(4)
C2 C 0.2500(6) 0.0196(2) 0.4740(4)
H1 H 0.3060 0.0228 0.5684
C3 C 0.2332(6) -0.0482(2) 0.4059(4)
H2 H 0.2760 -0.0916 0.4537
C4 C 0.1510(5) -0.0505(2) 0.2645(4)
C5 C 0.0941(6) 0.0164(2) 0.1977(4)
H3 H 0.0431 0.0150 0.1020
C6 C 0.1181(5) -0.1233(2) 0.1852(4)
C7 C 0.5124(5) 0.0676(2) 0.0646(4)
C8 C 0.4108(6) 0.0595(2) -0.0699(4)
H4 H 0.3514 0.1010 -0.1160
N1 N 0.3952(6) -0.0082(2) -0.1371(4)
C9 C 0.5262(5) 0.1424(2) 0.1370(4)
C10 C -0.1756(6) -0.1573(2) -0.4744(4)
N2 N 0.1084(4) 0.08223(17) 0.2625(3)
O1 O 0.0563(4) -0.12050(15) 0.0548(3)
O2 O -0.1544(4) 0.18142(15) -0.2557(3)
O3 O 0.3738(4) 0.18466(17) 0.1191(3)
O4 O 0.3090(4) -0.15878(15) -0.2112(3)
O5 O -0.1146(4) -0.21334(13) -0.3983(3)
O6 O -0.3117(5) 0.2647(2) -0.0225(4)
O7 O -0.2144(5) -0.16142(16) -0.6058(3)
Ce1 Ce 0.01059(3) 0.214543(11) 0.13223(2)
H5 H -0.422(11) 0.251(6) 0.018(9)
H6 H -0.338(10) 0.266(4) -0.096(8)
C1B C -0.1828(5) -0.0831(2) -0.4006(4)
C2B C -0.2500(6) -0.0196(2) -0.4740(4)
H1B H -0.3060 -0.0228 -0.5684
C3B C -0.2332(6) 0.0482(2) -0.4059(4)
H2B H -0.2760 0.0916 -0.4537
C4B C -0.1510(5) 0.0505(2) -0.2645(4)
C5B C -0.0941(6) -0.0164(2) -0.1977(4)
H3B H -0.0431 -0.0150 -0.1020
C6B C -0.1181(5) 0.1233(2) -0.1852(4)
C7B C 0.4876(5) -0.0676(2) -0.0646(4)
C8B C 0.5892(6) -0.0595(2) 0.0699(4)
H4B H 0.6486 -0.1010 0.1160
N1B N 0.6048(6) 0.0082(2) 0.1371(4)
C9B C 0.4738(5) -0.1424(2) -0.1370(4)
C10B C 0.1756(6) 0.1573(2) 0.4744(4)
N2B N -0.1084(4) -0.08223(17) -0.2625(3)
O1B O -0.0563(4) 0.12050(15) -0.0548(3)
O2C O -0.1544(4) 0.31858(15) 0.2443(3)
O2A O 0.1544(4) -0.31858(15) -0.2443(3)
O2B O 0.1544(4) -0.18142(15) 0.2557(3)
O3B O 0.6262(4) -0.18466(17) -0.1191(3)
O3B_2 O -0.3738(4) -0.18466(17) -0.1191(3)
O4B O 0.6910(4) 0.15878(15) 0.2112(3)
O4B_2 O -0.3090(4) 0.15878(15) 0.2112(3)
O5B O 0.1146(4) 0.21334(13) 0.3983(3)
O5A O 0.1146(4) 0.28666(13) -0.1017(3)
O5C O -0.1146(4) -0.28666(13) 0.1017(3)
O6B O 0.3117(5) -0.2647(2) 0.0225(4)
O7A O 0.2144(5) 0.33858(16) 0.1058(3)
O7C O -0.2144(5) -0.33858(16) -0.1058(3)
O7B O 0.2144(5) 0.16142(16) 0.6058(3)
Ce1C Ce 0.01059(3) 0.285457(11) 0.63223(2)
Ce1B Ce -0.01059(3) -0.214543(11) -0.13223(2)
Ce1B_2 Ce 0.98941(3) -0.214543(11) -0.13223(2)
Ce1A Ce -0.01059(3) -0.285457(11) -0.63223(2)
Ce1_2 Ce 1.01059(3) 0.214543(11) 0.13223(2)
Ce1C_2 Ce 0.01059(3) 0.285457(11) -0.36777(2)
Ce1A_2 Ce -0.01059(3) -0.285457(11) 0.36777(2)
H5B H 0.422(11) -0.251(6) -0.018(9)
H6B H 0.338(10) -0.266(4) 0.096(8)
loop_
_geom_bond_atom_site_label_1
_geom_bond_atom_site_label_2
_geom_bond_site_symmetry_1
_geom_bond_site_symmetry_2
C1 C2 1_555 1_555
C2 H1 1_555 1_555
C3 C2 1_555 1_555
H2 C3 1_555 1_555
C4 C3 1_555 1_555
C5 C4 1_555 1_555
H3 C5 1_555 1_555
C6 C4 1_555 1_555
C7 C8 1_555 1_555
C8 H4 1_555 1_555
N1 C8 1_555 1_555
C9 C7 1_555 1_555
C10 O5 1_555 1_555
N2 C1 1_555 1_555
O1 C6 1_555 1_555
O2 C6B 1_555 1_555
O3 C9 1_555 1_555
O4 C9B 1_555 1_555
O5 Ce1B 1_555 1_555
O6 Ce1 1_555 1_555
O7 C10 1_555 1_555
Ce1 N2 1_555 1_555
H5 O6 1_555 1_555
H6 O6 1_555 1_555
C1B C10 1_555 1_555
C2B C1B 1_555 1_555
H1B C2B 1_555 1_555
C3B C2B 1_555 1_555
H2B C3B 1_555 1_555
C4B C3B 1_555 1_555
C5B C4B 1_555 1_555
H3B C5B 1_555 1_555
C6B C4B 1_555 1_555
C7B N1 1_555 1_555
C8B C7B 1_555 1_555
H4B C8B 1_555 1_555
N1B C7 1_555 1_555
C9B C7B 1_555 1_555
C10B C1 1_555 1_555
N2B C1B 1_555 1_555
O1B Ce1 1_555 1_555
O2C Ce1 1_555 1_555
O2A Ce1B 1_555 1_555
O2B C6 1_555 1_555
O3B C9B 1_555 1_555
O3B_2 Ce1B 1_555 1_555
O4B C9 1_555 1_555
O4B_2 Ce1 1_555 1_555
O5B Ce1 1_555 1_555
O5A Ce1 1_555 1_555
O5C Ce1B 1_555 1_555
O6B Ce1B 1_555 1_555
O7A Ce1 1_555 1_555
O7C Ce1B 1_555 1_555
O7B C10B 1_555 1_555
Ce1C O5B 1_555 1_555
Ce1B O1 1_555 1_555
Ce1B_2 O3B 1_555 1_555
Ce1A O5 1_555 1_555
Ce1_2 O4B 1_555 1_555
Ce1C_2 O2 1_555 1_555
Ce1A_2 O2B 1_555 1_555
H5B O6B 1_555 1_555
H6B O6B 1_555 1_555
C5 N2 1_555 1_555
O3 Ce1 1_555 1_555
O4 Ce1B 1_555 1_555
O7 Ce1A 1_555 1_555
C5B N2B 1_555 1_555
C6B O1B 1_555 1_555
C8B N1B 1_555 1_555
C10B O5B 1_555 1_555
N2B Ce1B 1_555 1_555
O5A Ce1C_2 1_555 1_555
O5C Ce1A_2 1_555 1_555
O7B Ce1C 1_555 1_555

#END
