
#######################################################################
#
#                 Cambridge Crystallographic Data Centre
#                                CCDC 
#
#######################################################################
#
# If this CIF has been generated from an entry in the Cambridge 
# Structural Database, then it will include bibliographic, chemical, 
# crystal, experimental, refinement or atomic coordinate data resulting 
# from the CCDC's data processing and validation procedures.
#
#######################################################################

data_UQADAS
_symmetry_cell_setting           orthorhombic
_symmetry_space_group_name_H-M   'P b c n'
_symmetry_Int_Tables_number      60
_space_group_name_Hall           '-P 2n 2ab'
loop_
_symmetry_equiv_pos_site_id
_symmetry_equiv_pos_as_xyz
1 x,y,z
2 1/2-x,1/2-y,1/2+z
3 -x,y,1/2-z
4 1/2+x,1/2-y,-z
5 -x,-y,-z
6 1/2+x,1/2+y,1/2-z
7 x,-y,1/2+z
8 1/2-x,1/2+y,z
_cell_length_a                   24.1321(8)
_cell_length_b                   10.4040(3)
_cell_length_c                   9.3864(3)
_cell_angle_alpha                90
_cell_angle_beta                 90
_cell_angle_gamma                90
_cell_volume                     2356.65
loop_
_atom_site_label
_atom_site_type_symbol
_atom_site_fract_x
_atom_site_fract_y
_atom_site_fract_z
Mn1 Mn 0.5000 0.54714(9) 0.2500
O1 O 0.56329(14) 0.5581(3) 0.0884(4)
O2 O 0.55484(15) 0.5835(3) -0.1462(4)
C1 C 0.62808(19) 0.6906(4) -0.0300(5)
N1 N 0.46060(17) 0.7320(4) 0.1467(4)
C2 C 0.47806(19) 0.8470(4) 0.1978(5)
C3 C 0.57736(19) 0.6040(4) -0.0279(5)
C4 C 0.4555(2) 0.9654(5) 0.1525(6)
C5 C 0.4114(2) 0.9602(5) 0.0554(6)
H1 H 0.3945 1.0355 0.0245
C6 C 0.4784(2) 1.0835(5) 0.2044(6)
H2 H 0.4632 1.1612 0.1748
C7 C 0.4198(2) 0.7334(5) 0.0527(6)
H3 H 0.4079 0.6553 0.0152
C8 C 0.6501(2) 0.7363(5) 0.0971(6)
H4 H 0.6347 0.7115 0.1836
C9 C 0.6530(2) 0.7253(5) -0.1565(6)
H5 H 0.6391 0.6940 -0.2422
C10 C 0.7201(2) 0.8545(5) -0.0314(8)
C11 C 0.6983(2) 0.8063(5) -0.1568(7)
H6 H 0.7145 0.8289 -0.2431
C12 C 0.6951(2) 0.8191(5) 0.0945(7)
H7 H 0.7088 0.8514 0.1799
C13 C 0.3935(2) 0.8447(5) 0.0068(6)
H8 H 0.3640 0.8400 -0.0567
C14 C 0.7690(3) 0.9465(7) -0.0324(10)
H9 H 0.7864 0.9465 0.0596
H10 H 0.7562 1.0317 -0.0544
H11 H 0.7953 0.9196 -0.1032
Mn1D Mn 0.5000 0.45286(9) -0.2500
Mn1D_2 Mn 0.5000 0.45286(9) 0.7500
O1B O 0.43671(14) 0.5581(3) 0.4116(4)
O2B O 0.44516(15) 0.5835(3) 0.6462(4)
O2D O 0.44516(15) 0.4165(3) 0.1462(4)
O2F O 0.55484(15) 0.4165(3) 0.3538(4)
C1B C 0.37192(19) 0.6906(4) 0.5300(5)
N1B N 0.53940(17) 0.7320(4) 0.3533(4)
C2B C 0.52194(19) 0.8470(4) 0.3022(5)
C3B C 0.42264(19) 0.6040(4) 0.5279(5)
C4B C 0.5445(2) 0.9654(5) 0.3475(6)
C5B C 0.5886(2) 0.9602(5) 0.4446(6)
H1B H 0.6055 1.0355 0.4755
C6B C 0.5216(2) 1.0835(5) 0.2956(6)
H2B H 0.5368 1.1612 0.3252
C7B C 0.5802(2) 0.7334(5) 0.4473(6)
H3B H 0.5921 0.6553 0.4848
C8B C 0.3499(2) 0.7363(5) 0.4029(6)
H4B H 0.3653 0.7115 0.3164
C9B C 0.3470(2) 0.7253(5) 0.6565(6)
H5B H 0.3609 0.6940 0.7422
C10B C 0.2799(2) 0.8545(5) 0.5314(8)
C11B C 0.3017(2) 0.8063(5) 0.6568(7)
H6B H 0.2855 0.8289 0.7431
C12B C 0.3049(2) 0.8191(5) 0.4055(7)
H7B H 0.2912 0.8514 0.3201
C13B C 0.6065(2) 0.8447(5) 0.4932(6)
H8B H 0.6360 0.8400 0.5567
C14B C 0.2310(3) 0.9465(7) 0.5324(10)
H9B H 0.2136 0.9465 0.4404
H10B H 0.2438 1.0317 0.5544
H11B H 0.2047 0.9196 0.6032
loop_
_geom_bond_atom_site_label_1
_geom_bond_atom_site_label_2
_geom_bond_site_symmetry_1
_geom_bond_site_symmetry_2
Mn1 O1 1_555 1_555
O1 C3 1_555 1_555
O2 C3 1_555 1_555
C1 C3 1_555 1_555
N1 Mn1 1_555 1_555
C2 N1 1_555 1_555
C4 C2 1_555 1_555
C5 C4 1_555 1_555
H1 C5 1_555 1_555
C6 C4 1_555 1_555
H2 C6 1_555 1_555
C7 N1 1_555 1_555
H3 C7 1_555 1_555
C8 C1 1_555 1_555
H4 C8 1_555 1_555
C9 C1 1_555 1_555
H5 C9 1_555 1_555
C10 C11 1_555 1_555
C11 C9 1_555 1_555
H6 C11 1_555 1_555
C12 C8 1_555 1_555
H7 C12 1_555 1_555
C13 C5 1_555 1_555
H8 C13 1_555 1_555
C14 C10 1_555 1_555
H9 C14 1_555 1_555
H10 C14 1_555 1_555
H11 C14 1_555 1_555
Mn1D O2 1_555 1_555
Mn1D_2 O2B 1_555 1_555
O1B Mn1 1_555 1_555
O2B C3B 1_555 1_555
O2D Mn1 1_555 1_555
O2F Mn1 1_555 1_555
C1B C3B 1_555 1_555
N1B Mn1 1_555 1_555
C2B C2 1_555 1_555
C3B O1B 1_555 1_555
C4B C2B 1_555 1_555
C5B C4B 1_555 1_555
H1B C5B 1_555 1_555
C6B C6 1_555 1_555
H2B C6B 1_555 1_555
C7B N1B 1_555 1_555
H3B C7B 1_555 1_555
C8B C1B 1_555 1_555
H4B C8B 1_555 1_555
C9B C1B 1_555 1_555
H5B C9B 1_555 1_555
C10B C11B 1_555 1_555
C11B C9B 1_555 1_555
H6B C11B 1_555 1_555
C12B C8B 1_555 1_555
H7B C12B 1_555 1_555
C13B C5B 1_555 1_555
H8B C13B 1_555 1_555
C14B C10B 1_555 1_555
H9B C14B 1_555 1_555
H10B C14B 1_555 1_555
H11B C14B 1_555 1_555
C7 C13 1_555 1_555
C10 C12 1_555 1_555
N1B C2B 1_555 1_555
C4B C6B 1_555 1_555
C7B C13B 1_555 1_555
C10B C12B 1_555 1_555

#END
