
#######################################################################
#
#                 Cambridge Crystallographic Data Centre
#                                CCDC 
#
#######################################################################
#
# If this CIF has been generated from an entry in the Cambridge 
# Structural Database, then it will include bibliographic, chemical, 
# crystal, experimental, refinement or atomic coordinate data resulting 
# from the CCDC's data processing and validation procedures.
#
#######################################################################

data_UQADIA
_symmetry_cell_setting           orthorhombic
_symmetry_space_group_name_H-M   'P 21 21 21'
_symmetry_Int_Tables_number      19
_space_group_name_Hall           'P 2ac 2ab'
loop_
_symmetry_equiv_pos_site_id
_symmetry_equiv_pos_as_xyz
1 x,y,z
2 1/2-x,-y,1/2+z
3 -x,1/2+y,1/2-z
4 1/2+x,1/2-y,-z
_cell_length_a                   7.7548(7)
_cell_length_b                   14.8501(13)
_cell_length_c                   16.9007(15)
_cell_angle_alpha                90
_cell_angle_beta                 90
_cell_angle_gamma                90
_cell_volume                     1946.28
loop_
_atom_site_label
_atom_site_type_symbol
_atom_site_fract_x
_atom_site_fract_y
_atom_site_fract_z
C1 C -0.5639(10) -0.3535(5) -1.1355(4)
C2 C -0.7228(10) -0.3813(6) -1.1777(5)
C3 C -0.7212(12) -0.4158(7) -1.2538(5)
H1 H -0.6152 -0.4243 -1.2784
C4 C -1.0144(11) -0.4231(7) -1.2563(5)
C5 C -1.0548(10) -0.1781(5) -1.1513(4)
C6 C -1.5088(10) -0.1525(6) -1.2050(4)
H2 H -1.6155 -0.1521 -1.1799
C7 C -1.2182(10) -0.1628(6) -1.1993(4)
C8 C -1.5044(11) -0.1382(8) -1.2864(5)
C9 C -1.6626(11) -0.1272(8) -1.3367(5)
H3 H -1.6735 -0.1780 -1.3715
H4 H -1.6528 -0.0731 -1.3675
H5 H -1.7626 -0.1235 -1.3034
C10 C -1.0215(8) -0.4959(5) -0.9847(5)
C11 C -0.7289(9) -0.5088(5) -0.9804(5)
H6 H -0.6200 -0.4826 -0.9819
C12 C -1.2109(11) -0.1454(8) -1.2789(5)
H7 H -1.1033 -0.1408 -1.3028
C13 C -1.1798(8) -0.4374(5) -0.9897(4)
C14 C -1.0325(9) -0.5884(5) -0.9792(5)
H8 H -1.1419 -0.6141 -0.9786
C15 C -0.7409(9) -0.6042(5) -0.9757(5)
C16 C -0.5864(11) -0.6628(6) -0.9714(5)
H9 H -0.5931 -0.7080 -1.0119
H10 H -0.5816 -0.6913 -0.9205
H11 H -0.4846 -0.6271 -0.9791
C17 C -1.0187(9) -0.3887(6) -1.1814(5)
H12 H -1.1255 -0.3795 -1.1577
C18 C -1.1779(10) -0.4411(8) -1.3023(5)
H13 H -1.1528 -0.4802 -1.3461
H14 H -1.2235 -0.3852 -1.3218
H15 H -1.2612 -0.4692 -1.2684
N1 N -0.8751(8) -0.3676(4) -1.1402(3)
N2 N -0.8623(9) -0.4373(6) -1.2932(4)
N3 N -0.8637(7) -0.4564(4) -0.9828(4)
N4 N -0.8980(8) -0.6429(4) -0.9747(5)
N5 N -1.3699(8) -0.1665(5) -1.1613(3)
N6 N -1.3514(9) -0.1349(7) -1.3235(4)
O1 O -0.5882(7) -0.3098(3) -1.0719(3)
O2 O -0.4224(8) -0.3712(5) -1.1640(4)
O3 O -0.9166(8) -0.1697(5) -1.1822(3)
O4 O -1.0832(7) -0.2043(4) -1.0810(3)
O5 O -1.1481(5) -0.3525(3) -0.9920(3)
O6 O -1.3212(6) -0.4727(4) -0.9900(4)
Pr1 Pr -0.85786(4) -0.27912(2) -0.996278(18)
N5C N -0.8699(8) -0.3335(5) -0.8387(3)
O1C O -1.0882(7) -0.1902(3) -0.9281(3)
O4C O -0.5832(7) -0.2957(4) -0.9190(3)
O5C O -0.6481(5) -0.1475(3) -1.0080(3)
Pr1C Pr -1.35786(4) -0.22088(2) -1.003722(18)
Pr1C_2 Pr -0.35786(4) -0.22088(2) -1.003722(18)
loop_
_geom_bond_atom_site_label_1
_geom_bond_atom_site_label_2
_geom_bond_site_symmetry_1
_geom_bond_site_symmetry_2
C1 C2 1_555 1_555
C2 C3 1_555 1_555
C3 H1 1_555 1_555
C4 C17 1_555 1_555
C5 C7 1_555 1_555
C6 H2 1_555 1_555
C7 C12 1_555 1_555
C8 C6 1_555 1_555
C9 C8 1_555 1_555
H3 C9 1_555 1_555
H4 C9 1_555 1_555
H5 C9 1_555 1_555
C10 C13 1_555 1_555
C11 H6 1_555 1_555
C12 H7 1_555 1_555
C13 O5 1_555 1_555
C14 C10 1_555 1_555
H8 C14 1_555 1_555
C15 C11 1_555 1_555
C16 C15 1_555 1_555
H9 C16 1_555 1_555
H10 C16 1_555 1_555
H11 C16 1_555 1_555
C17 H12 1_555 1_555
C18 C4 1_555 1_555
H13 C18 1_555 1_555
H14 C18 1_555 1_555
H15 C18 1_555 1_555
N1 C2 1_555 1_555
N2 C3 1_555 1_555
N3 C10 1_555 1_555
N4 C14 1_555 1_555
N5 C6 1_555 1_555
N6 C8 1_555 1_555
O1 C1 1_555 1_555
O2 C1 1_555 1_555
O3 C5 1_555 1_555
O4 C5 1_555 1_555
O5 Pr1 1_555 1_555
O6 C13 1_555 1_555
Pr1 N1 1_555 1_555
N5C Pr1 1_555 1_555
O1C Pr1 1_555 1_555
O4C Pr1 1_555 1_555
O5C Pr1 1_555 1_555
Pr1C N5 1_555 1_555
Pr1C_2 O1 1_555 1_555
C4 N2 1_555 1_555
C7 N5 1_555 1_555
C11 N3 1_555 1_555
C12 N6 1_555 1_555
C15 N4 1_555 1_555
C17 N1 1_555 1_555
N3 Pr1 1_555 1_555
O1 Pr1 1_555 1_555
O4 Pr1 1_555 1_555
O4 Pr1C 1_555 1_555
O5 Pr1C 1_555 1_555
O1C Pr1C 1_555 1_555
O4C Pr1C_2 1_555 1_555
O5C Pr1C_2 1_555 1_555

#END
