
#######################################################################
#
#                 Cambridge Crystallographic Data Centre
#                                CCDC 
#
#######################################################################
#
# If this CIF has been generated from an entry in the Cambridge 
# Structural Database, then it will include bibliographic, chemical, 
# crystal, experimental, refinement or atomic coordinate data resulting 
# from the CCDC's data processing and validation procedures.
#
#######################################################################

data_UQAGID
_symmetry_cell_setting           monoclinic
_symmetry_space_group_name_H-M   'P 21/c'
_symmetry_Int_Tables_number      14
_space_group_name_Hall           '-P 2ybc'
loop_
_symmetry_equiv_pos_site_id
_symmetry_equiv_pos_as_xyz
1 x,y,z
2 -x,1/2+y,1/2-z
3 -x,-y,-z
4 x,1/2-y,1/2+z
_cell_length_a                   10.920(11)
_cell_length_b                   15.668(16)
_cell_length_c                   12.734(13)
_cell_angle_alpha                90
_cell_angle_beta                 93.884(15)
_cell_angle_gamma                90
_cell_volume                     2173.71
loop_
_atom_site_label
_atom_site_type_symbol
_atom_site_fract_x
_atom_site_fract_y
_atom_site_fract_z
Cu1 Cu 0.34538(15) 0.54856(11) 0.19797(15)
Cu2 Cu 0.47266(15) 0.67301(11) 0.35791(14)
F1 F -0.0288(7) 0.7744(5) 0.3240(7)
F2 F -0.0729(9) 0.6044(7) 0.6228(7)
N1 N 0.0837(10) 0.6006(8) 0.1632(9)
N2 N 0.1675(10) 0.5334(7) 0.1675(9)
N3 N -0.0282(12) 0.4839(9) 0.1394(11)
N4 N 0.3056(10) 0.8185(7) 0.3865(9)
N5 N 0.4014(10) 0.7696(7) 0.4305(9)
N6 N 0.3570(10) 0.8799(7) 0.5383(8)
N7 N 0.5107(11) 0.5788(8) 0.2658(9)
N8 N 0.5975(14) 0.5320(10) 0.2737(12)
N9 N 0.6798(12) 0.4889(10) 0.2787(13)
N10 N 0.3884(10) 0.4362(7) 0.1458(11)
N11 N 0.3434(15) 0.4160(10) 0.0630(14)
N12 N 0.2950(14) 0.3956(9) -0.0215(12)
N13 N 0.6112(11) 0.6659(9) 0.4617(11)
N14 N 0.6167(14) 0.6065(12) 0.5165(15)
N15 N 0.6376(14) 0.5510(11) 0.5775(13)
O1 O 0.3152(7) 0.6525(6) 0.2780(7)
O2 O 0.5620(9) 0.7776(7) 0.2448(8)
H1 H 0.5596 0.8242 0.2739
C1 C 0.0868(14) 0.4663(9) 0.1553(13)
H2 H 0.1143 0.4101 0.1583
C2 C -0.0309(15) 0.5710(11) 0.1457(14)
H3 H -0.1014 0.6045 0.1388
C3 C 0.4274(12) 0.8098(8) 0.5232(11)
H4 H 0.4882 0.7912 0.5726
C4 C 0.2821(12) 0.8824(9) 0.4501(11)
H5 H 0.2219 0.9235 0.4357
C5 C 0.1240(11) 0.6884(9) 0.1785(12)
H6 H 0.0526 0.7251 0.1790
H7 H 0.1705 0.7053 0.1197
C6 C 0.2038(13) 0.7015(8) 0.2813(13)
C7 C 0.2414(12) 0.7976(8) 0.2839(11)
H8 H 0.2949 0.8092 0.2278
H9 H 0.1688 0.8330 0.2728
C8 C 0.1299(13) 0.6769(10) 0.3747(12)
C9 C 0.0165(14) 0.7130(11) 0.3939(12)
C10 C -0.0552(15) 0.6870(10) 0.4730(13)
H10 H -0.1329 0.7100 0.4794
C11 C -0.0089(16) 0.6268(11) 0.5413(14)
C12 C 0.1002(17) 0.5893(11) 0.5288(13)
H11 H 0.1294 0.5468 0.5749
C13 C 0.1701(13) 0.6157(10) 0.4441(15)
H12 H 0.2458 0.5901 0.4360
C14 C 0.6916(14) 0.7542(12) 0.2308(14)
H13 H 0.7423 0.8041 0.2393
H14 H 0.6980 0.7311 0.1616
H15 H 0.7182 0.7124 0.2824
Cu1C Cu 0.34538(15) 0.95144(11) 0.69797(15)
N6C N 0.3570(10) 0.6201(7) 0.0383(8)
loop_
_geom_bond_atom_site_label_1
_geom_bond_atom_site_label_2
_geom_bond_site_symmetry_1
_geom_bond_site_symmetry_2
Cu1 N2 1_555 1_555
Cu2 N5 1_555 1_555
F1 C9 1_555 1_555
F2 C11 1_555 1_555
N1 N2 1_555 1_555
N2 C1 1_555 1_555
N3 C1 1_555 1_555
N4 N5 1_555 1_555
N5 C3 1_555 1_555
N6 C3 1_555 1_555
N7 Cu1 1_555 1_555
N8 N7 1_555 1_555
N9 N8 1_555 1_555
N10 Cu1 1_555 1_555
N11 N10 1_555 1_555
N12 N11 1_555 1_555
N13 Cu2 1_555 1_555
N14 N13 1_555 1_555
N15 N14 1_555 1_555
O1 Cu1 1_555 1_555
O2 Cu2 1_555 1_555
H1 O2 1_555 1_555
C1 H2 1_555 1_555
C2 N1 1_555 1_555
H3 C2 1_555 1_555
C3 H4 1_555 1_555
C4 N4 1_555 1_555
H5 C4 1_555 1_555
C5 N1 1_555 1_555
H6 C5 1_555 1_555
H7 C5 1_555 1_555
C6 O1 1_555 1_555
C7 N4 1_555 1_555
H8 C7 1_555 1_555
H9 C7 1_555 1_555
C8 C6 1_555 1_555
C9 C8 1_555 1_555
C10 C9 1_555 1_555
H10 C10 1_555 1_555
C11 C10 1_555 1_555
C12 C11 1_555 1_555
H11 C12 1_555 1_555
C13 C8 1_555 1_555
H12 C13 1_555 1_555
C14 O2 1_555 1_555
H13 C14 1_555 1_555
H14 C14 1_555 1_555
H15 C14 1_555 1_555
Cu1C N6 1_555 1_555
N6C Cu1 1_555 1_555
Cu2 N7 1_555 1_555
Cu2 O1 1_555 1_555
N3 C2 1_555 1_555
N6 C4 1_555 1_555
C5 C6 1_555 1_555
C6 C7 1_555 1_555
C12 C13 1_555 1_555

#END
