
#######################################################################
#
#                 Cambridge Crystallographic Data Centre
#                                CCDC 
#
#######################################################################
#
# If this CIF has been generated from an entry in the Cambridge 
# Structural Database, then it will include bibliographic, chemical, 
# crystal, experimental, refinement or atomic coordinate data resulting 
# from the CCDC's data processing and validation procedures.
#
#######################################################################

data_UQAGAV
_symmetry_cell_setting           orthorhombic
_symmetry_space_group_name_H-M   'I b a 2'
_symmetry_Int_Tables_number      45
_space_group_name_Hall           'I 2 -2c'
loop_
_symmetry_equiv_pos_site_id
_symmetry_equiv_pos_as_xyz
1 x,y,z
2 -x,-y,z
3 -x,y,1/2+z
4 x,-y,1/2+z
5 1/2+x,1/2+y,1/2+z
6 1/2-x,1/2-y,1/2+z
7 1/2-x,1/2+y,z
8 1/2+x,1/2-y,z
_cell_length_a                   26.422(2)
_cell_length_b                   15.1060(12)
_cell_length_c                   6.8486(5)
_cell_angle_alpha                90
_cell_angle_beta                 90
_cell_angle_gamma                90
_cell_volume                     2733.49
loop_
_atom_site_label
_atom_site_type_symbol
_atom_site_fract_x
_atom_site_fract_y
_atom_site_fract_z
K1 K 0.560805(13) -0.06687(2) 1.05661(8)
O1 O 0.53619(5) 0.10319(9) 1.1810(2)
O2 O 0.58779(5) 0.10702(8) 0.9264(2)
N1 N 0.84050(8) 0.38239(18) 0.9318(5)
N2 N 0.62476(5) 0.26425(12) 0.8103(3)
H1 H 0.6391 0.2137 0.8262
C1 C 0.80975(8) 0.37664(18) 0.8159(5)
C2 C 0.53609(11) 0.37399(18) 1.2563(4)
H2 H 0.5159 0.3988 1.3531
C3 C 0.56359(5) 0.14438(10) 1.0624(3)
C4 C 0.78102(10) 0.39986(17) 0.4807(5)
H3 H 0.8134 0.4182 0.4465
C5 C 0.59523(9) 0.39052(14) 0.9924(4)
H4 H 0.6152 0.4275 0.9160
C6 C 0.69560(9) 0.37074(19) 0.3950(4)
H5 H 0.6702 0.3706 0.3011
C7 C 0.77071(8) 0.37221(15) 0.6708(4)
C8 C 0.63151(8) 0.31062(16) 0.6272(4)
H6 H 0.6094 0.3618 0.6268
H7 H 0.6206 0.2719 0.5223
C9 C 0.53769(8) 0.28415(15) 1.2292(3)
H8 H 0.5184 0.2484 1.3110
C10 C 0.74313(11) 0.3998(2) 0.3452(5)
H9 H 0.7495 0.4194 0.2189
C11 C 0.72266(7) 0.34282(13) 0.7210(3)
H10 H 0.7161 0.3239 0.8477
C12 C 0.56521(10) 0.42675(15) 1.1363(4)
H11 H 0.5646 0.4879 1.1528
C13 C 0.68468(7) 0.34159(12) 0.5830(3)
C14 C 0.59616(7) 0.29842(12) 0.9591(3)
C15 C 0.56703(6) 0.24365(11) 1.0841(3)
K1A K 0.439195(13) 0.06687(2) 1.05661(8)
K1C K 0.560805(13) 0.06687(2) 1.55661(8)
K1C_2 K 0.560805(13) 0.06687(2) 0.55661(8)
K1F K 0.939195(13) 0.43313(2) 1.05661(8)
O1A O 0.46381(5) -0.10319(9) 1.1810(2)
O1C O 0.53619(5) -0.10319(9) 0.6810(2)
O2C O 0.58779(5) -0.10702(8) 1.4264(2)
N1F N 0.65950(8) -0.11761(18) 0.9318(5)
loop_
_geom_bond_atom_site_label_1
_geom_bond_atom_site_label_2
_geom_bond_site_symmetry_1
_geom_bond_site_symmetry_2
K1 O1 1_555 1_555
O1 C3 1_555 1_555
O2 K1 1_555 1_555
N1 C1 1_555 1_555
N2 H1 1_555 1_555
C1 C7 1_555 1_555
C2 H2 1_555 1_555
C3 O2 1_555 1_555
C4 H3 1_555 1_555
C5 H4 1_555 1_555
C6 H5 1_555 1_555
C7 C4 1_555 1_555
C8 N2 1_555 1_555
H6 C8 1_555 1_555
H7 C8 1_555 1_555
C9 C2 1_555 1_555
H8 C9 1_555 1_555
C10 C4 1_555 1_555
H9 C10 1_555 1_555
C11 C7 1_555 1_555
H10 C11 1_555 1_555
C12 C2 1_555 1_555
H11 C12 1_555 1_555
C13 C6 1_555 1_555
C14 N2 1_555 1_555
C15 C3 1_555 1_555
K1A O1 1_555 1_555
K1C O1 1_555 1_555
K1C_2 O2 1_555 1_555
K1F N1 1_555 1_555
O1A K1 1_555 1_555
O1C K1 1_555 1_555
O2C K1 1_555 1_555
N1F K1 1_555 1_555
C5 C12 1_555 1_555
C5 C14 1_555 1_555
C6 C10 1_555 1_555
C8 C13 1_555 1_555
C9 C15 1_555 1_555
C11 C13 1_555 1_555
C14 C15 1_555 1_555
K1A O1A 1_555 1_555
K1C O2C 1_555 1_555
K1C_2 O1C 1_555 1_555

#END
