
#######################################################################
#
#                 Cambridge Crystallographic Data Centre
#                                CCDC 
#
#######################################################################
#
# If this CIF has been generated from an entry in the Cambridge 
# Structural Database, then it will include bibliographic, chemical, 
# crystal, experimental, refinement or atomic coordinate data resulting 
# from the CCDC's data processing and validation procedures.
#
#######################################################################

data_UQAKON
_symmetry_cell_setting           monoclinic
_symmetry_space_group_name_H-M   'P 21/n'
_symmetry_Int_Tables_number      14
_space_group_name_Hall           '-P 2yn'
loop_
_symmetry_equiv_pos_site_id
_symmetry_equiv_pos_as_xyz
1 x,y,z
2 1/2-x,1/2+y,1/2-z
3 -x,-y,-z
4 1/2+x,1/2-y,1/2+z
_cell_length_a                   10.2409(11)
_cell_length_b                   18.820(2)
_cell_length_c                   14.4547(15)
_cell_angle_alpha                90
_cell_angle_beta                 91.806(2)
_cell_angle_gamma                90
_cell_volume                     2784.52
loop_
_atom_site_label
_atom_site_type_symbol
_atom_site_fract_x
_atom_site_fract_y
_atom_site_fract_z
C1 C 0.4938(6) 0.7274(3) 0.8085(3)
H1 H 0.4389 0.7316 0.8583
C2 C 0.6432(5) 0.6912(3) 0.7201(3)
C3 C 0.5838(6) 0.7494(3) 0.6775(3)
C4 C 0.4972(5) 0.6248(3) 1.0855(3)
H2 H 0.4472 0.5841 1.0758
C5 C 0.6365(5) 0.7080(3) 1.0668(3)
C6 C 0.5741(5) 0.7215(3) 1.1492(3)
C7 C 0.6007(8) 0.7800(4) 1.2037(4)
H3 H 0.5570 0.7890 1.2580
C8 C 0.6957(10) 0.8239(4) 1.1724(5)
H4 H 0.7209 0.8630 1.2080
C9 C 0.7555(8) 0.8121(4) 1.0898(5)
H5 H 0.8162 0.8452 1.0701
C10 C 0.7298(6) 0.7545(3) 1.0360(4)
H6 H 0.7729 0.7467 0.9813
C11 C 0.7451(6) 0.6575(3) 0.6790(4)
H7 H 0.7864 0.6185 0.7064
C12 C 0.7840(7) 0.6844(4) 0.5949(5)
H8 H 0.8539 0.6633 0.5657
C13 C 0.7222(9) 0.7410(5) 0.5538(5)
H9 H 0.7507 0.7567 0.4969
C14 C 0.6209(8) 0.7755(4) 0.5927(4)
H10 H 0.5794 0.8140 0.5643
C15 C 1.3403(5) 0.5696(3) 0.8923(3)
C16 C 1.2227(5) 0.5247(3) 0.8745(4)
H11 H 1.2288 0.4824 0.9128
H12 H 1.2198 0.5098 0.8102
C17 C 1.0974(5) 0.5645(4) 0.8953(4)
H13 H 1.0979 0.5754 0.9609
H14 H 1.0971 0.6092 0.8619
C18 C 0.9750(5) 0.5256(4) 0.8704(5)
H15 H 0.9744 0.4810 0.9041
H16 H 0.9741 0.5145 0.8049
C19 C 0.8502(6) 0.5675(4) 0.8919(5)
C20 C 0.3877(5) 0.6607(3) 1.2299(3)
H17 H 0.3077 0.6420 1.2016
H18 H 0.3687 0.7076 1.2537
C21 C 0.4295(5) 0.6135(3) 1.3092(3)
C22 C 0.4771(5) 0.6397(3) 1.3916(3)
H19 H 0.4906 0.6884 1.3982
C23 C 0.5055(5) 0.5952(3) 1.4651(3)
H20 H 0.5380 0.6146 1.5204
C24 C 0.4877(4) 0.5243(2) 1.4594(3)
C25 C 0.4462(7) 0.4988(3) 1.3761(3)
H21 H 0.4361 0.4500 1.3687
C26 C 0.4187(8) 0.5423(3) 1.3024(4)
H22 H 0.3918 0.5223 1.2462
C27 C 0.4079(7) 0.8353(3) 0.7301(4)
H23 H 0.3166 0.8216 0.7288
H24 H 0.4248 0.8599 0.6727
C28 C 0.4338(6) 0.8851(3) 0.8098(4)
C29 C 0.3369(6) 0.9192(3) 0.8528(4)
H25 H 0.2509 0.9119 0.8324
C30 C 0.3622(5) 0.9646(3) 0.9263(4)
H26 H 0.2929 0.9878 0.9534
C31 C 0.4867(5) 0.9765(3) 0.9603(3)
C32 C 0.5841(6) 0.9431(4) 0.9157(5)
H27 H 0.6704 0.9506 0.9350
C33 C 0.5566(7) 0.8984(4) 0.8421(5)
H28 H 0.6258 0.8763 0.8134
N1 N 0.5828(4) 0.6778(2) 0.8033(3)
N2 N 0.4886(5) 0.7716(2) 0.7362(3)
N3 N 0.5862(4) 0.6465(2) 1.0284(2)
N4 N 0.4860(4) 0.6671(2) 1.1587(2)
O1 O 0.8597(5) 0.6284(4) 0.9143(6)
O2 O 0.7460(4) 0.5356(2) 0.8808(3)
O3 O 1.3277(4) 0.6326(2) 0.9082(3)
O4 O 1.4517(3) 0.53822(17) 0.8883(2)
Zn1 Zn 0.60319(5) 0.60216(3) 0.90270(4)
C1B C 0.5062(6) 1.2726(3) 1.1915(3)
H1B H 0.5611 1.2684 1.1417
C2B C 0.3568(5) 1.3088(3) 1.2799(3)
C3B C 0.4162(6) 1.2506(3) 1.3225(3)
C4B C 0.5028(5) 0.3752(3) 1.9145(3)
H2B H 0.5528 0.4159 1.9242
C5B C 0.3635(5) 0.2920(3) 1.9332(3)
C6B C 0.4259(5) 0.2785(3) 1.8508(3)
C7B C 0.3993(8) 0.2200(4) 1.7963(4)
H3B H 0.4430 0.2110 1.7420
C8B C 0.3043(10) 0.1761(4) 1.8276(5)
H4B H 0.2791 0.1370 1.7920
C9B C 0.2445(8) 0.1879(4) 1.9102(5)
H5B H 0.1838 0.1548 1.9299
C10B C 0.2702(6) 0.2455(3) 1.9640(4)
H6B H 0.2271 0.2533 2.0187
C11B C 0.2549(6) 1.3425(3) 1.3210(4)
H7B H 0.2136 1.3815 1.2936
C12B C 0.2160(7) 1.3156(4) 1.4051(5)
H8B H 0.1461 1.3367 1.4343
C13B C 0.2778(9) 1.2590(5) 1.4462(5)
H9B H 0.2493 1.2433 1.5031
C14B C 0.3791(8) 1.2245(4) 1.4073(4)
H10B H 0.4206 1.1860 1.4357
C15_2 C 0.3403(5) 0.5696(3) 0.8923(3)
C16_2 C 0.2227(5) 0.5247(3) 0.8745(4)
H11_2 H 0.2288 0.4824 0.9128
H12_2 H 0.2198 0.5098 0.8102
C17_2 C 0.0974(5) 0.5645(4) 0.8953(4)
H13_2 H 0.0979 0.5754 0.9609
H14_2 H 0.0971 0.6092 0.8619
C18_2 C -0.0250(5) 0.5256(4) 0.8704(5)
H15_2 H -0.0256 0.4810 0.9041
H16_2 H -0.0259 0.5145 0.8049
C19_2 C -0.1498(6) 0.5675(4) 0.8919(5)
C20B C 0.6123(5) 0.3393(3) 1.7701(3)
H17B H 0.6923 0.3580 1.7984
H18B H 0.6313 0.2924 1.7463
C21B C 0.5705(5) 0.3865(3) 1.6908(3)
C22B C 0.5229(5) 0.3603(3) 1.6084(3)
H19B H 0.5094 0.3116 1.6018
C23B C 0.4945(5) 0.4048(3) 1.5349(3)
H20B H 0.4620 0.3854 1.4796
C24B C 0.5123(4) 0.4757(2) 1.5406(3)
C25B C 0.5538(7) 0.5012(3) 1.6239(3)
H21B H 0.5639 0.5500 1.6313
C26B C 0.5813(8) 0.4577(3) 1.6976(4)
H22B H 0.6082 0.4777 1.7538
C27B C 0.5921(7) 1.1647(3) 1.2699(4)
H23B H 0.6834 1.1784 1.2712
H24B H 0.5752 1.1401 1.3273
C28B C 0.5662(6) 1.1149(3) 1.1902(4)
C29B C 0.6631(6) 1.0808(3) 1.1472(4)
H25B H 0.7491 1.0881 1.1676
C30B C 0.6378(5) 1.0354(3) 1.0737(4)
H26B H 0.7071 1.0122 1.0466
C31B C 0.5133(5) 1.0235(3) 1.0397(3)
C32B C 0.4159(6) 1.0569(4) 1.0843(5)
H27B H 0.3296 1.0494 1.0650
C33B C 0.4434(7) 1.1016(4) 1.1579(5)
H28B H 0.3742 1.1237 1.1866
N1B N 0.4172(4) 1.3222(2) 1.1967(3)
N2B N 0.5114(5) 1.2284(2) 1.2638(3)
N3B N 0.4138(4) 0.3535(2) 1.9716(2)
N3B_2 N 0.4138(4) 1.3535(2) 0.9716(2)
N4B N 0.5140(4) 0.3329(2) 1.8413(2)
O1_2 O -0.1403(5) 0.6284(4) 0.9143(6)
O2_2 O -0.2540(4) 0.5356(2) 0.8808(3)
O2B O 0.2540(4) 1.4644(2) 1.1192(3)
O3_2 O 0.3277(4) 0.6326(2) 0.9082(3)
O4_2 O 0.4517(3) 0.53822(17) 0.8883(2)
O4B O 0.5483(3) 1.46178(17) 1.1117(2)
Zn1B Zn 0.39681(5) 1.39784(3) 1.09730(4)
Zn1_2 Zn 1.60319(5) 0.60216(3) 0.90270(4)
Zn1B_2 Zn 0.39681(5) 0.39784(3) 2.09730(4)
Zn1_3 Zn -0.39681(5) 0.60216(3) 0.90270(4)
loop_
_geom_bond_atom_site_label_1
_geom_bond_atom_site_label_2
_geom_bond_site_symmetry_1
_geom_bond_site_symmetry_2
C1 H1 1_555 1_555
C2 C3 1_555 1_555
C3 C14 1_555 1_555
C4 H2 1_555 1_555
C5 C6 1_555 1_555
C6 C7 1_555 1_555
C7 H3 1_555 1_555
C8 C7 1_555 1_555
H4 C8 1_555 1_555
C9 C8 1_555 1_555
H5 C9 1_555 1_555
C10 C5 1_555 1_555
H6 C10 1_555 1_555
C11 C2 1_555 1_555
H7 C11 1_555 1_555
C12 C11 1_555 1_555
H8 C12 1_555 1_555
C13 C12 1_555 1_555
H9 C13 1_555 1_555
C14 C13 1_555 1_555
H10 C14 1_555 1_555
C15 C16 1_555 1_555
C16 H11 1_555 1_555
H12 C16 1_555 1_555
C17 C16 1_555 1_555
H13 C17 1_555 1_555
H14 C17 1_555 1_555
C18 C17 1_555 1_555
H15 C18 1_555 1_555
H16 C18 1_555 1_555
C19 C18 1_555 1_555
C20 H17 1_555 1_555
H18 C20 1_555 1_555
C21 C20 1_555 1_555
C22 C21 1_555 1_555
H19 C22 1_555 1_555
C23 C22 1_555 1_555
H20 C23 1_555 1_555
C24 C23 1_555 1_555
C25 C24 1_555 1_555
H21 C25 1_555 1_555
C26 C21 1_555 1_555
H22 C26 1_555 1_555
C27 H23 1_555 1_555
H24 C27 1_555 1_555
C28 C27 1_555 1_555
C29 C28 1_555 1_555
H25 C29 1_555 1_555
C30 C29 1_555 1_555
H26 C30 1_555 1_555
C31 C30 1_555 1_555
C32 C31 1_555 1_555
H27 C32 1_555 1_555
C33 C28 1_555 1_555
H28 C33 1_555 1_555
N1 C1 1_555 1_555
N2 C1 1_555 1_555
N3 C4 1_555 1_555
N4 C4 1_555 1_555
O1 C19 1_555 1_555
O2 C19 1_555 1_555
O3 C15 1_555 1_555
O4 C15 1_555 1_555
Zn1 N1 1_555 1_555
C1B H1B 1_555 1_555
C2B C3B 1_555 1_555
C3B C14B 1_555 1_555
C4B H2B 1_555 1_555
C5B C6B 1_555 1_555
C6B C7B 1_555 1_555
C7B H3B 1_555 1_555
C8B C7B 1_555 1_555
H4B C8B 1_555 1_555
C9B C8B 1_555 1_555
H5B C9B 1_555 1_555
C10B C5B 1_555 1_555
H6B C10B 1_555 1_555
C11B C2B 1_555 1_555
H7B C11B 1_555 1_555
C12B C11B 1_555 1_555
H8B C12B 1_555 1_555
C13B C12B 1_555 1_555
H9B C13B 1_555 1_555
C14B C13B 1_555 1_555
H10B C14B 1_555 1_555
C15_2 C16_2 1_555 1_555
C16_2 H11_2 1_555 1_555
H12_2 C16_2 1_555 1_555
C17_2 C16_2 1_555 1_555
H13_2 C17_2 1_555 1_555
H14_2 C17_2 1_555 1_555
C18_2 C17_2 1_555 1_555
H15_2 C18_2 1_555 1_555
H16_2 C18_2 1_555 1_555
C19_2 C18_2 1_555 1_555
C20B H17B 1_555 1_555
H18B C20B 1_555 1_555
C21B C20B 1_555 1_555
C22B C21B 1_555 1_555
H19B C22B 1_555 1_555
C23B C22B 1_555 1_555
H20B C23B 1_555 1_555
C24B C24 1_555 1_555
C25B C24B 1_555 1_555
H21B C25B 1_555 1_555
C26B C21B 1_555 1_555
H22B C26B 1_555 1_555
C27B H23B 1_555 1_555
H24B C27B 1_555 1_555
C28B C27B 1_555 1_555
C29B C28B 1_555 1_555
H25B C29B 1_555 1_555
C30B C29B 1_555 1_555
H26B C30B 1_555 1_555
C31B C31 1_555 1_555
C32B C31B 1_555 1_555
H27B C32B 1_555 1_555
C33B C28B 1_555 1_555
H28B C33B 1_555 1_555
N1B C1B 1_555 1_555
N2B C1B 1_555 1_555
N3B C4B 1_555 1_555
N3B_2 Zn1B 1_555 1_555
N4B C4B 1_555 1_555
O1_2 C19_2 1_555 1_555
O2_2 C19_2 1_555 1_555
O2B Zn1B 1_555 1_555
O3_2 C15_2 1_555 1_555
O4_2 Zn1 1_555 1_555
O4B Zn1B 1_555 1_555
Zn1B N1B 1_555 1_555
Zn1_2 O4 1_555 1_555
Zn1B_2 N3B 1_555 1_555
Zn1_3 O2_2 1_555 1_555
C2 N1 1_555 1_555
C3 N2 1_555 1_555
C5 N3 1_555 1_555
C6 N4 1_555 1_555
C9 C10 1_555 1_555
C20 N4 1_555 1_555
C25 C26 1_555 1_555
C27 N2 1_555 1_555
C32 C33 1_555 1_555
N3 Zn1 1_555 1_555
O2 Zn1 1_555 1_555
C2B N1B 1_555 1_555
C3B N2B 1_555 1_555
C5B N3B 1_555 1_555
C6B N4B 1_555 1_555
C9B C10B 1_555 1_555
C15_2 O4_2 1_555 1_555
C20B N4B 1_555 1_555
C23B C24B 1_555 1_555
C25B C26B 1_555 1_555
C27B N2B 1_555 1_555
C30B C31B 1_555 1_555
C32B C33B 1_555 1_555

#END
