
#######################################################################
#
#                 Cambridge Crystallographic Data Centre
#                                CCDC 
#
#######################################################################
#
# If this CIF has been generated from an entry in the Cambridge 
# Structural Database, then it will include bibliographic, chemical, 
# crystal, experimental, refinement or atomic coordinate data resulting 
# from the CCDC's data processing and validation procedures.
#
#######################################################################

data_UQAROU
_symmetry_cell_setting           triclinic
_symmetry_space_group_name_H-M   'P -1'
_symmetry_Int_Tables_number      2
_space_group_name_Hall           '-P 1'
loop_
_symmetry_equiv_pos_site_id
_symmetry_equiv_pos_as_xyz
1 x,y,z
2 -x,-y,-z
_cell_length_a                   7.791(2)
_cell_length_b                   12.058(3)
_cell_length_c                   12.109(3)
_cell_angle_alpha                82.189(5)
_cell_angle_beta                 72.407(5)
_cell_angle_gamma                89.184(4)
_cell_volume                     1073.86
loop_
_atom_site_label
_atom_site_type_symbol
_atom_site_fract_x
_atom_site_fract_y
_atom_site_fract_z
Cu1 Cu 0.18233(15) 0.47811(9) 0.60106(10)
Eu1 Eu 1.25541(6) 0.18741(4) 0.04101(4)
C1 C 0.7434(12) 0.3982(8) 0.1913(8)
C2 C 0.6477(11) 0.3232(7) 0.3046(7)
C3 C 0.5208(11) 0.3723(7) 0.3870(7)
H1 H 0.4967 0.4478 0.3727
C4 C 0.4280(11) 0.3084(7) 0.4924(7)
C5 C 0.2595(12) 0.2476(7) 0.6671(7)
H2 H 0.1780 0.2444 0.7417
C6 C 0.4632(11) 0.1956(7) 0.5144(7)
C7 C 0.5878(11) 0.1422(7) 0.4312(7)
H3 H 0.6095 0.0665 0.4462
C8 C 0.6803(11) 0.2062(7) 0.3235(7)
C9 C 0.8178(12) 0.1462(8) 0.2365(7)
C10 C 0.4662(12) 0.7944(8) 0.1769(7)
C11 C 0.3010(11) 0.7902(7) 0.2809(7)
C12 C 0.2665(11) 0.6928(7) 0.3604(7)
H4 H 0.3329 0.6291 0.3444
C13 C 0.1274(11) 0.6940(7) 0.4660(7)
C14 C -0.0616(11) 0.6570(8) 0.6399(8)
H5 H -0.1253 0.6200 0.7132
C15 C 0.0260(11) 0.7902(7) 0.4893(7)
C16 C 0.0559(11) 0.8870(7) 0.4084(7)
H6 H -0.0141 0.9497 0.4230
C17 C 0.1946(12) 0.8859(7) 0.3052(7)
C18 C 0.2262(11) 0.9918(7) 0.2156(8)
N1 N 0.2968(10) 0.3399(6) 0.5899(6)
N2 N 0.3519(9) 0.1591(6) 0.6261(6)
H7 H 0.3434 0.0921 0.6627
N3 N 0.0684(9) 0.6113(6) 0.5637(6)
N4 N -0.0928(9) 0.7638(6) 0.6002(6)
H8 H -0.1719 0.8069 0.6373
O1 O 0.8122(9) 0.4872(5) 0.2050(5)
O2 O 0.7382(8) 0.3692(5) 0.0973(5)
O3 O 0.9608(8) 0.1997(5) 0.1743(5)
O4 O 0.7818(9) 0.0465(5) 0.2299(5)
O5 O 0.5207(8) 0.7058(5) 0.1338(5)
O6 O 0.5496(8) 0.8872(5) 0.1350(5)
O7 O 0.2461(8) 1.0845(5) 0.2456(5)
O8 O 0.2195(8) 0.9839(5) 0.1131(5)
O9 O 1.0822(8) 0.1131(5) -0.0733(5)
H9 H 1.1508 0.0701 -0.1163
H10 H 0.9783 0.1079 -0.0817
O10 O 1.1083(8) 0.3477(5) -0.0240(5)
H11 H 1.0045 0.3606 0.0203
H12 H 1.1296 0.3946 -0.0859
O11 O 1.5622(8) 0.1354(5) 0.0588(5)
H13 H 1.5744 0.0960 0.1196
H14 H 1.6051 0.0994 0.0014
O12 O 1.3750(8) 0.3245(5) 0.1241(5)
H15 H 1.4872 0.3296 0.1151
H16 H 1.3403 0.3894 0.1048
Eu1A Eu 0.74459(6) 0.81259(4) -0.04101(4)
Eu1_2 Eu 0.25541(6) 1.18741(4) 0.04101(4)
O5A O 1.4793(8) 0.2942(5) -0.1338(5)
O6A O 1.4504(8) 0.1128(5) -0.1350(5)
O7_2 O 1.2461(8) 0.0845(5) 0.2456(5)
O8_2 O 1.2195(8) -0.0161(5) 0.1131(5)
O13 O 0.2813(9) 0.5346(5) 0.1252(6)
H17 H 0.3381 0.5864 0.1417
H18 H 0.2636 0.5575 0.0600
loop_
_geom_bond_atom_site_label_1
_geom_bond_atom_site_label_2
_geom_bond_site_symmetry_1
_geom_bond_site_symmetry_2
Cu1 N1 1_555 1_555
Eu1 O3 1_555 1_555
C1 C2 1_555 1_555
C2 C3 1_555 1_555
C3 H1 1_555 1_555
C4 C3 1_555 1_555
C5 H2 1_555 1_555
C6 C4 1_555 1_555
C7 C6 1_555 1_555
H3 C7 1_555 1_555
C8 C2 1_555 1_555
C9 C8 1_555 1_555
C10 C11 1_555 1_555
C11 C12 1_555 1_555
C12 H4 1_555 1_555
C13 C12 1_555 1_555
C14 H5 1_555 1_555
C15 C13 1_555 1_555
C16 C15 1_555 1_555
H6 C16 1_555 1_555
C17 C11 1_555 1_555
C18 C17 1_555 1_555
N1 C4 1_555 1_555
N2 C5 1_555 1_555
H7 N2 1_555 1_555
N3 Cu1 1_555 1_555
N4 C14 1_555 1_555
H8 N4 1_555 1_555
O1 C1 1_555 1_555
O2 C1 1_555 1_555
O3 C9 1_555 1_555
O4 C9 1_555 1_555
O5 C10 1_555 1_555
O6 C10 1_555 1_555
O7 C18 1_555 1_555
O8 C18 1_555 1_555
O9 Eu1 1_555 1_555
H9 O9 1_555 1_555
H10 O9 1_555 1_555
O10 Eu1 1_555 1_555
H11 O10 1_555 1_555
H12 O10 1_555 1_555
O11 Eu1 1_555 1_555
H13 O11 1_555 1_555
H14 O11 1_555 1_555
O12 Eu1 1_555 1_555
H15 O12 1_555 1_555
H16 O12 1_555 1_555
O13 H17 1_555 1_555
H18 O13 1_555 1_555
Eu1A O5 1_555 1_555
Eu1_2 O7 1_555 1_555
O5A Eu1 1_555 1_555
O6A Eu1 1_555 1_555
O7_2 Eu1 1_555 1_555
O8_2 Eu1 1_555 1_555
C5 N1 1_555 1_555
C6 N2 1_555 1_555
C7 C8 1_555 1_555
C13 N3 1_555 1_555
C14 N3 1_555 1_555
C15 N4 1_555 1_555
C16 C17 1_555 1_555
O6 Eu1A 1_555 1_555
O8 Eu1_2 1_555 1_555

#END
