
#######################################################################
#
#                 Cambridge Crystallographic Data Centre
#                                CCDC 
#
#######################################################################
#
# If this CIF has been generated from an entry in the Cambridge 
# Structural Database, then it will include bibliographic, chemical, 
# crystal, experimental, refinement or atomic coordinate data resulting 
# from the CCDC's data processing and validation procedures.
#
#######################################################################

data_UQATIQ
_symmetry_cell_setting           triclinic
_symmetry_space_group_name_H-M   'P -1'
_symmetry_Int_Tables_number      2
_space_group_name_Hall           '-P 1'
loop_
_symmetry_equiv_pos_site_id
_symmetry_equiv_pos_as_xyz
1 x,y,z
2 -x,-y,-z
_cell_length_a                   11.3710(17)
_cell_length_b                   12.0701(16)
_cell_length_c                   13.1061(12)
_cell_angle_alpha                112.838(3)
_cell_angle_beta                 94.545(6)
_cell_angle_gamma                99.526(4)
_cell_volume                     1614.43
loop_
_atom_site_label
_atom_site_type_symbol
_atom_site_fract_x
_atom_site_fract_y
_atom_site_fract_z
N4 N 0.3066(15) 0.7071(14) 0.0317(16)
C16 C 0.430(2) 0.747(2) 0.069(2)
H13 H 0.4617 0.8310 0.1040
C17 C 0.5048(17) 0.6693(17) 0.0566(15)
H14 H 0.5871 0.7002 0.0819
C18 C 0.4600(16) 0.5430(16) 0.0062(16)
C19 C 0.3362(16) 0.5026(18) -0.0300(16)
H15 H 0.3030 0.4186 -0.0653
C20 C 0.2598(16) 0.588(2) -0.0134(17)
H16 H 0.1767 0.5603 -0.0346
N4A N 0.6934(15) 0.2929(14) -0.0317(16)
C16A C 0.570(2) 0.253(2) -0.069(2)
H13A H 0.5383 0.1690 -0.1040
C17A C 0.4952(17) 0.3307(17) -0.0566(15)
H14A H 0.4129 0.2998 -0.0819
C18A C 0.5400(16) 0.4570(16) -0.0062(16)
C19A C 0.6638(16) 0.4974(18) 0.0300(16)
H15A H 0.6970 0.5814 0.0653
C20A C 0.7402(16) 0.412(2) 0.0134(17)
H16A H 0.8233 0.4397 0.0346
Ag1 Ag 0.98915(13) 0.27843(17) 0.62339(14)
Ag2 Ag 1.0000 -0.5000 -0.5000
P1 P 1.0000 0.0000 0.0000
W1 W 1.28512(7) -0.04886(8) -0.07894(7)
W2 W 0.97969(7) -0.23566(7) 0.09962(7)
W3 W 0.74503(7) -0.24639(7) -0.10202(6)
W4 W 1.23600(6) 0.01305(7) 0.20203(6)
W5 W 0.95054(7) 0.06185(7) 0.27931(6)
W6 W 1.03043(7) -0.29799(7) -0.17923(6)
N1 N 0.7982(13) 0.2692(15) 0.6222(14)
N2 N 1.1749(13) 0.2762(14) 0.6265(12)
N3 N 0.8103(15) -0.5024(18) -0.5078(15)
O1 O 1.0281(18) -0.0243(18) 0.1031(16)
O2 O 0.9502(19) -0.1343(19) -0.0288(17)
O3 O 1.131(2) 0.036(2) 0.0371(18)
O4 O 0.9337(18) 0.0714(18) 0.0962(16)
O5 O 0.8278(14) -0.2677(19) 0.0189(12)
O6 O 0.9752(14) 0.2228(17) 0.2822(17)
O7 O 1.2801(15) 0.1690(16) 0.1977(14)
O8 O 1.0360(13) -0.308(2) -0.0374(12)
O9 O 1.1468(12) -0.1468(12) 0.1594(14)
O10 O 0.9326(13) -0.1090(13) 0.2165(16)
O11 O 0.9315(13) 0.0890(13) 0.4100(10)
O12 O 1.2995(19) -0.0526(14) 0.0643(11)
O13 O 1.1938(18) -0.2151(16) -0.1363(17)
O14 O 0.7927(15) 0.0386(15) 0.2062(17)
O15 O 0.6832(16) -0.1224(16) 0.0085(14)
O16 O 0.8630(14) -0.3157(19) -0.1870(12)
O17 O 1.3457(14) 0.0195(15) 0.2987(12)
O18 O 1.4143(13) -0.0761(15) -0.1164(14)
O19 O 1.1186(12) 0.0757(12) 0.2916(14)
O20 O 1.0307(12) 0.3491(13) 0.8564(13)
O21 O 0.6240(14) -0.3670(13) -0.1492(12)
O22 O 1.0445(13) -0.4409(13) -0.2647(12)
C1 C 0.7104(19) 0.178(2) 0.541(2)
H1 H 0.7345 0.1143 0.4848
C2 C 0.5938(19) 0.176(2) 0.5394(18)
H2 H 0.5385 0.1154 0.4798
C3 C 0.5515(16) 0.2663(16) 0.6295(15)
C4 C 0.4235(17) 0.2695(18) 0.6264(15)
C5 C 0.3281(16) 0.1683(17) 0.5669(16)
H3 H 0.3476 0.0935 0.5254
C6 C 1.211(2) 0.172(2) 0.5654(18)
H4 H 1.1534 0.1009 0.5217
C7 C 1.2609(18) 0.376(2) 0.6869(16)
H5 H 1.2381 0.4492 0.7292
C8 C 0.3841(15) 0.3756(16) 0.6885(14)
H6 H 0.4408 0.4475 0.7319
C9 C 0.6434(17) 0.3571(16) 0.7112(16)
H7 H 0.6218 0.4193 0.7704
C10 C 0.7610(18) 0.3580(18) 0.7075(16)
H8 H 0.8184 0.4200 0.7640
C11 C 0.723(2) -0.604(2) -0.577(2)
H9 H 0.7449 -0.6731 -0.6279
C12 C 0.607(2) -0.602(2) -0.572(2)
H10 H 0.5509 -0.6723 -0.6186
C13 C 0.5634(15) -0.5015(15) -0.5010(15)
C14 C 0.6567(19) -0.400(2) -0.4359(18)
H11 H 0.6368 -0.3272 -0.3894
C15 C 0.7697(19) -0.4045(19) -0.4384(17)
H12 H 0.8269 -0.3359 -0.3893
Ag1_2 Ag -0.01085(13) 0.27843(17) 0.62339(14)
Ag1_3 Ag 1.98915(13) 0.27843(17) 0.62339(14)
Ag1A Ag 1.01085(13) -0.27843(17) -0.62339(14)
Ag1_4 Ag 0.98915(13) 0.27843(17) -0.37661(14)
Ag1A_2 Ag 1.01085(13) -0.27843(17) 0.37661(14)
Ag2_2 Ag 0.0000 -0.5000 -0.5000
Ag2_3 Ag 1.0000 0.5000 0.5000
W1A W 0.71488(7) 0.04886(8) 0.07894(7)
W2A W 1.02031(7) 0.23566(7) 0.90038(7)
W2A_2 W 1.02031(7) 0.23566(7) -0.09962(7)
W3A W 1.25497(7) 0.24639(7) 0.10202(6)
W4A W 0.76400(6) -0.01305(7) -0.20203(6)
W5A W 1.04946(7) -0.06185(7) -0.27931(6)
W6A W 0.96957(7) 0.29799(7) 0.17923(6)
N1_2 N 1.7982(13) 0.2692(15) 0.6222(14)
N2_2 N 0.1749(13) 0.2762(14) 0.6265(12)
N3A N 1.1897(15) -0.4976(18) -0.4922(15)
N3A_2 N 0.1897(15) -0.4976(18) -0.4922(15)
N3_2 N 0.8103(15) 0.4976(18) 0.4922(15)
N3A_3 N 1.1897(15) 0.5024(18) 0.5078(15)
O1A O 0.9719(18) 0.0243(18) -0.1031(16)
O2A O 1.0498(19) 0.1343(19) 0.0288(17)
O3A O 0.869(2) -0.036(2) -0.0371(18)
O4A O 1.0663(18) -0.0714(18) -0.0962(16)
O5A O 1.1722(14) 0.2677(19) -0.0189(12)
O6A O 1.0248(14) -0.2228(17) -0.2822(17)
O7A O 0.7199(15) -0.1690(16) -0.1977(14)
O8A O 0.9640(13) 0.308(2) 0.0374(12)
O9A O 0.8532(12) 0.1468(12) -0.1594(14)
O10A O 1.0674(13) 0.1090(13) -0.2165(16)
O11A O 1.0685(13) -0.0890(13) -0.4100(10)
O12A O 0.7005(19) 0.0526(14) -0.0643(11)
O13A O 0.8062(18) 0.2151(16) 0.1363(17)
O14A O 1.2073(15) -0.0386(15) -0.2062(17)
O15A O 1.3168(16) 0.1224(16) -0.0085(14)
O16A O 1.1370(14) 0.3157(19) 0.1870(12)
O17A O 0.6543(14) -0.0195(15) -0.2987(12)
O19A O 0.8814(12) -0.0757(12) -0.2916(14)
O20A O 0.9693(12) -0.3491(13) 0.1436(13)
O20_2 O 1.0307(12) 0.3491(13) -0.1436(13)
O21A O 1.3760(14) 0.3670(13) 0.1492(12)
O22A O 0.9555(13) -0.5591(13) -0.7353(12)
O22A_2 O 0.9555(13) 0.4409(13) 0.2647(12)
O22_2 O 1.0445(13) 0.5591(13) 0.7353(12)
C1_2 C 1.7104(19) 0.178(2) 0.541(2)
H1_2 H 1.7345 0.1143 0.4848
C2_2 C 1.5938(19) 0.176(2) 0.5394(18)
H2_2 H 1.5385 0.1154 0.4798
C3_2 C 1.5515(16) 0.2663(16) 0.6295(15)
C4_2 C 1.4235(17) 0.2695(18) 0.6264(15)
C5_2 C 1.3281(16) 0.1683(17) 0.5669(16)
H3_2 H 1.3476 0.0935 0.5254
C6_2 C 0.211(2) 0.172(2) 0.5654(18)
H4_2 H 0.1534 0.1009 0.5217
C7_2 C 0.2609(18) 0.376(2) 0.6869(16)
H5_2 H 0.2381 0.4492 0.7292
C8_2 C 1.3841(15) 0.3756(16) 0.6885(14)
H6_2 H 1.4408 0.4475 0.7319
C9_2 C 1.6434(17) 0.3571(16) 0.7112(16)
H7_2 H 1.6218 0.4193 0.7704
C10_2 C 1.7610(18) 0.3580(18) 0.7075(16)
H8_2 H 1.8184 0.4200 0.7640
C11A C 0.277(2) -0.396(2) -0.423(2)
H9A H 0.2551 -0.3269 -0.3721
C12A C 0.393(2) -0.398(2) -0.428(2)
H10A H 0.4491 -0.3277 -0.3814
C13A C 0.4366(15) -0.4985(15) -0.4990(15)
C14A C 0.3433(19) -0.600(2) -0.5641(18)
H11A H 0.3632 -0.6728 -0.6106
C15A C 0.2303(19) -0.5955(19) -0.5616(17)
H12A H 0.1731 -0.6641 -0.6107
loop_
_geom_bond_atom_site_label_1
_geom_bond_atom_site_label_2
_geom_bond_site_symmetry_1
_geom_bond_site_symmetry_2
Ag1 N1 1_555 1_555
Ag2 N3 1_555 1_555
P1 O1 1_555 1_555
W1 O3 1_555 1_555
W2 O1 1_555 1_555
W3 O2 1_555 1_555
W4 O1 1_555 1_555
W5 O1 1_555 1_555
W6 O2 1_555 1_555
N1 C1 1_555 1_555
N2 Ag1 1_555 1_555
N3 C11 1_555 1_555
N4 C16 1_555 1_555
O1 O2 1_555 1_555
O2 P1 1_555 1_555
O3 P1 1_555 1_555
O4 P1 1_555 1_555
O5 W2 1_555 1_555
O6 W5 1_555 1_555
O7 W4 1_555 1_555
O8 W2 1_555 1_555
O9 W2 1_555 1_555
O10 W2 1_555 1_555
O11 Ag1 1_555 1_555
O12 W1 1_555 1_555
O13 W1 1_555 1_555
O14 W5 1_555 1_555
O15 W3 1_555 1_555
O16 W3 1_555 1_555
O17 W4 1_555 1_555
O18 W1 1_555 1_555
O19 W4 1_555 1_555
O20 Ag1 1_555 1_555
O21 W3 1_555 1_555
O22 Ag2 1_555 1_555
C1 H1 1_555 1_555
C2 C1 1_555 1_555
H2 C2 1_555 1_555
C3 C2 1_555 1_555
C4 C3 1_555 1_555
C5 C4 1_555 1_555
H3 C5 1_555 1_555
C6 N2 1_555 1_555
H4 C6 1_555 1_555
C7 N2 1_555 1_555
H5 C7 1_555 1_555
C8 C4 1_555 1_555
H6 C8 1_555 1_555
C9 C3 1_555 1_555
H7 C9 1_555 1_555
C10 N1 1_555 1_555
H8 C10 1_555 1_555
C11 H9 1_555 1_555
C12 C11 1_555 1_555
H10 C12 1_555 1_555
C13 C12 1_555 1_555
C14 C13 1_555 1_555
H11 C14 1_555 1_555
C15 N3 1_555 1_555
H12 C15 1_555 1_555
C16 H13 1_555 1_555
C17 C16 1_555 1_555
H14 C17 1_555 1_555
C18 C17 1_555 1_555
C19 C18 1_555 1_555
H15 C19 1_555 1_555
C20 N4 1_555 1_555
H16 C20 1_555 1_555
Ag1_2 N2_2 1_555 1_555
Ag1_3 N1_2 1_555 1_555
Ag1A O11A 1_555 1_555
Ag1_4 O20_2 1_555 1_555
Ag1A_2 O20A 1_555 1_555
Ag2_2 N3A_2 1_555 1_555
Ag2_3 N3_2 1_555 1_555
W1A O4 1_555 1_555
W2A O20 1_555 1_555
W2A_2 O1A 1_555 1_555
W3A O3 1_555 1_555
W4A O1A 1_555 1_555
W5A O1A 1_555 1_555
W6A O4 1_555 1_555
N1_2 C1_2 1_555 1_555
N2_2 C6_2 1_555 1_555
N3A Ag2 1_555 1_555
N3A_2 C11A 1_555 1_555
N3A_3 Ag2_3 1_555 1_555
N4A C16A 1_555 1_555
O1A P1 1_555 1_555
O2A P1 1_555 1_555
O3A P1 1_555 1_555
O4A P1 1_555 1_555
O5A W2A_2 1_555 1_555
O6A W6 1_555 1_555
O7A W3 1_555 1_555
O8A W2A_2 1_555 1_555
O9A W2A_2 1_555 1_555
O10A W2A_2 1_555 1_555
O11A W5A 1_555 1_555
O12A W1A 1_555 1_555
O13A W6A 1_555 1_555
O14A W1 1_555 1_555
O15A W1 1_555 1_555
O16A W3A 1_555 1_555
O17A W4A 1_555 1_555
O19A W4A 1_555 1_555
O20A W2 1_555 1_555
O20_2 W2A_2 1_555 1_555
O21A W3A 1_555 1_555
O22A Ag2 1_555 1_555
O22A_2 Ag2_3 1_555 1_555
O22_2 Ag2_3 1_555 1_555
C1_2 H1_2 1_555 1_555
C2_2 C1_2 1_555 1_555
H2_2 C2_2 1_555 1_555
C3_2 C2_2 1_555 1_555
C4_2 C3_2 1_555 1_555
C5_2 C6 1_555 1_555
H3_2 C5_2 1_555 1_555
C6_2 C5 1_555 1_555
H4_2 C6_2 1_555 1_555
C7_2 C8 1_555 1_555
H5_2 C7_2 1_555 1_555
C8_2 C7 1_555 1_555
H6_2 C8_2 1_555 1_555
C9_2 C3_2 1_555 1_555
H7_2 C9_2 1_555 1_555
C10_2 N1_2 1_555 1_555
H8_2 C10_2 1_555 1_555
C11A H9A 1_555 1_555
C12A C11A 1_555 1_555
H10A C12A 1_555 1_555
C13A C13 1_555 1_555
C14A C13A 1_555 1_555
H11A C14A 1_555 1_555
C15A N3A_2 1_555 1_555
H12A C15A 1_555 1_555
C16A H13A 1_555 1_555
C17A C16A 1_555 1_555
H14A C17A 1_555 1_555
C18A C18 1_555 1_555
C19A C18A 1_555 1_555
H15A C19A 1_555 1_555
C20A N4A 1_555 1_555
H16A C20A 1_555 1_555
W1 O4A 1_555 1_555
W2 O2 1_555 1_555
W3 O5 1_555 1_555
W3 O3A 1_555 1_555
W4 O3 1_555 1_555
W4 O9 1_555 1_555
W4 O12 1_555 1_555
W5 O4 1_555 1_555
W5 O10 1_555 1_555
W5 O11 1_555 1_555
W5 O19 1_555 1_555
W6 O8 1_555 1_555
W6 O13 1_555 1_555
W6 O16 1_555 1_555
W6 O22 1_555 1_555
W6 O4A 1_555 1_555
O1 O3 1_555 1_555
O1 O4 1_555 1_555
O2 O3A 1_555 1_555
O2 O4A 1_555 1_555
O3 O2A 1_555 1_555
O3 O4A 1_555 1_555
O4 O2A 1_555 1_555
O4 O3A 1_555 1_555
O6 W6A 1_555 1_555
O7 W3A 1_555 1_555
O14 W1A 1_555 1_555
O15 W1A 1_555 1_555
C9 C10 1_555 1_555
C14 C15 1_555 1_555
C19 C20 1_555 1_555
W1A O3A 1_555 1_555
W2A_2 O2A 1_555 1_555
W3A O2A 1_555 1_555
W3A O5A 1_555 1_555
W3A O15A 1_555 1_555
W4A O3A 1_555 1_555
W4A O7A 1_555 1_555
W4A O9A 1_555 1_555
W4A O12A 1_555 1_555
W5A O4A 1_555 1_555
W5A O6A 1_555 1_555
W5A O10A 1_555 1_555
W5A O14A 1_555 1_555
W5A O19A 1_555 1_555
W6A O2A 1_555 1_555
W6A O8A 1_555 1_555
W6A O16A 1_555 1_555
W6A O22A_2 1_555 1_555
N2_2 C7_2 1_555 1_555
O1A O2A 1_555 1_555
O1A O3A 1_555 1_555
O1A O4A 1_555 1_555
C4_2 C5_2 1_555 1_555
C4_2 C8_2 1_555 1_555
C9_2 C10_2 1_555 1_555
C12A C13A 1_555 1_555
C14A C15A 1_555 1_555
C17A C18A 1_555 1_555
C19A C20A 1_555 1_555

#END
