
#######################################################################
#
#                 Cambridge Crystallographic Data Centre
#                                CCDC 
#
#######################################################################
#
# If this CIF has been generated from an entry in the Cambridge 
# Structural Database, then it will include bibliographic, chemical, 
# crystal, experimental, refinement or atomic coordinate data resulting 
# from the CCDC's data processing and validation procedures.
#
#######################################################################

data_UQAWOZ
_symmetry_cell_setting           triclinic
_symmetry_space_group_name_H-M   'P -1'
_symmetry_Int_Tables_number      2
_space_group_name_Hall           '-P 1'
loop_
_symmetry_equiv_pos_site_id
_symmetry_equiv_pos_as_xyz
1 x,y,z
2 -x,-y,-z
_cell_length_a                   11.732(2)
_cell_length_b                   16.725(3)
_cell_length_c                   19.668(4)
_cell_angle_alpha                83.26(3)
_cell_angle_beta                 76.27(3)
_cell_angle_gamma                80.33(3)
_cell_volume                     3683.54
loop_
_atom_site_label
_atom_site_type_symbol
_atom_site_fract_x
_atom_site_fract_y
_atom_site_fract_z
Co1 Co 0.30045(11) 0.30019(9) -0.10007(8)
Co2 Co -1.10058(11) -0.09990(9) 0.69998(7)
Co3 Co -0.5000 0.5000 0.5000
C1 C 0.3100(8) 0.2719(7) 0.0592(5)
H1 H 0.3882 0.2467 0.0469
C2 C 0.1438(9) 0.3307(6) 0.0494(5)
H2 H 0.0788 0.3554 0.0315
C3 C 0.0627(8) 0.3564(6) 0.1794(5)
H3 H 0.0896 0.4032 0.1921
H4 H 0.0613 0.3149 0.2184
C4 C -0.0587(8) 0.3804(6) 0.1678(5)
H5 H -0.0894 0.3330 0.1593
H6 H -0.0576 0.4192 0.1269
C5 C -0.1388(8) 0.4191(7) 0.2330(5)
H7 H -0.1418 0.3799 0.2736
H8 H -0.1070 0.4656 0.2422
C6 C -0.2620(8) 0.4456(7) 0.2199(5)
H9 H -0.2588 0.4880 0.1816
H10 H -0.2893 0.3999 0.2057
C7 C -0.3394(8) 0.4684(6) 0.3487(5)
H11 H -0.2729 0.4439 0.3652
C8 C -0.5073(9) 0.5294(7) 0.3412(6)
H12 H -0.5840 0.5570 0.3535
C9 C -0.5445(8) 0.3319(6) 0.4636(5)
H13 H -0.4653 0.3203 0.4407
C10 C -0.7005(8) 0.3906(6) 0.5230(5)
H14 H -0.7562 0.4272 0.5502
C11 C -0.8325(8) 0.2861(6) 0.5285(5)
H15 H -0.8357 0.2512 0.4931
H16 H -0.8991 0.3296 0.5306
C12 C -0.8452(7) 0.2369(6) 0.5995(5)
H17 H -0.8394 0.2714 0.6345
H18 H -0.9235 0.2204 0.6127
C13 C -0.7552(8) 0.1635(6) 0.6002(5)
H19 H -0.6770 0.1801 0.5870
H20 H -0.7610 0.1290 0.5652
C14 C -0.7680(7) 0.1138(6) 0.6718(5)
H21 H -0.7005 0.0711 0.6700
H22 H -0.7667 0.1490 0.7074
C15 C -1.0520(8) 0.0678(7) 0.7372(4)
H23 H -1.1299 0.0781 0.7626
C16 C -0.8979(7) 0.0071(6) 0.6757(4)
H24 H -0.8428 -0.0302 0.6489
C17 C 0.4600(8) 0.2674(6) -0.2506(5)
H25 H 0.5252 0.2411 -0.2335
C18 C 0.2928(8) 0.3285(7) -0.2595(5)
H26 H 0.2154 0.3550 -0.2471
C19 C 0.5392(7) 0.2450(6) -0.3792(5)
H27 H 0.5424 0.2872 -0.4176
H28 H 0.5112 0.1994 -0.3932
C20 C 0.6602(7) 0.2183(6) -0.3676(4)
H29 H 0.6577 0.1780 -0.3278
H30 H 0.6917 0.2644 -0.3571
C21 C 0.7411(7) 0.1818(6) -0.4333(4)
H31 H 0.7099 0.1356 -0.4438
H32 H 0.7439 0.2221 -0.4732
C22 C 0.8619(7) 0.1553(6) -0.4209(4)
H33 H 0.8895 0.2011 -0.4069
H34 H 0.8582 0.1133 -0.3823
C23 C 1.1074(7) 0.0706(5) -0.5403(5)
H35 H 1.1841 0.0430 -0.5526
C24 C 0.9408(6) 0.1319(6) -0.5485(4)
H36 H 0.8746 0.1569 -0.5651
C25 C 0.5012(8) 0.4105(6) -0.1253(5)
H37 H 0.5569 0.3744 -0.1531
C26 C 0.3464(9) 0.4666(6) -0.0631(5)
H38 H 0.2684 0.4759 -0.0377
C27 C 0.6332(8) 0.5139(6) -0.1295(6)
H39 H 0.6990 0.4699 -0.1319
H40 H 0.6373 0.5482 -0.0939
C28 C 0.6461(8) 0.5632(6) -0.1993(5)
H41 H 0.6420 0.5286 -0.2346
H42 H 0.7240 0.5802 -0.2117
C29 C 0.5533(8) 0.6382(6) -0.2012(6)
H43 H 0.4751 0.6217 -0.1878
H44 H 0.5586 0.6738 -0.1668
C30 C 0.5669(7) 0.6846(7) -0.2718(5)
H45 H 0.5661 0.6483 -0.3066
H46 H 0.4998 0.7274 -0.2711
C31 C 0.8518(8) 0.7327(6) -0.3370(5)
H47 H 0.9298 0.7225 -0.3624
C32 C 0.6982(8) 0.7922(6) -0.2767(5)
H48 H 0.6424 0.8296 -0.2504
C33 C 0.0995(8) 0.1900(7) -0.0756(5)
H49 H 0.0441 0.2268 -0.0484
C34 C 0.2545(9) 0.1311(7) -0.1367(5)
H50 H 0.3328 0.1203 -0.1614
C35 C -0.0300(8) 0.0856(6) -0.0725(5)
H51 H -0.0310 0.0500 -0.1078
H52 H -0.0965 0.1289 -0.0717
C36 C -0.0454(7) 0.0386(6) -0.0029(5)
H53 H -0.1241 0.0230 0.0092
H54 H -0.0415 0.0742 0.0318
C37 C -1.4613(7) -0.0196(6) 0.9681(5)
H55 H -1.4569 0.0196 0.9274
H56 H -1.4955 -0.0650 0.9589
C38 C -1.3381(7) -0.0492(6) 0.9803(5)
H57 H -1.3105 -0.0058 0.9979
H58 H -1.3417 -0.0945 1.0160
C39 C -1.0936(7) -0.1281(6) 0.8588(5)
H59 H -1.0165 -0.1551 0.8465
C40 C -1.2597(7) -0.0680(6) 0.8506(5)
H60 H -1.3258 -0.0435 0.8337
C41 C 0.5541(8) 0.1916(6) -0.1055(5)
C42 C 0.0476(9) 0.4077(6) -0.0935(5)
C43 C -0.2453(8) 0.3924(6) 0.4933(5)
C44 C -1.3555(8) 0.0079(6) 0.7061(5)
C45 C -0.8474(7) -0.2072(6) 0.6941(5)
N1 N 0.2438(6) 0.2974(5) 0.0116(4)
N2 N 0.1471(7) 0.3247(5) 0.1168(4)
N3 N 0.2564(6) 0.2850(5) 0.1249(5)
N4 N -0.3463(6) 0.4760(5) 0.2817(4)
N5 N -0.4531(7) 0.5145(6) 0.2756(5)
N6 N -0.4396(7) 0.5004(5) 0.3886(4)
N7 N -0.5898(6) 0.4014(5) 0.4955(4)
N8 N -0.7218(6) 0.3216(5) 0.5070(4)
N9 N -0.6213(7) 0.2827(5) 0.4677(4)
N10 N -0.8766(5) 0.0772(5) 0.6923(4)
N11 N -0.9769(6) 0.1179(5) 0.7317(4)
N12 N -1.0095(5) -0.0010(5) 0.7034(4)
N13 N 0.3597(6) 0.3016(5) -0.2119(4)
N14 N 0.4540(6) 0.2761(5) -0.3177(4)
N15 N 0.3451(7) 0.3144(6) -0.3247(5)
N16 N 0.9466(6) 0.1244(5) -0.4813(3)
N17 N 1.0548(6) 0.0851(5) -0.4760(4)
N18 N 1.0396(5) 0.0996(4) -0.5883(4)
N19 N 0.2104(6) 0.1998(5) -0.1029(4)
N20 N 0.1766(7) 0.0810(5) -0.1314(4)
N21 N 0.0777(6) 0.1204(6) -0.0920(4)
N22 N -1.1592(6) -0.1008(5) 0.8118(4)
N23 N -1.1463(6) -0.1140(5) 0.9239(4)
N24 N -1.2530(6) -0.0749(5) 0.9170(4)
N25 N 0.3907(6) 0.3997(5) -0.0974(4)
N26 N 0.5212(7) 0.4795(5) -0.1083(5)
N27 N 0.4213(7) 0.5179(5) -0.0680(4)
N28 N 0.6765(6) 0.7209(5) -0.2924(4)
N29 N 0.8078(6) 0.8017(5) -0.3035(4)
N30 N 0.7757(7) 0.6817(5) -0.3308(4)
N31 N 0.4550(6) 0.2186(5) -0.0910(4)
N32 N 0.1453(6) 0.3801(5) -0.1082(4)
N33 N -0.3422(6) 0.4191(5) 0.5081(4)
N34 N -1.2567(6) -0.0195(5) 0.6920(4)
N35 N -0.9445(6) -0.1804(5) 0.7086(4)
S1 S 0.6945(2) 0.15490(19) -0.12849(16)
S2 S -0.0939(2) 0.44510(19) -0.07115(17)
S3 S -0.1061(2) 0.3549(2) 0.47140(17)
S4 S -1.4940(2) 0.04521(19) 0.72863(16)
S5 S -0.7070(2) -0.24569(19) 0.67189(17)
Co1A Co -1.30045(11) 0.69981(9) 1.10007(8)
Co1A_2 Co -0.30045(11) -0.30019(9) 0.10007(8)
Co1_2 Co -1.69955(11) -0.69981(9) 0.89993(8)
Co2A Co 0.10058(11) 1.09990(9) 0.30002(7)
Co2A_2 Co 1.10058(11) 0.09990(9) -0.69998(7)
Co2_2 Co 0.89942(11) 0.90010(9) -0.30002(7)
Co2A_3 Co -1.89942(11) 0.09990(9) 1.30002(7)
C1A C -1.3100(8) 0.7281(7) 0.9408(5)
H1A H -1.3882 0.7533 0.9531
C2A C -1.1438(9) 0.6693(6) 0.9506(5)
H2A H -1.0788 0.6446 0.9685
C3A C -1.0627(8) 0.6436(6) 0.8206(5)
H3A H -1.0896 0.5968 0.8079
H4A H -1.0613 0.6851 0.7816
C4A C -0.9413(8) 0.6196(6) 0.8322(5)
H5A H -0.9106 0.6670 0.8407
H6A H -0.9424 0.5808 0.8731
C5A C -0.8612(8) 0.5809(7) 0.7670(5)
H7A H -0.8582 0.6201 0.7264
H8A H -0.8930 0.5344 0.7578
C6A C -0.7380(8) 0.5544(7) 0.7801(5)
H9A H -0.7412 0.5120 0.8184
H10A H -0.7107 0.6001 0.7943
C7A C -0.6606(8) 0.5316(6) 0.6513(5)
H11A H -0.7271 0.5561 0.6348
C8A C -0.4927(9) 0.4706(7) 0.6588(6)
H12A H -0.4160 0.4430 0.6465
C9A C -0.4555(8) 0.6681(6) 0.5364(5)
H13A H -0.5347 0.6797 0.5593
C10A C -0.2995(8) 0.6094(6) 0.4770(5)
H14A H -0.2438 0.5728 0.4498
C11A C -0.1675(8) 0.7139(6) 0.4715(5)
H15A H -0.1643 0.7488 0.5069
H16A H -0.1009 0.6704 0.4694
C12A C -0.1548(7) 0.7631(6) 0.4005(5)
H17A H -0.1606 0.7286 0.3655
H18A H -0.0765 0.7796 0.3873
C13A C -0.2448(8) 0.8365(6) 0.3998(5)
H19A H -0.3230 0.8199 0.4130
H20A H -0.2390 0.8710 0.4348
C14A C -0.2320(7) 0.8862(6) 0.3282(5)
H21A H -0.2995 0.9289 0.3300
H22A H -0.2333 0.8510 0.2926
C15A C 0.0520(8) 0.9322(7) 0.2628(4)
H23A H 0.1299 0.9219 0.2374
C16A C -0.1021(7) 0.9929(6) 0.3243(4)
H24A H -0.1572 1.0302 0.3511
C17A C -0.4600(8) -0.2674(6) 0.2506(5)
H25A H -0.5252 -0.2411 0.2335
C18A C -0.2928(8) -0.3285(7) 0.2595(5)
H26A H -0.2154 -0.3550 0.2471
C19A C -0.5392(7) -0.2450(6) 0.3792(5)
H27A H -0.5424 -0.2872 0.4176
H28A H -0.5112 -0.1994 0.3932
C20A C -0.6602(7) -0.2183(6) 0.3676(4)
H29A H -0.6577 -0.1780 0.3278
H30A H -0.6917 -0.2644 0.3571
C21A C -0.7411(7) -0.1818(6) 0.4333(4)
H31A H -0.7099 -0.1356 0.4438
H32A H -0.7439 -0.2221 0.4732
C22A C -0.8619(7) -0.1553(6) 0.4209(4)
H33A H -0.8895 -0.2011 0.4069
H34A H -0.8582 -0.1133 0.3823
C23A C -1.1074(7) -0.0706(5) 0.5403(5)
H35A H -1.1841 -0.0430 0.5526
C24A C -0.9408(6) -0.1319(6) 0.5485(4)
H36A H -0.8746 -0.1569 0.5651
C25_2 C -1.4988(8) -0.5895(6) 0.8747(5)
H37_2 H -1.4431 -0.6256 0.8469
C26_2 C -1.6536(9) -0.5334(6) 0.9369(5)
H38_2 H -1.7316 -0.5241 0.9623
C27_2 C -1.3668(8) -0.4861(6) 0.8705(6)
H39_2 H -1.3010 -0.5301 0.8681
H40_2 H -1.3627 -0.4518 0.9061
C28_2 C -1.3539(8) -0.4368(6) 0.8007(5)
H41_2 H -1.3580 -0.4714 0.7654
H42_2 H -1.2760 -0.4198 0.7883
C29_2 C -1.4467(8) -0.3618(6) 0.7988(6)
H43_2 H -1.5249 -0.3783 0.8122
H44_2 H -1.4414 -0.3262 0.8332
C30_2 C -1.4331(7) -0.3154(7) 0.7282(5)
H45_2 H -1.4339 -0.3517 0.6934
H46_2 H -1.5002 -0.2726 0.7289
C31_2 C -1.1482(8) -0.2673(6) 0.6630(5)
H47_2 H -1.0702 -0.2775 0.6376
C32_2 C -1.3018(8) -0.2078(6) 0.7233(5)
H48_2 H -1.3576 -0.1704 0.7496
C33A C -0.0995(8) -0.1900(7) 0.0756(5)
H49A H -0.0441 -0.2268 0.0484
C34A C -0.2545(9) -0.1311(7) 0.1367(5)
H50A H -0.3328 -0.1203 0.1614
C35A C 0.0300(8) -0.0856(6) 0.0725(5)
H51A H 0.0310 -0.0500 0.1078
H52A H 0.0965 -0.1289 0.0717
C36A C 0.0454(7) -0.0386(6) 0.0029(5)
H53A H 0.1241 -0.0230 -0.0092
H54A H 0.0415 -0.0742 -0.0318
C37A C -1.5387(7) 0.0196(6) 1.0319(5)
H55A H -1.5431 -0.0196 1.0726
H56A H -1.5045 0.0650 1.0411
C38A C -1.6619(7) 0.0492(6) 1.0197(5)
H57A H -1.6895 0.0058 1.0021
H58A H -1.6583 0.0945 0.9840
C39A C -1.9064(7) 0.1281(6) 1.1412(5)
H59A H -1.9835 0.1551 1.1535
C40A C -1.7403(7) 0.0680(6) 1.1494(5)
H60A H -1.6742 0.0435 1.1663
C41A C -1.5541(8) 0.8084(6) 1.1055(5)
C42A C -1.0476(9) 0.5923(6) 1.0935(5)
C43A C -0.7547(8) 0.6076(6) 0.5067(5)
C44A C 0.3555(8) 0.9921(6) 0.2939(5)
C45A C -0.1526(7) 1.2072(6) 0.3059(5)
N1A N -1.2438(6) 0.7026(5) 0.9884(4)
N2A N -1.1471(7) 0.6753(5) 0.8832(4)
N3A N -1.2564(6) 0.7150(5) 0.8751(5)
N4A N -0.6537(6) 0.5240(5) 0.7183(4)
N5A N -0.5469(7) 0.4855(6) 0.7244(5)
N6A N -0.5604(7) 0.4996(5) 0.6114(4)
N7A N -0.4102(6) 0.5986(5) 0.5045(4)
N8A N -0.2782(6) 0.6784(5) 0.4930(4)
N9A N -0.3787(7) 0.7173(5) 0.5323(4)
N10A N -0.1234(5) 0.9228(5) 0.3077(4)
N11A N -0.0231(6) 0.8821(5) 0.2683(4)
N12A N 0.0095(5) 1.0010(5) 0.2966(4)
N13A N -0.3597(6) -0.3016(5) 0.2119(4)
N13A_2 N -1.3597(6) 0.6984(5) 1.2119(4)
N14A N -0.4540(6) -0.2761(5) 0.3177(4)
N15A N -0.3451(7) -0.3144(6) 0.3247(5)
N16A N -0.9466(6) -0.1244(5) 0.4813(3)
N17A N -1.0548(6) -0.0851(5) 0.4760(4)
N18A N -1.0396(5) -0.0996(4) 0.5883(4)
N18_2 N 0.0396(5) 1.0996(4) 0.4117(4)
N19A N -0.2104(6) -0.1998(5) 0.1029(4)
N19A_2 N -1.2104(6) 0.8002(5) 1.1029(4)
N20A N -0.1766(7) -0.0810(5) 0.1314(4)
N21A N -0.0777(6) -0.1204(6) 0.0920(4)
N22A N -1.8408(6) 0.1008(5) 1.1882(4)
N22A_2 N 0.1592(6) 1.1008(5) 0.1882(4)
N23A N -1.8537(6) 0.1140(5) 1.0761(4)
N24A N -1.7470(6) 0.0749(5) 1.0830(4)
N25_2 N -1.6093(6) -0.6003(5) 0.9026(4)
N25A N -1.3907(6) 0.6003(5) 1.0974(4)
N26_2 N -1.4788(7) -0.5205(5) 0.8917(5)
N27_2 N -1.5787(7) -0.4821(5) 0.9320(4)
N28_2 N -1.3235(6) -0.2791(5) 0.7076(4)
N29_2 N -1.1922(6) -0.1983(5) 0.6965(4)
N29A N 0.1922(6) 1.1983(5) 0.3035(4)
N30_2 N -1.2243(7) -0.3183(5) 0.6692(4)
N31A N -1.4550(6) 0.7814(5) 1.0910(4)
N32A N -1.1453(6) 0.6199(5) 1.1082(4)
N33A N -0.6578(6) 0.5809(5) 0.4919(4)
N34A N 0.2567(6) 1.0195(5) 0.3080(4)
N35A N -0.0555(6) 1.1804(5) 0.2914(4)
S1A S -1.6945(2) 0.84510(19) 1.12849(16)
S2A S -0.9061(2) 0.55490(19) 1.07115(17)
S3A S -0.8939(2) 0.6451(2) 0.52860(17)
S4A S 0.4940(2) 0.95479(19) 0.27137(16)
S5A S -0.2930(2) 1.24569(19) 0.32811(17)
C46 C 0.6797(10) 0.2967(8) 0.0061(6)
H61 H 0.6661 0.3551 0.0037
H62 H 0.6098 0.2760 0.0333
H63 H 0.6976 0.2791 -0.0404
C47 C 0.7772(11) 0.2670(8) 0.0386(6)
N36 N 0.8556(9) 0.2412(7) 0.0634(6)
C48 C 0.7223(8) 0.1010(7) 0.1933(6)
H64 H 0.6961 0.0631 0.2322
H65 H 0.7515 0.1438 0.2097
H66 H 0.7845 0.0733 0.1593
C49 C 0.6220(11) 0.1360(8) 0.1607(6)
N37 N 0.5442(9) 0.1599(7) 0.1346(6)
C50 C 0.0811(9) 0.6999(7) 0.2073(7)
H67 H 0.0672 0.7579 0.2092
H68 H 0.0106 0.6776 0.2314
H69 H 0.1013 0.6870 0.1592
C51 C 0.1768(10) 0.6656(7) 0.2405(7)
N38 N 0.2548(8) 0.6388(7) 0.2634(6)
C52 C 0.1211(9) 0.5029(7) 0.3918(6)
H70 H 0.1833 0.5353 0.3729
H71 H 0.1487 0.4476 0.3805
H72 H 0.0985 0.5047 0.4419
C53 C 0.0215(12) 0.5340(8) 0.3623(7)
N39 N -0.0562(9) 0.5599(7) 0.3366(6)
C54 C 0.4819(9) 0.0946(7) 0.4097(6)
H73 H 0.5040 0.0877 0.3603
H74 H 0.4570 0.1513 0.4168
H75 H 0.4179 0.0646 0.4314
C55 C 0.5791(9) 0.0659(7) 0.4398(6)
N40 N 0.6569(7) 0.0398(6) 0.4633(6)
loop_
_geom_bond_atom_site_label_1
_geom_bond_atom_site_label_2
_geom_bond_site_symmetry_1
_geom_bond_site_symmetry_2
Co1 N1 1_555 1_555
Co2 N12 1_555 1_555
Co3 N6 1_555 1_555
C1 H1 1_555 1_555
C2 H2 1_555 1_555
C3 H3 1_555 1_555
H4 C3 1_555 1_555
C4 C3 1_555 1_555
H5 C4 1_555 1_555
H6 C4 1_555 1_555
C5 C4 1_555 1_555
H7 C5 1_555 1_555
H8 C5 1_555 1_555
C6 C5 1_555 1_555
H9 C6 1_555 1_555
H10 C6 1_555 1_555
C7 H11 1_555 1_555
C8 H12 1_555 1_555
C9 H13 1_555 1_555
C10 H14 1_555 1_555
C11 H15 1_555 1_555
H16 C11 1_555 1_555
C12 C11 1_555 1_555
H17 C12 1_555 1_555
H18 C12 1_555 1_555
C13 C12 1_555 1_555
H19 C13 1_555 1_555
H20 C13 1_555 1_555
C14 C13 1_555 1_555
H21 C14 1_555 1_555
H22 C14 1_555 1_555
C15 H23 1_555 1_555
C16 H24 1_555 1_555
C17 H25 1_555 1_555
C18 H26 1_555 1_555
C19 H27 1_555 1_555
H28 C19 1_555 1_555
C20 C19 1_555 1_555
H29 C20 1_555 1_555
H30 C20 1_555 1_555
C21 C20 1_555 1_555
H31 C21 1_555 1_555
H32 C21 1_555 1_555
C22 C21 1_555 1_555
H33 C22 1_555 1_555
H34 C22 1_555 1_555
C23 H35 1_555 1_555
C24 H36 1_555 1_555
C25 H37 1_555 1_555
C26 H38 1_555 1_555
C27 H39 1_555 1_555
H40 C27 1_555 1_555
C28 C27 1_555 1_555
H41 C28 1_555 1_555
H42 C28 1_555 1_555
C29 C28 1_555 1_555
H43 C29 1_555 1_555
H44 C29 1_555 1_555
C30 C29 1_555 1_555
H45 C30 1_555 1_555
H46 C30 1_555 1_555
C31 H47 1_555 1_555
C32 H48 1_555 1_555
C33 H49 1_555 1_555
C34 H50 1_555 1_555
C35 H51 1_555 1_555
H52 C35 1_555 1_555
C36 C35 1_555 1_555
H53 C36 1_555 1_555
H54 C36 1_555 1_555
C37 H55 1_555 1_555
H56 C37 1_555 1_555
C38 C37 1_555 1_555
H57 C38 1_555 1_555
H58 C38 1_555 1_555
C39 H59 1_555 1_555
C40 H60 1_555 1_555
C41 N31 1_555 1_555
C42 N32 1_555 1_555
C43 N33 1_555 1_555
C44 N34 1_555 1_555
C45 N35 1_555 1_555
C46 H61 1_555 1_555
H62 C46 1_555 1_555
H63 C46 1_555 1_555
C47 C46 1_555 1_555
C48 H64 1_555 1_555
H65 C48 1_555 1_555
H66 C48 1_555 1_555
C49 C48 1_555 1_555
C50 H67 1_555 1_555
H68 C50 1_555 1_555
H69 C50 1_555 1_555
C51 C50 1_555 1_555
C52 H70 1_555 1_555
H71 C52 1_555 1_555
H72 C52 1_555 1_555
C53 C52 1_555 1_555
C54 H73 1_555 1_555
H74 C54 1_555 1_555
H75 C54 1_555 1_555
C55 C54 1_555 1_555
N1 C1 1_555 1_555
N2 C2 1_555 1_555
N3 C1 1_555 1_555
N4 C6 1_555 1_555
N5 C8 1_555 1_555
N6 C7 1_555 1_555
N7 Co3 1_555 1_555
N8 C10 1_555 1_555
N9 C9 1_555 1_555
N10 C14 1_555 1_555
N11 C15 1_555 1_555
N12 C15 1_555 1_555
N13 Co1 1_555 1_555
N14 C17 1_555 1_555
N15 C18 1_555 1_555
N16 C22 1_555 1_555
N17 C23 1_555 1_555
N18 C23 1_555 1_555
N19 Co1 1_555 1_555
N20 C34 1_555 1_555
N21 C33 1_555 1_555
N22 Co2 1_555 1_555
N23 C39 1_555 1_555
N24 C38 1_555 1_555
N25 Co1 1_555 1_555
N26 C25 1_555 1_555
N27 C26 1_555 1_555
N28 C30 1_555 1_555
N29 C31 1_555 1_555
N30 C31 1_555 1_555
N31 Co1 1_555 1_555
N32 Co1 1_555 1_555
N33 Co3 1_555 1_555
N34 Co2 1_555 1_555
N35 Co2 1_555 1_555
N36 C47 1_555 1_555
N37 C49 1_555 1_555
N38 C51 1_555 1_555
N39 C53 1_555 1_555
N40 C55 1_555 1_555
S1 C41 1_555 1_555
S2 C42 1_555 1_555
S3 C43 1_555 1_555
S4 C44 1_555 1_555
S5 C45 1_555 1_555
Co1A N1A 1_555 1_555
Co1A_2 N13A 1_555 1_555
Co1_2 N25_2 1_555 1_555
Co2A N12A 1_555 1_555
Co2A_2 N18 1_555 1_555
Co2_2 N29 1_555 1_555
Co2A_3 N22A 1_555 1_555
C1A H1A 1_555 1_555
C2A H2A 1_555 1_555
C3A H3A 1_555 1_555
H4A C3A 1_555 1_555
C4A C3A 1_555 1_555
H5A C4A 1_555 1_555
H6A C4A 1_555 1_555
C5A C4A 1_555 1_555
H7A C5A 1_555 1_555
H8A C5A 1_555 1_555
C6A C5A 1_555 1_555
H9A C6A 1_555 1_555
H10A C6A 1_555 1_555
C7A H11A 1_555 1_555
C8A H12A 1_555 1_555
C9A H13A 1_555 1_555
C10A H14A 1_555 1_555
C11A H15A 1_555 1_555
H16A C11A 1_555 1_555
C12A C11A 1_555 1_555
H17A C12A 1_555 1_555
H18A C12A 1_555 1_555
C13A C12A 1_555 1_555
H19A C13A 1_555 1_555
H20A C13A 1_555 1_555
C14A C13A 1_555 1_555
H21A C14A 1_555 1_555
H22A C14A 1_555 1_555
C15A H23A 1_555 1_555
C16A H24A 1_555 1_555
C17A H25A 1_555 1_555
C18A H26A 1_555 1_555
C19A H27A 1_555 1_555
H28A C19A 1_555 1_555
C20A C19A 1_555 1_555
H29A C20A 1_555 1_555
H30A C20A 1_555 1_555
C21A C20A 1_555 1_555
H31A C21A 1_555 1_555
H32A C21A 1_555 1_555
C22A C21A 1_555 1_555
H33A C22A 1_555 1_555
H34A C22A 1_555 1_555
C23A H35A 1_555 1_555
C24A H36A 1_555 1_555
C25_2 H37_2 1_555 1_555
C26_2 H38_2 1_555 1_555
C27_2 H39_2 1_555 1_555
H40_2 C27_2 1_555 1_555
C28_2 C27_2 1_555 1_555
H41_2 C28_2 1_555 1_555
H42_2 C28_2 1_555 1_555
C29_2 C28_2 1_555 1_555
H43_2 C29_2 1_555 1_555
H44_2 C29_2 1_555 1_555
C30_2 C29_2 1_555 1_555
H45_2 C30_2 1_555 1_555
H46_2 C30_2 1_555 1_555
C31_2 H47_2 1_555 1_555
C32_2 H48_2 1_555 1_555
C33A H49A 1_555 1_555
C34A H50A 1_555 1_555
C35A H51A 1_555 1_555
H52A C35A 1_555 1_555
C36A C36 1_555 1_555
H53A C36A 1_555 1_555
H54A C36A 1_555 1_555
C37A C37 1_555 1_555
H55A C37A 1_555 1_555
H56A C37A 1_555 1_555
C38A C37A 1_555 1_555
H57A C38A 1_555 1_555
H58A C38A 1_555 1_555
C39A H59A 1_555 1_555
C40A H60A 1_555 1_555
C41A N31A 1_555 1_555
C42A N32A 1_555 1_555
C43A N33A 1_555 1_555
C44A N34A 1_555 1_555
C45A N35A 1_555 1_555
N1A C1A 1_555 1_555
N2A C2A 1_555 1_555
N3A C1A 1_555 1_555
N4A C6A 1_555 1_555
N5A C8A 1_555 1_555
N6A Co3 1_555 1_555
N7A Co3 1_555 1_555
N8A C10A 1_555 1_555
N9A C9A 1_555 1_555
N10A C14A 1_555 1_555
N11A C15A 1_555 1_555
N12A C15A 1_555 1_555
N13A C17A 1_555 1_555
N13A_2 Co1A 1_555 1_555
N14A C17A 1_555 1_555
N15A C18A 1_555 1_555
N16A C22A 1_555 1_555
N17A C23A 1_555 1_555
N18A Co2 1_555 1_555
N18_2 Co2A 1_555 1_555
N19A Co1A_2 1_555 1_555
N19A_2 Co1A 1_555 1_555
N20A C34A 1_555 1_555
N21A C33A 1_555 1_555
N22A C39A 1_555 1_555
N22A_2 Co2A 1_555 1_555
N23A C39A 1_555 1_555
N24A C38A 1_555 1_555
N25_2 C25_2 1_555 1_555
N25A Co1A 1_555 1_555
N26_2 C25_2 1_555 1_555
N27_2 C26_2 1_555 1_555
N28_2 C30_2 1_555 1_555
N29_2 Co2 1_555 1_555
N29A Co2A 1_555 1_555
N30_2 C31_2 1_555 1_555
N31A Co1A 1_555 1_555
N32A Co1A 1_555 1_555
N33A Co3 1_555 1_555
N34A Co2A 1_555 1_555
N35A Co2A 1_555 1_555
S1A C41A 1_555 1_555
S2A C42A 1_555 1_555
S3A C43A 1_555 1_555
S4A C44A 1_555 1_555
S5A C45A 1_555 1_555
C2 N1 1_555 1_555
C3 N2 1_555 1_555
C7 N4 1_555 1_555
C8 N6 1_555 1_555
C9 N7 1_555 1_555
C10 N7 1_555 1_555
C11 N8 1_555 1_555
C16 N10 1_555 1_555
C16 N12 1_555 1_555
C17 N13 1_555 1_555
C18 N13 1_555 1_555
C19 N14 1_555 1_555
C24 N16 1_555 1_555
C24 N18 1_555 1_555
C25 N25 1_555 1_555
C26 N25 1_555 1_555
C27 N26 1_555 1_555
C32 N28 1_555 1_555
C32 N29 1_555 1_555
C33 N19 1_555 1_555
C34 N19 1_555 1_555
C35 N21 1_555 1_555
C39 N22 1_555 1_555
C40 N22 1_555 1_555
C40 N24 1_555 1_555
N2 N3 1_555 1_555
N4 N5 1_555 1_555
N8 N9 1_555 1_555
N10 N11 1_555 1_555
N14 N15 1_555 1_555
N16 N17 1_555 1_555
N20 N21 1_555 1_555
N23 N24 1_555 1_555
N26 N27 1_555 1_555
N28 N30 1_555 1_555
C2A N1A 1_555 1_555
C3A N2A 1_555 1_555
C7A N4A 1_555 1_555
C7A N6A 1_555 1_555
C8A N6A 1_555 1_555
C9A N7A 1_555 1_555
C10A N7A 1_555 1_555
C11A N8A 1_555 1_555
C16A N10A 1_555 1_555
C16A N12A 1_555 1_555
C18A N13A 1_555 1_555
C19A N14A 1_555 1_555
C23A N18A 1_555 1_555
C24A N16A 1_555 1_555
C24A N18A 1_555 1_555
C26_2 N25_2 1_555 1_555
C27_2 N26_2 1_555 1_555
C31_2 N29_2 1_555 1_555
C32_2 N28_2 1_555 1_555
C32_2 N29_2 1_555 1_555
C33A N19A 1_555 1_555
C34A N19A 1_555 1_555
C35A C36A 1_555 1_555
C35A N21A 1_555 1_555
C40A N22A 1_555 1_555
C40A N24A 1_555 1_555
N2A N3A 1_555 1_555
N4A N5A 1_555 1_555
N8A N9A 1_555 1_555
N10A N11A 1_555 1_555
N14A N15A 1_555 1_555
N16A N17A 1_555 1_555
N20A N21A 1_555 1_555
N23A N24A 1_555 1_555
N26_2 N27_2 1_555 1_555
N28_2 N30_2 1_555 1_555

#END
