
#######################################################################
#
#                 Cambridge Crystallographic Data Centre
#                                CCDC 
#
#######################################################################
#
# If this CIF has been generated from an entry in the Cambridge 
# Structural Database, then it will include bibliographic, chemical, 
# crystal, experimental, refinement or atomic coordinate data resulting 
# from the CCDC's data processing and validation procedures.
#
#######################################################################

data_UQECEZ
_symmetry_cell_setting           triclinic
_symmetry_space_group_name_H-M   'P -1'
_symmetry_Int_Tables_number      2
_space_group_name_Hall           '-P 1'
loop_
_symmetry_equiv_pos_site_id
_symmetry_equiv_pos_as_xyz
1 x,y,z
2 -x,-y,-z
_cell_length_a                   10.817(10)
_cell_length_b                   11.878(11)
_cell_length_c                   14.569(14)
_cell_angle_alpha                71.762(12)
_cell_angle_beta                 76.122(13)
_cell_angle_gamma                71.493(13)
_cell_volume                     1665.27
loop_
_atom_site_label
_atom_site_type_symbol
_atom_site_fract_x
_atom_site_fract_y
_atom_site_fract_z
Zn1 Zn 0.43931(6) 1.16138(5) 1.34328(4)
Zn2 Zn 0.13992(6) 2.28023(5) 1.32175(5)
Ni1 Ni 0.0000 1.5000 1.0000
N1 N 0.1214(4) 1.6191(4) 0.9547(3)
N2 N 0.2198(5) 1.7580(4) 0.9495(3)
N3 N 0.5029(4) 1.3067(4) 1.3380(3)
N4 N 0.5467(4) 1.4852(4) 1.2954(3)
N5 N 0.0700(5) 2.1327(4) 1.3501(3)
N6 N 0.0442(5) 1.9596(4) 1.3446(3)
O1 O -0.1279(4) 1.6358(4) 0.9042(3)
O3 O 0.1744(4) 1.2962(3) 0.4460(3)
O4 O 0.3509(4) 1.1398(3) 0.4824(2)
O5 O 0.5324(4) 1.0624(4) 0.6477(3)
O6 O 0.3871(4) 0.9559(3) 0.6773(3)
O7 O 0.1965(4) 1.2333(4) 0.9560(3)
O8 O 0.0934(4) 1.4254(3) 0.8881(2)
O9 O -0.1156(4) 1.4817(4) 0.7631(3)
O10 O 0.0280(4) 1.5906(3) 0.6828(3)
O11 O 0.3151(3) 1.2336(3) 1.2505(3)
C1 C 0.2546(5) 1.2266(5) 0.5016(4)
C2 C 0.4187(6) 1.0546(5) 0.6632(4)
C3 C 0.1531(5) 1.3160(5) 0.8862(4)
C4 C -0.0037(6) 1.4895(5) 0.7233(4)
C5 C 0.2322(5) 1.2477(4) 0.6023(4)
C6 C 0.3050(5) 1.1665(4) 0.6765(4)
C7 C 0.2720(5) 1.1895(5) 0.7681(4)
H1 H 0.3172 1.1346 0.8181
C8 C 0.1746(5) 1.2908(4) 0.7880(4)
C9 C 0.1066(5) 1.3744(4) 0.7120(4)
C10 C 0.1361(5) 1.3509(4) 0.6214(4)
H2 H 0.0904 1.4056 0.5717
C11 C 0.1583(6) 1.6721(5) 1.0065(4)
H3 H 0.1437 1.6525 1.0745
C12 C 0.1587(6) 1.6753(6) 0.8591(4)
H4 H 0.1446 1.6571 0.8054
C13 C 0.2195(6) 1.7618(6) 0.8540(4)
H5 H 0.2538 1.8130 0.7977
C14 C 0.2700(7) 1.8440(5) 0.9767(4)
H6 H 0.3561 1.8475 0.9384
H7 H 0.2108 1.9257 0.9618
C15 C 0.4731(6) 1.4211(5) 1.2843(4)
H8 H 0.4087 1.4528 1.2438
C16 C 0.6010(6) 1.2997(6) 1.3869(5)
H9 H 0.6414 1.2300 1.4313
C17 C 0.6293(6) 1.4095(6) 1.3601(5)
H10 H 0.6923 1.4294 1.3815
C18 C 0.5470(6) 1.6132(5) 1.2457(5)
H11 H 0.5683 1.6492 1.2892
H12 H 0.6149 1.6152 1.1884
C19 C 0.1291(6) 2.0267(5) 1.3288(4)
H13 H 0.2188 2.0016 1.3057
C20 C -0.0593(6) 2.1303(6) 1.3835(5)
H14 H -0.1257 2.1925 1.4054
C21 C -0.0754(6) 2.0245(6) 1.3796(5)
H15 H -0.1536 2.0005 1.3975
C22 C 0.0729(7) 1.8352(5) 1.3294(5)
H16 H 0.0871 1.7747 1.3911
H17 H -0.0039 1.8286 1.3103
C23 C 0.2812(6) 1.8024(5) 1.0868(4)
C24 C 0.1775(6) 1.8445(5) 1.1545(4)
C25 C 0.1903(6) 1.8046(5) 1.2539(4)
C26 C 0.3103(7) 1.7313(5) 1.2824(4)
C27 C 0.4145(6) 1.6894(5) 1.2144(5)
C28 C 0.4009(6) 1.7193(5) 1.1146(5)
C29 C 0.5061(7) 1.6643(6) 1.0417(5)
H18 H 0.5589 1.7204 1.0065
H19 H 0.5609 1.5887 1.0751
H20 H 0.4659 1.6484 0.9966
C30 C 0.0467(6) 1.9340(6) 1.1223(5)
H21 H -0.0005 1.8907 1.1036
H22 H -0.0064 1.9670 1.1757
H23 H 0.0659 1.9998 1.0677
C31 C 0.3265(8) 1.6913(6) 1.3912(4)
H24 H 0.4182 1.6717 1.3964
H25 H 0.2777 1.7571 1.4213
H26 H 0.2936 1.6204 1.4238
H27 H 0.342(2) 1.185(2) 1.213(2)
H28 H -0.1941 1.6309 0.8853
H29 H -0.1590 1.6964 0.9297
Zn1A Zn -0.43931(6) 1.83862(5) 0.65672(4)
Zn1_2 Zn 0.43931(6) 1.16138(5) 0.34328(4)
Zn1A_2 Zn 0.56069(6) 0.83862(5) 0.65672(4)
Zn1A_3 Zn -0.43931(6) 1.83862(5) 1.65672(4)
Zn1_3 Zn -0.56069(6) 2.16138(5) 1.34328(4)
Zn1_4 Zn 0.43931(6) 2.16138(5) 1.34328(4)
Zn2A Zn -0.13992(6) 0.71977(5) 0.67825(5)
Zn2_2 Zn 0.13992(6) 1.28023(5) 0.32175(5)
Zn2A_2 Zn -0.13992(6) 1.71977(5) 0.67825(5)
Zn2_3 Zn 0.13992(6) 1.28023(5) 1.32175(5)
Zn2A_3 Zn -0.13992(6) 1.71977(5) 1.67825(5)
N1A N -0.1214(4) 1.3809(4) 1.0453(3)
N2A N -0.2198(5) 1.2420(4) 1.0505(3)
N3A N -0.5029(4) 1.6933(4) 0.6620(3)
N4A N -0.5467(4) 1.5148(4) 0.7046(3)
N5A N -0.0700(5) 0.8673(4) 0.6499(3)
N6A N -0.0442(5) 1.0404(4) 0.6554(3)
O1A O 0.1279(4) 1.3642(4) 1.0958(3)
O3A O -0.1744(4) 1.7038(3) 1.5540(3)
O3_2 O 0.1744(4) 2.2962(3) 1.4460(3)
O3A_2 O -0.1744(4) 0.7038(3) 0.5540(3)
O4A O -0.3509(4) 1.8602(3) 1.5176(2)
O4_2 O 0.3509(4) 1.1398(3) 1.4824(2)
O4A_2 O -0.3509(4) 1.8602(3) 0.5176(2)
O5A O -0.5324(4) 1.9376(4) 1.3523(3)
O6A O -0.3871(4) 2.0441(3) 1.3227(3)
O6A_2 O 0.6129(4) 1.0441(3) 1.3227(3)
O6_2 O -0.6129(4) 1.9559(3) 0.6773(3)
O7A O -0.1965(4) 1.7667(4) 1.0440(3)
O8A O -0.0934(4) 1.5746(3) 1.1119(2)
O9A O 0.1156(4) 1.5183(4) 1.2369(3)
O10A O -0.0280(4) 1.4094(3) 1.3172(3)
O10A_2 O -0.0280(4) 2.4094(3) 1.3172(3)
O10_2 O 0.0280(4) 0.5906(3) 0.6828(3)
O11_2 O 0.3151(3) 2.2336(3) 1.2505(3)
O11A O -0.3151(3) 1.7664(3) 0.7495(3)
O11A_2 O -0.3151(3) 0.7664(3) 0.7495(3)
C1A C -0.2546(5) 1.7734(5) 1.4984(4)
C2A C -0.4187(6) 1.9454(5) 1.3368(4)
C3A C -0.1531(5) 1.6840(5) 1.1138(4)
C4A C 0.0037(6) 1.5105(5) 1.2767(4)
C5A C -0.2322(5) 1.7523(4) 1.3977(4)
C6A C -0.3050(5) 1.8335(4) 1.3235(4)
C7A C -0.2720(5) 1.8105(5) 1.2319(4)
H1A H -0.3172 1.8654 1.1819
C8A C -0.1746(5) 1.7092(4) 1.2120(4)
C9A C -0.1066(5) 1.6256(4) 1.2880(4)
C10A C -0.1361(5) 1.6491(4) 1.3786(4)
H2A H -0.0904 1.5944 1.4283
C11A C -0.1583(6) 1.3279(5) 0.9935(4)
H3A H -0.1437 1.3475 0.9255
C12A C -0.1587(6) 1.3247(6) 1.1409(4)
H4A H -0.1446 1.3429 1.1946
C13A C -0.2195(6) 1.2382(6) 1.1460(4)
H5A H -0.2538 1.1870 1.2023
C14A C -0.2700(7) 1.1560(5) 1.0233(4)
H6A H -0.3561 1.1525 1.0616
H7A H -0.2108 1.0743 1.0382
C15A C -0.4731(6) 1.5789(5) 0.7157(4)
H8A H -0.4087 1.5472 0.7562
C16A C -0.6010(6) 1.7003(6) 0.6131(5)
H9A H -0.6414 1.7700 0.5687
C17A C -0.6293(6) 1.5905(6) 0.6399(5)
H10A H -0.6923 1.5706 0.6185
C18A C -0.5470(6) 1.3868(5) 0.7543(5)
H11A H -0.5683 1.3508 0.7108
H12A H -0.6149 1.3848 0.8116
C19A C -0.1291(6) 0.9733(5) 0.6712(4)
H13A H -0.2188 0.9984 0.6943
C20A C 0.0593(6) 0.8697(6) 0.6165(5)
H14A H 0.1257 0.8075 0.5946
C21A C 0.0754(6) 0.9755(6) 0.6204(5)
H15A H 0.1536 0.9995 0.6025
C22A C -0.0729(7) 1.1648(5) 0.6706(5)
H16A H -0.0871 1.2253 0.6089
H17A H 0.0039 1.1714 0.6897
C23A C -0.2812(6) 1.1976(5) 0.9132(4)
C24A C -0.1775(6) 1.1555(5) 0.8455(4)
C25A C -0.1903(6) 1.1954(5) 0.7461(4)
C26A C -0.3103(7) 1.2687(5) 0.7176(4)
C27A C -0.4145(6) 1.3106(5) 0.7856(5)
C28A C -0.4009(6) 1.2807(5) 0.8854(5)
C29A C -0.5061(7) 1.3357(6) 0.9583(5)
H18A H -0.5589 1.2796 0.9935
H19A H -0.5609 1.4113 0.9249
H20A H -0.4659 1.3516 1.0034
C30A C -0.0467(6) 1.0660(6) 0.8777(5)
H21A H 0.0005 1.1093 0.8964
H22A H 0.0064 1.0330 0.8243
H23A H -0.0659 1.0002 0.9323
C31A C -0.3265(8) 1.3087(6) 0.6088(4)
H24A H -0.4182 1.3283 0.6036
H25A H -0.2777 1.2429 0.5787
H26A H -0.2936 1.3796 0.5762
H27_2 H 0.342(2) 2.185(2) 1.213(2)
H27A H -0.342(2) 1.815(2) 0.787(2)
H27A_2 H -0.342(2) 0.815(2) 0.787(2)
H28A H 0.1941 1.3691 1.1147
H29A H 0.1590 1.3036 1.0703
O2 O 0.6431(8) 0.9242(6) 0.8903(5)
loop_
_geom_bond_atom_site_label_1
_geom_bond_atom_site_label_2
_geom_bond_site_symmetry_1
_geom_bond_site_symmetry_2
Zn1 N3 1_555 1_555
Zn2 N5 1_555 1_555
Ni1 N1 1_555 1_555
N1 C11 1_555 1_555
N2 C11 1_555 1_555
N3 C15 1_555 1_555
N4 C15 1_555 1_555
N5 C19 1_555 1_555
N6 C19 1_555 1_555
O1 Ni1 1_555 1_555
O3 C1 1_555 1_555
O4 C1 1_555 1_555
O5 C2 1_555 1_555
O6 C2 1_555 1_555
O7 C3 1_555 1_555
O8 Ni1 1_555 1_555
O9 C4 1_555 1_555
O10 C4 1_555 1_555
O11 Zn1 1_555 1_555
C1 C5 1_555 1_555
C2 C6 1_555 1_555
C3 O8 1_555 1_555
C4 C9 1_555 1_555
C5 C6 1_555 1_555
C6 C7 1_555 1_555
C7 H1 1_555 1_555
C8 C3 1_555 1_555
C9 C8 1_555 1_555
C10 C5 1_555 1_555
H2 C10 1_555 1_555
C11 H3 1_555 1_555
C12 N1 1_555 1_555
H4 C12 1_555 1_555
C13 N2 1_555 1_555
H5 C13 1_555 1_555
C14 N2 1_555 1_555
H6 C14 1_555 1_555
H7 C14 1_555 1_555
C15 H8 1_555 1_555
C16 N3 1_555 1_555
H9 C16 1_555 1_555
C17 N4 1_555 1_555
H10 C17 1_555 1_555
C18 N4 1_555 1_555
H11 C18 1_555 1_555
H12 C18 1_555 1_555
C19 H13 1_555 1_555
C20 N5 1_555 1_555
H14 C20 1_555 1_555
C21 N6 1_555 1_555
H15 C21 1_555 1_555
C22 N6 1_555 1_555
H16 C22 1_555 1_555
H17 C22 1_555 1_555
C23 C14 1_555 1_555
C24 C23 1_555 1_555
C25 C22 1_555 1_555
C26 C25 1_555 1_555
C27 C18 1_555 1_555
C28 C23 1_555 1_555
C29 C28 1_555 1_555
H18 C29 1_555 1_555
H19 C29 1_555 1_555
H20 C29 1_555 1_555
C30 C24 1_555 1_555
H21 C30 1_555 1_555
H22 C30 1_555 1_555
H23 C30 1_555 1_555
C31 C26 1_555 1_555
H24 C31 1_555 1_555
H25 C31 1_555 1_555
H26 C31 1_555 1_555
H27 O11 1_555 1_555
H28 O1 1_555 1_555
H29 O1 1_555 1_555
Zn1A N3A 1_555 1_555
Zn1_2 O4 1_555 1_555
Zn1A_2 O6 1_555 1_555
Zn1A_3 O4A 1_555 1_555
Zn1_3 O6A 1_555 1_555
Zn1_4 O11_2 1_555 1_555
Zn2A N5A 1_555 1_555
Zn2_2 O3 1_555 1_555
Zn2A_2 O10 1_555 1_555
Zn2_3 O11 1_555 1_555
Zn2A_3 O3A 1_555 1_555
N1A Ni1 1_555 1_555
N2A C11A 1_555 1_555
N3A C15A 1_555 1_555
N4A C15A 1_555 1_555
N5A C19A 1_555 1_555
N6A C19A 1_555 1_555
O1A Ni1 1_555 1_555
O3A C1A 1_555 1_555
O3_2 Zn2 1_555 1_555
O3A_2 Zn2A 1_555 1_555
O4A C1A 1_555 1_555
O4_2 Zn1 1_555 1_555
O4A_2 Zn1A 1_555 1_555
O5A C2A 1_555 1_555
O6A C2A 1_555 1_555
O6A_2 Zn1 1_555 1_555
O6_2 Zn1A 1_555 1_555
O7A C3A 1_555 1_555
O8A Ni1 1_555 1_555
O9A C4A 1_555 1_555
O10A Zn2_3 1_555 1_555
O10A_2 Zn2 1_555 1_555
O10_2 Zn2A 1_555 1_555
O11_2 Zn2 1_555 1_555
O11A Zn1A 1_555 1_555
O11A_2 Zn2A 1_555 1_555
C1A C5A 1_555 1_555
C2A C6A 1_555 1_555
C3A O8A 1_555 1_555
C4A O10A 1_555 1_555
C5A C6A 1_555 1_555
C6A C7A 1_555 1_555
C7A H1A 1_555 1_555
C8A C3A 1_555 1_555
C9A C4A 1_555 1_555
C10A C5A 1_555 1_555
H2A C10A 1_555 1_555
C11A N1A 1_555 1_555
H3A C11A 1_555 1_555
C12A N1A 1_555 1_555
H4A C12A 1_555 1_555
C13A N2A 1_555 1_555
H5A C13A 1_555 1_555
C14A N2A 1_555 1_555
H6A C14A 1_555 1_555
H7A C14A 1_555 1_555
C15A H8A 1_555 1_555
C16A N3A 1_555 1_555
H9A C16A 1_555 1_555
C17A N4A 1_555 1_555
H10A C17A 1_555 1_555
C18A N4A 1_555 1_555
H11A C18A 1_555 1_555
H12A C18A 1_555 1_555
C19A H13A 1_555 1_555
C20A N5A 1_555 1_555
H14A C20A 1_555 1_555
C21A N6A 1_555 1_555
H15A C21A 1_555 1_555
C22A N6A 1_555 1_555
H16A C22A 1_555 1_555
H17A C22A 1_555 1_555
C23A C14A 1_555 1_555
C24A C23A 1_555 1_555
C25A C22A 1_555 1_555
C26A C25A 1_555 1_555
C27A C18A 1_555 1_555
C28A C23A 1_555 1_555
C29A C28A 1_555 1_555
H18A C29A 1_555 1_555
H19A C29A 1_555 1_555
H20A C29A 1_555 1_555
C30A C24A 1_555 1_555
H21A C30A 1_555 1_555
H22A C30A 1_555 1_555
H23A C30A 1_555 1_555
C31A C26A 1_555 1_555
H24A C31A 1_555 1_555
H25A C31A 1_555 1_555
H26A C31A 1_555 1_555
H27_2 O11_2 1_555 1_555
H27A O11A 1_555 1_555
H27A_2 O11A_2 1_555 1_555
H28A O1A 1_555 1_555
H29A O1A 1_555 1_555
C7 C8 1_555 1_555
C9 C10 1_555 1_555
C12 C13 1_555 1_555
C16 C17 1_555 1_555
C20 C21 1_555 1_555
C24 C25 1_555 1_555
C26 C27 1_555 1_555
C27 C28 1_555 1_555
Zn2A_2 O11A 1_555 1_555
C7A C8A 1_555 1_555
C8A C9A 1_555 1_555
C9A C10A 1_555 1_555
C12A C13A 1_555 1_555
C16A C17A 1_555 1_555
C20A C21A 1_555 1_555
C24A C25A 1_555 1_555
C26A C27A 1_555 1_555
C27A C28A 1_555 1_555

#END
