
#######################################################################
#
#                 Cambridge Crystallographic Data Centre
#                                CCDC 
#
#######################################################################
#
# If this CIF has been generated from an entry in the Cambridge 
# Structural Database, then it will include bibliographic, chemical, 
# crystal, experimental, refinement or atomic coordinate data resulting 
# from the CCDC's data processing and validation procedures.
#
#######################################################################

data_UQEDIE
_symmetry_cell_setting           orthorhombic
_symmetry_space_group_name_H-M   'P b c a'
_symmetry_Int_Tables_number      61
_space_group_name_Hall           '-P 2ac 2ab'
loop_
_symmetry_equiv_pos_site_id
_symmetry_equiv_pos_as_xyz
1 x,y,z
2 1/2-x,-y,1/2+z
3 -x,1/2+y,1/2-z
4 1/2+x,1/2-y,-z
5 -x,-y,-z
6 1/2+x,y,1/2-z
7 x,1/2-y,1/2+z
8 1/2-x,1/2+y,z
_cell_length_a                   11.149(5)
_cell_length_b                   6.199(3)
_cell_length_c                   21.727(10)
_cell_angle_alpha                90
_cell_angle_beta                 90
_cell_angle_gamma                90
_cell_volume                     1501.61
loop_
_atom_site_label
_atom_site_type_symbol
_atom_site_fract_x
_atom_site_fract_y
_atom_site_fract_z
Br1 Br 0.66180(7) 0.13086(14) 0.43160(3)
Br2 Br 0.65045(7) 0.15453(13) 0.58368(4)
Zn1 Zn 0.43555(7) 0.20637(13) 0.25124(3)
O1 O 0.4334(4) 0.3385(8) 0.3429(2)
C1 C 0.5036(5) 0.4893(10) 0.4359(3)
O2 O 0.5623(4) 0.0076(8) 0.2785(2)
O3 O 0.5770(4) 0.5902(9) 0.3380(2)
C2 C 0.5048(5) 0.4705(11) 0.3660(3)
C3 C 0.5638(6) 0.3547(11) 0.5350(3)
C4 C 0.5667(6) 0.3423(11) 0.4714(3)
O4 O 0.2688(5) 0.1112(11) 0.2765(3)
H1 H 0.217(6) 0.126(11) 0.255(3)
H2 H 0.252(9) 0.225(18) 0.289(5)
H3 H 0.559(8) -0.003(17) 0.3190(10)
Br1D Br 0.33820(7) 0.86914(14) 0.56840(3)
Br2D Br 0.34955(7) 0.84547(13) 0.41632(4)
Zn1D Zn 0.56445(7) 0.79363(13) 0.74876(3)
Zn1B Zn 0.56445(7) -0.29363(13) 0.24876(3)
Zn1B_2 Zn 0.56445(7) 0.70637(13) 0.24876(3)
Zn1F Zn 0.43555(7) 0.29363(13) 0.75124(3)
O1D O 0.5666(4) 0.6615(8) 0.6571(2)
C1D C 0.4964(5) 0.5107(10) 0.5641(3)
O2B O 0.4377(4) 0.5076(8) 0.2215(2)
O2D O 0.4377(4) 0.9924(8) 0.7215(2)
O2F O 0.5623(4) 0.4924(8) 0.7785(2)
O3D O 0.4230(4) 0.4098(9) 0.6620(2)
O3B O 0.4230(4) 0.0902(9) 0.1620(2)
O3F O 0.5770(4) 0.9098(9) 0.8380(2)
C2D C 0.4952(5) 0.5295(11) 0.6340(3)
C3D C 0.4362(6) 0.6453(11) 0.4650(3)
C4D C 0.4333(6) 0.6577(11) 0.5286(3)
O4D O 0.7312(5) 0.8888(11) 0.7235(3)
H1D H 0.783(6) 0.874(11) 0.745(3)
H2D H 0.748(9) 0.775(18) 0.711(5)
H3B H 0.441(8) 0.497(17) 0.1810(10)
H3D H 0.441(8) 1.003(17) 0.6810(10)
H3F H 0.559(8) 0.503(17) 0.8190(10)
loop_
_geom_bond_atom_site_label_1
_geom_bond_atom_site_label_2
_geom_bond_site_symmetry_1
_geom_bond_site_symmetry_2
Br1 C4 1_555 1_555
Br2 C3 1_555 1_555
Zn1 O1 1_555 1_555
O1 C2 1_555 1_555
C1 C2 1_555 1_555
O2 Zn1 1_555 1_555
O3 C2 1_555 1_555
C3 C4 1_555 1_555
C4 C1 1_555 1_555
O4 Zn1 1_555 1_555
H1 O4 1_555 1_555
H2 O4 1_555 1_555
H3 O2 1_555 1_555
Br1D C4D 1_555 1_555
Br2D C3D 1_555 1_555
Zn1D O1D 1_555 1_555
Zn1B O2 1_555 1_555
Zn1B_2 O3 1_555 1_555
Zn1F O2F 1_555 1_555
O1D C2D 1_555 1_555
C1D C3 1_555 1_555
O2B Zn1 1_555 1_555
O2D Zn1D 1_555 1_555
O2F Zn1D 1_555 1_555
O3D Zn1F 1_555 1_555
O3B Zn1 1_555 1_555
O3F Zn1D 1_555 1_555
C2D C1D 1_555 1_555
C3D C1 1_555 1_555
C4D C1D 1_555 1_555
O4D Zn1D 1_555 1_555
H1D O4D 1_555 1_555
H2D O4D 1_555 1_555
H3B O2B 1_555 1_555
H3D O2D 1_555 1_555
H3F O2F 1_555 1_555
Zn1B_2 O2B 1_555 1_555
O3D C2D 1_555 1_555
C3D C4D 1_555 1_555

#END
