
#######################################################################
#
#                 Cambridge Crystallographic Data Centre
#                                CCDC 
#
#######################################################################
#
# If this CIF has been generated from an entry in the Cambridge 
# Structural Database, then it will include bibliographic, chemical, 
# crystal, experimental, refinement or atomic coordinate data resulting 
# from the CCDC's data processing and validation procedures.
#
#######################################################################

data_UQEFUS
_symmetry_cell_setting           monoclinic
_symmetry_space_group_name_H-M   'P 21'
_symmetry_Int_Tables_number      4
_space_group_name_Hall           'P 2yb'
loop_
_symmetry_equiv_pos_site_id
_symmetry_equiv_pos_as_xyz
1 x,y,z
2 -x,1/2+y,-z
_cell_length_a                   5.2456(3)
_cell_length_b                   11.1651(6)
_cell_length_c                   14.3230(7)
_cell_angle_alpha                90
_cell_angle_beta                 97.415(2)
_cell_angle_gamma                90
_cell_volume                     831.849
loop_
_atom_site_label
_atom_site_type_symbol
_atom_site_fract_x
_atom_site_fract_y
_atom_site_fract_z
Sn1 Sn 0.00552(3) 0.765302(13) 0.859292(13)
Sn2 Sn 0.50507(3) 0.794990(13) 0.645480(13)
O1 O 0.2597(5) 0.9086(3) 0.74159(19)
O2 O 0.1613(5) 1.0941(3) 0.7889(2)
O3 O 1.0988(5) 0.9416(3) 0.50299(18)
H1 H 1.1982 0.9974 0.5424
O4 O 0.8153(5) 0.8181(3) 0.55710(18)
O5 O 0.2455(4) 0.6514(3) 0.7594(2)
O6 O 0.3191(5) 0.4685(4) 0.7038(2)
O7 O -0.5831(5) 0.6206(4) 1.0030(2)
H2 H -0.6934 0.5637 0.9690
O8 O -0.2971(5) 0.7423(3) 0.94982(18)
O9 O 0.6704(6) 0.5897(4) 0.6210(3)
H3 H 0.5559 0.5321 0.6412
H4 H 0.7511 0.5504 0.5738
O10 O -0.1290(7) 0.9733(4) 0.8959(3)
H5 H -0.0491 1.0303 0.8599
H6 H -0.2454 1.0149 0.9298
O11 O -0.2487(4) 0.7857(5) 0.75444(17)
N1 N 0.5969(6) 0.9921(3) 0.6393(2)
N2 N -0.0996(6) 0.5691(3) 0.8611(2)
C1 C 0.2811(8) 1.0231(4) 0.7440(3)
C2 C 0.4688(6) 1.0739(4) 0.6834(2)
C3 C 0.5122(7) 1.1957(4) 0.6718(3)
H7 H 0.4185 1.2536 0.7021
C4 C 0.6953(7) 1.2313(4) 0.6151(3)
H8 H 0.7278 1.3140 0.6066
C5 C 0.8308(7) 1.1453(4) 0.5708(3)
H9 H 0.9567 1.1680 0.5321
C6 C 0.7761(7) 1.0263(4) 0.5849(2)
C7 C 0.9098(7) 0.9222(4) 0.5437(2)
C8 C 0.2132(8) 0.5379(4) 0.7533(3)
C9 C 0.0199(6) 0.4877(4) 0.8134(2)
C10 C -0.0318(7) 0.3665(4) 0.8199(3)
H10 H 0.0555 0.3091 0.7866
C11 C -0.2150(7) 0.3311(4) 0.8762(3)
H11 H -0.2526 0.2485 0.8826
C12 C -0.3434(7) 0.4168(4) 0.9234(2)
H12 H -0.4726 0.3940 0.9606
C13 C -0.2772(7) 0.5365(4) 0.9144(2)
C14 C -0.3985(7) 0.6386(4) 0.9605(2)
Sn2_2 Sn -0.49493(3) 0.794990(13) 0.645480(13)
O11_2 O 0.7513(4) 0.7857(5) 0.75444(17)
loop_
_geom_bond_atom_site_label_1
_geom_bond_atom_site_label_2
_geom_bond_site_symmetry_1
_geom_bond_site_symmetry_2
Sn1 O1 1_555 1_555
Sn2 O1 1_555 1_555
O1 C1 1_555 1_555
O2 C1 1_555 1_555
O3 H1 1_555 1_555
O4 Sn2 1_555 1_555
O5 Sn1 1_555 1_555
O6 C8 1_555 1_555
O7 H2 1_555 1_555
O8 Sn1 1_555 1_555
O9 Sn2 1_555 1_555
H3 O9 1_555 1_555
H4 O9 1_555 1_555
O10 Sn1 1_555 1_555
H5 O10 1_555 1_555
H6 O10 1_555 1_555
O11 Sn1 1_555 1_555
N1 Sn2 1_555 1_555
N2 Sn1 1_555 1_555
C1 C2 1_555 1_555
C2 N1 1_555 1_555
C3 C2 1_555 1_555
H7 C3 1_555 1_555
C4 C3 1_555 1_555
H8 C4 1_555 1_555
C5 C4 1_555 1_555
H9 C5 1_555 1_555
C6 N1 1_555 1_555
C7 O3 1_555 1_555
C8 O5 1_555 1_555
C9 N2 1_555 1_555
C10 C9 1_555 1_555
H10 C10 1_555 1_555
C11 C10 1_555 1_555
H11 C11 1_555 1_555
C12 C11 1_555 1_555
H12 C12 1_555 1_555
C13 N2 1_555 1_555
C14 O7 1_555 1_555
Sn2_2 O11 1_555 1_555
O11_2 Sn2 1_555 1_555
Sn2 O5 1_555 1_555
O4 C7 1_555 1_555
O8 C14 1_555 1_555
C5 C6 1_555 1_555
C6 C7 1_555 1_555
C8 C9 1_555 1_555
C12 C13 1_555 1_555
C13 C14 1_555 1_555

#END
