
#######################################################################
#
#                 Cambridge Crystallographic Data Centre
#                                CCDC 
#
#######################################################################
#
# If this CIF has been generated from an entry in the Cambridge 
# Structural Database, then it will include bibliographic, chemical, 
# crystal, experimental, refinement or atomic coordinate data resulting 
# from the CCDC's data processing and validation procedures.
#
#######################################################################

data_UQORUO
_symmetry_cell_setting           monoclinic
_symmetry_space_group_name_H-M   'P 21/c'
_symmetry_Int_Tables_number      14
_space_group_name_Hall           '-P 2ybc'
loop_
_symmetry_equiv_pos_site_id
_symmetry_equiv_pos_as_xyz
1 x,y,z
2 -x,1/2+y,1/2-z
3 -x,-y,-z
4 x,1/2-y,1/2+z
_cell_length_a                   6.7324(12)
_cell_length_b                   21.804(4)
_cell_length_c                   9.5103(18)
_cell_angle_alpha                90
_cell_angle_beta                 104.592(3)
_cell_angle_gamma                90
_cell_volume                     1351.02
loop_
_atom_site_label
_atom_site_type_symbol
_atom_site_fract_x
_atom_site_fract_y
_atom_site_fract_z
Cd1 Cd 0.75128(3) 0.906601(8) 1.05654(2)
S1 S 0.25412(9) 0.94644(3) 1.05713(7)
O1 O 0.4205(2) 0.90037(7) 1.0770(2)
O2 O 0.2733(2) 0.98860(8) 0.9369(2)
O3 O 0.0586(3) 0.91294(7) 1.0078(2)
O4 O 0.2641(3) 0.98116(8) 1.1877(2)
N1 N 0.8362(3) 0.69849(9) 0.6063(3)
N2 N -0.1492(3) 0.91519(9) 0.3141(2)
N3 N 0.5794(3) 0.87827(9) 0.8060(2)
N4 N 0.4002(3) 0.90952(10) 0.7552(3)
H1 H 0.363(4) 0.9394(13) 0.808(3)
N5 N 0.4054(3) 0.84106(9) 0.5872(2)
C1 C 0.6930(4) 0.73950(12) 0.6207(3)
H2 H 0.5549 0.7313 0.5745
C2 C 0.7390(4) 0.79312(11) 0.7001(3)
C3 C 0.9425(4) 0.80377(12) 0.7752(3)
H3 H 0.9781 0.8381 0.8362
C4 C 1.0909(4) 0.76235(12) 0.7576(3)
H4 H 1.2297 0.7688 0.8050
C5 C 1.0333(4) 0.71202(11) 0.6707(3)
H5 H 1.1363 0.6857 0.6552
C6 C 0.0376(4) 0.90029(11) 0.3971(3)
H6 H 0.1339 0.8836 0.3513
C7 C 0.0955(4) 0.90821(11) 0.5460(3)
C8 C -0.0422(4) 0.93580(12) 0.6147(3)
H7 H -0.0054 0.9439 0.7151
C9 C -0.2345(4) 0.95075(12) 0.5297(3)
H8 H -0.3321 0.9688 0.5722
C10 C -0.2832(4) 0.93920(12) 0.3824(3)
H9 H -0.4164 0.9486 0.3272
C11 C 0.5755(4) 0.83758(11) 0.7009(3)
C12 C 0.2987(4) 0.88652(11) 0.6275(3)
Cd1B Cd 0.24872(3) 1.093399(8) 0.94346(2)
Cd1_2 Cd -0.24872(3) 0.906601(8) 0.05654(2)
Cd1_3 Cd -0.24872(3) 0.906601(8) 1.05654(2)
Cd1A Cd 0.24872(3) 1.406601(8) 1.44346(2)
Cd1B_2 Cd 1.24872(3) 1.093399(8) 0.94346(2)
Cd1B_3 Cd 1.24872(3) 1.093399(8) 1.94346(2)
Cd1C Cd 0.75128(3) 0.593399(8) 0.55654(2)
S1B S 0.74588(9) 1.05356(3) 0.94287(7)
O1B O 0.5795(2) 1.09963(7) 0.9230(2)
O2B O 0.7267(2) 1.01140(8) 1.0631(2)
O3B O 0.9414(3) 1.08706(7) 0.9922(2)
O3_2 O 1.0586(3) 0.91294(7) 1.0078(2)
O3B_2 O -0.0586(3) 1.08706(7) 0.9922(2)
O4B O 0.7359(3) 1.01884(8) 0.8123(2)
N1B N 0.1638(3) 1.30151(9) 1.3937(3)
N1A N 0.1638(3) 1.19849(9) 0.8937(3)
N1C N 0.8362(3) 0.80151(9) 1.1063(3)
N2B N 1.1492(3) 1.08481(9) 1.6859(2)
N2_2 N 0.8508(3) 0.91519(9) 1.3141(2)
N2B_2 N 0.1492(3) 1.08481(9) 0.6859(2)
N3B N 0.4206(3) 1.12173(9) 1.1940(2)
N4B N 0.5998(3) 1.09048(10) 1.2448(3)
H1B H 0.637(4) 1.0606(13) 1.192(3)
N5B N 0.5946(3) 1.15894(9) 1.4128(2)
C1B C 0.3070(4) 1.26050(12) 1.3793(3)
H2B H 0.4451 1.2687 1.4255
C2B C 0.2610(4) 1.20688(11) 1.2999(3)
C3B C 0.0575(4) 1.19623(12) 1.2248(3)
H3B H 0.0219 1.1619 1.1638
C4B C -0.0909(4) 1.23765(12) 1.2424(3)
H4B H -0.2297 1.2312 1.1950
C5B C -0.0333(4) 1.28798(11) 1.3293(3)
H5B H -0.1363 1.3143 1.3448
C6B C 0.9624(4) 1.09971(11) 1.6029(3)
H6B H 0.8661 1.1164 1.6487
C7B C 0.9045(4) 1.09179(11) 1.4540(3)
C8B C 1.0422(4) 1.06420(12) 1.3853(3)
H7B H 1.0054 1.0561 1.2849
C9B C 1.2345(4) 1.04925(12) 1.4703(3)
H8B H 1.3321 1.0312 1.4278
C10B C 1.2832(4) 1.06080(12) 1.6176(3)
H9B H 1.4164 1.0514 1.6728
C11B C 0.4245(4) 1.16242(11) 1.2991(3)
C12B C 0.7013(4) 1.11348(11) 1.3725(3)
loop_
_geom_bond_atom_site_label_1
_geom_bond_atom_site_label_2
_geom_bond_site_symmetry_1
_geom_bond_site_symmetry_2
Cd1 O1 1_555 1_555
S1 O1 1_555 1_555
O2 S1 1_555 1_555
O3 S1 1_555 1_555
O4 S1 1_555 1_555
N1 C1 1_555 1_555
N2 C6 1_555 1_555
N3 Cd1 1_555 1_555
N4 N3 1_555 1_555
H1 N4 1_555 1_555
N5 C11 1_555 1_555
C1 H2 1_555 1_555
C2 C1 1_555 1_555
C3 C2 1_555 1_555
H3 C3 1_555 1_555
C4 C3 1_555 1_555
H4 C4 1_555 1_555
C5 N1 1_555 1_555
H5 C5 1_555 1_555
C6 H6 1_555 1_555
C7 C6 1_555 1_555
C8 C7 1_555 1_555
H7 C8 1_555 1_555
C9 C8 1_555 1_555
H8 C9 1_555 1_555
C10 N2 1_555 1_555
H9 C10 1_555 1_555
C11 N3 1_555 1_555
C12 N4 1_555 1_555
Cd1B O2 1_555 1_555
Cd1_2 N2 1_555 1_555
Cd1_3 O3 1_555 1_555
Cd1A N1B 1_555 1_555
Cd1B_2 O3B 1_555 1_555
Cd1B_3 N2B 1_555 1_555
Cd1C N1 1_555 1_555
S1B O1B 1_555 1_555
O1B Cd1B 1_555 1_555
O2B Cd1 1_555 1_555
O3B S1B 1_555 1_555
O3_2 Cd1 1_555 1_555
O3B_2 Cd1B 1_555 1_555
O4B S1B 1_555 1_555
N1B C1B 1_555 1_555
N1A Cd1B 1_555 1_555
N1C Cd1 1_555 1_555
N2B C6B 1_555 1_555
N2_2 Cd1 1_555 1_555
N2B_2 Cd1B 1_555 1_555
N3B Cd1B 1_555 1_555
N4B N3B 1_555 1_555
H1B N4B 1_555 1_555
N5B C11B 1_555 1_555
C1B H2B 1_555 1_555
C2B C1B 1_555 1_555
C3B C2B 1_555 1_555
H3B C3B 1_555 1_555
C4B C3B 1_555 1_555
H4B C4B 1_555 1_555
C5B N1B 1_555 1_555
H5B C5B 1_555 1_555
C6B H6B 1_555 1_555
C7B C6B 1_555 1_555
C8B C7B 1_555 1_555
H7B C8B 1_555 1_555
C9B C8B 1_555 1_555
H8B C9B 1_555 1_555
C10B N2B 1_555 1_555
H9B C10B 1_555 1_555
C11B N3B 1_555 1_555
C12B N4B 1_555 1_555
N5 C12 1_555 1_555
C2 C11 1_555 1_555
C4 C5 1_555 1_555
C7 C12 1_555 1_555
C9 C10 1_555 1_555
S1B O2B 1_555 1_555
N5B C12B 1_555 1_555
C2B C11B 1_555 1_555
C4B C5B 1_555 1_555
C7B C12B 1_555 1_555
C9B C10B 1_555 1_555

#END
