
#######################################################################
#
#                 Cambridge Crystallographic Data Centre
#                                CCDC 
#
#######################################################################
#
# If this CIF has been generated from an entry in the Cambridge 
# Structural Database, then it will include bibliographic, chemical, 
# crystal, experimental, refinement or atomic coordinate data resulting 
# from the CCDC's data processing and validation procedures.
#
#######################################################################

data_UQOSAV
_symmetry_cell_setting           monoclinic
_symmetry_space_group_name_H-M   'P 21/c'
_symmetry_Int_Tables_number      14
_space_group_name_Hall           '-P 2ybc'
loop_
_symmetry_equiv_pos_site_id
_symmetry_equiv_pos_as_xyz
1 x,y,z
2 -x,1/2+y,1/2-z
3 -x,-y,-z
4 x,1/2-y,1/2+z
_cell_length_a                   7.9223(15)
_cell_length_b                   14.721(3)
_cell_length_c                   15.965(3)
_cell_angle_alpha                90
_cell_angle_beta                 102.897(3)
_cell_angle_gamma                90
_cell_volume                     1814.93
loop_
_atom_site_label
_atom_site_type_symbol
_atom_site_fract_x
_atom_site_fract_y
_atom_site_fract_z
Cd1 Cd 0.24907(3) 0.136805(15) 0.716399(13)
S1 S 0.43776(10) -0.07179(5) 0.68786(5)
O1 O 0.3112(3) -0.01291(16) 0.71727(14)
O2 O 0.3911(3) -0.16578(16) 0.69908(17)
O3 O 0.6137(3) -0.05497(17) 0.74062(14)
O4 O 0.4375(3) -0.05324(18) 0.59859(13)
O5 O 0.5117(3) 0.18717(18) 0.70051(16)
H1 H 0.565(4) 0.167(2) 0.667(2)
H2 H 0.563(4) 0.2299(18) 0.727(2)
O6 O 0.1913(3) 0.28761(16) 0.74280(16)
H3 H 0.250(4) 0.3343(15) 0.751(2)
H4 H 0.092(2) 0.308(2) 0.730(2)
O7 O -0.0356(3) 0.1045(2) 0.71926(14)
H5 H -0.112(3) 0.101(3) 0.6756(14)
H6 H -0.064(5) 0.109(2) 0.7649(13)
N1 N 0.1357(3) 0.15879(17) 0.57116(15)
N2 N -0.3213(3) 0.63033(16) 0.63348(15)
N3 N -0.1729(3) 0.37903(17) 0.36903(15)
N4 N -0.2480(3) 0.45909(17) 0.38203(14)
H11 H -0.2977 0.4962 0.3416
N5 N -0.1513(3) 0.40242(17) 0.51043(14)
C1 C 0.1468(5) 0.1005(2) 0.50794(19)
H12 H 0.2055 0.0451 0.5221
C2 C 0.0746(5) 0.1193(2) 0.4231(2)
H13 H 0.0853 0.0774 0.3802
C3 C -0.0124(4) 0.1989(2) 0.40122(19)
H14 H -0.0624 0.2121 0.3434
C4 C -0.0259(4) 0.2597(2) 0.46552(17)
C5 C 0.0512(4) 0.2366(2) 0.54868(18)
H15 H 0.0440 0.2782 0.5924
C6 C -0.4166(4) 0.6939(2) 0.58546(19)
H16 H -0.4578 0.7428 0.6132
C7 C -0.4575(4) 0.6912(2) 0.49670(19)
H17 H -0.5247 0.7374 0.4648
C8 C -0.3978(4) 0.6195(2) 0.4556(2)
H18 H -0.4232 0.6167 0.3953
C9 C -0.3007(4) 0.5520(2) 0.50368(17)
C10 C -0.2646(4) 0.5611(2) 0.59327(18)
H19 H -0.1969 0.5162 0.6268
C11 C -0.1170(4) 0.3471(2) 0.44737(17)
C12 C -0.2345(4) 0.4726(2) 0.46628(17)
Cd1A Cd -0.24907(3) 0.636805(15) 0.783601(13)
N2A N 0.3213(3) 0.13033(16) 0.86652(15)
O8 O 0.6702(3) 0.08758(18) 0.58279(15)
H7 H 0.651(5) 0.089(3) 0.5303(7)
H8 H 0.608(4) 0.0445(16) 0.589(2)
O9 O 0.8570(4) 0.3431(2) 0.68642(16)
H9 H 0.837(6) 0.368(3) 0.6391(13)
H10 H 0.807(5) 0.375(2) 0.715(2)
loop_
_geom_bond_atom_site_label_1
_geom_bond_atom_site_label_2
_geom_bond_site_symmetry_1
_geom_bond_site_symmetry_2
Cd1 O1 1_555 1_555
S1 O1 1_555 1_555
O2 S1 1_555 1_555
O3 S1 1_555 1_555
O4 S1 1_555 1_555
O5 Cd1 1_555 1_555
H1 O5 1_555 1_555
H2 O5 1_555 1_555
O6 Cd1 1_555 1_555
H3 O6 1_555 1_555
H4 O6 1_555 1_555
O7 Cd1 1_555 1_555
H5 O7 1_555 1_555
H6 O7 1_555 1_555
O8 H7 1_555 1_555
H8 O8 1_555 1_555
O9 H9 1_555 1_555
H10 O9 1_555 1_555
N1 Cd1 1_555 1_555
N2 C6 1_555 1_555
N3 N4 1_555 1_555
N4 H11 1_555 1_555
N5 C11 1_555 1_555
C1 N1 1_555 1_555
H12 C1 1_555 1_555
C2 C1 1_555 1_555
H13 C2 1_555 1_555
C3 C2 1_555 1_555
H14 C3 1_555 1_555
C4 C3 1_555 1_555
C5 N1 1_555 1_555
H15 C5 1_555 1_555
C6 H16 1_555 1_555
C7 C6 1_555 1_555
H17 C7 1_555 1_555
C8 C7 1_555 1_555
H18 C8 1_555 1_555
C9 C8 1_555 1_555
C10 N2 1_555 1_555
H19 C10 1_555 1_555
C11 N3 1_555 1_555
C12 N4 1_555 1_555
Cd1A N2 1_555 1_555
N2A Cd1 1_555 1_555
N5 C12 1_555 1_555
C4 C5 1_555 1_555
C4 C11 1_555 1_555
C9 C10 1_555 1_555
C9 C12 1_555 1_555

#END
