
#######################################################################
#
#                 Cambridge Crystallographic Data Centre
#                                CCDC 
#
#######################################################################
#
# If this CIF has been generated from an entry in the Cambridge 
# Structural Database, then it will include bibliographic, chemical, 
# crystal, experimental, refinement or atomic coordinate data resulting 
# from the CCDC's data processing and validation procedures.
#
#######################################################################

data_UQUCOZ
_symmetry_cell_setting           monoclinic
_symmetry_space_group_name_H-M   'C 2/c'
_symmetry_Int_Tables_number      15
_space_group_name_Hall           '-C 2yn'
loop_
_symmetry_equiv_pos_site_id
_symmetry_equiv_pos_as_xyz
1 x,y,z
2 1/2+x,1/2+y,z
3 -x,y,1/2-z
4 1/2-x,1/2+y,1/2-z
5 -x,-y,-z
6 1/2-x,1/2-y,-z
7 x,-y,1/2+z
8 1/2+x,1/2-y,1/2+z
_cell_length_a                   13.079(2)
_cell_length_b                   12.793(2)
_cell_length_c                   7.0639(11)
_cell_angle_alpha                90
_cell_angle_beta                 119.7720(10)
_cell_angle_gamma                90
_cell_volume                     1025.92
loop_
_atom_site_label
_atom_site_type_symbol
_atom_site_fract_x
_atom_site_fract_y
_atom_site_fract_z
Cd1 Cd 0.5000 0.437964(19) 0.7500
Cl1 Cl 0.63088(7) 0.43745(5) 1.17958(13)
O1 O 0.38969(17) 0.28918(15) 0.7244(4)
N1 N 0.38698(19) 0.11215(17) 0.7123(4)
H1 H 0.3154 0.1111 0.6860
C1 C 0.4379(2) 0.2053(2) 0.7328(4)
C2 C 0.4428(3) 0.0162(2) 0.7304(4)
C3 C 0.3839(3) -0.0783(2) 0.7098(5)
H2 H 0.3067 -0.0785 0.6831
C4 C 0.4424(3) -0.1709(2) 0.7300(5)
H3 H 0.4042 -0.2341 0.7167
Cd1F Cd 0.5000 0.562036(19) 1.2500
Cl1F Cl 0.63088(7) 0.56255(5) 0.67958(13)
Cl1D Cl 0.36912(7) 0.56255(5) 0.82042(13)
Cl1B Cl 0.36912(7) 0.43745(5) 0.32042(13)
O1B O 0.61031(17) 0.28918(15) 0.7756(4)
N1B N 0.61302(19) 0.11215(17) 0.7877(4)
H1B H 0.6846 0.1111 0.8140
C1B C 0.5621(2) 0.2053(2) 0.7672(4)
C2B C 0.5572(3) 0.0162(2) 0.7696(4)
C3B C 0.6161(3) -0.0783(2) 0.7902(5)
H2B H 0.6933 -0.0785 0.8169
C4B C 0.5576(3) -0.1709(2) 0.7700(5)
H3B H 0.5958 -0.2341 0.7833
loop_
_geom_bond_atom_site_label_1
_geom_bond_atom_site_label_2
_geom_bond_site_symmetry_1
_geom_bond_site_symmetry_2
Cd1 Cl1 1_555 1_555
Cl1 Cd1F 1_555 1_555
O1 Cd1 1_555 1_555
N1 H1 1_555 1_555
C1 O1 1_555 1_555
C2 N1 1_555 1_555
C3 C2 1_555 1_555
H2 C3 1_555 1_555
C4 C3 1_555 1_555
H3 C4 1_555 1_555
Cd1F Cl1D 1_555 1_555
Cl1F Cd1 1_555 1_555
Cl1D Cd1 1_555 1_555
Cl1B Cd1 1_555 1_555
O1B Cd1 1_555 1_555
N1B H1B 1_555 1_555
C1B C1 1_555 1_555
C2B C2 1_555 1_555
C3B C2B 1_555 1_555
H2B C3B 1_555 1_555
C4B C4 1_555 1_555
H3B C4B 1_555 1_555
N1 C1 1_555 1_555
O1B C1B 1_555 1_555
N1B C1B 1_555 1_555
N1B C2B 1_555 1_555
C3B C4B 1_555 1_555

#END
