
#######################################################################
#
#                 Cambridge Crystallographic Data Centre
#                                CCDC 
#
#######################################################################
#
# If this CIF has been generated from an entry in the Cambridge 
# Structural Database, then it will include bibliographic, chemical, 
# crystal, experimental, refinement or atomic coordinate data resulting 
# from the CCDC's data processing and validation procedures.
#
#######################################################################

data_UQUMID
_symmetry_cell_setting           monoclinic
_symmetry_space_group_name_H-M   'P 21/c'
_symmetry_Int_Tables_number      14
_space_group_name_Hall           '-P 2ybc'
loop_
_symmetry_equiv_pos_site_id
_symmetry_equiv_pos_as_xyz
1 x,y,z
2 -x,1/2+y,1/2-z
3 -x,-y,-z
4 x,1/2-y,1/2+z
_cell_length_a                   9.88100(10)
_cell_length_b                   19.6790(5)
_cell_length_c                   6.4530(3)
_cell_angle_alpha                90
_cell_angle_beta                 108.26(2)
_cell_angle_gamma                90
_cell_volume                     1191.59
loop_
_atom_site_label
_atom_site_type_symbol
_atom_site_fract_x
_atom_site_fract_y
_atom_site_fract_z
Rb1 Rb 0.708160(19) -0.318270(10) 0.37955(3)
N1 N 0.16099(16) -0.27780(7) 0.1938(2)
H1 H 0.170(2) -0.2334(5) 0.205(3)
C1 C 0.28287(19) -0.31365(8) 0.2095(3)
O1 O 0.39637(14) -0.28521(6) 0.2328(2)
N2 N 0.27359(16) -0.38269(7) 0.2016(2)
H2 H 0.3525(14) -0.4041(9) 0.219(3)
C2 C 0.15214(19) -0.41945(9) 0.1681(3)
O2 O 0.15536(14) -0.48133(6) 0.1624(2)
C3 C 0.01685(19) -0.38070(9) 0.1372(3)
H3 H -0.0442 -0.3877 -0.0115
H4 H -0.0314 -0.4001 0.2330
C4 C 0.03141(19) -0.30577(9) 0.1788(3)
O3 O -0.06609(14) -0.27058(7) 0.1939(2)
N3 N 0.57427(15) -0.64265(7) 0.2420(2)
H5 H 0.583(2) -0.6870(5) 0.241(3)
C5 C 0.44143(18) -0.61709(8) 0.2087(3)
O4 O 0.33606(15) -0.65406(7) 0.1724(3)
N4 N 0.43488(15) -0.54808(7) 0.2196(2)
H6 H 0.3480(12) -0.5339(10) 0.196(3)
C6 C 0.55151(18) -0.50466(8) 0.2585(3)
O5 O 0.52907(14) -0.44199(6) 0.2643(2)
C7 C 0.68398(18) -0.53460(8) 0.2874(3)
H7 H 0.7642 -0.5073 0.3107
C8 C 0.69765(18) -0.60459(9) 0.2820(3)
O6 O 0.81249(13) -0.63782(6) 0.3130(2)
O7 O 0.92361(16) -0.41675(8) 0.5724(3)
H8 H 1.0078(14) -0.4027(12) 0.620(4)
H9 H 0.910(3) -0.4486(9) 0.647(4)
Rb1B Rb 0.291840(19) -0.681730(10) 0.62045(3)
Rb1A Rb 0.291840(19) -0.818270(10) 0.12045(3)
Rb1_2 Rb -0.291840(19) -0.318270(10) 0.37955(3)
Rb1C Rb -0.291840(19) -0.181730(10) -0.12045(3)
O3_2 O 0.93391(14) -0.27058(7) 0.1939(2)
O3C O 0.93391(14) -0.22942(7) 0.6939(2)
O4A O 0.66394(15) -0.15406(7) 0.3276(3)
O4B O 0.66394(15) -0.34594(7) 0.8276(3)
loop_
_geom_bond_atom_site_label_1
_geom_bond_atom_site_label_2
_geom_bond_site_symmetry_1
_geom_bond_site_symmetry_2
Rb1 O1 1_555 1_555
N1 H1 1_555 1_555
C1 N1 1_555 1_555
O1 C1 1_555 1_555
N2 C1 1_555 1_555
H2 N2 1_555 1_555
C2 N2 1_555 1_555
O2 C2 1_555 1_555
C3 C2 1_555 1_555
H3 C3 1_555 1_555
H4 C3 1_555 1_555
C4 N1 1_555 1_555
O3 C4 1_555 1_555
N3 H5 1_555 1_555
C5 N3 1_555 1_555
O4 C5 1_555 1_555
N4 C5 1_555 1_555
H6 N4 1_555 1_555
C6 N4 1_555 1_555
O5 Rb1 1_555 1_555
C7 C6 1_555 1_555
H7 C7 1_555 1_555
C8 N3 1_555 1_555
O6 C8 1_555 1_555
O7 Rb1 1_555 1_555
H8 O7 1_555 1_555
H9 O7 1_555 1_555
Rb1B O4 1_555 1_555
Rb1A O4 1_555 1_555
Rb1_2 O3 1_555 1_555
Rb1C O3 1_555 1_555
O3_2 Rb1 1_555 1_555
O3C Rb1 1_555 1_555
O4A Rb1 1_555 1_555
O4B Rb1 1_555 1_555
C3 C4 1_555 1_555
C6 O5 1_555 1_555
C7 C8 1_555 1_555

#END
