
#######################################################################
#
#                 Cambridge Crystallographic Data Centre
#                                CCDC 
#
#######################################################################
#
# If this CIF has been generated from an entry in the Cambridge 
# Structural Database, then it will include bibliographic, chemical, 
# crystal, experimental, refinement or atomic coordinate data resulting 
# from the CCDC's data processing and validation procedures.
#
#######################################################################

data_UQUROO
_symmetry_cell_setting           monoclinic
_symmetry_space_group_name_H-M   'C 2/c'
_symmetry_Int_Tables_number      15
_space_group_name_Hall           '-C 2yn'
loop_
_symmetry_equiv_pos_site_id
_symmetry_equiv_pos_as_xyz
1 x,y,z
2 -x,y,1/2-z
3 1/2+x,1/2+y,z
4 1/2-x,1/2+y,1/2-z
5 -x,-y,-z
6 x,-y,1/2+z
7 1/2-x,1/2-y,-z
8 1/2+x,1/2-y,1/2+z
_cell_length_a                   14.960(3)
_cell_length_b                   15.237(3)
_cell_length_c                   12.139(2)
_cell_angle_alpha                90
_cell_angle_beta                 103.94(3)
_cell_angle_gamma                90
_cell_volume                     2685.54
loop_
_atom_site_label
_atom_site_type_symbol
_atom_site_fract_x
_atom_site_fract_y
_atom_site_fract_z
Cu1 Cu 1.0000 1.08431(3) 0.7500
N1 N 0.90976(16) 1.00076(15) 0.7873(2)
N2 N 0.79830(16) 0.95918(15) 0.8684(2)
N3 N 1.00584(19) 1.19959(17) 0.5927(2)
C1 C 0.86254(19) 1.01906(19) 0.8646(2)
H1 H 0.8733 1.0684 0.9110
C2 C 0.87224(19) 0.92203(18) 0.7368(2)
C3 C 0.89502(19) 0.87094(19) 0.6515(2)
H2 H 0.9423 0.8872 0.6180
C4 C 0.8443(2) 0.79544(19) 0.6192(2)
H3 H 0.8587 0.7594 0.5641
C5 C 0.7707(2) 0.77168(19) 0.6684(3)
H4 H 0.7365 0.7217 0.6423
C6 C 0.74853(18) 0.82031(18) 0.7533(2)
H5 H 0.7009 0.8041 0.7862
C7 C 0.80152(19) 0.89544(18) 0.7875(2)
C8 C 0.73918(18) 0.96045(18) 0.9471(2)
C9 C 0.7327(2) 0.8866(2) 1.0116(3)
H6 H 0.7667 0.8365 1.0055
C10 C 0.6748(2) 0.88846(19) 1.0852(3)
H7 H 0.6696 0.8386 1.1273
C11 C 0.62384(18) 0.96369(18) 1.0978(2)
C12 C 0.63268(18) 1.03720(18) 1.0321(2)
H8 H 0.6000 1.0880 1.0391
C13 C 0.68927(19) 1.03586(18) 0.9565(2)
H9 H 0.6937 1.0850 0.9127
C14 C 0.56072(18) 0.96408(18) 1.1761(2)
C15 C 0.52982(19) 1.04264(18) 1.2139(2)
H10 H 0.5494 1.0958 1.1903
C16 C 0.52938(19) 0.88512(19) 1.2128(2)
H11 H 0.5478 0.8320 1.1875
O1 O 1.06322(14) 1.18409(14) 0.68862(19)
O2 O 1.01639(19) 1.26531(16) 0.5384(2)
O3 O 0.94347(17) 1.14482(17) 0.5587(2)
Cu1_2 Cu 0.0000 1.08431(3) 1.7500
N1A N 0.09024(16) 1.00076(15) 1.7127(2)
N1A_2 N 1.09024(16) 1.00076(15) 0.7127(2)
N2A N 0.20170(16) 0.95918(15) 1.6316(2)
N3A N 0.99416(19) 1.19959(17) 0.9073(2)
C1A C 0.13746(19) 1.01906(19) 1.6354(2)
H1A H 0.1267 1.0684 1.5890
C2A C 0.12776(19) 0.92203(18) 1.7632(2)
C3A C 0.10498(19) 0.87094(19) 1.8485(2)
H2A H 0.0577 0.8872 1.8820
C4A C 0.1557(2) 0.79544(19) 1.8808(2)
H3A H 0.1413 0.7594 1.9359
C5A C 0.2293(2) 0.77168(19) 1.8316(3)
H4A H 0.2635 0.7217 1.8577
C6A C 0.25147(18) 0.82031(18) 1.7467(2)
H5A H 0.2991 0.8041 1.7138
C7A C 0.19848(19) 0.89544(18) 1.7125(2)
C8A C 0.26082(18) 0.96045(18) 1.5529(2)
C9A C 0.2673(2) 0.8866(2) 1.4884(3)
H6A H 0.2333 0.8365 1.4945
C10A C 0.3252(2) 0.88846(19) 1.4148(3)
H7A H 0.3304 0.8386 1.3727
C11A C 0.37616(18) 0.96369(18) 1.4022(2)
C12A C 0.36732(18) 1.03720(18) 1.4679(2)
H8A H 0.4000 1.0880 1.4609
C13A C 0.31073(19) 1.03586(18) 1.5435(2)
H9A H 0.3063 1.0850 1.5873
C14A C 0.43928(18) 0.96408(18) 1.3239(2)
C15A C 0.47018(19) 1.04264(18) 1.2861(2)
H10A H 0.4506 1.0958 1.3097
C16A C 0.47062(19) 0.88512(19) 1.2872(2)
H11A H 0.4522 0.8320 1.3125
O1A O 0.93678(14) 1.18409(14) 0.81138(19)
O2A O 0.98361(19) 1.26531(16) 0.9616(2)
O3A O 1.05653(17) 1.14482(17) 0.9413(2)
loop_
_geom_bond_atom_site_label_1
_geom_bond_atom_site_label_2
_geom_bond_site_symmetry_1
_geom_bond_site_symmetry_2
Cu1 N1 1_555 1_555
N1 C1 1_555 1_555
N2 C1 1_555 1_555
N3 O1 1_555 1_555
C1 H1 1_555 1_555
C2 N1 1_555 1_555
C3 C2 1_555 1_555
H2 C3 1_555 1_555
C4 C3 1_555 1_555
H3 C4 1_555 1_555
C5 C4 1_555 1_555
H4 C5 1_555 1_555
C6 C5 1_555 1_555
H5 C6 1_555 1_555
C7 N2 1_555 1_555
C8 N2 1_555 1_555
C9 C8 1_555 1_555
H6 C9 1_555 1_555
C10 C9 1_555 1_555
H7 C10 1_555 1_555
C11 C10 1_555 1_555
C12 C11 1_555 1_555
H8 C12 1_555 1_555
C13 C8 1_555 1_555
H9 C13 1_555 1_555
C14 C11 1_555 1_555
C15 C14 1_555 1_555
H10 C15 1_555 1_555
C16 C14 1_555 1_555
H11 C16 1_555 1_555
O1 Cu1 1_555 1_555
O2 N3 1_555 1_555
O3 N3 1_555 1_555
Cu1_2 N1A 1_555 1_555
N1A C1A 1_555 1_555
N1A_2 Cu1 1_555 1_555
N2A C1A 1_555 1_555
N3A O1A 1_555 1_555
C1A H1A 1_555 1_555
C2A N1A 1_555 1_555
C3A C2A 1_555 1_555
H2A C3A 1_555 1_555
C4A C3A 1_555 1_555
H3A C4A 1_555 1_555
C5A C4A 1_555 1_555
H4A C5A 1_555 1_555
C6A C5A 1_555 1_555
H5A C6A 1_555 1_555
C7A N2A 1_555 1_555
C8A N2A 1_555 1_555
C9A C8A 1_555 1_555
H6A C9A 1_555 1_555
C10A C9A 1_555 1_555
H7A C10A 1_555 1_555
C11A C10A 1_555 1_555
C12A C11A 1_555 1_555
H8A C12A 1_555 1_555
C13A C8A 1_555 1_555
H9A C13A 1_555 1_555
C14A C11A 1_555 1_555
C15A C15 1_555 1_555
H10A C15A 1_555 1_555
C16A C16 1_555 1_555
H11A C16A 1_555 1_555
O1A Cu1 1_555 1_555
O2A N3A 1_555 1_555
O3A N3A 1_555 1_555
C2 C7 1_555 1_555
C6 C7 1_555 1_555
C12 C13 1_555 1_555
C2A C7A 1_555 1_555
C6A C7A 1_555 1_555
C12A C13A 1_555 1_555
C14A C15A 1_555 1_555
C14A C16A 1_555 1_555

#END
