
#######################################################################
#
#                 Cambridge Crystallographic Data Centre
#                                CCDC 
#
#######################################################################
#
# If this CIF has been generated from an entry in the Cambridge 
# Structural Database, then it will include bibliographic, chemical, 
# crystal, experimental, refinement or atomic coordinate data resulting 
# from the CCDC's data processing and validation procedures.
#
#######################################################################

data_UQUVOS
_symmetry_cell_setting           monoclinic
_symmetry_space_group_name_H-M   'P 21/n'
_symmetry_Int_Tables_number      14
_space_group_name_Hall           '-P 2yn'
loop_
_symmetry_equiv_pos_site_id
_symmetry_equiv_pos_as_xyz
1 x,y,z
2 1/2-x,1/2+y,1/2-z
3 -x,-y,-z
4 1/2+x,1/2-y,1/2+z
_cell_length_a                   14.745(2)
_cell_length_b                   6.7960(12)
_cell_length_c                   15.183(3)
_cell_angle_alpha                90
_cell_angle_beta                 94.543(2)
_cell_angle_gamma                90
_cell_volume                     1516.66
loop_
_atom_site_label
_atom_site_type_symbol
_atom_site_fract_x
_atom_site_fract_y
_atom_site_fract_z
C1 C 0.3865(5) 0.7336(11) 0.2885(5)
C2 C 0.2896(5) 0.7366(11) 0.2512(5)
C3 C 0.2199(5) 0.7180(11) 0.3061(5)
H1 H 0.2334 0.7052 0.3667
C4 C 0.1296(5) 0.7180(11) 0.2720(5)
C5 C 0.0531(5) 0.6843(12) 0.3308(5)
C6 C 0.1136(4) 0.7328(10) 0.1806(5)
H2 H 0.0539 0.7242 0.1561
C7 C 0.1800(5) 0.7589(11) 0.1259(5)
C8 C 0.1573(5) 0.7876(13) 0.0286(5)
C9 C 0.2690(5) 0.7583(11) 0.1620(5)
H3 H 0.3160 0.7728 0.1251
O1 O 0.4494(4) 0.7356(9) 0.2381(4)
O2 O 0.4054(4) 0.7247(9) 0.3705(4)
O3 O 0.0741(4) 0.6348(9) 0.4086(3)
O4 O -0.0276(4) 0.7041(10) 0.2973(4)
O5 O 0.0728(4) 0.7813(10) 0.0033(4)
O6 O 0.2183(4) 0.8087(13) -0.0218(4)
O7 O 0.5996(4) 0.9590(10) 0.3383(4)
H4 H 0.6200 1.0116 0.2931
H5 H 0.5642 1.0416 0.3600
O8 O 0.6025(4) 0.4905(9) 0.3245(4)
H6 H 0.6226 0.4688 0.2739
H7 H 0.5518 0.4334 0.3252
O9 O 0.0151(4) 0.2213(10) 0.4358(4)
H8 H 0.0380 0.2934 0.3975
H9 H 0.0384 0.1073 0.4327
O10 O -0.1226(4) 0.5373(11) 0.4216(4)
H10 H -0.1203 0.6053 0.3750
H11 H -0.1606 0.5920 0.4533
Zn1 Zn 0.54125(6) 0.71412(16) 0.37644(6)
Zn2 Zn 0.0000 0.5000 0.5000
C1B C -0.3865(5) 0.2664(11) 0.7115(5)
C2B C -0.2896(5) 0.2634(11) 0.7488(5)
C3B C -0.2199(5) 0.2820(11) 0.6939(5)
H1B H -0.2334 0.2948 0.6333
C4B C -0.1296(5) 0.2820(11) 0.7280(5)
C5B C -0.0531(5) 0.3157(12) 0.6692(5)
C6B C -0.1136(4) 0.2672(10) 0.8194(5)
H2B H -0.0539 0.2758 0.8439
C7B C -0.1800(5) 0.2411(11) 0.8741(5)
C8B C -0.1573(5) 0.2124(13) 0.9714(5)
C9B C -0.2690(5) 0.2417(11) 0.8380(5)
H3B H -0.3160 0.2272 0.8749
O1B O -0.4494(4) 0.2644(9) 0.7619(4)
O2B O -0.4054(4) 0.2753(9) 0.6295(4)
O3B O -0.0741(4) 0.3652(9) 0.5914(3)
O4B O 0.0276(4) 0.2959(10) 0.7027(4)
O5B O -0.0728(4) 0.2187(10) 0.9967(4)
O5C O 0.5728(4) 0.7187(10) 0.5033(4)
O5A O -0.5728(4) 0.2813(10) 0.4967(4)
O6B O -0.2183(4) 0.1913(13) 1.0218(4)
O7B O -0.5996(4) 0.0410(10) 0.6617(4)
H4B H -0.6200 -0.0116 0.7069
H5B H -0.5642 -0.0416 0.6400
O8B O -0.6025(4) 0.5095(9) 0.6755(4)
H6B H -0.6226 0.5312 0.7261
H7B H -0.5518 0.5666 0.6748
O9B O -0.0151(4) 0.7787(10) 0.5642(4)
H8B H -0.0380 0.7066 0.6025
H9B H -0.0384 0.8927 0.5673
O10B O 0.1226(4) 0.4627(11) 0.5784(4)
H10B H 0.1203 0.3947 0.6250
H11B H 0.1606 0.4080 0.5467
Zn1B Zn -0.54125(6) 0.28588(16) 0.62356(6)
Zn1C Zn 0.04125(6) 0.78588(16) -0.12356(6)
Zn1A Zn -0.04125(6) 0.21412(16) 1.12356(6)
O11 O 0.6697(5) 0.2093(11) 0.4653(5)
H12 H 0.6465 0.2278 0.5141
H13 H 0.6894 0.3201 0.4485
O12 O 0.8488(7) 0.0366(15) 0.4616(8)
H14 H 0.8232 0.1311 0.4498
H15 H 0.8175 -0.0498 0.4851
loop_
_geom_bond_atom_site_label_1
_geom_bond_atom_site_label_2
_geom_bond_site_symmetry_1
_geom_bond_site_symmetry_2
C1 C2 1_555 1_555
C2 C3 1_555 1_555
C3 H1 1_555 1_555
C4 C3 1_555 1_555
C5 C4 1_555 1_555
C6 C4 1_555 1_555
H2 C6 1_555 1_555
C7 C6 1_555 1_555
C8 C7 1_555 1_555
C9 C2 1_555 1_555
H3 C9 1_555 1_555
O1 C1 1_555 1_555
O2 C1 1_555 1_555
O3 C5 1_555 1_555
O4 C5 1_555 1_555
O5 C8 1_555 1_555
O6 C8 1_555 1_555
O7 H4 1_555 1_555
H5 O7 1_555 1_555
O8 H6 1_555 1_555
H7 O8 1_555 1_555
O9 H8 1_555 1_555
H9 O9 1_555 1_555
O10 H10 1_555 1_555
H11 O10 1_555 1_555
O11 H12 1_555 1_555
H13 O11 1_555 1_555
O12 H14 1_555 1_555
H15 O12 1_555 1_555
Zn1 O1 1_555 1_555
Zn2 O3 1_555 1_555
C1B C2B 1_555 1_555
C2B C3B 1_555 1_555
C3B H1B 1_555 1_555
C4B C3B 1_555 1_555
C5B C4B 1_555 1_555
C6B C4B 1_555 1_555
H2B C6B 1_555 1_555
C7B C6B 1_555 1_555
C8B C7B 1_555 1_555
C9B C2B 1_555 1_555
H3B C9B 1_555 1_555
O1B C1B 1_555 1_555
O2B C1B 1_555 1_555
O3B Zn2 1_555 1_555
O4B C5B 1_555 1_555
O5B C8B 1_555 1_555
O5C Zn1 1_555 1_555
O5A Zn1B 1_555 1_555
O6B C8B 1_555 1_555
O7B H4B 1_555 1_555
H5B O7B 1_555 1_555
O8B H6B 1_555 1_555
H7B O8B 1_555 1_555
O9B Zn2 1_555 1_555
H8B O9B 1_555 1_555
H9B O9B 1_555 1_555
O10B Zn2 1_555 1_555
H10B O10B 1_555 1_555
H11B O10B 1_555 1_555
Zn1B O1B 1_555 1_555
Zn1C O5 1_555 1_555
Zn1A O5B 1_555 1_555
C7 C9 1_555 1_555
O2 Zn1 1_555 1_555
O7 Zn1 1_555 1_555
O8 Zn1 1_555 1_555
O9 Zn2 1_555 1_555
O10 Zn2 1_555 1_555
C5B O3B 1_555 1_555
C7B C9B 1_555 1_555
O2B Zn1B 1_555 1_555
O7B Zn1B 1_555 1_555
O8B Zn1B 1_555 1_555

#END
