
#######################################################################
#
#                 Cambridge Crystallographic Data Centre
#                                CCDC 
#
#######################################################################
#
# If this CIF has been generated from an entry in the Cambridge 
# Structural Database, then it will include bibliographic, chemical, 
# crystal, experimental, refinement or atomic coordinate data resulting 
# from the CCDC's data processing and validation procedures.
#
#######################################################################

data_UQUWIN
_symmetry_cell_setting           triclinic
_symmetry_space_group_name_H-M   'P -1'
_symmetry_Int_Tables_number      2
_space_group_name_Hall           '-P 1'
loop_
_symmetry_equiv_pos_site_id
_symmetry_equiv_pos_as_xyz
1 x,y,z
2 -x,-y,-z
_cell_length_a                   8.1389(8)
_cell_length_b                   9.8161(10)
_cell_length_c                   12.4823(13)
_cell_angle_alpha                79.512(2)
_cell_angle_beta                 85.036(2)
_cell_angle_gamma                88.202(2)
_cell_volume                     976.776
loop_
_atom_site_label
_atom_site_type_symbol
_atom_site_fract_x
_atom_site_fract_y
_atom_site_fract_z
Cu1 Cu 1.55686(3) 0.36696(3) -0.35707(2)
Cu2 Cu 1.49349(3) 0.14312(3) -0.05428(3)
Cl1 Cl 1.36557(7) -0.05058(6) -0.10452(5)
Cl2 Cl 1.68201(7) 0.25884(6) -0.18347(5)
Cl3 Cl 1.73952(7) 0.30031(7) -0.48213(5)
C1 C 1.5461(2) 0.6416(2) -0.30399(17)
N1 N 1.3676(2) 0.45418(18) -0.28869(14)
N2 N 0.7063(2) 0.75443(19) -0.00438(16)
N3 N 1.6479(2) 0.56020(19) -0.35802(14)
N4 N 1.3790(2) 0.22314(18) -0.35354(14)
C2 C 0.6913(3) 0.6349(2) -0.03817(19)
H1 H 0.5897 0.5916 -0.0239
C3 C 1.3850(2) 0.5788(2) -0.26284(17)
C4 C 1.2583(2) 0.6390(2) -0.20518(17)
H2 H 1.2726 0.7245 -0.1854
C5 C 0.9703(2) 0.6319(2) -0.11560(17)
C6 C 1.1082(2) 0.5698(2) -0.17696(17)
C7 C 1.2258(2) 0.3865(2) -0.26509(17)
C8 C 1.0923(2) 0.4424(2) -0.20962(17)
H3 H 0.9932 0.3953 -0.1944
C9 C 0.8168(3) 0.5709(2) -0.09312(19)
H4 H 0.7986 0.4874 -0.1150
C10 C 1.3975(3) 0.1044(2) -0.39099(19)
H5 H 1.4998 0.0830 -0.4237
C11 C 1.1213(3) 0.0430(3) -0.3336(2)
H6 H 1.0345 -0.0182 -0.3272
C12 C 1.7424(3) 0.8213(3) -0.3369(2)
H7 H 1.7740 0.9096 -0.3308
C13 C 1.0994(3) 0.1653(2) -0.2933(2)
H8 H 0.9982 0.1878 -0.2598
C14 C 1.2312(3) 0.2528(2) -0.30392(17)
C15 C 1.5898(3) 0.7716(2) -0.29147(19)
H9 H 1.5184 0.8251 -0.2532
C16 C 1.2717(3) 0.0125(3) -0.3832(2)
H10 H 1.2880 -0.0691 -0.4109
C17 C 0.9875(3) 0.7545(3) -0.0776(2)
H11 H 1.0887 0.7986 -0.0886
C18 C 1.7960(3) 0.6089(3) -0.40001(19)
H12 H 1.8670 0.5532 -0.4364
C19 C 1.8471(3) 0.7390(3) -0.3913(2)
H13 H 1.9504 0.7704 -0.4216
C20 C 0.8548(3) 0.8113(3) -0.0232(2)
H14 H 0.8700 0.8935 0.0014
Cu2A Cu 1.50651(3) -0.14312(3) 0.05428(3)
Cu2A_2 Cu 0.50651(3) 0.85688(3) 0.05428(3)
Cl1A Cl 1.63443(7) 0.05058(6) 0.10452(5)
N2A N 1.2937(2) 0.24557(19) 0.00438(16)
loop_
_geom_bond_atom_site_label_1
_geom_bond_atom_site_label_2
_geom_bond_site_symmetry_1
_geom_bond_site_symmetry_2
Cu1 Cl2 1_555 1_555
Cu2 Cl1 1_555 1_555
Cl1 Cu2A 1_555 1_555
Cl2 Cu2 1_555 1_555
Cl3 Cu1 1_555 1_555
C1 N3 1_555 1_555
N1 Cu1 1_555 1_555
N2 C2 1_555 1_555
N3 Cu1 1_555 1_555
N4 Cu1 1_555 1_555
C2 H1 1_555 1_555
C3 C1 1_555 1_555
C4 C3 1_555 1_555
H2 C4 1_555 1_555
C5 C6 1_555 1_555
C6 C4 1_555 1_555
C7 N1 1_555 1_555
C8 C6 1_555 1_555
H3 C8 1_555 1_555
C9 C2 1_555 1_555
H4 C9 1_555 1_555
C10 N4 1_555 1_555
H5 C10 1_555 1_555
C11 H6 1_555 1_555
C12 H7 1_555 1_555
C13 C11 1_555 1_555
H8 C13 1_555 1_555
C14 N4 1_555 1_555
C15 C1 1_555 1_555
H9 C15 1_555 1_555
C16 C10 1_555 1_555
H10 C16 1_555 1_555
C17 C5 1_555 1_555
H11 C17 1_555 1_555
C18 N3 1_555 1_555
H12 C18 1_555 1_555
C19 C12 1_555 1_555
H13 C19 1_555 1_555
C20 N2 1_555 1_555
H14 C20 1_555 1_555
Cu2A Cl1A 1_555 1_555
Cu2A_2 N2 1_555 1_555
Cl1A Cu2 1_555 1_555
N2A Cu2 1_555 1_555
N1 C3 1_555 1_555
C5 C9 1_555 1_555
C7 C8 1_555 1_555
C7 C14 1_555 1_555
C11 C16 1_555 1_555
C12 C15 1_555 1_555
C13 C14 1_555 1_555
C17 C20 1_555 1_555
C18 C19 1_555 1_555

#END
