
#######################################################################
#
#                 Cambridge Crystallographic Data Centre
#                                CCDC 
#
#######################################################################
#
# If this CIF has been generated from an entry in the Cambridge 
# Structural Database, then it will include bibliographic, chemical, 
# crystal, experimental, refinement or atomic coordinate data resulting 
# from the CCDC's data processing and validation procedures.
#
#######################################################################

data_UQUZOW
_symmetry_cell_setting           monoclinic
_symmetry_space_group_name_H-M   'C 2/c'
_symmetry_Int_Tables_number      15
_space_group_name_Hall           '-C 2yn'
loop_
_symmetry_equiv_pos_site_id
_symmetry_equiv_pos_as_xyz
1 x,y,z
2 -x,y,1/2-z
3 1/2+x,1/2+y,z
4 1/2-x,1/2+y,1/2-z
5 -x,-y,-z
6 x,-y,1/2+z
7 1/2-x,1/2-y,-z
8 1/2+x,1/2-y,1/2+z
_cell_length_a                   24.725(5)
_cell_length_b                   10.969(2)
_cell_length_c                   7.4196(15)
_cell_angle_alpha                90
_cell_angle_beta                 90.23(3)
_cell_angle_gamma                90
_cell_volume                     2012.24
loop_
_atom_site_label
_atom_site_type_symbol
_atom_site_fract_x
_atom_site_fract_y
_atom_site_fract_z
Ni1 Ni 0.2500 0.7500 1.0000
O1 O 0.22888(6) 0.64439(12) 0.78618(18)
O2 O 0.19168(7) 0.61015(14) 0.5190(2)
O3 O 0.29896(6) 0.86926(12) 0.85264(19)
H1 H 0.3027 0.9430 0.8884
H2 H 0.3001 0.8711 0.7403
N1 N 0.18044(6) 0.86186(14) 0.9633(2)
N2 N 0.04510(7) 1.19452(15) 0.8071(2)
N3 N 0.0000 1.0076(2) 0.7500
N4 N 0.0000 1.6408(2) 0.7500
C1 C 0.13264(8) 0.81007(18) 0.9265(3)
H3 H 0.1299 0.7257 0.9355
C2 C 0.08733(8) 0.87491(18) 0.8760(3)
H4 H 0.0551 0.8349 0.8495
C3 C 0.09060(8) 1.00126(18) 0.8654(3)
C4 C 0.13930(8) 1.05662(18) 0.9086(3)
H5 H 0.1427 1.1410 0.9053
C5 C 0.18282(8) 0.98373(18) 0.9569(3)
H6 H 0.2154 1.0215 0.9864
C6 C 0.04255(8) 1.07256(18) 0.8045(3)
C7 C 0.0000 1.2503(3) 0.7500
C8 C 0.0000 1.3860(3) 0.7500
C9 C -0.04675(9) 1.4505(2) 0.7877(3)
H7 H -0.0791 1.4101 0.8097
C10 C -0.04418(10) 1.5768(2) 0.7918(4)
H8 H -0.0750 1.6194 0.8257
C11 C 0.20837(8) 0.67816(19) 0.6412(3)
H9 H 0.2052 0.7617 0.6226
Ni1A Ni -0.2500 0.7500 0.5000
O1F O 0.27112(6) 0.85561(12) 1.21382(18)
O2F O 0.30832(7) 0.88985(14) 1.4810(2)
O3F O 0.20104(6) 0.63074(12) 1.14736(19)
H1F H 0.1973 0.5570 1.1116
H2F H 0.1999 0.6289 1.2597
N1A N -0.18044(6) 0.86186(14) 0.5367(2)
N1F N 0.31956(6) 0.63814(14) 1.0367(2)
N2A N -0.04510(7) 1.19452(15) 0.6929(2)
C1A C -0.13264(8) 0.81007(18) 0.5735(3)
H3A H -0.1299 0.7257 0.5645
C2A C -0.08733(8) 0.87491(18) 0.6240(3)
H4A H -0.0551 0.8349 0.6505
C3A C -0.09060(8) 1.00126(18) 0.6346(3)
C4A C -0.13930(8) 1.05662(18) 0.5914(3)
H5A H -0.1427 1.1410 0.5947
C5A C -0.18282(8) 0.98373(18) 0.5431(3)
H6A H -0.2154 1.0215 0.5136
C6A C -0.04255(8) 1.07256(18) 0.6955(3)
C9A C 0.04675(9) 1.4505(2) 0.7123(3)
H7A H 0.0791 1.4101 0.6903
C10A C 0.04418(10) 1.5768(2) 0.7082(4)
H8A H 0.0750 1.6194 0.6743
C11F C 0.29163(8) 0.82184(19) 1.3588(3)
H9F H 0.2948 0.7383 1.3774
loop_
_geom_bond_atom_site_label_1
_geom_bond_atom_site_label_2
_geom_bond_site_symmetry_1
_geom_bond_site_symmetry_2
Ni1 O1 1_555 1_555
O1 C11 1_555 1_555
O2 C11 1_555 1_555
O3 Ni1 1_555 1_555
H1 O3 1_555 1_555
H2 O3 1_555 1_555
N1 Ni1 1_555 1_555
N2 C6 1_555 1_555
N3 C6 1_555 1_555
N4 C10 1_555 1_555
C1 N1 1_555 1_555
H3 C1 1_555 1_555
C2 C1 1_555 1_555
H4 C2 1_555 1_555
C3 C2 1_555 1_555
C4 C3 1_555 1_555
H5 C4 1_555 1_555
C5 N1 1_555 1_555
H6 C5 1_555 1_555
C6 C3 1_555 1_555
C7 N2 1_555 1_555
C8 C7 1_555 1_555
C9 C8 1_555 1_555
H7 C9 1_555 1_555
C10 C9 1_555 1_555
H8 C10 1_555 1_555
C11 H9 1_555 1_555
Ni1A N1A 1_555 1_555
O1F Ni1 1_555 1_555
O2F C11F 1_555 1_555
O3F Ni1 1_555 1_555
H1F O3F 1_555 1_555
H2F O3F 1_555 1_555
N1A C1A 1_555 1_555
N1F Ni1 1_555 1_555
N2A C7 1_555 1_555
C1A H3A 1_555 1_555
C2A C1A 1_555 1_555
H4A C2A 1_555 1_555
C3A C2A 1_555 1_555
C4A C3A 1_555 1_555
H5A C4A 1_555 1_555
C5A N1A 1_555 1_555
H6A C5A 1_555 1_555
C6A N3 1_555 1_555
C9A C8 1_555 1_555
H7A C9A 1_555 1_555
C10A N4 1_555 1_555
H8A C10A 1_555 1_555
C11F O1F 1_555 1_555
H9F C11F 1_555 1_555
C4 C5 1_555 1_555
N2A C6A 1_555 1_555
C3A C6A 1_555 1_555
C4A C5A 1_555 1_555
C9A C10A 1_555 1_555

#END
