
#######################################################################
#
#                 Cambridge Crystallographic Data Centre
#                                CCDC 
#
#######################################################################
#
# If this CIF has been generated from an entry in the Cambridge 
# Structural Database, then it will include bibliographic, chemical, 
# crystal, experimental, refinement or atomic coordinate data resulting 
# from the CCDC's data processing and validation procedures.
#
#######################################################################

data_URIMEO
_symmetry_cell_setting           triclinic
_symmetry_space_group_name_H-M   'P -1'
_symmetry_Int_Tables_number      2
_space_group_name_Hall           '-P 1'
loop_
_symmetry_equiv_pos_site_id
_symmetry_equiv_pos_as_xyz
1 x,y,z
2 -x,-y,-z
_cell_length_a                   8.9737(16)
_cell_length_b                   9.5611(17)
_cell_length_c                   10.2944(18)
_cell_angle_alpha                91.014(3)
_cell_angle_beta                 101.855(3)
_cell_angle_gamma                109.213(3)
_cell_volume                     812.774
loop_
_atom_site_label
_atom_site_type_symbol
_atom_site_fract_x
_atom_site_fract_y
_atom_site_fract_z
Pb1 Pb 0.06330(4) 0.44411(3) 1.21466(3)
Pb2 Pb 0.30107(4) 0.46405(3) 0.64424(3)
P1 P 0.2178(3) 0.4304(2) 0.9541(2)
P2 P 0.1325(3) -0.2997(2) 0.4786(2)
N1 N 0.2959(8) 0.2216(7) 0.8164(7)
N2 N 0.2827(8) -0.0330(7) 0.6497(6)
N3 N 0.3244(11) 0.2532(11) 1.3175(9)
O1 O 0.2713(8) 0.5023(7) 1.0966(6)
O2 O 0.2922(8) 0.5385(6) 0.8551(6)
O3 O -0.0355(8) -0.2910(7) 0.4299(7)
O4 O 0.1494(8) -0.3744(6) 0.6083(6)
O5 O 0.1986(8) -0.3607(7) 0.3740(6)
O6 O 0.0332(7) 0.3710(7) 0.9059(7)
O7 O 0.3205(11) 0.3679(9) 1.3695(8)
O8 O 0.4534(12) 0.2297(11) 1.3180(12)
O9 O 0.1924(11) 0.1553(10) 1.2560(11)
C1 C 0.4330(10) 0.1000(9) 0.6863(9)
H1 H 0.4342 0.1685 0.6178
H2 H 0.5275 0.0700 0.6936
C2 C 0.4375(10) 0.1771(9) 0.8210(9)
H3 H 0.4428 0.1097 0.8897
H4 H 0.5346 0.2643 0.8446
C3 C 0.1375(10) 0.0114(9) 0.6462(8)
H5 H 0.0409 -0.0764 0.6262
H6 H 0.1289 0.0765 0.5760
C4 C 0.1485(10) 0.0907(9) 0.7784(8)
H7 H 0.0546 0.1213 0.7723
H8 H 0.1474 0.0224 0.8470
C5 C 0.3076(11) 0.2862(9) 0.9520(8)
H9 H 0.4209 0.3273 0.9972
H10 H 0.2548 0.2070 1.0020
C6 C 0.2754(11) -0.1106(8) 0.5172(8)
H11 H 0.3826 -0.1126 0.5165
H12 H 0.2477 -0.0515 0.4466
H17 H 0.305(7) -0.078(5) 0.719(5)
Pb1A Pb -0.06330(4) -0.44411(3) 0.78534(3)
Pb1_2 Pb 0.06330(4) -0.55589(3) 0.21466(3)
Pb1A_2 Pb -0.06330(4) 0.55589(3) 0.78534(3)
Pb2A Pb -0.30107(4) -0.46405(3) 0.35576(3)
Pb2_2 Pb 0.30107(4) -0.53595(3) 0.64424(3)
O3A O 0.0355(8) 0.2910(7) 0.5701(7)
O4A O -0.1494(8) 0.3744(6) 1.3917(6)
O4_2 O 0.1494(8) 0.6256(6) 0.6083(6)
O5_2 O 0.1986(8) 0.6393(7) 1.3740(6)
O6A O -0.0332(7) 0.6290(7) 1.0941(7)
O10 O 0.2989(12) 0.8242(9) 0.8760(7)
H13 H 0.3391 0.7393 0.8839
H14 H 0.2938 0.8760 0.9394
O11 O 0.7813(11) 0.1017(10) 0.8944(10)
H15 H 0.8171 0.0353 0.8725
H16 H 0.8568 0.1708 0.9680
loop_
_geom_bond_atom_site_label_1
_geom_bond_atom_site_label_2
_geom_bond_site_symmetry_1
_geom_bond_site_symmetry_2
Pb1 O1 1_555 1_555
Pb2 O2 1_555 1_555
P1 O1 1_555 1_555
P2 O3 1_555 1_555
N1 C2 1_555 1_555
N2 C1 1_555 1_555
N3 O7 1_555 1_555
O2 P1 1_555 1_555
O3 Pb2A 1_555 1_555
O4 P2 1_555 1_555
O5 P2 1_555 1_555
O6 P1 1_555 1_555
O7 Pb1 1_555 1_555
O8 N3 1_555 1_555
O9 N3 1_555 1_555
C1 H1 1_555 1_555
H2 C1 1_555 1_555
C2 C1 1_555 1_555
H3 C2 1_555 1_555
H4 C2 1_555 1_555
C3 N2 1_555 1_555
H5 C3 1_555 1_555
H6 C3 1_555 1_555
C4 N1 1_555 1_555
H7 C4 1_555 1_555
H8 C4 1_555 1_555
C5 P1 1_555 1_555
H9 C5 1_555 1_555
H10 C5 1_555 1_555
C6 P2 1_555 1_555
H11 C6 1_555 1_555
H12 C6 1_555 1_555
O10 H13 1_555 1_555
H14 O10 1_555 1_555
O11 H15 1_555 1_555
H16 O11 1_555 1_555
H17 N2 1_555 1_555
Pb1A O4 1_555 1_555
Pb1_2 O5 1_555 1_555
Pb1A_2 O6 1_555 1_555
Pb2_2 O4 1_555 1_555
O3A Pb2 1_555 1_555
O4A Pb1 1_555 1_555
O4_2 Pb2 1_555 1_555
O5_2 Pb1 1_555 1_555
O6A Pb1 1_555 1_555
N1 C5 1_555 1_555
N2 C6 1_555 1_555
C3 C4 1_555 1_555
Pb1A_2 O4_2 1_555 1_555

#END
