
#######################################################################
#
#                 Cambridge Crystallographic Data Centre
#                                CCDC 
#
#######################################################################
#
# If this CIF has been generated from an entry in the Cambridge 
# Structural Database, then it will include bibliographic, chemical, 
# crystal, experimental, refinement or atomic coordinate data resulting 
# from the CCDC's data processing and validation procedures.
#
#######################################################################

data_URIWIC
_symmetry_cell_setting           monoclinic
_symmetry_space_group_name_H-M   'P 21/c'
_symmetry_Int_Tables_number      14
_space_group_name_Hall           '-P 2ybc'
loop_
_symmetry_equiv_pos_site_id
_symmetry_equiv_pos_as_xyz
1 x,y,z
2 -x,1/2+y,1/2-z
3 -x,-y,-z
4 x,1/2-y,1/2+z
_cell_length_a                   9.9880(2)
_cell_length_b                   14.5085(2)
_cell_length_c                   11.6957(2)
_cell_angle_alpha                90
_cell_angle_beta                 107.976(2)
_cell_angle_gamma                90
_cell_volume                     1612.1
loop_
_atom_site_label
_atom_site_type_symbol
_atom_site_fract_x
_atom_site_fract_y
_atom_site_fract_z
Cd1 Cd 0.84846(2) 0.159179(13) 0.139322(18)
N1 N 0.6420(3) 0.14551(15) 0.1940(2)
N2 N 0.6585(3) 0.13178(16) -0.0318(2)
O1 O 1.1293(3) 0.15339(13) 0.50848(19)
O2 O 0.9754(2) 0.20072(12) 0.33745(17)
O3 O 0.8859(2) -0.05596(12) 0.07226(16)
O4 O 1.0353(3) 0.18008(15) 0.0702(2)
N3 N 0.9640(2) 0.03568(14) 0.23571(18)
C1 C 1.0546(3) 0.14048(18) 0.4040(3)
C2 C 0.9570(3) -0.04520(17) 0.1793(2)
C3 C 1.1333(3) -0.02513(18) 0.4124(2)
H1 H 1.1958 -0.0150 0.4911
C4 C 0.6396(4) 0.1489(2) 0.3073(3)
H2 H 0.7260 0.1575 0.3695
C5 C 1.0520(3) 0.04464(17) 0.3496(2)
C6 C 0.6719(4) 0.1263(3) -0.1418(3)
H3 H 0.7635 0.1284 -0.1501
C7 C 0.5189(4) 0.1408(2) 0.3380(3)
H4 H 0.5214 0.1426 0.4199
C8 C 0.5206(3) 0.13338(19) 0.1054(3)
C9 C 0.5297(3) 0.12858(19) -0.0194(3)
C10 C 0.5577(4) 0.1175(3) -0.2436(3)
H5 H 0.5705 0.1134 -0.3206
C11 C 0.3952(4) 0.1300(3) 0.2490(3)
H6 H 0.3092 0.1262 0.2674
C12 C 0.4116(4) 0.1197(3) -0.1188(3)
H7 H 0.3206 0.1169 -0.1093
N4 N 1.0317(2) -0.11864(15) 0.24335(19)
H8 H 1.0199 -0.1729 0.2080
C13 C 1.1227(3) -0.11325(19) 0.3578(2)
C14 C 0.3960(4) 0.1247(3) 0.1308(3)
H9 H 0.3106 0.1151 0.0678
C15 C 0.4270(4) 0.1149(3) -0.2322(3)
H10 H 0.3466 0.1098 -0.3013
O5 O 1.1909(2) -0.18373(12) 0.40591(18)
H11 H 1.063(4) 0.2361(12) 0.056(3)
H12 H 1.060(3) 0.1369(16) 0.027(3)
Cd1A Cd 1.15154(2) -0.340821(13) 0.360678(18)
O5A O 0.8091(2) 0.31627(12) 0.09409(18)
loop_
_geom_bond_atom_site_label_1
_geom_bond_atom_site_label_2
_geom_bond_site_symmetry_1
_geom_bond_site_symmetry_2
Cd1 N1 1_555 1_555
N1 C4 1_555 1_555
N2 Cd1 1_555 1_555
O1 C1 1_555 1_555
O2 Cd1 1_555 1_555
O3 C2 1_555 1_555
O4 Cd1 1_555 1_555
N3 Cd1 1_555 1_555
C1 O2 1_555 1_555
C2 N3 1_555 1_555
C3 H1 1_555 1_555
C4 H2 1_555 1_555
C5 N3 1_555 1_555
C6 N2 1_555 1_555
H3 C6 1_555 1_555
C7 C4 1_555 1_555
H4 C7 1_555 1_555
C8 N1 1_555 1_555
C9 N2 1_555 1_555
C10 C6 1_555 1_555
H5 C10 1_555 1_555
C11 C7 1_555 1_555
H6 C11 1_555 1_555
C12 C9 1_555 1_555
H7 C12 1_555 1_555
N4 C2 1_555 1_555
H8 N4 1_555 1_555
C13 C3 1_555 1_555
C14 C8 1_555 1_555
H9 C14 1_555 1_555
C15 C10 1_555 1_555
H10 C15 1_555 1_555
O5 C13 1_555 1_555
H11 O4 1_555 1_555
H12 O4 1_555 1_555
Cd1A O5 1_555 1_555
O5A Cd1 1_555 1_555
C1 C5 1_555 1_555
C3 C5 1_555 1_555
C8 C9 1_555 1_555
C11 C14 1_555 1_555
C12 C15 1_555 1_555
N4 C13 1_555 1_555

#END
