
#######################################################################
#
#                 Cambridge Crystallographic Data Centre
#                                CCDC 
#
#######################################################################
#
# If this CIF has been generated from an entry in the Cambridge 
# Structural Database, then it will include bibliographic, chemical, 
# crystal, experimental, refinement or atomic coordinate data resulting 
# from the CCDC's data processing and validation procedures.
#
#######################################################################

data_USATAK
_symmetry_cell_setting           triclinic
_symmetry_space_group_name_H-M   'P -1'
_symmetry_Int_Tables_number      2
_space_group_name_Hall           '-P 1'
loop_
_symmetry_equiv_pos_site_id
_symmetry_equiv_pos_as_xyz
1 x,y,z
2 -x,-y,-z
_cell_length_a                   9.1989(18)
_cell_length_b                   9.3074(19)
_cell_length_c                   11.665(2)
_cell_angle_alpha                92.37(3)
_cell_angle_beta                 109.46(3)
_cell_angle_gamma                112.98(3)
_cell_volume                     849.877
loop_
_atom_site_label
_atom_site_type_symbol
_atom_site_fract_x
_atom_site_fract_y
_atom_site_fract_z
Sr1 Sr -0.22555(3) 0.50657(3) 0.06589(2)
O1 O -0.3299(2) 0.4521(2) -0.17919(15)
N1 N -0.4280(3) 0.3590(3) -0.41077(19)
C1 C -0.3205(3) 0.3708(3) -0.5522(2)
Cu1 Cu -0.56389(4) 0.32588(4) -0.31284(3)
O2 O -0.0570(2) 0.5184(2) -0.14196(17)
N2 N -0.4661(3) 0.3220(3) -0.53117(18)
C2 C -0.1823(3) 0.4427(3) -0.4393(2)
H1 H -0.0666 0.4876 -0.4254
Cu2 Cu -0.67650(4) 0.19800(4) -0.66878(3)
O3 O -0.5159(2) 0.2600(2) -0.75642(16)
N3 N -0.2247(3) 0.7675(3) 0.45496(18)
C3 C -0.2575(3) 0.4317(3) -0.3524(2)
O4 O -0.2411(2) 0.3795(2) -0.72862(16)
N4 N -0.1860(3) 0.8117(3) 0.57445(18)
C4 C -0.3550(3) 0.3360(3) -0.6878(2)
O5 O -0.2753(2) 0.6739(2) 0.23237(15)
C5 C -0.2047(3) 0.4728(3) -0.2150(2)
O6 O -0.0027(2) 0.7393(2) 0.26956(16)
C6 C -0.0174(3) 0.8597(3) 0.6348(2)
O7 O -0.0853(2) 0.8907(2) 0.80732(15)
C7 C 0.0559(3) 0.8454(3) 0.5507(2)
H2 H 0.1698 0.8700 0.5663
O8 O 0.1898(2) 0.9681(2) 0.84004(16)
C8 C -0.0821(3) 0.7856(3) 0.4377(2)
O9 O -0.0404(3) 0.7859(2) 0.02869(17)
H3 H -0.0666 0.8133 -0.0412
H4 H -0.0068 0.8606 0.0892
C9 C 0.0377(3) 0.9108(3) 0.7707(2)
O10 O -0.2677(2) 0.2164(2) -0.01594(18)
H5 H -0.2621 0.1634 0.0417
H6 H -0.1744 0.2280 -0.0220
C10 C -0.1161(3) 0.7322(3) 0.3061(2)
O11 O -0.4433(3) 0.6700(2) -0.01743(17)
H7 H -0.3883 0.7504 0.0419
H8 H -0.4449 0.7119 -0.0809
O12 O -0.5463(2) 0.1047(2) -0.24173(18)
H9 H -0.6352 0.0512 -0.2276
H10 H -0.4576 0.1305 -0.1763
O13 O -0.6685(3) -0.0351(3) -0.6482(3)
H11 H -0.7633 -0.1162 -0.6674
H12 H -0.6028 -0.0613 -0.6720
Sr1A Sr 0.22555(3) 0.49343(3) -0.06589(2)
Sr1_2 Sr -0.22555(3) 0.50657(3) -0.93411(2)
Sr1A_2 Sr -0.77445(3) 0.49343(3) -0.06589(2)
Cu1A Cu -0.43611(4) 0.67412(4) 0.31284(3)
O2A O 0.0570(2) 0.4816(2) 0.14196(17)
Cu2A Cu -0.32350(4) 0.80200(4) 0.66878(3)
N3A N -0.7753(3) 0.2325(3) -0.45496(18)
O4_2 O -0.2411(2) 0.3795(2) 0.27138(16)
N4A N -0.8140(3) 0.1883(3) -0.57445(18)
O5A O -0.7247(2) 0.3261(2) -0.23237(15)
O7A O -0.9147(2) 0.1093(2) -0.80732(15)
O11A O -0.5567(3) 0.3300(2) 0.01743(17)
H7A H -0.6117 0.2496 -0.0419
H8A H -0.5551 0.2881 0.0809
loop_
_geom_bond_atom_site_label_1
_geom_bond_atom_site_label_2
_geom_bond_site_symmetry_1
_geom_bond_site_symmetry_2
Sr1 O1 1_555 1_555
O1 Cu1 1_555 1_555
N1 Cu1 1_555 1_555
C1 N2 1_555 1_555
Cu1 O12 1_555 1_555
O2 C5 1_555 1_555
N2 N1 1_555 1_555
C2 C1 1_555 1_555
H1 C2 1_555 1_555
Cu2 N2 1_555 1_555
O3 Cu2 1_555 1_555
N3 N4 1_555 1_555
C3 N1 1_555 1_555
O4 C4 1_555 1_555
N4 C6 1_555 1_555
C4 C1 1_555 1_555
O5 Sr1 1_555 1_555
C5 O1 1_555 1_555
O6 Sr1 1_555 1_555
C6 C7 1_555 1_555
O7 C9 1_555 1_555
C7 H2 1_555 1_555
O8 C9 1_555 1_555
C8 N3 1_555 1_555
O9 Sr1 1_555 1_555
H3 O9 1_555 1_555
H4 O9 1_555 1_555
C9 C6 1_555 1_555
O10 Sr1 1_555 1_555
H5 O10 1_555 1_555
H6 O10 1_555 1_555
C10 O5 1_555 1_555
O11 Sr1 1_555 1_555
H7 O11 1_555 1_555
H8 O11 1_555 1_555
O12 H9 1_555 1_555
H10 O12 1_555 1_555
O13 Cu2 1_555 1_555
H11 O13 1_555 1_555
H12 O13 1_555 1_555
Sr1A O2 1_555 1_555
Sr1_2 O4 1_555 1_555
Sr1A_2 O11 1_555 1_555
Cu1A N3 1_555 1_555
O2A Sr1 1_555 1_555
Cu2A N4 1_555 1_555
N3A Cu1 1_555 1_555
O4_2 Sr1 1_555 1_555
N4A Cu2 1_555 1_555
O5A Cu1 1_555 1_555
O7A Cu2 1_555 1_555
O11A Sr1 1_555 1_555
H7A O11A 1_555 1_555
H8A O11A 1_555 1_555
C2 C3 1_555 1_555
O3 C4 1_555 1_555
C3 C5 1_555 1_555
O5 Cu1A 1_555 1_555
O6 C10 1_555 1_555
O7 Cu2A 1_555 1_555
C7 C8 1_555 1_555
C8 C10 1_555 1_555
Sr1A_2 O5A 1_555 1_555
Sr1A_2 O11A 1_555 1_555
N3A N4A 1_555 1_555

#END
