
#######################################################################
#
#                 Cambridge Crystallographic Data Centre
#                                CCDC 
#
#######################################################################
#
# If this CIF has been generated from an entry in the Cambridge 
# Structural Database, then it will include bibliographic, chemical, 
# crystal, experimental, refinement or atomic coordinate data resulting 
# from the CCDC's data processing and validation procedures.
#
#######################################################################

data_USAWOB
_symmetry_cell_setting           monoclinic
_symmetry_space_group_name_H-M   'C 2/c'
_symmetry_Int_Tables_number      15
_space_group_name_Hall           '-C 2yn'
loop_
_symmetry_equiv_pos_site_id
_symmetry_equiv_pos_as_xyz
1 x,y,z
2 -x,y,1/2-z
3 1/2+x,1/2+y,z
4 1/2-x,1/2+y,1/2-z
5 -x,-y,-z
6 x,-y,1/2+z
7 1/2-x,1/2-y,-z
8 1/2+x,1/2-y,1/2+z
_cell_length_a                   26.592(10)
_cell_length_b                   9.229(3)
_cell_length_c                   10.178(4)
_cell_angle_alpha                90
_cell_angle_beta                 103.289(5)
_cell_angle_gamma                90
_cell_volume                     2430.97
loop_
_atom_site_label
_atom_site_type_symbol
_atom_site_fract_x
_atom_site_fract_y
_atom_site_fract_z
Zn1 Zn 0.20765(3) 0.34650(8) 0.64962(7)
P1 P 0.26801(6) 0.48243(19) 0.41960(15)
O1 O 0.28168(17) 0.3631(5) 0.3324(4)
O2 O 0.24807(16) 0.4322(5) 0.5385(4)
O3 O 0.23449(17) 0.5970(5) 0.3385(4)
O4 O 0.13714(18) 0.4056(6) 0.5797(5)
O5 O 0.0989(2) 0.2849(6) 0.7220(5)
N1 N 0.3260(3) 0.6556(8) 0.6028(7)
H1 H 0.3020 0.7224 0.5681
H2 H 0.3132 0.6022 0.6615
H3 H 0.3538 0.7033 0.6506
C1 C 0.3296(3) 0.5673(10) 0.4988(7)
H4 H 0.3496 0.4856 0.5451
C2 C 0.3627(3) 0.6205(8) 0.4086(6)
C3 C 0.3485(3) 0.7374(9) 0.3219(7)
H5 H 0.3165 0.7868 0.3197
C4 C 0.4075(3) 0.5471(9) 0.4067(8)
H6 H 0.4175 0.4638 0.4632
C5 C 0.4381(3) 0.5935(11) 0.3229(10)
H7 H 0.4701 0.5446 0.3240
C6 C 0.4244(4) 0.7072(11) 0.2388(8)
H8 H 0.4454 0.7353 0.1818
C7 C 0.3797(3) 0.7810(9) 0.2373(7)
H9 H 0.3702 0.8632 0.1791
C8 C 0.0982(3) 0.3679(8) 0.6255(7)
C9 C 0.0476(2) 0.4365(8) 0.5577(7)
C10 C 0.0454(3) 0.5578(8) 0.4756(7)
H10 H 0.0607 0.5337 0.4016
C11 C 0.0021(3) 0.3832(8) 0.5850(7)
H11 H -0.0015 0.2835 0.5576
Zn1D Zn -0.20765(3) 0.65350(8) 0.35038(7)
Zn1A Zn -0.20765(3) 0.34650(8) 0.85038(7)
Zn1B Zn -0.29235(3) 0.84650(8) 0.64962(7)
Zn1E Zn 0.20765(3) 0.65350(8) 0.14962(7)
Zn1F Zn 0.29235(3) 0.15350(8) 0.35038(7)
P1D P -0.26801(6) 0.51757(19) 0.58040(15)
O1D O -0.28168(17) 0.6369(5) 0.6676(4)
O1B O -0.21832(17) 0.8631(5) 0.3324(4)
O1F O 0.21832(17) 0.1369(5) 0.6676(4)
O2D O -0.24807(16) 0.5678(5) 0.4615(4)
O3D O -0.23449(17) 0.4030(5) 0.6615(4)
O3A O -0.23449(17) 0.5970(5) 0.1615(4)
O3E O 0.23449(17) 0.4030(5) 0.8385(4)
O4D O -0.13714(18) 0.5944(6) 0.4203(5)
O5D O -0.0989(2) 0.7151(6) 0.2780(5)
N1D N -0.3260(3) 0.3444(8) 0.3972(7)
H1D H -0.3020 0.2776 0.4319
H2D H -0.3132 0.3978 0.3385
H3D H -0.3538 0.2967 0.3494
C1D C -0.3296(3) 0.4327(10) 0.5012(7)
H4D H -0.3496 0.5144 0.4549
C2D C -0.3627(3) 0.3795(8) 0.5914(6)
C3D C -0.3485(3) 0.2626(9) 0.6781(7)
H5D H -0.3165 0.2132 0.6803
C4D C -0.4075(3) 0.4529(9) 0.5933(8)
H6D H -0.4175 0.5362 0.5368
C5D C -0.4381(3) 0.4065(11) 0.6771(10)
H7D H -0.4701 0.4554 0.6760
C6D C -0.4244(4) 0.2928(11) 0.7612(8)
H8D H -0.4454 0.2647 0.8182
C7D C -0.3797(3) 0.2190(9) 0.7627(7)
H9D H -0.3702 0.1368 0.8209
C8D C -0.0982(3) 0.6321(8) 0.3745(7)
C9D C -0.0476(2) 0.5635(8) 0.4423(7)
C10D C -0.0454(3) 0.4422(8) 0.5244(7)
H10D H -0.0607 0.4663 0.5984
C11D C -0.0021(3) 0.6168(8) 0.4150(7)
H11D H 0.0015 0.7165 0.4424
loop_
_geom_bond_atom_site_label_1
_geom_bond_atom_site_label_2
_geom_bond_site_symmetry_1
_geom_bond_site_symmetry_2
Zn1 O2 1_555 1_555
P1 O1 1_555 1_555
O1 Zn1F 1_555 1_555
O2 P1 1_555 1_555
O3 P1 1_555 1_555
O4 Zn1 1_555 1_555
O5 C8 1_555 1_555
N1 H1 1_555 1_555
H2 N1 1_555 1_555
H3 N1 1_555 1_555
C1 P1 1_555 1_555
H4 C1 1_555 1_555
C2 C1 1_555 1_555
C3 C2 1_555 1_555
H5 C3 1_555 1_555
C4 C2 1_555 1_555
H6 C4 1_555 1_555
C5 C4 1_555 1_555
H7 C5 1_555 1_555
C6 C5 1_555 1_555
H8 C6 1_555 1_555
C7 C3 1_555 1_555
H9 C7 1_555 1_555
C8 O4 1_555 1_555
C9 C8 1_555 1_555
C10 C9 1_555 1_555
H10 C10 1_555 1_555
C11 C9 1_555 1_555
H11 C11 1_555 1_555
Zn1D O1B 1_555 1_555
Zn1A O3D 1_555 1_555
Zn1B O1D 1_555 1_555
Zn1E O3 1_555 1_555
P1D O1D 1_555 1_555
O1F Zn1 1_555 1_555
O2D Zn1D 1_555 1_555
O3D P1D 1_555 1_555
O3A Zn1D 1_555 1_555
O3E Zn1 1_555 1_555
O4D Zn1D 1_555 1_555
O5D C8D 1_555 1_555
N1D H1D 1_555 1_555
H2D N1D 1_555 1_555
H3D N1D 1_555 1_555
C1D P1D 1_555 1_555
H4D C1D 1_555 1_555
C2D C1D 1_555 1_555
C3D C2D 1_555 1_555
H5D C3D 1_555 1_555
C4D C2D 1_555 1_555
H6D C4D 1_555 1_555
C5D C4D 1_555 1_555
H7D C5D 1_555 1_555
C6D C5D 1_555 1_555
H8D C6D 1_555 1_555
C7D C3D 1_555 1_555
H9D C7D 1_555 1_555
C8D O4D 1_555 1_555
C9D C8D 1_555 1_555
C10D C11 1_555 1_555
H10D C10D 1_555 1_555
C11D C10 1_555 1_555
H11D C11D 1_555 1_555
N1 C1 1_555 1_555
C6 C7 1_555 1_555
P1D O2D 1_555 1_555
N1D C1D 1_555 1_555
C6D C7D 1_555 1_555
C9D C10D 1_555 1_555
C9D C11D 1_555 1_555

#END
