
#######################################################################
#
#                 Cambridge Crystallographic Data Centre
#                                CCDC 
#
#######################################################################
#
# If this CIF has been generated from an entry in the Cambridge 
# Structural Database, then it will include bibliographic, chemical, 
# crystal, experimental, refinement or atomic coordinate data resulting 
# from the CCDC's data processing and validation procedures.
#
#######################################################################

data_USEBAW
_symmetry_cell_setting           monoclinic
_symmetry_space_group_name_H-M   'C 2/c'
_symmetry_Int_Tables_number      15
_space_group_name_Hall           '-C 2yn'
loop_
_symmetry_equiv_pos_site_id
_symmetry_equiv_pos_as_xyz
1 x,y,z
2 1/2+x,1/2+y,z
3 -x,y,1/2-z
4 1/2-x,1/2+y,1/2-z
5 -x,-y,-z
6 1/2-x,1/2-y,-z
7 x,-y,1/2+z
8 1/2+x,1/2-y,1/2+z
_cell_length_a                   11.6054(7)
_cell_length_b                   4.7405(2)
_cell_length_c                   17.6281(15)
_cell_angle_alpha                90
_cell_angle_beta                 116.713(3)
_cell_angle_gamma                90
_cell_volume                     866.308
loop_
_atom_site_label
_atom_site_type_symbol
_atom_site_fract_x
_atom_site_fract_y
_atom_site_fract_z
Zn1 Zn 0.50000 0.1886(14) 0.25000
Cl1 Cl 0.4067(7) 0.4600(15) 0.3113(5)
N1 N 0.36095 -0.06710 0.15462
C1 C 0.30404 0.09556 0.07530
C2 C 0.21197 0.30204 0.06327
C3 C 0.34207 0.04351 0.01199
H1 H 0.29594 -0.11892 0.17057
H2 H 0.40043 -0.23274 0.14706
H3 H 0.18198 0.34323 0.11318
H4 H 0.41464 -0.11926 0.02149
Zn1G Zn 0.00000 0.3114(14) -0.25000
Cl1B Cl 0.5933(7) 0.4600(15) 0.1887(5)
N1E N 0.13905 0.56710 -0.15462
N1B N 0.63905 -0.06710 0.34538
C1E C 0.19596 0.40444 -0.07530
C2E C 0.28803 0.19796 -0.06327
C3E C 0.15793 0.45649 -0.01199
H1E H 0.20406 0.61892 -0.17057
H1B H 0.70406 -0.11892 0.32943
H2E H 0.09957 0.73274 -0.14706
H2B H 0.59957 -0.23274 0.35294
H3E H 0.31802 0.15677 -0.11318
H4E H 0.08536 0.61926 -0.02149
loop_
_geom_bond_atom_site_label_1
_geom_bond_atom_site_label_2
_geom_bond_site_symmetry_1
_geom_bond_site_symmetry_2
Zn1 Cl1 1_555 1_555
N1 Zn1 1_555 1_555
C1 N1 1_555 1_555
C2 C1 1_555 1_555
C3 C1 1_555 1_555
H1 N1 1_555 1_555
H2 N1 1_555 1_555
H3 C2 1_555 1_555
H4 C3 1_555 1_555
Zn1G N1E 1_555 1_555
Cl1B Zn1 1_555 1_555
N1E C1E 1_555 1_555
N1B Zn1 1_555 1_555
C1E C2E 1_555 1_555
C2E C3 1_555 1_555
C3E C2 1_555 1_555
H1E N1E 1_555 1_555
H1B N1B 1_555 1_555
H2E N1E 1_555 1_555
H2B N1B 1_555 1_555
H3E C2E 1_555 1_555
H4E C3E 1_555 1_555
C1E C3E 1_555 1_555

#END
