
#######################################################################
#
#                 Cambridge Crystallographic Data Centre
#                                CCDC 
#
#######################################################################
#
# If this CIF has been generated from an entry in the Cambridge 
# Structural Database, then it will include bibliographic, chemical, 
# crystal, experimental, refinement or atomic coordinate data resulting 
# from the CCDC's data processing and validation procedures.
#
#######################################################################

data_USEBOK
_symmetry_cell_setting           monoclinic
_symmetry_space_group_name_H-M   'C 2/c'
_symmetry_Int_Tables_number      15
_space_group_name_Hall           '-C 2yn'
loop_
_symmetry_equiv_pos_site_id
_symmetry_equiv_pos_as_xyz
1 x,y,z
2 1/2+x,1/2+y,z
3 -x,y,1/2-z
4 1/2-x,1/2+y,1/2-z
5 -x,-y,-z
6 1/2-x,1/2-y,-z
7 x,-y,1/2+z
8 1/2+x,1/2-y,1/2+z
_cell_length_a                   23.2503(7)
_cell_length_b                   4.9968(3)
_cell_length_c                   14.8231(5)
_cell_angle_alpha                90
_cell_angle_beta                 120.1277(14)
_cell_angle_gamma                90
_cell_volume                     1489.46
loop_
_atom_site_label
_atom_site_type_symbol
_atom_site_fract_x
_atom_site_fract_y
_atom_site_fract_z
Li1 Li 0.28870(9) 0.4279(3) 0.30736(14)
O1 O 0.30190(3) 0.79844(13) 0.28615(6)
O2 O 0.34924(3) 1.19030(12) 0.29111(5)
O3 O 0.29435(4) 0.40027(14) 0.44156(6)
N1 N 0.30748(5) 0.51537(18) 0.59836(7)
C1 C 0.35199(4) 0.93971(17) 0.30451(7)
C2 C 0.41679(5) 0.79917(18) 0.34348(8)
C3 C 0.47307(5) 0.9230(2) 0.36626(9)
C4 C 0.53877(6) 0.7887(3) 0.40434(11)
C5 C 0.31699(5) 0.5489(2) 0.51868(8)
H1 H 0.2800(8) 0.378(3) 0.5926(12)
H2 H 0.3237(7) 0.632(3) 0.6515(12)
H3 H 0.4158(7) 0.608(3) 0.3522(11)
H4 H 0.4705(8) 1.117(3) 0.3567(12)
H5 H 0.5343(9) 0.602(4) 0.4096(14)
H6 H 0.5728(10) 0.851(3) 0.4762(15)
H7 H 0.5556(9) 0.821(4) 0.3540(15)
H8 H 0.3445(7) 0.706(3) 0.5249(11)
Li1_2 Li 0.28870(9) 1.4279(3) 0.30736(14)
Li1C Li 0.21130(9) 0.9279(3) 0.19264(14)
O1C O 0.19810(3) 0.29844(13) 0.21385(6)
O2_2 O 0.34924(3) 0.19030(12) 0.29111(5)
loop_
_geom_bond_atom_site_label_1
_geom_bond_atom_site_label_2
_geom_bond_site_symmetry_1
_geom_bond_site_symmetry_2
Li1 O1 1_555 1_555
O1 C1 1_555 1_555
O2 C1 1_555 1_555
O3 Li1 1_555 1_555
N1 C5 1_555 1_555
C1 C2 1_555 1_555
C2 C3 1_555 1_555
C3 C4 1_555 1_555
C4 H5 1_555 1_555
C5 O3 1_555 1_555
H1 N1 1_555 1_555
H2 N1 1_555 1_555
H3 C2 1_555 1_555
H4 C3 1_555 1_555
H6 C4 1_555 1_555
H7 C4 1_555 1_555
H8 C5 1_555 1_555
Li1_2 O2 1_555 1_555
Li1C O1 1_555 1_555
O1C Li1 1_555 1_555
O2_2 Li1 1_555 1_555

#END
