
#######################################################################
#
#                 Cambridge Crystallographic Data Centre
#                                CCDC 
#
#######################################################################
#
# If this CIF has been generated from an entry in the Cambridge 
# Structural Database, then it will include bibliographic, chemical, 
# crystal, experimental, refinement or atomic coordinate data resulting 
# from the CCDC's data processing and validation procedures.
#
#######################################################################

data_USIBUU
_symmetry_cell_setting           triclinic
_symmetry_space_group_name_H-M   'P -1'
_symmetry_Int_Tables_number      2
_space_group_name_Hall           '-P 1'
loop_
_symmetry_equiv_pos_site_id
_symmetry_equiv_pos_as_xyz
1 x,y,z
2 -x,-y,-z
_cell_length_a                   11.642(2)
_cell_length_b                   11.685(2)
_cell_length_c                   13.628(2)
_cell_angle_alpha                70.819(13)
_cell_angle_beta                 70.765(13)
_cell_angle_gamma                60.893(13)
_cell_volume                     1497.19
loop_
_atom_site_label
_atom_site_type_symbol
_atom_site_fract_x
_atom_site_fract_y
_atom_site_fract_z
C1 C 0.1264(5) -0.4060(5) -0.4361(4)
C2 C 0.1408(5) -0.3326(5) -0.5500(4)
C3 C 0.0642(5) -0.3203(6) -0.6143(4)
H1 H -0.0024 -0.3525 -0.5856
C4 C 0.0841(6) -0.2611(6) -0.7205(4)
H2 H 0.0319 -0.2532 -0.7643
C5 C 0.1821(5) -0.2137(5) -0.7615(4)
C6 C 0.2585(5) -0.2235(5) -0.6988(4)
H3 H 0.3244 -0.1905 -0.7277
C7 C 0.2376(5) -0.2825(5) -0.5928(4)
H4 H 0.2892 -0.2890 -0.5491
C8 C 0.3526(9) -0.3857(6) -0.9210(6)
H5 H 0.3767 -0.4229 -0.9827
H6 H 0.2951 -0.4214 -0.8640
H7 H 0.4334 -0.4096 -0.8981
C9 C 0.2801(6) -0.2380(6) -0.9487(5)
C10 C 0.1619(5) -0.0310(5) -0.9307(4)
C11 C 0.0797(5) 0.0902(5) -0.8896(4)
C12 C 0.0523(6) 0.2120(6) -0.9601(4)
H8 H 0.0879 0.2149 -1.0331
C13 C -0.0262(6) 0.3276(5) -0.9237(4)
H9 H -0.0408 0.4085 -0.9737
C14 C -0.0554(7) 0.2171(6) -0.7548(5)
H10 H -0.0913 0.2175 -0.6822
C15 C 0.0219(7) 0.0971(6) -0.7844(5)
H11 H 0.0361 0.0177 -0.7325
C16 C 0.3465(5) -0.7217(5) -0.0427(4)
C17 C 0.3398(5) -0.7585(5) 0.0756(4)
C18 C 0.2524(5) -0.6677(5) 0.1391(4)
H12 H 0.1913 -0.5836 0.1094
C19 C 0.2526(5) -0.6978(5) 0.2461(4)
H13 H 0.1943 -0.6341 0.2886
C20 C 0.3396(5) -0.8225(5) 0.2891(4)
C21 C 0.4226(6) -0.9165(5) 0.2283(4)
H14 H 0.4792 -1.0025 0.2594
C22 C 0.4234(6) -0.8853(5) 0.1212(4)
H15 H 0.4806 -0.9500 0.0793
C23 C 0.2162(8) -0.9895(8) 0.4783(6)
H16 H 0.1770 -1.0248 0.5491
H17 H 0.1456 -0.9271 0.4393
H18 H 0.2782 -1.0625 0.4416
C24 C 0.2901(6) -0.9189(6) 0.4858(5)
C25 C 0.3978(5) -0.7968(5) 0.4403(4)
C26 C 0.4721(5) -0.7137(5) 0.3786(4)
C27 C 0.4599(5) -0.6174(5) 0.4227(4)
H19 H 0.4018 -0.6016 0.4884
C28 C 0.5334(5) -0.5448(5) 0.3698(4)
H20 H 0.5243 -0.4793 0.4010
C29 C 0.6246(5) -0.6530(5) 0.2336(4)
H21 H 0.6812 -0.6647 0.1666
C30 C 0.5557(5) -0.7306(5) 0.2800(4)
H22 H 0.5647 -0.7937 0.2461
N1 N 0.2078(4) -0.1611(4) -0.8742(3)
N2 N 0.2786(6) -0.1637(5) -1.0440(4)
N3 N 0.2053(5) -0.0343(5) -1.0324(4)
N4 N -0.0835(4) 0.3348(4) -0.8232(3)
N5 N 0.3459(4) -0.8488(4) 0.3986(3)
N6 N 0.3058(5) -0.9092(5) 0.5725(4)
N7 N 0.3760(5) -0.8317(5) 0.5442(3)
N8 N 0.6170(4) -0.5623(4) 0.2766(3)
O1 O 0.2126(4) -0.4282(4) -0.3872(3)
O2 O 0.0319(4) -0.4404(4) -0.3980(3)
O3 O 0.2637(4) -0.6062(3) -0.0780(3)
O4 O 0.4321(5) -0.8036(4) -0.0974(3)
O5 O 0.0859(4) -0.5867(4) -0.2092(3)
O6 O 0.3929(4) -0.6971(4) -0.2906(3)
Zn1 Zn 0.23409(6) -0.51908(6) -0.23007(5)
H23 H 0.066(5) -0.547(4) -0.271(2)
H24 H 0.138(5) -0.666(3) -0.220(4)
H25 H 0.381(6) -0.738(5) -0.324(4)
H26 H 0.432(5) -0.756(5) -0.241(3)
N4A N 0.0835(4) -0.3348(4) -0.1768(3)
N8A N 0.3830(4) -0.4377(4) -0.2766(3)
Zn1A Zn -0.23409(6) 0.51908(6) -0.76993(5)
Zn1A_2 Zn 0.76591(6) -0.48092(6) 0.23007(5)
O7 O 0.2145(5) 0.1496(4) -1.2221(3)
H27 H 0.203(6) 0.098(5) -1.164(2)
H28 H 0.245(6) 0.107(5) -1.270(3)
loop_
_geom_bond_atom_site_label_1
_geom_bond_atom_site_label_2
_geom_bond_site_symmetry_1
_geom_bond_site_symmetry_2
C1 C2 1_555 1_555
C2 C3 1_555 1_555
C3 H1 1_555 1_555
C4 C3 1_555 1_555
H2 C4 1_555 1_555
C5 C4 1_555 1_555
C6 C5 1_555 1_555
H3 C6 1_555 1_555
C7 C2 1_555 1_555
H4 C7 1_555 1_555
C8 H5 1_555 1_555
H6 C8 1_555 1_555
H7 C8 1_555 1_555
C9 C8 1_555 1_555
C10 C11 1_555 1_555
C11 C12 1_555 1_555
C12 H8 1_555 1_555
C13 C12 1_555 1_555
H9 C13 1_555 1_555
C14 H10 1_555 1_555
C15 C11 1_555 1_555
H11 C15 1_555 1_555
C16 C17 1_555 1_555
C17 C18 1_555 1_555
C18 H12 1_555 1_555
C19 C18 1_555 1_555
H13 C19 1_555 1_555
C20 C19 1_555 1_555
C21 C20 1_555 1_555
H14 C21 1_555 1_555
C22 C17 1_555 1_555
H15 C22 1_555 1_555
C23 H16 1_555 1_555
H17 C23 1_555 1_555
H18 C23 1_555 1_555
C24 C23 1_555 1_555
C25 C26 1_555 1_555
C26 C27 1_555 1_555
C27 H19 1_555 1_555
C28 C27 1_555 1_555
H20 C28 1_555 1_555
C29 H21 1_555 1_555
C30 C26 1_555 1_555
H22 C30 1_555 1_555
N1 C5 1_555 1_555
N2 C9 1_555 1_555
N3 C10 1_555 1_555
N4 C13 1_555 1_555
N5 C20 1_555 1_555
N6 C24 1_555 1_555
N7 C25 1_555 1_555
N8 C28 1_555 1_555
O1 C1 1_555 1_555
O2 C1 1_555 1_555
O3 C16 1_555 1_555
O4 C16 1_555 1_555
O5 Zn1 1_555 1_555
O6 Zn1 1_555 1_555
O7 H27 1_555 1_555
Zn1 O1 1_555 1_555
H23 O5 1_555 1_555
H24 O5 1_555 1_555
H25 O6 1_555 1_555
H26 O6 1_555 1_555
H28 O7 1_555 1_555
N4A Zn1 1_555 1_555
N8A Zn1 1_555 1_555
Zn1A N4 1_555 1_555
Zn1A_2 N8 1_555 1_555
C6 C7 1_555 1_555
C9 N1 1_555 1_555
C10 N1 1_555 1_555
C14 C15 1_555 1_555
C14 N4 1_555 1_555
C21 C22 1_555 1_555
C24 N5 1_555 1_555
C25 N5 1_555 1_555
C29 C30 1_555 1_555
C29 N8 1_555 1_555
N2 N3 1_555 1_555
N6 N7 1_555 1_555
O3 Zn1 1_555 1_555

#END
