
#######################################################################
#
#                 Cambridge Crystallographic Data Centre
#                                CCDC 
#
#######################################################################
#
# If this CIF has been generated from an entry in the Cambridge 
# Structural Database, then it will include bibliographic, chemical, 
# crystal, experimental, refinement or atomic coordinate data resulting 
# from the CCDC's data processing and validation procedures.
#
#######################################################################

data_USUYAJ
_symmetry_cell_setting           triclinic
_symmetry_space_group_name_H-M   'P -1'
_symmetry_Int_Tables_number      2
_space_group_name_Hall           '-P 1'
loop_
_symmetry_equiv_pos_site_id
_symmetry_equiv_pos_as_xyz
1 x,y,z
2 -x,-y,-z
_cell_length_a                   9.1388(11)
_cell_length_b                   9.5318(10)
_cell_length_c                   16.6270(17)
_cell_angle_alpha                84.260(9)
_cell_angle_beta                 74.946(9)
_cell_angle_gamma                77.441(9)
_cell_volume                     1363.74
loop_
_atom_site_label
_atom_site_type_symbol
_atom_site_fract_x
_atom_site_fract_y
_atom_site_fract_z
C1 C 0.0552(10) -0.4623(8) -0.3320(5)
C2 C -0.0294(11) -0.3564(8) -0.3804(6)
H1 H -0.1024 -0.3724 -0.4083
C3 C 0.0174(11) -0.2216(9) -0.3786(6)
H2 H -0.0203 -0.1330 -0.4050
C4 C 0.1288(11) -0.2437(9) -0.3307(6)
H3 H 0.1784 -0.1726 -0.3195
C5 C 0.1542(10) -0.3935(8) -0.3017(5)
H4 H 0.2236 -0.4381 -0.2686
C6 C -0.1487(10) -0.1553(9) -0.1669(6)
C7 C -0.1272(12) -0.2989(9) -0.1326(6)
H5 H -0.0589 -0.3390 -0.0981
C8 C -0.2266(12) -0.3731(10) -0.1590(6)
H6 H -0.2353 -0.4706 -0.1455
C9 C -0.3089(12) -0.2744(11) -0.2087(7)
H7 H -0.3823 -0.2941 -0.2351
C10 C -0.2621(11) -0.1385(9) -0.2124(6)
H8 H -0.3010 -0.0524 -0.2406
C11 C -0.0629(11) -0.0407(9) -0.1564(6)
H9 H 0.0389 -0.0892 -0.1468
H10 H -0.0436 0.0182 -0.2092
C12 C -0.1460(10) 0.0591(9) -0.0858(6)
C13 C -0.2807(12) 0.0369(10) -0.0262(6)
H11 H -0.3235 -0.0449 -0.0277
C14 C -0.3502(12) 0.1367(10) 0.0349(7)
H12 H -0.4419 0.1241 0.0753
C15 C -0.2854(13) 0.2539(10) 0.0365(7)
H13 H -0.3325 0.3234 0.0774
C16 C -0.1504(11) 0.2687(10) -0.0225(6)
H14 H -0.1042 0.3480 -0.0204
C17 C 0.1807(10) -0.7304(9) -0.4105(5)
C18 C 0.1790(13) -0.8722(9) -0.4288(7)
H15 H 0.1087 -0.9238 -0.3920
C19 C 0.2779(14) -0.9371(11) -0.4995(7)
H16 H 0.2748 -1.0319 -0.5109
C20 C 0.3809(14) -0.8625(14) -0.5530(8)
H17 H 0.4470 -0.9057 -0.6020
C21 C 0.3886(12) -0.7263(12) -0.5360(7)
H18 H 0.4620 -0.6779 -0.5728
C22 C 0.2885(11) -0.6565(10) -0.4643(6)
H19 H 0.2943 -0.5623 -0.4530
C23 C -0.1390(10) -0.6716(8) -0.3257(5)
C24 C -0.1724(12) -0.6655(10) -0.4028(6)
H20 H -0.0967 -0.6499 -0.4522
C25 C -0.3190(12) -0.6824(10) -0.4074(7)
H21 H -0.3435 -0.6737 -0.4600
C26 C -0.4272(12) -0.7113(10) -0.3368(7)
H22 H -0.5253 -0.7245 -0.3406
C27 C -0.3927(12) -0.7208(12) -0.2615(7)
H23 H -0.4666 -0.7432 -0.2128
C28 C -0.2516(11) -0.6983(8) -0.2543(6)
H24 H -0.2317 -0.7012 -0.2008
N1 N -0.0823(9) 0.1732(7) -0.0831(5)
P1 P 0.0493(2) -0.6513(2) -0.31578(13)
Fe1 Fe -0.07478(13) -0.29664(11) -0.26010(8)
Br1 Br 0.33753(10) -0.99481(9) -0.23981(6)
Br2 Br 0.22267(11) -0.61151(9) -0.09769(6)
Cd1 Cd 0.13358(7) -0.77383(6) -0.18108(4)
N1_2 N -0.0823(9) -0.8268(7) -0.0831(5)
Cd1_2 Cd 0.13358(7) 0.22617(6) -0.18108(4)
loop_
_geom_bond_atom_site_label_1
_geom_bond_atom_site_label_2
_geom_bond_site_symmetry_1
_geom_bond_site_symmetry_2
C1 C2 1_555 1_555
C2 H1 1_555 1_555
C3 C2 1_555 1_555
H2 C3 1_555 1_555
C4 C3 1_555 1_555
H3 C4 1_555 1_555
C5 C1 1_555 1_555
H4 C5 1_555 1_555
C6 C7 1_555 1_555
C7 H5 1_555 1_555
C8 C7 1_555 1_555
H6 C8 1_555 1_555
C9 C8 1_555 1_555
H7 C9 1_555 1_555
C10 C6 1_555 1_555
H8 C10 1_555 1_555
C11 C6 1_555 1_555
H9 C11 1_555 1_555
H10 C11 1_555 1_555
C12 C11 1_555 1_555
C13 C12 1_555 1_555
H11 C13 1_555 1_555
C14 C13 1_555 1_555
H12 C14 1_555 1_555
C15 C14 1_555 1_555
H13 C15 1_555 1_555
C16 C15 1_555 1_555
H14 C16 1_555 1_555
C17 C18 1_555 1_555
C18 H15 1_555 1_555
C19 C18 1_555 1_555
H16 C19 1_555 1_555
C20 C19 1_555 1_555
H17 C20 1_555 1_555
C21 C20 1_555 1_555
H18 C21 1_555 1_555
C22 C17 1_555 1_555
H19 C22 1_555 1_555
C23 C24 1_555 1_555
C24 H20 1_555 1_555
C25 C24 1_555 1_555
H21 C25 1_555 1_555
C26 C25 1_555 1_555
H22 C26 1_555 1_555
C27 C26 1_555 1_555
H23 C27 1_555 1_555
C28 C23 1_555 1_555
H24 C28 1_555 1_555
N1 C12 1_555 1_555
P1 C1 1_555 1_555
Fe1 C1 1_555 1_555
Br1 Cd1 1_555 1_555
Br2 Cd1 1_555 1_555
Cd1 P1 1_555 1_555
N1_2 Cd1 1_555 1_555
Cd1_2 N1 1_555 1_555
C2 Fe1 1_555 1_555
C3 Fe1 1_555 1_555
C4 C5 1_555 1_555
C4 Fe1 1_555 1_555
C5 Fe1 1_555 1_555
C6 Fe1 1_555 1_555
C7 Fe1 1_555 1_555
C8 Fe1 1_555 1_555
C9 C10 1_555 1_555
C9 Fe1 1_555 1_555
C10 Fe1 1_555 1_555
C16 N1 1_555 1_555
C17 P1 1_555 1_555
C21 C22 1_555 1_555
C23 P1 1_555 1_555
C27 C28 1_555 1_555

#END
