
#######################################################################
#
#                 Cambridge Crystallographic Data Centre
#                                CCDC 
#
#######################################################################
#
# If this CIF has been generated from an entry in the Cambridge 
# Structural Database, then it will include bibliographic, chemical, 
# crystal, experimental, refinement or atomic coordinate data resulting 
# from the CCDC's data processing and validation procedures.
#
#######################################################################

data_USUYOX
_symmetry_cell_setting           orthorhombic
_symmetry_space_group_name_H-M   'P c c n'
_symmetry_Int_Tables_number      56
_space_group_name_Hall           '-P 2ab 2ac'
loop_
_symmetry_equiv_pos_site_id
_symmetry_equiv_pos_as_xyz
1 x,y,z
2 1/2-x,1/2-y,z
3 1/2+x,-y,1/2-z
4 -x,1/2+y,1/2-z
5 -x,-y,-z
6 1/2+x,1/2+y,-z
7 1/2-x,y,1/2+z
8 x,1/2-y,1/2+z
_cell_length_a                   34.9720(12)
_cell_length_b                   9.9410(5)
_cell_length_c                   18.1638(8)
_cell_angle_alpha                90
_cell_angle_beta                 90
_cell_angle_gamma                90
_cell_volume                     6314.77
loop_
_atom_site_label
_atom_site_type_symbol
_atom_site_fract_x
_atom_site_fract_y
_atom_site_fract_z
C1 C 0.1317(3) 0.2893(9) 0.5976(6)
C2 C 0.1316(3) 0.1436(9) 0.5953(6)
H1 H 0.1454 0.0895 0.5614
C3 C 0.1074(3) 0.0953(11) 0.6517(7)
H2 H 0.1019 0.0039 0.6626
C4 C 0.0926(4) 0.2124(12) 0.6900(7)
H3 H 0.0756 0.2104 0.7307
C5 C 0.1078(3) 0.3322(11) 0.6565(7)
H4 H 0.1029 0.4224 0.6709
C6 C 0.0575(3) 0.1509(9) 0.4831(6)
C7 C 0.0564(3) 0.2950(9) 0.4825(7)
H5 H 0.0691 0.3518 0.4484
C8 C 0.0327(3) 0.3386(10) 0.5421(6)
H6 H 0.0271 0.4293 0.5546
C9 C 0.0191(3) 0.2220(10) 0.5795(7)
H7 H 0.0030 0.2209 0.6216
C10 C 0.0339(3) 0.1085(10) 0.5427(6)
H8 H 0.0288 0.0176 0.5556
C11 C 0.0772(3) 0.0589(10) 0.4281(6)
H9 H 0.1022 0.0983 0.4150
H10 H 0.0820 -0.0290 0.4520
C12 C 0.0548(3) 0.0351(9) 0.3583(6)
C13 C 0.0216(3) 0.1083(11) 0.3408(6)
H11 H 0.0129 0.1780 0.3724
C14 C 0.0019(3) 0.0771(11) 0.2766(7)
H12 H -0.0215 0.1213 0.2654
C15 C 0.0166(3) -0.0197(11) 0.2289(6)
H13 H 0.0041 -0.0409 0.1841
C16 C 0.0502(3) -0.0839(10) 0.2491(6)
H14 H 0.0602 -0.1508 0.2171
C17 C 0.2014(3) 0.4522(9) 0.5794(7)
C18 C 0.2137(3) 0.3903(12) 0.6449(8)
H15 H 0.1983 0.3242 0.6683
C19 C 0.2491(4) 0.4278(14) 0.6754(8)
H16 H 0.2574 0.3900 0.7208
C20 C 0.2718(4) 0.5200(13) 0.6389(9)
H17 H 0.2962 0.5429 0.6583
C21 C 0.2594(4) 0.5789(12) 0.5745(9)
H18 H 0.2752 0.6428 0.5502
C22 C 0.2242(4) 0.5461(11) 0.5447(8)
H19 H 0.2158 0.5881 0.5006
C23 C 0.1705(3) 0.3093(10) 0.4576(6)
C24 C 0.1543(3) 0.3355(16) 0.3897(8)
H20 H 0.1369 0.4078 0.3828
C25 C 0.1652(5) 0.247(2) 0.3295(8)
H21 H 0.1546 0.2610 0.2820
C26 C 0.1912(4) 0.1414(15) 0.3406(8)
H22 H 0.1973 0.0813 0.3017
C27 C 0.2072(4) 0.1270(11) 0.4077(7)
H23 H 0.2258 0.0583 0.4143
C28 C 0.1980(4) 0.2063(11) 0.4672(7)
H24 H 0.2098 0.1922 0.5136
Br1 Br 0.05994(3) 0.72934(11) 0.56077(7)
Br2 Br 0.07916(4) 0.58576(10) 0.35908(7)
Br3 Br 0.15266(4) 0.81443(13) 0.20405(8)
Br4 Br 0.15760(3) 0.81371(10) 0.45616(7)
Fe1 Fe 0.07785(4) 0.22248(13) 0.58095(8)
Hg1 Hg 0.115070(14) 0.59491(4) 0.51803(3)
Hg2 Hg 0.122392(14) 0.79848(4) 0.33037(3)
P1 P 0.15645(8) 0.4032(2) 0.53761(17)
N1 N 0.0696(2) -0.0566(7) 0.3119(5)
Hg2_2 Hg 0.122392(14) -0.20152(4) 0.33037(3)
N1_2 N 0.0696(2) 0.9434(7) 0.3119(5)
loop_
_geom_bond_atom_site_label_1
_geom_bond_atom_site_label_2
_geom_bond_site_symmetry_1
_geom_bond_site_symmetry_2
C1 C2 1_555 1_555
C2 H1 1_555 1_555
C3 C2 1_555 1_555
H2 C3 1_555 1_555
C4 C3 1_555 1_555
H3 C4 1_555 1_555
C5 C1 1_555 1_555
H4 C5 1_555 1_555
C6 C7 1_555 1_555
C7 H5 1_555 1_555
C8 C7 1_555 1_555
H6 C8 1_555 1_555
C9 C8 1_555 1_555
H7 C9 1_555 1_555
C10 C6 1_555 1_555
H8 C10 1_555 1_555
C11 C6 1_555 1_555
H9 C11 1_555 1_555
H10 C11 1_555 1_555
C12 C11 1_555 1_555
C13 C12 1_555 1_555
H11 C13 1_555 1_555
C14 C13 1_555 1_555
H12 C14 1_555 1_555
C15 C14 1_555 1_555
H13 C15 1_555 1_555
C16 C15 1_555 1_555
H14 C16 1_555 1_555
C17 C18 1_555 1_555
C18 H15 1_555 1_555
C19 C18 1_555 1_555
H16 C19 1_555 1_555
C20 C19 1_555 1_555
H17 C20 1_555 1_555
C21 C20 1_555 1_555
H18 C21 1_555 1_555
C22 C17 1_555 1_555
H19 C22 1_555 1_555
C23 C24 1_555 1_555
C24 H20 1_555 1_555
C25 C24 1_555 1_555
H21 C25 1_555 1_555
C26 C25 1_555 1_555
H22 C26 1_555 1_555
C27 C26 1_555 1_555
H23 C27 1_555 1_555
C28 C23 1_555 1_555
H24 C28 1_555 1_555
Br1 Hg1 1_555 1_555
Br2 Hg1 1_555 1_555
Br3 Hg2 1_555 1_555
Br4 Hg1 1_555 1_555
Fe1 C1 1_555 1_555
Hg1 P1 1_555 1_555
Hg2 Br2 1_555 1_555
P1 C1 1_555 1_555
N1 C12 1_555 1_555
Hg2_2 N1 1_555 1_555
N1_2 Hg2 1_555 1_555
C2 Fe1 1_555 1_555
C3 Fe1 1_555 1_555
C4 C5 1_555 1_555
C4 Fe1 1_555 1_555
C5 Fe1 1_555 1_555
C6 Fe1 1_555 1_555
C7 Fe1 1_555 1_555
C8 Fe1 1_555 1_555
C9 C10 1_555 1_555
C9 Fe1 1_555 1_555
C10 Fe1 1_555 1_555
C16 N1 1_555 1_555
C17 P1 1_555 1_555
C21 C22 1_555 1_555
C23 P1 1_555 1_555
C27 C28 1_555 1_555
Br4 Hg2 1_555 1_555

#END
