
#######################################################################
#
#                 Cambridge Crystallographic Data Centre
#                                CCDC 
#
#######################################################################
#
# If this CIF has been generated from an entry in the Cambridge 
# Structural Database, then it will include bibliographic, chemical, 
# crystal, experimental, refinement or atomic coordinate data resulting 
# from the CCDC's data processing and validation procedures.
#
#######################################################################

data_UTEFOP
_symmetry_cell_setting           triclinic
_symmetry_space_group_name_H-M   'P -1'
_symmetry_Int_Tables_number      2
_space_group_name_Hall           '-P 1'
loop_
_symmetry_equiv_pos_site_id
_symmetry_equiv_pos_as_xyz
1 x,y,z
2 -x,-y,-z
_cell_length_a                   10.851(3)
_cell_length_b                   11.497(4)
_cell_length_c                   11.603(4)
_cell_angle_alpha                75.086(5)
_cell_angle_beta                 62.443(5)
_cell_angle_gamma                62.128(5)
_cell_volume                     1132.87
loop_
_atom_site_label
_atom_site_type_symbol
_atom_site_fract_x
_atom_site_fract_y
_atom_site_fract_z
Cu1 Cu 0.0000 0.5000 0.5000
Cu2 Cu 0.12725(4) 0.69939(3) 0.28340(4)
Cu3 Cu 0.08113(4) 0.48878(3) 0.17295(3)
O1 O 0.2159(2) 0.4231(2) 0.4621(2)
O2 O 0.3011(2) 0.5679(2) 0.3167(2)
O3 O 0.7872(3) 0.5568(2) 0.2213(2)
O4 O 0.9580(2) 0.3855(2) 0.2819(2)
N1 N 0.7002(3) 0.0659(3) 0.5118(3)
O5 O 0.8101(3) 0.0225(3) 0.5383(4)
O6 O 0.6291(3) 0.0036(2) 0.5267(3)
O7 O 0.1877(2) 0.6003(2) 0.0590(2)
O8 O 0.0205(3) 0.7239(2) -0.0313(3)
O9 O 0.0154(3) 1.1495(2) -0.2294(2)
O10 O 0.2146(3) 1.1999(2) -0.2972(2)
N2 N 0.6054(3) 0.7709(3) -0.1845(3)
O11 O 0.6756(3) 0.6505(2) -0.1787(3)
O12 O 0.6614(4) 0.8482(3) -0.2134(4)
C1 C 0.4693(3) 0.3919(3) 0.3973(3)
C2 C 0.5077(3) 0.2655(3) 0.4574(3)
H1 H 0.4392 0.2258 0.4958
C3 C 0.6515(3) 0.2021(3) 0.4575(3)
C4 C 0.7566(3) 0.2572(3) 0.4039(3)
H2 H 0.8518 0.2114 0.4075
C5 C 0.7163(3) 0.3831(3) 0.3444(3)
C6 C 0.5733(3) 0.4486(3) 0.3414(3)
H3 H 0.5467 0.5325 0.3010
C7 C 0.3159(3) 0.4668(3) 0.3921(3)
C8 C 0.8257(3) 0.4476(3) 0.2784(3)
C9 C 0.4442(3) 0.8209(3) -0.1602(3)
C10 C 0.3718(3) 0.7373(3) -0.0961(3)
H4 H 0.4216 0.6536 -0.0650
C11 C 0.2211(3) 0.7822(3) -0.0794(3)
C12 C 0.1518(3) 0.9085(3) -0.1285(3)
H5 H 0.0519 0.9383 -0.1188
C13 C 0.2274(3) 0.9900(3) -0.1910(3)
C14 C 0.3768(3) 0.9464(3) -0.2073(3)
H6 H 0.4297 1.0001 -0.2487
C15 C 0.1353(3) 0.6966(3) -0.0125(3)
C16 C 0.1495(3) 1.1254(3) -0.2442(3)
O13 O 0.0243(2) 0.58089(18) 0.32223(18)
H7 H -0.0633 0.6270 0.3296
Cu2A Cu -0.12725(4) 0.30061(3) 0.71660(4)
Cu2_2 Cu 0.12725(4) -0.30061(3) 1.28340(4)
Cu2A_2 Cu -0.12725(4) 1.30061(3) -0.28340(4)
Cu3A Cu -0.08113(4) 0.51122(3) 0.82705(3)
Cu3_2 Cu -0.91887(4) 0.48878(3) 1.17295(3)
Cu3_3 Cu 1.08113(4) 0.48878(3) 0.17295(3)
Cu3A_2 Cu -1.08113(4) 0.51122(3) 0.82705(3)
Cu3A_3 Cu 0.91887(4) 0.51122(3) -0.17295(3)
O1A O -0.2159(2) 0.5769(2) 0.5379(2)
O2A O -0.3011(2) 0.4321(2) 0.6833(2)
O3A O -0.7872(3) 0.4432(2) 0.7787(2)
O3_2 O -0.2128(3) 0.5568(2) 0.2213(2)
O3A_2 O 0.2128(3) 0.4432(2) 0.7787(2)
O4A O -0.9580(2) 0.6145(2) 0.7181(2)
O4_2 O -0.0420(2) 0.3855(2) 0.2819(2)
O4A_2 O 0.0420(2) 0.6145(2) 0.7181(2)
N1A N -0.7002(3) 0.9341(3) 0.4882(3)
O5A O -0.8101(3) 0.9775(3) 0.4617(4)
O6A O -0.6291(3) 0.9964(2) 0.4733(3)
O7A O -0.1877(2) 0.3997(2) 0.9410(2)
O8A O -0.0205(3) 0.2761(2) 1.0313(3)
O9A O -0.0154(3) -0.1495(2) 1.2294(2)
O9_2 O 0.0154(3) 0.1495(2) 0.7706(2)
O9A_2 O -0.0154(3) 0.8505(2) 0.2294(2)
O10A O -0.2146(3) -0.1999(2) 1.2972(2)
N2A N -0.6054(3) 0.2291(3) 1.1845(3)
O11A O -0.6756(3) 0.3495(2) 1.1787(3)
O11_2 O -0.3244(3) 0.6505(2) 0.8213(3)
O11A_2 O 0.3244(3) 0.3495(2) 0.1787(3)
O12A O -0.6614(4) 0.1518(3) 1.2134(4)
C1A C -0.4693(3) 0.6081(3) 0.6027(3)
C2A C -0.5077(3) 0.7345(3) 0.5426(3)
H1A H -0.4392 0.7742 0.5042
C3A C -0.6515(3) 0.7979(3) 0.5425(3)
C4A C -0.7566(3) 0.7428(3) 0.5961(3)
H2A H -0.8518 0.7886 0.5925
C5A C -0.7163(3) 0.6169(3) 0.6556(3)
C6A C -0.5733(3) 0.5514(3) 0.6586(3)
H3A H -0.5467 0.4675 0.6990
C7A C -0.3159(3) 0.5332(3) 0.6079(3)
C8A C -0.8257(3) 0.5524(3) 0.7216(3)
C9A C -0.4442(3) 0.1791(3) 1.1602(3)
C10A C -0.3718(3) 0.2627(3) 1.0961(3)
H4A H -0.4216 0.3464 1.0650
C11A C -0.2211(3) 0.2178(3) 1.0794(3)
C12A C -0.1518(3) 0.0915(3) 1.1285(3)
H5A H -0.0519 0.0617 1.1188
C13A C -0.2274(3) 0.0100(3) 1.1910(3)
C14A C -0.3768(3) 0.0536(3) 1.2073(3)
H6A H -0.4297 -0.0001 1.2487
C15A C -0.1353(3) 0.3034(3) 1.0125(3)
C16A C -0.1495(3) -0.1254(3) 1.2442(3)
O13A O -0.0243(2) 0.41911(18) 0.67777(18)
H7A H 0.0633 0.3730 0.6704
loop_
_geom_bond_atom_site_label_1
_geom_bond_atom_site_label_2
_geom_bond_site_symmetry_1
_geom_bond_site_symmetry_2
Cu1 O1 1_555 1_555
Cu2 O2 1_555 1_555
Cu3 O7 1_555 1_555
O1 C7 1_555 1_555
O2 C7 1_555 1_555
O3 C8 1_555 1_555
O4 C8 1_555 1_555
N1 O5 1_555 1_555
O6 N1 1_555 1_555
O7 Cu2 1_555 1_555
O8 C15 1_555 1_555
O9 C16 1_555 1_555
O10 C16 1_555 1_555
N2 O11 1_555 1_555
O11 Cu3A_3 1_555 1_555
O12 N2 1_555 1_555
C1 C2 1_555 1_555
C2 H1 1_555 1_555
C3 N1 1_555 1_555
C4 C3 1_555 1_555
H2 C4 1_555 1_555
C5 C4 1_555 1_555
C6 C1 1_555 1_555
H3 C6 1_555 1_555
C7 C1 1_555 1_555
C8 C5 1_555 1_555
C9 N2 1_555 1_555
C10 C9 1_555 1_555
H4 C10 1_555 1_555
C11 C10 1_555 1_555
C12 C11 1_555 1_555
H5 C12 1_555 1_555
C13 C12 1_555 1_555
C14 C9 1_555 1_555
H6 C14 1_555 1_555
C15 O7 1_555 1_555
C16 C13 1_555 1_555
O13 Cu1 1_555 1_555
H7 O13 1_555 1_555
Cu2A O2A 1_555 1_555
Cu2_2 O9A 1_555 1_555
Cu2A_2 O9 1_555 1_555
Cu3A O3A_2 1_555 1_555
Cu3_2 O11A 1_555 1_555
Cu3_3 O3 1_555 1_555
Cu3A_2 O3A 1_555 1_555
O1A Cu1 1_555 1_555
O2A C7A 1_555 1_555
O3A C8A 1_555 1_555
O3_2 Cu3 1_555 1_555
O4A Cu3A_2 1_555 1_555
O4_2 Cu3 1_555 1_555
O4A_2 Cu3A 1_555 1_555
N1A O5A 1_555 1_555
O6A N1A 1_555 1_555
O7A Cu2A 1_555 1_555
O8A C15A 1_555 1_555
O9A C16A 1_555 1_555
O9_2 Cu2A 1_555 1_555
O9A_2 Cu2 1_555 1_555
O10A C16A 1_555 1_555
N2A O11A 1_555 1_555
O11_2 Cu3A 1_555 1_555
O11A_2 Cu3 1_555 1_555
O12A N2A 1_555 1_555
C1A C2A 1_555 1_555
C2A H1A 1_555 1_555
C3A N1A 1_555 1_555
C4A C3A 1_555 1_555
H2A C4A 1_555 1_555
C5A C4A 1_555 1_555
C6A C1A 1_555 1_555
H3A C6A 1_555 1_555
C7A O1A 1_555 1_555
C8A O4A 1_555 1_555
C9A N2A 1_555 1_555
C10A C9A 1_555 1_555
H4A C10A 1_555 1_555
C11A C10A 1_555 1_555
C12A C11A 1_555 1_555
H5A C12A 1_555 1_555
C13A C12A 1_555 1_555
C14A C9A 1_555 1_555
H6A C14A 1_555 1_555
C15A O7A 1_555 1_555
C16A C13A 1_555 1_555
O13A Cu1 1_555 1_555
H7A O13A 1_555 1_555
Cu2 O13 1_555 1_555
Cu3 O13 1_555 1_555
O4 Cu3_3 1_555 1_555
C2 C3 1_555 1_555
C5 C6 1_555 1_555
C11 C15 1_555 1_555
C13 C14 1_555 1_555
Cu2A O13A 1_555 1_555
Cu3A O7A 1_555 1_555
Cu3A O13A 1_555 1_555
C1A C7A 1_555 1_555
C2A C3A 1_555 1_555
C5A C6A 1_555 1_555
C5A C8A 1_555 1_555
C11A C15A 1_555 1_555
C13A C14A 1_555 1_555

#END
