
#######################################################################
#
#                 Cambridge Crystallographic Data Centre
#                                CCDC 
#
#######################################################################
#
# If this CIF has been generated from an entry in the Cambridge 
# Structural Database, then it will include bibliographic, chemical, 
# crystal, experimental, refinement or atomic coordinate data resulting 
# from the CCDC's data processing and validation procedures.
#
#######################################################################

data_UTETOD
_symmetry_cell_setting           tetragonal
_symmetry_space_group_name_H-M   'I 41/a'
_symmetry_Int_Tables_number      88
_space_group_name_Hall           '-I 4ad'
loop_
_symmetry_equiv_pos_site_id
_symmetry_equiv_pos_as_xyz
1 x,y,z
2 3/4-y,1/4+x,1/4+z
3 1/2-x,-y,1/2+z
4 3/4+y,3/4-x,3/4+z
5 1/2+x,1/2+y,1/2+z
6 1/4-y,3/4+x,3/4+z
7 -x,1/2-y,z
8 1/4+y,1/4-x,1/4+z
9 -x,-y,-z
10 1/4+y,3/4-x,3/4-z
11 1/2+x,y,1/2-z
12 1/4-y,1/4+x,1/4-z
13 1/2-x,1/2-y,1/2-z
14 3/4+y,1/4-x,1/4-z
15 x,1/2+y,-z
16 3/4-y,3/4+x,3/4-z
_cell_length_a                   20.5155(15)
_cell_length_b                   20.5155(15)
_cell_length_c                   15.0907(13)
_cell_angle_alpha                90
_cell_angle_beta                 90
_cell_angle_gamma                90
_cell_volume                     6351.46
loop_
_atom_site_label
_atom_site_type_symbol
_atom_site_fract_x
_atom_site_fract_y
_atom_site_fract_z
Nb1 Nb 0.5000 0.7500 1.1250
Mn1 Mn 0.5000 0.5000 1.0000
O2 O 0.4403(2) 0.6454(2) 0.4674(2)
O3 O 0.0761(2) 0.5212(2) 0.9908(3)
N1 N 0.5007(2) 0.59410(16) 1.0587(2)
N2 N 0.4943(2) 0.54698(17) 0.8604(2)
N3 N 0.3856(2) 0.49929(19) 1.0075(2)
N4 N 0.59976(19) 0.7497(2) 0.9444(2)
N5 N 0.4710(2) 0.6154(2) 0.5373(2)
N6 N 0.1412(2) 0.5394(2) 0.9925(3)
C1 C 0.5009(2) 0.64689(17) 1.0823(2)
C2 C 0.56555(18) 0.75001(19) 1.0042(2)
C3 C 0.4993(2) 0.5119(2) 0.7859(2)
C4 C 0.4721(3) 0.6080(2) 0.8517(3)
C5 C 0.4867(2) 0.5362(2) 0.7027(3)
C6 C 0.4562(2) 0.6349(2) 0.7706(3)
C7 C 0.4618(2) 0.5990(2) 0.6948(2)
C8 C 0.4420(2) 0.6270(2) 0.6096(3)
C9 C 0.3489(2) 0.5541(2) 1.0025(4)
C10 C 0.3524(2) 0.4436(2) 1.0115(4)
C11 C 0.2817(2) 0.5540(2) 1.0007(4)
C12 C 0.2864(2) 0.4395(2) 1.0112(4)
C13 C 0.2483(2) 0.4952(2) 1.0045(3)
C14 C 0.1772(2) 0.4908(3) 1.0017(4)
H1 H 0.5119 0.4685 0.7907
H2 H 0.4672 0.6333 0.9023
H3 H 0.4946 0.5110 0.6526
H4 H 0.4417 0.6778 0.7676
H5 H 0.4063 0.6549 0.6086
H6 H 0.3703 0.5940 1.0001
H7 H 0.3760 0.4050 1.0147
H8 H 0.2589 0.5930 0.9971
H9 H 0.2665 0.3989 1.0156
H10 H 0.1579 0.4500 1.0070
H11 H 0.4599 0.6371 0.4214
H12 H 0.0533 0.5538 0.9848
Mn1F Mn 0.5000 1.0000 1.0000
Mn1G Mn 0.7500 0.7500 1.2500
Mn1A Mn 0.2500 0.7500 1.2500
O2H O 0.5597(2) 0.3546(2) 1.5326(2)
O2F O 0.5597(2) 0.8546(2) 0.4674(2)
O2N O 0.4403(2) 1.1454(2) 1.5326(2)
O3H O 0.9239(2) 0.4788(2) 1.0092(3)
O3F O 0.9239(2) 0.9788(2) 0.9908(3)
O3N O 0.0761(2) 1.0212(2) 1.0092(3)
N1F N 0.4993(2) 0.90590(16) 1.0587(2)
N1K N 0.65590(16) 0.7507(2) 1.1913(2)
N1M N 0.34410(16) 0.7493(2) 1.1913(2)
N1H N 0.4993(2) 0.40590(16) 0.9413(2)
N1N N 0.5007(2) 1.09410(16) 0.9413(2)
N2H N 0.5057(2) 0.45302(17) 1.1396(2)
N2F N 0.5057(2) 0.95302(17) 0.8604(2)
N2N N 0.4943(2) 1.04698(17) 1.1396(2)
N3H N 0.6144(2) 0.50071(19) 0.9925(2)
N3F N 0.6144(2) 1.00071(19) 1.0075(2)
N3N N 0.3856(2) 0.99929(19) 0.9925(2)
N4F N 0.40024(19) 0.7503(2) 0.9444(2)
N4K N 0.5003(2) 0.84976(19) 1.3056(2)
N4M N 0.4997(2) 0.65024(19) 1.3056(2)
N5H N 0.5290(2) 0.3846(2) 1.4627(2)
N5F N 0.5290(2) 0.8846(2) 0.5373(2)
N5N N 0.4710(2) 1.1154(2) 1.4627(2)
N6H N 0.8588(2) 0.4606(2) 1.0075(3)
N6F N 0.8588(2) 0.9606(2) 0.9925(3)
N6N N 0.1412(2) 1.0394(2) 1.0075(3)
C1F C 0.4991(2) 0.85311(17) 1.0823(2)
C1K C 0.60311(17) 0.7509(2) 1.1677(2)
C1M C 0.39689(17) 0.7491(2) 1.1677(2)
C2F C 0.43445(18) 0.74999(19) 1.0042(2)
C2K C 0.49999(19) 0.81555(18) 1.2458(2)
C2M C 0.50001(19) 0.68445(18) 1.2458(2)
C3H C 0.5007(2) 0.4881(2) 1.2141(2)
C3F C 0.5007(2) 0.9881(2) 0.7859(2)
C3N C 0.4993(2) 1.0119(2) 1.2141(2)
C4H C 0.5279(3) 0.3920(2) 1.1483(3)
C4F C 0.5279(3) 0.8920(2) 0.8517(3)
C4N C 0.4721(3) 1.1080(2) 1.1483(3)
C5H C 0.5133(2) 0.4638(2) 1.2973(3)
C5F C 0.5133(2) 0.9638(2) 0.7027(3)
C5N C 0.4867(2) 1.0362(2) 1.2973(3)
C6H C 0.5438(2) 0.3651(2) 1.2294(3)
C6F C 0.5438(2) 0.8651(2) 0.7706(3)
C6N C 0.4562(2) 1.1349(2) 1.2294(3)
C7H C 0.5382(2) 0.4010(2) 1.3052(2)
C7F C 0.5382(2) 0.9010(2) 0.6948(2)
C7N C 0.4618(2) 1.0990(2) 1.3052(2)
C8H C 0.5580(2) 0.3730(2) 1.3904(3)
C8F C 0.5580(2) 0.8730(2) 0.6096(3)
C8N C 0.4420(2) 1.1270(2) 1.3904(3)
C9H C 0.6511(2) 0.4459(2) 0.9975(4)
C9F C 0.6511(2) 0.9459(2) 1.0025(4)
C9N C 0.3489(2) 1.0541(2) 0.9975(4)
C10H C 0.6476(2) 0.5564(2) 0.9885(4)
C10F C 0.6476(2) 1.0564(2) 1.0115(4)
C10N C 0.3524(2) 0.9436(2) 0.9885(4)
C11H C 0.7183(2) 0.4460(2) 0.9993(4)
C11F C 0.7183(2) 0.9460(2) 1.0007(4)
C11N C 0.2817(2) 1.0540(2) 0.9993(4)
C12H C 0.7136(2) 0.5605(2) 0.9888(4)
C12F C 0.7136(2) 1.0605(2) 1.0112(4)
C12N C 0.2864(2) 0.9395(2) 0.9888(4)
C13H C 0.7517(2) 0.5048(2) 0.9955(3)
C13F C 0.7517(2) 1.0048(2) 1.0045(3)
C13N C 0.2483(2) 0.9952(2) 0.9955(3)
C14H C 0.8228(2) 0.5092(3) 0.9983(4)
C14F C 0.8228(2) 1.0092(3) 1.0017(4)
C14N C 0.1772(2) 0.9908(3) 0.9983(4)
H1H H 0.4881 0.5315 1.2093
H1F H 0.4881 1.0315 0.7907
H1N H 0.5119 0.9685 1.2093
H2H H 0.5328 0.3667 1.0977
H2F H 0.5328 0.8667 0.9023
H2N H 0.4672 1.1333 1.0977
H3H H 0.5054 0.4890 1.3474
H3F H 0.5054 0.9890 0.6526
H3N H 0.4946 1.0110 1.3474
H4H H 0.5583 0.3222 1.2324
H4F H 0.5583 0.8222 0.7676
H4N H 0.4417 1.1778 1.2324
H5H H 0.5937 0.3451 1.3914
H5F H 0.5937 0.8451 0.6086
H5N H 0.4063 1.1549 1.3914
H6H H 0.6297 0.4060 0.9999
H6F H 0.6297 0.9060 1.0001
H6N H 0.3703 1.0940 0.9999
H7H H 0.6240 0.5950 0.9853
H7F H 0.6240 1.0950 1.0147
H7N H 0.3760 0.9050 0.9853
H8H H 0.7411 0.4070 1.0029
H8F H 0.7411 0.9070 0.9971
H8N H 0.2589 1.0930 1.0029
H9H H 0.7335 0.6011 0.9844
H9F H 0.7335 1.1011 1.0156
H9N H 0.2665 0.8989 0.9844
H10H H 0.8421 0.5500 0.9930
H10F H 0.8421 1.0500 1.0070
H10N H 0.1579 0.9500 0.9930
H11H H 0.5401 0.3629 1.5786
H11F H 0.5401 0.8629 0.4214
H11N H 0.4599 1.1371 1.5786
H12H H 0.9467 0.4462 1.0152
H12F H 0.9467 0.9462 0.9848
H12N H 0.0533 1.0538 1.0152
O1 O 0.5000 0.7500 0.7991(18)
loop_
_geom_bond_atom_site_label_1
_geom_bond_atom_site_label_2
_geom_bond_site_symmetry_1
_geom_bond_site_symmetry_2
Nb1 C1 1_555 1_555
Mn1 N1 1_555 1_555
O2 N5 1_555 1_555
O3 N6 1_555 1_555
N1 C1 1_555 1_555
N2 Mn1 1_555 1_555
N3 Mn1 1_555 1_555
N4 C2 1_555 1_555
N5 C8 1_555 1_555
N6 C14 1_555 1_555
C2 Nb1 1_555 1_555
C3 N2 1_555 1_555
C4 N2 1_555 1_555
C5 C3 1_555 1_555
C6 C4 1_555 1_555
C7 C5 1_555 1_555
C8 C7 1_555 1_555
C9 N3 1_555 1_555
C10 N3 1_555 1_555
C11 C9 1_555 1_555
C12 C10 1_555 1_555
C13 C11 1_555 1_555
C14 C13 1_555 1_555
H1 C3 1_555 1_555
H2 C4 1_555 1_555
H3 C5 1_555 1_555
H4 C6 1_555 1_555
H5 C8 1_555 1_555
H6 C9 1_555 1_555
H7 C10 1_555 1_555
H8 C11 1_555 1_555
H9 C12 1_555 1_555
H10 C14 1_555 1_555
H11 O2 1_555 1_555
H12 O3 1_555 1_555
Mn1F N1F 1_555 1_555
Mn1G N1K 1_555 1_555
Mn1A N1M 1_555 1_555
O2H N5H 1_555 1_555
O2F N5F 1_555 1_555
O2N N5N 1_555 1_555
O3H N6H 1_555 1_555
O3F N6F 1_555 1_555
O3N N6N 1_555 1_555
N1F C1F 1_555 1_555
N1K C1K 1_555 1_555
N1M C1M 1_555 1_555
N1H Mn1 1_555 1_555
N1N Mn1F 1_555 1_555
N2H Mn1 1_555 1_555
N2F Mn1F 1_555 1_555
N2N Mn1F 1_555 1_555
N3H Mn1 1_555 1_555
N3F Mn1F 1_555 1_555
N3N Mn1F 1_555 1_555
N4F C2F 1_555 1_555
N4K C2K 1_555 1_555
N4M C2M 1_555 1_555
N5H C8H 1_555 1_555
N5F C8F 1_555 1_555
N5N C8N 1_555 1_555
N6H C14H 1_555 1_555
N6F C14F 1_555 1_555
N6N C14N 1_555 1_555
C1F Nb1 1_555 1_555
C1K Nb1 1_555 1_555
C1M Nb1 1_555 1_555
C2F Nb1 1_555 1_555
C2K Nb1 1_555 1_555
C2M Nb1 1_555 1_555
C3H N2H 1_555 1_555
C3F N2F 1_555 1_555
C3N N2N 1_555 1_555
C4H N2H 1_555 1_555
C4F N2F 1_555 1_555
C4N N2N 1_555 1_555
C5H C3H 1_555 1_555
C5F C3F 1_555 1_555
C5N C3N 1_555 1_555
C6H C4H 1_555 1_555
C6F C4F 1_555 1_555
C6N C4N 1_555 1_555
C7H C5H 1_555 1_555
C7F C5F 1_555 1_555
C7N C5N 1_555 1_555
C8H C7H 1_555 1_555
C8F C7F 1_555 1_555
C8N C7N 1_555 1_555
C9H N3H 1_555 1_555
C9F N3F 1_555 1_555
C9N N3N 1_555 1_555
C10H N3H 1_555 1_555
C10F N3F 1_555 1_555
C10N N3N 1_555 1_555
C11H C9H 1_555 1_555
C11F C9F 1_555 1_555
C11N C9N 1_555 1_555
C12H C10H 1_555 1_555
C12F C10F 1_555 1_555
C12N C10N 1_555 1_555
C13H C11H 1_555 1_555
C13F C11F 1_555 1_555
C13N C11N 1_555 1_555
C14H C13H 1_555 1_555
C14F C13F 1_555 1_555
C14N C13N 1_555 1_555
H1H C3H 1_555 1_555
H1F C3F 1_555 1_555
H1N C3N 1_555 1_555
H2H C4H 1_555 1_555
H2F C4F 1_555 1_555
H2N C4N 1_555 1_555
H3H C5H 1_555 1_555
H3F C5F 1_555 1_555
H3N C5N 1_555 1_555
H4H C6H 1_555 1_555
H4F C6F 1_555 1_555
H4N C6N 1_555 1_555
H5H C8H 1_555 1_555
H5F C8F 1_555 1_555
H5N C8N 1_555 1_555
H6H C9H 1_555 1_555
H6F C9F 1_555 1_555
H6N C9N 1_555 1_555
H7H C10H 1_555 1_555
H7F C10F 1_555 1_555
H7N C10N 1_555 1_555
H8H C11H 1_555 1_555
H8F C11F 1_555 1_555
H8N C11N 1_555 1_555
H9H C12H 1_555 1_555
H9F C12F 1_555 1_555
H9N C12N 1_555 1_555
H10H C14H 1_555 1_555
H10F C14F 1_555 1_555
H10N C14N 1_555 1_555
H11H O2H 1_555 1_555
H11F O2F 1_555 1_555
H11N O2N 1_555 1_555
H12H O3H 1_555 1_555
H12F O3F 1_555 1_555
H12N O3N 1_555 1_555
C6 C7 1_555 1_555
C12 C13 1_555 1_555
C6H C7H 1_555 1_555
C6F C7F 1_555 1_555
C6N C7N 1_555 1_555
C12H C13H 1_555 1_555
C12F C13F 1_555 1_555
C12N C13N 1_555 1_555

#END
