
#######################################################################
#
#                 Cambridge Crystallographic Data Centre
#                                CCDC 
#
#######################################################################
#
# If this CIF has been generated from an entry in the Cambridge 
# Structural Database, then it will include bibliographic, chemical, 
# crystal, experimental, refinement or atomic coordinate data resulting 
# from the CCDC's data processing and validation procedures.
#
#######################################################################

data_UTETUJ
_symmetry_cell_setting           tetragonal
_symmetry_space_group_name_H-M   'I 41/a'
_symmetry_Int_Tables_number      88
_space_group_name_Hall           '-I 4ad'
loop_
_symmetry_equiv_pos_site_id
_symmetry_equiv_pos_as_xyz
1 x,y,z
2 1/2-x,-y,1/2+z
3 3/4-y,1/4+x,1/4+z
4 3/4+y,3/4-x,3/4+z
5 1/2+x,1/2+y,1/2+z
6 -x,1/2-y,z
7 1/4-y,3/4+x,3/4+z
8 1/4+y,1/4-x,1/4+z
9 -x,-y,-z
10 1/2+x,y,1/2-z
11 1/4+y,3/4-x,3/4-z
12 1/4-y,1/4+x,1/4-z
13 1/2-x,1/2-y,1/2-z
14 x,1/2+y,-z
15 3/4+y,1/4-x,1/4-z
16 3/4-y,3/4+x,3/4-z
_cell_length_a                   20.2001(4)
_cell_length_b                   20.2001(4)
_cell_length_c                   14.9565(5)
_cell_angle_alpha                90
_cell_angle_beta                 90
_cell_angle_gamma                90
_cell_volume                     6102.91
loop_
_atom_site_label
_atom_site_type_symbol
_atom_site_fract_x
_atom_site_fract_y
_atom_site_fract_z
Fe1 Fe 0.00000 0.00000 0.50000
Nb1 Nb 0.00000 0.25000 0.625
C1 C -0.00686 0.14493 0.57954
C2 C 0.06338 0.25587 0.50037
C3 C -0.02277 -0.00238 0.28488
C4 C -0.02219 0.10138 0.35536
C5 C -0.03101 0.02601 0.20025
C6 C -0.03354 0.13594 0.27294
C7 C -0.03675 0.09721 0.19131
C8 C -0.0471 0.12947 0.1013
C9 C 0.14869 -0.04514 0.49869
C10 C 0.14118 0.07214 0.49492
C11 C 0.21995 -0.0465 0.5001
C12 C 0.21334 0.0744 0.49791
C13 C 0.2536 0.0167 0.5017
C14 C 0.32512 0.02057 0.503
N1 N -0.00251 0.09134 0.55708
N2 N -0.01709 0.03305 0.35758
N3 N 0.11248 0.01298 0.49701
N4 N 0.09885 0.2513 0.4376
N5 N -0.06811 0.09858 0.0344
N6 N 0.35807 -0.03421 0.49141
O2 O -0.07669 0.14067 -0.04067
O3 O 0.42704 -0.02439 0.49863
Fe1E Fe 0.00000 0.50000 0.50000
Fe1G Fe 0.25000 0.25000 0.75000
Fe1B Fe -0.25000 0.25000 0.75000
C1E C 0.00686 0.35507 0.57954
C1K C 0.10507 0.24314 0.67046
C1N C -0.10507 0.25686 0.67046
C2E C -0.06338 0.24413 0.50037
C2K C -0.00587 0.31338 0.74963
C2N C 0.00587 0.18662 0.74963
C3H C 0.02277 0.00238 0.71512
C3E C 0.02277 0.50238 0.28488
C3M C -0.02277 0.49762 0.71512
C4H C 0.02219 -0.10138 0.64464
C4E C 0.02219 0.39862 0.35536
C4M C -0.02219 0.60138 0.64464
C5H C 0.03101 -0.02601 0.79975
C5E C 0.03101 0.47399 0.20025
C5M C -0.03101 0.52601 0.79975
C6H C 0.03354 -0.13594 0.72706
C6E C 0.03354 0.36406 0.27294
C6M C -0.03354 0.63594 0.72706
C7H C 0.03675 -0.09721 0.80869
C7E C 0.03675 0.40279 0.19131
C7M C -0.03675 0.59721 0.80869
C8H C 0.0471 -0.12947 0.8987
C8E C 0.0471 0.37053 0.1013
C8M C -0.0471 0.62947 0.8987
C9H C -0.14869 0.04514 0.50131
C9E C -0.14869 0.54514 0.49869
C9M C 0.14869 0.45486 0.50131
C10H C -0.14118 -0.07214 0.50508
C10E C -0.14118 0.42786 0.49492
C10M C 0.14118 0.57214 0.50508
C11H C -0.21995 0.0465 0.4999
C11E C -0.21995 0.5465 0.5001
C11M C 0.21995 0.4535 0.4999
C12H C -0.21334 -0.0744 0.50209
C12E C -0.21334 0.4256 0.49791
C12M C 0.21334 0.5744 0.50209
C13H C -0.2536 -0.0167 0.4983
C13E C -0.2536 0.4833 0.5017
C13M C 0.2536 0.5167 0.4983
C14H C -0.32512 -0.02057 0.497
C14E C -0.32512 0.47943 0.503
C14M C 0.32512 0.52057 0.497
N1E N 0.00251 0.40866 0.55708
N1K N 0.15866 0.24749 0.69292
N1N N -0.15866 0.25251 0.69292
N1H N 0.00251 -0.09134 0.44292
N1M N -0.00251 0.59134 0.44292
N2H N 0.01709 -0.03305 0.64242
N2E N 0.01709 0.46695 0.35758
N2M N -0.01709 0.53305 0.64242
N3H N -0.11248 -0.01298 0.50299
N3E N -0.11248 0.48702 0.49701
N3M N 0.11248 0.51298 0.50299
N4E N -0.09885 0.2487 0.4376
N4K N -0.0013 0.34885 0.8124
N4N N 0.0013 0.15115 0.8124
N5H N 0.06811 -0.09858 0.9656
N5E N 0.06811 0.40142 0.0344
N5M N -0.06811 0.59858 0.9656
N6H N -0.35807 0.03421 0.50859
N6E N -0.35807 0.53421 0.49141
N6M N 0.35807 0.46579 0.50859
O2H O 0.07669 -0.14067 1.04067
O2E O 0.07669 0.35933 -0.04067
O2M O -0.07669 0.64067 1.04067
O3H O -0.42704 0.02439 0.50137
O3E O -0.42704 0.52439 0.49863
O3M O 0.42704 0.47561 0.50137
O1 O 0.00000 0.25000 0.00000
loop_
_geom_bond_atom_site_label_1
_geom_bond_atom_site_label_2
_geom_bond_site_symmetry_1
_geom_bond_site_symmetry_2
Fe1 N1 1_555 1_555
Nb1 C1 1_555 1_555
C1 N1 1_555 1_555
C2 Nb1 1_555 1_555
C3 C5 1_555 1_555
C4 C6 1_555 1_555
C5 C7 1_555 1_555
C6 C7 1_555 1_555
C7 C8 1_555 1_555
C8 N5 1_555 1_555
C9 C11 1_555 1_555
C10 C12 1_555 1_555
C11 C13 1_555 1_555
C12 C13 1_555 1_555
C13 C14 1_555 1_555
C14 N6 1_555 1_555
N2 Fe1 1_555 1_555
N3 Fe1 1_555 1_555
N4 C2 1_555 1_555
N5 O2 1_555 1_555
N6 O3 1_555 1_555
Fe1E N1E 1_555 1_555
Fe1G N1K 1_555 1_555
Fe1B N1N 1_555 1_555
C1E Nb1 1_555 1_555
C1K Nb1 1_555 1_555
C1N Nb1 1_555 1_555
C2E Nb1 1_555 1_555
C2K Nb1 1_555 1_555
C2N Nb1 1_555 1_555
C3H C5H 1_555 1_555
C3E C5E 1_555 1_555
C3M C5M 1_555 1_555
C4H C6H 1_555 1_555
C4E C6E 1_555 1_555
C4M C6M 1_555 1_555
C5H C7H 1_555 1_555
C5E C7E 1_555 1_555
C5M C7M 1_555 1_555
C6H C7H 1_555 1_555
C6E C7E 1_555 1_555
C6M C7M 1_555 1_555
C7H C8H 1_555 1_555
C7E C8E 1_555 1_555
C7M C8M 1_555 1_555
C8H N5H 1_555 1_555
C8E N5E 1_555 1_555
C8M N5M 1_555 1_555
C9H C11H 1_555 1_555
C9E C11E 1_555 1_555
C9M C11M 1_555 1_555
C10H C12H 1_555 1_555
C10E C12E 1_555 1_555
C10M C12M 1_555 1_555
C11H C13H 1_555 1_555
C11E C13E 1_555 1_555
C11M C13M 1_555 1_555
C12H C13H 1_555 1_555
C12E C13E 1_555 1_555
C12M C13M 1_555 1_555
C13H C14H 1_555 1_555
C13E C14E 1_555 1_555
C13M C14M 1_555 1_555
C14H N6H 1_555 1_555
C14E N6E 1_555 1_555
C14M N6M 1_555 1_555
N1E C1E 1_555 1_555
N1K C1K 1_555 1_555
N1N C1N 1_555 1_555
N1H Fe1 1_555 1_555
N1M Fe1E 1_555 1_555
N2H Fe1 1_555 1_555
N2E Fe1E 1_555 1_555
N2M Fe1E 1_555 1_555
N3H Fe1 1_555 1_555
N3E Fe1E 1_555 1_555
N3M Fe1E 1_555 1_555
N4E C2E 1_555 1_555
N4K C2K 1_555 1_555
N4N C2N 1_555 1_555
N5H O2H 1_555 1_555
N5E O2E 1_555 1_555
N5M O2M 1_555 1_555
N6H O3H 1_555 1_555
N6E O3E 1_555 1_555
N6M O3M 1_555 1_555
C3 N2 1_555 1_555
C4 N2 1_555 1_555
C9 N3 1_555 1_555
C10 N3 1_555 1_555
C3H N2H 1_555 1_555
C3E N2E 1_555 1_555
C3M N2M 1_555 1_555
C4H N2H 1_555 1_555
C4E N2E 1_555 1_555
C4M N2M 1_555 1_555
C9H N3H 1_555 1_555
C9E N3E 1_555 1_555
C9M N3M 1_555 1_555
C10H N3H 1_555 1_555
C10E N3E 1_555 1_555
C10M N3M 1_555 1_555

#END
