
#######################################################################
#
#                 Cambridge Crystallographic Data Centre
#                                CCDC 
#
#######################################################################
#
# If this CIF has been generated from an entry in the Cambridge 
# Structural Database, then it will include bibliographic, chemical, 
# crystal, experimental, refinement or atomic coordinate data resulting 
# from the CCDC's data processing and validation procedures.
#
#######################################################################

data_UTEXOH
_symmetry_cell_setting           monoclinic
_symmetry_space_group_name_H-M   'C 2/c'
_symmetry_Int_Tables_number      15
_space_group_name_Hall           '-C 2yn'
loop_
_symmetry_equiv_pos_site_id
_symmetry_equiv_pos_as_xyz
1 x,y,z
2 -x,y,1/2-z
3 1/2+x,1/2+y,z
4 1/2-x,1/2+y,1/2-z
5 -x,-y,-z
6 x,-y,1/2+z
7 1/2-x,1/2-y,-z
8 1/2+x,1/2-y,1/2+z
_cell_length_a                   22.729(5)
_cell_length_b                   10.988(2)
_cell_length_c                   9.3631(19)
_cell_angle_alpha                90
_cell_angle_beta                 91.20(3)
_cell_angle_gamma                90
_cell_volume                     2337.89
loop_
_atom_site_label
_atom_site_type_symbol
_atom_site_fract_x
_atom_site_fract_y
_atom_site_fract_z
Ba1 Ba 0.50000 0.57175(4) 0.25000
Ba2 Ba 0.335680(14) 0.34963(3) 0.07466(3)
N1 N 0.50000 0.8362(6) 0.25000
N2 N 0.32745(19) 0.2390(4) 0.3439(4)
O1 O 0.41781(17) 0.3903(4) 0.2851(4)
O2 O 0.42703(18) 0.4398(4) 0.5152(4)
O3 O 0.57156(19) 0.7083(4) 0.0887(4)
O4 O 0.21069(17) 0.0331(4) 0.2674(4)
O5 O 0.6163(2) 0.8734(4) 0.0099(5)
O6 O 0.24820(17) 0.1829(3) 0.1382(4)
C1 C 0.4067(3) 0.3766(5) 0.4138(6)
C2 C 0.5369(2) 0.8999(5) 0.1687(6)
C3 C 0.5380(3) 1.0252(5) 0.1665(7)
H1 H 0.5642 1.0662 0.1088
C4 C 0.50000 1.0886(8) 0.25000
H2 H 0.500 1.1733 0.250
C5 C 0.5784(3) 0.8234(5) 0.0805(6)
C6 C 0.2451(2) 0.1191(5) 0.2505(6)
C7 C 0.3628(2) 0.2785(5) 0.4513(5)
C8 C 0.3609(2) 0.2292(5) 0.5878(6)
H3 H 0.3849 0.2599 0.661
C9 C 0.3229(3) 0.1338(6) 0.6131(6)
H4 H 0.322 0.0962 0.702
C10 C 0.2864(3) 0.0963(5) 0.5030(6)
H5 H 0.2601 0.0329 0.5175
C11 C 0.2885(2) 0.1517(4) 0.3713(6)
Ba1D Ba 0.50000 0.42825(4) 0.75000
Ba2D Ba 0.664320(14) 0.65037(3) 0.92534(3)
Ba2D_2 Ba 0.664320(14) 0.65037(3) -0.07466(3)
Ba2C Ba 0.164320(14) -0.15037(3) 0.42534(3)
Ba2F Ba 0.164320(14) 0.15037(3) -0.07466(3)
Ba2E Ba 0.335680(14) 0.65037(3) 0.57466(3)
Ba2G Ba 0.835680(14) 1.15037(3) 0.57466(3)
Ba2B Ba 0.835680(14) 0.84963(3) 1.07466(3)
N2D N 0.67255(19) 0.7610(4) 0.6561(4)
O1D O 0.58219(17) 0.6097(4) 0.7149(4)
O1A O 0.58219(17) 0.3903(4) 0.2149(4)
O2D O 0.57297(18) 0.5602(4) 0.4848(4)
O2E O 0.42703(18) 0.5602(4) 0.0152(4)
O3A O 0.42844(19) 0.7083(4) 0.4113(4)
O3D O 0.42844(19) 0.2917(4) -0.0887(4)
O3_2 O 0.57156(19) 0.7083(4) 1.0887(4)
O4D O 0.78931(17) 0.9669(4) 0.7326(4)
O4C O 0.28931(17) 0.5331(4) 0.2326(4)
O4G O 0.71069(17) 0.4669(4) 0.7674(4)
O5A O 0.3837(2) 0.8734(4) 0.4901(5)
O5D O 0.3837(2) 0.1266(4) -0.0099(5)
O5_2 O 0.6163(2) 0.8734(4) 1.0099(5)
O6D O 0.75180(17) 0.8171(3) 0.8618(4)
O6F O 0.25180(17) 0.3171(3) -0.1382(4)
O6B O 0.74820(17) 0.6829(3) 1.1382(4)
C1D C 0.5933(3) 0.6234(5) 0.5862(6)
C2A C 0.4631(2) 0.8999(5) 0.3313(6)
C3A C 0.4620(3) 1.0252(5) 0.3335(7)
H1A H 0.4358 1.0662 0.3912
C5A C 0.4216(3) 0.8234(5) 0.4195(6)
C6D C 0.7549(2) 0.8809(5) 0.7495(6)
C7D C 0.6372(2) 0.7215(5) 0.5487(5)
C8D C 0.6391(2) 0.7708(5) 0.4122(6)
H3D H 0.6151 0.7401 0.339
C9D C 0.6771(3) 0.8662(6) 0.3869(6)
H4D H 0.678 0.9038 0.298
C10D C 0.7136(3) 0.9037(5) 0.4970(6)
H5D H 0.7399 0.9671 0.4825
C11D C 0.7115(2) 0.8483(4) 0.6287(6)
loop_
_geom_bond_atom_site_label_1
_geom_bond_atom_site_label_2
_geom_bond_site_symmetry_1
_geom_bond_site_symmetry_2
Ba1 N1 1_555 1_555
Ba2 N2 1_555 1_555
N1 C2 1_555 1_555
N2 C7 1_555 1_555
O1 Ba1 1_555 1_555
O2 C1 1_555 1_555
O3 Ba1 1_555 1_555
O4 C6 1_555 1_555
O5 C5 1_555 1_555
O6 Ba2 1_555 1_555
C1 O1 1_555 1_555
C2 C3 1_555 1_555
C3 H1 1_555 1_555
C4 C3 1_555 1_555
H2 C4 1_555 1_555
C5 O3 1_555 1_555
C6 O6 1_555 1_555
C7 C1 1_555 1_555
C8 C7 1_555 1_555
H3 C8 1_555 1_555
C9 C8 1_555 1_555
H4 C9 1_555 1_555
C10 C9 1_555 1_555
H5 C10 1_555 1_555
C11 N2 1_555 1_555
Ba1D O2 1_555 1_555
Ba2D N2D 1_555 1_555
Ba2D_2 O3 1_555 1_555
Ba2C O4 1_555 1_555
Ba2F O6 1_555 1_555
Ba2E O3A 1_555 1_555
Ba2G O4D 1_555 1_555
Ba2B O6D 1_555 1_555
N2D C7D 1_555 1_555
O1D Ba1D 1_555 1_555
O1A Ba1 1_555 1_555
O2D Ba1 1_555 1_555
O2E Ba1 1_555 1_555
O3A Ba1 1_555 1_555
O3D Ba2 1_555 1_555
O3_2 Ba2D 1_555 1_555
O4D C6D 1_555 1_555
O4C Ba2 1_555 1_555
O4G Ba2D 1_555 1_555
O5A Ba2E 1_555 1_555
O5D Ba2 1_555 1_555
O5_2 Ba2D 1_555 1_555
O6D Ba2D 1_555 1_555
O6F Ba2 1_555 1_555
O6B Ba2D 1_555 1_555
C1D O1D 1_555 1_555
C2A N1 1_555 1_555
C3A C4 1_555 1_555
H1A C3A 1_555 1_555
C5A O3A 1_555 1_555
C6D O6D 1_555 1_555
C7D C1D 1_555 1_555
C8D C7D 1_555 1_555
H3D C8D 1_555 1_555
C9D C8D 1_555 1_555
H4D C9D 1_555 1_555
C10D C9D 1_555 1_555
H5D C10D 1_555 1_555
C11D N2D 1_555 1_555
Ba2 O1 1_555 1_555
O5 Ba2D_2 1_555 1_555
C2 C5 1_555 1_555
C6 C11 1_555 1_555
C10 C11 1_555 1_555
Ba2D O1D 1_555 1_555
Ba2F O6F 1_555 1_555
Ba2B O6B 1_555 1_555
O2D C1D 1_555 1_555
O5A C5A 1_555 1_555
C2A C3A 1_555 1_555
C2A C5A 1_555 1_555
C6D C11D 1_555 1_555
C10D C11D 1_555 1_555

#END
