
#######################################################################
#
#                 Cambridge Crystallographic Data Centre
#                                CCDC 
#
#######################################################################
#
# If this CIF has been generated from an entry in the Cambridge 
# Structural Database, then it will include bibliographic, chemical, 
# crystal, experimental, refinement or atomic coordinate data resulting 
# from the CCDC's data processing and validation procedures.
#
#######################################################################

data_UTEYOI
_symmetry_cell_setting           monoclinic
_symmetry_space_group_name_H-M   'C 2'
_symmetry_Int_Tables_number      5
_space_group_name_Hall           'C 2y'
loop_
_symmetry_equiv_pos_site_id
_symmetry_equiv_pos_as_xyz
1 x,y,z
2 -x,y,-z
3 1/2+x,1/2+y,z
4 1/2-x,1/2+y,-z
_cell_length_a                   18.519(8)
_cell_length_b                   13.366(6)
_cell_length_c                   7.971(4)
_cell_angle_alpha                90
_cell_angle_beta                 113.072(5)
_cell_angle_gamma                90
_cell_volume                     1815.21
loop_
_atom_site_label
_atom_site_type_symbol
_atom_site_fract_x
_atom_site_fract_y
_atom_site_fract_z
Co1 Co 0.79281(4) 0.16882(7) 0.61246(10)
N1 N 0.7648(4) 0.1197(5) 0.3557(8)
N2 N 0.7352(3) 0.0183(5) 0.1223(7)
N3 N 0.4997(4) -0.1682(4) -0.2527(9)
N4 N 0.3792(3) -0.2274(5) -0.3497(7)
O1 O 0.7087(3) 0.2488(5) 0.6318(7)
O2 O 0.6455(3) 0.1048(4) 0.5833(9)
O3 O 0.8624(3) 0.0780(4) 0.7956(7)
O4 O 0.7968(3) -0.0637(5) 0.7031(8)
Br1 Br 0.5000 0.54936(9) 0.5000
Br2 Br 1.0000 -0.36849(9) 1.0000
C1 C 0.5000 0.4069(8) 0.5000
C2 C 0.5700(4) 0.3578(5) 0.5460(10)
H1 H 0.6167 0.3933 0.5769
C3 C 0.5699(4) 0.2527(6) 0.5455(8)
C4 C 0.5000 0.2010(6) 0.5000
H2 H 0.5000 0.1314 0.5000
C5 C 0.6451(4) 0.1952(6) 0.5891(9)
C6 C 1.0000 -0.2269(8) 1.0000
C7 C 0.9312(4) -0.1755(6) 0.9014(10)
H3 H 0.8853 -0.2105 0.8359
C8 C 0.9312(4) -0.0723(5) 0.9012(8)
C9 C 1.0000 -0.0218(8) 1.0000
H4 H 1.0000 0.0478 1.0000
C10 C 0.8571(4) -0.0179(6) 0.7897(9)
C11 C 0.7559(5) 0.1740(7) 0.2048(10)
H5 H 0.7630 0.2428 0.2030
C12 C 0.7354(5) 0.1137(6) 0.0581(11)
H6 H 0.7237 0.1327 -0.0619
C13 C 0.7515(3) 0.0246(5) 0.3007(9)
H7 H 0.7533 -0.0294 0.3758
C14 C 0.7079(4) -0.0729(7) 0.0134(11)
H8 H 0.7284 -0.1313 0.0895
H9 H 0.7266 -0.0741 -0.0844
C15 C 0.6176(4) -0.0750(7) -0.0666(12)
H10 H 0.5993 -0.0695 0.0317
H11 H 0.5977 -0.0179 -0.1465
C16 C 0.5856(4) -0.1701(6) -0.1724(10)
H12 H 0.6052 -0.1770 -0.2683
H13 H 0.6036 -0.2272 -0.0917
C17 C 0.4513(4) -0.0924(6) -0.3514(9)
H14 H 0.4660 -0.0286 -0.3722
C18 C 0.3763(3) -0.1311(6) -0.4130(9)
H15 H 0.3309 -0.0974 -0.4859
C19 C 0.4546(4) -0.2474(6) -0.2545(9)
H16 H 0.4737 -0.3081 -0.1969
Co1B Co 1.29281(4) 0.66882(7) 1.61246(10)
Co1B_2 Co 0.29281(4) -0.33118(7) -0.38754(10)
Co1A Co 0.20719(4) 0.16882(7) 0.38754(10)
Co1A_2 Co 1.20719(4) 0.16882(7) 1.38754(10)
N1B N 1.2648(4) 0.6197(5) 1.3557(8)
N2B N 1.2352(3) 0.5183(5) 1.1223(7)
N3B N 0.9997(4) 0.3318(4) 0.7473(9)
N4B N 0.8792(3) 0.2726(5) 0.6503(7)
N4_2 N 1.3792(3) 0.7726(5) 1.6503(7)
O1A O 0.2913(3) 0.2488(5) 0.3682(7)
O1B O 1.2087(3) 0.7488(5) 1.6318(7)
O2A O 0.3545(3) 0.1048(4) 0.4167(9)
O3A O 1.1376(3) 0.0780(4) 1.2044(7)
O3B O 1.3624(3) 0.5780(4) 1.7956(7)
O4A O 1.2032(3) -0.0637(5) 1.2969(8)
C2A C 0.4300(4) 0.3578(5) 0.4540(10)
H1A H 0.3833 0.3933 0.4231
C3A C 0.4301(4) 0.2527(6) 0.4545(8)
C5A C 0.3549(4) 0.1952(6) 0.4109(9)
C7A C 1.0688(4) -0.1755(6) 1.0986(10)
H3A H 1.1147 -0.2105 1.1641
C8A C 1.0688(4) -0.0723(5) 1.0988(8)
C10A C 1.1429(4) -0.0179(6) 1.2103(9)
C11B C 1.2559(5) 0.6740(7) 1.2048(10)
H5B H 1.2630 0.7428 1.2030
C12B C 1.2354(5) 0.6137(6) 1.0581(11)
H6B H 1.2237 0.6327 0.9381
C13B C 1.2515(3) 0.5246(5) 1.3007(9)
H7B H 1.2533 0.4706 1.3758
C14B C 1.2079(4) 0.4271(7) 1.0134(11)
H8B H 1.2284 0.3687 1.0895
H9B H 1.2266 0.4259 0.9156
C15B C 1.1176(4) 0.4250(7) 0.9334(12)
H10B H 1.0993 0.4305 1.0317
H11B H 1.0977 0.4821 0.8535
C16B C 1.0856(4) 0.3299(6) 0.8276(10)
H12B H 1.1052 0.3230 0.7317
H13B H 1.1036 0.2728 0.9083
C17B C 0.9513(4) 0.4076(6) 0.6486(9)
H14B H 0.9660 0.4714 0.6278
C18B C 0.8763(3) 0.3689(6) 0.5870(9)
H15B H 0.8309 0.4026 0.5141
C19B C 0.9546(4) 0.2526(6) 0.7455(9)
H16B H 0.9737 0.1919 0.8031
loop_
_geom_bond_atom_site_label_1
_geom_bond_atom_site_label_2
_geom_bond_site_symmetry_1
_geom_bond_site_symmetry_2
Co1 N1 1_555 1_555
N1 C11 1_555 1_555
N2 C12 1_555 1_555
N3 C16 1_555 1_555
N4 C18 1_555 1_555
O1 Co1 1_555 1_555
O2 C5 1_555 1_555
O3 Co1 1_555 1_555
O4 C10 1_555 1_555
Br1 C1 1_555 1_555
Br2 C6 1_555 1_555
C1 C2 1_555 1_555
C2 H1 1_555 1_555
C3 C2 1_555 1_555
C4 C3 1_555 1_555
H2 C4 1_555 1_555
C5 O1 1_555 1_555
C6 C7 1_555 1_555
C7 H3 1_555 1_555
C8 C7 1_555 1_555
C9 C8 1_555 1_555
H4 C9 1_555 1_555
C10 O3 1_555 1_555
C11 H5 1_555 1_555
C12 C11 1_555 1_555
H6 C12 1_555 1_555
C13 N1 1_555 1_555
H7 C13 1_555 1_555
C14 N2 1_555 1_555
H8 C14 1_555 1_555
H9 C14 1_555 1_555
C15 C14 1_555 1_555
H10 C15 1_555 1_555
H11 C15 1_555 1_555
C16 C15 1_555 1_555
H12 C16 1_555 1_555
H13 C16 1_555 1_555
C17 N3 1_555 1_555
H14 C17 1_555 1_555
C18 C17 1_555 1_555
H15 C18 1_555 1_555
C19 N3 1_555 1_555
H16 C19 1_555 1_555
Co1B N1B 1_555 1_555
Co1B_2 N4 1_555 1_555
Co1A O1A 1_555 1_555
Co1A_2 O3A 1_555 1_555
N1B C11B 1_555 1_555
N2B C12B 1_555 1_555
N3B C16B 1_555 1_555
N4B Co1 1_555 1_555
N4_2 Co1B 1_555 1_555
O1A C5A 1_555 1_555
O1B Co1B 1_555 1_555
O2A C5A 1_555 1_555
O3A C10A 1_555 1_555
O3B Co1B 1_555 1_555
O4A C10A 1_555 1_555
C2A C1 1_555 1_555
H1A C2A 1_555 1_555
C3A C4 1_555 1_555
C5A C3A 1_555 1_555
C7A C6 1_555 1_555
H3A C7A 1_555 1_555
C8A C9 1_555 1_555
C10A C8A 1_555 1_555
C11B H5B 1_555 1_555
C12B C11B 1_555 1_555
H6B C12B 1_555 1_555
C13B N1B 1_555 1_555
H7B C13B 1_555 1_555
C14B N2B 1_555 1_555
H8B C14B 1_555 1_555
H9B C14B 1_555 1_555
C15B C14B 1_555 1_555
H10B C15B 1_555 1_555
H11B C15B 1_555 1_555
C16B C15B 1_555 1_555
H12B C16B 1_555 1_555
H13B C16B 1_555 1_555
C17B N3B 1_555 1_555
H14B C17B 1_555 1_555
C18B N4B 1_555 1_555
H15B C18B 1_555 1_555
C19B N3B 1_555 1_555
H16B C19B 1_555 1_555
N2 C13 1_555 1_555
N4 C19 1_555 1_555
C3 C5 1_555 1_555
C8 C10 1_555 1_555
N2B C13B 1_555 1_555
N4B C19B 1_555 1_555
C2A C3A 1_555 1_555
C7A C8A 1_555 1_555
C17B C18B 1_555 1_555

#END
