
#######################################################################
#
#                 Cambridge Crystallographic Data Centre
#                                CCDC 
#
#######################################################################
#
# If this CIF has been generated from an entry in the Cambridge 
# Structural Database, then it will include bibliographic, chemical, 
# crystal, experimental, refinement or atomic coordinate data resulting 
# from the CCDC's data processing and validation procedures.
#
#######################################################################

data_UTEYUO
_symmetry_cell_setting           triclinic
_symmetry_space_group_name_H-M   'P -1'
_symmetry_Int_Tables_number      2
_space_group_name_Hall           '-P 1'
loop_
_symmetry_equiv_pos_site_id
_symmetry_equiv_pos_as_xyz
1 x,y,z
2 -x,-y,-z
_cell_length_a                   9.7514(13)
_cell_length_b                   10.1430(14)
_cell_length_c                   11.2886(16)
_cell_angle_alpha                108.396(1)
_cell_angle_beta                 106.263(1)
_cell_angle_gamma                102.921(1)
_cell_volume                     955.575
loop_
_atom_site_label
_atom_site_type_symbol
_atom_site_fract_x
_atom_site_fract_y
_atom_site_fract_z
Ni1 Ni 0.50219(4) 0.93746(3) -0.29642(3)
N1 N 0.7039(3) 1.0548(2) -0.1294(2)
N2 N 0.8739(3) 1.1342(2) 0.0769(2)
N3 N 1.1341(3) 1.5931(3) 0.3725(2)
N4 N 1.3011(3) 1.8012(2) 0.5370(2)
O1 O 0.4706(2) 0.77672(19) -0.22659(19)
O2 O 0.5863(3) 0.6372(2) -0.3283(2)
O3 O 0.4888(2) 0.12710(19) -0.33762(18)
O4 O 0.3917(2) 0.07222(19) -0.19845(19)
O5 O 0.6295(2) 0.8651(2) -0.40680(18)
H1 H 0.5870 0.8515 -0.4856
H2 H 0.6259 0.7861 -0.3983
C1 C 0.4415(3) 0.5462(3) -0.2151(3)
C2 C 0.4579(3) 0.4087(3) -0.2580(3)
H3 H 0.5097 0.3874 -0.3154
C3 C 0.3970(3) 0.3018(3) -0.2156(2)
C4 C 0.3178(3) 0.3329(3) -0.1311(3)
H4 H 0.2765 0.2626 -0.1025
C5 C 0.3015(3) 0.4702(3) -0.0904(3)
C6 C 0.3631(3) 0.5769(3) -0.1304(3)
H5 H 0.3520 0.6691 -0.1008
C7 C 0.5078(3) 0.6629(3) -0.2599(3)
C8 C 0.4261(3) 0.1583(3) -0.2533(3)
C9 C 0.8474(4) 1.1066(3) -0.1283(3)
H6 H 0.8687 1.1087 -0.2032
C10 C 0.9527(4) 1.1540(3) -0.0031(3)
H7 H 1.0576 1.1925 0.0236
C11 C 0.7252(3) 1.0738(3) -0.0038(3)
H8 H 0.6471 1.0487 0.0257
C12 C 0.9390(4) 1.1716(3) 0.2226(3)
H9 H 1.0318 1.1484 0.2435
H10 H 0.8680 1.1107 0.2457
C13 C 0.9744(4) 1.3345(4) 0.3092(3)
H11 H 0.8800 1.3549 0.2965
H12 H 1.0217 1.3531 0.4035
C14 C 1.0771(4) 1.4366(3) 0.2756(3)
H13 H 1.1632 1.4048 0.2727
H14 H 1.0228 1.4298 0.1863
C15 C 1.0678(4) 1.6994(4) 0.3774(3)
H15 H 0.9707 1.6868 0.3225
C16 C 1.1726(4) 1.8269(3) 0.4786(3)
H16 H 1.1589 1.9181 0.5043
C17 C 1.2729(4) 1.6590(3) 0.4697(3)
H17 H 1.3415 1.6106 0.4879
Br1 Br 0.19094(4) 0.51523(3) 0.02190(3)
Ni1_2 Ni 1.50219(4) 1.93746(3) 0.70358(3)
Ni1_3 Ni 0.50219(4) -0.06254(3) -0.29642(3)
N4_2 N 0.3011(3) 0.8012(2) -0.4630(2)
O3_2 O 0.4888(2) 1.12710(19) -0.33762(18)
O4_2 O 0.3917(2) 1.07222(19) -0.19845(19)
loop_
_geom_bond_atom_site_label_1
_geom_bond_atom_site_label_2
_geom_bond_site_symmetry_1
_geom_bond_site_symmetry_2
Ni1 N1 1_555 1_555
N1 C9 1_555 1_555
N2 C10 1_555 1_555
N3 C14 1_555 1_555
N4 C16 1_555 1_555
O1 Ni1 1_555 1_555
O2 C7 1_555 1_555
O3 C8 1_555 1_555
O4 C8 1_555 1_555
O5 Ni1 1_555 1_555
H1 O5 1_555 1_555
H2 O5 1_555 1_555
C1 C2 1_555 1_555
C2 H3 1_555 1_555
C3 C2 1_555 1_555
C4 C3 1_555 1_555
H4 C4 1_555 1_555
C5 C4 1_555 1_555
C6 C1 1_555 1_555
H5 C6 1_555 1_555
C7 O1 1_555 1_555
C8 C3 1_555 1_555
C9 H6 1_555 1_555
C10 C9 1_555 1_555
H7 C10 1_555 1_555
C11 N1 1_555 1_555
H8 C11 1_555 1_555
C12 N2 1_555 1_555
H9 C12 1_555 1_555
H10 C12 1_555 1_555
C13 C12 1_555 1_555
H11 C13 1_555 1_555
H12 C13 1_555 1_555
C14 C13 1_555 1_555
H13 C14 1_555 1_555
H14 C14 1_555 1_555
C15 N3 1_555 1_555
H15 C15 1_555 1_555
C16 C15 1_555 1_555
H16 C16 1_555 1_555
C17 N3 1_555 1_555
H17 C17 1_555 1_555
Br1 C5 1_555 1_555
Ni1_2 N4 1_555 1_555
Ni1_3 O3 1_555 1_555
N4_2 Ni1 1_555 1_555
O3_2 Ni1 1_555 1_555
O4_2 Ni1 1_555 1_555
N2 C11 1_555 1_555
N4 C17 1_555 1_555
O4 Ni1_3 1_555 1_555
C1 C7 1_555 1_555
C5 C6 1_555 1_555

#END
