
#######################################################################
#
#                 Cambridge Crystallographic Data Centre
#                                CCDC 
#
#######################################################################
#
# If this CIF has been generated from an entry in the Cambridge 
# Structural Database, then it will include bibliographic, chemical, 
# crystal, experimental, refinement or atomic coordinate data resulting 
# from the CCDC's data processing and validation procedures.
#
#######################################################################

data_UTIKUE
_symmetry_cell_setting           monoclinic
_symmetry_space_group_name_H-M   'C 2/c'
_symmetry_Int_Tables_number      15
_space_group_name_Hall           '-C 2yn'
loop_
_symmetry_equiv_pos_site_id
_symmetry_equiv_pos_as_xyz
1 x,y,z
2 -x,y,1/2-z
3 1/2+x,1/2+y,z
4 1/2-x,1/2+y,1/2-z
5 -x,-y,-z
6 x,-y,1/2+z
7 1/2-x,1/2-y,-z
8 1/2+x,1/2-y,1/2+z
_cell_length_a                   28.101(4)
_cell_length_b                   9.0522(13)
_cell_length_c                   17.536(3)
_cell_angle_alpha                90
_cell_angle_beta                 126.941(2)
_cell_angle_gamma                90
_cell_volume                     3565.26
loop_
_atom_site_label
_atom_site_type_symbol
_atom_site_fract_x
_atom_site_fract_y
_atom_site_fract_z
Pr1 Pr 0.247423(14) 0.63922(3) 0.61640(2)
P1 P 0.37798(7) 0.74900(16) 0.62944(10)
P2 P 0.26948(7) 1.04649(16) 0.56976(11)
O1 O 0.34320(17) 0.6538(4) 0.6498(3)
O2 O 0.34465(16) 0.8291(4) 0.5365(3)
O3 O 0.43053(17) 0.6609(5) 0.6445(3)
H1 H 0.4301 0.6728 0.5961
O4 O 0.25482(17) 0.8926(4) 0.5776(3)
O5 O 0.26462(18) 1.0810(4) 0.4813(3)
O6 O 0.23045(17) 1.1581(4) 0.5793(3)
H2 H 0.2320 1.2426 0.5598
O7 O 0.30828(17) 0.7836(4) 0.7691(3)
O8 O 0.30837(17) 0.9638(4) 0.8561(3)
O9 O 0.18827(18) 0.7749(5) 0.6618(3)
O10 O 0.19020(17) 0.9481(4) 0.7542(3)
N1 N 0.3813(2) 0.9696(5) 0.7460(3)
H7 H 0.3546 0.9056 0.7411
C1 C 0.4185(3) 0.8812(6) 0.7267(4)
H8 H 0.4387 0.9487 0.7127
H9 H 0.4482 0.8289 0.7839
C2 C 0.3454(3) 1.0899(7) 0.6736(4)
H10 H 0.3433 1.1718 0.7063
H11 H 0.3672 1.1226 0.6505
C3 C 0.4201(3) 1.0301(7) 0.8468(4)
H12 H 0.3957 1.0857 0.8578
H13 H 0.4368 0.9484 0.8905
C4 C 0.4700(3) 1.1268(7) 0.8672(4)
C5 C 0.5275(3) 1.0710(7) 0.9161(4)
H14 H 0.5351 0.9734 0.9368
C6 C 0.5735(3) 1.1588(8) 0.9343(4)
H15 H 0.6119 1.1205 0.9678
C7 C 0.5629(3) 1.3019(8) 0.9032(5)
H16 H 0.5939 1.3605 0.9151
C8 C 0.5058(3) 1.3598(8) 0.8537(5)
H17 H 0.4982 1.4565 0.8313
C9 C 0.4608(3) 1.2732(7) 0.8382(4)
H18 H 0.4230 1.3137 0.8073
C10 C 0.2828(3) 0.8699(6) 0.7910(4)
C11 C 0.2142(3) 0.8649(7) 0.7306(4)
Pr1F Pr 0.252577(14) 0.86078(3) 0.38360(2)
Pr1C Pr 0.252577(14) 1.13922(3) 0.88360(2)
O2F O 0.15535(16) 0.6709(4) 0.4635(3)
O5F O 0.23538(18) 0.4190(4) 0.5187(3)
O8C O 0.19163(17) 0.4638(4) 0.6439(3)
O10C O 0.30980(17) 0.4481(4) 0.7458(3)
O11 O 0.4372(3) 0.6831(6) 0.5052(4)
H3 H 0.4655 0.6585 0.5030
H4 H 0.4098 0.7246 0.4532
O12 O 0.0727(3) 0.1093(7) 0.6022(4)
H5 H 0.0490 0.0648 0.6094
H6 H 0.0931 0.1718 0.6469
loop_
_geom_bond_atom_site_label_1
_geom_bond_atom_site_label_2
_geom_bond_site_symmetry_1
_geom_bond_site_symmetry_2
Pr1 O1 1_555 1_555
P1 O1 1_555 1_555
P2 O4 1_555 1_555
O2 P1 1_555 1_555
O3 P1 1_555 1_555
H1 O3 1_555 1_555
O4 Pr1 1_555 1_555
O5 P2 1_555 1_555
O6 P2 1_555 1_555
H2 O6 1_555 1_555
O7 Pr1 1_555 1_555
O8 C10 1_555 1_555
O9 Pr1 1_555 1_555
O10 C11 1_555 1_555
O11 H3 1_555 1_555
H4 O11 1_555 1_555
O12 H5 1_555 1_555
H6 O12 1_555 1_555
N1 H7 1_555 1_555
C1 P1 1_555 1_555
H8 C1 1_555 1_555
H9 C1 1_555 1_555
C2 P2 1_555 1_555
H10 C2 1_555 1_555
H11 C2 1_555 1_555
C3 N1 1_555 1_555
H12 C3 1_555 1_555
H13 C3 1_555 1_555
C4 C3 1_555 1_555
C5 C4 1_555 1_555
H14 C5 1_555 1_555
C6 C5 1_555 1_555
H15 C6 1_555 1_555
C7 C6 1_555 1_555
H16 C7 1_555 1_555
C8 C7 1_555 1_555
H17 C8 1_555 1_555
C9 C4 1_555 1_555
H18 C9 1_555 1_555
C10 O7 1_555 1_555
C11 O9 1_555 1_555
Pr1F O2 1_555 1_555
Pr1C O8 1_555 1_555
O2F Pr1 1_555 1_555
O5F Pr1 1_555 1_555
O8C Pr1 1_555 1_555
O10C Pr1 1_555 1_555
O5 Pr1F 1_555 1_555
O10 Pr1C 1_555 1_555
N1 C1 1_555 1_555
N1 C2 1_555 1_555
C8 C9 1_555 1_555
C10 C11 1_555 1_555

#END
