
#######################################################################
#
#                 Cambridge Crystallographic Data Centre
#                                CCDC 
#
#######################################################################
#
# If this CIF has been generated from an entry in the Cambridge 
# Structural Database, then it will include bibliographic, chemical, 
# crystal, experimental, refinement or atomic coordinate data resulting 
# from the CCDC's data processing and validation procedures.
#
#######################################################################

data_UTIKIS
_symmetry_cell_setting           monoclinic
_symmetry_space_group_name_H-M   'C 2/c'
_symmetry_Int_Tables_number      15
_space_group_name_Hall           '-C 2yn'
loop_
_symmetry_equiv_pos_site_id
_symmetry_equiv_pos_as_xyz
1 x,y,z
2 -x,y,1/2-z
3 1/2+x,1/2+y,z
4 1/2-x,1/2+y,1/2-z
5 -x,-y,-z
6 x,-y,1/2+z
7 1/2-x,1/2-y,-z
8 1/2+x,1/2-y,1/2+z
_cell_length_a                   28.085(9)
_cell_length_b                   9.131(3)
_cell_length_c                   17.632(6)
_cell_angle_alpha                90
_cell_angle_beta                 126.854(3)
_cell_angle_gamma                90
_cell_volume                     3618.05
loop_
_atom_site_label
_atom_site_type_symbol
_atom_site_fract_x
_atom_site_fract_y
_atom_site_fract_z
La1 La 0.247288(13) 0.63910(3) 0.61406(2)
P1 P 0.38075(6) 0.75051(15) 0.63181(10)
P2 P 0.27096(6) 1.04771(14) 0.56992(10)
O1 O 0.34648(17) 0.6554(4) 0.6524(3)
O2 O 0.34710(16) 0.8303(4) 0.5391(3)
O3 O 0.43382(17) 0.6651(4) 0.6471(3)
H1 H 0.4334 0.6770 0.5986
O4 O 0.25540(18) 0.8924(4) 0.5724(3)
O5 O 0.26740(18) 1.0876(4) 0.4832(3)
O6 O 0.23140(18) 1.1538(4) 0.5800(3)
H2 H 0.2330 1.2383 0.5606
O7 O 0.30778(17) 0.7885(4) 0.7664(3)
O8 O 0.30838(17) 0.9637(4) 0.8549(3)
O9 O 0.18783(18) 0.7785(5) 0.6604(3)
O10 O 0.18983(17) 0.9468(4) 0.7545(3)
N1 N 0.38232(18) 0.9688(5) 0.7465(3)
H7 H 0.3557 0.9049 0.7417
C1 C 0.4207(3) 0.8822(6) 0.7293(4)
H8 H 0.4409 0.9497 0.7154
H9 H 0.4505 0.8299 0.7865
C2 C 0.3460(3) 1.0878(6) 0.6751(4)
H10 H 0.3438 1.1696 0.7077
H11 H 0.3677 1.1205 0.6520
C3 C 0.4211(3) 1.0301(7) 0.8479(4)
H12 H 0.3967 1.0857 0.8589
H13 H 0.4378 0.9485 0.8916
C4 C 0.4710(3) 1.1276(6) 0.8678(4)
C5 C 0.5284(3) 1.0731(7) 0.9164(4)
H14 H 0.5359 0.9761 0.9366
C6 C 0.5745(3) 1.1604(8) 0.9353(4)
H15 H 0.6130 1.1233 0.9695
C7 C 0.5631(3) 1.3032(8) 0.9029(5)
H16 H 0.5937 1.3617 0.9135
C8 C 0.5057(3) 1.3594(7) 0.8545(5)
H17 H 0.4979 1.4557 0.8331
C9 C 0.4610(3) 1.2725(7) 0.8384(4)
H18 H 0.4229 1.3114 0.8071
C10 C 0.2825(2) 0.8729(5) 0.7894(4)
C11 C 0.2136(3) 0.8648(6) 0.7286(4)
La1F La 0.252712(13) 0.86090(3) 0.38594(2)
La1C La 0.252712(13) 1.13910(3) 0.88594(2)
O2F O 0.15290(16) 0.6697(4) 0.4609(3)
O5F O 0.23260(18) 0.4124(4) 0.5168(3)
O8C O 0.19162(17) 0.4637(4) 0.6451(3)
O10C O 0.31017(17) 0.4468(4) 0.7455(3)
O11 O 0.4391(3) 0.6831(7) 0.5070(4)
H3 H 0.4674 0.6585 0.5048
H4 H 0.4118 0.7247 0.4549
O12 O 0.0733(3) 0.1101(7) 0.6033(5)
H5 H 0.0496 0.0656 0.6105
H6 H 0.0937 0.1726 0.6480
loop_
_geom_bond_atom_site_label_1
_geom_bond_atom_site_label_2
_geom_bond_site_symmetry_1
_geom_bond_site_symmetry_2
La1 O1 1_555 1_555
P1 O1 1_555 1_555
P2 O4 1_555 1_555
O2 P1 1_555 1_555
O3 P1 1_555 1_555
H1 O3 1_555 1_555
O4 La1 1_555 1_555
O5 P2 1_555 1_555
O6 P2 1_555 1_555
H2 O6 1_555 1_555
O7 La1 1_555 1_555
O8 C10 1_555 1_555
O9 La1 1_555 1_555
O10 C11 1_555 1_555
O11 H3 1_555 1_555
H4 O11 1_555 1_555
O12 H5 1_555 1_555
H6 O12 1_555 1_555
N1 H7 1_555 1_555
C1 P1 1_555 1_555
H8 C1 1_555 1_555
H9 C1 1_555 1_555
C2 P2 1_555 1_555
H10 C2 1_555 1_555
H11 C2 1_555 1_555
C3 N1 1_555 1_555
H12 C3 1_555 1_555
H13 C3 1_555 1_555
C4 C3 1_555 1_555
C5 C4 1_555 1_555
H14 C5 1_555 1_555
C6 C5 1_555 1_555
H15 C6 1_555 1_555
C7 C6 1_555 1_555
H16 C7 1_555 1_555
C8 C7 1_555 1_555
H17 C8 1_555 1_555
C9 C4 1_555 1_555
H18 C9 1_555 1_555
C10 O7 1_555 1_555
C11 O9 1_555 1_555
La1F O2 1_555 1_555
La1C O8 1_555 1_555
O2F La1 1_555 1_555
O5F La1 1_555 1_555
O8C La1 1_555 1_555
O10C La1 1_555 1_555
O5 La1F 1_555 1_555
O10 La1C 1_555 1_555
N1 C1 1_555 1_555
N1 C2 1_555 1_555
C8 C9 1_555 1_555
C10 C11 1_555 1_555

#END
