
#######################################################################
#
#                 Cambridge Crystallographic Data Centre
#                                CCDC 
#
#######################################################################
#
# If this CIF has been generated from an entry in the Cambridge 
# Structural Database, then it will include bibliographic, chemical, 
# crystal, experimental, refinement or atomic coordinate data resulting 
# from the CCDC's data processing and validation procedures.
#
#######################################################################

data_UTILEP
_symmetry_cell_setting           monoclinic
_symmetry_space_group_name_H-M   'C 2/c'
_symmetry_Int_Tables_number      15
_space_group_name_Hall           '-C 2yn'
loop_
_symmetry_equiv_pos_site_id
_symmetry_equiv_pos_as_xyz
1 x,y,z
2 -x,y,1/2-z
3 1/2+x,1/2+y,z
4 1/2-x,1/2+y,1/2-z
5 -x,-y,-z
6 x,-y,1/2+z
7 1/2-x,1/2-y,-z
8 1/2+x,1/2-y,1/2+z
_cell_length_a                   28.210(5)
_cell_length_b                   8.9618(15)
_cell_length_c                   17.405(3)
_cell_angle_alpha                90
_cell_angle_beta                 126.717(2)
_cell_angle_gamma                90
_cell_volume                     3527.19
loop_
_atom_site_label
_atom_site_type_symbol
_atom_site_fract_x
_atom_site_fract_y
_atom_site_fract_z
Sm1 Sm 0.247626(17) 0.63932(4) 0.61852(3)
P1 P 0.37472(9) 0.7460(2) 0.62591(14)
P2 P 0.26817(9) 1.0454(2) 0.56927(14)
O1 O 0.3401(2) 0.6531(5) 0.6476(4)
O2 O 0.3417(2) 0.8296(5) 0.5332(3)
O3 O 0.4261(2) 0.6540(5) 0.6406(4)
H1 H 0.4257 0.6659 0.5921
O4 O 0.2540(2) 0.8924(5) 0.5818(4)
O5 O 0.2627(2) 1.0743(5) 0.4789(3)
O6 O 0.2300(2) 1.1599(5) 0.5789(3)
H2 H 0.2315 1.2444 0.5594
O7 O 0.3081(2) 0.7799(6) 0.7714(4)
O8 O 0.3081(2) 0.9623(5) 0.8582(3)
O9 O 0.1897(2) 0.7722(6) 0.6634(4)
O10 O 0.1912(2) 0.9488(5) 0.7555(4)
N1 N 0.3795(3) 0.9690(7) 0.7433(4)
H7 H 0.3529 0.9051 0.7385
C1 C 0.4154(3) 0.8776(8) 0.7241(5)
H8 H 0.4356 0.9452 0.7102
H9 H 0.4452 0.8254 0.7813
C2 C 0.3434(3) 1.0907(8) 0.6703(6)
H10 H 0.3413 1.1725 0.7030
H11 H 0.3652 1.1234 0.6472
C3 C 0.4185(4) 1.0308(9) 0.8460(6)
H12 H 0.3941 1.0864 0.8570
H13 H 0.4352 0.9492 0.8898
C4 C 0.4684(3) 1.1236(9) 0.8656(5)
C5 C 0.5249(4) 1.0638(10) 0.9150(6)
H14 H 0.5314 0.9651 0.9356
C6 C 0.5716(4) 1.1501(11) 0.9338(6)
H15 H 0.6094 1.1097 0.9675
C7 C 0.5617(4) 1.2973(10) 0.9023(7)
H16 H 0.5928 1.3554 0.9144
C8 C 0.5065(4) 1.3558(9) 0.8538(6)
H17 H 0.4997 1.4530 0.8307
C9 C 0.4603(4) 1.2732(9) 0.8383(6)
H18 H 0.4235 1.3175 0.8094
C10 C 0.2828(3) 0.8663(8) 0.7918(5)
C11 C 0.2149(3) 0.8620(8) 0.7320(6)
Sm1F Sm 0.252374(17) 0.86068(4) 0.38148(3)
Sm1C Sm 0.252374(17) 1.13932(4) 0.88148(3)
O2F O 0.1583(2) 0.6704(5) 0.4668(3)
O5F O 0.2373(2) 0.4257(5) 0.5211(3)
O8C O 0.1919(2) 0.4623(5) 0.6418(3)
O10C O 0.3088(2) 0.4488(5) 0.7445(4)
O11 O 0.4328(3) 0.6770(7) 0.5005(5)
H3 H 0.4611 0.6524 0.4983
H4 H 0.4055 0.7185 0.4484
O12 O 0.0744(3) 0.1086(8) 0.6042(5)
H5 H 0.0507 0.0641 0.6113
H6 H 0.0948 0.1711 0.6489
loop_
_geom_bond_atom_site_label_1
_geom_bond_atom_site_label_2
_geom_bond_site_symmetry_1
_geom_bond_site_symmetry_2
Sm1 O1 1_555 1_555
P1 O1 1_555 1_555
P2 O4 1_555 1_555
O2 P1 1_555 1_555
O3 P1 1_555 1_555
H1 O3 1_555 1_555
O4 Sm1 1_555 1_555
O5 P2 1_555 1_555
O6 P2 1_555 1_555
H2 O6 1_555 1_555
O7 Sm1 1_555 1_555
O8 C10 1_555 1_555
O9 Sm1 1_555 1_555
O10 C11 1_555 1_555
O11 H3 1_555 1_555
H4 O11 1_555 1_555
O12 H5 1_555 1_555
H6 O12 1_555 1_555
N1 H7 1_555 1_555
C1 P1 1_555 1_555
H8 C1 1_555 1_555
H9 C1 1_555 1_555
C2 P2 1_555 1_555
H10 C2 1_555 1_555
H11 C2 1_555 1_555
C3 N1 1_555 1_555
H12 C3 1_555 1_555
H13 C3 1_555 1_555
C4 C3 1_555 1_555
C5 C4 1_555 1_555
H14 C5 1_555 1_555
C6 C5 1_555 1_555
H15 C6 1_555 1_555
C7 C6 1_555 1_555
H16 C7 1_555 1_555
C8 C7 1_555 1_555
H17 C8 1_555 1_555
C9 C4 1_555 1_555
H18 C9 1_555 1_555
C10 O7 1_555 1_555
C11 O9 1_555 1_555
Sm1F O2 1_555 1_555
Sm1C O8 1_555 1_555
O2F Sm1 1_555 1_555
O5F Sm1 1_555 1_555
O8C Sm1 1_555 1_555
O10C Sm1 1_555 1_555
O5 Sm1F 1_555 1_555
O10 Sm1C 1_555 1_555
N1 C1 1_555 1_555
N1 C2 1_555 1_555
C8 C9 1_555 1_555
C10 C11 1_555 1_555

#END
