
#######################################################################
#
#                 Cambridge Crystallographic Data Centre
#                                CCDC 
#
#######################################################################
#
# If this CIF has been generated from an entry in the Cambridge 
# Structural Database, then it will include bibliographic, chemical, 
# crystal, experimental, refinement or atomic coordinate data resulting 
# from the CCDC's data processing and validation procedures.
#
#######################################################################

data_UTILAL
_symmetry_cell_setting           monoclinic
_symmetry_space_group_name_H-M   'C 2/c'
_symmetry_Int_Tables_number      15
_space_group_name_Hall           '-C 2yn'
loop_
_symmetry_equiv_pos_site_id
_symmetry_equiv_pos_as_xyz
1 x,y,z
2 -x,y,1/2-z
3 1/2+x,1/2+y,z
4 1/2-x,1/2+y,1/2-z
5 -x,-y,-z
6 x,-y,1/2+z
7 1/2-x,1/2-y,-z
8 1/2+x,1/2-y,1/2+z
_cell_length_a                   28.155(5)
_cell_length_b                   9.0228(14)
_cell_length_c                   17.505(3)
_cell_angle_alpha                90
_cell_angle_beta                 126.884(2)
_cell_angle_gamma                90
_cell_volume                     3556.88
loop_
_atom_site_label
_atom_site_type_symbol
_atom_site_fract_x
_atom_site_fract_y
_atom_site_fract_z
Nd1 Nd 0.247486(17) 0.63913(4) 0.61720(3)
P1 P 0.37699(8) 0.74779(19) 0.62839(13)
P2 P 0.26895(8) 1.04622(19) 0.56947(13)
O1 O 0.34227(19) 0.6541(5) 0.6497(3)
O2 O 0.34354(19) 0.8295(5) 0.5356(3)
O3 O 0.4293(2) 0.6589(5) 0.6434(3)
H1 H 0.4289 0.6708 0.5950
O4 O 0.2542(2) 0.8926(5) 0.5789(3)
O5 O 0.2634(2) 1.0789(5) 0.4802(3)
O6 O 0.23024(19) 1.1586(5) 0.5793(3)
H2 H 0.2318 1.2432 0.5598
O7 O 0.3082(2) 0.7823(5) 0.7695(3)
O8 O 0.30873(19) 0.9623(5) 0.8577(3)
O9 O 0.1884(2) 0.7729(5) 0.6614(3)
O10 O 0.1905(2) 0.9492(5) 0.7551(3)
N1 N 0.3807(2) 0.9692(6) 0.7452(4)
H7 H 0.3541 0.9052 0.7404
C1 C 0.4174(3) 0.8790(7) 0.7258(5)
H8 H 0.4376 0.9465 0.7119
H9 H 0.4472 0.8267 0.7830
C2 C 0.3448(3) 1.0893(8) 0.6727(5)
H10 H 0.3427 1.1712 0.7054
H11 H 0.3665 1.1220 0.6497
C3 C 0.4193(3) 1.0305(9) 0.8465(5)
H12 H 0.3949 1.0861 0.8575
H13 H 0.4360 0.9488 0.8902
C4 C 0.4688(3) 1.1262(8) 0.8657(5)
C5 C 0.5261(3) 1.0689(9) 0.9156(5)
H14 H 0.5330 0.9711 0.9364
C6 C 0.5729(3) 1.1535(10) 0.9348(5)
H15 H 0.6110 1.1144 0.9694
C7 C 0.5618(3) 1.2987(9) 0.9014(6)
H16 H 0.5925 1.3558 0.9112
C8 C 0.5057(3) 1.3587(9) 0.8539(6)
H17 H 0.4988 1.4566 0.8331
C9 C 0.4603(3) 1.2741(8) 0.8377(6)
H18 H 0.4229 1.3161 0.8072
C10 C 0.2826(3) 0.8692(7) 0.7916(5)
C11 C 0.2149(3) 0.8627(8) 0.7313(5)
Nd1F Nd 0.252514(17) 0.86087(4) 0.38280(3)
Nd1C Nd 0.252514(17) 1.13913(4) 0.88280(3)
O2F O 0.15646(19) 0.6705(5) 0.4644(3)
O5F O 0.2366(2) 0.4211(5) 0.5198(3)
O8C O 0.19127(19) 0.4623(5) 0.6423(3)
O10C O 0.3095(2) 0.4492(5) 0.7449(3)
O11 O 0.4358(3) 0.6814(7) 0.5044(5)
H3 H 0.4641 0.6568 0.5022
H4 H 0.4085 0.7229 0.4523
O12 O 0.0729(3) 0.1103(7) 0.6032(5)
H5 H 0.0492 0.0658 0.6103
H6 H 0.0933 0.1728 0.6479
loop_
_geom_bond_atom_site_label_1
_geom_bond_atom_site_label_2
_geom_bond_site_symmetry_1
_geom_bond_site_symmetry_2
Nd1 O1 1_555 1_555
P1 O1 1_555 1_555
P2 O4 1_555 1_555
O2 P1 1_555 1_555
O3 P1 1_555 1_555
H1 O3 1_555 1_555
O4 Nd1 1_555 1_555
O5 P2 1_555 1_555
O6 P2 1_555 1_555
H2 O6 1_555 1_555
O7 Nd1 1_555 1_555
O8 C10 1_555 1_555
O9 Nd1 1_555 1_555
O10 C11 1_555 1_555
O11 H3 1_555 1_555
H4 O11 1_555 1_555
O12 H5 1_555 1_555
H6 O12 1_555 1_555
N1 H7 1_555 1_555
C1 P1 1_555 1_555
H8 C1 1_555 1_555
H9 C1 1_555 1_555
C2 P2 1_555 1_555
H10 C2 1_555 1_555
H11 C2 1_555 1_555
C3 N1 1_555 1_555
H12 C3 1_555 1_555
H13 C3 1_555 1_555
C4 C3 1_555 1_555
C5 C4 1_555 1_555
H14 C5 1_555 1_555
C6 C5 1_555 1_555
H15 C6 1_555 1_555
C7 C6 1_555 1_555
H16 C7 1_555 1_555
C8 C7 1_555 1_555
H17 C8 1_555 1_555
C9 C4 1_555 1_555
H18 C9 1_555 1_555
C10 O7 1_555 1_555
C11 O9 1_555 1_555
Nd1F O2 1_555 1_555
Nd1C O8 1_555 1_555
O2F Nd1 1_555 1_555
O5F Nd1 1_555 1_555
O8C Nd1 1_555 1_555
O10C Nd1 1_555 1_555
O5 Nd1F 1_555 1_555
O10 Nd1C 1_555 1_555
N1 C1 1_555 1_555
N1 C2 1_555 1_555
C8 C9 1_555 1_555
C10 C11 1_555 1_555

#END
