
#######################################################################
#
#                 Cambridge Crystallographic Data Centre
#                                CCDC 
#
#######################################################################
#
# If this CIF has been generated from an entry in the Cambridge 
# Structural Database, then it will include bibliographic, chemical, 
# crystal, experimental, refinement or atomic coordinate data resulting 
# from the CCDC's data processing and validation procedures.
#
#######################################################################

data_UTIPIX
_symmetry_cell_setting           triclinic
_symmetry_space_group_name_H-M   'P -1'
_symmetry_Int_Tables_number      2
_space_group_name_Hall           '-P 1'
loop_
_symmetry_equiv_pos_site_id
_symmetry_equiv_pos_as_xyz
1 x,y,z
2 -x,-y,-z
_cell_length_a                   10.149(7)
_cell_length_b                   12.422(9)
_cell_length_c                   13.888(10)
_cell_angle_alpha                100.960(13)
_cell_angle_beta                 108.179(12)
_cell_angle_gamma                109.137(12)
_cell_volume                     1485.82
loop_
_atom_site_label
_atom_site_type_symbol
_atom_site_fract_x
_atom_site_fract_y
_atom_site_fract_z
Ni1 Ni 0.33347(12) 0.26375(8) 0.54512(8)
Co1 Co 0.08183(11) 0.05192(8) 0.12402(7)
Co2 Co -0.78869(12) 0.24400(8) 0.00026(9)
O1 O 0.2927(6) 0.1800(4) 0.2461(4)
O2 O 0.0349(6) 0.0482(4) 0.2599(4)
O3 O -0.5673(6) 0.3292(5) 0.0608(5)
O4 O -0.5482(6) 0.1574(5) 0.0100(5)
O5 O -0.0172(6) 0.1759(4) 0.1216(4)
O6 O 0.1461(6) 0.3303(4) 0.0979(5)
O7 O 0.0930(7) 0.7182(5) 0.1692(6)
O8 O -0.1423(6) 0.7105(4) 0.1265(5)
O9 O 0.1298(5) 0.0755(4) -0.0082(4)
H1 H 0.1979 0.0600 -0.0234
O10 O 0.1753(6) -0.0741(5) 0.1335(5)
H2 H 0.2662 -0.0545 0.1387
H3 H 0.1371 -0.1367 0.1493
N1 N 0.3995(7) 0.2799(5) 0.4320(5)
N2 N 0.1367(8) 0.1675(5) 0.4372(5)
N3 N 0.2723(9) 0.2071(6) 0.6481(5)
N4 N 0.5117(8) 0.3895(5) 0.6532(5)
C1 C 0.2917(9) 0.1991(6) 0.3373(6)
C2 C 0.1396(9) 0.1296(6) 0.3430(6)
C3 C 0.0012(10) 0.1445(6) 0.4532(6)
C4 C -0.1342(10) 0.1287(7) 0.3714(8)
H6 H -0.1365 0.1282 0.3038
C5 C -0.2658(12) 0.1137(9) 0.3908(9)
H7 H -0.3548 0.1025 0.3358
C6 C -0.2639(14) 0.1155(10) 0.4904(10)
H8 H -0.3504 0.1079 0.5034
C7 C -0.1326(12) 0.1287(8) 0.5714(9)
H9 H -0.1330 0.1256 0.6377
C8 C 0.0000(11) 0.1466(7) 0.5541(7)
C9 C 0.1375(11) 0.1597(7) 0.6417(7)
H10 H 0.1241 0.1308 0.6967
C10 C 0.3979(12) 0.2057(8) 0.7389(7)
H11 H 0.4524 0.1663 0.7105
H12 H 0.3546 0.1596 0.7789
C11 C 0.5085(13) 0.3318(10) 0.8134(8)
H13 H 0.6106 0.3350 0.8405
H14 H 0.4823 0.3504 0.8741
C12 C 0.5069(12) 0.4258(8) 0.7578(7)
H15 H 0.4153 0.4390 0.7490
H16 H 0.5940 0.5014 0.8026
C13 C 0.6243(10) 0.4573(7) 0.6379(7)
H17 H 0.6984 0.5235 0.6967
C14 C 0.6502(9) 0.4434(7) 0.5409(7)
C15 C 0.7910(10) 0.5259(7) 0.5504(7)
H18 H 0.8576 0.5849 0.6163
C16 C 0.8330(10) 0.5217(8) 0.4650(8)
H19 H 0.9270 0.5764 0.4729
C17 C 0.7336(11) 0.4354(9) 0.3685(8)
H20 H 0.7608 0.4311 0.3104
C18 C 0.5896(10) 0.3523(8) 0.3555(7)
H21 H 0.5240 0.2942 0.2890
C19 C 0.5447(9) 0.3565(6) 0.4406(6)
C20 C -0.3215(8) 0.3404(6) 0.0842(6)
C21 C -0.2255(8) 0.2820(6) 0.0927(6)
H22 H -0.2630 0.2002 0.0842
C22 C -0.0716(8) 0.3464(6) 0.1142(6)
C23 C -0.0148(8) 0.4688(6) 0.1301(6)
H23 H 0.0870 0.5111 0.1434
C24 C -0.1103(8) 0.5293(6) 0.1262(6)
C25 C -0.2628(8) 0.4642(6) 0.1023(6)
H24 H -0.3270 0.5037 0.0982
C26 C -0.4913(9) 0.2685(7) 0.0492(6)
C27 C 0.0267(8) 0.2778(6) 0.1124(6)
C28 C -0.0455(10) 0.6625(7) 0.1425(7)
Co1A Co -0.08183(11) -0.05192(8) -0.12402(7)
Co2_2 Co 0.21131(12) 0.24400(8) 0.00026(9)
Co2A Co -0.21131(12) 0.75600(8) -0.00026(9)
O6_2 O -0.8539(6) 0.3303(4) 0.0979(5)
O8A O -0.8577(6) 0.2895(4) -0.1265(5)
O9A O -0.1298(5) -0.0755(4) 0.0082(4)
O9_2 O -0.8702(5) 0.0755(4) -0.0082(4)
H1A H -0.1979 -0.0600 0.0234
H1_2 H -0.8021 0.0600 -0.0234
O11 O 0.4620(8) -0.0083(6) 0.1243(6)
H4 H 0.3735 -0.0453 0.1217
H5 H 0.4783 0.0545 0.1056
loop_
_geom_bond_atom_site_label_1
_geom_bond_atom_site_label_2
_geom_bond_site_symmetry_1
_geom_bond_site_symmetry_2
Ni1 N1 1_555 1_555
Co1 O1 1_555 1_555
Co2 O3 1_555 1_555
O1 C1 1_555 1_555
O2 Co1 1_555 1_555
O3 C26 1_555 1_555
O4 C26 1_555 1_555
O5 Co1 1_555 1_555
O6 C27 1_555 1_555
O7 C28 1_555 1_555
O8 C28 1_555 1_555
O9 Co1 1_555 1_555
H1 O9 1_555 1_555
O10 Co1 1_555 1_555
H2 O10 1_555 1_555
H3 O10 1_555 1_555
O11 H4 1_555 1_555
H5 O11 1_555 1_555
N1 C1 1_555 1_555
N2 Ni1 1_555 1_555
N3 Ni1 1_555 1_555
N4 Ni1 1_555 1_555
C1 C2 1_555 1_555
C2 O2 1_555 1_555
C3 N2 1_555 1_555
C4 C3 1_555 1_555
H6 C4 1_555 1_555
C5 C4 1_555 1_555
H7 C5 1_555 1_555
C6 C5 1_555 1_555
H8 C6 1_555 1_555
C7 C6 1_555 1_555
H9 C7 1_555 1_555
C8 C3 1_555 1_555
C9 N3 1_555 1_555
H10 C9 1_555 1_555
C10 N3 1_555 1_555
H11 C10 1_555 1_555
H12 C10 1_555 1_555
C11 C10 1_555 1_555
H13 C11 1_555 1_555
H14 C11 1_555 1_555
C12 N4 1_555 1_555
H15 C12 1_555 1_555
H16 C12 1_555 1_555
C13 N4 1_555 1_555
H17 C13 1_555 1_555
C14 C13 1_555 1_555
C15 C14 1_555 1_555
H18 C15 1_555 1_555
C16 C15 1_555 1_555
H19 C16 1_555 1_555
C17 C16 1_555 1_555
H20 C17 1_555 1_555
C18 C17 1_555 1_555
H21 C18 1_555 1_555
C19 N1 1_555 1_555
C20 C21 1_555 1_555
C21 H22 1_555 1_555
C22 C21 1_555 1_555
C23 C22 1_555 1_555
H23 C23 1_555 1_555
C24 C23 1_555 1_555
C25 C20 1_555 1_555
H24 C25 1_555 1_555
C26 C20 1_555 1_555
C27 O5 1_555 1_555
C28 C24 1_555 1_555
Co1A O9 1_555 1_555
Co2_2 O6 1_555 1_555
Co2A O8 1_555 1_555
O6_2 Co2 1_555 1_555
O8A Co2 1_555 1_555
O9A Co1 1_555 1_555
O9_2 Co2 1_555 1_555
H1A O9A 1_555 1_555
H1_2 O9_2 1_555 1_555
O9 Co2_2 1_555 1_555
N2 C2 1_555 1_555
C7 C8 1_555 1_555
C8 C9 1_555 1_555
C11 C12 1_555 1_555
C14 C19 1_555 1_555
C18 C19 1_555 1_555
C22 C27 1_555 1_555
C24 C25 1_555 1_555
Co1A O9A 1_555 1_555

#END
