
#######################################################################
#
#                 Cambridge Crystallographic Data Centre
#                                CCDC 
#
#######################################################################
#
# If this CIF has been generated from an entry in the Cambridge 
# Structural Database, then it will include bibliographic, chemical, 
# crystal, experimental, refinement or atomic coordinate data resulting 
# from the CCDC's data processing and validation procedures.
#
#######################################################################

data_UTOBUB01
_symmetry_cell_setting           triclinic
_symmetry_space_group_name_H-M   'P -1'
_symmetry_Int_Tables_number      2
_space_group_name_Hall           '-P 1'
loop_
_symmetry_equiv_pos_site_id
_symmetry_equiv_pos_as_xyz
1 x,y,z
2 -x,-y,-z
_cell_length_a                   13.343(6)
_cell_length_b                   13.429(7)
_cell_length_c                   20.694(10)
_cell_angle_alpha                103.163(4)
_cell_angle_beta                 96.704(5)
_cell_angle_gamma                101.981(6)
_cell_volume                     3479.19
loop_
_atom_site_label
_atom_site_type_symbol
_atom_site_fract_x
_atom_site_fract_y
_atom_site_fract_z
Cu1 Cu 0.17134(4) 0.46763(4) 0.47172(2)
Cu2 Cu 0.34693(5) 0.69596(5) 0.69510(3)
Cu3 Cu 0.52892(4) 0.99796(4) 0.88133(2)
P1 P 0.21457(9) 0.54897(8) 0.39097(5)
P2 P 0.16282(8) 0.29299(8) 0.45370(5)
P3 P 0.47545(10) 1.13444(10) 0.85018(6)
P4 P 0.70298(9) 1.01104(9) 0.88188(5)
N1 N 0.2616(3) 0.5569(3) 0.5584(2)
N2 N 0.0368(3) 0.4903(3) 0.49112(19)
N3 N 0.5056(3) 1.0002(4) 0.97298(17)
N4 N 0.4504(4) 0.8611(4) 0.8165(2)
C1 C 0.2928(4) 0.6101(3) 0.6115(2)
C2 C -0.0368(3) 0.5097(3) 0.50888(19)
C3 C 0.4944(3) 0.9998(4) 1.02702(17)
C4 C 0.4066(4) 0.7896(4) 0.7737(2)
C5 C 0.1163(4) 0.5178(3) 0.3155(2)
C6 C 0.0346(4) 0.4327(4) 0.3054(3)
H1 H 0.0327 0.3898 0.3362
C7 C -0.0461(5) 0.4074(5) 0.2509(3)
H2 H -0.1034 0.3490 0.2454
C8 C -0.0427(6) 0.4662(6) 0.2059(3)
H3 H -0.0969 0.4487 0.1682
C9 C 0.0391(6) 0.5506(6) 0.2151(3)
H4 H 0.0415 0.5918 0.1833
C10 C 0.1180(5) 0.5776(4) 0.2694(3)
H5 H 0.1739 0.6375 0.2752
C11 C 0.2320(3) 0.6917(3) 0.42171(19)
C12 C 0.1498(4) 0.7272(4) 0.4447(2)
H6 H 0.0865 0.6779 0.4429
C13 C 0.1576(5) 0.8325(4) 0.4701(3)
H7 H 0.0997 0.8554 0.4853
C14 C 0.2482(4) 0.9049(4) 0.4738(2)
H8 H 0.2537 0.9779 0.4916
C15 C 0.3302(4) 0.8712(4) 0.4518(3)
H9 H 0.3936 0.9209 0.4546
C16 C 0.3223(4) 0.7644(3) 0.4251(2)
H10 H 0.3799 0.7419 0.4092
C17 C 0.3352(3) 0.5355(3) 0.3617(2)
C18 C 0.3474(4) 0.5103(4) 0.2950(3)
H11 H 0.2906 0.5014 0.2602
C19 C 0.4437(5) 0.4979(4) 0.2789(3)
H12 H 0.4516 0.4790 0.2330
C20 C 0.5261(5) 0.5124(4) 0.3280(4)
H13 H 0.5915 0.5052 0.3164
C21 C 0.5155(4) 0.5370(4) 0.3932(3)
H14 H 0.5733 0.5470 0.4275
C22 C 0.4211(4) 0.5478(4) 0.4104(3)
H15 H 0.4145 0.5641 0.4566
C23 C 0.0550(3) 0.2061(3) 0.38887(19)
C24 C 0.0651(4) 0.1232(3) 0.3387(2)
H16 H 0.1308 0.1067 0.3372
C25 C -0.0204(4) 0.0638(4) 0.2905(2)
H17 H -0.0124 0.0075 0.2558
C26 C -0.1147(4) 0.0850(4) 0.2923(3)
H18 H -0.1724 0.0446 0.2586
C27 C -0.1271(4) 0.1656(4) 0.3434(3)
H19 H -0.1940 0.1787 0.3461
C28 C -0.0418(3) 0.2272(4) 0.3906(2)
H20 H -0.0498 0.2846 0.4245
C29 C 0.1439(3) 0.2413(3) 0.5268(2)
C30 C 0.1536(5) 0.3116(4) 0.5883(2)
H21 H 0.1689 0.3851 0.5917
C31 C 0.1412(6) 0.2763(5) 0.6455(3)
H22 H 0.1473 0.3252 0.6877
C32 C 0.1201(5) 0.1701(5) 0.6407(3)
H23 H 0.1125 0.1456 0.6799
C33 C 0.1100(4) 0.1002(4) 0.5804(3)
H24 H 0.0955 0.0268 0.5775
C34 C 0.1207(4) 0.1350(3) 0.5233(2)
H25 H 0.1120 0.0852 0.4810
C35 C 0.2771(3) 0.2535(3) 0.42797(19)
C36 C 0.3046(4) 0.2684(3) 0.3676(2)
H26 H 0.2613 0.2958 0.3400
C37 C 0.3925(4) 0.2446(4) 0.3468(3)
H27 H 0.4084 0.2537 0.3046
C38 C 0.4575(4) 0.2077(4) 0.3867(3)
H28 H 0.5190 0.1919 0.3725
C39 C 0.4334(4) 0.1938(4) 0.4465(3)
H29 H 0.4787 0.1689 0.4744
C40 C 0.3431(4) 0.2158(4) 0.4674(2)
H30 H 0.3268 0.2048 0.5091
C41 C 0.4581(3) 1.1307(4) 0.7606(2)
C42 C 0.4209(4) 1.0329(4) 0.7153(2)
H31 H 0.4097 0.9714 0.7315
C43 C 0.3994(4) 1.0227(4) 0.6463(2)
H32 H 0.3742 0.9549 0.6158
C44 C 0.4144(5) 1.1099(5) 0.6231(3)
H33 H 0.3988 1.1030 0.5761
C45 C 0.4512(5) 1.2063(5) 0.6656(3)
H34 H 0.4625 1.2667 0.6484
C46 C 0.4728(5) 1.2179(4) 0.7345(3)
H35 H 0.4979 1.2864 0.7642
C47 C 0.3482(4) 1.1501(5) 0.8679(3)
C48 C 0.2913(5) 1.0802(6) 0.8947(3)
H36 H 0.3189 1.0250 0.9053
C49 C 0.1923(6) 1.0874(8) 0.9072(4)
H37 H 0.1525 1.0369 0.9256
C50 C 0.1532(6) 1.1666(9) 0.8929(4)
H38 H 0.0874 1.1742 0.9037
C51 C 0.2070(7) 1.2343(8) 0.8636(5)
H39 H 0.1775 1.2872 0.8512
C52 C 0.3046(6) 1.2278(6) 0.8515(4)
H40 H 0.3426 1.2773 0.8316
C53 C 0.5610(4) 1.2626(4) 0.8917(3)
C54 C 0.5433(6) 1.3222(6) 0.9499(4)
H41 H 0.4808 1.3002 0.9661
C55 C 0.6152(10) 1.4152(9) 0.9865(6)
H42 H 0.6029 1.4547 1.0278
C56 C 0.7018(10) 1.4479(8) 0.9623(7)
H43 H 0.7478 1.5139 0.9852
C57 C 0.7252(6) 1.3899(6) 0.9067(6)
H44 H 0.7895 1.4120 0.8925
C58 C 0.6529(5) 1.2956(5) 0.8694(4)
H45 H 0.6675 1.2551 0.8292
C59 C 0.7566(3) 1.0599(3) 0.8156(2)
C60 C 0.8498(4) 1.1327(4) 0.8242(3)
H46 H 0.8906 1.1612 0.8679
C61 C 0.8852(5) 1.1650(5) 0.7698(3)
H47 H 0.9501 1.2145 0.7763
C62 C 0.8260(5) 1.1250(5) 0.7072(3)
H48 H 0.8492 1.1475 0.6700
C63 C 0.7343(5) 1.0535(5) 0.6979(3)
H49 H 0.6939 1.0252 0.6541
C64 C 0.6993(4) 1.0216(4) 0.7514(2)
H50 H 0.6342 0.9721 0.7442
C65 C 0.7360(4) 0.8833(3) 0.8710(2)
C66 C 0.6943(5) 0.8197(5) 0.9092(3)
H51 H 0.6486 0.8415 0.9384
C67 C 0.7190(6) 0.7235(6) 0.9050(4)
H52 H 0.6925 0.6815 0.9333
C68 C 0.7791(6) 0.6882(5) 0.8624(4)
H53 H 0.7933 0.6210 0.8593
C69 C 0.8199(5) 0.7497(5) 0.8233(3)
H54 H 0.8628 0.7250 0.7928
C70 C 0.7995(4) 0.8485(4) 0.8274(2)
H55 H 0.8291 0.8913 0.8004
C71 C 0.7912(3) 1.0892(3) 0.9584(2)
C72 C 0.7552(4) 1.1581(5) 1.0042(3)
H56 H 0.6852 1.1632 0.9955
C73 C 0.8203(6) 1.2208(6) 1.0635(4)
H57 H 0.7950 1.2687 1.0950
C74 C 0.9208(6) 1.2128(6) 1.0758(3)
H58 H 0.9653 1.2554 1.1162
C75 C 0.9586(4) 1.1442(5) 1.0307(3)
H59 H 1.0289 1.1400 1.0390
C76 C 0.8928(4) 1.0819(4) 0.9734(2)
H60 H 0.9177 1.0322 0.9430
Cu1A Cu -0.17134(4) 0.53237(4) 0.52828(2)
Cu3A Cu 0.47108(4) 1.00204(4) 1.11867(2)
loop_
_geom_bond_atom_site_label_1
_geom_bond_atom_site_label_2
_geom_bond_site_symmetry_1
_geom_bond_site_symmetry_2
Cu1 P1 1_555 1_555
Cu2 C1 1_555 1_555
Cu3 P3 1_555 1_555
P1 C5 1_555 1_555
P2 Cu1 1_555 1_555
P3 C41 1_555 1_555
P4 Cu3 1_555 1_555
N1 Cu1 1_555 1_555
N2 Cu1 1_555 1_555
N3 Cu3 1_555 1_555
N4 Cu3 1_555 1_555
C1 N1 1_555 1_555
C2 N2 1_555 1_555
C3 N3 1_555 1_555
C4 Cu2 1_555 1_555
C5 C6 1_555 1_555
C6 H1 1_555 1_555
C7 C6 1_555 1_555
H2 C7 1_555 1_555
C8 C7 1_555 1_555
H3 C8 1_555 1_555
C9 C8 1_555 1_555
H4 C9 1_555 1_555
C10 C5 1_555 1_555
H5 C10 1_555 1_555
C11 P1 1_555 1_555
C12 C11 1_555 1_555
H6 C12 1_555 1_555
C13 C12 1_555 1_555
H7 C13 1_555 1_555
C14 C13 1_555 1_555
H8 C14 1_555 1_555
C15 C14 1_555 1_555
H9 C15 1_555 1_555
C16 C11 1_555 1_555
H10 C16 1_555 1_555
C17 P1 1_555 1_555
C18 C17 1_555 1_555
H11 C18 1_555 1_555
C19 C18 1_555 1_555
H12 C19 1_555 1_555
C20 C19 1_555 1_555
H13 C20 1_555 1_555
C21 C20 1_555 1_555
H14 C21 1_555 1_555
C22 C17 1_555 1_555
H15 C22 1_555 1_555
C23 P2 1_555 1_555
C24 C23 1_555 1_555
H16 C24 1_555 1_555
C25 C24 1_555 1_555
H17 C25 1_555 1_555
C26 C25 1_555 1_555
H18 C26 1_555 1_555
C27 C26 1_555 1_555
H19 C27 1_555 1_555
C28 C23 1_555 1_555
H20 C28 1_555 1_555
C29 P2 1_555 1_555
C30 C29 1_555 1_555
H21 C30 1_555 1_555
C31 C30 1_555 1_555
H22 C31 1_555 1_555
C32 C31 1_555 1_555
H23 C32 1_555 1_555
C33 C32 1_555 1_555
H24 C33 1_555 1_555
C34 C29 1_555 1_555
H25 C34 1_555 1_555
C35 P2 1_555 1_555
C36 C35 1_555 1_555
H26 C36 1_555 1_555
C37 C36 1_555 1_555
H27 C37 1_555 1_555
C38 C37 1_555 1_555
H28 C38 1_555 1_555
C39 C38 1_555 1_555
H29 C39 1_555 1_555
C40 C35 1_555 1_555
H30 C40 1_555 1_555
C41 C42 1_555 1_555
C42 H31 1_555 1_555
C43 C42 1_555 1_555
H32 C43 1_555 1_555
C44 C43 1_555 1_555
H33 C44 1_555 1_555
C45 C44 1_555 1_555
H34 C45 1_555 1_555
C46 C41 1_555 1_555
H35 C46 1_555 1_555
C47 P3 1_555 1_555
C48 C47 1_555 1_555
H36 C48 1_555 1_555
C49 C48 1_555 1_555
H37 C49 1_555 1_555
C50 C49 1_555 1_555
H38 C50 1_555 1_555
C51 C50 1_555 1_555
H39 C51 1_555 1_555
C52 C47 1_555 1_555
H40 C52 1_555 1_555
C53 P3 1_555 1_555
C54 C53 1_555 1_555
H41 C54 1_555 1_555
C55 C54 1_555 1_555
H42 C55 1_555 1_555
C56 C55 1_555 1_555
H43 C56 1_555 1_555
C57 C56 1_555 1_555
H44 C57 1_555 1_555
C58 C53 1_555 1_555
H45 C58 1_555 1_555
C59 P4 1_555 1_555
C60 C59 1_555 1_555
H46 C60 1_555 1_555
C61 C60 1_555 1_555
H47 C61 1_555 1_555
C62 C61 1_555 1_555
H48 C62 1_555 1_555
C63 C62 1_555 1_555
H49 C63 1_555 1_555
C64 C59 1_555 1_555
H50 C64 1_555 1_555
C65 P4 1_555 1_555
C66 C65 1_555 1_555
H51 C66 1_555 1_555
C67 C66 1_555 1_555
H52 C67 1_555 1_555
C68 C67 1_555 1_555
H53 C68 1_555 1_555
C69 C68 1_555 1_555
H54 C69 1_555 1_555
C70 C65 1_555 1_555
H55 C70 1_555 1_555
C71 P4 1_555 1_555
C72 C71 1_555 1_555
H56 C72 1_555 1_555
C73 C72 1_555 1_555
H57 C73 1_555 1_555
C74 C73 1_555 1_555
H58 C74 1_555 1_555
C75 C74 1_555 1_555
H59 C75 1_555 1_555
C76 C71 1_555 1_555
H60 C76 1_555 1_555
Cu1A C2 1_555 1_555
Cu3A C3 1_555 1_555
N4 C4 1_555 1_555
C9 C10 1_555 1_555
C15 C16 1_555 1_555
C21 C22 1_555 1_555
C27 C28 1_555 1_555
C33 C34 1_555 1_555
C39 C40 1_555 1_555
C45 C46 1_555 1_555
C51 C52 1_555 1_555
C57 C58 1_555 1_555
C63 C64 1_555 1_555
C69 C70 1_555 1_555
C75 C76 1_555 1_555

#END
