
#######################################################################
#
#                 Cambridge Crystallographic Data Centre
#                                CCDC 
#
#######################################################################
#
# If this CIF has been generated from an entry in the Cambridge 
# Structural Database, then it will include bibliographic, chemical, 
# crystal, experimental, refinement or atomic coordinate data resulting 
# from the CCDC's data processing and validation procedures.
#
#######################################################################

data_UTOKUK
_symmetry_cell_setting           triclinic
_symmetry_space_group_name_H-M   'P -1'
_symmetry_Int_Tables_number      2
_space_group_name_Hall           '-P 1'
loop_
_symmetry_equiv_pos_site_id
_symmetry_equiv_pos_as_xyz
1 x,y,z
2 -x,-y,-z
_cell_length_a                   8.922(5)
_cell_length_b                   11.717(9)
_cell_length_c                   15.195(8)
_cell_angle_alpha                69.31(5)
_cell_angle_beta                 88.50(4)
_cell_angle_gamma                73.65(5)
_cell_volume                     1421.17
loop_
_atom_site_label
_atom_site_type_symbol
_atom_site_fract_x
_atom_site_fract_y
_atom_site_fract_z
I1 I 0.1760(2) 0.3257(2) 0.7940(1)
I2 I -0.3005(2) 0.5924(2) 0.7506(1)
Mn1 Mn -0.0062(3) 0.5578(3) 0.7408(2)
O1 O 0.0318(18) 0.6553(16) 0.6127(10)
P1 P 0.0225(7) 0.6802(6) 0.5089(4)
C1 C -0.0529(24) 0.5696(21) 0.4811(18)
C2 C -0.1045(27) 0.8332(24) 0.4475(19)
C3 C -0.1121(35) 0.8955(29) 0.3471(21)
C4 C -0.2227(47) 1.0137(35) 0.3002(28)
C5 C -0.3202(42) 1.0733(33) 0.3395(33)
C6 C -0.3255(42) 1.0167(36) 0.4381(38)
C7 C -0.2163(44) 0.8976(30) 0.4969(25)
C8 C 0.2151(25) 0.6659(21) 0.4673(16)
C9 C 0.2504(29) 0.6507(23) 0.3804(18)
C10 C 0.3985(27) 0.6423(25) 0.3524(19)
C11 C 0.5100(30) 0.6606(24) 0.4043(20)
C12 C 0.4783(26) 0.6752(25) 0.4911(19)
C13 C 0.3279(25) 0.6823(21) 0.5205(16)
O2 O 0.0706(17) 0.6407(16) 0.8133(10)
P2 P 0.0049(7) 0.6840(6) 0.8936(4)
C14 C -0.0594(23) 0.5620(19) 0.9844(15)
C15 C 0.1563(26) 0.7132(24) 0.9459(17)
C16 C 0.1239(37) 0.7797(31) 1.0107(20)
C17 C 0.2444(38) 0.7942(36) 1.0583(25)
C18 C 0.3918(42) 0.7519(38) 1.0422(24)
C19 C 0.4255(32) 0.6879(29) 0.9785(24)
C20 C 0.3076(31) 0.6701(27) 0.9290(24)
C21 C -0.1619(25) 0.8277(23) 0.8495(15)
C22 C -0.2798(33) 0.8592(26) 0.9071(22)
C23 C -0.4011(31) 0.9656(26) 0.8709(22)
C24 C -0.4115(31) 1.0385(20) 0.7727(19)
C25 C -0.293(32) 1.0117(25) 0.7270(18)
C26 C -0.1703(30) 0.9116(24) 0.7544(15)
Mn1A Mn 0.0062(3) 0.4422(3) 0.2592(2)
Mn1A_2 Mn 0.0062(3) 0.4422(3) 1.2592(2)
O1A O -0.0318(18) 0.3447(16) 0.3873(10)
P1A P -0.0225(7) 0.3198(6) 0.4911(4)
C1A C 0.0529(24) 0.4304(21) 0.5189(18)
C2A C 0.1045(27) 0.1668(24) 0.5525(19)
C3A C 0.1121(35) 0.1045(29) 0.6529(21)
C4A C 0.2227(47) -0.0137(35) 0.6998(28)
C5A C 0.3202(42) -0.0733(33) 0.6605(33)
C6A C 0.3255(42) -0.0167(36) 0.5619(38)
C7A C 0.2163(44) 0.1024(30) 0.5031(25)
C8A C -0.2151(25) 0.3341(21) 0.5327(16)
C9A C -0.2504(29) 0.3493(23) 0.6196(18)
C10A C -0.3985(27) 0.3577(25) 0.6476(19)
C11A C -0.5100(30) 0.3394(24) 0.5957(20)
C12A C -0.4783(26) 0.3248(25) 0.5089(19)
C13A C -0.3279(25) 0.3177(21) 0.4795(16)
O2A O -0.0706(17) 0.3593(16) 1.1867(10)
P2A P -0.0049(7) 0.3160(6) 1.1064(4)
C14A C 0.0594(23) 0.4380(19) 1.0156(15)
C15A C -0.1563(26) 0.2868(24) 1.0541(17)
C16A C -0.1239(37) 0.2203(31) 0.9893(20)
C17A C -0.2444(38) 0.2058(36) 0.9417(25)
C18A C -0.3918(42) 0.2481(38) 0.9578(24)
C19A C -0.4255(32) 0.3121(29) 1.0215(24)
C20A C -0.3076(31) 0.3299(27) 1.0710(24)
C21A C 0.1619(25) 0.1723(23) 1.1505(15)
C22A C 0.2798(33) 0.1408(26) 1.0929(22)
C23A C 0.4011(31) 0.0344(26) 1.1291(22)
C24A C 0.4115(31) -0.0385(20) 1.2273(19)
C25A C 0.293(32) -0.0117(25) 1.2730(18)
C26A C 0.1703(30) 0.0884(24) 1.2456(15)
loop_
_geom_bond_atom_site_label_1
_geom_bond_atom_site_label_2
_geom_bond_site_symmetry_1
_geom_bond_site_symmetry_2
I1 Mn1 1_555 1_555
I2 Mn1 1_555 1_555
Mn1 O1 1_555 1_555
O1 P1 1_555 1_555
P1 C1 1_555 1_555
C1 C1A 1_555 1_555
C2 P1 1_555 1_555
C3 C2 1_555 1_555
C4 C3 1_555 1_555
C5 C4 1_555 1_555
C6 C5 1_555 1_555
C7 C2 1_555 1_555
C8 P1 1_555 1_555
C9 C8 1_555 1_555
C10 C9 1_555 1_555
C11 C10 1_555 1_555
C12 C11 1_555 1_555
C13 C8 1_555 1_555
O2 Mn1 1_555 1_555
P2 O2 1_555 1_555
C14 P2 1_555 1_555
C15 P2 1_555 1_555
C16 C15 1_555 1_555
C17 C16 1_555 1_555
C18 C17 1_555 1_555
C19 C18 1_555 1_555
C20 C15 1_555 1_555
C21 P2 1_555 1_555
C22 C21 1_555 1_555
C23 C22 1_555 1_555
C24 C23 1_555 1_555
C25 C24 1_555 1_555
C26 C21 1_555 1_555
Mn1A O1A 1_555 1_555
Mn1A_2 O2A 1_555 1_555
O1A P1A 1_555 1_555
P1A C1A 1_555 1_555
C2A P1A 1_555 1_555
C3A C2A 1_555 1_555
C4A C3A 1_555 1_555
C5A C4A 1_555 1_555
C6A C5A 1_555 1_555
C7A C2A 1_555 1_555
C8A P1A 1_555 1_555
C9A C8A 1_555 1_555
C10A C9A 1_555 1_555
C11A C10A 1_555 1_555
C12A C11A 1_555 1_555
C13A C8A 1_555 1_555
O2A P2A 1_555 1_555
P2A C14A 1_555 1_555
C14A C14 1_555 1_555
C15A P2A 1_555 1_555
C16A C15A 1_555 1_555
C17A C16A 1_555 1_555
C18A C17A 1_555 1_555
C19A C18A 1_555 1_555
C20A C15A 1_555 1_555
C21A P2A 1_555 1_555
C22A C21A 1_555 1_555
C23A C22A 1_555 1_555
C24A C23A 1_555 1_555
C25A C24A 1_555 1_555
C26A C21A 1_555 1_555
C6 C7 1_555 1_555
C12 C13 1_555 1_555
C19 C20 1_555 1_555
C25 C26 1_555 1_555
C6A C7A 1_555 1_555
C12A C13A 1_555 1_555
C19A C20A 1_555 1_555
C25A C26A 1_555 1_555

#END
