
#######################################################################
#
#                 Cambridge Crystallographic Data Centre
#                                CCDC 
#
#######################################################################
#
# If this CIF has been generated from an entry in the Cambridge 
# Structural Database, then it will include bibliographic, chemical, 
# crystal, experimental, refinement or atomic coordinate data resulting 
# from the CCDC's data processing and validation procedures.
#
#######################################################################

data_UTOPAV
_symmetry_cell_setting           monoclinic
_symmetry_space_group_name_H-M   'C 2/c'
_symmetry_Int_Tables_number      15
_space_group_name_Hall           '-C 2yn'
loop_
_symmetry_equiv_pos_site_id
_symmetry_equiv_pos_as_xyz
1 x,y,z
2 -x,y,1/2-z
3 1/2+x,1/2+y,z
4 1/2-x,1/2+y,1/2-z
5 -x,-y,-z
6 x,-y,1/2+z
7 1/2-x,1/2-y,-z
8 1/2+x,1/2-y,1/2+z
_cell_length_a                   24.250(7)
_cell_length_b                   18.765(6)
_cell_length_c                   17.720(5)
_cell_angle_alpha                90
_cell_angle_beta                 107.673(4)
_cell_angle_gamma                90
_cell_volume                     7682.95
loop_
_atom_site_label
_atom_site_type_symbol
_atom_site_fract_x
_atom_site_fract_y
_atom_site_fract_z
Nb1 Nb 0.222990(11) -0.396290(13) -0.480690(15)
Nb2 Nb 0.350690(11) -0.339840(14) -0.484020(16)
Nb3 Nb 0.141246(11) -0.298419(15) -0.398722(16)
Nb4 Nb 0.270279(11) -0.238641(14) -0.397010(14)
Nb5 Nb 0.103840(11) -0.320340(14) -0.597500(15)
Ni1 Ni 0.335540(17) -0.52840(2) -0.45595(2)
Ni2 Ni 0.0000 -0.43072(3) -0.7500
O1 O 0.25746(9) -0.48036(11) -0.46651(13)
O2 O 0.37134(9) -0.43076(11) -0.47272(13)
O3 O 0.10755(11) -0.31168(14) -0.32677(14)
O4 O 0.29490(8) -0.33820(10) -0.41145(11)
O5 O 0.04417(9) -0.35218(12) -0.67392(12)
O6 O 0.18505(9) -0.38734(11) -0.40247(12)
O7 O 0.40575(9) -0.28562(11) -0.40451(12)
O8 O 0.08453(9) -0.32647(11) -0.49912(12)
O9 O 0.37335(9) -0.30375(11) -0.57081(12)
O10 O 0.22372(9) -0.26060(11) -0.33626(11)
O11 O 0.34045(9) -0.20582(11) -0.33612(12)
O12 O 0.15362(9) -0.40529(11) -0.56791(12)
O13 O 0.26561(8) -0.35425(10) -0.56049(11)
O14 O 0.19571(8) -0.27544(10) -0.50031(11)
N1 N 0.30809(11) -0.55246(14) -0.57709(15)
N2 N 0.40329(11) -0.59461(14) -0.46694(16)
N3 N 0.37133(13) -0.51795(17) -0.33322(17)
N4 N 0.29747(14) -0.61341(15) -0.41530(19)
N5 N 0.05456(12) -0.44074(15) -0.81803(16)
N6 N -0.04008(12) -0.51310(15) -0.82892(18)
C1 C 0.26128(16) -0.5264(2) -0.6308(2)
H1 H 0.2376 -0.4951 -0.6142
C2 C 0.24650(18) -0.5439(2) -0.7101(2)
H2 H 0.2139 -0.5241 -0.7463
C3 C 0.28106(18) -0.5915(2) -0.7349(2)
H3 H 0.2717 -0.6051 -0.7878
C4 C 0.32918(16) -0.6181(2) -0.6802(2)
H4 H 0.3531 -0.6500 -0.6957
C5 C 0.34236(14) -0.59751(17) -0.60137(19)
C6 C 0.39491(14) -0.62194(18) -0.5393(2)
C7 C 0.43365(17) -0.6703(2) -0.5552(3)
H5 H 0.4272 -0.6886 -0.6059
C8 C 0.48181(17) -0.6904(2) -0.4942(3)
H6 H 0.5085 -0.7221 -0.5036
C9 C 0.48980(17) -0.6636(2) -0.4207(3)
H7 H 0.5217 -0.6773 -0.3788
C10 C 0.45007(16) -0.6158(2) -0.4085(2)
H8 H 0.4559 -0.5975 -0.3578
C11 C 0.41051(18) -0.4685(3) -0.2956(2)
H9 H 0.4206 -0.4330 -0.3257
C12 C 0.4361(2) -0.4681(3) -0.2151(3)
H10 H 0.4633 -0.4334 -0.1914
C13 C 0.4213(3) -0.5189(4) -0.1704(3)
H11 H 0.4380 -0.5191 -0.1158
C14 C 0.3818(2) -0.5696(3) -0.2060(3)
H12 H 0.3712 -0.6045 -0.1757
C15 C 0.35694(19) -0.5691(2) -0.2896(2)
C16 C 0.3149(2) -0.6207(2) -0.3347(3)
C17 C 0.2920(3) -0.6740(3) -0.2996(4)
H13 H 0.3048 -0.6794 -0.2448
C18 C 0.2519(3) -0.7174(3) -0.3433(4)
H14 H 0.2376 -0.7539 -0.3192
C19 C 0.2310(2) -0.7088(2) -0.4256(4)
H15 H 0.2018 -0.7377 -0.4569
C20 C 0.2560(2) -0.6550(2) -0.4585(3)
H16 H 0.2429 -0.6480 -0.5131
C21 C 0.09971(16) -0.3987(2) -0.8136(2)
H17 H 0.1074 -0.3609 -0.7780
C22 C 0.13517(19) -0.4093(3) -0.8598(3)
H18 H 0.1666 -0.3793 -0.8548
C23 C 0.1242(2) -0.4639(3) -0.9131(3)
H19 H 0.1478 -0.4713 -0.9450
C24 C 0.0779(2) -0.5077(2) -0.9189(2)
H20 H 0.0698 -0.5453 -0.9548
C25 C 0.04342(15) -0.49519(19) -0.8707(2)
C26 C -0.00755(16) -0.53917(19) -0.8720(2)
C27 C -0.02117(19) -0.6024(2) -0.9144(3)
H21 H 0.0021 -0.6198 -0.9435
C28 C -0.0699(2) -0.6385(3) -0.9122(3)
H22 H -0.0798 -0.6811 -0.9398
C29 C -0.1041(2) -0.6122(3) -0.8695(3)
H23 H -0.1373 -0.6362 -0.8682
C30 C -0.08763(17) -0.5489(2) -0.8285(3)
H24 H -0.1106 -0.5307 -0.7995
Nb1F Nb 0.277010(11) -0.103710(13) -0.519310(15)
Nb2F Nb 0.149310(11) -0.160160(14) -0.515980(16)
Nb3F Nb 0.358754(11) -0.201581(15) -0.601278(16)
Nb4F Nb 0.229721(11) -0.261359(14) -0.602990(14)
Nb5F Nb 0.396160(11) -0.179660(14) -0.402500(15)
Ni1F Ni 0.164460(17) 0.02840(2) -0.54405(2)
Ni2F Ni 0.5000 -0.06928(3) -0.2500
O1F O 0.24254(9) -0.01964(11) -0.53349(13)
O2F O 0.12866(9) -0.06924(11) -0.52728(13)
O3F O 0.39245(11) -0.18832(14) -0.67323(14)
O4F O 0.20510(8) -0.16180(10) -0.58855(11)
O5A O -0.04417(9) -0.35218(12) -0.82608(12)
O5F O 0.45583(9) -0.14782(12) -0.32608(12)
O6F O 0.31495(9) -0.11266(11) -0.59753(12)
O7F O 0.09425(9) -0.21438(11) -0.59549(12)
O8F O 0.41547(9) -0.17353(11) -0.50088(12)
O9F O 0.12665(9) -0.19625(11) -0.42919(12)
O10F O 0.27628(9) -0.23940(11) -0.66374(11)
O11F O 0.15955(9) -0.29418(11) -0.66388(12)
O12F O 0.34638(9) -0.09471(11) -0.43209(12)
O13F O 0.23439(8) -0.14575(10) -0.43951(11)
O14F O 0.30429(8) -0.22456(10) -0.49969(11)
N1F N 0.19191(11) 0.05246(14) -0.42291(15)
N2F N 0.09671(11) 0.09461(14) -0.53306(16)
N3F N 0.12867(13) 0.01795(17) -0.66678(17)
N4F N 0.20253(14) 0.11341(15) -0.58470(19)
N5A N -0.05456(12) -0.44074(15) -0.68197(16)
N6A N 0.04008(12) -0.51310(15) -0.67108(18)
C1F C 0.23872(16) 0.0264(2) -0.3692(2)
H1F H 0.2624 -0.0049 -0.3858
C2F C 0.25350(18) 0.0439(2) -0.2899(2)
H2F H 0.2861 0.0241 -0.2537
C3F C 0.21894(18) 0.0915(2) -0.2651(2)
H3F H 0.2283 0.1051 -0.2122
C4F C 0.17082(16) 0.1181(2) -0.3198(2)
H4F H 0.1469 0.1500 -0.3043
C5F C 0.15764(14) 0.09751(17) -0.39863(19)
C6F C 0.10509(14) 0.12194(18) -0.4607(2)
C7F C 0.06635(17) 0.1703(2) -0.4448(3)
H5F H 0.0728 0.1886 -0.3941
C8F C 0.01819(17) 0.1904(2) -0.5058(3)
H6F H -0.0085 0.2221 -0.4964
C9F C 0.01020(17) 0.1636(2) -0.5793(3)
H7F H -0.0217 0.1773 -0.6212
C10F C 0.04993(16) 0.1158(2) -0.5915(2)
H8F H 0.0441 0.0975 -0.6422
C11F C 0.08949(18) -0.0315(3) -0.7044(2)
H9F H 0.0794 -0.0670 -0.6743
C12F C 0.0639(2) -0.0319(3) -0.7849(3)
H10F H 0.0367 -0.0666 -0.8086
C13F C 0.0787(3) 0.0189(4) -0.8296(3)
H11F H 0.0620 0.0191 -0.8842
C14F C 0.1182(2) 0.0696(3) -0.7940(3)
H12F H 0.1288 0.1045 -0.8243
C15F C 0.14306(19) 0.0691(2) -0.7104(2)
C16F C 0.1851(2) 0.1207(2) -0.6653(3)
C17F C 0.2080(3) 0.1740(3) -0.7004(4)
H13F H 0.1952 0.1794 -0.7552
C18F C 0.2481(3) 0.2174(3) -0.6567(4)
H14F H 0.2624 0.2539 -0.6808
C19F C 0.2690(2) 0.2088(2) -0.5744(4)
H15F H 0.2982 0.2377 -0.5431
C20F C 0.2440(2) 0.1550(2) -0.5415(3)
H16F H 0.2571 0.1480 -0.4869
C21A C -0.09971(16) -0.3987(2) -0.6864(2)
H17A H -0.1074 -0.3609 -0.7220
C22A C -0.13517(19) -0.4093(3) -0.6402(3)
H18A H -0.1666 -0.3793 -0.6452
C23A C -0.1242(2) -0.4639(3) -0.5869(3)
H19A H -0.1478 -0.4713 -0.5550
C24A C -0.0779(2) -0.5077(2) -0.5811(2)
H20A H -0.0698 -0.5453 -0.5452
C25A C -0.04342(15) -0.49519(19) -0.6293(2)
C26A C 0.00755(16) -0.53917(19) -0.6280(2)
C27A C 0.02117(19) -0.6024(2) -0.5856(3)
H21A H -0.0021 -0.6198 -0.5565
C28A C 0.0699(2) -0.6385(3) -0.5878(3)
H22A H 0.0798 -0.6811 -0.5602
C29A C 0.1041(2) -0.6122(3) -0.6305(3)
H23A H 0.1373 -0.6362 -0.6318
C30A C 0.08763(17) -0.5489(2) -0.6715(3)
H24A H 0.1106 -0.5307 -0.7005
O15 O 0.0634(3) -0.2284(3) -0.2285(4)
O16 O 0.0418(6) -0.2031(7) -0.7763(5)
loop_
_geom_bond_atom_site_label_1
_geom_bond_atom_site_label_2
_geom_bond_site_symmetry_1
_geom_bond_site_symmetry_2
Nb1 O1 1_555 1_555
Nb2 O2 1_555 1_555
Nb3 O3 1_555 1_555
Nb4 O4 1_555 1_555
Nb5 O5 1_555 1_555
Ni1 O1 1_555 1_555
Ni2 O5 1_555 1_555
O2 Ni1 1_555 1_555
O4 Nb1 1_555 1_555
O6 Nb1 1_555 1_555
O7 Nb2 1_555 1_555
O8 Nb3 1_555 1_555
O9 Nb2 1_555 1_555
O10 Nb3 1_555 1_555
O11 Nb4 1_555 1_555
O12 Nb1 1_555 1_555
O13 Nb1 1_555 1_555
O14 Nb1 1_555 1_555
N1 Ni1 1_555 1_555
N2 Ni1 1_555 1_555
N3 Ni1 1_555 1_555
N4 Ni1 1_555 1_555
N5 Ni2 1_555 1_555
N6 Ni2 1_555 1_555
C1 N1 1_555 1_555
H1 C1 1_555 1_555
C2 C1 1_555 1_555
H2 C2 1_555 1_555
C3 C2 1_555 1_555
H3 C3 1_555 1_555
C4 C3 1_555 1_555
H4 C4 1_555 1_555
C5 N1 1_555 1_555
C6 N2 1_555 1_555
C7 C6 1_555 1_555
H5 C7 1_555 1_555
C8 C7 1_555 1_555
H6 C8 1_555 1_555
C9 C8 1_555 1_555
H7 C9 1_555 1_555
C10 N2 1_555 1_555
H8 C10 1_555 1_555
C11 N3 1_555 1_555
H9 C11 1_555 1_555
C12 C11 1_555 1_555
H10 C12 1_555 1_555
C13 C12 1_555 1_555
H11 C13 1_555 1_555
C14 C13 1_555 1_555
H12 C14 1_555 1_555
C15 N3 1_555 1_555
C16 N4 1_555 1_555
C17 C16 1_555 1_555
H13 C17 1_555 1_555
C18 C17 1_555 1_555
H14 C18 1_555 1_555
C19 C18 1_555 1_555
H15 C19 1_555 1_555
C20 N4 1_555 1_555
H16 C20 1_555 1_555
C21 N5 1_555 1_555
H17 C21 1_555 1_555
C22 C21 1_555 1_555
H18 C22 1_555 1_555
C23 C22 1_555 1_555
H19 C23 1_555 1_555
C24 C23 1_555 1_555
H20 C24 1_555 1_555
C25 N5 1_555 1_555
C26 N6 1_555 1_555
C27 C26 1_555 1_555
H21 C27 1_555 1_555
C28 C27 1_555 1_555
H22 C28 1_555 1_555
C29 C28 1_555 1_555
H23 C29 1_555 1_555
C30 N6 1_555 1_555
H24 C30 1_555 1_555
Nb1F O1F 1_555 1_555
Nb2F O14 1_555 1_555
Nb3F O9 1_555 1_555
Nb4F O13 1_555 1_555
Nb5F O7 1_555 1_555
Ni1F O1F 1_555 1_555
Ni2F O5F 1_555 1_555
O2F Nb2F 1_555 1_555
O3F Nb3F 1_555 1_555
O4F Nb1F 1_555 1_555
O5A Ni2 1_555 1_555
O5F Nb5F 1_555 1_555
O6F Nb1F 1_555 1_555
O7F Nb5 1_555 1_555
O8F Nb3F 1_555 1_555
O9F Nb3 1_555 1_555
O10F Nb3F 1_555 1_555
O11F Nb5 1_555 1_555
O12F Nb1F 1_555 1_555
O13F Nb4 1_555 1_555
O14F Nb2 1_555 1_555
N1F Ni1F 1_555 1_555
N2F Ni1F 1_555 1_555
N3F Ni1F 1_555 1_555
N4F Ni1F 1_555 1_555
N5A Ni2 1_555 1_555
N6A Ni2 1_555 1_555
C1F N1F 1_555 1_555
H1F C1F 1_555 1_555
C2F C1F 1_555 1_555
H2F C2F 1_555 1_555
C3F C2F 1_555 1_555
H3F C3F 1_555 1_555
C4F C3F 1_555 1_555
H4F C4F 1_555 1_555
C5F N1F 1_555 1_555
C6F N2F 1_555 1_555
C7F C6F 1_555 1_555
H5F C7F 1_555 1_555
C8F C7F 1_555 1_555
H6F C8F 1_555 1_555
C9F C8F 1_555 1_555
H7F C9F 1_555 1_555
C10F N2F 1_555 1_555
H8F C10F 1_555 1_555
C11F N3F 1_555 1_555
H9F C11F 1_555 1_555
C12F C11F 1_555 1_555
H10F C12F 1_555 1_555
C13F C12F 1_555 1_555
H11F C13F 1_555 1_555
C14F C13F 1_555 1_555
H12F C14F 1_555 1_555
C15F N3F 1_555 1_555
C16F N4F 1_555 1_555
C17F C16F 1_555 1_555
H13F C17F 1_555 1_555
C18F C17F 1_555 1_555
H14F C18F 1_555 1_555
C19F C18F 1_555 1_555
H15F C19F 1_555 1_555
C20F N4F 1_555 1_555
H16F C20F 1_555 1_555
C21A N5A 1_555 1_555
H17A C21A 1_555 1_555
C22A C21A 1_555 1_555
H18A C22A 1_555 1_555
C23A C22A 1_555 1_555
H19A C23A 1_555 1_555
C24A C23A 1_555 1_555
H20A C24A 1_555 1_555
C25A N5A 1_555 1_555
C26A N6A 1_555 1_555
C27A C26A 1_555 1_555
H21A C27A 1_555 1_555
C28A C27A 1_555 1_555
H22A C28A 1_555 1_555
C29A C28A 1_555 1_555
H23A C29A 1_555 1_555
C30A N6A 1_555 1_555
H24A C30A 1_555 1_555
Nb2 O4 1_555 1_555
Nb2 O13 1_555 1_555
Nb3 O6 1_555 1_555
Nb3 O14 1_555 1_555
Nb4 O10 1_555 1_555
Nb4 O14 1_555 1_555
Nb4 O14F 1_555 1_555
Nb5 O8 1_555 1_555
Nb5 O12 1_555 1_555
Nb5 O14 1_555 1_555
O11 Nb5F 1_555 1_555
O14 Nb4F 1_555 1_555
C4 C5 1_555 1_555
C5 C6 1_555 1_555
C9 C10 1_555 1_555
C14 C15 1_555 1_555
C15 C16 1_555 1_555
C19 C20 1_555 1_555
C24 C25 1_555 1_555
C25 C26 1_555 1_555
C29 C30 1_555 1_555
Nb1F O13F 1_555 1_555
Nb1F O14F 1_555 1_555
Nb2F O4F 1_555 1_555
Nb2F O7F 1_555 1_555
Nb2F O9F 1_555 1_555
Nb2F O13F 1_555 1_555
Nb3F O6F 1_555 1_555
Nb3F O14F 1_555 1_555
Nb4F O4F 1_555 1_555
Nb4F O10F 1_555 1_555
Nb4F O11F 1_555 1_555
Nb4F O14F 1_555 1_555
Nb5F O8F 1_555 1_555
Nb5F O12F 1_555 1_555
Nb5F O14F 1_555 1_555
Ni1F O2F 1_555 1_555
C4F C5F 1_555 1_555
C5F C6F 1_555 1_555
C9F C10F 1_555 1_555
C14F C15F 1_555 1_555
C15F C16F 1_555 1_555
C19F C20F 1_555 1_555
C24A C25A 1_555 1_555
C25A C26A 1_555 1_555
C29A C30A 1_555 1_555

#END
