
#######################################################################
#
#                 Cambridge Crystallographic Data Centre
#                                CCDC 
#
#######################################################################
#
# If this CIF has been generated from an entry in the Cambridge 
# Structural Database, then it will include bibliographic, chemical, 
# crystal, experimental, refinement or atomic coordinate data resulting 
# from the CCDC's data processing and validation procedures.
#
#######################################################################

data_UTOSAY
_symmetry_cell_setting           monoclinic
_symmetry_space_group_name_H-M   'C 2/c'
_symmetry_Int_Tables_number      15
_space_group_name_Hall           '-C 2yn'
loop_
_symmetry_equiv_pos_site_id
_symmetry_equiv_pos_as_xyz
1 x,y,z
2 -x,y,1/2-z
3 1/2+x,1/2+y,z
4 1/2-x,1/2+y,1/2-z
5 -x,-y,-z
6 x,-y,1/2+z
7 1/2-x,1/2-y,-z
8 1/2+x,1/2-y,1/2+z
_cell_length_a                   16.394(6)
_cell_length_b                   4.8590(15)
_cell_length_c                   18.591(7)
_cell_angle_alpha                90
_cell_angle_beta                 98.34(5)
_cell_angle_gamma                90
_cell_volume                     1465.27
loop_
_atom_site_label
_atom_site_type_symbol
_atom_site_fract_x
_atom_site_fract_y
_atom_site_fract_z
Co1 Co 0.00000 0.04930(15) 0.25000
O1 O 0.1481(2) -0.4071(8) 0.12381(18)
N1 N 0.07266(18) 0.2811(5) 0.32505(13)
N2 N 0.0748(2) -0.1276(7) 0.19328(17)
C1 C 0.1434(2) 0.3902(8) 0.31236(15)
H1 H 0.1624 0.3444 0.2691
C2 C 0.1899(2) 0.5652(8) 0.35890(16)
H2 H 0.2386 0.6374 0.3466
C3 C 0.1647(2) 0.6359(7) 0.42452(16)
C4 C 0.0935(2) 0.5154(9) 0.43837(15)
H3 H 0.0748 0.5505 0.4824
C5 C 0.0491(2) 0.3449(7) 0.38919(18)
H4 H 0.0004 0.2694 0.4006
C6 C 0.2140(2) 0.8258(7) 0.47780(16)
H5 H 0.1786 0.9022 0.5103
H6 H 0.2351 0.9769 0.4518
C7 C 0.1104(3) -0.2621(11) 0.1588(2)
Co1F Co 0.50000 1.45070(15) 0.75000
O1A O -0.1481(2) -0.4071(8) 0.37619(18)
N1F N 0.42734(18) 1.2189(5) 0.67495(13)
N1A N -0.07266(18) 0.2811(5) 0.17495(13)
N2A N -0.0748(2) -0.1276(7) 0.30672(17)
C1F C 0.3566(2) 1.1098(8) 0.68764(15)
H1F H 0.3376 1.1556 0.7309
C2F C 0.3101(2) 0.9348(8) 0.64110(16)
H2F H 0.2614 0.8626 0.6534
C3F C 0.3353(2) 0.8641(7) 0.57548(16)
C4F C 0.4065(2) 0.9846(9) 0.56163(15)
H3F H 0.4252 0.9495 0.5176
C5F C 0.4509(2) 1.1551(7) 0.61081(18)
H4F H 0.4996 1.2306 0.5994
C6F C 0.2860(2) 0.6742(7) 0.52220(16)
H5F H 0.3214 0.5978 0.4897
H6F H 0.2649 0.5231 0.5482
C7A C -0.1104(3) -0.2621(11) 0.3412(2)
loop_
_geom_bond_atom_site_label_1
_geom_bond_atom_site_label_2
_geom_bond_site_symmetry_1
_geom_bond_site_symmetry_2
Co1 N1 1_555 1_555
O1 C7 1_555 1_555
N1 C1 1_555 1_555
N2 Co1 1_555 1_555
C1 H1 1_555 1_555
C2 C1 1_555 1_555
H2 C2 1_555 1_555
C3 C2 1_555 1_555
C4 C3 1_555 1_555
H3 C4 1_555 1_555
C5 N1 1_555 1_555
H4 C5 1_555 1_555
C6 C3 1_555 1_555
H5 C6 1_555 1_555
H6 C6 1_555 1_555
C7 N2 1_555 1_555
Co1F N1F 1_555 1_555
O1A C7A 1_555 1_555
N1F C1F 1_555 1_555
N1A Co1 1_555 1_555
N2A Co1 1_555 1_555
C1F H1F 1_555 1_555
C2F C1F 1_555 1_555
H2F C2F 1_555 1_555
C3F C2F 1_555 1_555
C4F C3F 1_555 1_555
H3F C4F 1_555 1_555
C5F N1F 1_555 1_555
H4F C5F 1_555 1_555
C6F C6 1_555 1_555
H5F C6F 1_555 1_555
H6F C6F 1_555 1_555
C7A N2A 1_555 1_555
C4 C5 1_555 1_555
C3F C6F 1_555 1_555
C4F C5F 1_555 1_555

#END
