
#######################################################################
#
#                 Cambridge Crystallographic Data Centre
#                                CCDC 
#
#######################################################################
#
# If this CIF has been generated from an entry in the Cambridge 
# Structural Database, then it will include bibliographic, chemical, 
# crystal, experimental, refinement or atomic coordinate data resulting 
# from the CCDC's data processing and validation procedures.
#
#######################################################################

data_UTOTIH
_symmetry_cell_setting           rhombohedral
_symmetry_space_group_name_H-M   'R -3'
_symmetry_Int_Tables_number      148
_space_group_name_Hall           '-R 3'
loop_
_symmetry_equiv_pos_site_id
_symmetry_equiv_pos_as_xyz
1 x,y,z
2 -y,x-y,z
3 -x+y,-x,z
4 2/3+x,1/3+y,1/3+z
5 2/3-y,1/3+x-y,1/3+z
6 2/3-x+y,1/3-x,1/3+z
7 1/3+x,2/3+y,2/3+z
8 1/3-y,2/3+x-y,2/3+z
9 1/3-x+y,2/3-x,2/3+z
10 -x,-y,-z
11 y,-x+y,-z
12 x-y,x,-z
13 1/3-x,2/3-y,2/3-z
14 1/3+y,2/3-x+y,2/3-z
15 1/3+x-y,2/3+x,2/3-z
16 2/3-x,1/3-y,1/3-z
17 2/3+y,1/3-x+y,1/3-z
18 2/3+x-y,1/3+x,1/3-z
_cell_length_a                   16.3706(8)
_cell_length_b                   16.3706(8)
_cell_length_c                   22.5362(14)
_cell_angle_alpha                90
_cell_angle_beta                 90
_cell_angle_gamma                120
_cell_volume                     5230.47
loop_
_atom_site_label
_atom_site_type_symbol
_atom_site_fract_x
_atom_site_fract_y
_atom_site_fract_z
Cu1 Cu 0.089995(18) 0.551504(18) 0.020564(11)
O1 O 0.04694(11) 0.42774(11) 0.05703(8)
O2 O 0.11138(12) 0.35655(12) 0.25039(7)
O3 O 0.05036(12) 0.20731(12) 0.28160(7)
O4 O -0.10127(11) 0.34005(11) 0.02485(7)
O5 O -0.1884(2) -0.04149(16) 0.14981(12)
O6 O -0.22076(19) -0.00453(15) 0.06596(11)
N1 N 0.23568(12) 0.61870(12) 0.06062(8)
N2 N 0.23903(14) 0.48095(14) 0.06760(9)
H1 H 0.1785 0.4511 0.0697
H2 H 0.2691 0.4504 0.0689
N3 N -0.17647(18) 0.01608(16) 0.11189(11)
C1 C -0.04129(16) 0.27696(16) 0.09567(10)
C2 C 0.01051(16) 0.30249(16) 0.14788(10)
H3 H 0.0528 0.3659 0.1552
C3 C 0.00094(16) 0.23621(17) 0.18923(10)
C4 C -0.06043(17) 0.14061(16) 0.17760(10)
H4 H -0.0678 0.0944 0.2046
C5 C -0.10995(17) 0.11681(16) 0.12443(13)
C6 C -0.10341(17) 0.18239(16) 0.08370(10)
H5 H -0.1395 0.1640 0.0492
C7 C -0.03121(16) 0.35377(16) 0.05532(10)
C8 C 0.05828(16) 0.26864(16) 0.24518(10)
C9 C 0.28597(15) 0.57392(15) 0.06240(9)
Cu1P Cu 0.218171(18) 0.794842(25) 0.312769(11)
Cu1G Cu -0.218171(18) 0.205158(25) -0.312769(11)
Cu1I Cu -0.089995(18) 0.448496(18) -0.020564(11)
Cu1Q Cu 0.205158(25) 0.423328(18) 0.312769(11)
Cu1E Cu 0.128176(25) 0.243338(18) 0.353897(11)
Cu1A Cu 0.448496(18) 0.538491(25) 0.020564(11)
Cu1B Cu 0.461509(25) 0.910005(18) 0.020564(11)
Cu1D Cu 0.115163(18) 0.871824(25) 0.353897(11)
Cu1M Cu -0.115163(18) 0.128176(25) -0.353897(11)
O1P O 0.09441(11) 0.71413(16) 0.27630(8)
O1G O -0.09441(11) 0.28587(16) -0.27630(8)
O1I O -0.04694(11) 0.57226(11) -0.05703(8)
O1Q O 0.28587(16) 0.38027(11) 0.27630(8)
O2P O 0.02322(12) 0.57850(17) 0.08294(7)
O2G O -0.02322(12) 0.42150(17) -0.08294(7)
O3P O -0.12602(12) 0.49028(17) 0.05173(7)
O3G O 0.12602(12) 0.50972(17) -0.05173(7)
O3L O 0.28297(12) 0.45936(12) 0.38507(7)
O4P O 0.00672(11) 0.77465(16) 0.30848(7)
O4G O -0.00672(11) 0.22535(16) -0.30848(7)
O4I O 0.10127(11) 0.65995(11) -0.02485(7)
O4E O 0.10799(16) 0.43460(11) 0.35818(7)
O5P O -0.37482(16) 0.48024(26) 0.18352(12)
O5G O 0.37482(16) 0.51976(26) -0.18352(12)
O6P O -0.33786(15) 0.54956(24) 0.26737(11)
O6G O 0.33786(15) 0.45044(24) -0.26737(11)
N1A N 0.38130(12) 0.61698(17) 0.06062(8)
N1B N 0.38302(17) 0.76432(12) 0.06062(8)
N1Q N 0.28365(17) 0.56901(12) 0.27271(8)
N1I N -0.23568(12) 0.38130(12) -0.06062(8)
N2B N 0.24192(20) 0.76097(14) 0.06760(9)
N2A N 0.51905(14) 0.75808(20) 0.06760(9)
H1B H 0.2726 0.8215 0.0697
H1A H 0.5489 0.7274 0.0697
H2B H 0.1813 0.7309 0.0689
H2A H 0.5496 0.8187 0.0689
N3P N -0.31725(16) 0.52588(24) 0.22144(11)
N3G N 0.31725(16) 0.47412(24) -0.22144(11)
C1P C -0.05637(16) 0.65158(23) 0.23766(10)
C1G C 0.05637(16) 0.34842(23) -0.23766(10)
C2P C -0.03084(16) 0.62531(23) 0.18545(10)
C2G C 0.03084(16) 0.37469(23) -0.18545(10)
H3P H 0.0326 0.6464 0.1781
H3G H -0.0326 0.3536 -0.1781
C3P C -0.09712(17) 0.56860(23) 0.14410(10)
C3G C 0.09712(17) 0.43140(23) -0.14410(10)
C4P C -0.19272(16) 0.53437(23) 0.15573(10)
C4G C 0.19272(16) 0.46563(23) -0.15573(10)
H4P H -0.2389 0.4955 0.1287
H4G H 0.2389 0.5045 -0.1287
C5P C -0.21652(16) 0.56009(23) 0.20890(13)
C5G C 0.21652(16) 0.43991(23) -0.20890(13)
C6P C -0.15094(16) 0.61913(23) 0.24963(10)
C6G C 0.15094(16) 0.38087(23) -0.24963(10)
H5P H -0.1693 0.6368 0.2841
H5G H 0.1693 0.3632 -0.2841
C7P C 0.02044(16) 0.71831(23) 0.27801(10)
C7G C -0.02044(16) 0.28169(23) -0.27801(10)
C8P C -0.06469(16) 0.54369(23) 0.08815(10)
C8G C 0.06469(16) 0.45631(23) -0.08815(10)
C9A C 0.42608(15) 0.71205(21) 0.06240(9)
C9B C 0.28795(21) 0.71403(15) 0.06240(9)
loop_
_geom_bond_atom_site_label_1
_geom_bond_atom_site_label_2
_geom_bond_site_symmetry_1
_geom_bond_site_symmetry_2
Cu1 O1 1_555 1_555
O1 C7 1_555 1_555
O2 C8 1_555 1_555
O3 C8 1_555 1_555
O4 C7 1_555 1_555
O5 N3 1_555 1_555
O6 N3 1_555 1_555
N1 Cu1 1_555 1_555
N2 H1 1_555 1_555
H2 N2 1_555 1_555
N3 C5 1_555 1_555
C1 C2 1_555 1_555
C2 H3 1_555 1_555
C3 C2 1_555 1_555
C4 C3 1_555 1_555
H4 C4 1_555 1_555
C5 C4 1_555 1_555
C6 C1 1_555 1_555
H5 C6 1_555 1_555
C7 C1 1_555 1_555
C8 C3 1_555 1_555
C9 N1 1_555 1_555
Cu1P O1P 1_555 1_555
Cu1G O1G 1_555 1_555
Cu1I O4 1_555 1_555
Cu1Q O2 1_555 1_555
Cu1E O3 1_555 1_555
Cu1A N1A 1_555 1_555
Cu1B N1B 1_555 1_555
Cu1D O4P 1_555 1_555
Cu1M O4G 1_555 1_555
O1P C7P 1_555 1_555
O1G C7G 1_555 1_555
O1I Cu1I 1_555 1_555
O1Q Cu1Q 1_555 1_555
O2P Cu1 1_555 1_555
O2G Cu1I 1_555 1_555
O3P Cu1I 1_555 1_555
O3G Cu1 1_555 1_555
O3L Cu1Q 1_555 1_555
O4P C7P 1_555 1_555
O4G C7G 1_555 1_555
O4I Cu1 1_555 1_555
O4E Cu1Q 1_555 1_555
O5P N3P 1_555 1_555
O5G N3G 1_555 1_555
O6P N3P 1_555 1_555
O6G N3G 1_555 1_555
N1A C9 1_555 1_555
N1B C9A 1_555 1_555
N1Q Cu1Q 1_555 1_555
N1I Cu1I 1_555 1_555
N2B H1B 1_555 1_555
N2A H1A 1_555 1_555
H2B N2B 1_555 1_555
H2A N2A 1_555 1_555
N3P C5P 1_555 1_555
N3G C5G 1_555 1_555
C1P C2P 1_555 1_555
C1G C2G 1_555 1_555
C2P H3P 1_555 1_555
C2G H3G 1_555 1_555
C3P C2P 1_555 1_555
C3G C2G 1_555 1_555
C4P C3P 1_555 1_555
C4G C3G 1_555 1_555
H4P C4P 1_555 1_555
H4G C4G 1_555 1_555
C5P C4P 1_555 1_555
C5G C4G 1_555 1_555
C6P C1P 1_555 1_555
C6G C1G 1_555 1_555
H5P C6P 1_555 1_555
H5G C6G 1_555 1_555
C7P C1P 1_555 1_555
C7G C1G 1_555 1_555
C8P O2P 1_555 1_555
C8G O2G 1_555 1_555
C9A N1A 1_555 1_555
C9B N1 1_555 1_555
N2 C9 1_555 1_555
C5 C6 1_555 1_555
O3P C8P 1_555 1_555
O3G C8G 1_555 1_555
N1B C9B 1_555 1_555
N2B C9B 1_555 1_555
N2A C9A 1_555 1_555
C3P C8P 1_555 1_555
C3G C8G 1_555 1_555
C5P C6P 1_555 1_555
C5G C6G 1_555 1_555

#END
