
#######################################################################
#
#                 Cambridge Crystallographic Data Centre
#                                CCDC 
#
#######################################################################
#
# If this CIF has been generated from an entry in the Cambridge 
# Structural Database, then it will include bibliographic, chemical, 
# crystal, experimental, refinement or atomic coordinate data resulting 
# from the CCDC's data processing and validation procedures.
#
#######################################################################

data_UTUPAB
_symmetry_cell_setting           monoclinic
_symmetry_space_group_name_H-M   'P 21/n'
_symmetry_Int_Tables_number      14
_space_group_name_Hall           '-P 2yn'
loop_
_symmetry_equiv_pos_site_id
_symmetry_equiv_pos_as_xyz
1 x,y,z
2 1/2-x,1/2+y,1/2-z
3 -x,-y,-z
4 1/2+x,1/2-y,1/2+z
_cell_length_a                   7.5980(3)
_cell_length_b                   12.9258(5)
_cell_length_c                   30.7127(14)
_cell_angle_alpha                90
_cell_angle_beta                 94.956(2)
_cell_angle_gamma                90
_cell_volume                     3005.02
loop_
_atom_site_label
_atom_site_type_symbol
_atom_site_fract_x
_atom_site_fract_y
_atom_site_fract_z
Ba1 Ba 0.59297(4) 0.68028(2) 0.735725(10)
Ba2 Ba 0.40969(4) 0.36223(2) 0.762580(10)
O1 O 0.6266(4) 0.4806(2) 0.70852(11)
O2 O 0.6893(4) 0.3137(3) 0.71094(11)
O3 O 0.8035(4) 0.5861(3) 0.80414(11)
H1 H 0.8795 0.6124 0.8338
H2 H 0.7439 0.5189 0.8175
O4 O 0.3141(4) 0.7265(3) 0.78708(11)
O5 O 0.4635(4) 0.8917(3) 0.73176(12)
H3 H 0.5665 0.9194 0.7167
H4 H 0.4679 0.9146 0.7625
O6 O 0.3809(4) 0.5599(3) 0.79039(11)
O7 O 0.9694(4) 0.6525(3) 0.72967(12)
H5 H 1.0730 0.6256 0.7209
H6 H 0.9562 0.6180 0.7615
O8 O 0.7748(4) 0.8864(3) 0.68551(11)
O9 O 0.2038(5) 0.4528(3) 0.69257(12)
H7 H 0.1741 0.4277 0.6723
H8 H 0.2365 0.5136 0.6847
O10 O 0.6566(5) 0.7435(3) 0.65509(11)
O11 O 0.2779(4) 0.6526(3) 0.68205(11)
O12 O 0.1522(5) 0.7983(3) 0.65628(11)
C1 C 0.7886(6) 0.4111(4) 0.65203(15)
C2 C 0.8009(6) 0.5064(4) 0.63116(16)
H9 H 0.7483 0.5660 0.6427
C3 C 0.8896(7) 0.5144(4) 0.59371(17)
H10 H 0.8969 0.5794 0.5796
C4 C 0.9675(7) 0.4281(5) 0.57686(18)
H11 H 1.0286 0.4338 0.5512
C5 C 0.9560(7) 0.3331(4) 0.59756(18)
H12 H 1.0098 0.2738 0.5861
C6 C 0.8668(6) 0.3244(4) 0.63478(16)
H13 H 0.8587 0.2590 0.6486
C7 C 0.6950(6) 0.4018(4) 0.69368(16)
C8 C 0.2144(6) 0.6301(4) 0.84596(16)
C9 C 0.1358(6) 0.7169(4) 0.86344(16)
H14 H 0.1449 0.7824 0.8498
C10 C 0.0451(7) 0.7083(5) 0.90030(17)
H15 H -0.0085 0.7676 0.9118
C11 C 0.0324(7) 0.6131(5) 0.92055(18)
H16 H -0.0304 0.6072 0.9459
C12 C 0.1111(7) 0.5265(5) 0.90398(18)
H17 H 0.1030 0.4616 0.9181
C13 C 0.2012(6) 0.5345(4) 0.86688(16)
H18 H 0.2544 0.4749 0.8555
C14 C 0.3091(6) 0.6399(4) 0.80489(16)
C15 C 0.7638(6) 0.8682(4) 0.60758(16)
C16 C 0.6989(7) 0.8124(4) 0.57108(16)
H19 H 0.6376 0.7493 0.5745
C17 C 0.7237(8) 0.8491(5) 0.52965(18)
H20 H 0.6794 0.8110 0.5046
C18 C 0.8125(7) 0.9405(5) 0.52468(19)
H21 H 0.8271 0.9661 0.4962
C19 C 0.8800(7) 0.9951(5) 0.56085(18)
H22 H 0.9430 1.0576 0.5573
C20 C 0.8565(6) 0.9592(4) 0.60220(17)
H23 H 0.9039 0.9968 0.6271
C21 C 0.7298(6) 0.8289(4) 0.65195(16)
C22 C 0.2619(6) 0.6847(4) 0.60483(17)
C23 C 0.1931(7) 0.7449(4) 0.56999(17)
H24 H 0.1258 0.8049 0.5752
C24 C 0.2225(8) 0.7175(6) 0.52754(19)
H25 H 0.1749 0.7588 0.5038
C25 C 0.3198(8) 0.6311(6) 0.5195(2)
H26 H 0.3387 0.6125 0.4904
C26 C 0.3899(7) 0.5716(5) 0.5540(2)
H27 H 0.4583 0.5123 0.5485
C27 C 0.3618(6) 0.5974(4) 0.59665(18)
H28 H 0.4103 0.5558 0.6202
C28 C 0.2281(6) 0.7151(4) 0.65077(16)
Ba1A Ba 0.90703(4) 0.18028(2) 0.764275(10)
Ba2A Ba 0.09031(4) 0.86223(2) 0.737420(10)
Ba2A_2 Ba 1.09031(4) 0.86223(2) 0.737420(10)
O2A O 0.8107(4) 0.8137(3) 0.78906(11)
O4A O 0.1859(4) 0.2265(3) 0.71292(11)
O5A O 0.0365(4) 0.3917(3) 0.76824(12)
H3A H -0.0665 0.4194 0.7833
H4A H 0.0321 0.4146 0.7375
O7A O 0.5306(4) 0.1525(3) 0.77033(12)
H5A H 0.4270 0.1256 0.7791
H6A H 0.5438 0.1180 0.7385
O8A O 0.7252(4) 0.3864(3) 0.81449(11)
O12A O 0.3478(5) 0.2983(3) 0.84372(11)
loop_
_geom_bond_atom_site_label_1
_geom_bond_atom_site_label_2
_geom_bond_site_symmetry_1
_geom_bond_site_symmetry_2
Ba1 O1 1_555 1_555
Ba2 O1 1_555 1_555
O1 C7 1_555 1_555
O2 Ba2 1_555 1_555
O3 Ba1 1_555 1_555
H1 O3 1_555 1_555
H2 O3 1_555 1_555
O4 Ba1 1_555 1_555
O5 Ba1 1_555 1_555
H3 O5 1_555 1_555
H4 O5 1_555 1_555
O6 Ba1 1_555 1_555
O7 Ba1 1_555 1_555
H5 O7 1_555 1_555
H6 O7 1_555 1_555
O8 C21 1_555 1_555
O9 Ba2 1_555 1_555
H7 O9 1_555 1_555
H8 O9 1_555 1_555
O10 Ba1 1_555 1_555
O11 Ba1 1_555 1_555
O12 C28 1_555 1_555
C1 C2 1_555 1_555
C2 H9 1_555 1_555
C3 C2 1_555 1_555
H10 C3 1_555 1_555
C4 C3 1_555 1_555
H11 C4 1_555 1_555
C5 C4 1_555 1_555
H12 C5 1_555 1_555
C6 C1 1_555 1_555
H13 C6 1_555 1_555
C7 O2 1_555 1_555
C8 C9 1_555 1_555
C9 H14 1_555 1_555
C10 C9 1_555 1_555
H15 C10 1_555 1_555
C11 C10 1_555 1_555
H16 C11 1_555 1_555
C12 C11 1_555 1_555
H17 C12 1_555 1_555
C13 C8 1_555 1_555
H18 C13 1_555 1_555
C14 O4 1_555 1_555
C15 C16 1_555 1_555
C16 H19 1_555 1_555
C17 C16 1_555 1_555
H20 C17 1_555 1_555
C18 C17 1_555 1_555
H21 C18 1_555 1_555
C19 C18 1_555 1_555
H22 C19 1_555 1_555
C20 C15 1_555 1_555
H23 C20 1_555 1_555
C21 O10 1_555 1_555
C22 C23 1_555 1_555
C23 H24 1_555 1_555
C24 C23 1_555 1_555
H25 C24 1_555 1_555
C25 C24 1_555 1_555
H26 C25 1_555 1_555
C26 C25 1_555 1_555
H27 C26 1_555 1_555
C27 C22 1_555 1_555
H28 C27 1_555 1_555
C28 O11 1_555 1_555
Ba1A O2 1_555 1_555
Ba2A O4 1_555 1_555
Ba2A_2 O7 1_555 1_555
O2A Ba1 1_555 1_555
O4A Ba2 1_555 1_555
O5A Ba2 1_555 1_555
H3A O5A 1_555 1_555
H4A O5A 1_555 1_555
O7A Ba2 1_555 1_555
H5A O7A 1_555 1_555
H6A O7A 1_555 1_555
O8A Ba2 1_555 1_555
O12A Ba2 1_555 1_555
Ba2 O6 1_555 1_555
O5 Ba2A 1_555 1_555
O6 C14 1_555 1_555
O8 Ba2A_2 1_555 1_555
O12 Ba2A 1_555 1_555
C1 C7 1_555 1_555
C5 C6 1_555 1_555
C8 C14 1_555 1_555
C12 C13 1_555 1_555
C15 C21 1_555 1_555
C19 C20 1_555 1_555
C22 C28 1_555 1_555
C26 C27 1_555 1_555
Ba1A O7A 1_555 1_555
Ba2A_2 O2A 1_555 1_555

#END
