
#######################################################################
#
#                 Cambridge Crystallographic Data Centre
#                                CCDC 
#
#######################################################################
#
# If this CIF has been generated from an entry in the Cambridge 
# Structural Database, then it will include bibliographic, chemical, 
# crystal, experimental, refinement or atomic coordinate data resulting 
# from the CCDC's data processing and validation procedures.
#
#######################################################################

data_UTUPAB01
_symmetry_cell_setting           triclinic
_symmetry_space_group_name_H-M   'P -1'
_symmetry_Int_Tables_number      2
_space_group_name_Hall           '-P 1'
loop_
_symmetry_equiv_pos_site_id
_symmetry_equiv_pos_as_xyz
1 x,y,z
2 -x,-y,-z
_cell_length_a                   7.7064(3)
_cell_length_b                   12.8642(5)
_cell_length_c                   15.4986(7)
_cell_angle_alpha                86.456(2)
_cell_angle_beta                 87.080(2)
_cell_angle_gamma                89.835(2)
_cell_volume                     1531.55
loop_
_atom_site_label
_atom_site_type_symbol
_atom_site_fract_x
_atom_site_fract_y
_atom_site_fract_z
Ba1 Ba 0.60302(3) 0.157269(16) 0.530022(15)
Ba2 Ba 0.10196(3) 0.339493(17) 0.529038(15)
O1 O -0.1244(4) 0.4641(2) 0.4187(2)
O2 O -0.1914(4) 0.2982(2) 0.4308(2)
O3 O 0.2004(6) 0.2681(3) 0.6890(3)
O4 O 0.3122(5) 0.1251(3) 0.6368(2)
O5 O -0.1827(5) 0.3523(3) 0.6417(2)
O6 O 0.3141(4) 0.2149(2) 0.43104(19)
O7 O 0.3759(4) 0.0483(2) 0.4199(2)
O8 O 0.7933(5) 0.0664(3) 0.3909(3)
O9 O -0.3075(6) 0.2052(3) 0.6915(2)
C1 C -0.2383(6) 0.2901(3) 0.7029(3)
C2 C -0.1987(5) 0.3869(3) 0.3923(3)
O10 O -0.0258(5) 0.1269(3) 0.5482(3)
C3 C -0.2943(5) 0.3996(3) 0.3102(3)
C4 C -0.3759(6) 0.3134(4) 0.2785(3)
H1 H -0.3696 0.2483 0.3076
C5 C -0.4655(7) 0.3259(5) 0.2036(4)
H2 H -0.5202 0.2690 0.1826
C6 C -0.4741(8) 0.4206(6) 0.1607(4)
H3 H -0.5354 0.4283 0.1106
C7 C -0.3945(8) 0.5039(5) 0.1900(4)
H4 H -0.4008 0.5684 0.1597
C8 C -0.3033(7) 0.4938(4) 0.2648(3)
H5 H -0.2480 0.5514 0.2843
C9 C 0.2626(6) 0.1790(3) 0.6989(3)
C10 C 0.2770(6) 0.1339(4) 0.7889(3)
C11 C 0.2019(8) 0.1843(5) 0.8571(3)
H6 H 0.1436 0.2469 0.8469
C12 C 0.2128(11) 0.1427(8) 0.9398(4)
H7 H 0.1636 0.1767 0.9863
C13 C 0.2999(12) 0.0473(9) 0.9531(5)
H8 H 0.3064 0.0177 1.0091
C14 C 0.3732(10) -0.0016(6) 0.8873(5)
H9 H 0.4305 -0.0645 0.8977
C15 C 0.3644(7) 0.0406(4) 0.8045(4)
H10 H 0.4168 0.0069 0.7587
O11 O 0.2915(5) 0.4535(3) 0.3909(3)
O12 O 0.4723(5) 0.3674(3) 0.5524(3)
C16 C -0.2218(6) 0.3191(3) 0.7937(3)
C17 C -0.2989(8) 0.2591(5) 0.8618(3)
H11 H -0.3619 0.1999 0.8517
C18 C -0.2812(10) 0.2884(7) 0.9459(4)
H12 H -0.3333 0.2487 0.9923
C19 C -0.1879(11) 0.3747(7) 0.9607(5)
H13 H -0.1762 0.3932 1.0172
C20 C -0.1134(10) 0.4327(6) 0.8950(5)
H14 H -0.0492 0.4912 0.9059
C21 C -0.1306(7) 0.4068(4) 0.8122(4)
H15 H -0.0800 0.4489 0.7670
C22 C 0.3052(5) 0.1316(3) 0.3932(3)
C23 C 0.2065(5) 0.1314(3) 0.3122(3)
C24 C 0.1262(6) 0.2226(4) 0.2808(3)
H16 H 0.1359 0.2832 0.3100
C25 C 0.0333(7) 0.2240(5) 0.2077(4)
H17 H -0.0206 0.2850 0.1877
C26 C 0.0204(7) 0.1361(6) 0.1645(4)
H18 H -0.0422 0.1372 0.1147
C27 C 0.0979(8) 0.0464(6) 0.1932(4)
H19 H 0.0877 -0.0133 0.1629
C28 C 0.1925(7) 0.0430(4) 0.2674(3)
H20 H 0.2457 -0.0186 0.2866
Ba1_2 Ba -0.39698(3) 0.157269(16) 0.530022(15)
Ba1A Ba 0.39698(3) -0.157269(16) 0.469978(15)
Ba2A Ba -0.10196(3) 0.660507(17) 0.470962(15)
O1A O 0.1244(4) 0.5359(2) 0.5813(2)
O2_2 O 0.8086(4) 0.2982(2) 0.4308(2)
O7A O 0.6241(4) -0.0483(2) 0.5801(2)
O9_2 O 0.6925(6) 0.2052(3) 0.6915(2)
O10_2 O 0.9742(5) 0.1269(3) 0.5482(3)
loop_
_geom_bond_atom_site_label_1
_geom_bond_atom_site_label_2
_geom_bond_site_symmetry_1
_geom_bond_site_symmetry_2
Ba1 O4 1_555 1_555
Ba2 O1 1_555 1_555
O1 C2 1_555 1_555
O2 Ba2 1_555 1_555
O3 Ba2 1_555 1_555
O4 C9 1_555 1_555
O5 Ba2 1_555 1_555
O6 Ba1 1_555 1_555
O7 Ba1 1_555 1_555
O8 Ba1 1_555 1_555
O9 C1 1_555 1_555
C1 O5 1_555 1_555
C2 O2 1_555 1_555
O10 Ba2 1_555 1_555
C3 C2 1_555 1_555
C4 C3 1_555 1_555
H1 C4 1_555 1_555
C5 C4 1_555 1_555
H2 C5 1_555 1_555
C6 C5 1_555 1_555
H3 C6 1_555 1_555
C7 C6 1_555 1_555
H4 C7 1_555 1_555
C8 C3 1_555 1_555
H5 C8 1_555 1_555
C9 O3 1_555 1_555
C10 C9 1_555 1_555
C11 C10 1_555 1_555
H6 C11 1_555 1_555
C12 C11 1_555 1_555
H7 C12 1_555 1_555
C13 C12 1_555 1_555
H8 C13 1_555 1_555
C14 C13 1_555 1_555
H9 C14 1_555 1_555
C15 C10 1_555 1_555
H10 C15 1_555 1_555
O11 Ba2 1_555 1_555
O12 Ba1 1_555 1_555
C16 C1 1_555 1_555
C17 C16 1_555 1_555
H11 C17 1_555 1_555
C18 C17 1_555 1_555
H12 C18 1_555 1_555
C19 C18 1_555 1_555
H13 C19 1_555 1_555
C20 C19 1_555 1_555
H14 C20 1_555 1_555
C21 C16 1_555 1_555
H15 C21 1_555 1_555
C22 O6 1_555 1_555
C23 C22 1_555 1_555
C24 C23 1_555 1_555
H16 C24 1_555 1_555
C25 C24 1_555 1_555
H17 C25 1_555 1_555
C26 C25 1_555 1_555
H18 C26 1_555 1_555
C27 C26 1_555 1_555
H19 C27 1_555 1_555
C28 C23 1_555 1_555
H20 C28 1_555 1_555
Ba1_2 O2 1_555 1_555
Ba1A O7 1_555 1_555
Ba2A O1 1_555 1_555
O1A Ba2 1_555 1_555
O2_2 Ba1 1_555 1_555
O7A Ba1 1_555 1_555
O9_2 Ba1 1_555 1_555
O10_2 Ba1 1_555 1_555
Ba2 O6 1_555 1_555
Ba2 O12 1_555 1_555
O7 C22 1_555 1_555
O9 Ba1_2 1_555 1_555
O10 Ba1_2 1_555 1_555
C7 C8 1_555 1_555
C14 C15 1_555 1_555
C20 C21 1_555 1_555
C27 C28 1_555 1_555
Ba1A O7A 1_555 1_555
Ba2A O1A 1_555 1_555

#END
