
#######################################################################
#
#                 Cambridge Crystallographic Data Centre
#                                CCDC 
#
#######################################################################
#
# If this CIF has been generated from an entry in the Cambridge 
# Structural Database, then it will include bibliographic, chemical, 
# crystal, experimental, refinement or atomic coordinate data resulting 
# from the CCDC's data processing and validation procedures.
#
#######################################################################

data_UVAMEK
_symmetry_cell_setting           monoclinic
_symmetry_space_group_name_H-M   'C 2/c'
_symmetry_Int_Tables_number      15
_space_group_name_Hall           '-C 2yn'
loop_
_symmetry_equiv_pos_site_id
_symmetry_equiv_pos_as_xyz
1 x,y,z
2 -x,y,1/2-z
3 1/2+x,1/2+y,z
4 1/2-x,1/2+y,1/2-z
5 -x,-y,-z
6 x,-y,1/2+z
7 1/2-x,1/2-y,-z
8 1/2+x,1/2-y,1/2+z
_cell_length_a                   33.015(4)
_cell_length_b                   12.0251(16)
_cell_length_c                   25.366(3)
_cell_angle_alpha                90
_cell_angle_beta                 93.295(2)
_cell_angle_gamma                90
_cell_volume                     10053.9
loop_
_atom_site_label
_atom_site_type_symbol
_atom_site_fract_x
_atom_site_fract_y
_atom_site_fract_z
C1 C -0.09559(16) 0.1091(5) 0.4192(2)
C2 C -0.10673(16) 0.0201(5) 0.4494(2)
H1 H -0.0872 -0.0202 0.4691
C3 C -0.14751(16) -0.0092(5) 0.45010(19)
C4 C -0.17673(16) 0.0460(5) 0.4182(2)
H2 H -0.2039 0.0255 0.4179
C5 C -0.16435(16) 0.1320(5) 0.3870(2)
C6 C -0.12472(17) 0.1662(5) 0.3883(2)
H3 H -0.1174 0.2274 0.3686
C7 C -0.05263(17) 0.1454(6) 0.4197(2)
C8 C -0.19455(18) -0.1545(6) 0.4839(2)
H4 H -0.2159 -0.1503 0.4584
C9 C -0.19238(18) -0.2200(6) 0.5266(2)
H5 H -0.2121 -0.2708 0.5355
C10 C -0.13746(16) -0.1258(5) 0.52950(19)
H6 H -0.1121 -0.0971 0.5402
C11 C -0.22933(19) 0.2342(6) 0.3635(2)
H7 H -0.2421 0.2289 0.3952
C12 C -0.2429(2) 0.2879(6) 0.3197(2)
H8 H -0.2670 0.3275 0.3161
C13 C -0.18637(18) 0.2162(5) 0.3018(2)
H9 H -0.1636 0.1951 0.2844
C14 C 0.15994(18) 0.3382(6) 0.6527(2)
C15 C 0.15068(18) 0.4281(5) 0.6837(2)
H10 H 0.1696 0.4526 0.7097
C16 C 0.11408(19) 0.4821(5) 0.6767(2)
C17 C 0.08527(18) 0.4460(6) 0.6385(2)
H11 H 0.0602 0.4812 0.6339
C18 C 0.09478(19) 0.3567(6) 0.6075(2)
C19 C 0.13170(19) 0.3033(6) 0.6133(2)
H12 H 0.1377 0.2446 0.5911
C20 C 0.1983(2) 0.2718(6) 0.6653(3)
C21 C 0.0701(2) 0.6355(6) 0.7087(2)
H13 H 0.0496 0.6353 0.6819
C22 C 0.0718(2) 0.6995(6) 0.7517(3)
H14 H 0.0525 0.7521 0.7599
C23 C 0.12466(18) 0.5974(5) 0.7573(2)
H15 H 0.1488 0.5640 0.7695
C24 C 0.0316(2) 0.2531(8) 0.5821(3)
H16 H 0.0224 0.2405 0.6155
C25 C 0.0148(2) 0.2156(8) 0.5356(3)
H17 H -0.0085 0.1721 0.5318
C26 C 0.0676(2) 0.3056(6) 0.5180(2)
H18 H 0.0888 0.3357 0.5001
C27 C 0.07985(18) 0.0252(5) 0.2942(2)
C28 C 0.11926(18) -0.0166(5) 0.3001(2)
C29 C 0.1380(2) -0.0540(5) 0.2557(2)
H19 H 0.1646 -0.0797 0.2591
C30 C 0.1175(2) -0.0536(6) 0.2062(2)
H20 H 0.1307 -0.0768 0.1767
C31 C 0.0777(2) -0.0187(6) 0.2007(3)
H21 H 0.0634 -0.0220 0.1681
C32 C 0.0595(2) 0.0207(6) 0.2441(2)
H22 H 0.0328 0.0453 0.2402
C33 C 0.05972(18) 0.0867(6) 0.3362(2)
C34 C 0.18105(18) -0.0010(5) 0.3631(2)
C35 C 0.1415(2) -0.0374(5) 0.3522(2)
C36 C 0.1249(2) -0.1086(6) 0.3883(2)
H23 H 0.0982 -0.1327 0.3822
C37 C 0.1470(3) -0.1445(6) 0.4331(2)
H24 H 0.1351 -0.1908 0.4572
C38 C 0.1870(3) -0.1107(6) 0.4416(3)
H25 H 0.2025 -0.1366 0.4709
C39 C 0.2035(2) -0.0399(6) 0.4073(2)
H26 H 0.2302 -0.0170 0.4134
C40 C 0.20072(18) 0.0846(5) 0.3285(2)
C41 C 0.07271(19) 0.5272(5) 0.3517(2)
C42 C 0.11106(19) 0.5682(5) 0.3693(2)
C43 C 0.1305(2) 0.6435(6) 0.3374(3)
H27 H 0.1565 0.6684 0.3474
C44 C 0.1114(3) 0.6809(6) 0.2913(3)
H28 H 0.1251 0.7290 0.2698
C45 C 0.0730(3) 0.6493(7) 0.2765(3)
H29 H 0.0596 0.6801 0.2466
C46 C 0.0536(2) 0.5699(6) 0.3064(3)
H30 H 0.0277 0.5457 0.2956
C47 C 0.05442(19) 0.4287(6) 0.3763(2)
C48 C 0.1294(2) 0.5471(5) 0.4233(2)
C49 C 0.16901(19) 0.5108(5) 0.4343(2)
C50 C 0.1850(2) 0.5109(6) 0.4863(3)
H31 H 0.2116 0.4880 0.4937
C51 C 0.1616(3) 0.5449(8) 0.5271(3)
H32 H 0.1727 0.5456 0.5617
C52 C 0.1224(3) 0.5773(7) 0.5167(3)
H33 H 0.1064 0.5972 0.5442
C53 C 0.1068(2) 0.5805(6) 0.4658(3)
H34 H 0.0804 0.6056 0.4589
C54 C 0.19568(18) 0.4669(6) 0.3928(2)
Cd1 Cd 0.022782(12) 0.22543(4) 0.407777(16)
Cd2 Cd -0.130830(12) -0.26343(4) 0.635450(15)
Cd3 Cd 0.229582(12) 0.31642(4) 0.307063(16)
N1 N -0.15646(14) -0.2006(4) 0.55550(17)
N2 N -0.15907(13) -0.0948(4) 0.48497(16)
N3 N -0.21575(16) 0.2760(4) 0.28065(19)
N4 N -0.19290(14) 0.1886(4) 0.35195(18)
N5 N 0.10663(15) 0.6754(4) 0.78226(18)
N6 N 0.10404(15) 0.5702(4) 0.71108(18)
N7 N 0.03731(17) 0.2515(6) 0.4949(2)
N8 N 0.06486(16) 0.3132(6) 0.5699(2)
O1 O -0.04542(13) 0.2403(4) 0.40134(19)
O2 O -0.02535(12) 0.0826(4) 0.43741(18)
O3 O 0.20578(15) 0.2472(5) 0.7121(2)
O4 O 0.22050(17) 0.2461(6) 0.6298(2)
O5 O 0.08120(12) 0.1281(3) 0.37453(15)
O6 O 0.02274(14) 0.1062(6) 0.33199(19)
O7 O 0.18312(12) 0.1774(3) 0.32351(15)
O8 O 0.23259(15) 0.0605(5) 0.3090(2)
O9 O 0.07793(12) 0.3589(3) 0.40027(16)
O10 O 0.01747(14) 0.4127(5) 0.3717(2)
O11 O 0.18055(12) 0.3980(3) 0.35883(15)
O12 O 0.23113(14) 0.4969(6) 0.3936(2)
O13 O 0.23410(17) 0.5006(4) 0.2803(2)
Cd2A Cd 0.130830(12) 0.73657(4) 0.864550(15)
Cd2D Cd 0.130830(12) 0.26343(4) 0.364550(15)
Cd3A Cd -0.229582(12) 0.31642(4) 0.192937(16)
Cd3F Cd 0.270418(12) 0.18358(4) 0.692937(16)
N3A N 0.21575(16) 0.2760(4) 0.21935(19)
N5A N -0.10663(15) -0.3246(4) 0.71774(18)
O3F O 0.29422(15) 0.2528(5) 0.2879(2)
O4F O 0.27950(17) 0.2539(6) 0.3702(2)
O5D O -0.08120(12) -0.1281(3) 0.62547(15)
O7D O -0.18312(12) -0.1774(3) 0.67649(15)
O9D O -0.07793(12) -0.3589(3) 0.59973(16)
O11D O -0.18055(12) -0.3980(3) 0.64117(15)
loop_
_geom_bond_atom_site_label_1
_geom_bond_atom_site_label_2
_geom_bond_site_symmetry_1
_geom_bond_site_symmetry_2
C1 C2 1_555 1_555
C2 H1 1_555 1_555
C3 C2 1_555 1_555
C4 C3 1_555 1_555
H2 C4 1_555 1_555
C5 C4 1_555 1_555
C6 C1 1_555 1_555
H3 C6 1_555 1_555
C7 C1 1_555 1_555
C8 H4 1_555 1_555
C9 C8 1_555 1_555
H5 C9 1_555 1_555
C10 H6 1_555 1_555
C11 H7 1_555 1_555
C12 C11 1_555 1_555
H8 C12 1_555 1_555
C13 H9 1_555 1_555
C14 C15 1_555 1_555
C15 H10 1_555 1_555
C16 C15 1_555 1_555
C17 C16 1_555 1_555
H11 C17 1_555 1_555
C18 C17 1_555 1_555
C19 C14 1_555 1_555
H12 C19 1_555 1_555
C20 C14 1_555 1_555
C21 H13 1_555 1_555
C22 C21 1_555 1_555
H14 C22 1_555 1_555
C23 H15 1_555 1_555
C24 H16 1_555 1_555
C25 C24 1_555 1_555
H17 C25 1_555 1_555
C26 H18 1_555 1_555
C27 C28 1_555 1_555
C28 C29 1_555 1_555
C29 H19 1_555 1_555
C30 C29 1_555 1_555
H20 C30 1_555 1_555
C31 C30 1_555 1_555
H21 C31 1_555 1_555
C32 C27 1_555 1_555
H22 C32 1_555 1_555
C33 C27 1_555 1_555
C34 C35 1_555 1_555
C35 C28 1_555 1_555
C36 C35 1_555 1_555
H23 C36 1_555 1_555
C37 C36 1_555 1_555
H24 C37 1_555 1_555
C38 C37 1_555 1_555
H25 C38 1_555 1_555
C39 C34 1_555 1_555
H26 C39 1_555 1_555
C40 C34 1_555 1_555
C41 C42 1_555 1_555
C42 C43 1_555 1_555
C43 H27 1_555 1_555
C44 C43 1_555 1_555
H28 C44 1_555 1_555
C45 C44 1_555 1_555
H29 C45 1_555 1_555
C46 C41 1_555 1_555
H30 C46 1_555 1_555
C47 C41 1_555 1_555
C48 C42 1_555 1_555
C49 C48 1_555 1_555
C50 C49 1_555 1_555
H31 C50 1_555 1_555
C51 C50 1_555 1_555
H32 C51 1_555 1_555
C52 C51 1_555 1_555
H33 C52 1_555 1_555
C53 C48 1_555 1_555
H34 C53 1_555 1_555
C54 C49 1_555 1_555
Cd1 N7 1_555 1_555
Cd2 N1 1_555 1_555
Cd3 O7 1_555 1_555
N1 C9 1_555 1_555
N2 C3 1_555 1_555
N3 C12 1_555 1_555
N4 C5 1_555 1_555
N5 C22 1_555 1_555
N6 C16 1_555 1_555
N7 C25 1_555 1_555
N8 C18 1_555 1_555
O1 C7 1_555 1_555
O2 C7 1_555 1_555
O3 C20 1_555 1_555
O4 C20 1_555 1_555
O5 C33 1_555 1_555
O6 C33 1_555 1_555
O7 C40 1_555 1_555
O8 C40 1_555 1_555
O9 C47 1_555 1_555
O10 C47 1_555 1_555
O11 C54 1_555 1_555
O12 C54 1_555 1_555
O13 Cd3 1_555 1_555
Cd2A N5 1_555 1_555
Cd2D O5 1_555 1_555
Cd3A N3 1_555 1_555
Cd3F O3 1_555 1_555
N3A Cd3 1_555 1_555
N5A Cd2 1_555 1_555
O3F Cd3 1_555 1_555
O4F Cd3 1_555 1_555
O5D Cd2 1_555 1_555
O7D Cd2 1_555 1_555
O9D Cd2 1_555 1_555
O11D Cd2 1_555 1_555
C5 C6 1_555 1_555
C8 N2 1_555 1_555
C10 N1 1_555 1_555
C10 N2 1_555 1_555
C11 N4 1_555 1_555
C13 N3 1_555 1_555
C13 N4 1_555 1_555
C18 C19 1_555 1_555
C21 N6 1_555 1_555
C23 N5 1_555 1_555
C23 N6 1_555 1_555
C24 N8 1_555 1_555
C26 N7 1_555 1_555
C26 N8 1_555 1_555
C31 C32 1_555 1_555
C38 C39 1_555 1_555
C45 C46 1_555 1_555
C52 C53 1_555 1_555
Cd1 O1 1_555 1_555
Cd1 O2 1_555 1_555
Cd1 O5 1_555 1_555
Cd1 O6 1_555 1_555
Cd1 O9 1_555 1_555
Cd1 O10 1_555 1_555
Cd3 O11 1_555 1_555
O4 Cd3F 1_555 1_555
O7 Cd2D 1_555 1_555
O9 Cd2D 1_555 1_555
O11 Cd2D 1_555 1_555

#END
