
#######################################################################
#
#                 Cambridge Crystallographic Data Centre
#                                CCDC 
#
#######################################################################
#
# If this CIF has been generated from an entry in the Cambridge 
# Structural Database, then it will include bibliographic, chemical, 
# crystal, experimental, refinement or atomic coordinate data resulting 
# from the CCDC's data processing and validation procedures.
#
#######################################################################

data_UVAMIO
_symmetry_cell_setting           orthorhombic
_symmetry_space_group_name_H-M   'P c a 21'
_symmetry_Int_Tables_number      29
_space_group_name_Hall           'P 2c -2ac'
loop_
_symmetry_equiv_pos_site_id
_symmetry_equiv_pos_as_xyz
1 x,y,z
2 1/2-x,y,1/2+z
3 1/2+x,-y,z
4 -x,-y,1/2+z
_cell_length_a                   18.8457(16)
_cell_length_b                   13.6944(16)
_cell_length_c                   20.315(2)
_cell_angle_alpha                90
_cell_angle_beta                 90
_cell_angle_gamma                90
_cell_volume                     5242.91
loop_
_atom_site_label
_atom_site_type_symbol
_atom_site_fract_x
_atom_site_fract_y
_atom_site_fract_z
Co1 Co 0.59898(4) 0.57510(5) 0.55811(4)
Co2 Co 0.63353(4) 0.74879(6) 0.65902(5)
Co3 Co 0.66618(4) 0.92149(5) 0.75990(4)
O1 O 0.5828(2) -0.1392(3) 0.6170(2)
O2 O 0.5898(2) -0.0251(3) 0.6964(2)
O3 O 0.6707(2) 0.5256(3) 0.6263(2)
O4 O 0.6857(2) 0.6377(3) 0.7038(2)
O5 O 0.6127(2) 0.7879(3) 0.7628(2)
O6 O 0.6580(3) 0.7280(4) 0.8555(2)
O7 O 0.5446(2) 0.6587(3) 0.6362(2)
O8 O 0.4401(3) 0.6728(5) 0.5852(3)
O9 O 0.6532(2) 0.7100(3) 0.5536(2)
O10 O 0.6100(3) 0.7664(4) 0.4577(3)
O11 O 0.7225(2) 0.8391(3) 0.6802(2)
O12 O 0.8294(2) 0.8334(4) 0.7265(2)
O13 O 0.5239(3) 0.6152(4) 0.4879(3)
O14 O 0.7446(3) 0.8801(4) 0.8272(2)
N1 N 0.5195(3) 0.2887(4) 0.5866(3)
N2 N 0.5474(3) 0.4408(4) 0.5782(3)
N3 N 0.4612(3) 0.0286(4) 0.4274(3)
N4 N 0.3968(3) 0.0243(4) 0.3381(3)
N5 N 0.7399(3) 0.2068(3) 0.7279(3)
N6 N 0.7168(3) 0.0510(4) 0.7347(3)
N7 N 0.7872(3) 0.4468(4) 0.8969(3)
N8 N 0.8379(3) 0.5044(4) 0.9867(3)
C1 C 0.5147(3) 0.1858(4) 0.5694(3)
C2 C 0.4881(3) 0.1579(5) 0.5072(3)
H1 H 0.4704 0.2056 0.4775
C3 C 0.4882(3) 0.0592(5) 0.4902(3)
C4 C 0.5136(3) -0.0099(5) 0.5347(3)
H2 H 0.5127 -0.0773 0.5236
C5 C 0.5400(3) 0.0197(5) 0.5948(3)
C6 C 0.5415(3) 0.1197(4) 0.6113(3)
H3 H 0.5614 0.1402 0.6520
C7 C 0.5346(3) 0.3638(4) 0.5469(3)
H4 H 0.5355 0.3594 0.5002
C8 C 0.5335(3) 0.4178(4) 0.6467(3)
H5 H 0.5351 0.4623 0.6826
C9 C 0.5180(3) 0.3225(4) 0.6504(4)
H6 H 0.5079 0.2859 0.6891
C10 C 0.4078(3) 0.0694(4) 0.3938(3)
H7 H 0.3812 0.1241 0.4086
C11 C 0.4430(4) -0.0523(6) 0.3375(3)
H8 H 0.4459 -0.0997 0.3034
C12 C 0.4841(4) -0.0516(5) 0.3921(4)
H9 H 0.5206 -0.0963 0.4036
C13 C 0.5734(3) -0.0555(4) 0.6397(3)
C14 C 0.7452(3) 0.3075(4) 0.7471(3)
C15 C 0.7715(3) 0.3300(4) 0.8100(3)
H10 H 0.7898 0.2805 0.8380
C16 C 0.7700(4) 0.4269(5) 0.8297(3)
C17 C 0.7472(4) 0.5005(4) 0.7892(3)
H11 H 0.7475 0.5663 0.8041
C18 C 0.7233(3) 0.4780(4) 0.7258(3)
C19 C 0.7215(3) 0.3794(4) 0.7054(3)
H12 H 0.7039 0.3630 0.6630
C20 C 0.7240(3) 0.1311(4) 0.7673(3)
H13 H 0.7187 0.1361 0.8137
C21 C 0.7293(3) 0.0758(4) 0.6690(3)
H14 H 0.7280 0.0319 0.6329
C22 C 0.7435(3) 0.1721(4) 0.6652(3)
H15 H 0.7539 0.2084 0.6265
C23 C 0.7696(3) 0.8471(5) 0.5386(3)
C24 C 0.8325(4) 0.5124(5) 0.9217(3)
H16 H 0.8576 0.5589 0.8961
C25 C 0.7911(5) 0.4301(5) 1.0027(4)
H17 H 0.7810 0.4097 1.0464
C26 C 0.7620(5) 0.3908(6) 0.9489(4)
H18 H 0.7309 0.3363 0.9467
C27 C 0.6914(3) 0.5537(4) 0.6811(3)
C28 C 0.4668(4) 0.7462(5) 0.7504(4)
C29 C 0.4553(3) 0.7628(5) 0.6847(4)
C30 C 0.4210(3) 0.8472(5) 0.6634(5)
H19 H 0.4115 0.8571 0.6179
C31 C 0.4008(4) 0.9173(6) 0.7099(6)
H20 H 0.3785 0.9761 0.6963
C32 C 0.4136(4) 0.8999(6) 0.7764(5)
H21 H 0.4002 0.9473 0.8082
C33 C 0.4452(4) 0.8156(6) 0.7961(5)
H22 H 0.4525 0.8039 0.8417
C34 C 0.4810(3) 0.6929(5) 0.6310(4)
C35 C 0.4963(4) 0.6518(5) 0.7765(4)
C36 C 0.5608(4) 0.6443(5) 0.8086(3)
C37 C 0.5792(6) 0.5562(6) 0.8409(4)
H23 H 0.6218 0.5518 0.8657
C38 C 0.5337(7) 0.4758(6) 0.8357(5)
H24 H 0.5465 0.4157 0.8559
C39 C 0.4710(6) 0.4825(7) 0.8019(5)
H25 H 0.4406 0.4274 0.7983
C40 C 0.4530(5) 0.5674(6) 0.7742(4)
H26 H 0.4088 0.5714 0.7517
C41 C 0.6157(4) 0.7244(5) 0.8098(3)
C42 C 0.7042(4) 0.8539(5) 0.5074(3)
C43 C 0.6863(5) 0.9421(6) 0.4769(4)
H27 H 0.6425 0.9468 0.4539
C44 C 0.7303(5) 1.0219(5) 0.4795(4)
H28 H 0.7174 1.0810 0.4580
C45 C 0.7931(5) 1.0155(6) 0.5133(4)
H29 H 0.8231 1.0711 0.5163
C46 C 0.8136(4) 0.9279(5) 0.5433(4)
H30 H 0.8572 0.9239 0.5666
C47 C 0.6530(4) 0.7705(5) 0.5050(3)
C48 C 0.7992(3) 0.7524(4) 0.5646(3)
C49 C 0.8106(3) 0.7359(5) 0.6324(3)
C50 C 0.8425(3) 0.6503(5) 0.6515(4)
H31 H 0.8522 0.6403 0.6969
C51 C 0.8609(4) 0.5782(6) 0.6070(4)
H32 H 0.8805 0.5181 0.6217
C52 C 0.8505(4) 0.5952(6) 0.5411(4)
H33 H 0.8640 0.5469 0.5099
C53 C 0.8210(4) 0.6800(6) 0.5199(4)
H34 H 0.8150 0.6906 0.4740
C54 C 0.7864(3) 0.8093(5) 0.6827(3)
Co1A Co 0.90102(4) 0.57510(5) 1.05811(4)
Co2_2 Co 0.63353(4) -0.25121(6) 0.65902(5)
Co3_2 Co 0.66618(4) -0.07851(5) 0.75990(4)
Co3C Co 0.33382(4) 0.07851(5) 0.25990(4)
O1_2 O 0.5828(2) 0.8608(3) 0.6170(2)
O2_2 O 0.5898(2) 0.9749(3) 0.6964(2)
N4C N 0.6032(3) 0.9757(4) 0.8381(3)
N6_2 N 0.7168(3) 1.0510(4) 0.7347(3)
N8A N 0.6621(3) 0.5044(4) 0.4867(3)
O15 O 0.9239(5) 0.7525(6) 0.8200(4)
loop_
_geom_bond_atom_site_label_1
_geom_bond_atom_site_label_2
_geom_bond_site_symmetry_1
_geom_bond_site_symmetry_2
Co1 O3 1_555 1_555
Co2 O4 1_555 1_555
Co3 O5 1_555 1_555
O1 C13 1_555 1_555
O2 C13 1_555 1_555
O3 C27 1_555 1_555
O4 C27 1_555 1_555
O5 Co2 1_555 1_555
O6 C41 1_555 1_555
O7 Co1 1_555 1_555
O8 C34 1_555 1_555
O9 Co1 1_555 1_555
O10 C47 1_555 1_555
O11 Co2 1_555 1_555
O12 C54 1_555 1_555
O13 Co1 1_555 1_555
O14 Co3 1_555 1_555
N1 C1 1_555 1_555
N2 Co1 1_555 1_555
N3 C3 1_555 1_555
N4 C10 1_555 1_555
N5 C14 1_555 1_555
N6 C20 1_555 1_555
N7 C16 1_555 1_555
N8 C24 1_555 1_555
C1 C2 1_555 1_555
C2 H1 1_555 1_555
C3 C2 1_555 1_555
C4 C3 1_555 1_555
H2 C4 1_555 1_555
C5 C4 1_555 1_555
C6 C1 1_555 1_555
H3 C6 1_555 1_555
C7 N1 1_555 1_555
H4 C7 1_555 1_555
C8 N2 1_555 1_555
H5 C8 1_555 1_555
C9 N1 1_555 1_555
H6 C9 1_555 1_555
C10 N3 1_555 1_555
H7 C10 1_555 1_555
C11 N4 1_555 1_555
H8 C11 1_555 1_555
C12 N3 1_555 1_555
H9 C12 1_555 1_555
C13 C5 1_555 1_555
C14 C15 1_555 1_555
C15 H10 1_555 1_555
C16 C15 1_555 1_555
C17 C16 1_555 1_555
H11 C17 1_555 1_555
C18 C17 1_555 1_555
C19 C14 1_555 1_555
H12 C19 1_555 1_555
C20 N5 1_555 1_555
H13 C20 1_555 1_555
C21 N6 1_555 1_555
H14 C21 1_555 1_555
C22 N5 1_555 1_555
H15 C22 1_555 1_555
C23 C42 1_555 1_555
C24 N7 1_555 1_555
H16 C24 1_555 1_555
C25 N8 1_555 1_555
H17 C25 1_555 1_555
C26 N7 1_555 1_555
H18 C26 1_555 1_555
C27 C18 1_555 1_555
C28 C29 1_555 1_555
C29 C30 1_555 1_555
C30 H19 1_555 1_555
C31 C30 1_555 1_555
H20 C31 1_555 1_555
C32 C31 1_555 1_555
H21 C32 1_555 1_555
C33 C28 1_555 1_555
H22 C33 1_555 1_555
C34 O7 1_555 1_555
C35 C28 1_555 1_555
C36 C35 1_555 1_555
C37 C36 1_555 1_555
H23 C37 1_555 1_555
C38 C37 1_555 1_555
H24 C38 1_555 1_555
C39 C38 1_555 1_555
H25 C39 1_555 1_555
C40 C35 1_555 1_555
H26 C40 1_555 1_555
C41 O5 1_555 1_555
C42 C43 1_555 1_555
C43 H27 1_555 1_555
C44 C43 1_555 1_555
H28 C44 1_555 1_555
C45 C44 1_555 1_555
H29 C45 1_555 1_555
C46 C23 1_555 1_555
H30 C46 1_555 1_555
C47 O9 1_555 1_555
C48 C23 1_555 1_555
C49 C48 1_555 1_555
C50 C49 1_555 1_555
H31 C50 1_555 1_555
C51 C50 1_555 1_555
H32 C51 1_555 1_555
C52 C51 1_555 1_555
H33 C52 1_555 1_555
C53 C48 1_555 1_555
H34 C53 1_555 1_555
C54 O11 1_555 1_555
Co1A N8 1_555 1_555
Co2_2 O1 1_555 1_555
Co3_2 O2 1_555 1_555
Co3C N4 1_555 1_555
O1_2 Co2 1_555 1_555
O2_2 Co3 1_555 1_555
N4C Co3 1_555 1_555
N6_2 Co3 1_555 1_555
N8A Co1 1_555 1_555
Co2 O7 1_555 1_555
Co2 O9 1_555 1_555
Co3 O11 1_555 1_555
N2 C7 1_555 1_555
N6 Co3_2 1_555 1_555
C5 C6 1_555 1_555
C8 C9 1_555 1_555
C11 C12 1_555 1_555
C18 C19 1_555 1_555
C21 C22 1_555 1_555
C25 C26 1_555 1_555
C29 C34 1_555 1_555
C32 C33 1_555 1_555
C36 C41 1_555 1_555
C39 C40 1_555 1_555
C42 C47 1_555 1_555
C45 C46 1_555 1_555
C49 C54 1_555 1_555
C52 C53 1_555 1_555

#END
