
#######################################################################
#
#                 Cambridge Crystallographic Data Centre
#                                CCDC 
#
#######################################################################
#
# If this CIF has been generated from an entry in the Cambridge 
# Structural Database, then it will include bibliographic, chemical, 
# crystal, experimental, refinement or atomic coordinate data resulting 
# from the CCDC's data processing and validation procedures.
#
#######################################################################

data_UVANAH
_symmetry_cell_setting           monoclinic
_symmetry_space_group_name_H-M   'P 21/c'
_symmetry_Int_Tables_number      14
_space_group_name_Hall           '-P 2ybc'
loop_
_symmetry_equiv_pos_site_id
_symmetry_equiv_pos_as_xyz
1 x,y,z
2 -x,1/2+y,1/2-z
3 -x,-y,-z
4 x,1/2-y,1/2+z
_cell_length_a                   10.3889(10)
_cell_length_b                   16.1517(16)
_cell_length_c                   11.3055(11)
_cell_angle_alpha                90
_cell_angle_beta                 99.822(2)
_cell_angle_gamma                90
_cell_volume                     1869.24
loop_
_atom_site_label
_atom_site_type_symbol
_atom_site_fract_x
_atom_site_fract_y
_atom_site_fract_z
O5 O 0.4635(5) 0.0417(3) 0.6532(5)
Cd1 Cd 0.72916(2) -0.068250(13) -0.01835(2)
O1 O 0.7643(2) 0.06670(13) 0.0287(2)
O2 O 0.6259(3) 0.01174(15) 0.1322(3)
O3 O 0.6893(3) -0.0382(2) -0.2228(3)
O4 O 0.8782(3) -0.09029(19) -0.1468(3)
N1 N 1.1173(3) 0.38331(18) 0.3645(3)
N2 N 0.9477(3) 0.31149(18) 0.2780(3)
N3 N 0.4015(3) 0.32664(16) 0.4914(2)
N4 N 0.5326(3) 0.25336(16) 0.4011(3)
C1 C 0.7060(3) 0.14629(18) 0.1867(3)
C2 C 0.8145(3) 0.1965(2) 0.1908(3)
H1 H 0.8773 0.1841 0.1439
C3 C 0.8291(3) 0.2652(2) 0.2647(3)
C4 C 0.7357(3) 0.2844(2) 0.3340(3)
H2 H 0.7453 0.3306 0.3837
C5 C 0.6286(3) 0.23384(19) 0.3280(3)
C6 C 0.6123(3) 0.16421(19) 0.2564(3)
H3 H 0.5399 0.1301 0.2549
C7 C 0.6966(3) 0.06979(18) 0.1108(3)
C8 C 1.0007(3) 0.3568(2) 0.3738(3)
H4 H 0.9594 0.3679 0.4388
C9 C 1.1405(4) 0.3547(3) 0.2564(4)
H5 H 1.2165 0.3642 0.2254
C10 C 1.0382(4) 0.3110(3) 0.2016(4)
H6 H 1.0297 0.2853 0.1270
C11 C 0.4859(3) 0.32922(19) 0.4176(3)
H7 H 0.5102 0.3772 0.3815
C12 C 0.3947(4) 0.2456(2) 0.5238(4)
H8 H 0.3424 0.2253 0.5763
C13 C 0.4742(4) 0.1994(2) 0.4692(4)
H9 H 0.4870 0.1425 0.4759
C14 C 0.8054(4) -0.0572(2) -0.2313(3)
C15 C 0.8536(4) -0.0358(3) -0.3436(4)
C16 C 0.7898(8) 0.0008(7) -0.4356(8)
H10 H 0.7018 0.0121 -0.4372
C17 C 0.8484(8) 0.0253(7) -0.5368(7)
H11 H 0.7930 0.0499 -0.6003
C18 C 0.9633(5) 0.0173(3) -0.5490(5)
C19 C 0.9810(5) -0.0398(3) -0.3479(5)
H12 H 1.0369 -0.0582 -0.2799
Cd1B Cd 1.27084(2) 0.068250(13) -0.98165(2)
Cd1A Cd 0.27084(2) 0.431750(13) 0.51835(2)
Cd1A_2 Cd 1.27084(2) 0.431750(13) 0.51835(2)
Cd1C Cd 0.72916(2) -0.431750(13) -1.51835(2)
Cd1C_2 Cd 1.72916(2) -0.431750(13) -1.51835(2)
O1B O 1.2357(2) -0.06670(13) -1.0287(2)
O2B O 1.3741(3) -0.01174(15) -1.1322(3)
O3B O 1.3107(3) 0.0382(2) -0.7772(3)
O4B O 1.1218(3) 0.09029(19) -0.8532(3)
N1B N 0.8827(3) -0.38331(18) -1.3645(3)
N1A N 0.8827(3) -0.11669(18) 0.1355(3)
N1C N 1.1173(3) 0.11669(18) -1.1355(3)
N2B N 1.0523(3) -0.31149(18) -1.2780(3)
N3B N 1.5985(3) -0.32664(16) -1.4914(2)
N3A N 0.5985(3) -0.17336(16) 0.0086(2)
N3C N 1.4015(3) 0.17336(16) -1.0086(2)
N4B N 1.4674(3) -0.25336(16) -1.4011(3)
C1B C 1.2940(3) -0.14629(18) -1.1867(3)
C2B C 1.1855(3) -0.1965(2) -1.1908(3)
H1B H 1.1227 -0.1841 -1.1439
C3B C 1.1709(3) -0.2652(2) -1.2647(3)
C4B C 1.2643(3) -0.2844(2) -1.3340(3)
H2B H 1.2547 -0.3306 -1.3837
C5B C 1.3714(3) -0.23384(19) -1.3280(3)
C6B C 1.3877(3) -0.16421(19) -1.2564(3)
H3B H 1.4601 -0.1301 -1.2549
C7B C 1.3034(3) -0.06979(18) -1.1108(3)
C8B C 0.9993(3) -0.3568(2) -1.3738(3)
H4B H 1.0406 -0.3679 -1.4388
C9B C 0.8595(4) -0.3547(3) -1.2564(4)
H5B H 0.7835 -0.3642 -1.2254
C10B C 0.9618(4) -0.3110(3) -1.2016(4)
H6B H 0.9703 -0.2853 -1.1270
C11B C 1.5141(3) -0.32922(19) -1.4176(3)
H7B H 1.4898 -0.3772 -1.3815
C12B C 1.6053(4) -0.2456(2) -1.5238(4)
H8B H 1.6576 -0.2253 -1.5763
C13B C 1.5258(4) -0.1994(2) -1.4692(4)
H9B H 1.5130 -0.1425 -1.4759
C14B C 1.1946(4) 0.0572(2) -0.7687(3)
C15B C 1.1464(4) 0.0358(3) -0.6564(4)
C16B C 1.2102(8) -0.0008(7) -0.5644(8)
H10B H 1.2982 -0.0121 -0.5628
C17B C 1.1516(8) -0.0253(7) -0.4632(7)
H11B H 1.2070 -0.0499 -0.3997
C18B C 1.0367(5) -0.0173(3) -0.4510(5)
C19B C 1.0190(5) 0.0398(3) -0.6521(5)
H12B H 0.9631 0.0582 -0.7201
loop_
_geom_bond_atom_site_label_1
_geom_bond_atom_site_label_2
_geom_bond_site_symmetry_1
_geom_bond_site_symmetry_2
Cd1 O1 1_555 1_555
O1 C7 1_555 1_555
O2 Cd1 1_555 1_555
O3 Cd1 1_555 1_555
O4 Cd1 1_555 1_555
N1 C8 1_555 1_555
N2 C3 1_555 1_555
N3 C11 1_555 1_555
N4 C5 1_555 1_555
C1 C2 1_555 1_555
C2 H1 1_555 1_555
C3 C2 1_555 1_555
C4 C3 1_555 1_555
H2 C4 1_555 1_555
C5 C4 1_555 1_555
C6 C1 1_555 1_555
H3 C6 1_555 1_555
C7 O2 1_555 1_555
C8 N2 1_555 1_555
H4 C8 1_555 1_555
C9 N1 1_555 1_555
H5 C9 1_555 1_555
C10 N2 1_555 1_555
H6 C10 1_555 1_555
C11 N4 1_555 1_555
H7 C11 1_555 1_555
C12 N3 1_555 1_555
H8 C12 1_555 1_555
C13 N4 1_555 1_555
H9 C13 1_555 1_555
C14 O3 1_555 1_555
C15 C14 1_555 1_555
C16 C15 1_555 1_555
H10 C16 1_555 1_555
C17 C16 1_555 1_555
H11 C17 1_555 1_555
C18 C17 1_555 1_555
C19 C15 1_555 1_555
H12 C19 1_555 1_555
Cd1B O1B 1_555 1_555
Cd1A N3 1_555 1_555
Cd1A_2 N1 1_555 1_555
Cd1C N1B 1_555 1_555
Cd1C_2 N3B 1_555 1_555
O1B C7B 1_555 1_555
O2B Cd1B 1_555 1_555
O3B Cd1B 1_555 1_555
O4B Cd1B 1_555 1_555
N1B C8B 1_555 1_555
N1A Cd1 1_555 1_555
N1C Cd1B 1_555 1_555
N2B C3B 1_555 1_555
N3B C11B 1_555 1_555
N3A Cd1 1_555 1_555
N3C Cd1B 1_555 1_555
N4B C5B 1_555 1_555
C1B C2B 1_555 1_555
C2B H1B 1_555 1_555
C3B C2B 1_555 1_555
C4B C3B 1_555 1_555
H2B C4B 1_555 1_555
C5B C4B 1_555 1_555
C6B C1B 1_555 1_555
H3B C6B 1_555 1_555
C7B O2B 1_555 1_555
C8B N2B 1_555 1_555
H4B C8B 1_555 1_555
C9B N1B 1_555 1_555
H5B C9B 1_555 1_555
C10B N2B 1_555 1_555
H6B C10B 1_555 1_555
C11B N4B 1_555 1_555
H7B C11B 1_555 1_555
C12B N3B 1_555 1_555
H8B C12B 1_555 1_555
C13B N4B 1_555 1_555
H9B C13B 1_555 1_555
C14B O3B 1_555 1_555
C15B C14B 1_555 1_555
C16B C15B 1_555 1_555
H10B C16B 1_555 1_555
C17B C16B 1_555 1_555
H11B C17B 1_555 1_555
C18B C18 1_555 1_555
C19B C18 1_555 1_555
H12B C19B 1_555 1_555
O4 C14 1_555 1_555
C1 C7 1_555 1_555
C5 C6 1_555 1_555
C9 C10 1_555 1_555
C12 C13 1_555 1_555
C19 C18B 1_555 1_555
O4B C14B 1_555 1_555
C1B C7B 1_555 1_555
C5B C6B 1_555 1_555
C9B C10B 1_555 1_555
C12B C13B 1_555 1_555
C15B C19B 1_555 1_555
C17B C18B 1_555 1_555

#END
