
#######################################################################
#
#                 Cambridge Crystallographic Data Centre
#                                CCDC 
#
#######################################################################
#
# If this CIF has been generated from an entry in the Cambridge 
# Structural Database, then it will include bibliographic, chemical, 
# crystal, experimental, refinement or atomic coordinate data resulting 
# from the CCDC's data processing and validation procedures.
#
#######################################################################

data_UVANUB
_symmetry_cell_setting           orthorhombic
_symmetry_space_group_name_H-M   'C m c 21'
_symmetry_Int_Tables_number      36
_space_group_name_Hall           'C 2n -2'
loop_
_symmetry_equiv_pos_site_id
_symmetry_equiv_pos_as_xyz
1 x,y,z
2 -x,-y,1/2+z
3 -x,y,z
4 x,-y,1/2+z
5 1/2+x,1/2+y,z
6 1/2-x,1/2-y,1/2+z
7 1/2-x,1/2+y,z
8 1/2+x,1/2-y,1/2+z
_cell_length_a                   21.626(2)
_cell_length_b                   14.6622(17)
_cell_length_c                   17.777(3)
_cell_angle_alpha                90
_cell_angle_beta                 90
_cell_angle_gamma                90
_cell_volume                     5636.82
loop_
_atom_site_label
_atom_site_type_symbol
_atom_site_fract_x
_atom_site_fract_y
_atom_site_fract_z
C30 C 0.3099(9) 0.6707(13) 1.0041(10)
H23 H 0.2792 0.6391 1.0299
C31 C 0.3027(7) 0.7344(13) 0.9476(11)
C32 C 0.3405(7) 0.7920(11) 0.9061(9)
H24 H 0.3218 0.8339 0.8741
C33 C 0.4023(10) 0.7907(16) 0.9098(13)
H25 H 0.4313 0.8255 0.8839
C34 C 0.4113(9) 0.7197(14) 0.9652(12)
H26 H 0.4530 0.7059 0.9713
C35 C 0.2500(12) 0.783(2) 0.924(2)
H27 H 0.2550 0.8007 0.8724
H28 H 0.2448 0.8359 0.9547
H29 H 0.2142 0.7443 0.9285
N3 N 0.3729(9) 0.6647(12) 1.0133(10)
C1 C 0.0830(5) 0.1534(7) 0.3732(8)
C2 C 0.1281(5) 0.1001(6) 0.3282(6)
C3 C 0.1583(5) 0.0260(7) 0.3615(7)
H1 H 0.1523 0.0135 0.4122
C4 C 0.1968(6) -0.0282(7) 0.3197(7)
H2 H 0.2088 -0.0842 0.3393
C5 C 0.2176(4) -0.0044(6) 0.2527(5)
C6 C 0.1839(4) 0.0640(8) 0.2149(6)
H3 H 0.1890 0.0710 0.1633
C7 C 0.1432(5) 0.1213(7) 0.2532(5)
H4 H 0.1264 0.1723 0.2297
C8 C 0.2612(4) -0.0628(5) 0.2062(4)
C9 C 0.3044(4) -0.1189(5) 0.2488(5)
C10 C 0.2229(5) -0.1373(8) 0.1668(7)
C11 C 0.2978(4) -0.0064(6) 0.1481(5)
C12 C 0.3191(5) 0.0749(5) 0.1712(6)
H5 H 0.3070 0.0977 0.2177
C13 C 0.3590(5) 0.1254(7) 0.1262(6)
H6 H 0.3773 0.1773 0.1464
C14 C 0.3723(5) 0.1019(7) 0.0544(6)
C15 C 0.3499(6) 0.0220(9) 0.0276(7)
H7 H 0.3633 0.0001 -0.0187
C16 C 0.3063(7) -0.0282(11) 0.0695(7)
H8 H 0.2834 -0.0745 0.0470
C17 C 0.4187(5) 0.1610(7) 0.0098(6)
C18 C 0.0000 -0.0015(11) 0.5741(10)
H9 H 0.0000 -0.0200 0.5241
C19 C 0.0000 -0.0667(12) 0.6282(10)
H10 H 0.0000 -0.1286 0.6165
C20 C 0.0000 -0.0367(11) 0.7003(11)
H11 H 0.0000 -0.0790 0.7393
C21 C 0.0000 0.0507(9) 0.7163(7)
C22 C 0.0000 0.0687(17) 0.7944(10)
C23 C 0.0000 0.1183(13) 0.6607(9)
H15 H 0.0000 0.1801 0.6723
C24 C 0.0000 0.3873(10) 0.2226(6)
H16 H 0.0000 0.3248 0.2135
C25 C 0.0000 0.4372(12) 0.1589(9)
C26 C 0.0000 0.3981(13) 0.0836(9)
C27 C 0.0000 0.5291(12) 0.1755(9)
H20 H 0.0000 0.5708 0.1361
C28 C 0.0000 0.5618(14) 0.2490(9)
H21 H 0.0000 0.6242 0.2586
C29 C 0.0000 0.4997(10) 0.3074(10)
H22 H 0.0000 0.5213 0.3566
F1 F 0.1870(4) -0.1002(5) 0.1136(5)
F4 F 0.2952(5) -0.1757(6) 0.3088(6)
F5 F 0.3470(6) -0.1569(8) 0.2003(7)
F6 F 0.3329(5) -0.0671(7) 0.2928(6)
N1 N 0.0000 0.0872(8) 0.5885(6)
N2 N 0.0000 0.4076(9) 0.2955(6)
O1 O 0.0632(4) 0.2284(6) 0.3397(4)
O2 O 0.0658(3) 0.1271(6) 0.4344(4)
O3 O 0.4342(4) 0.1233(5) -0.0523(4)
O4 O 0.4349(4) 0.2281(5) 0.0366(4)
Zn1 Zn 0.0000 0.31926(10) 0.37869(5)
Zn2 Zn 0.0000 0.18085(10) 0.50132(5)
O1B O -0.0632(4) 0.2284(6) 0.3397(4)
O2B O -0.0658(3) 0.1271(6) 0.4344(4)
O3E O 0.0658(4) 0.3767(5) 0.4477(4)
O3G O -0.0658(4) 0.3767(5) 0.4477(4)
O4E O 0.0651(4) 0.2719(5) 0.5366(4)
O4G O -0.0651(4) 0.2719(5) 0.5366(4)
Zn1E Zn 0.5000 0.18074(10) -0.12131(5)
Zn2E Zn 0.5000 0.31915(10) 0.00132(5)
H12? H 0.0020 0.1333 0.8026
H13? H 0.0352 0.0399 0.8172
H14? H -0.0372 0.0450 0.8164
H17? H 0.0418 0.3905 0.0666
H18? H -0.0216 0.4382 0.0499
H19? H -0.0203 0.3399 0.0845
F2? F 0.2616(5) -0.2091(6) 0.1479(5)
F3? F 0.1733(5) -0.1705(7) 0.2047(7)
F7? F 0.1602(5) -0.0482(8) 0.0715(7)
F8? F 0.2197(5) -0.1874(7) 0.0950(6)
F9? F 0.1392(4) -0.1436(7) 0.1567(5)
F10? F 0.2578(5) -0.1993(7) 0.2592(6)
F11? F 0.3090(5) -0.1841(6) 0.1520(6)
loop_
_geom_bond_atom_site_label_1
_geom_bond_atom_site_label_2
_geom_bond_site_symmetry_1
_geom_bond_site_symmetry_2
C1 C2 1_555 1_555
C2 C3 1_555 1_555
C3 H1 1_555 1_555
C4 C3 1_555 1_555
H2 C4 1_555 1_555
C5 C4 1_555 1_555
C6 C5 1_555 1_555
H3 C6 1_555 1_555
C7 C2 1_555 1_555
H4 C7 1_555 1_555
C8 C5 1_555 1_555
C9 C8 1_555 1_555
C10 C8 1_555 1_555
C11 C8 1_555 1_555
C12 C11 1_555 1_555
H5 C12 1_555 1_555
C13 C12 1_555 1_555
H6 C13 1_555 1_555
C14 C13 1_555 1_555
C15 C14 1_555 1_555
H7 C15 1_555 1_555
C16 C11 1_555 1_555
H8 C16 1_555 1_555
C17 C14 1_555 1_555
C18 H9 1_555 1_555
C19 C18 1_555 1_555
H10 C19 1_555 1_555
C20 C19 1_555 1_555
H11 C20 1_555 1_555
C21 C20 1_555 1_555
C22 C21 1_555 1_555
C23 C21 1_555 1_555
H15 C23 1_555 1_555
C24 H16 1_555 1_555
C25 C24 1_555 1_555
C26 C25 1_555 1_555
C27 C25 1_555 1_555
H20 C27 1_555 1_555
C28 C27 1_555 1_555
H21 C28 1_555 1_555
C29 C28 1_555 1_555
H22 C29 1_555 1_555
C30 H23 1_555 1_555
C31 C30 1_555 1_555
C32 C31 1_555 1_555
H24 C32 1_555 1_555
C33 C32 1_555 1_555
H25 C33 1_555 1_555
C34 C33 1_555 1_555
H26 C34 1_555 1_555
C35 C31 1_555 1_555
H27 C35 1_555 1_555
H28 C35 1_555 1_555
H29 C35 1_555 1_555
F1 C10 1_555 1_555
F4 C9 1_555 1_555
F5 C9 1_555 1_555
F6 C9 1_555 1_555
N1 C18 1_555 1_555
N2 C24 1_555 1_555
N3 C30 1_555 1_555
O1 C1 1_555 1_555
O2 C1 1_555 1_555
O3 C17 1_555 1_555
O4 C17 1_555 1_555
Zn1 N2 1_555 1_555
Zn2 N1 1_555 1_555
O1B Zn1 1_555 1_555
O2B Zn2 1_555 1_555
O3E Zn1 1_555 1_555
O3G Zn1 1_555 1_555
O4E Zn2 1_555 1_555
O4G Zn2 1_555 1_555
Zn1E O3 1_555 1_555
Zn2E O4 1_555 1_555
C6 C7 1_555 1_555
C15 C16 1_555 1_555
C23 N1 1_555 1_555
C29 N2 1_555 1_555
C34 N3 1_555 1_555
O1 Zn1 1_555 1_555
O2 Zn2 1_555 1_555

#END
