
#######################################################################
#
#                 Cambridge Crystallographic Data Centre
#                                CCDC 
#
#######################################################################
#
# If this CIF has been generated from an entry in the Cambridge 
# Structural Database, then it will include bibliographic, chemical, 
# crystal, experimental, refinement or atomic coordinate data resulting 
# from the CCDC's data processing and validation procedures.
#
#######################################################################

data_UVAPIR
_symmetry_cell_setting           monoclinic
_symmetry_space_group_name_H-M   'P 21/c'
_symmetry_Int_Tables_number      14
_space_group_name_Hall           '-P 2ybc'
loop_
_symmetry_equiv_pos_site_id
_symmetry_equiv_pos_as_xyz
1 x,y,z
2 -x,1/2+y,1/2-z
3 -x,-y,-z
4 x,1/2-y,1/2+z
_cell_length_a                   11.526(2)
_cell_length_b                   14.485(3)
_cell_length_c                   13.108(3)
_cell_angle_alpha                90
_cell_angle_beta                 95.727(4)
_cell_angle_gamma                90
_cell_volume                     2177.51
loop_
_atom_site_label
_atom_site_type_symbol
_atom_site_fract_x
_atom_site_fract_y
_atom_site_fract_z
C1 C 0.7409(5) 0.5935(4) 0.2020(5)
H1 H 0.8013 0.5657 0.2462
C2 C 0.6013(5) 0.6818(5) 0.1423(5)
H2 H 0.5439 0.7291 0.1385
C3 C 0.6216(5) 0.6253(4) 0.0638(5)
H3 H 0.5825 0.6250 -0.0036
C4 C 0.7649(5) 0.4946(4) 0.0521(5)
C5 C 0.7033(5) 0.4475(4) -0.0278(5)
H4 H 0.6258 0.4644 -0.0521
C6 C 0.7590(5) 0.3753(5) -0.0704(5)
H5 H 0.7205 0.3416 -0.1260
C7 C 0.8719(5) 0.3519(4) -0.0318(5)
H6 H 0.9116 0.3013 -0.0586
C8 C 0.9238(5) 0.4054(4) 0.0475(4)
C9 C 1.1116(5) 0.3191(4) 0.0634(5)
H7 H 1.0935 0.2782 0.0074
C10 C 1.0954(5) 0.4303(4) 0.1769(5)
H8 H 1.0665 0.4798 0.2146
C11 C 1.1997(5) 0.3877(4) 0.1947(5)
H9 H 1.2583 0.4030 0.2483
C12 C 0.3272(5) 0.7710(4) 0.3129(4)
C13 C 0.2675(5) 0.6981(4) 0.3513(4)
H10 H 0.3088 0.6546 0.3954
C14 C 0.1473(4) 0.6871(4) 0.3264(4)
C15 C 0.0895(5) 0.7509(4) 0.2592(4)
H11 H 0.0076 0.7455 0.2427
C16 C 0.1488(4) 0.8214(4) 0.2163(4)
C17 C 0.2672(5) 0.8326(4) 0.2450(4)
H12 H 0.3077 0.8827 0.2180
C18 C 0.4561(5) 0.7841(4) 0.3382(5)
C19 C 0.0827(5) 0.6129(4) 0.3755(4)
C20 C 0.0877(5) 0.8873(4) 0.1387(4)
N1 N 0.6756(4) 0.6613(4) 0.2287(4)
N2 N 0.7119(4) 0.5676(3) 0.1029(4)
N3 N 0.8741(4) 0.4759(3) 0.0898(4)
N4 N 1.0395(4) 0.3863(3) 0.0918(4)
N5 N 1.2084(4) 0.3181(3) 0.1227(4)
O1 O 0.7440(3) 0.6288(3) 0.4756(3)
O2 O 0.5099(3) 0.7172(3) 0.3866(4)
O3 O 0.5062(4) 0.8533(3) 0.3126(4)
O4 O 0.1389(4) 0.5423(3) 0.4071(3)
O5 O -0.0244(3) 0.6277(3) 0.3836(3)
O6 O -0.0101(3) 0.8622(3) 0.0959(3)
O7 O 0.1415(4) 0.9593(3) 0.1203(3)
Zn1 Zn 0.88767(5) 0.55970(4) 0.49065(5)
Zn2 Zn 0.67834(5) 0.71212(5) 0.37348(5)
H13 H 0.7203 0.6071 0.5321
C1B C 0.2591(5) 0.4065(4) 0.7980(5)
H1B H 0.1987 0.4343 0.7538
C2B C 0.3987(5) 0.3182(5) 0.8577(5)
H2B H 0.4561 0.2709 0.8615
C3B C 0.3784(5) 0.3747(4) 0.9362(5)
H3B H 0.4175 0.3750 1.0036
C4B C 0.2351(5) 0.5054(4) 0.9479(5)
C5B C 0.2967(5) 0.5525(4) 1.0278(5)
H4B H 0.3742 0.5356 1.0521
C6B C 0.2410(5) 0.6247(5) 1.0704(5)
H5B H 0.2795 0.6584 1.1260
C7B C 0.1281(5) 0.6481(4) 1.0318(5)
H6B H 0.0884 0.6987 1.0586
C8B C 0.0762(5) 0.5946(4) 0.9525(4)
C9B C -0.1116(5) 0.6809(4) 0.9366(5)
H7B H -0.0935 0.7218 0.9926
C10B C -0.0954(5) 0.5697(4) 0.8231(5)
H8B H -0.0665 0.5202 0.7854
C11B C -0.1997(5) 0.6123(4) 0.8053(5)
H9B H -0.2583 0.5970 0.7517
C12B C 0.6728(5) 0.2290(4) 0.6871(4)
C13B C 0.7325(5) 0.3019(4) 0.6487(4)
H10B H 0.6912 0.3454 0.6046
C14B C 0.8527(4) 0.3129(4) 0.6736(4)
C15B C 0.9105(5) 0.2491(4) 0.7408(4)
H11B H 0.9924 0.2545 0.7573
C16B C 0.8512(4) 0.1786(4) 0.7837(4)
C17B C 0.7328(5) 0.1674(4) 0.7550(4)
H12B H 0.6923 0.1173 0.7820
C18B C 0.5439(5) 0.2159(4) 0.6618(5)
C19B C 0.9173(5) 0.3871(4) 0.6245(4)
C20B C 0.9123(5) 0.1127(4) 0.8613(4)
N1B N 0.3244(4) 0.3387(4) 0.7713(4)
N2B N 0.2881(4) 0.4324(3) 0.8971(4)
N3B N 0.1259(4) 0.5241(3) 0.9102(4)
N4B N -0.0395(4) 0.6137(3) 0.9082(4)
N5B N -0.2084(4) 0.6819(3) 0.8773(4)
N5A N 0.7916(4) 0.8181(3) 0.3773(4)
N5C N 0.2084(4) 0.1819(3) 0.6227(4)
O1B O 0.2560(3) 0.3712(3) 0.5244(3)
O2B O 0.4901(3) 0.2828(3) 0.6134(4)
O3B O 0.4938(4) 0.1467(3) 0.6874(4)
O4B O 0.8611(4) 0.4577(3) 0.5929(3)
O5B O 1.0244(3) 0.3723(3) 0.6164(3)
O5_2 O 0.9756(3) 0.6277(3) 0.3836(3)
O5B_2 O 0.0244(3) 0.3723(3) 0.6164(3)
O6B O 1.0101(3) 0.1378(3) 0.9041(3)
O6A O 0.0101(3) 0.3622(3) 0.4041(3)
O6C O 0.9899(3) 0.6378(3) 0.5959(3)
O7B O 0.8585(4) 0.0407(3) 0.8797(3)
O7A O 0.8585(4) 0.4593(3) 0.3797(3)
O7C O 0.1415(4) 0.5407(3) 0.6203(3)
Zn1B Zn 0.11233(5) 0.44030(4) 0.50935(5)
Zn1_2 Zn -0.11233(5) 0.55970(4) 0.49065(5)
Zn1A Zn 0.11233(5) 1.05970(4) 0.00935(5)
Zn1A_2 Zn 1.11233(5) 0.05970(4) 1.00935(5)
Zn1B_2 Zn 1.11233(5) 0.44030(4) 0.50935(5)
Zn1C Zn -0.11233(5) 0.94030(4) -0.00935(5)
Zn1C_2 Zn 0.88767(5) -0.05970(4) 0.99065(5)
Zn2B Zn 0.32166(5) 0.28788(5) 0.62652(5)
Zn2A Zn 1.32166(5) 0.21212(5) 0.12652(5)
Zn2C Zn -0.32166(5) 0.78788(5) 0.87348(5)
H13B H 0.2797 0.3929 0.4679
O8 O 0.5378(12) 0.5641(8) 0.5386(15)
O9? O 0.5761(14) 0.5789(14) 0.6231(11)
O10? O 0.5378(16) 0.4893(11) 0.7034(12)
loop_
_geom_bond_atom_site_label_1
_geom_bond_atom_site_label_2
_geom_bond_site_symmetry_1
_geom_bond_site_symmetry_2
C1 H1 1_555 1_555
C2 H2 1_555 1_555
C3 C2 1_555 1_555
H3 C3 1_555 1_555
C4 C5 1_555 1_555
C5 H4 1_555 1_555
C6 C5 1_555 1_555
H5 C6 1_555 1_555
C7 C6 1_555 1_555
H6 C7 1_555 1_555
C8 C7 1_555 1_555
C9 H7 1_555 1_555
C10 H8 1_555 1_555
C11 C10 1_555 1_555
H9 C11 1_555 1_555
C12 C13 1_555 1_555
C13 H10 1_555 1_555
C14 C13 1_555 1_555
C15 C14 1_555 1_555
H11 C15 1_555 1_555
C16 C15 1_555 1_555
C17 C12 1_555 1_555
H12 C17 1_555 1_555
C18 C12 1_555 1_555
C19 C14 1_555 1_555
C20 C16 1_555 1_555
N1 C1 1_555 1_555
N2 C1 1_555 1_555
N3 C4 1_555 1_555
N4 C8 1_555 1_555
N5 C9 1_555 1_555
O1 Zn1 1_555 1_555
O2 C18 1_555 1_555
O3 C18 1_555 1_555
O4 C19 1_555 1_555
O5 C19 1_555 1_555
O6 C20 1_555 1_555
O7 C20 1_555 1_555
Zn1 O4B 1_555 1_555
Zn2 N1 1_555 1_555
H13 O1 1_555 1_555
C1B H1B 1_555 1_555
C2B H2B 1_555 1_555
C3B C2B 1_555 1_555
H3B C3B 1_555 1_555
C4B C5B 1_555 1_555
C5B H4B 1_555 1_555
C6B C5B 1_555 1_555
H5B C6B 1_555 1_555
C7B C6B 1_555 1_555
H6B C7B 1_555 1_555
C8B C7B 1_555 1_555
C9B H7B 1_555 1_555
C10B H8B 1_555 1_555
C11B C10B 1_555 1_555
H9B C11B 1_555 1_555
C12B C13B 1_555 1_555
C13B H10B 1_555 1_555
C14B C13B 1_555 1_555
C15B C14B 1_555 1_555
H11B C15B 1_555 1_555
C16B C15B 1_555 1_555
C17B C12B 1_555 1_555
H12B C17B 1_555 1_555
C18B C12B 1_555 1_555
C19B C14B 1_555 1_555
C20B C16B 1_555 1_555
N1B C1B 1_555 1_555
N2B C1B 1_555 1_555
N3B C4B 1_555 1_555
N4B C8B 1_555 1_555
N5B C9B 1_555 1_555
N5A Zn2 1_555 1_555
N5C Zn2B 1_555 1_555
O1B Zn1B 1_555 1_555
O2B C18B 1_555 1_555
O3B C18B 1_555 1_555
O4B C19B 1_555 1_555
O5B C19B 1_555 1_555
O5_2 Zn1 1_555 1_555
O5B_2 Zn1B 1_555 1_555
O6B C20B 1_555 1_555
O6A Zn1B 1_555 1_555
O6C Zn1 1_555 1_555
O7B C20B 1_555 1_555
O7A Zn1 1_555 1_555
O7C Zn1B 1_555 1_555
Zn1B O4 1_555 1_555
Zn1_2 O5 1_555 1_555
Zn1A O7 1_555 1_555
Zn1A_2 O6B 1_555 1_555
Zn1B_2 O5B 1_555 1_555
Zn1C O6 1_555 1_555
Zn1C_2 O7B 1_555 1_555
Zn2B N1B 1_555 1_555
Zn2A N5 1_555 1_555
Zn2C N5B 1_555 1_555
H13B O1B 1_555 1_555
C2 N1 1_555 1_555
C3 N2 1_555 1_555
C4 N2 1_555 1_555
C8 N3 1_555 1_555
C9 N4 1_555 1_555
C10 N4 1_555 1_555
C11 N5 1_555 1_555
C16 C17 1_555 1_555
O1 Zn2 1_555 1_555
O2 Zn2 1_555 1_555
C2B N1B 1_555 1_555
C3B N2B 1_555 1_555
C4B N2B 1_555 1_555
C8B N3B 1_555 1_555
C9B N4B 1_555 1_555
C10B N4B 1_555 1_555
C11B N5B 1_555 1_555
C16B C17B 1_555 1_555
O1B Zn2B 1_555 1_555
O2B Zn2B 1_555 1_555

#END
