
#######################################################################
#
#                 Cambridge Crystallographic Data Centre
#                                CCDC 
#
#######################################################################
#
# If this CIF has been generated from an entry in the Cambridge 
# Structural Database, then it will include bibliographic, chemical, 
# crystal, experimental, refinement or atomic coordinate data resulting 
# from the CCDC's data processing and validation procedures.
#
#######################################################################

data_UVARUF
_symmetry_cell_setting           monoclinic
_symmetry_space_group_name_H-M   'C c'
_symmetry_Int_Tables_number      9
_space_group_name_Hall           'C -2yc'
loop_
_symmetry_equiv_pos_site_id
_symmetry_equiv_pos_as_xyz
1 x,y,z
2 x,-y,1/2+z
3 1/2+x,1/2+y,z
4 1/2+x,1/2-y,1/2+z
_cell_length_a                   12.934(5)
_cell_length_b                   24.970(3)
_cell_length_c                   8.715(4)
_cell_angle_alpha                90
_cell_angle_beta                 103.834(5)
_cell_angle_gamma                90
_cell_volume                     2732.97
loop_
_atom_site_label
_atom_site_type_symbol
_atom_site_fract_x
_atom_site_fract_y
_atom_site_fract_z
Zn1 Zn 0.15238(15) 0.41123(5) 0.63243(17)
O1 O 0.2231(9) 0.3801(4) 0.8369(11)
O2 O 0.2482(9) 0.3060(4) 0.7114(10)
O3 O 0.0614(8) 0.4714(3) 0.6835(10)
O4 O -0.0093(8) 0.3915(3) 0.6693(10)
N1 N 0.6090(10) 0.1226(5) 1.9186(14)
N2 N -0.7201(9) 0.5511(5) 1.0846(12)
C1 C 0.2521(16) 0.3316(8) 0.835(2)
C2 C 0.3005(14) 0.3074(6) 0.9832(17)
C3 C 0.3348(12) 0.2546(5) 0.9976(14)
H1 H 0.3305 0.2342 0.9070
C4 C 0.3751(13) 0.2318(6) 1.1436(15)
H2 H 0.3965 0.1961 1.1499
C5 C 0.3842(17) 0.2609(6) 1.2802(19)
C6 C 0.3496(17) 0.3124(7) 1.2651(18)
H3 H 0.3528 0.3324 1.3562
C7 C 0.3114(13) 0.3358(6) 1.1250(17)
H4 H 0.2915 0.3716 1.1215
C8 C 0.4286(15) 0.2384(7) 1.4373(18)
H5 H 0.4202 0.2579 1.5243
C9 C 0.4805(14) 0.1919(6) 1.4641(17)
H6 H 0.4884 0.1720 1.3772
C10 C 0.5262(14) 0.1699(6) 1.6232(19)
C11 C 0.5224(17) 0.1958(6) 1.7574(17)
H7 H 0.4909 0.2295 1.7517
C12 C 0.5658(17) 0.1724(7) 1.907(2)
H8 H 0.5647 0.1914 1.9985
C13 C 0.6045(11) 0.0981(5) 1.7843(13)
H9 H 0.6289 0.0629 1.7913
C14 C 0.5685(12) 0.1179(5) 1.6364(15)
H10 H 0.5716 0.0979 1.5476
C15 C -0.0185(13) 0.4394(6) 0.6983(18)
C16 C -0.1055(12) 0.4623(6) 0.7563(15)
C17 C -0.1819(12) 0.4255(6) 0.7802(16)
H11 H -0.1753 0.3893 0.7602
C18 C -0.2673(13) 0.4443(6) 0.8343(15)
H12 H -0.3185 0.4202 0.8503
C19 C -0.2785(14) 0.4977(6) 0.8648(19)
C20 C -0.2038(15) 0.5331(6) 0.8360(18)
H13 H -0.2102 0.5694 0.8550
C21 C -0.1178(14) 0.5144(6) 0.7778(19)
H14 H -0.0693 0.5387 0.7543
C22 C -0.3665(13) 0.5171(5) 0.9220(17)
H15 H -0.3649 0.5531 0.9490
C23 C -0.4515(14) 0.4888(7) 0.9412(18)
H16 H -0.4531 0.4525 0.9174
C24 C -0.5396(12) 0.5103(5) 0.9953(14)
C25 C -0.6279(12) 0.4790(6) 0.9836(17)
H17 H -0.6300 0.4445 0.9429
C26 C -0.7162(13) 0.4997(5) 1.0340(14)
H18 H -0.7739 0.4772 1.0325
C27 C -0.6291(14) 0.5803(6) 1.0992(17)
H19 H -0.6263 0.6146 1.1417
C28 C -0.5442(14) 0.5618(6) 1.0551(15)
H20 H -0.4854 0.5841 1.0645
Zn1A Zn -0.84762(15) 0.58877(5) 1.13243(17)
Zn1C Zn 0.65238(15) 0.08877(5) 2.13243(17)
N1C N 0.1090(10) 0.3774(5) 0.4186(14)
N2A N 0.2799(9) 0.4489(5) 0.5846(12)
N3 N 0.5410(16) 0.3383(6) 0.844(2)
C29 C 0.5794(19) 0.3287(7) 0.966(4)
C30 C 0.638(3) 0.3127(7) 1.144(4)
H21 H 0.6645 0.2767 1.1455
H22 H 0.5884 0.3150 1.2096
H23 H 0.6963 0.3367 1.1824
loop_
_geom_bond_atom_site_label_1
_geom_bond_atom_site_label_2
_geom_bond_site_symmetry_1
_geom_bond_site_symmetry_2
Zn1 O1 1_555 1_555
O1 C1 1_555 1_555
O2 C1 1_555 1_555
O3 Zn1 1_555 1_555
O4 Zn1 1_555 1_555
N1 C12 1_555 1_555
N2 C26 1_555 1_555
N3 C29 1_555 1_555
C1 C2 1_555 1_555
C2 C3 1_555 1_555
C3 H1 1_555 1_555
C4 C3 1_555 1_555
H2 C4 1_555 1_555
C5 C4 1_555 1_555
C6 C5 1_555 1_555
H3 C6 1_555 1_555
C7 C2 1_555 1_555
H4 C7 1_555 1_555
C8 C5 1_555 1_555
H5 C8 1_555 1_555
C9 C8 1_555 1_555
H6 C9 1_555 1_555
C10 C9 1_555 1_555
C11 C10 1_555 1_555
H7 C11 1_555 1_555
C12 C11 1_555 1_555
H8 C12 1_555 1_555
C13 N1 1_555 1_555
H9 C13 1_555 1_555
C14 C10 1_555 1_555
H10 C14 1_555 1_555
C15 O3 1_555 1_555
C16 C15 1_555 1_555
C17 C16 1_555 1_555
H11 C17 1_555 1_555
C18 C17 1_555 1_555
H12 C18 1_555 1_555
C19 C18 1_555 1_555
C20 C19 1_555 1_555
H13 C20 1_555 1_555
C21 C16 1_555 1_555
H14 C21 1_555 1_555
C22 C19 1_555 1_555
H15 C22 1_555 1_555
C23 C22 1_555 1_555
H16 C23 1_555 1_555
C24 C23 1_555 1_555
C25 C24 1_555 1_555
H17 C25 1_555 1_555
C26 C25 1_555 1_555
H18 C26 1_555 1_555
C27 N2 1_555 1_555
H19 C27 1_555 1_555
C28 C24 1_555 1_555
H20 C28 1_555 1_555
C29 C30 1_555 1_555
C30 H21 1_555 1_555
H22 C30 1_555 1_555
H23 C30 1_555 1_555
Zn1A N2 1_555 1_555
Zn1C N1 1_555 1_555
N1C Zn1 1_555 1_555
N2A Zn1 1_555 1_555
O4 C15 1_555 1_555
C6 C7 1_555 1_555
C13 C14 1_555 1_555
C20 C21 1_555 1_555
C27 C28 1_555 1_555

#END
