
#######################################################################
#
#                 Cambridge Crystallographic Data Centre
#                                CCDC 
#
#######################################################################
#
# If this CIF has been generated from an entry in the Cambridge 
# Structural Database, then it will include bibliographic, chemical, 
# crystal, experimental, refinement or atomic coordinate data resulting 
# from the CCDC's data processing and validation procedures.
#
#######################################################################

data_UVASAM
_symmetry_cell_setting           monoclinic
_symmetry_space_group_name_H-M   'C c'
_symmetry_Int_Tables_number      9
_space_group_name_Hall           'C -2yc'
loop_
_symmetry_equiv_pos_site_id
_symmetry_equiv_pos_as_xyz
1 x,y,z
2 x,-y,1/2+z
3 1/2+x,1/2+y,z
4 1/2+x,1/2-y,1/2+z
_cell_length_a                   13.507(4)
_cell_length_b                   24.837(10)
_cell_length_c                   8.406(3)
_cell_angle_alpha                90
_cell_angle_beta                 98.841(5)
_cell_angle_gamma                90
_cell_volume                     2786.48
loop_
_atom_site_label
_atom_site_type_symbol
_atom_site_fract_x
_atom_site_fract_y
_atom_site_fract_z
Zn1 Zn 0.51167(8) 0.59137(3) 0.16638(10)
O1 O 0.9519(5) 0.8812(3) 1.4535(7)
O2 O 0.9182(6) 0.8084(3) 1.5894(7)
O3 O -0.3936(5) 0.4709(2) 0.6208(8)
O4 O -0.3293(5) 0.3893(2) 0.6290(7)
N1 N 0.5513(6) 0.6282(3) 0.3858(9)
N2 N 0.3849(6) 0.5518(3) 0.2227(8)
C1 C 0.9151(7) 0.8330(3) 1.4595(11)
C2 C 0.8678(7) 0.8093(3) 1.3057(10)
C3 C 0.8656(7) 0.8364(4) 1.1602(11)
H1 H 0.8946 0.8703 1.1601
C4 C 0.8215(8) 0.8143(4) 1.0168(12)
H2 H 0.8225 0.8329 0.9210
C5 C 0.7748(7) 0.7635(4) 1.0145(11)
C6 C 0.7763(7) 0.7372(4) 1.1584(10)
H3 H 0.7458 0.7037 1.1588
C7 C 0.8222(7) 0.7592(3) 1.3045(10)
H4 H 0.8222 0.7403 1.4001
C8 C 0.7269(7) 0.7423(4) 0.8595(11)
H5 H 0.7298 0.7636 0.7692
C9 C 0.6796(8) 0.6954(4) 0.8357(11)
H6 H 0.6743 0.6746 0.9260
C10 C 0.6347(7) 0.6734(4) 0.6766(11)
C11 C 0.6190(8) 0.7048(3) 0.5392(12)
H7 H 0.6358 0.7411 0.5426
C12 C 0.5775(8) 0.6804(4) 0.3961(11)
H8 H 0.5673 0.7011 0.3029
C13 C 0.5683(7) 0.5990(3) 0.5202(10)
H9 H 0.5528 0.5625 0.5133
C14 C 0.6073(7) 0.6195(3) 0.6682(9)
H10 H 0.6152 0.5980 0.7598
C15 C -0.3209(7) 0.4387(3) 0.6046(10)
C16 C -0.2290(7) 0.4600(3) 0.5530(10)
C17 C -0.2168(8) 0.5135(4) 0.5206(13)
H11 H -0.2675 0.5376 0.5342
C18 C -0.1305(8) 0.5328(3) 0.4678(13)
H12 H -0.1235 0.5693 0.4481
C19 C -0.0552(8) 0.4970(4) 0.4450(11)
C20 C -0.0655(7) 0.4426(3) 0.4796(12)
H13 H -0.0144 0.4186 0.4673
C21 C -0.1506(8) 0.4245(3) 0.5316(11)
H14 H -0.1570 0.3881 0.5533
C22 C 0.0375(8) 0.5173(4) 0.3885(12)
H15 H 0.0384 0.5538 0.3636
C23 C 0.1186(7) 0.4896(3) 0.3697(11)
H16 H 0.1188 0.4530 0.3937
C24 C 0.2085(7) 0.5118(4) 0.3139(10)
C25 C 0.2934(7) 0.4800(3) 0.3245(10)
H17 H 0.2918 0.4446 0.3595
C26 C 0.3826(7) 0.5016(3) 0.2817(9)
H18 H 0.4405 0.4808 0.2947
C27 C 0.3012(7) 0.5810(4) 0.2053(10)
H19 H 0.3020 0.6151 0.1598
C28 C 0.2117(7) 0.5628(3) 0.2523(11)
H20 H 0.1555 0.5849 0.2419
Zn1A Zn -0.48833(8) 0.40863(3) 0.66638(10)
Zn1C Zn 1.01167(8) 0.90863(3) 1.66638(10)
O1C O 0.4519(5) 0.6188(3) -0.0465(7)
O3A O 0.6064(5) 0.5291(2) 0.1208(8)
O4A O 0.6707(5) 0.6107(2) 0.1290(7)
O5 O 0.1272(7) 0.6541(3) 0.9568(14)
N3 N 0.0335(7) 0.6742(3) 0.7146(14)
C29 C 0.1158(9) 0.6589(4) 0.811(2)
H21 H 0.1711 0.6511 0.7615
C30 C 0.0305(11) 0.6784(5) 0.5399(18)
H22 H -0.0350 0.6898 0.4908
H23 H 0.0451 0.6439 0.4975
H24 H 0.0793 0.7041 0.5171
C31 C -0.0582(11) 0.6874(6) 0.782(2)
H25 H -0.1104 0.6975 0.6967
H26 H -0.0447 0.7167 0.8567
H27 H -0.0790 0.6565 0.8373
loop_
_geom_bond_atom_site_label_1
_geom_bond_atom_site_label_2
_geom_bond_site_symmetry_1
_geom_bond_site_symmetry_2
Zn1 N1 1_555 1_555
O1 C1 1_555 1_555
O2 C1 1_555 1_555
O3 C15 1_555 1_555
O4 C15 1_555 1_555
N1 C12 1_555 1_555
N2 Zn1 1_555 1_555
C1 C2 1_555 1_555
C2 C3 1_555 1_555
C3 H1 1_555 1_555
C4 C3 1_555 1_555
H2 C4 1_555 1_555
C5 C4 1_555 1_555
C6 C5 1_555 1_555
H3 C6 1_555 1_555
C7 C2 1_555 1_555
H4 C7 1_555 1_555
C8 C5 1_555 1_555
H5 C8 1_555 1_555
C9 C8 1_555 1_555
H6 C9 1_555 1_555
C10 C9 1_555 1_555
C11 C10 1_555 1_555
H7 C11 1_555 1_555
C12 C11 1_555 1_555
H8 C12 1_555 1_555
C13 N1 1_555 1_555
H9 C13 1_555 1_555
C14 C10 1_555 1_555
H10 C14 1_555 1_555
C15 C16 1_555 1_555
C16 C17 1_555 1_555
C17 H11 1_555 1_555
C18 C17 1_555 1_555
H12 C18 1_555 1_555
C19 C18 1_555 1_555
C20 C19 1_555 1_555
H13 C20 1_555 1_555
C21 C16 1_555 1_555
H14 C21 1_555 1_555
C22 C19 1_555 1_555
H15 C22 1_555 1_555
C23 C22 1_555 1_555
H16 C23 1_555 1_555
C24 C23 1_555 1_555
C25 C24 1_555 1_555
H17 C25 1_555 1_555
C26 N2 1_555 1_555
H18 C26 1_555 1_555
C27 N2 1_555 1_555
H19 C27 1_555 1_555
C28 C24 1_555 1_555
H20 C28 1_555 1_555
O5 C29 1_555 1_555
N3 C29 1_555 1_555
C29 H21 1_555 1_555
C30 N3 1_555 1_555
H22 C30 1_555 1_555
H23 C30 1_555 1_555
H24 C30 1_555 1_555
C31 N3 1_555 1_555
H25 C31 1_555 1_555
H26 C31 1_555 1_555
H27 C31 1_555 1_555
Zn1A O3 1_555 1_555
Zn1C O1 1_555 1_555
O1C Zn1 1_555 1_555
O3A Zn1 1_555 1_555
O4A Zn1 1_555 1_555
O4 Zn1A 1_555 1_555
C6 C7 1_555 1_555
C13 C14 1_555 1_555
C20 C21 1_555 1_555
C25 C26 1_555 1_555
C27 C28 1_555 1_555

#END
