
#######################################################################
#
#                 Cambridge Crystallographic Data Centre
#                                CCDC 
#
#######################################################################
#
# If this CIF has been generated from an entry in the Cambridge 
# Structural Database, then it will include bibliographic, chemical, 
# crystal, experimental, refinement or atomic coordinate data resulting 
# from the CCDC's data processing and validation procedures.
#
#######################################################################

data_UVIZOP
_symmetry_cell_setting           monoclinic
_symmetry_space_group_name_H-M   'C 2/c'
_symmetry_Int_Tables_number      15
_space_group_name_Hall           '-C 2yn'
loop_
_symmetry_equiv_pos_site_id
_symmetry_equiv_pos_as_xyz
1 x,y,z
2 -x,y,1/2-z
3 1/2+x,1/2+y,z
4 1/2-x,1/2+y,1/2-z
5 -x,-y,-z
6 x,-y,1/2+z
7 1/2-x,1/2-y,-z
8 1/2+x,1/2-y,1/2+z
_cell_length_a                   23.944(2)
_cell_length_b                   8.3497(8)
_cell_length_c                   14.0470(13)
_cell_angle_alpha                90
_cell_angle_beta                 104.552(3)
_cell_angle_gamma                90
_cell_volume                     2718.26
loop_
_atom_site_label
_atom_site_type_symbol
_atom_site_fract_x
_atom_site_fract_y
_atom_site_fract_z
K1 K 0.0000 0.41767(7) 0.7500
K2 K 0.104157(16) 0.09622(5) 0.57351(3)
K3 K 0.0000 0.07925(7) 0.2500
C1 C -0.10442(8) 0.3077(2) 0.34212(13)
C2 C -0.06918(8) 0.3559(2) 0.43956(13)
N1 N -0.08389(7) 0.33068(19) 0.26720(11)
N2 N -0.11564(8) 0.2572(2) 0.17935(12)
H1 H -0.1548(11) 0.259(3) 0.1690(17)
H2 H -0.1060(10) 0.321(3) 0.1332(17)
N3 N -0.15397(7) 0.2228(2) 0.34311(13)
H3 H -0.1700(10) 0.249(3) 0.3917(18)
H4 H -0.1778(10) 0.203(3) 0.2854(18)
N4 N -0.08428(6) 0.48941(19) 0.48467(11)
O1 O -0.12489(6) 0.57236(16) 0.43474(10)
O2 O -0.05901(6) 0.52941(18) 0.57111(10)
N5 N -0.02326(6) 0.26033(19) 0.48561(11)
O3 O 0.00764(5) 0.28645(16) 0.56958(9)
O4 O -0.01305(6) 0.14055(16) 0.43761(10)
C3 C 0.20209(7) 0.2418(2) 0.79477(13)
C4 C 0.17639(7) 0.1413(2) 0.86002(13)
N6 N 0.21227(6) 0.17396(18) 0.71855(11)
N7 N 0.23936(7) 0.2789(2) 0.66262(12)
H5 H 0.2209(10) 0.367(3) 0.6491(16)
H6 H 0.2362(9) 0.234(3) 0.6050(17)
N8 N 0.21111(7) 0.39871(19) 0.82104(12)
H7 H 0.2335(9) 0.457(3) 0.7949(16)
H8 H 0.2097(9) 0.418(3) 0.8765(18)
N9 N 0.11733(6) 0.12859(18) 0.84299(11)
O5 O 0.08770(5) 0.17765(16) 0.76037(9)
O6 O 0.09296(5) 0.07483(16) 0.90450(10)
N10 N 0.21302(6) 0.06740(18) 0.93957(11)
O7 O 0.19587(6) -0.02845(16) 0.99454(9)
O8 O 0.26607(5) 0.09668(15) 0.95338(9)
K1D K 0.0000 0.58233(7) 0.2500
K1D_2 K 0.0000 0.58233(7) 1.2500
K2A K -0.104157(16) 0.09622(5) 0.92649(3)
K2D K -0.104157(16) -0.09622(5) 0.42649(3)
K2D_2 K -0.104157(16) 0.90378(5) 0.42649(3)
K2E K 0.104157(16) -0.09622(5) 1.07351(3)
K2E_2 K 0.104157(16) 0.90378(5) 1.07351(3)
K3D K 0.0000 -0.07925(7) 0.7500
K3_2 K 0.0000 0.07925(7) 1.2500
C1A C 0.10442(8) 0.3077(2) 1.15788(13)
C2A C 0.06918(8) 0.3559(2) 1.06044(13)
N1A N 0.08389(7) 0.33068(19) 1.23280(11)
N1D N 0.08389(7) 0.66932(19) 0.73280(11)
N1E N -0.08389(7) 0.66932(19) 0.76720(11)
N1A_2 N 0.08389(7) 0.33068(19) 0.23280(11)
N2A N 0.11564(8) 0.2572(2) 1.32065(12)
N2A_2 N 0.11564(8) 0.2572(2) 0.32065(12)
H1A H 0.1548(11) 0.259(3) 1.3310(17)
H1A_2 H 0.1548(11) 0.259(3) 0.3310(17)
H2A H 0.1060(10) 0.321(3) 1.3668(17)
H2A_2 H 0.1060(10) 0.321(3) 0.3668(17)
N3A N 0.15397(7) 0.2228(2) 1.15689(13)
N3D N 0.15397(7) -0.2228(2) 0.65689(13)
N3E N -0.15397(7) -0.2228(2) 0.84311(13)
H3A H 0.1700(10) 0.249(3) 1.1083(18)
H3D H 0.1700(10) -0.249(3) 0.6083(18)
H3E H -0.1700(10) -0.249(3) 0.8917(18)
H4A H 0.1778(10) 0.203(3) 1.2146(18)
H4D H 0.1778(10) -0.203(3) 0.7146(18)
H4E H -0.1778(10) -0.203(3) 0.7854(18)
N4A N 0.08428(6) 0.48941(19) 1.01533(11)
O1A O 0.12489(6) 0.57236(16) 1.06526(10)
O1D O 0.12489(6) 0.42764(16) 0.56526(10)
O1E O -0.12489(6) 0.42764(16) 0.93474(10)
O2A O 0.05901(6) 0.52941(18) 0.92889(10)
N5A N 0.02326(6) 0.26033(19) 1.01439(11)
O3A O -0.00764(5) 0.28645(16) 0.93042(9)
O4A O 0.01305(6) 0.14055(16) 1.06239(10)
O4D O 0.01305(6) -0.14055(16) 0.56239(10)
O4A_2 O 0.01305(6) 0.14055(16) 0.06239(10)
O4E O -0.01305(6) -0.14055(16) 0.93761(10)
C3A C -0.20209(7) 0.2418(2) 0.70523(13)
C4A C -0.17639(7) 0.1413(2) 0.63998(13)
N6A N -0.21227(6) 0.17396(18) 0.78145(11)
N7A N -0.23936(7) 0.2789(2) 0.83738(12)
H5A H -0.2209(10) 0.367(3) 0.8509(16)
H6A H -0.2362(9) 0.234(3) 0.8950(17)
N8A N -0.21111(7) 0.39871(19) 0.67896(12)
H7A H -0.2335(9) 0.457(3) 0.7051(16)
H8A H -0.2097(9) 0.418(3) 0.6235(18)
N9A N -0.11733(6) 0.12859(18) 0.65701(11)
O5A O -0.08770(5) 0.17765(16) 0.73963(9)
O5D O -0.08770(5) -0.17765(16) 0.23963(9)
O5E O 0.08770(5) -0.17765(16) 0.26037(9)
O6A O -0.09296(5) 0.07483(16) 0.59550(10)
O6E O 0.09296(5) -0.07483(16) 0.40450(10)
O6D O -0.09296(5) -0.07483(16) 0.09550(10)
O6D_2 O -0.09296(5) -0.07483(16) 1.09550(10)
N10A N -0.21302(6) 0.06740(18) 0.56043(11)
O7A O -0.19587(6) -0.02845(16) 0.50546(9)
O7E O 0.19587(6) 0.02845(16) 0.49454(9)
O7D O -0.19587(6) 0.02845(16) 1.00546(9)
O8A O -0.26607(5) 0.09668(15) 0.54662(9)
loop_
_geom_bond_atom_site_label_1
_geom_bond_atom_site_label_2
_geom_bond_site_symmetry_1
_geom_bond_site_symmetry_2
K1 O2 1_555 1_555
K2 O3 1_555 1_555
K3 N1 1_555 1_555
C1 C2 1_555 1_555
C2 N4 1_555 1_555
N1 C1 1_555 1_555
N2 K3 1_555 1_555
H1 N2 1_555 1_555
H2 N2 1_555 1_555
N3 C1 1_555 1_555
H3 N3 1_555 1_555
H4 N3 1_555 1_555
N4 O1 1_555 1_555
O1 K2D_2 1_555 1_555
O2 N4 1_555 1_555
N5 C2 1_555 1_555
O3 K1 1_555 1_555
O4 K2 1_555 1_555
C3 C4 1_555 1_555
C4 N9 1_555 1_555
N6 K2 1_555 1_555
N7 N6 1_555 1_555
H5 N7 1_555 1_555
H6 N7 1_555 1_555
N8 C3 1_555 1_555
H7 N8 1_555 1_555
H8 N8 1_555 1_555
N9 O5 1_555 1_555
O5 K1 1_555 1_555
O6 N9 1_555 1_555
N10 C4 1_555 1_555
O7 N10 1_555 1_555
O8 N10 1_555 1_555
K1D N1 1_555 1_555
K1D_2 N1A 1_555 1_555
K2A N3E 1_555 1_555
K2D N3 1_555 1_555
K2E O6 1_555 1_555
K2E_2 O1A 1_555 1_555
K3D O5 1_555 1_555
K3_2 N1A 1_555 1_555
C1A C2A 1_555 1_555
C2A N4A 1_555 1_555
N1A C1A 1_555 1_555
N1D K1 1_555 1_555
N1E K1 1_555 1_555
N1A_2 K3 1_555 1_555
N2A K3_2 1_555 1_555
N2A_2 K3 1_555 1_555
H1A N2A 1_555 1_555
H1A_2 N2A_2 1_555 1_555
H2A N2A 1_555 1_555
H2A_2 N2A_2 1_555 1_555
N3A K2E 1_555 1_555
N3D K2 1_555 1_555
N3E H3E 1_555 1_555
H3A N3A 1_555 1_555
H3D N3D 1_555 1_555
H4A N3A 1_555 1_555
H4D N3D 1_555 1_555
H4E N3E 1_555 1_555
N4A O1A 1_555 1_555
O1D K2 1_555 1_555
O1E K2A 1_555 1_555
O2A K1 1_555 1_555
N5A C2A 1_555 1_555
O3A K1 1_555 1_555
O4A K2A 1_555 1_555
O4D K2 1_555 1_555
O4A_2 K3 1_555 1_555
O4E K2A 1_555 1_555
C3A C4A 1_555 1_555
C4A N9A 1_555 1_555
N6A K2A 1_555 1_555
N7A N6A 1_555 1_555
H5A N7A 1_555 1_555
H6A N7A 1_555 1_555
N8A C3A 1_555 1_555
H7A N8A 1_555 1_555
H8A N8A 1_555 1_555
N9A O5A 1_555 1_555
O5A K1 1_555 1_555
O5D K3 1_555 1_555
O5E K3 1_555 1_555
O6A K2D 1_555 1_555
O6E K2 1_555 1_555
O6D K3 1_555 1_555
O6D_2 K2A 1_555 1_555
N10A C4A 1_555 1_555
O7A K2D 1_555 1_555
O7E K2 1_555 1_555
O7D K2A 1_555 1_555
O8A N10A 1_555 1_555
K2 O5 1_555 1_555
K3 O4 1_555 1_555
K3 O6E 1_555 1_555
N1 N2 1_555 1_555
N5 O3 1_555 1_555
N5 O4 1_555 1_555
O4 K2D 1_555 1_555
C3 N6 1_555 1_555
O6 K3D 1_555 1_555
O7 K2E 1_555 1_555
K1D N1A_2 1_555 1_555
K2A O3A 1_555 1_555
K2A O5A 1_555 1_555
K2D O4D 1_555 1_555
K2D O5D 1_555 1_555
K2E O4A 1_555 1_555
K2E O4E 1_555 1_555
K3D O4D 1_555 1_555
K3D O4E 1_555 1_555
K3D O5A 1_555 1_555
K3D O6A 1_555 1_555
K3_2 O4A 1_555 1_555
K3_2 O6D_2 1_555 1_555
C1A N3A 1_555 1_555
N1A N2A 1_555 1_555
N1A_2 N2A_2 1_555 1_555
N4A O2A 1_555 1_555
N5A O3A 1_555 1_555
N5A O4A 1_555 1_555
C3A N6A 1_555 1_555
N9A O6A 1_555 1_555
N10A O7A 1_555 1_555

#END
