
#######################################################################
#
#                 Cambridge Crystallographic Data Centre
#                                CCDC 
#
#######################################################################
#
# If this CIF has been generated from an entry in the Cambridge 
# Structural Database, then it will include bibliographic, chemical, 
# crystal, experimental, refinement or atomic coordinate data resulting 
# from the CCDC's data processing and validation procedures.
#
#######################################################################

data_UVOBIR01
_symmetry_cell_setting           monoclinic
_symmetry_space_group_name_H-M   'P 21/n'
_symmetry_Int_Tables_number      14
_space_group_name_Hall           '-P 2yn'
loop_
_symmetry_equiv_pos_site_id
_symmetry_equiv_pos_as_xyz
1 x,y,z
2 1/2-x,1/2+y,1/2-z
3 -x,-y,-z
4 1/2+x,1/2-y,1/2+z
_cell_length_a                   9.905(5)
_cell_length_b                   7.023(4)
_cell_length_c                   12.754(7)
_cell_angle_alpha                90
_cell_angle_beta                 97.429(11)
_cell_angle_gamma                90
_cell_volume                     879.757
loop_
_atom_site_label
_atom_site_type_symbol
_atom_site_fract_x
_atom_site_fract_y
_atom_site_fract_z
Ag1 Ag 0.92687(2) 0.02408(4) 0.359520(17)
O1 O 0.8034(3) 0.4750(3) -0.1164(2)
H1 H 0.7750 0.5796 -0.1377
C1 C 0.8175(3) 0.4725(4) -0.0121(3)
O2 O 0.7678(2) 0.2452(3) 0.18464(16)
O3 O 0.7954(3) 0.6099(3) 0.04088(19)
O4 O 0.5787(3) 0.0762(4) -0.1220(2)
C2 C 0.6255(3) 0.1725(4) -0.0439(2)
C3 C 0.8870(3) -0.0341(4) 0.1744(2)
H2 H 0.9026 -0.1631 0.1872
C4 C 0.7638(3) 0.1153(4) 0.0159(2)
H3 H 0.8021 0.0088 -0.0202
O6 O 0.5660(2) 0.3166(3) -0.01116(18)
C5 C 0.9005(3) 0.2884(4) 0.1555(2)
H4 H 0.9418 0.4067 0.1850
C6 C 0.8697(3) 0.2821(4) 0.0329(2)
H5 H 0.9525 0.2469 0.0028
C7 C 0.9787(3) 0.1083(5) 0.1886(2)
H6 H 1.0709 0.0981 0.2135
C8 C 0.7526(3) 0.0608(4) 0.1329(2)
H7 H 0.6706 -0.0106 0.1442
Ag1A Ag 0.57313(2) 0.52408(4) 0.140480(17)
Ag1C Ag 0.42687(2) 0.47592(4) -0.140480(17)
O6A O 0.9340(2) -0.1834(3) 0.51116(18)
O6C O 1.0660(2) 0.1834(3) 0.48884(18)
O5 O 0.8320(3) 0.2595(4) 0.6985(2)
loop_
_geom_bond_atom_site_label_1
_geom_bond_atom_site_label_2
_geom_bond_site_symmetry_1
_geom_bond_site_symmetry_2
Ag1 C3 1_555 1_555
O1 H1 1_555 1_555
C1 O1 1_555 1_555
O2 C5 1_555 1_555
O3 C1 1_555 1_555
O4 C2 1_555 1_555
C2 C4 1_555 1_555
C3 H2 1_555 1_555
C4 H3 1_555 1_555
O6 C2 1_555 1_555
C5 H4 1_555 1_555
C6 C1 1_555 1_555
H5 C6 1_555 1_555
C7 Ag1 1_555 1_555
H6 C7 1_555 1_555
C8 O2 1_555 1_555
H7 C8 1_555 1_555
Ag1A O6 1_555 1_555
Ag1C O6 1_555 1_555
O6A Ag1 1_555 1_555
O6C Ag1 1_555 1_555
C3 C7 1_555 1_555
C3 C8 1_555 1_555
C4 C6 1_555 1_555
C4 C8 1_555 1_555
C5 C6 1_555 1_555
C5 C7 1_555 1_555

#END
