
#######################################################################
#
#                 Cambridge Crystallographic Data Centre
#                                CCDC 
#
#######################################################################
#
# If this CIF has been generated from an entry in the Cambridge 
# Structural Database, then it will include bibliographic, chemical, 
# crystal, experimental, refinement or atomic coordinate data resulting 
# from the CCDC's data processing and validation procedures.
#
#######################################################################

data_UVOCUE
_symmetry_cell_setting           monoclinic
_symmetry_space_group_name_H-M   'P 21/c'
_symmetry_Int_Tables_number      14
_space_group_name_Hall           '-P 2ybc'
loop_
_symmetry_equiv_pos_site_id
_symmetry_equiv_pos_as_xyz
1 x,y,z
2 -x,1/2+y,1/2-z
3 -x,-y,-z
4 x,1/2-y,1/2+z
_cell_length_a                   19.589(4)
_cell_length_b                   12.808(3)
_cell_length_c                   16.207(3)
_cell_angle_alpha                90
_cell_angle_beta                 97.14(3)
_cell_angle_gamma                90
_cell_volume                     4034.74
loop_
_atom_site_label
_atom_site_type_symbol
_atom_site_fract_x
_atom_site_fract_y
_atom_site_fract_z
Hg1 Hg 0.571852(12) 0.457200(17) 0.768166(15)
S1 S 0.55726(9) 0.27444(12) 0.75133(10)
S2 S 0.62578(8) 0.62288(12) 0.79261(12)
N1 N 0.8256(3) 0.0435(4) 0.8403(3)
N2 N 0.9281(3) 0.5126(5) 0.8394(4)
N3 N 0.4916(3) 0.5149(4) 0.6417(3)
N4 N 0.4615(3) 0.6324(4) 0.5418(3)
N5 N 0.4855(3) 1.0079(4) 0.3706(3)
N6 N 0.4324(3) 0.8999(4) 0.4505(3)
C1 C 0.6381(3) 0.2150(5) 0.7815(4)
C2 C 0.6416(3) 0.1079(5) 0.7687(4)
H1 H 0.6018 0.0723 0.7457
C3 C 0.7018(3) 0.0523(4) 0.7889(4)
H2 H 0.7027 -0.0205 0.7813
C4 C 0.7612(3) 0.1062(5) 0.8206(4)
C5 C 0.7586(3) 0.2101(5) 0.8348(4)
H3 H 0.7984 0.2458 0.8579
C6 C 0.6973(3) 0.2641(5) 0.8154(5)
H4 H 0.6962 0.3363 0.8257
C7 C 0.8220(4) -0.0175(7) 0.9184(5)
H5 H 0.8153 0.0298 0.9634
H6 H 0.8645 -0.0559 0.9324
H7 H 0.7838 -0.0661 0.9100
C8 C 0.8361(4) -0.0308(6) 0.7710(5)
H8 H 0.8387 0.0082 0.7202
H9 H 0.7979 -0.0793 0.7627
H10 H 0.8786 -0.0693 0.7855
C9 C 0.8878(4) 0.1103(7) 0.8537(6)
H11 H 0.8914 0.1510 0.8040
H12 H 0.9282 0.0667 0.8657
H13 H 0.8843 0.1569 0.9002
C10 C 0.7147(3) 0.5899(5) 0.8021(4)
C11 C 0.7417(3) 0.5205(6) 0.7500(4)
H14 H 0.7124 0.4892 0.7066
C12 C 0.8111(3) 0.4958(6) 0.7600(4)
H15 H 0.8285 0.4467 0.7251
C13 C 0.8535(3) 0.5438(5) 0.8214(4)
C14 C 0.8283(4) 0.6151(7) 0.8728(5)
H16 H 0.8580 0.6480 0.9149
C15 C 0.7593(4) 0.6383(6) 0.8626(5)
H17 H 0.7422 0.6880 0.8974
C16 C 0.9364(4) 0.4455(7) 0.9151(5)
H18 H 0.9078 0.3838 0.9053
H19 H 0.9226 0.4842 0.9617
H20 H 0.9842 0.4247 0.9275
C17 C 0.9527(4) 0.4530(7) 0.7687(5)
H21 H 0.9245 0.3911 0.7572
H22 H 1.0003 0.4325 0.7839
H23 H 0.9491 0.4969 0.7196
C18 C 0.9733(4) 0.6074(7) 0.8550(6)
H24 H 0.9588 0.6476 0.9004
H25 H 0.9696 0.6501 0.8052
H26 H 1.0207 0.5855 0.8693
C19 C 0.4344(3) 0.4785(5) 0.5907(4)
C20 C 0.3982(3) 0.3843(5) 0.5943(4)
H27 H 0.4105 0.3347 0.6363
C21 C 0.3438(4) 0.3681(5) 0.5333(5)
H28 H 0.3192 0.3050 0.5326
C22 C 0.3243(4) 0.4425(6) 0.4728(5)
H29 H 0.2862 0.4285 0.4331
C23 C 0.3584(4) 0.5362(5) 0.4685(4)
H30 H 0.3448 0.5864 0.4274
C24 C 0.4144(3) 0.5510(4) 0.5294(4)
C25 C 0.5060(3) 0.6046(5) 0.6100(4)
H31 H 0.5434 0.6462 0.6320
C26 C 0.4696(3) 0.7231(4) 0.4900(4)
H32 H 0.4631 0.7017 0.4315
H33 H 0.5166 0.7497 0.5027
C27 C 0.4193(3) 0.8102(5) 0.5023(4)
H34 H 0.3720 0.7854 0.4872
H35 H 0.4244 0.8310 0.5610
C28 C 0.4216(3) 1.0505(4) 0.3836(4)
C29 C 0.3893(4) 1.1427(5) 0.3517(4)
H36 H 0.4111 1.1885 0.3180
C30 C 0.3251(4) 1.1628(5) 0.3718(5)
H37 H 0.3021 1.2236 0.3513
C31 C 0.2927(4) 1.0959(6) 0.4217(5)
H38 H 0.2483 1.1130 0.4338
C32 C 0.3229(4) 1.0053(5) 0.4544(4)
H39 H 0.3006 0.9609 0.4888
C33 C 0.3881(3) 0.9833(4) 0.4337(4)
C34 C 0.4888(3) 0.9195(5) 0.4121(4)
H40 H 0.5267 0.8742 0.4150
Hg1C Hg 0.571852(12) 1.042800(17) 0.268166(15)
N5C N 0.4855(3) 0.4921(4) 0.8706(3)
P1 P 0.90040(10) 0.73258(15) 0.59920(13)
F1 F 0.8599(4) 0.7376(5) 0.6764(4)
F2 F 0.8978(3) 0.8563(3) 0.5934(4)
F3 F 0.9393(3) 0.7289(5) 0.5202(4)
F4 F 0.9028(3) 0.6097(4) 0.6059(4)
F5 F 0.8305(3) 0.7263(4) 0.5393(4)
F6 F 0.9708(3) 0.7387(5) 0.6564(4)
P2 P 0.83318(12) 0.22915(18) 0.58846(13)
F7 F 0.7715(4) 0.2107(9) 0.6370(6)
F8 F 0.8943(4) 0.2396(6) 0.5355(5)
F9 F 0.8802(5) 0.2494(6) 0.6703(4)
F10 F 0.8208(5) 0.3487(5) 0.5785(5)
F11 F 0.7843(4) 0.2059(8) 0.5085(5)
F12 F 0.8510(4) 0.1102(5) 0.5980(4)
O1 O 0.9958(13) -0.088(2) 0.9148(18)
loop_
_geom_bond_atom_site_label_1
_geom_bond_atom_site_label_2
_geom_bond_site_symmetry_1
_geom_bond_site_symmetry_2
Hg1 S1 1_555 1_555
S1 C1 1_555 1_555
S2 Hg1 1_555 1_555
N1 C4 1_555 1_555
N2 C13 1_555 1_555
N3 Hg1 1_555 1_555
N4 C24 1_555 1_555
N5 C28 1_555 1_555
N6 C27 1_555 1_555
P1 F1 1_555 1_555
P2 F7 1_555 1_555
F2 P1 1_555 1_555
F3 P1 1_555 1_555
F4 P1 1_555 1_555
F5 P1 1_555 1_555
F6 P1 1_555 1_555
F8 P2 1_555 1_555
F9 P2 1_555 1_555
F10 P2 1_555 1_555
F11 P2 1_555 1_555
F12 P2 1_555 1_555
C1 C2 1_555 1_555
C2 H1 1_555 1_555
C3 C2 1_555 1_555
H2 C3 1_555 1_555
C4 C3 1_555 1_555
C5 C4 1_555 1_555
H3 C5 1_555 1_555
C6 C1 1_555 1_555
H4 C6 1_555 1_555
C7 N1 1_555 1_555
H5 C7 1_555 1_555
H6 C7 1_555 1_555
H7 C7 1_555 1_555
C8 N1 1_555 1_555
H8 C8 1_555 1_555
H9 C8 1_555 1_555
H10 C8 1_555 1_555
C9 N1 1_555 1_555
H11 C9 1_555 1_555
H12 C9 1_555 1_555
H13 C9 1_555 1_555
C10 S2 1_555 1_555
C11 C10 1_555 1_555
H14 C11 1_555 1_555
C12 C11 1_555 1_555
H15 C12 1_555 1_555
C13 C12 1_555 1_555
C14 C13 1_555 1_555
H16 C14 1_555 1_555
C15 C10 1_555 1_555
H17 C15 1_555 1_555
C16 N2 1_555 1_555
H18 C16 1_555 1_555
H19 C16 1_555 1_555
H20 C16 1_555 1_555
C17 N2 1_555 1_555
H21 C17 1_555 1_555
H22 C17 1_555 1_555
H23 C17 1_555 1_555
C18 N2 1_555 1_555
H24 C18 1_555 1_555
H25 C18 1_555 1_555
H26 C18 1_555 1_555
C19 N3 1_555 1_555
C20 C19 1_555 1_555
H27 C20 1_555 1_555
C21 C20 1_555 1_555
H28 C21 1_555 1_555
C22 C21 1_555 1_555
H29 C22 1_555 1_555
C23 C22 1_555 1_555
H30 C23 1_555 1_555
C24 C19 1_555 1_555
C25 N3 1_555 1_555
H31 C25 1_555 1_555
C26 N4 1_555 1_555
H32 C26 1_555 1_555
H33 C26 1_555 1_555
C27 C26 1_555 1_555
H34 C27 1_555 1_555
H35 C27 1_555 1_555
C28 C29 1_555 1_555
C29 H36 1_555 1_555
C30 C29 1_555 1_555
H37 C30 1_555 1_555
C31 C30 1_555 1_555
H38 C31 1_555 1_555
C32 C31 1_555 1_555
H39 C32 1_555 1_555
C33 N6 1_555 1_555
C34 N5 1_555 1_555
H40 C34 1_555 1_555
Hg1C N5 1_555 1_555
N5C Hg1 1_555 1_555
N4 C25 1_555 1_555
N6 C34 1_555 1_555
C5 C6 1_555 1_555
C14 C15 1_555 1_555
C23 C24 1_555 1_555
C28 C33 1_555 1_555
C32 C33 1_555 1_555

#END
