
#######################################################################
#
#                 Cambridge Crystallographic Data Centre
#                                CCDC 
#
#######################################################################
#
# If this CIF has been generated from an entry in the Cambridge 
# Structural Database, then it will include bibliographic, chemical, 
# crystal, experimental, refinement or atomic coordinate data resulting 
# from the CCDC's data processing and validation procedures.
#
#######################################################################

data_UWACAX01
_symmetry_cell_setting           triclinic
_symmetry_space_group_name_H-M   'P -1'
_symmetry_Int_Tables_number      2
_space_group_name_Hall           '-P 1'
loop_
_symmetry_equiv_pos_site_id
_symmetry_equiv_pos_as_xyz
1 x,y,z
2 -x,-y,-z
_cell_length_a                   13.7954(14)
_cell_length_b                   13.8916(13)
_cell_length_c                   27.848(2)
_cell_angle_alpha                99.892(10)
_cell_angle_beta                 90.547(11)
_cell_angle_gamma                91.269(11)
_cell_volume                     5255.68
loop_
_atom_site_label
_atom_site_type_symbol
_atom_site_fract_x
_atom_site_fract_y
_atom_site_fract_z
Co1 Co 0.10026(4) 0.52321(4) 0.24971(2)
N1 N 0.1118(3) 0.6860(3) 0.25417(14)
C1 C 0.0997(3) 0.7288(3) 0.21527(19)
H1 H 0.0913 0.6880 0.1844
C2 C 0.0988(4) 0.8297(3) 0.21715(19)
H2 H 0.0879 0.8562 0.1884
C3 C 0.1138(3) 0.8907(3) 0.26146(18)
C4 C 0.1286(4) 0.8463(3) 0.30218(19)
H3 H 0.1401 0.8854 0.3333
C5 C 0.1265(3) 0.7457(3) 0.29740(18)
H4 H 0.1359 0.7173 0.3257
C6 C 0.1144(4) 0.9989(3) 0.2683(2)
H5 H 0.1330 1.0338 0.2995
C7 C 0.0915(4) 1.0499(3) 0.23507(19)
H6 H 0.0711 1.0145 0.2042
C8 C 0.0941(3) 1.1579(3) 0.24068(19)
C9 C 0.1088(4) 1.2200(3) 0.28521(19)
H7 H 0.1190 1.1942 0.3143
C10 C 0.1083(3) 1.3204(3) 0.28622(18)
H8 H 0.1178 1.3619 0.3168
C11 C 0.0818(3) 1.3017(3) 0.20417(18)
H9 H 0.0723 1.3292 0.1755
C12 C 0.0809(4) 1.2006(3) 0.19969(19)
H10 H 0.0714 1.1608 0.1686
N2 N 0.0951(3) 1.3627(3) 0.24665(14)
N3 N -0.0598(3) 0.5304(3) 0.25350(15)
C13 C -0.1180(3) 0.4489(3) 0.24838(18)
H11 H -0.0879 0.3874 0.2411
C14 C -0.2179(3) 0.4489(4) 0.2530(2)
H12 H -0.2540 0.3890 0.2497
C15 C -0.2647(3) 0.5377(3) 0.26261(19)
C16 C -0.2043(3) 0.6227(3) 0.26913(19)
H13 H -0.2320 0.6854 0.2772
C17 C -0.1057(3) 0.6149(3) 0.26386(17)
H14 H -0.0677 0.6736 0.2679
C18 C -0.3699(4) 0.5482(3) 0.26806(19)
H15 H -0.3934 0.6047 0.2883
C19 C -0.4348(3) 0.4805(4) 0.2454(2)
H16 H -0.4113 0.4219 0.2269
C20 C -0.5394(4) 0.4938(3) 0.24813(19)
C21 C -0.5996(4) 0.4351(4) 0.2128(2)
H17 H -0.5725 0.3874 0.1884
C22 C -0.6986(3) 0.4484(4) 0.2146(2)
H18 H -0.7381 0.4097 0.1902
C23 C -0.6837(3) 0.5666(3) 0.28201(19)
H19 H -0.7133 0.6126 0.3063
C24 C -0.5844(3) 0.5598(3) 0.2831(2)
H20 H -0.5470 0.6003 0.3078
N4 N -0.7414(3) 0.5108(3) 0.24776(17)
S1 S 0.15370(12) 0.51234(11) 0.07889(6)
C25 C 0.1200(3) 0.5073(3) 0.1342(2)
N5 N 0.0969(3) 0.5049(3) 0.17461(16)
S2 S 0.18076(12) 0.54030(11) 0.41796(5)
C26 C 0.1363(3) 0.5428(3) 0.36419(19)
N6 N 0.1052(3) 0.5440(3) 0.32487(16)
Co1_2 Co -0.89974(4) 0.52321(4) 0.24971(2)
Co1_3 Co 0.10026(4) 1.52321(4) 0.24971(2)
N2_2 N 0.0951(3) 0.3627(3) 0.24665(14)
N4_2 N 0.2586(3) 0.5108(3) 0.24776(17)
Co2 Co 0.90452(4) 0.17932(4) 0.41476(2)
N7 N 0.9056(3) 0.0185(3) 0.41222(14)
C27 C 0.9135(4) -0.0417(3) 0.36949(19)
H21 H 0.9188 -0.0137 0.3408
C28 C 0.9142(4) -0.1420(3) 0.36485(19)
H22 H 0.9204 -0.1811 0.3336
C29 C 0.9059(3) -0.1863(3) 0.40576(18)
C30 C 0.8979(4) -0.1246(3) 0.45000(19)
H23 H 0.8931 -0.1509 0.4792
C31 C 0.8968(4) -0.0246(3) 0.45181(19)
H24 H 0.8894 0.0159 0.4826
C32 C 0.9080(4) -0.2937(3) 0.3996(2)
H25 H 0.9206 -0.3278 0.3678
C33 C 0.8941(4) -0.3470(3) 0.43370(19)
H26 H 0.8831 -0.3131 0.4658
C34 C 0.8939(3) -0.4531(3) 0.42685(18)
C35 C 0.8956(4) -0.5146(3) 0.38202(19)
H27 H 0.8963 -0.4876 0.3529
C36 C 0.8964(3) -0.6153(3) 0.37934(18)
H28 H 0.8962 -0.6552 0.3480
C37 C 0.8946(4) -0.6003(3) 0.46190(19)
H29 H 0.8944 -0.6294 0.4904
C38 C 0.8923(4) -0.4995(3) 0.46770(18)
H30 H 0.8895 -0.4616 0.4995
N8 N 0.8973(3) -0.6592(3) 0.41862(14)
N9 N 0.7475(3) 0.1700(3) 0.41465(16)
C39 C 0.6980(3) 0.1061(3) 0.38163(19)
H31 H 0.7340 0.0650 0.3577
C40 C 0.5987(3) 0.0955(4) 0.3798(2)
H32 H 0.5681 0.0476 0.3556
C41 C 0.5432(3) 0.1557(4) 0.4137(2)
C42 C 0.5928(3) 0.2229(4) 0.44899(19)
H33 H 0.5583 0.2645 0.4733
C43 C 0.6929(3) 0.2279(3) 0.44797(19)
H34 H 0.7257 0.2745 0.4720
C44 C 0.4368(4) 0.1433(4) 0.4108(2)
H35 H 0.4098 0.0842 0.3930
C45 C 0.3763(4) 0.2119(4) 0.4321(2)
H36 H 0.4030 0.2693 0.4517
C46 C 0.2702(4) 0.2011(4) 0.42626(19)
C47 C 0.2193(4) 0.1102(4) 0.4201(2)
H37 H 0.2538 0.0516 0.4196
C48 C 0.1206(3) 0.1066(3) 0.41500(19)
H38 H 0.0887 0.0443 0.4101
C49 C 0.1145(3) 0.2726(3) 0.42231(19)
H39 H 0.0787 0.3303 0.4225
C50 C 0.2137(3) 0.2816(4) 0.4281(2)
H40 H 0.2437 0.3448 0.4334
N10 N 0.0656(3) 0.1860(3) 0.41647(16)
S3 S 0.82516(10) 0.17983(10) 0.24772(5)
C51 C 0.8693(3) 0.1679(3) 0.30103(19)
N11 N 0.9001(3) 0.1602(3) 0.33914(16)
S4 S 0.81912(11) 0.16166(11) 0.57629(6)
C52 C 0.8690(3) 0.1861(3) 0.52692(19)
N12 N 0.9043(3) 0.2000(3) 0.49035(15)
Co2_2 Co -0.09548(4) 0.17932(4) 0.41476(2)
Co2_3 Co 0.90452(4) -0.82068(4) 0.41476(2)
N8_2 N 0.8973(3) 0.3408(3) 0.41862(14)
N10_2 N 1.0656(3) 0.1860(3) 0.41647(16)
Co3 Co 0.88767(4) 0.85152(4) 0.08589(2)
N13 N 1.0487(3) 0.8598(3) 0.09040(15)
C53 C 1.0964(3) 0.9469(3) 0.09791(19)
H41 H 1.0598 1.0045 0.0996
C54 C 1.1958(4) 0.9568(4) 0.1032(2)
H42 H 1.2255 1.0201 0.1099
C55 C 1.2534(3) 0.8730(4) 0.0988(2)
C56 C 1.2028(3) 0.7837(4) 0.09070(19)
H43 H 1.2373 0.7246 0.0883
C57 C 1.1032(3) 0.7804(3) 0.08619(18)
H44 H 1.0713 0.7181 0.0797
C58 C 1.3589(3) 0.8843(3) 0.1037(2)
H45 H 1.3852 0.9416 0.1235
C59 C 1.4200(4) 0.8179(4) 0.0818(2)
H46 H 1.3924 0.7597 0.0634
C60 C 1.5268(3) 0.8274(4) 0.0837(2)
C61 C 1.5807(3) 0.7675(3) 0.0509(2)
H47 H 1.5495 0.7195 0.0270
C62 C 1.6808(3) 0.7766(3) 0.05236(19)
H48 H 1.7166 0.7328 0.0296
C63 C 1.6758(3) 0.9026(3) 0.11739(19)
H49 H 1.7084 0.9490 0.1416
C64 C 1.5760(3) 0.8987(4) 0.11799(19)
H50 H 1.5412 0.9430 0.1410
N14 N 1.7306(3) 0.8451(3) 0.08478(15)
N15 N 0.8795(3) 1.0095(3) 0.08072(14)
C65 C 0.8808(4) 1.0387(3) 0.0373(2)
H51 H 0.8819 0.9904 0.0087
C66 C 0.8807(4) 1.1355(4) 0.0324(2)
H52 H 0.8816 1.1523 0.0007
C67 C 0.8791(3) 1.2093(3) 0.07311(19)
C68 C 0.8751(4) 1.1785(3) 0.11815(19)
H53 H 0.8717 1.2251 0.1473
C69 C 0.8760(3) 1.0795(3) 0.12013(18)
H54 H 0.8742 1.0603 0.1513
C70 C 0.8817(4) 1.3122(3) 0.0672(2)
H55 H 0.8925 1.3250 0.0353
C71 C 0.8705(4) 1.3891(3) 0.1020(2)
H56 H 0.8592 1.3766 0.1339
C72 C 0.8741(3) 1.4911(3) 0.09558(19)
C73 C 0.8907(4) 1.5237(3) 0.0520(2)
H57 H 0.8997 1.4776 0.0231
C74 C 0.8943(4) 1.6224(4) 0.05031(19)
H58 H 0.9047 1.6420 0.0197
C75 C 0.8670(4) 1.6611(3) 0.13199(19)
H59 H 0.8585 1.7086 0.1605
C76 C 0.8614(4) 1.5637(3) 0.1361(2)
H60 H 0.8488 1.5458 0.1669
N16 N 0.8839(3) 1.6922(3) 0.08957(15)
S5 S 0.83392(13) 0.78391(12) -0.08676(6)
C77 C 0.8672(4) 0.8014(3) -0.0298(2)
N17 N 0.8906(3) 0.8150(3) 0.01135(17)
S6 S 0.81790(12) 0.88533(11) 0.25419(5)
C78 C 0.8590(3) 0.8888(3) 0.20008(19)
N18 N 0.8880(3) 0.8892(3) 0.16113(16)
Co3_2 Co 0.88767(4) 1.85152(4) 0.08589(2)
Co3_3 Co 1.88767(4) 0.85152(4) 0.08589(2)
N14_2 N 0.7306(3) 0.8451(3) 0.08478(15)
N16_2 N 0.8839(3) 0.6922(3) 0.08957(15)
N19 N 0.4626(4) 0.0743(4) 0.2029(2)
C79 C 0.5444(5) 0.1086(5) 0.2258(2)
H61 H 0.6028 0.0772 0.2153
C80 C 0.5505(4) 0.1869(4) 0.2639(2)
H62 H 0.6119 0.2095 0.2777
C81 C 0.4659(4) 0.2328(4) 0.2822(2)
C82 C 0.3805(5) 0.1963(5) 0.2585(3)
H63 H 0.3205 0.2251 0.2685
C83 C 0.3824(5) 0.1188(5) 0.2206(3)
H64 H 0.3222 0.0950 0.2059
C84 C 0.4638(4) 0.3162(4) 0.3228(2)
H65 H 0.4023 0.3432 0.3309
C85 C 0.5391(4) 0.3571(4) 0.3491(2)
H66 H 0.6009 0.3305 0.3408
C86 C 0.5363(4) 0.4401(4) 0.3898(2)
C87 C 0.4512(4) 0.4870(4) 0.4055(2)
H67 H 0.3908 0.4656 0.3902
C88 C 0.4557(4) 0.5650(4) 0.4436(2)
H68 H 0.3971 0.5972 0.4529
C89 C 0.6171(5) 0.5531(5) 0.4530(3)
H69 H 0.6764 0.5754 0.4692
C90 C 0.6201(4) 0.4757(4) 0.4149(2)
H70 H 0.6803 0.4465 0.4058
N20 N 0.5362(4) 0.5986(4) 0.4685(2)
N21 N 0.5148(5) 0.4053(4) 0.0353(2)
C91 C 0.4331(5) 0.4408(5) 0.0584(3)
H71 H 0.3729 0.4098 0.0475
C92 C 0.4319(5) 0.5180(5) 0.0962(2)
H72 H 0.3720 0.5399 0.1101
C93 C 0.5180(4) 0.5642(4) 0.1142(2)
C94 C 0.6017(5) 0.5289(5) 0.0902(3)
H73 H 0.6628 0.5588 0.1002
C95 C 0.5966(5) 0.4511(5) 0.0521(3)
H74 H 0.6554 0.4291 0.0369
C96 C 0.5247(4) 0.6472(4) 0.1545(2)
H75 H 0.5876 0.6745 0.1629
C97 C 0.4519(4) 0.6879(4) 0.1802(2)
H76 H 0.3889 0.6609 0.1718
C98 C 0.4596(4) 0.7711(4) 0.2206(2)
C99 C 0.3772(5) 0.8105(4) 0.2447(2)
H77 H 0.3149 0.7834 0.2347
C100 C 0.3855(5) 0.8881(5) 0.2827(3)
H78 H 0.3278 0.9122 0.2983
C101 C 0.5490(5) 0.8926(5) 0.2753(3)
H79 H 0.6104 0.9210 0.2860
C102 C 0.5480(5) 0.8170(5) 0.2377(3)
H80 H 0.6071 0.7949 0.2229
N22 N 0.4695(4) 0.9316(4) 0.2990(2)
N23 N 0.5418(4) 0.7374(4) 0.3692(2)
C103 C 0.4587(5) 0.7713(5) 0.3900(3)
H81 H 0.3996 0.7400 0.3775
C104 C 0.4540(4) 0.8481(4) 0.4279(2)
H82 H 0.3927 0.8681 0.4407
C105 C 0.5371(4) 0.8967(4) 0.4479(2)
C106 C 0.6231(5) 0.8625(5) 0.4268(3)
H83 H 0.6831 0.8933 0.4384
C107 C 0.6219(5) 0.7843(5) 0.3892(3)
H84 H 0.6825 0.7617 0.3764
C108 C 0.5390(4) 0.9801(4) 0.4884(2)
H85 H 0.6006 1.0080 0.4991
N23A N 0.4582(4) 1.2626(4) 0.6308(2)
C103A C 0.5413(5) 1.2287(5) 0.6100(3)
H81A H 0.6004 1.2600 0.6225
C104A C 0.5460(4) 1.1519(4) 0.5721(2)
H82A H 0.6073 1.1319 0.5593
C105A C 0.4629(4) 1.1033(4) 0.5521(2)
C106A C 0.3769(5) 1.1375(5) 0.5732(3)
H83A H 0.3169 1.1067 0.5616
C107A C 0.3781(5) 1.2157(5) 0.6108(3)
H84A H 0.3175 1.2383 0.6236
C108A C 0.4610(4) 1.0199(4) 0.5116(2)
H85A H 0.3994 0.9920 0.5009
N24 N 0.5214(4) 0.2624(4) 0.1331(2)
C109 C 0.4422(5) 0.2247(5) 0.1081(3)
H86 H 0.3821 0.2545 0.1169
C110 C 0.4410(4) 0.1468(4) 0.0709(2)
H87 H 0.3812 0.1220 0.0560
C111 C 0.5280(4) 0.1034(4) 0.0548(2)
C112 C 0.6106(5) 0.1431(5) 0.0799(3)
H88 H 0.6721 0.1170 0.0707
C113 C 0.6042(5) 0.2210(5) 0.1183(3)
H89 H 0.6623 0.2459 0.1350
C114 C 0.5358(4) 0.0209(4) 0.0139(2)
H90 H 0.5986 -0.0043 0.0072
N24A N 0.4786(4) -0.2624(4) -0.1331(2)
C109A C 0.5578(5) -0.2247(5) -0.1081(3)
H86A H 0.6179 -0.2545 -0.1169
C110A C 0.5590(4) -0.1468(4) -0.0709(2)
H87A H 0.6188 -0.1220 -0.0560
C111A C 0.4720(4) -0.1034(4) -0.0548(2)
C112A C 0.3894(5) -0.1431(5) -0.0799(3)
H88A H 0.3279 -0.1170 -0.0707
C113A C 0.3958(5) -0.2210(5) -0.1183(3)
H89A H 0.3377 -0.2459 -0.1350
C114A C 0.4642(4) -0.0209(4) -0.0139(2)
H90A H 0.4014 0.0043 -0.0072
loop_
_geom_bond_atom_site_label_1
_geom_bond_atom_site_label_2
_geom_bond_site_symmetry_1
_geom_bond_site_symmetry_2
Co1 N1 1_555 1_555
N1 C1 1_555 1_555
C1 H1 1_555 1_555
C2 C1 1_555 1_555
H2 C2 1_555 1_555
C3 C2 1_555 1_555
C4 C3 1_555 1_555
H3 C4 1_555 1_555
C5 N1 1_555 1_555
H4 C5 1_555 1_555
C6 C3 1_555 1_555
H5 C6 1_555 1_555
C7 C6 1_555 1_555
H6 C7 1_555 1_555
C8 C7 1_555 1_555
C9 C8 1_555 1_555
H7 C9 1_555 1_555
C10 C9 1_555 1_555
H8 C10 1_555 1_555
C11 H9 1_555 1_555
C12 C8 1_555 1_555
H10 C12 1_555 1_555
N2 C10 1_555 1_555
N3 Co1 1_555 1_555
C13 N3 1_555 1_555
H11 C13 1_555 1_555
C14 C13 1_555 1_555
H12 C14 1_555 1_555
C15 C14 1_555 1_555
C16 C15 1_555 1_555
H13 C16 1_555 1_555
C17 N3 1_555 1_555
H14 C17 1_555 1_555
C18 C15 1_555 1_555
H15 C18 1_555 1_555
C19 C18 1_555 1_555
H16 C19 1_555 1_555
C20 C19 1_555 1_555
C21 C20 1_555 1_555
H17 C21 1_555 1_555
C22 C21 1_555 1_555
H18 C22 1_555 1_555
C23 H19 1_555 1_555
C24 C20 1_555 1_555
H20 C24 1_555 1_555
N4 C22 1_555 1_555
S1 C25 1_555 1_555
C25 N5 1_555 1_555
N5 Co1 1_555 1_555
S2 C26 1_555 1_555
C26 N6 1_555 1_555
N6 Co1 1_555 1_555
Co2 N7 1_555 1_555
N7 C27 1_555 1_555
C27 H21 1_555 1_555
C28 C27 1_555 1_555
H22 C28 1_555 1_555
C29 C28 1_555 1_555
C30 C29 1_555 1_555
H23 C30 1_555 1_555
C31 N7 1_555 1_555
H24 C31 1_555 1_555
C32 C29 1_555 1_555
H25 C32 1_555 1_555
C33 C32 1_555 1_555
H26 C33 1_555 1_555
C34 C33 1_555 1_555
C35 C34 1_555 1_555
H27 C35 1_555 1_555
C36 C35 1_555 1_555
H28 C36 1_555 1_555
C37 H29 1_555 1_555
C38 C34 1_555 1_555
H30 C38 1_555 1_555
N8 C36 1_555 1_555
N9 Co2 1_555 1_555
C39 N9 1_555 1_555
H31 C39 1_555 1_555
C40 C39 1_555 1_555
H32 C40 1_555 1_555
C41 C40 1_555 1_555
C42 C41 1_555 1_555
H33 C42 1_555 1_555
C43 N9 1_555 1_555
H34 C43 1_555 1_555
C44 C41 1_555 1_555
H35 C44 1_555 1_555
C45 C44 1_555 1_555
H36 C45 1_555 1_555
C46 C45 1_555 1_555
C47 C46 1_555 1_555
H37 C47 1_555 1_555
C48 C47 1_555 1_555
H38 C48 1_555 1_555
C49 H39 1_555 1_555
C50 C46 1_555 1_555
H40 C50 1_555 1_555
N10 C48 1_555 1_555
S3 C51 1_555 1_555
C51 N11 1_555 1_555
N11 Co2 1_555 1_555
S4 C52 1_555 1_555
C52 N12 1_555 1_555
N12 Co2 1_555 1_555
Co3 N13 1_555 1_555
N13 C53 1_555 1_555
C53 H41 1_555 1_555
C54 C53 1_555 1_555
H42 C54 1_555 1_555
C55 C54 1_555 1_555
C56 C55 1_555 1_555
H43 C56 1_555 1_555
C57 N13 1_555 1_555
H44 C57 1_555 1_555
C58 C55 1_555 1_555
H45 C58 1_555 1_555
C59 C58 1_555 1_555
H46 C59 1_555 1_555
C60 C59 1_555 1_555
C61 C60 1_555 1_555
H47 C61 1_555 1_555
C62 C61 1_555 1_555
H48 C62 1_555 1_555
C63 H49 1_555 1_555
C64 C60 1_555 1_555
H50 C64 1_555 1_555
N14 C62 1_555 1_555
N15 Co3 1_555 1_555
C65 N15 1_555 1_555
H51 C65 1_555 1_555
C66 C65 1_555 1_555
H52 C66 1_555 1_555
C67 C66 1_555 1_555
C68 C67 1_555 1_555
H53 C68 1_555 1_555
C69 N15 1_555 1_555
H54 C69 1_555 1_555
C70 C67 1_555 1_555
H55 C70 1_555 1_555
C71 C70 1_555 1_555
H56 C71 1_555 1_555
C72 C71 1_555 1_555
C73 C72 1_555 1_555
H57 C73 1_555 1_555
C74 C73 1_555 1_555
H58 C74 1_555 1_555
C75 H59 1_555 1_555
C76 C72 1_555 1_555
H60 C76 1_555 1_555
N16 C74 1_555 1_555
S5 C77 1_555 1_555
C77 N17 1_555 1_555
N17 Co3 1_555 1_555
S6 C78 1_555 1_555
C78 N18 1_555 1_555
N18 Co3 1_555 1_555
N19 C79 1_555 1_555
C79 H61 1_555 1_555
C80 C79 1_555 1_555
H62 C80 1_555 1_555
C81 C80 1_555 1_555
C82 C81 1_555 1_555
H63 C82 1_555 1_555
C83 N19 1_555 1_555
H64 C83 1_555 1_555
C84 C81 1_555 1_555
H65 C84 1_555 1_555
C85 C84 1_555 1_555
H66 C85 1_555 1_555
C86 C85 1_555 1_555
C87 C86 1_555 1_555
H67 C87 1_555 1_555
C88 C87 1_555 1_555
H68 C88 1_555 1_555
C89 H69 1_555 1_555
C90 C86 1_555 1_555
H70 C90 1_555 1_555
N20 C88 1_555 1_555
N21 C91 1_555 1_555
C91 H71 1_555 1_555
C92 C91 1_555 1_555
H72 C92 1_555 1_555
C93 C92 1_555 1_555
C94 C93 1_555 1_555
H73 C94 1_555 1_555
C95 N21 1_555 1_555
H74 C95 1_555 1_555
C96 C93 1_555 1_555
H75 C96 1_555 1_555
C97 C96 1_555 1_555
H76 C97 1_555 1_555
C98 C97 1_555 1_555
C99 C98 1_555 1_555
H77 C99 1_555 1_555
C100 C99 1_555 1_555
H78 C100 1_555 1_555
C101 H79 1_555 1_555
C102 C98 1_555 1_555
H80 C102 1_555 1_555
N22 C100 1_555 1_555
N23 C103 1_555 1_555
C103 H81 1_555 1_555
C104 C103 1_555 1_555
H82 C104 1_555 1_555
C105 C104 1_555 1_555
C106 C105 1_555 1_555
H83 C106 1_555 1_555
C107 N23 1_555 1_555
H84 C107 1_555 1_555
C108 C105 1_555 1_555
H85 C108 1_555 1_555
N24 C109 1_555 1_555
C109 H86 1_555 1_555
C110 C109 1_555 1_555
H87 C110 1_555 1_555
C111 C110 1_555 1_555
C112 C111 1_555 1_555
H88 C112 1_555 1_555
C113 N24 1_555 1_555
H89 C113 1_555 1_555
C114 C111 1_555 1_555
H90 C114 1_555 1_555
Co1_2 N4 1_555 1_555
Co1_3 N2 1_555 1_555
N2_2 Co1 1_555 1_555
N4_2 Co1 1_555 1_555
Co2_2 N10 1_555 1_555
Co2_3 N8 1_555 1_555
N8_2 Co2 1_555 1_555
N10_2 Co2 1_555 1_555
Co3_2 N16 1_555 1_555
Co3_3 N14 1_555 1_555
N14_2 Co3 1_555 1_555
N16_2 Co3 1_555 1_555
N23A C103A 1_555 1_555
C103A H81A 1_555 1_555
C104A C103A 1_555 1_555
H82A C104A 1_555 1_555
C105A C104A 1_555 1_555
C106A C105A 1_555 1_555
H83A C106A 1_555 1_555
C107A N23A 1_555 1_555
H84A C107A 1_555 1_555
C108A C108 1_555 1_555
H85A C108A 1_555 1_555
N24A C109A 1_555 1_555
C109A H86A 1_555 1_555
C110A C109A 1_555 1_555
H87A C110A 1_555 1_555
C111A C110A 1_555 1_555
C112A C111A 1_555 1_555
H88A C112A 1_555 1_555
C113A N24A 1_555 1_555
H89A C113A 1_555 1_555
C114A C114 1_555 1_555
H90A C114A 1_555 1_555
C4 C5 1_555 1_555
C11 C12 1_555 1_555
C11 N2 1_555 1_555
C16 C17 1_555 1_555
C23 C24 1_555 1_555
C23 N4 1_555 1_555
C30 C31 1_555 1_555
C37 C38 1_555 1_555
C37 N8 1_555 1_555
C42 C43 1_555 1_555
C49 C50 1_555 1_555
C49 N10 1_555 1_555
C56 C57 1_555 1_555
C63 C64 1_555 1_555
C63 N14 1_555 1_555
C68 C69 1_555 1_555
C75 C76 1_555 1_555
C75 N16 1_555 1_555
C82 C83 1_555 1_555
C89 C90 1_555 1_555
C89 N20 1_555 1_555
C94 C95 1_555 1_555
C101 C102 1_555 1_555
C101 N22 1_555 1_555
C106 C107 1_555 1_555
C112 C113 1_555 1_555
C105A C108A 1_555 1_555
C106A C107A 1_555 1_555
C111A C114A 1_555 1_555
C112A C113A 1_555 1_555

#END
