
#######################################################################
#
#                 Cambridge Crystallographic Data Centre
#                                CCDC 
#
#######################################################################
#
# If this CIF has been generated from an entry in the Cambridge 
# Structural Database, then it will include bibliographic, chemical, 
# crystal, experimental, refinement or atomic coordinate data resulting 
# from the CCDC's data processing and validation procedures.
#
#######################################################################

data_UWAZOI05
_symmetry_cell_setting           trigonal
_symmetry_space_group_name_H-M   'P -3'
_symmetry_Int_Tables_number      147
_space_group_name_Hall           '-P 3'
loop_
_symmetry_equiv_pos_site_id
_symmetry_equiv_pos_as_xyz
1 x,y,z
2 -y,x-y,z
3 -x+y,-x,z
4 -x,-y,-z
5 y,-x+y,-z
6 x-y,x,-z
_cell_length_a                   11.5943(4)
_cell_length_b                   11.5943(4)
_cell_length_c                   7.5217(4)
_cell_angle_alpha                90
_cell_angle_beta                 90
_cell_angle_gamma                120
_cell_volume                     875.66
loop_
_atom_site_label
_atom_site_type_symbol
_atom_site_fract_x
_atom_site_fract_y
_atom_site_fract_z
Fe1 Fe 0.0000 0.0000 0.0000
N1 N 0.19017(9) 0.28478(9) 0.12027(14)
N2 N 0.14687(9) 0.16009(9) 0.16830(14)
N3 N 0.30022(9) 0.35994(9) 0.21458(13)
C1 C 0.32974(11) 0.28539(11) 0.32325(16)
C2 C 0.23058(11) 0.15705(11) 0.29228(16)
C3 C 0.51072(11) 0.53745(11) 0.08741(16)
C4 C 0.37955(11) 0.50344(11) 0.17730(17)
H1 H 0.4061(15) 0.3229(15) 0.396(2)
H2 H 0.3230(14) 0.5232(14) 0.099(2)
H3 H 0.3926(15) 0.5494(15) 0.288(2)
H4 H 0.2186(15) 0.0770(16) 0.343(2)
H5 H 0.5651(15) 0.5195(15) 0.170(2)
H6 H 0.5598(15) 0.6346(15) 0.067(2)
N1C N 0.80983(9) 0.71522(9) -0.12027(14)
N2C N 0.85313(9) 0.83991(9) -0.16830(14)
N3C N 0.69978(9) 0.64006(9) -0.21458(13)
C1C C 0.67026(11) 0.71461(11) -0.32325(16)
C2C C 0.76942(11) 0.84295(11) -0.29228(16)
C3C C 0.48928(11) 0.46255(11) -0.08741(16)
C4C C 0.62045(11) 0.49656(11) -0.17730(17)
H1C H 0.5939(15) 0.6771(15) -0.396(2)
H2C H 0.6770(14) 0.4768(14) -0.099(2)
H3C H 0.6074(15) 0.4506(15) -0.288(2)
H4C H 0.7814(15) 0.9230(16) -0.343(2)
H5C H 0.4349(15) 0.4805(15) -0.170(2)
H6C H 0.4402(15) 0.3654(15) -0.067(2)
N1A N -0.28478(9) -0.09461(13) 0.12027(14)
N2A N -0.16009(9) -0.01322(13) 0.16830(14)
N3A N -0.35994(9) -0.05972(13) 0.21458(13)
C1A C -0.28539(11) 0.04435(16) 0.32325(16)
C2A C -0.15705(11) 0.07353(16) 0.29228(16)
C3A C -0.53745(11) -0.02673(16) 0.08741(16)
C4A C -0.50344(11) -0.12389(16) 0.17730(17)
H1A H -0.3229(15) 0.0832(21) 0.396(2)
H2A H -0.5232(14) -0.2002(20) 0.099(2)
H3A H -0.5494(15) -0.1568(21) 0.288(2)
H4A H -0.0770(16) 0.1416(22) 0.343(2)
H5A H -0.5195(15) 0.0456(21) 0.170(2)
H6A H -0.6346(15) -0.0748(21) 0.067(2)
N1D N -0.71522(9) 0.09461(13) -0.12027(14)
N2D N -0.83991(9) 0.01322(13) -0.16830(14)
N3D N -0.64006(9) 0.05972(13) -0.21458(13)
C1D C -0.71461(11) -0.04435(16) -0.32325(16)
C2D C -0.84295(11) -0.07353(16) -0.29228(16)
C3D C -0.46255(11) 0.02673(16) -0.08741(16)
C4D C -0.49656(11) 0.12389(16) -0.17730(17)
H1D H -0.6771(15) -0.0832(21) -0.396(2)
H2D H -0.4768(14) 0.2002(20) -0.099(2)
H3D H -0.4506(15) 0.1568(21) -0.288(2)
H4D H -0.9230(16) -0.1416(22) -0.343(2)
H5D H -0.4805(15) -0.0456(21) -0.170(2)
H6D H -0.3654(15) 0.0748(21) -0.067(2)
N1B N 0.09461(13) -0.19017(9) 0.12027(14)
N2B N 0.01322(13) -0.14687(9) 0.16830(14)
N3B N 0.05972(13) -0.30022(9) 0.21458(13)
C1B C -0.04435(16) -0.32974(11) 0.32325(16)
C2B C -0.07353(16) -0.23058(11) 0.29228(16)
C3B C 0.02673(16) -0.51072(11) 0.08741(16)
C4B C 0.12389(16) -0.37955(11) 0.17730(17)
H1B H -0.0832(21) -0.4061(15) 0.396(2)
H2B H 0.2002(20) -0.3230(14) 0.099(2)
H3B H 0.1568(21) -0.3926(15) 0.288(2)
H4B H -0.1416(22) -0.2186(15) 0.343(2)
H5B H -0.0456(21) -0.5651(15) 0.170(2)
H6B H 0.0748(21) -0.5598(15) 0.067(2)
N1E N -0.09461(13) -0.80983(9) -0.12027(14)
N2E N -0.01322(13) -0.85313(9) -0.16830(14)
N3E N -0.05972(13) -0.69978(9) -0.21458(13)
C1E C 0.04435(16) -0.67026(11) -0.32325(16)
C2E C 0.07353(16) -0.76942(11) -0.29228(16)
C3E C -0.02673(16) -0.48928(11) -0.08741(16)
C4E C -0.12389(16) -0.62045(11) -0.17730(17)
H1E H 0.0832(21) -0.5939(15) -0.396(2)
H2E H -0.2002(20) -0.6770(14) -0.099(2)
H3E H -0.1568(21) -0.6074(15) -0.288(2)
H4E H 0.1416(22) -0.7814(15) -0.343(2)
H5E H 0.0456(21) -0.4349(15) -0.170(2)
H6E H -0.0748(21) -0.4402(15) -0.067(2)
Fe1_2 Fe -1.0000 0.0000 0.0000
Fe1_3 Fe 0.0000 -1.0000 0.0000
Fe1_4 Fe 1.0000 1.0000 0.0000
N2C_2 N -0.14687(9) -0.16009(9) -0.16830(14)
N2D_2 N 0.16009(9) 0.01322(13) -0.16830(14)
N2E_2 N -0.01322(13) 0.14687(9) -0.16830(14)
F1 F 0.65376(7) 0.43992(7) 0.41103(10)
F2 F 0.6667 0.3333 0.16218(16)
B1 B 0.6667 0.3333 0.3480(3)
F1A F 0.56008(7) 0.21384(10) 0.41103(10)
F1B F 0.78616(10) 0.34624(7) 0.41103(10)
loop_
_geom_bond_atom_site_label_1
_geom_bond_atom_site_label_2
_geom_bond_site_symmetry_1
_geom_bond_site_symmetry_2
Fe1 N2 1_555 1_555
N1 N2 1_555 1_555
N2 C2 1_555 1_555
N3 N1 1_555 1_555
C1 N3 1_555 1_555
C2 C1 1_555 1_555
C3 C4 1_555 1_555
C4 N3 1_555 1_555
H1 C1 1_555 1_555
H2 C4 1_555 1_555
H3 C4 1_555 1_555
H4 C2 1_555 1_555
H5 C3 1_555 1_555
H6 C3 1_555 1_555
F1 B1 1_555 1_555
F2 B1 1_555 1_555
B1 F1A 1_555 1_555
N1C N2C 1_555 1_555
N2C C2C 1_555 1_555
N3C N1C 1_555 1_555
C1C N3C 1_555 1_555
C2C C1C 1_555 1_555
C3C C3 1_555 1_555
C4C N3C 1_555 1_555
H1C C1C 1_555 1_555
H2C C4C 1_555 1_555
H3C C4C 1_555 1_555
H4C C2C 1_555 1_555
H5C C3C 1_555 1_555
H6C C3C 1_555 1_555
N1A N2A 1_555 1_555
N2A Fe1 1_555 1_555
N3A N1A 1_555 1_555
C1A N3A 1_555 1_555
C2A N2A 1_555 1_555
C3A C4A 1_555 1_555
C4A N3A 1_555 1_555
H1A C1A 1_555 1_555
H2A C4A 1_555 1_555
H3A C4A 1_555 1_555
H4A C2A 1_555 1_555
H5A C3A 1_555 1_555
H6A C3A 1_555 1_555
N1D N2D 1_555 1_555
N2D C2D 1_555 1_555
N3D N1D 1_555 1_555
C1D N3D 1_555 1_555
C2D C1D 1_555 1_555
C3D C3A 1_555 1_555
C4D N3D 1_555 1_555
H1D C1D 1_555 1_555
H2D C4D 1_555 1_555
H3D C4D 1_555 1_555
H4D C2D 1_555 1_555
H5D C3D 1_555 1_555
H6D C3D 1_555 1_555
N1B N2B 1_555 1_555
N2B Fe1 1_555 1_555
N3B N1B 1_555 1_555
C1B N3B 1_555 1_555
C2B N2B 1_555 1_555
C3B C4B 1_555 1_555
C4B N3B 1_555 1_555
H1B C1B 1_555 1_555
H2B C4B 1_555 1_555
H3B C4B 1_555 1_555
H4B C2B 1_555 1_555
H5B C3B 1_555 1_555
H6B C3B 1_555 1_555
N1E N2E 1_555 1_555
N2E C2E 1_555 1_555
N3E N1E 1_555 1_555
C1E N3E 1_555 1_555
C2E C1E 1_555 1_555
C3E C3B 1_555 1_555
C4E N3E 1_555 1_555
H1E C1E 1_555 1_555
H2E C4E 1_555 1_555
H3E C4E 1_555 1_555
H4E C2E 1_555 1_555
H5E C3E 1_555 1_555
H6E C3E 1_555 1_555
Fe1_2 N2D 1_555 1_555
Fe1_3 N2E 1_555 1_555
Fe1_4 N2C 1_555 1_555
N2C_2 Fe1 1_555 1_555
N2D_2 Fe1 1_555 1_555
N2E_2 Fe1 1_555 1_555
F1B B1 1_555 1_555
C3C C4C 1_555 1_555
C1A C2A 1_555 1_555
C3D C4D 1_555 1_555
C1B C2B 1_555 1_555
C3E C4E 1_555 1_555

#END
