
#######################################################################
#
#                 Cambridge Crystallographic Data Centre
#                                CCDC 
#
#######################################################################
#
# If this CIF has been generated from an entry in the Cambridge 
# Structural Database, then it will include bibliographic, chemical, 
# crystal, experimental, refinement or atomic coordinate data resulting 
# from the CCDC's data processing and validation procedures.
#
#######################################################################

data_UWAZOI04
_symmetry_cell_setting           triclinic
_symmetry_space_group_name_H-M   'P -1'
_symmetry_Int_Tables_number      2
_space_group_name_Hall           '-P 1'
loop_
_symmetry_equiv_pos_site_id
_symmetry_equiv_pos_as_xyz
1 x,y,z
2 -x,-y,-z
_cell_length_a                   11.3097(18)
_cell_length_b                   11.349(2)
_cell_length_c                   15.2707(18)
_cell_angle_alpha                89.892(12)
_cell_angle_beta                 91.565(11)
_cell_angle_gamma                119.847(18)
_cell_volume                     1699.28
loop_
_atom_site_label
_atom_site_type_symbol
_atom_site_fract_x
_atom_site_fract_y
_atom_site_fract_z
Fe1 Fe 0.02204(10) 0.02174(10) 0.25016(5)
N1 N 0.8782(5) 0.8726(5) 0.1746(3)
N2 N 0.8324(5) 0.7456(6) 0.1960(3)
N3 N 0.7239(6) 0.6735(6) 0.1441(3)
N4 N 0.8752(5) 0.0130(5) 0.3254(3)
N5 N 0.7453(5) -0.0694(5) 0.3057(3)
N6 N 0.6723(6) -0.0385(6) 0.3573(3)
N7 N 0.0106(5) 0.1640(5) 0.1746(3)
N8 N -0.0688(6) 0.2118(6) 0.1960(3)
N9 N -0.0397(6) 0.3188(5) 0.1438(3)
N10 N 0.1638(5) 0.1690(5) 0.3252(3)
N11 N 0.2132(6) 0.2992(6) 0.3032(3)
N12 N 0.3195(6) 0.3706(5) 0.3554(3)
N13 N 0.1703(6) 0.0339(6) 0.1751(3)
N14 N 0.2991(6) 0.1128(6) 0.1985(3)
N15 N 0.3733(5) 0.0827(5) 0.1467(3)
N16 N 0.0332(5) 0.8789(5) 0.3239(3)
N17 N 0.1145(5) 0.8335(5) 0.3020(3)
N18 N 0.0836(5) 0.7260(5) 0.3528(3)
C1 C 0.7981(7) 0.8822(7) 0.1100(4)
H1 H 0.8094 0.9615 0.0844
C2 C 0.6988(7) 0.7534(7) 0.0904(4)
H2 H 0.6282 0.7259 0.0487
C3 C 0.8823(7) 0.0954(7) 0.3899(4)
H3 H 0.9623 0.1630 0.4167
C4 C 0.7549(7) 0.0654(6) 0.4102(4)
H4 H 0.7300 0.1079 0.4520
C5 C 0.0922(6) 0.2430(6) 0.1079(4)
H5 H 0.1587 0.2314 0.0812
C6 C 0.0592(7) 0.3415(7) 0.0875(4)
H6 H 0.0962 0.4080 0.0449
C7 C 0.2431(7) 0.1629(6) 0.3921(4)
H7 H 0.2305 0.0842 0.4192
C8 C 0.3423(7) 0.2899(7) 0.4120(4)
H8 H 0.4113 0.3170 0.4548
C9 C 0.1642(7) -0.0481(6) 0.1100(3)
H9 H 0.0847 -0.1152 0.0824
C10 C 0.2940(7) -0.0173(7) 0.0908(4)
H10 H 0.3207 -0.0573 0.0483
C11 C -0.0495(7) 0.7975(7) 0.3893(3)
H11 H -0.1167 0.8078 0.4161
C12 C -0.0162(6) 0.6991(6) 0.4083(4)
H12 H -0.0537 0.6306 0.4495
C13 C 0.6398(7) 0.5251(7) 0.1589(4)
H13 H 0.6929 0.4953 0.1938
H14 H 0.6176 0.4775 0.1029
C14 C 0.1502(6) 0.6435(6) 0.3364(4)
H15 H 0.1819 0.6251 0.3916
H16 H 0.2286 0.6942 0.3002
C15 C 0.0507(7) 0.5105(7) 0.2908(4)
H17 H -0.0256 0.4582 0.3283
H18 H 0.0956 0.4581 0.2808
C16 C -0.0997(7) 0.4022(7) 0.1588(4)
H19 H -0.1788 0.3531 0.1947
H20 H -0.1305 0.4203 0.1031
C17 C -0.0022(7) 0.5345(7) 0.2033(4)
H21 H -0.0479 0.5862 0.2132
H22 H 0.0739 0.5871 0.1658
C18 C 0.4010(7) 0.5175(6) 0.3405(4)
H23 H 0.4216 0.5656 0.3962
H24 H 0.3481 0.5460 0.3044
C19 C 0.5362(6) 0.5558(7) 0.2949(4)
H25 H 0.5886 0.6535 0.2883
H26 H 0.5898 0.5283 0.3312
C20 C 0.5087(7) 0.4872(7) 0.2052(4)
H27 H 0.4572 0.3894 0.2120
H28 H 0.4537 0.5136 0.1694
C21 C 0.5216(6) 0.1478(7) 0.1638(4)
H29 H 0.5516 0.2275 0.2010
H30 H 0.5686 0.1770 0.1090
C22 C 0.5574(7) 0.0479(6) 0.2090(4)
H31 H 0.6555 0.0919 0.2184
H32 H 0.5299 -0.0300 0.1705
C23 C 0.4883(6) -0.0017(7) 0.2973(4)
H33 H 0.5146 0.0762 0.3355
H34 H 0.3901 -0.0470 0.2878
C24 C 0.5257(7) -0.0996(7) 0.3429(4)
H35 H 0.4815 -0.1254 0.3988
H36 H 0.4924 -0.1812 0.3073
Fe1_2 Fe 0.02204(10) 1.02174(10) 0.25016(5)
Fe1_3 Fe 1.02204(10) 0.02174(10) 0.25016(5)
Fe1_4 Fe 1.02204(10) 1.02174(10) 0.25016(5)
N1_2 N -0.1218(5) -0.1274(5) 0.1746(3)
N4_2 N -0.1248(5) 0.0130(5) 0.3254(3)
N16_2 N 0.0332(5) -0.1211(5) 0.3239(3)
B1 B 0.3495(9) -0.3057(8) 0.0714(4)
F1 F 0.4574(4) -0.1780(4) 0.0448(2)
F2 F 0.2276(4) -0.3232(4) 0.0377(2)
F3 F 0.3716(4) -0.4078(4) 0.0374(2)
F4 F 0.3477(4) -0.3143(4) 0.1621(2)
B2 B 0.6961(8) 0.3558(8) 0.4293(4)
F5 F 0.5950(4) 0.2303(4) 0.4632(2)
F6 F 0.8236(4) 0.3734(4) 0.4556(2)
F7 F 0.6795(4) 0.4590(4) 0.4622(2)
F8 F 0.6856(4) 0.3541(4) 0.3383(2)
loop_
_geom_bond_atom_site_label_1
_geom_bond_atom_site_label_2
_geom_bond_site_symmetry_1
_geom_bond_site_symmetry_2
Fe1 N7 1_555 1_555
N1 N2 1_555 1_555
N2 N3 1_555 1_555
N3 C2 1_555 1_555
N4 N5 1_555 1_555
N5 N6 1_555 1_555
N6 C4 1_555 1_555
N7 N8 1_555 1_555
N8 N9 1_555 1_555
N9 C6 1_555 1_555
N10 Fe1 1_555 1_555
N11 N10 1_555 1_555
N12 N11 1_555 1_555
N13 Fe1 1_555 1_555
N14 N13 1_555 1_555
N15 N14 1_555 1_555
N16 N17 1_555 1_555
N17 N18 1_555 1_555
N18 C12 1_555 1_555
C1 N1 1_555 1_555
H1 C1 1_555 1_555
C2 C1 1_555 1_555
H2 C2 1_555 1_555
C3 N4 1_555 1_555
H3 C3 1_555 1_555
C4 C3 1_555 1_555
H4 C4 1_555 1_555
C5 N7 1_555 1_555
H5 C5 1_555 1_555
C6 C5 1_555 1_555
H6 C6 1_555 1_555
C7 N10 1_555 1_555
H7 C7 1_555 1_555
C8 N12 1_555 1_555
H8 C8 1_555 1_555
C9 N13 1_555 1_555
H9 C9 1_555 1_555
C10 N15 1_555 1_555
H10 C10 1_555 1_555
C11 N16 1_555 1_555
H11 C11 1_555 1_555
C12 C11 1_555 1_555
H12 C12 1_555 1_555
C13 N3 1_555 1_555
H13 C13 1_555 1_555
H14 C13 1_555 1_555
C14 N18 1_555 1_555
H15 C14 1_555 1_555
H16 C14 1_555 1_555
C15 C14 1_555 1_555
H17 C15 1_555 1_555
H18 C15 1_555 1_555
C16 N9 1_555 1_555
H19 C16 1_555 1_555
H20 C16 1_555 1_555
C17 C15 1_555 1_555
H21 C17 1_555 1_555
H22 C17 1_555 1_555
C18 N12 1_555 1_555
H23 C18 1_555 1_555
H24 C18 1_555 1_555
C19 C18 1_555 1_555
H25 C19 1_555 1_555
H26 C19 1_555 1_555
C20 C13 1_555 1_555
H27 C20 1_555 1_555
H28 C20 1_555 1_555
C21 N15 1_555 1_555
H29 C21 1_555 1_555
H30 C21 1_555 1_555
C22 C21 1_555 1_555
H31 C22 1_555 1_555
H32 C22 1_555 1_555
C23 C22 1_555 1_555
H33 C23 1_555 1_555
H34 C23 1_555 1_555
C24 N6 1_555 1_555
H35 C24 1_555 1_555
H36 C24 1_555 1_555
B1 F1 1_555 1_555
F2 B1 1_555 1_555
F3 B1 1_555 1_555
F4 B1 1_555 1_555
B2 F5 1_555 1_555
F6 B2 1_555 1_555
F7 B2 1_555 1_555
F8 B2 1_555 1_555
Fe1_2 N16 1_555 1_555
Fe1_3 N4 1_555 1_555
Fe1_4 N1 1_555 1_555
N1_2 Fe1 1_555 1_555
N4_2 Fe1 1_555 1_555
N16_2 Fe1 1_555 1_555
C7 C8 1_555 1_555
C9 C10 1_555 1_555
C16 C17 1_555 1_555
C19 C20 1_555 1_555
C23 C24 1_555 1_555

#END
