
#######################################################################
#
#                 Cambridge Crystallographic Data Centre
#                                CCDC 
#
#######################################################################
#
# If this CIF has been generated from an entry in the Cambridge 
# Structural Database, then it will include bibliographic, chemical, 
# crystal, experimental, refinement or atomic coordinate data resulting 
# from the CCDC's data processing and validation procedures.
#
#######################################################################

data_UWEBAA
_symmetry_cell_setting           trigonal
_symmetry_space_group_name_H-M   'P -3'
_symmetry_Int_Tables_number      147
_space_group_name_Hall           '-P 3'
loop_
_symmetry_equiv_pos_site_id
_symmetry_equiv_pos_as_xyz
1 x,y,z
2 -y,x-y,z
3 -x+y,-x,z
4 -x,-y,-z
5 y,-x+y,-z
6 x-y,x,-z
_cell_length_a                   11.6079(6)
_cell_length_b                   11.6079(6)
_cell_length_c                   7.5584(5)
_cell_angle_alpha                90
_cell_angle_beta                 90
_cell_angle_gamma                120
_cell_volume                     881.998
loop_
_atom_site_label
_atom_site_type_symbol
_atom_site_fract_x
_atom_site_fract_y
_atom_site_fract_z
Zn1 Zn 0.0000 0.0000 0.0000
N1 N -0.29888(5) 0.06001(6) -0.21221(8)
N2 N -0.19006(5) 0.09412(6) -0.11638(9)
N3 N -0.14575(5) 0.01374(6) -0.16476(9)
C1 C -0.37887(7) 0.12345(7) -0.17583(11)
H1 H -0.3968 0.1555 -0.2881
H2 H -0.3281 0.2013 -0.0977
C2 C -0.51003(7) 0.02661(7) -0.08778(11)
H3 H -0.5618 0.0720 -0.0663
H4 H -0.5623 -0.0490 -0.1687
C3 C -0.22769(7) -0.07113(7) -0.28992(11)
H5 H -0.2182 -0.1391 -0.3462
C4 C -0.32626(7) -0.04235(8) -0.32141(11)
H6 H -0.3982 -0.0850 -0.4023
Zn1_2 Zn -1.0000 0.0000 0.0000
Zn1_3 Zn 1.0000 0.0000 0.0000
Zn1_4 Zn 0.0000 1.0000 0.0000
N1C N -0.70112(5) -0.06001(6) 0.21221(8)
N1C_2 N 0.29888(5) -0.06001(6) 0.21221(8)
N1_2 N 0.70112(5) 0.06001(6) -0.21221(8)
N1D N 0.06001(6) 0.35889(8) 0.21221(8)
N1A N -0.06001(6) 0.64111(8) -0.21221(8)
N2C N -0.80994(5) -0.09412(6) 0.11638(9)
N2C_2 N 0.19006(5) -0.09412(6) 0.11638(9)
N2_2 N 0.80994(5) 0.09412(6) -0.11638(9)
N2D N 0.09412(6) 0.28418(8) 0.11638(9)
N2A N -0.09412(6) 0.71582(8) -0.11638(9)
N3C N -0.85425(5) -0.01374(6) 0.16476(9)
N3C_2 N 0.14575(5) -0.01374(6) 0.16476(9)
N3_2 N 0.85425(5) 0.01374(6) -0.16476(9)
N3D N 0.01374(6) 0.15949(8) 0.16476(9)
N3A N -0.01374(6) 0.84051(8) -0.16476(9)
N3E N -0.15949(8) -0.14575(5) 0.16476(9)
N3A_2 N -0.01374(6) -0.15949(8) -0.16476(9)
N3B N 0.15949(8) 0.14575(5) -0.16476(9)
C1C C -0.62113(7) -0.12345(7) 0.17583(11)
C1C_2 C 0.37887(7) -0.12345(7) 0.17583(11)
C1_2 C 0.62113(7) 0.12345(7) -0.17583(11)
C1D C 0.12345(7) 0.50232(10) 0.17583(11)
C1A C -0.12345(7) 0.49768(10) -0.17583(11)
H1C H -0.6032 -0.1555 0.2881
H1C_2 H 0.3968 -0.1555 0.2881
H1_2 H 0.6032 0.1555 -0.2881
H1D H 0.1555 0.5523 0.2881
H1A H -0.1555 0.4477 -0.2881
H2C H -0.6719 -0.2013 0.0977
H2C_2 H 0.3281 -0.2013 0.0977
H2_2 H 0.6719 0.2013 -0.0977
H2D H 0.2013 0.5294 0.0977
H2A H -0.2013 0.4706 -0.0977
C2C C -0.48997(7) -0.02661(7) 0.08778(11)
C2C_2 C 0.51003(7) -0.02661(7) 0.08778(11)
C2_2 C 0.48997(7) 0.02661(7) -0.08778(11)
C2D C 0.02661(7) 0.53664(10) 0.08778(11)
C2A C -0.02661(7) 0.46336(10) -0.08778(11)
H3C H -0.4382 -0.0720 0.0663
H3C_2 H 0.5618 -0.0720 0.0663
H3_2 H 0.4382 0.0720 -0.0663
H3D H 0.0720 0.6338 0.0663
H3A H -0.0720 0.3662 -0.0663
H4C H -0.4377 0.0490 0.1687
H4C_2 H 0.5623 0.0490 0.1687
H4_2 H 0.4377 -0.0490 -0.1687
H4D H -0.0490 0.5133 0.1687
H4A H 0.0490 0.4867 -0.1687
C3C C -0.77231(7) 0.07113(7) 0.28992(11)
C3C_2 C 0.22769(7) 0.07113(7) 0.28992(11)
C3_2 C 0.77231(7) -0.07113(7) -0.28992(11)
C3D C -0.07113(7) 0.15656(10) 0.28992(11)
C3A C 0.07113(7) 0.84344(10) -0.28992(11)
H5C H -0.7818 0.1391 0.3462
H5C_2 H 0.2182 0.1391 0.3462
H5_2 H 0.7818 -0.1391 -0.3462
H5D H -0.1391 0.0791 0.3462
H5A H 0.1391 0.9209 -0.3462
C4C C -0.67374(7) 0.04235(8) 0.32141(11)
C4C_2 C 0.32626(7) 0.04235(8) 0.32141(11)
C4_2 C 0.67374(7) -0.04235(8) -0.32141(11)
C4D C -0.04235(8) 0.28391(11) 0.32141(11)
C4A C 0.04235(8) 0.71609(11) -0.32141(11)
H6C H -0.6018 0.0850 0.4023
H6C_2 H 0.3982 0.0850 0.4023
H6_2 H 0.6018 -0.0850 -0.4023
H6D H -0.0850 0.3132 0.4023
H6A H 0.0850 0.6868 -0.4023
B1 B 0.3333 -0.3333 -0.3507(2)
F1 F 0.3333 -0.3333 -0.16730(11)
F2 F 0.21394(5) -0.43913(5) -0.41347(7)
F2A F 0.43913(5) -0.34693(7) -0.41347(7)
F2B F 0.34693(7) -0.21394(5) -0.41347(7)
loop_
_geom_bond_atom_site_label_1
_geom_bond_atom_site_label_2
_geom_bond_site_symmetry_1
_geom_bond_site_symmetry_2
Zn1 N3 1_555 1_555
N1 N2 1_555 1_555
N2 N3 1_555 1_555
N3 C3 1_555 1_555
C1 N1 1_555 1_555
H1 C1 1_555 1_555
H2 C1 1_555 1_555
C2 C1 1_555 1_555
H3 C2 1_555 1_555
H4 C2 1_555 1_555
C3 H5 1_555 1_555
C4 N1 1_555 1_555
H6 C4 1_555 1_555
B1 F1 1_555 1_555
F2 B1 1_555 1_555
Zn1_2 N3C 1_555 1_555
Zn1_3 N3_2 1_555 1_555
Zn1_4 N3A 1_555 1_555
N1C N2C 1_555 1_555
N1C_2 N2C_2 1_555 1_555
N1_2 N2_2 1_555 1_555
N1D N2D 1_555 1_555
N1A N2A 1_555 1_555
N2C N3C 1_555 1_555
N2C_2 N3C_2 1_555 1_555
N2_2 N3_2 1_555 1_555
N2D N3D 1_555 1_555
N2A N3A 1_555 1_555
N3C C3C 1_555 1_555
N3C_2 Zn1 1_555 1_555
N3_2 C3_2 1_555 1_555
N3D Zn1 1_555 1_555
N3A C3A 1_555 1_555
N3E Zn1 1_555 1_555
N3A_2 Zn1 1_555 1_555
N3B Zn1 1_555 1_555
C1C N1C 1_555 1_555
C1C_2 N1C_2 1_555 1_555
C1_2 N1_2 1_555 1_555
C1D N1D 1_555 1_555
C1A N1A 1_555 1_555
H1C C1C 1_555 1_555
H1C_2 C1C_2 1_555 1_555
H1_2 C1_2 1_555 1_555
H1D C1D 1_555 1_555
H1A C1A 1_555 1_555
H2C C1C 1_555 1_555
H2C_2 C1C_2 1_555 1_555
H2_2 C1_2 1_555 1_555
H2D C1D 1_555 1_555
H2A C1A 1_555 1_555
C2C C2 1_555 1_555
C2C_2 C1C_2 1_555 1_555
C2_2 C1_2 1_555 1_555
C2D C1D 1_555 1_555
C2A C1A 1_555 1_555
H3C C2C 1_555 1_555
H3C_2 C2C_2 1_555 1_555
H3_2 C2_2 1_555 1_555
H3D C2D 1_555 1_555
H3A C2A 1_555 1_555
H4C C2C 1_555 1_555
H4C_2 C2C_2 1_555 1_555
H4_2 C2_2 1_555 1_555
H4D C2D 1_555 1_555
H4A C2A 1_555 1_555
C3C H5C 1_555 1_555
C3C_2 N3C_2 1_555 1_555
C3_2 H5_2 1_555 1_555
C3D N3D 1_555 1_555
C3A H5A 1_555 1_555
H5C_2 C3C_2 1_555 1_555
H5D C3D 1_555 1_555
C4C N1C 1_555 1_555
C4C_2 N1C_2 1_555 1_555
C4_2 N1_2 1_555 1_555
C4D N1D 1_555 1_555
C4A N1A 1_555 1_555
H6C C4C 1_555 1_555
H6C_2 C4C_2 1_555 1_555
H6_2 C4_2 1_555 1_555
H6D C4D 1_555 1_555
H6A C4A 1_555 1_555
F2A B1 1_555 1_555
F2B B1 1_555 1_555
C3 C4 1_555 1_555
C1C C2C 1_555 1_555
C2C_2 C2_2 1_555 1_555
C2D C2A 1_555 1_555
C3C C4C 1_555 1_555
C3C_2 C4C_2 1_555 1_555
C3_2 C4_2 1_555 1_555
C3D C4D 1_555 1_555
C3A C4A 1_555 1_555

#END
