
#######################################################################
#
#                 Cambridge Crystallographic Data Centre
#                                CCDC 
#
#######################################################################
#
# If this CIF has been generated from an entry in the Cambridge 
# Structural Database, then it will include bibliographic, chemical, 
# crystal, experimental, refinement or atomic coordinate data resulting 
# from the CCDC's data processing and validation procedures.
#
#######################################################################

data_UWEBII
_symmetry_cell_setting           triclinic
_symmetry_space_group_name_H-M   'P -1'
_symmetry_Int_Tables_number      2
_space_group_name_Hall           '-P 1'
loop_
_symmetry_equiv_pos_site_id
_symmetry_equiv_pos_as_xyz
1 x,y,z
2 -x,-y,-z
_cell_length_a                   11.6116(9)
_cell_length_b                   11.6304(10)
_cell_length_c                   7.7042(11)
_cell_angle_alpha                92.841(10)
_cell_angle_beta                 85.734(10)
_cell_angle_gamma                120.100(9)
_cell_volume                     897.548
loop_
_atom_site_label
_atom_site_type_symbol
_atom_site_fract_x
_atom_site_fract_y
_atom_site_fract_z
Zn1 Zn 0.0000 0.0000 0.0000
N1 N -0.29508(13) 0.05332(13) -0.20885(19)
N2 N -0.18868(13) 0.09069(13) -0.11228(19)
N3 N -0.14149(13) 0.01063(13) -0.16163(19)
C1 C -0.37695(16) 0.11622(17) -0.1737(2)
H1 H -0.3909 0.1458 -0.2846
H2 H -0.3294 0.1956 -0.0980
C2 C -0.50915(16) 0.02218(17) -0.0868(2)
H3 H -0.5577 -0.0564 -0.1633
H4 H -0.5631 0.0663 -0.0674
C3 C -0.22041(16) -0.07779(17) -0.2886(2)
H5 H -0.2076 -0.1455 -0.3447
C4 C -0.31823(17) -0.05167(17) -0.3191(2)
H6 H -0.3869 -0.0957 -0.3983
N4 N 0.36473(13) 0.28603(13) -0.20220(18)
N5 N 0.28596(13) 0.18311(13) -0.10711(19)
N6 N 0.16313(13) 0.13739(13) -0.15905(19)
C5 C 0.50706(15) 0.36669(16) -0.1610(2)
H7 H 0.5640 0.3792 -0.2687
H8 H 0.5273 0.3182 -0.0774
C6 C 0.54020(16) 0.50361(16) -0.0827(2)
H9 H 0.6360 0.5540 -0.0592
H10 H 0.5246 0.5535 -0.1697
C7 C 0.16556(16) 0.21371(16) -0.2853(2)
H11 H 0.0913 0.2026 -0.3435
C8 C 0.29359(16) 0.30928(17) -0.3138(2)
H12 H 0.3274 0.3790 -0.3955
N7 N -0.06011(13) -0.36864(13) -0.20888(19)
N8 N -0.09203(13) -0.28924(13) -0.11115(19)
N9 N -0.01409(13) -0.16729(13) -0.16327(19)
C9 C -0.12293(16) -0.50989(15) -0.1716(2)
H13 H -0.1513 -0.5622 -0.2812
H14 H -0.2033 -0.5365 -0.0928
C10 C -0.02598(16) -0.54023(15) -0.0864(2)
H15 H 0.0511 -0.5194 -0.1693
H16 H -0.0714 -0.6364 -0.0616
C11 C 0.06768(16) -0.17060(16) -0.2920(2)
H17 H 0.1356 -0.0953 -0.3531
C12 C 0.03878(16) -0.29929(16) -0.3227(2)
H18 H 0.0806 -0.3310 -0.4069
Zn1_2 Zn -1.0000 0.0000 0.0000
Zn1_3 Zn 0.0000 -1.0000 0.0000
Zn1_4 Zn 1.0000 1.0000 0.0000
N1A N -0.70492(13) -0.05332(13) 0.20885(19)
N2A N -0.81132(13) -0.09069(13) 0.11228(19)
N3A N -0.85851(13) -0.01063(13) 0.16163(19)
N3A_2 N 0.14149(13) -0.01063(13) 0.16163(19)
C1A C -0.62305(16) -0.11622(17) 0.1737(2)
H1A H -0.6091 -0.1458 0.2846
H2A H -0.6706 -0.1956 0.0980
C2A C -0.49085(16) -0.02218(17) 0.0868(2)
H3A H -0.4423 0.0564 0.1633
H4A H -0.4369 -0.0663 0.0674
C3A C -0.77959(16) 0.07779(17) 0.2886(2)
H5A H -0.7924 0.1455 0.3447
C4A C -0.68177(17) 0.05167(17) 0.3191(2)
H6A H -0.6131 0.0957 0.3983
N4A N 0.63527(13) 0.71397(13) 0.20220(18)
N5A N 0.71404(13) 0.81689(13) 0.10711(19)
N6A N 0.83687(13) 0.86261(13) 0.15905(19)
N6A_2 N -0.16313(13) -0.13739(13) 0.15905(19)
C5A C 0.49294(15) 0.63331(16) 0.1610(2)
H7A H 0.4360 0.6208 0.2687
H8A H 0.4727 0.6818 0.0774
C6A C 0.45980(16) 0.49639(16) 0.0827(2)
H9A H 0.3640 0.4460 0.0592
H10A H 0.4754 0.4465 0.1697
C7A C 0.83444(16) 0.78629(16) 0.2853(2)
H11A H 0.9087 0.7974 0.3435
C8A C 0.70641(16) 0.69072(17) 0.3138(2)
H12A H 0.6726 0.6210 0.3955
N7A N 0.06011(13) -0.63136(13) 0.20888(19)
N8A N 0.09203(13) -0.71076(13) 0.11115(19)
N9A N 0.01409(13) -0.83271(13) 0.16327(19)
N9A_2 N 0.01409(13) 0.16729(13) 0.16327(19)
C9A C 0.12293(16) -0.49011(15) 0.1716(2)
H13A H 0.1513 -0.4378 0.2812
H14A H 0.2033 -0.4635 0.0928
C10A C 0.02598(16) -0.45977(15) 0.0864(2)
H15A H -0.0511 -0.4806 0.1693
H16A H 0.0714 -0.3636 0.0616
C11A C -0.06768(16) -0.82940(16) 0.2920(2)
H17A H -0.1356 -0.9047 0.3531
C12A C -0.03878(16) -0.70071(16) 0.3227(2)
H18A H -0.0806 -0.6690 0.4069
Cl1 Cl 0.33622(4) -0.35201(4) -0.36214(5)
O1 O 0.32922(13) -0.33851(13) -0.17609(16)
O2 O 0.35365(13) -0.23396(12) -0.43532(18)
O3 O 0.44749(12) -0.37031(13) -0.41339(18)
O4 O 0.21479(12) -0.46554(13) -0.42618(17)
loop_
_geom_bond_atom_site_label_1
_geom_bond_atom_site_label_2
_geom_bond_site_symmetry_1
_geom_bond_site_symmetry_2
Zn1 N3 1_555 1_555
N1 N2 1_555 1_555
N2 N3 1_555 1_555
N3 C3 1_555 1_555
C1 N1 1_555 1_555
H1 C1 1_555 1_555
H2 C1 1_555 1_555
C2 C1 1_555 1_555
H3 C2 1_555 1_555
H4 C2 1_555 1_555
C3 H5 1_555 1_555
C4 N1 1_555 1_555
H6 C4 1_555 1_555
N4 N5 1_555 1_555
N5 N6 1_555 1_555
N6 Zn1 1_555 1_555
C5 N4 1_555 1_555
H7 C5 1_555 1_555
H8 C5 1_555 1_555
C6 C5 1_555 1_555
H9 C6 1_555 1_555
H10 C6 1_555 1_555
C7 N6 1_555 1_555
H11 C7 1_555 1_555
C8 N4 1_555 1_555
H12 C8 1_555 1_555
N7 N8 1_555 1_555
N8 N9 1_555 1_555
N9 Zn1 1_555 1_555
C9 N7 1_555 1_555
H13 C9 1_555 1_555
H14 C9 1_555 1_555
C10 C9 1_555 1_555
H15 C10 1_555 1_555
H16 C10 1_555 1_555
C11 N9 1_555 1_555
H17 C11 1_555 1_555
C12 N7 1_555 1_555
H18 C12 1_555 1_555
Cl1 O1 1_555 1_555
O2 Cl1 1_555 1_555
O3 Cl1 1_555 1_555
O4 Cl1 1_555 1_555
Zn1_2 N3A 1_555 1_555
Zn1_3 N9A 1_555 1_555
Zn1_4 N6A 1_555 1_555
N1A N2A 1_555 1_555
N2A N3A 1_555 1_555
N3A C3A 1_555 1_555
N3A_2 Zn1 1_555 1_555
C1A N1A 1_555 1_555
H1A C1A 1_555 1_555
H2A C1A 1_555 1_555
C2A C2 1_555 1_555
H3A C2A 1_555 1_555
H4A C2A 1_555 1_555
C3A H5A 1_555 1_555
C4A N1A 1_555 1_555
H6A C4A 1_555 1_555
N4A N5A 1_555 1_555
N5A N6A 1_555 1_555
N6A C7A 1_555 1_555
N6A_2 Zn1 1_555 1_555
C5A N4A 1_555 1_555
H7A C5A 1_555 1_555
H8A C5A 1_555 1_555
C6A C6 1_555 1_555
H9A C6A 1_555 1_555
H10A C6A 1_555 1_555
C7A H11A 1_555 1_555
C8A N4A 1_555 1_555
H12A C8A 1_555 1_555
N7A N8A 1_555 1_555
N8A N9A 1_555 1_555
N9A C11A 1_555 1_555
N9A_2 Zn1 1_555 1_555
C9A N7A 1_555 1_555
H13A C9A 1_555 1_555
H14A C9A 1_555 1_555
C10A C10 1_555 1_555
H15A C10A 1_555 1_555
H16A C10A 1_555 1_555
C11A H17A 1_555 1_555
C12A N7A 1_555 1_555
H18A C12A 1_555 1_555
C3 C4 1_555 1_555
C7 C8 1_555 1_555
C11 C12 1_555 1_555
C1A C2A 1_555 1_555
C3A C4A 1_555 1_555
C5A C6A 1_555 1_555
C7A C8A 1_555 1_555
C9A C10A 1_555 1_555
C11A C12A 1_555 1_555

#END
