
#######################################################################
#
#                 Cambridge Crystallographic Data Centre
#                                CCDC 
#
#######################################################################
#
# If this CIF has been generated from an entry in the Cambridge 
# Structural Database, then it will include bibliographic, chemical, 
# crystal, experimental, refinement or atomic coordinate data resulting 
# from the CCDC's data processing and validation procedures.
#
#######################################################################

data_UWEGUZ
_symmetry_cell_setting           monoclinic
_symmetry_space_group_name_H-M   'C 2'
_symmetry_Int_Tables_number      5
_space_group_name_Hall           'C 2y'
loop_
_symmetry_equiv_pos_site_id
_symmetry_equiv_pos_as_xyz
1 x,y,z
2 -x,y,-z
3 1/2+x,1/2+y,z
4 1/2-x,1/2+y,-z
_cell_length_a                   15.7374(12)
_cell_length_b                   11.0896(6)
_cell_length_c                   10.6253(8)
_cell_angle_alpha                90
_cell_angle_beta                 108.243(6)
_cell_angle_gamma                90
_cell_volume                     1761.14
loop_
_atom_site_label
_atom_site_type_symbol
_atom_site_fract_x
_atom_site_fract_y
_atom_site_fract_z
Cu1 Cu 0.0000 0.23300(3) 0.5000
Cu2 Cu 0.0000 0.29423(4) 1.0000
S1 S 0.18854(4) 0.28464(6) 0.84228(6)
O1 O 0.12301(15) 0.2409(2) 0.7240(2)
O2 O 0.14880(15) 0.32353(18) 0.9422(2)
O3 O 0.26209(16) 0.20088(19) 0.8945(3)
P1 P 0.36972(4) 0.75070(6) 0.68940(6)
O4 O 0.29265(15) 0.8461(2) 0.6395(2)
H1 H 0.2952 0.9006 0.6955
O5 O 0.43682(13) 0.79656(19) 0.81232(18)
O6 O 0.40284(13) 0.72219(17) 0.57576(18)
C1 C 0.23760(19) 0.4150(2) 0.7975(3)
C2 C 0.2921(2) 0.4035(3) 0.7186(3)
H4 H 0.3028 0.3277 0.6893
C3 C 0.3308(2) 0.5043(3) 0.6830(3)
H5 H 0.3669 0.4962 0.6290
C4 C 0.31590(19) 0.6180(2) 0.7277(3)
C5 C 0.2607(2) 0.6287(2) 0.8059(3)
H6 H 0.2501 0.7043 0.8357
C6 C 0.2209(2) 0.5273(2) 0.8403(3)
H7 H 0.1832 0.5352 0.8919
N1 N 0.0000 0.0519(3) 0.5000
C7 C -0.0679(2) -0.0097(2) 0.4190(3)
H8 H -0.1156 0.0329 0.3624
C8 C -0.0707(2) -0.1344(2) 0.4156(3)
H9 H -0.1193 -0.1741 0.3575
C9 C 0.0000 -0.2001(4) 0.5000
C10 C 0.0000 -0.3330(4) 0.5000
C11 C -0.0773(2) -0.3979(2) 0.4906(3)
H10 H -0.1305 -0.3579 0.4840
C12 C -0.07438(19) -0.5228(2) 0.4912(3)
H11 H -0.1264 -0.5654 0.4852
N2 N 0.0000 -0.5845(3) 0.5000
N3 N 0.0000 0.1132(3) 1.0000
C13 C 0.0468(2) 0.0508(3) 0.9372(3)
H12 H 0.0792 0.0931 0.8920
C14 C 0.0494(2) -0.0730(3) 0.9362(3)
H13 H 0.0842 -0.1128 0.8929
C15 C 0.0000 -0.1380(4) 1.0000
C16 C 0.0000 -0.2720(4) 1.0000
C17 C -0.0005(2) -0.3368(2) 1.1107(3)
H14 H -0.0012 -0.2966 1.1872
C18 C 0.0001(2) -0.4608(2) 1.1079(3)
H15 H 0.0006 -0.5029 1.1838
N4 N 0.0000 -0.5232(3) 1.0000
Cu1B Cu 0.5000 0.73300(3) 0.5000
Cu1_2 Cu 0.0000 -0.76700(3) 0.5000
Cu1B_2 Cu -0.5000 0.73300(3) 0.5000
Cu2B Cu 0.5000 0.79423(4) 1.0000
Cu2_2 Cu 0.0000 -0.70577(4) 1.0000
Cu2_3 Cu 0.0000 0.29423(4) 0.0000
Cu2B_2 Cu -0.5000 0.79423(4) 0.0000
S1A S -0.18854(4) 0.28464(6) 0.15772(6)
O1A O -0.12301(15) 0.2409(2) 0.2760(2)
O2A O -0.14880(15) 0.32353(18) 0.0578(2)
O2A_2 O -0.14880(15) 0.32353(18) 1.0578(2)
O3A O -0.26209(16) 0.20088(19) 0.1055(3)
P1A P -0.36972(4) 0.75070(6) 0.31060(6)
O4A O -0.29265(15) 0.8461(2) 0.3605(2)
H1A H -0.2952 0.9006 0.3045
O5A O -0.43682(13) 0.79656(19) 0.18768(18)
O5B O -0.06318(13) 0.29656(19) 0.81232(18)
O5C O 0.06318(13) 0.29656(19) 1.18768(18)
O6A O -0.40284(13) 0.72219(17) 0.42424(18)
O6B O -0.09716(13) 0.22219(17) 0.57576(18)
O6C O 0.09716(13) 0.22219(17) 0.42424(18)
C1A C -0.23760(19) 0.4150(2) 0.2025(3)
C2A C -0.2921(2) 0.4035(3) 0.2814(3)
H4A H -0.3028 0.3277 0.3107
C3A C -0.3308(2) 0.5043(3) 0.3170(3)
H5A H -0.3669 0.4962 0.3710
C4A C -0.31590(19) 0.6180(2) 0.2723(3)
C5A C -0.2607(2) 0.6287(2) 0.1941(3)
H6A H -0.2501 0.7043 0.1643
C6A C -0.2209(2) 0.5273(2) 0.1597(3)
H7A H -0.1832 0.5352 0.1081
C7A C 0.0679(2) -0.0097(2) 0.5810(3)
H8A H 0.1156 0.0329 0.6376
C8A C 0.0707(2) -0.1344(2) 0.5844(3)
H9A H 0.1193 -0.1741 0.6425
C11A C 0.0773(2) -0.3979(2) 0.5094(3)
H10A H 0.1305 -0.3579 0.5160
C12A C 0.07438(19) -0.5228(2) 0.5088(3)
H11A H 0.1264 -0.5654 0.5148
N2_2 N 0.0000 0.4155(3) 0.5000
C13A C -0.0468(2) 0.0508(3) 1.0628(3)
H12A H -0.0792 0.0931 1.1080
C14A C -0.0494(2) -0.0730(3) 1.0638(3)
H13A H -0.0842 -0.1128 1.1071
C17A C 0.0005(2) -0.3368(2) 0.8893(3)
H14A H 0.0012 -0.2966 0.8128
C18A C -0.0001(2) -0.4608(2) 0.8921(3)
H15A H -0.0006 -0.5029 0.8162
N4_2 N 0.0000 0.4768(3) 1.0000
O7 O 0.25495(18) 0.9571(2) 0.8325(2)
H2 H 0.2845 0.9205 0.9016
H3 H 0.2595 1.0311 0.8502
loop_
_geom_bond_atom_site_label_1
_geom_bond_atom_site_label_2
_geom_bond_site_symmetry_1
_geom_bond_site_symmetry_2
Cu1 O1 1_555 1_555
Cu2 O2 1_555 1_555
S1 O1 1_555 1_555
O2 S1 1_555 1_555
O3 S1 1_555 1_555
P1 O4 1_555 1_555
O4 H1 1_555 1_555
O5 P1 1_555 1_555
O6 P1 1_555 1_555
O7 H2 1_555 1_555
H3 O7 1_555 1_555
C1 S1 1_555 1_555
C2 C1 1_555 1_555
H4 C2 1_555 1_555
C3 C2 1_555 1_555
H5 C3 1_555 1_555
C4 P1 1_555 1_555
C5 C4 1_555 1_555
H6 C5 1_555 1_555
C6 C1 1_555 1_555
H7 C6 1_555 1_555
N1 Cu1 1_555 1_555
C7 N1 1_555 1_555
H8 C7 1_555 1_555
C8 C7 1_555 1_555
H9 C8 1_555 1_555
C9 C8 1_555 1_555
C10 C9 1_555 1_555
C11 C10 1_555 1_555
H10 C11 1_555 1_555
C12 C11 1_555 1_555
H11 C12 1_555 1_555
N2 C12 1_555 1_555
N3 Cu2 1_555 1_555
C13 N3 1_555 1_555
H12 C13 1_555 1_555
C14 C13 1_555 1_555
H13 C14 1_555 1_555
C15 C14 1_555 1_555
C16 C15 1_555 1_555
C17 C16 1_555 1_555
H14 C17 1_555 1_555
C18 C17 1_555 1_555
H15 C18 1_555 1_555
N4 C18 1_555 1_555
Cu1B O6 1_555 1_555
Cu1_2 N2 1_555 1_555
Cu1B_2 O6A 1_555 1_555
Cu2B O5 1_555 1_555
Cu2_2 N4 1_555 1_555
Cu2_3 O2A 1_555 1_555
Cu2B_2 O5A 1_555 1_555
S1A O1A 1_555 1_555
O1A Cu1 1_555 1_555
O2A S1A 1_555 1_555
O2A_2 Cu2 1_555 1_555
O3A S1A 1_555 1_555
P1A O4A 1_555 1_555
O4A H1A 1_555 1_555
O5A P1A 1_555 1_555
O5B Cu2 1_555 1_555
O5C Cu2 1_555 1_555
O6A P1A 1_555 1_555
O6B Cu1 1_555 1_555
O6C Cu1 1_555 1_555
C1A S1A 1_555 1_555
C2A C1A 1_555 1_555
H4A C2A 1_555 1_555
C3A C2A 1_555 1_555
H5A C3A 1_555 1_555
C4A P1A 1_555 1_555
C5A C4A 1_555 1_555
H6A C5A 1_555 1_555
C6A C1A 1_555 1_555
H7A C6A 1_555 1_555
C7A N1 1_555 1_555
H8A C7A 1_555 1_555
C8A C9 1_555 1_555
H9A C8A 1_555 1_555
C11A C10 1_555 1_555
H10A C11A 1_555 1_555
C12A N2 1_555 1_555
H11A C12A 1_555 1_555
N2_2 Cu1 1_555 1_555
C13A N3 1_555 1_555
H12A C13A 1_555 1_555
C14A C15 1_555 1_555
H13A C14A 1_555 1_555
C17A C16 1_555 1_555
H14A C17A 1_555 1_555
C18A N4 1_555 1_555
H15A C18A 1_555 1_555
N4_2 Cu2 1_555 1_555
C3 C4 1_555 1_555
C5 C6 1_555 1_555
C3A C4A 1_555 1_555
C5A C6A 1_555 1_555
C7A C8A 1_555 1_555
C11A C12A 1_555 1_555
C13A C14A 1_555 1_555
C17A C18A 1_555 1_555

#END
