
#######################################################################
#
#                 Cambridge Crystallographic Data Centre
#                                CCDC 
#
#######################################################################
#
# If this CIF has been generated from an entry in the Cambridge 
# Structural Database, then it will include bibliographic, chemical, 
# crystal, experimental, refinement or atomic coordinate data resulting 
# from the CCDC's data processing and validation procedures.
#
#######################################################################

data_UWEHAG
_symmetry_cell_setting           monoclinic
_symmetry_space_group_name_H-M   'C 2'
_symmetry_Int_Tables_number      5
_space_group_name_Hall           'C 2y'
loop_
_symmetry_equiv_pos_site_id
_symmetry_equiv_pos_as_xyz
1 x,y,z
2 -x,y,-z
3 1/2+x,1/2+y,z
4 1/2-x,1/2+y,-z
_cell_length_a                   16.9581(7)
_cell_length_b                   11.1033(3)
_cell_length_c                   10.2310(5)
_cell_angle_alpha                90
_cell_angle_beta                 103.866(2)
_cell_angle_gamma                90
_cell_volume                     1870.27
loop_
_atom_site_label
_atom_site_type_symbol
_atom_site_fract_x
_atom_site_fract_y
_atom_site_fract_z
Cu1 Cu 0.0000 0.1855(13) 0.5000
Cu2 Cu 0.0000 0.2685(12) 1.0000
S1 S 0.1195(6) 0.2439(12) 0.7936(10)
O1 O 0.0947(13) 0.1929(22) 0.6492(20)
O2 O 0.0447(12) 0.2902(25) 0.8232(21)
O3 O 0.1764(13) 0.1646(27) 0.8861(25)
P1 P 0.3143(4) 0.7151(7) 0.7108(6)
O4 O 0.2573(7) 0.8136(9) 0.6341(15)
O5 O 0.3550(12) 0.7573(21) 0.856(1)
O6 O 0.3807(5) 0.6717(16) 0.6437(11)
C1 C 0.1758(11) 0.3790(24) 0.7714(15)
C2 C 0.2399(11) 0.3571(17) 0.7107(17)
C3 C 0.2865(9) 0.4598(22) 0.6865(14)
C4 C 0.2637(9) 0.5826(23) 0.7288(17)
C5 C 0.1984(9) 0.5967(20) 0.7885(15)
C6 C 0.1532(11) 0.4885(26) 0.8120(15)
N1 N 0.0000 -0.0203(29) 0.5000
C7 C -0.0699(10) -0.0848(23) 0.4622(27)
C8 C -0.0699(10) -0.2056(24) 0.4622(27)
C9 C 0.0000 -0.2659(28) 0.5000
C10 C 0.0000 -0.3886(37) 0.5000
C11 C -0.0666(17) -0.4472(10) 0.5175(28)
C12 C -0.0666(17) -0.5743(9) 0.5175(28)
N2 N 0.0000 -0.6419(38) 0.5000
N3 N 0.0000 0.0843(31) 1.0000
C13 C -0.0111(15) 0.0184(9) 0.8703(16)
C14 C -0.0111(15) -0.1072(9) 0.8703(16)
C15 C 0.0000 -0.1640(27) 1.0000
C16 C 0.0000 -0.3101(39) 1.0000
C17 C 0.0646(13) -0.3670(26) 1.0820(31)
C18 C 0.0646(13) -0.5000(29) 1.0820(31)
N4 N 0.0000 -0.5357(40) 1.0000
Cu1B Cu 0.5000 0.6855(13) 0.5000
Cu1_2 Cu 0.0000 -0.8145(13) 0.5000
Cu1B_2 Cu -0.5000 0.6855(13) 0.5000
Cu2B Cu 0.5000 0.7685(12) 1.0000
Cu2_2 Cu 0.0000 -0.7315(12) 1.0000
Cu2_3 Cu 0.0000 0.2685(12) 0.0000
Cu2B_2 Cu -0.5000 0.7685(12) 0.0000
S1A S -0.1195(6) 0.2439(12) 0.2064(10)
O1A O -0.0947(13) 0.1929(22) 0.3508(20)
O2A O -0.0447(12) 0.2902(25) 1.1768(21)
O2A_2 O -0.0447(12) 0.2902(25) 0.1768(21)
O3A O -0.1764(13) 0.1646(27) 0.1139(25)
P1A P -0.3143(4) 0.7151(7) 0.2892(6)
O4A O -0.2573(7) 0.8136(9) 0.3659(15)
O5B O -0.1450(12) 0.2573(21) 0.856(1)
O5C O 0.1450(12) 0.2573(21) 1.144(1)
O5A O -0.3550(12) 0.7573(21) 0.144(1)
O6B O -0.1193(5) 0.1717(16) 0.6437(11)
O6C O 0.1193(5) 0.1717(16) 0.3563(11)
O6A O -0.3807(5) 0.6717(16) 0.3563(11)
C1A C -0.1758(11) 0.3790(24) 0.2286(15)
C2A C -0.2399(11) 0.3571(17) 0.2893(17)
C3A C -0.2865(9) 0.4598(22) 0.3135(14)
C4A C -0.2637(9) 0.5826(23) 0.2712(17)
C5A C -0.1984(9) 0.5967(20) 0.2115(15)
C6A C -0.1532(11) 0.4885(26) 0.1880(15)
C7A C 0.0699(10) -0.0848(23) 0.5378(27)
C8A C 0.0699(10) -0.2056(24) 0.5378(27)
C11A C 0.0666(17) -0.4472(10) 0.4825(28)
C12A C 0.0666(17) -0.5743(9) 0.4825(28)
N2_2 N 0.0000 0.3581(38) 0.5000
C13A C 0.0111(15) 0.0184(9) 1.1297(16)
C14A C 0.0111(15) -0.1072(9) 1.1297(16)
C17A C -0.0646(13) -0.3670(26) 0.9180(31)
C18A C -0.0646(13) -0.5000(29) 0.9180(31)
N4_2 N 0.0000 0.4643(40) 1.0000
loop_
_geom_bond_atom_site_label_1
_geom_bond_atom_site_label_2
_geom_bond_site_symmetry_1
_geom_bond_site_symmetry_2
Cu1 O1 1_555 1_555
Cu2 O2 1_555 1_555
S1 O1 1_555 1_555
O2 S1 1_555 1_555
O3 S1 1_555 1_555
P1 O4 1_555 1_555
O5 P1 1_555 1_555
O6 P1 1_555 1_555
C1 S1 1_555 1_555
C2 C1 1_555 1_555
C3 C2 1_555 1_555
C4 P1 1_555 1_555
C5 C4 1_555 1_555
C6 C1 1_555 1_555
N1 Cu1 1_555 1_555
C7 N1 1_555 1_555
C8 C7 1_555 1_555
C9 C8 1_555 1_555
C10 C9 1_555 1_555
C11 C10 1_555 1_555
C12 C11 1_555 1_555
N2 C12 1_555 1_555
N3 Cu2 1_555 1_555
C13 N3 1_555 1_555
C14 C13 1_555 1_555
C15 C14 1_555 1_555
C16 C15 1_555 1_555
C17 C16 1_555 1_555
C18 C17 1_555 1_555
N4 C18 1_555 1_555
Cu1B O6 1_555 1_555
Cu1_2 N2 1_555 1_555
Cu1B_2 O6A 1_555 1_555
Cu2B O5 1_555 1_555
Cu2_2 N4 1_555 1_555
Cu2_3 O2A_2 1_555 1_555
Cu2B_2 O5A 1_555 1_555
S1A O1A 1_555 1_555
O1A Cu1 1_555 1_555
O2A Cu2 1_555 1_555
O2A_2 S1A 1_555 1_555
O3A S1A 1_555 1_555
P1A O4A 1_555 1_555
O5B Cu2 1_555 1_555
O5C Cu2 1_555 1_555
O5A P1A 1_555 1_555
O6B Cu1 1_555 1_555
O6C Cu1 1_555 1_555
O6A P1A 1_555 1_555
C1A S1A 1_555 1_555
C2A C1A 1_555 1_555
C3A C2A 1_555 1_555
C4A P1A 1_555 1_555
C5A C4A 1_555 1_555
C6A C1A 1_555 1_555
C7A N1 1_555 1_555
C8A C9 1_555 1_555
C11A C10 1_555 1_555
C12A N2 1_555 1_555
N2_2 Cu1 1_555 1_555
C13A N3 1_555 1_555
C14A C15 1_555 1_555
C17A C16 1_555 1_555
C18A N4 1_555 1_555
N4_2 Cu2 1_555 1_555
C3 C4 1_555 1_555
C5 C6 1_555 1_555
C3A C4A 1_555 1_555
C5A C6A 1_555 1_555
C7A C8A 1_555 1_555
C11A C12A 1_555 1_555
C13A C14A 1_555 1_555
C17A C18A 1_555 1_555

#END
