
#######################################################################
#
#                 Cambridge Crystallographic Data Centre
#                                CCDC 
#
#######################################################################
#
# If this CIF has been generated from an entry in the Cambridge 
# Structural Database, then it will include bibliographic, chemical, 
# crystal, experimental, refinement or atomic coordinate data resulting 
# from the CCDC's data processing and validation procedures.
#
#######################################################################

data_UWIGOX
_symmetry_cell_setting           monoclinic
_symmetry_space_group_name_H-M   'P c'
_symmetry_Int_Tables_number      7
_space_group_name_Hall           'P -2yc'
loop_
_symmetry_equiv_pos_site_id
_symmetry_equiv_pos_as_xyz
1 x,y,z
2 x,-y,1/2+z
_cell_length_a                   4.4815(5)
_cell_length_b                   16.0351(15)
_cell_length_c                   12.1670(11)
_cell_angle_alpha                90
_cell_angle_beta                 98.6870(10)
_cell_angle_gamma                90
_cell_volume                     864.306
loop_
_atom_site_label
_atom_site_type_symbol
_atom_site_fract_x
_atom_site_fract_y
_atom_site_fract_z
Ba1 Ba 0.74080(13) 0.75167(2) 0.43821(8)
N1 N 0.7488(12) 0.8657(3) 0.6438(5)
N2 N 0.8660(13) 0.9668(3) 0.7677(5)
H1 H 0.953(15) 0.993(4) 0.825(6)
N3 N 0.1889(12) 0.3920(3) 0.6406(4)
N4 N 0.0565(12) 0.4893(3) 0.5148(5)
H2 H -0.042(16) 0.514(4) 0.458(6)
O1 O 0.2651(11) 0.8600(3) 0.4711(4)
O2 O 0.1693(11) 0.9953(3) 0.4893(4)
O3 O 0.3054(12) 1.1079(3) 0.6281(4)
H3 H 0.2543 1.0701 0.5838
O4 O 0.6490(13) 1.1267(3) 0.7753(5)
O5 O 0.6473(10) 0.4068(3) 0.8311(4)
O6 O 0.7941(11) 0.5272(3) 0.7731(4)
H4 H 0.7459 0.5596 0.7213
O7 O 0.6537(11) 0.6295(3) 0.6219(4)
O8 O 0.2451(10) 0.6544(2) 0.5005(4)
O9 O 0.1767(10) 0.7422(2) 0.2898(4)
H5 H 0.1617 0.6967 0.2537
H6 H 0.1578 0.7827 0.2442
C1 C 0.3174(15) 0.9285(4) 0.5177(6)
C2 C 0.5644(14) 0.9337(3) 0.6147(5)
C3 C 0.6374(13) 0.9969(4) 0.6887(6)
C4 C 0.5285(15) 1.0833(4) 0.7003(6)
C5 C 0.9282(14) 0.8871(4) 0.7378(6)
C6 C 1.1568(16) 0.8346(4) 0.8087(6)
H7 H 1.0900 0.8248 0.8798
H8 H 1.3469 0.8645 0.8225
C7 C 1.2048(16) 0.7521(4) 0.7548(6)
H9 H 1.2875 0.7615 0.6875
H10 H 1.0153 0.7235 0.7377
H11 H 1.3423 0.7188 0.8047
C8 C 0.6125(14) 0.4625(4) 0.7618(6)
C9 C 0.3739(14) 0.4613(4) 0.6645(5)
C10 C 0.2900(13) 0.5224(3) 0.5858(5)
C11 C 0.3966(14) 0.6090(3) 0.5679(5)
C12 C 0.0037(14) 0.4102(3) 0.5486(5)
C13 C -0.2263(15) 0.3542(4) 0.4857(6)
H12 H -0.1699 0.3431 0.4132
H13 H -0.4193 0.3828 0.4742
C14 C -0.2622(18) 0.2724(4) 0.5433(7)
H14 H -0.3096 0.2828 0.6164
H15 H -0.0774 0.2413 0.5489
H16 H -0.4225 0.2409 0.5011
Ba1_2 Ba -0.25920(13) 0.75167(2) 0.43821(8)
Ba1A Ba 0.74080(13) 1.24833(2) 0.93821(8)
Ba1A_2 Ba 0.74080(13) 0.24833(2) 0.93821(8)
O1_2 O 1.2651(11) 0.8600(3) 0.4711(4)
O4A O 0.6490(13) 0.8733(3) 0.2753(5)
O5A O 0.6473(10) 0.5932(3) 0.3311(4)
O8_2 O 1.2451(10) 0.6544(2) 0.5005(4)
O9_2 O 1.1767(10) 0.7422(2) 0.2898(4)
H5_2 H 1.1617 0.6967 0.2537
H6_2 H 1.1578 0.7827 0.2442
loop_
_geom_bond_atom_site_label_1
_geom_bond_atom_site_label_2
_geom_bond_site_symmetry_1
_geom_bond_site_symmetry_2
Ba1 N1 1_555 1_555
N1 C2 1_555 1_555
N2 H1 1_555 1_555
N3 C9 1_555 1_555
N4 H2 1_555 1_555
O1 Ba1 1_555 1_555
O2 C1 1_555 1_555
O3 H3 1_555 1_555
O4 C4 1_555 1_555
O5 C8 1_555 1_555
O6 H4 1_555 1_555
O7 Ba1 1_555 1_555
O8 Ba1 1_555 1_555
O9 Ba1 1_555 1_555
H5 O9 1_555 1_555
H6 O9 1_555 1_555
C1 O1 1_555 1_555
C2 C1 1_555 1_555
C3 N2 1_555 1_555
C4 O3 1_555 1_555
C5 N1 1_555 1_555
C6 C5 1_555 1_555
H7 C6 1_555 1_555
H8 C6 1_555 1_555
C7 C6 1_555 1_555
H9 C7 1_555 1_555
H10 C7 1_555 1_555
H11 C7 1_555 1_555
C8 O6 1_555 1_555
C9 C8 1_555 1_555
C10 N4 1_555 1_555
C11 O7 1_555 1_555
C12 N3 1_555 1_555
C13 C12 1_555 1_555
H12 C13 1_555 1_555
H13 C13 1_555 1_555
C14 C13 1_555 1_555
H14 C14 1_555 1_555
H15 C14 1_555 1_555
H16 C14 1_555 1_555
Ba1_2 O1 1_555 1_555
Ba1A O4 1_555 1_555
Ba1A_2 O5 1_555 1_555
O1_2 Ba1 1_555 1_555
O4A Ba1 1_555 1_555
O5A Ba1 1_555 1_555
O8_2 Ba1 1_555 1_555
O9_2 Ba1 1_555 1_555
H5_2 O9_2 1_555 1_555
H6_2 O9_2 1_555 1_555
N2 C5 1_555 1_555
N4 C12 1_555 1_555
O8 C11 1_555 1_555
O8 Ba1_2 1_555 1_555
O9 Ba1_2 1_555 1_555
C2 C3 1_555 1_555
C3 C4 1_555 1_555
C9 C10 1_555 1_555
C10 C11 1_555 1_555

#END
