
#######################################################################
#
#                 Cambridge Crystallographic Data Centre
#                                CCDC 
#
#######################################################################
#
# If this CIF has been generated from an entry in the Cambridge 
# Structural Database, then it will include bibliographic, chemical, 
# crystal, experimental, refinement or atomic coordinate data resulting 
# from the CCDC's data processing and validation procedures.
#
#######################################################################

data_UWIHEO
_symmetry_cell_setting           monoclinic
_symmetry_space_group_name_H-M   'I 2/a'
_symmetry_Int_Tables_number      15
_space_group_name_Hall           '-I 2ya'
loop_
_symmetry_equiv_pos_site_id
_symmetry_equiv_pos_as_xyz
1 x,y,z
2 1/2-x,y,-z
3 1/2+x,1/2+y,1/2+z
4 -x,1/2+y,1/2-z
5 -x,-y,-z
6 1/2+x,-y,z
7 1/2-x,1/2-y,1/2-z
8 x,1/2-y,1/2+z
_cell_length_a                   7.8145(16)
_cell_length_b                   10.436(2)
_cell_length_c                   21.122(4)
_cell_angle_alpha                90
_cell_angle_beta                 90.00(3)
_cell_angle_gamma                90
_cell_volume                     1722.54
loop_
_atom_site_label
_atom_site_type_symbol
_atom_site_fract_x
_atom_site_fract_y
_atom_site_fract_z
Ag1 Ag 1.05686(7) 1.23954(4) 0.27211(2)
O1 O 0.9500(5) 0.9876(4) 0.25027(14)
O2 O 0.8755(5) 1.1665(3) 0.20017(16)
O3 O 0.7047(6) 1.2382(3) 0.1074(2)
H1 H 0.7745 1.2173 0.1345
O4 O 0.5581(5) 1.1431(3) 0.03135(14)
N1 N 0.7854(5) 0.8374(3) 0.15866(16)
N2 N 0.6407(4) 0.8991(3) 0.07587(15)
H2 H 0.5812 0.8957 0.0417
C1 C 0.7862(5) 0.9696(4) 0.1569(2)
C2 C 0.6954(6) 1.0089(4) 0.10479(17)
C3 C 0.6941(6) 0.7985(4) 0.1090(2)
C4 C 0.8753(6) 1.0438(5) 0.2069(2)
C5 C 0.6483(6) 1.1355(4) 0.07832(19)
C6 C 0.6494(7) 0.6631(4) 0.0936(3)
H3 H 0.5972 0.6608 0.0519
H4 H 0.5647 0.6334 0.1238
C7 C 0.8000(9) 0.5712(5) 0.0944(4)
H5 H 0.8888 0.6033 0.0673
H6 H 0.7635 0.4887 0.0795
H7 H 0.8428 0.5635 0.1368
Ag1C Ag 0.94314(7) 0.73954(4) 0.22789(2)
N1C N 1.2146(5) 1.3374(3) 0.34134(16)
loop_
_geom_bond_atom_site_label_1
_geom_bond_atom_site_label_2
_geom_bond_site_symmetry_1
_geom_bond_site_symmetry_2
Ag1 O2 1_555 1_555
O1 C4 1_555 1_555
O2 C4 1_555 1_555
O3 H1 1_555 1_555
O4 C5 1_555 1_555
N1 C1 1_555 1_555
N2 H2 1_555 1_555
C1 C2 1_555 1_555
C2 N2 1_555 1_555
C3 N1 1_555 1_555
C4 C1 1_555 1_555
C5 O3 1_555 1_555
C6 C3 1_555 1_555
H3 C6 1_555 1_555
H4 C6 1_555 1_555
C7 C6 1_555 1_555
H5 C7 1_555 1_555
H6 C7 1_555 1_555
H7 C7 1_555 1_555
Ag1C N1 1_555 1_555
N1C Ag1 1_555 1_555
N2 C3 1_555 1_555
C2 C5 1_555 1_555

#END
