
#######################################################################
#
#                 Cambridge Crystallographic Data Centre
#                                CCDC 
#
#######################################################################
#
# If this CIF has been generated from an entry in the Cambridge 
# Structural Database, then it will include bibliographic, chemical, 
# crystal, experimental, refinement or atomic coordinate data resulting 
# from the CCDC's data processing and validation procedures.
#
#######################################################################

data_UWIJOA
_symmetry_cell_setting           triclinic
_symmetry_space_group_name_H-M   'P -1'
_symmetry_Int_Tables_number      2
_space_group_name_Hall           '-P 1'
loop_
_symmetry_equiv_pos_site_id
_symmetry_equiv_pos_as_xyz
1 x,y,z
2 -x,-y,-z
_cell_length_a                   7.5265(4)
_cell_length_b                   11.3095(6)
_cell_length_c                   11.3964(6)
_cell_angle_alpha                102.312(3)
_cell_angle_beta                 104.022(3)
_cell_angle_gamma                103.797(3)
_cell_volume                     875.384
loop_
_atom_site_label
_atom_site_type_symbol
_atom_site_fract_x
_atom_site_fract_y
_atom_site_fract_z
C1 C 0.7083(3) 0.72618(19) 0.81882(18)
H1 H 0.6910 0.7941 0.7886
C2 C 0.7093(3) 0.73209(18) 0.94068(18)
H2 H 0.6932 0.8028 0.9908
C3 C 0.7345(3) 0.63171(17) 0.98917(16)
C4 C 0.7589(3) 0.52991(19) 0.90894(18)
H3 H 0.7768 0.4608 0.9368
C5 C 0.7565(3) 0.5315(2) 0.78736(18)
H4 H 0.7736 0.4625 0.7354
C6 C 0.7834(3) 0.5483(2) 1.29560(19)
H5 H 0.8231 0.4885 1.3312
C7 C 0.7883(3) 0.54438(19) 1.17505(18)
H6 H 0.8291 0.4825 1.1308
C8 C 0.7321(3) 0.63336(17) 1.11932(16)
C9 C 0.6727(3) 0.72244(19) 1.19173(18)
H7 H 0.6344 0.7842 1.1591
C10 C 0.6706(3) 0.7194(2) 1.31161(19)
H8 H 0.6298 0.7799 1.3579
N1 N 0.7308(3) 0.62757(16) 0.74116(15)
N2 N 0.7245(3) 0.63353(16) 1.36449(15)
Ag1 Ag 0.71107(3) 0.625557(16) 0.549160(13)
N2_2 N 0.7245(3) 0.63353(16) 0.36449(15)
Ag1_2 Ag 0.71107(3) 0.625557(16) 1.549160(13)
C11 C 0.7451(3) 0.19680(19) 0.25420(18)
H9 H 0.6722 0.2501 0.2358
C12 C 0.7921(3) 0.18100(19) 0.37365(18)
C13 C 0.9062(3) 0.1057(2) 0.4030(2)
H10 H 0.9400 0.0969 0.4840
C14 C 0.9698(4) 0.0438(2) 0.3113(2)
H11 H 1.0481 -0.0061 0.3313
C15 C 0.9188(3) 0.0549(2) 0.1906(2)
H12 H 0.9587 0.0105 0.1286
C16 C 0.8073(3) 0.13273(18) 0.16201(19)
C17 C 0.7520(3) 0.1507(2) 0.03351(19)
O1 O 0.4890(3) 0.17620(17) 0.44107(16)
O2 O 0.7158(4) 0.38003(16) 0.48214(18)
O3 O 0.7911(3) 0.24000(17) 0.60648(14)
O4 O 0.7008(3) 0.23938(18) 0.01375(16)
O5 O 0.7631(3) 0.05967(16) -0.05511(15)
H13 H 0.7316 0.0741 -0.1234
S1 S 0.69039(9) 0.25081(5) 0.48558(5)
O6 O 0.6279(3) 0.07078(19) -0.28007(17)
H14 H 0.598(5) -0.003(2) -0.333(3)
H15 H 0.683(4) 0.127(2) -0.311(3)
loop_
_geom_bond_atom_site_label_1
_geom_bond_atom_site_label_2
_geom_bond_site_symmetry_1
_geom_bond_site_symmetry_2
C1 H1 1_555 1_555
C2 C1 1_555 1_555
H2 C2 1_555 1_555
C3 C2 1_555 1_555
C4 C3 1_555 1_555
H3 C4 1_555 1_555
C5 C4 1_555 1_555
H4 C5 1_555 1_555
C6 H5 1_555 1_555
C7 C6 1_555 1_555
H6 C7 1_555 1_555
C8 C3 1_555 1_555
C9 C8 1_555 1_555
H7 C9 1_555 1_555
C10 C9 1_555 1_555
H8 C10 1_555 1_555
N1 C1 1_555 1_555
N2 C6 1_555 1_555
Ag1 N1 1_555 1_555
C11 H9 1_555 1_555
C12 C11 1_555 1_555
C13 C12 1_555 1_555
H10 C13 1_555 1_555
C14 C13 1_555 1_555
H11 C14 1_555 1_555
C15 C14 1_555 1_555
H12 C15 1_555 1_555
C16 C11 1_555 1_555
C17 C16 1_555 1_555
O1 S1 1_555 1_555
O2 S1 1_555 1_555
O3 S1 1_555 1_555
O4 C17 1_555 1_555
O5 C17 1_555 1_555
H13 O5 1_555 1_555
S1 C12 1_555 1_555
O6 H14 1_555 1_555
H15 O6 1_555 1_555
N2_2 Ag1 1_555 1_555
Ag1_2 N2 1_555 1_555
C5 N1 1_555 1_555
C7 C8 1_555 1_555
C10 N2 1_555 1_555
C15 C16 1_555 1_555

#END
