
#######################################################################
#
#                 Cambridge Crystallographic Data Centre
#                                CCDC 
#
#######################################################################
#
# If this CIF has been generated from an entry in the Cambridge 
# Structural Database, then it will include bibliographic, chemical, 
# crystal, experimental, refinement or atomic coordinate data resulting 
# from the CCDC's data processing and validation procedures.
#
#######################################################################

data_UWINEU
_symmetry_cell_setting           tetragonal
_symmetry_space_group_name_H-M   'I -4'
_symmetry_Int_Tables_number      82
_space_group_name_Hall           'I -4'
loop_
_symmetry_equiv_pos_site_id
_symmetry_equiv_pos_as_xyz
1 x,y,z
2 -x,-y,z
3 y,-x,-z
4 -y,x,-z
5 1/2+x,1/2+y,1/2+z
6 1/2-x,1/2-y,1/2+z
7 1/2+y,1/2-x,1/2-z
8 1/2-y,1/2+x,1/2-z
_cell_length_a                   12.2839(14)
_cell_length_b                   12.2839(14)
_cell_length_c                   12.1996(14)
_cell_angle_alpha                90
_cell_angle_beta                 90
_cell_angle_gamma                90
_cell_volume                     1840.85
loop_
_atom_site_label
_atom_site_type_symbol
_atom_site_fract_x
_atom_site_fract_y
_atom_site_fract_z
C1 C 0.0000 1.0000 0.5000
C2 C -0.0237(4) 1.0983(4) 0.5704(5)
H1 H -0.0900 1.0871 0.6120
H2 H -0.0328 1.1624 0.5249
C3 C 0.0611(4) 1.1756(4) 0.7295(4)
C4 C -0.0225(4) 1.2477(5) 0.7484(5)
H3 H -0.0797 1.2533 0.6987
C5 C -0.0214(5) 1.3105(4) 0.8395(4)
H4 H -0.0754 1.3629 0.8470
C6 C 0.1364(5) 1.2346(4) 0.9005(4)
H5 H 0.1932 1.2310 0.9507
C7 C 0.1413(4) 1.1707(4) 0.8089(5)
H6 H 0.1995 1.1232 0.7998
C8 C 0.0609(4) 1.3340(4) 1.3028(4)
Cu1 Cu 0.04580(5) 1.38627(5) 1.06087(5)
N1 N 0.0540(4) 1.3017(3) 0.9211(3)
N2 N 0.0669(4) 1.3244(4) 1.2078(4)
O1 O 0.0675(3) 1.1124(3) 0.6434(3)
O2 O -0.0483(8) 1.1980(8) 1.0005(6)
H7 H 0.0006 1.1525 0.9822
H8 H -0.0903 1.2094 0.9463
S1 S 0.05344(10) 1.35072(10) 1.43611(12)
C2A C 0.0237(4) 0.9017(4) 0.5704(5)
C2B C 0.0983(4) 1.0237(4) 0.4296(5)
C2C C -0.0983(4) 0.9763(4) 0.4296(5)
H1A H 0.0900 0.9129 0.6120
H1B H 0.0871 1.0900 0.3880
H1C H -0.0871 0.9100 0.3880
H2A H 0.0328 0.8376 0.5249
H2B H 0.1624 1.0328 0.4751
H2C H -0.1624 0.9672 0.4751
C3A C -0.0611(4) 0.8244(4) 0.7295(4)
C3B C 0.1756(4) 0.9389(4) 0.2705(4)
C3C C -0.1756(4) 1.0611(4) 0.2705(4)
C4A C 0.0225(4) 0.7523(5) 0.7484(5)
C4B C 0.2477(5) 1.0225(4) 0.2516(5)
C4C C -0.2477(5) 0.9775(4) 0.2516(5)
H3A H 0.0797 0.7467 0.6987
H3B H 0.2533 1.0797 0.3013
H3C H -0.2533 0.9203 0.3013
C5A C 0.0214(5) 0.6895(4) 0.8395(4)
C5B C 0.3105(4) 1.0214(5) 0.1605(4)
C5C C -0.3105(4) 0.9786(5) 0.1605(4)
H4A H 0.0754 0.6371 0.8470
H4B H 0.3629 1.0754 0.1530
H4C H -0.3629 0.9246 0.1530
C6A C -0.1364(5) 0.7654(4) 0.9005(4)
C6B C 0.2346(4) 0.8636(5) 0.0995(4)
C6C C -0.2346(4) 1.1364(5) 0.0995(4)
H5A H -0.1932 0.7690 0.9507
H5B H 0.2310 0.8068 0.0493
H5C H -0.2310 1.1932 0.0493
C7A C -0.1413(4) 0.8293(4) 0.8089(5)
C7B C 0.1707(4) 0.8587(4) 0.1911(5)
C7C C -0.1707(4) 1.1413(4) 0.1911(5)
H6A H -0.1995 0.8768 0.7998
H6B H 0.1232 0.8005 0.2002
H6C H -0.1232 1.1995 0.2002
C8G C 0.1660(4) 1.5609(4) 1.1972(4)
C8F C -0.1660(4) 1.4391(4) 1.1972(4)
C8A C -0.0609(4) 0.6660(4) 1.3028(4)
Cu1A Cu -0.04580(5) 0.61373(5) 1.06087(5)
Cu1B Cu 0.38627(5) 0.95420(5) -0.06087(5)
Cu1C Cu -0.38627(5) 1.04580(5) -0.06087(5)
Cu1F Cu -0.11373(5) 1.45420(5) 1.43913(5)
Cu1G Cu 0.11373(5) 1.54580(5) 1.43913(5)
Cu1A_2 Cu -0.04580(5) 1.61373(5) 1.06087(5)
Cu1G_2 Cu 0.11373(5) 0.54580(5) 1.43913(5)
Cu1F_2 Cu -0.11373(5) 0.45420(5) 1.43913(5)
N1A N -0.0540(4) 0.6983(3) 0.9211(3)
N1B N 0.3017(3) 0.9460(4) 0.0789(3)
N1C N -0.3017(3) 1.0540(4) 0.0789(3)
N2G N 0.1756(4) 1.5669(4) 1.2922(4)
N2F N -0.1756(4) 1.4331(4) 1.2922(4)
N2A N -0.0669(4) 0.6756(4) 1.2078(4)
N2B N 0.3244(4) 0.9331(4) -0.2078(4)
N2C N -0.3244(4) 1.0669(4) -0.2078(4)
O1A O -0.0675(3) 0.8876(3) 0.6434(3)
O1B O 0.1124(3) 0.9325(3) 0.3566(3)
O1C O -0.1124(3) 1.0675(3) 0.3566(3)
O2A O 0.0483(8) 0.8020(8) 1.0005(6)
O2B O 0.1980(8) 1.0483(8) -0.0005(6)
O2C O -0.1980(8) 0.9517(8) -0.0005(6)
H7A H -0.0006 0.8475 0.9822
H7B H 0.1525 0.9994 0.0178
H7C H -0.1525 1.0006 0.0178
H8A H 0.0903 0.7906 0.9463
H8B H 0.2094 1.0903 0.0537
H8C H -0.2094 0.9097 0.0537
S1G S 0.14928(10) 1.55344(10) 1.06389(12)
S1F S -0.14928(10) 1.44656(10) 1.06389(12)
S1A S -0.05344(10) 0.64928(10) 1.43611(12)
S1F_2 S -0.14928(10) 0.44656(10) 1.06389(12)
S1G_2 S 0.14928(10) 0.55344(10) 1.06389(12)
S1D S 0.55344(10) 0.85072(10) -0.06389(12)
S1E S 0.44656(10) 1.14928(10) -0.06389(12)
S1E_2 S -0.55344(10) 1.14928(10) -0.06389(12)
S1D_2 S -0.44656(10) 0.85072(10) -0.06389(12)
loop_
_geom_bond_atom_site_label_1
_geom_bond_atom_site_label_2
_geom_bond_site_symmetry_1
_geom_bond_site_symmetry_2
C1 C2 1_555 1_555
C2 H1 1_555 1_555
H2 C2 1_555 1_555
C3 C4 1_555 1_555
C4 H3 1_555 1_555
C5 C4 1_555 1_555
H4 C5 1_555 1_555
C6 H5 1_555 1_555
C7 C3 1_555 1_555
H6 C7 1_555 1_555
C8 N2 1_555 1_555
Cu1 N1 1_555 1_555
N1 C5 1_555 1_555
N2 Cu1 1_555 1_555
O1 C2 1_555 1_555
O2 Cu1 1_555 1_555
H7 O2 1_555 1_555
H8 O2 1_555 1_555
S1 C8 1_555 1_555
C2A C1 1_555 1_555
C2B C1 1_555 1_555
C2C C1 1_555 1_555
H1A C2A 1_555 1_555
H1B C2B 1_555 1_555
H1C C2C 1_555 1_555
H2A C2A 1_555 1_555
H2B C2B 1_555 1_555
H2C C2C 1_555 1_555
C3A C4A 1_555 1_555
C3B C4B 1_555 1_555
C3C C4C 1_555 1_555
C4A H3A 1_555 1_555
C4B H3B 1_555 1_555
C4C H3C 1_555 1_555
C5A C4A 1_555 1_555
C5B C4B 1_555 1_555
C5C C4C 1_555 1_555
H4A C5A 1_555 1_555
H4B C5B 1_555 1_555
H4C C5C 1_555 1_555
C6A H5A 1_555 1_555
C6B H5B 1_555 1_555
C6C H5C 1_555 1_555
C7A C3A 1_555 1_555
C7B C3B 1_555 1_555
C7C C3C 1_555 1_555
H6A C7A 1_555 1_555
H6B C7B 1_555 1_555
H6C C7C 1_555 1_555
C8G N2G 1_555 1_555
C8F N2F 1_555 1_555
C8A N2A 1_555 1_555
Cu1A N1A 1_555 1_555
Cu1B N1B 1_555 1_555
Cu1C N1C 1_555 1_555
Cu1F S1 1_555 1_555
Cu1G S1 1_555 1_555
Cu1A_2 S1G 1_555 1_555
Cu1G_2 S1A 1_555 1_555
Cu1F_2 S1A 1_555 1_555
N1A C5A 1_555 1_555
N1B C5B 1_555 1_555
N1C C5C 1_555 1_555
N2G Cu1G 1_555 1_555
N2F Cu1F 1_555 1_555
N2A Cu1A 1_555 1_555
N2B Cu1B 1_555 1_555
N2C Cu1C 1_555 1_555
O1A C2A 1_555 1_555
O1B C2B 1_555 1_555
O1C C2C 1_555 1_555
O2A Cu1A 1_555 1_555
O2B Cu1B 1_555 1_555
O2C Cu1C 1_555 1_555
H7A O2A 1_555 1_555
H7B O2B 1_555 1_555
H7C O2C 1_555 1_555
H8A O2A 1_555 1_555
H8B O2B 1_555 1_555
H8C O2C 1_555 1_555
S1G Cu1 1_555 1_555
S1F Cu1 1_555 1_555
S1A C8A 1_555 1_555
S1F_2 Cu1A 1_555 1_555
S1G_2 Cu1A 1_555 1_555
S1D Cu1B 1_555 1_555
S1E Cu1B 1_555 1_555
S1E_2 Cu1C 1_555 1_555
S1D_2 Cu1C 1_555 1_555
C3 O1 1_555 1_555
C6 C7 1_555 1_555
C6 N1 1_555 1_555
C3A O1A 1_555 1_555
C3B O1B 1_555 1_555
C3C O1C 1_555 1_555
C6A C7A 1_555 1_555
C6A N1A 1_555 1_555
C6B C7B 1_555 1_555
C6B N1B 1_555 1_555
C6C C7C 1_555 1_555
C6C N1C 1_555 1_555
C8G S1G 1_555 1_555
C8F S1F 1_555 1_555
Cu1A_2 S1F 1_555 1_555

#END
