
#######################################################################
#
#                 Cambridge Crystallographic Data Centre
#                                CCDC 
#
#######################################################################
#
# If this CIF has been generated from an entry in the Cambridge 
# Structural Database, then it will include bibliographic, chemical, 
# crystal, experimental, refinement or atomic coordinate data resulting 
# from the CCDC's data processing and validation procedures.
#
#######################################################################

data_UWOWIN
_symmetry_cell_setting           monoclinic
_symmetry_space_group_name_H-M   'P 21/c'
_symmetry_Int_Tables_number      14
_space_group_name_Hall           '-P 2ybc'
loop_
_symmetry_equiv_pos_site_id
_symmetry_equiv_pos_as_xyz
1 x,y,z
2 -x,1/2+y,1/2-z
3 -x,-y,-z
4 x,1/2-y,1/2+z
_cell_length_a                   6.5934(12)
_cell_length_b                   22.791(4)
_cell_length_c                   16.307(3)
_cell_angle_alpha                90
_cell_angle_beta                 92.755(3)
_cell_angle_gamma                90
_cell_volume                     2447.62
loop_
_atom_site_label
_atom_site_type_symbol
_atom_site_fract_x
_atom_site_fract_y
_atom_site_fract_z
Zn1 Zn 0.29132(6) 0.457340(17) 0.75269(2)
S1 S 0.04611(14) 0.29217(4) 0.94735(5)
S2 S -0.47313(14) 0.19566(4) 1.03319(5)
O1 O 0.0360(3) 0.42682(10) 0.79724(13)
O2 O 0.2879(4) 0.37286(10) 0.84755(15)
O3 O -0.4632(3) 0.07321(10) 1.20227(13)
O4 O -0.7219(4) 0.11556(10) 1.13376(15)
O5 O 0.4243(4) 0.50983(11) 0.83750(14)
O6 O 0.1649(4) 0.51876(10) 0.67790(15)
N1 N 0.6985(6) 0.55070(16) 0.9021(2)
N2 N -0.0911(5) 0.54254(14) 0.58739(18)
C1 C 0.1053(6) 0.38390(15) 0.84014(19)
C2 C -0.0413(5) 0.34676(14) 0.88166(19)
C3 C -0.2463(5) 0.34834(15) 0.8764(2)
H1 H -0.3206 0.3747 0.8434
C4 C -0.3357(5) 0.30602(15) 0.9261(2)
H2 H -0.4753 0.3014 0.9292
C5 C -0.1963(5) 0.27239(14) 0.96933(19)
C6 C -0.2329(5) 0.22541(14) 1.02732(19)
C7 C -0.1001(5) 0.19959(14) 1.08305(19)
H3 H 0.0366 0.2095 1.0890
C8 C -0.1908(5) 0.15665(14) 1.13025(19)
H4 H -0.1204 0.1351 1.1709
C9 C -0.3901(5) 0.14947(14) 1.11117(19)
C10 C -0.5388(6) 0.11062(15) 1.1503(2)
C11 C -0.0080(7) 0.51064(16) 0.6461(2)
H5 H -0.0833 0.4796 0.6656
C12 C -0.2977(7) 0.53196(19) 0.5550(2)
H6 H -0.3478 0.4962 0.5778
H7 H -0.2984 0.5286 0.4963
H8 H -0.3831 0.5640 0.5697
C13 C 0.0109(6) 0.59396(17) 0.5576(2)
H9 H -0.0468 0.6285 0.5808
H10 H -0.0057 0.5956 0.4989
H11 H 0.1528 0.5919 0.5735
C14 C 0.6100(7) 0.51536(17) 0.8481(2)
H12 H 0.6924 0.4930 0.8156
C15 C 0.9198(8) 0.5594(2) 0.9068(3)
H13 H 0.9827 0.5311 0.8726
H14 H 0.9705 0.5546 0.9626
H15 H 0.9508 0.5983 0.8884
C16 C 0.5750(8) 0.5878(2) 0.9518(3)
H16 H 0.4359 0.5753 0.9461
H17 H 0.5854 0.6277 0.9340
H18 H 0.6217 0.5848 1.0084
Zn1C Zn -0.70868(6) 0.042660(17) 1.25269(2)
O3C O 0.5368(3) 0.42679(10) 0.70227(13)
O4C O 0.2781(4) 0.38444(10) 0.63376(15)
O7 O -0.7251(8) 0.1176(2) 0.7781(3)
N3 N -0.4871(8) 0.18521(19) 0.7563(2)
C17 C -0.6323(9) 0.2310(2) 0.7421(4)
H19 H -0.6717 0.2325 0.6847
H20 H -0.5732 0.2679 0.7589
H21 H -0.7496 0.2234 0.7731
C18 C -0.2741(10) 0.1969(2) 0.7481(3)
H22 H -0.1974 0.1618 0.7602
H23 H -0.2310 0.2273 0.7857
H24 H -0.2520 0.2092 0.6929
C19 C -0.5476(12) 0.1329(3) 0.7747(4)
H25 H -0.4482 0.1047 0.7861
loop_
_geom_bond_atom_site_label_1
_geom_bond_atom_site_label_2
_geom_bond_site_symmetry_1
_geom_bond_site_symmetry_2
Zn1 O1 1_555 1_555
S1 C2 1_555 1_555
S2 C6 1_555 1_555
O1 C1 1_555 1_555
O2 Zn1 1_555 1_555
O3 C10 1_555 1_555
O4 C10 1_555 1_555
O5 Zn1 1_555 1_555
O6 Zn1 1_555 1_555
N1 C14 1_555 1_555
N2 C11 1_555 1_555
C1 O2 1_555 1_555
C2 C1 1_555 1_555
C3 C2 1_555 1_555
H1 C3 1_555 1_555
C4 C3 1_555 1_555
H2 C4 1_555 1_555
C5 S1 1_555 1_555
C6 C5 1_555 1_555
C7 C6 1_555 1_555
H3 C7 1_555 1_555
C8 C7 1_555 1_555
H4 C8 1_555 1_555
C9 S2 1_555 1_555
C10 C9 1_555 1_555
C11 O6 1_555 1_555
H5 C11 1_555 1_555
C12 N2 1_555 1_555
H6 C12 1_555 1_555
H7 C12 1_555 1_555
H8 C12 1_555 1_555
C13 N2 1_555 1_555
H9 C13 1_555 1_555
H10 C13 1_555 1_555
H11 C13 1_555 1_555
C14 O5 1_555 1_555
H12 C14 1_555 1_555
C15 N1 1_555 1_555
H13 C15 1_555 1_555
H14 C15 1_555 1_555
H15 C15 1_555 1_555
C16 N1 1_555 1_555
H16 C16 1_555 1_555
H17 C16 1_555 1_555
H18 C16 1_555 1_555
O7 C19 1_555 1_555
N3 C17 1_555 1_555
C17 H19 1_555 1_555
H20 C17 1_555 1_555
H21 C17 1_555 1_555
C18 N3 1_555 1_555
H22 C18 1_555 1_555
H23 C18 1_555 1_555
H24 C18 1_555 1_555
C19 N3 1_555 1_555
H25 C19 1_555 1_555
Zn1C O3 1_555 1_555
O3C Zn1 1_555 1_555
O4C Zn1 1_555 1_555
O4 Zn1C 1_555 1_555
C4 C5 1_555 1_555
C8 C9 1_555 1_555

#END
