
#######################################################################
#
#                 Cambridge Crystallographic Data Centre
#                                CCDC 
#
#######################################################################
#
# If this CIF has been generated from an entry in the Cambridge 
# Structural Database, then it will include bibliographic, chemical, 
# crystal, experimental, refinement or atomic coordinate data resulting 
# from the CCDC's data processing and validation procedures.
#
#######################################################################

data_UWUGAV
_symmetry_cell_setting           monoclinic
_symmetry_space_group_name_H-M   'P 21'
_symmetry_Int_Tables_number      4
_space_group_name_Hall           'P 2yb'
loop_
_symmetry_equiv_pos_site_id
_symmetry_equiv_pos_as_xyz
1 x,y,z
2 -x,1/2+y,-z
_cell_length_a                   7.5590(16)
_cell_length_b                   12.466(3)
_cell_length_c                   17.421(4)
_cell_angle_alpha                90
_cell_angle_beta                 95.195(3)
_cell_angle_gamma                90
_cell_volume                     1634.85
loop_
_atom_site_label
_atom_site_type_symbol
_atom_site_fract_x
_atom_site_fract_y
_atom_site_fract_z
C1 C -0.1625(17) 0.3218(12) -0.1060(7)
H1 H -0.0742 0.3499 -0.1368
H2 H -0.2560 0.3734 -0.1034
H3 H -0.2106 0.2568 -0.1289
C2 C -0.079(2) 0.2986(16) -0.0262(8)
C3 C 0.007(2) 0.2006(14) -0.0159(7)
H4 H 0.0107 0.1523 -0.0564
C4 C 0.089(2) 0.1769(14) 0.0583(7)
H5 H 0.1590 0.1157 0.0647
C5 C 0.0694(17) 0.2389(14) 0.1200(7)
C6 C -0.0170(16) 0.3349(11) 0.1096(7)
H6 H -0.0235 0.3816 0.1509
C7 C -0.097(2) 0.3633(13) 0.0345(8)
H7 H -0.1623 0.4265 0.0278
C8 C -0.0697(9) 0.2147(6) 0.3213(4)
H8 H -0.0710 0.2921 0.3114
C9 C -0.2550(10) 0.1781(6) 0.3385(4)
H9 H -0.3345 0.1802 0.2916
H10 H -0.2496 0.1047 0.3572
C10 C -0.3249(10) 0.2500(8) 0.3984(5)
H11 H -0.3636 0.3169 0.3738
H12 H -0.2282 0.2666 0.4370
C11 C -0.4796(10) 0.2031(7) 0.4390(4)
C12 C 0.0583(9) 0.1905(6) 0.3924(4)
C13 C 0.4609(10) 0.1153(7) 0.6307(4)
C14 C 0.5920(10) 0.0949(7) 0.7022(4)
H13 H 0.5667 0.1479 0.7413
C15 C 0.7832(10) 0.1153(8) 0.6813(4)
H14 H 0.7913 0.1886 0.6632
H15 H 0.8638 0.1083 0.7277
C16 C 0.8451(11) 0.0395(9) 0.6195(5)
H16 H 0.8784 -0.0287 0.6435
H17 H 0.7463 0.0264 0.5812
C17 C 0.9989(9) 0.0812(6) 0.5798(4)
C18 C 0.4783(11) -0.0017(8) 0.8830(5)
C19 C 0.5589(15) -0.0807(11) 0.9272(6)
H18 H 0.5755 -0.1488 0.9072
C20 C 0.6152(15) -0.0561(13) 1.0027(6)
H19 H 0.6695 -0.1096 1.0337
C21 C 0.5948(13) 0.0436(12) 1.0341(5)
C22 C 0.519(2) 0.1172(11) 0.9895(7)
H20 H 0.5065 0.1859 1.0091
C23 C 0.4523(18) 0.0956(12) 0.9098(7)
H21 H 0.3941 0.1481 0.8791
C24 C 0.6543(17) 0.0636(12) 1.1181(6)
H22 H 0.6542 0.1393 1.1281
H23 H 0.7721 0.0358 1.1297
H24 H 0.5745 0.0285 1.1498
Cu1 Cu 0.23587(11) 0.24471(7) 0.53576(5)
Cu2 Cu 0.28333(11) 0.05019(6) 0.48589(5)
N1 N 0.5662(9) -0.0099(6) 0.7345(4)
H25 H 0.6390 -0.0610 0.7266
N2 N -0.0193(9) 0.1577(6) 0.2533(4)
H26 H -0.0802 0.1037 0.2350
O1 O 0.1350(8) 0.1029(5) 0.3943(3)
O2 O 0.0748(7) 0.2613(5) 0.4433(3)
O3 O -0.5654(7) 0.2724(5) 0.4735(3)
O4 O -0.5055(8) 0.1062(5) 0.4391(3)
O5 O 0.4102(8) 0.2099(5) 0.6222(3)
O6 O 0.4255(6) 0.0382(5) 0.5859(3)
O7 O 1.0495(7) 0.1765(5) 0.5917(3)
O8 O 1.0662(7) 0.0182(4) 0.5359(3)
O9 O 0.3158(9) -0.1028(5) 0.4360(3)
O10 O 0.1830(9) 0.4109(5) 0.5671(3)
O11 O 0.2210(9) 0.2920(7) 0.2534(5)
O12 O 0.2690(9) 0.1097(7) 0.2038(4)
O13 O 0.2636(8) 0.0428(8) 0.7606(4)
O14 O 0.3654(9) -0.1457(6) 0.7826(4)
H27 H 0.3700 -0.1625 0.4260
H28 H 0.2325 -0.0963 0.3997
S1 S 0.1543(3) 0.1985(2) 0.21292(13)
S2 S 0.4016(3) -0.0320(2) 0.78531(11)
H35 H 0.2870 0.4342 0.5816
H36 H 0.1404 0.4514 0.5306
Cu1_2 Cu -0.76413(11) 0.24471(7) 0.53576(5)
Cu1_3 Cu 1.23587(11) 0.24471(7) 0.53576(5)
Cu2_2 Cu -0.71667(11) 0.05019(6) 0.48589(5)
Cu2_3 Cu 1.28333(11) 0.05019(6) 0.48589(5)
O3_2 O 0.4346(7) 0.2724(5) 0.4735(3)
O4_2 O 0.4945(8) 0.1062(5) 0.4391(3)
O7_2 O 0.0495(7) 0.1765(5) 0.5917(3)
O8_2 O 0.0662(7) 0.0182(4) 0.5359(3)
O15 O 0.3235(15) 0.3038(7) 0.7771(6)
H29 H 0.3149 0.2762 0.7306
H30 H 0.3307 0.3723 0.7690
O16 O 1.0157(10) 0.4164(7) 0.7190(4)
H31 H 1.0494 0.4110 0.6731
H32 H 0.9106 0.4434 0.7132
O17 O 0.6211(13) 0.4197(9) 0.7158(5)
H33 H 0.5763 0.3710 0.7433
H34 H 0.5854 0.4804 0.7358
loop_
_geom_bond_atom_site_label_1
_geom_bond_atom_site_label_2
_geom_bond_site_symmetry_1
_geom_bond_site_symmetry_2
C1 H1 1_555 1_555
H2 C1 1_555 1_555
H3 C1 1_555 1_555
C2 C1 1_555 1_555
C3 C2 1_555 1_555
H4 C3 1_555 1_555
C4 C3 1_555 1_555
H5 C4 1_555 1_555
C5 C4 1_555 1_555
C6 C5 1_555 1_555
H6 C6 1_555 1_555
C7 C2 1_555 1_555
H7 C7 1_555 1_555
C8 H8 1_555 1_555
C9 C8 1_555 1_555
H9 C9 1_555 1_555
H10 C9 1_555 1_555
C10 C9 1_555 1_555
H11 C10 1_555 1_555
H12 C10 1_555 1_555
C11 C10 1_555 1_555
C12 C8 1_555 1_555
C13 C14 1_555 1_555
C14 H13 1_555 1_555
C15 C14 1_555 1_555
H14 C15 1_555 1_555
H15 C15 1_555 1_555
C16 C15 1_555 1_555
H16 C16 1_555 1_555
H17 C16 1_555 1_555
C17 C16 1_555 1_555
C18 C19 1_555 1_555
C19 H18 1_555 1_555
C20 C19 1_555 1_555
H19 C20 1_555 1_555
C21 C20 1_555 1_555
C22 C21 1_555 1_555
H20 C22 1_555 1_555
C23 C18 1_555 1_555
H21 C23 1_555 1_555
C24 C21 1_555 1_555
H22 C24 1_555 1_555
H23 C24 1_555 1_555
H24 C24 1_555 1_555
Cu1 Cu2 1_555 1_555
Cu2 O1 1_555 1_555
N1 C14 1_555 1_555
H25 N1 1_555 1_555
N2 C8 1_555 1_555
H26 N2 1_555 1_555
O1 C12 1_555 1_555
O2 C12 1_555 1_555
O3 C11 1_555 1_555
O4 C11 1_555 1_555
O5 C13 1_555 1_555
O6 C13 1_555 1_555
O7 C17 1_555 1_555
O8 C17 1_555 1_555
O9 Cu2 1_555 1_555
O10 Cu1 1_555 1_555
O11 S1 1_555 1_555
O12 S1 1_555 1_555
O13 S2 1_555 1_555
O14 S2 1_555 1_555
O15 H29 1_555 1_555
O16 H31 1_555 1_555
O17 H33 1_555 1_555
H27 O9 1_555 1_555
H28 O9 1_555 1_555
S1 C5 1_555 1_555
S2 C18 1_555 1_555
H30 O15 1_555 1_555
H32 O16 1_555 1_555
H34 O17 1_555 1_555
H35 O10 1_555 1_555
H36 O10 1_555 1_555
Cu1_2 O3 1_555 1_555
Cu1_3 O7 1_555 1_555
Cu2_2 O4 1_555 1_555
Cu2_3 O8 1_555 1_555
O3_2 Cu1 1_555 1_555
O4_2 Cu2 1_555 1_555
O7_2 Cu1 1_555 1_555
O8_2 Cu2 1_555 1_555
C6 C7 1_555 1_555
C22 C23 1_555 1_555
Cu1 O2 1_555 1_555
Cu1 O5 1_555 1_555
Cu2 O6 1_555 1_555
N1 S2 1_555 1_555
N2 S1 1_555 1_555
Cu1_2 Cu2_2 1_555 1_555
Cu1_3 Cu2_3 1_555 1_555

#END
