
#######################################################################
#
#                 Cambridge Crystallographic Data Centre
#                                CCDC 
#
#######################################################################
#
# If this CIF has been generated from an entry in the Cambridge 
# Structural Database, then it will include bibliographic, chemical, 
# crystal, experimental, refinement or atomic coordinate data resulting 
# from the CCDC's data processing and validation procedures.
#
#######################################################################

data_UXACIG
_symmetry_cell_setting           triclinic
_symmetry_space_group_name_H-M   'P -1'
_symmetry_Int_Tables_number      2
_space_group_name_Hall           '-P 1'
loop_
_symmetry_equiv_pos_site_id
_symmetry_equiv_pos_as_xyz
1 x,y,z
2 -x,-y,-z
_cell_length_a                   7.677(1)
_cell_length_b                   8.018(1)
_cell_length_c                   22.389(2)
_cell_angle_alpha                94.55(1)
_cell_angle_beta                 93.33(1)
_cell_angle_gamma                101.86(1)
_cell_volume                     1340.55
loop_
_atom_site_label
_atom_site_type_symbol
_atom_site_fract_x
_atom_site_fract_y
_atom_site_fract_z
Er1 Er 0.77890(3) 0.23681(3) 0.052493(10)
Er2 Er 0.90776(3) -0.18393(3) -0.445780(10)
O1 O 0.9516(6) 0.1813(6) -0.03144(19)
O2 O 0.6644(6) 0.1505(6) -0.05132(19)
O3 O 0.7829(6) -0.0786(5) -0.36192(18)
O4 O 0.4902(6) -0.1073(8) -0.3800(2)
O5 O 1.0607(6) 0.2871(6) 0.08894(19)
O6 O 1.3143(6) 0.4783(6) 0.10328(19)
O7 O 1.1964(6) 0.4366(5) 0.41500(19)
O8 O 1.3521(7) 0.7025(6) 0.4356(2)
O9 O 0.7763(6) 0.4474(5) 0.13465(18)
O10 O 0.7158(6) 0.1797(5) 0.15350(18)
O11 O 0.8201(6) 0.6363(5) 0.45541(19)
O12 O 0.9732(6) 0.8953(5) 0.45169(18)
O13 O 0.7557(6) -0.0598(5) 0.05008(19)
O14 O 0.4785(6) 0.2398(6) 0.0479(2)
O15 O 0.7976(6) 0.4936(5) 0.01098(19)
O16 O 0.6353(6) -0.1392(7) -0.4825(2)
O17 O 1.1296(6) -0.1311(6) -0.3629(2)
O18 O 1.1539(6) -0.3019(5) -0.46877(19)
C1 C 0.8141(8) 0.1461(7) -0.0697(2)
C2 C 0.8428(8) 0.1031(9) -0.1332(3)
H1 H 0.9586 0.1023 -0.1432
C3 C 0.7121(8) 0.0653(8) -0.1770(3)
H2 H 0.5967 0.0679 -0.1671
C4 C 0.7393(8) 0.0205(8) -0.2392(3)
H3 H 0.8541 0.0158 -0.2492
C5 C 0.6096(8) -0.0138(8) -0.2821(3)
H4 H 0.4968 -0.0022 -0.2718
C6 C 0.6288(8) -0.0700(8) -0.3462(3)
C7 C 1.1871(8) 0.3783(8) 0.1239(3)
C8 C 1.1793(8) 0.3647(8) 0.1886(3)
H5 H 1.0957 0.2753 0.2009
C9 C 1.2826(9) 0.4704(8) 0.2308(3)
H6 H 1.3739 0.5542 0.2191
C10 C 1.2600(9) 0.4614(8) 0.2941(3)
H7 H 1.1815 0.3662 0.3051
C11 C 1.3416(9) 0.5773(8) 0.3380(3)
H8 H 1.4310 0.6663 0.3285
C12 C 1.2965(8) 0.5709(7) 0.4010(3)
C13 C 0.7412(8) 0.3374(8) 0.1717(3)
C14 C 0.7285(9) 0.3861(8) 0.2362(3)
H9 H 0.6541 0.3098 0.2576
C15 C 0.8172(9) 0.5324(7) 0.2652(3)
H10 H 0.8852 0.6125 0.2434
C16 C 0.8130(9) 0.5731(8) 0.3292(3)
H11 H 0.7406 0.4948 0.3506
C17 C 0.9083(9) 0.7181(8) 0.3596(3)
H12 H 0.9800 0.7993 0.3392
C18 C 0.8992(8) 0.7487(7) 0.4254(2)
H13 H 1.212(13) -0.275(12) -0.506(3)
H14 H 1.137(14) -0.427(4) -0.465(4)
H15 H 1.152(12) -0.077(11) -0.3207(17)
H16 H 1.254(5) -0.122(13) -0.375(4)
H17 H 0.563(11) -0.164(13) -0.522(2)
H18 H 0.557(11) -0.206(12) -0.454(3)
H19 H 0.761(13) 0.511(11) -0.0314(17)
H20 H 0.855(13) 0.607(6) 0.032(4)
H21 H 0.399(11) 0.173(10) 0.014(3)
H22 H 0.483(14) 0.163(9) 0.080(3)
H23 H 0.678(11) -0.126(11) 0.078(4)
H24 H 0.872(7) -0.097(12) 0.048(4)
O7A O 0.8036(6) -0.4366(5) -0.41500(19)
O11_2 O 0.8201(6) -0.3637(5) -0.54459(19)
O12A O 1.0268(6) 0.1047(5) -0.45169(18)
O12_2 O 0.9732(6) -0.1047(5) -0.54831(18)
Er2A Er 1.09224(3) 0.18393(3) 0.445780(10)
Er2_2 Er 0.90776(3) 0.81607(3) 0.554220(10)
Er2A_2 Er 1.09224(3) 1.18393(3) 0.445780(10)
O19 O 0.6321(6) -0.2662(6) 0.1346(2)
H25 H 0.681(11) -0.363(8) 0.148(4)
H26 H 0.511(6) -0.323(11) 0.116(4)
O20 O 0.8109(7) -0.0327(7) 0.2392(2)
H27 H 0.773(13) 0.046(9) 0.211(3)
H28 H 0.759(13) -0.143(6) 0.215(4)
loop_
_geom_bond_atom_site_label_1
_geom_bond_atom_site_label_2
_geom_bond_site_symmetry_1
_geom_bond_site_symmetry_2
Er1 O1 1_555 1_555
Er2 O3 1_555 1_555
O1 C1 1_555 1_555
O2 Er1 1_555 1_555
O3 C6 1_555 1_555
O4 C6 1_555 1_555
O5 Er1 1_555 1_555
O6 C7 1_555 1_555
O7 C12 1_555 1_555
O8 C12 1_555 1_555
O9 Er1 1_555 1_555
O10 Er1 1_555 1_555
O11 C18 1_555 1_555
O12 C18 1_555 1_555
O13 Er1 1_555 1_555
O14 Er1 1_555 1_555
O15 Er1 1_555 1_555
O16 Er2 1_555 1_555
O17 Er2 1_555 1_555
O18 Er2 1_555 1_555
C1 O2 1_555 1_555
C2 C1 1_555 1_555
H1 C2 1_555 1_555
C3 C2 1_555 1_555
H2 C3 1_555 1_555
C4 C3 1_555 1_555
H3 C4 1_555 1_555
C5 C4 1_555 1_555
H4 C5 1_555 1_555
C6 C5 1_555 1_555
C7 O5 1_555 1_555
C8 C7 1_555 1_555
H5 C8 1_555 1_555
C9 C8 1_555 1_555
H6 C9 1_555 1_555
C10 C9 1_555 1_555
H7 C10 1_555 1_555
C11 C10 1_555 1_555
H8 C11 1_555 1_555
C12 C11 1_555 1_555
C13 O9 1_555 1_555
C14 C13 1_555 1_555
H9 C14 1_555 1_555
C15 C14 1_555 1_555
H10 C15 1_555 1_555
C16 C15 1_555 1_555
H11 C16 1_555 1_555
C17 C16 1_555 1_555
H12 C17 1_555 1_555
C18 C17 1_555 1_555
H13 O18 1_555 1_555
H14 O18 1_555 1_555
H15 O17 1_555 1_555
H16 O17 1_555 1_555
H17 O16 1_555 1_555
H18 O16 1_555 1_555
H19 O15 1_555 1_555
H20 O15 1_555 1_555
H21 O14 1_555 1_555
H22 O14 1_555 1_555
H23 O13 1_555 1_555
H24 O13 1_555 1_555
O19 H25 1_555 1_555
H26 O19 1_555 1_555
O20 H27 1_555 1_555
H28 O20 1_555 1_555
O7A Er2 1_555 1_555
O11_2 Er2 1_555 1_555
O12A Er2 1_555 1_555
O12_2 Er2 1_555 1_555
Er2A O7 1_555 1_555
Er2_2 O11 1_555 1_555
Er2A_2 O12 1_555 1_555
O10 C13 1_555 1_555
O12 Er2_2 1_555 1_555

#END
