
#######################################################################
#
#                 Cambridge Crystallographic Data Centre
#                                CCDC 
#
#######################################################################
#
# If this CIF has been generated from an entry in the Cambridge 
# Structural Database, then it will include bibliographic, chemical, 
# crystal, experimental, refinement or atomic coordinate data resulting 
# from the CCDC's data processing and validation procedures.
#
#######################################################################

data_UXACOM01
_symmetry_cell_setting           triclinic
_symmetry_space_group_name_H-M   'P -1'
_symmetry_Int_Tables_number      2
_space_group_name_Hall           '-P 1'
loop_
_symmetry_equiv_pos_site_id
_symmetry_equiv_pos_as_xyz
1 x,y,z
2 -x,-y,-z
_cell_length_a                   7.6940(10)
_cell_length_b                   8.0330(10)
_cell_length_c                   22.392(3)
_cell_angle_alpha                94.750(10)
_cell_angle_beta                 93.000(10)
_cell_angle_gamma                101.840(10)
_cell_volume                     1346.45
loop_
_atom_site_label
_atom_site_type_symbol
_atom_site_fract_x
_atom_site_fract_y
_atom_site_fract_z
Y1 Y 0.77698(6) 0.23701(6) 0.052734(19)
Y2 Y 1.09200(6) 0.18440(6) 0.445608(19)
O1 O 0.9517(4) 0.1815(4) -0.03157(14)
O2 O 0.6639(4) 0.1479(4) -0.05129(14)
O3 O 0.7819(4) -0.0811(4) -0.36154(14)
O4 O 0.4888(5) -0.1067(6) -0.37936(17)
O5 O 1.0584(5) 0.2891(5) 0.08947(15)
O6 O 1.3115(5) 0.4802(5) 0.10390(15)
O7 O 1.1979(5) 0.4373(4) 0.41559(15)
O8 O 1.3538(5) 0.7023(5) 0.43615(16)
O9 O 0.7720(5) 0.4485(4) 0.13488(14)
O10 O 0.7127(5) 0.1811(4) 0.15411(14)
O11 O 0.8230(5) 0.6365(4) 0.45518(15)
O12 O 0.9764(5) 0.8953(4) 0.45162(14)
O13 O 0.7558(5) -0.0589(4) 0.05043(16)
O14 O 0.4778(5) 0.2404(5) 0.04744(17)
O15 O 0.7983(5) 0.4929(4) 0.01090(15)
O16 O 1.3632(5) 0.1411(6) 0.48243(17)
O17 O 0.8699(5) 0.1285(5) 0.36270(16)
O18 O 0.8443(5) 0.3001(4) 0.46784(16)
C1 C 0.8145(7) 0.1458(6) -0.0700(2)
C2 C 0.8429(7) 0.1014(7) -0.1332(2)
H1 H 0.9582 0.0998 -0.1434
C3 C 0.7136(7) 0.0636(6) -0.1763(2)
H2 H 0.5987 0.0666 -0.1660
C4 C 0.7388(7) 0.0179(6) -0.2387(2)
H3 H 0.8531 0.0122 -0.2490
C5 C 0.6088(7) -0.0163(6) -0.2819(2)
H4 H 0.4962 -0.0041 -0.2716
C6 C 0.6288(7) -0.0722(6) -0.3451(2)
C7 C 1.1849(6) 0.3825(6) 0.1237(2)
C8 C 1.1769(7) 0.3675(7) 0.1889(2)
H5 H 1.0950 0.2770 0.2012
C9 C 1.2786(7) 0.4745(7) 0.2306(2)
H6 H 1.3668 0.5604 0.2188
C10 C 1.2582(8) 0.4633(7) 0.2937(2)
H7 H 1.1806 0.3678 0.3047
C11 C 1.3419(7) 0.5791(7) 0.3378(2)
H8 H 1.4332 0.6661 0.3284
C12 C 1.2946(7) 0.5740(7) 0.4012(2)
C13 C 0.7365(7) 0.3375(6) 0.1724(2)
C14 C 0.7284(7) 0.3871(6) 0.2363(2)
H9 H 0.6562 0.3108 0.2583
C15 C 0.8168(7) 0.5332(6) 0.2651(2)
H10 H 0.8841 0.6127 0.2430
C16 C 0.8141(7) 0.5753(7) 0.3289(2)
H11 H 0.7405 0.4979 0.3502
C17 C 0.9092(7) 0.7170(6) 0.3599(2)
H12 H 0.9827 0.7973 0.3397
C18 C 0.9003(7) 0.7485(6) 0.4250(2)
H13 H 0.863(9) 0.087(9) 0.3276(13)
H14 H 0.765(4) 0.122(9) 0.371(3)
H15 H 0.844(10) 0.398(4) 0.460(3)
H16 H 0.860(8) 0.587(5) 0.023(3)
H17 H 0.418(8) 0.184(8) 0.018(2)
H18 H 0.756(9) 0.497(8) -0.0235(14)
H19 H 0.712(8) -0.120(7) 0.077(2)
H20 H 0.422(8) 0.295(8) 0.068(3)
H21 H 1.428(7) 0.130(9) 0.455(2)
H22 H 1.425(8) 0.171(9) 0.5136(17)
H23 H 0.855(5) -0.079(9) 0.044(3)
H24 H 0.787(8) 0.286(9) 0.498(2)
Y2A Y 0.90800(6) -0.18440(6) -0.445608(19)
Y2A_2 Y 0.90800(6) 0.81560(6) 0.554392(19)
Y2_2 Y 1.09200(6) 1.18440(6) 0.445608(19)
O3A O 1.2181(4) 0.0811(4) 0.36154(14)
O11A O 1.1770(5) 0.3635(4) 0.54482(15)
O12_2 O 0.9764(5) -0.1047(4) 0.45162(14)
O12A O 1.0236(5) 0.1047(4) 0.54838(14)
O19 O 0.6297(5) -0.2653(5) 0.13458(19)
H25 H 0.524(4) -0.306(8) 0.124(3)
H26 H 0.679(8) -0.346(6) 0.139(3)
O20 O 0.8113(6) -0.0319(5) 0.23837(19)
H27 H 0.745(8) -0.126(5) 0.230(3)
H28 H 0.783(9) 0.041(6) 0.218(3)
loop_
_geom_bond_atom_site_label_1
_geom_bond_atom_site_label_2
_geom_bond_site_symmetry_1
_geom_bond_site_symmetry_2
Y1 O1 1_555 1_555
Y2 O7 1_555 1_555
O1 C1 1_555 1_555
O2 Y1 1_555 1_555
O3 C6 1_555 1_555
O4 C6 1_555 1_555
O5 Y1 1_555 1_555
O6 C7 1_555 1_555
O7 C12 1_555 1_555
O8 C12 1_555 1_555
O9 Y1 1_555 1_555
O10 Y1 1_555 1_555
O11 C18 1_555 1_555
O12 C18 1_555 1_555
O13 Y1 1_555 1_555
O14 Y1 1_555 1_555
O15 Y1 1_555 1_555
O16 Y2 1_555 1_555
O17 Y2 1_555 1_555
O18 Y2 1_555 1_555
C1 O2 1_555 1_555
C2 C1 1_555 1_555
H1 C2 1_555 1_555
C3 C2 1_555 1_555
H2 C3 1_555 1_555
C4 C3 1_555 1_555
H3 C4 1_555 1_555
C5 C4 1_555 1_555
H4 C5 1_555 1_555
C6 C5 1_555 1_555
C7 O5 1_555 1_555
C8 C7 1_555 1_555
H5 C8 1_555 1_555
C9 C8 1_555 1_555
H6 C9 1_555 1_555
C10 C9 1_555 1_555
H7 C10 1_555 1_555
C11 C10 1_555 1_555
H8 C11 1_555 1_555
C12 C11 1_555 1_555
C13 O9 1_555 1_555
C14 C13 1_555 1_555
H9 C14 1_555 1_555
C15 C14 1_555 1_555
H10 C15 1_555 1_555
C16 C15 1_555 1_555
H11 C16 1_555 1_555
C17 C16 1_555 1_555
H12 C17 1_555 1_555
C18 C17 1_555 1_555
H13 O17 1_555 1_555
H14 O17 1_555 1_555
H15 O18 1_555 1_555
H16 O15 1_555 1_555
H17 O14 1_555 1_555
H18 O15 1_555 1_555
H19 O13 1_555 1_555
H20 O14 1_555 1_555
H21 O16 1_555 1_555
H22 O16 1_555 1_555
H23 O13 1_555 1_555
H24 O18 1_555 1_555
O19 H25 1_555 1_555
H26 O19 1_555 1_555
O20 H27 1_555 1_555
H28 O20 1_555 1_555
Y2A O3 1_555 1_555
Y2A_2 O11 1_555 1_555
Y2_2 O12 1_555 1_555
O3A Y2 1_555 1_555
O11A Y2 1_555 1_555
O12_2 Y2 1_555 1_555
O12A Y2 1_555 1_555
O10 C13 1_555 1_555
O12 Y2A_2 1_555 1_555

#END
