
#######################################################################
#
#                 Cambridge Crystallographic Data Centre
#                                CCDC 
#
#######################################################################
#
# If this CIF has been generated from an entry in the Cambridge 
# Structural Database, then it will include bibliographic, chemical, 
# crystal, experimental, refinement or atomic coordinate data resulting 
# from the CCDC's data processing and validation procedures.
#
#######################################################################

data_UXEKAK
_symmetry_cell_setting           monoclinic
_symmetry_space_group_name_H-M   'P 21/n'
_symmetry_Int_Tables_number      14
_space_group_name_Hall           '-P 2yn'
loop_
_symmetry_equiv_pos_site_id
_symmetry_equiv_pos_as_xyz
1 x,y,z
2 1/2-x,1/2+y,1/2-z
3 -x,-y,-z
4 1/2+x,1/2-y,1/2+z
_cell_length_a                   11.0755(10)
_cell_length_b                   11.1386(8)
_cell_length_c                   16.5852(14)
_cell_angle_alpha                90
_cell_angle_beta                 103.199(4)
_cell_angle_gamma                90
_cell_volume                     1991.99
loop_
_atom_site_label
_atom_site_type_symbol
_atom_site_fract_x
_atom_site_fract_y
_atom_site_fract_z
Cu1 Cu 0.84852(3) 0.12179(3) 0.24007(2)
Cu2 Cu 0.99709(3) -0.03828(3) 0.40699(2)
N1 N 0.9648(2) 0.0729(2) 0.15991(14)
N2 N 0.7157(2) 0.0868(2) 0.14346(16)
N3 N 0.6922(2) 0.1341(2) 0.29116(17)
C1 C 0.4721(3) 0.1018(3) 0.2555(3)
H1 H 0.4006 0.0842 0.2155
C2 C 1.0691(3) -0.0069(3) 0.2024(2)
H2 H 1.0341 -0.0740 0.2265
H3 H 1.1207 0.0379 0.2476
C3 C 0.5856(3) 0.1080(3) 0.2354(2)
C4 C 0.8805(3) 0.0029(3) 0.09287(19)
H4 H 0.8703 -0.0776 0.1125
H5 H 0.9176 -0.0034 0.0454
C5 C 0.6846(3) 0.1547(3) 0.3691(2)
H6 H 0.7566 0.1731 0.4084
C6 C 1.1032(3) 0.2571(3) 0.1830(2)
H7 H 1.1282 0.3246 0.1547
H8 H 1.1746 0.2095 0.2071
H9 H 1.0649 0.2851 0.2259
C7 C 1.0118(3) 0.1817(3) 0.1222(2)
H10 H 0.9415 0.2315 0.0968
H11 H 1.0510 0.1552 0.0786
N4 N 1.1611(3) -0.2350(3) 0.4213(2)
C8 C 0.6051(3) 0.0843(3) 0.1517(2)
H12 H 0.5391 0.0683 0.1072
C9 C 0.7541(3) 0.0630(3) 0.06671(19)
H13 H 0.7601 0.1372 0.0372
H14 H 0.6953 0.0104 0.0311
C10 C 1.1522(3) -0.0567(3) 0.1482(2)
H15 H 1.2151 -0.1068 0.1811
H16 H 1.1905 0.0085 0.1256
H17 H 1.1030 -0.1032 0.1039
C11 C 0.4674(4) 0.1225(4) 0.3370(3)
H18 H 0.3923 0.1180 0.3529
N5 N 1.1239(4) -0.1483(4) 0.3824(3)
N6 N 1.2074(4) -0.3154(3) 0.4519(2)
N7 N 0.9744(2) 0.1375(2) 0.34379(15)
N8 N 0.7314(3) 0.3682(2) 0.19813(16)
N9 N 0.9994(3) 0.2318(3) 0.37949(18)
N10 N 0.6304(3) 0.4088(3) 0.19253(19)
C12 C 0.5736(4) 0.1496(3) 0.3937(3)
H19 H 0.5714 0.1644 0.4485
N11 N 0.8299(3) 0.3309(2) 0.20940(19)
N12 N 1.0255(4) 0.3202(3) 0.4132(3)
N13 N 1.1157(2) 0.0296(3) 0.50507(17)
N14 N 1.2116(3) 0.0751(3) 0.49867(17)
N15 N 1.3019(3) 0.1173(3) 0.4917(2)
Cu2A Cu 0.50291(3) 0.46172(3) 0.09301(2)
Cu2B Cu 1.00291(3) 0.03828(3) 0.59301(2)
N10A N 0.8696(3) -0.0912(3) 0.30747(19)
N13B N 0.8843(2) -0.0296(3) 0.49493(17)
loop_
_geom_bond_atom_site_label_1
_geom_bond_atom_site_label_2
_geom_bond_site_symmetry_1
_geom_bond_site_symmetry_2
Cu1 N1 1_555 1_555
Cu2 N5 1_555 1_555
N1 C2 1_555 1_555
N2 Cu1 1_555 1_555
N3 Cu1 1_555 1_555
C1 H1 1_555 1_555
C2 H2 1_555 1_555
H3 C2 1_555 1_555
C3 N3 1_555 1_555
C4 N1 1_555 1_555
H4 C4 1_555 1_555
H5 C4 1_555 1_555
C5 N3 1_555 1_555
H6 C5 1_555 1_555
C6 H7 1_555 1_555
H8 C6 1_555 1_555
H9 C6 1_555 1_555
C7 N1 1_555 1_555
H10 C7 1_555 1_555
H11 C7 1_555 1_555
N4 N5 1_555 1_555
C8 N2 1_555 1_555
H12 C8 1_555 1_555
C9 N2 1_555 1_555
H13 C9 1_555 1_555
H14 C9 1_555 1_555
C10 C2 1_555 1_555
H15 C10 1_555 1_555
H16 C10 1_555 1_555
H17 C10 1_555 1_555
C11 C1 1_555 1_555
H18 C11 1_555 1_555
N6 N4 1_555 1_555
N7 Cu1 1_555 1_555
N8 N10 1_555 1_555
N9 N7 1_555 1_555
N10 Cu2A 1_555 1_555
C12 C5 1_555 1_555
H19 C12 1_555 1_555
N11 Cu1 1_555 1_555
N12 N9 1_555 1_555
N13 Cu2 1_555 1_555
N14 N13 1_555 1_555
N15 N14 1_555 1_555
Cu2B N13 1_555 1_555
N10A Cu2 1_555 1_555
N13B Cu2 1_555 1_555
Cu2 N7 1_555 1_555
C1 C3 1_555 1_555
C3 C8 1_555 1_555
C4 C9 1_555 1_555
C6 C7 1_555 1_555
C11 C12 1_555 1_555
N8 N11 1_555 1_555
Cu2B N13B 1_555 1_555

#END
