
#######################################################################
#
#                 Cambridge Crystallographic Data Centre
#                                CCDC 
#
#######################################################################
#
# If this CIF has been generated from an entry in the Cambridge 
# Structural Database, then it will include bibliographic, chemical, 
# crystal, experimental, refinement or atomic coordinate data resulting 
# from the CCDC's data processing and validation procedures.
#
#######################################################################

data_UXEQUK
_symmetry_cell_setting           orthorhombic
_symmetry_space_group_name_H-M   'A b a 2'
_symmetry_Int_Tables_number      41
_space_group_name_Hall           'A 2 -2ab'
loop_
_symmetry_equiv_pos_site_id
_symmetry_equiv_pos_as_xyz
1 x,y,z
2 -x,-y,z
3 1/2+x,1/2-y,z
4 1/2-x,1/2+y,z
5 x,1/2+y,1/2+z
6 -x,1/2-y,1/2+z
7 1/2+x,-y,1/2+z
8 1/2-x,y,1/2+z
_cell_length_a                   41.3042(8)
_cell_length_b                   10.7697(2)
_cell_length_c                   7.53820(10)
_cell_angle_alpha                90
_cell_angle_beta                 90
_cell_angle_gamma                90
_cell_volume                     3353.25
loop_
_atom_site_label
_atom_site_type_symbol
_atom_site_fract_x
_atom_site_fract_y
_atom_site_fract_z
Ni1 Ni 0.074954(9) 0.46361(4) 0.29123(11)
O1 O 0.08456(5) 0.7719(2) 0.2962(7)
O3 O 0.11061(5) 0.5924(2) 0.3040(8)
O5 O 0.06963(12) 0.4604(3) 0.5663(6)
H4 H 0.0745(12) 0.402(3) 0.631(6)
H5 H 0.0787(14) 0.521(3) 0.619(8)
O6 O 0.41369(6) 0.6558(2) 0.2792(6)
O7 O 0.38848(5) 0.8365(2) 0.2977(8)
O8 O 0.07453(11) 0.4676(3) 0.0209(6)
H6 H 0.0768(15) 0.531(3) -0.045(7)
H7 H 0.0836(13) 0.414(4) -0.044(7)
O9 O 0.03907(5) 0.5970(2) 0.2938(7)
H8 H 0.0484(9) 0.665(3) 0.312(7)
H9 H 0.0285(13) 0.592(5) 0.208(6)
O10 O 0.04033(6) 0.3228(2) 0.2762(6)
H10 H 0.0531(8) 0.260(3) 0.270(6)
H11 H 0.0314(10) 0.317(4) 0.176(4)
C1 C 0.10994(7) 0.7073(3) 0.2988(9)
C2 C 0.14196(8) 0.7763(3) 0.2968(11)
H12 H 0.1425 0.8295 0.1930
H13 H 0.1429 0.8295 0.4005
C3 C 0.17176(7) 0.6944(4) 0.2950(10)
H14 H 0.1712 0.6427 0.1896
H15 H 0.1711 0.6400 0.3974
C4 C 0.20345(8) 0.7661(4) 0.2973(11)
H16 H 0.2042 0.8199 0.1942
H17 H 0.2040 0.8184 0.4020
C5 C 0.23311(8) 0.6835(4) 0.2973(11)
H18 H 0.2325 0.6313 0.4021
H19 H 0.2321 0.6294 0.1945
C6 C 0.26516(8) 0.7527(4) 0.2943(12)
H20 H 0.2661 0.8074 0.3964
H21 H 0.2659 0.8041 0.1887
C7 C 0.29463(8) 0.6690(4) 0.2962(11)
H22 H 0.2938 0.6169 0.4011
H23 H 0.2939 0.6150 0.1933
C8 C 0.32640(8) 0.7394(3) 0.2953(12)
H24 H 0.3271 0.7922 0.1912
H25 H 0.3272 0.7926 0.3990
C9 C 0.35596(8) 0.6560(3) 0.2951(10)
H26 H 0.3545 0.6009 0.1936
H27 H 0.3554 0.6049 0.4009
C10 C 0.38826(7) 0.7213(3) 0.2886(9)
Ni1C Ni 0.425046(9) -0.03639(4) 0.29123(11)
Ni1C_2 Ni 0.425046(9) 0.96361(4) 0.29123(11)
O1C O 0.41544(5) 0.2719(2) 0.2962(7)
O3C O 0.38939(5) 0.0924(2) 0.3040(8)
O5C O 0.43037(12) -0.0396(3) 0.5663(6)
H4C H 0.4255(12) -0.098(3) 0.631(6)
H5C H 0.4213(14) 0.021(3) 0.619(8)
O6C O 0.08631(6) 0.1558(2) 0.2792(6)
O7C O 0.11152(5) 0.3365(2) 0.2977(8)
O7_2 O 0.38848(5) -0.1635(2) 0.2977(8)
O8C O 0.42547(11) -0.0324(3) 0.0209(6)
H6C H 0.4232(15) 0.031(3) -0.045(7)
H7C H 0.4164(13) -0.086(4) -0.044(7)
O9C O 0.46093(5) 0.0970(2) 0.2938(7)
H8C H 0.4516(9) 0.165(3) 0.312(7)
H9C H 0.4715(13) 0.092(5) 0.208(6)
O10C O 0.45967(6) -0.1772(2) 0.2762(6)
H10C H 0.4469(8) -0.240(3) 0.270(6)
H11C H 0.4686(10) -0.183(4) 0.176(4)
C1C C 0.39006(7) 0.2073(3) 0.2988(9)
C2C C 0.35804(8) 0.2763(3) 0.2968(11)
H12C H 0.3575 0.3295 0.1930
H13C H 0.3571 0.3295 0.4005
C3C C 0.32824(7) 0.1944(4) 0.2950(10)
H14C H 0.3288 0.1427 0.1896
H15C H 0.3289 0.1400 0.3974
C4C C 0.29655(8) 0.2661(4) 0.2973(11)
H16C H 0.2958 0.3199 0.1942
H17C H 0.2960 0.3184 0.4020
C5C C 0.26689(8) 0.1835(4) 0.2973(11)
H18C H 0.2675 0.1313 0.4021
H19C H 0.2679 0.1294 0.1945
C6C C 0.23484(8) 0.2527(4) 0.2943(12)
H20C H 0.2339 0.3074 0.3964
H21C H 0.2341 0.3041 0.1887
C7C C 0.20537(8) 0.1690(4) 0.2962(11)
H22C H 0.2062 0.1169 0.4011
H23C H 0.2061 0.1150 0.1933
C8C C 0.17360(8) 0.2394(3) 0.2953(12)
H24C H 0.1729 0.2922 0.1912
H25C H 0.1728 0.2926 0.3990
C9C C 0.14404(8) 0.1560(3) 0.2951(10)
H26C H 0.1455 0.1009 0.1936
H27C H 0.1446 0.1049 0.4009
C10C C 0.11174(7) 0.2213(3) 0.2886(9)
O2 O 0.0000 0.5000 0.6783(8)
H1 H 0.0053(19) 0.430(4) 0.636(10)
H1A H -0.0053(19) 0.570(4) 0.636(10)
O4 O 0.00076(7) 0.1597(3) 0.4885(5)
H2 H -0.0056(11) 0.131(4) 0.391(4)
H3 H 0.0094(11) 0.227(3) 0.459(6)
loop_
_geom_bond_atom_site_label_1
_geom_bond_atom_site_label_2
_geom_bond_site_symmetry_1
_geom_bond_site_symmetry_2
Ni1 O3 1_555 1_555
O1 C1 1_555 1_555
O2 H1 1_555 1_555
O3 C1 1_555 1_555
O4 H2 1_555 1_555
H3 O4 1_555 1_555
O5 Ni1 1_555 1_555
H4 O5 1_555 1_555
H5 O5 1_555 1_555
O6 C10 1_555 1_555
O7 C10 1_555 1_555
O8 Ni1 1_555 1_555
H6 O8 1_555 1_555
H7 O8 1_555 1_555
O9 Ni1 1_555 1_555
H8 O9 1_555 1_555
H9 O9 1_555 1_555
O10 Ni1 1_555 1_555
H10 O10 1_555 1_555
H11 O10 1_555 1_555
C1 C2 1_555 1_555
C2 H12 1_555 1_555
H13 C2 1_555 1_555
C3 C2 1_555 1_555
H14 C3 1_555 1_555
H15 C3 1_555 1_555
C4 C3 1_555 1_555
H16 C4 1_555 1_555
H17 C4 1_555 1_555
C5 C4 1_555 1_555
H18 C5 1_555 1_555
H19 C5 1_555 1_555
C6 C5 1_555 1_555
H20 C6 1_555 1_555
H21 C6 1_555 1_555
C7 C6 1_555 1_555
H22 C7 1_555 1_555
H23 C7 1_555 1_555
C8 C7 1_555 1_555
H24 C8 1_555 1_555
H25 C8 1_555 1_555
C9 C8 1_555 1_555
H26 C9 1_555 1_555
H27 C9 1_555 1_555
C10 C9 1_555 1_555
Ni1C O3C 1_555 1_555
Ni1C_2 O7 1_555 1_555
O1C C1C 1_555 1_555
H1A O2 1_555 1_555
O3C C1C 1_555 1_555
O5C Ni1C 1_555 1_555
H4C O5C 1_555 1_555
H5C O5C 1_555 1_555
O6C C10C 1_555 1_555
O7C Ni1 1_555 1_555
O7_2 Ni1C 1_555 1_555
O8C Ni1C 1_555 1_555
H6C O8C 1_555 1_555
H7C O8C 1_555 1_555
O9C Ni1C 1_555 1_555
H8C O9C 1_555 1_555
H9C O9C 1_555 1_555
O10C Ni1C 1_555 1_555
H10C O10C 1_555 1_555
H11C O10C 1_555 1_555
C1C C2C 1_555 1_555
C2C H12C 1_555 1_555
H13C C2C 1_555 1_555
C3C C2C 1_555 1_555
H14C C3C 1_555 1_555
H15C C3C 1_555 1_555
C4C C3C 1_555 1_555
H16C C4C 1_555 1_555
H17C C4C 1_555 1_555
C5C C4C 1_555 1_555
H18C C5C 1_555 1_555
H19C C5C 1_555 1_555
C6C C5C 1_555 1_555
H20C C6C 1_555 1_555
H21C C6C 1_555 1_555
C7C C6C 1_555 1_555
H22C C7C 1_555 1_555
H23C C7C 1_555 1_555
C8C C7C 1_555 1_555
H24C C8C 1_555 1_555
H25C C8C 1_555 1_555
C9C C8C 1_555 1_555
H26C C9C 1_555 1_555
H27C C9C 1_555 1_555
C10C O7C 1_555 1_555
C9C C10C 1_555 1_555

#END
