
#######################################################################
#
#                 Cambridge Crystallographic Data Centre
#                                CCDC 
#
#######################################################################
#
# If this CIF has been generated from an entry in the Cambridge 
# Structural Database, then it will include bibliographic, chemical, 
# crystal, experimental, refinement or atomic coordinate data resulting 
# from the CCDC's data processing and validation procedures.
#
#######################################################################

data_UXIYEG
_symmetry_cell_setting           monoclinic
_symmetry_space_group_name_H-M   'P 21/c'
_symmetry_Int_Tables_number      14
_space_group_name_Hall           '-P 2ybc'
loop_
_symmetry_equiv_pos_site_id
_symmetry_equiv_pos_as_xyz
1 x,y,z
2 -x,1/2+y,1/2-z
3 -x,-y,-z
4 x,1/2-y,1/2+z
_cell_length_a                   7.5589(5)
_cell_length_b                   13.8920(8)
_cell_length_c                   18.9818(12)
_cell_angle_alpha                90
_cell_angle_beta                 97.2330(10)
_cell_angle_gamma                90
_cell_volume                     1977.38
loop_
_atom_site_label
_atom_site_type_symbol
_atom_site_fract_x
_atom_site_fract_y
_atom_site_fract_z
Cu1 Cu 0.64705(5) -0.17145(3) 0.13822(2)
Cu2 Cu 0.62851(5) -0.07225(3) 0.28507(2)
O1 O 0.7145(3) -0.18070(16) 0.23712(11)
H1 H 0.6809 -0.2356 0.2501
O2 O 0.3636(3) -0.11615(18) 0.15633(13)
O3 O 0.3776(3) -0.12322(18) 0.27414(13)
O4 O 0.7982(3) -0.05695(17) 0.13175(12)
O5 O 0.5793(3) -0.36711(17) 0.23748(11)
C1 C 0.6172(4) -0.0977(2) -0.01214(17)
H2 H 0.6833 -0.0431 0.0061
N1 N 0.5847(4) -0.16926(19) 0.03266(14)
N2 N 0.4275(3) -0.46061(19) 0.15218(14)
O6 O 0.7920(3) 0.01533(17) 0.23701(13)
N3 N 0.3778(4) -0.4013(2) 0.03387(14)
C2 C 0.3613(4) -0.4669(2) 0.08387(17)
C3 C 0.4694(4) -0.3233(2) 0.05793(17)
N4 N 0.2302(4) -0.6136(2) 0.11506(15)
C4 C 0.1784(5) -0.5681(2) -0.00723(19)
H3 H 0.1969 -0.5238 -0.0437
C5 C 0.4930(4) -0.2468(2) 0.00526(17)
N5 N 0.5411(4) -0.30704(19) 0.12438(13)
C6 C 0.5563(5) -0.1022(3) -0.08420(18)
H4 H 0.5789 -0.0506 -0.1147
C7 C 0.4628(5) -0.1820(3) -0.11102(18)
H5 H 0.4217 -0.1864 -0.1603
C8 C 0.4291(5) -0.2558(2) -0.06528(17)
H6 H 0.3636 -0.3112 -0.0824
C9 C 0.2528(4) -0.5531(2) 0.06200(17)
C10 C 0.5203(4) -0.3777(2) 0.17525(17)
C11 C 0.9869(5) 0.0763(3) 0.1607(2)
H7 H 0.9659 0.0925 0.1101
H8 H 1.1053 0.0472 0.1717
H9 H 0.9804 0.1349 0.1890
C12 C 0.0759(5) -0.6500(3) -0.0219(2)
H10 H 0.0233 -0.6630 -0.0690
C13 C 0.1290(5) -0.6916(3) 0.1000(2)
H11 H 0.1102 -0.7344 0.1375
C14 C 0.0506(5) -0.7122(3) 0.0320(2)
H12 H -0.0196 -0.7685 0.0228
C15 C 0.8478(4) 0.0064(2) 0.17812(18)
C16 C 0.3055(5) -0.1429(3) 0.2118(2)
C17 C 0.1419(5) -0.2064(3) 0.2065(2)
H13 H 0.0733 -0.1916 0.2456
H14 H 0.1784 -0.2741 0.2092
H15 H 0.0678 -0.1946 0.1611
Cu2A Cu 0.37149(5) -0.57225(3) 0.21493(2)
N2A N 0.5725(3) 0.03939(19) 0.34782(14)
N4A N 0.7698(4) -0.1136(2) 0.38494(15)
O7 O 0.1193(4) 0.9125(2) 0.03384(15)
H16 H 0.1934 0.9046 0.0709
H17 H 0.0155 0.9210 0.0456
O8 O 0.8718(5) 0.0030(4) 0.65901(19)
H18 H 0.9743 0.0137 0.6816
H19 H 0.8063 0.0333 0.6848
loop_
_geom_bond_atom_site_label_1
_geom_bond_atom_site_label_2
_geom_bond_site_symmetry_1
_geom_bond_site_symmetry_2
Cu1 O1 1_555 1_555
Cu2 O1 1_555 1_555
O1 H1 1_555 1_555
O2 Cu1 1_555 1_555
O3 Cu2 1_555 1_555
O4 Cu1 1_555 1_555
O5 C10 1_555 1_555
C1 H2 1_555 1_555
N1 Cu1 1_555 1_555
N2 C2 1_555 1_555
O6 Cu2 1_555 1_555
N3 C2 1_555 1_555
C2 C9 1_555 1_555
C3 N3 1_555 1_555
N4 C9 1_555 1_555
C4 H3 1_555 1_555
C5 N1 1_555 1_555
N5 Cu1 1_555 1_555
C6 C1 1_555 1_555
H4 C6 1_555 1_555
C7 C6 1_555 1_555
H5 C7 1_555 1_555
C8 C5 1_555 1_555
H6 C8 1_555 1_555
C9 C4 1_555 1_555
C10 N2 1_555 1_555
C11 H7 1_555 1_555
H8 C11 1_555 1_555
H9 C11 1_555 1_555
C12 C4 1_555 1_555
H10 C12 1_555 1_555
C13 N4 1_555 1_555
H11 C13 1_555 1_555
C14 C12 1_555 1_555
H12 C14 1_555 1_555
C15 O4 1_555 1_555
C16 O2 1_555 1_555
C17 C16 1_555 1_555
H13 C17 1_555 1_555
H14 C17 1_555 1_555
H15 C17 1_555 1_555
O7 H16 1_555 1_555
H17 O7 1_555 1_555
O8 H18 1_555 1_555
H19 O8 1_555 1_555
Cu2A N2 1_555 1_555
N2A Cu2 1_555 1_555
N4A Cu2 1_555 1_555
O3 C16 1_555 1_555
C1 N1 1_555 1_555
O6 C15 1_555 1_555
C3 C5 1_555 1_555
C3 N5 1_555 1_555
N4 Cu2A 1_555 1_555
N5 C10 1_555 1_555
C7 C8 1_555 1_555
C11 C15 1_555 1_555
C13 C14 1_555 1_555

#END
