
#######################################################################
#
#                 Cambridge Crystallographic Data Centre
#                                CCDC 
#
#######################################################################
#
# If this CIF has been generated from an entry in the Cambridge 
# Structural Database, then it will include bibliographic, chemical, 
# crystal, experimental, refinement or atomic coordinate data resulting 
# from the CCDC's data processing and validation procedures.
#
#######################################################################

data_UXUCOG
_symmetry_cell_setting           monoclinic
_symmetry_space_group_name_H-M   'P 21'
_symmetry_Int_Tables_number      4
_space_group_name_Hall           'P 2yb'
loop_
_symmetry_equiv_pos_site_id
_symmetry_equiv_pos_as_xyz
1 x,y,z
2 -x,1/2+y,-z
_cell_length_a                   12.903(6)
_cell_length_b                   10.378(5)
_cell_length_c                   14.795(7)
_cell_angle_alpha                90
_cell_angle_beta                 104.52(2)
_cell_angle_gamma                90
_cell_volume                     1917.88
loop_
_atom_site_label
_atom_site_type_symbol
_atom_site_fract_x
_atom_site_fract_y
_atom_site_fract_z
Zn1 Zn -0.01428(4) 0.2111(3) 0.32611(4)
N1 N 0.1322(3) 0.2078(7) 0.2929(2)
N2 N -0.0823(3) 0.2885(5) 0.1970(3)
N3 N -0.1506(3) 0.2612(5) 0.3668(3)
N4 N 0.0619(3) 0.1751(5) 0.4623(3)
N5 N 0.1800(3) 0.3643(6) -0.2191(3)
H1 H 0.2333 0.3188 -0.2298
O1 O 0.0585(3) 0.5173(5) -0.2805(2)
O2 O 0.2704(4) 0.3864(5) -0.3632(3)
O3 O 0.4205(4) 0.3112(6) -0.2075(3)
O4 O 0.5158(4) 0.4915(6) -0.2155(4)
C1 C 0.2289(4) 0.1754(6) 0.3521(3)
C2 C 0.3121(4) 0.1925(8) 0.3032(3)
H2 H 0.3867 0.1797 0.3284
C3 C 0.2642(4) 0.2299(7) 0.2157(3)
H3 H 0.2986 0.2474 0.1673
C4 C 0.1505(4) 0.2387(6) 0.2088(3)
C5 C 0.0738(4) 0.2771(7) 0.1280(3)
C6 C -0.0357(4) 0.2991(7) 0.1240(3)
C7 C -0.1149(4) 0.3323(7) 0.0405(4)
H4 H -0.1034 0.3436 -0.0200
C8 C -0.2091(5) 0.3444(7) 0.0640(4)
H5 H -0.2757 0.3673 0.0229
C9 C -0.1913(4) 0.3170(7) 0.1610(4)
C10 C -0.2674(4) 0.3211(6) 0.2130(3)
C11 C -0.2482(4) 0.2960(6) 0.3094(3)
C12 C -0.3271(4) 0.3028(6) 0.3623(4)
H6 H -0.4005 0.3239 0.3389
C13 C -0.2776(4) 0.2736(6) 0.4513(3)
H7 H -0.3098 0.2720 0.5025
C14 C -0.1675(4) 0.2454(6) 0.4551(3)
C15 C -0.0908(3) 0.2028(8) 0.5339(3)
C16 C 0.0126(4) 0.1633(6) 0.5354(3)
C17 C 0.0881(4) 0.1074(7) 0.6156(4)
H8 H 0.0750 0.0886 0.6746
C18 C 0.1795(4) 0.0874(6) 0.5907(4)
H9 H 0.2434 0.0514 0.6288
C19 C 0.1634(4) 0.1309(6) 0.4948(3)
C20 C 0.2455(4) 0.1346(6) 0.4452(3)
C21 C -0.3781(4) 0.3553(7) 0.1599(4)
C22 C -0.4386(4) 0.2669(7) 0.0992(4)
H10 H -0.4097 0.1844 0.0922
C23 C -0.5438(5) 0.2984(9) 0.0472(4)
H11 H -0.5864 0.2368 0.0069
C24 C -0.5830(5) 0.4203(10) 0.0562(4)
H12 H -0.6526 0.4432 0.0206
C25 C -0.5216(5) 0.5101(8) 0.1169(4)
H13 H -0.5496 0.5935 0.1225
C26 C -0.4195(5) 0.4782(8) 0.1692(4)
H14 H -0.3780 0.5392 0.2109
C27 C -0.1250(3) 0.1965(9) 0.6235(3)
C28 C -0.1344(5) 0.3095(8) 0.6701(4)
H15 H -0.1210 0.3892 0.6434
C29 C -0.1630(6) 0.3104(10) 0.7551(5)
H16 H -0.1679 0.3894 0.7862
C30 C -0.1838(5) 0.1967(12) 0.7926(4)
H17 H -0.2045 0.1957 0.8499
C31 C -0.1745(6) 0.0821(9) 0.7469(5)
H18 H -0.1891 0.0028 0.7733
C32 C -0.1443(5) 0.0814(8) 0.6637(5)
H19 H -0.1367 0.0019 0.6341
C33 C 0.3552(4) 0.0887(7) 0.4944(4)
C34 C 0.4114(5) 0.1428(6) 0.5793(4)
H20 H 0.3789 0.2094 0.6066
C35 C 0.5130(4) 0.1016(8) 0.6240(4)
H21 H 0.5506 0.1403 0.6810
C36 C 0.5595(5) 0.0030(8) 0.5847(5)
H22 H 0.6293 -0.0270 0.6145
C37 C 0.5043(6) -0.0494(9) 0.5038(6)
H23 H 0.5359 -0.1189 0.4785
C38 C 0.4059(5) -0.0082(7) 0.4566(4)
H24 H 0.3718 -0.0453 0.3979
C39 C 0.1078(4) 0.3008(7) 0.0409(3)
C40 C 0.1444(3) 0.2040(9) -0.0065(3)
H25 H 0.1537 0.1206 0.0208
C41 C 0.1681(4) 0.2213(9) -0.0912(3)
H26 H 0.1920 0.1514 -0.1222
C42 C 0.1562(4) 0.3450(7) -0.1307(3)
C43 C 0.1241(4) 0.4458(7) -0.0848(3)
H27 H 0.1181 0.5299 -0.1109
C44 C 0.1000(4) 0.4239(7) 0.0010(4)
H28 H 0.0779 0.4941 0.0328
C45 C 0.1297(5) 0.4445(7) -0.2880(4)
C46 C 0.1634(5) 0.4360(7) -0.3770(4)
H29 H 0.1131 0.3793 -0.4210
H30 H 0.1597 0.5228 -0.4054
C47 C 0.3499(5) 0.4751(7) -0.3201(4)
H31 H 0.3163 0.5488 -0.2958
H32 H 0.3864 0.5086 -0.3667
C48 C 0.4299(6) 0.4131(9) -0.2419(4)
C49 C 0.5973(6) 0.4512(9) -0.1376(6)
H33 H 0.5671 0.4144 -0.0880
H34 H 0.6462 0.5230 -0.1114
C50 C 0.652(3) 0.351(3) -0.181(3)
H35 H 0.7123 0.3152 -0.1333
H36 H 0.6792 0.3902 -0.2308
H37 H 0.6015 0.2824 -0.2068
Zn1A Zn 0.01428(4) 0.7111(3) -0.32611(4)
O1A O -0.0585(3) 0.0173(5) 0.2805(2)
loop_
_geom_bond_atom_site_label_1
_geom_bond_atom_site_label_2
_geom_bond_site_symmetry_1
_geom_bond_site_symmetry_2
Zn1 N1 1_555 1_555
N1 C1 1_555 1_555
N2 Zn1 1_555 1_555
N3 Zn1 1_555 1_555
N4 Zn1 1_555 1_555
N5 H1 1_555 1_555
O1 C45 1_555 1_555
O2 C46 1_555 1_555
O3 C48 1_555 1_555
O4 C48 1_555 1_555
C1 C2 1_555 1_555
C2 H2 1_555 1_555
C3 C2 1_555 1_555
H3 C3 1_555 1_555
C4 N1 1_555 1_555
C5 C4 1_555 1_555
C6 N2 1_555 1_555
C7 C6 1_555 1_555
H4 C7 1_555 1_555
C8 C7 1_555 1_555
H5 C8 1_555 1_555
C9 N2 1_555 1_555
C10 C9 1_555 1_555
C11 N3 1_555 1_555
C12 C11 1_555 1_555
H6 C12 1_555 1_555
C13 C12 1_555 1_555
H7 C13 1_555 1_555
C14 N3 1_555 1_555
C15 C14 1_555 1_555
C16 N4 1_555 1_555
C17 C16 1_555 1_555
H8 C17 1_555 1_555
C18 C17 1_555 1_555
H9 C18 1_555 1_555
C19 N4 1_555 1_555
C20 C1 1_555 1_555
C21 C10 1_555 1_555
C22 C21 1_555 1_555
H10 C22 1_555 1_555
C23 C22 1_555 1_555
H11 C23 1_555 1_555
C24 C23 1_555 1_555
H12 C24 1_555 1_555
C25 C24 1_555 1_555
H13 C25 1_555 1_555
C26 C21 1_555 1_555
H14 C26 1_555 1_555
C27 C15 1_555 1_555
C28 C27 1_555 1_555
H15 C28 1_555 1_555
C29 C28 1_555 1_555
H16 C29 1_555 1_555
C30 C29 1_555 1_555
H17 C30 1_555 1_555
C31 C30 1_555 1_555
H18 C31 1_555 1_555
C32 C27 1_555 1_555
H19 C32 1_555 1_555
C33 C20 1_555 1_555
C34 C33 1_555 1_555
H20 C34 1_555 1_555
C35 C34 1_555 1_555
H21 C35 1_555 1_555
C36 C35 1_555 1_555
H22 C36 1_555 1_555
C37 C36 1_555 1_555
H23 C37 1_555 1_555
C38 C33 1_555 1_555
H24 C38 1_555 1_555
C39 C5 1_555 1_555
C40 C39 1_555 1_555
H25 C40 1_555 1_555
C41 C40 1_555 1_555
H26 C41 1_555 1_555
C42 N5 1_555 1_555
C43 C42 1_555 1_555
H27 C43 1_555 1_555
C44 C39 1_555 1_555
H28 C44 1_555 1_555
C45 N5 1_555 1_555
C46 C45 1_555 1_555
H29 C46 1_555 1_555
H30 C46 1_555 1_555
C47 O2 1_555 1_555
H31 C47 1_555 1_555
H32 C47 1_555 1_555
C48 C47 1_555 1_555
C49 O4 1_555 1_555
H33 C49 1_555 1_555
H34 C49 1_555 1_555
C50 C49 1_555 1_555
H35 C50 1_555 1_555
H36 C50 1_555 1_555
H37 C50 1_555 1_555
Zn1A O1 1_555 1_555
O1A Zn1 1_555 1_555
C3 C4 1_555 1_555
C5 C6 1_555 1_555
C8 C9 1_555 1_555
C10 C11 1_555 1_555
C13 C14 1_555 1_555
C15 C16 1_555 1_555
C18 C19 1_555 1_555
C19 C20 1_555 1_555
C25 C26 1_555 1_555
C31 C32 1_555 1_555
C37 C38 1_555 1_555
C41 C42 1_555 1_555
C43 C44 1_555 1_555

#END
