
#######################################################################
#
#                 Cambridge Crystallographic Data Centre
#                                CCDC 
#
#######################################################################
#
# If this CIF has been generated from an entry in the Cambridge 
# Structural Database, then it will include bibliographic, chemical, 
# crystal, experimental, refinement or atomic coordinate data resulting 
# from the CCDC's data processing and validation procedures.
#
#######################################################################

data_UYASET
_symmetry_cell_setting           triclinic
_symmetry_space_group_name_H-M   'P -1'
_symmetry_Int_Tables_number      2
_space_group_name_Hall           '-P 1'
loop_
_symmetry_equiv_pos_site_id
_symmetry_equiv_pos_as_xyz
1 x,y,z
2 -x,-y,-z
_cell_length_a                   7.4121(3)
_cell_length_b                   10.3132(5)
_cell_length_c                   17.9686(9)
_cell_angle_alpha                87.702(4)
_cell_angle_beta                 78.851(4)
_cell_angle_gamma                70.945(4)
_cell_volume                     1273.41
loop_
_atom_site_label
_atom_site_type_symbol
_atom_site_fract_x
_atom_site_fract_y
_atom_site_fract_z
Zn1 Zn -0.00462(6) 0.45503(5) 0.22279(3)
Zn2 Zn 0.64149(7) -0.53307(5) 0.70997(3)
N1 N 0.0505(4) 0.3161(3) 0.31043(17)
N2 N 0.5630(4) -0.3975(3) 0.62878(17)
O1 O 0.2623(4) 0.3807(3) 0.15136(15)
O2 O 0.4935(3) 0.4265(3) 0.19808(14)
O3 O 0.9117(4) 0.3046(3) 0.16598(14)
O4 O 0.8429(4) 0.5203(3) 0.13375(15)
O5 O 0.0899(3) 0.5977(2) 0.27156(14)
O6 O -0.0191(4) 0.7339(3) 0.37463(15)
O7 O -0.2837(3) 0.5738(2) 0.29742(14)
O8 O -0.5798(3) 0.7032(3) 0.28324(16)
C1 C 0.0032(5) 0.3513(4) 0.3839(2)
H2 H -0.0685 0.4443 0.3982
C2 C 0.0539(6) 0.2583(4) 0.4403(2)
H3 H 0.0174 0.2877 0.4921
C3 C 0.1588(5) 0.1215(4) 0.4206(2)
C4 C 0.1996(6) 0.0844(4) 0.3440(2)
H4 H 0.2637 -0.0089 0.3283
C5 C 0.1473(6) 0.1827(4) 0.2911(2)
H5 H 0.1804 0.1557 0.2390
C6 C 0.2245(6) 0.0245(4) 0.4797(2)
H6 H 0.1775 0.0553 0.5311
C7 C 0.3446(6) -0.1029(4) 0.4662(2)
H7 H 0.3863 -0.1336 0.4146
C8 C 0.4193(5) -0.2013(4) 0.5232(2)
C9 C 0.3611(6) -0.1752(4) 0.6013(2)
H8 H 0.2713 -0.0886 0.6199
C10 C 0.4327(6) -0.2740(4) 0.6517(2)
H9 H 0.3884 -0.2542 0.7046
C11 C 0.6209(6) -0.4234(4) 0.5544(2)
H10 H 0.7126 -0.5104 0.5376
C12 C 0.5543(6) -0.3304(4) 0.5007(2)
H11 H 0.6001 -0.3540 0.4483
C13 C 0.5643(5) 0.3569(3) 0.0704(2)
C14 C 0.7514(5) 0.3693(3) 0.0610(2)
C15 C 0.8695(6) 0.3485(4) -0.0109(2)
H12 H 0.9948 0.3581 -0.0178
C16 C 0.8049(6) 0.3140(4) -0.0721(2)
H13 H 0.8873 0.2982 -0.1207
C17 C 0.6217(6) 0.3025(4) -0.0631(2)
H14 H 0.5776 0.2797 -0.1054
C18 C 0.5019(5) 0.3244(4) 0.0083(2)
H15 H 0.3755 0.3169 0.0144
C19 C 0.4284(5) 0.3902(4) 0.1451(2)
C20 C 0.8344(5) 0.4016(4) 0.12522(19)
C21 C -0.3279(5) 0.7995(4) 0.2482(2)
C22 C -0.1563(5) 0.8110(4) 0.2649(2)
C23 C -0.0973(6) 0.9212(4) 0.2366(2)
H16 H 0.0177 0.9307 0.2481
C24 C -0.2036(6) 1.0175(4) 0.1919(2)
H17 H -0.1610 1.0920 0.1730
C25 C -0.3710(6) 1.0054(4) 0.1749(2)
H18 H -0.4431 1.0707 0.1437
C26 C -0.4336(5) 0.8965(4) 0.2036(2)
H19 H -0.5499 0.8886 0.1925
C27 C -0.3984(5) 0.6830(4) 0.2781(2)
C28 C -0.0268(5) 0.7093(4) 0.3103(2)
Zn1_2 Zn 0.99538(6) 0.45503(5) 0.22279(3)
Zn2A Zn 0.35851(7) 0.53307(5) 0.29003(3)
Zn2A_2 Zn -0.64149(7) 0.53307(5) 0.29003(3)
O2A O 0.5065(3) -0.4265(3) 0.80192(14)
O3_2 O -0.0883(4) 0.3046(3) 0.16598(14)
O4_2 O -0.1571(4) 0.5203(3) 0.13375(15)
O5A O 0.9101(3) -0.5977(2) 0.72844(14)
O8A O 0.5798(3) -0.7032(3) 0.71676(16)
O9 O 0.2336(6) 0.0743(4) 0.1028(2)
H1 H 0.1436 0.1510 0.1126
C29 C 0.2372(12) 0.0451(7) 0.0268(4)
H20 H 0.2447 0.1244 -0.0040
H21 H 0.1186 0.0254 0.0231
H22 H 0.3510 -0.0348 0.0084
loop_
_geom_bond_atom_site_label_1
_geom_bond_atom_site_label_2
_geom_bond_site_symmetry_1
_geom_bond_site_symmetry_2
Zn1 N1 1_555 1_555
Zn2 N2 1_555 1_555
N1 C1 1_555 1_555
N2 C10 1_555 1_555
O1 Zn1 1_555 1_555
O2 C19 1_555 1_555
O3 C20 1_555 1_555
O4 C20 1_555 1_555
O5 Zn1 1_555 1_555
O6 C28 1_555 1_555
O7 Zn1 1_555 1_555
O8 C27 1_555 1_555
O9 H1 1_555 1_555
C1 H2 1_555 1_555
C2 C1 1_555 1_555
H3 C2 1_555 1_555
C3 C2 1_555 1_555
C4 C3 1_555 1_555
H4 C4 1_555 1_555
C5 N1 1_555 1_555
H5 C5 1_555 1_555
C6 C3 1_555 1_555
H6 C6 1_555 1_555
C7 C6 1_555 1_555
H7 C7 1_555 1_555
C8 C7 1_555 1_555
C9 C8 1_555 1_555
H8 C9 1_555 1_555
C10 C9 1_555 1_555
H9 C10 1_555 1_555
C11 N2 1_555 1_555
H10 C11 1_555 1_555
C12 C8 1_555 1_555
H11 C12 1_555 1_555
C13 C14 1_555 1_555
C14 C15 1_555 1_555
C15 H12 1_555 1_555
C16 C15 1_555 1_555
H13 C16 1_555 1_555
C17 C16 1_555 1_555
H14 C17 1_555 1_555
C18 C13 1_555 1_555
H15 C18 1_555 1_555
C19 O1 1_555 1_555
C20 C14 1_555 1_555
C21 C22 1_555 1_555
C22 C23 1_555 1_555
C23 H16 1_555 1_555
C24 C23 1_555 1_555
H17 C24 1_555 1_555
C25 C24 1_555 1_555
H18 C25 1_555 1_555
C26 C21 1_555 1_555
H19 C26 1_555 1_555
C27 O7 1_555 1_555
C28 O5 1_555 1_555
C29 O9 1_555 1_555
H20 C29 1_555 1_555
H21 C29 1_555 1_555
H22 C29 1_555 1_555
Zn1_2 O3 1_555 1_555
Zn2A O2 1_555 1_555
Zn2A_2 O8 1_555 1_555
O2A Zn2 1_555 1_555
O3_2 Zn1 1_555 1_555
O4_2 Zn1 1_555 1_555
O5A Zn2 1_555 1_555
O8A Zn2 1_555 1_555
O4 Zn1_2 1_555 1_555
O5 Zn2A 1_555 1_555
C4 C5 1_555 1_555
C11 C12 1_555 1_555
C13 C19 1_555 1_555
C17 C18 1_555 1_555
C21 C27 1_555 1_555
C22 C28 1_555 1_555
C25 C26 1_555 1_555

#END
