
#######################################################################
#
#                 Cambridge Crystallographic Data Centre
#                                CCDC 
#
#######################################################################
#
# If this CIF has been generated from an entry in the Cambridge 
# Structural Database, then it will include bibliographic, chemical, 
# crystal, experimental, refinement or atomic coordinate data resulting 
# from the CCDC's data processing and validation procedures.
#
#######################################################################

data_UYATOE
_symmetry_cell_setting           hexagonal
_symmetry_space_group_name_H-M   'P 65'
_symmetry_Int_Tables_number      170
_space_group_name_Hall           'P 65'
loop_
_symmetry_equiv_pos_site_id
_symmetry_equiv_pos_as_xyz
1 x,y,z
2 -y,x-y,2/3+z
3 -x+y,-x,1/3+z
4 -x,-y,1/2+z
5 y,-x+y,1/6+z
6 x-y,x,5/6+z
_cell_length_a                   18.6018(16)
_cell_length_b                   18.6018(16)
_cell_length_c                   42.963(4)
_cell_angle_alpha                90
_cell_angle_beta                 90
_cell_angle_gamma                120
_cell_volume                     12874.6
loop_
_atom_site_label
_atom_site_type_symbol
_atom_site_fract_x
_atom_site_fract_y
_atom_site_fract_z
Cu1 Cu 0.68503(6) 0.66083(5) 0.07421(2)
Cu2 Cu 0.71762(6) 0.66925(5) 0.13348(2)
O1 O 1.3359(3) 0.5473(3) 0.05283(15)
O2 O 1.3147(3) 0.4180(3) 0.03993(13)
O3 O 0.7846(3) 0.6208(3) 0.12102(13)
O4 O 0.7775(3) 0.6369(3) 0.06910(13)
O5 O 0.7676(3) -0.2206(4) 0.07544(15)
O6 O 0.8124(3) -0.2163(3) 0.12304(14)
C1 C 1.2637(5) 0.4870(5) 0.0692(2)
H1 H 1.2823 0.4789 0.0900
C2 C 1.2389(5) 0.4091(5) 0.04934(19)
H2 H 1.2122 0.4153 0.0306
C3 C 1.3707(5) 0.5049(5) 0.0366(3)
C4 C 1.3750(7) 0.5271(6) 0.0031(3)
H3 H 1.3712 0.4818 -0.0097
H4 H 1.4278 0.5779 -0.0010
H5 H 1.3289 0.5364 -0.0019
C5 C 1.4506(5) 0.5248(5) 0.0493(2)
H6 H 1.4428 0.4990 0.0699
H7 H 1.4854 0.5852 0.0514
H8 H 1.4777 0.5038 0.0354
C6 C 1.2024(5) 0.5110(5) 0.0739(2)
C7 C 1.1908(6) 0.5562(6) 0.0527(3)
H9 H 1.2267 0.5756 0.0351
C8 C 1.1266(6) 0.5769(6) 0.0551(2)
H10 H 1.1224 0.6113 0.0397
C9 C 1.0708(5) 0.5480(6) 0.0794(2)
C10 C 1.0852(7) 0.5020(7) 0.1028(2)
H11 H 1.0496 0.4808 0.1203
C11 C 1.1547(8) 0.4881(7) 0.0992(3)
H12 H 1.1667 0.4615 0.1157
C12 C 0.9993(5) 0.5621(5) 0.0819(2)
C13 C 0.9638(5) 0.5762(5) 0.0563(2)
H13 H 0.9842 0.5750 0.0362
C14 C 0.9012(5) 0.5916(5) 0.05924(18)
H14 H 0.8770 0.5997 0.0411
C15 C 0.8698(5) 0.5960(4) 0.0894(2)
C16 C 0.9029(5) 0.5781(5) 0.1148(2)
H15 H 0.8791 0.5746 0.1347
C17 C 0.9736(6) 0.5642(5) 0.1124(3)
H16 H 1.0001 0.5572 0.1301
C18 C 0.8052(4) 0.6196(4) 0.0938(3)
C19 C 1.1790(5) 0.3229(5) 0.06240(18)
C20 C 1.0937(6) 0.2946(6) 0.0594(2)
H17 H 1.0754 0.3313 0.0524
C21 C 1.0351(5) 0.2111(5) 0.0669(2)
H18 H 0.9774 0.1892 0.0634
C22 C 1.0650(6) 0.1626(5) 0.0793(2)
C23 C 1.1503(6) 0.1968(5) 0.0858(2)
H19 H 1.1691 0.1651 0.0969
C24 C 1.2056(5) 0.2744(5) 0.0762(2)
H20 H 1.2633 0.2953 0.0791
C25 C 1.0010(5) 0.0727(5) 0.0858(2)
C26 C 0.9381(6) 0.0311(7) 0.0633(2)
H21 H 0.9340 0.0593 0.0456
C27 C 0.8839(5) -0.0510(5) 0.0680(2)
H22 H 0.8442 -0.0800 0.0522
C28 C 0.8818(5) -0.0945(5) 0.0934(2)
C29 C 0.9435(5) -0.0536(5) 0.1155(2)
H23 H 0.9466 -0.0823 0.1332
C30 C 0.9994(5) 0.0280(5) 0.11123(19)
H24 H 1.0400 0.0558 0.1270
C31 C 0.8147(5) -0.1859(5) 0.0987(2)
O7 O 0.0756(3) -0.0969(4) 0.15745(14)
O8 O 0.1062(3) -0.1799(3) 0.18649(13)
O9 O 0.6197(3) 0.5593(3) 0.13479(13)
O10 O 0.6119(3) 0.5427(3) 0.08237(12)
O11 O 0.6468(4) -0.2826(3) 0.13821(12)
O12 O 0.5971(3) -0.3156(3) 0.08923(13)
C32 C 0.1542(5) -0.0819(5) 0.14815(19)
H25 H 0.1480 -0.1156 0.1299
C33 C 0.1835(5) -0.1126(4) 0.17480(19)
H26 H 0.2075 -0.0691 0.1916
C34 C 0.0420(5) -0.1613(4) 0.1796(2)
C35 C 0.0156(6) -0.1331(6) 0.2090(2)
H27 H -0.0317 -0.1811 0.2187
H28 H -0.0004 -0.0920 0.2033
H29 H 0.0620 -0.1082 0.2237
C36 C -0.0293(6) -0.2355(6) 0.1664(2)
H30 H -0.0120 -0.2518 0.1473
H31 H -0.0735 -0.2234 0.1615
H32 H -0.0497 -0.2810 0.1815
C37 C 0.2114(4) 0.0080(5) 0.1401(2)
C38 C 0.2082(5) 0.0722(5) 0.1556(2)
H33 H 0.1671 0.0598 0.1710
C39 C 0.2643(6) 0.1534(5) 0.1486(2)
H34 H 0.2597 0.1963 0.1588
C40 C 0.3278(6) 0.1752(5) 0.1270(2)
C41 C 0.3301(5) 0.1103(5) 0.1095(2)
H35 H 0.3697 0.1228 0.0934
C42 C 0.2712(6) 0.0270(6) 0.11712(19)
H36 H 0.2725 -0.0169 0.1063
C43 C 0.3923(5) 0.2620(5) 0.1225(2)
C44 C 0.4200(5) 0.3172(5) 0.14491(19)
H37 H 0.3956 0.2994 0.1649
C45 C 0.4844(5) 0.4024(5) 0.1418(2)
H38 H 0.5010 0.4393 0.1590
C46 C 0.5212(5) 0.4291(4) 0.11313(18)
C47 C 0.4909(5) 0.3740(5) 0.0897(2)
H39 H 0.5150 0.3927 0.0697
C48 C 0.4264(6) 0.2909(6) 0.0921(3)
H40 H 0.4065 0.2556 0.0744
C49 C 0.5879(5) 0.5160(4) 0.1094(2)
C50 C 0.2434(5) -0.1402(5) 0.16696(17)
C51 C 0.3272(4) -0.0902(5) 0.17218(18)
H41 H 0.3484 -0.0363 0.1808
C52 C 0.3796(5) -0.1197(5) 0.16472(18)
H42 H 0.4368 -0.0862 0.1697
C53 C 0.3543(5) -0.1950(6) 0.1504(2)
C54 C 0.2711(5) -0.2445(5) 0.1451(2)
H43 H 0.2518 -0.2964 0.1351
C55 C 0.2139(5) -0.2208(5) 0.1540(2)
H44 H 0.1561 -0.2578 0.1515
C56 C 0.4189(5) -0.2186(4) 0.1410(2)
C57 C 0.4854(6) -0.1989(5) 0.1595(2)
H45 H 0.4920 -0.1698 0.1784
C58 C 0.5412(6) -0.2199(6) 0.1514(2)
H46 H 0.5879 -0.2036 0.1646
C59 C 0.5343(5) -0.2650(5) 0.12437(19)
C60 C 0.4636(5) -0.2904(6) 0.1066(2)
H47 H 0.4541 -0.3253 0.0891
C61 C 0.4067(6) -0.2661(6) 0.1139(2)
H48 H 0.3601 -0.2810 0.1008
C62 C 0.5977(5) -0.2884(5) 0.1155(2)
O13 O 0.6592(4) 0.6585(4) 0.02651(13)
N1 N 0.7152(6) 0.6977(6) -0.0239(2)
C63 C 0.7194(8) 0.7031(8) 0.0084(4)
H49 H 0.7706 0.7427 0.0175
C64 C 0.6337(7) 0.6446(7) -0.0385(2)
H50 H 0.6212 0.6780 -0.0528
H51 H 0.5909 0.6209 -0.0223
H52 H 0.6348 0.5998 -0.0501
C65 C 0.7816(9) 0.7449(9) -0.0429(3)
H53 H 0.7698 0.7815 -0.0556
H54 H 0.7915 0.7084 -0.0565
H55 H 0.8311 0.7785 -0.0302
O14 O 0.7473(4) 0.6691(3) 0.18074(15)
N2 N 0.7943(5) 0.7454(7) 0.2238(3)
C66 C 0.7727(8) 0.7211(11) 0.1982(4)
H56 H 0.7807 0.7684 0.1868
C67 C 0.7780(10) 0.6628(11) 0.2427(5)
H57 H 0.7434 0.6555 0.2610
H58 H 0.8312 0.6691 0.2494
H59 H 0.7494 0.6142 0.2292
C68 C 0.8233(8) 0.8141(7) 0.2451(3)
H60 H 0.8837 0.8404 0.2473
H61 H 0.7969 0.7939 0.2654
H62 H 0.8091 0.8547 0.2370
Cu1_2 Cu 0.68503(6) -0.33917(5) 0.07421(2)
Cu2_2 Cu 0.71762(6) -0.33075(5) 0.13348(2)
O5_2 O 0.7676(3) 0.7794(4) 0.07544(15)
O6_2 O 0.8124(3) 0.7837(3) 0.12304(14)
O11_2 O 0.6468(4) 0.7174(3) 0.13821(12)
O12_2 O 0.5971(3) 0.6844(3) 0.08923(13)
loop_
_geom_bond_atom_site_label_1
_geom_bond_atom_site_label_2
_geom_bond_site_symmetry_1
_geom_bond_site_symmetry_2
Cu1 Cu2 1_555 1_555
Cu2 O3 1_555 1_555
O1 C1 1_555 1_555
O2 C2 1_555 1_555
O3 C18 1_555 1_555
O4 Cu1 1_555 1_555
O5 C31 1_555 1_555
O6 C31 1_555 1_555
C1 H1 1_555 1_555
C2 C1 1_555 1_555
H2 C2 1_555 1_555
C3 O1 1_555 1_555
C4 C3 1_555 1_555
H3 C4 1_555 1_555
H4 C4 1_555 1_555
H5 C4 1_555 1_555
C5 C3 1_555 1_555
H6 C5 1_555 1_555
H7 C5 1_555 1_555
H8 C5 1_555 1_555
C6 C1 1_555 1_555
C7 C6 1_555 1_555
H9 C7 1_555 1_555
C8 C7 1_555 1_555
H10 C8 1_555 1_555
C9 C8 1_555 1_555
C10 C9 1_555 1_555
H11 C10 1_555 1_555
C11 C6 1_555 1_555
H12 C11 1_555 1_555
C12 C9 1_555 1_555
C13 C12 1_555 1_555
H13 C13 1_555 1_555
C14 C13 1_555 1_555
H14 C14 1_555 1_555
C15 C14 1_555 1_555
C16 C15 1_555 1_555
H15 C16 1_555 1_555
C17 C12 1_555 1_555
H16 C17 1_555 1_555
C18 O4 1_555 1_555
C19 C2 1_555 1_555
C20 C19 1_555 1_555
H17 C20 1_555 1_555
C21 C20 1_555 1_555
H18 C21 1_555 1_555
C22 C21 1_555 1_555
C23 C22 1_555 1_555
H19 C23 1_555 1_555
C24 C19 1_555 1_555
H20 C24 1_555 1_555
C25 C22 1_555 1_555
C26 C25 1_555 1_555
H21 C26 1_555 1_555
C27 C26 1_555 1_555
H22 C27 1_555 1_555
C28 C27 1_555 1_555
C29 C28 1_555 1_555
H23 C29 1_555 1_555
C30 C25 1_555 1_555
H24 C30 1_555 1_555
C31 C28 1_555 1_555
O7 C32 1_555 1_555
O8 C33 1_555 1_555
O9 Cu2 1_555 1_555
O10 Cu1 1_555 1_555
O11 C62 1_555 1_555
O12 C62 1_555 1_555
C32 H25 1_555 1_555
C33 C32 1_555 1_555
H26 C33 1_555 1_555
C34 O7 1_555 1_555
C35 C34 1_555 1_555
H27 C35 1_555 1_555
H28 C35 1_555 1_555
H29 C35 1_555 1_555
C36 C34 1_555 1_555
H30 C36 1_555 1_555
H31 C36 1_555 1_555
H32 C36 1_555 1_555
C37 C32 1_555 1_555
C38 C37 1_555 1_555
H33 C38 1_555 1_555
C39 C38 1_555 1_555
H34 C39 1_555 1_555
C40 C39 1_555 1_555
C41 C40 1_555 1_555
H35 C41 1_555 1_555
C42 C37 1_555 1_555
H36 C42 1_555 1_555
C43 C40 1_555 1_555
C44 C43 1_555 1_555
H37 C44 1_555 1_555
C45 C44 1_555 1_555
H38 C45 1_555 1_555
C46 C45 1_555 1_555
C47 C46 1_555 1_555
H39 C47 1_555 1_555
C48 C43 1_555 1_555
H40 C48 1_555 1_555
C49 O9 1_555 1_555
C50 C33 1_555 1_555
C51 C50 1_555 1_555
H41 C51 1_555 1_555
C52 C51 1_555 1_555
H42 C52 1_555 1_555
C53 C52 1_555 1_555
C54 C53 1_555 1_555
H43 C54 1_555 1_555
C55 C50 1_555 1_555
H44 C55 1_555 1_555
C56 C53 1_555 1_555
C57 C56 1_555 1_555
H45 C57 1_555 1_555
C58 C57 1_555 1_555
H46 C58 1_555 1_555
C59 C58 1_555 1_555
C60 C59 1_555 1_555
H47 C60 1_555 1_555
C61 C56 1_555 1_555
H48 C61 1_555 1_555
C62 C59 1_555 1_555
O13 Cu1 1_555 1_555
N1 C63 1_555 1_555
C63 O13 1_555 1_555
H49 C63 1_555 1_555
C64 N1 1_555 1_555
H50 C64 1_555 1_555
H51 C64 1_555 1_555
H52 C64 1_555 1_555
C65 N1 1_555 1_555
H53 C65 1_555 1_555
H54 C65 1_555 1_555
H55 C65 1_555 1_555
O14 Cu2 1_555 1_555
N2 C66 1_555 1_555
C66 O14 1_555 1_555
H56 C66 1_555 1_555
C67 N2 1_555 1_555
H57 C67 1_555 1_555
H58 C67 1_555 1_555
H59 C67 1_555 1_555
C68 N2 1_555 1_555
H60 C68 1_555 1_555
H61 C68 1_555 1_555
H62 C68 1_555 1_555
Cu1_2 O5 1_555 1_555
Cu2_2 O6 1_555 1_555
O5_2 Cu1 1_555 1_555
O6_2 Cu2 1_555 1_555
O11_2 Cu2 1_555 1_555
O12_2 Cu1 1_555 1_555
O2 C3 1_555 1_555
C10 C11 1_555 1_555
C15 C18 1_555 1_555
C16 C17 1_555 1_555
C23 C24 1_555 1_555
C29 C30 1_555 1_555
O8 C34 1_555 1_555
O10 C49 1_555 1_555
O11 Cu2_2 1_555 1_555
O12 Cu1_2 1_555 1_555
C41 C42 1_555 1_555
C46 C49 1_555 1_555
C47 C48 1_555 1_555
C54 C55 1_555 1_555
C60 C61 1_555 1_555
Cu1_2 Cu2_2 1_555 1_555

#END
