
#######################################################################
#
#                 Cambridge Crystallographic Data Centre
#                                CCDC 
#
#######################################################################
#
# If this CIF has been generated from an entry in the Cambridge 
# Structural Database, then it will include bibliographic, chemical, 
# crystal, experimental, refinement or atomic coordinate data resulting 
# from the CCDC's data processing and validation procedures.
#
#######################################################################

data_UYEDOS
_symmetry_cell_setting           monoclinic
_symmetry_space_group_name_H-M   'P 21/c'
_symmetry_Int_Tables_number      14
_space_group_name_Hall           '-P 2ybc'
loop_
_symmetry_equiv_pos_site_id
_symmetry_equiv_pos_as_xyz
1 x,y,z
2 -x,1/2+y,1/2-z
3 -x,-y,-z
4 x,1/2-y,1/2+z
_cell_length_a                   10.6636(15)
_cell_length_b                   17.262(3)
_cell_length_c                   14.0540(19)
_cell_angle_alpha                90
_cell_angle_beta                 108.948(3)
_cell_angle_gamma                90
_cell_volume                     2446.81
loop_
_atom_site_label
_atom_site_type_symbol
_atom_site_fract_x
_atom_site_fract_y
_atom_site_fract_z
Mo1 Mo 0.81942(6) 0.16009(4) 0.94819(5)
Mo2 Mo 0.68140(6) -0.00890(4) 0.85990(5)
Mo3 Mo 1.13945(6) 0.16988(4) 1.08073(5)
Cr1 Cr 1.0000 0.0000 1.0000
O1 O 0.8377(6) 0.2379(3) 0.8795(4)
O2 O 0.6832(5) 0.1811(3) 0.9850(4)
O3 O 0.7395(5) 0.0921(3) 0.8347(4)
O4 O 0.5455(5) 0.0140(3) 0.8939(5)
O5 O 0.6221(6) -0.0408(3) 0.7394(4)
O6 O 0.8288(4) 0.0375(3) 1.0087(4)
O7 O 1.0100(5) 0.1037(3) 0.9435(4)
O8 O 1.1117(5) 0.0467(3) 1.1274(4)
O9 O 0.7181(5) -0.1071(3) 0.9331(4)
O10 O 1.2071(5) 0.2003(3) 1.2019(4)
O11 O 1.1575(6) 0.2453(3) 1.0074(4)
O12 O 0.9555(5) 0.1813(3) 1.0738(4)
Co1 Co 0.50375(10) 0.24397(6) 0.94543(7)
N1 N 0.4981(6) 0.2353(4) 0.7934(4)
N2 N 0.5154(6) 0.2427(4) 0.6006(4)
O13 O 0.3186(5) 0.3029(4) 0.9048(4)
O14 O 0.4092(5) 0.1381(3) 0.9391(4)
O15 O 0.5985(6) 0.3438(3) 0.9294(4)
O16 O 0.6814(7) 0.4086(4) 0.8260(5)
C1 C 0.4495(8) 0.1789(5) 0.7264(6)
H1 H 0.4089 0.1364 0.7447
C2 C 0.5583(7) 0.2946(4) 0.7645(6)
C3 C 0.5658(7) 0.2985(5) 0.6681(5)
H2 H 0.6068 0.3409 0.6499
C4 C 0.6172(7) 0.3547(5) 0.8451(6)
C5 C 0.4584(8) 0.1822(5) 0.6301(6)
H3 H 0.4241 0.1419 0.5854
Mo1B Mo 1.18058(6) -0.16009(4) 1.05181(5)
Mo2B Mo 1.31860(6) 0.00890(4) 1.14010(5)
Mo3B Mo 0.86055(6) -0.16988(4) 0.91927(5)
O1B O 1.1623(6) -0.2379(3) 1.1205(4)
O2B O 1.3168(5) -0.1811(3) 1.0150(4)
O3B O 1.2605(5) -0.0921(3) 1.1653(4)
O4B O 1.4545(5) -0.0140(3) 1.1061(5)
O5B O 1.3779(6) 0.0408(3) 1.2606(4)
O6B O 1.1712(4) -0.0375(3) 0.9913(4)
O7B O 0.9900(5) -0.1037(3) 1.0565(4)
O8B O 0.8883(5) -0.0467(3) 0.8726(4)
O9B O 1.2819(5) 0.1071(3) 1.0669(4)
O10B O 0.7929(5) -0.2003(3) 0.7981(4)
O11B O 0.8425(6) -0.2453(3) 0.9926(4)
O12B O 1.0445(5) -0.1813(3) 0.9262(4)
Co1B Co 1.49625(10) -0.24397(6) 1.05457(7)
Co1C Co 0.50375(10) 0.25603(6) 0.44543(7)
Co1C_2 Co 0.50375(10) 0.25603(6) 1.44543(7)
N1C N 0.4981(6) 0.2647(4) 1.2934(4)
N1B N 1.5019(6) -0.2353(4) 1.2066(4)
N2C N 0.5154(6) 0.2573(4) 1.1006(4)
N2A N 1.4846(6) -0.2573(4) 0.8994(4)
O13B O 1.6814(5) -0.3029(4) 1.0952(4)
O14B O 1.5908(5) -0.1381(3) 1.0609(4)
O15C O 0.5985(6) 0.1562(3) 1.4294(4)
O15B O 1.4015(6) -0.3438(3) 1.0706(4)
O16C O 0.6814(7) 0.0914(4) 1.3260(5)
C1C C 0.4495(8) 0.3211(5) 1.2264(6)
H1C H 0.4089 0.3636 1.2447
C2C C 0.5583(7) 0.2054(4) 1.2645(6)
C3C C 0.5658(7) 0.2015(5) 1.1681(5)
H2C H 0.6068 0.1591 1.1499
C4C C 0.6172(7) 0.1453(5) 1.3451(6)
C5C C 0.4584(8) 0.3178(5) 1.1301(6)
H3C H 0.4241 0.3581 1.0854
O17 O 0.7519(9) 0.0156(5) 0.1721(6)
O18 O 0.0742(10) 0.0397(7) 0.3052(6)
O19 O 0.5000 0.5000 0.0000
O20 O 0.0849(11) 0.1302(7) 0.7828(7)
O21 O 0.6835(11) 0.9636(6) 0.5882(7)
O22 O 0.0029(18) 0.8911(11) 0.481(2)
O23 O 0.7687(14) 0.1058(10) 0.6286(10)
O24 O 0.946(2) 0.1800(15) 0.2641(13)
O25 O 0.7618(15) 0.9619(7) 0.4456(10)
loop_
_geom_bond_atom_site_label_1
_geom_bond_atom_site_label_2
_geom_bond_site_symmetry_1
_geom_bond_site_symmetry_2
Mo1 O1 1_555 1_555
Mo2 O3 1_555 1_555
Mo3 O7 1_555 1_555
Cr1 O6 1_555 1_555
O2 Mo1 1_555 1_555
O3 Mo1 1_555 1_555
O4 Mo2 1_555 1_555
O5 Mo2 1_555 1_555
O6 Mo1 1_555 1_555
O7 Mo1 1_555 1_555
O8 Mo3 1_555 1_555
O9 Mo2 1_555 1_555
O10 Mo3 1_555 1_555
O11 Mo3 1_555 1_555
O12 Mo1 1_555 1_555
Co1 O2 1_555 1_555
N1 Co1 1_555 1_555
N2 C3 1_555 1_555
O13 Co1 1_555 1_555
O14 Co1 1_555 1_555
O15 Co1 1_555 1_555
O16 C4 1_555 1_555
C1 N1 1_555 1_555
H1 C1 1_555 1_555
C2 N1 1_555 1_555
C3 C2 1_555 1_555
H2 C3 1_555 1_555
C4 O15 1_555 1_555
C5 N2 1_555 1_555
H3 C5 1_555 1_555
Mo1B O1B 1_555 1_555
Mo2B O8 1_555 1_555
Mo3B O9 1_555 1_555
O2B Mo1B 1_555 1_555
O3B Mo1B 1_555 1_555
O4B Mo2B 1_555 1_555
O5B Mo2B 1_555 1_555
O6B Cr1 1_555 1_555
O7B Cr1 1_555 1_555
O8B Mo2 1_555 1_555
O9B Mo3 1_555 1_555
O10B Mo3B 1_555 1_555
O11B Mo3B 1_555 1_555
O12B Mo1B 1_555 1_555
Co1B O2B 1_555 1_555
Co1C N2 1_555 1_555
Co1C_2 N1C 1_555 1_555
N1C C1C 1_555 1_555
N1B Co1B 1_555 1_555
N2C Co1 1_555 1_555
N2A Co1B 1_555 1_555
O13B Co1B 1_555 1_555
O14B Co1B 1_555 1_555
O15C Co1C_2 1_555 1_555
O15B Co1B 1_555 1_555
O16C C4C 1_555 1_555
C1C H1C 1_555 1_555
C2C N1C 1_555 1_555
C3C N2C 1_555 1_555
H2C C3C 1_555 1_555
C4C O15C 1_555 1_555
C5C N2C 1_555 1_555
H3C C5C 1_555 1_555
Mo2 O6 1_555 1_555
Mo3 O12 1_555 1_555
Cr1 O7 1_555 1_555
Cr1 O8 1_555 1_555
Cr1 O8B 1_555 1_555
C1 C5 1_555 1_555
C2 C4 1_555 1_555
Mo1B O6B 1_555 1_555
Mo1B O7B 1_555 1_555
Mo2B O3B 1_555 1_555
Mo2B O6B 1_555 1_555
Mo2B O9B 1_555 1_555
Mo3B O7B 1_555 1_555
Mo3B O8B 1_555 1_555
Mo3B O12B 1_555 1_555
C1C C5C 1_555 1_555
C2C C3C 1_555 1_555
C2C C4C 1_555 1_555

#END
