
#######################################################################
#
#                 Cambridge Crystallographic Data Centre
#                                CCDC 
#
#######################################################################
#
# If this CIF has been generated from an entry in the Cambridge 
# Structural Database, then it will include bibliographic, chemical, 
# crystal, experimental, refinement or atomic coordinate data resulting 
# from the CCDC's data processing and validation procedures.
#
#######################################################################

data_UYEKEP
_symmetry_cell_setting           orthorhombic
_symmetry_space_group_name_H-M   'P b c a'
_symmetry_Int_Tables_number      61
_space_group_name_Hall           '-P 2ac 2ab'
loop_
_symmetry_equiv_pos_site_id
_symmetry_equiv_pos_as_xyz
1 x,y,z
2 1/2-x,-y,1/2+z
3 -x,1/2+y,1/2-z
4 1/2+x,1/2-y,-z
5 -x,-y,-z
6 1/2+x,y,1/2-z
7 x,1/2-y,1/2+z
8 1/2-x,1/2+y,z
_cell_length_a                   19.3213(16)
_cell_length_b                   7.1994(6)
_cell_length_c                   26.918(2)
_cell_angle_alpha                90
_cell_angle_beta                 90
_cell_angle_gamma                90
_cell_volume                     3744.34
loop_
_atom_site_label
_atom_site_type_symbol
_atom_site_fract_x
_atom_site_fract_y
_atom_site_fract_z
Ag1 Ag 0.82118(3) 0.04731(8) 0.247464(15)
Ag2 Ag 0.99401(2) -0.23714(7) 0.074045(17)
Br1 Br 0.68774(3) -0.15993(10) 0.06152(2)
Br2 Br 0.69879(3) 0.27765(9) 0.43513(2)
N1 N 0.8257(2) -0.0050(7) 0.16869(15)
N2 N 0.9445(2) 0.0257(7) 0.16715(17)
H1 H 0.9425 0.0807 0.1955
H2 H 0.9839 0.0088 0.1529
N3 N 0.8923(2) -0.1203(7) 0.10119(16)
N4 N 0.9009(2) 0.1979(6) 0.39281(16)
N5 N 0.9465(2) 0.0385(7) 0.32703(18)
H3 H 0.9866 0.0471 0.3407
H4 H 0.9419 -0.0177 0.2990
N6 N 0.8294(2) 0.0978(7) 0.32602(15)
C1 C 0.7688(3) -0.0490(8) 0.14386(19)
H5 H 0.7261 -0.0312 0.1591
C2 C 0.7706(3) -0.1198(8) 0.09652(19)
C3 C 0.8350(3) -0.1603(8) 0.07697(19)
H6 H 0.8379 -0.2171 0.0460
C4 C 0.8869(3) -0.0332(8) 0.14547(18)
C5 C 0.8913(3) 0.1121(8) 0.34934(18)
C6 C 0.8450(3) 0.2544(8) 0.4172(2)
H7 H 0.8505 0.3121 0.4478
C7 C 0.7794(3) 0.2303(8) 0.39858(18)
C8 C 0.7747(3) 0.1542(8) 0.35164(19)
H8 H 0.7311 0.1419 0.3373
Ag2B Ag 1.00599(2) 0.26286(7) 0.425955(17)
N4B N 1.0991(2) -0.3021(6) 0.10719(16)
Cl1 Cl 0.99276(6) -0.2597(2) -0.04687(5)
O1 O 1.0466(2) -0.1841(6) -0.01618(15)
O2 O 1.0216(2) -0.3969(6) -0.07892(16)
O3 O 0.9409(2) -0.3417(7) -0.01531(15)
O4 O 0.9616(2) -0.1160(6) -0.07654(15)
Cl2 Cl 0.61751(9) 0.0393(3) 0.24725(8)
O5 O 0.6859(7) 0.109(3) 0.2469(5)
O6 O 0.5709(8) -0.118(2) 0.2494(6)
O7 O 0.6128(5) 0.0814(16) 0.1901(3)
O8 O 0.6026(10) 0.173(3) 0.2735(7)
O9? O 0.6857(6) -0.0436(16) 0.2522(4)
O10? O 0.5979(14) -0.102(3) 0.2254(10)
O11? O 0.6130(8) 0.012(2) 0.3072(4)
O12? O 0.5712(7) 0.200(2) 0.2516(6)
loop_
_geom_bond_atom_site_label_1
_geom_bond_atom_site_label_2
_geom_bond_site_symmetry_1
_geom_bond_site_symmetry_2
Ag1 N1 1_555 1_555
Ag2 N3 1_555 1_555
Br1 C2 1_555 1_555
Br2 C7 1_555 1_555
N1 C1 1_555 1_555
N2 H1 1_555 1_555
H2 N2 1_555 1_555
N3 C3 1_555 1_555
N4 C5 1_555 1_555
N5 H3 1_555 1_555
H4 N5 1_555 1_555
N6 Ag1 1_555 1_555
C1 H5 1_555 1_555
C2 C1 1_555 1_555
C3 C2 1_555 1_555
H6 C3 1_555 1_555
C4 N1 1_555 1_555
C5 N5 1_555 1_555
C6 N4 1_555 1_555
H7 C6 1_555 1_555
C7 C6 1_555 1_555
C8 N6 1_555 1_555
H8 C8 1_555 1_555
Cl1 O1 1_555 1_555
O2 Cl1 1_555 1_555
O3 Cl1 1_555 1_555
O4 Cl1 1_555 1_555
Cl2 O5 1_555 1_555
O6 Cl2 1_555 1_555
O7 Cl2 1_555 1_555
O8 Cl2 1_555 1_555
Ag2B N4 1_555 1_555
N4B Ag2 1_555 1_555
N2 C4 1_555 1_555
N3 C4 1_555 1_555
N6 C5 1_555 1_555
C7 C8 1_555 1_555

#END
