
#######################################################################
#
#                 Cambridge Crystallographic Data Centre
#                                CCDC 
#
#######################################################################
#
# If this CIF has been generated from an entry in the Cambridge 
# Structural Database, then it will include bibliographic, chemical, 
# crystal, experimental, refinement or atomic coordinate data resulting 
# from the CCDC's data processing and validation procedures.
#
#######################################################################

data_UYEVEA
_symmetry_cell_setting           orthorhombic
_symmetry_space_group_name_H-M   'C 2 2 21'
_symmetry_Int_Tables_number      20
_space_group_name_Hall           'C 2n 2'
loop_
_symmetry_equiv_pos_site_id
_symmetry_equiv_pos_as_xyz
1 x,y,z
2 -x,-y,1/2+z
3 x,-y,-z
4 -x,y,1/2-z
5 1/2+x,1/2+y,z
6 1/2-x,1/2-y,1/2+z
7 1/2+x,1/2-y,-z
8 1/2-x,1/2+y,1/2-z
_cell_length_a                   23.275(8)
_cell_length_b                   10.737(3)
_cell_length_c                   15.664(5)
_cell_angle_alpha                90
_cell_angle_beta                 90
_cell_angle_gamma                90
_cell_volume                     3914.49
loop_
_atom_site_label
_atom_site_type_symbol
_atom_site_fract_x
_atom_site_fract_y
_atom_site_fract_z
Mo1 Mo 0.075616(13) 0.5000 0.0000
Cu1 Cu -0.003000(16) 0.29037(3) 0.14438(2)
O1 O 0.14856(9) 0.3952(2) 0.05251(13)
O2 O 0.20461(12) 0.3765(3) 0.16694(17)
O3 O 0.06655(9) 0.3607(2) 0.20517(13)
O4 O 0.04823(9) 0.4383(2) 0.33368(13)
O5 O 0.09491(9) 0.58685(19) 0.10337(11)
O6 O 0.02931(9) 0.38366(19) 0.03247(12)
N1 N 0.03795(12) 0.1308(2) 0.1296(2)
N2 N -0.07302(13) 0.1794(2) 0.12772(18)
C1 C 0.09406(18) 0.1116(4) 0.1281(4)
H1 H 0.1189 0.1789 0.1339
C2 C 0.1164(2) -0.0072(5) 0.1179(5)
H2 H 0.1560 -0.0182 0.1159
C3 C 0.0814(2) -0.1074(4) 0.1110(4)
H3 H 0.0970 -0.1864 0.1036
C4 C 0.02202(19) -0.0919(3) 0.1148(3)
C5 C -0.0194(2) -0.1895(3) 0.1071(3)
H4 H -0.0072 -0.2715 0.1011
C6 C -0.0758(3) -0.1642(4) 0.1084(3)
H5 H -0.1018 -0.2296 0.1046
C7 C -0.09684(19) -0.0412(4) 0.1153(3)
C8 C -0.15547(19) -0.0062(6) 0.1153(3)
H6 H -0.1838 -0.0670 0.1114
C9 C -0.17058(19) 0.1145(5) 0.1209(4)
H7 H -0.2092 0.1368 0.1207
C10 C -0.12786(17) 0.2068(4) 0.1271(3)
H8 H -0.1389 0.2898 0.1309
C11 C -0.05740(14) 0.0574(3) 0.1228(2)
C12 C 0.00218(16) 0.0318(2) 0.12222(19)
C13 C 0.16714(13) 0.4304(3) 0.1252(2)
C14 C 0.14001(13) 0.5509(3) 0.15823(17)
H9 H 0.1694 0.6162 0.1566
C15 C 0.11777(13) 0.5421(3) 0.24869(19)
H10 H 0.1005 0.6211 0.2642
H11 H 0.1500 0.5280 0.2868
C16 C 0.07398(13) 0.4395(2) 0.26206(17)
Cu1B Cu -0.003000(16) 0.70963(3) -0.14438(2)
Cu1C Cu 0.003000(16) 0.29037(3) 0.35562(2)
Cu1A Cu 0.003000(16) 0.70963(3) -0.35562(2)
O1B O 0.14856(9) 0.6048(2) -0.05251(13)
O2B O 0.20461(12) 0.6235(3) -0.16694(17)
O3B O 0.06655(9) 0.6393(2) -0.20517(13)
O4B O 0.04823(9) 0.5617(2) -0.33368(13)
O4C O -0.04823(9) 0.4383(2) 0.16632(13)
O4A O -0.04823(9) 0.5617(2) -0.16632(13)
O5B O 0.09491(9) 0.41315(19) -0.10337(11)
O6B O 0.02931(9) 0.61634(19) -0.03247(12)
N1B N 0.03795(12) 0.8692(2) -0.1296(2)
N2B N -0.07302(13) 0.8206(2) -0.12772(18)
C1B C 0.09406(18) 0.8884(4) -0.1281(4)
H1B H 0.1189 0.8211 -0.1339
C2B C 0.1164(2) 1.0072(5) -0.1179(5)
H2B H 0.1560 1.0182 -0.1159
C3B C 0.0814(2) 1.1074(4) -0.1110(4)
H3B H 0.0970 1.1864 -0.1036
C4B C 0.02202(19) 1.0919(3) -0.1148(3)
C5B C -0.0194(2) 1.1895(3) -0.1071(3)
H4B H -0.0072 1.2715 -0.1011
C6B C -0.0758(3) 1.1642(4) -0.1084(3)
H5B H -0.1018 1.2296 -0.1046
C7B C -0.09684(19) 1.0412(4) -0.1153(3)
C8B C -0.15547(19) 1.0062(6) -0.1153(3)
H6B H -0.1838 1.0670 -0.1114
C9B C -0.17058(19) 0.8855(5) -0.1209(4)
H7B H -0.2092 0.8632 -0.1207
C10B C -0.12786(17) 0.7932(4) -0.1271(3)
H8B H -0.1389 0.7102 -0.1309
C11B C -0.05740(14) 0.9426(3) -0.1228(2)
C12B C 0.00218(16) 0.9682(2) -0.12222(19)
C13B C 0.16714(13) 0.5696(3) -0.1252(2)
C14B C 0.14001(13) 0.4491(3) -0.15823(17)
H9B H 0.1694 0.3838 -0.1566
C15B C 0.11777(13) 0.4579(3) -0.24869(19)
H10B H 0.1005 0.3789 -0.2642
H11B H 0.1500 0.4720 -0.2868
C16B C 0.07398(13) 0.5605(2) -0.26206(17)
O7 O 0.21582(19) 0.7793(4) 0.0406(3)
H12 H 0.1883 0.7457 0.0172
H13 H 0.2420 0.7869 0.0059
O8 O 0.4011(2) 0.0000 0.0000
H14 H 0.4243 -0.0481 0.0216
H14B H 0.4243 0.0481 -0.0216
O9 O 0.2547(2) 0.9267(5) 0.1705(3)
H15 H 0.2429 0.8827 0.1314
H16 H 0.2490 0.8806 0.2114
O10 O 0.2694(5) 0.1761(10) 0.1202(9)
H17 H 0.2533 0.2073 0.1616
H18 H 0.2655 0.1031 0.1343
O11? O 0.3003(5) 0.1304(17) 0.0663(11)
H19? H 0.2923 0.0561 0.0645
loop_
_geom_bond_atom_site_label_1
_geom_bond_atom_site_label_2
_geom_bond_site_symmetry_1
_geom_bond_site_symmetry_2
Mo1 O1 1_555 1_555
Cu1 O3 1_555 1_555
O1 C13 1_555 1_555
O2 C13 1_555 1_555
O3 C16 1_555 1_555
O4 C16 1_555 1_555
O5 Mo1 1_555 1_555
O6 Mo1 1_555 1_555
N1 Cu1 1_555 1_555
N2 Cu1 1_555 1_555
C1 N1 1_555 1_555
H1 C1 1_555 1_555
C2 C1 1_555 1_555
H2 C2 1_555 1_555
C3 C2 1_555 1_555
H3 C3 1_555 1_555
C4 C3 1_555 1_555
C5 C4 1_555 1_555
H4 C5 1_555 1_555
C6 C5 1_555 1_555
H5 C6 1_555 1_555
C7 C6 1_555 1_555
C8 C7 1_555 1_555
H6 C8 1_555 1_555
C9 C8 1_555 1_555
H7 C9 1_555 1_555
C10 N2 1_555 1_555
H8 C10 1_555 1_555
C11 N2 1_555 1_555
C12 N1 1_555 1_555
C13 C14 1_555 1_555
C14 O5 1_555 1_555
H9 C14 1_555 1_555
C15 C14 1_555 1_555
H10 C15 1_555 1_555
H11 C15 1_555 1_555
C16 C15 1_555 1_555
O7 H12 1_555 1_555
H13 O7 1_555 1_555
O8 H14 1_555 1_555
O9 H15 1_555 1_555
H16 O9 1_555 1_555
O10 H17 1_555 1_555
H18 O10 1_555 1_555
Cu1B O3B 1_555 1_555
Cu1C O4 1_555 1_555
Cu1A O4B 1_555 1_555
O1B Mo1 1_555 1_555
O2B C13B 1_555 1_555
O3B C16B 1_555 1_555
O4B C16B 1_555 1_555
O4C Cu1 1_555 1_555
O4A Cu1B 1_555 1_555
O5B Mo1 1_555 1_555
O6B Mo1 1_555 1_555
N1B Cu1B 1_555 1_555
N2B Cu1B 1_555 1_555
C1B N1B 1_555 1_555
H1B C1B 1_555 1_555
C2B C1B 1_555 1_555
H2B C2B 1_555 1_555
C3B C2B 1_555 1_555
H3B C3B 1_555 1_555
C4B C3B 1_555 1_555
C5B C4B 1_555 1_555
H4B C5B 1_555 1_555
C6B C5B 1_555 1_555
H5B C6B 1_555 1_555
C7B C6B 1_555 1_555
C8B C7B 1_555 1_555
H6B C8B 1_555 1_555
C9B C8B 1_555 1_555
H7B C9B 1_555 1_555
C10B N2B 1_555 1_555
H8B C10B 1_555 1_555
C11B N2B 1_555 1_555
C12B N1B 1_555 1_555
C13B O1B 1_555 1_555
C14B O5B 1_555 1_555
H9B C14B 1_555 1_555
C15B C14B 1_555 1_555
H10B C15B 1_555 1_555
H11B C15B 1_555 1_555
C16B C15B 1_555 1_555
H14B O8 1_555 1_555
Cu1 O6 1_555 1_555
C4 C12 1_555 1_555
C7 C11 1_555 1_555
C9 C10 1_555 1_555
C11 C12 1_555 1_555
Cu1B O6B 1_555 1_555
C4B C12B 1_555 1_555
C7B C11B 1_555 1_555
C9B C10B 1_555 1_555
C11B C12B 1_555 1_555
C13B C14B 1_555 1_555

#END
