
#######################################################################
#
#                 Cambridge Crystallographic Data Centre
#                                CCDC 
#
#######################################################################
#
# If this CIF has been generated from an entry in the Cambridge 
# Structural Database, then it will include bibliographic, chemical, 
# crystal, experimental, refinement or atomic coordinate data resulting 
# from the CCDC's data processing and validation procedures.
#
#######################################################################

data_UYEWEB
_symmetry_cell_setting           monoclinic
_symmetry_space_group_name_H-M   'P 21/m'
_symmetry_Int_Tables_number      11
_space_group_name_Hall           '-P 2yb'
loop_
_symmetry_equiv_pos_site_id
_symmetry_equiv_pos_as_xyz
1 x,y,z
2 -x,1/2+y,-z
3 -x,-y,-z
4 x,1/2-y,z
_cell_length_a                   7.57610(10)
_cell_length_b                   12.8002(3)
_cell_length_c                   9.9760(2)
_cell_angle_alpha                90
_cell_angle_beta                 101.0330(10)
_cell_angle_gamma                90
_cell_volume                     949.548
loop_
_atom_site_label
_atom_site_type_symbol
_atom_site_fract_x
_atom_site_fract_y
_atom_site_fract_z
Nd1 Nd 0.17838(3) 0.2500 0.781885(17)
K1 K 0.53077(15) 0.2500 0.53127(11)
N1 N -0.0383(3) 0.09848(19) 0.6853(2)
N2 N -0.1733(4) 0.1117(2) 0.5739(2)
N3 N -0.2290(4) 0.0208(2) 0.5264(2)
N4 N -0.1381(4) -0.0557(2) 0.6032(2)
N5 N 0.0925(4) -0.0566(2) 0.7980(3)
H1 H 0.106(5) -0.1206(16) 0.784(3)
N6 N 0.2138(3) 0.08507(19) 0.9446(2)
N7 N 0.3168(4) 0.0851(2) 1.0728(2)
N8 N 0.3497(4) -0.0097(2) 1.1134(2)
N9 N 0.2695(4) -0.0773(2) 1.0160(2)
C1 C -0.0234(4) -0.0043(2) 0.6994(3)
C2 C 0.1889(4) -0.0159(2) 0.9157(3)
O1 O 0.1500(4) 0.2500 0.5284(3)
H2 H 0.135(5) 0.1934(15) 0.484(3)
O2 O 0.4844(4) 0.2500 0.9218(3)
H3 H 0.554(4) 0.202(2) 0.959(3)
O3 O -0.0643(5) 0.2500 0.9112(4)
H4 H -0.118(6) 0.201(3) 0.943(5)
O4 O 0.3803(3) 0.10998(17) 0.6952(2)
H5 H 0.344(5) 0.065(2) 0.633(2)
H6 H 0.457(5) 0.082(3) 0.758(3)
O5 O 0.4420(6) 0.2500 0.2550(3)
H7 H 0.400(6) 0.197(2) 0.208(3)
K1_2 K -0.46923(15) 0.2500 0.53127(11)
N1C N -0.0383(3) 0.40152(19) 0.6853(2)
N2C N -0.1733(4) 0.3883(2) 0.5739(2)
N2_2 N 0.8267(4) 0.1117(2) 0.5739(2)
N2C_2 N 0.8267(4) 0.3883(2) 0.5739(2)
N3C N -0.2290(4) 0.4792(2) 0.5264(2)
N4C N -0.1381(4) 0.5557(2) 0.6032(2)
N5C N 0.0925(4) 0.5566(2) 0.7980(3)
H1C H 0.106(5) 0.6206(16) 0.784(3)
N6C N 0.2138(3) 0.41493(19) 0.9446(2)
N7C N 0.3168(4) 0.4149(2) 1.0728(2)
N8C N 0.3497(4) 0.5097(2) 1.1134(2)
N9C N 0.2695(4) 0.5773(2) 1.0160(2)
C1C C -0.0234(4) 0.5043(2) 0.6994(3)
C2C C 0.1889(4) 0.5159(2) 0.9157(3)
H2C H 0.135(5) 0.3066(15) 0.484(3)
H3C H 0.554(4) 0.298(2) 0.959(3)
H4C H -0.118(6) 0.299(3) 0.943(5)
O4C O 0.3803(3) 0.39002(17) 0.6952(2)
H5C H 0.344(5) 0.435(2) 0.633(2)
H6C H 0.457(5) 0.418(3) 0.758(3)
H7C H 0.400(6) 0.303(2) 0.208(3)
O6 O 0.8074(5) 0.2500 0.2968(3)
H8 H 0.725(10) 0.294(6) 0.299(7)
H8C H 0.725(10) 0.206(6) 0.299(7)
loop_
_geom_bond_atom_site_label_1
_geom_bond_atom_site_label_2
_geom_bond_site_symmetry_1
_geom_bond_site_symmetry_2
Nd1 N1 1_555 1_555
K1 O1 1_555 1_555
N1 N2 1_555 1_555
N2 N3 1_555 1_555
N3 N4 1_555 1_555
N4 C1 1_555 1_555
N5 H1 1_555 1_555
N6 Nd1 1_555 1_555
N7 N6 1_555 1_555
N8 N7 1_555 1_555
N9 N8 1_555 1_555
C1 N1 1_555 1_555
C2 N5 1_555 1_555
O1 Nd1 1_555 1_555
H2 O1 1_555 1_555
O2 Nd1 1_555 1_555
H3 O2 1_555 1_555
O3 Nd1 1_555 1_555
H4 O3 1_555 1_555
O4 Nd1 1_555 1_555
H5 O4 1_555 1_555
H6 O4 1_555 1_555
O5 K1 1_555 1_555
H7 O5 1_555 1_555
O6 H8 1_555 1_555
K1_2 N2 1_555 1_555
N1C Nd1 1_555 1_555
N2C K1_2 1_555 1_555
N2_2 K1 1_555 1_555
N2C_2 K1 1_555 1_555
N3C N2C 1_555 1_555
N4C N3C 1_555 1_555
N5C H1C 1_555 1_555
N6C Nd1 1_555 1_555
N7C N6C 1_555 1_555
N8C N7C 1_555 1_555
N9C N8C 1_555 1_555
C1C N1C 1_555 1_555
C2C N5C 1_555 1_555
H2C O1 1_555 1_555
H3C O2 1_555 1_555
H4C O3 1_555 1_555
O4C Nd1 1_555 1_555
H5C O4C 1_555 1_555
H6C O4C 1_555 1_555
H7C O5 1_555 1_555
H8C O6 1_555 1_555
K1 O4 1_555 1_555
K1 O4C 1_555 1_555
N5 C1 1_555 1_555
N6 C2 1_555 1_555
N9 C2 1_555 1_555
N1C N2C 1_555 1_555
N4C C1C 1_555 1_555
N5C C1C 1_555 1_555
N6C C2C 1_555 1_555
N9C C2C 1_555 1_555

#END
