
#######################################################################
#
#                 Cambridge Crystallographic Data Centre
#                                CCDC 
#
#######################################################################
#
# If this CIF has been generated from an entry in the Cambridge 
# Structural Database, then it will include bibliographic, chemical, 
# crystal, experimental, refinement or atomic coordinate data resulting 
# from the CCDC's data processing and validation procedures.
#
#######################################################################

data_UYEWOL01
_symmetry_cell_setting           orthorhombic
_symmetry_space_group_name_H-M   'P b c a'
_symmetry_Int_Tables_number      61
_space_group_name_Hall           '-P 2ac 2ab'
loop_
_symmetry_equiv_pos_site_id
_symmetry_equiv_pos_as_xyz
1 x,y,z
2 1/2-x,-y,1/2+z
3 -x,1/2+y,1/2-z
4 1/2+x,1/2-y,-z
5 -x,-y,-z
6 1/2+x,y,1/2-z
7 x,1/2-y,1/2+z
8 1/2-x,1/2+y,z
_cell_length_a                   7.0218(7)
_cell_length_b                   17.9701(18)
_cell_length_c                   19.0697(19)
_cell_angle_alpha                90
_cell_angle_beta                 90
_cell_angle_gamma                90
_cell_volume                     2406.26
loop_
_atom_site_label
_atom_site_type_symbol
_atom_site_fract_x
_atom_site_fract_y
_atom_site_fract_z
C1 C 0.4005(3) 0.14746(12) 0.54275(11)
C2 C 0.3753(3) 0.10092(12) 0.60741(10)
C3 C 0.4274(3) 0.02690(12) 0.60302(11)
H1 H 0.4569 0.0054 0.5600
C4 C 0.4344(3) -0.01453(11) 0.66458(11)
C5 C 0.4741(3) -0.09781(13) 0.74405(13)
H2 H 0.5011 -0.1427 0.7663
C6 C 0.3934(3) 0.01910(12) 0.72912(10)
C7 C 0.3346(3) 0.09245(12) 0.73410(11)
H3 H 0.3044 0.1136 0.7772
C8 C 0.3224(3) 0.13315(11) 0.67267(11)
C9 C 0.2313(3) 0.20862(11) 0.67497(11)
Mn1 Mn 0.49247(4) 0.177138(18) 0.400692(18)
N1 N 0.4833(3) -0.08859(11) 0.67563(10)
N2 N 0.4216(3) -0.03583(10) 0.77861(10)
O1 O 0.3648(2) 0.11699(9) 0.48389(8)
O2 O 0.4675(2) 0.21162(9) 0.54701(9)
O3 O 0.1125(2) 0.22111(8) 0.62559(9)
O4 O 0.2687(3) 0.25233(10) 0.72279(9)
O5 O 0.7791(2) 0.15263(9) 0.44633(9)
H4 H 0.8546 0.1892 0.4414
H5 H 0.8283 0.1141 0.4279
O6 O 0.2202(2) 0.21893(9) 0.36283(8)
H6 H 0.2310 0.2410 0.3236
H7 H 0.1669 0.2476 0.3923
C1D C 0.5995(3) -0.14746(12) 0.45725(11)
C2D C 0.6247(3) -0.10092(12) 0.39259(10)
C3D C 0.5726(3) -0.02690(12) 0.39698(11)
H1D H 0.5431 -0.0054 0.4400
C4D C 0.5656(3) 0.01453(11) 0.33542(11)
C5D C 0.5259(3) 0.09781(13) 0.25595(13)
H2D H 0.4989 0.1427 0.2337
C6D C 0.6066(3) -0.01910(12) 0.27088(10)
C7D C 0.6654(3) -0.09245(12) 0.26590(11)
H3D H 0.6956 -0.1136 0.2228
C8D C 0.6776(3) -0.13315(11) 0.32733(11)
C9D C 0.7687(3) -0.20862(11) 0.32503(11)
Mn1D Mn 0.50753(4) -0.177138(18) 0.599308(18)
Mn1C Mn -0.00753(4) 0.322862(18) 0.599308(18)
Mn1G Mn 1.00753(4) -0.322862(18) 0.400692(18)
N1D N 0.5167(3) 0.08859(11) 0.32437(10)
N2D N 0.5784(3) 0.03583(10) 0.22139(10)
O1D O 0.6352(2) -0.11699(9) 0.51611(8)
O2D O 0.5325(2) -0.21162(9) 0.45299(9)
O3D O 0.8875(2) -0.22111(8) 0.37441(9)
O3C O 0.6125(2) 0.27889(8) 0.37441(9)
O3G O 0.3875(2) -0.27889(8) 0.62559(9)
O4D O 0.7313(3) -0.25233(10) 0.27721(9)
O5D O 0.2209(2) -0.15263(9) 0.55367(9)
H4D H 0.1454 -0.1892 0.5586
H5D H 0.1717 -0.1141 0.5721
O6D O 0.7798(2) -0.21893(9) 0.63717(8)
H6D H 0.7690 -0.2410 0.6764
H7D H 0.8331 -0.2476 0.6077
O7 O 0.0613(3) 0.04210(10) 0.42401(9)
H8 H 0.0850 -0.0043 0.4230
H9 H 0.1558 0.0642 0.4425
O8 O 0.8680(3) 0.10907(11) 0.58113(11)
H10 H 0.9433 0.1422 0.5967
H11 H 0.8375 0.1206 0.5394
loop_
_geom_bond_atom_site_label_1
_geom_bond_atom_site_label_2
_geom_bond_site_symmetry_1
_geom_bond_site_symmetry_2
C1 C2 1_555 1_555
C2 C3 1_555 1_555
C3 H1 1_555 1_555
C4 C3 1_555 1_555
C5 H2 1_555 1_555
C6 C4 1_555 1_555
C7 C6 1_555 1_555
H3 C7 1_555 1_555
C8 C2 1_555 1_555
C9 C8 1_555 1_555
Mn1 O1 1_555 1_555
N1 C4 1_555 1_555
N2 C5 1_555 1_555
O1 C1 1_555 1_555
O2 C1 1_555 1_555
O3 C9 1_555 1_555
O4 C9 1_555 1_555
O5 Mn1 1_555 1_555
H4 O5 1_555 1_555
H5 O5 1_555 1_555
O6 Mn1 1_555 1_555
H6 O6 1_555 1_555
H7 O6 1_555 1_555
O7 H8 1_555 1_555
H9 O7 1_555 1_555
O8 H10 1_555 1_555
H11 O8 1_555 1_555
C1D C2D 1_555 1_555
C2D C3D 1_555 1_555
C3D H1D 1_555 1_555
C4D C3D 1_555 1_555
C5D H2D 1_555 1_555
C6D C4D 1_555 1_555
C7D C6D 1_555 1_555
H3D C7D 1_555 1_555
C8D C2D 1_555 1_555
C9D C8D 1_555 1_555
Mn1D N1 1_555 1_555
Mn1C O3 1_555 1_555
Mn1G O3D 1_555 1_555
N1D Mn1 1_555 1_555
N2D C5D 1_555 1_555
O1D C1D 1_555 1_555
O2D C1D 1_555 1_555
O3D C9D 1_555 1_555
O3C Mn1 1_555 1_555
O3G Mn1D 1_555 1_555
O4D C9D 1_555 1_555
O5D Mn1D 1_555 1_555
H4D O5D 1_555 1_555
H5D O5D 1_555 1_555
O6D Mn1D 1_555 1_555
H6D O6D 1_555 1_555
H7D O6D 1_555 1_555
C5 N1 1_555 1_555
C6 N2 1_555 1_555
C7 C8 1_555 1_555
C4D N1D 1_555 1_555
C5D N1D 1_555 1_555
C6D N2D 1_555 1_555
C7D C8D 1_555 1_555
Mn1D O1D 1_555 1_555

#END
