
#######################################################################
#
#                 Cambridge Crystallographic Data Centre
#                                CCDC 
#
#######################################################################
#
# If this CIF has been generated from an entry in the Cambridge 
# Structural Database, then it will include bibliographic, chemical, 
# crystal, experimental, refinement or atomic coordinate data resulting 
# from the CCDC's data processing and validation procedures.
#
#######################################################################

data_UYIXEG
_symmetry_cell_setting           monoclinic
_symmetry_space_group_name_H-M   'P 21/c'
_symmetry_Int_Tables_number      14
_space_group_name_Hall           '-P 2ybc'
loop_
_symmetry_equiv_pos_site_id
_symmetry_equiv_pos_as_xyz
1 x,y,z
2 -x,1/2+y,1/2-z
3 -x,-y,-z
4 x,1/2-y,1/2+z
_cell_length_a                   7.2360(14)
_cell_length_b                   6.9775(14)
_cell_length_c                   8.998(2)
_cell_angle_alpha                90
_cell_angle_beta                 107.52(3)
_cell_angle_gamma                90
_cell_volume                     433.228
loop_
_atom_site_label
_atom_site_type_symbol
_atom_site_fract_x
_atom_site_fract_y
_atom_site_fract_z
Co1 Co 0.5000 1.0000 0.0000
N1 N 0.5586(3) 0.7145(3) 0.0765(3)
N2 N 0.4934(3) 0.6439(3) 0.1695(3)
N3 N 0.4250(3) 0.5709(4) 0.2576(3)
N4 N 0.8088(3) 1.0199(3) 0.0058(2)
C1 C 0.8709(4) 0.8629(4) -0.0514(3)
H1 H 0.7830 0.7639 -0.0883
C2 C 0.9403(4) 1.1603(4) 0.0587(3)
C3 C 0.8885(4) 1.3396(4) 0.1280(3)
H2 H 0.8117 1.4205 0.0463
H3 H 1.0047 1.4059 0.1842
H4 H 0.8157 1.3074 0.1978
Co1_2 Co 1.5000 1.0000 0.0000
Co1A Co 0.5000 0.5000 0.5000
Co1A_2 Co 0.5000 1.5000 -0.5000
N1B N 0.4414(3) 1.2855(3) -0.0765(3)
N2B N 0.5066(3) 1.3561(3) -0.1695(3)
N3B N 0.5750(3) 1.4291(4) -0.2576(3)
N3A N 0.5750(3) 1.0709(4) 0.2424(3)
N3C N 0.4250(3) 0.9291(4) -0.2424(3)
N4B N 1.1912(3) 0.9801(3) -0.0058(2)
N4B_2 N 0.1912(3) 0.9801(3) -0.0058(2)
C1B C 1.1291(4) 1.1371(4) 0.0514(3)
H1B H 1.2170 1.2361 0.0883
C2B C 1.0597(4) 0.8397(4) -0.0587(3)
C3B C 1.1115(4) 0.6604(4) -0.1280(3)
H2B H 1.1883 0.5795 -0.0463
H3B H 0.9953 0.5941 -0.1842
H4B H 1.1843 0.6926 -0.1978
loop_
_geom_bond_atom_site_label_1
_geom_bond_atom_site_label_2
_geom_bond_site_symmetry_1
_geom_bond_site_symmetry_2
Co1 N1 1_555 1_555
N1 N2 1_555 1_555
N2 N3 1_555 1_555
N3 Co1A 1_555 1_555
N4 Co1 1_555 1_555
C1 N4 1_555 1_555
H1 C1 1_555 1_555
C2 N4 1_555 1_555
C3 C2 1_555 1_555
H2 C3 1_555 1_555
H3 C3 1_555 1_555
H4 C3 1_555 1_555
Co1_2 N4B 1_555 1_555
Co1A_2 N3B 1_555 1_555
N1B Co1 1_555 1_555
N2B N1B 1_555 1_555
N3B N2B 1_555 1_555
N3A Co1 1_555 1_555
N3C Co1 1_555 1_555
N4B C1B 1_555 1_555
N4B_2 Co1 1_555 1_555
C1B C2 1_555 1_555
H1B C1B 1_555 1_555
C2B C1 1_555 1_555
C3B C2B 1_555 1_555
H2B C3B 1_555 1_555
H3B C3B 1_555 1_555
H4B C3B 1_555 1_555
N4B C2B 1_555 1_555

#END
