
#######################################################################
#
#                 Cambridge Crystallographic Data Centre
#                                CCDC 
#
#######################################################################
#
# If this CIF has been generated from an entry in the Cambridge 
# Structural Database, then it will include bibliographic, chemical, 
# crystal, experimental, refinement or atomic coordinate data resulting 
# from the CCDC's data processing and validation procedures.
#
#######################################################################

data_UYOCUH
_symmetry_cell_setting           monoclinic
_symmetry_space_group_name_H-M   'P 21/c'
_symmetry_Int_Tables_number      14
_space_group_name_Hall           '-P 2ybc'
loop_
_symmetry_equiv_pos_site_id
_symmetry_equiv_pos_as_xyz
1 x,y,z
2 -x,1/2+y,1/2-z
3 -x,-y,-z
4 x,1/2-y,1/2+z
_cell_length_a                   13.6631(15)
_cell_length_b                   9.9208(11)
_cell_length_c                   19.2503(15)
_cell_angle_alpha                90
_cell_angle_beta                 134.714(5)
_cell_angle_gamma                90
_cell_volume                     1854.28
loop_
_atom_site_label
_atom_site_type_symbol
_atom_site_fract_x
_atom_site_fract_y
_atom_site_fract_z
Co1 Co 0.38150(4) 0.41630(4) 0.35764(3)
O1 O 0.2397(2) 0.4751(2) 0.20238(15)
O2 O 0.2650(2) 0.2616(2) 0.24164(16)
O3 O 0.5474(3) 0.1056(3) 0.09288(19)
O4 O 0.4714(2) 0.2237(2) -0.03533(15)
N1 N 0.5378(2) 0.3889(3) 0.35821(18)
N2 N 1.2194(3) 0.4352(3) 0.35281(18)
C1 C 0.2166(3) 0.3523(4) 0.1795(2)
C2 C 0.1289(3) 0.3130(4) 0.0734(2)
H1 H 0.1252 0.2155 0.0684
H2 H 0.0357 0.3455 0.0340
C3 C 0.1838(3) 0.3695(3) 0.0332(2)
C4 C 0.1040(4) 0.4498(4) -0.0487(2)
H3 H 0.0148 0.4718 -0.0799
C5 C 0.1557(4) 0.4980(4) -0.0847(3)
H4 H 0.1021 0.5542 -0.1390
C6 C 0.2861(4) 0.4631(4) -0.0406(3)
H5 H 0.3194 0.4948 -0.0662
C7 C 0.3689(3) 0.3814(3) 0.0418(2)
C8 C 0.3166(3) 0.3379(3) 0.0785(2)
H6 H 0.3718 0.2861 0.1351
C9 C 0.5117(3) 0.3390(4) 0.0908(3)
H7 H 0.5678 0.3236 0.1597
H8 H 0.5537 0.4116 0.0854
C10 C 0.5107(3) 0.2117(4) 0.0461(2)
C11 C 0.6039(3) 0.2726(3) 0.3797(2)
H9 H 0.5840 0.1996 0.3984
C12 C 0.6999(3) 0.2552(3) 0.3758(2)
H10 H 0.7425 0.1720 0.3911
C13 C 0.7331(3) 0.3624(3) 0.3487(2)
C14 C 0.6609(3) 0.4813(3) 0.3233(2)
H11 H 0.6771 0.5554 0.3028
C15 C 0.5658(3) 0.4898(3) 0.3282(2)
H12 H 0.5180 0.5703 0.3097
C16 C 0.8384(3) 0.3479(4) 0.3469(2)
H13 H 0.8630 0.2610 0.3459
C17 C 0.9006(3) 0.4499(4) 0.3467(2)
H14 H 0.8727 0.5360 0.3456
C18 C 1.0087(3) 0.4411(3) 0.3479(2)
C19 C 1.0359(3) 0.3269(3) 0.3223(2)
H15 H 0.9835 0.2494 0.3023
C20 C 1.1401(3) 0.3285(3) 0.3264(2)
H16 H 1.1567 0.2499 0.3097
C21 C 1.1937(4) 0.5453(4) 0.3777(3)
H17 H 1.2480 0.6212 0.3974
C22 C 1.0916(4) 0.5528(4) 0.3759(3)
H18 H 1.0777 0.6326 0.3934
Co1_2 Co 1.38150(4) 0.41630(4) 0.35764(3)
Co1A Co 0.61850(4) -0.08370(4) 0.14236(3)
Co1C Co 0.38150(4) 0.08370(4) -0.14236(3)
O3A O 0.4526(3) 0.6056(3) 0.40712(19)
O4C O 0.4714(2) 0.2763(2) 0.46467(15)
N2_2 N 0.2194(3) 0.4352(3) 0.35281(18)
loop_
_geom_bond_atom_site_label_1
_geom_bond_atom_site_label_2
_geom_bond_site_symmetry_1
_geom_bond_site_symmetry_2
Co1 O1 1_555 1_555
O1 C1 1_555 1_555
O2 Co1 1_555 1_555
O3 C10 1_555 1_555
O4 C10 1_555 1_555
N1 Co1 1_555 1_555
N2 C20 1_555 1_555
C1 O2 1_555 1_555
C2 C1 1_555 1_555
H1 C2 1_555 1_555
H2 C2 1_555 1_555
C3 C2 1_555 1_555
C4 C3 1_555 1_555
H3 C4 1_555 1_555
C5 C4 1_555 1_555
H4 C5 1_555 1_555
C6 C5 1_555 1_555
H5 C6 1_555 1_555
C7 C6 1_555 1_555
C8 C3 1_555 1_555
H6 C8 1_555 1_555
C9 C7 1_555 1_555
H7 C9 1_555 1_555
H8 C9 1_555 1_555
C10 C9 1_555 1_555
C11 N1 1_555 1_555
H9 C11 1_555 1_555
C12 C11 1_555 1_555
H10 C12 1_555 1_555
C13 C12 1_555 1_555
C14 C13 1_555 1_555
H11 C14 1_555 1_555
C15 N1 1_555 1_555
H12 C15 1_555 1_555
C16 C13 1_555 1_555
H13 C16 1_555 1_555
C17 C16 1_555 1_555
H14 C17 1_555 1_555
C18 C17 1_555 1_555
C19 C18 1_555 1_555
H15 C19 1_555 1_555
C20 C19 1_555 1_555
H16 C20 1_555 1_555
C21 N2 1_555 1_555
H17 C21 1_555 1_555
C22 C18 1_555 1_555
H18 C22 1_555 1_555
Co1_2 N2 1_555 1_555
Co1A O3 1_555 1_555
Co1C O4 1_555 1_555
O3A Co1 1_555 1_555
O4C Co1 1_555 1_555
N2_2 Co1 1_555 1_555
C7 C8 1_555 1_555
C14 C15 1_555 1_555
C21 C22 1_555 1_555

#END
