
#######################################################################
#
#                 Cambridge Crystallographic Data Centre
#                                CCDC 
#
#######################################################################
#
# If this CIF has been generated from an entry in the Cambridge 
# Structural Database, then it will include bibliographic, chemical, 
# crystal, experimental, refinement or atomic coordinate data resulting 
# from the CCDC's data processing and validation procedures.
#
#######################################################################

data_UYODOC
_symmetry_cell_setting           triclinic
_symmetry_space_group_name_H-M   'P -1'
_symmetry_Int_Tables_number      2
_space_group_name_Hall           '-P 1'
loop_
_symmetry_equiv_pos_site_id
_symmetry_equiv_pos_as_xyz
1 x,y,z
2 -x,-y,-z
_cell_length_a                   9.5837(14)
_cell_length_b                   9.9336(15)
_cell_length_c                   19.298(3)
_cell_angle_alpha                77.006(2)
_cell_angle_beta                 88.333(2)
_cell_angle_gamma                62.852(2)
_cell_volume                     1587.19
loop_
_atom_site_label
_atom_site_type_symbol
_atom_site_fract_x
_atom_site_fract_y
_atom_site_fract_z
C1 C 0.5541(3) 0.7845(3) 0.30165(17)
C2 C 0.6360(4) 0.6451(4) 0.35248(19)
H1 H 0.7437 0.5842 0.3517
C3 C 0.5543(4) 0.6004(4) 0.4032(2)
H2 H 0.6067 0.5078 0.4377
C4 C 0.3920(4) 0.6923(4) 0.4042(2)
H3 H 0.3390 0.6581 0.4392
C5 C 0.3090(4) 0.8303(4) 0.35541(19)
H4 H 0.2019 0.8916 0.3576
C6 C 0.3912(3) 0.8759(3) 0.30203(16)
C7 C 0.4726(3) 0.9813(3) 0.21287(15)
C8 C 0.4721(3) 1.0944(3) 0.14796(15)
C9 C 0.9203(3) 1.0870(3) 0.21590(15)
C10 C 1.1638(3) 0.3946(3) 0.32375(17)
C11 C 0.8262(3) 1.0576(4) 0.31599(17)
C12 C 0.9028(3) 1.1479(3) 0.31653(16)
C13 C 0.9701(3) 1.0724(3) 0.14424(15)
C14 C 1.0356(3) 0.5282(3) 0.22309(15)
C15 C 1.0734(3) 0.5495(4) 0.32774(16)
C16 C 0.9682(3) 0.5703(3) 0.14948(16)
C17 C 0.7558(4) 1.0165(4) 0.37630(19)
H5 H 0.7067 0.9544 0.3767
C18 C 0.9113(4) 1.2006(4) 0.37586(18)
H6 H 0.9620 1.2610 0.3763
C19 C 1.2591(4) 0.2801(4) 0.38336(19)
H7 H 1.3216 0.1775 0.3807
C20 C 1.0701(4) 0.5937(4) 0.39243(18)
H8 H 1.0090 0.6960 0.3958
C21 C 1.1600(4) 0.4803(4) 0.4494(2)
H9 H 1.1580 0.5058 0.4931
C22 C 1.2562(4) 0.3258(4) 0.4453(2)
H10 H 1.3191 0.2532 0.4855
C23 C 0.7621(5) 1.0710(5) 0.4341(2)
H11 H 0.7128 1.0488 0.4741
C24 C 0.8404(5) 1.1590(4) 0.4350(2)
H12 H 0.8454 1.1909 0.4762
Mn1 Mn 0.70143(5) 1.13353(5) 0.02940(2)
Mn2 Mn 0.81189(5) 0.85835(5) 0.20236(2)
Mn3 Mn 0.14128(5) 1.22110(5) 0.19653(2)
N1 N 0.6038(3) 0.8560(3) 0.24294(14)
N2 N 0.3409(3) 1.0033(3) 0.24486(13)
N3 N 0.8397(3) 1.0182(3) 0.25073(13)
N4 N 0.9623(3) 1.1680(3) 0.25083(13)
N5 N 0.9919(3) 0.6351(3) 0.26215(12)
N6 N 1.1376(3) 0.3838(3) 0.25559(13)
O1 O 0.6027(2) 1.0556(2) 0.12069(11)
O2 O 0.3478(2) 1.2167(2) 0.12682(11)
O3 O 1.0559(2) 1.1313(2) 0.11785(10)
O4 O 1.0089(2) 0.4610(2) 0.11821(11)
O5 O 0.6415(2) 1.3474(2) 0.05804(12)
H13 H 0.5635 1.3948 0.0805
H14 H 0.6616 1.4116 0.0284
O6 O 0.8229(2) 1.2106(2) -0.05281(11)
H15 H 0.8878 1.1738 -0.0828
H16 H 0.8296 1.2892 -0.0462
O7 O 0.9222(2) 0.9978(2) 0.11325(10)
O8 O 0.8735(2) 0.7100(2) 0.12372(10)
O9 O 0.7780(2) 0.9196(2) -0.00192(10)
H17 H 0.8177 0.8438 0.0345
H18 H 0.8191 0.8864 -0.0382
O10 O 0.4877(3) 1.2206(3) -0.03950(14)
H19 H 0.4650 1.1746 -0.0674
H20 H 0.4092 1.3090 -0.0438
Mn3_2 Mn 1.14128(5) 1.22110(5) 0.19653(2)
Mn3_3 Mn 1.14128(5) 0.22110(5) 0.19653(2)
N4_2 N -0.0377(3) 1.1680(3) 0.25083(13)
N6_2 N 0.1376(3) 1.3838(3) 0.25559(13)
O3_2 O 0.0559(2) 1.1313(2) 0.11785(10)
O4_2 O 0.0089(2) 1.4610(2) 0.11821(11)
O11 O 0.2201(2) 0.4631(2) 0.98727(12)
H21 H 0.1405 0.4711 0.9648
H22 H 0.2264 0.4123 1.0299
O12 O 0.3771(3) 0.4927(3) 0.13415(13)
H23 H 0.3463 0.4271 0.1469
C25 C 0.4138(7) 0.5366(8) 0.1985(3)
H24 H 0.4378 0.6230 0.1827
H25 H 0.3213 0.5715 0.2250
C26 C 0.5412(9) 0.4130(10) 0.2441(4)
H26 H 0.5514 0.3156 0.2381
H27 H 0.5227 0.4191 0.2927
H28 H 0.6362 0.4198 0.2326
loop_
_geom_bond_atom_site_label_1
_geom_bond_atom_site_label_2
_geom_bond_site_symmetry_1
_geom_bond_site_symmetry_2
C1 C2 1_555 1_555
C2 H1 1_555 1_555
C3 C2 1_555 1_555
H2 C3 1_555 1_555
C4 C3 1_555 1_555
H3 C4 1_555 1_555
C5 C4 1_555 1_555
H4 C5 1_555 1_555
C6 C1 1_555 1_555
C7 C8 1_555 1_555
C8 O1 1_555 1_555
C9 C13 1_555 1_555
C10 C15 1_555 1_555
C11 C12 1_555 1_555
C12 C18 1_555 1_555
C13 O3 1_555 1_555
C14 C16 1_555 1_555
C15 C20 1_555 1_555
C16 O4 1_555 1_555
C17 C11 1_555 1_555
H5 C17 1_555 1_555
C18 H6 1_555 1_555
C19 C10 1_555 1_555
H7 C19 1_555 1_555
C20 H8 1_555 1_555
C21 C20 1_555 1_555
H9 C21 1_555 1_555
C22 C19 1_555 1_555
H10 C22 1_555 1_555
C23 C17 1_555 1_555
H11 C23 1_555 1_555
C24 C18 1_555 1_555
H12 C24 1_555 1_555
Mn1 O1 1_555 1_555
Mn2 N1 1_555 1_555
Mn3 N2 1_555 1_555
N1 C1 1_555 1_555
N2 C6 1_555 1_555
N3 C9 1_555 1_555
N4 C9 1_555 1_555
N5 C14 1_555 1_555
N6 C10 1_555 1_555
O1 Mn2 1_555 1_555
O2 C8 1_555 1_555
O3 Mn3_2 1_555 1_555
O4 Mn3_3 1_555 1_555
O5 Mn1 1_555 1_555
H13 O5 1_555 1_555
H14 O5 1_555 1_555
O6 Mn1 1_555 1_555
H15 O6 1_555 1_555
H16 O6 1_555 1_555
O7 C13 1_555 1_555
O8 C16 1_555 1_555
O9 Mn1 1_555 1_555
H17 O9 1_555 1_555
H18 O9 1_555 1_555
O10 Mn1 1_555 1_555
H19 O10 1_555 1_555
H20 O10 1_555 1_555
O11 H21 1_555 1_555
H22 O11 1_555 1_555
O12 H23 1_555 1_555
C25 O12 1_555 1_555
H24 C25 1_555 1_555
H25 C25 1_555 1_555
C26 C25 1_555 1_555
H26 C26 1_555 1_555
H27 C26 1_555 1_555
H28 C26 1_555 1_555
Mn3_2 N4 1_555 1_555
Mn3_3 N6 1_555 1_555
N4_2 Mn3 1_555 1_555
N6_2 Mn3 1_555 1_555
O3_2 Mn3 1_555 1_555
O4_2 Mn3 1_555 1_555
C5 C6 1_555 1_555
C7 N1 1_555 1_555
C7 N2 1_555 1_555
C11 N3 1_555 1_555
C12 N4 1_555 1_555
C14 N6 1_555 1_555
C15 N5 1_555 1_555
C21 C22 1_555 1_555
C23 C24 1_555 1_555
Mn1 O7 1_555 1_555
Mn2 N3 1_555 1_555
Mn2 N5 1_555 1_555
Mn2 O7 1_555 1_555
Mn2 O8 1_555 1_555
Mn3 O2 1_555 1_555

#END
