
#######################################################################
#
#                 Cambridge Crystallographic Data Centre
#                                CCDC 
#
#######################################################################
#
# If this CIF has been generated from an entry in the Cambridge 
# Structural Database, then it will include bibliographic, chemical, 
# crystal, experimental, refinement or atomic coordinate data resulting 
# from the CCDC's data processing and validation procedures.
#
#######################################################################

data_UYODUI
_symmetry_cell_setting           triclinic
_symmetry_space_group_name_H-M   'P -1'
_symmetry_Int_Tables_number      2
_space_group_name_Hall           '-P 1'
loop_
_symmetry_equiv_pos_site_id
_symmetry_equiv_pos_as_xyz
1 x,y,z
2 -x,-y,-z
_cell_length_a                   9.3611(17)
_cell_length_b                   9.9229(18)
_cell_length_c                   19.605(4)
_cell_angle_alpha                76.250(2)
_cell_angle_beta                 89.360(2)
_cell_angle_gamma                65.268(2)
_cell_volume                     1598.59
loop_
_atom_site_label
_atom_site_type_symbol
_atom_site_fract_x
_atom_site_fract_y
_atom_site_fract_z
Mn1 Mn 0.18887(7) 0.15607(7) 0.29978(4)
Mn2 Mn 0.85052(7) -0.22133(7) 0.30655(3)
Mn3 Mn 0.29919(7) -0.12274(8) 0.47010(3)
C1 C 0.5270(5) 0.0222(5) 0.2859(2)
C2 C 0.5272(5) -0.0806(5) 0.3534(2)
C3 C 0.4500(5) 0.2145(5) 0.1954(2)
C4 C 0.6084(5) 0.1129(5) 0.1911(2)
C5 C 0.3744(6) 0.3540(6) 0.1450(3)
H1 H 0.2709 0.4218 0.1477
C6 C 0.6148(7) 0.2863(7) 0.0866(3)
H2 H 0.6680 0.3135 0.0493
C7 C 0.6906(6) 0.1487(6) 0.1356(3)
H3 H 0.7937 0.0815 0.1319
C8 C 0.4587(6) 0.3873(7) 0.0914(3)
H4 H 0.4109 0.4797 0.0570
N1 N 0.6550(4) -0.0099(4) 0.25005(19)
N2 N 0.4008(4) 0.1540(4) 0.2567(2)
O1 O 0.6467(3) -0.2012(3) 0.37734(16)
O2 O 0.3979(3) -0.0324(4) 0.38285(16)
O3 O -0.0667(3) -0.1205(4) 0.38241(15)
C9 C 0.0927(5) -0.1394(5) 0.1893(2)
C10 C 0.0720(5) -0.0755(5) 0.2864(2)
C11 C 0.0238(5) -0.0615(5) 0.3572(2)
N3 N 0.0317(4) -0.1599(4) 0.25332(19)
O4 O 0.0731(3) 0.0148(3) 0.38668(15)
O5 O 0.1305(4) 0.2984(3) 0.37767(16)
N4 N 0.1525(4) -0.0017(4) 0.2515(2)
N5 N 0.0136(4) 0.3759(4) 0.23948(19)
O6 O 0.1618(4) -0.2036(4) 0.54190(16)
H5 H 0.1079 -0.1530 0.5700
H6 H 0.1698 -0.2946 0.5560
O7 O 0.2240(3) 0.0867(3) 0.50125(15)
H7 H 0.1755 0.1612 0.4655
H8 H 0.1847 0.1140 0.5377
O8 O 0.3699(4) -0.3351(4) 0.44185(18)
H9 H 0.3847 -0.3583 0.4025
H10 H 0.3800 -0.4152 0.4731
O9 O 0.5083(4) -0.2148(4) 0.54566(19)
H11 H 0.5447 -0.2270 0.5873
H12 H 0.5679 -0.1900 0.5173
C12 C 0.1684(5) -0.0421(5) 0.1879(2)
C13 C 0.0876(6) -0.1962(6) 0.1311(3)
H13 H 0.0390 -0.2612 0.1318
C14 C 0.2404(6) -0.0019(6) 0.1292(3)
H14 H 0.2927 0.0600 0.1286
C15 C 0.2318(7) -0.0567(7) 0.0722(3)
H15 H 0.2771 -0.0295 0.0318
C16 C 0.1562(7) -0.1532(7) 0.0733(3)
H16 H 0.1529 -0.1886 0.0337
O10 O -0.0067(4) 0.5423(3) 0.38354(16)
C17 C -0.1702(5) 0.6099(5) 0.1799(2)
C18 C 0.0347(5) 0.4369(5) 0.3516(2)
C19 C -0.0344(5) 0.4784(5) 0.2788(2)
C20 C -0.2698(6) 0.7192(6) 0.1215(3)
H17 H -0.3365 0.8176 0.1246
C21 C -0.0699(6) 0.4199(7) 0.1112(3)
H18 H -0.0046 0.3218 0.1072
C22 C -0.0721(5) 0.4600(6) 0.1747(2)
C23 C -0.2672(7) 0.6784(7) 0.0597(3)
H19 H -0.3328 0.7501 0.0203
C24 C -0.1679(7) 0.5312(8) 0.0546(3)
H20 H -0.1681 0.5075 0.0115
N6 N -0.1447(4) 0.6186(4) 0.24691(19)
Mn2_2 Mn -0.14948(7) -0.22133(7) 0.30655(3)
Mn2_3 Mn -0.14948(7) 0.77867(7) 0.30655(3)
O3_2 O 0.9333(3) -0.1205(4) 0.38241(15)
N3_2 N 1.0317(4) -0.1599(4) 0.25332(19)
O10_2 O 0.9933(4) -0.4577(3) 0.38354(16)
N6_2 N 0.8553(4) -0.3814(4) 0.24691(19)
O11 O 0.3787(4) 0.5232(4) 0.62742(18)
C25 C 0.4160(6) 0.5245(7) 0.6858(3)
C26 C 0.3312(7) 0.6587(7) 0.7152(3)
H21 H 0.3826 0.7260 0.7053
H22 H 0.3321 0.6239 0.7654
H23 H 0.2239 0.7128 0.6940
C27 C 0.5496(10) 0.3911(11) 0.7316(4)
H24 H 0.5748 0.3024 0.7139
H25 H 0.5204 0.3714 0.7788
H26 H 0.6402 0.4131 0.7319
O12 O 0.7564(4) 0.5427(4) 0.51311(18)
H27 H 0.7810 0.5809 0.4737
H28 H 0.8284 0.5238 0.5447
loop_
_geom_bond_atom_site_label_1
_geom_bond_atom_site_label_2
_geom_bond_site_symmetry_1
_geom_bond_site_symmetry_2
Mn1 N2 1_555 1_555
Mn2 N1 1_555 1_555
Mn3 O2 1_555 1_555
C1 C2 1_555 1_555
C2 O1 1_555 1_555
C3 C4 1_555 1_555
C4 C7 1_555 1_555
C5 C3 1_555 1_555
H1 C5 1_555 1_555
C6 H2 1_555 1_555
C7 C6 1_555 1_555
H3 C7 1_555 1_555
C8 C5 1_555 1_555
H4 C8 1_555 1_555
N1 C1 1_555 1_555
N2 C1 1_555 1_555
O1 Mn2 1_555 1_555
O2 Mn1 1_555 1_555
O3 C11 1_555 1_555
C9 N3 1_555 1_555
C10 C11 1_555 1_555
C11 O4 1_555 1_555
N3 C10 1_555 1_555
O4 Mn1 1_555 1_555
O5 Mn1 1_555 1_555
N4 Mn1 1_555 1_555
N5 Mn1 1_555 1_555
O6 Mn3 1_555 1_555
H5 O6 1_555 1_555
H6 O6 1_555 1_555
O7 Mn3 1_555 1_555
H7 O7 1_555 1_555
H8 O7 1_555 1_555
O8 Mn3 1_555 1_555
H9 O8 1_555 1_555
H10 O8 1_555 1_555
O9 Mn3 1_555 1_555
H11 O9 1_555 1_555
H12 O9 1_555 1_555
C12 C9 1_555 1_555
C13 C9 1_555 1_555
H13 C13 1_555 1_555
C14 C12 1_555 1_555
H14 C14 1_555 1_555
C15 C14 1_555 1_555
H15 C15 1_555 1_555
C16 C13 1_555 1_555
H16 C16 1_555 1_555
O10 C18 1_555 1_555
C17 C20 1_555 1_555
C18 O5 1_555 1_555
C19 N5 1_555 1_555
C20 H17 1_555 1_555
C21 H18 1_555 1_555
C22 N5 1_555 1_555
C23 C20 1_555 1_555
H19 C23 1_555 1_555
C24 C21 1_555 1_555
H20 C24 1_555 1_555
N6 C17 1_555 1_555
O11 C25 1_555 1_555
C25 C26 1_555 1_555
C26 H21 1_555 1_555
H22 C26 1_555 1_555
H23 C26 1_555 1_555
C27 C25 1_555 1_555
H24 C27 1_555 1_555
H25 C27 1_555 1_555
H26 C27 1_555 1_555
O12 H27 1_555 1_555
H28 O12 1_555 1_555
Mn2_2 O3 1_555 1_555
Mn2_3 O10 1_555 1_555
O3_2 Mn2 1_555 1_555
N3_2 Mn2 1_555 1_555
O10_2 Mn2 1_555 1_555
N6_2 Mn2 1_555 1_555
Mn3 O4 1_555 1_555
C2 O2 1_555 1_555
C3 N2 1_555 1_555
C4 N1 1_555 1_555
C6 C8 1_555 1_555
C10 N4 1_555 1_555
N3 Mn2_2 1_555 1_555
N4 C12 1_555 1_555
C15 C16 1_555 1_555
C17 C22 1_555 1_555
C18 C19 1_555 1_555
C19 N6 1_555 1_555
C21 C22 1_555 1_555
C23 C24 1_555 1_555
N6 Mn2_3 1_555 1_555

#END
