
#######################################################################
#
#                 Cambridge Crystallographic Data Centre
#                                CCDC 
#
#######################################################################
#
# If this CIF has been generated from an entry in the Cambridge 
# Structural Database, then it will include bibliographic, chemical, 
# crystal, experimental, refinement or atomic coordinate data resulting 
# from the CCDC's data processing and validation procedures.
#
#######################################################################

data_UYOGOF
_symmetry_cell_setting           monoclinic
_symmetry_space_group_name_H-M   'P 21/c'
_symmetry_Int_Tables_number      14
_space_group_name_Hall           '-P 2ybc'
loop_
_symmetry_equiv_pos_site_id
_symmetry_equiv_pos_as_xyz
1 x,y,z
2 -x,1/2+y,1/2-z
3 -x,-y,-z
4 x,1/2-y,1/2+z
_cell_length_a                   9.0579(18)
_cell_length_b                   8.3456(17)
_cell_length_c                   12.737(3)
_cell_angle_alpha                90
_cell_angle_beta                 103.33(3)
_cell_angle_gamma                90
_cell_volume                     936.895
loop_
_atom_site_label
_atom_site_type_symbol
_atom_site_fract_x
_atom_site_fract_y
_atom_site_fract_z
N1 N 0.8518(2) -0.1380(3) 0.53919(16)
H1 H 1.054(3) -0.147(3) 0.6272(19)
N2 N 0.9766(2) -0.0829(2) 0.62469(16)
Cd1 Cd 0.929850(15) -0.175680(19) 0.381410(11)
C1 C 1.2109(2) -0.3332(3) 0.44520(18)
C2 C 1.3591(2) -0.4233(2) 0.47316(17)
C3 C 1.2940(2) -0.5703(3) 0.29401(17)
C4 C 1.4023(2) -0.5267(3) 0.39915(16)
C5 C 1.4568(2) -0.3972(3) 0.57336(17)
H2 H 1.4279 -0.3283 0.6224
O1 O 1.13084(17) -0.3273(2) 0.51398(14)
O2 O 1.17384(16) -0.2631(2) 0.35565(14)
O3 O 1.16605(16) -0.6218(2) 0.30105(12)
O4 O 1.33376(17) -0.5604(3) 0.20686(13)
O5 O 0.8402(2) -0.4260(2) 0.33793(17)
H3 H 0.781(3) -0.066(4) 0.533(2)
H4 H 0.815(3) -0.223(4) 0.565(2)
H5 H 0.956(3) -0.089(3) 0.683(2)
H8 H 0.852(3) -0.502(4) 0.383(2)
H9 H 0.768(4) -0.446(4) 0.294(3)
N1B N 1.1482(2) 0.1380(3) 0.46081(16)
H1B H 0.946(3) 0.147(3) 0.3728(19)
N2B N 1.0234(2) 0.0829(2) 0.37531(16)
Cd1B Cd 1.070150(15) 0.175680(19) 0.618590(11)
Cd1A Cd 1.070150(15) -0.675680(19) 0.118590(11)
Cd1B_2 Cd 2.070150(15) -0.824320(19) 0.618590(11)
Cd1C Cd 1.929850(15) -0.324320(19) 0.881410(11)
C1B C 1.7891(2) -0.6668(3) 0.55480(18)
C2B C 1.6409(2) -0.5767(2) 0.52684(17)
C3B C 1.7060(2) -0.4297(3) 0.70599(17)
C4B C 1.5977(2) -0.4733(3) 0.60085(16)
C5B C 1.5432(2) -0.6028(3) 0.42664(17)
H2B H 1.5721 -0.6717 0.3776
O1B O 1.86916(17) -0.6727(2) 0.48602(14)
O1B_2 O 0.86916(17) 0.3273(2) 0.48602(14)
O2B O 1.82616(16) -0.7369(2) 0.64435(14)
O2B_2 O 0.82616(16) 0.2631(2) 0.64435(14)
O3B O 1.83395(16) -0.3782(2) 0.69895(12)
O3A O 0.83395(16) -0.1218(2) 0.19895(12)
O3C O 1.16605(16) 0.1218(2) 0.80105(12)
O4B O 1.66624(17) -0.4396(3) 0.79314(13)
O4A O 0.66624(17) -0.0604(3) 0.29314(13)
O4C O 1.33376(17) 0.0604(3) 0.70686(13)
O5B O 1.1598(2) 0.4260(2) 0.66207(17)
H3B H 1.219(3) 0.066(4) 0.467(2)
H4B H 1.185(3) 0.223(4) 0.435(2)
H5B H 1.044(3) 0.089(3) 0.317(2)
H8B H 1.148(3) 0.502(4) 0.617(2)
H9B H 1.232(4) 0.446(4) 0.706(3)
O6 O 0.6187(2) 0.0151(3) 0.66783(17)
H6 H 0.652(5) 0.108(5) 0.663(3)
H7 H 0.541(4) 0.031(4) 0.676(3)
loop_
_geom_bond_atom_site_label_1
_geom_bond_atom_site_label_2
_geom_bond_site_symmetry_1
_geom_bond_site_symmetry_2
N1 N2 1_555 1_555
H1 N2 1_555 1_555
N2 H5 1_555 1_555
Cd1 N1 1_555 1_555
C1 C2 1_555 1_555
C2 C4 1_555 1_555
C3 C4 1_555 1_555
C4 C5B 1_555 1_555
C5 C2 1_555 1_555
H2 C5 1_555 1_555
O1 Cd1 1_555 1_555
O2 Cd1 1_555 1_555
O3 C3 1_555 1_555
O4 C3 1_555 1_555
O5 Cd1 1_555 1_555
O6 H6 1_555 1_555
H3 N1 1_555 1_555
H4 N1 1_555 1_555
H7 O6 1_555 1_555
H8 O5 1_555 1_555
H9 O5 1_555 1_555
N1B N2B 1_555 1_555
H1B N2B 1_555 1_555
N2B Cd1 1_555 1_555
Cd1B N2 1_555 1_555
Cd1A O3 1_555 1_555
Cd1B_2 O1B 1_555 1_555
Cd1C O3B 1_555 1_555
C1B C2B 1_555 1_555
C2B C4B 1_555 1_555
C3B C4B 1_555 1_555
C4B C5 1_555 1_555
C5B C2B 1_555 1_555
H2B C5B 1_555 1_555
O1B C1B 1_555 1_555
O1B_2 Cd1B 1_555 1_555
O2B Cd1B_2 1_555 1_555
O2B_2 Cd1B 1_555 1_555
O3B C3B 1_555 1_555
O3A Cd1 1_555 1_555
O3C Cd1B 1_555 1_555
O4B Cd1C 1_555 1_555
O4A Cd1 1_555 1_555
O4C Cd1B 1_555 1_555
O5B Cd1B 1_555 1_555
H3B N1B 1_555 1_555
H4B N1B 1_555 1_555
H5B N2B 1_555 1_555
H8B O5B 1_555 1_555
H9B O5B 1_555 1_555
C1 O1 1_555 1_555
C1 O2 1_555 1_555
O4 Cd1A 1_555 1_555
N1B Cd1B 1_555 1_555
C1B O2B 1_555 1_555
C3B O4B 1_555 1_555

#END
