
#######################################################################
#
#                 Cambridge Crystallographic Data Centre
#                                CCDC 
#
#######################################################################
#
# If this CIF has been generated from an entry in the Cambridge 
# Structural Database, then it will include bibliographic, chemical, 
# crystal, experimental, refinement or atomic coordinate data resulting 
# from the CCDC's data processing and validation procedures.
#
#######################################################################

data_UYOGIZ
_symmetry_cell_setting           orthorhombic
_symmetry_space_group_name_H-M   'P b c n'
_symmetry_Int_Tables_number      60
_space_group_name_Hall           '-P 2n 2ab'
loop_
_symmetry_equiv_pos_site_id
_symmetry_equiv_pos_as_xyz
1 x,y,z
2 1/2-x,1/2-y,1/2+z
3 -x,y,1/2-z
4 1/2+x,1/2-y,-z
5 -x,-y,-z
6 1/2+x,1/2+y,1/2-z
7 x,-y,1/2+z
8 1/2-x,1/2+y,z
_cell_length_a                   14.900(3)
_cell_length_b                   19.319(4)
_cell_length_c                   7.1138(14)
_cell_angle_alpha                90
_cell_angle_beta                 90
_cell_angle_gamma                90
_cell_volume                     2047.73
loop_
_atom_site_label
_atom_site_type_symbol
_atom_site_fract_x
_atom_site_fract_y
_atom_site_fract_z
Sr1 Sr 0.5000 0.06290(2) 0.2500
N1 N 0.1156(2) 0.08300(17) 0.5646(5)
C1 C 0.3450(3) 0.06028(19) 0.5316(6)
N2 N 0.1949(2) 0.10240(16) 0.6342(5)
N3 N -0.0462(2) 0.21673(16) 0.4503(5)
O1 O 0.40854(14) 0.01742(12) 0.5585(4)
O2 O 0.44430(14) 0.15874(12) 0.0270(4)
H1 H 0.4799 0.1912 -0.0039
H2 H 0.4085 0.1900 0.0651
C2 C 0.0737(3) 0.14415(19) 0.5525(5)
N4 N 0.2030(2) 0.16930(17) 0.6648(6)
N5 N 0.1259(2) 0.19738(17) 0.6105(5)
N6 N -0.1586(2) 0.1035(2) 0.3977(5)
C3 C -0.0189(3) 0.1523(2) 0.4852(6)
C4 C 0.2688(3) 0.0551(2) 0.6734(7)
H3 H 0.2461 0.0081 0.6740
H4 H 0.2922 0.0649 0.7978
C5 C -0.1302(3) 0.2236(2) 0.3901(7)
H5 H -0.1521 0.2678 0.3663
C6 C -0.1858(3) 0.1677(2) 0.3619(7)
H6 H -0.2436 0.1750 0.3169
C7 C -0.0752(3) 0.0963(2) 0.4597(6)
H7 H -0.0539 0.0522 0.4868
O3 O 0.34314(19) 0.10302(16) 0.4028(4)
Sr1D Sr 0.5000 -0.06290(2) -0.2500
Sr1D_2 Sr 0.5000 -0.06290(2) 0.7500
N1B N 0.8844(2) 0.08300(17) -0.0646(5)
C1B C 0.6550(3) 0.06028(19) -0.0316(6)
N2B N 0.8051(2) 0.10240(16) -0.1342(5)
N3B N 1.0462(2) 0.21673(16) 0.0497(5)
O1B O 0.59146(14) 0.01742(12) -0.0585(4)
O1D O 0.59146(14) -0.01742(12) 0.4415(4)
O1F O 0.40854(14) -0.01742(12) 0.0585(4)
O2B O 0.55570(14) 0.15874(12) 0.4730(4)
H1B H 0.5201 0.1912 0.5039
H2B H 0.5915 0.1900 0.4349
C2B C 0.9263(3) 0.14415(19) -0.0525(5)
N4B N 0.7970(2) 0.16930(17) -0.1648(6)
N5B N 0.8741(2) 0.19738(17) -0.1105(5)
N6B N 1.1586(2) 0.1035(2) 0.1023(5)
C3B C 1.0189(3) 0.1523(2) 0.0148(6)
C4B C 0.7312(3) 0.0551(2) -0.1734(7)
H3B H 0.7539 0.0081 -0.1740
H4B H 0.7078 0.0649 -0.2978
C5B C 1.1302(3) 0.2236(2) 0.1099(7)
H5B H 1.1521 0.2678 0.1337
C6B C 1.1858(3) 0.1677(2) 0.1381(7)
H6B H 1.2436 0.1750 0.1831
C7B C 1.0752(3) 0.0963(2) 0.0403(6)
H7B H 1.0539 0.0522 0.0132
O3B O 0.65686(19) 0.10302(16) 0.0972(4)
loop_
_geom_bond_atom_site_label_1
_geom_bond_atom_site_label_2
_geom_bond_site_symmetry_1
_geom_bond_site_symmetry_2
Sr1 O1 1_555 1_555
N1 N2 1_555 1_555
C1 O1 1_555 1_555
N2 N4 1_555 1_555
N3 C3 1_555 1_555
O1 Sr1D_2 1_555 1_555
O2 Sr1 1_555 1_555
H1 O2 1_555 1_555
H2 O2 1_555 1_555
C2 N1 1_555 1_555
N4 N5 1_555 1_555
N5 C2 1_555 1_555
N6 C6 1_555 1_555
C3 C2 1_555 1_555
C4 C1 1_555 1_555
H3 C4 1_555 1_555
H4 C4 1_555 1_555
C5 N3 1_555 1_555
H5 C5 1_555 1_555
C6 C5 1_555 1_555
H6 C6 1_555 1_555
C7 N6 1_555 1_555
H7 C7 1_555 1_555
O3 Sr1 1_555 1_555
Sr1D O1B 1_555 1_555
Sr1D_2 O1D 1_555 1_555
N1B N2B 1_555 1_555
C1B O1B 1_555 1_555
N2B N4B 1_555 1_555
N3B C3B 1_555 1_555
O1B Sr1 1_555 1_555
O1D Sr1 1_555 1_555
O1F Sr1 1_555 1_555
O2B Sr1 1_555 1_555
H1B O2B 1_555 1_555
H2B O2B 1_555 1_555
C2B N1B 1_555 1_555
N4B N5B 1_555 1_555
N5B C2B 1_555 1_555
N6B C6B 1_555 1_555
C3B C2B 1_555 1_555
C4B C1B 1_555 1_555
H3B C4B 1_555 1_555
H4B C4B 1_555 1_555
C5B N3B 1_555 1_555
H5B C5B 1_555 1_555
C6B C5B 1_555 1_555
H6B C6B 1_555 1_555
C7B N6B 1_555 1_555
H7B C7B 1_555 1_555
O3B Sr1 1_555 1_555
C1 O3 1_555 1_555
N2 C4 1_555 1_555
C3 C7 1_555 1_555
Sr1D O1F 1_555 1_555
C1B O3B 1_555 1_555
N2B C4B 1_555 1_555
C3B C7B 1_555 1_555

#END
