
#######################################################################
#
#                 Cambridge Crystallographic Data Centre
#                                CCDC 
#
#######################################################################
#
# If this CIF has been generated from an entry in the Cambridge 
# Structural Database, then it will include bibliographic, chemical, 
# crystal, experimental, refinement or atomic coordinate data resulting 
# from the CCDC's data processing and validation procedures.
#
#######################################################################

data_UYOZAK
_symmetry_cell_setting           triclinic
_symmetry_space_group_name_H-M   'P -1'
_symmetry_Int_Tables_number      2
_space_group_name_Hall           '-P 1'
loop_
_symmetry_equiv_pos_site_id
_symmetry_equiv_pos_as_xyz
1 x,y,z
2 -x,-y,-z
_cell_length_a                   10.2239(5)
_cell_length_b                   11.4069(5)
_cell_length_c                   11.4363(5)
_cell_angle_alpha                93.2560(10)
_cell_angle_beta                 95.5090(10)
_cell_angle_gamma                98.4690(10)
_cell_volume                     1309.69
loop_
_atom_site_label
_atom_site_type_symbol
_atom_site_fract_x
_atom_site_fract_y
_atom_site_fract_z
Ce1 Ce 0.334399(19) 0.043860(17) 0.385966(17)
O1 O 0.0849(3) 0.0116(3) 0.3733(3)
O2 O 0.1636(3) -0.0892(3) 0.2331(3)
O3 O -0.5231(3) -0.0301(4) 0.2464(3)
O4 O 0.2879(4) 0.1575(3) 0.2099(3)
H1 H 0.2716 0.2252 0.2341
H2 H 0.2552 0.1441 0.1384
O5 O -0.3928(4) -0.0487(3) 0.4055(3)
O6 O 0.2778(3) 0.2445(3) 0.4603(3)
O7 O 0.1640(4) 0.3170(3) 0.3122(3)
O8 O 0.4619(3) 0.8029(3) 0.5894(3)
O9 O 0.3085(4) 0.8298(3) 0.4439(3)
N1 N -0.2247(4) -0.1246(4) 0.0393(3)
N2 N 0.1273(4) 0.5337(3) 0.6411(3)
C1 C 0.0680(4) -0.0496(4) 0.2766(4)
C2 C -0.0695(4) -0.0735(4) 0.2119(4)
C3 C -0.0996(4) -0.1116(4) 0.0926(4)
C4 C -0.0004(5) -0.1468(5) 0.0131(4)
H6 H 0.0694 -0.1768 0.0589
H7 H 0.0367 -0.0787 -0.0251
H8 H -0.0441 -0.2074 -0.0453
C5 C -0.3271(5) -0.1062(4) 0.1001(4)
C6 C -0.4610(6) -0.1395(7) 0.0345(5)
H9 H -0.4569 -0.1222 -0.0463
H10 H -0.5222 -0.0949 0.0687
H11 H -0.4905 -0.2229 0.0388
C7 C -0.3055(4) -0.0706(4) 0.2214(4)
C8 C -0.1736(4) -0.0532(4) 0.2751(4)
H12 H -0.1562 -0.0275 0.3545
C9 C 0.2222(4) 0.3244(4) 0.4144(4)
C10 C 0.2222(4) 0.4386(4) 0.4881(4)
C11 C 0.1364(4) 0.4339(4) 0.5759(4)
C12 C 0.0509(5) 0.3218(4) 0.6035(6)
H13 H 0.1038 0.2757 0.6508
H14 H 0.0147 0.2762 0.5314
H15 H -0.0204 0.3419 0.6458
C13 C 0.1954(5) 0.6416(4) 0.6256(4)
C14 C 0.1717(6) 0.7443(5) 0.7005(6)
H16 H 0.1037 0.7819 0.6608
H17 H 0.2524 0.8002 0.7159
H18 H 0.1437 0.7179 0.7736
C15 C 0.2823(4) 0.6495(4) 0.5381(4)
C16 C 0.3589(4) 0.7710(4) 0.5226(4)
C17 C 0.3008(4) 0.5469(4) 0.4697(4)
C18 C 0.3979(5) 0.5621(4) 0.3844(4)
H19 H 0.4293 0.6401 0.3697
C19 C 0.4469(5) 0.4780(5) 0.3250(5)
H20 H 0.4180 0.3997 0.3402
C20 C 0.5423(5) 0.4975(5) 0.2378(5)
C21 C 0.6211(6) 0.6035(5) 0.2271(7)
H21 H 0.6122 0.6703 0.2744
C22 C 0.7134(7) 0.6117(7) 0.1466(6)
H22 H 0.7669 0.6843 0.1417
C23 C 0.7289(8) 0.5190(8) 0.0752(7)
H23 H 0.7864 0.5283 0.0170
C24 C 0.6565(8) 0.4075(8) 0.0899(7)
H24 H 0.6713 0.3402 0.0463
C25 C 0.5634(7) 0.3988(6) 0.1696(7)
H25 H 0.5136 0.3253 0.1779
C26 C -0.4152(4) -0.0494(4) 0.2942(4)
Ce1A Ce -0.334399(19) -0.043860(17) 0.614034(17)
Ce1_2 Ce -0.665601(19) -0.956140(17) 0.385966(17)
Ce1_3 Ce -0.665601(19) 0.043860(17) 0.385966(17)
Ce1_4 Ce 0.334399(19) 1.043860(17) 0.385966(17)
Ce1A_2 Ce -0.334399(19) -1.043860(17) 0.614034(17)
Ce1A_3 Ce 0.665601(19) -0.043860(17) 0.614034(17)
Ce1A_4 Ce 0.665601(19) 0.956140(17) 0.614034(17)
O1A O -0.0849(3) -0.0116(3) 0.6267(3)
O2A O -0.1636(3) 0.0892(3) 0.7669(3)
O3A O 0.5231(3) 0.0301(4) 0.7536(3)
O3_2 O 0.4769(3) -0.0301(4) 0.2464(3)
O3A_2 O -0.4769(3) 0.0301(4) 0.7536(3)
O4A O -0.2879(4) -0.1575(3) 0.7901(3)
H1A H -0.2716 -0.2252 0.7659
H2A H -0.2552 -0.1441 0.8616
O5A O 0.3928(4) 0.0487(3) 0.5945(3)
O6A O -0.2778(3) -0.2445(3) 0.5397(3)
O7A O -0.1640(4) -0.3170(3) 0.6878(3)
O8A O -0.4619(3) -0.8029(3) 0.4106(3)
O8_2 O -0.5381(3) -0.1971(3) 0.5894(3)
O8A_2 O 0.5381(3) 0.1971(3) 0.4106(3)
O9A O -0.3085(4) -0.8298(3) 0.5561(3)
O9_2 O 0.3085(4) -0.1702(3) 0.4439(3)
O9A_2 O -0.3085(4) 0.1702(3) 0.5561(3)
N1A N 0.2247(4) 0.1246(4) 0.9607(3)
N2A N -0.1273(4) -0.5337(3) 0.3589(3)
C1A C -0.0680(4) 0.0496(4) 0.7234(4)
C2A C 0.0695(4) 0.0735(4) 0.7881(4)
C3A C 0.0996(4) 0.1116(4) 0.9074(4)
C4A C 0.0004(5) 0.1468(5) 0.9869(4)
H6A H -0.0694 0.1768 0.9411
H7A H -0.0367 0.0787 1.0251
H8A H 0.0441 0.2074 1.0453
C5A C 0.3271(5) 0.1062(4) 0.8999(4)
C6A C 0.4610(6) 0.1395(7) 0.9655(5)
H9A H 0.4569 0.1222 1.0463
H10A H 0.5222 0.0949 0.9313
H11A H 0.4905 0.2229 0.9612
C7A C 0.3055(4) 0.0706(4) 0.7786(4)
C8A C 0.1736(4) 0.0532(4) 0.7249(4)
H12A H 0.1562 0.0275 0.6455
C9A C -0.2222(4) -0.3244(4) 0.5856(4)
C10A C -0.2222(4) -0.4386(4) 0.5119(4)
C11A C -0.1364(4) -0.4339(4) 0.4241(4)
C12A C -0.0509(5) -0.3218(4) 0.3965(6)
H13A H -0.1038 -0.2757 0.3492
H14A H -0.0147 -0.2762 0.4686
H15A H 0.0204 -0.3419 0.3542
C13A C -0.1954(5) -0.6416(4) 0.3744(4)
C14A C -0.1717(6) -0.7443(5) 0.2995(6)
H16A H -0.1037 -0.7819 0.3392
H17A H -0.2524 -0.8002 0.2841
H18A H -0.1437 -0.7179 0.2264
C15A C -0.2823(4) -0.6495(4) 0.4619(4)
C16A C -0.3589(4) -0.7710(4) 0.4774(4)
C17A C -0.3008(4) -0.5469(4) 0.5303(4)
C18A C -0.3979(5) -0.5621(4) 0.6156(4)
H19A H -0.4293 -0.6401 0.6303
C19A C -0.4469(5) -0.4780(5) 0.6750(5)
H20A H -0.4180 -0.3997 0.6598
C20A C -0.5423(5) -0.4975(5) 0.7622(5)
C21A C -0.6211(6) -0.6035(5) 0.7729(7)
H21A H -0.6122 -0.6703 0.7256
C22A C -0.7134(7) -0.6117(7) 0.8534(6)
H22A H -0.7669 -0.6843 0.8583
C23A C -0.7289(8) -0.5190(8) 0.9248(7)
H23A H -0.7864 -0.5283 0.9830
C24A C -0.6565(8) -0.4075(8) 0.9101(7)
H24A H -0.6713 -0.3402 0.9537
C25A C -0.5634(7) -0.3988(6) 0.8304(7)
H25A H -0.5136 -0.3253 0.8221
C26A C 0.4152(4) 0.0494(4) 0.7058(4)
O10 O 0.0493(4) 0.4805(4) 0.1937(4)
H3 H -0.0299 0.4694 0.2122
H26 H 0.098(6) 0.435(5) 0.228(6)
O11 O 0.2236(6) 0.6890(5) 0.1748(5)
H4 H 0.1869 0.7411 0.2099
H5 H 0.1976 0.6215 0.1996
loop_
_geom_bond_atom_site_label_1
_geom_bond_atom_site_label_2
_geom_bond_site_symmetry_1
_geom_bond_site_symmetry_2
Ce1 O1 1_555 1_555
O1 C1 1_555 1_555
O2 Ce1 1_555 1_555
O3 C26 1_555 1_555
O4 Ce1 1_555 1_555
H1 O4 1_555 1_555
H2 O4 1_555 1_555
O5 C26 1_555 1_555
O6 Ce1 1_555 1_555
O7 C9 1_555 1_555
O8 C16 1_555 1_555
O9 C16 1_555 1_555
O10 H3 1_555 1_555
O11 H4 1_555 1_555
H5 O11 1_555 1_555
N1 C3 1_555 1_555
N2 C11 1_555 1_555
C1 O2 1_555 1_555
C2 C1 1_555 1_555
C3 C2 1_555 1_555
C4 C3 1_555 1_555
H6 C4 1_555 1_555
H7 C4 1_555 1_555
H8 C4 1_555 1_555
C5 N1 1_555 1_555
C6 C5 1_555 1_555
H9 C6 1_555 1_555
H10 C6 1_555 1_555
H11 C6 1_555 1_555
C7 C5 1_555 1_555
C8 C2 1_555 1_555
H12 C8 1_555 1_555
C9 O6 1_555 1_555
C10 C9 1_555 1_555
C11 C10 1_555 1_555
C12 C11 1_555 1_555
H13 C12 1_555 1_555
H14 C12 1_555 1_555
H15 C12 1_555 1_555
C13 N2 1_555 1_555
C14 C13 1_555 1_555
H16 C14 1_555 1_555
H17 C14 1_555 1_555
H18 C14 1_555 1_555
C15 C13 1_555 1_555
C16 C15 1_555 1_555
C17 C10 1_555 1_555
C18 C17 1_555 1_555
H19 C18 1_555 1_555
C19 C18 1_555 1_555
H20 C19 1_555 1_555
C20 C19 1_555 1_555
C21 C20 1_555 1_555
H21 C21 1_555 1_555
C22 C21 1_555 1_555
H22 C22 1_555 1_555
C23 C22 1_555 1_555
H23 C23 1_555 1_555
C24 C23 1_555 1_555
H24 C24 1_555 1_555
C25 C20 1_555 1_555
H25 C25 1_555 1_555
C26 C7 1_555 1_555
H26 O10 1_555 1_555
Ce1A O5 1_555 1_555
Ce1_2 O8A 1_555 1_555
Ce1_3 O3 1_555 1_555
Ce1_4 O9 1_555 1_555
Ce1A_2 O9A 1_555 1_555
Ce1A_3 O3A 1_555 1_555
Ce1A_4 O8 1_555 1_555
O1A Ce1A 1_555 1_555
O2A Ce1A 1_555 1_555
O3A C26A 1_555 1_555
O3_2 Ce1 1_555 1_555
O3A_2 Ce1A 1_555 1_555
O4A Ce1A 1_555 1_555
H1A O4A 1_555 1_555
H2A O4A 1_555 1_555
O5A Ce1 1_555 1_555
O6A Ce1A 1_555 1_555
O7A C9A 1_555 1_555
O8A C16A 1_555 1_555
O8_2 Ce1A 1_555 1_555
O8A_2 Ce1 1_555 1_555
O9A C16A 1_555 1_555
O9_2 Ce1 1_555 1_555
O9A_2 Ce1A 1_555 1_555
N1A C3A 1_555 1_555
N2A C11A 1_555 1_555
C1A O1A 1_555 1_555
C2A C1A 1_555 1_555
C3A C2A 1_555 1_555
C4A C3A 1_555 1_555
H6A C4A 1_555 1_555
H7A C4A 1_555 1_555
H8A C4A 1_555 1_555
C5A N1A 1_555 1_555
C6A C5A 1_555 1_555
H9A C6A 1_555 1_555
H10A C6A 1_555 1_555
H11A C6A 1_555 1_555
C7A C5A 1_555 1_555
C8A C2A 1_555 1_555
H12A C8A 1_555 1_555
C9A O6A 1_555 1_555
C10A C9A 1_555 1_555
C11A C10A 1_555 1_555
C12A C11A 1_555 1_555
H13A C12A 1_555 1_555
H14A C12A 1_555 1_555
H15A C12A 1_555 1_555
C13A N2A 1_555 1_555
C14A C13A 1_555 1_555
H16A C14A 1_555 1_555
H17A C14A 1_555 1_555
H18A C14A 1_555 1_555
C15A C13A 1_555 1_555
C16A C15A 1_555 1_555
C17A C10A 1_555 1_555
C18A C17A 1_555 1_555
H19A C18A 1_555 1_555
C19A C18A 1_555 1_555
H20A C19A 1_555 1_555
C20A C19A 1_555 1_555
C21A C20A 1_555 1_555
H21A C21A 1_555 1_555
C22A C21A 1_555 1_555
H22A C22A 1_555 1_555
C23A C22A 1_555 1_555
H23A C23A 1_555 1_555
C24A C23A 1_555 1_555
H24A C24A 1_555 1_555
C25A C20A 1_555 1_555
H25A C25A 1_555 1_555
C26A O5A 1_555 1_555
C7 C8 1_555 1_555
C15 C17 1_555 1_555
C24 C25 1_555 1_555
O2A C1A 1_555 1_555
C7A C8A 1_555 1_555
C7A C26A 1_555 1_555
C15A C17A 1_555 1_555
C24A C25A 1_555 1_555

#END
