
#######################################################################
#
#                 Cambridge Crystallographic Data Centre
#                                CCDC 
#
#######################################################################
#
# If this CIF has been generated from an entry in the Cambridge 
# Structural Database, then it will include bibliographic, chemical, 
# crystal, experimental, refinement or atomic coordinate data resulting 
# from the CCDC's data processing and validation procedures.
#
#######################################################################

data_UYUKOP
_symmetry_cell_setting           triclinic
_symmetry_space_group_name_H-M   'P -1'
_symmetry_Int_Tables_number      2
_space_group_name_Hall           '-P 1'
loop_
_symmetry_equiv_pos_site_id
_symmetry_equiv_pos_as_xyz
1 x,y,z
2 -x,-y,-z
_cell_length_a                   8.6525(17)
_cell_length_b                   8.6945(17)
_cell_length_c                   13.980(3)
_cell_angle_alpha                104.42(3)
_cell_angle_beta                 97.55(3)
_cell_angle_gamma                91.58(3)
_cell_volume                     1007.75
loop_
_atom_site_label
_atom_site_type_symbol
_atom_site_fract_x
_atom_site_fract_y
_atom_site_fract_z
Zn1 Zn -0.17518(3) 0.21002(3) -0.25416(2)
O1 O -1.0350(2) -0.6909(2) -0.12965(14)
O2 O -1.1248(2) 1.0468(2) -0.36604(14)
O3 O -0.9657(3) 0.9424(3) -0.26518(17)
O4 O -0.8836(3) -0.6309(3) -0.23181(15)
N1 N -0.3824(3) -0.0210(3) -0.19201(18)
N2 N -0.2913(3) 0.5802(3) -0.38127(19)
N3 N -0.4219(2) 0.4091(3) -0.32336(17)
N4 N -0.2700(2) 0.3805(3) -0.31633(17)
N5 N -0.8521(3) 0.7453(3) -0.42185(16)
N6 N -0.5534(3) 0.1354(3) -0.11829(17)
N7 N -0.3534(3) 0.1284(3) -0.19511(17)
N8 N -0.1925(3) 0.4821(3) -0.35141(19)
N9 N -0.4546(3) 0.2230(3) -0.15053(18)
N10 N -0.7156(3) -0.4062(3) -0.07530(16)
C1 C -0.5788(3) -0.4205(3) -0.1123(2)
H1 H -0.5326 -0.5174 -0.1234
C2 C -0.5795(3) -0.1491(3) -0.12038(18)
C3 C -0.8511(3) 0.6206(3) -0.3804(2)
H2 H -0.9433 0.5821 -0.3647
C4 C -1.0278(3) 0.9473(3) -0.3468(2)
C5 C -0.4301(3) 0.5329(3) -0.36294(19)
C6 C -0.5066(3) -0.0126(3) -0.14383(19)
C7 C -0.9130(3) -0.6275(3) -0.1488(2)
C8 C -0.7147(3) 0.5510(3) -0.3614(2)
H3 H -0.7151 0.4640 -0.3339
C9 C -0.5797(3) 0.7398(3) -0.4233(2)
H4 H -0.4883 0.7832 -0.4372
C10 C -0.5758(3) 0.6089(3) -0.38274(18)
C11 C -0.7200(3) 0.8042(3) -0.4427(2)
H5 H -0.7231 0.8906 -0.4709
C12 C -0.7855(3) -0.2679(3) -0.0596(2)
H6 H -0.8787 -0.2599 -0.0329
C13 C -0.5081(3) -0.2925(3) -0.1333(2)
H7 H -0.4119 -0.3015 -0.1564
C14 C -0.7957(3) -0.5464(3) -0.0578(2)
H8 H -0.8494 -0.5137 0.0000
H9 H -0.7194 -0.6208 -0.0442
C15 C -0.9992(3) 0.8216(3) -0.4394(2)
H10 H -1.0854 0.7413 -0.4584
H11 H -0.9955 0.8710 -0.4942
C16 C -0.7209(3) -0.1387(3) -0.0825(2)
H12 H -0.7713 -0.0441 -0.0729
Zn1_2 Zn -1.17518(3) -0.78998(3) -0.25416(2)
Zn1_3 Zn -1.17518(3) 1.21002(3) -0.25416(2)
O1_2 O -0.0350(2) 0.3091(2) -0.12965(14)
O2_2 O -0.1248(2) 0.0468(2) -0.36604(14)
O5 O -0.3055(4) -0.1572(3) 0.3679(2)
H13 H -0.4010 -0.2363 0.3384
H14 H -0.2604 -0.1888 0.2995
O6 O -0.1142(6) -0.1982(13) -0.1229(5)
H15 H -0.1286 -0.1186 -0.1473
H16 H -0.1218 -0.2791 -0.1417
loop_
_geom_bond_atom_site_label_1
_geom_bond_atom_site_label_2
_geom_bond_site_symmetry_1
_geom_bond_site_symmetry_2
Zn1 N4 1_555 1_555
O1 C7 1_555 1_555
O2 C4 1_555 1_555
O3 C4 1_555 1_555
O4 C7 1_555 1_555
N1 N7 1_555 1_555
N2 N8 1_555 1_555
N3 N4 1_555 1_555
N4 N8 1_555 1_555
N5 C3 1_555 1_555
N6 N9 1_555 1_555
N7 Zn1 1_555 1_555
N9 N7 1_555 1_555
N10 C1 1_555 1_555
C1 H1 1_555 1_555
C2 C6 1_555 1_555
C3 H2 1_555 1_555
C4 C15 1_555 1_555
C5 N2 1_555 1_555
C6 N1 1_555 1_555
C7 C14 1_555 1_555
C8 C3 1_555 1_555
H3 C8 1_555 1_555
C9 H4 1_555 1_555
C10 C5 1_555 1_555
C11 N5 1_555 1_555
H5 C11 1_555 1_555
C12 N10 1_555 1_555
H6 C12 1_555 1_555
C13 C1 1_555 1_555
H7 C13 1_555 1_555
C14 N10 1_555 1_555
H8 C14 1_555 1_555
H9 C14 1_555 1_555
C15 N5 1_555 1_555
H10 C15 1_555 1_555
H11 C15 1_555 1_555
C16 C2 1_555 1_555
H12 C16 1_555 1_555
O5 H13 1_555 1_555
H14 O5 1_555 1_555
O6 H15 1_555 1_555
H16 O6 1_555 1_555
Zn1_2 O1 1_555 1_555
Zn1_3 O2 1_555 1_555
O1_2 Zn1 1_555 1_555
O2_2 Zn1 1_555 1_555
N3 C5 1_555 1_555
N6 C6 1_555 1_555
C2 C13 1_555 1_555
C8 C10 1_555 1_555
C9 C10 1_555 1_555
C9 C11 1_555 1_555
C12 C16 1_555 1_555

#END
