
#######################################################################
#
#                 Cambridge Crystallographic Data Centre
#                                CCDC 
#
#######################################################################
#
# If this CIF has been generated from an entry in the Cambridge 
# Structural Database, then it will include bibliographic, chemical, 
# crystal, experimental, refinement or atomic coordinate data resulting 
# from the CCDC's data processing and validation procedures.
#
#######################################################################

data_UYUKAB
_symmetry_cell_setting           triclinic
_symmetry_space_group_name_H-M   'P -1'
_symmetry_Int_Tables_number      2
_space_group_name_Hall           '-P 1'
loop_
_symmetry_equiv_pos_site_id
_symmetry_equiv_pos_as_xyz
1 x,y,z
2 -x,-y,-z
_cell_length_a                   6.8596(14)
_cell_length_b                   10.699(2)
_cell_length_c                   15.073(3)
_cell_angle_alpha                88.94(3)
_cell_angle_beta                 82.62(3)
_cell_angle_gamma                89.72(3)
_cell_volume                     1096.87
loop_
_atom_site_label
_atom_site_type_symbol
_atom_site_fract_x
_atom_site_fract_y
_atom_site_fract_z
Zn1 Zn 0.46679(9) 1.12110(5) 0.82282(4)
Zn2 Zn 0.43826(9) 0.89148(5) 0.68246(4)
Cl1 Cl 0.7933(3) 1.26990(15) 1.00570(10)
Cl2 Cl 0.1243(3) 0.75258(15) 0.50078(10)
O1 O 0.6284(5) 1.0328(3) 0.7145(3)
O2 O 0.9205(6) 1.0164(4) 0.6332(3)
O3 O 0.2732(5) 0.9797(3) 0.7903(3)
O4 O -0.0043(6) 0.9891(4) 0.8831(3)
N1 N 0.7519(6) 1.2180(4) 0.8164(3)
N2 N 0.1446(6) 0.7951(4) 0.6914(3)
C1 C 0.1069(7) 0.9392(5) 0.8208(3)
C2 C 0.8021(7) 1.0698(5) 0.6889(3)
C3 C 0.2013(7) 0.5721(4) 0.7263(3)
H1 H 0.1906 0.5888 0.7870
C4 C 0.1705(7) 0.6674(5) 0.6666(3)
C5 C 0.7510(8) 1.3843(5) 0.9266(4)
C6 C 0.7397(7) 1.3482(5) 0.8388(3)
C7 C 0.2479(8) 0.4514(5) 0.6975(4)
C8 C 0.0376(7) 0.8202(5) 0.7811(3)
H2 H 0.0560 0.7501 0.8210
H3 H -0.1019 0.8273 0.7766
C9 C 0.1767(9) 0.6360(5) 0.5769(4)
C10 C 0.7280(10) 1.5075(6) 0.9525(4)
H4 H 0.7390 1.5291 1.0111
C11 C 0.2290(10) 0.5185(6) 0.5453(4)
H5 H 0.2390 0.5022 0.4845
C12 C 0.8651(8) 1.1905(5) 0.7293(4)
H6 H 1.0033 1.1844 0.7365
H7 H 0.8498 1.2594 0.6880
C13 C 0.2664(10) 0.4249(6) 0.6064(4)
H8 H 0.3035 0.3453 0.5867
C14 C 0.6792(8) 1.5651(5) 0.8023(3)
C15 C 0.7089(8) 1.4416(5) 0.7767(3)
H9 H 0.7082 1.4212 0.7170
C16 C 0.6887(9) 1.5982(5) 0.8906(4)
H10 H 0.6686 1.6808 0.9079
O5 O 0.3171(6) 1.0590(4) 0.6022(3)
H11 H 0.1995 1.0489 0.5999
O6 O 0.5801(7) 0.9780(5) 0.9075(4)
H12 H 0.7003 0.9830 0.9029
O7 O 0.2821(6) 1.1730(4) 0.9343(3)
H13 H 0.1748 1.1395 0.9342
O8 O 0.5575(7) 0.8245(4) 0.5660(3)
H14 H 0.6776 0.8239 0.5639
C17 C 0.2794(7) 0.3521(5) 0.7661(4)
O9 O 0.2262(6) 0.3752(4) 0.8457(3)
O10 O 0.3612(6) 0.2501(3) 0.7371(3)
C18 C 0.6390(8) 1.6616(5) 0.7318(4)
O11 O 0.6921(7) 1.6387(4) 0.6533(3)
O12 O 0.5504(6) 1.7616(4) 0.7620(3)
Zn1_2 Zn 0.46679(9) 0.12110(5) 0.82282(4)
Zn2_2 Zn 0.43826(9) 1.89148(5) 0.68246(4)
O10_2 O 0.3612(6) 1.2501(3) 0.7371(3)
O12_2 O 0.5504(6) 0.7616(4) 0.7620(3)
loop_
_geom_bond_atom_site_label_1
_geom_bond_atom_site_label_2
_geom_bond_site_symmetry_1
_geom_bond_site_symmetry_2
Zn1 O1 1_555 1_555
Zn2 O1 1_555 1_555
Cl1 C5 1_555 1_555
Cl2 C9 1_555 1_555
O1 C2 1_555 1_555
O2 C2 1_555 1_555
O3 Zn1 1_555 1_555
O4 C1 1_555 1_555
N1 Zn1 1_555 1_555
N2 Zn2 1_555 1_555
C1 O3 1_555 1_555
C2 C12 1_555 1_555
C3 H1 1_555 1_555
C4 N2 1_555 1_555
C5 C6 1_555 1_555
C6 N1 1_555 1_555
C7 C3 1_555 1_555
C8 N2 1_555 1_555
H2 C8 1_555 1_555
H3 C8 1_555 1_555
C9 C4 1_555 1_555
C10 C5 1_555 1_555
H4 C10 1_555 1_555
C11 C9 1_555 1_555
H5 C11 1_555 1_555
C12 N1 1_555 1_555
H6 C12 1_555 1_555
H7 C12 1_555 1_555
C13 C7 1_555 1_555
H8 C13 1_555 1_555
C14 C15 1_555 1_555
C15 C6 1_555 1_555
H9 C15 1_555 1_555
C16 C10 1_555 1_555
H10 C16 1_555 1_555
O5 Zn2 1_555 1_555
H11 O5 1_555 1_555
O6 Zn1 1_555 1_555
H12 O6 1_555 1_555
O7 Zn1 1_555 1_555
H13 O7 1_555 1_555
O8 Zn2 1_555 1_555
H14 O8 1_555 1_555
C17 C7 1_555 1_555
O9 C17 1_555 1_555
O10 C17 1_555 1_555
C18 C14 1_555 1_555
O11 C18 1_555 1_555
O12 C18 1_555 1_555
Zn1_2 O10 1_555 1_555
Zn2_2 O12 1_555 1_555
O10_2 Zn1 1_555 1_555
O12_2 Zn2 1_555 1_555
Zn2 O3 1_555 1_555
C1 C8 1_555 1_555
C3 C4 1_555 1_555
C11 C13 1_555 1_555
C14 C16 1_555 1_555

#END
