
#######################################################################
#
#                 Cambridge Crystallographic Data Centre
#                                CCDC 
#
#######################################################################
#
# If this CIF has been generated from an entry in the Cambridge 
# Structural Database, then it will include bibliographic, chemical, 
# crystal, experimental, refinement or atomic coordinate data resulting 
# from the CCDC's data processing and validation procedures.
#
#######################################################################

data_UYULOQ
_symmetry_cell_setting           triclinic
_symmetry_space_group_name_H-M   'P -1'
_symmetry_Int_Tables_number      2
_space_group_name_Hall           '-P 1'
loop_
_symmetry_equiv_pos_site_id
_symmetry_equiv_pos_as_xyz
1 x,y,z
2 -x,-y,-z
_cell_length_a                   10.7370(17)
_cell_length_b                   11.2552(17)
_cell_length_c                   11.7481(18)
_cell_angle_alpha                73.996(2)
_cell_angle_beta                 88.977(2)
_cell_angle_gamma                76.188(2)
_cell_volume                     1323.49
loop_
_atom_site_label
_atom_site_type_symbol
_atom_site_fract_x
_atom_site_fract_y
_atom_site_fract_z
Cd1 Cd 1.05893(3) 0.16621(4) 0.52475(3)
C1 C 0.7856(6) 0.3365(6) 0.3903(5)
H1 H 0.7802 0.3920 0.4371
C2 C 0.8595(5) 0.1897(5) 0.3099(4)
H2 H 0.9135 0.1232 0.2872
C3 C 0.6581(6) 0.2022(6) 0.1967(5)
H3 H 0.5703 0.2184 0.2211
H4 H 0.6878 0.1114 0.2066
C4 C 0.6595(5) 0.2720(5) 0.0670(4)
C5 C 0.5445(5) 0.3334(6) 0.0029(5)
H5 H 0.4677 0.3361 0.0411
C6 C 0.5428(6) 0.3914(6) -0.1187(6)
H6 H 0.4647 0.4311 -0.1613
C7 C 0.6562(6) 0.3904(6) -0.1762(5)
C8 C 0.7718(6) 0.3305(6) -0.1104(5)
H7 H 0.8489 0.3290 -0.1478
C9 C 0.7730(5) 0.2739(6) 0.0089(5)
H8 H 0.8512 0.2361 0.0518
C10 C 0.6562(8) 0.4467(7) -0.3069(6)
H9 H 0.7107 0.3846 -0.3409
H10 H 0.5697 0.4649 -0.3408
C11 C 0.8006(6) 0.5929(6) -0.4023(5)
H11 H 0.8587 0.5362 -0.4336
C12 C 0.7036(6) 0.7523(6) -0.3537(6)
H12 H 0.6820 0.8347 -0.3461
C13 C 1.3054(4) -0.0709(5) 0.3347(4)
C14 C 1.4278(5) -0.1059(6) 0.3906(5)
H13 H 1.4360 -0.1158 0.4716
C15 C 1.5360(6) -0.1257(7) 0.3279(6)
H14 H 1.6167 -0.1486 0.3662
C16 C 1.5249(6) -0.1116(8) 0.2072(6)
H15 H 1.5983 -0.1251 0.1646
C17 C 1.4053(5) -0.0777(6) 0.1504(6)
H16 H 1.3985 -0.0685 0.0694
C18 C 1.2945(4) -0.0570(5) 0.2127(4)
C19 C 1.1531(5) 0.2121(5) -0.0663(4)
C20 C 1.1813(6) 0.2636(6) 0.0227(5)
H17 H 1.2069 0.2105 0.0986
C21 C 1.1713(7) 0.3933(7) -0.0016(6)
H18 H 1.1933 0.4262 0.0575
C22 C 1.1292(8) 0.4735(7) -0.1118(6)
H19 H 1.1198 0.5608 -0.1266
C23 C 1.1010(7) 0.4245(6) -0.2004(6)
H20 H 1.0725 0.4790 -0.2752
C24 C 1.1146(5) 0.2937(5) -0.1793(5)
C25 C 1.0889(5) 0.2466(5) -0.2849(5)
C26 C 1.1899(5) -0.0408(5) 0.4059(4)
N1 N 0.8939(4) 0.2497(5) 0.3829(4)
N2 N 0.7377(4) 0.2387(5) 0.2747(4)
N3 N 0.6884(5) 0.3350(5) 0.3247(4)
N4 N 0.7020(5) 0.5655(5) -0.3402(4)
N5 N 0.6375(6) 0.6680(6) -0.3071(6)
N6 N 0.8051(4) 0.7103(5) -0.4133(4)
O1 O 1.2046(4) 0.0040(4) 0.4895(3)
O2 O 1.0861(3) -0.0568(4) 0.3717(3)
O3 O 1.1471(3) 0.1362(4) -0.2849(3)
O4 O 1.0130(4) 0.3207(4) -0.3679(3)
S1 S 1.13660(12) -0.01215(14) 0.14072(11)
S2 S 1.16454(13) 0.04487(13) -0.03773(11)
Cd1A Cd 0.94107(3) 0.83379(4) -0.52475(3)
Cd1A_2 Cd 0.94107(3) -0.16621(4) 0.47525(3)
Cd1_2 Cd 1.05893(3) 0.16621(4) -0.47525(3)
N6A N 1.1949(4) 0.2897(5) 0.4133(4)
O2A O 0.9139(3) 0.0568(4) 0.6283(3)
O3_2 O 1.1471(3) 0.1362(4) 0.7151(3)
O4_2 O 1.0130(4) 0.3207(4) 0.6321(3)
loop_
_geom_bond_atom_site_label_1
_geom_bond_atom_site_label_2
_geom_bond_site_symmetry_1
_geom_bond_site_symmetry_2
Cd1 N1 1_555 1_555
C1 H1 1_555 1_555
C2 H2 1_555 1_555
C3 H3 1_555 1_555
H4 C3 1_555 1_555
C4 C3 1_555 1_555
C5 C4 1_555 1_555
H5 C5 1_555 1_555
C6 C5 1_555 1_555
H6 C6 1_555 1_555
C7 C6 1_555 1_555
C8 C7 1_555 1_555
H7 C8 1_555 1_555
C9 C4 1_555 1_555
H8 C9 1_555 1_555
C10 C7 1_555 1_555
H9 C10 1_555 1_555
H10 C10 1_555 1_555
C11 H11 1_555 1_555
C12 H12 1_555 1_555
C13 C14 1_555 1_555
C14 H13 1_555 1_555
C15 C14 1_555 1_555
H14 C15 1_555 1_555
C16 C15 1_555 1_555
H15 C16 1_555 1_555
C17 C16 1_555 1_555
H16 C17 1_555 1_555
C18 C13 1_555 1_555
C19 C20 1_555 1_555
C20 H17 1_555 1_555
C21 C20 1_555 1_555
H18 C21 1_555 1_555
C22 C21 1_555 1_555
H19 C22 1_555 1_555
C23 C22 1_555 1_555
H20 C23 1_555 1_555
C24 C19 1_555 1_555
C25 C24 1_555 1_555
C26 C13 1_555 1_555
N1 C1 1_555 1_555
N2 C2 1_555 1_555
N3 C1 1_555 1_555
N4 C10 1_555 1_555
N5 C12 1_555 1_555
N6 C11 1_555 1_555
O1 Cd1 1_555 1_555
O2 C26 1_555 1_555
O3 C25 1_555 1_555
O4 C25 1_555 1_555
S1 C18 1_555 1_555
S2 C19 1_555 1_555
Cd1A N6 1_555 1_555
Cd1A_2 O2 1_555 1_555
Cd1_2 O3 1_555 1_555
N6A Cd1 1_555 1_555
O2A Cd1 1_555 1_555
O3_2 Cd1 1_555 1_555
O4_2 Cd1 1_555 1_555
C2 N1 1_555 1_555
C3 N2 1_555 1_555
C8 C9 1_555 1_555
C11 N4 1_555 1_555
C12 N6 1_555 1_555
C17 C18 1_555 1_555
C23 C24 1_555 1_555
C26 O1 1_555 1_555
N2 N3 1_555 1_555
N4 N5 1_555 1_555
O4 Cd1_2 1_555 1_555
S1 S2 1_555 1_555

#END
