
#######################################################################
#
#                 Cambridge Crystallographic Data Centre
#                                CCDC 
#
#######################################################################
#
# If this CIF has been generated from an entry in the Cambridge 
# Structural Database, then it will include bibliographic, chemical, 
# crystal, experimental, refinement or atomic coordinate data resulting 
# from the CCDC's data processing and validation procedures.
#
#######################################################################

data_UYUPIO
_symmetry_cell_setting           orthorhombic
_symmetry_space_group_name_H-M   'P 21 21 21'
_symmetry_Int_Tables_number      19
_space_group_name_Hall           'P 2ac 2ab'
loop_
_symmetry_equiv_pos_site_id
_symmetry_equiv_pos_as_xyz
1 x,y,z
2 1/2-x,-y,1/2+z
3 -x,1/2+y,1/2-z
4 1/2+x,1/2-y,-z
_cell_length_a                   7.3710(8)
_cell_length_b                   9.4017(11)
_cell_length_c                   13.9634(16)
_cell_angle_alpha                90
_cell_angle_beta                 90
_cell_angle_gamma                90
_cell_volume                     967.663
loop_
_atom_site_label
_atom_site_type_symbol
_atom_site_fract_x
_atom_site_fract_y
_atom_site_fract_z
Fe1 Fe 0.09737(8) 0.60565(6) 0.76485(4)
N1 N 0.3466(5) 0.6381(4) 0.8437(3)
O1 O 0.0794(5) 0.4587(3) 0.8745(2)
O2 O 0.2377(5) 0.3322(4) 0.9793(3)
O3 O 0.7492(5) 0.9466(3) 0.8169(3)
O4 O 0.9590(4) 0.7782(3) 0.8349(3)
O5 O 0.1591(5) 0.7469(4) 0.6573(3)
O6 O -0.1381(5) 0.5193(4) 0.7084(3)
C1 C 0.2217(6) 0.4318(5) 0.9228(3)
C2 C 0.3791(7) 0.5325(5) 0.9070(3)
C3 C 0.5438(7) 0.5164(5) 0.9517(4)
H1 H 0.5615 0.4438 0.9960
C4 C 0.6834(6) 0.6099(6) 0.9299(3)
H2 H 0.7973 0.5989 0.9577
C5 C 0.6508(6) 0.7192(5) 0.8665(3)
C6 C 0.4793(6) 0.7303(5) 0.8252(3)
H3 H 0.4566 0.8049 0.7831
C7 C 0.7972(6) 0.8222(5) 0.8372(4)
H4 H -0.058(4) 0.574(4) 0.681(3)
H5 H -0.239(3) 0.543(5) 0.683(4)
H6 H 0.070(5) 0.687(4) 0.661(4)
H7 H 0.190(8) 0.714(6) 0.603(2)
Fe1_2 Fe 1.09737(8) 0.60565(6) 0.76485(4)
Fe1B Fe 0.90263(8) 1.10565(6) 0.73515(4)
O3B O 0.2508(5) 0.4466(3) 0.6831(3)
O4_2 O -0.0410(4) 0.7782(3) 0.8349(3)
O7 O 0.5691(6) 0.5848(5) 0.6120(4)
H8 H 0.550(6) 0.644(4) 0.567(3)
H9 H 0.470(4) 0.545(5) 0.627(4)
loop_
_geom_bond_atom_site_label_1
_geom_bond_atom_site_label_2
_geom_bond_site_symmetry_1
_geom_bond_site_symmetry_2
Fe1 N1 1_555 1_555
N1 C2 1_555 1_555
O1 Fe1 1_555 1_555
O2 C1 1_555 1_555
O3 C7 1_555 1_555
O4 C7 1_555 1_555
O5 Fe1 1_555 1_555
O6 Fe1 1_555 1_555
C1 O1 1_555 1_555
C2 C1 1_555 1_555
C3 C2 1_555 1_555
H1 C3 1_555 1_555
C4 C3 1_555 1_555
H2 C4 1_555 1_555
C5 C4 1_555 1_555
C6 N1 1_555 1_555
H3 C6 1_555 1_555
C7 C5 1_555 1_555
H4 O6 1_555 1_555
H5 O6 1_555 1_555
H6 O5 1_555 1_555
H7 O5 1_555 1_555
O7 H8 1_555 1_555
H9 O7 1_555 1_555
Fe1_2 O4 1_555 1_555
Fe1B O3 1_555 1_555
O3B Fe1 1_555 1_555
O4_2 Fe1 1_555 1_555
C5 C6 1_555 1_555

#END
