
#######################################################################
#
#                 Cambridge Crystallographic Data Centre
#                                CCDC 
#
#######################################################################
#
# If this CIF has been generated from an entry in the Cambridge 
# Structural Database, then it will include bibliographic, chemical, 
# crystal, experimental, refinement or atomic coordinate data resulting 
# from the CCDC's data processing and validation procedures.
#
#######################################################################

data_UZAGUY
_symmetry_cell_setting           triclinic
_symmetry_space_group_name_H-M   'P -1'
_symmetry_Int_Tables_number      2
_space_group_name_Hall           '-P 1'
loop_
_symmetry_equiv_pos_site_id
_symmetry_equiv_pos_as_xyz
1 x,y,z
2 -x,-y,-z
_cell_length_a                   6.4077(9)
_cell_length_b                   7.0157(13)
_cell_length_c                   9.1690(11)
_cell_angle_alpha                109.132(18)
_cell_angle_beta                 99.828(14)
_cell_angle_gamma                103.211(17)
_cell_volume                     365.35
loop_
_atom_site_label
_atom_site_type_symbol
_atom_site_fract_x
_atom_site_fract_y
_atom_site_fract_z
Zn1 Zn 0.5000 0.0000 0.5000
C1 C 0.108(2) 0.281(2) 0.9854(16)
H1 H 0.1387 0.3452 1.0999
H2 H -0.0175 0.1553 0.9451
H3 H 0.0744 0.3792 0.9395
N1 N 0.3013(18) 0.2265(16) 0.9426(12)
C2 C 0.303(2) 0.136(2) 0.7933(17)
H4 H 0.1705 0.0840 0.7133
C3 C 0.491(2) 0.267(2) 1.0712(14)
H5 H 0.4571 0.1663 1.1207
H6 H 0.5257 0.4076 1.1493
H7 H 0.6164 0.2526 1.0291
O1 O 0.4796(13) 0.1187(12) 0.7548(10)
O2 O 1.0463(14) 0.5017(13) 0.6871(10)
O3 O 0.8253(15) 0.1702(14) 0.5794(10)
C4 C 0.869(2) 0.366(2) 0.6114(17)
N2 N 0.4736(18) 0.2935(17) 0.4929(13)
C5 C 0.702(2) 0.647(2) 0.5600(15)
H8 H 0.8429 0.7450 0.6031
C6 C 0.673(2) 0.438(2) 0.5506(17)
Zn1_2 Zn 0.5000 1.0000 0.5000
C1A C 0.892(2) -0.281(2) 0.0146(16)
H1A H 0.8613 -0.3452 -0.0999
H2A H 1.0175 -0.1553 0.0549
H3A H 0.9256 -0.3792 0.0605
N1A N 0.6987(18) -0.2265(16) 0.0574(12)
C2A C 0.697(2) -0.136(2) 0.2067(17)
H4A H 0.8295 -0.0840 0.2867
C3A C 0.509(2) -0.267(2) -0.0712(14)
H5A H 0.5429 -0.1663 -0.1207
H6A H 0.4743 -0.4076 -0.1493
H7A H 0.3836 -0.2526 -0.0291
O1A O 0.5204(13) -0.1187(12) 0.2452(10)
O2A O -0.0463(14) 0.4983(13) 0.3129(10)
O3A O 0.1747(15) 0.8298(14) 0.4206(10)
O3A_2 O 0.1747(15) -0.1702(14) 0.4206(10)
C4A C 0.131(2) 0.634(2) 0.3886(17)
N2A N 0.5264(18) 0.7065(17) 0.5071(13)
N2A_2 N 0.5264(18) -0.2935(17) 0.5071(13)
C5A C 0.298(2) 0.353(2) 0.4400(15)
H8A H 0.1571 0.2550 0.3969
C6A C 0.327(2) 0.562(2) 0.4494(17)
loop_
_geom_bond_atom_site_label_1
_geom_bond_atom_site_label_2
_geom_bond_site_symmetry_1
_geom_bond_site_symmetry_2
Zn1 O1 1_555 1_555
C1 H1 1_555 1_555
H2 C1 1_555 1_555
H3 C1 1_555 1_555
N1 C1 1_555 1_555
C2 N1 1_555 1_555
H4 C2 1_555 1_555
C3 N1 1_555 1_555
H5 C3 1_555 1_555
H6 C3 1_555 1_555
H7 C3 1_555 1_555
O1 C2 1_555 1_555
O2 C4 1_555 1_555
O3 Zn1 1_555 1_555
C4 O3 1_555 1_555
N2 Zn1 1_555 1_555
C5 H8 1_555 1_555
C6 C4 1_555 1_555
Zn1_2 O3A 1_555 1_555
C1A H1A 1_555 1_555
H2A C1A 1_555 1_555
H3A C1A 1_555 1_555
N1A C1A 1_555 1_555
C2A N1A 1_555 1_555
H4A C2A 1_555 1_555
C3A N1A 1_555 1_555
H5A C3A 1_555 1_555
H6A C3A 1_555 1_555
H7A C3A 1_555 1_555
O1A Zn1 1_555 1_555
O2A C4A 1_555 1_555
O3A C4A 1_555 1_555
O3A_2 Zn1 1_555 1_555
C4A C6A 1_555 1_555
N2A C5 1_555 1_555
N2A_2 Zn1 1_555 1_555
C5A N2 1_555 1_555
H8A C5A 1_555 1_555
C6A N2A 1_555 1_555
N2 C6 1_555 1_555
C5 C6 1_555 1_555
Zn1_2 N2A 1_555 1_555
C2A O1A 1_555 1_555
C5A C6A 1_555 1_555

#END
