
#######################################################################
#
#                 Cambridge Crystallographic Data Centre
#                                CCDC 
#
#######################################################################
#
# If this CIF has been generated from an entry in the Cambridge 
# Structural Database, then it will include bibliographic, chemical, 
# crystal, experimental, refinement or atomic coordinate data resulting 
# from the CCDC's data processing and validation procedures.
#
#######################################################################

data_UZAJOV
_symmetry_cell_setting           orthorhombic
_symmetry_space_group_name_H-M   'P b c a'
_symmetry_Int_Tables_number      61
_space_group_name_Hall           '-P 2ac 2ab'
loop_
_symmetry_equiv_pos_site_id
_symmetry_equiv_pos_as_xyz
1 x,y,z
2 1/2-x,-y,1/2+z
3 -x,1/2+y,1/2-z
4 1/2+x,1/2-y,-z
5 -x,-y,-z
6 1/2+x,y,1/2-z
7 x,1/2-y,1/2+z
8 1/2-x,1/2+y,z
_cell_length_a                   16.5485(15)
_cell_length_b                   10.1647(9)
_cell_length_c                   23.332(2)
_cell_angle_alpha                90
_cell_angle_beta                 90
_cell_angle_gamma                90
_cell_volume                     3924.69
loop_
_atom_site_label
_atom_site_type_symbol
_atom_site_fract_x
_atom_site_fract_y
_atom_site_fract_z
Co1 Co 1.03252(2) 0.20481(4) 0.307890(17)
C1 C 0.95793(17) 0.1673(3) 0.21137(13)
C2 C 0.92427(17) 0.1758(3) 0.15099(12)
C3 C 0.8907(2) 0.2936(3) 0.13290(14)
H1 H 0.8938 0.3672 0.1565
C4 C 0.8526(3) 0.3034(3) 0.08019(16)
H2 H 0.8300 0.3827 0.0684
C5 C 0.8488(3) 0.1952(4) 0.04584(16)
H3 H 0.8227 0.2000 0.0106
C6 C 0.8834(2) 0.0785(3) 0.06333(13)
C7 C 0.95930(19) -0.0647(3) 0.13573(12)
C8 C 0.92234(17) 0.0642(3) 0.11610(12)
C9 C 0.7544(2) 0.0066(4) 0.21313(16)
H4 H 0.8074 -0.0138 0.2032
C10 C 0.7066(2) 0.0971(3) 0.18831(14)
H5 H 0.7214 0.1506 0.1577
C11 C 0.63724(19) 0.0083(3) 0.25572(13)
H6 H 0.5955 -0.0122 0.2809
C12 C 0.7370(2) -0.1510(4) 0.29674(15)
H7 H 0.7898 -0.1826 0.2851
H8 H 0.6998 -0.2248 0.2958
C13 C 0.7419(2) -0.0986(4) 0.35686(16)
H9 H 0.6878 -0.0761 0.3695
H10 H 0.7734 -0.0181 0.3564
C14 C 0.7793(2) -0.1924(4) 0.40058(18)
H11 H 0.7657 -0.1614 0.4387
H12 H 0.7547 -0.2783 0.3958
C15 C 0.8688(2) -0.2080(4) 0.39710(19)
H13 H 0.8871 -0.2619 0.4289
H14 H 0.8824 -0.2535 0.3619
C16 C 0.9436(2) -0.0226(3) 0.35339(15)
H15 H 0.9468 -0.0605 0.3172
C17 C 0.9546(3) 0.1151(5) 0.42233(17)
H16 H 0.9671 0.1899 0.4435
C18 C 0.9171(3) 0.0057(5) 0.44256(17)
H17 H 0.8988 -0.0070 0.4798
N1 N 0.8776(2) -0.0359(3) 0.02486(12)
N2 N 0.97094(16) 0.0962(3) 0.36544(11)
N3 N 0.91092(17) -0.0824(3) 0.39861(12)
N4 N 0.70946(15) -0.0500(3) 0.25619(11)
N5 N 0.63227(14) 0.0986(2) 0.21510(11)
O1 O 0.98601(14) 0.2720(2) 0.23372(9)
O2 O 0.95750(13) 0.0620(2) 0.23633(9)
O3 O 0.90945(12) -0.1525(2) 0.15080(9)
O4 O 1.03380(13) -0.0750(2) 0.13630(10)
O5 O 0.9323(2) -0.1155(3) 0.02401(12)
O6 O 0.8165(2) -0.0444(4) -0.00442(14)
Co1B Co 0.96748(2) -0.29519(4) 0.192110(17)
Co1E Co 0.53252(2) 0.20481(4) 0.192110(17)
N5E N 1.13227(14) 0.0986(2) 0.28490(11)
O3B O 1.09055(12) 0.3475(2) 0.34920(9)
loop_
_geom_bond_atom_site_label_1
_geom_bond_atom_site_label_2
_geom_bond_site_symmetry_1
_geom_bond_site_symmetry_2
Co1 N2 1_555 1_555
C1 C2 1_555 1_555
C2 C3 1_555 1_555
C3 H1 1_555 1_555
C4 C3 1_555 1_555
H2 C4 1_555 1_555
C5 C4 1_555 1_555
H3 C5 1_555 1_555
C6 C5 1_555 1_555
C7 C8 1_555 1_555
C8 C2 1_555 1_555
C9 H4 1_555 1_555
C10 C9 1_555 1_555
H5 C10 1_555 1_555
C11 H6 1_555 1_555
C12 H7 1_555 1_555
H8 C12 1_555 1_555
C13 C12 1_555 1_555
H9 C13 1_555 1_555
H10 C13 1_555 1_555
C14 C13 1_555 1_555
H11 C14 1_555 1_555
H12 C14 1_555 1_555
C15 C14 1_555 1_555
H13 C15 1_555 1_555
H14 C15 1_555 1_555
C16 H15 1_555 1_555
C17 H16 1_555 1_555
C18 C17 1_555 1_555
H17 C18 1_555 1_555
N1 C6 1_555 1_555
N2 C16 1_555 1_555
N3 C15 1_555 1_555
N4 C9 1_555 1_555
N5 C10 1_555 1_555
O1 Co1 1_555 1_555
O2 C1 1_555 1_555
O3 C7 1_555 1_555
O4 C7 1_555 1_555
O5 N1 1_555 1_555
O6 N1 1_555 1_555
Co1B O3 1_555 1_555
Co1E N5 1_555 1_555
N5E Co1 1_555 1_555
O3B Co1 1_555 1_555
C1 O1 1_555 1_555
C6 C8 1_555 1_555
C11 N4 1_555 1_555
C11 N5 1_555 1_555
C12 N4 1_555 1_555
C16 N3 1_555 1_555
C17 N2 1_555 1_555
C18 N3 1_555 1_555

#END
