
#######################################################################
#
#                 Cambridge Crystallographic Data Centre
#                                CCDC 
#
#######################################################################
#
# If this CIF has been generated from an entry in the Cambridge 
# Structural Database, then it will include bibliographic, chemical, 
# crystal, experimental, refinement or atomic coordinate data resulting 
# from the CCDC's data processing and validation procedures.
#
#######################################################################

data_UZAPIV
_symmetry_cell_setting           triclinic
_symmetry_space_group_name_H-M   'P -1'
_symmetry_Int_Tables_number      2
_space_group_name_Hall           '-P 1'
loop_
_symmetry_equiv_pos_site_id
_symmetry_equiv_pos_as_xyz
1 x,y,z
2 -x,-y,-z
_cell_length_a                   9.5687(15)
_cell_length_b                   11.2470(17)
_cell_length_c                   13.686(2)
_cell_angle_alpha                78.262(3)
_cell_angle_beta                 89.271(4)
_cell_angle_gamma                81.292(3)
_cell_volume                     1425.2
loop_
_atom_site_label
_atom_site_type_symbol
_atom_site_fract_x
_atom_site_fract_y
_atom_site_fract_z
Co1 Co 0.5000 0.0000 0.5000
Co2 Co 1.41294(8) 0.36741(6) 0.09512(5)
N1 N 1.2684(5) 0.5252(4) 0.1158(3)
N2 N 0.5694(5) 1.2128(4) 0.0839(3)
N3 N 0.6404(5) -0.1636(4) 0.4823(3)
O1 O 1.2266(4) 0.2745(4) 0.0873(3)
O2 O 1.3351(4) 0.2548(3) 0.2284(3)
O3 O 0.6683(4) 0.0979(3) 0.4867(3)
O4 O 0.6815(5) 0.1307(4) 0.6407(3)
O5 O 0.5650(4) 0.4229(3) 0.1680(3)
O6 O 0.5996(5) 0.5855(4) 0.0548(3)
O7 O 0.4794(5) 0.0389(4) 0.3437(3)
H1 H 0.431(6) -0.017(4) 0.336(4)
H2 H 0.442(6) 0.110(3) 0.314(4)
C1 C 1.2350(6) 0.2330(5) 0.1801(5)
C2 C 1.1258(7) 0.1595(6) 0.2299(5)
H3 H 1.1716 0.0932 0.2815
H4 H 1.0842 0.1230 0.1811
C3 C 1.0107(6) 0.2357(6) 0.2756(4)
C4 C 0.9722(7) 0.1965(6) 0.3723(5)
H5 H 1.0213 0.1243 0.4097
C5 C 0.8625(9) 0.2612(8) 0.4159(5)
C6 C 0.7909(7) 0.3681(6) 0.3590(5)
H6 H 0.7161 0.4117 0.3870
C7 C 0.8269(6) 0.4127(5) 0.2613(4)
C8 C 0.9391(6) 0.3450(5) 0.2219(4)
H7 H 0.9670 0.3742 0.1573
C9 C 0.8283(8) 0.2232(7) 0.5246(4)
H8 H 0.9143 0.1792 0.5595
H9 H 0.8024 0.2974 0.5507
C10 C 0.7152(7) 0.1462(5) 0.5510(5)
C11 C 0.7473(6) 0.5303(5) 0.2000(4)
H10 H 0.7077 0.5829 0.2447
H11 H 0.8134 0.5731 0.1573
C12 C 0.6295(6) 0.5091(6) 0.1361(4)
C13 C 1.1563(6) 0.5649(5) 0.0544(4)
H12 H 1.1408 0.5190 0.0073
C14 C 1.0625(6) 0.6693(5) 0.0568(4)
H13 H 0.9865 0.6932 0.0119
C15 C 1.0821(6) 0.7390(5) 0.1269(4)
C16 C 1.1978(6) 0.6979(5) 0.1908(4)
H14 H 1.2158 0.7413 0.2391
C17 C 1.2859(6) 0.5922(5) 0.1821(4)
H15 H 1.3630 0.5661 0.2260
C18 C 0.9860(6) 0.8519(5) 0.1310(4)
H16 H 1.0077 0.8967 0.1773
C19 C 0.8716(6) 0.8962(5) 0.0752(4)
H17 H 0.8521 0.8525 0.0275
C20 C 0.7724(6) 1.0058(5) 0.0803(4)
C21 C 0.7685(6) 1.0688(5) 0.1560(4)
H18 H 0.8360 1.0437 0.2072
C22 C 0.6668(6) 1.1687(5) 0.1579(4)
H19 H 0.6650 1.2072 0.2120
C23 C 0.5743(7) 1.1554(5) 0.0084(5)
H20 H 0.5086 1.1848 -0.0436
C24 C 0.6725(7) 1.0538(5) 0.0035(5)
H21 H 0.6723 1.0169 -0.0514
C25 C 0.7323(7) -0.1587(5) 0.4073(5)
H22 H 0.7268 -0.0860 0.3598
C26 C 0.8332(6) -0.2542(6) 0.3969(5)
H23 H 0.8895 -0.2467 0.3407
C27 C 0.8538(6) -0.3619(5) 0.4677(4)
C28 C 0.7572(7) -0.3679(5) 0.5443(5)
H24 H 0.7629 -0.4387 0.5938
C29 C 0.6528(7) -0.2699(5) 0.5478(4)
H25 H 0.5874 -0.2786 0.5986
C30 C 0.9708(7) -0.4576(5) 0.4623(5)
H26 H 1.0088 -0.4596 0.3996
Co1_2 Co 1.5000 -1.0000 0.5000
Co2A Co -0.41294(8) -0.36741(6) 0.90488(5)
Co2_2 Co 0.41294(8) -0.63259(6) 1.09512(5)
Co2_3 Co 0.41294(8) 0.36741(6) 0.09512(5)
Co2_4 Co 0.41294(8) 1.36741(6) 0.09512(5)
Co2A_2 Co 0.58706(8) -1.36741(6) 0.90488(5)
Co2A_3 Co 0.58706(8) -0.36741(6) 0.90488(5)
Co2A_4 Co 0.58706(8) 0.63259(6) -0.09512(5)
N1A N -0.2684(5) -0.5252(4) 0.8842(3)
N2A N 0.4306(5) -1.2128(4) 0.9161(3)
N2_2 N 1.5694(5) 0.2128(4) 0.0839(3)
N2A_2 N -0.5694(5) -0.2128(4) 0.9161(3)
N3A N 1.3596(5) -0.8364(4) 0.5177(3)
N3A_2 N 0.3596(5) 0.1636(4) 0.5177(3)
O1A O -0.2266(4) -0.2745(4) 0.9127(3)
O2A O -0.3351(4) -0.2548(3) 0.7716(3)
O3A O 0.3317(4) -0.0979(3) 0.5133(3)
O4A O 0.3185(5) -0.1307(4) 0.3593(3)
O5A O 0.4350(4) -0.4229(3) 0.8320(3)
O5_2 O 1.5650(4) 0.4229(3) 0.1680(3)
O5A_2 O -0.5650(4) -0.4229(3) 0.8320(3)
O6A O 0.4004(5) -0.5855(4) 0.9452(3)
O6_2 O -0.4004(5) -0.4145(4) 1.0548(3)
O6A_2 O 1.4004(5) 0.4145(4) -0.0548(3)
O7A O 0.5206(5) -0.0389(4) 0.6563(3)
H1A H 0.569(6) 0.017(4) 0.664(4)
H2A H 0.558(6) -0.110(3) 0.686(4)
C1A C -0.2350(6) -0.2330(5) 0.8199(5)
C2A C -0.1258(7) -0.1595(6) 0.7701(5)
H3A H -0.1716 -0.0932 0.7185
H4A H -0.0842 -0.1230 0.8189
C3A C -0.0107(6) -0.2357(6) 0.7244(4)
C4A C 0.0278(7) -0.1965(6) 0.6277(5)
H5A H -0.0213 -0.1243 0.5903
C5A C 0.1375(9) -0.2612(8) 0.5841(5)
C6A C 0.2091(7) -0.3681(6) 0.6410(5)
H6A H 0.2839 -0.4117 0.6130
C7A C 0.1731(6) -0.4127(5) 0.7387(4)
C8A C 0.0609(6) -0.3450(5) 0.7781(4)
H7A H 0.0330 -0.3742 0.8427
C9A C 0.1717(8) -0.2232(7) 0.4754(4)
H8A H 0.0857 -0.1792 0.4405
H9A H 0.1976 -0.2974 0.4493
C10A C 0.2848(7) -0.1462(5) 0.4490(5)
C11A C 0.2527(6) -0.5303(5) 0.8000(4)
H10A H 0.2923 -0.5829 0.7553
H11A H 0.1866 -0.5731 0.8427
C12A C 0.3705(6) -0.5091(6) 0.8639(4)
C13A C -0.1563(6) -0.5649(5) 0.9456(4)
H12A H -0.1408 -0.5190 0.9927
C14A C -0.0625(6) -0.6693(5) 0.9432(4)
H13A H 0.0135 -0.6932 0.9881
C15A C -0.0821(6) -0.7390(5) 0.8731(4)
C16A C -0.1978(6) -0.6979(5) 0.8092(4)
H14A H -0.2158 -0.7413 0.7609
C17A C -0.2859(6) -0.5922(5) 0.8179(4)
H15A H -0.3630 -0.5661 0.7740
C18A C 0.0140(6) -0.8519(5) 0.8690(4)
H16A H -0.0077 -0.8967 0.8227
C19A C 0.1284(6) -0.8962(5) 0.9248(4)
H17A H 0.1479 -0.8525 0.9725
C20A C 0.2276(6) -1.0058(5) 0.9197(4)
C21A C 0.2315(6) -1.0688(5) 0.8440(4)
H18A H 0.1640 -1.0437 0.7928
C22A C 0.3332(6) -1.1687(5) 0.8421(4)
H19A H 0.3350 -1.2072 0.7880
C23A C 0.4257(7) -1.1554(5) 0.9916(5)
H20A H 0.4914 -1.1848 1.0436
C24A C 0.3275(7) -1.0538(5) 0.9965(5)
H21A H 0.3277 -1.0169 1.0514
C25A C 1.2677(7) -0.8413(5) 0.5927(5)
H22A H 1.2732 -0.9140 0.6402
C26A C 1.1668(6) -0.7458(6) 0.6031(5)
H23A H 1.1105 -0.7533 0.6593
C27A C 1.1462(6) -0.6381(5) 0.5323(4)
C28A C 1.2428(7) -0.6321(5) 0.4557(5)
H24A H 1.2371 -0.5613 0.4062
C29A C 1.3472(7) -0.7301(5) 0.4522(4)
H25A H 1.4126 -0.7214 0.4014
C30A C 1.0292(7) -0.5424(5) 0.5377(5)
H26A H 0.9912 -0.5404 0.6004
O8 O 0.4758(16) 0.6067(14) 0.3872(12)
O9? O 0.522(3) 0.781(4) 0.245(3)
loop_
_geom_bond_atom_site_label_1
_geom_bond_atom_site_label_2
_geom_bond_site_symmetry_1
_geom_bond_site_symmetry_2
Co1 N3 1_555 1_555
Co2 N1 1_555 1_555
N1 C13 1_555 1_555
N2 C22 1_555 1_555
N3 C25 1_555 1_555
O1 Co2 1_555 1_555
O2 Co2 1_555 1_555
O3 Co1 1_555 1_555
O4 C10 1_555 1_555
O5 C12 1_555 1_555
O6 C12 1_555 1_555
O7 Co1 1_555 1_555
H1 O7 1_555 1_555
H2 O7 1_555 1_555
C1 O1 1_555 1_555
C2 C1 1_555 1_555
H3 C2 1_555 1_555
H4 C2 1_555 1_555
C3 C2 1_555 1_555
C4 C3 1_555 1_555
H5 C4 1_555 1_555
C5 C4 1_555 1_555
C6 C5 1_555 1_555
H6 C6 1_555 1_555
C7 C6 1_555 1_555
C8 C3 1_555 1_555
H7 C8 1_555 1_555
C9 C5 1_555 1_555
H8 C9 1_555 1_555
H9 C9 1_555 1_555
C10 O3 1_555 1_555
C11 C7 1_555 1_555
H10 C11 1_555 1_555
H11 C11 1_555 1_555
C12 C11 1_555 1_555
C13 H12 1_555 1_555
C14 C13 1_555 1_555
H13 C14 1_555 1_555
C15 C14 1_555 1_555
C16 C15 1_555 1_555
H14 C16 1_555 1_555
C17 N1 1_555 1_555
H15 C17 1_555 1_555
C18 C15 1_555 1_555
H16 C18 1_555 1_555
C19 C18 1_555 1_555
H17 C19 1_555 1_555
C20 C19 1_555 1_555
C21 C20 1_555 1_555
H18 C21 1_555 1_555
C22 C21 1_555 1_555
H19 C22 1_555 1_555
C23 N2 1_555 1_555
H20 C23 1_555 1_555
C24 C20 1_555 1_555
H21 C24 1_555 1_555
C25 H22 1_555 1_555
C26 C25 1_555 1_555
H23 C26 1_555 1_555
C27 C26 1_555 1_555
C28 C27 1_555 1_555
H24 C28 1_555 1_555
C29 N3 1_555 1_555
H25 C29 1_555 1_555
C30 C27 1_555 1_555
H26 C30 1_555 1_555
Co1_2 N3A 1_555 1_555
Co2A N1A 1_555 1_555
Co2_2 O6A 1_555 1_555
Co2_3 O5 1_555 1_555
Co2_4 N2 1_555 1_555
Co2A_2 N2A 1_555 1_555
Co2A_3 O5A 1_555 1_555
Co2A_4 O6 1_555 1_555
N1A C13A 1_555 1_555
N2A C22A 1_555 1_555
N2_2 Co2 1_555 1_555
N2A_2 Co2A 1_555 1_555
N3A C25A 1_555 1_555
N3A_2 Co1 1_555 1_555
O1A Co2A 1_555 1_555
O2A Co2A 1_555 1_555
O3A Co1 1_555 1_555
O4A C10A 1_555 1_555
O5A C12A 1_555 1_555
O5_2 Co2 1_555 1_555
O5A_2 Co2A 1_555 1_555
O6A C12A 1_555 1_555
O6_2 Co2A 1_555 1_555
O6A_2 Co2 1_555 1_555
O7A Co1 1_555 1_555
H1A O7A 1_555 1_555
H2A O7A 1_555 1_555
C1A O1A 1_555 1_555
C2A C1A 1_555 1_555
H3A C2A 1_555 1_555
H4A C2A 1_555 1_555
C3A C2A 1_555 1_555
C4A C3A 1_555 1_555
H5A C4A 1_555 1_555
C5A C4A 1_555 1_555
C6A C5A 1_555 1_555
H6A C6A 1_555 1_555
C7A C6A 1_555 1_555
C8A C3A 1_555 1_555
H7A C8A 1_555 1_555
C9A C5A 1_555 1_555
H8A C9A 1_555 1_555
H9A C9A 1_555 1_555
C10A O3A 1_555 1_555
C11A C7A 1_555 1_555
H10A C11A 1_555 1_555
H11A C11A 1_555 1_555
C12A C11A 1_555 1_555
C13A H12A 1_555 1_555
C14A C13A 1_555 1_555
H13A C14A 1_555 1_555
C15A C14A 1_555 1_555
C16A C15A 1_555 1_555
H14A C16A 1_555 1_555
C17A N1A 1_555 1_555
H15A C17A 1_555 1_555
C18A C15A 1_555 1_555
H16A C18A 1_555 1_555
C19A C18A 1_555 1_555
H17A C19A 1_555 1_555
C20A C19A 1_555 1_555
C21A C20A 1_555 1_555
H18A C21A 1_555 1_555
C22A C21A 1_555 1_555
H19A C22A 1_555 1_555
C23A N2A 1_555 1_555
H20A C23A 1_555 1_555
C24A C20A 1_555 1_555
H21A C24A 1_555 1_555
C25A H22A 1_555 1_555
C26A C25A 1_555 1_555
H23A C26A 1_555 1_555
C27A C26A 1_555 1_555
C28A C27A 1_555 1_555
H24A C28A 1_555 1_555
C29A N3A 1_555 1_555
H25A C29A 1_555 1_555
C30A C30 1_555 1_555
H26A C30A 1_555 1_555
O2 C1 1_555 1_555
C7 C8 1_555 1_555
C9 C10 1_555 1_555
C16 C17 1_555 1_555
C23 C24 1_555 1_555
C28 C29 1_555 1_555
O2A C1A 1_555 1_555
C7A C8A 1_555 1_555
C9A C10A 1_555 1_555
C16A C17A 1_555 1_555
C23A C24A 1_555 1_555
C27A C30A 1_555 1_555
C28A C29A 1_555 1_555

#END
