
#######################################################################
#
#                 Cambridge Crystallographic Data Centre
#                                CCDC 
#
#######################################################################
#
# If this CIF has been generated from an entry in the Cambridge 
# Structural Database, then it will include bibliographic, chemical, 
# crystal, experimental, refinement or atomic coordinate data resulting 
# from the CCDC's data processing and validation procedures.
#
#######################################################################

data_UZAQAO
_symmetry_cell_setting           triclinic
_symmetry_space_group_name_H-M   'P -1'
_symmetry_Int_Tables_number      2
_space_group_name_Hall           '-P 1'
loop_
_symmetry_equiv_pos_site_id
_symmetry_equiv_pos_as_xyz
1 x,y,z
2 -x,-y,-z
_cell_length_a                   9.6378(10)
_cell_length_b                   9.7508(10)
_cell_length_c                   19.055(2)
_cell_angle_alpha                88.7020(10)
_cell_angle_beta                 80.5260(10)
_cell_angle_gamma                69.2000(10)
_cell_volume                     1649.93
loop_
_atom_site_label
_atom_site_type_symbol
_atom_site_fract_x
_atom_site_fract_y
_atom_site_fract_z
C1 C 0.2468(5) 0.4545(5) 0.6729(2)
H1 H 0.2689 0.3574 0.6588
C2 C 0.2455(5) 0.4859(6) 0.7435(2)
H2 H 0.2689 0.4101 0.7751
C3 C 0.2097(5) 0.6287(6) 0.7674(2)
C4 C 0.1744(5) 0.7353(6) 0.7166(3)
H3 H 0.1469 0.8339 0.7296
C5 C 0.1800(5) 0.6947(5) 0.6473(2)
H4 H 0.1559 0.7684 0.6147
C6 C 0.2132(6) 0.6662(7) 0.8417(3)
C7 C 0.3007(7) 0.5597(8) 0.8820(3)
H5 H 0.3506 0.4644 0.8631
C8 C 0.3144(8) 0.5947(10) 0.9505(4)
H6 H 0.3778 0.5235 0.9757
C9 C 0.1602(9) 0.8262(10) 0.9445(4)
H7 H 0.1123 0.9187 0.9668
C10 C 0.1390(7) 0.8061(8) 0.8719(3)
H8 H 0.0796 0.8823 0.8475
C11 C 0.3181(5) 0.9199(5) 0.3491(2)
C12 C 0.3815(5) 0.7799(5) 0.3183(2)
H9 H 0.4340 0.7017 0.3438
C13 C 0.3661(5) 0.7570(6) 0.2486(2)
H10 H 0.4070 0.6627 0.2278
C14 C 0.2908(6) 0.8729(7) 0.2102(3)
C15 C 0.2270(6) 1.0117(6) 0.2415(3)
H11 H 0.1743 1.0897 0.2159
C16 C 0.2701(8) 0.8499(9) 0.1349(3)
C17 C 0.4368(5) 0.8579(5) 0.4525(2)
H12 H 0.5313 0.8224 0.4196
H13 H 0.4508 0.9131 0.4907
C18 C 0.4040(5) 0.7268(5) 0.4837(2)
C19 C -0.1942(5) 0.8466(5) 0.2067(2)
C20 C -0.0587(5) 0.7965(5) 0.2330(2)
H14 H 0.0290 0.7379 0.2039
C21 C -0.0535(5) 0.8330(5) 0.3019(2)
H15 H 0.0374 0.7990 0.3190
C22 C -0.1831(5) 0.9200(5) 0.3457(2)
C23 C -0.3174(5) 0.9729(5) 0.3194(2)
H16 H -0.4043 1.0335 0.3483
C24 C -0.3228(5) 0.9363(5) 0.2507(2)
H17 H -0.4137 0.9721 0.2337
C25 C -0.1963(6) 0.7974(6) 0.1333(3)
C26 C -0.0760(5) 0.8774(5) 0.4534(2)
H18 H 0.0226 0.8551 0.4244
H19 H -0.0793 0.9342 0.4952
C27 C -0.0949(4) 0.7350(5) 0.4770(2)
C28 C 0.1453(5) 0.4650(5) 0.3485(2)
H20 H 0.0510 0.5048 0.3768
C29 C 0.1521(5) 0.4314(5) 0.2780(2)
H21 H 0.0637 0.4495 0.2598
C30 C 0.2911(5) 0.3701(5) 0.2337(2)
C31 C 0.4171(5) 0.3482(5) 0.2656(2)
H22 H 0.5131 0.3075 0.2390
C32 C 0.2405(6) 1.0357(6) 0.3104(3)
H23 H 0.1974 1.1300 0.3312
C33 C 0.3994(5) 0.3866(5) 0.3361(2)
H24 H 0.4856 0.3719 0.3556
C34 C 0.1986(6) 0.3371(6) 0.0524(3)
H25 H 0.1174 0.3776 0.0285
C35 C 0.1837(6) 0.3874(6) 0.1207(2)
H26 H 0.0956 0.4611 0.1417
C36 C 0.3022(5) 0.3268(5) 0.1584(2)
C37 C 0.4316(5) 0.2212(5) 0.1219(2)
H27 H 0.5149 0.1784 0.1442
C38 C 0.4357(6) 0.1803(6) 0.0529(2)
H28 H 0.5242 0.1108 0.0295
Cd1 Cd 0.24527(4) 0.49792(4) 0.500780(16)
N1 N 0.2665(4) 0.4436(4) 0.37831(18)
N2 N 0.3217(5) 0.2337(5) 0.0177(2)
N3 N 0.2419(9) 0.7224(11) 0.9794(3)
N4 N 0.2179(4) 0.5567(4) 0.62399(18)
O1 O 0.4987(3) 0.6474(4) 0.51934(16)
O2 O 0.2879(3) 0.7070(3) 0.47367(15)
O3 O 0.3256(4) 0.9562(3) 0.41594(16)
O4 O 0.3304(6) 0.7140(6) 0.1127(2)
H29 H 0.3151 0.7090 0.0703
O5 O 0.2039(6) 0.9490(6) 0.1003(2)
O6 O -0.0888(5) 0.7063(5) 0.0978(2)
O7 O -0.3246(4) 0.8601(4) 0.11197(18)
H30 H -0.3196 0.8282 0.0701
O8 O -0.1879(4) 0.9656(3) 0.41365(15)
O9 O -0.1993(3) 0.7046(3) 0.45783(15)
O10 O -0.0064(3) 0.6596(3) 0.51552(16)
Cd1A Cd 0.75473(4) 0.50208(4) 0.499220(16)
Cd1A_2 Cd -0.24527(4) 0.50208(4) 0.499220(16)
O1A O 0.5013(3) 0.3526(4) 0.48066(16)
O9A O 0.1993(3) 0.2954(3) 0.54217(15)
loop_
_geom_bond_atom_site_label_1
_geom_bond_atom_site_label_2
_geom_bond_site_symmetry_1
_geom_bond_site_symmetry_2
C1 H1 1_555 1_555
C2 C1 1_555 1_555
H2 C2 1_555 1_555
C3 C2 1_555 1_555
C4 C3 1_555 1_555
H3 C4 1_555 1_555
C5 C4 1_555 1_555
H4 C5 1_555 1_555
C6 C3 1_555 1_555
C7 C6 1_555 1_555
H5 C7 1_555 1_555
C8 C7 1_555 1_555
H6 C8 1_555 1_555
C9 H7 1_555 1_555
C10 C6 1_555 1_555
H8 C10 1_555 1_555
C11 C12 1_555 1_555
C12 H9 1_555 1_555
C13 C12 1_555 1_555
H10 C13 1_555 1_555
C14 C13 1_555 1_555
C15 C14 1_555 1_555
H11 C15 1_555 1_555
C16 C14 1_555 1_555
C17 H12 1_555 1_555
H13 C17 1_555 1_555
C18 C17 1_555 1_555
C19 C20 1_555 1_555
C20 H14 1_555 1_555
C21 C20 1_555 1_555
H15 C21 1_555 1_555
C22 C21 1_555 1_555
C23 C22 1_555 1_555
H16 C23 1_555 1_555
C24 C19 1_555 1_555
H17 C24 1_555 1_555
C25 C19 1_555 1_555
C26 H18 1_555 1_555
H19 C26 1_555 1_555
C27 C26 1_555 1_555
C28 H20 1_555 1_555
C29 C28 1_555 1_555
H21 C29 1_555 1_555
C30 C29 1_555 1_555
C31 C30 1_555 1_555
H22 C31 1_555 1_555
C32 C11 1_555 1_555
H23 C32 1_555 1_555
C33 C31 1_555 1_555
H24 C33 1_555 1_555
C34 H25 1_555 1_555
C35 C34 1_555 1_555
H26 C35 1_555 1_555
C36 C30 1_555 1_555
C37 C36 1_555 1_555
H27 C37 1_555 1_555
C38 C37 1_555 1_555
H28 C38 1_555 1_555
Cd1 N1 1_555 1_555
N1 C28 1_555 1_555
N2 C34 1_555 1_555
N3 C8 1_555 1_555
N4 C1 1_555 1_555
O1 C18 1_555 1_555
O2 C18 1_555 1_555
O3 C11 1_555 1_555
O4 C16 1_555 1_555
H29 O4 1_555 1_555
O5 C16 1_555 1_555
O6 C25 1_555 1_555
O7 C25 1_555 1_555
H30 O7 1_555 1_555
O8 C22 1_555 1_555
O9 C27 1_555 1_555
O10 C27 1_555 1_555
Cd1A O1 1_555 1_555
Cd1A_2 O9 1_555 1_555
O1A Cd1 1_555 1_555
O9A Cd1 1_555 1_555
C5 N4 1_555 1_555
C9 C10 1_555 1_555
C9 N3 1_555 1_555
C15 C32 1_555 1_555
C17 O3 1_555 1_555
C23 C24 1_555 1_555
C26 O8 1_555 1_555
C33 N1 1_555 1_555
C35 C36 1_555 1_555
C38 N2 1_555 1_555
Cd1 N4 1_555 1_555
Cd1 O2 1_555 1_555
Cd1 O10 1_555 1_555

#END
