
#######################################################################
#
#                 Cambridge Crystallographic Data Centre
#                                CCDC 
#
#######################################################################
#
# If this CIF has been generated from an entry in the Cambridge 
# Structural Database, then it will include bibliographic, chemical, 
# crystal, experimental, refinement or atomic coordinate data resulting 
# from the CCDC's data processing and validation procedures.
#
#######################################################################

data_UZAVOH
_symmetry_cell_setting           triclinic
_symmetry_space_group_name_H-M   'P -1'
_symmetry_Int_Tables_number      2
_space_group_name_Hall           '-P 1'
loop_
_symmetry_equiv_pos_site_id
_symmetry_equiv_pos_as_xyz
1 x,y,z
2 -x,-y,-z
_cell_length_a                   7.2687(15)
_cell_length_b                   9.1441(18)
_cell_length_c                   13.820(3)
_cell_angle_alpha                108.74(3)
_cell_angle_beta                 94.13(3)
_cell_angle_gamma                96.64(3)
_cell_volume                     858.187
loop_
_atom_site_label
_atom_site_type_symbol
_atom_site_fract_x
_atom_site_fract_y
_atom_site_fract_z
Cu1 Cu 0.5000 0.0000 0.0000
Cu2 Cu 0.5000 0.5000 0.5000
O1 O 0.3140(11) -0.1267(11) 0.0532(7)
O2 O 0.6783(11) -0.1375(9) -0.0063(6)
O3 O 0.3067(12) 0.3286(11) 0.5094(7)
O4 O 0.6829(11) 0.4598(10) 0.5885(6)
N1 N 0.3829(13) 0.2602(12) 0.2330(7)
H1 H 0.3264 0.2117 0.1723
H2 H 0.3257 0.3192 0.2792
N2 N 0.6406(13) 0.1513(12) 0.1816(7)
N3 N 0.6399(14) 0.3235(12) 0.3534(7)
C1 C 0.363(2) -0.2301(16) 0.0866(10)
H3 H 0.2693 -0.2797 0.1128
C2 C 0.5417(18) -0.2847(14) 0.0910(9)
C3 C 0.6825(17) -0.2374(14) 0.0433(8)
C4 C 0.8492(18) -0.3033(15) 0.0497(10)
H4 H 0.9517 -0.2739 0.0199
C5 C 0.859(2) -0.4101(16) 0.0998(11)
H5 H 0.9690 -0.4517 0.1032
C6 C 0.716(2) -0.4566(16) 0.1437(11)
H6 H 0.7268 -0.5314 0.1754
C7 C 0.5523(19) -0.3937(15) 0.1422(10)
H7 H 0.4526 -0.4228 0.1740
C8 C 0.348(2) 0.2343(16) 0.5523(11)
H8 H 0.2494 0.1613 0.5542
C9 C 0.524(2) 0.2209(15) 0.5986(10)
C10 C 0.683(2) 0.3312(14) 0.6113(9)
C11 C 0.848(2) 0.2997(16) 0.6533(10)
H9 H 0.9558 0.3709 0.6633
C12 C 0.859(2) 0.1709(18) 0.6802(11)
H10 H 0.9731 0.1543 0.7066
C13 C 0.701(3) 0.0640(19) 0.6683(12)
H11 H 0.7074 -0.0262 0.6849
C14 C 0.535(2) 0.0940(16) 0.6314(11)
H12 H 0.4260 0.0272 0.6284
C15 C 0.5575(15) 0.2439(13) 0.2555(9)
C16 C 0.8210(18) 0.1382(15) 0.2030(12)
H13 H 0.8840 0.0777 0.1522
C17 C 0.9142(18) 0.2171(18) 0.3036(11)
H14 H 1.0370 0.2073 0.3210
C18 C 0.8168(18) 0.3068(15) 0.3727(10)
H15 H 0.8773 0.3607 0.4384
Cu2_2 Cu 0.5000 -0.5000 -0.5000
O1A O 0.6860(11) 0.1267(11) -0.0532(7)
O2A O 0.3217(11) 0.1375(9) 0.0063(6)
O3A O 0.6933(12) 0.6714(11) 0.4906(7)
O4A O 0.3171(11) 0.5402(10) 0.4115(6)
N1A N 0.6171(13) -0.2602(12) -0.2330(7)
H1A H 0.6736 -0.2117 -0.1723
H2A H 0.6743 -0.3192 -0.2792
N2A N 0.3594(13) -0.1513(12) -0.1816(7)
N3A N 0.3601(14) -0.3235(12) -0.3534(7)
N3A_2 N 0.3601(14) 0.6765(12) 0.6466(7)
C1A C 0.637(2) 0.2301(16) -0.0866(10)
H3A H 0.7307 0.2797 -0.1128
C2A C 0.4583(18) 0.2847(14) -0.0910(9)
C3A C 0.3175(17) 0.2374(14) -0.0433(8)
C4A C 0.1508(18) 0.3033(15) -0.0497(10)
H4A H 0.0483 0.2739 -0.0199
C5A C 0.141(2) 0.4101(16) -0.0998(11)
H5A H 0.0310 0.4517 -0.1032
C6A C 0.284(2) 0.4566(16) -0.1437(11)
H6A H 0.2732 0.5314 -0.1754
C7A C 0.4477(19) 0.3937(15) -0.1422(10)
H7A H 0.5474 0.4228 -0.1740
C8A C 0.652(2) 0.7657(16) 0.4477(11)
H8A H 0.7506 0.8387 0.4458
C9A C 0.476(2) 0.7791(15) 0.4014(10)
C10A C 0.317(2) 0.6688(14) 0.3887(9)
C11A C 0.152(2) 0.7003(16) 0.3467(10)
H9A H 0.0442 0.6291 0.3367
C12A C 0.141(2) 0.8291(18) 0.3198(11)
H10A H 0.0269 0.8457 0.2934
C13A C 0.299(3) 0.9360(19) 0.3317(12)
H11A H 0.2926 1.0262 0.3151
C14A C 0.465(2) 0.9060(16) 0.3686(11)
H12A H 0.5740 0.9728 0.3716
C15A C 0.4425(15) -0.2439(13) -0.2555(9)
C16A C 0.1790(18) -0.1382(15) -0.2030(12)
H13A H 0.1160 -0.0777 -0.1522
C17A C 0.0858(18) -0.2171(18) -0.3036(11)
H14A H -0.0370 -0.2073 -0.3210
C18A C 0.1832(18) -0.3068(15) -0.3727(10)
H15A H 0.1227 -0.3607 -0.4384
loop_
_geom_bond_atom_site_label_1
_geom_bond_atom_site_label_2
_geom_bond_site_symmetry_1
_geom_bond_site_symmetry_2
Cu1 O1 1_555 1_555
Cu2 O3 1_555 1_555
O1 C1 1_555 1_555
O2 Cu1 1_555 1_555
O3 C8 1_555 1_555
O4 Cu2 1_555 1_555
N1 H1 1_555 1_555
H2 N1 1_555 1_555
N2 Cu1 1_555 1_555
N3 Cu2 1_555 1_555
C1 H3 1_555 1_555
C2 C1 1_555 1_555
C3 O2 1_555 1_555
C4 C3 1_555 1_555
H4 C4 1_555 1_555
C5 C4 1_555 1_555
H5 C5 1_555 1_555
C6 C5 1_555 1_555
H6 C6 1_555 1_555
C7 C2 1_555 1_555
H7 C7 1_555 1_555
C8 H8 1_555 1_555
C9 C8 1_555 1_555
C10 O4 1_555 1_555
C11 C10 1_555 1_555
H9 C11 1_555 1_555
C12 C11 1_555 1_555
H10 C12 1_555 1_555
C13 C12 1_555 1_555
H11 C13 1_555 1_555
C14 C9 1_555 1_555
H12 C14 1_555 1_555
C15 N1 1_555 1_555
C16 N2 1_555 1_555
H13 C16 1_555 1_555
C17 C16 1_555 1_555
H14 C17 1_555 1_555
C18 N3 1_555 1_555
H15 C18 1_555 1_555
Cu2_2 N3A 1_555 1_555
O1A Cu1 1_555 1_555
O2A Cu1 1_555 1_555
O3A Cu2 1_555 1_555
O4A Cu2 1_555 1_555
N1A H1A 1_555 1_555
H2A N1A 1_555 1_555
N2A Cu1 1_555 1_555
N3A C15A 1_555 1_555
N3A_2 Cu2 1_555 1_555
C1A O1A 1_555 1_555
H3A C1A 1_555 1_555
C2A C1A 1_555 1_555
C3A O2A 1_555 1_555
C4A C3A 1_555 1_555
H4A C4A 1_555 1_555
C5A C4A 1_555 1_555
H5A C5A 1_555 1_555
C6A C5A 1_555 1_555
H6A C6A 1_555 1_555
C7A C2A 1_555 1_555
H7A C7A 1_555 1_555
C8A O3A 1_555 1_555
H8A C8A 1_555 1_555
C9A C8A 1_555 1_555
C10A O4A 1_555 1_555
C11A C10A 1_555 1_555
H9A C11A 1_555 1_555
C12A C11A 1_555 1_555
H10A C12A 1_555 1_555
C13A C12A 1_555 1_555
H11A C13A 1_555 1_555
C14A C9A 1_555 1_555
H12A C14A 1_555 1_555
C15A N1A 1_555 1_555
C16A N2A 1_555 1_555
H13A C16A 1_555 1_555
C17A C16A 1_555 1_555
H14A C17A 1_555 1_555
C18A N3A 1_555 1_555
H15A C18A 1_555 1_555
N2 C15 1_555 1_555
N3 C15 1_555 1_555
C2 C3 1_555 1_555
C6 C7 1_555 1_555
C9 C10 1_555 1_555
C13 C14 1_555 1_555
C17 C18 1_555 1_555
N2A C15A 1_555 1_555
C2A C3A 1_555 1_555
C6A C7A 1_555 1_555
C9A C10A 1_555 1_555
C13A C14A 1_555 1_555
C17A C18A 1_555 1_555

#END
