
#######################################################################
#
#                 Cambridge Crystallographic Data Centre
#                                CCDC 
#
#######################################################################
#
# If this CIF has been generated from an entry in the Cambridge 
# Structural Database, then it will include bibliographic, chemical, 
# crystal, experimental, refinement or atomic coordinate data resulting 
# from the CCDC's data processing and validation procedures.
#
#######################################################################

data_UZAYEA
_symmetry_cell_setting           monoclinic
_symmetry_space_group_name_H-M   'P 21/c'
_symmetry_Int_Tables_number      14
_space_group_name_Hall           '-P 2ybc'
loop_
_symmetry_equiv_pos_site_id
_symmetry_equiv_pos_as_xyz
1 x,y,z
2 -x,1/2+y,1/2-z
3 -x,-y,-z
4 x,1/2-y,1/2+z
_cell_length_a                   11.5621(11)
_cell_length_b                   15.6111(16)
_cell_length_c                   18.7523(15)
_cell_angle_alpha                90
_cell_angle_beta                 113.141(5)
_cell_angle_gamma                90
_cell_volume                     3112.4
loop_
_atom_site_label
_atom_site_type_symbol
_atom_site_fract_x
_atom_site_fract_y
_atom_site_fract_z
Cd1 Cd 0.59968(4) -0.25678(3) -0.15777(3)
Cd2 Cd 0.13346(4) -0.28510(3) -0.29539(3)
C1 C 0.3170(5) -0.3264(4) -0.0484(3)
C2 C 0.3352(6) -0.4136(4) -0.0357(4)
H1 H 0.3037 -0.4515 -0.0772
C3 C 0.4000(7) -0.4447(4) 0.0385(4)
H2 H 0.4113 -0.5033 0.0472
C4 C 0.4471(6) -0.3889(4) 0.0986(4)
H3 H 0.4892 -0.4099 0.1486
C5 C 0.4337(5) -0.3018(4) 0.0871(3)
C6 C 0.3660(5) -0.2688(4) 0.0128(3)
C7 C 0.3429(5) -0.1753(4) -0.0016(3)
C8 C 0.3914(5) -0.1291(4) -0.0470(3)
C9 C 0.3661(6) -0.0423(4) -0.0603(4)
H4 H 0.3993 -0.0123 -0.0907
C10 C 0.2925(7) -0.0004(5) -0.0289(4)
H5 H 0.2752 0.0577 -0.0383
C11 C 0.2448(6) -0.0453(5) 0.0164(4)
H6 H 0.1958 -0.0169 0.0382
C12 C 0.2682(5) -0.1318(4) 0.0305(3)
C13 C 0.2426(6) -0.2976(4) -0.1305(3)
C14 C 0.4954(5) -0.2441(4) 0.1560(3)
C15 C 0.4740(5) -0.1695(4) -0.0836(3)
C16 C 0.2093(6) -0.1767(5) 0.0793(4)
C17 C -0.0301(7) -0.4545(5) -0.2466(4)
H7 H 0.0347 -0.4923 -0.2200
C18 C -0.1502(7) -0.4643(5) -0.2550(4)
H8 H -0.1837 -0.5098 -0.2373
C19 C -0.1284(6) -0.3471(4) -0.3103(4)
C20 C -0.1495(6) -0.2674(4) -0.3518(4)
C21 C -0.2328(7) -0.1590(5) -0.4283(5)
H9 H -0.2903 -0.1215 -0.4627
C22 C -0.1068(7) -0.1514(5) -0.3979(4)
H10 H -0.0619 -0.1066 -0.4077
C23 C 0.7827(7) -0.0799(5) -0.1633(5)
H11 H 0.7222 -0.0370 -0.1811
C24 C 0.9066(8) -0.0709(6) -0.1476(5)
H12 H 0.9467 -0.0208 -0.1521
C25 C 0.8701(6) -0.2021(5) -0.1244(4)
C26 C 0.8831(6) -0.2908(5) -0.1046(4)
C27 C 0.9573(8) -0.4160(5) -0.0624(5)
H13 H 1.0124 -0.4613 -0.0408
C28 C 0.8309(7) -0.4191(5) -0.0916(4)
H14 H 0.7829 -0.4676 -0.0939
N1 N -0.0165(5) -0.3823(4) -0.2821(3)
N2 N -0.0548(5) -0.2202(4) -0.3503(3)
N3 N -0.2126(5) -0.3945(4) -0.2944(3)
H15 H -0.2908 -0.3829 -0.3067
N4 N -0.2596(5) -0.2324(4) -0.3986(3)
H16 H -0.3333 -0.2527 -0.4079
N5 N 0.7613(5) -0.1635(4) -0.1482(3)
N6 N 0.7846(5) -0.3394(4) -0.1175(3)
N7 N 0.9615(6) -0.1482(4) -0.1242(4)
H17 H 1.0395 -0.1605 -0.1116
N8 N 0.9884(5) -0.3351(4) -0.0704(4)
H18 H 1.0636 -0.3152 -0.0554
O1 O 0.1576(4) -0.2440(3) -0.1462(3)
O2 O 0.2711(4) -0.3329(3) -0.1824(2)
O3 O 0.4869(5) -0.2696(3) 0.2178(2)
O4 O 0.5527(4) -0.1798(3) 0.1489(3)
O5 O 0.5483(4) -0.2283(3) -0.0499(2)
O6 O 0.4637(4) -0.1426(3) -0.1488(2)
O7 O 0.2130(5) -0.1360(3) 0.1378(3)
O8 O 0.1600(5) -0.2474(4) 0.0599(3)
O9 O 0.5037(4) -0.3863(3) -0.1613(2)
H19 H 0.4241 -0.3814 -0.1782
H20 H 0.5047 -0.4077 -0.1998
O10 O 0.2454(4) -0.1596(3) -0.2882(3)
H21 H 0.3236 -0.1600 -0.2784
H22 H 0.2510 -0.1408 -0.3293
Cd1C Cd 0.59968(4) -0.24322(3) 0.34223(3)
Cd2C Cd 0.13346(4) -0.21490(3) 0.20461(3)
O3C O 0.4869(5) -0.2304(3) -0.2822(2)
O7C O 0.2130(5) -0.3640(3) -0.3622(3)
O11 O 0.5196(5) -0.4797(3) -0.2837(3)
H23 H 0.5235 -0.5280 -0.3035
H24 H 0.5286 -0.4327 -0.3038
loop_
_geom_bond_atom_site_label_1
_geom_bond_atom_site_label_2
_geom_bond_site_symmetry_1
_geom_bond_site_symmetry_2
Cd1 N5 1_555 1_555
Cd2 N1 1_555 1_555
C1 C2 1_555 1_555
C2 H1 1_555 1_555
C3 C2 1_555 1_555
H2 C3 1_555 1_555
C4 C3 1_555 1_555
H3 C4 1_555 1_555
C5 C4 1_555 1_555
C6 C1 1_555 1_555
C7 C6 1_555 1_555
C8 C7 1_555 1_555
C9 C8 1_555 1_555
H4 C9 1_555 1_555
C10 C9 1_555 1_555
H5 C10 1_555 1_555
C11 C10 1_555 1_555
H6 C11 1_555 1_555
C12 C7 1_555 1_555
C13 C1 1_555 1_555
C14 C5 1_555 1_555
C15 C8 1_555 1_555
C16 C12 1_555 1_555
C17 H7 1_555 1_555
C18 C17 1_555 1_555
H8 C18 1_555 1_555
C19 C20 1_555 1_555
C20 N2 1_555 1_555
C21 H9 1_555 1_555
C22 C21 1_555 1_555
H10 C22 1_555 1_555
C23 H11 1_555 1_555
C24 C23 1_555 1_555
H12 C24 1_555 1_555
C25 C26 1_555 1_555
C26 N6 1_555 1_555
C27 H13 1_555 1_555
C28 C27 1_555 1_555
H14 C28 1_555 1_555
N1 C17 1_555 1_555
N2 Cd2 1_555 1_555
N3 C18 1_555 1_555
H15 N3 1_555 1_555
N4 C20 1_555 1_555
H16 N4 1_555 1_555
N5 C23 1_555 1_555
N6 Cd1 1_555 1_555
N7 C24 1_555 1_555
H17 N7 1_555 1_555
N8 C26 1_555 1_555
H18 N8 1_555 1_555
O1 Cd2 1_555 1_555
O2 Cd2 1_555 1_555
O3 C14 1_555 1_555
O4 C14 1_555 1_555
O5 Cd1 1_555 1_555
O6 Cd1 1_555 1_555
O7 C16 1_555 1_555
O8 C16 1_555 1_555
O9 Cd1 1_555 1_555
H19 O9 1_555 1_555
H20 O9 1_555 1_555
O10 Cd2 1_555 1_555
H21 O10 1_555 1_555
H22 O10 1_555 1_555
O11 H23 1_555 1_555
H24 O11 1_555 1_555
Cd1C O3 1_555 1_555
Cd2C O7 1_555 1_555
O3C Cd1 1_555 1_555
O7C Cd2 1_555 1_555
C5 C6 1_555 1_555
C11 C12 1_555 1_555
C13 O1 1_555 1_555
C13 O2 1_555 1_555
C15 O5 1_555 1_555
C15 O6 1_555 1_555
C19 N1 1_555 1_555
C19 N3 1_555 1_555
C21 N4 1_555 1_555
C22 N2 1_555 1_555
C25 N5 1_555 1_555
C25 N7 1_555 1_555
C27 N8 1_555 1_555
C28 N6 1_555 1_555

#END
