
#######################################################################
#
#                 Cambridge Crystallographic Data Centre
#                                CCDC 
#
#######################################################################
#
# If this CIF has been generated from an entry in the Cambridge 
# Structural Database, then it will include bibliographic, chemical, 
# crystal, experimental, refinement or atomic coordinate data resulting 
# from the CCDC's data processing and validation procedures.
#
#######################################################################

data_UZEGIQ
_symmetry_cell_setting           monoclinic
_symmetry_space_group_name_H-M   'P 2/c'
_symmetry_Int_Tables_number      13
_space_group_name_Hall           '-P 2yc'
loop_
_symmetry_equiv_pos_site_id
_symmetry_equiv_pos_as_xyz
1 x,y,z
2 -x,y,1/2-z
3 -x,-y,-z
4 x,-y,1/2+z
_cell_length_a                   10.749(2)
_cell_length_b                   17.039(3)
_cell_length_c                   16.569(6)
_cell_angle_alpha                90
_cell_angle_beta                 114.36(2)
_cell_angle_gamma                90
_cell_volume                     2764.48
loop_
_atom_site_label
_atom_site_type_symbol
_atom_site_fract_x
_atom_site_fract_y
_atom_site_fract_z
Cd1 Cd -0.60714(3) -0.246144(16) 0.46670(2)
O1 O -0.7021(4) -0.2293(2) 0.5688(3)
O2 O -0.7802(4) -0.3276(2) 0.4779(2)
O3 O -0.7875(4) -0.1711(2) 0.3549(2)
O4 O -0.6755(4) -0.2608(2) 0.3166(2)
N1 N -0.4590(3) -0.1417(2) 0.5118(2)
N2 N -0.3337(3) -0.0365(2) 0.5163(2)
N3 N -0.4513(4) -0.3465(2) 0.5099(2)
N4 N -0.3380(3) -0.4545(2) 0.5740(2)
C1 C -0.4673(5) -0.0945(3) 0.3668(3)
H1 H -0.5176 -0.1420 0.3440
H2 H -0.3887 -0.0933 0.3532
H3 H -0.5245 -0.0501 0.3402
C2 C -0.4223(4) -0.0917(2) 0.4648(3)
C3 C -0.3891(4) -0.1186(2) 0.6000(3)
C4 C -0.3086(4) -0.0532(2) 0.6036(3)
C5 C -0.2232(5) -0.0178(3) 0.6826(3)
H4 H -0.1689 0.0251 0.6840
C6 C -0.2235(5) -0.0499(3) 0.7588(3)
H5 H -0.1682 -0.0278 0.8132
C7 C -0.3045(6) -0.1145(3) 0.7567(3)
H6 H -0.3016 -0.1346 0.8096
C8 C -0.3892(5) -0.1494(3) 0.6773(3)
H7 H -0.4441 -0.1920 0.6761
C9 C -0.2739(4) 0.0290(2) 0.4885(3)
H8 H -0.2717 0.0746 0.5241
H9 H -0.3316 0.0415 0.4272
C10 C -0.1301(4) 0.0122(2) 0.4970(2)
C11 C -0.0828(4) -0.0630(2) 0.4960(3)
H10 H -0.1379 -0.1059 0.4934
C12 C -0.0469(4) 0.0748(2) 0.5011(3)
H11 H -0.0778 0.1257 0.5020
C13 C -0.7682(5) -0.2097(3) 0.2967(3)
C14 C -0.8572(6) -0.1949(4) 0.2000(3)
H12 H -0.9508 -0.2055 0.1884
H13 H -0.8293 -0.2288 0.1641
H14 H -0.8481 -0.1412 0.1859
C15 C -0.7831(5) -0.2856(3) 0.5381(4)
C16 C -0.8849(8) -0.3039(5) 0.5763(6)
H15 H -0.8390 -0.3285 0.6331
H16 H -0.9536 -0.3387 0.5372
H17 H -0.9271 -0.2561 0.5830
C17 C -0.4221(4) -0.3959(3) 0.5765(3)
C18 C -0.4706(5) -0.3901(3) 0.6481(3)
H18 H -0.5253 -0.3437 0.6396
H19 H -0.3935 -0.3873 0.7044
H20 H -0.5243 -0.4355 0.6467
C19 C -0.3081(4) -0.4413(2) 0.5013(3)
C20 C -0.3808(4) -0.3738(2) 0.4610(3)
C21 C -0.3743(5) -0.3453(3) 0.3839(3)
H21 H -0.4232 -0.3010 0.3552
C22 C -0.2925(6) -0.3854(3) 0.3516(4)
H22 H -0.2868 -0.3677 0.3002
C23 C -0.2187(6) -0.4513(3) 0.3938(4)
H23 H -0.1631 -0.4759 0.3709
C24 C -0.2260(5) -0.4813(3) 0.4690(3)
H24 H -0.1781 -0.5262 0.4967
C25 C -0.2892(4) -0.5227(3) 0.6328(3)
H25 H -0.3069 -0.5699 0.5972
H26 H -0.3400 -0.5264 0.6693
C26 C -0.1381(4) -0.5182(2) 0.6923(3)
C27 C -0.0687(5) -0.4482(3) 0.7213(3)
H27 H -0.1144 -0.4009 0.7023
C28 C -0.0677(4) -0.5878(2) 0.7213(3)
H28 H -0.1127 -0.6352 0.7017
Cd1A Cd 0.60714(3) -0.246144(16) 1.03330(2)
Cd1B Cd 0.60714(3) 0.246144(16) 0.53330(2)
O1A O 0.7021(4) -0.2293(2) 0.9312(3)
O2A O 0.7802(4) -0.3276(2) 1.0221(2)
O3A O 0.7875(4) -0.1711(2) 1.1451(2)
O4A O 0.6755(4) -0.2608(2) 1.1834(2)
N1B N 0.4590(3) 0.1417(2) 0.4882(2)
N1A N 0.4590(3) -0.1417(2) 0.9882(2)
N2B N 0.3337(3) 0.0365(2) 0.4837(2)
N3A N 0.4513(4) -0.3465(2) 0.9901(2)
N4A N 0.3380(3) -0.4545(2) 0.9260(2)
C1B C 0.4673(5) 0.0945(3) 0.6332(3)
H1B H 0.5176 0.1420 0.6560
H2B H 0.3887 0.0933 0.6468
H3B H 0.5245 0.0501 0.6598
C2B C 0.4223(4) 0.0917(2) 0.5352(3)
C3B C 0.3891(4) 0.1186(2) 0.4000(3)
C4B C 0.3086(4) 0.0532(2) 0.3964(3)
C5B C 0.2232(5) 0.0178(3) 0.3174(3)
H4B H 0.1689 -0.0251 0.3160
C6B C 0.2235(5) 0.0499(3) 0.2412(3)
H5B H 0.1682 0.0278 0.1868
C7B C 0.3045(6) 0.1145(3) 0.2433(3)
H6B H 0.3016 0.1346 0.1904
C8B C 0.3892(5) 0.1494(3) 0.3227(3)
H7B H 0.4441 0.1920 0.3239
C9B C 0.2739(4) -0.0290(2) 0.5115(3)
H8B H 0.2717 -0.0746 0.4759
H9B H 0.3316 -0.0415 0.5728
C10B C 0.1301(4) -0.0122(2) 0.5030(2)
C11B C 0.0828(4) 0.0630(2) 0.5040(3)
H10B H 0.1379 0.1059 0.5066
C12B C 0.0469(4) -0.0748(2) 0.4989(3)
H11B H 0.0778 -0.1257 0.4980
C13A C 0.7682(5) -0.2097(3) 1.2033(3)
C14A C 0.8572(6) -0.1949(4) 1.3000(3)
H12A H 0.9508 -0.2055 1.3116
H13A H 0.8293 -0.2288 1.3359
H14A H 0.8481 -0.1412 1.3141
C15A C 0.7831(5) -0.2856(3) 0.9619(4)
C16A C 0.8849(8) -0.3039(5) 0.9237(6)
H15A H 0.8390 -0.3285 0.8669
H16A H 0.9536 -0.3387 0.9628
H17A H 0.9271 -0.2561 0.9170
C17A C 0.4221(4) -0.3959(3) 0.9235(3)
C18A C 0.4706(5) -0.3901(3) 0.8519(3)
H18A H 0.5253 -0.3437 0.8604
H19A H 0.3935 -0.3873 0.7956
H20A H 0.5243 -0.4355 0.8533
C19A C 0.3081(4) -0.4413(2) 0.9987(3)
C20A C 0.3808(4) -0.3738(2) 1.0390(3)
C21A C 0.3743(5) -0.3453(3) 1.1161(3)
H21A H 0.4232 -0.3010 1.1448
C22A C 0.2925(6) -0.3854(3) 1.1484(4)
H22A H 0.2868 -0.3677 1.1998
C23A C 0.2187(6) -0.4513(3) 1.1062(4)
H23A H 0.1631 -0.4759 1.1291
C24A C 0.2260(5) -0.4813(3) 1.0310(3)
H24A H 0.1781 -0.5262 1.0033
C25A C 0.2892(4) -0.5227(3) 0.8672(3)
H25A H 0.3069 -0.5699 0.9028
H26A H 0.3400 -0.5264 0.8307
C26A C 0.1381(4) -0.5182(2) 0.8077(3)
C27A C 0.0687(5) -0.4482(3) 0.7787(3)
H27A H 0.1144 -0.4009 0.7977
C28A C 0.0677(4) -0.5878(2) 0.7787(3)
H28A H 0.1127 -0.6352 0.7983
loop_
_geom_bond_atom_site_label_1
_geom_bond_atom_site_label_2
_geom_bond_site_symmetry_1
_geom_bond_site_symmetry_2
Cd1 O1 1_555 1_555
O1 C15 1_555 1_555
O2 Cd1 1_555 1_555
O3 Cd1 1_555 1_555
O4 Cd1 1_555 1_555
N1 Cd1 1_555 1_555
N2 C2 1_555 1_555
N3 Cd1 1_555 1_555
N4 C17 1_555 1_555
C1 H1 1_555 1_555
H2 C1 1_555 1_555
H3 C1 1_555 1_555
C2 N1 1_555 1_555
C3 N1 1_555 1_555
C4 N2 1_555 1_555
C5 C4 1_555 1_555
H4 C5 1_555 1_555
C6 C5 1_555 1_555
H5 C6 1_555 1_555
C7 C6 1_555 1_555
H6 C7 1_555 1_555
C8 C3 1_555 1_555
H7 C8 1_555 1_555
C9 N2 1_555 1_555
H8 C9 1_555 1_555
H9 C9 1_555 1_555
C10 C9 1_555 1_555
C11 C10 1_555 1_555
H10 C11 1_555 1_555
C12 C10 1_555 1_555
H11 C12 1_555 1_555
C13 O3 1_555 1_555
C14 C13 1_555 1_555
H12 C14 1_555 1_555
H13 C14 1_555 1_555
H14 C14 1_555 1_555
C15 O2 1_555 1_555
C16 C15 1_555 1_555
H15 C16 1_555 1_555
H16 C16 1_555 1_555
H17 C16 1_555 1_555
C17 N3 1_555 1_555
C18 C17 1_555 1_555
H18 C18 1_555 1_555
H19 C18 1_555 1_555
H20 C18 1_555 1_555
C19 N4 1_555 1_555
C20 N3 1_555 1_555
C21 C20 1_555 1_555
H21 C21 1_555 1_555
C22 C21 1_555 1_555
H22 C22 1_555 1_555
C23 C22 1_555 1_555
H23 C23 1_555 1_555
C24 C19 1_555 1_555
H24 C24 1_555 1_555
C25 N4 1_555 1_555
H25 C25 1_555 1_555
H26 C25 1_555 1_555
C26 C25 1_555 1_555
C27 C26 1_555 1_555
H27 C27 1_555 1_555
C28 C26 1_555 1_555
H28 C28 1_555 1_555
Cd1A O1A 1_555 1_555
Cd1B N1B 1_555 1_555
O1A C15A 1_555 1_555
O2A Cd1A 1_555 1_555
O3A Cd1A 1_555 1_555
O4A Cd1A 1_555 1_555
N1B C2B 1_555 1_555
N1A Cd1A 1_555 1_555
N2B C2B 1_555 1_555
N3A Cd1A 1_555 1_555
N4A C17A 1_555 1_555
C1B H1B 1_555 1_555
H2B C1B 1_555 1_555
H3B C1B 1_555 1_555
C2B C1B 1_555 1_555
C3B N1B 1_555 1_555
C4B N2B 1_555 1_555
C5B C4B 1_555 1_555
H4B C5B 1_555 1_555
C6B C5B 1_555 1_555
H5B C6B 1_555 1_555
C7B C6B 1_555 1_555
H6B C7B 1_555 1_555
C8B C3B 1_555 1_555
H7B C8B 1_555 1_555
C9B N2B 1_555 1_555
H8B C9B 1_555 1_555
H9B C9B 1_555 1_555
C10B C9B 1_555 1_555
C11B C12 1_555 1_555
H10B C11B 1_555 1_555
C12B C11 1_555 1_555
H11B C12B 1_555 1_555
C13A O3A 1_555 1_555
C14A C13A 1_555 1_555
H12A C14A 1_555 1_555
H13A C14A 1_555 1_555
H14A C14A 1_555 1_555
C15A O2A 1_555 1_555
C16A C15A 1_555 1_555
H15A C16A 1_555 1_555
H16A C16A 1_555 1_555
H17A C16A 1_555 1_555
C17A N3A 1_555 1_555
C18A C17A 1_555 1_555
H18A C18A 1_555 1_555
H19A C18A 1_555 1_555
H20A C18A 1_555 1_555
C19A N4A 1_555 1_555
C20A N3A 1_555 1_555
C21A C20A 1_555 1_555
H21A C21A 1_555 1_555
C22A C21A 1_555 1_555
H22A C22A 1_555 1_555
C23A C22A 1_555 1_555
H23A C23A 1_555 1_555
C24A C19A 1_555 1_555
H24A C24A 1_555 1_555
C25A N4A 1_555 1_555
H25A C25A 1_555 1_555
H26A C25A 1_555 1_555
C26A C25A 1_555 1_555
C27A C27 1_555 1_555
H27A C27A 1_555 1_555
C28A C28 1_555 1_555
H28A C28A 1_555 1_555
O4 C13 1_555 1_555
C1 C2 1_555 1_555
C3 C4 1_555 1_555
C7 C8 1_555 1_555
C19 C20 1_555 1_555
C23 C24 1_555 1_555
O4A C13A 1_555 1_555
C3B C4B 1_555 1_555
C7B C8B 1_555 1_555
C10B C11B 1_555 1_555
C10B C12B 1_555 1_555
C19A C20A 1_555 1_555
C23A C24A 1_555 1_555
C26A C27A 1_555 1_555
C26A C28A 1_555 1_555

#END
