
#######################################################################
#
#                 Cambridge Crystallographic Data Centre
#                                CCDC 
#
#######################################################################
#
# If this CIF has been generated from an entry in the Cambridge 
# Structural Database, then it will include bibliographic, chemical, 
# crystal, experimental, refinement or atomic coordinate data resulting 
# from the CCDC's data processing and validation procedures.
#
#######################################################################

data_UZEHUD
_symmetry_cell_setting           monoclinic
_symmetry_space_group_name_H-M   'P 21/c'
_symmetry_Int_Tables_number      14
_space_group_name_Hall           '-P 2ybc'
loop_
_symmetry_equiv_pos_site_id
_symmetry_equiv_pos_as_xyz
1 x,y,z
2 -x,1/2+y,1/2-z
3 -x,-y,-z
4 x,1/2-y,1/2+z
_cell_length_a                   11.0185(15)
_cell_length_b                   16.104(2)
_cell_length_c                   7.0766(9)
_cell_angle_alpha                90
_cell_angle_beta                 94.003(2)
_cell_angle_gamma                90
_cell_volume                     1252.62
loop_
_atom_site_label
_atom_site_type_symbol
_atom_site_fract_x
_atom_site_fract_y
_atom_site_fract_z
Cu1 Cu 0.30612(6) 0.38490(4) 0.01736(10)
Cu2 Cu 0.51768(6) 0.55037(4) 0.26947(10)
N1 N 0.4671(4) 0.1630(2) 0.1643(6)
N2 N 0.3955(4) 0.2909(2) 0.1116(6)
O1 O 0.7627(3) 0.2418(3) 0.3374(7)
O2 O 0.6969(4) 0.1121(2) 0.3083(7)
O3 O 0.2038(5) 0.4713(3) -0.0894(8)
H1 H 0.1730 0.4966 -0.0042
O4 O 0.4970(4) 0.4406(2) 0.1936(6)
O5 O 0.6763(3) 0.3849(2) 0.2924(6)
C1 C 0.0218(6) 0.1129(4) -0.0732(10)
H4 H -0.0547 0.0933 -0.1160
C2 C 0.0331(6) 0.1874(4) 0.0232(10)
H5 H -0.0364 0.2165 0.0511
C3 C 0.2373(5) 0.0981(3) -0.0504(7)
H6 H 0.3060 0.0674 -0.0745
C4 C 0.1238(6) 0.0682(4) -0.1051(9)
H7 H 0.1161 0.0168 -0.1646
C5 C 0.1458(5) 0.2192(4) 0.0783(8)
H8 H 0.1523 0.2703 0.1396
C6 C 0.3712(4) 0.2095(3) 0.1029(7)
C7 C 0.6791(5) 0.1865(4) 0.2911(8)
C8 C 0.5134(4) 0.2975(3) 0.1829(7)
C9 C 0.5580(4) 0.2180(3) 0.2155(7)
C10 C 0.5683(5) 0.3799(3) 0.2264(8)
C11 C 0.2498(4) 0.1752(3) 0.0423(7)
Cu2A Cu 0.48232(6) 0.05037(4) 0.23053(10)
N1A N 0.5329(4) 0.6630(2) 0.3357(6)
O2A O 0.3031(4) 0.6121(2) 0.1917(7)
O6 O 0.9562(9) 0.1036(5) 0.4328(18)
H2 H 0.8974 0.1379 0.4231
H3 H 1.0079 0.1101 0.3503
loop_
_geom_bond_atom_site_label_1
_geom_bond_atom_site_label_2
_geom_bond_site_symmetry_1
_geom_bond_site_symmetry_2
Cu1 N2 1_555 1_555
Cu2 O4 1_555 1_555
N1 C6 1_555 1_555
N2 C6 1_555 1_555
O1 C7 1_555 1_555
O2 C7 1_555 1_555
O3 Cu1 1_555 1_555
H1 O3 1_555 1_555
O4 Cu1 1_555 1_555
O5 C10 1_555 1_555
O6 H2 1_555 1_555
H3 O6 1_555 1_555
C1 H4 1_555 1_555
C2 C1 1_555 1_555
H5 C2 1_555 1_555
C3 H6 1_555 1_555
C4 C1 1_555 1_555
H7 C4 1_555 1_555
C5 C2 1_555 1_555
H8 C5 1_555 1_555
C6 C11 1_555 1_555
C7 C9 1_555 1_555
C8 N2 1_555 1_555
C9 N1 1_555 1_555
C10 O4 1_555 1_555
C11 C3 1_555 1_555
Cu2A N1 1_555 1_555
N1A Cu2 1_555 1_555
O2A Cu2 1_555 1_555
O2 Cu2A 1_555 1_555
C3 C4 1_555 1_555
C5 C11 1_555 1_555
C8 C9 1_555 1_555
C8 C10 1_555 1_555

#END
