
#######################################################################
#
#                 Cambridge Crystallographic Data Centre
#                                CCDC 
#
#######################################################################
#
# If this CIF has been generated from an entry in the Cambridge 
# Structural Database, then it will include bibliographic, chemical, 
# crystal, experimental, refinement or atomic coordinate data resulting 
# from the CCDC's data processing and validation procedures.
#
#######################################################################

data_UZEQIA
_symmetry_cell_setting           triclinic
_symmetry_space_group_name_H-M   'P -1'
_symmetry_Int_Tables_number      2
_space_group_name_Hall           '-P 1'
loop_
_symmetry_equiv_pos_site_id
_symmetry_equiv_pos_as_xyz
1 x,y,z
2 -x,-y,-z
_cell_length_a                   9.0050(10)
_cell_length_b                   13.3564(14)
_cell_length_c                   15.0690(16)
_cell_angle_alpha                92.2180(10)
_cell_angle_beta                 106.416(2)
_cell_angle_gamma                108.9610(10)
_cell_volume                     1627.09
loop_
_atom_site_label
_atom_site_type_symbol
_atom_site_fract_x
_atom_site_fract_y
_atom_site_fract_z
C1 C 0.0925(9) 0.1464(6) 0.1269(5)
C2 C 0.2591(10) 0.2182(7) 0.1915(6)
H1 H 0.3132 0.1751 0.2291
H2 H 0.3278 0.2536 0.1545
C3 C 0.1979(9) 0.3817(6) 0.2115(6)
C4 C 0.1975(10) 0.3927(7) 0.1259(6)
H3 H 0.2200 0.3456 0.0891
C5 C 0.1576(13) 0.4878(9) 0.0921(7)
H4 H 0.1622 0.5049 0.0335
C6 C 0.1138(11) 0.5503(7) 0.1485(8)
H5 H 0.0826 0.6070 0.1270
C7 C 0.1172(10) 0.5273(8) 0.2353(8)
C8 C 0.0707(15) 0.5996(13) 0.2881(10)
H6 H 0.0415 0.6558 0.2635
C9 C 0.0730(13) 0.5802(9) 0.3700(12)
H7 H 0.0440 0.6237 0.4066
C10 C 0.1218(13) 0.4872(10) 0.4120(7)
H8 H 0.1209 0.4771 0.4726
C11 C 0.1650(10) 0.4213(9) 0.3648(6)
H9 H 0.1949 0.3654 0.3897
C12 C 0.1615(10) 0.4445(8) 0.2697(7)
C13 C -0.4254(8) 0.1926(5) 0.0334(4)
C14 C -0.2736(9) 0.2932(5) 0.0600(6)
H10 H -0.1887 0.2829 0.1112
H11 H -0.2316 0.3046 0.0072
C15 C -0.3190(8) 0.3970(5) 0.1742(5)
C16 C -0.3034(10) 0.3288(6) 0.2378(7)
H12 H -0.2781 0.2688 0.2245
C17 C -0.3262(11) 0.3502(8) 0.3245(7)
H13 H -0.3139 0.3045 0.3688
C18 C -0.3649(10) 0.4347(8) 0.3440(6)
H14 H -0.3846 0.4449 0.4004
C19 C -0.3767(9) 0.5088(7) 0.2812(6)
C20 C -0.4098(10) 0.6019(8) 0.3024(7)
H15 H -0.4230 0.6156 0.3602
C21 C -0.4224(11) 0.6709(8) 0.2407(9)
H16 H -0.4413 0.7327 0.2566
C22 C -0.4066(10) 0.6495(7) 0.1500(8)
H17 H -0.4199 0.6959 0.1064
C23 C -0.3721(9) 0.5612(6) 0.1282(6)
H18 H -0.3585 0.5484 0.0704
C24 C -0.3568(8) 0.4889(5) 0.1943(5)
C25 C -0.2986(8) 0.0718(6) -0.1611(5)
C26 C -0.3314(8) 0.1150(6) -0.2528(5)
H19 H -0.3349 0.1863 -0.2429
H20 H -0.2432 0.1196 -0.2792
C27 C -0.5467(10) 0.0788(7) -0.3981(5)
C28 C -0.4760(11) 0.1737(7) -0.4248(6)
H21 H -0.3745 0.2216 -0.3873
C29 C -0.5596(16) 0.1982(10) -0.5105(8)
H22 H -0.5145 0.2638 -0.5294
C30 C -0.7070(17) 0.1258(12) -0.5660(7)
H23 H -0.7607 0.1439 -0.6220
C31 C -0.7799(13) 0.0260(10) -0.5421(6)
C32 C -0.9302(16) -0.0508(13) -0.5977(8)
H24 H -0.9844 -0.0374 -0.6558
C33 C -0.9967(16) -0.1439(12) -0.5675(11)
H25 H -1.0987 -0.1924 -0.6039
C34 C -0.9151(15) -0.1683(9) -0.4828(9)
H26 H -0.9599 -0.2342 -0.4645
C35 C -0.7727(11) -0.0974(7) -0.4277(7)
H27 H -0.7214 -0.1137 -0.3702
C36 C -0.6990(10) 0.0007(7) -0.4546(5)
Nd1 Nd -0.24178(4) -0.00720(3) 0.01763(3)
O1 O 0.0967(5) 0.0812(3) 0.0677(3)
O2 O -0.0386(6) 0.1457(4) 0.1397(4)
O3 O 0.2425(7) 0.2988(5) 0.2530(4)
O4 O -0.5659(5) 0.1960(3) 0.0259(3)
O5 O -0.4057(5) 0.1060(3) 0.0168(3)
O6 O -0.3033(6) 0.3860(4) 0.0871(4)
O7 O -0.1654(5) 0.1238(3) -0.0980(3)
O8 O -0.3982(5) -0.0137(3) -0.1510(3)
O9 O -0.4829(7) 0.0470(4) -0.3149(3)
O10 O -0.3148(6) -0.0216(4) 0.1669(3)
H28 H -0.4027 -0.0216 0.1727
H29 H -0.2381 0.0185 0.2108
O11 O -0.1112(5) -0.1176(4) 0.1256(3)
H30 H -0.0441 -0.1324 0.1053
H31 H -0.1803 -0.1731 0.1309
Nd1A Nd 0.24178(4) 0.00720(3) -0.01763(3)
Nd1A_2 Nd -0.75822(4) 0.00720(3) -0.01763(3)
O1A O -0.0967(5) -0.0812(3) -0.0677(3)
O4A O -0.4341(5) -0.1960(3) -0.0259(3)
O5A O -0.5943(5) -0.1060(3) -0.0168(3)
loop_
_geom_bond_atom_site_label_1
_geom_bond_atom_site_label_2
_geom_bond_site_symmetry_1
_geom_bond_site_symmetry_2
C1 C2 1_555 1_555
C2 H1 1_555 1_555
H2 C2 1_555 1_555
C3 C4 1_555 1_555
C4 H3 1_555 1_555
C5 C4 1_555 1_555
H4 C5 1_555 1_555
C6 C5 1_555 1_555
H5 C6 1_555 1_555
C7 C6 1_555 1_555
C8 C7 1_555 1_555
H6 C8 1_555 1_555
C9 C8 1_555 1_555
H7 C9 1_555 1_555
C10 C9 1_555 1_555
H8 C10 1_555 1_555
C11 C10 1_555 1_555
H9 C11 1_555 1_555
C12 C3 1_555 1_555
C13 C14 1_555 1_555
C14 H10 1_555 1_555
H11 C14 1_555 1_555
C15 C16 1_555 1_555
C16 H12 1_555 1_555
C17 C16 1_555 1_555
H13 C17 1_555 1_555
C18 C17 1_555 1_555
H14 C18 1_555 1_555
C19 C18 1_555 1_555
C20 C19 1_555 1_555
H15 C20 1_555 1_555
C21 C20 1_555 1_555
H16 C21 1_555 1_555
C22 C21 1_555 1_555
H17 C22 1_555 1_555
C23 C22 1_555 1_555
H18 C23 1_555 1_555
C24 C15 1_555 1_555
C25 C26 1_555 1_555
C26 H19 1_555 1_555
H20 C26 1_555 1_555
C27 C28 1_555 1_555
C28 H21 1_555 1_555
C29 C28 1_555 1_555
H22 C29 1_555 1_555
C30 C29 1_555 1_555
H23 C30 1_555 1_555
C31 C30 1_555 1_555
C32 C31 1_555 1_555
H24 C32 1_555 1_555
C33 C32 1_555 1_555
H25 C33 1_555 1_555
C34 C33 1_555 1_555
H26 C34 1_555 1_555
C35 C34 1_555 1_555
H27 C35 1_555 1_555
C36 C27 1_555 1_555
Nd1 O1 1_555 1_555
O1 C1 1_555 1_555
O2 C1 1_555 1_555
O3 C2 1_555 1_555
O4 C13 1_555 1_555
O5 C13 1_555 1_555
O6 C14 1_555 1_555
O7 C25 1_555 1_555
O8 C25 1_555 1_555
O9 C26 1_555 1_555
O10 Nd1 1_555 1_555
H28 O10 1_555 1_555
H29 O10 1_555 1_555
O11 Nd1 1_555 1_555
H30 O11 1_555 1_555
H31 O11 1_555 1_555
Nd1A O1 1_555 1_555
Nd1A_2 O4 1_555 1_555
O1A Nd1 1_555 1_555
O4A Nd1 1_555 1_555
O5A Nd1 1_555 1_555
C3 O3 1_555 1_555
C7 C12 1_555 1_555
C11 C12 1_555 1_555
C15 O6 1_555 1_555
C19 C24 1_555 1_555
C23 C24 1_555 1_555
C27 O9 1_555 1_555
C31 C36 1_555 1_555
C35 C36 1_555 1_555
Nd1 O2 1_555 1_555
Nd1 O5 1_555 1_555
Nd1 O7 1_555 1_555
Nd1 O8 1_555 1_555
O5 Nd1A_2 1_555 1_555
Nd1A O1A 1_555 1_555
Nd1A_2 O5A 1_555 1_555

#END
