
#######################################################################
#
#                 Cambridge Crystallographic Data Centre
#                                CCDC 
#
#######################################################################
#
# If this CIF has been generated from an entry in the Cambridge 
# Structural Database, then it will include bibliographic, chemical, 
# crystal, experimental, refinement or atomic coordinate data resulting 
# from the CCDC's data processing and validation procedures.
#
#######################################################################

data_UZEQEW
_symmetry_cell_setting           triclinic
_symmetry_space_group_name_H-M   'P -1'
_symmetry_Int_Tables_number      2
_space_group_name_Hall           '-P 1'
loop_
_symmetry_equiv_pos_site_id
_symmetry_equiv_pos_as_xyz
1 x,y,z
2 -x,-y,-z
_cell_length_a                   9.0267(11)
_cell_length_b                   13.3612(16)
_cell_length_c                   15.1088(18)
_cell_angle_alpha                92.1180(10)
_cell_angle_beta                 106.4470(10)
_cell_angle_gamma                108.9650(10)
_cell_volume                     1636.01
loop_
_atom_site_label
_atom_site_type_symbol
_atom_site_fract_x
_atom_site_fract_y
_atom_site_fract_z
C1 C 0.7979(4) 0.4279(3) 0.1630(2)
C2 C 0.8306(4) 0.3835(3) 0.2536(3)
H1 H 0.7426 0.3778 0.2801
H2 H 0.8353 0.3126 0.2431
C3 C 1.0470(5) 0.4210(3) 0.3987(3)
C4 C 0.9768(6) 0.3253(4) 0.4257(3)
H3 H 0.8758 0.2768 0.3885
C5 C 1.0615(10) 0.3018(6) 0.5115(5)
H4 H 1.0167 0.2362 0.5302
C6 C 1.2067(10) 0.3726(7) 0.5672(4)
H5 H 1.2597 0.3546 0.6233
C7 C 1.2788(7) 0.4730(5) 0.5419(3)
C8 C 1.4304(9) 0.5508(8) 0.5976(4)
H6 H 1.4851 0.5366 0.6551
C9 C 1.4978(9) 0.6460(7) 0.5685(6)
H7 H 1.5979 0.6955 0.6055
C10 C 1.4161(8) 0.6680(5) 0.4842(5)
H8 H 1.4615 0.7333 0.4653
C11 C 1.2715(6) 0.5972(4) 0.4280(4)
H9 H 1.2201 0.6141 0.3710
C12 C 1.1985(5) 0.4985(4) 0.4550(3)
C13 C 0.9267(4) 0.3067(2) -0.0341(2)
C14 C 0.7740(5) 0.2065(3) -0.0593(3)
H10 H 0.6883 0.2174 -0.1094
H11 H 0.7345 0.1953 -0.0058
C15 C 0.8183(4) 0.1019(3) -0.1747(3)
C16 C 0.8032(5) 0.1715(3) -0.2379(3)
H12 H 0.7776 0.2313 -0.2247
C17 C 0.8277(6) 0.1499(4) -0.3239(3)
H13 H 0.8184 0.1968 -0.3674
C18 C 0.8636(5) 0.0644(4) -0.3449(3)
H14 H 0.8806 0.0533 -0.4019
C19 C 0.8759(5) -0.0089(3) -0.2815(3)
C20 C 0.9106(6) -0.1021(4) -0.3028(4)
H15 H 0.9257 -0.1154 -0.3598
C21 C 0.9217(6) -0.1708(4) -0.2404(5)
H16 H 0.9414 -0.2323 -0.2556
C22 C 0.9039(5) -0.1512(4) -0.1527(4)
H17 H 0.9144 -0.1991 -0.1102
C23 C 0.8714(5) -0.0628(3) -0.1290(3)
H18 H 0.8602 -0.0503 -0.0706
C24 C 0.8547(4) 0.0099(3) -0.1942(3)
C25 C 0.4064(4) 0.3540(3) -0.1291(3)
C26 C 0.2402(5) 0.2807(3) -0.1935(3)
H19 H 0.1852 0.3231 -0.2314
H20 H 0.1722 0.2454 -0.1564
C27 C 0.2995(4) 0.1195(3) -0.2129(3)
C28 C 0.2997(5) 0.1053(4) -0.1263(3)
H21 H 0.2756 0.1514 -0.0896
C29 C 0.3398(6) 0.0132(4) -0.0916(4)
H22 H 0.3347 -0.0034 -0.0330
C30 C 0.3860(6) -0.0500(4) -0.1477(4)
H23 H 0.4184 -0.1059 -0.1250
C31 C 0.3827(5) -0.0285(4) -0.2348(4)
C32 C 0.4291(7) -0.0964(5) -0.2917(5)
H24 H 0.4598 -0.1527 -0.2685
C33 C 0.4264(7) -0.0763(5) -0.3751(6)
H25 H 0.4554 -0.1190 -0.4122
C34 C 0.3777(7) 0.0137(5) -0.4131(4)
H26 H 0.3770 0.0256 -0.4735
C35 C 0.3359(6) 0.0768(5) -0.3637(3)
H27 H 0.3057 0.1328 -0.3878
C36 C 0.3387(5) 0.0550(4) -0.2692(3)
O1 O 0.6667(3) 0.37491(19) 0.09834(18)
O2 O 0.8994(3) 0.51282(18) 0.15216(16)
O3 O 0.9818(4) 0.4522(2) 0.31539(19)
O4 O 0.9088(3) 0.39379(18) -0.01673(17)
O5 O 1.0650(3) 0.30174(18) -0.02687(18)
O6 O 0.8013(3) 0.11367(18) -0.08767(19)
O7 O 0.4039(3) 0.41867(18) -0.06798(16)
O8 O 0.2561(3) 0.2020(2) -0.25296(19)
O9 O 0.6110(3) 0.6191(2) -0.12574(18)
H28 H 0.5259 0.6270 -0.1205
H29 H 0.6670 0.6763 -0.1373
O10 O 0.5377(3) 0.3538(2) -0.1404(2)
O11 O 0.8143(3) 0.5222(2) -0.16871(18)
H30 H 0.8909 0.5061 -0.1774
H31 H 0.7347 0.4977 -0.2164
Pr1 Pr 0.742406(19) 0.507480(13) -0.017750(12)
O4A O 1.0912(3) 0.60621(18) 0.01673(17)
O5A O 0.9350(3) 0.69826(18) 0.02687(18)
O7A O 0.5961(3) 0.58133(18) 0.06798(16)
Pr1A Pr 1.257594(19) 0.492520(13) 0.017750(12)
Pr1A_2 Pr 0.257594(19) 0.492520(13) 0.017750(12)
loop_
_geom_bond_atom_site_label_1
_geom_bond_atom_site_label_2
_geom_bond_site_symmetry_1
_geom_bond_site_symmetry_2
C1 C2 1_555 1_555
C2 H1 1_555 1_555
H2 C2 1_555 1_555
C3 C4 1_555 1_555
C4 H3 1_555 1_555
C5 C4 1_555 1_555
H4 C5 1_555 1_555
C6 C5 1_555 1_555
H5 C6 1_555 1_555
C7 C6 1_555 1_555
C8 C7 1_555 1_555
H6 C8 1_555 1_555
C9 C8 1_555 1_555
H7 C9 1_555 1_555
C10 C9 1_555 1_555
H8 C10 1_555 1_555
C11 C10 1_555 1_555
H9 C11 1_555 1_555
C12 C3 1_555 1_555
C13 C14 1_555 1_555
C14 H10 1_555 1_555
H11 C14 1_555 1_555
C15 C16 1_555 1_555
C16 H12 1_555 1_555
C17 C16 1_555 1_555
H13 C17 1_555 1_555
C18 C17 1_555 1_555
H14 C18 1_555 1_555
C19 C18 1_555 1_555
C20 C19 1_555 1_555
H15 C20 1_555 1_555
C21 C20 1_555 1_555
H16 C21 1_555 1_555
C22 C21 1_555 1_555
H17 C22 1_555 1_555
C23 C22 1_555 1_555
H18 C23 1_555 1_555
C24 C15 1_555 1_555
C25 C26 1_555 1_555
C26 H19 1_555 1_555
H20 C26 1_555 1_555
C27 C28 1_555 1_555
C28 H21 1_555 1_555
C29 C28 1_555 1_555
H22 C29 1_555 1_555
C30 C29 1_555 1_555
H23 C30 1_555 1_555
C31 C30 1_555 1_555
C32 C31 1_555 1_555
H24 C32 1_555 1_555
C33 C32 1_555 1_555
H25 C33 1_555 1_555
C34 C33 1_555 1_555
H26 C34 1_555 1_555
C35 C34 1_555 1_555
H27 C35 1_555 1_555
C36 C27 1_555 1_555
O1 C1 1_555 1_555
O2 C1 1_555 1_555
O3 C2 1_555 1_555
O4 C13 1_555 1_555
O5 C13 1_555 1_555
O6 C14 1_555 1_555
O7 C25 1_555 1_555
O8 C26 1_555 1_555
O9 H28 1_555 1_555
H29 O9 1_555 1_555
O10 C25 1_555 1_555
O11 H30 1_555 1_555
H31 O11 1_555 1_555
Pr1 O1 1_555 1_555
O4A Pr1 1_555 1_555
O5A Pr1 1_555 1_555
O7A Pr1 1_555 1_555
Pr1A O4 1_555 1_555
Pr1A_2 O7 1_555 1_555
C3 O3 1_555 1_555
C7 C12 1_555 1_555
C11 C12 1_555 1_555
C15 O6 1_555 1_555
C19 C24 1_555 1_555
C23 C24 1_555 1_555
C27 O8 1_555 1_555
C31 C36 1_555 1_555
C35 C36 1_555 1_555
O2 Pr1 1_555 1_555
O4 Pr1 1_555 1_555
O5 Pr1A 1_555 1_555
O7 Pr1 1_555 1_555
O9 Pr1 1_555 1_555
O10 Pr1 1_555 1_555
O11 Pr1 1_555 1_555
O4A Pr1A 1_555 1_555
O7A Pr1A_2 1_555 1_555

#END
