
#######################################################################
#
#                 Cambridge Crystallographic Data Centre
#                                CCDC 
#
#######################################################################
#
# If this CIF has been generated from an entry in the Cambridge 
# Structural Database, then it will include bibliographic, chemical, 
# crystal, experimental, refinement or atomic coordinate data resulting 
# from the CCDC's data processing and validation procedures.
#
#######################################################################

data_UZIGOA
_symmetry_cell_setting           monoclinic
_symmetry_space_group_name_H-M   'P 21/c'
_symmetry_Int_Tables_number      14
_space_group_name_Hall           '-P 2ybc'
loop_
_symmetry_equiv_pos_site_id
_symmetry_equiv_pos_as_xyz
1 x,y,z
2 -x,1/2+y,1/2-z
3 -x,-y,-z
4 x,1/2-y,1/2+z
_cell_length_a                   10.958(3)
_cell_length_b                   8.041(3)
_cell_length_c                   9.277(3)
_cell_angle_alpha                90
_cell_angle_beta                 92.868(4)
_cell_angle_gamma                90
_cell_volume                     816.403
loop_
_atom_site_label
_atom_site_type_symbol
_atom_site_fract_x
_atom_site_fract_y
_atom_site_fract_z
Cu1 Cu 0.5000 0.5000 0.0000
N1 N 0.3359(2) 0.4691(3) 0.0698(2)
C1 C 0.4092(3) 0.7102(3) 0.2053(3)
C2 C 0.3082(2) 0.5945(3) 0.1631(3)
C3 C 0.2259(3) 0.2170(4) -0.0321(3)
H1 H 0.2663 0.2288 -0.1222
H2 H 0.1405 0.1920 -0.0547
C4 C 0.1899(2) 0.5800(3) 0.1983(3)
C5 C 0.2359(2) 0.3757(3) 0.0502(3)
C6 C 0.1136(3) 0.6858(4) 0.2880(3)
N2 N 0.1465(2) 0.4420(3) 0.1268(3)
O1 O 0.50610(18) 0.6891(2) 0.1405(2)
O2 O 0.39277(19) 0.8166(3) 0.3021(2)
O3 O 0.1681(2) 0.8117(3) 0.3553(3)
H3 H 0.2408 0.8123 0.3381
O4 O 0.0059(2) 0.6597(4) 0.2972(3)
C7 C 0.2840(4) 0.0752(4) 0.0547(4)
H4 H 0.2438 0.0632 0.1436
H5 H 0.3690 0.0987 0.0750
H6 H 0.2760 -0.0261 0.0002
H7 H 0.086(4) 0.412(5) 0.130(4)
Cu1A Cu 0.5000 1.0000 0.5000
Cu1A_2 Cu 0.5000 0.0000 -0.5000
N1B N 0.6641(2) 0.5309(3) -0.0698(2)
C1B C 0.5908(3) 0.2898(3) -0.2053(3)
C2B C 0.6918(2) 0.4055(3) -0.1631(3)
C3B C 0.7741(3) 0.7830(4) 0.0321(3)
H1B H 0.7337 0.7712 0.1222
H2B H 0.8595 0.8080 0.0547
C4B C 0.8101(2) 0.4200(3) -0.1983(3)
C5B C 0.7641(2) 0.6243(3) -0.0502(3)
C6B C 0.8864(3) 0.3142(4) -0.2880(3)
N2B N 0.8535(2) 0.5580(3) -0.1268(3)
O1B O 0.49390(18) 0.3109(2) -0.1405(2)
O2B O 0.60723(19) 0.1834(3) -0.3021(2)
O2A O 0.60723(19) 0.3166(3) 0.1979(2)
O2C O 0.39277(19) 0.6834(3) -0.1979(2)
O3B O 0.8319(2) 0.1883(3) -0.3553(3)
H3B H 0.7592 0.1877 -0.3381
O4B O 0.9941(2) 0.3403(4) -0.2972(3)
C7B C 0.7160(4) 0.9248(4) -0.0547(4)
H4B H 0.7562 0.9368 -0.1436
H5B H 0.6310 0.9013 -0.0750
H6B H 0.7240 1.0261 -0.0002
H7B H 0.914(4) 0.588(5) -0.130(4)
loop_
_geom_bond_atom_site_label_1
_geom_bond_atom_site_label_2
_geom_bond_site_symmetry_1
_geom_bond_site_symmetry_2
Cu1 N1 1_555 1_555
N1 C2 1_555 1_555
C1 C2 1_555 1_555
C2 C4 1_555 1_555
C3 H1 1_555 1_555
H2 C3 1_555 1_555
C4 C6 1_555 1_555
C5 N1 1_555 1_555
C6 O3 1_555 1_555
N2 C4 1_555 1_555
O1 Cu1 1_555 1_555
O2 C1 1_555 1_555
O3 H3 1_555 1_555
O4 C6 1_555 1_555
C7 C3 1_555 1_555
H4 C7 1_555 1_555
H5 C7 1_555 1_555
H6 C7 1_555 1_555
H7 N2 1_555 1_555
Cu1A O2 1_555 1_555
Cu1A_2 O2B 1_555 1_555
N1B Cu1 1_555 1_555
C1B C2B 1_555 1_555
C2B N1B 1_555 1_555
C3B H1B 1_555 1_555
H2B C3B 1_555 1_555
C4B C2B 1_555 1_555
C5B N1B 1_555 1_555
C6B C4B 1_555 1_555
N2B C4B 1_555 1_555
O1B Cu1 1_555 1_555
O2B C1B 1_555 1_555
O2A Cu1 1_555 1_555
O2C Cu1 1_555 1_555
O3B C6B 1_555 1_555
H3B O3B 1_555 1_555
O4B C6B 1_555 1_555
C7B C3B 1_555 1_555
H4B C7B 1_555 1_555
H5B C7B 1_555 1_555
H6B C7B 1_555 1_555
H7B N2B 1_555 1_555
C1 O1 1_555 1_555
C3 C5 1_555 1_555
C5 N2 1_555 1_555
C1B O1B 1_555 1_555
C3B C5B 1_555 1_555
C5B N2B 1_555 1_555

#END
