
#######################################################################
#
#                 Cambridge Crystallographic Data Centre
#                                CCDC 
#
#######################################################################
#
# If this CIF has been generated from an entry in the Cambridge 
# Structural Database, then it will include bibliographic, chemical, 
# crystal, experimental, refinement or atomic coordinate data resulting 
# from the CCDC's data processing and validation procedures.
#
#######################################################################

data_UZIYAE
_symmetry_cell_setting           monoclinic
_symmetry_space_group_name_H-M   'I 2'
_symmetry_Int_Tables_number      5
_space_group_name_Hall           'I 2y'
loop_
_symmetry_equiv_pos_site_id
_symmetry_equiv_pos_as_xyz
1 x,y,z
2 -x,y,-z
3 1/2+x,1/2+y,1/2+z
4 1/2-x,1/2+y,1/2-z
_cell_length_a                   11.169(4)
_cell_length_b                   8.480(3)
_cell_length_c                   34.220(11)
_cell_angle_alpha                90
_cell_angle_beta                 95.143(7)
_cell_angle_gamma                90
_cell_volume                     3228.03
loop_
_atom_site_label
_atom_site_type_symbol
_atom_site_fract_x
_atom_site_fract_y
_atom_site_fract_z
Cu1 Cu 0.50746(14) 0.0560(2) 0.17460(4)
Cu2 Cu 0.5000 0.0991(2) 0.5000
O1 O 0.5993(12) -0.0885(16) 0.0687(3)
O2 O 0.4816(14) 0.2032(19) 0.0628(4)
O3 O 0.852(2) 0.057(3) 0.1577(7)
O4 O 0.7155(12) 0.1915(16) 0.1828(5)
O5 O 0.835(2) 0.054(3) 0.2198(6)
O6 O 0.2544(14) -0.0745(19) 0.1042(5)
O7 O 0.2912(11) -0.0597(17) 0.1671(3)
O8 O 0.1605(15) 0.093(2) 0.1359(5)
O9 O 0.5000 0.3903(16) 0.5000
O10 O 0.5000 -0.1910(14) 0.5000
N1 N 0.5852(9) -0.1593(13) 0.1707(3)
N2 N 0.5213(11) 0.0553(18) 0.1193(3)
N3 N 0.4372(11) 0.2736(15) 0.1625(3)
N4 N 0.4981(10) 0.0617(12) 0.2324(2)
N5 N 0.4883(7) 0.0970(10) 0.4398(2)
N6 N 0.8025(11) 0.0984(15) 0.1858(4)
N7 N 0.2360(10) -0.0139(14) 0.1356(4)
C1 C 0.6157(15) -0.273(2) 0.1983(5)
H1 H 0.6027 -0.2553 0.2244
C2 C 0.6670(15) -0.419(3) 0.1874(6)
H2 H 0.6874 -0.4948 0.2065
C3 C 0.6853(15) -0.447(2) 0.1515(5)
H3 H 0.7170 -0.5431 0.1447
C4 C 0.6590(16) -0.338(2) 0.1243(6)
H4 H 0.6756 -0.3589 0.0987
C5 C 0.6077(14) -0.1956(18) 0.1329(4)
C6 C 0.5752(14) -0.0689(18) 0.1035(4)
C7 C 0.4807(15) 0.184(2) 0.0973(5)
C8 C 0.4317(14) 0.3086(19) 0.1241(5)
C9 C 0.3904(15) 0.449(2) 0.1078(5)
H5 H 0.3894 0.4666 0.0809
C10 C 0.3489(15) 0.568(3) 0.1333(5)
H6 H 0.3239 0.6669 0.1243
C11 C 0.3488(15) 0.524(2) 0.1716(5)
H7 H 0.3167 0.5937 0.1890
C12 C 0.3938(14) 0.3823(19) 0.1860(5)
H8 H 0.3941 0.3613 0.2126
C13 C 0.5570(12) 0.1751(14) 0.2537(3)
H9 H 0.6038 0.2460 0.2410
C14 C 0.4357(12) -0.0452(15) 0.2517(3)
H10 H 0.3945 -0.1243 0.2372
C15 C 0.4301(12) -0.0426(16) 0.2917(3)
H11 H 0.3875 -0.1201 0.3039
C16 C 0.5515(12) 0.1915(15) 0.2937(3)
H12 H 0.5886 0.2770 0.3068
C17 C 0.4903(10) 0.0801(16) 0.3146(2)
C18 C 0.4856(10) 0.0871(16) 0.3569(2)
C19 C 0.4513(16) -0.0427(19) 0.3790(3)
H13 H 0.4271 -0.1359 0.3663
C20 C 0.4530(15) -0.0330(15) 0.4193(3)
H14 H 0.4287 -0.1204 0.4329
C21 C 0.5247(13) 0.2201(14) 0.4191(3)
H15 H 0.5515 0.3106 0.4325
C22 C 0.5240(13) 0.2182(15) 0.3788(3)
H16 H 0.5499 0.3070 0.3660
N8 N 0.6824(5) 0.0962(9) 0.5015(2)
C23 C 0.7396(8) -0.0214(12) 0.4843(3)
H17 H 0.6949 -0.1025 0.4719
C24 C 0.8639(8) -0.0239(15) 0.4846(4)
H18 H 0.9006 -0.1106 0.4741
C25 C 0.9357(5) 0.1003(12) 0.5003(3)
C26 C 0.8744(7) 0.2174(14) 0.5180(4)
H19 H 0.9170 0.3016 0.5299
C27 C 0.7510(8) 0.2122(13) 0.5186(4)
H20 H 0.7134 0.2925 0.5314
Cu1A Cu 0.49254(14) 0.0560(2) 0.82540(4)
Cu2_2 Cu 1.5000 0.0991(2) 0.5000
O1A O 0.4007(12) -0.0885(16) 0.9313(3)
O2A O 0.5184(14) 0.2032(19) 0.9372(4)
O3A O 0.148(2) 0.057(3) 0.8423(7)
O4A O 0.2845(12) 0.1915(16) 0.8172(5)
O5A O 0.165(2) 0.054(3) 0.7802(6)
O6A O 0.7456(14) -0.0745(19) 0.8958(5)
O7A O 0.7088(11) -0.0597(17) 0.8329(3)
O8A O 0.8395(15) 0.093(2) 0.8641(5)
N1A N 0.4148(9) -0.1593(13) 0.8293(3)
N2A N 0.4787(11) 0.0553(18) 0.8807(3)
N3A N 0.5628(11) 0.2736(15) 0.8375(3)
N4A N 0.5019(10) 0.0617(12) 0.7676(2)
N5A N 0.5117(7) 0.0970(10) 0.5602(2)
N6A N 0.1975(11) 0.0984(15) 0.8142(4)
N7A N 0.7640(10) -0.0139(14) 0.8644(4)
C1A C 0.3843(15) -0.273(2) 0.8017(5)
H1A H 0.3973 -0.2553 0.7756
C2A C 0.3330(15) -0.419(3) 0.8126(6)
H2A H 0.3126 -0.4948 0.7935
C3A C 0.3147(15) -0.447(2) 0.8485(5)
H3A H 0.2830 -0.5431 0.8553
C4A C 0.3410(16) -0.338(2) 0.8757(6)
H4A H 0.3244 -0.3589 0.9013
C5A C 0.3923(14) -0.1956(18) 0.8671(4)
C6A C 0.4248(14) -0.0689(18) 0.8965(4)
C7A C 0.5193(15) 0.184(2) 0.9027(5)
C8A C 0.5683(14) 0.3086(19) 0.8759(5)
C9A C 0.6096(15) 0.449(2) 0.8922(5)
H5A H 0.6106 0.4666 0.9191
C10A C 0.6511(15) 0.568(3) 0.8667(5)
H6A H 0.6761 0.6669 0.8757
C11A C 0.6512(15) 0.524(2) 0.8284(5)
H7A H 0.6833 0.5937 0.8110
C12A C 0.6062(14) 0.3823(19) 0.8140(5)
H8A H 0.6059 0.3613 0.7874
C13A C 0.4430(12) 0.1751(14) 0.7463(3)
H9A H 0.3962 0.2460 0.7590
C14A C 0.5643(12) -0.0452(15) 0.7483(3)
H10A H 0.6055 -0.1243 0.7628
C15A C 0.5699(12) -0.0426(16) 0.7083(3)
H11A H 0.6125 -0.1201 0.6961
C16A C 0.4485(12) 0.1915(15) 0.7063(3)
H12A H 0.4114 0.2770 0.6932
C17A C 0.5097(10) 0.0801(16) 0.6854(2)
C18A C 0.5144(10) 0.0871(16) 0.6431(2)
C19A C 0.5487(16) -0.0427(19) 0.6210(3)
H13A H 0.5729 -0.1359 0.6337
C20A C 0.5470(15) -0.0330(15) 0.5807(3)
H14A H 0.5713 -0.1204 0.5671
C21A C 0.4753(13) 0.2201(14) 0.5809(3)
H15A H 0.4485 0.3106 0.5675
C22A C 0.4760(13) 0.2182(15) 0.6212(3)
H16A H 0.4501 0.3070 0.6340
N8A N 1.3176(5) 0.0962(9) 0.4985(2)
N8A_2 N 0.3176(5) 0.0962(9) 0.4985(2)
C23A C 1.2604(8) -0.0214(12) 0.5157(3)
H17A H 1.3051 -0.1025 0.5281
C24A C 1.1361(8) -0.0239(15) 0.5154(4)
H18A H 1.0994 -0.1106 0.5259
C25A C 1.0643(5) 0.1003(12) 0.4997(3)
C26A C 1.1256(7) 0.2174(14) 0.4820(4)
H19A H 1.0830 0.3016 0.4701
C27A C 1.2490(8) 0.2122(13) 0.4814(4)
H20A H 1.2866 0.2925 0.4686
O11 O 0.646(3) 0.089(3) 0.0028(9)
O12 O 0.1674(13) 0.113(2) 0.0379(5)
O13 O 0.1235(14) 0.053(2) 0.2277(4)
loop_
_geom_bond_atom_site_label_1
_geom_bond_atom_site_label_2
_geom_bond_site_symmetry_1
_geom_bond_site_symmetry_2
Cu1 O4 1_555 1_555
Cu2 O9 1_555 1_555
O1 C6 1_555 1_555
O2 C7 1_555 1_555
O3 N6 1_555 1_555
O4 N6 1_555 1_555
O5 N6 1_555 1_555
O6 N7 1_555 1_555
O7 Cu1 1_555 1_555
O8 N7 1_555 1_555
O10 Cu2 1_555 1_555
N1 Cu1 1_555 1_555
N2 Cu1 1_555 1_555
N3 Cu1 1_555 1_555
N4 Cu1 1_555 1_555
N5 Cu2 1_555 1_555
N7 O7 1_555 1_555
C1 N1 1_555 1_555
H1 C1 1_555 1_555
C2 C1 1_555 1_555
H2 C2 1_555 1_555
C3 C2 1_555 1_555
H3 C3 1_555 1_555
C4 C3 1_555 1_555
H4 C4 1_555 1_555
C5 N1 1_555 1_555
C6 N2 1_555 1_555
C7 N2 1_555 1_555
C8 N3 1_555 1_555
C9 C8 1_555 1_555
H5 C9 1_555 1_555
C10 C9 1_555 1_555
H6 C10 1_555 1_555
C11 C10 1_555 1_555
H7 C11 1_555 1_555
C12 N3 1_555 1_555
H8 C12 1_555 1_555
C13 N4 1_555 1_555
H9 C13 1_555 1_555
C14 N4 1_555 1_555
H10 C14 1_555 1_555
C15 C14 1_555 1_555
H11 C15 1_555 1_555
C16 C13 1_555 1_555
H12 C16 1_555 1_555
C17 C15 1_555 1_555
C18 C17 1_555 1_555
C19 C18 1_555 1_555
H13 C19 1_555 1_555
C20 N5 1_555 1_555
H14 C20 1_555 1_555
C21 N5 1_555 1_555
H15 C21 1_555 1_555
C22 C18 1_555 1_555
H16 C22 1_555 1_555
N8 Cu2 1_555 1_555
C23 N8 1_555 1_555
H17 C23 1_555 1_555
C24 C23 1_555 1_555
H18 C24 1_555 1_555
C25 C24 1_555 1_555
C26 C25 1_555 1_555
H19 C26 1_555 1_555
C27 N8 1_555 1_555
H20 C27 1_555 1_555
Cu1A O4A 1_555 1_555
Cu2_2 N8A 1_555 1_555
O1A C6A 1_555 1_555
O2A C7A 1_555 1_555
O3A N6A 1_555 1_555
O4A N6A 1_555 1_555
O5A N6A 1_555 1_555
O6A N7A 1_555 1_555
O7A Cu1A 1_555 1_555
O8A N7A 1_555 1_555
N1A Cu1A 1_555 1_555
N2A Cu1A 1_555 1_555
N3A Cu1A 1_555 1_555
N4A Cu1A 1_555 1_555
N5A Cu2 1_555 1_555
N7A O7A 1_555 1_555
C1A N1A 1_555 1_555
H1A C1A 1_555 1_555
C2A C1A 1_555 1_555
H2A C2A 1_555 1_555
C3A C2A 1_555 1_555
H3A C3A 1_555 1_555
C4A C3A 1_555 1_555
H4A C4A 1_555 1_555
C5A N1A 1_555 1_555
C6A N2A 1_555 1_555
C7A N2A 1_555 1_555
C8A N3A 1_555 1_555
C9A C8A 1_555 1_555
H5A C9A 1_555 1_555
C10A C9A 1_555 1_555
H6A C10A 1_555 1_555
C11A C10A 1_555 1_555
H7A C11A 1_555 1_555
C12A N3A 1_555 1_555
H8A C12A 1_555 1_555
C13A N4A 1_555 1_555
H9A C13A 1_555 1_555
C14A N4A 1_555 1_555
H10A C14A 1_555 1_555
C15A C14A 1_555 1_555
H11A C15A 1_555 1_555
C16A C13A 1_555 1_555
H12A C16A 1_555 1_555
C17A C15A 1_555 1_555
C18A C17A 1_555 1_555
C19A C18A 1_555 1_555
H13A C19A 1_555 1_555
C20A N5A 1_555 1_555
H14A C20A 1_555 1_555
C21A N5A 1_555 1_555
H15A C21A 1_555 1_555
C22A C18A 1_555 1_555
H16A C22A 1_555 1_555
N8A C23A 1_555 1_555
N8A_2 Cu2 1_555 1_555
C23A H17A 1_555 1_555
C24A C23A 1_555 1_555
H18A C24A 1_555 1_555
C25A C25 1_555 1_555
C26A C25A 1_555 1_555
H19A C26A 1_555 1_555
C27A N8A 1_555 1_555
H20A C27A 1_555 1_555
C4 C5 1_555 1_555
C5 C6 1_555 1_555
C7 C8 1_555 1_555
C11 C12 1_555 1_555
C16 C17 1_555 1_555
C19 C20 1_555 1_555
C21 C22 1_555 1_555
C26 C27 1_555 1_555
C4A C5A 1_555 1_555
C5A C6A 1_555 1_555
C7A C8A 1_555 1_555
C11A C12A 1_555 1_555
C16A C17A 1_555 1_555
C19A C20A 1_555 1_555
C21A C22A 1_555 1_555
C24A C25A 1_555 1_555
C26A C27A 1_555 1_555

#END
