
#######################################################################
#
#                 Cambridge Crystallographic Data Centre
#                                CCDC 
#
#######################################################################
#
# If this CIF has been generated from an entry in the Cambridge 
# Structural Database, then it will include bibliographic, chemical, 
# crystal, experimental, refinement or atomic coordinate data resulting 
# from the CCDC's data processing and validation procedures.
#
#######################################################################

data_UZUMIM
_symmetry_cell_setting           monoclinic
_symmetry_space_group_name_H-M   'P 21/c'
_symmetry_Int_Tables_number      14
_space_group_name_Hall           '-P 2ybc'
loop_
_symmetry_equiv_pos_site_id
_symmetry_equiv_pos_as_xyz
1 x,y,z
2 -x,1/2+y,1/2-z
3 -x,-y,-z
4 x,1/2-y,1/2+z
_cell_length_a                   6.21861(17)
_cell_length_b                   7.9567(2)
_cell_length_c                   30.7635(11)
_cell_angle_alpha                90
_cell_angle_beta                 92.783(3)
_cell_angle_gamma                90
_cell_volume                     1520.37
loop_
_atom_site_label
_atom_site_type_symbol
_atom_site_fract_x
_atom_site_fract_y
_atom_site_fract_z
Sr1 Sr 0.45876(7) 0.95114(6) 0.258734(15)
O1 O 0.0947(5) 0.8486(5) 0.21100(12)
B1 B 0.1981(8) 0.7121(7) 0.18686(19)
O2 O 0.1698(5) 0.5569(5) 0.21216(11)
H1 H 0.0383 0.4990 0.2028
O3 O 0.4369(5) 0.7388(4) 0.19217(12)
H2 H 0.5066 0.7512 0.1651
C1 C 0.1106(8) 0.6941(6) 0.13646(17)
C2 C -0.0804(8) 0.7685(7) 0.12037(18)
C3 C -0.1528(10) 0.7511(9) 0.0768(2)
C4 C -0.0328(11) 0.6612(9) 0.0484(2)
C5 C 0.1569(11) 0.5841(8) 0.0636(2)
C6 C 0.2259(9) 0.5998(7) 0.10687(19)
H3 H 0.3531 0.5460 0.1164
H4 H 0.2378 0.5220 0.0447
H5 H -0.0766 0.6532 0.0190
H6 H -0.2825 0.7995 0.0671
H7 H -0.1620 0.8317 0.1389
H8 H 0.0484 0.9422 0.1931
O4 O 0.7682(5) 0.7177(4) 0.25906(12)
H9 H 0.8774 0.7630 0.2392
H10 H 0.8593 0.7071 0.2875
O5 O 0.7761(6) 1.4150(4) 0.17714(12)
B2 B 0.7690(9) 1.2264(7) 0.16813(19)
O6 O 0.6756(5) 1.1536(5) 0.20748(11)
H11 H 0.6305 1.0682 0.1899
O7 O 0.9942(5) 1.1626(5) 0.16739(12)
H12 H 1.0633 1.1887 0.1412
C7 C 0.6319(8) 1.1904(6) 0.12330(16)
C8 C 0.4461(8) 1.0924(7) 0.12107(18)
C9 C 0.3315(9) 1.0616(8) 0.08161(19)
C10 C 0.4008(10) 1.1259(9) 0.0435(2)
C11 C 0.5856(11) 1.2245(10) 0.0444(2)
C12 C 0.6990(10) 1.2546(9) 0.08364(19)
H13 H 0.8234 1.3196 0.0838
H14 H 0.6332 1.2701 0.0187
H15 H 0.3262 1.1030 0.0172
H16 H 0.2057 0.9979 0.0814
H17 H 0.3975 1.0441 0.1464
H18 H 0.7820 1.4786 0.1501
Sr1A Sr 0.54124(7) 0.45114(6) 0.241266(15)
Sr1A_2 Sr 0.54124(7) 1.45114(6) 0.241266(15)
O2A O 0.8302(5) 1.0569(5) 0.28784(11)
H1A H 0.9617 0.9990 0.2972
O3A O 0.5631(5) 1.2388(4) 0.30783(12)
H2A H 0.4934 1.2512 0.3349
O4A O 0.2318(5) 1.2177(4) 0.24094(12)
H9A H 0.1226 1.2630 0.2608
H10A H 0.1407 1.2071 0.2125
O5A O 0.2239(6) 0.9150(4) 0.32286(12)
O6A O 0.3244(5) 0.6536(5) 0.29252(11)
H11A H 0.3695 0.5682 0.3101
H18A H 0.2180 0.9786 0.3499
loop_
_geom_bond_atom_site_label_1
_geom_bond_atom_site_label_2
_geom_bond_site_symmetry_1
_geom_bond_site_symmetry_2
Sr1 O1 1_555 1_555
O1 B1 1_555 1_555
B1 O2 1_555 1_555
O2 H1 1_555 1_555
O3 Sr1 1_555 1_555
H2 O3 1_555 1_555
C1 B1 1_555 1_555
C2 C1 1_555 1_555
C3 C2 1_555 1_555
C4 C3 1_555 1_555
C5 C4 1_555 1_555
C6 C1 1_555 1_555
H3 C6 1_555 1_555
H4 C5 1_555 1_555
H5 C4 1_555 1_555
H6 C3 1_555 1_555
H7 C2 1_555 1_555
H8 O1 1_555 1_555
O4 Sr1 1_555 1_555
H9 O4 1_555 1_555
H10 O4 1_555 1_555
O5 B2 1_555 1_555
B2 O6 1_555 1_555
O6 Sr1 1_555 1_555
H11 O6 1_555 1_555
O7 B2 1_555 1_555
H12 O7 1_555 1_555
C7 B2 1_555 1_555
C8 C7 1_555 1_555
C9 C8 1_555 1_555
C10 C9 1_555 1_555
C11 C10 1_555 1_555
C12 C7 1_555 1_555
H13 C12 1_555 1_555
H14 C11 1_555 1_555
H15 C10 1_555 1_555
H16 C9 1_555 1_555
H17 C8 1_555 1_555
H18 O5 1_555 1_555
Sr1A O2 1_555 1_555
Sr1A_2 O5 1_555 1_555
O2A Sr1 1_555 1_555
H1A O2A 1_555 1_555
O3A Sr1 1_555 1_555
H2A O3A 1_555 1_555
O4A Sr1 1_555 1_555
H9A O4A 1_555 1_555
H10A O4A 1_555 1_555
O5A Sr1 1_555 1_555
O6A Sr1 1_555 1_555
H11A O6A 1_555 1_555
H18A O5A 1_555 1_555
B1 O3 1_555 1_555
O3 Sr1A 1_555 1_555
C5 C6 1_555 1_555
O4 Sr1A 1_555 1_555
O6 Sr1A_2 1_555 1_555
C11 C12 1_555 1_555
Sr1A O6A 1_555 1_555
Sr1A_2 O3A 1_555 1_555
Sr1A_2 O4A 1_555 1_555

#END
