
#######################################################################
#
#                 Cambridge Crystallographic Data Centre
#                                CCDC 
#
#######################################################################
#
# If this CIF has been generated from an entry in the Cambridge 
# Structural Database, then it will include bibliographic, chemical, 
# crystal, experimental, refinement or atomic coordinate data resulting 
# from the CCDC's data processing and validation procedures.
#
#######################################################################

data_UZUPUB
_symmetry_cell_setting           monoclinic
_symmetry_space_group_name_H-M   'C 2/c'
_symmetry_Int_Tables_number      15
_space_group_name_Hall           '-C 2yn'
loop_
_symmetry_equiv_pos_site_id
_symmetry_equiv_pos_as_xyz
1 x,y,z
2 -x,y,1/2-z
3 1/2+x,1/2+y,z
4 1/2-x,1/2+y,1/2-z
5 -x,-y,-z
6 x,-y,1/2+z
7 1/2-x,1/2-y,-z
8 1/2+x,1/2-y,1/2+z
_cell_length_a                   36.7013(13)
_cell_length_b                   19.0487(6)
_cell_length_c                   22.8374(7)
_cell_angle_alpha                90
_cell_angle_beta                 95.746(3)
_cell_angle_gamma                90
_cell_volume                     15885.7
loop_
_atom_site_label
_atom_site_type_symbol
_atom_site_fract_x
_atom_site_fract_y
_atom_site_fract_z
Nd1 Nd 0.174661(10) -0.011249(16) 1.030855(13)
N1 N 0.1179(3) -0.1000(5) 1.0784(3)
N2 N 0.1405(2) 0.1211(4) 1.0631(4)
N3 N 0.2277(2) -0.0331(3) 1.1369(3)
N4 N 0.2304(2) 0.3866(3) 0.5369(2)
H1 H 0.2166 0.3560 0.5513
N5 N 0.08435(19) -0.0235(4) 0.8931(2)
H2 H 0.0720 -0.0222 0.8591
N6 N 0.19831(15) 0.1516(3) 0.9060(3)
H3 H 0.2066 0.1877 0.8890
O1 O 0.11981(14) -0.0334(3) 1.0869(2)
O2 O 0.1422(2) -0.1270(3) 1.0506(3)
O3 O 0.0944(2) -0.1337(4) 1.0984(3)
O4 O 0.19694(18) -0.0622(3) 1.1301(2)
O5 O 0.23446(13) 0.0096(2) 1.09743(19)
O6 O 0.24947(17) -0.0436(2) 1.1785(2)
O7 O 0.16768(17) 0.0955(3) 1.0927(2)
O8 O 0.12897(13) 0.0893(3) 1.0153(3)
O9 O 0.12502(17) 0.1735(3) 1.0771(3)
O10 O 0.13913(13) -0.0382(2) 0.94173(18)
O11 O 0.25725(13) 0.2206(2) 0.88200(19)
O12 O 0.20601(11) 0.0739(2) 0.97873(17)
O13 O 0.28536(13) 0.4065(2) 0.50614(19)
O14 O 0.22334(19) 0.2698(2) 0.5973(2)
O15 O 0.08359(13) -0.0084(3) 0.77917(18)
C1 C 0.2396(2) 0.2539(3) 0.7464(3)
H12 H 0.2481 0.2082 0.7435
C2 C 0.2503(2) 0.2923(4) 0.7977(3)
C3 C 0.2361(2) 0.3588(5) 0.8015(3)
H13 H 0.2421 0.3854 0.8352
C4 C 0.2141(3) 0.3852(4) 0.7577(4)
H14 H 0.2053 0.4306 0.7613
C5 C 0.2040(2) 0.3496(4) 0.7083(4)
H15 H 0.1882 0.3703 0.6788
C6 C 0.2171(2) 0.2804(4) 0.7006(3)
C7 C 0.2062(2) 0.2404(4) 0.6468(3)
H16 H 0.2135 0.1917 0.6525
H17 H 0.1798 0.2418 0.6384
C8 C 0.2583(3) 0.2542(4) 0.5895(3)
C9 C 0.2742(4) 0.1951(5) 0.6145(4)
H18 H 0.2614 0.1672 0.6388
C10 C 0.3086(5) 0.1772(5) 0.6038(4)
H19 H 0.3187 0.1361 0.6200
C11 C 0.3295(3) 0.2193(5) 0.5687(4)
H20 H 0.3532 0.2070 0.5622
C12 C 0.3130(3) 0.2804(4) 0.5439(3)
H21 H 0.3256 0.3090 0.5199
C13 C 0.2776(2) 0.2978(4) 0.5554(3)
C14 C 0.2647(3) 0.3678(4) 0.5299(3)
C15 C 0.2149(2) 0.4548(4) 0.5220(3)
H22 H 0.1920 0.4488 0.4972
H23 H 0.2315 0.4809 0.4998
C16 C 0.2078(2) 0.4959(3) 0.5760(2)
C17 C 0.23576(16) 0.5060(3) 0.6210(3)
H24 H 0.2590 0.4883 0.6173
C18 C 0.2289(3) 0.5424(4) 0.6715(3)
H25 H 0.2476 0.5491 0.7016
C19 C 0.1941(3) 0.5688(3) 0.6769(3)
H26 H 0.1895 0.5932 0.7107
C20 C 0.1662(2) 0.5588(4) 0.6319(5)
H27 H 0.1429 0.5764 0.6356
C21 C 0.17302(17) 0.5223(4) 0.5815(4)
H28 H 0.1543 0.5156 0.5514
C22 C 0.2771(2) 0.2632(4) 0.8453(3)
H29 H 0.2956 0.2355 0.8284
H30 H 0.2892 0.3011 0.8680
C23 C 0.2740(2) 0.1984(3) 0.9342(3)
C24 C 0.3096(2) 0.2181(4) 0.9549(4)
H31 H 0.3236 0.2446 0.9313
C25 C 0.3238(2) 0.1982(4) 1.0101(4)
H32 H 0.3470 0.2140 1.0243
C26 C 0.3057(2) 0.1571(4) 1.0442(3)
H33 H 0.3165 0.1433 1.0810
C27 C 0.2706(2) 0.1350(3) 1.0247(3)
H34 H 0.2577 0.1068 1.0488
C28 C 0.25466(19) 0.1542(3) 0.9699(3)
C29 C 0.21781(19) 0.1248(3) 0.9510(3)
C30 C 0.1632(3) 0.1233(6) 0.8833(5)
H35 H 0.1465 0.1256 0.9135
H36 H 0.1660 0.0744 0.8728
C31 C 0.1479(2) 0.1627(4) 0.8314(3)
C32 C 0.1265(2) 0.2231(4) 0.8281(3)
H37 H 0.1209 0.2460 0.8635
C33 C 0.11332(17) 0.2502(3) 0.7736(4)
H38 H 0.0986 0.2919 0.7714
C34 C 0.12148(19) 0.2170(4) 0.7223(3)
H39 H 0.1126 0.2351 0.6858
C35 C 0.1429(2) 0.1566(4) 0.7256(3)
H40 H 0.1483 0.1344 0.6912
C36 C 0.15608(17) 0.1295(3) 0.7801(4)
H41 H 0.1704 0.0891 0.7822
C37 C 0.13467(18) -0.0510(3) 0.8382(2)
C38 C 0.1174(2) -0.0382(4) 0.7815(3)
C39 C 0.1361(2) -0.0522(4) 0.7329(3)
H42 H 0.1248 -0.0425 0.6954
C40 C 0.1700(2) -0.0797(4) 0.7386(3)
H43 H 0.1816 -0.0895 0.7051
C41 C 0.1878(2) -0.0934(4) 0.7931(3)
H44 H 0.2114 -0.1115 0.7972
C42 C 0.1695(2) -0.0798(3) 0.8415(3)
H45 H 0.1812 -0.0904 0.8785
C43 C 0.1189(2) -0.0370(3) 0.8945(3)
C44 C 0.0648(3) -0.0105(7) 0.9437(4)
H46 H 0.0788 -0.0288 0.9786
H47 H 0.0621 0.0397 0.9488
C45 C 0.0297(2) -0.0425(6) 0.9374(4)
C46 C -0.0048(3) -0.0145(4) 0.9206(4)
H48 H -0.0072 0.0325 0.9099
C47 C -0.03571(18) -0.0568(6) 0.9199(3)
H49 H -0.0588 -0.0380 0.9087
C48 C -0.0322(2) -0.1270(5) 0.9359(3)
H50 H -0.0528 -0.1553 0.9354
C49 C 0.0023(3) -0.1550(4) 0.9527(3)
H51 H 0.0047 -0.2020 0.9634
C50 C 0.03320(18) -0.1127(6) 0.9534(3)
H52 H 0.0562 -0.1314 0.9646
C51 C 0.0648(2) 0.0097(5) 0.7231(3)
H53 H 0.0590 -0.0323 0.7000
H54 H 0.0801 0.0398 0.7014
C52 C 0.0310(3) 0.0468(6) 0.7348(6)
C53 C 0.0000 0.0121(8) 0.7500
H55 H 0.0000 -0.0368 0.7500
C54 C 0.0296(3) 0.1180(6) 0.7322(6)
H56 H 0.0487 0.1429 0.7183
C55 C 0.0000 0.1533(8) 0.7500
H57 H 0.0000 0.2021 0.7500
Nd1A Nd -0.174661(10) -0.011249(16) 0.469145(13)
Nd1C Nd 0.325339(10) 0.488751(16) 0.469145(13)
Nd1C_2 Nd 0.325339(10) -0.511249(16) 0.469145(13)
N1A N -0.1179(3) -0.1000(5) 0.4216(3)
N2A N -0.1405(2) 0.1211(4) 0.4369(4)
N3A N -0.2277(2) -0.0331(3) 0.3631(3)
N4C N 0.2696(2) -0.1134(3) 0.9631(2)
H1C H 0.2834 -0.1440 0.9487
N5A N -0.08435(19) -0.0235(4) 0.6069(2)
H2A H -0.0720 -0.0222 0.6409
N6C N 0.30169(15) -0.3484(3) 0.5940(3)
H3C H 0.2934 -0.3123 0.6110
O1A O -0.11981(14) -0.0334(3) 0.4131(2)
O2A O -0.1422(2) -0.1270(3) 0.4494(3)
O3A O -0.0944(2) -0.1337(4) 0.4016(3)
O4A O -0.19694(18) -0.0622(3) 0.3699(2)
O5A O -0.23446(13) 0.0096(2) 0.40257(19)
O6A O -0.24947(17) -0.0436(2) 0.3215(2)
O7A O -0.16768(17) 0.0955(3) 0.4073(2)
O8A O -0.12897(13) 0.0893(3) 0.4847(3)
O9A O -0.12502(17) 0.1735(3) 0.4229(3)
O10A O -0.13913(13) -0.0382(2) 0.55827(18)
O11C O 0.24275(13) -0.2794(2) 0.61800(19)
O12C O 0.29399(11) -0.4261(2) 0.52127(17)
O12A O -0.20601(11) 0.0739(2) 0.52127(17)
O13C O 0.21464(13) -0.0935(2) 0.99386(19)
O13B O -0.21464(13) -0.0935(2) 0.50614(19)
O14C O 0.27666(19) -0.2302(2) 0.9027(2)
O15A O -0.08359(13) -0.0084(3) 0.72083(18)
C1C C 0.2604(2) -0.2461(3) 0.7536(3)
H12C H 0.2519 -0.2918 0.7565
C2C C 0.2497(2) -0.2077(4) 0.7023(3)
C3C C 0.2639(2) -0.1412(5) 0.6985(3)
H13C H 0.2579 -0.1146 0.6648
C4C C 0.2859(3) -0.1148(4) 0.7423(4)
H14C H 0.2947 -0.0694 0.7387
C5C C 0.2960(2) -0.1504(4) 0.7917(4)
H15C H 0.3118 -0.1297 0.8212
C6C C 0.2829(2) -0.2196(4) 0.7994(3)
C7C C 0.2938(2) -0.2596(4) 0.8532(3)
H16C H 0.2865 -0.3083 0.8475
H17C H 0.3202 -0.2582 0.8616
C8C C 0.2417(3) -0.2458(4) 0.9105(3)
C9C C 0.2258(4) -0.3049(5) 0.8855(4)
H18C H 0.2386 -0.3328 0.8612
C10C C 0.1914(5) -0.3228(5) 0.8962(4)
H19C H 0.1813 -0.3639 0.8800
C11C C 0.1705(3) -0.2807(5) 0.9313(4)
H20C H 0.1468 -0.2930 0.9378
C12C C 0.1870(3) -0.2196(4) 0.9561(3)
H21C H 0.1744 -0.1910 0.9801
C13C C 0.2224(2) -0.2022(4) 0.9446(3)
C14C C 0.2353(3) -0.1322(4) 0.9701(3)
C15C C 0.2851(2) -0.0452(4) 0.9780(3)
H22C H 0.3080 -0.0512 1.0028
H23C H 0.2685 -0.0191 1.0002
C16C C 0.2922(2) -0.0041(3) 0.9240(2)
C17C C 0.26424(16) 0.0060(3) 0.8790(3)
H24C H 0.2410 -0.0117 0.8827
C18C C 0.2711(3) 0.0424(4) 0.8285(3)
H25C H 0.2524 0.0491 0.7984
C19C C 0.3059(3) 0.0688(3) 0.8231(3)
H26C H 0.3105 0.0932 0.7893
C20C C 0.3338(2) 0.0588(4) 0.8681(5)
H27C H 0.3571 0.0764 0.8644
C21C C 0.32698(17) 0.0223(4) 0.9185(4)
H28C H 0.3457 0.0156 0.9486
C22C C 0.2229(2) -0.2368(4) 0.6547(3)
H29C H 0.2044 -0.2645 0.6716
H30C H 0.2108 -0.1989 0.6320
C23C C 0.2260(2) -0.3016(3) 0.5658(3)
C24C C 0.1904(2) -0.2819(4) 0.5451(4)
H31C H 0.1764 -0.2554 0.5687
C25C C 0.1762(2) -0.3018(4) 0.4899(4)
H32C H 0.1530 -0.2860 0.4757
C26C C 0.1943(2) -0.3429(4) 0.4558(3)
H33C H 0.1835 -0.3567 0.4190
C27C C 0.2294(2) -0.3650(3) 0.4753(3)
H34C H 0.2423 -0.3932 0.4512
C28C C 0.24534(19) -0.3458(3) 0.5301(3)
C29C C 0.28219(19) -0.3752(3) 0.5490(3)
C30C C 0.3368(3) -0.3767(6) 0.6167(5)
H35C H 0.3535 -0.3744 0.5865
H36C H 0.3340 -0.4256 0.6272
C31C C 0.3521(2) -0.3373(4) 0.6686(3)
C32C C 0.3735(2) -0.2769(4) 0.6719(3)
H37C H 0.3791 -0.2540 0.6365
C33C C 0.38668(17) -0.2498(3) 0.7264(4)
H38C H 0.4014 -0.2081 0.7286
C34C C 0.37852(19) -0.2830(4) 0.7777(3)
H39C H 0.3874 -0.2649 0.8142
C35C C 0.3571(2) -0.3434(4) 0.7744(3)
H40C H 0.3517 -0.3656 0.8088
C36C C 0.34392(17) -0.3705(3) 0.7199(4)
H41C H 0.3296 -0.4109 0.7178
C37A C -0.13467(18) -0.0510(3) 0.6618(2)
C38A C -0.1174(2) -0.0382(4) 0.7185(3)
C39A C -0.1361(2) -0.0522(4) 0.7671(3)
H42A H -0.1248 -0.0425 0.8046
C40A C -0.1700(2) -0.0797(4) 0.7614(3)
H43A H -0.1816 -0.0895 0.7949
C41A C -0.1878(2) -0.0934(4) 0.7069(3)
H44A H -0.2114 -0.1115 0.7028
C42A C -0.1695(2) -0.0798(3) 0.6585(3)
H45A H -0.1812 -0.0904 0.6215
C43A C -0.1189(2) -0.0370(3) 0.6055(3)
C44A C -0.0648(3) -0.0105(7) 0.5563(4)
H46A H -0.0788 -0.0288 0.5214
H47A H -0.0621 0.0397 0.5512
C45A C -0.0297(2) -0.0425(6) 0.5626(4)
C46A C 0.0048(3) -0.0145(4) 0.5794(4)
H48A H 0.0072 0.0325 0.5901
C47A C 0.03571(18) -0.0568(6) 0.5801(3)
H49A H 0.0588 -0.0380 0.5913
C48A C 0.0322(2) -0.1270(5) 0.5641(3)
H50A H 0.0528 -0.1553 0.5646
C49A C -0.0023(3) -0.1550(4) 0.5473(3)
H51A H -0.0047 -0.2020 0.5366
C50A C -0.03320(18) -0.1127(6) 0.5466(3)
H52A H -0.0562 -0.1314 0.5354
C51A C -0.0648(2) 0.0097(5) 0.7769(3)
H53A H -0.0590 -0.0323 0.8000
H54A H -0.0801 0.0398 0.7986
C52A C -0.0310(3) 0.0468(6) 0.7652(6)
C54A C -0.0296(3) 0.1180(6) 0.7678(6)
H56A H -0.0487 0.1429 0.7817
O16 O 0.1196(5) 0.3517(8) 0.5740(9)
H4 H 0.1445 0.3559 0.5665
H5 H 0.1256 0.3758 0.6121
O17 O 0.1537(8) 0.4935(8) 0.8483(13)
H6 H 0.1776 0.4973 0.8651
H7 H 0.1360 0.5096 0.8681
O18 O 0.4027(11) 0.2689(12) 0.7388(14)
H8 H 0.3775 0.2579 0.7338
H9 H 0.4222 0.2956 0.7474
O19 O 0.0743(12) 0.2932(15) 0.546(4)
H10 H 0.0900 0.2640 0.5653
H11 H 0.0707 0.2901 0.5039
loop_
_geom_bond_atom_site_label_1
_geom_bond_atom_site_label_2
_geom_bond_site_symmetry_1
_geom_bond_site_symmetry_2
Nd1 O1 1_555 1_555
N1 O1 1_555 1_555
N2 O7 1_555 1_555
N3 O4 1_555 1_555
N4 H1 1_555 1_555
N5 H2 1_555 1_555
N6 H3 1_555 1_555
O2 Nd1 1_555 1_555
O3 N1 1_555 1_555
O4 Nd1 1_555 1_555
O5 Nd1 1_555 1_555
O6 N3 1_555 1_555
O7 Nd1 1_555 1_555
O8 Nd1 1_555 1_555
O9 N2 1_555 1_555
O10 Nd1 1_555 1_555
O11 C22 1_555 1_555
O12 Nd1 1_555 1_555
O13 C14 1_555 1_555
O14 C7 1_555 1_555
O15 C38 1_555 1_555
O16 H4 1_555 1_555
H5 O16 1_555 1_555
O17 H6 1_555 1_555
H7 O17 1_555 1_555
O18 H8 1_555 1_555
H9 O18 1_555 1_555
O19 H10 1_555 1_555
H11 O19 1_555 1_555
C1 H12 1_555 1_555
C2 C1 1_555 1_555
C3 C2 1_555 1_555
H13 C3 1_555 1_555
C4 C3 1_555 1_555
H14 C4 1_555 1_555
C5 C4 1_555 1_555
H15 C5 1_555 1_555
C6 C1 1_555 1_555
C7 C6 1_555 1_555
H16 C7 1_555 1_555
H17 C7 1_555 1_555
C8 O14 1_555 1_555
C9 C8 1_555 1_555
H18 C9 1_555 1_555
C10 C9 1_555 1_555
H19 C10 1_555 1_555
C11 C10 1_555 1_555
H20 C11 1_555 1_555
C12 C11 1_555 1_555
H21 C12 1_555 1_555
C13 C8 1_555 1_555
C14 N4 1_555 1_555
C15 N4 1_555 1_555
H22 C15 1_555 1_555
H23 C15 1_555 1_555
C16 C15 1_555 1_555
C17 C16 1_555 1_555
H24 C17 1_555 1_555
C18 C17 1_555 1_555
H25 C18 1_555 1_555
C19 C18 1_555 1_555
H26 C19 1_555 1_555
C20 C19 1_555 1_555
H27 C20 1_555 1_555
C21 C16 1_555 1_555
H28 C21 1_555 1_555
C22 C2 1_555 1_555
H29 C22 1_555 1_555
H30 C22 1_555 1_555
C23 O11 1_555 1_555
C24 C23 1_555 1_555
H31 C24 1_555 1_555
C25 C24 1_555 1_555
H32 C25 1_555 1_555
C26 C25 1_555 1_555
H33 C26 1_555 1_555
C27 C26 1_555 1_555
H34 C27 1_555 1_555
C28 C23 1_555 1_555
C29 N6 1_555 1_555
C30 N6 1_555 1_555
H35 C30 1_555 1_555
H36 C30 1_555 1_555
C31 C30 1_555 1_555
C32 C31 1_555 1_555
H37 C32 1_555 1_555
C33 C32 1_555 1_555
H38 C33 1_555 1_555
C34 C33 1_555 1_555
H39 C34 1_555 1_555
C35 C34 1_555 1_555
H40 C35 1_555 1_555
C36 C31 1_555 1_555
H41 C36 1_555 1_555
C37 C38 1_555 1_555
C38 C39 1_555 1_555
C39 H42 1_555 1_555
C40 C39 1_555 1_555
H43 C40 1_555 1_555
C41 C40 1_555 1_555
H44 C41 1_555 1_555
C42 C37 1_555 1_555
H45 C42 1_555 1_555
C43 N5 1_555 1_555
C44 N5 1_555 1_555
H46 C44 1_555 1_555
H47 C44 1_555 1_555
C45 C44 1_555 1_555
C46 C45 1_555 1_555
H48 C46 1_555 1_555
C47 C46 1_555 1_555
H49 C47 1_555 1_555
C48 C47 1_555 1_555
H50 C48 1_555 1_555
C49 C48 1_555 1_555
H51 C49 1_555 1_555
C50 C45 1_555 1_555
H52 C50 1_555 1_555
C51 O15 1_555 1_555
H53 C51 1_555 1_555
H54 C51 1_555 1_555
C52 C51 1_555 1_555
C53 C52 1_555 1_555
H55 C53 1_555 1_555
C54 C52 1_555 1_555
H56 C54 1_555 1_555
C55 C54 1_555 1_555
H57 C55 1_555 1_555
Nd1A O1A 1_555 1_555
Nd1C O13 1_555 1_555
Nd1C_2 O12C 1_555 1_555
N1A O1A 1_555 1_555
N2A O7A 1_555 1_555
N3A O4A 1_555 1_555
N4C H1C 1_555 1_555
N5A H2A 1_555 1_555
N6C H3C 1_555 1_555
O2A Nd1A 1_555 1_555
O3A N1A 1_555 1_555
O4A Nd1A 1_555 1_555
O5A Nd1A 1_555 1_555
O6A N3A 1_555 1_555
O7A Nd1A 1_555 1_555
O8A Nd1A 1_555 1_555
O9A N2A 1_555 1_555
O10A Nd1A 1_555 1_555
O11C C22C 1_555 1_555
O12C C29C 1_555 1_555
O12A Nd1A 1_555 1_555
O13C Nd1 1_555 1_555
O13B Nd1A 1_555 1_555
O14C C7C 1_555 1_555
O15A C38A 1_555 1_555
C1C H12C 1_555 1_555
C2C C1C 1_555 1_555
C3C C2C 1_555 1_555
H13C C3C 1_555 1_555
C4C C3C 1_555 1_555
H14C C4C 1_555 1_555
C5C C4C 1_555 1_555
H15C C5C 1_555 1_555
C6C C1C 1_555 1_555
C7C C6C 1_555 1_555
H16C C7C 1_555 1_555
H17C C7C 1_555 1_555
C8C O14C 1_555 1_555
C9C C8C 1_555 1_555
H18C C9C 1_555 1_555
C10C C9C 1_555 1_555
H19C C10C 1_555 1_555
C11C C10C 1_555 1_555
H20C C11C 1_555 1_555
C12C C11C 1_555 1_555
H21C C12C 1_555 1_555
C13C C8C 1_555 1_555
C14C N4C 1_555 1_555
C15C N4C 1_555 1_555
H22C C15C 1_555 1_555
H23C C15C 1_555 1_555
C16C C15C 1_555 1_555
C17C C16C 1_555 1_555
H24C C17C 1_555 1_555
C18C C17C 1_555 1_555
H25C C18C 1_555 1_555
C19C C18C 1_555 1_555
H26C C19C 1_555 1_555
C20C C19C 1_555 1_555
H27C C20C 1_555 1_555
C21C C16C 1_555 1_555
H28C C21C 1_555 1_555
C22C C2C 1_555 1_555
H29C C22C 1_555 1_555
H30C C22C 1_555 1_555
C23C O11C 1_555 1_555
C24C C23C 1_555 1_555
H31C C24C 1_555 1_555
C25C C24C 1_555 1_555
H32C C25C 1_555 1_555
C26C C25C 1_555 1_555
H33C C26C 1_555 1_555
C27C C26C 1_555 1_555
H34C C27C 1_555 1_555
C28C C23C 1_555 1_555
C29C N6C 1_555 1_555
C30C N6C 1_555 1_555
H35C C30C 1_555 1_555
H36C C30C 1_555 1_555
C31C C30C 1_555 1_555
C32C C31C 1_555 1_555
H37C C32C 1_555 1_555
C33C C32C 1_555 1_555
H38C C33C 1_555 1_555
C34C C33C 1_555 1_555
H39C C34C 1_555 1_555
C35C C34C 1_555 1_555
H40C C35C 1_555 1_555
C36C C31C 1_555 1_555
H41C C36C 1_555 1_555
C37A C38A 1_555 1_555
C38A C39A 1_555 1_555
C39A H42A 1_555 1_555
C40A C39A 1_555 1_555
H43A C40A 1_555 1_555
C41A C40A 1_555 1_555
H44A C41A 1_555 1_555
C42A C37A 1_555 1_555
H45A C42A 1_555 1_555
C43A N5A 1_555 1_555
C44A N5A 1_555 1_555
H46A C44A 1_555 1_555
H47A C44A 1_555 1_555
C45A C44A 1_555 1_555
C46A C45A 1_555 1_555
H48A C46A 1_555 1_555
C47A C46A 1_555 1_555
H49A C47A 1_555 1_555
C48A C47A 1_555 1_555
H50A C48A 1_555 1_555
C49A C48A 1_555 1_555
H51A C49A 1_555 1_555
C50A C45A 1_555 1_555
H52A C50A 1_555 1_555
C51A O15A 1_555 1_555
H53A C51A 1_555 1_555
H54A C51A 1_555 1_555
C52A C53 1_555 1_555
C54A C55 1_555 1_555
H56A C54A 1_555 1_555
N1 O2 1_555 1_555
N2 O8 1_555 1_555
N3 O5 1_555 1_555
O10 C43 1_555 1_555
O12 C29 1_555 1_555
C5 C6 1_555 1_555
C12 C13 1_555 1_555
C13 C14 1_555 1_555
C20 C21 1_555 1_555
C27 C28 1_555 1_555
C28 C29 1_555 1_555
C35 C36 1_555 1_555
C37 C43 1_555 1_555
C41 C42 1_555 1_555
C49 C50 1_555 1_555
N1A O2A 1_555 1_555
N2A O8A 1_555 1_555
N3A O5A 1_555 1_555
O10A C43A 1_555 1_555
O13C C14C 1_555 1_555
C5C C6C 1_555 1_555
C12C C13C 1_555 1_555
C13C C14C 1_555 1_555
C20C C21C 1_555 1_555
C27C C28C 1_555 1_555
C28C C29C 1_555 1_555
C35C C36C 1_555 1_555
C37A C43A 1_555 1_555
C41A C42A 1_555 1_555
C49A C50A 1_555 1_555
C51A C52A 1_555 1_555
C52A C54A 1_555 1_555

#END
