
#######################################################################
#
#                 Cambridge Crystallographic Data Centre
#                                CCDC 
#
#######################################################################
#
# If this CIF has been generated from an entry in the Cambridge 
# Structural Database, then it will include bibliographic, chemical, 
# crystal, experimental, refinement or atomic coordinate data resulting 
# from the CCDC's data processing and validation procedures.
#
#######################################################################

data_UZUSUE
_symmetry_cell_setting           monoclinic
_symmetry_space_group_name_H-M   'P 21/n'
_symmetry_Int_Tables_number      14
_space_group_name_Hall           '-P 2yn'
loop_
_symmetry_equiv_pos_site_id
_symmetry_equiv_pos_as_xyz
1 x,y,z
2 1/2-x,1/2+y,1/2-z
3 -x,-y,-z
4 1/2+x,1/2-y,1/2+z
_cell_length_a                   10.2545(16)
_cell_length_b                   19.608(3)
_cell_length_c                   20.520(3)
_cell_angle_alpha                90
_cell_angle_beta                 93.156(2)
_cell_angle_gamma                90
_cell_volume                     4119.7
loop_
_atom_site_label
_atom_site_type_symbol
_atom_site_fract_x
_atom_site_fract_y
_atom_site_fract_z
U1 U 0.25766(4) 0.16268(2) 0.146901(18)
U2 U 0.67432(4) 0.15274(2) 0.135090(18)
K1 K 0.4961(2) 0.36100(12) 0.14436(12)
P1 P -0.0291(3) 0.17790(14) 0.24676(13)
P2 P -0.0638(3) 0.36679(14) 0.49851(13)
P3 P -0.0323(3) 0.17367(14) 0.03725(13)
P4 P -0.0072(3) 0.36424(15) -0.21512(13)
F1 F 0.4630(5) 0.1088(3) 0.1443(3)
O1 O 0.3194(7) 0.2474(3) 0.1531(3)
O2 O 0.1945(6) 0.0785(3) 0.1413(3)
O3 O 0.6106(7) 0.2367(3) 0.1257(3)
O4 O 0.7317(7) 0.0677(3) 0.1430(3)
O5 O 0.1039(6) 0.1916(3) 0.2214(3)
O6 O -0.1471(6) 0.1921(3) 0.2021(3)
O7 O -0.0353(7) 0.1013(3) 0.2704(3)
O8 O 0.0706(6) 0.3735(4) 0.5312(3)
O9 O -0.1059(7) 0.4375(3) 0.4657(3)
O10 O -0.1743(6) 0.3443(4) 0.5386(3)
O11 O 0.0756(7) 0.1970(3) 0.0838(3)
O12 O -0.1682(6) 0.1794(3) 0.0600(3)
O13 O -0.0057(7) 0.0979(3) 0.0156(4)
O14 O 0.0196(7) 0.4390(3) -0.1890(3)
O15 O 0.1034(6) 0.3411(4) -0.2557(3)
O16 O -0.1445(7) 0.3624(4) -0.2456(3)
O17 O 0.6938(7) 0.4062(3) 0.2480(3)
O18 O 0.7619(7) 0.3665(4) 0.1255(4)
O19 O 0.5964(7) 0.3951(4) 0.0175(4)
O20 O 0.3277(7) 0.4037(4) 0.0375(4)
O21 O 0.2551(7) 0.4334(4) 0.1661(3)
O22 O 0.4290(7) 0.4073(4) 0.2723(3)
C1 C -0.0384(10) 0.2284(5) 0.3192(5)
C2 C -0.1573(10) 0.2353(5) 0.3497(5)
H1 H -0.2332 0.2126 0.3323
C3 C -0.1636(10) 0.2748(5) 0.4042(5)
H2 H -0.2445 0.2795 0.4241
C4 C -0.0539(10) 0.3084(5) 0.4311(5)
C5 C 0.0662(10) 0.3003(5) 0.4023(5)
H3 H 0.1427 0.3218 0.4207
C6 C 0.0716(10) 0.2607(5) 0.3468(5)
H4 H 0.1526 0.2555 0.3270
C7 C -0.0229(10) 0.2255(5) -0.0353(5)
C8 C 0.0413(10) 0.2871(5) -0.0297(5)
H5 H 0.0825 0.3002 0.0110
C9 C 0.0460(10) 0.3311(5) -0.0842(5)
H6 H 0.0889 0.3739 -0.0798
C10 C -0.0115(10) 0.3120(5) -0.1434(5)
C11 C -0.0712(10) 0.2479(5) -0.1491(5)
H7 H -0.1081 0.2333 -0.1902
C12 C -0.0771(10) 0.2054(5) -0.0950(5)
H8 H -0.1189 0.1623 -0.0993
C13 C 0.7975(11) 0.3581(6) 0.2395(6)
H9 H 0.7622 0.3111 0.2400
H10 H 0.8641 0.3625 0.2761
C14 C 0.8584(11) 0.3704(6) 0.1775(6)
H11 H 0.8995 0.4161 0.1781
H12 H 0.9272 0.3360 0.1713
C15 C 0.8091(11) 0.3780(6) 0.0638(5)
H13 H 0.8916 0.3525 0.0597
H14 H 0.8276 0.4272 0.0585
C16 C 0.7117(11) 0.3556(6) 0.0124(6)
H15 H 0.7467 0.3620 -0.0312
H16 H 0.6917 0.3066 0.0179
C17 C 0.4993(10) 0.3768(6) -0.0320(5)
H17 H 0.4759 0.3280 -0.0281
H18 H 0.5325 0.3845 -0.0758
C18 C 0.3815(11) 0.4210(6) -0.0226(5)
H19 H 0.4073 0.4697 -0.0223
H20 H 0.3156 0.4138 -0.0591
C19 C 0.2187(11) 0.4464(6) 0.0503(6)
H21 H 0.1520 0.4438 0.0136
H22 H 0.2475 0.4944 0.0553
C20 C 0.1628(11) 0.4221(6) 0.1116(5)
H23 H 0.0808 0.4469 0.1188
H24 H 0.1423 0.3729 0.1079
C21 C 0.2107(11) 0.4061(6) 0.2253(5)
H25 H 0.2133 0.3557 0.2243
H26 H 0.1198 0.4207 0.2314
C22 C 0.3013(11) 0.4331(6) 0.2800(5)
H27 H 0.3026 0.4836 0.2788
H28 H 0.2702 0.4186 0.3227
C23 C 0.5235(10) 0.4406(5) 0.3148(5)
H29 H 0.4943 0.4405 0.3599
H30 H 0.5341 0.4885 0.3009
C24 C 0.6474(12) 0.4044(6) 0.3122(6)
H31 H 0.7129 0.4258 0.3431
H32 H 0.6358 0.3565 0.3258
U1C U -0.24234(4) 0.33732(2) 0.646901(18)
U1C_2 U -0.24234(4) 0.33732(2) -0.353099(18)
U2_2 U -0.32568(4) 0.15274(2) 0.135090(18)
U2C U 0.17432(4) 0.34726(2) 0.635090(18)
U2C_2 U 0.17432(4) 0.34726(2) -0.364910(18)
O6_2 O 0.8529(6) 0.1921(3) 0.2021(3)
O8C O 0.5706(6) 0.1265(4) 0.0312(3)
O10C O 0.3257(6) 0.1557(4) 0.0386(3)
O12_2 O 0.8318(6) 0.1794(3) 0.0600(3)
O15C O 0.6034(6) 0.1589(4) 0.2443(3)
O16C O 0.3555(7) 0.1376(4) 0.2544(3)
O23 O 0.7383(7) 0.5268(4) 0.1818(4)
O24 O 0.5723(8) 0.0237(4) -0.1102(4)
O25 O 0.3180(7) 0.5719(4) 0.1707(4)
O26 O -0.1950(8) 0.0136(4) -0.0204(4)
loop_
_geom_bond_atom_site_label_1
_geom_bond_atom_site_label_2
_geom_bond_site_symmetry_1
_geom_bond_site_symmetry_2
U1 F1 1_555 1_555
U2 F1 1_555 1_555
K1 O1 1_555 1_555
P1 O5 1_555 1_555
P2 O8 1_555 1_555
P3 O11 1_555 1_555
P4 O14 1_555 1_555
O1 U1 1_555 1_555
O2 U1 1_555 1_555
O3 U2 1_555 1_555
O4 U2 1_555 1_555
O5 U1 1_555 1_555
O6 P1 1_555 1_555
O7 P1 1_555 1_555
O8 U2C 1_555 1_555
O9 P2 1_555 1_555
O10 P2 1_555 1_555
O11 U1 1_555 1_555
O12 P3 1_555 1_555
O13 P3 1_555 1_555
O15 P4 1_555 1_555
O16 P4 1_555 1_555
O17 K1 1_555 1_555
O18 K1 1_555 1_555
O19 K1 1_555 1_555
O20 K1 1_555 1_555
O21 K1 1_555 1_555
O22 K1 1_555 1_555
C1 P1 1_555 1_555
C2 C1 1_555 1_555
H1 C2 1_555 1_555
C3 C2 1_555 1_555
H2 C3 1_555 1_555
C4 P2 1_555 1_555
C5 C4 1_555 1_555
H3 C5 1_555 1_555
C6 C1 1_555 1_555
H4 C6 1_555 1_555
C7 P3 1_555 1_555
C8 C7 1_555 1_555
H5 C8 1_555 1_555
C9 C8 1_555 1_555
H6 C9 1_555 1_555
C10 P4 1_555 1_555
C11 C10 1_555 1_555
H7 C11 1_555 1_555
C12 C7 1_555 1_555
H8 C12 1_555 1_555
C13 O17 1_555 1_555
H9 C13 1_555 1_555
H10 C13 1_555 1_555
C14 O18 1_555 1_555
H11 C14 1_555 1_555
H12 C14 1_555 1_555
C15 O18 1_555 1_555
H13 C15 1_555 1_555
H14 C15 1_555 1_555
C16 O19 1_555 1_555
H15 C16 1_555 1_555
H16 C16 1_555 1_555
C17 O19 1_555 1_555
H17 C17 1_555 1_555
H18 C17 1_555 1_555
C18 O20 1_555 1_555
H19 C18 1_555 1_555
H20 C18 1_555 1_555
C19 O20 1_555 1_555
H21 C19 1_555 1_555
H22 C19 1_555 1_555
C20 O21 1_555 1_555
H23 C20 1_555 1_555
H24 C20 1_555 1_555
C21 O21 1_555 1_555
H25 C21 1_555 1_555
H26 C21 1_555 1_555
C22 O22 1_555 1_555
H27 C22 1_555 1_555
H28 C22 1_555 1_555
C23 O22 1_555 1_555
H29 C23 1_555 1_555
H30 C23 1_555 1_555
C24 O17 1_555 1_555
H31 C24 1_555 1_555
H32 C24 1_555 1_555
U1C O10 1_555 1_555
U1C_2 O16 1_555 1_555
U2_2 O6 1_555 1_555
U2C_2 O15 1_555 1_555
O6_2 U2 1_555 1_555
O8C U2 1_555 1_555
O10C U1 1_555 1_555
O12_2 U2 1_555 1_555
O15C U2 1_555 1_555
O16C U1 1_555 1_555
K1 O3 1_555 1_555
O12 U2_2 1_555 1_555
C3 C4 1_555 1_555
C5 C6 1_555 1_555
C9 C10 1_555 1_555
C11 C12 1_555 1_555
C13 C14 1_555 1_555
C15 C16 1_555 1_555
C17 C18 1_555 1_555
C19 C20 1_555 1_555
C21 C22 1_555 1_555
C23 C24 1_555 1_555

#END
