
#######################################################################
#
#                 Cambridge Crystallographic Data Centre
#                                CCDC 
#
#######################################################################
#
# If this CIF has been generated from an entry in the Cambridge 
# Structural Database, then it will include bibliographic, chemical, 
# crystal, experimental, refinement or atomic coordinate data resulting 
# from the CCDC's data processing and validation procedures.
#
#######################################################################

data_VABKOZ
_symmetry_cell_setting           tetragonal
_symmetry_space_group_name_H-M   'P -4 21 c'
_symmetry_Int_Tables_number      114
_space_group_name_Hall           'P -4 2n'
loop_
_symmetry_equiv_pos_site_id
_symmetry_equiv_pos_as_xyz
1 x,y,z
2 -x,-y,z
3 1/2+x,1/2-y,1/2-z
4 1/2-x,1/2+y,1/2-z
5 1/2+y,1/2+x,1/2+z
6 1/2-y,1/2-x,1/2+z
7 -y,x,-z
8 y,-x,-z
_cell_length_a                   8.293(3)
_cell_length_b                   8.293(3)
_cell_length_c                   10.680(5)
_cell_angle_alpha                90
_cell_angle_beta                 90
_cell_angle_gamma                90
_cell_volume                     734.505
loop_
_atom_site_label
_atom_site_type_symbol
_atom_site_fract_x
_atom_site_fract_y
_atom_site_fract_z
Ag1 Ag 0.5000 0.5000 0.5000
N1 N 0.2826(14) 0.5506(13) 0.3765(11)
C1 C 0.1881(15) 0.5899(15) 0.3080(14)
C2 C 0.0661(19) 0.6383(16) 0.2194(13)
H1 H 0.1118 0.7169 0.1623
H2 H -0.0215 0.6900 0.2642
C3 C 0.0000 0.5000 0.1452(12)
H3 H 0.0850 0.4594 0.0915
H4 H -0.0850 0.5406 0.0915
C2A C -0.0661(19) 0.3617(16) 0.2194(13)
C1A C -0.1881(15) 0.4101(15) 0.3080(14)
N1A N -0.2826(14) 0.4494(13) 0.3765(11)
H1A H -0.1118 0.2831 0.1623
H2A H 0.0215 0.3100 0.2642
N1A_2 N 0.7174(14) 0.4494(13) 0.3765(11)
C1A_2 C 0.8119(15) 0.4101(15) 0.3080(14)
C2A_2 C 0.9339(19) 0.3617(16) 0.2194(13)
H1A_2 H 0.8882 0.2831 0.1623
H2A_2 H 1.0215 0.3100 0.2642
C3A C 1.0000 0.5000 0.1452(12)
H3A H 0.9150 0.5406 0.0915
H4A H 1.0850 0.4594 0.0915
C2_2 C 1.0661(19) 0.6383(16) 0.2194(13)
C1_2 C 1.1881(15) 0.5899(15) 0.3080(14)
N1_2 N 1.2826(14) 0.5506(13) 0.3765(11)
H1_2 H 1.1118 0.7169 0.1623
H2_2 H 0.9785 0.6900 0.2642
N1F N 0.4494(13) 0.2826(14) 0.6235(11)
N1G N 0.5506(13) 0.7174(14) 0.6235(11)
Ag1_2 Ag -0.5000 0.5000 0.5000
Ag1_3 Ag 1.5000 0.5000 0.5000
Cl1 Cl -0.5000 0.5000 0.0005(12)
O1 O -0.4145 0.3766 0.0717(12)
O1A O -0.5855 0.6234 0.0717(12)
O1F O -0.3766 0.5855 -0.0717(12)
O1G O -0.6234 0.4145 -0.0717(12)
O2? O -0.6244 0.3773 0.0048(12)
loop_
_geom_bond_atom_site_label_1
_geom_bond_atom_site_label_2
_geom_bond_site_symmetry_1
_geom_bond_site_symmetry_2
Ag1 N1 1_555 1_555
N1 C1 1_555 1_555
C1 C2 1_555 1_555
C2 H1 1_555 1_555
H2 C2 1_555 1_555
C3 C2 1_555 1_555
H3 C3 1_555 1_555
H4 C3 1_555 1_555
Cl1 O1 1_555 1_555
C2A C3 1_555 1_555
C1A C2A 1_555 1_555
N1A C1A 1_555 1_555
H1A C2A 1_555 1_555
H2A C2A 1_555 1_555
O1A Cl1 1_555 1_555
O1F Cl1 1_555 1_555
O1G Cl1 1_555 1_555
N1A_2 Ag1 1_555 1_555
C1A_2 N1A_2 1_555 1_555
C2A_2 C1A_2 1_555 1_555
H1A_2 C2A_2 1_555 1_555
H2A_2 C2A_2 1_555 1_555
C3A C2A_2 1_555 1_555
H3A C3A 1_555 1_555
H4A C3A 1_555 1_555
C2_2 C3A 1_555 1_555
C1_2 C2_2 1_555 1_555
N1_2 C1_2 1_555 1_555
H1_2 C2_2 1_555 1_555
H2_2 C2_2 1_555 1_555
N1F Ag1 1_555 1_555
N1G Ag1 1_555 1_555
Ag1_2 N1A 1_555 1_555
Ag1_3 N1_2 1_555 1_555

#END
