
#######################################################################
#
#                 Cambridge Crystallographic Data Centre
#                                CCDC 
#
#######################################################################
#
# If this CIF has been generated from an entry in the Cambridge 
# Structural Database, then it will include bibliographic, chemical, 
# crystal, experimental, refinement or atomic coordinate data resulting 
# from the CCDC's data processing and validation procedures.
#
#######################################################################

data_VABLEQ
_symmetry_cell_setting           tetragonal
_symmetry_space_group_name_H-M   'P -4 21 c'
_symmetry_Int_Tables_number      114
_space_group_name_Hall           'P -4 2n'
loop_
_symmetry_equiv_pos_site_id
_symmetry_equiv_pos_as_xyz
1 x,y,z
2 -x,-y,z
3 1/2+x,1/2-y,1/2-z
4 1/2-x,1/2+y,1/2-z
5 1/2+y,1/2+x,1/2+z
6 1/2-y,1/2-x,1/2+z
7 -y,x,-z
8 y,-x,-z
_cell_length_a                   8.591(2)
_cell_length_b                   8.591(2)
_cell_length_c                   11.056(2)
_cell_angle_alpha                90
_cell_angle_beta                 90
_cell_angle_gamma                90
_cell_volume                     815.991
loop_
_atom_site_label
_atom_site_type_symbol
_atom_site_fract_x
_atom_site_fract_y
_atom_site_fract_z
Ag1 Ag -0.5000 0.5000 -0.5000
N1 N -0.7187(11) 0.5394(11) -0.6182(8)
C1 C -0.8100(14) 0.5795(12) -0.6813(10)
C2 C -0.9306(14) 0.6295(15) -0.7647(10)
H1 H -0.8868 0.7055 -0.8200
H2 H -1.0126 0.6805 -0.7193
C3 C -1.0000 0.5000 -0.8364(8)
H3 H -0.9198 0.4570 -0.8883
H4 H -1.0802 0.5430 -0.8883
C2A C -1.0694(14) 0.3705(15) -0.7647(10)
C1A C -1.1900(14) 0.4205(12) -0.6813(10)
N1A N -1.2813(11) 0.4606(11) -0.6182(8)
H1A H -1.1132 0.2945 -0.8200
H2A H -0.9874 0.3195 -0.7193
N1A_2 N -0.2813(11) 0.4606(11) -0.6182(8)
C1A_2 C -0.1900(14) 0.4205(12) -0.6813(10)
C2A_2 C -0.0694(14) 0.3705(15) -0.7647(10)
H1A_2 H -0.1132 0.2945 -0.8200
H2A_2 H 0.0126 0.3195 -0.7193
C3A C 0.0000 0.5000 -0.8364(8)
H3A H -0.0802 0.5430 -0.8883
H4A H 0.0802 0.4570 -0.8883
C2_2 C 0.0694(14) 0.6295(15) -0.7647(10)
C1_2 C 0.1900(14) 0.5795(12) -0.6813(10)
N1_2 N 0.2813(11) 0.5394(11) -0.6182(8)
H1_2 H 0.1132 0.7055 -0.8200
H2_2 H -0.0126 0.6805 -0.7193
N1F N -0.5394(11) 0.2813(11) -0.3818(8)
N1G N -0.4606(11) 0.7187(11) -0.3818(8)
Ag1_2 Ag -1.5000 0.5000 -0.5000
Ag1_3 Ag 0.5000 0.5000 -0.5000
Sb1 Sb -1.0000 0.0000 -0.4996(8)
F1 F -0.8295 -0.1219 -0.5003(8)
F2 F -1.0000 0.0000 -0.3449(8)
F1A F -1.1705 0.1219 -0.5003(8)
F1F F -0.8781 0.1705 -0.4997(8)
F1G F -1.1219 -0.1705 -0.4997(8)
F2F F -1.0000 0.0000 -0.6551(8)
loop_
_geom_bond_atom_site_label_1
_geom_bond_atom_site_label_2
_geom_bond_site_symmetry_1
_geom_bond_site_symmetry_2
Ag1 N1 1_555 1_555
N1 C1 1_555 1_555
C1 C2 1_555 1_555
C2 H1 1_555 1_555
H2 C2 1_555 1_555
C3 C2 1_555 1_555
H3 C3 1_555 1_555
H4 C3 1_555 1_555
Sb1 F1 1_555 1_555
F2 Sb1 1_555 1_555
C2A C3 1_555 1_555
C1A C2A 1_555 1_555
N1A C1A 1_555 1_555
H1A C2A 1_555 1_555
H2A C2A 1_555 1_555
N1A_2 Ag1 1_555 1_555
C1A_2 N1A_2 1_555 1_555
C2A_2 C1A_2 1_555 1_555
H1A_2 C2A_2 1_555 1_555
H2A_2 C2A_2 1_555 1_555
C3A C2A_2 1_555 1_555
H3A C3A 1_555 1_555
H4A C3A 1_555 1_555
C2_2 C3A 1_555 1_555
C1_2 C2_2 1_555 1_555
N1_2 C1_2 1_555 1_555
H1_2 C2_2 1_555 1_555
H2_2 C2_2 1_555 1_555
F1A Sb1 1_555 1_555
F1F Sb1 1_555 1_555
F1G Sb1 1_555 1_555
F2F Sb1 1_555 1_555
N1F Ag1 1_555 1_555
N1G Ag1 1_555 1_555
Ag1_2 N1A 1_555 1_555
Ag1_3 N1_2 1_555 1_555

#END
