
#######################################################################
#
#                 Cambridge Crystallographic Data Centre
#                                CCDC 
#
#######################################################################
#
# If this CIF has been generated from an entry in the Cambridge 
# Structural Database, then it will include bibliographic, chemical, 
# crystal, experimental, refinement or atomic coordinate data resulting 
# from the CCDC's data processing and validation procedures.
#
#######################################################################

data_VABNES
_symmetry_cell_setting           tetragonal
_symmetry_space_group_name_H-M   'P -4 21 c'
_symmetry_Int_Tables_number      114
_space_group_name_Hall           'P -4 2n'
loop_
_symmetry_equiv_pos_site_id
_symmetry_equiv_pos_as_xyz
1 x,y,z
2 -x,-y,z
3 1/2+x,1/2-y,1/2-z
4 1/2-x,1/2+y,1/2-z
5 1/2+y,1/2+x,1/2+z
6 1/2-y,1/2-x,1/2+z
7 -y,x,-z
8 y,-x,-z
_cell_length_a                   9.672(2)
_cell_length_b                   9.672(2)
_cell_length_c                   10.840(4)
_cell_angle_alpha                90
_cell_angle_beta                 90
_cell_angle_gamma                90
_cell_volume                     1014.06
loop_
_atom_site_label
_atom_site_type_symbol
_atom_site_fract_x
_atom_site_fract_y
_atom_site_fract_z
Ag1 Ag 0.5000 0.5000 0.5000
N1 N 0.3313(5) 0.3945(5) 0.3843(4)
C1 C 0.2581(6) 0.3493(6) 0.3165(5)
C2 C 0.1611(6) 0.2919(5) 0.2253(5)
H1 H 0.0945 0.2339 0.2676
H2 H 0.2121 0.2338 0.1682
C3 C 0.0845(5) 0.4012(5) 0.1532(5)
H3 H 0.0231 0.3558 0.0951
H4 H 0.1510 0.4544 0.1059
C4 C 0.0000 0.5000 0.2321(5)
H5 H -0.0617 0.4473 0.2847
H6 H 0.0617 0.5527 0.2847
C3A C -0.0845(5) 0.5988(5) 0.1532(5)
C2A C -0.1611(6) 0.7081(5) 0.2253(5)
C1A C -0.2581(6) 0.6507(6) 0.3165(5)
N1A N -0.3313(5) 0.6055(5) 0.3843(4)
H1A H -0.0945 0.7661 0.2676
H2A H -0.2121 0.7662 0.1682
H3A H -0.0231 0.6442 0.0951
H4A H -0.1510 0.5456 0.1059
N1A_2 N 0.6687(5) 0.6055(5) 0.3843(4)
C1A_2 C 0.7419(6) 0.6507(6) 0.3165(5)
C2A_2 C 0.8389(6) 0.7081(5) 0.2253(5)
H1A_2 H 0.9055 0.7661 0.2676
H2A_2 H 0.7879 0.7662 0.1682
C3A_2 C 0.9155(5) 0.5988(5) 0.1532(5)
H3A_2 H 0.9769 0.6442 0.0951
H4A_2 H 0.8490 0.5456 0.1059
C4A C 1.0000 0.5000 0.2321(5)
H5A H 1.0617 0.5527 0.2847
H6A H 0.9383 0.4473 0.2847
C3_2 C 1.0845(5) 0.4012(5) 0.1532(5)
C2_2 C 1.1611(6) 0.2919(5) 0.2253(5)
C1_2 C 1.2581(6) 0.3493(6) 0.3165(5)
N1_2 N 1.3313(5) 0.3945(5) 0.3843(4)
H1_2 H 1.0945 0.2339 0.2676
H2_2 H 1.2121 0.2338 0.1682
H3_2 H 1.0231 0.3558 0.0951
H4_2 H 1.1510 0.4544 0.1059
N1F N 0.6055(5) 0.3313(5) 0.6157(4)
N1G N 0.3945(5) 0.6687(5) 0.6157(4)
Ag1_2 Ag -0.5000 0.5000 0.5000
Ag1_3 Ag 1.5000 0.5000 0.5000
As1 As 0.5000 0.5000 1.0000
F1 F 0.6517(4) 0.4129(4) 0.9986(6)
F2 F 0.5000 0.5000 0.8466(4)
F1A F 0.3483(4) 0.5871(4) 0.9986(6)
F1F F 0.5871(4) 0.6517(4) 1.0014(6)
F1G F 0.4129(4) 0.3483(4) 1.0014(6)
F2F F 0.5000 0.5000 1.1534(4)
loop_
_geom_bond_atom_site_label_1
_geom_bond_atom_site_label_2
_geom_bond_site_symmetry_1
_geom_bond_site_symmetry_2
Ag1 N1 1_555 1_555
N1 C1 1_555 1_555
C1 C2 1_555 1_555
C2 H1 1_555 1_555
H2 C2 1_555 1_555
C3 C2 1_555 1_555
H3 C3 1_555 1_555
H4 C3 1_555 1_555
C4 C3 1_555 1_555
H5 C4 1_555 1_555
H6 C4 1_555 1_555
As1 F1 1_555 1_555
F2 As1 1_555 1_555
C3A C4 1_555 1_555
C2A C3A 1_555 1_555
C1A C2A 1_555 1_555
N1A C1A 1_555 1_555
H1A C2A 1_555 1_555
H2A C2A 1_555 1_555
H3A C3A 1_555 1_555
H4A C3A 1_555 1_555
F1A As1 1_555 1_555
F1F As1 1_555 1_555
F1G As1 1_555 1_555
F2F As1 1_555 1_555
N1A_2 Ag1 1_555 1_555
C1A_2 N1A_2 1_555 1_555
C2A_2 C1A_2 1_555 1_555
H1A_2 C2A_2 1_555 1_555
H2A_2 C2A_2 1_555 1_555
C3A_2 C2A_2 1_555 1_555
H3A_2 C3A_2 1_555 1_555
H4A_2 C3A_2 1_555 1_555
C4A C3A_2 1_555 1_555
H5A C4A 1_555 1_555
H6A C4A 1_555 1_555
C3_2 C4A 1_555 1_555
C2_2 C3_2 1_555 1_555
C1_2 C2_2 1_555 1_555
N1_2 C1_2 1_555 1_555
H1_2 C2_2 1_555 1_555
H2_2 C2_2 1_555 1_555
H3_2 C3_2 1_555 1_555
H4_2 C3_2 1_555 1_555
N1F Ag1 1_555 1_555
N1G Ag1 1_555 1_555
Ag1_2 N1A 1_555 1_555
Ag1_3 N1_2 1_555 1_555

#END
