
#######################################################################
#
#                 Cambridge Crystallographic Data Centre
#                                CCDC 
#
#######################################################################
#
# If this CIF has been generated from an entry in the Cambridge 
# Structural Database, then it will include bibliographic, chemical, 
# crystal, experimental, refinement or atomic coordinate data resulting 
# from the CCDC's data processing and validation procedures.
#
#######################################################################

data_VABNUI
_symmetry_cell_setting           orthorhombic
_symmetry_space_group_name_H-M   'P n c a'
_symmetry_Int_Tables_number      60
_space_group_name_Hall           '-P 2a 2n'
loop_
_symmetry_equiv_pos_site_id
_symmetry_equiv_pos_as_xyz
1 x,y,z
2 1/2+x,y,-z
3 1/2-x,1/2+y,1/2+z
4 x,1/2-y,1/2+z
5 -x,-y,-z
6 1/2-x,-y,z
7 1/2+x,1/2-y,1/2-z
8 -x,1/2+y,1/2-z
_cell_length_a                   9.348(2)
_cell_length_b                   10.089(2)
_cell_length_c                   21.845(2)
_cell_angle_alpha                90
_cell_angle_beta                 90
_cell_angle_gamma                90
_cell_volume                     2060.25
loop_
_atom_site_label
_atom_site_type_symbol
_atom_site_fract_x
_atom_site_fract_y
_atom_site_fract_z
Ag1 Ag 0.2500 0.0000 0.126051(17)
N1 N 0.1100(4) 0.1126(3) 0.05784(14)
C1 C 0.0632(4) 0.1857(4) 0.02449(15)
C2 C 0.0054(4) 0.2800(5) -0.01937(19)
H1 H -0.0370 0.3540 0.0024
H2 H -0.0693 0.2376 -0.0431
C3 C 0.1221(4) 0.3318(3) -0.06272(16)
H3 H 0.0796 0.3947 -0.0909
H4 H 0.1936 0.3786 -0.0389
C4 C 0.1951(4) 0.2238(4) -0.09905(15)
H5 H 0.1230 0.1725 -0.1205
H6 H 0.2441 0.1646 -0.0710
C5 C 0.3022(4) 0.2768(3) -0.14521(15)
H7 H 0.2547 0.3401 -0.1717
H8 H 0.3778 0.3231 -0.1236
C6 C 0.3677(4) 0.1680(3) -0.18413(14)
H9 H 0.2927 0.1264 -0.2080
H10 H 0.4080 0.1011 -0.1573
C7 C 0.4840(4) 0.2167(4) -0.22739(16)
H11 H 0.5599 0.2575 -0.2038
H12 H 0.5243 0.1415 -0.2491
C8 C 0.4294(4) 0.3120(4) -0.27154(16)
N2 N 0.3840(3) 0.3851(3) -0.30545(14)
N1E N 0.3900(4) -0.1126(3) 0.05784(14)
C1E C 0.4368(4) -0.1857(4) 0.02449(15)
C2E C 0.4946(4) -0.2800(5) -0.01937(19)
H1E H 0.5370 -0.3540 0.0024
H2E H 0.5693 -0.2376 -0.0431
C3E C 0.3779(4) -0.3318(3) -0.06272(16)
H3E H 0.4204 -0.3947 -0.0909
H4E H 0.3064 -0.3786 -0.0389
C4E C 0.3049(4) -0.2238(4) -0.09905(15)
H5E H 0.3770 -0.1725 -0.1205
H6E H 0.2559 -0.1646 -0.0710
C5E C 0.1978(4) -0.2768(3) -0.14521(15)
H7E H 0.2453 -0.3401 -0.1717
H8E H 0.1222 -0.3231 -0.1236
C6E C 0.1323(4) -0.1680(3) -0.18413(14)
H9E H 0.2073 -0.1264 -0.2080
H10E H 0.0920 -0.1011 -0.1573
C7E C 0.0160(4) -0.2167(4) -0.22739(16)
H11E H -0.0599 -0.2575 -0.2038
H12E H -0.0243 -0.1415 -0.2491
C8E C 0.0706(4) -0.3120(4) -0.27154(16)
N2E N 0.1160(3) -0.3851(3) -0.30545(14)
N2B N 0.1160(3) -0.1149(3) 0.19455(14)
N2C N 0.3840(3) 0.1149(3) 0.19455(14)
Ag1B Ag 0.2500 0.5000 -0.373949(17)
Ag1B_2 Ag 0.2500 -0.5000 -0.373949(17)
B1 B 0.2500 0.5000 0.12913(17)
F1 F 0.3604(5) 0.4998(11) 0.1620(2)
F2 F 0.2478(14) 0.6022(4) 0.0962(3)
F1E F 0.1396(5) 0.5002(11) 0.1620(2)
F2E F 0.2522(14) 0.3978(4) 0.0962(3)
F3? F 0.1958(17) 0.5891(11) 0.1619(2)
F4? F 0.1556(11) 0.4471(16) 0.0962(3)
loop_
_geom_bond_atom_site_label_1
_geom_bond_atom_site_label_2
_geom_bond_site_symmetry_1
_geom_bond_site_symmetry_2
Ag1 N1 1_555 1_555
N1 C1 1_555 1_555
C1 C2 1_555 1_555
C2 H1 1_555 1_555
H2 C2 1_555 1_555
C3 C2 1_555 1_555
H3 C3 1_555 1_555
H4 C3 1_555 1_555
C4 C3 1_555 1_555
H5 C4 1_555 1_555
H6 C4 1_555 1_555
C5 C4 1_555 1_555
H7 C5 1_555 1_555
H8 C5 1_555 1_555
C6 C5 1_555 1_555
H9 C6 1_555 1_555
H10 C6 1_555 1_555
C7 C6 1_555 1_555
H11 C7 1_555 1_555
H12 C7 1_555 1_555
C8 C7 1_555 1_555
N2 C8 1_555 1_555
B1 F1 1_555 1_555
F2 B1 1_555 1_555
F1E B1 1_555 1_555
F2E B1 1_555 1_555
N1E Ag1 1_555 1_555
C1E N1E 1_555 1_555
C2E C1E 1_555 1_555
H1E C2E 1_555 1_555
H2E C2E 1_555 1_555
C3E C2E 1_555 1_555
H3E C3E 1_555 1_555
H4E C3E 1_555 1_555
C4E C3E 1_555 1_555
H5E C4E 1_555 1_555
H6E C4E 1_555 1_555
C5E C4E 1_555 1_555
H7E C5E 1_555 1_555
H8E C5E 1_555 1_555
C6E C5E 1_555 1_555
H9E C6E 1_555 1_555
H10E C6E 1_555 1_555
C7E C6E 1_555 1_555
H11E C7E 1_555 1_555
H12E C7E 1_555 1_555
C8E C7E 1_555 1_555
N2E C8E 1_555 1_555
N2B Ag1 1_555 1_555
N2C Ag1 1_555 1_555
Ag1B N2 1_555 1_555
Ag1B_2 N2E 1_555 1_555

#END
