
#######################################################################
#
#                 Cambridge Crystallographic Data Centre
#                                CCDC 
#
#######################################################################
#
# If this CIF has been generated from an entry in the Cambridge 
# Structural Database, then it will include bibliographic, chemical, 
# crystal, experimental, refinement or atomic coordinate data resulting 
# from the CCDC's data processing and validation procedures.
#
#######################################################################

data_VABQIY
_symmetry_cell_setting           triclinic
_symmetry_space_group_name_H-M   'P -1'
_symmetry_Int_Tables_number      2
_space_group_name_Hall           '-P 1'
loop_
_symmetry_equiv_pos_site_id
_symmetry_equiv_pos_as_xyz
1 x,y,z
2 -x,-y,-z
_cell_length_a                   7.9024(1)
_cell_length_b                   10.6596(1)
_cell_length_c                   11.0574(1)
_cell_angle_alpha                73.664(1)
_cell_angle_beta                 86.210(1)
_cell_angle_gamma                87.668(1)
_cell_volume                     891.64
loop_
_atom_site_label
_atom_site_type_symbol
_atom_site_fract_x
_atom_site_fract_y
_atom_site_fract_z
O4 O 0.2500(16) 0.0524(10) 0.8069(8)
C13 C 0.4053(21) -0.0174(19) 0.8330(16)
C14 C 0.5080(26) 0.0045(32) 0.9372(20)
H17 H 0.223(14) 0.087(18) 0.863(11)
H18 H 0.4769(21) 0.0032(19) 0.7557(16)
H19 H 0.3818(21) -0.1099(19) 0.8543(16)
H20 H 0.6258(67) 0.012(42) 0.909(16)
H21 H 0.494(43) -0.068(19) 1.012(13)
H22 H 0.469(35) 0.084(21) 0.956(27)
C14A C 0.4920(26) -0.0045(32) 1.0628(20)
C13A C 0.5947(21) 0.0174(19) 1.1670(16)
O4A O 0.7500(16) -0.0524(10) 1.1931(8)
H17A H 0.777(14) -0.087(18) 1.137(11)
H18A H 0.5231(21) -0.0032(19) 1.2443(16)
H19A H 0.6182(21) 0.1099(19) 1.1457(16)
H20A H 0.3742(67) -0.012(42) 1.091(16)
H21A H 0.506(43) 0.068(19) 0.988(13)
H22A H 0.531(35) -0.084(21) 1.044(27)
Cl1 Cl -0.0359(3) -0.7558(2) 0.9422(2)
O5 O -0.0355(26) -0.6918(20) 0.8196(14)
O6 O -0.0378(27) -0.6409(18) 1.0076(20)
O7 O -0.2116(20) -0.8021(18) 0.9944(19)
O8 O 0.0901(24) -0.8384(21) 1.0001(23)
Cu1 Cu 0.3678(1) 0.1214(1) 0.4597(1)
O1 O 0.3395(4) -0.0497(3) 0.5702(3)
O2 O 0.3945(4) 0.2908(3) 0.3292(3)
N1 N 0.2369(4) 0.0845(3) 0.3328(3)
N2 N 0.2371(5) 0.1897(4) 0.2243(3)
C1 C 0.2262(5) -0.1358(4) 0.5611(4)
C2 C 0.1986(6) -0.2457(4) 0.6660(4)
C3 C 0.0908(6) -0.3446(5) 0.6617(5)
C4 C 0.0048(7) -0.3350(5) 0.5548(6)
C5 C 0.0245(6) -0.2280(5) 0.4523(5)
C6 C 0.1348(5) -0.1253(4) 0.4525(4)
C7 C 0.1453(6) -0.0161(4) 0.3415(4)
C8 C 0.3206(5) 0.2943(4) 0.2316(4)
C9 C 0.3225(7) 0.4124(5) 0.1187(5)
C10 C 0.4995(6) 0.4394(4) 0.0571(4)
O3 O 0.4311(6) 0.1845(4) 0.6008(4)
C11 C 0.4551(16) 0.3167(7) 0.5957(8)
C12 C 0.5175(28) 0.3486(13) 0.7100(13)
H1 H 0.1876(5) 0.1878(4) 0.1579(3)
H2 H 0.2533(6) -0.2523(4) 0.7396(4)
H3 H 0.0769(6) -0.4174(5) 0.7312(5)
H4 H -0.0668(7) -0.4013(5) 0.5524(6)
H5 H -0.0352(6) -0.2221(5) 0.3812(5)
H6 H 0.0839(6) -0.0175(4) 0.2730(4)
H7 H 0.2797(7) 0.4880(5) 0.1446(5)
H8 H 0.2478(7) 0.3988(5) 0.0576(5)
H9 H 0.5420(6) 0.3643(4) 0.0302(4)
H10 H 0.5745(6) 0.4523(4) 0.1183(4)
H11 H 0.3994(91) 0.1483(68) 0.6511(66)
H12 H 0.3478(16) 0.3632(7) 0.5764(8)
H13 H 0.5348(16) 0.3525(7) 0.5250(8)
H14 H 0.553(24) 0.4377(61) 0.6866(45)
H15 H 0.612(16) 0.292(13) 0.741(11)
H16 H 0.4275(73) 0.337(18) 0.7746(71)
Cu1A Cu 0.6322(1) -0.1214(1) 0.5403(1)
O1A O 0.6605(4) 0.0497(3) 0.4298(3)
C10A C 0.5005(6) 0.5606(4) -0.0571(4)
C9A C 0.6775(7) 0.5876(5) -0.1187(5)
C8A C 0.6794(5) 0.7057(4) -0.2316(4)
O2A O 0.6055(4) 0.7092(3) -0.3292(3)
Cu1A_2 Cu 0.6322(1) 0.8786(1) -0.4597(1)
O1A_2 O 0.6605(4) 1.0497(3) -0.5702(3)
Cu1_2 Cu 0.3678(1) 1.1214(1) -0.5403(1)
C1A C 0.7738(5) 1.1358(4) -0.5611(4)
C2A C 0.8014(6) 1.2457(4) -0.6660(4)
C3A C 0.9092(6) 1.3446(5) -0.6617(5)
C4A C 0.9952(7) 1.3350(5) -0.5548(6)
C5A C 0.9755(6) 1.2280(5) -0.4523(5)
C6A C 0.8652(5) 1.1253(4) -0.4525(4)
C7A C 0.8547(6) 1.0161(4) -0.3415(4)
N1A N 0.7631(4) 0.9155(3) -0.3328(3)
O1_2 O 0.3395(4) 0.9503(3) -0.4298(3)
O3A O 0.5689(6) 0.8155(4) -0.6008(4)
C11A C 0.5449(16) 0.6833(7) -0.5957(8)
C12A C 0.4825(28) 0.6514(13) -0.7100(13)
H14A H 0.447(24) 0.5623(61) -0.6866(45)
H15A H 0.388(16) 0.708(13) -0.741(11)
H16A H 0.5725(73) 0.663(18) -0.7746(71)
H12A H 0.6522(16) 0.6368(7) -0.5764(8)
H13A H 0.4652(16) 0.6475(7) -0.5250(8)
H11A H 0.6006(91) 0.8517(68) -0.6511(66)
N2A N 0.7629(5) 0.8103(4) -0.2243(3)
H1A H 0.8124(5) 0.8122(4) -0.1579(3)
H6A H 0.9161(6) 1.0175(4) -0.2730(4)
H5A H 1.0352(6) 1.2221(5) -0.3812(5)
H4A H 1.0668(7) 1.4013(5) -0.5524(6)
H3A H 0.9231(6) 1.4174(5) -0.7312(5)
H2A H 0.7467(6) 1.2523(4) -0.7396(4)
H7A H 0.7203(7) 0.5120(5) -0.1446(5)
H8A H 0.7522(7) 0.6012(5) -0.0576(5)
H9A H 0.4580(6) 0.6357(4) -0.0302(4)
H10A H 0.4255(6) 0.5477(4) -0.1183(4)
O9? O 0.1317(23) -0.8082(23) 0.9824(24)
O10? O -0.1409(27) -0.7602(23) 1.0522(17)
O11? O -0.0238(30) -0.6329(17) 0.8553(20)
O12? O -0.0914(31) -0.8454(21) 0.8736(20)
O13? O -0.0273(39) -0.8226(27) 1.0675(17)
O14? O 0.0608(36) -0.6398(22) 0.8994(27)
O15? O -0.2012(25) -0.7270(28) 0.8946(28)
O16? O 0.0412(37) -0.8490(25) 0.8688(25)
O17? O 0.0516(38) -0.8595(26) 1.0283(26)
O18? O -0.0978(37) -0.6679(29) 1.0161(27)
O19? O 0.1017(31) -0.6801(27) 0.8523(24)
O20? O -0.1473(33) -0.7916(30) 0.8703(25)
loop_
_geom_bond_atom_site_label_1
_geom_bond_atom_site_label_2
_geom_bond_site_symmetry_1
_geom_bond_site_symmetry_2
Cu1 O1 1_555 1_555
O1 C1 1_555 1_555
O2 Cu1 1_555 1_555
N1 Cu1 1_555 1_555
N2 N1 1_555 1_555
C1 C2 1_555 1_555
C2 C3 1_555 1_555
C3 C4 1_555 1_555
C4 C5 1_555 1_555
C5 C6 1_555 1_555
C6 C1 1_555 1_555
C7 N1 1_555 1_555
C8 O2 1_555 1_555
C9 C8 1_555 1_555
C10 C9 1_555 1_555
O3 Cu1 1_555 1_555
C11 O3 1_555 1_555
C12 C11 1_555 1_555
O4 C13 1_555 1_555
C13 C14 1_555 1_555
C14 H20 1_555 1_555
Cl1 O5 1_555 1_555
O6 Cl1 1_555 1_555
O7 Cl1 1_555 1_555
O8 Cl1 1_555 1_555
H1 N2 1_555 1_555
H2 C2 1_555 1_555
H3 C3 1_555 1_555
H4 C4 1_555 1_555
H5 C5 1_555 1_555
H6 C7 1_555 1_555
H7 C9 1_555 1_555
H8 C9 1_555 1_555
H9 C10 1_555 1_555
H10 C10 1_555 1_555
H11 O3 1_555 1_555
H12 C11 1_555 1_555
H13 C11 1_555 1_555
H14 C12 1_555 1_555
H15 C12 1_555 1_555
H16 C12 1_555 1_555
H17 O4 1_555 1_555
H18 C13 1_555 1_555
H19 C13 1_555 1_555
H21 C14 1_555 1_555
H22 C14 1_555 1_555
Cu1A O1 1_555 1_555
O1A Cu1 1_555 1_555
C10A C10 1_555 1_555
C9A C10A 1_555 1_555
C8A C9A 1_555 1_555
O2A C8A 1_555 1_555
Cu1A_2 O2A 1_555 1_555
O1A_2 Cu1A_2 1_555 1_555
Cu1_2 O1A_2 1_555 1_555
C1A O1A_2 1_555 1_555
C2A C1A 1_555 1_555
C3A C2A 1_555 1_555
C4A C3A 1_555 1_555
C5A C4A 1_555 1_555
C6A C1A 1_555 1_555
C7A C6A 1_555 1_555
N1A Cu1A_2 1_555 1_555
O1_2 Cu1A_2 1_555 1_555
O3A Cu1A_2 1_555 1_555
C11A O3A 1_555 1_555
C12A C11A 1_555 1_555
H14A C12A 1_555 1_555
H15A C12A 1_555 1_555
H16A C12A 1_555 1_555
H12A C11A 1_555 1_555
H13A C11A 1_555 1_555
H11A O3A 1_555 1_555
N2A C8A 1_555 1_555
H1A N2A 1_555 1_555
H6A C7A 1_555 1_555
H5A C5A 1_555 1_555
H4A C4A 1_555 1_555
H3A C3A 1_555 1_555
H2A C2A 1_555 1_555
H7A C9A 1_555 1_555
H8A C9A 1_555 1_555
H9A C10A 1_555 1_555
H10A C10A 1_555 1_555
C14A C14 1_555 1_555
C13A C14A 1_555 1_555
O4A C13A 1_555 1_555
H17A O4A 1_555 1_555
H18A C13A 1_555 1_555
H19A C13A 1_555 1_555
H20A C14A 1_555 1_555
H21A C14 1_555 1_555
H22A C14 1_555 1_555
N2 C8 1_555 1_555
C6 C7 1_555 1_555
H21 C14A 1_555 1_555
H21 H22A 1_555 1_555
H22 C14A 1_555 1_555
H22 H21A 1_555 1_555
Cu1A O1A 1_555 1_555
Cu1_2 O1_2 1_555 1_555
C5A C6A 1_555 1_555
C7A N1A 1_555 1_555
N1A N2A 1_555 1_555
C14A H21A 1_555 1_555
C14A H22A 1_555 1_555

#END
