
#######################################################################
#
#                 Cambridge Crystallographic Data Centre
#                                CCDC 
#
#######################################################################
#
# If this CIF has been generated from an entry in the Cambridge 
# Structural Database, then it will include bibliographic, chemical, 
# crystal, experimental, refinement or atomic coordinate data resulting 
# from the CCDC's data processing and validation procedures.
#
#######################################################################

data_VABQAQ
_symmetry_cell_setting           triclinic
_symmetry_space_group_name_H-M   'P -1'
_symmetry_Int_Tables_number      2
_space_group_name_Hall           '-P 1'
loop_
_symmetry_equiv_pos_site_id
_symmetry_equiv_pos_as_xyz
1 x,y,z
2 -x,-y,-z
_cell_length_a                   12.550(3)
_cell_length_b                   13.413(3)
_cell_length_c                   13.540(4)
_cell_angle_alpha                117.12(2)
_cell_angle_beta                 115.73(2)
_cell_angle_gamma                92.13(2)
_cell_volume                     1747.2
loop_
_atom_site_label
_atom_site_type_symbol
_atom_site_fract_x
_atom_site_fract_y
_atom_site_fract_z
Cu1 Cu 0.1602 0.3725 0.2583
Cu2 Cu 0.2478 0.1650 0.3459
O1 O 0.2448(6) 0.2480(5) 0.2544(6)
O2 O 0.3074(5) 0.4874(5) 0.2874(6)
O3 O 0.0124(6) 0.4236(6) 0.2322(6)
O4 O 0.3374(6) 0.5611(6) 0.1800(6)
O5 O -0.1705(6) 0.4063(6) 0.0790(6)
O6 O 0.2828(6) 0.1700(6) 0.5039(6)
O7 O 0.2128(6) -0.0040(5) 0.1904(6)
O8 O 0.4385(6) 0.2051(6) 0.6904(6)
O9 O 0.3137(6) -0.1366(5) 0.1471(7)
N1 N 0.0935(7) 0.3168(6) 0.0710(7)
N2 N 0.4276(7) 0.1696(6) 0.4058(7)
C1 C 0.3027(9) 0.2180(8) 0.1847(9)
C2 C 0.2476(9) 0.2018(8) 0.0643(9)
C3 C 0.3079(10) 0.1717(7) -0.0060(9)
C4 C 0.4273(10) 0.1588(8) 0.0438(11)
C5 C 0.4935(10) 0.1290(9) -0.0316(11)
C6 C 0.4824(9) 0.1754(8) 0.1667(9)
C7 C 0.4235(9) 0.2070(8) 0.2406(9)
C8 C 0.1160(9) 0.2009(8) -0.0017(9)
C9 C 0.4934(9) 0.2399(8) 0.3789(9)
C10 C 0.1543(9) 0.4128(8) 0.0674(9)
C11 C 0.2782(9) 0.4946(8) 0.1886(9)
C12 C -0.0432(8) 0.2999(8) 0.0140(8)
C13 C -0.0721(9) 0.3828(8) 0.1131(10)
C14 C 0.4895(9) 0.2211(8) 0.5476(9)
C15 C 0.4002(10) 0.1962(8) 0.5862(10)
C16 C 0.4267(9) 0.0433(8) 0.3410(9)
C17 C 0.3096(9) -0.0395(9) 0.2162(10)
N3 N 0.2231(7) 0.4435(6) 0.4463(7)
C18 C 0.1471(10) 0.4683(9) 0.4958(10)
C19 C 0.1924(11) 0.5229(10) 0.6254(11)
C20 C 0.3190(10) 0.5569(9) 0.7092(10)
C21 C 0.3938(10) 0.5297(9) 0.6566(10)
C22 C 0.3423(9) 0.4741(8) 0.5252(9)
N4 N 0.0693(7) 0.1522(7) 0.2928(8)
C23 C -0.0097(9) 0.1161(8) 0.1716(10)
C24 C -0.1331(10) 0.1063(9) 0.1258(10)
C25 C -0.1758(11) 0.1337(11) 0.2086(12)
C26 C -0.0966(11) 0.1681(12) 0.3330(11)
C27 C 0.0281(9) 0.1777(10) 0.3734(10)
O12 O 0.4390(6) 0.5821(5) -0.0116(6)
C32 C 0.5679(9) 0.6050(9) 0.0315(10)
C33 C 0.3780(10) 0.4577(8) -0.0973(10)
Na1 Na 0.3603(3) 0.6927(3) 0.1192(3)
H1 H 0.2669 0.1603 -0.0906
H2 H 0.5726 0.1235 0.0191
H3 H 0.4468 0.0557 -0.1119
H4 H 0.5053 0.1899 -0.0479
H5 H 0.5631 0.1652 0.2023
H6 H 0.0926 0.1842 -0.0865
H7 H 0.0643 0.1392 -0.0106
H8 H 0.5738 0.2289 0.3999
H9 H 0.5047 0.3214 0.4334
H10 H 0.0987 0.4584 0.0530
H11 H 0.1671 0.3774 -0.0046
H12 H -0.0850 0.2206 -0.0199
H13 H -0.0730 0.3138 -0.0556
H14 H 0.5212 0.3045 0.5900
H15 H 0.5578 0.1911 0.5750
H16 H 0.4416 0.0165 0.3993
H17 H 0.4941 0.0396 0.3247
H18 H 0.0596 0.4465 0.4386
H19 H 0.1365 0.5391 0.6576
H20 H 0.3521 0.5959 0.8005
H21 H 0.4817 0.5515 0.7114
H22 H 0.3951 0.4555 0.4891
H23 H 0.0213 0.0964 0.1136
H24 H -0.1877 0.0813 0.0372
H25 H -0.2617 0.1286 0.1791
H26 H -0.1266 0.1855 0.3916
H27 H 0.0849 0.2029 0.4615
H36 H 0.6080 0.6878 0.0885
H37 H 0.5795 0.5785 -0.0410
H38 H 0.2911 0.4427 -0.1265
H39 H 0.3896 0.4304 -0.1699
Na1A Na 0.6397(3) 0.3073(3) 0.8808(3)
O8A O 0.5615(6) 0.7949(6) 0.3096(6)
Na1A_2 Na -0.3603(3) 0.3073(3) -0.1192(3)
O9_2 O 0.3137(6) 0.8634(5) 0.1471(7)
O5A O 0.1705(6) 0.5937(6) -0.0790(6)
C33A C 0.6220(10) 0.5423(8) 0.0973(10)
C32A C 0.4321(9) 0.3950(9) -0.0315(10)
H36A H 0.3920 0.3122 -0.0885
H37A H 0.4205 0.4215 0.0410
H38A H 0.7089 0.5573 0.1265
H39A H 0.6104 0.5696 0.1699
Na1_2 Na 0.3603(3) -0.3073(3) 0.1192(3)
O10 O 0.2298(8) 0.8138(7) 0.4788(9)
O11 O 0.0102(11) 0.7803(8) 0.2667(9)
C28 C 0.1481(12) 0.7023(10) 0.3715(14)
C29 C 0.0216(14) 0.6977(11) 0.3088(13)
C30 C 0.0922(18) 0.8948(13) 0.3668(16)
C31 C 0.2148(15) 0.8929(14) 0.4400(18)
H28 H 0.1565 0.6470 0.3989
H29 H 0.1729 0.6784 0.3082
H30 H -0.0298 0.6204 0.2373
H31 H -0.0050 0.7204 0.3706
H32 H 0.0758 0.8848 0.4252
H33 H 0.0655 0.9641 0.3881
H34 H 0.2494 0.8760 0.3853
H35 H 0.2618 0.9701 0.5142
O13 O 0.7845(27) 0.8462(23) 0.3160(25)
loop_
_geom_bond_atom_site_label_1
_geom_bond_atom_site_label_2
_geom_bond_site_symmetry_1
_geom_bond_site_symmetry_2
Cu1 O1 1_555 1_555
Cu2 O1 1_555 1_555
O1 C1 1_555 1_555
O2 Cu1 1_555 1_555
O3 Cu1 1_555 1_555
O4 C11 1_555 1_555
O5 C13 1_555 1_555
O6 Cu2 1_555 1_555
O7 Cu2 1_555 1_555
O8 C15 1_555 1_555
O9 C17 1_555 1_555
N1 Cu1 1_555 1_555
N2 Cu2 1_555 1_555
C1 C2 1_555 1_555
C2 C3 1_555 1_555
C3 C4 1_555 1_555
C4 C5 1_555 1_555
C5 H2 1_555 1_555
C6 C4 1_555 1_555
C7 C1 1_555 1_555
C8 N1 1_555 1_555
C9 N2 1_555 1_555
C10 N1 1_555 1_555
C11 O2 1_555 1_555
C12 N1 1_555 1_555
C13 O3 1_555 1_555
C14 N2 1_555 1_555
C15 O6 1_555 1_555
C16 N2 1_555 1_555
C17 O7 1_555 1_555
N3 Cu1 1_555 1_555
C18 N3 1_555 1_555
C19 C18 1_555 1_555
C20 C19 1_555 1_555
C21 C20 1_555 1_555
C22 N3 1_555 1_555
N4 Cu2 1_555 1_555
C23 N4 1_555 1_555
C24 C23 1_555 1_555
C25 C24 1_555 1_555
C26 C25 1_555 1_555
C27 N4 1_555 1_555
O10 C28 1_555 1_555
O11 C29 1_555 1_555
C28 C29 1_555 1_555
C29 H30 1_555 1_555
C30 O11 1_555 1_555
C31 O10 1_555 1_555
O12 C32 1_555 1_555
C32 H36 1_555 1_555
C33 O12 1_555 1_555
Na1 O4 1_555 1_555
H1 C3 1_555 1_555
H3 C5 1_555 1_555
H4 C5 1_555 1_555
H5 C6 1_555 1_555
H6 C8 1_555 1_555
H7 C8 1_555 1_555
H8 C9 1_555 1_555
H9 C9 1_555 1_555
H10 C10 1_555 1_555
H11 C10 1_555 1_555
H12 C12 1_555 1_555
H13 C12 1_555 1_555
H14 C14 1_555 1_555
H15 C14 1_555 1_555
H16 C16 1_555 1_555
H17 C16 1_555 1_555
H18 C18 1_555 1_555
H19 C19 1_555 1_555
H20 C20 1_555 1_555
H21 C21 1_555 1_555
H22 C22 1_555 1_555
H23 C23 1_555 1_555
H24 C24 1_555 1_555
H25 C25 1_555 1_555
H26 C26 1_555 1_555
H27 C27 1_555 1_555
H28 C28 1_555 1_555
H29 C28 1_555 1_555
H31 C29 1_555 1_555
H32 C30 1_555 1_555
H33 C30 1_555 1_555
H34 C31 1_555 1_555
H35 C31 1_555 1_555
H37 C32 1_555 1_555
H38 C33 1_555 1_555
H39 C33 1_555 1_555
Na1A O8 1_555 1_555
O8A Na1 1_555 1_555
Na1A_2 O5 1_555 1_555
O9_2 Na1 1_555 1_555
O5A Na1 1_555 1_555
C33A C32 1_555 1_555
C32A C33 1_555 1_555
H36A C32A 1_555 1_555
H37A C32A 1_555 1_555
H38A C33A 1_555 1_555
H39A C33A 1_555 1_555
Na1_2 O9 1_555 1_555
C2 C8 1_555 1_555
C6 C7 1_555 1_555
C7 C9 1_555 1_555
C10 C11 1_555 1_555
C12 C13 1_555 1_555
C14 C15 1_555 1_555
C16 C17 1_555 1_555
C21 C22 1_555 1_555
C26 C27 1_555 1_555
C30 C31 1_555 1_555
O12 Na1 1_555 1_555

#END
