
#######################################################################
#
#                 Cambridge Crystallographic Data Centre
#                                CCDC 
#
#######################################################################
#
# If this CIF has been generated from an entry in the Cambridge 
# Structural Database, then it will include bibliographic, chemical, 
# crystal, experimental, refinement or atomic coordinate data resulting 
# from the CCDC's data processing and validation procedures.
#
#######################################################################

data_VACFUB
_symmetry_cell_setting           trigonal
_symmetry_space_group_name_H-M   'P 31'
_symmetry_Int_Tables_number      144
_space_group_name_Hall           'P 31'
loop_
_symmetry_equiv_pos_site_id
_symmetry_equiv_pos_as_xyz
1 x,y,z
2 -y,x-y,1/3+z
3 -x+y,-x,2/3+z
_cell_length_a                   15.526(5)
_cell_length_b                   15.526(5)
_cell_length_c                   6.258(3)
_cell_angle_alpha                90
_cell_angle_beta                 90
_cell_angle_gamma                120
_cell_volume                     1306.43
loop_
_atom_site_label
_atom_site_type_symbol
_atom_site_fract_x
_atom_site_fract_y
_atom_site_fract_z
Zn1 Zn 0.83327(6) 0.16661(6) 0.04845(15)
O1 O 0.7288(4) 0.1480(4) 0.2481(8)
O2 O 0.9385(4) 0.1863(4) 0.2485(8)
N1 N 1.2382(5) 0.1910(5) 0.5354(10)
N2 N 0.4278(5) 0.1419(5) 0.5350(9)
C1 C 1.0188(6) 0.2077(7) 0.1499(14)
C2 C 0.6483(6) 0.1260(6) 0.1513(14)
O3 O 0.6319(5) 0.1078(6) -0.0400(9)
C3 C 1.0975(5) 0.2047(6) 0.2921(11)
C4 C 1.1473(6) 0.1582(6) 0.6095(13)
O4 O 1.0344(5) 0.2250(6) -0.0402(10)
C5 C 0.5691(5) 0.1275(6) 0.2907(12)
C6 C 0.4722(6) 0.0919(6) 0.2120(13)
C7 C 1.0721(6) 0.1635(7) 0.4924(13)
C8 C 0.5934(6) 0.1693(7) 0.4922(13)
C9 C 1.1943(6) 0.2409(7) 0.2126(13)
C10 C 0.5198(7) 0.1740(6) 0.6104(13)
C11 C 1.2633(6) 0.2320(6) 0.3405(13)
C12 C 0.4054(6) 0.1021(6) 0.3392(13)
N1A N 0.8090(5) 0.0472(7) -0.1313(10)
N2A N 0.8581(5) 0.2859(7) -0.1317(9)
Zn1B Zn 1.33334(8) 0.16673(6) 0.71512(15)
Zn1B_2 Zn 0.33334(8) 0.16673(6) 0.71512(15)
O5 O 0.1004(17) 0.4764(19) 0.046(4)
O6 O 0.559(2) 0.865(2) 0.051(5)
loop_
_geom_bond_atom_site_label_1
_geom_bond_atom_site_label_2
_geom_bond_site_symmetry_1
_geom_bond_site_symmetry_2
Zn1 O1 1_555 1_555
O1 C2 1_555 1_555
O2 Zn1 1_555 1_555
N1 C4 1_555 1_555
N2 C10 1_555 1_555
C1 O2 1_555 1_555
C2 O3 1_555 1_555
C3 C1 1_555 1_555
C4 C7 1_555 1_555
O4 C1 1_555 1_555
C5 C2 1_555 1_555
C6 C5 1_555 1_555
C7 C3 1_555 1_555
C8 C5 1_555 1_555
C9 C3 1_555 1_555
C10 C8 1_555 1_555
C11 N1 1_555 1_555
C12 N2 1_555 1_555
N1A Zn1 1_555 1_555
N2A Zn1 1_555 1_555
Zn1B N1 1_555 1_555
Zn1B_2 N2 1_555 1_555
C6 C12 1_555 1_555
C9 C11 1_555 1_555

#END
