
#######################################################################
#
#                 Cambridge Crystallographic Data Centre
#                                CCDC 
#
#######################################################################
#
# If this CIF has been generated from an entry in the Cambridge 
# Structural Database, then it will include bibliographic, chemical, 
# crystal, experimental, refinement or atomic coordinate data resulting 
# from the CCDC's data processing and validation procedures.
#
#######################################################################

data_VAFCAH
_symmetry_cell_setting           orthorhombic
_symmetry_space_group_name_H-M   'P b c n'
_symmetry_Int_Tables_number      60
_space_group_name_Hall           '-P 2n 2ab'
loop_
_symmetry_equiv_pos_site_id
_symmetry_equiv_pos_as_xyz
1 x,y,z
2 1/2+x,1/2+y,1/2-z
3 x,-y,1/2+z
4 1/2-x,1/2+y,z
5 -x,-y,-z
6 1/2-x,1/2-y,1/2+z
7 -x,y,1/2-z
8 1/2+x,1/2-y,-z
_cell_length_a                   12.2746(3)
_cell_length_b                   8.0820(2)
_cell_length_c                   25.7209(8)
_cell_angle_alpha                90
_cell_angle_beta                 90
_cell_angle_gamma                90
_cell_volume                     2551.6
loop_
_atom_site_label
_atom_site_type_symbol
_atom_site_fract_x
_atom_site_fract_y
_atom_site_fract_z
La1 La 0.194403(11) 0.038724(19) 0.594684(7)
O1 O 0.38072(14) -0.0561(3) 0.59129(8)
O2 O 0.46309(14) -0.2712(2) 0.62780(9)
O3 O 0.77559(14) 0.2212(2) 0.46744(8)
O4 O 0.61813(15) 0.3383(2) 0.48882(8)
O5 O 0.20476(15) -0.2635(2) 0.64969(8)
O6 O 0.13218(16) -0.0414(3) 0.68412(9)
O7 O 0.01721(17) -0.1044(3) 0.57785(10)
N1 N 0.8537(2) -0.0307(4) 0.65166(13)
N2 N 0.0000 -0.7285(5) 0.7500
C1 C 0.7619(2) -0.0011(3) 0.62035(12)
C2 C 0.6606(2) -0.0722(3) 0.63189(12)
H1 H 0.6528 -0.1378 0.6614
C3 C 0.57112(19) -0.0450(4) 0.59931(12)
C4 C 0.5821(2) 0.0599(3) 0.55667(12)
H2 H 0.5216 0.0864 0.5366
C5 C 0.6833(2) 0.1246(3) 0.54426(11)
C6 C 0.7732(2) 0.0924(4) 0.57470(12)
H3 H 0.8412 0.1325 0.5650
C7 C 0.4652(2) -0.1286(4) 0.60738(12)
C8 C 0.6929(2) 0.2337(3) 0.49787(12)
C9 C 0.0000 -0.5568(5) 0.7500
C10 C 0.0742(2) -0.4691(4) 0.71941(13)
H4 H 0.1253 -0.5259 0.6996
C11 C 0.0720(2) -0.2961(3) 0.71854(12)
C12 C 0.0000 -0.2112(5) 0.7500
H5 H 0.0000 -0.0962 0.7500
C13 C 0.1419(2) -0.1961(4) 0.68266(13)
H6 H 0.896(3) 0.041(5) 0.6566(17)
H7 H 0.851(3) -0.081(5) 0.6778(18)
H8 H 0.033(4) -0.773(5) 0.734(2)
H9 H -0.004(3) -0.131(6) 0.5500(18)
H10 H -0.028(3) -0.127(6) 0.5994(18)
H8F H -0.033(4) -0.773(5) 0.766(2)
C10F C -0.0742(2) -0.4691(4) 0.78059(13)
H4F H -0.1253 -0.5259 0.8004
C11F C -0.0720(2) -0.2961(3) 0.78146(12)
C13F C -0.1419(2) -0.1961(4) 0.81734(13)
O5F O -0.20476(15) -0.2635(2) 0.85031(8)
O6F O -0.13218(16) -0.0414(3) 0.81588(9)
O1C O 0.11928(14) 0.4439(3) 0.59129(8)
O2C O 0.03691(14) 0.2288(2) 0.62780(9)
O3C O -0.27559(14) 0.7212(2) 0.46744(8)
O4C O -0.11813(15) 0.8383(2) 0.48882(8)
N1C N -0.3537(2) 0.4693(4) 0.65166(13)
C1C C -0.2619(2) 0.4989(3) 0.62035(12)
C2C C -0.1606(2) 0.4278(3) 0.63189(12)
H1C H -0.1528 0.3622 0.6614
C3C C -0.07112(19) 0.4550(4) 0.59931(12)
C4C C -0.0821(2) 0.5599(3) 0.55667(12)
H2C H -0.0216 0.5864 0.5366
C5C C -0.1833(2) 0.6246(3) 0.54426(11)
C6C C -0.2732(2) 0.5924(4) 0.57470(12)
H3C H -0.3412 0.6325 0.5650
C7C C 0.0348(2) 0.3714(4) 0.60738(12)
C8C C -0.1929(2) 0.7337(3) 0.49787(12)
H6C H -0.396(3) 0.541(5) 0.6566(17)
H7C H -0.351(3) 0.419(5) 0.6778(18)
La1C La 0.305597(11) 0.538724(19) 0.594684(7)
O7C O 0.48279(17) 0.3956(3) 0.57785(10)
H9C H 0.504(3) 0.369(6) 0.5500(18)
H10C H 0.528(3) 0.373(6) 0.5994(18)
O3D O 0.22441(14) -0.2212(2) 0.53256(8)
O3G O 0.27559(14) 0.2788(2) 0.53256(8)
O4G O 0.11813(15) 0.1617(2) 0.51118(8)
O5C O 0.29524(15) 0.2365(2) 0.64969(8)
La1C_2 La 0.305597(11) -0.461276(19) 0.594684(7)
La1D La 0.805597(11) -0.038724(19) 0.405316(7)
La1G La 0.694403(11) 0.461276(19) 0.405316(7)
La1A La -0.305597(11) -0.461276(19) 0.905316(7)
La1F La -0.194403(11) 0.038724(19) 0.905316(7)
La1D_2 La -0.194403(11) 0.961276(19) 0.405316(7)
La1G_2 La -0.305597(11) 0.461276(19) 0.405316(7)
O2_2 O 0.46309(14) 0.7288(2) 0.62780(9)
O3D_2 O 0.22441(14) 0.7788(2) 0.53256(8)
O4D O 0.38187(15) 0.6617(2) 0.51118(8)
O5_2 O 0.20476(15) 0.7365(2) 0.64969(8)
O6C O 0.36782(16) 0.4586(3) 0.68412(9)
loop_
_geom_bond_atom_site_label_1
_geom_bond_atom_site_label_2
_geom_bond_site_symmetry_1
_geom_bond_site_symmetry_2
La1 O1 1_555 1_555
O1 C7 1_555 1_555
O2 C7 1_555 1_555
O3 C8 1_555 1_555
O4 C8 1_555 1_555
O5 La1 1_555 1_555
O6 La1 1_555 1_555
O7 La1 1_555 1_555
N1 C1 1_555 1_555
N2 C9 1_555 1_555
C1 C2 1_555 1_555
C2 H1 1_555 1_555
C3 C2 1_555 1_555
C4 C3 1_555 1_555
H2 C4 1_555 1_555
C5 C4 1_555 1_555
C6 C1 1_555 1_555
H3 C6 1_555 1_555
C7 C3 1_555 1_555
C8 C5 1_555 1_555
C9 C10 1_555 1_555
C10 H4 1_555 1_555
C11 C10 1_555 1_555
C12 C11 1_555 1_555
H5 C12 1_555 1_555
C13 O5 1_555 1_555
H6 N1 1_555 1_555
H7 N1 1_555 1_555
H8 N2 1_555 1_555
H9 O7 1_555 1_555
H10 O7 1_555 1_555
H8F N2 1_555 1_555
C10F C9 1_555 1_555
H4F C10F 1_555 1_555
C11F C12 1_555 1_555
C13F C11F 1_555 1_555
O5F C13F 1_555 1_555
O6F C13F 1_555 1_555
O1C C7C 1_555 1_555
O2C La1 1_555 1_555
O3C C8C 1_555 1_555
O4C C8C 1_555 1_555
N1C C1C 1_555 1_555
C1C C2C 1_555 1_555
C2C H1C 1_555 1_555
C3C C2C 1_555 1_555
C4C C3C 1_555 1_555
H2C C4C 1_555 1_555
C5C C4C 1_555 1_555
C6C C1C 1_555 1_555
H3C C6C 1_555 1_555
C7C O2C 1_555 1_555
C8C C5C 1_555 1_555
H6C N1C 1_555 1_555
H7C N1C 1_555 1_555
La1C O1C 1_555 1_555
O7C La1C 1_555 1_555
H9C O7C 1_555 1_555
H10C O7C 1_555 1_555
O3D La1 1_555 1_555
O3G La1 1_555 1_555
O4G La1 1_555 1_555
O5C La1 1_555 1_555
La1C_2 O2 1_555 1_555
La1D O3 1_555 1_555
La1G O3 1_555 1_555
La1A O5F 1_555 1_555
La1F O5F 1_555 1_555
La1D_2 O3C 1_555 1_555
La1G_2 O3C 1_555 1_555
O2_2 La1C 1_555 1_555
O3D_2 La1C 1_555 1_555
O4D La1C 1_555 1_555
O5_2 La1C 1_555 1_555
O6C La1C 1_555 1_555
O4 La1G 1_555 1_555
O5 La1C_2 1_555 1_555
O6 C13 1_555 1_555
C5 C6 1_555 1_555
C11 C13 1_555 1_555
C10F C11F 1_555 1_555
O6F La1F 1_555 1_555
O4C La1D_2 1_555 1_555
C3C C7C 1_555 1_555
C5C C6C 1_555 1_555
La1C O3G 1_555 1_555
La1C O5C 1_555 1_555
O3D La1C_2 1_555 1_555

#END
