
#######################################################################
#
#                 Cambridge Crystallographic Data Centre
#                                CCDC 
#
#######################################################################
#
# If this CIF has been generated from an entry in the Cambridge 
# Structural Database, then it will include bibliographic, chemical, 
# crystal, experimental, refinement or atomic coordinate data resulting 
# from the CCDC's data processing and validation procedures.
#
#######################################################################

data_VAFFAL
_symmetry_cell_setting           tetragonal
_symmetry_space_group_name_H-M   'P 4/n c c'
_symmetry_Int_Tables_number      130
_space_group_name_Hall           '-P 4a 2ac'
loop_
_symmetry_equiv_pos_site_id
_symmetry_equiv_pos_as_xyz
1 x,y,z
2 1/2-x,1/2-y,z
3 1/2+x,-y,1/2-z
4 -x,1/2+y,1/2-z
5 -y,-x,1/2-z
6 1/2+y,1/2+x,1/2-z
7 y,1/2-x,z
8 1/2-y,x,z
9 -x,-y,-z
10 1/2+x,1/2+y,-z
11 1/2-x,y,1/2+z
12 x,1/2-y,1/2+z
13 y,x,1/2+z
14 1/2-y,1/2-x,1/2+z
15 -y,1/2+x,-z
16 1/2+y,-x,-z
_cell_length_a                   12.5740(19)
_cell_length_b                   12.5740(19)
_cell_length_c                   17.271(3)
_cell_angle_alpha                90
_cell_angle_beta                 90
_cell_angle_gamma                90
_cell_volume                     2730.64
loop_
_atom_site_label
_atom_site_type_symbol
_atom_site_fract_x
_atom_site_fract_y
_atom_site_fract_z
Cr1 Cr 0.2500 0.2500 0.016308(9)
F1 F 0.2500 0.2500 0.12487(4)
F2 F 0.2500 0.2500 -0.09159(4)
N1 N 0.40303(4) 0.18645(4) 0.01585(3)
C1 C 0.46010(5) 0.18140(5) 0.08198(3)
H1 H 0.4291 0.2064 0.1287
C2 C 0.44712(5) 0.15081(5) -0.05048(3)
H2 H 0.4069 0.1541 -0.0970
C3 C 0.56267(5) 0.14075(6) 0.08365(4)
H3 H 0.6013 0.1379 0.1309
C4 C 0.60798(5) 0.10417(5) 0.01527(4)
H4 H 0.6781 0.0760 0.0151
C5 C 0.54952(5) 0.10941(5) -0.05282(4)
H5 H 0.5791 0.0851 -0.1003
Na1 Na 0.2500 0.2500 0.26907(3)
O1 O 0.15351(4) 0.08988(4) 0.27306(3)
H6 H 0.0875 0.0827 0.2685
H7 H 0.1849 0.0354 0.2766
F2J F 0.2500 0.2500 0.40841(4)
N1A N 0.09697(4) 0.31355(4) 0.01585(3)
N1F N 0.18645(4) 0.09697(4) 0.01585(3)
N1G N 0.31355(4) 0.40303(4) 0.01585(3)
C1A C 0.03990(5) 0.31860(5) 0.08198(3)
C1F C 0.18140(5) 0.03990(5) 0.08198(3)
C1G C 0.31860(5) 0.46010(5) 0.08198(3)
H1A H 0.0709 0.2936 0.1287
H1F H 0.2064 0.0709 0.1287
H1G H 0.2936 0.4291 0.1287
C2A C 0.05288(5) 0.34919(5) -0.05048(3)
C2F C 0.15081(5) 0.05288(5) -0.05048(3)
C2G C 0.34919(5) 0.44712(5) -0.05048(3)
H2A H 0.0931 0.3459 -0.0970
H2F H 0.1541 0.0931 -0.0970
H2G H 0.3459 0.4069 -0.0970
C3A C -0.06267(5) 0.35925(6) 0.08365(4)
C3F C 0.14075(6) -0.06267(5) 0.08365(4)
C3G C 0.35925(6) 0.56267(5) 0.08365(4)
H3A H -0.1013 0.3621 0.1309
H3F H 0.1379 -0.1013 0.1309
H3G H 0.3621 0.6013 0.1309
C4A C -0.10798(5) 0.39583(5) 0.01527(4)
C4F C 0.10417(5) -0.10798(5) 0.01527(4)
C4G C 0.39583(5) 0.60798(5) 0.01527(4)
H4A H -0.1781 0.4240 0.0151
H4F H 0.0760 -0.1781 0.0151
H4G H 0.4240 0.6781 0.0151
C5A C -0.04952(5) 0.39059(5) -0.05282(4)
C5F C 0.10941(5) -0.04952(5) -0.05282(4)
C5G C 0.39059(5) 0.54952(5) -0.05282(4)
H5A H -0.0791 0.4149 -0.1003
H5F H 0.0851 -0.0791 -0.1003
H5G H 0.4149 0.5791 -0.1003
Na1J Na 0.2500 0.2500 -0.23093(3)
O1A O 0.34649(4) 0.41012(4) 0.27306(3)
O1F O 0.08988(4) 0.34649(4) 0.27306(3)
O1G O 0.41012(4) 0.15351(4) 0.27306(3)
H6A H 0.4125 0.4173 0.2685
H6F H 0.0827 0.4125 0.2685
H6G H 0.4173 0.0875 0.2685
H7A H 0.3151 0.4646 0.2766
H7F H 0.0354 0.3151 0.2766
H7G H 0.4646 0.1849 0.2766
C6 C 0.1381 0.6381 0.2500
O2 O 0.11462(4) 0.73910(4) 0.24076(3)
O3 O 0.0683 0.5683 0.2500
O2E O 0.23910(4) 0.61462(4) 0.25924(3)
H8? H 0.1707 0.7754 0.2422
loop_
_geom_bond_atom_site_label_1
_geom_bond_atom_site_label_2
_geom_bond_site_symmetry_1
_geom_bond_site_symmetry_2
Cr1 F1 1_555 1_555
F1 Na1 1_555 1_555
F2 Cr1 1_555 1_555
N1 Cr1 1_555 1_555
C1 N1 1_555 1_555
H1 C1 1_555 1_555
C2 N1 1_555 1_555
H2 C2 1_555 1_555
C3 C1 1_555 1_555
H3 C3 1_555 1_555
C4 C3 1_555 1_555
H4 C4 1_555 1_555
C5 C2 1_555 1_555
H5 C5 1_555 1_555
Na1 O1 1_555 1_555
O1 H6 1_555 1_555
H7 O1 1_555 1_555
C6 O2 1_555 1_555
O3 C6 1_555 1_555
F2J Na1 1_555 1_555
N1A Cr1 1_555 1_555
N1F Cr1 1_555 1_555
N1G Cr1 1_555 1_555
C1A N1A 1_555 1_555
C1F N1F 1_555 1_555
C1G N1G 1_555 1_555
H1A C1A 1_555 1_555
H1F C1F 1_555 1_555
H1G C1G 1_555 1_555
C2A N1A 1_555 1_555
C2F N1F 1_555 1_555
C2G N1G 1_555 1_555
H2A C2A 1_555 1_555
H2F C2F 1_555 1_555
H2G C2G 1_555 1_555
C3A C1A 1_555 1_555
C3F C1F 1_555 1_555
C3G C1G 1_555 1_555
H3A C3A 1_555 1_555
H3F C3F 1_555 1_555
H3G C3G 1_555 1_555
C4A C3A 1_555 1_555
C4F C3F 1_555 1_555
C4G C3G 1_555 1_555
H4A C4A 1_555 1_555
H4F C4F 1_555 1_555
H4G C4G 1_555 1_555
C5A C2A 1_555 1_555
C5F C2F 1_555 1_555
C5G C2G 1_555 1_555
H5A C5A 1_555 1_555
H5F C5F 1_555 1_555
H5G C5G 1_555 1_555
Na1J F2 1_555 1_555
O1A Na1 1_555 1_555
O1F Na1 1_555 1_555
O1G Na1 1_555 1_555
H6A O1A 1_555 1_555
H6F O1F 1_555 1_555
H6G O1G 1_555 1_555
H7A O1A 1_555 1_555
H7F O1F 1_555 1_555
H7G O1G 1_555 1_555
O2E C6 1_555 1_555
C4 C5 1_555 1_555
C4A C5A 1_555 1_555
C4F C5F 1_555 1_555
C4G C5G 1_555 1_555

#END
