
#######################################################################
#
#                 Cambridge Crystallographic Data Centre
#                                CCDC 
#
#######################################################################
#
# If this CIF has been generated from an entry in the Cambridge 
# Structural Database, then it will include bibliographic, chemical, 
# crystal, experimental, refinement or atomic coordinate data resulting 
# from the CCDC's data processing and validation procedures.
#
#######################################################################

data_VAFYOQ
_symmetry_cell_setting           monoclinic
_symmetry_space_group_name_H-M   'C c'
_symmetry_Int_Tables_number      9
_space_group_name_Hall           'C -2yc'
loop_
_symmetry_equiv_pos_site_id
_symmetry_equiv_pos_as_xyz
1 x,y,z
2 x,-y,1/2+z
3 1/2+x,1/2+y,z
4 1/2+x,1/2-y,1/2+z
_cell_length_a                   14.246(3)
_cell_length_b                   9.628(2)
_cell_length_c                   7.3440(10)
_cell_angle_alpha                90
_cell_angle_beta                 101.26(3)
_cell_angle_gamma                90
_cell_volume                     987.917
loop_
_atom_site_label
_atom_site_type_symbol
_atom_site_fract_x
_atom_site_fract_y
_atom_site_fract_z
Mo1 Mo 0.1789 0.0260(1) 1.1203
O1 O 0.2014(3) 0.1969(4) 1.0709(6)
O2 O 0.2894(3) -0.0559(4) 1.1704(5)
O3 O 0.1519(3) 0.0393(4) 1.3522(5)
N1 N 0.0139(3) 0.0624(5) 1.0277(6)
N2 N 0.0934(3) -0.1842(4) 1.1132(6)
C1 C -0.0221(4) 0.1896(7) 0.9916(8)
C2 C -0.1195(5) 0.2163(7) 0.9398(9)
C3 C -0.1813(5) 0.1061(8) 0.9246(9)
C4 C -0.1461(4) -0.0255(8) 0.9638(8)
C5 C -0.0475(4) -0.0465(6) 1.0134(7)
C6 C -0.0027(4) -0.1842(6) 1.0536(7)
C7 C -0.0547(5) -0.3069(7) 1.0347(10)
C8 C -0.0076(6) -0.4303(8) 1.0815(12)
C9 C 0.0902(5) -0.4301(7) 1.1412(10)
C10 C 0.1373(4) -0.3046(6) 1.1592(8)
H1 H 0.0224 0.2654 1.0023
H2 H -0.1431 0.3092 0.9156
H3 H -0.2490 0.1199 0.8860
H4 H -0.1892 -0.1029 0.9558
H5 H -0.1226 -0.3049 0.9898
H6 H -0.0435 -0.5153 1.0712
H7 H 0.1254 -0.5147 1.1729
H8 H 0.2054 -0.3030 1.2019
Mo1A Mo 0.1789 -0.0260(1) 1.6203
O3A O 0.1519(3) -0.0393(4) 0.8522(5)
loop_
_geom_bond_atom_site_label_1
_geom_bond_atom_site_label_2
_geom_bond_site_symmetry_1
_geom_bond_site_symmetry_2
Mo1 O1 1_555 1_555
O2 Mo1 1_555 1_555
O3 Mo1 1_555 1_555
N1 Mo1 1_555 1_555
N2 Mo1 1_555 1_555
C1 N1 1_555 1_555
C2 C1 1_555 1_555
C3 C2 1_555 1_555
C4 C3 1_555 1_555
C5 N1 1_555 1_555
C6 N2 1_555 1_555
C7 C6 1_555 1_555
C8 C7 1_555 1_555
C9 C8 1_555 1_555
C10 N2 1_555 1_555
H1 C1 1_555 1_555
H2 C2 1_555 1_555
H3 C3 1_555 1_555
H4 C4 1_555 1_555
H5 C7 1_555 1_555
H6 C8 1_555 1_555
H7 C9 1_555 1_555
H8 C10 1_555 1_555
Mo1A O3 1_555 1_555
O3A Mo1 1_555 1_555
C4 C5 1_555 1_555
C5 C6 1_555 1_555
C9 C10 1_555 1_555

#END
