
#######################################################################
#
#                 Cambridge Crystallographic Data Centre
#                                CCDC 
#
#######################################################################
#
# If this CIF has been generated from an entry in the Cambridge 
# Structural Database, then it will include bibliographic, chemical, 
# crystal, experimental, refinement or atomic coordinate data resulting 
# from the CCDC's data processing and validation procedures.
#
#######################################################################

data_VAGREA
_symmetry_cell_setting           orthorhombic
_symmetry_space_group_name_H-M   'P 21 21 21'
_symmetry_Int_Tables_number      19
_space_group_name_Hall           'P 2ac 2ab'
loop_
_symmetry_equiv_pos_site_id
_symmetry_equiv_pos_as_xyz
1 x,y,z
2 1/2+x,1/2-y,-z
3 -x,1/2+y,1/2-z
4 1/2-x,-y,1/2+z
_cell_length_a                   17.388(5)
_cell_length_b                   6.560(1)
_cell_length_c                   13.060(2)
_cell_angle_alpha                90
_cell_angle_beta                 90
_cell_angle_gamma                90
_cell_volume                     1489.69
loop_
_atom_site_label
_atom_site_type_symbol
_atom_site_fract_x
_atom_site_fract_y
_atom_site_fract_z
Cu1 Cu 0.2039 -0.4932(1) 0.1878(1)
C1 C 0.3083(3) -0.2152(7) 0.1033(4)
C2 C 0.3378(3) -0.4173(8) 0.0599(4)
C3 C 0.4140(3) -0.4710(9) 0.1135(4)
C4 C 0.4083(2) -0.5089(9) 0.2276(4)
C5 C 0.3995(3) -0.7032(8) 0.2673(4)
C6 C 0.3922(3) -0.7375(8) 0.3715(4)
C7 C 0.3958(3) -0.5749(8) 0.4390(4)
C8 C 0.4050(3) -0.3769(9) 0.4008(4)
C9 C 0.4112(3) -0.3466(8) 0.2968(4)
C10 C 0.1634(3) 0.0667(7) 0.1638(4)
C11 C 0.2291(3) -0.0433(7) 0.2226(4)
C12 C 0.2056(3) -0.0812(8) 0.3328(4)
C13 C 0.1350(3) -0.2092(8) 0.3423(4)
C14 C 0.0684(3) -0.1777(9) 0.3922(4)
C15 C 0.0615(3) -0.4657(8) 0.3116(4)
N1 N 0.2791(2) -0.5798(6) 0.0780(3)
N2 N 0.2526(2) -0.2309(6) 0.1715(3)
N3 N 0.1309(2) -0.3951(6) 0.2911(3)
N4 N 0.0226(2) -0.3422(8) 0.3707(3)
O1 O 0.3399(2) -0.0544(6) 0.0757(3)
O2 O 0.1239(2) -0.0199(6) 0.0997(3)
O3 O 0.1509(2) 0.2471(6) 0.1921(5)
O4 O 0.3923(2) -0.5979(6) 0.5423(3)
H1 H 0.246(3) -0.586(9) 0.030(4)
H2 H 0.304(3) -0.686(9) 0.085(4)
H3 H 0.351(2) -0.399(7) -0.016(3)
H4 H 0.446(2) -0.369(7) 0.093(3)
H5 H 0.440(3) -0.566(8) 0.084(4)
H6 H -0.029(3) -0.367(7) 0.388(4)
H7 H 0.384(2) -0.693(7) 0.558(3)
H8 H 0.394(2) -0.805(7) 0.223(3)
H9 H 0.387(2) -0.863(7) 0.397(3)
H10 H 0.408(3) -0.279(8) 0.444(4)
H11 H 0.419(3) -0.199(7) 0.269(3)
H12 H 0.272(2) 0.046(7) 0.231(3)
H13 H 0.246(2) -0.140(6) 0.368(3)
H14 H 0.198(3) 0.018(9) 0.372(4)
H15 H 0.049(3) -0.084(8) 0.436(4)
H16 H 0.041(3) -0.586(9) 0.277(4)
O4C O 0.1077(2) -0.4021(6) 0.0423(3)
O3_2 O 0.1509(2) -0.7529(6) 0.1921(5)
Cu1C Cu 0.2961 -0.5068(1) 0.6878(1)
H7C H 0.116(2) -0.307(7) 0.058(3)
Cu1_2 Cu 0.2039 0.5068(1) 0.1878(1)
loop_
_geom_bond_atom_site_label_1
_geom_bond_atom_site_label_2
_geom_bond_site_symmetry_1
_geom_bond_site_symmetry_2
Cu1 N1 1_555 1_555
C1 C2 1_555 1_555
C2 C3 1_555 1_555
C3 C4 1_555 1_555
C4 C5 1_555 1_555
C5 C6 1_555 1_555
C6 C7 1_555 1_555
C7 C8 1_555 1_555
C8 C9 1_555 1_555
C9 C4 1_555 1_555
C10 C11 1_555 1_555
C11 C12 1_555 1_555
C12 C13 1_555 1_555
C13 C14 1_555 1_555
C14 N4 1_555 1_555
C15 N3 1_555 1_555
N1 C2 1_555 1_555
N2 Cu1 1_555 1_555
N3 Cu1 1_555 1_555
N4 C15 1_555 1_555
O1 C1 1_555 1_555
O2 C10 1_555 1_555
O3 C10 1_555 1_555
O4 C7 1_555 1_555
H1 N1 1_555 1_555
H2 N1 1_555 1_555
H3 C2 1_555 1_555
H4 C3 1_555 1_555
H5 C3 1_555 1_555
H6 N4 1_555 1_555
H7 O4 1_555 1_555
H8 C5 1_555 1_555
H9 C6 1_555 1_555
H10 C8 1_555 1_555
H11 C9 1_555 1_555
H12 C11 1_555 1_555
H13 C12 1_555 1_555
H14 C12 1_555 1_555
H15 C14 1_555 1_555
H16 C15 1_555 1_555
O4C Cu1 1_555 1_555
O3_2 Cu1 1_555 1_555
Cu1C O4 1_555 1_555
H7C O4C 1_555 1_555
Cu1_2 O3 1_555 1_555
C1 N2 1_555 1_555
C11 N2 1_555 1_555
C13 N3 1_555 1_555

#END
