
#######################################################################
#
#                 Cambridge Crystallographic Data Centre
#                                CCDC 
#
#######################################################################
#
# If this CIF has been generated from an entry in the Cambridge 
# Structural Database, then it will include bibliographic, chemical, 
# crystal, experimental, refinement or atomic coordinate data resulting 
# from the CCDC's data processing and validation procedures.
#
#######################################################################

data_VAGTOM
_symmetry_cell_setting           monoclinic
_symmetry_space_group_name_H-M   'P 21/c'
_symmetry_Int_Tables_number      14
_space_group_name_Hall           '-P 2ybc'
loop_
_symmetry_equiv_pos_site_id
_symmetry_equiv_pos_as_xyz
1 x,y,z
2 -x,1/2+y,1/2-z
3 -x,-y,-z
4 x,1/2-y,1/2+z
_cell_length_a                   6.071(4)
_cell_length_b                   21.180(11)
_cell_length_c                   7.615(5)
_cell_angle_alpha                90
_cell_angle_beta                 99.53(4)
_cell_angle_gamma                90
_cell_volume                     965.652
loop_
_atom_site_label
_atom_site_type_symbol
_atom_site_fract_x
_atom_site_fract_y
_atom_site_fract_z
Zn1 Zn 0.2407(1) -0.0179(1) -0.0575(1)
N1 N 0.0194(8) 0.0534(2) -0.0996(7)
N2 N 0.0769(8) 0.1085(3) -0.0991(9)
N3 N 0.1257(10) 0.1607(3) -0.0959(9)
N4 N 0.4865(8) -0.0278(2) 0.1536(7)
N5 N 0.4678(7) -0.0515(3) 0.2957(7)
N6 N 0.4521(10) -0.0733(3) 0.4302(9)
N7 N 0.1827(8) -0.0921(2) -0.2247(7)
C1 C 0.3288(10) -0.1408(3) -0.2114(8)
C2 C 0.2908(11) -0.1957(3) -0.3151(9)
C3 C 0.0948(11) -0.1984(3) -0.4377(9)
C4 C -0.0544(11) -0.1496(4) -0.4529(9)
C5 C -0.0080(10) -0.0965(3) -0.3451(9)
C6 C 0.4583(13) -0.2490(4) -0.2893(11)
H1 H 0.4615(67) -0.1366(27) -0.1116(56)
H2 H 0.0432(98) -0.2343(20) -0.5210(65)
H3 H -0.1981 -0.1529 -0.5429
H4 H -0.1183 -0.0597 -0.3581
H5 H 0.6172(67) -0.2411(34) -0.2082(85)
H6 H 0.513(12) -0.2613(37) -0.4107(61)
H7 H 0.3841 -0.2931 -0.2625
N1B N -0.0194(8) -0.0534(2) 0.0996(7)
N4B N 0.5135(8) 0.0278(2) -0.1536(7)
Zn1B Zn -0.2407(1) 0.0179(1) 0.0575(1)
Zn1B_2 Zn 0.7593(1) 0.0179(1) 0.0575(1)
loop_
_geom_bond_atom_site_label_1
_geom_bond_atom_site_label_2
_geom_bond_site_symmetry_1
_geom_bond_site_symmetry_2
Zn1 N1 1_555 1_555
N1 N2 1_555 1_555
N2 N3 1_555 1_555
N4 Zn1 1_555 1_555
N5 N4 1_555 1_555
N6 N5 1_555 1_555
N7 Zn1 1_555 1_555
C1 N7 1_555 1_555
C2 C1 1_555 1_555
C3 C2 1_555 1_555
C4 C3 1_555 1_555
C5 N7 1_555 1_555
C6 C2 1_555 1_555
H1 C1 1_555 1_555
H2 C3 1_555 1_555
H3 C4 1_555 1_555
H4 C5 1_555 1_555
H5 C6 1_555 1_555
H6 C6 1_555 1_555
H7 C6 1_555 1_555
N1B Zn1 1_555 1_555
N4B Zn1 1_555 1_555
Zn1B N1 1_555 1_555
Zn1B_2 N4 1_555 1_555
C4 C5 1_555 1_555
N1B Zn1B 1_555 1_555
N4B Zn1B_2 1_555 1_555

#END
