
#######################################################################
#
#                 Cambridge Crystallographic Data Centre
#                                CCDC 
#
#######################################################################
#
# If this CIF has been generated from an entry in the Cambridge 
# Structural Database, then it will include bibliographic, chemical, 
# crystal, experimental, refinement or atomic coordinate data resulting 
# from the CCDC's data processing and validation procedures.
#
#######################################################################

data_VAGTAA
_symmetry_cell_setting           monoclinic
_symmetry_space_group_name_H-M   'C 2/c'
_symmetry_Int_Tables_number      15
_space_group_name_Hall           '-C 2yn'
loop_
_symmetry_equiv_pos_site_id
_symmetry_equiv_pos_as_xyz
1 x,y,z
2 -x,y,1/2-z
3 1/2+x,1/2+y,z
4 1/2-x,1/2+y,1/2-z
5 -x,-y,-z
6 x,-y,1/2+z
7 1/2-x,1/2-y,-z
8 1/2+x,1/2-y,1/2+z
_cell_length_a                   16.1344(16)
_cell_length_b                   11.9074(11)
_cell_length_c                   9.5856(9)
_cell_angle_alpha                90
_cell_angle_beta                 114.296(3)
_cell_angle_gamma                90
_cell_volume                     1678.47
loop_
_atom_site_label
_atom_site_type_symbol
_atom_site_fract_x
_atom_site_fract_y
_atom_site_fract_z
C1 C 0.8779(4) 0.0737(5) 0.6572(7)
C2 C 0.8122(4) 0.1655(5) 0.5775(6)
C3 C 0.7607(4) 0.1590(5) 0.4193(6)
H1 H 0.7685 0.0981 0.3652
C4 C 0.8013(4) 0.2593(5) 0.6572(6)
C5 C 0.9207(4) 0.2076(5) 0.3022(8)
H2 H 0.9013 0.1611 0.2167
C6 C 0.9193(5) 0.3890(6) 0.4114(8)
H3 H 0.8953 0.4625 0.3764
H4 H 0.9843 0.3930 0.4634
H5 H 0.8947 0.3613 0.4805
C7 C 0.8345(5) 0.3583(6) 0.1320(8)
H6 H 0.8238 0.4367 0.1412
H7 H 0.7777 0.3186 0.0947
H8 H 0.8625 0.3488 0.0617
N1 N 0.8945(3) 0.3139(4) 0.2817(5)
O1 O 0.8988(3) 0.0038(3) 0.5802(4)
O2 O 0.9079(3) 0.0721(3) 0.8032(4)
O3 O 0.8497(3) 0.2762(4) 0.8110(5)
H9 H 0.8848 0.2236 0.8474
O4 O 0.9692(3) 0.1659(3) 0.4275(5)
Mg1 Mg 1.0000 0.0000 0.5000
C1F C 0.6221(4) 0.4263(5) 0.3428(7)
C2F C 0.6878(4) 0.3345(5) 0.4225(6)
C3F C 0.7393(4) 0.3410(5) 0.5807(6)
H1F H 0.7315 0.4019 0.6348
C4F C 0.6987(4) 0.2407(5) 0.3428(6)
C5D C 1.0793(4) -0.2076(5) 0.6978(8)
H2D H 1.0987 -0.1611 0.7833
C6D C 1.0807(5) -0.3890(6) 0.5886(8)
H3D H 1.1047 -0.4625 0.6236
H4D H 1.0157 -0.3930 0.5366
H5D H 1.1053 -0.3613 0.5195
C7D C 1.1655(5) -0.3583(6) 0.8680(8)
H6D H 1.1762 -0.4367 0.8588
H7D H 1.2223 -0.3186 0.9053
H8D H 1.1375 -0.3488 0.9383
N1D N 1.1055(3) -0.3139(4) 0.7183(5)
O1F O 0.6012(3) 0.4962(3) 0.4198(4)
O1D O 1.1012(3) -0.0038(3) 0.4198(4)
O2F O 0.5921(3) 0.4279(3) 0.1968(4)
O2A O 1.0921(3) 0.0721(3) 0.6968(4)
O2E O 0.9079(3) -0.0721(3) 0.3032(4)
O3F O 0.6503(3) 0.2238(4) 0.1890(5)
H9F H 0.6152 0.2764 0.1526
O4D O 1.0308(3) -0.1659(3) 0.5725(5)
Mg1A Mg 1.0000 0.0000 1.0000
Mg1B Mg 0.5000 0.5000 0.5000
Mg1C Mg 0.5000 0.5000 0.0000
loop_
_geom_bond_atom_site_label_1
_geom_bond_atom_site_label_2
_geom_bond_site_symmetry_1
_geom_bond_site_symmetry_2
C1 C2 1_555 1_555
C2 C3 1_555 1_555
C3 H1 1_555 1_555
C4 C2 1_555 1_555
C5 H2 1_555 1_555
C6 H3 1_555 1_555
H4 C6 1_555 1_555
H5 C6 1_555 1_555
C7 H6 1_555 1_555
H7 C7 1_555 1_555
H8 C7 1_555 1_555
N1 C5 1_555 1_555
O1 C1 1_555 1_555
O2 C1 1_555 1_555
O3 C4 1_555 1_555
H9 O3 1_555 1_555
O4 C5 1_555 1_555
Mg1 O1 1_555 1_555
C1F C2F 1_555 1_555
C2F C3F 1_555 1_555
C3F C4 1_555 1_555
H1F C3F 1_555 1_555
C4F C3 1_555 1_555
C5D H2D 1_555 1_555
C6D H3D 1_555 1_555
H4D C6D 1_555 1_555
H5D C6D 1_555 1_555
C7D H6D 1_555 1_555
H7D C7D 1_555 1_555
H8D C7D 1_555 1_555
N1D C5D 1_555 1_555
O1F C1F 1_555 1_555
O1D Mg1 1_555 1_555
O2F C1F 1_555 1_555
O2A Mg1 1_555 1_555
O2E Mg1 1_555 1_555
O3F C4F 1_555 1_555
H9F O3F 1_555 1_555
O4D Mg1 1_555 1_555
Mg1A O2 1_555 1_555
Mg1B O1F 1_555 1_555
Mg1C O2F 1_555 1_555
C6 N1 1_555 1_555
C7 N1 1_555 1_555
O4 Mg1 1_555 1_555
C2F C4F 1_555 1_555
C5D O4D 1_555 1_555
C6D N1D 1_555 1_555
C7D N1D 1_555 1_555

#END
