
#######################################################################
#
#                 Cambridge Crystallographic Data Centre
#                                CCDC 
#
#######################################################################
#
# If this CIF has been generated from an entry in the Cambridge 
# Structural Database, then it will include bibliographic, chemical, 
# crystal, experimental, refinement or atomic coordinate data resulting 
# from the CCDC's data processing and validation procedures.
#
#######################################################################

data_VAGXOS
_symmetry_cell_setting           monoclinic
_symmetry_space_group_name_H-M   'P 21/c'
_symmetry_Int_Tables_number      14
_space_group_name_Hall           '-P 2ybc'
loop_
_symmetry_equiv_pos_site_id
_symmetry_equiv_pos_as_xyz
1 x,y,z
2 -x,1/2+y,1/2-z
3 -x,-y,-z
4 x,1/2-y,1/2+z
_cell_length_a                   7.705(7)
_cell_length_b                   13.169(10)
_cell_length_c                   6.581(6)
_cell_angle_alpha                90
_cell_angle_beta                 108.864(12)
_cell_angle_gamma                90
_cell_volume                     631.889
loop_
_atom_site_label
_atom_site_type_symbol
_atom_site_fract_x
_atom_site_fract_y
_atom_site_fract_z
Zn1 Zn 0.56298(6) 0.78493(3) 0.09299(7)
O1 O 0.8004(4) 0.7161(2) 0.2037(5)
O2 O 0.4446(4) 0.7367(2) -0.1941(5)
N1 N 0.6542(4) 0.9358(2) 0.1246(5)
C1 C 0.9570(6) 0.7525(3) 0.2169(7)
C2 C 0.8469(6) 0.9331(3) 0.2788(7)
H1 H 0.8426 0.9093 0.4166
H2 H 0.8940 1.0020 0.2989
C3 C 0.5426(6) 0.9977(3) 0.2261(6)
H3 H 0.5996 1.0637 0.2650
H4 H 0.5400 0.9645 0.3566
C4 C 0.6512(6) 0.9883(3) -0.0771(6)
H5 H 0.7202 0.9488 -0.1490
H6 H 0.7098 1.0542 -0.0422
C5 C 0.9815(5) 0.8673(3) 0.2137(7)
H7 H 1.1039 0.8834 0.3079
H8 H 0.9757 0.8866 0.0695
O3 O 1.0908(4) 0.6980(2) 0.2323(6)
H9 H 0.340(8) 0.770(3) -0.239(8)
Zn1B Zn 0.43702(6) 1.21507(3) -0.09299(7)
Zn1C Zn 0.56298(6) 0.71507(3) -0.40701(7)
Zn1A Zn 0.43702(6) 1.28493(3) 0.40701(7)
O1B O 0.1996(4) 1.2839(2) -0.2037(5)
O2C O 0.4446(4) 0.7633(2) 0.3059(5)
O2B O 0.5554(4) 1.2633(2) 0.1941(5)
O2A O 0.5554(4) 1.2367(2) -0.3059(5)
N1B N 0.3458(4) 1.0642(2) -0.1246(5)
C1B C 0.0430(6) 1.2475(3) -0.2169(7)
C2B C 0.1531(6) 1.0669(3) -0.2788(7)
H1B H 0.1574 1.0907 -0.4166
H2B H 0.1060 0.9980 -0.2989
C3B C 0.4574(6) 1.0023(3) -0.2261(6)
H3B H 0.4004 0.9363 -0.2650
H4B H 0.4600 1.0355 -0.3566
C4B C 0.3488(6) 1.0117(3) 0.0771(6)
H5B H 0.2798 1.0512 0.1490
H6B H 0.2902 0.9458 0.0422
C5B C 0.0185(5) 1.1327(3) -0.2137(7)
H7B H -0.1039 1.1166 -0.3079
H8B H 0.0243 1.1134 -0.0695
O3B O -0.0908(4) 1.3020(2) -0.2323(6)
H9C H 0.340(8) 0.730(3) 0.261(8)
H9B H 0.660(8) 1.230(3) 0.239(8)
H9A H 0.660(8) 1.270(3) -0.261(8)
loop_
_geom_bond_atom_site_label_1
_geom_bond_atom_site_label_2
_geom_bond_site_symmetry_1
_geom_bond_site_symmetry_2
Zn1 O1 1_555 1_555
O1 C1 1_555 1_555
O2 Zn1 1_555 1_555
N1 Zn1 1_555 1_555
C1 C5 1_555 1_555
C2 N1 1_555 1_555
H1 C2 1_555 1_555
H2 C2 1_555 1_555
C3 N1 1_555 1_555
H3 C3 1_555 1_555
H4 C3 1_555 1_555
C4 N1 1_555 1_555
H5 C4 1_555 1_555
H6 C4 1_555 1_555
C5 C2 1_555 1_555
H7 C5 1_555 1_555
H8 C5 1_555 1_555
O3 C1 1_555 1_555
H9 O2 1_555 1_555
Zn1B O1B 1_555 1_555
Zn1C O2 1_555 1_555
Zn1A O2B 1_555 1_555
O1B C1B 1_555 1_555
O2C Zn1 1_555 1_555
O2B Zn1B 1_555 1_555
O2A Zn1B 1_555 1_555
N1B Zn1B 1_555 1_555
C1B C5B 1_555 1_555
C2B N1B 1_555 1_555
H1B C2B 1_555 1_555
H2B C2B 1_555 1_555
C3B C4 1_555 1_555
H3B C3B 1_555 1_555
H4B C3B 1_555 1_555
C4B C3 1_555 1_555
H5B C4B 1_555 1_555
H6B C4B 1_555 1_555
C5B C2B 1_555 1_555
H7B C5B 1_555 1_555
H8B C5B 1_555 1_555
O3B C1B 1_555 1_555
H9C O2C 1_555 1_555
H9B O2B 1_555 1_555
H9A O2A 1_555 1_555
N1B C3B 1_555 1_555
N1B C4B 1_555 1_555

#END
