
#######################################################################
#
#                 Cambridge Crystallographic Data Centre
#                                CCDC 
#
#######################################################################
#
# If this CIF has been generated from an entry in the Cambridge 
# Structural Database, then it will include bibliographic, chemical, 
# crystal, experimental, refinement or atomic coordinate data resulting 
# from the CCDC's data processing and validation procedures.
#
#######################################################################

data_VAGXUY
_symmetry_cell_setting           monoclinic
_symmetry_space_group_name_H-M   'P 21'
_symmetry_Int_Tables_number      4
_space_group_name_Hall           'P 2yb'
loop_
_symmetry_equiv_pos_site_id
_symmetry_equiv_pos_as_xyz
1 x,y,z
2 -x,1/2+y,-z
_cell_length_a                   9.955(8)
_cell_length_b                   7.032(5)
_cell_length_c                   10.184(8)
_cell_angle_alpha                90
_cell_angle_beta                 98.489(11)
_cell_angle_gamma                90
_cell_volume                     705.106
loop_
_atom_site_label
_atom_site_type_symbol
_atom_site_fract_x
_atom_site_fract_y
_atom_site_fract_z
Cu1 Cu 0.60919(3) 0.66002(6) 0.30111(3)
N1 N 0.7733(2) 0.7832(4) 0.4089(2)
N2 N 0.7704(2) 0.5706(4) 0.2207(2)
C1 C 0.4940(3) 0.8417(5) 0.5119(3)
C2 C 0.6346(3) 0.8287(6) 0.5916(3)
H1 H 0.6545 0.6964 0.6134
H2 H 0.6352 0.8973 0.6743
C3 C 0.7469(3) 0.9081(6) 0.5199(3)
H3 H 0.7208 1.0335 0.4854
H4 H 0.8296 0.9213 0.5827
C4 C 0.8668(3) 0.6219(5) 0.4513(3)
H5 H 0.8407 0.5603 0.5289
H6 H 0.9592 0.6677 0.4735
C5 C 0.8568(3) 0.4810(5) 0.3350(3)
H7 H 0.9464 0.4543 0.3129
H8 H 0.8166 0.3624 0.3585
C6 C 0.8298(3) 0.8872(5) 0.3034(3)
H9 H 0.9189 0.9374 0.3376
H10 H 0.7710 0.9925 0.2715
C7 C 0.8401(3) 0.7469(5) 0.1908(3)
H11 H 0.7974 0.7997 0.1069
H12 H 0.9346 0.7208 0.1845
C8 C 0.7386(3) 0.4411(5) 0.1070(3)
H13 H 0.7118 0.3188 0.1388
H14 H 0.8199 0.4218 0.0666
C9 C 0.6258(3) 0.5143(5) 0.0019(3)
H15 H 0.6525 0.6385 -0.0268
H16 H 0.6194 0.4301 -0.0742
C10 C 0.4863(3) 0.5321(4) 0.0416(3)
O1 O 0.3974(2) 0.8980(4) 0.5659(2)
O2 O 0.4764(2) 0.7936(3) 0.38889(19)
O3 O 0.47206(19) 0.5778(3) 0.16037(18)
O4 O 0.3853(2) 0.5058(4) -0.0446(2)
Cu1A Cu 0.39081(3) 1.16002(6) 0.69889(3)
O1A O 0.6026(2) 0.3980(4) 0.4341(2)
O5 O 0.9422(3) 0.6604(5) 0.8569(2)
H17 H 0.977(4) 0.612(5) 0.929(2)
H18 H 0.882(3) 0.584(5) 0.822(3)
O6 O 0.8054(2) 0.3328(4) 0.7281(2)
H19 H 0.828(3) 0.249(4) 0.786(3)
H20 H 0.7213(14) 0.319(6) 0.701(3)
O7 O 0.8539(3) 0.0398(4) 0.9245(3)
H21 H 0.877(3) -0.062(3) 0.892(4)
H22 H 0.780(2) 0.017(5) 0.954(4)
loop_
_geom_bond_atom_site_label_1
_geom_bond_atom_site_label_2
_geom_bond_site_symmetry_1
_geom_bond_site_symmetry_2
Cu1 N1 1_555 1_555
N1 C3 1_555 1_555
N2 Cu1 1_555 1_555
C1 C2 1_555 1_555
C2 H1 1_555 1_555
H2 C2 1_555 1_555
C3 C2 1_555 1_555
H3 C3 1_555 1_555
H4 C3 1_555 1_555
C4 N1 1_555 1_555
H5 C4 1_555 1_555
H6 C4 1_555 1_555
C5 N2 1_555 1_555
H7 C5 1_555 1_555
H8 C5 1_555 1_555
C6 N1 1_555 1_555
H9 C6 1_555 1_555
H10 C6 1_555 1_555
C7 N2 1_555 1_555
H11 C7 1_555 1_555
H12 C7 1_555 1_555
C8 N2 1_555 1_555
H13 C8 1_555 1_555
H14 C8 1_555 1_555
C9 C8 1_555 1_555
H15 C9 1_555 1_555
H16 C9 1_555 1_555
C10 C9 1_555 1_555
O1 C1 1_555 1_555
O2 Cu1 1_555 1_555
O3 Cu1 1_555 1_555
O4 C10 1_555 1_555
O5 H17 1_555 1_555
H18 O5 1_555 1_555
O6 H19 1_555 1_555
H20 O6 1_555 1_555
O7 H21 1_555 1_555
H22 O7 1_555 1_555
Cu1A O1 1_555 1_555
O1A Cu1 1_555 1_555
C1 O2 1_555 1_555
C4 C5 1_555 1_555
C6 C7 1_555 1_555
C10 O3 1_555 1_555

#END
