
#######################################################################
#
#                 Cambridge Crystallographic Data Centre
#                                CCDC 
#
#######################################################################
#
# If this CIF has been generated from an entry in the Cambridge 
# Structural Database, then it will include bibliographic, chemical, 
# crystal, experimental, refinement or atomic coordinate data resulting 
# from the CCDC's data processing and validation procedures.
#
#######################################################################

data_VAHBEN
_symmetry_cell_setting           monoclinic
_symmetry_space_group_name_H-M   'I 2/a'
_symmetry_Int_Tables_number      15
_space_group_name_Hall           '-I 2ya'
loop_
_symmetry_equiv_pos_site_id
_symmetry_equiv_pos_as_xyz
1 x,y,z
2 1/2-x,y,-z
3 1/2+x,1/2+y,1/2+z
4 -x,1/2+y,1/2-z
5 -x,-y,-z
6 1/2+x,-y,z
7 1/2-x,1/2-y,1/2-z
8 x,1/2-y,1/2+z
_cell_length_a                   12.929(3)
_cell_length_b                   7.8554(16)
_cell_length_c                   17.740(4)
_cell_angle_alpha                90
_cell_angle_beta                 100.66(3)
_cell_angle_gamma                90
_cell_volume                     1770.62
loop_
_atom_site_label
_atom_site_type_symbol
_atom_site_fract_x
_atom_site_fract_y
_atom_site_fract_z
In1 In 0.65923(4) 0.05099(6) 0.25144(3)
N1 N 0.5325(5) 0.0850(7) 0.1467(3)
C1 C 0.4659(6) -0.1777(9) 0.1841(4)
C2 C 0.4595(5) -0.0333(9) 0.1269(4)
C3 C 0.5335(5) 0.2227(9) 0.1032(4)
C4 C 0.4600(6) 0.2453(10) 0.0350(4)
H1 H 0.4604 0.3434 0.0057
C5 C 0.3868(6) 0.1180(10) 0.0126(4)
H2 H 0.339 0.1274 -0.0333
C6 C 0.3853(6) -0.0239(10) 0.0591(4)
H3 H 0.3363 -0.1103 0.0454
C7 C 0.6182(6) 0.3524(10) 0.1309(4)
O1 O 0.6842(4) 0.3110(6) 0.1915(3)
O2 O 0.3990(4) -0.2951(6) 0.1672(3)
O3 O 0.5345(4) -0.1673(7) 0.2423(3)
O4 O 0.6202(6) 0.4797(9) 0.0923(4)
F1 F 0.7465(4) -0.0640(6) 0.1818(2)
O5 O 0.7100(4) -0.1263(6) 0.3436(3)
In1F In 0.84077(4) 0.44901(6) 0.24856(3)
In1C In 0.34077(4) -0.44901(6) 0.24856(3)
O1F O 0.8158(4) 0.1890(6) 0.3085(3)
O2C O 0.6010(4) 0.2049(6) 0.3328(3)
loop_
_geom_bond_atom_site_label_1
_geom_bond_atom_site_label_2
_geom_bond_site_symmetry_1
_geom_bond_site_symmetry_2
In1 N1 1_555 1_555
N1 C2 1_555 1_555
C1 C2 1_555 1_555
C2 C6 1_555 1_555
C3 N1 1_555 1_555
C4 C3 1_555 1_555
H1 C4 1_555 1_555
C5 C4 1_555 1_555
H2 C5 1_555 1_555
C6 C5 1_555 1_555
H3 C6 1_555 1_555
C7 C3 1_555 1_555
O1 In1 1_555 1_555
O2 C1 1_555 1_555
O3 In1 1_555 1_555
O4 C7 1_555 1_555
F1 In1 1_555 1_555
O5 In1 1_555 1_555
In1F O1 1_555 1_555
In1C O2 1_555 1_555
O1F In1 1_555 1_555
O2C In1 1_555 1_555
C1 O3 1_555 1_555
C7 O1 1_555 1_555
In1F O1F 1_555 1_555

#END
