
#######################################################################
#
#                 Cambridge Crystallographic Data Centre
#                                CCDC 
#
#######################################################################
#
# If this CIF has been generated from an entry in the Cambridge 
# Structural Database, then it will include bibliographic, chemical, 
# crystal, experimental, refinement or atomic coordinate data resulting 
# from the CCDC's data processing and validation procedures.
#
#######################################################################

data_VAHFUH
_symmetry_cell_setting           orthorhombic
_symmetry_space_group_name_H-M   'P b c a'
_symmetry_Int_Tables_number      61
_space_group_name_Hall           '-P 2ac 2ab'
loop_
_symmetry_equiv_pos_site_id
_symmetry_equiv_pos_as_xyz
1 x,y,z
2 1/2-x,-y,1/2+z
3 -x,1/2+y,1/2-z
4 1/2+x,1/2-y,-z
5 -x,-y,-z
6 1/2+x,y,1/2-z
7 x,1/2-y,1/2+z
8 1/2-x,1/2+y,z
_cell_length_a                   17.520(4)
_cell_length_b                   8.9518(18)
_cell_length_c                   22.506(5)
_cell_angle_alpha                90
_cell_angle_beta                 90
_cell_angle_gamma                90
_cell_volume                     3529.74
loop_
_atom_site_label
_atom_site_type_symbol
_atom_site_fract_x
_atom_site_fract_y
_atom_site_fract_z
Cu1 Cu 0.19026(3) 0.24833(6) 0.48775(3)
Cu2 Cu 0.05973(3) 0.28224(7) 0.75246(3)
N1 N 0.0359(2) 0.3339(4) 0.53330(16)
N2 N 0.0738(2) 0.2676(4) 0.48744(16)
N3 N 0.2141(2) 0.3616(4) 0.70283(17)
N4 N 0.1757(2) 0.2895(4) 0.74740(17)
N5 N 0.2416(2) 0.4381(5) 0.4900(2)
N6 N -0.0151(2) -0.0216(5) 0.75686(18)
C1 C -0.0385(3) 0.2894(5) 0.5352(2)
C2 C -0.0486(3) 0.1948(6) 0.4880(2)
H1 H -0.0942 0.1470 0.4770
C3 C 0.0224(3) 0.1827(5) 0.4591(2)
C4 C -0.0916(3) 0.3413(7) 0.5824(2)
H2 H -0.0727 0.3094 0.6209
H3 H -0.1418 0.2990 0.5757
H4 H -0.0948 0.4495 0.5815
C5 C 0.0448(3) 0.0960(6) 0.4053(2)
H5 H 0.0448 0.1614 0.3709
H6 H 0.0086 0.0154 0.3990
H7 H 0.0955 0.0547 0.4109
C6 C 0.0770(3) 0.4294(5) 0.5745(2)
H8 H 0.0405 0.4909 0.5966
H9 H 0.1106 0.4965 0.5521
C7 C 0.1247(2) 0.3392(5) 0.61825(19)
H10 H 0.0910 0.2782 0.6431
H11 H 0.1587 0.2719 0.5964
C8 C 0.1719(2) 0.4422(5) 0.6574(2)
H12 H 0.2080 0.4978 0.6325
H13 H 0.1380 0.5147 0.6766
C9 C 0.2904(3) 0.3353(6) 0.7065(2)
C10 C 0.3017(3) 0.2474(6) 0.7558(2)
H14 H 0.3485 0.2130 0.7708
C11 C 0.2292(3) 0.2196(5) 0.7789(2)
C12 C 0.3462(3) 0.3973(7) 0.6622(3)
H15 H 0.3430 0.5055 0.6621
H16 H 0.3340 0.3595 0.6229
H17 H 0.3975 0.3669 0.6730
C13 C 0.2074(3) 0.1297(6) 0.8331(2)
H18 H 0.1553 0.0948 0.8290
H19 H 0.2116 0.1919 0.8682
H20 H 0.2414 0.0446 0.8368
C14 C 0.2695(3) 0.5534(5) 0.4899(2)
C15 C 0.0132(3) 0.0935(5) 0.7586(2)
Cu1G Cu 0.30974(3) 0.74833(6) 0.48775(3)
Cu2B Cu -0.05973(3) -0.21776(7) 0.74754(3)
N6B N 0.0151(2) 0.4784(5) 0.74314(18)
C14G C 0.2305(3) 0.0534(5) 0.4899(2)
loop_
_geom_bond_atom_site_label_1
_geom_bond_atom_site_label_2
_geom_bond_site_symmetry_1
_geom_bond_site_symmetry_2
Cu1 N2 1_555 1_555
Cu2 N4 1_555 1_555
N1 N2 1_555 1_555
N2 C3 1_555 1_555
N3 N4 1_555 1_555
N4 C11 1_555 1_555
N5 Cu1 1_555 1_555
N6 C15 1_555 1_555
C1 N1 1_555 1_555
C2 C1 1_555 1_555
H1 C2 1_555 1_555
C3 C2 1_555 1_555
C4 C1 1_555 1_555
H2 C4 1_555 1_555
H3 C4 1_555 1_555
H4 C4 1_555 1_555
C5 C3 1_555 1_555
H5 C5 1_555 1_555
H6 C5 1_555 1_555
H7 C5 1_555 1_555
C6 N1 1_555 1_555
H8 C6 1_555 1_555
H9 C6 1_555 1_555
C7 C6 1_555 1_555
H10 C7 1_555 1_555
H11 C7 1_555 1_555
C8 N3 1_555 1_555
H12 C8 1_555 1_555
H13 C8 1_555 1_555
C9 N3 1_555 1_555
C10 C9 1_555 1_555
H14 C10 1_555 1_555
C11 C10 1_555 1_555
C12 C9 1_555 1_555
H15 C12 1_555 1_555
H16 C12 1_555 1_555
H17 C12 1_555 1_555
C13 C11 1_555 1_555
H18 C13 1_555 1_555
H19 C13 1_555 1_555
H20 C13 1_555 1_555
C14 N5 1_555 1_555
C15 Cu2 1_555 1_555
Cu1G C14 1_555 1_555
Cu2B N6 1_555 1_555
N6B Cu2 1_555 1_555
C14G Cu1 1_555 1_555
C7 C8 1_555 1_555

#END
