
#######################################################################
#
#                 Cambridge Crystallographic Data Centre
#                                CCDC 
#
#######################################################################
#
# If this CIF has been generated from an entry in the Cambridge 
# Structural Database, then it will include bibliographic, chemical, 
# crystal, experimental, refinement or atomic coordinate data resulting 
# from the CCDC's data processing and validation procedures.
#
#######################################################################

data_VAHNOJ01
_symmetry_cell_setting           orthorhombic
_symmetry_space_group_name_H-M   'P b c m'
_symmetry_Int_Tables_number      57
_space_group_name_Hall           '-P 2c 2b'
loop_
_symmetry_equiv_pos_site_id
_symmetry_equiv_pos_as_xyz
1 x,y,z
2 -x,-y,1/2+z
3 x,1/2-y,-z
4 -x,1/2+y,1/2-z
5 -x,-y,-z
6 x,y,1/2-z
7 -x,1/2+y,z
8 x,1/2-y,1/2+z
_cell_length_a                   7.1273(7)
_cell_length_b                   14.2131(9)
_cell_length_c                   34.705(2)
_cell_angle_alpha                90
_cell_angle_beta                 90
_cell_angle_gamma                90
_cell_volume                     3515.65
loop_
_atom_site_label
_atom_site_type_symbol
_atom_site_fract_x
_atom_site_fract_y
_atom_site_fract_z
Ag1 Ag 1.00687(7) 0.68370(4) 0.456295(16)
N1 N 0.7018(9) 0.6896(4) 0.45524(16)
C1 C 0.6038(11) 0.6355(5) 0.48026(19)
H1 H 0.6698 0.5986 0.4986
C2 C 0.4109(11) 0.6326(5) 0.4797(2)
H2 H 0.3465 0.5929 0.4973
N2 N 0.3118(9) 0.6852(4) 0.45467(17)
C3 C 0.4097(10) 0.7370(4) 0.43057(18)
H3 H 0.3445 0.7749 0.4124
C4 C 0.5996(10) 0.7384(4) 0.4305(2)
H4 H 0.6621 0.7761 0.4119
S1 S 0.9860(2) 0.57818(13) 0.56186(5)
O1 O 1.1285(8) 0.4962(4) 0.56611(16)
H5 H 1.2263 0.5160 0.5769
O2 O 1.0339(8) 0.6246(4) 0.52682(16)
O3 O 0.8081(7) 0.5291(4) 0.55917(15)
O4 O 1.0038(7) 0.6369(4) 0.59507(14)
Ag1_2 Ag 2.00687(7) 0.68370(4) 0.456295(16)
Ag1_3 Ag 0.00687(7) 0.68370(4) 0.456295(16)
N1_2 N 1.7018(9) 0.6896(4) 0.45524(16)
C1_2 C 1.6038(11) 0.6355(5) 0.48026(19)
H1_2 H 1.6698 0.5986 0.4986
C2_2 C 1.4109(11) 0.6326(5) 0.4797(2)
H2_2 H 1.3465 0.5929 0.4973
N2_2 N 1.3118(9) 0.6852(4) 0.45467(17)
N2_3 N 2.3118(9) 0.6852(4) 0.45467(17)
C3_2 C 1.4097(10) 0.7370(4) 0.43057(18)
H3_2 H 1.3445 0.7749 0.4124
C4_2 C 1.5996(10) 0.7384(4) 0.4305(2)
H4_2 H 1.6621 0.7761 0.4119
S1_2 S 1.9860(2) 0.57818(13) 0.56186(5)
O1_2 O 2.1285(8) 0.4962(4) 0.56611(16)
H5_2 H 2.2263 0.5160 0.5769
O2_2 O 2.0339(8) 0.6246(4) 0.52682(16)
O3_2 O 1.8081(7) 0.5291(4) 0.55917(15)
O4_2 O 2.0038(7) 0.6369(4) 0.59507(14)
Ag2 Ag 0.48550(7) 0.38152(5) 0.656069(16)
N3 N 0.1784(9) 0.3771(5) 0.65233(18)
C5 C 0.0790(12) 0.2981(5) 0.65007(19)
H6 H 0.1422 0.2394 0.6483
C6 C -0.1141(11) 0.3002(6) 0.65030(19)
H7 H -0.1805 0.2423 0.6495
N4 N -0.2111(10) 0.3795(5) 0.65164(17)
C7 C -0.1099(11) 0.4576(5) 0.65417(19)
H8 H -0.1730 0.5164 0.6557
C8 C 0.0821(11) 0.4566(5) 0.65462(18)
H9 H 0.1481 0.5145 0.6566
Ag3 Ag 0.53968(12) 0.42293(6) 0.7500
N5 N 0.2337(12) 0.4102(6) 0.7500
C9 C 0.1315(15) 0.3314(7) 0.7500
H10 H 0.1945 0.2725 0.7500
C10 C -0.0620(15) 0.3323(7) 0.7500
H11 H -0.1288 0.2745 0.7500
N6 N -0.1555(13) 0.4123(6) 0.7500
C11 C -0.0570(16) 0.4962(8) 0.7500
H12 H -0.1221 0.5545 0.7500
C12 C 0.1348(16) 0.4945(8) 0.7500
H13 H 0.2020 0.5523 0.7500
S2 S 0.5300(3) 0.64028(13) 0.69025(5)
O5 O 0.4176(9) 0.7067(4) 0.71502(15)
H14 H 0.4176 0.7067 0.7500
O6 O 0.4587(8) 0.5452(4) 0.69571(15)
O7 O 0.7264(7) 0.6487(4) 0.70136(14)
O8 O 0.4994(6) 0.6715(4) 0.65089(15)
Ag2E Ag 0.48550(7) 0.38152(5) 0.843931(16)
Ag2_2 Ag -0.51450(7) 0.38152(5) 0.656069(16)
Ag2_3 Ag 1.48550(7) 0.38152(5) 0.656069(16)
N3_2 N 1.1784(9) 0.3771(5) 0.65233(18)
N3E N 0.1784(9) 0.3771(5) 0.84767(18)
C5_2 C 1.0790(12) 0.2981(5) 0.65007(19)
H6_2 H 1.1422 0.2394 0.6483
C6_2 C 0.8859(11) 0.3002(6) 0.65030(19)
H7_2 H 0.8195 0.2423 0.6495
N4_2 N 0.7889(10) 0.3795(5) 0.65164(17)
N4E N 0.7889(10) 0.3795(5) 0.84836(17)
C7_2 C 0.8901(11) 0.4576(5) 0.65417(19)
H8_2 H 0.8270 0.5164 0.6557
C8_2 C 1.0821(11) 0.4566(5) 0.65462(18)
H9_2 H 1.1481 0.5145 0.6566
Ag3_2 Ag -0.46032(12) 0.42293(6) 0.7500
N6_2 N 0.8445(13) 0.4123(6) 0.7500
S2E S 0.5300(3) 0.64028(13) 0.80975(5)
O5E O 0.4176(9) 0.7067(4) 0.78498(15)
O6E O 0.4587(8) 0.5452(4) 0.80429(15)
O7E O 0.7264(7) 0.6487(4) 0.79864(14)
O8E O 0.4994(6) 0.6715(4) 0.84911(15)
O9 O 0.4611(7) 0.5305(4) 0.59706(15)
H15 H 0.4665 0.5798 0.6175
H16 H 0.5800 0.5364 0.5821
loop_
_geom_bond_atom_site_label_1
_geom_bond_atom_site_label_2
_geom_bond_site_symmetry_1
_geom_bond_site_symmetry_2
Ag1 N1 1_555 1_555
N1 C1 1_555 1_555
C1 H1 1_555 1_555
C2 C1 1_555 1_555
H2 C2 1_555 1_555
N2 C2 1_555 1_555
C3 N2 1_555 1_555
H3 C3 1_555 1_555
C4 N1 1_555 1_555
H4 C4 1_555 1_555
S1 O1 1_555 1_555
O1 H5 1_555 1_555
O2 Ag1 1_555 1_555
O3 S1 1_555 1_555
O4 S1 1_555 1_555
Ag2 N3 1_555 1_555
N3 C5 1_555 1_555
C5 H6 1_555 1_555
C6 C5 1_555 1_555
H7 C6 1_555 1_555
N4 C6 1_555 1_555
C7 N4 1_555 1_555
H8 C7 1_555 1_555
C8 N3 1_555 1_555
H9 C8 1_555 1_555
Ag3 N5 1_555 1_555
N5 C9 1_555 1_555
C9 H10 1_555 1_555
C10 C9 1_555 1_555
H11 C10 1_555 1_555
N6 C10 1_555 1_555
C11 N6 1_555 1_555
H12 C11 1_555 1_555
C12 N5 1_555 1_555
H13 C12 1_555 1_555
S2 O5 1_555 1_555
O5 H14 1_555 1_555
H14 O5E 1_555 1_555
O6 Ag2 1_555 1_555
O7 S2 1_555 1_555
O8 S2 1_555 1_555
O9 H15 1_555 1_555
H16 O9 1_555 1_555
Ag1_2 N1_2 1_555 1_555
Ag1_3 N2 1_555 1_555
N1_2 C1_2 1_555 1_555
C1_2 H1_2 1_555 1_555
C2_2 C1_2 1_555 1_555
H2_2 C2_2 1_555 1_555
N2_2 Ag1 1_555 1_555
N2_3 Ag1_2 1_555 1_555
C3_2 N2_2 1_555 1_555
H3_2 C3_2 1_555 1_555
C4_2 N1_2 1_555 1_555
H4_2 C4_2 1_555 1_555
S1_2 O1_2 1_555 1_555
O1_2 H5_2 1_555 1_555
O2_2 Ag1_2 1_555 1_555
O3_2 S1_2 1_555 1_555
O4_2 S1_2 1_555 1_555
Ag2E N3E 1_555 1_555
Ag2_2 N4 1_555 1_555
Ag2_3 N3_2 1_555 1_555
N3_2 C5_2 1_555 1_555
C5_2 H6_2 1_555 1_555
C6_2 C5_2 1_555 1_555
H7_2 C6_2 1_555 1_555
N4_2 Ag2 1_555 1_555
N4E Ag2E 1_555 1_555
C7_2 N4_2 1_555 1_555
H8_2 C7_2 1_555 1_555
C8_2 N3_2 1_555 1_555
H9_2 C8_2 1_555 1_555
Ag3_2 N6 1_555 1_555
N6_2 Ag3 1_555 1_555
S2E O5E 1_555 1_555
O6E Ag3 1_555 1_555
O7E S2E 1_555 1_555
O8E S2E 1_555 1_555
C3 C4 1_555 1_555
S1 O2 1_555 1_555
C7 C8 1_555 1_555
Ag3 O6 1_555 1_555
C11 C12 1_555 1_555
S2 O6 1_555 1_555
C2_2 N2_2 1_555 1_555
C3_2 C4_2 1_555 1_555
S1_2 O2_2 1_555 1_555
Ag2E O6E 1_555 1_555
C6_2 N4_2 1_555 1_555
C7_2 C8_2 1_555 1_555
S2E O6E 1_555 1_555

#END
