
#######################################################################
#
#                 Cambridge Crystallographic Data Centre
#                                CCDC 
#
#######################################################################
#
# If this CIF has been generated from an entry in the Cambridge 
# Structural Database, then it will include bibliographic, chemical, 
# crystal, experimental, refinement or atomic coordinate data resulting 
# from the CCDC's data processing and validation procedures.
#
#######################################################################

data_VAHNUP
_symmetry_cell_setting           monoclinic
_symmetry_space_group_name_H-M   'C 2/c'
_symmetry_Int_Tables_number      15
_space_group_name_Hall           '-C 2yn'
loop_
_symmetry_equiv_pos_site_id
_symmetry_equiv_pos_as_xyz
1 x,y,z
2 -x,y,1/2-z
3 1/2+x,1/2+y,z
4 1/2-x,1/2+y,1/2-z
5 -x,-y,-z
6 x,-y,1/2+z
7 1/2-x,1/2-y,-z
8 1/2+x,1/2-y,1/2+z
_cell_length_a                   11.083(2)
_cell_length_b                   9.0814(18)
_cell_length_c                   13.803(3)
_cell_angle_alpha                90
_cell_angle_beta                 103.24(3)
_cell_angle_gamma                90
_cell_volume                     1352.33
loop_
_atom_site_label
_atom_site_type_symbol
_atom_site_fract_x
_atom_site_fract_y
_atom_site_fract_z
Ag1 Ag 0.586903(17) 0.35084(2) 0.994343(14)
S1 S 0.5000 0.35331(9) 0.7500
C1 C 0.7922(2) 0.5144(3) 0.92202(17)
H1 H 0.7574 0.4593 0.8638
C2 C 0.8892(2) 0.6099(3) 0.92135(17)
H2 H 0.9196 0.6191 0.8626
C3 C 0.8960(2) 0.6715(3) 1.08325(18)
H3 H 0.9316 0.7253 1.1419
C4 C 0.7986(2) 0.5763(3) 1.08356(17)
H4 H 0.7683 0.5666 1.1423
O1 O 0.59582(15) 0.2589(2) 0.81253(12)
O2 O 0.44389(17) 0.4459(2) 0.81617(13)
N1 N 0.74613(18) 0.4978(2) 1.00310(14)
N2 N 0.94128(18) 0.6895(2) 1.00162(14)
Ag1A Ag 0.413097(17) 0.35084(2) 0.505657(14)
Ag1B Ag 1.086903(17) 0.85084(2) 0.994343(14)
Ag1C Ag -0.086903(17) 0.85084(2) 0.505657(14)
C1A C 0.2078(2) 0.5144(3) 0.57798(17)
H1A H 0.2426 0.4593 0.6362
C2A C 0.1108(2) 0.6099(3) 0.57865(17)
H2A H 0.0804 0.6191 0.6374
C3A C 0.1040(2) 0.6715(3) 0.41675(18)
H3A H 0.0684 0.7253 0.3581
C4A C 0.2014(2) 0.5763(3) 0.41644(17)
H4A H 0.2317 0.5666 0.3577
O1A O 0.40418(15) 0.2589(2) 0.68747(12)
O2A O 0.55611(17) 0.4459(2) 0.68383(13)
N1A N 0.25387(18) 0.4978(2) 0.49690(14)
N2B N 0.44128(18) 0.1895(2) 1.00162(14)
N2C N 0.55872(18) 0.1895(2) 0.49838(14)
N2A N 0.05872(18) 0.6895(2) 0.49838(14)
O3 O 0.83755(17) 0.2225(2) 0.78945(14)
H5 H 0.7644 0.2259 0.7988
H6 H 0.8641 0.1346 0.7990
loop_
_geom_bond_atom_site_label_1
_geom_bond_atom_site_label_2
_geom_bond_site_symmetry_1
_geom_bond_site_symmetry_2
Ag1 O1 1_555 1_555
S1 O1 1_555 1_555
C1 H1 1_555 1_555
C2 C1 1_555 1_555
H2 C2 1_555 1_555
C3 H3 1_555 1_555
C4 C3 1_555 1_555
H4 C4 1_555 1_555
O2 S1 1_555 1_555
N1 Ag1 1_555 1_555
N2 C2 1_555 1_555
O3 H5 1_555 1_555
H6 O3 1_555 1_555
Ag1A O1A 1_555 1_555
Ag1B N2 1_555 1_555
Ag1C N2A 1_555 1_555
C1A H1A 1_555 1_555
C2A C1A 1_555 1_555
H2A C2A 1_555 1_555
C3A H3A 1_555 1_555
C4A C3A 1_555 1_555
H4A C4A 1_555 1_555
O1A S1 1_555 1_555
O2A S1 1_555 1_555
N1A Ag1A 1_555 1_555
N2B Ag1 1_555 1_555
N2C Ag1A 1_555 1_555
N2A C2A 1_555 1_555
C1 N1 1_555 1_555
C3 N2 1_555 1_555
C4 N1 1_555 1_555
C1A N1A 1_555 1_555
C3A N2A 1_555 1_555
C4A N1A 1_555 1_555

#END
