
#######################################################################
#
#                 Cambridge Crystallographic Data Centre
#                                CCDC 
#
#######################################################################
#
# If this CIF has been generated from an entry in the Cambridge 
# Structural Database, then it will include bibliographic, chemical, 
# crystal, experimental, refinement or atomic coordinate data resulting 
# from the CCDC's data processing and validation procedures.
#
#######################################################################

data_VAHQIF
_symmetry_cell_setting           monoclinic
_symmetry_space_group_name_H-M   'P 2/n'
_symmetry_Int_Tables_number      13
_space_group_name_Hall           '-P 2yac'
loop_
_symmetry_equiv_pos_site_id
_symmetry_equiv_pos_as_xyz
1 x,y,z
2 1/2-x,y,1/2-z
3 -x,-y,-z
4 1/2+x,-y,1/2+z
_cell_length_a                   7.0001(2)
_cell_length_b                   11.5540(3)
_cell_length_c                   11.4192(1)
_cell_angle_alpha                90
_cell_angle_beta                 101.754(2)
_cell_angle_gamma                90
_cell_volume                     904.209
loop_
_atom_site_label
_atom_site_type_symbol
_atom_site_fract_x
_atom_site_fract_y
_atom_site_fract_z
Mn1 Mn 0.2500 0.3909(1) 0.7500
N1 N 0.2500 0.5817(4) 0.7500
N2 N 0.2500 1.1948(4) 0.7500
O1 O 0.1260(5) 0.3740(2) 0.9132(2)
O2 O -0.0529(4) 0.4047(2) 0.6515(2)
C1 C 0.2613(6) 0.6414(3) 0.8511(3)
C2 C 0.2615(6) 0.7609(3) 0.8550(3)
C3 C 0.2500 0.8236(4) 0.7500
C4 C 0.2500 0.9519(4) 0.7500
C5 C 0.3178(6) 1.0150(3) 0.8530(3)
C6 C 0.3167(6) 1.1342(3) 0.8498(4)
C2A C 0.2385(6) 0.7609(3) 0.6450(3)
C1A C 0.2387(6) 0.6414(3) 0.6489(3)
C6A C 0.1833(6) 1.1342(3) 0.6502(4)
C5A C 0.1822(6) 1.0150(3) 0.6470(3)
O1A O 0.3740(5) 0.3740(2) 0.5868(2)
O2A O 0.5529(4) 0.4047(2) 0.8485(2)
N2_2 N 0.2500 0.1948(4) 0.7500
Mn1_2 Mn 0.2500 1.3909(1) 0.7500
O3 O -0.2555(5) 0.6134(2) 0.8462(2)
O4 O -0.2074(4) 1.2198(2) 0.8499(2)
C7 C -0.2500 0.6637(5) 0.7500
C8 C -0.2500 0.7957(5) 0.7500
C9 C -0.1899(6) 0.8572(3) 0.8555(3)
C10 C -0.1894(5) 0.9775(3) 0.8555(3)
C11 C -0.2500 1.0384(5) 0.7500
C12 C -0.2500 1.1692(5) 0.7500
O3A O -0.2445(5) 0.6134(2) 0.6538(2)
C10A C -0.3106(5) 0.9775(3) 0.6445(3)
C9A C -0.3101(6) 0.8572(3) 0.6445(3)
O4A O -0.2926(4) 1.2198(2) 0.6501(2)
loop_
_geom_bond_atom_site_label_1
_geom_bond_atom_site_label_2
_geom_bond_site_symmetry_1
_geom_bond_site_symmetry_2
Mn1 N1 1_555 1_555
N1 C1 1_555 1_555
N2 C6 1_555 1_555
O1 Mn1 1_555 1_555
O2 Mn1 1_555 1_555
O3 C7 1_555 1_555
O4 C12 1_555 1_555
C1 C2 1_555 1_555
C2 C3 1_555 1_555
C3 C4 1_555 1_555
C4 C5 1_555 1_555
C5 C6 1_555 1_555
C7 C8 1_555 1_555
C8 C9 1_555 1_555
C9 C10 1_555 1_555
C10 C11 1_555 1_555
C11 C12 1_555 1_555
C12 O4A 1_555 1_555
C2A C3 1_555 1_555
C1A N1 1_555 1_555
C6A N2 1_555 1_555
C5A C4 1_555 1_555
O3A C7 1_555 1_555
C10A C11 1_555 1_555
C9A C8 1_555 1_555
O1A Mn1 1_555 1_555
O2A Mn1 1_555 1_555
N2_2 Mn1 1_555 1_555
Mn1_2 N2 1_555 1_555
C2A C1A 1_555 1_555
C6A C5A 1_555 1_555
C10A C9A 1_555 1_555

#END
