
#######################################################################
#
#                 Cambridge Crystallographic Data Centre
#                                CCDC 
#
#######################################################################
#
# If this CIF has been generated from an entry in the Cambridge 
# Structural Database, then it will include bibliographic, chemical, 
# crystal, experimental, refinement or atomic coordinate data resulting 
# from the CCDC's data processing and validation procedures.
#
#######################################################################

data_VAHRUT
_symmetry_cell_setting           rhombohedral
_symmetry_space_group_name_H-M   'R 3 2'
_symmetry_Int_Tables_number      155
_space_group_name_Hall           'R 3 2"'
loop_
_symmetry_equiv_pos_site_id
_symmetry_equiv_pos_as_xyz
1 x,y,z
2 -y,x-y,z
3 -x+y,-x,z
4 y,x,-z
5 x-y,-y,-z
6 -x,-x+y,-z
7 2/3+x,1/3+y,1/3+z
8 2/3-y,1/3+x-y,1/3+z
9 2/3-x+y,1/3-x,1/3+z
10 2/3+y,1/3+x,1/3-z
11 2/3+x-y,1/3-y,1/3-z
12 2/3-x,1/3-x+y,1/3-z
13 1/3+x,2/3+y,2/3+z
14 1/3-y,2/3+x-y,2/3+z
15 1/3-x+y,2/3-x,2/3+z
16 1/3+y,2/3+x,2/3-z
17 1/3+x-y,2/3-y,2/3-z
18 1/3-x,2/3-x+y,2/3-z
_cell_length_a                   9.7580(3)
_cell_length_b                   9.7580(3)
_cell_length_c                   21.2982(15)
_cell_angle_alpha                90
_cell_angle_beta                 90
_cell_angle_gamma                120
_cell_volume                     1756.29
loop_
_atom_site_label
_atom_site_type_symbol
_atom_site_fract_x
_atom_site_fract_y
_atom_site_fract_z
La1 La 0.0000 0.0000 0.230512(4)
C1 C 0.20519(18) 0.3333 0.3333
C2 C 0.31353(17) 0.35766(17) 0.27540(7)
O1 O 0.05915(12) 0.20025(13) 0.31960(5)
H1 H -0.002(3) 0.186(3) 0.3498(9)
O2 O 0.27200(15) 0.23930(15) 0.24054(6)
O3 O 0.43616(15) 0.48807(15) 0.26958(6)
O4 O 0.00922(18) 0.1821(2) 0.14594(8)
H2 H 0.094(2) 0.256(3) 0.1300(12)
H3 H -0.072(2) 0.163(3) 0.1207(12)
La1O La 0.3333 0.6667 0.436155(4)
La1O_2 La -0.6667 -0.3333 0.436155(4)
La1O_3 La 0.3333 -0.3333 0.436155(4)
C1A C -0.3333 -0.12811(18) 0.3333
C1B C 0.12811(18) -0.20519(18) 0.3333
C2P C 0.28920(24) 0.30901(17) 0.39127(7)
C2A C -0.35766(17) -0.04413(24) 0.27540(7)
C2O C -0.30901(17) -0.01980(17) 0.39127(7)
C2B C 0.04413(24) -0.31353(17) 0.27540(7)
C2Q C 0.01980(17) -0.28920(24) 0.39127(7)
O1P O 0.19223(18) 0.46642(13) 0.34707(5)
O1A O -0.20025(13) -0.14110(18) 0.31960(5)
O1O O -0.46642(13) -0.27418(12) 0.34707(5)
O1B O 0.14110(18) -0.05915(12) 0.31960(5)
O1Q O 0.27418(12) -0.19223(18) 0.34707(5)
O1Q_2 O 0.27418(12) 0.80777(18) 0.34707(5)
O1O_2 O 0.53358(13) 0.72582(12) 0.34707(5)
H1P H 0.145(4) 0.481(3) 0.3169(9)
H1A H -0.186(3) -0.188(4) 0.3498(9)
H1O H -0.481(3) -0.335(3) 0.3169(9)
H1B H 0.188(4) 0.002(3) 0.3498(9)
H1Q H 0.335(3) -0.145(4) 0.3169(9)
H1Q_2 H 0.335(3) 0.855(4) 0.3169(9)
H1O_2 H 0.519(3) 0.665(3) 0.3169(9)
O2P O 0.36603(21) 0.42737(15) 0.42613(6)
O2A O -0.23930(15) 0.03270(21) 0.24054(6)
O2O O -0.42737(15) -0.06133(15) 0.42613(6)
O2B O -0.03270(21) -0.27200(15) 0.24054(6)
O2Q O 0.06133(15) -0.36603(21) 0.42613(6)
O2Q_2 O 0.06133(15) 0.63397(21) 0.42613(6)
O2O_2 O 0.57263(15) 0.93867(15) 0.42613(6)
O3P O 0.28142(21) 0.17860(15) 0.39709(6)
O3A O -0.48807(15) -0.05191(21) 0.26958(6)
O3O O -0.17860(15) 0.10283(15) 0.39709(6)
O3B O 0.05191(21) -0.43616(15) 0.26958(6)
O3Q O -0.10283(15) -0.28142(21) 0.39709(6)
O4A O -0.1821(2) -0.17288(27) 0.14594(8)
O4B O 0.17288(27) -0.00922(18) 0.14594(8)
O4P O 0.16045(27) 0.4846(2) 0.52073(8)
O4Q O 0.32411(18) 0.83955(27) 0.52073(8)
O4O O 0.5154(2) 0.67589(18) 0.52073(8)
H2A H -0.256(3) -0.162(4) 0.1300(12)
H2B H 0.162(4) -0.094(2) 0.1300(12)
H2P H 0.171(4) 0.411(3) 0.5367(12)
H2Q H 0.239(2) 0.829(4) 0.5367(12)
H2O H 0.589(3) 0.761(2) 0.5367(12)
H3A H -0.163(3) -0.235(4) 0.1207(12)
H3B H 0.235(4) 0.072(2) 0.1207(12)
H3P H 0.098(4) 0.504(3) 0.5460(12)
H3Q H 0.405(2) 0.902(4) 0.5460(12)
H3O H 0.496(3) 0.595(2) 0.5460(12)
loop_
_geom_bond_atom_site_label_1
_geom_bond_atom_site_label_2
_geom_bond_site_symmetry_1
_geom_bond_site_symmetry_2
La1 O1 1_555 1_555
C1 C2 1_555 1_555
C2 O2 1_555 1_555
O1 C1 1_555 1_555
H1 O1 1_555 1_555
O2 La1 1_555 1_555
O3 C2 1_555 1_555
O4 La1 1_555 1_555
H2 O4 1_555 1_555
H3 O4 1_555 1_555
La1O O1P 1_555 1_555
La1O_2 O1O 1_555 1_555
La1O_3 O1Q 1_555 1_555
C1A C2A 1_555 1_555
C1B C2B 1_555 1_555
C2P C1 1_555 1_555
C2A O2A 1_555 1_555
C2O C1A 1_555 1_555
C2B O2B 1_555 1_555
C2Q C1B 1_555 1_555
O1P C1 1_555 1_555
O1A La1 1_555 1_555
O1O C1A 1_555 1_555
O1B La1 1_555 1_555
O1Q C1B 1_555 1_555
O1Q_2 La1O 1_555 1_555
O1O_2 La1O 1_555 1_555
H1P O1P 1_555 1_555
H1A O1A 1_555 1_555
H1O O1O 1_555 1_555
H1B O1B 1_555 1_555
H1Q O1Q 1_555 1_555
H1Q_2 O1Q_2 1_555 1_555
H1O_2 O1O_2 1_555 1_555
O2P La1O 1_555 1_555
O2A La1 1_555 1_555
O2O La1O_2 1_555 1_555
O2B La1 1_555 1_555
O2Q La1O_3 1_555 1_555
O2Q_2 La1O 1_555 1_555
O2O_2 La1O 1_555 1_555
O3P C2P 1_555 1_555
O3A C2A 1_555 1_555
O3O C2O 1_555 1_555
O3B C2B 1_555 1_555
O3Q C2Q 1_555 1_555
O4A La1 1_555 1_555
O4B La1 1_555 1_555
O4P La1O 1_555 1_555
O4Q La1O 1_555 1_555
O4O La1O 1_555 1_555
H2A O4A 1_555 1_555
H2B O4B 1_555 1_555
H2P O4P 1_555 1_555
H2Q O4Q 1_555 1_555
H2O O4O 1_555 1_555
H3A O4A 1_555 1_555
H3B O4B 1_555 1_555
H3P O4P 1_555 1_555
H3Q O4Q 1_555 1_555
H3O O4O 1_555 1_555
C1A O1A 1_555 1_555
C1B O1B 1_555 1_555
C2P O2P 1_555 1_555
C2O O2O 1_555 1_555
C2Q O2Q 1_555 1_555

#END
