
#######################################################################
#
#                 Cambridge Crystallographic Data Centre
#                                CCDC 
#
#######################################################################
#
# If this CIF has been generated from an entry in the Cambridge 
# Structural Database, then it will include bibliographic, chemical, 
# crystal, experimental, refinement or atomic coordinate data resulting 
# from the CCDC's data processing and validation procedures.
#
#######################################################################

data_VAHRON
_symmetry_cell_setting           rhombohedral
_symmetry_space_group_name_H-M   'R 3 2'
_symmetry_Int_Tables_number      155
_space_group_name_Hall           'R 3 2"'
loop_
_symmetry_equiv_pos_site_id
_symmetry_equiv_pos_as_xyz
1 x,y,z
2 -y,x-y,z
3 -x+y,-x,z
4 y,x,-z
5 x-y,-y,-z
6 -x,-x+y,-z
7 2/3+x,1/3+y,1/3+z
8 2/3-y,1/3+x-y,1/3+z
9 2/3-x+y,1/3-x,1/3+z
10 2/3+y,1/3+x,1/3-z
11 2/3+x-y,1/3-y,1/3-z
12 2/3-x,1/3-x+y,1/3-z
13 1/3+x,2/3+y,2/3+z
14 1/3-y,2/3+x-y,2/3+z
15 1/3-x+y,2/3-x,2/3+z
16 1/3+y,2/3+x,2/3-z
17 1/3+x-y,2/3-y,2/3-z
18 1/3-x,2/3-x+y,2/3-z
_cell_length_a                   9.75040(10)
_cell_length_b                   9.75040(10)
_cell_length_c                   21.2854(15)
_cell_angle_alpha                90
_cell_angle_beta                 90
_cell_angle_gamma                120
_cell_volume                     1752.5
loop_
_atom_site_label
_atom_site_type_symbol
_atom_site_fract_x
_atom_site_fract_y
_atom_site_fract_z
La1 La 1.0000 1.0000 0.769562(4)
C1 C 0.79455(15) 0.6667 0.6667
C2 C 0.68631(13) 0.64257(13) 0.72454(5)
O1 O 0.94084(10) 0.79971(10) 0.68037(4)
H1 H 1.011(2) 0.820(3) 0.6520(8)
O2 O 0.72774(12) 0.76096(12) 0.75950(5)
O3 O 0.56344(12) 0.51131(12) 0.73054(5)
O4 O 0.99194(15) 0.81868(16) 0.85431(6)
H2 H 0.911(2) 0.738(2) 0.8665(11)
H3 H 1.071(2) 0.834(3) 0.8782(11)
La1I La 0.6667 0.3333 0.563771(4)
La1I_2 La 1.6667 1.3333 0.563771(4)
La1I_3 La 0.6667 1.3333 0.563771(4)
C1A C 1.3333 1.12785(15) 0.6667
C1B C 0.87215(15) 1.20545(15) 0.6667
C2J C 0.71041(18) 0.69076(13) 0.60879(5)
C2A C 1.35743(13) 1.04374(18) 0.72454(5)
C2I C 1.30924(13) 1.01964(13) 0.60879(5)
C2B C 0.95626(18) 1.31369(13) 0.72454(5)
C2K C 0.98036(13) 1.28959(18) 0.60879(5)
O1J O 0.80780(14) 0.53362(10) 0.65296(4)
O1A O 1.20029(10) 1.14113(14) 0.68037(4)
O1I O 1.46638(10) 1.27417(10) 0.65296(4)
O1B O 0.85887(14) 1.05916(10) 0.68037(4)
O1K O 0.72583(10) 1.19220(14) 0.65296(4)
O1K_2 O 0.72583(10) 0.19220(14) 0.65296(4)
O1I_2 O 0.46638(10) 0.27417(10) 0.65296(4)
H1J H 0.858(4) 0.513(3) 0.6813(8)
H1A H 1.180(3) 1.191(4) 0.6520(8)
H1I H 1.487(3) 1.344(2) 0.6813(8)
H1B H 0.809(4) 0.989(2) 0.6520(8)
H1K H 0.656(2) 1.142(4) 0.6813(8)
H1K_2 H 0.656(2) 0.142(4) 0.6813(8)
H1I_2 H 0.487(3) 0.344(2) 0.6813(8)
O2J O 0.63345(17) 0.57237(12) 0.57383(5)
O2A O 1.23904(12) 0.96678(17) 0.75950(5)
O2I O 1.42763(12) 1.06107(12) 0.57383(5)
O2B O 1.03322(17) 1.27226(12) 0.75950(5)
O2K O 0.93893(12) 1.36655(17) 0.57383(5)
O2K_2 O 0.93893(12) 0.36655(17) 0.57383(5)
O2I_2 O 0.42763(12) 0.06107(12) 0.57383(5)
O3J O 0.71880(17) 0.82202(12) 0.60279(5)
O3A O 1.48869(12) 1.05213(17) 0.73054(5)
O3I O 1.17798(12) 0.89677(12) 0.60279(5)
O3B O 0.94787(17) 1.43656(12) 0.73054(5)
O3K O 1.10323(12) 1.28120(17) 0.60279(5)
O4A O 1.18132(16) 1.17326(22) 0.85431(6)
O4B O 0.82674(22) 1.00806(15) 0.85431(6)
O4J O 0.83993(22) 0.51465(16) 0.47902(6)
O4K O 0.67473(15) 0.16007(22) 0.47902(6)
O4I O 0.48535(16) 0.32527(15) 0.47902(6)
H2A H 1.262(2) 1.173(3) 0.8665(11)
H2B H 0.827(3) 1.089(2) 0.8665(11)
H2J H 0.840(3) 0.595(2) 0.4668(11)
H2K H 0.756(2) 0.160(3) 0.4668(11)
H2I H 0.405(2) 0.244(2) 0.4668(11)
H3A H 1.166(3) 1.237(4) 0.8782(11)
H3B H 0.763(4) 0.929(2) 0.8782(11)
H3J H 0.904(4) 0.499(3) 0.4551(11)
H3K H 0.596(2) 0.096(4) 0.4551(11)
H3I H 0.501(3) 0.404(2) 0.4551(11)
loop_
_geom_bond_atom_site_label_1
_geom_bond_atom_site_label_2
_geom_bond_site_symmetry_1
_geom_bond_site_symmetry_2
La1 O1 1_555 1_555
C1 C2 1_555 1_555
C2 O2 1_555 1_555
O1 C1 1_555 1_555
H1 O1 1_555 1_555
O2 La1 1_555 1_555
O3 C2 1_555 1_555
O4 La1 1_555 1_555
H2 O4 1_555 1_555
H3 O4 1_555 1_555
La1I O1J 1_555 1_555
La1I_2 O1I 1_555 1_555
La1I_3 O1K 1_555 1_555
C1A C2A 1_555 1_555
C1B C2B 1_555 1_555
C2J C1 1_555 1_555
C2A O2A 1_555 1_555
C2I C1A 1_555 1_555
C2B O2B 1_555 1_555
C2K C1B 1_555 1_555
O1J C1 1_555 1_555
O1A La1 1_555 1_555
O1I C1A 1_555 1_555
O1B La1 1_555 1_555
O1K C1B 1_555 1_555
O1K_2 La1I 1_555 1_555
O1I_2 La1I 1_555 1_555
H1J O1J 1_555 1_555
H1A O1A 1_555 1_555
H1I O1I 1_555 1_555
H1B O1B 1_555 1_555
H1K O1K 1_555 1_555
H1K_2 O1K_2 1_555 1_555
H1I_2 O1I_2 1_555 1_555
O2J La1I 1_555 1_555
O2A La1 1_555 1_555
O2I La1I_2 1_555 1_555
O2B La1 1_555 1_555
O2K La1I_3 1_555 1_555
O2K_2 La1I 1_555 1_555
O2I_2 La1I 1_555 1_555
O3J C2J 1_555 1_555
O3A C2A 1_555 1_555
O3I C2I 1_555 1_555
O3B C2B 1_555 1_555
O3K C2K 1_555 1_555
O4A La1 1_555 1_555
O4B La1 1_555 1_555
O4J La1I 1_555 1_555
O4K La1I 1_555 1_555
O4I La1I 1_555 1_555
H2A O4A 1_555 1_555
H2B O4B 1_555 1_555
H2J O4J 1_555 1_555
H2K O4K 1_555 1_555
H2I O4I 1_555 1_555
H3A O4A 1_555 1_555
H3B O4B 1_555 1_555
H3J O4J 1_555 1_555
H3K O4K 1_555 1_555
H3I O4I 1_555 1_555
C1A O1A 1_555 1_555
C1B O1B 1_555 1_555
C2J O2J 1_555 1_555
C2I O2I 1_555 1_555
C2K O2K 1_555 1_555

#END
