
#######################################################################
#
#                 Cambridge Crystallographic Data Centre
#                                CCDC 
#
#######################################################################
#
# If this CIF has been generated from an entry in the Cambridge 
# Structural Database, then it will include bibliographic, chemical, 
# crystal, experimental, refinement or atomic coordinate data resulting 
# from the CCDC's data processing and validation procedures.
#
#######################################################################

data_VAHSAA01
_symmetry_cell_setting           rhombohedral
_symmetry_space_group_name_H-M   'R 3 2'
_symmetry_Int_Tables_number      155
_space_group_name_Hall           'R 3 2"'
loop_
_symmetry_equiv_pos_site_id
_symmetry_equiv_pos_as_xyz
1 x,y,z
2 -y,x-y,z
3 -x+y,-x,z
4 y,x,-z
5 x-y,-y,-z
6 -x,-x+y,-z
7 2/3+x,1/3+y,1/3+z
8 2/3-y,1/3+x-y,1/3+z
9 2/3-x+y,1/3-x,1/3+z
10 2/3+y,1/3+x,1/3-z
11 2/3+x-y,1/3-y,1/3-z
12 2/3-x,1/3-x+y,1/3-z
13 1/3+x,2/3+y,2/3+z
14 1/3-y,2/3+x-y,2/3+z
15 1/3-x+y,2/3-x,2/3+z
16 1/3+y,2/3+x,2/3-z
17 1/3+x-y,2/3-y,2/3-z
18 1/3-x,2/3-x+y,2/3-z
_cell_length_a                   9.6396(8)
_cell_length_b                   9.6396(8)
_cell_length_c                   20.7433(16)
_cell_angle_alpha                90
_cell_angle_beta                 90
_cell_angle_gamma                120
_cell_volume                     1669.27
loop_
_atom_site_label
_atom_site_type_symbol
_atom_site_fract_x
_atom_site_fract_y
_atom_site_fract_z
Gd1 Gd 1.0000 1.0000 0.766162(7)
C1 C 0.7977(3) 0.6667 0.6667
C2 C 0.6902(3) 0.6461(3) 0.72650(12)
O1 O 0.9449(2) 0.8022(2) 0.67977(9)
H1 H 1.011(3) 0.809(4) 0.6505(13)
O2 O 0.7335(3) 0.7682(3) 0.76080(10)
O3 O 0.5680(3) 0.5140(3) 0.73449(11)
O4 O 0.9859(3) 0.8185(3) 0.84797(12)
H2 H 0.901(3) 0.736(3) 0.8621(16)
H3 H 1.070(3) 0.825(4) 0.8684(16)
Gd1I Gd 0.6667 0.3333 0.567171(7)
Gd1I_2 Gd 1.6667 1.3333 0.567171(7)
Gd1I_3 Gd 0.6667 1.3333 0.567171(7)
C1A C 1.3333 1.1310(3) 0.6667
C1B C 0.8690(3) 1.2023(3) 0.6667
C2J C 0.7108(4) 0.6872(3) 0.60683(12)
C2A C 1.3539(3) 1.0441(4) 0.72650(12)
C2I C 1.3128(3) 1.0235(3) 0.60683(12)
C2B C 0.9559(4) 1.3098(3) 0.72650(12)
C2K C 0.9765(3) 1.2892(4) 0.60683(12)
O1J O 0.8094(3) 0.5311(2) 0.65356(9)
O1A O 1.1978(2) 1.1427(3) 0.67977(9)
O1I O 1.4689(2) 1.2782(2) 0.65356(9)
O1B O 0.8573(3) 1.0551(2) 0.67977(9)
O1K O 0.7218(2) 1.1906(3) 0.65356(9)
O1K_2 O 0.7218(2) 0.1906(3) 0.65356(9)
O1I_2 O 0.4689(2) 0.2782(2) 0.65356(9)
H1J H 0.869(5) 0.524(4) 0.6828(13)
H1A H 1.191(4) 1.202(5) 0.6505(13)
H1I H 1.476(4) 1.344(3) 0.6828(13)
H1B H 0.798(5) 0.989(3) 0.6505(13)
H1K H 0.656(3) 1.131(5) 0.6828(13)
H1K_2 H 0.656(3) 0.131(5) 0.6828(13)
H1I_2 H 0.476(4) 0.344(3) 0.6828(13)
O2J O 0.6320(4) 0.5651(3) 0.57253(10)
O2A O 1.2318(3) 0.9653(4) 0.76080(10)
O2I O 1.4349(3) 1.0668(3) 0.57253(10)
O2B O 1.0347(4) 1.2665(3) 0.76080(10)
O2K O 0.9332(3) 1.3680(4) 0.57253(10)
O2K_2 O 0.9332(3) 0.3680(4) 0.57253(10)
O2I_2 O 0.4349(3) 0.0668(3) 0.57253(10)
O3J O 0.7207(4) 0.8193(3) 0.59884(11)
O3A O 1.4860(3) 1.0540(4) 0.73449(11)
O3I O 1.1807(3) 0.9013(3) 0.59884(11)
O3B O 0.9460(4) 1.4320(3) 0.73449(11)
O3K O 1.0987(3) 1.2793(4) 0.59884(11)
O4A O 1.1815(3) 1.1674(4) 0.84797(12)
O4B O 0.8326(4) 1.0141(3) 0.84797(12)
O4J O 0.8341(4) 0.5148(3) 0.48536(12)
O4K O 0.6808(3) 0.1659(4) 0.48536(12)
O4I O 0.4852(3) 0.3192(3) 0.48536(12)
H2A H 1.264(3) 1.165(4) 0.8621(16)
H2B H 0.835(4) 1.099(3) 0.8621(16)
H2J H 0.832(4) 0.597(3) 0.4712(16)
H2K H 0.766(3) 0.168(4) 0.4712(16)
H2I H 0.403(3) 0.234(3) 0.4712(16)
H3A H 1.175(4) 1.245(5) 0.8684(16)
H3B H 0.755(5) 0.930(3) 0.8684(16)
H3J H 0.912(5) 0.508(4) 0.4649(16)
H3K H 0.597(3) 0.088(5) 0.4649(16)
H3I H 0.492(4) 0.403(3) 0.4649(16)
loop_
_geom_bond_atom_site_label_1
_geom_bond_atom_site_label_2
_geom_bond_site_symmetry_1
_geom_bond_site_symmetry_2
Gd1 O1 1_555 1_555
C1 C2 1_555 1_555
C2 O2 1_555 1_555
O1 C1 1_555 1_555
H1 O1 1_555 1_555
O2 Gd1 1_555 1_555
O3 C2 1_555 1_555
O4 Gd1 1_555 1_555
H2 O4 1_555 1_555
H3 O4 1_555 1_555
Gd1I O1J 1_555 1_555
Gd1I_2 O1I 1_555 1_555
Gd1I_3 O1K 1_555 1_555
C1A C2A 1_555 1_555
C1B C2B 1_555 1_555
C2J C1 1_555 1_555
C2A O2A 1_555 1_555
C2I C1A 1_555 1_555
C2B O2B 1_555 1_555
C2K C1B 1_555 1_555
O1J C1 1_555 1_555
O1A Gd1 1_555 1_555
O1I C1A 1_555 1_555
O1B Gd1 1_555 1_555
O1K C1B 1_555 1_555
O1K_2 Gd1I 1_555 1_555
O1I_2 Gd1I 1_555 1_555
H1J O1J 1_555 1_555
H1A O1A 1_555 1_555
H1I O1I 1_555 1_555
H1B O1B 1_555 1_555
H1K O1K 1_555 1_555
H1K_2 O1K_2 1_555 1_555
H1I_2 O1I_2 1_555 1_555
O2J Gd1I 1_555 1_555
O2A Gd1 1_555 1_555
O2I Gd1I_2 1_555 1_555
O2B Gd1 1_555 1_555
O2K Gd1I_3 1_555 1_555
O2K_2 Gd1I 1_555 1_555
O2I_2 Gd1I 1_555 1_555
O3J C2J 1_555 1_555
O3A C2A 1_555 1_555
O3I C2I 1_555 1_555
O3B C2B 1_555 1_555
O3K C2K 1_555 1_555
O4A Gd1 1_555 1_555
O4B Gd1 1_555 1_555
O4J Gd1I 1_555 1_555
O4K Gd1I 1_555 1_555
O4I Gd1I 1_555 1_555
H2A O4A 1_555 1_555
H2B O4B 1_555 1_555
H2J O4J 1_555 1_555
H2K O4K 1_555 1_555
H2I O4I 1_555 1_555
H3A O4A 1_555 1_555
H3B O4B 1_555 1_555
H3J O4J 1_555 1_555
H3K O4K 1_555 1_555
H3I O4I 1_555 1_555
C1A O1A 1_555 1_555
C1B O1B 1_555 1_555
C2J O2J 1_555 1_555
C2I O2I 1_555 1_555
C2K O2K 1_555 1_555

#END
