
#######################################################################
#
#                 Cambridge Crystallographic Data Centre
#                                CCDC 
#
#######################################################################
#
# If this CIF has been generated from an entry in the Cambridge 
# Structural Database, then it will include bibliographic, chemical, 
# crystal, experimental, refinement or atomic coordinate data resulting 
# from the CCDC's data processing and validation procedures.
#
#######################################################################

data_VAHVAC
_symmetry_cell_setting           monoclinic
_symmetry_space_group_name_H-M   'P 21/c'
_symmetry_Int_Tables_number      14
_space_group_name_Hall           '-P 2ybc'
loop_
_symmetry_equiv_pos_site_id
_symmetry_equiv_pos_as_xyz
1 x,y,z
2 -x,1/2+y,1/2-z
3 -x,-y,-z
4 x,1/2-y,1/2+z
_cell_length_a                   7.8614(2)
_cell_length_b                   14.9332(3)
_cell_length_c                   15.9153(4)
_cell_angle_alpha                90
_cell_angle_beta                 94.587(1)
_cell_angle_gamma                90
_cell_volume                     1862.41
loop_
_atom_site_label
_atom_site_type_symbol
_atom_site_fract_x
_atom_site_fract_y
_atom_site_fract_z
Cd1 Cd 0.2456(1) 0.1465(1) 0.4562(1)
Cd2 Cd 0.2504(1) 0.5527(1) 0.4938(1)
O1 O 0.0784(8) 0.2721(4) 0.4817(4)
O2 O 0.4192(8) 0.2683(4) 0.4914(4)
O3 O 0.1123(9) 0.0158(4) 0.4097(4)
O4 O 0.4780(8) 0.0671(5) 0.4098(4)
O5 O 0.6120(9) -0.0636(5) 0.4302(4)
O6 O -0.0319(8) -0.1027(4) 0.4487(4)
N1 N 0.2184(10) 0.2056(5) 0.3185(5)
N2 N 0.2437(10) 0.5452(5) 0.3536(5)
N3 N 0.2573(10) 0.5808(5) 0.6313(5)
O7 O 0.0823(8) 0.4188(4) 0.5092(4)
O8 O 0.2406(12) 0.7109(6) 0.4656(5)
O9 O 0.4268(8) 0.4169(4) 0.4982(4)
N4 N 0.2888(16) 0.2439(8) 0.1916(6)
C1 C 0.3348(14) 0.1893(7) 0.2596(6)
C2 C 0.1491(12) 0.2906(6) 0.2072(6)
C3 C 0.1123(14) 0.2656(7) 0.2836(6)
N5 N 0.2849(12) 0.5090(6) 0.2240(5)
C4 C 0.3028(13) 0.4840(7) 0.3044(7)
C5 C 0.2066(14) 0.5880(8) 0.2192(6)
C6 C 0.1784(15) 0.6121(7) 0.3007(6)
N6 N 0.2191(11) 0.5622(6) 0.7657(5)
C7 C 0.3274(12) 0.6523(7) 0.6772(6)
C8 C 0.3022(14) 0.6397(7) 0.7591(6)
C9 C 0.1927(13) 0.5271(7) 0.6878(6)
C10 C 0.0214(12) -0.0257(6) 0.4611(6)
C11 C 0.5247(12) 0.0019(7) 0.4538(5)
C12 C 0.1525(12) 0.3454(6) 0.4945(5)
C13 C 0.3517(11) 0.3439(7) 0.4944(5)
C10B C -0.0214(12) 0.0257(6) 0.5389(6)
O3B O -0.1123(9) -0.0158(4) 0.5903(4)
O6B O 0.0319(8) 0.1027(4) 0.5513(4)
C11B C 0.4753(12) -0.0019(7) 0.5462(5)
O4B O 0.5220(8) -0.0671(5) 0.5902(4)
O5B O 0.3880(9) 0.0636(5) 0.5698(4)
Cd1B Cd -0.2456(1) -0.1465(1) 0.5438(1)
Cd2B Cd -0.2504(1) 0.4473(1) 0.5062(1)
O1B O -0.0784(8) 0.7279(4) 0.5183(4)
O2B O -0.4192(8) 0.7317(4) 0.5086(4)
O7B O -0.0823(8) 0.5812(4) 0.4908(4)
O9B O -0.4268(8) 0.5831(4) 0.5018(4)
C12B C -0.1525(12) 0.6546(6) 0.5055(5)
C13B C -0.3517(11) 0.6561(7) 0.5056(5)
N1B N -0.2184(10) -0.2056(5) 0.6815(5)
N4B N -0.2888(16) -0.2439(8) 0.8084(6)
C1B C -0.3348(14) -0.1893(7) 0.7404(6)
C2B C -0.1491(12) -0.2906(6) 0.7928(6)
C3B C -0.1123(14) -0.2656(7) 0.7164(6)
N2B N -0.2437(10) 0.4548(5) 0.6464(5)
N5B N -0.2849(12) 0.4910(6) 0.7760(5)
C4B C -0.3028(13) 0.5160(7) 0.6956(7)
C5B C -0.2066(14) 0.4120(8) 0.7808(6)
C6B C -0.1784(15) 0.3879(7) 0.6993(6)
N3B N -0.2573(10) 0.4192(5) 0.3687(5)
N6B N -0.2191(11) 0.4378(6) 0.2343(5)
C7B C -0.3274(12) 0.3477(7) 0.3228(6)
C8B C -0.3022(14) 0.3603(7) 0.2409(6)
C9B C -0.1927(13) 0.4729(7) 0.3122(6)
O8B O -0.2406(12) 0.2891(6) 0.5344(5)
O9B_2 O 0.5732(8) 0.5831(4) 0.5018(4)
Cd1B_2 Cd 0.7544(1) -0.1465(1) 0.5438(1)
Cd2B_2 Cd 0.7496(1) 0.4473(1) 0.5062(1)
O1B_2 O -0.0784(8) -0.2721(4) 0.5183(4)
O2B_2 O -0.4192(8) -0.2683(4) 0.5086(4)
O4B_2 O -0.4780(8) -0.0671(5) 0.5902(4)
O5_2 O -0.3880(9) -0.0636(5) 0.4302(4)
O9_2 O -0.5732(8) 0.4169(4) 0.4982(4)
Cd1B_3 Cd -0.2456(1) 0.8535(1) 0.5438(1)
Cd2_2 Cd -0.7496(1) 0.5527(1) 0.4938(1)
loop_
_geom_bond_atom_site_label_1
_geom_bond_atom_site_label_2
_geom_bond_site_symmetry_1
_geom_bond_site_symmetry_2
Cd1 O1 1_555 1_555
Cd2 N2 1_555 1_555
O1 C12 1_555 1_555
O2 Cd1 1_555 1_555
O3 Cd1 1_555 1_555
O4 Cd1 1_555 1_555
O5 C11 1_555 1_555
O6 C10 1_555 1_555
N1 Cd1 1_555 1_555
N2 C4 1_555 1_555
N3 Cd2 1_555 1_555
O7 Cd2 1_555 1_555
O8 Cd2 1_555 1_555
O9 Cd2 1_555 1_555
N4 C1 1_555 1_555
C1 N1 1_555 1_555
C2 N4 1_555 1_555
C3 N1 1_555 1_555
N5 C4 1_555 1_555
C5 N5 1_555 1_555
C6 N2 1_555 1_555
N6 C8 1_555 1_555
C7 N3 1_555 1_555
C8 C7 1_555 1_555
C9 N3 1_555 1_555
C10 O3 1_555 1_555
C11 O4 1_555 1_555
C12 O7 1_555 1_555
C13 O2 1_555 1_555
C10B C10 1_555 1_555
O3B C10B 1_555 1_555
O6B Cd1 1_555 1_555
C11B C11 1_555 1_555
O4B C11B 1_555 1_555
O5B Cd1 1_555 1_555
Cd1B O6 1_555 1_555
Cd2B O7 1_555 1_555
O1B C12B 1_555 1_555
O2B C13B 1_555 1_555
O7B Cd2 1_555 1_555
O9B Cd2B 1_555 1_555
C12B O7B 1_555 1_555
C13B O9B 1_555 1_555
N1B Cd1B 1_555 1_555
N4B C1B 1_555 1_555
C1B N1B 1_555 1_555
C2B N4B 1_555 1_555
C3B N1B 1_555 1_555
N2B Cd2B 1_555 1_555
N5B C4B 1_555 1_555
C4B N2B 1_555 1_555
C5B N5B 1_555 1_555
C6B N2B 1_555 1_555
N3B Cd2B 1_555 1_555
N6B C8B 1_555 1_555
C7B N3B 1_555 1_555
C8B C7B 1_555 1_555
C9B N3B 1_555 1_555
O8B Cd2B 1_555 1_555
O9B_2 Cd2 1_555 1_555
Cd1B_2 O5 1_555 1_555
Cd2B_2 O9 1_555 1_555
O1B_2 Cd1B 1_555 1_555
O2B_2 Cd1B 1_555 1_555
O4B_2 Cd1B 1_555 1_555
O5_2 Cd1B 1_555 1_555
O9_2 Cd2B 1_555 1_555
Cd1B_3 O1B 1_555 1_555
Cd2_2 O9B 1_555 1_555
O9 C13 1_555 1_555
C2 C3 1_555 1_555
C5 C6 1_555 1_555
N6 C9 1_555 1_555
C12 C13 1_555 1_555
C10B O6B 1_555 1_555
O3B Cd1B 1_555 1_555
C11B O5B 1_555 1_555
O4B Cd1B_2 1_555 1_555
Cd2B O7B 1_555 1_555
O2B Cd1B_3 1_555 1_555
C12B C13B 1_555 1_555
C2B C3B 1_555 1_555
C5B C6B 1_555 1_555
N6B C9B 1_555 1_555
O9B_2 Cd2B_2 1_555 1_555
O9_2 Cd2_2 1_555 1_555

#END
