
#######################################################################
#
#                 Cambridge Crystallographic Data Centre
#                                CCDC 
#
#######################################################################
#
# If this CIF has been generated from an entry in the Cambridge 
# Structural Database, then it will include bibliographic, chemical, 
# crystal, experimental, refinement or atomic coordinate data resulting 
# from the CCDC's data processing and validation procedures.
#
#######################################################################

data_VAHWOS02
_symmetry_cell_setting           orthorhombic
_symmetry_space_group_name_H-M   'P 21 21 21'
_symmetry_Int_Tables_number      19
_space_group_name_Hall           'P 2ac 2ab'
loop_
_symmetry_equiv_pos_site_id
_symmetry_equiv_pos_as_xyz
1 x,y,z
2 1/2-x,-y,1/2+z
3 -x,1/2+y,1/2-z
4 1/2+x,1/2-y,-z
_cell_length_a                   8.0626(5)
_cell_length_b                   8.7291(6)
_cell_length_c                   12.9913(9)
_cell_angle_alpha                90
_cell_angle_beta                 90
_cell_angle_gamma                90
_cell_volume                     914.318
loop_
_atom_site_label
_atom_site_type_symbol
_atom_site_fract_x
_atom_site_fract_y
_atom_site_fract_z
Zn1 Zn 1.02208(4) 0.09000(3) 1.38149(2)
N1 N 0.9204(3) 0.1851(3) 1.25458(18)
N2 N 0.9425(3) 0.3333(3) 1.24790(17)
N3 N 0.8857(3) 0.1215(3) 1.16190(18)
N4 N 0.9230(3) 0.3721(3) 1.14887(17)
N5 N 0.8935(3) 0.1502(3) 0.50596(18)
N6 N 0.9361(3) 0.1173(3) 0.60406(17)
N7 N 0.7737(3) 0.2504(3) 0.5010(2)
N8 N 0.7332(3) 0.2870(3) 0.59832(17)
C1 C 0.8878(3) 0.2406(3) 1.0980(2)
C2 C 0.8645(4) 0.2286(3) 0.9864(2)
C3 C 0.9074(3) 0.0928(4) 0.9348(2)
H1 H 0.9455 0.0068 0.9729
C4 C 0.8074(4) 0.3536(3) 0.9297(2)
H2 H 0.7764 0.4453 0.9641
C5 C 0.8945(3) 0.0839(4) 0.8288(2)
H3 H 0.9228 -0.0085 0.7943
C6 C 0.7958(4) 0.3448(3) 0.8236(2)
H4 H 0.7577 0.4308 0.7855
C7 C 0.8396(4) 0.2108(3) 0.7723(2)
C8 C 0.8348(3) 0.2035(3) 0.6592(2)
Zn1B Zn 0.97792(4) 0.59000(3) 1.11851(2)
Zn1_2 Zn 1.02208(4) 0.09000(3) 0.38149(2)
Zn1C Zn 0.52208(4) 0.41000(3) 0.61851(2)
N4B N 1.0770(3) -0.1279(3) 1.35113(17)
N5_2 N 0.8935(3) 0.1502(3) 1.50596(18)
N8C N 1.2332(3) 0.2130(3) 1.40168(17)
loop_
_geom_bond_atom_site_label_1
_geom_bond_atom_site_label_2
_geom_bond_site_symmetry_1
_geom_bond_site_symmetry_2
Zn1 N1 1_555 1_555
N1 N2 1_555 1_555
N2 N4 1_555 1_555
N3 N1 1_555 1_555
N4 C1 1_555 1_555
N5 N6 1_555 1_555
N6 C8 1_555 1_555
N7 N5 1_555 1_555
N8 N7 1_555 1_555
C1 N3 1_555 1_555
C2 C1 1_555 1_555
C3 C2 1_555 1_555
H1 C3 1_555 1_555
C4 C2 1_555 1_555
H2 C4 1_555 1_555
C5 C3 1_555 1_555
H3 C5 1_555 1_555
C6 C4 1_555 1_555
H4 C6 1_555 1_555
C7 C5 1_555 1_555
C8 N8 1_555 1_555
Zn1B N4 1_555 1_555
Zn1_2 N5 1_555 1_555
Zn1C N8 1_555 1_555
N4B Zn1 1_555 1_555
N5_2 Zn1 1_555 1_555
N8C Zn1 1_555 1_555
C6 C7 1_555 1_555
C7 C8 1_555 1_555

#END
