
#######################################################################
#
#                 Cambridge Crystallographic Data Centre
#                                CCDC 
#
#######################################################################
#
# If this CIF has been generated from an entry in the Cambridge 
# Structural Database, then it will include bibliographic, chemical, 
# crystal, experimental, refinement or atomic coordinate data resulting 
# from the CCDC's data processing and validation procedures.
#
#######################################################################

data_VAJNOL
_symmetry_cell_setting           monoclinic
_symmetry_space_group_name_H-M   'P 2/c'
_symmetry_Int_Tables_number      13
_space_group_name_Hall           '-P 2yc'
loop_
_symmetry_equiv_pos_site_id
_symmetry_equiv_pos_as_xyz
1 x,y,z
2 -x,y,1/2-z
3 -x,-y,-z
4 x,-y,1/2+z
_cell_length_a                   23.660(3)
_cell_length_b                   10.5129(11)
_cell_length_c                   21.702(2)
_cell_angle_alpha                90
_cell_angle_beta                 105.241(2)
_cell_angle_gamma                90
_cell_volume                     5208.19
loop_
_atom_site_label
_atom_site_type_symbol
_atom_site_fract_x
_atom_site_fract_y
_atom_site_fract_z
Tb1 Tb 0.0000 0.77269(5) 0.7500
Tb2 Tb 0.5000 0.47060(6) 0.2500
Cu1 Cu 0.21306(5) 0.66750(13) 0.79011(5)
Cu2 Cu 0.26890(6) 0.63646(12) 0.30518(5)
Cu3 Cu 0.68655(5) 0.04914(12) 0.37913(5)
N1 N 0.0475(3) 0.8988(7) 0.6794(3)
N2 N 0.0000 0.5342(9) 0.7500
N3 N 0.4814(3) 0.3633(7) 0.3478(3)
N4 N 0.5000 0.7081(11) 0.2500
N5 N 0.2272(3) 0.6806(7) 0.7068(3)
N6 N 0.2596(3) 0.6566(7) 0.3905(3)
N7 N 0.2226(3) 0.6925(7) 0.8800(3)
N8 N 0.2578(3) 0.6596(7) 1.2157(3)
N9 N 0.6954(3) 0.0089(7) 0.4670(3)
N10 N 0.6912(3) -0.0466(7) 0.7930(3)
O1 O 0.0686(3) 0.9317(6) 0.8027(3)
O2 O 0.1338(3) 1.0870(6) 0.8028(3)
O3 O -0.0234(3) 0.7074(6) 0.6381(3)
O4 O -0.0257(4) 0.7420(8) 0.5361(3)
O5 O 0.0944(2) 0.6714(6) 0.7587(3)
O6 O 0.1525(2) 0.5008(6) 0.7756(3)
O7 O 0.4118(3) 0.5361(6) 0.2801(3)
O8 O 0.3507(3) 0.5205(8) 0.3430(3)
O9 O 0.5655(3) 0.2974(6) 0.2955(3)
O10 O 0.6035(3) 0.1606(6) 0.3741(3)
O11 O 0.4457(3) 0.5697(6) 0.1521(3)
O12 O 0.4230(3) 0.7404(7) 0.0885(3)
C1 C 0.0975(4) 1.0070(8) 0.7758(4)
C2 C 0.0837(4) 0.9932(8) 0.7041(4)
C3 C 0.1063(4) 1.0731(10) 0.6651(5)
H9 H 0.1309 1.1401 0.6828
C4 C 0.0922(4) 1.0528(10) 0.6012(5)
H10 H 0.1075 1.1054 0.5750
C5 C 0.0555(4) 0.9545(10) 0.5749(5)
H11 H 0.0460 0.9385 0.5313
C6 C 0.0325(4) 0.8787(9) 0.6160(4)
C7 C -0.0097(4) 0.7692(9) 0.5953(4)
C8 C 0.1031(3) 0.5534(8) 0.7649(4)
C9 C 0.0503(4) 0.4700(8) 0.7583(4)
C10 C 0.0519(4) 0.3380(8) 0.7592(5)
H12 H 0.0875 0.2958 0.7659
C11 C 0.0000 0.2684(14) 0.7500
H13 H 0.0000 0.1800 0.7500
C12 C 0.3968(4) 0.4976(9) 0.3288(4)
C13 C 0.4384(4) 0.4069(9) 0.3717(4)
C14 C 0.4370(4) 0.3767(10) 0.4331(5)
H14 H 0.4081 0.4099 0.4504
C15 C 0.4801(5) 0.2949(11) 0.4688(5)
H15 H 0.4804 0.2728 0.5104
C16 C 0.5219(4) 0.2477(10) 0.4412(5)
H16 H 0.5504 0.1916 0.4636
C17 C 0.5211(4) 0.2839(9) 0.3809(4)
C18 C 0.5685(3) 0.2440(8) 0.3473(4)
C19 C 0.4454(4) 0.6880(10) 0.1404(5)
C20 C 0.4735(4) 0.7709(9) 0.1974(5)
C21 C 0.4720(5) 0.9020(11) 0.1956(6)
H17 H 0.4526 0.9451 0.1587
C22 C 0.5000 0.9669(19) 0.2500
H18 H 0.5000 1.0554 0.2500
C23 C 0.1840(4) 0.7191(10) 0.6563(4)
H19 H 0.1491 0.7477 0.6635
C24 C 0.1892(4) 0.7179(9) 0.5941(4)
H20 H 0.1581 0.7453 0.5608
C25 C 0.2405(4) 0.6758(9) 0.5814(4)
C26 C 0.2854(4) 0.6356(8) 0.6345(4)
H21 H 0.3207 0.6060 0.6290
C27 C 0.2764(4) 0.6403(9) 0.6939(4)
H22 H 0.3068 0.6135 0.7280
C28 C 0.3066(4) 0.6680(9) 0.4406(4)
H23 H 0.3435 0.6717 0.4331
C29 C 0.3025(4) 0.6745(9) 0.5033(4)
H24 H 0.3360 0.6846 0.5368
C30 C 0.2478(4) 0.6659(8) 0.5152(4)
C31 C 0.1995(4) 0.6539(10) 0.4633(4)
H25 H 0.1620 0.6485 0.4691
C32 C 0.2079(4) 0.6502(9) 0.4036(4)
H26 H 0.1748 0.6426 0.3693
C33 C 0.1761(4) 0.7213(9) 0.9057(4)
H27 H 0.1400 0.7418 0.8783
C34 C 0.1821(4) 0.7204(8) 0.9697(4)
H28 H 0.1496 0.7381 0.9849
C35 C 0.2341(4) 0.6944(8) 1.0119(4)
C36 C 0.2819(4) 0.6697(8) 0.9872(4)
H29 H 0.3188 0.6540 1.0142
C37 C 0.2731(4) 0.6691(9) 0.9214(4)
H30 H 0.3050 0.6509 0.9055
C38 C 0.3009(4) 0.6940(9) 1.1916(4)
H31 H 0.3375 0.7090 1.2195
C39 C 0.2945(4) 0.7095(9) 1.1257(4)
H32 H 0.3267 0.7347 1.1116
C40 C 0.2417(4) 0.6881(8) 1.0817(4)
C41 C 0.1953(4) 0.6540(8) 1.1076(4)
H33 H 0.1583 0.6399 1.0805
C42 C 0.2038(4) 0.6415(9) 1.1716(4)
H34 H 0.1718 0.6196 1.1869
C43 C 0.6463(4) -0.0170(9) 0.4843(4)
H35 H 0.6115 -0.0272 0.4526
C44 C 0.6450(4) -0.0293(9) 0.5475(4)
H36 H 0.6099 -0.0465 0.5575
C45 C 0.6972(4) -0.0157(9) 0.5967(4)
C46 C 0.7473(4) 0.0093(9) 0.5784(4)
H37 H 0.7827 0.0196 0.6092
C47 C 0.7456(4) 0.0195(8) 0.5145(4)
H38 H 0.7805 0.0343 0.5035
C48 C 0.6507(4) -0.1023(9) 0.7463(4)
H39 H 0.6209 -0.1481 0.7567
C49 C 0.6512(4) -0.0943(10) 0.6823(4)
H40 H 0.6215 -0.1324 0.6511
C50 C 0.6957(4) -0.0303(8) 0.6650(4)
C51 C 0.7391(4) 0.0236(9) 0.7135(4)
H41 H 0.7700 0.0676 0.7043
C52 C 0.7358(4) 0.0108(9) 0.7765(4)
H42 H 0.7661 0.0439 0.8088
Tb2_2 Tb -0.5000 0.47060(6) 1.2500
Cu1A Cu -0.21306(5) 0.66750(13) 0.70989(5)
Cu2A Cu -0.26890(6) 0.63646(12) 1.19482(5)
Cu2_2 Cu 0.26890(6) 0.63646(12) 1.30518(5)
Cu2A_2 Cu -0.26890(6) 0.63646(12) 0.19482(5)
Cu3A Cu -0.68655(5) 0.04914(12) 1.12087(5)
Cu3C Cu 0.68655(5) -0.04914(12) 0.87913(5)
Cu3C_2 Cu 0.68655(5) -0.04914(12) -0.12087(5)
N1A N -0.0475(3) 0.8988(7) 0.8206(3)
N3A N -0.4814(3) 0.3633(7) 1.1522(3)
N3A_2 N 0.5186(3) 0.3633(7) 0.1522(3)
N5A N -0.2272(3) 0.6806(7) 0.7932(3)
N6A N -0.2596(3) 0.6566(7) 1.1095(3)
N7A N -0.2226(3) 0.6925(7) 0.6200(3)
N8A N -0.2578(3) 0.6596(7) 0.2843(3)
N8_2 N 0.2578(3) 0.6596(7) 0.2157(3)
N8A_2 N -0.2578(3) 0.6596(7) 1.2843(3)
N9C N 0.6954(3) -0.0089(7) -0.0330(3)
N9A N -0.6954(3) 0.0089(7) 1.0330(3)
N10C N 0.6912(3) 0.0466(7) 0.2930(3)
N10B N -0.6912(3) 0.0466(7) 1.2070(3)
O1A O -0.0686(3) 0.9317(6) 0.6973(3)
O2A O -0.1338(3) 1.0870(6) 0.6972(3)
O3A O 0.0234(3) 0.7074(6) 0.8619(3)
O4A O 0.0257(4) 0.7420(8) 0.9639(3)
O5A O -0.0944(2) 0.6714(6) 0.7413(3)
O6A O -0.1525(2) 0.5008(6) 0.7244(3)
O7A O -0.4118(3) 0.5361(6) 1.2199(3)
O7A_2 O 0.5882(3) 0.5361(6) 0.2199(3)
O8A O -0.3507(3) 0.5205(8) 1.1570(3)
O9A O -0.5655(3) 0.2974(6) 1.2045(3)
O9A_2 O 0.4345(3) 0.2974(6) 0.2045(3)
O10A O -0.6035(3) 0.1606(6) 1.1259(3)
O11A O 0.5543(3) 0.5697(6) 0.3479(3)
O12A O 0.5770(3) 0.7404(7) 0.4115(3)
C1A C -0.0975(4) 1.0070(8) 0.7242(4)
C2A C -0.0837(4) 0.9932(8) 0.7959(4)
C3A C -0.1063(4) 1.0731(10) 0.8349(5)
H9A H -0.1309 1.1401 0.8172
C4A C -0.0922(4) 1.0528(10) 0.8988(5)
H10A H -0.1075 1.1054 0.9250
C5A C -0.0555(4) 0.9545(10) 0.9251(5)
H11A H -0.0460 0.9385 0.9687
C6A C -0.0325(4) 0.8787(9) 0.8840(4)
C7A C 0.0097(4) 0.7692(9) 0.9047(4)
C8A C -0.1031(3) 0.5534(8) 0.7351(4)
C9A C -0.0503(4) 0.4700(8) 0.7417(4)
C10A C -0.0519(4) 0.3380(8) 0.7408(5)
H12A H -0.0875 0.2958 0.7341
C12A C -0.3968(4) 0.4976(9) 1.1712(4)
C13A C -0.4384(4) 0.4069(9) 1.1283(4)
C14A C -0.4370(4) 0.3767(10) 1.0669(5)
H14A H -0.4081 0.4099 1.0496
C15A C -0.4801(5) 0.2949(11) 1.0312(5)
H15A H -0.4804 0.2728 0.9896
C16A C -0.5219(4) 0.2477(10) 1.0588(5)
H16A H -0.5504 0.1916 1.0364
C17A C -0.5211(4) 0.2839(9) 1.1191(4)
C18A C -0.5685(3) 0.2440(8) 1.1527(4)
C19A C 0.5546(4) 0.6880(10) 0.3596(5)
C20A C 0.5265(4) 0.7709(9) 0.3026(5)
C21A C 0.5280(5) 0.9020(11) 0.3044(6)
H17A H 0.5474 0.9451 0.3413
C23A C -0.1840(4) 0.7191(10) 0.8437(4)
H19A H -0.1491 0.7477 0.8365
C24A C -0.1892(4) 0.7179(9) 0.9059(4)
H20A H -0.1581 0.7453 0.9392
C25A C -0.2405(4) 0.6758(9) 0.9186(4)
C26A C -0.2854(4) 0.6356(8) 0.8655(4)
H21A H -0.3207 0.6060 0.8710
C27A C -0.2764(4) 0.6403(9) 0.8061(4)
H22A H -0.3068 0.6135 0.7720
C28A C -0.3066(4) 0.6680(9) 1.0594(4)
H23A H -0.3435 0.6717 1.0669
C29A C -0.3025(4) 0.6745(9) 0.9967(4)
H24A H -0.3360 0.6846 0.9632
C30A C -0.2478(4) 0.6659(8) 0.9848(4)
C31A C -0.1995(4) 0.6539(10) 1.0367(4)
H25A H -0.1620 0.6485 1.0309
C32A C -0.2079(4) 0.6502(9) 1.0964(4)
H26A H -0.1748 0.6426 1.1307
C33A C -0.1761(4) 0.7213(9) 0.5943(4)
H27A H -0.1400 0.7418 0.6217
C34A C -0.1821(4) 0.7204(8) 0.5303(4)
H28A H -0.1496 0.7381 0.5151
C35A C -0.2341(4) 0.6944(8) 0.4881(4)
C36A C -0.2819(4) 0.6697(8) 0.5128(4)
H29A H -0.3188 0.6540 0.4858
C37A C -0.2731(4) 0.6691(9) 0.5786(4)
H30A H -0.3050 0.6509 0.5945
C38A C -0.3009(4) 0.6940(9) 0.3084(4)
H31A H -0.3375 0.7090 0.2805
C39A C -0.2945(4) 0.7095(9) 0.3743(4)
H32A H -0.3267 0.7347 0.3884
C40A C -0.2417(4) 0.6881(8) 0.4183(4)
C41A C -0.1953(4) 0.6540(8) 0.3924(4)
H33A H -0.1583 0.6399 0.4195
C42A C -0.2038(4) 0.6415(9) 0.3284(4)
H34A H -0.1718 0.6196 0.3131
C43C C 0.6463(4) 0.0170(9) -0.0157(4)
H35C H 0.6115 0.0272 -0.0474
C44C C 0.6450(4) 0.0293(9) 0.0475(4)
H36C H 0.6099 0.0465 0.0575
C45C C 0.6972(4) 0.0157(9) 0.0967(4)
C46C C 0.7473(4) -0.0093(9) 0.0784(4)
H37C H 0.7827 -0.0196 0.1092
C47C C 0.7456(4) -0.0195(8) 0.0145(4)
H38C H 0.7805 -0.0343 0.0035
C48C C 0.6507(4) 0.1023(9) 0.2463(4)
H39C H 0.6209 0.1481 0.2567
C49C C 0.6512(4) 0.0943(10) 0.1823(4)
H40C H 0.6215 0.1324 0.1511
C50C C 0.6957(4) 0.0303(8) 0.1650(4)
C51C C 0.7391(4) -0.0236(9) 0.2135(4)
H41C H 0.7700 -0.0676 0.2043
C52C C 0.7358(4) -0.0108(9) 0.2765(4)
H42C H 0.7661 -0.0439 0.3088
O13 O 0.9207(4) 0.4938(10) 0.9966(5)
H1 H 0.9353 0.4244 1.0138
H2 H 0.9269 0.4984 0.9598
O14 O 0.9474(6) 0.5262(11) 0.3816(5)
H3 H 0.9669 0.4615 0.3757
H4 H 0.9714 0.5844 0.3986
O15 O 0.8936(5) 0.9510(12) 0.0617(5)
H5 H 0.9040 0.9833 0.0989
H6 H 0.9145 0.8854 0.0610
O16 O 0.9664(5) 0.7260(11) 0.0596(5)
H7 H 0.9873 0.7460 0.0346
H8 H 0.9495 0.6559 0.0467
loop_
_geom_bond_atom_site_label_1
_geom_bond_atom_site_label_2
_geom_bond_site_symmetry_1
_geom_bond_site_symmetry_2
Tb1 N1 1_555 1_555
Tb2 N3 1_555 1_555
Cu1 N5 1_555 1_555
Cu2 N6 1_555 1_555
Cu3 N9 1_555 1_555
N1 C2 1_555 1_555
N2 Tb1 1_555 1_555
N3 C13 1_555 1_555
N4 Tb2 1_555 1_555
N5 C23 1_555 1_555
N6 C28 1_555 1_555
N7 Cu1 1_555 1_555
N8 C38 1_555 1_555
N9 C43 1_555 1_555
N10 C48 1_555 1_555
O1 Tb1 1_555 1_555
O2 C1 1_555 1_555
O3 Tb1 1_555 1_555
O4 C7 1_555 1_555
O5 Tb1 1_555 1_555
O6 Cu1 1_555 1_555
O7 Tb2 1_555 1_555
O8 Cu2 1_555 1_555
O9 Tb2 1_555 1_555
O10 Cu3 1_555 1_555
O11 Tb2 1_555 1_555
O12 C19 1_555 1_555
O13 H1 1_555 1_555
H2 O13 1_555 1_555
O14 H3 1_555 1_555
H4 O14 1_555 1_555
O15 H5 1_555 1_555
H6 O15 1_555 1_555
O16 H7 1_555 1_555
H8 O16 1_555 1_555
C1 O1 1_555 1_555
C2 C1 1_555 1_555
C3 C2 1_555 1_555
H9 C3 1_555 1_555
C4 C3 1_555 1_555
H10 C4 1_555 1_555
C5 C4 1_555 1_555
H11 C5 1_555 1_555
C6 N1 1_555 1_555
C7 O3 1_555 1_555
C8 O5 1_555 1_555
C9 N2 1_555 1_555
C10 C9 1_555 1_555
H12 C10 1_555 1_555
C11 C10 1_555 1_555
H13 C11 1_555 1_555
C12 O7 1_555 1_555
C13 C12 1_555 1_555
C14 C13 1_555 1_555
H14 C14 1_555 1_555
C15 C14 1_555 1_555
H15 C15 1_555 1_555
C16 C15 1_555 1_555
H16 C16 1_555 1_555
C17 N3 1_555 1_555
C18 O9 1_555 1_555
C19 O11 1_555 1_555
C20 N4 1_555 1_555
C21 C20 1_555 1_555
H17 C21 1_555 1_555
C22 C21 1_555 1_555
H18 C22 1_555 1_555
C23 H19 1_555 1_555
C24 C23 1_555 1_555
H20 C24 1_555 1_555
C25 C24 1_555 1_555
C26 C25 1_555 1_555
H21 C26 1_555 1_555
C27 N5 1_555 1_555
H22 C27 1_555 1_555
C28 H23 1_555 1_555
C29 C28 1_555 1_555
H24 C29 1_555 1_555
C30 C25 1_555 1_555
C31 C30 1_555 1_555
H25 C31 1_555 1_555
C32 N6 1_555 1_555
H26 C32 1_555 1_555
C33 N7 1_555 1_555
H27 C33 1_555 1_555
C34 C33 1_555 1_555
H28 C34 1_555 1_555
C35 C34 1_555 1_555
C36 C35 1_555 1_555
H29 C36 1_555 1_555
C37 N7 1_555 1_555
H30 C37 1_555 1_555
C38 H31 1_555 1_555
C39 C38 1_555 1_555
H32 C39 1_555 1_555
C40 C35 1_555 1_555
C41 C40 1_555 1_555
H33 C41 1_555 1_555
C42 N8 1_555 1_555
H34 C42 1_555 1_555
C43 H35 1_555 1_555
C44 C43 1_555 1_555
H36 C44 1_555 1_555
C45 C44 1_555 1_555
C46 C45 1_555 1_555
H37 C46 1_555 1_555
C47 N9 1_555 1_555
H38 C47 1_555 1_555
C48 H39 1_555 1_555
C49 C48 1_555 1_555
H40 C49 1_555 1_555
C50 C45 1_555 1_555
C51 C50 1_555 1_555
H41 C51 1_555 1_555
C52 N10 1_555 1_555
H42 C52 1_555 1_555
Tb2_2 N3A 1_555 1_555
Cu1A N5A 1_555 1_555
Cu2A N6A 1_555 1_555
Cu2_2 N8 1_555 1_555
Cu2A_2 N8A 1_555 1_555
Cu3A N9A 1_555 1_555
Cu3C N10 1_555 1_555
Cu3C_2 N9C 1_555 1_555
N1A Tb1 1_555 1_555
N3A C13A 1_555 1_555
N3A_2 Tb2 1_555 1_555
N5A C23A 1_555 1_555
N6A C28A 1_555 1_555
N7A Cu1A 1_555 1_555
N8A C38A 1_555 1_555
N8_2 Cu2 1_555 1_555
N8A_2 Cu2A 1_555 1_555
N9C C43C 1_555 1_555
N10C Cu3 1_555 1_555
N10B Cu3A 1_555 1_555
O1A Tb1 1_555 1_555
O2A C1A 1_555 1_555
O3A Tb1 1_555 1_555
O4A C7A 1_555 1_555
O5A Tb1 1_555 1_555
O6A Cu1A 1_555 1_555
O7A Tb2_2 1_555 1_555
O7A_2 Tb2 1_555 1_555
O8A Cu2A 1_555 1_555
O9A Tb2_2 1_555 1_555
O9A_2 Tb2 1_555 1_555
O10A Cu3A 1_555 1_555
O11A Tb2 1_555 1_555
O12A C19A 1_555 1_555
C1A O1A 1_555 1_555
C2A N1A 1_555 1_555
C3A C2A 1_555 1_555
H9A C3A 1_555 1_555
C4A C3A 1_555 1_555
H10A C4A 1_555 1_555
C5A C4A 1_555 1_555
H11A C5A 1_555 1_555
C6A N1A 1_555 1_555
C7A O3A 1_555 1_555
C8A O5A 1_555 1_555
C9A N2 1_555 1_555
C10A C11 1_555 1_555
H12A C10A 1_555 1_555
C12A O7A 1_555 1_555
C13A C12A 1_555 1_555
C14A C13A 1_555 1_555
H14A C14A 1_555 1_555
C15A C14A 1_555 1_555
H15A C15A 1_555 1_555
C16A C15A 1_555 1_555
H16A C16A 1_555 1_555
C17A N3A 1_555 1_555
C18A O9A 1_555 1_555
C19A O11A 1_555 1_555
C20A N4 1_555 1_555
C21A C22 1_555 1_555
H17A C21A 1_555 1_555
C23A H19A 1_555 1_555
C24A C23A 1_555 1_555
H20A C24A 1_555 1_555
C25A C24A 1_555 1_555
C26A C25A 1_555 1_555
H21A C26A 1_555 1_555
C27A N5A 1_555 1_555
H22A C27A 1_555 1_555
C28A H23A 1_555 1_555
C29A C28A 1_555 1_555
H24A C29A 1_555 1_555
C30A C25A 1_555 1_555
C31A C30A 1_555 1_555
H25A C31A 1_555 1_555
C32A N6A 1_555 1_555
H26A C32A 1_555 1_555
C33A N7A 1_555 1_555
H27A C33A 1_555 1_555
C34A C33A 1_555 1_555
H28A C34A 1_555 1_555
C35A C34A 1_555 1_555
C36A C35A 1_555 1_555
H29A C36A 1_555 1_555
C37A N7A 1_555 1_555
H30A C37A 1_555 1_555
C38A H31A 1_555 1_555
C39A C38A 1_555 1_555
H32A C39A 1_555 1_555
C40A C35A 1_555 1_555
C41A C40A 1_555 1_555
H33A C41A 1_555 1_555
C42A N8A 1_555 1_555
H34A C42A 1_555 1_555
C43C H35C 1_555 1_555
C44C C43C 1_555 1_555
H36C C44C 1_555 1_555
C45C C44C 1_555 1_555
C46C C45C 1_555 1_555
H37C C46C 1_555 1_555
C47C N9C 1_555 1_555
H38C C47C 1_555 1_555
C48C N10C 1_555 1_555
H39C C48C 1_555 1_555
C49C C48C 1_555 1_555
H40C C49C 1_555 1_555
C50C C45C 1_555 1_555
C51C C50C 1_555 1_555
H41C C51C 1_555 1_555
C52C N10C 1_555 1_555
H42C C52C 1_555 1_555
O6 C8 1_555 1_555
O8 C12 1_555 1_555
O10 C18 1_555 1_555
C5 C6 1_555 1_555
C6 C7 1_555 1_555
C8 C9 1_555 1_555
C16 C17 1_555 1_555
C17 C18 1_555 1_555
C19 C20 1_555 1_555
C26 C27 1_555 1_555
C29 C30 1_555 1_555
C31 C32 1_555 1_555
C36 C37 1_555 1_555
C39 C40 1_555 1_555
C41 C42 1_555 1_555
C46 C47 1_555 1_555
C49 C50 1_555 1_555
C51 C52 1_555 1_555
O6A C8A 1_555 1_555
O8A C12A 1_555 1_555
O10A C18A 1_555 1_555
C1A C2A 1_555 1_555
C5A C6A 1_555 1_555
C6A C7A 1_555 1_555
C8A C9A 1_555 1_555
C9A C10A 1_555 1_555
C16A C17A 1_555 1_555
C17A C18A 1_555 1_555
C19A C20A 1_555 1_555
C20A C21A 1_555 1_555
C26A C27A 1_555 1_555
C29A C30A 1_555 1_555
C31A C32A 1_555 1_555
C36A C37A 1_555 1_555
C39A C40A 1_555 1_555
C41A C42A 1_555 1_555
C46C C47C 1_555 1_555
C49C C50C 1_555 1_555
C51C C52C 1_555 1_555

#END
