
#######################################################################
#
#                 Cambridge Crystallographic Data Centre
#                                CCDC 
#
#######################################################################
#
# If this CIF has been generated from an entry in the Cambridge 
# Structural Database, then it will include bibliographic, chemical, 
# crystal, experimental, refinement or atomic coordinate data resulting 
# from the CCDC's data processing and validation procedures.
#
#######################################################################

data_VAJNUR
_symmetry_cell_setting           monoclinic
_symmetry_space_group_name_H-M   'P 2/c'
_symmetry_Int_Tables_number      13
_space_group_name_Hall           '-P 2yc'
loop_
_symmetry_equiv_pos_site_id
_symmetry_equiv_pos_as_xyz
1 x,y,z
2 -x,y,1/2-z
3 -x,-y,-z
4 x,-y,1/2+z
_cell_length_a                   23.550(5)
_cell_length_b                   10.400(2)
_cell_length_c                   21.530(4)
_cell_angle_alpha                90
_cell_angle_beta                 105.03(3)
_cell_angle_gamma                90
_cell_volume                     5092.73
loop_
_atom_site_label
_atom_site_type_symbol
_atom_site_fract_x
_atom_site_fract_y
_atom_site_fract_z
Cu1 Cu 0.68651(4) 0.95164(8) -0.12257(4)
Cu2 Cu 0.21380(4) 0.33297(9) -0.70964(4)
Cu3 Cu 0.26912(4) 0.36309(9) -0.19478(4)
Gd1 Gd 0.5000 0.53171(4) -0.2500
Gd2 Gd 0.0000 0.22923(3) -0.7500
C1 C -0.0320(3) 0.1234(7) -0.6172(3)
C2 C -0.0546(3) 0.0476(8) -0.5766(3)
H1 H -0.0442 0.0633 -0.5326
C3 C -0.0927(4) -0.0517(8) -0.6016(4)
H2 H -0.1086 -0.1032 -0.5751
C4 C -0.1064(3) -0.0720(8) -0.6676(4)
H3 H -0.1306 -0.1399 -0.6860
C5 C -0.0837(3) 0.0096(6) -0.7054(3)
C6 C -0.0965(3) -0.0035(6) -0.7772(3)
C7 C 0.0099(3) 0.2339(7) -0.5966(3)
C8 C 0.0499(3) 0.5289(6) -0.7418(3)
C9 C 0.0518(3) 0.6616(6) -0.7408(4)
H4 H 0.0874 0.7050 -0.7339
C10 C 0.0000 0.7277(11) -0.7500
H5 H 0.0000 0.8171 -0.7500
C11 C 0.1028(2) 0.4451(6) -0.7352(3)
C12 C 0.3033(3) 0.3246(6) -0.9967(3)
H6 H 0.3370 0.3147 -0.9631
C13 C 0.2489(3) 0.3339(6) -0.9841(3)
C14 C 0.2418(3) 0.3258(6) -0.9173(3)
C15 C 0.1901(3) 0.2821(7) -0.9050(3)
H7 H 0.1591 0.2541 -0.9385
C16 C 0.1854(3) 0.2806(8) -0.8430(3)
H8 H 0.1504 0.2513 -0.8356
C17 C 0.2779(3) 0.3607(6) -0.8051(3)
H9 H 0.3084 0.3875 -0.7707
C18 C 0.2865(3) 0.3664(6) -0.8651(3)
H10 H 0.3218 0.3969 -0.8711
C19 C 0.1770(3) 0.2806(7) -0.5956(3)
H11 H 0.1407 0.2623 -0.6238
C20 C 0.2741(3) 0.3309(6) -0.5781(3)
H12 H 0.3062 0.3486 -0.5944
C21 C 0.2824(3) 0.3306(6) -0.5124(3)
H13 H 0.3194 0.3467 -0.4852
C22 C 0.1816(3) 0.2793(6) -0.5304(3)
H14 H 0.1489 0.2605 -0.5153
C23 C 0.2351(3) 0.3060(6) -0.4875(3)
C24 C 0.2418(3) 0.3109(6) -0.4174(3)
C25 C 0.1950(3) 0.3466(6) -0.3927(3)
H15 H 0.1582 0.3627 -0.4201
C26 C 0.2041(3) 0.3579(6) -0.3272(3)
H16 H 0.1723 0.3793 -0.3112
C27 C 0.3012(3) 0.3055(7) -0.3098(3)
H17 H 0.3380 0.2917 -0.2817
C28 C 0.2952(3) 0.2900(6) -0.3742(3)
H18 H 0.3274 0.2652 -0.3888
C29 C 0.3074(3) 0.3300(6) -1.0591(3)
H19 H 0.3443 0.3241 -1.0670
C30 C 0.2076(3) 0.3505(7) -1.0969(3)
H20 H 0.1744 0.3574 -1.1313
C31 C 0.2001(3) 0.3480(7) -1.0358(3)
H21 H 0.1628 0.3557 -1.0292
C32 C 0.7363(3) 0.9883(7) 0.2742(3)
H22 H 0.7667 0.9542 0.3066
C33 C 0.7393(3) 0.9766(6) 0.2115(3)
H23 H 0.7706 0.9336 0.2019
C34 C 0.6953(3) 1.0294(6) 0.1629(3)
C35 C 0.6504(3) 1.0937(7) 0.1807(3)
H24 H 0.6202 1.1317 0.1494
C36 C 0.6965(3) 1.0166(6) 0.0945(3)
C37 C 0.7467(3) 0.9920(6) 0.0760(3)
H25 H 0.7822 0.9835 0.1070
C38 C 0.7452(3) 0.9797(6) 0.0123(3)
H26 H 0.7799 0.9620 0.0011
C39 C 0.6448(3) 1.0310(6) 0.0457(3)
H27 H 0.6096 1.0492 0.0559
C40 C 0.6462(3) 1.0182(6) -0.0165(3)
H28 H 0.6113 1.0278 -0.0485
C41 C 0.6505(3) 1.1013(7) 0.2441(3)
H29 H 0.6205 1.1469 0.2550
C42 C 0.5677(3) 0.7580(6) -0.1542(3)
C43 C 0.3976(3) 0.5012(7) -0.1727(3)
C44 C 0.4396(3) 0.5932(6) -0.1295(3)
C45 C 0.5210(3) 0.7191(6) -0.1210(3)
C46 C 0.5214(3) 0.7566(8) -0.0594(3)
H30 H 0.5497 0.8135 -0.0365
C47 C 0.4785(4) 0.7072(9) -0.0327(4)
H31 H 0.4779 0.7299 0.0089
C48 C 0.4370(3) 0.6249(8) -0.0675(3)
H32 H 0.4079 0.5911 -0.0502
C49 C 0.4454(3) 0.3180(7) -0.3592(3)
C50 C 0.4740(3) 0.2336(6) -0.3034(3)
C51 C 0.4731(4) 0.1021(8) -0.3043(5)
H33 H 0.4543 0.0579 -0.3415
C52 C 0.5000 0.0373(13) -0.2500
H34 H 0.5000 -0.0521 -0.2500
N1 N 0.2282(2) 0.3190(5) -0.7926(2)
N2 N 0.2222(2) 0.3071(5) -0.6197(2)
N3 N 0.2568(3) 0.3394(5) -0.2850(2)
N4 N 0.2599(2) 0.3435(5) -1.1094(2)
N5 N 0.4812(2) 0.6387(5) -0.1544(2)
N6 N 0.5000 0.2979(7) -0.2500
N7 N 0.6957(3) 0.9922(5) -0.0339(2)
N8 N 0.0000 0.4657(7) -0.7500
N9 N 0.6915(2) 0.9535(5) -0.2091(2)
N10 N -0.0468(2) 0.1045(5) -0.6805(2)
O1 O 0.3518(2) 0.4757(7) -0.1578(2)
O2 O 0.4124(2) 0.4650(5) -0.2214(2)
O3 O 0.4453(2) 0.4366(5) -0.3471(2)
O4 O 0.4227(2) 0.2658(5) -0.4118(2)
O5 O 0.5652(2) 0.7029(4) -0.2059(2)
O6 O 0.6030(2) 0.8419(5) -0.1280(2)
O7 O 0.09362(18) 0.3269(4) -0.74101(19)
O8 O 0.15220(17) 0.4974(4) -0.7248(2)
O9 O -0.0673(2) 0.0709(4) -0.8037(2)
O10 O -0.1329(2) -0.0842(5) -0.8051(2)
O11 O 0.0234(2) 0.2955(4) -0.6403(2)
O12 O 0.0272(3) 0.2595(6) -0.5378(2)
Cu1C Cu 0.68651(4) 1.04836(8) -0.62257(4)
Cu1A Cu -0.68651(4) 0.95164(8) -1.37743(4)
Cu1C_2 Cu 0.68651(4) 1.04836(8) 0.37743(4)
Cu2A Cu -0.21380(4) 0.33297(9) -0.79036(4)
Cu3_2 Cu 0.26912(4) 0.36309(9) -1.19478(4)
Cu3A Cu -0.26912(4) 0.36309(9) -0.30522(4)
Cu3A_2 Cu -0.26912(4) 0.36309(9) -1.30522(4)
Gd1_2 Gd -0.5000 0.53171(4) -1.2500
C1A C 0.0320(3) 0.1234(7) -0.8828(3)
C2A C 0.0546(3) 0.0476(8) -0.9234(3)
H1A H 0.0442 0.0633 -0.9674
C3A C 0.0927(4) -0.0517(8) -0.8984(4)
H2A H 0.1086 -0.1032 -0.9249
C4A C 0.1064(3) -0.0720(8) -0.8324(4)
H3A H 0.1306 -0.1399 -0.8140
C5A C 0.0837(3) 0.0096(6) -0.7946(3)
C6A C 0.0965(3) -0.0035(6) -0.7228(3)
C7A C -0.0099(3) 0.2339(7) -0.9034(3)
C8A C -0.0499(3) 0.5289(6) -0.7582(3)
C9A C -0.0518(3) 0.6616(6) -0.7592(4)
H4A H -0.0874 0.7050 -0.7661
C11A C -0.1028(2) 0.4451(6) -0.7648(3)
C12A C -0.3033(3) 0.3246(6) -0.5033(3)
H6A H -0.3370 0.3147 -0.5369
C13A C -0.2489(3) 0.3339(6) -0.5159(3)
C14A C -0.2418(3) 0.3258(6) -0.5827(3)
C15A C -0.1901(3) 0.2821(7) -0.5950(3)
H7A H -0.1591 0.2541 -0.5615
C16A C -0.1854(3) 0.2806(8) -0.6570(3)
H8A H -0.1504 0.2513 -0.6644
C17A C -0.2779(3) 0.3607(6) -0.6949(3)
H9A H -0.3084 0.3875 -0.7293
C18A C -0.2865(3) 0.3664(6) -0.6349(3)
H10A H -0.3218 0.3969 -0.6289
C19A C -0.1770(3) 0.2806(7) -0.9044(3)
H11A H -0.1407 0.2623 -0.8762
C20A C -0.2741(3) 0.3309(6) -0.9219(3)
H12A H -0.3062 0.3486 -0.9056
C21A C -0.2824(3) 0.3306(6) -0.9876(3)
H13A H -0.3194 0.3467 -1.0148
C22A C -0.1816(3) 0.2793(6) -0.9696(3)
H14A H -0.1489 0.2605 -0.9847
C23A C -0.2351(3) 0.3060(6) -1.0125(3)
C24A C -0.2418(3) 0.3109(6) -1.0826(3)
C25A C -0.1950(3) 0.3466(6) -1.1073(3)
H15A H -0.1582 0.3627 -1.0799
C26A C -0.2041(3) 0.3579(6) -1.1728(3)
H16A H -0.1723 0.3793 -1.1888
C27A C -0.3012(3) 0.3055(7) -1.1902(3)
H17A H -0.3380 0.2917 -1.2183
C28A C -0.2952(3) 0.2900(6) -1.1258(3)
H18A H -0.3274 0.2652 -1.1112
C29A C -0.3074(3) 0.3300(6) -0.4409(3)
H19A H -0.3443 0.3241 -0.4330
C30A C -0.2076(3) 0.3505(7) -0.4031(3)
H20A H -0.1744 0.3574 -0.3687
C31A C -0.2001(3) 0.3480(7) -0.4642(3)
H21A H -0.1628 0.3557 -0.4708
C32C C 0.7363(3) 1.0117(7) -0.2258(3)
H22C H 0.7667 1.0458 -0.1934
C33C C 0.7393(3) 1.0234(6) -0.2885(3)
H23C H 0.7706 1.0664 -0.2981
C34C C 0.6953(3) 0.9706(6) -0.3371(3)
C35C C 0.6504(3) 0.9063(7) -0.3193(3)
H24C H 0.6202 0.8683 -0.3506
C36C C 0.6965(3) 0.9834(6) -0.4055(3)
C37C C 0.7467(3) 1.0080(6) -0.4240(3)
H25C H 0.7822 1.0165 -0.3930
C38C C 0.7452(3) 1.0203(6) -0.4877(3)
H26C H 0.7799 1.0380 -0.4989
C39C C 0.6448(3) 0.9690(6) -0.4543(3)
H27C H 0.6096 0.9508 -0.4441
C40C C 0.6462(3) 0.9818(6) -0.5165(3)
H28C H 0.6113 0.9722 -0.5485
C41C C 0.6505(3) 0.8987(7) -0.2559(3)
H29C H 0.6205 0.8531 -0.2450
C42A C -0.5677(3) 0.7580(6) -1.3458(3)
C43A C -0.3976(3) 0.5012(7) -1.3273(3)
C44A C -0.4396(3) 0.5932(6) -1.3705(3)
C45A C -0.5210(3) 0.7191(6) -1.3790(3)
C46A C -0.5214(3) 0.7566(8) -1.4406(3)
H30A H -0.5497 0.8135 -1.4635
C47A C -0.4785(4) 0.7072(9) -1.4673(4)
H31A H -0.4779 0.7299 -1.5089
C48A C -0.4370(3) 0.6249(8) -1.4325(3)
H32A H -0.4079 0.5911 -1.4498
C49A C 0.5546(3) 0.3180(7) -0.1408(3)
C50A C 0.5260(3) 0.2336(6) -0.1966(3)
C51A C 0.5269(4) 0.1021(8) -0.1957(5)
H33A H 0.5457 0.0579 -0.1585
N1A N -0.2282(2) 0.3190(5) -0.7074(2)
N2A N -0.2222(2) 0.3071(5) -0.8803(2)
N3A N -0.2568(3) 0.3394(5) -1.2150(2)
N4_2 N 0.2599(2) 0.3435(5) -0.1094(2)
N4A N -0.2599(2) 0.3435(5) -0.3906(2)
N4A_2 N -0.2599(2) 0.3435(5) -1.3906(2)
N5A N 0.5188(2) 0.6387(5) -0.3456(2)
N5A_2 N -0.4812(2) 0.6387(5) -1.3456(2)
N7C N 0.6957(3) 1.0078(5) -0.5339(2)
N7A N -0.6957(3) 0.9922(5) -1.4661(2)
N9C N 0.6915(2) 1.0465(5) 0.2909(2)
N9A N -0.6915(2) 0.9535(5) -1.2909(2)
N10A N 0.0468(2) 0.1045(5) -0.8195(2)
O1A O -0.3518(2) 0.4757(7) -1.3422(2)
O2A O 0.5876(2) 0.4650(5) -0.2786(2)
O2A_2 O -0.4124(2) 0.4650(5) -1.2786(2)
O3A O 0.5547(2) 0.4366(5) -0.1529(2)
O4A O 0.5773(2) 0.2658(5) -0.0882(2)
O5A O 0.4348(2) 0.7029(4) -0.2941(2)
O5A_2 O -0.5652(2) 0.7029(4) -1.2941(2)
O6A O -0.6030(2) 0.8419(5) -1.3720(2)
O7A O -0.09362(18) 0.3269(4) -0.75899(19)
O8A O -0.15220(17) 0.4974(4) -0.7752(2)
O9A O 0.0673(2) 0.0709(4) -0.6963(2)
O10A O 0.1329(2) -0.0842(5) -0.6949(2)
O11A O -0.0234(2) 0.2955(4) -0.8597(2)
O12A O -0.0272(3) 0.2595(6) -0.9622(2)
O13 O 0.1068(4) 0.9493(13) -0.5599(4)
H35 H 0.111(4) 0.990(8) -0.591(3)
H36 H 0.080(3) 0.896(8) -0.568(4)
O14 O 0.0346(5) 0.7260(11) -0.5561(5)
H37 H 0.006(2) 0.740(10) -0.541(4)
H38 H 0.026(3) 0.699(10) -0.5932(18)
O15 O 0.9205(4) 0.5063(8) -0.5050(4)
H39 H 0.926(5) 0.518(8) -0.4660(11)
H40 H 0.911(4) 0.433(4) -0.517(3)
O16 O 0.9495(6) 0.5292(11) -0.6189(4)
H41 H 0.952(4) 0.548(9) -0.5809(14)
H42 H 0.974(3) 0.475(8) -0.624(4)
loop_
_geom_bond_atom_site_label_1
_geom_bond_atom_site_label_2
_geom_bond_site_symmetry_1
_geom_bond_site_symmetry_2
Cu1 N7 1_555 1_555
Cu2 N1 1_555 1_555
Cu3 N3 1_555 1_555
Gd1 N5 1_555 1_555
Gd2 N8 1_555 1_555
C1 C2 1_555 1_555
C2 H1 1_555 1_555
C3 C2 1_555 1_555
H2 C3 1_555 1_555
C4 C3 1_555 1_555
H3 C4 1_555 1_555
C5 C4 1_555 1_555
C6 C5 1_555 1_555
C7 C1 1_555 1_555
C8 C9 1_555 1_555
C9 H4 1_555 1_555
C10 C9 1_555 1_555
H5 C10 1_555 1_555
C11 C8 1_555 1_555
C12 H6 1_555 1_555
C13 C12 1_555 1_555
C14 C13 1_555 1_555
C15 C14 1_555 1_555
H7 C15 1_555 1_555
C16 C15 1_555 1_555
H8 C16 1_555 1_555
C17 H9 1_555 1_555
C18 C14 1_555 1_555
H10 C18 1_555 1_555
C19 H11 1_555 1_555
C20 H12 1_555 1_555
C21 C20 1_555 1_555
H13 C21 1_555 1_555
C22 C19 1_555 1_555
H14 C22 1_555 1_555
C23 C21 1_555 1_555
C24 C23 1_555 1_555
C25 C24 1_555 1_555
H15 C25 1_555 1_555
C26 C25 1_555 1_555
H16 C26 1_555 1_555
C27 H17 1_555 1_555
C28 C24 1_555 1_555
H18 C28 1_555 1_555
C29 C12 1_555 1_555
H19 C29 1_555 1_555
C30 H20 1_555 1_555
C31 C13 1_555 1_555
H21 C31 1_555 1_555
C32 H22 1_555 1_555
C33 C32 1_555 1_555
H23 C33 1_555 1_555
C34 C33 1_555 1_555
C35 C34 1_555 1_555
H24 C35 1_555 1_555
C36 C34 1_555 1_555
C37 C36 1_555 1_555
H25 C37 1_555 1_555
C38 C37 1_555 1_555
H26 C38 1_555 1_555
C39 C36 1_555 1_555
H27 C39 1_555 1_555
C40 C39 1_555 1_555
H28 C40 1_555 1_555
C41 C35 1_555 1_555
H29 C41 1_555 1_555
C42 C45 1_555 1_555
C43 C44 1_555 1_555
C44 C48 1_555 1_555
C45 C46 1_555 1_555
C46 H30 1_555 1_555
C47 C46 1_555 1_555
H31 C47 1_555 1_555
C48 C47 1_555 1_555
H32 C48 1_555 1_555
C49 C50 1_555 1_555
C50 C51 1_555 1_555
C51 H33 1_555 1_555
C52 C51 1_555 1_555
H34 C52 1_555 1_555
N1 C16 1_555 1_555
N2 Cu2 1_555 1_555
N3 C26 1_555 1_555
N4 C29 1_555 1_555
N5 C44 1_555 1_555
N6 Gd1 1_555 1_555
N7 C38 1_555 1_555
N8 C8 1_555 1_555
N9 Cu1 1_555 1_555
N10 Gd2 1_555 1_555
O1 Cu3 1_555 1_555
O2 Gd1 1_555 1_555
O3 Gd1 1_555 1_555
O4 C49 1_555 1_555
O5 Gd1 1_555 1_555
O6 Cu1 1_555 1_555
O7 Gd2 1_555 1_555
O8 Cu2 1_555 1_555
O9 Gd2 1_555 1_555
O10 C6 1_555 1_555
O11 Gd2 1_555 1_555
O12 C7 1_555 1_555
O13 H35 1_555 1_555
O14 H37 1_555 1_555
O15 H39 1_555 1_555
O16 H41 1_555 1_555
H36 O13 1_555 1_555
H38 O14 1_555 1_555
H40 O15 1_555 1_555
H42 O16 1_555 1_555
Cu1C N7C 1_555 1_555
Cu1A N7A 1_555 1_555
Cu1C_2 N9C 1_555 1_555
Cu2A N1A 1_555 1_555
Cu3_2 N4 1_555 1_555
Cu3A N4A 1_555 1_555
Cu3A_2 N3A 1_555 1_555
Gd1_2 N5A_2 1_555 1_555
C1A C2A 1_555 1_555
C2A H1A 1_555 1_555
C3A C2A 1_555 1_555
H2A C3A 1_555 1_555
C4A C3A 1_555 1_555
H3A C4A 1_555 1_555
C5A C4A 1_555 1_555
C6A C5A 1_555 1_555
C7A C1A 1_555 1_555
C8A N8 1_555 1_555
C9A C10 1_555 1_555
H4A C9A 1_555 1_555
C11A C8A 1_555 1_555
C12A H6A 1_555 1_555
C13A C12A 1_555 1_555
C14A C13A 1_555 1_555
C15A C14A 1_555 1_555
H7A C15A 1_555 1_555
C16A C15A 1_555 1_555
H8A C16A 1_555 1_555
C17A H9A 1_555 1_555
C18A C14A 1_555 1_555
H10A C18A 1_555 1_555
C19A H11A 1_555 1_555
C20A H12A 1_555 1_555
C21A C20A 1_555 1_555
H13A C21A 1_555 1_555
C22A C19A 1_555 1_555
H14A C22A 1_555 1_555
C23A C21A 1_555 1_555
C24A C23A 1_555 1_555
C25A C24A 1_555 1_555
H15A C25A 1_555 1_555
C26A C25A 1_555 1_555
H16A C26A 1_555 1_555
C27A H17A 1_555 1_555
C28A C24A 1_555 1_555
H18A C28A 1_555 1_555
C29A C12A 1_555 1_555
H19A C29A 1_555 1_555
C30A H20A 1_555 1_555
C31A C13A 1_555 1_555
H21A C31A 1_555 1_555
C32C N9 1_555 1_555
H22C C32C 1_555 1_555
C33C C32C 1_555 1_555
H23C C33C 1_555 1_555
C34C C33C 1_555 1_555
C35C C34C 1_555 1_555
H24C C35C 1_555 1_555
C36C C34C 1_555 1_555
C37C C36C 1_555 1_555
H25C C37C 1_555 1_555
C38C C37C 1_555 1_555
H26C C38C 1_555 1_555
C39C C36C 1_555 1_555
H27C C39C 1_555 1_555
C40C C39C 1_555 1_555
H28C C40C 1_555 1_555
C41C N9 1_555 1_555
H29C C41C 1_555 1_555
C42A C45A 1_555 1_555
C43A C44A 1_555 1_555
C44A C48A 1_555 1_555
C45A C46A 1_555 1_555
C46A H30A 1_555 1_555
C47A C46A 1_555 1_555
H31A C47A 1_555 1_555
C48A C47A 1_555 1_555
H32A C48A 1_555 1_555
C49A C50A 1_555 1_555
C50A N6 1_555 1_555
C51A C52 1_555 1_555
H33A C51A 1_555 1_555
N1A C16A 1_555 1_555
N2A Cu2A 1_555 1_555
N3A C26A 1_555 1_555
N4_2 Cu3 1_555 1_555
N4A C29A 1_555 1_555
N4A_2 Cu3A_2 1_555 1_555
N5A Gd1 1_555 1_555
N5A_2 C44A 1_555 1_555
N7C C38C 1_555 1_555
N9C C32 1_555 1_555
N9A Cu1A 1_555 1_555
N10A Gd2 1_555 1_555
O1A Cu3A_2 1_555 1_555
O2A Gd1 1_555 1_555
O2A_2 Gd1_2 1_555 1_555
O3A Gd1 1_555 1_555
O4A C49A 1_555 1_555
O5A Gd1 1_555 1_555
O5A_2 Gd1_2 1_555 1_555
O6A Cu1A 1_555 1_555
O7A Gd2 1_555 1_555
O8A Cu2A 1_555 1_555
O9A Gd2 1_555 1_555
O10A C6A 1_555 1_555
O11A Gd2 1_555 1_555
O12A C7A 1_555 1_555
C1 N10 1_555 1_555
C5 N10 1_555 1_555
C6 O9 1_555 1_555
C7 O11 1_555 1_555
C11 O7 1_555 1_555
C11 O8 1_555 1_555
C17 C18 1_555 1_555
C17 N1 1_555 1_555
C19 N2 1_555 1_555
C20 N2 1_555 1_555
C22 C23 1_555 1_555
C27 C28 1_555 1_555
C27 N3 1_555 1_555
C30 C31 1_555 1_555
C30 N4 1_555 1_555
C40 N7 1_555 1_555
C41 N9C 1_555 1_555
C42 O5 1_555 1_555
C42 O6 1_555 1_555
C43 O1 1_555 1_555
C43 O2 1_555 1_555
C45 N5 1_555 1_555
C49 O3 1_555 1_555
C50 N6 1_555 1_555
C1A N10A 1_555 1_555
C5A N10A 1_555 1_555
C6A O9A 1_555 1_555
C7A O11A 1_555 1_555
C8A C9A 1_555 1_555
C11A O7A 1_555 1_555
C11A O8A 1_555 1_555
C17A C18A 1_555 1_555
C17A N1A 1_555 1_555
C19A N2A 1_555 1_555
C20A N2A 1_555 1_555
C22A C23A 1_555 1_555
C27A C28A 1_555 1_555
C27A N3A 1_555 1_555
C30A C31A 1_555 1_555
C30A N4A 1_555 1_555
C35C C41C 1_555 1_555
C40C N7C 1_555 1_555
C42A O5A_2 1_555 1_555
C42A O6A 1_555 1_555
C43A O1A 1_555 1_555
C43A O2A_2 1_555 1_555
C45A N5A_2 1_555 1_555
C49A O3A 1_555 1_555
C50A C51A 1_555 1_555

#END
