
#######################################################################
#
#                 Cambridge Crystallographic Data Centre
#                                CCDC 
#
#######################################################################
#
# If this CIF has been generated from an entry in the Cambridge 
# Structural Database, then it will include bibliographic, chemical, 
# crystal, experimental, refinement or atomic coordinate data resulting 
# from the CCDC's data processing and validation procedures.
#
#######################################################################

data_VAJPUS
_symmetry_cell_setting           triclinic
_symmetry_space_group_name_H-M   'P 1'
_symmetry_Int_Tables_number      1
_space_group_name_Hall           'P 1'
loop_
_symmetry_equiv_pos_site_id
_symmetry_equiv_pos_as_xyz
1 x,y,z
_cell_length_a                   7.7709(16)
_cell_length_b                   10.572(2)
_cell_length_c                   12.178(2)
_cell_angle_alpha                88.49(3)
_cell_angle_beta                 77.97(3)
_cell_angle_gamma                69.84(3)
_cell_volume                     917.423
loop_
_atom_site_label
_atom_site_type_symbol
_atom_site_fract_x
_atom_site_fract_y
_atom_site_fract_z
Co1 Co 0.24930(12) 0.07211(8) 0.27952(7)
Co2 Co -0.0695(2) -0.15715(16) 0.06590(12)
Co3 Co 0.61243(13) 0.61306(9) -0.14780(7)
O1 O 0.0395(11) -0.2570(7) -0.0936(5)
O2 O 0.0533(10) -0.0059(7) 0.0146(6)
O3 O -0.1785(10) -0.0600(7) 0.2238(5)
O4 O 0.0731(10) 0.0607(7) 0.1830(6)
O5 O 0.8128(12) 0.6869(7) 0.1177(6)
O6 O 0.7899(11) 0.6166(8) -0.0458(5)
O7 O 0.3906(13) 0.7131(9) -0.0204(6)
O8 O 0.1642(11) 0.7329(9) 0.1304(6)
O9 O 0.6991(10) -0.0422(7) 0.0031(6)
O10 O 0.4715(13) -0.0294(9) 0.1520(7)
O11 O 0.2293(12) 0.2728(9) 0.2576(7)
O12 O 0.4846(16) 0.1610(8) 0.3295(8)
O13 O 0.3789(13) 0.5287(9) -0.1908(7)
O14 O 0.6217(13) 0.4158(7) -0.1278(7)
N1 N 0.3159(14) -0.1018(10) 0.3736(7)
N2 N 0.0323(13) 0.1316(8) 0.4299(6)
N3 N 0.5434(15) 0.7844(9) -0.2434(7)
N4 N 0.8325(16) 0.5521(10) -0.2990(8)
C1 C -0.1097(18) 0.2491(12) 0.4566(9)
H1 H -0.1206 0.3188 0.4072
C2 C -0.243(2) 0.2686(15) 0.5590(11)
H2 H -0.3492 0.3463 0.5717
C3 C -0.219(3) 0.1733(15) 0.6411(14)
H3 H -0.3006 0.1901 0.7110
C4 C -0.077(2) 0.0594(16) 0.6166(10)
C5 C 0.0504(16) 0.0380(11) 0.5055(8)
C6 C 0.2073(17) -0.0892(11) 0.4737(8)
C7 C 0.2294(19) -0.1937(14) 0.5512(7)
C8 C 0.374(2) -0.3106(15) 0.5185(9)
H4 H 0.3943 -0.3824 0.5658
C9 C 0.492(2) -0.3224(12) 0.4110(10)
H5 H 0.5934 -0.4015 0.3872
C10 C 0.4576(19) -0.2182(12) 0.3444(10)
H6 H 0.5362 -0.2273 0.2739
C11 C -0.038(3) -0.0640(18) 0.6898(10)
H7 H -0.1193 -0.0593 0.7587
C12 C 0.105(2) -0.1750(14) 0.6594(7)
H8 H 0.1271 -0.2441 0.7093
C13 C 0.404(2) 0.9008(13) -0.2109(9)
H9 H 0.3222 0.9080 -0.1417
C14 C 0.376(2) 1.0182(12) -0.2817(12)
H10 H 0.2852 1.1011 -0.2547
C15 C 0.478(2) 1.0050(11) -0.3807(13)
H11 H 0.4499 1.0754 -0.4290
C16 C 0.6389(19) 0.8794(10) -0.4202(10)
C17 C 0.6644(18) 0.7745(11) -0.3493(8)
C18 C 0.8164(17) 0.6487(11) -0.3782(9)
C19 C 0.9323(17) 0.6387(12) -0.4808(8)
C20 C 1.0878(17) 0.5084(13) -0.5054(9)
H12 H 1.1770 0.4939 -0.5722
C21 C 1.101(2) 0.4081(13) -0.4300(13)
H13 H 1.1912 0.3224 -0.4473
C22 C 0.9733(19) 0.4407(15) -0.3245(12)
H14 H 0.9919 0.3773 -0.2698
C23 C 0.904(2) 0.7331(15) -0.5593(9)
H15 H 0.9794 0.7163 -0.6313
C24 C 0.762(2) 0.8536(16) -0.5288(14)
H16 H 0.7448 0.9211 -0.5802
C25 C 0.3916(16) 0.2576(12) 0.2742(9)
C26 C 0.4805(16) 0.3578(10) 0.2295(7)
C27 C 0.6734(15) 0.3415(9) 0.2232(7)
H17 H 0.7471 0.2692 0.2573
C28 C 0.3755(17) 0.4759(11) 0.1799(8)
H18 H 0.2491 0.4928 0.1825
C29 C 0.7554(13) 0.6250(10) 0.0593(8)
C30 C 0.6475(14) 0.5434(10) 0.1187(7)
C31 C 0.4558(14) 0.5635(12) 0.1292(7)
C32 C 0.7501(18) 0.4275(14) 0.1698(9)
H19 H 0.8769 0.4107 0.1659
C33 C 0.1077(13) 0.0614(7) 0.0734(7)
C34 C 0.2133(14) 0.1549(7) 0.0095(8)
C35 C 0.1091(15) 0.2600(8) -0.0445(8)
H20 H -0.0127 0.2689 -0.0484
C36 C 0.5331(13) 0.0065(10) 0.0564(7)
C37 C 0.4069(13) 0.1244(7) 0.0051(7)
C38 C 0.3263(15) 0.6779(10) 0.0754(8)
C39 C 0.4683(17) 0.4338(10) -0.1468(8)
C40 C 0.3820(16) 0.3259(9) -0.0968(9)
C41 C 0.4871(14) 0.2134(10) -0.0544(8)
H21 H 0.6157 0.1943 -0.0647
C42 C 0.1929(17) 0.3576(10) -0.0956(8)
H22 H 0.1239 0.4359 -0.1254
Co2_2 Co 0.9305(2) 0.84285(16) 0.06590(12)
Co2_3 Co -0.0695(2) 0.84285(16) 0.06590(12)
Co2_4 Co 0.9305(2) -0.15715(16) 0.06590(12)
O5_2 O -0.1872(12) -0.3131(7) 0.1177(6)
O8_2 O 0.1642(11) -0.2671(9) 0.1304(6)
O9_2 O -0.3009(10) -0.0422(7) 0.0031(6)
loop_
_geom_bond_atom_site_label_1
_geom_bond_atom_site_label_2
_geom_bond_site_symmetry_1
_geom_bond_site_symmetry_2
Co1 O4 1_555 1_555
Co2 O1 1_555 1_555
Co3 O6 1_555 1_555
O2 Co2 1_555 1_555
O3 Co2 1_555 1_555
O4 C33 1_555 1_555
O5 C29 1_555 1_555
O6 C29 1_555 1_555
O7 Co3 1_555 1_555
O8 C38 1_555 1_555
O9 C36 1_555 1_555
O10 Co1 1_555 1_555
O11 Co1 1_555 1_555
O12 Co1 1_555 1_555
O13 Co3 1_555 1_555
O14 Co3 1_555 1_555
N1 Co1 1_555 1_555
N2 Co1 1_555 1_555
N3 Co3 1_555 1_555
N4 Co3 1_555 1_555
C1 N2 1_555 1_555
H1 C1 1_555 1_555
C2 C1 1_555 1_555
H2 C2 1_555 1_555
C3 C2 1_555 1_555
H3 C3 1_555 1_555
C4 C3 1_555 1_555
C5 N2 1_555 1_555
C6 N1 1_555 1_555
C7 C6 1_555 1_555
C8 C7 1_555 1_555
H4 C8 1_555 1_555
C9 C8 1_555 1_555
H5 C9 1_555 1_555
C10 N1 1_555 1_555
H6 C10 1_555 1_555
C11 C4 1_555 1_555
H7 C11 1_555 1_555
C12 C7 1_555 1_555
H8 C12 1_555 1_555
C13 N3 1_555 1_555
H9 C13 1_555 1_555
C14 C13 1_555 1_555
H10 C14 1_555 1_555
C15 C14 1_555 1_555
H11 C15 1_555 1_555
C16 C15 1_555 1_555
C17 N3 1_555 1_555
C18 N4 1_555 1_555
C19 C18 1_555 1_555
C20 C19 1_555 1_555
H12 C20 1_555 1_555
C21 C20 1_555 1_555
H13 C21 1_555 1_555
C22 N4 1_555 1_555
H14 C22 1_555 1_555
C23 C19 1_555 1_555
H15 C23 1_555 1_555
C24 C16 1_555 1_555
H16 C24 1_555 1_555
C25 O11 1_555 1_555
C26 C25 1_555 1_555
C27 C26 1_555 1_555
H17 C27 1_555 1_555
C28 C26 1_555 1_555
H18 C28 1_555 1_555
C29 C30 1_555 1_555
C30 C31 1_555 1_555
C31 C28 1_555 1_555
C32 C27 1_555 1_555
H19 C32 1_555 1_555
C33 O2 1_555 1_555
C34 C33 1_555 1_555
C35 C34 1_555 1_555
H20 C35 1_555 1_555
C36 O10 1_555 1_555
C37 C34 1_555 1_555
C38 O7 1_555 1_555
C39 O13 1_555 1_555
C40 C39 1_555 1_555
C41 C37 1_555 1_555
H21 C41 1_555 1_555
C42 C35 1_555 1_555
H22 C42 1_555 1_555
Co2_2 O5 1_555 1_555
Co2_3 O8 1_555 1_555
Co2_4 O9 1_555 1_555
O5_2 Co2 1_555 1_555
O8_2 Co2 1_555 1_555
O9_2 Co2 1_555 1_555
O12 C25 1_555 1_555
O14 C39 1_555 1_555
C4 C5 1_555 1_555
C5 C6 1_555 1_555
C9 C10 1_555 1_555
C11 C12 1_555 1_555
C16 C17 1_555 1_555
C17 C18 1_555 1_555
C21 C22 1_555 1_555
C23 C24 1_555 1_555
C30 C32 1_555 1_555
C31 C38 1_555 1_555
C36 C37 1_555 1_555
C40 C41 1_555 1_555
C40 C42 1_555 1_555

#END
