
#######################################################################
#
#                 Cambridge Crystallographic Data Centre
#                                CCDC 
#
#######################################################################
#
# If this CIF has been generated from an entry in the Cambridge 
# Structural Database, then it will include bibliographic, chemical, 
# crystal, experimental, refinement or atomic coordinate data resulting 
# from the CCDC's data processing and validation procedures.
#
#######################################################################

data_VAJPUS01
_symmetry_cell_setting           triclinic
_symmetry_space_group_name_H-M   'P -1'
_symmetry_Int_Tables_number      2
_space_group_name_Hall           '-P 1'
loop_
_symmetry_equiv_pos_site_id
_symmetry_equiv_pos_as_xyz
1 x,y,z
2 -x,-y,-z
_cell_length_a                   7.7709
_cell_length_b                   10.5720
_cell_length_c                   12.1780
_cell_angle_alpha                88.49
_cell_angle_beta                 77.97
_cell_angle_gamma                69.84
_cell_volume                     917.423
loop_
_atom_site_label
_atom_site_type_symbol
_atom_site_fract_x
_atom_site_fract_y
_atom_site_fract_z
Co1 Co 0.31844 0.22952 0.71366
Co2 Co 0.00000 0.00000 0.50000
O1 O 0.10900 -0.09850 0.34130
O2 O 0.12025 0.15360 0.44845
O3 O 0.14160 0.22205 0.61440
O4 O 0.54045 0.12875 0.58620
O5 O 0.76745 0.11245 0.43635
O6 O 0.69620 0.57150 0.30730
O7 O 0.44715 0.68385 0.23985
N1 N 0.38625 0.05690 0.80850
N2 N 0.09990 0.28975 0.86445
C1 C -0.04150 0.40420 0.89055
H1 H -0.05625 0.47075 0.83850
C2 C -0.17200 0.43025 0.99450
H2 H -0.27020 0.51195 1.00950
C3 C -0.15340 0.33245 1.07325
H3 H -0.23880 0.34810 1.14160
C4 C -0.00465 0.21035 1.04870
C5 C 0.11700 0.19465 0.94185
C6 C 0.27145 0.06815 0.91150
C7 C 0.29525 -0.03655 0.98570
C8 C 0.44800 -0.15780 0.94960
H4 H 0.47220 -0.22890 0.99740
C9 C 0.55800 -0.17030 0.84635
H5 H 0.65410 -0.25130 0.82095
C10 C 0.52680 -0.05950 0.77765
H6 H 0.60700 -0.06765 0.70780
C11 C 0.02900 0.10145 1.12455
H7 H -0.04935 0.11220 1.19500
C12 C 0.17150 -0.01430 1.09410
H8 H 0.19115 -0.08260 1.14475
C13 C 0.53835 0.58810 0.28950
C14 C 0.45075 0.48405 0.33685
C15 C 0.25975 0.50805 0.34060
H9 H 0.18840 0.58335 0.30865
C16 C 0.55580 0.36875 0.38285
H10 H 0.68330 0.35075 0.37640
C17 C 0.17615 0.21820 0.50705
C18 C 0.28290 0.30575 0.44540
C19 C 0.47555 0.28045 0.43795
C20 C 0.17950 0.41625 0.39285
H11 H 0.05520 0.42910 0.39285
C21 C 0.60340 0.16430 0.49050
Co1A Co -0.31844 -0.22952 0.28634
Co1A_2 Co 0.68156 0.77048 0.28634
Co1_2 Co -0.68156 -0.77048 0.71366
Co2_2 Co 1.00000 0.00000 0.50000
Co2_3 Co -1.00000 0.00000 0.50000
O1A O -0.10900 0.09850 0.65870
O2A O -0.12025 -0.15360 0.55155
O3A O -0.14160 -0.22205 0.38560
O4A O -0.54045 -0.12875 0.41380
O5A O -0.76745 -0.11245 0.56365
O5_2 O -0.23255 0.11245 0.43635
O5A_2 O 0.23255 -0.11245 0.56365
O6A O -0.69620 -0.57150 0.69270
O6A_2 O 0.30380 0.42850 0.69270
O6_2 O -0.30380 -0.42850 0.30730
O7A O -0.44715 -0.68385 0.76015
O7A_2 O 0.55285 0.31615 0.76015
O7_2 O -0.55285 -0.31615 0.23985
N1A N -0.38625 -0.05690 0.19150
N2A N -0.09990 -0.28975 0.13555
C1A C 0.04150 -0.40420 0.10945
H1A H 0.05625 -0.47075 0.16150
C2A C 0.17200 -0.43025 0.00550
H2A H 0.27020 -0.51195 -0.00950
C3A C 0.15340 -0.33245 -0.07325
H3A H 0.23880 -0.34810 -0.14160
C4A C 0.00465 -0.21035 -0.04870
C5A C -0.11700 -0.19465 0.05815
C6A C -0.27145 -0.06815 0.08850
C7A C -0.29525 0.03655 0.01430
C8A C -0.44800 0.15780 0.05040
H4A H -0.47220 0.22890 0.00260
C9A C -0.55800 0.17030 0.15365
H5A H -0.65410 0.25130 0.17905
C10A C -0.52680 0.05950 0.22235
H6A H -0.60700 0.06765 0.29220
C11A C -0.02900 -0.10145 -0.12455
H7A H 0.04935 -0.11220 -0.19500
C12A C -0.17150 0.01430 -0.09410
H8A H -0.19115 0.08260 -0.14475
C13A C -0.53835 -0.58810 0.71050
C14A C -0.45075 -0.48405 0.66315
C15A C -0.25975 -0.50805 0.65940
H9A H -0.18840 -0.58335 0.69135
C16A C -0.55580 -0.36875 0.61715
H10A H -0.68330 -0.35075 0.62360
C17A C -0.17615 -0.21820 0.49295
C18A C -0.28290 -0.30575 0.55460
C19A C -0.47555 -0.28045 0.56205
C20A C -0.17950 -0.41625 0.60715
H11A H -0.05520 -0.42910 0.60715
C21A C -0.60340 -0.16430 0.50950
loop_
_geom_bond_atom_site_label_1
_geom_bond_atom_site_label_2
_geom_bond_site_symmetry_1
_geom_bond_site_symmetry_2
Co1 O3 1_555 1_555
Co2 O1 1_555 1_555
O2 Co2 1_555 1_555
O3 C17 1_555 1_555
O4 Co1 1_555 1_555
O5 C21 1_555 1_555
O6 C13 1_555 1_555
O7 C13 1_555 1_555
N1 Co1 1_555 1_555
N2 Co1 1_555 1_555
C1 N2 1_555 1_555
H1 C1 1_555 1_555
C2 C1 1_555 1_555
H2 C2 1_555 1_555
C3 C2 1_555 1_555
H3 C3 1_555 1_555
C4 C3 1_555 1_555
C5 N2 1_555 1_555
C6 N1 1_555 1_555
C7 C6 1_555 1_555
C8 C7 1_555 1_555
H4 C8 1_555 1_555
C9 C8 1_555 1_555
H5 C9 1_555 1_555
C10 N1 1_555 1_555
H6 C10 1_555 1_555
C11 C4 1_555 1_555
H7 C11 1_555 1_555
C12 C7 1_555 1_555
H8 C12 1_555 1_555
C13 C14 1_555 1_555
C14 C15 1_555 1_555
C15 H9 1_555 1_555
C16 C14 1_555 1_555
H10 C16 1_555 1_555
C17 O2 1_555 1_555
C18 C17 1_555 1_555
C19 C16 1_555 1_555
C20 C15 1_555 1_555
H11 C20 1_555 1_555
C21 O4 1_555 1_555
Co1A O3A 1_555 1_555
Co1A_2 O6 1_555 1_555
Co1_2 O6A 1_555 1_555
Co2_2 O5 1_555 1_555
Co2_3 O5A 1_555 1_555
O1A Co2 1_555 1_555
O2A Co2 1_555 1_555
O3A C17A 1_555 1_555
O4A Co1A 1_555 1_555
O5A C21A 1_555 1_555
O5_2 Co2 1_555 1_555
O5A_2 Co2 1_555 1_555
O6A C13A 1_555 1_555
O6A_2 Co1 1_555 1_555
O6_2 Co1A 1_555 1_555
O7A Co1_2 1_555 1_555
O7A_2 Co1 1_555 1_555
O7_2 Co1A 1_555 1_555
N1A Co1A 1_555 1_555
N2A Co1A 1_555 1_555
C1A N2A 1_555 1_555
H1A C1A 1_555 1_555
C2A C1A 1_555 1_555
H2A C2A 1_555 1_555
C3A C2A 1_555 1_555
H3A C3A 1_555 1_555
C4A C3A 1_555 1_555
C5A N2A 1_555 1_555
C6A N1A 1_555 1_555
C7A C6A 1_555 1_555
C8A C7A 1_555 1_555
H4A C8A 1_555 1_555
C9A C8A 1_555 1_555
H5A C9A 1_555 1_555
C10A N1A 1_555 1_555
H6A C10A 1_555 1_555
C11A C4A 1_555 1_555
H7A C11A 1_555 1_555
C12A C7A 1_555 1_555
H8A C12A 1_555 1_555
C13A O7A 1_555 1_555
C14A C13A 1_555 1_555
C15A C14A 1_555 1_555
H9A C15A 1_555 1_555
C16A C14A 1_555 1_555
H10A C16A 1_555 1_555
C17A O2A 1_555 1_555
C18A C17A 1_555 1_555
C19A C16A 1_555 1_555
C20A C15A 1_555 1_555
H11A C20A 1_555 1_555
C21A O4A 1_555 1_555
O7 Co1A_2 1_555 1_555
C4 C5 1_555 1_555
C5 C6 1_555 1_555
C9 C10 1_555 1_555
C11 C12 1_555 1_555
C18 C19 1_555 1_555
C18 C20 1_555 1_555
C19 C21 1_555 1_555
C4A C5A 1_555 1_555
C5A C6A 1_555 1_555
C9A C10A 1_555 1_555
C11A C12A 1_555 1_555
C18A C19A 1_555 1_555
C18A C20A 1_555 1_555
C19A C21A 1_555 1_555

#END
