
#######################################################################
#
#                 Cambridge Crystallographic Data Centre
#                                CCDC 
#
#######################################################################
#
# If this CIF has been generated from an entry in the Cambridge 
# Structural Database, then it will include bibliographic, chemical, 
# crystal, experimental, refinement or atomic coordinate data resulting 
# from the CCDC's data processing and validation procedures.
#
#######################################################################

data_VAJPON
_symmetry_cell_setting           monoclinic
_symmetry_space_group_name_H-M   'P 2/c'
_symmetry_Int_Tables_number      13
_space_group_name_Hall           '-P 2yc'
loop_
_symmetry_equiv_pos_site_id
_symmetry_equiv_pos_as_xyz
1 x,y,z
2 -x,y,1/2-z
3 -x,-y,-z
4 x,-y,1/2+z
_cell_length_a                   23.738(2)
_cell_length_b                   10.59760(12)
_cell_length_c                   21.660(2)
_cell_angle_alpha                90
_cell_angle_beta                 105.239(2)
_cell_angle_gamma                90
_cell_volume                     5257.32
loop_
_atom_site_label
_atom_site_type_symbol
_atom_site_fract_x
_atom_site_fract_y
_atom_site_fract_z
Pr1 Pr 0.0000 0.77876(3) 0.7500
Pr2 Pr 0.5000 0.47456(3) 0.2500
Cu1 Cu 0.21171(2) 0.66814(6) 0.78968(2)
Cu2 Cu 0.26873(3) 0.63452(6) 0.30526(2)
Cu3 Cu 0.68646(2) 0.04926(5) 0.38387(2)
N1 N 0.04836(13) 0.9066(3) 0.67551(14)
N2 N 0.0000 0.5341(4) 0.7500
N3 N 0.48096(13) 0.3625(3) 0.35011(14)
N4 N 0.5000 0.7187(5) 0.2500
N5 N 0.22579(15) 0.6804(3) 0.70649(14)
N6 N 0.25886(16) 0.6560(3) 0.39020(15)
N7 N 0.22082(15) 0.6935(3) 0.87985(14)
N8 N 0.25695(15) 0.6583(3) 1.21508(14)
N9 N 0.69533(15) 0.0110(3) 0.47221(14)
N10 N 0.69204(14) -0.0482(3) 0.79777(14)
O1 O 0.07162(13) 0.9437(3) 0.80034(13)
O2 O 0.13583(13) 1.0963(3) 0.79765(15)
O3 O -0.02360(12) 0.7165(3) 0.63386(12)
O4 O -0.02366(17) 0.7484(4) 0.53305(14)
O5 O 0.09565(11) 0.6688(2) 0.75866(12)
O6 O 0.15206(11) 0.4983(3) 0.77449(13)
O7 O 0.40978(12) 0.5358(3) 0.28345(13)
O8 O 0.34855(14) 0.5124(4) 0.34476(15)
O9 O 0.56686(12) 0.2981(3) 0.30004(12)
O10 O 0.60329(13) 0.1631(3) 0.37977(13)
O11 O 0.44443(13) 0.5831(3) 0.15072(13)
O12 O 0.42143(15) 0.7522(3) 0.08846(14)
C1 C 0.09969(17) 1.0162(4) 0.7719(2)
C2 C 0.08488(17) 1.0004(4) 0.6993(2)
C3 C 0.1078(2) 1.0775(5) 0.6610(2)
H13 H 0.1323 1.1440 0.6785
C4 C 0.0939(2) 1.0544(5) 0.5961(2)
H14 H 0.1096 1.1042 0.5694
C5 C 0.0562(2) 0.9564(5) 0.5709(2)
H15 H 0.0463 0.9394 0.5273
C6 C 0.03373(17) 0.8845(4) 0.61209(18)
C7 C -0.00833(19) 0.7755(4) 0.59077(19)
C8 C 0.10348(16) 0.5509(4) 0.76396(16)
C9 C 0.05020(16) 0.4703(4) 0.75779(18)
C10 C 0.05192(19) 0.3400(4) 0.7591(2)
H16 H 0.0873 0.2974 0.7660
C11 C 0.0000 0.2738(6) 0.7500
H17 H 0.0000 0.1861 0.7500
C12 C 0.39529(18) 0.4926(4) 0.33099(19)
C13 C 0.43885(18) 0.4069(4) 0.37503(18)
C14 C 0.4367(2) 0.3756(5) 0.4361(2)
H18 H 0.4069 0.4066 0.4526
C15 C 0.4792(2) 0.2977(6) 0.4725(2)
H19 H 0.4789 0.2770 0.5141
C16 C 0.5225(2) 0.2502(5) 0.4465(2)
H20 H 0.5511 0.1961 0.4698
C17 C 0.52167(18) 0.2863(4) 0.38470(18)
C18 C 0.56769(17) 0.2447(4) 0.35208(18)
C19 C 0.44404(18) 0.6992(4) 0.1401(2)
C20 C 0.47293(19) 0.7823(4) 0.1971(2)
C21 C 0.4725(3) 0.9115(5) 0.1956(3)
H21 H 0.4539 0.9542 0.1583
C22 C 0.5000 0.9774(8) 0.2500
H22 H 0.5000 1.0652 0.2500
C23 C 0.1833(2) 0.7190(5) 0.65597(19)
H23 H 0.1485 0.7476 0.6631
C24 C 0.1886(2) 0.7184(4) 0.59410(19)
H24 H 0.1581 0.7474 0.5608
C25 C 0.23978(18) 0.6741(4) 0.58162(17)
C26 C 0.28397(18) 0.6350(4) 0.63424(17)
H25 H 0.3191 0.6055 0.6285
C27 C 0.27538(18) 0.6403(4) 0.69532(17)
H26 H 0.3056 0.6147 0.7298
C28 C 0.30533(19) 0.6674(4) 0.44110(18)
H27 H 0.3423 0.6715 0.4341
C29 C 0.30063(18) 0.6732(4) 0.50310(18)
H28 H 0.3341 0.6815 0.5368
C30 C 0.24651(17) 0.6668(4) 0.51556(17)
C31 C 0.19870(19) 0.6566(4) 0.46282(18)
H29 H 0.1613 0.6536 0.4686
C32 C 0.2062(2) 0.6509(4) 0.40216(19)
H30 H 0.1733 0.6432 0.3678
C33 C 0.17631(18) 0.7195(4) 0.90445(18)
H31 H 0.1402 0.7376 0.8765
C34 C 0.18111(18) 0.7209(4) 0.96926(18)
H32 H 0.1487 0.7397 0.9841
C35 C 0.23446(17) 0.6944(4) 1.01247(17)
C36 C 0.28142(17) 0.6712(4) 0.98702(17)
H33 H 0.3183 0.6562 1.0140
C37 C 0.27314(18) 0.6705(4) 0.92165(18)
H34 H 0.3050 0.6534 0.9055
C38 C 0.30109(19) 0.6928(4) 1.19057(18)
H35 H 0.3376 0.7063 1.2186
C39 C 0.29500(18) 0.7091(4) 1.12654(17)
H36 H 0.3268 0.7351 1.1122
C40 C 0.24138(17) 0.6870(4) 1.08266(17)
C41 C 0.19498(17) 0.6527(4) 1.10765(18)
H37 H 0.1580 0.6386 1.0806
C42 C 0.20479(19) 0.6402(4) 1.17312(18)
H38 H 0.1734 0.6180 1.1891
C43 C 0.64633(18) -0.0152(4) 0.48985(18)
H39 H 0.6116 -0.0241 0.4580
C44 C 0.64487(18) -0.0294(4) 0.55228(18)
H40 H 0.6097 -0.0472 0.5619
C45 C 0.69628(17) -0.0171(4) 0.60172(17)
C46 C 0.74735(18) 0.0074(4) 0.58319(17)
H41 H 0.7828 0.0152 0.6139
C47 C 0.74503(18) 0.0200(4) 0.51937(18)
H42 H 0.7796 0.0357 0.5082
C48 C 0.65130(19) -0.1028(4) 0.75046(18)
H43 H 0.6213 -0.1471 0.7609
C49 C 0.65191(19) -0.0964(4) 0.68703(18)
H44 H 0.6229 -0.1367 0.6560
C50 C 0.69567(17) -0.0301(4) 0.66943(17)
C51 C 0.73823(18) 0.0251(4) 0.71840(18)
H45 H 0.7688 0.0695 0.7092
C52 C 0.73489(18) 0.0137(4) 0.78075(18)
H46 H 0.7640 0.0511 0.8128
Pr2_2 Pr -0.5000 0.47456(3) 1.2500
Cu1A Cu -0.21171(2) 0.66814(6) 0.71032(2)
Cu2A Cu -0.26873(3) 0.63452(6) 1.19474(2)
Cu2_2 Cu 0.26873(3) 0.63452(6) 1.30526(2)
Cu2A_2 Cu -0.26873(3) 0.63452(6) 0.19474(2)
Cu3A Cu -0.68646(2) 0.04926(5) 1.11613(2)
Cu3C Cu 0.68646(2) -0.04926(5) 0.88387(2)
Cu3C_2 Cu 0.68646(2) -0.04926(5) -0.11613(2)
N1A N -0.04836(13) 0.9066(3) 0.82449(14)
N3A N -0.48096(13) 0.3625(3) 1.14989(14)
N3A_2 N 0.51904(13) 0.3625(3) 0.14989(14)
N5A N -0.22579(15) 0.6804(3) 0.79351(14)
N6A N -0.25886(16) 0.6560(3) 1.10980(15)
N7A N -0.22082(15) 0.6935(3) 0.62015(14)
N8A N -0.25695(15) 0.6583(3) 0.28492(14)
N8_2 N 0.25695(15) 0.6583(3) 0.21508(14)
N8A_2 N -0.25695(15) 0.6583(3) 1.28492(14)
N9C N 0.69533(15) -0.0110(3) -0.02779(14)
N9A N -0.69533(15) 0.0110(3) 1.02779(14)
N10C N 0.69204(14) 0.0482(3) 0.29777(14)
N10B N -0.69204(14) 0.0482(3) 1.20223(14)
O1A O -0.07162(13) 0.9437(3) 0.69966(13)
O2A O -0.13583(13) 1.0963(3) 0.70235(15)
O3A O 0.02360(12) 0.7165(3) 0.86614(12)
O4A O 0.02366(17) 0.7484(4) 0.96695(14)
O5A O -0.09565(11) 0.6688(2) 0.74134(12)
O6A O -0.15206(11) 0.4983(3) 0.72551(13)
O7A O -0.40978(12) 0.5358(3) 1.21655(13)
O7A_2 O 0.59022(12) 0.5358(3) 0.21655(13)
O8A O -0.34855(14) 0.5124(4) 1.15524(15)
O9A O -0.56686(12) 0.2981(3) 1.19996(12)
O9A_2 O 0.43314(12) 0.2981(3) 0.19996(12)
O10A O -0.60329(13) 0.1631(3) 1.12023(13)
O11A O 0.55557(13) 0.5831(3) 0.34928(13)
O12A O 0.57857(15) 0.7522(3) 0.41154(14)
C1A C -0.09969(17) 1.0162(4) 0.7281(2)
C2A C -0.08488(17) 1.0004(4) 0.8007(2)
C3A C -0.1078(2) 1.0775(5) 0.8390(2)
H13A H -0.1323 1.1440 0.8215
C4A C -0.0939(2) 1.0544(5) 0.9039(2)
H14A H -0.1096 1.1042 0.9306
C5A C -0.0562(2) 0.9564(5) 0.9291(2)
H15A H -0.0463 0.9394 0.9727
C6A C -0.03373(17) 0.8845(4) 0.88791(18)
C7A C 0.00833(19) 0.7755(4) 0.90923(19)
C8A C -0.10348(16) 0.5509(4) 0.73604(16)
C9A C -0.05020(16) 0.4703(4) 0.74221(18)
C10A C -0.05192(19) 0.3400(4) 0.7409(2)
H16A H -0.0873 0.2974 0.7340
C12A C -0.39529(18) 0.4926(4) 1.16901(19)
C13A C -0.43885(18) 0.4069(4) 1.12497(18)
C14A C -0.4367(2) 0.3756(5) 1.0639(2)
H18A H -0.4069 0.4066 1.0474
C15A C -0.4792(2) 0.2977(6) 1.0275(2)
H19A H -0.4789 0.2770 0.9859
C16A C -0.5225(2) 0.2502(5) 1.0535(2)
H20A H -0.5511 0.1961 1.0302
C17A C -0.52167(18) 0.2863(4) 1.11530(18)
C18A C -0.56769(17) 0.2447(4) 1.14792(18)
C19A C 0.55596(18) 0.6992(4) 0.3599(2)
C20A C 0.52707(19) 0.7823(4) 0.3029(2)
C21A C 0.5275(3) 0.9115(5) 0.3044(3)
H21A H 0.5461 0.9542 0.3417
C23A C -0.1833(2) 0.7190(5) 0.84403(19)
H23A H -0.1485 0.7476 0.8369
C24A C -0.1886(2) 0.7184(4) 0.90590(19)
H24A H -0.1581 0.7474 0.9392
C25A C -0.23978(18) 0.6741(4) 0.91838(17)
C26A C -0.28397(18) 0.6350(4) 0.86576(17)
H25A H -0.3191 0.6055 0.8715
C27A C -0.27538(18) 0.6403(4) 0.80468(17)
H26A H -0.3056 0.6147 0.7702
C28A C -0.30533(19) 0.6674(4) 1.05890(18)
H27A H -0.3423 0.6715 1.0659
C29A C -0.30063(18) 0.6732(4) 0.99690(18)
H28A H -0.3341 0.6815 0.9632
C30A C -0.24651(17) 0.6668(4) 0.98444(17)
C31A C -0.19870(19) 0.6566(4) 1.03718(18)
H29A H -0.1613 0.6536 1.0314
C32A C -0.2062(2) 0.6509(4) 1.09784(19)
H30A H -0.1733 0.6432 1.1322
C33A C -0.17631(18) 0.7195(4) 0.59555(18)
H31A H -0.1402 0.7376 0.6235
C34A C -0.18111(18) 0.7209(4) 0.53074(18)
H32A H -0.1487 0.7397 0.5159
C35A C -0.23446(17) 0.6944(4) 0.48753(17)
C36A C -0.28142(17) 0.6712(4) 0.51298(17)
H33A H -0.3183 0.6562 0.4860
C37A C -0.27314(18) 0.6705(4) 0.57835(18)
H34A H -0.3050 0.6534 0.5945
C38A C -0.30109(19) 0.6928(4) 0.30943(18)
H35A H -0.3376 0.7063 0.2814
C39A C -0.29500(18) 0.7091(4) 0.37346(17)
H36A H -0.3268 0.7351 0.3878
C40A C -0.24138(17) 0.6870(4) 0.41734(17)
C41A C -0.19498(17) 0.6527(4) 0.39235(18)
H37A H -0.1580 0.6386 0.4194
C42A C -0.20479(19) 0.6402(4) 0.32688(18)
H38A H -0.1734 0.6180 0.3109
C43C C 0.64633(18) 0.0152(4) -0.01015(18)
H39C H 0.6116 0.0241 -0.0420
C44C C 0.64487(18) 0.0294(4) 0.05228(18)
H40C H 0.6097 0.0472 0.0619
C45C C 0.69628(17) 0.0171(4) 0.10172(17)
C46C C 0.74735(18) -0.0074(4) 0.08319(17)
H41C H 0.7828 -0.0152 0.1139
C47C C 0.74503(18) -0.0200(4) 0.01937(18)
H42C H 0.7796 -0.0357 0.0082
C48C C 0.65130(19) 0.1028(4) 0.25046(18)
H43C H 0.6213 0.1471 0.2609
C49C C 0.65191(19) 0.0964(4) 0.18703(18)
H44C H 0.6229 0.1367 0.1560
C50C C 0.69567(17) 0.0301(4) 0.16943(17)
C51C C 0.73823(18) -0.0251(4) 0.21840(18)
H45C H 0.7688 -0.0695 0.2092
C52C C 0.73489(18) -0.0137(4) 0.28075(18)
H46C H 0.7640 -0.0511 0.3128
O13 O 0.92141(19) 0.4883(5) 0.9955(2)
H1 H 0.9360 0.4190 1.0121
H2 H 0.9286 0.4956 0.9592
O14 O 0.9512(3) 0.5230(6) 0.3816(3)
H3 H 0.9704 0.4575 0.3770
H4 H 0.9754 0.5804 0.3985
O15 O 0.8942(2) 0.9567(5) 0.0657(2)
H5 H 0.9042 0.9847 0.1038
H6 H 0.9138 0.8902 0.0640
O16 O 0.9622(3) 0.7235(5) 0.0605(2)
H7 H 0.9833 0.7456 0.0362
H8 H 0.9466 0.6529 0.0472
O17 O 0.5074(5) 0.9543(12) 0.0674(6)
H9 H 0.4817 0.9001 0.0701
H10 H 0.5002 0.9793 0.0288
O18 O 0.4024(5) 0.7896(11) 0.3552(6)
H11 H 0.4117 0.7235 0.3378
H12 H 0.4335 0.8260 0.3762
H47? H 0.5413 0.9222 0.0792
loop_
_geom_bond_atom_site_label_1
_geom_bond_atom_site_label_2
_geom_bond_site_symmetry_1
_geom_bond_site_symmetry_2
Pr1 N1 1_555 1_555
Pr2 N3 1_555 1_555
Cu1 N5 1_555 1_555
Cu2 N6 1_555 1_555
Cu3 N9 1_555 1_555
N1 C2 1_555 1_555
N2 Pr1 1_555 1_555
N3 C13 1_555 1_555
N4 Pr2 1_555 1_555
N5 C23 1_555 1_555
N6 C28 1_555 1_555
N7 Cu1 1_555 1_555
N8 C38 1_555 1_555
N9 C43 1_555 1_555
N10 C48 1_555 1_555
O1 Pr1 1_555 1_555
O2 C1 1_555 1_555
O3 Pr1 1_555 1_555
O4 C7 1_555 1_555
O5 Pr1 1_555 1_555
O6 Cu1 1_555 1_555
O7 Pr2 1_555 1_555
O8 Cu2 1_555 1_555
O9 Pr2 1_555 1_555
O10 Cu3 1_555 1_555
O11 Pr2 1_555 1_555
O12 C19 1_555 1_555
O13 H1 1_555 1_555
H2 O13 1_555 1_555
O14 H3 1_555 1_555
H4 O14 1_555 1_555
O15 H5 1_555 1_555
H6 O15 1_555 1_555
O16 H7 1_555 1_555
H8 O16 1_555 1_555
O17 H9 1_555 1_555
H10 O17 1_555 1_555
O18 H11 1_555 1_555
H12 O18 1_555 1_555
C1 O1 1_555 1_555
C2 C1 1_555 1_555
C3 C2 1_555 1_555
H13 C3 1_555 1_555
C4 C3 1_555 1_555
H14 C4 1_555 1_555
C5 C4 1_555 1_555
H15 C5 1_555 1_555
C6 N1 1_555 1_555
C7 O3 1_555 1_555
C8 O5 1_555 1_555
C9 N2 1_555 1_555
C10 C9 1_555 1_555
H16 C10 1_555 1_555
C11 C10 1_555 1_555
H17 C11 1_555 1_555
C12 O7 1_555 1_555
C13 C12 1_555 1_555
C14 C13 1_555 1_555
H18 C14 1_555 1_555
C15 C14 1_555 1_555
H19 C15 1_555 1_555
C16 C15 1_555 1_555
H20 C16 1_555 1_555
C17 N3 1_555 1_555
C18 O9 1_555 1_555
C19 O11 1_555 1_555
C20 N4 1_555 1_555
C21 C20 1_555 1_555
H21 C21 1_555 1_555
C22 C21 1_555 1_555
H22 C22 1_555 1_555
C23 H23 1_555 1_555
C24 C23 1_555 1_555
H24 C24 1_555 1_555
C25 C24 1_555 1_555
C26 C25 1_555 1_555
H25 C26 1_555 1_555
C27 N5 1_555 1_555
H26 C27 1_555 1_555
C28 H27 1_555 1_555
C29 C28 1_555 1_555
H28 C29 1_555 1_555
C30 C25 1_555 1_555
C31 C30 1_555 1_555
H29 C31 1_555 1_555
C32 N6 1_555 1_555
H30 C32 1_555 1_555
C33 N7 1_555 1_555
H31 C33 1_555 1_555
C34 C33 1_555 1_555
H32 C34 1_555 1_555
C35 C34 1_555 1_555
C36 C35 1_555 1_555
H33 C36 1_555 1_555
C37 N7 1_555 1_555
H34 C37 1_555 1_555
C38 H35 1_555 1_555
C39 C38 1_555 1_555
H36 C39 1_555 1_555
C40 C35 1_555 1_555
C41 C40 1_555 1_555
H37 C41 1_555 1_555
C42 N8 1_555 1_555
H38 C42 1_555 1_555
C43 H39 1_555 1_555
C44 C43 1_555 1_555
H40 C44 1_555 1_555
C45 C44 1_555 1_555
C46 C45 1_555 1_555
H41 C46 1_555 1_555
C47 N9 1_555 1_555
H42 C47 1_555 1_555
C48 H43 1_555 1_555
C49 C48 1_555 1_555
H44 C49 1_555 1_555
C50 C45 1_555 1_555
C51 C50 1_555 1_555
H45 C51 1_555 1_555
C52 N10 1_555 1_555
H46 C52 1_555 1_555
Pr2_2 N3A 1_555 1_555
Cu1A N5A 1_555 1_555
Cu2A N6A 1_555 1_555
Cu2_2 N8 1_555 1_555
Cu2A_2 N8A 1_555 1_555
Cu3A N9A 1_555 1_555
Cu3C N10 1_555 1_555
Cu3C_2 N9C 1_555 1_555
N1A Pr1 1_555 1_555
N3A C13A 1_555 1_555
N3A_2 Pr2 1_555 1_555
N5A C23A 1_555 1_555
N6A C28A 1_555 1_555
N7A Cu1A 1_555 1_555
N8A C38A 1_555 1_555
N8_2 Cu2 1_555 1_555
N8A_2 Cu2A 1_555 1_555
N9C C43C 1_555 1_555
N10C Cu3 1_555 1_555
N10B Cu3A 1_555 1_555
O1A Pr1 1_555 1_555
O2A C1A 1_555 1_555
O3A Pr1 1_555 1_555
O4A C7A 1_555 1_555
O5A Pr1 1_555 1_555
O6A Cu1A 1_555 1_555
O7A Pr2_2 1_555 1_555
O7A_2 Pr2 1_555 1_555
O8A Cu2A 1_555 1_555
O9A Pr2_2 1_555 1_555
O9A_2 Pr2 1_555 1_555
O10A Cu3A 1_555 1_555
O11A Pr2 1_555 1_555
O12A C19A 1_555 1_555
C1A O1A 1_555 1_555
C2A N1A 1_555 1_555
C3A C2A 1_555 1_555
H13A C3A 1_555 1_555
C4A C3A 1_555 1_555
H14A C4A 1_555 1_555
C5A C4A 1_555 1_555
H15A C5A 1_555 1_555
C6A N1A 1_555 1_555
C7A O3A 1_555 1_555
C8A O5A 1_555 1_555
C9A N2 1_555 1_555
C10A C11 1_555 1_555
H16A C10A 1_555 1_555
C12A O7A 1_555 1_555
C13A C12A 1_555 1_555
C14A C13A 1_555 1_555
H18A C14A 1_555 1_555
C15A C14A 1_555 1_555
H19A C15A 1_555 1_555
C16A C15A 1_555 1_555
H20A C16A 1_555 1_555
C17A N3A 1_555 1_555
C18A O9A 1_555 1_555
C19A O11A 1_555 1_555
C20A N4 1_555 1_555
C21A C22 1_555 1_555
H21A C21A 1_555 1_555
C23A H23A 1_555 1_555
C24A C23A 1_555 1_555
H24A C24A 1_555 1_555
C25A C24A 1_555 1_555
C26A C25A 1_555 1_555
H25A C26A 1_555 1_555
C27A N5A 1_555 1_555
H26A C27A 1_555 1_555
C28A H27A 1_555 1_555
C29A C28A 1_555 1_555
H28A C29A 1_555 1_555
C30A C25A 1_555 1_555
C31A C30A 1_555 1_555
H29A C31A 1_555 1_555
C32A N6A 1_555 1_555
H30A C32A 1_555 1_555
C33A N7A 1_555 1_555
H31A C33A 1_555 1_555
C34A C33A 1_555 1_555
H32A C34A 1_555 1_555
C35A C34A 1_555 1_555
C36A C35A 1_555 1_555
H33A C36A 1_555 1_555
C37A N7A 1_555 1_555
H34A C37A 1_555 1_555
C38A H35A 1_555 1_555
C39A C38A 1_555 1_555
H36A C39A 1_555 1_555
C40A C35A 1_555 1_555
C41A C40A 1_555 1_555
H37A C41A 1_555 1_555
C42A N8A 1_555 1_555
H38A C42A 1_555 1_555
C43C H39C 1_555 1_555
C44C C43C 1_555 1_555
H40C C44C 1_555 1_555
C45C C44C 1_555 1_555
C46C C45C 1_555 1_555
H41C C46C 1_555 1_555
C47C N9C 1_555 1_555
H42C C47C 1_555 1_555
C48C N10C 1_555 1_555
H43C C48C 1_555 1_555
C49C C48C 1_555 1_555
H44C C49C 1_555 1_555
C50C C45C 1_555 1_555
C51C C50C 1_555 1_555
H45C C51C 1_555 1_555
C52C N10C 1_555 1_555
H46C C52C 1_555 1_555
O6 C8 1_555 1_555
O8 C12 1_555 1_555
O10 C18 1_555 1_555
C5 C6 1_555 1_555
C6 C7 1_555 1_555
C8 C9 1_555 1_555
C16 C17 1_555 1_555
C17 C18 1_555 1_555
C19 C20 1_555 1_555
C26 C27 1_555 1_555
C29 C30 1_555 1_555
C31 C32 1_555 1_555
C36 C37 1_555 1_555
C39 C40 1_555 1_555
C41 C42 1_555 1_555
C46 C47 1_555 1_555
C49 C50 1_555 1_555
C51 C52 1_555 1_555
O6A C8A 1_555 1_555
O8A C12A 1_555 1_555
O10A C18A 1_555 1_555
C1A C2A 1_555 1_555
C5A C6A 1_555 1_555
C6A C7A 1_555 1_555
C8A C9A 1_555 1_555
C9A C10A 1_555 1_555
C16A C17A 1_555 1_555
C17A C18A 1_555 1_555
C19A C20A 1_555 1_555
C20A C21A 1_555 1_555
C26A C27A 1_555 1_555
C29A C30A 1_555 1_555
C31A C32A 1_555 1_555
C36A C37A 1_555 1_555
C39A C40A 1_555 1_555
C41A C42A 1_555 1_555
C46C C47C 1_555 1_555
C49C C50C 1_555 1_555
C51C C52C 1_555 1_555

#END
