
#######################################################################
#
#                 Cambridge Crystallographic Data Centre
#                                CCDC 
#
#######################################################################
#
# If this CIF has been generated from an entry in the Cambridge 
# Structural Database, then it will include bibliographic, chemical, 
# crystal, experimental, refinement or atomic coordinate data resulting 
# from the CCDC's data processing and validation procedures.
#
#######################################################################

data_VAJSOQ
_symmetry_cell_setting           monoclinic
_symmetry_space_group_name_H-M   'C 2/c'
_symmetry_Int_Tables_number      15
_space_group_name_Hall           '-C 2yn'
loop_
_symmetry_equiv_pos_site_id
_symmetry_equiv_pos_as_xyz
1 x,y,z
2 -x,y,1/2-z
3 1/2+x,1/2+y,z
4 1/2-x,1/2+y,1/2-z
5 -x,-y,-z
6 x,-y,1/2+z
7 1/2-x,1/2-y,-z
8 1/2+x,1/2-y,1/2+z
_cell_length_a                   29.578(6)
_cell_length_b                   9.6718(19)
_cell_length_c                   18.389(4)
_cell_angle_alpha                90
_cell_angle_beta                 111.71(3)
_cell_angle_gamma                90
_cell_volume                     4887.44
loop_
_atom_site_label
_atom_site_type_symbol
_atom_site_fract_x
_atom_site_fract_y
_atom_site_fract_z
Zn1 Zn 0.14082(2) 0.29349(7) 0.09115(4)
C1 C 0.0951(3) 0.2012(6) 0.2050(4)
H1 H 0.0982 0.1119 0.1872
N1 N 0.11050(18) 0.3085(5) 0.1746(3)
O1 O 0.13488(15) -0.5133(4) 0.0607(3)
C2 C 0.0751(2) 0.2152(6) 0.2605(4)
H2 H 0.0643 0.1364 0.2792
N2 N 0.21489(18) 0.2755(5) 0.1524(3)
O2 O 0.1693(2) -0.5809(5) -0.0219(3)
C3 C 0.0705(2) 0.3441(7) 0.2895(3)
O3 O 0.12989(16) 0.1398(4) 0.0193(3)
C4 C 0.0863(3) 0.4560(7) 0.2587(4)
H3 H 0.0839 0.5460 0.2761
O4 O 0.1027(2) -0.0147(5) 0.0831(3)
C5 C 0.1059(2) 0.4339(7) 0.2017(4)
H4 H 0.1165 0.5110 0.1812
C6 C 0.0482(2) 0.3560(7) 0.3494(4)
H5 H 0.0378 0.2738 0.3656
C7 C 0.0418(2) 0.4730(8) 0.3821(4)
H6 H 0.0519 0.5550 0.3654
C8 C 0.0203(2) 0.4861(8) 0.4418(4)
C9 C 0.0024(2) 0.3692(8) 0.4700(4)
H7 H 0.0046 0.2807 0.4504
C10 C 0.0182(2) 0.6149(8) 0.4737(4)
H8 H 0.0309 0.6925 0.4570
C11 C 0.2425(2) 0.2230(7) 0.1158(4)
H9 H 0.2270 0.1775 0.0678
C12 C 0.2929(2) 0.2319(7) 0.1447(4)
H10 H 0.3105 0.1935 0.1164
C13 C 0.3169(2) 0.2972(6) 0.2150(4)
C14 C 0.2879(2) 0.3455(7) 0.2558(4)
H11 H 0.3025 0.3854 0.3056
C15 C 0.2383(2) 0.3338(7) 0.2220(4)
H12 H 0.2196 0.3690 0.2495
C16 C 0.3694(2) 0.3209(6) 0.2453(4)
H13 H 0.3852 0.3350 0.2994
C17 C 0.3957(2) 0.3237(6) 0.2022(4)
H14 H 0.3790 0.3111 0.1481
C18 C 0.4493(2) 0.3446(6) 0.2283(4)
C19 C 0.4705(2) 0.3508(7) 0.1725(4)
H15 H 0.4503 0.3551 0.1192
C20 C 0.4796(2) 0.3508(7) 0.3070(4)
H16 H 0.4662 0.3549 0.3459
C21 C 0.1588(2) -0.3385(6) -0.0090(3)
C22 C 0.1383(2) -0.2348(6) 0.0202(3)
H17 H 0.1201 -0.2572 0.0510
C23 C 0.1445(2) -0.0974(6) 0.0043(3)
C24 C 0.1709(2) -0.0661(6) -0.0428(3)
H18 H 0.1752 0.0269 -0.0537
C25 C 0.1910(2) -0.1692(6) -0.0738(4)
C26 C 0.1845(2) -0.3034(6) -0.0570(3)
H19 H 0.1977 -0.3743 -0.0781
C27 C 0.1543(2) -0.4888(6) 0.0093(4)
C28 C 0.1235(2) 0.0172(6) 0.0385(4)
C29 C 0.2189(3) -0.1318(8) -0.1252(4)
H20 H 0.2412 -0.2062 -0.1242
H21 H 0.2372 -0.0476 -0.1059
H22 H 0.1963 -0.1177 -0.1785
Zn1D Zn -0.14082(2) 0.70651(7) 0.90885(4)
Zn1_2 Zn 0.14082(2) -0.70651(7) 0.09115(4)
Zn1A Zn 0.85918(2) 0.29349(7) 0.40885(4)
Zn1_3 Zn 0.14082(2) 1.29349(7) 0.09115(4)
C1D C -0.0951(3) 0.7988(6) 0.7950(4)
H1D H -0.0982 0.8881 0.8128
N1D N -0.11050(18) 0.6915(5) 0.8254(3)
N1_2 N 0.11050(18) 1.3085(5) 0.1746(3)
O1_2 O 0.13488(15) 0.4867(4) 0.0607(3)
O1_3 O 0.13488(15) 1.4867(4) 0.0607(3)
C2D C -0.0751(2) 0.7848(6) 0.7395(4)
H2D H -0.0643 0.8636 0.7208
N2A N 0.78511(18) 0.2755(5) 0.3476(3)
N2_2 N 0.21489(18) 1.2755(5) 0.1524(3)
O2_2 O 0.1693(2) 0.4191(5) -0.0219(3)
C3D C -0.0705(2) 0.6559(7) 0.7105(3)
O3_2 O 0.12989(16) 1.1398(4) 0.0193(3)
C4D C -0.0863(3) 0.5440(7) 0.7413(4)
H3D H -0.0839 0.4540 0.7239
O4_2 O 0.1027(2) 0.9853(5) 0.0831(3)
C5D C -0.1059(2) 0.5661(7) 0.7983(4)
H4D H -0.1165 0.4890 0.8188
C6D C -0.0482(2) 0.6440(7) 0.6506(4)
H5D H -0.0378 0.7262 0.6344
C7D C -0.0418(2) 0.5270(8) 0.6179(4)
H6D H -0.0519 0.4450 0.6346
C8D C -0.0203(2) 0.5139(8) 0.5582(4)
C9D C -0.0024(2) 0.6308(8) 0.5300(4)
H7D H -0.0046 0.7193 0.5496
C10D C -0.0182(2) 0.3851(8) 0.5263(4)
H8D H -0.0309 0.3075 0.5430
C11A C 0.7575(2) 0.2230(7) 0.3842(4)
H9A H 0.7730 0.1775 0.4322
C12A C 0.7071(2) 0.2319(7) 0.3553(4)
H10A H 0.6895 0.1935 0.3836
C13A C 0.6831(2) 0.2972(6) 0.2850(4)
C14A C 0.7121(2) 0.3455(7) 0.2442(4)
H11A H 0.6975 0.3854 0.1944
C15A C 0.7617(2) 0.3338(7) 0.2780(4)
H12A H 0.7804 0.3690 0.2505
C16A C 0.6306(2) 0.3209(6) 0.2547(4)
H13A H 0.6148 0.3350 0.2006
C17A C 0.6043(2) 0.3237(6) 0.2978(4)
H14A H 0.6210 0.3111 0.3519
C18A C 0.5507(2) 0.3446(6) 0.2717(4)
C19A C 0.5295(2) 0.3508(7) 0.3275(4)
H15A H 0.5497 0.3551 0.3808
C20A C 0.5204(2) 0.3508(7) 0.1930(4)
H16A H 0.5338 0.3549 0.1541
C21_2 C 0.1588(2) 0.6615(6) -0.0090(3)
C22_2 C 0.1383(2) 0.7652(6) 0.0202(3)
H17_2 H 0.1201 0.7428 0.0510
C23_2 C 0.1445(2) 0.9026(6) 0.0043(3)
C24_2 C 0.1709(2) 0.9339(6) -0.0428(3)
H18_2 H 0.1752 1.0269 -0.0537
C25_2 C 0.1910(2) 0.8308(6) -0.0738(4)
C26_2 C 0.1845(2) 0.6966(6) -0.0570(3)
H19_2 H 0.1977 0.6257 -0.0781
C27_2 C 0.1543(2) 0.5112(6) 0.0093(4)
C28_2 C 0.1235(2) 1.0172(6) 0.0385(4)
C29_2 C 0.2189(3) 0.8682(8) -0.1252(4)
H20_2 H 0.2412 0.7938 -0.1242
H21_2 H 0.2372 0.9524 -0.1059
H22_2 H 0.1963 0.8823 -0.1785
loop_
_geom_bond_atom_site_label_1
_geom_bond_atom_site_label_2
_geom_bond_site_symmetry_1
_geom_bond_site_symmetry_2
Zn1 N1 1_555 1_555
C1 H1 1_555 1_555
N1 C1 1_555 1_555
O1 C27 1_555 1_555
C2 C1 1_555 1_555
H2 C2 1_555 1_555
N2 Zn1 1_555 1_555
O2 C27 1_555 1_555
C3 C2 1_555 1_555
O3 Zn1 1_555 1_555
C4 C3 1_555 1_555
H3 C4 1_555 1_555
O4 C28 1_555 1_555
C5 N1 1_555 1_555
H4 C5 1_555 1_555
C6 C3 1_555 1_555
H5 C6 1_555 1_555
C7 C6 1_555 1_555
H6 C7 1_555 1_555
C8 C7 1_555 1_555
C9 C8 1_555 1_555
H7 C9 1_555 1_555
C10 C8 1_555 1_555
H8 C10 1_555 1_555
C11 N2 1_555 1_555
H9 C11 1_555 1_555
C12 C11 1_555 1_555
H10 C12 1_555 1_555
C13 C12 1_555 1_555
C14 C13 1_555 1_555
H11 C14 1_555 1_555
C15 N2 1_555 1_555
H12 C15 1_555 1_555
C16 C13 1_555 1_555
H13 C16 1_555 1_555
C17 C16 1_555 1_555
H14 C17 1_555 1_555
C18 C17 1_555 1_555
C19 C18 1_555 1_555
H15 C19 1_555 1_555
C20 C18 1_555 1_555
H16 C20 1_555 1_555
C21 C22 1_555 1_555
C22 H17 1_555 1_555
C23 C22 1_555 1_555
C24 C23 1_555 1_555
H18 C24 1_555 1_555
C25 C24 1_555 1_555
C26 C21 1_555 1_555
H19 C26 1_555 1_555
C27 C21 1_555 1_555
C28 O3 1_555 1_555
C29 C25 1_555 1_555
H20 C29 1_555 1_555
H21 C29 1_555 1_555
H22 C29 1_555 1_555
Zn1D N1D 1_555 1_555
Zn1_2 O1 1_555 1_555
Zn1A N2A 1_555 1_555
Zn1_3 N1_2 1_555 1_555
C1D H1D 1_555 1_555
N1D C1D 1_555 1_555
O1_2 Zn1 1_555 1_555
O1_3 Zn1_3 1_555 1_555
C2D C1D 1_555 1_555
H2D C2D 1_555 1_555
N2A C11A 1_555 1_555
N2_2 Zn1_3 1_555 1_555
O2_2 C27_2 1_555 1_555
C3D C2D 1_555 1_555
O3_2 Zn1_3 1_555 1_555
C4D C3D 1_555 1_555
H3D C4D 1_555 1_555
O4_2 C28_2 1_555 1_555
C5D N1D 1_555 1_555
H4D C5D 1_555 1_555
C6D C3D 1_555 1_555
H5D C6D 1_555 1_555
C7D C6D 1_555 1_555
H6D C7D 1_555 1_555
C8D C7D 1_555 1_555
C9D C10 1_555 1_555
H7D C9D 1_555 1_555
C10D C9 1_555 1_555
H8D C10D 1_555 1_555
C11A H9A 1_555 1_555
C12A C11A 1_555 1_555
H10A C12A 1_555 1_555
C13A C12A 1_555 1_555
C14A C13A 1_555 1_555
H11A C14A 1_555 1_555
C15A N2A 1_555 1_555
H12A C15A 1_555 1_555
C16A C13A 1_555 1_555
H13A C16A 1_555 1_555
C17A C16A 1_555 1_555
H14A C17A 1_555 1_555
C18A C17A 1_555 1_555
C19A C20 1_555 1_555
H15A C19A 1_555 1_555
C20A C19 1_555 1_555
H16A C20A 1_555 1_555
C21_2 C22_2 1_555 1_555
C22_2 H17_2 1_555 1_555
C23_2 C22_2 1_555 1_555
C24_2 C23_2 1_555 1_555
H18_2 C24_2 1_555 1_555
C25_2 C24_2 1_555 1_555
C26_2 C21_2 1_555 1_555
H19_2 C26_2 1_555 1_555
C27_2 O1_2 1_555 1_555
C28_2 O3_2 1_555 1_555
C29_2 C25_2 1_555 1_555
H20_2 C29_2 1_555 1_555
H21_2 C29_2 1_555 1_555
H22_2 C29_2 1_555 1_555
C4 C5 1_555 1_555
C14 C15 1_555 1_555
C23 C28 1_555 1_555
C25 C26 1_555 1_555
C4D C5D 1_555 1_555
C8D C9D 1_555 1_555
C8D C10D 1_555 1_555
C14A C15A 1_555 1_555
C18A C19A 1_555 1_555
C18A C20A 1_555 1_555
C21_2 C27_2 1_555 1_555
C23_2 C28_2 1_555 1_555
C25_2 C26_2 1_555 1_555

#END
