
#######################################################################
#
#                 Cambridge Crystallographic Data Centre
#                                CCDC 
#
#######################################################################
#
# If this CIF has been generated from an entry in the Cambridge 
# Structural Database, then it will include bibliographic, chemical, 
# crystal, experimental, refinement or atomic coordinate data resulting 
# from the CCDC's data processing and validation procedures.
#
#######################################################################

data_VAJSUW
_symmetry_cell_setting           orthorhombic
_symmetry_space_group_name_H-M   'P 21 21 21'
_symmetry_Int_Tables_number      19
_space_group_name_Hall           'P 2ac 2ab'
loop_
_symmetry_equiv_pos_site_id
_symmetry_equiv_pos_as_xyz
1 x,y,z
2 1/2-x,-y,1/2+z
3 1/2+x,1/2-y,-z
4 -x,1/2+y,1/2-z
_cell_length_a                   4.8532(6)
_cell_length_b                   13.9380(18)
_cell_length_c                   21.639(3)
_cell_angle_alpha                90
_cell_angle_beta                 90
_cell_angle_gamma                90
_cell_volume                     1463.75
loop_
_atom_site_label
_atom_site_type_symbol
_atom_site_fract_x
_atom_site_fract_y
_atom_site_fract_z
Zn1 Zn 0.76520(9) -0.20293(3) 0.132755(19)
O1 O 0.5029(5) -0.09550(16) 0.12699(11)
O2 O 0.5917(6) -0.03991(19) 0.22212(12)
O3 O 0.5573(5) 0.69862(18) 0.04696(11)
O4 O 0.5652(6) 0.67758(18) 0.14744(11)
O5 O 0.9704(6) -0.17966(19) 0.21090(11)
O6 O 1.0558(5) -0.17675(19) 0.07423(11)
H1 H 1.0298 -0.2080 0.0427
H2 H 1.2225 -0.1581 0.0767
C1 C -0.0685(8) 0.1255(3) 0.09941(17)
H3 H -0.1568 0.1356 0.0618
C2 C 0.0107(9) 0.4518(3) 0.13846(18)
H4 H -0.0482 0.4190 0.1735
S1 S -0.3947(2) 0.27139(7) 0.14896(5)
S2 S -0.3357(2) 0.33638(7) 0.06580(5)
C3 C 0.4649(8) -0.0372(3) 0.17278(17)
C4 C 0.2510(9) 0.0396(2) 0.16241(15)
C5 C 0.1741(8) 0.0988(3) 0.21103(16)
H5 H 0.2572 0.0893 0.2493
N1 N -0.0143(6) 0.1692(2) 0.20578(13)
C6 C -0.1334(7) 0.1805(2) 0.15052(16)
C7 C 0.1287(9) 0.0559(3) 0.10540(17)
H6 H 0.1806 0.0195 0.0713
C8 C -0.0889(8) 0.4288(2) 0.08166(17)
N2 N -0.0214(8) 0.4742(2) 0.02972(14)
C9 C 0.1603(9) 0.5451(3) 0.03506(17)
H7 H 0.2103 0.5778 -0.0007
C10 C 0.2810(8) 0.5736(2) 0.09034(15)
C11 C 0.2011(10) 0.5247(3) 0.14281(17)
H8 H 0.2756 0.5409 0.1810
C12 C 0.4821(8) 0.6544(2) 0.09387(18)
H9 H 0.861(7) -0.1404(19) 0.2255(16)
H10 H 0.989(8) -0.2246(17) 0.2357(13)
Zn1_2 Zn 0.76520(9) 0.79707(3) 0.132755(19)
O3_2 O 0.5573(5) -0.30138(18) 0.04696(11)
O4_2 O 0.5652(6) -0.32242(18) 0.14744(11)
loop_
_geom_bond_atom_site_label_1
_geom_bond_atom_site_label_2
_geom_bond_site_symmetry_1
_geom_bond_site_symmetry_2
Zn1 O1 1_555 1_555
O1 C3 1_555 1_555
O2 C3 1_555 1_555
O3 C12 1_555 1_555
O4 C12 1_555 1_555
O5 Zn1 1_555 1_555
O6 Zn1 1_555 1_555
H1 O6 1_555 1_555
H2 O6 1_555 1_555
C1 H3 1_555 1_555
C2 H4 1_555 1_555
S1 S2 1_555 1_555
S2 C8 1_555 1_555
C3 C4 1_555 1_555
C4 C5 1_555 1_555
C5 H5 1_555 1_555
N1 C5 1_555 1_555
C6 C1 1_555 1_555
C7 C1 1_555 1_555
H6 C7 1_555 1_555
C8 C2 1_555 1_555
N2 C8 1_555 1_555
C9 N2 1_555 1_555
H7 C9 1_555 1_555
C10 C9 1_555 1_555
C11 C2 1_555 1_555
H8 C11 1_555 1_555
C12 C10 1_555 1_555
H9 O5 1_555 1_555
H10 O5 1_555 1_555
Zn1_2 O3 1_555 1_555
O3_2 Zn1 1_555 1_555
O4_2 Zn1 1_555 1_555
O4 Zn1_2 1_555 1_555
S1 C6 1_555 1_555
C4 C7 1_555 1_555
N1 C6 1_555 1_555
C10 C11 1_555 1_555

#END
