
#######################################################################
#
#                 Cambridge Crystallographic Data Centre
#                                CCDC 
#
#######################################################################
#
# If this CIF has been generated from an entry in the Cambridge 
# Structural Database, then it will include bibliographic, chemical, 
# crystal, experimental, refinement or atomic coordinate data resulting 
# from the CCDC's data processing and validation procedures.
#
#######################################################################

data_VAJWIN
_symmetry_cell_setting           triclinic
_symmetry_space_group_name_H-M   'P -1'
_symmetry_Int_Tables_number      2
_space_group_name_Hall           '-P 1'
loop_
_symmetry_equiv_pos_site_id
_symmetry_equiv_pos_as_xyz
1 x,y,z
2 -x,-y,-z
_cell_length_a                   8.6572(6)
_cell_length_b                   13.4414(11)
_cell_length_c                   16.9526(14)
_cell_angle_alpha                85.050(10)
_cell_angle_beta                 82.396(9)
_cell_angle_gamma                86.480(9)
_cell_volume                     1945.55
loop_
_atom_site_label
_atom_site_type_symbol
_atom_site_fract_x
_atom_site_fract_y
_atom_site_fract_z
Cu1 Cu 1.05264(14) 0.20806(8) 0.54522(6)
Ni1 Ni 1.21091(14) 0.28249(8) 0.23237(7)
Ni2 Ni 0.70275(14) 0.08256(8) 0.81327(7)
O1 O 1.2700(11) 0.2933(6) 0.5869(6)
O2 O 1.2524(7) 0.1716(4) 0.3231(3)
O3 O 1.0864(7) 0.3505(4) 0.3311(3)
O4 O 0.8859(8) 0.2658(4) 0.6232(4)
O5 O 0.7301(8) 0.2105(5) 0.7325(4)
O6 O 0.9061(8) 0.0371(4) 0.7417(4)
O7 O 1.0332(8) 0.3210(5) 0.4638(3)
N1 N 1.4065(10) 0.3474(6) 0.2588(6)
H1 H 1.3745 0.3866 0.2982
H2 H 1.4725 0.2988 0.2726
N2 N 1.1537(10) 0.4014(6) 0.1513(5)
N3 N 1.0158(11) 0.2029(6) 0.2253(5)
H3 H 1.0452 0.1364 0.2329
H4 H 0.9448 0.2169 0.2700
N4 N 0.5856(10) 0.0170(5) 0.7330(5)
H5 H 0.5747 0.0642 0.6906
H6 H 0.6477 -0.0348 0.7133
N5 N 0.4941(10) 0.1480(5) 0.8706(5)
N6 N 0.8516(11) 0.1418(6) 0.8813(5)
H7 H 0.9323 0.0951 0.8877
H8 H 0.8929 0.1966 0.8528
N7 N 1.1782(10) 0.1445(6) 0.4594(5)
N8 N 1.0412(9) 0.0927(5) 0.6203(4)
N9 N 1.3468(10) 0.2064(6) 0.1411(5)
N10 N 1.3181(10) 0.1268(6) 0.1267(4)
N11 N 1.2909(10) 0.0476(6) 0.1086(5)
C1 C 1.4995(14) 0.4121(9) 0.1981(8)
H9 H 1.5542 0.3715 0.1567
H10 H 1.5778 0.4438 0.2229
C2 C 1.3944(14) 0.4918(8) 0.1607(8)
H11 H 1.4597 0.5422 0.1298
H12 H 1.3290 0.5249 0.2034
C3 C 1.2884(14) 0.4531(8) 0.1060(7)
H13 H 1.2496 0.5095 0.0721
H14 H 1.3494 0.4067 0.0710
C4 C 1.0530(13) 0.3746(7) 0.0915(6)
H15 H 1.0796 0.3874 0.0361
C5 C 0.9068(14) 0.3258(8) 0.1277(7)
H16 H 0.8087 0.3604 0.1329
C6 C 0.9295(13) 0.2149(7) 0.1555(6)
H17 H 0.8275 0.1858 0.1696
H18 H 0.9873 0.1791 0.1120
C7 C 0.4276(11) -0.0210(8) 0.7610(7)
H19 H 0.4365 -0.0766 0.8018
H20 H 0.3857 -0.0464 0.7161
C8 C 0.3173(13) 0.0597(8) 0.7951(6)
H21 H 0.3209 0.1187 0.7568
H22 H 0.2109 0.0364 0.8018
C9 C 0.3528(12) 0.0895(8) 0.8739(6)
H23 H 0.2627 0.1290 0.8980
H24 H 0.3652 0.0287 0.9093
C10 C 0.5046(14) 0.1812(8) 0.9507(6)
H25 H 0.4101 0.2223 0.9667
H26 H 0.5052 0.1219 0.9886
C11 C 0.6412(15) 0.2387(8) 0.9579(6)
H27 H 0.6200 0.2745 1.0065
H28 H 0.6560 0.2887 0.9123
C12 C 0.7941(14) 0.1730(9) 0.9611(6)
H29 H 0.8729 0.2109 0.9802
H30 H 0.7744 0.1139 0.9984
C13 C 1.2638(12) 0.0473(7) 0.4684(6)
H31 H 1.3655 0.0503 0.4354
H32 H 1.2057 -0.0040 0.4491
C14 C 1.2885(11) 0.0173(7) 0.5559(6)
H33 H 1.3577 -0.0431 0.5577
H34 H 1.3410 0.0708 0.5759
C15 C 1.1382(11) -0.0022(6) 0.6111(5)
H35 H 1.0795 -0.0509 0.5890
H36 H 1.1630 -0.0304 0.6635
C16 C 0.9407(11) 0.1005(6) 0.6823(5)
C17 C 0.8451(11) 0.2016(6) 0.6782(5)
C18 C 1.0933(10) 0.2970(6) 0.3957(5)
C19 C 1.1844(11) 0.1950(7) 0.3922(6)
Cl2 Cl 0.6486(4) 0.2704(2) 0.4285(2)
O12 O 0.6652(14) 0.3737(7) 0.4394(9)
O13 O 0.7137(13) 0.2438(8) 0.3515(6)
O14 O 0.7246(16) 0.2089(8) 0.4885(8)
O15 O 0.4854(11) 0.2540(9) 0.4374(6)
Na1 Na 0.8423(6) 0.4276(3) 0.5297(3)
O16 O 0.9394(10) 0.5296(5) 0.4121(5)
O17 O 0.6174(10) 0.5029(6) 0.5987(6)
N11A N 0.7091(10) -0.0476(6) 0.8914(5)
Ni2A Ni 1.29725(14) -0.08256(8) 0.18673(7)
O16A O 1.0606(10) 0.4704(5) 0.5879(5)
Na1A Na 1.1577(6) 0.5724(3) 0.4703(3)
Cl1 Cl 0.8709(3) 0.64034(19) 0.17873(16)
O8 O 0.9816(12) 0.6382(7) 0.1078(6)
O9 O 0.8907(12) 0.5494(6) 0.2267(5)
O10 O 0.7158(11) 0.6485(7) 0.1585(7)
O11 O 0.8956(11) 0.7239(6) 0.2211(6)
O18 O 0.5135(11) 0.6591(7) 0.3071(6)
loop_
_geom_bond_atom_site_label_1
_geom_bond_atom_site_label_2
_geom_bond_site_symmetry_1
_geom_bond_site_symmetry_2
Cu1 O1 1_555 1_555
Ni1 O2 1_555 1_555
Ni2 O5 1_555 1_555
O2 C19 1_555 1_555
O3 Ni1 1_555 1_555
O4 Cu1 1_555 1_555
O5 C17 1_555 1_555
O6 Ni2 1_555 1_555
O7 Cu1 1_555 1_555
N1 Ni1 1_555 1_555
H1 N1 1_555 1_555
H2 N1 1_555 1_555
N2 Ni1 1_555 1_555
N3 Ni1 1_555 1_555
H3 N3 1_555 1_555
H4 N3 1_555 1_555
N4 Ni2 1_555 1_555
H5 N4 1_555 1_555
H6 N4 1_555 1_555
N5 Ni2 1_555 1_555
N6 Ni2 1_555 1_555
H7 N6 1_555 1_555
H8 N6 1_555 1_555
N7 Cu1 1_555 1_555
N8 Cu1 1_555 1_555
N9 Ni1 1_555 1_555
N10 N9 1_555 1_555
N11 N10 1_555 1_555
C1 N1 1_555 1_555
H9 C1 1_555 1_555
H10 C1 1_555 1_555
C2 C1 1_555 1_555
H11 C2 1_555 1_555
H12 C2 1_555 1_555
C3 N2 1_555 1_555
H13 C3 1_555 1_555
H14 C3 1_555 1_555
C4 N2 1_555 1_555
H15 C4 1_555 1_555
C5 C4 1_555 1_555
H16 C5 1_555 1_555
C6 N3 1_555 1_555
H17 C6 1_555 1_555
H18 C6 1_555 1_555
C7 N4 1_555 1_555
H19 C7 1_555 1_555
H20 C7 1_555 1_555
C8 C7 1_555 1_555
H21 C8 1_555 1_555
H22 C8 1_555 1_555
C9 N5 1_555 1_555
H23 C9 1_555 1_555
H24 C9 1_555 1_555
C10 N5 1_555 1_555
H25 C10 1_555 1_555
H26 C10 1_555 1_555
C11 C10 1_555 1_555
H27 C11 1_555 1_555
H28 C11 1_555 1_555
C12 N6 1_555 1_555
H29 C12 1_555 1_555
H30 C12 1_555 1_555
C13 N7 1_555 1_555
H31 C13 1_555 1_555
H32 C13 1_555 1_555
C14 C13 1_555 1_555
H33 C14 1_555 1_555
H34 C14 1_555 1_555
C15 N8 1_555 1_555
H35 C15 1_555 1_555
H36 C15 1_555 1_555
C16 O6 1_555 1_555
C17 O4 1_555 1_555
C18 O3 1_555 1_555
C19 N7 1_555 1_555
Cl1 O8 1_555 1_555
O9 Cl1 1_555 1_555
O10 Cl1 1_555 1_555
O11 Cl1 1_555 1_555
Cl2 O12 1_555 1_555
O12 Na1 1_555 1_555
O13 Cl2 1_555 1_555
O14 Cl2 1_555 1_555
O15 Cl2 1_555 1_555
Na1 O4 1_555 1_555
O16 Na1 1_555 1_555
O17 Na1 1_555 1_555
N11A Ni2 1_555 1_555
Ni2A N11 1_555 1_555
O16A Na1 1_555 1_555
Na1A O16 1_555 1_555
O7 C18 1_555 1_555
O7 Na1 1_555 1_555
N8 C16 1_555 1_555
C2 C3 1_555 1_555
C5 C6 1_555 1_555
C8 C9 1_555 1_555
C11 C12 1_555 1_555
C14 C15 1_555 1_555
C16 C17 1_555 1_555
C18 C19 1_555 1_555
O16A Na1A 1_555 1_555

#END
