
#######################################################################
#
#                 Cambridge Crystallographic Data Centre
#                                CCDC 
#
#######################################################################
#
# If this CIF has been generated from an entry in the Cambridge 
# Structural Database, then it will include bibliographic, chemical, 
# crystal, experimental, refinement or atomic coordinate data resulting 
# from the CCDC's data processing and validation procedures.
#
#######################################################################

data_VAKCOA
_symmetry_cell_setting           orthorhombic
_symmetry_space_group_name_H-M   'P b c a'
_symmetry_Int_Tables_number      61
_space_group_name_Hall           '-P 2ac 2ab'
loop_
_symmetry_equiv_pos_site_id
_symmetry_equiv_pos_as_xyz
1 x,y,z
2 1/2+x,y,1/2-z
3 x,1/2-y,1/2+z
4 1/2-x,1/2+y,z
5 -x,-y,-z
6 1/2-x,-y,1/2+z
7 -x,1/2+y,1/2-z
8 1/2+x,1/2-y,-z
_cell_length_a                   24.7212(4)
_cell_length_b                   19.86320(10)
_cell_length_c                   27.2651(2)
_cell_angle_alpha                90
_cell_angle_beta                 90
_cell_angle_gamma                90
_cell_volume                     13388.3
loop_
_atom_site_label
_atom_site_type_symbol
_atom_site_fract_x
_atom_site_fract_y
_atom_site_fract_z
Mo1 Mo 0.12567(2) 0.03646(3) 0.15581(2)
Mo2 Mo 0.18603(3) -0.00068(3) 0.26521(2)
Mo3 Mo 0.32275(3) -0.01173(3) 0.24713(2)
Mo4 Mo 0.35159(2) 0.04223(3) 0.13117(2)
Mo5 Mo 0.21975(2) 0.03929(3) 0.06730(2)
Co1 Co 0.03930(4) -0.11705(5) 0.15421(3)
P1 P 0.24513(7) 0.11300(8) 0.18595(6)
P2 P 0.25995(7) 0.42645(8) 0.15772(6)
N1 N 0.0639(2) -0.1190(3) 0.0791(2)
N2 N -0.0335(2) -0.0882(3) 0.1170(2)
N3 N 0.0066(2) -0.1071(3) 0.2251(2)
N4 N 0.0078(2) -0.2157(3) 0.1656(2)
O1 O 0.20765(17) 0.0788(2) 0.14746(15)
O2 O 0.29995(18) 0.1264(2) 0.16258(17)
O3 O 0.25068(19) 0.0692(2) 0.23209(16)
O4 O 0.20977(18) 0.4665(2) 0.17409(16)
O5 O 0.31172(17) 0.4516(2) 0.18387(16)
O6 O 0.26507(18) 0.4312(2) 0.10226(16)
O7 O 0.07435(19) -0.0231(2) 0.16006(17)
O8 O 0.14987(18) 0.0121(2) 0.09204(16)
O9 O 0.09216(19) 0.1091(2) 0.14301(18)
O10 O 0.13958(18) 0.0526(2) 0.22404(16)
O11 O 0.2538(2) -0.0477(2) 0.26909(18)
O12 O 0.1443(2) -0.0659(3) 0.2801(2)
O13 O 0.1860(2) 0.0481(3) 0.3166(2)
O14 O 0.36801(18) 0.0353(2) 0.19955(17)
O15 O 0.3585(2) -0.0840(2) 0.25476(19)
O16 O 0.3407(2) 0.0366(3) 0.29715(19)
O17 O 0.29379(17) 0.0463(2) 0.08412(16)
O18 O 0.3825(2) -0.0289(3) 0.10770(18)
O19 O 0.3940(2) 0.1043(3) 0.11265(19)
O20 O 0.22164(19) -0.0043(2) 0.01278(16)
O21 O 0.2041(2) 0.1187(2) 0.04833(18)
O22 O 0.1133(2) -0.1569(3) 0.1779(2)
C1 C 0.2154(3) 0.1926(3) 0.2015(3)
H1 H 0.1835 0.1851 0.2215
H2 H 0.2410 0.2187 0.2206
C2 C 0.1994(3) 0.2326(3) 0.1553(3)
H3 H 0.2256 0.2229 0.1297
H4 H 0.1645 0.2164 0.1440
C3 C 0.1959(3) 0.3093(3) 0.1618(3)
H5 H 0.181(2) 0.327(3) 0.133(2)
H6 H 0.167(3) 0.319(3) 0.187(2)
C4 C 0.2509(3) 0.3402(3) 0.1753(3)
H7 H 0.2791 0.3136 0.1600
H8 H 0.2556 0.3368 0.2105
C5 C 0.1128(3) -0.1292(4) 0.0612(3)
H9 H 0.1406 -0.1397 0.0829
C6 C 0.1248(4) -0.1248(5) 0.0112(3)
H10 H 0.160(3) -0.132(4) 0.001(3)
C7 C 0.0850(4) -0.1102(4) -0.0208(3)
H11 H 0.091(3) -0.105(3) -0.050(3)
C8 C 0.0321(3) -0.0981(4) -0.0037(3)
C9 C -0.0120(4) -0.0787(5) -0.0343(3)
H12 H -0.005(3) -0.075(4) -0.061(3)
C10 C -0.0613(4) -0.0657(4) -0.0155(3)
H13 H -0.0893 -0.0536 -0.0366
C11 C -0.0718(3) -0.0702(4) 0.0361(3)
C12 C -0.1217(3) -0.0559(5) 0.0581(3)
H14 H -0.153(3) -0.048(3) 0.040(3)
C13 C -0.1262(4) -0.0566(5) 0.1079(4)
H15 H -0.156(4) -0.048(4) 0.120(3)
C14 C -0.0808(3) -0.0736(4) 0.1359(3)
H16 H -0.082(3) -0.073(4) 0.166(3)
C15 C -0.0285(3) -0.0871(3) 0.0668(2)
C16 C 0.0238(3) -0.1029(3) 0.0474(3)
C17 C 0.0057(4) -0.0538(4) 0.2543(3)
H17 H 0.024(3) -0.020(3) 0.241(2)
C18 C -0.0184(4) -0.0541(5) 0.3004(3)
H18 H -0.020(3) -0.012(4) 0.318(3)
C19 C -0.0406(4) -0.1112(6) 0.3177(3)
H19 H -0.053(3) -0.113(4) 0.350(3)
C20 C -0.0401(3) -0.1700(5) 0.2893(3)
C21 C -0.0626(4) -0.2344(6) 0.3035(4)
H20 H -0.079(4) -0.234(5) 0.336(4)
C22 C -0.0617(4) -0.2871(6) 0.2740(5)
H21 H -0.077(4) -0.322(5) 0.284(4)
C23 C -0.0388(3) -0.2840(4) 0.2263(4)
C24 C -0.0359(4) -0.3382(5) 0.1929(4)
H22 H -0.049(4) -0.381(5) 0.202(3)
C25 C -0.0107(4) -0.3312(5) 0.1491(4)
H23 H -0.0075 -0.3675 0.1277
C26 C 0.0102(4) -0.2692(4) 0.1370(3)
H24 H 0.024(3) -0.264(4) 0.103(3)
C27 C -0.0156(3) -0.2235(4) 0.2103(3)
C28 C -0.0162(3) -0.1653(4) 0.2428(3)
O5C O 0.18828(17) -0.0484(2) 0.18387(16)
O4C O 0.29023(18) -0.0335(2) 0.17409(16)
O6C O 0.23493(18) -0.0688(2) 0.10226(16)
Mo3C Mo 0.17725(3) 0.48827(3) 0.24713(2)
Mo4C Mo 0.14841(2) 0.54223(3) 0.13117(2)
Mo1C Mo 0.37433(2) 0.53646(3) 0.15581(2)
Mo2C Mo 0.31397(3) 0.49932(3) 0.26521(2)
Mo5C Mo 0.28025(2) 0.53929(3) 0.06730(2)
Co2 Co 0.31922(4) -0.15576(5) -0.02620(4)
N5 N 0.3884(2) -0.2034(3) 0.0061(2)
N6 N 0.3849(3) -0.0946(3) -0.0532(2)
N7 N 0.2593(2) -0.2262(3) -0.0015(2)
N8 N 0.3127(3) -0.2215(3) -0.0878(2)
O23 O 0.3174(2) -0.0996(3) 0.03970(18)
O24 O 0.2608(2) -0.0905(3) -0.0551(2)
C29 C 0.3891(4) -0.2549(4) 0.0365(3)
H25 H 0.351(3) -0.277(3) 0.038(2)
C30 C 0.4353(4) -0.2743(5) 0.0621(4)
H26 H 0.430(4) -0.309(5) 0.080(3)
C31 C 0.4818(5) -0.2395(5) 0.0554(4)
H27 H 0.510(3) -0.251(4) 0.064(3)
C32 C 0.4832(3) -0.1852(4) 0.0231(3)
C33 C 0.5313(4) -0.1463(6) 0.0129(4)
H28 H 0.560(4) -0.153(5) 0.030(4)
C34 C 0.5304(4) -0.0926(5) -0.0170(3)
H29 H 0.563(4) -0.073(5) -0.024(4)
C35 C 0.4816(3) -0.0731(4) -0.0410(3)
C36 C 0.4775(5) -0.0201(4) -0.0736(3)
H30 H 0.499(3) 0.008(4) -0.078(3)
C37 C 0.4294(5) -0.0040(4) -0.0951(3)
H31 H 0.429(3) 0.029(4) -0.114(3)
C38 C 0.3838(4) -0.0431(4) -0.0840(3)
H32 H 0.352(4) -0.033(5) -0.093(4)
C39 C 0.4335(3) -0.1099(4) -0.0323(3)
C40 C 0.4351(3) -0.1672(4) -0.0002(3)
C41 C 0.2327(3) -0.2284(4) 0.0406(3)
H33 H 0.245(3) -0.198(4) 0.061(3)
C42 C 0.1944(4) -0.2767(5) 0.0518(3)
H34 H 0.183(3) -0.273(3) 0.078(3)
C43 C 0.1818(3) -0.3249(4) 0.0184(3)
H35 H 0.161(4) -0.362(4) 0.025(3)
C44 C 0.2085(3) -0.3252(4) -0.0264(3)
C45 C 0.1998(4) -0.3736(5) -0.0642(4)
H36 H 0.176(3) -0.406(4) -0.056(3)
C46 C 0.2254(5) -0.3726(5) -0.1072(5)
H37 H 0.221(3) -0.406(4) -0.128(3)
C47 C 0.2643(4) -0.3207(4) -0.1175(3)
C48 C 0.2930(5) -0.3150(6) -0.1618(4)
H38 H 0.288(3) -0.336(4) -0.182(3)
C49 C 0.3298(4) -0.2653(5) -0.1683(3)
H39 H 0.3491 -0.2620 -0.1974
C50 C 0.3382(4) -0.2189(5) -0.1302(3)
H40 H 0.365(3) -0.183(4) -0.136(3)
C51 C 0.2756(3) -0.2722(4) -0.0810(3)
C52 C 0.2479(3) -0.2750(4) -0.0360(3)
O25 O 0.1108(10) -0.2193(9) -0.1210(7)
O26 O 0.2135(6) -0.1210(5) -0.1403(4)
O27 O 0.1288(3) -0.2837(3) 0.2123(3)
O28 O 0.1236(15) -0.1918(14) 0.3152(11)
O29 O 0.0613(4) -0.3839(5) 0.2547(4)
O30 O 0.0382(8) -0.3816(12) 0.3492(6)
loop_
_geom_bond_atom_site_label_1
_geom_bond_atom_site_label_2
_geom_bond_site_symmetry_1
_geom_bond_site_symmetry_2
Mo1 O1 1_555 1_555
Mo2 O3 1_555 1_555
Mo3 O3 1_555 1_555
Mo4 O2 1_555 1_555
Mo5 O1 1_555 1_555
Co1 N1 1_555 1_555
Co2 N5 1_555 1_555
P1 O1 1_555 1_555
P2 O4 1_555 1_555
N1 C5 1_555 1_555
N2 Co1 1_555 1_555
N3 Co1 1_555 1_555
N4 Co1 1_555 1_555
N5 C29 1_555 1_555
N6 Co2 1_555 1_555
N7 Co2 1_555 1_555
N8 Co2 1_555 1_555
O2 P1 1_555 1_555
O3 P1 1_555 1_555
O4 Mo3C 1_555 1_555
O5 P2 1_555 1_555
O6 P2 1_555 1_555
O7 Mo1 1_555 1_555
O8 Mo1 1_555 1_555
O9 Mo1 1_555 1_555
O10 Mo1 1_555 1_555
O11 Mo2 1_555 1_555
O12 Mo2 1_555 1_555
O13 Mo2 1_555 1_555
O14 Mo3 1_555 1_555
O15 Mo3 1_555 1_555
O16 Mo3 1_555 1_555
O17 Mo4 1_555 1_555
O18 Mo4 1_555 1_555
O19 Mo4 1_555 1_555
O20 Mo5 1_555 1_555
O21 Mo5 1_555 1_555
O22 Co1 1_555 1_555
O23 Co2 1_555 1_555
O24 Co2 1_555 1_555
C1 P1 1_555 1_555
H1 C1 1_555 1_555
H2 C1 1_555 1_555
C2 C1 1_555 1_555
H3 C2 1_555 1_555
H4 C2 1_555 1_555
C3 C2 1_555 1_555
H5 C3 1_555 1_555
H6 C3 1_555 1_555
C4 P2 1_555 1_555
H7 C4 1_555 1_555
H8 C4 1_555 1_555
C5 H9 1_555 1_555
C6 C5 1_555 1_555
H10 C6 1_555 1_555
C7 C6 1_555 1_555
H11 C7 1_555 1_555
C8 C7 1_555 1_555
C9 C8 1_555 1_555
H12 C9 1_555 1_555
C10 C9 1_555 1_555
H13 C10 1_555 1_555
C11 C10 1_555 1_555
C12 C11 1_555 1_555
H14 C12 1_555 1_555
C13 C12 1_555 1_555
H15 C13 1_555 1_555
C14 N2 1_555 1_555
H16 C14 1_555 1_555
C15 N2 1_555 1_555
C16 N1 1_555 1_555
C17 N3 1_555 1_555
H17 C17 1_555 1_555
C18 C17 1_555 1_555
H18 C18 1_555 1_555
C19 C18 1_555 1_555
H19 C19 1_555 1_555
C20 C19 1_555 1_555
C21 C20 1_555 1_555
H20 C21 1_555 1_555
C22 C21 1_555 1_555
H21 C22 1_555 1_555
C23 C22 1_555 1_555
C24 C23 1_555 1_555
H22 C24 1_555 1_555
C25 C24 1_555 1_555
H23 C25 1_555 1_555
C26 N4 1_555 1_555
H24 C26 1_555 1_555
C27 N4 1_555 1_555
C28 N3 1_555 1_555
C29 H25 1_555 1_555
C30 C29 1_555 1_555
H26 C30 1_555 1_555
C31 C30 1_555 1_555
H27 C31 1_555 1_555
C32 C31 1_555 1_555
C33 C32 1_555 1_555
H28 C33 1_555 1_555
C34 C33 1_555 1_555
H29 C34 1_555 1_555
C35 C34 1_555 1_555
C36 C35 1_555 1_555
H30 C36 1_555 1_555
C37 C36 1_555 1_555
H31 C37 1_555 1_555
C38 N6 1_555 1_555
H32 C38 1_555 1_555
C39 N6 1_555 1_555
C40 N5 1_555 1_555
C41 N7 1_555 1_555
H33 C41 1_555 1_555
C42 C41 1_555 1_555
H34 C42 1_555 1_555
C43 C42 1_555 1_555
H35 C43 1_555 1_555
C44 C43 1_555 1_555
C45 C44 1_555 1_555
H36 C45 1_555 1_555
C46 C45 1_555 1_555
H37 C46 1_555 1_555
C47 C46 1_555 1_555
C48 C47 1_555 1_555
H38 C48 1_555 1_555
C49 C48 1_555 1_555
H39 C49 1_555 1_555
C50 N8 1_555 1_555
H40 C50 1_555 1_555
C51 N8 1_555 1_555
C52 N7 1_555 1_555
O5C Mo1 1_555 1_555
O4C Mo3 1_555 1_555
O6C Mo5 1_555 1_555
Mo4C O4 1_555 1_555
Mo1C O5 1_555 1_555
Mo2C O5 1_555 1_555
Mo5C O6 1_555 1_555
Mo2 O10 1_555 1_555
Mo2 O5C 1_555 1_555
Mo3 O11 1_555 1_555
Mo4 O14 1_555 1_555
Mo4 O4C 1_555 1_555
Mo5 O8 1_555 1_555
Mo5 O17 1_555 1_555
Co1 O7 1_555 1_555
C3 C4 1_555 1_555
C8 C16 1_555 1_555
C11 C15 1_555 1_555
C13 C14 1_555 1_555
C15 C16 1_555 1_555
C20 C28 1_555 1_555
C23 C27 1_555 1_555
C25 C26 1_555 1_555
C27 C28 1_555 1_555
C32 C40 1_555 1_555
C35 C39 1_555 1_555
C37 C38 1_555 1_555
C39 C40 1_555 1_555
C44 C52 1_555 1_555
C47 C51 1_555 1_555
C49 C50 1_555 1_555
C51 C52 1_555 1_555

#END
