
#######################################################################
#
#                 Cambridge Crystallographic Data Centre
#                                CCDC 
#
#######################################################################
#
# If this CIF has been generated from an entry in the Cambridge 
# Structural Database, then it will include bibliographic, chemical, 
# crystal, experimental, refinement or atomic coordinate data resulting 
# from the CCDC's data processing and validation procedures.
#
#######################################################################

data_VAKSIL
_symmetry_cell_setting           monoclinic
_symmetry_space_group_name_H-M   'P 21/c'
_symmetry_Int_Tables_number      14
_space_group_name_Hall           '-P 2ybc'
loop_
_symmetry_equiv_pos_site_id
_symmetry_equiv_pos_as_xyz
1 x,y,z
2 -x,1/2+y,1/2-z
3 -x,-y,-z
4 x,1/2-y,1/2+z
_cell_length_a                   7.3292(6)
_cell_length_b                   20.3154(14)
_cell_length_c                   9.9169(8)
_cell_angle_alpha                90
_cell_angle_beta                 99.256(8)
_cell_angle_gamma                90
_cell_volume                     1457.36
loop_
_atom_site_label
_atom_site_type_symbol
_atom_site_fract_x
_atom_site_fract_y
_atom_site_fract_z
Co1 Co 0.04927(9) 0.60891(3) 0.36005(7)
N1 N -0.1265(5) 0.64370(17) 0.4970(4)
N2 N 0.0899(5) 0.71147(17) 0.3587(4)
O1 O 0.2285(4) 0.59229(14) 0.2272(3)
O2 O 0.2355(4) 0.57441(14) 0.5256(3)
H1 H 0.1917 0.5459 0.5745
H2 H 0.3146 0.5575 0.4820
O3 O 0.4494(4) 0.53170(16) 0.3501(3)
O4 O 0.8916(4) 0.51805(14) 0.3113(3)
O5 O 0.8089(4) 0.60779(15) 0.1934(3)
C1 C 0.4465(6) 0.5436(2) 0.1074(5)
H3 H 0.469(6) 0.594(2) 0.057(5)
C2 C 0.6345(5) 0.5097(2) 0.1277(5)
H4 H 0.6228 0.4675 0.1692
C3 C 0.3055(6) 0.5024(2) 0.0125(5)
H5 H 0.2893 0.4595 0.0564
H6 H 0.1847 0.5253 -0.0013
C4 C 0.3719(6) 0.5556(2) 0.2404(5)
C5 C 0.7845(6) 0.5480(2) 0.2163(5)
C6 C -0.2330(6) 0.6060(2) 0.5646(4)
H7 H -0.2297 0.5595 0.5540
C7 C -0.3471(6) 0.6325(2) 0.6491(5)
H8 H -0.4207 0.6047 0.6956
C8 C -0.3520(6) 0.6995(2) 0.6645(5)
H9 H -0.4277 0.7185 0.7234
C9 C -0.2466(6) 0.7394(2) 0.5943(5)
H10 H -0.2511 0.7859 0.6024
C10 C -0.1340(6) 0.7099(2) 0.5115(5)
C11 C -0.0122(6) 0.7483(2) 0.4337(5)
C12 C -0.0042(7) 0.8164(2) 0.4338(5)
H11 H -0.0678 0.8414 0.4926
C13 C 0.0982(7) 0.8476(2) 0.3467(5)
H12 H 0.0984 0.8942 0.3405
C14 C 0.2005(6) 0.8103(2) 0.2684(5)
H13 H 0.2728 0.8308 0.2090
C15 C 0.1946(6) 0.7419(2) 0.2794(5)
H14 H 0.2675 0.7160 0.2286
Co1B Co 0.95073(9) 0.39109(3) -0.36005(7)
Co1_2 Co 1.04927(9) 0.60891(3) 0.36005(7)
Co1B_2 Co -0.04927(9) 0.39109(3) -0.36005(7)
N1B N 1.1265(5) 0.35630(17) -0.4970(4)
N2B N 0.9101(5) 0.28853(17) -0.3587(4)
O1B O 0.7715(4) 0.40771(14) -0.2272(3)
O2B O 0.7645(4) 0.42559(14) -0.5256(3)
H1B H 0.8083 0.4541 -0.5745
H2B H 0.6854 0.4425 -0.4820
O3B O 0.5506(4) 0.46830(16) -0.3501(3)
O4B O 0.1084(4) 0.48195(14) -0.3113(3)
O4_2 O -0.1084(4) 0.51805(14) 0.3113(3)
O4B_2 O 1.1084(4) 0.48195(14) -0.3113(3)
O5B O 0.1911(4) 0.39221(15) -0.1934(3)
O5_2 O -0.1911(4) 0.60779(15) 0.1934(3)
O5B_2 O 1.1911(4) 0.39221(15) -0.1934(3)
C1B C 0.5535(6) 0.4564(2) -0.1074(5)
H3B H 0.531(6) 0.406(2) -0.057(5)
C2B C 0.3655(5) 0.4903(2) -0.1277(5)
H4B H 0.3772 0.5325 -0.1692
C3B C 0.6945(6) 0.4976(2) -0.0125(5)
H5B H 0.7107 0.5405 -0.0564
H6B H 0.8153 0.4747 0.0013
C4B C 0.6281(6) 0.4444(2) -0.2404(5)
C5B C 0.2155(6) 0.4520(2) -0.2163(5)
C6B C 1.2330(6) 0.3940(2) -0.5646(4)
H7B H 1.2297 0.4405 -0.5540
C7B C 1.3471(6) 0.3675(2) -0.6491(5)
H8B H 1.4207 0.3953 -0.6956
C8B C 1.3520(6) 0.3005(2) -0.6645(5)
H9B H 1.4277 0.2815 -0.7234
C9B C 1.2466(6) 0.2606(2) -0.5943(5)
H10B H 1.2511 0.2141 -0.6024
C10B C 1.1340(6) 0.2901(2) -0.5115(5)
C11B C 1.0122(6) 0.2517(2) -0.4337(5)
C12B C 1.0042(7) 0.1836(2) -0.4338(5)
H11B H 1.0678 0.1586 -0.4926
C13B C 0.9018(7) 0.1524(2) -0.3467(5)
H12B H 0.9016 0.1058 -0.3405
C14B C 0.7995(6) 0.1897(2) -0.2684(5)
H13B H 0.7272 0.1692 -0.2090
C15B C 0.8054(6) 0.2581(2) -0.2794(5)
H14B H 0.7325 0.2840 -0.2286
loop_
_geom_bond_atom_site_label_1
_geom_bond_atom_site_label_2
_geom_bond_site_symmetry_1
_geom_bond_site_symmetry_2
Co1 N1 1_555 1_555
N1 C6 1_555 1_555
N2 Co1 1_555 1_555
O1 Co1 1_555 1_555
O2 Co1 1_555 1_555
H1 O2 1_555 1_555
H2 O2 1_555 1_555
O3 C4 1_555 1_555
O4 C5 1_555 1_555
O5 C5 1_555 1_555
C1 H3 1_555 1_555
C2 C1 1_555 1_555
H4 C2 1_555 1_555
C3 C1 1_555 1_555
H5 C3 1_555 1_555
H6 C3 1_555 1_555
C4 O1 1_555 1_555
C5 C2 1_555 1_555
C6 H7 1_555 1_555
C7 C6 1_555 1_555
H8 C7 1_555 1_555
C8 C7 1_555 1_555
H9 C8 1_555 1_555
C9 C8 1_555 1_555
H10 C9 1_555 1_555
C10 N1 1_555 1_555
C11 N2 1_555 1_555
C12 C11 1_555 1_555
H11 C12 1_555 1_555
C13 C12 1_555 1_555
H12 C13 1_555 1_555
C14 C13 1_555 1_555
H13 C14 1_555 1_555
C15 N2 1_555 1_555
H14 C15 1_555 1_555
Co1B N1B 1_555 1_555
Co1_2 O4 1_555 1_555
Co1B_2 O4B 1_555 1_555
N1B C6B 1_555 1_555
N2B Co1B 1_555 1_555
O1B Co1B 1_555 1_555
O2B Co1B 1_555 1_555
H1B O2B 1_555 1_555
H2B O2B 1_555 1_555
O3B C4B 1_555 1_555
O4B C5B 1_555 1_555
O4_2 Co1 1_555 1_555
O4B_2 Co1B 1_555 1_555
O5B Co1B_2 1_555 1_555
O5_2 Co1 1_555 1_555
O5B_2 Co1B 1_555 1_555
C1B H3B 1_555 1_555
C2B C3 1_555 1_555
H4B C2B 1_555 1_555
C3B C2 1_555 1_555
H5B C3B 1_555 1_555
H6B C3B 1_555 1_555
C4B O1B 1_555 1_555
C5B O5B 1_555 1_555
C6B H7B 1_555 1_555
C7B C6B 1_555 1_555
H8B C7B 1_555 1_555
C8B C7B 1_555 1_555
H9B C8B 1_555 1_555
C9B C8B 1_555 1_555
H10B C9B 1_555 1_555
C10B N1B 1_555 1_555
C11B N2B 1_555 1_555
C12B C11B 1_555 1_555
H11B C12B 1_555 1_555
C13B C12B 1_555 1_555
H12B C13B 1_555 1_555
C14B C13B 1_555 1_555
H13B C14B 1_555 1_555
C15B N2B 1_555 1_555
H14B C15B 1_555 1_555
O5 Co1_2 1_555 1_555
C1 C4 1_555 1_555
C9 C10 1_555 1_555
C10 C11 1_555 1_555
C14 C15 1_555 1_555
C1B C2B 1_555 1_555
C1B C3B 1_555 1_555
C1B C4B 1_555 1_555
C2B C5B 1_555 1_555
C9B C10B 1_555 1_555
C10B C11B 1_555 1_555
C14B C15B 1_555 1_555

#END
