
#######################################################################
#
#                 Cambridge Crystallographic Data Centre
#                                CCDC 
#
#######################################################################
#
# If this CIF has been generated from an entry in the Cambridge 
# Structural Database, then it will include bibliographic, chemical, 
# crystal, experimental, refinement or atomic coordinate data resulting 
# from the CCDC's data processing and validation procedures.
#
#######################################################################

data_VALCAC01
_symmetry_cell_setting           orthorhombic
_symmetry_space_group_name_H-M   'P c c a'
_symmetry_Int_Tables_number      54
_space_group_name_Hall           '-P 2a 2ac'
loop_
_symmetry_equiv_pos_site_id
_symmetry_equiv_pos_as_xyz
1 x,y,z
2 1/2-x,-y,z
3 1/2+x,-y,1/2-z
4 -x,y,1/2-z
5 -x,-y,-z
6 1/2+x,y,-z
7 1/2-x,y,1/2+z
8 x,-y,1/2+z
_cell_length_a                   24.180(7)
_cell_length_b                   9.861(3)
_cell_length_c                   7.666(2)
_cell_angle_alpha                90
_cell_angle_beta                 90
_cell_angle_gamma                90
_cell_volume                     1827.87
loop_
_atom_site_label
_atom_site_type_symbol
_atom_site_fract_x
_atom_site_fract_y
_atom_site_fract_z
Ca1 Ca 0.0000 0.05669(6) 0.2500
O1 O -0.06399(6) 0.20507(16) 0.3887(2)
H1 H -0.0614(10) 0.189(3) 0.494(2)
H2 H -0.0983(8) 0.200(2) 0.372(3)
O2 O 0.04070(6) 0.11270(15) 0.51865(19)
O3 O 0.07837(6) 0.09749(16) 0.77985(19)
N1 N 0.17941(7) 0.14243(19) 0.6571(3)
H3 H 0.2119(8) 0.177(2) 0.619(3)
H4 H 0.1749(9) 0.155(2) 0.773(2)
H5 H 0.1822(9) 0.0514(18) 0.635(3)
C1 C 0.18163(10) 0.4261(3) 0.5208(4)
H6 H 0.1787 0.5242 0.5392
H7 H 0.1853 0.4073 0.3958
H8 H 0.2142 0.3914 0.5825
C2 C 0.07807(10) 0.4188(2) 0.5085(4)
H9 H 0.0780 0.4003 0.3829
H10 H 0.0781 0.5170 0.5280
H11 H 0.0450 0.3789 0.5618
C3 C 0.12973(9) 0.3566(2) 0.5908(3)
H12 H 0.1280 0.3724 0.7195
C4 C 0.13218(8) 0.2028(2) 0.5594(3)
H13 H 0.1370 0.1850 0.4319
C5 C 0.07999(8) 0.1332(2) 0.6229(3)
O1C O 0.06399(6) 0.20507(16) 0.1113(2)
H1C H 0.0614(10) 0.189(3) 0.006(2)
H2C H 0.0983(8) 0.200(2) 0.128(3)
O2C O -0.04070(6) 0.11270(15) -0.01865(19)
O3C O -0.07837(6) 0.09749(16) -0.27985(19)
N1C N -0.17941(7) 0.14243(19) -0.1571(3)
H3C H -0.2119(8) 0.177(2) -0.119(3)
H4C H -0.1749(9) 0.155(2) -0.273(2)
H5C H -0.1822(9) 0.0514(18) -0.135(3)
C1C C -0.18163(10) 0.4261(3) -0.0208(4)
H6C H -0.1787 0.5242 -0.0392
H7C H -0.1853 0.4073 0.1042
H8C H -0.2142 0.3914 -0.0825
C2C C -0.07807(10) 0.4188(2) -0.0085(4)
H9C H -0.0780 0.4003 0.1171
H10C H -0.0781 0.5170 -0.0280
H11C H -0.0450 0.3789 -0.0618
C3C C -0.12973(9) 0.3566(2) -0.0908(3)
H12C H -0.1280 0.3724 -0.2195
C4C C -0.13218(8) 0.2028(2) -0.0594(3)
H13C H -0.1370 0.1850 0.0681
C5C C -0.07999(8) 0.1332(2) -0.1229(3)
Ca1D Ca 0.0000 -0.05669(6) -0.2500
Ca1D_2 Ca 0.0000 -0.05669(6) 0.7500
O2D O -0.04070(6) -0.11270(15) 0.48135(19)
O2G O 0.04070(6) -0.11270(15) 0.01865(19)
O3D O -0.07837(6) -0.09749(16) 0.22015(19)
O3G O 0.07837(6) -0.09749(16) 0.27985(19)
Cl1 Cl 0.19245(2) 0.17369(5) 0.08218(8)
loop_
_geom_bond_atom_site_label_1
_geom_bond_atom_site_label_2
_geom_bond_site_symmetry_1
_geom_bond_site_symmetry_2
Ca1 O1 1_555 1_555
O1 H1 1_555 1_555
H2 O1 1_555 1_555
O2 Ca1 1_555 1_555
O3 C5 1_555 1_555
N1 H3 1_555 1_555
H4 N1 1_555 1_555
H5 N1 1_555 1_555
C1 H6 1_555 1_555
H7 C1 1_555 1_555
H8 C1 1_555 1_555
C2 H9 1_555 1_555
H10 C2 1_555 1_555
H11 C2 1_555 1_555
C3 C1 1_555 1_555
H12 C3 1_555 1_555
C4 N1 1_555 1_555
H13 C4 1_555 1_555
C5 O2 1_555 1_555
O1C Ca1 1_555 1_555
H1C O1C 1_555 1_555
H2C O1C 1_555 1_555
O2C Ca1 1_555 1_555
O3C C5C 1_555 1_555
N1C H3C 1_555 1_555
H4C N1C 1_555 1_555
H5C N1C 1_555 1_555
C1C H6C 1_555 1_555
H7C C1C 1_555 1_555
H8C C1C 1_555 1_555
C2C H9C 1_555 1_555
H10C C2C 1_555 1_555
H11C C2C 1_555 1_555
C3C C1C 1_555 1_555
H12C C3C 1_555 1_555
C4C N1C 1_555 1_555
H13C C4C 1_555 1_555
C5C O2C 1_555 1_555
Ca1D O2C 1_555 1_555
Ca1D_2 O2 1_555 1_555
O2D Ca1 1_555 1_555
O2G Ca1 1_555 1_555
O3D Ca1 1_555 1_555
O3G Ca1 1_555 1_555
O3 Ca1D_2 1_555 1_555
C2 C3 1_555 1_555
C3 C4 1_555 1_555
C4 C5 1_555 1_555
O3C Ca1D 1_555 1_555
C2C C3C 1_555 1_555
C3C C4C 1_555 1_555
C4C C5C 1_555 1_555
Ca1D O2G 1_555 1_555
Ca1D_2 O2D 1_555 1_555

#END
