
#######################################################################
#
#                 Cambridge Crystallographic Data Centre
#                                CCDC 
#
#######################################################################
#
# If this CIF has been generated from an entry in the Cambridge 
# Structural Database, then it will include bibliographic, chemical, 
# crystal, experimental, refinement or atomic coordinate data resulting 
# from the CCDC's data processing and validation procedures.
#
#######################################################################

data_VALFEU
_symmetry_cell_setting           triclinic
_symmetry_space_group_name_H-M   'P -1'
_symmetry_Int_Tables_number      2
_space_group_name_Hall           '-P 1'
loop_
_symmetry_equiv_pos_site_id
_symmetry_equiv_pos_as_xyz
1 x,y,z
2 -x,-y,-z
_cell_length_a                   5.5052(5)
_cell_length_b                   9.9187(9)
_cell_length_c                   12.1658(11)
_cell_angle_alpha                88.449(2)
_cell_angle_beta                 79.453(2)
_cell_angle_gamma                83.843(2)
_cell_volume                     649.297
loop_
_atom_site_label
_atom_site_type_symbol
_atom_site_fract_x
_atom_site_fract_y
_atom_site_fract_z
C1 C -0.1540(18) 0.4335(10) 0.0279(7)
N2 N -0.351(3) 0.3853(18) 0.0719(15)
N3 N 0.019(3) 0.4474(13) -0.0425(14)
C1A C 0.1540(18) 0.5665(10) -0.0279(7)
N2A N 0.351(3) 0.6147(18) -0.0719(15)
N3A N -0.019(3) 0.5526(13) 0.0425(14)
Cd1 Cd 0.5000 0.0000 0.0000
Cl1 Cl 0.0000 0.0000 0.0000
C2 C 1.2543(11) 0.1632(5) -0.7580(4)
C3 C 1.1545(13) 0.2981(6) -0.7651(5)
H1 H 1.2385 0.3572 -0.8152
H2 H 0.8707 0.4344 -0.7049
H3 H 0.2154 0.1876 -0.4118
H4 H 0.1585 0.1518 -0.2216
H5 H 0.7618 0.3395 -0.2104
H6 H 0.8184 0.3742 -0.4007
H7 H 0.8197 0.0694 -0.5636
H8 H 1.1863 -0.0105 -0.6749
C4 C 0.9334(14) 0.3440(6) -0.6987(5)
C5 C 0.8025(11) 0.2601(5) -0.6219(4)
C6 C 0.5524(12) 0.3117(6) -0.5525(5)
H9 H 0.4235 0.2715 -0.5810
H10 H 0.5256 0.4090 -0.5636
C7 C 0.5218(10) 0.2831(5) -0.4277(5)
C8 C 0.3267(11) 0.2179(6) -0.3718(5)
C9 C 0.2909(10) 0.1961(6) -0.2573(5)
C10 C 0.4549(10) 0.2414(5) -0.1958(5)
C11 C 0.6527(10) 0.3078(5) -0.2509(5)
C12 C 0.6864(11) 0.3287(5) -0.3652(5)
C13 C 0.9028(12) 0.1274(6) -0.6148(5)
C14 C 1.1250(12) 0.0786(6) -0.6813(5)
N4 N 0.4194(10) 0.2171(5) -0.0772(4)
N5 N 1.4836(9) 0.1142(5) -0.8283(4)
C2A C -0.2543(11) -0.1632(5) 0.7580(4)
C3A C -0.1545(13) -0.2981(6) 0.7651(5)
H1A H -0.2385 -0.3572 0.8152
H2A H 0.1293 -0.4344 0.7049
H3A H 0.7846 -0.1876 0.4118
H4A H 0.8415 -0.1518 0.2216
H5A H 0.2382 -0.3395 0.2104
H6A H 0.1816 -0.3742 0.4007
H7A H 0.1803 -0.0694 0.5636
H8A H -0.1863 0.0105 0.6749
C4A C 0.0666(14) -0.3440(6) 0.6987(5)
C5A C 0.1975(11) -0.2601(5) 0.6219(4)
C6A C 0.4476(12) -0.3117(6) 0.5525(5)
H9A H 0.5765 -0.2715 0.5810
H10A H 0.4744 -0.4090 0.5636
C7A C 0.4782(10) -0.2831(5) 0.4277(5)
C8A C 0.6733(11) -0.2179(6) 0.3718(5)
C9A C 0.7091(10) -0.1961(6) 0.2573(5)
C10A C 0.5451(10) -0.2414(5) 0.1958(5)
C11A C 0.3473(10) -0.3078(5) 0.2509(5)
C12A C 0.3136(11) -0.3287(5) 0.3652(5)
C13A C 0.0972(12) -0.1274(6) 0.6148(5)
C14A C -0.1250(12) -0.0786(6) 0.6813(5)
N4A N 0.5806(10) -0.2171(5) 0.0772(4)
N5A N -0.4836(9) -0.1142(5) 0.8283(4)
Cl1_2 Cl 1.0000 0.0000 0.0000
N5_2 N 0.4836(9) 0.1142(5) 0.1717(4)
N5A_2 N 0.5164(9) -0.1142(5) -0.1717(4)
Cd1_2 Cd -0.5000 0.0000 0.0000
Cd1_3 Cd 1.5000 0.0000 -1.0000
Cd1_4 Cd -0.5000 0.0000 1.0000
N1? N -0.228(3) 0.351(2) 0.0348(14)
loop_
_geom_bond_atom_site_label_1
_geom_bond_atom_site_label_2
_geom_bond_site_symmetry_1
_geom_bond_site_symmetry_2
Cd1 Cl1 1_555 1_555
Cl1 Cd1_2 1_555 1_555
C1 N2 1_555 1_555
C2 C3 1_555 1_555
C3 H1 1_555 1_555
H2 C4 1_555 1_555
H3 C8 1_555 1_555
H4 C9 1_555 1_555
H5 C11 1_555 1_555
H6 C12 1_555 1_555
H7 C13 1_555 1_555
H8 C14 1_555 1_555
C4 C3 1_555 1_555
C5 C4 1_555 1_555
C6 C5 1_555 1_555
H9 C6 1_555 1_555
H10 C6 1_555 1_555
C7 C6 1_555 1_555
C8 C7 1_555 1_555
C9 C8 1_555 1_555
C10 C9 1_555 1_555
C11 C10 1_555 1_555
C12 C7 1_555 1_555
C13 C5 1_555 1_555
C14 C2 1_555 1_555
N3 C1 1_555 1_555
N4 Cd1 1_555 1_555
N5 C2 1_555 1_555
C1A N3 1_555 1_555
N2A C1A 1_555 1_555
N3A C1 1_555 1_555
C2A C3A 1_555 1_555
C3A H1A 1_555 1_555
H2A C4A 1_555 1_555
H3A C8A 1_555 1_555
H4A C9A 1_555 1_555
H5A C11A 1_555 1_555
H6A C12A 1_555 1_555
H7A C13A 1_555 1_555
H8A C14A 1_555 1_555
C4A C3A 1_555 1_555
C5A C4A 1_555 1_555
C6A C5A 1_555 1_555
H9A C6A 1_555 1_555
H10A C6A 1_555 1_555
C7A C6A 1_555 1_555
C8A C7A 1_555 1_555
C9A C8A 1_555 1_555
C10A C9A 1_555 1_555
C11A C10A 1_555 1_555
C12A C7A 1_555 1_555
C13A C5A 1_555 1_555
C14A C2A 1_555 1_555
N4A Cd1 1_555 1_555
N5A C2A 1_555 1_555
Cl1_2 Cd1 1_555 1_555
N5_2 Cd1 1_555 1_555
N5A_2 Cd1 1_555 1_555
Cd1_3 N5 1_555 1_555
Cd1_4 N5A 1_555 1_555
C10 N4 1_555 1_555
C11 C12 1_555 1_555
C13 C14 1_555 1_555
N3 N3A 1_555 1_555
C1A N3A 1_555 1_555
C10A N4A 1_555 1_555
C11A C12A 1_555 1_555
C13A C14A 1_555 1_555

#END
