
#######################################################################
#
#                 Cambridge Crystallographic Data Centre
#                                CCDC 
#
#######################################################################
#
# If this CIF has been generated from an entry in the Cambridge 
# Structural Database, then it will include bibliographic, chemical, 
# crystal, experimental, refinement or atomic coordinate data resulting 
# from the CCDC's data processing and validation procedures.
#
#######################################################################

data_VALGAS
_symmetry_cell_setting           monoclinic
_symmetry_space_group_name_H-M   'P 21/n'
_symmetry_Int_Tables_number      14
_space_group_name_Hall           '-P 2yn'
loop_
_symmetry_equiv_pos_site_id
_symmetry_equiv_pos_as_xyz
1 x,y,z
2 1/2-x,1/2+y,1/2-z
3 -x,-y,-z
4 1/2+x,1/2-y,1/2+z
_cell_length_a                   10.998(8)
_cell_length_b                   13.227(10)
_cell_length_c                   14.682(11)
_cell_angle_alpha                90
_cell_angle_beta                 93.401(13)
_cell_angle_gamma                90
_cell_volume                     2132.04
loop_
_atom_site_label
_atom_site_type_symbol
_atom_site_fract_x
_atom_site_fract_y
_atom_site_fract_z
Zn1 Zn 0.32034(2) 0.553448(19) 0.158433(17)
N1 N 0.69130(19) 0.94400(14) -0.25011(14)
N2 N 0.78189(18) 0.04276(15) 0.55069(14)
O1 O 0.34290(15) 0.68811(12) 0.10655(12)
O2 O 0.14414(16) 0.68710(16) 0.06653(14)
O3 O 0.48995(15) 0.51447(13) 0.19228(12)
O4 O 0.39373(17) 0.38892(15) 0.25616(15)
C1 C 0.6506(2) 0.85487(18) -0.22152(17)
H1 H 0.6892 0.7950 -0.2408
C2 C 0.5554(2) 0.84607(18) -0.16559(16)
H2 H 0.5309 0.7811 -0.1461
C3 C 0.4947(2) 0.93172(17) -0.13730(15)
C4 C 0.5387(2) 1.02439(19) -0.16670(18)
H3 H 0.5017 1.0855 -0.1487
C5 C 0.6355(2) 1.02741(18) -0.22159(19)
H4 H 0.6642 1.0915 -0.2402
C6 C 0.3869(2) 0.9227(2) -0.08204(17)
C7 C 0.3691(2) 0.83655(17) -0.03009(15)
H5 H 0.4306 0.7860 -0.0262
C8 C 0.2643(2) 0.82241(19) 0.01615(16)
C9 C 0.1767(3) 0.8982(3) 0.0135(3)
H6 H 0.1046 0.8898 0.0453
C10 C 0.1942(4) 0.9852(3) -0.0350(3)
H7 H 0.1343 1.0370 -0.0362
C11 C 0.2985(3) 0.9984(3) -0.0823(3)
H8 H 0.3099 1.0592 -0.1151
C12 C 0.2462(2) 0.72582(19) 0.06629(15)
C13 C 0.6698(2) 0.0584(2) 0.5117(2)
H9 H 0.6029 0.0244 0.5361
C14 C 0.6476(2) 0.1211(2) 0.4384(2)
H10 H 0.5666 0.1305 0.4137
C15 C 0.7437(2) 0.17104(17) 0.40004(16)
C16 C 0.85959(19) 0.15398(17) 0.44012(16)
H11 H 0.9283 0.1860 0.4165
C17 C 0.8744(2) 0.09073(19) 0.51392(16)
H12 H 0.9543 0.0804 0.5403
C18 C 0.7254(2) 0.24227(17) 0.32292(16)
C19 C 0.6189(2) 0.29865(17) 0.31181(16)
H13 H 0.5544 0.2868 0.3508
C20 C 0.6058(2) 0.37233(17) 0.24413(16)
C21 C 0.6982(2) 0.3884(2) 0.18628(17)
H14 H 0.6907 0.4403 0.1416
C22 C 0.8023(2) 0.3287(2) 0.19328(19)
H15 H 0.8640 0.3375 0.1513
C23 C 0.8164(2) 0.2563(2) 0.26155(17)
H16 H 0.8881 0.2161 0.2666
C24 C 0.4874(2) 0.42866(18) 0.23235(17)
Zn1C Zn 0.82034(2) 0.946552(19) -0.341567(17)
Zn1C_2 Zn 0.82034(2) -0.053448(19) 0.658433(17)
N1C N 0.19130(19) 0.55600(14) 0.24989(14)
N2C N 0.28189(18) 0.45724(15) 0.05069(14)
loop_
_geom_bond_atom_site_label_1
_geom_bond_atom_site_label_2
_geom_bond_site_symmetry_1
_geom_bond_site_symmetry_2
Zn1 O1 1_555 1_555
N1 C1 1_555 1_555
N2 C13 1_555 1_555
O1 C12 1_555 1_555
O2 C12 1_555 1_555
O3 Zn1 1_555 1_555
O4 C24 1_555 1_555
C1 H1 1_555 1_555
C2 C1 1_555 1_555
H2 C2 1_555 1_555
C3 C2 1_555 1_555
C4 C3 1_555 1_555
H3 C4 1_555 1_555
C5 N1 1_555 1_555
H4 C5 1_555 1_555
C6 C3 1_555 1_555
C7 C6 1_555 1_555
H5 C7 1_555 1_555
C8 C7 1_555 1_555
C9 C8 1_555 1_555
H6 C9 1_555 1_555
C10 C9 1_555 1_555
H7 C10 1_555 1_555
C11 C6 1_555 1_555
H8 C11 1_555 1_555
C12 C8 1_555 1_555
C13 H9 1_555 1_555
C14 C13 1_555 1_555
H10 C14 1_555 1_555
C15 C14 1_555 1_555
C16 C15 1_555 1_555
H11 C16 1_555 1_555
C17 N2 1_555 1_555
H12 C17 1_555 1_555
C18 C15 1_555 1_555
C19 C18 1_555 1_555
H13 C19 1_555 1_555
C20 C19 1_555 1_555
C21 C20 1_555 1_555
H14 C21 1_555 1_555
C22 C21 1_555 1_555
H15 C22 1_555 1_555
C23 C18 1_555 1_555
H16 C23 1_555 1_555
C24 O3 1_555 1_555
Zn1C N1 1_555 1_555
Zn1C_2 N2 1_555 1_555
N1C Zn1 1_555 1_555
N2C Zn1 1_555 1_555
C4 C5 1_555 1_555
C10 C11 1_555 1_555
C16 C17 1_555 1_555
C20 C24 1_555 1_555
C22 C23 1_555 1_555

#END
