
#######################################################################
#
#                 Cambridge Crystallographic Data Centre
#                                CCDC 
#
#######################################################################
#
# If this CIF has been generated from an entry in the Cambridge 
# Structural Database, then it will include bibliographic, chemical, 
# crystal, experimental, refinement or atomic coordinate data resulting 
# from the CCDC's data processing and validation procedures.
#
#######################################################################

data_VALKAW
_symmetry_cell_setting           monoclinic
_symmetry_space_group_name_H-M   'P 21/c'
_symmetry_Int_Tables_number      14
_space_group_name_Hall           '-P 2ybc'
loop_
_symmetry_equiv_pos_site_id
_symmetry_equiv_pos_as_xyz
1 x,y,z
2 -x,1/2+y,1/2-z
3 -x,-y,-z
4 x,1/2-y,1/2+z
_cell_length_a                   7.454(1)
_cell_length_b                   19.134(1)
_cell_length_c                   20.243(1)
_cell_angle_alpha                90
_cell_angle_beta                 98.84(1)
_cell_angle_gamma                90
_cell_volume                     2852.86
loop_
_atom_site_label
_atom_site_type_symbol
_atom_site_fract_x
_atom_site_fract_y
_atom_site_fract_z
Pd1 Pd -0.39440(12) 0.67185(4) 0.27607(4)
S1 S -0.5753(4) 0.88945(15) 0.31616(16)
O1 O -0.2645(10) 0.6016(4) 0.2283(4)
N1 N -0.3858(12) 0.7461(4) 0.2093(5)
N2 N -0.4504(12) 0.8116(5) 0.2219(5)
N3 N -0.4876(13) 0.7528(5) 0.3206(5)
N4 N -0.5267(13) 0.7621(5) 0.3822(5)
O2 O -0.5063(12) 0.7103(5) 0.4171(4)
C1 C -0.2403(16) 0.6093(6) 0.1651(6)
C2 C -0.1753(15) 0.5503(6) 0.1351(7)
H1 H -0.1499 0.5095 0.1597
C3 C -0.1488(18) 0.5529(7) 0.0682(7)
H2 H -0.1067 0.5133 0.0487
C4 C -0.1823(16) 0.6108(7) 0.0317(6)
H3 H -0.1626 0.6112 -0.0126
C5 C -0.2469(15) 0.6710(7) 0.0595(6)
H4 H -0.2701 0.7114 0.0341
C6 C -0.2761(16) 0.6693(6) 0.1267(6)
C7 C -0.3421(15) 0.7363(6) 0.1510(6)
H5 H -0.3526 0.7741 0.1218
C8 C -0.4966(15) 0.8151(6) 0.2819(6)
C9 C -0.5710(17) 0.9485(6) 0.2473(6)
H6 H -0.6122 0.9937 0.2589
H7 H -0.6492 0.9311 0.2087
H8 H -0.4492 0.9521 0.2376
N5 N -0.4449(14) 0.5956(5) 0.3397(5)
O3 O -0.6036(11) 0.5735(4) 0.3361(4)
O4 O -0.3237(11) 0.5656(4) 0.3785(4)
Pd2 Pd -0.07310(12) 0.30113(5) 0.33960(4)
S2 S 0.0511(4) 0.31199(17) 0.12894(15)
O5 O -0.1723(11) 0.2551(4) 0.4149(4)
N6 N -0.1200(12) 0.2195(5) 0.2804(4)
N7 N -0.0733(12) 0.2251(6) 0.2145(5)
N8 N 0.0114(13) 0.3377(5) 0.2575(5)
N9 N 0.0810(13) 0.3977(5) 0.2407(6)
O6 O 0.1079(12) 0.4419(4) 0.2869(4)
C10 C -0.2293(15) 0.1892(6) 0.4139(6)
C11 C -0.2835(16) 0.1617(7) 0.4716(6)
H9 H -0.2820 0.1911 0.5083
C12 C -0.3387(16) 0.0940(7) 0.4772(6)
H10 H -0.3712 0.0782 0.5172
C13 C -0.3463(15) 0.0485(6) 0.4225(6)
H11 H -0.3849 0.0026 0.4260
C14 C -0.2967(15) 0.0719(7) 0.3640(6)
H12 H -0.3032 0.0421 0.3275
C15 C -0.2340(15) 0.1434(6) 0.3590(6)
C16 C -0.1852(15) 0.1630(6) 0.2943(6)
H13 H -0.2051 0.1299 0.2604
C17 C -0.0086(15) 0.2885(6) 0.2055(6)
C18 C 0.0191(19) 0.2294(6) 0.0828(6)
H14 H 0.0485 0.2358 0.0387
H15 H -0.1051 0.2147 0.0798
H16 H 0.0970 0.1943 0.1059
N10 N -0.0182(15) 0.3830(5) 0.4012(5)
O7 O -0.1220(13) 0.4329(4) 0.4015(5)
O8 O 0.1290(14) 0.3838(5) 0.4396(5)
K1 K 0.0134(4) 0.56242(14) 0.33963(15)
K2 K -0.5616(5) 0.44385(16) 0.40036(17)
O9 O 0.2325(14) 0.5399(6) 0.4631(5)
H17 H 0.230(13) 0.581(8) 0.490(6)
H18 H 0.13(2) 0.520(7) 0.498(2)
O10 O -0.3910(12) 0.3428(5) 0.4709(4)
H19 H -0.2951 0.3152 0.4615
H20 H -0.4231 0.3270 0.5040
O3_2 O 0.3964(11) 0.5735(4) 0.3361(4)
O6_2 O -0.8921(12) 0.4419(4) 0.2869(4)
O8_2 O -0.8710(14) 0.3838(5) 0.4396(5)
K1_2 K -0.9866(4) 0.56242(14) 0.33963(15)
K2_2 K 0.4384(5) 0.44385(16) 0.40036(17)
O9_2 O -0.7675(14) 0.5399(6) 0.4631(5)
H17_2 H -0.770(13) 0.581(8) 0.490(6)
H18_2 H -0.87(2) 0.520(7) 0.498(2)
loop_
_geom_bond_atom_site_label_1
_geom_bond_atom_site_label_2
_geom_bond_site_symmetry_1
_geom_bond_site_symmetry_2
Pd1 O1 1_555 1_555
S1 C8 1_555 1_555
O1 C1 1_555 1_555
N1 Pd1 1_555 1_555
N2 N1 1_555 1_555
N3 Pd1 1_555 1_555
N4 N3 1_555 1_555
O2 N4 1_555 1_555
C1 C2 1_555 1_555
C2 H1 1_555 1_555
C3 C2 1_555 1_555
H2 C3 1_555 1_555
C4 C3 1_555 1_555
H3 C4 1_555 1_555
C5 C4 1_555 1_555
H4 C5 1_555 1_555
C6 C1 1_555 1_555
C7 N1 1_555 1_555
H5 C7 1_555 1_555
C8 N2 1_555 1_555
C9 S1 1_555 1_555
H6 C9 1_555 1_555
H7 C9 1_555 1_555
H8 C9 1_555 1_555
N5 Pd1 1_555 1_555
O3 N5 1_555 1_555
O4 N5 1_555 1_555
Pd2 O5 1_555 1_555
S2 C17 1_555 1_555
O5 C10 1_555 1_555
N6 Pd2 1_555 1_555
N7 N6 1_555 1_555
N8 Pd2 1_555 1_555
N9 N8 1_555 1_555
O6 N9 1_555 1_555
C10 C11 1_555 1_555
C11 H9 1_555 1_555
C12 C11 1_555 1_555
H10 C12 1_555 1_555
C13 C12 1_555 1_555
H11 C13 1_555 1_555
C14 C13 1_555 1_555
H12 C14 1_555 1_555
C15 C10 1_555 1_555
C16 N6 1_555 1_555
H13 C16 1_555 1_555
C17 N7 1_555 1_555
C18 S2 1_555 1_555
H14 C18 1_555 1_555
H15 C18 1_555 1_555
H16 C18 1_555 1_555
N10 Pd2 1_555 1_555
O7 N10 1_555 1_555
O8 N10 1_555 1_555
K1 O1 1_555 1_555
K2 O3 1_555 1_555
O9 K1 1_555 1_555
H17 O9 1_555 1_555
H18 O9 1_555 1_555
O10 K2 1_555 1_555
H19 O10 1_555 1_555
H20 O10 1_555 1_555
O3_2 K1 1_555 1_555
O6_2 K2 1_555 1_555
O8_2 K2 1_555 1_555
K1_2 O3 1_555 1_555
K2_2 O6 1_555 1_555
O9_2 K2 1_555 1_555
H17_2 O9_2 1_555 1_555
H18_2 O9_2 1_555 1_555
N3 C8 1_555 1_555
C5 C6 1_555 1_555
C6 C7 1_555 1_555
O4 K1 1_555 1_555
O4 K2 1_555 1_555
N8 C17 1_555 1_555
O6 K1 1_555 1_555
C14 C15 1_555 1_555
C15 C16 1_555 1_555
O7 K1 1_555 1_555
O8 K2_2 1_555 1_555
O9 K2_2 1_555 1_555
O3_2 K2_2 1_555 1_555
O6_2 K1_2 1_555 1_555
K1_2 O9_2 1_555 1_555

#END
