
#######################################################################
#
#                 Cambridge Crystallographic Data Centre
#                                CCDC 
#
#######################################################################
#
# If this CIF has been generated from an entry in the Cambridge 
# Structural Database, then it will include bibliographic, chemical, 
# crystal, experimental, refinement or atomic coordinate data resulting 
# from the CCDC's data processing and validation procedures.
#
#######################################################################

data_VALWUC
_symmetry_cell_setting           triclinic
_symmetry_space_group_name_H-M   'P -1'
_symmetry_Int_Tables_number      2
_space_group_name_Hall           '-P 1'
loop_
_symmetry_equiv_pos_site_id
_symmetry_equiv_pos_as_xyz
1 x,y,z
2 -x,-y,-z
_cell_length_a                   6.5510(13)
_cell_length_b                   9.3984(19)
_cell_length_c                   10.252(2)
_cell_angle_alpha                102.81(3)
_cell_angle_beta                 106.56(3)
_cell_angle_gamma                91.38(3)
_cell_volume                     587.387
loop_
_atom_site_label
_atom_site_type_symbol
_atom_site_fract_x
_atom_site_fract_y
_atom_site_fract_z
Li1 Li 0.2977(4) 1.4723(3) 0.1562(3)
Li2 Li 0.2086(4) 1.4861(3) -0.1668(3)
Li3 Li 0.1582(5) 2.1136(4) -0.3710(3)
C1 C 0.2316(2) 1.82354(14) -0.04681(14)
C2 C 0.2237(2) 2.04288(14) -0.09963(14)
C3 C 0.1920(2) 1.83655(15) -0.26827(14)
C4 C 0.2497(2) 1.73391(15) 0.06322(14)
C5 C 0.2363(2) 2.20996(15) -0.05820(15)
C6 C 0.1616(2) 1.76826(16) -0.42296(15)
N1 N 0.24123(19) 1.96823(12) -0.00138(12)
N2 N 0.1970(2) 1.98221(13) -0.23385(12)
N3 N 0.21052(19) 1.75129(12) -0.17819(12)
O1 O 0.25621(17) 1.59881(10) 0.02293(10)
O2 O 0.25407(19) 1.80297(11) 0.18240(11)
O3 O 0.25101(19) 2.26787(11) 0.06625(11)
O4 O 0.23064(18) 2.27184(11) -0.15475(12)
O5 O 0.1008(2) 1.84998(13) -0.50379(11)
O6 O 0.2013(2) 1.63871(12) -0.45412(11)
O7 O 0.59338(18) 1.52230(12) 0.28296(11)
O8 O 0.10597(18) 1.55651(12) 0.26551(11)
O9 O 0.3920(2) 2.18517(14) -0.42644(13)
H1 H 0.604(4) 1.605(2) 0.338(3)
H2 H 0.654(4) 1.468(3) 0.338(3)
H3 H 0.127(4) 1.641(2) 0.253(3)
H4 H 0.131(4) 1.561(3) 0.3517(19)
H5 H 0.510(3) 2.171(3) -0.387(3)
H6 H 0.384(4) 2.167(3) -0.5124(19)
Li1_2 Li 0.2977(4) 2.4723(3) 0.1562(3)
Li2_2 Li 0.2086(4) 2.4861(3) -0.1668(3)
Li2A Li 0.7914(4) 1.5139(3) 0.1668(3)
Li2A_2 Li -0.2086(4) 1.5139(3) 0.1668(3)
Li3A Li -0.1582(5) 1.8864(4) -0.6290(3)
O3_2 O 0.25101(19) 1.26787(11) 0.06625(11)
O4_2 O 0.23064(18) 1.27184(11) -0.15475(12)
O5A O -0.1008(2) 2.15002(13) -0.49621(11)
O7A O 0.40662(18) 1.47770(12) -0.28296(11)
O8A O -0.10597(18) 1.44349(12) -0.26551(11)
H1A H 0.396(4) 1.395(2) -0.338(3)
H2A H 0.346(4) 1.532(3) -0.338(3)
H3A H -0.127(4) 1.359(2) -0.253(3)
H4A H -0.131(4) 1.439(3) -0.3517(19)
O10 O 0.3209(3) 1.11999(16) 0.29536(14)
H7 H 0.303(4) 1.033(2) 0.257(3)
H8 H 0.303(4) 1.167(3) 0.234(2)
loop_
_geom_bond_atom_site_label_1
_geom_bond_atom_site_label_2
_geom_bond_site_symmetry_1
_geom_bond_site_symmetry_2
Li1 O1 1_555 1_555
Li2 O1 1_555 1_555
Li3 N2 1_555 1_555
C1 C4 1_555 1_555
C2 C5 1_555 1_555
C3 C6 1_555 1_555
C4 O1 1_555 1_555
C5 O3 1_555 1_555
C6 O5 1_555 1_555
N1 C1 1_555 1_555
N2 C2 1_555 1_555
N3 C1 1_555 1_555
O2 C4 1_555 1_555
O3 Li1_2 1_555 1_555
O4 Li3 1_555 1_555
O5 Li3A 1_555 1_555
O6 C6 1_555 1_555
O7 Li1 1_555 1_555
O8 Li1 1_555 1_555
O9 Li3 1_555 1_555
H1 O7 1_555 1_555
H2 O7 1_555 1_555
H3 O8 1_555 1_555
H4 O8 1_555 1_555
H5 O9 1_555 1_555
H6 O9 1_555 1_555
O10 H7 1_555 1_555
H8 O10 1_555 1_555
Li2_2 O4 1_555 1_555
Li2A O7 1_555 1_555
Li2A_2 O8 1_555 1_555
O3_2 Li1 1_555 1_555
O4_2 Li2 1_555 1_555
O5A Li3 1_555 1_555
O7A Li2 1_555 1_555
O8A Li2 1_555 1_555
H1A O7A 1_555 1_555
H2A O7A 1_555 1_555
H3A O8A 1_555 1_555
H4A O8A 1_555 1_555
C2 N1 1_555 1_555
C3 N2 1_555 1_555
C3 N3 1_555 1_555
C5 O4 1_555 1_555

#END
