
#######################################################################
#
#                 Cambridge Crystallographic Data Centre
#                                CCDC 
#
#######################################################################
#
# If this CIF has been generated from an entry in the Cambridge 
# Structural Database, then it will include bibliographic, chemical, 
# crystal, experimental, refinement or atomic coordinate data resulting 
# from the CCDC's data processing and validation procedures.
#
#######################################################################

data_VALXIR
_symmetry_cell_setting           monoclinic
_symmetry_space_group_name_H-M   'P 21/n'
_symmetry_Int_Tables_number      14
_space_group_name_Hall           '-P 2yn'
loop_
_symmetry_equiv_pos_site_id
_symmetry_equiv_pos_as_xyz
1 x,y,z
2 1/2-x,1/2+y,1/2-z
3 -x,-y,-z
4 1/2+x,1/2-y,1/2+z
_cell_length_a                   12.260(3)
_cell_length_b                   7.8493(13)
_cell_length_c                   21.467(6)
_cell_angle_alpha                90
_cell_angle_beta                 103.94(2)
_cell_angle_gamma                90
_cell_volume                     2004.98
loop_
_atom_site_label
_atom_site_type_symbol
_atom_site_fract_x
_atom_site_fract_y
_atom_site_fract_z
Zn1 Zn 0.62008(4) 0.34712(6) 0.02736(2)
Zn2 Zn 0.70137(4) 0.98420(6) 0.18761(2)
C1 C 0.9201(4) 0.4229(6) -0.1347(2)
C2 C 0.7176(4) 0.3843(6) -0.1542(2)
C3 C 0.7940(4) 0.6561(6) -0.1796(2)
C4 C 0.8451(5) 0.1464(6) -0.1139(3)
H1 H 0.9075 0.1004 -0.1290
H2 H 0.7787 0.0805 -0.1334
C5 C 0.8697(4) 0.1253(7) -0.0412(3)
H3 H 0.8921 0.0085 -0.0302
H4 H 0.9321 0.1986 -0.0213
C6 C 0.7688(4) 0.1688(7) -0.0147(2)
C7 C 0.5915(4) 0.6231(6) -0.1928(2)
H5 H 0.5406 0.5425 -0.2193
H6 H 0.5911 0.7268 -0.2174
C8 C 0.5513(4) 0.6619(7) -0.1329(3)
H7 H 0.5342 0.5554 -0.1144
H8 H 0.6119 0.7164 -0.1019
C9 C 0.4501(3) 0.7739(5) -0.1442(2)
C10 C 0.9987(4) 0.6936(6) -0.1558(2)
H9 H 1.0560 0.6724 -0.1167
H10 H 0.9776 0.8128 -0.1565
C11 C 1.0448(4) 0.6533(6) -0.2139(2)
H11 H 1.0642 0.5333 -0.2127
H12 H 0.9858 0.6726 -0.2524
C12 C 1.1457(3) 0.7548(5) -0.21868(18)
C13 C 0.5479(4) 0.8330(6) 0.0736(2)
H13 H 0.4983 0.9231 0.0727
C14 C 0.6908(4) 0.6781(6) 0.0975(2)
H14 H 0.7622 0.6371 0.1165
N1 N 0.6182(3) 0.5962(5) 0.05269(18)
N2 N 0.5243(3) 0.6982(4) 0.03655(16)
N3 N 0.8268(3) 0.3250(5) -0.13526(19)
N4 N 0.6509(3) 0.8272(4) 0.11269(17)
N5 N 0.7057(3) 0.5514(5) -0.17607(18)
N6 N 0.9006(3) 0.5865(5) -0.15724(18)
O1 O 0.7621(3) 0.3221(5) 0.00374(18)
O2 O 0.6967(4) 0.0606(6) -0.0131(2)
O3 O 0.3840(3) 0.7697(4) -0.10782(14)
O4 O 0.4342(3) 0.8795(4) -0.18973(14)
O5 O 1.1558(2) 0.9035(4) -0.19429(15)
O6 O 1.2165(2) 0.6946(4) -0.24578(15)
O7 O 1.0154(3) 0.3678(5) -0.11588(19)
O8 O 0.6373(3) 0.2974(4) -0.15214(17)
O9 O 0.7802(3) 0.7996(5) -0.20146(19)
Zn1B Zn 0.37992(4) 0.65288(6) -0.02736(2)
Zn2B Zn 0.29863(4) 1.01580(6) -0.18761(2)
Zn2B_2 Zn 1.29863(4) 1.01580(6) -0.18761(2)
Zn2C Zn 1.20137(4) 0.51580(6) -0.31239(2)
N2B N 0.4757(3) 0.3018(4) -0.03655(16)
O3B O 0.6160(3) 0.2303(4) 0.10782(14)
O4B O 0.5658(3) 1.1205(4) 0.18973(14)
O5B O 0.8442(2) 1.0965(4) 0.19429(15)
O6C O 0.7165(2) 0.8054(4) 0.25422(15)
O10 O 0.8357(7) 0.6652(12) -0.0284(3)
H15 H 0.8906 0.7135 -0.0390
H16 H 0.8201 0.6905 0.0070
loop_
_geom_bond_atom_site_label_1
_geom_bond_atom_site_label_2
_geom_bond_site_symmetry_1
_geom_bond_site_symmetry_2
Zn1 N1 1_555 1_555
Zn2 N4 1_555 1_555
C1 N3 1_555 1_555
C2 N3 1_555 1_555
C3 N5 1_555 1_555
C4 H1 1_555 1_555
H2 C4 1_555 1_555
C5 C4 1_555 1_555
H3 C5 1_555 1_555
H4 C5 1_555 1_555
C6 C5 1_555 1_555
C7 H5 1_555 1_555
H6 C7 1_555 1_555
C8 C7 1_555 1_555
H7 C8 1_555 1_555
H8 C8 1_555 1_555
C9 C8 1_555 1_555
C10 H9 1_555 1_555
H10 C10 1_555 1_555
C11 C10 1_555 1_555
H11 C11 1_555 1_555
H12 C11 1_555 1_555
C12 C11 1_555 1_555
C13 H13 1_555 1_555
C14 H14 1_555 1_555
N1 C14 1_555 1_555
N2 C13 1_555 1_555
N3 C4 1_555 1_555
N4 C13 1_555 1_555
N5 C2 1_555 1_555
N6 C1 1_555 1_555
O1 Zn1 1_555 1_555
O2 C6 1_555 1_555
O3 C9 1_555 1_555
O4 C9 1_555 1_555
O5 C12 1_555 1_555
O6 C12 1_555 1_555
O7 C1 1_555 1_555
O8 C2 1_555 1_555
O9 C3 1_555 1_555
O10 H15 1_555 1_555
H16 O10 1_555 1_555
Zn1B N2 1_555 1_555
Zn2B O4 1_555 1_555
Zn2B_2 O5 1_555 1_555
Zn2C O6 1_555 1_555
N2B Zn1 1_555 1_555
O3B Zn1 1_555 1_555
O4B Zn2 1_555 1_555
O5B Zn2 1_555 1_555
O6C Zn2 1_555 1_555
C3 N6 1_555 1_555
C6 O1 1_555 1_555
C7 N5 1_555 1_555
C10 N6 1_555 1_555
C14 N4 1_555 1_555
N1 N2 1_555 1_555
O3 Zn1B 1_555 1_555

#END
