
#######################################################################
#
#                 Cambridge Crystallographic Data Centre
#                                CCDC 
#
#######################################################################
#
# If this CIF has been generated from an entry in the Cambridge 
# Structural Database, then it will include bibliographic, chemical, 
# crystal, experimental, refinement or atomic coordinate data resulting 
# from the CCDC's data processing and validation procedures.
#
#######################################################################

data_VAMBIW
_symmetry_cell_setting           monoclinic
_symmetry_space_group_name_H-M   'P 21'
_symmetry_Int_Tables_number      4
_space_group_name_Hall           'P 2yb'
loop_
_symmetry_equiv_pos_site_id
_symmetry_equiv_pos_as_xyz
1 x,y,z
2 -x,1/2+y,-z
_cell_length_a                   8.497(5)
_cell_length_b                   16.316(5)
_cell_length_c                   9.316(5)
_cell_angle_alpha                90
_cell_angle_beta                 104.955(5)
_cell_angle_gamma                90
_cell_volume                     1247.8
loop_
_atom_site_label
_atom_site_type_symbol
_atom_site_fract_x
_atom_site_fract_y
_atom_site_fract_z
Zn1 Zn 1.30513(6) 0.73940(3) 0.70097(7)
O1 O 1.5119(4) 0.8915(2) 0.6892(4)
C1 C 1.3065(5) 0.9863(3) 0.5635(6)
C2 C 1.1463(5) 1.0052(3) 0.5201(6)
H1 H 1.0696 0.9671 0.5328
C3 C 1.4233(5) 1.0428(3) 0.5463(6)
H2 H 1.5336 1.0314 0.5834
N1 N 1.3648(4) 0.7392(4) 1.1654(5)
N2 N 1.3325(5) 0.3619(3) 1.0318(6)
C4 C 1.3612(6) 0.9019(3) 0.6280(6)
C5 C 1.2292(7) 0.2979(4) 0.9673(8)
C6 C 1.2396(6) 0.8205(3) 0.9759(7)
O2 O 1.2530(4) 0.84973(19) 0.6150(4)
N3 N 1.3104(4) 0.7536(3) 0.9174(5)
C7 C 1.1922(7) 0.3051(4) 0.8162(9)
C8 C 1.1427(7) 0.8830(3) 0.9024(7)
H3 H 1.1156 0.8873 0.7994
C9 C 1.0911(7) 0.2483(6) 0.7161(8)
H4 H 1.0720 0.2530 0.6136
C10 C 1.4717(6) 0.6337(3) 1.0261(7)
H5 H 1.5488 0.6245 1.1215
H6 H 1.5334 0.6401 0.9525
C11 C 1.3605(5) 0.5570(4) 0.9858(7)
H7 H 1.3209 0.5417 1.0708
H8 H 1.2669 0.5708 0.9049
C12 C 1.1661(6) 0.2317(5) 1.0324(7)
H9 H 1.1929 0.2244 1.1349
C13 C 1.2741(7) 0.8107(4) 1.1287(7)
C14 C 1.0636(8) 0.1784(4) 0.9388(11)
H10 H 1.0174 0.1351 0.9788
C15 C 1.3518(6) 0.4070(4) 0.9170(9)
C16 C 1.4502(6) 0.4829(3) 0.9392(7)
H11 H 1.4789 0.4962 0.8477
H12 H 1.5505 0.4733 1.0152
C17 C 1.3822(6) 0.7101(3) 1.0337(7)
N4 N 1.2744(5) 0.3766(3) 0.7835(6)
C18 C 1.2202(7) 0.8682(4) 1.2150(8)
H13 H 1.2469 0.8637 1.3180
C19 C 1.0872(8) 0.9397(4) 0.9910(10)
H14 H 1.0228 0.9835 0.9464
C20 C 1.0260(8) 0.1881(5) 0.7795(11)
H15 H 0.9545 0.1515 0.7193
C21 C 1.2141(5) 1.1346(3) 0.4333(6)
H16 H 1.1825 1.1850 0.3882
C22 C 1.0946(5) 1.0811(3) 0.4565(6)
C23 C 1.3746(5) 1.1153(3) 0.4743(6)
O3 O 0.8121(4) 1.0556(2) 0.4148(5)
O4 O 1.6129(4) 1.1984(2) 0.5537(5)
C24 C 0.9209(5) 1.1060(4) 0.4118(6)
C25 C 1.1271(8) 0.9313(4) 1.1443(9)
H17 H 1.0890 0.9700 1.2005
C26 C 1.5032(6) 1.1712(3) 0.4491(7)
O5 O 1.4935(4) 1.1885(2) 0.3130(4)
O6 O 0.8942(4) 1.1796(2) 0.3663(5)
Zn1A Zn 1.69487(6) 1.23940(3) 0.29903(7)
Zn1A_2 Zn 0.69487(6) 1.23940(3) 0.29903(7)
O5A O 1.5065(4) 0.6885(2) 0.6870(4)
O6A O 1.1058(4) 0.6796(2) 0.6337(5)
O7 O 1.2493(5) 0.4055(3) 0.4870(6)
loop_
_geom_bond_atom_site_label_1
_geom_bond_atom_site_label_2
_geom_bond_site_symmetry_1
_geom_bond_site_symmetry_2
Zn1 O2 1_555 1_555
O1 C4 1_555 1_555
C1 C2 1_555 1_555
C2 H1 1_555 1_555
C3 C1 1_555 1_555
H2 C3 1_555 1_555
N1 C13 1_555 1_555
N2 C5 1_555 1_555
C4 C1 1_555 1_555
C5 C7 1_555 1_555
C6 N3 1_555 1_555
O2 C4 1_555 1_555
N3 Zn1 1_555 1_555
C7 C9 1_555 1_555
C8 C6 1_555 1_555
H3 C8 1_555 1_555
C9 H4 1_555 1_555
C10 H5 1_555 1_555
H6 C10 1_555 1_555
C11 C10 1_555 1_555
H7 C11 1_555 1_555
H8 C11 1_555 1_555
C12 C5 1_555 1_555
H9 C12 1_555 1_555
C13 C6 1_555 1_555
C14 C12 1_555 1_555
H10 C14 1_555 1_555
C15 N2 1_555 1_555
C16 C11 1_555 1_555
H11 C16 1_555 1_555
H12 C16 1_555 1_555
C17 N1 1_555 1_555
N4 C7 1_555 1_555
C18 C13 1_555 1_555
H13 C18 1_555 1_555
C19 C8 1_555 1_555
H14 C19 1_555 1_555
C20 C9 1_555 1_555
H15 C20 1_555 1_555
C21 H16 1_555 1_555
C22 C2 1_555 1_555
C23 C3 1_555 1_555
O3 C24 1_555 1_555
O4 C26 1_555 1_555
C24 C22 1_555 1_555
C25 C18 1_555 1_555
H17 C25 1_555 1_555
C26 C23 1_555 1_555
O5 C26 1_555 1_555
O6 C24 1_555 1_555
Zn1A O5 1_555 1_555
Zn1A_2 O6 1_555 1_555
O5A Zn1 1_555 1_555
O6A Zn1 1_555 1_555
N3 C17 1_555 1_555
C10 C17 1_555 1_555
C14 C20 1_555 1_555
C15 C16 1_555 1_555
C15 N4 1_555 1_555
C19 C25 1_555 1_555
C21 C22 1_555 1_555
C21 C23 1_555 1_555

#END
