
#######################################################################
#
#                 Cambridge Crystallographic Data Centre
#                                CCDC 
#
#######################################################################
#
# If this CIF has been generated from an entry in the Cambridge 
# Structural Database, then it will include bibliographic, chemical, 
# crystal, experimental, refinement or atomic coordinate data resulting 
# from the CCDC's data processing and validation procedures.
#
#######################################################################

data_VAMDOD
_symmetry_cell_setting           monoclinic
_symmetry_space_group_name_H-M   'P 21/n'
_symmetry_Int_Tables_number      14
_space_group_name_Hall           '-P 2yn'
loop_
_symmetry_equiv_pos_site_id
_symmetry_equiv_pos_as_xyz
1 x,y,z
2 1/2-x,1/2+y,1/2-z
3 -x,-y,-z
4 1/2+x,1/2-y,1/2+z
_cell_length_a                   5.7951(4)
_cell_length_b                   12.6459(9)
_cell_length_c                   10.8155(8)
_cell_angle_alpha                90
_cell_angle_beta                 91.253(1)
_cell_angle_gamma                90
_cell_volume                     792.416
loop_
_atom_site_label
_atom_site_type_symbol
_atom_site_fract_x
_atom_site_fract_y
_atom_site_fract_z
Cu1 Cu 0.5000 0.5000 0.5000
O1 O 0.3236(4) 0.61957(19) 0.4288(2)
O2 O 0.6376(4) 0.6128(2) 0.3153(2)
N1 N 0.1574(5) 0.8992(2) 0.1158(3)
C1 C 0.3626(6) 0.8570(3) 0.0886(3)
H1 H 0.4406 0.8818 0.0190
C2 C 0.4625(6) 0.7779(3) 0.1604(3)
H2 H 0.6059 0.7491 0.1393
C3 C 0.3494(6) 0.7414(3) 0.2636(3)
C4 C 0.1407(6) 0.7877(3) 0.2932(3)
H3 H 0.0614 0.7661 0.3638
C5 C 0.0514(6) 0.8662(3) 0.2168(3)
H4 H -0.0901 0.8975 0.2370
C6 C 0.4471(6) 0.6515(3) 0.3403(3)
O1B O 0.6764(4) 0.38043(19) 0.5712(2)
O2B O 0.3624(4) 0.3872(2) 0.6847(2)
N1B N 0.8426(5) 0.1008(2) 0.8842(3)
C1B C 0.6374(6) 0.1430(3) 0.9114(3)
H1B H 0.5594 0.1182 0.9810
C2B C 0.5375(6) 0.2221(3) 0.8396(3)
H2B H 0.3941 0.2509 0.8607
C3B C 0.6506(6) 0.2586(3) 0.7364(3)
C4B C 0.8593(6) 0.2123(3) 0.7068(3)
H3B H 0.9386 0.2339 0.6362
C5B C 0.9486(6) 0.1338(3) 0.7832(3)
H4B H 1.0901 0.1025 0.7630
C6B C 0.5529(6) 0.3485(3) 0.6597(3)
N1C N 0.6574(5) 0.6008(2) 0.6158(3)
N1A N 0.3426(5) 0.3992(2) 0.3842(3)
Cu1C Cu 0.0000 1.0000 0.0000
Cu1C_2 Cu 1.0000 0.0000 1.0000
I1 I 1.39647(5) 0.95892(2) 0.59931(3)
I1B I 1.60353(5) 1.04108(2) 0.40069(3)
loop_
_geom_bond_atom_site_label_1
_geom_bond_atom_site_label_2
_geom_bond_site_symmetry_1
_geom_bond_site_symmetry_2
Cu1 O1 1_555 1_555
O1 C6 1_555 1_555
O2 C6 1_555 1_555
N1 C1 1_555 1_555
C1 H1 1_555 1_555
C2 C1 1_555 1_555
H2 C2 1_555 1_555
C3 C2 1_555 1_555
C4 C3 1_555 1_555
H3 C4 1_555 1_555
C5 N1 1_555 1_555
H4 C5 1_555 1_555
C6 C3 1_555 1_555
I1 I1B 1_555 1_555
O1B Cu1 1_555 1_555
O2B C6B 1_555 1_555
N1B C1B 1_555 1_555
C1B H1B 1_555 1_555
C2B C1B 1_555 1_555
H2B C2B 1_555 1_555
C3B C2B 1_555 1_555
C4B C3B 1_555 1_555
H3B C4B 1_555 1_555
C5B N1B 1_555 1_555
H4B C5B 1_555 1_555
C6B O1B 1_555 1_555
N1C Cu1 1_555 1_555
N1A Cu1 1_555 1_555
Cu1C N1 1_555 1_555
Cu1C_2 N1B 1_555 1_555
C4 C5 1_555 1_555
C3B C6B 1_555 1_555
C4B C5B 1_555 1_555

#END
