
#######################################################################
#
#                 Cambridge Crystallographic Data Centre
#                                CCDC 
#
#######################################################################
#
# If this CIF has been generated from an entry in the Cambridge 
# Structural Database, then it will include bibliographic, chemical, 
# crystal, experimental, refinement or atomic coordinate data resulting 
# from the CCDC's data processing and validation procedures.
#
#######################################################################

data_VAMFUM
_symmetry_cell_setting           triclinic
_symmetry_space_group_name_H-M   'P -1'
_symmetry_Int_Tables_number      2
_space_group_name_Hall           '-P 1'
loop_
_symmetry_equiv_pos_site_id
_symmetry_equiv_pos_as_xyz
1 x,y,z
2 -x,-y,-z
_cell_length_a                   10.013(2)
_cell_length_b                   10.302(2)
_cell_length_c                   21.479(4)
_cell_angle_alpha                77.16(3)
_cell_angle_beta                 87.86(3)
_cell_angle_gamma                89.79(3)
_cell_volume                     2158.71
loop_
_atom_site_label
_atom_site_type_symbol
_atom_site_fract_x
_atom_site_fract_y
_atom_site_fract_z
N1 N 0.4473(8) 1.1407(8) 0.8550(4)
C1 C 0.3854(12) 0.9592(11) 0.9419(6)
H1 H 0.4088 0.8812 0.9703
C2 C 0.2588(14) 1.0125(15) 0.9443(6)
H2 H 0.1945 0.9696 0.9741
C3 C 0.2291(12) 1.1301(13) 0.9020(6)
H3 H 0.1450 1.1680 0.9038
C4 C 0.3238(11) 1.1904(11) 0.8577(5)
C5 C 0.2953(12) 1.3194(12) 0.8119(6)
H4 H 0.2673 1.3954 0.8252
Cu1 Cu 0.59902(12) 1.23502(12) 0.79966(6)
Cu2 Cu 0.92978(12) 0.73400(12) 0.79901(6)
Cu3 Cu 0.72019(12) 1.51398(12) 0.78824(6)
Cu4 Cu 0.81021(12) 1.01338(12) 0.78905(6)
S1 S 0.2160(3) 1.8170(4) 0.72982(16)
S2 S 0.3202(3) 1.3145(3) 0.72829(16)
N2 N 0.5942(9) 1.3839(8) 0.8453(4)
N3 N 0.9261(8) 0.8818(8) 0.8457(4)
N4 N 0.5820(10) 1.3702(9) 0.9025(5)
N5 N 0.7483(8) 1.6227(9) 0.8508(5)
N6 N 0.8349(10) 0.8758(10) 0.7385(5)
N7 N 0.9319(9) 0.8669(9) 0.9023(5)
N8 N 0.0726(8) 1.6392(8) 0.8546(4)
N9 N 0.7716(9) 1.1211(9) 0.8519(5)
N10 N 0.7364(12) 1.3733(10) 0.6846(5)
N11 N 0.6424(9) 1.0940(10) 0.7515(5)
C6 C 0.4082(9) 1.7109(10) 0.6636(4)
C7 C 0.1302(10) 1.2140(10) 0.6624(4)
N12 N 0.8118(12) 0.8766(11) 0.6842(5)
N13 N 0.8952(9) 1.5958(8) 0.7493(5)
N14 N 0.7064(10) 1.3720(9) 0.7398(5)
N15 N -0.0137(10) 1.1335(10) 0.7355(5)
N16 N 0.9715(10) 1.5542(10) 0.7135(5)
N17 N 0.6701(9) 1.6832(10) 0.8750(5)
N18 N 0.8453(10) 1.1811(10) 0.8768(6)
N19 N 0.0858(9) 1.1799(10) 0.7642(4)
N20 N 0.1747(11) 1.2314(13) 0.7189(6)
C8 C 0.2319(12) 1.8190(12) 0.8135(6)
H5 H 0.2605 1.8933 0.8273
N21 N 0.3632(11) 1.7313(11) 0.7199(6)
N22 N 0.0101(10) 1.1537(11) 0.6739(4)
C9 C 0.1945(11) 1.6897(12) 0.8581(5)
C10 C 0.3525(14) 1.7518(13) 0.6009(6)
C11 C 0.0367(12) 1.5226(11) 0.8948(6)
H6 H -0.0471 1.4864 0.8917
N23 N 0.5704(11) 1.0501(10) 0.7176(5)
C12 C 0.2823(12) 1.6254(13) 0.9034(6)
H7 H 0.3664 1.6618 0.9057
C13 C 0.1838(15) 1.2536(13) 0.6003(6)
C14 C 0.4760(11) 1.0256(11) 0.8958(6)
H8 H 0.5605 0.9893 0.8928
N24 N 0.5975(13) 1.7414(16) 0.9003(9)
C15 C 0.1220(14) 1.4561(13) 0.9403(6)
H9 H 0.0951 1.3764 0.9675
N25 N 0.5647(16) 1.3578(14) 0.9550(6)
N26 N 0.9423(16) 0.8562(14) 0.9555(6)
C16 C 0.2447(15) 1.5070(14) 0.9452(6)
H10 H 0.3024 1.4636 0.9759
N27 N 0.7618(18) 1.3715(15) 0.6337(6)
N28 N 0.5000(17) 1.0096(15) 0.6860(9)
N29 N 0.793(2) 0.8805(16) 0.6320(7)
N30 N 0.9103(13) 1.2416(16) 0.9023(9)
N31 N 1.0417(15) 1.5119(15) 0.6813(9)
C17 C 0.3112(17) 1.2432(18) 0.5844(8)
H11 H 0.3696 1.2064 0.6162
C18 C 0.2510(19) 1.819(2) 0.4835(8)
H12 H 0.2189 1.8430 0.4425
C19 C 0.3076(16) 1.6532(16) 0.5731(7)
H13 H 0.3132 1.5642 0.5942
C20 C 0.144(2) 1.3430(18) 0.4891(8)
H14 H 0.0876 1.3754 0.4558
C21 C 0.0919(17) 1.3100(17) 0.5509(8)
H15 H 0.0022 1.3233 0.5604
C22 C 0.2543(17) 1.6877(17) 0.5138(8)
H16 H 0.2210 1.6227 0.4946
C23 C 0.276(3) 1.3290(18) 0.4761(8)
H17 H 0.3083 1.3507 0.4339
C24 C 0.343(2) 1.8810(18) 0.5726(9)
H18 H 0.3690 1.9467 0.5933
C25 C 0.361(2) 1.285(2) 0.5226(10)
H19 H 0.4526 1.2820 0.5133
C26 C 0.294(2) 1.9137(18) 0.5129(10)
H20 H 0.2907 2.0027 0.4917
N32 N 0.4472(9) 1.6830(10) 0.7642(4)
N33 N 0.5470(10) 1.6323(10) 0.7319(5)
N34 N 0.5258(10) 1.6472(10) 0.6726(5)
Cu2_2 Cu 0.92978(12) 1.73400(12) 0.79901(6)
Cu2_3 Cu -0.07022(12) 1.73400(12) 0.79901(6)
Cu4_2 Cu -0.18979(12) 1.01338(12) 0.78905(6)
N5_2 N 0.7483(8) 0.6227(9) 0.8508(5)
N8_2 N 1.0726(8) 0.6392(8) 0.8546(4)
N13_2 N 0.8952(9) 0.5958(8) 0.7493(5)
N15_2 N 0.9863(10) 1.1335(10) 0.7355(5)
loop_
_geom_bond_atom_site_label_1
_geom_bond_atom_site_label_2
_geom_bond_site_symmetry_1
_geom_bond_site_symmetry_2
N1 C4 1_555 1_555
C1 H1 1_555 1_555
C2 C1 1_555 1_555
H2 C2 1_555 1_555
C3 C2 1_555 1_555
H3 C3 1_555 1_555
C4 C3 1_555 1_555
C5 C4 1_555 1_555
H4 C5 1_555 1_555
Cu1 N1 1_555 1_555
Cu2 N3 1_555 1_555
Cu3 N2 1_555 1_555
Cu4 N3 1_555 1_555
S1 C8 1_555 1_555
S2 C5 1_555 1_555
N2 Cu1 1_555 1_555
N3 N7 1_555 1_555
N4 N2 1_555 1_555
N5 Cu3 1_555 1_555
N6 Cu2 1_555 1_555
N7 N26 1_555 1_555
N8 C9 1_555 1_555
N9 Cu1 1_555 1_555
N10 N14 1_555 1_555
N11 Cu1 1_555 1_555
C6 N21 1_555 1_555
C7 N20 1_555 1_555
N12 N6 1_555 1_555
N13 Cu3 1_555 1_555
N14 Cu1 1_555 1_555
N15 N19 1_555 1_555
N16 N13 1_555 1_555
N17 N5 1_555 1_555
N18 N9 1_555 1_555
N19 N20 1_555 1_555
N20 S2 1_555 1_555
C8 H5 1_555 1_555
N21 S1 1_555 1_555
N22 C7 1_555 1_555
C9 C8 1_555 1_555
C10 C6 1_555 1_555
C11 N8 1_555 1_555
H6 C11 1_555 1_555
N23 N11 1_555 1_555
C12 C9 1_555 1_555
H7 C12 1_555 1_555
C13 C7 1_555 1_555
C14 N1 1_555 1_555
H8 C14 1_555 1_555
N24 N17 1_555 1_555
C15 C11 1_555 1_555
H9 C15 1_555 1_555
N25 N4 1_555 1_555
C16 C12 1_555 1_555
H10 C16 1_555 1_555
N27 N10 1_555 1_555
N28 N23 1_555 1_555
N29 N12 1_555 1_555
N30 N18 1_555 1_555
N31 N16 1_555 1_555
C17 C13 1_555 1_555
H11 C17 1_555 1_555
C18 H12 1_555 1_555
C19 C10 1_555 1_555
H13 C19 1_555 1_555
C20 H14 1_555 1_555
C21 C13 1_555 1_555
H15 C21 1_555 1_555
C22 C18 1_555 1_555
H16 C22 1_555 1_555
C23 C20 1_555 1_555
H17 C23 1_555 1_555
C24 C10 1_555 1_555
H18 C24 1_555 1_555
C25 C17 1_555 1_555
H19 C25 1_555 1_555
C26 C18 1_555 1_555
H20 C26 1_555 1_555
N32 N21 1_555 1_555
N33 Cu3 1_555 1_555
N34 C6 1_555 1_555
Cu2_2 N5 1_555 1_555
Cu2_3 N8 1_555 1_555
Cu4_2 N15 1_555 1_555
N5_2 Cu2 1_555 1_555
N8_2 Cu2 1_555 1_555
N13_2 Cu2 1_555 1_555
N15_2 Cu4 1_555 1_555
C1 C14 1_555 1_555
Cu3 N14 1_555 1_555
Cu4 N6 1_555 1_555
Cu4 N9 1_555 1_555
Cu4 N11 1_555 1_555
N13 Cu2_2 1_555 1_555
N15 N22 1_555 1_555
C15 C16 1_555 1_555
C19 C22 1_555 1_555
C20 C21 1_555 1_555
C23 C25 1_555 1_555
C24 C26 1_555 1_555
N32 N33 1_555 1_555
N33 N34 1_555 1_555

#END
