
#######################################################################
#
#                 Cambridge Crystallographic Data Centre
#                                CCDC 
#
#######################################################################
#
# If this CIF has been generated from an entry in the Cambridge 
# Structural Database, then it will include bibliographic, chemical, 
# crystal, experimental, refinement or atomic coordinate data resulting 
# from the CCDC's data processing and validation procedures.
#
#######################################################################

data_VAMGOH
_symmetry_cell_setting           triclinic
_symmetry_space_group_name_H-M   'P -1'
_symmetry_Int_Tables_number      2
_space_group_name_Hall           '-P 1'
loop_
_symmetry_equiv_pos_site_id
_symmetry_equiv_pos_as_xyz
1 x,y,z
2 -x,-y,-z
_cell_length_a                   11.6747(14)
_cell_length_b                   15.1777(19)
_cell_length_c                   15.4938(19)
_cell_angle_alpha                95.967(2)
_cell_angle_beta                 109.704(2)
_cell_angle_gamma                90.373(2)
_cell_volume                     2568.14
loop_
_atom_site_label
_atom_site_type_symbol
_atom_site_fract_x
_atom_site_fract_y
_atom_site_fract_z
Co1 Co 0.78494(4) 0.69707(3) 0.32395(3)
Co2 Co 0.24571(5) 0.25210(3) 0.22519(4)
N1 N 0.1312(3) 0.1362(2) 0.1700(2)
N2 N 0.3643(3) 0.1553(2) 0.2001(2)
N3 N 0.6773(3) 0.6800(2) 0.1979(2)
N4 N 0.6711(3) 0.6143(2) 0.3416(2)
N5 N 0.8804(3) 0.5966(2) 0.3073(2)
N6 N 0.8957(3) 0.7059(2) 0.4514(2)
N7 N 0.7031(3) 0.8022(2) 0.3464(2)
N8 N 0.8983(3) 0.7822(2) 0.3063(2)
O1 O 0.2054(3) 0.2859(2) 0.0886(2)
H1 H 0.2632 0.2955 0.0686
H2 H 0.1320 0.2899 0.0542
O2 O 0.3039(3) 0.21886(19) 0.3649(2)
H3 H 0.3793 0.2161 0.3951
H4 H 0.2513 0.2083 0.3897
O3 O -0.1766(3) -0.1201(2) 0.0856(3)
O4 O -0.0238(3) -0.1755(2) 0.0498(2)
O5 O 0.5308(3) -0.1041(3) 0.0635(4)
O6 O 0.6921(3) -0.0205(2) 0.1479(3)
H5 H 0.7279 -0.0597 0.1282
O7 O 0.3740(3) 0.35880(18) 0.2639(2)
O8 O 0.4784(3) 0.3517(2) 0.4144(2)
O9 O 0.4271(3) 0.6651(2) -0.1331(2)
H6 H 0.3669 0.6581 -0.1801
O10 O 0.3257(4) 0.5719(3) -0.0808(2)
O11 O 1.1105(3) 0.33442(18) 0.2388(2)
O12 O 1.2189(4) 0.3955(3) 0.3793(2)
O13 O 1.1889(3) 0.7762(2) 0.7735(2)
O14 O 1.2619(3) 0.6576(2) 0.7155(2)
H7 H 1.3149 0.6625 0.7666
O15 O 1.2731(3) 0.9551(2) 0.3373(2)
H8 H 1.3303 0.9915 0.3598
O16 O 1.1724(3) 1.0536(2) 0.3992(3)
O17 O 0.6493(3) 1.1116(2) 0.4529(3)
O18 O 0.4559(3) 1.0617(2) 0.4002(2)
C1 C 0.0123(4) 0.1313(3) 0.1581(3)
H9 H -0.0253 0.1829 0.1695
C2 C -0.0569(4) 0.0528(3) 0.1298(3)
H10 H -0.1388 0.0517 0.1239
C3 C -0.0033(3) -0.0239(2) 0.1104(3)
C4 C 0.1187(3) -0.0180(3) 0.1186(3)
H11 H 0.1569 -0.0680 0.1039
C5 C 0.1830(3) 0.0625(3) 0.1485(3)
C6 C 0.3142(3) 0.0750(3) 0.1607(3)
C7 C 0.3809(4) 0.0096(3) 0.1340(3)
H12 H 0.3443 -0.0455 0.1062
C8 C 0.5040(4) 0.0274(3) 0.1491(3)
C9 C 0.5553(4) 0.1089(3) 0.1915(3)
H13 H 0.6376 0.1217 0.2037
C10 C 0.4841(4) 0.1715(3) 0.2160(3)
H14 H 0.5194 0.2268 0.2445
C11 C 0.5765(4) -0.0405(3) 0.1170(4)
C12 C -0.0733(4) -0.1131(3) 0.0796(3)
C13 C 0.6858(3) 0.7213(3) 0.1273(3)
H15 H 0.7499 0.7625 0.1385
C14 C 0.6027(4) 0.7045(3) 0.0386(3)
H16 H 0.6114 0.7331 -0.0092
C15 C 0.5060(4) 0.6439(3) 0.0228(3)
C16 C 0.4972(4) 0.6012(3) 0.0954(3)
H17 H 0.4334 0.5602 0.0860
C17 C 0.5838(3) 0.6200(2) 0.1815(3)
C18 C 0.5865(3) 0.5772(2) 0.2623(3)
C19 C 0.5129(3) 0.5052(3) 0.2610(3)
H18 H 0.4549 0.4809 0.2059
C20 C 0.5257(4) 0.4695(3) 0.3420(3)
C21 C 0.6056(4) 0.5115(3) 0.4233(3)
H19 H 0.6110 0.4919 0.4794
C22 C 0.6773(4) 0.5828(3) 0.4208(3)
H20 H 0.7320 0.6102 0.4759
C23 C 0.4091(4) 0.6239(3) -0.0711(3)
C24 C 0.4518(4) 0.3857(3) 0.3401(3)
C25 C 0.8615(4) 0.5387(3) 0.2322(3)
H21 H 0.7945 0.5450 0.1801
C26 C 0.9375(4) 0.4701(3) 0.2287(3)
H22 H 0.9202 0.4301 0.1758
C27 C 1.0393(4) 0.4616(3) 0.3047(3)
C28 C 1.0586(4) 0.5220(3) 0.3827(3)
H23 H 1.1266 0.5180 0.4348
C29 C 0.9787(3) 0.5871(3) 0.3835(3)
C30 C 0.9891(3) 0.6503(3) 0.4643(3)
C31 C 1.0836(4) 0.6546(3) 0.5475(3)
H24 H 1.1471 0.6162 0.5545
C32 C 1.0843(4) 0.7149(3) 0.6197(3)
C33 C 0.9885(4) 0.7705(3) 0.6074(3)
H25 H 0.9866 0.8119 0.6555
C34 C 1.1308(4) 0.3906(3) 0.3077(3)
C35 C 1.1872(4) 0.7179(3) 0.7122(3)
C36 C 0.5954(4) 0.8059(3) 0.3606(3)
H26 H 0.5513 0.7532 0.3556
C37 C 0.5484(4) 0.8845(3) 0.3821(3)
H27 H 0.4741 0.8845 0.3919
C38 C 0.6117(3) 0.9633(3) 0.3890(3)
C39 C 0.7224(4) 0.9604(3) 0.3739(3)
H28 H 0.7673 1.0126 0.3787
C40 C 0.7657(3) 0.8792(3) 0.3518(3)
C41 C 0.8818(3) 0.8675(2) 0.3356(3)
C42 C 0.9707(4) 0.9328(3) 0.3507(3)
H29 H 0.9588 0.9906 0.3715
C43 C 1.0780(4) 0.9126(3) 0.3347(3)
C44 C 1.0891(4) 0.8269(3) 0.2978(3)
H30 H 1.1571 0.8123 0.2817
C45 C 0.9983(4) 0.7643(3) 0.2856(3)
H31 H 1.0068 0.7068 0.2617
C46 C 0.5689(4) 1.0540(3) 0.4165(3)
C47 C 1.1803(4) 0.9822(3) 0.3609(3)
C48 C 0.8948(4) 0.7643(3) 0.5229(3)
H32 H 0.8299 0.8014 0.5154
Co2_2 Co 1.24571(5) 0.25210(3) 0.22519(4)
O11_2 O 0.1105(3) 0.33442(18) 0.2388(2)
O19 O 0.2976(4) 0.8101(3) 0.9685(3)
H33 H 0.3426 0.8144 1.0249
H34 H 0.2209 0.8132 0.9541
O20 O 0.6725(6) 0.2825(4) 0.5415(4)
H35 H 0.7140 0.2766 0.5972
H36 H 0.6187 0.2430 0.5097
O21 O 0.6595(7) 0.3240(6) 0.7157(7)
H37 H 0.7073 0.3275 0.7713
H38 H 0.6000 0.2861 0.6965
O22 O 0.2194(8) 0.4580(5) 0.0279(7)
H39 H 0.2629 0.4606 0.0845
H40 H 0.1443 0.4421 0.0105
O23 O 1.0046(14) 0.3771(7) 0.8888(7)
H41 H 1.0366 0.3760 0.9467
H42 H 0.9302 0.3609 0.8615
O24 O 0.2000(9) 0.7480(6) 0.0888(8)
H43 H 0.1514 0.7630 0.1175
H44 H 0.1740 0.7394 0.0302
O25 O 0.2109(11) 0.5350(12) 0.1826(12)
H45 H 0.1822 0.5162 0.2213
H46 H 0.1668 0.5327 0.1261
loop_
_geom_bond_atom_site_label_1
_geom_bond_atom_site_label_2
_geom_bond_site_symmetry_1
_geom_bond_site_symmetry_2
Co1 N3 1_555 1_555
Co2 N1 1_555 1_555
N1 C1 1_555 1_555
N2 Co2 1_555 1_555
N3 C13 1_555 1_555
N4 Co1 1_555 1_555
N5 Co1 1_555 1_555
N6 Co1 1_555 1_555
N7 Co1 1_555 1_555
N8 Co1 1_555 1_555
O1 Co2 1_555 1_555
H1 O1 1_555 1_555
H2 O1 1_555 1_555
O2 Co2 1_555 1_555
H3 O2 1_555 1_555
H4 O2 1_555 1_555
O3 C12 1_555 1_555
O4 C12 1_555 1_555
O5 C11 1_555 1_555
O6 H5 1_555 1_555
O7 Co2 1_555 1_555
O8 C24 1_555 1_555
O9 H6 1_555 1_555
O10 C23 1_555 1_555
O11 C34 1_555 1_555
O12 C34 1_555 1_555
O13 C35 1_555 1_555
O14 H7 1_555 1_555
O15 H8 1_555 1_555
O16 C47 1_555 1_555
O17 C46 1_555 1_555
O18 C46 1_555 1_555
C1 H9 1_555 1_555
C2 C1 1_555 1_555
H10 C2 1_555 1_555
C3 C2 1_555 1_555
C4 C3 1_555 1_555
H11 C4 1_555 1_555
C5 N1 1_555 1_555
C6 N2 1_555 1_555
C7 C6 1_555 1_555
H12 C7 1_555 1_555
C8 C7 1_555 1_555
C9 C8 1_555 1_555
H13 C9 1_555 1_555
C10 N2 1_555 1_555
H14 C10 1_555 1_555
C11 O6 1_555 1_555
C12 C3 1_555 1_555
C13 H15 1_555 1_555
C14 C13 1_555 1_555
H16 C14 1_555 1_555
C15 C14 1_555 1_555
C16 C15 1_555 1_555
H17 C16 1_555 1_555
C17 N3 1_555 1_555
C18 N4 1_555 1_555
C19 C18 1_555 1_555
H18 C19 1_555 1_555
C20 C19 1_555 1_555
C21 C20 1_555 1_555
H19 C21 1_555 1_555
C22 N4 1_555 1_555
H20 C22 1_555 1_555
C23 O9 1_555 1_555
C24 O7 1_555 1_555
C25 N5 1_555 1_555
H21 C25 1_555 1_555
C26 C25 1_555 1_555
H22 C26 1_555 1_555
C27 C26 1_555 1_555
C28 C27 1_555 1_555
H23 C28 1_555 1_555
C29 N5 1_555 1_555
C30 N6 1_555 1_555
C31 C30 1_555 1_555
H24 C31 1_555 1_555
C32 C31 1_555 1_555
C33 C32 1_555 1_555
H25 C33 1_555 1_555
C34 C27 1_555 1_555
C35 O14 1_555 1_555
C36 N7 1_555 1_555
H26 C36 1_555 1_555
C37 C36 1_555 1_555
H27 C37 1_555 1_555
C38 C37 1_555 1_555
C39 C38 1_555 1_555
H28 C39 1_555 1_555
C40 N7 1_555 1_555
C41 N8 1_555 1_555
C42 C41 1_555 1_555
H29 C42 1_555 1_555
C43 C42 1_555 1_555
C44 C43 1_555 1_555
H30 C44 1_555 1_555
C45 N8 1_555 1_555
H31 C45 1_555 1_555
C46 C38 1_555 1_555
C47 O15 1_555 1_555
C48 N6 1_555 1_555
H32 C48 1_555 1_555
O19 H33 1_555 1_555
H34 O19 1_555 1_555
O20 H35 1_555 1_555
H36 O20 1_555 1_555
O21 H37 1_555 1_555
H38 O21 1_555 1_555
O22 H39 1_555 1_555
H40 O22 1_555 1_555
O23 H41 1_555 1_555
H42 O23 1_555 1_555
O24 H43 1_555 1_555
H44 O24 1_555 1_555
O25 H45 1_555 1_555
H46 O25 1_555 1_555
Co2_2 O11 1_555 1_555
O11_2 Co2 1_555 1_555
C4 C5 1_555 1_555
C5 C6 1_555 1_555
C8 C11 1_555 1_555
C9 C10 1_555 1_555
C15 C23 1_555 1_555
C16 C17 1_555 1_555
C17 C18 1_555 1_555
C20 C24 1_555 1_555
C21 C22 1_555 1_555
C28 C29 1_555 1_555
C29 C30 1_555 1_555
C32 C35 1_555 1_555
C33 C48 1_555 1_555
C39 C40 1_555 1_555
C40 C41 1_555 1_555
C43 C47 1_555 1_555
C44 C45 1_555 1_555

#END
