
#######################################################################
#
#                 Cambridge Crystallographic Data Centre
#                                CCDC 
#
#######################################################################
#
# If this CIF has been generated from an entry in the Cambridge 
# Structural Database, then it will include bibliographic, chemical, 
# crystal, experimental, refinement or atomic coordinate data resulting 
# from the CCDC's data processing and validation procedures.
#
#######################################################################

data_VAMHUM
_symmetry_cell_setting           orthorhombic
_symmetry_space_group_name_H-M   'P n m a'
_symmetry_Int_Tables_number      62
_space_group_name_Hall           '-P 2ac 2n'
loop_
_symmetry_equiv_pos_site_id
_symmetry_equiv_pos_as_xyz
1 x,y,z
2 1/2-x,1/2+y,1/2+z
3 x,1/2-y,z
4 1/2-x,-y,1/2+z
5 -x,-y,-z
6 1/2+x,1/2-y,1/2-z
7 -x,1/2+y,-z
8 1/2+x,y,1/2-z
_cell_length_a                   6.594(3)
_cell_length_b                   14.075(6)
_cell_length_c                   6.572(3)
_cell_angle_alpha                90
_cell_angle_beta                 90
_cell_angle_gamma                90
_cell_volume                     609.951
loop_
_atom_site_label
_atom_site_type_symbol
_atom_site_fract_x
_atom_site_fract_y
_atom_site_fract_z
Br1 Br 0.0255(2) 0.2500 0.9566(2)
Li1 Li 0.152(3) 0.2500 0.590(3)
N1 N 0.012(1) 0.1341(5) 0.458(1)
C1 C 0.063(1) 0.0411(6) 0.542(1)
H1 H 0.04(1) 0.134(7) 0.32(2)
H2 H -0.10(2) 0.131(9) 0.46(2)
H3 H 0.203 0.028 0.513
H4 H 0.044 0.043 0.687
Li1E Li -0.348(3) 0.2500 0.910(3)
Br1E Br 0.5255(2) 0.2500 0.5434(2)
N1B N 0.012(1) 0.3659(5) 0.458(1)
C1D C -0.063(1) -0.0411(6) 0.458(1)
H1B H 0.04(1) 0.366(7) 0.32(2)
H2B H -0.10(2) 0.369(9) 0.46(2)
N1D N -0.012(1) -0.1341(5) 0.542(1)
H3D H -0.203 -0.028 0.487
H4D H -0.044 -0.043 0.313
Li1D Li -0.152(3) -0.2500 0.410(3)
H1D H -0.04(1) -0.134(7) 0.68(2)
H2D H 0.10(2) -0.131(9) 0.54(2)
loop_
_geom_bond_atom_site_label_1
_geom_bond_atom_site_label_2
_geom_bond_site_symmetry_1
_geom_bond_site_symmetry_2
Br1 Li1 1_555 1_555
Li1 N1 1_555 1_555
N1 C1 1_555 1_555
C1 H3 1_555 1_555
H1 N1 1_555 1_555
H2 N1 1_555 1_555
H4 C1 1_555 1_555
Li1E Br1 1_555 1_555
Br1E Li1 1_555 1_555
N1B Li1 1_555 1_555
C1D C1 1_555 1_555
H1B N1B 1_555 1_555
H2B N1B 1_555 1_555
N1D C1D 1_555 1_555
H3D C1D 1_555 1_555
H4D C1D 1_555 1_555
Li1D N1D 1_555 1_555
H1D N1D 1_555 1_555
H2D N1D 1_555 1_555

#END
