
#######################################################################
#
#                 Cambridge Crystallographic Data Centre
#                                CCDC 
#
#######################################################################
#
# If this CIF has been generated from an entry in the Cambridge 
# Structural Database, then it will include bibliographic, chemical, 
# crystal, experimental, refinement or atomic coordinate data resulting 
# from the CCDC's data processing and validation procedures.
#
#######################################################################

data_VAMXEO01
_symmetry_cell_setting           monoclinic
_symmetry_space_group_name_H-M   'P 2/c'
_symmetry_Int_Tables_number      13
_space_group_name_Hall           '-P 2yc'
loop_
_symmetry_equiv_pos_site_id
_symmetry_equiv_pos_as_xyz
1 x,y,z
2 -x,y,1/2-z
3 -x,-y,-z
4 x,-y,1/2+z
_cell_length_a                   10.9425(13)
_cell_length_b                   21.354(2)
_cell_length_c                   18.840(2)
_cell_angle_alpha                90
_cell_angle_beta                 105.218(2)
_cell_angle_gamma                90
_cell_volume                     4247.9
loop_
_atom_site_label
_atom_site_type_symbol
_atom_site_fract_x
_atom_site_fract_y
_atom_site_fract_z
Zn1 Zn 0.67267(4) 0.371438(18) 0.57792(2)
C1 C 0.6162(3) 0.41715(18) 0.43277(19)
C2 C 0.6417(3) 0.46573(16) 0.38011(17)
C3 C 0.6555(4) 0.52837(16) 0.39824(18)
H1 H 0.6464 0.5421 0.4445
C4 C 0.6823(4) 0.57101(16) 0.34977(18)
H2 H 0.6933 0.6139 0.3632
C5 C 0.6933(3) 0.55172(16) 0.28126(17)
C6 C 0.6766(4) 0.48949(17) 0.26228(19)
H3 H 0.6818 0.4760 0.2151
C7 C 0.6525(4) 0.44665(17) 0.31164(19)
H4 H 0.6430 0.4036 0.2986
C8 C 0.7226(3) 0.59887(18) 0.22810(19)
C9 C 0.5350(4) 0.27373(17) 0.6357(2)
H5 H 0.6126 0.2717 0.6730
C10 C 0.4416(4) 0.23532(18) 0.6423(2)
H6 H 0.4544 0.2065 0.6819
C11 C 0.3252(3) 0.23859(15) 0.58952(18)
C12 C 0.3134(3) 0.28173(15) 0.53186(18)
H7 H 0.2359 0.2857 0.4948
C13 C 0.4164(3) 0.31816(15) 0.53006(19)
H8 H 0.4080 0.3471 0.4908
C14 C 0.0187(3) 0.24105(15) 0.55379(19)
C15 C 0.0314(3) 0.28015(15) 0.61444(19)
H9 H 0.1095 0.2821 0.6513
C16 C -0.0679(3) 0.31529(15) 0.62065(19)
H10 H -0.0578 0.3407 0.6632
C17 C -0.1911(4) 0.27948(16) 0.5103(2)
H11 H -0.2686 0.2800 0.4729
C18 C -0.0961(4) 0.24163(16) 0.50137(19)
H12 H -0.1089 0.2157 0.4591
O1 O 0.5767(2) 0.36455(11) 0.41127(13)
O2 O 0.6458(2) 0.43443(10) 0.50110(12)
O3 O 0.7154(2) 0.57634(11) 0.16381(12)
O4 O 0.7524(2) 0.65319(12) 0.24698(13)
N1 N 0.5278(3) 0.31492(12) 0.58081(15)
N2 N 0.2278(3) 0.20004(13) 0.59472(17)
H19 H 0.2404 0.1731 0.6313
N3 N 0.1103(3) 0.20214(13) 0.54441(17)
H20 H 0.0951 0.1776 0.5055
N4 N -0.1803(3) 0.31625(12) 0.56981(15)
Zn1_2 Zn -0.32733(4) 0.371438(18) 0.57792(2)
Zn1C Zn 0.67267(4) 0.628562(18) 0.07792(2)
O3C O 0.7154(2) 0.42366(11) 0.66381(12)
N4_2 N 0.8197(3) 0.31625(12) 0.56981(15)
Zn2 Zn 0.0000 0.13566(2) 0.2500
C19 C 0.0322(3) 0.08991(16) 0.39087(19)
C20 C 0.0997(3) 0.04210(15) 0.51669(19)
H13 H 0.1686 0.0707 0.5287
C21 C 0.0164(3) 0.04336(14) 0.44770(18)
C22 C -0.0832(4) 0.00104(15) 0.43118(18)
H14 H -0.1409 0.0015 0.3837
C23 C 0.1835(3) 0.23589(15) 0.30929(18)
H15 H 0.1323 0.2412 0.3425
C24 C 0.2873(3) 0.27495(14) 0.31687(18)
H16 H 0.3068 0.3054 0.3550
C25 C 0.3632(3) 0.26906(14) 0.26768(17)
C26 C 0.3283(3) 0.22387(15) 0.21330(18)
H17 H 0.3758 0.2185 0.1781
C27 C 0.2241(3) 0.18685(15) 0.21070(18)
H18 H 0.2023 0.1562 0.1729
O5 O -0.0137(2) 0.07449(10) 0.32425(12)
O6 O 0.0871(3) 0.13953(11) 0.41029(13)
N5 N 0.1510(2) 0.19112(11) 0.25803(14)
N6 N 0.4651(3) 0.30582(12) 0.27574(14)
H21 H 0.4880 0.3304 0.3145
Zn2_2 Zn 1.0000 0.13566(2) 0.2500
Zn2B Zn 0.0000 -0.13566(2) 0.7500
C19B C -0.0322(3) -0.08991(16) 0.60913(19)
C20B C -0.0997(3) -0.04210(15) 0.48331(19)
H13B H -0.1686 -0.0707 0.4713
C21B C -0.0164(3) -0.04336(14) 0.55230(18)
C22B C 0.0832(4) -0.00104(15) 0.56882(18)
H14B H 0.1409 -0.0015 0.6163
C23A C 0.8165(3) 0.23589(15) 0.19071(18)
H15A H 0.8677 0.2412 0.1575
C24A C 0.7127(3) 0.27495(14) 0.18313(18)
H16A H 0.6932 0.3054 0.1450
C25A C 0.6368(3) 0.26906(14) 0.23232(17)
C26A C 0.6717(3) 0.22387(15) 0.28670(18)
H17A H 0.6242 0.2185 0.3219
C27A C 0.7759(3) 0.18685(15) 0.28930(18)
H18A H 0.7977 0.1562 0.3271
O5B O 0.0137(2) -0.07449(10) 0.67575(12)
O5A O 0.0137(2) 0.07449(10) 0.17575(12)
O6B O -0.0871(3) -0.13953(11) 0.58971(13)
N5A N 0.8490(2) 0.19112(11) 0.24197(14)
N5A_2 N -0.1510(2) 0.19112(11) 0.24197(14)
N6A N 0.5349(3) 0.30582(12) 0.22426(14)
H21A H 0.5120 0.3304 0.1855
loop_
_geom_bond_atom_site_label_1
_geom_bond_atom_site_label_2
_geom_bond_site_symmetry_1
_geom_bond_site_symmetry_2
Zn1 O2 1_555 1_555
Zn2 O5 1_555 1_555
C1 C2 1_555 1_555
C2 C3 1_555 1_555
C3 H1 1_555 1_555
C4 C3 1_555 1_555
H2 C4 1_555 1_555
C5 C4 1_555 1_555
C6 C5 1_555 1_555
H3 C6 1_555 1_555
C7 C2 1_555 1_555
H4 C7 1_555 1_555
C8 C5 1_555 1_555
C9 H5 1_555 1_555
C10 C9 1_555 1_555
H6 C10 1_555 1_555
C11 C10 1_555 1_555
C12 C11 1_555 1_555
H7 C12 1_555 1_555
C13 C12 1_555 1_555
H8 C13 1_555 1_555
C14 C15 1_555 1_555
C15 H9 1_555 1_555
C16 C15 1_555 1_555
H10 C16 1_555 1_555
C17 H11 1_555 1_555
C18 C14 1_555 1_555
H12 C18 1_555 1_555
C19 C21 1_555 1_555
C20 H13 1_555 1_555
C21 C20 1_555 1_555
C22 C21 1_555 1_555
H14 C22 1_555 1_555
C23 H15 1_555 1_555
C24 C23 1_555 1_555
H16 C24 1_555 1_555
C25 C24 1_555 1_555
C26 C25 1_555 1_555
H17 C26 1_555 1_555
C27 C26 1_555 1_555
H18 C27 1_555 1_555
O1 C1 1_555 1_555
O2 C1 1_555 1_555
O3 C8 1_555 1_555
O4 C8 1_555 1_555
O5 C19 1_555 1_555
O6 C19 1_555 1_555
N1 Zn1 1_555 1_555
N2 C11 1_555 1_555
H19 N2 1_555 1_555
N3 C14 1_555 1_555
H20 N3 1_555 1_555
N4 C16 1_555 1_555
N5 Zn2 1_555 1_555
N6 C25 1_555 1_555
H21 N6 1_555 1_555
Zn1_2 N4 1_555 1_555
Zn1C O3 1_555 1_555
Zn2_2 N5A 1_555 1_555
Zn2B O5B 1_555 1_555
C19B C21B 1_555 1_555
C20B C22 1_555 1_555
H13B C20B 1_555 1_555
C21B C20B 1_555 1_555
C22B C20 1_555 1_555
H14B C22B 1_555 1_555
C23A H15A 1_555 1_555
C24A C23A 1_555 1_555
H16A C24A 1_555 1_555
C25A C24A 1_555 1_555
C26A C25A 1_555 1_555
H17A C26A 1_555 1_555
C27A C26A 1_555 1_555
H18A C27A 1_555 1_555
O3C Zn1 1_555 1_555
O5B C19B 1_555 1_555
O5A Zn2 1_555 1_555
O6B C19B 1_555 1_555
N4_2 Zn1 1_555 1_555
N5A C23A 1_555 1_555
N5A_2 Zn2 1_555 1_555
N6A N6 1_555 1_555
H21A N6A 1_555 1_555
C6 C7 1_555 1_555
C9 N1 1_555 1_555
C13 N1 1_555 1_555
C17 C18 1_555 1_555
C17 N4 1_555 1_555
C23 N5 1_555 1_555
C27 N5 1_555 1_555
N2 N3 1_555 1_555
C21B C22B 1_555 1_555
C25A N6A 1_555 1_555
C27A N5A 1_555 1_555

#END
