
#######################################################################
#
#                 Cambridge Crystallographic Data Centre
#                                CCDC 
#
#######################################################################
#
# If this CIF has been generated from an entry in the Cambridge 
# Structural Database, then it will include bibliographic, chemical, 
# crystal, experimental, refinement or atomic coordinate data resulting 
# from the CCDC's data processing and validation procedures.
#
#######################################################################

data_VANCUI01
_symmetry_cell_setting           tetragonal
_symmetry_space_group_name_H-M   'P 43'
_symmetry_Int_Tables_number      78
_space_group_name_Hall           'P 4cw'
loop_
_symmetry_equiv_pos_site_id
_symmetry_equiv_pos_as_xyz
1 x,y,z
2 -y,x,3/4+z
3 -x,-y,1/2+z
4 y,-x,1/4+z
_cell_length_a                   12.0649(16)
_cell_length_b                   12.0649(16)
_cell_length_c                   14.566(3)
_cell_angle_alpha                90
_cell_angle_beta                 90
_cell_angle_gamma                90
_cell_volume                     2120.25
loop_
_atom_site_label
_atom_site_type_symbol
_atom_site_fract_x
_atom_site_fract_y
_atom_site_fract_z
Sn1 Sn 0.45663(3) 0.00635(3) 0.10868(7)
N1 N 0.3229(5) 0.0587(5) 0.2352(5)
O1 O 0.4491(4) 0.0401(5) 0.4905(3)
O2 O 0.2872(4) 0.0560(4) 0.5602(4)
C1 C 0.3464(6) 0.0559(6) 0.4910(5)
C2 C 0.3584(5) 0.0464(5) 0.3214(5)
C3 C 0.2970(5) 0.0709(5) 0.3976(5)
C4 C 0.1887(6) 0.1134(6) 0.3884(6)
C5 C 0.1519(7) 0.1268(8) 0.2992(9)
C6 C 0.2205(8) 0.0978(7) 0.2249(6)
C7 C 0.4868(7) -0.1386(7) 0.1895(5)
C8 C 0.5853(9) -0.1557(12) 0.2305(9)
C9 C 0.6012(11) -0.2476(15) 0.2854(11)
C10 C 0.5235(13) -0.3236(11) 0.2994(8)
C11 C 0.4197(13) -0.3068(9) 0.2631(8)
C12 C 0.4024(10) -0.2081(9) 0.2066(8)
C13 C 0.3189(6) 0.0044(6) 0.0183(5)
C14 C 0.2867(8) -0.0946(9) -0.0200(6)
C15 C 0.1967(11) -0.0958(12) -0.0805(8)
C16 C 0.1417(9) -0.0055(13) -0.1057(8)
C17 C 0.1673(11) 0.0901(14) -0.0644(10)
C18 C 0.2575(11) 0.0987(9) -0.0031(9)
C19 C 0.5383(5) 0.1608(6) 0.1306(5)
C20 C 0.5718(9) 0.1961(10) 0.2183(8)
C21 C 0.6268(9) 0.3055(11) 0.2231(10)
C22 C 0.6410(9) 0.3673(10) 0.1447(13)
C23 C 0.6116(10) 0.3320(9) 0.0622(11)
C24 C 0.5573(7) 0.2275(7) 0.0547(8)
O1B O 0.5509(4) -0.0401(5) -0.0095(3)
Sn1B Sn 0.54337(3) -0.00635(3) 0.60868(7)
loop_
_geom_bond_atom_site_label_1
_geom_bond_atom_site_label_2
_geom_bond_site_symmetry_1
_geom_bond_site_symmetry_2
Sn1 N1 1_555 1_555
N1 C2 1_555 1_555
O1 C1 1_555 1_555
O2 C1 1_555 1_555
C1 C3 1_555 1_555
C2 C3 1_555 1_555
C3 C4 1_555 1_555
C4 C5 1_555 1_555
C5 C6 1_555 1_555
C6 N1 1_555 1_555
C7 Sn1 1_555 1_555
C8 C7 1_555 1_555
C9 C8 1_555 1_555
C10 C9 1_555 1_555
C11 C10 1_555 1_555
C12 C7 1_555 1_555
C13 Sn1 1_555 1_555
C14 C13 1_555 1_555
C15 C14 1_555 1_555
C16 C15 1_555 1_555
C17 C16 1_555 1_555
C18 C13 1_555 1_555
C19 Sn1 1_555 1_555
C20 C19 1_555 1_555
C21 C20 1_555 1_555
C22 C21 1_555 1_555
C23 C22 1_555 1_555
C24 C19 1_555 1_555
O1B Sn1 1_555 1_555
Sn1B O1 1_555 1_555
C11 C12 1_555 1_555
C17 C18 1_555 1_555
C23 C24 1_555 1_555

#END
