
#######################################################################
#
#                 Cambridge Crystallographic Data Centre
#                                CCDC 
#
#######################################################################
#
# If this CIF has been generated from an entry in the Cambridge 
# Structural Database, then it will include bibliographic, chemical, 
# crystal, experimental, refinement or atomic coordinate data resulting 
# from the CCDC's data processing and validation procedures.
#
#######################################################################

data_VANDOD
_symmetry_cell_setting           triclinic
_symmetry_space_group_name_H-M   'P -1'
_symmetry_Int_Tables_number      2
_space_group_name_Hall           '-P 1'
loop_
_symmetry_equiv_pos_site_id
_symmetry_equiv_pos_as_xyz
1 x,y,z
2 -x,-y,-z
_cell_length_a                   10.171(4)
_cell_length_b                   10.189(3)
_cell_length_c                   14.522(3)
_cell_angle_alpha                107.51(2)
_cell_angle_beta                 85.58(2)
_cell_angle_gamma                111.51(3)
_cell_volume                     1334.32
loop_
_atom_site_label
_atom_site_type_symbol
_atom_site_fract_x
_atom_site_fract_y
_atom_site_fract_z
C13 C 0.3328(3) 0.1579(3) 0.4234(2)
C14 C 0.4790(3) 0.2105(3) 0.3872(2)
C15 C 0.5333(4) 0.3396(4) 0.3608(3)
C16 C 0.6657(4) 0.3809(4) 0.3219(3)
C17 C 0.7431(3) 0.2924(4) 0.3096(2)
C18 C 0.6938(4) 0.1657(4) 0.3367(3)
C19 C 0.5621(4) 0.1260(4) 0.3761(3)
H5 H 0.4790(4) 0.4007(4) 0.3696(3)
H6 H 0.7021(4) 0.4696(4) 0.3039(3)
H7 H 0.7493(4) 0.1059(4) 0.3285(3)
H8 H 0.5280(4) 0.0389(4) 0.3959(3)
C26 C 0.7654(5) 0.2950(5) 0.7444(3)
C27 C 0.7475(4) 0.2725(4) 0.8430(3)
C28 C 0.6164(4) 0.1961(4) 0.8715(3)
C29 C 0.6010(5) 0.1715(5) 0.9611(3)
C30 C 0.7166(5) 0.2223(5) 1.0220(3)
C31 C 0.8469(5) 0.2996(5) 0.9954(3)
C32 C 0.8623(4) 0.3242(4) 0.9065(3)
H13 H 0.8648(5) 0.3512(5) 0.7368(3)
H14 H 0.7068(5) 0.3495(5) 0.7372(3)
H15 H 0.7360(5) 0.1988(5) 0.6949(3)
H19 H 0.5360(4) 0.1600(4) 0.8292(3)
H20 H 0.5102(5) 0.1194(5) 0.9802(3)
H21 H 0.7061(5) 0.2038(5) 1.0830(3)
H22 H 0.9268(5) 0.3362(5) 1.0383(3)
H23 H 0.9534(4) 0.3775(4) 0.8883(3)
Mn1 Mn 0.0000 0.0000 0.5000
Cl1 Cl -0.9080(1) 0.6600(1) 0.7425(1)
Cl2 Cl 0.3642(1) 1.3768(1) 1.1448(1)
N1 N -0.0478(3) 0.2081(3) 0.5239(2)
N2 N -0.2584(3) 0.5348(3) 0.5989(2)
N3 N -0.1922(3) 0.8786(3) 0.4339(2)
N4 N 0.0807(3) 1.0200(3) 0.3724(2)
C1 C -0.0532(3) 0.3180(4) 0.5234(2)
C2 C -0.0551(3) 0.4541(3) 0.5211(2)
C3 C -0.1682(4) 0.4981(4) 0.5640(3)
C4 C -0.3176(3) 0.8257(3) 0.4787(2)
C5 C -0.4303(3) 0.7479(3) 0.4075(2)
C6 C -0.3747(3) 0.7536(4) 0.3213(2)
C7 C -0.2261(3) 0.8351(3) 0.3366(2)
C8 C -0.1325(3) 0.8719(3) 0.2652(2)
C9 C 0.0091(3) 0.9600(3) 0.2833(2)
C10 C -0.1078(4) 1.0032(4) 0.7892(2)
C11 C -0.2362(4) 0.9248(4) 0.7459(2)
C12 C -0.2212(3) 0.9109(3) 0.6453(2)
C20 C 0.1900(3) 1.1889(4) 0.8374(2)
C21 C 0.2440(3) 1.3410(4) 0.8814(2)
C22 C 0.2981(4) 1.3990(4) 0.9754(2)
C23 C 0.2959(4) 1.3044(4) 1.0264(2)
C24 C 0.2424(4) 1.1535(4) 0.9852(3)
C25 C 0.1901(4) 1.0969(4) 0.8908(2)
H1 H 0.5269(3) 1.2994(3) 0.5810(2)
H2 H 0.4252(3) 1.2889(4) 0.7393(2)
H3 H -0.0860(4) 1.0297(4) 0.8563(2)
H4 H -0.3215(4) 0.8858(4) 0.7766(2)
H9 H 0.2436(3) 1.4057(4) 0.8461(2)
H10 H 0.3362(4) 1.5028(4) 1.0045(2)
H11 H 0.2415(4) 1.0893(4) 1.0212(3)
H12 H 0.1535(4) 0.9930(4) 0.8620(2)
C2A C 0.0551(3) 0.5459(3) 0.4789(2)
C1A C 0.0532(3) 0.6820(4) 0.4766(2)
N1A N 0.0478(3) 0.7919(3) 0.4761(2)
Mn1A Mn 0.0000 1.0000 0.5000
N1_2 N -0.0478(3) 1.2081(3) 0.5239(2)
N3A N 0.1922(3) 1.1214(3) 0.5661(2)
C4A C 0.3176(3) 1.1743(3) 0.5213(2)
C5A C 0.4303(3) 1.2521(3) 0.5925(2)
C6A C 0.3747(3) 1.2464(4) 0.6787(2)
C7A C 0.2261(3) 1.1649(3) 0.6634(2)
C8A C 0.1325(3) 1.1281(3) 0.7348(2)
C9A C -0.0091(3) 1.0400(3) 0.7167(2)
N4A N -0.0807(3) 0.9800(3) 0.6276(2)
C13A C -0.3328(3) 0.8421(3) 0.5766(2)
C14A C -0.4790(3) 0.7895(3) 0.6128(2)
C15A C -0.5333(4) 0.6604(4) 0.6392(3)
C16A C -0.6657(4) 0.6191(4) 0.6781(3)
C17A C -0.7431(3) 0.7076(4) 0.6904(2)
C18A C -0.6938(4) 0.8343(4) 0.6633(3)
C19A C -0.5621(4) 0.8740(4) 0.6239(3)
H8A H -0.5280(4) 0.9611(4) 0.6041(3)
H7A H -0.7493(4) 0.8941(4) 0.6715(3)
H6A H -0.7021(4) 0.5304(4) 0.6961(3)
H5A H -0.4790(4) 0.5993(4) 0.6304(3)
C13_2 C 0.3328(3) 1.1579(3) 0.4234(2)
C12A C 0.2212(3) 1.0891(3) 0.3547(2)
C11A C 0.2362(4) 1.0752(4) 0.2541(2)
C10A C 0.1078(4) 0.9968(4) 0.2108(2)
H3A H 0.0860(4) 0.9703(4) 0.1437(2)
H4A H 0.3215(4) 1.1142(4) 0.2234(2)
C14_2 C 0.4790(3) 1.2105(3) 0.3872(2)
C15_2 C 0.5333(4) 1.3396(4) 0.3608(3)
C16_2 C 0.6657(4) 1.3809(4) 0.3219(3)
C17_2 C 0.7431(3) 1.2924(4) 0.3096(2)
Cl1A Cl 0.9080(1) 1.3400(1) 0.2575(1)
C18_2 C 0.6938(4) 1.1657(4) 0.3367(3)
C19_2 C 0.5621(4) 1.1260(4) 0.3761(3)
H8_2 H 0.5280(4) 1.0389(4) 0.3959(3)
H7_2 H 0.7493(4) 1.1059(4) 0.3285(3)
H6_2 H 0.7021(4) 1.4696(4) 0.3039(3)
H5_2 H 0.4790(4) 1.4007(4) 0.3696(3)
C20A C -0.1900(3) 0.8111(4) 0.1626(2)
C21A C -0.2440(3) 0.6590(4) 0.1186(2)
C22A C -0.2981(4) 0.6010(4) 0.0246(2)
C23A C -0.2959(4) 0.6956(4) -0.0264(2)
Cl2A Cl -0.3642(1) 0.6232(1) -0.1448(1)
C24A C -0.2424(4) 0.8465(4) 0.0148(3)
C25A C -0.1901(4) 0.9031(4) 0.1092(2)
H12A H -0.1535(4) 1.0070(4) 0.1380(2)
H11A H -0.2415(4) 0.9107(4) -0.0212(3)
H10A H -0.3362(4) 0.4972(4) -0.0045(2)
H9A H -0.2436(3) 0.5943(4) 0.1539(2)
H2A H -0.4252(3) 0.7111(4) 0.2607(2)
H1A H -0.5269(3) 0.7006(3) 0.4190(2)
C3A C 0.1682(4) 0.5019(4) 0.4360(3)
N2A N 0.2584(3) 0.4652(3) 0.4011(2)
H16? H 0.6736(5) 0.2485(5) 0.7091(3)
H17? H 0.8316(5) 0.2502(5) 0.7087(3)
H18? H 0.8024(5) 0.4009(5) 0.7510(3)
loop_
_geom_bond_atom_site_label_1
_geom_bond_atom_site_label_2
_geom_bond_site_symmetry_1
_geom_bond_site_symmetry_2
Mn1 N1 1_555 1_555
Cl1 C17A 1_555 1_555
Cl2 C23 1_555 1_555
N1 C1 1_555 1_555
N2 C3 1_555 1_555
N3 C4 1_555 1_555
N4 C9 1_555 1_555
C1 C2 1_555 1_555
C2 C3 1_555 1_555
C4 C5 1_555 1_555
C5 C6 1_555 1_555
C6 C7 1_555 1_555
C7 N3 1_555 1_555
C8 C7 1_555 1_555
C9 C8 1_555 1_555
C10 C11 1_555 1_555
C11 C12 1_555 1_555
C12 N4A 1_555 1_555
C13 C14 1_555 1_555
C14 C15 1_555 1_555
C15 C16 1_555 1_555
C16 C17 1_555 1_555
C17 C18 1_555 1_555
C18 C19 1_555 1_555
C19 C14 1_555 1_555
C20 C21 1_555 1_555
C21 C22 1_555 1_555
C22 C23 1_555 1_555
C23 C24 1_555 1_555
C24 C25 1_555 1_555
C25 C20 1_555 1_555
C26 C27 1_555 1_555
C27 C28 1_555 1_555
C28 C29 1_555 1_555
C29 C30 1_555 1_555
C30 C31 1_555 1_555
C31 C32 1_555 1_555
C32 C27 1_555 1_555
H1 C5A 1_555 1_555
H2 C6A 1_555 1_555
H3 C10 1_555 1_555
H4 C11 1_555 1_555
H5 C15 1_555 1_555
H6 C16 1_555 1_555
H7 C18 1_555 1_555
H8 C19 1_555 1_555
H9 C21 1_555 1_555
H10 C22 1_555 1_555
H11 C24 1_555 1_555
H12 C25 1_555 1_555
H13 C26 1_555 1_555
H14 C26 1_555 1_555
H15 C26 1_555 1_555
H19 C28 1_555 1_555
H20 C29 1_555 1_555
H21 C30 1_555 1_555
H22 C31 1_555 1_555
H23 C32 1_555 1_555
C2A C2 1_555 1_555
C1A C2A 1_555 1_555
N1A C1A 1_555 1_555
Mn1A N3 1_555 1_555
N1_2 Mn1A 1_555 1_555
N3A Mn1A 1_555 1_555
C4A N3A 1_555 1_555
C5A C4A 1_555 1_555
C6A C5A 1_555 1_555
C7A N3A 1_555 1_555
C8A C20 1_555 1_555
C9A C10 1_555 1_555
N4A Mn1A 1_555 1_555
C13A C4 1_555 1_555
C14A C13A 1_555 1_555
C15A C14A 1_555 1_555
C16A C15A 1_555 1_555
C17A C16A 1_555 1_555
C18A C17A 1_555 1_555
C19A C14A 1_555 1_555
H8A C19A 1_555 1_555
H7A C18A 1_555 1_555
H6A C16A 1_555 1_555
H5A C15A 1_555 1_555
C13_2 C4A 1_555 1_555
C12A N4 1_555 1_555
C11A C12A 1_555 1_555
C10A C9 1_555 1_555
H3A C10A 1_555 1_555
H4A C11A 1_555 1_555
C14_2 C13_2 1_555 1_555
C15_2 C14_2 1_555 1_555
C16_2 C15_2 1_555 1_555
C17_2 C16_2 1_555 1_555
Cl1A C17_2 1_555 1_555
C18_2 C17_2 1_555 1_555
C19_2 C14_2 1_555 1_555
H8_2 C19_2 1_555 1_555
H7_2 C18_2 1_555 1_555
H6_2 C16_2 1_555 1_555
H5_2 C15_2 1_555 1_555
C20A C8 1_555 1_555
C21A C20A 1_555 1_555
C22A C21A 1_555 1_555
C23A C22A 1_555 1_555
Cl2A C23A 1_555 1_555
C24A C23A 1_555 1_555
C25A C20A 1_555 1_555
H12A C25A 1_555 1_555
H11A C24A 1_555 1_555
H10A C22A 1_555 1_555
H9A C21A 1_555 1_555
H2A C6 1_555 1_555
H1A C5 1_555 1_555
C3A C2A 1_555 1_555
N2A C3A 1_555 1_555
N4 Mn1A 1_555 1_555
C12 C13A 1_555 1_555
N1A Mn1A 1_555 1_555
C6A C7A 1_555 1_555
C7A C8A 1_555 1_555
C8A C9A 1_555 1_555
C9A N4A 1_555 1_555
C18A C19A 1_555 1_555
C13_2 C12A 1_555 1_555
C11A C10A 1_555 1_555
C18_2 C19_2 1_555 1_555
C24A C25A 1_555 1_555

#END
