
#######################################################################
#
#                 Cambridge Crystallographic Data Centre
#                                CCDC 
#
#######################################################################
#
# If this CIF has been generated from an entry in the Cambridge 
# Structural Database, then it will include bibliographic, chemical, 
# crystal, experimental, refinement or atomic coordinate data resulting 
# from the CCDC's data processing and validation procedures.
#
#######################################################################

data_VANMAY
_symmetry_cell_setting           orthorhombic
_symmetry_space_group_name_H-M   'P m c 21'
_symmetry_Int_Tables_number      26
_space_group_name_Hall           'P 2c -2'
loop_
_symmetry_equiv_pos_site_id
_symmetry_equiv_pos_as_xyz
1 x,y,z
2 -x,y,z
3 x,-y,1/2+z
4 -x,-y,1/2+z
_cell_length_a                   7.211(2)
_cell_length_b                   6.992(2)
_cell_length_c                   20.375(5)
_cell_angle_alpha                90
_cell_angle_beta                 90
_cell_angle_gamma                90
_cell_volume                     1027.29
loop_
_atom_site_label
_atom_site_type_symbol
_atom_site_fract_x
_atom_site_fract_y
_atom_site_fract_z
Ag1 Ag 0.0000 0.09010(8) 0.67281(3)
N1 N 0.3061(4) 0.1072(5) 0.6694(2)
C1 C 0.4004(6) 0.1334(7) 0.7223(2)
C2 C 0.4034(7) 0.0263(8) 0.4946(3)
C3 C 0.3069(6) 0.0550(7) 0.5518(3)
C4 C 0.4034(5) 0.0809(6) 0.6113(2)
H1 H 0.352(7) 0.169(7) 0.757(3)
H2 H 0.326(6) 0.005(10) 0.448(4)
H3 H 0.192(8) 0.058(11) 0.554(5)
N1A N -0.3061(4) 0.1072(5) 0.6694(2)
C1A C 0.5996(6) 0.1334(7) 0.7223(2)
C4A C 0.5966(5) 0.0809(6) 0.6113(2)
C2A C 0.5966(7) 0.0263(8) 0.4946(3)
N1A_2 N 0.6939(4) 0.1072(5) 0.6694(2)
H1A H 0.648(7) 0.169(7) 0.757(3)
C3A C 0.6931(6) 0.0550(7) 0.5518(3)
H2A H 0.674(6) 0.005(10) 0.448(4)
H3A H 0.808(8) 0.058(11) 0.554(5)
Ag1_2 Ag 1.0000 0.09010(8) 0.67281(3)
Ag2 Ag 0.0000 0.50730(10) 0.94796(4)
N2 N 0.3051(4) 0.5081(6) 0.9476(2)
C5 C 0.4000(6) 0.4698(7) 1.0001(2)
C6 C 0.4035(7) 0.6381(9) 0.7771(2)
C7 C 0.3059(6) 0.5956(8) 0.8329(3)
C8 C 0.4024(5) 0.5500(5) 0.8911(2)
H4 H 0.328(6) 0.440(8) 1.044(3)
H5 H 0.333(10) 0.700(8) 0.747(4)
H6 H 0.168(6) 0.583(7) 0.833(3)
N2A N -0.3051(4) 0.5081(6) 0.9476(2)
C5A C 0.6000(6) 0.4698(7) 1.0001(2)
C8A C 0.5976(5) 0.5500(5) 0.8911(2)
C6A C 0.5965(7) 0.6381(9) 0.7771(2)
N2A_2 N 0.6949(4) 0.5081(6) 0.9476(2)
H4A H 0.672(6) 0.440(8) 1.044(3)
C7A C 0.6941(6) 0.5956(8) 0.8329(3)
H5A H 0.667(10) 0.700(8) 0.747(4)
H6A H 0.832(6) 0.583(7) 0.833(3)
Ag2_2 Ag 1.0000 0.50730(10) 0.94796(4)
Cl1 Cl 0.0000 0.0443(2) 0.8577(1)
O1 O 0.0000 -0.0915(9) 0.9095(3)
O2 O 0.0000 -0.0485(10) 0.7956(3)
O3 O 0.1616(8) 0.1598(9) 0.8632(3)
O3A O -0.1616(8) 0.1598(9) 0.8632(3)
Cl2 Cl 0.0000 0.5757(2) 0.6351(1)
O4 O 0.0000 0.4806(10) 0.6981(3)
O5 O 0.0000 0.4342(9) 0.5837(3)
O6 O 0.1624(8) 0.6870(9) 0.6315(3)
O6A O -0.1624(8) 0.6870(9) 0.6315(3)
loop_
_geom_bond_atom_site_label_1
_geom_bond_atom_site_label_2
_geom_bond_site_symmetry_1
_geom_bond_site_symmetry_2
Ag1 N1 1_555 1_555
Ag2 N2 1_555 1_555
Cl1 O1 1_555 1_555
Cl2 O4 1_555 1_555
O2 Cl1 1_555 1_555
O3 Cl1 1_555 1_555
O5 Cl2 1_555 1_555
O6 Cl2 1_555 1_555
N1 C1 1_555 1_555
C1 H1 1_555 1_555
C2 C3 1_555 1_555
C3 C4 1_555 1_555
C4 N1 1_555 1_555
N2 C5 1_555 1_555
C5 H4 1_555 1_555
C6 C7 1_555 1_555
C7 C8 1_555 1_555
C8 N2 1_555 1_555
H2 C2 1_555 1_555
H3 C3 1_555 1_555
H5 C6 1_555 1_555
H6 C7 1_555 1_555
N1A Ag1 1_555 1_555
C1A C1 1_555 1_555
C4A C4 1_555 1_555
C2A C2 1_555 1_555
N1A_2 C1A 1_555 1_555
H1A C1A 1_555 1_555
C3A C4A 1_555 1_555
H2A C2A 1_555 1_555
H3A C3A 1_555 1_555
N2A Ag2 1_555 1_555
C5A C5 1_555 1_555
C8A C8 1_555 1_555
C6A C6 1_555 1_555
N2A_2 C5A 1_555 1_555
H4A C5A 1_555 1_555
C7A C8A 1_555 1_555
H5A C6A 1_555 1_555
H6A C7A 1_555 1_555
O3A Cl1 1_555 1_555
O6A Cl2 1_555 1_555
Ag1_2 N1A_2 1_555 1_555
Ag2_2 N2A_2 1_555 1_555
C4A N1A_2 1_555 1_555
C2A C3A 1_555 1_555
C8A N2A_2 1_555 1_555
C6A C7A 1_555 1_555

#END
