
#######################################################################
#
#                 Cambridge Crystallographic Data Centre
#                                CCDC 
#
#######################################################################
#
# If this CIF has been generated from an entry in the Cambridge 
# Structural Database, then it will include bibliographic, chemical, 
# crystal, experimental, refinement or atomic coordinate data resulting 
# from the CCDC's data processing and validation procedures.
#
#######################################################################

data_VANWOY
_symmetry_cell_setting           monoclinic
_symmetry_space_group_name_H-M   'P 2/c'
_symmetry_Int_Tables_number      13
_space_group_name_Hall           '-P 2yc'
loop_
_symmetry_equiv_pos_site_id
_symmetry_equiv_pos_as_xyz
1 x,y,z
2 -x,y,1/2-z
3 -x,-y,-z
4 x,-y,1/2+z
_cell_length_a                   7.2299(8)
_cell_length_b                   11.3987(12)
_cell_length_c                   12.7792(12)
_cell_angle_alpha                90
_cell_angle_beta                 117.793(5)
_cell_angle_gamma                90
_cell_volume                     931.659
loop_
_atom_site_label
_atom_site_type_symbol
_atom_site_fract_x
_atom_site_fract_y
_atom_site_fract_z
Cu1 Cu 0.5000 0.29669(13) 0.7500
O1 O 0.7090(8) 0.4212(5) 0.8314(4)
O2 O 0.7504(8) 0.3652(5) 0.6787(5)
N1 N 0.2585(9) 0.0203(6) 0.5151(5)
N2 N 0.1968(10) -0.1324(7) 0.3832(6)
N3 N 0.3398(10) 0.1819(6) 0.6230(5)
C1 C 0.3320(11) 0.1974(8) 0.5134(7)
H1 H 0.3598 0.2695 0.4897
N4 N 0.2673(10) 0.0057(6) 0.7041(5)
N5 N 0.2834(10) 0.1052(6) 0.4454(6)
C2 C 0.2897(12) 0.0681(7) 0.6205(7)
C3 C 0.7954(13) 0.4347(7) 0.7633(7)
C4 C 0.2175(12) -0.0951(8) 0.4869(7)
C5 C 0.2268(12) -0.1082(8) 0.6773(7)
H2 H 0.2137 -0.1552 0.7330
C6 C 0.9417(13) 0.5354(7) 0.7870(8)
H3 H 1.0436 0.5345 0.8701
H4 H 0.8629 0.6078 0.7719
C7 C 0.2028(12) -0.1623(7) 0.5756(7)
H5 H 0.1770 -0.2425 0.5652
H6 H 0.166(15) -0.216(8) 0.365(8)
H9 H 0.200(14) -0.068(5) 0.344(7)
Cu1_2 Cu 1.5000 0.29669(13) 0.7500
O1A O 1.2910(8) 0.4212(5) 0.6686(4)
O1A_2 O 0.2910(8) 0.4212(5) 0.6686(4)
O2A O 1.2496(8) 0.3652(5) 0.8213(5)
O2A_2 O 0.2496(8) 0.3652(5) 0.8213(5)
N1A N 0.7415(9) 0.0203(6) 0.9849(5)
N2A N 0.8032(10) -0.1324(7) 1.1168(6)
N3A N 0.6602(10) 0.1819(6) 0.8770(5)
C1A C 0.6680(11) 0.1974(8) 0.9866(7)
H1A H 0.6402 0.2695 1.0103
N4A N 0.7327(10) 0.0057(6) 0.7959(5)
N5A N 0.7166(10) 0.1052(6) 1.0546(6)
C2A C 0.7103(12) 0.0681(7) 0.8795(7)
C3A C 1.2046(13) 0.4347(7) 0.7367(7)
C4A C 0.7825(12) -0.0951(8) 1.0131(7)
C5A C 0.7732(12) -0.1082(8) 0.8227(7)
H2A H 0.7863 -0.1552 0.7670
C6A C 1.0583(13) 0.5354(7) 0.7130(8)
H3A H 0.9564 0.5345 0.6299
H4A H 1.1371 0.6078 0.7281
C7A C 0.7972(12) -0.1623(7) 0.9244(7)
H5A H 0.8230 -0.2425 0.9348
H6A H 0.834(15) -0.216(8) 1.135(8)
H9A H 0.800(14) -0.068(5) 1.156(7)
O3 O 0.4430(10) 0.4027(5) 0.0701(6)
H7 H 0.422(15) 0.460(5) 0.107(7)
H8 H 0.449(15) 0.328(2) 0.076(8)
loop_
_geom_bond_atom_site_label_1
_geom_bond_atom_site_label_2
_geom_bond_site_symmetry_1
_geom_bond_site_symmetry_2
Cu1 O1 1_555 1_555
O1 C3 1_555 1_555
O2 Cu1 1_555 1_555
N1 N5 1_555 1_555
N2 C4 1_555 1_555
N3 Cu1 1_555 1_555
C1 N3 1_555 1_555
H1 C1 1_555 1_555
N4 C2 1_555 1_555
N5 C1 1_555 1_555
C2 N1 1_555 1_555
C3 O2 1_555 1_555
C4 N1 1_555 1_555
C5 N4 1_555 1_555
H2 C5 1_555 1_555
C6 C3 1_555 1_555
H3 C6 1_555 1_555
H4 C6 1_555 1_555
C7 C4 1_555 1_555
H5 C7 1_555 1_555
O3 H7 1_555 1_555
H6 N2 1_555 1_555
H8 O3 1_555 1_555
H9 N2 1_555 1_555
Cu1_2 O1A 1_555 1_555
O1A C3A 1_555 1_555
O1A_2 Cu1 1_555 1_555
O2A Cu1_2 1_555 1_555
O2A_2 Cu1 1_555 1_555
N1A N5A 1_555 1_555
N2A C4A 1_555 1_555
N3A Cu1 1_555 1_555
C1A N3A 1_555 1_555
H1A C1A 1_555 1_555
N4A C2A 1_555 1_555
N5A C1A 1_555 1_555
C2A N1A 1_555 1_555
C3A O2A 1_555 1_555
C4A N1A 1_555 1_555
C5A N4A 1_555 1_555
H2A C5A 1_555 1_555
C6A C6 1_555 1_555
H3A C6A 1_555 1_555
H4A C6A 1_555 1_555
C7A C4A 1_555 1_555
H5A C7A 1_555 1_555
H6A N2A 1_555 1_555
H9A N2A 1_555 1_555
N3 C2 1_555 1_555
C5 C7 1_555 1_555
N3A C2A 1_555 1_555
C3A C6A 1_555 1_555
C5A C7A 1_555 1_555

#END
