
#######################################################################
#
#                 Cambridge Crystallographic Data Centre
#                                CCDC 
#
#######################################################################
#
# If this CIF has been generated from an entry in the Cambridge 
# Structural Database, then it will include bibliographic, chemical, 
# crystal, experimental, refinement or atomic coordinate data resulting 
# from the CCDC's data processing and validation procedures.
#
#######################################################################

data_VANXIT
_symmetry_cell_setting           rhombohedral
_symmetry_space_group_name_H-M   'R -3'
_symmetry_Int_Tables_number      148
_space_group_name_Hall           '-R 3'
loop_
_symmetry_equiv_pos_site_id
_symmetry_equiv_pos_as_xyz
1 x,y,z
2 -y,x-y,z
3 -x+y,-x,z
4 2/3+x,1/3+y,1/3+z
5 2/3-y,1/3+x-y,1/3+z
6 2/3-x+y,1/3-x,1/3+z
7 1/3+x,2/3+y,2/3+z
8 1/3-y,2/3+x-y,2/3+z
9 1/3-x+y,2/3-x,2/3+z
10 -x,-y,-z
11 y,-x+y,-z
12 x-y,x,-z
13 1/3-x,2/3-y,2/3-z
14 1/3+y,2/3-x+y,2/3-z
15 1/3+x-y,2/3+x,2/3-z
16 2/3-x,1/3-y,1/3-z
17 2/3+y,1/3-x+y,1/3-z
18 2/3+x-y,1/3+x,1/3-z
_cell_length_a                   19.755(3)
_cell_length_b                   19.755(3)
_cell_length_c                   53.209(11)
_cell_angle_alpha                90
_cell_angle_beta                 90
_cell_angle_gamma                120
_cell_volume                     17983.3
loop_
_atom_site_label
_atom_site_type_symbol
_atom_site_fract_x
_atom_site_fract_y
_atom_site_fract_z
C1 C 0.2466(2) 0.42501(18) 0.36253(7)
C2 C 0.30929(19) 0.43492(19) 0.34797(7)
H1 H 0.3472 0.4847 0.3429
C3 C 0.3153(2) 0.3704(3) 0.34094(7)
H2 H 0.3573 0.3770 0.3312
C4 C 0.2586(3) 0.2959(2) 0.34849(8)
H3 H 0.2627 0.2527 0.3438
C5 C 0.1959(2) 0.28598(16) 0.36305(8)
H4 H 0.1580 0.2362 0.3681
C6 C 0.1899(2) 0.3505(2) 0.37007(7)
C7 C 0.0728(4) 0.2740(4) 0.39490(16)
H5 H 0.0971 0.2619 0.4087
H6 H 0.0523 0.2309 0.3831
C8 C 0.0092(5) 0.2848(5) 0.40442(17)
H7 H -0.0223 0.2838 0.3903
H8 H -0.0239 0.2408 0.4152
C9 C 0.0561(5) 0.3554(4) 0.44274(16)
H9 H 0.1050 0.3549 0.4433
H10 H 0.0169 0.3103 0.4519
C10 C 0.0662(4) 0.4283(4) 0.45400(12)
H11 H 0.0882 0.4353 0.4707
H12 H 0.1014 0.4729 0.4438
C11 C 0.2473(3) 0.4985(3) 0.36962(10)
C12 C 0.1969(4) 0.5611(4) 0.39803(13)
H13 H 0.2337 0.6078 0.3890
H14 H 0.2117 0.5689 0.4156
C13 C 0.1174(3) 0.5505(4) 0.39543(11)
C14 C 0.0612(4) 0.4936(3) 0.37989(10)
H15 H 0.0727 0.4603 0.3709
C15 C -0.0123(4) 0.4864(4) 0.37784(12)
H16 H -0.0499 0.4483 0.3674
C16 C -0.0295(3) 0.5362(4) 0.39132(14)
H17 H -0.0787 0.5314 0.3899
C17 C 0.0267(4) 0.5931(4) 0.40686(12)
H18 H 0.0152 0.6264 0.4159
C18 C 0.1001(4) 0.6002(3) 0.40892(10)
H19 H 0.1377 0.6383 0.4193
C19 C -0.0895(3) 0.4754(3) 0.46388(9)
C20 C -0.0965(3) 0.5375(4) 0.47279(11)
H20 H -0.1458 0.5324 0.4737
C21 C -0.0330(4) 0.6062(4) 0.48030(12)
H21 H -0.0394 0.6475 0.4856
C22 C 0.0386(4) 0.6141(4) 0.48002(12)
H22 H 0.0815 0.6606 0.4854
C23 C 0.0487(3) 0.5530(4) 0.47175(11)
H23 H 0.0983 0.5585 0.4716
C24 C -0.0150(3) 0.4840(4) 0.46375(9)
C25 C -0.1614(3) 0.4032(4) 0.45587(11)
C26 C -0.2201(5) 0.2794(5) 0.43172(17)
H24 H -0.2182 0.2375 0.4406
H25 H -0.2694 0.2765 0.4357
C27 C -0.2164(3) 0.2685(4) 0.40478(9)
C28 C -0.2250(3) 0.3211(3) 0.38967(15)
H26 H -0.2334 0.3591 0.3970
C29 C -0.2211(4) 0.3170(4) 0.36367(14)
H27 H -0.2268 0.3522 0.3536
C30 C -0.2086(4) 0.2602(5) 0.35279(9)
H28 H -0.2060 0.2574 0.3354
C31 C -0.2000(4) 0.2075(4) 0.36790(14)
H29 H -0.1917 0.1696 0.3606
C32 C -0.2039(3) 0.2117(4) 0.39389(13)
H30 H -0.1982 0.1765 0.4040
N1 N 0.4132(3) 0.8133(3) 0.30203(11)
N2 N -0.4770(3) 0.2648(4) 0.52214(14)
N3 N 0.2024(3) 0.4945(3) 0.38853(10)
H31 H 0.1746 0.4500 0.3957
N4 N -0.1544(3) 0.3561(3) 0.44047(11)
H32 H -0.1084 0.3701 0.4349
Nd1 Nd -0.3333 0.3333 0.491749(10)
Nd2 Nd 0.3333 0.6667 0.330600(8)
O1 O 0.3737(2) 0.8068(2) 0.32073(9)
O2 O 0.4230(2) 0.7558(3) 0.29647(8)
O3 O 0.4457(3) 0.8738(3) 0.28967(13)
O4 O -0.4209(3) 0.3324(3) 0.52690(9)
O5 O -0.4738(2) 0.2352(3) 0.50187(10)
O6 O -0.5307(3) 0.2315(3) 0.53672(13)
O7 O 0.2909(2) 0.5593(2) 0.35874(7)
O8 O -0.2274(2) 0.3899(2) 0.46299(7)
O9 O 0.1280(3) 0.3428(2) 0.38301(9)
O10 O 0.0324(3) 0.3527(3) 0.41775(11)
O11 O -0.0097(2) 0.4221(2) 0.45517(8)
C1A C -0.42501(18) 0.82159(27) 0.36253(7)
C1B C -0.82159(27) -0.2466(2) 0.36253(7)
C2A C -0.43492(19) 0.87437(27) 0.34797(7)
C2B C -0.87437(27) -0.30929(19) 0.34797(7)
H1A H -0.4847 0.8625 0.3429
H1B H -0.8625 -0.3472 0.3429
C3A C -0.3704(3) 0.9449(4) 0.34094(7)
C3B C -0.9449(4) -0.3153(2) 0.34094(7)
H2A H -0.3770 0.9803 0.3312
H2B H -0.9803 -0.3573 0.3312
C4A C -0.2959(2) 0.9627(4) 0.34849(8)
C4B C -0.9627(4) -0.2586(3) 0.34849(8)
H3A H -0.2527 1.0100 0.3438
H3B H -1.0100 -0.2627 0.3438
C5A C -0.28598(16) 0.90992(26) 0.36305(8)
C5B C -0.90992(26) -0.1959(2) 0.36305(8)
H4A H -0.2362 0.9218 0.3681
H4B H -0.9218 -0.1580 0.3681
C6A C -0.3505(2) 0.8394(3) 0.37007(7)
C6B C -0.8394(3) -0.1899(2) 0.37007(7)
C7A C -0.2740(4) 0.7988(6) 0.39490(16)
C7B C -0.7988(6) -0.0728(4) 0.39490(16)
H5A H -0.2619 0.8352 0.4087
H5B H -0.8352 -0.0971 0.4087
H6A H -0.2309 0.8214 0.3831
H6B H -0.8214 -0.0523 0.3831
C8A C -0.2848(5) 0.7244(7) 0.40442(17)
C8B C -0.7244(7) -0.0092(5) 0.40442(17)
H7A H -0.2838 0.6939 0.3903
H7B H -0.6939 0.0223 0.3903
H8A H -0.2408 0.7353 0.4152
H8B H -0.7353 0.0239 0.4152
C9A C -0.3554(4) 0.7007(6) 0.44274(16)
C9B C -0.7007(6) -0.0561(5) 0.44274(16)
H9A H -0.3549 0.7501 0.4433
H9B H -0.7501 -0.1050 0.4433
H10A H -0.3103 0.7066 0.4519
H10B H -0.7066 -0.0169 0.4519
C10A C -0.4283(4) 0.6379(6) 0.45400(12)
C10B C -0.6379(6) -0.0662(4) 0.45400(12)
H11A H -0.4353 0.6529 0.4707
H11B H -0.6529 -0.0882 0.4707
H12A H -0.4729 0.6285 0.4438
H12B H -0.6285 -0.1014 0.4438
C11A C -0.4985(3) 0.7488(4) 0.36962(10)
C11B C -0.7488(4) -0.2473(3) 0.36962(10)
C12A C -0.5611(4) 0.6358(6) 0.39803(13)
C12B C -0.6358(6) -0.1969(4) 0.39803(13)
H13A H -0.6078 0.6259 0.3890
H13B H -0.6259 -0.2337 0.3890
H14A H -0.5689 0.6428 0.4156
H14B H -0.6428 -0.2117 0.4156
C13A C -0.5505(4) 0.5669(5) 0.39543(11)
C13B C -0.5669(5) -0.1174(3) 0.39543(11)
C14A C -0.4936(3) 0.5676(5) 0.37989(10)
C14B C -0.5676(5) -0.0612(4) 0.37989(10)
H15A H -0.4603 0.6124 0.3709
H15B H -0.6124 -0.0727 0.3709
C15A C -0.4864(4) 0.5013(6) 0.37784(12)
C15B C -0.5013(6) 0.0123(4) 0.37784(12)
H16A H -0.4483 0.5018 0.3674
H16B H -0.5018 0.0499 0.3674
C16A C -0.5362(4) 0.4343(5) 0.39132(14)
C16B C -0.4343(5) 0.0295(3) 0.39132(14)
H17A H -0.5314 0.3899 0.3899
H17B H -0.3899 0.0787 0.3899
C17A C -0.5931(4) 0.4336(6) 0.40686(12)
C17B C -0.4336(6) -0.0267(4) 0.40686(12)
H18A H -0.6264 0.3888 0.4159
H18B H -0.3888 -0.0152 0.4159
C18A C -0.6002(3) 0.4999(5) 0.40892(10)
C18B C -0.4999(5) -0.1001(4) 0.40892(10)
H19A H -0.6383 0.4994 0.4193
H19B H -0.4994 -0.1377 0.4193
C19A C -0.4754(3) 0.4351(4) 0.46388(9)
C19B C -0.4351(4) 0.0895(3) 0.46388(9)
C20A C -0.5375(4) 0.3660(5) 0.47279(11)
C20B C -0.3660(5) 0.0965(3) 0.47279(11)
H20A H -0.5324 0.3218 0.4737
H20B H -0.3218 0.1458 0.4737
C21A C -0.6062(4) 0.3608(6) 0.48030(12)
C21B C -0.3608(6) 0.0330(4) 0.48030(12)
H21A H -0.6475 0.3131 0.4856
H21B H -0.3131 0.0394 0.4856
C22A C -0.6141(4) 0.4245(6) 0.48002(12)
C22B C -0.4245(6) -0.0386(4) 0.48002(12)
H22A H -0.6606 0.4209 0.4854
H22B H -0.4209 -0.0815 0.4854
C23A C -0.5530(4) 0.4957(5) 0.47175(11)
C23B C -0.4957(5) -0.0487(3) 0.47175(11)
H23A H -0.5585 0.5398 0.4716
H23B H -0.5398 -0.0983 0.4716
C24A C -0.4840(4) 0.5010(5) 0.46375(9)
C24B C -0.5010(5) 0.0150(3) 0.46375(9)
C25A C -0.4032(4) 0.4354(5) 0.45587(11)
C25B C -0.4354(5) 0.1614(3) 0.45587(11)
C26A C -0.2794(5) 0.5005(7) 0.43172(17)
C26B C -0.5005(7) 0.2201(5) 0.43172(17)
H24A H -0.2375 0.5443 0.4406
H24B H -0.5443 0.2182 0.4406
H25A H -0.2765 0.4541 0.4357
H25B H -0.4541 0.2694 0.4357
C27A C -0.2685(4) 0.5151(5) 0.40478(9)
C27B C -0.5151(5) 0.2164(3) 0.40478(9)
C28A C -0.3211(3) 0.4539(4) 0.38967(15)
C28B C -0.4539(4) 0.2250(3) 0.38967(15)
H26A H -0.3591 0.4075 0.3970
H26B H -0.4075 0.2334 0.3970
C29A C -0.3170(4) 0.4619(6) 0.36367(14)
C29B C -0.4619(6) 0.2211(4) 0.36367(14)
H27A H -0.3522 0.4210 0.3536
H27B H -0.4210 0.2268 0.3536
C30A C -0.2602(5) 0.5312(6) 0.35279(9)
C30B C -0.5312(6) 0.2086(4) 0.35279(9)
H28A H -0.2574 0.5366 0.3354
H28B H -0.5366 0.2060 0.3354
C31A C -0.2075(4) 0.5925(6) 0.36790(14)
C31B C -0.5925(6) 0.2000(4) 0.36790(14)
H29A H -0.1696 0.6387 0.3606
H29B H -0.6387 0.1917 0.3606
C32A C -0.2117(4) 0.5844(5) 0.39389(13)
C32B C -0.5844(5) 0.2039(3) 0.39389(13)
H30A H -0.1765 0.6253 0.4040
H30B H -0.6253 0.1982 0.4040
N1A N 0.1867(3) 0.5999(4) 0.30203(11)
N1B N 0.4001(4) 0.5868(3) 0.30203(11)
N2A N -0.2648(4) 0.2582(5) 0.52214(14)
N2B N -0.2582(5) 0.4770(3) 0.52214(14)
N3A N -0.4945(3) 0.7079(4) 0.38853(10)
N3B N -0.7079(4) -0.2024(3) 0.38853(10)
H31A H -0.4500 0.7246 0.3957
H31B H -0.7246 -0.1746 0.3957
N4A N -0.3561(3) 0.4895(4) 0.44047(11)
N4B N -0.4895(4) 0.1544(3) 0.44047(11)
H32A H -0.3701 0.5215 0.4349
H32B H -0.5215 0.1084 0.4349
Nd2A Nd -0.6667 0.6666 0.330600(8)
Nd2B Nd -0.6666 -0.3333 0.330600(8)
O1A O 0.1932(2) 0.5669(3) 0.32073(9)
O1B O 0.4331(3) 0.6263(2) 0.32073(9)
O2A O 0.2442(3) 0.6672(4) 0.29647(8)
O2B O 0.3328(4) 0.5770(2) 0.29647(8)
O3A O 0.1262(3) 0.5719(4) 0.28967(13)
O3B O 0.4281(4) 0.5543(3) 0.28967(13)
O4A O -0.3324(3) 0.2467(4) 0.52690(9)
O4B O -0.2467(4) 0.4209(3) 0.52690(9)
O5A O -0.2352(3) 0.2910(4) 0.50187(10)
O5B O -0.2910(4) 0.4738(2) 0.50187(10)
O6A O -0.2315(3) 0.2378(4) 0.53672(13)
O6B O -0.2378(4) 0.5307(3) 0.53672(13)
O7A O -0.5593(2) 0.7316(3) 0.35874(7)
O7B O -0.7316(3) -0.2909(2) 0.35874(7)
O7A_2 O 0.4407(2) 0.7316(3) 0.35874(7)
O7B_2 O 0.2684(3) 0.7091(2) 0.35874(7)
O8A O -0.3899(2) 0.3827(3) 0.46299(7)
O8B O -0.3827(3) 0.2274(2) 0.46299(7)
O9A O -0.3428(2) 0.7852(4) 0.38301(9)
O9B O -0.7852(4) -0.1280(3) 0.38301(9)
O10A O -0.3527(3) 0.6797(4) 0.41775(11)
O10B O -0.6797(4) -0.0324(3) 0.41775(11)
O11A O -0.4221(2) 0.5682(3) 0.45517(8)
O11B O -0.5682(3) 0.0097(2) 0.45517(8)
loop_
_geom_bond_atom_site_label_1
_geom_bond_atom_site_label_2
_geom_bond_site_symmetry_1
_geom_bond_site_symmetry_2
C1 C2 1_555 1_555
C2 H1 1_555 1_555
C3 C2 1_555 1_555
H2 C3 1_555 1_555
C4 C3 1_555 1_555
H3 C4 1_555 1_555
C5 C4 1_555 1_555
H4 C5 1_555 1_555
C6 C1 1_555 1_555
C7 H5 1_555 1_555
H6 C7 1_555 1_555
C8 C7 1_555 1_555
H7 C8 1_555 1_555
H8 C8 1_555 1_555
C9 H9 1_555 1_555
H10 C9 1_555 1_555
C10 C9 1_555 1_555
H11 C10 1_555 1_555
H12 C10 1_555 1_555
C11 C1 1_555 1_555
C12 H13 1_555 1_555
H14 C12 1_555 1_555
C13 C12 1_555 1_555
C14 C13 1_555 1_555
H15 C14 1_555 1_555
C15 C14 1_555 1_555
H16 C15 1_555 1_555
C16 C15 1_555 1_555
H17 C16 1_555 1_555
C17 C16 1_555 1_555
H18 C17 1_555 1_555
C18 C13 1_555 1_555
H19 C18 1_555 1_555
C19 C20 1_555 1_555
C20 H20 1_555 1_555
C21 C20 1_555 1_555
H21 C21 1_555 1_555
C22 C21 1_555 1_555
H22 C22 1_555 1_555
C23 C22 1_555 1_555
H23 C23 1_555 1_555
C24 C19 1_555 1_555
C25 C19 1_555 1_555
C26 H24 1_555 1_555
H25 C26 1_555 1_555
C27 C26 1_555 1_555
C28 C27 1_555 1_555
H26 C28 1_555 1_555
C29 C28 1_555 1_555
H27 C29 1_555 1_555
C30 C29 1_555 1_555
H28 C30 1_555 1_555
C31 C30 1_555 1_555
H29 C31 1_555 1_555
C32 C27 1_555 1_555
H30 C32 1_555 1_555
N1 O1 1_555 1_555
N2 O4 1_555 1_555
N3 C11 1_555 1_555
H31 N3 1_555 1_555
N4 C25 1_555 1_555
H32 N4 1_555 1_555
Nd1 O4 1_555 1_555
Nd2 O1 1_555 1_555
O2 N1 1_555 1_555
O3 N1 1_555 1_555
O5 N2 1_555 1_555
O6 N2 1_555 1_555
O7 C11 1_555 1_555
O8 C25 1_555 1_555
O9 C6 1_555 1_555
O10 C8 1_555 1_555
O11 C10 1_555 1_555
C1A C2A 1_555 1_555
C1B C2B 1_555 1_555
C2A H1A 1_555 1_555
C2B H1B 1_555 1_555
C3A C2A 1_555 1_555
C3B C2B 1_555 1_555
H2A C3A 1_555 1_555
H2B C3B 1_555 1_555
C4A C3A 1_555 1_555
C4B C3B 1_555 1_555
H3A C4A 1_555 1_555
H3B C4B 1_555 1_555
C5A C4A 1_555 1_555
C5B C4B 1_555 1_555
H4A C5A 1_555 1_555
H4B C5B 1_555 1_555
C6A C1A 1_555 1_555
C6B C1B 1_555 1_555
C7A H5A 1_555 1_555
C7B H5B 1_555 1_555
H6A C7A 1_555 1_555
H6B C7B 1_555 1_555
C8A C7A 1_555 1_555
C8B C7B 1_555 1_555
H7A C8A 1_555 1_555
H7B C8B 1_555 1_555
H8A C8A 1_555 1_555
H8B C8B 1_555 1_555
C9A H9A 1_555 1_555
C9B H9B 1_555 1_555
H10A C9A 1_555 1_555
H10B C9B 1_555 1_555
C10A C9A 1_555 1_555
C10B C9B 1_555 1_555
H11A C10A 1_555 1_555
H11B C10B 1_555 1_555
H12A C10A 1_555 1_555
H12B C10B 1_555 1_555
C11A C1A 1_555 1_555
C11B C1B 1_555 1_555
C12A H13A 1_555 1_555
C12B H13B 1_555 1_555
H14A C12A 1_555 1_555
H14B C12B 1_555 1_555
C13A C12A 1_555 1_555
C13B C12B 1_555 1_555
C14A C13A 1_555 1_555
C14B C13B 1_555 1_555
H15A C14A 1_555 1_555
H15B C14B 1_555 1_555
C15A C14A 1_555 1_555
C15B C14B 1_555 1_555
H16A C15A 1_555 1_555
H16B C15B 1_555 1_555
C16A C15A 1_555 1_555
C16B C15B 1_555 1_555
H17A C16A 1_555 1_555
H17B C16B 1_555 1_555
C17A C16A 1_555 1_555
C17B C16B 1_555 1_555
H18A C17A 1_555 1_555
H18B C17B 1_555 1_555
C18A C13A 1_555 1_555
C18B C13B 1_555 1_555
H19A C18A 1_555 1_555
H19B C18B 1_555 1_555
C19A C20A 1_555 1_555
C19B C20B 1_555 1_555
C20A H20A 1_555 1_555
C20B H20B 1_555 1_555
C21A C20A 1_555 1_555
C21B C20B 1_555 1_555
H21A C21A 1_555 1_555
H21B C21B 1_555 1_555
C22A C21A 1_555 1_555
C22B C21B 1_555 1_555
H22A C22A 1_555 1_555
H22B C22B 1_555 1_555
C23A C22A 1_555 1_555
C23B C22B 1_555 1_555
H23A C23A 1_555 1_555
H23B C23B 1_555 1_555
C24A C19A 1_555 1_555
C24B C19B 1_555 1_555
C25A C19A 1_555 1_555
C25B C19B 1_555 1_555
C26A H24A 1_555 1_555
C26B H24B 1_555 1_555
H25A C26A 1_555 1_555
H25B C26B 1_555 1_555
C27A C26A 1_555 1_555
C27B C26B 1_555 1_555
C28A C27A 1_555 1_555
C28B C27B 1_555 1_555
H26A C28A 1_555 1_555
H26B C28B 1_555 1_555
C29A C28A 1_555 1_555
C29B C28B 1_555 1_555
H27A C29A 1_555 1_555
H27B C29B 1_555 1_555
C30A C29A 1_555 1_555
C30B C29B 1_555 1_555
H28A C30A 1_555 1_555
H28B C30B 1_555 1_555
C31A C30A 1_555 1_555
C31B C30B 1_555 1_555
H29A C31A 1_555 1_555
H29B C31B 1_555 1_555
C32A C27A 1_555 1_555
C32B C27B 1_555 1_555
H30A C32A 1_555 1_555
H30B C32B 1_555 1_555
N1A O1A 1_555 1_555
N1B O1B 1_555 1_555
N2A O4A 1_555 1_555
N2B O4B 1_555 1_555
N3A C11A 1_555 1_555
N3B C11B 1_555 1_555
H31A N3A 1_555 1_555
H31B N3B 1_555 1_555
N4A C25A 1_555 1_555
N4B C25B 1_555 1_555
H32A N4A 1_555 1_555
H32B N4B 1_555 1_555
Nd2A O7A 1_555 1_555
Nd2B O7B 1_555 1_555
O1A Nd2 1_555 1_555
O1B Nd2 1_555 1_555
O2A Nd2 1_555 1_555
O2B Nd2 1_555 1_555
O3A N1A 1_555 1_555
O3B N1B 1_555 1_555
O4A Nd1 1_555 1_555
O4B Nd1 1_555 1_555
O5A Nd1 1_555 1_555
O5B Nd1 1_555 1_555
O6A N2A 1_555 1_555
O6B N2B 1_555 1_555
O7A C11A 1_555 1_555
O7B C11B 1_555 1_555
O7A_2 Nd2 1_555 1_555
O7B_2 Nd2 1_555 1_555
O8A Nd1 1_555 1_555
O8B Nd1 1_555 1_555
O9A C6A 1_555 1_555
O9B C6B 1_555 1_555
O10A C8A 1_555 1_555
O10B C8B 1_555 1_555
O11A C10A 1_555 1_555
O11B C10B 1_555 1_555
C5 C6 1_555 1_555
C7 O9 1_555 1_555
C9 O10 1_555 1_555
C12 N3 1_555 1_555
C17 C18 1_555 1_555
C23 C24 1_555 1_555
C24 O11 1_555 1_555
C26 N4 1_555 1_555
C31 C32 1_555 1_555
Nd1 O5 1_555 1_555
Nd1 O8 1_555 1_555
Nd2 O2 1_555 1_555
Nd2 O7 1_555 1_555
C5A C6A 1_555 1_555
C5B C6B 1_555 1_555
C7A O9A 1_555 1_555
C7B O9B 1_555 1_555
C9A O10A 1_555 1_555
C9B O10B 1_555 1_555
C12A N3A 1_555 1_555
C12B N3B 1_555 1_555
C17A C18A 1_555 1_555
C17B C18B 1_555 1_555
C23A C24A 1_555 1_555
C23B C24B 1_555 1_555
C24A O11A 1_555 1_555
C24B O11B 1_555 1_555
C25A O8A 1_555 1_555
C25B O8B 1_555 1_555
C26A N4A 1_555 1_555
C26B N4B 1_555 1_555
C31A C32A 1_555 1_555
C31B C32B 1_555 1_555
N1A O2A 1_555 1_555
N1B O2B 1_555 1_555
N2A O5A 1_555 1_555
N2B O5B 1_555 1_555

#END
