
#######################################################################
#
#                 Cambridge Crystallographic Data Centre
#                                CCDC 
#
#######################################################################
#
# If this CIF has been generated from an entry in the Cambridge 
# Structural Database, then it will include bibliographic, chemical, 
# crystal, experimental, refinement or atomic coordinate data resulting 
# from the CCDC's data processing and validation procedures.
#
#######################################################################

data_VANYIU
_symmetry_cell_setting           triclinic
_symmetry_space_group_name_H-M   'P -1'
_symmetry_Int_Tables_number      2
_space_group_name_Hall           '-P 1'
loop_
_symmetry_equiv_pos_site_id
_symmetry_equiv_pos_as_xyz
1 x,y,z
2 -x,-y,-z
_cell_length_a                   11.4625(3)
_cell_length_b                   15.9942(4)
_cell_length_c                   17.5529(4)
_cell_angle_alpha                78.5740(10)
_cell_angle_beta                 86.7910(10)
_cell_angle_gamma                77.0770(10)
_cell_volume                     3074.14
loop_
_atom_site_label
_atom_site_type_symbol
_atom_site_fract_x
_atom_site_fract_y
_atom_site_fract_z
Eu1 Eu 0.342224(18) 0.801378(13) 0.247282(12)
C1 C 0.0758(3) 0.8798(2) 0.0573(2)
C2 C 0.0170(4) 0.8902(3) -0.0145(3)
C3 C -0.1031(4) 0.8865(3) -0.0123(3)
H1 H -0.1424 0.8925 -0.0586
C4 C -0.1640(4) 0.8745(3) 0.0555(3)
H2 H -0.2444 0.8723 0.0551
C5 C -0.1095(4) 0.8656(3) 0.1241(3)
H3 H -0.1526 0.8578 0.1704
C6 C 0.0087(4) 0.8681(3) 0.1253(3)
H4 H 0.0450 0.8619 0.1727
C7 C 0.2038(4) 0.8819(2) 0.0654(2)
C8 C 0.3917(4) 0.9098(4) 0.0041(3)
H5 H 0.4198 0.8933 0.0572
H6 H 0.3879 0.9719 -0.0125
C9 C 0.4827(4) 0.8611(3) -0.0466(2)
C10 C 0.5104(6) 0.7718(4) -0.0331(3)
H7 H 0.4695 0.7406 0.0056
C11 C 0.5971(8) 0.7284(5) -0.0758(5)
H8 H 0.6156 0.6676 -0.0659
C12 C 0.6560(6) 0.7724(9) -0.1319(5)
H9 H 0.7147 0.7425 -0.1614
C13 C 0.6297(9) 0.8612(8) -0.1457(4)
H10 H 0.6722 0.8920 -0.1836
C14 C 0.5413(6) 0.9053(4) -0.1042(3)
H11 H 0.5213 0.9660 -0.1155
C15 C 0.0288(4) 0.9143(3) -0.1526(3)
H12 H -0.0364 0.9655 -0.1600
H13 H -0.0026 0.8636 -0.1555
C16 C 0.1247(5) 0.9252(3) -0.2133(3)
H14 H 0.0901 0.9395 -0.2647
H15 H 0.1609 0.9726 -0.2068
C17 C 0.3078(5) 0.8560(4) -0.2572(3)
H16 H 0.3426 0.9030 -0.2478
H17 H 0.2795 0.8707 -0.3102
C18 C 0.4001(5) 0.7723(4) -0.2459(3)
H18 H 0.4752 0.7830 -0.2697
H19 H 0.4133 0.7502 -0.1908
C19 C 0.4517(4) 0.6310(3) -0.2749(3)
H20 H 0.4676 0.6041 -0.2208
H21 H 0.5253 0.6440 -0.2992
C20 C 0.4082(5) 0.5702(3) -0.3154(2)
H22 H 0.4658 0.5149 -0.3106
H23 H 0.3324 0.5593 -0.2931
C21 C 0.3628(2) 0.57093(18) -0.44811(13)
C22 C 0.3541(3) 0.48393(18) -0.42932(14)
H24 H 0.3678 0.4531 -0.3787
C23 C 0.3248(3) 0.44301(14) -0.4862(2)
H25 H 0.3190 0.3848 -0.4736
C24 C 0.3043(3) 0.48910(19) -0.56186(18)
H26 H 0.2847 0.4617 -0.5999
C25 C 0.3131(2) 0.57610(19) -0.58065(12)
H27 H 0.2993 0.6069 -0.6313
C26 C 0.3423(2) 0.61702(14) -0.52377(15)
C27 C 0.0131(3) 0.6933(3) 0.2845(2)
C28 C -0.0927(4) 0.6761(3) 0.2630(3)
C29 C -0.1985(4) 0.7018(3) 0.3017(3)
H28 H -0.2685 0.6886 0.2878
C30 C -0.2004(5) 0.7461(4) 0.3596(3)
H29 H -0.2721 0.7645 0.3850
C31 C -0.0970(5) 0.7644(4) 0.3814(3)
H30 H -0.0990 0.7952 0.4213
C32 C 0.0091(4) 0.7373(3) 0.3444(3)
H31 H 0.0790 0.7488 0.3602
C33 C 0.1316(4) 0.6658(3) 0.2460(2)
C34 C 0.2601(4) 0.5590(3) 0.1785(3)
H32 H 0.2750 0.4961 0.1952
H33 H 0.3243 0.5792 0.1979
C35 C 0.2625(4) 0.5805(3) 0.0906(3)
C36 C 0.3369(5) 0.5249(4) 0.0518(4)
H34 H 0.3849 0.4742 0.0790
C37 C 0.3415(6) 0.5433(6) -0.0278(5)
H35 H 0.3930 0.5043 -0.0538
C38 C 0.2740(6) 0.6160(6) -0.0697(4)
H36 H 0.2767 0.6267 -0.1237
C39 C 0.2016(7) 0.6734(4) -0.0303(5)
H37 H 0.1556 0.7252 -0.0573
C40 C 0.1967(5) 0.6545(4) 0.0490(4)
H38 H 0.1464 0.6940 0.0752
C41 C -0.1916(4) 0.6331(4) 0.1636(4)
H39 H -0.2538 0.6848 0.1659
H40 H -0.2208 0.5821 0.1894
C42 C -0.1591(5) 0.6270(4) 0.0820(4)
H41 H -0.2304 0.6290 0.0538
H42 H -0.1255 0.6765 0.0578
C43 C -0.0459(4) 0.5410(3) 0.0007(4)
H43 H -0.0148 0.5908 -0.0259
H44 H -0.1169 0.5397 -0.0262
C44 C 0.3494(3) 0.7096(3) -0.5504(2)
C45 C 0.3790(5) 0.8467(3) -0.5188(3)
H45 H 0.3020 0.8857 -0.5141
H46 H 0.4065 0.8591 -0.5723
C46 C 0.4670(4) 0.8628(3) -0.46602(18)
C47 C 0.5789(4) 0.8067(2) -0.4551(3)
H47 H 0.5979 0.7583 -0.4789
C48 C 0.6623(4) 0.8228(4) -0.4085(3)
H48 H 0.7372 0.7852 -0.4012
C49 C 0.6339(5) 0.8952(4) -0.3729(2)
H49 H 0.6897 0.9060 -0.3417
C50 C 0.5221(6) 0.9514(3) -0.3838(2)
H50 H 0.5031 0.9998 -0.3599
C51 C 0.4386(4) 0.9352(2) -0.4304(2)
H51 H 0.3638 0.9728 -0.4377
N1 N 0.1961(4) 0.9590(3) 0.2907(2)
N2 N 0.5570(3) 0.8719(3) 0.2416(3)
N3 N 0.4971(3) 0.6550(2) 0.1900(2)
N4 N 0.2710(3) 0.8946(2) 0.0033(2)
H52 H 0.2422 0.8939 -0.0408
N5 N 0.1483(3) 0.5977(2) 0.2121(2)
H53 H 0.0881 0.5745 0.2098
N6 N 0.3656(3) 0.7562(2) -0.4990(2)
H54 H 0.3684 0.7315 -0.4507
O1 O 0.3014(3) 0.9527(2) 0.2681(2)
O2 O 0.1537(3) 0.8924(2) 0.29416(18)
O3 O 0.1370(3) 1.0260(3) 0.3067(3)
O4 O 0.5072(3) 0.8656(2) 0.18064(19)
O5 O 0.5191(3) 0.8338(2) 0.3051(2)
O6 O 0.6360(3) 0.9120(2) 0.2384(2)
O7 O 0.4272(3) 0.71473(19) 0.14633(16)
O8 O 0.4998(2) 0.66268(18) 0.26029(17)
O9 O 0.5559(3) 0.5909(2) 0.16648(19)
O10 O 0.2445(2) 0.87434(18) 0.13128(16)
O11 O 0.0836(2) 0.90350(19) -0.08012(16)
O12 O 0.2125(3) 0.8467(2) -0.20577(17)
O13 O 0.3624(3) 0.7085(2) -0.27997(16)
O14 O 0.3941(3) 0.61238(18) -0.39565(15)
O15 O 0.2135(2) 0.70543(18) 0.24935(15)
O16 O -0.0863(2) 0.6378(2) 0.1998(2)
O17 O -0.0754(3) 0.5491(2) 0.0780(2)
O18 O 0.3391(3) 0.74449(18) -0.62073(16)
Eu1A Eu -0.342224(18) 0.198622(13) -0.247282(12)
Eu1_2 Eu 0.342224(18) 0.801378(13) -0.752718(12)
Eu1A_2 Eu -0.342224(18) 0.198622(13) 0.752718(12)
C1A C -0.0758(3) 0.1202(2) -0.0573(2)
C2A C -0.0170(4) 0.1098(3) 0.0145(3)
C3A C 0.1031(4) 0.1135(3) 0.0123(3)
H1A H 0.1424 0.1075 0.0586
C4A C 0.1640(4) 0.1255(3) -0.0555(3)
H2A H 0.2444 0.1277 -0.0551
C5A C 0.1095(4) 0.1344(3) -0.1241(3)
H3A H 0.1526 0.1422 -0.1704
C6A C -0.0087(4) 0.1319(3) -0.1253(3)
H4A H -0.0450 0.1381 -0.1727
C7A C -0.2038(4) 0.1181(2) -0.0654(2)
C8A C -0.3917(4) 0.0902(4) -0.0041(3)
H5A H -0.4198 0.1067 -0.0572
H6A H -0.3879 0.0281 0.0125
C9A C -0.4827(4) 0.1389(3) 0.0466(2)
C10A C -0.5104(6) 0.2282(4) 0.0331(3)
H7A H -0.4695 0.2594 -0.0056
C11A C -0.5971(8) 0.2716(5) 0.0758(5)
H8A H -0.6156 0.3324 0.0659
C12A C -0.6560(6) 0.2276(9) 0.1319(5)
H9A H -0.7147 0.2575 0.1614
C13A C -0.6297(9) 0.1388(8) 0.1457(4)
H10A H -0.6722 0.1080 0.1836
C14A C -0.5413(6) 0.0947(4) 0.1042(3)
H11A H -0.5213 0.0340 0.1155
C15A C -0.0288(4) 0.0857(3) 0.1526(3)
H12A H 0.0364 0.0345 0.1600
H13A H 0.0026 0.1364 0.1555
C16A C -0.1247(5) 0.0748(3) 0.2133(3)
H14A H -0.0901 0.0605 0.2647
H15A H -0.1609 0.0274 0.2068
C17A C -0.3078(5) 0.1440(4) 0.2572(3)
H16A H -0.3426 0.0970 0.2478
H17A H -0.2795 0.1293 0.3102
C18A C -0.4001(5) 0.2277(4) 0.2459(3)
H18A H -0.4752 0.2170 0.2697
H19A H -0.4133 0.2498 0.1908
C19A C -0.4517(4) 0.3690(3) 0.2749(3)
H20A H -0.4676 0.3959 0.2208
H21A H -0.5253 0.3560 0.2992
C20A C -0.4082(5) 0.4298(3) 0.3154(2)
H22A H -0.4658 0.4851 0.3106
H23A H -0.3324 0.4407 0.2931
C21A C -0.3628(2) 0.42907(18) 0.44811(13)
C22A C -0.3541(3) 0.51607(18) 0.42932(14)
H24A H -0.3678 0.5469 0.3787
C23A C -0.3248(3) 0.55699(14) 0.4862(2)
H25A H -0.3190 0.6152 0.4736
C24A C -0.3043(3) 0.51090(19) 0.56186(18)
H26A H -0.2847 0.5383 0.5999
C25A C -0.3131(2) 0.42390(19) 0.58065(12)
H27A H -0.2993 0.3931 0.6313
C26A C -0.3423(2) 0.38298(14) 0.52377(15)
C27A C -0.0131(3) 0.3067(3) -0.2845(2)
C28A C 0.0927(4) 0.3239(3) -0.2630(3)
C29A C 0.1985(4) 0.2982(3) -0.3017(3)
H28A H 0.2685 0.3114 -0.2878
C30A C 0.2004(5) 0.2539(4) -0.3596(3)
H29A H 0.2721 0.2355 -0.3850
C31A C 0.0970(5) 0.2356(4) -0.3814(3)
H30A H 0.0990 0.2048 -0.4213
C32A C -0.0091(4) 0.2627(3) -0.3444(3)
H31A H -0.0790 0.2512 -0.3602
C33A C -0.1316(4) 0.3342(3) -0.2460(2)
C34A C -0.2601(4) 0.4410(3) -0.1785(3)
H32A H -0.2750 0.5039 -0.1952
H33A H -0.3243 0.4208 -0.1979
C35A C -0.2625(4) 0.4195(3) -0.0906(3)
C36A C -0.3369(5) 0.4751(4) -0.0518(4)
H34A H -0.3849 0.5258 -0.0790
C37A C -0.3415(6) 0.4567(6) 0.0278(5)
H35A H -0.3930 0.4957 0.0538
C38A C -0.2740(6) 0.3840(6) 0.0697(4)
H36A H -0.2767 0.3733 0.1237
C39A C -0.2016(7) 0.3266(4) 0.0303(5)
H37A H -0.1556 0.2748 0.0573
C40A C -0.1967(5) 0.3455(4) -0.0490(4)
H38A H -0.1464 0.3060 -0.0752
C41A C 0.1916(4) 0.3669(4) -0.1636(4)
H39A H 0.2538 0.3152 -0.1659
H40A H 0.2208 0.4179 -0.1894
C42A C 0.1591(5) 0.3730(4) -0.0820(4)
H41A H 0.2304 0.3710 -0.0538
H42A H 0.1255 0.3235 -0.0578
C43A C 0.0459(4) 0.4590(3) -0.0007(4)
H43A H 0.0148 0.4092 0.0259
H44A H 0.1169 0.4603 0.0262
C44A C -0.3494(3) 0.2904(3) 0.5504(2)
C45A C -0.3790(5) 0.1533(3) 0.5188(3)
H45A H -0.3020 0.1143 0.5141
H46A H -0.4065 0.1409 0.5723
C46A C -0.4670(4) 0.1372(3) 0.46602(18)
C47A C -0.5789(4) 0.1933(2) 0.4551(3)
H47A H -0.5979 0.2417 0.4789
C48A C -0.6623(4) 0.1772(4) 0.4085(3)
H48A H -0.7372 0.2148 0.4012
C49A C -0.6339(5) 0.1048(4) 0.3729(2)
H49A H -0.6897 0.0940 0.3417
C50A C -0.5221(6) 0.0486(3) 0.3838(2)
H50A H -0.5031 0.0002 0.3599
C51A C -0.4386(4) 0.0648(2) 0.4304(2)
H51A H -0.3638 0.0272 0.4377
N1A N -0.1961(4) 0.0410(3) -0.2907(2)
N2A N -0.5570(3) 0.1281(3) -0.2416(3)
N3A N -0.4971(3) 0.3450(2) -0.1900(2)
N4A N -0.2710(3) 0.1054(2) -0.0033(2)
H52A H -0.2422 0.1061 0.0408
N5A N -0.1483(3) 0.4023(2) -0.2121(2)
H53A H -0.0881 0.4255 -0.2098
N6A N -0.3656(3) 0.2438(2) 0.4990(2)
H54A H -0.3684 0.2685 0.4507
O1A O -0.3014(3) 0.0473(2) -0.2681(2)
O2A O -0.1537(3) 0.1076(2) -0.29416(18)
O3A O -0.1370(3) -0.0260(3) -0.3067(3)
O4A O -0.5072(3) 0.1344(2) -0.18064(19)
O5A O -0.5191(3) 0.1662(2) -0.3051(2)
O6A O -0.6360(3) 0.0880(2) -0.2384(2)
O7A O -0.4272(3) 0.28527(19) -0.14633(16)
O8A O -0.4998(2) 0.33732(18) -0.26029(17)
O9A O -0.5559(3) 0.4091(2) -0.16648(19)
O10A O -0.2445(2) 0.12566(18) -0.13128(16)
O11A O -0.0836(2) 0.09650(19) 0.08012(16)
O12A O -0.2125(3) 0.1533(2) 0.20577(17)
O13A O -0.3624(3) 0.2915(2) 0.27997(16)
O14A O -0.3941(3) 0.38762(18) 0.39565(15)
O15A O -0.2135(2) 0.29457(18) -0.24935(15)
O16A O 0.0863(2) 0.3622(2) -0.1998(2)
O17A O 0.0754(3) 0.4509(2) -0.0780(2)
O18A O -0.3391(3) 0.25551(18) 0.62073(16)
O18_2 O 0.3391(3) 0.74449(18) 0.37927(16)
O18A_2 O -0.3391(3) 0.25551(18) -0.37927(16)
loop_
_geom_bond_atom_site_label_1
_geom_bond_atom_site_label_2
_geom_bond_site_symmetry_1
_geom_bond_site_symmetry_2
Eu1 O1 1_555 1_555
C1 C2 1_555 1_555
C2 C3 1_555 1_555
C3 H1 1_555 1_555
C4 C3 1_555 1_555
H2 C4 1_555 1_555
C5 C4 1_555 1_555
H3 C5 1_555 1_555
C6 C1 1_555 1_555
H4 C6 1_555 1_555
C7 C1 1_555 1_555
C8 H5 1_555 1_555
H6 C8 1_555 1_555
C9 C8 1_555 1_555
C10 C9 1_555 1_555
H7 C10 1_555 1_555
C11 C10 1_555 1_555
H8 C11 1_555 1_555
C12 C11 1_555 1_555
H9 C12 1_555 1_555
C13 C12 1_555 1_555
H10 C13 1_555 1_555
C14 C9 1_555 1_555
H11 C14 1_555 1_555
C15 H12 1_555 1_555
H13 C15 1_555 1_555
C16 C15 1_555 1_555
H14 C16 1_555 1_555
H15 C16 1_555 1_555
C17 H16 1_555 1_555
H17 C17 1_555 1_555
C18 C17 1_555 1_555
H18 C18 1_555 1_555
H19 C18 1_555 1_555
C19 H20 1_555 1_555
H21 C19 1_555 1_555
C20 C19 1_555 1_555
H22 C20 1_555 1_555
H23 C20 1_555 1_555
C21 C22 1_555 1_555
C22 H24 1_555 1_555
C23 C22 1_555 1_555
H25 C23 1_555 1_555
C24 C23 1_555 1_555
H26 C24 1_555 1_555
C25 C24 1_555 1_555
H27 C25 1_555 1_555
C26 C21 1_555 1_555
C27 C28 1_555 1_555
C28 C29 1_555 1_555
C29 H28 1_555 1_555
C30 C29 1_555 1_555
H29 C30 1_555 1_555
C31 C30 1_555 1_555
H30 C31 1_555 1_555
C32 C27 1_555 1_555
H31 C32 1_555 1_555
C33 C27 1_555 1_555
C34 H32 1_555 1_555
H33 C34 1_555 1_555
C35 C34 1_555 1_555
C36 C35 1_555 1_555
H34 C36 1_555 1_555
C37 C36 1_555 1_555
H35 C37 1_555 1_555
C38 C37 1_555 1_555
H36 C38 1_555 1_555
C39 C38 1_555 1_555
H37 C39 1_555 1_555
C40 C35 1_555 1_555
H38 C40 1_555 1_555
C41 H39 1_555 1_555
H40 C41 1_555 1_555
C42 C41 1_555 1_555
H41 C42 1_555 1_555
H42 C42 1_555 1_555
C43 H43 1_555 1_555
H44 C43 1_555 1_555
C44 C26 1_555 1_555
C45 H45 1_555 1_555
H46 C45 1_555 1_555
C46 C45 1_555 1_555
C47 C46 1_555 1_555
H47 C47 1_555 1_555
C48 C47 1_555 1_555
H48 C48 1_555 1_555
C49 C48 1_555 1_555
H49 C49 1_555 1_555
C50 C49 1_555 1_555
H50 C50 1_555 1_555
C51 C46 1_555 1_555
H51 C51 1_555 1_555
N1 O1 1_555 1_555
N2 O4 1_555 1_555
N3 O7 1_555 1_555
N4 C7 1_555 1_555
H52 N4 1_555 1_555
N5 C33 1_555 1_555
H53 N5 1_555 1_555
N6 C44 1_555 1_555
H54 N6 1_555 1_555
O2 Eu1 1_555 1_555
O3 N1 1_555 1_555
O4 Eu1 1_555 1_555
O5 Eu1 1_555 1_555
O6 N2 1_555 1_555
O7 Eu1 1_555 1_555
O8 Eu1 1_555 1_555
O9 N3 1_555 1_555
O10 Eu1 1_555 1_555
O11 C2 1_555 1_555
O12 C16 1_555 1_555
O13 C18 1_555 1_555
O14 C20 1_555 1_555
O15 Eu1 1_555 1_555
O16 C28 1_555 1_555
O17 C42 1_555 1_555
O18 C44 1_555 1_555
Eu1A O1A 1_555 1_555
Eu1_2 O18 1_555 1_555
Eu1A_2 O18A 1_555 1_555
C1A C2A 1_555 1_555
C2A C3A 1_555 1_555
C3A H1A 1_555 1_555
C4A C3A 1_555 1_555
H2A C4A 1_555 1_555
C5A C4A 1_555 1_555
H3A C5A 1_555 1_555
C6A C1A 1_555 1_555
H4A C6A 1_555 1_555
C7A C1A 1_555 1_555
C8A H5A 1_555 1_555
H6A C8A 1_555 1_555
C9A C8A 1_555 1_555
C10A C9A 1_555 1_555
H7A C10A 1_555 1_555
C11A C10A 1_555 1_555
H8A C11A 1_555 1_555
C12A C11A 1_555 1_555
H9A C12A 1_555 1_555
C13A C12A 1_555 1_555
H10A C13A 1_555 1_555
C14A C9A 1_555 1_555
H11A C14A 1_555 1_555
C15A H12A 1_555 1_555
H13A C15A 1_555 1_555
C16A C15A 1_555 1_555
H14A C16A 1_555 1_555
H15A C16A 1_555 1_555
C17A H16A 1_555 1_555
H17A C17A 1_555 1_555
C18A C17A 1_555 1_555
H18A C18A 1_555 1_555
H19A C18A 1_555 1_555
C19A H20A 1_555 1_555
H21A C19A 1_555 1_555
C20A C19A 1_555 1_555
H22A C20A 1_555 1_555
H23A C20A 1_555 1_555
C21A C22A 1_555 1_555
C22A H24A 1_555 1_555
C23A C22A 1_555 1_555
H25A C23A 1_555 1_555
C24A C23A 1_555 1_555
H26A C24A 1_555 1_555
C25A C24A 1_555 1_555
H27A C25A 1_555 1_555
C26A C21A 1_555 1_555
C27A C28A 1_555 1_555
C28A C29A 1_555 1_555
C29A H28A 1_555 1_555
C30A C29A 1_555 1_555
H29A C30A 1_555 1_555
C31A C30A 1_555 1_555
H30A C31A 1_555 1_555
C32A C27A 1_555 1_555
H31A C32A 1_555 1_555
C33A C27A 1_555 1_555
C34A H32A 1_555 1_555
H33A C34A 1_555 1_555
C35A C34A 1_555 1_555
C36A C35A 1_555 1_555
H34A C36A 1_555 1_555
C37A C36A 1_555 1_555
H35A C37A 1_555 1_555
C38A C37A 1_555 1_555
H36A C38A 1_555 1_555
C39A C38A 1_555 1_555
H37A C39A 1_555 1_555
C40A C35A 1_555 1_555
H38A C40A 1_555 1_555
C41A H39A 1_555 1_555
H40A C41A 1_555 1_555
C42A C41A 1_555 1_555
H41A C42A 1_555 1_555
H42A C42A 1_555 1_555
C43A C43 1_555 1_555
H43A C43A 1_555 1_555
H44A C43A 1_555 1_555
C44A C26A 1_555 1_555
C45A H45A 1_555 1_555
H46A C45A 1_555 1_555
C46A C45A 1_555 1_555
C47A C46A 1_555 1_555
H47A C47A 1_555 1_555
C48A C47A 1_555 1_555
H48A C48A 1_555 1_555
C49A C48A 1_555 1_555
H49A C49A 1_555 1_555
C50A C49A 1_555 1_555
H50A C50A 1_555 1_555
C51A C46A 1_555 1_555
H51A C51A 1_555 1_555
N1A O1A 1_555 1_555
N2A O4A 1_555 1_555
N3A O7A 1_555 1_555
N4A C7A 1_555 1_555
H52A N4A 1_555 1_555
N5A C33A 1_555 1_555
H53A N5A 1_555 1_555
N6A C44A 1_555 1_555
H54A N6A 1_555 1_555
O2A Eu1A 1_555 1_555
O3A N1A 1_555 1_555
O4A Eu1A 1_555 1_555
O5A Eu1A 1_555 1_555
O6A N2A 1_555 1_555
O7A Eu1A 1_555 1_555
O8A Eu1A 1_555 1_555
O9A N3A 1_555 1_555
O10A Eu1A 1_555 1_555
O11A C2A 1_555 1_555
O12A C16A 1_555 1_555
O13A C18A 1_555 1_555
O14A C20A 1_555 1_555
O15A Eu1A 1_555 1_555
O16A C28A 1_555 1_555
O17A C42A 1_555 1_555
O18A C44A 1_555 1_555
O18_2 Eu1 1_555 1_555
O18A_2 Eu1A 1_555 1_555
C5 C6 1_555 1_555
C7 O10 1_555 1_555
C8 N4 1_555 1_555
C13 C14 1_555 1_555
C15 O11 1_555 1_555
C17 O12 1_555 1_555
C19 O13 1_555 1_555
C21 O14 1_555 1_555
C25 C26 1_555 1_555
C31 C32 1_555 1_555
C33 O15 1_555 1_555
C34 N5 1_555 1_555
C39 C40 1_555 1_555
C41 O16 1_555 1_555
C43 O17 1_555 1_555
C45 N6 1_555 1_555
C50 C51 1_555 1_555
N1 O2 1_555 1_555
N2 O5 1_555 1_555
N3 O8 1_555 1_555
C5A C6A 1_555 1_555
C7A O10A 1_555 1_555
C8A N4A 1_555 1_555
C13A C14A 1_555 1_555
C15A O11A 1_555 1_555
C17A O12A 1_555 1_555
C19A O13A 1_555 1_555
C21A O14A 1_555 1_555
C25A C26A 1_555 1_555
C31A C32A 1_555 1_555
C33A O15A 1_555 1_555
C34A N5A 1_555 1_555
C39A C40A 1_555 1_555
C41A O16A 1_555 1_555
C43A O17A 1_555 1_555
C45A N6A 1_555 1_555
C50A C51A 1_555 1_555
N1A O2A 1_555 1_555
N2A O5A 1_555 1_555
N3A O8A 1_555 1_555

#END
