
#######################################################################
#
#                 Cambridge Crystallographic Data Centre
#                                CCDC 
#
#######################################################################
#
# If this CIF has been generated from an entry in the Cambridge 
# Structural Database, then it will include bibliographic, chemical, 
# crystal, experimental, refinement or atomic coordinate data resulting 
# from the CCDC's data processing and validation procedures.
#
#######################################################################

data_VAQBEU
_symmetry_cell_setting           triclinic
_symmetry_space_group_name_H-M   'P -1'
_symmetry_Int_Tables_number      2
_space_group_name_Hall           '-P 1'
loop_
_symmetry_equiv_pos_site_id
_symmetry_equiv_pos_as_xyz
1 x,y,z
2 -x,-y,-z
_cell_length_a                   9.113(2)
_cell_length_b                   11.093(2)
_cell_length_c                   11.394(2)
_cell_angle_alpha                64.04(3)
_cell_angle_beta                 70.18(3)
_cell_angle_gamma                66.91(3)
_cell_volume                     932.928
loop_
_atom_site_label
_atom_site_type_symbol
_atom_site_fract_x
_atom_site_fract_y
_atom_site_fract_z
Co1 Co 0.5000 0.5000 0.5000
O1 O 0.2467(2) 0.5489(2) 0.5488(2)
O2 O 0.4783(3) 0.7153(2) 0.4162(2)
N1 N 0.5012(3) 0.4950(2) 0.3131(2)
C1 C 0.5857(4) 0.5645(3) 0.1999(3)
C2 C 0.5885(4) 0.5691(3) 0.0765(3)
C3 C 0.5002(3) 0.4985(3) 0.0657(2)
C4 C 0.4130(4) 0.4257(3) 0.1842(3)
C5 C 0.4162(4) 0.4269(3) 0.3033(3)
H1 H 0.1929(2) 0.6134(2) 0.5702(2)
H2 H 0.1760(2) 0.5056(2) 0.5987(2)
H3 H 0.5352(3) 0.7758(2) 0.3363(2)
H4 H 0.3985(3) 0.7804(2) 0.4539(2)
H5 H 0.6504(4) 0.6121(3) 0.2050(2)
H6 H 0.6490(4) 0.6234(3) -0.0020(2)
H7 H 0.3482(3) 0.3762(3) 0.1825(2)
H8 H 0.3549(4) 0.3757(3) 0.3838(2)
O1A O 0.7533(2) 0.4511(2) 0.4512(2)
H1A H 0.8071(2) 0.3866(2) 0.4298(2)
H2A H 0.8240(2) 0.4944(2) 0.4013(2)
O2A O 0.5217(3) 0.2847(2) 0.5838(2)
H3A H 0.4648(3) 0.2242(2) 0.6637(2)
H4A H 0.6015(3) 0.2196(2) 0.5461(2)
C3A C 0.4998(3) 0.5015(3) -0.0657(2)
C2A C 0.4115(4) 0.4309(3) -0.0765(3)
C1A C 0.4143(4) 0.4355(3) -0.1999(3)
N1A N 0.4988(3) 0.5050(2) -0.3131(2)
Co1A Co 0.5000 0.5000 -0.5000
C5A C 0.5838(4) 0.5731(3) -0.3033(3)
C4A C 0.5870(4) 0.5743(3) -0.1842(3)
H7A H 0.6518(3) 0.6238(3) -0.1825(2)
H8A H 0.6451(4) 0.6243(3) -0.3838(2)
H5A H 0.3496(4) 0.3879(3) -0.2050(2)
H6A H 0.3510(4) 0.3766(3) 0.0020(2)
N1A_2 N 0.4988(3) 0.5050(2) 0.6869(2)
N2 N 0.6169(4) 0.9040(3) 0.1918(3)
N3 N 1.0496(4) 1.3857(3) -0.2864(4)
C6 C 0.6450(7) 0.9927(5) 0.2231(4)
C7 C 0.7219(7) 1.0941(5) 0.1328(4)
C8 C 0.7744(4) 1.1047(3) 0.0016(3)
C9 C 0.7407(5) 1.0148(4) -0.0311(4)
C10 C 0.6644(6) 0.9171(4) 0.0654(4)
C11 C 0.8653(4) 1.2048(3) -0.0985(3)
C12 C 0.9136(4) 1.2862(4) -0.0631(4)
C13 C 1.0021(5) 1.3743(4) -0.1592(5)
C14 C 1.0015(6) 1.3105(5) -0.3204(4)
C15 C 0.9110(6) 1.2204(5) -0.2309(4)
H9 H 0.6066(7) 0.9884(5) 0.3139(4)
H10 H 0.7399(6) 1.1552(5) 0.1618(4)
H11 H 0.7739(5) 1.0188(4) -0.1218(4)
H12 H 0.6430(5) 0.8556(4) 0.0391(4)
H13 H 0.8836(4) 1.2813(4) 0.0279(4)
H14 H 1.0335(4) 1.4305(4) -0.1328(4)
H15 H 1.0291(5) 1.3192(5) -0.4126(4)
H16 H 0.8798(5) 1.1673(4) -0.2617(4)
O3 O 0.3025(1) 0.9078(1) 0.5424(1)
H17 H 0.1980(4) 0.8871(4) 0.6012(3)
H18 H 0.2665(4) 0.9003(4) 0.4819(3)
Cl1 Cl 0.0786(1) 0.2011(1) 0.2784(1)
O4 O 0.1745(1) 0.2473(1) 0.1533(1)
O5 O 0.1287(10) 0.2215(9) 0.3739(16)
O6 O 0.0998(1) 0.0538(1) 0.3206(1)
O7 O -0.0900(1) 0.2764(1) 0.2779(1)
O8? O 0.0000(1) 0.1115(1) 0.2769(1)
O9? O 0.0414(1) 0.3328(1) 0.1670(1)
O10? O 0.0206(17) 0.2251(15) 0.3994(10)
O11? O 0.2513(1) 0.1401(1) 0.2522(1)
loop_
_geom_bond_atom_site_label_1
_geom_bond_atom_site_label_2
_geom_bond_site_symmetry_1
_geom_bond_site_symmetry_2
Co1 O1 1_555 1_555
O1 H1 1_555 1_555
O2 Co1 1_555 1_555
N1 Co1 1_555 1_555
C1 N1 1_555 1_555
C2 C1 1_555 1_555
C3 C2 1_555 1_555
C4 C3 1_555 1_555
C5 N1 1_555 1_555
N2 C6 1_555 1_555
N3 C13 1_555 1_555
C6 C7 1_555 1_555
C7 C8 1_555 1_555
C8 C9 1_555 1_555
C9 C10 1_555 1_555
C10 N2 1_555 1_555
C11 C8 1_555 1_555
C12 C11 1_555 1_555
C13 C12 1_555 1_555
C14 N3 1_555 1_555
C15 C11 1_555 1_555
O3 H17 1_555 1_555
Cl1 O4 1_555 1_555
O5 Cl1 1_555 1_555
O6 Cl1 1_555 1_555
O7 Cl1 1_555 1_555
H2 O1 1_555 1_555
H3 O2 1_555 1_555
H4 O2 1_555 1_555
H5 C1 1_555 1_555
H6 C2 1_555 1_555
H7 C4 1_555 1_555
H8 C5 1_555 1_555
H9 C6 1_555 1_555
H10 C7 1_555 1_555
H11 C9 1_555 1_555
H12 C10 1_555 1_555
H13 C12 1_555 1_555
H14 C13 1_555 1_555
H15 C14 1_555 1_555
H16 C15 1_555 1_555
H18 O3 1_555 1_555
O1A Co1 1_555 1_555
H1A O1A 1_555 1_555
H2A O1A 1_555 1_555
O2A Co1 1_555 1_555
H3A O2A 1_555 1_555
H4A O2A 1_555 1_555
C3A C3 1_555 1_555
C2A C3A 1_555 1_555
C1A C2A 1_555 1_555
N1A C1A 1_555 1_555
Co1A N1A 1_555 1_555
C5A N1A 1_555 1_555
C4A C3A 1_555 1_555
H7A C4A 1_555 1_555
H8A C5A 1_555 1_555
H5A C1A 1_555 1_555
H6A C2A 1_555 1_555
N1A_2 Co1 1_555 1_555
C4 C5 1_555 1_555
C14 C15 1_555 1_555
C5A C4A 1_555 1_555

#END
