
#######################################################################
#
#                 Cambridge Crystallographic Data Centre
#                                CCDC 
#
#######################################################################
#
# If this CIF has been generated from an entry in the Cambridge 
# Structural Database, then it will include bibliographic, chemical, 
# crystal, experimental, refinement or atomic coordinate data resulting 
# from the CCDC's data processing and validation procedures.
#
#######################################################################

data_VAQBIY
_symmetry_cell_setting           triclinic
_symmetry_space_group_name_H-M   'P -1'
_symmetry_Int_Tables_number      2
_space_group_name_Hall           '-P 1'
loop_
_symmetry_equiv_pos_site_id
_symmetry_equiv_pos_as_xyz
1 x,y,z
2 -x,-y,-z
_cell_length_a                   9.0230(11)
_cell_length_b                   11.299(2)
_cell_length_c                   16.397(2)
_cell_angle_alpha                74.429(11)
_cell_angle_beta                 83.132(9)
_cell_angle_gamma                70.654(12)
_cell_volume                     1518.54
loop_
_atom_site_label
_atom_site_type_symbol
_atom_site_fract_x
_atom_site_fract_y
_atom_site_fract_z
Zn1 Zn 0.1854(1) -0.7272(1) 0.2090(1)
O1 O 0.4244(2) -0.8009(2) 0.2342(1)
O2 O 0.1206(3) -0.7609(2) 0.3363(1)
O3 O -0.0418(2) -0.6510(2) 0.1628(1)
Cl1 Cl 0.2743(1) -0.6532(1) -0.0174(1)
O5 O 0.2874(3) -0.7022(2) 0.0709(1)
O6 O 0.3704(3) -0.7499(3) -0.0562(2)
O7 O 0.3246(4) -0.5437(2) -0.0427(2)
O8 O 0.1182(4) -0.6242(3) -0.0397(3)
N1 N 0.1902(2) -0.5391(2) 0.1995(1)
N2 N 0.1851(2) 0.0889(2) 0.2013(1)
C1 C 0.0768(3) 0.0377(2) 0.2451(2)
C2 C 0.0733(3) -0.0831(2) 0.2450(2)
C3 C 0.1844(3) -0.1574(2) 0.1980(2)
C4 C 0.2947(3) -0.1022(2) 0.1515(2)
C5 C 0.2908(3) 0.0179(2) 0.1550(2)
C6 C 0.1854(3) -0.2887(2) 0.1968(2)
C7 C 0.0694(3) -0.3398(2) 0.2392(2)
C8 C 0.0759(3) -0.4626(2) 0.2388(2)
C9 C 0.3021(3) -0.4904(2) 0.1582(2)
C10 C 0.3033(3) -0.3679(2) 0.1557(2)
H1 H 0.4848 -0.7960 0.1818
H2 H 0.4490 -0.8895 0.2658
H3 H 0.0080 -0.7336 0.3427
H4 H 0.1618 -0.8516 0.3623
H5 H -0.0361 -0.6284 0.1020
H6 H -0.0981 -0.5753 0.1828
H9 H 0.0000 0.0860 0.2769
H10 H -0.0039 -0.1149 0.2769
H11 H 0.3708 -0.1471 0.1177
H12 H 0.3665 0.0521 0.1237
H13 H -0.0128 -0.2906 0.2680
H14 H -0.0039 -0.4942 0.2674
H15 H 0.3831 -0.5417 0.1301
H16 H 0.3839 -0.3381 0.1263
N2_2 N 0.1851(2) -0.9111(2) 0.2013(1)
Zn1_2 Zn 0.1854(1) 0.2728(1) 0.2090(1)
O4 O 0.2335(4) -0.9904(3) 0.4489(2)
H7 H 0.2076 -1.0661 0.4487
H8 H 0.3237 -0.9868 0.4127
N3 N 0.0890(3) -0.3617(3) 0.5544(2)
N4 N 0.7013(3) -0.5635(3) 0.2597(2)
C11 C 0.1426(4) -0.4808(3) 0.5464(2)
C12 C 0.2548(4) -0.5229(3) 0.4872(2)
C13 C 0.3222(3) -0.4383(3) 0.4328(2)
C14 C 0.2644(5) -0.3121(3) 0.4398(2)
C15 C 0.1493(5) -0.2805(4) 0.5006(3)
C16 C 0.4508(3) -0.4814(3) 0.3717(2)
C17 C 0.5037(4) -0.6069(3) 0.3629(2)
C18 C 0.6278(4) -0.6427(3) 0.3069(2)
C19 C 0.6478(4) -0.4434(3) 0.2669(2)
C20 C 0.5266(3) -0.3969(3) 0.3214(2)
H17 H 0.1014 -0.5413 0.5834
H18 H 0.2852 -0.6087 0.4842
H19 H 0.3021 -0.2489 0.4034
H20 H 0.1123 -0.1946 0.5038
H21 H 0.4571 -0.6674 0.3948
H22 H 0.6611 -0.7278 0.3020
H23 H 0.6946 -0.3849 0.2323
H24 H 0.4969 -0.3111 0.3245
N5 N -0.3342(3) 0.1184(3) 0.1268(2)
C21 C -0.2495(4) 0.1925(3) 0.0858(2)
C22 C -0.1173(4) 0.1507(3) 0.0365(2)
C23 C -0.0697(3) 0.0245(3) 0.0265(2)
C24 C -0.1596(3) -0.0524(3) 0.0693(2)
C25 C -0.2872(4) -0.0030(3) 0.1188(2)
H25 H -0.2804 0.2776 0.0904
H26 H -0.0599 0.2062 0.0102
H27 H -0.1336 -0.1374 0.0651
H28 H -0.3445 -0.0571 0.1484
C23A C 0.0697(3) -0.0245(3) -0.0265(2)
C22A C 0.1173(4) -0.1507(3) -0.0365(2)
C21A C 0.2495(4) -0.1925(3) -0.0858(2)
N5A N 0.3342(3) -0.1184(3) -0.1268(2)
C25A C 0.2872(4) 0.0030(3) -0.1188(2)
C24A C 0.1596(3) 0.0524(3) -0.0693(2)
H27A H 0.1336 0.1374 -0.0651
H28A H 0.3445 0.0571 -0.1484
H25A H 0.2804 -0.2776 -0.0904
H26A H 0.0599 -0.2062 -0.0102
Cl2 Cl 0.3457(1) -0.8909(1) 0.6196(1)
O9 O 0.2941(6) -0.9980(4) 0.6325(2)
O10 O 0.3835(6) -0.8491(4) 0.5311(3)
O11 O 0.2313(5) -0.7928(4) 0.6439(3)
O12 O 0.4867(5) -0.9273(4) 0.6649(3)
O13? O 0.3918(17) -0.0253(11) 0.6288(7)
O14? O 0.4575(18) 0.1623(13) 0.5739(13)
O15? O 0.2006(17) 0.1655(16) 0.5823(10)
O16? O 0.3120(2) 0.1459(13) 0.7010(8)
loop_
_geom_bond_atom_site_label_1
_geom_bond_atom_site_label_2
_geom_bond_site_symmetry_1
_geom_bond_site_symmetry_2
Zn1 O1 1_555 1_555
O1 H1 1_555 1_555
O2 Zn1 1_555 1_555
O3 Zn1 1_555 1_555
O4 H7 1_555 1_555
Cl1 O5 1_555 1_555
O5 Zn1 1_555 1_555
O6 Cl1 1_555 1_555
O7 Cl1 1_555 1_555
O8 Cl1 1_555 1_555
N1 Zn1 1_555 1_555
N2 C1 1_555 1_555
C1 C2 1_555 1_555
C2 C3 1_555 1_555
C3 C4 1_555 1_555
C4 C5 1_555 1_555
C5 N2 1_555 1_555
C6 C3 1_555 1_555
C7 C6 1_555 1_555
C8 N1 1_555 1_555
C9 N1 1_555 1_555
C10 C6 1_555 1_555
N3 C11 1_555 1_555
N4 C18 1_555 1_555
C11 C12 1_555 1_555
C12 C13 1_555 1_555
C13 C14 1_555 1_555
C14 C15 1_555 1_555
C15 N3 1_555 1_555
C16 C13 1_555 1_555
C17 C16 1_555 1_555
C18 C17 1_555 1_555
C19 N4 1_555 1_555
C20 C16 1_555 1_555
N5 C21 1_555 1_555
C21 C22 1_555 1_555
C22 C23 1_555 1_555
C23 C24 1_555 1_555
C24 C25 1_555 1_555
C25 N5 1_555 1_555
Cl2 O9 1_555 1_555
O10 Cl2 1_555 1_555
O11 Cl2 1_555 1_555
O12 Cl2 1_555 1_555
H2 O1 1_555 1_555
H3 O2 1_555 1_555
H4 O2 1_555 1_555
H5 O3 1_555 1_555
H6 O3 1_555 1_555
H8 O4 1_555 1_555
H9 C1 1_555 1_555
H10 C2 1_555 1_555
H11 C4 1_555 1_555
H12 C5 1_555 1_555
H13 C7 1_555 1_555
H14 C8 1_555 1_555
H15 C9 1_555 1_555
H16 C10 1_555 1_555
H17 C11 1_555 1_555
H18 C12 1_555 1_555
H19 C14 1_555 1_555
H20 C15 1_555 1_555
H21 C17 1_555 1_555
H22 C18 1_555 1_555
H23 C19 1_555 1_555
H24 C20 1_555 1_555
H25 C21 1_555 1_555
H26 C22 1_555 1_555
H27 C24 1_555 1_555
H28 C25 1_555 1_555
N2_2 Zn1 1_555 1_555
Zn1_2 N2 1_555 1_555
C23A C23 1_555 1_555
C22A C23A 1_555 1_555
C21A C22A 1_555 1_555
N5A C21A 1_555 1_555
C25A N5A 1_555 1_555
C24A C23A 1_555 1_555
H27A C24A 1_555 1_555
H28A C25A 1_555 1_555
H25A C21A 1_555 1_555
H26A C22A 1_555 1_555
C7 C8 1_555 1_555
C9 C10 1_555 1_555
C19 C20 1_555 1_555
C25A C24A 1_555 1_555

#END
