
#######################################################################
#
#                 Cambridge Crystallographic Data Centre
#                                CCDC 
#
#######################################################################
#
# If this CIF has been generated from an entry in the Cambridge 
# Structural Database, then it will include bibliographic, chemical, 
# crystal, experimental, refinement or atomic coordinate data resulting 
# from the CCDC's data processing and validation procedures.
#
#######################################################################

data_VAQGIE
_symmetry_cell_setting           monoclinic
_symmetry_space_group_name_H-M   'C 2/c'
_symmetry_Int_Tables_number      15
_space_group_name_Hall           '-C 2yn'
loop_
_symmetry_equiv_pos_site_id
_symmetry_equiv_pos_as_xyz
1 x,y,z
2 1/2+x,1/2+y,z
3 x,-y,1/2+z
4 1/2+x,1/2-y,1/2+z
5 -x,-y,-z
6 1/2-x,1/2-y,-z
7 -x,y,1/2-z
8 1/2-x,1/2+y,1/2-z
_cell_length_a                   14.9071(4)
_cell_length_b                   13.8594(4)
_cell_length_c                   7.0292(1)
_cell_angle_alpha                90
_cell_angle_beta                 108.509(1)
_cell_angle_gamma                90
_cell_volume                     1377.14
loop_
_atom_site_label
_atom_site_type_symbol
_atom_site_fract_x
_atom_site_fract_y
_atom_site_fract_z
Cu1 Cu 0.5000 0.29940(5) 0.2500
Cl1 Cl 0.5000 0.36079(11) -0.2500
O1 O 0.4030(2) 0.3972(2) 0.2444(5)
O2 O 0.4619(3) 0.3017(2) -0.1194(5)
O3 O 0.4234(2) 0.4242(2) -0.3765(5)
N1 N 0.4106(3) 0.1899(3) 0.2372(6)
C1 C 0.4503(3) 0.1019(3) 0.2421(6)
C2 C 0.3190(3) 0.1926(4) 0.2270(8)
H1 H 0.2897 0.2522 0.2233
C3 C 0.2667(4) 0.1088(5) 0.2217(9)
H2 H 0.2035 0.1131 0.2150
C4 C 0.3073(4) 0.0207(4) 0.2264(8)
H3 H 0.2721 -0.0351 0.2223
C5 C 0.4039(4) 0.0146(4) 0.2377(7)
C6 C 0.4531(4) -0.0738(4) 0.2437(8)
H4 H 0.4214 -0.1321 0.2391
O2F O 0.5381(3) 0.3017(2) -0.3806(5)
O3F O 0.5766(2) 0.4242(2) -0.1235(5)
C1F C 0.5497(3) 0.1019(3) 0.2579(6)
N1F N 0.5894(3) 0.1899(3) 0.2628(6)
C2F C 0.6810(3) 0.1926(4) 0.2730(8)
H1F H 0.7103 0.2522 0.2767
C3F C 0.7333(4) 0.1088(5) 0.2783(9)
H2F H 0.7965 0.1131 0.2850
C4F C 0.6927(4) 0.0207(4) 0.2736(8)
H3F H 0.7279 -0.0351 0.2777
C5F C 0.5961(4) 0.0146(4) 0.2623(7)
C6F C 0.5469(4) -0.0738(4) 0.2563(8)
H4F H 0.5786 -0.1321 0.2609
O1F O 0.5970(2) 0.3972(2) 0.2556(5)
O2F_2 O 0.5381(3) 0.3017(2) 0.6194(5)
Cu1_2 Cu 0.5000 0.29940(5) -0.7500
loop_
_geom_bond_atom_site_label_1
_geom_bond_atom_site_label_2
_geom_bond_site_symmetry_1
_geom_bond_site_symmetry_2
Cu1 O1 1_555 1_555
Cl1 O2 1_555 1_555
O2 Cu1 1_555 1_555
O3 Cl1 1_555 1_555
N1 Cu1 1_555 1_555
C1 N1 1_555 1_555
C2 N1 1_555 1_555
H1 C2 1_555 1_555
C3 C2 1_555 1_555
H2 C3 1_555 1_555
C4 C3 1_555 1_555
H3 C4 1_555 1_555
C5 C1 1_555 1_555
C6 C5 1_555 1_555
H4 C6 1_555 1_555
O2F Cl1 1_555 1_555
O3F Cl1 1_555 1_555
C1F C1 1_555 1_555
N1F Cu1 1_555 1_555
C2F N1F 1_555 1_555
H1F C2F 1_555 1_555
C3F C2F 1_555 1_555
H2F C3F 1_555 1_555
C4F C3F 1_555 1_555
H3F C4F 1_555 1_555
C5F C1F 1_555 1_555
C6F C6 1_555 1_555
H4F C6F 1_555 1_555
O1F Cu1 1_555 1_555
O2F_2 Cu1 1_555 1_555
Cu1_2 O2F 1_555 1_555
C4 C5 1_555 1_555
C1F N1F 1_555 1_555
C4F C5F 1_555 1_555
C5F C6F 1_555 1_555

#END
