
#######################################################################
#
#                 Cambridge Crystallographic Data Centre
#                                CCDC 
#
#######################################################################
#
# If this CIF has been generated from an entry in the Cambridge 
# Structural Database, then it will include bibliographic, chemical, 
# crystal, experimental, refinement or atomic coordinate data resulting 
# from the CCDC's data processing and validation procedures.
#
#######################################################################

data_VAQHEA
_symmetry_cell_setting           triclinic
_symmetry_space_group_name_H-M   'P -1'
_symmetry_Int_Tables_number      2
_space_group_name_Hall           '-P 1'
loop_
_symmetry_equiv_pos_site_id
_symmetry_equiv_pos_as_xyz
1 x,y,z
2 -x,-y,-z
_cell_length_a                   8.731(3)
_cell_length_b                   8.965(3)
_cell_length_c                   16.319(6)
_cell_angle_alpha                95.40(3)
_cell_angle_beta                 104.74(3)
_cell_angle_gamma                109.74(3)
_cell_volume                     1139.74
loop_
_atom_site_label
_atom_site_type_symbol
_atom_site_fract_x
_atom_site_fract_y
_atom_site_fract_z
Cu1 Cu 0.0000 0.0000 0.0000
Cu2 Cu 0.5000 0.5000 0.0000
N1 N 0.3625(5) 0.4951(5) 0.0801(2)
N2 N 0.2271(5) 0.3943(4) 0.0697(2)
N3 N 0.0942(5) 0.3003(4) 0.0619(3)
N4 N 0.1727(4) 0.0371(4) -0.0628(2)
N5 N 0.3169(5) 0.1204(4) -0.0311(2)
N6 N 0.4589(5) 0.2036(5) -0.0033(3)
N7 N 0.1632(4) -0.0225(4) 0.1051(2)
C1 C 0.1849(5) 0.0553(5) 0.1840(2)
C2 C 0.2844(5) 0.0335(5) 0.2582(3)
C3 C 0.3655(6) -0.0737(6) 0.2506(3)
C4 C 0.3473(6) -0.1491(6) 0.1703(3)
C5 C 0.2461(5) -0.1209(5) 0.0989(3)
C6 C 0.2970(6) 0.1127(6) 0.3454(3)
O1 O 0.2975(5) 0.0354(4) 0.4032(2)
C7 C 0.3131(5) 0.2826(5) 0.3611(3)
C8 C 0.2587(6) 0.3369(6) 0.4267(3)
C9 C 0.2824(7) 0.4955(7) 0.4475(3)
C10 C 0.3572(7) 0.6025(7) 0.4027(3)
C11 C 0.4122(6) 0.5537(6) 0.3371(4)
C12 C 0.3878(6) 0.3932(6) 0.3152(3)
N8 N 0.2914(4) 0.4395(4) -0.1064(2)
C13 C 0.2763(5) 0.3423(5) -0.1773(3)
C14 C 0.1471(5) 0.3071(5) -0.2536(3)
C15 C 0.0267(6) 0.3760(6) -0.2558(3)
C16 C 0.0388(6) 0.4718(6) -0.1830(3)
C17 C 0.1729(6) 0.5020(5) -0.1096(3)
C18 C 0.1402(5) 0.2125(6) -0.3362(3)
O2 O 0.1062(5) 0.2622(4) -0.4023(2)
C19 C 0.1747(5) 0.0607(5) -0.3361(3)
C20 C 0.1973(6) -0.0076(6) -0.4102(3)
C21 C 0.2195(7) -0.1509(7) -0.4141(4)
C22 C 0.2203(7) -0.2290(7) -0.3458(4)
C23 C 0.1994(6) -0.1621(6) -0.2723(3)
C24 C 0.1763(5) -0.0195(5) -0.2676(3)
H1 H 0.1301(5) 0.1270(5) 0.1887(2)
H2 H 0.4313(6) -0.0939(6) 0.2996(3)
H3 H 0.4031(6) -0.2193(6) 0.1638(3)
H4 H 0.2353(5) -0.1724(5) 0.0444(3)
H5 H 0.2050(6) 0.2637(6) 0.4569(3)
H6 H 0.2473(7) 0.5302(7) 0.4925(3)
H7 H 0.3714(7) 0.7104(7) 0.4165(3)
H8 H 0.4657(6) 0.6286(6) 0.3076(4)
H9 H 0.4214(6) 0.3591(6) 0.2695(3)
H10 H 0.3573(5) 0.2958(5) -0.1752(3)
H11 H -0.0614(6) 0.3569(6) -0.3064(3)
H12 H -0.0429(6) 0.5166(6) -0.1828(3)
H13 H 0.1808(6) 0.5688(5) -0.0602(3)
H14 H 0.1972(6) 0.0445(6) -0.4568(3)
H15 H 0.2342(7) -0.1964(7) -0.4637(4)
H16 H 0.2351(7) -0.3272(7) -0.3492(4)
H17 H 0.2010(6) -0.2143(6) -0.2256(3)
H18 H 0.1612(5) 0.0248(5) -0.2178(3)
N1A N 0.6375(5) 0.5049(5) -0.0801(2)
N2A N 0.7729(5) 0.6057(4) -0.0697(2)
N3A N 0.9058(5) 0.6997(4) -0.0619(3)
Cu1A Cu 1.0000 1.0000 0.0000
N4A N 0.8273(4) 0.9629(4) 0.0628(2)
N5A N 0.6831(5) 0.8796(4) 0.0311(2)
N6A N 0.5411(5) 0.7964(5) 0.0033(3)
N3A_2 N -0.0942(5) -0.3003(4) -0.0619(3)
N4A_2 N -0.1727(4) -0.0371(4) 0.0628(2)
N7A N -0.1632(4) 0.0225(4) -0.1051(2)
C1A C -0.1849(5) -0.0553(5) -0.1840(2)
C2A C -0.2844(5) -0.0335(5) -0.2582(3)
C3A C -0.3655(6) 0.0737(6) -0.2506(3)
C4A C -0.3473(6) 0.1491(6) -0.1703(3)
C5A C -0.2461(5) 0.1209(5) -0.0989(3)
H4A H -0.2353(5) 0.1724(5) -0.0444(3)
H3A H -0.4031(6) 0.2193(6) -0.1638(3)
H2A H -0.4313(6) 0.0939(6) -0.2996(3)
C6A C -0.2970(6) -0.1127(6) -0.3454(3)
O1A O -0.2975(5) -0.0354(4) -0.4032(2)
C7A C -0.3131(5) -0.2826(5) -0.3611(3)
C8A C -0.2587(6) -0.3369(6) -0.4267(3)
C9A C -0.2824(7) -0.4955(7) -0.4475(3)
C10A C -0.3572(7) -0.6025(7) -0.4027(3)
C11A C -0.4122(6) -0.5537(6) -0.3371(4)
C12A C -0.3878(6) -0.3932(6) -0.3152(3)
H9A H -0.4214(6) -0.3591(6) -0.2695(3)
H8A H -0.4657(6) -0.6286(6) -0.3076(4)
H7A H -0.3714(7) -0.7104(7) -0.4165(3)
H6A H -0.2473(7) -0.5302(7) -0.4925(3)
H5A H -0.2050(6) -0.2637(6) -0.4569(3)
H1A H -0.1301(5) -0.1270(5) -0.1887(2)
N8A N 0.7086(4) 0.5605(4) 0.1064(2)
C13A C 0.7237(5) 0.6577(5) 0.1773(3)
C14A C 0.8529(5) 0.6929(5) 0.2536(3)
C15A C 0.9733(6) 0.6240(6) 0.2558(3)
C16A C 0.9612(6) 0.5282(6) 0.1830(3)
C17A C 0.8271(6) 0.4980(5) 0.1096(3)
H13A H 0.8192(6) 0.4312(5) 0.0602(3)
H12A H 1.0429(6) 0.4834(6) 0.1828(3)
H11A H 1.0614(6) 0.6431(6) 0.3064(3)
C18A C 0.8598(5) 0.7875(6) 0.3362(3)
O2A O 0.8938(5) 0.7378(4) 0.4023(2)
C19A C 0.8253(5) 0.9393(5) 0.3361(3)
C20A C 0.8027(6) 1.0076(6) 0.4102(3)
C21A C 0.7805(7) 1.1509(7) 0.4141(4)
C22A C 0.7797(7) 1.2290(7) 0.3458(4)
C23A C 0.8006(6) 1.1621(6) 0.2723(3)
C24A C 0.8237(5) 1.0195(5) 0.2676(3)
H18A H 0.8388(5) 0.9752(5) 0.2178(3)
H17A H 0.7990(6) 1.2143(6) 0.2256(3)
H16A H 0.7649(7) 1.3272(7) 0.3492(4)
H15A H 0.7658(7) 1.1964(7) 0.4637(4)
H14A H 0.8028(6) 0.9555(6) 0.4568(3)
H10A H 0.6427(5) 0.7042(5) 0.1752(3)
loop_
_geom_bond_atom_site_label_1
_geom_bond_atom_site_label_2
_geom_bond_site_symmetry_1
_geom_bond_site_symmetry_2
Cu1 N3 1_555 1_555
Cu2 N1 1_555 1_555
N1 N2 1_555 1_555
N2 N3 1_555 1_555
N4 Cu1 1_555 1_555
N5 N4 1_555 1_555
N6 Cu2 1_555 1_555
N7 Cu1 1_555 1_555
C1 N7 1_555 1_555
C2 C1 1_555 1_555
C3 C2 1_555 1_555
C4 C3 1_555 1_555
C5 N7 1_555 1_555
C6 C2 1_555 1_555
O1 C6 1_555 1_555
C7 C6 1_555 1_555
C8 C7 1_555 1_555
C9 C8 1_555 1_555
C10 C9 1_555 1_555
C11 C10 1_555 1_555
C12 C7 1_555 1_555
N8 Cu2 1_555 1_555
C13 N8 1_555 1_555
C14 C13 1_555 1_555
C15 C14 1_555 1_555
C16 C15 1_555 1_555
C17 N8 1_555 1_555
C18 C14 1_555 1_555
O2 C18 1_555 1_555
C19 C18 1_555 1_555
C20 C19 1_555 1_555
C21 C20 1_555 1_555
C22 C21 1_555 1_555
C23 C22 1_555 1_555
C24 C19 1_555 1_555
H1 C1 1_555 1_555
H2 C3 1_555 1_555
H3 C4 1_555 1_555
H4 C5 1_555 1_555
H5 C8 1_555 1_555
H6 C9 1_555 1_555
H7 C10 1_555 1_555
H8 C11 1_555 1_555
H9 C12 1_555 1_555
H10 C13 1_555 1_555
H11 C15 1_555 1_555
H12 C16 1_555 1_555
H13 C17 1_555 1_555
H14 C20 1_555 1_555
H15 C21 1_555 1_555
H16 C22 1_555 1_555
H17 C23 1_555 1_555
H18 C24 1_555 1_555
N1A Cu2 1_555 1_555
N2A N1A 1_555 1_555
N3A N2A 1_555 1_555
Cu1A N3A 1_555 1_555
N4A Cu1A 1_555 1_555
N5A N4A 1_555 1_555
N6A Cu2 1_555 1_555
N3A_2 Cu1 1_555 1_555
N4A_2 Cu1 1_555 1_555
N7A Cu1 1_555 1_555
C1A N7A 1_555 1_555
C2A C1A 1_555 1_555
C3A C2A 1_555 1_555
C4A C3A 1_555 1_555
C5A N7A 1_555 1_555
H4A C5A 1_555 1_555
H3A C4A 1_555 1_555
H2A C3A 1_555 1_555
C6A C2A 1_555 1_555
O1A C6A 1_555 1_555
C7A C6A 1_555 1_555
C8A C7A 1_555 1_555
C9A C8A 1_555 1_555
C10A C9A 1_555 1_555
C11A C10A 1_555 1_555
C12A C7A 1_555 1_555
H9A C12A 1_555 1_555
H8A C11A 1_555 1_555
H7A C10A 1_555 1_555
H6A C9A 1_555 1_555
H5A C8A 1_555 1_555
H1A C1A 1_555 1_555
N8A Cu2 1_555 1_555
C13A N8A 1_555 1_555
C14A C13A 1_555 1_555
C15A C14A 1_555 1_555
C16A C15A 1_555 1_555
C17A N8A 1_555 1_555
H13A C17A 1_555 1_555
H12A C16A 1_555 1_555
H11A C15A 1_555 1_555
C18A C14A 1_555 1_555
O2A C18A 1_555 1_555
C19A C18A 1_555 1_555
C20A C19A 1_555 1_555
C21A C20A 1_555 1_555
C22A C21A 1_555 1_555
C23A C22A 1_555 1_555
C24A C19A 1_555 1_555
H18A C24A 1_555 1_555
H17A C23A 1_555 1_555
H16A C22A 1_555 1_555
H15A C21A 1_555 1_555
H14A C20A 1_555 1_555
H10A C13A 1_555 1_555
N5 N6 1_555 1_555
C4 C5 1_555 1_555
C11 C12 1_555 1_555
C16 C17 1_555 1_555
C23 C24 1_555 1_555
N5A N6A 1_555 1_555
C4A C5A 1_555 1_555
C11A C12A 1_555 1_555
C16A C17A 1_555 1_555
C23A C24A 1_555 1_555

#END
