
#######################################################################
#
#                 Cambridge Crystallographic Data Centre
#                                CCDC 
#
#######################################################################
#
# If this CIF has been generated from an entry in the Cambridge 
# Structural Database, then it will include bibliographic, chemical, 
# crystal, experimental, refinement or atomic coordinate data resulting 
# from the CCDC's data processing and validation procedures.
#
#######################################################################

data_VAQQEK
_symmetry_cell_setting           triclinic
_symmetry_space_group_name_H-M   'P -1'
_symmetry_Int_Tables_number      2
_space_group_name_Hall           '-P 1'
loop_
_symmetry_equiv_pos_site_id
_symmetry_equiv_pos_as_xyz
1 x,y,z
2 -x,-y,-z
_cell_length_a                   8.2950(8)
_cell_length_b                   10.833(1)
_cell_length_c                   12.417(1)
_cell_angle_alpha                110.393(2)
_cell_angle_beta                 106.605(2)
_cell_angle_gamma                97.084(2)
_cell_volume                     970.891
loop_
_atom_site_label
_atom_site_type_symbol
_atom_site_fract_x
_atom_site_fract_y
_atom_site_fract_z
Cu1 Cu 0.2250(1) -0.1127(1) -0.2928(1)
Mo1 Mo 0.0113(1) -0.4430(1) -0.3530(1)
Mo2 Mo -0.3756(1) -0.4275(1) -0.3481(1)
Mo3 Mo -0.4114(1) -0.7463(1) -0.4868(1)
Mo4 Mo -0.8049(1) -0.7336(1) -0.4950(1)
O1 O 0.0481(7) -0.4833(5) -0.2293(5)
O2 O -0.1564(7) -0.3232(5) -0.3361(5)
O3 O -0.2506(7) -0.5746(5) -0.4319(5)
O4 O -0.3261(7) -0.4372(5) -0.2106(5)
O5 O -0.5639(6) -0.5852(5) -0.4535(5)
O6 O -0.4881(6) -0.3001(5) -0.3362(5)
O7 O -0.3280(7) -0.8671(5) -0.5701(5)
O8 O -0.3715(7) -0.7626(6) -0.3514(5)
O9 O -0.7496(8) -0.7263(6) -0.3503(5)
O10 O -0.6577(7) -0.8394(5) -0.5601(5)
O11 O 0.0846(7) -0.5775(5) -0.4647(5)
O12 O -0.0070(7) -0.1377(6) -0.4201(5)
O13 O 0.1767(7) -0.2994(5) -0.2996(5)
C1 C 0.4401(11) 0.1499(9) -0.1878(7)
C2 C 0.5449(11) 0.2763(8) -0.1026(7)
C3 C 0.5603(10) 0.3111(8) 0.0193(8)
C4 C 0.4724(11) 0.2205(9) 0.0503(8)
C5 C 0.3650(10) 0.0964(8) -0.0401(7)
C6 C 0.2595(10) -0.0026(8) -0.0151(8)
C7 C 0.2528(10) 0.0105(8) 0.0953(8)
C8 C 0.1458(10) -0.0890(8) 0.1149(7)
C9 C 0.0376(11) -0.2151(8) 0.0233(8)
C10 C -0.0591(11) -0.3017(8) 0.0529(8)
C11 C -0.0495(11) -0.2630(8) 0.1756(8)
C12 C 0.0585(10) -0.1422(8) 0.2625(7)
N1 N 0.3518(8) 0.0614(6) -0.1591(6)
N2 N 0.1520(9) -0.0601(7) 0.2309(6)
H1 H 0.4305 0.1251 -0.2694
H2 H 0.6027 0.3356 -0.1262
H3 H 0.6295 0.3948 0.0794
H4 H 0.4845 0.2422 0.1321
H5 H 0.1907 -0.0818 -0.0821
H6 H 0.3217 0.0887 0.1634
H7 H 0.0319 -0.2396 -0.0575
H8 H -0.1301 -0.3848 -0.0073
H9 H -0.1162 -0.3193 0.1972
H10 H 0.0673 -0.1166 0.3440
H11 H 0.233(10) 0.0230(80) 0.2950(70)
O11_2 O -0.9154(7) -0.5775(5) -0.4647(5)
Mo1A Mo -1.0113(1) -0.5570(1) -0.6470(1)
O1A O -1.0481(7) -0.5167(5) -0.7707(5)
O2A O -0.8436(7) -0.6768(5) -0.6639(5)
Mo2A Mo -0.6244(1) -0.5725(1) -0.6519(1)
O3A O -0.7494(7) -0.4254(5) -0.5681(5)
O11A O -1.0846(7) -0.4225(5) -0.5353(5)
Mo1_2 Mo -0.9887(1) -0.4430(1) -0.3530(1)
Cu1_2 Cu -0.7750(1) -0.1127(1) -0.2928(1)
O7A O -0.6720(7) -0.1329(5) -0.4299(5)
Mo3A Mo -0.5886(1) -0.2537(1) -0.5132(1)
O5A O -0.4361(6) -0.4148(5) -0.5465(5)
O4A O -0.6739(7) -0.5628(5) -0.7894(5)
O6A O -0.5119(6) -0.6999(5) -0.6638(5)
Mo4A Mo -0.1951(1) -0.2664(1) -0.5050(1)
O9A O -0.2504(8) -0.2737(6) -0.6497(5)
O10A O -0.3423(7) -0.1606(5) -0.4399(5)
O8A O -0.6285(7) -0.2374(6) -0.6486(5)
O11A_2 O -0.0846(7) -0.4225(5) -0.5353(5)
Mo1A_2 Mo -0.0113(1) -0.5570(1) -0.6470(1)
Cu1A Cu -0.2250(1) -0.8873(1) -0.7072(1)
O7A_2 O 0.3280(7) -0.1329(5) -0.4299(5)
Mo4A_2 Mo -1.1951(1) -0.2664(1) -0.5050(1)
O13A O -1.1767(7) -0.7006(5) -0.7004(5)
Cu1A_2 Cu -1.2250(1) -0.8873(1) -0.7072(1)
O7_2 O -1.3280(7) -0.8671(5) -0.5701(5)
O12A O -0.9930(7) -0.8623(6) -0.5799(5)
N1A N -1.3518(8) -1.0614(6) -0.8409(6)
C1A C -1.4401(11) -1.1499(9) -0.8122(7)
C2A C -1.5449(11) -1.2763(8) -0.8974(7)
C3A C -1.5603(10) -1.3111(8) -1.0193(8)
C4A C -1.4724(11) -1.2205(9) -1.0503(8)
C5A C -1.3650(10) -1.0964(8) -0.9599(7)
C6A C -1.2595(10) -0.9974(8) -0.9849(8)
C7A C -1.2528(10) -1.0105(8) -1.0953(8)
C8A C -1.1458(10) -0.9110(8) -1.1149(7)
C9A C -1.0376(11) -0.7849(8) -1.0233(8)
C10A C -0.9409(11) -0.6983(8) -1.0529(8)
C11A C -0.9505(11) -0.7370(8) -1.1756(8)
C12A C -1.0585(10) -0.8578(8) -1.2625(7)
N2A N -1.1520(9) -0.9399(7) -1.2309(6)
H11A H -1.233(10) -1.0230(80) -1.2950(70)
H10A H -1.0673 -0.8834 -1.3440
H9A H -0.8838 -0.6807 -1.1972
H8A H -0.8699 -0.6152 -0.9927
H7A H -1.0319 -0.7604 -0.9425
H6A H -1.3217 -1.0887 -1.1634
H5A H -1.1907 -0.9182 -0.9179
H4A H -1.4845 -1.2422 -1.1321
H3A H -1.6295 -1.3948 -1.0794
H2A H -1.6027 -1.3356 -0.8738
H1A H -1.4305 -1.1251 -0.7306
Mo4_2 Mo 0.1951(1) -0.7336(1) -0.4950(1)
loop_
_geom_bond_atom_site_label_1
_geom_bond_atom_site_label_2
_geom_bond_site_symmetry_1
_geom_bond_site_symmetry_2
Cu1 O12 1_555 1_555
Mo1 O1 1_555 1_555
Mo2 O2 1_555 1_555
Mo3 O3 1_555 1_555
Mo4 O5 1_555 1_555
O2 Mo1 1_555 1_555
O3 Mo1 1_555 1_555
O4 Mo2 1_555 1_555
O5 Mo2 1_555 1_555
O6 Mo2 1_555 1_555
O7 Mo3 1_555 1_555
O8 Mo3 1_555 1_555
O9 Mo4 1_555 1_555
O10 Mo3 1_555 1_555
O11 Mo1 1_555 1_555
O12 Mo4A 1_555 1_555
O13 Cu1 1_555 1_555
C1 C2 1_555 1_555
C2 C3 1_555 1_555
C3 C4 1_555 1_555
C4 C5 1_555 1_555
C5 C6 1_555 1_555
C6 C7 1_555 1_555
C7 C8 1_555 1_555
C8 C9 1_555 1_555
C9 C10 1_555 1_555
C10 C11 1_555 1_555
C11 C12 1_555 1_555
C12 N2 1_555 1_555
N1 Cu1 1_555 1_555
N2 C8 1_555 1_555
H1 C1 1_555 1_555
H2 C2 1_555 1_555
H3 C3 1_555 1_555
H4 C4 1_555 1_555
H5 C6 1_555 1_555
H6 C7 1_555 1_555
H7 C9 1_555 1_555
H8 C10 1_555 1_555
H9 C11 1_555 1_555
H10 C12 1_555 1_555
H11 N2 1_555 1_555
O11_2 Mo4 1_555 1_555
Mo1A O11_2 1_555 1_555
O1A Mo1A 1_555 1_555
O2A Mo1A 1_555 1_555
Mo2A O2A 1_555 1_555
O3A Mo1A 1_555 1_555
O11A Mo1A 1_555 1_555
Mo1_2 O11_2 1_555 1_555
Cu1_2 O7A 1_555 1_555
O7A Mo3A 1_555 1_555
Mo3A O3A 1_555 1_555
O5A Mo2A 1_555 1_555
O4A Mo2A 1_555 1_555
O6A Mo2A 1_555 1_555
Mo4A O5A 1_555 1_555
O9A Mo4A 1_555 1_555
O10A Mo3A 1_555 1_555
O8A Mo3A 1_555 1_555
O11A_2 Mo1 1_555 1_555
Mo1A_2 O11 1_555 1_555
Cu1A O7 1_555 1_555
O7A_2 Cu1 1_555 1_555
Mo4A_2 O11A 1_555 1_555
O13A Mo1A 1_555 1_555
Cu1A_2 O13A 1_555 1_555
O7_2 Cu1A_2 1_555 1_555
O12A Mo4 1_555 1_555
N1A Cu1A_2 1_555 1_555
C1A N1A 1_555 1_555
C2A C1A 1_555 1_555
C3A C2A 1_555 1_555
C4A C3A 1_555 1_555
C5A N1A 1_555 1_555
C6A C5A 1_555 1_555
C7A C6A 1_555 1_555
C8A C7A 1_555 1_555
C9A C8A 1_555 1_555
C10A C9A 1_555 1_555
C11A C10A 1_555 1_555
C12A C11A 1_555 1_555
N2A C8A 1_555 1_555
H11A N2A 1_555 1_555
H10A C12A 1_555 1_555
H9A C11A 1_555 1_555
H8A C10A 1_555 1_555
H7A C9A 1_555 1_555
H6A C7A 1_555 1_555
H5A C6A 1_555 1_555
H4A C4A 1_555 1_555
H3A C3A 1_555 1_555
H2A C2A 1_555 1_555
H1A C1A 1_555 1_555
Mo4_2 O11 1_555 1_555
Mo1 O13 1_555 1_555
Mo2 O3 1_555 1_555
Mo3 O5 1_555 1_555
Mo4 O10 1_555 1_555
C1 N1 1_555 1_555
C5 N1 1_555 1_555
Mo2A O3A 1_555 1_555
O11A Mo1_2 1_555 1_555
Mo3A O5A 1_555 1_555
Mo4A O10A 1_555 1_555
Mo4A O11A_2 1_555 1_555
O11A_2 Mo1A_2 1_555 1_555
Cu1A_2 O12A 1_555 1_555
C4A C5A 1_555 1_555
C12A N2A 1_555 1_555

#END
