
#######################################################################
#
#                 Cambridge Crystallographic Data Centre
#                                CCDC 
#
#######################################################################
#
# If this CIF has been generated from an entry in the Cambridge 
# Structural Database, then it will include bibliographic, chemical, 
# crystal, experimental, refinement or atomic coordinate data resulting 
# from the CCDC's data processing and validation procedures.
#
#######################################################################

data_VAQQAG
_symmetry_cell_setting           monoclinic
_symmetry_space_group_name_H-M   'C 2/m'
_symmetry_Int_Tables_number      12
_space_group_name_Hall           '-C 2y'
loop_
_symmetry_equiv_pos_site_id
_symmetry_equiv_pos_as_xyz
1 x,y,z
2 -x,y,-z
3 1/2+x,1/2+y,z
4 1/2-x,1/2+y,-z
5 -x,-y,-z
6 x,-y,z
7 1/2-x,1/2-y,-z
8 1/2+x,1/2-y,z
_cell_length_a                   13.520(1)
_cell_length_b                   21.177(1)
_cell_length_c                   10.1819(7)
_cell_angle_alpha                90
_cell_angle_beta                 115.853(1)
_cell_angle_gamma                90
_cell_volume                     2623.44
loop_
_atom_site_label
_atom_site_type_symbol
_atom_site_fract_x
_atom_site_fract_y
_atom_site_fract_z
Cu1 Cu 0.1570(1) 0.2122(1) 0.5575(1)
Mo1 Mo 0.0120(1) 0.5000 0.3320(1)
Mo2 Mo -0.2721(1) 0.5000 0.2002(1)
Mo3 Mo 0.1390(1) 0.3914(1) 0.5653(1)
O1 O -0.3495(7) 0.5000 0.0174(9)
O2 O -0.3634(7) 0.5000 0.2757(9)
O3 O -0.2261(5) 0.4131(3) 0.2371(6)
O4 O 0.0069(5) 0.4108(2) 0.3794(6)
O5 O 0.1228(5) 0.3116(3) 0.5797(6)
O6 O 0.1131(6) 0.5000 0.5616(8)
O7 O 0.1095(7) 0.5000 0.2719(9)
O8 O -0.1132(6) 0.5000 0.1745(8)
O9 O 0.2321(5) 0.3978(3) 0.4963(6)
C1 C 0.0326(7) 0.1353(4) 0.3173(10)
C2 C -0.0384(7) 0.1159(4) 0.1780(10)
C3 C -0.0901(7) 0.1632(4) 0.0740(9)
C4 C -0.0705(6) 0.2262(4) 0.1140(8)
C5 C 0.0019(6) 0.2396(4) 0.2573(9)
C6 C -0.2225(7) 0.3688(4) -0.2030(9)
C7 C -0.1599(7) 0.3879(4) -0.0614(9)
C8 C -0.1108(7) 0.3401(4) 0.0433(9)
C9 C -0.1243(6) 0.2778(4) 0.0047(9)
C10 C -0.1913(6) 0.2635(4) -0.1411(9)
N1 N 0.0534(5) 0.1951(3) 0.3590(7)
N2 N -0.2393(6) 0.3081(3) -0.2447(7)
H1 H 0.0682 0.1042 0.3865
H2 H -0.0512 0.0734 0.1542
H3 H -0.1375 0.1523 -0.0215
H4 H 0.0157 0.2817 0.2849
H5 H -0.2549 0.3998 -0.2737
H6 H -0.1504 0.4304 -0.0360
H7 H -0.0684 0.3511 0.1403
H8 H -0.2036 0.2213 -0.1685
O4E O 0.0069(5) 0.5892(2) 0.3794(6)
Mo3E Mo 0.1390(1) 0.6086(1) 0.5653(1)
O3E O -0.2261(5) 0.5869(3) 0.2371(6)
O5E O 0.1228(5) 0.6884(3) 0.5797(6)
O9E O 0.2321(5) 0.6022(3) 0.4963(6)
Cu1E Cu 0.1570(1) 0.7878(1) 0.5575(1)
C1G C 0.5326(7) 0.3647(4) 1.3173(10)
C2G C 0.4616(7) 0.3841(4) 1.1780(10)
C3G C 0.4099(7) 0.3368(4) 1.0740(9)
C4G C 0.4295(6) 0.2738(4) 1.1140(8)
C5G C 0.5019(6) 0.2604(4) 1.2573(9)
C6G C 0.2775(7) 0.1312(4) 0.7970(9)
C7G C 0.3401(7) 0.1121(4) 0.9386(9)
C8G C 0.3892(7) 0.1599(4) 1.0433(9)
C9G C 0.3757(6) 0.2222(4) 1.0047(9)
C10G C 0.3087(6) 0.2365(4) 0.8589(9)
N1G N 0.5534(5) 0.3049(3) 1.3590(7)
N2G N 0.2607(6) 0.1919(3) 0.7553(7)
H1G H 0.5682 0.3958 1.3865
H2G H 0.4488 0.4266 1.1542
H3G H 0.3625 0.3477 0.9785
H4G H 0.5157 0.2183 1.2849
H5G H 0.2451 0.1002 0.7263
H6G H 0.3496 0.0696 0.9640
H7G H 0.4316 0.1489 1.1403
H8G H 0.2964 0.2787 0.8315
O6A O -0.1131(6) 0.5000 0.4384(8)
O3A O 0.2261(5) 0.4131(3) 0.7629(6)
O4A O -0.0069(5) 0.4108(2) 0.6206(6)
Mo3A Mo -0.1390(1) 0.3914(1) 0.4347(1)
Mo1A Mo -0.0120(1) 0.5000 0.6680(1)
Cu1G Cu -0.3430(1) 0.2878(1) -0.4425(1)
Mo3D Mo -0.1390(1) 0.6086(1) 0.4347(1)
O3D O 0.2261(5) 0.5869(3) 0.7629(6)
O4D O -0.0069(5) 0.5892(2) 0.6206(6)
N1E N 0.0534(5) 0.8049(3) 0.3590(7)
N2B N 0.2607(6) 0.8081(3) 0.7553(7)
Cu1G_2 Cu 0.6570(1) 0.2878(1) 1.5575(1)
O5D O -0.1228(5) 0.6884(3) 0.4203(6)
O9D O -0.2321(5) 0.6022(3) 0.5037(6)
Cu1D Cu -0.1570(1) 0.7878(1) 0.4425(1)
Mo2A Mo 0.2721(1) 0.5000 0.7998(1)
O1A O 0.3495(7) 0.5000 0.9826(9)
O2A O 0.3634(7) 0.5000 0.7243(9)
O8A O 0.1132(6) 0.5000 0.8255(8)
O5A O -0.1228(5) 0.3116(3) 0.4203(6)
O9A O -0.2321(5) 0.3978(3) 0.5037(6)
Cu1A Cu -0.1570(1) 0.2122(1) 0.4425(1)
C1E C 0.0326(7) 0.8647(4) 0.3173(10)
C5E C 0.0019(6) 0.7604(4) 0.2573(9)
C6B C 0.2775(7) 0.8688(4) 0.7970(9)
C10B C 0.3087(6) 0.7635(4) 0.8589(9)
C7B C 0.3401(7) 0.8879(4) 0.9386(9)
H5B H 0.2451 0.8998 0.7263
C9B C 0.3757(6) 0.7778(4) 1.0047(9)
H8B H 0.2964 0.7213 0.8315
C2E C -0.0384(7) 0.8841(4) 0.1780(10)
H1E H 0.0682 0.8958 0.3865
C4E C -0.0705(6) 0.7738(4) 0.1140(8)
H4E H 0.0157 0.7183 0.2849
C3E C -0.0901(7) 0.8368(4) 0.0740(9)
H2E H -0.0512 0.9266 0.1542
C9E C -0.1243(6) 0.7222(4) 0.0047(9)
C8B C 0.3892(7) 0.8401(4) 1.0433(9)
H6B H 0.3496 0.9304 0.9640
C4B C 0.4295(6) 0.7262(4) 1.1140(8)
C3B C 0.4099(7) 0.6632(4) 1.0740(9)
C5B C 0.5019(6) 0.7396(4) 1.2573(9)
H3E H -0.1375 0.8477 -0.0215
C8E C -0.1108(7) 0.6599(4) 0.0433(9)
C10E C -0.1913(6) 0.7365(4) -0.1411(9)
C2B C 0.4616(7) 0.6159(4) 1.1780(10)
H3B H 0.3625 0.6523 0.9785
N1B N 0.5534(5) 0.6951(3) 1.3590(7)
H4B H 0.5157 0.7817 1.2849
N2E N -0.2393(6) 0.6919(3) -0.2447(7)
H8E H -0.2036 0.7787 -0.1685
Cu1B Cu -0.3430(1) 0.7122(1) -0.4425(1)
C6E C -0.2225(7) 0.6312(4) -0.2030(9)
C7E C -0.1599(7) 0.6121(4) -0.0614(9)
H7E H -0.0684 0.6489 0.1403
Cu1B_2 Cu 0.6570(1) 0.7122(1) 1.5575(1)
C1B C 0.5326(7) 0.6353(4) 1.3173(10)
H2B H 0.4488 0.5734 1.1542
O5B O -0.3772(5) 0.8116(3) -0.4203(6)
N1B_2 N -0.4466(5) 0.6951(3) -0.6410(7)
O5G O -0.3772(5) 0.1884(3) -0.4203(6)
N1G_2 N -0.4466(5) 0.3049(3) -0.6410(7)
O7A O -0.1095(7) 0.5000 0.7281(9)
H7B H 0.4316 0.8511 1.1403
H5E H -0.2549 0.6002 -0.2737
H6E H -0.1504 0.5696 -0.0360
H1B H 0.5682 0.6042 1.3865
O10 O 0.3801(9) 0.5000 0.4373(13)
loop_
_geom_bond_atom_site_label_1
_geom_bond_atom_site_label_2
_geom_bond_site_symmetry_1
_geom_bond_site_symmetry_2
Cu1 O5 1_555 1_555
Mo1 O4 1_555 1_555
Mo2 O1 1_555 1_555
Mo3 O4 1_555 1_555
O2 Mo2 1_555 1_555
O3 Mo2 1_555 1_555
O4 Mo3A 1_555 1_555
O5 Mo3 1_555 1_555
O6 Mo1 1_555 1_555
O7 Mo1 1_555 1_555
O8 Mo1 1_555 1_555
O9 Mo3 1_555 1_555
C1 C2 1_555 1_555
C2 C3 1_555 1_555
C3 C4 1_555 1_555
C4 C5 1_555 1_555
C5 N1 1_555 1_555
C6 C7 1_555 1_555
C7 C8 1_555 1_555
C8 C9 1_555 1_555
C9 C4 1_555 1_555
C10 C9 1_555 1_555
N1 Cu1 1_555 1_555
N2 C6 1_555 1_555
H1 C1 1_555 1_555
H2 C2 1_555 1_555
H3 C3 1_555 1_555
H4 C5 1_555 1_555
H5 C6 1_555 1_555
H6 C7 1_555 1_555
H7 C8 1_555 1_555
H8 C10 1_555 1_555
O4E Mo1 1_555 1_555
Mo3E O6 1_555 1_555
O3E Mo2 1_555 1_555
O5E Mo3E 1_555 1_555
O9E Mo3E 1_555 1_555
Cu1E O5E 1_555 1_555
C1G C2G 1_555 1_555
C2G C3G 1_555 1_555
C3G C4G 1_555 1_555
C4G C5G 1_555 1_555
C5G N1G 1_555 1_555
C6G C7G 1_555 1_555
C7G C8G 1_555 1_555
C8G C9G 1_555 1_555
C9G C4G 1_555 1_555
C10G C9G 1_555 1_555
N1G C1G 1_555 1_555
N2G Cu1 1_555 1_555
H1G C1G 1_555 1_555
H2G C2G 1_555 1_555
H3G C3G 1_555 1_555
H4G C5G 1_555 1_555
H5G C6G 1_555 1_555
H6G C7G 1_555 1_555
H7G C8G 1_555 1_555
H8G C10G 1_555 1_555
O6A Mo1 1_555 1_555
O3A Mo3 1_555 1_555
O4A Mo3 1_555 1_555
Mo3A O3 1_555 1_555
Mo1A O6 1_555 1_555
Cu1G N2 1_555 1_555
Mo3D O4E 1_555 1_555
O3D Mo3E 1_555 1_555
O4D Mo3E 1_555 1_555
N1E Cu1E 1_555 1_555
N2B Cu1E 1_555 1_555
Cu1G_2 N1G 1_555 1_555
O5D Mo3D 1_555 1_555
O9D Mo3D 1_555 1_555
Cu1D O5D 1_555 1_555
Mo2A O3A 1_555 1_555
O1A Mo2A 1_555 1_555
O2A Mo2A 1_555 1_555
O8A Mo1A 1_555 1_555
O5A Mo3A 1_555 1_555
O9A Mo3A 1_555 1_555
Cu1A O5A 1_555 1_555
C1E N1E 1_555 1_555
C5E N1E 1_555 1_555
C6B N2B 1_555 1_555
C10B N2B 1_555 1_555
C7B C6B 1_555 1_555
H5B C6B 1_555 1_555
C9B C10B 1_555 1_555
H8B C10B 1_555 1_555
C2E C1E 1_555 1_555
H1E C1E 1_555 1_555
C4E C5E 1_555 1_555
H4E C5E 1_555 1_555
C3E C2E 1_555 1_555
H2E C2E 1_555 1_555
C9E C4E 1_555 1_555
C8B C7B 1_555 1_555
H6B C7B 1_555 1_555
C4B C9B 1_555 1_555
C3B C4B 1_555 1_555
C5B C4B 1_555 1_555
H3E C3E 1_555 1_555
C8E C9E 1_555 1_555
C10E C9E 1_555 1_555
C2B C3B 1_555 1_555
H3B C3B 1_555 1_555
N1B C5B 1_555 1_555
H4B C5B 1_555 1_555
N2E C10E 1_555 1_555
H8E C10E 1_555 1_555
Cu1B N2E 1_555 1_555
C6E N2E 1_555 1_555
C7E C8E 1_555 1_555
H7E C8E 1_555 1_555
Cu1B_2 N1B 1_555 1_555
C1B C2B 1_555 1_555
H2B C2B 1_555 1_555
O5B Cu1B 1_555 1_555
N1B_2 Cu1B 1_555 1_555
O5G Cu1G 1_555 1_555
N1G_2 Cu1G 1_555 1_555
O7A Mo1A 1_555 1_555
H7B C8B 1_555 1_555
H5E C6E 1_555 1_555
H6E C7E 1_555 1_555
H1B C1B 1_555 1_555
Mo2 O8 1_555 1_555
Mo3 O6 1_555 1_555
C1 N1 1_555 1_555
C10 N2 1_555 1_555
O4E Mo3E 1_555 1_555
O3E Mo3D 1_555 1_555
C6G N2G 1_555 1_555
C10G N2G 1_555 1_555
O6A Mo1A 1_555 1_555
O6A Mo3A 1_555 1_555
O6A Mo3D 1_555 1_555
O4A Mo1A 1_555 1_555
O4A Mo3A 1_555 1_555
Mo1A O4D 1_555 1_555
Mo3D O4D 1_555 1_555
O3D Mo2A 1_555 1_555
Mo2A O8A 1_555 1_555
C9B C8B 1_555 1_555
C4E C3E 1_555 1_555
N1B C1B 1_555 1_555
C6E C7E 1_555 1_555

#END
