
#######################################################################
#
#                 Cambridge Crystallographic Data Centre
#                                CCDC 
#
#######################################################################
#
# If this CIF has been generated from an entry in the Cambridge 
# Structural Database, then it will include bibliographic, chemical, 
# crystal, experimental, refinement or atomic coordinate data resulting 
# from the CCDC's data processing and validation procedures.
#
#######################################################################

data_VAQQIO
_symmetry_cell_setting           triclinic
_symmetry_space_group_name_H-M   'P -1'
_symmetry_Int_Tables_number      2
_space_group_name_Hall           '-P 1'
loop_
_symmetry_equiv_pos_site_id
_symmetry_equiv_pos_as_xyz
1 x,y,z
2 -x,-y,-z
_cell_length_a                   10.6115(7)
_cell_length_b                   13.3836(9)
_cell_length_c                   13.480(1)
_cell_angle_alpha                94.770(2)
_cell_angle_beta                 110.577(1)
_cell_angle_gamma                103.443(1)
_cell_volume                     1714.37
loop_
_atom_site_label
_atom_site_type_symbol
_atom_site_fract_x
_atom_site_fract_y
_atom_site_fract_z
Cu1 Cu 0.6562(2) 0.0480(1) 0.5643(1)
Mo1 Mo 0.3285(1) 0.5015(1) 0.5013(1)
Mo2 Mo 0.5731(1) 0.4040(1) 0.7330(1)
Mo3 Mo 0.3530(1) 0.3367(1) 0.2571(1)
Mo4 Mo 0.4166(1) 0.2447(1) 0.4905(1)
O1 O 0.3141(7) 0.3785(6) 0.4293(6)
O2 O 0.4495(7) 0.5190(6) 0.6378(6)
O3 O 0.1675(8) 0.5056(6) 0.5007(6)
O4 O 0.6097(8) 0.3985(6) 0.5642(6)
O5 O 0.5221(8) 0.1654(6) 0.5333(6)
O6 O 0.2536(8) 0.1600(6) 0.4361(6)
O7 O 0.4140(7) 0.3050(6) 0.6224(6)
O8 O 0.6869(8) 0.3311(6) 0.7761(6)
O9 O 0.5084(8) 0.4147(6) 0.8319(6)
O10 O 0.7034(7) 0.5382(5) 0.7603(6)
O11 O 0.4230(8) 0.3243(6) 0.1628(6)
O12 O 0.4557(7) 0.2710(6) 0.3661(6)
O13 O 0.1925(7) 0.2478(6) 0.2060(6)
C1 C 0.6025(12) 0.0914(9) 0.7544(9)
C2 C 0.6126(13) 0.0904(10) 0.8596(11)
C3 C 0.6916(14) 0.0320(10) 0.9229(10)
C4 C 0.7517(13) -0.0280(10) 0.8716(10)
C5 C 0.7311(14) -0.0249(10) 0.7637(10)
C6 C 0.8061(13) 0.0132(10) 1.4339(10)
C7 C 0.8655(14) 0.0321(10) 1.3588(10)
C8 C 0.8296(14) 0.0986(10) 1.2901(10)
C9 C 0.7226(13) 0.1398(10) 1.2943(10)
C10 C 0.6646(12) 0.1186(9) 1.3694(9)
C11 C 0.7172(15) 0.0352(11) 1.0419(10)
C12 C 0.8283(14) 0.1358(12) 1.1066(11)
C26 C 0.9100(14) 0.1302(11) 1.2212(11)
N1 N 0.6607(10) 0.0357(8) 0.7053(8)
N2 N 0.7042(10) 0.0568(8) 1.4406(8)
H1 H 0.5522 0.1332 0.7154
H2 H 0.5667 0.1288 0.8882
H3 H 0.8044 -0.0693 0.9091
H4 H 0.7683 -0.0672 0.7304
H5 H 0.8363 -0.0307 1.4815
H6 H 0.9318 -0.0014 1.3552
H7 H 0.6899 0.1822 1.2457
H8 H 0.5944 0.1486 1.3708
H9 H 0.6309 0.0321 1.0528
H10 H 0.7486 -0.0245 1.0656
H11 H 0.8933 0.1546 1.0710
H12 H 0.7831 0.1910 1.1064
H27 H 0.9646 0.0814 1.2203
H28 H 0.9758 0.1983 1.2556
N2_2 N 0.7042(10) 0.0568(8) 0.4406(8)
O4A O 0.3903(8) 0.6015(6) 0.4358(6)
O2A O 0.5505(7) 0.4810(6) 0.3622(6)
O10A O 0.2966(7) 0.4618(5) 0.2397(6)
Mo3A Mo 0.6470(1) 0.6633(1) 0.7429(1)
Mo1A Mo 0.6715(1) 0.4985(1) 0.4987(1)
Cu1_2 Cu 0.6562(2) 0.0480(1) 1.5643(1)
C6_2 C 0.8061(13) 0.0132(10) 0.4339(10)
C10_2 C 0.6646(12) 0.1186(9) 0.3694(9)
Mo2A Mo 0.4269(1) 0.5960(1) 0.2670(1)
Mo4A Mo 0.5834(1) 0.7553(1) 0.5095(1)
O11A O 0.5770(8) 0.6757(6) 0.8372(6)
O12A O 0.5443(7) 0.7290(6) 0.6339(6)
O13A O 0.8075(7) 0.7522(6) 0.7940(6)
O1A O 0.6859(7) 0.6215(6) 0.5707(6)
O3A O 0.8325(8) 0.4944(6) 0.4993(6)
O5_2 O 0.5221(8) 0.1654(6) 1.5333(6)
N1_2 N 0.6607(10) 0.0357(8) 1.7053(8)
C7_2 C 0.8655(14) 0.0321(10) 0.3588(10)
H5_2 H 0.8363 -0.0307 0.4815
C9_2 C 0.7226(13) 0.1398(10) 0.2943(10)
H8_2 H 0.5944 0.1486 0.3708
O7A O 0.5860(7) 0.6950(6) 0.3776(6)
O8A O 0.3131(8) 0.6689(6) 0.2239(6)
O9A O 0.4916(8) 0.5853(6) 0.1681(6)
O5A O 0.4779(8) 0.8346(6) 0.4667(6)
O6A O 0.7464(8) 0.8400(6) 0.5639(6)
C8_2 C 0.8296(14) 0.0986(10) 0.2901(10)
H6_2 H 0.9318 -0.0014 0.3552
H7_2 H 0.6899 0.1822 0.2457
Cu1A Cu 0.3438(2) 0.9520(1) 0.4357(1)
C26_2 C 0.9100(14) 0.1302(11) 0.2212(11)
C12_2 C 0.8283(14) 0.1358(12) 0.1066(11)
H27_2 H 0.9646 0.0814 0.2203
H28_2 H 0.9758 0.1983 0.2556
C11_2 C 0.7172(15) 0.0352(11) 0.0419(10)
H11_2 H 0.8933 0.1546 0.0710
H12_2 H 0.7831 0.1910 0.1064
C3_2 C 0.6916(14) 0.0320(10) -0.0771(10)
H9_2 H 0.6309 0.0321 0.0528
H10_2 H 0.7486 -0.0245 0.0656
C2_2 C 0.6126(13) 0.0904(10) -0.1404(11)
C4_2 C 0.7517(13) -0.0280(10) -0.1284(10)
C1_2 C 0.6025(12) 0.0914(9) -0.2456(9)
H2_2 H 0.5667 0.1288 -0.1118
C5_2 C 0.7311(14) -0.0249(10) -0.2363(10)
H3_2 H 0.8044 -0.0693 -0.0909
N1_3 N 0.6607(10) 0.0357(8) -0.2947(8)
H1_2 H 0.5522 0.1332 -0.2846
H4_2 H 0.7683 -0.0672 -0.2696
Cu1_3 Cu 0.6562(2) 0.0480(1) -0.4357(1)
Cu2 Cu 0.9401(2) 0.3620(1) 0.4193(1)
C13 C 0.8846(12) 0.2889(9) 0.5961(9)
C14 C 0.9144(12) 0.2613(9) 0.6955(10)
C15 C 1.0421(13) 0.2440(10) 0.7480(10)
C16 C 1.0809(15) 0.2192(12) 0.8609(11)
C17 C 1.1324(14) 0.2493(9) 0.6973(11)
C18 C 1.0976(12) 0.2771(9) 0.5933(10)
C19 C 1.0130(12) 0.5647(9) 0.7626(9)
C20 C 1.0304(12) 0.5069(10) 0.8432(9)
C21 C 1.1533(13) 0.4766(10) 0.8844(9)
C22 C 1.2496(13) 0.5071(12) 0.8383(10)
C23 C 1.2262(13) 0.5635(10) 0.7566(10)
C24 C 1.0676(16) 0.3028(12) 0.9417(12)
C25 C 1.1743(14) 0.4092(11) 0.9704(10)
N3 N 0.9750(10) 0.2995(7) 0.5450(8)
N4 N 1.1060(9) 0.5892(7) 0.7146(7)
H13 H 0.7981 0.3010 0.5620
H14 H 0.8487 0.2542 0.7273
H15 H 1.1766 0.2147 0.8870
H16 H 1.0203 0.1516 0.8582
H17 H 1.2174 0.2347 0.7304
H18 H 1.1596 0.2798 0.5584
H19 H 0.9334 0.5882 0.7397
H20 H 0.9607 0.4880 0.8704
H21 H 1.3332 0.4889 0.8633
H22 H 1.2957 0.5846 0.7297
H23 H 0.9745 0.3120 0.9113
H24 H 1.0759 0.2758 1.0076
H25 H 1.2667 0.3987 0.9889
H26 H 1.1734 0.4475 1.0344
N4A N 0.8940(9) 0.4108(7) 0.2854(7)
Cu2A Cu 1.0599(2) 0.6380(1) 0.5807(1)
C19A C 0.9870(12) 0.4353(9) 0.2374(9)
C23A C 0.7738(13) 0.4365(10) 0.2434(10)
N3A N 1.0250(10) 0.7005(7) 0.4550(8)
C20A C 0.9696(12) 0.4931(10) 0.1568(9)
H19A H 1.0666 0.4118 0.2603
C22A C 0.7504(13) 0.4929(12) 0.1617(10)
H22A H 0.7043 0.4154 0.2703
C13A C 1.1154(12) 0.7111(9) 0.4039(9)
C18A C 0.9024(12) 0.7229(9) 0.4067(10)
C21A C 0.8467(13) 0.5234(10) 0.1156(9)
H20A H 1.0393 0.5120 0.1296
H21A H 0.6668 0.5111 0.1367
C14A C 1.0856(12) 0.7387(9) 0.3045(10)
H13A H 1.2019 0.6990 0.4380
C17A C 0.8676(14) 0.7507(9) 0.3027(11)
H18A H 0.8404 0.7202 0.4416
C25A C 0.8257(14) 0.5908(11) 0.0296(10)
C15A C 0.9579(13) 0.7560(10) 0.2520(10)
H14A H 1.1513 0.7458 0.2727
H17A H 0.7826 0.7653 0.2696
C24A C 0.9324(16) 0.6972(12) 0.0583(12)
H25A H 0.7333 0.6013 0.0111
H26A H 0.8266 0.5525 -0.0344
C16A C 0.9191(15) 0.7808(12) 0.1391(11)
H23A H 1.0255 0.6880 0.0887
H24A H 0.9241 0.7242 -0.0076
H15A H 0.8234 0.7853 0.1130
H16A H 0.9797 0.8484 0.1418
O14 O 0.5301(12) 0.7462(8) 0.0317(9)
loop_
_geom_bond_atom_site_label_1
_geom_bond_atom_site_label_2
_geom_bond_site_symmetry_1
_geom_bond_site_symmetry_2
Cu1 O5 1_555 1_555
Cu2 N3 1_555 1_555
Mo1 O1 1_555 1_555
Mo2 O2 1_555 1_555
Mo3 O11 1_555 1_555
Mo4 O1 1_555 1_555
O2 Mo1 1_555 1_555
O3 Mo1 1_555 1_555
O4 Mo2 1_555 1_555
O5 Mo4 1_555 1_555
O6 Mo4 1_555 1_555
O7 Mo2 1_555 1_555
O8 Mo2 1_555 1_555
O9 Mo2 1_555 1_555
O10 Mo2 1_555 1_555
O12 Mo3 1_555 1_555
O13 Mo3 1_555 1_555
C1 C2 1_555 1_555
C2 C3 1_555 1_555
C3 C4 1_555 1_555
C4 C5 1_555 1_555
C5 N1 1_555 1_555
C6 C7 1_555 1_555
C7 C8 1_555 1_555
C8 C9 1_555 1_555
C9 C10 1_555 1_555
C10 N2 1_555 1_555
C11 C3 1_555 1_555
C12 C11 1_555 1_555
C13 C14 1_555 1_555
C14 C15 1_555 1_555
C15 C16 1_555 1_555
C16 C24 1_555 1_555
C17 C15 1_555 1_555
C18 C17 1_555 1_555
C19 C20 1_555 1_555
C20 C21 1_555 1_555
C21 C22 1_555 1_555
C22 C23 1_555 1_555
C23 N4 1_555 1_555
C24 C25 1_555 1_555
C25 C21 1_555 1_555
C26 C8 1_555 1_555
N1 Cu1 1_555 1_555
N2 C6 1_555 1_555
N3 C13 1_555 1_555
N4 C19 1_555 1_555
H1 C1 1_555 1_555
H2 C2 1_555 1_555
H3 C4 1_555 1_555
H4 C5 1_555 1_555
H5 C6 1_555 1_555
H6 C7 1_555 1_555
H7 C9 1_555 1_555
H8 C10 1_555 1_555
H9 C11 1_555 1_555
H10 C11 1_555 1_555
H11 C12 1_555 1_555
H12 C12 1_555 1_555
H13 C13 1_555 1_555
H14 C14 1_555 1_555
H15 C16 1_555 1_555
H16 C16 1_555 1_555
H17 C17 1_555 1_555
H18 C18 1_555 1_555
H19 C19 1_555 1_555
H20 C20 1_555 1_555
H21 C22 1_555 1_555
H22 C23 1_555 1_555
H23 C24 1_555 1_555
H24 C24 1_555 1_555
H25 C25 1_555 1_555
H26 C25 1_555 1_555
H27 C26 1_555 1_555
H28 C26 1_555 1_555
N2_2 Cu1 1_555 1_555
N4A Cu2 1_555 1_555
O4A Mo1 1_555 1_555
O2A Mo3 1_555 1_555
O10A Mo3 1_555 1_555
Mo3A O2 1_555 1_555
Mo1A O4 1_555 1_555
Cu1_2 N2 1_555 1_555
Cu2A N4 1_555 1_555
C6_2 N2_2 1_555 1_555
C10_2 N2_2 1_555 1_555
C19A N4A 1_555 1_555
C23A N4A 1_555 1_555
Mo2A O4A 1_555 1_555
Mo4A O4A 1_555 1_555
O11A Mo3A 1_555 1_555
O12A Mo3A 1_555 1_555
O13A Mo3A 1_555 1_555
O1A Mo1A 1_555 1_555
O3A Mo1A 1_555 1_555
O5_2 Cu1_2 1_555 1_555
N1_2 Cu1_2 1_555 1_555
N3A Cu2A 1_555 1_555
C7_2 C6_2 1_555 1_555
H5_2 C6_2 1_555 1_555
C9_2 C10_2 1_555 1_555
H8_2 C10_2 1_555 1_555
C20A C19A 1_555 1_555
H19A C19A 1_555 1_555
C22A C23A 1_555 1_555
H22A C23A 1_555 1_555
O7A Mo2A 1_555 1_555
O8A Mo2A 1_555 1_555
O9A Mo2A 1_555 1_555
O5A Mo4A 1_555 1_555
O6A Mo4A 1_555 1_555
C13A N3A 1_555 1_555
C18A N3A 1_555 1_555
C8_2 C7_2 1_555 1_555
H6_2 C7_2 1_555 1_555
H7_2 C9_2 1_555 1_555
C21A C20A 1_555 1_555
H20A C20A 1_555 1_555
H21A C22A 1_555 1_555
Cu1A O5A 1_555 1_555
C14A C13A 1_555 1_555
H13A C13A 1_555 1_555
C17A C18A 1_555 1_555
H18A C18A 1_555 1_555
C26_2 C8_2 1_555 1_555
C25A C21A 1_555 1_555
C15A C14A 1_555 1_555
H14A C14A 1_555 1_555
H17A C17A 1_555 1_555
C12_2 C26_2 1_555 1_555
H27_2 C26_2 1_555 1_555
H28_2 C26_2 1_555 1_555
C24A C25A 1_555 1_555
H25A C25A 1_555 1_555
H26A C25A 1_555 1_555
C16A C15A 1_555 1_555
C11_2 C12_2 1_555 1_555
H11_2 C12_2 1_555 1_555
H12_2 C12_2 1_555 1_555
H23A C24A 1_555 1_555
H24A C24A 1_555 1_555
H15A C16A 1_555 1_555
H16A C16A 1_555 1_555
C3_2 C11_2 1_555 1_555
H9_2 C11_2 1_555 1_555
H10_2 C11_2 1_555 1_555
C2_2 C3_2 1_555 1_555
C4_2 C3_2 1_555 1_555
C1_2 C2_2 1_555 1_555
H2_2 C2_2 1_555 1_555
C5_2 C4_2 1_555 1_555
H3_2 C4_2 1_555 1_555
N1_3 C1_2 1_555 1_555
H1_2 C1_2 1_555 1_555
H4_2 C5_2 1_555 1_555
Cu1_3 N1_3 1_555 1_555
Mo4 O4 1_555 1_555
Mo4 O7 1_555 1_555
Mo4 O12 1_555 1_555
O10 Mo3A 1_555 1_555
C1 N1 1_555 1_555
C12 C26 1_555 1_555
C18 N3 1_555 1_555
O2A Mo1A 1_555 1_555
O2A Mo2A 1_555 1_555
O10A Mo2A 1_555 1_555
Mo4A O1A 1_555 1_555
Mo4A O7A 1_555 1_555
Mo4A O12A 1_555 1_555
C9_2 C8_2 1_555 1_555
C22A C21A 1_555 1_555
C17A C15A 1_555 1_555
C24A C16A 1_555 1_555
C5_2 N1_3 1_555 1_555

#END
