
#######################################################################
#
#                 Cambridge Crystallographic Data Centre
#                                CCDC 
#
#######################################################################
#
# If this CIF has been generated from an entry in the Cambridge 
# Structural Database, then it will include bibliographic, chemical, 
# crystal, experimental, refinement or atomic coordinate data resulting 
# from the CCDC's data processing and validation procedures.
#
#######################################################################

data_VAQRUC
_symmetry_cell_setting           monoclinic
_symmetry_space_group_name_H-M   'C 2/c'
_symmetry_Int_Tables_number      15
_space_group_name_Hall           '-C 2yn'
loop_
_symmetry_equiv_pos_site_id
_symmetry_equiv_pos_as_xyz
1 x,y,z
2 -x,y,1/2-z
3 1/2+x,1/2+y,z
4 1/2-x,1/2+y,1/2-z
5 -x,-y,-z
6 x,-y,1/2+z
7 1/2-x,1/2-y,-z
8 1/2+x,1/2-y,1/2+z
_cell_length_a                   27.6400(5)
_cell_length_b                   6.9770(3)
_cell_length_c                   14.6970(7)
_cell_angle_alpha                90
_cell_angle_beta                 103.921(4)
_cell_angle_gamma                90
_cell_volume                     2750.99
loop_
_atom_site_label
_atom_site_type_symbol
_atom_site_fract_x
_atom_site_fract_y
_atom_site_fract_z
Cl1 Cl 0.00961(2) 0.26500(13) -0.04717(4)
Cl2 Cl 0.28035(2) 0.52343(12) -0.02445(4)
Cl3 Cl 0.34861(2) 0.74702(14) 0.15781(5)
Cu1 Cu 0.034362(11) 0.36500(6) 0.10090(2)
Cu2 Cu 0.271309(11) 0.63646(6) 0.11411(2)
C1 C 0.09792(9) 0.5897(5) 0.23524(17)
C2 C 0.12899(8) 0.5475(4) 0.16466(17)
C3 C 0.17803(9) 0.5999(4) 0.16763(17)
C4 C 0.21297(9) 0.7215(5) 0.24051(18)
C5 C 0.17509(9) 0.4378(5) 0.02947(18)
H1 H 0.1900 0.3976 -0.0176
C6 C 0.12557(10) 0.3873(5) 0.0261(2)
H2 H 0.1078 0.3146 -0.0239
N1 N 0.10371(7) 0.4407(4) 0.09230(15)
N2 N 0.20037(7) 0.5425(4) 0.09961(15)
O1 O 0.05702(6) 0.5052(3) 0.22291(12)
O2 O 0.11297(7) 0.7043(4) 0.30145(13)
H3 H 0.1431 0.7199 0.3095
O3 O 0.19737(7) 0.8007(4) 0.30516(14)
O4 O 0.25634(7) 0.7381(4) 0.23107(14)
O5 O 0.07234(9) 0.0773(4) 0.16603(17)
H4 H 0.0519 0.0172 0.1865
H5 H 0.0970 0.0852 0.2100
O6 O -0.02789(7) 0.2901(4) 0.13117(14)
H6 H -0.0456 0.3093 0.0787
H7 H -0.0373 0.3634 0.1661
Cl1D Cl -0.00961(2) 0.73500(13) 0.04717(4)
Cl2F Cl 0.21965(2) 0.97657(12) 0.02445(4)
Cl2C Cl 0.21965(2) 1.02343(12) 0.52445(4)
Cl2E Cl 0.28035(2) 1.47657(12) 0.47555(4)
Cl3C Cl 0.15139(2) 1.24702(14) 0.34219(5)
Cu1D Cu -0.034362(11) 0.63500(6) -0.10090(2)
Cu1C Cu 0.465638(11) -0.13500(6) 0.39910(2)
Cu2C Cu 0.228691(11) 1.13646(6) 0.38589(2)
Cu2F Cu 0.228691(11) 0.86354(6) -0.11411(2)
Cu2C_2 Cu 0.228691(11) 0.13646(6) 0.38589(2)
C1C C 0.40208(9) 0.0897(5) 0.26476(17)
C2C C 0.37101(8) 0.0475(4) 0.33534(17)
C3C C 0.32197(9) 0.0999(4) 0.33237(17)
C4C C 0.28703(9) 0.2215(5) 0.25949(18)
C5C C 0.32491(9) -0.0622(5) 0.47053(18)
H1C H 0.3100 -0.1024 0.5176
C6C C 0.37443(10) -0.1127(5) 0.4739(2)
H2C H 0.3922 -0.1854 0.5239
N1C N 0.39629(7) -0.0593(4) 0.40770(15)
N1D N -0.10371(7) 0.5593(4) -0.09230(15)
N2C N 0.29963(7) 0.0425(4) 0.40039(15)
N2C_2 N 0.29963(7) 1.0425(4) 0.40039(15)
O1C O 0.44298(6) 0.0052(3) 0.27709(12)
O1D O -0.05702(6) 0.4948(3) -0.22291(12)
O2C O 0.38703(7) 0.2043(4) 0.19855(13)
H3C H 0.3569 0.2199 0.1905
O3C O 0.30263(7) 0.3007(4) 0.19484(14)
O4C O 0.24366(7) 0.2381(4) 0.26893(14)
O4C_2 O 0.24366(7) 1.2381(4) 0.26893(14)
O5D O -0.07234(9) 0.9227(4) -0.16603(17)
H4D H -0.0519 0.9828 -0.1865
H5D H -0.0970 0.9148 -0.2100
O6D O 0.02789(7) 0.7099(4) -0.13117(14)
H6D H 0.0456 0.6907 -0.0787
H7D H 0.0373 0.6366 -0.1661
O7 O -0.09825(8) 0.1422(4) -0.01077(18)
H8 H -0.1287 0.1604 -0.0254
H9 H -0.0952 0.0449 0.0215
O8 O 0.0000 -0.0968(6) 0.2500
H10 H 0.0190(16) -0.171(8) 0.299(3)
H10A H -0.0190(16) -0.171(8) 0.201(3)
loop_
_geom_bond_atom_site_label_1
_geom_bond_atom_site_label_2
_geom_bond_site_symmetry_1
_geom_bond_site_symmetry_2
Cl1 Cu1 1_555 1_555
Cl2 Cu2 1_555 1_555
Cl3 Cu2 1_555 1_555
Cu1 N1 1_555 1_555
Cu2 N2 1_555 1_555
C1 C2 1_555 1_555
C2 C3 1_555 1_555
C3 C4 1_555 1_555
C4 O3 1_555 1_555
C5 H1 1_555 1_555
C6 C5 1_555 1_555
H2 C6 1_555 1_555
N1 C2 1_555 1_555
N2 C3 1_555 1_555
O1 Cu1 1_555 1_555
O2 C1 1_555 1_555
H3 O2 1_555 1_555
O3 Cu2C 1_555 1_555
O4 Cu2 1_555 1_555
O5 Cu1 1_555 1_555
H4 O5 1_555 1_555
H5 O5 1_555 1_555
O6 Cu1 1_555 1_555
H6 O6 1_555 1_555
H7 O6 1_555 1_555
O7 H8 1_555 1_555
H9 O7 1_555 1_555
O8 H10 1_555 1_555
Cl1D Cu1 1_555 1_555
Cl2F Cu2 1_555 1_555
Cl2C Cu2C 1_555 1_555
Cl2E Cu2C 1_555 1_555
Cl3C Cu2C 1_555 1_555
Cu1D Cl1 1_555 1_555
Cu1C N1C 1_555 1_555
Cu2C N2C_2 1_555 1_555
Cu2F Cl2 1_555 1_555
Cu2C_2 N2C 1_555 1_555
C1C C2C 1_555 1_555
C2C C3C 1_555 1_555
C3C C4C 1_555 1_555
C4C O3C 1_555 1_555
C5C H1C 1_555 1_555
C6C C5C 1_555 1_555
H2C C6C 1_555 1_555
N1C C2C 1_555 1_555
N1D Cu1D 1_555 1_555
N2C C3C 1_555 1_555
O1C Cu1C 1_555 1_555
O1D Cu1D 1_555 1_555
O2C C1C 1_555 1_555
H3C O2C 1_555 1_555
O3C Cu2 1_555 1_555
O4C Cu2C_2 1_555 1_555
O4C_2 Cu2C 1_555 1_555
O5D Cu1D 1_555 1_555
H4D O5D 1_555 1_555
H5D O5D 1_555 1_555
O6D Cu1D 1_555 1_555
H6D O6D 1_555 1_555
H7D O6D 1_555 1_555
H10A O8 1_555 1_555
C1 O1 1_555 1_555
C4 O4 1_555 1_555
C5 N2 1_555 1_555
C6 N1 1_555 1_555
Cl1D Cu1D 1_555 1_555
Cl2F Cu2F 1_555 1_555
C1C O1C 1_555 1_555
C4C O4C 1_555 1_555
C5C N2C 1_555 1_555
C6C N1C 1_555 1_555

#END
