
#######################################################################
#
#                 Cambridge Crystallographic Data Centre
#                                CCDC 
#
#######################################################################
#
# If this CIF has been generated from an entry in the Cambridge 
# Structural Database, then it will include bibliographic, chemical, 
# crystal, experimental, refinement or atomic coordinate data resulting 
# from the CCDC's data processing and validation procedures.
#
#######################################################################

data_VAQSUD
_symmetry_cell_setting           monoclinic
_symmetry_space_group_name_H-M   'P 21/c'
_symmetry_Int_Tables_number      14
_space_group_name_Hall           '-P 2ybc'
loop_
_symmetry_equiv_pos_site_id
_symmetry_equiv_pos_as_xyz
1 x,y,z
2 -x,1/2+y,1/2-z
3 -x,-y,-z
4 x,1/2-y,1/2+z
_cell_length_a                   10.9916(5)
_cell_length_b                   17.5108(8)
_cell_length_c                   13.4590(6)
_cell_angle_alpha                90
_cell_angle_beta                 100.9860(10)
_cell_angle_gamma                90
_cell_volume                     2543
loop_
_atom_site_label
_atom_site_type_symbol
_atom_site_fract_x
_atom_site_fract_y
_atom_site_fract_z
Pr1 Pr 0.156580(15) 0.240440(10) -0.406830(12)
Pr2 Pr 0.672100(15) 0.457790(10) -0.408640(13)
N1 N 0.1427(3) 0.37025(16) -0.3167(2)
N2 N -0.2887(2) 0.37845(15) -0.5666(2)
N3 N 0.6253(2) 0.37915(15) -0.2559(2)
O1 O 0.1532(2) 0.48654(13) -0.52570(17)
O2 O 0.1274(2) 0.36071(13) -0.51340(18)
O3 O 0.1718(3) 0.23870(14) -0.22069(18)
O4 O 0.1724(3) 0.29489(16) -0.07256(19)
O5 O -0.0601(2) 0.25925(14) -0.4276(2)
O6 O -0.1761(2) 0.35077(14) -0.37897(19)
O7 O -0.4519(2) 0.48982(13) -0.58474(17)
O8 O -0.5074(3) 0.47232(18) -0.7505(2)
O9 O 0.3651(2) 0.28462(17) -0.3926(2)
O10 O 0.5148(2) 0.34961(14) -0.44342(18)
O11 O 0.7931(2) 0.48783(14) -0.23950(18)
O12 O 0.8566(3) 0.46673(16) -0.0747(2)
O13 O 0.6667(2) 0.60493(14) -0.39176(18)
H1 H 0.7306 0.6301 -0.3989
H2 H 0.6076 0.6256 -0.4330
O14 O 0.0417(2) 0.11269(14) -0.42840(19)
H3 H 0.0786 0.0698 -0.4208
H4 H -0.0284 0.1029 -0.4652
O15 O 0.2964(3) 0.13332(17) -0.3383(3)
H5 H 0.3564 0.1144 -0.3616
H6 H 0.2850 0.1023 -0.2924
C1 C 0.1353(3) 0.42739(19) -0.4784(2)
C2 C 0.1249(3) 0.43549(19) -0.3692(2)
C3 C 0.1008(3) 0.5037(2) -0.3257(3)
H7 H 0.0871 0.5480 -0.3642
C4 C 0.0975(4) 0.5047(2) -0.2236(3)
H8 H 0.0798 0.5498 -0.1927
C5 C 0.1207(4) 0.4383(2) -0.1680(3)
H9 H 0.1222 0.4383 -0.0987
C6 C 0.1418(3) 0.37196(19) -0.2178(2)
C7 C 0.1633(3) 0.2956(2) -0.1667(3)
C8 C -0.1403(3) 0.31146(19) -0.4440(3)
C9 C -0.1997(3) 0.32560(19) -0.5539(3)
C10 C -0.1649(4) 0.2880(2) -0.6351(3)
H10 H -0.1012 0.2522 -0.6243
C11 C -0.2261(4) 0.3047(2) -0.7314(3)
H11 H -0.2050 0.2798 -0.7868
C12 C -0.3188(4) 0.3585(2) -0.7450(3)
H12 H -0.3623 0.3701 -0.8094
C13 C -0.3459(3) 0.39511(19) -0.6608(3)
C14 C -0.4417(3) 0.4574(2) -0.6681(3)
C15 C 0.4646(3) 0.32047(19) -0.3764(3)
C16 C 0.5301(3) 0.33056(19) -0.2679(3)
C17 C 0.4940(4) 0.2940(2) -0.1867(3)
H13 H 0.4269 0.2607 -0.1967
C18 C 0.5604(4) 0.3085(3) -0.0905(3)
H14 H 0.5390 0.2846 -0.0346
C19 C 0.6587(4) 0.3590(2) -0.0785(3)
H15 H 0.7041 0.3696 -0.0143
C20 C 0.6886(3) 0.39362(19) -0.1627(3)
C21 C 0.7888(3) 0.45366(19) -0.1581(3)
Pr1C Pr 0.156580(15) 0.259560(10) 0.093170(12)
Pr2_2 Pr -0.327900(15) 0.457790(10) -0.408640(13)
Pr2B Pr 0.327900(15) 0.542210(10) -0.591360(13)
Pr2B_2 Pr -0.672100(15) 0.542210(10) -0.591360(13)
N2_2 N 0.7113(2) 0.37845(15) -0.5666(2)
O1B O 0.8468(2) 0.51346(13) -0.47430(17)
O4C O 0.1724(3) 0.20511(16) -0.57256(19)
O6_2 O 0.8239(2) 0.35077(14) -0.37897(19)
O7_2 O 0.5481(2) 0.48982(13) -0.58474(17)
O7B O 0.4519(2) 0.51018(13) -0.41526(17)
O16 O -0.5515(17) 0.4404(8) -0.9532(12)
H16 H -0.5997 0.4542 -1.0073
H17 H -0.4932 0.4731 -0.9452
loop_
_geom_bond_atom_site_label_1
_geom_bond_atom_site_label_2
_geom_bond_site_symmetry_1
_geom_bond_site_symmetry_2
Pr1 N1 1_555 1_555
Pr2 N3 1_555 1_555
N1 C2 1_555 1_555
N2 C9 1_555 1_555
N3 C16 1_555 1_555
O1 C1 1_555 1_555
O2 Pr1 1_555 1_555
O3 Pr1 1_555 1_555
O4 C7 1_555 1_555
O5 Pr1 1_555 1_555
O6 C8 1_555 1_555
O7 C14 1_555 1_555
O8 C14 1_555 1_555
O9 Pr1 1_555 1_555
O10 Pr2 1_555 1_555
O11 Pr2 1_555 1_555
O12 C21 1_555 1_555
O13 Pr2 1_555 1_555
H1 O13 1_555 1_555
H2 O13 1_555 1_555
O14 Pr1 1_555 1_555
H3 O14 1_555 1_555
H4 O14 1_555 1_555
O15 Pr1 1_555 1_555
H5 O15 1_555 1_555
H6 O15 1_555 1_555
C1 O2 1_555 1_555
C2 C1 1_555 1_555
C3 C2 1_555 1_555
H7 C3 1_555 1_555
C4 C3 1_555 1_555
H8 C4 1_555 1_555
C5 C4 1_555 1_555
H9 C5 1_555 1_555
C6 N1 1_555 1_555
C7 O3 1_555 1_555
C8 O5 1_555 1_555
C9 C8 1_555 1_555
C10 C9 1_555 1_555
H10 C10 1_555 1_555
C11 C10 1_555 1_555
H11 C11 1_555 1_555
C12 C11 1_555 1_555
H12 C12 1_555 1_555
C13 N2 1_555 1_555
C14 C13 1_555 1_555
C15 O9 1_555 1_555
C16 C15 1_555 1_555
C17 C16 1_555 1_555
H13 C17 1_555 1_555
C18 C17 1_555 1_555
H14 C18 1_555 1_555
C19 C18 1_555 1_555
H15 C19 1_555 1_555
C20 N3 1_555 1_555
C21 O11 1_555 1_555
O16 H16 1_555 1_555
H17 O16 1_555 1_555
Pr1C O4 1_555 1_555
Pr2_2 N2 1_555 1_555
Pr2B O1 1_555 1_555
Pr2B_2 O7 1_555 1_555
N2_2 Pr2 1_555 1_555
O1B Pr2 1_555 1_555
O4C Pr1 1_555 1_555
O6_2 Pr2 1_555 1_555
O7_2 Pr2 1_555 1_555
O7B Pr2 1_555 1_555
O6 Pr2_2 1_555 1_555
O7 Pr2_2 1_555 1_555
O10 C15 1_555 1_555
C5 C6 1_555 1_555
C6 C7 1_555 1_555
C12 C13 1_555 1_555
C19 C20 1_555 1_555
C20 C21 1_555 1_555
Pr2B O7_2 1_555 1_555
Pr2B O7B 1_555 1_555

#END
