
#######################################################################
#
#                 Cambridge Crystallographic Data Centre
#                                CCDC 
#
#######################################################################
#
# If this CIF has been generated from an entry in the Cambridge 
# Structural Database, then it will include bibliographic, chemical, 
# crystal, experimental, refinement or atomic coordinate data resulting 
# from the CCDC's data processing and validation procedures.
#
#######################################################################

data_VARZEV
_symmetry_cell_setting           triclinic
_symmetry_space_group_name_H-M   'P -1'
_symmetry_Int_Tables_number      2
_space_group_name_Hall           '-P 1'
loop_
_symmetry_equiv_pos_site_id
_symmetry_equiv_pos_as_xyz
1 x,y,z
2 -x,-y,-z
_cell_length_a                   9.018(5)
_cell_length_b                   12.357(5)
_cell_length_c                   13.105(5)
_cell_angle_alpha                68.762(5)
_cell_angle_beta                 88.860(5)
_cell_angle_gamma                88.401(5)
_cell_volume                     1360.57
loop_
_atom_site_label
_atom_site_type_symbol
_atom_site_fract_x
_atom_site_fract_y
_atom_site_fract_z
Zn1 Zn -0.2108(2) 0.02668(16) 0.71890(15)
Zn2 Zn 0.2070(2) -0.48143(16) 0.72556(16)
N1 N 0.0112(14) 0.1249(11) 0.7595(10)
N2 N -0.0208(14) -0.3718(11) 0.7469(10)
C1 C 0.1799(17) -0.1073(14) 0.6067(12)
H1 H 0.2660 -0.0744 0.5694
N3 N -0.4144(13) -0.0306(11) 0.6904(10)
H2 H -0.4469 0.0168 0.6244
H3 H -0.4018 -0.1021 0.6880
N4 N 0.0617(14) 0.4238(12) 0.6796(11)
N5 N -0.0614(14) -0.0685(12) 0.6688(11)
C2 C -0.1590(16) 0.2773(14) 0.6491(12)
N6 N 0.2516(15) -0.3141(12) 0.6460(11)
C3 C 0.3407(18) -0.6003(16) 0.9486(14)
H4 H 0.3520 -0.5929 1.0191
H5 H 0.3187 -0.6808 0.9619
N7 N -0.0255(14) 0.2397(11) 0.7056(10)
N8 N 0.0258(14) -0.2592(11) 0.6970(10)
C4 C -0.1696(17) 0.3983(14) 0.6039(12)
H6 H -0.2518 0.4329 0.5618
N9 N 0.4088(13) -0.5523(11) 0.7003(10)
H7 H 0.3902 -0.6025 0.6669
H8 H 0.4612 -0.4944 0.6524
N10 N 0.2137(14) -0.5272(11) 0.8929(11)
H9 H 0.2132 -0.4617 0.9080
H10 H 0.1300 -0.5649 0.9218
N11 N -0.2017(15) -0.2430(11) 0.7581(11)
C5 C -0.0657(16) 0.4668(15) 0.6189(13)
H11 H -0.0797 0.5469 0.5872
C6 C 0.0696(19) -0.0393(14) 0.6232(12)
H12 H 0.0891 0.0396 0.5989
C7 C -0.4820(18) -0.1044(14) 0.8902(14)
H13 H -0.5688 -0.1170 0.9377
H14 H -0.4473 -0.1799 0.8916
N12 N -0.2187(16) -0.0439(11) 0.8833(10)
H15 H -0.1758 -0.1151 0.9033
H16 H -0.1617 -0.0011 0.9091
C8 C 0.1635(17) -0.2290(14) 0.6464(12)
C9 C 0.506(2) -0.6134(16) 0.7938(14)
H17 H 0.6091 -0.6011 0.7696
H18 H 0.4891 -0.6961 0.8185
N13 N -0.2471(15) 0.1956(12) 0.6469(11)
C10 C -0.1559(18) -0.3544(15) 0.7780(13)
H19 H -0.2181 -0.4162 0.8125
C11 C 0.0798(19) 0.3079(14) 0.7215(13)
C12 C -0.0819(17) -0.1849(14) 0.7069(13)
N14 N 0.1847(15) 0.2405(13) 0.7886(11)
C13 C -0.3631(18) -0.0562(16) 0.9401(14)
H20 H -0.3963 0.0193 0.9397
H21 H -0.3503 -0.1069 1.0158
C14 C 0.1353(17) 0.1361(13) 0.8032(14)
H22 H 0.1896 0.0704 0.8449
C15 C 0.482(2) -0.5731(17) 0.8887(14)
H23 H 0.5612 -0.6062 0.9405
H24 H 0.4922 -0.4894 0.8613
C16 C -0.5314(18) -0.0347(16) 0.7751(12)
H25 H -0.6200 -0.0686 0.7597
H26 H -0.5567 0.0439 0.7700
H27 H 0.345(5) -0.290(10) 0.625(9)
H28 H -0.330(11) 0.228(13) 0.609(12)
Zn2_2 Zn 0.2070(2) 0.51857(16) 0.72556(16)
N4_2 N 0.0617(14) -0.5762(12) 0.6796(11)
Cl1 Cl 0.3606(5) 0.2507(4) 0.4972(3)
O3 O 0.2076(13) 0.2468(10) 0.5108(9)
O5 O 0.4002(16) 0.3443(12) 0.3970(12)
O6 O 0.4295(14) 0.2656(12) 0.5875(12)
O7 O 0.4185(16) 0.1461(11) 0.4851(11)
Cl2 Cl 0.1240(5) -0.2599(4) 0.9948(3)
O1 O 0.2289(12) -0.2794(10) 0.9196(9)
O2 O 0.1435(15) -0.1473(12) 0.9978(11)
O4 O -0.0225(13) -0.2695(11) 0.9636(12)
O8 O 0.1491(17) -0.3446(13) 1.1021(11)
loop_
_geom_bond_atom_site_label_1
_geom_bond_atom_site_label_2
_geom_bond_site_symmetry_1
_geom_bond_site_symmetry_2
Zn1 N3 1_555 1_555
Zn2 N2 1_555 1_555
Cl1 O3 1_555 1_555
Cl2 O1 1_555 1_555
O2 Cl2 1_555 1_555
N1 N7 1_555 1_555
N2 N8 1_555 1_555
O4 Cl2 1_555 1_555
C1 H1 1_555 1_555
N3 H2 1_555 1_555
H3 N3 1_555 1_555
N4 C5 1_555 1_555
O5 Cl1 1_555 1_555
N5 Zn1 1_555 1_555
C2 N7 1_555 1_555
O6 Cl1 1_555 1_555
O7 Cl1 1_555 1_555
N6 Zn2 1_555 1_555
C3 H4 1_555 1_555
H5 C3 1_555 1_555
N7 C11 1_555 1_555
O8 Cl2 1_555 1_555
N8 C8 1_555 1_555
C4 C2 1_555 1_555
H6 C4 1_555 1_555
N9 Zn2 1_555 1_555
H7 N9 1_555 1_555
H8 N9 1_555 1_555
N10 Zn2 1_555 1_555
H9 N10 1_555 1_555
H10 N10 1_555 1_555
N11 C10 1_555 1_555
C5 C4 1_555 1_555
H11 C5 1_555 1_555
C6 C1 1_555 1_555
H12 C6 1_555 1_555
C7 H13 1_555 1_555
H14 C7 1_555 1_555
N12 Zn1 1_555 1_555
H15 N12 1_555 1_555
H16 N12 1_555 1_555
C8 C1 1_555 1_555
C9 N9 1_555 1_555
H17 C9 1_555 1_555
H18 C9 1_555 1_555
N13 Zn1 1_555 1_555
C10 N2 1_555 1_555
H19 C10 1_555 1_555
C11 N4 1_555 1_555
C12 N5 1_555 1_555
N14 C11 1_555 1_555
C13 C7 1_555 1_555
H20 C13 1_555 1_555
H21 C13 1_555 1_555
C14 N1 1_555 1_555
H22 C14 1_555 1_555
C15 C3 1_555 1_555
H23 C15 1_555 1_555
H24 C15 1_555 1_555
C16 N3 1_555 1_555
H25 C16 1_555 1_555
H26 C16 1_555 1_555
H27 N6 1_555 1_555
H28 N13 1_555 1_555
Zn2_2 N4 1_555 1_555
N4_2 Zn2 1_555 1_555
N5 C6 1_555 1_555
C2 N13 1_555 1_555
N6 C8 1_555 1_555
C3 N10 1_555 1_555
N8 C12 1_555 1_555
N11 C12 1_555 1_555
C7 C16 1_555 1_555
N12 C13 1_555 1_555
C9 C15 1_555 1_555
N14 C14 1_555 1_555

#END
