
#######################################################################
#
#                 Cambridge Crystallographic Data Centre
#                                CCDC 
#
#######################################################################
#
# If this CIF has been generated from an entry in the Cambridge 
# Structural Database, then it will include bibliographic, chemical, 
# crystal, experimental, refinement or atomic coordinate data resulting 
# from the CCDC's data processing and validation procedures.
#
#######################################################################

data_VASNOT
_symmetry_cell_setting           triclinic
_symmetry_space_group_name_H-M   'P -1'
_symmetry_Int_Tables_number      2
_space_group_name_Hall           '-P 1'
loop_
_symmetry_equiv_pos_site_id
_symmetry_equiv_pos_as_xyz
1 x,y,z
2 -x,-y,-z
_cell_length_a                   9.280(2)
_cell_length_b                   11.317(4)
_cell_length_c                   12.442(3)
_cell_angle_alpha                69.656(19)
_cell_angle_beta                 80.444(17)
_cell_angle_gamma                87.994(19)
_cell_volume                     1207.81
loop_
_atom_site_label
_atom_site_type_symbol
_atom_site_fract_x
_atom_site_fract_y
_atom_site_fract_z
Ni1 Ni 0.36147(3) 0.74169(3) 0.61292(2)
O1 O 0.2836(2) 0.89701(16) 0.50186(15)
O2 O 0.28661(19) 0.72919(16) 0.45203(16)
O3 O 0.15365(19) 1.65518(16) -0.29071(15)
O4 O 0.36067(19) 1.55717(16) -0.27241(15)
O5 O -0.0729(2) 1.12519(17) 0.09110(16)
N1 N 0.3992(2) 0.82839(19) 0.72600(17)
N2 N 0.5776(2) 0.72719(19) 0.54594(18)
C1 C 0.1568(3) 0.9099(2) 0.3488(2)
C2 C 0.1335(4) 0.8665(3) 0.2618(3)
C3 C 0.0552(4) 0.9379(3) 0.1768(3)
C4 C 0.0016(3) 1.0507(2) 0.1797(2)
C5 C 0.0166(3) 1.0927(3) 0.2680(2)
C6 C 0.0962(3) 1.0220(3) 0.3515(2)
C7 C 0.2481(3) 0.8402(2) 0.4382(2)
C8 C 0.0037(3) 1.2314(2) 0.0121(2)
C9 C -0.0759(3) 1.3262(3) -0.0517(3)
C10 C -0.0051(3) 1.4328(3) -0.1344(3)
C11 C 0.1448(3) 1.4445(2) -0.1542(2)
C12 C 0.2227(3) 1.3473(3) -0.0903(3)
C13 C 0.1526(4) 1.2419(3) -0.0060(3)
C14 C 0.2222(3) 1.5580(2) -0.2430(2)
C15 C 0.3992(3) 0.9540(3) 0.6929(2)
C16 C 0.4299(4) 1.0192(3) 0.7616(2)
C17 C 0.4595(3) 0.9543(3) 0.8721(2)
C18 C 0.4579(3) 0.8242(3) 0.9072(2)
C19 C 0.4280(3) 0.7647(3) 0.8335(2)
C20 C 0.4917(3) 1.0248(3) 0.9452(2)
C21 C 0.9879(3) 0.5498(3) 0.5159(3)
C22 C 0.8490(3) 0.6138(2) 0.5201(2)
C23 C 0.8248(3) 0.6997(3) 0.5768(3)
C24 C 0.6899(3) 0.7537(3) 0.5883(3)
C25 C 0.6027(3) 0.6486(3) 0.4858(3)
C26 C 0.7329(3) 0.5914(3) 0.4718(3)
H1 H 0.169(4) 0.794(4) 0.261(3)
H2 H 0.034(4) 0.910(3) 0.125(3)
H3 H -0.025(3) 1.171(3) 0.272(3)
H4 H 0.105(3) 1.047(3) 0.408(3)
H5 H -0.177(4) 1.315(3) -0.035(3)
H6 H -0.062(4) 1.501(4) -0.175(3)
H7 H 0.202(4) 1.186(4) 0.038(3)
H8 H 0.325(5) 1.360(4) -0.099(3)
H9 H 0.373(3) 0.997(3) 0.620(3)
H10 H 0.429(3) 1.110(3) 0.732(3)
H11 H 0.476(3) 0.776(3) 0.975(3)
H12 H 0.433(3) 0.668(3) 0.857(2)
H13 H 1.065(3) 0.585(3) 0.535(3)
H14 H 0.510(3) 1.110(3) 0.906(2)
H15 H 0.903(4) 0.718(3) 0.610(3)
H16 H 0.676(4) 0.808(3) 0.633(3)
H17 H 0.524(4) 0.629(3) 0.462(3)
H18 H 0.743(4) 0.539(3) 0.435(3)
C20A C 0.5083(3) 0.9752(3) 1.0548(2)
C17A C 0.5405(3) 1.0457(3) 1.1279(2)
C16A C 0.5701(4) 0.9808(3) 1.2384(2)
C15A C 0.6008(3) 1.0460(3) 1.3071(2)
N1A N 0.6008(2) 1.17161(19) 1.27400(17)
C19A C 0.5720(3) 1.2353(3) 1.1665(2)
C18A C 0.5421(3) 1.1758(3) 1.0928(2)
H11A H 0.524(3) 1.224(3) 1.025(3)
H12A H 0.567(3) 1.332(3) 1.143(2)
H9A H 0.627(3) 1.003(3) 1.380(3)
H10A H 0.571(3) 0.890(3) 1.268(3)
H14A H 0.490(3) 0.890(3) 1.094(2)
C21A C 1.0121(3) 0.4502(3) 0.4841(3)
C22A C 1.1510(3) 0.3862(2) 0.4799(2)
C23A C 1.1752(3) 0.3003(3) 0.4232(3)
C24A C 1.3101(3) 0.2463(3) 0.4117(3)
N2A N 1.4224(2) 0.27281(19) 0.45406(18)
C25A C 1.3973(3) 0.3514(3) 0.5142(3)
C26A C 1.2671(3) 0.4086(3) 0.5282(3)
H18A H 1.257(4) 0.461(3) 0.565(3)
H17A H 1.476(4) 0.371(3) 0.538(3)
H16A H 1.324(4) 0.192(3) 0.367(3)
H15A H 1.097(4) 0.282(3) 0.390(3)
H13A H 0.935(3) 0.415(3) 0.465(3)
O1_2 O 0.2836(2) -0.10299(16) 1.50186(15)
O2_2 O 0.28661(19) -0.27081(16) 1.45203(16)
O3_2 O 0.15365(19) 0.65518(16) 0.70929(15)
O4_2 O 0.36067(19) 0.55717(16) 0.72759(15)
O5_2 O -0.0729(2) 0.12519(17) 1.09110(16)
C1_2 C 0.1568(3) -0.0901(2) 1.3488(2)
C2_2 C 0.1335(4) -0.1335(3) 1.2618(3)
C3_2 C 0.0552(4) -0.0621(3) 1.1768(3)
C4_2 C 0.0016(3) 0.0507(2) 1.1797(2)
C5_2 C 0.0166(3) 0.0927(3) 1.2680(2)
C6_2 C 0.0962(3) 0.0220(3) 1.3515(2)
C7_2 C 0.2481(3) -0.1598(2) 1.4382(2)
C8_2 C 0.0037(3) 0.2314(2) 1.0121(2)
C9_2 C -0.0759(3) 0.3262(3) 0.9483(3)
C10_2 C -0.0051(3) 0.4328(3) 0.8656(3)
C11_2 C 0.1448(3) 0.4445(2) 0.8458(2)
C12_2 C 0.2227(3) 0.3473(3) 0.9097(3)
C13_2 C 0.1526(4) 0.2419(3) 0.9940(3)
C14_2 C 0.2222(3) 0.5580(2) 0.7570(2)
H1_2 H 0.169(4) -0.206(4) 1.261(3)
H2_2 H 0.034(4) -0.090(3) 1.125(3)
H3_2 H -0.025(3) 0.171(3) 1.272(3)
H4_2 H 0.105(3) 0.047(3) 1.408(3)
H5_2 H -0.177(4) 0.315(3) 0.965(3)
H6_2 H -0.062(4) 0.501(4) 0.825(3)
H7_2 H 0.202(4) 0.186(4) 1.038(3)
H8_2 H 0.325(5) 0.360(4) 0.901(3)
Ni1_2 Ni 0.36147(3) -0.25831(3) 1.61292(2)
Ni1_3 Ni 0.36147(3) 1.74169(3) -0.38708(2)
Ni1A Ni 0.63853(3) 1.25831(3) 1.38708(2)
Ni1A_2 Ni 1.63853(3) 0.25831(3) 0.38708(2)
O3_3 O 0.15365(19) -0.34482(16) 1.70929(15)
O4_3 O 0.36067(19) -0.44283(16) 1.72759(15)
N1_2 N 0.3992(2) -0.17161(19) 1.72600(17)
N2_2 N 0.5776(2) -0.27281(19) 1.54594(18)
O6 O 0.4194(4) 0.6443(4) 0.2383(3)
H19 H 0.416(5) 0.581(4) 0.189(4)
H20 H 0.369(11) 0.647(9) 0.320(8)
loop_
_geom_bond_atom_site_label_1
_geom_bond_atom_site_label_2
_geom_bond_site_symmetry_1
_geom_bond_site_symmetry_2
Ni1 O1 1_555 1_555
O1 C7 1_555 1_555
O2 Ni1 1_555 1_555
O3 C14 1_555 1_555
O4 C14 1_555 1_555
O5 C4 1_555 1_555
O6 H19 1_555 1_555
N1 Ni1 1_555 1_555
N2 Ni1 1_555 1_555
C1 C2 1_555 1_555
C2 C3 1_555 1_555
C3 C4 1_555 1_555
C4 C5 1_555 1_555
C5 C6 1_555 1_555
C6 C1 1_555 1_555
C7 O2 1_555 1_555
C8 O5 1_555 1_555
C9 C8 1_555 1_555
C10 C9 1_555 1_555
C11 C10 1_555 1_555
C12 C11 1_555 1_555
C13 C8 1_555 1_555
C14 C11 1_555 1_555
C15 N1 1_555 1_555
C16 C15 1_555 1_555
C17 C16 1_555 1_555
C18 C17 1_555 1_555
C19 N1 1_555 1_555
C20 C17 1_555 1_555
C21 C22 1_555 1_555
C22 C23 1_555 1_555
C23 C24 1_555 1_555
C24 N2 1_555 1_555
C25 N2 1_555 1_555
C26 C22 1_555 1_555
H1 C2 1_555 1_555
H2 C3 1_555 1_555
H3 C5 1_555 1_555
H4 C6 1_555 1_555
H5 C9 1_555 1_555
H6 C10 1_555 1_555
H7 C13 1_555 1_555
H8 C12 1_555 1_555
H9 C15 1_555 1_555
H10 C16 1_555 1_555
H11 C18 1_555 1_555
H12 C19 1_555 1_555
H13 C21 1_555 1_555
H14 C20 1_555 1_555
H15 C23 1_555 1_555
H16 C24 1_555 1_555
H17 C25 1_555 1_555
H18 C26 1_555 1_555
H20 O6 1_555 1_555
C20A C20 1_555 1_555
C17A C20A 1_555 1_555
C16A C17A 1_555 1_555
C15A C16A 1_555 1_555
N1A C15A 1_555 1_555
C19A N1A 1_555 1_555
C18A C17A 1_555 1_555
H11A C18A 1_555 1_555
H12A C19A 1_555 1_555
H9A C15A 1_555 1_555
H10A C16A 1_555 1_555
H14A C20A 1_555 1_555
C21A C21 1_555 1_555
C22A C21A 1_555 1_555
C23A C22A 1_555 1_555
C24A C23A 1_555 1_555
N2A C24A 1_555 1_555
C25A N2A 1_555 1_555
C26A C22A 1_555 1_555
H18A C26A 1_555 1_555
H17A C25A 1_555 1_555
H16A C24A 1_555 1_555
H15A C23A 1_555 1_555
H13A C21A 1_555 1_555
O1_2 C7_2 1_555 1_555
O2_2 C7_2 1_555 1_555
O3_2 Ni1 1_555 1_555
O4_2 Ni1 1_555 1_555
O5_2 C4_2 1_555 1_555
C1_2 C2_2 1_555 1_555
C2_2 C3_2 1_555 1_555
C3_2 C4_2 1_555 1_555
C4_2 C5_2 1_555 1_555
C5_2 C6_2 1_555 1_555
C6_2 C1_2 1_555 1_555
C7_2 C1_2 1_555 1_555
C8_2 O5_2 1_555 1_555
C9_2 C8_2 1_555 1_555
C10_2 C9_2 1_555 1_555
C11_2 C10_2 1_555 1_555
C12_2 C11_2 1_555 1_555
C13_2 C8_2 1_555 1_555
C14_2 O3_2 1_555 1_555
H1_2 C2_2 1_555 1_555
H2_2 C3_2 1_555 1_555
H3_2 C5_2 1_555 1_555
H4_2 C6_2 1_555 1_555
H5_2 C9_2 1_555 1_555
H6_2 C10_2 1_555 1_555
H7_2 C13_2 1_555 1_555
H8_2 C12_2 1_555 1_555
Ni1_2 O1_2 1_555 1_555
Ni1_3 O3 1_555 1_555
Ni1A N1A 1_555 1_555
Ni1A_2 N2A 1_555 1_555
O3_3 Ni1_2 1_555 1_555
O4_3 Ni1_2 1_555 1_555
N1_2 Ni1_2 1_555 1_555
N2_2 Ni1_2 1_555 1_555
O4 Ni1_3 1_555 1_555
C1 C7 1_555 1_555
C12 C13 1_555 1_555
C18 C19 1_555 1_555
C25 C26 1_555 1_555
C19A C18A 1_555 1_555
C25A C26A 1_555 1_555
O2_2 Ni1_2 1_555 1_555
O4_2 C14_2 1_555 1_555
C11_2 C14_2 1_555 1_555
C12_2 C13_2 1_555 1_555

#END
