
#######################################################################
#
#                 Cambridge Crystallographic Data Centre
#                                CCDC 
#
#######################################################################
#
# If this CIF has been generated from an entry in the Cambridge 
# Structural Database, then it will include bibliographic, chemical, 
# crystal, experimental, refinement or atomic coordinate data resulting 
# from the CCDC's data processing and validation procedures.
#
#######################################################################

data_VASXUK
_symmetry_cell_setting           monoclinic
_symmetry_space_group_name_H-M   'P 21/c'
_symmetry_Int_Tables_number      14
_space_group_name_Hall           '-P 2ybc'
loop_
_symmetry_equiv_pos_site_id
_symmetry_equiv_pos_as_xyz
1 x,y,z
2 -x,1/2+y,1/2-z
3 -x,-y,-z
4 x,1/2-y,1/2+z
_cell_length_a                   9.6238(17)
_cell_length_b                   10.1634(18)
_cell_length_c                   12.178(2)
_cell_angle_alpha                90
_cell_angle_beta                 94.457(2)
_cell_angle_gamma                90
_cell_volume                     1187.53
loop_
_atom_site_label
_atom_site_type_symbol
_atom_site_fract_x
_atom_site_fract_y
_atom_site_fract_z
Co1 Co 0.21531(4) 0.99165(3) 0.06433(3)
N1 N 0.0554(2) 1.00525(18) 0.16974(17)
H1 H 0.0070 1.0794 0.1535
H2 H -0.0030 0.9370 0.1560
N2 N 0.4079(2) 0.9780(2) 0.13922(19)
N3 N 0.5896(2) 0.9077(2) 0.2422(2)
H3 H 0.6411 0.8583 0.2859
C1 C 0.5147(3) 1.0685(3) 0.1373(2)
H4 H 0.5099 1.1473 0.0984
C2 C 0.6266(3) 1.0254(3) 0.2000(2)
H5 H 0.7122 1.0676 0.2122
C3 C 0.4589(3) 0.8828(3) 0.2035(2)
H6 H 0.4098 0.8074 0.2199
C4 C 0.0985(3) 1.0061(2) 0.2855(2)
C5 C 0.1279(3) 1.1237(2) 0.3401(2)
H7 H 0.1195 1.2028 0.3018
C6 C 0.1166(3) 0.8880(2) 0.3414(2)
H8 H 0.1012 0.8090 0.3039
C7 C 0.1578(3) 0.8873(2) 0.4537(2)
C8 C 0.1967(3) 1.2508(2) 0.5131(2)
C9 C 0.1736(3) 0.7599(2) 0.5156(2)
C10 C 0.1832(3) 1.0052(2) 0.5086(2)
H9 H 0.2092 1.0048 0.5838
C11 C 0.1701(3) 1.1237(2) 0.45248(19)
O1 O 0.17659(19) 1.35790(16) 0.45947(14)
O2 O 0.16195(19) 0.65370(16) 0.45865(14)
O3 O 0.2374(2) 1.25054(18) 0.61317(15)
O4 O 0.1990(2) 0.75839(18) 0.61678(15)
Co1C Co 0.21531(4) 1.50835(3) 0.56433(3)
Co1C_2 Co 0.21531(4) 0.50835(3) 0.56433(3)
O1C O 0.17659(19) 1.14210(16) -0.04053(14)
O2C O 0.16195(19) 0.84630(16) -0.04135(14)
loop_
_geom_bond_atom_site_label_1
_geom_bond_atom_site_label_2
_geom_bond_site_symmetry_1
_geom_bond_site_symmetry_2
Co1 N1 1_555 1_555
N1 H1 1_555 1_555
H2 N1 1_555 1_555
N2 Co1 1_555 1_555
N3 H3 1_555 1_555
C1 N2 1_555 1_555
H4 C1 1_555 1_555
C2 N3 1_555 1_555
H5 C2 1_555 1_555
C3 N2 1_555 1_555
H6 C3 1_555 1_555
C4 N1 1_555 1_555
C5 C4 1_555 1_555
H7 C5 1_555 1_555
C6 C4 1_555 1_555
H8 C6 1_555 1_555
C7 C6 1_555 1_555
C8 C11 1_555 1_555
C9 C7 1_555 1_555
C10 C7 1_555 1_555
H9 C10 1_555 1_555
C11 C5 1_555 1_555
O1 C8 1_555 1_555
O2 C9 1_555 1_555
O3 C8 1_555 1_555
O4 C9 1_555 1_555
Co1C O1 1_555 1_555
Co1C_2 O2 1_555 1_555
O1C Co1 1_555 1_555
O2C Co1 1_555 1_555
N3 C3 1_555 1_555
C1 C2 1_555 1_555
C10 C11 1_555 1_555

#END
