
#######################################################################
#
#                 Cambridge Crystallographic Data Centre
#                                CCDC 
#
#######################################################################
#
# If this CIF has been generated from an entry in the Cambridge 
# Structural Database, then it will include bibliographic, chemical, 
# crystal, experimental, refinement or atomic coordinate data resulting 
# from the CCDC's data processing and validation procedures.
#
#######################################################################

data_VATQEO
_symmetry_cell_setting           monoclinic
_symmetry_space_group_name_H-M   'C 2/c'
_symmetry_Int_Tables_number      15
_space_group_name_Hall           '-C 2yn'
loop_
_symmetry_equiv_pos_site_id
_symmetry_equiv_pos_as_xyz
1 x,y,z
2 -x,y,1/2-z
3 1/2+x,1/2+y,z
4 1/2-x,1/2+y,1/2-z
5 -x,-y,-z
6 x,-y,1/2+z
7 1/2-x,1/2-y,-z
8 1/2+x,1/2-y,1/2+z
_cell_length_a                   24.24(2)
_cell_length_b                   9.242(7)
_cell_length_c                   11.034(11)
_cell_angle_alpha                90
_cell_angle_beta                 110.861(11)
_cell_angle_gamma                90
_cell_volume                     2309.86
loop_
_atom_site_label
_atom_site_type_symbol
_atom_site_fract_x
_atom_site_fract_y
_atom_site_fract_z
Ni1 Ni 0.5000 0.0000 1.0000
O1 O 0.42853(14) 0.1078(3) 0.8565(3)
O2 O 0.36510(15) 0.1198(4) 0.9616(3)
O3 O 0.55086(17) 0.0392(4) 0.8832(4)
O4 O 0.23295(16) 0.5423(4) 0.4918(4)
H1 H 0.2085 0.5823 0.5190
C1 C 0.3802(2) 0.1525(5) 0.8665(5)
N1 N 0.52509(19) 0.4254(4) 1.1502(4)
C2 C 0.2605(2) 0.4269(6) 0.7021(5)
H2 H 0.2314 0.4796 0.7227
N2 N 0.52872(18) 0.1974(4) 1.0918(4)
C3 C 0.3120(2) 0.3738(5) 0.5572(5)
H3 H 0.3174 0.3888 0.4771
C4 C 0.3484(2) 0.2782(5) 0.6470(5)
H4 H 0.3789 0.2295 0.6281
C5 C 0.3409(2) 0.2520(5) 0.7657(5)
C6 C 0.2964(2) 0.3277(5) 0.7916(5)
H5 H 0.2905 0.3116 0.8710
C7 C 0.4936(2) 0.3041(5) 1.1002(5)
H6 H 0.4519 0.2966 1.0745
C8 C 0.2671(2) 0.4488(6) 0.5834(5)
C9 C 0.4993(3) 0.5590(5) 1.1795(5)
H7 H 0.4580 0.5682 1.1192
H8 H 0.5217 0.6435 1.1663
C10 C 0.5841(2) 0.3920(6) 1.1787(6)
H9 H 0.6169 0.4545 1.2162
C11 C 0.5857(2) 0.2522(6) 1.1423(5)
H10 H 0.6205 0.1998 1.1503
H11 H 0.5797 -0.0172 0.9221
H12 H 0.545(3) 0.026(7) 0.804(3)
Ni1A Ni 0.5000 0.0000 1.5000
O1D O 0.57147(14) -0.1078(3) 1.1435(3)
O2D O 0.63490(15) -0.1198(4) 1.0384(3)
O3D O 0.44914(17) -0.0392(4) 1.1168(4)
O4D O 0.76705(16) -0.5423(4) 1.5082(4)
H1D H 0.7915 -0.5823 1.4810
C1D C 0.6198(2) -0.1525(5) 1.1335(5)
N1A N 0.47491(19) 0.4254(4) 1.3498(4)
C2D C 0.7395(2) -0.4269(6) 1.2979(5)
H2D H 0.7686 -0.4796 1.2773
N2A N 0.47128(18) 0.1974(4) 1.4082(4)
N2D N 0.47128(18) -0.1974(4) 0.9082(4)
C3D C 0.6880(2) -0.3738(5) 1.4428(5)
H3D H 0.6826 -0.3888 1.5229
C4D C 0.6516(2) -0.2782(5) 1.3530(5)
H4D H 0.6211 -0.2295 1.3719
C5D C 0.6591(2) -0.2520(5) 1.2343(5)
C6D C 0.7036(2) -0.3277(5) 1.2084(5)
H5D H 0.7095 -0.3116 1.1290
C7A C 0.5064(2) 0.3041(5) 1.3998(5)
H6A H 0.5481 0.2966 1.4255
C8D C 0.7329(2) -0.4488(6) 1.4166(5)
C9A C 0.5007(3) 0.5590(5) 1.3205(5)
H7A H 0.5420 0.5682 1.3808
H8A H 0.4783 0.6435 1.3337
C10A C 0.4159(2) 0.3920(6) 1.3213(6)
H9A H 0.3831 0.4545 1.2838
C11A C 0.4143(2) 0.2522(6) 1.3577(5)
H10A H 0.3795 0.1998 1.3497
H11D H 0.4203 0.0172 1.0779
H12D H 0.455(3) -0.026(7) 1.196(3)
loop_
_geom_bond_atom_site_label_1
_geom_bond_atom_site_label_2
_geom_bond_site_symmetry_1
_geom_bond_site_symmetry_2
Ni1 O1 1_555 1_555
O1 C1 1_555 1_555
O2 C1 1_555 1_555
O3 Ni1 1_555 1_555
O4 H1 1_555 1_555
C1 C5 1_555 1_555
N1 C7 1_555 1_555
C2 H2 1_555 1_555
N2 Ni1 1_555 1_555
C3 H3 1_555 1_555
C4 C3 1_555 1_555
H4 C4 1_555 1_555
C5 C4 1_555 1_555
C6 C2 1_555 1_555
H5 C6 1_555 1_555
C7 N2 1_555 1_555
H6 C7 1_555 1_555
C8 O4 1_555 1_555
C9 N1 1_555 1_555
H7 C9 1_555 1_555
H8 C9 1_555 1_555
C10 N1 1_555 1_555
H9 C10 1_555 1_555
C11 N2 1_555 1_555
H10 C11 1_555 1_555
H11 O3 1_555 1_555
H12 O3 1_555 1_555
Ni1A N2A 1_555 1_555
O1D Ni1 1_555 1_555
O2D C1D 1_555 1_555
O3D Ni1 1_555 1_555
O4D H1D 1_555 1_555
C1D O1D 1_555 1_555
N1A C7A 1_555 1_555
C2D H2D 1_555 1_555
N2A C7A 1_555 1_555
N2D Ni1 1_555 1_555
C3D H3D 1_555 1_555
C4D C3D 1_555 1_555
H4D C4D 1_555 1_555
C5D C1D 1_555 1_555
C6D C2D 1_555 1_555
H5D C6D 1_555 1_555
C7A H6A 1_555 1_555
C8D O4D 1_555 1_555
C9A C9 1_555 1_555
H7A C9A 1_555 1_555
H8A C9A 1_555 1_555
C10A N1A 1_555 1_555
H9A C10A 1_555 1_555
C11A N2A 1_555 1_555
H10A C11A 1_555 1_555
H11D O3D 1_555 1_555
H12D O3D 1_555 1_555
C2 C8 1_555 1_555
C3 C8 1_555 1_555
C5 C6 1_555 1_555
C10 C11 1_555 1_555
N1A C9A 1_555 1_555
C2D C8D 1_555 1_555
C3D C8D 1_555 1_555
C4D C5D 1_555 1_555
C5D C6D 1_555 1_555
C10A C11A 1_555 1_555

#END
