
#######################################################################
#
#                 Cambridge Crystallographic Data Centre
#                                CCDC 
#
#######################################################################
#
# If this CIF has been generated from an entry in the Cambridge 
# Structural Database, then it will include bibliographic, chemical, 
# crystal, experimental, refinement or atomic coordinate data resulting 
# from the CCDC's data processing and validation procedures.
#
#######################################################################

data_VATVAO
_symmetry_cell_setting           triclinic
_symmetry_space_group_name_H-M   'P -1'
_symmetry_Int_Tables_number      2
_space_group_name_Hall           '-P 1'
loop_
_symmetry_equiv_pos_site_id
_symmetry_equiv_pos_as_xyz
1 x,y,z
2 -x,-y,-z
_cell_length_a                   9.899(2)
_cell_length_b                   9.989(2)
_cell_length_c                   11.425(2)
_cell_angle_alpha                107.910(15)
_cell_angle_beta                 104.464(16)
_cell_angle_gamma                90.894(16)
_cell_volume                     1035.65
loop_
_atom_site_label
_atom_site_type_symbol
_atom_site_fract_x
_atom_site_fract_y
_atom_site_fract_z
C1 C 0.1399(7) 0.2054(6) 0.1739(7)
H1 H 0.0440 0.1803 0.1390
C2 C 0.2297(7) 0.1022(6) 0.1544(7)
H2 H 0.1936 0.0090 0.1085
C3 C 0.3733(7) 0.1354(6) 0.2023(6)
C4 C 0.4191(8) 0.2757(7) 0.2771(8)
H3 H 0.5140 0.3033 0.3166
C5 C 0.3225(7) 0.3725(7) 0.2916(8)
H4 H 0.3549 0.4660 0.3396
C6 C 0.4688(7) 0.0261(6) 0.1731(7)
H5 H 0.4287 -0.0672 0.1390
C7 C 0.6044(7) 0.0460(6) 0.1899(7)
H6 H 0.6461 0.1386 0.2264
C8 C 0.6964(7) -0.0661(6) 0.1557(6)
C9 C 0.6445(7) -0.2040(6) 0.0824(7)
H7 H 0.5484 -0.2290 0.0489
C10 C 0.7378(8) -0.3034(7) 0.0601(8)
H8 H 0.7015 -0.3955 0.0106
C11 C 0.9260(8) -0.1434(8) 0.1721(8)
H9 H 1.0227 -0.1222 0.2029
C12 C 0.8426(8) -0.0359(7) 0.1987(7)
H10 H 0.8825 0.0561 0.2448
C13 C -0.3144(8) 0.6357(8) 0.3272(9)
H11 H -0.3392 0.5425 0.2744
C14 C -0.4207(8) 0.7149(8) 0.3573(9)
H12 H -0.5137 0.6762 0.3233
C15 C -0.3885(7) 0.8508(7) 0.4374(8)
C16 C -0.2469(9) 0.9013(7) 0.4865(8)
H13 H -0.2193 0.9922 0.5437
C17 C -0.1481(8) 0.8130(7) 0.4484(8)
H14 H -0.0540 0.8479 0.4816
C18 C -0.5067(9) 0.9353(8) 0.4638(9)
C19 C 0.2181(7) 0.6710(6) 0.0870(7)
C20 C -0.1335(7) 0.3475(5) 0.4215(6)
N1 N 0.1850(6) 0.3397(5) 0.2408(6)
N2 N -0.1790(6) 0.6823(6) 0.3678(6)
N3 N -0.0804(8) 0.3712(6) 0.3501(6)
N4 N 0.2204(7) 0.6575(8) 0.1832(7)
N5 N 0.8756(7) -0.2768(6) 0.1043(7)
Pb1 Pb 0.00530(2) 0.52844(2) 0.24051(2)
S1 S -0.20634(17) 0.30905(16) 0.52312(16)
S2 S 0.2251(2) 0.69561(18) -0.04687(18)
H15 H -0.602(4) 0.911(9) 0.419(9)
C1_2 C -0.8601(7) 1.2054(6) 0.1739(7)
H1_2 H -0.9560 1.1803 0.1390
C2_2 C -0.7703(7) 1.1022(6) 0.1544(7)
H2_2 H -0.8064 1.0090 0.1085
C3_2 C -0.6267(7) 1.1354(6) 0.2023(6)
C4_2 C -0.5809(8) 1.2757(7) 0.2771(8)
H3_2 H -0.4860 1.3033 0.3166
C5_2 C -0.6775(7) 1.3725(7) 0.2916(8)
H4_2 H -0.6451 1.4660 0.3396
C6_2 C -0.5312(7) 1.0261(6) 0.1731(7)
H5_2 H -0.5713 0.9328 0.1390
C7_2 C -0.3956(7) 1.0460(6) 0.1899(7)
H6_2 H -0.3539 1.1386 0.2264
C8_2 C -0.3036(7) 0.9339(6) 0.1557(6)
C9_2 C -0.3555(7) 0.7960(6) 0.0824(7)
H7_2 H -0.4516 0.7710 0.0489
C10_2 C -0.2622(8) 0.6966(7) 0.0601(8)
H8_2 H -0.2985 0.6045 0.0106
C11_2 C -0.0740(8) 0.8566(8) 0.1721(8)
H9_2 H 0.0227 0.8778 0.2029
C12_2 C -0.1574(8) 0.9641(7) 0.1987(7)
H10_2 H -0.1175 1.0561 0.2448
C13A C -0.6856(8) 1.3643(8) 0.6728(9)
H11A H -0.6608 1.4575 0.7256
C14A C -0.5793(8) 1.2851(8) 0.6427(9)
H12A H -0.4863 1.3238 0.6767
C15A C -0.6115(7) 1.1492(7) 0.5626(8)
C16A C -0.7531(9) 1.0987(7) 0.5135(8)
H13A H -0.7807 1.0078 0.4563
C17A C -0.8519(8) 1.1870(7) 0.5516(8)
H14A H -0.9460 1.1521 0.5184
C18A C -0.4933(9) 1.0647(8) 0.5362(9)
C19A C -0.2181(7) 0.3290(6) -0.0870(7)
C20A C 0.1335(7) 0.6525(5) 0.5785(6)
N1_2 N -0.8150(6) 1.3397(5) 0.2408(6)
N2A N -0.8210(6) 1.3177(6) 0.6322(6)
N2_2 N -1.1790(6) 1.6823(6) 0.3678(6)
N3A N 0.0804(8) 0.6288(6) 0.6499(6)
N3_2 N -1.0804(8) 1.3712(6) 0.3501(6)
N4A N -0.2204(7) 0.3425(8) -0.1832(7)
N4_2 N -0.7796(7) 1.6575(8) 0.1832(7)
N5_2 N -0.1244(7) 0.7232(6) 0.1043(7)
N5_3 N -1.1244(7) 1.7232(6) 0.1043(7)
Pb1_2 Pb -0.99470(2) 1.52844(2) 0.24051(2)
Pb1_3 Pb 1.00530(2) -0.47156(2) 0.24051(2)
Pb1A Pb -0.00530(2) 0.47156(2) 0.75949(2)
Pb1A_2 Pb -0.00530(2) 0.47156(2) -0.24051(2)
Pb1A_3 Pb -1.00530(2) 1.47156(2) 0.75949(2)
S1A S 0.20634(17) 0.69095(16) 0.47688(16)
S1A_2 S -0.79366(17) 1.69095(16) 0.47688(16)
S2A S -0.2251(2) 0.30439(18) 0.04687(18)
S2A_2 S -1.2251(2) 1.30439(18) 0.04687(18)
H15A H -0.398(4) 1.089(9) 0.581(9)
loop_
_geom_bond_atom_site_label_1
_geom_bond_atom_site_label_2
_geom_bond_site_symmetry_1
_geom_bond_site_symmetry_2
C1 H1 1_555 1_555
C2 C1 1_555 1_555
H2 C2 1_555 1_555
C3 C2 1_555 1_555
C4 C3 1_555 1_555
H3 C4 1_555 1_555
C5 C4 1_555 1_555
H4 C5 1_555 1_555
C6 C3 1_555 1_555
H5 C6 1_555 1_555
C7 C6 1_555 1_555
H6 C7 1_555 1_555
C8 C7 1_555 1_555
C9 C8 1_555 1_555
H7 C9 1_555 1_555
C10 C9 1_555 1_555
H8 C10 1_555 1_555
C11 H9 1_555 1_555
C12 C8 1_555 1_555
H10 C12 1_555 1_555
C13 H11 1_555 1_555
C14 C13 1_555 1_555
H12 C14 1_555 1_555
C15 C14 1_555 1_555
C16 C15 1_555 1_555
H13 C16 1_555 1_555
C17 C16 1_555 1_555
H14 C17 1_555 1_555
C18 C15 1_555 1_555
C19 N4 1_555 1_555
C20 N3 1_555 1_555
N1 C1 1_555 1_555
N2 C13 1_555 1_555
N3 Pb1 1_555 1_555
N4 Pb1 1_555 1_555
N5 C10 1_555 1_555
Pb1 N1 1_555 1_555
S1 C20 1_555 1_555
S2 C19 1_555 1_555
H15 C18 1_555 1_555
C1_2 H1_2 1_555 1_555
C2_2 C1_2 1_555 1_555
H2_2 C2_2 1_555 1_555
C3_2 C2_2 1_555 1_555
C4_2 C3_2 1_555 1_555
H3_2 C4_2 1_555 1_555
C5_2 C4_2 1_555 1_555
H4_2 C5_2 1_555 1_555
C6_2 C3_2 1_555 1_555
H5_2 C6_2 1_555 1_555
C7_2 C6_2 1_555 1_555
H6_2 C7_2 1_555 1_555
C8_2 C7_2 1_555 1_555
C9_2 C8_2 1_555 1_555
H7_2 C9_2 1_555 1_555
C10_2 C9_2 1_555 1_555
H8_2 C10_2 1_555 1_555
C11_2 H9_2 1_555 1_555
C12_2 C8_2 1_555 1_555
H10_2 C12_2 1_555 1_555
C13A H11A 1_555 1_555
C14A C13A 1_555 1_555
H12A C14A 1_555 1_555
C15A C14A 1_555 1_555
C16A C15A 1_555 1_555
H13A C16A 1_555 1_555
C17A C16A 1_555 1_555
H14A C17A 1_555 1_555
C18A C18 1_555 1_555
C19A N4A 1_555 1_555
C20A N3A 1_555 1_555
N1_2 C1_2 1_555 1_555
N2A C13A 1_555 1_555
N2_2 Pb1_2 1_555 1_555
N3A Pb1A 1_555 1_555
N3_2 Pb1_2 1_555 1_555
N4A Pb1A_2 1_555 1_555
N4_2 Pb1_2 1_555 1_555
N5_2 Pb1 1_555 1_555
N5_3 Pb1_2 1_555 1_555
Pb1_2 N1_2 1_555 1_555
Pb1_3 N5 1_555 1_555
Pb1A S1 1_555 1_555
Pb1A_2 S2 1_555 1_555
Pb1A_3 N2A 1_555 1_555
S1A Pb1 1_555 1_555
S1A_2 Pb1_2 1_555 1_555
S2A Pb1 1_555 1_555
S2A_2 Pb1_2 1_555 1_555
H15A C18A 1_555 1_555
C5 N1 1_555 1_555
C11 C12 1_555 1_555
C11 N5 1_555 1_555
C17 N2 1_555 1_555
N2 Pb1 1_555 1_555
C5_2 N1_2 1_555 1_555
C10_2 N5_2 1_555 1_555
C11_2 C12_2 1_555 1_555
C11_2 N5_2 1_555 1_555
C15A C18A 1_555 1_555
C17A N2A 1_555 1_555
C19A S2A 1_555 1_555
C20A S1A 1_555 1_555

#END
