
#######################################################################
#
#                 Cambridge Crystallographic Data Centre
#                                CCDC 
#
#######################################################################
#
# If this CIF has been generated from an entry in the Cambridge 
# Structural Database, then it will include bibliographic, chemical, 
# crystal, experimental, refinement or atomic coordinate data resulting 
# from the CCDC's data processing and validation procedures.
#
#######################################################################

data_VAVBEB
_symmetry_cell_setting           monoclinic
_symmetry_space_group_name_H-M   'C 2/c'
_symmetry_Int_Tables_number      15
_space_group_name_Hall           '-C 2yn'
loop_
_symmetry_equiv_pos_site_id
_symmetry_equiv_pos_as_xyz
1 x,y,z
2 -x,y,1/2-z
3 1/2+x,1/2+y,z
4 1/2-x,1/2+y,1/2-z
5 -x,-y,-z
6 x,-y,1/2+z
7 1/2-x,1/2-y,-z
8 1/2+x,1/2-y,1/2+z
_cell_length_a                   11.5349(4)
_cell_length_b                   17.7459(6)
_cell_length_c                   23.3278(9)
_cell_angle_alpha                90
_cell_angle_beta                 103.517(4)
_cell_angle_gamma                90
_cell_volume                     4642.87
loop_
_atom_site_label
_atom_site_type_symbol
_atom_site_fract_x
_atom_site_fract_y
_atom_site_fract_z
Ni1 Ni 0.33990(3) 0.091150(16) -0.275720(13)
O1 O 0.76038(14) 0.50916(9) -0.23210(7)
O2 O 0.92544(16) 0.46384(11) -0.17132(9)
O3 O 0.38222(14) 0.15137(9) -0.19921(7)
O4 O 0.41897(14) 0.17030(9) -0.31982(8)
O5 O 0.5000 0.03396(13) -0.2500
N1 N 0.28361(18) 0.03032(11) -0.35754(9)
N2 N 0.17689(17) 0.14751(11) -0.29873(9)
C1 C 0.8145(2) 0.46833(13) -0.18989(11)
C2 C 0.7408(2) 0.41791(13) -0.16039(11)
C3 C 0.6234(2) 0.40136(14) -0.18725(12)
H1 H 0.5873 0.4252 -0.2224
C4 C 0.5587(2) 0.34994(14) -0.16261(11)
H2 H 0.4806 0.3387 -0.1819
C5 C 0.6094(2) 0.31496(13) -0.10937(10)
C6 C 0.7272(2) 0.33263(14) -0.08209(11)
H3 H 0.7629 0.3100 -0.0463
C7 C 0.7921(2) 0.38325(14) -0.10732(11)
H4 H 0.8707 0.3940 -0.0885
C8 C 0.4802(2) 0.17271(12) -0.16823(11)
C9 C 0.4780(2) 0.19998(13) -0.10682(11)
C10 C 0.4165(2) 0.15497(15) -0.07510(12)
H5 H 0.3731 0.1139 -0.0934
C11 C 0.4189(3) 0.17035(18) -0.01657(13)
H6 H 0.3788 0.1391 0.0043
C12 C 0.4806(3) 0.23188(17) 0.01050(12)
H7 H 0.4817 0.2428 0.0496
C13 C 0.5407(2) 0.27708(15) -0.02069(11)
H8 H 0.5820 0.3187 -0.0021
C14 C 0.5417(2) 0.26252(13) -0.07950(11)
C15 C 0.1724(2) 0.22283(14) -0.30262(12)
H9 H 0.2435 0.2498 -0.2951
C16 C 0.0664(2) 0.26190(15) -0.31734(13)
H10 H 0.0672 0.3142 -0.3192
C17 C -0.0410(2) 0.22405(17) -0.32938(12)
C18 C -0.0364(2) 0.14699(16) -0.32549(12)
H11 H -0.1065 0.1190 -0.3332
C19 C 0.0722(2) 0.11121(15) -0.31014(12)
H12 H 0.0730 0.0589 -0.3075
C20 C -0.1574(3) 0.2660(2) -0.34662(16)
H13 H -0.1851 0.2657 -0.3888
H14 H -0.1460 0.3171 -0.3329
H15 H -0.2154 0.2420 -0.3292
C21 C 0.2841(4) 0.0643(2) -0.40807(14)
H16 H 0.3183 0.1119 -0.4064
C22 C 0.2373(4) 0.0338(2) -0.46279(14)
H17 H 0.2427 0.0605 -0.4964
C23 C 0.1839(2) -0.03421(16) -0.46837(13)
C24 C 0.1812(3) -0.06917(18) -0.41635(15)
H18 H 0.1451 -0.1161 -0.4171
C25 C 0.2310(3) -0.03578(15) -0.36302(13)
H19 H 0.2273 -0.0616 -0.3288
C26 C 0.1278(3) -0.0661(2) -0.52832(14)
H20 H 0.0434 -0.0573 -0.5372
H21 H 0.1428 -0.1193 -0.5284
H22 H 0.1616 -0.0419 -0.5575
H23 H 0.515(3) 0.0043(15) -0.2764(13)
Ni1A Ni 0.66010(3) 0.091150(16) -0.224280(13)
Ni1B Ni 0.83990(3) 0.591150(16) -0.275720(13)
Ni1C Ni 0.16010(3) 0.591150(16) -0.224280(13)
O1C O 0.73962(14) 0.00916(9) -0.26790(7)
O1B O 0.26038(14) 0.00916(9) -0.23210(7)
O1A O 0.23962(14) 0.50916(9) -0.26790(7)
O2A O 0.07456(16) 0.46384(11) -0.32868(9)
O3A O 0.61778(14) 0.15137(9) -0.30079(7)
O4A O 0.58103(14) 0.17030(9) -0.18018(8)
N1A N 0.71639(18) 0.03032(11) -0.14246(9)
N2A N 0.82311(17) 0.14751(11) -0.20127(9)
C1A C 0.1855(2) 0.46833(13) -0.31011(11)
C2A C 0.2592(2) 0.41791(13) -0.33961(11)
C3A C 0.3766(2) 0.40136(14) -0.31275(12)
H1A H 0.4127 0.4252 -0.2776
C4A C 0.4413(2) 0.34994(14) -0.33739(11)
H2A H 0.5194 0.3387 -0.3181
C5A C 0.3906(2) 0.31496(13) -0.39063(10)
C6A C 0.2728(2) 0.33263(14) -0.41791(11)
H3A H 0.2371 0.3100 -0.4537
C7A C 0.2079(2) 0.38325(14) -0.39268(11)
H4A H 0.1293 0.3940 -0.4115
C8A C 0.5198(2) 0.17271(12) -0.33177(11)
C9A C 0.5220(2) 0.19998(13) -0.39318(11)
C10A C 0.5835(2) 0.15497(15) -0.42490(12)
H5A H 0.6269 0.1139 -0.4066
C11A C 0.5811(3) 0.17035(18) -0.48343(13)
H6A H 0.6212 0.1391 -0.5043
C12A C 0.5194(3) 0.23188(17) -0.51050(12)
H7A H 0.5183 0.2428 -0.5496
C13A C 0.4593(2) 0.27708(15) -0.47931(11)
H8A H 0.4180 0.3187 -0.4979
C14A C 0.4583(2) 0.26252(13) -0.42050(11)
C15A C 0.8276(2) 0.22283(14) -0.19738(12)
H9A H 0.7565 0.2498 -0.2049
C16A C 0.9336(2) 0.26190(15) -0.18266(13)
H10A H 0.9328 0.3142 -0.1808
C17A C 1.0410(2) 0.22405(17) -0.17062(12)
C18A C 1.0364(2) 0.14699(16) -0.17451(12)
H11A H 1.1065 0.1190 -0.1668
C19A C 0.9278(2) 0.11121(15) -0.18986(12)
H12A H 0.9270 0.0589 -0.1925
C20A C 1.1574(3) 0.2660(2) -0.15338(16)
H13A H 1.1851 0.2657 -0.1112
H14A H 1.1460 0.3171 -0.1671
H15A H 1.2154 0.2420 -0.1708
C21A C 0.7159(4) 0.0643(2) -0.09193(14)
H16A H 0.6817 0.1119 -0.0936
C22A C 0.7627(4) 0.0338(2) -0.03721(14)
H17A H 0.7573 0.0605 -0.0036
C23A C 0.8161(2) -0.03421(16) -0.03163(13)
C24A C 0.8188(3) -0.06917(18) -0.08365(15)
H18A H 0.8549 -0.1161 -0.0829
C25A C 0.7690(3) -0.03578(15) -0.13698(13)
H19A H 0.7727 -0.0616 -0.1712
C26A C 0.8722(3) -0.0661(2) 0.02832(14)
H20A H 0.9566 -0.0573 0.0372
H21A H 0.8572 -0.1193 0.0284
H22A H 0.8384 -0.0419 0.0575
H23A H 0.485(3) 0.0043(15) -0.2236(13)
loop_
_geom_bond_atom_site_label_1
_geom_bond_atom_site_label_2
_geom_bond_site_symmetry_1
_geom_bond_site_symmetry_2
Ni1 O3 1_555 1_555
O1 C1 1_555 1_555
O2 C1 1_555 1_555
O3 C8 1_555 1_555
O4 Ni1 1_555 1_555
O5 Ni1 1_555 1_555
N1 Ni1 1_555 1_555
N2 Ni1 1_555 1_555
C1 C2 1_555 1_555
C2 C3 1_555 1_555
C3 H1 1_555 1_555
C4 C3 1_555 1_555
H2 C4 1_555 1_555
C5 C4 1_555 1_555
C6 C5 1_555 1_555
H3 C6 1_555 1_555
C7 C2 1_555 1_555
H4 C7 1_555 1_555
C8 C9 1_555 1_555
C9 C10 1_555 1_555
C10 H5 1_555 1_555
C11 C10 1_555 1_555
H6 C11 1_555 1_555
C12 C11 1_555 1_555
H7 C12 1_555 1_555
C13 C12 1_555 1_555
H8 C13 1_555 1_555
C14 C5 1_555 1_555
C15 N2 1_555 1_555
H9 C15 1_555 1_555
C16 C15 1_555 1_555
H10 C16 1_555 1_555
C17 C16 1_555 1_555
C18 C17 1_555 1_555
H11 C18 1_555 1_555
C19 N2 1_555 1_555
H12 C19 1_555 1_555
C20 C17 1_555 1_555
H13 C20 1_555 1_555
H14 C20 1_555 1_555
H15 C20 1_555 1_555
C21 N1 1_555 1_555
H16 C21 1_555 1_555
C22 C21 1_555 1_555
H17 C22 1_555 1_555
C23 C22 1_555 1_555
C24 C23 1_555 1_555
H18 C24 1_555 1_555
C25 N1 1_555 1_555
H19 C25 1_555 1_555
C26 C23 1_555 1_555
H20 C26 1_555 1_555
H21 C26 1_555 1_555
H22 C26 1_555 1_555
H23 O5 1_555 1_555
Ni1A O5 1_555 1_555
Ni1B O1 1_555 1_555
Ni1C O1A 1_555 1_555
O1C Ni1A 1_555 1_555
O1B Ni1 1_555 1_555
O1A C1A 1_555 1_555
O2A C1A 1_555 1_555
O3A Ni1A 1_555 1_555
O4A C8 1_555 1_555
N1A Ni1A 1_555 1_555
N2A Ni1A 1_555 1_555
C1A C2A 1_555 1_555
C2A C3A 1_555 1_555
C3A H1A 1_555 1_555
C4A C3A 1_555 1_555
H2A C4A 1_555 1_555
C5A C4A 1_555 1_555
C6A C5A 1_555 1_555
H3A C6A 1_555 1_555
C7A C2A 1_555 1_555
H4A C7A 1_555 1_555
C8A O4 1_555 1_555
C9A C8A 1_555 1_555
C10A C9A 1_555 1_555
H5A C10A 1_555 1_555
C11A C10A 1_555 1_555
H6A C11A 1_555 1_555
C12A C11A 1_555 1_555
H7A C12A 1_555 1_555
C13A C12A 1_555 1_555
H8A C13A 1_555 1_555
C14A C5A 1_555 1_555
C15A N2A 1_555 1_555
H9A C15A 1_555 1_555
C16A C15A 1_555 1_555
H10A C16A 1_555 1_555
C17A C16A 1_555 1_555
C18A C17A 1_555 1_555
H11A C18A 1_555 1_555
C19A N2A 1_555 1_555
H12A C19A 1_555 1_555
C20A C17A 1_555 1_555
H13A C20A 1_555 1_555
H14A C20A 1_555 1_555
H15A C20A 1_555 1_555
C21A N1A 1_555 1_555
H16A C21A 1_555 1_555
C22A C21A 1_555 1_555
H17A C22A 1_555 1_555
C23A C22A 1_555 1_555
C24A C23A 1_555 1_555
H18A C24A 1_555 1_555
C25A N1A 1_555 1_555
H19A C25A 1_555 1_555
C26A C23A 1_555 1_555
H20A C26A 1_555 1_555
H21A C26A 1_555 1_555
H22A C26A 1_555 1_555
H23A O5 1_555 1_555
C6 C7 1_555 1_555
C9 C14 1_555 1_555
C13 C14 1_555 1_555
C18 C19 1_555 1_555
C24 C25 1_555 1_555
Ni1A O4A 1_555 1_555
O3A C8A 1_555 1_555
C6A C7A 1_555 1_555
C9A C14A 1_555 1_555
C13A C14A 1_555 1_555
C18A C19A 1_555 1_555
C24A C25A 1_555 1_555

#END
