
#######################################################################
#
#                 Cambridge Crystallographic Data Centre
#                                CCDC 
#
#######################################################################
#
# If this CIF has been generated from an entry in the Cambridge 
# Structural Database, then it will include bibliographic, chemical, 
# crystal, experimental, refinement or atomic coordinate data resulting 
# from the CCDC's data processing and validation procedures.
#
#######################################################################

data_VAVGIK
_symmetry_cell_setting           monoclinic
_symmetry_space_group_name_H-M   'C 2/c'
_symmetry_Int_Tables_number      15
_space_group_name_Hall           '-C 2yn'
loop_
_symmetry_equiv_pos_site_id
_symmetry_equiv_pos_as_xyz
1 x,y,z
2 -x,y,1/2-z
3 1/2+x,1/2+y,z
4 1/2-x,1/2+y,1/2-z
5 -x,-y,-z
6 x,-y,1/2+z
7 1/2-x,1/2-y,-z
8 1/2+x,1/2-y,1/2+z
_cell_length_a                   17.342(3)
_cell_length_b                   19.559(3)
_cell_length_c                   14.258(2)
_cell_angle_alpha                90
_cell_angle_beta                 98.359(3)
_cell_angle_gamma                90
_cell_volume                     4784.83
loop_
_atom_site_label
_atom_site_type_symbol
_atom_site_fract_x
_atom_site_fract_y
_atom_site_fract_z
Zn1 Zn 0.0000 0.09669(5) 0.7500
N1 N -0.0319(3) 0.1580(3) 0.6392(4)
N2 N -0.0416(3) 0.2529(3) 0.5559(4)
N3 N 0.0912(3) 0.0392(3) 0.7310(4)
N4 N 0.2108(3) 0.0090(3) 0.7203(4)
C1 C -0.0031(4) 0.2199(3) 0.6316(5)
H1 H 0.0393 0.2390 0.6745
C2 C -0.0922(4) 0.1519(4) 0.5661(6)
H2 H -0.1241 0.1119 0.5533
C3 C -0.0999(5) 0.2098(4) 0.5156(6)
H3 H -0.1382 0.2194 0.4615
C4 C -0.0289(4) 0.3235(3) 0.5341(5)
C5 C 0.0426(5) 0.3487(4) 0.5403(10)
H4 H 0.0864 0.3186 0.5556
C6 C -0.0906(6) 0.3658(5) 0.5130(11)
H5 H -0.1426 0.3479 0.5070
C7 C 0.1646(3) 0.0586(3) 0.7423(5)
H6 H 0.1824 0.1033 0.7635
C8 C 0.0911(4) -0.0282(4) 0.7009(6)
H7 H 0.0459 -0.0568 0.6877
C9 C 0.1655(4) -0.0468(4) 0.6938(6)
H8 H 0.1830 -0.0903 0.6737
C10 C 0.2952(3) 0.0115(3) 0.7278(4)
C11 C 0.3332(4) 0.0705(4) 0.7306(11)
H9 H 0.3044 0.1126 0.7245
C12 C 0.3358(4) -0.0461(4) 0.7323(11)
H10 H 0.3090 -0.0891 0.7311
C13 C 0.0536(6) 0.4188(4) 0.5241(11)
H11 H 0.1057 0.4363 0.5278
C14 C -0.0064(4) 0.4623(3) 0.5051(5)
C15 C -0.0771(6) 0.4347(5) 0.4975(12)
H12 H -0.1213 0.4642 0.4818
C16 C 0.4162(4) -0.0448(4) 0.7412(10)
H13 H 0.4443 -0.0873 0.7441
C17 C 0.4567(3) 0.0145(3) 0.7444(4)
C18 C 0.4142(5) 0.0714(4) 0.7384(10)
H14 H 0.4406 0.1146 0.7424
Zn1D Zn 0.0000 0.90331(5) 0.2500
Zn1_2 Zn 1.0000 0.09669(5) 0.7500
N1D N 0.0319(3) 0.8420(3) 0.3608(4)
N1A N 0.0319(3) 0.1580(3) 0.8608(4)
N2D N 0.0416(3) 0.7471(3) 0.4441(4)
N3A N 0.9088(3) 0.0392(3) 0.7690(4)
N3A_2 N -0.0912(3) 0.0392(3) 0.7690(4)
N4A N 0.7892(3) 0.0090(3) 0.7797(4)
C1D C 0.0031(4) 0.7801(3) 0.3684(5)
H1D H -0.0393 0.7610 0.3255
C2D C 0.0922(4) 0.8481(4) 0.4339(6)
H2D H 0.1241 0.8881 0.4467
C3D C 0.0999(5) 0.7902(4) 0.4844(6)
H3D H 0.1382 0.7806 0.5385
C4D C 0.0289(4) 0.6765(3) 0.4659(5)
C5D C -0.0426(5) 0.6513(4) 0.4597(10)
H4D H -0.0864 0.6814 0.4444
C6D C 0.0906(6) 0.6342(5) 0.4870(11)
H5D H 0.1426 0.6521 0.4930
C7A C 0.8354(3) 0.0586(3) 0.7577(5)
H6A H 0.8176 0.1033 0.7365
C8A C 0.9089(4) -0.0282(4) 0.7991(6)
H7A H 0.9541 -0.0568 0.8123
C9A C 0.8345(4) -0.0468(4) 0.8062(6)
H8A H 0.8170 -0.0903 0.8263
C10A C 0.7048(3) 0.0115(3) 0.7722(4)
C11A C 0.6668(4) 0.0705(4) 0.7694(11)
H9A H 0.6956 0.1126 0.7755
C12A C 0.6642(4) -0.0461(4) 0.7677(11)
H10A H 0.6910 -0.0891 0.7689
C13D C -0.0536(6) 0.5812(4) 0.4759(11)
H11D H -0.1057 0.5637 0.4722
C14D C 0.0064(4) 0.5377(3) 0.4949(5)
C15D C 0.0771(6) 0.5653(5) 0.5025(12)
H12D H 0.1213 0.5358 0.5182
C16A C 0.5838(4) -0.0448(4) 0.7588(10)
H13A H 0.5557 -0.0873 0.7559
C17A C 0.5433(3) 0.0145(3) 0.7556(4)
C18A C 0.5858(5) 0.0714(4) 0.7616(10)
H14A H 0.5594 0.1146 0.7576
F1 F 0.2564(8) 0.2959(6) 0.7127(8)
F2 F 0.2499(8) 0.2040(4) 0.8096(10)
F3 F 0.2462(4) 0.3080(3) 0.8582(5)
F4 F 0.1526(5) 0.2639(7) 0.7620(7)
B1 B 0.2286(7) 0.2648(6) 0.7826(10)
O1 O 0.449(2) 0.288(3) 0.725(6)
H15 H 0.3982 0.2856 0.7343
H16 H 0.4726 0.2711 0.7767
Cl1 Cl 0.2188(3) 0.0391(3) 0.4614(3)
Cl2 Cl 0.2003(4) 0.1740(3) 0.5408(4)
Cl3 Cl 0.0750(4) 0.0998(9) 0.4563(7)
C19 C 0.1645(9) 0.1101(16) 0.4502(10)
H17 H 0.1686 0.1299 0.3895
loop_
_geom_bond_atom_site_label_1
_geom_bond_atom_site_label_2
_geom_bond_site_symmetry_1
_geom_bond_site_symmetry_2
Zn1 N1 1_555 1_555
N1 C1 1_555 1_555
N2 C1 1_555 1_555
N3 Zn1 1_555 1_555
N4 C7 1_555 1_555
C1 H1 1_555 1_555
C2 N1 1_555 1_555
H2 C2 1_555 1_555
C3 N2 1_555 1_555
H3 C3 1_555 1_555
C4 N2 1_555 1_555
C5 C4 1_555 1_555
H4 C5 1_555 1_555
C6 C4 1_555 1_555
H5 C6 1_555 1_555
C7 N3 1_555 1_555
H6 C7 1_555 1_555
C8 N3 1_555 1_555
H7 C8 1_555 1_555
C9 N4 1_555 1_555
H8 C9 1_555 1_555
C10 N4 1_555 1_555
C11 C10 1_555 1_555
H9 C11 1_555 1_555
C12 C10 1_555 1_555
H10 C12 1_555 1_555
C13 C5 1_555 1_555
H11 C13 1_555 1_555
C14 C13 1_555 1_555
C15 C6 1_555 1_555
H12 C15 1_555 1_555
C16 C12 1_555 1_555
H13 C16 1_555 1_555
C17 C16 1_555 1_555
C18 C11 1_555 1_555
H14 C18 1_555 1_555
F1 B1 1_555 1_555
F2 B1 1_555 1_555
F3 B1 1_555 1_555
F4 B1 1_555 1_555
O1 H15 1_555 1_555
H16 O1 1_555 1_555
Cl1 C19 1_555 1_555
Cl2 C19 1_555 1_555
Cl3 C19 1_555 1_555
C19 H17 1_555 1_555
Zn1D N1D 1_555 1_555
Zn1_2 N3A 1_555 1_555
N1D C1D 1_555 1_555
N1A Zn1 1_555 1_555
N2D C1D 1_555 1_555
N3A C7A 1_555 1_555
N3A_2 Zn1 1_555 1_555
N4A C7A 1_555 1_555
C1D H1D 1_555 1_555
C2D N1D 1_555 1_555
H2D C2D 1_555 1_555
C3D N2D 1_555 1_555
H3D C3D 1_555 1_555
C4D N2D 1_555 1_555
C5D C4D 1_555 1_555
H4D C5D 1_555 1_555
C6D C4D 1_555 1_555
H5D C6D 1_555 1_555
C7A H6A 1_555 1_555
C8A N3A 1_555 1_555
H7A C8A 1_555 1_555
C9A N4A 1_555 1_555
H8A C9A 1_555 1_555
C10A N4A 1_555 1_555
C11A C10A 1_555 1_555
H9A C11A 1_555 1_555
C12A C10A 1_555 1_555
H10A C12A 1_555 1_555
C13D C5D 1_555 1_555
H11D C13D 1_555 1_555
C14D C14 1_555 1_555
C15D C6D 1_555 1_555
H12D C15D 1_555 1_555
C16A C12A 1_555 1_555
H13A C16A 1_555 1_555
C17A C17 1_555 1_555
C18A C11A 1_555 1_555
H14A C18A 1_555 1_555
C2 C3 1_555 1_555
C8 C9 1_555 1_555
C14 C15 1_555 1_555
C17 C18 1_555 1_555
C2D C3D 1_555 1_555
C8A C9A 1_555 1_555
C13D C14D 1_555 1_555
C14D C15D 1_555 1_555
C16A C17A 1_555 1_555
C17A C18A 1_555 1_555

#END
