
#######################################################################
#
#                 Cambridge Crystallographic Data Centre
#                                CCDC 
#
#######################################################################
#
# If this CIF has been generated from an entry in the Cambridge 
# Structural Database, then it will include bibliographic, chemical, 
# crystal, experimental, refinement or atomic coordinate data resulting 
# from the CCDC's data processing and validation procedures.
#
#######################################################################

data_VAVGUV
_symmetry_cell_setting           monoclinic
_symmetry_space_group_name_H-M   'P 21/c'
_symmetry_Int_Tables_number      14
_space_group_name_Hall           '-P 2ybc'
loop_
_symmetry_equiv_pos_site_id
_symmetry_equiv_pos_as_xyz
1 x,y,z
2 -x,1/2+y,1/2-z
3 -x,-y,-z
4 x,1/2-y,1/2+z
_cell_length_a                   10.490(14)
_cell_length_b                   19.49(2)
_cell_length_c                   12.248(16)
_cell_angle_alpha                90
_cell_angle_beta                 111.88(2)
_cell_angle_gamma                90
_cell_volume                     2323.73
loop_
_atom_site_label
_atom_site_type_symbol
_atom_site_fract_x
_atom_site_fract_y
_atom_site_fract_z
Ni1 Ni 1.0000 0.0000 1.0000
Na1 Na 0.56174(14) 0.34298(7) 0.84015(12)
N1 N 0.6572(4) 0.22544(17) 0.8928(3)
N2 N 0.7187(3) 0.14799(17) 1.2260(3)
O1 O 0.5263(3) 0.46676(13) 0.7572(2)
O2 O 0.6513(3) 0.44443(13) 0.9702(2)
O3 O 0.5876(3) 0.32928(15) 1.0545(2)
O4 O 0.3501(3) 0.30786(15) 0.8557(2)
O5 O 0.3578(3) 0.36033(13) 0.6459(2)
S1 S 0.89702(10) 0.08825(5) 0.89871(8)
S2 S 0.94288(10) 0.02856(5) 1.14716(8)
C1 C 0.6417(4) 0.50705(19) 0.8048(3)
C2 C 0.6880(5) 0.5543(2) 0.7493(4)
H1 H 0.6422 0.5618 0.6691
C3 C 0.8070(5) 0.5929(2) 0.8130(5)
C4 C 0.8617(6) 0.6423(3) 0.7593(6)
H2 H 0.8196 0.6502 0.6789
C5 C 0.9746(8) 0.6785(3) 0.8230(9)
H3 H 1.0100 0.7106 0.7855
C6 C 1.0384(7) 0.6689(3) 0.9427(9)
H4 H 1.1147 0.6952 0.9853
C7 C 0.9904(5) 0.6209(3) 0.9991(6)
H5 H 1.0347 0.6142 1.0797
C8 C 0.8730(4) 0.5811(2) 0.9349(5)
C9 C 0.8228(4) 0.5305(2) 0.9913(4)
H6 H 0.8677 0.5223 1.0713
C10 C 0.7098(4) 0.4941(2) 0.9291(3)
C11 C 0.6948(5) 0.4358(2) 1.0950(3)
H7 H 0.6976 0.4797 1.1330
H8 H 0.7856 0.4154 1.1267
C12 C 0.5941(5) 0.3905(2) 1.1145(4)
H9 H 0.6208 0.3814 1.1979
H10 H 0.5046 0.4123 1.0865
C13 C 0.4816(5) 0.2845(3) 1.0567(4)
H11 H 0.4796 0.2842 1.1352
H12 H 0.5014 0.2382 1.0384
C14 C 0.3433(5) 0.3060(3) 0.9701(4)
H13 H 0.2735 0.2737 0.9712
H14 H 0.3194 0.3510 0.9906
C15 C 0.2299(4) 0.3339(2) 0.7696(4)
H15 H 0.2199 0.3822 0.7834
H16 H 0.1502 0.3096 0.7717
C16 C 0.2422(4) 0.3241(2) 0.6534(4)
H17 H 0.2517 0.2755 0.6407
H18 H 0.1588 0.3402 0.5917
C17 C 0.3244(4) 0.4293(2) 0.6090(4)
H19 H 0.2719 0.4496 0.6512
H20 H 0.2685 0.4304 0.5256
C18 C 0.4525(4) 0.4691(2) 0.6322(3)
H21 H 0.5066 0.4488 0.5914
H22 H 0.4312 0.5161 0.6058
C19 C 0.7276(4) 0.18081(19) 0.9362(3)
C20 C 0.8165(3) 0.12414(17) 0.9850(3)
C21 C 0.8378(4) 0.09903(17) 1.0932(3)
C22 C 0.7719(4) 0.12741(18) 1.1668(3)
Na1B Na 1.43826(14) -0.34298(7) 1.15985(12)
Na1C Na 0.56174(14) 0.15702(7) 1.34015(12)
Na1A Na 1.43826(14) -0.15702(7) 0.65985(12)
N1B N 1.3428(4) -0.22544(17) 1.1072(3)
N2B N 1.2813(3) -0.14799(17) 0.7740(3)
N2C N 0.7187(3) 0.35201(17) 0.7260(3)
N2A N 1.2813(3) -0.35201(17) 1.2740(3)
O1B O 1.4737(3) -0.46676(13) 1.2428(2)
O2B O 1.3487(3) -0.44443(13) 1.0298(2)
O3B O 1.4124(3) -0.32928(15) 0.9455(2)
O4B O 1.6499(3) -0.30786(15) 1.1443(2)
O5B O 1.6422(3) -0.36033(13) 1.3541(2)
S1B S 1.10298(10) -0.08825(5) 1.10129(8)
S2B S 1.05712(10) -0.02856(5) 0.85284(8)
C1B C 1.3583(4) -0.50705(19) 1.1952(3)
C2B C 1.3120(5) -0.5543(2) 1.2507(4)
H1B H 1.3578 -0.5618 1.3309
C3B C 1.1930(5) -0.5929(2) 1.1870(5)
C4B C 1.1383(6) -0.6423(3) 1.2407(6)
H2B H 1.1804 -0.6502 1.3211
C5B C 1.0254(8) -0.6785(3) 1.1770(9)
H3B H 0.9900 -0.7106 1.2145
C6B C 0.9616(7) -0.6689(3) 1.0573(9)
H4B H 0.8853 -0.6952 1.0147
C7B C 1.0096(5) -0.6209(3) 1.0009(6)
H5B H 0.9653 -0.6142 0.9203
C8B C 1.1270(4) -0.5811(2) 1.0651(5)
C9B C 1.1772(4) -0.5305(2) 1.0087(4)
H6B H 1.1323 -0.5223 0.9287
C10B C 1.2902(4) -0.4941(2) 1.0709(3)
C11B C 1.3052(5) -0.4358(2) 0.9050(3)
H7B H 1.3024 -0.4797 0.8670
H8B H 1.2144 -0.4154 0.8733
C12B C 1.4059(5) -0.3905(2) 0.8855(4)
H9B H 1.3792 -0.3814 0.8021
H10B H 1.4954 -0.4123 0.9135
C13B C 1.5184(5) -0.2845(3) 0.9433(4)
H11B H 1.5204 -0.2842 0.8648
H12B H 1.4986 -0.2382 0.9616
C14B C 1.6567(5) -0.3060(3) 1.0299(4)
H13B H 1.7265 -0.2737 1.0288
H14B H 1.6806 -0.3510 1.0094
C15B C 1.7701(4) -0.3339(2) 1.2304(4)
H15B H 1.7801 -0.3822 1.2166
H16B H 1.8498 -0.3096 1.2283
C16B C 1.7578(4) -0.3241(2) 1.3466(4)
H17B H 1.7483 -0.2755 1.3593
H18B H 1.8412 -0.3402 1.4083
C17B C 1.6756(4) -0.4293(2) 1.3910(4)
H19B H 1.7281 -0.4496 1.3488
H20B H 1.7315 -0.4304 1.4744
C18B C 1.5475(4) -0.4691(2) 1.3678(3)
H21B H 1.4934 -0.4488 1.4086
H22B H 1.5688 -0.5161 1.3942
C19B C 1.2724(4) -0.18081(19) 1.0638(3)
C20B C 1.1835(3) -0.12414(17) 1.0150(3)
C21B C 1.1622(4) -0.09903(17) 0.9068(3)
C22B C 1.2281(4) -0.12741(18) 0.8332(3)
loop_
_geom_bond_atom_site_label_1
_geom_bond_atom_site_label_2
_geom_bond_site_symmetry_1
_geom_bond_site_symmetry_2
Ni1 S1 1_555 1_555
Na1 N1 1_555 1_555
N1 C19 1_555 1_555
N2 C22 1_555 1_555
O1 Na1 1_555 1_555
O2 Na1 1_555 1_555
O3 Na1 1_555 1_555
O4 Na1 1_555 1_555
O5 Na1 1_555 1_555
S1 C20 1_555 1_555
S2 Ni1 1_555 1_555
C1 O1 1_555 1_555
C2 C1 1_555 1_555
H1 C2 1_555 1_555
C3 C2 1_555 1_555
C4 C3 1_555 1_555
H2 C4 1_555 1_555
C5 C4 1_555 1_555
H3 C5 1_555 1_555
C6 C5 1_555 1_555
H4 C6 1_555 1_555
C7 C6 1_555 1_555
H5 C7 1_555 1_555
C8 C3 1_555 1_555
C9 C8 1_555 1_555
H6 C9 1_555 1_555
C10 O2 1_555 1_555
C11 O2 1_555 1_555
H7 C11 1_555 1_555
H8 C11 1_555 1_555
C12 O3 1_555 1_555
H9 C12 1_555 1_555
H10 C12 1_555 1_555
C13 O3 1_555 1_555
H11 C13 1_555 1_555
H12 C13 1_555 1_555
C14 O4 1_555 1_555
H13 C14 1_555 1_555
H14 C14 1_555 1_555
C15 O4 1_555 1_555
H15 C15 1_555 1_555
H16 C15 1_555 1_555
C16 O5 1_555 1_555
H17 C16 1_555 1_555
H18 C16 1_555 1_555
C17 O5 1_555 1_555
H19 C17 1_555 1_555
H20 C17 1_555 1_555
C18 O1 1_555 1_555
H21 C18 1_555 1_555
H22 C18 1_555 1_555
C19 C20 1_555 1_555
C20 C21 1_555 1_555
C21 S2 1_555 1_555
C22 C21 1_555 1_555
Na1B N1B 1_555 1_555
Na1C N2 1_555 1_555
Na1A N2B 1_555 1_555
N1B C19B 1_555 1_555
N2B C22B 1_555 1_555
N2C Na1 1_555 1_555
N2A Na1B 1_555 1_555
O1B Na1B 1_555 1_555
O2B Na1B 1_555 1_555
O3B Na1B 1_555 1_555
O4B Na1B 1_555 1_555
O5B Na1B 1_555 1_555
S1B Ni1 1_555 1_555
S2B Ni1 1_555 1_555
C1B O1B 1_555 1_555
C2B C1B 1_555 1_555
H1B C2B 1_555 1_555
C3B C2B 1_555 1_555
C4B C3B 1_555 1_555
H2B C4B 1_555 1_555
C5B C4B 1_555 1_555
H3B C5B 1_555 1_555
C6B C5B 1_555 1_555
H4B C6B 1_555 1_555
C7B C6B 1_555 1_555
H5B C7B 1_555 1_555
C8B C3B 1_555 1_555
C9B C8B 1_555 1_555
H6B C9B 1_555 1_555
C10B O2B 1_555 1_555
C11B O2B 1_555 1_555
H7B C11B 1_555 1_555
H8B C11B 1_555 1_555
C12B O3B 1_555 1_555
H9B C12B 1_555 1_555
H10B C12B 1_555 1_555
C13B O3B 1_555 1_555
H11B C13B 1_555 1_555
H12B C13B 1_555 1_555
C14B O4B 1_555 1_555
H13B C14B 1_555 1_555
H14B C14B 1_555 1_555
C15B O4B 1_555 1_555
H15B C15B 1_555 1_555
H16B C15B 1_555 1_555
C16B O5B 1_555 1_555
H17B C16B 1_555 1_555
H18B C16B 1_555 1_555
C17B O5B 1_555 1_555
H19B C17B 1_555 1_555
H20B C17B 1_555 1_555
C18B O1B 1_555 1_555
H21B C18B 1_555 1_555
H22B C18B 1_555 1_555
C19B C20B 1_555 1_555
C20B S1B 1_555 1_555
C21B S2B 1_555 1_555
C22B C21B 1_555 1_555
C1 C10 1_555 1_555
C7 C8 1_555 1_555
C9 C10 1_555 1_555
C11 C12 1_555 1_555
C13 C14 1_555 1_555
C15 C16 1_555 1_555
C17 C18 1_555 1_555
C1B C10B 1_555 1_555
C7B C8B 1_555 1_555
C9B C10B 1_555 1_555
C11B C12B 1_555 1_555
C13B C14B 1_555 1_555
C15B C16B 1_555 1_555
C17B C18B 1_555 1_555
C20B C21B 1_555 1_555

#END
