
#######################################################################
#
#                 Cambridge Crystallographic Data Centre
#                                CCDC 
#
#######################################################################
#
# If this CIF has been generated from an entry in the Cambridge 
# Structural Database, then it will include bibliographic, chemical, 
# crystal, experimental, refinement or atomic coordinate data resulting 
# from the CCDC's data processing and validation procedures.
#
#######################################################################

data_VAVQUF
_symmetry_cell_setting           monoclinic
_symmetry_space_group_name_H-M   'C c'
_symmetry_Int_Tables_number      9
_space_group_name_Hall           'C -2yc'
loop_
_symmetry_equiv_pos_site_id
_symmetry_equiv_pos_as_xyz
1 x,y,z
2 x,-y,1/2+z
3 1/2+x,1/2+y,z
4 1/2+x,1/2-y,1/2+z
_cell_length_a                   12.1447(10)
_cell_length_b                   22.372(2)
_cell_length_c                   8.1016(7)
_cell_angle_alpha                90
_cell_angle_beta                 123.367(5)
_cell_angle_gamma                90
_cell_volume                     1838.38
loop_
_atom_site_label
_atom_site_type_symbol
_atom_site_fract_x
_atom_site_fract_y
_atom_site_fract_z
Co1 Co 0.45177(7) 0.48814(2) 0.04216(9)
O1 O 0.4146(2) 0.47479(13) -0.2329(4)
O2 O 0.2870(3) 0.45359(15) -0.5473(5)
O3 O 0.3648(3) 0.41001(15) 0.0190(5)
O4 O 0.3771(5) 0.2827(2) 0.1813(6)
O5 O 0.2029(5) 0.3197(2) 0.1317(6)
O6 O 0.0002(4) 0.2197(2) -0.5972(6)
O7 O -0.0126(4) 0.28643(19) -0.7960(5)
N1 N 0.6423(4) 0.45095(17) 0.2217(6)
N2 N 0.5737(4) 0.56511(19) 0.1128(6)
N3 N 0.2731(4) 0.3082(2) 0.0766(6)
N4 N 0.0304(4) 0.2677(2) -0.6295(7)
C1 C 0.6743(6) 0.3940(2) 0.2676(9)
H1 H 0.6082 0.3652 0.2091
C2 C 0.8056(5) 0.3756(3) 0.4023(9)
H2 H 0.8254 0.3353 0.4299
C3 C 0.9030(5) 0.4170(3) 0.4914(9)
H3 H 0.9895 0.4052 0.5823
C4 C 0.8728(5) 0.4777(3) 0.4460(8)
C5 C 0.7405(4) 0.4928(2) 0.3064(7)
C6 C 0.7027(5) 0.5533(2) 0.2493(7)
C7 C 0.7986(5) 0.5982(3) 0.3348(8)
C8 C 0.7562(6) 0.6573(3) 0.2761(8)
H4 H 0.8165 0.6885 0.3314
C9 C 0.6261(6) 0.6689(2) 0.1376(9)
H5 H 0.5973 0.7079 0.0973
C10 C 0.5368(5) 0.6208(2) 0.0570(7)
H6 H 0.4486 0.6287 -0.0388
C11 C 0.9699(6) 0.5253(3) 0.5310(11)
H7 H 1.0579 0.5162 0.6239
C12 C 0.9330(6) 0.5831(3) 0.4757(8)
H8 H 0.9964 0.6131 0.5305
C13 C 0.2585(4) 0.3931(2) -0.3327(6)
C14 C 0.2935(4) 0.3791(2) -0.1368(7)
C15 C 0.2341(5) 0.3254(2) -0.1233(7)
C16 C 0.1507(5) 0.2886(2) -0.2757(7)
H9 H 0.1158 0.2543 -0.2568
C17 C 0.1208(4) 0.3053(2) -0.4613(7)
C18 C 0.1743(4) 0.3556(2) -0.4894(7)
H10 H 0.1536 0.3646 -0.6155
C19 C 0.3198(4) 0.4435(2) -0.3727(7)
Co1A Co 0.45177(7) 0.51186(2) -0.45784(9)
O1A O 0.4146(2) 0.52521(13) 0.2671(4)
O2A O 0.2870(3) 0.54641(15) -0.0473(5)
loop_
_geom_bond_atom_site_label_1
_geom_bond_atom_site_label_2
_geom_bond_site_symmetry_1
_geom_bond_site_symmetry_2
Co1 O1 1_555 1_555
O1 C19 1_555 1_555
O2 C19 1_555 1_555
O3 Co1 1_555 1_555
O4 N3 1_555 1_555
O5 N3 1_555 1_555
O6 N4 1_555 1_555
O7 N4 1_555 1_555
N1 Co1 1_555 1_555
N2 Co1 1_555 1_555
N3 C15 1_555 1_555
N4 C17 1_555 1_555
C1 N1 1_555 1_555
H1 C1 1_555 1_555
C2 C1 1_555 1_555
H2 C2 1_555 1_555
C3 C2 1_555 1_555
H3 C3 1_555 1_555
C4 C3 1_555 1_555
C5 N1 1_555 1_555
C6 N2 1_555 1_555
C7 C6 1_555 1_555
C8 C7 1_555 1_555
H4 C8 1_555 1_555
C9 C8 1_555 1_555
H5 C9 1_555 1_555
C10 N2 1_555 1_555
H6 C10 1_555 1_555
C11 C4 1_555 1_555
H7 C11 1_555 1_555
C12 C7 1_555 1_555
H8 C12 1_555 1_555
C13 C14 1_555 1_555
C14 O3 1_555 1_555
C15 C14 1_555 1_555
C16 C15 1_555 1_555
H9 C16 1_555 1_555
C17 C16 1_555 1_555
C18 C13 1_555 1_555
H10 C18 1_555 1_555
C19 C13 1_555 1_555
Co1A O1 1_555 1_555
O1A Co1 1_555 1_555
O2A Co1 1_555 1_555
O2 Co1A 1_555 1_555
C4 C5 1_555 1_555
C5 C6 1_555 1_555
C9 C10 1_555 1_555
C11 C12 1_555 1_555
C17 C18 1_555 1_555

#END
