
#######################################################################
#
#                 Cambridge Crystallographic Data Centre
#                                CCDC 
#
#######################################################################
#
# If this CIF has been generated from an entry in the Cambridge 
# Structural Database, then it will include bibliographic, chemical, 
# crystal, experimental, refinement or atomic coordinate data resulting 
# from the CCDC's data processing and validation procedures.
#
#######################################################################

data_VAVQIT
_symmetry_cell_setting           tetragonal
_symmetry_space_group_name_H-M   'P 41 21 2'
_symmetry_Int_Tables_number      92
_space_group_name_Hall           'P 4abw 2nw'
loop_
_symmetry_equiv_pos_site_id
_symmetry_equiv_pos_as_xyz
1 x,y,z
2 1/2-y,1/2+x,1/4+z
3 -x,-y,1/2+z
4 1/2+y,1/2-x,3/4+z
5 1/2+x,1/2-y,3/4-z
6 1/2-x,1/2+y,1/4-z
7 y,x,-z
8 -y,-x,1/2-z
_cell_length_a                   13.736(7)
_cell_length_b                   13.736(7)
_cell_length_c                   18.648(12)
_cell_angle_alpha                90
_cell_angle_beta                 90
_cell_angle_gamma                90
_cell_volume                     3518.46
loop_
_atom_site_label
_atom_site_type_symbol
_atom_site_fract_x
_atom_site_fract_y
_atom_site_fract_z
Cu1 Cu 0.26226(3) 0.53546(3) 0.02136(2)
O1 O 0.28263(14) 0.40488(14) 0.06262(11)
O2 O 0.20983(16) 0.26218(16) 0.08241(12)
O3 O 0.09394(17) 0.31572(17) -0.07830(11)
H1 H 0.1464 0.2847 -0.0751
O4 O 0.3178(2) 0.46902(18) -0.08602(13)
N1 N 0.12771(19) 0.48822(18) 0.00464(15)
H2 H 0.0842 0.5326 0.0230
H3 H 0.1168 0.4833 -0.0439
N2 N 0.22864(18) 0.66518(17) -0.02470(13)
N3 N 0.08344(19) 1.11082(18) -0.18685(13)
C1 C -0.0521(2) 0.3620(2) -0.01869(19)
H4 H -0.0501 0.4275 -0.0395
H5 H -0.0849 0.3644 0.0280
H6 H -0.0879 0.3184 -0.0509
C2 C 0.0509(2) 0.3245(2) -0.00891(16)
H7 H 0.0481 0.2586 0.0138
C3 C 0.1110(2) 0.3920(2) 0.03872(16)
H8 H 0.0721 0.4039 0.0832
C4 C 0.2081(2) 0.3476(2) 0.06220(16)
C5 C 0.2488(3) 0.6842(2) -0.09323(17)
H9 H 0.2835 0.6368 -0.1202
C6 C 0.2216(2) 0.7695(2) -0.12682(18)
H10 H 0.2380 0.7797 -0.1758
C7 C 0.1708(2) 0.8403(2) -0.08985(17)
C8 C 0.1495(2) 0.8195(2) -0.01822(18)
H11 H 0.1148 0.8655 0.0100
C9 C 0.1786(2) 0.7323(2) 0.01172(17)
H12 H 0.1623 0.7196 0.0603
C10 C 0.1523(3) 1.0548(3) -0.2154(2)
H13 H 0.1825 1.0760 -0.2584
C11 C 0.1822(3) 0.9680(3) -0.1862(2)
H14 H 0.2314 0.9310 -0.2094
C12 C 0.1415(2) 0.9346(2) -0.12391(16)
C13 C 0.0728(3) 0.9926(3) -0.09433(19)
H15 H 0.0419 0.9731 -0.0511
C14 C 0.0468(3) 1.0800(3) -0.12607(19)
H16 H 0.0000 1.1197 -0.1026
H19 H 0.3246 0.4060 -0.0796
H20 H 0.2820 0.4779 -0.1263
Cu1C Cu 0.03546(3) 1.23774(3) -0.22864(2)
N3A N 0.38918(18) 0.58344(19) 0.06315(13)
O5 O 0.4113(2) 0.7777(3) -0.22294(16)
O6 O 0.4551(3) 0.9007(2) -0.15956(16)
O7 O 0.4730(2) 0.7566(2) -0.11673(17)
N4 N 0.4470(3) 0.8105(3) -0.16581(18)
O9 O -0.0191(2) 0.6078(3) 0.08329(17)
H17 H -0.062(4) 0.573(4) 0.099(2)
H18 H -0.053(3) 0.636(3) 0.051(2)
O8? O 0.4336(4) 0.6088(4) -0.2900(3)
H21? H 0.4265 0.6671 -0.2752
H22? H 0.3691 0.6065 -0.3146
loop_
_geom_bond_atom_site_label_1
_geom_bond_atom_site_label_2
_geom_bond_site_symmetry_1
_geom_bond_site_symmetry_2
Cu1 O1 1_555 1_555
O1 C4 1_555 1_555
O2 C4 1_555 1_555
O3 H1 1_555 1_555
O4 Cu1 1_555 1_555
O5 N4 1_555 1_555
O6 N4 1_555 1_555
O7 N4 1_555 1_555
O9 H17 1_555 1_555
N1 Cu1 1_555 1_555
H2 N1 1_555 1_555
H3 N1 1_555 1_555
N2 Cu1 1_555 1_555
N3 C10 1_555 1_555
C1 H4 1_555 1_555
H5 C1 1_555 1_555
H6 C1 1_555 1_555
C2 O3 1_555 1_555
H7 C2 1_555 1_555
C3 N1 1_555 1_555
H8 C3 1_555 1_555
C4 C3 1_555 1_555
C5 N2 1_555 1_555
H9 C5 1_555 1_555
C6 C5 1_555 1_555
H10 C6 1_555 1_555
C7 C6 1_555 1_555
C8 C7 1_555 1_555
H11 C8 1_555 1_555
C9 N2 1_555 1_555
H12 C9 1_555 1_555
C10 H13 1_555 1_555
C11 C10 1_555 1_555
H14 C11 1_555 1_555
C12 C7 1_555 1_555
C13 C12 1_555 1_555
H15 C13 1_555 1_555
C14 N3 1_555 1_555
H16 C14 1_555 1_555
H18 O9 1_555 1_555
H19 O4 1_555 1_555
H20 O4 1_555 1_555
Cu1C N3 1_555 1_555
N3A Cu1 1_555 1_555
C1 C2 1_555 1_555
C2 C3 1_555 1_555
C8 C9 1_555 1_555
C11 C12 1_555 1_555
C13 C14 1_555 1_555

#END
