
#######################################################################
#
#                 Cambridge Crystallographic Data Centre
#                                CCDC 
#
#######################################################################
#
# If this CIF has been generated from an entry in the Cambridge 
# Structural Database, then it will include bibliographic, chemical, 
# crystal, experimental, refinement or atomic coordinate data resulting 
# from the CCDC's data processing and validation procedures.
#
#######################################################################

data_VAWBUQ
_symmetry_cell_setting           monoclinic
_symmetry_space_group_name_H-M   'P 21/n'
_symmetry_Int_Tables_number      14
_space_group_name_Hall           '-P 2yn'
loop_
_symmetry_equiv_pos_site_id
_symmetry_equiv_pos_as_xyz
1 x,y,z
2 1/2+x,1/2-y,1/2+z
3 -x,-y,-z
4 1/2-x,1/2+y,1/2-z
_cell_length_a                   5.850(3)
_cell_length_b                   14.076(6)
_cell_length_c                   14.792(8)
_cell_angle_alpha                90
_cell_angle_beta                 94.80(4)
_cell_angle_gamma                90
_cell_volume                     1213.77
loop_
_atom_site_label
_atom_site_type_symbol
_atom_site_fract_x
_atom_site_fract_y
_atom_site_fract_z
Cu1 Cu -0.38780(5) -0.38761(2) 0.27997(2)
S1 S 0.38936(10) -0.39760(5) 0.40088(4)
N1 N -0.0604(4) -0.3855(2) 0.3184(2)
C1 C 0.1257(4) -0.3901(2) 0.3512(2)
N2 N -0.4651(4) -0.5031(2) 0.1926(2)
C2 C -0.3230(6) -0.5246(3) 0.1298(2)
C3 C -0.3590(7) -0.5996(3) 0.0705(3)
C4 C -0.5517(6) -0.6554(3) 0.0747(2)
C5 C -0.6982(6) -0.6341(2) 0.1385(2)
C6 C -0.6505(5) -0.5583(2) 0.1964(2)
H1 H -0.1854(76) -0.4807(32) 0.1278(29)
H2 H -0.2606(78) -0.6156(29) 0.0280(31)
H3 H -0.5786(59) -0.7094(27) 0.0358(23)
H4 H -0.8217(68) -0.6697(28) 0.1437(25)
H5 H -0.7511(57) -0.5391(23) 0.2380(23)
N3 N -0.4795(4) -0.2742(2) 0.19602(14)
C7 C -0.3314(5) -0.2040(2) 0.1820(2)
C8 C -0.3820(6) -0.1299(2) 0.1228(2)
C9 C -0.5940(6) -0.1279(2) 0.0745(2)
C10 C -0.7487(5) -0.1990(2) 0.0885(2)
C11 C -0.6865(5) -0.2702(2) 0.1492(2)
H6 H -0.1946(53) -0.2056(20) 0.2154(19)
H7 H -0.2783(62) -0.0845(26) 0.1165(23)
H8 H -0.6305(56) -0.0783(25) 0.0337(23)
H9 H -0.9021(58) -0.2016(24) 0.0550(21)
H10 H -0.7878(55) -0.3242(23) 0.1587(21)
S1_2 S -0.61064(10) -0.39760(5) 0.40088(4)
Cu1_2 Cu 0.61220(5) -0.38761(2) 0.27997(2)
loop_
_geom_bond_atom_site_label_1
_geom_bond_atom_site_label_2
_geom_bond_site_symmetry_1
_geom_bond_site_symmetry_2
Cu1 N1 1_555 1_555
S1 C1 1_555 1_555
N1 C1 1_555 1_555
N2 Cu1 1_555 1_555
C2 N2 1_555 1_555
C3 C2 1_555 1_555
C4 C3 1_555 1_555
C5 C4 1_555 1_555
C6 N2 1_555 1_555
H1 C2 1_555 1_555
H2 C3 1_555 1_555
H3 C4 1_555 1_555
H4 C5 1_555 1_555
H5 C6 1_555 1_555
N3 Cu1 1_555 1_555
C7 N3 1_555 1_555
C8 C7 1_555 1_555
C9 C8 1_555 1_555
C10 C9 1_555 1_555
C11 N3 1_555 1_555
H6 C7 1_555 1_555
H7 C8 1_555 1_555
H8 C9 1_555 1_555
H9 C10 1_555 1_555
H10 C11 1_555 1_555
S1_2 Cu1 1_555 1_555
Cu1_2 S1 1_555 1_555
C5 C6 1_555 1_555
C10 C11 1_555 1_555

#END
