
#######################################################################
#
#                 Cambridge Crystallographic Data Centre
#                                CCDC 
#
#######################################################################
#
# If this CIF has been generated from an entry in the Cambridge 
# Structural Database, then it will include bibliographic, chemical, 
# crystal, experimental, refinement or atomic coordinate data resulting 
# from the CCDC's data processing and validation procedures.
#
#######################################################################

data_VAWCOL
_symmetry_cell_setting           orthorhombic
_symmetry_space_group_name_H-M   'P c a 21'
_symmetry_Int_Tables_number      29
_space_group_name_Hall           'P 2c -2ac'
loop_
_symmetry_equiv_pos_site_id
_symmetry_equiv_pos_as_xyz
1 x,y,z
2 -x,-y,1/2+z
3 1/2-x,y,1/2+z
4 1/2+x,-y,z
_cell_length_a                   7.772(2)
_cell_length_b                   17.084(4)
_cell_length_c                   18.495(4)
_cell_angle_alpha                90
_cell_angle_beta                 90
_cell_angle_gamma                90
_cell_volume                     2455.71
loop_
_atom_site_label
_atom_site_type_symbol
_atom_site_fract_x
_atom_site_fract_y
_atom_site_fract_z
Ag1 Ag 0.21778(4) 0.55543(2) 0.18145(2)
S1 S -0.00139(12) 0.48036(5) 0.10834(5)
C1 C 0.1116(5) 0.3978(2) 0.1096(2)
N1 N 0.1920(6) 0.3406(3) 0.1092(3)
N2 N 0.2296(4) 0.6786(2) 0.2261(2)
C2 C 0.1093(5) 0.7340(2) 0.2179(2)
H1 H 0.0168(5) 0.7240(2) 0.1864(2)
C3 C 0.1145(7) 0.8043(3) 0.2530(3)
H2 H 0.0277(7) 0.8418(3) 0.2453(3)
C4 C 0.2481(8) 0.8198(3) 0.2995(3)
H3 H 0.2533(8) 0.8674(3) 0.3248(3)
C5 C 0.3743(7) 0.7638(3) 0.3083(2)
H4 H 0.4683(7) 0.7730(3) 0.3392(2)
C6 C 0.3605(6) 0.6943(3) 0.2714(3)
H5 H 0.4462(6) 0.6562(3) 0.2780(3)
N3 N 0.2568(5) 0.4843(2) 0.2920(2)
C7 C 0.2177(7) 0.5128(3) 0.3580(2)
H6 H 0.1857(7) 0.5657(3) 0.3622(2)
C8 C 0.2231(8) 0.4669(4) 0.4200(3)
H7 H 0.1954(8) 0.4888(4) 0.4652(3)
C9 C 0.2689(7) 0.3901(4) 0.4150(3)
H8 H 0.2728(7) 0.3584(4) 0.4565(3)
C10 C 0.3095(7) 0.3596(3) 0.3475(3)
H9 H 0.3409(7) 0.3068(3) 0.3423(3)
C11 C 0.3028(6) 0.4083(3) 0.2888(2)
H10 H 0.3321(6) 0.3874(3) 0.2434(2)
Ag1C Ag -0.28222(4) 0.44457(2) 0.18145(2)
S1C S 0.49861(12) 0.51964(5) 0.10834(5)
Ag2 Ag 0.17034(4) 0.95816(2) 0.47264(2)
S2 S 0.43279(12) 1.01405(6) 0.38654(5)
C12 C 0.3346(5) 1.1008(3) 0.3853(2)
N4 N 0.2641(5) 1.1602(3) 0.3839(2)
N5 N 0.2420(5) 0.8294(2) 0.4956(2)
C13 C 0.1396(6) 0.7671(2) 0.4878(3)
H11 H 0.0235(6) 0.7755(2) 0.4758(3)
C14 C 0.1964(7) 0.6911(3) 0.4965(3)
H12 H 0.1205(7) 0.6487(3) 0.4903(3)
C15 C 0.3658(8) 0.6784(3) 0.5144(3)
H13 H 0.4083(8) 0.6274(3) 0.5207(3)
C16 C 0.4720(7) 0.7428(4) 0.5229(3)
H14 H 0.5880(7) 0.7361(4) 0.5358(3)
C17 C 0.4068(6) 0.8161(3) 0.5125(3)
H15 H 0.4810(6) 0.8592(3) 0.5174(3)
N6 N 0.2541(4) 1.0220(2) 0.5773(2)
C18 C 0.2522(6) 0.9847(3) 0.6407(2)
H16 H 0.2180(6) 0.9319(3) 0.6414(2)
C19 C 0.2979(7) 1.0196(4) 0.7052(3)
H17 H 0.2983(7) 0.9906(4) 0.7484(3)
C20 C 0.3431(6) 1.0977(3) 0.7050(3)
H18 H 0.3719(6) 1.1235(3) 0.7482(3)
C21 C 0.3449(6) 1.1371(3) 0.6397(3)
H19 H 0.3761(6) 1.1903(3) 0.6375(3)
C22 C 0.3002(6) 1.0972(3) 0.5780(2)
H20 H 0.3022(6) 1.1244(3) 0.5338(2)
Ag2C Ag 0.67034(4) 1.04184(2) 0.47264(2)
S2C S -0.06721(12) 0.98595(6) 0.38654(5)
loop_
_geom_bond_atom_site_label_1
_geom_bond_atom_site_label_2
_geom_bond_site_symmetry_1
_geom_bond_site_symmetry_2
Ag1 S1 1_555 1_555
S1 C1 1_555 1_555
C1 N1 1_555 1_555
N2 Ag1 1_555 1_555
C2 N2 1_555 1_555
H1 C2 1_555 1_555
C3 C2 1_555 1_555
H2 C3 1_555 1_555
C4 C3 1_555 1_555
H3 C4 1_555 1_555
C5 C4 1_555 1_555
H4 C5 1_555 1_555
C6 N2 1_555 1_555
H5 C6 1_555 1_555
N3 Ag1 1_555 1_555
C7 N3 1_555 1_555
H6 C7 1_555 1_555
C8 C7 1_555 1_555
H7 C8 1_555 1_555
C9 C8 1_555 1_555
H8 C9 1_555 1_555
C10 C9 1_555 1_555
H9 C10 1_555 1_555
C11 N3 1_555 1_555
H10 C11 1_555 1_555
Ag2 S2 1_555 1_555
S2 C12 1_555 1_555
C12 N4 1_555 1_555
N5 Ag2 1_555 1_555
C13 N5 1_555 1_555
H11 C13 1_555 1_555
C14 C13 1_555 1_555
H12 C14 1_555 1_555
C15 C14 1_555 1_555
H13 C15 1_555 1_555
C16 C15 1_555 1_555
H14 C16 1_555 1_555
C17 N5 1_555 1_555
H15 C17 1_555 1_555
N6 Ag2 1_555 1_555
C18 N6 1_555 1_555
H16 C18 1_555 1_555
C19 C18 1_555 1_555
H17 C19 1_555 1_555
C20 C19 1_555 1_555
H18 C20 1_555 1_555
C21 C20 1_555 1_555
H19 C21 1_555 1_555
C22 N6 1_555 1_555
H20 C22 1_555 1_555
Ag1C S1 1_555 1_555
S1C Ag1 1_555 1_555
Ag2C S2 1_555 1_555
S2C Ag2 1_555 1_555
C5 C6 1_555 1_555
C10 C11 1_555 1_555
C16 C17 1_555 1_555
C21 C22 1_555 1_555

#END
