
#######################################################################
#
#                 Cambridge Crystallographic Data Centre
#                                CCDC 
#
#######################################################################
#
# If this CIF has been generated from an entry in the Cambridge 
# Structural Database, then it will include bibliographic, chemical, 
# crystal, experimental, refinement or atomic coordinate data resulting 
# from the CCDC's data processing and validation procedures.
#
#######################################################################

data_VAWCIF01
_symmetry_cell_setting           monoclinic
_symmetry_space_group_name_H-M   'P 21/c'
_symmetry_Int_Tables_number      14
_space_group_name_Hall           '-P 2ybc'
loop_
_symmetry_equiv_pos_site_id
_symmetry_equiv_pos_as_xyz
1 x,y,z
2 -x,1/2+y,1/2-z
3 -x,-y,-z
4 x,1/2-y,1/2+z
_cell_length_a                   4.0496(4)
_cell_length_b                   10.9857(13)
_cell_length_c                   17.850(4)
_cell_angle_alpha                90
_cell_angle_beta                 89.97(1)
_cell_angle_gamma                90
_cell_volume                     794.105
loop_
_atom_site_label
_atom_site_type_symbol
_atom_site_fract_x
_atom_site_fract_y
_atom_site_fract_z
Ag1 Ag 0.7522(4) 0.5513(1) 0.2274(1)
S1 S 0.2532(10) 0.6020(3) 0.3128(3)
N1 N 0.2687(46) 0.8564(13) 0.3036(10)
N2 N 0.7425(34) 0.6662(11) 0.1194(7)
C1 C 0.2443(38) 0.7531(16) 0.3057(8)
C2 C 0.7263(88) 0.6171(23) 0.0566(14)
C3 C 0.7101(78) 0.6779(32) -0.0124(14)
C4 C 0.7364(55) 0.8006(23) -0.0119(11)
C5 C 0.724(17) 0.8531(23) 0.0541(14)
C6 C 0.732(14) 0.7839(19) 0.1189(14)
Ag1_2 Ag -0.2478(4) 0.5513(1) 0.2274(1)
Ag1A Ag 0.2478(4) 1.0513(1) 0.2726(1)
S1_2 S 1.2532(10) 0.6020(3) 0.3128(3)
N1A N 0.7313(46) 0.3564(13) 0.1964(10)
loop_
_geom_bond_atom_site_label_1
_geom_bond_atom_site_label_2
_geom_bond_site_symmetry_1
_geom_bond_site_symmetry_2
Ag1 S1 1_555 1_555
S1 C1 1_555 1_555
N1 C1 1_555 1_555
N2 Ag1 1_555 1_555
C2 N2 1_555 1_555
C3 C2 1_555 1_555
C4 C3 1_555 1_555
C5 C4 1_555 1_555
C6 N2 1_555 1_555
Ag1_2 S1 1_555 1_555
Ag1A N1 1_555 1_555
S1_2 Ag1 1_555 1_555
N1A Ag1 1_555 1_555
C5 C6 1_555 1_555

#END
