
#######################################################################
#
#                 Cambridge Crystallographic Data Centre
#                                CCDC 
#
#######################################################################
#
# If this CIF has been generated from an entry in the Cambridge 
# Structural Database, then it will include bibliographic, chemical, 
# crystal, experimental, refinement or atomic coordinate data resulting 
# from the CCDC's data processing and validation procedures.
#
#######################################################################

data_VAWYAV
_symmetry_cell_setting           monoclinic
_symmetry_space_group_name_H-M   'P 21'
_symmetry_Int_Tables_number      4
_space_group_name_Hall           'P 2yb'
loop_
_symmetry_equiv_pos_site_id
_symmetry_equiv_pos_as_xyz
1 x,y,z
2 -x,1/2+y,-z
_cell_length_a                   12.0652(6)
_cell_length_b                   7.9845(4)
_cell_length_c                   14.1825(8)
_cell_angle_alpha                90
_cell_angle_beta                 103.957(2)
_cell_angle_gamma                90
_cell_volume                     1325.93
loop_
_atom_site_label
_atom_site_type_symbol
_atom_site_fract_x
_atom_site_fract_y
_atom_site_fract_z
Ag1 Ag 0.042288(18) 0.97250(5) 0.959282(15)
N1 N 0.0972(2) 1.1133(3) 0.8271(2)
C1 C 0.1908(3) 1.2034(5) 0.8253(3)
H1 H 0.2312 1.2557 0.8837
C2 C 0.2312(3) 1.2239(6) 0.7425(3)
H2 H 0.2987 1.2867 0.7450
C3 C 0.1731(4) 1.1530(7) 0.6572(3)
H3 H 0.1997 1.1648 0.5997
C4 C 0.0737(4) 1.0627(7) 0.6562(3)
H4 H 0.0303 1.0143 0.5976
C5 C 0.0396(3) 1.0451(4) 0.7424(2)
C6 C -0.0645(3) 0.9513(5) 0.7422(2)
H5 H -0.1109 0.9143 0.6818
N2 N -0.0956(2) 0.9172(3) 0.81959(19)
C7 C -0.1977(2) 0.8251(4) 0.8168(2)
C8 C -0.2139(3) 0.7698(4) 0.9050(2)
H6 H -0.1603 0.7982 0.9636
C9 C -0.3089(3) 0.6725(4) 0.9080(2)
H7 H -0.3199 0.6371 0.9690
C10 C -0.3872(2) 0.6266(4) 0.8240(2)
C11 C -0.3729(3) 0.6893(6) 0.7357(3)
H8 H -0.4282 0.6645 0.6774
C12 C -0.2795(3) 0.7870(6) 0.7320(3)
H9 H -0.2711 0.8283 0.6713
C13 C -0.4858(2) 0.5103(4) 0.8263(2)
H10 H -0.5298 0.4888 0.7589
H11 H -0.4551 0.4019 0.8550
C14 C -0.5650(2) 0.5814(4) 0.8842(2)
C15 C -0.5612(3) 0.5293(4) 0.9787(2)
H12 H -0.5070 0.4471 1.0083
C16 C -0.6353(3) 0.5953(4) 1.0306(2)
H13 H -0.6313 0.5583 1.0950
C17 C -0.7151(2) 0.7155(4) 0.9882(2)
C18 C -0.7205(3) 0.7666(4) 0.8931(2)
H14 H -0.7763 0.8464 0.8629
C19 C -0.6453(3) 0.7020(4) 0.8422(2)
H15 H -0.6487 0.7404 0.7782
N3 N -0.7956(2) 0.7913(3) 1.03407(19)
C20 C -0.8616(3) 0.8674(4) 1.1748(2)
C21 C -0.7817(3) 0.7850(4) 1.1256(2)
H16 H -0.7181 0.7255 1.1634
C22 C -0.8431(3) 0.8573(5) 1.2746(2)
H17 H -0.7791 0.7977 1.3116
C23 C -0.9190(4) 0.9356(5) 1.3202(3)
H18 H -0.9085 0.9289 1.3887
C24 C -1.0095(4) 1.0227(5) 1.2642(3)
H19 H -1.0629 1.0767 1.2934
C25 C -1.0218(3) 1.0308(4) 1.1649(3)
H20 H -1.0847 1.0913 1.1270
N4 N -0.94930(19) 0.9575(5) 1.11956(17)
Ag1_2 Ag -0.957712(18) 0.97250(5) 0.959282(15)
N3_2 N 0.2044(2) 0.7913(3) 1.03407(19)
N4_2 N 0.05070(19) 0.9575(5) 1.11956(17)
Cl1 Cl 0.25016(10) 1.57713(18) 0.53728(7)
O1 O 0.1650(8) 1.6225(19) 0.5763(7)
O2 O 0.2151(13) 1.4242(10) 0.4878(7)
O3 O 0.2686(11) 1.6814(15) 0.4697(7)
O4 O 0.3451(7) 1.5406(15) 0.6051(7)
C26 C 0.4275(9) 1.0488(14) 0.5344(6)
H21 H 0.4476 0.9322 0.5247
H22 H 0.4465 1.1192 0.4839
H23 H 0.3455 1.0566 0.5305
C27 C 0.4925(5) 1.1067(8) 0.6312(5)
N5 N 0.5336(5) 1.1381(8) 0.7063(5)
O5? O 0.226(3) 1.725(3) 0.575(3)
O6? O 0.158(2) 1.475(4) 0.528(3)
O7? O 0.270(4) 1.603(5) 0.4491(16)
O8? O 0.341(3) 1.505(5) 0.597(3)
loop_
_geom_bond_atom_site_label_1
_geom_bond_atom_site_label_2
_geom_bond_site_symmetry_1
_geom_bond_site_symmetry_2
Ag1 N1 1_555 1_555
N1 C1 1_555 1_555
C1 H1 1_555 1_555
C2 C1 1_555 1_555
H2 C2 1_555 1_555
C3 C2 1_555 1_555
H3 C3 1_555 1_555
C4 C3 1_555 1_555
H4 C4 1_555 1_555
C5 N1 1_555 1_555
C6 C5 1_555 1_555
H5 C6 1_555 1_555
N2 Ag1 1_555 1_555
C7 N2 1_555 1_555
C8 C7 1_555 1_555
H6 C8 1_555 1_555
C9 C8 1_555 1_555
H7 C9 1_555 1_555
C10 C9 1_555 1_555
C11 C10 1_555 1_555
H8 C11 1_555 1_555
C12 C7 1_555 1_555
H9 C12 1_555 1_555
C13 C10 1_555 1_555
H10 C13 1_555 1_555
H11 C13 1_555 1_555
C14 C13 1_555 1_555
C15 C14 1_555 1_555
H12 C15 1_555 1_555
C16 C15 1_555 1_555
H13 C16 1_555 1_555
C17 C16 1_555 1_555
C18 C17 1_555 1_555
H14 C18 1_555 1_555
C19 C14 1_555 1_555
H15 C19 1_555 1_555
N3 C17 1_555 1_555
C20 C21 1_555 1_555
C21 N3 1_555 1_555
H16 C21 1_555 1_555
C22 C20 1_555 1_555
H17 C22 1_555 1_555
C23 C22 1_555 1_555
H18 C23 1_555 1_555
C24 C23 1_555 1_555
H19 C24 1_555 1_555
C25 C24 1_555 1_555
H20 C25 1_555 1_555
N4 C20 1_555 1_555
Cl1 O1 1_555 1_555
O2 Cl1 1_555 1_555
O3 Cl1 1_555 1_555
O4 Cl1 1_555 1_555
C26 H21 1_555 1_555
H22 C26 1_555 1_555
H23 C26 1_555 1_555
C27 C26 1_555 1_555
N5 C27 1_555 1_555
Ag1_2 N3 1_555 1_555
N3_2 Ag1 1_555 1_555
N4_2 Ag1 1_555 1_555
C4 C5 1_555 1_555
C6 N2 1_555 1_555
C11 C12 1_555 1_555
C18 C19 1_555 1_555
C25 N4 1_555 1_555
N4 Ag1_2 1_555 1_555

#END
