
#######################################################################
#
#                 Cambridge Crystallographic Data Centre
#                                CCDC 
#
#######################################################################
#
# If this CIF has been generated from an entry in the Cambridge 
# Structural Database, then it will include bibliographic, chemical, 
# crystal, experimental, refinement or atomic coordinate data resulting 
# from the CCDC's data processing and validation procedures.
#
#######################################################################

data_VAXBOM
_symmetry_cell_setting           triclinic
_symmetry_space_group_name_H-M   'P -1'
_symmetry_Int_Tables_number      2
_space_group_name_Hall           '-P 1'
loop_
_symmetry_equiv_pos_site_id
_symmetry_equiv_pos_as_xyz
1 x,y,z
2 -x,-y,-z
_cell_length_a                   5.538(1)
_cell_length_b                   7.663(1)
_cell_length_c                   7.711(2)
_cell_angle_alpha                62.21(1)
_cell_angle_beta                 73.91(1)
_cell_angle_gamma                86.11(1)
_cell_volume                     277.428
loop_
_atom_site_label
_atom_site_type_symbol
_atom_site_fract_x
_atom_site_fract_y
_atom_site_fract_z
Cu1 Cu 0.0000 0.0000 1.0000
O1 O -0.2505(5) -0.1441(4) 0.9631(4)
O2 O -0.3420(5) 0.1895(4) 0.9996(5)
C1 C -0.4761(6) -0.0969(5) 0.9908(5)
N1 N 0.1312(6) 0.1607(5) 0.6966(5)
N2 N 0.3806(7) 0.2189(7) 0.5939(6)
C2 C 0.3932(8) 0.3197(8) 0.4002(6)
H1 H 0.540 0.378 0.295
N3 N 0.1567(6) 0.3271(5) 0.3757(5)
C3 C 0.0011(7) 0.2261(6) 0.5634(6)
H2 H -0.173 0.206 0.594
N4 N 0.0783(7) 0.4191(5) 0.1958(5)
H3 H 0.120 0.541 0.144
H4 H 0.167 0.366 0.127
Cu1_2 Cu -1.0000 0.0000 1.0000
O1A O -0.7495(5) 0.1441(4) 1.0369(4)
O1A_2 O 0.2505(5) 0.1441(4) 1.0369(4)
O2A O -0.6580(5) -0.1895(4) 1.0004(5)
O2A_2 O 0.3420(5) -0.1895(4) 1.0004(5)
C1A C -0.5239(6) 0.0969(5) 1.0092(5)
N1A N -0.1312(6) -0.1607(5) 1.3034(5)
N2A N -0.3806(7) -0.2189(7) 1.4061(6)
C2A C -0.3932(8) -0.3197(8) 1.5998(6)
H1A H -0.540 -0.378 1.705
N3A N -0.1567(6) -0.3271(5) 1.6243(5)
C3A C -0.0011(7) -0.2261(6) 1.4366(6)
H2A H 0.173 -0.206 1.406
N4A N -0.0783(7) -0.4191(5) 1.8042(5)
H3A H -0.120 -0.541 1.856
H4A H -0.167 -0.366 1.873
loop_
_geom_bond_atom_site_label_1
_geom_bond_atom_site_label_2
_geom_bond_site_symmetry_1
_geom_bond_site_symmetry_2
Cu1 O1 1_555 1_555
O1 C1 1_555 1_555
O2 Cu1 1_555 1_555
C1 O2A 1_555 1_555
N1 Cu1 1_555 1_555
N2 N1 1_555 1_555
C2 N2 1_555 1_555
H1 C2 1_555 1_555
N3 C2 1_555 1_555
C3 N1 1_555 1_555
H2 C3 1_555 1_555
N4 N3 1_555 1_555
H3 N4 1_555 1_555
H4 N4 1_555 1_555
Cu1_2 O1A 1_555 1_555
O1A C1A 1_555 1_555
O1A_2 Cu1 1_555 1_555
O2A Cu1_2 1_555 1_555
O2A_2 Cu1 1_555 1_555
C1A O2 1_555 1_555
N1A Cu1 1_555 1_555
N2A N1A 1_555 1_555
C2A N2A 1_555 1_555
H1A C2A 1_555 1_555
N3A C2A 1_555 1_555
C3A N1A 1_555 1_555
H2A C3A 1_555 1_555
N4A N3A 1_555 1_555
H3A N4A 1_555 1_555
H4A N4A 1_555 1_555
C1 C1A 1_555 1_555
N3 C3 1_555 1_555
N3A C3A 1_555 1_555

#END
