
#######################################################################
#
#                 Cambridge Crystallographic Data Centre
#                                CCDC 
#
#######################################################################
#
# If this CIF has been generated from an entry in the Cambridge 
# Structural Database, then it will include bibliographic, chemical, 
# crystal, experimental, refinement or atomic coordinate data resulting 
# from the CCDC's data processing and validation procedures.
#
#######################################################################

data_VAXSUK
_symmetry_cell_setting           tetragonal
_symmetry_space_group_name_H-M   'I 4'
_symmetry_Int_Tables_number      79
_space_group_name_Hall           'I 4'
loop_
_symmetry_equiv_pos_site_id
_symmetry_equiv_pos_as_xyz
1 x,y,z
2 -y,x,z
3 -x,-y,z
4 y,-x,z
5 1/2+x,1/2+y,1/2+z
6 1/2-y,1/2+x,1/2+z
7 1/2-x,1/2-y,1/2+z
8 1/2+y,1/2-x,1/2+z
_cell_length_a                   17.232(2)
_cell_length_b                   17.232(2)
_cell_length_c                   16.444(3)
_cell_angle_alpha                90
_cell_angle_beta                 90
_cell_angle_gamma                90
_cell_volume                     4882.91
loop_
_atom_site_label
_atom_site_type_symbol
_atom_site_fract_x
_atom_site_fract_y
_atom_site_fract_z
I3 I 0.5000 0.5000 0.22601(16)
I5 I 0.5390(2) 0.3174(2) 0.01165(18)
C1 C 0.3046(10) 0.3009(9) 0.1759(9)
H1 H 0.2819 0.3509 0.1605
H2 H 0.2675 0.2593 0.1641
H3 H 0.3524 0.2923 0.1448
I1 I 0.6080(5) 0.0103(4) 0.4269(4)
I2 I 0.0000 0.0000 0.09422(8)
Cd1 Cd 0.5000 0.0000 0.56268(10)
Cd2 Cd 0.0000 0.0000 0.27072(15)
N1 N 0.4716(6) 0.1312(5) 0.5703(7)
N2 N 0.4571(7) 0.2516(6) 0.6275(8)
N3 N 0.4183(6) 0.2468(5) 0.5542(6)
N4 N 0.1569(6) 0.2057(5) 0.2882(8)
N5 N 0.1944(7) 0.1578(7) 0.2295(9)
N6 N 0.0929(5) 0.0969(6) 0.2799(7)
N7 N 0.4806(8) 0.2097(7) 0.2220(10)
N8 N 0.5244(15) 0.1695(7) 0.2772(8)
N9 N 0.4842(8) 0.0992(8) 0.1650(9)
C2 C 0.4245(9) 0.1744(6) 0.5251(10)
H4 H 0.3984 0.1562 0.4779
C3 C 0.4874(12) 0.1816(9) 0.6358(11)
H5 H 0.5172 0.1666 0.6818
C4 C 0.3742(8) 0.3126(6) 0.5227(8)
H6 H 0.3583 0.3557 0.5546
C5 C 0.3580(7) 0.3041(6) 0.4378(8)
C6 C 0.2792(6) 0.2910(6) 0.4134(9)
C7 C 0.2172(11) 0.2802(11) 0.4737(13)
H7 H 0.2373 0.2921 0.5281
H8 H 0.1992 0.2263 0.4723
H9 H 0.1739 0.3151 0.4612
C8 C 0.2621(6) 0.2934(6) 0.3273(8)
C9 C 0.1795(7) 0.2871(7) 0.2985(9)
H10 H 0.1446 0.3122 0.3384
H11 H 0.1739 0.3147 0.2460
C10 C 0.0907(8) 0.1707(8) 0.3078(9)
H12 H 0.0488 0.1936 0.3367
C11 C 0.1532(9) 0.0988(9) 0.2294(8)
H13 H 0.1643 0.0564 0.1944
C12 C 0.3239(8) 0.3012(6) 0.2701(8)
C13 C 0.4141(6) 0.3072(6) 0.3779(6)
C14 C 0.3970(8) 0.3022(7) 0.2959(8)
C15 C 0.4655(9) 0.2932(7) 0.2360(10)
H14 H 0.4528 0.3189 0.1838
H15 H 0.5124 0.3183 0.2587
C16 C 0.4673(8) 0.1674(10) 0.1539(10)
H16 H 0.4475 0.1878 0.1044
C17 C 0.5138(12) 0.0980(11) 0.2457(15)
H17 H 0.5249 0.0516 0.2746
C18 C 0.4968(8) 0.3238(9) 0.4109(12)
H18 H 0.4930 0.3464 0.4655
H19 H 0.5233 0.3604 0.3747
H20 H 0.5263 0.2753 0.4135
C1A C -0.3009(9) 0.3046(10) 0.1759(9)
C1B C -0.3046(10) -0.3009(9) 0.1759(9)
C1C C 0.3009(9) -0.3046(10) 0.1759(9)
H1A H -0.3509 0.2819 0.1605
H1B H -0.2819 -0.3509 0.1605
H1C H 0.3509 -0.2819 0.1605
H2A H -0.2593 0.2675 0.1641
H2B H -0.2675 -0.2593 0.1641
H2C H 0.2593 -0.2675 0.1641
H3A H -0.2923 0.3524 0.1448
H3B H -0.3524 -0.2923 0.1448
H3C H 0.2923 -0.3524 0.1448
I1B I 0.3920(5) -0.0103(4) 0.4269(4)
I1A I -0.0103(4) 0.6080(5) 0.4269(4)
I1C I 0.0103(4) 0.3920(5) 0.4269(4)
Cd1A Cd 0.0000 0.5000 0.56268(10)
Cd1E Cd 0.5000 0.0000 0.06268(10)
Cd1D Cd 0.0000 0.5000 0.06268(10)
Cd1_2 Cd -0.5000 0.0000 0.56268(10)
Cd1E_2 Cd -0.5000 0.0000 0.06268(10)
Cd1A_2 Cd 0.0000 -0.5000 0.56268(10)
Cd1D_2 Cd 0.0000 -0.5000 0.06268(10)
N1A N -0.1312(5) 0.4716(6) 0.5703(7)
N1B N -0.4716(6) -0.1312(5) 0.5703(7)
N1C N 0.1312(5) -0.4716(6) 0.5703(7)
N1B_2 N 0.5284(6) -0.1312(5) 0.5703(7)
N1C_2 N 0.1312(5) 0.5284(6) 0.5703(7)
N2A N -0.2516(6) 0.4571(7) 0.6275(8)
N2B N -0.4571(7) -0.2516(6) 0.6275(8)
N2C N 0.2516(6) -0.4571(7) 0.6275(8)
N3A N -0.2468(5) 0.4183(6) 0.5542(6)
N3B N -0.4183(6) -0.2468(5) 0.5542(6)
N3C N 0.2468(5) -0.4183(6) 0.5542(6)
N4A N -0.2057(5) 0.1569(6) 0.2882(8)
N4B N -0.1569(6) -0.2057(5) 0.2882(8)
N4C N 0.2057(5) -0.1569(6) 0.2882(8)
N5A N -0.1578(7) 0.1944(7) 0.2295(9)
N5B N -0.1944(7) -0.1578(7) 0.2295(9)
N5C N 0.1578(7) -0.1944(7) 0.2295(9)
N6A N -0.0969(6) 0.0929(5) 0.2799(7)
N6B N -0.0929(5) -0.0969(6) 0.2799(7)
N6C N 0.0969(6) -0.0929(5) 0.2799(7)
N7A N -0.2097(7) 0.4806(8) 0.2220(10)
N7B N -0.4806(8) -0.2097(7) 0.2220(10)
N7C N 0.2097(7) -0.4806(8) 0.2220(10)
N8A N -0.1695(7) 0.5244(15) 0.2772(8)
N8B N -0.5244(15) -0.1695(7) 0.2772(8)
N8C N 0.1695(7) -0.5244(15) 0.2772(8)
N9A N -0.0992(8) 0.4842(8) 0.1650(9)
N9B N -0.4842(8) -0.0992(8) 0.1650(9)
N9C N 0.0992(8) -0.4842(8) 0.1650(9)
N9E N 0.4008(8) -0.0158(8) 0.6650(9)
N9G N 0.5992(8) 0.0158(8) 0.6650(9)
N9F N 0.0158(8) 0.4008(8) 0.6650(9)
N9D N -0.0158(8) 0.5992(8) 0.6650(9)
C2A C -0.1744(6) 0.4245(9) 0.5251(10)
C2B C -0.4245(9) -0.1744(6) 0.5251(10)
C2C C 0.1744(6) -0.4245(9) 0.5251(10)
H4A H -0.1562 0.3984 0.4779
H4B H -0.3984 -0.1562 0.4779
H4C H 0.1562 -0.3984 0.4779
C3A C -0.1816(9) 0.4874(12) 0.6358(11)
C3B C -0.4874(12) -0.1816(9) 0.6358(11)
C3C C 0.1816(9) -0.4874(12) 0.6358(11)
H5A H -0.1666 0.5172 0.6818
H5B H -0.5172 -0.1666 0.6818
H5C H 0.1666 -0.5172 0.6818
C4A C -0.3126(6) 0.3742(8) 0.5227(8)
C4B C -0.3742(8) -0.3126(6) 0.5227(8)
C4C C 0.3126(6) -0.3742(8) 0.5227(8)
H6A H -0.3557 0.3583 0.5546
H6B H -0.3583 -0.3557 0.5546
H6C H 0.3557 -0.3583 0.5546
C5A C -0.3041(6) 0.3580(7) 0.4378(8)
C5B C -0.3580(7) -0.3041(6) 0.4378(8)
C5C C 0.3041(6) -0.3580(7) 0.4378(8)
C6A C -0.2910(6) 0.2792(6) 0.4134(9)
C6B C -0.2792(6) -0.2910(6) 0.4134(9)
C6C C 0.2910(6) -0.2792(6) 0.4134(9)
C7A C -0.2802(11) 0.2172(11) 0.4737(13)
C7B C -0.2172(11) -0.2802(11) 0.4737(13)
C7C C 0.2802(11) -0.2172(11) 0.4737(13)
H7A H -0.2921 0.2373 0.5281
H7B H -0.2373 -0.2921 0.5281
H7C H 0.2921 -0.2373 0.5281
H8A H -0.2263 0.1992 0.4723
H8B H -0.1992 -0.2263 0.4723
H8C H 0.2263 -0.1992 0.4723
H9A H -0.3151 0.1739 0.4612
H9B H -0.1739 -0.3151 0.4612
H9C H 0.3151 -0.1739 0.4612
C8A C -0.2934(6) 0.2621(6) 0.3273(8)
C8B C -0.2621(6) -0.2934(6) 0.3273(8)
C8C C 0.2934(6) -0.2621(6) 0.3273(8)
C9A C -0.2871(7) 0.1795(7) 0.2985(9)
C9B C -0.1795(7) -0.2871(7) 0.2985(9)
C9C C 0.2871(7) -0.1795(7) 0.2985(9)
H10A H -0.3122 0.1446 0.3384
H10B H -0.1446 -0.3122 0.3384
H10C H 0.3122 -0.1446 0.3384
H11A H -0.3147 0.1739 0.2460
H11B H -0.1739 -0.3147 0.2460
H11C H 0.3147 -0.1739 0.2460
C10A C -0.1707(8) 0.0907(8) 0.3078(9)
C10B C -0.0907(8) -0.1707(8) 0.3078(9)
C10C C 0.1707(8) -0.0907(8) 0.3078(9)
H12A H -0.1936 0.0488 0.3367
H12B H -0.0488 -0.1936 0.3367
H12C H 0.1936 -0.0488 0.3367
C11A C -0.0988(9) 0.1532(9) 0.2294(8)
C11B C -0.1532(9) -0.0988(9) 0.2294(8)
C11C C 0.0988(9) -0.1532(9) 0.2294(8)
H13A H -0.0564 0.1643 0.1944
H13B H -0.1643 -0.0564 0.1944
H13C H 0.0564 -0.1643 0.1944
C12A C -0.3012(6) 0.3239(8) 0.2701(8)
C12B C -0.3239(8) -0.3012(6) 0.2701(8)
C12C C 0.3012(6) -0.3239(8) 0.2701(8)
C13A C -0.3072(6) 0.4141(6) 0.3779(6)
C13B C -0.4141(6) -0.3072(6) 0.3779(6)
C13C C 0.3072(6) -0.4141(6) 0.3779(6)
C14A C -0.3022(7) 0.3970(8) 0.2959(8)
C14B C -0.3970(8) -0.3022(7) 0.2959(8)
C14C C 0.3022(7) -0.3970(8) 0.2959(8)
C15A C -0.2932(7) 0.4655(9) 0.2360(10)
C15B C -0.4655(9) -0.2932(7) 0.2360(10)
C15C C 0.2932(7) -0.4655(9) 0.2360(10)
H14A H -0.3189 0.4528 0.1838
H14B H -0.4528 -0.3189 0.1838
H14C H 0.3189 -0.4528 0.1838
H15A H -0.3183 0.5124 0.2587
H15B H -0.5124 -0.3183 0.2587
H15C H 0.3183 -0.5124 0.2587
C16A C -0.1674(10) 0.4673(8) 0.1539(10)
C16B C -0.4673(8) -0.1674(10) 0.1539(10)
C16C C 0.1674(10) -0.4673(8) 0.1539(10)
H16A H -0.1878 0.4475 0.1044
H16B H -0.4475 -0.1878 0.1044
H16C H 0.1878 -0.4475 0.1044
C17A C -0.0980(11) 0.5138(12) 0.2457(15)
C17B C -0.5138(12) -0.0980(11) 0.2457(15)
C17C C 0.0980(11) -0.5138(12) 0.2457(15)
H17A H -0.0516 0.5249 0.2746
H17B H -0.5249 -0.0516 0.2746
H17C H 0.0516 -0.5249 0.2746
C18A C -0.3238(9) 0.4968(8) 0.4109(12)
C18B C -0.4968(8) -0.3238(9) 0.4109(12)
C18C C 0.3238(9) -0.4968(8) 0.4109(12)
H18A H -0.3464 0.4930 0.4655
H18B H -0.4930 -0.3464 0.4655
H18C H 0.3464 -0.4930 0.4655
H19A H -0.3604 0.5233 0.3747
H19B H -0.5233 -0.3604 0.3747
H19C H 0.3604 -0.5233 0.3747
H20A H -0.2753 0.5263 0.4135
H20B H -0.5263 -0.2753 0.4135
H20C H 0.2753 -0.5263 0.4135
I4? I 0.5322(8) 0.4701(5) 0.0579(4)
loop_
_geom_bond_atom_site_label_1
_geom_bond_atom_site_label_2
_geom_bond_site_symmetry_1
_geom_bond_site_symmetry_2
C1 H1 1_555 1_555
H2 C1 1_555 1_555
H3 C1 1_555 1_555
I1 Cd1 1_555 1_555
I2 Cd2 1_555 1_555
Cd1 N1 1_555 1_555
Cd2 N6 1_555 1_555
N1 C2 1_555 1_555
N2 N3 1_555 1_555
N3 C2 1_555 1_555
N4 N5 1_555 1_555
N5 C11 1_555 1_555
N6 C10 1_555 1_555
N7 N8 1_555 1_555
N8 C17 1_555 1_555
N9 C16 1_555 1_555
C2 H4 1_555 1_555
C3 N1 1_555 1_555
H5 C3 1_555 1_555
C4 N3 1_555 1_555
H6 C4 1_555 1_555
C5 C4 1_555 1_555
C6 C5 1_555 1_555
C7 C6 1_555 1_555
H7 C7 1_555 1_555
H8 C7 1_555 1_555
H9 C7 1_555 1_555
C8 C6 1_555 1_555
C9 N4 1_555 1_555
H10 C9 1_555 1_555
H11 C9 1_555 1_555
C10 N4 1_555 1_555
H12 C10 1_555 1_555
C11 N6 1_555 1_555
H13 C11 1_555 1_555
C12 C1 1_555 1_555
C13 C5 1_555 1_555
C14 C12 1_555 1_555
C15 N7 1_555 1_555
H14 C15 1_555 1_555
H15 C15 1_555 1_555
C16 N7 1_555 1_555
H16 C16 1_555 1_555
C17 N9 1_555 1_555
H17 C17 1_555 1_555
C18 C13 1_555 1_555
H18 C18 1_555 1_555
H19 C18 1_555 1_555
H20 C18 1_555 1_555
C1A H1A 1_555 1_555
C1B H1B 1_555 1_555
C1C H1C 1_555 1_555
H2A C1A 1_555 1_555
H2B C1B 1_555 1_555
H2C C1C 1_555 1_555
H3A C1A 1_555 1_555
H3B C1B 1_555 1_555
H3C C1C 1_555 1_555
I1B Cd1 1_555 1_555
I1A Cd1A 1_555 1_555
I1C Cd1A 1_555 1_555
Cd1A N1A 1_555 1_555
Cd1E N9 1_555 1_555
Cd1D N9A 1_555 1_555
Cd1_2 N1B 1_555 1_555
Cd1E_2 N9B 1_555 1_555
Cd1A_2 N1C 1_555 1_555
Cd1D_2 N9C 1_555 1_555
N1A C2A 1_555 1_555
N1B C2B 1_555 1_555
N1C C2C 1_555 1_555
N1B_2 Cd1 1_555 1_555
N1C_2 Cd1A 1_555 1_555
N2A N3A 1_555 1_555
N2B N3B 1_555 1_555
N2C N3C 1_555 1_555
N3A C2A 1_555 1_555
N3B C2B 1_555 1_555
N3C C2C 1_555 1_555
N4A N5A 1_555 1_555
N4B N5B 1_555 1_555
N4C N5C 1_555 1_555
N5A C11A 1_555 1_555
N5B C11B 1_555 1_555
N5C C11C 1_555 1_555
N6A Cd2 1_555 1_555
N6B Cd2 1_555 1_555
N6C Cd2 1_555 1_555
N7A N8A 1_555 1_555
N7B N8B 1_555 1_555
N7C N8C 1_555 1_555
N8A C17A 1_555 1_555
N8B C17B 1_555 1_555
N8C C17C 1_555 1_555
N9A C16A 1_555 1_555
N9B C16B 1_555 1_555
N9C C16C 1_555 1_555
N9E Cd1 1_555 1_555
N9G Cd1 1_555 1_555
N9F Cd1A 1_555 1_555
N9D Cd1A 1_555 1_555
C2A H4A 1_555 1_555
C2B H4B 1_555 1_555
C2C H4C 1_555 1_555
C3A N1A 1_555 1_555
C3B N1B 1_555 1_555
C3C N1C 1_555 1_555
H5A C3A 1_555 1_555
H5B C3B 1_555 1_555
H5C C3C 1_555 1_555
C4A N3A 1_555 1_555
C4B N3B 1_555 1_555
C4C N3C 1_555 1_555
H6A C4A 1_555 1_555
H6B C4B 1_555 1_555
H6C C4C 1_555 1_555
C5A C4A 1_555 1_555
C5B C4B 1_555 1_555
C5C C4C 1_555 1_555
C6A C5A 1_555 1_555
C6B C5B 1_555 1_555
C6C C5C 1_555 1_555
C7A C6A 1_555 1_555
C7B C6B 1_555 1_555
C7C C6C 1_555 1_555
H7A C7A 1_555 1_555
H7B C7B 1_555 1_555
H7C C7C 1_555 1_555
H8A C7A 1_555 1_555
H8B C7B 1_555 1_555
H8C C7C 1_555 1_555
H9A C7A 1_555 1_555
H9B C7B 1_555 1_555
H9C C7C 1_555 1_555
C8A C6A 1_555 1_555
C8B C6B 1_555 1_555
C8C C6C 1_555 1_555
C9A N4A 1_555 1_555
C9B N4B 1_555 1_555
C9C N4C 1_555 1_555
H10A C9A 1_555 1_555
H10B C9B 1_555 1_555
H10C C9C 1_555 1_555
H11A C9A 1_555 1_555
H11B C9B 1_555 1_555
H11C C9C 1_555 1_555
C10A N4A 1_555 1_555
C10B N4B 1_555 1_555
C10C N4C 1_555 1_555
H12A C10A 1_555 1_555
H12B C10B 1_555 1_555
H12C C10C 1_555 1_555
C11A N6A 1_555 1_555
C11B N6B 1_555 1_555
C11C N6C 1_555 1_555
H13A C11A 1_555 1_555
H13B C11B 1_555 1_555
H13C C11C 1_555 1_555
C12A C1A 1_555 1_555
C12B C1B 1_555 1_555
C12C C1C 1_555 1_555
C13A C5A 1_555 1_555
C13B C5B 1_555 1_555
C13C C5C 1_555 1_555
C14A C12A 1_555 1_555
C14B C12B 1_555 1_555
C14C C12C 1_555 1_555
C15A N7A 1_555 1_555
C15B N7B 1_555 1_555
C15C N7C 1_555 1_555
H14A C15A 1_555 1_555
H14B C15B 1_555 1_555
H14C C15C 1_555 1_555
H15A C15A 1_555 1_555
H15B C15B 1_555 1_555
H15C C15C 1_555 1_555
C16A N7A 1_555 1_555
C16B N7B 1_555 1_555
C16C N7C 1_555 1_555
H16A C16A 1_555 1_555
H16B C16B 1_555 1_555
H16C C16C 1_555 1_555
C17A N9A 1_555 1_555
C17B N9B 1_555 1_555
C17C N9C 1_555 1_555
H17A C17A 1_555 1_555
H17B C17B 1_555 1_555
H17C C17C 1_555 1_555
C18A C13A 1_555 1_555
C18B C13B 1_555 1_555
C18C C13C 1_555 1_555
H18A C18A 1_555 1_555
H18B C18B 1_555 1_555
H18C C18C 1_555 1_555
H19A C18A 1_555 1_555
H19B C18B 1_555 1_555
H19C C18C 1_555 1_555
H20A C18A 1_555 1_555
H20B C18B 1_555 1_555
H20C C18C 1_555 1_555
N2 C3 1_555 1_555
C8 C9 1_555 1_555
C8 C12 1_555 1_555
C13 C14 1_555 1_555
C14 C15 1_555 1_555
N2A C3A 1_555 1_555
N2B C3B 1_555 1_555
N2C C3C 1_555 1_555
N6A C10A 1_555 1_555
N6B C10B 1_555 1_555
N6C C10C 1_555 1_555
C8A C9A 1_555 1_555
C8A C12A 1_555 1_555
C8B C9B 1_555 1_555
C8B C12B 1_555 1_555
C8C C9C 1_555 1_555
C8C C12C 1_555 1_555
C13A C14A 1_555 1_555
C13B C14B 1_555 1_555
C13C C14C 1_555 1_555
C14A C15A 1_555 1_555
C14B C15B 1_555 1_555
C14C C15C 1_555 1_555

#END
