
#######################################################################
#
#                 Cambridge Crystallographic Data Centre
#                                CCDC 
#
#######################################################################
#
# If this CIF has been generated from an entry in the Cambridge 
# Structural Database, then it will include bibliographic, chemical, 
# crystal, experimental, refinement or atomic coordinate data resulting 
# from the CCDC's data processing and validation procedures.
#
#######################################################################

data_VAXTUK
_symmetry_cell_setting           monoclinic
_symmetry_space_group_name_H-M   'P 21/c'
_symmetry_Int_Tables_number      14
_space_group_name_Hall           '-P 2ybc'
loop_
_symmetry_equiv_pos_site_id
_symmetry_equiv_pos_as_xyz
1 x,y,z
2 -x,1/2+y,1/2-z
3 -x,-y,-z
4 x,1/2-y,1/2+z
_cell_length_a                   8.0172(5)
_cell_length_b                   12.4067(8)
_cell_length_c                   13.2083(9)
_cell_angle_alpha                90
_cell_angle_beta                 110.3550(10)
_cell_angle_gamma                90
_cell_volume                     1231.75
loop_
_atom_site_label
_atom_site_type_symbol
_atom_site_fract_x
_atom_site_fract_y
_atom_site_fract_z
Ag1 Ag 0.34498(5) -0.07805(3) 0.05843(3)
N1 N 0.1984(5) 0.0718(3) 0.0457(3)
N2 N 0.5138(5) 0.2743(3) 0.4409(3)
O1 O 0.2819(5) -0.0347(2) 0.2416(2)
C1 C 0.1110(6) 0.1163(4) -0.0510(3)
H1 H 0.1177 0.0831 -0.1126
C2 C 0.0117(6) 0.2093(4) -0.0625(4)
H2 H -0.0489 0.2371 -0.1309
C3 C 0.0031(6) 0.2605(4) 0.0277(4)
H3 H -0.0615 0.3239 0.0217
C4 C 0.0929(6) 0.2154(4) 0.1279(3)
H4 H 0.0891 0.2482 0.1903
C5 C 0.1878(5) 0.1216(3) 0.1344(3)
C6 C 0.2711(5) 0.0628(3) 0.2398(3)
C7 C 0.4312(5) 0.2225(3) 0.3479(3)
H5 H 0.4347 0.2525 0.2841
C8 C 0.3407(5) 0.1261(3) 0.3426(3)
C9 C 0.3295(6) 0.0837(3) 0.4370(3)
H6 H 0.2678 0.0200 0.4358
C10 C 0.4120(6) 0.1380(3) 0.5335(3)
H7 H 0.4049 0.1118 0.5979
C11 C 0.5042(6) 0.2308(4) 0.5322(3)
H8 H 0.5628 0.2653 0.5974
Ag1A Ag 0.65502(5) 0.42195(3) 0.44157(3)
N2A N 0.4862(5) -0.2257(3) 0.0591(3)
B1 B 0.2248(6) 0.5386(3) 0.2249(3)
F1 F 0.2585(18) 0.5759(12) 0.1413(10)
F2 F 0.3420(16) 0.4674(14) 0.2770(14)
F3 F 0.0645(13) 0.4905(14) 0.1926(12)
F4 F 0.213(3) 0.6204(11) 0.2855(13)
F5? F 0.2219(18) 0.5570(8) 0.1243(5)
F6? F 0.2493(19) 0.4343(5) 0.2416(9)
F7? F 0.0865(11) 0.5737(9) 0.2436(9)
F8? F 0.3700(12) 0.5855(12) 0.2923(10)
loop_
_geom_bond_atom_site_label_1
_geom_bond_atom_site_label_2
_geom_bond_site_symmetry_1
_geom_bond_site_symmetry_2
Ag1 N1 1_555 1_555
N1 C1 1_555 1_555
N2 C7 1_555 1_555
O1 C6 1_555 1_555
C1 H1 1_555 1_555
C2 C1 1_555 1_555
H2 C2 1_555 1_555
C3 C2 1_555 1_555
H3 C3 1_555 1_555
C4 C3 1_555 1_555
H4 C4 1_555 1_555
C5 N1 1_555 1_555
C6 C5 1_555 1_555
C7 H5 1_555 1_555
C8 C6 1_555 1_555
C9 C8 1_555 1_555
H6 C9 1_555 1_555
C10 C9 1_555 1_555
H7 C10 1_555 1_555
C11 N2 1_555 1_555
H8 C11 1_555 1_555
B1 F1 1_555 1_555
F2 B1 1_555 1_555
F3 B1 1_555 1_555
F4 B1 1_555 1_555
Ag1A N2 1_555 1_555
N2A Ag1 1_555 1_555
C4 C5 1_555 1_555
C7 C8 1_555 1_555
C10 C11 1_555 1_555

#END
