
#######################################################################
#
#                 Cambridge Crystallographic Data Centre
#                                CCDC 
#
#######################################################################
#
# If this CIF has been generated from an entry in the Cambridge 
# Structural Database, then it will include bibliographic, chemical, 
# crystal, experimental, refinement or atomic coordinate data resulting 
# from the CCDC's data processing and validation procedures.
#
#######################################################################

data_VAXTOE
_symmetry_cell_setting           monoclinic
_symmetry_space_group_name_H-M   'P 21/c'
_symmetry_Int_Tables_number      14
_space_group_name_Hall           '-P 2ybc'
loop_
_symmetry_equiv_pos_site_id
_symmetry_equiv_pos_as_xyz
1 x,y,z
2 -x,1/2+y,1/2-z
3 -x,-y,-z
4 x,1/2-y,1/2+z
_cell_length_a                   8.6733(7)
_cell_length_b                   12.1933(10)
_cell_length_c                   13.2700(10)
_cell_angle_alpha                90
_cell_angle_beta                 101.673(2)
_cell_angle_gamma                90
_cell_volume                     1374.36
loop_
_atom_site_label
_atom_site_type_symbol
_atom_site_fract_x
_atom_site_fract_y
_atom_site_fract_z
Ag1 Ag -0.04053(7) 0.16595(4) 0.06228(4)
N1 N 0.0881(6) 0.3165(4) 0.0506(4)
N2 N 0.1705(7) 0.5155(4) 0.4328(4)
O1 O 0.1762(6) 0.2035(4) 0.2354(4)
C1 C 0.0857(9) 0.3634(6) -0.0412(5)
H1 H 0.0217 0.3328 -0.0991
C2 C 0.1741(9) 0.4552(6) -0.0541(5)
H2 H 0.1712 0.4846 -0.1191
C3 C 0.2659(9) 0.5018(6) 0.0318(5)
H3 H 0.3267 0.5633 0.0256
C4 C 0.2673(8) 0.4568(5) 0.1267(5)
H4 H 0.3254 0.4893 0.1858
C5 C 0.1817(7) 0.3629(5) 0.1336(5)
C6 C 0.1949(8) 0.3019(5) 0.2339(5)
C7 C 0.1543(8) 0.4612(5) 0.3443(5)
H5 H 0.0870 0.4900 0.2869
C8 C 0.2312(8) 0.3651(5) 0.3329(4)
C9 C 0.3373(8) 0.3247(5) 0.4173(5)
H6 H 0.3928 0.2603 0.4123
C10 C 0.3584(9) 0.3810(6) 0.5077(5)
H7 H 0.4301 0.3561 0.5649
C11 C 0.2730(8) 0.4752(6) 0.5135(5)
H8 H 0.2871 0.5122 0.5760
Ag1A Ag 0.04053(7) 0.66595(4) 0.43772(4)
N2A N -0.1705(7) 0.0155(4) 0.0672(4)
P1 P -0.3034(2) 0.28976(16) 0.24672(14)
F1 F -0.3424(9) 0.2963(5) 0.1260(4)
F2 F -0.1500(9) 0.3544(7) 0.2527(9)
F3 F -0.407(3) 0.385(3) 0.255(3)
F4 F -0.443(3) 0.205(3) 0.2381(15)
F5 F -0.183(4) 0.189(2) 0.2450(17)
F9 F -0.2649(8) 0.2781(6) 0.3686(4)
F6? F -0.360(4) 0.413(3) 0.255(3)
F7? F -0.463(3) 0.248(4) 0.249(2)
F8? F -0.239(4) 0.1748(18) 0.242(3)
loop_
_geom_bond_atom_site_label_1
_geom_bond_atom_site_label_2
_geom_bond_site_symmetry_1
_geom_bond_site_symmetry_2
Ag1 N1 1_555 1_555
N1 C1 1_555 1_555
N2 C7 1_555 1_555
O1 C6 1_555 1_555
C1 H1 1_555 1_555
C2 C1 1_555 1_555
H2 C2 1_555 1_555
C3 C2 1_555 1_555
H3 C3 1_555 1_555
C4 C3 1_555 1_555
H4 C4 1_555 1_555
C5 N1 1_555 1_555
C6 C5 1_555 1_555
C7 H5 1_555 1_555
C8 C6 1_555 1_555
C9 C8 1_555 1_555
H6 C9 1_555 1_555
C10 C9 1_555 1_555
H7 C10 1_555 1_555
C11 N2 1_555 1_555
H8 C11 1_555 1_555
P1 F1 1_555 1_555
F2 P1 1_555 1_555
F3 P1 1_555 1_555
F4 P1 1_555 1_555
F5 P1 1_555 1_555
F9 P1 1_555 1_555
Ag1A N2 1_555 1_555
N2A Ag1 1_555 1_555
C4 C5 1_555 1_555
C7 C8 1_555 1_555
C10 C11 1_555 1_555

#END
