
#######################################################################
#
#                 Cambridge Crystallographic Data Centre
#                                CCDC 
#
#######################################################################
#
# If this CIF has been generated from an entry in the Cambridge 
# Structural Database, then it will include bibliographic, chemical, 
# crystal, experimental, refinement or atomic coordinate data resulting 
# from the CCDC's data processing and validation procedures.
#
#######################################################################

data_VAXTAR
_symmetry_cell_setting           triclinic
_symmetry_space_group_name_H-M   'P -1'
_symmetry_Int_Tables_number      2
_space_group_name_Hall           '-P 1'
loop_
_symmetry_equiv_pos_site_id
_symmetry_equiv_pos_as_xyz
1 x,y,z
2 -x,-y,-z
_cell_length_a                   12.365(4)
_cell_length_b                   17.032(5)
_cell_length_c                   24.275(8)
_cell_angle_alpha                89.682(7)
_cell_angle_beta                 89.479(5)
_cell_angle_gamma                88.829(7)
_cell_volume                     5110.98
loop_
_atom_site_label
_atom_site_type_symbol
_atom_site_fract_x
_atom_site_fract_y
_atom_site_fract_z
Cu1 Cu 0.18520(4) 0.10014(4) 0.03180(2)
Cu2 Cu 0.81480(4) 0.10285(3) -0.47105(2)
N1 N 0.5688(3) 0.1519(2) -0.36075(14)
N2 N 0.5433(4) 0.0758(3) -0.36813(18)
N3 N 0.6885(3) 0.1065(2) -0.41913(15)
N4 N 0.0471(3) 0.1549(2) -0.35540(14)
N5 N 0.0610(3) 0.0752(2) -0.35474(16)
N6 N -0.0752(3) 0.1112(2) -0.41083(14)
N7 N 0.3128(3) 0.0759(2) -0.12311(14)
N8 N 0.3918(3) 0.1238(2) -0.10426(15)
N9 N 0.2702(3) 0.0984(2) -0.03751(15)
N10 N 0.0806(3) 0.1038(2) 0.09440(15)
N11 N -0.0474(3) 0.0649(2) 0.15391(16)
N12 N -0.0429(3) 0.1450(2) 0.15226(15)
N13 N -0.5612(3) 0.1426(2) 0.13774(15)
N14 N -0.5210(4) 0.0705(3) 0.12288(19)
N15 N -0.6786(3) 0.0973(2) 0.08038(15)
N16 N -0.3277(3) 0.0687(2) 0.38054(14)
N17 N -0.4093(3) 0.1166(2) 0.39935(15)
N18 N -0.2823(3) 0.0966(2) 0.46478(14)
N19 N -0.0052(4) 0.1675(3) -0.04935(19)
N20 N 0.8046(3) -0.0894(3) -0.49225(17)
O1 O 0.1834(3) 0.2350(2) 0.03325(15)
H1 H 0.1284 0.2520 0.0184
O2 O 0.1618(3) -0.0268(2) 0.01712(15)
H2 H 0.2045 -0.0526 0.0359
O3 O 0.0044(3) 0.2353(2) -0.03289(16)
O4 O 0.0352(3) 0.1081(2) -0.02136(15)
O5 O -0.0528(4) 0.1536(2) -0.09298(17)
O6 O 0.8683(3) -0.0333(2) -0.48328(15)
O7 O 0.7068(3) -0.0821(2) -0.48153(17)
O8 O 0.8420(3) -0.1500(3) -0.5128(2)
C1 C 0.6180(4) 0.0509(3) -0.4033(2)
H3 H 0.6219 -0.0005 -0.4161
C2 C 0.6552(4) 0.1693(3) -0.39093(18)
H4 H 0.6876 0.2181 -0.3922
C3 C 0.5105(4) 0.2051(3) -0.32251(18)
H5 H 0.4927 0.2537 -0.3418
H6 H 0.5580 0.2177 -0.2924
C4 C 0.4062(4) 0.1711(3) -0.29863(18)
C5 C 0.3079(4) 0.1907(3) -0.32357(17)
C6 C 0.3059(4) 0.2294(3) -0.37997(18)
H7 H 0.3080 0.2854 -0.3759
H8 H 0.2409 0.2157 -0.3986
H9 H 0.3676 0.2117 -0.4011
C7 C 0.2112(4) 0.1722(3) -0.29572(17)
C8 C 0.2133(4) 0.1277(3) -0.24721(17)
C9 C 0.1092(4) 0.1047(3) -0.21811(18)
H10 H 0.1093 0.0489 -0.2124
H11 H 0.0484 0.1200 -0.2403
H12 H 0.1040 0.1307 -0.1832
C10 C 0.3132(4) 0.1009(3) -0.22556(17)
C11 C 0.4109(4) 0.1259(3) -0.24952(17)
C12 C 0.5198(4) 0.1052(3) -0.22524(18)
H13 H 0.5670 0.0848 -0.2536
H14 H 0.5112 0.0662 -0.1969
H15 H 0.5505 0.1514 -0.2098
C13 C 0.1048(4) 0.2071(3) -0.31694(18)
H16 H 0.0578 0.2186 -0.2857
H17 H 0.1193 0.2563 -0.3356
C14 C 0.3160(4) 0.0416(3) -0.17878(17)
H18 H 0.2549 0.0072 -0.1825
H19 H 0.3814 0.0095 -0.1824
C15 C 0.2423(4) 0.0606(3) -0.08335(18)
H20 H 0.1826 0.0287 -0.0867
C16 C 0.3627(4) 0.1355(3) -0.05206(18)
H21 H 0.4016 0.1661 -0.0279
C17 C -0.0334(4) 0.1752(3) -0.38865(18)
H22 H -0.0571 0.2264 -0.3955
C18 C -0.0143(4) 0.0520(3) -0.38874(19)
H23 H -0.0247 -0.0005 -0.3969
C19 C 0.0346(4) 0.1669(3) 0.11747(18)
H24 H 0.0537 0.2185 0.1103
C20 C 0.0282(4) 0.0433(3) 0.11859(19)
H25 H 0.0446 -0.0091 0.1108
C21 C -0.1032(4) 0.1952(3) 0.19221(18)
H26 H -0.1168 0.2463 0.1755
H27 H -0.0583 0.2029 0.2242
C22 C -0.2101(4) 0.1618(3) 0.21101(18)
C23 C -0.3032(4) 0.1807(3) 0.18035(18)
C24 C -0.2941(4) 0.2196(3) 0.12425(18)
H28 H -0.3551 0.2060 0.1023
H29 H -0.2286 0.2019 0.1063
H30 H -0.2929 0.2756 0.1286
C25 C -0.4049(4) 0.1616(3) 0.20241(18)
C26 C -0.5071(4) 0.1949(3) 0.1768(2)
H31 H -0.5579 0.2083 0.2061
H32 H -0.4896 0.2432 0.1577
C27 C -0.4139(4) 0.1170(3) 0.25107(18)
C28 C -0.5252(4) 0.0983(3) 0.2736(2)
H33 H -0.5578 0.1449 0.2891
H34 H -0.5188 0.0585 0.3015
H35 H -0.5695 0.0798 0.2443
C29 C -0.3185(4) 0.0914(3) 0.27802(17)
C30 C -0.2173(4) 0.1175(3) 0.25965(18)
C31 C -0.1159(4) 0.0956(3) 0.29213(19)
H36 H -0.0535 0.0993 0.2685
H37 H -0.1214 0.0428 0.3058
H38 H -0.1091 0.1309 0.3225
C32 C -0.6532(4) 0.1578(3) 0.11260(19)
H39 H -0.6945 0.2037 0.1166
C33 C -0.2533(4) 0.0567(3) 0.41940(18)
H40 H -0.1911 0.0255 0.4156
C34 C -0.3789(4) 0.1316(3) 0.45062(19)
H41 H -0.4195 0.1631 0.4746
O9 O 0.9367(3) 0.1164(2) -0.52695(13)
H42 H 0.9628 0.1600 -0.5234
C35 C -0.3277(4) 0.0333(3) 0.32524(17)
H43 H -0.3940 0.0046 0.3211
H44 H -0.2679 -0.0042 0.3227
C36 C -0.5943(4) 0.0461(3) 0.0877(2)
H45 H -0.5885 -0.0019 0.0697
Cu1_2 Cu -0.81480(4) 0.10014(4) 0.03180(2)
Cu2_2 Cu -0.18520(4) 0.10285(3) -0.47105(2)
Cu2_3 Cu -0.18520(4) 0.10285(3) 0.52895(2)
N6_2 N 0.9248(3) 0.1112(2) -0.41083(14)
N15_2 N 0.3214(3) 0.0973(2) 0.08038(15)
N18_2 N 0.7177(3) 0.0966(2) -0.53522(14)
Cu3 Cu 0.69166(4) 0.58220(4) 0.53299(2)
Cu4 Cu 0.31268(4) 0.59962(4) 1.02537(2)
N21 N 0.4716(3) 0.6414(2) 0.65521(14)
N22 N 0.4406(3) 0.5655(2) 0.64783(16)
N23 N 0.5883(3) 0.5924(2) 0.59669(14)
N24 N -0.0117(3) 0.5712(2) 0.61711(17)
N25 N -0.0499(3) 0.6447(2) 0.62851(14)
N26 N -0.1755(3) 0.5921(2) 0.57932(14)
N27 N 0.1647(3) 0.5820(2) 0.87563(15)
N28 N 0.0927(3) 0.6368(2) 0.89609(15)
N29 N 0.2161(3) 0.6018(2) 0.95987(14)
N30 N 1.0643(3) 0.6423(2) 0.13591(15)
N31 N 1.0394(4) 0.5665(3) 0.12646(19)
N32 N 1.1872(3) 0.5994(2) 0.07780(14)
N33 N 0.8156(3) 0.5681(2) 0.37694(14)
N34 N 0.7795(3) 0.5838(2) 0.46416(14)
N35 N 0.5405(3) 0.6481(2) 0.14476(15)
N36 N 0.5592(3) 0.5690(2) 0.14158(17)
N37 N 0.4214(3) 0.6058(2) 0.08642(14)
N38 N 0.5429(3) 0.6798(3) 0.48349(16)
N39 N 0.3030(3) 0.4085(3) 1.00360(16)
N40 N 0.8899(3) 0.6211(2) 0.39479(15)
O10 O 0.5567(3) 0.6033(2) 0.48361(13)
O11 O 0.4651(3) 0.7089(3) 0.45986(17)
O12 O 0.6113(3) 0.7193(2) 0.50862(14)
O13 O 0.3679(3) 0.4650(2) 1.00944(13)
O14 O 0.2039(3) 0.4207(2) 1.00034(15)
O15 O 0.3421(3) 0.3397(2) 1.00069(15)
O16 O 0.6624(3) 0.4545(2) 0.51611(15)
H46 H 0.7195 0.4294 0.5188
O17 O 0.4348(3) 0.6194(2) 0.97134(13)
H47 H 0.4545 0.6649 0.9743
C37 C 0.5586(4) 0.6565(3) 0.62464(18)
H48 H 0.5933 0.7044 0.6230
C38 C 0.5142(4) 0.5386(3) 0.61222(19)
H49 H 0.5151 0.4874 0.5990
C39 C 0.4131(4) 0.6939(3) 0.69474(18)
H50 H 0.4082 0.7464 0.6791
H51 H 0.4544 0.6967 0.7284
C40 C 0.3003(4) 0.6667(3) 0.70862(18)
C41 C 0.2147(4) 0.6872(3) 0.67371(18)
C42 C 0.2370(4) 0.7228(3) 0.61735(18)
H52 H 0.1923 0.6985 0.5905
H53 H 0.3118 0.7142 0.6077
H54 H 0.2211 0.7782 0.6183
C43 C 0.1074(4) 0.6729(3) 0.69099(17)
C44 C 0.0865(4) 0.6332(3) 0.74099(18)
C45 C -0.0293(4) 0.6207(3) 0.75998(19)
H55 H -0.0691 0.6697 0.7584
H56 H -0.0295 0.6013 0.7972
H57 H -0.0626 0.5833 0.7364
C46 C 0.0142(4) 0.7049(3) 0.65653(19)
H58 H -0.0339 0.7355 0.6802
H59 H 0.0431 0.7402 0.6288
C47 C 0.1750(4) 0.6046(3) 0.77258(17)
C48 C 0.2811(4) 0.6233(3) 0.75727(17)
C49 C 0.3765(4) 0.5943(3) 0.79169(19)
H60 H 0.3897 0.6313 0.8204
H61 H 0.4397 0.5892 0.7686
H62 H 0.3603 0.5442 0.8077
C50 C 0.1537(4) 0.5480(3) 0.82024(17)
H63 H 0.0810 0.5284 0.8168
H64 H 0.2035 0.5035 0.8170
C51 C 0.2362(4) 0.5613(3) 0.91378(17)
H65 H 0.2918 0.5242 0.9091
C52 C 0.1277(4) 0.6467(3) 0.94735(18)
H66 H 0.0946 0.6811 0.9722
C53 C -0.1463(4) 0.6564(3) 0.60569(19)
H67 H -0.1873 0.7027 0.6079
C54 C -0.0893(4) 0.5412(3) 0.5875(2)
H68 H -0.0860 0.4906 0.5734
C55 C 1.1511(4) 0.6604(3) 0.10716(18)
H69 H 1.1830 0.7094 0.1074
C56 C 1.0022(4) 0.6954(3) 0.1727(2)
H70 H 0.9817 0.7421 0.1519
H71 H 1.0493 0.7116 0.2021
C57 C 0.9011(4) 0.6619(3) 0.19840(18)
C58 C 0.7048(4) 0.6638(3) 0.20421(17)
C59 C 0.7096(4) 0.6199(3) 0.25274(17)
C60 C 0.6074(4) 0.5976(3) 0.28344(19)
H72 H 0.5993 0.6294 0.3158
H73 H 0.6122 0.5432 0.2940
H74 H 0.5461 0.6060 0.2600
C61 C 0.7950(4) 0.7197(3) 0.11809(18)
H75 H 0.7976 0.7757 0.1219
H76 H 0.7285 0.7060 0.1007
H77 H 0.8550 0.7016 0.0959
C62 C 0.8114(4) 0.5947(3) 0.27373(17)
C63 C 0.9079(4) 0.6193(3) 0.24766(18)
C64 C 1.0180(4) 0.6007(3) 0.2713(2)
H78 H 1.0647 0.5799 0.2429
H79 H 1.0112 0.5625 0.3003
H80 H 1.0482 0.6477 0.2857
C65 C 0.8182(4) 0.5351(3) 0.32042(17)
H81 H 0.7585 0.4994 0.3170
H82 H 0.8847 0.5044 0.3159
C66 C 0.5979(4) 0.6986(3) 0.18432(18)
H83 H 0.5511 0.7081 0.2160
H84 H 0.6112 0.7489 0.1669
C67 C 0.4591(4) 0.6690(3) 0.11188(19)
H85 H 0.4324 0.7200 0.1073
C68 C 0.4855(4) 0.5465(3) 0.10631(19)
H86 H 0.4780 0.4944 0.0959
C69 C 0.7516(4) 0.5463(3) 0.41814(18)
H87 H 0.6961 0.5105 0.4155
C70 C 0.8645(4) 0.6288(3) 0.44745(18)
H88 H 0.9010 0.6617 0.4711
C71 C 0.8009(4) 0.6810(3) 0.17503(18)
C72 C 1.1150(4) 0.5438(3) 0.0911(2)
H89 H 1.1184 0.4934 0.0765
Cu3_2 Cu -0.30834(4) 0.58220(4) 0.53299(2)
Cu4_2 Cu 1.31268(4) 0.59962(4) 0.02537(2)
Cu4_3 Cu 0.31268(4) 0.59962(4) 0.02537(2)
N26_2 N 0.8245(3) 0.5921(2) 0.57932(14)
N32_2 N 0.1872(3) 0.5994(2) 1.07780(14)
N37_2 N 0.4214(3) 0.6058(2) 1.08642(14)
N41 N -0.1256(3) 0.3016(3) 0.50909(16)
O18 O -0.1366(3) 0.3738(2) 0.51362(16)
O19 O -0.1953(3) 0.2559(2) 0.52695(13)
O20 O -0.0406(3) 0.2737(2) 0.48513(13)
N42 N 0.3637(4) 0.8040(3) 1.00916(17)
O21 O 0.3497(3) 0.8769(2) 1.01317(18)
O22 O 0.2931(3) 0.7577(2) 1.02548(15)
O23 O 0.4508(3) 0.7772(2) 0.98807(15)
O24 O 0.6989(3) 0.8084(2) 0.61214(17)
I1 I 0.19594(3) 0.82274(2) 0.260314(15)
I2 I 0.18895(3) 1.16733(2) 0.247789(15)
I3 I 0.18958(3) 0.99280(2) 0.254327(14)
I4 I 0.29643(3) 0.61421(2) 0.333621(15)
I5 I 0.30773(3) 0.37916(2) 0.157733(16)
I6 I 0.30710(3) 0.49688(2) 0.245866(15)
loop_
_geom_bond_atom_site_label_1
_geom_bond_atom_site_label_2
_geom_bond_site_symmetry_1
_geom_bond_site_symmetry_2
Cu1 N9 1_555 1_555
Cu2 N3 1_555 1_555
N1 N2 1_555 1_555
N2 C1 1_555 1_555
N3 C1 1_555 1_555
N4 N5 1_555 1_555
N5 C18 1_555 1_555
N6 C17 1_555 1_555
N7 N8 1_555 1_555
N8 C16 1_555 1_555
N9 C15 1_555 1_555
N10 Cu1 1_555 1_555
N11 N12 1_555 1_555
N12 C19 1_555 1_555
N13 N14 1_555 1_555
N14 C36 1_555 1_555
N15 C32 1_555 1_555
N16 N17 1_555 1_555
N17 C34 1_555 1_555
N18 C33 1_555 1_555
N19 O3 1_555 1_555
N20 O6 1_555 1_555
O1 Cu1 1_555 1_555
H1 O1 1_555 1_555
O2 Cu1 1_555 1_555
H2 O2 1_555 1_555
O4 Cu1 1_555 1_555
O5 N19 1_555 1_555
O6 Cu2 1_555 1_555
O7 N20 1_555 1_555
O8 N20 1_555 1_555
C1 H3 1_555 1_555
C2 N1 1_555 1_555
H4 C2 1_555 1_555
C3 N1 1_555 1_555
H5 C3 1_555 1_555
H6 C3 1_555 1_555
C4 C3 1_555 1_555
C5 C4 1_555 1_555
C6 C5 1_555 1_555
H7 C6 1_555 1_555
H8 C6 1_555 1_555
H9 C6 1_555 1_555
C7 C5 1_555 1_555
C8 C7 1_555 1_555
C9 C8 1_555 1_555
H10 C9 1_555 1_555
H11 C9 1_555 1_555
H12 C9 1_555 1_555
C10 C8 1_555 1_555
C11 C4 1_555 1_555
C12 C11 1_555 1_555
H13 C12 1_555 1_555
H14 C12 1_555 1_555
H15 C12 1_555 1_555
C13 N4 1_555 1_555
H16 C13 1_555 1_555
H17 C13 1_555 1_555
C14 N7 1_555 1_555
H18 C14 1_555 1_555
H19 C14 1_555 1_555
C15 N7 1_555 1_555
H20 C15 1_555 1_555
C16 N9 1_555 1_555
H21 C16 1_555 1_555
C17 N4 1_555 1_555
H22 C17 1_555 1_555
C18 N6 1_555 1_555
H23 C18 1_555 1_555
C19 N10 1_555 1_555
H24 C19 1_555 1_555
C20 N10 1_555 1_555
H25 C20 1_555 1_555
C21 N12 1_555 1_555
H26 C21 1_555 1_555
H27 C21 1_555 1_555
C22 C21 1_555 1_555
C23 C22 1_555 1_555
C24 C23 1_555 1_555
H28 C24 1_555 1_555
H29 C24 1_555 1_555
H30 C24 1_555 1_555
C25 C23 1_555 1_555
C26 N13 1_555 1_555
H31 C26 1_555 1_555
H32 C26 1_555 1_555
C27 C25 1_555 1_555
C28 C27 1_555 1_555
H33 C28 1_555 1_555
H34 C28 1_555 1_555
H35 C28 1_555 1_555
C29 C27 1_555 1_555
C30 C22 1_555 1_555
C31 C30 1_555 1_555
H36 C31 1_555 1_555
H37 C31 1_555 1_555
H38 C31 1_555 1_555
C32 N13 1_555 1_555
H39 C32 1_555 1_555
C33 N16 1_555 1_555
H40 C33 1_555 1_555
C34 N18 1_555 1_555
H41 C34 1_555 1_555
O9 Cu2 1_555 1_555
H42 O9 1_555 1_555
C35 N16 1_555 1_555
H43 C35 1_555 1_555
H44 C35 1_555 1_555
C36 N15 1_555 1_555
H45 C36 1_555 1_555
Cu3 N23 1_555 1_555
Cu4 N29 1_555 1_555
N21 N22 1_555 1_555
N22 C38 1_555 1_555
N23 C37 1_555 1_555
N24 N25 1_555 1_555
N25 C46 1_555 1_555
N26 C53 1_555 1_555
N27 N28 1_555 1_555
N28 C52 1_555 1_555
N29 C51 1_555 1_555
N30 N31 1_555 1_555
N31 C72 1_555 1_555
N32 C55 1_555 1_555
N33 N40 1_555 1_555
N34 Cu3 1_555 1_555
N35 N36 1_555 1_555
N36 C68 1_555 1_555
N37 C67 1_555 1_555
N38 O10 1_555 1_555
N39 O13 1_555 1_555
N40 C70 1_555 1_555
O10 Cu3 1_555 1_555
O11 N38 1_555 1_555
O12 N38 1_555 1_555
O13 Cu4 1_555 1_555
O14 N39 1_555 1_555
O15 N39 1_555 1_555
O16 Cu3 1_555 1_555
H46 O16 1_555 1_555
O17 Cu4 1_555 1_555
H47 O17 1_555 1_555
C37 N21 1_555 1_555
H48 C37 1_555 1_555
C38 N23 1_555 1_555
H49 C38 1_555 1_555
C39 N21 1_555 1_555
H50 C39 1_555 1_555
H51 C39 1_555 1_555
C40 C39 1_555 1_555
C41 C40 1_555 1_555
C42 C41 1_555 1_555
H52 C42 1_555 1_555
H53 C42 1_555 1_555
H54 C42 1_555 1_555
C43 C41 1_555 1_555
C44 C43 1_555 1_555
C45 C44 1_555 1_555
H55 C45 1_555 1_555
H56 C45 1_555 1_555
H57 C45 1_555 1_555
C46 C43 1_555 1_555
H58 C46 1_555 1_555
H59 C46 1_555 1_555
C47 C44 1_555 1_555
C48 C40 1_555 1_555
C49 C48 1_555 1_555
H60 C49 1_555 1_555
H61 C49 1_555 1_555
H62 C49 1_555 1_555
C50 N27 1_555 1_555
H63 C50 1_555 1_555
H64 C50 1_555 1_555
C51 N27 1_555 1_555
H65 C51 1_555 1_555
C52 N29 1_555 1_555
H66 C52 1_555 1_555
C53 N25 1_555 1_555
H67 C53 1_555 1_555
C54 N24 1_555 1_555
H68 C54 1_555 1_555
C55 N30 1_555 1_555
H69 C55 1_555 1_555
C56 N30 1_555 1_555
H70 C56 1_555 1_555
H71 C56 1_555 1_555
C57 C56 1_555 1_555
C58 C59 1_555 1_555
C59 C60 1_555 1_555
C60 H72 1_555 1_555
H73 C60 1_555 1_555
H74 C60 1_555 1_555
C61 H75 1_555 1_555
H76 C61 1_555 1_555
H77 C61 1_555 1_555
C62 C59 1_555 1_555
C63 C57 1_555 1_555
C64 C63 1_555 1_555
H78 C64 1_555 1_555
H79 C64 1_555 1_555
H80 C64 1_555 1_555
C65 N33 1_555 1_555
H81 C65 1_555 1_555
H82 C65 1_555 1_555
C66 N35 1_555 1_555
H83 C66 1_555 1_555
H84 C66 1_555 1_555
C67 N35 1_555 1_555
H85 C67 1_555 1_555
C68 N37 1_555 1_555
H86 C68 1_555 1_555
C69 N33 1_555 1_555
H87 C69 1_555 1_555
C70 N34 1_555 1_555
H88 C70 1_555 1_555
C71 C57 1_555 1_555
C72 N32 1_555 1_555
H89 C72 1_555 1_555
N41 O18 1_555 1_555
O19 N41 1_555 1_555
O20 N41 1_555 1_555
N42 O21 1_555 1_555
O22 N42 1_555 1_555
O23 N42 1_555 1_555
I1 I3 1_555 1_555
I2 I3 1_555 1_555
I4 I6 1_555 1_555
I5 I6 1_555 1_555
Cu1_2 N15 1_555 1_555
Cu2_2 N6 1_555 1_555
Cu2_3 N18 1_555 1_555
N6_2 Cu2 1_555 1_555
N15_2 Cu1 1_555 1_555
N18_2 Cu2 1_555 1_555
Cu3_2 N26 1_555 1_555
Cu4_2 N32 1_555 1_555
Cu4_3 N37 1_555 1_555
N26_2 Cu3 1_555 1_555
N32_2 Cu4 1_555 1_555
N37_2 Cu4 1_555 1_555
N3 C2 1_555 1_555
N11 C20 1_555 1_555
N19 O4 1_555 1_555
C7 C13 1_555 1_555
C10 C11 1_555 1_555
C10 C14 1_555 1_555
C25 C26 1_555 1_555
C29 C30 1_555 1_555
C29 C35 1_555 1_555
N26 C54 1_555 1_555
N34 C69 1_555 1_555
C47 C48 1_555 1_555
C47 C50 1_555 1_555
C58 C66 1_555 1_555
C58 C71 1_555 1_555
C61 C71 1_555 1_555
C62 C63 1_555 1_555
C62 C65 1_555 1_555

#END
