
#######################################################################
#
#                 Cambridge Crystallographic Data Centre
#                                CCDC 
#
#######################################################################
#
# If this CIF has been generated from an entry in the Cambridge 
# Structural Database, then it will include bibliographic, chemical, 
# crystal, experimental, refinement or atomic coordinate data resulting 
# from the CCDC's data processing and validation procedures.
#
#######################################################################

data_VAXTIY
_symmetry_cell_setting           monoclinic
_symmetry_space_group_name_H-M   'P 21/c'
_symmetry_Int_Tables_number      14
_space_group_name_Hall           '-P 2ybc'
loop_
_symmetry_equiv_pos_site_id
_symmetry_equiv_pos_as_xyz
1 x,y,z
2 -x,1/2+y,1/2-z
3 -x,-y,-z
4 x,1/2-y,1/2+z
_cell_length_a                   7.9514(6)
_cell_length_b                   12.1163(9)
_cell_length_c                   12.4823(9)
_cell_angle_alpha                90
_cell_angle_beta                 107.0770(10)
_cell_angle_gamma                90
_cell_volume                     1149.54
loop_
_atom_site_label
_atom_site_type_symbol
_atom_site_fract_x
_atom_site_fract_y
_atom_site_fract_z
Ag1 Ag -0.05810(5) 0.19116(3) 0.04495(3)
N1 N 0.1077(4) 0.3358(3) 0.0467(3)
N2 N 0.1924(4) 0.5345(3) 0.4557(3)
C1 C 0.1028(6) 0.3849(4) -0.0497(3)
H1 H 0.0293 0.3554 -0.1157
C2 C 0.2008(6) 0.4769(4) -0.0571(4)
H2 H 0.1950 0.5076 -0.1263
C3 C 0.3065(6) 0.5221(4) 0.0396(4)
H3 H 0.3730 0.5847 0.0372
C4 C 0.3132(6) 0.4734(4) 0.1411(4)
H4 H 0.3833 0.5035 0.2078
C5 C 0.2150(5) 0.3799(3) 0.1421(3)
C6 C 0.2302(6) 0.3177(3) 0.2488(4)
C7 C 0.1829(5) 0.4812(3) 0.3599(3)
H5 H 0.1180 0.5132 0.2928
C8 C 0.2643(5) 0.3814(3) 0.3556(3)
C9 C 0.3660(5) 0.3359(3) 0.4560(3)
H6 H 0.4248 0.2695 0.4563
C10 C 0.3785(5) 0.3902(4) 0.5547(3)
H7 H 0.4461 0.3613 0.6227
C11 C 0.2890(5) 0.4881(4) 0.5508(3)
H8 H 0.2961 0.5237 0.6181
O1 O 0.2164(5) 0.2184(3) 0.2482(3)
Ag1A Ag 0.05810(5) 0.69116(3) 0.45505(3)
N2A N -0.1924(4) 0.0345(3) 0.0443(3)
N3 N -0.2619(5) 0.2865(3) 0.2514(3)
O2 O -0.285(2) 0.2544(17) 0.1606(13)
O3 O -0.372(2) 0.2635(17) 0.3011(15)
O4 O -0.1381(19) 0.3480(11) 0.2958(11)
O5? O -0.325(2) 0.2915(13) 0.1521(10)
O6? O -0.313(3) 0.2405(18) 0.3239(19)
O7? O -0.119(3) 0.322(2) 0.2814(19)
loop_
_geom_bond_atom_site_label_1
_geom_bond_atom_site_label_2
_geom_bond_site_symmetry_1
_geom_bond_site_symmetry_2
Ag1 N1 1_555 1_555
N1 C1 1_555 1_555
N2 C7 1_555 1_555
C1 H1 1_555 1_555
C2 C1 1_555 1_555
H2 C2 1_555 1_555
C3 C2 1_555 1_555
H3 C3 1_555 1_555
C4 C3 1_555 1_555
H4 C4 1_555 1_555
C5 N1 1_555 1_555
C6 C5 1_555 1_555
C7 H5 1_555 1_555
C8 C6 1_555 1_555
C9 C8 1_555 1_555
H6 C9 1_555 1_555
C10 C9 1_555 1_555
H7 C10 1_555 1_555
C11 N2 1_555 1_555
H8 C11 1_555 1_555
O1 C6 1_555 1_555
N3 O2 1_555 1_555
O3 N3 1_555 1_555
O4 N3 1_555 1_555
Ag1A N2 1_555 1_555
N2A Ag1 1_555 1_555
C4 C5 1_555 1_555
C7 C8 1_555 1_555
C10 C11 1_555 1_555

#END
