
#######################################################################
#
#                 Cambridge Crystallographic Data Centre
#                                CCDC 
#
#######################################################################
#
# If this CIF has been generated from an entry in the Cambridge 
# Structural Database, then it will include bibliographic, chemical, 
# crystal, experimental, refinement or atomic coordinate data resulting 
# from the CCDC's data processing and validation procedures.
#
#######################################################################

data_VAYDOQ
_symmetry_cell_setting           orthorhombic
_symmetry_space_group_name_H-M   'P n m a'
_symmetry_Int_Tables_number      62
_space_group_name_Hall           '-P 2ac 2n'
loop_
_symmetry_equiv_pos_site_id
_symmetry_equiv_pos_as_xyz
1 x,y,z
2 1/2-x,-y,1/2+z
3 1/2+x,1/2-y,1/2-z
4 -x,1/2+y,-z
5 -x,-y,-z
6 1/2+x,y,1/2-z
7 1/2-x,1/2+y,1/2+z
8 x,1/2-y,z
_cell_length_a                   13.552(3)
_cell_length_b                   15.623(3)
_cell_length_c                   7.5203(15)
_cell_angle_alpha                90
_cell_angle_beta                 90
_cell_angle_gamma                90
_cell_volume                     1592.22
loop_
_atom_site_label
_atom_site_type_symbol
_atom_site_fract_x
_atom_site_fract_y
_atom_site_fract_z
Li1 Li 0.3245(2) -0.08893(19) -0.4779(4)
Li2 Li 0.4818(3) 0.0171(2) -0.3372(5)
S1 S 0.32970(3) 0.07763(2) -0.66800(5)
O1 O 0.31830(10) 0.03564(8) -0.49572(17)
O2 O 0.25795(11) -0.15664(9) -0.66821(19)
H1 H 0.2055 -0.1309 -0.6780
H2 H 0.2882 -0.1529 -0.7623
O3 O 0.23446(9) 0.10070(8) -0.74536(18)
O4 O 0.42831(11) 0.07818(10) -0.1337(2)
H3 H 0.4136 0.0646 -0.0318
H4 H 0.4781 0.0517 -0.1622
O5 O 0.38948(9) 0.02440(7) -0.78709(17)
O7 O 0.53376(8) 0.09667(7) -0.52835(17)
C1 C 0.34511(17) 0.2500 -0.6657(3)
H7 H 0.2815 0.2500 -0.7120
C2 C 0.39201(11) 0.17312(9) -0.6313(2)
C3 C 0.48969(12) 0.17076(10) -0.5619(2)
C4 C 0.53560(17) 0.2500 -0.5303(4)
H8 H 0.5997 0.2500 -0.4862
Li1G Li 0.3245(2) 0.58893(19) -0.4779(4)
Li1A Li 0.1755(2) 0.08893(19) -0.9779(4)
Li1D Li 0.6755(2) 0.08893(19) -0.5221(4)
Li1F Li 0.1755(2) 0.41107(19) -0.9779(4)
Li1C Li 0.6755(2) 0.41107(19) -0.5221(4)
Li2G Li 0.4818(3) 0.4829(2) -0.3372(5)
Li2D Li 0.5182(3) -0.0171(2) -0.6628(5)
Li2C Li 0.5182(3) 0.5171(2) -0.6628(5)
S1G S 0.32970(3) 0.42237(2) -0.66800(5)
O1G O 0.31830(10) 0.46436(8) -0.49572(17)
O2G O 0.25795(11) 0.65664(9) -0.66821(19)
H1G H 0.2055 0.6309 -0.6780
H2G H 0.2882 0.6529 -0.7623
O3G O 0.23446(9) 0.39930(8) -0.74536(18)
O3A O 0.26554(9) -0.10070(8) -0.24536(18)
O3F O 0.26554(9) 0.60070(8) -0.24536(18)
O4G O 0.42831(11) 0.42182(10) -0.1337(2)
H3G H 0.4136 0.4354 -0.0318
H4G H 0.4781 0.4483 -0.1622
O5G O 0.38948(9) 0.47560(7) -0.78709(17)
O5D O 0.61052(9) -0.02440(7) -0.21291(17)
O5C O 0.61052(9) 0.52440(7) -0.21291(17)
O7G O 0.53376(8) 0.40333(7) -0.52835(17)
O7D O 0.46624(8) -0.09667(7) -0.47165(17)
O7C O 0.46624(8) 0.59667(7) -0.47165(17)
C2G C 0.39201(11) 0.32688(9) -0.6313(2)
C3G C 0.48969(12) 0.32924(10) -0.5619(2)
O6 O 0.39170(12) -0.16272(10) 0.0376(2)
H5 H 0.3608 -0.1406 -0.0441
H6 H 0.4417 -0.1345 0.0557
loop_
_geom_bond_atom_site_label_1
_geom_bond_atom_site_label_2
_geom_bond_site_symmetry_1
_geom_bond_site_symmetry_2
Li1 O1 1_555 1_555
Li2 O1 1_555 1_555
S1 O1 1_555 1_555
O2 Li1 1_555 1_555
H1 O2 1_555 1_555
H2 O2 1_555 1_555
O3 S1 1_555 1_555
O4 Li2 1_555 1_555
H3 O4 1_555 1_555
H4 O4 1_555 1_555
O5 S1 1_555 1_555
O6 H5 1_555 1_555
H6 O6 1_555 1_555
O7 Li2 1_555 1_555
C1 H7 1_555 1_555
C2 S1 1_555 1_555
C3 O7 1_555 1_555
C4 C3 1_555 1_555
H8 C4 1_555 1_555
Li1G O1G 1_555 1_555
Li1A O3 1_555 1_555
Li1D O7 1_555 1_555
Li1F O3G 1_555 1_555
Li1C O7G 1_555 1_555
Li2G O1G 1_555 1_555
Li2D O5 1_555 1_555
Li2C O5G 1_555 1_555
S1G O1G 1_555 1_555
O2G Li1G 1_555 1_555
H1G O2G 1_555 1_555
H2G O2G 1_555 1_555
O3G S1G 1_555 1_555
O3A Li1 1_555 1_555
O3F Li1G 1_555 1_555
O4G Li2G 1_555 1_555
H3G O4G 1_555 1_555
H4G O4G 1_555 1_555
O5G S1G 1_555 1_555
O5D Li2 1_555 1_555
O5C Li2G 1_555 1_555
O7G Li2G 1_555 1_555
O7D Li1 1_555 1_555
O7C Li1G 1_555 1_555
C2G C1 1_555 1_555
C3G C4 1_555 1_555
Li2 O7D 1_555 1_555
O7 Li2D 1_555 1_555
C1 C2 1_555 1_555
C2 C3 1_555 1_555
Li2G O7C 1_555 1_555
Li2D O7D 1_555 1_555
Li2C O7G 1_555 1_555
Li2C O7C 1_555 1_555
S1G C2G 1_555 1_555
O7G C3G 1_555 1_555
C2G C3G 1_555 1_555

#END
