
#######################################################################
#
#                 Cambridge Crystallographic Data Centre
#                                CCDC 
#
#######################################################################
#
# If this CIF has been generated from an entry in the Cambridge 
# Structural Database, then it will include bibliographic, chemical, 
# crystal, experimental, refinement or atomic coordinate data resulting 
# from the CCDC's data processing and validation procedures.
#
#######################################################################

data_VAYGUZ
_symmetry_cell_setting           monoclinic
_symmetry_space_group_name_H-M   'P 21'
_symmetry_Int_Tables_number      4
_space_group_name_Hall           'P 2yb'
loop_
_symmetry_equiv_pos_site_id
_symmetry_equiv_pos_as_xyz
1 x,y,z
2 -x,1/2+y,-z
_cell_length_a                   11.6305(17)
_cell_length_b                   14.158(2)
_cell_length_c                   12.0363(17)
_cell_angle_alpha                90
_cell_angle_beta                 94.730(3)
_cell_angle_gamma                90
_cell_volume                     1975.2
loop_
_atom_site_label
_atom_site_type_symbol
_atom_site_fract_x
_atom_site_fract_y
_atom_site_fract_z
C1 C -0.6528(4) -0.3751(4) -0.3703(4)
C2 C -0.7807(4) -0.3952(3) -0.3708(4)
C3 C -0.8373(4) -0.3681(4) -0.2788(4)
C4 C -0.7842(4) -0.3117(4) -0.1815(4)
C5 C -0.9506(5) -0.3969(4) -0.2787(6)
C6 C -1.0091(6) -0.4489(5) -0.3631(8)
H1 H -1.0853 -0.4672 -0.3584
C7 C -0.9511(6) -0.4722(5) -0.4532(6)
H2 H -0.9888 -0.5052 -0.5123
C8 C -0.8373(5) -0.4471(4) -0.4571(5)
H3 H -0.7978 -0.4650 -0.5178
C9 C -0.2976(5) -0.3320(4) -0.4849(5)
H4 H -0.2673 -0.3912 -0.4664
C10 C -0.2522(6) -0.2814(5) -0.5695(5)
H5 H -0.1930 -0.3075 -0.6069
C11 C -0.2927(5) -0.1945(4) -0.5987(5)
C12 C -0.3825(6) -0.1606(4) -0.5412(5)
H6 H -0.4149 -0.1020 -0.5595
C13 C -0.4240(5) -0.2132(4) -0.4576(5)
H7 H -0.4832 -0.1882 -0.4192
C14 C -0.2430(6) -0.1393(5) -0.6911(4)
H8 H -0.2726 -0.0752 -0.6915
H9 H -0.1598 -0.1364 -0.6771
C15 C -0.2726(7) -0.1826(5) -0.7996(5)
H10 H -0.3560 -0.1848 -0.8127
H11 H -0.2447 -0.2472 -0.7974
C16 C -0.2233(5) -0.1314(5) -0.8991(4)
H12 H -0.2469 -0.0657 -0.9006
H13 H -0.1397 -0.1337 -0.8913
C17 C -0.2672(5) -0.1786(4) -1.0033(4)
C18 C -0.2081(5) -0.2500(4) -1.0522(5)
H14 H -0.1327 -0.2640 -1.0254
C19 C -0.2595(5) -0.3005(4) -1.1403(5)
H15 H -0.2173 -0.3479 -1.1715
C20 C -0.4259(5) -0.2153(4) -1.1393(5)
H16 H -0.5006 -0.2027 -1.1693
C21 C -0.3796(5) -0.1620(4) -1.0517(5)
H17 H -0.4233 -0.1139 -1.0237
C22 C -0.3333(4) -0.5589(3) -0.2751(4)
C23 C -0.2406(4) -0.6192(3) -0.3192(4)
C24 C -0.2433(4) -0.6357(4) -0.4319(4)
C25 C -0.1655(6) -0.6917(4) -0.4808(5)
H18 H -0.1715 -0.7019 -0.5574
C26 C -0.0793(5) -0.7318(5) -0.4137(5)
H19 H -0.0248 -0.7691 -0.4452
C27 C -0.0709(5) -0.7181(4) -0.2993(5)
H20 H -0.0128 -0.7479 -0.2546
C28 C -0.1498(4) -0.6595(3) -0.2511(4)
C29 C -0.1420(4) -0.6435(4) -0.1289(4)
C30 C -0.6560(5) 0.0339(4) -0.0745(5)
H21 H -0.6747 0.0413 -0.0014
C31 C -0.5751(5) 0.0942(4) -0.1144(5)
H22 H -0.5388 0.1394 -0.0676
C32 C -0.5486(4) 0.0870(4) -0.2236(5)
C33 C -0.6027(5) 0.0175(4) -0.2872(5)
H23 H -0.5876 0.0104 -0.3614
C34 C -0.6794(5) -0.0421(4) -0.2411(5)
H24 H -0.7128 -0.0902 -0.2854
C35 C -0.4600(5) 0.1488(4) -0.2709(6)
H25 H -0.4762 0.2143 -0.2541
H26 H -0.4658 0.1419 -0.3513
C36 C -0.3362(5) 0.1249(5) -0.2244(7)
H27 H -0.2828 0.1690 -0.2542
H28 H -0.3300 0.1315 -0.1439
C37 C -0.3052(6) 0.0285(5) -0.2539(6)
H29 H -0.3136 0.0229 -0.3344
H30 H -0.3603 -0.0143 -0.2245
C38 C -0.1826(6) -0.0046(5) -0.2124(5)
C39 C -0.1190(6) 0.0393(5) -0.1281(6)
H31 H -0.1485 0.0930 -0.0961
C40 C -0.0076(6) 0.0052(5) -0.0869(6)
H32 H 0.0352 0.0372 -0.0300
C41 C -0.0285(5) -0.1119(5) -0.2164(5)
H33 H 0.0025 -0.1638 -0.2506
C42 C -0.1354(6) -0.0810(5) -0.2573(6)
H34 H -0.1753 -0.1128 -0.3161
F1 F -1.0071(3) -0.3742(4) -0.1883(4)
F2 F -0.3314(4) -0.5983(3) -0.4978(3)
N1 N -0.3833(4) -0.2986(3) -0.4290(3)
N2 N -0.3664(4) -0.2846(3) -1.1825(3)
N3 N -0.7085(4) -0.0346(3) -0.1363(4)
N4 N 0.0341(4) -0.0725(3) -0.1307(4)
Ni1 Ni -0.45080(5) -0.37075(4) -0.30066(5)
Ni2 Ni -0.81094(5) -0.12990(4) -0.06359(5)
O1 O -0.5875(3) -0.4343(3) -0.4103(4)
O2 O -0.6141(3) -0.3025(2) -0.3195(3)
O3 O -0.8166(3) -0.2261(2) -0.1852(3)
O4 O -0.7213(3) -0.3515(2) -0.1073(3)
O5 O -0.5185(3) -0.4404(3) -0.1662(4)
H35 H -0.568(5) -0.423(4) -0.125(5)
H36 H -0.517(5) -0.4993(16) -0.175(5)
O6 O -0.3297(3) -0.4719(2) -0.3041(3)
O7 O -0.4059(3) -0.5967(2) -0.2194(3)
O8 O -0.1049(3) -0.7080(3) -0.0632(3)
O9 O -0.1793(3) -0.5665(3) -0.0933(3)
O10 O -0.6541(3) -0.1900(3) 0.0056(3)
H37 H -0.664(6) -0.2484(17) -0.003(5)
H38 H -0.634(6) -0.172(4) 0.069(3)
N2_2 N -0.3664(4) -0.2846(3) -0.1825(3)
N4_2 N -0.9659(4) -0.0725(3) -0.1307(4)
Ni1_2 Ni -0.45080(5) -0.37075(4) -1.30066(5)
Ni2_2 Ni 0.18906(5) -0.12990(4) -0.06359(5)
Ni2A Ni -0.18906(5) -0.62990(4) 0.06359(5)
O8A O -0.8951(3) -0.2080(3) 0.0632(3)
O9A O -0.8207(3) -0.0665(3) 0.0933(3)
loop_
_geom_bond_atom_site_label_1
_geom_bond_atom_site_label_2
_geom_bond_site_symmetry_1
_geom_bond_site_symmetry_2
C1 C2 1_555 1_555
C2 C3 1_555 1_555
C3 C4 1_555 1_555
C4 O3 1_555 1_555
C5 C3 1_555 1_555
C6 C5 1_555 1_555
H1 C6 1_555 1_555
C7 C6 1_555 1_555
H2 C7 1_555 1_555
C8 C2 1_555 1_555
H3 C8 1_555 1_555
C9 H4 1_555 1_555
C10 C9 1_555 1_555
H5 C10 1_555 1_555
C11 C10 1_555 1_555
C12 C11 1_555 1_555
H6 C12 1_555 1_555
C13 C12 1_555 1_555
H7 C13 1_555 1_555
C14 C11 1_555 1_555
H8 C14 1_555 1_555
H9 C14 1_555 1_555
C15 C14 1_555 1_555
H10 C15 1_555 1_555
H11 C15 1_555 1_555
C16 C15 1_555 1_555
H12 C16 1_555 1_555
H13 C16 1_555 1_555
C17 C16 1_555 1_555
C18 C17 1_555 1_555
H14 C18 1_555 1_555
C19 C18 1_555 1_555
H15 C19 1_555 1_555
C20 H16 1_555 1_555
C21 C17 1_555 1_555
H17 C21 1_555 1_555
C22 C23 1_555 1_555
C23 C24 1_555 1_555
C24 C25 1_555 1_555
C25 H18 1_555 1_555
C26 C25 1_555 1_555
H19 C26 1_555 1_555
C27 C26 1_555 1_555
H20 C27 1_555 1_555
C28 C23 1_555 1_555
C29 C28 1_555 1_555
C30 H21 1_555 1_555
C31 C30 1_555 1_555
H22 C31 1_555 1_555
C32 C31 1_555 1_555
C33 C32 1_555 1_555
H23 C33 1_555 1_555
C34 C33 1_555 1_555
H24 C34 1_555 1_555
C35 C32 1_555 1_555
H25 C35 1_555 1_555
H26 C35 1_555 1_555
C36 C35 1_555 1_555
H27 C36 1_555 1_555
H28 C36 1_555 1_555
C37 C36 1_555 1_555
H29 C37 1_555 1_555
H30 C37 1_555 1_555
C38 C37 1_555 1_555
C39 C38 1_555 1_555
H31 C39 1_555 1_555
C40 C39 1_555 1_555
H32 C40 1_555 1_555
C41 H33 1_555 1_555
C42 C38 1_555 1_555
H34 C42 1_555 1_555
F1 C5 1_555 1_555
F2 C24 1_555 1_555
N1 C9 1_555 1_555
N2 C19 1_555 1_555
N3 C30 1_555 1_555
N4 C40 1_555 1_555
Ni1 N1 1_555 1_555
Ni2 N3 1_555 1_555
O1 C1 1_555 1_555
O2 C1 1_555 1_555
O3 Ni2 1_555 1_555
O4 C4 1_555 1_555
O5 Ni1 1_555 1_555
H35 O5 1_555 1_555
H36 O5 1_555 1_555
O6 C22 1_555 1_555
O7 C22 1_555 1_555
O8 C29 1_555 1_555
O9 C29 1_555 1_555
O10 Ni2 1_555 1_555
H37 O10 1_555 1_555
H38 O10 1_555 1_555
N2_2 Ni1 1_555 1_555
N4_2 Ni2 1_555 1_555
Ni1_2 N2 1_555 1_555
Ni2_2 N4 1_555 1_555
Ni2A O8 1_555 1_555
O8A Ni2 1_555 1_555
O9A Ni2 1_555 1_555
C7 C8 1_555 1_555
C13 N1 1_555 1_555
C20 C21 1_555 1_555
C20 N2 1_555 1_555
C27 C28 1_555 1_555
C34 N3 1_555 1_555
C41 C42 1_555 1_555
C41 N4 1_555 1_555
Ni1 O1 1_555 1_555
Ni1 O2 1_555 1_555
Ni1 O6 1_555 1_555
O9 Ni2A 1_555 1_555

#END
