
#######################################################################
#
#                 Cambridge Crystallographic Data Centre
#                                CCDC 
#
#######################################################################
#
# If this CIF has been generated from an entry in the Cambridge 
# Structural Database, then it will include bibliographic, chemical, 
# crystal, experimental, refinement or atomic coordinate data resulting 
# from the CCDC's data processing and validation procedures.
#
#######################################################################

data_VAZFAE
_symmetry_cell_setting           monoclinic
_symmetry_space_group_name_H-M   'P 21/c'
_symmetry_Int_Tables_number      14
_space_group_name_Hall           '-P 2ybc'
loop_
_symmetry_equiv_pos_site_id
_symmetry_equiv_pos_as_xyz
1 x,y,z
2 -x,1/2+y,1/2-z
3 -x,-y,-z
4 x,1/2-y,1/2+z
_cell_length_a                   8.7183(9)
_cell_length_b                   14.0994(16)
_cell_length_c                   16.9212(18)
_cell_angle_alpha                90
_cell_angle_beta                 100.900(2)
_cell_angle_gamma                90
_cell_volume                     2042.48
loop_
_atom_site_label
_atom_site_type_symbol
_atom_site_fract_x
_atom_site_fract_y
_atom_site_fract_z
Cu1 Cu 0.05618(7) 0.23162(5) 0.39480(4)
Cu2 Cu 0.0000 0.5000 0.5000
S1 S -0.74951(14) 0.38202(10) 0.26916(8)
N1 N 0.2690(4) 0.2542(3) 0.4625(2)
N2 N 0.1603(4) 0.1135(3) 0.3658(2)
O1 O -0.0351(4) 0.3400(2) 0.43758(19)
O2 O -0.2017(4) 0.4537(3) 0.4441(2)
O3 O -0.1350(4) 0.1954(2) 0.3295(2)
O4 O -0.8646(4) 0.3142(3) 0.2854(2)
O5 O -0.7732(4) 0.4050(3) 0.1855(2)
O6 O -0.7399(4) 0.4640(3) 0.3208(3)
O7 O 0.0451(5) 0.5416(3) 0.3964(2)
C1 C 0.3231(6) 0.3265(4) 0.5103(3)
H1 H 0.2542 0.3743 0.5184
C2 C 0.4799(6) 0.3335(5) 0.5488(3)
H2 H 0.5140 0.3854 0.5813
C3 C 0.5823(6) 0.2633(5) 0.5382(3)
H3 H 0.6860 0.2666 0.5645
C4 C 0.5309(6) 0.1860(4) 0.4875(3)
C5 C 0.6277(6) 0.1107(5) 0.4681(3)
H4 H 0.7335 0.1110 0.4908
C6 C 0.5709(6) 0.0400(4) 0.4184(3)
H5 H 0.6376 -0.0077 0.4075
C7 C 0.4113(6) 0.0368(4) 0.3824(3)
C8 C 0.3428(7) -0.0359(4) 0.3300(3)
H6 H 0.4033 -0.0861 0.3177
C9 C 0.1883(7) -0.0320(4) 0.2979(3)
H7 H 0.1422 -0.0797 0.2635
C10 C 0.0977(6) 0.0444(4) 0.3169(3)
H8 H -0.0083 0.0464 0.2947
C11 C 0.3731(5) 0.1847(4) 0.4509(3)
C12 C 0.3135(6) 0.1102(4) 0.3979(3)
C13 C -0.1710(5) 0.3740(4) 0.4159(3)
C14 C -0.2945(5) 0.3253(3) 0.3597(3)
C15 C -0.2677(5) 0.2395(3) 0.3208(3)
C16 C -0.3978(6) 0.1985(4) 0.2681(3)
H9 H -0.3843 0.1418 0.2422
C17 C -0.5422(6) 0.2405(4) 0.2546(3)
H10 H -0.6247 0.2118 0.2200
C18 C -0.5667(5) 0.3262(4) 0.2922(3)
C19 C -0.4436(5) 0.3667(3) 0.3436(3)
H11 H -0.4594 0.4237 0.3686
H12 H 0.120(5) 0.515(3) 0.380(3)
H13 H 0.035(6) 0.5985(13) 0.3814(18)
Cu1B Cu -0.05618(7) 0.76838(5) 0.60520(4)
Cu1_2 Cu -0.94382(7) 0.23162(5) 0.39480(4)
Cu1B_2 Cu 0.94382(7) 0.76838(5) 0.60520(4)
S1B S 0.74951(14) 0.61798(10) 0.73084(8)
N1B N -0.2690(4) 0.7458(3) 0.5375(2)
N2B N -0.1603(4) 0.8865(3) 0.6342(2)
O1B O 0.0351(4) 0.6600(2) 0.56242(19)
O2B O 0.2017(4) 0.5463(3) 0.5559(2)
O3B O 0.1350(4) 0.8046(2) 0.6705(2)
O4B O 0.8646(4) 0.6858(3) 0.7146(2)
O4_2 O 0.1354(4) 0.3142(3) 0.2854(2)
O4B_2 O -0.1354(4) 0.6858(3) 0.7146(2)
O5B O 0.7732(4) 0.5950(3) 0.8145(2)
O6B O 0.7399(4) 0.5360(3) 0.6792(3)
O7B O -0.0451(5) 0.4584(3) 0.6036(2)
C1B C -0.3231(6) 0.6735(4) 0.4897(3)
H1B H -0.2542 0.6257 0.4816
C2B C -0.4799(6) 0.6665(5) 0.4512(3)
H2B H -0.5140 0.6146 0.4187
C3B C -0.5823(6) 0.7367(5) 0.4618(3)
H3B H -0.6860 0.7334 0.4355
C4B C -0.5309(6) 0.8140(4) 0.5125(3)
C5B C -0.6277(6) 0.8893(5) 0.5319(3)
H4B H -0.7335 0.8890 0.5092
C6B C -0.5709(6) 0.9600(4) 0.5816(3)
H5B H -0.6376 1.0077 0.5925
C7B C -0.4113(6) 0.9632(4) 0.6176(3)
C8B C -0.3428(7) 1.0359(4) 0.6700(3)
H6B H -0.4033 1.0861 0.6823
C9B C -0.1883(7) 1.0320(4) 0.7021(3)
H7B H -0.1422 1.0797 0.7365
C10B C -0.0977(6) 0.9556(4) 0.6831(3)
H8B H 0.0083 0.9536 0.7053
C11B C -0.3731(5) 0.8153(4) 0.5491(3)
C12B C -0.3135(6) 0.8898(4) 0.6021(3)
C13B C 0.1710(5) 0.6260(4) 0.5841(3)
C14B C 0.2945(5) 0.6747(3) 0.6403(3)
C15B C 0.2677(5) 0.7605(3) 0.6792(3)
C16B C 0.3978(6) 0.8015(4) 0.7319(3)
H9B H 0.3843 0.8582 0.7578
C17B C 0.5422(6) 0.7595(4) 0.7454(3)
H10B H 0.6247 0.7882 0.7800
C18B C 0.5667(5) 0.6738(4) 0.7078(3)
C19B C 0.4436(5) 0.6333(3) 0.6564(3)
H11B H 0.4594 0.5763 0.6314
H12B H -0.120(5) 0.485(3) 0.620(3)
H13B H -0.035(6) 0.4015(13) 0.6186(18)
O9 O 0.063(2) 0.7136(15) 0.3335(17)
O11 O -0.9649(16) 0.384(2) 0.0377(8)
O8? O 0.025(3) 0.7313(12) 0.3638(19)
O10? O -0.962(2) 0.433(3) 0.0341(12)
loop_
_geom_bond_atom_site_label_1
_geom_bond_atom_site_label_2
_geom_bond_site_symmetry_1
_geom_bond_site_symmetry_2
Cu1 N1 1_555 1_555
Cu2 O1 1_555 1_555
S1 O4 1_555 1_555
N1 C1 1_555 1_555
N2 Cu1 1_555 1_555
O1 Cu1 1_555 1_555
O2 Cu2 1_555 1_555
O3 Cu1 1_555 1_555
O4 Cu1_2 1_555 1_555
O5 S1 1_555 1_555
O6 S1 1_555 1_555
O7 Cu2 1_555 1_555
C1 H1 1_555 1_555
C2 C1 1_555 1_555
H2 C2 1_555 1_555
C3 C2 1_555 1_555
H3 C3 1_555 1_555
C4 C3 1_555 1_555
C5 C4 1_555 1_555
H4 C5 1_555 1_555
C6 C5 1_555 1_555
H5 C6 1_555 1_555
C7 C6 1_555 1_555
C8 C7 1_555 1_555
H6 C8 1_555 1_555
C9 C8 1_555 1_555
H7 C9 1_555 1_555
C10 N2 1_555 1_555
H8 C10 1_555 1_555
C11 N1 1_555 1_555
C12 N2 1_555 1_555
C13 O1 1_555 1_555
C14 C13 1_555 1_555
C15 O3 1_555 1_555
C16 C15 1_555 1_555
H9 C16 1_555 1_555
C17 C16 1_555 1_555
H10 C17 1_555 1_555
C18 S1 1_555 1_555
C19 C14 1_555 1_555
H11 C19 1_555 1_555
H12 O7 1_555 1_555
H13 O7 1_555 1_555
Cu1B N1B 1_555 1_555
Cu1B_2 O4B 1_555 1_555
S1B O4B 1_555 1_555
N1B C1B 1_555 1_555
N2B Cu1B 1_555 1_555
O1B Cu2 1_555 1_555
O2B Cu2 1_555 1_555
O3B Cu1B 1_555 1_555
O4_2 Cu1 1_555 1_555
O4B_2 Cu1B 1_555 1_555
O5B S1B 1_555 1_555
O6B S1B 1_555 1_555
O7B Cu2 1_555 1_555
C1B H1B 1_555 1_555
C2B C1B 1_555 1_555
H2B C2B 1_555 1_555
C3B C2B 1_555 1_555
H3B C3B 1_555 1_555
C4B C3B 1_555 1_555
C5B C4B 1_555 1_555
H4B C5B 1_555 1_555
C6B C5B 1_555 1_555
H5B C6B 1_555 1_555
C7B C6B 1_555 1_555
C8B C7B 1_555 1_555
H6B C8B 1_555 1_555
C9B C8B 1_555 1_555
H7B C9B 1_555 1_555
C10B N2B 1_555 1_555
H8B C10B 1_555 1_555
C11B N1B 1_555 1_555
C12B N2B 1_555 1_555
C13B O1B 1_555 1_555
C14B C13B 1_555 1_555
C15B O3B 1_555 1_555
C16B C15B 1_555 1_555
H9B C16B 1_555 1_555
C17B C16B 1_555 1_555
H10B C17B 1_555 1_555
C18B S1B 1_555 1_555
C19B C14B 1_555 1_555
H11B C19B 1_555 1_555
H12B O7B 1_555 1_555
H13B O7B 1_555 1_555
O2 C13 1_555 1_555
C4 C11 1_555 1_555
C7 C12 1_555 1_555
C9 C10 1_555 1_555
C11 C12 1_555 1_555
C14 C15 1_555 1_555
C17 C18 1_555 1_555
C18 C19 1_555 1_555
Cu1B O1B 1_555 1_555
O2B C13B 1_555 1_555
C4B C11B 1_555 1_555
C7B C12B 1_555 1_555
C9B C10B 1_555 1_555
C11B C12B 1_555 1_555
C14B C15B 1_555 1_555
C17B C18B 1_555 1_555
C18B C19B 1_555 1_555

#END
