
#######################################################################
#
#                 Cambridge Crystallographic Data Centre
#                                CCDC 
#
#######################################################################
#
# If this CIF has been generated from an entry in the Cambridge 
# Structural Database, then it will include bibliographic, chemical, 
# crystal, experimental, refinement or atomic coordinate data resulting 
# from the CCDC's data processing and validation procedures.
#
#######################################################################

data_VAZGAF
_symmetry_cell_setting           monoclinic
_symmetry_space_group_name_H-M   'P 21/n'
_symmetry_Int_Tables_number      14
_space_group_name_Hall           '-P 2yn'
loop_
_symmetry_equiv_pos_site_id
_symmetry_equiv_pos_as_xyz
1 x,y,z
2 1/2-x,1/2+y,1/2-z
3 -x,-y,-z
4 1/2+x,1/2-y,1/2+z
_cell_length_a                   8.964(2)
_cell_length_b                   11.174(3)
_cell_length_c                   22.689(6)
_cell_angle_alpha                90
_cell_angle_beta                 99.142(4)
_cell_angle_gamma                90
_cell_volume                     2243.75
loop_
_atom_site_label
_atom_site_type_symbol
_atom_site_fract_x
_atom_site_fract_y
_atom_site_fract_z
N1 N 0.77516(19) 0.72844(15) 0.20469(7)
N2 N 0.7387(2) 0.53061(16) 0.24047(8)
H1 H 0.7274 0.5047 0.2043
C1 C 0.6718(2) 0.70315(18) 0.15187(9)
C2 C 0.7142(2) 0.64135(19) 0.10306(9)
C3 C 0.6069(3) 0.6257(2) 0.05238(10)
H2 H 0.6340 0.5848 0.0200
C4 C 0.4611(3) 0.6688(2) 0.04844(11)
H3 H 0.3918 0.6575 0.0138
C5 C 0.4196(3) 0.7287(2) 0.09625(11)
H4 H 0.3217 0.7578 0.0942
C6 C 0.5237(2) 0.74530(19) 0.14733(10)
H5 H 0.4946 0.7856 0.1795
C7 C 0.8752(2) 0.5982(2) 0.10468(10)
H6 H 0.9237 0.5988 0.1466
C8 C 0.9632(3) 0.6834(3) 0.07128(15)
H7 H 0.9554 0.7632 0.0863
H8 H 0.9225 0.6815 0.0295
H9 H 1.0674 0.6597 0.0769
C9 C 0.8855(3) 0.4712(2) 0.08182(14)
H10 H 0.9898 0.4491 0.0840
H11 H 0.8360 0.4667 0.0411
H12 H 0.8373 0.4174 0.1059
C10 C 0.7968(2) 0.63868(18) 0.24404(9)
C11 C 0.9030(2) 0.66546(19) 0.30034(9)
C12 C 0.8953(3) 0.7724(2) 0.33091(9)
H13 H 0.8226 0.8289 0.3163
C13 C 0.9944(3) 0.7957(2) 0.38273(10)
H14 H 0.9873 0.8673 0.4030
C14 C 1.1037(3) 0.7134(3) 0.40455(11)
H15 H 1.1708 0.7294 0.4393
C15 C 1.1127(3) 0.6072(2) 0.37443(10)
H16 H 1.1866 0.5514 0.3888
C16 C 1.0128(3) 0.5832(2) 0.32324(10)
H17 H 1.0190 0.5106 0.3037
O1 O 0.82023(19) 0.97230(15) 0.12019(7)
C17 C 0.7099(3) 0.9617(2) 0.06768(11)
H18 H 0.6123 0.9899 0.0752
H19 H 0.7000 0.8790 0.0546
C18 C 0.7656(4) 1.0369(3) 0.02202(13)
H20 H 0.8276 0.9902 -0.0008
H21 H 0.6818 1.0708 -0.0052
C19 C 0.8545(4) 1.1309(3) 0.05549(13)
H22 H 0.7920 1.1998 0.0607
H23 H 0.9367 1.1561 0.0353
C20 C 0.9134(3) 1.0744(3) 0.11416(13)
H24 H 1.0177 1.0501 0.1154
H25 H 0.9086 1.1306 0.1464
O2 O 1.05983(17) 0.92400(14) 0.22785(7)
C21 C 1.1375(3) 1.0270(2) 0.25374(14)
H26 H 1.0687 1.0799 0.2702
H27 H 1.1828 1.0707 0.2242
C22 C 1.2562(3) 0.9807(3) 0.30188(13)
H28 H 1.2199 0.9798 0.3400
H29 H 1.3465 1.0297 0.3055
C23 C 1.2880(3) 0.8548(3) 0.28236(12)
H30 H 1.3900 0.8484 0.2734
H31 H 1.2752 0.7971 0.3131
C24 C 1.1725(3) 0.8350(2) 0.22683(13)
H32 H 1.2191 0.8431 0.1913
H33 H 1.1287 0.7557 0.2272
Li1 Li 0.8324(4) 0.9069(3) 0.20475(16)
N2A N 0.7613(2) 1.03061(16) 0.25953(8)
H1A H 0.7726 1.0047 0.2957
Li1A Li 0.6676(4) 0.4069(3) 0.29525(16)
loop_
_geom_bond_atom_site_label_1
_geom_bond_atom_site_label_2
_geom_bond_site_symmetry_1
_geom_bond_site_symmetry_2
N1 C1 1_555 1_555
N2 H1 1_555 1_555
C1 C2 1_555 1_555
C2 C3 1_555 1_555
C3 H2 1_555 1_555
C4 C3 1_555 1_555
H3 C4 1_555 1_555
C5 C4 1_555 1_555
H4 C5 1_555 1_555
C6 C1 1_555 1_555
H5 C6 1_555 1_555
C7 C2 1_555 1_555
H6 C7 1_555 1_555
C8 C7 1_555 1_555
H7 C8 1_555 1_555
H8 C8 1_555 1_555
H9 C8 1_555 1_555
C9 C7 1_555 1_555
H10 C9 1_555 1_555
H11 C9 1_555 1_555
H12 C9 1_555 1_555
C10 N1 1_555 1_555
C11 C10 1_555 1_555
C12 C11 1_555 1_555
H13 C12 1_555 1_555
C13 C12 1_555 1_555
H14 C13 1_555 1_555
C14 C13 1_555 1_555
H15 C14 1_555 1_555
C15 C14 1_555 1_555
H16 C15 1_555 1_555
C16 C11 1_555 1_555
H17 C16 1_555 1_555
O1 C17 1_555 1_555
C17 H18 1_555 1_555
H19 C17 1_555 1_555
C18 C17 1_555 1_555
H20 C18 1_555 1_555
H21 C18 1_555 1_555
C19 C18 1_555 1_555
H22 C19 1_555 1_555
H23 C19 1_555 1_555
C20 O1 1_555 1_555
H24 C20 1_555 1_555
H25 C20 1_555 1_555
O2 C21 1_555 1_555
C21 H26 1_555 1_555
H27 C21 1_555 1_555
C22 C21 1_555 1_555
H28 C22 1_555 1_555
H29 C22 1_555 1_555
C23 C22 1_555 1_555
H30 C23 1_555 1_555
H31 C23 1_555 1_555
C24 O2 1_555 1_555
H32 C24 1_555 1_555
H33 C24 1_555 1_555
Li1 N1 1_555 1_555
N2A Li1 1_555 1_555
H1A N2A 1_555 1_555
Li1A N2 1_555 1_555
N2 C10 1_555 1_555
C5 C6 1_555 1_555
C15 C16 1_555 1_555
O1 Li1 1_555 1_555
C19 C20 1_555 1_555
O2 Li1 1_555 1_555
C23 C24 1_555 1_555

#END
