
#######################################################################
#
#                 Cambridge Crystallographic Data Centre
#                                CCDC 
#
#######################################################################
#
# If this CIF has been generated from an entry in the Cambridge 
# Structural Database, then it will include bibliographic, chemical, 
# crystal, experimental, refinement or atomic coordinate data resulting 
# from the CCDC's data processing and validation procedures.
#
#######################################################################

data_VAZKUE
_symmetry_cell_setting           monoclinic
_symmetry_space_group_name_H-M   'P 21/c'
_symmetry_Int_Tables_number      14
_space_group_name_Hall           '-P 2ybc'
loop_
_symmetry_equiv_pos_site_id
_symmetry_equiv_pos_as_xyz
1 x,y,z
2 -x,1/2+y,1/2-z
3 -x,-y,-z
4 x,1/2-y,1/2+z
_cell_length_a                   7.4786(15)
_cell_length_b                   9.832(2)
_cell_length_c                   15.487(5)
_cell_angle_alpha                90
_cell_angle_beta                 108.31(3)
_cell_angle_gamma                90
_cell_volume                     1081.1
loop_
_atom_site_label
_atom_site_type_symbol
_atom_site_fract_x
_atom_site_fract_y
_atom_site_fract_z
O1 O 0.7232(4) 0.5717(3) 0.5187(2)
Pr1 Pr 0.72495(3) 0.55547(2) 0.356340(16)
O2 O 0.8407(5) 0.3350(3) 0.4216(2)
O3 O 0.9961(5) 0.4715(3) 0.3061(2)
O4 O 1.0033(5) 0.3094(3) 0.5691(2)
O5 O 0.7633(5) 0.7256(4) 0.2382(3)
O6 O 0.6976(4) 0.0840(3) 0.4141(2)
O7 O 0.5202(4) -0.2510(3) 0.3590(2)
O8 O 0.4522(5) -0.0590(3) 0.2789(2)
O9 O 0.5541(4) 0.5490(3) 0.6141(2)
C1 C 0.8892(6) 0.2702(5) 0.4954(3)
C2 C 0.8099(6) 0.1322(5) 0.4958(3)
C3 C 0.8332(7) 0.0373(5) 0.5613(3)
H1 H 0.9012 0.0468 0.6226
C4 C 0.7329(7) -0.0802(5) 0.5180(3)
H2 H 0.7237 -0.1630 0.5453
C5 C 0.6535(6) -0.0470(4) 0.4289(3)
C6 C 0.5337(6) -0.1234(5) 0.3497(3)
C7 C 0.5801(6) 0.5348(4) 0.5384(3)
H3 H 1.044(6) 0.532(4) 0.282(4)
H4 H 1.086(5) 0.440(5) 0.351(2)
H5 H 0.685(5) 0.784(4) 0.210(3)
H6 H 0.872(4) 0.750(5) 0.234(3)
O1B O 0.2768(4) 0.4283(3) 0.4813(2)
Pr1B Pr 0.27505(3) 0.44453(2) 0.643660(16)
Pr1B_2 Pr 1.27505(3) 0.44453(2) 0.643660(16)
Pr1_2 Pr 0.72495(3) -0.44453(2) 0.356340(16)
Pr1A Pr 0.27505(3) 0.05547(2) 0.143660(16)
Pr1B_3 Pr 1.27505(3) 1.44453(2) 0.643660(16)
Pr1C Pr 1.72495(3) 0.94453(2) 0.856340(16)
O2B O 1.1593(5) 0.6650(3) 0.5784(2)
O2B_2 O 0.1593(5) 0.6650(3) 0.5784(2)
O3B O 0.0039(5) 0.5285(3) 0.6939(2)
O4B O 0.9967(5) 0.6906(3) 0.4309(2)
O4_2 O 0.0033(5) 0.3094(3) 0.5691(2)
O5B O 0.2367(5) 0.2744(4) 0.7618(3)
O6B O 1.3024(4) 0.9160(3) 0.5859(2)
O7B O 1.4798(4) 1.2510(3) 0.6410(2)
O7_2 O 0.5202(4) 0.7490(3) 0.3590(2)
O7B_2 O 0.4798(4) 0.2510(3) 0.6410(2)
O8B O 1.5478(5) 1.0590(3) 0.7211(2)
O8A O 0.5478(5) 0.4410(3) 0.2211(2)
O8C O 0.4522(5) 0.5590(3) 0.7789(2)
O9B O 0.4459(4) 0.4510(3) 0.3859(2)
C1B C 1.1108(6) 0.7298(5) 0.5046(3)
C2B C 1.1901(6) 0.8678(5) 0.5042(3)
C3B C 1.1668(7) 0.9627(5) 0.4387(3)
H1B H 1.0988 0.9532 0.3774
C4B C 1.2671(7) 1.0802(5) 0.4820(3)
H2B H 1.2763 1.1630 0.4547
C5B C 1.3465(6) 1.0470(4) 0.5711(3)
C6B C 1.4663(6) 1.1234(5) 0.6503(3)
C7B C 0.4199(6) 0.4652(4) 0.4616(3)
H3B H -0.044(6) 0.468(4) 0.718(4)
H4B H -0.086(5) 0.560(5) 0.649(2)
H5B H 0.315(5) 0.216(4) 0.790(3)
H6B H 0.128(4) 0.250(5) 0.766(3)
O10 O 0.1503(5) 0.8209(4) 0.7426(3)
H7 H 0.146(8) 0.797(6) 0.6905(18)
H8 H 0.251(5) 0.798(6) 0.782(3)
loop_
_geom_bond_atom_site_label_1
_geom_bond_atom_site_label_2
_geom_bond_site_symmetry_1
_geom_bond_site_symmetry_2
O1 Pr1 1_555 1_555
Pr1 O2 1_555 1_555
O2 C1 1_555 1_555
O3 Pr1 1_555 1_555
O4 C1 1_555 1_555
O5 Pr1 1_555 1_555
O6 C2 1_555 1_555
O7 C6 1_555 1_555
O8 C6 1_555 1_555
O9 C7 1_555 1_555
C1 C2 1_555 1_555
C2 C3 1_555 1_555
C3 H1 1_555 1_555
C4 C3 1_555 1_555
H2 C4 1_555 1_555
C5 O6 1_555 1_555
C6 C5 1_555 1_555
C7 O1 1_555 1_555
O10 H7 1_555 1_555
H3 O3 1_555 1_555
H4 O3 1_555 1_555
H5 O5 1_555 1_555
H6 O5 1_555 1_555
H8 O10 1_555 1_555
O1B Pr1B 1_555 1_555
Pr1B O9 1_555 1_555
Pr1B_2 O4 1_555 1_555
Pr1_2 O7 1_555 1_555
Pr1A O8 1_555 1_555
Pr1B_3 O7B 1_555 1_555
Pr1C O8B 1_555 1_555
O2B Pr1B_2 1_555 1_555
O2B_2 Pr1B 1_555 1_555
O3B Pr1B 1_555 1_555
O4B Pr1 1_555 1_555
O4_2 Pr1B 1_555 1_555
O5B Pr1B 1_555 1_555
O6B C2B 1_555 1_555
O7B C6B 1_555 1_555
O7_2 Pr1 1_555 1_555
O7B_2 Pr1B 1_555 1_555
O8B C6B 1_555 1_555
O8A Pr1 1_555 1_555
O8C Pr1B 1_555 1_555
O9B Pr1 1_555 1_555
C1B O2B 1_555 1_555
C2B C1B 1_555 1_555
C3B C2B 1_555 1_555
H1B C3B 1_555 1_555
C4B C3B 1_555 1_555
H2B C4B 1_555 1_555
C5B O6B 1_555 1_555
C6B C5B 1_555 1_555
C7B C7 1_555 1_555
H3B O3B 1_555 1_555
H4B O3B 1_555 1_555
H5B O5B 1_555 1_555
H6B O5B 1_555 1_555
C4 C5 1_555 1_555
O1B C7B 1_555 1_555
O4B C1B 1_555 1_555
O9B C7B 1_555 1_555
C4B C5B 1_555 1_555

#END
