
#######################################################################
#
#                 Cambridge Crystallographic Data Centre
#                                CCDC 
#
#######################################################################
#
# If this CIF has been generated from an entry in the Cambridge 
# Structural Database, then it will include bibliographic, chemical, 
# crystal, experimental, refinement or atomic coordinate data resulting 
# from the CCDC's data processing and validation procedures.
#
#######################################################################

data_VAZLEP02
_symmetry_cell_setting           monoclinic
_symmetry_space_group_name_H-M   'C 2/c'
_symmetry_Int_Tables_number      15
_space_group_name_Hall           '-C 2yn'
loop_
_symmetry_equiv_pos_site_id
_symmetry_equiv_pos_as_xyz
1 x,y,z
2 -x,y,1/2-z
3 1/2+x,1/2+y,z
4 1/2-x,1/2+y,1/2-z
5 -x,-y,-z
6 x,-y,1/2+z
7 1/2-x,1/2-y,-z
8 1/2+x,1/2-y,1/2+z
_cell_length_a                   16.7570(10)
_cell_length_b                   10.5708(7)
_cell_length_c                   13.5348(14)
_cell_angle_alpha                90
_cell_angle_beta                 116.917(2)
_cell_angle_gamma                90
_cell_volume                     2137.75
loop_
_atom_site_label
_atom_site_type_symbol
_atom_site_fract_x
_atom_site_fract_y
_atom_site_fract_z
Eu1 Eu 0.363600(6) 0.903705(9) 1.001639(7)
O1 O 0.43933(9) 0.88051(13) 0.89534(12)
O2 O 0.51769(9) 0.85329(14) 1.13289(11)
O3 O 0.31030(12) 1.06962(16) 0.86101(14)
O4 O 0.24970(11) 0.81255(18) 0.82831(13)
O5 O 0.38299(9) 0.87685(14) 1.18981(11)
O6 O 0.42333(10) 1.10721(14) 1.09240(13)
O7 O 0.23046(9) 0.98118(14) 0.99929(11)
O8 O 0.35670(10) 0.68892(14) 1.03625(13)
C1 C 0.50878(13) 0.83258(18) 0.89727(15)
C2 C 0.53878(13) 0.86634(18) 1.23344(16)
H1 H 0.2889(18) 1.1353(19) 0.871(2)
H2 H 0.3495(15) 1.088(2) 0.844(2)
H3 H 0.255(2) 0.811(3) 0.771(3)
H4 H 0.2177(19) 0.754(3) 0.823(2)
C3 C 0.50887(12) 0.69301(19) 0.88722(15)
C4 C 0.44288(13) 0.60439(19) 0.85047(16)
O9 O 0.59099(9) 0.63645(13) 0.92789(11)
H5 H 0.3802 0.6194 0.8181
C5 C 0.48603(13) 0.48550(19) 0.86996(16)
C6 C 0.57541(12) 0.50924(18) 0.91783(15)
H6 H 0.4580 0.4048 0.8529
C7 C 0.65513(13) 0.42729(18) 0.96344(15)
C2A C 0.46122(13) 0.86634(18) 1.26656(16)
C1D C 0.49122(13) 1.16742(18) 1.10273(15)
O6D O 0.57667(10) 0.89279(14) 0.90760(13)
O5A O 0.61701(9) 0.87685(14) 1.31019(11)
O2A O 0.48231(9) 0.85329(14) 1.36711(11)
C3D C 0.49113(12) 1.30699(19) 1.11278(15)
O1D O 0.56067(9) 1.11949(13) 1.10466(12)
Eu1D Eu 0.636400(6) 1.096295(9) 0.998361(7)
Eu1A Eu 0.636400(6) 0.903705(9) 1.498361(7)
C4D C 0.55712(13) 1.39561(19) 1.14953(16)
O9D O 0.40901(9) 1.36355(13) 1.07211(11)
O1A O 0.56067(9) 0.88051(13) 1.60466(12)
O3A O 0.68970(12) 1.06962(16) 1.63899(14)
O4A O 0.75030(11) 0.81255(18) 1.67169(13)
O6A O 0.57667(10) 1.10721(14) 1.40760(13)
O7A O 0.76954(9) 0.98118(14) 1.50071(11)
O8A O 0.64330(10) 0.68892(14) 1.46375(13)
C5D C 0.51397(13) 1.51450(19) 1.13004(16)
H5D H 0.6198 1.3806 1.1819
C6D C 0.42459(12) 1.49076(18) 1.08217(15)
H1A H 0.7111(18) 1.1353(19) 1.629(2)
H2A H 0.6505(15) 1.088(2) 1.656(2)
H3A H 0.745(2) 0.811(3) 1.729(3)
H4A H 0.7823(19) 0.754(3) 1.677(2)
H6D H 0.5420 1.5952 1.1471
C7D C 0.34487(13) 1.57271(18) 1.03656(15)
O7B O 0.73046(9) 0.48118(14) 0.99929(11)
O8D O 0.64330(10) 0.31108(14) 0.96375(13)
O7F O 0.26954(9) 1.51882(14) 1.00071(11)
O8_2 O 0.35670(10) 1.68892(14) 1.03625(13)
Eu1B Eu 0.863600(6) 0.403705(9) 1.001639(7)
Eu1D_2 Eu 0.636400(6) 0.096295(9) 0.998361(7)
Eu1F Eu 0.136400(6) 1.596295(9) 0.998361(7)
Eu1_2 Eu 0.363600(6) 1.903705(9) 1.001639(7)
O10 O 0.22835(11) 0.29760(16) 0.86491(13)
H7 H 0.253(2) 0.351(3) 0.912(3)
H8 H 0.177(2) 0.296(3) 0.859(3)
loop_
_geom_bond_atom_site_label_1
_geom_bond_atom_site_label_2
_geom_bond_site_symmetry_1
_geom_bond_site_symmetry_2
Eu1 O1 1_555 1_555
O1 C1 1_555 1_555
O2 Eu1 1_555 1_555
O3 Eu1 1_555 1_555
O4 Eu1 1_555 1_555
O5 Eu1 1_555 1_555
O6 Eu1 1_555 1_555
O7 Eu1 1_555 1_555
O8 Eu1 1_555 1_555
C1 C3 1_555 1_555
C2 O2 1_555 1_555
H1 O3 1_555 1_555
H2 O3 1_555 1_555
H3 O4 1_555 1_555
H4 O4 1_555 1_555
C3 C4 1_555 1_555
C4 H5 1_555 1_555
O9 C3 1_555 1_555
C5 C4 1_555 1_555
C6 O9 1_555 1_555
H6 C5 1_555 1_555
C7 C6 1_555 1_555
O10 H7 1_555 1_555
H8 O10 1_555 1_555
C2A O5 1_555 1_555
C1D O6 1_555 1_555
O6D C1 1_555 1_555
O5A C2 1_555 1_555
O2A C2A 1_555 1_555
C3D C1D 1_555 1_555
O1D C1D 1_555 1_555
Eu1D O6D 1_555 1_555
Eu1A O5A 1_555 1_555
C4D C3D 1_555 1_555
O9D C3D 1_555 1_555
O1A Eu1A 1_555 1_555
O3A Eu1A 1_555 1_555
O4A Eu1A 1_555 1_555
O6A Eu1A 1_555 1_555
O7A Eu1A 1_555 1_555
O8A Eu1A 1_555 1_555
C5D C4D 1_555 1_555
H5D C4D 1_555 1_555
C6D O9D 1_555 1_555
H1A O3A 1_555 1_555
H2A O3A 1_555 1_555
H3A O4A 1_555 1_555
H4A O4A 1_555 1_555
H6D C5D 1_555 1_555
C7D C6D 1_555 1_555
O7B C7 1_555 1_555
O8D C7 1_555 1_555
O7F C7D 1_555 1_555
O8_2 C7D 1_555 1_555
Eu1B O7B 1_555 1_555
Eu1D_2 O8D 1_555 1_555
Eu1F O7F 1_555 1_555
Eu1_2 O8_2 1_555 1_555
C2 C2A 1_555 1_555
C5 C6 1_555 1_555
O2A Eu1A 1_555 1_555
O1D Eu1D 1_555 1_555
C5D C6D 1_555 1_555

#END
