
#######################################################################
#
#                 Cambridge Crystallographic Data Centre
#                                CCDC 
#
#######################################################################
#
# If this CIF has been generated from an entry in the Cambridge 
# Structural Database, then it will include bibliographic, chemical, 
# crystal, experimental, refinement or atomic coordinate data resulting 
# from the CCDC's data processing and validation procedures.
#
#######################################################################

data_VAZLEP01
_symmetry_cell_setting           monoclinic
_symmetry_space_group_name_H-M   'P 21/n'
_symmetry_Int_Tables_number      14
_space_group_name_Hall           '-P 2yn'
loop_
_symmetry_equiv_pos_site_id
_symmetry_equiv_pos_as_xyz
1 x,y,z
2 1/2-x,1/2+y,1/2-z
3 -x,-y,-z
4 1/2+x,1/2-y,1/2+z
_cell_length_a                   7.3165(2)
_cell_length_b                   9.7247(3)
_cell_length_c                   14.7458(4)
_cell_angle_alpha                90
_cell_angle_beta                 100.0620(10)
_cell_angle_gamma                90
_cell_volume                     1033.04
loop_
_atom_site_label
_atom_site_type_symbol
_atom_site_fract_x
_atom_site_fract_y
_atom_site_fract_z
Eu1 Eu 0.867813(12) 0.054252(9) 0.143591(6)
C1 C 0.8162(2) -0.1258(2) 0.34873(14)
C2 C 0.7757(3) -0.04913(19) 0.42915(15)
C3 C 0.7864(3) -0.0831(2) 0.51929(15)
H1 H 0.8237 -0.1690 0.5472
C4 C 0.7304(3) 0.0362(2) 0.56353(15)
H2 H 0.7240 0.0460 0.6270
C5 C 0.6882(3) 0.1329(2) 0.49667(14)
C6 C 0.6063(3) 0.2723(2) 0.49614(14)
C7 C 0.4569(3) -0.03501(19) 0.03865(14)
O1 O 0.8261(2) -0.06142(14) 0.27660(11)
O2 O 0.83910(19) -0.25528(14) 0.35832(10)
O3 O 0.7178(2) 0.08357(14) 0.41381(10)
O4 O 0.5818(2) 0.33764(14) 0.42119(10)
O5 O 0.5648(2) 0.31277(15) 0.57062(10)
O6 O 0.5595(2) -0.04914(14) 0.11553(11)
O7 O 0.2906(2) -0.07258(14) 0.01774(11)
O8 O 1.1854(2) -0.02905(16) 0.19518(12)
H3 H 1.215(5) -0.052(3) 0.149(3)
H4 H 1.266(5) 0.031(3) 0.219(2)
O9 O 1.0229(2) 0.22015(17) 0.26088(12)
H5 H 1.127(5) 0.233(4) 0.261(3)
H6 H 0.979(5) 0.272(4) 0.291(3)
C7B C 0.5431(3) 0.03501(19) -0.03865(14)
O6B O 0.4405(2) 0.04914(14) -0.11553(11)
O7B O 0.7094(2) 0.07258(14) -0.01774(11)
Eu1B Eu 0.132187(12) -0.054252(9) -0.143591(6)
C1B C 0.1838(2) 0.1258(2) -0.34873(14)
C2B C 0.2243(3) 0.04913(19) -0.42915(15)
C3B C 0.2136(3) 0.0831(2) -0.51929(15)
H1B H 0.1763 0.1690 -0.5472
C4B C 0.2696(3) -0.0362(2) -0.56353(15)
H2B H 0.2760 -0.0460 -0.6270
C5B C 0.3118(3) -0.1329(2) -0.49667(14)
C6B C 0.3937(3) -0.2723(2) -0.49614(14)
O1B O 0.1739(2) 0.06142(14) -0.27660(11)
O2B O 0.16090(19) 0.25528(14) -0.35832(10)
O3B O 0.2822(2) -0.08357(14) -0.41381(10)
O4B O 0.4182(2) -0.33764(14) -0.42119(10)
O5B O 0.4352(2) -0.31277(15) -0.57062(10)
O8B O -0.1854(2) 0.02905(16) -0.19518(12)
H3B H -0.215(5) 0.052(3) -0.149(3)
H4B H -0.266(5) -0.031(3) -0.219(2)
O9B O -0.0229(2) -0.22015(17) -0.26088(12)
H5B H -0.127(5) -0.233(4) -0.261(3)
H6B H 0.021(5) -0.272(4) -0.291(3)
Eu1A Eu 0.632187(12) -0.445748(9) -0.643591(6)
Eu1A_2 Eu 0.632187(12) -0.445748(9) 0.356409(6)
Eu1A_3 Eu 0.632187(12) 0.554252(9) 0.356409(6)
Eu1C Eu 0.367813(12) -0.554252(9) -0.356409(6)
Eu1C_2 Eu 0.367813(12) 0.445748(9) -0.356409(6)
Eu1C_3 Eu 0.367813(12) 0.445748(9) 0.643591(6)
O2A O 0.66090(19) 0.24472(14) 0.14168(10)
O2C O 0.33910(19) -0.24472(14) -0.14168(10)
O4A O 0.9182(2) -0.16236(14) 0.07881(10)
O4C O 0.0818(2) 0.16236(14) -0.07881(10)
O5A O -0.0648(2) -0.18723(15) -0.07062(10)
O5C O 1.0648(2) 0.18723(15) 0.07062(10)
O10 O 0.4060(2) 0.17920(17) 0.25826(13)
H7 H 0.455(5) 0.198(3) 0.301(3)
H8 H 0.468(5) 0.198(3) 0.222(2)
loop_
_geom_bond_atom_site_label_1
_geom_bond_atom_site_label_2
_geom_bond_site_symmetry_1
_geom_bond_site_symmetry_2
Eu1 O1 1_555 1_555
C1 C2 1_555 1_555
C2 C3 1_555 1_555
C3 H1 1_555 1_555
C4 C3 1_555 1_555
H2 C4 1_555 1_555
C5 C4 1_555 1_555
C6 C5 1_555 1_555
C7 O6 1_555 1_555
O1 C1 1_555 1_555
O2 C1 1_555 1_555
O3 C2 1_555 1_555
O4 C6 1_555 1_555
O5 C6 1_555 1_555
O6 Eu1 1_555 1_555
O7 C7 1_555 1_555
O8 Eu1 1_555 1_555
H3 O8 1_555 1_555
H4 O8 1_555 1_555
O9 Eu1 1_555 1_555
H5 O9 1_555 1_555
H6 O9 1_555 1_555
O10 H7 1_555 1_555
H8 O10 1_555 1_555
C7B C7 1_555 1_555
O6B C7B 1_555 1_555
O7B Eu1 1_555 1_555
Eu1B O7 1_555 1_555
C1B C2B 1_555 1_555
C2B C3B 1_555 1_555
C3B H1B 1_555 1_555
C4B C3B 1_555 1_555
H2B C4B 1_555 1_555
C5B C4B 1_555 1_555
C6B C5B 1_555 1_555
O1B Eu1B 1_555 1_555
O2B C1B 1_555 1_555
O3B C2B 1_555 1_555
O4B C6B 1_555 1_555
O5B C6B 1_555 1_555
O8B Eu1B 1_555 1_555
H3B O8B 1_555 1_555
H4B O8B 1_555 1_555
O9B Eu1B 1_555 1_555
H5B O9B 1_555 1_555
H6B O9B 1_555 1_555
Eu1A O5B 1_555 1_555
Eu1A_2 O2 1_555 1_555
Eu1A_3 O4 1_555 1_555
Eu1C O4B 1_555 1_555
Eu1C_2 O2B 1_555 1_555
Eu1C_3 O5 1_555 1_555
O2A Eu1 1_555 1_555
O2C Eu1B 1_555 1_555
O4A Eu1 1_555 1_555
O4C Eu1B 1_555 1_555
O5A Eu1B 1_555 1_555
O5C Eu1 1_555 1_555
C5 O3 1_555 1_555
C7B O7B 1_555 1_555
O6B Eu1B 1_555 1_555
C1B O1B 1_555 1_555
C5B O3B 1_555 1_555

#END
