
#######################################################################
#
#                 Cambridge Crystallographic Data Centre
#                                CCDC 
#
#######################################################################
#
# If this CIF has been generated from an entry in the Cambridge 
# Structural Database, then it will include bibliographic, chemical, 
# crystal, experimental, refinement or atomic coordinate data resulting 
# from the CCDC's data processing and validation procedures.
#
#######################################################################

data_VAZMOA
_symmetry_cell_setting           monoclinic
_symmetry_space_group_name_H-M   'C 2/c'
_symmetry_Int_Tables_number      15
_space_group_name_Hall           '-C 2yn'
loop_
_symmetry_equiv_pos_site_id
_symmetry_equiv_pos_as_xyz
1 x,y,z
2 -x,y,1/2-z
3 1/2+x,1/2+y,z
4 1/2-x,1/2+y,1/2-z
5 -x,-y,-z
6 x,-y,1/2+z
7 1/2-x,1/2-y,-z
8 1/2+x,1/2-y,1/2+z
_cell_length_a                   16.619(3)
_cell_length_b                   10.460(2)
_cell_length_c                   13.657(3)
_cell_angle_alpha                90
_cell_angle_beta                 118.14(3)
_cell_angle_gamma                90
_cell_volume                     2093.44
loop_
_atom_site_label
_atom_site_type_symbol
_atom_site_fract_x
_atom_site_fract_y
_atom_site_fract_z
O1 O 0.1418(3) 1.1964(4) 0.9597(4)
O2 O 0.2322(2) 1.0263(4) 0.9940(3)
C1 C 0.1550(4) 1.0789(5) 0.9602(4)
O3 O 0.1189(2) 1.3845(4) 0.8148(3)
O4 O -0.0598(3) 0.6204(4) 0.9055(3)
Yb1 Yb 0.135170(15) 1.40363(2) 0.996510(19)
O5 O 0.0919(2) 0.8654(3) 0.9289(3)
C2 C 0.0086(3) 0.8074(5) 0.8905(4)
O6 O 0.0772(3) 0.6049(4) 0.9140(4)
O7 O 0.0191(2) 1.3590(4) 0.6359(3)
O9 O 0.2475(3) 1.3087(5) 1.1669(3)
H3 H 0.2239 1.2921 1.2087
H4 H 0.2671 1.2407 1.1524
C3 C -0.0160(4) 1.0175(6) 0.8688(5)
H5 H -0.0445 1.0969 0.8507
C4 C 0.0091(4) 0.6676(5) 0.9039(4)
C5 C -0.0592(4) 0.8962(6) 0.8519(5)
H6 H -0.1215 0.8806 0.8207
C6 C 0.0399(4) 1.3732(5) 0.7350(5)
C7 C 0.0747(4) 0.9944(5) 0.9162(4)
O10 O 0.1898(3) 1.5615(4) 1.1386(4)
H7 H 0.2108 1.6255 1.1182
H8 H 0.1462 1.5876 1.1510
O1F O 0.3582(3) 1.3036(4) 1.0403(4)
O2F O 0.2678(2) 1.4737(4) 1.0060(3)
C1F C 0.3450(4) 1.4211(5) 1.0398(4)
O3A O -0.1189(2) 1.3845(4) 0.6852(3)
O3F O 0.3811(2) 1.1155(4) 1.1852(3)
O4F O 0.5598(3) 1.8796(4) 1.0945(3)
O4D O 0.0598(3) 1.3796(4) 1.0945(3)
O4B O 0.4402(3) 1.1204(4) 0.9055(3)
Yb1F Yb 0.364830(15) 1.09637(2) 1.003490(19)
Yb1D Yb -0.135170(15) 0.59637(2) 1.003490(19)
Yb1_2 Yb 0.135170(15) 0.40363(2) 0.996510(19)
Yb1A Yb -0.135170(15) 1.40363(2) 0.503490(19)
Yb1B Yb 0.635170(15) 1.90363(2) 0.996510(19)
Yb1F_2 Yb 0.364830(15) 2.09637(2) 1.003490(19)
O5F O 0.4081(2) 1.6346(3) 1.0711(3)
C2F C 0.4914(3) 1.6926(5) 1.1095(4)
O6F O 0.4228(3) 1.8951(4) 1.0860(4)
O6_2 O 0.0772(3) 1.6049(4) 0.9140(4)
O6F_2 O 0.4228(3) 0.8951(4) 1.0860(4)
O7A O -0.0191(2) 1.3590(4) 0.8641(3)
O7G O 0.5191(2) 1.1410(4) 1.1359(3)
O9F O 0.2525(3) 1.1913(5) 0.8331(3)
H3F H 0.2761 1.2079 0.7913
H4F H 0.2329 1.2593 0.8476
C3F C 0.5160(4) 1.4825(6) 1.1312(5)
H5F H 0.5445 1.4031 1.1493
C4F C 0.4909(4) 1.8324(5) 1.0961(4)
C5F C 0.5592(4) 1.6038(6) 1.1481(5)
H6F H 0.6215 1.6194 1.1793
C6A C -0.0399(4) 1.3732(5) 0.7650(5)
C7F C 0.4253(4) 1.5056(5) 1.0838(4)
O10F O 0.3102(3) 0.9385(4) 0.8614(4)
H7F H 0.2892 0.8745 0.8818
H8F H 0.3538 0.9124 0.8490
O8 O 0.2721(3) 0.7976(5) 0.1375(4)
H1 H 0.3251 0.7806 0.1482
H2 H 0.2509 0.8580 0.0916
loop_
_geom_bond_atom_site_label_1
_geom_bond_atom_site_label_2
_geom_bond_site_symmetry_1
_geom_bond_site_symmetry_2
O1 C1 1_555 1_555
O2 C1 1_555 1_555
C1 C7 1_555 1_555
O3 Yb1 1_555 1_555
O4 C4 1_555 1_555
Yb1 O1 1_555 1_555
O5 C2 1_555 1_555
C2 C4 1_555 1_555
O6 C4 1_555 1_555
O7 C6 1_555 1_555
O8 H1 1_555 1_555
H2 O8 1_555 1_555
O9 Yb1 1_555 1_555
H3 O9 1_555 1_555
H4 O9 1_555 1_555
C3 H5 1_555 1_555
C5 C2 1_555 1_555
H6 C5 1_555 1_555
C6 O3 1_555 1_555
C7 O5 1_555 1_555
O10 Yb1 1_555 1_555
H7 O10 1_555 1_555
H8 O10 1_555 1_555
O1F C1F 1_555 1_555
O2F Yb1 1_555 1_555
C1F O2F 1_555 1_555
O3A Yb1A 1_555 1_555
O3F Yb1F 1_555 1_555
O4F Yb1B 1_555 1_555
O4D Yb1 1_555 1_555
O4B Yb1F 1_555 1_555
Yb1F O2 1_555 1_555
Yb1D O4 1_555 1_555
Yb1_2 O6 1_555 1_555
Yb1A O7 1_555 1_555
Yb1F_2 O6F 1_555 1_555
O5F C2F 1_555 1_555
C2F C4F 1_555 1_555
O6F C4F 1_555 1_555
O6_2 Yb1 1_555 1_555
O6F_2 Yb1F 1_555 1_555
O7A Yb1 1_555 1_555
O7G Yb1F 1_555 1_555
O9F Yb1F 1_555 1_555
H3F O9F 1_555 1_555
H4F O9F 1_555 1_555
C3F H5F 1_555 1_555
C4F O4F 1_555 1_555
C5F C2F 1_555 1_555
H6F C5F 1_555 1_555
C6A C6 1_555 1_555
C7F C1F 1_555 1_555
O10F Yb1F 1_555 1_555
H7F O10F 1_555 1_555
H8F O10F 1_555 1_555
C3 C5 1_555 1_555
C3 C7 1_555 1_555
O1F Yb1F 1_555 1_555
O3A C6A 1_555 1_555
O5F C7F 1_555 1_555
O7A C6A 1_555 1_555
C3F C5F 1_555 1_555
C3F C7F 1_555 1_555

#END
