
#######################################################################
#
#                 Cambridge Crystallographic Data Centre
#                                CCDC 
#
#######################################################################
#
# If this CIF has been generated from an entry in the Cambridge 
# Structural Database, then it will include bibliographic, chemical, 
# crystal, experimental, refinement or atomic coordinate data resulting 
# from the CCDC's data processing and validation procedures.
#
#######################################################################

data_VAZMIU
_symmetry_cell_setting           monoclinic
_symmetry_space_group_name_H-M   'C 2/c'
_symmetry_Int_Tables_number      15
_space_group_name_Hall           '-C 2yn'
loop_
_symmetry_equiv_pos_site_id
_symmetry_equiv_pos_as_xyz
1 x,y,z
2 -x,y,1/2-z
3 1/2+x,1/2+y,z
4 1/2-x,1/2+y,1/2-z
5 -x,-y,-z
6 x,-y,1/2+z
7 1/2-x,1/2-y,-z
8 1/2+x,1/2-y,1/2+z
_cell_length_a                   16.677(3)
_cell_length_b                   10.504(2)
_cell_length_c                   13.640(3)
_cell_angle_alpha                90
_cell_angle_beta                 117.78(3)
_cell_angle_gamma                90
_cell_volume                     2114
loop_
_atom_site_label
_atom_site_type_symbol
_atom_site_fract_x
_atom_site_fract_y
_atom_site_fract_z
O1 O 0.1424(3) 1.1932(4) 0.9608(4)
O2 O 0.2316(2) 1.0241(4) 0.9956(3)
C1 C 0.1555(4) 1.0763(5) 0.9610(5)
O3 O 0.1179(3) 1.3823(4) 0.8132(3)
O4 O -0.0598(3) 0.6207(4) 0.9022(4)
Ho1 Ho 0.135330(16) 1.40346(2) 0.99713(2)
O5 O 0.0917(2) 0.8650(3) 0.9284(3)
C2 C 0.0090(3) 0.8076(5) 0.8898(5)
O6 O 0.0773(3) 0.6056(4) 0.9132(4)
O7 O 0.0187(3) 1.3569(4) 0.6354(3)
O9 O 0.2481(3) 1.3087(5) 1.1682(4)
H3 H 0.2255 1.2968 1.2118
H4 H 0.2650 1.2382 1.1541
C3 C -0.0140(4) 1.0162(5) 0.8699(5)
H5 H -0.0418 1.0956 0.8523
C4 C 0.0093(4) 0.6675(5) 0.9015(5)
C5 C -0.0579(4) 0.8960(5) 0.8520(5)
H6 H -0.1199 0.8812 0.8206
C6 C 0.0395(4) 1.3709(5) 0.7348(5)
C7 C 0.0750(4) 0.9932(5) 0.9170(5)
O10 O 0.1905(3) 1.5638(4) 1.1403(4)
H7 H 0.2041 1.6322 1.1163
H8 H 0.1493 1.5818 1.1596
O1F O 0.3576(3) 1.3068(4) 1.0392(4)
O2F O 0.2684(2) 1.4759(4) 1.0044(3)
C1F C 0.3445(4) 1.4237(5) 1.0390(5)
O3A O -0.1179(3) 1.3823(4) 0.6868(3)
O3F O 0.3821(3) 1.1177(4) 1.1868(3)
O4F O 0.5598(3) 1.8793(4) 1.0978(4)
O4D O 0.0598(3) 1.3793(4) 1.0978(4)
O4B O 0.4402(3) 1.1207(4) 0.9022(4)
Ho1F Ho 0.364670(16) 1.09654(2) 1.00287(2)
Ho1D Ho -0.135330(16) 0.59654(2) 1.00287(2)
Ho1_2 Ho 0.135330(16) 0.40346(2) 0.99713(2)
Ho1A Ho -0.135330(16) 1.40346(2) 0.50287(2)
Ho1B Ho 0.635330(16) 1.90346(2) 0.99713(2)
Ho1F_2 Ho 0.364670(16) 2.09654(2) 1.00287(2)
O5F O 0.4083(2) 1.6350(3) 1.0716(3)
C2F C 0.4910(3) 1.6924(5) 1.1102(5)
O6F O 0.4227(3) 1.8944(4) 1.0868(4)
O6_2 O 0.0773(3) 1.6056(4) 0.9132(4)
O6F_2 O 0.4227(3) 0.8944(4) 1.0868(4)
O7A O -0.0187(3) 1.3569(4) 0.8646(3)
O7G O 0.5187(3) 1.1431(4) 1.1354(3)
O9F O 0.2519(3) 1.1913(5) 0.8318(4)
H3F H 0.2745 1.2032 0.7882
H4F H 0.2350 1.2618 0.8459
C3F C 0.5140(4) 1.4838(5) 1.1301(5)
H5F H 0.5418 1.4044 1.1477
C4F C 0.4907(4) 1.8325(5) 1.0985(5)
C5F C 0.5579(4) 1.6040(5) 1.1480(5)
H6F H 0.6199 1.6188 1.1794
C6A C -0.0395(4) 1.3709(5) 0.7652(5)
C7F C 0.4250(4) 1.5068(5) 1.0830(5)
O10F O 0.3095(3) 0.9362(4) 0.8597(4)
H7F H 0.2959 0.8678 0.8837
H8F H 0.3507 0.9182 0.8404
O8 O 0.2718(3) 0.7968(5) 0.1374(4)
H1 H 0.3264 0.7883 0.1511
H2 H 0.2452 0.8463 0.0829
loop_
_geom_bond_atom_site_label_1
_geom_bond_atom_site_label_2
_geom_bond_site_symmetry_1
_geom_bond_site_symmetry_2
O1 C1 1_555 1_555
O2 C1 1_555 1_555
C1 C7 1_555 1_555
O3 Ho1 1_555 1_555
O4 C4 1_555 1_555
Ho1 O1 1_555 1_555
O5 C2 1_555 1_555
C2 C4 1_555 1_555
O6 C4 1_555 1_555
O7 C6 1_555 1_555
O8 H1 1_555 1_555
H2 O8 1_555 1_555
O9 Ho1 1_555 1_555
H3 O9 1_555 1_555
H4 O9 1_555 1_555
C3 H5 1_555 1_555
C5 C2 1_555 1_555
H6 C5 1_555 1_555
C6 O3 1_555 1_555
C7 O5 1_555 1_555
O10 Ho1 1_555 1_555
H7 O10 1_555 1_555
H8 O10 1_555 1_555
O1F C1F 1_555 1_555
O2F Ho1 1_555 1_555
C1F O2F 1_555 1_555
O3A Ho1A 1_555 1_555
O3F Ho1F 1_555 1_555
O4F Ho1B 1_555 1_555
O4D Ho1 1_555 1_555
O4B Ho1F 1_555 1_555
Ho1F O2 1_555 1_555
Ho1D O4 1_555 1_555
Ho1_2 O6 1_555 1_555
Ho1A O7 1_555 1_555
Ho1F_2 O6F 1_555 1_555
O5F C2F 1_555 1_555
C2F C4F 1_555 1_555
O6F C4F 1_555 1_555
O6_2 Ho1 1_555 1_555
O6F_2 Ho1F 1_555 1_555
O7A Ho1 1_555 1_555
O7G Ho1F 1_555 1_555
O9F Ho1F 1_555 1_555
H3F O9F 1_555 1_555
H4F O9F 1_555 1_555
C3F H5F 1_555 1_555
C4F O4F 1_555 1_555
C5F C2F 1_555 1_555
H6F C5F 1_555 1_555
C6A C6 1_555 1_555
C7F C1F 1_555 1_555
O10F Ho1F 1_555 1_555
H7F O10F 1_555 1_555
H8F O10F 1_555 1_555
C3 C5 1_555 1_555
C3 C7 1_555 1_555
O1F Ho1F 1_555 1_555
O3A C6A 1_555 1_555
O5F C7F 1_555 1_555
O7A C6A 1_555 1_555
C3F C5F 1_555 1_555
C3F C7F 1_555 1_555

#END
