
#######################################################################
#
#                 Cambridge Crystallographic Data Centre
#                                CCDC 
#
#######################################################################
#
# If this CIF has been generated from an entry in the Cambridge 
# Structural Database, then it will include bibliographic, chemical, 
# crystal, experimental, refinement or atomic coordinate data resulting 
# from the CCDC's data processing and validation procedures.
#
#######################################################################

data_VAZXEA
_symmetry_cell_setting           monoclinic
_symmetry_space_group_name_H-M   'P 21/c'
_symmetry_Int_Tables_number      14
_space_group_name_Hall           '-P 2ybc'
loop_
_symmetry_equiv_pos_site_id
_symmetry_equiv_pos_as_xyz
1 x,y,z
2 -x,1/2+y,1/2-z
3 -x,-y,-z
4 x,1/2-y,1/2+z
_cell_length_a                   17.041(5)
_cell_length_b                   17.848(5)
_cell_length_c                   15.619(4)
_cell_angle_alpha                90
_cell_angle_beta                 106.421(4)
_cell_angle_gamma                90
_cell_volume                     4556.71
loop_
_atom_site_label
_atom_site_type_symbol
_atom_site_fract_x
_atom_site_fract_y
_atom_site_fract_z
Pb1 Pb 0.424362(16) 0.610317(14) 0.453500(18)
K1 K 0.01028(9) 0.84491(9) 0.15972(10)
K2 K 0.38100(9) 0.32742(8) 0.93293(9)
N1 N 0.0622(4) 0.6990(4) 0.2397(5)
N2 N 0.1789(7) 0.6023(5) 0.0576(5)
N3 N 0.3614(5) 0.4262(4) 0.7797(5)
N4 N 0.3638(6) 0.2822(4) 0.5592(5)
O1 O 0.1662(3) 0.9015(3) 0.2242(4)
O2 O 0.0481(4) 0.9277(4) 0.3156(4)
O3 O -0.1120(4) 0.9177(3) 0.2143(4)
O4 O -0.1077(3) 0.9294(4) 0.0373(4)
O5 O -0.0379(4) 0.8039(5) -0.0202(5)
O6 O 0.1274(3) 0.8013(3) 0.0811(4)
O7 O 0.2347(3) 0.3882(3) 0.9527(4)
O8 O 0.2288(4) 0.2665(3) 0.8368(4)
O9 O 0.3723(4) 0.2349(3) 0.7925(3)
O10 O 0.5277(3) 0.2654(3) 0.9094(3)
O11 O 0.5336(3) 0.3836(2) 1.0312(3)
O12 O 0.3901(3) 0.4185(3) 1.0764(3)
S1 S 0.26570(11) 0.65731(11) 0.39273(12)
S2 S 0.34715(14) 0.59095(13) 0.26594(13)
S3 S 0.39358(12) 0.56437(9) 0.61652(12)
S4 S 0.38801(11) 0.46442(9) 0.46341(11)
C1 C 0.1847(6) 0.9221(6) 0.3164(6)
H1 H 0.2358 0.9498 0.3332
H2 H 0.1919 0.8771 0.3527
C2 C 0.1202(7) 0.9677(6) 0.3337(7)
H3 H 0.1361 0.9834 0.3957
H4 H 0.1121 1.0123 0.2967
C3 C -0.0142(8) 0.9738(8) 0.3338(8)
H5 H -0.0012 0.9831 0.3975
H6 H -0.0159 1.0217 0.3040
C4 C -0.0891(8) 0.9399(7) 0.3050(7)
H7 H -0.1302 0.9741 0.3142
H8 H -0.0891 0.8960 0.3417
C5 C -0.1544(5) 0.9745(5) 0.1553(7)
H9 H -0.1196 1.0182 0.1598
H10 H -0.2030 0.9893 0.1717
C6 C -0.1776(5) 0.9467(5) 0.0642(6)
H11 H -0.2111 0.9021 0.0602
H12 H -0.2097 0.9843 0.0246
C7 C -0.1275(7) 0.9064(7) -0.0536(7)
H13 H -0.1449 0.9490 -0.0928
H14 H -0.1715 0.8699 -0.0661
C8 C -0.0497(9) 0.8713(9) -0.0682(8)
H15 H -0.0568 0.8620 -0.1311
H16 H -0.0031 0.9044 -0.0460
C9 C 0.0252(8) 0.7526(7) -0.0371(7)
H17 H 0.0262 0.7065 -0.0038
H18 H 0.0105 0.7400 -0.1001
C10 C 0.1062(6) 0.7860(6) -0.0114(6)
H19 H 0.1456 0.7519 -0.0244
H20 H 0.1061 0.8320 -0.0445
C11 C 0.2032(5) 0.8387(6) 0.1079(6)
H21 H 0.1996 0.8854 0.0754
H22 H 0.2450 0.8080 0.0940
C12 C 0.2263(5) 0.8541(6) 0.2048(6)
H23 H 0.2300 0.8075 0.2376
H24 H 0.2793 0.8784 0.2229
C13 C 0.1668(6) 0.3397(6) 0.9233(8)
H25 H 0.1171 0.3659 0.9239
H26 H 0.1732 0.2971 0.9633
C14 C 0.1604(6) 0.3135(6) 0.8329(8)
H27 H 0.1099 0.2857 0.8095
H28 H 0.1601 0.3558 0.7939
C15 C 0.2292(6) 0.2395(6) 0.7533(7)
H29 H 0.2316 0.2809 0.7139
H30 H 0.1796 0.2112 0.7270
C16 C 0.3029(7) 0.1899(5) 0.7653(6)
H31 H 0.3038 0.1519 0.8099
H32 H 0.3011 0.1652 0.7095
C17 C 0.4429(6) 0.1937(5) 0.7914(6)
H33 H 0.4372 0.1743 0.7319
H34 H 0.4502 0.1518 0.8324
C18 C 0.5140(6) 0.2442(5) 0.8183(5)
H35 H 0.5621 0.2191 0.8108
H36 H 0.5041 0.2886 0.7808
C19 C 0.5952(5) 0.3133(5) 0.9418(6)
H37 H 0.5894 0.3570 0.9035
H38 H 0.6450 0.2874 0.9409
C20 C 0.6010(5) 0.3372(5) 1.0333(6)
H39 H 0.6008 0.2938 1.0705
H40 H 0.6516 0.3644 1.0581
C21 C 0.5338(5) 0.4091(4) 1.1180(5)
H41 H 0.5842 0.4359 1.1454
H42 H 0.5305 0.3666 1.1556
C22 C 0.4636(5) 0.4588(4) 1.1098(5)
H43 H 0.4657 0.4797 1.1678
H44 H 0.4655 0.4999 1.0698
C23 C 0.3200(6) 0.4636(5) 1.0650(6)
H45 H 0.3184 0.5010 1.0195
H46 H 0.3227 0.4895 1.1204
C24 C 0.2452(6) 0.4177(6) 1.0386(6)
H47 H 0.2493 0.3771 1.0809
H48 H 0.1983 0.4482 1.0392
C25 C 0.2641(4) 0.6307(3) 0.2869(4)
C26 C 0.1931(5) 0.6428(4) 0.2173(5)
C27 C 0.1208(5) 0.6736(4) 0.2306(5)
C28 C 0.1854(6) 0.6196(5) 0.1289(6)
C29 C 0.3852(4) 0.4765(3) 0.5718(4)
C30 C 0.3757(4) 0.4145(4) 0.6220(4)
C31 C 0.3674(5) 0.4221(4) 0.7088(5)
C32 C 0.3691(5) 0.3415(4) 0.5866(5)
K2C K 0.38100(9) 0.17258(8) 0.43293(9)
N4C N 0.3638(6) 0.2178(4) 1.0592(5)
loop_
_geom_bond_atom_site_label_1
_geom_bond_atom_site_label_2
_geom_bond_site_symmetry_1
_geom_bond_site_symmetry_2
Pb1 S1 1_555 1_555
K1 N1 1_555 1_555
K2 N3 1_555 1_555
N1 C27 1_555 1_555
N2 C28 1_555 1_555
N3 C31 1_555 1_555
N4 C32 1_555 1_555
O1 K1 1_555 1_555
O2 K1 1_555 1_555
O3 K1 1_555 1_555
O4 K1 1_555 1_555
O5 K1 1_555 1_555
O6 K1 1_555 1_555
O7 K2 1_555 1_555
O8 K2 1_555 1_555
O9 K2 1_555 1_555
O10 K2 1_555 1_555
O11 K2 1_555 1_555
O12 K2 1_555 1_555
S1 C25 1_555 1_555
S2 Pb1 1_555 1_555
S3 Pb1 1_555 1_555
S4 Pb1 1_555 1_555
C1 O1 1_555 1_555
H1 C1 1_555 1_555
H2 C1 1_555 1_555
C2 O2 1_555 1_555
H3 C2 1_555 1_555
H4 C2 1_555 1_555
C3 O2 1_555 1_555
H5 C3 1_555 1_555
H6 C3 1_555 1_555
C4 O3 1_555 1_555
H7 C4 1_555 1_555
H8 C4 1_555 1_555
C5 O3 1_555 1_555
H9 C5 1_555 1_555
H10 C5 1_555 1_555
C6 O4 1_555 1_555
H11 C6 1_555 1_555
H12 C6 1_555 1_555
C7 O4 1_555 1_555
H13 C7 1_555 1_555
H14 C7 1_555 1_555
C8 O5 1_555 1_555
H15 C8 1_555 1_555
H16 C8 1_555 1_555
C9 O5 1_555 1_555
H17 C9 1_555 1_555
H18 C9 1_555 1_555
C10 O6 1_555 1_555
H19 C10 1_555 1_555
H20 C10 1_555 1_555
C11 O6 1_555 1_555
H21 C11 1_555 1_555
H22 C11 1_555 1_555
C12 O1 1_555 1_555
H23 C12 1_555 1_555
H24 C12 1_555 1_555
C13 O7 1_555 1_555
H25 C13 1_555 1_555
H26 C13 1_555 1_555
C14 O8 1_555 1_555
H27 C14 1_555 1_555
H28 C14 1_555 1_555
C15 O8 1_555 1_555
H29 C15 1_555 1_555
H30 C15 1_555 1_555
C16 O9 1_555 1_555
H31 C16 1_555 1_555
H32 C16 1_555 1_555
C17 O9 1_555 1_555
H33 C17 1_555 1_555
H34 C17 1_555 1_555
C18 O10 1_555 1_555
H35 C18 1_555 1_555
H36 C18 1_555 1_555
C19 O10 1_555 1_555
H37 C19 1_555 1_555
H38 C19 1_555 1_555
C20 O11 1_555 1_555
H39 C20 1_555 1_555
H40 C20 1_555 1_555
C21 O11 1_555 1_555
H41 C21 1_555 1_555
H42 C21 1_555 1_555
C22 O12 1_555 1_555
H43 C22 1_555 1_555
H44 C22 1_555 1_555
C23 O12 1_555 1_555
H45 C23 1_555 1_555
H46 C23 1_555 1_555
C24 O7 1_555 1_555
H47 C24 1_555 1_555
H48 C24 1_555 1_555
C25 S2 1_555 1_555
C26 C25 1_555 1_555
C27 C26 1_555 1_555
C28 C26 1_555 1_555
C29 S3 1_555 1_555
C30 C29 1_555 1_555
C31 C30 1_555 1_555
C32 C30 1_555 1_555
K2C N4 1_555 1_555
N4C K2 1_555 1_555
S4 C29 1_555 1_555
C1 C2 1_555 1_555
C3 C4 1_555 1_555
C5 C6 1_555 1_555
C7 C8 1_555 1_555
C9 C10 1_555 1_555
C11 C12 1_555 1_555
C13 C14 1_555 1_555
C15 C16 1_555 1_555
C17 C18 1_555 1_555
C19 C20 1_555 1_555
C21 C22 1_555 1_555
C23 C24 1_555 1_555

#END
