
#######################################################################
#
#                 Cambridge Crystallographic Data Centre
#                                CCDC 
#
#######################################################################
#
# If this CIF has been generated from an entry in the Cambridge 
# Structural Database, then it will include bibliographic, chemical, 
# crystal, experimental, refinement or atomic coordinate data resulting 
# from the CCDC's data processing and validation procedures.
#
#######################################################################

data_VEBNOG
_symmetry_cell_setting           monoclinic
_symmetry_space_group_name_H-M   'P 21/c'
_symmetry_Int_Tables_number      14
_space_group_name_Hall           '-P 2ybc'
loop_
_symmetry_equiv_pos_site_id
_symmetry_equiv_pos_as_xyz
1 x,y,z
2 -x,1/2+y,1/2-z
3 -x,-y,-z
4 x,1/2-y,1/2+z
_cell_length_a                   11.818(7)
_cell_length_b                   11.355(7)
_cell_length_c                   14.866(9)
_cell_angle_alpha                90
_cell_angle_beta                 112.052(11)
_cell_angle_gamma                90
_cell_volume                     1848.98
loop_
_atom_site_label
_atom_site_type_symbol
_atom_site_fract_x
_atom_site_fract_y
_atom_site_fract_z
U1 U 0.89735(3) 0.64992(3) 0.72172(3)
P1 P 0.5717(3) 0.6776(3) 0.5722(2)
P2 P 0.1707(3) 0.6576(3) 0.3617(2)
P3 P 0.1671(3) 1.0357(3) 0.3604(2)
O1 O 0.7038(7) 0.6642(7) 0.5929(6)
O2 O 0.4990(6) 0.5656(6) 0.5623(5)
O3 O 0.5184(6) 0.7610(7) 0.4806(5)
H1 H 0.4699 0.8230 0.4916
O4 O 0.1757(6) 0.5426(7) 0.3093(5)
O5 O 0.0610(7) 0.7313(8) 0.3072(6)
O6 O 0.2855(8) 0.7363(8) 0.3836(6)
H2 H 0.3490 0.6973 0.4165
O7 O 0.0482(6) 0.9727(6) 0.3382(5)
O8 O 0.1598(8) 1.1515(8) 0.3099(6)
O9 O 0.2643(7) 0.9594(7) 0.3442(5)
H3 H 0.2364 0.8793 0.3333
O10 O 0.9624(7) 0.6351(8) 0.6328(7)
O11 O 0.8313(8) 0.6614(6) 0.8120(5)
N1 N 0.4316(8) 0.7772(8) 0.6626(7)
H4 H 0.3838 0.7875 0.5988
N2 N 0.2014(8) 0.7007(9) 0.5529(7)
N3 N 0.2621(8) 0.9749(9) 0.5541(6)
C1 C 0.3850(8) 0.6737(9) 0.6971(6)
H5 H 0.4125 0.6759 0.7673
H6 H 0.4166 0.6025 0.6790
C2 C 0.2448(11) 0.6722(9) 0.6524(8)
H7 H 0.2156 0.5946 0.6605
H8 H 0.2131 0.7284 0.6861
C3 C 0.1095(10) 0.8072(10) 0.5272(7)
H9 H 0.0790 0.8180 0.4574
H10 H 0.0406 0.7844 0.5437
C4 C 0.1531(10) 0.9225(9) 0.5726(7)
H11 H 0.1823 0.9099 0.6422
H12 H 0.0872 0.9794 0.5561
C5 C 0.3722(9) 0.9891(11) 0.6415(8)
H13 H 0.3577 1.0541 0.6782
H14 H 0.4374 1.0132 0.6209
C6 C 0.4209(10) 0.8839(9) 0.7131(7)
H15 H 0.4974 0.9037 0.7651
H16 H 0.3610 0.8691 0.7418
C7 C 0.5582(11) 0.7643(11) 0.6701(7)
H17 H 0.6055 0.7271 0.7315
H18 H 0.5925 0.8419 0.6697
C8 C 0.1677(9) 0.6153(11) 0.4785(8)
H19 H 0.0857 0.5890 0.4681
H20 H 0.2214 0.5480 0.5019
C9 C 0.2331(10) 1.0703(11) 0.4867(7)
H21 H 0.3075 1.1144 0.4981
H22 H 0.1773 1.1222 0.5015
U1B U 0.10265(3) 0.35008(3) 0.27828(3)
U1C U -0.10265(3) 0.85008(3) 0.22172(3)
U1B_2 U 0.10265(3) 1.35008(3) 0.27828(3)
O4B O 0.8243(6) 0.4574(7) 0.6907(5)
O5C O 1.0610(7) 0.7687(8) 0.8072(6)
O7C O 1.0482(6) 0.5273(6) 0.8382(5)
O8B O 0.8402(8) 0.8485(8) 0.6901(6)
O12 O 0.7502(7) 0.8782(6) 0.8925(5)
H23 H 0.7729 0.8176 0.8702
H24 H 0.7222 0.8575 0.9351
loop_
_geom_bond_atom_site_label_1
_geom_bond_atom_site_label_2
_geom_bond_site_symmetry_1
_geom_bond_site_symmetry_2
U1 O1 1_555 1_555
P1 O1 1_555 1_555
P2 O4 1_555 1_555
P3 O7 1_555 1_555
O2 P1 1_555 1_555
O3 P1 1_555 1_555
H1 O3 1_555 1_555
O4 U1B 1_555 1_555
O5 P2 1_555 1_555
O6 P2 1_555 1_555
H2 O6 1_555 1_555
O7 U1C 1_555 1_555
O8 P3 1_555 1_555
O9 P3 1_555 1_555
H3 O9 1_555 1_555
O10 U1 1_555 1_555
O11 U1 1_555 1_555
N1 H4 1_555 1_555
N2 C2 1_555 1_555
N3 C4 1_555 1_555
C1 N1 1_555 1_555
H5 C1 1_555 1_555
H6 C1 1_555 1_555
C2 C1 1_555 1_555
H7 C2 1_555 1_555
H8 C2 1_555 1_555
C3 N2 1_555 1_555
H9 C3 1_555 1_555
H10 C3 1_555 1_555
C4 C3 1_555 1_555
H11 C4 1_555 1_555
H12 C4 1_555 1_555
C5 N3 1_555 1_555
H13 C5 1_555 1_555
H14 C5 1_555 1_555
C6 N1 1_555 1_555
H15 C6 1_555 1_555
H16 C6 1_555 1_555
C7 P1 1_555 1_555
H17 C7 1_555 1_555
H18 C7 1_555 1_555
C8 P2 1_555 1_555
H19 C8 1_555 1_555
H20 C8 1_555 1_555
C9 P3 1_555 1_555
H21 C9 1_555 1_555
H22 C9 1_555 1_555
O12 H23 1_555 1_555
H24 O12 1_555 1_555
U1C O5 1_555 1_555
U1B_2 O8 1_555 1_555
O4B U1 1_555 1_555
O5C U1 1_555 1_555
O7C U1 1_555 1_555
O8B U1 1_555 1_555
N1 C7 1_555 1_555
N2 C8 1_555 1_555
N3 C9 1_555 1_555
C5 C6 1_555 1_555

#END
