
#######################################################################
#
#                 Cambridge Crystallographic Data Centre
#                                CCDC 
#
#######################################################################
#
# If this CIF has been generated from an entry in the Cambridge 
# Structural Database, then it will include bibliographic, chemical, 
# crystal, experimental, refinement or atomic coordinate data resulting 
# from the CCDC's data processing and validation procedures.
#
#######################################################################

data_VEBPID
_symmetry_cell_setting           monoclinic
_symmetry_space_group_name_H-M   'C 2/c'
_symmetry_Int_Tables_number      15
_space_group_name_Hall           '-C 2yn'
loop_
_symmetry_equiv_pos_site_id
_symmetry_equiv_pos_as_xyz
1 x,y,z
2 -x,y,1/2-z
3 1/2+x,1/2+y,z
4 1/2-x,1/2+y,1/2-z
5 -x,-y,-z
6 x,-y,1/2+z
7 1/2-x,1/2-y,-z
8 1/2+x,1/2-y,1/2+z
_cell_length_a                   21.296(4)
_cell_length_b                   19.244(4)
_cell_length_c                   14.341(3)
_cell_angle_alpha                90
_cell_angle_beta                 126.62(3)
_cell_angle_gamma                90
_cell_volume                     4717.12
loop_
_atom_site_label
_atom_site_type_symbol
_atom_site_fract_x
_atom_site_fract_y
_atom_site_fract_z
Ag1 Ag 0.0000 0.245211(14) 0.7500
N1 N -0.11664(10) 0.19962(10) 0.70199(16)
N2 N -0.13009(11) 0.18634(10) 0.85198(16)
N3 N -0.10810(12) 0.09001(10) 0.77696(17)
N4 N -0.39843(10) 0.21541(10) 0.43007(16)
N5 N -0.43043(12) 0.12348(11) 0.50095(18)
N6 N -0.40031(12) 0.23244(11) 0.58908(18)
C1 C -0.18271(12) 0.22458(11) 0.60887(18)
C2 C -0.25798(12) 0.20824(11) 0.57446(18)
H1 H -0.2630 0.1815 0.6237
C3 C -0.32551(12) 0.23066(11) 0.46915(19)
C4 C -0.11983(12) 0.15777(12) 0.77768(18)
C5 C -0.12382(17) 0.26154(13) 0.8704(2)
H2 H -0.0902 0.2806 0.8531
H3 H -0.1024 0.2712 0.9499
H4 H -0.1748 0.2822 0.8203
C6 C -0.16466(15) 0.14796(14) 0.9006(2)
H5 H -0.1919 0.1078 0.8535
H6 H -0.2006 0.1776 0.9013
H7 H -0.1239 0.1335 0.9784
C7 C -0.1211(2) 0.05687(15) 0.6748(3)
H8 H -0.1609 0.0818 0.6062
H9 H -0.1376 0.0097 0.6695
H10 H -0.0734 0.0575 0.6818
C8 C -0.07032(17) 0.04622(14) 0.8815(2)
H11 H -0.0486 0.0752 0.9487
H12 H -0.0294 0.0194 0.8893
H13 H -0.1084 0.0155 0.8746
C9 C -0.40848(12) 0.18889(12) 0.5103(2)
C10 C -0.47208(17) 0.09745(16) 0.5467(3)
H14 H -0.4923 0.1360 0.5639
H15 H -0.5145 0.0681 0.4897
H16 H -0.4366 0.0712 0.6163
C11 C -0.42094(18) 0.07312(14) 0.4334(3)
H17 H -0.3897 0.0933 0.4125
H18 H -0.3955 0.0322 0.4793
H19 H -0.4714 0.0609 0.3643
C12 C -0.37408(19) 0.21025(18) 0.7059(2)
H20 H -0.3548 0.1635 0.7199
H21 H -0.3331 0.2405 0.7634
H22 H -0.4173 0.2124 0.7103
C13 C -0.39763(17) 0.30771(13) 0.5758(3)
H23 H -0.4307 0.3195 0.4947
H24 H -0.4156 0.3314 0.6147
H25 H -0.3448 0.3215 0.6091
Ag1F Ag -0.5000 0.254789(14) 0.2500
N1F N -0.38336(10) 0.30038(10) 0.29801(16)
N1A N 0.11664(10) 0.19962(10) 0.79801(16)
N2F N -0.36991(11) 0.31366(10) 0.14802(16)
N3F N -0.39190(12) 0.40999(10) 0.22304(17)
N4F N -0.10157(10) 0.28459(10) 0.56993(16)
N4G N 0.10157(10) 0.28459(10) 0.93007(16)
N5F N -0.06957(12) 0.37652(11) 0.49905(18)
N6F N -0.09969(12) 0.26756(11) 0.41092(18)
C1F C -0.31729(12) 0.27542(11) 0.39113(18)
C2F C -0.24202(12) 0.29176(11) 0.42554(18)
H1F H -0.2370 0.3185 0.3763
C3F C -0.17449(12) 0.26934(11) 0.53085(19)
C4F C -0.38017(12) 0.34223(12) 0.22232(18)
C5F C -0.37618(17) 0.23846(13) 0.1296(2)
H2F H -0.4098 0.2194 0.1469
H3F H -0.3976 0.2288 0.0501
H4F H -0.3252 0.2178 0.1797
C6F C -0.33534(15) 0.35204(14) 0.0994(2)
H5F H -0.3081 0.3922 0.1465
H6F H -0.2994 0.3224 0.0987
H7F H -0.3761 0.3665 0.0216
C7F C -0.3789(2) 0.44313(15) 0.3252(3)
H8F H -0.3391 0.4182 0.3938
H9F H -0.3624 0.4903 0.3305
H10F H -0.4266 0.4425 0.3182
C8F C -0.42968(17) 0.45378(14) 0.1185(2)
H11F H -0.4514 0.4248 0.0513
H12F H -0.4706 0.4806 0.1107
H13F H -0.3916 0.4845 0.1254
C9F C -0.09152(12) 0.31111(12) 0.4897(2)
C10F C -0.02792(17) 0.40255(16) 0.4533(3)
H14F H -0.0077 0.3640 0.4361
H15F H 0.0145 0.4319 0.5103
H16F H -0.0634 0.4288 0.3837
C11F C -0.07906(18) 0.42688(14) 0.5666(3)
H17F H -0.1103 0.4067 0.5875
H18F H -0.1045 0.4678 0.5207
H19F H -0.0286 0.4391 0.6357
C12F C -0.12592(19) 0.28975(18) 0.2941(2)
H20F H -0.1452 0.3365 0.2801
H21F H -0.1669 0.2595 0.2366
H22F H -0.0827 0.2876 0.2897
C13F C -0.10237(17) 0.19229(13) 0.4242(3)
H23F H -0.0693 0.1805 0.5053
H24F H -0.0844 0.1686 0.3853
H25F H -0.1552 0.1785 0.3909
P1 P 0.20983(4) 0.45551(4) 0.78542(6)
F1 F 0.14777(17) 0.42212(11) 0.66370(18)
F2 F 0.27387(19) 0.48930(16) 0.90484(18)
F3 F 0.20494(11) 0.52536(9) 0.71976(15)
F4 F 0.14172(16) 0.48330(12) 0.7884(2)
F5 F 0.21370(12) 0.38618(9) 0.84926(17)
F6 F 0.27604(19) 0.42821(18) 0.7771(3)
P2 P 0.0000 0.86114(5) 0.7500
F7 F -0.08984(10) 0.86152(11) 0.69946(15)
F8 F 0.01826(10) 0.80301(9) 0.84253(16)
F9 F 0.01801(12) 0.92038(9) 0.84181(14)
F7A F 0.08984(10) 0.86152(11) 0.80054(15)
F8A F -0.01826(10) 0.80301(9) 0.65747(16)
F9A F -0.01801(12) 0.92038(9) 0.65819(14)
loop_
_geom_bond_atom_site_label_1
_geom_bond_atom_site_label_2
_geom_bond_site_symmetry_1
_geom_bond_site_symmetry_2
Ag1 N1 1_555 1_555
P1 F1 1_555 1_555
P2 F7 1_555 1_555
F2 P1 1_555 1_555
F3 P1 1_555 1_555
F4 P1 1_555 1_555
F5 P1 1_555 1_555
F6 P1 1_555 1_555
F8 P2 1_555 1_555
F9 P2 1_555 1_555
N1 C1 1_555 1_555
N2 C4 1_555 1_555
N3 C4 1_555 1_555
N4 C3 1_555 1_555
N5 C9 1_555 1_555
N6 C9 1_555 1_555
C1 C2 1_555 1_555
C2 H1 1_555 1_555
C3 C2 1_555 1_555
C4 N1 1_555 1_555
C5 N2 1_555 1_555
H2 C5 1_555 1_555
H3 C5 1_555 1_555
H4 C5 1_555 1_555
C6 N2 1_555 1_555
H5 C6 1_555 1_555
H6 C6 1_555 1_555
H7 C6 1_555 1_555
C7 N3 1_555 1_555
H8 C7 1_555 1_555
H9 C7 1_555 1_555
H10 C7 1_555 1_555
C8 N3 1_555 1_555
H11 C8 1_555 1_555
H12 C8 1_555 1_555
H13 C8 1_555 1_555
C9 N4 1_555 1_555
C10 N5 1_555 1_555
H14 C10 1_555 1_555
H15 C10 1_555 1_555
H16 C10 1_555 1_555
C11 N5 1_555 1_555
H17 C11 1_555 1_555
H18 C11 1_555 1_555
H19 C11 1_555 1_555
C12 N6 1_555 1_555
H20 C12 1_555 1_555
H21 C12 1_555 1_555
H22 C12 1_555 1_555
C13 N6 1_555 1_555
H23 C13 1_555 1_555
H24 C13 1_555 1_555
H25 C13 1_555 1_555
Ag1F N4 1_555 1_555
F7A P2 1_555 1_555
F8A P2 1_555 1_555
F9A P2 1_555 1_555
N1F Ag1F 1_555 1_555
N1A Ag1 1_555 1_555
N2F C4F 1_555 1_555
N3F C4F 1_555 1_555
N4F Ag1 1_555 1_555
N4G Ag1 1_555 1_555
N5F C9F 1_555 1_555
N6F C9F 1_555 1_555
C1F C3 1_555 1_555
C2F C1F 1_555 1_555
H1F C2F 1_555 1_555
C3F C1 1_555 1_555
C4F N1F 1_555 1_555
C5F N2F 1_555 1_555
H2F C5F 1_555 1_555
H3F C5F 1_555 1_555
H4F C5F 1_555 1_555
C6F N2F 1_555 1_555
H5F C6F 1_555 1_555
H6F C6F 1_555 1_555
H7F C6F 1_555 1_555
C7F N3F 1_555 1_555
H8F C7F 1_555 1_555
H9F C7F 1_555 1_555
H10F C7F 1_555 1_555
C8F N3F 1_555 1_555
H11F C8F 1_555 1_555
H12F C8F 1_555 1_555
H13F C8F 1_555 1_555
C9F N4F 1_555 1_555
C10F N5F 1_555 1_555
H14F C10F 1_555 1_555
H15F C10F 1_555 1_555
H16F C10F 1_555 1_555
C11F N5F 1_555 1_555
H17F C11F 1_555 1_555
H18F C11F 1_555 1_555
H19F C11F 1_555 1_555
C12F N6F 1_555 1_555
H20F C12F 1_555 1_555
H21F C12F 1_555 1_555
H22F C12F 1_555 1_555
C13F N6F 1_555 1_555
H23F C13F 1_555 1_555
H24F C13F 1_555 1_555
H25F C13F 1_555 1_555
N1F C1F 1_555 1_555
N4F C3F 1_555 1_555
C2F C3F 1_555 1_555

#END
