
#######################################################################
#
#                 Cambridge Crystallographic Data Centre
#                                CCDC 
#
#######################################################################
#
# If this CIF has been generated from an entry in the Cambridge 
# Structural Database, then it will include bibliographic, chemical, 
# crystal, experimental, refinement or atomic coordinate data resulting 
# from the CCDC's data processing and validation procedures.
#
#######################################################################

data_VEBTEB
_symmetry_cell_setting           monoclinic
_symmetry_space_group_name_H-M   'P 21/n'
_symmetry_Int_Tables_number      14
_space_group_name_Hall           '-P 2yn'
loop_
_symmetry_equiv_pos_site_id
_symmetry_equiv_pos_as_xyz
1 x,y,z
2 1/2-x,1/2+y,1/2-z
3 -x,-y,-z
4 1/2+x,1/2-y,1/2+z
_cell_length_a                   12.881(1)
_cell_length_b                   11.384(2)
_cell_length_c                   17.080(2)
_cell_angle_alpha                90
_cell_angle_beta                 104.06(2)
_cell_angle_gamma                90
_cell_volume                     2429.53
loop_
_atom_site_label
_atom_site_type_symbol
_atom_site_fract_x
_atom_site_fract_y
_atom_site_fract_z
Sn1 Sn 0.7662 0.1990 0.2175
O1 O 0.7206(2) 0.0177(2) 0.2526(1)
O2 O 0.8117(2) 0.3716(2) 0.1716(1)
O3 O 0.6396(5) 0.2053(3) 0.4949(2)
C1 C 0.9009(3) 0.2042(3) 0.3198(2)
C2 C 0.9391(4) 0.3095(3) 0.3543(3)
C3 C 1.0267(4) 0.3133(4) 0.4198(3)
C4 C 1.0770(4) 0.2103(4) 0.4508(3)
C5 C 1.0387(4) 0.1046(5) 0.4187(3)
C6 C 0.9513(4) 0.1015(4) 0.3526(3)
C7 C 0.6144(3) 0.2679(3) 0.2213(2)
C8 C 0.6018(3) 0.3330(3) 0.2872(2)
C9 C 0.5024(3) 0.3815(4) 0.2878(3)
C10 C 0.4168(4) 0.3661(5) 0.2252(3)
C11 C 0.4268(4) 0.3025(4) 0.1601(4)
C12 C 0.5253(3) 0.2513(4) 0.1566(2)
C13 C 0.7916(3) 0.1246(3) 0.1097(2)
C14 C 0.8729(3) 0.1695(4) 0.0762(3)
C15 C 0.8925(4) 0.1208(5) 0.0072(3)
C16 C 0.8337(4) 0.0267(5) -0.0286(3)
C17 C 0.7545(4) -0.0179(4) 0.0012(2)
C18 C 0.7317(3) 0.0314(4) 0.0704(2)
C19 C 0.6389(3) 0.0666(4) 0.5949(2)
C20 C 0.6248(3) 0.1536(5) 0.6494(3)
C21 C 0.6161(4) 0.1257(6) 0.7242(3)
C22 C 0.6225(5) 0.0113(7) 0.7479(3)
C23 C 0.6381(6) -0.0745(6) 0.6977(3)
C24 C 0.6465(4) -0.0488(5) 0.6200(3)
C25 C 0.6985(3) -0.0203(3) 0.3152(2)
C26 C 0.6774(3) 0.0655(3) 0.3767(2)
C27 C 0.6659(3) 0.0103(3) 0.4552(2)
C28 C 0.6490(3) 0.1030(4) 0.5136(2)
C25A C 0.8015(3) 0.4797(3) 0.1848(2)
O2A O 0.6883(2) -0.1284(2) 0.3284(1)
O1A O 0.7794(2) 0.5177(2) 0.2474(1)
C26A C 0.8226(3) 0.5655(3) 0.1233(2)
Sn1A Sn 0.7338 -0.3010 0.2825
Sn1A_2 Sn 0.7338 0.6990 0.2825
C27A C 0.8341(3) 0.5103(3) 0.0448(2)
O1A_2 O 0.7794(2) -0.4823(2) 0.2474(1)
C1A C 0.5991(3) -0.2958(3) 0.1802(2)
C7A C 0.8856(3) -0.2321(3) 0.2787(2)
C13A C 0.7084(3) -0.3754(3) 0.3903(2)
C28A C 0.8510(3) 0.6030(4) -0.0136(2)
C2A C 0.5609(4) -0.1905(3) 0.1457(3)
C6A C 0.5487(4) -0.3985(4) 0.1474(3)
C8A C 0.8982(3) -0.1670(3) 0.2128(2)
C12A C 0.9747(3) -0.2487(4) 0.3434(2)
C14A C 0.6271(3) -0.3305(4) 0.4238(3)
C18A C 0.7683(3) -0.4686(4) 0.4296(2)
O3A O 0.8604(5) 0.7053(3) 0.0051(2)
C19A C 0.8611(3) 0.5666(4) -0.0949(2)
C3A C 0.4733(4) -0.1867(4) 0.0802(3)
C5A C 0.4613(4) -0.3954(5) 0.0813(3)
C9A C 0.9976(3) -0.1185(4) 0.2122(3)
C11A C 1.0732(4) -0.1975(4) 0.3399(4)
C15A C 0.6075(4) -0.3792(5) 0.4928(3)
C17A C 0.7455(4) -0.5179(4) 0.4988(2)
C20A C 0.8752(3) 0.6536(5) -0.1494(3)
C24A C 0.8535(4) 0.4512(5) -0.1200(3)
C4A C 0.4230(4) -0.2897(4) 0.0492(3)
C10A C 1.0832(4) -0.1339(5) 0.2748(3)
C16A C 0.6663(4) -0.4733(5) 0.5286(3)
C21A C 0.8839(4) 0.6257(6) -0.2242(3)
C23A C 0.8619(6) 0.4255(6) -0.1977(3)
C22A C 0.8775(5) 0.5113(7) -0.2479(3)
loop_
_geom_bond_atom_site_label_1
_geom_bond_atom_site_label_2
_geom_bond_site_symmetry_1
_geom_bond_site_symmetry_2
Sn1 O1 1_555 1_555
O1 C25 1_555 1_555
O2 Sn1 1_555 1_555
O3 C28 1_555 1_555
C1 Sn1 1_555 1_555
C2 C1 1_555 1_555
C3 C2 1_555 1_555
C4 C3 1_555 1_555
C5 C4 1_555 1_555
C6 C1 1_555 1_555
C7 Sn1 1_555 1_555
C8 C7 1_555 1_555
C9 C8 1_555 1_555
C10 C9 1_555 1_555
C11 C10 1_555 1_555
C12 C7 1_555 1_555
C13 Sn1 1_555 1_555
C14 C13 1_555 1_555
C15 C14 1_555 1_555
C16 C15 1_555 1_555
C17 C16 1_555 1_555
C18 C13 1_555 1_555
C19 C20 1_555 1_555
C20 C21 1_555 1_555
C21 C22 1_555 1_555
C22 C23 1_555 1_555
C23 C24 1_555 1_555
C24 C19 1_555 1_555
C25 C26 1_555 1_555
C26 C27 1_555 1_555
C27 C28 1_555 1_555
C28 C19 1_555 1_555
C25A O2 1_555 1_555
O2A C25 1_555 1_555
O1A C25A 1_555 1_555
C26A C25A 1_555 1_555
Sn1A O2A 1_555 1_555
Sn1A_2 O1A 1_555 1_555
C27A C26A 1_555 1_555
O1A_2 Sn1A 1_555 1_555
C1A Sn1A 1_555 1_555
C7A Sn1A 1_555 1_555
C13A Sn1A 1_555 1_555
C28A C27A 1_555 1_555
C2A C1A 1_555 1_555
C6A C1A 1_555 1_555
C8A C7A 1_555 1_555
C12A C7A 1_555 1_555
C14A C13A 1_555 1_555
C18A C13A 1_555 1_555
O3A C28A 1_555 1_555
C19A C28A 1_555 1_555
C3A C2A 1_555 1_555
C5A C6A 1_555 1_555
C9A C8A 1_555 1_555
C11A C12A 1_555 1_555
C15A C14A 1_555 1_555
C17A C18A 1_555 1_555
C20A C19A 1_555 1_555
C24A C19A 1_555 1_555
C4A C3A 1_555 1_555
C10A C9A 1_555 1_555
C16A C15A 1_555 1_555
C21A C20A 1_555 1_555
C23A C24A 1_555 1_555
C22A C21A 1_555 1_555
C5 C6 1_555 1_555
C11 C12 1_555 1_555
C17 C18 1_555 1_555
C5A C4A 1_555 1_555
C11A C10A 1_555 1_555
C17A C16A 1_555 1_555
C23A C22A 1_555 1_555

#END
