
#######################################################################
#
#                 Cambridge Crystallographic Data Centre
#                                CCDC 
#
#######################################################################
#
# If this CIF has been generated from an entry in the Cambridge 
# Structural Database, then it will include bibliographic, chemical, 
# crystal, experimental, refinement or atomic coordinate data resulting 
# from the CCDC's data processing and validation procedures.
#
#######################################################################

data_VECCOW
_symmetry_cell_setting           monoclinic
_symmetry_space_group_name_H-M   'C 2/c'
_symmetry_Int_Tables_number      15
_space_group_name_Hall           '-C 2yn'
loop_
_symmetry_equiv_pos_site_id
_symmetry_equiv_pos_as_xyz
1 x,y,z
2 1/2+x,1/2+y,z
3 -x,y,1/2-z
4 1/2-x,1/2+y,1/2-z
5 -x,-y,-z
6 1/2-x,1/2-y,-z
7 x,-y,1/2+z
8 1/2+x,1/2-y,1/2+z
_cell_length_a                   19.1824(8)
_cell_length_b                   14.7980(6)
_cell_length_c                   7.5167(2)
_cell_angle_alpha                90
_cell_angle_beta                 111.114(3)
_cell_angle_gamma                90
_cell_volume                     1990.45
loop_
_atom_site_label
_atom_site_type_symbol
_atom_site_fract_x
_atom_site_fract_y
_atom_site_fract_z
U1 U 0.2500 -0.2500 0.0000
Rb1 Rb 0.05594(3) -0.31752(4) 0.03886(9)
O1 O 0.1709(3) -0.3797(3) -0.1445(7)
O2 O 0.3610(3) 0.0239(3) 0.2184(7)
O3 O 0.3792(3) -0.2760(3) 0.2210(7)
O4 O 0.0245(3) -0.1464(3) -0.4259(7)
O5 O 0.2174(3) -0.2550(3) 0.1940(8)
O6 O 0.0928(3) -0.3260(3) 0.4411(8)
H1 H 0.1236 -0.3798 0.4407
H2 H 0.1222 -0.2938 0.5413
O7 O 0.0000 -0.4480(5) -0.2500
H3 H 0.0437 -0.4963 -0.2268
N1 N 0.3029(3) -0.4171(4) 0.0779(7)
C1 C 0.2621(4) -0.4891(5) -0.0037(8)
C2 C 0.2869(4) -0.5780(5) 0.0298(9)
H4 H 0.2560 -0.6259 -0.0308
C3 C 0.3596(4) -0.5933(4) 0.1571(9)
H5 H 0.3789 -0.6516 0.1811
C4 C 0.4022(4) -0.5198(4) 0.2466(9)
H6 H 0.4503 -0.5282 0.3342
C5 C 0.3727(4) -0.4329(4) 0.2050(9)
C6 C 0.1834(4) -0.4647(4) -0.1355(9)
C7 C 0.4141(3) -0.3479(4) 0.2946(9)
Rb1B Rb -0.05594(3) -0.31752(4) -0.53886(9)
Rb1B_2 Rb -0.05594(3) -0.31752(4) 0.46114(9)
Rb1E Rb 0.44406(3) -0.18248(4) -0.03886(9)
Rb1G Rb 0.55594(3) -0.18248(4) 0.53886(9)
Rb1C Rb 0.44406(3) 0.18248(4) 0.46114(9)
Rb1F Rb 0.05594(3) -0.68248(4) -0.46114(9)
O1E O 0.3291(3) -0.1203(3) 0.1445(7)
O2F O 0.3610(3) -0.0239(3) -0.2816(7)
O2C O 0.1390(3) -0.4761(3) 0.2816(7)
O2E O 0.1390(3) -0.5239(3) -0.2184(7)
O3E O 0.1208(3) -0.2240(3) -0.2210(7)
O4B O -0.0245(3) -0.1464(3) -0.0741(7)
O4G O 0.5245(3) -0.3536(3) 0.0741(7)
O4E O 0.4755(3) -0.3536(3) 0.4259(7)
O5E O 0.2826(3) -0.2450(3) -0.1940(8)
O6B O -0.0928(3) -0.3260(3) 0.0589(8)
O6E O 0.4072(3) -0.1740(3) -0.4411(8)
O6G O 0.5928(3) -0.1740(3) -0.0589(8)
H1B H -0.1236 -0.3798 0.0593
H1G H 0.6236 -0.1202 -0.0593
H1E H 0.3764 -0.1202 -0.4407
H2B H -0.1222 -0.2938 -0.0413
H2G H 0.6222 -0.2062 0.0413
H2E H 0.3778 -0.2062 -0.5413
O7G O 0.5000 -0.0520(5) 0.2500
H3B H -0.0437 -0.4963 -0.2732
H3E H 0.4563 -0.0037 0.2268
H3G H 0.5437 -0.0037 0.2732
N1E N 0.1971(3) -0.0829(4) -0.0779(7)
C1E C 0.2379(4) -0.0109(5) 0.0037(8)
C2E C 0.2131(4) 0.0780(5) -0.0298(9)
H4E H 0.2440 0.1259 0.0308
C3E C 0.1404(4) 0.0933(4) -0.1571(9)
H5E H 0.1211 0.1516 -0.1811
C4E C 0.0978(4) 0.0198(4) -0.2466(9)
H6E H 0.0497 0.0282 -0.3342
C5E C 0.1273(4) -0.0671(4) -0.2050(9)
C6E C 0.3166(4) -0.0353(4) 0.1355(9)
C7E C 0.0859(3) -0.1521(4) -0.2946(9)
loop_
_geom_bond_atom_site_label_1
_geom_bond_atom_site_label_2
_geom_bond_site_symmetry_1
_geom_bond_site_symmetry_2
U1 O1 1_555 1_555
Rb1 O1 1_555 1_555
O1 C6 1_555 1_555
O2 Rb1C 1_555 1_555
O3 U1 1_555 1_555
O4 Rb1B 1_555 1_555
O5 U1 1_555 1_555
O6 Rb1 1_555 1_555
H1 O6 1_555 1_555
H2 O6 1_555 1_555
O7 Rb1 1_555 1_555
H3 O7 1_555 1_555
N1 U1 1_555 1_555
C1 N1 1_555 1_555
C2 C1 1_555 1_555
H4 C2 1_555 1_555
C3 C2 1_555 1_555
H5 C3 1_555 1_555
C4 C3 1_555 1_555
H6 C4 1_555 1_555
C5 N1 1_555 1_555
C6 C1 1_555 1_555
C7 O3 1_555 1_555
Rb1B O7 1_555 1_555
Rb1B_2 O6 1_555 1_555
Rb1E O3 1_555 1_555
Rb1G O4E 1_555 1_555
Rb1F O2E 1_555 1_555
O1E U1 1_555 1_555
O2F Rb1E 1_555 1_555
O2C Rb1 1_555 1_555
O2E C6 1_555 1_555
O3E U1 1_555 1_555
O4B Rb1 1_555 1_555
O4G Rb1E 1_555 1_555
O4E C7 1_555 1_555
O5E U1 1_555 1_555
O6B Rb1 1_555 1_555
O6E Rb1E 1_555 1_555
O6G Rb1E 1_555 1_555
H1B O6B 1_555 1_555
H1G O6G 1_555 1_555
H1E O6E 1_555 1_555
H2B O6B 1_555 1_555
H2G O6G 1_555 1_555
H2E O6E 1_555 1_555
O7G Rb1E 1_555 1_555
H3B O7 1_555 1_555
H3E O7G 1_555 1_555
H3G O7G 1_555 1_555
N1E U1 1_555 1_555
C1E N1E 1_555 1_555
C2E C1E 1_555 1_555
H4E C2E 1_555 1_555
C3E C2E 1_555 1_555
H5E C3E 1_555 1_555
C4E C3E 1_555 1_555
H6E C4E 1_555 1_555
C5E N1E 1_555 1_555
C6E O2 1_555 1_555
C7E O4 1_555 1_555
Rb1 O5 1_555 1_555
Rb1 O3E 1_555 1_555
C4 C5 1_555 1_555
C5 C7 1_555 1_555
Rb1B_2 O6B 1_555 1_555
Rb1E O1E 1_555 1_555
Rb1E O5E 1_555 1_555
Rb1G O7G 1_555 1_555
O1E C6E 1_555 1_555
O3E C7E 1_555 1_555
C1E C6E 1_555 1_555
C4E C5E 1_555 1_555
C5E C7E 1_555 1_555

#END
