
#######################################################################
#
#                 Cambridge Crystallographic Data Centre
#                                CCDC 
#
#######################################################################
#
# If this CIF has been generated from an entry in the Cambridge 
# Structural Database, then it will include bibliographic, chemical, 
# crystal, experimental, refinement or atomic coordinate data resulting 
# from the CCDC's data processing and validation procedures.
#
#######################################################################

data_VECDAJ
_symmetry_cell_setting           monoclinic
_symmetry_space_group_name_H-M   'P 21/c'
_symmetry_Int_Tables_number      14
_space_group_name_Hall           '-P 2ybc'
loop_
_symmetry_equiv_pos_site_id
_symmetry_equiv_pos_as_xyz
1 x,y,z
2 -x,1/2+y,1/2-z
3 -x,-y,-z
4 x,1/2-y,1/2+z
_cell_length_a                   12.016(2)
_cell_length_b                   16.589(3)
_cell_length_c                   11.867(2)
_cell_angle_alpha                90
_cell_angle_beta                 103.51(3)
_cell_angle_gamma                90
_cell_volume                     2300.03
loop_
_atom_site_label
_atom_site_type_symbol
_atom_site_fract_x
_atom_site_fract_y
_atom_site_fract_z
Mn1 Mn 0.10020(3) 0.01596(2) 0.91723(3)
Mn2 Mn 0.37621(3) -0.05037(2) 1.00759(3)
N1 N -0.01433(16) 0.00535(12) 0.73490(18)
N2 N 0.12513(18) 0.12869(12) 0.8173(2)
N3 N 0.44206(15) -0.17755(12) 0.98375(18)
N4 N 0.32978(16) -0.13121(14) 1.14466(18)
N5 N 0.26070(15) 0.04324(12) 1.04871(19)
N6 N 0.27349(16) 0.08941(14) 1.1279(2)
N7 N 0.2869(2) 0.13456(18) 1.2029(3)
N8 N 0.22090(15) -0.07059(13) 0.87115(19)
N9 N 0.2057(2) -0.11492(17) 0.7948(3)
N10 N 0.1898(4) -0.1586(3) 0.7194(4)
N11 N -0.01318(15) 0.08126(13) 1.00742(17)
N12 N -0.02794(18) 0.15156(17) 1.01119(19)
N13 N -0.0436(3) 0.22010(18) 1.0126(3)
N14 N 0.46399(16) 0.00477(13) 0.8804(2)
N15 N 0.4272(2) 0.01820(16) 0.7824(3)
N16 N 0.3905(3) 0.0326(3) 0.6879(3)
C1 C -0.0819(2) -0.05573(17) 0.6922(2)
H1 H -0.0803 -0.1018 0.7372
C2 C -0.1547(2) -0.0538(2) 0.5831(3)
H2 H -0.2012 -0.0977 0.5560
C3 C -0.1578(3) 0.0132(2) 0.5155(3)
H3 H -0.2063 0.0157 0.4419
C4 C -0.0872(2) 0.07697(19) 0.5591(3)
H4 H -0.0876 0.1235 0.5154
C5 C -0.0166(2) 0.07090(16) 0.6676(2)
C6 C 0.0618(2) 0.13555(16) 0.7178(3)
H5 H 0.0647 0.1823 0.6754
C7 C 0.2057(3) 0.19469(18) 0.8635(3)
H6 H 0.2049 0.2338 0.8037
H7 H 0.2815 0.1732 0.8894
H8 H 0.1830 0.2199 0.9274
C8 C 0.5037(2) -0.20048(17) 0.9101(2)
H9 H 0.5219 -0.1623 0.8599
C9 C 0.5421(3) -0.2785(2) 0.9047(3)
H10 H 0.5867 -0.2922 0.8532
C10 C 0.5133(3) -0.3352(2) 0.9763(3)
H11 H 0.5371 -0.3883 0.9737
C11 C 0.4490(3) -0.31247(18) 1.0519(3)
H12 H 0.4281 -0.3501 1.1013
C12 C 0.4154(2) -0.23334(16) 1.0542(2)
C13 C 0.3509(2) -0.20465(18) 1.1368(2)
H13 H 0.3252 -0.2415 1.1841
C14 C 0.2673(2) -0.10617(18) 1.2313(2)
H14 H 0.2491 -0.1528 1.2715
H15 H 0.1979 -0.0793 1.1933
H16 H 0.3140 -0.0701 1.2857
Mn1B Mn -0.10020(3) -0.01596(2) 1.08277(3)
Mn2B Mn 0.62379(3) 0.05037(2) 0.99241(3)
N11B N 0.01318(15) -0.08126(13) 0.99258(17)
N14B N 0.53601(16) -0.00477(13) 1.1196(2)
loop_
_geom_bond_atom_site_label_1
_geom_bond_atom_site_label_2
_geom_bond_site_symmetry_1
_geom_bond_site_symmetry_2
Mn1 N1 1_555 1_555
Mn2 N3 1_555 1_555
N1 C1 1_555 1_555
N2 Mn1 1_555 1_555
N3 C8 1_555 1_555
N4 Mn2 1_555 1_555
N5 Mn1 1_555 1_555
N6 N5 1_555 1_555
N7 N6 1_555 1_555
N8 Mn1 1_555 1_555
N9 N8 1_555 1_555
N10 N9 1_555 1_555
N11 Mn1 1_555 1_555
N12 N11 1_555 1_555
N13 N12 1_555 1_555
N14 Mn2 1_555 1_555
N15 N14 1_555 1_555
N16 N15 1_555 1_555
C1 H1 1_555 1_555
C2 C1 1_555 1_555
H2 C2 1_555 1_555
C3 C2 1_555 1_555
H3 C3 1_555 1_555
C4 C3 1_555 1_555
H4 C4 1_555 1_555
C5 N1 1_555 1_555
C6 N2 1_555 1_555
H5 C6 1_555 1_555
C7 N2 1_555 1_555
H6 C7 1_555 1_555
H7 C7 1_555 1_555
H8 C7 1_555 1_555
C8 H9 1_555 1_555
C9 C8 1_555 1_555
H10 C9 1_555 1_555
C10 C9 1_555 1_555
H11 C10 1_555 1_555
C11 C10 1_555 1_555
H12 C11 1_555 1_555
C12 N3 1_555 1_555
C13 N4 1_555 1_555
H13 C13 1_555 1_555
C14 N4 1_555 1_555
H14 C14 1_555 1_555
H15 C14 1_555 1_555
H16 C14 1_555 1_555
Mn1B N11 1_555 1_555
Mn2B N14 1_555 1_555
N11B Mn1 1_555 1_555
N14B Mn2 1_555 1_555
Mn2 N5 1_555 1_555
Mn2 N8 1_555 1_555
C4 C5 1_555 1_555
C5 C6 1_555 1_555
C11 C12 1_555 1_555
C12 C13 1_555 1_555
Mn1B N11B 1_555 1_555
Mn2B N14B 1_555 1_555

#END
