
#######################################################################
#
#                 Cambridge Crystallographic Data Centre
#                                CCDC 
#
#######################################################################
#
# If this CIF has been generated from an entry in the Cambridge 
# Structural Database, then it will include bibliographic, chemical, 
# crystal, experimental, refinement or atomic coordinate data resulting 
# from the CCDC's data processing and validation procedures.
#
#######################################################################

data_VECFIU
_symmetry_cell_setting           triclinic
_symmetry_space_group_name_H-M   'P -1'
_symmetry_Int_Tables_number      2
_space_group_name_Hall           '-P 1'
loop_
_symmetry_equiv_pos_site_id
_symmetry_equiv_pos_as_xyz
1 x,y,z
2 -x,-y,-z
_cell_length_a                   11.2885(13)
_cell_length_b                   13.099(3)
_cell_length_c                   17.7188(15)
_cell_angle_alpha                70.658(2)
_cell_angle_beta                 86.333(3)
_cell_angle_gamma                73.185(2)
_cell_volume                     2364.99
loop_
_atom_site_label
_atom_site_type_symbol
_atom_site_fract_x
_atom_site_fract_y
_atom_site_fract_z
C1 C -0.6631(4) 0.2674(4) 0.2345(3)
C2 C -0.3012(5) 0.2442(4) 0.2467(3)
C3 C -0.4539(4) 0.2358(4) 0.1322(3)
C4 C -0.4469(5) 0.0789(4) 0.2807(3)
C5 C -0.5062(4) 0.2468(4) 0.3579(3)
C6 C -0.5258(4) 0.4145(4) 0.1991(3)
C7 C 0.1211(5) 0.5452(4) 0.1882(3)
H1 H 0.1844 0.4993 0.2259
C8 C 0.1144(4) 0.6479(4) 0.1612(3)
H2 H 0.1647 0.6753 0.1845
C9 C 0.0352(5) 0.7217(4) 0.0982(3)
H3 H 0.0376 0.7957 0.0736
C10 C -0.0535(4) 0.6759(4) 0.0723(3)
C11 C -0.1394(4) 0.7410(4) 0.0096(3)
H4 H -0.1500 0.8182 -0.0123
C12 C -0.2093(5) 0.6905(4) -0.0205(3)
H5 H -0.2667 0.7340 -0.0624
C13 C -0.1934(4) 0.5750(4) 0.0122(3)
C14 C -0.2582(5) 0.5198(4) -0.0208(3)
H6 H -0.3118 0.5608 -0.0651
C15 C -0.2419(4) 0.4128(4) 0.0114(3)
H7 H -0.2815 0.3759 -0.0109
C16 C -0.1645(4) 0.3518(4) 0.0800(3)
H8 H -0.1591 0.2760 0.1053
C17 C -0.1075(4) 0.5100(3) 0.0749(3)
C18 C -0.0376(4) 0.5605(4) 0.1049(3)
C19 C 0.1599(4) 0.3627(4) 0.3970(3)
H9 H 0.2126 0.2929 0.3983
C20 C 0.1999(4) 0.4199(4) 0.4420(3)
H10 H 0.2679 0.3850 0.4777
C21 C 0.1315(4) 0.5299(4) 0.4294(3)
H11 H 0.1621 0.5770 0.4471
C22 C 0.0150(4) 0.5711(4) 0.3895(3)
C23 C -0.0580(5) 0.6796(4) 0.3823(3)
H12 H -0.0339 0.7215 0.4086
C24 C -0.1671(4) 0.7255(4) 0.3357(3)
H13 H -0.2160 0.7981 0.3309
C25 C -0.2032(4) 0.6630(4) 0.2963(3)
C26 C -0.3216(5) 0.7105(4) 0.2445(3)
H14 H -0.3691 0.7853 0.2326
C27 C -0.3550(5) 0.6333(4) 0.2151(3)
H15 H -0.4328 0.6517 0.1913
C28 C -0.2685(4) 0.5292(4) 0.2229(3)
H16 H -0.2868 0.4825 0.1984
C29 C -0.1301(4) 0.5544(4) 0.3035(3)
C30 C -0.0210(4) 0.5085(4) 0.3501(3)
C31 C 0.2325(4) 0.0739(4) 0.3783(3)
H17 H 0.2576 0.0794 0.3265
C32 C 0.3176(5) 0.0012(4) 0.4434(3)
H18 H 0.3967 -0.0383 0.4339
C33 C 0.2782(5) -0.0096(4) 0.5247(3)
H19 H 0.3304 -0.0505 0.5698
C34 C 0.1496(4) 0.0499(4) 0.5282(3)
C35 C 0.1011(5) 0.0335(4) 0.6040(3)
H20 H 0.1507 -0.0146 0.6490
C36 C -0.0216(5) 0.0889(4) 0.6126(3)
H21 H -0.0540 0.0779 0.6633
C37 C -0.0957(5) 0.1608(4) 0.5455(3)
C38 C -0.2213(5) 0.2132(5) 0.5522(3)
H22 H -0.2613 0.1955 0.6004
C39 C -0.2862(6) 0.2983(5) 0.4780(3)
H23 H -0.3666 0.3438 0.4780
C40 C -0.2250(4) 0.3058(4) 0.4134(3)
H24 H -0.2709 0.3567 0.3677
C41 C -0.0472(4) 0.1772(3) 0.4697(3)
C42 C 0.0755(5) 0.1218(4) 0.4611(3)
Cr1 Cr -0.48176(7) 0.24729(6) 0.24010(4)
N1 N -0.7830(4) 0.2836(3) 0.2305(2)
N2 N -0.1979(4) 0.2475(3) 0.2537(2)
N3 N -0.4441(4) 0.2213(3) 0.0689(2)
N4 N -0.4315(4) -0.0189(3) 0.3049(2)
N5 N -0.5216(4) 0.2398(4) 0.4215(3)
N6 N -0.5565(4) 0.5144(4) 0.1692(3)
N7 N 0.0472(4) 0.4955(3) 0.1686(2)
N8 N -0.0959(4) 0.4021(3) 0.1108(2)
N9 N 0.0582(4) 0.3978(3) 0.3548(2)
N10 N -0.1644(3) 0.4949(3) 0.2625(2)
N11 N 0.1228(4) 0.1320(3) 0.3881(2)
N12 N -0.1178(4) 0.2592(3) 0.3997(2)
Nd1 Nd -0.00125(2) 0.30377(2) 0.262270(14)
O1 O 0.0627(3) 0.1440(3) 0.2036(2)
H25 H 0.1299 0.1534 0.1684
H26 H -0.0064 0.1452 0.1741
N1_2 N 0.2170(4) 0.2836(3) 0.2305(2)
Nd1_2 Nd -1.00125(2) 0.30377(2) 0.262270(14)
O2 O -0.6786(7) 1.0084(6) 0.2177(4)
H27 H -0.6087 1.0212 0.2162
H28 H -0.6726 0.9550 0.1991
O3 O -0.0091(7) 1.0020(5) 0.1627(4)
H29 H -0.0846 1.0028 0.1689
H30 H 0.0277 0.9522 0.1415
O4 O -0.2543(8) -0.0123(7) 0.1083(5)
H31 H -0.1884 0.0082 0.1013
H32 H -0.3047 0.0274 0.0688
O5 O -0.4859(7) 0.9409(6) 0.0826(5)
H33 H -0.5462 1.0004 0.0742
H34 H -0.4787 0.9181 0.0424
O6 O -0.6215(7) 0.8302(6) 0.2776(5)
H35 H -0.5902 0.8555 0.2328
H36 H -0.6880 0.8165 0.2700
O7 O -0.8228(7) 0.9395(7) 0.0632(5)
H37 H -0.7816 0.9179 0.1070
H38 H -0.7864 0.9003 0.0342
O8 O -0.5279(7) 0.5344(8) 0.3780(5)
H39 H -0.5662 0.5869 0.3371
H40 H -0.5624 0.5441 0.4201
loop_
_geom_bond_atom_site_label_1
_geom_bond_atom_site_label_2
_geom_bond_site_symmetry_1
_geom_bond_site_symmetry_2
C1 Cr1 1_555 1_555
C2 Cr1 1_555 1_555
C3 Cr1 1_555 1_555
C4 Cr1 1_555 1_555
C5 Cr1 1_555 1_555
C6 Cr1 1_555 1_555
C7 H1 1_555 1_555
C8 C7 1_555 1_555
H2 C8 1_555 1_555
C9 C8 1_555 1_555
H3 C9 1_555 1_555
C10 C9 1_555 1_555
C11 C10 1_555 1_555
H4 C11 1_555 1_555
C12 C11 1_555 1_555
H5 C12 1_555 1_555
C13 C12 1_555 1_555
C14 C13 1_555 1_555
H6 C14 1_555 1_555
C15 C14 1_555 1_555
H7 C15 1_555 1_555
C16 C15 1_555 1_555
H8 C16 1_555 1_555
C17 C13 1_555 1_555
C18 C10 1_555 1_555
C19 H9 1_555 1_555
C20 C19 1_555 1_555
H10 C20 1_555 1_555
C21 C20 1_555 1_555
H11 C21 1_555 1_555
C22 C21 1_555 1_555
C23 C22 1_555 1_555
H12 C23 1_555 1_555
C24 C23 1_555 1_555
H13 C24 1_555 1_555
C25 C24 1_555 1_555
C26 C25 1_555 1_555
H14 C26 1_555 1_555
C27 C26 1_555 1_555
H15 C27 1_555 1_555
C28 C27 1_555 1_555
H16 C28 1_555 1_555
C29 C25 1_555 1_555
C30 C22 1_555 1_555
C31 H17 1_555 1_555
C32 C31 1_555 1_555
H18 C32 1_555 1_555
C33 C32 1_555 1_555
H19 C33 1_555 1_555
C34 C33 1_555 1_555
C35 C34 1_555 1_555
H20 C35 1_555 1_555
C36 C35 1_555 1_555
H21 C36 1_555 1_555
C37 C36 1_555 1_555
C38 C37 1_555 1_555
H22 C38 1_555 1_555
C39 C38 1_555 1_555
H23 C39 1_555 1_555
C40 C39 1_555 1_555
H24 C40 1_555 1_555
C41 C37 1_555 1_555
C42 C34 1_555 1_555
N1 C1 1_555 1_555
N2 C2 1_555 1_555
N3 C3 1_555 1_555
N4 C4 1_555 1_555
N5 C5 1_555 1_555
N6 C6 1_555 1_555
N7 C7 1_555 1_555
N8 C16 1_555 1_555
N9 C19 1_555 1_555
N10 C28 1_555 1_555
N11 C31 1_555 1_555
N12 C40 1_555 1_555
Nd1 N2 1_555 1_555
O1 Nd1 1_555 1_555
H25 O1 1_555 1_555
H26 O1 1_555 1_555
O2 H27 1_555 1_555
H28 O2 1_555 1_555
O3 H29 1_555 1_555
H30 O3 1_555 1_555
O4 H31 1_555 1_555
H32 O4 1_555 1_555
O5 H33 1_555 1_555
H34 O5 1_555 1_555
O6 H35 1_555 1_555
H36 O6 1_555 1_555
O7 H37 1_555 1_555
H38 O7 1_555 1_555
O8 H39 1_555 1_555
H40 O8 1_555 1_555
N1_2 Nd1 1_555 1_555
Nd1_2 N1 1_555 1_555
C17 C18 1_555 1_555
C17 N8 1_555 1_555
C18 N7 1_555 1_555
C29 C30 1_555 1_555
C29 N10 1_555 1_555
C30 N9 1_555 1_555
C41 C42 1_555 1_555
C41 N12 1_555 1_555
C42 N11 1_555 1_555
N7 Nd1 1_555 1_555
N8 Nd1 1_555 1_555
N9 Nd1 1_555 1_555
N10 Nd1 1_555 1_555
N11 Nd1 1_555 1_555
N12 Nd1 1_555 1_555

#END
