
#######################################################################
#
#                 Cambridge Crystallographic Data Centre
#                                CCDC 
#
#######################################################################
#
# If this CIF has been generated from an entry in the Cambridge 
# Structural Database, then it will include bibliographic, chemical, 
# crystal, experimental, refinement or atomic coordinate data resulting 
# from the CCDC's data processing and validation procedures.
#
#######################################################################

data_VECFUG
_symmetry_cell_setting           triclinic
_symmetry_space_group_name_H-M   'P -1'
_symmetry_Int_Tables_number      2
_space_group_name_Hall           '-P 1'
loop_
_symmetry_equiv_pos_site_id
_symmetry_equiv_pos_as_xyz
1 x,y,z
2 -x,-y,-z
_cell_length_a                   11.4830(13)
_cell_length_b                   13.3340(18)
_cell_length_c                   18.0490(12)
_cell_angle_alpha                70.454(2)
_cell_angle_beta                 86.576(3)
_cell_angle_gamma                72.476(2)
_cell_volume                     2480.85
loop_
_atom_site_label
_atom_site_type_symbol
_atom_site_fract_x
_atom_site_fract_y
_atom_site_fract_z
C1 C -0.6644(3) 0.2661(3) 0.2353(2)
C2 C -0.3015(4) 0.2427(3) 0.2491(3)
C3 C -0.4548(4) 0.2351(4) 0.1315(2)
C4 C -0.4487(4) 0.0776(4) 0.2828(3)
C5 C -0.5082(4) 0.2468(3) 0.3587(2)
C6 C -0.5263(4) 0.4151(3) 0.2007(3)
C7 C 0.1186(4) 0.5435(4) 0.1872(3)
H1 H 0.1809 0.4967 0.2247
C8 C 0.1148(4) 0.6493(4) 0.1604(3)
H2 H 0.1651 0.6748 0.1836
C9 C 0.0335(4) 0.7243(4) 0.0960(3)
H3 H 0.0339 0.7976 0.0714
C10 C -0.0522(4) 0.6765(3) 0.0709(2)
C11 C -0.1386(4) 0.7415(4) 0.0085(3)
H4 H -0.1499 0.8178 -0.0134
C12 C -0.2092(4) 0.6904(4) -0.0214(3)
H5 H -0.2657 0.7334 -0.0632
C13 C -0.1935(4) 0.5758(3) 0.0121(2)
C14 C -0.2605(5) 0.5237(4) -0.0217(3)
H6 H -0.3144 0.5656 -0.0650
C15 C -0.2424(4) 0.4132(4) 0.0115(3)
H7 H -0.2806 0.3764 -0.0102
C16 C -0.1652(4) 0.3544(3) 0.0792(2)
H8 H -0.1592 0.2797 0.1043
C17 C -0.1102(3) 0.5114(3) 0.0741(2)
C18 C -0.0393(4) 0.5614(4) 0.1046(2)
C19 C 0.1586(4) 0.3638(3) 0.3976(2)
H9 H 0.2117 0.2948 0.3992
C20 C 0.1965(4) 0.4216(4) 0.4424(2)
H10 H 0.2627 0.3859 0.4786
C21 C 0.1316(4) 0.5299(4) 0.4293(3)
H11 H 0.1628 0.5755 0.4465
C22 C 0.0147(4) 0.5728(4) 0.3887(3)
C23 C -0.0591(5) 0.6813(4) 0.3811(3)
H12 H -0.0361 0.7224 0.4072
C24 C -0.1695(4) 0.7282(4) 0.3332(3)
H13 H -0.2180 0.8004 0.3274
C25 C -0.2058(4) 0.6640(4) 0.2938(3)
C26 C -0.3202(4) 0.7101(3) 0.2440(3)
H14 H -0.3678 0.7839 0.2332
C27 C -0.3545(4) 0.6362(4) 0.2132(3)
H15 H -0.4308 0.6572 0.1881
C28 C -0.2698(4) 0.5307(4) 0.2220(3)
H16 H -0.2880 0.4854 0.1977
C29 C -0.1314(4) 0.5552(4) 0.3024(2)
C30 C -0.0222(4) 0.5086(4) 0.3493(2)
C31 C 0.2330(4) 0.0735(4) 0.3794(3)
H17 H 0.2585 0.0783 0.3288
C32 C 0.3153(4) 0.0020(4) 0.4443(3)
H18 H 0.3936 -0.0371 0.4354
C33 C 0.2777(4) -0.0108(3) 0.5259(3)
H19 H 0.3297 -0.0529 0.5702
C34 C 0.1500(4) 0.0499(4) 0.5289(3)
C35 C 0.1004(5) 0.0330(3) 0.6048(3)
H20 H 0.1494 -0.0153 0.6493
C36 C -0.0227(4) 0.0894(4) 0.6128(3)
H21 H -0.0552 0.0790 0.6623
C37 C -0.0942(4) 0.1602(3) 0.5460(3)
C38 C -0.2227(5) 0.2149(4) 0.5521(3)
H22 H -0.2615 0.1986 0.5994
C39 C -0.2878(5) 0.2972(4) 0.4794(3)
H23 H -0.3677 0.3419 0.4788
C40 C -0.2254(4) 0.3041(4) 0.4138(3)
H24 H -0.2717 0.3535 0.3685
C41 C -0.0476(4) 0.1775(3) 0.4696(2)
C42 C 0.0767(4) 0.1211(4) 0.4612(3)
Cr1 Cr -0.48216(6) 0.24680(5) 0.24100(4)
La1 La -0.00223(2) 0.303500(19) 0.262000(13)
N1 N -0.7804(3) 0.2804(3) 0.2315(2)
N2 N -0.1990(3) 0.2472(3) 0.2528(2)
N3 N -0.4441(4) 0.2222(3) 0.0690(2)
N4 N -0.4319(4) -0.0195(3) 0.3065(2)
N5 N -0.5224(4) 0.2406(4) 0.4214(3)
N6 N -0.5571(4) 0.5145(3) 0.1698(3)
N7 N 0.0459(3) 0.4948(3) 0.1681(2)
N8 N -0.0970(3) 0.4017(3) 0.11079(19)
N9 N 0.0570(3) 0.3993(3) 0.35530(19)
N10 N -0.1659(3) 0.4943(3) 0.2634(2)
N11 N 0.1239(3) 0.1322(3) 0.3880(2)
N12 N -0.1170(3) 0.2579(3) 0.4004(2)
O1 O 0.0642(3) 0.1424(2) 0.20423(17)
H25 H 0.0186 0.1069 0.1962
H26 H 0.1395 0.1316 0.1946
La1_2 La -1.00223(2) 0.303500(19) 0.262000(13)
N1_2 N 0.2196(3) 0.2804(3) 0.2315(2)
O2 O -0.6813(7) 0.0111(6) 0.2140(5)
H27 H -0.6771 -0.0189 0.1787
H28 H -0.6114 0.0239 0.2126
O3 O -1.0079(7) 1.0007(5) 0.1650(4)
H29 H -0.9483 0.9610 0.1471
H30 H -1.0338 0.9589 0.2049
O4 O -0.2539(10) -0.0114(8) 0.1102(5)
H31 H -0.1880 0.0090 0.1032
H32 H -0.3042 0.0282 0.0707
O5 O -0.4799(8) 0.9399(6) 0.0865(5)
H33 H -0.5402 0.9994 0.0781
H34 H -0.4727 0.9171 0.0463
O6 O -0.6204(8) 0.8267(7) 0.2794(4)
H35 H -0.5566 0.7773 0.2741
H36 H -0.6870 0.8130 0.2718
O7 O -0.8198(8) 0.9389(6) 0.0643(7)
H37 H -0.7786 0.9173 0.1080
H38 H -0.7834 0.8997 0.0352
O8 O -0.5315(8) 0.5367(8) 0.3760(6)
H39 H -0.5636 0.4838 0.3894
H40 H -0.5343 0.5609 0.4143
loop_
_geom_bond_atom_site_label_1
_geom_bond_atom_site_label_2
_geom_bond_site_symmetry_1
_geom_bond_site_symmetry_2
C1 Cr1 1_555 1_555
C2 Cr1 1_555 1_555
C3 Cr1 1_555 1_555
C4 Cr1 1_555 1_555
C5 Cr1 1_555 1_555
C6 Cr1 1_555 1_555
C7 H1 1_555 1_555
C8 C7 1_555 1_555
H2 C8 1_555 1_555
C9 C8 1_555 1_555
H3 C9 1_555 1_555
C10 C9 1_555 1_555
C11 C10 1_555 1_555
H4 C11 1_555 1_555
C12 C11 1_555 1_555
H5 C12 1_555 1_555
C13 C12 1_555 1_555
C14 C13 1_555 1_555
H6 C14 1_555 1_555
C15 C14 1_555 1_555
H7 C15 1_555 1_555
C16 C15 1_555 1_555
H8 C16 1_555 1_555
C17 C13 1_555 1_555
C18 C10 1_555 1_555
C19 H9 1_555 1_555
C20 C19 1_555 1_555
H10 C20 1_555 1_555
C21 C20 1_555 1_555
H11 C21 1_555 1_555
C22 C21 1_555 1_555
C23 C22 1_555 1_555
H12 C23 1_555 1_555
C24 C23 1_555 1_555
H13 C24 1_555 1_555
C25 C24 1_555 1_555
C26 C25 1_555 1_555
H14 C26 1_555 1_555
C27 C26 1_555 1_555
H15 C27 1_555 1_555
C28 C27 1_555 1_555
H16 C28 1_555 1_555
C29 C25 1_555 1_555
C30 C22 1_555 1_555
C31 H17 1_555 1_555
C32 C31 1_555 1_555
H18 C32 1_555 1_555
C33 C32 1_555 1_555
H19 C33 1_555 1_555
C34 C33 1_555 1_555
C35 C34 1_555 1_555
H20 C35 1_555 1_555
C36 C35 1_555 1_555
H21 C36 1_555 1_555
C37 C36 1_555 1_555
C38 C37 1_555 1_555
H22 C38 1_555 1_555
C39 C38 1_555 1_555
H23 C39 1_555 1_555
C40 C39 1_555 1_555
H24 C40 1_555 1_555
C41 C37 1_555 1_555
C42 C34 1_555 1_555
La1 N2 1_555 1_555
N1 C1 1_555 1_555
N2 C2 1_555 1_555
N3 C3 1_555 1_555
N4 C4 1_555 1_555
N5 C5 1_555 1_555
N6 C6 1_555 1_555
N7 C7 1_555 1_555
N8 C16 1_555 1_555
N9 C19 1_555 1_555
N10 C28 1_555 1_555
N11 C31 1_555 1_555
N12 C40 1_555 1_555
O1 La1 1_555 1_555
H25 O1 1_555 1_555
H26 O1 1_555 1_555
O2 H27 1_555 1_555
H28 O2 1_555 1_555
O3 H29 1_555 1_555
H30 O3 1_555 1_555
O4 H31 1_555 1_555
H32 O4 1_555 1_555
O5 H33 1_555 1_555
H34 O5 1_555 1_555
O6 H35 1_555 1_555
H36 O6 1_555 1_555
O7 H37 1_555 1_555
H38 O7 1_555 1_555
O8 H39 1_555 1_555
H40 O8 1_555 1_555
La1_2 N1 1_555 1_555
N1_2 La1 1_555 1_555
C17 C18 1_555 1_555
C17 N8 1_555 1_555
C18 N7 1_555 1_555
C29 C30 1_555 1_555
C29 N10 1_555 1_555
C30 N9 1_555 1_555
C41 C42 1_555 1_555
C41 N12 1_555 1_555
C42 N11 1_555 1_555
La1 N7 1_555 1_555
La1 N8 1_555 1_555
La1 N9 1_555 1_555
La1 N10 1_555 1_555
La1 N11 1_555 1_555
La1 N12 1_555 1_555

#END
