
#######################################################################
#
#                 Cambridge Crystallographic Data Centre
#                                CCDC 
#
#######################################################################
#
# If this CIF has been generated from an entry in the Cambridge 
# Structural Database, then it will include bibliographic, chemical, 
# crystal, experimental, refinement or atomic coordinate data resulting 
# from the CCDC's data processing and validation procedures.
#
#######################################################################

data_VECTIH
_symmetry_cell_setting           monoclinic
_symmetry_space_group_name_H-M   'P 21/c'
_symmetry_Int_Tables_number      14
_space_group_name_Hall           '-P 2ybc'
loop_
_symmetry_equiv_pos_site_id
_symmetry_equiv_pos_as_xyz
1 x,y,z
2 -x,1/2+y,1/2-z
3 -x,-y,-z
4 x,1/2-y,1/2+z
_cell_length_a                   7.8658(3)
_cell_length_b                   6.4927(2)
_cell_length_c                   13.9449(11)
_cell_angle_alpha                90
_cell_angle_beta                 93.146(2)
_cell_angle_gamma                90
_cell_volume                     711.097
loop_
_atom_site_label
_atom_site_type_symbol
_atom_site_fract_x
_atom_site_fract_y
_atom_site_fract_z
K1 K 0.02151(4) 0.13655(5) 0.36516(2)
N1 N 0.68084(17) 0.1922(2) 0.60262(10)
C1 C 0.5751(2) 0.1296(2) 0.66714(11)
C2 C 0.4018(2) 0.1228(2) 0.65309(11)
C3 C 0.31951(19) 0.1856(2) 0.56481(11)
C4 C 0.43627(19) 0.2522(2) 0.49748(11)
C5 C 0.60752(19) 0.2513(2) 0.51938(11)
F1 F 0.64881(13) 0.06628(18) 0.75106(7)
F2 F 0.30389(13) 0.05072(17) 0.72228(7)
O1 O 0.15812(14) 0.17751(17) 0.54786(8)
F3 F 0.37367(12) 0.31136(15) 0.40902(7)
F4 F 0.71492(12) 0.31309(15) 0.45329(7)
O2 O 0.01354(16) 0.55953(19) 0.33255(9)
H1 H -0.046(3) 0.629(4) 0.3652(18)
H2 H 0.107(4) 0.607(4) 0.3471(19)
K1B K -0.02151(4) -0.13655(5) 0.63484(2)
K1A K -0.02151(4) 0.63655(5) 0.13484(2)
O1B O -0.15812(14) -0.17751(17) 0.45214(8)
O2A O -0.01354(16) 0.05953(19) 0.16745(9)
loop_
_geom_bond_atom_site_label_1
_geom_bond_atom_site_label_2
_geom_bond_site_symmetry_1
_geom_bond_site_symmetry_2
K1 O1 1_555 1_555
N1 C1 1_555 1_555
C1 C2 1_555 1_555
C2 C3 1_555 1_555
C3 C4 1_555 1_555
C4 C5 1_555 1_555
C5 N1 1_555 1_555
F1 C1 1_555 1_555
F2 C2 1_555 1_555
O1 C3 1_555 1_555
F3 C4 1_555 1_555
F4 C5 1_555 1_555
O2 K1 1_555 1_555
H1 O2 1_555 1_555
H2 O2 1_555 1_555
K1B O1 1_555 1_555
K1A O2 1_555 1_555
O1B K1 1_555 1_555
O2A K1 1_555 1_555
K1B O1B 1_555 1_555

#END
