
#######################################################################
#
#                 Cambridge Crystallographic Data Centre
#                                CCDC 
#
#######################################################################
#
# If this CIF has been generated from an entry in the Cambridge 
# Structural Database, then it will include bibliographic, chemical, 
# crystal, experimental, refinement or atomic coordinate data resulting 
# from the CCDC's data processing and validation procedures.
#
#######################################################################

data_VECYOS
_symmetry_cell_setting           orthorhombic
_symmetry_space_group_name_H-M   'P 21 21 2'
_symmetry_Int_Tables_number      18
_space_group_name_Hall           'P 2 2ab'
loop_
_symmetry_equiv_pos_site_id
_symmetry_equiv_pos_as_xyz
1 x,y,z
2 -x,-y,z
3 1/2-x,1/2+y,-z
4 1/2+x,1/2-y,-z
_cell_length_a                   9.9740(18)
_cell_length_b                   11.6687(14)
_cell_length_c                   9.2700(18)
_cell_angle_alpha                90
_cell_angle_beta                 90
_cell_angle_gamma                90
_cell_volume                     1078.88
loop_
_atom_site_label
_atom_site_type_symbol
_atom_site_fract_x
_atom_site_fract_y
_atom_site_fract_z
Ag1 Ag 0.82573(4) 0.74094(3) 0.94092(5)
N1 N 0.8355(5) 0.9206(3) 0.8644(5)
N2 N 0.8227(5) 0.9890(4) 1.0961(5)
N3 N 0.7933(4) 1.1189(3) 0.9120(5)
N4 N 0.9704(5) 0.5986(4) 0.8451(5)
N5 N 1.0000 0.5000 1.0571(8)
C1 C 0.8183(5) 1.0102(4) 0.9547(6)
C2 C 0.7957(5) 1.1383(5) 0.7702(6)
H1 H 0.7818 1.2127 0.7375
C3 C 0.8177(6) 1.0536(5) 0.6705(6)
H2 H 0.8211 1.0690 0.5721
C4 C 0.8344(6) 0.9451(5) 0.7235(6)
H3 H 0.8456 0.8854 0.6583
C5 C 1.0000 0.5000 0.9124(8)
C6 C 0.9738(7) 0.5966(5) 0.7012(6)
H4 H 0.9575 0.6643 0.6513
C7 C 1.0000 0.5000 0.6246(9)
H5 H 1.0000 0.5000 0.5243
H6 H 0.8513 0.9242 1.1279
H7 H 0.8145 1.0505 1.1537
H8 H 1.0037 0.5650 1.1103
Ag1B Ag 0.67427(4) 0.24094(3) 1.05908(5)
Ag1B_2 Ag 0.67427(4) 1.24094(3) 1.05908(5)
Ag1A Ag 1.17427(4) 0.25906(3) 0.94092(5)
N1B N 0.6645(5) 0.4206(3) 1.1356(5)
N2B N 0.6773(5) 0.4890(4) 0.9039(5)
N3B N 0.7067(4) 0.6189(3) 1.0880(5)
N3_2 N 0.7933(4) 0.1189(3) 0.9120(5)
N4A N 1.0296(5) 0.4014(4) 0.8451(5)
N4B N 0.5296(5) 0.0986(4) 1.1549(5)
C1B C 0.6817(5) 0.5102(4) 1.0453(6)
C2B C 0.7043(5) 0.6383(5) 1.2298(6)
H1B H 0.7182 0.7127 1.2625
C3B C 0.6823(6) 0.5536(5) 1.3295(6)
H2B H 0.6789 0.5690 1.4279
C4B C 0.6656(6) 0.4451(5) 1.2765(6)
H3B H 0.6544 0.3854 1.3417
C6A C 1.0262(7) 0.4034(5) 0.7012(6)
H4A H 1.0425 0.3357 0.6513
H6B H 0.6487 0.4242 0.8721
H7B H 0.6855 0.5505 0.8463
H8A H 0.9963 0.4350 1.1103
Cl1 Cl 0.53655(13) 0.73138(13) 0.68281(13)
O1 O 0.4473(6) 0.6748(6) 0.5929(7)
O2 O 0.5400(7) 0.8489(5) 0.6503(7)
O3 O 0.4924(5) 0.7227(4) 0.8272(4)
O4 O 0.6692(4) 0.6830(4) 0.6740(5)
loop_
_geom_bond_atom_site_label_1
_geom_bond_atom_site_label_2
_geom_bond_site_symmetry_1
_geom_bond_site_symmetry_2
Ag1 N1 1_555 1_555
N1 C1 1_555 1_555
N2 C1 1_555 1_555
N3 C1 1_555 1_555
N4 Ag1 1_555 1_555
N5 C5 1_555 1_555
C2 N3 1_555 1_555
H1 C2 1_555 1_555
C3 C2 1_555 1_555
H2 C3 1_555 1_555
C4 N1 1_555 1_555
H3 C4 1_555 1_555
C5 N4 1_555 1_555
C6 N4 1_555 1_555
H4 C6 1_555 1_555
C7 C6 1_555 1_555
H5 C7 1_555 1_555
H6 N2 1_555 1_555
H7 N2 1_555 1_555
H8 N5 1_555 1_555
Cl1 O1 1_555 1_555
O2 Cl1 1_555 1_555
O3 Cl1 1_555 1_555
O4 Cl1 1_555 1_555
Ag1B N1B 1_555 1_555
Ag1B_2 N3 1_555 1_555
Ag1A N4A 1_555 1_555
N1B C1B 1_555 1_555
N2B C1B 1_555 1_555
N3B Ag1 1_555 1_555
N3_2 Ag1B 1_555 1_555
N4A C5 1_555 1_555
N4B Ag1B 1_555 1_555
C1B N3B 1_555 1_555
C2B N3B 1_555 1_555
H1B C2B 1_555 1_555
C3B C2B 1_555 1_555
H2B C3B 1_555 1_555
C4B N1B 1_555 1_555
H3B C4B 1_555 1_555
C6A C7 1_555 1_555
H4A C6A 1_555 1_555
H6B N2B 1_555 1_555
H7B N2B 1_555 1_555
H8A N5 1_555 1_555
C3 C4 1_555 1_555
N4A C6A 1_555 1_555
C3B C4B 1_555 1_555

#END
