
#######################################################################
#
#                 Cambridge Crystallographic Data Centre
#                                CCDC 
#
#######################################################################
#
# If this CIF has been generated from an entry in the Cambridge 
# Structural Database, then it will include bibliographic, chemical, 
# crystal, experimental, refinement or atomic coordinate data resulting 
# from the CCDC's data processing and validation procedures.
#
#######################################################################

data_VECZEK
_symmetry_cell_setting           monoclinic
_symmetry_space_group_name_H-M   'P 21/n'
_symmetry_Int_Tables_number      14
_space_group_name_Hall           '-P 2yn'
loop_
_symmetry_equiv_pos_site_id
_symmetry_equiv_pos_as_xyz
1 x,y,z
2 1/2-x,1/2+y,1/2-z
3 -x,-y,-z
4 1/2+x,1/2-y,1/2+z
_cell_length_a                   9.9493(12)
_cell_length_b                   14.0796(17)
_cell_length_c                   19.906(2)
_cell_angle_alpha                90
_cell_angle_beta                 101.585(2)
_cell_angle_gamma                90
_cell_volume                     2731.67
loop_
_atom_site_label
_atom_site_type_symbol
_atom_site_fract_x
_atom_site_fract_y
_atom_site_fract_z
P1 P -0.5000 1.5000 0.5000
W1 W -0.32688(7) 1.30878(5) 0.43795(4)
W2 W -0.28212(7) 1.54349(5) 0.38062(4)
W3 W -0.60209(7) 1.42523(5) 0.32705(3)
W4 W -0.82176(7) 1.38558(5) 0.44538(3)
W5 W -0.22663(7) 1.38015(5) 0.61210(3)
W6 W -0.54784(8) 1.26492(5) 0.55483(4)
Ag1 Ag -0.38883(15) 1.02239(10) 0.45144(7)
Ag2 Ag -0.38758(16) 1.14922(10) 0.27907(7)
Ag3 Ag -0.06709(16) 1.12975(12) 0.63471(8)
S1 S -0.2198(5) 1.0164(4) 0.5602(2)
S2 S -0.2358(4) 1.0187(3) 0.3527(2)
S3 S -0.0413(4) 1.0123(3) 0.4523(2)
O1 O -0.2470(12) 1.2161(9) 0.4111(7)
O2 O 0.0231(17) 1.1604(12) 0.5121(9)
O3 O -0.1786(14) 1.5608(12) 0.3246(6)
O4 O -0.6527(16) 1.3901(10) 0.2446(7)
O5 O -0.9707(15) 1.3275(10) 0.4203(9)
O6 O -0.0984(14) 1.3226(11) 0.6632(7)
O7 O -0.5679(15) 1.1536(9) 0.5802(7)
O8 O -0.2150(16) 1.3292(12) 0.5253(8)
O9 O -0.4483(16) 1.2428(12) 0.4844(8)
O10 O -0.4761(16) 1.3285(11) 0.3643(9)
O11 O -0.2461(16) 1.4149(11) 0.4033(9)
O12 O -0.4461(16) 1.5010(11) 0.3239(8)
O13 O -0.3696(16) 1.6624(10) 0.3841(7)
O14 O -0.7003(15) 1.5415(10) 0.3284(7)
O15 O -0.7340(15) 1.3702(9) 0.3700(7)
O16 O -0.2889(16) 1.7179(11) 0.5126(7)
O17 O -0.3794(16) 1.3009(11) 0.6090(7)
O18 O -0.8608(16) 1.5105(9) 0.4139(7)
O19 O -0.1679(17) 1.5752(11) 0.4656(7)
O20 O -0.618(3) 1.4851(17) 0.4439(12)
O21 O -0.452(3) 1.4640(18) 0.4333(13)
O22 O -0.426(3) 1.4003(18) 0.5225(13)
O23 O -0.394(3) 1.5694(18) 0.4837(13)
N1 N -0.4152(15) 0.9313(10) 0.6175(7)
N2 N -0.4208(15) 0.8688(10) 0.6696(7)
N3 N -0.3018(15) 0.8418(10) 0.6960(7)
N4 N -0.2145(14) 0.8859(10) 0.6629(7)
N5 N -0.1473(14) 0.8521(10) 0.3062(7)
N6 N -0.2012(14) 0.7783(10) 0.2666(7)
N7 N -0.3317(14) 0.7896(11) 0.2458(7)
N8 N -0.3631(14) 0.8736(10) 0.2720(7)
C1 C -0.2908(17) 0.9427(12) 0.6140(7)
C2 C -0.069(2) 0.8673(15) 0.6838(10)
H1 H -0.0536 0.8224 0.7208
H2 H -0.0216 0.9255 0.6986
H3 H -0.0347 0.8418 0.6457
C3 C -0.2495(16) 0.9101(12) 0.3108(8)
C4 C -0.5034(18) 0.9080(14) 0.2610(10)
H4 H -0.5620 0.8662 0.2300
H5 H -0.5331 0.9100 0.3039
H6 H -0.5079 0.9707 0.2416
W1B W -0.67312(7) 1.69122(5) 0.56205(4)
W2B W -0.71788(7) 1.45651(5) 0.61938(4)
W2A W -0.21788(7) 1.04349(5) 0.11938(4)
W3B W -0.39791(7) 1.57477(5) 0.67295(3)
W4B W -0.17824(7) 1.61442(5) 0.55462(3)
W5B W -0.77337(7) 1.61985(5) 0.38790(3)
W5C W -0.72663(7) 1.11985(5) 0.11210(3)
W6B W -0.45216(8) 1.73508(5) 0.44517(4)
W6B_2 W -0.45216(8) 0.73508(5) 0.44517(4)
Ag1B Ag -0.61117(15) 1.97761(10) 0.54856(7)
Ag1B_2 Ag -0.61117(15) 0.97761(10) 0.54856(7)
Ag1B_3 Ag 0.38883(15) 0.97761(10) 0.54856(7)
Ag1_2 Ag -0.38883(15) 2.02239(10) 0.45144(7)
Ag2B Ag -0.61242(16) 1.85078(10) 0.72093(7)
Ag2A Ag -0.11242(16) 1.64922(10) 0.22093(7)
Ag2C Ag 0.11242(16) 1.35078(10) 0.77907(7)
Ag2B_2 Ag -0.61242(16) 0.85078(10) 0.72093(7)
Ag2A_2 Ag -0.11242(16) 0.64922(10) 0.22093(7)
Ag2B_3 Ag 0.38758(16) 0.85078(10) 0.72093(7)
Ag3B Ag -0.93291(16) 0.87025(12) 0.36529(8)
Ag3B_2 Ag 0.06709(16) 0.87025(12) 0.36529(8)
Ag3C Ag -0.56709(16) 1.37025(12) 0.13471(8)
Ag3A Ag -0.43291(16) 1.62975(12) 0.86529(8)
S1B S -0.7802(5) 0.9836(4) 0.4398(2)
S1B_2 S -0.7802(5) 1.9836(4) 0.4398(2)
S2B S 0.2358(4) 0.9813(3) 0.6473(2)
S2B_2 S -0.7642(4) 1.9813(3) 0.6473(2)
S3B S 0.0413(4) 0.9877(3) 0.5477(2)
S3_2 S -1.0413(4) 1.0123(3) 0.4523(2)
O1B O -0.7530(12) 1.7839(9) 0.5889(7)
O2B O -0.0231(17) 0.8396(12) 0.4879(9)
O2B_2 O -1.0231(17) 0.8396(12) 0.4879(9)
O3A O -0.3214(14) 1.0608(12) 0.1754(6)
O3B O -0.8214(14) 1.4392(12) 0.6754(6)
O3C O -0.6786(14) 1.9392(12) 0.8246(6)
O4B O -0.3473(16) 1.6099(10) 0.7554(7)
O4C O -0.1527(16) 1.1099(10) 0.7446(7)
O4A O -0.8473(16) 0.8901(10) 0.2554(7)
O5B O -0.0293(15) 1.6725(10) 0.5797(9)
O6C O -0.5984(14) 1.1774(11) 0.1632(7)
O6B O -0.9016(14) 1.6774(11) 0.3368(7)
O6A O -0.4016(14) 1.8226(11) 0.8368(7)
O6B_2 O -0.9016(14) 0.6774(11) 0.3368(7)
O7B O -0.4321(15) 0.8464(9) 0.4198(7)
O7B_2 O -0.4321(15) 1.8464(9) 0.4198(7)
O7_2 O -0.5679(15) 2.1536(9) 0.5802(7)
O8B O -0.7850(16) 1.6708(12) 0.4747(8)
O9B O -0.5517(16) 1.7572(12) 0.5156(8)
O10B O -0.5239(16) 1.6715(11) 0.6357(9)
O11B O -0.7539(16) 1.5851(11) 0.5967(9)
O12B O -0.5539(16) 1.4990(11) 0.6761(8)
O13B O -0.6304(16) 1.3376(10) 0.6159(7)
O14B O -0.2997(15) 1.4585(10) 0.6716(7)
O15B O -0.2660(15) 1.6298(9) 0.6300(7)
O16B O -0.7111(16) 1.2821(11) 0.4874(7)
O17B O -0.6206(16) 1.6991(11) 0.3910(7)
O18B O -0.1392(16) 1.4895(9) 0.5861(7)
O19B O -0.8321(17) 1.4248(11) 0.5344(7)
O20B O -0.382(3) 1.5149(17) 0.5561(12)
O21B O -0.548(3) 1.5360(18) 0.5667(13)
O22B O -0.574(3) 1.5997(18) 0.4775(13)
O23B O -0.606(3) 1.4306(18) 0.5163(13)
N1B N -0.5848(15) 1.0687(10) 0.3825(7)
N1_2 N -0.4152(15) 1.9313(10) 0.6175(7)
N2B N -0.5792(15) 1.1312(10) 0.3304(7)
N2_2 N -0.4208(15) 1.8688(10) 0.6696(7)
N3B N -0.6982(15) 1.1582(10) 0.3040(7)
N4B N -0.7855(14) 1.1141(10) 0.3371(7)
N5B N 0.1473(14) 1.1479(10) 0.6938(7)
N5_2 N -1.1473(14) 0.8521(10) 0.3062(7)
N6B N 0.2012(14) 1.2217(10) 0.7334(7)
N6A N -0.2988(14) 1.2783(10) 0.2334(7)
N6C N -0.7012(14) 1.7217(10) 0.7666(7)
N7B N 0.3317(14) 1.2104(11) 0.7542(7)
N8B N 0.3631(14) 1.1264(10) 0.7280(7)
C1B C -0.7092(17) 1.0573(12) 0.3860(7)
C2B C -0.931(2) 1.1327(15) 0.3162(10)
H1B H -0.9464 1.1776 0.2792
H2B H -0.9784 1.0745 0.3014
H3B H -0.9653 1.1582 0.3543
C3B C 0.2495(16) 1.0899(12) 0.6892(8)
C4B C 0.5034(18) 1.0920(14) 0.7390(10)
H4B H 0.5620 1.1338 0.7700
H5B H 0.5331 1.0900 0.6961
H6B H 0.5079 1.0293 0.7584
loop_
_geom_bond_atom_site_label_1
_geom_bond_atom_site_label_2
_geom_bond_site_symmetry_1
_geom_bond_site_symmetry_2
P1 O20 1_555 1_555
W1 O1 1_555 1_555
W2 O3 1_555 1_555
W3 O4 1_555 1_555
W4 O5 1_555 1_555
W5 O6 1_555 1_555
W6 O7 1_555 1_555
Ag1 S1 1_555 1_555
Ag2 S2 1_555 1_555
Ag3 S1 1_555 1_555
S1 C1 1_555 1_555
S2 Ag1 1_555 1_555
S3 S2 1_555 1_555
O1 Ag1 1_555 1_555
O2 Ag3 1_555 1_555
O3 Ag2A 1_555 1_555
O4 Ag3C 1_555 1_555
O6 Ag3 1_555 1_555
O7 Ag1B_2 1_555 1_555
O8 W1 1_555 1_555
O9 W1 1_555 1_555
O10 W1 1_555 1_555
O11 W1 1_555 1_555
O12 W2 1_555 1_555
O13 W2 1_555 1_555
O14 W3 1_555 1_555
O15 W3 1_555 1_555
O16 O23 1_555 1_555
O17 W5 1_555 1_555
O18 W4 1_555 1_555
O19 W2 1_555 1_555
O20 W3 1_555 1_555
O21 P1 1_555 1_555
O22 P1 1_555 1_555
O23 P1 1_555 1_555
N1 N2 1_555 1_555
N2 N3 1_555 1_555
N3 N4 1_555 1_555
N4 C1 1_555 1_555
N5 N6 1_555 1_555
N6 N7 1_555 1_555
N7 N8 1_555 1_555
N8 C3 1_555 1_555
C1 N1 1_555 1_555
C2 N4 1_555 1_555
H1 C2 1_555 1_555
H2 C2 1_555 1_555
H3 C2 1_555 1_555
C3 S2 1_555 1_555
C4 N8 1_555 1_555
H4 C4 1_555 1_555
H5 C4 1_555 1_555
H6 C4 1_555 1_555
W1B O1B 1_555 1_555
W2B O3B 1_555 1_555
W2A O3A 1_555 1_555
W3B O4B 1_555 1_555
W4B O16 1_555 1_555
W5B O14 1_555 1_555
W5C O6C 1_555 1_555
W6B O13 1_555 1_555
W6B_2 O7B 1_555 1_555
Ag1B S1B_2 1_555 1_555
Ag1B_2 N1 1_555 1_555
Ag1B_3 S2B 1_555 1_555
Ag1_2 O7B_2 1_555 1_555
Ag2B S2B_2 1_555 1_555
Ag2C O6 1_555 1_555
Ag2B_2 N2 1_555 1_555
Ag2A_2 N6 1_555 1_555
Ag2B_3 S2B 1_555 1_555
Ag3B S1B 1_555 1_555
Ag3B_2 S3 1_555 1_555
Ag3C O6C 1_555 1_555
Ag3A O4B 1_555 1_555
S1B Ag1B_2 1_555 1_555
S2B S3B 1_555 1_555
S2B_2 Ag1B 1_555 1_555
S3B Ag3 1_555 1_555
S3_2 Ag3B 1_555 1_555
O1B Ag1B 1_555 1_555
O2B Ag3B_2 1_555 1_555
O2B_2 Ag3B 1_555 1_555
O3A Ag2 1_555 1_555
O3C Ag2B 1_555 1_555
O4C Ag3 1_555 1_555
O4A Ag3B 1_555 1_555
O5B W4B 1_555 1_555
O6C Ag2 1_555 1_555
O6B W5B 1_555 1_555
O6A Ag2B 1_555 1_555
O6B_2 Ag3B 1_555 1_555
O7B Ag1 1_555 1_555
O7B_2 W6B 1_555 1_555
O7_2 Ag1B 1_555 1_555
O8B W1B 1_555 1_555
O9B W1B 1_555 1_555
O10B W1B 1_555 1_555
O11B W1B 1_555 1_555
O12B W2B 1_555 1_555
O13B W6 1_555 1_555
O14B W5 1_555 1_555
O15B W3B 1_555 1_555
O16B W4 1_555 1_555
O17B W5B 1_555 1_555
O18B W5 1_555 1_555
O19B W4 1_555 1_555
O20B P1 1_555 1_555
O21B P1 1_555 1_555
O22B P1 1_555 1_555
O23B P1 1_555 1_555
N1B Ag1 1_555 1_555
N1_2 Ag1B 1_555 1_555
N2B Ag2 1_555 1_555
N2_2 Ag2B 1_555 1_555
N3B N2B 1_555 1_555
N4B N3B 1_555 1_555
N5B Ag3 1_555 1_555
N5_2 Ag3B 1_555 1_555
N6B Ag2C 1_555 1_555
N6A Ag2 1_555 1_555
N6C Ag2B 1_555 1_555
N7B N6B 1_555 1_555
N8B N7B 1_555 1_555
C1B S1B 1_555 1_555
C2B N4B 1_555 1_555
H1B C2B 1_555 1_555
H2B C2B 1_555 1_555
H3B C2B 1_555 1_555
C3B S2B 1_555 1_555
C4B N8B 1_555 1_555
H4B C4B 1_555 1_555
H5B C4B 1_555 1_555
H6B C4B 1_555 1_555
W1 O21 1_555 1_555
W1 O22 1_555 1_555
W2 O11 1_555 1_555
W2 O21 1_555 1_555
W2 O23 1_555 1_555
W3 O10 1_555 1_555
W3 O12 1_555 1_555
W3 O21 1_555 1_555
W4 O15 1_555 1_555
W4 O20 1_555 1_555
W4 O23B 1_555 1_555
W5 O8 1_555 1_555
W5 O22 1_555 1_555
W6 O9 1_555 1_555
W6 O17 1_555 1_555
W6 O22 1_555 1_555
W6 O16B 1_555 1_555
W6 O23B 1_555 1_555
Ag1 O9 1_555 1_555
Ag2 O1 1_555 1_555
Ag2 O10 1_555 1_555
S3 O2 1_555 1_555
S3 S3B 1_555 1_555
O8 O22 1_555 1_555
O9 O22 1_555 1_555
O10 O21 1_555 1_555
O11 O21 1_555 1_555
O12 O21 1_555 1_555
O15 O20 1_555 1_555
O16 W6B 1_555 1_555
O17 O22 1_555 1_555
O18 W5B 1_555 1_555
O19 O23 1_555 1_555
O19 W4B 1_555 1_555
O20 O21 1_555 1_555
O20 O22B 1_555 1_555
O20 O23B 1_555 1_555
O21 O22 1_555 1_555
O21 O23 1_555 1_555
O22 O20B 1_555 1_555
O22 O23B 1_555 1_555
O23 W4B 1_555 1_555
O23 W6B 1_555 1_555
O23 O20B 1_555 1_555
O23 O22B 1_555 1_555
N5 C3 1_555 1_555
N5 Ag3B_2 1_555 1_555
W1B O21B 1_555 1_555
W1B O22B 1_555 1_555
W2B O11B 1_555 1_555
W2B O13B 1_555 1_555
W2B O19B 1_555 1_555
W2B O21B 1_555 1_555
W2B O23B 1_555 1_555
W3B O10B 1_555 1_555
W3B O12B 1_555 1_555
W3B O14B 1_555 1_555
W3B O20B 1_555 1_555
W3B O21B 1_555 1_555
W4B O15B 1_555 1_555
W4B O18B 1_555 1_555
W4B O20B 1_555 1_555
W5B O8B 1_555 1_555
W5B O22B 1_555 1_555
W6B O9B 1_555 1_555
W6B O17B 1_555 1_555
W6B O22B 1_555 1_555
Ag1B O9B 1_555 1_555
Ag2B O1B 1_555 1_555
Ag2B O10B 1_555 1_555
Ag3A O6A 1_555 1_555
S3B O2B 1_555 1_555
O8B O22B 1_555 1_555
O9B O22B 1_555 1_555
O10B O21B 1_555 1_555
O11B O21B 1_555 1_555
O12B O21B 1_555 1_555
O15B O20B 1_555 1_555
O16B O23B 1_555 1_555
O17B O22B 1_555 1_555
O19B O23B 1_555 1_555
O20B O21B 1_555 1_555
O21B O22B 1_555 1_555
O21B O23B 1_555 1_555
N1B N2B 1_555 1_555
N1B C1B 1_555 1_555
N1_2 N2_2 1_555 1_555
N4B C1B 1_555 1_555
N5B N6B 1_555 1_555
N5B C3B 1_555 1_555
N8B C3B 1_555 1_555

#END
