
#######################################################################
#
#                 Cambridge Crystallographic Data Centre
#                                CCDC 
#
#######################################################################
#
# If this CIF has been generated from an entry in the Cambridge 
# Structural Database, then it will include bibliographic, chemical, 
# crystal, experimental, refinement or atomic coordinate data resulting 
# from the CCDC's data processing and validation procedures.
#
#######################################################################

data_VECZIN
_symmetry_cell_setting           monoclinic
_symmetry_space_group_name_H-M   'P 21/c'
_symmetry_Int_Tables_number      14
_space_group_name_Hall           '-P 2ybc'
loop_
_symmetry_equiv_pos_site_id
_symmetry_equiv_pos_as_xyz
1 x,y,z
2 -x,1/2+y,1/2-z
3 -x,-y,-z
4 x,1/2-y,1/2+z
_cell_length_a                   10.727(2)
_cell_length_b                   17.216(2)
_cell_length_c                   13.462(3)
_cell_angle_alpha                90
_cell_angle_beta                 91.64(2)
_cell_angle_gamma                90
_cell_volume                     2485.09
loop_
_atom_site_label
_atom_site_type_symbol
_atom_site_fract_x
_atom_site_fract_y
_atom_site_fract_z
Ag1 Ag 1.19416(8) -0.10051(5) 1.30540(10)
Ag2 Ag 0.85497(7) 0.03937(4) 1.13075(7)
Ag3 Ag 1.05425(8) -0.12648(5) 1.07389(7)
Ag4 Ag 1.58650(8) -0.28875(5) 1.12366(8)
S1 S 0.8692(2) -0.09923(14) 1.30212(19)
S2 S 0.8354(2) -0.05654(13) 0.90877(19)
O1 O 0.9781(6) -0.1307(4) 1.2481(6)
O2 O 0.7813(7) -0.0624(4) 1.2299(6)
O3 O 0.9121(7) -0.0429(4) 1.3770(6)
O4 O 0.8054(7) -0.1640(4) 1.3499(6)
O5 O 1.1354(7) 0.0203(4) 1.3511(6)
O6 O 0.7905(7) 0.0228(4) 0.8862(7)
O7 O 0.8911(7) -0.0578(4) 1.0091(5)
O8 O 0.7333(6) -0.1128(4) 0.9037(6)
O9 O 0.9307(6) -0.0787(4) 0.8366(5)
O10 O 1.6383(7) -0.1480(4) 1.0918(6)
O11 O 1.6963(7) -0.3850(5) 1.0258(6)
O12 O 1.7496(7) -0.2909(4) 1.2375(6)
N1 N 1.2794(7) -0.2157(4) 1.3286(6)
N2 N 1.0854(7) -0.2754(5) 1.3199(6)
H1 H 1.0440 -0.2335 1.3154
H2 H 1.0358 -0.3192 1.3109
N3 N 1.2586(7) -0.3531(4) 1.3508(5)
N4 N 1.1810(7) -0.2308(4) 1.0763(6)
N5 N 1.3621(7) -0.1601(4) 1.0955(6)
H3 H 1.3180 -0.1231 1.0625
H4 H 1.4381 -0.1655 1.0782
N6 N 1.3793(7) -0.2938(4) 1.0975(6)
C1 C 1.4014(9) -0.2208(6) 1.3408(7)
C2 C 1.4774(9) -0.1476(6) 1.3371(8)
H5 H 1.4298 -0.1077 1.3036
H6 H 1.5523 -0.1573 1.3018
H7 H 1.4986 -0.1310 1.4035
C3 C 1.4573(9) -0.2931(6) 1.3574(7)
H8 H 1.5436 -0.2974 1.3640
C4 C 1.3835(9) -0.3578(6) 1.3639(8)
C5 C 1.4361(10) -0.4374(6) 1.3832(10)
H9 H 1.4135 -0.4711 1.3288
H10 H 1.4032 -0.4577 1.4434
H11 H 1.5254 -0.4342 1.3897
C6 C 1.2090(9) -0.2814(5) 1.3333(7)
C7 C 1.1250(10) -0.3005(6) 1.0681(8)
C8 C 0.9845(10) -0.3011(7) 1.0569(10)
H12 H 0.9590 -0.2676 1.0031
H13 H 0.9564 -0.3530 1.0433
H14 H 0.9489 -0.2830 1.1173
C9 C 1.1942(10) -0.3679(6) 1.0728(8)
H15 H 1.1559 -0.4159 1.0640
C10 C 1.3202(10) -0.3630(6) 1.0905(8)
C11 C 1.3967(12) -0.4351(6) 1.0997(10)
H16 H 1.4660 -0.4261 1.1449
H17 H 1.3463 -0.4765 1.1245
H18 H 1.4269 -0.4491 1.0357
C12 C 1.3059(8) -0.2295(5) 1.0895(7)
Ag2B Ag 1.14503(7) -0.03937(4) 0.86925(7)
Ag2A Ag 1.14503(7) -0.46063(4) 1.36925(7)
Ag3B Ag 0.94575(8) 0.12648(5) 0.92611(7)
O6B O 1.2095(7) -0.0228(4) 1.1138(7)
O9B O 1.0693(6) 0.0787(4) 1.1634(5)
N3A N 0.7414(7) 0.1469(4) 1.1492(5)
loop_
_geom_bond_atom_site_label_1
_geom_bond_atom_site_label_2
_geom_bond_site_symmetry_1
_geom_bond_site_symmetry_2
Ag1 O1 1_555 1_555
Ag2 O2 1_555 1_555
Ag3 O1 1_555 1_555
Ag4 O10 1_555 1_555
S1 O1 1_555 1_555
S2 O6 1_555 1_555
O2 S1 1_555 1_555
O3 S1 1_555 1_555
O4 S1 1_555 1_555
O5 Ag1 1_555 1_555
O6 Ag3B 1_555 1_555
O7 Ag2 1_555 1_555
O8 S2 1_555 1_555
O9 S2 1_555 1_555
O11 Ag4 1_555 1_555
O12 Ag4 1_555 1_555
N1 Ag1 1_555 1_555
N2 H1 1_555 1_555
H2 N2 1_555 1_555
N3 C4 1_555 1_555
N4 Ag3 1_555 1_555
N5 H3 1_555 1_555
H4 N5 1_555 1_555
N6 Ag4 1_555 1_555
C1 N1 1_555 1_555
C2 C1 1_555 1_555
H5 C2 1_555 1_555
H6 C2 1_555 1_555
H7 C2 1_555 1_555
C3 C1 1_555 1_555
H8 C3 1_555 1_555
C4 C3 1_555 1_555
C5 C4 1_555 1_555
H9 C5 1_555 1_555
H10 C5 1_555 1_555
H11 C5 1_555 1_555
C6 N1 1_555 1_555
C7 N4 1_555 1_555
C8 C7 1_555 1_555
H12 C8 1_555 1_555
H13 C8 1_555 1_555
H14 C8 1_555 1_555
C9 C7 1_555 1_555
H15 C9 1_555 1_555
C10 N6 1_555 1_555
C11 C10 1_555 1_555
H16 C11 1_555 1_555
H17 C11 1_555 1_555
H18 C11 1_555 1_555
C12 N4 1_555 1_555
Ag2B O9 1_555 1_555
Ag2A N3 1_555 1_555
O6B Ag3 1_555 1_555
O9B Ag2 1_555 1_555
N3A Ag2 1_555 1_555
Ag3 O7 1_555 1_555
S2 O7 1_555 1_555
N2 C6 1_555 1_555
N3 C6 1_555 1_555
N5 C12 1_555 1_555
N6 C12 1_555 1_555
C9 C10 1_555 1_555

#END
