
#######################################################################
#
#                 Cambridge Crystallographic Data Centre
#                                CCDC 
#
#######################################################################
#
# If this CIF has been generated from an entry in the Cambridge 
# Structural Database, then it will include bibliographic, chemical, 
# crystal, experimental, refinement or atomic coordinate data resulting 
# from the CCDC's data processing and validation procedures.
#
#######################################################################

data_VEDBUD
_symmetry_cell_setting           triclinic
_symmetry_space_group_name_H-M   'P -1'
_symmetry_Int_Tables_number      2
_space_group_name_Hall           '-P 1'
loop_
_symmetry_equiv_pos_site_id
_symmetry_equiv_pos_as_xyz
1 x,y,z
2 -x,-y,-z
_cell_length_a                   7.8439(12)
_cell_length_b                   9.9333(15)
_cell_length_c                   12.839(2)
_cell_angle_alpha                67.578(3)
_cell_angle_beta                 89.872(3)
_cell_angle_gamma                80.597(2)
_cell_volume                     910.326
loop_
_atom_site_label
_atom_site_type_symbol
_atom_site_fract_x
_atom_site_fract_y
_atom_site_fract_z
Gd1 Gd 0.71289(3) 0.67888(3) 0.58750(2)
P1 P 0.68104(18) 0.45801(14) 0.88644(11)
O1 O 0.6901(4) 0.5801(3) 0.7741(2)
O2 O 0.9241(4) 0.8066(3) 0.6236(3)
H1 H 0.9333 0.7660 0.6952
H2 H 0.8917 0.8962 0.6155
O3 O 0.7312(4) 0.5070(3) 0.9826(3)
H3 H 0.6433 0.5308 1.0107
O5 O 0.5079(4) 0.4087(3) 0.9048(3)
O7 O 0.7205(4) -0.2476(3) 1.2055(3)
H8 H 0.7605 -0.2718 1.2703
O8 O 0.6664(4) 0.4366(3) 0.6051(3)
O9 O 0.5394(4) 0.3127(3) 0.5229(3)
O10 O 0.8373(4) 0.6467(3) 0.4233(2)
O11 O 1.0112(4) 0.4862(3) 0.3697(2)
O12 O 0.6667(4) 0.9229(3) 0.4397(2)
O13 O 0.5060(4) 1.1503(3) 0.3733(2)
N1 N 0.6425(5) -0.1613(4) 0.9885(3)
H9 H 0.6229 -0.2433 1.0384
C1 C 0.5989(7) -0.1311(6) 0.8821(4)
H10 H 0.5496 -0.1972 0.8616
C2 C 0.6285(7) 0.0029(6) 0.8002(4)
H11 H 0.6007 0.0260 0.7242
C3 C 0.6974(6) 0.0979(6) 0.8319(4)
H12 H 0.7116 0.1881 0.7769
C4 C 0.7486(6) 0.0669(5) 0.9442(4)
C5 C 0.8247(6) 0.1594(5) 0.9824(4)
C6 C 0.8650(6) 0.1134(5) 1.0947(4)
H13 H 0.9151 0.1747 1.1203
C7 C 0.8339(6) -0.0252(5) 1.1757(4)
H14 H 0.8640 -0.0528 1.2520
C8 C 0.7603(6) -0.1156(5) 1.1401(4)
C9 C 0.7164(6) -0.0711(5) 1.0243(4)
C10 C 0.8545(6) 0.3075(5) 0.9014(4)
H15 H 0.8716 0.3030 0.8278
H16 H 0.9602 0.3282 0.9264
C11 C 0.5598(6) 0.4269(5) 0.5379(4)
C12 C 0.9571(6) 0.5380(5) 0.4394(4)
C13 C 0.5511(6) 1.0205(5) 0.4458(4)
Gd1A Gd 0.28711(3) 0.32112(3) 0.41250(2)
Gd1A_2 Gd 1.28711(3) 0.32112(3) 0.41250(2)
Gd1A_3 Gd 0.28711(3) 1.32112(3) 0.41250(2)
P1A P 0.31896(18) 0.54199(14) 0.11356(11)
O1A O 0.3099(4) 0.4199(3) 0.2259(2)
O2A O 0.0759(4) 0.1934(3) 0.3764(3)
H1A H 0.0667 0.2340 0.3048
H2A H 0.1083 0.1038 0.3845
O3A O 0.2688(4) 0.4930(3) 0.0174(3)
H3A H 0.3567 0.4692 -0.0107
O5A O 0.4921(4) 0.5913(3) 0.0952(3)
O7A O 0.2795(4) 1.2476(3) -0.2055(3)
H8A H 0.2395 1.2718 -0.2703
O8A O 0.3336(4) 0.5634(3) 0.3949(3)
O9A O 0.4606(4) 0.6873(3) 0.4771(3)
O10A O 1.1627(4) 0.3533(3) 0.5767(2)
O10A_2 O 0.1627(4) 0.3533(3) 0.5767(2)
O11A O 0.9888(4) 0.5138(3) 0.6303(2)
O11_2 O 0.0112(4) 0.4862(3) 0.3697(2)
O12A O 0.3333(4) 1.0771(3) 0.5603(2)
O12A_2 O 0.3333(4) 0.0771(3) 0.5603(2)
O13A O 0.4940(4) 0.8497(3) 0.6267(2)
O13_2 O 0.5060(4) 0.1503(3) 0.3733(2)
N1A N 0.3575(5) 1.1613(4) 0.0115(3)
H9A H 0.3771 1.2433 -0.0384
C1A C 0.4011(7) 1.1311(6) 0.1179(4)
H10A H 0.4504 1.1972 0.1384
C2A C 0.3715(7) 0.9971(6) 0.1998(4)
H11A H 0.3993 0.9740 0.2758
C3A C 0.3026(6) 0.9021(6) 0.1681(4)
H12A H 0.2884 0.8119 0.2231
C4A C 0.2514(6) 0.9331(5) 0.0558(4)
C5A C 0.1753(6) 0.8406(5) 0.0176(4)
C6A C 0.1350(6) 0.8866(5) -0.0947(4)
H13A H 0.0849 0.8253 -0.1203
C7A C 0.1661(6) 1.0252(5) -0.1757(4)
H14A H 0.1360 1.0528 -0.2520
C8A C 0.2397(6) 1.1156(5) -0.1401(4)
C9A C 0.2836(6) 1.0711(5) -0.0243(4)
C10A C 0.1455(6) 0.6925(5) 0.0986(4)
H15A H 0.1284 0.6970 0.1722
H16A H 0.0398 0.6718 0.0736
C11A C 0.4402(6) 0.5731(5) 0.4621(4)
C12A C 1.0429(6) 0.4620(5) 0.5606(4)
C13A C 0.4489(6) 0.9795(5) 0.5542(4)
O4 O 0.8681(4) 0.1032(3) 0.5792(3)
H4 H 0.8984 0.1831 0.5355
H5 H 0.7599 0.1189 0.5871
O6 O 0.2402(5) 0.6806(4) 0.7376(3)
H6 H 0.2132 0.7739 0.7039
H7 H 0.2012 0.6391 0.6981
loop_
_geom_bond_atom_site_label_1
_geom_bond_atom_site_label_2
_geom_bond_site_symmetry_1
_geom_bond_site_symmetry_2
Gd1 O1 1_555 1_555
P1 O1 1_555 1_555
O2 Gd1 1_555 1_555
H1 O2 1_555 1_555
H2 O2 1_555 1_555
O3 P1 1_555 1_555
H3 O3 1_555 1_555
O4 H4 1_555 1_555
H5 O4 1_555 1_555
O5 P1 1_555 1_555
O6 H6 1_555 1_555
H7 O6 1_555 1_555
O7 H8 1_555 1_555
O8 Gd1 1_555 1_555
O9 C11 1_555 1_555
O10 Gd1 1_555 1_555
O11 C12 1_555 1_555
O12 Gd1 1_555 1_555
O13 C13 1_555 1_555
N1 H9 1_555 1_555
C1 N1 1_555 1_555
H10 C1 1_555 1_555
C2 C1 1_555 1_555
H11 C2 1_555 1_555
C3 C2 1_555 1_555
H12 C3 1_555 1_555
C4 C3 1_555 1_555
C5 C4 1_555 1_555
C6 C5 1_555 1_555
H13 C6 1_555 1_555
C7 C6 1_555 1_555
H14 C7 1_555 1_555
C8 O7 1_555 1_555
C9 N1 1_555 1_555
C10 P1 1_555 1_555
H15 C10 1_555 1_555
H16 C10 1_555 1_555
C11 O8 1_555 1_555
C12 O10 1_555 1_555
C13 O12 1_555 1_555
Gd1A O9 1_555 1_555
Gd1A_2 O11 1_555 1_555
Gd1A_3 O13 1_555 1_555
P1A O1A 1_555 1_555
O1A Gd1A 1_555 1_555
O2A Gd1A 1_555 1_555
H1A O2A 1_555 1_555
H2A O2A 1_555 1_555
O3A P1A 1_555 1_555
H3A O3A 1_555 1_555
O5A P1A 1_555 1_555
O7A H8A 1_555 1_555
O8A Gd1A 1_555 1_555
O9A Gd1 1_555 1_555
O10A Gd1A_2 1_555 1_555
O10A_2 Gd1A 1_555 1_555
O11A Gd1 1_555 1_555
O11_2 Gd1A 1_555 1_555
O12A Gd1A_3 1_555 1_555
O12A_2 Gd1A 1_555 1_555
O13A Gd1 1_555 1_555
O13_2 Gd1A 1_555 1_555
N1A H9A 1_555 1_555
C1A N1A 1_555 1_555
H10A C1A 1_555 1_555
C2A C1A 1_555 1_555
H11A C2A 1_555 1_555
C3A C2A 1_555 1_555
H12A C3A 1_555 1_555
C4A C3A 1_555 1_555
C5A C4A 1_555 1_555
C6A C5A 1_555 1_555
H13A C6A 1_555 1_555
C7A C6A 1_555 1_555
H14A C7A 1_555 1_555
C8A O7A 1_555 1_555
C9A N1A 1_555 1_555
C10A P1A 1_555 1_555
H15A C10A 1_555 1_555
H16A C10A 1_555 1_555
C11A C11 1_555 1_555
C12A C12 1_555 1_555
C13A C13 1_555 1_555
C4 C9 1_555 1_555
C5 C10 1_555 1_555
C7 C8 1_555 1_555
C8 C9 1_555 1_555
O8A C11A 1_555 1_555
O9A C11A 1_555 1_555
O10A C12A 1_555 1_555
O11A C12A 1_555 1_555
O12A C13A 1_555 1_555
O13A C13A 1_555 1_555
C4A C9A 1_555 1_555
C5A C10A 1_555 1_555
C7A C8A 1_555 1_555
C8A C9A 1_555 1_555

#END
