
#######################################################################
#
#                 Cambridge Crystallographic Data Centre
#                                CCDC 
#
#######################################################################
#
# If this CIF has been generated from an entry in the Cambridge 
# Structural Database, then it will include bibliographic, chemical, 
# crystal, experimental, refinement or atomic coordinate data resulting 
# from the CCDC's data processing and validation procedures.
#
#######################################################################

data_VEDBIR
_symmetry_cell_setting           triclinic
_symmetry_space_group_name_H-M   'P -1'
_symmetry_Int_Tables_number      2
_space_group_name_Hall           '-P 1'
loop_
_symmetry_equiv_pos_site_id
_symmetry_equiv_pos_as_xyz
1 x,y,z
2 -x,-y,-z
_cell_length_a                   7.8235(2)
_cell_length_b                   9.9093(2)
_cell_length_c                   12.8402(3)
_cell_angle_alpha                67.6210(10)
_cell_angle_beta                 89.7600(10)
_cell_angle_gamma                80.4700(10)
_cell_volume                     905.875
loop_
_atom_site_label
_atom_site_type_symbol
_atom_site_fract_x
_atom_site_fract_y
_atom_site_fract_z
Dy1 Dy 0.71187(3) 0.67884(2) 0.586068(17)
P1 P 0.67978(16) 0.46043(14) 0.88323(10)
O1 O 0.6892(4) 0.5817(4) 0.7705(3)
O2 O 0.9223(4) 0.8051(4) 0.6226(3)
H1 H 0.9315 0.7644 0.6942
H2 H 0.8899 0.8946 0.6145
O3 O 0.7306(4) 0.5106(4) 0.9788(3)
H3 H 0.6427 0.5346 1.0072
O5 O 0.5061(4) 0.4117(4) 0.9023(3)
O7 O 0.7209(5) -0.2461(4) 1.2057(3)
H8 H 0.7611 -0.2699 1.2704
O8 O 0.6676(4) 0.4363(4) 0.6042(3)
O9 O 0.5399(4) 0.3118(3) 0.5228(3)
O10 O 0.8362(4) 0.6477(4) 0.4231(2)
O11 O 1.0134(4) 0.4872(4) 0.3687(2)
O12 O 0.6671(4) 0.9206(3) 0.4399(3)
O13 O 0.5082(4) 1.1501(3) 0.3745(2)
N1 N 0.6438(5) -0.1622(4) 0.9879(3)
H9 H 0.6240 -0.2444 1.0375
C1 C 0.6013(7) -0.1306(6) 0.8811(4)
H10 H 0.5522 -0.1970 0.8607
C2 C 0.6296(7) 0.0005(7) 0.7998(4)
H11 H 0.6013 0.0223 0.7242
C3 C 0.6983(6) 0.0975(6) 0.8298(4)
H12 H 0.7135 0.1874 0.7744
C4 C 0.7480(6) 0.0654(5) 0.9438(4)
C5 C 0.8245(6) 0.1611(5) 0.9812(4)
C6 C 0.8644(6) 0.1159(6) 1.0946(4)
H13 H 0.9136 0.1777 1.1203
C7 C 0.8333(7) -0.0208(6) 1.1737(4)
H14 H 0.8632 -0.0476 1.2499
C8 C 0.7600(6) -0.1144(5) 1.1401(4)
C9 C 0.7176(6) -0.0707(5) 1.0235(4)
C10 C 0.8545(6) 0.3090(5) 0.8994(4)
H15 H 0.8722 0.3032 0.8262
H16 H 0.9602 0.3302 0.9242
C11 C 0.5605(6) 0.4277(5) 0.5372(4)
C12 C 0.9580(6) 0.5385(5) 0.4400(4)
C13 C 0.5519(6) 1.0200(5) 0.4465(4)
Dy1A Dy 0.28813(3) 0.32116(2) 0.413932(17)
Dy1A_2 Dy 1.28813(3) 0.32116(2) 0.413932(17)
Dy1A_3 Dy 0.28813(3) 1.32116(2) 0.413932(17)
P1A P 0.32022(16) 0.53957(14) 0.11677(10)
O1A O 0.3108(4) 0.4183(4) 0.2295(3)
O2A O 0.0777(4) 0.1949(4) 0.3774(3)
H1A H 0.0685 0.2356 0.3058
H2A H 0.1101 0.1054 0.3855
O3A O 0.2694(4) 0.4894(4) 0.0212(3)
H3A H 0.3573 0.4654 -0.0072
O5A O 0.4939(4) 0.5883(4) 0.0977(3)
O7A O 0.2791(5) 1.2461(4) -0.2057(3)
H8A H 0.2389 1.2699 -0.2704
O8A O 0.3324(4) 0.5637(4) 0.3958(3)
O9A O 0.4601(4) 0.6882(3) 0.4772(3)
O10A O 1.1638(4) 0.3523(4) 0.5769(2)
O10A_2 O 0.1638(4) 0.3523(4) 0.5769(2)
O11A O 0.9866(4) 0.5128(4) 0.6313(2)
O11_2 O 0.0134(4) 0.4872(4) 0.3687(2)
O12A O 0.3329(4) 1.0794(3) 0.5601(3)
O12A_2 O 0.3329(4) 0.0794(3) 0.5601(3)
O13A O 0.4918(4) 0.8499(3) 0.6255(2)
O13_2 O 0.5082(4) 0.1501(3) 0.3745(2)
N1A N 0.3562(5) 1.1622(4) 0.0121(3)
H9A H 0.3760 1.2444 -0.0375
C1A C 0.3987(7) 1.1306(6) 0.1189(4)
H10A H 0.4478 1.1970 0.1393
C2A C 0.3704(7) 0.9995(7) 0.2002(4)
H11A H 0.3987 0.9777 0.2758
C3A C 0.3017(6) 0.9025(6) 0.1702(4)
H12A H 0.2865 0.8126 0.2256
C4A C 0.2520(6) 0.9346(5) 0.0562(4)
C5A C 0.1755(6) 0.8389(5) 0.0188(4)
C6A C 0.1356(6) 0.8841(6) -0.0946(4)
H13A H 0.0864 0.8223 -0.1203
C7A C 0.1667(7) 1.0208(6) -0.1737(4)
H14A H 0.1368 1.0476 -0.2499
C8A C 0.2400(6) 1.1144(5) -0.1401(4)
C9A C 0.2824(6) 1.0707(5) -0.0235(4)
C10A C 0.1455(6) 0.6910(5) 0.1006(4)
H15A H 0.1278 0.6968 0.1738
H16A H 0.0398 0.6698 0.0758
C11A C 0.4395(6) 0.5723(5) 0.4628(4)
C12A C 1.0420(6) 0.4615(5) 0.5600(4)
C13A C 0.4481(6) 0.9800(5) 0.5535(4)
O4 O 0.8689(5) 0.1011(4) 0.5797(3)
H4 H 0.8993 0.1810 0.5360
H5 H 0.7608 0.1168 0.5876
O6 O 0.2354(5) 0.6796(5) 0.7367(4)
H6 H 0.2084 0.7730 0.7030
H7 H 0.1964 0.6382 0.6971
loop_
_geom_bond_atom_site_label_1
_geom_bond_atom_site_label_2
_geom_bond_site_symmetry_1
_geom_bond_site_symmetry_2
Dy1 O1 1_555 1_555
P1 O1 1_555 1_555
O2 Dy1 1_555 1_555
H1 O2 1_555 1_555
H2 O2 1_555 1_555
O3 P1 1_555 1_555
H3 O3 1_555 1_555
O4 H4 1_555 1_555
H5 O4 1_555 1_555
O5 P1 1_555 1_555
O6 H6 1_555 1_555
H7 O6 1_555 1_555
O7 H8 1_555 1_555
O8 Dy1 1_555 1_555
O9 C11 1_555 1_555
O10 Dy1 1_555 1_555
O11 C12 1_555 1_555
O12 Dy1 1_555 1_555
O13 C13 1_555 1_555
N1 H9 1_555 1_555
C1 N1 1_555 1_555
H10 C1 1_555 1_555
C2 C1 1_555 1_555
H11 C2 1_555 1_555
C3 C2 1_555 1_555
H12 C3 1_555 1_555
C4 C3 1_555 1_555
C5 C4 1_555 1_555
C6 C5 1_555 1_555
H13 C6 1_555 1_555
C7 C6 1_555 1_555
H14 C7 1_555 1_555
C8 O7 1_555 1_555
C9 N1 1_555 1_555
C10 P1 1_555 1_555
H15 C10 1_555 1_555
H16 C10 1_555 1_555
C11 O8 1_555 1_555
C12 O10 1_555 1_555
C13 O12 1_555 1_555
Dy1A O9 1_555 1_555
Dy1A_2 O11 1_555 1_555
Dy1A_3 O13 1_555 1_555
P1A O1A 1_555 1_555
O1A Dy1A 1_555 1_555
O2A Dy1A 1_555 1_555
H1A O2A 1_555 1_555
H2A O2A 1_555 1_555
O3A P1A 1_555 1_555
H3A O3A 1_555 1_555
O5A P1A 1_555 1_555
O7A H8A 1_555 1_555
O8A Dy1A 1_555 1_555
O9A Dy1 1_555 1_555
O10A Dy1A_2 1_555 1_555
O10A_2 Dy1A 1_555 1_555
O11A Dy1 1_555 1_555
O11_2 Dy1A 1_555 1_555
O12A Dy1A_3 1_555 1_555
O12A_2 Dy1A 1_555 1_555
O13A Dy1 1_555 1_555
O13_2 Dy1A 1_555 1_555
N1A H9A 1_555 1_555
C1A N1A 1_555 1_555
H10A C1A 1_555 1_555
C2A C1A 1_555 1_555
H11A C2A 1_555 1_555
C3A C2A 1_555 1_555
H12A C3A 1_555 1_555
C4A C3A 1_555 1_555
C5A C4A 1_555 1_555
C6A C5A 1_555 1_555
H13A C6A 1_555 1_555
C7A C6A 1_555 1_555
H14A C7A 1_555 1_555
C8A O7A 1_555 1_555
C9A N1A 1_555 1_555
C10A P1A 1_555 1_555
H15A C10A 1_555 1_555
H16A C10A 1_555 1_555
C11A C11 1_555 1_555
C12A C12 1_555 1_555
C13A C13 1_555 1_555
C4 C9 1_555 1_555
C5 C10 1_555 1_555
C7 C8 1_555 1_555
C8 C9 1_555 1_555
O8A C11A 1_555 1_555
O9A C11A 1_555 1_555
O10A C12A 1_555 1_555
O11A C12A 1_555 1_555
O12A C13A 1_555 1_555
O13A C13A 1_555 1_555
C4A C9A 1_555 1_555
C5A C10A 1_555 1_555
C7A C8A 1_555 1_555
C8A C9A 1_555 1_555

#END
