
#######################################################################
#
#                 Cambridge Crystallographic Data Centre
#                                CCDC 
#
#######################################################################
#
# If this CIF has been generated from an entry in the Cambridge 
# Structural Database, then it will include bibliographic, chemical, 
# crystal, experimental, refinement or atomic coordinate data resulting 
# from the CCDC's data processing and validation procedures.
#
#######################################################################

data_VEDTUV
_symmetry_cell_setting           monoclinic
_symmetry_space_group_name_H-M   'P 21'
_symmetry_Int_Tables_number      4
_space_group_name_Hall           'P 2yb'
loop_
_symmetry_equiv_pos_site_id
_symmetry_equiv_pos_as_xyz
1 x,y,z
2 -x,1/2+y,-z
_cell_length_a                   7.6619(4)
_cell_length_b                   5.8283(3)
_cell_length_c                   19.2568(9)
_cell_angle_alpha                90
_cell_angle_beta                 100.833(4)
_cell_angle_gamma                90
_cell_volume                     844.604
loop_
_atom_site_label
_atom_site_type_symbol
_atom_site_fract_x
_atom_site_fract_y
_atom_site_fract_z
Ni1 Ni 0.66450(6) 0.44080(10) 0.61611(2)
C1 C 0.8656(6) 0.6152(9) 0.7155(2)
C2 C 0.9720(5) 0.6988(8) 0.78309(19)
C3 C 0.9984(6) 0.5526(8) 0.8407(2)
H1 H 0.9507 0.4054 0.8360
C4 C 1.0950(6) 0.6229(8) 0.9053(2)
H2 H 1.1069 0.5253 0.9441
C5 C 1.1739(5) 0.8365(8) 0.9127(2)
C6 C 1.1490(5) 0.9808(9) 0.85464(19)
H3 H 1.2037 1.1239 0.8585
C7 C 1.0443(5) 0.9165(9) 0.79092(18)
H4 H 1.0228 1.0198 0.7535
C8 C 1.2842(6) 0.9201(10) 0.98143(18)
H5 H 1.3969 0.9796 0.9733
H6 H 1.2222 1.0425 1.0009
C9 C 1.3784(5) 0.7836(8) 1.10011(19)
C10 C 1.3514(6) 0.6159(8) 1.14753(19)
H7 H 1.2979 0.4779 1.1313
C11 C 1.4043(6) 0.6541(8) 1.2192(2)
H8 H 1.3862 0.5427 1.2517
C12 C 1.4843(5) 0.8598(7) 1.2419(2)
C13 C 1.5183(5) 1.0245(8) 1.1949(2)
H9 H 1.5757 1.1602 1.2111
C14 C 1.4645(5) 0.9832(9) 1.12244(19)
H10 H 1.4872 1.0910 1.0897
C15 C 1.7046(5) 0.9207(10) 1.35037(17)
H11 H 1.7732 1.0077 1.3212
C16 C 1.7827(6) 0.6837(9) 1.3638(2)
H12 H 1.7803 0.6071 1.3195
H13 H 1.7142 0.5976 1.3917
H14 H 1.9032 0.6955 1.3887
C17 C 1.7046(5) 1.0486(7) 1.4191(2)
O1 O 0.8699(3) 0.4043(6) 0.70063(13)
O2 O 0.7678(4) 0.7492(5) 0.67325(13)
O3 O 1.3136(4) 0.7335(6) 1.02941(14)
O4 O 1.5193(3) 0.9091(6) 1.31476(11)
O5 O 1.8459(4) 1.1380(6) 1.44904(14)
O6 O 1.5621(3) 1.0561(5) 1.44307(13)
O7 O 0.8090(4) 0.4951(5) 0.53992(14)
H15 H 0.918(3) 0.558(8) 0.552(2)
H16 H 0.832(6) 0.371(5) 0.516(2)
O8 O 0.6185(4) 0.1093(5) 0.58720(15)
H17 H 0.582(6) 0.085(9) 0.5409(8)
H18 H 0.709(4) 0.031(8) 0.613(2)
Ni1A Ni 1.33550(6) 0.94080(10) 1.38389(2)
O4A O 0.4807(3) 0.4091(6) 0.68524(11)
O6A O 0.4379(3) 0.5561(5) 0.55693(13)
loop_
_geom_bond_atom_site_label_1
_geom_bond_atom_site_label_2
_geom_bond_site_symmetry_1
_geom_bond_site_symmetry_2
Ni1 O1 1_555 1_555
C1 C2 1_555 1_555
C2 C3 1_555 1_555
C3 H1 1_555 1_555
C4 C3 1_555 1_555
H2 C4 1_555 1_555
C5 C4 1_555 1_555
C6 C5 1_555 1_555
H3 C6 1_555 1_555
C7 C2 1_555 1_555
H4 C7 1_555 1_555
C8 C5 1_555 1_555
H5 C8 1_555 1_555
H6 C8 1_555 1_555
C9 C10 1_555 1_555
C10 H7 1_555 1_555
C11 C10 1_555 1_555
H8 C11 1_555 1_555
C12 C11 1_555 1_555
C13 C12 1_555 1_555
H9 C13 1_555 1_555
C14 C9 1_555 1_555
H10 C14 1_555 1_555
C15 H11 1_555 1_555
C16 C15 1_555 1_555
H12 C16 1_555 1_555
H13 C16 1_555 1_555
H14 C16 1_555 1_555
C17 C15 1_555 1_555
O1 C1 1_555 1_555
O2 Ni1 1_555 1_555
O3 C8 1_555 1_555
O4 C12 1_555 1_555
O5 C17 1_555 1_555
O6 C17 1_555 1_555
O7 Ni1 1_555 1_555
H15 O7 1_555 1_555
H16 O7 1_555 1_555
O8 Ni1 1_555 1_555
H17 O8 1_555 1_555
H18 O8 1_555 1_555
Ni1A O4 1_555 1_555
O4A Ni1 1_555 1_555
O6A Ni1 1_555 1_555
C1 O2 1_555 1_555
C6 C7 1_555 1_555
C9 O3 1_555 1_555
C13 C14 1_555 1_555
C15 O4 1_555 1_555
O6 Ni1A 1_555 1_555

#END
