
#######################################################################
#
#                 Cambridge Crystallographic Data Centre
#                                CCDC 
#
#######################################################################
#
# If this CIF has been generated from an entry in the Cambridge 
# Structural Database, then it will include bibliographic, chemical, 
# crystal, experimental, refinement or atomic coordinate data resulting 
# from the CCDC's data processing and validation procedures.
#
#######################################################################

data_VEDVAC
_symmetry_cell_setting           triclinic
_symmetry_space_group_name_H-M   'P -1'
_symmetry_Int_Tables_number      2
_space_group_name_Hall           '-P 1'
loop_
_symmetry_equiv_pos_site_id
_symmetry_equiv_pos_as_xyz
1 x,y,z
2 -x,-y,-z
_cell_length_a                   9.7996(2)
_cell_length_b                   10.1521(2)
_cell_length_c                   11.7852(2)
_cell_angle_alpha                78.4690(10)
_cell_angle_beta                 66.2970(10)
_cell_angle_gamma                68.3460(10)
_cell_volume                     995.966
loop_
_atom_site_label
_atom_site_type_symbol
_atom_site_fract_x
_atom_site_fract_y
_atom_site_fract_z
Ag1 Ag 0.26918(3) 0.44828(2) 0.93235(2)
S1 S 0.45685(9) 0.27417(7) 0.77469(6)
S2 S 0.04575(8) 0.66920(7) 0.92697(6)
S3 S 0.35731(9) 0.46484(8) 1.17972(7)
F1 F 0.1405(3) 0.4482(3) 1.3977(2)
F2 F 0.3363(3) 0.2591(2) 1.3523(2)
F3 F 0.3610(3) 0.4374(3) 1.4035(2)
O1 O 0.2864(4) 0.4024(4) 1.1282(2)
O2 O 0.2923(3) 0.6156(3) 1.1849(3)
O3 O 0.5258(3) 0.4089(3) 1.1379(2)
C1 C 0.2938(4) 0.4001(4) 1.3419(3)
C2 C 0.3491(4) 0.1986(3) 0.7303(3)
C3 C 0.2008(4) 0.2789(4) 0.7310(3)
H1 H 0.1557 0.3721 0.7572
C4 C 0.1177(5) 0.2225(4) 0.6930(3)
H2 H 0.0170 0.2780 0.6927
C5 C 0.1824(5) 0.0856(4) 0.6560(3)
H3 H 0.1249 0.0466 0.6326
C6 C 0.3307(5) 0.0066(4) 0.6533(4)
H4 H 0.3758 -0.0863 0.6266
C7 C 0.4155(5) 0.0625(4) 0.6899(4)
H5 H 0.5177 0.0079 0.6871
C8 C 0.5606(3) 0.1266(3) 0.8574(3)
H6 H 0.6330 0.0520 0.7997
H7 H 0.6238 0.1595 0.8850
C9 C 0.4534(4) 0.0630(3) 0.9691(3)
H8 H 0.3841 0.1356 1.0293
H9 H 0.3873 0.0326 0.9427
C10 C 0.0852(4) 0.7149(3) 0.7654(3)
C11 C -0.0389(4) 0.7822(4) 0.7242(3)
H10 H -0.1430 0.8056 0.7812
C12 C -0.0089(5) 0.8152(5) 0.5985(4)
H11 H -0.0931 0.8611 0.5702
C13 C 0.1434(5) 0.7810(5) 0.5147(3)
H12 H 0.1632 0.8035 0.4295
C14 C 0.2668(5) 0.7137(4) 0.5560(3)
H13 H 0.3708 0.6902 0.4986
C15 C 0.2389(4) 0.6806(3) 0.6809(3)
H14 H 0.3235 0.6350 0.7086
C16 C 0.0995(3) 0.8012(3) 0.9704(3)
H15 H 0.1158 0.7691 1.0495
H16 H 0.1991 0.8088 0.9073
C17 C -0.0247(3) 0.9459(3) 0.9830(3)
H17 H -0.1240 0.9392 1.0474
H18 H -0.0425 0.9779 0.9045
Ag1A Ag 0.73082(3) -0.44828(2) 1.06765(2)
Ag1A_2 Ag -0.26918(3) 1.55172(2) 1.06765(2)
S1A S 0.54315(9) -0.27417(7) 1.22531(6)
S2A S -0.04575(8) 1.33080(7) 1.07303(6)
S2A_2 S 0.95425(8) -0.66920(7) 1.07303(6)
S3A S 0.64269(9) -0.46484(8) 0.82028(7)
F1A F 0.8595(3) -0.4482(3) 0.6023(2)
F2A F 0.6637(3) -0.2591(2) 0.6477(2)
F3A F 0.6390(3) -0.4374(3) 0.5965(2)
O1A O 0.7136(4) -0.4024(4) 0.8718(2)
O2A O 0.7077(3) -0.6156(3) 0.8151(3)
O3A O 0.4742(3) -0.4089(3) 0.8621(2)
C1A C 0.7062(4) -0.4001(4) 0.6581(3)
C2A C 0.6509(4) -0.1986(3) 1.2697(3)
C3A C 0.7992(4) -0.2789(4) 1.2690(3)
H1A H 0.8443 -0.3721 1.2428
C4A C 0.8823(5) -0.2225(4) 1.3070(3)
H2A H 0.9830 -0.2780 1.3073
C5A C 0.8176(5) -0.0856(4) 1.3440(3)
H3A H 0.8751 -0.0466 1.3674
C6A C 0.6693(5) -0.0066(4) 1.3467(4)
H4A H 0.6242 0.0863 1.3734
C7A C 0.5845(5) -0.0625(4) 1.3101(4)
H5A H 0.4823 -0.0079 1.3129
C8A C 0.4394(3) -0.1266(3) 1.1426(3)
H6A H 0.3670 -0.0520 1.2003
H7A H 0.3762 -0.1595 1.1150
C9A C 0.5466(4) -0.0630(3) 1.0309(3)
H8A H 0.6159 -0.1356 0.9707
H9A H 0.6127 -0.0326 1.0573
C10A C -0.0852(4) 1.2851(3) 1.2346(3)
C11A C 0.0389(4) 1.2178(4) 1.2758(3)
H10A H 0.1430 1.1944 1.2188
C12A C 0.0089(5) 1.1848(5) 1.4015(4)
H11A H 0.0931 1.1389 1.4298
C13A C -0.1434(5) 1.2190(5) 1.4853(3)
H12A H -0.1632 1.1965 1.5705
C14A C -0.2668(5) 1.2863(4) 1.4440(3)
H13A H -0.3708 1.3098 1.5014
C15A C -0.2389(4) 1.3194(3) 1.3191(3)
H14A H -0.3235 1.3650 1.2914
C16A C -0.0995(3) 1.1988(3) 1.0296(3)
H15A H -0.1158 1.2309 0.9505
H16A H -0.1991 1.1912 1.0927
C17A C 0.0247(3) 1.0541(3) 1.0170(3)
H17A H 0.1240 1.0608 0.9526
H18A H 0.0425 1.0221 1.0955
loop_
_geom_bond_atom_site_label_1
_geom_bond_atom_site_label_2
_geom_bond_site_symmetry_1
_geom_bond_site_symmetry_2
Ag1 S1 1_555 1_555
S1 C2 1_555 1_555
S2 Ag1 1_555 1_555
S3 O1 1_555 1_555
F1 C1 1_555 1_555
F2 C1 1_555 1_555
F3 C1 1_555 1_555
O1 Ag1 1_555 1_555
O2 S3 1_555 1_555
O3 S3 1_555 1_555
C1 S3 1_555 1_555
C2 C3 1_555 1_555
C3 H1 1_555 1_555
C4 C3 1_555 1_555
H2 C4 1_555 1_555
C5 C4 1_555 1_555
H3 C5 1_555 1_555
C6 C5 1_555 1_555
H4 C6 1_555 1_555
C7 C2 1_555 1_555
H5 C7 1_555 1_555
C8 S1 1_555 1_555
H6 C8 1_555 1_555
H7 C8 1_555 1_555
C9 C8 1_555 1_555
H8 C9 1_555 1_555
H9 C9 1_555 1_555
C10 S2 1_555 1_555
C11 C10 1_555 1_555
H10 C11 1_555 1_555
C12 C11 1_555 1_555
H11 C12 1_555 1_555
C13 C12 1_555 1_555
H12 C13 1_555 1_555
C14 C13 1_555 1_555
H13 C14 1_555 1_555
C15 C10 1_555 1_555
H14 C15 1_555 1_555
C16 S2 1_555 1_555
H15 C16 1_555 1_555
H16 C16 1_555 1_555
C17 C16 1_555 1_555
H17 C17 1_555 1_555
H18 C17 1_555 1_555
Ag1A S1A 1_555 1_555
Ag1A_2 S2A 1_555 1_555
S1A C2A 1_555 1_555
S2A C10A 1_555 1_555
S2A_2 Ag1A 1_555 1_555
S3A O1A 1_555 1_555
F1A C1A 1_555 1_555
F2A C1A 1_555 1_555
F3A C1A 1_555 1_555
O1A Ag1A 1_555 1_555
O2A S3A 1_555 1_555
O3A S3A 1_555 1_555
C1A S3A 1_555 1_555
C2A C3A 1_555 1_555
C3A H1A 1_555 1_555
C4A C3A 1_555 1_555
H2A C4A 1_555 1_555
C5A C4A 1_555 1_555
H3A C5A 1_555 1_555
C6A C5A 1_555 1_555
H4A C6A 1_555 1_555
C7A C2A 1_555 1_555
H5A C7A 1_555 1_555
C8A S1A 1_555 1_555
H6A C8A 1_555 1_555
H7A C8A 1_555 1_555
C9A C9 1_555 1_555
H8A C9A 1_555 1_555
H9A C9A 1_555 1_555
C10A C11A 1_555 1_555
C11A H10A 1_555 1_555
C12A C11A 1_555 1_555
H11A C12A 1_555 1_555
C13A C12A 1_555 1_555
H12A C13A 1_555 1_555
C14A C13A 1_555 1_555
H13A C14A 1_555 1_555
C15A C10A 1_555 1_555
H14A C15A 1_555 1_555
C16A S2A 1_555 1_555
H15A C16A 1_555 1_555
H16A C16A 1_555 1_555
C17A C17 1_555 1_555
H17A C17A 1_555 1_555
H18A C17A 1_555 1_555
C6 C7 1_555 1_555
C14 C15 1_555 1_555
C6A C7A 1_555 1_555
C8A C9A 1_555 1_555
C14A C15A 1_555 1_555
C16A C17A 1_555 1_555

#END
