
#######################################################################
#
#                 Cambridge Crystallographic Data Centre
#                                CCDC 
#
#######################################################################
#
# If this CIF has been generated from an entry in the Cambridge 
# Structural Database, then it will include bibliographic, chemical, 
# crystal, experimental, refinement or atomic coordinate data resulting 
# from the CCDC's data processing and validation procedures.
#
#######################################################################

data_VEDVIL
_symmetry_cell_setting           orthorhombic
_symmetry_space_group_name_H-M   'P 21 21 21'
_symmetry_Int_Tables_number      19
_space_group_name_Hall           'P 2ac 2ab'
loop_
_symmetry_equiv_pos_site_id
_symmetry_equiv_pos_as_xyz
1 x,y,z
2 1/2-x,-y,1/2+z
3 1/2+x,1/2-y,-z
4 -x,1/2+y,1/2-z
_cell_length_a                   8.2904(3)
_cell_length_b                   16.5876(5)
_cell_length_c                   18.3294(8)
_cell_angle_alpha                90
_cell_angle_beta                 90
_cell_angle_gamma                90
_cell_volume                     2520.62
loop_
_atom_site_label
_atom_site_type_symbol
_atom_site_fract_x
_atom_site_fract_y
_atom_site_fract_z
Cd1 Cd 0.08066(4) 0.738136(17) 0.469909(17)
C1 C 0.0839(7) 0.5756(3) 0.5084(3)
C2 C 0.0694(6) 0.4848(2) 0.5149(3)
C3 C 0.1047(8) 0.4464(3) 0.5789(3)
H1 H 0.1409 0.4762 0.6187
C4 C 0.0871(9) 0.3639(3) 0.5853(3)
H2 H 0.1118 0.3388 0.6293
C5 C 0.0336(6) 0.3185(2) 0.5275(3)
C6 C -0.0022(6) 0.3573(3) 0.4630(3)
H3 H -0.0380 0.3276 0.4232
C7 C 0.0143(6) 0.4397(3) 0.4569(3)
H4 H -0.0120 0.4650 0.4132
C8 C 0.0036(7) 0.2291(3) 0.5328(3)
H5 H -0.1110 0.2192 0.5389
H6 H 0.0383 0.2030 0.4882
C9 C 0.0542(6) 0.1181(2) 0.6127(3)
C10 C 0.1296(7) 0.0908(3) 0.6742(3)
H7 H 0.2031 0.1240 0.6981
C11 C 0.0986(8) 0.0151(3) 0.7013(3)
H8 H 0.1487 -0.0023 0.7439
C12 C -0.0081(6) -0.0351(2) 0.6647(3)
C13 C -0.0782(6) -0.0095(2) 0.6019(2)
H9 H -0.1463 -0.0439 0.5762
C14 C -0.0484(6) 0.0682(3) 0.5756(3)
H10 H -0.0983 0.0859 0.5331
C15 C -0.1355(6) -0.1647(3) 0.6597(2)
H11 H -0.2380 -0.1388 0.6470
C16 C -0.1665(7) -0.2335(3) 0.7123(3)
H12 H -0.2166 -0.2131 0.7557
H13 H -0.0660 -0.2588 0.7247
H14 H -0.2363 -0.2724 0.6897
C17 C -0.0574(6) -0.1975(2) 0.5918(2)
C18 C -0.1293(6) 0.6898(3) 0.3213(3)
H15 H -0.1233 0.6384 0.3413
C19 C -0.2131(7) 0.7001(4) 0.2564(3)
H16 H -0.2616 0.6562 0.2337
C20 C -0.2237(7) 0.7740(4) 0.2268(3)
H17 H -0.2785 0.7813 0.1830
C21 C -0.1520(7) 0.8405(4) 0.2618(3)
C22 C -0.1594(8) 0.9209(4) 0.2342(3)
H18 H -0.2153 0.9310 0.1911
C23 C -0.0874(9) 0.9820(4) 0.2691(3)
H19 H -0.0970 1.0340 0.2505
C24 C 0.0025(7) 0.9695(3) 0.3334(3)
C25 C 0.0831(8) 1.0297(3) 0.3711(3)
H20 H 0.0778 1.0825 0.3543
C26 C 0.1686(7) 1.0132(3) 0.4316(3)
H21 H 0.2249 1.0537 0.4558
C27 C 0.1712(6) 0.9333(3) 0.4575(3)
H22 H 0.2293 0.9218 0.4996
C28 C 0.0120(6) 0.8907(3) 0.3630(3)
C29 C -0.0677(6) 0.8257(3) 0.3262(2)
N1 N -0.0567(4) 0.7505(2) 0.35613(19)
N2 N 0.0953(5) 0.8746(2) 0.4247(2)
O1 O 0.1346(5) 0.6153(2) 0.5595(2)
O2 O 0.0429(4) 0.60580(18) 0.4477(2)
O3 O 0.0886(5) 0.19686(17) 0.5925(2)
O4 O -0.0352(4) -0.10829(17) 0.69806(16)
O5 O -0.1482(3) -0.23357(17) 0.54647(16)
O6 O 0.0893(4) -0.19088(16) 0.58203(16)
Cd1_2 Cd 0.08066(4) -0.261864(17) 0.469909(17)
Cd1B Cd -0.41934(4) -0.238136(17) 0.530091(17)
O5_2 O -0.1482(3) 0.76643(17) 0.54647(16)
O5B O 0.3518(3) 0.73357(17) 0.45353(16)
O6_2 O 0.0893(4) 0.80912(16) 0.58203(16)
loop_
_geom_bond_atom_site_label_1
_geom_bond_atom_site_label_2
_geom_bond_site_symmetry_1
_geom_bond_site_symmetry_2
Cd1 N1 1_555 1_555
C1 C2 1_555 1_555
C2 C3 1_555 1_555
C3 H1 1_555 1_555
C4 C3 1_555 1_555
H2 C4 1_555 1_555
C5 C4 1_555 1_555
C6 C5 1_555 1_555
H3 C6 1_555 1_555
C7 C2 1_555 1_555
H4 C7 1_555 1_555
C8 C5 1_555 1_555
H5 C8 1_555 1_555
H6 C8 1_555 1_555
C9 C10 1_555 1_555
C10 H7 1_555 1_555
C11 C10 1_555 1_555
H8 C11 1_555 1_555
C12 C11 1_555 1_555
C13 C12 1_555 1_555
H9 C13 1_555 1_555
C14 C9 1_555 1_555
H10 C14 1_555 1_555
C15 H11 1_555 1_555
C16 C15 1_555 1_555
H12 C16 1_555 1_555
H13 C16 1_555 1_555
H14 C16 1_555 1_555
C17 C15 1_555 1_555
C18 H15 1_555 1_555
C19 C18 1_555 1_555
H16 C19 1_555 1_555
C20 C19 1_555 1_555
H17 C20 1_555 1_555
C21 C20 1_555 1_555
C22 C21 1_555 1_555
H18 C22 1_555 1_555
C23 C22 1_555 1_555
H19 C23 1_555 1_555
C24 C23 1_555 1_555
C25 C24 1_555 1_555
H20 C25 1_555 1_555
C26 C25 1_555 1_555
H21 C26 1_555 1_555
C27 C26 1_555 1_555
H22 C27 1_555 1_555
C28 C24 1_555 1_555
C29 C21 1_555 1_555
N1 C18 1_555 1_555
N2 Cd1 1_555 1_555
O1 C1 1_555 1_555
O2 Cd1 1_555 1_555
O3 C8 1_555 1_555
O4 C12 1_555 1_555
O5 C17 1_555 1_555
O6 C17 1_555 1_555
Cd1_2 O5 1_555 1_555
Cd1B O5 1_555 1_555
O5_2 Cd1 1_555 1_555
O5B Cd1 1_555 1_555
O6_2 Cd1 1_555 1_555
C1 O2 1_555 1_555
C6 C7 1_555 1_555
C9 O3 1_555 1_555
C13 C14 1_555 1_555
C15 O4 1_555 1_555
C27 N2 1_555 1_555
C28 C29 1_555 1_555
C28 N2 1_555 1_555
C29 N1 1_555 1_555
O6 Cd1_2 1_555 1_555

#END
