
#######################################################################
#
#                 Cambridge Crystallographic Data Centre
#                                CCDC 
#
#######################################################################
#
# If this CIF has been generated from an entry in the Cambridge 
# Structural Database, then it will include bibliographic, chemical, 
# crystal, experimental, refinement or atomic coordinate data resulting 
# from the CCDC's data processing and validation procedures.
#
#######################################################################

data_VEDVEH
_symmetry_cell_setting           monoclinic
_symmetry_space_group_name_H-M   'C 2'
_symmetry_Int_Tables_number      5
_space_group_name_Hall           'C 2y'
loop_
_symmetry_equiv_pos_site_id
_symmetry_equiv_pos_as_xyz
1 x,y,z
2 -x,y,-z
3 1/2+x,1/2+y,z
4 1/2-x,1/2+y,-z
_cell_length_a                   18.3690(12)
_cell_length_b                   6.1110(3)
_cell_length_c                   15.1160(10)
_cell_angle_alpha                90
_cell_angle_beta                 99.078(6)
_cell_angle_gamma                90
_cell_volume                     1675.56
loop_
_atom_site_label
_atom_site_type_symbol
_atom_site_fract_x
_atom_site_fract_y
_atom_site_fract_z
Cd1 Cd 0.22864(3) 0.27088(15) 0.06601(3)
C1 C 0.6400(4) 0.242(3) 0.8152(5)
C2 C 0.5738(4) 0.2324(19) 0.7446(5)
C3 C 0.5294(5) 0.4079(15) 0.7259(6)
H1 H 0.5402 0.5374 0.7576
C4 C 0.4676(5) 0.3966(14) 0.6594(6)
H2 H 0.4375 0.5188 0.6470
C5 C 0.4506(5) 0.2054(14) 0.6120(6)
C6 C 0.4957(5) 0.0259(14) 0.6313(6)
H3 H 0.4845 -0.1036 0.5998
C7 C 0.5575(5) 0.0352(14) 0.6970(6)
H4 H 0.5877 -0.0866 0.7095
C8 C 0.3817(6) 0.1872(16) 0.5412(6)
H5 H 0.3904 0.0847 0.4950
H6 H 0.3408 0.1334 0.5685
C9 C 0.3110(4) 0.3988(14) 0.4268(5)
C10 C 0.3094(5) 0.5882(12) 0.3782(6)
H7 H 0.3406 0.7031 0.3991
C11 C 0.2613(5) 0.6105(13) 0.2979(5)
H8 H 0.2601 0.7389 0.2647
C12 C 0.2151(4) 0.4356(12) 0.2683(5)
C13 C 0.2156(4) 0.247(2) 0.3186(5)
H9 H 0.1829 0.1347 0.2995
C14 C 0.2654(4) 0.2253(12) 0.3983(5)
H10 H 0.2677 0.0963 0.4313
C15 C 0.1322(4) 0.6378(13) 0.1563(6)
H11 H 0.1285 0.7296 0.2085
C16 C 0.0559(4) 0.5802(14) 0.1098(6)
H12 H 0.0303 0.5012 0.1504
H13 H 0.0594 0.4909 0.0584
H14 H 0.0293 0.7119 0.0911
C17 C 0.1740(3) 0.760(2) 0.0936(4)
O1 O 0.6552(4) 0.4142(13) 0.8589(5)
O2 O 0.6815(4) 0.0775(11) 0.8307(5)
O3 O 0.3646(4) 0.3922(11) 0.5036(4)
O4 O 0.1680(3) 0.4335(8) 0.1859(3)
O5 O 0.1656(3) 0.9613(10) 0.0894(4)
O6 O 0.2110(3) 0.6465(8) 0.0462(3)
O7 O 0.1298(3) 0.2894(18) -0.0512(4)
H15 H 0.132(5) 0.367(11) -0.101(3)
H16 H 0.128(6) 0.151(6) -0.071(6)
Cd1A Cd 0.77136(3) 0.27088(15) 0.93399(3)
Cd1_2 Cd 0.22864(3) 1.27088(15) 0.06601(3)
Cd1C Cd 0.27136(3) 0.77088(15) -0.06601(3)
O1A O 0.3448(4) 0.4142(13) 0.1411(5)
O2A O 0.3185(4) 0.0775(11) 0.1693(5)
O5_2 O 0.1656(3) -0.0387(10) 0.0894(4)
O6C O 0.2890(3) 0.1465(8) -0.0462(3)
loop_
_geom_bond_atom_site_label_1
_geom_bond_atom_site_label_2
_geom_bond_site_symmetry_1
_geom_bond_site_symmetry_2
Cd1 O4 1_555 1_555
C1 C2 1_555 1_555
C2 C3 1_555 1_555
C3 H1 1_555 1_555
C4 C3 1_555 1_555
H2 C4 1_555 1_555
C5 C4 1_555 1_555
C6 C5 1_555 1_555
H3 C6 1_555 1_555
C7 C2 1_555 1_555
H4 C7 1_555 1_555
C8 C5 1_555 1_555
H5 C8 1_555 1_555
H6 C8 1_555 1_555
C9 C10 1_555 1_555
C10 H7 1_555 1_555
C11 C10 1_555 1_555
H8 C11 1_555 1_555
C12 C11 1_555 1_555
C13 C12 1_555 1_555
H9 C13 1_555 1_555
C14 C9 1_555 1_555
H10 C14 1_555 1_555
C15 H11 1_555 1_555
C16 C15 1_555 1_555
H12 C16 1_555 1_555
H13 C16 1_555 1_555
H14 C16 1_555 1_555
C17 C15 1_555 1_555
O1 C1 1_555 1_555
O2 C1 1_555 1_555
O3 C8 1_555 1_555
O4 C12 1_555 1_555
O5 C17 1_555 1_555
O6 Cd1 1_555 1_555
O7 Cd1 1_555 1_555
H15 O7 1_555 1_555
H16 O7 1_555 1_555
Cd1A O1 1_555 1_555
Cd1_2 O5 1_555 1_555
Cd1C O6 1_555 1_555
O1A Cd1 1_555 1_555
O2A Cd1 1_555 1_555
O5_2 Cd1 1_555 1_555
O6C Cd1 1_555 1_555
C6 C7 1_555 1_555
C9 O3 1_555 1_555
C13 C14 1_555 1_555
C15 O4 1_555 1_555
C17 O6 1_555 1_555
O2 Cd1A 1_555 1_555

#END
