
#######################################################################
#
#                 Cambridge Crystallographic Data Centre
#                                CCDC 
#
#######################################################################
#
# If this CIF has been generated from an entry in the Cambridge 
# Structural Database, then it will include bibliographic, chemical, 
# crystal, experimental, refinement or atomic coordinate data resulting 
# from the CCDC's data processing and validation procedures.
#
#######################################################################

data_VEDWIM
_symmetry_cell_setting           orthorhombic
_symmetry_space_group_name_H-M   'P 21 21 21'
_symmetry_Int_Tables_number      19
_space_group_name_Hall           'P 2ac 2ab'
loop_
_symmetry_equiv_pos_site_id
_symmetry_equiv_pos_as_xyz
1 x,y,z
2 1/2-x,-y,1/2+z
3 1/2+x,1/2-y,-z
4 -x,1/2+y,1/2-z
_cell_length_a                   7.2883(3)
_cell_length_b                   16.8613(8)
_cell_length_c                   23.5290(11)
_cell_angle_alpha                90
_cell_angle_beta                 90
_cell_angle_gamma                90
_cell_volume                     2891.48
loop_
_atom_site_label
_atom_site_type_symbol
_atom_site_fract_x
_atom_site_fract_y
_atom_site_fract_z
Cd1 Cd 0.19385(6) 0.89664(3) 0.32797(2)
C1 C 0.4701(9) 0.8774(4) 0.2509(3)
C2 C 0.6303(8) 0.8716(4) 0.2122(3)
C3 C 0.6316(8) 0.8196(4) 0.1664(3)
H1 H 0.5284 0.7891 0.1585
C4 C 0.7862(11) 0.8130(4) 0.1326(3)
H2 H 0.7861 0.7776 0.1023
C5 C 0.9395(9) 0.8578(4) 0.1430(3)
C6 C 0.9377(9) 0.9107(4) 0.1875(3)
H3 H 1.0401 0.9421 0.1947
C7 C 0.7841(9) 0.9174(4) 0.2215(3)
H4 H 0.7844 0.9535 0.2513
C8 C 1.1107(10) 0.8471(5) 0.1085(3)
H5 H 1.2036 0.8846 0.1206
H6 H 1.1584 0.7939 0.1136
C9 C 1.2129(10) 0.8584(4) 0.0120(3)
C10 C 1.1715(10) 0.8751(4) -0.0424(3)
H7 H 1.0503 0.8842 -0.0528
C11 C 1.3090(10) 0.8789(3) -0.0829(3)
H8 H 1.2806 0.8913 -0.1204
C12 C 1.4898(9) 0.8640(4) -0.0673(3)
C13 C 1.5282(10) 0.8433(4) -0.0124(3)
H9 H 1.6480 0.8309 -0.0021
C14 C 1.3926(10) 0.8408(5) 0.0274(3)
H10 H 1.4201 0.8273 0.0648
C15 C 1.6036(10) 0.8893(4) -0.1603(3)
H11 H 1.5185 0.8511 -0.1773
C16 C 1.7879(11) 0.8846(5) -0.1909(3)
H12 H 1.8355 0.8316 -0.1881
H13 H 1.8726 0.9210 -0.1738
H14 H 1.7716 0.8981 -0.2303
C17 C 1.5228(9) 0.9729(4) -0.1656(3)
C18 C 0.0572(10) 0.7148(4) 0.3143(3)
H15 H 0.1748 0.6976 0.3052
C19 C -0.1634(9) 0.7890(4) 0.3383(3)
H16 H -0.2312 0.8336 0.3484
C20 C -0.4317(10) 0.7012(5) 0.3241(4)
H17 H -0.4533 0.6736 0.2886
H18 H -0.4985 0.7509 0.3223
C21 C -0.5112(10) 0.6529(5) 0.3708(4)
C22 C -0.5332(11) 0.5726(5) 0.3669(3)
H19 H -0.4872 0.5457 0.3355
C23 C -0.6226(10) 0.5312(4) 0.4090(3)
H20 H -0.6359 0.4766 0.4052
C24 C -0.6923(11) 0.5676(4) 0.4559(3)
C25 C -0.6660(13) 0.6488(4) 0.4615(4)
H21 H -0.7091 0.6756 0.4934
C26 C -0.5740(12) 0.6896(5) 0.4185(4)
H22 H -0.5548 0.7439 0.4226
C27 C -0.7871(10) 0.5197(4) 0.5013(3)
H23 H -0.8182 0.4681 0.4857
H24 H -0.7018 0.5111 0.5324
C28 C -0.9936(9) 0.5644(4) 0.5791(3)
H25 H -0.9135 0.5521 0.6086
C29 C -1.2312(10) 0.6012(5) 0.5328(3)
H26 H -1.3477 0.6204 0.5244
N1 N 0.0143(7) 0.7890(3) 0.3334(3)
N2 N -0.0996(9) 0.6692(4) 0.3106(3)
N3 N -0.2371(8) 0.7195(4) 0.3276(3)
N4 N -0.9545(8) 0.5563(4) 0.5240(3)
N5 N -1.1619(7) 0.5924(3) 0.5862(2)
N6 N -1.1068(9) 0.5780(4) 0.4939(3)
O1 O 0.3293(7) 0.8382(3) 0.2421(2)
O2 O 0.4838(6) 0.9201(3) 0.2941(2)
O3 O 1.0666(7) 0.8600(3) 0.05059(19)
O4 O 1.6384(6) 0.8676(3) -0.1037(2)
O5 O 1.4044(7) 0.9838(3) -0.2035(2)
O6 O 1.5741(7) 1.0252(3) -0.1322(2)
Cd1B Cd -1.30615(6) 0.60336(3) 0.67203(2)
Cd1A Cd 1.30615(6) 1.10336(3) -0.17203(2)
N5B N 0.3381(7) 0.9076(3) 0.4138(2)
O5A O 0.0956(7) 1.0162(3) 0.2965(2)
O6A O -0.0741(7) 0.9748(3) 0.3678(2)
loop_
_geom_bond_atom_site_label_1
_geom_bond_atom_site_label_2
_geom_bond_site_symmetry_1
_geom_bond_site_symmetry_2
Cd1 N1 1_555 1_555
C1 C2 1_555 1_555
C2 C3 1_555 1_555
C3 H1 1_555 1_555
C4 C3 1_555 1_555
H2 C4 1_555 1_555
C5 C4 1_555 1_555
C6 C5 1_555 1_555
H3 C6 1_555 1_555
C7 C2 1_555 1_555
H4 C7 1_555 1_555
C8 C5 1_555 1_555
H5 C8 1_555 1_555
H6 C8 1_555 1_555
C9 C10 1_555 1_555
C10 H7 1_555 1_555
C11 C10 1_555 1_555
H8 C11 1_555 1_555
C12 C11 1_555 1_555
C13 C12 1_555 1_555
H9 C13 1_555 1_555
C14 C9 1_555 1_555
H10 C14 1_555 1_555
C15 H11 1_555 1_555
C16 C15 1_555 1_555
H12 C16 1_555 1_555
H13 C16 1_555 1_555
H14 C16 1_555 1_555
C17 C15 1_555 1_555
C18 H15 1_555 1_555
C19 H16 1_555 1_555
C20 H17 1_555 1_555
H18 C20 1_555 1_555
C21 C20 1_555 1_555
C22 C21 1_555 1_555
H19 C22 1_555 1_555
C23 C22 1_555 1_555
H20 C23 1_555 1_555
C24 C23 1_555 1_555
C25 C24 1_555 1_555
H21 C25 1_555 1_555
C26 C21 1_555 1_555
H22 C26 1_555 1_555
C27 C24 1_555 1_555
H23 C27 1_555 1_555
H24 C27 1_555 1_555
C28 H25 1_555 1_555
C29 H26 1_555 1_555
N1 C18 1_555 1_555
N2 C18 1_555 1_555
N3 C19 1_555 1_555
N4 C27 1_555 1_555
N5 C28 1_555 1_555
N6 C29 1_555 1_555
O1 Cd1 1_555 1_555
O2 Cd1 1_555 1_555
O3 C8 1_555 1_555
O4 C12 1_555 1_555
O5 C17 1_555 1_555
O6 C17 1_555 1_555
Cd1B N5 1_555 1_555
Cd1A O5 1_555 1_555
N5B Cd1 1_555 1_555
O5A Cd1 1_555 1_555
O6A Cd1 1_555 1_555
C1 O1 1_555 1_555
C1 O2 1_555 1_555
C6 C7 1_555 1_555
C9 O3 1_555 1_555
C13 C14 1_555 1_555
C15 O4 1_555 1_555
C19 N1 1_555 1_555
C20 N3 1_555 1_555
C25 C26 1_555 1_555
C28 N4 1_555 1_555
C29 N5 1_555 1_555
N2 N3 1_555 1_555
N4 N6 1_555 1_555
O6 Cd1A 1_555 1_555

#END
