
#######################################################################
#
#                 Cambridge Crystallographic Data Centre
#                                CCDC 
#
#######################################################################
#
# If this CIF has been generated from an entry in the Cambridge 
# Structural Database, then it will include bibliographic, chemical, 
# crystal, experimental, refinement or atomic coordinate data resulting 
# from the CCDC's data processing and validation procedures.
#
#######################################################################

data_VEDYAF
_symmetry_cell_setting           monoclinic
_symmetry_space_group_name_H-M   'P 21/n'
_symmetry_Int_Tables_number      14
_space_group_name_Hall           '-P 2yn'
loop_
_symmetry_equiv_pos_site_id
_symmetry_equiv_pos_as_xyz
1 x,y,z
2 1/2-x,1/2+y,1/2-z
3 -x,-y,-z
4 1/2+x,1/2-y,1/2+z
_cell_length_a                   9.1072(2)
_cell_length_b                   23.9835(7)
_cell_length_c                   18.0800(5)
_cell_angle_alpha                90
_cell_angle_beta                 97.563(2)
_cell_angle_gamma                90
_cell_volume                     3914.73
loop_
_atom_site_label
_atom_site_type_symbol
_atom_site_fract_x
_atom_site_fract_y
_atom_site_fract_z
Cu1 Cu 0.74492(6) 0.14558(2) 0.99967(3)
N1 N 0.8194(4) 0.20530(14) 1.07596(19)
O1 O 0.8086(4) 0.37978(14) 1.29071(18)
C1 C 0.7331(5) 0.24952(18) 1.0864(2)
H1 H 0.6314 0.2483 1.0662
Cl1 Cl 0.46698(12) 0.14954(5) 1.04443(6)
O2 O 0.7117(3) 0.38880(13) 0.71551(17)
N2 N 0.9081(4) 0.40020(15) 1.1849(2)
H2 H 0.9168 0.4251 1.1501
C2 C 0.7862(5) 0.29660(18) 1.1251(3)
H3 H 0.7214 0.3268 1.1315
O3 O 0.9838(4) 0.13538(17) 0.9651(2)
H4 H 1.035(7) 0.151(3) 0.943(3)
H5 H 1.017(8) 0.123(3) 0.989(4)
N3 N 0.7011(4) 0.44633(16) 1.2112(2)
H6 H 0.7046 0.4651 1.1696
C3 C 0.9346(5) 0.29965(19) 1.1547(3)
N4 N 0.6927(4) 0.20828(14) 0.92449(19)
C4 C 1.0214(5) 0.25309(19) 1.1472(3)
H7 H 1.1221 0.2527 1.1690
N5 N 0.8272(4) 0.58945(14) 0.58094(19)
C5 C 0.9615(5) 0.20703(18) 1.1077(3)
H8 H 1.0230 0.1756 1.1029
C6 C 1.0034(5) 0.35139(19) 1.1925(3)
H9 H 1.0309 0.3434 1.2463
H10 H 1.0956 0.3601 1.1714
N6 N 0.8298(5) 0.45255(16) 0.7948(2)
H11 H 0.8315 0.4708 0.8371
N7 N 0.6240(4) 0.40661(16) 0.8239(2)
H12 H 0.6207 0.4302 0.8610
C7 C 0.8052(5) 0.40685(17) 1.2326(3)
N8 N 0.7029(4) 0.58370(14) 1.42326(19)
C8 C 0.5844(5) 0.45783(19) 1.2563(3)
H13 H 0.5587 0.4229 1.2808
H14 H 0.4951 0.4705 1.2233
C9 C 0.7829(5) 0.25162(18) 0.9179(2)
H15 H 0.8837 0.2485 0.9393
C10 C 0.7371(5) 0.30038(18) 0.8819(2)
H16 H 0.8051 0.3300 0.8785
C11 C 0.5897(5) 0.30576(19) 0.8504(2)
C12 C 0.4990(5) 0.25966(19) 0.8530(3)
H17 H 0.3996 0.2609 0.8293
C13 C 0.5521(5) 0.21197(18) 0.8898(2)
H18 H 0.4881 0.1808 0.8908
C14 C 0.7671(5) 0.58967(17) 0.6453(2)
H19 H 0.6984 0.6182 0.6532
C15 C 0.8016(5) 0.55019(18) 0.6998(2)
H20 H 0.7573 0.5517 0.7445
C16 C 0.9016(5) 0.50804(18) 0.6893(2)
C17 C 0.9654(5) 0.50859(18) 0.6243(2)
H21 H 1.0352 0.4808 0.6155
C18 C 0.9271(5) 0.54983(17) 0.5718(2)
H22 H 0.9734 0.5501 0.5277
C19 C 0.9426(5) 0.46353(19) 0.7476(3)
H23 H 0.9641 0.4285 0.7221
H24 H 1.0344 0.4750 0.7794
C20 C 0.7213(5) 0.41466(17) 0.7753(2)
C21 C 0.5244(5) 0.35928(19) 0.8158(3)
H25 H 0.4930 0.3528 0.7620
H26 H 0.4348 0.3687 0.8388
C22 C 0.6444(5) 0.53519(17) 1.4414(2)
H27 H 0.6280 0.5292 1.4916
C23 C 0.6066(5) 0.49327(18) 1.3890(3)
H28 H 0.5670 0.4590 1.4038
C24 C 0.6270(4) 0.50174(18) 1.3154(2)
C25 C 0.6872(5) 0.55250(17) 1.2974(2)
H29 H 0.7031 0.5600 1.2475
C26 C 0.7236(5) 0.59186(17) 1.3524(2)
H30 H 0.7651 0.6262 1.3392
Cu1A Cu 0.75508(6) 0.64558(2) 0.50033(3)
Cu1A_2 Cu 0.75508(6) 0.64558(2) 1.50033(3)
N5A N 0.6728(4) 0.08945(14) 0.91906(19)
N8A N 0.7971(4) 0.08370(14) 1.07674(19)
O4 O 1.1848(3) 0.07894(11) 1.06327(14)
H31 H 1.1780 0.0819 1.1007
H32 H 1.2766 0.0953 1.0525
O5 O 0.2069(3) -0.03685(11) 0.58874(14)
H33 H 0.1509 -0.0266 0.5782
H34 H 0.2807 -0.0269 0.5980
O6 O 0.6055(5) -0.19779(17) 0.8065(2)
H35 H 0.5573 -0.1854 0.7837
H36 H 0.6418 -0.2075 0.8270
O7 O 0.8824(5) 0.1885(2) 0.7276(5)
H37 H 0.8924 0.1820 0.6881
H38 H 0.8784 0.1969 0.7590
O8 O 1.1047(7) 0.1870(3) 0.8415(3)
H39 H 1.1617 0.2108 0.8155
H40 H 1.1522 0.2034 0.8666
O9 O 0.8941(9) 0.4117(3) 1.0182(4)
H41 H 0.8444 0.4183 0.9995
H42 H 0.9289 0.4332 1.0166
H43 H 1.1506 0.3793 0.9128
O22 O 1.168(4) 0.3859(11) 0.8787(18)
H53 H 1.1469 0.3600 0.8290
O11 O 0.7031(18) 0.0239(4) 0.5775(5)
H44 H 0.6177 0.0150 0.5665
H45 H 0.7580 0.0085 0.5824
O12 O 0.1303(10) 0.2949(4) 0.8165(6)
H46 H 0.1190 0.3040 0.8432
O14 O 1.3804(12) 0.3766(5) 1.1072(8)
H47 H 1.3515 0.4096 1.1249
H48 H 1.3817 0.3522 1.0580
O15 O 1.574(3) 0.3906(9) 1.0035(9)
H49 H 1.5023 0.3693 1.0057
H50 H 1.6164 0.4097 0.9886
O17 O 1.1912(16) 0.2223(6) 0.9706(7)
O19 O 0.944(2) 0.0080(6) 0.5702(7)
H51 H 1.0447 0.0041 0.5603
O20 O 1.319(3) 0.2840(8) 1.0171(10)
O21 O 0.448(2) -0.0027(7) 0.5688(9)
O10? O 1.1043(11) 0.3606(5) 0.9444(5)
O13? O 0.1516(14) 0.3103(6) 0.7685(11)
O16? O 1.132(2) 0.3318(7) 1.0036(11)
O18? O 1.5825(18) 0.4309(9) 0.9919(8)
H52? H 0.3711 -0.0112 0.5712
loop_
_geom_bond_atom_site_label_1
_geom_bond_atom_site_label_2
_geom_bond_site_symmetry_1
_geom_bond_site_symmetry_2
Cu1 N1 1_555 1_555
N1 C1 1_555 1_555
O1 C7 1_555 1_555
C1 H1 1_555 1_555
Cl1 Cu1 1_555 1_555
O2 C20 1_555 1_555
N2 H2 1_555 1_555
C2 C1 1_555 1_555
H3 C2 1_555 1_555
O3 Cu1 1_555 1_555
H4 O3 1_555 1_555
H5 O3 1_555 1_555
N3 H6 1_555 1_555
C3 C2 1_555 1_555
N4 Cu1 1_555 1_555
C4 C3 1_555 1_555
H7 C4 1_555 1_555
N5 C14 1_555 1_555
C5 N1 1_555 1_555
H8 C5 1_555 1_555
C6 N2 1_555 1_555
H9 C6 1_555 1_555
H10 C6 1_555 1_555
N6 H11 1_555 1_555
N7 H12 1_555 1_555
C7 N2 1_555 1_555
N8 C22 1_555 1_555
C8 N3 1_555 1_555
H13 C8 1_555 1_555
H14 C8 1_555 1_555
C9 N4 1_555 1_555
H15 C9 1_555 1_555
C10 C9 1_555 1_555
H16 C10 1_555 1_555
C11 C10 1_555 1_555
C12 C11 1_555 1_555
H17 C12 1_555 1_555
C13 N4 1_555 1_555
H18 C13 1_555 1_555
C14 H19 1_555 1_555
C15 C14 1_555 1_555
H20 C15 1_555 1_555
C16 C15 1_555 1_555
C17 C16 1_555 1_555
H21 C17 1_555 1_555
C18 N5 1_555 1_555
H22 C18 1_555 1_555
C19 N6 1_555 1_555
H23 C19 1_555 1_555
H24 C19 1_555 1_555
C20 N6 1_555 1_555
C21 N7 1_555 1_555
H25 C21 1_555 1_555
H26 C21 1_555 1_555
C22 H27 1_555 1_555
C23 C22 1_555 1_555
H28 C23 1_555 1_555
C24 C8 1_555 1_555
C25 C24 1_555 1_555
H29 C25 1_555 1_555
C26 N8 1_555 1_555
H30 C26 1_555 1_555
O4 H31 1_555 1_555
H32 O4 1_555 1_555
O5 H33 1_555 1_555
H34 O5 1_555 1_555
O6 H35 1_555 1_555
H36 O6 1_555 1_555
O7 H37 1_555 1_555
H38 O7 1_555 1_555
O8 H39 1_555 1_555
H40 O8 1_555 1_555
O9 H41 1_555 1_555
H42 O9 1_555 1_555
H43 O22 1_555 1_555
O11 H44 1_555 1_555
H45 O11 1_555 1_555
O12 H46 1_555 1_555
O14 H47 1_555 1_555
H48 O14 1_555 1_555
O15 H49 1_555 1_555
H50 O15 1_555 1_555
O19 H51 1_555 1_555
O22 H53 1_555 1_555
Cu1A N5 1_555 1_555
Cu1A_2 N8 1_555 1_555
N5A Cu1 1_555 1_555
N8A Cu1 1_555 1_555
N3 C7 1_555 1_555
C3 C6 1_555 1_555
C4 C5 1_555 1_555
N7 C20 1_555 1_555
C11 C21 1_555 1_555
C12 C13 1_555 1_555
C16 C19 1_555 1_555
C17 C18 1_555 1_555
C23 C24 1_555 1_555
C25 C26 1_555 1_555

#END
