
#######################################################################
#
#                 Cambridge Crystallographic Data Centre
#                                CCDC 
#
#######################################################################
#
# If this CIF has been generated from an entry in the Cambridge 
# Structural Database, then it will include bibliographic, chemical, 
# crystal, experimental, refinement or atomic coordinate data resulting 
# from the CCDC's data processing and validation procedures.
#
#######################################################################

data_VEDYUZ
_symmetry_cell_setting           orthorhombic
_symmetry_space_group_name_H-M   'P b a 2'
_symmetry_Int_Tables_number      32
_space_group_name_Hall           'P 2 -2ab'
loop_
_symmetry_equiv_pos_site_id
_symmetry_equiv_pos_as_xyz
1 x,y,z
2 -x,-y,z
3 1/2+x,1/2-y,z
4 1/2-x,1/2+y,z
_cell_length_a                   18.4192(10)
_cell_length_b                   20.4123(11)
_cell_length_c                   8.9376(5)
_cell_angle_alpha                90
_cell_angle_beta                 90
_cell_angle_gamma                90
_cell_volume                     3360.34
loop_
_atom_site_label
_atom_site_type_symbol
_atom_site_fract_x
_atom_site_fract_y
_atom_site_fract_z
S1 S 0.147949(12) 0.986221(10) 0.81883(3)
O4 O 0.12351(5) 0.97843(5) 0.66390(11)
O5 O 0.10283(4) 0.94306(4) 0.91690(10)
O6 O 0.13938(4) 1.05479(4) 0.86988(12)
O7 O 0.22453(4) 0.96605(4) 0.83370(11)
O8 O 0.0000 1.0000 0.51176(15)
H31 H 0.0000 1.0000 0.4392
H32 H 0.0373 0.9931 0.5713
H32A H -0.0373 1.0069 0.5713
O9 O 0.0000 1.0000 0.08344(16)
O10 O -0.06776(5) 0.92018(4) 0.28726(13)
H33 H -0.0638 0.9375 0.1935
H34 H -0.0434 0.9275 0.3626
O11 O 0.32847(5) 0.94604(6) 0.61257(14)
H35 H 0.3159 0.9179 0.6428
H36 H 0.2943 0.9384 0.5085
O12 O -0.03286(6) 0.60080(7) 0.66531(19)
H37 H -0.0602 0.5957 0.6470
H38 H -0.0006 0.5819 0.6320
O13 O 0.09095(10) 0.56431(10) 0.5356(3)
H39 H 0.0579 0.5371 0.4438
O14 O 0.0000 0.5000 0.8876(4)
O15 O 0.02134(14) 0.54359(17) 0.1905(5)
Cu1 Cu -0.019062(6) 0.772701(5) 0.74195(2)
N1 N 0.08076(4) 0.74700(4) 0.82174(11)
O1 O 0.15765(4) 0.59866(4) 1.25536(11)
C1 C 0.09719(5) 0.68475(4) 0.85912(12)
H1 H 0.0611 0.6519 0.8467
N2 N 0.23631(5) 0.58645(4) 1.06141(11)
H2 H 0.2815 0.5802 1.0326
O2 O 0.27200(4) 0.89794(4) 0.35201(10)
C2 C 0.16480(5) 0.66643(4) 0.91523(11)
O3 O -0.01503(4) 0.87907(4) 0.80101(10)
H3 H 0.0284 0.8908 0.8109
H4 H -0.0519 0.8997 0.8231
N3 N 0.27707(5) 0.57726(5) 1.30308(12)
H5 H 0.3193 0.5665 1.2641
C3 C 0.21672(5) 0.71530(5) 0.93498(13)
H6 H 0.2631 0.7049 0.9752
C4 C 0.20005(5) 0.77933(5) 0.89533(14)
H7 H 0.2350 0.8132 0.9075
N4 N 0.02785(4) 0.78168(4) 0.53892(11)
C5 C 0.13199(5) 0.79326(4) 0.83793(13)
H8 H 0.1212 0.8370 0.8090
N5 N 0.17471(5) 0.91488(5) 0.20032(11)
H9 H 0.1586 0.9183 0.1079
N6 N 0.28978(5) 0.92036(4) 0.10467(11)
H10 H 0.2699 0.9318 0.0190
C6 C 0.18029(6) 0.59505(5) 0.95026(13)
H11 H 0.1351 0.5741 0.9863
H12 H 0.1952 0.5725 0.8571
N7 N 0.38182(4) 0.71791(4) 1.64267(10)
C7 C 0.22044(5) 0.58788(4) 1.20965(12)
N8 N 0.43555(4) 0.75494(4) -0.06198(10)
C8 C 0.27138(7) 0.58286(6) 1.46415(15)
H13 H 0.3030 0.5495 1.5114
H14 H 0.2207 0.5737 1.4947
C9 C 0.05774(5) 0.83872(5) 0.49620(12)
H15 H 0.0532 0.8755 0.5605
C10 C 0.09505(5) 0.84630(4) 0.36202(11)
C11 C 0.10163(6) 0.79190(5) 0.26982(12)
H16 H 0.1272 0.7950 0.1778
C12 C 0.07035(6) 0.73265(5) 0.31342(15)
H17 H 0.0741 0.6950 0.2513
C13 C 0.03379(6) 0.72939(5) 0.44829(14)
H18 H 0.0123 0.6891 0.4777
C14 C 0.12403(5) 0.91367(5) 0.32312(13)
H19 H 0.0825 0.9425 0.2982
H20 H 0.1481 0.9322 0.4127
C15 C 0.24722(5) 0.91086(4) 0.22637(11)
C16 C 0.36797(5) 0.91184(5) 0.11415(14)
H21 H 0.3853 0.9280 0.2124
H22 H 0.3917 0.9383 0.0352
C17 C 0.35911(5) 0.65917(5) 1.59199(12)
H23 H 0.3897 0.6222 1.6061
C18 C 0.29298(6) 0.65014(5) 1.52008(12)
C19 C 0.24878(6) 0.70482(5) 1.49861(14)
H24 H 0.2031 0.7005 1.4501
C20 C 0.27215(6) 0.76564(5) 1.54884(14)
H25 H 0.2430 0.8035 1.5341
C21 C 0.33857(5) 0.77033(5) 1.62085(13)
H26 H 0.3542 0.8119 1.6561
C22 C 0.42554(5) 0.71181(5) 0.04972(12)
H27 H 0.4382 0.6672 0.0338
C23 C 0.39746(7) 0.73010(5) 0.18708(14)
H28 H 0.3907 0.6986 0.2640
C24 C 0.37932(6) 0.79564(5) 0.21084(13)
H29 H 0.3603 0.8093 0.3045
C25 C 0.38940(5) 0.84086(5) 0.09588(12)
C26 C 0.41771(5) 0.81821(4) -0.03836(12)
H30 H 0.4249 0.8487 -0.1174
Cu1B Cu -0.519062(6) 0.727299(5) -0.25805(2)
Cu1B_2 Cu 0.480938(6) 0.727299(5) 1.74195(2)
Cu1B_3 Cu 0.480938(6) 0.727299(5) -0.25805(2)
Cu1B_4 Cu -0.519062(6) 0.727299(5) 1.74195(2)
N1B N -0.41924(4) 0.75300(4) -0.17826(11)
O1B O -0.34235(4) 0.90134(4) 0.25536(11)
C1B C -0.40281(5) 0.81525(4) -0.14088(12)
H1B H -0.4389 0.8481 -0.1533
N2B N -0.26369(5) 0.91355(4) 0.06141(11)
H2B H -0.2185 0.9198 0.0326
O2B O -0.22800(4) 0.60206(4) 1.35201(10)
C2B C -0.33520(5) 0.83357(4) -0.08477(11)
O3B O -0.51503(4) 0.62093(4) -0.19899(10)
H3B H -0.4716 0.6092 -0.1891
H4B H -0.5519 0.6003 -0.1769
N3B N -0.22293(5) 0.92274(5) 0.30308(12)
H5B H -0.1807 0.9335 0.2641
C3B C -0.28328(5) 0.78470(5) -0.06502(13)
H6B H -0.2369 0.7951 -0.0248
C4B C -0.29995(5) 0.72067(5) -0.10467(14)
H7B H -0.2650 0.6868 -0.0925
N4B N -0.47215(4) 0.71832(4) 1.53892(11)
N4B_2 N -0.47215(4) 0.71832(4) -0.46108(11)
C5B C -0.36801(5) 0.70674(4) -0.16207(13)
H8B H -0.3788 0.6630 -0.1910
N5B N -0.32529(5) 0.58512(5) 1.20032(11)
H9B H -0.3414 0.5817 1.1079
N6B N -0.21022(5) 0.57964(4) 1.10467(11)
H10B H -0.2301 0.5682 1.0190
C6B C -0.31971(6) 0.90495(5) -0.04974(13)
H11B H -0.3649 0.9259 -0.0137
H12B H -0.3048 0.9275 -0.1429
N7B N -0.11818(4) 0.78209(4) 0.64267(10)
N7_2 N -0.61818(4) 0.71791(4) -0.35733(10)
C7B C -0.27956(5) 0.91212(4) 0.20965(12)
N8B N -0.06445(4) 0.74506(4) 0.93802(10)
N8_2 N -0.56445(4) 0.75494(4) -0.06198(10)
C8B C -0.22862(7) 0.91714(6) 0.46415(15)
H13B H -0.1970 0.9505 0.5114
H14B H -0.2793 0.9263 0.4947
C9B C -0.44226(5) 0.66128(5) 1.49620(12)
H15B H -0.4468 0.6245 1.5605
C10B C -0.40495(5) 0.65370(4) 1.36202(11)
C11B C -0.39837(6) 0.70810(5) 1.26982(12)
H16B H -0.3728 0.7050 1.1778
C12B C -0.42965(6) 0.76735(5) 1.31342(15)
H17B H -0.4259 0.8050 1.2513
C13B C -0.46621(6) 0.77061(5) 1.44829(14)
H18B H -0.4877 0.8109 1.4777
C14B C -0.37597(5) 0.58633(5) 1.32312(13)
H19B H -0.4175 0.5575 1.2982
H20B H -0.3519 0.5678 1.4127
C15B C -0.25278(5) 0.58914(4) 1.22637(11)
C16B C -0.13203(5) 0.58816(5) 1.11415(14)
H21B H -0.1147 0.5720 1.2124
H22B H -0.1083 0.5617 1.0352
C17B C -0.14089(5) 0.84083(5) 0.59199(12)
H23B H -0.1103 0.8778 0.6061
C18B C -0.20702(6) 0.84986(5) 0.52008(12)
C19B C -0.25122(6) 0.79518(5) 0.49861(14)
H24B H -0.2969 0.7995 0.4501
C20B C -0.22785(6) 0.73436(5) 0.54884(14)
H25B H -0.2570 0.6965 0.5341
C21B C -0.16143(5) 0.72967(5) 0.62085(13)
H26B H -0.1458 0.6881 0.6561
C22B C -0.07446(5) 0.78819(5) 1.04972(12)
H27B H -0.0618 0.8328 1.0338
C23B C -0.10254(7) 0.76990(5) 1.18708(14)
H28B H -0.1093 0.8014 1.2640
C24B C -0.12068(6) 0.70436(5) 1.21084(13)
H29B H -0.1397 0.6907 1.3045
C25B C -0.11060(5) 0.65914(5) 1.09588(12)
C26B C -0.08229(5) 0.68179(4) 0.96164(12)
H30B H -0.0751 0.6513 0.8826
O16? O 0.0260(2) 0.5602(2) 0.3828(7)
loop_
_geom_bond_atom_site_label_1
_geom_bond_atom_site_label_2
_geom_bond_site_symmetry_1
_geom_bond_site_symmetry_2
Cu1 N1 1_555 1_555
N1 C1 1_555 1_555
O1 C7 1_555 1_555
C1 H1 1_555 1_555
N2 H2 1_555 1_555
O2 C15 1_555 1_555
C2 C1 1_555 1_555
O3 Cu1 1_555 1_555
H3 O3 1_555 1_555
H4 O3 1_555 1_555
N3 H5 1_555 1_555
C3 C2 1_555 1_555
H6 C3 1_555 1_555
C4 C3 1_555 1_555
H7 C4 1_555 1_555
N4 Cu1 1_555 1_555
C5 N1 1_555 1_555
H8 C5 1_555 1_555
N5 H9 1_555 1_555
N6 H10 1_555 1_555
C6 N2 1_555 1_555
H11 C6 1_555 1_555
H12 C6 1_555 1_555
N7 C17 1_555 1_555
C7 N2 1_555 1_555
N8 C22 1_555 1_555
C8 N3 1_555 1_555
H13 C8 1_555 1_555
H14 C8 1_555 1_555
C9 N4 1_555 1_555
H15 C9 1_555 1_555
C10 C9 1_555 1_555
C11 C10 1_555 1_555
H16 C11 1_555 1_555
C12 C11 1_555 1_555
H17 C12 1_555 1_555
C13 N4 1_555 1_555
H18 C13 1_555 1_555
C14 N5 1_555 1_555
H19 C14 1_555 1_555
H20 C14 1_555 1_555
C15 N5 1_555 1_555
C16 N6 1_555 1_555
H21 C16 1_555 1_555
H22 C16 1_555 1_555
C17 H23 1_555 1_555
C18 C8 1_555 1_555
C19 C18 1_555 1_555
H24 C19 1_555 1_555
C20 C19 1_555 1_555
H25 C20 1_555 1_555
C21 N7 1_555 1_555
H26 C21 1_555 1_555
C22 H27 1_555 1_555
C23 C22 1_555 1_555
H28 C23 1_555 1_555
C24 C23 1_555 1_555
H29 C24 1_555 1_555
C25 C16 1_555 1_555
C26 N8 1_555 1_555
H30 C26 1_555 1_555
S1 O4 1_555 1_555
O5 S1 1_555 1_555
O6 S1 1_555 1_555
O7 S1 1_555 1_555
O8 H31 1_555 1_555
H32 O8 1_555 1_555
O10 H33 1_555 1_555
H34 O10 1_555 1_555
O11 H35 1_555 1_555
H36 O11 1_555 1_555
O12 H37 1_555 1_555
H38 O12 1_555 1_555
O13 H39 1_555 1_555
Cu1B N1B 1_555 1_555
Cu1B_2 N7 1_555 1_555
Cu1B_3 N8 1_555 1_555
Cu1B_4 N4B 1_555 1_555
N1B C1B 1_555 1_555
O1B C7B 1_555 1_555
C1B H1B 1_555 1_555
N2B H2B 1_555 1_555
O2B C15B 1_555 1_555
C2B C1B 1_555 1_555
O3B Cu1B 1_555 1_555
H3B O3B 1_555 1_555
H4B O3B 1_555 1_555
N3B H5B 1_555 1_555
C3B C2B 1_555 1_555
H6B C3B 1_555 1_555
C4B C3B 1_555 1_555
H7B C4B 1_555 1_555
N4B C9B 1_555 1_555
N4B_2 Cu1B 1_555 1_555
C5B N1B 1_555 1_555
H8B C5B 1_555 1_555
N5B H9B 1_555 1_555
N6B H10B 1_555 1_555
C6B N2B 1_555 1_555
H11B C6B 1_555 1_555
H12B C6B 1_555 1_555
N7B Cu1 1_555 1_555
N7_2 Cu1B 1_555 1_555
C7B N2B 1_555 1_555
N8B Cu1 1_555 1_555
N8_2 Cu1B 1_555 1_555
C8B N3B 1_555 1_555
H13B C8B 1_555 1_555
H14B C8B 1_555 1_555
C9B H15B 1_555 1_555
C10B C9B 1_555 1_555
C11B C10B 1_555 1_555
H16B C11B 1_555 1_555
C12B C11B 1_555 1_555
H17B C12B 1_555 1_555
C13B N4B 1_555 1_555
H18B C13B 1_555 1_555
C14B N5B 1_555 1_555
H19B C14B 1_555 1_555
H20B C14B 1_555 1_555
C15B N5B 1_555 1_555
C16B N6B 1_555 1_555
H21B C16B 1_555 1_555
H22B C16B 1_555 1_555
C17B N7B 1_555 1_555
H23B C17B 1_555 1_555
C18B C8B 1_555 1_555
C19B C18B 1_555 1_555
H24B C19B 1_555 1_555
C20B C19B 1_555 1_555
H25B C20B 1_555 1_555
C21B N7B 1_555 1_555
H26B C21B 1_555 1_555
C22B N8B 1_555 1_555
H27B C22B 1_555 1_555
C23B C22B 1_555 1_555
H28B C23B 1_555 1_555
C24B C23B 1_555 1_555
H29B C24B 1_555 1_555
C25B C16B 1_555 1_555
C26B N8B 1_555 1_555
H30B C26B 1_555 1_555
H32A O8 1_555 1_555
C2 C6 1_555 1_555
N3 C7 1_555 1_555
C4 C5 1_555 1_555
N6 C15 1_555 1_555
C10 C14 1_555 1_555
C12 C13 1_555 1_555
C17 C18 1_555 1_555
C20 C21 1_555 1_555
C24 C25 1_555 1_555
C25 C26 1_555 1_555
C2B C6B 1_555 1_555
N3B C7B 1_555 1_555
C4B C5B 1_555 1_555
N6B C15B 1_555 1_555
C10B C14B 1_555 1_555
C12B C13B 1_555 1_555
C17B C18B 1_555 1_555
C20B C21B 1_555 1_555
C24B C25B 1_555 1_555
C25B C26B 1_555 1_555

#END
