
#######################################################################
#
#                 Cambridge Crystallographic Data Centre
#                                CCDC 
#
#######################################################################
#
# If this CIF has been generated from an entry in the Cambridge 
# Structural Database, then it will include bibliographic, chemical, 
# crystal, experimental, refinement or atomic coordinate data resulting 
# from the CCDC's data processing and validation procedures.
#
#######################################################################

data_VEFCEQ
_symmetry_cell_setting           triclinic
_symmetry_space_group_name_H-M   'P -1'
_symmetry_Int_Tables_number      2
_space_group_name_Hall           '-P 1'
loop_
_symmetry_equiv_pos_site_id
_symmetry_equiv_pos_as_xyz
1 x,y,z
2 -x,-y,-z
_cell_length_a                   7.603(4)
_cell_length_b                   14.991(6)
_cell_length_c                   20.824(10)
_cell_angle_alpha                91.37(4)
_cell_angle_beta                 98.31(4)
_cell_angle_gamma                90.64(2)
_cell_volume                     2347.6
loop_
_atom_site_label
_atom_site_type_symbol
_atom_site_fract_x
_atom_site_fract_y
_atom_site_fract_z
Co1 Co 0.55623 0.90073 0.72806
Co2 Co -0.47936 0.41519 0.76772
Co3 Co -0.50000 0.50000 0.50000
Co4 Co 0.00000 0.00000 1.00000
W1 W 0.04749 0.15354 0.75582
W2 W -0.01657 0.65220 0.71292
C1 C -0.13867 0.26848 0.77162
C2 C 0.86980 1.04029 0.73627
C3 C 0.05055 0.07957 0.84991
C4 C 0.26429 1.05652 0.75341
C5 C 0.27318 0.12227 0.83143
C6 C -0.07040 0.14847 0.65832
C7 C 0.07191 0.26138 0.83457
C8 C -0.74623 0.26231 0.78060
C9 C 0.18248 0.76273 0.70841
C10 C -0.80125 0.55249 0.74005
C11 C -0.24115 0.60558 0.63453
C12 C 0.10861 0.64138 0.81715
C13 C 0.06426 0.53404 0.65653
C14 C -0.23087 0.56914 0.72533
C15 C 0.00531 0.71096 0.61681
C16 C -0.21172 0.74927 0.71025
C17 C 0.53456 0.78982 0.86202
C18 C 0.74038 0.91640 0.87376
C19 C 0.57014 0.77787 0.92923
C20 C 0.69473 0.83626 0.96536
C21 C -0.48881 0.26875 0.66153
C22 C -0.52418 0.41884 0.62797
C23 C -0.49253 0.23664 0.60308
C24 C -0.50572 0.30064 0.55442
C25 C 0.53474 1.03257 0.63122
C26 C 0.40818 1.03015 0.52890
C27 C 0.37191 0.93790 0.53406
C28 C 0.42050 0.89275 0.59203
C29 C 0.49567 1.07440 0.57780
C30 C 0.34148 1.08738 0.46845
C31 C -0.55467 0.55194 0.86915
C32 C -0.37181 0.60552 0.96381
C33 C -0.24631 0.53816 0.95898
C34 C -0.27340 0.47716 0.90534
C35 C -0.52555 0.60888 0.91751
C36 C -0.32692 0.66827 1.01837
N1 N -0.23201 0.33100 0.78509
N2 N 0.78400 0.98113 0.73069
N3 N 0.06637 0.04066 0.90128
N4 N 0.38118 1.01249 0.75427
N5 N 0.38483 0.10105 0.86669
N6 N -0.12008 0.14762 0.60689
N7 N 0.08863 0.32398 0.87346
N8 N -0.64123 0.32265 0.79810
N9 N 0.29879 0.81987 0.70654
N10 N -0.68916 0.49613 0.74982
N11 N -0.35224 0.57971 0.58913
N12 N 0.16386 0.63854 0.87401
N13 N 0.11653 0.46907 0.63044
N14 N -0.33382 0.52131 0.73264
N15 N 0.01730 0.74903 0.56726
N16 N -0.31628 0.79761 0.70448
N17 N 0.78154 0.90763 0.93963
N18 N 0.61665 0.86090 0.83453
N19 N -0.51733 0.39228 0.56917
N20 N -0.50635 0.36151 0.67240
N21 N 0.49668 0.94146 0.63961
N22 N -0.42788 0.48610 0.85907
O1 O -0.17273 0.12594 0.99390
O2 O -0.24896 0.42681 0.47604
Co1A Co -1.55623 0.09927 0.27194
Co1_2 Co -0.44377 0.90073 0.72806
Co1A_2 Co -0.55623 0.09927 0.27194
Co1_3 Co -0.44377 -0.09927 0.72806
Co1_4 Co 0.55623 -0.09927 0.72806
Co2A Co -0.52064 0.58481 0.23228
Co2_2 Co 0.52064 0.41519 0.76772
Co4_2 Co -1.00000 1.00000 0.00000
W1A W -1.04749 0.84646 0.24418
W1_2 W 1.04749 1.15354 0.75582
W1_3 W 0.04749 1.15354 0.75582
W1_4 W -0.95251 0.15354 0.75582
W1A_2 W -0.04749 0.84646 0.24418
W2A W -0.98343 0.34780 0.28708
W2_2 W -1.01657 0.65220 0.71292
C1A C -0.86133 0.73152 0.22838
C2_2 C -0.13020 0.04029 0.73627
C2A C -0.86980 0.95971 0.26373
C3A C -1.05055 0.92043 0.15009
C4_2 C 0.26429 0.05652 0.75341
C4A C -1.26429 0.94348 0.24659
C5A C -1.27318 0.87773 0.16857
C6A C -0.92960 0.85153 0.34168
C7A C -1.07191 0.73862 0.16543
C8A C -0.25377 0.73769 0.21940
C8_2 C 0.25377 0.26231 0.78060
C8A_2 C -1.25377 0.73769 0.21940
C9A C -1.18248 0.23727 0.29159
C10_2 C 0.19875 0.55249 0.74005
C10A C -1.19875 0.44751 0.25995
C11A C -0.75885 0.39442 0.36547
C12A C -1.10861 0.35862 0.18285
C13A C -1.06426 0.46596 0.34347
C14A C -0.76913 0.43086 0.27467
C15A C -1.00531 0.28904 0.38319
C16A C -0.78828 0.25073 0.28975
C17A C -1.53456 0.21018 0.13798
C18A C -1.74038 0.08360 0.12624
C19A C -1.57014 0.22213 0.07077
C20A C -1.69473 0.16374 0.03464
C21A C -0.51119 0.73125 0.33847
C22A C -0.47582 0.58116 0.37203
C23A C -0.50747 0.76336 0.39692
C24A C -0.49428 0.69936 0.44558
C25A C -1.53474 -0.03257 0.36878
C26A C -1.40818 -0.03015 0.47110
C27A C -1.37191 0.06210 0.46594
C28A C -1.42050 0.10725 0.40797
C29A C -1.49567 -0.07440 0.42220
C30A C -1.34148 -0.08738 0.53155
C31A C -0.44533 0.44806 0.13085
C32A C -0.62819 0.39448 0.03619
C33A C -0.75369 0.46184 0.04102
C34A C -0.72660 0.52284 0.09466
C35A C -0.47445 0.39112 0.08249
C36A C -0.67308 0.33173 -0.01837
N1A N -0.76799 0.66900 0.21491
N2_2 N -0.21600 -0.01887 0.73069
N2A N -1.78400 0.01887 0.26931
N3A N -1.06637 0.95934 0.09872
N3A_2 N -0.06637 -0.04066 1.09872
N4_2 N 0.38118 0.01249 0.75427
N4A N -1.38118 -0.01249 0.24573
N5A N -1.38483 0.89895 0.13331
N6A N -0.87992 0.85238 0.39311
N7A N -1.08863 0.67602 0.12654
N8A N -0.35877 0.67735 0.20190
N9A N -1.29879 0.18013 0.29346
N10_2 N 0.31084 0.49613 0.74982
N10A N -0.31084 0.50387 0.25018
N11A N -0.64776 0.42029 0.41087
N12A N -1.16386 0.36146 0.12599
N13A N -1.11653 0.53093 0.36956
N14A N -0.66618 0.47869 0.26736
N15A N -1.01730 0.25097 0.43274
N16A N -0.68372 0.20239 0.29552
N16_2 N 0.68372 0.79761 0.70448
N16A_2 N -1.68372 0.20239 0.29552
N17A N -1.78154 0.09237 0.06037
N18A N -1.61665 0.13910 0.16547
N19A N -0.48267 0.60772 0.43083
N20A N -0.49365 0.63849 0.32760
N21A N -1.49668 0.05854 0.36039
N22A N -0.57212 0.51390 0.14093
O1A O 0.17273 -0.12594 1.00610
O2A O -0.75104 0.57319 0.52396
O3 O 0.97106 0.52988 0.90523
O4 O 0.67013 0.84076 0.59913
O5 O 0.42537 0.81628 0.99213
O6 O 0.88631 0.32504 0.56422
loop_
_geom_bond_atom_site_label_1
_geom_bond_atom_site_label_2
_geom_bond_site_symmetry_1
_geom_bond_site_symmetry_2
Co1 N2 1_555 1_555
Co2 N1 1_555 1_555
Co3 N11 1_555 1_555
Co4 N3 1_555 1_555
W1 C1 1_555 1_555
W2 C9 1_555 1_555
C1 N1 1_555 1_555
C2 N2 1_555 1_555
C3 W1 1_555 1_555
C4 N4 1_555 1_555
C5 W1 1_555 1_555
C6 W1 1_555 1_555
C7 W1 1_555 1_555
C8 N8 1_555 1_555
C9 N9 1_555 1_555
C10 N10 1_555 1_555
C11 W2 1_555 1_555
C12 W2 1_555 1_555
C13 W2 1_555 1_555
C14 W2 1_555 1_555
C15 W2 1_555 1_555
C16 W2 1_555 1_555
C17 C19 1_555 1_555
C18 N17 1_555 1_555
C19 C20 1_555 1_555
C20 N17 1_555 1_555
C21 C23 1_555 1_555
C22 N19 1_555 1_555
C23 C24 1_555 1_555
C24 N19 1_555 1_555
C25 C29 1_555 1_555
C26 C27 1_555 1_555
C27 C28 1_555 1_555
C28 N21 1_555 1_555
C29 C26 1_555 1_555
C30 C26 1_555 1_555
C31 C35 1_555 1_555
C32 C33 1_555 1_555
C33 C34 1_555 1_555
C34 N22 1_555 1_555
C35 C32 1_555 1_555
C36 C32 1_555 1_555
N3 C3 1_555 1_555
N4 Co1 1_555 1_555
N5 C5 1_555 1_555
N6 C6 1_555 1_555
N7 C7 1_555 1_555
N8 Co2 1_555 1_555
N9 Co1 1_555 1_555
N10 Co2 1_555 1_555
N11 C11 1_555 1_555
N12 C12 1_555 1_555
N13 C13 1_555 1_555
N14 Co2 1_555 1_555
N15 C15 1_555 1_555
N16 C16 1_555 1_555
N18 Co1 1_555 1_555
N19 Co3 1_555 1_555
N20 Co2 1_555 1_555
N21 Co1 1_555 1_555
N22 Co2 1_555 1_555
O1 Co4 1_555 1_555
O2 Co3 1_555 1_555
Co1A N2A 1_555 1_555
Co1_2 N16 1_555 1_555
Co1A_2 N16A 1_555 1_555
Co1_3 N2_2 1_555 1_555
Co1_4 N4_2 1_555 1_555
Co2A N1A 1_555 1_555
Co2_2 N10_2 1_555 1_555
Co4_2 N3A 1_555 1_555
W1A C1A 1_555 1_555
W1_2 C2 1_555 1_555
W1_3 C4 1_555 1_555
W1_4 C8 1_555 1_555
W1A_2 C8A 1_555 1_555
W2A C9A 1_555 1_555
W2_2 C10 1_555 1_555
C1A N1A 1_555 1_555
C2_2 W1 1_555 1_555
C2A W1A 1_555 1_555
C3A W1A 1_555 1_555
C4_2 W1 1_555 1_555
C4A W1A 1_555 1_555
C5A W1A 1_555 1_555
C6A W1A 1_555 1_555
C7A W1A 1_555 1_555
C8A N8A 1_555 1_555
C8_2 W1 1_555 1_555
C8A_2 W1A 1_555 1_555
C9A N9A 1_555 1_555
C10_2 W2 1_555 1_555
C10A W2A 1_555 1_555
C11A W2A 1_555 1_555
C12A W2A 1_555 1_555
C13A W2A 1_555 1_555
C14A W2A 1_555 1_555
C15A W2A 1_555 1_555
C16A W2A 1_555 1_555
C17A C19A 1_555 1_555
C18A N17A 1_555 1_555
C19A C20A 1_555 1_555
C20A N17A 1_555 1_555
C21A C23A 1_555 1_555
C22A N19A 1_555 1_555
C23A C24A 1_555 1_555
C24A N19A 1_555 1_555
C25A C29A 1_555 1_555
C26A C27A 1_555 1_555
C27A C28A 1_555 1_555
C28A N21A 1_555 1_555
C29A C26A 1_555 1_555
C30A C26A 1_555 1_555
C31A C35A 1_555 1_555
C32A C33A 1_555 1_555
C33A C34A 1_555 1_555
C34A N22A 1_555 1_555
C35A C32A 1_555 1_555
C36A C32A 1_555 1_555
N2_2 C2_2 1_555 1_555
N3A C3A 1_555 1_555
N3A_2 Co4 1_555 1_555
N4_2 C4_2 1_555 1_555
N4A Co1A 1_555 1_555
N5A C5A 1_555 1_555
N6A C6A 1_555 1_555
N7A C7A 1_555 1_555
N8A Co2A 1_555 1_555
N9A Co1A 1_555 1_555
N10_2 C10_2 1_555 1_555
N10A Co2A 1_555 1_555
N11A Co3 1_555 1_555
N12A C12A 1_555 1_555
N13A C13A 1_555 1_555
N14A Co2A 1_555 1_555
N15A C15A 1_555 1_555
N16A C16A 1_555 1_555
N16_2 Co1 1_555 1_555
N16A_2 Co1A 1_555 1_555
N18A Co1A 1_555 1_555
N19A Co3 1_555 1_555
N20A Co2A 1_555 1_555
N21A Co1A 1_555 1_555
N22A Co2A 1_555 1_555
O1A Co4 1_555 1_555
O2A Co3 1_555 1_555
C14 N14 1_555 1_555
C17 N18 1_555 1_555
C18 N18 1_555 1_555
C21 N20 1_555 1_555
C22 N20 1_555 1_555
C25 N21 1_555 1_555
C31 N22 1_555 1_555
C11A N11A 1_555 1_555
C14A N14A 1_555 1_555
C17A N18A 1_555 1_555
C18A N18A 1_555 1_555
C21A N20A 1_555 1_555
C22A N20A 1_555 1_555
C25A N21A 1_555 1_555
C31A N22A 1_555 1_555

#END
