
#######################################################################
#
#                 Cambridge Crystallographic Data Centre
#                                CCDC 
#
#######################################################################
#
# If this CIF has been generated from an entry in the Cambridge 
# Structural Database, then it will include bibliographic, chemical, 
# crystal, experimental, refinement or atomic coordinate data resulting 
# from the CCDC's data processing and validation procedures.
#
#######################################################################

data_VEFHUK
_symmetry_cell_setting           monoclinic
_symmetry_space_group_name_H-M   'P 21/c'
_symmetry_Int_Tables_number      14
_space_group_name_Hall           '-P 2ybc'
loop_
_symmetry_equiv_pos_site_id
_symmetry_equiv_pos_as_xyz
1 x,y,z
2 -x,1/2+y,1/2-z
3 -x,-y,-z
4 x,1/2-y,1/2+z
_cell_length_a                   7.8712(19)
_cell_length_b                   14.214(4)
_cell_length_c                   29.383(7)
_cell_angle_alpha                90
_cell_angle_beta                 96.393(4)
_cell_angle_gamma                90
_cell_volume                     3266.96
loop_
_atom_site_label
_atom_site_type_symbol
_atom_site_fract_x
_atom_site_fract_y
_atom_site_fract_z
Ag1 Ag 0.48464(8) 0.66895(5) 0.14793(2)
N1 N 0.1098(7) 0.7162(4) 0.0984(2)
N2 N 0.1796(7) 0.6489(4) 0.1284(2)
N3 N 0.4496(9) 0.2508(6) 0.2882(3)
C1 C -0.0965(9) 0.5776(5) 0.1255(3)
C2 C -0.2284(10) 0.5179(6) 0.1338(3)
H1 H -0.2205 0.4662 0.1533
C3 C -0.3769(10) 0.5500(6) 0.1072(3)
H2 H -0.4500 0.5026 0.0906
C4 C -0.3407(9) 0.6321(6) 0.0830(3)
H3 H -0.3932 0.6400 0.0514
C5 C -0.1643(9) 0.6499(5) 0.0934(2)
C6 C -0.0563(9) 0.7191(5) 0.0804(3)
C7 C -0.1128(10) 0.7950(6) 0.0474(3)
C8 C -0.0872(9) 0.9010(5) 0.0559(2)
H4 H -0.0365 0.9322 0.0817
C9 C -0.1647(12) 0.9392(8) 0.0121(4)
H5 H -0.1702 1.0038 0.0070
C10 C -0.2261(14) 0.8798(9) -0.0198(4)
H6 H -0.2759 0.8996 -0.0484
C11 C 0.2349(9) 0.7845(5) 0.0863(3)
C12 C 0.2804(11) 0.7881(6) 0.0430(3)
H7 H 0.2337 0.7462 0.0208
C13 C 0.3978(12) 0.8554(7) 0.0328(3)
H8 H 0.4302 0.8587 0.0033
C14 C 0.4660(12) 0.9167(7) 0.0655(4)
H9 H 0.5439 0.9618 0.0582
C15 C 0.4208(11) 0.9124(6) 0.1091(4)
H10 H 0.4689 0.9539 0.1313
C16 C 0.3024(10) 0.8454(6) 0.1200(3)
H11 H 0.2698 0.8420 0.1494
C17 C 0.0795(9) 0.5825(5) 0.1412(2)
C18 C 0.1659(9) 0.5108(5) 0.1729(2)
C19 C 0.2706(10) 0.5381(6) 0.2121(3)
H12 H 0.2883 0.6016 0.2187
C20 C 0.3469(11) 0.4710(6) 0.2409(3)
H13 H 0.4165 0.4892 0.2670
C21 C 0.3220(9) 0.3773(6) 0.2315(3)
C22 C 0.3961(11) 0.3068(6) 0.2630(3)
C23 C 0.2184(12) 0.3490(6) 0.1922(3)
H14 H 0.2028 0.2854 0.1858
C24 C 0.1397(10) 0.4152(6) 0.1632(3)
H15 H 0.0695 0.3967 0.1372
S1 S -0.2086(4) 0.7671(2) -0.00554(11)
Ag1A Ag 0.51536(8) 1.16895(5) 0.35207(2)
Ag1A_2 Ag 0.51536(8) 0.16895(5) 0.35207(2)
Ag1_2 Ag -0.51536(8) 0.66895(5) 0.14793(2)
Ag1A_3 Ag 1.51536(8) 1.16895(5) 0.35207(2)
N1A N 0.8902(7) 1.2162(4) 0.4016(2)
N2A N 0.8204(7) 1.1489(4) 0.3716(2)
N3A N 0.5504(9) 0.7508(6) 0.2118(3)
N3_2 N 0.4496(9) 1.2508(6) 0.2882(3)
C1A C 1.0965(9) 1.0776(5) 0.3745(3)
C2A C 1.2284(10) 1.0179(6) 0.3662(3)
H1A H 1.2205 0.9662 0.3467
C3A C 1.3769(10) 1.0500(6) 0.3928(3)
C3_2 C 0.6231(10) 0.5500(6) 0.1072(3)
C3A_2 C 0.3769(10) 1.0500(6) 0.3928(3)
H2A H 1.4500 1.0026 0.4094
H2_2 H 0.5500 0.5026 0.0906
H2A_2 H 0.4500 1.0026 0.4094
C4A C 1.3407(9) 1.1321(6) 0.4170(3)
C4_2 C 0.6593(9) 0.6321(6) 0.0830(3)
C4A_2 C 0.3407(9) 1.1321(6) 0.4170(3)
H3A H 1.3932 1.1400 0.4486
H3_2 H 0.6068 0.6400 0.0514
H3A_2 H 0.3932 1.1400 0.4486
C5A C 1.1643(9) 1.1499(5) 0.4066(2)
C6A C 1.0563(9) 1.2191(5) 0.4196(3)
C7A C 1.1128(10) 1.2950(6) 0.4526(3)
C8A C 1.0872(9) 1.4010(5) 0.4441(2)
H4A H 1.0365 1.4322 0.4183
C9A C 1.1647(12) 1.4392(8) 0.4879(4)
H5A H 1.1702 1.5038 0.4930
C10A C 1.2261(14) 1.3798(9) 0.5198(4)
H6A H 1.2759 1.3996 0.5484
C11A C 0.7651(9) 1.2845(5) 0.4137(3)
C12A C 0.7196(11) 1.2881(6) 0.4570(3)
H7A H 0.7663 1.2462 0.4792
C13A C 0.6022(12) 1.3554(7) 0.4672(3)
H8A H 0.5698 1.3587 0.4967
C14A C 0.5340(12) 1.4167(7) 0.4345(4)
H9A H 0.4561 1.4618 0.4418
C15A C 0.5792(11) 1.4124(6) 0.3909(4)
H10A H 0.5311 1.4539 0.3687
C16A C 0.6976(10) 1.3454(6) 0.3800(3)
H11A H 0.7302 1.3420 0.3506
C17A C 0.9205(9) 1.0825(5) 0.3588(2)
C18A C 0.8341(9) 1.0108(5) 0.3271(2)
C19A C 0.7294(10) 1.0381(6) 0.2879(3)
H12A H 0.7117 1.1016 0.2813
C20A C 0.6531(11) 0.9710(6) 0.2591(3)
H13A H 0.5835 0.9892 0.2330
C21A C 0.6780(9) 0.8773(6) 0.2685(3)
C22A C 0.6039(11) 0.8068(6) 0.2370(3)
C23A C 0.7816(12) 0.8490(6) 0.3078(3)
H14A H 0.7972 0.7854 0.3142
C24A C 0.8603(10) 0.9152(6) 0.3368(3)
H15A H 0.9305 0.8967 0.3628
S1A S 1.2086(4) 1.2671(2) 0.50554(11)
C25 C -0.0225(15) 0.7934(8) 0.2009(4)
H16 H -0.0648 0.7325 0.1970
C26 C 0.1110(16) 0.8111(9) 0.2343(4)
H17 H 0.1604 0.7625 0.2525
C27 C 0.1690(15) 0.9007(11) 0.2403(4)
H18 H 0.2583 0.9129 0.2630
C28 C 0.1002(17) 0.9733(9) 0.2140(4)
C29 C -0.0352(16) 0.9506(10) 0.1806(4)
H19 H -0.0878 0.9980 0.1624
C30 C -0.0905(14) 0.8607(11) 0.1745(4)
H20 H -0.1774 0.8467 0.1514
C31 C 0.162(3) 1.0728(12) 0.2191(8)
H21 H 0.2277 1.0805 0.2483
H22 H 0.0653 1.1146 0.2169
H23 H 0.2315 1.0872 0.1952
C32 C -0.040(2) 0.4397(11) 0.0293(5)
H24 H -0.0653 0.3950 0.0506
C33 C 0.127(2) 0.4642(15) 0.0315(7)
H25 H 0.2055 0.4379 0.0540
C34 C -0.182(2) 0.4722(13) -0.0010(6)
H26 H -0.2944 0.4532 -0.0002
C32B C 0.040(2) 0.5603(11) -0.0293(5)
H24B H 0.0653 0.6050 -0.0506
C33B C -0.127(2) 0.5358(15) -0.0315(7)
H25B H -0.2055 0.5621 -0.0540
C34B C 0.182(2) 0.5278(13) 0.0010(6)
H26B H 0.2944 0.5468 0.0002
F1 F 0.4056(12) 0.8200(6) 0.3388(3)
F2 F 0.5929(14) 0.6857(9) 0.3798(4)
F3 F 0.392(2) 0.7814(10) 0.4255(4)
F4 F 0.3172(15) 0.6105(7) 0.4057(4)
F5 F 0.344(2) 0.6465(9) 0.3212(4)
F6 F 0.1405(12) 0.7468(10) 0.3636(5)
Sb1 Sb 0.36278(10) 0.71545(5) 0.37215(2)
loop_
_geom_bond_atom_site_label_1
_geom_bond_atom_site_label_2
_geom_bond_site_symmetry_1
_geom_bond_site_symmetry_2
Ag1 N2 1_555 1_555
N1 N2 1_555 1_555
N2 C17 1_555 1_555
N3 C22 1_555 1_555
C1 C2 1_555 1_555
C2 H1 1_555 1_555
C3 C2 1_555 1_555
H2 C3 1_555 1_555
C4 C3 1_555 1_555
H3 C4 1_555 1_555
C5 C1 1_555 1_555
C6 N1 1_555 1_555
C7 C6 1_555 1_555
C8 C7 1_555 1_555
H4 C8 1_555 1_555
C9 C8 1_555 1_555
H5 C9 1_555 1_555
C10 C9 1_555 1_555
H6 C10 1_555 1_555
C11 N1 1_555 1_555
C12 C11 1_555 1_555
H7 C12 1_555 1_555
C13 C12 1_555 1_555
H8 C13 1_555 1_555
C14 C13 1_555 1_555
H9 C14 1_555 1_555
C15 C14 1_555 1_555
H10 C15 1_555 1_555
C16 C11 1_555 1_555
H11 C16 1_555 1_555
C17 C1 1_555 1_555
C18 C17 1_555 1_555
C19 C18 1_555 1_555
H12 C19 1_555 1_555
C20 C19 1_555 1_555
H13 C20 1_555 1_555
C21 C20 1_555 1_555
C22 C21 1_555 1_555
C23 C21 1_555 1_555
H14 C23 1_555 1_555
C24 C18 1_555 1_555
H15 C24 1_555 1_555
C25 H16 1_555 1_555
C26 C25 1_555 1_555
H17 C26 1_555 1_555
C27 C26 1_555 1_555
H18 C27 1_555 1_555
C28 C27 1_555 1_555
C29 C28 1_555 1_555
H19 C29 1_555 1_555
C30 C25 1_555 1_555
H20 C30 1_555 1_555
C31 C28 1_555 1_555
H21 C31 1_555 1_555
H22 C31 1_555 1_555
H23 C31 1_555 1_555
C32 H24 1_555 1_555
C33 C32 1_555 1_555
H25 C33 1_555 1_555
C34 C32 1_555 1_555
H26 C34 1_555 1_555
F1 Sb1 1_555 1_555
F2 Sb1 1_555 1_555
F3 Sb1 1_555 1_555
F4 Sb1 1_555 1_555
F5 Sb1 1_555 1_555
F6 Sb1 1_555 1_555
S1 C7 1_555 1_555
Ag1A N2A 1_555 1_555
Ag1A_2 N3 1_555 1_555
Ag1_2 C3 1_555 1_555
Ag1A_3 C3A 1_555 1_555
N1A N2A 1_555 1_555
N2A C17A 1_555 1_555
N3A Ag1 1_555 1_555
N3_2 Ag1A 1_555 1_555
C1A C2A 1_555 1_555
C2A H1A 1_555 1_555
C3A C2A 1_555 1_555
C3_2 Ag1 1_555 1_555
C3A_2 Ag1A 1_555 1_555
H2A C3A 1_555 1_555
H2_2 C3_2 1_555 1_555
H2A_2 C3A_2 1_555 1_555
C4A Ag1A_3 1_555 1_555
C4_2 Ag1 1_555 1_555
C4A_2 Ag1A 1_555 1_555
H3A C4A 1_555 1_555
H3_2 C4_2 1_555 1_555
H3A_2 C4A_2 1_555 1_555
C5A C1A 1_555 1_555
C6A N1A 1_555 1_555
C7A C6A 1_555 1_555
C8A C7A 1_555 1_555
H4A C8A 1_555 1_555
C9A C8A 1_555 1_555
H5A C9A 1_555 1_555
C10A C9A 1_555 1_555
H6A C10A 1_555 1_555
C11A N1A 1_555 1_555
C12A C11A 1_555 1_555
H7A C12A 1_555 1_555
C13A C12A 1_555 1_555
H8A C13A 1_555 1_555
C14A C13A 1_555 1_555
H9A C14A 1_555 1_555
C15A C14A 1_555 1_555
H10A C15A 1_555 1_555
C16A C11A 1_555 1_555
H11A C16A 1_555 1_555
C17A C1A 1_555 1_555
C18A C17A 1_555 1_555
C19A C18A 1_555 1_555
H12A C19A 1_555 1_555
C20A C19A 1_555 1_555
H13A C20A 1_555 1_555
C21A C20A 1_555 1_555
C22A N3A 1_555 1_555
C23A C21A 1_555 1_555
H14A C23A 1_555 1_555
C24A C18A 1_555 1_555
H15A C24A 1_555 1_555
C32B H24B 1_555 1_555
C33B C34 1_555 1_555
H25B C33B 1_555 1_555
C34B C33 1_555 1_555
H26B C34B 1_555 1_555
S1A C7A 1_555 1_555
C4 C5 1_555 1_555
C4 Ag1_2 1_555 1_555
C5 C6 1_555 1_555
C10 S1 1_555 1_555
C15 C16 1_555 1_555
C23 C24 1_555 1_555
C29 C30 1_555 1_555
C3A C4A 1_555 1_555
C3_2 C4_2 1_555 1_555
C3A_2 C4A_2 1_555 1_555
C4A C5A 1_555 1_555
C5A C6A 1_555 1_555
C10A S1A 1_555 1_555
C15A C16A 1_555 1_555
C21A C22A 1_555 1_555
C23A C24A 1_555 1_555
C32B C33B 1_555 1_555
C32B C34B 1_555 1_555

#END
