
#######################################################################
#
#                 Cambridge Crystallographic Data Centre
#                                CCDC 
#
#######################################################################
#
# If this CIF has been generated from an entry in the Cambridge 
# Structural Database, then it will include bibliographic, chemical, 
# crystal, experimental, refinement or atomic coordinate data resulting 
# from the CCDC's data processing and validation procedures.
#
#######################################################################

data_VEFMIE
_symmetry_cell_setting           monoclinic
_symmetry_space_group_name_H-M   'C 2/c'
_symmetry_Int_Tables_number      15
_space_group_name_Hall           '-C 2yn'
loop_
_symmetry_equiv_pos_site_id
_symmetry_equiv_pos_as_xyz
1 x,y,z
2 -x,y,1/2-z
3 1/2+x,1/2+y,z
4 1/2-x,1/2+y,1/2-z
5 -x,-y,-z
6 x,-y,1/2+z
7 1/2-x,1/2-y,-z
8 1/2+x,1/2-y,1/2+z
_cell_length_a                   31.7805(14)
_cell_length_b                   16.4904(12)
_cell_length_c                   23.2119(18)
_cell_angle_alpha                90
_cell_angle_beta                 117.285(3)
_cell_angle_gamma                90
_cell_volume                     10811.3
loop_
_atom_site_label
_atom_site_type_symbol
_atom_site_fract_x
_atom_site_fract_y
_atom_site_fract_z
C1 C -0.06973(12) -0.0398(2) -0.27049(16)
H1 H -0.0493 -0.0831 -0.2643
C2 C -0.09986(11) -0.01592(19) -0.33131(15)
C3 C -0.13075(12) 0.0517(2) -0.34313(17)
H2 H -0.1508 0.0684 -0.3852
C4 C -0.12993(12) 0.0913(2) -0.29061(16)
H3 H -0.1495 0.1360 -0.2975
C5 C -0.10061(10) 0.06655(19) -0.22751(15)
C6 C -0.06888(12) 0.00045(19) -0.21588(16)
C7 C -0.03890(14) -0.0239(2) -0.15350(17)
H4 H -0.0180 -0.0666 -0.1466
C8 C -0.03967(13) 0.0147(2) -0.10147(17)
H5 H -0.0191 -0.0021 -0.0596
C9 C -0.07116(13) 0.0791(2) -0.11042(16)
C10 C -0.10113(13) 0.1059(2) -0.17282(17)
H6 H -0.1215 0.1493 -0.1790
C11 C -0.10221(10) -0.0630(2) -0.38892(15)
C12 C -0.07331(13) 0.1188(2) -0.05370(17)
C13 C -0.24547(12) -0.40999(17) -0.12534(14)
C14 C -0.25370(10) -0.34544(16) -0.08721(13)
C15 C -0.23809(11) -0.35367(17) -0.02212(14)
H7 H -0.2258 -0.4031 -0.0022
C16 C -0.24039(10) -0.28712(17) 0.01602(13)
C17 C -0.22434(11) -0.29402(18) 0.08313(15)
H8 H -0.2116 -0.3428 0.1038
C18 C -0.27274(10) -0.27055(17) -0.11858(14)
H9 H -0.2832 -0.2652 -0.1629
C19 C -0.13682(11) -0.5091(2) -0.12907(15)
C20 C -0.08538(11) -0.51867(19) -0.08377(14)
C21 C -0.06480(11) -0.5972(2) -0.07102(17)
H10 H -0.0831 -0.6419 -0.0925
C22 C -0.01829(11) -0.6074(2) -0.02733(17)
H11 H -0.0050 -0.6590 -0.0191
C23 C 0.01001(10) -0.53864(18) 0.00585(16)
C24 C -0.05936(11) -0.4533(2) -0.05247(15)
H12 H -0.0734 -0.4023 -0.0610
C25 C -0.15956(11) -0.24555(19) -0.43655(15)
H13 H -0.1515 -0.2064 -0.4044
C26 C -0.19471(11) -0.29898(18) -0.44390(14)
H14 H -0.2095 -0.2958 -0.4174
C27 C -0.20798(10) -0.35857(19) -0.49223(14)
C28 C -0.18452(12) -0.3576(2) -0.53123(15)
H15 H -0.1926 -0.3948 -0.5647
C29 C -0.14985(11) -0.3015(2) -0.51935(15)
H16 H -0.1349 -0.3022 -0.5457
C30 C -0.20561(10) -0.48824(16) -0.30893(13)
H17 H -0.1757 -0.5082 -0.2811
C31 C -0.21422(10) -0.46662(17) -0.37114(13)
H18 H -0.1907 -0.4710 -0.3843
C32 C -0.25901(10) -0.43821(17) -0.41297(13)
C33 C -0.29283(10) -0.4310(2) -0.39035(14)
H19 H -0.3230 -0.4115 -0.4173
C34 C -0.28068(10) -0.45307(19) -0.32846(14)
H20 H -0.3033 -0.4479 -0.3138
C35 C 0.24184(10) -0.17352(17) -0.24231(15)
H21 H 0.2680 -0.1690 -0.2500
C36 C 0.21679(10) -0.24432(18) -0.25944(15)
H22 H 0.2267 -0.2872 -0.2763
C37 C 0.17604(10) -0.25130(16) -0.25128(14)
C38 C 0.16417(10) -0.18587(17) -0.22379(14)
H23 H 0.1377 -0.1884 -0.2167
C39 C 0.19215(10) -0.11708(17) -0.20709(14)
H24 H 0.1833 -0.0737 -0.1894
C40 C -0.01690(13) -0.2860(3) -0.3604(2)
H25 H -0.0446 -0.2983 -0.3581
C41 C 0.02469(12) -0.3165(2) -0.31309(19)
H26 H 0.0248 -0.3476 -0.2796
C42 C 0.06586(11) -0.30090(19) -0.31556(16)
C43 C 0.06273(12) -0.25587(19) -0.36723(17)
H27 H 0.0897 -0.2450 -0.3720
C44 C 0.01945(12) -0.2271(2) -0.41173(17)
H28 H 0.0182 -0.1963 -0.4460
Co1 Co -0.080670(15) -0.17028(2) -0.457405(19)
Co2 Co -0.226730(13) -0.50754(2) -0.193680(18)
N1 N -0.13567(9) -0.24473(16) -0.47181(12)
N2 N -0.23958(10) -0.41803(18) -0.50119(12)
N3 N -0.27139(9) -0.40977(17) -0.47511(12)
N4 N -0.23706(8) -0.48245(14) -0.28637(11)
N5 N 0.23112(8) -0.10902(14) -0.21473(11)
N6 N 0.15038(10) -0.32091(15) -0.27079(15)
N7 N 0.10874(10) -0.32888(16) -0.26525(16)
N8 N -0.02027(10) -0.24038(17) -0.40894(14)
O1 O -0.08631(9) -0.13320(15) -0.37722(11)
O2 O -0.11853(10) -0.03197(18) -0.44333(12)
O3 O -0.05438(7) 0.08466(11) -0.00058(9)
O4 O -0.09483(8) 0.18100(13) -0.05849(10)
O5 O -0.26189(7) -0.40222(12) -0.18416(9)
O6 O -0.21794(9) -0.46710(14) -0.09937(11)
O7 O -0.15906(8) -0.44512(14) -0.12852(11)
O8 O -0.15953(8) -0.56593(15) -0.16621(12)
C1E C -0.06973(12) 0.0398(2) -0.77049(16)
H1E H -0.0493 0.0831 -0.7643
C2E C -0.09986(11) 0.01592(19) -0.83131(15)
C3E C -0.13075(12) -0.0517(2) -0.84313(17)
H2E H -0.1508 -0.0684 -0.8852
C4E C -0.12993(12) -0.0913(2) -0.79061(16)
H3E H -0.1495 -0.1360 -0.7975
C5E C -0.10061(10) -0.06655(19) -0.72751(15)
C6E C -0.06888(12) -0.00045(19) -0.71588(16)
C7E C -0.03890(14) 0.0239(2) -0.65350(17)
H4E H -0.0180 0.0666 -0.6466
C8E C -0.03967(13) -0.0147(2) -0.60147(17)
H5E H -0.0191 0.0021 -0.5596
C9E C -0.07116(13) -0.0791(2) -0.61042(16)
C10E C -0.10113(13) -0.1059(2) -0.67282(17)
H6E H -0.1215 -0.1493 -0.6790
C11E C -0.10221(10) 0.0630(2) -0.88892(15)
C12E C -0.07331(13) -0.1188(2) -0.55370(17)
C13F C -0.25453(12) -0.09001(17) 0.12534(14)
C14F C -0.24630(10) -0.15456(16) 0.08721(13)
C15F C -0.26191(11) -0.14633(17) 0.02212(14)
H7F H -0.2742 -0.0969 0.0022
C16F C -0.25961(10) -0.21288(17) -0.01602(13)
C17F C -0.27566(11) -0.20598(18) -0.08313(15)
H8F H -0.2884 -0.1572 -0.1038
C18F C -0.22726(10) -0.22945(17) 0.11858(14)
H9F H -0.2168 -0.2348 0.1629
C19D C 0.13682(11) -0.4909(2) 0.12907(15)
C20D C 0.08538(11) -0.48133(19) 0.08377(14)
C21D C 0.06480(11) -0.4028(2) 0.07102(17)
H10D H 0.0831 -0.3581 0.0925
C22D C 0.01829(11) -0.3926(2) 0.02733(17)
H11D H 0.0050 -0.3410 0.0191
C23D C -0.01001(10) -0.46136(18) -0.00585(16)
C24D C 0.05936(11) -0.5467(2) 0.05247(15)
H12D H 0.0734 -0.5977 0.0610
C25E C -0.15956(11) 0.24555(19) -0.93655(15)
H13E H -0.1515 0.2064 -0.9044
C26E C -0.19471(11) 0.29898(18) -0.94390(14)
H14E H -0.2095 0.2958 -0.9174
C27E C -0.20798(10) 0.35857(19) -0.99223(14)
C28E C -0.18452(12) 0.3576(2) -1.03123(15)
H15E H -0.1926 0.3948 -1.0647
C29E C -0.14985(11) 0.3015(2) -1.01935(15)
H16E H -0.1349 0.3022 -1.0457
C30E C -0.20561(10) 0.48824(16) -0.80893(13)
H17E H -0.1757 0.5082 -0.7811
C31E C -0.21422(10) 0.46662(17) -0.87114(13)
H18E H -0.1907 0.4710 -0.8843
C32E C -0.25901(10) 0.43821(17) -0.91297(13)
C33E C -0.29283(10) 0.4310(2) -0.89035(14)
H19E H -0.3230 0.4115 -0.9173
C34E C -0.28068(10) 0.45307(19) -0.82846(14)
H20E H -0.3033 0.4479 -0.8138
C35B C -0.25816(10) -0.67352(17) -0.24231(15)
H21B H -0.2320 -0.6690 -0.2500
C36B C -0.28321(10) -0.74432(18) -0.25944(15)
H22B H -0.2733 -0.7872 -0.2763
C37B C -0.32396(10) -0.75130(16) -0.25128(14)
C38B C -0.33583(10) -0.68587(17) -0.22379(14)
H23B H -0.3623 -0.6884 -0.2167
C39B C -0.30785(10) -0.61708(17) -0.20709(14)
H24B H -0.3167 -0.5737 -0.1894
C40B C -0.51690(13) -0.7860(3) -0.3604(2)
H25B H -0.5446 -0.7983 -0.3581
C41B C -0.47531(12) -0.8165(2) -0.31309(19)
H26B H -0.4752 -0.8476 -0.2796
C42B C -0.43414(11) -0.80090(19) -0.31556(16)
C43B C -0.43727(12) -0.75587(19) -0.36723(17)
H27B H -0.4103 -0.7450 -0.3720
C44B C -0.48055(12) -0.7271(2) -0.41173(17)
H28B H -0.4818 -0.6963 -0.4460
Co1E Co -0.080670(15) 0.17028(2) -0.957405(19)
Co1E_2 Co -0.080670(15) 0.17028(2) 0.042595(19)
Co1B Co -0.580670(15) -0.67028(2) -0.457405(19)
Co2B Co 0.273270(13) -0.00754(2) -0.193680(18)
Co2F Co -0.273270(13) 0.00754(2) 0.193680(18)
Co2D Co 0.226730(13) -0.49246(2) 0.193680(18)
Co2E Co -0.226730(13) 0.50754(2) -0.693680(18)
N1E N -0.13567(9) 0.24473(16) -0.97181(12)
N2E N -0.23958(10) 0.41803(18) -1.00119(12)
N3E N -0.27139(9) 0.40977(17) -0.97511(12)
N4E N -0.23706(8) 0.48245(14) -0.78637(11)
N4B N 0.26294(8) 0.01755(14) -0.28637(11)
N5B N -0.26888(8) -0.60902(14) -0.21473(11)
N6B N -0.34962(10) -0.82091(15) -0.27079(15)
N7B N -0.39126(10) -0.82888(16) -0.26525(16)
N8B N -0.52027(10) -0.74038(17) -0.40894(14)
N8E N -0.02027(10) 0.24038(17) -0.90894(14)
O1E O -0.08631(9) 0.13320(15) -0.87722(11)
O2E O -0.11853(10) 0.03197(18) -0.94333(12)
O3E O -0.05438(7) -0.08466(11) -0.50058(9)
O3_2 O -0.05438(7) 0.08466(11) -1.00058(9)
O4E O -0.09483(8) -0.18100(13) -0.55849(10)
O4_2 O -0.09483(8) 0.18100(13) -1.05849(10)
O5F O -0.23811(7) -0.09778(12) 0.18416(9)
O5B O 0.23811(7) 0.09778(12) -0.18416(9)
O6F O -0.28206(9) -0.03290(14) 0.09937(11)
O6B O 0.28206(9) 0.03290(14) -0.09937(11)
O7D O 0.15906(8) -0.55488(14) 0.12852(11)
O7B O 0.34094(8) 0.05488(14) -0.12852(11)
O8D O 0.15953(8) -0.43407(15) 0.16621(12)
O8B O 0.34047(8) -0.06593(15) -0.16621(12)
C45 C 0.36933(14) 0.7540(2) 0.4665(2)
H29 H 0.3668 0.7750 0.5033
H30 H 0.3390 0.7567 0.4289
H31 H 0.3918 0.7856 0.4592
C46 C 0.35546(15) 0.5994(3) 0.4431(2)
H32 H 0.3747 0.5585 0.4374
H33 H 0.3318 0.6175 0.4015
H34 H 0.3403 0.5773 0.4672
C47 C 0.43429(14) 0.6545(2) 0.52499(19)
H35 H 0.4457 0.6018 0.5355
N9 N 0.38537(12) 0.66834(19) 0.47877(16)
O9 O 0.46192(10) 0.71465(18) 0.55152(13)
O10 O 0.1476(3) 0.6714(5) 0.2490(4)
H36 H 0.1483 0.6960 0.2816
H37 H 0.1262 0.6921 0.2144
O11 O 0.0370(3) 0.6663(6) 0.1935(5)
H38 H 0.0397 0.6154 0.1999
H39 H 0.0109 0.6767 0.1605
O12 O 0.5000 0.3252(3) 0.2500
H40 H 0.4733 0.3011 0.2407
H40A H 0.5267 0.3011 0.2593
O13 O 0.4163(3) 0.1215(6) 0.1735(5)
H41 H 0.4287 0.1207 0.2146
H42 H 0.3971 0.1609 0.1591
O14 O 0.3977(4) 0.0057(5) 0.0949(5)
H43 H 0.4041 0.0451 0.1212
H44 H 0.3854 0.0238 0.0563
O15 O 0.5000 0.0358(3) 0.2500
H45? H 0.4759 0.0283 0.2136
H46? H 0.5139 0.0793 0.2487
H47? H 0.4886 0.3399 0.2095
loop_
_geom_bond_atom_site_label_1
_geom_bond_atom_site_label_2
_geom_bond_site_symmetry_1
_geom_bond_site_symmetry_2
C1 H1 1_555 1_555
C2 C1 1_555 1_555
C3 C2 1_555 1_555
H2 C3 1_555 1_555
C4 C3 1_555 1_555
H3 C4 1_555 1_555
C5 C4 1_555 1_555
C6 C1 1_555 1_555
C7 C6 1_555 1_555
H4 C7 1_555 1_555
C8 C7 1_555 1_555
H5 C8 1_555 1_555
C9 C8 1_555 1_555
C10 C5 1_555 1_555
H6 C10 1_555 1_555
C11 C2 1_555 1_555
C12 C9 1_555 1_555
C13 C14 1_555 1_555
C14 C15 1_555 1_555
C15 H7 1_555 1_555
C16 C15 1_555 1_555
C17 C16 1_555 1_555
H8 C17 1_555 1_555
C18 C14 1_555 1_555
H9 C18 1_555 1_555
C19 C20 1_555 1_555
C20 C21 1_555 1_555
C21 H10 1_555 1_555
C22 C21 1_555 1_555
H11 C22 1_555 1_555
C23 C22 1_555 1_555
C24 C20 1_555 1_555
H12 C24 1_555 1_555
C25 H13 1_555 1_555
C26 C25 1_555 1_555
H14 C26 1_555 1_555
C27 C26 1_555 1_555
C28 C27 1_555 1_555
H15 C28 1_555 1_555
C29 C28 1_555 1_555
H16 C29 1_555 1_555
C30 H17 1_555 1_555
C31 C30 1_555 1_555
H18 C31 1_555 1_555
C32 C31 1_555 1_555
C33 C32 1_555 1_555
H19 C33 1_555 1_555
C34 C33 1_555 1_555
H20 C34 1_555 1_555
C35 H21 1_555 1_555
C36 C35 1_555 1_555
H22 C36 1_555 1_555
C37 C36 1_555 1_555
C38 C37 1_555 1_555
H23 C38 1_555 1_555
C39 C38 1_555 1_555
H24 C39 1_555 1_555
C40 H25 1_555 1_555
C41 C40 1_555 1_555
H26 C41 1_555 1_555
C42 C41 1_555 1_555
C43 C42 1_555 1_555
H27 C43 1_555 1_555
C44 C43 1_555 1_555
H28 C44 1_555 1_555
C45 H29 1_555 1_555
H30 C45 1_555 1_555
H31 C45 1_555 1_555
C46 H32 1_555 1_555
H33 C46 1_555 1_555
H34 C46 1_555 1_555
C47 H35 1_555 1_555
Co1 N1 1_555 1_555
Co2 N4 1_555 1_555
N1 C25 1_555 1_555
N2 C27 1_555 1_555
N3 C32 1_555 1_555
N4 C30 1_555 1_555
N5 C35 1_555 1_555
N6 C37 1_555 1_555
N7 C42 1_555 1_555
N8 C40 1_555 1_555
N9 C45 1_555 1_555
O1 C11 1_555 1_555
O2 C11 1_555 1_555
O3 C12 1_555 1_555
O4 C12 1_555 1_555
O5 C13 1_555 1_555
O6 C13 1_555 1_555
O7 C19 1_555 1_555
O8 C19 1_555 1_555
O9 C47 1_555 1_555
O10 H36 1_555 1_555
H37 O10 1_555 1_555
O11 H38 1_555 1_555
H39 O11 1_555 1_555
O12 H40 1_555 1_555
O13 H41 1_555 1_555
H42 O13 1_555 1_555
O14 H43 1_555 1_555
H44 O14 1_555 1_555
C1E H1E 1_555 1_555
C2E C1E 1_555 1_555
C3E C2E 1_555 1_555
H2E C3E 1_555 1_555
C4E C3E 1_555 1_555
H3E C4E 1_555 1_555
C5E C4E 1_555 1_555
C6E C1E 1_555 1_555
C7E C6E 1_555 1_555
H4E C7E 1_555 1_555
C8E C7E 1_555 1_555
H5E C8E 1_555 1_555
C9E C8E 1_555 1_555
C10E C5E 1_555 1_555
H6E C10E 1_555 1_555
C11E C2E 1_555 1_555
C12E C9E 1_555 1_555
C13F C14F 1_555 1_555
C14F C15F 1_555 1_555
C15F H7F 1_555 1_555
C16F C16 1_555 1_555
C17F C18 1_555 1_555
H8F C17F 1_555 1_555
C18F C17 1_555 1_555
H9F C18F 1_555 1_555
C19D C20D 1_555 1_555
C20D C21D 1_555 1_555
C21D H10D 1_555 1_555
C22D C21D 1_555 1_555
H11D C22D 1_555 1_555
C23D C23 1_555 1_555
C24D C23 1_555 1_555
H12D C24D 1_555 1_555
C25E H13E 1_555 1_555
C26E C25E 1_555 1_555
H14E C26E 1_555 1_555
C27E C26E 1_555 1_555
C28E C27E 1_555 1_555
H15E C28E 1_555 1_555
C29E C28E 1_555 1_555
H16E C29E 1_555 1_555
C30E H17E 1_555 1_555
C31E C30E 1_555 1_555
H18E C31E 1_555 1_555
C32E C31E 1_555 1_555
C33E C32E 1_555 1_555
H19E C33E 1_555 1_555
C34E C33E 1_555 1_555
H20E C34E 1_555 1_555
C35B H21B 1_555 1_555
C36B C35B 1_555 1_555
H22B C36B 1_555 1_555
C37B C36B 1_555 1_555
C38B C37B 1_555 1_555
H23B C38B 1_555 1_555
C39B C38B 1_555 1_555
H24B C39B 1_555 1_555
C40B H25B 1_555 1_555
C41B C40B 1_555 1_555
H26B C41B 1_555 1_555
C42B C41B 1_555 1_555
C43B C42B 1_555 1_555
H27B C43B 1_555 1_555
C44B C43B 1_555 1_555
H28B C44B 1_555 1_555
Co1E N1E 1_555 1_555
Co1E_2 O3 1_555 1_555
Co1B N8B 1_555 1_555
Co2B N5 1_555 1_555
Co2F O5F 1_555 1_555
Co2D O7D 1_555 1_555
Co2E N4E 1_555 1_555
N1E C25E 1_555 1_555
N2E C27E 1_555 1_555
N3E C32E 1_555 1_555
N4E C30E 1_555 1_555
N4B Co2B 1_555 1_555
N5B Co2 1_555 1_555
N6B C37B 1_555 1_555
N7B C42B 1_555 1_555
N8B C40B 1_555 1_555
N8E Co1E 1_555 1_555
O1E C11E 1_555 1_555
O2E C11E 1_555 1_555
O3E Co1 1_555 1_555
O3_2 Co1E 1_555 1_555
O4E Co1 1_555 1_555
O4_2 Co1E 1_555 1_555
O5F C13F 1_555 1_555
O5B Co2B 1_555 1_555
O6F C13F 1_555 1_555
O6B Co2B 1_555 1_555
O7D C19D 1_555 1_555
O7B Co2B 1_555 1_555
O8D C19D 1_555 1_555
O8B Co2B 1_555 1_555
H40A O12 1_555 1_555
C5 C6 1_555 1_555
C9 C10 1_555 1_555
C24 C23D 1_555 1_555
C29 N1 1_555 1_555
C34 N4 1_555 1_555
C39 N5 1_555 1_555
C44 N8 1_555 1_555
C46 N9 1_555 1_555
C47 N9 1_555 1_555
Co1 N8 1_555 1_555
Co1 O1 1_555 1_555
Co2 O5 1_555 1_555
Co2 O6 1_555 1_555
Co2 O7 1_555 1_555
Co2 O8 1_555 1_555
N2 N3 1_555 1_555
N6 N7 1_555 1_555
O4 Co1E_2 1_555 1_555
C5E C6E 1_555 1_555
C9E C10E 1_555 1_555
C12E O3E 1_555 1_555
C12E O4E 1_555 1_555
C14F C18F 1_555 1_555
C15F C16F 1_555 1_555
C16F C17F 1_555 1_555
C20D C24D 1_555 1_555
C22D C23D 1_555 1_555
C29E N1E 1_555 1_555
C34E N4E 1_555 1_555
C35B N5B 1_555 1_555
C39B N5B 1_555 1_555
C44B N8B 1_555 1_555
Co1E O1E 1_555 1_555
Co2F O6F 1_555 1_555
Co2D O8D 1_555 1_555
N2E N3E 1_555 1_555
N6B N7B 1_555 1_555

#END
