
#######################################################################
#
#                 Cambridge Crystallographic Data Centre
#                                CCDC 
#
#######################################################################
#
# If this CIF has been generated from an entry in the Cambridge 
# Structural Database, then it will include bibliographic, chemical, 
# crystal, experimental, refinement or atomic coordinate data resulting 
# from the CCDC's data processing and validation procedures.
#
#######################################################################

data_VEFMID
_symmetry_cell_setting           monoclinic
_symmetry_space_group_name_H-M   'C 2/c'
_symmetry_Int_Tables_number      15
_space_group_name_Hall           '-C 2yn'
loop_
_symmetry_equiv_pos_site_id
_symmetry_equiv_pos_as_xyz
1 x,y,z
2 -x,y,1/2-z
3 1/2+x,1/2+y,z
4 1/2-x,1/2+y,1/2-z
5 -x,-y,-z
6 x,-y,1/2+z
7 1/2-x,1/2-y,-z
8 1/2+x,1/2-y,1/2+z
_cell_length_a                   21.461(6)
_cell_length_b                   14.919(4)
_cell_length_c                   12.319(3)
_cell_angle_alpha                90.00
_cell_angle_beta                 90.000(3)
_cell_angle_gamma                90.00
_cell_volume                     3944.26
loop_
_atom_site_label
_atom_site_type_symbol
_atom_site_fract_x
_atom_site_fract_y
_atom_site_fract_z
F1 F 0.4226(3) 1.0297(4) 0.1726(5)
O4 O 0.1912(3) 1.0212(4) 0.1883(4)
O5 O 0.1710(3) 0.9474(4) 0.3397(4)
C1 C 0.2757(4) 0.9769(4) 0.2978(6)
C2 C 0.3188(4) 1.0069(5) 0.2249(6)
H5 H 0.3058 1.0311 0.1590
C3 C 0.3801(4) 1.0016(5) 0.2480(7)
C4 C 0.4046(4) 0.9682(6) 0.3404(7)
H6 H 0.4472 0.9666 0.3535
C5 C 0.3611(5) 0.9365(6) 0.4143(7)
H7 H 0.3749 0.9115 0.4791
C6 C 0.2966(4) 0.9411(5) 0.3938(6)
H8 H 0.2684 0.9199 0.4451
C7 C 0.2063(4) 0.9826(4) 0.2754(6)
O1 O 0.2137(5) 0.1992(5) 0.1345(6)
H45 H 0.221(3) 0.1437(17) 0.138(5)
H46 H 0.191(3) 0.224(3) 0.088(5)
O2 O 0.3256(3) 0.2705(4) 0.0789(5)
H1 H 0.3338 0.3182 0.1136
H2 H 0.3511 0.2505 0.0321
Ag1 Ag 0.08717(2) 0.18855(3) 0.50008(3)
O3 O 0.1065(2) 0.0189(3) 0.5189(4)
H3 H 0.1242 -0.0016 0.4623
H4 H 0.1300 0.0086 0.5729
N1 N 0.0309(2) 0.1933(3) 0.3397(4)
N2 N 0.0300(2) 0.2056(3) 0.6588(4)
N3 N 0.1910(2) 0.2296(3) 0.5019(4)
C8 C 0.2141(6) 0.2503(15) 0.6104(10)
C9 C 0.2151(7) 0.2360(18) 0.3934(10)
H11 H 0.1938 0.2821 0.3537
H12 H 0.2068 0.1798 0.3586
H16 H 0.2110 0.1689 0.6425
H19 H 0.1889 0.3254 0.6188
C14 C 0.0715(6) 0.2172(16) 0.7464(11)
H21 H 0.0924 0.2739 0.7397
H22 H 0.1025 0.1708 0.7444
C15 C -0.0370(7) 0.2120(17) 0.6424(11)
H23 H -0.0458 0.2654 0.6016
C18 C -0.0093(10) 0.1250(12) 0.6637(13)
H29 H 0.0187 0.0748 0.6652
H30 H -0.0363 0.1187 0.6019
C20 C -0.0347(6) 0.1925(19) 0.3570(10)
H33 H -0.0461 0.2372 0.4094
H34 H -0.0455 0.1350 0.3865
C21 C 0.0737(7) 0.2038(19) 0.2479(11)
H35 H 0.0909 0.2633 0.2484
H36 H 0.1073 0.1615 0.2523
C8F C 0.2859(6) 0.2497(15) 0.3896(10)
C9F C 0.2849(7) 0.2640(18) 0.6066(10)
C14A C -0.0715(6) 0.2172(16) 0.7536(11)
C15A C 0.0370(7) 0.2120(17) 0.8576(11)
C20A C 0.0347(6) 0.1925(19) 0.1430(10)
C21A C -0.0737(7) 0.2038(19) 0.2521(11)
H9? H 0.2056 0.2007 0.6578
H10? H 0.1926 0.3019 0.6379
C10? C 0.2039(7) 0.3104(11) 0.4344(17)
H13? H 0.1797 0.3603 0.4598
H14? H 0.1915 0.2973 0.3612
C11? C 0.2728(7) 0.3310(13) 0.4301(17)
H15? H 0.2779 0.3902 0.4594
C12? C 0.2297(6) 0.1538(9) 0.4609(15)
H17? H 0.2143 0.1356 0.3911
H18? H 0.2249 0.1042 0.5098
C13? C 0.2986(7) 0.1768(10) 0.4559(19)
H20? H 0.3230 0.1341 0.4957
H24? H 0.0515 0.1616 0.8988
C16? C -0.0141(8) 0.2854(10) 0.6629(13)
H25? H -0.0453 0.2803 0.6074
H26? H 0.0087 0.3399 0.6511
C17? C -0.0452(9) 0.2873(11) 0.7741(14)
H27? H -0.0896 0.2916 0.7654
H28? H -0.0315 0.3396 0.8127
C19? C -0.0456(9) 0.1251(10) 0.7720(12)
H31? H -0.0375 0.0721 0.8138
H32? H -0.0891 0.1258 0.7539
C22? C 0.0429(10) 0.2742(12) 0.2757(14)
H37? H 0.0869 0.2811 0.2642
H38? H 0.0282 0.3254 0.3153
C23? C 0.0085(12) 0.2700(13) 0.1691(16)
H39? H 0.0390 0.2666 0.1122
H40? H -0.0154 0.3235 0.1582
C24? C 0.0455(10) 0.1166(13) 0.2730(14)
H41? H 0.0437 0.0631 0.3163
H42? H 0.0872 0.1230 0.2461
C25? C 0.0016(12) 0.1136(15) 0.1710(16)
H43? H -0.0290 0.0681 0.1851
H44? H 0.0236 0.0984 0.1056
loop_
_geom_bond_atom_site_label_1
_geom_bond_atom_site_label_2
_geom_bond_site_symmetry_1
_geom_bond_site_symmetry_2
Ag1 O3 1_555 1_555
F1 C3 1_555 1_555
O1 H45 1_555 1_555
O2 H1 1_555 1_555
H2 O2 1_555 1_555
O3 H3 1_555 1_555
H4 O3 1_555 1_555
O4 C7 1_555 1_555
O5 C7 1_555 1_555
C1 C2 1_555 1_555
C2 H5 1_555 1_555
C3 C2 1_555 1_555
C4 C3 1_555 1_555
H6 C4 1_555 1_555
C5 C4 1_555 1_555
H7 C5 1_555 1_555
C6 C1 1_555 1_555
H8 C6 1_555 1_555
C7 C1 1_555 1_555
N1 Ag1 1_555 1_555
N2 Ag1 1_555 1_555
N3 Ag1 1_555 1_555
C8 N3 1_555 1_555
C9 N3 1_555 1_555
H11 C9 1_555 1_555
H12 C9 1_555 1_555
H16 C8 1_555 1_555
H19 C8 1_555 1_555
C14 N2 1_555 1_555
H21 C14 1_555 1_555
H22 C14 1_555 1_555
C15 N2 1_555 1_555
H23 C15 1_555 1_555
C18 N2 1_555 1_555
H29 C18 1_555 1_555
H30 C18 1_555 1_555
C20 N1 1_555 1_555
H33 C20 1_555 1_555
H34 C20 1_555 1_555
C21 N1 1_555 1_555
H35 C21 1_555 1_555
H36 C21 1_555 1_555
H46 O1 1_555 1_555
C8F C9 1_555 1_555
C9F C8 1_555 1_555
C14A C15 1_555 1_555
C15A C14 1_555 1_555
C20A C21 1_555 1_555
C21A C20 1_555 1_555
C5 C6 1_555 1_555
C15 C18 1_555 1_555

#END
