
#######################################################################
#
#                 Cambridge Crystallographic Data Centre
#                                CCDC 
#
#######################################################################
#
# If this CIF has been generated from an entry in the Cambridge 
# Structural Database, then it will include bibliographic, chemical, 
# crystal, experimental, refinement or atomic coordinate data resulting 
# from the CCDC's data processing and validation procedures.
#
#######################################################################

data_VEFMEA
_symmetry_cell_setting           orthorhombic
_symmetry_space_group_name_H-M   'C m c 21'
_symmetry_Int_Tables_number      36
_space_group_name_Hall           'C 2n -2'
loop_
_symmetry_equiv_pos_site_id
_symmetry_equiv_pos_as_xyz
1 x,y,z
2 -x,-y,1/2+z
3 x,-y,1/2+z
4 -x,y,z
5 1/2+x,1/2+y,z
6 1/2-x,1/2-y,1/2+z
7 1/2+x,1/2-y,1/2+z
8 1/2-x,1/2+y,z
_cell_length_a                   10.509(5)
_cell_length_b                   24.643(12)
_cell_length_c                   12.359(6)
_cell_angle_alpha                90
_cell_angle_beta                 90
_cell_angle_gamma                90
_cell_volume                     3200.65
loop_
_atom_site_label
_atom_site_type_symbol
_atom_site_fract_x
_atom_site_fract_y
_atom_site_fract_z
C1 C 1.0000 0.9231(3) 0.0372(8)
C2 C 1.0000 0.9801(3) 0.0361(7)
H1 H 1.0000 0.9991 -0.0290
C3 C 1.0000 1.00774(19) 0.1365(9)
H2 H 1.0000 1.0455 0.1368
C4 C 1.0000 0.9781(3) 0.2306(7)
H3 H 1.0000 0.9968 0.2959
C5 C 1.0000 0.9231(3) 0.2304(6)
C6 C 1.0000 0.8826(3) -0.0515(6)
C7 C 1.0000 0.8861(3) 0.3224(7)
C8 C 0.7622(4) 0.75963(17) 0.2123(4)
H4 H 0.7698 0.7864 0.2704
C9 C 0.6675(4) 0.72056(15) 0.2114(3)
H5 H 0.6036 0.7248 0.2681
C10 C 0.6535(4) 0.68638(16) 0.1230(6)
C11 C 0.7386(4) 0.69075(17) 0.0380(3)
H6 H 0.7167 0.6726 -0.0225
C12 C 0.8334(4) 0.72872(16) 0.0392(3)
H7 H 0.8831 0.7330 -0.0200
N1 N 1.0000 0.89560(16) 0.1322(7)
N2 N 0.8468(3) 0.76386(11) 0.1265(4)
N3 N 0.5595(3) 0.64762(14) 0.1213(4)
O1 O 1.0000 0.8313(2) -0.0338(4)
O2 O 1.0000 0.9077(2) -0.1423(5)
O3 O 1.0000 0.8364(2) 0.3086(4)
O4 O 1.0000 0.9068(2) 0.4157(4)
Zn1 Zn 1.0000 0.81649(2) 0.13665(7)
C8C C 0.2378(4) 0.75963(17) 0.2123(4)
H4C H 0.2302 0.7864 0.2704
C9C C 0.3325(4) 0.72056(15) 0.2114(3)
H5C H 0.3964 0.7248 0.2681
C10C C 0.3465(4) 0.68638(16) 0.1230(6)
C11C C 0.2614(4) 0.69075(17) 0.0380(3)
H6C H 0.2833 0.6726 -0.0225
C12C C 0.1666(4) 0.72872(16) 0.0392(3)
H7C H 0.1169 0.7330 -0.0200
N2C N 0.1532(3) 0.76386(11) 0.1265(4)
N2C_2 N 1.1532(3) 0.76386(11) 0.1265(4)
N3C N 0.4405(3) 0.64762(14) 0.1213(4)
Zn1_2 Zn 0.0000 0.81649(2) 0.13665(7)
O5 O 0.8943(7) 0.6412(3) 0.8348(6)
H8 H 0.9017 0.6610 0.7788
H9 H 0.8254 0.6232 0.8311
O6 O 0.8126(9) 0.6297(4) 0.3520(7)
H10 H 0.8242 0.6313 0.4200
H11 H 0.7849 0.5985 0.3352
O7 O 0.1437(10) 0.5642(4) 0.0998(7)
H12 H 0.2161 0.5714 0.1270
H13 H 0.0902 0.5881 0.1198
O8 O 0.1409(9) 0.5199(5) 0.9417(7)
H14 H 0.1251 0.5408 0.8885
H15 H 0.0957 0.4914 0.9366
O9 O 0.1144(8) 0.4836(4) 0.1908(7)
O10? O 0.0318(6) 0.6689(3) 0.5612(6)
H16? H 0.0628 0.7007 0.5640
H17? H 0.0473 0.6548 0.4997
H18? H 0.1323 0.4511 0.1734
H19? H 0.0402 0.4914 0.1684
loop_
_geom_bond_atom_site_label_1
_geom_bond_atom_site_label_2
_geom_bond_site_symmetry_1
_geom_bond_site_symmetry_2
C1 C2 1_555 1_555
C2 H1 1_555 1_555
C3 C2 1_555 1_555
H2 C3 1_555 1_555
C4 C3 1_555 1_555
H3 C4 1_555 1_555
C5 C4 1_555 1_555
C6 C1 1_555 1_555
C7 C5 1_555 1_555
C8 H4 1_555 1_555
C9 C8 1_555 1_555
H5 C9 1_555 1_555
C10 C9 1_555 1_555
C11 C10 1_555 1_555
H6 C11 1_555 1_555
C12 C11 1_555 1_555
H7 C12 1_555 1_555
N1 C1 1_555 1_555
N2 C8 1_555 1_555
N3 C10 1_555 1_555
O1 C6 1_555 1_555
O2 C6 1_555 1_555
O3 C7 1_555 1_555
O4 C7 1_555 1_555
Zn1 N1 1_555 1_555
O5 H8 1_555 1_555
H9 O5 1_555 1_555
O6 H10 1_555 1_555
H11 O6 1_555 1_555
O7 H12 1_555 1_555
H13 O7 1_555 1_555
O8 H14 1_555 1_555
H15 O8 1_555 1_555
C8C H4C 1_555 1_555
C9C C8C 1_555 1_555
H5C C9C 1_555 1_555
C10C C9C 1_555 1_555
C11C C10C 1_555 1_555
H6C C11C 1_555 1_555
C12C C11C 1_555 1_555
H7C C12C 1_555 1_555
N2C C8C 1_555 1_555
N2C_2 Zn1 1_555 1_555
N3C N3 1_555 1_555
Zn1_2 N2C 1_555 1_555
C5 N1 1_555 1_555
C12 N2 1_555 1_555
N2 Zn1 1_555 1_555
O1 Zn1 1_555 1_555
O3 Zn1 1_555 1_555
C10C N3C 1_555 1_555
C12C N2C 1_555 1_555

#END
