
#######################################################################
#
#                 Cambridge Crystallographic Data Centre
#                                CCDC 
#
#######################################################################
#
# If this CIF has been generated from an entry in the Cambridge 
# Structural Database, then it will include bibliographic, chemical, 
# crystal, experimental, refinement or atomic coordinate data resulting 
# from the CCDC's data processing and validation procedures.
#
#######################################################################

data_VEFROP
_symmetry_cell_setting           triclinic
_symmetry_space_group_name_H-M   'P -1'
_symmetry_Int_Tables_number      2
_space_group_name_Hall           '-P 1'
loop_
_symmetry_equiv_pos_site_id
_symmetry_equiv_pos_as_xyz
1 x,y,z
2 -x,-y,-z
_cell_length_a                   9.8694(11)
_cell_length_b                   11.4270(13)
_cell_length_c                   13.7448(16)
_cell_angle_alpha                73.193(2)
_cell_angle_beta                 70.9540(10)
_cell_angle_gamma                84.122(2)
_cell_volume                     1402.6
loop_
_atom_site_label
_atom_site_type_symbol
_atom_site_fract_x
_atom_site_fract_y
_atom_site_fract_z
Eu1 Eu 0.34708(3) 0.06209(3) 0.61049(2)
C1 C 0.6227(7) 0.2235(6) 0.4136(5)
C2 C 0.6511(7) 0.3527(6) 0.3440(5)
C3 C 0.6835(7) 0.3757(6) 0.2343(5)
H1 H 0.6859 0.3123 0.2039
C4 C 0.7128(7) 0.4958(6) 0.1698(5)
C5 C 0.7153(7) 0.5884(6) 0.2152(5)
H2 H 0.7341 0.6680 0.1721
C6 C 0.6900(7) 0.5635(6) 0.3253(5)
C7 C 0.6526(7) 0.4454(6) 0.3897(5)
H3 H 0.6286 0.4289 0.4636
C8 C 0.7142(7) 0.6588(7) 0.3737(6)
C9 C 0.7066(7) 0.4691(6) -0.0008(5)
C10 C 0.7645(7) 0.5205(6) -0.1200(5)
C11 C 0.6825(8) 0.5170(7) -0.1826(6)
H4 H 0.5903 0.4853 -0.1519
C12 C 0.7398(8) 0.5616(8) -0.2926(6)
H5 H 0.6824 0.5612 -0.3344
C13 C 0.9488(9) 0.6080(9) -0.2813(6)
H6 H 1.0409 0.6395 -0.3144
C14 C 0.9004(8) 0.5667(8) -0.1687(6)
H7 H 0.9589 0.5705 -0.1286
C15 C 0.6935(7) -0.0911(6) 0.5946(5)
C16 C 0.7256(7) -0.1055(6) 0.6962(5)
C17 C 0.8576(7) -0.0703(6) 0.6941(5)
H8 H 0.9276 -0.0398 0.6290
C18 C 0.8849(7) -0.0808(6) 0.7892(5)
C19 C 0.7791(7) -0.1237(7) 0.8854(5)
H9 H 0.7970 -0.1306 0.9492
C20 C 0.6477(7) -0.1562(6) 0.8878(5)
C21 C 0.6192(7) -0.1479(6) 0.7944(5)
H10 H 0.5301 -0.1702 0.7965
C22 C 1.0269(7) -0.0440(7) 0.7878(5)
C23 C 0.5092(7) -0.1549(7) 1.0714(5)
C24 C 0.3750(7) -0.1988(7) 1.1634(5)
C25 C 0.3807(8) -0.2185(8) 1.2658(6)
H11 H 0.4664 -0.2083 1.2769
C26 C 0.2602(8) -0.2530(8) 1.3509(6)
H12 H 0.2663 -0.2681 1.4195
C27 C 0.1273(8) -0.2458(8) 1.2410(6)
H13 H 0.0399 -0.2544 1.2318
C28 C 0.2460(8) -0.2122(7) 1.1511(6)
H14 H 0.2380 -0.1990 1.0832
N1 N 0.8717(7) 0.6047(6) -0.3418(5)
N2 N 0.7482(7) 0.5258(6) 0.0575(4)
H15 H 0.8031 0.5879 0.0222
N3 N 0.1332(6) -0.2661(6) 1.3395(5)
N4 N 0.5328(6) -0.1968(5) 0.9856(4)
H16 H 0.4758 -0.2512 0.9895
O1 O 0.5321(5) 0.2079(4) 0.5048(4)
O2 O 0.6926(5) 0.1421(4) 0.3738(4)
O3 O 0.7384(6) 0.6244(5) 0.4596(4)
O4 O 0.7112(6) 0.7694(5) 0.3190(4)
O5 O 0.6229(6) 0.3831(5) 0.0383(4)
O6 O 0.5721(5) -0.0496(4) 0.5880(3)
O7 O 0.7868(5) -0.1181(5) 0.5170(3)
O8 O 1.0997(5) 0.0286(5) 0.7041(4)
O9 O 1.0651(6) -0.0877(6) 0.8687(4)
O10 O 0.5897(6) -0.0876(6) 1.0795(4)
O11 O 0.3350(5) -0.0235(4) 0.7951(4)
H17 H 0.2486 -0.0376 0.8344
H18 H 0.3707 0.0255 0.8162
Ag1 Ag 0.94799(6) 0.68697(7) -0.51653(4)
Eu1A Eu 0.65292(3) -0.06209(3) 0.38951(2)
Eu1A_2 Eu 0.65292(3) 0.93791(3) 0.38951(2)
Eu1_2 Eu 1.34708(3) 0.06209(3) 0.61049(2)
N3_2 N 1.1332(6) 0.7339(6) -0.6605(5)
O2A O 0.3074(5) -0.1421(4) 0.6262(4)
O3_2 O 0.7384(6) 0.6244(5) -0.5404(4)
O4A O 0.2888(6) 0.2306(5) 0.6810(4)
O6A O 0.4279(5) 0.0496(4) 0.4120(3)
O7A O 0.2132(5) 0.1181(5) 0.4830(3)
O7_2 O 0.7868(5) 0.8819(5) -0.4830(3)
O8_2 O 0.0997(5) 0.0286(5) 0.7041(4)
Ag1_2 Ag -0.05201(6) -0.31303(7) 1.48347(4)
Ag1_3 Ag 0.94799(6) 0.68697(7) 0.48347(4)
Ag1_4 Ag 0.94799(6) -0.31303(7) 0.48347(4)
O12 O 0.9955(7) 0.6810(7) 0.0038(6)
H19 H 1.0008 0.7519 -0.0395
H20 H 1.0671 0.6373 -0.0193
loop_
_geom_bond_atom_site_label_1
_geom_bond_atom_site_label_2
_geom_bond_site_symmetry_1
_geom_bond_site_symmetry_2
Eu1 O1 1_555 1_555
C1 C2 1_555 1_555
C2 C3 1_555 1_555
C3 H1 1_555 1_555
C4 C3 1_555 1_555
C5 C4 1_555 1_555
H2 C5 1_555 1_555
C6 C5 1_555 1_555
C7 C2 1_555 1_555
H3 C7 1_555 1_555
C8 C6 1_555 1_555
C9 C10 1_555 1_555
C10 C11 1_555 1_555
C11 H4 1_555 1_555
C12 C11 1_555 1_555
H5 C12 1_555 1_555
C13 H6 1_555 1_555
C14 C10 1_555 1_555
H7 C14 1_555 1_555
C15 C16 1_555 1_555
C16 C17 1_555 1_555
C17 H8 1_555 1_555
C18 C17 1_555 1_555
C19 C18 1_555 1_555
H9 C19 1_555 1_555
C20 C19 1_555 1_555
C21 C16 1_555 1_555
H10 C21 1_555 1_555
C22 C18 1_555 1_555
C23 C24 1_555 1_555
C24 C25 1_555 1_555
C25 H11 1_555 1_555
C26 C25 1_555 1_555
H12 C26 1_555 1_555
C27 H13 1_555 1_555
C28 C24 1_555 1_555
H14 C28 1_555 1_555
N1 C12 1_555 1_555
N2 C4 1_555 1_555
H15 N2 1_555 1_555
N3 C26 1_555 1_555
N4 C20 1_555 1_555
H16 N4 1_555 1_555
O1 C1 1_555 1_555
O2 C1 1_555 1_555
O3 C8 1_555 1_555
O4 C8 1_555 1_555
O5 C9 1_555 1_555
O6 Eu1 1_555 1_555
O7 C15 1_555 1_555
O8 C22 1_555 1_555
O9 C22 1_555 1_555
O10 C23 1_555 1_555
O11 Eu1 1_555 1_555
H17 O11 1_555 1_555
H18 O11 1_555 1_555
O12 H19 1_555 1_555
H20 O12 1_555 1_555
Ag1 N1 1_555 1_555
Eu1A O2 1_555 1_555
Eu1A_2 O4 1_555 1_555
Eu1_2 O8 1_555 1_555
N3_2 Ag1 1_555 1_555
O2A Eu1 1_555 1_555
O3_2 Ag1 1_555 1_555
O4A Eu1 1_555 1_555
O6A Eu1 1_555 1_555
O7A Eu1 1_555 1_555
O7_2 Ag1 1_555 1_555
O8_2 Eu1 1_555 1_555
Ag1_2 N3 1_555 1_555
Ag1_3 O3 1_555 1_555
Ag1_4 O7 1_555 1_555
C6 C7 1_555 1_555
C9 N2 1_555 1_555
C13 C14 1_555 1_555
C13 N1 1_555 1_555
C15 O6 1_555 1_555
C20 C21 1_555 1_555
C23 N4 1_555 1_555
C27 C28 1_555 1_555
C27 N3 1_555 1_555
O6 Eu1A 1_555 1_555
O7 Eu1A 1_555 1_555
Eu1A O6A 1_555 1_555

#END
