
#######################################################################
#
#                 Cambridge Crystallographic Data Centre
#                                CCDC 
#
#######################################################################
#
# If this CIF has been generated from an entry in the Cambridge 
# Structural Database, then it will include bibliographic, chemical, 
# crystal, experimental, refinement or atomic coordinate data resulting 
# from the CCDC's data processing and validation procedures.
#
#######################################################################

data_VEFTAB
_symmetry_cell_setting           monoclinic
_symmetry_space_group_name_H-M   'P 21'
_symmetry_Int_Tables_number      4
_space_group_name_Hall           'P 2yb'
loop_
_symmetry_equiv_pos_site_id
_symmetry_equiv_pos_as_xyz
1 x,y,z
2 -x,1/2+y,-z
_cell_length_a                   7.487(6)
_cell_length_b                   3.771(7)
_cell_length_c                   15.506(2)
_cell_angle_alpha                90
_cell_angle_beta                 95.07(4)
_cell_angle_gamma                90
_cell_volume                     436.075
loop_
_atom_site_label
_atom_site_type_symbol
_atom_site_fract_x
_atom_site_fract_y
_atom_site_fract_z
Cl1 Cl 0.6349(2) 0.494(2) 0.4316(1)
Cu1 Cu 0.4443(1) 0.000 0.40855(7)
N1 N 0.2469(7) -0.025(5) 0.3151(4)
C1 C 0.0863(10) -0.130(3) 0.3310(5)
N2 N 0.0580(9) -0.250(3) 0.4102(4)
C2 C -0.0612(11) -0.152(3) 0.2660(6)
C3 C -0.0337(10) -0.049(6) 0.1856(6)
C4 C 0.1367(11) 0.086(4) 0.1650(5)
C5 C 0.1733(14) 0.201(4) 0.0819(5)
C6 C 0.3408(15) 0.316(4) 0.0671(6)
C7 C 0.4759(13) 0.327(3) 0.1331(6)
C8 C 0.4466(11) 0.221(3) 0.2147(6)
C9 C 0.2753(11) 0.092(3) 0.2323(5)
H1 H 0.162 -0.193 0.457
H2 H -0.072 -0.352 0.403
H3 H -0.175 -0.253 0.277
H4 H -0.135 0.059 0.144
H5 H 0.077 0.226 0.035
H6 H 0.364 0.410 0.009
H7 H 0.595 0.427 0.123
H8 H 0.545 0.229 0.259
Cu1_2 Cu 0.4443(1) 1.000 0.40855(7)
Cu1A Cu 0.5557(1) 0.500 0.59145(7)
Cl1_2 Cl 0.6349(2) -0.506(2) 0.4316(1)
Cl1A Cl 0.3651(2) -0.006(2) 0.5684(1)
Cl1A_2 Cl 0.3651(2) 0.994(2) 0.5684(1)
N1A N 0.7531(7) 0.475(5) 0.6849(4)
Cu1A_2 Cu 0.5557(1) -0.500 0.59145(7)
C1A C 0.9137(10) 0.370(3) 0.6690(5)
C9A C 0.7247(11) 0.592(3) 0.7677(5)
N2A N 0.9420(9) 0.250(3) 0.5898(4)
C2A C 1.0612(11) 0.348(3) 0.7340(6)
C4A C 0.8633(11) 0.586(4) 0.8350(5)
C8A C 0.5534(11) 0.721(3) 0.7853(6)
H1A H 0.838 0.307 0.543
H2A H 1.072 0.148 0.597
C3A C 1.0337(10) 0.451(6) 0.8144(6)
H3A H 1.175 0.247 0.723
C5A C 0.8267(14) 0.701(4) 0.9181(5)
C7A C 0.5241(13) 0.827(3) 0.8669(6)
H8A H 0.455 0.729 0.741
H4A H 1.135 0.559 0.856
C6A C 0.6592(15) 0.816(4) 0.9329(6)
H5A H 0.923 0.726 0.965
H7A H 0.405 0.927 0.877
H6A H 0.636 0.910 0.991
loop_
_geom_bond_atom_site_label_1
_geom_bond_atom_site_label_2
_geom_bond_site_symmetry_1
_geom_bond_site_symmetry_2
Cl1 Cu1 1_555 1_555
Cu1 N1 1_555 1_555
N1 C1 1_555 1_555
C1 N2 1_555 1_555
N2 H1 1_555 1_555
C2 C1 1_555 1_555
C3 C2 1_555 1_555
C4 C3 1_555 1_555
C5 C4 1_555 1_555
C6 C5 1_555 1_555
C7 C6 1_555 1_555
C8 C7 1_555 1_555
C9 N1 1_555 1_555
H2 N2 1_555 1_555
H3 C2 1_555 1_555
H4 C3 1_555 1_555
H5 C5 1_555 1_555
H6 C6 1_555 1_555
H7 C7 1_555 1_555
H8 C8 1_555 1_555
Cu1_2 Cl1 1_555 1_555
Cu1A Cl1 1_555 1_555
Cl1_2 Cu1 1_555 1_555
Cl1A Cu1 1_555 1_555
Cl1A_2 Cu1A 1_555 1_555
N1A Cu1A 1_555 1_555
Cu1A_2 Cl1A 1_555 1_555
C1A N1A 1_555 1_555
C9A N1A 1_555 1_555
N2A C1A 1_555 1_555
C2A C1A 1_555 1_555
C4A C9A 1_555 1_555
C8A C9A 1_555 1_555
H1A N2A 1_555 1_555
H2A N2A 1_555 1_555
C3A C2A 1_555 1_555
H3A C2A 1_555 1_555
C5A C4A 1_555 1_555
C7A C8A 1_555 1_555
H8A C8A 1_555 1_555
H4A C3A 1_555 1_555
C6A C5A 1_555 1_555
H5A C5A 1_555 1_555
H7A C7A 1_555 1_555
H6A C6A 1_555 1_555
C4 C9 1_555 1_555
C8 C9 1_555 1_555
Cu1A Cl1A 1_555 1_555
C4A C3A 1_555 1_555
C7A C6A 1_555 1_555

#END
