
#######################################################################
#
#                 Cambridge Crystallographic Data Centre
#                                CCDC 
#
#######################################################################
#
# If this CIF has been generated from an entry in the Cambridge 
# Structural Database, then it will include bibliographic, chemical, 
# crystal, experimental, refinement or atomic coordinate data resulting 
# from the CCDC's data processing and validation procedures.
#
#######################################################################

data_VEGMIF
_symmetry_cell_setting           orthorhombic
_symmetry_space_group_name_H-M   'P b c a'
_symmetry_Int_Tables_number      61
_space_group_name_Hall           '-P 2ac 2ab'
loop_
_symmetry_equiv_pos_site_id
_symmetry_equiv_pos_as_xyz
1 x,y,z
2 1/2-x,-y,1/2+z
3 -x,1/2+y,1/2-z
4 1/2+x,1/2-y,-z
5 -x,-y,-z
6 1/2+x,y,1/2-z
7 x,1/2-y,1/2+z
8 1/2-x,1/2+y,z
_cell_length_a                   8.9962(18)
_cell_length_b                   25.246(5)
_cell_length_c                   35.100(7)
_cell_angle_alpha                90
_cell_angle_beta                 90
_cell_angle_gamma                90
_cell_volume                     7971.84
loop_
_atom_site_label
_atom_site_type_symbol
_atom_site_fract_x
_atom_site_fract_y
_atom_site_fract_z
Ag2 Ag 0.5000 0.0000 0.5000
Ag3 Ag 0.4893(4) 0.50095(16) 0.49110(6)
C7 C 0.6780(9) 0.4103(4) 0.4617(2)
H9 H 0.6258 0.4213 0.4395
C8 C 0.7730(8) 0.3693(3) 0.4582(2)
H10 H 0.7882 0.3537 0.4339
C9 C 0.8482(7) 0.3497(3) 0.48930(19)
C10 C 0.8185(9) 0.3757(4) 0.5237(2)
H11 H 0.8658 0.3640 0.5464
C11 C 0.7261(10) 0.4159(5) 0.5250(3)
H12 H 0.7092 0.4319 0.5491
C12 C 0.9460(7) 0.3001(3) 0.4870(2)
H13 H 1.0206 0.3010 0.5077
H14 H 1.0000 0.2999 0.4624
C13 C 0.8549(7) 0.2504(3) 0.49035(19)
H15 H 0.8054 0.2499 0.5155
H16 H 0.7764 0.2508 0.4706
C14 C 0.9472(7) 0.2002(3) 0.4859(2)
H17 H 1.0249 0.1993 0.5059
H18 H 0.9973 0.2006 0.4608
C15 C 0.7017(9) 0.0838(3) 0.4611(2)
H19 H 0.6639 0.0677 0.4386
C16 C 0.7957(8) 0.1260(3) 0.4575(2)
H20 H 0.8222 0.1381 0.4328
C17 C 0.8527(7) 0.1513(3) 0.48899(19)
C18 C 0.8131(8) 0.1297(3) 0.5237(2)
H21 H 0.8530 0.1445 0.5464
C19 C 0.7172(8) 0.0871(3) 0.5263(2)
H22 H 0.6908 0.0737 0.5507
N3 N 0.6518(7) 0.4367(3) 0.4940(2)
N4 N 0.6607(6) 0.0643(3) 0.49498(16)
Ag3D Ag 0.5107(4) -0.50095(16) 0.50890(6)
Ag3D_2 Ag 0.5107(4) 0.49905(16) 0.50890(6)
Ag3_2 Ag 0.4893(4) -0.49905(16) 0.49110(6)
C7D C 0.3220(9) -0.4103(4) 0.5383(2)
H9D H 0.3742 -0.4213 0.5605
C8D C 0.2270(8) -0.3693(3) 0.5418(2)
H10D H 0.2118 -0.3537 0.5661
C9D C 0.1518(7) -0.3497(3) 0.51070(19)
C10D C 0.1815(9) -0.3757(4) 0.4763(2)
H11D H 0.1342 -0.3640 0.4536
C11D C 0.2739(10) -0.4159(5) 0.4750(3)
H12D H 0.2908 -0.4319 0.4509
C12D C 0.0540(7) -0.3001(3) 0.5130(2)
H13D H -0.0206 -0.3010 0.4923
H14D H 0.0000 -0.2999 0.5376
C13D C 0.1451(7) -0.2504(3) 0.50965(19)
H15D H 0.1946 -0.2499 0.4845
H16D H 0.2236 -0.2508 0.5294
C14D C 0.0528(7) -0.2002(3) 0.5141(2)
H17D H -0.0249 -0.1993 0.4941
H18D H 0.0027 -0.2006 0.5392
C15D C 0.2983(9) -0.0838(3) 0.5389(2)
H19D H 0.3361 -0.0677 0.5614
C16D C 0.2043(8) -0.1260(3) 0.5425(2)
H20D H 0.1778 -0.1381 0.5672
C17D C 0.1473(7) -0.1513(3) 0.51101(19)
C18D C 0.1869(8) -0.1297(3) 0.4763(2)
H21D H 0.1470 -0.1445 0.4536
C19D C 0.2828(8) -0.0871(3) 0.4737(2)
H22D H 0.3092 -0.0737 0.4493
N3D N 0.3482(7) -0.4367(3) 0.5060(2)
N3D_2 N 0.3482(7) 0.5633(3) 0.5060(2)
N3_2 N 0.6518(7) -0.5633(3) 0.4940(2)
N4D N 0.3393(6) -0.0643(3) 0.50502(16)
C1 C 0.4462(9) 0.7045(3) 0.61586(19)
C2 C 0.4666(10) 0.7551(4) 0.5923(2)
H1 H 0.5501 0.7497 0.5744
H2 H 0.3757 0.7611 0.5770
C3 C 0.4953(10) 0.8012(4) 0.6144(2)
H3 H 0.4148 0.8046 0.6335
H4 H 0.4884 0.8323 0.5973
C4 C 0.6445(11) 0.8043(4) 0.6356(3)
H5 H 0.6456 0.7751 0.6544
H6 H 0.7234 0.7964 0.6167
C5 C 0.6887(11) 0.8528(4) 0.6557(3)
H7 H 0.7812 0.8457 0.6701
H8 H 0.6104 0.8620 0.6744
C6 C 0.7142(9) 0.8998(3) 0.6296(2)
O2 O 0.5608(6) 0.6761(3) 0.61847(18)
O3 O 0.3227(5) 0.6942(2) 0.62969(13)
O5 O 0.8445(6) 0.9125(2) 0.62231(15)
O7 O 0.5992(5) 0.9242(3) 0.61750(16)
O4 O -0.0538(6) 0.5955(3) 0.63489(16)
H39 H -0.0334 0.5725 0.6201
H40 H -0.1426 0.5937 0.6349
O6 O 0.5091(5) 1.0137(2) 0.58350(14)
H41 H 0.5455 0.9876 0.5925
H42 H 0.4238 1.0164 0.5774
O8 O 0.2787(5) 0.5113(2) 0.61660(15)
H43 H 0.2578 0.5410 0.6107
H44 H 0.2477 0.4847 0.6262
O9 O 0.9382(6) 1.0056(3) 0.59217(16)
H45 H 1.0230 1.0085 0.5987
H46 H 0.9067 0.9783 0.6005
O10 O 0.6359(7) 0.5815(3) 0.64676(19)
H47 H 0.6147 0.5594 0.6313
H48 H 0.6138 0.6099 0.6384
O11 O 0.0753(6) 0.7555(3) 0.61506(18)
H49 H -0.0090 0.7488 0.6097
H50 H 0.1486 0.7387 0.6195
O12 O 0.3162(6) 0.9139(3) 0.64363(15)
H51 H 0.2628 0.8886 0.6422
H52 H 0.3942 0.9069 0.6339
O13 O -0.1440(6) 0.6851(3) 0.60062(17)
H53 H -0.2315 0.6852 0.6047
H54 H -0.0771 0.6664 0.6074
O14 O 1.0761(6) 0.8518(2) 0.65139(15)
H55 H 1.0758 0.8238 0.6407
H56 H 1.0097 0.8694 0.6430
Ag1 Ag 0.26608(6) 0.10430(3) 0.737245(18)
C20 C 0.0485(8) 0.0183(3) 0.7125(2)
H23 H 0.0753 0.0312 0.6881
C21 C -0.0488(8) -0.0241(4) 0.7146(2)
H24 H -0.0871 -0.0394 0.6919
C22 C -0.0903(7) -0.0443(3) 0.7500(2)
C23 C -0.0299(8) -0.0189(3) 0.7819(2)
H25 H -0.0547 -0.0309 0.8068
C24 C 0.0641(8) 0.0230(3) 0.7775(2)
H26 H 0.1016 0.0395 0.7998
C25 C -0.1885(8) -0.0906(3) 0.7537(2)
H27 H -0.2396 -0.0893 0.7787
H28 H -0.2653 -0.0894 0.7335
C26 C -0.0992(7) -0.1436(3) 0.75043(19)
H29 H -0.0219 -0.1445 0.7705
H30 H -0.0485 -0.1448 0.7254
C27 C -0.1983(8) -0.1921(3) 0.7544(2)
H31 H -0.2759 -0.1916 0.7345
H32 H -0.2481 -0.1916 0.7796
C28 C 0.0420(8) -0.3015(3) 0.7126(2)
H33 H 0.0805 -0.3105 0.6882
C29 C -0.0479(8) -0.2583(3) 0.71563(19)
H34 H -0.0720 -0.2388 0.6933
C30 C -0.1061(7) -0.2416(3) 0.75070(19)
C31 C -0.0695(7) -0.2737(3) 0.78146(19)
H35 H -0.1076 -0.2657 0.8060
C32 C 0.0234(7) -0.3180(4) 0.7766(2)
H36 H 0.0477 -0.3387 0.7983
N1 N 0.1075(6) 0.0424(3) 0.74348(16)
N2 N 0.0788(6) -0.3322(3) 0.74295(15)
O1 O 0.2659(5) 0.1014(2) 0.66153(14)
H37 H 0.2344 0.1284 0.6528
H38 H 0.3498 0.0977 0.6544
Ag1G Ag 0.23392(6) 0.60430(3) 0.737245(18)
Ag1G_2 Ag 0.23392(6) -0.39570(3) 0.737245(18)
C20G C 0.4515(8) 0.5183(3) 0.7125(2)
H23G H 0.4247 0.5312 0.6881
C21G C 0.5488(8) 0.4759(4) 0.7146(2)
H24G H 0.5871 0.4606 0.6919
C22G C 0.5903(7) 0.4557(3) 0.7500(2)
C23G C 0.5299(8) 0.4811(3) 0.7819(2)
H25G H 0.5547 0.4691 0.8068
C24G C 0.4359(8) 0.5230(3) 0.7775(2)
H26G H 0.3984 0.5395 0.7998
C25G C 0.6885(8) 0.4094(3) 0.7537(2)
H27G H 0.7396 0.4107 0.7787
H28G H 0.7653 0.4106 0.7335
C26G C 0.5992(7) 0.3564(3) 0.75043(19)
H29G H 0.5219 0.3555 0.7705
H30G H 0.5485 0.3552 0.7254
C27G C 0.6983(8) 0.3079(3) 0.7544(2)
H31G H 0.7759 0.3084 0.7345
H32G H 0.7481 0.3084 0.7796
C28G C 0.4580(8) 0.1985(3) 0.7126(2)
H33G H 0.4195 0.1895 0.6882
C29G C 0.5479(8) 0.2417(3) 0.71563(19)
H34G H 0.5720 0.2612 0.6933
C30G C 0.6061(7) 0.2584(3) 0.75070(19)
C31G C 0.5695(7) 0.2263(3) 0.78146(19)
H35G H 0.6076 0.2343 0.8060
C32G C 0.4766(7) 0.1820(4) 0.7766(2)
H36G H 0.4523 0.1613 0.7983
N1G N 0.3925(6) 0.5424(3) 0.74348(16)
N2G N 0.4212(6) 0.1678(3) 0.74295(15)
N2_2 N 0.0788(6) 0.6678(3) 0.74295(15)
O1G O 0.2341(5) 0.6014(2) 0.66153(14)
H37G H 0.2656 0.6284 0.6528
H38G H 0.1502 0.5977 0.6544
loop_
_geom_bond_atom_site_label_1
_geom_bond_atom_site_label_2
_geom_bond_site_symmetry_1
_geom_bond_site_symmetry_2
Ag1 N1 1_555 1_555
Ag2 N4 1_555 1_555
Ag3 N3 1_555 1_555
C1 C2 1_555 1_555
C2 H1 1_555 1_555
H2 C2 1_555 1_555
C3 C2 1_555 1_555
H3 C3 1_555 1_555
H4 C3 1_555 1_555
C4 C3 1_555 1_555
H5 C4 1_555 1_555
H6 C4 1_555 1_555
C5 C4 1_555 1_555
H7 C5 1_555 1_555
H8 C5 1_555 1_555
C6 C5 1_555 1_555
C7 H9 1_555 1_555
C8 C7 1_555 1_555
H10 C8 1_555 1_555
C9 C8 1_555 1_555
C10 C9 1_555 1_555
H11 C10 1_555 1_555
C11 C10 1_555 1_555
H12 C11 1_555 1_555
C12 C9 1_555 1_555
H13 C12 1_555 1_555
H14 C12 1_555 1_555
C13 C12 1_555 1_555
H15 C13 1_555 1_555
H16 C13 1_555 1_555
C14 C13 1_555 1_555
H17 C14 1_555 1_555
H18 C14 1_555 1_555
C15 H19 1_555 1_555
C16 C15 1_555 1_555
H20 C16 1_555 1_555
C17 C14 1_555 1_555
C18 C17 1_555 1_555
H21 C18 1_555 1_555
C19 C18 1_555 1_555
H22 C19 1_555 1_555
C20 H23 1_555 1_555
C21 C20 1_555 1_555
H24 C21 1_555 1_555
C22 C21 1_555 1_555
C23 C22 1_555 1_555
H25 C23 1_555 1_555
C24 C23 1_555 1_555
H26 C24 1_555 1_555
C25 C22 1_555 1_555
H27 C25 1_555 1_555
H28 C25 1_555 1_555
C26 C25 1_555 1_555
H29 C26 1_555 1_555
H30 C26 1_555 1_555
C27 C26 1_555 1_555
H31 C27 1_555 1_555
H32 C27 1_555 1_555
C28 H33 1_555 1_555
C29 C28 1_555 1_555
H34 C29 1_555 1_555
C30 C27 1_555 1_555
C31 C30 1_555 1_555
H35 C31 1_555 1_555
C32 C31 1_555 1_555
H36 C32 1_555 1_555
N1 C20 1_555 1_555
N2 C28 1_555 1_555
N3 C7 1_555 1_555
N4 C15 1_555 1_555
O1 Ag1 1_555 1_555
H37 O1 1_555 1_555
H38 O1 1_555 1_555
O2 C1 1_555 1_555
O3 C1 1_555 1_555
O4 H39 1_555 1_555
H40 O4 1_555 1_555
O5 C6 1_555 1_555
O6 H41 1_555 1_555
H42 O6 1_555 1_555
O7 C6 1_555 1_555
O8 H43 1_555 1_555
H44 O8 1_555 1_555
O9 H45 1_555 1_555
H46 O9 1_555 1_555
O10 H47 1_555 1_555
H48 O10 1_555 1_555
O11 H49 1_555 1_555
H50 O11 1_555 1_555
O12 H51 1_555 1_555
H52 O12 1_555 1_555
O13 H53 1_555 1_555
H54 O13 1_555 1_555
O14 H55 1_555 1_555
H56 O14 1_555 1_555
Ag1G N1G 1_555 1_555
Ag1G_2 N2 1_555 1_555
Ag3D Ag3_2 1_555 1_555
Ag3D_2 Ag3 1_555 1_555
Ag3_2 N3D 1_555 1_555
C7D H9D 1_555 1_555
C8D C7D 1_555 1_555
H10D C8D 1_555 1_555
C9D C8D 1_555 1_555
C10D C9D 1_555 1_555
H11D C10D 1_555 1_555
C11D C10D 1_555 1_555
H12D C11D 1_555 1_555
C12D C9D 1_555 1_555
H13D C12D 1_555 1_555
H14D C12D 1_555 1_555
C13D C12D 1_555 1_555
H15D C13D 1_555 1_555
H16D C13D 1_555 1_555
C14D C13D 1_555 1_555
H17D C14D 1_555 1_555
H18D C14D 1_555 1_555
C15D H19D 1_555 1_555
C16D C15D 1_555 1_555
H20D C16D 1_555 1_555
C17D C14D 1_555 1_555
C18D C17D 1_555 1_555
H21D C18D 1_555 1_555
C19D C18D 1_555 1_555
H22D C19D 1_555 1_555
C20G H23G 1_555 1_555
C21G C20G 1_555 1_555
H24G C21G 1_555 1_555
C22G C21G 1_555 1_555
C23G C22G 1_555 1_555
H25G C23G 1_555 1_555
C24G C23G 1_555 1_555
H26G C24G 1_555 1_555
C25G C22G 1_555 1_555
H27G C25G 1_555 1_555
H28G C25G 1_555 1_555
C26G C25G 1_555 1_555
H29G C26G 1_555 1_555
H30G C26G 1_555 1_555
C27G C26G 1_555 1_555
H31G C27G 1_555 1_555
H32G C27G 1_555 1_555
C28G H33G 1_555 1_555
C29G C28G 1_555 1_555
H34G C29G 1_555 1_555
C30G C27G 1_555 1_555
C31G C30G 1_555 1_555
H35G C31G 1_555 1_555
C32G C31G 1_555 1_555
H36G C32G 1_555 1_555
N1G C20G 1_555 1_555
N2G Ag1 1_555 1_555
N2_2 Ag1G 1_555 1_555
N3D Ag3D 1_555 1_555
N3D_2 Ag3 1_555 1_555
N3_2 Ag3D 1_555 1_555
N4D Ag2 1_555 1_555
O1G Ag1G 1_555 1_555
H37G O1G 1_555 1_555
H38G O1G 1_555 1_555
C11 N3 1_555 1_555
C16 C17 1_555 1_555
C19 N4 1_555 1_555
C24 N1 1_555 1_555
C29 C30 1_555 1_555
C32 N2 1_555 1_555
N3 Ag3D_2 1_555 1_555
Ag3D_2 N3D_2 1_555 1_555
Ag3_2 N3_2 1_555 1_555
C7D N3D 1_555 1_555
C11D N3D 1_555 1_555
C15D N4D 1_555 1_555
C16D C17D 1_555 1_555
C19D N4D 1_555 1_555
C24G N1G 1_555 1_555
C28G N2G 1_555 1_555
C29G C30G 1_555 1_555
C32G N2G 1_555 1_555

#END
