
#######################################################################
#
#                 Cambridge Crystallographic Data Centre
#                                CCDC 
#
#######################################################################
#
# If this CIF has been generated from an entry in the Cambridge 
# Structural Database, then it will include bibliographic, chemical, 
# crystal, experimental, refinement or atomic coordinate data resulting 
# from the CCDC's data processing and validation procedures.
#
#######################################################################

data_VEGXOV
_symmetry_cell_setting           monoclinic
_symmetry_space_group_name_H-M   'P 21/c'
_symmetry_Int_Tables_number      14
_space_group_name_Hall           '-P 2ybc'
loop_
_symmetry_equiv_pos_site_id
_symmetry_equiv_pos_as_xyz
1 x,y,z
2 -x,1/2+y,1/2-z
3 -x,-y,-z
4 x,1/2-y,1/2+z
_cell_length_a                   8.1122(4)
_cell_length_b                   23.7777(13)
_cell_length_c                   11.6477(7)
_cell_angle_alpha                90
_cell_angle_beta                 91.934(3)
_cell_angle_gamma                90
_cell_volume                     2245.44
loop_
_atom_site_label
_atom_site_type_symbol
_atom_site_fract_x
_atom_site_fract_y
_atom_site_fract_z
Hg1 Hg 0.259041(19) 0.496910(6) 0.551184(13)
P1 P 0.55049(14) 0.40529(4) 0.61107(9)
P2 P 0.03500(14) 0.42700(4) 0.34741(9)
O1 O 0.4074(4) 0.43701(11) 0.6603(2)
O2 O 0.6195(4) 0.42743(11) 0.5003(2)
O3 O 0.1041(4) 0.43342(11) 0.4704(2)
O4 O -0.1079(4) 0.46444(11) 0.3108(2)
C1 C 0.4890(5) 0.33368(15) 0.5831(3)
C2 C 0.5496(6) 0.30393(18) 0.4904(4)
H1 H 0.6238 0.3216 0.4404
C3 C 0.5023(6) 0.24892(19) 0.4708(4)
H2 H 0.542 0.2293 0.4062
C4 C 0.3984(6) 0.22237(18) 0.5437(4)
H3 H 0.3693 0.1841 0.5311
C5 C 0.3361(6) 0.25115(18) 0.6355(4)
H4 H 0.2622 0.2331 0.6852
C6 C 0.3816(6) 0.30658(17) 0.6547(4)
H5 H 0.3387 0.3263 0.718
C7 C 0.7122(5) 0.40269(15) 0.7207(3)
C8 C 0.6699(6) 0.39514(17) 0.8349(3)
H6 H 0.5573 0.3936 0.8546
C9 C 0.7927(7) 0.3900(2) 0.9189(4)
H7 H 0.7643 0.3834 0.9962
C10 C 0.9570(6) 0.39420(18) 0.8916(4)
H8 H 1.0404 0.3914 0.9506
C11 C 1.0005(6) 0.40255(17) 0.7790(4)
H9 H 1.1131 0.4059 0.7601
C12 C 0.8763(6) 0.40595(16) 0.6940(4)
H10 H 0.905 0.4106 0.6162
C13 C -0.0258(5) 0.35470(15) 0.3312(3)
C14 C 0.0290(6) 0.31337(17) 0.4084(4)
H11 H 0.0987 0.3231 0.4726
C15 C -0.0192(7) 0.25798(19) 0.3906(4)
H12 H 0.0154 0.2299 0.4442
C16 C -0.1173(6) 0.24318(18) 0.2956(4)
H13 H -0.1493 0.2051 0.2842
C17 C -0.1681(6) 0.28362(18) 0.2180(4)
H14 H -0.233 0.2735 0.1519
C18 C -0.1244(6) 0.33926(17) 0.2366(4)
H15 H -0.1623 0.3673 0.1839
C19 C 0.1980(5) 0.43719(15) 0.2489(3)
C20 C 0.3584(6) 0.42203(19) 0.2809(4)
H16 H 0.3825 0.408 0.356
C21 C 0.4838(6) 0.4273(2) 0.2031(4)
H17 H 0.5941 0.4178 0.2253
C22 C 0.4468(6) 0.44648(19) 0.0934(4)
H18 H 0.5318 0.4497 0.0397
C23 C 0.2865(6) 0.46103(19) 0.0612(4)
H19 H 0.2624 0.474 -0.0146
C24 C 0.1610(5) 0.45681(16) 0.1387(3)
H20 H 0.0513 0.4672 0.1167
Hg1B Hg 0.740959(19) 0.503090(6) 0.448816(13)
Hg1B_2 Hg -0.259041(19) 0.503090(6) 0.448816(13)
O2B O 0.3805(4) 0.57257(11) 0.4997(2)
O4B O 0.1079(4) 0.53556(11) 0.6892(2)
loop_
_geom_bond_atom_site_label_1
_geom_bond_atom_site_label_2
_geom_bond_site_symmetry_1
_geom_bond_site_symmetry_2
Hg1 O1 1_555 1_555
P1 O1 1_555 1_555
P2 O3 1_555 1_555
O2 P1 1_555 1_555
O3 Hg1 1_555 1_555
O4 P2 1_555 1_555
C1 P1 1_555 1_555
C2 C1 1_555 1_555
H1 C2 1_555 1_555
C3 C2 1_555 1_555
H2 C3 1_555 1_555
C4 C3 1_555 1_555
H3 C4 1_555 1_555
C5 C4 1_555 1_555
H4 C5 1_555 1_555
C6 C1 1_555 1_555
H5 C6 1_555 1_555
C7 P1 1_555 1_555
C8 C7 1_555 1_555
H6 C8 1_555 1_555
C9 C8 1_555 1_555
H7 C9 1_555 1_555
C10 C9 1_555 1_555
H8 C10 1_555 1_555
C11 C10 1_555 1_555
H9 C11 1_555 1_555
C12 C7 1_555 1_555
H10 C12 1_555 1_555
C13 P2 1_555 1_555
C14 C13 1_555 1_555
H11 C14 1_555 1_555
C15 C14 1_555 1_555
H12 C15 1_555 1_555
C16 C15 1_555 1_555
H13 C16 1_555 1_555
C17 C16 1_555 1_555
H14 C17 1_555 1_555
C18 C13 1_555 1_555
H15 C18 1_555 1_555
C19 P2 1_555 1_555
C20 C19 1_555 1_555
H16 C20 1_555 1_555
C21 C20 1_555 1_555
H17 C21 1_555 1_555
C22 C21 1_555 1_555
H18 C22 1_555 1_555
C23 C22 1_555 1_555
H19 C23 1_555 1_555
C24 C19 1_555 1_555
H20 C24 1_555 1_555
Hg1B O2 1_555 1_555
Hg1B_2 O4 1_555 1_555
O2B Hg1 1_555 1_555
O4B Hg1 1_555 1_555
C5 C6 1_555 1_555
C11 C12 1_555 1_555
C17 C18 1_555 1_555
C23 C24 1_555 1_555

#END
