
#######################################################################
#
#                 Cambridge Crystallographic Data Centre
#                                CCDC 
#
#######################################################################
#
# If this CIF has been generated from an entry in the Cambridge 
# Structural Database, then it will include bibliographic, chemical, 
# crystal, experimental, refinement or atomic coordinate data resulting 
# from the CCDC's data processing and validation procedures.
#
#######################################################################

data_VEGYUD
_symmetry_cell_setting           monoclinic
_symmetry_space_group_name_H-M   'P 21/c'
_symmetry_Int_Tables_number      14
_space_group_name_Hall           '-P 2ybc'
loop_
_symmetry_equiv_pos_site_id
_symmetry_equiv_pos_as_xyz
1 x,y,z
2 -x,1/2+y,1/2-z
3 -x,-y,-z
4 x,1/2-y,1/2+z
_cell_length_a                   10.7477(2)
_cell_length_b                   36.4644(7)
_cell_length_c                   15.9903(3)
_cell_angle_alpha                90
_cell_angle_beta                 93.9960(10)
_cell_angle_gamma                90
_cell_volume                     6251.5
loop_
_atom_site_label
_atom_site_type_symbol
_atom_site_fract_x
_atom_site_fract_y
_atom_site_fract_z
Cd1 Cd 0.32105(4) 0.711883(11) 0.91714(2)
Cd2 Cd -0.38819(3) 0.523240(11) 0.57808(2)
N1 N 0.4453(4) 0.69705(13) 0.8086(3)
N2 N 0.6761(4) 0.67375(15) 0.6150(3)
H1 H 0.6825 0.6510 0.6020
N3 N 0.9964(4) 0.74872(14) 0.2340(3)
H2 H 1.0289 0.7663 0.2641
N4 N 1.2034(4) 0.71996(13) 0.0309(3)
N5 N -0.5120(4) 0.53561(13) 0.6855(3)
N6 N -0.6913(5) 0.57084(14) 0.8957(3)
H3 H -0.7372 0.5899 0.8861
N7 N -1.0186(5) 0.49856(15) 1.2781(3)
H4 H -0.9560 0.4848 1.2930
N8 N -1.2631(4) 0.51566(13) 1.4678(3)
O1 O 0.7485(4) 0.73026(14) 0.5876(3)
O2 O 0.8340(4) 0.70866(14) 0.2255(3)
O3 O -0.6245(4) 0.53142(14) 0.9992(3)
O4 O -1.1020(5) 0.53294(16) 1.1703(3)
O5 O 0.1396(4) 0.69643(11) 0.8332(2)
O6 O 0.2284(3) 0.64647(11) 0.8879(2)
O7 O -0.3043(4) 0.58779(11) 0.6041(2)
O8 O -0.2086(4) 0.53902(11) 0.6618(3)
O9 O 0.2764(4) 0.76874(11) 0.8529(3)
O10 O 0.4232(4) 0.76949(11) 0.9550(3)
O11 O 0.3578(4) 0.96645(12) 0.8655(3)
O12 O 0.4580(4) 0.95575(11) 0.9869(3)
O13 O 0.4639(5) 0.68253(16) 1.0066(3)
H5 H 0.5447 0.6878 1.0108
H6 H 0.4590 0.6581 1.0140
C1 C 0.4857(6) 0.66324(17) 0.7945(4)
H7 H 0.4618 0.6444 0.8291
C2 C 0.5610(6) 0.65481(16) 0.7314(4)
H8 H 0.5868 0.6308 0.7238
C3 C 0.5986(5) 0.68239(17) 0.6789(3)
C4 C 0.5561(6) 0.71733(19) 0.6931(4)
H9 H 0.5786 0.7367 0.6595
C5 C 0.4800(6) 0.72323(19) 0.7573(5)
H10 H 0.4511 0.7469 0.7654
C6 C 0.7428(6) 0.6983(2) 0.5713(4)
C7 C 0.8089(8) 0.6805(2) 0.5007(5)
H11 H 0.7496 0.6657 0.4671
H12 H 0.8736 0.6643 0.5247
C8 C 0.8675(6) 0.7085(2) 0.4441(4)
H13 H 0.9179 0.7255 0.4788
H14 H 0.9223 0.6958 0.4081
C9 C 0.7723(6) 0.7299(2) 0.3904(4)
H15 H 0.7211 0.7441 0.4262
H16 H 0.7182 0.7130 0.3582
C10 C 0.8346(7) 0.7559(2) 0.3301(4)
H17 H 0.7742 0.7738 0.3081
H18 H 0.9021 0.7690 0.3605
C11 C 0.8858(6) 0.73488(19) 0.2577(4)
C12 C 1.0624(5) 0.73740(16) 0.1660(3)
C13 C 1.0188(6) 0.7131(2) 0.1044(4)
H19 H 0.9409 0.7022 0.1067
C14 C 1.0920(6) 0.7053(2) 0.0396(4)
H20 H 1.0614 0.6887 -0.0009
C15 C 1.2469(6) 0.74241(18) 0.0918(4)
H21 H 1.3260 0.7524 0.0886
C16 C 1.1809(6) 0.75149(18) 0.1590(4)
H22 H 1.2157 0.7672 0.2001
C17 C -0.4907(5) 0.51898(16) 0.7598(4)
H23 H -0.4349 0.4995 0.7626
C18 C -0.5449(6) 0.52848(16) 0.8326(4)
H24 H -0.5254 0.5160 0.8826
C19 C -0.6306(5) 0.55767(16) 0.8282(4)
C20 C -0.6557(5) 0.57436(17) 0.7506(4)
H25 H -0.7131 0.5934 0.7449
C21 C -0.5956(5) 0.56273(16) 0.6825(4)
H26 H -0.6142 0.5744 0.6314
C22 C -0.6874(6) 0.55719(19) 0.9764(4)
C23 C -0.7715(7) 0.5778(2) 1.0334(4)
H27 H -0.7277 0.5992 1.0564
H28 H -0.8455 0.5862 1.0007
C24 C -0.8093(6) 0.5537(2) 1.1040(4)
H29 H -0.8537 0.5685 1.1426
H30 H -0.7348 0.5443 1.1343
C25 C -0.8910(6) 0.5218(2) 1.0750(4)
H31 H -0.8487 0.5079 1.0337
H32 H -0.9678 0.5313 1.0477
C26 C -0.9229(6) 0.4962(2) 1.1455(4)
H33 H -0.9512 0.4730 1.1217
H34 H -0.8482 0.4916 1.1816
C27 C -1.0233(6) 0.5118(2) 1.1977(4)
C28 C -1.1043(5) 0.50494(17) 1.3387(4)
C29 C -1.0927(6) 0.48499(19) 1.4111(4)
H35 H -1.0303 0.4674 1.4186
C30 C -1.1732(6) 0.49094(19) 1.4728(4)
H36 H -1.1638 0.4766 1.5210
C31 C -1.2754(6) 0.5345(2) 1.3964(4)
H37 H -1.3394 0.5517 1.3903
C32 C -1.1995(6) 0.5303(2) 1.3309(4)
H38 H -1.2124 0.5442 1.2824
C33 C 0.1465(5) 0.66183(16) 0.8409(3)
C34 C 0.0533(5) 0.63904(15) 0.7914(3)
C35 C -0.0418(6) 0.62269(17) 0.8299(4)
H39 H -0.0476 0.6256 0.8873
C36 C -0.1306(6) 0.60158(18) 0.7833(4)
H40 H -0.1944 0.5905 0.8105
C37 C -0.1258(5) 0.59686(16) 0.6995(4)
C38 C -0.2203(5) 0.57317(17) 0.6514(3)
C39 C -0.0263(5) 0.61276(16) 0.6575(3)
C40 C -0.0129(5) 0.60726(17) 0.5706(4)
H41 H -0.0718 0.5933 0.5395
C41 C 0.0844(5) 0.62201(19) 0.5317(4)
H42 H 0.0926 0.6177 0.4751
C42 C 0.1718(6) 0.64366(19) 0.5780(4)
H43 H 0.2375 0.6540 0.5513
C43 C 0.1625(5) 0.64988(17) 0.6617(4)
H44 H 0.2218 0.6643 0.6913
C44 C 0.0630(5) 0.63451(15) 0.7036(3)
C45 C 0.3509(5) 0.78635(15) 0.9026(3)
C46 C 0.3539(5) 0.82715(15) 0.9015(3)
C47 C 0.4540(5) 0.84349(15) 0.9454(3)
H45 H 0.5151 0.8287 0.9720
C48 C 0.4663(5) 0.88148(16) 0.9510(4)
H46 H 0.5348 0.8916 0.9814
C49 C 0.3781(5) 0.90415(15) 0.9118(3)
C50 C 0.4002(5) 0.94513(15) 0.9231(4)
C51 C 0.2719(5) 0.88912(15) 0.8656(3)
C52 C 0.1744(5) 0.91111(17) 0.8285(4)
H47 H 0.1816 0.9365 0.8308
C53 C 0.0696(6) 0.89561(19) 0.7892(4)
H48 H 0.0066 0.9106 0.7653
C54 C 0.0570(6) 0.85766(19) 0.7848(4)
H49 H -0.0146 0.8474 0.7583
C55 C 0.1486(5) 0.83543(18) 0.8189(4)
H50 H 0.1393 0.8101 0.8145
C56 C 0.2590(5) 0.85016(15) 0.8614(3)
Cd1_2 Cd 1.32105(4) 0.711883(11) -0.08286(2)
Cd2_2 Cd -1.38819(3) 0.523240(11) 1.57808(2)
Cd2A Cd 0.38819(3) 1.023240(11) 0.92192(2)
Cd2C Cd 0.61181(3) 0.976760(11) 1.07808(2)
N4_2 N 0.2034(4) 0.71996(13) 1.0309(3)
N8_2 N -0.2631(4) 0.51566(13) 0.4678(3)
O11A O -0.3578(4) 0.46645(12) 0.6345(3)
O12C O -0.5420(4) 0.54425(11) 0.4869(3)
N9 N 0.7196(8) 0.5885(3) 0.0062(6)
O14 O 0.8563(9) 0.6345(3) 0.0378(6)
C57 C 0.8179(12) 0.6042(3) 0.0492(8)
H51 H 0.8595 0.5903 0.0912
C58 C 0.6360(10) 0.6095(3) -0.0525(7)
C59 C 0.6869(12) 0.5514(4) 0.0173(8)
N10 N 0.5828(9) 0.6215(3) 0.2211(5)
C60 C 0.6987(9) 0.6258(3) 0.2732(7)
C61 C 0.5451(13) 0.5840(3) 0.2010(10)
C62 C 0.5122(11) 0.6513(3) 0.1922(7)
O15 O 0.5463(16) 0.6822(3) 0.2105(11)
O16 O 0.7054(9) 0.6979(3) 0.0197(8)
H52 H 0.7403 0.7126 0.0553
H53 H 0.7368 0.6766 0.0268
O17? O 0.4162(13) 0.6466(6) 0.1490(10)
loop_
_geom_bond_atom_site_label_1
_geom_bond_atom_site_label_2
_geom_bond_site_symmetry_1
_geom_bond_site_symmetry_2
Cd1 N1 1_555 1_555
Cd2 N5 1_555 1_555
N1 C1 1_555 1_555
N2 H1 1_555 1_555
N3 H2 1_555 1_555
N4 C14 1_555 1_555
N5 C17 1_555 1_555
N6 H3 1_555 1_555
N7 H4 1_555 1_555
N8 C30 1_555 1_555
O1 C6 1_555 1_555
O2 C11 1_555 1_555
O3 C22 1_555 1_555
O4 C27 1_555 1_555
O5 Cd1 1_555 1_555
O6 Cd1 1_555 1_555
O7 Cd2 1_555 1_555
O8 Cd2 1_555 1_555
O9 Cd1 1_555 1_555
O10 Cd1 1_555 1_555
O11 C50 1_555 1_555
O12 C50 1_555 1_555
O13 Cd1 1_555 1_555
H5 O13 1_555 1_555
H6 O13 1_555 1_555
C1 H7 1_555 1_555
C2 C1 1_555 1_555
H8 C2 1_555 1_555
C3 N2 1_555 1_555
C4 C3 1_555 1_555
H9 C4 1_555 1_555
C5 N1 1_555 1_555
H10 C5 1_555 1_555
C6 N2 1_555 1_555
C7 C6 1_555 1_555
H11 C7 1_555 1_555
H12 C7 1_555 1_555
C8 C7 1_555 1_555
H13 C8 1_555 1_555
H14 C8 1_555 1_555
C9 C8 1_555 1_555
H15 C9 1_555 1_555
H16 C9 1_555 1_555
C10 C9 1_555 1_555
H17 C10 1_555 1_555
H18 C10 1_555 1_555
C11 N3 1_555 1_555
C12 N3 1_555 1_555
C13 C12 1_555 1_555
H19 C13 1_555 1_555
C14 C13 1_555 1_555
H20 C14 1_555 1_555
C15 N4 1_555 1_555
H21 C15 1_555 1_555
C16 C12 1_555 1_555
H22 C16 1_555 1_555
C17 H23 1_555 1_555
C18 C17 1_555 1_555
H24 C18 1_555 1_555
C19 N6 1_555 1_555
C20 C19 1_555 1_555
H25 C20 1_555 1_555
C21 N5 1_555 1_555
H26 C21 1_555 1_555
C22 N6 1_555 1_555
C23 C22 1_555 1_555
H27 C23 1_555 1_555
H28 C23 1_555 1_555
C24 C23 1_555 1_555
H29 C24 1_555 1_555
H30 C24 1_555 1_555
C25 C24 1_555 1_555
H31 C25 1_555 1_555
H32 C25 1_555 1_555
C26 C25 1_555 1_555
H33 C26 1_555 1_555
H34 C26 1_555 1_555
C27 N7 1_555 1_555
C28 N7 1_555 1_555
C29 C28 1_555 1_555
H35 C29 1_555 1_555
C30 C29 1_555 1_555
H36 C30 1_555 1_555
C31 N8 1_555 1_555
H37 C31 1_555 1_555
C32 C28 1_555 1_555
H38 C32 1_555 1_555
C33 O5 1_555 1_555
C34 C33 1_555 1_555
C35 C34 1_555 1_555
H39 C35 1_555 1_555
C36 C35 1_555 1_555
H40 C36 1_555 1_555
C37 C36 1_555 1_555
C38 O7 1_555 1_555
C39 C37 1_555 1_555
C40 C39 1_555 1_555
H41 C40 1_555 1_555
C41 C40 1_555 1_555
H42 C41 1_555 1_555
C42 C41 1_555 1_555
H43 C42 1_555 1_555
C43 C42 1_555 1_555
H44 C43 1_555 1_555
C44 C34 1_555 1_555
C45 O9 1_555 1_555
C46 C45 1_555 1_555
C47 C46 1_555 1_555
H45 C47 1_555 1_555
C48 C47 1_555 1_555
H46 C48 1_555 1_555
C49 C48 1_555 1_555
C50 C49 1_555 1_555
C51 C49 1_555 1_555
C52 C51 1_555 1_555
H47 C52 1_555 1_555
C53 C52 1_555 1_555
H48 C53 1_555 1_555
C54 C53 1_555 1_555
H49 C54 1_555 1_555
C55 C54 1_555 1_555
H50 C55 1_555 1_555
C56 C46 1_555 1_555
N9 C57 1_555 1_555
O14 C57 1_555 1_555
C57 H51 1_555 1_555
C58 N9 1_555 1_555
C59 N9 1_555 1_555
N10 C60 1_555 1_555
C61 N10 1_555 1_555
C62 N10 1_555 1_555
O15 C62 1_555 1_555
O16 H52 1_555 1_555
H53 O16 1_555 1_555
Cd1_2 N4 1_555 1_555
Cd2_2 N8 1_555 1_555
Cd2A O11 1_555 1_555
Cd2C O12 1_555 1_555
N4_2 Cd1 1_555 1_555
N8_2 Cd2 1_555 1_555
O11A Cd2 1_555 1_555
O12C Cd2 1_555 1_555
O6 C33 1_555 1_555
O8 C38 1_555 1_555
O10 C45 1_555 1_555
C2 C3 1_555 1_555
C4 C5 1_555 1_555
C10 C11 1_555 1_555
C15 C16 1_555 1_555
C18 C19 1_555 1_555
C20 C21 1_555 1_555
C26 C27 1_555 1_555
C31 C32 1_555 1_555
C37 C38 1_555 1_555
C39 C44 1_555 1_555
C43 C44 1_555 1_555
C51 C56 1_555 1_555
C55 C56 1_555 1_555

#END
