
#######################################################################
#
#                 Cambridge Crystallographic Data Centre
#                                CCDC 
#
#######################################################################
#
# If this CIF has been generated from an entry in the Cambridge 
# Structural Database, then it will include bibliographic, chemical, 
# crystal, experimental, refinement or atomic coordinate data resulting 
# from the CCDC's data processing and validation procedures.
#
#######################################################################

data_VEGYAI
_symmetry_cell_setting           monoclinic
_symmetry_space_group_name_H-M   'P 21'
_symmetry_Int_Tables_number      4
_space_group_name_Hall           'P 2yb'
loop_
_symmetry_equiv_pos_site_id
_symmetry_equiv_pos_as_xyz
1 x,y,z
2 -x,1/2+y,-z
_cell_length_a                   7.2584(12)
_cell_length_b                   10.5946(17)
_cell_length_c                   9.1061(15)
_cell_angle_alpha                90
_cell_angle_beta                 93.986(3)
_cell_angle_gamma                90
_cell_volume                     698.564
loop_
_atom_site_label
_atom_site_type_symbol
_atom_site_fract_x
_atom_site_fract_y
_atom_site_fract_z
In1 In 0.67254(3) 0.79855(2) 0.74362(3)
In2 In 0.47839(3) 0.98834(2) 1.26910(3)
O1 O 0.7258(4) 1.0028(3) 0.7098(3)
H1 H 0.8107 1.0143 0.6515
H2 H 0.7539 1.0405 0.7907
O2 O 0.7537(4) 1.0756(3) 1.3296(4)
H3 H 0.8372 1.0194 1.3405
H4 H 0.7512 1.1180 1.4086
O3 O 0.6275(4) 0.8922(2) 0.9657(3)
O4 O 0.6641(4) 0.8454(3) 1.2055(3)
O5 O 0.9024(4) 0.7408(3) 0.9029(3)
H5 H 0.9704 0.8055 0.9171
O6 O 0.5644(4) 0.6364(2) 0.8873(3)
O7 O 0.7401(4) 0.4131(3) 0.8774(3)
O8 O 0.9109(4) 0.4487(3) 1.0847(3)
O9 O 0.8923(4) 0.7968(3) 0.5962(3)
O10 O 1.0143(4) 0.7070(3) 0.4058(4)
O11 O 0.6183(4) 0.6366(2) 0.6007(3)
O12 O 0.8944(4) 0.4590(3) 0.6069(3)
H6 H 0.9300 0.3826 0.6068
O13 O 0.5317(4) 0.3748(3) 0.5379(3)
O14 O 0.6062(4) 0.3597(3) 0.3080(3)
C1 C 0.6959(5) 0.8291(3) 1.0718(5)
C2 C 0.8197(5) 0.7173(4) 1.0384(4)
H7 H 0.9126 0.7006 1.1194
C3 C 0.6883(5) 0.6048(4) 1.0101(4)
H8 H 0.6155 0.5957 1.0962
C4 C 0.7900(5) 0.4802(4) 0.9892(4)
C5 C 0.8917(5) 0.7149(3) 0.4944(4)
C6 C 0.7281(5) 0.6233(4) 0.4799(4)
H9 H 0.6525 0.6434 0.3895
C7 C 0.8007(5) 0.4886(4) 0.4684(4)
H10 H 0.8857 0.4828 0.3897
C8 C 0.6357(5) 0.3999(4) 0.4366(5)
In1A In 0.32746(3) 0.29855(2) 0.25638(3)
In2A In 0.52161(3) 0.48834(2) 0.73090(3)
O6A O 0.4356(4) 1.1364(2) 1.1127(3)
O7A O 0.2599(4) 0.9131(3) 1.1226(3)
O11A O 0.3817(4) 1.1366(2) 1.3993(3)
O13A O 0.4683(4) 0.8748(3) 1.4621(3)
O14A O 0.3938(4) 0.8597(3) 0.6920(3)
O15 O 0.7347(5) 0.1592(3) 0.9280(4)
H11 H 0.6478 0.1455 0.9840
H12 H 0.7324 0.2367 0.9040
loop_
_geom_bond_atom_site_label_1
_geom_bond_atom_site_label_2
_geom_bond_site_symmetry_1
_geom_bond_site_symmetry_2
In1 O1 1_555 1_555
In2 O2 1_555 1_555
O1 H1 1_555 1_555
H2 O1 1_555 1_555
O2 H3 1_555 1_555
H4 O2 1_555 1_555
O3 In1 1_555 1_555
O4 In2 1_555 1_555
O5 In1 1_555 1_555
H5 O5 1_555 1_555
O6 In1 1_555 1_555
O7 C4 1_555 1_555
O8 C4 1_555 1_555
O9 In1 1_555 1_555
O10 C5 1_555 1_555
O11 In1 1_555 1_555
O12 H6 1_555 1_555
O13 C8 1_555 1_555
O14 C8 1_555 1_555
C1 O3 1_555 1_555
C2 O5 1_555 1_555
H7 C2 1_555 1_555
C3 O6 1_555 1_555
H8 C3 1_555 1_555
C4 C3 1_555 1_555
C5 O9 1_555 1_555
C6 O11 1_555 1_555
H9 C6 1_555 1_555
C7 O12 1_555 1_555
H10 C7 1_555 1_555
C8 C7 1_555 1_555
O15 H11 1_555 1_555
H12 O15 1_555 1_555
In1A O14 1_555 1_555
In2A O6 1_555 1_555
O6A In2 1_555 1_555
O7A In2 1_555 1_555
O11A In2 1_555 1_555
O13A In2 1_555 1_555
O14A In1 1_555 1_555
O4 C1 1_555 1_555
O7 In2A 1_555 1_555
O11 In2A 1_555 1_555
O13 In2A 1_555 1_555
C1 C2 1_555 1_555
C2 C3 1_555 1_555
C5 C6 1_555 1_555
C6 C7 1_555 1_555

#END
