
#######################################################################
#
#                 Cambridge Crystallographic Data Centre
#                                CCDC 
#
#######################################################################
#
# If this CIF has been generated from an entry in the Cambridge 
# Structural Database, then it will include bibliographic, chemical, 
# crystal, experimental, refinement or atomic coordinate data resulting 
# from the CCDC's data processing and validation procedures.
#
#######################################################################

data_VEGZIR
_symmetry_cell_setting           monoclinic
_symmetry_space_group_name_H-M   'P 21/n'
_symmetry_Int_Tables_number      14
_space_group_name_Hall           '-P 2yn'
loop_
_symmetry_equiv_pos_site_id
_symmetry_equiv_pos_as_xyz
1 x,y,z
2 1/2-x,1/2+y,1/2-z
3 -x,-y,-z
4 1/2+x,1/2-y,1/2+z
_cell_length_a                   15.1376(4)
_cell_length_b                   8.3063(4)
_cell_length_c                   15.3944(6)
_cell_angle_alpha                90
_cell_angle_beta                 113.588(2)
_cell_angle_gamma                90
_cell_volume                     1773.92
loop_
_atom_site_label
_atom_site_type_symbol
_atom_site_fract_x
_atom_site_fract_y
_atom_site_fract_z
Zn1 Zn 0.5000 0.5000 0.5000
Zn2 Zn 0.5000 0.5000 0.0000
O1 O 0.56047(11) 0.3281(2) 0.43002(11)
O2 O 0.49810(12) 0.4090(2) 0.27851(12)
O3 O 0.66703(12) 0.4933(2) 0.22463(12)
O4 O 0.59947(11) 0.3193(2) 0.10598(11)
N1 N 0.60015(13) 0.4093(3) 0.62940(13)
H1 H 0.5836 0.4509 0.6769
N2 N 0.60911(13) 0.6680(2) 0.51140(14)
H2 H 0.6403 0.6326 0.4737
N3 N 0.60959(14) 0.6711(3) 0.03941(14)
H3 H 0.6591 0.6339 0.0943
N4 N 0.44454(13) 0.5776(3) 0.09858(14)
H4 H 0.4827 0.5332 0.1571
C1 C 0.69308(17) 0.4817(3) 0.64162(18)
H5 H 0.7210 0.4230 0.6026
H6 H 0.7387 0.4741 0.7088
C2 C 0.67745(16) 0.6571(3) 0.61147(17)
H7 H 0.6515 0.7165 0.6519
H8 H 0.7397 0.7068 0.6193
C3 C 0.60155(17) 0.2330(3) 0.63858(17)
H9 H 0.6477 0.2025 0.7029
H10 H 0.6243 0.1849 0.5924
C4 C 0.50218(17) 0.1649(3) 0.62156(17)
H11 H 0.4760 0.2259 0.6612
H12 H 0.5104 0.0518 0.6437
C5 C 0.57238(17) 0.8315(3) 0.48089(17)
H13 H 0.5427 0.8735 0.5231
H14 H 0.6269 0.9029 0.4869
C6 C 0.55383(16) 0.3247(3) 0.34514(16)
C7 C 0.61828(16) 0.2049(3) 0.32687(16)
H15 H 0.6349 0.1111 0.3654
C8 C 0.65422(16) 0.2189(3) 0.26114(16)
H16 H 0.6938 0.1332 0.2568
C9 C 0.63856(15) 0.3554(3) 0.19366(16)
C10 C 0.44397(18) 0.7534(3) 0.11069(18)
H17 H 0.4204 0.7781 0.1606
H18 H 0.3985 0.8023 0.0508
C11 C 0.54291(19) 0.8291(4) 0.13747(18)
H19 H 0.5894 0.7699 0.1927
H20 H 0.5402 0.9412 0.1581
C12 C 0.58220(19) 0.8324(3) 0.0605(2)
H21 H 0.5327 0.8783 0.0019
H22 H 0.6393 0.9037 0.0809
C13 C 0.64613(17) 0.6705(3) -0.03634(18)
H23 H 0.7109 0.7202 -0.0129
H24 H 0.6026 0.7338 -0.0912
C14 C 0.34860(18) 0.5024(3) 0.0664(2)
H25 H 0.3259 0.5042 0.1184
H26 H 0.3021 0.5639 0.0124
Zn2_2 Zn 0.5000 0.5000 1.0000
O1B O 0.43953(11) 0.6719(2) 0.56998(11)
O2B O 0.50190(12) 0.5910(2) 0.72149(12)
O3B O 0.33297(12) 0.5067(2) 0.77537(12)
O4B O 0.40053(11) 0.6807(2) 0.89402(11)
O4B_2 O 0.40053(11) 0.6807(2) -0.10598(11)
N1B N 0.39985(13) 0.5907(3) 0.37060(13)
H1B H 0.4164 0.5491 0.3231
N2B N 0.39089(13) 0.3320(2) 0.48860(14)
H2B H 0.3597 0.3674 0.5263
N3B N 0.39041(14) 0.3289(3) -0.03941(14)
H3B H 0.3409 0.3661 -0.0943
N4B N 0.55546(13) 0.4224(3) -0.09858(14)
H4B H 0.5173 0.4668 -0.1571
C1B C 0.30692(17) 0.5183(3) 0.35838(18)
H5B H 0.2790 0.5770 0.3974
H6B H 0.2613 0.5259 0.2912
C2B C 0.32255(16) 0.3429(3) 0.38853(17)
H7B H 0.3485 0.2835 0.3481
H8B H 0.2603 0.2932 0.3807
C3B C 0.39845(17) 0.7670(3) 0.36142(17)
H9B H 0.3523 0.7975 0.2971
H10B H 0.3757 0.8151 0.4076
C4B C 0.49782(17) 0.8351(3) 0.37844(17)
H11B H 0.5240 0.7741 0.3388
H12B H 0.4896 0.9482 0.3563
C5B C 0.42762(17) 0.1685(3) 0.51911(17)
H13B H 0.4573 0.1265 0.4769
H14B H 0.3731 0.0971 0.5131
C6B C 0.44617(16) 0.6753(3) 0.65486(16)
C7B C 0.38172(16) 0.7951(3) 0.67313(16)
H15B H 0.3651 0.8889 0.6346
C8B C 0.34578(16) 0.7811(3) 0.73886(16)
H16B H 0.3062 0.8668 0.7432
C9B C 0.36144(15) 0.6446(3) 0.80634(16)
C10B C 0.55603(18) 0.2466(3) -0.11069(18)
H17B H 0.5796 0.2219 -0.1606
H18B H 0.6015 0.1977 -0.0508
C11B C 0.45709(19) 0.1709(4) -0.13747(18)
H19B H 0.4106 0.2301 -0.1927
H20B H 0.4598 0.0588 -0.1581
C12B C 0.41780(19) 0.1676(3) -0.0605(2)
H21B H 0.4673 0.1217 -0.0019
H22B H 0.3607 0.0963 -0.0809
C13B C 0.35387(17) 0.3295(3) 0.03634(18)
H23B H 0.2891 0.2798 0.0129
H24B H 0.3974 0.2662 0.0912
C14B C 0.65140(18) 0.4976(3) -0.0664(2)
H25B H 0.6741 0.4958 -0.1184
H26B H 0.6979 0.4361 -0.0124
O5 O 0.72511(15) 0.6464(3) 0.39713(15)
H27 H 0.781(2) 0.690(4) 0.404(2)
H28 H 0.707(2) 0.583(5) 0.345(3)
loop_
_geom_bond_atom_site_label_1
_geom_bond_atom_site_label_2
_geom_bond_site_symmetry_1
_geom_bond_site_symmetry_2
Zn1 O1 1_555 1_555
Zn2 O4 1_555 1_555
O1 C6 1_555 1_555
O2 C6 1_555 1_555
O3 C9 1_555 1_555
O4 C9 1_555 1_555
N1 Zn1 1_555 1_555
H1 N1 1_555 1_555
N2 Zn1 1_555 1_555
H2 N2 1_555 1_555
N3 Zn2 1_555 1_555
H3 N3 1_555 1_555
N4 Zn2 1_555 1_555
H4 N4 1_555 1_555
C1 N1 1_555 1_555
H5 C1 1_555 1_555
H6 C1 1_555 1_555
C2 N2 1_555 1_555
H7 C2 1_555 1_555
H8 C2 1_555 1_555
C3 N1 1_555 1_555
H9 C3 1_555 1_555
H10 C3 1_555 1_555
C4 C3 1_555 1_555
H11 C4 1_555 1_555
H12 C4 1_555 1_555
C5 N2 1_555 1_555
H13 C5 1_555 1_555
H14 C5 1_555 1_555
C6 C7 1_555 1_555
C7 H15 1_555 1_555
C8 C7 1_555 1_555
H16 C8 1_555 1_555
C9 C8 1_555 1_555
C10 N4 1_555 1_555
H17 C10 1_555 1_555
H18 C10 1_555 1_555
C11 C10 1_555 1_555
H19 C11 1_555 1_555
H20 C11 1_555 1_555
C12 N3 1_555 1_555
H21 C12 1_555 1_555
H22 C12 1_555 1_555
C13 N3 1_555 1_555
H23 C13 1_555 1_555
H24 C13 1_555 1_555
C14 N4 1_555 1_555
H25 C14 1_555 1_555
H26 C14 1_555 1_555
O5 H27 1_555 1_555
H28 O5 1_555 1_555
Zn2_2 O4B 1_555 1_555
O1B Zn1 1_555 1_555
O2B C6B 1_555 1_555
O3B C9B 1_555 1_555
O4B C9B 1_555 1_555
O4B_2 Zn2 1_555 1_555
N1B Zn1 1_555 1_555
H1B N1B 1_555 1_555
N2B Zn1 1_555 1_555
H2B N2B 1_555 1_555
N3B Zn2 1_555 1_555
H3B N3B 1_555 1_555
N4B Zn2 1_555 1_555
H4B N4B 1_555 1_555
C1B N1B 1_555 1_555
H5B C1B 1_555 1_555
H6B C1B 1_555 1_555
C2B N2B 1_555 1_555
H7B C2B 1_555 1_555
H8B C2B 1_555 1_555
C3B N1B 1_555 1_555
H9B C3B 1_555 1_555
H10B C3B 1_555 1_555
C4B C5 1_555 1_555
H11B C4B 1_555 1_555
H12B C4B 1_555 1_555
C5B C4 1_555 1_555
H13B C5B 1_555 1_555
H14B C5B 1_555 1_555
C6B O1B 1_555 1_555
C7B C6B 1_555 1_555
H15B C7B 1_555 1_555
C8B C7B 1_555 1_555
H16B C8B 1_555 1_555
C9B C8B 1_555 1_555
C10B N4B 1_555 1_555
H17B C10B 1_555 1_555
H18B C10B 1_555 1_555
C11B C10B 1_555 1_555
H19B C11B 1_555 1_555
H20B C11B 1_555 1_555
C12B N3B 1_555 1_555
H21B C12B 1_555 1_555
H22B C12B 1_555 1_555
C13B C14 1_555 1_555
H23B C13B 1_555 1_555
H24B C13B 1_555 1_555
C14B C13 1_555 1_555
H25B C14B 1_555 1_555
H26B C14B 1_555 1_555
C1 C2 1_555 1_555
C11 C12 1_555 1_555
N2B C5B 1_555 1_555
N3B C13B 1_555 1_555
N4B C14B 1_555 1_555
C1B C2B 1_555 1_555
C3B C4B 1_555 1_555
C11B C12B 1_555 1_555

#END
