
#######################################################################
#
#                 Cambridge Crystallographic Data Centre
#                                CCDC 
#
#######################################################################
#
# If this CIF has been generated from an entry in the Cambridge 
# Structural Database, then it will include bibliographic, chemical, 
# crystal, experimental, refinement or atomic coordinate data resulting 
# from the CCDC's data processing and validation procedures.
#
#######################################################################

data_VEGZAJ
_symmetry_cell_setting           triclinic
_symmetry_space_group_name_H-M   'P -1'
_symmetry_Int_Tables_number      2
_space_group_name_Hall           '-P 1'
loop_
_symmetry_equiv_pos_site_id
_symmetry_equiv_pos_as_xyz
1 x,y,z
2 -x,-y,-z
_cell_length_a                   7.7375(2)
_cell_length_b                   8.8652(3)
_cell_length_c                   10.5309(4)
_cell_angle_alpha                100.3733(17)
_cell_angle_beta                 101.759(2)
_cell_angle_gamma                105.302(2)
_cell_volume                     660.884
loop_
_atom_site_label
_atom_site_type_symbol
_atom_site_fract_x
_atom_site_fract_y
_atom_site_fract_z
Sb1 Sb 0.30393(2) 0.486267(19) 0.314531(17)
Br1 Br -0.03787(4) 0.31518(3) 0.20002(3)
S1 S 0.24504(10) 0.63971(7) 0.51287(7)
S2 S 0.30497(10) 0.72162(7) 0.21553(7)
C1 C 0.2522(4) 0.8191(3) 0.4669(3)
C2 C 0.2747(4) 0.8518(3) 0.3488(3)
S3 S 0.23372(9) 0.97581(7) 0.58424(7)
S4 S 0.28450(9) 1.04829(7) 0.33623(7)
C3 C 0.2606(4) 1.1185(3) 0.4927(3)
S5 S 0.26039(10) 1.30590(8) 0.55394(7)
O1 O 0.3577(3) 0.3969(2) 0.0746(2)
C4 C 0.2220(4) 0.3466(4) -0.0546(3)
H1 H 0.2797 0.3836 -0.1238
H2 H 0.1177 0.3905 -0.0503
C5 C 0.1553(4) 0.1641(4) -0.0851(3)
H3 H 0.1161 0.1161 -0.1829
H4 H 0.0497 0.1256 -0.0470
C6 C 0.3259(5) 0.1205(4) -0.0178(4)
H5 H 0.2913 0.0421 0.0359
H6 H 0.3820 0.0741 -0.0855
C7 C 0.4603(4) 0.2821(4) 0.0721(3)
H7 H 0.5063 0.2709 0.1637
H8 H 0.5682 0.3186 0.0357
Sb1_2 Sb 0.30393(2) 1.486267(19) 0.314531(17)
Sb1A Sb 0.69607(2) 1.513733(19) 0.685469(17)
S5_2 S 0.26039(10) 0.30590(8) 0.55394(7)
S5A S 0.73961(10) 0.69410(8) 0.44606(7)
loop_
_geom_bond_atom_site_label_1
_geom_bond_atom_site_label_2
_geom_bond_site_symmetry_1
_geom_bond_site_symmetry_2
Sb1 Br1 1_555 1_555
S1 Sb1 1_555 1_555
S2 Sb1 1_555 1_555
C1 S1 1_555 1_555
C2 S2 1_555 1_555
S3 C1 1_555 1_555
S4 C2 1_555 1_555
C3 S3 1_555 1_555
S5 C3 1_555 1_555
O1 Sb1 1_555 1_555
C4 O1 1_555 1_555
H1 C4 1_555 1_555
H2 C4 1_555 1_555
C5 C4 1_555 1_555
H3 C5 1_555 1_555
H4 C5 1_555 1_555
C6 C5 1_555 1_555
H5 C6 1_555 1_555
H6 C6 1_555 1_555
C7 O1 1_555 1_555
H7 C7 1_555 1_555
H8 C7 1_555 1_555
Sb1_2 S5 1_555 1_555
Sb1A S5 1_555 1_555
S5_2 Sb1 1_555 1_555
S5A Sb1 1_555 1_555
C1 C2 1_555 1_555
S4 C3 1_555 1_555
C6 C7 1_555 1_555

#END
