
#######################################################################
#
#                 Cambridge Crystallographic Data Centre
#                                CCDC 
#
#######################################################################
#
# If this CIF has been generated from an entry in the Cambridge 
# Structural Database, then it will include bibliographic, chemical, 
# crystal, experimental, refinement or atomic coordinate data resulting 
# from the CCDC's data processing and validation procedures.
#
#######################################################################

data_VEHBIU
_symmetry_cell_setting           monoclinic
_symmetry_space_group_name_H-M   'P 21/n'
_symmetry_Int_Tables_number      14
_space_group_name_Hall           '-P 2yn'
loop_
_symmetry_equiv_pos_site_id
_symmetry_equiv_pos_as_xyz
1 x,y,z
2 1/2-x,1/2+y,1/2-z
3 -x,-y,-z
4 1/2+x,1/2-y,1/2+z
_cell_length_a                   8.863(3)
_cell_length_b                   13.260(4)
_cell_length_c                   16.026(5)
_cell_angle_alpha                90
_cell_angle_beta                 93.995(6)
_cell_angle_gamma                90
_cell_volume                     1878.85
loop_
_atom_site_label
_atom_site_type_symbol
_atom_site_fract_x
_atom_site_fract_y
_atom_site_fract_z
Cr1 Cr 0.77287(7) 0.83653(4) 0.14127(4)
Na1 Na 0.67877(19) 0.93452(12) 0.47490(10)
O1 O 0.8678(3) 0.8074(2) 0.25277(17)
O2 O 0.6196(3) 0.9004(2) 0.20610(16)
O3 O 0.5588(4) 0.9191(3) 0.33719(19)
O4 O 0.8231(4) 0.8198(2) 0.3876(2)
O5 O 0.9239(3) 0.7549(2) 0.08829(17)
O6 O 0.6565(3) 0.7121(2) 0.13401(19)
O7 O 0.6628(4) 0.5585(2) 0.0815(3)
O8 O 0.9505(3) 0.6027(2) 0.03350(19)
O9 O 0.8439(5) 0.8983(5) 0.5899(3)
H1 H 0.8584 0.9375 0.6316
H2 H 0.9233 0.8845 0.5625
N1 N 0.6808(4) 0.8842(3) 0.0286(2)
N2 N 0.8828(4) 0.9748(2) 0.1306(2)
N3 N 0.6643(5) 1.0000(3) -0.0686(2)
H3 H 0.6784 1.0553 -0.0950
C1 C 0.6420(5) 0.8896(3) 0.2853(3)
C2 C 0.7904(5) 0.8340(3) 0.3137(3)
C3 C 0.7199(5) 0.6403(3) 0.0964(3)
C4 C 0.8789(5) 0.6654(3) 0.0693(2)
C5 C 0.5712(6) 0.9226(4) -0.0958(3)
H4 H 0.5123 0.9195 -0.1461
C6 C 0.5815(5) 0.8523(4) -0.0360(3)
H5 H 0.5297 0.7913 -0.0376
C7 C 0.7296(5) 0.9744(3) 0.0061(3)
C8 C 0.8394(5) 1.0279(3) 0.0610(3)
C9 C 0.9839(6) 1.0158(4) 0.1860(3)
H6 H 1.0148 0.9799 0.2341
C10 C 1.0442(6) 1.1107(4) 0.1740(3)
H7 H 1.1142 1.1381 0.2135
C11 C 0.9997(6) 1.1633(4) 0.1036(4)
H8 H 1.0400 1.2268 0.0946
C12 C 0.8962(6) 1.1228(3) 0.0463(3)
H9 H 0.8642 1.1584 -0.0017
Na1A Na 0.82123(19) 0.43452(12) 0.02510(10)
Na1C Na 1.17877(19) 0.56548(12) -0.02510(10)
O7A O 0.8372(4) 1.0585(2) 0.4185(3)
O8C O 0.4505(3) 0.8973(2) 0.53350(19)
O8A O 0.5495(3) 1.1027(2) 0.46650(19)
O10 O 0.6732(8) 0.1939(5) 0.8614(4)
O12 O 0.1883(9) 0.7894(9) 0.2830(7)
O13 O 0.2814(11) 0.9809(15) 0.3022(9)
O11? O 0.768(2) 0.1881(15) 0.8419(12)
loop_
_geom_bond_atom_site_label_1
_geom_bond_atom_site_label_2
_geom_bond_site_symmetry_1
_geom_bond_site_symmetry_2
Cr1 O1 1_555 1_555
Na1 O3 1_555 1_555
O1 C2 1_555 1_555
O2 Cr1 1_555 1_555
O3 C1 1_555 1_555
O4 Na1 1_555 1_555
O5 Cr1 1_555 1_555
O6 Cr1 1_555 1_555
O7 C3 1_555 1_555
O8 C4 1_555 1_555
O9 Na1 1_555 1_555
H1 O9 1_555 1_555
H2 O9 1_555 1_555
N1 Cr1 1_555 1_555
N2 Cr1 1_555 1_555
N3 H3 1_555 1_555
C1 O2 1_555 1_555
C2 O4 1_555 1_555
C3 O6 1_555 1_555
C4 O5 1_555 1_555
C5 N3 1_555 1_555
H4 C5 1_555 1_555
C6 N1 1_555 1_555
H5 C6 1_555 1_555
C7 N1 1_555 1_555
C8 N2 1_555 1_555
C9 N2 1_555 1_555
H6 C9 1_555 1_555
C10 C9 1_555 1_555
H7 C10 1_555 1_555
C11 C10 1_555 1_555
H8 C11 1_555 1_555
C12 C8 1_555 1_555
H9 C12 1_555 1_555
Na1A O7 1_555 1_555
Na1C O8 1_555 1_555
O7A Na1 1_555 1_555
O8C Na1 1_555 1_555
O8A Na1 1_555 1_555
O8 Na1A 1_555 1_555
N3 C7 1_555 1_555
C1 C2 1_555 1_555
C3 C4 1_555 1_555
C5 C6 1_555 1_555
C7 C8 1_555 1_555
C11 C12 1_555 1_555

#END
