
#######################################################################
#
#                 Cambridge Crystallographic Data Centre
#                                CCDC 
#
#######################################################################
#
# If this CIF has been generated from an entry in the Cambridge 
# Structural Database, then it will include bibliographic, chemical, 
# crystal, experimental, refinement or atomic coordinate data resulting 
# from the CCDC's data processing and validation procedures.
#
#######################################################################

data_VEHJID01
_symmetry_cell_setting           orthorhombic
_symmetry_space_group_name_H-M   'P 21 21 21'
_symmetry_Int_Tables_number      19
_space_group_name_Hall           'P 2ac 2ab'
loop_
_symmetry_equiv_pos_site_id
_symmetry_equiv_pos_as_xyz
1 x,y,z
2 1/2-x,-y,1/2+z
3 -x,1/2+y,1/2-z
4 1/2+x,1/2-y,-z
_cell_length_a                   12.9595(6)
_cell_length_b                   14.7341(4)
_cell_length_c                   15.3571(5)
_cell_angle_alpha                90
_cell_angle_beta                 90
_cell_angle_gamma                90
_cell_volume                     2932.39
loop_
_atom_site_label
_atom_site_type_symbol
_atom_site_fract_x
_atom_site_fract_y
_atom_site_fract_z
Zn1 Zn -0.01788(5) -0.97247(4) 0.45300(4)
Zn2 Zn -0.20186(6) -0.82856(5) 0.33455(4)
C1 C -0.1342(5) -1.0304(4) 0.3055(4)
C2 C -0.3175(5) -1.1086(4) 0.0273(4)
C3 C -0.0351(4) -1.3098(3) 0.1383(4)
C4 C -0.1500(5) -1.0932(4) 0.2285(4)
C5 C -0.2224(5) -1.0727(4) 0.1674(4)
H1 H -0.2623 -1.0207 0.1739
C6 C -0.2380(4) -1.1291(4) 0.0943(4)
C7 C -0.1761(5) -1.2076(4) 0.0863(4)
H2 H -0.1854 -1.2462 0.0390
C8 C -0.1022(4) -1.2277(4) 0.1479(4)
C9 C -0.0881(4) -1.1691(4) 0.2201(4)
H3 H -0.0377 -1.1815 0.2615
C10 C -0.2274(7) -0.8139(6) 0.1313(5)
C11 C -0.1135(9) -0.8230(11) 0.1019(10)
H4 H -0.0703 -0.8319 0.1520
H5 H -0.0927 -0.7688 0.0721
H6 H -0.1068 -0.8741 0.0635
C12 C -0.4118(9) -0.7945(15) 0.1130(12)
H7 H -0.4002 -0.7880 0.1745
H8 H -0.4507 -0.8488 0.1023
H9 H -0.4496 -0.7430 0.0919
C13 C -0.2783(12) -0.8084(10) -0.0244(5)
H10 H -0.2044 -0.8047 -0.0276
H11 H -0.3082 -0.7602 -0.0579
H12 H -0.3007 -0.8658 -0.0473
C14 C -0.1708(8) -0.6212(6) 0.3571(9)
C15 C -0.1231(14) -0.6025(10) 0.4479(11)
H13 H -0.1348 -0.6538 0.4852
H14 H -0.1546 -0.5496 0.4728
H15 H -0.0502 -0.5926 0.4419
C16 C -0.2100(16) -0.5875(10) 0.2161(11)
H16 H -0.2345 -0.6471 0.2305
H17 H -0.1629 -0.5914 0.1681
H18 H -0.2674 -0.5497 0.2004
C17 C -0.1001(11) -0.4698(7) 0.3297(10)
H19 H -0.0798 -0.4837 0.3884
H20 H -0.1441 -0.4174 0.3298
H21 H -0.0399 -0.4576 0.2953
C18 C -0.4407(7) -0.8170(6) 0.3419(8)
C19 C -0.4741(9) -0.7170(6) 0.3565(8)
H22 H -0.4148 -0.6811 0.3711
H23 H -0.5233 -0.7143 0.4032
H24 H -0.5050 -0.6939 0.3042
C20 C -0.4668(11) -0.9728(7) 0.3048(12)
H25 H -0.4014 -0.9722 0.3341
H26 H -0.4562 -0.9820 0.2436
H27 H -0.5084 -1.0212 0.3276
C21 C -0.6171(8) -0.8372(11) 0.2978(11)
H28 H -0.6158 -0.7776 0.3230
H29 H -0.6745 -0.8706 0.3210
H30 H -0.6240 -0.8324 0.2358
O1 O -0.0575(4) -1.0460(3) 0.3536(3)
O2 O -0.1957(4) -0.9684(3) 0.3159(3)
O3 O -0.3699(3) -1.0365(3) 0.0380(3)
O4 O -0.3316(3) -1.1642(3) -0.0323(3)
O5 O -0.0616(3) -1.3665(3) 0.0802(3)
O6 O 0.0421(3) -1.3177(3) 0.1875(3)
O7 O 0.0835(7) -1.0699(5) 0.4904(5)
O8 O 0.1041(10) -0.9871(7) 0.5887(7)
O9 O 0.1881(8) -1.1070(7) 0.5902(7)
O10 O -0.2474(6) -0.8160(6) 0.2057(4)
O11 O -0.2109(5) -0.6906(3) 0.3439(5)
O12 O -0.3560(4) -0.8478(4) 0.3667(4)
N1 N 0.1277(7) -1.0558(6) 0.5536(7)
N2 N -0.3114(8) -0.8002(6) 0.0675(4)
N3 N -0.1565(8) -0.5480(5) 0.2923(8)
N4 N -0.5200(6) -0.8852(7) 0.3190(8)
Zn1A Zn -0.48212(5) -1.02753(4) -0.04700(4)
Zn1B Zn 0.01788(5) -1.47247(4) 0.04700(4)
Zn2A Zn -0.29814(6) -1.17144(5) -0.16545(4)
Zn2B Zn 0.20186(6) -1.32856(5) 0.16545(4)
O3A O -0.1301(3) -0.9635(3) 0.5380(3)
O4A O -0.1684(3) -0.8358(3) 0.4677(3)
O5B O 0.0616(3) -0.8665(3) 0.4198(3)
O6B O -0.0421(3) -0.8177(3) 0.3125(3)
loop_
_geom_bond_atom_site_label_1
_geom_bond_atom_site_label_2
_geom_bond_site_symmetry_1
_geom_bond_site_symmetry_2
Zn1 O1 1_555 1_555
Zn2 O2 1_555 1_555
C1 C4 1_555 1_555
C2 C6 1_555 1_555
C3 C8 1_555 1_555
C4 C5 1_555 1_555
C5 H1 1_555 1_555
C6 C5 1_555 1_555
C7 C6 1_555 1_555
H2 C7 1_555 1_555
C8 C7 1_555 1_555
C9 C4 1_555 1_555
H3 C9 1_555 1_555
C10 C11 1_555 1_555
C11 H4 1_555 1_555
H5 C11 1_555 1_555
H6 C11 1_555 1_555
C12 H7 1_555 1_555
H8 C12 1_555 1_555
H9 C12 1_555 1_555
C13 H10 1_555 1_555
H11 C13 1_555 1_555
H12 C13 1_555 1_555
C14 C15 1_555 1_555
C15 H13 1_555 1_555
H14 C15 1_555 1_555
H15 C15 1_555 1_555
C16 H16 1_555 1_555
H17 C16 1_555 1_555
H18 C16 1_555 1_555
C17 H19 1_555 1_555
H20 C17 1_555 1_555
H21 C17 1_555 1_555
C18 C19 1_555 1_555
C19 H22 1_555 1_555
H23 C19 1_555 1_555
H24 C19 1_555 1_555
C20 H25 1_555 1_555
H26 C20 1_555 1_555
H27 C20 1_555 1_555
C21 H28 1_555 1_555
H29 C21 1_555 1_555
H30 C21 1_555 1_555
O1 C1 1_555 1_555
O2 C1 1_555 1_555
O3 C2 1_555 1_555
O4 C2 1_555 1_555
O5 C3 1_555 1_555
O6 C3 1_555 1_555
O7 Zn1 1_555 1_555
O8 N1 1_555 1_555
O9 N1 1_555 1_555
O10 Zn2 1_555 1_555
O11 Zn2 1_555 1_555
O12 Zn2 1_555 1_555
N1 O7 1_555 1_555
N2 C10 1_555 1_555
N3 C14 1_555 1_555
N4 C18 1_555 1_555
Zn1A O3 1_555 1_555
Zn1B O5 1_555 1_555
Zn2A O4 1_555 1_555
Zn2B O6 1_555 1_555
O3A Zn1 1_555 1_555
O4A Zn2 1_555 1_555
O5B Zn1 1_555 1_555
O6B Zn2 1_555 1_555
C8 C9 1_555 1_555
C10 O10 1_555 1_555
C12 N2 1_555 1_555
C13 N2 1_555 1_555
C14 O11 1_555 1_555
C16 N3 1_555 1_555
C17 N3 1_555 1_555
C18 O12 1_555 1_555
C20 N4 1_555 1_555
C21 N4 1_555 1_555

#END
