
#######################################################################
#
#                 Cambridge Crystallographic Data Centre
#                                CCDC 
#
#######################################################################
#
# If this CIF has been generated from an entry in the Cambridge 
# Structural Database, then it will include bibliographic, chemical, 
# crystal, experimental, refinement or atomic coordinate data resulting 
# from the CCDC's data processing and validation procedures.
#
#######################################################################

data_VEHKEZ
_symmetry_cell_setting           triclinic
_symmetry_space_group_name_H-M   'P -1'
_symmetry_Int_Tables_number      2
_space_group_name_Hall           '-P 1'
loop_
_symmetry_equiv_pos_site_id
_symmetry_equiv_pos_as_xyz
1 x,y,z
2 -x,-y,-z
_cell_length_a                   8.4393(6)
_cell_length_b                   8.5797(6)
_cell_length_c                   12.0728(9)
_cell_angle_alpha                81.8420(10)
_cell_angle_beta                 84.0600(10)
_cell_angle_gamma                64.0080(10)
_cell_volume                     776.946
loop_
_atom_site_label
_atom_site_type_symbol
_atom_site_fract_x
_atom_site_fract_y
_atom_site_fract_z
Co1 Co 0.5000 0.5000 0.0000
Co2 Co 0.5000 0.5000 -0.5000
N1 N 0.7465(2) 0.3304(2) -0.08305(13)
C1 C 0.7637(2) 0.1670(3) -0.08456(15)
C2 C 0.9172(2) 0.0336(2) -0.12289(15)
H1 H 0.9242 -0.0775 -0.1233
C3 C 1.0596(3) 0.0695(3) -0.16044(16)
H2 H 1.1653 -0.0179 -0.1846
C4 C 1.0417(2) 0.2381(3) -0.16139(16)
H3 H 1.1352 0.2652 -0.1875
C5 C 0.8839(3) 0.3669(2) -0.12329(16)
C6 C 0.6076(3) 0.1322(3) -0.03934(18)
H4 H 0.5899 0.0609 -0.0880
H5 H 0.6323 0.0673 0.0343
O1 O 0.44904(18) 0.29066(18) -0.03150(12)
C7 C 0.8626(3) 0.5513(3) -0.1282(2)
H6 H 0.7519 0.6301 -0.1598
H7 H 0.9572 0.5636 -0.1741
H8 H 0.8650 0.5779 -0.0540
N2 N 0.5020(2) 0.2507(2) -0.43043(13)
C8 C 0.6594(3) 0.1355(3) -0.39023(15)
C9 C 0.6899(3) -0.0300(3) -0.33853(17)
H9 H 0.8000 -0.1060 -0.3117
C10 C 0.5522(3) -0.0792(3) -0.32789(17)
H10 H 0.5680 -0.1888 -0.2936
C11 C 0.3913(3) 0.0383(3) -0.36944(17)
H11 H 0.2977 0.0075 -0.3636
C12 C 0.3686(3) 0.2024(3) -0.41999(16)
C13 C 0.8028(3) 0.1971(3) -0.40242(16)
H12 H 0.8073 0.2405 -0.3334
H13 H 0.9158 0.0996 -0.4155
O2 O 0.77308(18) 0.33166(17) -0.49282(11)
C14 C 0.1948(3) 0.3313(3) -0.46302(19)
H14 H 0.1393 0.4206 -0.4135
H15 H 0.1209 0.2734 -0.4668
H16 H 0.2121 0.3829 -0.5364
S1 S 0.34851(6) 0.59299(6) -0.25144(3)
O3 O 0.31120(18) 0.43951(18) -0.21865(11)
O4 O 0.19191(18) 0.73994(18) -0.30059(11)
O5 O 0.50010(17) 0.54969(17) -0.33509(10)
O6 O 0.39523(17) 0.64489(17) -0.15165(11)
H17 H 0.394(5) 0.334(5) -0.110(3)
H18 H 0.802(4) 0.285(4) -0.560(3)
Co2_2 Co 0.5000 0.5000 0.5000
N1A N 0.2535(2) 0.6696(2) 0.08305(13)
C1A C 0.2363(2) 0.8330(3) 0.08456(15)
C2A C 0.0828(2) 0.9664(2) 0.12289(15)
H1A H 0.0758 1.0775 0.1233
C3A C -0.0596(3) 0.9305(3) 0.16044(16)
H2A H -0.1653 1.0179 0.1846
C4A C -0.0417(2) 0.7619(3) 0.16139(16)
H3A H -0.1352 0.7348 0.1875
C5A C 0.1161(3) 0.6331(2) 0.12329(16)
C6A C 0.3924(3) 0.8678(3) 0.03934(18)
H4A H 0.4101 0.9391 0.0880
H5A H 0.3677 0.9327 -0.0343
O1A O 0.55096(18) 0.70934(18) 0.03150(12)
C7A C 0.1374(3) 0.4487(3) 0.1282(2)
H6A H 0.2481 0.3699 0.1598
H7A H 0.0428 0.4364 0.1741
H8A H 0.1350 0.4221 0.0540
N2A N 0.4980(2) 0.7493(2) -0.56957(13)
C8A C 0.3406(3) 0.8645(3) -0.60977(15)
C9A C 0.3101(3) 1.0300(3) -0.66147(17)
H9A H 0.2000 1.1060 -0.6883
C10A C 0.4478(3) 1.0792(3) -0.67211(17)
H10A H 0.4320 1.1888 -0.7064
C11A C 0.6087(3) 0.9617(3) -0.63056(17)
H11A H 0.7023 0.9925 -0.6364
C12A C 0.6314(3) 0.7976(3) -0.58001(16)
C13A C 0.1972(3) 0.8029(3) -0.59758(16)
H12A H 0.1927 0.7595 -0.6666
H13A H 0.0842 0.9004 -0.5845
O2A O 0.22692(18) 0.66834(17) -0.50718(11)
C14A C 0.8052(3) 0.6687(3) -0.53698(19)
H14A H 0.8607 0.5794 -0.5865
H15A H 0.8791 0.7266 -0.5332
H16A H 0.7879 0.6171 -0.4636
S1A S 0.65149(6) 0.40701(6) 0.25144(3)
O3A O 0.68880(18) 0.56049(18) 0.21865(11)
O4A O 0.80809(18) 0.26006(18) 0.30059(11)
O5A O 0.49990(17) 0.45031(17) 0.33509(10)
O5A_2 O 0.49990(17) 0.45031(17) -0.66491(10)
O6A O 0.60477(17) 0.35511(17) 0.15165(11)
H17A H 0.606(5) 0.666(5) 0.110(3)
H18A H 0.198(4) 0.715(4) -0.440(3)
loop_
_geom_bond_atom_site_label_1
_geom_bond_atom_site_label_2
_geom_bond_site_symmetry_1
_geom_bond_site_symmetry_2
Co1 N1 1_555 1_555
Co2 N2 1_555 1_555
N1 C1 1_555 1_555
C1 C2 1_555 1_555
C2 H1 1_555 1_555
C3 C2 1_555 1_555
H2 C3 1_555 1_555
C4 C3 1_555 1_555
H3 C4 1_555 1_555
C5 N1 1_555 1_555
C6 C1 1_555 1_555
H4 C6 1_555 1_555
H5 C6 1_555 1_555
O1 Co1 1_555 1_555
C7 C5 1_555 1_555
H6 C7 1_555 1_555
H7 C7 1_555 1_555
H8 C7 1_555 1_555
N2 C8 1_555 1_555
C8 C9 1_555 1_555
C9 H9 1_555 1_555
C10 C9 1_555 1_555
H10 C10 1_555 1_555
C11 C10 1_555 1_555
H11 C11 1_555 1_555
C12 N2 1_555 1_555
C13 C8 1_555 1_555
H12 C13 1_555 1_555
H13 C13 1_555 1_555
O2 Co2 1_555 1_555
C14 C12 1_555 1_555
H14 C14 1_555 1_555
H15 C14 1_555 1_555
H16 C14 1_555 1_555
S1 O3 1_555 1_555
O4 S1 1_555 1_555
O5 Co2 1_555 1_555
O6 Co1 1_555 1_555
H17 O1 1_555 1_555
H18 O2 1_555 1_555
Co2_2 O5A 1_555 1_555
N1A Co1 1_555 1_555
C1A N1A 1_555 1_555
C2A C1A 1_555 1_555
H1A C2A 1_555 1_555
C3A C2A 1_555 1_555
H2A C3A 1_555 1_555
C4A C3A 1_555 1_555
H3A C4A 1_555 1_555
C5A N1A 1_555 1_555
C6A C1A 1_555 1_555
H4A C6A 1_555 1_555
H5A C6A 1_555 1_555
O1A Co1 1_555 1_555
C7A C5A 1_555 1_555
H6A C7A 1_555 1_555
H7A C7A 1_555 1_555
H8A C7A 1_555 1_555
N2A Co2 1_555 1_555
C8A N2A 1_555 1_555
C9A C8A 1_555 1_555
H9A C9A 1_555 1_555
C10A C9A 1_555 1_555
H10A C10A 1_555 1_555
C11A C10A 1_555 1_555
H11A C11A 1_555 1_555
C12A N2A 1_555 1_555
C13A C8A 1_555 1_555
H12A C13A 1_555 1_555
H13A C13A 1_555 1_555
O2A Co2 1_555 1_555
C14A C12A 1_555 1_555
H14A C14A 1_555 1_555
H15A C14A 1_555 1_555
H16A C14A 1_555 1_555
S1A O3A 1_555 1_555
O4A S1A 1_555 1_555
O5A S1A 1_555 1_555
O5A_2 Co2 1_555 1_555
O6A Co1 1_555 1_555
H17A O1A 1_555 1_555
H18A O2A 1_555 1_555
C4 C5 1_555 1_555
C6 O1 1_555 1_555
C11 C12 1_555 1_555
C13 O2 1_555 1_555
S1 O5 1_555 1_555
S1 O6 1_555 1_555
C4A C5A 1_555 1_555
C6A O1A 1_555 1_555
C11A C12A 1_555 1_555
C13A O2A 1_555 1_555
S1A O6A 1_555 1_555

#END
