
#######################################################################
#
#                 Cambridge Crystallographic Data Centre
#                                CCDC 
#
#######################################################################
#
# If this CIF has been generated from an entry in the Cambridge 
# Structural Database, then it will include bibliographic, chemical, 
# crystal, experimental, refinement or atomic coordinate data resulting 
# from the CCDC's data processing and validation procedures.
#
#######################################################################

data_VEHPIJ
_symmetry_cell_setting           monoclinic
_symmetry_space_group_name_H-M   'P 21/c'
_symmetry_Int_Tables_number      14
_space_group_name_Hall           '-P 2ybc'
loop_
_symmetry_equiv_pos_site_id
_symmetry_equiv_pos_as_xyz
1 x,y,z
2 -x,1/2+y,1/2-z
3 -x,-y,-z
4 x,1/2-y,1/2+z
_cell_length_a                   10.0635(5)
_cell_length_b                   6.1226(2)
_cell_length_c                   19.9763(9)
_cell_angle_alpha                90
_cell_angle_beta                 103.340(5)
_cell_angle_gamma                90
_cell_volume                     1197.63
loop_
_atom_site_label
_atom_site_type_symbol
_atom_site_fract_x
_atom_site_fract_y
_atom_site_fract_z
Cu1 Cu 0.64434(4) 0.34716(5) 0.530162(18)
N1 N 0.7751(2) 0.5722(4) 0.51760(12)
O1 O 0.5626(2) 0.0909(3) 0.56981(11)
O2 O 0.7677(2) 0.2060(3) 0.61180(11)
O3 O 0.49461(19) -0.3812(3) 0.55467(9)
O4 O 0.3664(2) -0.2449(4) 0.62150(11)
C1 C 0.6956(3) -0.1011(4) 0.66766(15)
C2 C 0.6058(3) -0.2646(4) 0.66571(14)
C3 C 0.6264(3) -0.4403(5) 0.71994(15)
H1 H 0.6015 -0.5805 0.6980
H2 H 0.5663 -0.4127 0.7506
C4 C 0.7732(4) -0.4510(6) 0.76181(19)
H3 H 0.7776 -0.5409 0.8022
H4 H 0.8302 -0.5182 0.7344
C5 C 0.8256(4) -0.2306(6) 0.78322(18)
H5 H 0.9183 -0.2429 0.8107
H6 H 0.7703 -0.1665 0.8119
C6 C 0.8248(4) -0.0810(5) 0.72321(17)
H7 H 0.8347 0.0688 0.7394
H8 H 0.9024 -0.1151 0.7039
C7 C 0.6729(3) 0.0707(4) 0.61388(15)
C8 C 0.4769(3) -0.2907(4) 0.61017(14)
C9 C 0.8997(3) 0.5884(5) 0.56001(17)
H9 H 0.9259 0.4848 0.5946
C10 C 0.9892(3) 0.7509(5) 0.55419(17)
H10 H 1.0749 0.7548 0.5841
C11 C 0.9534(3) 0.9094(4) 0.50426(14)
C12 C 0.8250(3) 0.8930(5) 0.46131(16)
H11 H 0.7956 0.9961 0.4269
C13 C 0.7409(3) 0.7241(5) 0.46965(16)
H12 H 0.6550 0.7159 0.4400
Cu1B Cu 0.35566(4) -0.34716(5) 0.469838(18)
Cu1_2 Cu 0.64434(4) -0.65284(5) 0.530162(18)
Cu1B_2 Cu 0.35566(4) 0.65284(5) 0.469838(18)
Cu1B_3 Cu 1.35566(4) 1.65284(5) 0.469838(18)
N1B N 1.2249(2) 1.4278(4) 0.48240(12)
N1B_2 N 0.2249(2) -0.5722(4) 0.48240(12)
O1B O 0.4374(2) -0.0909(3) 0.43019(11)
O2B O 0.2323(2) -0.2060(3) 0.38820(11)
O3B O 0.50539(19) 0.3812(3) 0.44533(9)
O3_2 O 0.49461(19) 0.6188(3) 0.55467(9)
O3B_2 O 0.50539(19) -0.6188(3) 0.44533(9)
O4B O 0.6336(2) 0.2449(4) 0.37850(11)
C1B C 0.3044(3) 0.1011(4) 0.33234(15)
C2B C 0.3942(3) 0.2646(4) 0.33429(14)
C3B C 0.3736(3) 0.4403(5) 0.28006(15)
H1B H 0.3985 0.5805 0.3020
H2B H 0.4337 0.4127 0.2494
C4B C 0.2268(4) 0.4510(6) 0.23819(19)
H3B H 0.2224 0.5409 0.1978
H4B H 0.1698 0.5182 0.2656
C5B C 0.1744(4) 0.2306(6) 0.21678(18)
H5B H 0.0817 0.2429 0.1893
H6B H 0.2297 0.1665 0.1881
C6B C 0.1752(4) 0.0810(5) 0.27679(17)
H7B H 0.1653 -0.0688 0.2606
H8B H 0.0976 0.1151 0.2961
C7B C 0.3271(3) -0.0707(4) 0.38612(15)
C8B C 0.5231(3) 0.2907(4) 0.38983(14)
C9B C 1.1003(3) 1.4116(5) 0.43999(17)
H9B H 1.0741 1.5152 0.4054
C10B C 1.0108(3) 1.2491(5) 0.44581(17)
H10B H 0.9251 1.2452 0.4159
C11B C 1.0466(3) 1.0906(4) 0.49574(14)
C12B C 1.1750(3) 1.1070(5) 0.53869(16)
H11B H 1.2044 1.0039 0.5731
C13B C 1.2591(3) 1.2759(5) 0.53035(16)
H12B H 1.3450 1.2841 0.5600
loop_
_geom_bond_atom_site_label_1
_geom_bond_atom_site_label_2
_geom_bond_site_symmetry_1
_geom_bond_site_symmetry_2
Cu1 N1 1_555 1_555
N1 C9 1_555 1_555
O1 Cu1 1_555 1_555
O2 Cu1 1_555 1_555
O3 C8 1_555 1_555
O4 C8 1_555 1_555
C1 C2 1_555 1_555
C2 C3 1_555 1_555
C3 H1 1_555 1_555
H2 C3 1_555 1_555
C4 C3 1_555 1_555
H3 C4 1_555 1_555
H4 C4 1_555 1_555
C5 C4 1_555 1_555
H5 C5 1_555 1_555
H6 C5 1_555 1_555
C6 C1 1_555 1_555
H7 C6 1_555 1_555
H8 C6 1_555 1_555
C7 O1 1_555 1_555
C8 C2 1_555 1_555
C9 H9 1_555 1_555
C10 C9 1_555 1_555
H10 C10 1_555 1_555
C11 C10 1_555 1_555
C12 C11 1_555 1_555
H11 C12 1_555 1_555
C13 N1 1_555 1_555
H12 C13 1_555 1_555
Cu1B O3 1_555 1_555
Cu1_2 O3 1_555 1_555
Cu1B_2 O3B 1_555 1_555
Cu1B_3 N1B 1_555 1_555
N1B C9B 1_555 1_555
N1B_2 Cu1B 1_555 1_555
O1B Cu1B 1_555 1_555
O2B Cu1B 1_555 1_555
O3B Cu1 1_555 1_555
O3_2 Cu1 1_555 1_555
O3B_2 Cu1B 1_555 1_555
O4B C8B 1_555 1_555
C1B C2B 1_555 1_555
C2B C3B 1_555 1_555
C3B H1B 1_555 1_555
H2B C3B 1_555 1_555
C4B C3B 1_555 1_555
H3B C4B 1_555 1_555
H4B C4B 1_555 1_555
C5B C4B 1_555 1_555
H5B C5B 1_555 1_555
H6B C5B 1_555 1_555
C6B C1B 1_555 1_555
H7B C6B 1_555 1_555
H8B C6B 1_555 1_555
C7B O1B 1_555 1_555
C8B O3B 1_555 1_555
C9B H9B 1_555 1_555
C10B C9B 1_555 1_555
H10B C10B 1_555 1_555
C11B C11 1_555 1_555
C12B C11B 1_555 1_555
H11B C12B 1_555 1_555
C13B N1B 1_555 1_555
H12B C13B 1_555 1_555
O2 C7 1_555 1_555
C1 C7 1_555 1_555
C5 C6 1_555 1_555
C12 C13 1_555 1_555
Cu1_2 O3B_2 1_555 1_555
Cu1B_2 O3_2 1_555 1_555
O2B C7B 1_555 1_555
C1B C7B 1_555 1_555
C2B C8B 1_555 1_555
C5B C6B 1_555 1_555
C10B C11B 1_555 1_555
C12B C13B 1_555 1_555

#END
