
#######################################################################
#
#                 Cambridge Crystallographic Data Centre
#                                CCDC 
#
#######################################################################
#
# If this CIF has been generated from an entry in the Cambridge 
# Structural Database, then it will include bibliographic, chemical, 
# crystal, experimental, refinement or atomic coordinate data resulting 
# from the CCDC's data processing and validation procedures.
#
#######################################################################

data_VEHTUZ
_symmetry_cell_setting           monoclinic
_symmetry_space_group_name_H-M   'C 2/c'
_symmetry_Int_Tables_number      15
_space_group_name_Hall           '-C 2yn'
loop_
_symmetry_equiv_pos_site_id
_symmetry_equiv_pos_as_xyz
1 x,y,z
2 -x,y,1/2-z
3 1/2+x,1/2+y,z
4 1/2-x,1/2+y,1/2-z
5 -x,-y,-z
6 x,-y,1/2+z
7 1/2-x,1/2-y,-z
8 1/2+x,1/2-y,1/2+z
_cell_length_a                   24.277(2)
_cell_length_b                   29.3537(15)
_cell_length_c                   20.5347(18)
_cell_angle_alpha                90
_cell_angle_beta                 121.609(4)
_cell_angle_gamma                90
_cell_volume                     12462.5
loop_
_atom_site_label
_atom_site_type_symbol
_atom_site_fract_x
_atom_site_fract_y
_atom_site_fract_z
V1 V 0.38594(4) 0.19689(3) 0.16313(5)
V2 V 0.48015(4) 0.19666(4) 0.35212(5)
O1 O 0.41049(19) 0.2027(2) 0.2608(2)
O2 O 0.4848(5) 0.2482(5) 0.3925(7)
O3 O 0.4742(4) 0.1605(4) 0.4102(6)
O4 O 0.4500(2) 0.2045(4) 0.1494(3)
O5 O 0.3567(4) 0.2489(4) 0.1303(5)
O6 O 0.3254(4) 0.1635(3) 0.1058(5)
V1A V 0.61406(4) 0.19689(3) 0.33687(5)
V2A V 0.51985(4) 0.19666(4) 0.14788(5)
O1A O 0.58951(19) 0.2027(2) 0.2392(2)
O2A O 0.5152(5) 0.2482(5) 0.1075(7)
O3A O 0.5258(4) 0.1605(4) 0.0898(6)
O4A O 0.5500(2) 0.2045(4) 0.3506(3)
O5A O 0.6433(4) 0.2489(4) 0.3697(5)
O6A O 0.6746(4) 0.1635(3) 0.3942(5)
O7 O 0.20733(14) 0.36317(11) 0.39803(18)
O8 O 0.36353(14) 0.54982(10) 0.25138(18)
O9 O 0.43571(15) 0.38175(11) 0.35695(18)
O10 O 0.29834(13) 0.47842(10) 0.11930(17)
O11 O 0.34532(14) 0.37648(10) 0.18293(18)
O12 O 0.44692(15) 0.48662(11) 0.40279(18)
O13 O 0.11479(16) 0.35861(12) 0.21738(19)
O14 O 0.06813(16) 0.45784(13) 0.1514(2)
O15 O 0.13500(15) 0.52309(13) 0.29085(19)
O16 O 0.21942(14) 0.46807(12) 0.44536(18)
O17 O 0.11058(17) 0.42818(13) 0.3159(2)
O18 O 0.42062(17) 0.46285(12) 0.2556(2)
O19 O 0.5000 0.36942(19) 0.2500
O20 O 0.0000 0.5033(2) 0.2500
C1 C 0.2195(2) 0.29841(14) 0.3043(3)
H1 H 0.1823 0.2988 0.3101
H2 H 0.2316 0.2668 0.3049
C2 C 0.24052(19) 0.47906(14) 0.0948(2)
C3 C 0.2963(2) 0.35764(13) 0.1720(2)
C4 C 0.41974(18) 0.48975(15) 0.4388(2)
C5 C 0.31873(19) 0.56244(12) 0.2580(2)
C6 C 0.2375(2) 0.55996(14) 0.1204(2)
H3 H 0.2081 0.5833 0.0868
H4 H 0.2753 0.5604 0.1159
C7 C 0.4062(2) 0.36412(14) 0.3836(2)
C8 C 0.2499(2) 0.55688(16) 0.4192(3)
H5 H 0.2118 0.5511 0.4220
H6 H 0.2696 0.5848 0.4472
C9 C 0.3655(2) 0.52275(15) 0.4942(2)
C10 C 0.2282(2) 0.30563(13) 0.1845(3)
C11 C 0.1493(2) 0.34658(14) 0.1935(2)
C12 C 0.2609(2) 0.35271(14) 0.4095(2)
C13 C 0.13689(19) 0.50786(16) 0.0539(2)
C14 C 0.45127(19) 0.41407(16) 0.4953(2)
H7 H 0.4845 0.4183 0.4831
H8 H 0.4726 0.4056 0.5488
C15 C 0.3202(2) 0.40312(16) 0.5196(3)
H9 H 0.2806 0.4007 0.5202
H10 H 0.3559 0.3960 0.5706
C16 C 0.2231(2) 0.39905(15) 0.0542(2)
H11 H 0.1919 0.3860 0.0050
H12 H 0.2631 0.4036 0.0553
C17 C 0.2751(2) 0.47803(16) 0.4654(2)
C18 C 0.3516(2) 0.30653(14) 0.2826(3)
H13 H 0.3882 0.3116 0.2766
H14 H 0.3474 0.2739 0.2864
C19 C 0.3409(2) 0.31217(14) 0.4015(3)
C20 C 0.1734(2) 0.54603(15) 0.2825(3)
C21 C 0.3821(2) 0.56746(15) 0.3973(2)
H15 H 0.4175 0.5675 0.3882
H16 H 0.3872 0.5941 0.4279
C22 C 0.13163(19) 0.45549(16) 0.0309(2)
C23 C 0.09340(19) 0.46585(17) 0.1141(2)
C24 C 0.1064(2) 0.54799(18) 0.1430(3)
H17 H 0.0943 0.5742 0.1094
H18 H 0.0722 0.5430 0.1534
C25 C 0.1003(2) 0.5413(2) -0.0129(3)
H19 H 0.1158 0.5384 -0.0472
H20 H 0.1074 0.5719 0.0065
H21 H 0.0549 0.5346 -0.0398
C26 C 0.2161(2) 0.59025(14) 0.2241(3)
C27 C 0.0887(2) 0.38728(17) 0.0715(3)
H22 H 0.0537 0.3850 0.0812
H23 H 0.0725 0.3760 0.0202
C28 C 0.2629(2) 0.59226(13) 0.3133(3)
C29 C 0.3931(2) 0.56056(17) 0.5540(3)
H24 H 0.3798 0.5558 0.5901
H25 H 0.3773 0.5895 0.5293
H26 H 0.4394 0.5601 0.5803
C30 C 0.4346(2) 0.4684(2) 0.6131(2)
H27 H 0.4729 0.4860 0.6284
H28 H 0.4462 0.4370 0.6264
H29 H 0.4139 0.4797 0.6389
C31 C 0.38829(19) 0.47256(16) 0.5266(2)
C32 C 0.3739(2) 0.34686(15) 0.4713(2)
C33 C 0.0901(2) 0.4450(2) -0.0541(3)
H30 H 0.0876 0.4126 -0.0617
H31 H 0.1090 0.4588 -0.0803
H32 H 0.0474 0.4570 -0.0741
C34 C 0.4180(3) 0.3253(2) 0.5493(3)
H33 H 0.3935 0.3045 0.5604
H34 H 0.4360 0.3487 0.5877
H35 H 0.4523 0.3092 0.5491
C35 C 0.1868(2) 0.33504(15) 0.1103(2)
C36 C 0.3565(3) 0.26221(17) 0.4224(4)
H36 H 0.4019 0.2572 0.4444
H37 H 0.3325 0.2439 0.3773
H38 H 0.3447 0.2540 0.4588
C37 C 0.2257(3) 0.25427(16) 0.1719(4)
H39 H 0.1816 0.2441 0.1473
H40 H 0.2510 0.2392 0.2203
H41 H 0.2427 0.2472 0.1402
C38 C 0.1524(3) 0.3089(2) 0.0352(3)
H42 H 0.1284 0.3297 -0.0063
H43 H 0.1234 0.2871 0.0363
H44 H 0.1838 0.2932 0.0284
C39 C 0.1876(3) 0.63595(18) 0.1844(4)
H45 H 0.1616 0.6314 0.1301
H46 H 0.2221 0.6568 0.1960
H47 H 0.1613 0.6483 0.2023
C40 C 0.2764(3) 0.63975(16) 0.3482(4)
H48 H 0.3011 0.6374 0.4030
H49 H 0.2362 0.6549 0.3322
H50 H 0.3004 0.6569 0.3315
N1 N 0.20097(17) 0.31821(12) 0.2308(2)
N2 N 0.41789(16) 0.45691(13) 0.4844(2)
N3 N 0.31855(16) 0.36942(13) 0.4671(2)
N4 N 0.22991(17) 0.56349(12) 0.3398(2)
N5 N 0.32185(16) 0.57165(12) 0.3244(2)
N6 N 0.25725(17) 0.57102(12) 0.1986(2)
N7 N 0.20633(16) 0.51611(12) 0.09535(19)
N8 N 0.38753(17) 0.52763(13) 0.4406(2)
N9 N 0.19922(17) 0.44308(12) 0.0611(2)
N10 N 0.27220(17) 0.32158(12) 0.3684(2)
N11 N 0.36494(18) 0.32775(12) 0.3532(2)
N12 N 0.11045(17) 0.50825(14) 0.1031(2)
N13 N 0.32701(17) 0.44945(13) 0.5020(2)
N14 N 0.23472(17) 0.36693(12) 0.1134(2)
N15 N 0.29537(16) 0.51953(13) 0.4562(2)
N16 N 0.29398(18) 0.32321(11) 0.2156(2)
N17 N 0.40968(17) 0.37705(13) 0.4495(2)
N18 N 0.14114(17) 0.35805(13) 0.1252(2)
N19 N 0.16569(17) 0.55850(14) 0.2144(2)
N20 N 0.10557(17) 0.43507(14) 0.0743(2)
Li1 Li 0.0724(8) 0.4781(7) 0.2489(11)
Li2 Li 0.4290(4) 0.3987(3) 0.2613(5)
O7A O -0.20733(14) 0.36317(11) 0.10197(18)
O8A O -0.36353(14) 0.54982(10) 0.24862(18)
O9A O -0.43571(15) 0.38175(11) 0.14305(18)
O10A O -0.29834(13) 0.47842(10) 0.38070(17)
O11A O -0.34532(14) 0.37648(10) 0.31707(18)
O12A O -0.44692(15) 0.48662(11) 0.09721(18)
O13A O -0.11479(16) 0.35861(12) 0.28262(19)
O14A O -0.06813(16) 0.45784(13) 0.3486(2)
O15A O -0.13500(15) 0.52309(13) 0.20915(19)
O16A O -0.21942(14) 0.46807(12) 0.05464(18)
O17A O -0.11058(17) 0.42818(13) 0.1841(2)
O18A O -0.42062(17) 0.46285(12) 0.2444(2)
O19_2 O -0.5000 0.36942(19) 0.2500
C1A C -0.2195(2) 0.29841(14) 0.1957(3)
H1A H -0.1823 0.2988 0.1899
H2A H -0.2316 0.2668 0.1951
C2A C -0.24052(19) 0.47906(14) 0.4052(2)
C3A C -0.2963(2) 0.35764(13) 0.3280(2)
C4A C -0.41974(18) 0.48975(15) 0.0612(2)
C5A C -0.31873(19) 0.56244(12) 0.2420(2)
C6A C -0.2375(2) 0.55996(14) 0.3796(2)
H3A H -0.2081 0.5833 0.4132
H4A H -0.2753 0.5604 0.3841
C7A C -0.4062(2) 0.36412(14) 0.1164(2)
C8A C -0.2499(2) 0.55688(16) 0.0808(3)
H5A H -0.2118 0.5511 0.0780
H6A H -0.2696 0.5848 0.0528
C9A C -0.3655(2) 0.52275(15) 0.0058(2)
C10A C -0.2282(2) 0.30563(13) 0.3155(3)
C11A C -0.1493(2) 0.34658(14) 0.3065(2)
C12A C -0.2609(2) 0.35271(14) 0.0905(2)
C13A C -0.13689(19) 0.50786(16) 0.4461(2)
C14A C -0.45127(19) 0.41407(16) 0.0047(2)
H7A H -0.4845 0.4183 0.0169
H8A H -0.4726 0.4056 -0.0488
C15A C -0.3202(2) 0.40312(16) -0.0196(3)
H9A H -0.2806 0.4007 -0.0202
H10A H -0.3559 0.3960 -0.0706
C16A C -0.2231(2) 0.39905(15) 0.4458(2)
H11A H -0.1919 0.3860 0.4950
H12A H -0.2631 0.4036 0.4447
C17A C -0.2751(2) 0.47803(16) 0.0346(2)
C18A C -0.3516(2) 0.30653(14) 0.2174(3)
H13A H -0.3882 0.3116 0.2234
H14A H -0.3474 0.2739 0.2136
C19A C -0.3409(2) 0.31217(14) 0.0985(3)
C20A C -0.1734(2) 0.54603(15) 0.2175(3)
C21A C -0.3821(2) 0.56746(15) 0.1027(2)
H15A H -0.4175 0.5675 0.1118
H16A H -0.3872 0.5941 0.0721
C22A C -0.13163(19) 0.45549(16) 0.4691(2)
C23A C -0.09340(19) 0.46585(17) 0.3859(2)
C24A C -0.1064(2) 0.54799(18) 0.3570(3)
H17A H -0.0943 0.5742 0.3906
H18A H -0.0722 0.5430 0.3466
C25A C -0.1003(2) 0.5413(2) 0.5129(3)
H19A H -0.1158 0.5384 0.5472
H20A H -0.1074 0.5719 0.4935
H21A H -0.0549 0.5346 0.5398
C26A C -0.2161(2) 0.59025(14) 0.2759(3)
C27A C -0.0887(2) 0.38728(17) 0.4285(3)
H22A H -0.0537 0.3850 0.4188
H23A H -0.0725 0.3760 0.4798
C28A C -0.2629(2) 0.59226(13) 0.1867(3)
C29A C -0.3931(2) 0.56056(17) -0.0540(3)
H24A H -0.3798 0.5558 -0.0901
H25A H -0.3773 0.5895 -0.0293
H26A H -0.4394 0.5601 -0.0803
C30A C -0.4346(2) 0.4684(2) -0.1131(2)
H27A H -0.4729 0.4860 -0.1284
H28A H -0.4462 0.4370 -0.1264
H29A H -0.4139 0.4797 -0.1389
C31A C -0.38829(19) 0.47256(16) -0.0266(2)
C32A C -0.3739(2) 0.34686(15) 0.0287(2)
C33A C -0.0901(2) 0.4450(2) 0.5541(3)
H30A H -0.0876 0.4126 0.5617
H31A H -0.1090 0.4588 0.5803
H32A H -0.0474 0.4570 0.5741
C34A C -0.4180(3) 0.3253(2) -0.0493(3)
H33A H -0.3935 0.3045 -0.0604
H34A H -0.4360 0.3487 -0.0877
H35A H -0.4523 0.3092 -0.0491
C35A C -0.1868(2) 0.33504(15) 0.3897(2)
C36A C -0.3565(3) 0.26221(17) 0.0776(4)
H36A H -0.4019 0.2572 0.0556
H37A H -0.3325 0.2439 0.1227
H38A H -0.3447 0.2540 0.0412
C37A C -0.2257(3) 0.25427(16) 0.3281(4)
H39A H -0.1816 0.2441 0.3527
H40A H -0.2510 0.2392 0.2797
H41A H -0.2427 0.2472 0.3598
C38A C -0.1524(3) 0.3089(2) 0.4648(3)
H42A H -0.1284 0.3297 0.5063
H43A H -0.1234 0.2871 0.4637
H44A H -0.1838 0.2932 0.4716
C39A C -0.1876(3) 0.63595(18) 0.3156(4)
H45A H -0.1616 0.6314 0.3699
H46A H -0.2221 0.6568 0.3040
H47A H -0.1613 0.6483 0.2977
C40A C -0.2764(3) 0.63975(16) 0.1518(4)
H48A H -0.3011 0.6374 0.0970
H49A H -0.2362 0.6549 0.1678
H50A H -0.3004 0.6569 0.1685
N1A N -0.20097(17) 0.31821(12) 0.2692(2)
N2A N -0.41789(16) 0.45691(13) 0.0156(2)
N3A N -0.31855(16) 0.36942(13) 0.0329(2)
N4A N -0.22991(17) 0.56349(12) 0.1602(2)
N5A N -0.32185(16) 0.57165(12) 0.1756(2)
N6A N -0.25725(17) 0.57102(12) 0.3014(2)
N7A N -0.20633(16) 0.51611(12) 0.40465(19)
N8A N -0.38753(17) 0.52763(13) 0.0594(2)
N9A N -0.19922(17) 0.44308(12) 0.4389(2)
N10A N -0.27220(17) 0.32158(12) 0.1316(2)
N11A N -0.36494(18) 0.32775(12) 0.1468(2)
N12A N -0.11045(17) 0.50825(14) 0.3969(2)
N13A N -0.32701(17) 0.44945(13) -0.0020(2)
N14A N -0.23472(17) 0.36693(12) 0.3866(2)
N15A N -0.29537(16) 0.51953(13) 0.0438(2)
N16A N -0.29398(18) 0.32321(11) 0.2844(2)
N17A N -0.40968(17) 0.37705(13) 0.0505(2)
N18A N -0.14114(17) 0.35805(13) 0.3748(2)
N19A N -0.16569(17) 0.55850(14) 0.2856(2)
N20A N -0.10557(17) 0.43507(14) 0.4257(2)
Li1A Li -0.0724(8) 0.4781(7) 0.2511(11)
Li2A Li -0.4290(4) 0.3987(3) 0.2387(5)
Li2A_2 Li 0.5710(4) 0.3987(3) 0.2387(5)
O21 O 0.7962(3) 0.1912(2) 0.5157(4)
O22 O 0.5219(3) 0.1216(3) 0.8383(5)
O23 O 0.3209(4) 0.1582(3) 0.4883(4)
O24 O 0.2359(9) 0.0560(6) -0.2821(10)
O25 O 0.4576(7) 0.1752(5) 0.5321(8)
O27 O 0.0620(6) -0.1185(4) -0.2330(8)
O28 O 0.4500(7) 0.3087(5) 0.1492(9)
O29 O 0.5759(12) 0.3173(8) 0.5142(13)
O30 O 0.2873(9) 0.2828(7) 0.5793(12)
O31 O 0.0621(9) 0.2477(7) 0.1300(12)
O26? O 0.5107(14) -0.0940(8) -0.242(2)
O32? O 0.4819(13) -0.0935(8) -0.2325(14)
O33? O 0.0433(6) -0.1159(4) -0.2796(7)
O34? O 0.4262(7) 0.3151(5) 0.1053(9)
O35? O 0.4888(4) 0.1419(4) 0.3669(6)
O36? O 0.5345(12) 0.2976(8) 0.5018(13)
O37? O 0.3198(5) 0.2249(4) 0.1078(5)
O38? O 0.3718(5) 0.1432(3) 0.1444(5)
O39? O 0.4762(5) 0.2181(5) 0.4176(7)
O40? O 0.4350(7) 0.1586(5) 0.5032(8)
loop_
_geom_bond_atom_site_label_1
_geom_bond_atom_site_label_2
_geom_bond_site_symmetry_1
_geom_bond_site_symmetry_2
V1 O1 1_555 1_555
V2 O1 1_555 1_555
O2 V2 1_555 1_555
O3 V2 1_555 1_555
O4 V1 1_555 1_555
O5 V1 1_555 1_555
O6 V1 1_555 1_555
O7 C12 1_555 1_555
O8 C5 1_555 1_555
O9 C7 1_555 1_555
O10 C2 1_555 1_555
O11 C3 1_555 1_555
O12 C4 1_555 1_555
O13 C11 1_555 1_555
O14 C23 1_555 1_555
O15 C20 1_555 1_555
O16 C17 1_555 1_555
O17 Li1 1_555 1_555
O18 Li2 1_555 1_555
O19 Li2 1_555 1_555
O20 Li1 1_555 1_555
C1 H1 1_555 1_555
H2 C1 1_555 1_555
C2 N7 1_555 1_555
C3 N14 1_555 1_555
C4 N2 1_555 1_555
C5 N5 1_555 1_555
C6 H3 1_555 1_555
H4 C6 1_555 1_555
C7 N11 1_555 1_555
C8 H5 1_555 1_555
H6 C8 1_555 1_555
C9 C29 1_555 1_555
C10 C35 1_555 1_555
C11 N1 1_555 1_555
C12 N3 1_555 1_555
C13 C22 1_555 1_555
C14 H7 1_555 1_555
H8 C14 1_555 1_555
C15 H9 1_555 1_555
H10 C15 1_555 1_555
C16 H11 1_555 1_555
H12 C16 1_555 1_555
C17 N13 1_555 1_555
C18 H13 1_555 1_555
H14 C18 1_555 1_555
C19 C32 1_555 1_555
C20 N4 1_555 1_555
C21 H15 1_555 1_555
H16 C21 1_555 1_555
C22 C33 1_555 1_555
C23 N12 1_555 1_555
C24 H17 1_555 1_555
H18 C24 1_555 1_555
C25 C13 1_555 1_555
H19 C25 1_555 1_555
H20 C25 1_555 1_555
H21 C25 1_555 1_555
C26 C28 1_555 1_555
C27 H22 1_555 1_555
H23 C27 1_555 1_555
C28 C40 1_555 1_555
C29 H24 1_555 1_555
H25 C29 1_555 1_555
H26 C29 1_555 1_555
C30 H27 1_555 1_555
H28 C30 1_555 1_555
H29 C30 1_555 1_555
C31 C9 1_555 1_555
C32 C34 1_555 1_555
C33 H30 1_555 1_555
H31 C33 1_555 1_555
H32 C33 1_555 1_555
C34 H33 1_555 1_555
H34 C34 1_555 1_555
H35 C34 1_555 1_555
C35 C38 1_555 1_555
C36 C19 1_555 1_555
H36 C36 1_555 1_555
H37 C36 1_555 1_555
H38 C36 1_555 1_555
C37 C10 1_555 1_555
H39 C37 1_555 1_555
H40 C37 1_555 1_555
H41 C37 1_555 1_555
C38 H42 1_555 1_555
H43 C38 1_555 1_555
H44 C38 1_555 1_555
C39 C26 1_555 1_555
H45 C39 1_555 1_555
H46 C39 1_555 1_555
H47 C39 1_555 1_555
C40 H48 1_555 1_555
H49 C40 1_555 1_555
H50 C40 1_555 1_555
N1 C1 1_555 1_555
N2 C14 1_555 1_555
N3 C15 1_555 1_555
N4 C8 1_555 1_555
N5 C21 1_555 1_555
N6 C5 1_555 1_555
N7 C6 1_555 1_555
N8 C4 1_555 1_555
N9 C2 1_555 1_555
N10 C1 1_555 1_555
N11 C18 1_555 1_555
N12 C13 1_555 1_555
N13 C15 1_555 1_555
N14 C16 1_555 1_555
N15 C8 1_555 1_555
N16 C3 1_555 1_555
N17 C7 1_555 1_555
N18 C11 1_555 1_555
N19 C20 1_555 1_555
N20 C22 1_555 1_555
Li1 O14 1_555 1_555
Li2 O9 1_555 1_555
V1A O1A 1_555 1_555
V2A O4 1_555 1_555
O1A V2A 1_555 1_555
O2A V2A 1_555 1_555
O3A V2A 1_555 1_555
O4A V2 1_555 1_555
O5A V1A 1_555 1_555
O6A V1A 1_555 1_555
O7A C12A 1_555 1_555
O8A C5A 1_555 1_555
O9A C7A 1_555 1_555
O10A C2A 1_555 1_555
O11A C3A 1_555 1_555
O12A C4A 1_555 1_555
O13A C11A 1_555 1_555
O14A C23A 1_555 1_555
O15A C20A 1_555 1_555
O16A C17A 1_555 1_555
O17A Li1A 1_555 1_555
O18A Li2A 1_555 1_555
O19_2 Li2A 1_555 1_555
C1A H1A 1_555 1_555
H2A C1A 1_555 1_555
C2A N7A 1_555 1_555
C3A N14A 1_555 1_555
C4A N2A 1_555 1_555
C5A N5A 1_555 1_555
C6A H3A 1_555 1_555
H4A C6A 1_555 1_555
C7A N11A 1_555 1_555
C8A H5A 1_555 1_555
H6A C8A 1_555 1_555
C9A C29A 1_555 1_555
C10A C35A 1_555 1_555
C11A N1A 1_555 1_555
C12A N3A 1_555 1_555
C13A C22A 1_555 1_555
C14A H7A 1_555 1_555
H8A C14A 1_555 1_555
C15A H9A 1_555 1_555
H10A C15A 1_555 1_555
C16A H11A 1_555 1_555
H12A C16A 1_555 1_555
C17A N13A 1_555 1_555
C18A H13A 1_555 1_555
H14A C18A 1_555 1_555
C19A C32A 1_555 1_555
C20A N4A 1_555 1_555
C21A H15A 1_555 1_555
H16A C21A 1_555 1_555
C22A C33A 1_555 1_555
C23A N12A 1_555 1_555
C24A H17A 1_555 1_555
H18A C24A 1_555 1_555
C25A C13A 1_555 1_555
H19A C25A 1_555 1_555
H20A C25A 1_555 1_555
H21A C25A 1_555 1_555
C26A C28A 1_555 1_555
C27A H22A 1_555 1_555
H23A C27A 1_555 1_555
C28A C40A 1_555 1_555
C29A H24A 1_555 1_555
H25A C29A 1_555 1_555
H26A C29A 1_555 1_555
C30A H27A 1_555 1_555
H28A C30A 1_555 1_555
H29A C30A 1_555 1_555
C31A C9A 1_555 1_555
C32A C34A 1_555 1_555
C33A H30A 1_555 1_555
H31A C33A 1_555 1_555
H32A C33A 1_555 1_555
C34A H33A 1_555 1_555
H34A C34A 1_555 1_555
H35A C34A 1_555 1_555
C35A C38A 1_555 1_555
C36A C19A 1_555 1_555
H36A C36A 1_555 1_555
H37A C36A 1_555 1_555
H38A C36A 1_555 1_555
C37A C10A 1_555 1_555
H39A C37A 1_555 1_555
H40A C37A 1_555 1_555
H41A C37A 1_555 1_555
C38A H42A 1_555 1_555
H43A C38A 1_555 1_555
H44A C38A 1_555 1_555
C39A C26A 1_555 1_555
H45A C39A 1_555 1_555
H46A C39A 1_555 1_555
H47A C39A 1_555 1_555
C40A H48A 1_555 1_555
H49A C40A 1_555 1_555
H50A C40A 1_555 1_555
N1A C1A 1_555 1_555
N2A C14A 1_555 1_555
N3A C15A 1_555 1_555
N4A C8A 1_555 1_555
N5A C21A 1_555 1_555
N6A C5A 1_555 1_555
N7A C6A 1_555 1_555
N8A C4A 1_555 1_555
N9A C2A 1_555 1_555
N10A C1A 1_555 1_555
N11A C18A 1_555 1_555
N12A C13A 1_555 1_555
N13A C15A 1_555 1_555
N14A C16A 1_555 1_555
N15A C8A 1_555 1_555
N16A C3A 1_555 1_555
N17A C7A 1_555 1_555
N18A C11A 1_555 1_555
N19A C20A 1_555 1_555
N20A C22A 1_555 1_555
Li1A O20 1_555 1_555
Li2A O9A 1_555 1_555
Li2A_2 O19 1_555 1_555
O11 Li2 1_555 1_555
O15 Li1 1_555 1_555
C6 N6 1_555 1_555
C9 N8 1_555 1_555
C9 N15 1_555 1_555
C10 N1 1_555 1_555
C10 N16 1_555 1_555
C12 N10 1_555 1_555
C13 N7 1_555 1_555
C14 N17 1_555 1_555
C16 N9 1_555 1_555
C17 N15 1_555 1_555
C18 N16 1_555 1_555
C19 N10 1_555 1_555
C19 N11 1_555 1_555
C21 N8 1_555 1_555
C22 N9 1_555 1_555
C23 N20 1_555 1_555
C24 N12 1_555 1_555
C24 N19 1_555 1_555
C26 N6 1_555 1_555
C26 N19 1_555 1_555
C27 N18 1_555 1_555
C27 N20 1_555 1_555
C28 N4 1_555 1_555
C28 N5 1_555 1_555
C30 C31 1_555 1_555
C31 N2 1_555 1_555
C31 N13 1_555 1_555
C32 N3 1_555 1_555
C32 N17 1_555 1_555
C35 N14 1_555 1_555
C35 N18 1_555 1_555
V1A O4A 1_555 1_555
O11A Li2A 1_555 1_555
O14A Li1A 1_555 1_555
O15A Li1A 1_555 1_555
C6A N6A 1_555 1_555
C9A N8A 1_555 1_555
C9A N15A 1_555 1_555
C10A N1A 1_555 1_555
C10A N16A 1_555 1_555
C12A N10A 1_555 1_555
C13A N7A 1_555 1_555
C14A N17A 1_555 1_555
C16A N9A 1_555 1_555
C17A N15A 1_555 1_555
C18A N16A 1_555 1_555
C19A N10A 1_555 1_555
C19A N11A 1_555 1_555
C21A N8A 1_555 1_555
C22A N9A 1_555 1_555
C23A N20A 1_555 1_555
C24A N12A 1_555 1_555
C24A N19A 1_555 1_555
C26A N6A 1_555 1_555
C26A N19A 1_555 1_555
C27A N18A 1_555 1_555
C27A N20A 1_555 1_555
C28A N4A 1_555 1_555
C28A N5A 1_555 1_555
C30A C31A 1_555 1_555
C31A N2A 1_555 1_555
C31A N13A 1_555 1_555
C32A N3A 1_555 1_555
C32A N17A 1_555 1_555
C35A N14A 1_555 1_555
C35A N18A 1_555 1_555

#END
