
#######################################################################
#
#                 Cambridge Crystallographic Data Centre
#                                CCDC 
#
#######################################################################
#
# If this CIF has been generated from an entry in the Cambridge 
# Structural Database, then it will include bibliographic, chemical, 
# crystal, experimental, refinement or atomic coordinate data resulting 
# from the CCDC's data processing and validation procedures.
#
#######################################################################

data_VEJCUK
_symmetry_cell_setting           monoclinic
_symmetry_space_group_name_H-M   'P 21/n'
_symmetry_Int_Tables_number      14
_space_group_name_Hall           '-P 2yn'
loop_
_symmetry_equiv_pos_site_id
_symmetry_equiv_pos_as_xyz
1 x,y,z
2 1/2-x,1/2+y,1/2-z
3 -x,-y,-z
4 1/2+x,1/2-y,1/2+z
_cell_length_a                   13.475(7)
_cell_length_b                   17.497(9)
_cell_length_c                   28.988(15)
_cell_angle_alpha                90
_cell_angle_beta                 96.516(11)
_cell_angle_gamma                90
_cell_volume                     6790.41
loop_
_atom_site_label
_atom_site_type_symbol
_atom_site_fract_x
_atom_site_fract_y
_atom_site_fract_z
N9 N 0.2905(17) 1.2726(13) 0.0930(8)
N10 N 0.3622(17) 1.3117(12) 0.1246(7)
N11 N 0.6345(14) 1.3540(13) 0.0771(6)
H18 H 0.6945 1.3608 0.0705
C21 C 0.4515(17) 1.3268(11) 0.1079(9)
C22 C 0.4964(16) 1.3940(12) 0.1169(7)
H19 H 0.4688 1.4308 0.1348
C23 C 0.589(2) 1.4073(14) 0.0981(7)
H20 H 0.6171 1.4558 0.1010
C24 C 0.588(2) 1.2907(14) 0.0663(10)
H21 H 0.6174 1.2547 0.0485
C25 C 0.4977(16) 1.2755(11) 0.0801(9)
H22 H 0.4657 1.2300 0.0710
C26 C 0.2707(13) 1.1954(10) 0.1007(6)
C27 C 0.2058(13) 1.1459(10) 0.0762(6)
H23 H 0.1681 1.1622 0.0491
C28 C 0.1965(13) 1.0744(10) 0.0909(6)
H24 H 0.1491 1.0419 0.0756
N12 N 0.2583(13) 1.0492(10) 0.1293(6)
H25 H 0.2594 1.0023 0.1382
C29 C 0.3158(16) 1.1024(12) 0.1516(7)
H26 H 0.3533 1.0851 0.1785
C30 C 0.3296(18) 1.1783(13) 0.1420(8)
H27 H 0.3708 1.2122 0.1599
Mo1 Mo -0.00358(8) 0.57783(5) 0.22897(3)
Mo2 Mo -0.16633(7) 0.54181(5) 0.05534(3)
Mo3 Mo -0.07814(7) 0.47263(5) 0.12934(3)
Mo4 Mo -0.15452(8) 0.29880(5) -0.01583(3)
Mo5 Mo 0.17083(7) 0.49678(5) 0.16735(3)
Mo6 Mo -0.03433(7) 0.66931(5) -0.00831(3)
Mo7 Mo 0.22637(8) 0.80429(6) 0.11678(4)
Mo8 Mo -0.22408(8) 0.73391(6) 0.05072(3)
Mo9 Mo 0.28778(7) 0.61443(6) 0.10868(3)
Mo10 Mo -0.03607(8) 0.72616(6) 0.23233(3)
Mo11 Mo 0.09382(8) 0.85503(6) 0.16946(4)
Mo12 Mo -0.15760(8) 0.82931(6) 0.14253(4)
Zn1 Zn -0.22563(10) 0.63902(7) 0.15556(4)
Zn2 Zn 0.21739(11) 0.68073(8) 0.21261(5)
Zn3 Zn -0.09752(10) 0.49292(7) -0.04758(4)
Zn4 Zn -0.01150(11) 0.84948(8) 0.05116(5)
P1 P 0.0193(2) 0.66797(15) 0.11759(9)
O1 O -0.1210(5) 0.5756(4) -0.0049(2)
O2 O -0.1939(5) 0.4744(4) -0.1019(2)
O3 O 0.0374(5) 0.5054(4) -0.0678(2)
O4 O -0.0619(5) 0.6567(4) 0.0753(2)
O5 O 0.1206(6) 0.6858(4) 0.0998(2)
O6 O 0.1248(6) 0.5203(4) 0.2223(2)
O7 O -0.0790(5) 0.3954(4) -0.0139(2)
O8 O 0.2460(6) 0.5955(4) 0.1725(2)
O9 O -0.1182(6) 0.6393(4) 0.2074(3)
O10 O 0.0345(6) 0.7628(4) 0.0152(2)
O11 O -0.1841(6) 0.5506(4) 0.1216(2)
O12 O 0.1986(6) 0.7772(4) 0.1801(3)
O13 O -0.2604(6) 0.6333(4) 0.0495(2)
O14 O -0.1359(6) 0.3866(4) 0.1263(3)
O15 O 0.0657(6) 0.4396(4) 0.1435(2)
O16 O 0.0872(6) 0.6672(4) 0.2352(3)
O17 O 0.0973(6) 0.8532(4) 0.1020(3)
O18 O -0.0202(6) 0.5543(4) 0.2841(3)
O19 O -0.1370(6) 0.8197(4) 0.0748(3)
O20 O -0.1580(6) 0.7314(4) 0.0000(3)
O21 O -0.0393(6) 0.6766(5) -0.0663(3)
O22 O -0.0598(7) 0.7351(5) 0.2873(3)
O23 O 0.0245(6) 0.5929(4) 0.1463(2)
O24 O 0.3194(6) 0.7118(4) 0.1270(3)
O25 O 0.0461(6) 0.8168(4) 0.2264(3)
O26 O -0.0724(6) 0.4916(4) 0.1960(2)
O27 O 0.2254(6) 0.7831(4) 0.0506(3)
O28 O -0.0088(6) 0.7349(4) 0.1486(2)
O29 O 0.3089(7) 0.8767(4) 0.1239(3)
O30 O -0.1931(6) 0.2876(5) 0.0363(3)
O31 O -0.2275(6) 0.7328(4) 0.1190(3)
O32 O 0.3987(6) 0.5694(5) 0.1132(3)
O33 O 0.2615(6) 0.6328(4) 0.0466(3)
O34 O 0.1468(7) 0.9381(5) 0.1877(3)
O35 O -0.2460(6) 0.4733(4) 0.0360(3)
O36 O 0.2606(6) 0.4302(4) 0.1807(3)
O37 O -0.3309(6) 0.7802(5) 0.0322(3)
O38 O -0.1508(6) 0.7898(4) 0.2009(3)
O39 O -0.0477(6) 0.8900(4) 0.1512(3)
O40 O -0.2542(7) 0.8897(5) 0.1407(3)
N1 N -0.3559(7) 0.6251(5) 0.1757(3)
N2 N -0.4292(7) 0.6840(5) 0.1652(3)
N3 N -0.4462(9) 0.4317(6) 0.2403(4)
N4 N -0.4360(8) 0.8704(6) 0.2485(4)
H1 H -0.4390 0.9098 0.2661
C1 C -0.3896(8) 0.5645(6) 0.1977(3)
C2 C -0.3194(10) 0.5048(7) 0.2120(5)
H2 H -0.2526 0.5102 0.2074
C3 C -0.3508(13) 0.4399(8) 0.2326(5)
H3 H -0.3052 0.4011 0.2412
C4 C -0.5136(10) 0.4884(7) 0.2275(4)
H4 H -0.5802 0.4817 0.2322
C5 C -0.4856(9) 0.5540(7) 0.2081(4)
H5 H -0.5322 0.5928 0.2016
C6 C -0.4291(10) 0.7429(7) 0.1931(4)
C7 C -0.4918(11) 0.8066(6) 0.1797(5)
H6 H -0.5336 0.8050 0.1518
C8 C -0.4912(10) 0.8685(7) 0.2064(4)
H7 H -0.5291 0.9109 0.1962
C9 C -0.3777(11) 0.8126(7) 0.2626(5)
H8 H -0.3397 0.8160 0.2914
C10 C -0.3707(10) 0.7470(7) 0.2364(4)
H9 H -0.3288 0.7071 0.2471
N5 N 0.5834(10) 0.6374(8) 0.4018(5)
N6 N 0.5360(11) 0.7032(7) 0.3801(5)
N7 N 0.3225(11) 0.6879(8) 0.2668(5)
C11 C 0.4666(11) 0.6975(9) 0.3432(6)
C12 C 0.4384(15) 0.6266(10) 0.3231(9)
H10 H 0.4679 0.5816 0.3350
C13 C 0.3667(14) 0.6248(9) 0.2858(7)
H11 H 0.3477 0.5776 0.2729
C14 C 0.3481(14) 0.7550(11) 0.2882(6)
H12 H 0.3152 0.7992 0.2770
C15 C 0.4183(14) 0.7611(11) 0.3247(6)
H13 H 0.4342 0.8089 0.3376
C16 C 0.6733(6) 0.6162(6) 0.3941(4)
C17 C 0.7126(8) 0.5551(6) 0.4208(4)
H14 H 0.6773 0.5347 0.4437
C18 C 0.8046(8) 0.5244(5) 0.4133(4)
H15 H 0.8308 0.4835 0.4312
N8 N 0.8573(6) 0.5549(6) 0.3791(4)
H16 H 0.9142 0.5360 0.3745
C19 C 0.8180(9) 0.6161(6) 0.3524(3)
H17 H 0.8533 0.6365 0.3295
C20 C 0.7260(9) 0.6468(5) 0.3599(4)
P2 P -0.0321(5) 1.0069(4) 0.0068(2)
H28 H -0.1210 1.0161 -0.0093
O41 O -0.0327(16) 0.9455(12) 0.0249(8)
O42 O -0.0321(15) 0.9258(12) -0.0004(7)
O43 O 0.001(2) 1.0269(16) 0.0592(9)
Mo1B Mo 0.00358(8) 0.42217(5) -0.22897(3)
Mo2B Mo 0.16633(7) 0.45819(5) -0.05534(3)
Mo3B Mo 0.07814(7) 0.52737(5) -0.12934(3)
Mo4B Mo 0.15452(8) 0.70120(5) 0.01583(3)
Mo4_2 Mo -0.15452(8) 1.29880(5) -0.01583(3)
Mo5B Mo -0.17083(7) 0.50322(5) -0.16735(3)
Mo6B Mo 0.03433(7) 0.33069(5) 0.00831(3)
Mo6B_2 Mo 0.03433(7) 1.33069(5) 0.00831(3)
Mo7B Mo -0.22637(8) 1.19571(6) -0.11678(4)
Mo7B_2 Mo -0.22637(8) 0.19571(6) -0.11678(4)
Mo8B Mo 0.22408(8) 1.26609(6) -0.05072(3)
Mo8B_2 Mo 0.22408(8) 0.26609(6) -0.05072(3)
Mo9B Mo -0.28778(7) 0.38557(6) -0.10868(3)
Mo9B_2 Mo -0.28778(7) 1.38557(6) -0.10868(3)
Mo10B Mo 0.03607(8) 0.27384(6) -0.23233(3)
Mo10B_2 Mo 0.03607(8) 1.27384(6) -0.23233(3)
Mo11B Mo -0.09382(8) 1.14497(6) -0.16946(4)
Mo11B_2 Mo -0.09382(8) 0.14497(6) -0.16946(4)
Mo12B Mo 0.15760(8) 1.17069(6) -0.14253(4)
Mo12B_2 Mo 0.15760(8) 0.17069(6) -0.14253(4)
Zn1B Zn 0.22563(10) 0.36098(7) -0.15556(4)
Zn2B Zn -0.21739(11) 0.31927(8) -0.21261(5)
Zn3B Zn 0.09752(10) 0.50708(7) 0.04758(4)
Zn4B Zn 0.01150(11) 1.15052(8) -0.05116(5)
P1B P -0.0193(2) 0.33203(15) -0.11759(9)
O1B O 0.1210(5) 0.4244(4) 0.0049(2)
O2B O 0.1939(5) 0.5256(4) 0.1019(2)
O3B O -0.0374(5) 0.4946(4) 0.0678(2)
O4B O 0.0619(5) 0.3433(4) -0.0753(2)
O5B O -0.1206(6) 0.3142(4) -0.0998(2)
O6B O -0.1248(6) 0.4797(4) -0.2223(2)
O7B O 0.0790(5) 0.6046(4) 0.0139(2)
O8B O -0.2460(6) 0.4045(4) -0.1725(2)
O9B O 0.1182(6) 0.3607(4) -0.2074(3)
O10B O -0.0345(6) 1.2372(4) -0.0152(2)
O10B_2 O -0.0345(6) 0.2372(4) -0.0152(2)
O11B O 0.1841(6) 0.4494(4) -0.1216(2)
O12B O -0.1986(6) 0.2228(4) -0.1801(3)
O12B_2 O -0.1986(6) 1.2228(4) -0.1801(3)
O13B O 0.2604(6) 0.3667(4) -0.0495(2)
O13B_2 O 0.2604(6) 1.3667(4) -0.0495(2)
O14B O 0.1359(6) 0.6134(4) -0.1263(3)
O15B O -0.0657(6) 0.5604(4) -0.1435(2)
O16B O -0.0872(6) 0.3328(4) -0.2352(3)
O17B O -0.0973(6) 1.1468(4) -0.1020(3)
O18B O 0.0202(6) 0.4457(4) -0.2841(3)
O19B O 0.1370(6) 1.1803(4) -0.0748(3)
O20B O 0.1580(6) 0.2686(4) 0.0000(3)
O20B_2 O 0.1580(6) 1.2686(4) 0.0000(3)
O21B O 0.0393(6) 0.3234(5) 0.0663(3)
O22B O 0.0598(7) 0.2649(5) -0.2873(3)
O23B O -0.0245(6) 0.4071(4) -0.1463(2)
O24B O -0.3194(6) 1.2882(4) -0.1270(3)
O24B_2 O -0.3194(6) 0.2882(4) -0.1270(3)
O25B O -0.0461(6) 1.1832(4) -0.2264(3)
O25B_2 O -0.0461(6) 0.1832(4) -0.2264(3)
O26B O 0.0724(6) 0.5084(4) -0.1960(2)
O27B O -0.2254(6) 0.2169(4) -0.0506(3)
O27B_2 O -0.2254(6) 1.2169(4) -0.0506(3)
O28B O 0.0088(6) 0.2651(4) -0.1486(2)
O29B O -0.3089(7) 1.1233(4) -0.1239(3)
O30B O 0.1931(6) 0.7124(5) -0.0363(3)
O31B O 0.2275(6) 0.2672(4) -0.1190(3)
O31B_2 O 0.2275(6) 1.2672(4) -0.1190(3)
O32B O -0.3987(6) 0.4306(5) -0.1132(3)
O33B O -0.2615(6) 0.3672(4) -0.0466(3)
O34B O -0.1468(7) 1.0619(5) -0.1877(3)
O35B O 0.2460(6) 0.5267(4) -0.0360(3)
O36B O -0.2606(6) 0.5698(4) -0.1807(3)
O37B O 0.3309(6) 1.2198(5) -0.0322(3)
O38B O 0.1508(6) 1.2102(4) -0.2009(3)
O38B_2 O 0.1508(6) 0.2102(4) -0.2009(3)
O39B O 0.0477(6) 1.1100(4) -0.1512(3)
O40B O 0.2542(7) 1.1103(5) -0.1407(3)
N1B N 0.3559(7) 0.3749(5) -0.1757(3)
N2B N 0.4292(7) 0.3160(5) -0.1652(3)
N3B N 0.4462(9) 0.5683(6) -0.2403(4)
N4B N 0.4360(8) 0.1296(6) -0.2485(4)
H1B H 0.4390 0.0902 -0.2661
C1B C 0.3896(8) 0.4355(6) -0.1977(3)
C2B C 0.3194(10) 0.4952(7) -0.2120(5)
H2B H 0.2526 0.4898 -0.2074
C3B C 0.3508(13) 0.5601(8) -0.2326(5)
H3B H 0.3052 0.5989 -0.2412
C4B C 0.5136(10) 0.5116(7) -0.2275(4)
H4B H 0.5802 0.5183 -0.2322
C5B C 0.4856(9) 0.4460(7) -0.2081(4)
H5B H 0.5322 0.4072 -0.2016
C6B C 0.4291(10) 0.2571(7) -0.1931(4)
C7B C 0.4918(11) 0.1934(6) -0.1797(5)
H6B H 0.5336 0.1950 -0.1518
C8B C 0.4912(10) 0.1315(7) -0.2064(4)
H7B H 0.5291 0.0891 -0.1962
C9B C 0.3777(11) 0.1874(7) -0.2626(5)
H8B H 0.3397 0.1840 -0.2914
C10B C 0.3707(10) 0.2530(7) -0.2364(4)
H9B H 0.3288 0.2929 -0.2471
N5B N -0.5834(10) 0.3626(8) -0.4018(5)
N6B N -0.5360(11) 0.2968(7) -0.3801(5)
N7B N -0.3225(11) 0.3121(8) -0.2668(5)
C11B C -0.4666(11) 0.3025(9) -0.3432(6)
C12B C -0.4384(15) 0.3734(10) -0.3231(9)
H10B H -0.4679 0.4184 -0.3350
C13B C -0.3667(14) 0.3752(9) -0.2858(7)
H11B H -0.3477 0.4224 -0.2729
C14B C -0.3481(14) 0.2450(11) -0.2882(6)
H12B H -0.3152 0.2008 -0.2770
C15B C -0.4183(14) 0.2389(11) -0.3247(6)
H13B H -0.4342 0.1911 -0.3376
C16B C -0.6733(6) 0.3838(6) -0.3941(4)
C17B C -0.7126(8) 0.4449(6) -0.4208(4)
H14B H -0.6773 0.4653 -0.4437
C18B C -0.8046(8) 0.4756(5) -0.4133(4)
H15B H -0.8308 0.5165 -0.4312
N8B N -0.8573(6) 0.4451(6) -0.3791(4)
H16B H -0.9142 0.4640 -0.3745
C19B C -0.8180(9) 0.3839(6) -0.3524(3)
H17B H -0.8533 0.3635 -0.3295
C20B C -0.7260(9) 0.3532(5) -0.3599(4)
P2B P 0.0321(5) 0.9931(4) -0.0068(2)
H28B H 0.1210 0.9839 0.0093
O41B O 0.0327(16) 1.0545(12) -0.0249(8)
O42B O 0.0321(15) 1.0742(12) 0.0004(7)
O43B O -0.001(2) 0.9731(16) -0.0592(9)
loop_
_geom_bond_atom_site_label_1
_geom_bond_atom_site_label_2
_geom_bond_site_symmetry_1
_geom_bond_site_symmetry_2
Mo1 Mo10 1_555 1_555
Mo2 Mo3 1_555 1_555
Mo3 O11 1_555 1_555
Mo4 O7 1_555 1_555
Mo5 Mo9 1_555 1_555
Mo6 O1 1_555 1_555
Mo7 Mo11 1_555 1_555
Mo8 Mo12 1_555 1_555
Mo9 O8 1_555 1_555
Mo10 O9 1_555 1_555
Mo11 O12 1_555 1_555
Mo12 O19 1_555 1_555
Zn1 O9 1_555 1_555
Zn2 O8 1_555 1_555
Zn3 O1 1_555 1_555
Zn4 O10 1_555 1_555
P1 O4 1_555 1_555
O1 Mo2 1_555 1_555
O2 Zn3 1_555 1_555
O3 Zn3 1_555 1_555
O4 Mo2 1_555 1_555
O5 P1 1_555 1_555
O6 Mo1 1_555 1_555
O7 Zn3 1_555 1_555
O8 Mo5 1_555 1_555
O9 Mo1 1_555 1_555
O10 Mo6 1_555 1_555
O11 Mo2 1_555 1_555
O12 Mo7 1_555 1_555
O13 Mo2 1_555 1_555
O14 Mo3 1_555 1_555
O15 Mo3 1_555 1_555
O16 Mo1 1_555 1_555
O17 Mo7 1_555 1_555
O18 Mo1 1_555 1_555
O19 Mo8 1_555 1_555
O20 Mo6 1_555 1_555
O21 Mo6 1_555 1_555
O22 Mo10 1_555 1_555
O23 Mo1 1_555 1_555
O24 Mo7 1_555 1_555
O25 Mo10 1_555 1_555
O26 Mo1 1_555 1_555
O27 Mo7 1_555 1_555
O28 Mo10 1_555 1_555
O29 Mo7 1_555 1_555
O30 Mo4 1_555 1_555
O31 Mo8 1_555 1_555
O32 Mo9 1_555 1_555
O33 Mo9 1_555 1_555
O34 Mo11 1_555 1_555
O35 Mo2 1_555 1_555
O36 Mo5 1_555 1_555
O37 Mo8 1_555 1_555
O38 Mo10 1_555 1_555
O39 Mo11 1_555 1_555
O40 Mo12 1_555 1_555
N1 Zn1 1_555 1_555
N2 N1 1_555 1_555
N3 C3 1_555 1_555
N4 H1 1_555 1_555
C1 N1 1_555 1_555
C2 C1 1_555 1_555
H2 C2 1_555 1_555
C3 C2 1_555 1_555
H3 C3 1_555 1_555
C4 N3 1_555 1_555
H4 C4 1_555 1_555
C5 C1 1_555 1_555
H5 C5 1_555 1_555
C6 N2 1_555 1_555
C7 C6 1_555 1_555
H6 C7 1_555 1_555
C8 N4 1_555 1_555
H7 C8 1_555 1_555
C9 N4 1_555 1_555
H8 C9 1_555 1_555
C10 C6 1_555 1_555
H9 C10 1_555 1_555
N5 N6 1_555 1_555
N6 C11 1_555 1_555
N7 Zn2 1_555 1_555
C11 C12 1_555 1_555
C12 H10 1_555 1_555
C13 N7 1_555 1_555
H11 C13 1_555 1_555
C14 N7 1_555 1_555
H12 C14 1_555 1_555
C15 C11 1_555 1_555
H13 C15 1_555 1_555
C16 N5 1_555 1_555
C17 C16 1_555 1_555
H14 C17 1_555 1_555
C18 C17 1_555 1_555
H15 C18 1_555 1_555
N8 C18 1_555 1_555
H16 N8 1_555 1_555
C19 N8 1_555 1_555
H17 C19 1_555 1_555
C20 C16 1_555 1_555
N9 N10 1_555 1_555
N10 C21 1_555 1_555
N11 H18 1_555 1_555
C21 C22 1_555 1_555
C22 H19 1_555 1_555
C23 N11 1_555 1_555
H20 C23 1_555 1_555
C24 N11 1_555 1_555
H21 C24 1_555 1_555
C25 C21 1_555 1_555
H22 C25 1_555 1_555
C26 N9 1_555 1_555
C27 C26 1_555 1_555
H23 C27 1_555 1_555
C28 C27 1_555 1_555
H24 C28 1_555 1_555
N12 C28 1_555 1_555
H25 N12 1_555 1_555
C29 N12 1_555 1_555
H26 C29 1_555 1_555
C30 C26 1_555 1_555
H27 C30 1_555 1_555
P2 H28 1_555 1_555
O41 Zn4 1_555 1_555
O42 Zn4 1_555 1_555
O43 P2 1_555 1_555
Mo1B Mo10B 1_555 1_555
Mo2B O3 1_555 1_555
Mo3B O3 1_555 1_555
Mo4B Mo6 1_555 1_555
Mo4_2 Mo6B_2 1_555 1_555
Mo5B O2 1_555 1_555
Mo6B Mo4 1_555 1_555
Mo6B_2 O10B 1_555 1_555
Mo7B Mo11B 1_555 1_555
Mo7B_2 Mo11B_2 1_555 1_555
Mo8B Mo12B 1_555 1_555
Mo8B_2 Mo12B_2 1_555 1_555
Mo9B O2 1_555 1_555
Mo9B_2 O24B 1_555 1_555
Mo10B O9B 1_555 1_555
Mo10B_2 O25B 1_555 1_555
Mo11B O12B_2 1_555 1_555
Mo11B_2 O12B 1_555 1_555
Mo12B O19B 1_555 1_555
Mo12B_2 O31B 1_555 1_555
Zn1B O9B 1_555 1_555
Zn2B O8B 1_555 1_555
Zn3B O1B 1_555 1_555
Zn4B O10B 1_555 1_555
P1B O4B 1_555 1_555
O1B Mo2B 1_555 1_555
O2B Mo5 1_555 1_555
O3B Mo2 1_555 1_555
O4B Mo2B 1_555 1_555
O5B P1B 1_555 1_555
O6B Mo1B 1_555 1_555
O7B Mo6 1_555 1_555
O8B Mo5B 1_555 1_555
O9B Mo1B 1_555 1_555
O10B Mo4_2 1_555 1_555
O10B_2 Mo4 1_555 1_555
O11B Mo2B 1_555 1_555
O12B Mo7B_2 1_555 1_555
O12B_2 Mo7B 1_555 1_555
O13B Mo2B 1_555 1_555
O13B_2 Mo8B 1_555 1_555
O14B Mo3B 1_555 1_555
O15B Mo3B 1_555 1_555
O16B Mo1B 1_555 1_555
O17B Mo7B 1_555 1_555
O18B Mo1B 1_555 1_555
O19B Mo8B 1_555 1_555
O20B Mo6B 1_555 1_555
O20B_2 Mo6B_2 1_555 1_555
O21B Mo6B 1_555 1_555
O22B Mo10B 1_555 1_555
O23B Mo1B 1_555 1_555
O24B Mo7B 1_555 1_555
O24B_2 Mo7B_2 1_555 1_555
O25B Mo11B 1_555 1_555
O25B_2 Mo10B 1_555 1_555
O26B Mo1B 1_555 1_555
O27B Mo4 1_555 1_555
O27B_2 Mo4_2 1_555 1_555
O28B Mo10B 1_555 1_555
O29B Mo7B 1_555 1_555
O30B Mo4B 1_555 1_555
O31B Mo8B_2 1_555 1_555
O31B_2 Mo8B 1_555 1_555
O32B Mo9B 1_555 1_555
O33B Mo4 1_555 1_555
O34B Mo11B 1_555 1_555
O35B Mo2B 1_555 1_555
O36B Mo5B 1_555 1_555
O37B Mo8B 1_555 1_555
O38B Mo10B_2 1_555 1_555
O38B_2 Mo10B 1_555 1_555
O39B Mo11B 1_555 1_555
O40B Mo12B 1_555 1_555
N1B Zn1B 1_555 1_555
N2B N1B 1_555 1_555
N3B C3B 1_555 1_555
N4B H1B 1_555 1_555
C1B N1B 1_555 1_555
C2B C1B 1_555 1_555
H2B C2B 1_555 1_555
C3B C2B 1_555 1_555
H3B C3B 1_555 1_555
C4B N3B 1_555 1_555
H4B C4B 1_555 1_555
C5B C1B 1_555 1_555
H5B C5B 1_555 1_555
C6B N2B 1_555 1_555
C7B C6B 1_555 1_555
H6B C7B 1_555 1_555
C8B N4B 1_555 1_555
H7B C8B 1_555 1_555
C9B N4B 1_555 1_555
H8B C9B 1_555 1_555
C10B C6B 1_555 1_555
H9B C10B 1_555 1_555
N5B N6B 1_555 1_555
N6B C11B 1_555 1_555
N7B Zn2B 1_555 1_555
C11B C12B 1_555 1_555
C12B H10B 1_555 1_555
C13B N7B 1_555 1_555
H11B C13B 1_555 1_555
C14B N7B 1_555 1_555
H12B C14B 1_555 1_555
C15B C11B 1_555 1_555
H13B C15B 1_555 1_555
C16B N5B 1_555 1_555
C17B C16B 1_555 1_555
H14B C17B 1_555 1_555
C18B C17B 1_555 1_555
H15B C18B 1_555 1_555
N8B C18B 1_555 1_555
H16B N8B 1_555 1_555
C19B N8B 1_555 1_555
H17B C19B 1_555 1_555
C20B C16B 1_555 1_555
P2B P2 1_555 1_555
H28B P2B 1_555 1_555
O41B P2 1_555 1_555
O42B P2 1_555 1_555
O43B P2 1_555 1_555
Mo3 O26 1_555 1_555
Mo3 O3B 1_555 1_555
Mo5 O6 1_555 1_555
Mo5 O15 1_555 1_555
Mo6 O4 1_555 1_555
Mo8 O13 1_555 1_555
Mo8 O20 1_555 1_555
Mo9 O24 1_555 1_555
Mo9 O2B 1_555 1_555
Mo10 O16 1_555 1_555
Mo11 O17 1_555 1_555
Mo11 O25 1_555 1_555
Mo12 O31 1_555 1_555
Mo12 O38 1_555 1_555
Mo12 O39 1_555 1_555
Zn1 O11 1_555 1_555
Zn1 O31 1_555 1_555
Zn2 O12 1_555 1_555
Zn2 O16 1_555 1_555
Zn4 O17 1_555 1_555
Zn4 O19 1_555 1_555
P1 O23 1_555 1_555
P1 O28 1_555 1_555
O7 Mo6B 1_555 1_555
O10 Mo4B 1_555 1_555
O27 Mo4B 1_555 1_555
O33 Mo4B 1_555 1_555
C4 C5 1_555 1_555
C7 C8 1_555 1_555
C9 C10 1_555 1_555
C12 C13 1_555 1_555
C14 C15 1_555 1_555
C19 C20 1_555 1_555
C22 C23 1_555 1_555
C24 C25 1_555 1_555
C29 C30 1_555 1_555
P2 O41 1_555 1_555
P2 O42 1_555 1_555
O41 O42 1_555 1_555
O41 O43 1_555 1_555
O41 P2B 1_555 1_555
O42 P2B 1_555 1_555
O43 P2B 1_555 1_555
Mo2B Mo3B 1_555 1_555
Mo3B O11B 1_555 1_555
Mo3B O26B 1_555 1_555
Mo4B O7B 1_555 1_555
Mo5B Mo9B 1_555 1_555
Mo5B O6B 1_555 1_555
Mo5B O15B 1_555 1_555
Mo6B O1B 1_555 1_555
Mo6B O4B 1_555 1_555
Mo6B O10B_2 1_555 1_555
Mo7B O27B_2 1_555 1_555
Mo7B_2 O27B 1_555 1_555
Mo8B O20B_2 1_555 1_555
Mo8B_2 O13B 1_555 1_555
Mo8B_2 O20B 1_555 1_555
Mo9B O8B 1_555 1_555
Mo9B O24B_2 1_555 1_555
Mo9B O33B 1_555 1_555
Mo10B O16B 1_555 1_555
Mo11B O17B 1_555 1_555
Mo11B_2 O25B_2 1_555 1_555
Mo12B O31B_2 1_555 1_555
Mo12B O38B 1_555 1_555
Mo12B O39B 1_555 1_555
Mo12B_2 O38B_2 1_555 1_555
Zn1B O11B 1_555 1_555
Zn1B O31B 1_555 1_555
Zn2B O12B 1_555 1_555
Zn2B O16B 1_555 1_555
Zn3B O2B 1_555 1_555
Zn3B O3B 1_555 1_555
Zn3B O7B 1_555 1_555
Zn4B O17B 1_555 1_555
Zn4B O19B 1_555 1_555
Zn4B O41B 1_555 1_555
Zn4B O42B 1_555 1_555
P1B O23B 1_555 1_555
P1B O28B 1_555 1_555
C4B C5B 1_555 1_555
C7B C8B 1_555 1_555
C9B C10B 1_555 1_555
C12B C13B 1_555 1_555
C14B C15B 1_555 1_555
C19B C20B 1_555 1_555
P2B O41B 1_555 1_555
P2B O42B 1_555 1_555
P2B O43B 1_555 1_555
O41B O42B 1_555 1_555
O41B O43B 1_555 1_555

#END
