
#######################################################################
#
#                 Cambridge Crystallographic Data Centre
#                                CCDC 
#
#######################################################################
#
# If this CIF has been generated from an entry in the Cambridge 
# Structural Database, then it will include bibliographic, chemical, 
# crystal, experimental, refinement or atomic coordinate data resulting 
# from the CCDC's data processing and validation procedures.
#
#######################################################################

data_VEJPOR
_symmetry_cell_setting           monoclinic
_symmetry_space_group_name_H-M   'P 21/c'
_symmetry_Int_Tables_number      14
_space_group_name_Hall           '-P 2ybc'
loop_
_symmetry_equiv_pos_site_id
_symmetry_equiv_pos_as_xyz
1 x,y,z
2 -x,1/2+y,1/2-z
3 -x,-y,-z
4 x,1/2-y,1/2+z
_cell_length_a                   8.3072(10)
_cell_length_b                   11.3306(13)
_cell_length_c                   16.9473(16)
_cell_angle_alpha                90
_cell_angle_beta                 119.352(4)
_cell_angle_gamma                90
_cell_volume                     1390.39
loop_
_atom_site_label
_atom_site_type_symbol
_atom_site_fract_x
_atom_site_fract_y
_atom_site_fract_z
Co1 Co 0.08859(3) 0.84995(2) 0.488405(17)
N1 N -0.0559(2) 0.37131(15) 0.71571(12)
N2 N -0.1333(2) 0.25696(14) 0.59509(11)
O1 O 0.04806(19) 0.75633(14) 0.57991(10)
O2 O 0.3375(2) 0.78209(14) 0.61781(10)
O3 O 0.82856(19) 0.61296(14) 0.89505(10)
O4 O 0.76899(18) 0.50117(12) 0.98632(9)
C1 C 0.2024(3) 0.51077(17) 0.79418(13)
C2 C 0.1470(3) 0.58863(17) 0.72197(13)
H1 H 0.0225 0.5942 0.6792
C3 C 0.2737(3) 0.65773(16) 0.71274(13)
C4 C 0.4594(3) 0.65004(16) 0.77715(13)
H2 H 0.5455 0.6962 0.7712
C5 C 0.5175(3) 0.57423(16) 0.85003(13)
C6 C 0.3876(3) 0.50468(17) 0.85827(13)
H3 H 0.4260 0.4538 0.9073
C7 C 0.0639(3) 0.43232(19) 0.80188(13)
H4 H 0.1287 0.3743 0.8491
H5 H -0.0117 0.4796 0.8188
C8 C 0.0011(3) 0.29737(19) 0.67264(14)
H6 H 0.1243 0.2764 0.6953
C9 C -0.2934(3) 0.31039(18) 0.58668(14)
C10 C -0.2453(3) 0.38200(18) 0.66224(14)
C11 C -0.3758(3) 0.4452(2) 0.67359(17)
H7 H -0.3426 0.4927 0.7240
C12 C -0.5556(3) 0.4341(2) 0.60677(19)
H8 H -0.6470 0.4751 0.6119
C13 C -0.6057(3) 0.3628(2) 0.53089(18)
H9 H -0.7295 0.3570 0.4871
C14 C -0.4761(3) 0.3009(2) 0.51939(15)
H10 H -0.5099 0.2545 0.4684
C15 C 0.2178(3) 0.73702(18) 0.63275(14)
C16 C 0.7187(3) 0.56192(17) 0.91574(13)
Co1B Co -0.08859(3) 0.15005(2) 0.511595(17)
Co1A Co -1.08859(3) 0.34995(2) 0.011595(17)
Co1A_2 Co 0.91141(3) 0.34995(2) 1.011595(17)
Co1C Co -0.91141(3) 0.65005(2) -0.011595(17)
Co1C_2 Co 1.08859(3) 0.65005(2) 0.988405(17)
N1B N 0.0559(2) 0.62869(15) 0.28429(12)
N2B N 0.1333(2) 0.74304(14) 0.40491(11)
O1B O -0.04806(19) 0.24367(14) 0.42009(10)
O2B O -0.3375(2) 0.21791(14) 0.38219(10)
O3B O -0.82856(19) 0.38704(14) 0.10495(10)
O3A O 0.17144(19) 0.11296(14) 0.60495(10)
O3C O -0.17144(19) 0.88704(14) 0.39505(10)
O4B O -0.76899(18) 0.49883(12) 0.01368(9)
O4A O 0.23101(18) 1.00117(12) 0.51368(9)
O4C O -0.23101(18) -0.00117(12) 0.48632(9)
C1B C -0.2024(3) 0.48923(17) 0.20582(13)
C2B C -0.1470(3) 0.41137(17) 0.27803(13)
H1B H -0.0225 0.4058 0.3208
C3B C -0.2737(3) 0.34227(16) 0.28726(13)
C4B C -0.4594(3) 0.34996(16) 0.22285(13)
H2B H -0.5455 0.3038 0.2288
C5B C -0.5175(3) 0.42577(16) 0.14997(13)
C6B C -0.3876(3) 0.49532(17) 0.14173(13)
H3B H -0.4260 0.5462 0.0927
C7B C -0.0639(3) 0.56768(19) 0.19812(13)
H4B H -0.1287 0.6257 0.1509
H5B H 0.0117 0.5204 0.1812
C8B C -0.0011(3) 0.70263(19) 0.32736(14)
H6B H -0.1243 0.7236 0.3047
C9B C 0.2934(3) 0.68961(18) 0.41332(14)
C10B C 0.2453(3) 0.61800(18) 0.33776(14)
C11B C 0.3758(3) 0.5548(2) 0.32641(17)
H7B H 0.3426 0.5073 0.2760
C12B C 0.5556(3) 0.5659(2) 0.39323(19)
H8B H 0.6470 0.5249 0.3881
C13B C 0.6057(3) 0.6372(2) 0.46911(18)
H9B H 0.7295 0.6430 0.5129
C14B C 0.4761(3) 0.6991(2) 0.48061(15)
H10B H 0.5099 0.7455 0.5316
C15B C -0.2178(3) 0.26298(18) 0.36725(14)
C16B C -0.7187(3) 0.43808(17) 0.08426(13)
loop_
_geom_bond_atom_site_label_1
_geom_bond_atom_site_label_2
_geom_bond_site_symmetry_1
_geom_bond_site_symmetry_2
Co1 O1 1_555 1_555
N1 C7 1_555 1_555
N2 C8 1_555 1_555
O1 C15 1_555 1_555
O2 Co1 1_555 1_555
O3 C16 1_555 1_555
O4 C16 1_555 1_555
C1 C2 1_555 1_555
C2 H1 1_555 1_555
C3 C2 1_555 1_555
C4 C3 1_555 1_555
H2 C4 1_555 1_555
C5 C4 1_555 1_555
C6 C1 1_555 1_555
H3 C6 1_555 1_555
C7 C1 1_555 1_555
H4 C7 1_555 1_555
H5 C7 1_555 1_555
C8 N1 1_555 1_555
H6 C8 1_555 1_555
C9 N2 1_555 1_555
C10 N1 1_555 1_555
C11 C10 1_555 1_555
H7 C11 1_555 1_555
C12 C11 1_555 1_555
H8 C12 1_555 1_555
C13 C12 1_555 1_555
H9 C13 1_555 1_555
C14 C9 1_555 1_555
H10 C14 1_555 1_555
C15 O2 1_555 1_555
C16 C5 1_555 1_555
Co1B N2 1_555 1_555
Co1A O3B 1_555 1_555
Co1A_2 O4 1_555 1_555
Co1C O4B 1_555 1_555
Co1C_2 O3 1_555 1_555
N1B C7B 1_555 1_555
N2B Co1 1_555 1_555
O1B Co1B 1_555 1_555
O2B Co1B 1_555 1_555
O3B C16B 1_555 1_555
O3A Co1B 1_555 1_555
O3C Co1 1_555 1_555
O4B C16B 1_555 1_555
O4A Co1 1_555 1_555
O4C Co1B 1_555 1_555
C1B C2B 1_555 1_555
C2B H1B 1_555 1_555
C3B C2B 1_555 1_555
C4B C3B 1_555 1_555
H2B C4B 1_555 1_555
C5B C4B 1_555 1_555
C6B C1B 1_555 1_555
H3B C6B 1_555 1_555
C7B C1B 1_555 1_555
H4B C7B 1_555 1_555
H5B C7B 1_555 1_555
C8B N1B 1_555 1_555
H6B C8B 1_555 1_555
C9B N2B 1_555 1_555
C10B N1B 1_555 1_555
C11B C10B 1_555 1_555
H7B C11B 1_555 1_555
C12B C11B 1_555 1_555
H8B C12B 1_555 1_555
C13B C12B 1_555 1_555
H9B C13B 1_555 1_555
C14B C9B 1_555 1_555
H10B C14B 1_555 1_555
C15B O1B 1_555 1_555
C16B C5B 1_555 1_555
C3 C15 1_555 1_555
C5 C6 1_555 1_555
C9 C10 1_555 1_555
C13 C14 1_555 1_555
N2B C8B 1_555 1_555
O2B C15B 1_555 1_555
C3B C15B 1_555 1_555
C5B C6B 1_555 1_555
C9B C10B 1_555 1_555
C13B C14B 1_555 1_555

#END
