
#######################################################################
#
#                 Cambridge Crystallographic Data Centre
#                                CCDC 
#
#######################################################################
#
# If this CIF has been generated from an entry in the Cambridge 
# Structural Database, then it will include bibliographic, chemical, 
# crystal, experimental, refinement or atomic coordinate data resulting 
# from the CCDC's data processing and validation procedures.
#
#######################################################################

data_VEJYEP01
_symmetry_cell_setting           monoclinic
_symmetry_space_group_name_H-M   'P 21/n'
_symmetry_Int_Tables_number      14
_space_group_name_Hall           '-P 2yn'
loop_
_symmetry_equiv_pos_site_id
_symmetry_equiv_pos_as_xyz
1 x,y,z
2 1/2-x,1/2+y,1/2-z
3 -x,-y,-z
4 1/2+x,1/2-y,1/2+z
_cell_length_a                   9.750(7)
_cell_length_b                   15.268(10)
_cell_length_c                   14.971(10)
_cell_angle_alpha                90
_cell_angle_beta                 98.584(9)
_cell_angle_gamma                90
_cell_volume                     2203.66
loop_
_atom_site_label
_atom_site_type_symbol
_atom_site_fract_x
_atom_site_fract_y
_atom_site_fract_z
Zn1 Zn 0.54607(8) 0.07737(5) 0.26127(5)
Zn2 Zn 1.08333(8) 0.22741(5) 0.41965(5)
N1 N 0.7469(6) 0.0776(4) 0.3100(4)
N2 N 0.9495(6) 0.1348(3) 0.3672(4)
N3 N 0.5119(6) 0.1651(4) 0.1627(4)
N4 N 0.5318(6) 0.2393(4) 0.0377(4)
N5 N 0.4797(6) -0.0434(4) 0.2327(4)
N6 N 0.4392(6) -0.1733(3) 0.1676(4)
N7 N 0.4451(5) 0.1192(4) 0.3606(3)
N8 N 0.2718(6) 0.1764(4) 0.4225(4)
C1 C 0.8233(7) 0.1478(4) 0.3233(5)
H1 H 0.7913 0.2028 0.3035
C2 C 0.8311(9) 0.0126(5) 0.3485(7)
H2 H 0.8076 -0.0463 0.3501
C3 C 0.9531(8) 0.0474(5) 0.3835(6)
H3 H 1.0281 0.0166 0.4141
C4 C 0.5721(7) 0.1703(4) 0.0887(4)
H4 H 0.6361 0.1295 0.0743
C5 C 0.4299(10) 0.2377(5) 0.1582(6)
H5 H 0.3752 0.2538 0.2013
C6 C 0.4400(9) 0.2824(5) 0.0823(6)
H6 H 0.3928 0.3336 0.0635
C7 C 0.4701(8) -0.0903(5) 0.1571(5)
H7 H 0.4840 -0.0667 0.1019
C8 C 0.4523(11) -0.1009(5) 0.2941(5)
H8 H 0.4505 -0.0881 0.3547
C9 C 0.4279(11) -0.1794(6) 0.2570(5)
H9 H 0.4066 -0.2299 0.2869
C10 C 0.3121(7) 0.1385(5) 0.3507(5)
H10 H 0.2514 0.1266 0.2981
C11 C 0.4944(8) 0.1484(7) 0.4452(5)
H11 H 0.5860 0.1450 0.4732
C12 C 0.3888(8) 0.1827(6) 0.4812(5)
H12 H 0.3959 0.2072 0.5386
Zn2C Zn 0.58333(8) 0.27259(5) -0.08035(5)
Zn2A Zn 0.41667(8) -0.27259(5) 0.08035(5)
Zn2_2 Zn 0.08333(8) 0.22741(5) 0.41965(5)
N4C N 1.0318(6) 0.2607(4) 0.5377(4)
N6A N 1.0608(6) 0.3267(3) 0.3324(4)
N8_2 N 1.2718(6) 0.1764(4) 0.4225(4)
N9 N 0.4725(16) 0.5116(9) 0.6194(9)
C13 C 0.3343(17) 0.6421(9) 0.6075(17)
H13 H 0.2464 0.6671 0.5828
H14 H 0.4071 0.6720 0.5831
H15 H 0.3483 0.6482 0.6720
C14 C 0.3360(17) 0.5470(9) 0.5833(11)
C15 C 0.5845(13) 0.5729(12) 0.6649(14)
H16 H 0.5488 0.6315 0.6641
H17 H 0.6629 0.5712 0.6330
H18 H 0.6126 0.5546 0.7263
C16 C 0.5027(17) 0.4147(8) 0.6139(11)
H19 H 0.4223 0.3852 0.5832
H20 H 0.5258 0.3913 0.6737
H21 H 0.5792 0.4062 0.5811
O1 O 0.2628(11) 0.4874(7) 0.5501(10)
loop_
_geom_bond_atom_site_label_1
_geom_bond_atom_site_label_2
_geom_bond_site_symmetry_1
_geom_bond_site_symmetry_2
Zn1 N1 1_555 1_555
Zn2 N2 1_555 1_555
N1 C1 1_555 1_555
N2 C1 1_555 1_555
N3 Zn1 1_555 1_555
N4 C4 1_555 1_555
N5 Zn1 1_555 1_555
N6 C7 1_555 1_555
N7 Zn1 1_555 1_555
N8 C10 1_555 1_555
C1 H1 1_555 1_555
C2 N1 1_555 1_555
H2 C2 1_555 1_555
C3 N2 1_555 1_555
H3 C3 1_555 1_555
C4 N3 1_555 1_555
H4 C4 1_555 1_555
C5 N3 1_555 1_555
H5 C5 1_555 1_555
C6 N4 1_555 1_555
H6 C6 1_555 1_555
C7 N5 1_555 1_555
H7 C7 1_555 1_555
C8 N5 1_555 1_555
H8 C8 1_555 1_555
C9 N6 1_555 1_555
H9 C9 1_555 1_555
C10 N7 1_555 1_555
H10 C10 1_555 1_555
C11 N7 1_555 1_555
H11 C11 1_555 1_555
C12 N8 1_555 1_555
H12 C12 1_555 1_555
N9 C14 1_555 1_555
C13 H13 1_555 1_555
H14 C13 1_555 1_555
H15 C13 1_555 1_555
C14 C13 1_555 1_555
C15 N9 1_555 1_555
H16 C15 1_555 1_555
H17 C15 1_555 1_555
H18 C15 1_555 1_555
C16 N9 1_555 1_555
H19 C16 1_555 1_555
H20 C16 1_555 1_555
H21 C16 1_555 1_555
O1 C14 1_555 1_555
Zn2C N4 1_555 1_555
Zn2A N6 1_555 1_555
Zn2_2 N8 1_555 1_555
N4C Zn2 1_555 1_555
N6A Zn2 1_555 1_555
N8_2 Zn2 1_555 1_555
C2 C3 1_555 1_555
C5 C6 1_555 1_555
C8 C9 1_555 1_555
C11 C12 1_555 1_555

#END
