
#######################################################################
#
#                 Cambridge Crystallographic Data Centre
#                                CCDC 
#
#######################################################################
#
# If this CIF has been generated from an entry in the Cambridge 
# Structural Database, then it will include bibliographic, chemical, 
# crystal, experimental, refinement or atomic coordinate data resulting 
# from the CCDC's data processing and validation procedures.
#
#######################################################################

data_VEJYIT
_symmetry_cell_setting           orthorhombic
_symmetry_space_group_name_H-M   'P b c a'
_symmetry_Int_Tables_number      61
_space_group_name_Hall           '-P 2ac 2ab'
loop_
_symmetry_equiv_pos_site_id
_symmetry_equiv_pos_as_xyz
1 x,y,z
2 1/2-x,-y,1/2+z
3 -x,1/2+y,1/2-z
4 1/2+x,1/2-y,-z
5 -x,-y,-z
6 1/2+x,y,1/2-z
7 x,1/2-y,1/2+z
8 1/2-x,1/2+y,z
_cell_length_a                   9.679(3)
_cell_length_b                   24.114(6)
_cell_length_c                   24.450(7)
_cell_angle_alpha                90
_cell_angle_beta                 90
_cell_angle_gamma                90
_cell_volume                     5706.62
loop_
_atom_site_label
_atom_site_type_symbol
_atom_site_fract_x
_atom_site_fract_y
_atom_site_fract_z
Zn1 Zn -0.01511(8) 0.17465(4) 0.50122(5)
Zn2 Zn -0.00204(11) 0.00179(5) 0.32387(4)
N1 N 0.1184(7) 0.2346(3) 0.4819(3)
N2 N 0.3032(6) 0.2894(3) 0.4787(3)
C1 C -0.0172(8) 0.0810(4) 0.4181(4)
H1 H 0.0220 0.0545 0.4423
C2 C -0.2534(9) 0.0124(3) 0.2492(4)
H2 H -0.3028 0.0348 0.2744
C3 C 0.1034(9) 0.2722(4) 0.4402(4)
H3 H 0.0261 0.2744 0.4164
N3 N -0.1215(6) -0.0051(3) 0.2572(3)
C4 C -0.0919(8) -0.0340(4) 0.2116(4)
H4 H -0.0061 -0.0517 0.2044
C5 C 0.2416(8) 0.2463(4) 0.5033(4)
H5 H 0.2815 0.2262 0.5329
N4 N -0.3059(6) -0.0055(3) 0.2018(3)
C6 C -0.2016(8) -0.0341(4) 0.1779(4)
H6 H -0.2054 -0.0514 0.1430
C7 C -0.0078(8) 0.0818(4) 0.5818(4)
H7 H -0.0739 0.0611 0.5616
C8 C 0.2153(8) 0.3057(4) 0.4382(4)
H8 H 0.2300 0.3352 0.4132
N5 N -0.0500(7) 0.1313(3) 0.4336(3)
C9 C -0.1026(10) 0.1548(4) 0.3873(4)
H9 H -0.1361 0.1917 0.3844
C10 C 0.1358(9) 0.1058(4) 0.6445(4)
H10 H 0.1918 0.1059 0.6765
N6 N -0.0433(7) 0.0702(3) 0.3654(3)
C11 C -0.0995(10) 0.1172(4) 0.3457(4)
H11 H -0.1313 0.1231 0.3094
C12 C 0.1351(10) 0.1457(4) 0.6055(4)
H12 H 0.1885 0.1788 0.6063
N7 N 0.0451(7) 0.1309(3) 0.5646(3)
N8 N 0.0432(7) 0.0651(3) 0.6307(3)
Zn1C Zn 0.48489(8) 0.32535(4) 0.49878(5)
Zn2E Zn -0.50204(11) 0.00179(5) 0.17613(4)
Zn2D Zn 0.00204(11) -0.00179(5) 0.67613(4)
N2C N -0.1968(6) 0.2106(3) 0.5213(3)
N4E N 0.1941(6) -0.0055(3) 0.2982(3)
N8D N -0.0432(7) -0.0651(3) 0.3693(3)
O1 O 0.7587(7) -0.0043(4) 0.5355(3)
N9 N 0.6465(9) 0.0225(5) 0.4596(4)
C13 C 0.7204(12) -0.0109(7) 0.4880(6)
C14 C 0.6097(16) 0.0806(6) 0.4852(7)
C15 C 0.6066(12) 0.0176(6) 0.4022(4)
O2 O 0.5735(9) 0.1399(4) 0.2944(3)
N10 N 0.4192(8) 0.1504(3) 0.3619(4)
C16 C 0.4593(11) 0.1275(5) 0.3172(5)
C17 C 0.4968(10) 0.1941(5) 0.3893(5)
C18 C 0.2875(10) 0.1302(5) 0.3872(5)
O3 O 0.3673(8) 0.2156(4) 0.6660(3)
N11 N 0.2886(9) 0.2179(4) 0.7527(4)
C19 C 0.2976(11) 0.2383(5) 0.7019(5)
C20 C 0.1992(12) 0.2496(6) 0.7918(5)
C21 C 0.3664(15) 0.1688(5) 0.7707(5)
loop_
_geom_bond_atom_site_label_1
_geom_bond_atom_site_label_2
_geom_bond_site_symmetry_1
_geom_bond_site_symmetry_2
Zn1 N1 1_555 1_555
Zn2 N3 1_555 1_555
N1 C3 1_555 1_555
N2 C5 1_555 1_555
C1 H1 1_555 1_555
C2 H2 1_555 1_555
C3 H3 1_555 1_555
N3 C2 1_555 1_555
C4 N3 1_555 1_555
H4 C4 1_555 1_555
C5 N1 1_555 1_555
H5 C5 1_555 1_555
N4 C2 1_555 1_555
C6 C4 1_555 1_555
H6 C6 1_555 1_555
C7 H7 1_555 1_555
C8 N2 1_555 1_555
H8 C8 1_555 1_555
N5 Zn1 1_555 1_555
C9 N5 1_555 1_555
H9 C9 1_555 1_555
C10 H10 1_555 1_555
N6 Zn2 1_555 1_555
C11 C9 1_555 1_555
H11 C11 1_555 1_555
C12 C10 1_555 1_555
H12 C12 1_555 1_555
N7 Zn1 1_555 1_555
N8 C7 1_555 1_555
O1 C13 1_555 1_555
N9 C13 1_555 1_555
C14 N9 1_555 1_555
C15 N9 1_555 1_555
O2 C16 1_555 1_555
N10 C16 1_555 1_555
C17 N10 1_555 1_555
C18 N10 1_555 1_555
O3 C19 1_555 1_555
N11 C19 1_555 1_555
C20 N11 1_555 1_555
C21 N11 1_555 1_555
Zn1C N2 1_555 1_555
Zn2E N4 1_555 1_555
Zn2D N8 1_555 1_555
N2C Zn1 1_555 1_555
N4E Zn2 1_555 1_555
N8D Zn2 1_555 1_555
C1 N5 1_555 1_555
C1 N6 1_555 1_555
C3 C8 1_555 1_555
N4 C6 1_555 1_555
C7 N7 1_555 1_555
C10 N8 1_555 1_555
N6 C11 1_555 1_555
C12 N7 1_555 1_555

#END
