
#######################################################################
#
#                 Cambridge Crystallographic Data Centre
#                                CCDC 
#
#######################################################################
#
# If this CIF has been generated from an entry in the Cambridge 
# Structural Database, then it will include bibliographic, chemical, 
# crystal, experimental, refinement or atomic coordinate data resulting 
# from the CCDC's data processing and validation procedures.
#
#######################################################################

data_VEJYUV06
_symmetry_cell_setting           monoclinic
_symmetry_space_group_name_H-M   'P 21/c'
_symmetry_Int_Tables_number      14
_space_group_name_Hall           '-P 2ybc'
loop_
_symmetry_equiv_pos_site_id
_symmetry_equiv_pos_as_xyz
1 x,y,z
2 -x,1/2+y,1/2-z
3 -x,-y,-z
4 x,1/2-y,1/2+z
_cell_length_a                   17.735(9)
_cell_length_b                   14.457(8)
_cell_length_c                   14.829(9)
_cell_angle_alpha                90
_cell_angle_beta                 100.25(5)
_cell_angle_gamma                90
_cell_volume                     3741.4
loop_
_atom_site_label
_atom_site_type_symbol
_atom_site_fract_x
_atom_site_fract_y
_atom_site_fract_z
Zn1 Zn 0.4078(5) 0.1915(5) 0.1917(6)
Zn2 Zn 0.2959(5) 0.5285(5) 0.3508(6)
Zn3 Zn 0.0705(5) 0.7531(5) 0.1048(6)
Zn4 Zn 0.1996(5) 1.0225(5) 0.3808(6)
C1 C 0.3452(9) 0.361(3) 0.275(2)
C2 C 0.446(2) 0.623(2) 0.3213(15)
C3 C 0.466(2) 0.7349(18) 0.415(2)
C4 C 0.398(2) 0.695(3) 0.4228(17)
C5 C 0.3565(19) 0.409(2) 0.508(3)
C6 C 0.275(3) 0.399(2) 0.597(2)
C7 C 0.2461(18) 0.456(2) 0.526(3)
C8 C 0.186(2) 0.633(2) 0.235(3)
C9 C 0.1348(14) 0.899(3) 0.231(3)
C10 C 0.061(3) 1.148(3) 0.3879(14)
C11 C 0.104(4) 1.2680(19) 0.4647(18)
C12 C 0.163(2) 1.211(3) 0.4608(17)
C13 C 0.1214(18) 0.874(3) 0.4812(15)
C14 C 0.208(3) 0.770(2) 0.5101(15)
C15 C 0.2369(17) 0.843(4) 0.4698(16)
C16 C 0.315(2) 1.1228(19) 0.315(2)
C17 C 0.4296(18) 1.074(2) 0.359(3)
C18 C 0.383(3) 1.0297(16) 0.4078(16)
C19 C 0.1039(16) 1.031(2) 0.172(4)
C20 C 0.0800(11) 0.965(4) 0.108(2)
C21 C 0.0843(18) 0.655(2) 0.289(3)
C22 C 0.132(3) 0.600(2) 0.348(2)
C23 C 0.3323(9) 0.465(2) 0.172(3)
C24 C 0.3549(9) 0.386(4) 0.136(2)
N1 N 0.3632(7) 0.319(2) 0.201(3)
N2 N 0.3260(7) 0.450(3) 0.260(3)
N3 N 0.3852(18) 0.623(2) 0.363(2)
N4 N 0.4972(16) 0.690(3) 0.351(2)
N5 N 0.297(3) 0.4625(18) 0.469(2)
N6 N 0.345(2) 0.3692(16) 0.586(3)
N7 N 0.197(2) 0.5854(17) 0.314(3)
N8 N 0.118(3) 0.6760(16) 0.217(2)
N9 N 0.0994(17) 0.881(3) 0.145(4)
N10 N 0.1388(13) 0.990(4) 0.250(3)
N11 N 0.137(3) 1.134(2) 0.412(2)
N12 N 0.039(2) 1.229(3) 0.419(2)
N13 N 0.182(3) 0.909(2) 0.4510(11)
N14 N 0.135(2) 0.789(3) 0.5178(11)
N15 N 0.310(2) 1.060(2) 0.381(2)
N16 N 0.387(3) 1.1332(18) 0.2996(18)
H1 H 0.3459 0.3310 0.3307
H2 H 0.4527 0.5800 0.2763
H3 H 0.4879 0.7855 0.4491
H4 H 0.3662 0.7135 0.4624
H5 H 0.4006 0.4007 0.4827
H6 H 0.2503 0.3835 0.6451
H7 H 0.1986 0.4848 0.5179
H8 H 0.2222 0.6354 0.1962
H9 H 0.1543 0.8534 0.2727
H10 H 0.0284 1.1062 0.3534
H11 H 0.1067 1.3250 0.4942
H12 H 0.2142 1.2218 0.4872
H13 H 0.0749 0.9051 0.4771
H14 H 0.2341 0.7162 0.5295
H15 H 0.2864 0.8471 0.4573
H16 H 0.2737 1.1555 0.2837
H17 H 0.4822 1.0650 0.3649
H18 H 0.3984 0.9853 0.4528
H19 H 0.0974 1.0946 0.1630
H20 H 0.0545 0.9762 0.0485
H21 H 0.0361 0.6749 0.2976
H22 H 0.1217 0.5760 0.4027
H23 H 0.3227 0.5213 0.1410
H24 H 0.3636 0.3790 0.0761
Zn1_2 Zn 0.4078(5) 1.1915(5) 0.1917(6)
Zn1A Zn 0.5922(5) 0.6915(5) 0.3083(6)
Zn1C Zn 0.4078(5) 0.3085(5) 0.6917(6)
Zn3A Zn -0.0705(5) 1.2531(5) 0.3952(6)
Zn3C Zn 0.0705(5) 0.7469(5) 0.6048(6)
N4A N 0.5028(16) 0.190(3) 0.149(2)
N6C N 0.345(2) 0.1308(16) 0.086(3)
N12A N -0.039(2) 0.729(3) 0.081(2)
N14C N 0.135(2) 0.711(3) 0.0178(11)
N16_2 N 0.387(3) 0.1332(18) 0.2996(18)
C25 C 0.163(4) 0.321(5) 0.181(6)
C26 C 0.044(4) 0.370(5) 0.245(5)
C27 C 0.086(4) 0.445(5) 0.101(5)
N17 N 0.101(3) 0.386(3) 0.186(4)
O1 O 0.164(3) 0.252(4) 0.221(5)
H25 H 0.0086 0.4205 0.2390
H26 H 0.0700 0.3657 0.3077
H27 H 0.0174 0.3134 0.2277
H28 H 0.0454 0.4873 0.1051
H29 H 0.1317 0.4783 0.0955
H30 H 0.0718 0.4057 0.0483
H31 H 0.2004 0.3339 0.1459
C28 C 0.367(4) 0.728(6) 0.117(7)
C29 C 0.450(6) 0.870(5) 0.168(8)
C30 C 0.318(6) 0.836(7) 0.217(8)
N18 N 0.377(4) 0.820(4) 0.157(4)
O2 O 0.422(5) 0.684(4) 0.117(6)
H32 H 0.3246 0.8972 0.2430
H33 H 0.3238 0.7911 0.2646
H34 H 0.2676 0.8315 0.1802
H35 H 0.4787 0.8486 0.1226
H36 H 0.4407 0.9353 0.1596
H37 H 0.4793 0.8591 0.2279
H38 H 0.3189 0.7058 0.0918
loop_
_geom_bond_atom_site_label_1
_geom_bond_atom_site_label_2
_geom_bond_site_symmetry_1
_geom_bond_site_symmetry_2
Zn1 N1 1_555 1_555
Zn2 N2 1_555 1_555
Zn3 N8 1_555 1_555
Zn4 N10 1_555 1_555
C1 N1 1_555 1_555
C2 N3 1_555 1_555
C3 C4 1_555 1_555
C4 N3 1_555 1_555
C5 N5 1_555 1_555
C6 C7 1_555 1_555
C7 N5 1_555 1_555
C8 N7 1_555 1_555
C9 N9 1_555 1_555
C10 N11 1_555 1_555
C11 C12 1_555 1_555
C12 N11 1_555 1_555
C13 N13 1_555 1_555
C14 C15 1_555 1_555
C15 N13 1_555 1_555
C16 N15 1_555 1_555
C17 C18 1_555 1_555
C18 N15 1_555 1_555
C19 C20 1_555 1_555
C20 N9 1_555 1_555
C21 C22 1_555 1_555
C22 N7 1_555 1_555
C23 C24 1_555 1_555
C24 N1 1_555 1_555
N2 C1 1_555 1_555
N3 Zn2 1_555 1_555
N4 C2 1_555 1_555
N5 Zn2 1_555 1_555
N6 C5 1_555 1_555
N7 Zn2 1_555 1_555
N8 C8 1_555 1_555
N9 Zn3 1_555 1_555
N10 C9 1_555 1_555
N11 Zn4 1_555 1_555
N12 C10 1_555 1_555
N13 Zn4 1_555 1_555
N14 C13 1_555 1_555
N15 Zn4 1_555 1_555
N16 C16 1_555 1_555
H1 C1 1_555 1_555
H2 C2 1_555 1_555
H3 C3 1_555 1_555
H4 C4 1_555 1_555
H5 C5 1_555 1_555
H6 C6 1_555 1_555
H7 C7 1_555 1_555
H8 C8 1_555 1_555
H9 C9 1_555 1_555
H10 C10 1_555 1_555
H11 C11 1_555 1_555
H12 C12 1_555 1_555
H13 C13 1_555 1_555
H14 C14 1_555 1_555
H15 C15 1_555 1_555
H16 C16 1_555 1_555
H17 C17 1_555 1_555
H18 C18 1_555 1_555
H19 C19 1_555 1_555
H20 C20 1_555 1_555
H21 C21 1_555 1_555
H22 C22 1_555 1_555
H23 C23 1_555 1_555
H24 C24 1_555 1_555
C25 N17 1_555 1_555
C26 N17 1_555 1_555
C27 N17 1_555 1_555
O1 C25 1_555 1_555
H25 C26 1_555 1_555
H26 C26 1_555 1_555
H27 C26 1_555 1_555
H28 C27 1_555 1_555
H29 C27 1_555 1_555
H30 C27 1_555 1_555
H31 C25 1_555 1_555
C28 N18 1_555 1_555
C29 N18 1_555 1_555
C30 N18 1_555 1_555
O2 C28 1_555 1_555
H32 C30 1_555 1_555
H33 C30 1_555 1_555
H34 C30 1_555 1_555
H35 C29 1_555 1_555
H36 C29 1_555 1_555
H37 C29 1_555 1_555
H38 C28 1_555 1_555
Zn1_2 N16 1_555 1_555
Zn1A N4 1_555 1_555
Zn1C N6 1_555 1_555
Zn3A N12 1_555 1_555
Zn3C N14 1_555 1_555
N4A Zn1 1_555 1_555
N6C Zn1 1_555 1_555
N12A Zn3 1_555 1_555
N14C Zn3 1_555 1_555
N16_2 Zn1 1_555 1_555
C3 N4 1_555 1_555
C6 N6 1_555 1_555
C11 N12 1_555 1_555
C14 N14 1_555 1_555
C17 N16 1_555 1_555
C19 N10 1_555 1_555
C21 N8 1_555 1_555
C23 N2 1_555 1_555

#END
