
#######################################################################
#
#                 Cambridge Crystallographic Data Centre
#                                CCDC 
#
#######################################################################
#
# If this CIF has been generated from an entry in the Cambridge 
# Structural Database, then it will include bibliographic, chemical, 
# crystal, experimental, refinement or atomic coordinate data resulting 
# from the CCDC's data processing and validation procedures.
#
#######################################################################

data_VEKRUZ
_symmetry_cell_setting           monoclinic
_symmetry_space_group_name_H-M   'P 21/c'
_symmetry_Int_Tables_number      14
_space_group_name_Hall           '-P 2ybc'
loop_
_symmetry_equiv_pos_site_id
_symmetry_equiv_pos_as_xyz
1 x,y,z
2 -x,1/2+y,1/2-z
3 -x,-y,-z
4 x,1/2-y,1/2+z
_cell_length_a                   16.834(2)
_cell_length_b                   7.4376(10)
_cell_length_c                   18.295(3)
_cell_angle_alpha                90
_cell_angle_beta                 102.848(2)
_cell_angle_gamma                90
_cell_volume                     2233.27
loop_
_atom_site_label
_atom_site_type_symbol
_atom_site_fract_x
_atom_site_fract_y
_atom_site_fract_z
Zn1 Zn 0.88934(2) 0.69930(4) 0.670844(16)
O1 O 0.45371(18) 0.7292(6) 0.50481(18)
O2 O 0.50870(16) 1.0026(4) 0.73693(15)
O3 O 0.91100(12) 0.9756(3) 0.66560(9)
O4 O 0.91278(14) 1.1980(3) 0.58430(11)
O5 O 0.88563(14) 1.0573(3) 0.31712(11)
O6 O 0.89026(13) 0.7702(3) 0.28239(10)
O7 O 1.01717(12) 0.6391(3) 0.69509(11)
H1 H 1.0434 0.7447 0.6868
H2 H 1.0430 0.5843 0.7381
O8 O 0.85703(13) 0.4330(3) 0.66701(10)
H3 H 0.8568 0.4041 0.7114
H4 H 0.8805 0.3499 0.6515
N1 N 0.75707(16) 0.7579(4) 0.64680(14)
N2 N 0.44443(18) 0.8034(4) 0.56562(18)
N3 N 0.47071(17) 0.9418(4) 0.67421(16)
N4 N 0.89518(14) 0.7298(3) 0.55567(12)
C1 C 0.7010(2) 0.6496(5) 0.60612(18)
H5 H 0.7187 0.5502 0.5833
C2 C 0.6186(2) 0.6769(5) 0.59606(19)
H6 H 0.5819 0.5988 0.5663
C3 C 0.5907(2) 0.8225(5) 0.63081(18)
C4 C 0.6484(2) 0.9359(5) 0.6723(2)
H7 H 0.6324 1.0361 0.6959
C5 C 0.7297(2) 0.9000(5) 0.67877(19)
H8 H 0.7677 0.9783 0.7068
C6 C 0.5042(2) 0.8546(5) 0.6236(2)
C7 C 0.3620(2) 0.8323(5) 0.5815(2)
C8 C 0.3041(3) 0.8912(7) 0.5104(2)
H9 H 0.3213 1.0052 0.4949
H10 H 0.2502 0.9023 0.5193
H11 H 0.3039 0.8036 0.4719
C9 C 0.3364(3) 0.6491(6) 0.6059(3)
H12 H 0.3389 0.5615 0.5680
H13 H 0.2816 0.6561 0.6131
H14 H 0.3725 0.6144 0.6521
C10 C 0.3811(2) 0.9713(5) 0.6453(2)
C11 C 0.3377(3) 0.9433(8) 0.7083(3)
H15 H 0.3554 0.8322 0.7335
H16 H 0.2800 0.9389 0.6883
H17 H 0.3502 1.0410 0.7433
C12 C 0.3739(3) 1.1666(6) 0.6177(3)
H18 H 0.3962 1.2455 0.6587
H19 H 0.3176 1.1956 0.5984
H20 H 0.4034 1.1810 0.5788
C13 C 0.90825(16) 1.0379(4) 0.60066(14)
C14 C 0.90082(16) 0.9023(4) 0.53738(13)
C15 C 0.89945(16) 0.9586(4) 0.46529(14)
H21 H 0.9024 1.0803 0.4546
C16 C 0.89363(16) 0.8316(4) 0.40909(14)
C17 C 0.88983(17) 0.8912(4) 0.32938(14)
C18 C 0.89106(19) 0.6524(4) 0.42816(15)
H22 H 0.8891 0.5635 0.3921
C19 C 0.8914(2) 0.6063(4) 0.50165(15)
H23 H 0.8889 0.4854 0.5139
Zn1C Zn 0.88934(2) 0.80070(4) 0.170844(16)
O6C O 0.89026(13) 0.7298(3) 0.78239(10)
loop_
_geom_bond_atom_site_label_1
_geom_bond_atom_site_label_2
_geom_bond_site_symmetry_1
_geom_bond_site_symmetry_2
Zn1 O3 1_555 1_555
O1 N2 1_555 1_555
O2 N3 1_555 1_555
O3 C13 1_555 1_555
O4 C13 1_555 1_555
O5 C17 1_555 1_555
O6 C17 1_555 1_555
O7 Zn1 1_555 1_555
H1 O7 1_555 1_555
H2 O7 1_555 1_555
O8 Zn1 1_555 1_555
H3 O8 1_555 1_555
H4 O8 1_555 1_555
N1 Zn1 1_555 1_555
N2 C6 1_555 1_555
N3 C6 1_555 1_555
N4 Zn1 1_555 1_555
C1 N1 1_555 1_555
H5 C1 1_555 1_555
C2 C1 1_555 1_555
H6 C2 1_555 1_555
C3 C2 1_555 1_555
C4 C3 1_555 1_555
H7 C4 1_555 1_555
C5 N1 1_555 1_555
H8 C5 1_555 1_555
C6 C3 1_555 1_555
C7 N2 1_555 1_555
C8 C7 1_555 1_555
H9 C8 1_555 1_555
H10 C8 1_555 1_555
H11 C8 1_555 1_555
C9 C7 1_555 1_555
H12 C9 1_555 1_555
H13 C9 1_555 1_555
H14 C9 1_555 1_555
C10 N3 1_555 1_555
C11 C10 1_555 1_555
H15 C11 1_555 1_555
H16 C11 1_555 1_555
H17 C11 1_555 1_555
C12 C10 1_555 1_555
H18 C12 1_555 1_555
H19 C12 1_555 1_555
H20 C12 1_555 1_555
C13 C14 1_555 1_555
C14 N4 1_555 1_555
C15 C14 1_555 1_555
H21 C15 1_555 1_555
C16 C15 1_555 1_555
C17 C16 1_555 1_555
C18 C16 1_555 1_555
H22 C18 1_555 1_555
C19 N4 1_555 1_555
H23 C19 1_555 1_555
Zn1C O6 1_555 1_555
O6C Zn1 1_555 1_555
C4 C5 1_555 1_555
C7 C10 1_555 1_555
C18 C19 1_555 1_555

#END
