
#######################################################################
#
#                 Cambridge Crystallographic Data Centre
#                                CCDC 
#
#######################################################################
#
# If this CIF has been generated from an entry in the Cambridge 
# Structural Database, then it will include bibliographic, chemical, 
# crystal, experimental, refinement or atomic coordinate data resulting 
# from the CCDC's data processing and validation procedures.
#
#######################################################################

data_VEKVIR01
_symmetry_cell_setting           monoclinic
_symmetry_space_group_name_H-M   'P 21/c'
_symmetry_Int_Tables_number      14
_space_group_name_Hall           '-P 2ybc'
loop_
_symmetry_equiv_pos_site_id
_symmetry_equiv_pos_as_xyz
1 x,y,z
2 -x,1/2+y,1/2-z
3 -x,-y,-z
4 x,1/2-y,1/2+z
_cell_length_a                   6.4053(4)
_cell_length_b                   21.6312(7)
_cell_length_c                   7.3647(3)
_cell_angle_alpha                90
_cell_angle_beta                 112.9520(7)
_cell_angle_gamma                90
_cell_volume                     939.627
loop_
_atom_site_label
_atom_site_type_symbol
_atom_site_fract_x
_atom_site_fract_y
_atom_site_fract_z
Ni1 Ni 0.40513(5) 0.597888(15) 0.64930(4)
N1 N 0.1947(3) 0.66477(10) 0.4750(3)
O1 O -0.4011(3) 0.65217(9) -0.1206(2)
O2 O -0.5258(3) 0.63047(9) 0.1165(3)
O3 O 0.5867(4) 0.52249(10) 0.7882(3)
H1 H 0.647(6) 0.5027(17) 0.719(5)
H2 H 0.699(7) 0.533(2) 0.914(7)
O4 O 0.1695(3) 0.58039(9) 0.7800(3)
O5 O 0.6391(4) 0.61550(13) 0.5234(3)
H3 H 0.587(8) 0.625(2) 0.395(2)
H4 H 0.774(3) 0.5986(16) 0.591(5)
O6 O 0.2085(3) 0.54519(9) 0.4177(3)
O7 O -0.1239(3) 0.54533(9) 0.1649(3)
C1 C 0.2056(4) 0.72630(12) 0.5019(4)
H5 H 0.329(5) 0.7439(13) 0.608(4)
C2 C 0.0390(5) 0.76507(12) 0.3829(4)
H6 H 0.056(6) 0.8047(16) 0.410(5)
C3 C -0.1496(5) 0.74052(12) 0.2365(4)
H7 H -0.270(5) 0.7646(12) 0.159(4)
C4 C -0.1659(4) 0.67646(11) 0.2079(3)
C5 C 0.0150(4) 0.64061(11) 0.3267(3)
C6 C 0.0309(4) 0.57143(12) 0.2996(3)
C7 C -0.3818(4) 0.64966(11) 0.0556(3)
Ni1_2 Ni -0.59487(5) 0.597888(15) -0.35070(4)
O1_2 O 0.5989(3) 0.65217(9) 0.8794(2)
loop_
_geom_bond_atom_site_label_1
_geom_bond_atom_site_label_2
_geom_bond_site_symmetry_1
_geom_bond_site_symmetry_2
Ni1 N1 1_555 1_555
N1 C1 1_555 1_555
O1 C7 1_555 1_555
O2 C7 1_555 1_555
O3 Ni1 1_555 1_555
H1 O3 1_555 1_555
H2 O3 1_555 1_555
O4 Ni1 1_555 1_555
O5 Ni1 1_555 1_555
H3 O5 1_555 1_555
H4 O5 1_555 1_555
O6 Ni1 1_555 1_555
O7 C6 1_555 1_555
C1 H5 1_555 1_555
C2 C1 1_555 1_555
H6 C2 1_555 1_555
C3 C2 1_555 1_555
H7 C3 1_555 1_555
C4 C3 1_555 1_555
C5 N1 1_555 1_555
C6 O6 1_555 1_555
C7 C4 1_555 1_555
Ni1_2 O1 1_555 1_555
O1_2 Ni1 1_555 1_555
C4 C5 1_555 1_555
C5 C6 1_555 1_555

#END
