
#######################################################################
#
#                 Cambridge Crystallographic Data Centre
#                                CCDC 
#
#######################################################################
#
# If this CIF has been generated from an entry in the Cambridge 
# Structural Database, then it will include bibliographic, chemical, 
# crystal, experimental, refinement or atomic coordinate data resulting 
# from the CCDC's data processing and validation procedures.
#
#######################################################################

data_VELJIG
_symmetry_cell_setting           monoclinic
_symmetry_space_group_name_H-M   'P 21/n'
_symmetry_Int_Tables_number      14
_space_group_name_Hall           '-P 2yn'
loop_
_symmetry_equiv_pos_site_id
_symmetry_equiv_pos_as_xyz
1 x,y,z
2 1/2-x,1/2+y,1/2-z
3 -x,-y,-z
4 1/2+x,1/2-y,1/2+z
_cell_length_a                   14.378(3)
_cell_length_b                   12.455(3)
_cell_length_c                   15.422(3)
_cell_angle_alpha                90
_cell_angle_beta                 106.80(3)
_cell_angle_gamma                90
_cell_volume                     2643.87
loop_
_atom_site_label
_atom_site_type_symbol
_atom_site_fract_x
_atom_site_fract_y
_atom_site_fract_z
Mn1 Mn 0.07056(5) 0.28595(5) 0.03005(4)
Cr1 Cr 0.21145(5) -0.04427(5) -0.09875(4)
O1 O 0.0148(2) 0.4028(2) -0.07630(17)
O2 O -0.0384(2) 0.5724(2) -0.10082(17)
N1 N 0.0912(3) 0.1614(3) -0.0628(3)
N2 N 0.0713(3) -0.0608(3) -0.3013(3)
N3 N 0.3407(3) -0.2496(4) -0.1157(3)
N4 N -0.0625(3) 0.2030(3) 0.0409(2)
N5 N 0.3035(2) -0.0144(3) 0.0292(2)
N6 N 0.3129(2) 0.0577(3) -0.1270(2)
N7 N 0.1634(3) 0.2206(3) 0.1661(2)
N8 N 0.2285(3) 0.3382(3) 0.0524(3)
H1 H 0.244(3) -0.098(4) 0.098(3)
H2 H 0.342(3) -0.063(4) 0.246(3)
H3 H 0.484(3) 0.055(3) 0.252(3)
H4 H 0.493(3) 0.126(4) 0.113(3)
H5 H 0.508(3) 0.183(4) -0.015(3)
H6 H 0.508(3) 0.244(4) -0.161(3)
H7 H 0.380(3) 0.172(4) -0.283(3)
H8 H 0.261(3) 0.069(4) -0.260(3)
H9 H 0.070(3) 0.134(4) 0.200(3)
H10 H 0.152(3) 0.097(4) 0.345(3)
H11 H 0.307(3) 0.156(4) 0.396(3)
H12 H 0.369(4) 0.256(4) 0.301(3)
H13 H 0.434(4) 0.318(4) 0.199(3)
H14 H 0.491(4) 0.407(4) 0.099(3)
H15 H 0.366(3) 0.450(4) -0.056(3)
H16 H 0.212(3) 0.410(4) -0.059(3)
C1 C 0.1296(3) 0.0868(4) -0.0798(3)
C2 C 0.1236(3) -0.0559(3) -0.2287(3)
C3 C 0.2947(3) -0.1776(4) -0.1118(3)
C4 C -0.1170(3) 0.1461(4) 0.0583(3)
C5 C 0.2926(4) -0.0516(4) 0.1074(3)
C6 C 0.3560(4) -0.0267(4) 0.1911(3)
C7 C 0.4336(4) 0.0409(4) 0.1955(3)
C8 C 0.4455(3) 0.0824(4) 0.1156(3)
C9 C 0.3854(3) 0.0930(3) -0.0554(3)
C10 C 0.4580(3) 0.1617(4) -0.0649(3)
C11 C 0.4572(4) 0.1942(4) -0.1498(4)
C12 C 0.3846(4) 0.1582(4) -0.2233(4)
C13 C 0.3129(4) 0.0905(4) -0.2100(3)
C14 C 0.1277(4) 0.1632(4) 0.2239(3)
C15 C 0.1802(5) 0.1375(5) 0.3083(4)
C16 C 0.2746(5) 0.1735(5) 0.3400(4)
C17 C 0.3145(4) 0.2321(5) 0.2847(4)
C18 C 0.2573(3) 0.2548(3) 0.1968(3)
C19 C 0.2948(3) 0.3142(3) 0.1302(3)
C20 C 0.3939(4) 0.3397(5) 0.1454(4)
C21 C 0.4224(5) 0.3895(5) 0.0769(6)
C22 C 0.3546(5) 0.4133(6) -0.0034(5)
C23 C 0.2586(4) 0.3872(5) -0.0129(4)
C24 C -0.0062(3) 0.4936(3) -0.0514(3)
C25 C 0.3800(3) 0.0531(3) 0.0338(3)
Mn1B Mn -0.07056(5) 0.71405(5) -0.03005(4)
Mn1B_2 Mn -0.07056(5) -0.28595(5) -0.03005(4)
Cr1B Cr -0.21145(5) 0.04427(5) 0.09875(4)
Cr1B_2 Cr -0.21145(5) 1.04427(5) 0.09875(4)
O1B O -0.0148(2) 0.5972(2) 0.07630(17)
O2B O 0.0384(2) 0.4276(2) 0.10082(17)
N1B N -0.0912(3) 0.8386(3) 0.0628(3)
N2B N -0.0713(3) 0.0608(3) 0.3013(3)
N3B N -0.3407(3) 0.2496(4) 0.1157(3)
N4B N 0.0625(3) -0.2030(3) -0.0409(2)
N4B_2 N 0.0625(3) 0.7970(3) -0.0409(2)
N5B N -0.3035(2) 0.0144(3) -0.0292(2)
N6B N -0.3129(2) -0.0577(3) 0.1270(2)
N7B N -0.1634(3) 0.7794(3) -0.1661(2)
N8B N -0.2285(3) 0.6618(3) -0.0524(3)
H1B H -0.244(3) 0.098(4) -0.098(3)
H2B H -0.342(3) 0.063(4) -0.246(3)
H3B H -0.484(3) -0.055(3) -0.252(3)
H4B H -0.493(3) -0.126(4) -0.113(3)
H5B H -0.508(3) -0.183(4) 0.015(3)
H6B H -0.508(3) -0.244(4) 0.161(3)
H7B H -0.380(3) -0.172(4) 0.283(3)
H8B H -0.261(3) -0.069(4) 0.260(3)
H9B H -0.070(3) 0.866(4) -0.200(3)
H10B H -0.152(3) 0.903(4) -0.345(3)
H11B H -0.307(3) 0.844(4) -0.396(3)
H12B H -0.369(4) 0.744(4) -0.301(3)
H13B H -0.434(4) 0.682(4) -0.199(3)
H14B H -0.491(4) 0.593(4) -0.099(3)
H15B H -0.366(3) 0.550(4) 0.056(3)
H16B H -0.212(3) 0.590(4) 0.059(3)
C1B C -0.1296(3) 0.9132(4) 0.0798(3)
C1B_2 C -0.1296(3) -0.0868(4) 0.0798(3)
C2B C -0.1236(3) 0.0559(3) 0.2287(3)
C3B C -0.2947(3) 0.1776(4) 0.1118(3)
C4B C 0.1170(3) -0.1461(4) -0.0583(3)
C5B C -0.2926(4) 0.0516(4) -0.1074(3)
C6B C -0.3560(4) 0.0267(4) -0.1911(3)
C7B C -0.4336(4) -0.0409(4) -0.1955(3)
C8B C -0.4455(3) -0.0824(4) -0.1156(3)
C9B C -0.3854(3) -0.0930(3) 0.0554(3)
C10B C -0.4580(3) -0.1617(4) 0.0649(3)
C11B C -0.4572(4) -0.1942(4) 0.1498(4)
C12B C -0.3846(4) -0.1582(4) 0.2233(4)
C13B C -0.3129(4) -0.0905(4) 0.2100(3)
C14B C -0.1277(4) 0.8368(4) -0.2239(3)
C15B C -0.1802(5) 0.8625(5) -0.3083(4)
C16B C -0.2746(5) 0.8265(5) -0.3400(4)
C17B C -0.3145(4) 0.7679(5) -0.2847(4)
C18B C -0.2573(3) 0.7452(3) -0.1968(3)
C19B C -0.2948(3) 0.6858(3) -0.1302(3)
C20B C -0.3939(4) 0.6603(5) -0.1454(4)
C21B C -0.4224(5) 0.6105(5) -0.0769(6)
C22B C -0.3546(5) 0.5867(6) 0.0034(5)
C23B C -0.2586(4) 0.6128(5) 0.0129(4)
C24B C 0.0062(3) 0.5064(3) 0.0514(3)
C25B C -0.3800(3) -0.0531(3) -0.0338(3)
loop_
_geom_bond_atom_site_label_1
_geom_bond_atom_site_label_2
_geom_bond_site_symmetry_1
_geom_bond_site_symmetry_2
Mn1 O1 1_555 1_555
Cr1 N5 1_555 1_555
O1 C24 1_555 1_555
O2 C24 1_555 1_555
N1 Mn1 1_555 1_555
N2 C2 1_555 1_555
N3 C3 1_555 1_555
N4 Mn1 1_555 1_555
N5 C5 1_555 1_555
N6 Cr1 1_555 1_555
N7 Mn1 1_555 1_555
N8 Mn1 1_555 1_555
H1 C5 1_555 1_555
H2 C6 1_555 1_555
H3 C7 1_555 1_555
H4 C8 1_555 1_555
H5 C10 1_555 1_555
H6 C11 1_555 1_555
H7 C12 1_555 1_555
H8 C13 1_555 1_555
H9 C14 1_555 1_555
H10 C15 1_555 1_555
H11 C16 1_555 1_555
H12 C17 1_555 1_555
H13 C20 1_555 1_555
H14 C21 1_555 1_555
H15 C22 1_555 1_555
H16 C23 1_555 1_555
C1 Cr1 1_555 1_555
C2 Cr1 1_555 1_555
C3 Cr1 1_555 1_555
C4 N4 1_555 1_555
C5 C6 1_555 1_555
C6 C7 1_555 1_555
C7 C8 1_555 1_555
C8 C25 1_555 1_555
C9 N6 1_555 1_555
C10 C9 1_555 1_555
C11 C10 1_555 1_555
C12 C11 1_555 1_555
C13 N6 1_555 1_555
C14 N7 1_555 1_555
C15 C14 1_555 1_555
C16 C15 1_555 1_555
C17 C16 1_555 1_555
C18 N7 1_555 1_555
C19 N8 1_555 1_555
C20 C19 1_555 1_555
C21 C20 1_555 1_555
C22 C21 1_555 1_555
C23 N8 1_555 1_555
C24 C24B 1_555 1_555
C25 N5 1_555 1_555
Mn1B O2 1_555 1_555
Mn1B_2 N4B 1_555 1_555
Cr1B C4 1_555 1_555
Cr1B_2 C1B 1_555 1_555
O1B Mn1B 1_555 1_555
O2B Mn1 1_555 1_555
N1B Mn1B 1_555 1_555
N2B C2B 1_555 1_555
N3B C3B 1_555 1_555
N4B C4B 1_555 1_555
N4B_2 Mn1B 1_555 1_555
N5B Cr1B 1_555 1_555
N6B Cr1B 1_555 1_555
N7B Mn1B 1_555 1_555
N8B Mn1B 1_555 1_555
H1B C5B 1_555 1_555
H2B C6B 1_555 1_555
H3B C7B 1_555 1_555
H4B C8B 1_555 1_555
H5B C10B 1_555 1_555
H6B C11B 1_555 1_555
H7B C12B 1_555 1_555
H8B C13B 1_555 1_555
H9B C14B 1_555 1_555
H10B C15B 1_555 1_555
H11B C16B 1_555 1_555
H12B C17B 1_555 1_555
H13B C20B 1_555 1_555
H14B C21B 1_555 1_555
H15B C22B 1_555 1_555
H16B C23B 1_555 1_555
C1B N1B 1_555 1_555
C1B_2 Cr1B 1_555 1_555
C2B Cr1B 1_555 1_555
C3B Cr1B 1_555 1_555
C4B Cr1 1_555 1_555
C5B N5B 1_555 1_555
C6B C5B 1_555 1_555
C7B C6B 1_555 1_555
C8B C7B 1_555 1_555
C9B N6B 1_555 1_555
C10B C9B 1_555 1_555
C11B C10B 1_555 1_555
C12B C11B 1_555 1_555
C13B N6B 1_555 1_555
C14B N7B 1_555 1_555
C15B C14B 1_555 1_555
C16B C15B 1_555 1_555
C17B C16B 1_555 1_555
C18B N7B 1_555 1_555
C19B N8B 1_555 1_555
C20B C19B 1_555 1_555
C21B C20B 1_555 1_555
C22B C21B 1_555 1_555
C23B N8B 1_555 1_555
C24B O1B 1_555 1_555
C25B N5B 1_555 1_555
N1 C1 1_555 1_555
C9 C25 1_555 1_555
C12 C13 1_555 1_555
C17 C18 1_555 1_555
C18 C19 1_555 1_555
C22 C23 1_555 1_555
O2B C24B 1_555 1_555
C8B C25B 1_555 1_555
C9B C25B 1_555 1_555
C12B C13B 1_555 1_555
C17B C18B 1_555 1_555
C18B C19B 1_555 1_555
C22B C23B 1_555 1_555

#END
