
#######################################################################
#
#                 Cambridge Crystallographic Data Centre
#                                CCDC 
#
#######################################################################
#
# If this CIF has been generated from an entry in the Cambridge 
# Structural Database, then it will include bibliographic, chemical, 
# crystal, experimental, refinement or atomic coordinate data resulting 
# from the CCDC's data processing and validation procedures.
#
#######################################################################

data_VELKED
_symmetry_cell_setting           orthorhombic
_symmetry_space_group_name_H-M   'P n n a'
_symmetry_Int_Tables_number      52
_space_group_name_Hall           '-P 2a 2bc'
loop_
_symmetry_equiv_pos_site_id
_symmetry_equiv_pos_as_xyz
1 x,y,z
2 1/2-x,-y,z
3 1/2-x,1/2+y,1/2-z
4 x,1/2-y,1/2-z
5 -x,-y,-z
6 1/2+x,y,-z
7 1/2+x,1/2-y,1/2+z
8 -x,1/2+y,1/2+z
_cell_length_a                   24.101(2)
_cell_length_b                   17.2860(10)
_cell_length_c                   9.2556(6)
_cell_angle_alpha                90
_cell_angle_beta                 90
_cell_angle_gamma                90
_cell_volume                     3855.97
loop_
_atom_site_label
_atom_site_type_symbol
_atom_site_fract_x
_atom_site_fract_y
_atom_site_fract_z
Cd1 Cd 0.405880(10) 0.7500 0.7500
S1 S 0.38945(4) 0.62451(5) 1.06925(8)
O1 O 0.40610(10) 0.65960(10) 0.9354(3)
O2 O 0.3334(2) 0.6535(2) 1.1083(4)
O3 O 0.4284(2) 0.6281(2) 1.1782(5)
N1 N 0.33390(10) 0.67900(10) 0.6425(2)
N2 N -0.02340(10) 0.68020(10) 0.3631(2)
C1 C 0.38000(10) 0.5249(2) 1.0308(3)
C2 C 0.42170(10) 0.4813(2) 0.9677(3)
C3 C 0.4152(2) 0.4021(2) 0.9516(4)
C4 C 0.3673(2) 0.3654(2) 0.9958(4)
C5 C 0.3256(2) 0.4094(2) 1.0543(5)
C6 C 0.33150(10) 0.4886(2) 1.0724(4)
C7 C 0.3609(3) 0.2787(3) 0.9809(7)
C8 C 0.29570(10) 0.6500(2) 0.7328(3)
C9 C 0.24720(10) 0.6153(2) 0.6861(3)
C10 C 0.23600(10) 0.6096(2) 0.5397(3)
C11 C 0.27590(10) 0.6388(2) 0.4465(3)
C12 C 0.32350(10) 0.6727(2) 0.5004(3)
C13 C 0.18300(10) 0.5738(2) 0.4834(3)
C14 C 0.14340(10) 0.5447(2) 0.5972(3)
C15 C 0.08980(10) 0.5101(2) 0.5362(3)
C16 C 0.05110(10) 0.5707(2) 0.4757(3)
C17 C 0.04680(10) 0.5843(2) 0.3280(3)
C18 C 0.00980(10) 0.6383(2) 0.2775(3)
C19 C -0.01850(10) 0.6688(2) 0.5059(3)
C20 C 0.01740(10) 0.6152(2) 0.5646(3)
H1 H 0.4541 0.5052 0.9362
H2 H 0.4436 0.3732 0.9103
H3 H 0.2927 0.3856 1.0824
H4 H 0.3028 0.5173 1.1126
H5 H 0.3239 0.2668 0.9501
H6 H 0.3680 0.2544 1.0724
H7 H 0.3869 0.2597 0.9107
H8 H 0.3021 0.6534 0.8316
H9 H 0.2221 0.5958 0.7531
H10 H 0.2706 0.6355 0.3472
H11 H 0.3495 0.6919 0.4354
H12 H 0.1639 0.6120 0.4249
H13 H 0.1927 0.5310 0.4207
H14 H 0.1339 0.5872 0.6609
H15 H 0.1621 0.5057 0.6546
H16 H 0.0991 0.4735 0.4605
H17 H 0.0709 0.4819 0.6123
H18 H 0.0689 0.5569 0.2636
H19 H 0.0077 0.6462 0.1783
H20 H -0.0403 0.6983 0.5679
H21 H 0.0190 0.6088 0.6643
Cd1E Cd -0.094120(10) 0.7500 0.2500
Cd1E_2 Cd -0.094120(10) 0.7500 1.2500
S1C S 0.38945(4) 0.87549(5) 0.43075(8)
O1C O 0.40610(10) 0.84040(10) 0.5646(3)
O2C O 0.3334(2) 0.8465(2) 0.3917(4)
O3C O 0.4284(2) 0.8719(2) 0.3218(5)
N1C N 0.33390(10) 0.82100(10) 0.8575(2)
N2C N -0.02340(10) 0.81980(10) 1.1369(2)
N2E N 0.47660(10) 0.68020(10) 0.6369(2)
N2F N 0.47660(10) 0.81980(10) 0.8631(2)
C1C C 0.38000(10) 0.9751(2) 0.4692(3)
C2C C 0.42170(10) 1.0187(2) 0.5323(3)
C3C C 0.4152(2) 1.0979(2) 0.5484(4)
C4C C 0.3673(2) 1.1346(2) 0.5042(4)
C5C C 0.3256(2) 1.0906(2) 0.4457(5)
C6C C 0.33150(10) 1.0114(2) 0.4276(4)
C7C C 0.3609(3) 1.2213(3) 0.5191(7)
C8C C 0.29570(10) 0.8500(2) 0.7672(3)
C9C C 0.24720(10) 0.8847(2) 0.8139(3)
C10C C 0.23600(10) 0.8904(2) 0.9603(3)
C11C C 0.27590(10) 0.8612(2) 1.0535(3)
C12C C 0.32350(10) 0.8273(2) 0.9996(3)
C13C C 0.18300(10) 0.9262(2) 1.0166(3)
C14C C 0.14340(10) 0.9553(2) 0.9028(3)
C15C C 0.08980(10) 0.9899(2) 0.9638(3)
C16C C 0.05110(10) 0.9293(2) 1.0243(3)
C17C C 0.04680(10) 0.9157(2) 1.1720(3)
C18C C 0.00980(10) 0.8617(2) 1.2225(3)
C19C C -0.01850(10) 0.8312(2) 0.9941(3)
C20C C 0.01740(10) 0.8848(2) 0.9354(3)
H1C H 0.4541 0.9948 0.5638
H2C H 0.4436 1.1268 0.5897
H3C H 0.2927 1.1144 0.4176
H4C H 0.3028 0.9827 0.3874
H5C H 0.3239 1.2332 0.5499
H6C H 0.3680 1.2456 0.4276
H7C H 0.3869 1.2403 0.5893
H8C H 0.3021 0.8466 0.6684
H9C H 0.2221 0.9042 0.7469
H10C H 0.2706 0.8645 1.1528
H11C H 0.3495 0.8081 1.0646
H12C H 0.1639 0.8880 1.0751
H13C H 0.1927 0.9690 1.0793
H14C H 0.1339 0.9128 0.8391
H15C H 0.1621 0.9943 0.8454
H16C H 0.0991 1.0265 1.0395
H17C H 0.0709 1.0181 0.8877
H18C H 0.0689 0.9431 1.2364
H19C H 0.0077 0.8538 1.3217
H20C H -0.0403 0.8017 0.9321
H21C H 0.0190 0.8912 0.8357
loop_
_geom_bond_atom_site_label_1
_geom_bond_atom_site_label_2
_geom_bond_site_symmetry_1
_geom_bond_site_symmetry_2
Cd1 O1 1_555 1_555
S1 O1 1_555 1_555
O2 S1 1_555 1_555
O3 S1 1_555 1_555
N1 Cd1 1_555 1_555
N2 C18 1_555 1_555
C1 S1 1_555 1_555
C2 C1 1_555 1_555
C3 C2 1_555 1_555
C4 C3 1_555 1_555
C5 C4 1_555 1_555
C6 C1 1_555 1_555
C7 C4 1_555 1_555
C8 N1 1_555 1_555
C9 C8 1_555 1_555
C10 C9 1_555 1_555
C11 C10 1_555 1_555
C12 N1 1_555 1_555
C13 C10 1_555 1_555
C14 C13 1_555 1_555
C15 C14 1_555 1_555
C16 C15 1_555 1_555
C17 C16 1_555 1_555
C18 C17 1_555 1_555
C19 N2 1_555 1_555
C20 C16 1_555 1_555
H1 C2 1_555 1_555
H2 C3 1_555 1_555
H3 C5 1_555 1_555
H4 C6 1_555 1_555
H5 C7 1_555 1_555
H6 C7 1_555 1_555
H7 C7 1_555 1_555
H8 C8 1_555 1_555
H9 C9 1_555 1_555
H10 C11 1_555 1_555
H11 C12 1_555 1_555
H12 C13 1_555 1_555
H13 C13 1_555 1_555
H14 C14 1_555 1_555
H15 C14 1_555 1_555
H16 C15 1_555 1_555
H17 C15 1_555 1_555
H18 C17 1_555 1_555
H19 C18 1_555 1_555
H20 C19 1_555 1_555
H21 C20 1_555 1_555
Cd1E N2 1_555 1_555
Cd1E_2 N2C 1_555 1_555
S1C O1C 1_555 1_555
O1C Cd1 1_555 1_555
O2C S1C 1_555 1_555
O3C S1C 1_555 1_555
N1C Cd1 1_555 1_555
N2C C18C 1_555 1_555
N2E Cd1 1_555 1_555
N2F Cd1 1_555 1_555
C1C S1C 1_555 1_555
C2C C1C 1_555 1_555
C3C C2C 1_555 1_555
C4C C3C 1_555 1_555
C5C C4C 1_555 1_555
C6C C1C 1_555 1_555
C7C C4C 1_555 1_555
C8C N1C 1_555 1_555
C9C C8C 1_555 1_555
C10C C9C 1_555 1_555
C11C C10C 1_555 1_555
C12C N1C 1_555 1_555
C13C C10C 1_555 1_555
C14C C13C 1_555 1_555
C15C C14C 1_555 1_555
C16C C15C 1_555 1_555
C17C C16C 1_555 1_555
C18C C17C 1_555 1_555
C19C N2C 1_555 1_555
C20C C16C 1_555 1_555
H1C C2C 1_555 1_555
H2C C3C 1_555 1_555
H3C C5C 1_555 1_555
H4C C6C 1_555 1_555
H5C C7C 1_555 1_555
H6C C7C 1_555 1_555
H7C C7C 1_555 1_555
H8C C8C 1_555 1_555
H9C C9C 1_555 1_555
H10C C11C 1_555 1_555
H11C C12C 1_555 1_555
H12C C13C 1_555 1_555
H13C C13C 1_555 1_555
H14C C14C 1_555 1_555
H15C C14C 1_555 1_555
H16C C15C 1_555 1_555
H17C C15C 1_555 1_555
H18C C17C 1_555 1_555
H19C C18C 1_555 1_555
H20C C19C 1_555 1_555
H21C C20C 1_555 1_555
C5 C6 1_555 1_555
C11 C12 1_555 1_555
C19 C20 1_555 1_555
C5C C6C 1_555 1_555
C11C C12C 1_555 1_555
C19C C20C 1_555 1_555

#END
