
#######################################################################
#
#                 Cambridge Crystallographic Data Centre
#                                CCDC 
#
#######################################################################
#
# If this CIF has been generated from an entry in the Cambridge 
# Structural Database, then it will include bibliographic, chemical, 
# crystal, experimental, refinement or atomic coordinate data resulting 
# from the CCDC's data processing and validation procedures.
#
#######################################################################

data_VELKAZ
_symmetry_cell_setting           monoclinic
_symmetry_space_group_name_H-M   'P 21/n'
_symmetry_Int_Tables_number      14
_space_group_name_Hall           '-P 2yn'
loop_
_symmetry_equiv_pos_site_id
_symmetry_equiv_pos_as_xyz
1 x,y,z
2 1/2-x,1/2+y,1/2-z
3 -x,-y,-z
4 1/2+x,1/2-y,1/2+z
_cell_length_a                   9.7585(7)
_cell_length_b                   18.2900(10)
_cell_length_c                   14.2460(10)
_cell_angle_alpha                90
_cell_angle_beta                 96.9170(10)
_cell_angle_gamma                90
_cell_volume                     2524.16
loop_
_atom_site_label
_atom_site_type_symbol
_atom_site_fract_x
_atom_site_fract_y
_atom_site_fract_z
Cd1 Cd 0.74873(2) 0.451790(10) 0.51294(2)
S1 S 0.57991(7) 0.59593(4) 0.62352(6)
S2 S 0.91186(7) 0.55112(4) 0.33886(5)
O1 O 0.6976(2) 0.55570(10) 0.5941(2)
O2 O 0.4504(2) 0.55680(10) 0.5933(2)
O3 O 0.5779(2) 0.67230(10) 0.5971(2)
O4 O 0.8030(2) 0.53350(10) 0.3976(2)
O5 O 1.0490(2) 0.5372(2) 0.3885(2)
O6 O 0.8978(3) 0.62380(10) 0.2998(2)
N1 N 0.6491(3) 0.38030(10) 0.6213(2)
N2 N 0.3489(3) 0.14410(10) 0.9383(2)
C1 C 0.5999(3) 0.5936(2) 0.7494(2)
C2 C 0.6295(5) 0.5286(2) 0.7970(3)
C3 C 0.6454(5) 0.5272(3) 0.8949(3)
C4 C 0.6335(5) 0.5901(3) 0.9475(3)
C5 C 0.6025(5) 0.6538(2) 0.8993(3)
C6 C 0.5834(4) 0.6571(2) 0.8005(3)
C7 C 0.6570(8) 0.5880(3) 1.0552(3)
C8 C 0.8952(3) 0.4881(2) 0.2430(2)
C9 C 1.0028(5) 0.4817(4) 0.1887(4)
C10 C 0.9904(7) 0.4343(4) 0.1135(5)
C11 C 0.8782(7) 0.3911(3) 0.0910(4)
C12 C 0.7746(6) 0.3973(3) 0.1461(3)
C13 C 0.7814(4) 0.4457(2) 0.2218(3)
C14 C 0.8683(9) 0.3369(4) 0.0079(5)
C15 C 0.7272(3) 0.3382(2) 0.6836(3)
C16 C 0.6731(3) 0.2938(2) 0.7490(3)
C17 C 0.5302(3) 0.2905(2) 0.7511(2)
C18 C 0.4504(3) 0.3360(2) 0.6883(2)
C19 C 0.5127(3) 0.3792(2) 0.6256(2)
C20 C 0.4680(3) 0.2410(2) 0.8172(2)
C21 C 0.5462(3) 0.1895(2) 0.8709(3)
C22 C 0.4838(3) 0.1421(2) 0.9293(2)
C23 C 0.2728(3) 0.1947(2) 0.8881(2)
C24 C 0.3261(3) 0.2429(2) 0.8271(3)
H1 H 0.6387 0.4857 0.7633
H2 H 0.6646 0.4830 0.9261
H3 H 0.5939 0.6965 0.9335
H4 H 0.5600 0.7009 0.7695
H5 H 0.6561 0.5382 1.0763
H6 H 0.5851 0.6148 1.0803
H7 H 0.7447 0.6097 1.0768
H8 H 1.0827 0.5092 0.2029
H9 H 1.0622 0.4317 0.0762
H10 H 0.6964 0.3683 0.1327
H11 H 0.7083 0.4489 0.2578
H12 H 0.7922 0.3042 0.0118
H13 H 0.9523 0.3092 0.0106
H14 H 0.8542 0.3633 -0.0507
H15 H 0.8224 0.3387 0.6829
H16 H 0.7318 0.2662 0.7914
H17 H 0.3552 0.3376 0.6884
H18 H 0.4567 0.4090 0.5842
H19 H 0.6408 0.1866 0.8681
H20 H 0.5385 0.1074 0.9636
H21 H 0.1792 0.1976 0.8945
H22 H 0.2686 0.2765 0.7928
Cd1B Cd 0.25127(2) 0.548210(10) 0.48706(2)
Cd1B_2 Cd 1.25127(2) 0.548210(10) 0.48706(2)
Cd1C Cd 0.24873(2) 0.048210(10) 1.01294(2)
O2B O 0.5496(2) 0.44320(10) 0.4067(2)
O5B O 0.9510(2) 0.4628(2) 0.6115(2)
N2C N 0.8489(3) 0.35590(10) 0.4383(2)
loop_
_geom_bond_atom_site_label_1
_geom_bond_atom_site_label_2
_geom_bond_site_symmetry_1
_geom_bond_site_symmetry_2
Cd1 O1 1_555 1_555
S1 O1 1_555 1_555
S2 O4 1_555 1_555
O2 S1 1_555 1_555
O3 S1 1_555 1_555
O4 Cd1 1_555 1_555
O5 S2 1_555 1_555
O6 S2 1_555 1_555
N1 Cd1 1_555 1_555
N2 C22 1_555 1_555
C1 S1 1_555 1_555
C2 C1 1_555 1_555
C3 C2 1_555 1_555
C4 C3 1_555 1_555
C5 C4 1_555 1_555
C6 C1 1_555 1_555
C7 C4 1_555 1_555
C8 S2 1_555 1_555
C9 C8 1_555 1_555
C10 C9 1_555 1_555
C11 C10 1_555 1_555
C12 C11 1_555 1_555
C13 C8 1_555 1_555
C14 C11 1_555 1_555
C15 N1 1_555 1_555
C16 C15 1_555 1_555
C17 C16 1_555 1_555
C18 C17 1_555 1_555
C19 N1 1_555 1_555
C20 C17 1_555 1_555
C21 C20 1_555 1_555
C22 C21 1_555 1_555
C23 N2 1_555 1_555
C24 C20 1_555 1_555
H1 C2 1_555 1_555
H2 C3 1_555 1_555
H3 C5 1_555 1_555
H4 C6 1_555 1_555
H5 C7 1_555 1_555
H6 C7 1_555 1_555
H7 C7 1_555 1_555
H8 C9 1_555 1_555
H9 C10 1_555 1_555
H10 C12 1_555 1_555
H11 C13 1_555 1_555
H12 C14 1_555 1_555
H13 C14 1_555 1_555
H14 C14 1_555 1_555
H15 C15 1_555 1_555
H16 C16 1_555 1_555
H17 C18 1_555 1_555
H18 C19 1_555 1_555
H19 C21 1_555 1_555
H20 C22 1_555 1_555
H21 C23 1_555 1_555
H22 C24 1_555 1_555
Cd1B O2 1_555 1_555
Cd1B_2 O5 1_555 1_555
Cd1C N2 1_555 1_555
O2B Cd1 1_555 1_555
O5B Cd1 1_555 1_555
N2C Cd1 1_555 1_555
C5 C6 1_555 1_555
C12 C13 1_555 1_555
C18 C19 1_555 1_555
C23 C24 1_555 1_555

#END
