
#######################################################################
#
#                 Cambridge Crystallographic Data Centre
#                                CCDC 
#
#######################################################################
#
# If this CIF has been generated from an entry in the Cambridge 
# Structural Database, then it will include bibliographic, chemical, 
# crystal, experimental, refinement or atomic coordinate data resulting 
# from the CCDC's data processing and validation procedures.
#
#######################################################################

data_VELXIU01
_symmetry_cell_setting           monoclinic
_symmetry_space_group_name_H-M   'P 2/n'
_symmetry_Int_Tables_number      13
_space_group_name_Hall           '-P 2yac'
loop_
_symmetry_equiv_pos_site_id
_symmetry_equiv_pos_as_xyz
1 x,y,z
2 1/2-x,y,1/2-z
3 -x,-y,-z
4 1/2+x,-y,1/2+z
_cell_length_a                   9.879(4)
_cell_length_b                   11.397(4)
_cell_length_c                   21.932(8)
_cell_angle_alpha                90
_cell_angle_beta                 93.030(5)
_cell_angle_gamma                90
_cell_volume                     2465.89
loop_
_atom_site_label
_atom_site_type_symbol
_atom_site_fract_x
_atom_site_fract_y
_atom_site_fract_z
Co1 Co 1.2500 0.08537(4) 0.2500
Co2 Co 0.7500 0.18245(5) 0.2500
O1 O 0.63134(19) 0.19401(17) 0.33377(9)
O2 O 1.4008(2) 0.0787(2) 0.31924(9)
H1 H 1.3672 0.0617 0.3515
O3 O 0.94062(19) 0.17820(17) 0.29238(9)
O4 O 0.5249(2) 0.2700(2) 0.41200(10)
C1 C 1.1009(4) 0.5427(4) 0.43363(16)
C2 C 0.8511(4) 0.8083(3) 0.22525(19)
H2 H 0.9228 0.7699 0.2080
O5 O 1.12257(18) 0.07487(17) 0.32307(9)
O6 O 0.6884(3) -0.1748(2) 0.53116(12)
H3 H 0.6276 -0.1919 0.5536
O7 O 0.6477(3) 0.0057(2) 0.56419(11)
C3 C 0.8660(3) 0.4297(2) 0.25525(13)
H4 H 0.9473 0.3886 0.2592
C4 C 1.2428(3) 0.8343(3) 0.30200(14)
H5 H 1.2376 0.8753 0.3385
N1 N 0.7500 0.3688(3) 0.2500
N2 N 1.2500 0.2734(3) 0.2500
O8 O 1.0995(3) 0.6484(3) 0.42988(14)
C5 C 0.6252(3) 0.2606(3) 0.37996(13)
O9 O 1.2115(3) 0.4813(3) 0.44931(13)
H6 H 1.2735 0.5263 0.4593
C6 C 1.2812(3) 0.4552(3) 0.30259(14)
H7 H 1.3039 0.4935 0.3392
C7 C 0.7029(3) -0.0593(3) 0.52977(14)
C8 C 1.2429(3) 0.7138(3) 0.30363(14)
H8 H 1.2383 0.6750 0.3408
N3 N 1.2500 0.8954(3) 0.2500
C9 C 0.7412(3) 0.4551(3) 0.39592(14)
H9 H 0.6584 0.4922 0.3874
C10 C 0.8706(3) 0.2770(3) 0.41341(12)
C11 C 0.8708(3) 0.1474(3) 0.42290(12)
C12 C 0.8701(3) 0.5506(3) 0.25509(14)
H10 H 0.9531 0.5893 0.2584
C13 C 0.9369(3) 0.0686(3) 0.38503(12)
C14 C 1.0054(3) 0.1110(2) 0.32901(12)
C15 C 0.8005(3) 0.1023(3) 0.47115(12)
H11 H 0.7587 0.1536 0.4973
C16 C 0.7500 0.7445(3) 0.2500
C17 C 1.2500 0.5204(3) 0.2500
C18 C 0.7488(3) 0.3331(3) 0.39734(12)
C19 C 0.7500 0.6150(3) 0.2500
C20 C 0.9801(3) 0.4665(3) 0.42121(14)
C21 C 0.9351(3) -0.0510(3) 0.39763(14)
H12 H 0.9839 -0.1023 0.3742
C22 C 0.8614(3) -0.0945(3) 0.44481(14)
H13 H 0.8588 -0.1748 0.4522
C23 C 0.7918(3) -0.0178(3) 0.48090(13)
C24 C 1.2787(3) 0.3344(3) 0.30084(14)
H14 H 1.2980 0.2934 0.3369
C25 C 0.9870(3) 0.3448(3) 0.42511(13)
H15 H 1.0693 0.3084 0.4355
C26 C 1.2500 0.6495(3) 0.2500
C27 C 0.8573(4) 0.5208(3) 0.40726(15)
H16 H 0.8528 0.6022 0.4055
N4 N 0.7500 0.9907(3) 0.2500
C28 C 0.8471(4) 0.9290(3) 0.2259(2)
H17 H 0.9168 0.9696 0.2082
H19 H 1.471(5) 0.119(4) 0.320(2)
Co1_2 Co 0.2500 0.08537(4) 0.2500
Co1_3 Co 1.2500 1.08537(4) 0.2500
Co2_2 Co 0.7500 1.18245(5) 0.2500
O1A O 0.86866(19) 0.19401(17) 0.16623(9)
O2A O 1.0992(2) 0.0787(2) 0.18076(9)
H1A H 1.1328 0.0617 0.1485
O3A O 0.55938(19) 0.17820(17) 0.20762(9)
O4A O 0.9751(2) 0.2700(2) 0.08800(10)
C1A C 0.3991(4) 0.5427(4) 0.06637(16)
C2A C 0.6489(4) 0.8083(3) 0.27475(19)
H2A H 0.5772 0.7699 0.2920
O5A O 0.37743(18) 0.07487(17) 0.17693(9)
O5A_2 O 1.37743(18) 0.07487(17) 0.17693(9)
O6A O 0.8116(3) -0.1748(2) -0.03116(12)
H3A H 0.8724 -0.1919 -0.0536
O7A O 0.8523(3) 0.0057(2) -0.06419(11)
C3A C 0.6340(3) 0.4297(2) 0.24475(13)
H4A H 0.5527 0.3886 0.2408
C4A C 1.2572(3) 0.8343(3) 0.19800(14)
H5A H 1.2624 0.8753 0.1615
O8A O 0.4005(3) 0.6484(3) 0.07012(14)
C5A C 0.8748(3) 0.2606(3) 0.12004(13)
O9A O 0.2885(3) 0.4813(3) 0.05069(13)
H6A H 0.2265 0.5263 0.0407
C6A C 1.2188(3) 0.4552(3) 0.19741(14)
H7A H 1.1961 0.4935 0.1608
C7A C 0.7971(3) -0.0593(3) -0.02977(14)
C8A C 1.2571(3) 0.7138(3) 0.19637(14)
H8A H 1.2617 0.6750 0.1592
N3_2 N 1.2500 -0.1046(3) 0.2500
C9A C 0.7588(3) 0.4551(3) 0.10408(14)
H9A H 0.8416 0.4922 0.1126
C10A C 0.6294(3) 0.2770(3) 0.08659(12)
C11A C 0.6292(3) 0.1474(3) 0.07710(12)
C12A C 0.6299(3) 0.5506(3) 0.24491(14)
H10A H 0.5469 0.5893 0.2416
C13A C 0.5631(3) 0.0686(3) 0.11497(12)
C14A C 0.4946(3) 0.1110(2) 0.17099(12)
C15A C 0.6995(3) 0.1023(3) 0.02885(12)
H11A H 0.7413 0.1536 0.0027
C18A C 0.7512(3) 0.3331(3) 0.10266(12)
C20A C 0.5199(3) 0.4665(3) 0.07879(14)
C21A C 0.5649(3) -0.0510(3) 0.10237(14)
H12A H 0.5161 -0.1023 0.1258
C22A C 0.6386(3) -0.0945(3) 0.05519(14)
H13A H 0.6412 -0.1748 0.0478
C23A C 0.7082(3) -0.0178(3) 0.01910(13)
C24A C 1.2213(3) 0.3344(3) 0.19916(14)
H14A H 1.2020 0.2934 0.1631
C25A C 0.5130(3) 0.3448(3) 0.07489(13)
H15A H 0.4307 0.3084 0.0645
C27A C 0.6427(4) 0.5208(3) 0.09274(15)
H16A H 0.6472 0.6022 0.0945
N4_2 N 0.7500 -0.0093(3) 0.2500
C28A C 0.6529(4) 0.9290(3) 0.2741(2)
H17A H 0.5832 0.9696 0.2918
H19A H 1.029(5) 0.119(4) 0.180(2)
O10 O 0.4345(4) 0.6038(4) 0.47904(18)
H18 H 0.445(7) 0.660(5) 0.510(2)
H20 H 0.499(16) 0.556(13) 0.469(7)
O11 O 0.5143(8) 0.7872(7) 0.4074(3)
loop_
_geom_bond_atom_site_label_1
_geom_bond_atom_site_label_2
_geom_bond_site_symmetry_1
_geom_bond_site_symmetry_2
Co1 O2 1_555 1_555
Co2 O1 1_555 1_555
O1 C5 1_555 1_555
O2 H1 1_555 1_555
O3 Co2 1_555 1_555
O4 C5 1_555 1_555
C1 O8 1_555 1_555
C2 H2 1_555 1_555
O5 Co1 1_555 1_555
O6 H3 1_555 1_555
O7 C7 1_555 1_555
C3 H4 1_555 1_555
C4 H5 1_555 1_555
N1 Co2 1_555 1_555
N2 Co1 1_555 1_555
C5 C18 1_555 1_555
O9 C1 1_555 1_555
H6 O9 1_555 1_555
C6 H7 1_555 1_555
C7 O6 1_555 1_555
C8 C4 1_555 1_555
H8 C8 1_555 1_555
N3 C4 1_555 1_555
C9 H9 1_555 1_555
C10 C11 1_555 1_555
C11 C13 1_555 1_555
C12 C3 1_555 1_555
H10 C12 1_555 1_555
C13 C14 1_555 1_555
C14 O3 1_555 1_555
C15 C11 1_555 1_555
H11 C15 1_555 1_555
C16 C2 1_555 1_555
C17 C6 1_555 1_555
C18 C9 1_555 1_555
C19 C12 1_555 1_555
C20 C1 1_555 1_555
C21 C13 1_555 1_555
H12 C21 1_555 1_555
C22 C21 1_555 1_555
H13 C22 1_555 1_555
C23 C7 1_555 1_555
C24 N2 1_555 1_555
H14 C24 1_555 1_555
C25 C10 1_555 1_555
H15 C25 1_555 1_555
C26 C8 1_555 1_555
C27 C9 1_555 1_555
H16 C27 1_555 1_555
N4 C28 1_555 1_555
O10 H18 1_555 1_555
C28 C2 1_555 1_555
H17 C28 1_555 1_555
H19 O2 1_555 1_555
H20 O10 1_555 1_555
Co1_2 O5A 1_555 1_555
Co1_3 N3 1_555 1_555
Co2_2 N4 1_555 1_555
O1A Co2 1_555 1_555
O2A Co1 1_555 1_555
H1A O2A 1_555 1_555
O3A Co2 1_555 1_555
O4A C5A 1_555 1_555
C1A O8A 1_555 1_555
C2A C16 1_555 1_555
H2A C2A 1_555 1_555
O5A C14A 1_555 1_555
O5A_2 Co1 1_555 1_555
O6A H3A 1_555 1_555
O7A C7A 1_555 1_555
C3A N1 1_555 1_555
H4A C3A 1_555 1_555
C4A N3 1_555 1_555
H5A C4A 1_555 1_555
C5A O1A 1_555 1_555
O9A C1A 1_555 1_555
H6A O9A 1_555 1_555
C6A C17 1_555 1_555
H7A C6A 1_555 1_555
C7A O6A 1_555 1_555
C8A C26 1_555 1_555
H8A C8A 1_555 1_555
N3_2 Co1 1_555 1_555
C9A H9A 1_555 1_555
C10A C11A 1_555 1_555
C11A C13A 1_555 1_555
C12A C19 1_555 1_555
H10A C12A 1_555 1_555
C13A C14A 1_555 1_555
C14A O3A 1_555 1_555
C15A C11A 1_555 1_555
H11A C15A 1_555 1_555
C18A C5A 1_555 1_555
C20A C1A 1_555 1_555
C21A C13A 1_555 1_555
H12A C21A 1_555 1_555
C22A C21A 1_555 1_555
H13A C22A 1_555 1_555
C23A C7A 1_555 1_555
C24A N2 1_555 1_555
H14A C24A 1_555 1_555
C25A C10A 1_555 1_555
H15A C25A 1_555 1_555
C27A C9A 1_555 1_555
H16A C27A 1_555 1_555
N4_2 Co2 1_555 1_555
C28A N4 1_555 1_555
H17A C28A 1_555 1_555
H19A O2A 1_555 1_555
O5 C14 1_555 1_555
C3 N1 1_555 1_555
C6 C24 1_555 1_555
C10 C18 1_555 1_555
C15 C23 1_555 1_555
C16 C19 1_555 1_555
C17 C26 1_555 1_555
C20 C25 1_555 1_555
C20 C27 1_555 1_555
C22 C23 1_555 1_555
C2A C28A 1_555 1_555
C3A C12A 1_555 1_555
C4A C8A 1_555 1_555
C6A C24A 1_555 1_555
C9A C18A 1_555 1_555
C10A C18A 1_555 1_555
C15A C23A 1_555 1_555
C20A C25A 1_555 1_555
C20A C27A 1_555 1_555
C22A C23A 1_555 1_555

#END
