
#######################################################################
#
#                 Cambridge Crystallographic Data Centre
#                                CCDC 
#
#######################################################################
#
# If this CIF has been generated from an entry in the Cambridge 
# Structural Database, then it will include bibliographic, chemical, 
# crystal, experimental, refinement or atomic coordinate data resulting 
# from the CCDC's data processing and validation procedures.
#
#######################################################################

data_VEMGUQ
_symmetry_cell_setting           monoclinic
_symmetry_space_group_name_H-M   'P 21/c'
_symmetry_Int_Tables_number      14
_space_group_name_Hall           '-P 2ybc'
loop_
_symmetry_equiv_pos_site_id
_symmetry_equiv_pos_as_xyz
1 x,y,z
2 -x,1/2+y,1/2-z
3 -x,-y,-z
4 x,1/2-y,1/2+z
_cell_length_a                   11.198(2)
_cell_length_b                   12.228(2)
_cell_length_c                   12.3655(19)
_cell_angle_alpha                90
_cell_angle_beta                 105.710(2)
_cell_angle_gamma                90
_cell_volume                     1629.95
loop_
_atom_site_label
_atom_site_type_symbol
_atom_site_fract_x
_atom_site_fract_y
_atom_site_fract_z
Mn1 Mn 0.50091(5) 0.14742(3) 0.00924(3)
Mn2 Mn 0.64875(5) 0.29683(4) 0.26537(3)
As1 As 0.63714(3) 0.00070(2) 0.24299(2)
As2 As 0.63366(3) -0.29085(2) 0.24224(2)
S1 S 0.71280(8) 0.13460(6) 0.15500(6)
S2 S 0.44076(7) -0.00812(6) 0.13023(6)
S3 S 0.71335(8) -0.14478(6) 0.16064(6)
S4 S 0.45469(8) -0.31132(6) 0.10909(6)
S5 S 0.56623(8) -0.20104(6) 0.37206(6)
N1 N 0.8320(2) 0.30120(18) 0.39591(17)
N2 N 0.7627(2) 0.42350(18) 0.21081(17)
C1 C 0.8627(3) 0.2349(3) 0.4857(2)
H1 H 0.8037 0.1860 0.4972
C2 C 0.9784(3) 0.2368(3) 0.5614(2)
H2 H 0.9965 0.1902 0.6232
C3 C 1.0662(3) 0.3074(3) 0.5453(2)
H3 H 1.1453 0.3090 0.5947
C4 C 1.0344(3) 0.3764(2) 0.4535(2)
H4 H 1.0913 0.4272 0.4417
C5 C 0.9192(3) 0.3697(2) 0.3805(2)
C6 C 0.8784(3) 0.4391(2) 0.2761(2)
C7 C 0.9586(3) 0.5135(2) 0.2492(2)
H5 H 1.0384 0.5229 0.2959
C8 C 0.9185(3) 0.5731(3) 0.1523(3)
H6 H 0.9712 0.6231 0.1321
C9 C 0.7997(3) 0.5587(3) 0.0850(2)
H7 H 0.7708 0.5988 0.0192
C10 C 0.7252(3) 0.4839(2) 0.1171(2)
H8 H 0.6448 0.4745 0.0718
Mn1B Mn 0.49909(5) -0.14742(3) -0.00924(3)
Mn1A Mn 0.49909(5) -0.35258(3) 0.49076(3)
Mn2A Mn 0.35125(5) -0.20317(4) 0.23463(3)
S2B S 0.55924(7) 0.00812(6) -0.13023(6)
S3B S 0.28665(8) 0.14478(6) -0.16064(6)
S4B S 0.54531(8) 0.31132(6) -0.10909(6)
S4A S 0.54531(8) 0.18868(6) 0.39091(6)
S5A S 0.43377(8) 0.29896(6) 0.12794(6)
loop_
_geom_bond_atom_site_label_1
_geom_bond_atom_site_label_2
_geom_bond_site_symmetry_1
_geom_bond_site_symmetry_2
Mn1 S1 1_555 1_555
Mn2 S1 1_555 1_555
As1 S1 1_555 1_555
As2 S3 1_555 1_555
S2 Mn1 1_555 1_555
S3 As1 1_555 1_555
S4 As2 1_555 1_555
S5 As2 1_555 1_555
N1 Mn2 1_555 1_555
N2 Mn2 1_555 1_555
C1 N1 1_555 1_555
H1 C1 1_555 1_555
C2 C1 1_555 1_555
H2 C2 1_555 1_555
C3 C2 1_555 1_555
H3 C3 1_555 1_555
C4 C3 1_555 1_555
H4 C4 1_555 1_555
C5 N1 1_555 1_555
C6 N2 1_555 1_555
C7 C6 1_555 1_555
H5 C7 1_555 1_555
C8 C7 1_555 1_555
H6 C8 1_555 1_555
C9 C8 1_555 1_555
H7 C9 1_555 1_555
C10 N2 1_555 1_555
H8 C10 1_555 1_555
Mn1B S2 1_555 1_555
Mn1A S5 1_555 1_555
Mn2A S4 1_555 1_555
S2B Mn1 1_555 1_555
S3B Mn1 1_555 1_555
S4B Mn1 1_555 1_555
S4A Mn2 1_555 1_555
S5A Mn1 1_555 1_555
Mn2 S5A 1_555 1_555
As1 S2 1_555 1_555
S3 Mn1B 1_555 1_555
S4 Mn1B 1_555 1_555
S5 Mn2A 1_555 1_555
C4 C5 1_555 1_555
C5 C6 1_555 1_555
C9 C10 1_555 1_555
Mn1B S2B 1_555 1_555

#END
