
#######################################################################
#
#                 Cambridge Crystallographic Data Centre
#                                CCDC 
#
#######################################################################
#
# If this CIF has been generated from an entry in the Cambridge 
# Structural Database, then it will include bibliographic, chemical, 
# crystal, experimental, refinement or atomic coordinate data resulting 
# from the CCDC's data processing and validation procedures.
#
#######################################################################

data_VEMJAZ
_symmetry_cell_setting           monoclinic
_symmetry_space_group_name_H-M   'P 21/n'
_symmetry_Int_Tables_number      14
_space_group_name_Hall           '-P 2yn'
loop_
_symmetry_equiv_pos_site_id
_symmetry_equiv_pos_as_xyz
1 x,y,z
2 1/2-x,1/2+y,1/2-z
3 -x,-y,-z
4 1/2+x,1/2-y,1/2+z
_cell_length_a                   8.1859(9)
_cell_length_b                   26.853(3)
_cell_length_c                   16.8859(18)
_cell_angle_alpha                90
_cell_angle_beta                 95.351(2)
_cell_angle_gamma                90
_cell_volume                     3695.61
loop_
_atom_site_label
_atom_site_type_symbol
_atom_site_fract_x
_atom_site_fract_y
_atom_site_fract_z
Gd1 Gd 0.236374(16) 0.063113(5) 0.495561(7)
Ni1 Ni 0.97648(4) 0.251290(13) 0.245640(18)
Ni2 Ni -0.30241(5) 0.002710(15) -0.00527(2)
O1 O 0.2468(2) -0.03061(10) 0.49886(11)
O2 O 0.2664(3) 0.12624(8) 0.36829(13)
O3 O 0.4293(3) 0.12956(8) 0.47998(12)
O4 O 0.8562(3) 0.32154(8) 0.24652(12)
O5 O 1.0948(3) 0.18205(9) 0.24112(13)
O6 O 0.9540(3) 0.16900(10) 0.09454(13)
O8 O 0.8545(2) 0.24091(8) 0.13607(11)
O9 O 0.0468(3) 0.03935(9) 0.39057(12)
O11 O -0.0737(3) -0.03390(8) 0.40619(12)
O12 O 0.4430(3) 0.03057(8) 0.41728(11)
O13 O 0.5547(3) -0.04459(9) 0.40504(12)
O14 O 0.0085(3) 0.11984(9) 0.50709(12)
O15 O 0.1908(3) 0.13677(8) 0.60866(14)
N1 N 0.7778(3) 0.21684(10) 0.29752(15)
N2 N 0.6020(3) 0.23408(10) -0.14298(14)
N3 N -0.2296(3) 0.00456(11) 0.11943(15)
N4 N 0.3363(3) -0.00540(10) 0.12862(14)
N5 N -0.3327(3) 0.21455(10) 0.68766(14)
N6 N -0.1399(3) 0.06136(10) -0.01947(17)
N7 N 0.0019(4) 0.05808(9) -0.00270(16)
N8 N 0.1442(3) 0.05689(10) 0.01498(17)
N9 N -0.5037(3) 0.05052(10) 0.00279(16)
N10 N -0.4986(3) 0.08830(11) 0.04018(16)
N11 N -0.4944(4) 0.12475(13) 0.0763(2)
C1 C 0.6890(4) 0.18081(13) 0.25937(18)
H1 H 0.732(4) 0.1704(13) 0.202(2)
C2 C 0.5609(4) 0.15664(13) 0.29107(18)
H2 H 0.509(3) 0.1278(10) 0.2640(16)
C3 C 0.5244(4) 0.16806(12) 0.36798(18)
C4 C 0.6152(4) 0.20575(13) 0.40773(19)
H3 H 0.602(4) 0.2167(11) 0.4649(18)
C5 C 0.7369(4) 0.22904(12) 0.37066(18)
H4 H 0.794(4) 0.2567(13) 0.3998(18)
C6 C 0.3969(4) 0.13980(12) 0.40740(18)
C7 C 0.6240(4) 0.27004(12) -0.08756(17)
H5 H 0.578(4) 0.3050(12) -0.1003(18)
C8 C 0.7106(4) 0.26235(13) -0.01446(17)
H6 H 0.735(4) 0.2894(12) 0.0239(18)
C9 C 0.7772(3) 0.21650(12) 0.00409(15)
C10 C 0.7552(4) 0.17885(12) -0.05263(18)
H7 H 0.797(4) 0.1436(12) -0.0419(18)
C11 C 0.6682(4) 0.18920(12) -0.12471(18)
H8 H 0.654(4) 0.1630(11) -0.1673(17)
C12 C 0.8716(4) 0.20743(12) 0.08467(17)
C13 C -0.1824(5) 0.04656(14) 0.1579(2)
H9 H -0.201(4) 0.0741(14) 0.130(2)
C14 C -0.1197(4) 0.04753(14) 0.2362(2)
H10 H -0.089(4) 0.0780(12) 0.2587(19)
C15 C -0.1072(4) 0.00385(12) 0.27899(17)
C16 C -0.1566(5) -0.03970(13) 0.24040(19)
H11 H -0.164(5) -0.0731(14) 0.262(2)
C17 C -0.2158(5) -0.03753(14) 0.1609(2)
H12 H -0.248(4) -0.0660(12) 0.133(2)
C18 C -0.0390(3) 0.00266(11) 0.36574(16)
C19 C 0.3905(5) -0.04765(13) 0.16491(19)
H13 H 0.409(5) -0.0785(14) 0.131(2)
C20 C 0.4293(5) -0.05130(14) 0.2462(2)
H14 H 0.479(4) -0.0829(12) 0.2711(18)
C21 C 0.4096(4) -0.00952(11) 0.29258(17)
C22 C 0.3430(4) 0.03283(13) 0.25610(18)
H15 H 0.320(4) 0.0596(13) 0.286(2)
C23 C 0.3096(4) 0.03348(13) 0.17438(18)
H16 H 0.269(5) 0.0642(12) 0.147(2)
C24 C 0.4710(4) -0.00801(12) 0.37868(17)
C25 C -0.1740(4) 0.22796(13) 0.7018(2)
H17 H -0.159(5) 0.2536(14) 0.744(2)
C26 C -0.0483(4) 0.20544(13) 0.6669(2)
H18 H 0.066(5) 0.2164(14) 0.674(2)
C27 C -0.0835(4) 0.16690(12) 0.61332(18)
C28 C -0.2470(4) 0.15379(13) 0.59644(19)
H19 H -0.277(4) 0.1278(12) 0.5637(19)
C29 C -0.3661(4) 0.17811(13) 0.63500(18)
H20 H -0.472(4) 0.1712(12) 0.6231(18)
C30 C 0.0479(4) 0.13995(11) 0.57395(17)
Gd1B Gd -0.236374(16) -0.063113(5) 0.504439(7)
Gd1B_2 Gd 0.763626(16) -0.063113(5) 0.504439(7)
Ni1C Ni 0.47648(4) 0.248710(13) -0.254360(18)
Ni1C_2 Ni -0.52352(4) 0.248710(13) 0.745640(18)
Ni2B Ni -0.69759(5) -0.002710(15) 0.00527(2)
Ni2B_2 Ni 0.30241(5) -0.002710(15) 0.00527(2)
O11B O 0.0737(3) 0.03390(8) 0.59381(12)
O13B O 0.4453(3) 0.04459(9) 0.59496(12)
N2C N 1.1020(3) 0.26592(10) 0.35702(14)
N4B N -0.3363(3) 0.00540(10) -0.12862(14)
N5C N 1.1673(3) 0.28545(10) 0.18766(14)
N8B N -0.1442(3) -0.05689(10) -0.01498(17)
N9B N -0.4963(3) -0.05052(10) -0.00279(16)
O7 O -0.8649(5) 0.15650(13) 0.8566(2)
O10 O -0.2716(5) 0.31350(18) 0.5091(2)
loop_
_geom_bond_atom_site_label_1
_geom_bond_atom_site_label_2
_geom_bond_site_symmetry_1
_geom_bond_site_symmetry_2
Gd1 O1 1_555 1_555
Ni1 O4 1_555 1_555
Ni2 N3 1_555 1_555
O2 Gd1 1_555 1_555
O3 Gd1 1_555 1_555
O5 Ni1 1_555 1_555
O6 C12 1_555 1_555
O8 Ni1 1_555 1_555
O9 Gd1 1_555 1_555
O11 C18 1_555 1_555
O12 Gd1 1_555 1_555
O13 C24 1_555 1_555
O14 Gd1 1_555 1_555
O15 Gd1 1_555 1_555
N1 Ni1 1_555 1_555
N2 C7 1_555 1_555
N3 C13 1_555 1_555
N4 C19 1_555 1_555
N5 C25 1_555 1_555
N6 Ni2 1_555 1_555
N7 N6 1_555 1_555
N8 N7 1_555 1_555
N9 Ni2 1_555 1_555
N10 N9 1_555 1_555
N11 N10 1_555 1_555
C1 N1 1_555 1_555
H1 C1 1_555 1_555
C2 C1 1_555 1_555
H2 C2 1_555 1_555
C3 C2 1_555 1_555
C4 C3 1_555 1_555
H3 C4 1_555 1_555
C5 N1 1_555 1_555
H4 C5 1_555 1_555
C6 O2 1_555 1_555
C7 H5 1_555 1_555
C8 C7 1_555 1_555
H6 C8 1_555 1_555
C9 C8 1_555 1_555
C10 C9 1_555 1_555
H7 C10 1_555 1_555
C11 N2 1_555 1_555
H8 C11 1_555 1_555
C12 O8 1_555 1_555
C13 H9 1_555 1_555
C14 C13 1_555 1_555
H10 C14 1_555 1_555
C15 C14 1_555 1_555
C16 C15 1_555 1_555
H11 C16 1_555 1_555
C17 N3 1_555 1_555
H12 C17 1_555 1_555
C18 O9 1_555 1_555
C19 H13 1_555 1_555
C20 C19 1_555 1_555
H14 C20 1_555 1_555
C21 C20 1_555 1_555
C22 C21 1_555 1_555
H15 C22 1_555 1_555
C23 N4 1_555 1_555
H16 C23 1_555 1_555
C24 O12 1_555 1_555
C25 H17 1_555 1_555
C26 C25 1_555 1_555
H18 C26 1_555 1_555
C27 C26 1_555 1_555
C28 C27 1_555 1_555
H19 C28 1_555 1_555
C29 N5 1_555 1_555
H20 C29 1_555 1_555
C30 O14 1_555 1_555
Gd1B O11 1_555 1_555
Gd1B_2 O13 1_555 1_555
Ni1C N2 1_555 1_555
Ni1C_2 N5 1_555 1_555
Ni2B Ni2 1_555 1_555
Ni2B_2 N4 1_555 1_555
O11B Gd1 1_555 1_555
O13B Gd1 1_555 1_555
N2C Ni1 1_555 1_555
N4B Ni2 1_555 1_555
N5C Ni1 1_555 1_555
N8B Ni2 1_555 1_555
N9B Ni2 1_555 1_555
O3 C6 1_555 1_555
O15 C30 1_555 1_555
N8 Ni2B_2 1_555 1_555
N9 Ni2B 1_555 1_555
C3 C6 1_555 1_555
C4 C5 1_555 1_555
C9 C12 1_555 1_555
C10 C11 1_555 1_555
C15 C18 1_555 1_555
C16 C17 1_555 1_555
C21 C24 1_555 1_555
C22 C23 1_555 1_555
C27 C30 1_555 1_555
C28 C29 1_555 1_555
Ni2B N9B 1_555 1_555

#END
