
#######################################################################
#
#                 Cambridge Crystallographic Data Centre
#                                CCDC 
#
#######################################################################
#
# If this CIF has been generated from an entry in the Cambridge 
# Structural Database, then it will include bibliographic, chemical, 
# crystal, experimental, refinement or atomic coordinate data resulting 
# from the CCDC's data processing and validation procedures.
#
#######################################################################

data_VENDAU01
_symmetry_cell_setting           orthorhombic
_symmetry_space_group_name_H-M   'P b c a'
_symmetry_Int_Tables_number      61
_space_group_name_Hall           '-P 2ac 2ab'
loop_
_symmetry_equiv_pos_site_id
_symmetry_equiv_pos_as_xyz
1 x,y,z
2 1/2-x,-y,1/2+z
3 -x,1/2+y,1/2-z
4 1/2+x,1/2-y,-z
5 -x,-y,-z
6 1/2+x,y,1/2-z
7 x,1/2-y,1/2+z
8 1/2-x,1/2+y,z
_cell_length_a                   12.634(6)
_cell_length_b                   11.372(6)
_cell_length_c                   14.932(7)
_cell_angle_alpha                90
_cell_angle_beta                 90
_cell_angle_gamma                90
_cell_volume                     2145.34
loop_
_atom_site_label
_atom_site_type_symbol
_atom_site_fract_x
_atom_site_fract_y
_atom_site_fract_z
N1 N 0.4797(3) -0.4247(3) -0.3556(2)
Sn1 Sn 0.56569(2) -0.31633(2) -0.229090(17)
S1 S 0.34021(10) -0.71819(9) -0.41076(7)
N2 N 0.3659(3) -0.4856(3) -0.45487(19)
N3 N 0.4621(3) -0.5436(3) -0.3407(2)
C1 C 0.3925(3) -0.5776(3) -0.4008(2)
C2 C 0.4221(3) -0.3933(4) -0.4234(3)
H1 H 0.4197 -0.3177 -0.4470
C3 C 0.6173(4) -0.1952(3) -0.3278(3)
H2 H 0.5576 -0.1522 -0.3504
H3 H 0.6505 -0.2371 -0.3760
H4 H 0.6671 -0.1415 -0.3017
C4 C 0.4104(4) -0.3109(4) -0.1734(4)
H5 H 0.3707 -0.2490 -0.2013
H6 H 0.4150 -0.2965 -0.1101
H7 H 0.3757 -0.3848 -0.1836
C5 C 0.2922(4) -0.4853(4) -0.5298(3)
H8 H 0.3078 -0.5502 -0.5688
H9 H 0.2990 -0.4129 -0.5623
H10 H 0.2212 -0.4927 -0.5077
C6 C 0.6545(4) -0.4729(4) -0.2069(3)
H11 H 0.6425 -0.5268 -0.2553
H12 H 0.6324 -0.5085 -0.1516
H13 H 0.7284 -0.4540 -0.2037
Sn1B Sn 0.43431(2) -0.81633(2) -0.270910(17)
S1B S 0.65979(10) -0.21819(9) -0.08924(7)
loop_
_geom_bond_atom_site_label_1
_geom_bond_atom_site_label_2
_geom_bond_site_symmetry_1
_geom_bond_site_symmetry_2
N1 Sn1 1_555 1_555
Sn1 C3 1_555 1_555
S1 C1 1_555 1_555
N2 C1 1_555 1_555
N3 N1 1_555 1_555
C1 N3 1_555 1_555
C2 N1 1_555 1_555
H1 C2 1_555 1_555
C3 H2 1_555 1_555
H3 C3 1_555 1_555
H4 C3 1_555 1_555
C4 Sn1 1_555 1_555
H5 C4 1_555 1_555
H6 C4 1_555 1_555
H7 C4 1_555 1_555
C5 N2 1_555 1_555
H8 C5 1_555 1_555
H9 C5 1_555 1_555
H10 C5 1_555 1_555
C6 Sn1 1_555 1_555
H11 C6 1_555 1_555
H12 C6 1_555 1_555
H13 C6 1_555 1_555
Sn1B S1 1_555 1_555
S1B Sn1 1_555 1_555
N2 C2 1_555 1_555

#END
