
#######################################################################
#
#                 Cambridge Crystallographic Data Centre
#                                CCDC 
#
#######################################################################
#
# If this CIF has been generated from an entry in the Cambridge 
# Structural Database, then it will include bibliographic, chemical, 
# crystal, experimental, refinement or atomic coordinate data resulting 
# from the CCDC's data processing and validation procedures.
#
#######################################################################

data_VENWUH
_symmetry_cell_setting           monoclinic
_symmetry_space_group_name_H-M   'C 2/c'
_symmetry_Int_Tables_number      15
_space_group_name_Hall           '-C 2yn'
loop_
_symmetry_equiv_pos_site_id
_symmetry_equiv_pos_as_xyz
1 x,y,z
2 1/2+x,1/2+y,z
3 -x,y,1/2-z
4 1/2-x,1/2+y,1/2-z
5 -x,-y,-z
6 1/2-x,1/2-y,-z
7 x,-y,1/2+z
8 1/2+x,1/2-y,1/2+z
_cell_length_a                   14.0107(2)
_cell_length_b                   16.4487(4)
_cell_length_c                   14.0295(3)
_cell_angle_alpha                90
_cell_angle_beta                 106.1191(13)
_cell_angle_gamma                90
_cell_volume                     3106.1
loop_
_atom_site_label
_atom_site_type_symbol
_atom_site_fract_x
_atom_site_fract_y
_atom_site_fract_z
Au1 Au 0.516556(13) 0.485782(10) 0.151999(12)
Cu1 Cu 0.53910(5) 0.58584(3) 0.01758(4)
C1 C 0.6562(3) 0.5320(3) 0.2084(3)
C2 C 0.6812(3) 0.6086(3) 0.2488(3)
C3 C 0.7768(4) 0.6345(3) 0.2931(3)
C4 C 0.8539(4) 0.5811(3) 0.2976(4)
C5 C 0.8338(4) 0.5043(3) 0.2598(4)
C6 C 0.7377(4) 0.4817(3) 0.2162(3)
F1 F 0.60766(19) 0.66249(16) 0.24977(18)
F2 F 0.7952(2) 0.70870(19) 0.3323(2)
F3 F 0.9479(2) 0.6044(2) 0.3401(2)
F4 F 0.9092(2) 0.4515(2) 0.2685(3)
F5 F 0.7232(2) 0.40381(17) 0.1836(2)
C7 C 0.3777(3) 0.4334(2) 0.0875(3)
C8 C 0.3553(3) 0.3546(3) 0.1101(3)
C9 C 0.2609(4) 0.3248(3) 0.0907(3)
C10 C 0.1827(4) 0.3731(3) 0.0457(3)
C11 C 0.1984(3) 0.4517(3) 0.0208(3)
C12 C 0.2942(3) 0.4799(2) 0.0432(3)
F6 F 0.4298(2) 0.30364(16) 0.1552(2)
F7 F 0.2432(2) 0.24759(16) 0.1138(2)
F8 F 0.0888(2) 0.3453(2) 0.0253(2)
F9 F 0.1216(2) 0.50039(17) -0.0224(3)
F10 F 0.30639(19) 0.55907(15) 0.02071(18)
N1 N 0.4763(3) 0.6826(2) 0.0437(3)
C13 C 0.4367(4) 0.7380(3) 0.0626(3)
C14 C 0.3883(4) 0.8098(3) 0.0898(4)
H1 H 0.3573 0.7954 0.1421
H2 H 0.3373 0.8296 0.0315
H3 H 0.4378 0.8525 0.1140
Au1B Au 0.483444(13) 0.485782(10) 0.348001(12)
Au1D Au 0.483444(13) 0.514218(10) -0.151999(12)
Cu1D Cu 0.46090(5) 0.41416(3) -0.01758(4)
C7D C 0.6223(3) 0.5666(2) -0.0875(3)
loop_
_geom_bond_atom_site_label_1
_geom_bond_atom_site_label_2
_geom_bond_site_symmetry_1
_geom_bond_site_symmetry_2
Au1 Cu1 1_555 1_555
Cu1 C1 1_555 1_555
C1 Au1 1_555 1_555
C2 C1 1_555 1_555
C3 C2 1_555 1_555
C4 C3 1_555 1_555
C5 C4 1_555 1_555
C6 C1 1_555 1_555
F1 C2 1_555 1_555
F2 C3 1_555 1_555
F3 C4 1_555 1_555
F4 C5 1_555 1_555
F5 C6 1_555 1_555
C7 Au1 1_555 1_555
C8 C7 1_555 1_555
C9 C8 1_555 1_555
C10 C9 1_555 1_555
C11 C10 1_555 1_555
C12 C7 1_555 1_555
F6 C8 1_555 1_555
F7 C9 1_555 1_555
F8 C10 1_555 1_555
F9 C11 1_555 1_555
F10 C12 1_555 1_555
N1 Cu1 1_555 1_555
C13 N1 1_555 1_555
C14 C13 1_555 1_555
H1 C14 1_555 1_555
H2 C14 1_555 1_555
H3 C14 1_555 1_555
Au1B Au1 1_555 1_555
Au1D Cu1 1_555 1_555
Cu1D Au1 1_555 1_555
C7D Cu1 1_555 1_555
C5 C6 1_555 1_555
C7 Cu1D 1_555 1_555
C11 C12 1_555 1_555
Au1D Cu1D 1_555 1_555
Au1D C7D 1_555 1_555

#END
