
#######################################################################
#
#                 Cambridge Crystallographic Data Centre
#                                CCDC 
#
#######################################################################
#
# If this CIF has been generated from an entry in the Cambridge 
# Structural Database, then it will include bibliographic, chemical, 
# crystal, experimental, refinement or atomic coordinate data resulting 
# from the CCDC's data processing and validation procedures.
#
#######################################################################

data_VEPBIB
_symmetry_cell_setting           monoclinic
_symmetry_space_group_name_H-M   'P 21/c'
_symmetry_Int_Tables_number      14
_space_group_name_Hall           '-P 2ybc'
loop_
_symmetry_equiv_pos_site_id
_symmetry_equiv_pos_as_xyz
1 x,y,z
2 -x,1/2+y,1/2-z
3 -x,-y,-z
4 x,1/2-y,1/2+z
_cell_length_a                   14.758(5)
_cell_length_b                   9.970(3)
_cell_length_c                   19.166(6)
_cell_angle_alpha                90
_cell_angle_beta                 113.90(2)
_cell_angle_gamma                90
_cell_volume                     2578.23
loop_
_atom_site_label
_atom_site_type_symbol
_atom_site_fract_x
_atom_site_fract_y
_atom_site_fract_z
Sn1 Sn 0.05770(3) 0.12190(10) 0.28460(4)
O1 O 0.1668(3) -0.0423(5) 0.3286(3)
O2 O -0.0492(4) 0.3127(5) 0.2393(3)
C1 C 0.1350(5) -0.1618(6) 0.3060(4)
C2 C 0.2110(6) -0.2726(9) 0.3415(5)
C3 C 0.3171(7) -0.2351(9) 0.3667(4)
C4 C 0.3737(6) -0.3442(9) 0.2545(5)
C5 C 0.4102(8) -0.2010(11) 0.1623(6)
C6 C 0.4360(11) -0.2407(13) 0.0940(7)
C7 C 0.4639(13) -0.3751(15) 0.1060(9)
C8 C 0.4244(9) -0.4512(12) 0.1569(7)
C9 C -0.0362(5) 0.0456(8) 0.3343(4)
C10 C -0.0591(6) 0.1420(9) 0.3863(4)
C11 C -0.1256(7) 0.0762(11) 0.4222(5)
C12 C -0.1448(9) 0.1736(15) 0.4758(7)
C13 C 0.0374(7) 0.0963(9) 0.1686(4)
C14 C 0.1229(6) 0.0600(10) 0.1507(4)
C15 C 0.1947(13) 0.1529(21) 0.1738(11)
C16 C 0.2742(18) 0.1754(21) 0.1538(14)
C17 C 0.1641(8) 0.2677(10) 0.3540(6)
C18 C 0.2488(7) 0.2250(10) 0.4213(6)
C19 C 0.3152(7) 0.3478(15) 0.4644(5)
C20 C 0.4006(10) 0.2998(16) 0.5257(7)
S1 S 0.3471(2) -0.1892(2) 0.2855(1)
S2 S 0.3615(5) -0.4934(7) 0.2879(4)
N1 N 0.3986(5) -0.3306(7) 0.1940(4)
C1A C -0.1350(5) 0.3382(6) 0.1940(4)
O2A O 0.0492(4) -0.1873(5) 0.2607(3)
O1A O -0.1668(3) 0.4577(5) 0.1714(3)
C2A C -0.2110(6) 0.2274(9) 0.1585(5)
Sn1A Sn -0.05770(3) -0.37810(10) 0.21540(4)
Sn1A_2 Sn -0.05770(3) 0.62190(10) 0.21540(4)
C3A C -0.3171(7) 0.2649(9) 0.1333(4)
O1A_2 O -0.1668(3) -0.5423(5) 0.1714(3)
C9A C 0.0362(5) -0.4544(8) 0.1657(4)
C13A C -0.0374(7) -0.4037(9) 0.3314(4)
C17A C -0.1641(8) -0.2323(10) 0.1460(6)
S1A S -0.3471(2) 0.3108(2) 0.2145(1)
C10A C 0.0591(6) -0.3580(9) 0.1137(4)
C14A C -0.1229(6) -0.4400(10) 0.3493(4)
C18A C -0.2488(7) -0.2750(10) 0.0787(6)
C4A C -0.3737(6) 0.1558(9) 0.2455(5)
C11A C 0.1256(7) -0.4238(11) 0.0778(5)
C15A C -0.1947(13) -0.3471(21) 0.3262(11)
C19A C -0.3152(7) -0.1522(15) 0.0356(5)
S2A S -0.3615(5) 0.0066(7) 0.2121(4)
N1A N -0.3986(5) 0.1694(7) 0.3060(4)
C12A C 0.1448(9) -0.3264(15) 0.0242(7)
C16A C -0.2742(18) -0.3246(21) 0.3462(14)
C20A C -0.4006(10) -0.2002(16) -0.0257(7)
C5A C -0.4102(8) 0.2990(11) 0.3377(6)
C8A C -0.4244(9) 0.0488(12) 0.3431(7)
C6A C -0.4360(11) 0.2593(13) 0.4060(7)
C7A C -0.4639(13) 0.1249(15) 0.3940(9)
loop_
_geom_bond_atom_site_label_1
_geom_bond_atom_site_label_2
_geom_bond_site_symmetry_1
_geom_bond_site_symmetry_2
Sn1 O1 1_555 1_555
O1 C1 1_555 1_555
O2 Sn1 1_555 1_555
C1 C2 1_555 1_555
C2 C3 1_555 1_555
C3 S1 1_555 1_555
C4 S1 1_555 1_555
C5 C6 1_555 1_555
C6 C7 1_555 1_555
C7 C8 1_555 1_555
C8 N1 1_555 1_555
C9 Sn1 1_555 1_555
C10 C9 1_555 1_555
C11 C10 1_555 1_555
C12 C11 1_555 1_555
C13 Sn1 1_555 1_555
C14 C13 1_555 1_555
C15 C14 1_555 1_555
C16 C15 1_555 1_555
C17 Sn1 1_555 1_555
C18 C17 1_555 1_555
C19 C18 1_555 1_555
C20 C19 1_555 1_555
S2 C4 1_555 1_555
N1 C4 1_555 1_555
C1A O2 1_555 1_555
O2A C1 1_555 1_555
O1A C1A 1_555 1_555
C2A C1A 1_555 1_555
Sn1A O2A 1_555 1_555
Sn1A_2 O1A 1_555 1_555
C3A C2A 1_555 1_555
O1A_2 Sn1A 1_555 1_555
C9A Sn1A 1_555 1_555
C13A Sn1A 1_555 1_555
C17A Sn1A 1_555 1_555
S1A C3A 1_555 1_555
C10A C9A 1_555 1_555
C14A C13A 1_555 1_555
C18A C17A 1_555 1_555
C4A S1A 1_555 1_555
C11A C10A 1_555 1_555
C15A C14A 1_555 1_555
C19A C18A 1_555 1_555
S2A C4A 1_555 1_555
N1A C4A 1_555 1_555
C12A C11A 1_555 1_555
C16A C15A 1_555 1_555
C20A C19A 1_555 1_555
C5A N1A 1_555 1_555
C8A N1A 1_555 1_555
C6A C5A 1_555 1_555
C7A C8A 1_555 1_555
C5 N1 1_555 1_555
C6A C7A 1_555 1_555

#END
