
#######################################################################
#
#                 Cambridge Crystallographic Data Centre
#                                CCDC 
#
#######################################################################
#
# If this CIF has been generated from an entry in the Cambridge 
# Structural Database, then it will include bibliographic, chemical, 
# crystal, experimental, refinement or atomic coordinate data resulting 
# from the CCDC's data processing and validation procedures.
#
#######################################################################

data_VEPDEB
_symmetry_cell_setting           monoclinic
_symmetry_space_group_name_H-M   'C 2/m'
_symmetry_Int_Tables_number      12
_space_group_name_Hall           '-C 2y'
loop_
_symmetry_equiv_pos_site_id
_symmetry_equiv_pos_as_xyz
1 x,y,z
2 -x,y,-z
3 1/2+x,1/2+y,z
4 1/2-x,1/2+y,-z
5 -x,-y,-z
6 x,-y,z
7 1/2-x,1/2-y,-z
8 1/2+x,1/2-y,z
_cell_length_a                   31.4836(4)
_cell_length_b                   21.5215(3)
_cell_length_c                   14.8344(2)
_cell_angle_alpha                90
_cell_angle_beta                 112.129(2)
_cell_angle_gamma                90
_cell_volume                     9311
loop_
_atom_site_label
_atom_site_type_symbol
_atom_site_fract_x
_atom_site_fract_y
_atom_site_fract_z
Fe1 Fe 0.17178(2) 0.22036(3) 0.62411(5)
Fe2 Fe 0.2500 0.2500 0.5000
Au1 Au 0.165486(9) 0.0000 0.71959(2)
Au4 Au 0.0000 0.225022(13) 0.5000
N1 N 0.23861(13) 0.21836(18) 0.6846(3)
N2 N 0.17259(13) 0.17517(18) 0.5105(3)
N3 N 0.17384(13) 0.29701(18) 0.5561(3)
N4 N 0.33123(14) 0.23311(19) 1.2641(3)
N5 N 0.16866(14) 0.1422(2) 0.6847(3)
N6 N 0.10631(14) 0.2219(2) 0.5698(3)
N7 N 0.26895(13) 0.23012(18) 0.6397(3)
N8 N 0.30804(14) 0.2129(2) 0.7940(3)
N9 N 0.20304(13) 0.18366(18) 0.4657(3)
N10 N 0.15409(13) 0.11217(18) 0.3865(3)
N11 N 0.20364(13) 0.30939(18) 0.5099(3)
N12 N 0.15452(13) 0.38591(18) 0.4809(3)
N13 N 0.30739(18) 0.1795(2) 1.2280(3)
N14 N 0.35018(16) 0.2015(3) 1.1447(3)
C1 C 0.31048(16) 0.2264(2) 0.7070(3)
H1 H 0.3375 0.2322 0.6964
C2 C 0.26268(16) 0.2078(3) 0.7767(3)
H2 H 0.2505 0.1982 0.8232
C3 C 0.34700(19) 0.2045(4) 0.8878(4)
C4 C 0.3697(4) 0.1421(7) 0.8882(5)
H3 H 0.3477 0.1088 0.8790
H4 H 0.3809 0.1404 0.8356
C5 C 0.3817(3) 0.2570(7) 0.9016(5)
H5 H 0.3671 0.2968 0.9006
H6 H 0.3930 0.2563 0.8492
C6 C 0.19191(15) 0.1446(2) 0.3921(3)
H7 H 0.2076 0.1400 0.3505
C7 C 0.14326(16) 0.1324(2) 0.4615(3)
H8 H 0.1187 0.1182 0.4762
C8 C 0.13337(16) 0.0577(2) 0.3235(3)
C9 C 0.08121(17) 0.0585(2) 0.2921(4)
H9 H 0.0687 0.0955 0.2541
H10 H 0.0730 0.0589 0.3490
C10 C 0.0613(3) 0.0000 0.2306(6)
H11 H 0.0279 0.0000 0.2105
C11 C 0.0734(3) 0.0000 0.1406(6)
H12 H 0.0606 -0.0365 0.1015
C12 C 0.1254(3) 0.0000 0.1726(5)
H13 H 0.1334 0.0000 0.1149
C13 C 0.14549(19) 0.0582(2) 0.2334(3)
H14 H 0.1785 0.0587 0.2525
H15 H 0.1331 0.0952 0.1952
C14 C 0.1534(2) 0.0000 0.3848(5)
H16 H 0.1865 0.0000 0.4053
H17 H 0.1459 0.0000 0.4425
C15 C 0.19163(15) 0.3638(2) 0.4669(3)
H18 H 0.2066 0.3840 0.4320
C16 C 0.14470(15) 0.3436(2) 0.5374(3)
H19 H 0.1209 0.3468 0.5597
C17 C 0.08230(16) 0.4417(2) 0.4508(4)
H20 H 0.0880 0.4415 0.5198
H21 H 0.0651 0.4046 0.4218
C18 C 0.0545(2) 0.5000 0.4026(5)
H22 H 0.0253 0.5000 0.4121
C19 C 0.0451(2) 0.5000 0.2932(5)
H23 H 0.0274 0.4635 0.2627
C20 C 0.0908(2) 0.5000 0.2797(5)
H24 H 0.0852 0.5000 0.2101
C21 C 0.11863(16) 0.4421(2) 0.3274(3)
H25 H 0.1475 0.4419 0.3180
H26 H 0.1017 0.4049 0.2974
C22 C 0.12771(15) 0.4424(2) 0.4362(3)
C23 C 0.1556(2) 0.5000 0.4850(5)
H27 H 0.1849 0.5000 0.4771
H28 H 0.1614 0.5000 0.5540
C24 C 0.3196(2) 0.1617(3) 1.1573(4)
H29 H 0.3087 0.1261 1.1202
C25 C 0.35636(17) 0.2456(3) 1.2131(4)
H30 H 0.3756 0.2799 1.2227
C26 C 0.3693(2) 0.1983(4) 1.0676(4)
C27 C 0.4032(2) 0.2515(7) 1.0823(5)
H31 H 0.3880 0.2911 1.0800
H32 H 0.4282 0.2477 1.1450
C28 C 0.4215(3) 0.2477(10) 0.9997(5)
H33 H 0.4443 0.2806 1.0086
C29 C 0.4445(4) 0.1829(13) 1.0002(6)
H34 H 0.4559 0.1810 0.9478
H35 H 0.4702 0.1770 1.0614
C30 C 0.4102(5) 0.1343(10) 0.9873(6)
H36 H 0.4246 0.0939 0.9876
C31 C 0.3906(4) 0.1341(7) 1.0687(5)
H37 H 0.3675 0.1019 1.0565
H38 H 0.4148 0.1263 1.1314
C32 C 0.32891(17) 0.2064(3) 0.9697(3)
H39 H 0.3067 0.1735 0.9610
H40 H 0.3138 0.2459 0.9687
C33 C 0.16606(17) 0.0911(2) 0.7060(4)
C37 C 0.06725(17) 0.2230(2) 0.5438(4)
Fe1F Fe 0.32822(2) 0.27964(3) 0.37589(5)
Fe1F_2 Fe 0.32822(2) 0.27964(3) 1.37589(5)
Fe1E Fe 0.17178(2) -0.22036(3) 0.62411(5)
Fe1E_2 Fe 0.17178(2) 0.77964(3) 0.62411(5)
Fe1_2 Fe 0.17178(2) 0.22036(3) -0.37589(5)
Fe2C Fe 0.2500 -0.2500 0.5000
Fe2C_2 Fe 0.2500 0.7500 0.5000
Au1C Au 0.334514(9) 0.5000 0.28041(2)
Au4F Au 0.5000 0.274978(13) 0.5000
N1F N 0.26139(13) 0.28164(18) 0.3154(3)
N2E N 0.17259(13) -0.17517(18) 0.5105(3)
N2F N 0.32741(13) 0.32483(18) 0.4895(3)
N3E N 0.17384(13) 0.70299(18) 0.5561(3)
N3F N 0.32616(13) 0.20299(18) 0.4439(3)
N4F N 0.16877(14) 0.26689(19) -0.2641(3)
N4F_2 N 0.16877(14) 0.26689(19) 0.7359(3)
N4_2 N 0.33123(14) 0.23311(19) 0.2641(3)
N5F N 0.33134(14) 0.3578(2) 0.3153(3)
N6F N 0.39369(14) 0.2781(2) 0.4302(3)
N7F N 0.23105(13) 0.26988(18) 0.3603(3)
N8F N 0.19196(14) 0.2871(2) 0.2060(3)
N9E N 0.20304(13) -0.18366(18) 0.4657(3)
N9F N 0.29696(13) 0.31634(18) 0.5343(3)
N10E N 0.15409(13) -0.11217(18) 0.3865(3)
N11E N 0.20364(13) 0.69061(18) 0.5099(3)
N11F N 0.29636(13) 0.19061(18) 0.4901(3)
N12E N 0.15452(13) 0.61409(18) 0.4809(3)
N13F N 0.19261(18) 0.3205(2) -0.2280(3)
N14F N 0.14982(16) 0.2985(3) -0.1447(3)
C1F C 0.18952(16) 0.2736(2) 0.2930(3)
H1F H 0.1625 0.2678 0.3036
C2F C 0.23732(16) 0.2922(3) 0.2233(3)
H2F H 0.2495 0.3018 0.1768
C3F C 0.15300(19) 0.2955(4) 0.1122(4)
C4F C 0.1303(4) 0.3579(7) 0.1118(5)
H3F H 0.1523 0.3912 0.1210
H4F H 0.1191 0.3596 0.1644
C5F C 0.1183(3) 0.2430(7) 0.0984(5)
H5F H 0.1329 0.2032 0.0994
H6F H 0.1070 0.2437 0.1508
C6E C 0.19191(15) -0.1446(2) 0.3921(3)
H7E H 0.2076 -0.1400 0.3505
C7E C 0.14326(16) -0.1324(2) 0.4615(3)
H8E H 0.1187 -0.1182 0.4762
C8E C 0.13337(16) -0.0577(2) 0.3235(3)
C9E C 0.08121(17) -0.0585(2) 0.2921(4)
H9E H 0.0687 -0.0955 0.2541
H10E H 0.0730 -0.0589 0.3490
H12E H 0.0606 0.0365 0.1015
C13E C 0.14549(19) -0.0582(2) 0.2334(3)
H14E H 0.1785 -0.0587 0.2525
H15E H 0.1331 -0.0952 0.1952
C15E C 0.19163(15) 0.6362(2) 0.4669(3)
H18E H 0.2066 0.6160 0.4320
C16E C 0.14470(15) 0.6564(2) 0.5374(3)
H19E H 0.1209 0.6532 0.5597
C17E C 0.08230(16) 0.5583(2) 0.4508(4)
H20E H 0.0880 0.5585 0.5198
H21E H 0.0651 0.5954 0.4218
H23E H 0.0274 0.5365 0.2627
C21E C 0.11863(16) 0.5579(2) 0.3274(3)
H25E H 0.1475 0.5581 0.3180
H26E H 0.1017 0.5951 0.2974
C22E C 0.12771(15) 0.5576(2) 0.4362(3)
C24F C 0.1804(2) 0.3383(3) -0.1573(4)
H29F H 0.1913 0.3739 -0.1202
C25F C 0.14364(17) 0.2544(3) -0.2131(4)
H30F H 0.1244 0.2201 -0.2227
C26F C 0.1307(2) 0.3017(4) -0.0676(4)
C27F C 0.0968(2) 0.2485(7) -0.0823(5)
H31F H 0.1120 0.2089 -0.0800
H32F H 0.0718 0.2523 -0.1450
C28F C 0.0785(3) 0.2523(10) 0.0003(5)
H33F H 0.0557 0.2194 -0.0086
C29F C 0.0555(4) 0.3171(13) -0.0002(6)
H34F H 0.0441 0.3190 0.0522
H35F H 0.0298 0.3230 -0.0614
C30F C 0.0898(5) 0.3657(10) 0.0127(6)
H36F H 0.0754 0.4061 0.0124
C31F C 0.1094(4) 0.3659(7) -0.0687(5)
H37F H 0.1325 0.3981 -0.0565
H38F H 0.0852 0.3737 -0.1314
C32F C 0.17109(17) 0.2936(3) 0.0303(3)
H39F H 0.1933 0.3265 0.0390
H40F H 0.1862 0.2541 0.0313
C33F C 0.33394(17) 0.4089(2) 0.2940(4)
C33E C 0.16606(17) -0.0911(2) 0.7060(4)
C37F C 0.43275(17) 0.2770(2) 0.4562(4)
C37A C -0.06725(17) 0.2230(2) 0.4562(4)
Au5 Au 0.006603(7) 0.308208(10) 0.326232(14)
N18 N 0.09249(19) 0.2454(3) 0.3070(4)
N19 N -0.07601(18) 0.3849(3) 0.3359(4)
C38 C 0.06010(19) 0.2667(3) 0.3127(4)
C39 C -0.04593(19) 0.3559(3) 0.3351(4)
O1 O 0.0289(3) 0.0675(4) 0.6511(7)
O2 O 0.0576(2) 0.0642(3) 0.4951(5)
O3 O 0.2561(2) 0.0992(3) 0.2937(6)
O4 O 0.2814(2) 0.0000 0.2048(5)
O5 O 0.3724(3) 0.0000 0.2992(6)
Au2? Au 0.16375(3) 0.03430(4) 0.92939(5)
Au3? Au 0.272197(14) 0.0000 0.80151(3)
N15? N 0.2204(3) 0.1646(5) 0.9392(7)
N16? N 0.2896(8) 0.0312(10) 1.0177(12)
N17? N 0.2546(4) 0.0000 0.5822(8)
C34? C 0.2004(6) 0.1197(12) 0.9476(11)
C35? C 0.2840(6) 0.0238(8) 0.9407(12)
C36? C 0.2617(3) 0.0000 0.6629(8)
loop_
_geom_bond_atom_site_label_1
_geom_bond_atom_site_label_2
_geom_bond_site_symmetry_1
_geom_bond_site_symmetry_2
Fe1 N1 1_555 1_555
Fe2 N7 1_555 1_555
Au1 C33 1_555 1_555
Au4 C37 1_555 1_555
Au5 C38 1_555 1_555
N1 N7 1_555 1_555
N2 Fe1 1_555 1_555
N3 Fe1 1_555 1_555
N4 N13 1_555 1_555
N5 Fe1 1_555 1_555
N6 Fe1 1_555 1_555
N7 C1 1_555 1_555
N8 C1 1_555 1_555
N9 Fe2 1_555 1_555
N10 C6 1_555 1_555
N11 Fe2 1_555 1_555
N12 C15 1_555 1_555
N13 C24 1_555 1_555
N14 C24 1_555 1_555
N18 C38 1_555 1_555
N19 C39 1_555 1_555
C1 H1 1_555 1_555
C2 N1 1_555 1_555
H2 C2 1_555 1_555
C3 N8 1_555 1_555
C4 C3 1_555 1_555
H3 C4 1_555 1_555
H4 C4 1_555 1_555
C5 C3 1_555 1_555
H5 C5 1_555 1_555
H6 C5 1_555 1_555
C6 N9 1_555 1_555
H7 C6 1_555 1_555
C7 N2 1_555 1_555
H8 C7 1_555 1_555
C8 N10 1_555 1_555
C9 C8 1_555 1_555
H9 C9 1_555 1_555
H10 C9 1_555 1_555
C10 C9 1_555 1_555
H11 C10 1_555 1_555
C11 C10 1_555 1_555
H12 C11 1_555 1_555
C12 C11 1_555 1_555
H13 C12 1_555 1_555
C13 C8 1_555 1_555
H14 C13 1_555 1_555
H15 C13 1_555 1_555
C14 C8 1_555 1_555
H16 C14 1_555 1_555
H17 C14 1_555 1_555
C15 N11 1_555 1_555
H18 C15 1_555 1_555
C16 N3 1_555 1_555
H19 C16 1_555 1_555
C17 H20 1_555 1_555
H21 C17 1_555 1_555
C18 C17 1_555 1_555
H22 C18 1_555 1_555
C19 C18 1_555 1_555
H23 C19 1_555 1_555
C20 C19 1_555 1_555
H24 C20 1_555 1_555
C21 C20 1_555 1_555
H25 C21 1_555 1_555
H26 C21 1_555 1_555
C22 N12 1_555 1_555
C23 C22 1_555 1_555
H27 C23 1_555 1_555
H28 C23 1_555 1_555
C24 H29 1_555 1_555
C25 N4 1_555 1_555
H30 C25 1_555 1_555
C26 N14 1_555 1_555
C27 C26 1_555 1_555
H31 C27 1_555 1_555
H32 C27 1_555 1_555
C28 C5 1_555 1_555
H33 C28 1_555 1_555
C29 C28 1_555 1_555
H34 C29 1_555 1_555
H35 C29 1_555 1_555
C30 C4 1_555 1_555
H36 C30 1_555 1_555
C31 C26 1_555 1_555
H37 C31 1_555 1_555
H38 C31 1_555 1_555
C32 C3 1_555 1_555
H39 C32 1_555 1_555
H40 C32 1_555 1_555
C33 N5 1_555 1_555
C37 N6 1_555 1_555
C39 Au5 1_555 1_555
Fe1F N1F 1_555 1_555
Fe1F_2 N4 1_555 1_555
Fe1E N2E 1_555 1_555
Fe1E_2 N3E 1_555 1_555
Fe1_2 N4F 1_555 1_555
Fe2C N9E 1_555 1_555
Fe2C_2 N11E 1_555 1_555
Au1C C33F 1_555 1_555
Au4F C37F 1_555 1_555
N1F N7F 1_555 1_555
N2E N9E 1_555 1_555
N2F Fe1F 1_555 1_555
N3E N11E 1_555 1_555
N3F Fe1F 1_555 1_555
N4F N13F 1_555 1_555
N4F_2 Fe1 1_555 1_555
N4_2 Fe1F 1_555 1_555
N5F Fe1F 1_555 1_555
N6F Fe1F 1_555 1_555
N7F Fe2 1_555 1_555
N8F C1F 1_555 1_555
N9E C6E 1_555 1_555
N9F Fe2 1_555 1_555
N10E C6E 1_555 1_555
N11E C15E 1_555 1_555
N11F Fe2 1_555 1_555
N12E C15E 1_555 1_555
N13F C24F 1_555 1_555
N14F C24F 1_555 1_555
C1F N7F 1_555 1_555
H1F C1F 1_555 1_555
C2F N1F 1_555 1_555
H2F C2F 1_555 1_555
C3F N8F 1_555 1_555
C4F C3F 1_555 1_555
H3F C4F 1_555 1_555
H4F C4F 1_555 1_555
C5F C3F 1_555 1_555
H5F C5F 1_555 1_555
H6F C5F 1_555 1_555
C6E H7E 1_555 1_555
C7E N2E 1_555 1_555
H8E C7E 1_555 1_555
C8E C14 1_555 1_555
C9E C10 1_555 1_555
H9E C9E 1_555 1_555
H10E C9E 1_555 1_555
H12E C11 1_555 1_555
C13E C12 1_555 1_555
H14E C13E 1_555 1_555
H15E C13E 1_555 1_555
C15E H18E 1_555 1_555
C16E N3E 1_555 1_555
H19E C16E 1_555 1_555
C17E C18 1_555 1_555
H20E C17E 1_555 1_555
H21E C17E 1_555 1_555
H23E C19 1_555 1_555
C21E C20 1_555 1_555
H25E C21E 1_555 1_555
H26E C21E 1_555 1_555
C22E C23 1_555 1_555
C24F H29F 1_555 1_555
C25F N4F 1_555 1_555
H30F C25F 1_555 1_555
C26F N14F 1_555 1_555
C27F C26F 1_555 1_555
H31F C27F 1_555 1_555
H32F C27F 1_555 1_555
C28F C5F 1_555 1_555
H33F C28F 1_555 1_555
C29F C28F 1_555 1_555
H34F C29F 1_555 1_555
H35F C29F 1_555 1_555
C30F C4F 1_555 1_555
H36F C30F 1_555 1_555
C31F C26F 1_555 1_555
H37F C31F 1_555 1_555
H38F C31F 1_555 1_555
C32F C3F 1_555 1_555
H39F C32F 1_555 1_555
H40F C32F 1_555 1_555
C33F N5F 1_555 1_555
C33E Au1 1_555 1_555
C37F N6F 1_555 1_555
C37A Au4 1_555 1_555
N2 N9 1_555 1_555
N3 N11 1_555 1_555
N8 C2 1_555 1_555
N10 C7 1_555 1_555
N12 C16 1_555 1_555
N14 C25 1_555 1_555
C12 C13 1_555 1_555
C17 C22 1_555 1_555
C21 C22 1_555 1_555
C26 C32 1_555 1_555
C27 C28 1_555 1_555
C29 C30 1_555 1_555
C30 C31 1_555 1_555
N2F N9F 1_555 1_555
N3F N11F 1_555 1_555
N8F C2F 1_555 1_555
N10E C7E 1_555 1_555
N10E C8E 1_555 1_555
N12E C16E 1_555 1_555
N12E C22E 1_555 1_555
N14F C25F 1_555 1_555
C8E C9E 1_555 1_555
C8E C13E 1_555 1_555
C17E C22E 1_555 1_555
C21E C22E 1_555 1_555
C26F C32F 1_555 1_555
C27F C28F 1_555 1_555
C29F C30F 1_555 1_555
C30F C31F 1_555 1_555

#END
