
#######################################################################
#
#                 Cambridge Crystallographic Data Centre
#                                CCDC 
#
#######################################################################
#
# If this CIF has been generated from an entry in the Cambridge 
# Structural Database, then it will include bibliographic, chemical, 
# crystal, experimental, refinement or atomic coordinate data resulting 
# from the CCDC's data processing and validation procedures.
#
#######################################################################

data_VEPJAD
_symmetry_cell_setting           monoclinic
_symmetry_space_group_name_H-M   'P 21/c'
_symmetry_Int_Tables_number      14
_space_group_name_Hall           '-P 2ybc'
loop_
_symmetry_equiv_pos_site_id
_symmetry_equiv_pos_as_xyz
1 x,y,z
2 -x,1/2+y,1/2-z
3 -x,-y,-z
4 x,1/2-y,1/2+z
_cell_length_a                   12.1224(18)
_cell_length_b                   25.352(4)
_cell_length_c                   9.7713(14)
_cell_angle_alpha                90
_cell_angle_beta                 92.862(3)
_cell_angle_gamma                90
_cell_volume                     2999.24
loop_
_atom_site_label
_atom_site_type_symbol
_atom_site_fract_x
_atom_site_fract_y
_atom_site_fract_z
Eu1 Eu 0.460701(7) 0.926152(3) 0.604505(9)
O1 O 0.32036(11) 0.94138(5) 0.77121(14)
N1 N 0.35908(14) 0.87870(6) 1.15421(17)
C1 C 0.32688(16) 0.92315(7) 0.8940(2)
O2 O 0.46416(11) 1.00421(5) 1.24668(14)
N2 N 0.60599(14) 0.74205(7) 0.55241(17)
C2 C 0.28045(16) 0.87229(8) 0.9249(2)
O3 O 0.47027(12) 0.92612(5) 1.35799(14)
N3 N 0.83523(14) 0.99235(7) 0.36437(18)
C3 C 0.21856(17) 0.84238(8) 0.8260(2)
H1 H 0.2037 0.8566 0.7369
O4 O 0.29148(11) 0.88347(6) 0.51495(15)
C4 C 0.17960(17) 0.79310(8) 0.8568(2)
H2 H 0.1374 0.7736 0.7895
O5 O 0.50758(11) 0.83575(5) 0.53843(14)
C5 C 0.20206(18) 0.77145(8) 0.9877(2)
H3 H 0.1757 0.7372 1.0080
O6 O 0.38820(11) 0.80845(5) 0.36996(14)
C6 C 0.26164(17) 0.79926(8) 1.0866(2)
H4 H 0.2767 0.7843 1.1747
O7 O 0.51599(12) 0.62107(5) 0.29600(14)
C7 C 0.30032(16) 0.85008(8) 1.0564(2)
O8 O 0.66180(11) 0.92157(5) 0.57988(15)
C8 C 0.44873(16) 0.95548(8) 1.2565(2)
O9 O 0.63885(11) 0.99882(5) 0.47549(14)
C9 C 0.39457(16) 0.92827(7) 1.1314(2)
O10 O 1.06764(11) 0.88532(6) 0.50235(15)
C10 C 0.37900(16) 0.95096(8) 1.0047(2)
H5 H 0.4037 0.9860 0.9910
C11 C 0.54326(16) 0.65916(8) 0.3751(2)
C12 C 0.62796(17) 0.65183(8) 0.4830(2)
C13 C 0.68126(19) 0.60284(9) 0.5021(2)
H6 H 0.6605 0.5738 0.4451
C14 C 0.7636(2) 0.59703(10) 0.6037(3)
H7 H 0.7998 0.5640 0.6161
C15 C 0.7941(2) 0.63991(10) 0.6888(3)
H8 H 0.8518 0.6357 0.7574
C16 C 0.7419(2) 0.68775(9) 0.6744(3)
H9 H 0.7618 0.7163 0.7336
C17 C 0.65849(18) 0.69387(8) 0.5706(2)
C18 C 0.46987(16) 0.80278(8) 0.4529(2)
C19 C 0.52512(16) 0.74909(8) 0.4545(2)
C20 C 0.49291(17) 0.70964(8) 0.3655(2)
H10 H 0.4364 0.7161 0.2967
C21 C 0.99669(17) 0.91882(8) 0.4583(2)
C22 C 1.01901(16) 0.95708(8) 0.3513(2)
C23 C 1.12247(17) 0.95970(9) 0.2901(2)
H11 H 1.1791 0.9353 0.3167
C24 C 1.14137(18) 0.99709(9) 0.1928(2)
H12 H 1.2109 0.9984 0.1523
C25 C 1.05883(18) 1.03349(9) 0.1525(2)
H13 H 1.0737 1.0596 0.0862
C26 C 0.95728(17) 1.03181(8) 0.2074(2)
H14 H 0.9011 1.0560 0.1782
C27 C 0.93713(16) 0.99351(8) 0.3081(2)
C28 C 0.69532(16) 0.95913(7) 0.5096(2)
C29 C 0.81183(16) 0.95678(8) 0.4615(2)
C30 C 0.88825(17) 0.92095(8) 0.5095(2)
H15 H 0.8690 0.8968 0.5787
H16 H 0.3709 0.8640 1.2338
H17 H 0.2230 0.8884 0.5106
H18 H 0.7819(19) 1.0122(9) 0.333(2)
H19 H 0.6224(11) 0.7720(5) 0.6085(12)
H20 H 0.3050 0.8596 0.4642
Eu1B Eu 0.539299(7) 1.073848(3) 1.395495(9)
Eu1_2 Eu 0.460701(7) 0.926152(3) 1.604505(9)
Eu1C Eu 0.460701(7) 0.573848(3) 0.104505(9)
Eu1B_2 Eu 0.539299(7) 1.073848(3) 0.395495(9)
O2B O 0.53584(11) 0.99579(5) 0.75332(14)
O3_2 O 0.47027(12) 0.92612(5) 0.35799(14)
O7C O 0.51599(12) 0.87893(5) 0.79600(14)
O9B O 0.36115(11) 1.00118(5) 0.52451(14)
O11 O 0.95508(13) 0.79615(7) 0.60689(16)
H21 H 0.9405 0.7811 0.5221
H23 H 0.9981 0.8251 0.5771
O12 O 0.73894(13) 0.82082(6) 0.68730(16)
H22 H 0.8010 0.8177 0.6494
H24 H 0.7046 0.8520 0.6581
O13 O -0.09222(17) 0.77684(9) 0.8948(2)
H25 H -0.0585 0.7838 0.8104
H26 H -0.1673 0.7971 0.8863
loop_
_geom_bond_atom_site_label_1
_geom_bond_atom_site_label_2
_geom_bond_site_symmetry_1
_geom_bond_site_symmetry_2
Eu1 O1 1_555 1_555
O1 C1 1_555 1_555
N1 C7 1_555 1_555
C1 C2 1_555 1_555
O2 C8 1_555 1_555
N2 C17 1_555 1_555
C2 C3 1_555 1_555
O3 C8 1_555 1_555
N3 C27 1_555 1_555
C3 H1 1_555 1_555
O4 Eu1 1_555 1_555
C4 C3 1_555 1_555
H2 C4 1_555 1_555
O5 Eu1 1_555 1_555
C5 C4 1_555 1_555
H3 C5 1_555 1_555
O6 C18 1_555 1_555
C6 C5 1_555 1_555
H4 C6 1_555 1_555
O7 C11 1_555 1_555
C7 C2 1_555 1_555
O8 Eu1 1_555 1_555
C8 C9 1_555 1_555
O9 C28 1_555 1_555
C9 N1 1_555 1_555
O10 C21 1_555 1_555
C10 C1 1_555 1_555
H5 C10 1_555 1_555
O11 H21 1_555 1_555
C11 C12 1_555 1_555
O12 H22 1_555 1_555
C12 C13 1_555 1_555
O13 H25 1_555 1_555
C13 H6 1_555 1_555
C14 C13 1_555 1_555
H7 C14 1_555 1_555
C15 C14 1_555 1_555
H8 C15 1_555 1_555
C16 C15 1_555 1_555
H9 C16 1_555 1_555
C17 C12 1_555 1_555
C18 O5 1_555 1_555
C19 N2 1_555 1_555
C20 C11 1_555 1_555
H10 C20 1_555 1_555
C21 C22 1_555 1_555
C22 C23 1_555 1_555
C23 H11 1_555 1_555
C24 C23 1_555 1_555
H12 C24 1_555 1_555
C25 C24 1_555 1_555
H13 C25 1_555 1_555
C26 C25 1_555 1_555
H14 C26 1_555 1_555
C27 C22 1_555 1_555
C28 O8 1_555 1_555
C29 N3 1_555 1_555
C30 C21 1_555 1_555
H15 C30 1_555 1_555
H16 N1 1_555 1_555
H17 O4 1_555 1_555
H18 N3 1_555 1_555
H19 N2 1_555 1_555
H20 O4 1_555 1_555
H23 O11 1_555 1_555
H24 O12 1_555 1_555
H26 O13 1_555 1_555
Eu1B O2 1_555 1_555
Eu1_2 O3 1_555 1_555
Eu1C O7 1_555 1_555
Eu1B_2 O9 1_555 1_555
O2B Eu1 1_555 1_555
O3_2 Eu1 1_555 1_555
O7C Eu1 1_555 1_555
O9B Eu1 1_555 1_555
C6 C7 1_555 1_555
C9 C10 1_555 1_555
C16 C17 1_555 1_555
C18 C19 1_555 1_555
C19 C20 1_555 1_555
C26 C27 1_555 1_555
C28 C29 1_555 1_555
C29 C30 1_555 1_555

#END
