
#######################################################################
#
#                 Cambridge Crystallographic Data Centre
#                                CCDC 
#
#######################################################################
#
# If this CIF has been generated from an entry in the Cambridge 
# Structural Database, then it will include bibliographic, chemical, 
# crystal, experimental, refinement or atomic coordinate data resulting 
# from the CCDC's data processing and validation procedures.
#
#######################################################################

data_VEPJOR
_symmetry_cell_setting           monoclinic
_symmetry_space_group_name_H-M   'P 21/c'
_symmetry_Int_Tables_number      14
_space_group_name_Hall           '-P 2ybc'
loop_
_symmetry_equiv_pos_site_id
_symmetry_equiv_pos_as_xyz
1 x,y,z
2 -x,1/2+y,1/2-z
3 -x,-y,-z
4 x,1/2-y,1/2+z
_cell_length_a                   12.1434(18)
_cell_length_b                   25.812(7)
_cell_length_c                   9.940(3)
_cell_angle_alpha                90
_cell_angle_beta                 93.054(14)
_cell_angle_gamma                90
_cell_volume                     3111.22
loop_
_atom_site_label
_atom_site_type_symbol
_atom_site_fract_x
_atom_site_fract_y
_atom_site_fract_z
Nd1 Nd 0.03609(2) 0.073580(10) 0.39745(3)
C1 C -0.2361(8) 0.3121(3) 0.3222(9)
H1 H -0.2539 0.2848 0.2639
O1 O -0.1683(3) 0.07839(14) 0.4185(5)
O2 O 0.0320(3) 0.07317(14) -0.3534(4)
O3 O -0.0185(4) 0.37702(15) 0.7053(4)
O4 O 0.0384(3) -0.00398(14) -0.2428(4)
O5 O -0.0109(4) 0.16461(15) 0.4681(5)
O6 O -0.1390(3) 0.00247(15) 0.5233(4)
O7 O 0.1788(3) 0.05960(15) 0.2300(4)
O8 O 0.1090(4) 0.19130(15) 0.6355(4)
O9 O 0.2087(3) 0.11726(16) 0.4897(4)
O10 O -0.5691(3) 0.11389(18) 0.5113(5)
N1 N -0.3365(4) 0.00668(18) 0.6355(5)
H2 H -0.2864 -0.0154 0.6600
N2 N -0.1054(4) 0.25798(18) 0.4497(5)
H3 H -0.1246 0.2324 0.3981
C2 C -0.2581(8) 0.4014(3) 0.3899(9)
H4 H -0.2927 0.4332 0.3756
C3 C -0.2869(9) 0.3594(3) 0.3048(10)
H5 H -0.3411 0.3637 0.2359
C4 C 0.2807(5) 0.1578(3) 0.1751(7)
H6 H 0.2942 0.1447 0.2616
C5 C -0.1568(6) 0.3056(2) 0.4293(7)
C6 C 0.3203(6) 0.2058(3) 0.1437(7)
H7 H 0.3614 0.2246 0.2085
C7 C -0.4564(5) -0.0334(3) 0.7921(7)
H8 H -0.4012 -0.0568 0.8191
C8 C -0.6212(5) 0.0387(3) 0.7165(7)
H9 H -0.6764 0.0625 0.6937
C9 C -0.5571(6) -0.0355(3) 0.8474(8)
H10 H -0.5710 -0.0611 0.9100
C10 C -0.6391(6) 0.0004(3) 0.8107(8)
H11 H -0.7068 -0.0013 0.8500
C11 C 0.2994(6) 0.2270(3) 0.0139(7)
H12 H 0.3261 0.2597 -0.0061
C12 C -0.1792(7) 0.3960(3) 0.4943(8)
H13 H -0.1604 0.4240 0.5498
N3 N 0.1428(4) 0.12039(17) -0.1513(5)
H14 H 0.1297 0.1339 -0.2296
C13 C 0.1065(5) 0.0718(2) -0.1278(6)
C14 C 0.0048(5) 0.2895(2) 0.6375(6)
H15 H 0.0580 0.2831 0.7063
C15 C 0.0531(4) 0.0445(2) -0.2528(6)
C16 C 0.1725(4) 0.0773(2) 0.1080(6)
C17 C -0.0446(5) 0.3397(2) 0.6248(6)
C18 C 0.1219(5) 0.0497(2) -0.0030(6)
H16 H 0.0988 0.0158 0.0096
C19 C -0.1988(4) 0.0411(2) 0.4905(6)
C20 C -0.3916(5) 0.0785(2) 0.4974(7)
H17 H -0.3739 0.1023 0.4316
C21 C -0.4978(5) 0.0803(2) 0.5503(7)
C22 C 0.0282(5) 0.1969(2) 0.5532(6)
C23 C 0.2193(5) 0.1277(2) 0.0775(6)
C24 C -0.5184(5) 0.0414(2) 0.6545(6)
C25 C -0.3145(4) 0.0426(2) 0.5410(6)
C26 C 0.2006(5) 0.1491(2) -0.0528(6)
C27 C -0.1270(5) 0.3472(2) 0.5160(6)
C28 C -0.0260(5) 0.2506(2) 0.5484(6)
C29 C -0.4367(5) 0.0047(2) 0.6931(6)
C30 C 0.2397(6) 0.1994(2) -0.0829(7)
H18 H 0.2250 0.2135 -0.1680
H22 H 0.2707 0.1325 0.4858
Nd1B Nd -0.03609(2) -0.073580(10) 0.60255(3)
Nd1B_2 Nd -0.03609(2) -0.073580(10) -0.39745(3)
Nd1_2 Nd 0.03609(2) 0.073580(10) -0.60255(3)
Nd1C Nd 0.03609(2) 0.426420(10) 0.89745(3)
O2_2 O 0.0320(3) 0.07317(14) 0.6466(4)
O3C O -0.0185(4) 0.12298(15) 0.2053(4)
O4B O -0.0384(3) 0.00398(14) 0.2428(4)
O6B O 0.1390(3) -0.00247(15) 0.4767(4)
O11 O -0.2510(4) 0.17971(18) 0.3227(6)
H19 H -0.2373 0.1454 0.3358
O12 O -0.4030(7) 0.1986(5) 0.1030(10)
O13 O -0.4467(8) 0.2084(3) 0.4610(14)
H20 H -0.4033 0.2334 0.4309
H21 H -0.4779 0.1799 0.4036
loop_
_geom_bond_atom_site_label_1
_geom_bond_atom_site_label_2
_geom_bond_site_symmetry_1
_geom_bond_site_symmetry_2
Nd1 O1 1_555 1_555
C1 H1 1_555 1_555
O1 C19 1_555 1_555
O2 C15 1_555 1_555
O3 C17 1_555 1_555
O4 C15 1_555 1_555
O5 Nd1 1_555 1_555
O6 C19 1_555 1_555
O7 Nd1 1_555 1_555
O8 C22 1_555 1_555
O9 Nd1 1_555 1_555
O10 C21 1_555 1_555
N1 H2 1_555 1_555
N2 H3 1_555 1_555
C2 H4 1_555 1_555
C3 C1 1_555 1_555
H5 C3 1_555 1_555
C4 H6 1_555 1_555
C5 C1 1_555 1_555
C6 C4 1_555 1_555
H7 C6 1_555 1_555
C7 H8 1_555 1_555
C8 H9 1_555 1_555
C9 C7 1_555 1_555
H10 C9 1_555 1_555
C10 C8 1_555 1_555
H11 C10 1_555 1_555
C11 C6 1_555 1_555
H12 C11 1_555 1_555
C12 C2 1_555 1_555
H13 C12 1_555 1_555
N3 H14 1_555 1_555
C13 N3 1_555 1_555
C14 H15 1_555 1_555
C15 C13 1_555 1_555
C16 O7 1_555 1_555
C17 C14 1_555 1_555
C18 C13 1_555 1_555
H16 C18 1_555 1_555
C19 C25 1_555 1_555
C20 H17 1_555 1_555
C21 C20 1_555 1_555
C22 O5 1_555 1_555
C23 C4 1_555 1_555
C24 C8 1_555 1_555
C25 N1 1_555 1_555
C26 N3 1_555 1_555
C27 C5 1_555 1_555
C28 N2 1_555 1_555
C29 N1 1_555 1_555
C30 C11 1_555 1_555
H18 C30 1_555 1_555
O11 H19 1_555 1_555
O13 H20 1_555 1_555
H21 O13 1_555 1_555
H22 O9 1_555 1_555
Nd1B O6 1_555 1_555
Nd1B_2 O4 1_555 1_555
Nd1_2 O2 1_555 1_555
Nd1C O3 1_555 1_555
O2_2 Nd1 1_555 1_555
O3C Nd1 1_555 1_555
O4B Nd1 1_555 1_555
O6B Nd1 1_555 1_555
N2 C5 1_555 1_555
C2 C3 1_555 1_555
C7 C29 1_555 1_555
C9 C10 1_555 1_555
C12 C27 1_555 1_555
C14 C28 1_555 1_555
C16 C18 1_555 1_555
C16 C23 1_555 1_555
C17 C27 1_555 1_555
C20 C25 1_555 1_555
C21 C24 1_555 1_555
C22 C28 1_555 1_555
C23 C26 1_555 1_555
C24 C29 1_555 1_555
C26 C30 1_555 1_555

#END
