
#######################################################################
#
#                 Cambridge Crystallographic Data Centre
#                                CCDC 
#
#######################################################################
#
# If this CIF has been generated from an entry in the Cambridge 
# Structural Database, then it will include bibliographic, chemical, 
# crystal, experimental, refinement or atomic coordinate data resulting 
# from the CCDC's data processing and validation procedures.
#
#######################################################################

data_VEPKAE
_symmetry_cell_setting           monoclinic
_symmetry_space_group_name_H-M   'P 21/c'
_symmetry_Int_Tables_number      14
_space_group_name_Hall           '-P 2ybc'
loop_
_symmetry_equiv_pos_site_id
_symmetry_equiv_pos_as_xyz
1 x,y,z
2 -x,1/2+y,1/2-z
3 -x,-y,-z
4 x,1/2-y,1/2+z
_cell_length_a                   7.9229(10)
_cell_length_b                   11.8032(16)
_cell_length_c                   15.062(3)
_cell_angle_alpha                90
_cell_angle_beta                 104.899(8)
_cell_angle_gamma                90
_cell_volume                     1361.18
loop_
_atom_site_label
_atom_site_type_symbol
_atom_site_fract_x
_atom_site_fract_y
_atom_site_fract_z
Eu1 Eu 0.979036(13) 0.395553(9) 0.175850(7)
O1 O 0.9522(2) 0.19732(13) 0.13978(11)
O2 O 0.9707(3) 0.27469(14) 0.30858(12)
O3 O 1.2700(2) 0.37590(15) 0.24658(13)
O4 O 0.9913(2) 0.02102(14) 0.19426(12)
O5 O 1.0000(2) 0.09583(13) 0.36228(12)
O6 O 0.6909(2) 0.4283(2) 0.19893(14)
O7 O 1.1308(2) 0.38680(14) 0.05564(12)
O8 O 1.5873(2) 0.03085(15) 0.41435(12)
O9 O 1.7687(2) 0.11367(13) 0.53382(12)
N1 N 1.6838(2) 0.31947(17) 0.46587(14)
H1 H 1.7705 0.3065 0.5124
C1 C 0.9749(3) 0.12469(19) 0.20253(17)
C2 C 0.9822(3) 0.17012(19) 0.30023(16)
C3 C 1.3984(3) 0.3582(2) 0.31570(17)
C4 C 1.5043(3) 0.4514(2) 0.36217(16)
C5 C 1.4704(3) 0.5649(2) 0.33381(18)
H2 H 1.3772 0.5812 0.2837
C6 C 1.5723(4) 0.6512(2) 0.3789(2)
H3 H 1.5488 0.7256 0.3593
C7 C 1.7127(4) 0.6271(2) 0.4549(2)
H4 H 1.7810 0.6861 0.4857
C8 C 1.6466(3) 0.4292(2) 0.43772(17)
C9 C 1.7505(3) 0.5184(2) 0.48446(18)
H5 H 1.8438 0.5035 0.5348
C10 C 1.5894(3) 0.2317(2) 0.42322(16)
C11 C 1.4483(3) 0.2481(2) 0.34966(17)
H6 H 1.3842 0.1858 0.3216
C12 C 1.6516(3) 0.11459(19) 0.46021(17)
H7 H 1.2194 0.4290 0.0624
H8 H 1.0739 0.3881 -0.0002
H9 H 0.6039 0.4619 0.1640
Eu1A Eu 1.020964(13) -0.104447(9) 0.324150(7)
Eu1C Eu 1.979036(13) 0.104447(9) 0.675850(7)
O4A O 1.0087(2) 0.52102(14) 0.30574(12)
O5A O 1.0000(2) 0.59583(13) 0.13772(12)
O9C O 0.7687(2) 0.38633(13) 0.03382(12)
loop_
_geom_bond_atom_site_label_1
_geom_bond_atom_site_label_2
_geom_bond_site_symmetry_1
_geom_bond_site_symmetry_2
Eu1 O1 1_555 1_555
O1 C1 1_555 1_555
O2 Eu1 1_555 1_555
O3 Eu1 1_555 1_555
O4 C1 1_555 1_555
O5 C2 1_555 1_555
O6 Eu1 1_555 1_555
O7 Eu1 1_555 1_555
O8 C12 1_555 1_555
O9 C12 1_555 1_555
N1 H1 1_555 1_555
C1 C2 1_555 1_555
C2 O2 1_555 1_555
C3 O3 1_555 1_555
C4 C3 1_555 1_555
C5 C4 1_555 1_555
H2 C5 1_555 1_555
C6 C5 1_555 1_555
H3 C6 1_555 1_555
C7 C6 1_555 1_555
H4 C7 1_555 1_555
C8 N1 1_555 1_555
C9 C7 1_555 1_555
H5 C9 1_555 1_555
C10 N1 1_555 1_555
C11 C3 1_555 1_555
H6 C11 1_555 1_555
C12 C10 1_555 1_555
H7 O7 1_555 1_555
H8 O7 1_555 1_555
H9 O6 1_555 1_555
Eu1A O4 1_555 1_555
Eu1C O9 1_555 1_555
O4A Eu1 1_555 1_555
O5A Eu1 1_555 1_555
O9C Eu1 1_555 1_555
O5 Eu1A 1_555 1_555
C4 C8 1_555 1_555
C8 C9 1_555 1_555
C10 C11 1_555 1_555

#END
