
#######################################################################
#
#                 Cambridge Crystallographic Data Centre
#                                CCDC 
#
#######################################################################
#
# If this CIF has been generated from an entry in the Cambridge 
# Structural Database, then it will include bibliographic, chemical, 
# crystal, experimental, refinement or atomic coordinate data resulting 
# from the CCDC's data processing and validation procedures.
#
#######################################################################

data_VEPKEI
_symmetry_cell_setting           monoclinic
_symmetry_space_group_name_H-M   'P 21/c'
_symmetry_Int_Tables_number      14
_space_group_name_Hall           '-P 2ybc'
loop_
_symmetry_equiv_pos_site_id
_symmetry_equiv_pos_as_xyz
1 x,y,z
2 -x,1/2+y,1/2-z
3 -x,-y,-z
4 x,1/2-y,1/2+z
_cell_length_a                   7.9196(6)
_cell_length_b                   11.7236(7)
_cell_length_c                   15.0130(10)
_cell_angle_alpha                90
_cell_angle_beta                 105.072(4)
_cell_angle_gamma                90
_cell_volume                     1345.95
loop_
_atom_site_label
_atom_site_type_symbol
_atom_site_fract_x
_atom_site_fract_y
_atom_site_fract_z
Tb1 Tb 0.977437(14) 0.896090(8) 0.176246(7)
O1 O 1.0081(3) 1.02070(15) 0.30608(12)
O2 O 0.9998(3) 1.09529(13) 0.13736(12)
O3 O 1.0481(2) 1.19878(14) 0.36047(12)
O4 O 1.0299(3) 1.27567(15) 0.19080(12)
O5 O 1.2656(2) 0.87555(16) 0.24638(13)
O6 O 1.5870(2) 0.52802(15) 0.41427(13)
O7 O 1.7679(2) 0.61162(14) 0.53486(13)
O8 O 0.6930(3) 0.9272(2) 0.19971(14)
O9 O 1.1265(2) 0.88721(14) 0.05703(12)
N1 N 1.6822(3) 0.81871(18) 0.46576(14)
H1 H 1.7692 0.8056 0.5125
C1 C 1.0244(3) 1.1250(2) 0.29751(17)
C2 C 1.0174(3) 1.17060(19) 0.19935(17)
C3 C 1.3947(3) 0.8575(2) 0.31541(17)
C4 C 1.5016(3) 0.9514(2) 0.36174(17)
C5 C 1.4672(4) 1.0660(2) 0.33269(19)
H2 H 1.3737 1.0826 0.2824
C6 C 1.5710(4) 1.1525(2) 0.3784(2)
H3 H 1.5476 1.2276 0.3590
C7 C 1.7120(4) 1.1283(2) 0.4542(2)
H4 H 1.7806 1.1879 0.4848
C8 C 1.7506(4) 1.0189(2) 0.48400(18)
H5 H 1.8449 1.0038 0.5342
C9 C 1.6452(3) 0.9293(2) 0.43742(17)
C10 C 1.5873(3) 0.7303(2) 0.42308(16)
C11 C 1.4450(3) 0.7461(2) 0.34964(17)
H6 H 1.3806 0.6834 0.3218
C12 C 1.6501(3) 0.61240(19) 0.46056(17)
H7 H 1.0800 0.8944 -0.0010
H8 H 1.2184 0.9287 0.0597
H9 H 0.5976 0.9626 0.1599
Tb1A Tb 1.022563(14) 1.396090(8) 0.323754(7)
Tb1C Tb 1.977437(14) 0.603910(8) 0.676246(7)
O3A O 0.9519(2) 0.69878(14) 0.13953(12)
O4A O 0.9701(3) 0.77567(15) 0.30920(12)
O7C O 0.7679(2) 0.88838(14) 0.03486(13)
loop_
_geom_bond_atom_site_label_1
_geom_bond_atom_site_label_2
_geom_bond_site_symmetry_1
_geom_bond_site_symmetry_2
Tb1 O1 1_555 1_555
O1 C1 1_555 1_555
O2 Tb1 1_555 1_555
O3 C1 1_555 1_555
O4 C2 1_555 1_555
O5 Tb1 1_555 1_555
O6 C12 1_555 1_555
O7 C12 1_555 1_555
O8 Tb1 1_555 1_555
O9 Tb1 1_555 1_555
N1 H1 1_555 1_555
C1 C2 1_555 1_555
C2 O2 1_555 1_555
C3 O5 1_555 1_555
C4 C3 1_555 1_555
C5 C4 1_555 1_555
H2 C5 1_555 1_555
C6 C5 1_555 1_555
H3 C6 1_555 1_555
C7 C6 1_555 1_555
H4 C7 1_555 1_555
C8 C7 1_555 1_555
H5 C8 1_555 1_555
C9 N1 1_555 1_555
C10 N1 1_555 1_555
C11 C3 1_555 1_555
H6 C11 1_555 1_555
C12 C10 1_555 1_555
H7 O9 1_555 1_555
H8 O9 1_555 1_555
H9 O8 1_555 1_555
Tb1A O3 1_555 1_555
Tb1C O7 1_555 1_555
O3A Tb1 1_555 1_555
O4A Tb1 1_555 1_555
O7C Tb1 1_555 1_555
O4 Tb1A 1_555 1_555
C4 C9 1_555 1_555
C8 C9 1_555 1_555
C10 C11 1_555 1_555

#END
