
#######################################################################
#
#                 Cambridge Crystallographic Data Centre
#                                CCDC 
#
#######################################################################
#
# If this CIF has been generated from an entry in the Cambridge 
# Structural Database, then it will include bibliographic, chemical, 
# crystal, experimental, refinement or atomic coordinate data resulting 
# from the CCDC's data processing and validation procedures.
#
#######################################################################

data_VEPLIN
_symmetry_cell_setting           monoclinic
_symmetry_space_group_name_H-M   'P 21/c'
_symmetry_Int_Tables_number      14
_space_group_name_Hall           '-P 2ybc'
loop_
_symmetry_equiv_pos_site_id
_symmetry_equiv_pos_as_xyz
1 x,y,z
2 -x,1/2+y,1/2-z
3 -x,-y,-z
4 x,1/2-y,1/2+z
_cell_length_a                   7.8436(16)
_cell_length_b                   11.760(2)
_cell_length_c                   14.978(3)
_cell_angle_alpha                90
_cell_angle_beta                 104.322(5)
_cell_angle_gamma                90
_cell_volume                     1338.64
loop_
_atom_site_label
_atom_site_type_symbol
_atom_site_fract_x
_atom_site_fract_y
_atom_site_fract_z
Gd1 Gd 0.478646(12) 0.895198(8) 0.175787(7)
O1 O 0.5089(2) 1.01980(14) 0.30659(11)
N1 N 1.1825(2) 0.81889(16) 0.46652(12)
H1 H 1.2707 0.8056 0.5146
C1 C 0.5256(3) 1.12388(18) 0.29784(16)
O2 O 0.5011(2) 1.09489(12) 0.13739(11)
C2 C 0.5186(3) 1.17007(18) 0.19990(15)
O3 O 0.5491(2) 1.19761(13) 0.36115(10)
C3 C 0.8969(3) 0.85742(19) 0.31494(15)
O4 O 0.5299(2) 1.27466(13) 0.19111(11)
C4 C 1.0033(3) 0.95115(19) 0.36206(14)
O5 O 0.7699(2) 0.87514(13) 0.24522(11)
C5 C 0.9685(3) 1.0651(2) 0.33264(16)
H2 H 0.8736 1.0816 0.2812
O6 O 1.08630(19) 0.52912(13) 0.41440(10)
C6 C 1.0718(3) 1.1518(2) 0.37833(16)
H3 H 1.0479 1.2281 0.3583
O7 O 1.2680(2) 0.61272(12) 0.53454(11)
C7 C 1.2123(3) 1.1282(2) 0.45447(16)
H4 H 1.2822 1.1889 0.4857
O8 O 0.6302(2) 0.88612(12) 0.05503(11)
C8 C 1.2500(3) 1.01863(19) 0.48447(15)
H5 H 1.3454 1.0034 0.5361
O9 O 0.1913(2) 0.92809(16) 0.19970(12)
C9 C 1.1457(3) 0.92905(19) 0.43785(15)
C10 C 1.0878(3) 0.73083(19) 0.42327(15)
C11 C 0.9466(3) 0.74670(19) 0.34946(15)
H6 H 0.8811 0.6828 0.3210
C12 C 1.1505(3) 0.61370(17) 0.46054(15)
H7 H 0.1013 0.9594 0.1633
H8 H 0.7395 0.9213 0.0691
H9 H 0.5735 0.8754 -0.0029
Gd1A Gd 0.521354(12) 1.395198(8) 0.324213(7)
Gd1C Gd 1.478646(12) 0.604802(8) 0.675787(7)
O3A O 0.4509(2) 0.69761(13) 0.13885(10)
O4A O 0.4701(2) 0.77466(13) 0.30889(11)
O7C O 0.2680(2) 0.88728(12) 0.03454(11)
loop_
_geom_bond_atom_site_label_1
_geom_bond_atom_site_label_2
_geom_bond_site_symmetry_1
_geom_bond_site_symmetry_2
Gd1 O1 1_555 1_555
O1 C1 1_555 1_555
N1 H1 1_555 1_555
C1 C2 1_555 1_555
O2 Gd1 1_555 1_555
C2 O2 1_555 1_555
O3 C1 1_555 1_555
C3 C4 1_555 1_555
O4 C2 1_555 1_555
C4 C5 1_555 1_555
O5 Gd1 1_555 1_555
C5 H2 1_555 1_555
O6 C12 1_555 1_555
C6 C5 1_555 1_555
H3 C6 1_555 1_555
O7 C12 1_555 1_555
C7 C6 1_555 1_555
H4 C7 1_555 1_555
O8 Gd1 1_555 1_555
C8 C7 1_555 1_555
H5 C8 1_555 1_555
O9 Gd1 1_555 1_555
C9 N1 1_555 1_555
C10 N1 1_555 1_555
C11 C3 1_555 1_555
H6 C11 1_555 1_555
C12 C10 1_555 1_555
H7 O9 1_555 1_555
H8 O8 1_555 1_555
H9 O8 1_555 1_555
Gd1A O3 1_555 1_555
Gd1C O7 1_555 1_555
O3A Gd1 1_555 1_555
O4A Gd1 1_555 1_555
O7C Gd1 1_555 1_555
C3 O5 1_555 1_555
O4 Gd1A 1_555 1_555
C4 C9 1_555 1_555
C8 C9 1_555 1_555
C10 C11 1_555 1_555

#END
