
#######################################################################
#
#                 Cambridge Crystallographic Data Centre
#                                CCDC 
#
#######################################################################
#
# If this CIF has been generated from an entry in the Cambridge 
# Structural Database, then it will include bibliographic, chemical, 
# crystal, experimental, refinement or atomic coordinate data resulting 
# from the CCDC's data processing and validation procedures.
#
#######################################################################

data_VEPNOT
_symmetry_cell_setting           monoclinic
_symmetry_space_group_name_H-M   'P 21/c'
_symmetry_Int_Tables_number      14
_space_group_name_Hall           '-P 2ybc'
loop_
_symmetry_equiv_pos_site_id
_symmetry_equiv_pos_as_xyz
1 x,y,z
2 -x,1/2+y,1/2-z
3 -x,-y,-z
4 x,1/2-y,1/2+z
_cell_length_a                   10.456(2)
_cell_length_b                   5.650(1)
_cell_length_c                   14.674(2)
_cell_angle_alpha                90
_cell_angle_beta                 96.21(3)
_cell_angle_gamma                90
_cell_volume                     861.8
loop_
_atom_site_label
_atom_site_type_symbol
_atom_site_fract_x
_atom_site_fract_y
_atom_site_fract_z
Mn1 Mn 0.00000 0.0000 0.00000
P1 P 0.16134(9) 0.4959(2) 0.05448(7)
O1 O 0.0996(3) 0.2687(6) 0.0836(2)
O2 O 0.1027(3) 0.7235(6) 0.0845(2)
O3 O 0.1564(3) -0.0166(7) -0.0929(2)
C1 C 0.3306(4) 0.4902(3) 0.0939(3)
C2 C 0.4027(5) 0.2941(9) 0.0712(3)
C3 C 0.5346(5) 0.290(1) 0.0966(4)
C4 C 0.5934(4) 0.477(1) 0.1459(3)
C5 C 0.5223(5) 0.667(1) 0.1704(3)
C6 C 0.3905(4) 0.6767(9) 0.1432(3)
C7 C 0.1577(4) 0.0483(9) -0.1734(3)
N1 N 0.0763(5) 0.1933(9) -0.2170(3)
H1 H 0.157(4) 0.483(9) -0.039(3)
H2 H 0.372(5) 0.16(1) 0.038(4)
H3 H 0.586(5) 0.16(1) 0.079(4)
H4 H 0.684(5) 0.48(1) 0.162(3)
H5 H 0.558(5) 0.80(1) 0.205(4)
H6 H 0.350(5) 0.81(1) 0.164(4)
H7 H 0.224(5) -0.02(1) -0.213(3)
H8 H 0.084(5) 0.23(1) -0.269(4)
H9 H 0.014(5) 0.26(1) -0.175(4)
O1B O -0.0996(3) -0.2687(6) -0.0836(2)
O2B O -0.1027(3) 0.2765(6) -0.0845(2)
O3B O -0.1564(3) 0.0166(7) 0.0929(2)
O2_2 O 0.1027(3) -0.2765(6) 0.0845(2)
P1B P -0.16134(9) -0.4959(2) -0.05448(7)
C7B C -0.1577(4) -0.0483(9) 0.1734(3)
Mn1_2 Mn 0.00000 1.0000 0.00000
O2B_2 O -0.1027(3) -0.7235(6) -0.0845(2)
C1B C -0.3306(4) -0.4902(3) -0.0939(3)
H1B H -0.157(4) -0.483(9) 0.039(3)
N1B N -0.0763(5) -0.1933(9) 0.2170(3)
H7B H -0.224(5) 0.02(1) 0.213(3)
Mn1_3 Mn 0.00000 -1.0000 0.00000
C2B C -0.4027(5) -0.2941(9) -0.0712(3)
C6B C -0.3905(4) -0.6767(9) -0.1432(3)
H8B H -0.084(5) -0.23(1) 0.269(4)
H9B H -0.014(5) -0.26(1) 0.175(4)
C3B C -0.5346(5) -0.290(1) -0.0966(4)
H2B H -0.372(5) -0.16(1) -0.038(4)
C5B C -0.5223(5) -0.667(1) -0.1704(3)
H6B H -0.350(5) -0.81(1) -0.164(4)
C4B C -0.5934(4) -0.477(1) -0.1459(3)
H3B H -0.586(5) -0.16(1) -0.079(4)
H5B H -0.558(5) -0.80(1) -0.205(4)
H4B H -0.684(5) -0.48(1) -0.162(3)
loop_
_geom_bond_atom_site_label_1
_geom_bond_atom_site_label_2
_geom_bond_site_symmetry_1
_geom_bond_site_symmetry_2
Mn1 O1 1_555 1_555
P1 O1 1_555 1_555
O2 P1 1_555 1_555
O3 Mn1 1_555 1_555
C1 P1 1_555 1_555
C2 C1 1_555 1_555
C3 C2 1_555 1_555
C4 C3 1_555 1_555
C5 C4 1_555 1_555
C6 C1 1_555 1_555
C7 O3 1_555 1_555
N1 C7 1_555 1_555
H1 P1 1_555 1_555
H2 C2 1_555 1_555
H3 C3 1_555 1_555
H4 C4 1_555 1_555
H5 C5 1_555 1_555
H6 C6 1_555 1_555
H7 C7 1_555 1_555
H8 N1 1_555 1_555
H9 N1 1_555 1_555
O1B Mn1 1_555 1_555
O2B Mn1 1_555 1_555
O3B Mn1 1_555 1_555
O2_2 Mn1 1_555 1_555
P1B O1B 1_555 1_555
C7B O3B 1_555 1_555
Mn1_2 O2 1_555 1_555
O2B_2 P1B 1_555 1_555
C1B P1B 1_555 1_555
H1B P1B 1_555 1_555
N1B C7B 1_555 1_555
H7B C7B 1_555 1_555
Mn1_3 O2B_2 1_555 1_555
C2B C1B 1_555 1_555
C6B C1B 1_555 1_555
H8B N1B 1_555 1_555
H9B N1B 1_555 1_555
C3B C2B 1_555 1_555
H2B C2B 1_555 1_555
C5B C6B 1_555 1_555
H6B C6B 1_555 1_555
C4B C3B 1_555 1_555
H3B C3B 1_555 1_555
H5B C5B 1_555 1_555
H4B C4B 1_555 1_555
C5 C6 1_555 1_555
C5B C4B 1_555 1_555

#END
