
#######################################################################
#
#                 Cambridge Crystallographic Data Centre
#                                CCDC 
#
#######################################################################
#
# If this CIF has been generated from an entry in the Cambridge 
# Structural Database, then it will include bibliographic, chemical, 
# crystal, experimental, refinement or atomic coordinate data resulting 
# from the CCDC's data processing and validation procedures.
#
#######################################################################

data_VEPNEJ
_symmetry_cell_setting           monoclinic
_symmetry_space_group_name_H-M   'P 21/c'
_symmetry_Int_Tables_number      14
_space_group_name_Hall           '-P 2ybc'
loop_
_symmetry_equiv_pos_site_id
_symmetry_equiv_pos_as_xyz
1 x,y,z
2 -x,1/2+y,1/2-z
3 -x,-y,-z
4 x,1/2-y,1/2+z
_cell_length_a                   10.490(2)
_cell_length_b                   5.756(1)
_cell_length_c                   14.792(2)
_cell_angle_alpha                90
_cell_angle_beta                 96.45(2)
_cell_angle_gamma                90
_cell_volume                     887.494
loop_
_atom_site_label
_atom_site_type_symbol
_atom_site_fract_x
_atom_site_fract_y
_atom_site_fract_z
Cd1 Cd 0.0000 0.0000 0.00000
P1 P 0.1639(1) 0.4959(3) 0.05763(7)
O1 O 0.1026(4) 0.2751(7) 0.0880(3)
O2 O 0.1068(4) 0.7202(7) 0.0883(3)
O3 O 0.1629(4) -0.017(1) -0.0950(3)
C1 C 0.3332(4) 0.485(1) 0.0946(3)
C2 C 0.4047(5) 0.297(1) 0.0729(4)
C3 C 0.5360(5) 0.291(1) 0.0979(4)
C4 C 0.5954(5) 0.473(2) 0.1469(4)
C5 C 0.5255(6) 0.660(1) 0.1696(5)
C6 C 0.3938(5) 0.672(1) 0.1430(4)
C7 C 0.1612(5) 0.0484(8) -0.1751(4)
N1 N 0.0757(6) 0.187(1) -0.2167(4)
H1 H 0.155(4) 0.49(1) -0.031(3)
H2 H 0.362(4) 0.17(1) 0.046(4)
H3 H 0.583(5) 0.16(1) 0.081(4)
H4 H 0.687(6) 0.45(1) 0.165(4)
H5 H 0.565(6) 0.78(1) 0.202(5)
H6 H 0.347(5) 0.80(1) 0.157(4)
H7 H 0.225(6) -0.03(1) -0.214(4)
H8 H 0.092(5) 0.21(1) -0.273(4)
H9 H 0.002(9) 0.23(2) -0.183(6)
O1B O -0.1026(4) -0.2751(7) -0.0880(3)
O2B O -0.1068(4) 0.2798(7) -0.0883(3)
O3B O -0.1629(4) 0.017(1) 0.0950(3)
O2_2 O 0.1068(4) -0.2798(7) 0.0883(3)
P1B P -0.1639(1) -0.4959(3) -0.05763(7)
C7B C -0.1612(5) -0.0484(8) 0.1751(4)
Cd1_2 Cd 0.0000 1.0000 0.00000
O2B_2 O -0.1068(4) -0.7202(7) -0.0883(3)
C1B C -0.3332(4) -0.485(1) -0.0946(3)
H1B H -0.155(4) -0.49(1) 0.031(3)
N1B N -0.0757(6) -0.187(1) 0.2167(4)
H7B H -0.225(6) 0.03(1) 0.214(4)
Cd1_3 Cd 0.0000 -1.0000 0.00000
C2B C -0.4047(5) -0.297(1) -0.0729(4)
C6B C -0.3938(5) -0.672(1) -0.1430(4)
H8B H -0.092(5) -0.21(1) 0.273(4)
H9B H -0.002(9) -0.23(2) 0.183(6)
C3B C -0.5360(5) -0.291(1) -0.0979(4)
H2B H -0.362(4) -0.17(1) -0.046(4)
C5B C -0.5255(6) -0.660(1) -0.1696(5)
H6B H -0.347(5) -0.80(1) -0.157(4)
C4B C -0.5954(5) -0.473(2) -0.1469(4)
H3B H -0.583(5) -0.16(1) -0.081(4)
H5B H -0.565(6) -0.78(1) -0.202(5)
H4B H -0.687(6) -0.45(1) -0.165(4)
loop_
_geom_bond_atom_site_label_1
_geom_bond_atom_site_label_2
_geom_bond_site_symmetry_1
_geom_bond_site_symmetry_2
Cd1 O1 1_555 1_555
P1 O1 1_555 1_555
O2 P1 1_555 1_555
O3 Cd1 1_555 1_555
C1 P1 1_555 1_555
C2 C1 1_555 1_555
C3 C2 1_555 1_555
C4 C3 1_555 1_555
C5 C4 1_555 1_555
C6 C1 1_555 1_555
C7 O3 1_555 1_555
N1 C7 1_555 1_555
H1 P1 1_555 1_555
H2 C2 1_555 1_555
H3 C3 1_555 1_555
H4 C4 1_555 1_555
H5 C5 1_555 1_555
H6 C6 1_555 1_555
H7 C7 1_555 1_555
H8 N1 1_555 1_555
H9 N1 1_555 1_555
O1B Cd1 1_555 1_555
O2B Cd1 1_555 1_555
O3B Cd1 1_555 1_555
O2_2 Cd1 1_555 1_555
P1B O1B 1_555 1_555
C7B O3B 1_555 1_555
Cd1_2 O2 1_555 1_555
O2B_2 P1B 1_555 1_555
C1B P1B 1_555 1_555
H1B P1B 1_555 1_555
N1B C7B 1_555 1_555
H7B C7B 1_555 1_555
Cd1_3 O2B_2 1_555 1_555
C2B C1B 1_555 1_555
C6B C1B 1_555 1_555
H8B N1B 1_555 1_555
H9B N1B 1_555 1_555
C3B C2B 1_555 1_555
H2B C2B 1_555 1_555
C5B C6B 1_555 1_555
H6B C6B 1_555 1_555
C4B C3B 1_555 1_555
H3B C3B 1_555 1_555
H5B C5B 1_555 1_555
H4B C4B 1_555 1_555
C5 C6 1_555 1_555
C5B C4B 1_555 1_555

#END
