
#######################################################################
#
#                 Cambridge Crystallographic Data Centre
#                                CCDC 
#
#######################################################################
#
# If this CIF has been generated from an entry in the Cambridge 
# Structural Database, then it will include bibliographic, chemical, 
# crystal, experimental, refinement or atomic coordinate data resulting 
# from the CCDC's data processing and validation procedures.
#
#######################################################################

data_VEQKEI
_symmetry_cell_setting           monoclinic
_symmetry_space_group_name_H-M   'P 21/n'
_symmetry_Int_Tables_number      14
_space_group_name_Hall           '-P 2yn'
loop_
_symmetry_equiv_pos_site_id
_symmetry_equiv_pos_as_xyz
1 x,y,z
2 1/2-x,1/2+y,1/2-z
3 -x,-y,-z
4 1/2+x,1/2-y,1/2+z
_cell_length_a                   8.5377(6)
_cell_length_b                   10.0981(7)
_cell_length_c                   22.0819(15)
_cell_angle_alpha                90
_cell_angle_beta                 99.6730(10)
_cell_angle_gamma                90
_cell_volume                     1876.71
loop_
_atom_site_label
_atom_site_type_symbol
_atom_site_fract_x
_atom_site_fract_y
_atom_site_fract_z
Co1 Co 0.75149(3) 1.21977(3) -0.007890(12)
Co2 Co 0.5000 1.0000 0.0000
Co3 Co 0.0000 1.0000 0.0000
O1 O 0.50447(17) 1.19971(14) -0.03484(7)
O2 O 0.7378(2) 1.43025(16) -0.02043(8)
O3 O 0.44295(18) 1.39466(16) -0.07973(8)
O4 O 0.15322(17) 1.31851(15) -0.13141(7)
O5 O 0.04744(17) 1.43190(15) -0.41318(6)
O6 O 0.21491(18) 1.26133(15) -0.41470(7)
O7 O 0.99526(17) 1.21144(15) 0.02394(7)
O8 O 1.02651(18) 1.40538(17) 0.07292(8)
O9 O 1.33297(17) 1.35569(16) 0.12097(7)
O10 O 1.45419(17) 1.46170(16) 0.40687(7)
O11 O 1.27692(19) 1.29650(16) 0.40176(7)
O12 O 0.24842(15) 0.98649(16) 0.00053(7)
H1 H 0.2679 0.9940 0.0454
C1 C 0.4116(2) 1.2788(2) -0.06829(9)
C2 C 0.2480(2) 1.2243(2) -0.09349(9)
H2 H 0.1948 1.1999 -0.0596
H3 H 0.2590 1.1451 -0.1172
C3 C 0.1646(2) 1.3231(2) -0.19265(9)
C4 C 0.2754(2) 1.2534(2) -0.21976(10)
H4 H 0.3533 1.2027 -0.1958
C5 C 0.2681(2) 1.2604(2) -0.28270(10)
H5 H 0.3407 1.2128 -0.3010
C6 C 0.1543(2) 1.3375(2) -0.31910(9)
C7 C 0.0498(2) 1.4120(2) -0.29011(10)
H6 H -0.0236 1.4675 -0.3135
C8 C 0.0540(2) 1.4047(2) -0.22790(10)
H7 H -0.0169 1.4541 -0.2094
C9 C 0.1384(2) 1.3429(2) -0.38733(9)
C10 C 1.0756(2) 1.2962(2) 0.05951(9)
C11 C 1.2456(2) 1.2557(2) 0.08470(10)
H8 H 1.2995 1.2341 0.0506
H9 H 1.2440 1.1765 0.1094
C12 C 1.3229(2) 1.3633(2) 0.18192(9)
C13 C 1.2189(2) 1.2892(2) 0.21075(10)
H10 H 1.1428 1.2352 0.1878
C14 C 1.2300(2) 1.2969(2) 0.27398(10)
H11 H 1.1618 1.2464 0.2933
C15 C 1.3411(2) 1.3784(2) 0.30914(9)
C16 C 1.4392(2) 1.4561(2) 0.27901(10)
H12 H 1.5117 1.5136 0.3016
C17 C 1.4304(2) 1.4489(2) 0.21630(10)
H13 H 1.4964 1.5015 0.1969
C18 C 1.3592(2) 1.3785(2) 0.37773(9)
Na1 Na 0.22522(11) 1.53774(9) -0.08717(4)
H14 H 0.805(4) 1.465(4) -0.0398(16)
H15 H 0.657(4) 1.435(3) -0.0442(15)
Co1B Co 0.24851(3) 0.78023(3) 0.007890(12)
Co1C Co 0.25149(3) 1.28023(3) -0.507890(12)
Co1C_2 Co 1.25149(3) 1.28023(3) 0.492110(12)
Co1A Co 0.74851(3) 0.71977(3) 0.507890(12)
Co1B_2 Co 0.24851(3) 1.78023(3) 0.007890(12)
Co2C Co 0.0000 1.5000 -0.5000
Co2C_2 Co 1.0000 0.5000 0.5000
Co3_2 Co 1.0000 1.0000 0.0000
Co3C Co 1.5000 1.5000 0.5000
Co3C_2 Co 0.5000 1.5000 -0.5000
O1B O 0.49553(17) 0.80029(14) 0.03484(7)
O2B O 0.2622(2) 1.56975(16) 0.02043(8)
O2B_2 O 0.2622(2) 0.56975(16) 0.02043(8)
O2_2 O 0.7378(2) 0.43025(16) -0.02043(8)
O3B O 0.55705(18) 0.60534(16) 0.07973(8)
O4B O 0.84678(17) 0.68149(15) 0.13141(7)
O5B O 0.95256(17) 0.56810(15) 0.41318(6)
O5C O 0.54744(17) 1.06810(15) 0.08682(6)
O5A O 0.45256(17) 0.93190(15) -0.08682(6)
O6B O 0.78509(18) 0.73867(15) 0.41470(7)
O6C O 0.71491(18) 1.23867(15) 0.08530(7)
O6A O 0.28509(18) 1.76133(15) -0.08530(7)
O6A_2 O 0.28509(18) 0.76133(15) -0.08530(7)
O6C_2 O 0.71491(18) 0.23867(15) 0.08530(7)
O7C O 0.49526(17) 1.28856(15) -0.47606(7)
O7_2 O -0.00474(17) 1.21144(15) 0.02394(7)
O7B O 0.00474(17) 0.78856(15) -0.02394(7)
O8C O 0.52651(18) 1.09462(17) -0.42708(8)
O8B O -0.02651(18) 1.59462(17) -0.07292(8)
O8_2 O 1.02651(18) 0.40538(17) 0.07292(8)
O9C O 0.83297(17) 1.14431(16) -0.37903(7)
O10C O 0.95419(17) 1.03830(16) -0.09313(7)
O10C_2 O -0.04581(17) 1.03830(16) -0.09313(7)
O10A O 0.04581(17) 0.96170(16) 0.09313(7)
O11C O 0.77692(19) 1.20350(16) -0.09824(7)
O11A O 0.22308(19) 0.79650(16) 0.09824(7)
O12B O 0.75158(15) 1.01351(16) -0.00053(7)
O12B_2 O -0.24842(15) 1.01351(16) -0.00053(7)
H1B H 0.7321 1.0060 -0.0454
H1B_2 H -0.2679 1.0060 -0.0454
C1B C 0.5884(2) 0.7212(2) 0.06829(9)
C2B C 0.7520(2) 0.7757(2) 0.09349(9)
H2B H 0.8052 0.8001 0.0596
H3B H 0.7410 0.8549 0.1172
C3B C 0.8354(2) 0.6769(2) 0.19265(9)
C4B C 0.7246(2) 0.7466(2) 0.21976(10)
H4B H 0.6467 0.7973 0.1958
C5B C 0.7319(2) 0.7396(2) 0.28270(10)
H5B H 0.6593 0.7872 0.3010
C6B C 0.8457(2) 0.6625(2) 0.31910(9)
C7B C 0.9502(2) 0.5880(2) 0.29011(10)
H6B H 1.0236 0.5325 0.3135
C8B C 0.9460(2) 0.5953(2) 0.22790(10)
H7B H 1.0169 0.5459 0.2094
C9B C 0.8616(2) 0.6571(2) 0.38733(9)
C10C C 0.5756(2) 1.2038(2) -0.44049(9)
C11C C 0.7456(2) 1.2443(2) -0.41530(10)
H8C H 0.7995 1.2659 -0.4494
H9C H 0.7440 1.3235 -0.3906
C12C C 0.8229(2) 1.1367(2) -0.31808(9)
C13C C 0.7189(2) 1.2108(2) -0.28925(10)
H10C H 0.6428 1.2648 -0.3122
C14C C 0.7300(2) 1.2031(2) -0.22602(10)
H11C H 0.6618 1.2536 -0.2067
C15C C 0.8411(2) 1.1216(2) -0.19086(9)
C16C C 0.9392(2) 1.0439(2) -0.22099(10)
H12C H 1.0117 0.9864 -0.1984
C17C C 0.9304(2) 1.0511(2) -0.28370(10)
H13C H 0.9964 0.9985 -0.3031
C18C C 0.8592(2) 1.1215(2) -0.12227(9)
Na1B Na 0.77478(11) 0.46226(9) 0.08717(4)
Na1B_2 Na 0.77478(11) 1.46226(9) 0.08717(4)
Na1A Na 0.27478(11) 1.03774(9) -0.41283(4)
Na1C Na 0.72522(11) 0.96226(9) 0.41283(4)
H14B H 0.195(4) 1.535(4) 0.0398(16)
H14B_2 H 0.195(4) 0.535(4) 0.0398(16)
H14_2 H 0.805(4) 0.465(4) -0.0398(16)
H15B H 0.343(4) 1.565(3) 0.0442(15)
H15B_2 H 0.343(4) 0.565(3) 0.0442(15)
H15_2 H 0.657(4) 0.435(3) -0.0442(15)
loop_
_geom_bond_atom_site_label_1
_geom_bond_atom_site_label_2
_geom_bond_site_symmetry_1
_geom_bond_site_symmetry_2
Co1 O1 1_555 1_555
Co2 O1 1_555 1_555
Co3 O12 1_555 1_555
O1 C1 1_555 1_555
O2 Co1 1_555 1_555
O3 C1 1_555 1_555
O4 C2 1_555 1_555
O5 C9 1_555 1_555
O6 C9 1_555 1_555
O7 Co1 1_555 1_555
O8 C10 1_555 1_555
O9 C11 1_555 1_555
O10 C18 1_555 1_555
O11 C18 1_555 1_555
O12 Co2 1_555 1_555
H1 O12 1_555 1_555
C1 C2 1_555 1_555
C2 H2 1_555 1_555
H3 C2 1_555 1_555
C3 O4 1_555 1_555
C4 C3 1_555 1_555
H4 C4 1_555 1_555
C5 C4 1_555 1_555
H5 C5 1_555 1_555
C6 C5 1_555 1_555
C7 C6 1_555 1_555
H6 C7 1_555 1_555
C8 C3 1_555 1_555
H7 C8 1_555 1_555
C9 C6 1_555 1_555
C10 O7 1_555 1_555
C11 C10 1_555 1_555
H8 C11 1_555 1_555
H9 C11 1_555 1_555
C12 O9 1_555 1_555
C13 C12 1_555 1_555
H10 C13 1_555 1_555
C14 C13 1_555 1_555
H11 C14 1_555 1_555
C15 C14 1_555 1_555
C16 C15 1_555 1_555
H12 C16 1_555 1_555
C17 C12 1_555 1_555
H13 C17 1_555 1_555
C18 C15 1_555 1_555
Na1 O3 1_555 1_555
H14 O2 1_555 1_555
H15 O2 1_555 1_555
Co1B O12 1_555 1_555
Co1C O6 1_555 1_555
Co1C_2 O11 1_555 1_555
Co1A O6B 1_555 1_555
Co1B_2 O2B 1_555 1_555
Co2C O5 1_555 1_555
Co2C_2 O5B 1_555 1_555
Co3_2 O7 1_555 1_555
Co3C O10 1_555 1_555
Co3C_2 O7C 1_555 1_555
O1B Co2 1_555 1_555
O2B Na1 1_555 1_555
O2B_2 Co1B 1_555 1_555
O2_2 Na1B 1_555 1_555
O3B C1B 1_555 1_555
O4B C2B 1_555 1_555
O5B C9B 1_555 1_555
O5C Co2 1_555 1_555
O5A Co2 1_555 1_555
O6B C9B 1_555 1_555
O6C Co1 1_555 1_555
O6A Na1 1_555 1_555
O6A_2 Co1B 1_555 1_555
O6C_2 Na1B 1_555 1_555
O7C Co1C 1_555 1_555
O7_2 Co3 1_555 1_555
O7B Co3 1_555 1_555
O8C C10C 1_555 1_555
O8B Na1 1_555 1_555
O8_2 Na1B 1_555 1_555
O9C C11C 1_555 1_555
O10C Co3_2 1_555 1_555
O10C_2 Co3 1_555 1_555
O10A Co3 1_555 1_555
O11C Co1 1_555 1_555
O11A Co1B 1_555 1_555
O12B Co1 1_555 1_555
O12B_2 Co3 1_555 1_555
H1B O12B 1_555 1_555
H1B_2 O12B_2 1_555 1_555
C1B O1B 1_555 1_555
C2B C1B 1_555 1_555
H2B C2B 1_555 1_555
H3B C2B 1_555 1_555
C3B O4B 1_555 1_555
C4B C3B 1_555 1_555
H4B C4B 1_555 1_555
C5B C4B 1_555 1_555
H5B C5B 1_555 1_555
C6B C5B 1_555 1_555
C7B C6B 1_555 1_555
H6B C7B 1_555 1_555
C8B C3B 1_555 1_555
H7B C8B 1_555 1_555
C9B C6B 1_555 1_555
C10C O7C 1_555 1_555
C11C C10C 1_555 1_555
H8C C11C 1_555 1_555
H9C C11C 1_555 1_555
C12C O9C 1_555 1_555
C13C C12C 1_555 1_555
H10C C13C 1_555 1_555
C14C C13C 1_555 1_555
H11C C14C 1_555 1_555
C15C C14C 1_555 1_555
C16C C15C 1_555 1_555
H12C C16C 1_555 1_555
C17C C12C 1_555 1_555
H13C C17C 1_555 1_555
C18C O10C 1_555 1_555
Na1B O3B 1_555 1_555
Na1B_2 O2 1_555 1_555
Na1A O6 1_555 1_555
Na1C O6B 1_555 1_555
H14B O2B 1_555 1_555
H14B_2 O2B_2 1_555 1_555
H14_2 O2_2 1_555 1_555
H15B O2B 1_555 1_555
H15B_2 O2B_2 1_555 1_555
H15_2 O2_2 1_555 1_555
Co2 O12B 1_555 1_555
O4 Na1 1_555 1_555
O8 Na1B_2 1_555 1_555
C7 C8 1_555 1_555
C16 C17 1_555 1_555
Co1B O1B 1_555 1_555
Co1B O7B 1_555 1_555
Co1B_2 O6A 1_555 1_555
Co3_2 O12B 1_555 1_555
O4B Na1B 1_555 1_555
O6C Na1B_2 1_555 1_555
O8C Na1A 1_555 1_555
O11C C18C 1_555 1_555
C7B C8B 1_555 1_555
C15C C18C 1_555 1_555
C16C C17C 1_555 1_555

#END
