
#######################################################################
#
#                 Cambridge Crystallographic Data Centre
#                                CCDC 
#
#######################################################################
#
# If this CIF has been generated from an entry in the Cambridge 
# Structural Database, then it will include bibliographic, chemical, 
# crystal, experimental, refinement or atomic coordinate data resulting 
# from the CCDC's data processing and validation procedures.
#
#######################################################################

data_VERQOZ
_symmetry_cell_setting           rhombohedral
_symmetry_space_group_name_H-M   'R 3 c'
_symmetry_Int_Tables_number      161
_space_group_name_Hall           'R 3 -2"c'
loop_
_symmetry_equiv_pos_site_id
_symmetry_equiv_pos_as_xyz
1 x,y,z
2 -y,x-y,z
3 -x+y,-x,z
4 -y,-x,1/2+z
5 -x+y,y,1/2+z
6 x,x-y,1/2+z
7 2/3+x,1/3+y,1/3+z
8 2/3-y,1/3+x-y,1/3+z
9 2/3-x+y,1/3-x,1/3+z
10 2/3-y,1/3-x,5/6+z
11 2/3-x+y,1/3+y,5/6+z
12 2/3+x,1/3+x-y,5/6+z
13 1/3+x,2/3+y,2/3+z
14 1/3-y,2/3+x-y,2/3+z
15 1/3-x+y,2/3-x,2/3+z
16 1/3-y,2/3-x,1/6+z
17 1/3-x+y,2/3+y,1/6+z
18 1/3+x,2/3+x-y,1/6+z
_cell_length_a                   21.112(3)
_cell_length_b                   21.112(3)
_cell_length_c                   13.953(3)
_cell_angle_alpha                90
_cell_angle_beta                 90
_cell_angle_gamma                120.00
_cell_volume                     5385.88
loop_
_atom_site_label
_atom_site_type_symbol
_atom_site_fract_x
_atom_site_fract_y
_atom_site_fract_z
Cd1 Cd 0.077304(7) 0.412991(7) 0.615812(19)
N1 N 0.11469(10) 0.34803(11) 0.53457(14)
N2 N 0.17296(10) 0.29044(10) 0.48520(13)
N3 N 0.19125(12) 0.46975(10) 0.69550(16)
O1 O 0.15089(12) 0.20517(11) 0.32829(16)
O2 O 0.07028(12) 0.22991(14) 0.26518(14)
O3 O 0.00960(10) 0.30086(11) 0.31765(14)
O4 O 0.00348(13) 0.36086(11) 0.44220(19)
C1 C 0.16596(15) 0.33062(17) 0.55277(15)
C2 C 0.11559(12) 0.23634(14) 0.33282(16)
C3 C 0.12236(11) 0.28148(11) 0.41690(14)
C4 C 0.08681(11) 0.31753(11) 0.44724(14)
C5 C 0.02935(11) 0.32785(13) 0.40086(17)
C6 C 0.19961(17) 0.45555(16) 0.7855(2)
C7 C 0.26785(19) 0.4849(2) 0.8286(3)
C8 C 0.32844(19) 0.5322(2) 0.7776(3)
C9 C 0.32065(16) 0.54645(19) 0.6842(3)
C10 C 0.25168(14) 0.51484(16) 0.64598(19)
H1 H 0.1944 0.3454 0.6080
H2 H 0.1583 0.4248 0.8212
H3 H 0.2722 0.4726 0.8912
H4 H 0.3744 0.5545 0.8061
H5 H 0.3613 0.5770 0.6473
H6 H 0.2466 0.5252 0.5826
H7 H 0.045(2) 0.249(2) 0.280(3)
Cd1I Cd 0.253676(7) 0.256029(7) 0.449145(19)
Cd1M Cd -0.079658(7) 0.330980(10) 0.282479(19)
N2O N 0.04289(10) 0.49371(10) 0.65187(13)
O1O O 0.12816(11) 0.51578(12) 0.49496(16)
O3H O -0.04207(15) 0.32373(10) 0.65098(14)
O4H O 0.02405(17) 0.32985(13) 0.77553(19)
loop_
_geom_bond_atom_site_label_1
_geom_bond_atom_site_label_2
_geom_bond_site_symmetry_1
_geom_bond_site_symmetry_2
Cd1 N1 1_555 1_555
N1 C1 1_555 1_555
N2 C1 1_555 1_555
N3 Cd1 1_555 1_555
O1 C2 1_555 1_555
O2 C2 1_555 1_555
O3 C5 1_555 1_555
O4 Cd1 1_555 1_555
C1 H1 1_555 1_555
C2 C3 1_555 1_555
C3 N2 1_555 1_555
C4 N1 1_555 1_555
C5 O4 1_555 1_555
C6 N3 1_555 1_555
C7 C6 1_555 1_555
C8 C7 1_555 1_555
C9 C8 1_555 1_555
C10 N3 1_555 1_555
H2 C6 1_555 1_555
H3 C7 1_555 1_555
H4 C8 1_555 1_555
H5 C9 1_555 1_555
H6 C10 1_555 1_555
H7 O2 1_555 1_555
Cd1I N2 1_555 1_555
Cd1M O3 1_555 1_555
N2O Cd1 1_555 1_555
O1O Cd1 1_555 1_555
O3H Cd1 1_555 1_555
O4H Cd1 1_555 1_555
O1 Cd1I 1_555 1_555
O4 Cd1M 1_555 1_555
C3 C4 1_555 1_555
C4 C5 1_555 1_555
C9 C10 1_555 1_555

#END
