
#######################################################################
#
#                 Cambridge Crystallographic Data Centre
#                                CCDC 
#
#######################################################################
#
# If this CIF has been generated from an entry in the Cambridge 
# Structural Database, then it will include bibliographic, chemical, 
# crystal, experimental, refinement or atomic coordinate data resulting 
# from the CCDC's data processing and validation procedures.
#
#######################################################################

data_VERZIC
_symmetry_cell_setting           monoclinic
_symmetry_space_group_name_H-M   'P 21/c'
_symmetry_Int_Tables_number      14
_space_group_name_Hall           '-P 2ybc'
loop_
_symmetry_equiv_pos_site_id
_symmetry_equiv_pos_as_xyz
1 x,y,z
2 -x,1/2+y,1/2-z
3 -x,-y,-z
4 x,1/2-y,1/2+z
_cell_length_a                   8.7391(5)
_cell_length_b                   4.2118(3)
_cell_length_c                   21.8958(13)
_cell_angle_alpha                90
_cell_angle_beta                 99.135(5)
_cell_angle_gamma                90
_cell_volume                     795.705
loop_
_atom_site_label
_atom_site_type_symbol
_atom_site_fract_x
_atom_site_fract_y
_atom_site_fract_z
I1 I 1.14463(2) -0.65921(4) 0.322520(8)
Br1 Br 0.77913(4) 0.36242(8) 0.516325(15)
Cu1 Cu 0.95898(5) -0.16968(10) 0.298857(19)
N1 N 0.6143(3) -0.4248(6) 0.28835(13)
H1 H 0.6912 -0.5185 0.2709
H2 H 0.5409 -0.5815 0.2839
N2 N 0.7932(3) -0.1228(6) 0.35400(11)
C1 C 0.5652(4) 0.0445(8) 0.42377(14)
H3 H 0.4872 0.1093 0.4468
C2 C 0.7191(4) 0.1392(7) 0.44128(13)
C3 C 0.5298(4) -0.1437(7) 0.37273(15)
H4 H 0.4263 -0.2139 0.3600
C4 C 0.8268(3) 0.0562(7) 0.40544(13)
H5 H 0.9304 0.1278 0.4172
C5 C 0.6472(3) -0.2329(7) 0.33914(13)
I1_2 I 1.14463(2) 0.34079(4) 0.322520(8)
I1A I 0.85537(2) -0.15921(4) 0.177480(8)
Cu1_2 Cu 0.95898(5) -1.16968(10) 0.298857(19)
Cu1A Cu 1.04102(5) -0.66968(10) 0.201143(19)
loop_
_geom_bond_atom_site_label_1
_geom_bond_atom_site_label_2
_geom_bond_site_symmetry_1
_geom_bond_site_symmetry_2
I1 Cu1 1_555 1_555
Br1 C2 1_555 1_555
Cu1 N2 1_555 1_555
N1 H1 1_555 1_555
H2 N1 1_555 1_555
N2 C4 1_555 1_555
C1 H3 1_555 1_555
C2 C1 1_555 1_555
C3 C1 1_555 1_555
H4 C3 1_555 1_555
C4 C2 1_555 1_555
H5 C4 1_555 1_555
C5 N1 1_555 1_555
I1_2 Cu1 1_555 1_555
I1A Cu1 1_555 1_555
Cu1_2 I1 1_555 1_555
Cu1A I1 1_555 1_555
N2 C5 1_555 1_555
C3 C5 1_555 1_555
I1A Cu1A 1_555 1_555

#END
