
#######################################################################
#
#                 Cambridge Crystallographic Data Centre
#                                CCDC 
#
#######################################################################
#
# If this CIF has been generated from an entry in the Cambridge 
# Structural Database, then it will include bibliographic, chemical, 
# crystal, experimental, refinement or atomic coordinate data resulting 
# from the CCDC's data processing and validation procedures.
#
#######################################################################

data_VESWAS
_symmetry_cell_setting           monoclinic
_symmetry_space_group_name_H-M   'P 21/c'
_symmetry_Int_Tables_number      14
_space_group_name_Hall           '-P 2ybc'
loop_
_symmetry_equiv_pos_site_id
_symmetry_equiv_pos_as_xyz
1 x,y,z
2 -x,1/2+y,1/2-z
3 -x,-y,-z
4 x,1/2-y,1/2+z
_cell_length_a                   10.394(4)
_cell_length_b                   10.851(4)
_cell_length_c                   11.268(4)
_cell_angle_alpha                90
_cell_angle_beta                 106.477(6)
_cell_angle_gamma                90
_cell_volume                     1218.67
loop_
_atom_site_label
_atom_site_type_symbol
_atom_site_fract_x
_atom_site_fract_y
_atom_site_fract_z
Ag1 Ag 0.389886(17) 0.132148(16) 0.174320(17)
N1 N 0.3731(2) 0.11257(18) 0.3780(2)
H1 H 0.3691 0.0299 0.3947
H2 H 0.4510 0.1427 0.4312
N2 N 0.3653(2) 0.37431(17) 0.4596(2)
H3 H 0.3569 0.4559 0.4366
H4 H 0.4449 0.3471 0.4484
C1 C 0.2645(2) 0.1710(2) 0.4058(2)
H5 H 0.2694 0.1600 0.4951
C2 C 0.2581(2) 0.3079(2) 0.3715(2)
H6 H 0.2638 0.3194 0.2851
C3 C 0.1395(2) 0.3651(2) 0.3875(3)
H7 H 0.1364 0.4534 0.3646
H8 H 0.1377 0.3584 0.4746
C4 C 0.0244(2) 0.2976(3) 0.3041(3)
H9 H 0.0283 0.3037 0.2175
H10 H -0.0611 0.3346 0.3088
C5 C 0.0306(3) 0.1623(3) 0.3432(3)
H11 H 0.0328 0.1569 0.4315
H12 H -0.0508 0.1190 0.2937
C6 C 0.1482(3) 0.1031(2) 0.3255(3)
H13 H 0.1480 0.1082 0.2377
H14 H 0.1513 0.0153 0.3498
O4 O 0.5142(2) 0.3408(2) 0.2508(2)
H19 H 0.548(4) 0.329(4) 0.194(4)
H20 H 0.478(4) 0.394(3) 0.229(3)
Ag1C Ag 0.389886(17) 0.367852(16) 0.674320(17)
N2C N 0.3653(2) 0.12569(17) -0.0404(2)
H3C H 0.3569 0.0441 -0.0634
H4C H 0.4449 0.1529 -0.0516
O1 O 0.6609(2) 0.13701(16) 0.1138(2)
O2 O 0.64126(17) 0.33274(16) 0.05117(17)
C7 C 0.6888(2) 0.2267(2) 0.0532(2)
C8 C 0.7831(3) 0.2072(3) -0.0227(3)
H15 H 0.8573 0.1544 0.0226
H16 H 0.8187 0.2869 -0.0396
H17 H 0.7356 0.1676 -0.1010
O3 O 0.3402(2) 0.52086(18) 0.1578(2)
H18 H 0.342(4) 0.556(3) 0.099(3)
H21 H 0.334(4) 0.560(3) 0.223(3)
loop_
_geom_bond_atom_site_label_1
_geom_bond_atom_site_label_2
_geom_bond_site_symmetry_1
_geom_bond_site_symmetry_2
Ag1 N1 1_555 1_555
N1 H1 1_555 1_555
H2 N1 1_555 1_555
N2 H3 1_555 1_555
H4 N2 1_555 1_555
C1 N1 1_555 1_555
H5 C1 1_555 1_555
C2 N2 1_555 1_555
H6 C2 1_555 1_555
C3 C2 1_555 1_555
H7 C3 1_555 1_555
H8 C3 1_555 1_555
C4 C3 1_555 1_555
H9 C4 1_555 1_555
H10 C4 1_555 1_555
C5 C4 1_555 1_555
H11 C5 1_555 1_555
H12 C5 1_555 1_555
C6 C1 1_555 1_555
H13 C6 1_555 1_555
H14 C6 1_555 1_555
O1 C7 1_555 1_555
O2 C7 1_555 1_555
C7 C8 1_555 1_555
C8 H15 1_555 1_555
H16 C8 1_555 1_555
H17 C8 1_555 1_555
O3 H18 1_555 1_555
O4 Ag1 1_555 1_555
H19 O4 1_555 1_555
H20 O4 1_555 1_555
H21 O3 1_555 1_555
Ag1C N2 1_555 1_555
N2C Ag1 1_555 1_555
H3C N2C 1_555 1_555
H4C N2C 1_555 1_555
C1 C2 1_555 1_555
C5 C6 1_555 1_555

#END
