
#######################################################################
#
#                 Cambridge Crystallographic Data Centre
#                                CCDC 
#
#######################################################################
#
# If this CIF has been generated from an entry in the Cambridge 
# Structural Database, then it will include bibliographic, chemical, 
# crystal, experimental, refinement or atomic coordinate data resulting 
# from the CCDC's data processing and validation procedures.
#
#######################################################################

data_VESWUM01
_symmetry_cell_setting           triclinic
_symmetry_space_group_name_H-M   'P -1'
_symmetry_Int_Tables_number      2
_space_group_name_Hall           '-P 1'
loop_
_symmetry_equiv_pos_site_id
_symmetry_equiv_pos_as_xyz
1 x,y,z
2 -x,-y,-z
_cell_length_a                   7.7319(7)
_cell_length_b                   9.3707(8)
_cell_length_c                   10.0332(9)
_cell_angle_alpha                92.178(7)
_cell_angle_beta                 109.144(7)
_cell_angle_gamma                104.861(7)
_cell_volume                     657.804
loop_
_atom_site_label
_atom_site_type_symbol
_atom_site_fract_x
_atom_site_fract_y
_atom_site_fract_z
C1 C 0.3177(19) 0.5865(15) 0.3297(17)
H1 H 0.3471 0.6325 0.2562
C2 C 0.4077(18) 0.6612(16) 0.4689(16)
H2 H 0.4994 0.7528 0.4871
C3 C 0.3610(19) 0.5998(15) 0.5768(14)
H3 H 0.4193 0.6481 0.6698
C4 C 0.2223(18) 0.4613(14) 0.5448(14)
C5 C 0.1407(16) 0.3924(13) 0.4028(13)
C6 C -0.0077(17) 0.2525(13) 0.3682(14)
C7 C -0.0641(19) 0.1863(15) 0.4762(17)
C8 C 0.027(2) 0.2572(18) 0.6197(17)
H4 H -0.0084 0.2122 0.6915
C9 C 0.163(2) 0.3881(19) 0.6525(16)
H5 H 0.2208 0.4323 0.7468
C10 C -0.212(2) 0.0538(17) 0.4355(19)
H6 H -0.2538 0.0070 0.5042
C11 C -0.297(2) -0.0075(18) 0.2976(19)
H7 H -0.3963 -0.0954 0.2709
C12 C -0.2311(19) 0.0647(15) 0.1942(17)
H8 H -0.2886 0.0229 0.0991
N1 N 0.1933(14) 0.4539(11) 0.2992(12)
N2 N -0.0900(15) 0.1903(12) 0.2296(12)
N3 N -0.1850(17) 0.4264(13) 0.0185(13)
N4 N -0.3428(17) 0.3654(14) 0.0164(13)
N5 N -0.493(2) 0.311(2) 0.016(2)
N6 N -0.213(2) -0.017(2) -0.156(2)
Pb1 Pb 0.06158(6) 0.29828(5) 0.05713(5)
O1 O -0.248(2) 0.1203(17) -0.1608(19)
O2 O -0.1138(13) -0.0060(9) -0.0692(9)
O3 O -0.274(2) -0.1124(16) -0.2423(16)
Pb1A Pb -0.06158(6) 0.70172(5) -0.05713(5)
N3A N 0.1850(17) 0.5736(13) -0.0185(13)
O2A O 0.1138(13) 0.0060(9) 0.0692(9)
O3A O 0.274(2) 0.1124(16) 0.2423(16)
Pb1A_2 Pb -0.06158(6) -0.29828(5) -0.05713(5)
loop_
_geom_bond_atom_site_label_1
_geom_bond_atom_site_label_2
_geom_bond_site_symmetry_1
_geom_bond_site_symmetry_2
C1 H1 1_555 1_555
C2 C1 1_555 1_555
H2 C2 1_555 1_555
C3 C2 1_555 1_555
H3 C3 1_555 1_555
C4 C3 1_555 1_555
C5 C4 1_555 1_555
C6 C5 1_555 1_555
C7 C6 1_555 1_555
C8 C7 1_555 1_555
H4 C8 1_555 1_555
C9 C4 1_555 1_555
H5 C9 1_555 1_555
C10 C7 1_555 1_555
H6 C10 1_555 1_555
C11 C10 1_555 1_555
H7 C11 1_555 1_555
C12 C11 1_555 1_555
H8 C12 1_555 1_555
N1 C1 1_555 1_555
N2 C6 1_555 1_555
N3 N4 1_555 1_555
N4 N5 1_555 1_555
N6 O1 1_555 1_555
Pb1 N1 1_555 1_555
O1 Pb1 1_555 1_555
O2 N6 1_555 1_555
O3 N6 1_555 1_555
Pb1A N3 1_555 1_555
N3A Pb1 1_555 1_555
O2A Pb1 1_555 1_555
O3A Pb1 1_555 1_555
Pb1A_2 O2 1_555 1_555
C5 N1 1_555 1_555
C8 C9 1_555 1_555
C12 N2 1_555 1_555
N2 Pb1 1_555 1_555
N3 Pb1 1_555 1_555
Pb1 O2 1_555 1_555
O3 Pb1A_2 1_555 1_555
Pb1A N3A 1_555 1_555
O2A Pb1A_2 1_555 1_555

#END
