
#######################################################################
#
#                 Cambridge Crystallographic Data Centre
#                                CCDC 
#
#######################################################################
#
# If this CIF has been generated from an entry in the Cambridge 
# Structural Database, then it will include bibliographic, chemical, 
# crystal, experimental, refinement or atomic coordinate data resulting 
# from the CCDC's data processing and validation procedures.
#
#######################################################################

data_VETCED
_symmetry_cell_setting           orthorhombic
_symmetry_space_group_name_H-M   'P c c n'
_symmetry_Int_Tables_number      56
_space_group_name_Hall           '-P 2ab 2ac'
loop_
_symmetry_equiv_pos_site_id
_symmetry_equiv_pos_as_xyz
1 x,y,z
2 1/2-x,1/2-y,z
3 -x,1/2+y,1/2-z
4 1/2+x,-y,1/2-z
5 -x,-y,-z
6 1/2+x,1/2+y,-z
7 x,1/2-y,1/2+z
8 1/2-x,y,1/2+z
_cell_length_a                   9.5135(9)
_cell_length_b                   12.4374(12)
_cell_length_c                   14.4942(13)
_cell_angle_alpha                90
_cell_angle_beta                 90
_cell_angle_gamma                90
_cell_volume                     1715
loop_
_atom_site_label
_atom_site_type_symbol
_atom_site_fract_x
_atom_site_fract_y
_atom_site_fract_z
Cd1 Cd 0.2500 0.2500 0.355650(15)
N1 N 0.7208(2) 0.0980(2) 0.76464(19)
N2 N 0.40015(17) 0.16774(13) 0.46901(13)
N3 N 0.3936(2) 0.17512(14) 0.24671(14)
N4 N 0.5035(2) 0.07814(16) 0.11929(13)
N5 N 0.6114(2) -0.09940(16) 0.12467(14)
C1 C 0.6546(2) 0.10419(18) 0.70002(18)
C2 C 0.5686(2) 0.11783(17) 0.61831(16)
C3 C 0.6275(2) 0.14699(17) 0.53512(18)
H1 H 0.7246 0.1493 0.5280
C4 C 0.5405(2) 0.17250(18) 0.46301(17)
H2 H 0.5806 0.1940 0.4075
C5 C 0.3453(2) 0.13138(17) 0.54747(15)
H3 H 0.2485 0.1222 0.5508
C6 C 0.4246(2) 0.1067(2) 0.62385(16)
H4 H 0.3822 0.0831 0.6780
C7 C 0.4475(2) 0.12511(16) 0.19027(16)
C8 C 0.5592(2) -0.01695(19) 0.12587(14)
Cd1B Cd 0.7500 -0.2500 0.144350(15)
Cd1B_2 Cd -0.2500 0.7500 0.144350(15)
N1A N -0.2208(2) 0.4020(2) 0.76464(19)
N2A N 0.09985(17) 0.33226(13) 0.46901(13)
N3A N 0.1064(2) 0.32488(14) 0.24671(14)
N4A N -0.0035(2) 0.42186(16) 0.11929(13)
N5A N -0.1114(2) 0.59940(16) 0.12467(14)
N5B N 0.3886(2) 0.40060(16) 0.37533(14)
N5C N 0.1114(2) 0.09940(16) 0.37533(14)
C1A C -0.1546(2) 0.39581(18) 0.70002(18)
C2A C -0.0686(2) 0.38217(17) 0.61831(16)
C3A C -0.1275(2) 0.35301(17) 0.53512(18)
H1A H -0.2246 0.3507 0.5280
C4A C -0.0405(2) 0.32750(18) 0.46301(17)
H2A H -0.0806 0.3060 0.4075
C5A C 0.1547(2) 0.36862(17) 0.54747(15)
H3A H 0.2515 0.3778 0.5508
C6A C 0.0754(2) 0.3933(2) 0.62385(16)
H4A H 0.1178 0.4169 0.6780
C7A C 0.0525(2) 0.37489(16) 0.19027(16)
C8A C -0.0592(2) 0.51695(19) 0.12587(14)
loop_
_geom_bond_atom_site_label_1
_geom_bond_atom_site_label_2
_geom_bond_site_symmetry_1
_geom_bond_site_symmetry_2
Cd1 N2 1_555 1_555
N1 C1 1_555 1_555
N2 C4 1_555 1_555
N3 Cd1 1_555 1_555
N4 C7 1_555 1_555
N5 C8 1_555 1_555
C1 C2 1_555 1_555
C2 C3 1_555 1_555
C3 H1 1_555 1_555
C4 C3 1_555 1_555
H2 C4 1_555 1_555
C5 N2 1_555 1_555
H3 C5 1_555 1_555
C6 C2 1_555 1_555
H4 C6 1_555 1_555
C7 N3 1_555 1_555
C8 N4 1_555 1_555
Cd1B N5 1_555 1_555
Cd1B_2 N5A 1_555 1_555
N1A C1A 1_555 1_555
N2A Cd1 1_555 1_555
N3A Cd1 1_555 1_555
N4A C7A 1_555 1_555
N5A C8A 1_555 1_555
N5B Cd1 1_555 1_555
N5C Cd1 1_555 1_555
C1A C2A 1_555 1_555
C2A C3A 1_555 1_555
C3A H1A 1_555 1_555
C4A N2A 1_555 1_555
H2A C4A 1_555 1_555
C5A N2A 1_555 1_555
H3A C5A 1_555 1_555
C6A C2A 1_555 1_555
H4A C6A 1_555 1_555
C7A N3A 1_555 1_555
C8A N4A 1_555 1_555
C5 C6 1_555 1_555
C3A C4A 1_555 1_555
C5A C6A 1_555 1_555

#END
