
#######################################################################
#
#                 Cambridge Crystallographic Data Centre
#                                CCDC 
#
#######################################################################
#
# If this CIF has been generated from an entry in the Cambridge 
# Structural Database, then it will include bibliographic, chemical, 
# crystal, experimental, refinement or atomic coordinate data resulting 
# from the CCDC's data processing and validation procedures.
#
#######################################################################

data_VETDUU
_symmetry_cell_setting           tetragonal
_symmetry_space_group_name_H-M   'P 43 21 2'
_symmetry_Int_Tables_number      96
_space_group_name_Hall           'P 4nw 2abw'
loop_
_symmetry_equiv_pos_site_id
_symmetry_equiv_pos_as_xyz
1 x,y,z
2 -x,-y,1/2+z
3 1/2-y,1/2+x,3/4+z
4 1/2+y,1/2-x,1/4+z
5 1/2-x,1/2+y,3/4-z
6 1/2+x,1/2-y,1/4-z
7 y,x,-z
8 -y,-x,1/2-z
_cell_length_a                   8.9078(6)
_cell_length_b                   8.9078(6)
_cell_length_c                   43.458(6)
_cell_angle_alpha                90
_cell_angle_beta                 90
_cell_angle_gamma                90
_cell_volume                     3448.34
loop_
_atom_site_label
_atom_site_type_symbol
_atom_site_fract_x
_atom_site_fract_y
_atom_site_fract_z
Zn1 Zn 0.64609(4) 0.47491(4) 0.053455(10)
O1 O 0.4354(3) 0.4527(3) 0.06680(7)
O2 O 0.4599(4) 0.2079(3) 0.07167(8)
O3 O -0.2273(3) 0.4257(3) 0.08950(6)
O4 O -0.0472(3) 0.5171(3) 0.05953(6)
O5 O 0.0850(4) 0.0755(4) 0.05443(8)
N1 N 0.1798(4) 0.1778(4) 0.09763(8)
H1 H 0.1970 0.1657 0.1169
N2 N 0.6859(3) 0.3459(4) 0.01696(7)
N3 N 0.6514(4) 0.1795(4) -0.01979(7)
H2 H 0.6081 0.1199 -0.0326
N4 N 0.6456(4) 0.7014(3) 0.04945(8)
N5 N 0.5725(5) 0.9323(4) 0.05645(9)
H3 H 0.5161 1.0072 0.0611
C1 C 0.3866(4) 0.3236(4) 0.07359(9)
C2 C 0.2209(4) 0.3189(4) 0.08357(9)
H4 H 0.1605 0.3287 0.0648
C3 C 0.1799(4) 0.4510(5) 0.10432(10)
H5 H 0.2094 0.5436 0.0942
H6 H 0.2364 0.4432 0.1233
C4 C 0.0124(4) 0.4589(6) 0.11200(9)
H7 H -0.0142 0.3706 0.1239
H8 H -0.0047 0.5459 0.1250
C5 C -0.0904(4) 0.4685(5) 0.08483(9)
C6 C 0.1162(5) 0.0652(5) 0.08200(10)
C7 C 0.0833(6) -0.0749(5) 0.10003(11)
H9 H 0.0830 -0.0520 0.1216
H10 H 0.1590 -0.1488 0.0958
H11 H -0.0132 -0.1134 0.0942
C8 C 0.5838(5) 0.2688(4) 0.00081(9)
H12 H 0.4805 0.2763 0.0035
C9 C 0.8037(5) 0.2016(5) -0.01647(10)
H13 H 0.8793 0.1549 -0.0277
C10 C 0.8221(4) 0.3028(5) 0.00590(9)
H14 H 0.9141 0.3384 0.0129
C11 C 0.5357(5) 0.7883(5) 0.05839(11)
H15 H 0.4432 0.7535 0.0653
C12 C 0.7144(6) 0.9397(5) 0.04584(14)
H16 H 0.7706 1.0257 0.0420
C13 C 0.7574(6) 0.7965(5) 0.04190(14)
H17 H 0.8515 0.7670 0.0349
Zn1_2 Zn 1.64609(4) 0.47491(4) 0.053455(10)
Zn1_3 Zn -0.35391(4) 0.47491(4) 0.053455(10)
O1_2 O 1.4354(3) 0.4527(3) 0.06680(7)
O2_2 O 1.4599(4) 0.2079(3) 0.07167(8)
O3_2 O 0.7727(3) 0.4257(3) 0.08950(6)
O3_3 O 1.7727(3) 0.4257(3) 0.08950(6)
O4_2 O 0.9528(3) 0.5171(3) 0.05953(6)
O5_2 O 1.0850(4) 0.0755(4) 0.05443(8)
N1_2 N 1.1798(4) 0.1778(4) 0.09763(8)
H1_2 H 1.1970 0.1657 0.1169
N2_2 N 1.6859(3) 0.3459(4) 0.01696(7)
N3_2 N 1.6514(4) 0.1795(4) -0.01979(7)
H2_2 H 1.6081 0.1199 -0.0326
N4_2 N 1.6456(4) 0.7014(3) 0.04945(8)
N5_2 N 1.5725(5) 0.9323(4) 0.05645(9)
H3_2 H 1.5161 1.0072 0.0611
C1_2 C 1.3866(4) 0.3236(4) 0.07359(9)
C2_2 C 1.2209(4) 0.3189(4) 0.08357(9)
H4_2 H 1.1605 0.3287 0.0648
C3_2 C 1.1799(4) 0.4510(5) 0.10432(10)
H5_2 H 1.2094 0.5436 0.0942
H6_2 H 1.2364 0.4432 0.1233
C4_2 C 1.0124(4) 0.4589(6) 0.11200(9)
H7_2 H 0.9858 0.3706 0.1239
H8_2 H 0.9953 0.5459 0.1250
C5_2 C 0.9096(4) 0.4685(5) 0.08483(9)
C6_2 C 1.1162(5) 0.0652(5) 0.08200(10)
C7_2 C 1.0833(6) -0.0749(5) 0.10003(11)
H9_2 H 1.0830 -0.0520 0.1216
H10_2 H 1.1590 -0.1488 0.0958
H11_2 H 0.9868 -0.1134 0.0942
C8_2 C 1.5838(5) 0.2688(4) 0.00081(9)
H12_2 H 1.4805 0.2763 0.0035
C9_2 C 1.8037(5) 0.2016(5) -0.01647(10)
H13_2 H 1.8793 0.1549 -0.0277
C10_2 C 1.8221(4) 0.3028(5) 0.00590(9)
H14_2 H 1.9141 0.3384 0.0129
C11_2 C 1.5357(5) 0.7883(5) 0.05839(11)
H15_2 H 1.4432 0.7535 0.0653
C12_2 C 1.7144(6) 0.9397(5) 0.04584(14)
H16_2 H 1.7706 1.0257 0.0420
C13_2 C 1.7574(6) 0.7965(5) 0.04190(14)
H17_2 H 1.8515 0.7670 0.0349
O6 O 0.2127(4) 0.2127(4) 0.0000
H18 H 0.198(7) 0.175(7) 0.0150(12)
H18F H 0.175(7) 0.198(7) -0.0150(12)
loop_
_geom_bond_atom_site_label_1
_geom_bond_atom_site_label_2
_geom_bond_site_symmetry_1
_geom_bond_site_symmetry_2
Zn1 O1 1_555 1_555
O1 C1 1_555 1_555
O2 C1 1_555 1_555
O3 C5 1_555 1_555
O4 C5 1_555 1_555
O5 C6 1_555 1_555
O6 H18 1_555 1_555
N1 H1 1_555 1_555
N2 Zn1 1_555 1_555
N3 H2 1_555 1_555
N4 Zn1 1_555 1_555
N5 H3 1_555 1_555
C1 C2 1_555 1_555
C2 N1 1_555 1_555
H4 C2 1_555 1_555
C3 C2 1_555 1_555
H5 C3 1_555 1_555
H6 C3 1_555 1_555
C4 C3 1_555 1_555
H7 C4 1_555 1_555
H8 C4 1_555 1_555
C5 C4 1_555 1_555
C6 N1 1_555 1_555
C7 C6 1_555 1_555
H9 C7 1_555 1_555
H10 C7 1_555 1_555
H11 C7 1_555 1_555
C8 N2 1_555 1_555
H12 C8 1_555 1_555
C9 N3 1_555 1_555
H13 C9 1_555 1_555
C10 N2 1_555 1_555
H14 C10 1_555 1_555
C11 N4 1_555 1_555
H15 C11 1_555 1_555
C12 N5 1_555 1_555
H16 C12 1_555 1_555
C13 N4 1_555 1_555
H17 C13 1_555 1_555
Zn1_2 O1_2 1_555 1_555
Zn1_3 O3 1_555 1_555
O1_2 C1_2 1_555 1_555
O2_2 C1_2 1_555 1_555
O3_2 Zn1 1_555 1_555
O3_3 Zn1_2 1_555 1_555
O4_2 C5_2 1_555 1_555
O5_2 C6_2 1_555 1_555
N1_2 H1_2 1_555 1_555
N2_2 Zn1_2 1_555 1_555
N3_2 H2_2 1_555 1_555
N4_2 Zn1_2 1_555 1_555
N5_2 H3_2 1_555 1_555
C1_2 C2_2 1_555 1_555
C2_2 N1_2 1_555 1_555
H4_2 C2_2 1_555 1_555
C3_2 C2_2 1_555 1_555
H5_2 C3_2 1_555 1_555
H6_2 C3_2 1_555 1_555
C4_2 C3_2 1_555 1_555
H7_2 C4_2 1_555 1_555
H8_2 C4_2 1_555 1_555
C5_2 O3_2 1_555 1_555
C6_2 N1_2 1_555 1_555
C7_2 C6_2 1_555 1_555
H9_2 C7_2 1_555 1_555
H10_2 C7_2 1_555 1_555
H11_2 C7_2 1_555 1_555
C8_2 N2_2 1_555 1_555
H12_2 C8_2 1_555 1_555
C9_2 N3_2 1_555 1_555
H13_2 C9_2 1_555 1_555
C10_2 N2_2 1_555 1_555
H14_2 C10_2 1_555 1_555
C11_2 N4_2 1_555 1_555
H15_2 C11_2 1_555 1_555
C12_2 N5_2 1_555 1_555
H16_2 C12_2 1_555 1_555
C13_2 N4_2 1_555 1_555
H17_2 C13_2 1_555 1_555
H18F O6 1_555 1_555
N3 C8 1_555 1_555
N5 C11 1_555 1_555
C9 C10 1_555 1_555
C12 C13 1_555 1_555
N3_2 C8_2 1_555 1_555
N5_2 C11_2 1_555 1_555
C4_2 C5_2 1_555 1_555
C9_2 C10_2 1_555 1_555
C12_2 C13_2 1_555 1_555

#END
