
#######################################################################
#
#                 Cambridge Crystallographic Data Centre
#                                CCDC 
#
#######################################################################
#
# If this CIF has been generated from an entry in the Cambridge 
# Structural Database, then it will include bibliographic, chemical, 
# crystal, experimental, refinement or atomic coordinate data resulting 
# from the CCDC's data processing and validation procedures.
#
#######################################################################

data_VEVBUU
_symmetry_cell_setting           monoclinic
_symmetry_space_group_name_H-M   'P 21/n'
_symmetry_Int_Tables_number      14
_space_group_name_Hall           '-P 2yn'
loop_
_symmetry_equiv_pos_site_id
_symmetry_equiv_pos_as_xyz
1 x,y,z
2 1/2-x,1/2+y,1/2-z
3 -x,-y,-z
4 1/2+x,1/2-y,1/2+z
_cell_length_a                   11.170(2)
_cell_length_b                   15.292(4)
_cell_length_c                   16.619(3)
_cell_angle_alpha                90
_cell_angle_beta                 104.145(15)
_cell_angle_gamma                90
_cell_volume                     2752.65
loop_
_atom_site_label
_atom_site_type_symbol
_atom_site_fract_x
_atom_site_fract_y
_atom_site_fract_z
Mn1 Mn -0.00521(9) 0.16739(6) 0.44563(6)
F1 F -0.1243(13) 0.3867(11) 0.6197(11)
F2 F -0.2985(11) 0.3769(7) 0.5768(10)
F3 F -0.3267(4) -0.0104(4) 0.4950(4)
F4 F -0.4314(6) 0.0885(5) 0.5323(4)
F5 F -0.4373(5) 0.0691(4) 0.4082(4)
F6 F 0.4121(6) 0.2712(5) 0.4566(5)
F7 F 0.2906(7) 0.3522(5) 0.3801(6)
F8 F 0.3892(9) 0.2601(6) 0.3323(7)
F9 F 0.1373(10) -0.0828(4) 0.3171(4)
F10 F 0.2283(10) -0.0125(6) 0.2488(7)
F11 F 0.0456(11) -0.0118(6) 0.2200(5)
F12 F -0.194(2) 0.4278(7) 0.5136(11)
O1 O -0.0784(5) 0.2192(3) 0.3230(3)
O2 O -0.0801(4) 0.2753(3) 0.4993(3)
O3 O -0.1701(4) 0.1020(3) 0.4591(2)
O4 O 0.1656(4) 0.2260(3) 0.4379(3)
O5 O 0.0540(4) 0.0616(2) 0.3773(2)
N1 N -0.4013(5) 0.3981(3) 0.0688(3)
N2 N -0.1582(5) 0.2634(3) 0.2676(3)
C1 C -0.3008(6) 0.3480(4) 0.1229(3)
C2 C -0.3504(8) 0.2680(5) 0.1562(4)
C3 C -0.2289(7) 0.4002(4) 0.1951(4)
C4 C -0.1172(8) 0.3507(5) 0.2493(5)
C5 C -0.2516(9) 0.2105(5) 0.2093(5)
C6 C -0.0746(11) 0.3989(6) 0.3304(6)
C7 C -0.0115(9) 0.3418(9) 0.2037(7)
C8 C -0.1911(17) 0.1557(8) 0.1572(7)
C9 C -0.3135(12) 0.1511(7) 0.2618(7)
C10 C -0.1764(8) 0.2810(5) 0.5210(5)
C11 C -0.2684(7) 0.2165(5) 0.5142(5)
C12 C -0.2569(7) 0.1346(5) 0.4860(4)
C13 C -0.3632(7) 0.0718(6) 0.4803(6)
C14 C 0.2283(7) 0.2061(5) 0.3874(5)
C15 C 0.2176(7) 0.1342(5) 0.3351(5)
C16 C 0.1326(7) 0.0675(5) 0.3370(4)
C17 C 0.1327(11) -0.0094(7) 0.2794(6)
C18 C 0.3289(10) 0.2725(8) 0.3875(8)
C19 C -0.2026(13) 0.3653(9) 0.5593(13)
H1 H -0.2456 0.3298 0.0908
H2 H -0.4050 0.2860 0.1887
H3 H -0.3944 0.2344 0.1104
H4 H -0.1998 0.4519 0.1745
H5 H -0.2828 0.4154 0.2291
H6 H -0.1012 0.3679 0.3725
H7 H 0.0130 0.4025 0.3447
H8 H -0.1086 0.4561 0.3254
H9 H -0.4654 0.4219 0.0906
H10 H -0.4022 0.4066 0.0120
H11 H 0.0656 0.3406 0.2436
H12 H -0.1875 0.1867 0.1082
H13 H -0.2383 0.1040 0.1425
H14 H -0.1098 0.1407 0.1870
H15 H -0.2932 0.1714 0.3175
H16 H -0.4005 0.1527 0.2405
H17 H -0.2848 0.0928 0.2601
H18 H -0.3419 0.2313 0.5301
H19 H 0.2685 0.1301 0.2971
H20 H -0.0134 0.3902 0.1676
H21 H -0.0219 0.2892 0.1724
Mn1C Mn -0.50521(9) 0.33261(6) -0.05437(6)
N1C N 0.0987(5) 0.1019(3) 0.5688(3)
H9C H 0.0346 0.0781 0.5906
H10C H 0.0978 0.0934 0.5120
loop_
_geom_bond_atom_site_label_1
_geom_bond_atom_site_label_2
_geom_bond_site_symmetry_1
_geom_bond_site_symmetry_2
Mn1 O1 1_555 1_555
F1 C19 1_555 1_555
F2 C19 1_555 1_555
F3 C13 1_555 1_555
F4 C13 1_555 1_555
F5 C13 1_555 1_555
F6 C18 1_555 1_555
F7 C18 1_555 1_555
F8 C18 1_555 1_555
F9 C17 1_555 1_555
F10 C17 1_555 1_555
F11 C17 1_555 1_555
F12 C19 1_555 1_555
O1 N2 1_555 1_555
O2 Mn1 1_555 1_555
O3 Mn1 1_555 1_555
O4 Mn1 1_555 1_555
O5 Mn1 1_555 1_555
N1 C1 1_555 1_555
N2 C4 1_555 1_555
C1 C2 1_555 1_555
C2 C5 1_555 1_555
C3 C1 1_555 1_555
C4 C3 1_555 1_555
C5 N2 1_555 1_555
C6 C4 1_555 1_555
C7 C4 1_555 1_555
C8 C5 1_555 1_555
C9 C5 1_555 1_555
C10 O2 1_555 1_555
C11 C10 1_555 1_555
C12 O3 1_555 1_555
C13 C12 1_555 1_555
C14 O4 1_555 1_555
C15 C14 1_555 1_555
C16 O5 1_555 1_555
C17 C16 1_555 1_555
C18 C14 1_555 1_555
C19 C10 1_555 1_555
H1 C1 1_555 1_555
H2 C2 1_555 1_555
H3 C2 1_555 1_555
H4 C3 1_555 1_555
H5 C3 1_555 1_555
H6 C6 1_555 1_555
H7 C6 1_555 1_555
H8 C6 1_555 1_555
H9 N1 1_555 1_555
H10 N1 1_555 1_555
H11 C7 1_555 1_555
H12 C8 1_555 1_555
H13 C8 1_555 1_555
H14 C8 1_555 1_555
H15 C9 1_555 1_555
H16 C9 1_555 1_555
H17 C9 1_555 1_555
H18 C11 1_555 1_555
H19 C15 1_555 1_555
H20 C7 1_555 1_555
H21 C7 1_555 1_555
Mn1C N1 1_555 1_555
N1C Mn1 1_555 1_555
H9C N1C 1_555 1_555
H10C N1C 1_555 1_555
C11 C12 1_555 1_555
C15 C16 1_555 1_555

#END
