
#######################################################################
#
#                 Cambridge Crystallographic Data Centre
#                                CCDC 
#
#######################################################################
#
# If this CIF has been generated from an entry in the Cambridge 
# Structural Database, then it will include bibliographic, chemical, 
# crystal, experimental, refinement or atomic coordinate data resulting 
# from the CCDC's data processing and validation procedures.
#
#######################################################################

data_VEVCUU
_symmetry_cell_setting           triclinic
_symmetry_space_group_name_H-M   'P -1'
_symmetry_Int_Tables_number      2
_space_group_name_Hall           '-P 1'
loop_
_symmetry_equiv_pos_site_id
_symmetry_equiv_pos_as_xyz
1 x,y,z
2 -x,-y,-z
_cell_length_a                   11.502(4)
_cell_length_b                   14.246(5)
_cell_length_c                   16.200(8)
_cell_angle_alpha                84.17(3)
_cell_angle_beta                 84.87(3)
_cell_angle_gamma                71.33(3)
_cell_volume                     2497.24
loop_
_atom_site_label
_atom_site_type_symbol
_atom_site_fract_x
_atom_site_fract_y
_atom_site_fract_z
Mn1 Mn 0.24317(7) 0.18041(5) 0.26445(4)
Mn2 Mn 0.25734(7) 0.41786(5) 0.27111(4)
Mn3 Mn 0.21338(7) -0.19230(5) 0.26044(4)
N1 N 0.3830(4) 0.2604(3) 0.2727(2)
N2 N 0.4895(4) 0.2288(3) 0.2504(3)
N3 N 0.5922(5) 0.1976(4) 0.2280(4)
N4 N 0.1208(3) 0.3372(3) 0.2628(2)
N5 N 0.0329(4) 0.3751(3) 0.2215(2)
N6 N -0.0505(4) 0.4112(4) 0.1820(3)
N7 N 0.3979(4) 0.4946(3) 0.2754(3)
N8 N 0.3759(3) 0.5798(3) 0.2562(2)
N9 N 0.3578(4) 0.6641(3) 0.2372(3)
N10 N 0.0998(4) 0.5612(3) 0.2694(3)
N11 N 0.0876(3) 0.6462(3) 0.2583(2)
N12 N 0.0719(4) 0.7321(3) 0.2483(3)
N13 N 0.3627(4) -0.1274(3) 0.2727(3)
N14 N 0.3715(3) -0.0475(3) 0.2715(2)
N15 N 0.3854(4) 0.0300(3) 0.2701(3)
N16 N 0.0782(4) -0.0420(3) 0.2898(3)
N17 N 0.0859(3) 0.0379(3) 0.2727(2)
N18 N 0.0898(4) 0.1186(3) 0.2545(3)
N19 N 0.2254(4) 0.1598(3) 0.4045(2)
C1 C 0.3236(4) 0.1470(3) 0.4470(3)
H1 H 0.3954(4) 0.1496(3) 0.4169(3)
C2 C 0.3272(5) 0.1303(3) 0.5323(3)
C3 C 0.2199(5) 0.1256(4) 0.5782(3)
C4 C 0.1178(5) 0.1392(4) 0.5338(3)
H2 H 0.0444(5) 0.1377(4) 0.5620(3)
C5 C 0.1231(5) 0.1550(4) 0.4490(3)
H3 H 0.0530(5) 0.1627(4) 0.4211(3)
C6 C 0.4453(5) 0.1159(4) 0.5731(4)
H4 H 0.4693(18) 0.0522(12) 0.6040(18)
H5 H 0.4331(10) 0.1673(16) 0.6100(17)
H6 H 0.5088(10) 0.1191(27) 0.5312(4)
C7 C 0.2148(6) 0.1067(4) 0.6705(3)
H7 H 0.2375(34) 0.1565(17) 0.6948(3)
H8 H 0.2707(26) 0.0422(12) 0.6856(3)
H9 H 0.1327(10) 0.1092(27) 0.6903(4)
N20 N 0.2880(4) 0.1844(3) 0.1229(2)
C8 C 0.2066(5) 0.2359(3) 0.0679(3)
H10 H 0.1284(5) 0.2712(3) 0.0885(3)
C9 C 0.2300(5) 0.2407(4) -0.0173(3)
C10 C 0.3475(5) 0.1886(4) -0.0478(3)
C11 C 0.4323(5) 0.1378(4) 0.0090(3)
H11 H 0.5123(5) 0.1040(4) -0.0096(3)
C12 C 0.4011(5) 0.1365(4) 0.0917(3)
H12 H 0.4605(5) 0.1010(4) 0.1283(3)
C13 C 0.1293(6) 0.3002(4) -0.0734(3)
H13 H 0.0585(13) 0.3357(22) -0.0402(4)
H14 H 0.1075(24) 0.2561(5) -0.1056(17)
H15 H 0.1580(13) 0.3466(19) -0.1099(16)
C14 C 0.3817(6) 0.1859(5) -0.1402(3)
H16 H 0.3453(32) 0.2505(9) -0.1675(5)
H17 H 0.3521(34) 0.1384(23) -0.1624(6)
H18 H 0.4695(7) 0.1671(31) -0.1494(4)
N21 N 0.2820(4) 0.4394(3) 0.1307(2)
C15 C 0.3928(4) 0.3972(3) 0.0931(3)
H19 H 0.4557(4) 0.3603(3) 0.1267(3)
C16 C 0.4205(4) 0.4041(3) 0.0091(3)
C17 C 0.3288(4) 0.4602(4) -0.0415(3)
C18 C 0.2130(4) 0.5035(4) -0.0038(3)
H20 H 0.1485(4) 0.5406(4) -0.0360(3)
C19 C 0.1939(4) 0.4918(3) 0.0806(3)
H21 H 0.1157(4) 0.5218(3) 0.1042(3)
C20 C 0.5499(5) 0.3508(4) -0.0243(3)
H22 H 0.6001(9) 0.3191(21) 0.0212(3)
H23 H 0.5840(12) 0.3980(5) -0.0553(17)
H24 H 0.5476(6) 0.3017(17) -0.0600(16)
C21 C 0.3525(5) 0.4761(5) -0.1334(3)
H25 H 0.2760(6) 0.5083(24) -0.1587(4)
H26 H 0.3919(30) 0.4131(5) -0.1561(5)
H27 H 0.4050(27) 0.5171(22) -0.1443(3)
N22 N 0.2474(3) 0.4027(3) 0.4119(2)
C22 C 0.3457(4) 0.3972(3) 0.4539(3)
H28 H 0.4171(4) 0.3993(3) 0.4230(3)
C23 C 0.3480(4) 0.3886(3) 0.5390(3)
C24 C 0.2403(5) 0.3852(3) 0.5852(3)
C25 C 0.1403(5) 0.3900(3) 0.5428(3)
H29 H 0.0682(5) 0.3866(3) 0.5721(3)
C26 C 0.1458(4) 0.3997(3) 0.4575(3)
H30 H 0.0760(4) 0.4044(3) 0.4303(3)
C27 C 0.4620(5) 0.3857(5) 0.5786(4)
H31 H 0.4883(20) 0.3263(14) 0.6150(18)
H32 H 0.4450(10) 0.4427(15) 0.6100(19)
H33 H 0.5257(11) 0.3862(28) 0.5363(4)
C28 C 0.2332(6) 0.3781(5) 0.6787(3)
H34 H 0.2356(36) 0.4391(11) 0.6976(3)
H35 H 0.3017(20) 0.3242(18) 0.6987(3)
H36 H 0.1579(17) 0.3663(28) 0.6995(3)
N23 N 0.2128(3) -0.2366(3) 0.3992(2)
C29 C 0.2273(5) -0.1765(4) 0.4525(3)
H37 H 0.2360(5) -0.1158(4) 0.4311(3)
C30 C 0.2300(5) -0.1984(4) 0.5371(3)
C31 C 0.2148(5) -0.2878(4) 0.5702(3)
C32 C 0.1975(5) -0.3485(4) 0.5150(3)
H38 H 0.1856(5) -0.4086(4) 0.5347(3)
C33 C 0.1974(5) -0.3220(3) 0.4326(3)
H39 H 0.1861(5) -0.3653(3) 0.3972(3)
C34 C 0.2475(7) -0.1251(5) 0.5914(4)
H40 H 0.3165(26) -0.1571(10) 0.6246(21)
H41 H 0.1749(17) -0.1008(26) 0.6271(20)
H42 H 0.2625(43) -0.0705(18) 0.5572(4)
C35 C 0.2152(7) -0.3166(5) 0.6620(3)
H43 H 0.1568(29) -0.2643(14) 0.6910(4)
H44 H 0.2958(12) -0.3276(31) 0.6806(6)
H45 H 0.1933(39) -0.3765(18) 0.6732(5)
N24 N 0.1990(4) -0.1383(3) 0.1230(2)
C36 C 0.1700(4) -0.1871(3) 0.0662(3)
H46 H 0.1592(4) -0.2482(3) 0.0833(3)
C37 C 0.1547(4) -0.1530(4) -0.0168(3)
C38 C 0.1668(5) -0.0608(4) -0.0416(3)
C39 C 0.1971(5) -0.0109(4) 0.0164(3)
H47 H 0.2074(5) 0.0508(4) 0.0012(3)
C40 C 0.2124(5) -0.0505(4) 0.0968(3)
H48 H 0.2330(5) -0.0146(4) 0.1348(3)
C41 C 0.1266(6) -0.2158(4) -0.0759(4)
H49 H 0.1175(36) -0.2750(14) -0.0461(5)
H50 H 0.1926(17) -0.2334(24) -0.1178(14)
H51 H 0.0516(19) -0.1792(11) -0.1017(18)
C42 C 0.1504(6) -0.0176(4) -0.1299(3)
H52 H 0.0704(14) -0.0139(26) -0.1455(8)
H53 H 0.2122(22) -0.0591(16) -0.1659(4)
H54 H 0.1582(34) 0.0479(12) -0.1348(6)
N9_2 N 0.3578(4) -0.3359(3) 0.2372(3)
N12_2 N 0.0719(4) -0.2679(3) 0.2483(3)
Mn3_2 Mn 0.21338(7) 0.80770(5) 0.26044(4)
loop_
_geom_bond_atom_site_label_1
_geom_bond_atom_site_label_2
_geom_bond_site_symmetry_1
_geom_bond_site_symmetry_2
Mn1 N1 1_555 1_555
Mn2 N1 1_555 1_555
Mn3 N13 1_555 1_555
N1 N2 1_555 1_555
N2 N3 1_555 1_555
N4 Mn1 1_555 1_555
N5 N4 1_555 1_555
N6 N5 1_555 1_555
N7 Mn2 1_555 1_555
N8 N7 1_555 1_555
N9 N8 1_555 1_555
N10 Mn2 1_555 1_555
N11 N10 1_555 1_555
N12 N11 1_555 1_555
N13 N14 1_555 1_555
N14 N15 1_555 1_555
N15 Mn1 1_555 1_555
N16 Mn3 1_555 1_555
N17 N16 1_555 1_555
N18 Mn1 1_555 1_555
N19 Mn1 1_555 1_555
C1 N19 1_555 1_555
H1 C1 1_555 1_555
C2 C1 1_555 1_555
C3 C2 1_555 1_555
C4 C3 1_555 1_555
H2 C4 1_555 1_555
C5 N19 1_555 1_555
H3 C5 1_555 1_555
C6 C2 1_555 1_555
H4 C6 1_555 1_555
H5 C6 1_555 1_555
H6 C6 1_555 1_555
C7 C3 1_555 1_555
H7 C7 1_555 1_555
H8 C7 1_555 1_555
H9 C7 1_555 1_555
N20 Mn1 1_555 1_555
C8 N20 1_555 1_555
H10 C8 1_555 1_555
C9 C8 1_555 1_555
C10 C9 1_555 1_555
C11 C10 1_555 1_555
H11 C11 1_555 1_555
C12 N20 1_555 1_555
H12 C12 1_555 1_555
C13 C9 1_555 1_555
H13 C13 1_555 1_555
H14 C13 1_555 1_555
H15 C13 1_555 1_555
C14 C10 1_555 1_555
H16 C14 1_555 1_555
H17 C14 1_555 1_555
H18 C14 1_555 1_555
N21 Mn2 1_555 1_555
C15 N21 1_555 1_555
H19 C15 1_555 1_555
C16 C15 1_555 1_555
C17 C16 1_555 1_555
C18 C17 1_555 1_555
H20 C18 1_555 1_555
C19 N21 1_555 1_555
H21 C19 1_555 1_555
C20 C16 1_555 1_555
H22 C20 1_555 1_555
H23 C20 1_555 1_555
H24 C20 1_555 1_555
C21 C17 1_555 1_555
H25 C21 1_555 1_555
H26 C21 1_555 1_555
H27 C21 1_555 1_555
N22 Mn2 1_555 1_555
C22 N22 1_555 1_555
H28 C22 1_555 1_555
C23 C22 1_555 1_555
C24 C23 1_555 1_555
C25 C24 1_555 1_555
H29 C25 1_555 1_555
C26 N22 1_555 1_555
H30 C26 1_555 1_555
C27 C23 1_555 1_555
H31 C27 1_555 1_555
H32 C27 1_555 1_555
H33 C27 1_555 1_555
C28 C24 1_555 1_555
H34 C28 1_555 1_555
H35 C28 1_555 1_555
H36 C28 1_555 1_555
N23 Mn3 1_555 1_555
C29 N23 1_555 1_555
H37 C29 1_555 1_555
C30 C29 1_555 1_555
C31 C30 1_555 1_555
C32 C31 1_555 1_555
H38 C32 1_555 1_555
C33 N23 1_555 1_555
H39 C33 1_555 1_555
C34 C30 1_555 1_555
H40 C34 1_555 1_555
H41 C34 1_555 1_555
H42 C34 1_555 1_555
C35 C31 1_555 1_555
H43 C35 1_555 1_555
H44 C35 1_555 1_555
H45 C35 1_555 1_555
N24 Mn3 1_555 1_555
C36 N24 1_555 1_555
H46 C36 1_555 1_555
C37 C36 1_555 1_555
C38 C37 1_555 1_555
C39 C38 1_555 1_555
H47 C39 1_555 1_555
C40 N24 1_555 1_555
H48 C40 1_555 1_555
C41 C37 1_555 1_555
H49 C41 1_555 1_555
H50 C41 1_555 1_555
H51 C41 1_555 1_555
C42 C38 1_555 1_555
H52 C42 1_555 1_555
H53 C42 1_555 1_555
H54 C42 1_555 1_555
N9_2 Mn3 1_555 1_555
N12_2 Mn3 1_555 1_555
Mn3_2 N9 1_555 1_555
Mn2 N4 1_555 1_555
N12 Mn3_2 1_555 1_555
N17 N18 1_555 1_555
C4 C5 1_555 1_555
C11 C12 1_555 1_555
C18 C19 1_555 1_555
C25 C26 1_555 1_555
C32 C33 1_555 1_555
C39 C40 1_555 1_555

#END
